
###############################################################################
#
# This file contains modified crystal structure data generated from the
# MOF subset of the Cambridge Structural Database (CSD) v543 
# hosted by the Cambridge Crystallographic Data Centre (CCDC).
#
# This work is licensed under the Creative Commons
# Attribution-NonCommercial-ShareAlike 4.0 International License.
# To view a copy of this license, visit
# http://creativecommons.org/licenses/by-nc-sa/4.0/
# or send a letter to
# Creative Commons, PO Box 1866, Mountain View, CA 94042, USA.
#
# CIF created using the CSD Python API on 29 September 2022
# The structure has been converted into the P1 space group
# The structure has a 3D framework
# The original CSD entry NAPJIB is in the monoclinic crystal system
# The framework has been calculated to contain at least 10.0% void space
# The void calculation uses a probe of radius 1.32A, grid spacing 0.4
# H atom positions have been added when not included in the experimental data
#
###############################################################################

data_NAPJIB
_chemical_formula_moiety         '(C1008 H1104 Br24 Cu24 N56 O120 Zn32)n'
_symmetry_cell_setting           triclinic
_symmetry_space_group_name_H-M   'P 1'
_symmetry_Int_Tables_number      1
_space_group_name_Hall           'P 1'
loop_
_symmetry_equiv_pos_site_id
_symmetry_equiv_pos_as_xyz
1 x,y,z
_cell_length_a                   31.173(6)
_cell_length_b                   45.755(9)
_cell_length_c                   28.545(6)
_cell_angle_alpha                90
_cell_angle_beta                 99.98(3)
_cell_angle_gamma                90
_cell_volume                     40098.2
loop_
_atom_site_label
_atom_site_type_symbol
_atom_site_fract_x
_atom_site_fract_y
_atom_site_fract_z
O6 O 0.02499(18) 0.75395(10) 0.88288(18)
O12 O 0.0576(2) 0.77289(14) 0.9518(2)
C106 C 0.0274(3) 0.77119(19) 0.9175(3)
H119 H 0.020905 0.817232 0.974223
Zn6 Zn 0.06561(3) 0.72221(2) 0.88776(3)
Zn10 Zn 0.12273(3) 0.76379(2) 0.96460(3)
O1 O 0.60464(17) 0.20924(11) 0.04681(15)
O3 O 0.57813(19) 0.21432(11) 0.82478(15)
O10 O 0.6517(2) 0.20933(12) 0.84053(16)
O11 O 0.62349(18) 0.25535(11) 0.03591(15)
C14 C 0.5915(3) 0.2906(2) 0.4671(3)
H7 H 0.579736 0.302779 0.488642
H8 H 0.659393 0.111738 0.006659
C17 C 0.6257(3) 0.25249(19) 0.4391(2)
C19 C 0.5904(3) 0.2965(2) 0.4197(3)
H9 H 0.577587 0.312632 0.401502
C20 C 0.5400(4) 0.2427(3) 0.3499(3)
H10 H 0.547000 0.244848 0.385223
C23 C 0.5292(4) 0.2120(3) 0.3395(4)
H15 H 0.503215 0.206820 0.352796
H16 H 0.523340 0.209048 0.305012
H17 H 0.553630 0.199689 0.353836
C32 C 0.6896(5) 0.3233(3) 0.3460(5)
H24 H 0.661870 0.333762 0.343563
H25 H 0.712299 0.333884 0.367295
H26 H 0.697625 0.321773 0.314346
C43 C 0.5005(4) 0.2644(3) 0.3308(4)
H34 H 0.509473 0.284572 0.338641
H35 H 0.492323 0.262368 0.296200
H36 H 0.475415 0.259498 0.345832
Br1 Br 0.67725(7) 0.17066(5) 0.43257(7)
N1 N 0.6121(2) 0.26466(16) 0.47844(19)
N2 N 0.6133(2) 0.27244(16) 0.4048(2)
C53 C 0.6505(3) 0.26150(19) 0.5606(3)
C54 C 0.6164(3) 0.21230(16) 0.7611(2)
C55 C 0.6568(3) 0.21395(19) 0.7454(3)
H54 H 0.683617 0.212450 0.766894
C56 C 0.5527(3) 0.21785(19) 0.4911(2)
H55 H 0.561045 0.224486 0.460512
C57 C 0.5782(3) 0.21340(15) 0.7279(2)
H56 H 0.550978 0.211248 0.738270
C58 C 0.6806(3) 0.2843(2) 0.5506(3)
H57 H 0.663849 0.298839 0.528518
C59 C 0.6555(3) 0.21788(19) 0.6967(3)
H58 H 0.682378 0.218601 0.685261
C60 C 0.6154(3) 0.21161(17) 0.8131(3)
C61 C 0.5872(3) 0.22907(18) 0.5306(2)
C62 C 0.6166(3) 0.25077(19) 0.5236(2)
C63 C 0.7166(3) 0.2697(3) 0.5246(3)
H59 H 0.736974 0.284770 0.517774
H60 H 0.732452 0.254783 0.545361
H61 H 0.702417 0.260666 0.494835
H62 H 0.725206 0.025172 0.009701
C72 C 0.5885(3) 0.21931(18) 0.5774(2)
H75 H 0.568050 0.205059 0.583637
C73 C 0.5788(3) 0.21750(16) 0.6806(2)
H76 H 0.552207 0.218157 0.658569
C74 C 0.5518(3) 0.1850(2) 0.4899(3)
H77 H 0.529137 0.178364 0.463874
H78 H 0.580189 0.177607 0.484800
H79 H 0.545579 0.177510 0.520170
C75 C 0.6182(3) 0.22071(17) 0.6648(2)
C76 C 0.6185(3) 0.22984(18) 0.6141(2)
C77 C 0.6493(3) 0.25005(18) 0.6061(2)
H80 H 0.670432 0.256436 0.632206
C78 C 0.5094(3) 0.2316(2) 0.4938(3)
H81 H 0.487335 0.224059 0.467948
H82 H 0.501009 0.226749 0.524464
H83 H 0.511579 0.252829 0.490880
C79 C 0.7041(3) 0.3008(2) 0.5958(3)
H84 H 0.723599 0.315683 0.586284
H85 H 0.682389 0.310308 0.611716
H86 H 0.721114 0.286913 0.617584
C80 C 0.7239(5) 0.2792(4) 0.3681(5)
H87 H 0.719624 0.259742 0.380865
H88 H 0.732233 0.277346 0.336743
H89 H 0.746907 0.289457 0.389692
Cu3 Cu 0.65107(6) 0.21530(4) 0.43596(5)
C88 C 0.6006(3) 0.21905(17) 0.1403(2)
H109 H 0.589755 0.200997 0.126678
C89 C 0.6173(3) 0.2567(2) 0.2597(2)
C91 C 0.6278(3) 0.26709(19) 0.1322(2)
H110 H 0.635533 0.282209 0.112389
C92 C 0.6135(3) 0.23546(19) 0.0606(2)
C93 C 0.5814(3) 0.2462(2) 0.2814(3)
H111 H 0.558132 0.235568 0.263193
C98 C 0.6143(3) 0.24026(17) 0.1124(2)
C99 C 0.6169(3) 0.25047(19) 0.2093(2)
C100 C 0.6521(3) 0.2784(2) 0.3366(3)
C104 C 0.6504(3) 0.27203(19) 0.2878(2)
H115 H 0.673757 0.278791 0.273267
C108 C 0.6301(3) 0.27215(19) 0.1802(2)
H118 H 0.640535 0.290363 0.193519
C111 C 0.5814(3) 0.2520(2) 0.3292(3)
C112 C 0.6145(3) 0.26747(19) 0.3550(2)
C115 C 0.6026(3) 0.22408(18) 0.1891(2)
H121 H 0.593984 0.209085 0.208531
C120 C 0.6851(3) 0.2951(2) 0.3641(3)
H124 H 0.677713 0.297191 0.396643
Zn5 Zn 0.56561(3) 0.22221(2) 0.88776(3)
Zn7 Zn 0.66758(3) 0.21403(2) 0.91046(3)
H133 H 0.657623 0.262654 0.448475
H137 H 0.633839 0.311242 0.0175797
O2 O 0.65293(19) 0.16389(10) 0.98796(16)
O4 O 0.61687(15) 0.22283(9) 0.93644(13)
O7 O 0.52817(17) 0.18791(10) 0.89519(17)
O8 O 0.68855(19) 0.17475(11) 0.92911(18)
O9 O 0.55911(19) 0.16909(12) 0.96454(18)
C1 C 0.5122(3) 0.13972(17) 0.9106(3)
C2 C 0.5277(3) 0.11416(18) 0.9368(3)
H1 H 0.550580 0.115409 0.963508
C3 C 0.4637(3) 0.10993(18) 0.8576(3)
H2 H 0.441733 0.108905 0.830081
C4 C 0.4768(4) 0.0846(2) 0.8815(4)
C6 C 0.5091(4) 0.0879(2) 0.9228(4)
H3 H 0.518222 0.071139 0.941452
C7 C 0.5346(3) 0.16794(17) 0.9242(3)
C8 C 0.4594(4) 0.0569(2) 0.8689(4)
C9 C 0.4812(3) 0.13677(17) 0.8717(3)
H4 H 0.471110 0.153611 0.853604
C15 C 0.6898(3) 0.12650(18) 0.9557(3)
C16 C 0.6764(3) 0.10597(18) 0.9837(3)
C18 C 0.3966(5) 0.0272(2) 0.8323(4)
C21 C 0.6867(4) 0.07642(19) 0.9799(3)
H11 H 0.675413 0.062154 0.998674
C22 C 0.3213(5) 0.0251(3) 0.8431(6)
H12 H 0.291109 0.023747 0.826570
H13 H 0.328039 0.008321 0.864449
H14 H 0.325272 0.043219 0.861652
C24 C 0.7141(4) 0.0682(2) 0.9481(4)
C25 C 0.3503(5) 0.0251(3) 0.8085(5)
H18 H 0.346766 0.005795 0.791928
C26 C 0.7291(4) 0.0891(2) 0.9218(4)
H19 H 0.747931 0.083996 0.900316
C27 C 0.4172(4) 0.0534(2) 0.8446(4)
H20 H 0.400998 0.070702 0.835687
C29 C 0.7170(3) 0.1182(2) 0.9262(3)
H21 H 0.728302 0.132679 0.907796
C33 C 0.7216(4) 0.0364(2) 0.9400(4)
C35 C 0.4863(5) 0.0306(2) 0.8792(5)
H28 H 0.515915 0.031678 0.894092
C40 C 0.4233(5) 0.0022(2) 0.8397(5)
C47 C 0.4652(6) 0.0025(3) 0.8653(6)
C51 C 0.7262(4) 0.0266(2) 0.8969(4)
H50 H 0.725396 0.039814 0.871128
C65 C 0.7276(4) 0.0179(2) 0.9791(4)
C71 C 0.3355(6) 0.0504(3) 0.7677(5)
H72 H 0.355447 0.050097 0.744634
H73 H 0.305809 0.046422 0.751304
H74 H 0.336574 0.069630 0.782904
H103 H 0.680797 0.005643 0.806055
C86 C 0.7615(8) 0.0031(5) 0.8169(7)
H105 H 0.790268 0.002795 0.837122
H107 H 0.750364 0.023223 0.814439
Zn3 Zn 0.60912(3) 0.19479(2) 0.98440(3)
Zn4 Zn 0.62273(3) 0.26379(2) 0.96460(3)
C90 C 0.6773(3) 0.15698(18) 0.9578(3)
O14 O 0.6260(2) 0.27779(14) 0.8905(2)
O15 O 0.6264(3) 0.30905(14) 0.9825(3)
N7 N 0.6576(4) 0.3080(2) 0.8434(4)
C124 C 0.6347(5) 0.3016(3) 0.8791(4)
C125 C 0.6694(7) 0.2860(3) 0.8121(5)
H127 H 0.685490 0.294981 0.789269
H128 H 0.687748 0.271214 0.830757
H129 H 0.642978 0.276631 0.794910
C126 C 0.6608(7) 0.3383(3) 0.8270(6)
H130 H 0.678201 0.338792 0.801511
H131 H 0.631561 0.345875 0.814993
H132 H 0.674811 0.350440 0.853606
O17 O 0.71574(19) 0.24047(12) 0.91926(18)
O18 O 0.52499(18) 0.25395(10) 0.88288(18)
O20 O 0.5576(2) 0.27289(14) 0.9518(2)
O21 O 0.68973(19) 0.26526(14) 0.97504(19)
H136 H 0.597843 0.318463 0.97084
H138 H 0.623706 0.319879 0.8984
O5 O 0.21574(19) 0.74047(12) 0.91926(18)
O13 O 0.18973(19) 0.76526(14) 0.97504(19)
C5 C 0.8869(4) 0.85305(19) 0.9153(3)
C10 C 0.8753(4) 0.8605(2) 0.9599(4)
H5 H 0.892141 0.854421 0.989218
C11 C 0.8170(4) 0.8881(2) 0.9164(4)
C12 C 0.8634(4) 0.86337(19) 0.8744(3)
H6 H 0.872344 0.858404 0.845176
C13 C 0.8366(4) 0.8778(2) 0.9579(4)
C28 C 0.8275(4) 0.8806(2) 0.8731(4)
C30 C 0.8046(4) 0.8945(2) 0.8254(4)
H22 H 0.776860 0.903460 0.831593
C34 C 0.7166(6) 0.9253(3) 0.9173(5)
H27 H 0.685872 0.926952 0.914565
C36 C 0.7849(7) 0.9354(5) 0.9240(7)
C37 C 0.7390(6) 0.9005(3) 0.9173(5)
H29 H 0.727405 0.881270 0.917163
C39 C 0.4968(6) 0.9751(4) 0.8825(7)
H33 H 0.483022 0.956639 0.868378
C41 C 0.7376(5) 0.9877(2) 0.9731(5)
C42 C 0.7323(5) 0.9959(3) 0.8899(5)
C45 C 0.5041(6) 0.9730(4) 0.9342(7)
H40 H 0.475946 0.972690 0.945156
H41 H 0.520125 0.955036 0.944319
H42 H 0.520984 0.989939 0.948006
C48 C 0.7917(4) 0.8686(2) 0.7891(4)
H46 H 0.773886 0.854391 0.802867
H47 H 0.774962 0.876371 0.759474
H48 H 0.818105 0.859073 0.782515
C49 C 0.7368(5) 0.9780(2) 0.9309(5)
C52 C 0.8318(5) 0.9186(3) 0.8113(4)
H51 H 0.817157 0.927171 0.781293
H52 H 0.835950 0.933596 0.836120
H53 H 0.860191 0.910802 0.807116
Cu1 Cu 0.8389(2) 0.95945(13) 0.9313(2)
N3 N 0.3738(3) 0.93233(16) 0.8382(3)
N4 N 0.7820(5) 0.9075(3) 0.9174(4)
N5 N 0.7449(5) 0.9472(2) 0.9219(4)
N6 N 0.4035(4) 0.97377(18) 0.8306(3)
C64 C 0.3897(4) 0.9574(2) 0.8635(4)
Br2 Br 0.8921(3) 0.98736(18) 0.9363(3)
C66 C 0.3787(4) 0.9350(2) 0.7923(4)
H63 H 0.370373 0.921013 0.767848
C67 C 0.2814(4) 0.9390(2) 0.8436(4)
H64 H 0.302756 0.952804 0.833289
C68 C 0.2489(5) 0.9325(3) 0.7993(5)
H65 H 0.263514 0.922195 0.776371
H66 H 0.225459 0.920321 0.807362
H67 H 0.236731 0.950921 0.785197
C69 C 0.2640(5) 0.9542(3) 0.8802(5)
H68 H 0.287190 0.957434 0.907578
H69 H 0.252064 0.973048 0.867921
H70 H 0.240792 0.942448 0.890085
C70 C 0.3968(5) 0.9599(2) 0.7878(4)
H71 H 0.404285 0.967306 0.759241
Cu2 Cu 0.39416(8) 0.96420(4) 0.92758(8)
C82 C 0.4471(5) 0.8836(4) 0.9328(5)
H93 H 0.478824 0.883008 0.934987
H94 H 0.438992 0.901324 0.948565
H95 H 0.437470 0.866363 0.948441
C83 C 0.4363(5) 0.8613(3) 0.8414(6)
H96 H 0.467928 0.861169 0.842923
H97 H 0.426647 0.841784 0.849472
H98 H 0.421964 0.866462 0.809178
C84 C 0.5446(7) 0.9750(4) 0.8794(8)
H99 H 0.548039 0.976324 0.846000
H100 H 0.558845 0.991807 0.896955
H101 H 0.557985 0.956905 0.893268
C85 C 0.6916(8) 0.9855(4) 0.8084(7)
H102 H 0.671221 0.973085 0.821950
H104 H 0.694234 0.978326 0.776708
H106 H 0.763801 0.995906 0.785092
C87 C 0.7319(8) 0.9847(4) 0.8375(5)
H108 H 0.743045 0.964160 0.838811
C94 C 0.2421(3) 0.78814(18) 0.9371(3)
C95 C 0.2876(3) 0.83673(17) 0.9106(3)
C96 C 0.9601(3) 0.83396(19) 0.9499(3)
H112 H 0.961142 0.848443 0.973904
C97 C 0.2131(3) 0.7629(2) 0.9450(3)
C101 C 0.2530(3) 0.83948(19) 0.9359(3)
H113 H 0.243857 0.858441 0.943499
C102 C 0.9897(3) 0.79285(18) 0.9151(3)
C103 C 0.3549(3) 0.86148(17) 0.8938(3)
H114 H 0.370587 0.844398 0.905238
C105 C 0.2980(3) 0.80894(15) 0.8993(3)
H116 H 0.321393 0.806085 0.882396
C107 C 0.2754(3) 0.78456(17) 0.9117(3)
H117 H 0.283125 0.765538 0.902719
C109 C 0.3097(3) 0.86287(17) 0.8946(3)
C110 C 0.9951(3) 0.81537(19) 0.9512(3)
C113 C 0.9237(3) 0.83228(18) 0.9150(3)
C114 C 0.9204(3) 0.81104(18) 0.8799(3)
H120 H 0.895406 0.810029 0.855697
C116 C 0.2327(3) 0.81603(19) 0.9497(3)
H122 H 0.211009 0.818828 0.968911
C117 C 0.3520(4) 0.9089(2) 0.8589(3)
C118 C 0.3080(5) 0.91164(19) 0.8611(3)
C119 C 0.9545(3) 0.79126(18) 0.8807(3)
H123 H 0.952744 0.776602 0.856915
C121 C 0.3772(4) 0.88493(19) 0.8764(3)
C122 C 0.2870(3) 0.88799(18) 0.8784(3)
H125 H 0.256741 0.889160 0.879163
C123 C 0.4241(4) 0.8840(2) 0.8774(4)
H126 H 0.431581 0.903439 0.864990
Zn8 Zn 0.16758(3) 0.71403(2) 0.91046(3)
H134 H 0.788433 0.932611 0.962365
H135 H 0.357679 0.967614 0.856318
O1_2 O 0.10464(17) 0.70924(11) 0.04681(15)
O3_2 O 0.07813(19) 0.71432(11) 0.82478(15)
O10_2 O 0.1517(2) 0.70933(12) 0.84053(16)
O11_2 O 0.12349(18) 0.75535(11) 0.03591(15)
C14_2 C 0.0915(3) 0.7906(2) 0.4671(3)
H7_2 H 0.079736 0.802779 0.488642
H8_2 H 0.159393 0.611738 0.006659
C17_2 C 0.1257(3) 0.75249(19) 0.4391(2)
C19_2 C 0.0904(3) 0.7965(2) 0.4197(3)
H9_2 H 0.077587 0.812632 0.401502
C20_2 C 0.0400(4) 0.7427(3) 0.3499(3)
H10_2 H 0.047000 0.744848 0.385223
C23_2 C 0.0292(4) 0.7120(3) 0.3395(4)
H15_2 H 0.003215 0.706820 0.352796
H16_2 H 0.023340 0.709048 0.305012
H17_2 H 0.053630 0.699689 0.353836
C31 C 0.2525(6) 0.4682(3) 0.0215(5)
H23 H 0.255560 0.447458 0.011652
C32_2 C 0.1896(5) 0.8233(3) 0.3460(5)
H24_2 H 0.161870 0.833762 0.343563
H25_2 H 0.212299 0.833884 0.367295
H26_2 H 0.197625 0.821773 0.314346
C38 C 0.3114(6) 0.3598(3) 0.0293(5)
H30 H 0.289076 0.349856 0.006341
H31 H 0.336295 0.346739 0.038494
H32 H 0.299158 0.365141 0.057496
C43_2 C 0.0005(4) 0.7644(3) 0.3308(4)
H34_2 H 0.009473 0.784572 0.338641
C44 C 0.2975(6) 0.4786(4) 0.0479(6)
H37 H 0.318856 0.477274 0.026573
H38 H 0.295309 0.498930 0.058124
H39 H 0.306728 0.466212 0.075839
C46 C 0.3582(6) 0.4029(3) 0.0371(5)
H43 H 0.364955 0.419873 0.018756
H44 H 0.347451 0.409586 0.065611
H45 H 0.384588 0.391184 0.046609
C50 C 0.3251(5) 0.3853(3) 0.0083(5)
H49 H 0.298757 0.398100 0.001628
Br1_2 Br 0.17725(7) 0.67066(5) 0.43257(7)
N1_2 N 0.1121(2) 0.76466(16) 0.47844(19)
N2_2 N 0.1133(2) 0.77244(16) 0.4048(2)
C53_2 C 0.1505(3) 0.76150(19) 0.5606(3)
C54_2 C 0.1164(3) 0.71230(16) 0.7611(2)
C55_2 C 0.1568(3) 0.71395(19) 0.7454(3)
H54_2 H 0.183617 0.712450 0.766894
C56_2 C 0.0527(3) 0.71785(19) 0.4911(2)
H55_2 H 0.061045 0.724486 0.460512
C57_2 C 0.0782(3) 0.71340(15) 0.7279(2)
H56_2 H 0.050978 0.711248 0.738270
C58_2 C 0.1806(3) 0.7843(2) 0.5506(3)
H57_2 H 0.163849 0.798839 0.528518
C59_2 C 0.1555(3) 0.71788(19) 0.6967(3)
H58_2 H 0.182378 0.718601 0.685261
C60_2 C 0.1154(3) 0.71161(17) 0.8131(3)
C61_2 C 0.0872(3) 0.72907(18) 0.5306(2)
C62_2 C 0.1166(3) 0.75077(19) 0.5236(2)
C63_2 C 0.2166(3) 0.7697(3) 0.5246(3)
H59_2 H 0.236974 0.784770 0.517774
H60_2 H 0.232452 0.754783 0.545361
H61_2 H 0.202417 0.760666 0.494835
H62_2 H 0.225206 0.525172 0.009701
C72_2 C 0.0885(3) 0.71931(18) 0.5774(2)
H75_2 H 0.068050 0.705059 0.583637
C73_2 C 0.0788(3) 0.71750(16) 0.6806(2)
H76_2 H 0.052207 0.718157 0.658569
C74_2 C 0.0518(3) 0.6850(2) 0.4899(3)
H77_2 H 0.029137 0.678364 0.463874
H78_2 H 0.080189 0.677607 0.484800
H79_2 H 0.045579 0.677510 0.520170
C75_2 C 0.1182(3) 0.72071(17) 0.6648(2)
C76_2 C 0.1185(3) 0.72984(18) 0.6141(2)
C77_2 C 0.1493(3) 0.75005(18) 0.6061(2)
H80_2 H 0.170432 0.756436 0.632206
C78_2 C 0.0094(3) 0.7316(2) 0.4938(3)
H82_2 H 0.001009 0.726749 0.524464
H83_2 H 0.011579 0.752829 0.490880
C79_2 C 0.2041(3) 0.8008(2) 0.5958(3)
H84_2 H 0.223599 0.815683 0.586284
H85_2 H 0.182389 0.810308 0.611716
H86_2 H 0.221114 0.786913 0.617584
C80_2 C 0.2239(5) 0.7792(4) 0.3681(5)
H87_2 H 0.219624 0.759742 0.380865
H88_2 H 0.232233 0.777346 0.336743
H89_2 H 0.246907 0.789457 0.389692
C81 C 0.2177(6) 0.4694(3) 0.0510(6)
H90 H 0.190236 0.462603 0.032175
H91 H 0.225692 0.456892 0.078950
H92 H 0.214273 0.489610 0.061236
Cu3_2 Cu 0.15107(6) 0.71530(4) 0.43596(5)
C88_2 C 0.1006(3) 0.71905(17) 0.1403(2)
H109_2 H 0.089755 0.700997 0.126678
C89_2 C 0.1173(3) 0.7567(2) 0.2597(2)
C91_2 C 0.1278(3) 0.76709(19) 0.1322(2)
H110_2 H 0.135533 0.782209 0.112389
C92_2 C 0.1135(3) 0.73546(19) 0.0606(2)
C93_2 C 0.0814(3) 0.7462(2) 0.2814(3)
H111_2 H 0.058132 0.735568 0.263193
C98_2 C 0.1143(3) 0.74026(17) 0.1124(2)
C99_2 C 0.1169(3) 0.75047(19) 0.2093(2)
C100_2 C 0.1521(3) 0.7784(2) 0.3366(3)
C104_2 C 0.1504(3) 0.77203(19) 0.2878(2)
H115_2 H 0.173757 0.778791 0.273267
C108_2 C 0.1301(3) 0.77215(19) 0.1802(2)
H118_2 H 0.140535 0.790363 0.193519
C111_2 C 0.0814(3) 0.7520(2) 0.3292(3)
C112_2 C 0.1145(3) 0.76747(19) 0.3550(2)
C115_2 C 0.1026(3) 0.72408(18) 0.1891(2)
H121_2 H 0.093984 0.709085 0.208531
C120_2 C 0.1851(3) 0.7951(2) 0.3641(3)
H124_2 H 0.177713 0.797191 0.396643
H133_2 H 0.157623 0.762654 0.448475
H137_2 H 0.133839 0.811242 0.0175797
O2_2 O 0.15293(19) 0.66389(10) 0.98796(16)
O4_2 O 0.11687(15) 0.72283(9) 0.93644(13)
O7_2 O 0.02817(17) 0.68791(10) 0.89519(17)
O8_2 O 0.18855(19) 0.67475(11) 0.92911(18)
O9_2 O 0.05911(19) 0.66909(12) 0.96454(18)
C1_2 C 0.0122(3) 0.63972(17) 0.9106(3)
C2_2 C 0.0277(3) 0.61416(18) 0.9368(3)
H1_2 H 0.050580 0.615409 0.963508
C5_2 C 0.3869(4) 0.35305(19) 0.9153(3)
C6_2 C 0.0091(4) 0.5879(2) 0.9228(4)
H3_2 H 0.018222 0.571139 0.941452
C7_2 C 0.0346(3) 0.66794(17) 0.9242(3)
C10_2 C 0.3753(4) 0.3605(2) 0.9599(4)
H5_2 H 0.392141 0.354421 0.989218
C11_2 C 0.3170(4) 0.3881(2) 0.9164(4)
C12_2 C 0.3634(4) 0.36337(19) 0.8744(3)
H6_2 H 0.372344 0.358404 0.845176
C13_2 C 0.3366(4) 0.3778(2) 0.9579(4)
C15_2 C 0.1898(3) 0.62650(18) 0.9557(3)
C16_2 C 0.1764(3) 0.60597(18) 0.9837(3)
C21_2 C 0.1867(4) 0.57642(19) 0.9799(3)
H11_2 H 0.175413 0.562154 0.998674
C24_2 C 0.2141(4) 0.5682(2) 0.9481(4)
C26_2 C 0.2291(4) 0.5891(2) 0.9218(4)
H19_2 H 0.247931 0.583996 0.900316
C28_2 C 0.3275(4) 0.3806(2) 0.8731(4)
C29_2 C 0.2170(3) 0.6182(2) 0.9262(3)
H21_2 H 0.228302 0.632679 0.907796
C30_2 C 0.3046(4) 0.3945(2) 0.8254(4)
H22_2 H 0.276860 0.403460 0.831593
C33_2 C 0.2216(4) 0.5364(2) 0.9400(4)
C34_2 C 0.2166(6) 0.4253(3) 0.9173(5)
H27_2 H 0.185872 0.426952 0.914565
H28_2 H 0.015915 0.531678 0.894092
C36_2 C 0.2849(7) 0.4354(5) 0.9240(7)
C37_2 C 0.2390(6) 0.4005(3) 0.9173(5)
H29_2 H 0.227405 0.381270 0.917163
C41_2 C 0.2376(5) 0.4877(2) 0.9731(5)
C42_2 C 0.2323(5) 0.4959(3) 0.8899(5)
C45_2 C 0.0041(6) 0.4730(4) 0.9342(7)
H41_2 H 0.020125 0.455036 0.944319
H42_2 H 0.020984 0.489939 0.948006
C48_2 C 0.2917(4) 0.3686(2) 0.7891(4)
H46_2 H 0.273886 0.354391 0.802867
H47_2 H 0.274962 0.376371 0.759474
H48_2 H 0.318105 0.359073 0.782515
C49_2 C 0.2368(5) 0.4780(2) 0.9309(5)
C51_2 C 0.2262(4) 0.5266(2) 0.8969(4)
H50_2 H 0.225396 0.539814 0.871128
C52_2 C 0.3318(5) 0.4186(3) 0.8113(4)
H51_2 H 0.317157 0.427171 0.781293
H52_2 H 0.335950 0.433596 0.836120
H53_2 H 0.360191 0.410802 0.807116
Cu1_2 Cu 0.3389(2) 0.45945(13) 0.9313(2)
N4_2 N 0.2820(5) 0.4075(3) 0.9174(4)
N5_2 N 0.2449(5) 0.4472(2) 0.9219(4)
Br2_2 Br 0.3921(3) 0.48736(18) 0.9363(3)
C65_2 C 0.2276(4) 0.5179(2) 0.9791(4)
C84_2 C 0.0446(7) 0.4750(4) 0.8794(8)
H99_2 H 0.048039 0.476324 0.846000
H100_2 H 0.058845 0.491807 0.896955
H101_2 H 0.057985 0.456905 0.893268
C85_2 C 0.1916(8) 0.4855(4) 0.8084(7)
H102_2 H 0.171221 0.473085 0.821950
H103_2 H 0.180797 0.505643 0.806055
H104_2 H 0.194234 0.478326 0.776708
C86_2 C 0.2615(8) 0.5031(5) 0.8169(7)
H105_2 H 0.290268 0.502795 0.837122
H106_2 H 0.263801 0.495906 0.785092
H107_2 H 0.250364 0.523223 0.814439
C87_2 C 0.2319(8) 0.4847(4) 0.8375(5)
H108_2 H 0.243045 0.464160 0.838811
Zn3_2 Zn 0.10912(3) 0.69479(2) 0.98440(3)
C90_2 C 0.1773(3) 0.65698(18) 0.9578(3)
C96_2 C 0.4601(3) 0.33396(19) 0.9499(3)
H112_2 H 0.461142 0.348443 0.973904
C102_2 C 0.4897(3) 0.29285(18) 0.9151(3)
C106_2 C 0.5274(3) 0.27119(19) 0.9175(3)
C110_2 C 0.4951(3) 0.31537(19) 0.9512(3)
H119_2 H 0.520905 0.317232 0.974223
C113_2 C 0.4237(3) 0.33228(18) 0.9150(3)
C114_2 C 0.4204(3) 0.31104(18) 0.8799(3)
H120_2 H 0.395406 0.310029 0.855697
C119_2 C 0.4545(3) 0.29126(18) 0.8807(3)
H123_2 H 0.452744 0.276602 0.856915
O14_2 O 0.1260(2) 0.77779(14) 0.8905(2)
O15_2 O 0.1264(3) 0.80905(14) 0.9825(3)
N7_2 N 0.1576(4) 0.8080(2) 0.8434(4)
C124_2 C 0.1347(5) 0.8016(3) 0.8791(4)
C125_2 C 0.1694(7) 0.7860(3) 0.8121(5)
H127_2 H 0.185490 0.794981 0.789269
H128_2 H 0.187748 0.771214 0.830757
H129_2 H 0.142978 0.776631 0.794910
C126_2 C 0.1608(7) 0.8383(3) 0.8270(6)
H130_2 H 0.178201 0.838792 0.801511
H131_2 H 0.131561 0.845875 0.814993
H132_2 H 0.174811 0.850440 0.853606
H134_2 H 0.288433 0.432611 0.962365
H136_2 H 0.0978432 0.818463 0.97084
H138_2 H 0.123706 0.819879 0.8984
C3_2 C 0.9637(3) 0.60993(18) 0.8576(3)
H2_2 H 0.941733 0.608905 0.830081
C4_2 C 0.9768(4) 0.5846(2) 0.8815(4)
C8_2 C 0.9594(4) 0.5569(2) 0.8689(4)
C9_2 C 0.9812(3) 0.63677(17) 0.8717(3)
H4_2 H 0.971110 0.653611 0.853604
C18_2 C 0.8966(5) 0.5272(2) 0.8323(4)
C22_2 C 0.8213(5) 0.5251(3) 0.8431(6)
H12_2 H 0.791109 0.523747 0.826570
H13_2 H 0.828039 0.508321 0.864449
H14_2 H 0.825272 0.543219 0.861652
C25_2 C 0.8503(5) 0.5251(3) 0.8085(5)
H18_2 H 0.846766 0.505795 0.791928
C27_2 C 0.9172(4) 0.5534(2) 0.8446(4)
H20_2 H 0.900998 0.570702 0.835687
C35_2 C 0.9863(5) 0.5306(2) 0.8792(5)
C39_2 C 0.9968(6) 0.4751(4) 0.8825(7)
H33_2 H 0.983022 0.456639 0.868378
C40_2 C 0.9233(5) 0.5022(2) 0.8397(5)
H40_2 H 0.975946 0.472690 0.945156
C47_2 C 0.9652(6) 0.5025(3) 0.8653(6)
N3_2 N 0.8738(3) 0.43233(16) 0.8382(3)
N6_2 N 0.9035(4) 0.47377(18) 0.8306(3)
C64_2 C 0.8897(4) 0.4574(2) 0.8635(4)
C66_2 C 0.8787(4) 0.4350(2) 0.7923(4)
H63_2 H 0.870373 0.421013 0.767848
C67_2 C 0.7814(4) 0.4390(2) 0.8436(4)
H64_2 H 0.802756 0.452804 0.833289
C68_2 C 0.7489(5) 0.4325(3) 0.7993(5)
H65_2 H 0.763514 0.422195 0.776371
H66_2 H 0.725459 0.420321 0.807362
H67_2 H 0.736731 0.450921 0.785197
C69_2 C 0.7640(5) 0.4542(3) 0.8802(5)
H68_2 H 0.787190 0.457434 0.907578
H69_2 H 0.752064 0.473048 0.867921
H70_2 H 0.740792 0.442448 0.890085
C70_2 C 0.8968(5) 0.4599(2) 0.7878(4)
H71_2 H 0.904285 0.467306 0.759241
C71_2 C 0.8355(6) 0.5504(3) 0.7677(5)
H72_2 H 0.855447 0.550097 0.744634
H73_2 H 0.805809 0.546422 0.751304
H74_2 H 0.836574 0.569630 0.782904
Cu2_2 Cu 0.89416(8) 0.46420(4) 0.92758(8)
C82_2 C 0.9471(5) 0.3836(4) 0.9328(5)
H93_2 H 0.978824 0.383008 0.934987
H94_2 H 0.938992 0.401324 0.948565
H95_2 H 0.937470 0.366363 0.948441
C83_2 C 0.9363(5) 0.3613(3) 0.8414(6)
H96_2 H 0.967928 0.361169 0.842923
H97_2 H 0.926647 0.341784 0.849472
H98_2 H 0.921964 0.366462 0.809178
C94_2 C 0.7421(3) 0.28814(18) 0.9371(3)
C95_2 C 0.7876(3) 0.33673(17) 0.9106(3)
C97_2 C 0.7131(3) 0.2629(2) 0.9450(3)
C101_2 C 0.7530(3) 0.33948(19) 0.9359(3)
H113_2 H 0.743857 0.358441 0.943499
C103_2 C 0.8549(3) 0.36148(17) 0.8938(3)
H114_2 H 0.870587 0.344398 0.905238
C105_2 C 0.7980(3) 0.30894(15) 0.8993(3)
H116_2 H 0.821393 0.306085 0.882396
C107_2 C 0.7754(3) 0.28456(17) 0.9117(3)
H117_2 H 0.783125 0.265538 0.902719
C109_2 C 0.8097(3) 0.36287(17) 0.8946(3)
C116_2 C 0.7327(3) 0.31603(19) 0.9497(3)
H122_2 H 0.711009 0.318828 0.968911
C117_2 C 0.8520(4) 0.4089(2) 0.8589(3)
C118_2 C 0.8080(5) 0.41164(19) 0.8611(3)
C121_2 C 0.8772(4) 0.38493(19) 0.8764(3)
C122_2 C 0.7870(3) 0.38799(18) 0.8784(3)
H125_2 H 0.756741 0.389160 0.879163
C123_2 C 0.9241(4) 0.3840(2) 0.8774(4)
H126_2 H 0.931581 0.403439 0.864990
H135_2 H 0.857679 0.467614 0.856318
C31_2 C 0.7525(6) 0.9682(3) 0.0215(5)
H23_2 H 0.755560 0.947458 0.011652
C38_2 C 0.8114(6) 0.8598(3) 0.0293(5)
H30_2 H 0.789076 0.849856 0.006341
H31_2 H 0.836295 0.846739 0.038494
H32_2 H 0.799158 0.865141 0.057496
C44_2 C 0.7975(6) 0.9786(4) 0.0479(6)
H37_2 H 0.818856 0.977274 0.026573
H38_2 H 0.795309 0.998930 0.058124
H39_2 H 0.806728 0.966212 0.075839
C46_2 C 0.8582(6) 0.9029(3) 0.0371(5)
H43_2 H 0.864955 0.919873 0.018756
H44_2 H 0.847451 0.909586 0.065611
H45_2 H 0.884588 0.891184 0.046609
C50_2 C 0.8251(5) 0.8853(3) 0.0083(5)
H49_2 H 0.798757 0.898100 0.001628
C81_2 C 0.7177(6) 0.9694(3) 0.0510(6)
H90_2 H 0.690236 0.962603 0.032175
H91_2 H 0.725692 0.956892 0.078950
H92_2 H 0.714273 0.989610 0.061236
Br3 Br 0.40399(10) 0.97119(6) 0.00448(9)
O1_3 O 0.39536(17) 0.20924(11) 0.45319(15)
O2_3 O 0.34707(19) 0.16389(10) 0.51204(16)
O4_3 O 0.38313(15) 0.22283(9) 0.56356(13)
O7_3 O 0.47183(17) 0.18791(10) 0.60481(17)
O8_3 O 0.31145(19) 0.17475(11) 0.57089(18)
O9_3 O 0.44089(19) 0.16909(12) 0.53546(18)
O11_3 O 0.37651(18) 0.25535(11) 0.46409(15)
C1_3 C 0.4878(3) 0.13972(17) 0.5894(3)
C2_3 C 0.4723(3) 0.11416(18) 0.5632(3)
H1_3 H 0.449420 0.115409 0.536492
C3_3 C 0.5363(3) 0.10993(18) 0.6424(3)
H2_3 H 0.558267 0.108905 0.669919
C4_3 C 0.5232(4) 0.0846(2) 0.6185(4)
C6_3 C 0.4909(4) 0.0879(2) 0.5772(4)
H3_3 H 0.481778 0.071139 0.558548
C7_3 C 0.4654(3) 0.16794(17) 0.5758(3)
C8_3 C 0.5406(4) 0.0569(2) 0.6311(4)
C9_3 C 0.5188(3) 0.13677(17) 0.6283(3)
H4_3 H 0.528890 0.153611 0.646396
C14_3 C 0.4085(3) 0.2906(2) 0.0329(3)
H7_3 H 0.420264 0.302779 0.011358
C15_3 C 0.3102(3) 0.12650(18) 0.5443(3)
C16_3 C 0.3236(3) 0.10597(18) 0.5163(3)
H8_3 H 0.340607 0.111738 0.493341
C17_3 C 0.3743(3) 0.25249(19) 0.0609(2)
C18_3 C 0.6034(5) 0.0272(2) 0.6677(4)
C19_3 C 0.4096(3) 0.2965(2) 0.0803(3)
H9_3 H 0.422413 0.312632 0.098498
C20_3 C 0.4600(4) 0.2427(3) 0.1501(3)
H10_3 H 0.453000 0.244848 0.114777
C21_3 C 0.3133(4) 0.07642(19) 0.5201(3)
H11_3 H 0.324587 0.062154 0.501326
C22_3 C 0.6787(5) 0.0251(3) 0.6569(6)
H12_3 H 0.708891 0.023747 0.673430
H13_3 H 0.671961 0.008321 0.635551
H14_3 H 0.674728 0.043219 0.638348
C23_3 C 0.4708(4) 0.2120(3) 0.1605(4)
H15_3 H 0.496785 0.206820 0.147204
H16_3 H 0.476660 0.209048 0.194988
H17_3 H 0.446370 0.199689 0.146164
C24_3 C 0.2859(4) 0.0682(2) 0.5519(4)
C25_3 C 0.6497(5) 0.0251(3) 0.6915(5)
H18_3 H 0.653234 0.005795 0.708072
C26_3 C 0.2709(4) 0.0891(2) 0.5782(4)
H19_3 H 0.252069 0.083996 0.599684
C27_3 C 0.5828(4) 0.0534(2) 0.6554(4)
H20_3 H 0.599002 0.070702 0.664313
C29_3 C 0.2830(3) 0.1182(2) 0.5738(3)
H21_3 H 0.271698 0.132679 0.592204
C32_3 C 0.3104(5) 0.3233(3) 0.1540(5)
H24_3 H 0.338130 0.333762 0.156437
H25_3 H 0.287701 0.333884 0.132705
H26_3 H 0.302375 0.321773 0.185654
C33_3 C 0.2784(4) 0.0364(2) 0.5600(4)
C35_3 C 0.5137(5) 0.0306(2) 0.6208(5)
H28_3 H 0.484085 0.031678 0.605908
C40_3 C 0.5767(5) 0.0022(2) 0.6603(5)
C43_3 C 0.4995(4) 0.2644(3) 0.1692(4)
H34_3 H 0.490527 0.284572 0.161359
H35_2 H 0.507677 0.262368 0.203800
H36_2 H 0.524585 0.259498 0.154168
C47_3 C 0.5348(6) 0.0025(3) 0.6347(6)
C51_3 C 0.2738(4) 0.0266(2) 0.6031(4)
H50_3 H 0.274604 0.039814 0.628872
Br1_3 Br 0.32275(7) 0.17066(5) 0.06743(7)
N1_3 N 0.3879(2) 0.26466(16) 0.02156(19)
N2_3 N 0.3867(2) 0.27244(16) 0.0952(2)
C56_3 C 0.4473(3) 0.21785(19) 0.0089(2)
H55_3 H 0.438955 0.224486 0.039488
H61_3 H 0.297583 0.260666 0.005165
C65_3 C 0.2724(4) 0.0179(2) 0.5209(4)
H62_3 H 0.274794 0.025172 0.490299
C71_3 C 0.6645(6) 0.0504(3) 0.7323(5)
H72_3 H 0.644553 0.050097 0.755366
H73_3 H 0.694191 0.046422 0.748696
H74_3 H 0.663426 0.069630 0.717096
C74_3 C 0.4482(3) 0.1850(2) 0.0101(3)
H77_3 H 0.470863 0.178364 0.036126
H78_3 H 0.419811 0.177607 0.015200
C78_3 C 0.4906(3) 0.2316(2) 0.0062(3)
H81_2 H 0.512665 0.224059 0.032052
H83_3 H 0.488421 0.252829 0.009120
C80_3 C 0.2761(5) 0.2792(4) 0.1319(5)
H87_3 H 0.280376 0.259742 0.119135
H88_3 H 0.267767 0.277346 0.163257
H89_3 H 0.253093 0.289457 0.110308
H103_3 H 0.319203 0.005643 0.693945
C86_3 C 0.2385(8) 0.0031(5) 0.6831(7)
H105_3 H 0.209732 0.002795 0.662878
H107_3 H 0.249636 0.023223 0.685561
Zn1 Zn 0.43439(3) 0.22221(2) 0.61224(3)
Zn2 Zn 0.33242(3) 0.21403(2) 0.58954(3)
Zn3_3 Zn 0.39088(3) 0.19479(2) 0.51560(3)
Zn4_2 Zn 0.37727(3) 0.26379(2) 0.53540(3)
Cu3_3 Cu 0.34893(6) 0.21530(4) 0.06404(5)
C88_3 C 0.3994(3) 0.21905(17) 0.3597(2)
H109_3 H 0.410245 0.200997 0.373322
C89_3 C 0.3827(3) 0.2567(2) 0.2403(2)
C90_3 C 0.3227(3) 0.15698(18) 0.5422(3)
C91_3 C 0.3722(3) 0.26709(19) 0.3678(2)
H110_3 H 0.364467 0.282209 0.387611
C92_3 C 0.3865(3) 0.23546(19) 0.4394(2)
C93_3 C 0.4186(3) 0.2462(2) 0.2186(3)
H111_3 H 0.441868 0.235568 0.236807
C98_3 C 0.3857(3) 0.24026(17) 0.3876(2)
C99_3 C 0.3831(3) 0.25047(19) 0.2907(2)
C100_3 C 0.3479(3) 0.2784(2) 0.1634(3)
C104_3 C 0.3496(3) 0.27203(19) 0.2122(2)
H115_3 H 0.326243 0.278791 0.226733
C108_3 C 0.3699(3) 0.27215(19) 0.3198(2)
H118_3 H 0.359465 0.290363 0.306481
C111_3 C 0.4186(3) 0.2520(2) 0.1708(3)
C112_3 C 0.3855(3) 0.26747(19) 0.1450(2)
C115_3 C 0.3974(3) 0.22408(18) 0.3109(2)
H121_3 H 0.406016 0.209085 0.291469
C120_3 C 0.3149(3) 0.2951(2) 0.1359(3)
H124_3 H 0.322287 0.297191 0.103357
O14_3 O 0.3740(2) 0.27779(14) 0.6095(2)
O15_3 O 0.3736(3) 0.30905(14) 0.5175(3)
N7_3 N 0.3424(4) 0.3080(2) 0.6566(4)
C124_3 C 0.3653(5) 0.3016(3) 0.6209(4)
C125_3 C 0.3306(7) 0.2860(3) 0.6879(5)
H127_3 H 0.314510 0.294981 0.710731
H128_3 H 0.312252 0.271214 0.669243
H129_3 H 0.357022 0.276631 0.705090
C126_3 C 0.3392(7) 0.3383(3) 0.6730(6)
H130_3 H 0.321799 0.338792 0.698489
H131_3 H 0.368439 0.345875 0.685007
H132_3 H 0.325189 0.350440 0.646394
O16 O 0.42187(19) 0.21432(11) 0.67522(15)
O17_2 O 0.28426(19) 0.24047(12) 0.58074(18)
O18_2 O 0.47501(18) 0.25395(10) 0.61712(18)
O19 O 0.3483(2) 0.20933(12) 0.65947(16)
O20_2 O 0.4424(2) 0.27289(14) 0.5482(2)
O21_2 O 0.31027(19) 0.26526(14) 0.52496(19)
H133_3 H 0.342377 0.262654 0.0515246
H136_3 H 0.402157 0.318463 0.52916
H137_3 H 0.366161 0.311242 0.48242
H138_3 H 0.376294 0.319879 0.6016
C53_3 C 0.3495(3) 0.26150(19) 0.9394(3)
C54_3 C 0.3836(3) 0.21230(16) 0.7389(2)
C55_3 C 0.3432(3) 0.21395(19) 0.7546(3)
H54_3 H 0.316383 0.212450 0.733106
C57_3 C 0.4218(3) 0.21340(15) 0.7721(2)
H56_3 H 0.449022 0.211248 0.761730
C58_3 C 0.3194(3) 0.2843(2) 0.9494(3)
H57_3 H 0.336151 0.298839 0.971482
C59_3 C 0.3445(3) 0.21788(19) 0.8033(3)
H58_3 H 0.317622 0.218601 0.814739
C60_3 C 0.3846(3) 0.21161(17) 0.6869(3)
C61_3 C 0.4128(3) 0.22907(18) 0.9694(2)
C62_3 C 0.3834(3) 0.25077(19) 0.9764(2)
C63_3 C 0.2834(3) 0.2697(3) 0.9754(3)
H59_3 H 0.263026 0.284770 0.982226
H60_3 H 0.267548 0.254783 0.954639
C72_3 C 0.4115(3) 0.21931(18) 0.9226(2)
H75_3 H 0.431950 0.205059 0.916363
C73_3 C 0.4212(3) 0.21750(16) 0.8194(2)
H76_3 H 0.447793 0.218157 0.841431
H79_3 H 0.454421 0.177510 0.979830
C75_3 C 0.3818(3) 0.22071(17) 0.8352(2)
C76_3 C 0.3815(3) 0.22984(18) 0.8859(2)
C77_3 C 0.3507(3) 0.25005(18) 0.8939(2)
H80_3 H 0.329568 0.256436 0.867794
H82_3 H 0.498991 0.226749 0.975536
C79_3 C 0.2959(3) 0.3008(2) 0.9042(3)
H84_3 H 0.276401 0.315683 0.913716
H85_3 H 0.317611 0.310308 0.888284
H86_3 H 0.278886 0.286913 0.882416
O5_2 O 0.78426(19) 0.74047(12) 0.58074(18)
O13_2 O 0.81027(19) 0.76526(14) 0.52496(19)
C5_3 C 0.1131(4) 0.85305(19) 0.5847(3)
C10_3 C 0.1247(4) 0.8605(2) 0.5401(4)
H5_3 H 0.107859 0.854421 0.510782
C11_3 C 0.1830(4) 0.8881(2) 0.5836(4)
C12_3 C 0.1366(4) 0.86337(19) 0.6256(3)
H6_3 H 0.127656 0.858404 0.654824
C13_3 C 0.1634(4) 0.8778(2) 0.5421(4)
C28_3 C 0.1725(4) 0.8806(2) 0.6269(4)
C30_3 C 0.1954(4) 0.8945(2) 0.6746(4)
H22_3 H 0.223140 0.903460 0.668407
C31_3 C 0.2475(6) 0.9682(3) 0.4785(5)
H23_3 H 0.244440 0.947458 0.488348
C34_3 C 0.2834(6) 0.9253(3) 0.5827(5)
H27_3 H 0.314128 0.926952 0.585435
C36_3 C 0.2151(7) 0.9354(5) 0.5760(7)
C37_3 C 0.2610(6) 0.9005(3) 0.5827(5)
H29_3 H 0.272595 0.881270 0.582837
C38_3 C 0.1886(6) 0.8598(3) 0.4707(5)
H30_3 H 0.210924 0.849856 0.493659
H31_3 H 0.163705 0.846739 0.461506
H32_3 H 0.200842 0.865141 0.442504
C39_3 C 0.5032(6) 0.9751(4) 0.6175(7)
H33_3 H 0.516978 0.956639 0.631622
C41_3 C 0.2624(5) 0.9877(2) 0.5269(5)
C42_3 C 0.2677(5) 0.9959(3) 0.6101(5)
C44_3 C 0.2025(6) 0.9786(4) 0.4521(6)
H37_3 H 0.181144 0.977274 0.473427
H38_3 H 0.204691 0.998930 0.441876
H39_3 H 0.193272 0.966212 0.424161
C45_3 C 0.4959(6) 0.9730(4) 0.5658(7)
H40_3 H 0.524054 0.972690 0.554844
H41_3 H 0.479875 0.955036 0.555681
H42_3 H 0.479016 0.989939 0.551994
C46_3 C 0.1418(6) 0.9029(3) 0.4629(5)
H43_3 H 0.135045 0.919873 0.481244
H44_3 H 0.152549 0.909586 0.434389
H45_3 H 0.115412 0.891184 0.453391
C48_3 C 0.2083(4) 0.8686(2) 0.7109(4)
H46_3 H 0.226114 0.854391 0.697133
H47_3 H 0.225038 0.876371 0.740526
H48_3 H 0.181895 0.859073 0.717485
C49_3 C 0.2632(5) 0.9780(2) 0.5691(5)
C50_3 C 0.1749(5) 0.8853(3) 0.4917(5)
H49_3 H 0.201243 0.898100 0.498372
C52_3 C 0.1682(5) 0.9186(3) 0.6887(4)
H51_3 H 0.182843 0.927171 0.718707
H52_3 H 0.164050 0.933596 0.663880
H53_3 H 0.139809 0.910802 0.692884
Cu1_3 Cu 0.1611(2) 0.95945(13) 0.5687(2)
N3_3 N 0.6262(3) 0.93233(16) 0.6618(3)
N4_3 N 0.2180(5) 0.9075(3) 0.5826(4)
N5_3 N 0.2551(5) 0.9472(2) 0.5781(4)
N6_3 N 0.5965(4) 0.97377(18) 0.6694(3)
C64_3 C 0.6103(4) 0.9574(2) 0.6365(4)
Br2_3 Br 0.1079(3) 0.98736(18) 0.5637(3)
C66_3 C 0.6213(4) 0.9350(2) 0.7077(4)
H63_3 H 0.629627 0.921013 0.732152
C67_3 C 0.7186(4) 0.9390(2) 0.6564(4)
H64_3 H 0.697244 0.952804 0.666711
C68_3 C 0.7511(5) 0.9325(3) 0.7007(5)
H65_3 H 0.736486 0.922195 0.723629
H66_3 H 0.774541 0.920321 0.692638
H67_3 H 0.763269 0.950921 0.714803
C69_3 C 0.7360(5) 0.9542(3) 0.6198(5)
H68_3 H 0.712810 0.957434 0.592422
H69_3 H 0.747936 0.973048 0.632079
H70_3 H 0.759208 0.942448 0.609915
C70_3 C 0.6032(5) 0.9599(2) 0.7122(4)
H71_3 H 0.595715 0.967306 0.740759
Cu2_3 Cu 0.60584(8) 0.96420(4) 0.57242(8)
C81_3 C 0.2823(6) 0.9694(3) 0.4490(6)
H90_3 H 0.309764 0.962603 0.467825
H91_3 H 0.274308 0.956892 0.421050
H92_3 H 0.285727 0.989610 0.438764
C82_3 C 0.5529(5) 0.8836(4) 0.5672(5)
H93_3 H 0.521176 0.883008 0.565013
H94_3 H 0.561008 0.901324 0.551435
H95_3 H 0.562530 0.866363 0.551559
C83_3 C 0.5637(5) 0.8613(3) 0.6586(6)
H96_3 H 0.532072 0.861169 0.657077
H97_3 H 0.573353 0.841784 0.650528
H98_3 H 0.578036 0.866462 0.690822
Br3_2 Br 0.59601(10) 0.97119(6) 0.49552(9)
C84_3 C 0.4554(7) 0.9750(4) 0.6206(8)
H99_3 H 0.451961 0.976324 0.654000
H100_3 H 0.441155 0.991807 0.603045
H101_3 H 0.442015 0.956905 0.606732
C85_3 C 0.3084(8) 0.9855(4) 0.6916(7)
H102_3 H 0.328779 0.973085 0.678050
H104_3 H 0.305766 0.978326 0.723292
H106_3 H 0.236199 0.995906 0.714908
C87_3 C 0.2681(8) 0.9847(4) 0.6625(5)
H108_3 H 0.256955 0.964160 0.661189
C94_3 C 0.7579(3) 0.78814(18) 0.5629(3)
C95_3 C 0.7124(3) 0.83673(17) 0.5894(3)
C96_3 C 0.0399(3) 0.83396(19) 0.5501(3)
H112_3 H 0.038858 0.848443 0.526096
C97_3 C 0.7869(3) 0.7629(2) 0.5550(3)
C101_3 C 0.7470(3) 0.83948(19) 0.5641(3)
H113_3 H 0.756143 0.858441 0.556501
C102_3 C 0.0103(3) 0.79285(18) 0.5849(3)
C103_3 C 0.6451(3) 0.86148(17) 0.6062(3)
H114_3 H 0.629413 0.844398 0.594762
C105_3 C 0.7020(3) 0.80894(15) 0.6007(3)
H116_3 H 0.678607 0.806085 0.617604
C107_3 C 0.7246(3) 0.78456(17) 0.5883(3)
H117_3 H 0.716875 0.765538 0.597281
C109_3 C 0.6903(3) 0.86287(17) 0.6054(3)
C110_3 C 0.0049(3) 0.81537(19) 0.5488(3)
C113_3 C 0.0763(3) 0.83228(18) 0.5850(3)
C114_3 C 0.0796(3) 0.81104(18) 0.6201(3)
H120_3 H 0.104594 0.810029 0.644303
C116_3 C 0.7673(3) 0.81603(19) 0.5503(3)
H122_3 H 0.788991 0.818828 0.531089
C117_3 C 0.6480(4) 0.9089(2) 0.6411(3)
C118_3 C 0.6920(5) 0.91164(19) 0.6389(3)
C119_3 C 0.0455(3) 0.79126(18) 0.6193(3)
H123_3 H 0.047256 0.776602 0.643085
C121_3 C 0.6228(4) 0.88493(19) 0.6236(3)
C122_3 C 0.7130(3) 0.88799(18) 0.6216(3)
H125_3 H 0.743259 0.889160 0.620837
C123_3 C 0.5759(4) 0.8840(2) 0.6226(4)
H126_3 H 0.568419 0.903439 0.635010
Zn8_2 Zn 0.83242(3) 0.71403(2) 0.58954(3)
Zn9 Zn 0.87727(3) 0.76379(2) 0.53540(3)
H134_3 H 0.211567 0.932611 0.537635
H135_3 H 0.642321 0.967614 0.643682
O6_2 O 0.97501(18) 0.75395(10) 0.61712(18)
O12_2 O 0.9424(2) 0.77289(14) 0.5482(2)
C106_3 C 0.9726(3) 0.77119(19) 0.5825(3)
H119_3 H 0.979095 0.817232 0.525777
Zn6_2 Zn 0.93439(3) 0.72221(2) 0.61224(3)
C3_4 C 0.0363(3) 0.60993(18) 0.6424(3)
H2_4 H 0.058267 0.608905 0.669919
C4_4 C 0.0232(4) 0.5846(2) 0.6185(4)
C8_4 C 0.0406(4) 0.5569(2) 0.6311(4)
C9_4 C 0.0188(3) 0.63677(17) 0.6283(3)
H4_4 H 0.028890 0.653611 0.646396
C18_4 C 0.1034(5) 0.5272(2) 0.6677(4)
C22_4 C 0.1787(5) 0.5251(3) 0.6569(6)
H12_4 H 0.208891 0.523747 0.673430
H13_4 H 0.171961 0.508321 0.635551
H14_4 H 0.174728 0.543219 0.638348
C25_4 C 0.1497(5) 0.5251(3) 0.6915(5)
H18_4 H 0.153234 0.505795 0.708072
C27_4 C 0.0828(4) 0.5534(2) 0.6554(4)
H20_4 H 0.099002 0.570702 0.664313
C35_4 C 0.0137(5) 0.5306(2) 0.6208(5)
C39_4 C 0.0032(6) 0.4751(4) 0.6175(7)
H33_4 H 0.016978 0.456639 0.631622
C40_4 C 0.0767(5) 0.5022(2) 0.6603(5)
H35_3 H 0.007677 0.762368 0.203800
H36_3 H 0.024585 0.759498 0.154168
H40_4 H 0.024054 0.472690 0.554844
C47_4 C 0.0348(6) 0.5025(3) 0.6347(6)
N3_4 N 0.1262(3) 0.43233(16) 0.6618(3)
N6_4 N 0.0965(4) 0.47377(18) 0.6694(3)
C64_4 C 0.1103(4) 0.4574(2) 0.6365(4)
C66_4 C 0.1213(4) 0.4350(2) 0.7077(4)
H63_4 H 0.129627 0.421013 0.732152
C67_4 C 0.2186(4) 0.4390(2) 0.6564(4)
H64_4 H 0.197244 0.452804 0.666711
C68_4 C 0.2511(5) 0.4325(3) 0.7007(5)
H65_4 H 0.236486 0.422195 0.723629
H66_4 H 0.274541 0.420321 0.692638
H67_4 H 0.263269 0.450921 0.714803
C69_4 C 0.2360(5) 0.4542(3) 0.6198(5)
H68_4 H 0.212810 0.457434 0.592422
H69_4 H 0.247936 0.473048 0.632079
H70_4 H 0.259208 0.442448 0.609915
C70_4 C 0.1032(5) 0.4599(2) 0.7122(4)
H71_4 H 0.095715 0.467306 0.740759
C71_4 C 0.1645(6) 0.5504(3) 0.7323(5)
H72_4 H 0.144553 0.550097 0.755366
H73_4 H 0.194191 0.546422 0.748696
H74_4 H 0.163426 0.569630 0.717096
Cu2_4 Cu 0.10584(8) 0.46420(4) 0.57242(8)
H81_3 H 0.012665 0.724059 0.032052
C82_4 C 0.0529(5) 0.3836(4) 0.5672(5)
H93_4 H 0.021176 0.383008 0.565013
H94_4 H 0.061008 0.401324 0.551435
H95_4 H 0.062530 0.366363 0.551559
C83_4 C 0.0637(5) 0.3613(3) 0.6586(6)
H96_4 H 0.032072 0.361169 0.657077
H97_4 H 0.073353 0.341784 0.650528
H98_4 H 0.078036 0.366462 0.690822
Br3_3 Br 0.09601(10) 0.47119(6) 0.49552(9)
C94_4 C 0.2579(3) 0.28814(18) 0.5629(3)
C95_4 C 0.2124(3) 0.33673(17) 0.5894(3)
C97_4 C 0.2869(3) 0.2629(2) 0.5550(3)
C101_4 C 0.2470(3) 0.33948(19) 0.5641(3)
H113_4 H 0.256143 0.358441 0.556501
C103_4 C 0.1451(3) 0.36148(17) 0.6062(3)
H114_4 H 0.129413 0.344398 0.594762
C105_4 C 0.2020(3) 0.30894(15) 0.6007(3)
H116_4 H 0.178607 0.306085 0.617604
C107_4 C 0.2246(3) 0.28456(17) 0.5883(3)
H117_4 H 0.216875 0.265538 0.597281
C109_4 C 0.1903(3) 0.36287(17) 0.6054(3)
C116_4 C 0.2673(3) 0.31603(19) 0.5503(3)
H122_4 H 0.288991 0.318828 0.531089
C117_4 C 0.1480(4) 0.4089(2) 0.6411(3)
C118_4 C 0.1920(5) 0.41164(19) 0.6389(3)
C121_4 C 0.1228(4) 0.38493(19) 0.6236(3)
C122_4 C 0.2130(3) 0.38799(18) 0.6216(3)
H125_4 H 0.243259 0.389160 0.620837
C123_4 C 0.0759(4) 0.3840(2) 0.6226(4)
H126_4 H 0.068419 0.403439 0.635010
H135_4 H 0.142321 0.467614 0.643682
O1_4 O 0.89536(17) 0.70924(11) 0.45319(15)
O2_4 O 0.84707(19) 0.66389(10) 0.51204(16)
O4_4 O 0.88313(15) 0.72283(9) 0.56356(13)
O7_4 O 0.97183(17) 0.68791(10) 0.60481(17)
O8_4 O 0.81145(19) 0.67475(11) 0.57089(18)
O9_4 O 0.94089(19) 0.66909(12) 0.53546(18)
O11_4 O 0.87651(18) 0.75535(11) 0.46409(15)
C1_4 C 0.9878(3) 0.63972(17) 0.5894(3)
C2_4 C 0.9723(3) 0.61416(18) 0.5632(3)
H1_4 H 0.949420 0.615409 0.536492
C5_4 C 0.6131(4) 0.35305(19) 0.5847(3)
C6_4 C 0.9909(4) 0.5879(2) 0.5772(4)
H3_4 H 0.981778 0.571139 0.558548
C7_4 C 0.9654(3) 0.66794(17) 0.5758(3)
C10_4 C 0.6247(4) 0.3605(2) 0.5401(4)
H5_4 H 0.607859 0.354421 0.510782
C11_4 C 0.6830(4) 0.3881(2) 0.5836(4)
C12_4 C 0.6366(4) 0.36337(19) 0.6256(3)
H6_4 H 0.627656 0.358404 0.654824
C13_4 C 0.6634(4) 0.3778(2) 0.5421(4)
C14_4 C 0.9085(3) 0.7906(2) 0.0329(3)
H7_4 H 0.920264 0.802779 0.011358
C15_4 C 0.8102(3) 0.62650(18) 0.5443(3)
C16_4 C 0.8236(3) 0.60597(18) 0.5163(3)
H8_4 H 0.840607 0.611738 0.493341
C17_4 C 0.8743(3) 0.75249(19) 0.0609(2)
C19_4 C 0.9096(3) 0.7965(2) 0.0803(3)
H9_4 H 0.922413 0.812632 0.098498
C20_4 C 0.9600(4) 0.7427(3) 0.1501(3)
H10_4 H 0.953000 0.744848 0.114777
C21_4 C 0.8133(4) 0.57642(19) 0.5201(3)
H11_4 H 0.824587 0.562154 0.501326
C23_4 C 0.9708(4) 0.7120(3) 0.1605(4)
H15_4 H 0.996785 0.706820 0.147204
H16_4 H 0.976660 0.709048 0.194988
H17_4 H 0.946370 0.699689 0.146164
C24_4 C 0.7859(4) 0.5682(2) 0.5519(4)
C26_4 C 0.7709(4) 0.5891(2) 0.5782(4)
H19_4 H 0.752069 0.583996 0.599684
C28_4 C 0.6725(4) 0.3806(2) 0.6269(4)
C29_4 C 0.7830(3) 0.6182(2) 0.5738(3)
H21_4 H 0.771698 0.632679 0.592204
C30_4 C 0.6954(4) 0.3945(2) 0.6746(4)
H22_4 H 0.723140 0.403460 0.668407
C31_4 C 0.7475(6) 0.4682(3) 0.4785(5)
H23_4 H 0.744440 0.447458 0.488348
C32_4 C 0.8104(5) 0.8233(3) 0.1540(5)
H24_4 H 0.838130 0.833762 0.156437
H25_4 H 0.787701 0.833884 0.132705
H26_4 H 0.802375 0.821773 0.185654
C33_4 C 0.7784(4) 0.5364(2) 0.5600(4)
C34_4 C 0.7834(6) 0.4253(3) 0.5827(5)
H27_4 H 0.814128 0.426952 0.585435
H28_4 H 0.984085 0.531678 0.605908
C36_4 C 0.7151(7) 0.4354(5) 0.5760(7)
C37_4 C 0.7610(6) 0.4005(3) 0.5827(5)
H29_4 H 0.772595 0.381270 0.582837
C38_4 C 0.6886(6) 0.3598(3) 0.4707(5)
H30_4 H 0.710924 0.349856 0.493659
H31_4 H 0.663705 0.346739 0.461506
H32_4 H 0.700842 0.365141 0.442504
C41_4 C 0.7624(5) 0.4877(2) 0.5269(5)
C42_4 C 0.7677(5) 0.4959(3) 0.6101(5)
C43_4 C 0.9995(4) 0.7644(3) 0.1692(4)
H34_4 H 0.990527 0.784572 0.161359
C44_4 C 0.7025(6) 0.4786(4) 0.4521(6)
H37_4 H 0.681144 0.477274 0.473427
H38_4 H 0.704691 0.498930 0.441876
H39_4 H 0.693272 0.466212 0.424161
C45_4 C 0.9959(6) 0.4730(4) 0.5658(7)
H41_4 H 0.979875 0.455036 0.555681
H42_4 H 0.979016 0.489939 0.551994
C46_4 C 0.6418(6) 0.4029(3) 0.4629(5)
H43_4 H 0.635045 0.419873 0.481244
H44_4 H 0.652549 0.409586 0.434389
H45_4 H 0.615412 0.391184 0.453391
C48_4 C 0.7083(4) 0.3686(2) 0.7109(4)
H46_4 H 0.726114 0.354391 0.697133
H47_4 H 0.725038 0.376371 0.740526
H48_4 H 0.681895 0.359073 0.717485
C49_4 C 0.7632(5) 0.4780(2) 0.5691(5)
C50_4 C 0.6749(5) 0.3853(3) 0.4917(5)
H49_4 H 0.701243 0.398100 0.498372
C51_4 C 0.7738(4) 0.5266(2) 0.6031(4)
H50_4 H 0.774604 0.539814 0.628872
C52_4 C 0.6682(5) 0.4186(3) 0.6887(4)
H51_4 H 0.682843 0.427171 0.718707
H52_4 H 0.664050 0.433596 0.663880
H53_4 H 0.639809 0.410802 0.692884
Br1_4 Br 0.82275(7) 0.67066(5) 0.06743(7)
Cu1_4 Cu 0.6611(2) 0.45945(13) 0.5687(2)
N1_4 N 0.8879(2) 0.76466(16) 0.02156(19)
N2_4 N 0.8867(2) 0.77244(16) 0.0952(2)
C56_4 C 0.9473(3) 0.71785(19) 0.0089(2)
H55_4 H 0.938955 0.724486 0.039488
N4_4 N 0.7180(5) 0.4075(3) 0.5826(4)
H61_4 H 0.797583 0.760666 0.005165
N5_4 N 0.7551(5) 0.4472(2) 0.5781(4)
Br2_4 Br 0.6079(3) 0.48736(18) 0.5637(3)
C65_4 C 0.7724(4) 0.5179(2) 0.5209(4)
H62_4 H 0.774794 0.525172 0.490299
C74_4 C 0.9482(3) 0.6850(2) 0.0101(3)
H77_4 H 0.970863 0.678364 0.036126
H78_4 H 0.919811 0.677607 0.015200
C78_4 C 0.9906(3) 0.7316(2) 0.0062(3)
H83_4 H 0.988421 0.752829 0.009120
C80_4 C 0.7761(5) 0.7792(4) 0.1319(5)
H87_4 H 0.780376 0.759742 0.119135
H88_4 H 0.767767 0.777346 0.163257
H89_4 H 0.753093 0.789457 0.110308
C81_4 C 0.7823(6) 0.4694(3) 0.4490(6)
H90_4 H 0.809764 0.462603 0.467825
H91_4 H 0.774308 0.456892 0.421050
H92_4 H 0.785727 0.489610 0.438764
C84_4 C 0.9554(7) 0.4750(4) 0.6206(8)
H99_4 H 0.951961 0.476324 0.654000
H100_4 H 0.941155 0.491807 0.603045
H101_4 H 0.942015 0.456905 0.606732
C85_4 C 0.8084(8) 0.4855(4) 0.6916(7)
H102_4 H 0.828779 0.473085 0.678050
H103_4 H 0.819203 0.505643 0.693945
H104_4 H 0.805766 0.478326 0.723292
C86_4 C 0.7385(8) 0.5031(5) 0.6831(7)
H105_4 H 0.709732 0.502795 0.662878
H106_4 H 0.736199 0.495906 0.714908
H107_4 H 0.749636 0.523223 0.685561
C87_4 C 0.7681(8) 0.4847(4) 0.6625(5)
H108_4 H 0.756955 0.464160 0.661189
Zn3_4 Zn 0.89088(3) 0.69479(2) 0.51560(3)
Cu3_4 Cu 0.84893(6) 0.71530(4) 0.06404(5)
C88_4 C 0.8994(3) 0.71905(17) 0.3597(2)
H109_4 H 0.910245 0.700997 0.373322
C89_4 C 0.8827(3) 0.7567(2) 0.2403(2)
C90_4 C 0.8227(3) 0.65698(18) 0.5422(3)
C91_4 C 0.8722(3) 0.76709(19) 0.3678(2)
H110_4 H 0.864467 0.782209 0.387611
C92_4 C 0.8865(3) 0.73546(19) 0.4394(2)
C93_4 C 0.9186(3) 0.7462(2) 0.2186(3)
H111_4 H 0.941868 0.735568 0.236807
C96_4 C 0.5399(3) 0.33396(19) 0.5501(3)
H112_4 H 0.538858 0.348443 0.526096
C98_4 C 0.8857(3) 0.74026(17) 0.3876(2)
C99_4 C 0.8831(3) 0.75047(19) 0.2907(2)
C100_4 C 0.8479(3) 0.7784(2) 0.1634(3)
C102_4 C 0.5103(3) 0.29285(18) 0.5849(3)
C104_4 C 0.8496(3) 0.77203(19) 0.2122(2)
H115_4 H 0.826243 0.778791 0.226733
C106_4 C 0.4726(3) 0.27119(19) 0.5825(3)
C108_4 C 0.8699(3) 0.77215(19) 0.3198(2)
H118_4 H 0.859465 0.790363 0.306481
C110_4 C 0.5049(3) 0.31537(19) 0.5488(3)
H119_4 H 0.479095 0.317232 0.525777
C111_4 C 0.9186(3) 0.7520(2) 0.1708(3)
C112_4 C 0.8855(3) 0.76747(19) 0.1450(2)
C113_4 C 0.5763(3) 0.33228(18) 0.5850(3)
C114_4 C 0.5796(3) 0.31104(18) 0.6201(3)
H120_4 H 0.604594 0.310029 0.644303
C115_4 C 0.8974(3) 0.72408(18) 0.3109(2)
H121_4 H 0.906016 0.709085 0.291469
C119_4 C 0.5455(3) 0.29126(18) 0.6193(3)
H123_4 H 0.547256 0.276602 0.643085
C120_4 C 0.8149(3) 0.7951(2) 0.1359(3)
H124_4 H 0.822287 0.797191 0.103357
O14_4 O 0.8740(2) 0.77779(14) 0.6095(2)
O15_4 O 0.8736(3) 0.80905(14) 0.5175(3)
N7_4 N 0.8424(4) 0.8080(2) 0.6566(4)
C124_4 C 0.8653(5) 0.8016(3) 0.6209(4)
C125_4 C 0.8306(7) 0.7860(3) 0.6879(5)
H127_4 H 0.814510 0.794981 0.710731
H128_4 H 0.812252 0.771214 0.669243
H129_4 H 0.857022 0.776631 0.705090
C126_4 C 0.8392(7) 0.8383(3) 0.6730(6)
H130_4 H 0.821799 0.838792 0.698489
H131_4 H 0.868439 0.845875 0.685007
H132_4 H 0.825189 0.850440 0.646394
O16_2 O 0.92187(19) 0.71432(11) 0.67522(15)
O19_2 O 0.8483(2) 0.70933(12) 0.65947(16)
H133_4 H 0.842377 0.762654 0.0515246
H134_4 H 0.711567 0.432611 0.537635
H136_4 H 0.902157 0.818463 0.52916
H137_4 H 0.866161 0.811242 0.48242
H138_4 H 0.876294 0.819879 0.6016
C53_4 C 0.8495(3) 0.76150(19) 0.9394(3)
C54_4 C 0.8836(3) 0.71230(16) 0.7389(2)
C55_4 C 0.8432(3) 0.71395(19) 0.7546(3)
H54_4 H 0.816383 0.712450 0.733106
C57_4 C 0.9218(3) 0.71340(15) 0.7721(2)
H56_4 H 0.949022 0.711248 0.761730
C58_4 C 0.8194(3) 0.7843(2) 0.9494(3)
H57_4 H 0.836151 0.798839 0.971482
C59_4 C 0.8445(3) 0.71788(19) 0.8033(3)
H58_4 H 0.817622 0.718601 0.814739
C60_4 C 0.8846(3) 0.71161(17) 0.6869(3)
C61_4 C 0.9128(3) 0.72907(18) 0.9694(2)
C62_4 C 0.8834(3) 0.75077(19) 0.9764(2)
C63_4 C 0.7834(3) 0.7697(3) 0.9754(3)
H59_4 H 0.763026 0.784770 0.982226
H60_4 H 0.767548 0.754783 0.954639
C72_4 C 0.9115(3) 0.71931(18) 0.9226(2)
H75_4 H 0.931950 0.705059 0.916363
C73_4 C 0.9212(3) 0.71750(16) 0.8194(2)
H76_4 H 0.947793 0.718157 0.841431
H79_4 H 0.954421 0.677510 0.979830
C75_4 C 0.8818(3) 0.72071(17) 0.8352(2)
C76_4 C 0.8815(3) 0.72984(18) 0.8859(2)
C77_4 C 0.8507(3) 0.75005(18) 0.8939(2)
H80_4 H 0.829568 0.756436 0.867794
H82_4 H 0.998991 0.726749 0.975536
C79_4 C 0.7959(3) 0.8008(2) 0.9042(3)
H84_4 H 0.776401 0.815683 0.913716
H85_4 H 0.817611 0.810308 0.888284
H86_4 H 0.778886 0.786913 0.882416
H35_4 H 0.992323 0.762368 0.296200
H36_4 H 0.975415 0.759498 0.345832
H81_4 H 0.987335 0.724059 0.467948
Br3_4 Br 0.90399(10) 0.47119(6) 0.00448(9)
O5_3 O 0.78426(19) 0.25953(12) 0.08074(18)
O13_3 O 0.81027(19) 0.23474(14) 0.02496(19)
C5_5 C 0.1131(4) 0.14695(19) 0.0847(3)
C10_5 C 0.1247(4) 0.1395(2) 0.0401(4)
H5_5 H 0.107859 0.145579 0.010782
C11_5 C 0.1830(4) 0.1119(2) 0.0836(4)
C12_5 C 0.1366(4) 0.13663(19) 0.1256(3)
H6_5 H 0.127656 0.141596 0.154824
C13_5 C 0.1634(4) 0.1222(2) 0.0421(4)
C28_5 C 0.1725(4) 0.1194(2) 0.1269(4)
C30_5 C 0.1954(4) 0.1055(2) 0.1746(4)
H22_5 H 0.223140 0.096540 0.168407
C34_5 C 0.2834(6) 0.0747(3) 0.0827(5)
H27_5 H 0.314128 0.073048 0.085435
C36_5 C 0.2151(7) 0.0646(5) 0.0760(7)
C37_5 C 0.2610(6) 0.0995(3) 0.0827(5)
H29_5 H 0.272595 0.118730 0.082837
C39_5 C 0.5032(6) 0.0249(4) 0.1175(7)
H33_5 H 0.516978 0.043361 0.131622
C41_5 C 0.2624(5) 0.0123(2) 0.0269(5)
C42_5 C 0.2677(5) 0.0041(3) 0.1101(5)
C45_5 C 0.4959(6) 0.0270(4) 0.0658(7)
H40_5 H 0.524054 0.027310 0.054844
H41_5 H 0.479875 0.044964 0.055681
H42_5 H 0.479016 0.010061 0.051994
C48_5 C 0.2083(4) 0.1314(2) 0.2109(4)
H46_5 H 0.226114 0.145609 0.197133
H47_5 H 0.225038 0.123629 0.240526
H48_5 H 0.181895 0.140927 0.217485
C49_5 C 0.2632(5) 0.0220(2) 0.0691(5)
C52_5 C 0.1682(5) 0.0814(3) 0.1887(4)
H51_5 H 0.182843 0.072829 0.218707
H52_5 H 0.164050 0.066404 0.163880
H53_5 H 0.139809 0.089198 0.192884
Cu1_5 Cu 0.1611(2) 0.04055(13) 0.0687(2)
N3_5 N 0.6262(3) 0.06767(16) 0.1618(3)
N4_5 N 0.2180(5) 0.0925(3) 0.0826(4)
N5_5 N 0.2551(5) 0.0528(2) 0.0781(4)
N6_5 N 0.5965(4) 0.02623(18) 0.1694(3)
C64_5 C 0.6103(4) 0.0426(2) 0.1365(4)
Br2_5 Br 0.1079(3) 0.01264(18) 0.0637(3)
C66_5 C 0.6213(4) 0.0650(2) 0.2077(4)
H63_5 H 0.629627 0.078987 0.232152
C67_5 C 0.7186(4) 0.0610(2) 0.1564(4)
H64_5 H 0.697244 0.047196 0.166711
C68_5 C 0.7511(5) 0.0675(3) 0.2007(5)
H65_5 H 0.736486 0.077805 0.223629
H66_5 H 0.774541 0.079679 0.192638
H67_5 H 0.763269 0.049079 0.214803
C69_5 C 0.7360(5) 0.0458(3) 0.1198(5)
H68_5 H 0.712810 0.042566 0.092422
H69_5 H 0.747936 0.026952 0.132079
H70_5 H 0.759208 0.057552 0.109915
C70_5 C 0.6032(5) 0.0401(2) 0.2122(4)
H71_5 H 0.595715 0.032694 0.240759
Cu2_5 Cu 0.60584(8) 0.03580(4) 0.07242(8)
C82_5 C 0.5529(5) 0.1164(4) 0.0672(5)
H93_5 H 0.521176 0.116992 0.065013
H94_5 H 0.561008 0.098676 0.051435
H95_5 H 0.562530 0.133637 0.051559
C83_5 C 0.5637(5) 0.1387(3) 0.1586(6)
H96_5 H 0.532072 0.138831 0.157077
H97_5 H 0.573353 0.158216 0.150528
H98_5 H 0.578036 0.133538 0.190822
C84_5 C 0.4554(7) 0.0250(4) 0.1206(8)
H99_5 H 0.451961 0.023676 0.154000
H100_5 H 0.441155 0.008193 0.103045
H101_5 H 0.442015 0.043095 0.106732
C85_5 C 0.3084(8) 0.0145(4) 0.1916(7)
H102_5 H 0.328779 0.026915 0.178050
H104_5 H 0.305766 0.021674 0.223292
H106_5 H 0.236199 0.004094 0.214908
C87_5 C 0.2681(8) 0.0153(4) 0.1625(5)
H108_5 H 0.256955 0.035840 0.161189
C94_5 C 0.7579(3) 0.21186(18) 0.0629(3)
C95_5 C 0.7124(3) 0.16327(17) 0.0894(3)
C96_5 C 0.0399(3) 0.16604(19) 0.0501(3)
H112_5 H 0.038858 0.151557 0.026096
C97_5 C 0.7869(3) 0.2371(2) 0.0550(3)
C101_5 C 0.7470(3) 0.16052(19) 0.0641(3)
H113_5 H 0.756143 0.141559 0.056501
C102_5 C 0.0103(3) 0.20715(18) 0.0849(3)
C103_5 C 0.6451(3) 0.13852(17) 0.1062(3)
H114_5 H 0.629413 0.155602 0.094762
C105_5 C 0.7020(3) 0.19106(15) 0.1007(3)
H116_5 H 0.678607 0.193915 0.117604
C107_5 C 0.7246(3) 0.21544(17) 0.0883(3)
H117_5 H 0.716875 0.234462 0.097281
C109_5 C 0.6903(3) 0.13713(17) 0.1054(3)
C110_5 C 0.0049(3) 0.18463(19) 0.0488(3)
C113_5 C 0.0763(3) 0.16772(18) 0.0850(3)
C114_5 C 0.0796(3) 0.18896(18) 0.1201(3)
H120_5 H 0.104594 0.189971 0.144303
C116_5 C 0.7673(3) 0.18397(19) 0.0503(3)
H122_5 H 0.788991 0.181172 0.031089
C117_5 C 0.6480(4) 0.0911(2) 0.1411(3)
C118_5 C 0.6920(5) 0.08836(19) 0.1389(3)
C119_5 C 0.0455(3) 0.20874(18) 0.1193(3)
H123_5 H 0.047256 0.223398 0.143085
C121_5 C 0.6228(4) 0.11507(19) 0.1236(3)
C122_5 C 0.7130(3) 0.11201(18) 0.1216(3)
H125_5 H 0.743259 0.110840 0.120837
C123_5 C 0.5759(4) 0.1160(2) 0.1226(4)
H126_5 H 0.568419 0.096561 0.135010
Zn8_3 Zn 0.83242(3) 0.28597(2) 0.08954(3)
Zn9_2 Zn 0.87727(3) 0.23621(2) 0.03540(3)
H134_5 H 0.211567 0.0673893 0.037635
H135_5 H 0.642321 0.0323859 0.143682
O2_5 O 0.34707(19) 0.83611(10) 0.01204(16)
O4_5 O 0.38313(15) 0.77717(9) 0.06356(13)
O7_5 O 0.47183(17) 0.81209(10) 0.10481(17)
O8_5 O 0.31145(19) 0.82525(11) 0.07089(18)
O9_5 O 0.44089(19) 0.83091(12) 0.03546(18)
C1_5 C 0.4878(3) 0.86028(17) 0.0894(3)
C2_5 C 0.4723(3) 0.88584(18) 0.0632(3)
H1_5 H 0.449420 0.884591 0.036492
C3_5 C 0.5363(3) 0.89007(18) 0.1424(3)
H2_5 H 0.558267 0.891095 0.169919
C4_5 C 0.5232(4) 0.9154(2) 0.1185(4)
C6_5 C 0.4909(4) 0.9121(2) 0.0772(4)
H3_5 H 0.481778 0.928861 0.058548
C7_5 C 0.4654(3) 0.83206(17) 0.0758(3)
C8_5 C 0.5406(4) 0.9431(2) 0.1311(4)
C9_5 C 0.5188(3) 0.86323(17) 0.1283(3)
H4_5 H 0.528890 0.846389 0.146396
C15_5 C 0.3102(3) 0.87350(18) 0.0443(3)
C16_5 C 0.3236(3) 0.89403(18) 0.0163(3)
C18_5 C 0.6034(5) 0.9728(2) 0.1677(4)
C21_5 C 0.3133(4) 0.92358(19) 0.0201(3)
H11_5 H 0.324587 0.937846 0.001326
C22_5 C 0.6787(5) 0.9749(3) 0.1569(6)
H12_5 H 0.708891 0.976253 0.173430
H13_5 H 0.671961 0.991679 0.135551
H14_5 H 0.674728 0.956781 0.138348
C24_5 C 0.2859(4) 0.9318(2) 0.0519(4)
C25_5 C 0.6497(5) 0.9749(3) 0.1915(5)
H18_5 H 0.653234 0.994205 0.208072
C26_5 C 0.2709(4) 0.9109(2) 0.0782(4)
H19_5 H 0.252069 0.916004 0.099684
C27_5 C 0.5828(4) 0.9466(2) 0.1554(4)
H20_5 H 0.599002 0.929298 0.164313
C29_5 C 0.2830(3) 0.8818(2) 0.0738(3)
H21_5 H 0.271698 0.867321 0.092204
C33_5 C 0.2784(4) 0.9636(2) 0.0600(4)
C35_5 C 0.5137(5) 0.9694(2) 0.1208(5)
H28_5 H 0.484085 0.968322 0.105908
C40_5 C 0.5767(5) 0.9978(2) 0.1603(5)
C47_5 C 0.5348(6) 0.9975(3) 0.1347(6)
C51_5 C 0.2738(4) 0.9734(2) 0.1031(4)
H50_5 H 0.274604 0.960186 0.128872
C65_5 C 0.2724(4) 0.9821(2) 0.0209(4)
C71_5 C 0.6645(6) 0.9496(3) 0.2323(5)
H72_5 H 0.644553 0.949903 0.255366
H73_5 H 0.694191 0.953578 0.248696
H74_5 H 0.663426 0.930370 0.217096
H103_5 H 0.319203 0.994357 0.193945
C86_5 C 0.2385(8) 0.9969(5) 0.1831(7)
H105_5 H 0.209732 0.997205 0.162878
H107_5 H 0.249636 0.976777 0.185561
Zn1_2 Zn 0.43439(3) 0.77779(2) 0.11224(3)
Zn2_2 Zn 0.33242(3) 0.78597(2) 0.08954(3)
Zn3_5 Zn 0.39088(3) 0.80521(2) 0.01560(3)
Zn4_3 Zn 0.37727(3) 0.73621(2) 0.03540(3)
C90_5 C 0.3227(3) 0.84302(18) 0.0422(3)
O14_5 O 0.3740(2) 0.72221(14) 0.1095(2)
O15_5 O 0.3736(3) 0.69095(14) 0.0175(3)
N7_5 N 0.3424(4) 0.6920(2) 0.1566(4)
C124_5 C 0.3653(5) 0.6984(3) 0.1209(4)
C125_5 C 0.3306(7) 0.7140(3) 0.1879(5)
H127_5 H 0.314510 0.705019 0.210731
H128_5 H 0.312252 0.728786 0.169243
H129_5 H 0.357022 0.723369 0.205090
C126_5 C 0.3392(7) 0.6617(3) 0.1730(6)
H130_5 H 0.321799 0.661208 0.198489
H131_5 H 0.368439 0.654125 0.185007
H132_5 H 0.325189 0.649560 0.146394
O16_3 O 0.42187(19) 0.78568(11) 0.17522(15)
O17_3 O 0.28426(19) 0.75953(12) 0.08074(18)
O18_3 O 0.47501(18) 0.74605(10) 0.11712(18)
O19_3 O 0.3483(2) 0.79067(12) 0.15947(16)
O20_3 O 0.4424(2) 0.72711(14) 0.0482(2)
O21_3 O 0.31027(19) 0.73474(14) 0.02496(19)
H136_5 H 0.402157 0.681537 0.0291602
H138_5 H 0.376294 0.680121 0.1016
O1_5 O 0.39536(17) 0.79076(11) 0.95319(15)
O11_5 O 0.37651(18) 0.74465(11) 0.96409(15)
C14_5 C 0.4085(3) 0.7094(2) 0.5329(3)
H7_5 H 0.420264 0.697221 0.511358
H8_5 H 0.340607 0.888262 0.993341
C17_5 C 0.3743(3) 0.74751(19) 0.5609(2)
C19_5 C 0.4096(3) 0.7035(2) 0.5803(3)
H9_5 H 0.422413 0.687368 0.598498
C20_5 C 0.4600(4) 0.7573(3) 0.6501(3)
H10_5 H 0.453000 0.755152 0.614777
C23_5 C 0.4708(4) 0.7880(3) 0.6605(4)
H15_5 H 0.496785 0.793180 0.647204
H16_5 H 0.476660 0.790952 0.694988
H17_5 H 0.446370 0.800311 0.646164
C32_5 C 0.3104(5) 0.6767(3) 0.6540(5)
H24_5 H 0.338130 0.666238 0.656437
H25_5 H 0.287701 0.666116 0.632705
H26_5 H 0.302375 0.678227 0.685654
C43_5 C 0.4995(4) 0.7356(3) 0.6692(4)
H34_5 H 0.490527 0.715428 0.661359
H35_5 H 0.507677 0.737632 0.703800
H36_5 H 0.524585 0.740502 0.654168
Br1_5 Br 0.32275(7) 0.82934(5) 0.56743(7)
N1_5 N 0.3879(2) 0.73534(16) 0.52156(19)
N2_5 N 0.3867(2) 0.72756(16) 0.5952(2)
C53_5 C 0.3495(3) 0.73850(19) 0.4394(3)
C54_5 C 0.3836(3) 0.78770(16) 0.2389(2)
C55_5 C 0.3432(3) 0.78605(19) 0.2546(3)
H54_5 H 0.316383 0.787550 0.233106
C56_5 C 0.4473(3) 0.78215(19) 0.5089(2)
H55_5 H 0.438955 0.775514 0.539488
C57_5 C 0.4218(3) 0.78660(15) 0.2721(2)
H56_5 H 0.449022 0.788752 0.261730
C58_5 C 0.3194(3) 0.7157(2) 0.4494(3)
H57_5 H 0.336151 0.701161 0.471482
C59_5 C 0.3445(3) 0.78212(19) 0.3033(3)
H58_5 H 0.317622 0.781399 0.314739
C60_5 C 0.3846(3) 0.78839(17) 0.1869(3)
C61_5 C 0.4128(3) 0.77093(18) 0.4694(2)
C62_5 C 0.3834(3) 0.74923(19) 0.4764(2)
C63_5 C 0.2834(3) 0.7303(3) 0.4754(3)
H59_5 H 0.263026 0.715230 0.482226
H60_5 H 0.267548 0.745217 0.454639
H61_5 H 0.297583 0.739334 0.505165
H62_5 H 0.274794 0.974828 0.990299
C72_5 C 0.4115(3) 0.78069(18) 0.4226(2)
H75_5 H 0.431950 0.794941 0.416363
C73_5 C 0.4212(3) 0.78250(16) 0.3194(2)
H76_5 H 0.447793 0.781843 0.341431
C74_5 C 0.4482(3) 0.8150(2) 0.5101(3)
H77_5 H 0.470863 0.821636 0.536126
H78_5 H 0.419811 0.822393 0.515200
H79_5 H 0.454421 0.822490 0.479830
C75_5 C 0.3818(3) 0.77929(17) 0.3352(2)
C76_5 C 0.3815(3) 0.77016(18) 0.3859(2)
C77_5 C 0.3507(3) 0.74995(18) 0.3939(2)
H80_5 H 0.329568 0.743564 0.367794
C78_5 C 0.4906(3) 0.7684(2) 0.5062(3)
H81_5 H 0.512665 0.775941 0.532052
H82_5 H 0.498991 0.773251 0.475536
H83_5 H 0.488421 0.747171 0.509120
C79_5 C 0.2959(3) 0.6992(2) 0.4042(3)
H84_5 H 0.276401 0.684317 0.413716
H85_5 H 0.317611 0.689692 0.388284
H86_5 H 0.278886 0.713087 0.382416
C80_5 C 0.2761(5) 0.7208(4) 0.6319(5)
H87_5 H 0.280376 0.740258 0.619135
H88_5 H 0.267767 0.722654 0.663257
H89_5 H 0.253093 0.710543 0.610308
Cu3_5 Cu 0.34893(6) 0.78470(4) 0.56404(5)
C88_5 C 0.3994(3) 0.78095(17) 0.8597(2)
H109_5 H 0.410245 0.799003 0.873322
C89_5 C 0.3827(3) 0.7433(2) 0.7403(2)
C91_5 C 0.3722(3) 0.73291(19) 0.8678(2)
H110_5 H 0.364467 0.717791 0.887611
C92_5 C 0.3865(3) 0.76454(19) 0.9394(2)
C93_5 C 0.4186(3) 0.7538(2) 0.7186(3)
H111_5 H 0.441868 0.764432 0.736807
C98_5 C 0.3857(3) 0.75974(17) 0.8876(2)
C99_5 C 0.3831(3) 0.74953(19) 0.7907(2)
C100_5 C 0.3479(3) 0.7216(2) 0.6634(3)
C104_5 C 0.3496(3) 0.72797(19) 0.7122(2)
H115_5 H 0.326243 0.721209 0.726733
C108_5 C 0.3699(3) 0.72785(19) 0.8198(2)
H118_5 H 0.359465 0.709637 0.806481
C111_5 C 0.4186(3) 0.7480(2) 0.6708(3)
C112_5 C 0.3855(3) 0.73253(19) 0.6450(2)
C115_5 C 0.3974(3) 0.77592(18) 0.8109(2)
H121_5 H 0.406016 0.790915 0.791469
C120_5 C 0.3149(3) 0.7049(2) 0.6359(3)
H124_5 H 0.322287 0.702809 0.603357
H133_5 H 0.342377 0.737346 0.551525
H137_5 H 0.366161 0.688758 0.98242
O6_3 O 0.97501(18) 0.24605(10) 0.11712(18)
O12_3 O 0.9424(2) 0.22711(14) 0.0482(2)
C106_5 C 0.9726(3) 0.22881(19) 0.0825(3)
H119_5 H 0.979095 0.182768 0.025777
Zn6_3 Zn 0.93439(3) 0.27779(2) 0.11224(3)
C3_6 C 0.0363(3) 0.39007(18) 0.1424(3)
H2_6 H 0.058267 0.391095 0.169919
C4_6 C 0.0232(4) 0.4154(2) 0.1185(4)
C8_6 C 0.0406(4) 0.4431(2) 0.1311(4)
C9_6 C 0.0188(3) 0.36323(17) 0.1283(3)
H4_6 H 0.028890 0.346389 0.146396
C18_6 C 0.1034(5) 0.4728(2) 0.1677(4)
C22_6 C 0.1787(5) 0.4749(3) 0.1569(6)
H12_6 H 0.208891 0.476253 0.173430
H13_6 H 0.171961 0.491679 0.135551
H14_6 H 0.174728 0.456781 0.138348
C25_6 C 0.1497(5) 0.4749(3) 0.1915(5)
H18_6 H 0.153234 0.494205 0.208072
C27_6 C 0.0828(4) 0.4466(2) 0.1554(4)
H20_6 H 0.099002 0.429298 0.164313
C35_6 C 0.0137(5) 0.4694(2) 0.1208(5)
C39_6 C 0.0032(6) 0.5249(4) 0.1175(7)
H33_6 H 0.016978 0.543361 0.131622
C40_6 C 0.0767(5) 0.4978(2) 0.1603(5)
H40_6 H 0.024054 0.527310 0.054844
C47_6 C 0.0348(6) 0.4975(3) 0.1347(6)
N3_6 N 0.1262(3) 0.56767(16) 0.1618(3)
N6_6 N 0.0965(4) 0.52623(18) 0.1694(3)
C64_6 C 0.1103(4) 0.5426(2) 0.1365(4)
C66_6 C 0.1213(4) 0.5650(2) 0.2077(4)
H63_6 H 0.129627 0.578987 0.232152
C67_6 C 0.2186(4) 0.5610(2) 0.1564(4)
H64_6 H 0.197244 0.547196 0.166711
C68_6 C 0.2511(5) 0.5675(3) 0.2007(5)
H65_6 H 0.236486 0.577805 0.223629
H66_6 H 0.274541 0.579679 0.192638
H67_6 H 0.263269 0.549079 0.214803
C69_6 C 0.2360(5) 0.5458(3) 0.1198(5)
H68_6 H 0.212810 0.542566 0.092422
H69_6 H 0.247936 0.526952 0.132079
H70_6 H 0.259208 0.557552 0.109915
C70_6 C 0.1032(5) 0.5401(2) 0.2122(4)
H71_6 H 0.095715 0.532694 0.240759
C71_6 C 0.1645(6) 0.4496(3) 0.2323(5)
H72_6 H 0.144553 0.449903 0.255366
H73_6 H 0.194191 0.453578 0.248696
H74_6 H 0.163426 0.430370 0.217096
Cu2_6 Cu 0.10584(8) 0.53580(4) 0.07242(8)
C82_6 C 0.0529(5) 0.6164(4) 0.0672(5)
H93_6 H 0.021176 0.616992 0.065013
H94_6 H 0.061008 0.598676 0.051435
H95_6 H 0.062530 0.633637 0.051559
C83_6 C 0.0637(5) 0.6387(3) 0.1586(6)
H96_6 H 0.032072 0.638831 0.157077
H97_6 H 0.073353 0.658216 0.150528
H98_6 H 0.078036 0.633538 0.190822
C94_6 C 0.2579(3) 0.71186(18) 0.0629(3)
C95_6 C 0.2124(3) 0.66327(17) 0.0894(3)
C97_6 C 0.2869(3) 0.7371(2) 0.0550(3)
C101_6 C 0.2470(3) 0.66052(19) 0.0641(3)
H113_6 H 0.256143 0.641559 0.056501
C103_6 C 0.1451(3) 0.63852(17) 0.1062(3)
H114_6 H 0.129413 0.655602 0.094762
C105_6 C 0.2020(3) 0.69106(15) 0.1007(3)
H116_6 H 0.178607 0.693915 0.117604
C107_6 C 0.2246(3) 0.71544(17) 0.0883(3)
H117_6 H 0.216875 0.734462 0.097281
C109_6 C 0.1903(3) 0.63713(17) 0.1054(3)
C116_6 C 0.2673(3) 0.68397(19) 0.0503(3)
H122_6 H 0.288991 0.681172 0.031089
C117_6 C 0.1480(4) 0.5911(2) 0.1411(3)
C118_6 C 0.1920(5) 0.58836(19) 0.1389(3)
C121_6 C 0.1228(4) 0.61507(19) 0.1236(3)
C122_6 C 0.2130(3) 0.61201(18) 0.1216(3)
H125_6 H 0.243259 0.610840 0.120837
C123_6 C 0.0759(4) 0.6160(2) 0.1226(4)
H126_6 H 0.068419 0.596561 0.135010
H135_6 H 0.142321 0.532386 0.143682
O2_6 O 0.84707(19) 0.33611(10) 0.01204(16)
O4_6 O 0.88313(15) 0.27717(9) 0.06356(13)
O7_6 O 0.97183(17) 0.31209(10) 0.10481(17)
O8_6 O 0.81145(19) 0.32525(11) 0.07089(18)
O9_6 O 0.94089(19) 0.33091(12) 0.03546(18)
C1_6 C 0.9878(3) 0.36028(17) 0.0894(3)
C2_6 C 0.9723(3) 0.38584(18) 0.0632(3)
H1_6 H 0.949420 0.384591 0.036492
C5_6 C 0.6131(4) 0.64695(19) 0.0847(3)
C6_6 C 0.9909(4) 0.4121(2) 0.0772(4)
H3_6 H 0.981778 0.428861 0.058548
C7_6 C 0.9654(3) 0.33206(17) 0.0758(3)
C10_6 C 0.6247(4) 0.6395(2) 0.0401(4)
H5_6 H 0.607859 0.645579 0.010782
C11_6 C 0.6830(4) 0.6119(2) 0.0836(4)
C12_6 C 0.6366(4) 0.63663(19) 0.1256(3)
H6_6 H 0.627656 0.641596 0.154824
C13_6 C 0.6634(4) 0.6222(2) 0.0421(4)
C15_6 C 0.8102(3) 0.37350(18) 0.0443(3)
C16_6 C 0.8236(3) 0.39403(18) 0.0163(3)
C21_6 C 0.8133(4) 0.42358(19) 0.0201(3)
H11_6 H 0.824587 0.437846 0.001326
C24_6 C 0.7859(4) 0.4318(2) 0.0519(4)
C26_6 C 0.7709(4) 0.4109(2) 0.0782(4)
H19_6 H 0.752069 0.416004 0.099684
C28_6 C 0.6725(4) 0.6194(2) 0.1269(4)
C29_6 C 0.7830(3) 0.3818(2) 0.0738(3)
H21_6 H 0.771698 0.367321 0.092204
C30_6 C 0.6954(4) 0.6055(2) 0.1746(4)
H22_6 H 0.723140 0.596540 0.168407
C33_6 C 0.7784(4) 0.4636(2) 0.0600(4)
C34_6 C 0.7834(6) 0.5747(3) 0.0827(5)
H27_6 H 0.814128 0.573048 0.085435
H28_6 H 0.984085 0.468322 0.105908
C36_6 C 0.7151(7) 0.5646(5) 0.0760(7)
C37_6 C 0.7610(6) 0.5995(3) 0.0827(5)
H29_6 H 0.772595 0.618730 0.082837
C41_6 C 0.7624(5) 0.5123(2) 0.0269(5)
C42_6 C 0.7677(5) 0.5041(3) 0.1101(5)
C45_6 C 0.9959(6) 0.5270(4) 0.0658(7)
H41_6 H 0.979875 0.544964 0.055681
H42_6 H 0.979016 0.510061 0.051994
C48_6 C 0.7083(4) 0.6314(2) 0.2109(4)
H46_6 H 0.726114 0.645609 0.197133
H47_6 H 0.725038 0.623629 0.240526
H48_6 H 0.681895 0.640927 0.217485
C49_6 C 0.7632(5) 0.5220(2) 0.0691(5)
C51_6 C 0.7738(4) 0.4734(2) 0.1031(4)
H50_6 H 0.774604 0.460186 0.128872
C52_6 C 0.6682(5) 0.5814(3) 0.1887(4)
H51_6 H 0.682843 0.572829 0.218707
H52_6 H 0.664050 0.566404 0.163880
H53_6 H 0.639809 0.589198 0.192884
Cu1_6 Cu 0.6611(2) 0.54055(13) 0.0687(2)
N4_6 N 0.7180(5) 0.5925(3) 0.0826(4)
N5_6 N 0.7551(5) 0.5528(2) 0.0781(4)
Br2_6 Br 0.6079(3) 0.51264(18) 0.0637(3)
C65_6 C 0.7724(4) 0.4821(2) 0.0209(4)
C84_6 C 0.9554(7) 0.5250(4) 0.1206(8)
H99_6 H 0.951961 0.523676 0.154000
H100_6 H 0.941155 0.508193 0.103045
H101_6 H 0.942015 0.543095 0.106732
C85_6 C 0.8084(8) 0.5145(4) 0.1916(7)
H102_6 H 0.828779 0.526915 0.178050
H103_6 H 0.819203 0.494357 0.193945
H104_6 H 0.805766 0.521674 0.223292
C86_6 C 0.7385(8) 0.4969(5) 0.1831(7)
H105_6 H 0.709732 0.497205 0.162878
H106_6 H 0.736199 0.504094 0.214908
H107_6 H 0.749636 0.476777 0.185561
C87_6 C 0.7681(8) 0.5153(4) 0.1625(5)
H108_6 H 0.756955 0.535840 0.161189
Zn3_6 Zn 0.89088(3) 0.30521(2) 0.01560(3)
C90_6 C 0.8227(3) 0.34302(18) 0.0422(3)
C96_6 C 0.5399(3) 0.66604(19) 0.0501(3)
H112_6 H 0.538858 0.651557 0.026096
C102_6 C 0.5103(3) 0.70715(18) 0.0849(3)
C106_6 C 0.4726(3) 0.72881(19) 0.0825(3)
C110_6 C 0.5049(3) 0.68463(19) 0.0488(3)
H119_6 H 0.479095 0.682768 0.025777
C113_6 C 0.5763(3) 0.66772(18) 0.0850(3)
C114_6 C 0.5796(3) 0.68896(18) 0.1201(3)
H120_6 H 0.604594 0.689971 0.144303
C119_6 C 0.5455(3) 0.70874(18) 0.1193(3)
H123_6 H 0.547256 0.723398 0.143085
O14_6 O 0.8740(2) 0.22221(14) 0.1095(2)
O15_6 O 0.8736(3) 0.19095(14) 0.0175(3)
N7_6 N 0.8424(4) 0.1920(2) 0.1566(4)
C124_6 C 0.8653(5) 0.1984(3) 0.1209(4)
C125_6 C 0.8306(7) 0.2140(3) 0.1879(5)
H127_6 H 0.814510 0.205019 0.210731
H128_6 H 0.812252 0.228786 0.169243
H129_6 H 0.857022 0.223369 0.205090
C126_6 C 0.8392(7) 0.1617(3) 0.1730(6)
H130_6 H 0.821799 0.161208 0.198489
H131_6 H 0.868439 0.154125 0.185007
H132_6 H 0.825189 0.149560 0.146394
O16_4 O 0.92187(19) 0.28568(11) 0.17522(15)
O19_4 O 0.8483(2) 0.29067(12) 0.15947(16)
H134_6 H 0.711567 0.567389 0.037635
H136_6 H 0.902157 0.181537 0.0291602
H138_6 H 0.876294 0.180121 0.1016
O1_6 O 0.89536(17) 0.29076(11) 0.95319(15)
O11_6 O 0.87651(18) 0.24465(11) 0.96409(15)
C14_6 C 0.9085(3) 0.2094(2) 0.5329(3)
H7_6 H 0.920264 0.197221 0.511358
H8_6 H 0.840607 0.388262 0.993341
C17_6 C 0.8743(3) 0.24751(19) 0.5609(2)
C19_6 C 0.9096(3) 0.2035(2) 0.5803(3)
H9_6 H 0.922413 0.187368 0.598498
C20_6 C 0.9600(4) 0.2573(3) 0.6501(3)
H10_6 H 0.953000 0.255152 0.614777
C23_6 C 0.9708(4) 0.2880(3) 0.6605(4)
H15_6 H 0.996785 0.293180 0.647204
H16_6 H 0.976660 0.290952 0.694988
H17_6 H 0.946370 0.300311 0.646164
C31_5 C 0.7475(6) 0.5318(3) 0.9785(5)
H23_5 H 0.744440 0.552542 0.988348
C32_6 C 0.8104(5) 0.1767(3) 0.6540(5)
H24_6 H 0.838130 0.166238 0.656437
H25_6 H 0.787701 0.166116 0.632705
H26_6 H 0.802375 0.178227 0.685654
C38_5 C 0.6886(6) 0.6402(3) 0.9707(5)
H30_5 H 0.710924 0.650144 0.993659
H31_5 H 0.663705 0.653261 0.961506
H32_5 H 0.700842 0.634859 0.942504
C43_6 C 0.9995(4) 0.2356(3) 0.6692(4)
H34_6 H 0.990527 0.215428 0.661359
C44_5 C 0.7025(6) 0.5214(4) 0.9521(6)
H37_5 H 0.681144 0.522726 0.973427
H38_5 H 0.704691 0.501070 0.941876
H39_5 H 0.693272 0.533788 0.924161
C46_5 C 0.6418(6) 0.5971(3) 0.9629(5)
H43_5 H 0.635045 0.580127 0.981244
H44_5 H 0.652549 0.590414 0.934389
H45_5 H 0.615412 0.608816 0.953391
C50_5 C 0.6749(5) 0.6147(3) 0.9917(5)
H49_5 H 0.701243 0.601900 0.998372
Br1_6 Br 0.82275(7) 0.32934(5) 0.56743(7)
N1_6 N 0.8879(2) 0.23534(16) 0.52156(19)
N2_6 N 0.8867(2) 0.22756(16) 0.5952(2)
C53_6 C 0.8495(3) 0.23850(19) 0.4394(3)
C54_6 C 0.8836(3) 0.28770(16) 0.2389(2)
C55_6 C 0.8432(3) 0.28605(19) 0.2546(3)
H54_6 H 0.816383 0.287550 0.233106
C56_6 C 0.9473(3) 0.28215(19) 0.5089(2)
H55_6 H 0.938955 0.275514 0.539488
C57_6 C 0.9218(3) 0.28660(15) 0.2721(2)
H56_6 H 0.949022 0.288752 0.261730
C58_6 C 0.8194(3) 0.2157(2) 0.4494(3)
H57_6 H 0.836151 0.201161 0.471482
C59_6 C 0.8445(3) 0.28212(19) 0.3033(3)
H58_6 H 0.817622 0.281399 0.314739
C60_6 C 0.8846(3) 0.28839(17) 0.1869(3)
C61_6 C 0.9128(3) 0.27093(18) 0.4694(2)
C62_6 C 0.8834(3) 0.24923(19) 0.4764(2)
C63_6 C 0.7834(3) 0.2303(3) 0.4754(3)
H59_6 H 0.763026 0.215230 0.482226
H60_6 H 0.767548 0.245217 0.454639
H61_6 H 0.797583 0.239334 0.505165
H62_6 H 0.774794 0.474828 0.990299
C72_6 C 0.9115(3) 0.28069(18) 0.4226(2)
H75_6 H 0.931950 0.294941 0.416363
C73_6 C 0.9212(3) 0.28250(16) 0.3194(2)
H76_6 H 0.947793 0.281843 0.341431
C74_6 C 0.9482(3) 0.3150(2) 0.5101(3)
H77_6 H 0.970863 0.321636 0.536126
H78_6 H 0.919811 0.322393 0.515200
H79_6 H 0.954421 0.322490 0.479830
C75_6 C 0.8818(3) 0.27929(17) 0.3352(2)
C76_6 C 0.8815(3) 0.27016(18) 0.3859(2)
C77_6 C 0.8507(3) 0.24995(18) 0.3939(2)
H80_6 H 0.829568 0.243564 0.367794
C78_6 C 0.9906(3) 0.2684(2) 0.5062(3)
H82_6 H 0.998991 0.273251 0.475536
H83_6 H 0.988421 0.247171 0.509120
C79_6 C 0.7959(3) 0.1992(2) 0.4042(3)
H84_6 H 0.776401 0.184317 0.413716
H85_6 H 0.817611 0.189692 0.388284
H86_6 H 0.778886 0.213087 0.382416
C80_6 C 0.7761(5) 0.2208(4) 0.6319(5)
H87_6 H 0.780376 0.240258 0.619135
H88_6 H 0.767767 0.222654 0.663257
H89_6 H 0.753093 0.210543 0.610308
C81_5 C 0.7823(6) 0.5306(3) 0.9490(6)
H90_5 H 0.809764 0.537397 0.967825
H91_5 H 0.774308 0.543108 0.921050
H92_5 H 0.785727 0.510390 0.938764
Cu3_6 Cu 0.84893(6) 0.28470(4) 0.56404(5)
C88_6 C 0.8994(3) 0.28095(17) 0.8597(2)
H109_6 H 0.910245 0.299003 0.873322
C89_6 C 0.8827(3) 0.2433(2) 0.7403(2)
C91_6 C 0.8722(3) 0.23291(19) 0.8678(2)
H110_6 H 0.864467 0.217791 0.887611
C92_6 C 0.8865(3) 0.26454(19) 0.9394(2)
C93_6 C 0.9186(3) 0.2538(2) 0.7186(3)
H111_6 H 0.941868 0.264432 0.736807
C98_6 C 0.8857(3) 0.25974(17) 0.8876(2)
C99_6 C 0.8831(3) 0.24953(19) 0.7907(2)
C100_6 C 0.8479(3) 0.2216(2) 0.6634(3)
C104_6 C 0.8496(3) 0.22797(19) 0.7122(2)
H115_6 H 0.826243 0.221209 0.726733
C108_6 C 0.8699(3) 0.22785(19) 0.8198(2)
H118_6 H 0.859465 0.209637 0.806481
C111_6 C 0.9186(3) 0.2480(2) 0.6708(3)
C112_6 C 0.8855(3) 0.23253(19) 0.6450(2)
C115_6 C 0.8974(3) 0.27592(18) 0.8109(2)
H121_6 H 0.906016 0.290915 0.791469
C120_6 C 0.8149(3) 0.2049(2) 0.6359(3)
H124_6 H 0.822287 0.202809 0.603357
H133_6 H 0.842377 0.237346 0.551525
H137_6 H 0.866161 0.188758 0.98242
C31_6 C 0.2475(6) 0.0318(3) 0.9785(5)
H23_6 H 0.244440 0.052542 0.988348
C38_6 C 0.1886(6) 0.1402(3) 0.9707(5)
H30_6 H 0.210924 0.150144 0.993659
H31_6 H 0.163705 0.153261 0.961506
H32_6 H 0.200842 0.134859 0.942504
C44_6 C 0.2025(6) 0.0214(4) 0.9521(6)
H37_6 H 0.181144 0.022726 0.973427
H38_6 H 0.204691 0.001070 0.941876
H39_6 H 0.193272 0.033788 0.924161
C46_6 C 0.1418(6) 0.0971(3) 0.9629(5)
H43_6 H 0.135045 0.080127 0.981244
H44_6 H 0.152549 0.090414 0.934389
H45_6 H 0.115412 0.108816 0.953391
C50_6 C 0.1749(5) 0.1147(3) 0.9917(5)
H49_6 H 0.201243 0.101900 0.998372
C81_6 C 0.2823(6) 0.0306(3) 0.9490(6)
H90_6 H 0.309764 0.037397 0.967825
H91_6 H 0.274308 0.043108 0.921050
H92_6 H 0.285727 0.010390 0.938764
Br3_5 Br 0.59601(10) 0.02881(6) 0.99552(9)
O6_4 O 0.02499(18) 0.24605(10) 0.38288(18)
O12_4 O 0.0576(2) 0.22711(14) 0.4518(2)
C106_7 C 0.0274(3) 0.22881(19) 0.4175(3)
H119_7 H 0.020905 0.182768 0.474223
Zn6_4 Zn 0.06561(3) 0.27779(2) 0.38776(3)
Zn10_2 Zn 0.12273(3) 0.23621(2) 0.46460(3)
O5_4 O 0.21574(19) 0.25953(12) 0.41926(18)
O13_4 O 0.18973(19) 0.23474(14) 0.47504(19)
C5_7 C 0.8869(4) 0.14695(19) 0.4153(3)
C10_7 C 0.8753(4) 0.1395(2) 0.4599(4)
H5_7 H 0.892141 0.145579 0.489218
C11_7 C 0.8170(4) 0.1119(2) 0.4164(4)
C12_7 C 0.8634(4) 0.13663(19) 0.3744(3)
H6_7 H 0.872344 0.141596 0.345176
C13_7 C 0.8366(4) 0.1222(2) 0.4579(4)
C28_7 C 0.8275(4) 0.1194(2) 0.3731(4)
C30_7 C 0.8046(4) 0.1055(2) 0.3254(4)
H22_7 H 0.776860 0.096540 0.331593
C31_7 C 0.7525(6) 0.0318(3) 0.5215(5)
H23_7 H 0.755560 0.052542 0.511652
C34_7 C 0.7166(6) 0.0747(3) 0.4173(5)
H27_7 H 0.685872 0.073048 0.414565
C36_7 C 0.7849(7) 0.0646(5) 0.4240(7)
C37_7 C 0.7390(6) 0.0995(3) 0.4173(5)
H29_7 H 0.727405 0.118730 0.417163
C38_7 C 0.8114(6) 0.1402(3) 0.5293(5)
H30_7 H 0.789076 0.150144 0.506341
H31_7 H 0.836295 0.153261 0.538494
H32_7 H 0.799158 0.134859 0.557496
C39_7 C 0.4968(6) 0.0249(4) 0.3825(7)
H33_7 H 0.483022 0.043361 0.368378
C41_7 C 0.7376(5) 0.0123(2) 0.4731(5)
C42_7 C 0.7323(5) 0.0041(3) 0.3899(5)
C44_7 C 0.7975(6) 0.0214(4) 0.5479(6)
H37_7 H 0.818856 0.022726 0.526573
H38_7 H 0.795309 0.001070 0.558124
H39_7 H 0.806728 0.033788 0.575839
C45_7 C 0.5041(6) 0.0270(4) 0.4342(7)
H40_7 H 0.475946 0.027310 0.445156
H41_7 H 0.520125 0.044964 0.444319
H42_7 H 0.520984 0.010061 0.448006
C46_7 C 0.8582(6) 0.0971(3) 0.5371(5)
H43_7 H 0.864955 0.080127 0.518756
H44_7 H 0.847451 0.090414 0.565611
H45_7 H 0.884588 0.108816 0.546609
C48_7 C 0.7917(4) 0.1314(2) 0.2891(4)
H46_7 H 0.773886 0.145609 0.302867
H47_7 H 0.774962 0.123629 0.259474
H48_7 H 0.818105 0.140927 0.282515
C49_7 C 0.7368(5) 0.0220(2) 0.4309(5)
C50_7 C 0.8251(5) 0.1147(3) 0.5083(5)
H49_7 H 0.798757 0.101900 0.501628
C52_7 C 0.8318(5) 0.0814(3) 0.3113(4)
H51_7 H 0.817157 0.072829 0.281293
H52_7 H 0.835950 0.066404 0.336120
H53_7 H 0.860191 0.089198 0.307116
Cu1_7 Cu 0.8389(2) 0.04055(13) 0.4313(2)
N3_7 N 0.3738(3) 0.06767(16) 0.3382(3)
N4_7 N 0.7820(5) 0.0925(3) 0.4174(4)
N5_7 N 0.7449(5) 0.0528(2) 0.4219(4)
N6_7 N 0.4035(4) 0.02623(18) 0.3306(3)
C64_7 C 0.3897(4) 0.0426(2) 0.3635(4)
Br2_7 Br 0.8921(3) 0.01264(18) 0.4363(3)
C66_7 C 0.3787(4) 0.0650(2) 0.2923(4)
H63_7 H 0.370373 0.078987 0.267848
C67_7 C 0.2814(4) 0.0610(2) 0.3436(4)
H64_7 H 0.302756 0.047196 0.333289
C68_7 C 0.2489(5) 0.0675(3) 0.2993(5)
H65_7 H 0.263514 0.077805 0.276371
H66_7 H 0.225459 0.079679 0.307362
H67_7 H 0.236731 0.049079 0.285197
C69_7 C 0.2640(5) 0.0458(3) 0.3802(5)
H68_7 H 0.287190 0.042566 0.407578
H69_7 H 0.252064 0.026952 0.367921
H70_7 H 0.240792 0.057552 0.390085
C70_7 C 0.3968(5) 0.0401(2) 0.2878(4)
H71_7 H 0.404285 0.032694 0.259241
Cu2_7 Cu 0.39416(8) 0.03580(4) 0.42758(8)
C81_7 C 0.7177(6) 0.0306(3) 0.5510(6)
H90_7 H 0.690236 0.037397 0.532175
H91_7 H 0.725692 0.043108 0.578950
H92_7 H 0.714273 0.010390 0.561236
C82_7 C 0.4471(5) 0.1164(4) 0.4328(5)
H93_7 H 0.478824 0.116992 0.434987
H94_7 H 0.438992 0.098676 0.448565
H95_7 H 0.437470 0.133637 0.448441
C83_7 C 0.4363(5) 0.1387(3) 0.3414(6)
H96_7 H 0.467928 0.138831 0.342923
H97_7 H 0.426647 0.158216 0.349472
H98_7 H 0.421964 0.133538 0.309178
Br3_6 Br 0.40399(10) 0.02881(6) 0.50448(9)
C84_7 C 0.5446(7) 0.0250(4) 0.3794(8)
H99_7 H 0.548039 0.023676 0.346000
H100_7 H 0.558845 0.008193 0.396955
H101_7 H 0.557985 0.043095 0.393268
C85_7 C 0.6916(8) 0.0145(4) 0.3084(7)
H102_7 H 0.671221 0.026915 0.321950
H104_7 H 0.694234 0.021674 0.276708
H106_7 H 0.763801 0.004094 0.285092
C87_7 C 0.7319(8) 0.0153(4) 0.3375(5)
H108_7 H 0.743045 0.035840 0.338811
C94_7 C 0.2421(3) 0.21186(18) 0.4371(3)
C95_7 C 0.2876(3) 0.16327(17) 0.4106(3)
C96_7 C 0.9601(3) 0.16604(19) 0.4499(3)
H112_7 H 0.961142 0.151557 0.473904
C97_7 C 0.2131(3) 0.2371(2) 0.4450(3)
C101_7 C 0.2530(3) 0.16052(19) 0.4359(3)
H113_7 H 0.243857 0.141559 0.443499
C102_7 C 0.9897(3) 0.20715(18) 0.4151(3)
C103_7 C 0.3549(3) 0.13852(17) 0.3938(3)
H114_7 H 0.370587 0.155602 0.405238
C105_7 C 0.2980(3) 0.19106(15) 0.3993(3)
H116_7 H 0.321393 0.193915 0.382396
C107_7 C 0.2754(3) 0.21544(17) 0.4117(3)
H117_7 H 0.283125 0.234462 0.402719
C109_7 C 0.3097(3) 0.13713(17) 0.3946(3)
C110_7 C 0.9951(3) 0.18463(19) 0.4512(3)
C113_7 C 0.9237(3) 0.16772(18) 0.4150(3)
C114_7 C 0.9204(3) 0.18896(18) 0.3799(3)
H120_7 H 0.895406 0.189971 0.355697
C116_7 C 0.2327(3) 0.18397(19) 0.4497(3)
H122_7 H 0.211009 0.181172 0.468911
C117_7 C 0.3520(4) 0.0911(2) 0.3589(3)
C118_7 C 0.3080(5) 0.08836(19) 0.3611(3)
C119_7 C 0.9545(3) 0.20874(18) 0.3807(3)
H123_7 H 0.952744 0.223398 0.356915
C121_7 C 0.3772(4) 0.11507(19) 0.3764(3)
C122_7 C 0.2870(3) 0.11201(18) 0.3784(3)
H125_7 H 0.256741 0.110840 0.379163
C123_7 C 0.4241(4) 0.1160(2) 0.3774(4)
H126_7 H 0.431581 0.096561 0.364990
Zn8_4 Zn 0.16758(3) 0.28597(2) 0.41046(3)
H134_7 H 0.788433 0.0673893 0.462365
H135_7 H 0.357679 0.0323859 0.356318
O3_3 O 0.57813(19) 0.78568(11) 0.32478(15)
O10_3 O 0.6517(2) 0.79067(12) 0.34053(16)
C53_7 C 0.6505(3) 0.73850(19) 0.0606(3)
C54_7 C 0.6164(3) 0.78770(16) 0.2611(2)
C55_7 C 0.6568(3) 0.78605(19) 0.2454(3)
H54_7 H 0.683617 0.787550 0.266894
C57_7 C 0.5782(3) 0.78660(15) 0.2279(2)
H56_7 H 0.550978 0.788752 0.238270
C58_7 C 0.6806(3) 0.7157(2) 0.0506(3)
H57_7 H 0.663849 0.701161 0.028518
C59_7 C 0.6555(3) 0.78212(19) 0.1967(3)
H58_7 H 0.682378 0.781399 0.185261
C60_7 C 0.6154(3) 0.78839(17) 0.3131(3)
C61_7 C 0.5872(3) 0.77093(18) 0.0306(2)
C62_7 C 0.6166(3) 0.74923(19) 0.0236(2)
C63_7 C 0.7166(3) 0.7303(3) 0.0246(3)
H59_7 H 0.736974 0.715230 0.017774
H60_7 H 0.732452 0.745217 0.045361
C72_7 C 0.5885(3) 0.78069(18) 0.0774(2)
H75_7 H 0.568050 0.794941 0.083637
C73_7 C 0.5788(3) 0.78250(16) 0.1806(2)
H76_7 H 0.552207 0.781843 0.158569
H79_7 H 0.545579 0.822490 0.020170
C75_7 C 0.6182(3) 0.77929(17) 0.1648(2)
C76_7 C 0.6185(3) 0.77016(18) 0.1141(2)
C77_7 C 0.6493(3) 0.74995(18) 0.1061(2)
H80_7 H 0.670432 0.743564 0.132206
H82_7 H 0.501009 0.773251 0.024464
C79_7 C 0.7041(3) 0.6992(2) 0.0958(3)
H84_7 H 0.723599 0.684317 0.086284
H85_7 H 0.682389 0.689692 0.111716
H86_7 H 0.721114 0.713087 0.117584
Zn5_2 Zn 0.56561(3) 0.77779(2) 0.38776(3)
Zn7_2 Zn 0.66758(3) 0.78597(2) 0.41046(3)
O1_7 O 0.60464(17) 0.79076(11) 0.54681(15)
O2_7 O 0.65293(19) 0.83611(10) 0.48796(16)
O4_7 O 0.61687(15) 0.77717(9) 0.43644(13)
O7_7 O 0.52817(17) 0.81209(10) 0.39519(17)
O8_7 O 0.68855(19) 0.82525(11) 0.42911(18)
O9_7 O 0.55911(19) 0.83091(12) 0.46454(18)
O11_7 O 0.62349(18) 0.74465(11) 0.53591(15)
C1_7 C 0.5122(3) 0.86028(17) 0.4106(3)
C2_7 C 0.5277(3) 0.88584(18) 0.4368(3)
H1_7 H 0.550580 0.884591 0.463508
C3_7 C 0.4637(3) 0.89007(18) 0.3576(3)
H2_7 H 0.441733 0.891095 0.330081
C4_7 C 0.4768(4) 0.9154(2) 0.3815(4)
C6_7 C 0.5091(4) 0.9121(2) 0.4228(4)
H3_7 H 0.518222 0.928861 0.441452
C7_7 C 0.5346(3) 0.83206(17) 0.4242(3)
C8_7 C 0.4594(4) 0.9431(2) 0.3689(4)
C9_7 C 0.4812(3) 0.86323(17) 0.3717(3)
H4_7 H 0.471110 0.846389 0.353604
C14_7 C 0.5915(3) 0.7094(2) 0.9671(3)
H7_7 H 0.579736 0.697221 0.988642
C15_7 C 0.6898(3) 0.87350(18) 0.4557(3)
C16_7 C 0.6764(3) 0.89403(18) 0.4837(3)
H8_7 H 0.659393 0.888262 0.506659
C17_7 C 0.6257(3) 0.74751(19) 0.9391(2)
C18_7 C 0.3966(5) 0.9728(2) 0.3323(4)
C19_7 C 0.5904(3) 0.7035(2) 0.9197(3)
H9_7 H 0.577587 0.687368 0.901502
C20_7 C 0.5400(4) 0.7573(3) 0.8499(3)
H10_7 H 0.547000 0.755152 0.885223
C21_7 C 0.6867(4) 0.92358(19) 0.4799(3)
H11_7 H 0.675413 0.937846 0.498674
C22_7 C 0.3213(5) 0.9749(3) 0.3431(6)
H12_7 H 0.291109 0.976253 0.326570
H13_7 H 0.328039 0.991679 0.364449
H14_7 H 0.325272 0.956781 0.361652
C23_7 C 0.5292(4) 0.7880(3) 0.8395(4)
H15_7 H 0.503215 0.793180 0.852796
H16_7 H 0.523340 0.790952 0.805012
H17_7 H 0.553630 0.800311 0.853836
C24_7 C 0.7141(4) 0.9318(2) 0.4481(4)
C25_7 C 0.3503(5) 0.9749(3) 0.3085(5)
H18_7 H 0.346766 0.994205 0.291928
C26_7 C 0.7291(4) 0.9109(2) 0.4218(4)
H19_7 H 0.747931 0.916004 0.400316
C27_7 C 0.4172(4) 0.9466(2) 0.3446(4)
H20_7 H 0.400998 0.929298 0.335687
C29_7 C 0.7170(3) 0.8818(2) 0.4262(3)
H21_7 H 0.728302 0.867321 0.407796
C32_7 C 0.6896(5) 0.6767(3) 0.8460(5)
H24_7 H 0.661870 0.666238 0.843563
H25_7 H 0.712299 0.666116 0.867295
H26_7 H 0.697625 0.678227 0.814346
C33_7 C 0.7216(4) 0.9636(2) 0.4400(4)
C35_7 C 0.4863(5) 0.9694(2) 0.3792(5)
H28_7 H 0.515915 0.968322 0.394092
C40_7 C 0.4233(5) 0.9978(2) 0.3397(5)
C43_7 C 0.5005(4) 0.7356(3) 0.8308(4)
H34_7 H 0.509473 0.715428 0.838641
H35_6 H 0.492323 0.737632 0.796200
H36_6 H 0.475415 0.740502 0.845832
C47_7 C 0.4652(6) 0.9975(3) 0.3653(6)
C51_7 C 0.7262(4) 0.9734(2) 0.3969(4)
H50_7 H 0.725396 0.960186 0.371128
Br1_7 Br 0.67725(7) 0.82934(5) 0.93257(7)
N1_7 N 0.6121(2) 0.73534(16) 0.97844(19)
N2_7 N 0.6133(2) 0.72756(16) 0.9048(2)
C56_7 C 0.5527(3) 0.78215(19) 0.9911(2)
H55_7 H 0.561045 0.775514 0.960512
H61_7 H 0.702417 0.739334 0.994835
C65_7 C 0.7276(4) 0.9821(2) 0.4791(4)
H62_7 H 0.725206 0.974828 0.509701
C71_7 C 0.3355(6) 0.9496(3) 0.2677(5)
H72_7 H 0.355447 0.949903 0.244634
H73_7 H 0.305809 0.953578 0.251304
H74_7 H 0.336574 0.930370 0.282904
C74_7 C 0.5518(3) 0.8150(2) 0.9899(3)
H77_7 H 0.529137 0.821636 0.963874
H78_7 H 0.580189 0.822393 0.984800
C78_7 C 0.5094(3) 0.7684(2) 0.9938(3)
H81_6 H 0.487335 0.775941 0.967948
H83_7 H 0.511579 0.747171 0.990880
C80_7 C 0.7239(5) 0.7208(4) 0.8681(5)
H87_7 H 0.719624 0.740258 0.880865
H88_7 H 0.732233 0.722654 0.836743
H89_7 H 0.746907 0.710543 0.889692
H103_7 H 0.680797 0.994357 0.306055
C86_7 C 0.7615(8) 0.9969(5) 0.3169(7)
H105_7 H 0.790268 0.997205 0.337122
H107_7 H 0.750364 0.976777 0.314439
Zn3_7 Zn 0.60912(3) 0.80521(2) 0.48440(3)
Zn4_4 Zn 0.62273(3) 0.73621(2) 0.46460(3)
Cu3_7 Cu 0.65107(6) 0.78470(4) 0.93596(5)
C88_7 C 0.6006(3) 0.78095(17) 0.6403(2)
H109_7 H 0.589755 0.799003 0.626678
C89_7 C 0.6173(3) 0.7433(2) 0.7597(2)
C90_7 C 0.6773(3) 0.84302(18) 0.4578(3)
C91_7 C 0.6278(3) 0.73291(19) 0.6322(2)
H110_7 H 0.635533 0.717791 0.612389
C92_7 C 0.6135(3) 0.76454(19) 0.5606(2)
C93_7 C 0.5814(3) 0.7538(2) 0.7814(3)
H111_7 H 0.558132 0.764432 0.763193
C98_7 C 0.6143(3) 0.75974(17) 0.6124(2)
C99_7 C 0.6169(3) 0.74953(19) 0.7093(2)
C100_7 C 0.6521(3) 0.7216(2) 0.8366(3)
C104_7 C 0.6504(3) 0.72797(19) 0.7878(2)
H115_7 H 0.673757 0.721209 0.773267
C108_7 C 0.6301(3) 0.72785(19) 0.6802(2)
H118_7 H 0.640535 0.709637 0.693519
C111_7 C 0.5814(3) 0.7480(2) 0.8292(3)
C112_7 C 0.6145(3) 0.73253(19) 0.8550(2)
C115_7 C 0.6026(3) 0.77592(18) 0.6891(2)
H121_7 H 0.593984 0.790915 0.708531
C120_7 C 0.6851(3) 0.7049(2) 0.8641(3)
H124_7 H 0.677713 0.702809 0.896643
O14_7 O 0.6260(2) 0.72221(14) 0.3905(2)
O15_7 O 0.6264(3) 0.69095(14) 0.4825(3)
N7_7 N 0.6576(4) 0.6920(2) 0.3434(4)
C124_7 C 0.6347(5) 0.6984(3) 0.3791(4)
C125_7 C 0.6694(7) 0.7140(3) 0.3121(5)
H127_7 H 0.685490 0.705019 0.289269
H128_7 H 0.687748 0.728786 0.330757
H129_7 H 0.642978 0.723369 0.294910
C126_7 C 0.6608(7) 0.6617(3) 0.3270(6)
H130_7 H 0.678201 0.661208 0.301511
H131_7 H 0.631561 0.654125 0.314993
H132_7 H 0.674811 0.649560 0.353606
O17_4 O 0.71574(19) 0.75953(12) 0.41926(18)
O18_4 O 0.52499(18) 0.74605(10) 0.38288(18)
O20_4 O 0.5576(2) 0.72711(14) 0.4518(2)
O21_4 O 0.68973(19) 0.73474(14) 0.47504(19)
H133_7 H 0.657623 0.737346 0.948475
H136_7 H 0.597843 0.681537 0.47084
H137_7 H 0.633839 0.688758 0.51758
H138_7 H 0.623706 0.680121 0.3984
O3_4 O 0.07813(19) 0.28568(11) 0.32478(15)
O10_4 O 0.1517(2) 0.29067(12) 0.34053(16)
C53_8 C 0.1505(3) 0.23850(19) 0.0606(3)
C54_8 C 0.1164(3) 0.28770(16) 0.2611(2)
C55_8 C 0.1568(3) 0.28605(19) 0.2454(3)
H54_8 H 0.183617 0.287550 0.266894
C57_8 C 0.0782(3) 0.28660(15) 0.2279(2)
H56_8 H 0.050978 0.288752 0.238270
C58_8 C 0.1806(3) 0.2157(2) 0.0506(3)
H57_8 H 0.163849 0.201161 0.028518
C59_8 C 0.1555(3) 0.28212(19) 0.1967(3)
H58_8 H 0.182378 0.281399 0.185261
C60_8 C 0.1154(3) 0.28839(17) 0.3131(3)
C61_8 C 0.0872(3) 0.27093(18) 0.0306(2)
C62_8 C 0.1166(3) 0.24923(19) 0.0236(2)
C63_8 C 0.2166(3) 0.2303(3) 0.0246(3)
H59_8 H 0.236974 0.215230 0.017774
H60_8 H 0.232452 0.245217 0.045361
C72_8 C 0.0885(3) 0.28069(18) 0.0774(2)
H75_8 H 0.068050 0.294941 0.083637
C73_8 C 0.0788(3) 0.28250(16) 0.1806(2)
H76_8 H 0.052207 0.281843 0.158569
H79_8 H 0.045579 0.322490 0.020170
C75_8 C 0.1182(3) 0.27929(17) 0.1648(2)
C76_8 C 0.1185(3) 0.27016(18) 0.1141(2)
C77_8 C 0.1493(3) 0.24995(18) 0.1061(2)
H80_8 H 0.170432 0.243564 0.132206
H82_8 H 0.001009 0.273251 0.024464
C79_8 C 0.2041(3) 0.1992(2) 0.0958(3)
H84_8 H 0.223599 0.184317 0.086284
H85_8 H 0.182389 0.189692 0.111716
H86_8 H 0.221114 0.213087 0.117584
O1_8 O 0.10464(17) 0.29076(11) 0.54681(15)
O2_8 O 0.15293(19) 0.33611(10) 0.48796(16)
O4_8 O 0.11687(15) 0.27717(9) 0.43644(13)
O7_8 O 0.02817(17) 0.31209(10) 0.39519(17)
O8_8 O 0.18855(19) 0.32525(11) 0.42911(18)
O9_8 O 0.05911(19) 0.33091(12) 0.46454(18)
O11_8 O 0.12349(18) 0.24465(11) 0.53591(15)
C1_8 C 0.0122(3) 0.36028(17) 0.4106(3)
C2_8 C 0.0277(3) 0.38584(18) 0.4368(3)
H1_8 H 0.050580 0.384591 0.463508
C5_8 C 0.3869(4) 0.64695(19) 0.4153(3)
C6_8 C 0.0091(4) 0.4121(2) 0.4228(4)
H3_8 H 0.018222 0.428861 0.441452
C7_8 C 0.0346(3) 0.33206(17) 0.4242(3)
C10_8 C 0.3753(4) 0.6395(2) 0.4599(4)
H5_8 H 0.392141 0.645579 0.489218
C11_8 C 0.3170(4) 0.6119(2) 0.4164(4)
C12_8 C 0.3634(4) 0.63663(19) 0.3744(3)
H6_8 H 0.372344 0.641596 0.345176
C13_8 C 0.3366(4) 0.6222(2) 0.4579(4)
C14_8 C 0.0915(3) 0.2094(2) 0.9671(3)
H7_8 H 0.079736 0.197221 0.988642
C15_8 C 0.1898(3) 0.37350(18) 0.4557(3)
C16_8 C 0.1764(3) 0.39403(18) 0.4837(3)
H8_8 H 0.159393 0.388262 0.506659
C17_8 C 0.1257(3) 0.24751(19) 0.9391(2)
C19_8 C 0.0904(3) 0.2035(2) 0.9197(3)
H9_8 H 0.077587 0.187368 0.901502
C20_8 C 0.0400(4) 0.2573(3) 0.8499(3)
H10_8 H 0.047000 0.255152 0.885223
C21_8 C 0.1867(4) 0.42358(19) 0.4799(3)
H11_8 H 0.175413 0.437846 0.498674
C23_8 C 0.0292(4) 0.2880(3) 0.8395(4)
H15_8 H 0.003215 0.293180 0.852796
H16_8 H 0.023340 0.290952 0.805012
H17_8 H 0.053630 0.300311 0.853836
C24_8 C 0.2141(4) 0.4318(2) 0.4481(4)
C26_8 C 0.2291(4) 0.4109(2) 0.4218(4)
H19_8 H 0.247931 0.416004 0.400316
C28_8 C 0.3275(4) 0.6194(2) 0.3731(4)
C29_8 C 0.2170(3) 0.3818(2) 0.4262(3)
H21_8 H 0.228302 0.367321 0.407796
C30_8 C 0.3046(4) 0.6055(2) 0.3254(4)
H22_8 H 0.276860 0.596540 0.331593
C31_8 C 0.2525(6) 0.5318(3) 0.5215(5)
H23_8 H 0.255560 0.552542 0.511652
C32_8 C 0.1896(5) 0.1767(3) 0.8460(5)
H24_8 H 0.161870 0.166238 0.843563
H25_8 H 0.212299 0.166116 0.867295
H26_8 H 0.197625 0.178227 0.814346
C33_8 C 0.2216(4) 0.4636(2) 0.4400(4)
C34_8 C 0.2166(6) 0.5747(3) 0.4173(5)
H27_8 H 0.185872 0.573048 0.414565
H28_8 H 0.015915 0.468322 0.394092
C36_8 C 0.2849(7) 0.5646(5) 0.4240(7)
C37_8 C 0.2390(6) 0.5995(3) 0.4173(5)
H29_8 H 0.227405 0.618730 0.417163
C38_8 C 0.3114(6) 0.6402(3) 0.5293(5)
H30_8 H 0.289076 0.650144 0.506341
H31_8 H 0.336295 0.653261 0.538494
H32_8 H 0.299158 0.634859 0.557496
C41_8 C 0.2376(5) 0.5123(2) 0.4731(5)
C42_8 C 0.2323(5) 0.5041(3) 0.3899(5)
C43_8 C 0.0005(4) 0.2356(3) 0.8308(4)
H34_8 H 0.009473 0.215428 0.838641
C44_8 C 0.2975(6) 0.5214(4) 0.5479(6)
H37_8 H 0.318856 0.522726 0.526573
H38_8 H 0.295309 0.501070 0.558124
H39_8 H 0.306728 0.533788 0.575839
C45_8 C 0.0041(6) 0.5270(4) 0.4342(7)
H41_8 H 0.020125 0.544964 0.444319
H42_8 H 0.020984 0.510061 0.448006
C46_8 C 0.3582(6) 0.5971(3) 0.5371(5)
H43_8 H 0.364955 0.580127 0.518756
H44_8 H 0.347451 0.590414 0.565611
H45_8 H 0.384588 0.608816 0.546609
C48_8 C 0.2917(4) 0.6314(2) 0.2891(4)
H46_8 H 0.273886 0.645609 0.302867
H47_8 H 0.274962 0.623629 0.259474
H48_8 H 0.318105 0.640927 0.282515
C49_8 C 0.2368(5) 0.5220(2) 0.4309(5)
C50_8 C 0.3251(5) 0.6147(3) 0.5083(5)
H49_8 H 0.298757 0.601900 0.501628
C51_8 C 0.2262(4) 0.4734(2) 0.3969(4)
H50_8 H 0.225396 0.460186 0.371128
C52_8 C 0.3318(5) 0.5814(3) 0.3113(4)
H51_8 H 0.317157 0.572829 0.281293
H52_8 H 0.335950 0.566404 0.336120
H53_8 H 0.360191 0.589198 0.307116
Br1_8 Br 0.17725(7) 0.32934(5) 0.93257(7)
Cu1_8 Cu 0.3389(2) 0.54055(13) 0.4313(2)
N1_8 N 0.1121(2) 0.23534(16) 0.97844(19)
N2_8 N 0.1133(2) 0.22756(16) 0.9048(2)
C56_8 C 0.0527(3) 0.28215(19) 0.9911(2)
H55_8 H 0.061045 0.275514 0.960512
N4_8 N 0.2820(5) 0.5925(3) 0.4174(4)
H61_8 H 0.202417 0.239334 0.994835
N5_8 N 0.2449(5) 0.5528(2) 0.4219(4)
Br2_8 Br 0.3921(3) 0.51264(18) 0.4363(3)
C65_8 C 0.2276(4) 0.4821(2) 0.4791(4)
H62_8 H 0.225206 0.474828 0.509701
C74_8 C 0.0518(3) 0.3150(2) 0.9899(3)
H77_8 H 0.029137 0.321636 0.963874
H78_8 H 0.080189 0.322393 0.984800
C78_8 C 0.0094(3) 0.2684(2) 0.9938(3)
H83_8 H 0.011579 0.247171 0.990880
C80_8 C 0.2239(5) 0.2208(4) 0.8681(5)
H87_8 H 0.219624 0.240258 0.880865
H88_8 H 0.232233 0.222654 0.836743
H89_8 H 0.246907 0.210543 0.889692
C81_8 C 0.2177(6) 0.5306(3) 0.5510(6)
H90_8 H 0.190236 0.537397 0.532175
H91_8 H 0.225692 0.543108 0.578950
H92_8 H 0.214273 0.510390 0.561236
C84_8 C 0.0446(7) 0.5250(4) 0.3794(8)
H99_8 H 0.048039 0.523676 0.346000
H100_8 H 0.058845 0.508193 0.396955
H101_8 H 0.057985 0.543095 0.393268
C85_8 C 0.1916(8) 0.5145(4) 0.3084(7)
H102_8 H 0.171221 0.526915 0.321950
H103_8 H 0.180797 0.494357 0.306055
H104_8 H 0.194234 0.521674 0.276708
C86_8 C 0.2615(8) 0.4969(5) 0.3169(7)
H105_8 H 0.290268 0.497205 0.337122
H106_8 H 0.263801 0.504094 0.285092
H107_8 H 0.250364 0.476777 0.314439
C87_8 C 0.2319(8) 0.5153(4) 0.3375(5)
H108_8 H 0.243045 0.535840 0.338811
Zn3_8 Zn 0.10912(3) 0.30521(2) 0.48440(3)
Cu3_8 Cu 0.15107(6) 0.28470(4) 0.93596(5)
C88_8 C 0.1006(3) 0.28095(17) 0.6403(2)
H109_8 H 0.089755 0.299003 0.626678
C89_8 C 0.1173(3) 0.2433(2) 0.7597(2)
C90_8 C 0.1773(3) 0.34302(18) 0.4578(3)
C91_8 C 0.1278(3) 0.23291(19) 0.6322(2)
H110_8 H 0.135533 0.217791 0.612389
C92_8 C 0.1135(3) 0.26454(19) 0.5606(2)
C93_8 C 0.0814(3) 0.2538(2) 0.7814(3)
H111_8 H 0.058132 0.264432 0.763193
C96_8 C 0.4601(3) 0.66604(19) 0.4499(3)
H112_8 H 0.461142 0.651557 0.473904
C98_8 C 0.1143(3) 0.25974(17) 0.6124(2)
C99_8 C 0.1169(3) 0.24953(19) 0.7093(2)
C100_8 C 0.1521(3) 0.2216(2) 0.8366(3)
C102_8 C 0.4897(3) 0.70715(18) 0.4151(3)
C104_8 C 0.1504(3) 0.22797(19) 0.7878(2)
H115_8 H 0.173757 0.221209 0.773267
C106_8 C 0.5274(3) 0.72881(19) 0.4175(3)
C108_8 C 0.1301(3) 0.22785(19) 0.6802(2)
H118_8 H 0.140535 0.209637 0.693519
C110_8 C 0.4951(3) 0.68463(19) 0.4512(3)
H119_8 H 0.520905 0.682768 0.474223
C111_8 C 0.0814(3) 0.2480(2) 0.8292(3)
C112_8 C 0.1145(3) 0.23253(19) 0.8550(2)
C113_8 C 0.4237(3) 0.66772(18) 0.4150(3)
C114_8 C 0.4204(3) 0.68896(18) 0.3799(3)
H120_8 H 0.395406 0.689971 0.355697
C115_8 C 0.1026(3) 0.27592(18) 0.6891(2)
H121_8 H 0.093984 0.290915 0.708531
C119_8 C 0.4545(3) 0.70874(18) 0.3807(3)
H123_8 H 0.452744 0.723398 0.356915
C120_8 C 0.1851(3) 0.2049(2) 0.8641(3)
H124_8 H 0.177713 0.202809 0.896643
O14_8 O 0.1260(2) 0.22221(14) 0.3905(2)
O15_8 O 0.1264(3) 0.19095(14) 0.4825(3)
N7_8 N 0.1576(4) 0.1920(2) 0.3434(4)
C124_8 C 0.1347(5) 0.1984(3) 0.3791(4)
C125_8 C 0.1694(7) 0.2140(3) 0.3121(5)
H127_8 H 0.185490 0.205019 0.289269
H128_8 H 0.187748 0.228786 0.330757
H129_8 H 0.142978 0.223369 0.294910
C126_8 C 0.1608(7) 0.1617(3) 0.3270(6)
H130_8 H 0.178201 0.161208 0.301511
H131_8 H 0.131561 0.154125 0.314993
H132_8 H 0.174811 0.149560 0.353606
H133_8 H 0.157623 0.237346 0.948475
H134_8 H 0.288433 0.567389 0.462365
H136_8 H 0.0978432 0.181537 0.47084
H137_8 H 0.133839 0.188758 0.51758
H138_8 H 0.123706 0.180121 0.3984
C3_8 C 0.9637(3) 0.39007(18) 0.3576(3)
H2_8 H 0.941733 0.391095 0.330081
C4_8 C 0.9768(4) 0.4154(2) 0.3815(4)
C8_8 C 0.9594(4) 0.4431(2) 0.3689(4)
C9_8 C 0.9812(3) 0.36323(17) 0.3717(3)
H4_8 H 0.971110 0.346389 0.353604
C18_8 C 0.8966(5) 0.4728(2) 0.3323(4)
C22_8 C 0.8213(5) 0.4749(3) 0.3431(6)
H12_8 H 0.791109 0.476253 0.326570
H13_8 H 0.828039 0.491679 0.364449
H14_8 H 0.825272 0.456781 0.361652
C25_8 C 0.8503(5) 0.4749(3) 0.3085(5)
H18_8 H 0.846766 0.494205 0.291928
C27_8 C 0.9172(4) 0.4466(2) 0.3446(4)
H20_8 H 0.900998 0.429298 0.335687
C35_8 C 0.9863(5) 0.4694(2) 0.3792(5)
C39_8 C 0.9968(6) 0.5249(4) 0.3825(7)
H33_8 H 0.983022 0.543361 0.368378
C40_8 C 0.9233(5) 0.4978(2) 0.3397(5)
H35_7 H 0.992323 0.237632 0.796200
H36_7 H 0.975415 0.240502 0.845832
H40_8 H 0.975946 0.527310 0.445156
C47_8 C 0.9652(6) 0.4975(3) 0.3653(6)
N3_8 N 0.8738(3) 0.56767(16) 0.3382(3)
N6_8 N 0.9035(4) 0.52623(18) 0.3306(3)
C64_8 C 0.8897(4) 0.5426(2) 0.3635(4)
C66_8 C 0.8787(4) 0.5650(2) 0.2923(4)
H63_8 H 0.870373 0.578987 0.267848
C67_8 C 0.7814(4) 0.5610(2) 0.3436(4)
H64_8 H 0.802756 0.547196 0.333289
C68_8 C 0.7489(5) 0.5675(3) 0.2993(5)
H65_8 H 0.763514 0.577805 0.276371
H66_8 H 0.725459 0.579679 0.307362
H67_8 H 0.736731 0.549079 0.285197
C69_8 C 0.7640(5) 0.5458(3) 0.3802(5)
H68_8 H 0.787190 0.542566 0.407578
H69_8 H 0.752064 0.526952 0.367921
H70_8 H 0.740792 0.557552 0.390085
C70_8 C 0.8968(5) 0.5401(2) 0.2878(4)
H71_8 H 0.904285 0.532694 0.259241
C71_8 C 0.8355(6) 0.4496(3) 0.2677(5)
H72_8 H 0.855447 0.449903 0.244634
H73_8 H 0.805809 0.453578 0.251304
H74_8 H 0.836574 0.430370 0.282904
Cu2_8 Cu 0.89416(8) 0.53580(4) 0.42758(8)
H81_7 H 0.987335 0.275941 0.967948
C82_8 C 0.9471(5) 0.6164(4) 0.4328(5)
H93_8 H 0.978824 0.616992 0.434987
H94_8 H 0.938992 0.598676 0.448565
H95_8 H 0.937470 0.633637 0.448441
C83_8 C 0.9363(5) 0.6387(3) 0.3414(6)
H96_8 H 0.967928 0.638831 0.342923
H97_8 H 0.926647 0.658216 0.349472
H98_8 H 0.921964 0.633538 0.309178
Br3_7 Br 0.90399(10) 0.52881(6) 0.50448(9)
C94_8 C 0.7421(3) 0.71186(18) 0.4371(3)
C95_8 C 0.7876(3) 0.66327(17) 0.4106(3)
C97_8 C 0.7131(3) 0.7371(2) 0.4450(3)
C101_8 C 0.7530(3) 0.66052(19) 0.4359(3)
H113_8 H 0.743857 0.641559 0.443499
C103_8 C 0.8549(3) 0.63852(17) 0.3938(3)
H114_8 H 0.870587 0.655602 0.405238
C105_8 C 0.7980(3) 0.69106(15) 0.3993(3)
H116_8 H 0.821393 0.693915 0.382396
C107_8 C 0.7754(3) 0.71544(17) 0.4117(3)
H117_8 H 0.783125 0.734462 0.402719
C109_8 C 0.8097(3) 0.63713(17) 0.3946(3)
C116_8 C 0.7327(3) 0.68397(19) 0.4497(3)
H122_8 H 0.711009 0.681172 0.468911
C117_8 C 0.8520(4) 0.5911(2) 0.3589(3)
C118_8 C 0.8080(5) 0.58836(19) 0.3611(3)
C121_8 C 0.8772(4) 0.61507(19) 0.3764(3)
C122_8 C 0.7870(3) 0.61201(18) 0.3784(3)
H125_8 H 0.756741 0.610840 0.379163
C123_8 C 0.9241(4) 0.6160(2) 0.3774(4)
H126_8 H 0.931581 0.596561 0.364990
H135_8 H 0.857679 0.532386 0.356318
H35_8 H 0.007677 0.237632 0.703800
H36_8 H 0.024585 0.240502 0.654168
H81_8 H 0.012665 0.275941 0.532052
Br3_8 Br 0.09601(10) 0.52881(6) 0.99552(9)
loop_
_geom_bond_atom_site_label_1
_geom_bond_atom_site_label_2
_geom_bond_site_symmetry_1
_geom_bond_site_symmetry_2
O6 C106 1_555 1_555
O12 C106 1_555 1_555
Zn6 O6 1_555 1_555
Zn10 O12 1_555 1_555
O3 C60 1_555 1_555
O10 C60 1_555 1_555
C14 H7 1_555 1_555
C17 N1 1_555 1_555
C19 C14 1_555 1_555
H9 C19 1_555 1_555
C20 H10 1_555 1_555
C23 C20 1_555 1_555
H15 C23 1_555 1_555
H16 C23 1_555 1_555
H17 C23 1_555 1_555
C32 H24 1_555 1_555
H25 C32 1_555 1_555
H26 C32 1_555 1_555
C43 C20 1_555 1_555
H34 C43 1_555 1_555
H35 C43 1_555 1_555
H36 C43 1_555 1_555
Br1 Cu3 1_555 1_555
N1 C14 1_555 1_555
N2 C17 1_555 1_555
C53 C58 1_555 1_555
C54 C55 1_555 1_555
C55 H54 1_555 1_555
C56 H55 1_555 1_555
C57 C54 1_555 1_555
H56 C57 1_555 1_555
C58 H57 1_555 1_555
C59 C55 1_555 1_555
H58 C59 1_555 1_555
C60 C54 1_555 1_555
C61 C56 1_555 1_555
C62 N1 1_555 1_555
C63 C58 1_555 1_555
H59 C63 1_555 1_555
H60 C63 1_555 1_555
H61 C63 1_555 1_555
C72 C61 1_555 1_555
H75 C72 1_555 1_555
C73 C57 1_555 1_555
H76 C73 1_555 1_555
C74 C56 1_555 1_555
H77 C74 1_555 1_555
H78 C74 1_555 1_555
H79 C74 1_555 1_555
C75 C59 1_555 1_555
C76 C72 1_555 1_555
C77 C53 1_555 1_555
H80 C77 1_555 1_555
C78 C56 1_555 1_555
H81 C78 1_555 1_555
H82 C78 1_555 1_555
H83 C78 1_555 1_555
C79 C58 1_555 1_555
H84 C79 1_555 1_555
H85 C79 1_555 1_555
H86 C79 1_555 1_555
C80 H87 1_555 1_555
H88 C80 1_555 1_555
H89 C80 1_555 1_555
Cu3 C17 1_555 1_555
C88 H109 1_555 1_555
C89 C93 1_555 1_555
C91 H110 1_555 1_555
C92 O1 1_555 1_555
C93 H111 1_555 1_555
C98 C88 1_555 1_555
C99 C89 1_555 1_555
C100 C104 1_555 1_555
C104 C89 1_555 1_555
H115 C104 1_555 1_555
C108 C91 1_555 1_555
H118 C108 1_555 1_555
C111 C20 1_555 1_555
C112 N2 1_555 1_555
C115 C88 1_555 1_555
H121 C115 1_555 1_555
C120 C32 1_555 1_555
H124 C120 1_555 1_555
Zn5 O3 1_555 1_555
Zn7 O10 1_555 1_555
O11 C92 1_555 1_555
C19 N2 1_555 1_555
C53 C62 1_555 1_555
C61 C62 1_555 1_555
C73 C75 1_555 1_555
C75 C76 1_555 1_555
C76 C77 1_555 1_555
C80 C120 1_555 1_555
C91 C98 1_555 1_555
C92 C98 1_555 1_555
C93 C111 1_555 1_555
C99 C108 1_555 1_555
C99 C115 1_555 1_555
C100 C112 1_555 1_555
C100 C120 1_555 1_555
C111 C112 1_555 1_555
C17 H133 1_555 1_555
O2 Zn3 1_555 1_555
O4 Zn5 1_555 1_555
O7 C7 1_555 1_555
O8 Zn7 1_555 1_555
O9 C7 1_555 1_555
C1 C2 1_555 1_555
C2 H1 1_555 1_555
C3 H2 1_555 1_555
C4 C3 1_555 1_555
C6 C2 1_555 1_555
H3 C6 1_555 1_555
C7 C1 1_555 1_555
C8 C4 1_555 1_555
C9 C1 1_555 1_555
H4 C9 1_555 1_555
C15 C16 1_555 1_555
C18 C25 1_555 1_555
C21 C16 1_555 1_555
H11 C21 1_555 1_555
C22 H12 1_555 1_555
H13 C22 1_555 1_555
H14 C22 1_555 1_555
C24 C21 1_555 1_555
C25 C22 1_555 1_555
H18 C25 1_555 1_555
C26 C24 1_555 1_555
H19 C26 1_555 1_555
C27 C8 1_555 1_555
H20 C27 1_555 1_555
C29 C15 1_555 1_555
H21 C29 1_555 1_555
C33 C24 1_555 1_555
C35 C8 1_555 1_555
H28 C35 1_555 1_555
C40 C18 1_555 1_555
C47 C35 1_555 1_555
C51 C33 1_555 1_555
H50 C51 1_555 1_555
C65 C33 1_555 1_555
C71 C25 1_555 1_555
H72 C71 1_555 1_555
H73 C71 1_555 1_555
H74 C71 1_555 1_555
C86 H105 1_555 1_555
H107 C86 1_555 1_555
Zn5 O7 1_555 1_555
Zn7 O4 1_555 1_555
Zn3 O4 1_555 1_555
Zn4 O4 1_555 1_555
C90 O2 1_555 1_555
O14 Zn4 1_555 1_555
O15 Zn4 1_555 1_555
N7 C124 1_555 1_555
C124 O14 1_555 1_555
C125 N7 1_555 1_555
H127 C125 1_555 1_555
H128 C125 1_555 1_555
H129 C125 1_555 1_555
C126 N7 1_555 1_555
H130 C126 1_555 1_555
H131 C126 1_555 1_555
H132 C126 1_555 1_555
O17 Zn7 1_555 1_555
O18 Zn5 1_555 1_555
O20 Zn4 1_555 1_555
O21 Zn4 1_555 1_555
O8 C90 1_555 1_555
O9 Zn3 1_555 1_555
C3 C9 1_555 1_555
C4 C6 1_555 1_555
C15 C90 1_555 1_555
C18 C27 1_555 1_555
C26 C29 1_555 1_555
C40 C47 1_555 1_555
O15 H136 1_555 1_555
C124 H138 1_555 1_555
O5 C97 1_555 1_555
O13 C97 1_555 1_555
C5 C10 1_555 1_555
C10 H5 1_555 1_555
C11 C13 1_555 1_555
C12 C5 1_555 1_555
H6 C12 1_555 1_555
C13 C10 1_555 1_555
C28 C11 1_555 1_555
C30 C28 1_555 1_555
H22 C30 1_555 1_555
C34 H27 1_555 1_555
C36 Cu1 1_555 1_555
C37 C34 1_555 1_555
H29 C37 1_555 1_555
C39 H33 1_555 1_555
C42 C49 1_555 1_555
C45 C39 1_555 1_555
H40 C45 1_555 1_555
H41 C45 1_555 1_555
H42 C45 1_555 1_555
C48 C30 1_555 1_555
H46 C48 1_555 1_555
H47 C48 1_555 1_555
H48 C48 1_555 1_555
C49 C41 1_555 1_555
C52 C30 1_555 1_555
H51 C52 1_555 1_555
H52 C52 1_555 1_555
H53 C52 1_555 1_555
Cu1 Br2 1_555 1_555
N3 C64 1_555 1_555
N4 C11 1_555 1_555
N5 C34 1_555 1_555
C64 N6 1_555 1_555
C66 N3 1_555 1_555
H63 C66 1_555 1_555
C67 H64 1_555 1_555
C68 C67 1_555 1_555
H65 C68 1_555 1_555
H66 C68 1_555 1_555
H67 C68 1_555 1_555
C69 C67 1_555 1_555
H68 C69 1_555 1_555
H69 C69 1_555 1_555
H70 C69 1_555 1_555
C70 N6 1_555 1_555
H71 C70 1_555 1_555
Cu2 C64 1_555 1_555
C82 H93 1_555 1_555
H94 C82 1_555 1_555
H95 C82 1_555 1_555
C83 H96 1_555 1_555
H97 C83 1_555 1_555
H98 C83 1_555 1_555
C84 C39 1_555 1_555
H99 C84 1_555 1_555
H100 C84 1_555 1_555
H101 C84 1_555 1_555
C85 H102 1_555 1_555
H104 C85 1_555 1_555
C87 C42 1_555 1_555
H108 C87 1_555 1_555
C94 C97 1_555 1_555
C95 C101 1_555 1_555
C96 H112 1_555 1_555
C101 H113 1_555 1_555
C103 H114 1_555 1_555
C105 C95 1_555 1_555
H116 C105 1_555 1_555
C107 C94 1_555 1_555
H117 C107 1_555 1_555
C109 C95 1_555 1_555
C110 C96 1_555 1_555
C113 C5 1_555 1_555
C114 C113 1_555 1_555
H120 C114 1_555 1_555
C116 C94 1_555 1_555
H122 C116 1_555 1_555
C117 N3 1_555 1_555
C118 C67 1_555 1_555
C119 C102 1_555 1_555
H123 C119 1_555 1_555
C121 C103 1_555 1_555
C122 C109 1_555 1_555
H125 C122 1_555 1_555
C123 C82 1_555 1_555
H126 C123 1_555 1_555
Zn8 O5 1_555 1_555
Zn10 O13 1_555 1_555
C12 C28 1_555 1_555
C36 N4 1_555 1_555
C36 N5 1_555 1_555
C37 N4 1_555 1_555
C49 N5 1_555 1_555
C66 C70 1_555 1_555
C83 C123 1_555 1_555
C85 C87 1_555 1_555
C96 C113 1_555 1_555
C101 C116 1_555 1_555
C102 C110 1_555 1_555
C103 C109 1_555 1_555
C105 C107 1_555 1_555
C114 C119 1_555 1_555
C117 C118 1_555 1_555
C117 C121 1_555 1_555
C118 C122 1_555 1_555
C121 C123 1_555 1_555
C36 H134 1_555 1_555
C64 H135 1_555 1_555
O3_2 C60_2 1_555 1_555
O10_2 C60_2 1_555 1_555
C14_2 H7_2 1_555 1_555
C17_2 N1_2 1_555 1_555
C19_2 C14_2 1_555 1_555
H9_2 C19_2 1_555 1_555
C20_2 H10_2 1_555 1_555
C23_2 C20_2 1_555 1_555
H15_2 C23_2 1_555 1_555
H16_2 C23_2 1_555 1_555
H17_2 C23_2 1_555 1_555
C31 H23 1_555 1_555
C32_2 H24_2 1_555 1_555
H25_2 C32_2 1_555 1_555
H26_2 C32_2 1_555 1_555
C38 H30 1_555 1_555
H31 C38 1_555 1_555
H32 C38 1_555 1_555
C43_2 C20_2 1_555 1_555
H34_2 C43_2 1_555 1_555
C44 C31 1_555 1_555
H37 C44 1_555 1_555
H38 C44 1_555 1_555
H39 C44 1_555 1_555
C46 H43 1_555 1_555
H44 C46 1_555 1_555
H45 C46 1_555 1_555
H49 C50 1_555 1_555
Br1_2 Cu3_2 1_555 1_555
N1_2 C14_2 1_555 1_555
N2_2 C17_2 1_555 1_555
C53_2 C58_2 1_555 1_555
C54_2 C55_2 1_555 1_555
C55_2 H54_2 1_555 1_555
C56_2 H55_2 1_555 1_555
C57_2 C54_2 1_555 1_555
H56_2 C57_2 1_555 1_555
C58_2 H57_2 1_555 1_555
C59_2 C55_2 1_555 1_555
H58_2 C59_2 1_555 1_555
C60_2 C54_2 1_555 1_555
C61_2 C56_2 1_555 1_555
C62_2 N1_2 1_555 1_555
C63_2 C58_2 1_555 1_555
H59_2 C63_2 1_555 1_555
H60_2 C63_2 1_555 1_555
H61_2 C63_2 1_555 1_555
C72_2 C61_2 1_555 1_555
H75_2 C72_2 1_555 1_555
C73_2 C57_2 1_555 1_555
H76_2 C73_2 1_555 1_555
C74_2 C56_2 1_555 1_555
H77_2 C74_2 1_555 1_555
H78_2 C74_2 1_555 1_555
H79_2 C74_2 1_555 1_555
C75_2 C59_2 1_555 1_555
C76_2 C72_2 1_555 1_555
C77_2 C53_2 1_555 1_555
H80_2 C77_2 1_555 1_555
C78_2 C56_2 1_555 1_555
H82_2 C78_2 1_555 1_555
H83_2 C78_2 1_555 1_555
C79_2 C58_2 1_555 1_555
H84_2 C79_2 1_555 1_555
H85_2 C79_2 1_555 1_555
H86_2 C79_2 1_555 1_555
C80_2 H87_2 1_555 1_555
H88_2 C80_2 1_555 1_555
H89_2 C80_2 1_555 1_555
C81 C31 1_555 1_555
H90 C81 1_555 1_555
H91 C81 1_555 1_555
H92 C81 1_555 1_555
Cu3_2 C17_2 1_555 1_555
C88_2 H109_2 1_555 1_555
C89_2 C93_2 1_555 1_555
C91_2 H110_2 1_555 1_555
C92_2 O1_2 1_555 1_555
C93_2 H111_2 1_555 1_555
C98_2 C88_2 1_555 1_555
C99_2 C89_2 1_555 1_555
C100_2 C104_2 1_555 1_555
C104_2 C89_2 1_555 1_555
H115_2 C104_2 1_555 1_555
C108_2 C91_2 1_555 1_555
H118_2 C108_2 1_555 1_555
C111_2 C20_2 1_555 1_555
C112_2 N2_2 1_555 1_555
C115_2 C88_2 1_555 1_555
H121_2 C115_2 1_555 1_555
C120_2 C32_2 1_555 1_555
H124_2 C120_2 1_555 1_555
Zn6 O3_2 1_555 1_555
Zn8 O10_2 1_555 1_555
O11_2 C92_2 1_555 1_555
C19_2 N2_2 1_555 1_555
C38 C50 1_555 1_555
C46 C50 1_555 1_555
C53_2 C62_2 1_555 1_555
C61_2 C62_2 1_555 1_555
C73_2 C75_2 1_555 1_555
C75_2 C76_2 1_555 1_555
C76_2 C77_2 1_555 1_555
C80_2 C120_2 1_555 1_555
C91_2 C98_2 1_555 1_555
C92_2 C98_2 1_555 1_555
C93_2 C111_2 1_555 1_555
C99_2 C108_2 1_555 1_555
C99_2 C115_2 1_555 1_555
C100_2 C112_2 1_555 1_555
C100_2 C120_2 1_555 1_555
C111_2 C112_2 1_555 1_555
C17_2 H133_2 1_555 1_555
O2_2 Zn3_2 1_555 1_555
O4_2 Zn6 1_555 1_555
O18 C106_2 1_555 1_555
O7_2 C7_2 1_555 1_555
O8_2 Zn8 1_555 1_555
O9_2 C7_2 1_555 1_555
O20 C106_2 1_555 1_555
C1_2 C2_2 1_555 1_555
C2_2 H1_2 1_555 1_555
C5_2 C10_2 1_555 1_555
C6_2 C2_2 1_555 1_555
H3_2 C6_2 1_555 1_555
C7_2 C1_2 1_555 1_555
C10_2 H5_2 1_555 1_555
C11_2 C13_2 1_555 1_555
C12_2 C5_2 1_555 1_555
H6_2 C12_2 1_555 1_555
C13_2 C10_2 1_555 1_555
C15_2 C16_2 1_555 1_555
C21_2 C16_2 1_555 1_555
H11_2 C21_2 1_555 1_555
C24_2 C21_2 1_555 1_555
C26_2 C24_2 1_555 1_555
H19_2 C26_2 1_555 1_555
C28_2 C11_2 1_555 1_555
C29_2 C15_2 1_555 1_555
H21_2 C29_2 1_555 1_555
C30_2 C28_2 1_555 1_555
H22_2 C30_2 1_555 1_555
C33_2 C24_2 1_555 1_555
C34_2 H27_2 1_555 1_555
C36_2 Cu1_2 1_555 1_555
C37_2 C34_2 1_555 1_555
H29_2 C37_2 1_555 1_555
C42_2 C49_2 1_555 1_555
H41_2 C45_2 1_555 1_555
H42_2 C45_2 1_555 1_555
C48_2 C30_2 1_555 1_555
H46_2 C48_2 1_555 1_555
H47_2 C48_2 1_555 1_555
H48_2 C48_2 1_555 1_555
C49_2 C41_2 1_555 1_555
C51_2 C33_2 1_555 1_555
H50_2 C51_2 1_555 1_555
C52_2 C30_2 1_555 1_555
H51_2 C52_2 1_555 1_555
H52_2 C52_2 1_555 1_555
H53_2 C52_2 1_555 1_555
Cu1_2 Br2_2 1_555 1_555
N4_2 C11_2 1_555 1_555
N5_2 C34_2 1_555 1_555
C65_2 C33_2 1_555 1_555
H99_2 C84_2 1_555 1_555
H100_2 C84_2 1_555 1_555
H101_2 C84_2 1_555 1_555
C85_2 H102_2 1_555 1_555
H103_2 C85_2 1_555 1_555
H104_2 C85_2 1_555 1_555
C86_2 H105_2 1_555 1_555
H106_2 C86_2 1_555 1_555
H107_2 C86_2 1_555 1_555
C87_2 C42_2 1_555 1_555
H108_2 C87_2 1_555 1_555
Zn6 O7_2 1_555 1_555
Zn8 O4_2 1_555 1_555
Zn3_2 O4_2 1_555 1_555
Zn10 O4_2 1_555 1_555
C90_2 O2_2 1_555 1_555
C96_2 H112_2 1_555 1_555
C102_2 C106_2 1_555 1_555
C110_2 C96_2 1_555 1_555
H119_2 C110_2 1_555 1_555
C113_2 C5_2 1_555 1_555
C114_2 C113_2 1_555 1_555
H120_2 C114_2 1_555 1_555
C119_2 C102_2 1_555 1_555
H123_2 C119_2 1_555 1_555
O14_2 Zn10 1_555 1_555
O15_2 Zn10 1_555 1_555
N7_2 C124_2 1_555 1_555
C124_2 O14_2 1_555 1_555
C125_2 N7_2 1_555 1_555
H127_2 C125_2 1_555 1_555
H128_2 C125_2 1_555 1_555
H129_2 C125_2 1_555 1_555
C126_2 N7_2 1_555 1_555
H130_2 C126_2 1_555 1_555
H131_2 C126_2 1_555 1_555
H132_2 C126_2 1_555 1_555
O8_2 C90_2 1_555 1_555
O9_2 Zn3_2 1_555 1_555
C12_2 C28_2 1_555 1_555
C15_2 C90_2 1_555 1_555
C26_2 C29_2 1_555 1_555
C36_2 N4_2 1_555 1_555
C36_2 N5_2 1_555 1_555
C37_2 N4_2 1_555 1_555
C41_2 C65_2 1_555 1_555
C42_2 C51_2 1_555 1_555
C49_2 N5_2 1_555 1_555
C85_2 C87_2 1_555 1_555
C86_2 C87_2 1_555 1_555
C96_2 C113_2 1_555 1_555
C102_2 C110_2 1_555 1_555
C114_2 C119_2 1_555 1_555
C36_2 H134_2 1_555 1_555
O15_2 H136_2 1_555 1_555
C124_2 H138_2 1_555 1_555
O17 C97_2 1_555 1_555
O21 C97_2 1_555 1_555
C3_2 H2_2 1_555 1_555
C4_2 C3_2 1_555 1_555
C8_2 C4_2 1_555 1_555
H4_2 C9_2 1_555 1_555
C18_2 C25_2 1_555 1_555
C22_2 H12_2 1_555 1_555
H13_2 C22_2 1_555 1_555
H14_2 C22_2 1_555 1_555
C25_2 C22_2 1_555 1_555
H18_2 C25_2 1_555 1_555
C27_2 C8_2 1_555 1_555
H20_2 C27_2 1_555 1_555
C35_2 C8_2 1_555 1_555
C39_2 H33_2 1_555 1_555
C40_2 C18_2 1_555 1_555
C47_2 C35_2 1_555 1_555
N3_2 C64_2 1_555 1_555
N6_2 C40_2 1_555 1_555
C64_2 N6_2 1_555 1_555
C66_2 N3_2 1_555 1_555
H63_2 C66_2 1_555 1_555
C67_2 H64_2 1_555 1_555
C68_2 C67_2 1_555 1_555
H65_2 C68_2 1_555 1_555
H66_2 C68_2 1_555 1_555
H67_2 C68_2 1_555 1_555
C69_2 C67_2 1_555 1_555
H68_2 C69_2 1_555 1_555
H69_2 C69_2 1_555 1_555
H70_2 C69_2 1_555 1_555
C70_2 N6_2 1_555 1_555
H71_2 C70_2 1_555 1_555
C71_2 C25_2 1_555 1_555
H72_2 C71_2 1_555 1_555
H73_2 C71_2 1_555 1_555
H74_2 C71_2 1_555 1_555
Cu2_2 C64_2 1_555 1_555
C82_2 H93_2 1_555 1_555
H94_2 C82_2 1_555 1_555
H95_2 C82_2 1_555 1_555
C83_2 H96_2 1_555 1_555
H97_2 C83_2 1_555 1_555
H98_2 C83_2 1_555 1_555
C94_2 C97_2 1_555 1_555
C95_2 C101_2 1_555 1_555
C101_2 H113_2 1_555 1_555
C103_2 H114_2 1_555 1_555
C105_2 C95_2 1_555 1_555
H116_2 C105_2 1_555 1_555
C107_2 C94_2 1_555 1_555
H117_2 C107_2 1_555 1_555
C109_2 C95_2 1_555 1_555
C116_2 C94_2 1_555 1_555
H122_2 C116_2 1_555 1_555
C117_2 N3_2 1_555 1_555
C118_2 C67_2 1_555 1_555
C121_2 C103_2 1_555 1_555
C122_2 C109_2 1_555 1_555
H125_2 C122_2 1_555 1_555
C123_2 C82_2 1_555 1_555
H126_2 C123_2 1_555 1_555
C3_2 C9_2 1_555 1_555
C18_2 C27_2 1_555 1_555
C39_2 C47_2 1_555 1_555
C40_2 C47_2 1_555 1_555
C66_2 C70_2 1_555 1_555
C83_2 C123_2 1_555 1_555
C101_2 C116_2 1_555 1_555
C103_2 C109_2 1_555 1_555
C105_2 C107_2 1_555 1_555
C117_2 C118_2 1_555 1_555
C117_2 C121_2 1_555 1_555
C118_2 C122_2 1_555 1_555
C121_2 C123_2 1_555 1_555
C64_2 H135_2 1_555 1_555
C31_2 H23_2 1_555 1_555
C38_2 H30_2 1_555 1_555
H31_2 C38_2 1_555 1_555
H32_2 C38_2 1_555 1_555
C44_2 C31_2 1_555 1_555
H37_2 C44_2 1_555 1_555
H38_2 C44_2 1_555 1_555
H39_2 C44_2 1_555 1_555
C46_2 H43_2 1_555 1_555
H44_2 C46_2 1_555 1_555
H45_2 C46_2 1_555 1_555
H49_2 C50_2 1_555 1_555
C81_2 C31_2 1_555 1_555
H90_2 C81_2 1_555 1_555
H91_2 C81_2 1_555 1_555
H92_2 C81_2 1_555 1_555
C38_2 C50_2 1_555 1_555
C46_2 C50_2 1_555 1_555
O1_3 Zn3_3 1_555 1_555
O2_3 Zn3_3 1_555 1_555
O4_3 Zn1 1_555 1_555
O7_3 C7_3 1_555 1_555
O8_3 Zn2 1_555 1_555
O9_3 C7_3 1_555 1_555
O11_3 Zn4_2 1_555 1_555
C1_3 C2_3 1_555 1_555
C2_3 H1_3 1_555 1_555
C3_3 H2_3 1_555 1_555
C4_3 C3_3 1_555 1_555
C6_3 C2_3 1_555 1_555
H3_3 C6_3 1_555 1_555
C7_3 C1_3 1_555 1_555
C8_3 C4_3 1_555 1_555
C9_3 C1_3 1_555 1_555
H4_3 C9_3 1_555 1_555
C14_3 H7_3 1_555 1_555
C15_3 C16_3 1_555 1_555
C16_3 H8_3 1_555 1_555
C17_3 N1_3 1_555 1_555
C18_3 C25_3 1_555 1_555
C19_3 C14_3 1_555 1_555
H9_3 C19_3 1_555 1_555
C20_3 H10_3 1_555 1_555
C21_3 C16_3 1_555 1_555
H11_3 C21_3 1_555 1_555
C22_3 H12_3 1_555 1_555
H13_3 C22_3 1_555 1_555
H14_3 C22_3 1_555 1_555
C23_3 C20_3 1_555 1_555
H15_3 C23_3 1_555 1_555
H16_3 C23_3 1_555 1_555
H17_3 C23_3 1_555 1_555
C24_3 C21_3 1_555 1_555
C25_3 C22_3 1_555 1_555
H18_3 C25_3 1_555 1_555
C26_3 C24_3 1_555 1_555
H19_3 C26_3 1_555 1_555
C27_3 C8_3 1_555 1_555
H20_3 C27_3 1_555 1_555
C29_3 C15_3 1_555 1_555
H21_3 C29_3 1_555 1_555
C32_3 H24_3 1_555 1_555
H25_3 C32_3 1_555 1_555
H26_3 C32_3 1_555 1_555
C33_3 C24_3 1_555 1_555
C35_3 C8_3 1_555 1_555
H28_3 C35_3 1_555 1_555
C40_3 C18_3 1_555 1_555
C43_3 C20_3 1_555 1_555
H34_3 C43_3 1_555 1_555
H35_2 C43_3 1_555 1_555
H36_2 C43_3 1_555 1_555
C47_3 C35_3 1_555 1_555
C51_3 C33_3 1_555 1_555
H50_3 C51_3 1_555 1_555
Br1_3 Cu3_3 1_555 1_555
N1_3 C14_3 1_555 1_555
N2_3 C17_3 1_555 1_555
C56_3 H55_3 1_555 1_555
C65_3 C33_3 1_555 1_555
H62_3 C65_3 1_555 1_555
C71_3 C25_3 1_555 1_555
H72_3 C71_3 1_555 1_555
H73_3 C71_3 1_555 1_555
H74_3 C71_3 1_555 1_555
C74_3 C56_3 1_555 1_555
H77_3 C74_3 1_555 1_555
H78_3 C74_3 1_555 1_555
C78_3 C56_3 1_555 1_555
H81_2 C78_3 1_555 1_555
H83_3 C78_3 1_555 1_555
C80_3 H87_3 1_555 1_555
H88_3 C80_3 1_555 1_555
H89_3 C80_3 1_555 1_555
C86_3 H105_3 1_555 1_555
H107_3 C86_3 1_555 1_555
Zn1 O7_3 1_555 1_555
Zn2 O4_3 1_555 1_555
Zn3_3 O4_3 1_555 1_555
Zn4_2 O4_3 1_555 1_555
Cu3_3 C17_3 1_555 1_555
C88_3 H109_3 1_555 1_555
C89_3 C93_3 1_555 1_555
C90_3 O2_3 1_555 1_555
C91_3 H110_3 1_555 1_555
C92_3 O1_3 1_555 1_555
C93_3 H111_3 1_555 1_555
C98_3 C88_3 1_555 1_555
C99_3 C89_3 1_555 1_555
C100_3 C104_3 1_555 1_555
C104_3 C89_3 1_555 1_555
H115_3 C104_3 1_555 1_555
C108_3 C91_3 1_555 1_555
H118_3 C108_3 1_555 1_555
C111_3 C20_3 1_555 1_555
C112_3 N2_3 1_555 1_555
C115_3 C88_3 1_555 1_555
H121_3 C115_3 1_555 1_555
C120_3 C32_3 1_555 1_555
H124_3 C120_3 1_555 1_555
O14_3 Zn4_2 1_555 1_555
O15_3 Zn4_2 1_555 1_555
N7_3 C124_3 1_555 1_555
C124_3 O14_3 1_555 1_555
C125_3 N7_3 1_555 1_555
H127_3 C125_3 1_555 1_555
H128_3 C125_3 1_555 1_555
H129_3 C125_3 1_555 1_555
C126_3 N7_3 1_555 1_555
H130_3 C126_3 1_555 1_555
H131_3 C126_3 1_555 1_555
H132_3 C126_3 1_555 1_555
O16 Zn1 1_555 1_555
O17_2 Zn2 1_555 1_555
O18_2 Zn1 1_555 1_555
O19 Zn2 1_555 1_555
O20_2 Zn4_2 1_555 1_555
O21_2 Zn4_2 1_555 1_555
O8_3 C90_3 1_555 1_555
O9_3 Zn3_3 1_555 1_555
O11_3 C92_3 1_555 1_555
C3_3 C9_3 1_555 1_555
C4_3 C6_3 1_555 1_555
C15_3 C90_3 1_555 1_555
C18_3 C27_3 1_555 1_555
C19_3 N2_3 1_555 1_555
C26_3 C29_3 1_555 1_555
C40_3 C47_3 1_555 1_555
C80_3 C120_3 1_555 1_555
C91_3 C98_3 1_555 1_555
C92_3 C98_3 1_555 1_555
C93_3 C111_3 1_555 1_555
C99_3 C108_3 1_555 1_555
C99_3 C115_3 1_555 1_555
C100_3 C112_3 1_555 1_555
C100_3 C120_3 1_555 1_555
C111_3 C112_3 1_555 1_555
C17_3 H133_3 1_555 1_555
O15_3 H136_3 1_555 1_555
O15_3 H137_3 1_555 1_555
C124_3 H138_3 1_555 1_555
O16 C60_3 1_555 1_555
O19 C60_3 1_555 1_555
C53_3 C58_3 1_555 1_555
C54_3 C55_3 1_555 1_555
C55_3 H54_3 1_555 1_555
C57_3 C54_3 1_555 1_555
H56_3 C57_3 1_555 1_555
C58_3 H57_3 1_555 1_555
C59_3 C55_3 1_555 1_555
H58_3 C59_3 1_555 1_555
C60_3 C54_3 1_555 1_555
C63_3 C58_3 1_555 1_555
H59_3 C63_3 1_555 1_555
H60_3 C63_3 1_555 1_555
C72_3 C61_3 1_555 1_555
H75_3 C72_3 1_555 1_555
C73_3 C57_3 1_555 1_555
H76_3 C73_3 1_555 1_555
C75_3 C59_3 1_555 1_555
C76_3 C72_3 1_555 1_555
C77_3 C53_3 1_555 1_555
H80_3 C77_3 1_555 1_555
C79_3 C58_3 1_555 1_555
H84_3 C79_3 1_555 1_555
H85_3 C79_3 1_555 1_555
H86_3 C79_3 1_555 1_555
C53_3 C62_3 1_555 1_555
C61_3 C62_3 1_555 1_555
C73_3 C75_3 1_555 1_555
C75_3 C76_3 1_555 1_555
C76_3 C77_3 1_555 1_555
O5_2 C97_3 1_555 1_555
O13_2 C97_3 1_555 1_555
C5_3 C10_3 1_555 1_555
C10_3 H5_3 1_555 1_555
C11_3 C13_3 1_555 1_555
C12_3 C5_3 1_555 1_555
H6_3 C12_3 1_555 1_555
C13_3 C10_3 1_555 1_555
C28_3 C11_3 1_555 1_555
C30_3 C28_3 1_555 1_555
H22_3 C30_3 1_555 1_555
C31_3 H23_3 1_555 1_555
C34_3 H27_3 1_555 1_555
C36_3 Cu1_3 1_555 1_555
C37_3 C34_3 1_555 1_555
H29_3 C37_3 1_555 1_555
C38_3 H30_3 1_555 1_555
H31_3 C38_3 1_555 1_555
H32_3 C38_3 1_555 1_555
C39_3 H33_3 1_555 1_555
C41_3 C31_3 1_555 1_555
C42_3 C49_3 1_555 1_555
C44_3 C31_3 1_555 1_555
H37_3 C44_3 1_555 1_555
H38_3 C44_3 1_555 1_555
H39_3 C44_3 1_555 1_555
C45_3 C39_3 1_555 1_555
H40_3 C45_3 1_555 1_555
H41_3 C45_3 1_555 1_555
H42_3 C45_3 1_555 1_555
C46_3 H43_3 1_555 1_555
H44_3 C46_3 1_555 1_555
H45_3 C46_3 1_555 1_555
C48_3 C30_3 1_555 1_555
H46_3 C48_3 1_555 1_555
H47_3 C48_3 1_555 1_555
H48_3 C48_3 1_555 1_555
C49_3 C41_3 1_555 1_555
C50_3 C13_3 1_555 1_555
H49_3 C50_3 1_555 1_555
C52_3 C30_3 1_555 1_555
H51_3 C52_3 1_555 1_555
H52_3 C52_3 1_555 1_555
H53_3 C52_3 1_555 1_555
Cu1_3 Br2_3 1_555 1_555
N3_3 C64_3 1_555 1_555
N4_3 C11_3 1_555 1_555
N5_3 C34_3 1_555 1_555
C64_3 N6_3 1_555 1_555
C66_3 N3_3 1_555 1_555
H63_3 C66_3 1_555 1_555
C67_3 H64_3 1_555 1_555
C68_3 C67_3 1_555 1_555
H65_3 C68_3 1_555 1_555
H66_3 C68_3 1_555 1_555
H67_3 C68_3 1_555 1_555
C69_3 C67_3 1_555 1_555
H68_3 C69_3 1_555 1_555
H69_3 C69_3 1_555 1_555
H70_3 C69_3 1_555 1_555
C70_3 N6_3 1_555 1_555
H71_3 C70_3 1_555 1_555
Cu2_3 C64_3 1_555 1_555
C81_3 C31_3 1_555 1_555
H90_3 C81_3 1_555 1_555
H91_3 C81_3 1_555 1_555
H92_3 C81_3 1_555 1_555
C82_3 H93_3 1_555 1_555
H94_3 C82_3 1_555 1_555
H95_3 C82_3 1_555 1_555
C83_3 H96_3 1_555 1_555
H97_3 C83_3 1_555 1_555
H98_3 C83_3 1_555 1_555
Br3_2 Cu2_3 1_555 1_555
C84_3 C39_3 1_555 1_555
H99_3 C84_3 1_555 1_555
H100_3 C84_3 1_555 1_555
H101_3 C84_3 1_555 1_555
C85_3 H102_3 1_555 1_555
H104_3 C85_3 1_555 1_555
C87_3 C42_3 1_555 1_555
H108_3 C87_3 1_555 1_555
C94_3 C97_3 1_555 1_555
C95_3 C101_3 1_555 1_555
C96_3 H112_3 1_555 1_555
C101_3 H113_3 1_555 1_555
C103_3 H114_3 1_555 1_555
C105_3 C95_3 1_555 1_555
H116_3 C105_3 1_555 1_555
C107_3 C94_3 1_555 1_555
H117_3 C107_3 1_555 1_555
C109_3 C95_3 1_555 1_555
C110_3 C96_3 1_555 1_555
C113_3 C5_3 1_555 1_555
C114_3 C113_3 1_555 1_555
H120_3 C114_3 1_555 1_555
C116_3 C94_3 1_555 1_555
H122_3 C116_3 1_555 1_555
C117_3 N3_3 1_555 1_555
C118_3 C67_3 1_555 1_555
C119_3 C102_3 1_555 1_555
H123_3 C119_3 1_555 1_555
C121_3 C103_3 1_555 1_555
C122_3 C109_3 1_555 1_555
H125_3 C122_3 1_555 1_555
C123_3 C82_3 1_555 1_555
H126_3 C123_3 1_555 1_555
Zn8_2 O5_2 1_555 1_555
Zn9 O13_2 1_555 1_555
C12_3 C28_3 1_555 1_555
C36_3 N4_3 1_555 1_555
C36_3 N5_3 1_555 1_555
C37_3 N4_3 1_555 1_555
C38_3 C50_3 1_555 1_555
C46_3 C50_3 1_555 1_555
C49_3 N5_3 1_555 1_555
C66_3 C70_3 1_555 1_555
C83_3 C123_3 1_555 1_555
C85_3 C87_3 1_555 1_555
C96_3 C113_3 1_555 1_555
C101_3 C116_3 1_555 1_555
C102_3 C110_3 1_555 1_555
C103_3 C109_3 1_555 1_555
C105_3 C107_3 1_555 1_555
C114_3 C119_3 1_555 1_555
C117_3 C118_3 1_555 1_555
C117_3 C121_3 1_555 1_555
C118_3 C122_3 1_555 1_555
C121_3 C123_3 1_555 1_555
C36_3 H134_3 1_555 1_555
C64_3 H135_3 1_555 1_555
O6_2 C106_3 1_555 1_555
O12_2 C106_3 1_555 1_555
Zn6_2 O6_2 1_555 1_555
Zn9 O12_2 1_555 1_555
O17_2 C97_4 1_555 1_555
O21_2 C97_4 1_555 1_555
C3_4 H2_4 1_555 1_555
C4_4 C3_4 1_555 1_555
C8_4 C4_4 1_555 1_555
H4_4 C9_4 1_555 1_555
C18_4 C25_4 1_555 1_555
C22_4 H12_4 1_555 1_555
H13_4 C22_4 1_555 1_555
H14_4 C22_4 1_555 1_555
C25_4 C22_4 1_555 1_555
H18_4 C25_4 1_555 1_555
C27_4 C8_4 1_555 1_555
H20_4 C27_4 1_555 1_555
C35_4 C8_4 1_555 1_555
C39_4 H33_4 1_555 1_555
C40_4 C18_4 1_555 1_555
C47_4 C35_4 1_555 1_555
N3_4 C64_4 1_555 1_555
N6_4 C40_4 1_555 1_555
C64_4 N6_4 1_555 1_555
C66_4 N3_4 1_555 1_555
H63_4 C66_4 1_555 1_555
C67_4 H64_4 1_555 1_555
C68_4 C67_4 1_555 1_555
H65_4 C68_4 1_555 1_555
H66_4 C68_4 1_555 1_555
H67_4 C68_4 1_555 1_555
C69_4 C67_4 1_555 1_555
H68_4 C69_4 1_555 1_555
H69_4 C69_4 1_555 1_555
H70_4 C69_4 1_555 1_555
C70_4 N6_4 1_555 1_555
H71_4 C70_4 1_555 1_555
C71_4 C25_4 1_555 1_555
H72_4 C71_4 1_555 1_555
H73_4 C71_4 1_555 1_555
H74_4 C71_4 1_555 1_555
Cu2_4 C64_4 1_555 1_555
C82_4 H93_4 1_555 1_555
H94_4 C82_4 1_555 1_555
H95_4 C82_4 1_555 1_555
C83_4 H96_4 1_555 1_555
H97_4 C83_4 1_555 1_555
H98_4 C83_4 1_555 1_555
Br3_3 Cu2_4 1_555 1_555
C94_4 C97_4 1_555 1_555
C95_4 C101_4 1_555 1_555
C101_4 H113_4 1_555 1_555
C103_4 H114_4 1_555 1_555
C105_4 C95_4 1_555 1_555
H116_4 C105_4 1_555 1_555
C107_4 C94_4 1_555 1_555
H117_4 C107_4 1_555 1_555
C109_4 C95_4 1_555 1_555
C116_4 C94_4 1_555 1_555
H122_4 C116_4 1_555 1_555
C117_4 N3_4 1_555 1_555
C118_4 C67_4 1_555 1_555
C121_4 C103_4 1_555 1_555
C122_4 C109_4 1_555 1_555
H125_4 C122_4 1_555 1_555
C123_4 C82_4 1_555 1_555
H126_4 C123_4 1_555 1_555
C3_4 C9_4 1_555 1_555
C18_4 C27_4 1_555 1_555
C39_4 C47_4 1_555 1_555
C40_4 C47_4 1_555 1_555
C66_4 C70_4 1_555 1_555
C83_4 C123_4 1_555 1_555
C101_4 C116_4 1_555 1_555
C103_4 C109_4 1_555 1_555
C105_4 C107_4 1_555 1_555
C117_4 C118_4 1_555 1_555
C117_4 C121_4 1_555 1_555
C118_4 C122_4 1_555 1_555
C121_4 C123_4 1_555 1_555
C64_4 H135_4 1_555 1_555
O1_4 Zn3_4 1_555 1_555
O2_4 Zn3_4 1_555 1_555
O4_4 Zn6_2 1_555 1_555
O18_2 C106_4 1_555 1_555
O7_4 C7_4 1_555 1_555
O8_4 Zn8_2 1_555 1_555
O9_4 C7_4 1_555 1_555
O11_4 Zn9 1_555 1_555
O20_2 C106_4 1_555 1_555
C1_4 C2_4 1_555 1_555
C2_4 H1_4 1_555 1_555
C5_4 C10_4 1_555 1_555
C6_4 C2_4 1_555 1_555
H3_4 C6_4 1_555 1_555
C7_4 C1_4 1_555 1_555
C10_4 H5_4 1_555 1_555
C11_4 C13_4 1_555 1_555
C12_4 C5_4 1_555 1_555
H6_4 C12_4 1_555 1_555
C13_4 C10_4 1_555 1_555
C14_4 H7_4 1_555 1_555
C15_4 C16_4 1_555 1_555
C16_4 H8_4 1_555 1_555
C17_4 N1_4 1_555 1_555
C19_4 C14_4 1_555 1_555
H9_4 C19_4 1_555 1_555
C20_4 H10_4 1_555 1_555
C21_4 C16_4 1_555 1_555
H11_4 C21_4 1_555 1_555
C23_4 C20_4 1_555 1_555
H15_4 C23_4 1_555 1_555
H16_4 C23_4 1_555 1_555
H17_4 C23_4 1_555 1_555
C24_4 C21_4 1_555 1_555
C26_4 C24_4 1_555 1_555
H19_4 C26_4 1_555 1_555
C28_4 C11_4 1_555 1_555
C29_4 C15_4 1_555 1_555
H21_4 C29_4 1_555 1_555
C30_4 C28_4 1_555 1_555
H22_4 C30_4 1_555 1_555
C31_4 H23_4 1_555 1_555
C32_4 H24_4 1_555 1_555
H25_4 C32_4 1_555 1_555
H26_4 C32_4 1_555 1_555
C33_4 C24_4 1_555 1_555
C34_4 H27_4 1_555 1_555
C36_4 Cu1_4 1_555 1_555
C37_4 C34_4 1_555 1_555
H29_4 C37_4 1_555 1_555
C38_4 H30_4 1_555 1_555
H31_4 C38_4 1_555 1_555
H32_4 C38_4 1_555 1_555
C41_4 C31_4 1_555 1_555
C42_4 C49_4 1_555 1_555
C43_4 C20_4 1_555 1_555
H34_4 C43_4 1_555 1_555
C44_4 C31_4 1_555 1_555
H37_4 C44_4 1_555 1_555
H38_4 C44_4 1_555 1_555
H39_4 C44_4 1_555 1_555
H41_4 C45_4 1_555 1_555
H42_4 C45_4 1_555 1_555
C46_4 H43_4 1_555 1_555
H44_4 C46_4 1_555 1_555
H45_4 C46_4 1_555 1_555
C48_4 C30_4 1_555 1_555
H46_4 C48_4 1_555 1_555
H47_4 C48_4 1_555 1_555
H48_4 C48_4 1_555 1_555
C49_4 C41_4 1_555 1_555
C50_4 C13_4 1_555 1_555
H49_4 C50_4 1_555 1_555
C51_4 C33_4 1_555 1_555
H50_4 C51_4 1_555 1_555
C52_4 C30_4 1_555 1_555
H51_4 C52_4 1_555 1_555
H52_4 C52_4 1_555 1_555
H53_4 C52_4 1_555 1_555
Br1_4 Cu3_4 1_555 1_555
Cu1_4 Br2_4 1_555 1_555
N1_4 C14_4 1_555 1_555
N2_4 C17_4 1_555 1_555
C56_4 H55_4 1_555 1_555
N4_4 C11_4 1_555 1_555
N5_4 C34_4 1_555 1_555
C65_4 C33_4 1_555 1_555
H62_4 C65_4 1_555 1_555
C74_4 C56_4 1_555 1_555
H77_4 C74_4 1_555 1_555
H78_4 C74_4 1_555 1_555
C78_4 C56_4 1_555 1_555
H83_4 C78_4 1_555 1_555
C80_4 H87_4 1_555 1_555
H88_4 C80_4 1_555 1_555
H89_4 C80_4 1_555 1_555
C81_4 C31_4 1_555 1_555
H90_4 C81_4 1_555 1_555
H91_4 C81_4 1_555 1_555
H92_4 C81_4 1_555 1_555
H99_4 C84_4 1_555 1_555
H100_4 C84_4 1_555 1_555
H101_4 C84_4 1_555 1_555
C85_4 H102_4 1_555 1_555
H103_4 C85_4 1_555 1_555
H104_4 C85_4 1_555 1_555
C86_4 H105_4 1_555 1_555
H106_4 C86_4 1_555 1_555
H107_4 C86_4 1_555 1_555
C87_4 C42_4 1_555 1_555
H108_4 C87_4 1_555 1_555
Zn6_2 O7_4 1_555 1_555
Zn8_2 O4_4 1_555 1_555
Zn3_4 O4_4 1_555 1_555
Zn9 O4_4 1_555 1_555
Cu3_4 C17_4 1_555 1_555
C88_4 H109_4 1_555 1_555
C89_4 C93_4 1_555 1_555
C90_4 O2_4 1_555 1_555
C91_4 H110_4 1_555 1_555
C92_4 O1_4 1_555 1_555
C93_4 H111_4 1_555 1_555
C96_4 H112_4 1_555 1_555
C98_4 C88_4 1_555 1_555
C99_4 C89_4 1_555 1_555
C100_4 C104_4 1_555 1_555
C102_4 C106_4 1_555 1_555
C104_4 C89_4 1_555 1_555
H115_4 C104_4 1_555 1_555
C108_4 C91_4 1_555 1_555
H118_4 C108_4 1_555 1_555
C110_4 C96_4 1_555 1_555
H119_4 C110_4 1_555 1_555
C111_4 C20_4 1_555 1_555
C112_4 N2_4 1_555 1_555
C113_4 C5_4 1_555 1_555
C114_4 C113_4 1_555 1_555
H120_4 C114_4 1_555 1_555
C115_4 C88_4 1_555 1_555
H121_4 C115_4 1_555 1_555
C119_4 C102_4 1_555 1_555
H123_4 C119_4 1_555 1_555
C120_4 C32_4 1_555 1_555
H124_4 C120_4 1_555 1_555
O14_4 Zn9 1_555 1_555
O15_4 Zn9 1_555 1_555
N7_4 C124_4 1_555 1_555
C124_4 O14_4 1_555 1_555
C125_4 N7_4 1_555 1_555
H127_4 C125_4 1_555 1_555
H128_4 C125_4 1_555 1_555
H129_4 C125_4 1_555 1_555
C126_4 N7_4 1_555 1_555
H130_4 C126_4 1_555 1_555
H131_4 C126_4 1_555 1_555
H132_4 C126_4 1_555 1_555
O16_2 Zn6_2 1_555 1_555
O19_2 Zn8_2 1_555 1_555
O8_4 C90_4 1_555 1_555
O9_4 Zn3_4 1_555 1_555
O11_4 C92_4 1_555 1_555
C12_4 C28_4 1_555 1_555
C15_4 C90_4 1_555 1_555
C19_4 N2_4 1_555 1_555
C26_4 C29_4 1_555 1_555
C36_4 N4_4 1_555 1_555
C36_4 N5_4 1_555 1_555
C37_4 N4_4 1_555 1_555
C38_4 C50_4 1_555 1_555
C41_4 C65_4 1_555 1_555
C42_4 C51_4 1_555 1_555
C46_4 C50_4 1_555 1_555
C49_4 N5_4 1_555 1_555
C80_4 C120_4 1_555 1_555
C85_4 C87_4 1_555 1_555
C86_4 C87_4 1_555 1_555
C91_4 C98_4 1_555 1_555
C92_4 C98_4 1_555 1_555
C93_4 C111_4 1_555 1_555
C96_4 C113_4 1_555 1_555
C99_4 C108_4 1_555 1_555
C99_4 C115_4 1_555 1_555
C100_4 C112_4 1_555 1_555
C100_4 C120_4 1_555 1_555
C102_4 C110_4 1_555 1_555
C111_4 C112_4 1_555 1_555
C114_4 C119_4 1_555 1_555
C17_4 H133_4 1_555 1_555
C36_4 H134_4 1_555 1_555
O15_4 H136_4 1_555 1_555
O15_4 H137_4 1_555 1_555
C124_4 H138_4 1_555 1_555
O16_2 C60_4 1_555 1_555
O19_2 C60_4 1_555 1_555
C53_4 C58_4 1_555 1_555
C54_4 C55_4 1_555 1_555
C55_4 H54_4 1_555 1_555
C57_4 C54_4 1_555 1_555
H56_4 C57_4 1_555 1_555
C58_4 H57_4 1_555 1_555
C59_4 C55_4 1_555 1_555
H58_4 C59_4 1_555 1_555
C60_4 C54_4 1_555 1_555
C63_4 C58_4 1_555 1_555
H59_4 C63_4 1_555 1_555
H60_4 C63_4 1_555 1_555
C72_4 C61_4 1_555 1_555
H75_4 C72_4 1_555 1_555
C73_4 C57_4 1_555 1_555
H76_4 C73_4 1_555 1_555
C75_4 C59_4 1_555 1_555
C76_4 C72_4 1_555 1_555
C77_4 C53_4 1_555 1_555
H80_4 C77_4 1_555 1_555
C79_4 C58_4 1_555 1_555
H84_4 C79_4 1_555 1_555
H85_4 C79_4 1_555 1_555
H86_4 C79_4 1_555 1_555
C53_4 C62_4 1_555 1_555
C61_4 C62_4 1_555 1_555
C73_4 C75_4 1_555 1_555
C75_4 C76_4 1_555 1_555
C76_4 C77_4 1_555 1_555
O5_3 C97_5 1_555 1_555
O13_3 C97_5 1_555 1_555
C5_5 C10_5 1_555 1_555
C10_5 H5_5 1_555 1_555
C11_5 C13_5 1_555 1_555
C12_5 C5_5 1_555 1_555
H6_5 C12_5 1_555 1_555
C13_5 C10_5 1_555 1_555
C28_5 C11_5 1_555 1_555
C30_5 C28_5 1_555 1_555
H22_5 C30_5 1_555 1_555
C34_5 H27_5 1_555 1_555
C36_5 Cu1_5 1_555 1_555
C37_5 C34_5 1_555 1_555
H29_5 C37_5 1_555 1_555
C39_5 H33_5 1_555 1_555
C42_5 C49_5 1_555 1_555
C45_5 C39_5 1_555 1_555
H40_5 C45_5 1_555 1_555
H41_5 C45_5 1_555 1_555
H42_5 C45_5 1_555 1_555
C48_5 C30_5 1_555 1_555
H46_5 C48_5 1_555 1_555
H47_5 C48_5 1_555 1_555
H48_5 C48_5 1_555 1_555
C49_5 C41_5 1_555 1_555
C52_5 C30_5 1_555 1_555
H51_5 C52_5 1_555 1_555
H52_5 C52_5 1_555 1_555
H53_5 C52_5 1_555 1_555
Cu1_5 Br2_5 1_555 1_555
N3_5 C64_5 1_555 1_555
N4_5 C11_5 1_555 1_555
N5_5 C34_5 1_555 1_555
C64_5 N6_5 1_555 1_555
C66_5 N3_5 1_555 1_555
H63_5 C66_5 1_555 1_555
C67_5 H64_5 1_555 1_555
C68_5 C67_5 1_555 1_555
H65_5 C68_5 1_555 1_555
H66_5 C68_5 1_555 1_555
H67_5 C68_5 1_555 1_555
C69_5 C67_5 1_555 1_555
H68_5 C69_5 1_555 1_555
H69_5 C69_5 1_555 1_555
H70_5 C69_5 1_555 1_555
C70_5 N6_5 1_555 1_555
H71_5 C70_5 1_555 1_555
Cu2_5 C64_5 1_555 1_555
C82_5 H93_5 1_555 1_555
H94_5 C82_5 1_555 1_555
H95_5 C82_5 1_555 1_555
C83_5 H96_5 1_555 1_555
H97_5 C83_5 1_555 1_555
H98_5 C83_5 1_555 1_555
C84_5 C39_5 1_555 1_555
H99_5 C84_5 1_555 1_555
H100_5 C84_5 1_555 1_555
H101_5 C84_5 1_555 1_555
C85_5 H102_5 1_555 1_555
H104_5 C85_5 1_555 1_555
C87_5 C42_5 1_555 1_555
H108_5 C87_5 1_555 1_555
C94_5 C97_5 1_555 1_555
C95_5 C101_5 1_555 1_555
C96_5 H112_5 1_555 1_555
C101_5 H113_5 1_555 1_555
C103_5 H114_5 1_555 1_555
C105_5 C95_5 1_555 1_555
H116_5 C105_5 1_555 1_555
C107_5 C94_5 1_555 1_555
H117_5 C107_5 1_555 1_555
C109_5 C95_5 1_555 1_555
C110_5 C96_5 1_555 1_555
C113_5 C5_5 1_555 1_555
C114_5 C113_5 1_555 1_555
H120_5 C114_5 1_555 1_555
C116_5 C94_5 1_555 1_555
H122_5 C116_5 1_555 1_555
C117_5 N3_5 1_555 1_555
C118_5 C67_5 1_555 1_555
C119_5 C102_5 1_555 1_555
H123_5 C119_5 1_555 1_555
C121_5 C103_5 1_555 1_555
C122_5 C109_5 1_555 1_555
H125_5 C122_5 1_555 1_555
C123_5 C82_5 1_555 1_555
H126_5 C123_5 1_555 1_555
Zn8_3 O5_3 1_555 1_555
Zn9_2 O13_3 1_555 1_555
C12_5 C28_5 1_555 1_555
C36_5 N4_5 1_555 1_555
C36_5 N5_5 1_555 1_555
C37_5 N4_5 1_555 1_555
C49_5 N5_5 1_555 1_555
C66_5 C70_5 1_555 1_555
C83_5 C123_5 1_555 1_555
C85_5 C87_5 1_555 1_555
C96_5 C113_5 1_555 1_555
C101_5 C116_5 1_555 1_555
C102_5 C110_5 1_555 1_555
C103_5 C109_5 1_555 1_555
C105_5 C107_5 1_555 1_555
C114_5 C119_5 1_555 1_555
C117_5 C118_5 1_555 1_555
C117_5 C121_5 1_555 1_555
C118_5 C122_5 1_555 1_555
C121_5 C123_5 1_555 1_555
C36_5 H134_5 1_555 1_555
C64_5 H135_5 1_555 1_555
O2_5 Zn3_5 1_555 1_555
O4_5 Zn1_2 1_555 1_555
O7_5 C7_5 1_555 1_555
O8_5 Zn2_2 1_555 1_555
O9_5 C7_5 1_555 1_555
C1_5 C2_5 1_555 1_555
C2_5 H1_5 1_555 1_555
C3_5 H2_5 1_555 1_555
C4_5 C3_5 1_555 1_555
C6_5 C2_5 1_555 1_555
H3_5 C6_5 1_555 1_555
C7_5 C1_5 1_555 1_555
C8_5 C4_5 1_555 1_555
C9_5 C1_5 1_555 1_555
H4_5 C9_5 1_555 1_555
C15_5 C16_5 1_555 1_555
C18_5 C25_5 1_555 1_555
C21_5 C16_5 1_555 1_555
H11_5 C21_5 1_555 1_555
C22_5 H12_5 1_555 1_555
H13_5 C22_5 1_555 1_555
H14_5 C22_5 1_555 1_555
C24_5 C21_5 1_555 1_555
C25_5 C22_5 1_555 1_555
H18_5 C25_5 1_555 1_555
C26_5 C24_5 1_555 1_555
H19_5 C26_5 1_555 1_555
C27_5 C8_5 1_555 1_555
H20_5 C27_5 1_555 1_555
C29_5 C15_5 1_555 1_555
H21_5 C29_5 1_555 1_555
C33_5 C24_5 1_555 1_555
C35_5 C8_5 1_555 1_555
H28_5 C35_5 1_555 1_555
C40_5 C18_5 1_555 1_555
C47_5 C35_5 1_555 1_555
C51_5 C33_5 1_555 1_555
H50_5 C51_5 1_555 1_555
C65_5 C33_5 1_555 1_555
C71_5 C25_5 1_555 1_555
H72_5 C71_5 1_555 1_555
H73_5 C71_5 1_555 1_555
H74_5 C71_5 1_555 1_555
C86_5 H105_5 1_555 1_555
H107_5 C86_5 1_555 1_555
Zn1_2 O7_5 1_555 1_555
Zn2_2 O4_5 1_555 1_555
Zn3_5 O4_5 1_555 1_555
Zn4_3 O4_5 1_555 1_555
C90_5 O2_5 1_555 1_555
O14_5 Zn4_3 1_555 1_555
O15_5 Zn4_3 1_555 1_555
N7_5 C124_5 1_555 1_555
C124_5 O14_5 1_555 1_555
C125_5 N7_5 1_555 1_555
H127_5 C125_5 1_555 1_555
H128_5 C125_5 1_555 1_555
H129_5 C125_5 1_555 1_555
C126_5 N7_5 1_555 1_555
H130_5 C126_5 1_555 1_555
H131_5 C126_5 1_555 1_555
H132_5 C126_5 1_555 1_555
O16_3 Zn1_2 1_555 1_555
O17_3 Zn2_2 1_555 1_555
O18_3 Zn1_2 1_555 1_555
O19_3 Zn2_2 1_555 1_555
O20_3 Zn4_3 1_555 1_555
O21_3 Zn4_3 1_555 1_555
O8_5 C90_5 1_555 1_555
O9_5 Zn3_5 1_555 1_555
C3_5 C9_5 1_555 1_555
C4_5 C6_5 1_555 1_555
C15_5 C90_5 1_555 1_555
C18_5 C27_5 1_555 1_555
C26_5 C29_5 1_555 1_555
C40_5 C47_5 1_555 1_555
O15_5 H136_5 1_555 1_555
C124_5 H138_5 1_555 1_555
O16_3 C60_5 1_555 1_555
O19_3 C60_5 1_555 1_555
C14_5 H7_5 1_555 1_555
C17_5 N1_5 1_555 1_555
C19_5 C14_5 1_555 1_555
H9_5 C19_5 1_555 1_555
C20_5 H10_5 1_555 1_555
C23_5 C20_5 1_555 1_555
H15_5 C23_5 1_555 1_555
H16_5 C23_5 1_555 1_555
H17_5 C23_5 1_555 1_555
C32_5 H24_5 1_555 1_555
H25_5 C32_5 1_555 1_555
H26_5 C32_5 1_555 1_555
C43_5 C20_5 1_555 1_555
H34_5 C43_5 1_555 1_555
H35_5 C43_5 1_555 1_555
H36_5 C43_5 1_555 1_555
Br1_5 Cu3_5 1_555 1_555
N1_5 C14_5 1_555 1_555
N2_5 C17_5 1_555 1_555
C53_5 C58_5 1_555 1_555
C54_5 C55_5 1_555 1_555
C55_5 H54_5 1_555 1_555
C56_5 H55_5 1_555 1_555
C57_5 C54_5 1_555 1_555
H56_5 C57_5 1_555 1_555
C58_5 H57_5 1_555 1_555
C59_5 C55_5 1_555 1_555
H58_5 C59_5 1_555 1_555
C60_5 C54_5 1_555 1_555
C61_5 C56_5 1_555 1_555
C62_5 N1_5 1_555 1_555
C63_5 C58_5 1_555 1_555
H59_5 C63_5 1_555 1_555
H60_5 C63_5 1_555 1_555
H61_5 C63_5 1_555 1_555
C72_5 C61_5 1_555 1_555
H75_5 C72_5 1_555 1_555
C73_5 C57_5 1_555 1_555
H76_5 C73_5 1_555 1_555
C74_5 C56_5 1_555 1_555
H77_5 C74_5 1_555 1_555
H78_5 C74_5 1_555 1_555
H79_5 C74_5 1_555 1_555
C75_5 C59_5 1_555 1_555
C76_5 C72_5 1_555 1_555
C77_5 C53_5 1_555 1_555
H80_5 C77_5 1_555 1_555
C78_5 C56_5 1_555 1_555
H81_5 C78_5 1_555 1_555
H82_5 C78_5 1_555 1_555
H83_5 C78_5 1_555 1_555
C79_5 C58_5 1_555 1_555
H84_5 C79_5 1_555 1_555
H85_5 C79_5 1_555 1_555
H86_5 C79_5 1_555 1_555
C80_5 H87_5 1_555 1_555
H88_5 C80_5 1_555 1_555
H89_5 C80_5 1_555 1_555
Cu3_5 C17_5 1_555 1_555
C88_5 H109_5 1_555 1_555
C89_5 C93_5 1_555 1_555
C91_5 H110_5 1_555 1_555
C92_5 O1_5 1_555 1_555
C93_5 H111_5 1_555 1_555
C98_5 C88_5 1_555 1_555
C99_5 C89_5 1_555 1_555
C100_5 C104_5 1_555 1_555
C104_5 C89_5 1_555 1_555
H115_5 C104_5 1_555 1_555
C108_5 C91_5 1_555 1_555
H118_5 C108_5 1_555 1_555
C111_5 C20_5 1_555 1_555
C112_5 N2_5 1_555 1_555
C115_5 C88_5 1_555 1_555
H121_5 C115_5 1_555 1_555
C120_5 C32_5 1_555 1_555
H124_5 C120_5 1_555 1_555
O11_5 C92_5 1_555 1_555
C19_5 N2_5 1_555 1_555
C53_5 C62_5 1_555 1_555
C61_5 C62_5 1_555 1_555
C73_5 C75_5 1_555 1_555
C75_5 C76_5 1_555 1_555
C76_5 C77_5 1_555 1_555
C80_5 C120_5 1_555 1_555
C91_5 C98_5 1_555 1_555
C92_5 C98_5 1_555 1_555
C93_5 C111_5 1_555 1_555
C99_5 C108_5 1_555 1_555
C99_5 C115_5 1_555 1_555
C100_5 C112_5 1_555 1_555
C100_5 C120_5 1_555 1_555
C111_5 C112_5 1_555 1_555
C17_5 H133_5 1_555 1_555
O6_3 C106_5 1_555 1_555
O12_3 C106_5 1_555 1_555
Zn6_3 O6_3 1_555 1_555
Zn9_2 O12_3 1_555 1_555
O17_3 C97_6 1_555 1_555
O21_3 C97_6 1_555 1_555
C3_6 H2_6 1_555 1_555
C4_6 C3_6 1_555 1_555
C8_6 C4_6 1_555 1_555
H4_6 C9_6 1_555 1_555
C18_6 C25_6 1_555 1_555
C22_6 H12_6 1_555 1_555
H13_6 C22_6 1_555 1_555
H14_6 C22_6 1_555 1_555
C25_6 C22_6 1_555 1_555
H18_6 C25_6 1_555 1_555
C27_6 C8_6 1_555 1_555
H20_6 C27_6 1_555 1_555
C35_6 C8_6 1_555 1_555
C39_6 H33_6 1_555 1_555
C40_6 C18_6 1_555 1_555
C47_6 C35_6 1_555 1_555
N3_6 C64_6 1_555 1_555
N6_6 C40_6 1_555 1_555
C64_6 N6_6 1_555 1_555
C66_6 N3_6 1_555 1_555
H63_6 C66_6 1_555 1_555
C67_6 H64_6 1_555 1_555
C68_6 C67_6 1_555 1_555
H65_6 C68_6 1_555 1_555
H66_6 C68_6 1_555 1_555
H67_6 C68_6 1_555 1_555
C69_6 C67_6 1_555 1_555
H68_6 C69_6 1_555 1_555
H69_6 C69_6 1_555 1_555
H70_6 C69_6 1_555 1_555
C70_6 N6_6 1_555 1_555
H71_6 C70_6 1_555 1_555
C71_6 C25_6 1_555 1_555
H72_6 C71_6 1_555 1_555
H73_6 C71_6 1_555 1_555
H74_6 C71_6 1_555 1_555
Cu2_6 C64_6 1_555 1_555
C82_6 H93_6 1_555 1_555
H94_6 C82_6 1_555 1_555
H95_6 C82_6 1_555 1_555
C83_6 H96_6 1_555 1_555
H97_6 C83_6 1_555 1_555
H98_6 C83_6 1_555 1_555
C94_6 C97_6 1_555 1_555
C95_6 C101_6 1_555 1_555
C101_6 H113_6 1_555 1_555
C103_6 H114_6 1_555 1_555
C105_6 C95_6 1_555 1_555
H116_6 C105_6 1_555 1_555
C107_6 C94_6 1_555 1_555
H117_6 C107_6 1_555 1_555
C109_6 C95_6 1_555 1_555
C116_6 C94_6 1_555 1_555
H122_6 C116_6 1_555 1_555
C117_6 N3_6 1_555 1_555
C118_6 C67_6 1_555 1_555
C121_6 C103_6 1_555 1_555
C122_6 C109_6 1_555 1_555
H125_6 C122_6 1_555 1_555
C123_6 C82_6 1_555 1_555
H126_6 C123_6 1_555 1_555
C3_6 C9_6 1_555 1_555
C18_6 C27_6 1_555 1_555
C39_6 C47_6 1_555 1_555
C40_6 C47_6 1_555 1_555
C66_6 C70_6 1_555 1_555
C83_6 C123_6 1_555 1_555
C101_6 C116_6 1_555 1_555
C103_6 C109_6 1_555 1_555
C105_6 C107_6 1_555 1_555
C117_6 C118_6 1_555 1_555
C117_6 C121_6 1_555 1_555
C118_6 C122_6 1_555 1_555
C121_6 C123_6 1_555 1_555
C64_6 H135_6 1_555 1_555
O2_6 Zn3_6 1_555 1_555
O4_6 Zn6_3 1_555 1_555
O18_3 C106_6 1_555 1_555
O7_6 C7_6 1_555 1_555
O8_6 Zn8_3 1_555 1_555
O9_6 C7_6 1_555 1_555
O20_3 C106_6 1_555 1_555
C1_6 C2_6 1_555 1_555
C2_6 H1_6 1_555 1_555
C5_6 C10_6 1_555 1_555
C6_6 C2_6 1_555 1_555
H3_6 C6_6 1_555 1_555
C7_6 C1_6 1_555 1_555
C10_6 H5_6 1_555 1_555
C11_6 C13_6 1_555 1_555
C12_6 C5_6 1_555 1_555
H6_6 C12_6 1_555 1_555
C13_6 C10_6 1_555 1_555
C15_6 C16_6 1_555 1_555
C21_6 C16_6 1_555 1_555
H11_6 C21_6 1_555 1_555
C24_6 C21_6 1_555 1_555
C26_6 C24_6 1_555 1_555
H19_6 C26_6 1_555 1_555
C28_6 C11_6 1_555 1_555
C29_6 C15_6 1_555 1_555
H21_6 C29_6 1_555 1_555
C30_6 C28_6 1_555 1_555
H22_6 C30_6 1_555 1_555
C33_6 C24_6 1_555 1_555
C34_6 H27_6 1_555 1_555
C36_6 Cu1_6 1_555 1_555
C37_6 C34_6 1_555 1_555
H29_6 C37_6 1_555 1_555
C42_6 C49_6 1_555 1_555
H41_6 C45_6 1_555 1_555
H42_6 C45_6 1_555 1_555
C48_6 C30_6 1_555 1_555
H46_6 C48_6 1_555 1_555
H47_6 C48_6 1_555 1_555
H48_6 C48_6 1_555 1_555
C49_6 C41_6 1_555 1_555
C51_6 C33_6 1_555 1_555
H50_6 C51_6 1_555 1_555
C52_6 C30_6 1_555 1_555
H51_6 C52_6 1_555 1_555
H52_6 C52_6 1_555 1_555
H53_6 C52_6 1_555 1_555
Cu1_6 Br2_6 1_555 1_555
N4_6 C11_6 1_555 1_555
N5_6 C34_6 1_555 1_555
C65_6 C33_6 1_555 1_555
H99_6 C84_6 1_555 1_555
H100_6 C84_6 1_555 1_555
H101_6 C84_6 1_555 1_555
C85_6 H102_6 1_555 1_555
H103_6 C85_6 1_555 1_555
H104_6 C85_6 1_555 1_555
C86_6 H105_6 1_555 1_555
H106_6 C86_6 1_555 1_555
H107_6 C86_6 1_555 1_555
C87_6 C42_6 1_555 1_555
H108_6 C87_6 1_555 1_555
Zn6_3 O7_6 1_555 1_555
Zn8_3 O4_6 1_555 1_555
Zn3_6 O4_6 1_555 1_555
Zn9_2 O4_6 1_555 1_555
C90_6 O2_6 1_555 1_555
C96_6 H112_6 1_555 1_555
C102_6 C106_6 1_555 1_555
C110_6 C96_6 1_555 1_555
H119_6 C110_6 1_555 1_555
C113_6 C5_6 1_555 1_555
C114_6 C113_6 1_555 1_555
H120_6 C114_6 1_555 1_555
C119_6 C102_6 1_555 1_555
H123_6 C119_6 1_555 1_555
O14_6 Zn9_2 1_555 1_555
O15_6 Zn9_2 1_555 1_555
N7_6 C124_6 1_555 1_555
C124_6 O14_6 1_555 1_555
C125_6 N7_6 1_555 1_555
H127_6 C125_6 1_555 1_555
H128_6 C125_6 1_555 1_555
H129_6 C125_6 1_555 1_555
C126_6 N7_6 1_555 1_555
H130_6 C126_6 1_555 1_555
H131_6 C126_6 1_555 1_555
H132_6 C126_6 1_555 1_555
O16_4 Zn6_3 1_555 1_555
O19_4 Zn8_3 1_555 1_555
O8_6 C90_6 1_555 1_555
O9_6 Zn3_6 1_555 1_555
C12_6 C28_6 1_555 1_555
C15_6 C90_6 1_555 1_555
C26_6 C29_6 1_555 1_555
C36_6 N4_6 1_555 1_555
C36_6 N5_6 1_555 1_555
C37_6 N4_6 1_555 1_555
C41_6 C65_6 1_555 1_555
C42_6 C51_6 1_555 1_555
C49_6 N5_6 1_555 1_555
C85_6 C87_6 1_555 1_555
C86_6 C87_6 1_555 1_555
C96_6 C113_6 1_555 1_555
C102_6 C110_6 1_555 1_555
C114_6 C119_6 1_555 1_555
C36_6 H134_6 1_555 1_555
O15_6 H136_6 1_555 1_555
C124_6 H138_6 1_555 1_555
O16_4 C60_6 1_555 1_555
O19_4 C60_6 1_555 1_555
C14_6 H7_6 1_555 1_555
C17_6 N1_6 1_555 1_555
C19_6 C14_6 1_555 1_555
H9_6 C19_6 1_555 1_555
C20_6 H10_6 1_555 1_555
C23_6 C20_6 1_555 1_555
H15_6 C23_6 1_555 1_555
H16_6 C23_6 1_555 1_555
H17_6 C23_6 1_555 1_555
C31_5 H23_5 1_555 1_555
C32_6 H24_6 1_555 1_555
H25_6 C32_6 1_555 1_555
H26_6 C32_6 1_555 1_555
C38_5 H30_5 1_555 1_555
H31_5 C38_5 1_555 1_555
H32_5 C38_5 1_555 1_555
C43_6 C20_6 1_555 1_555
H34_6 C43_6 1_555 1_555
C44_5 C31_5 1_555 1_555
H37_5 C44_5 1_555 1_555
H38_5 C44_5 1_555 1_555
H39_5 C44_5 1_555 1_555
C46_5 H43_5 1_555 1_555
H44_5 C46_5 1_555 1_555
H45_5 C46_5 1_555 1_555
H49_5 C50_5 1_555 1_555
Br1_6 Cu3_6 1_555 1_555
N1_6 C14_6 1_555 1_555
N2_6 C17_6 1_555 1_555
C53_6 C58_6 1_555 1_555
C54_6 C55_6 1_555 1_555
C55_6 H54_6 1_555 1_555
C56_6 H55_6 1_555 1_555
C57_6 C54_6 1_555 1_555
H56_6 C57_6 1_555 1_555
C58_6 H57_6 1_555 1_555
C59_6 C55_6 1_555 1_555
H58_6 C59_6 1_555 1_555
C60_6 C54_6 1_555 1_555
C61_6 C56_6 1_555 1_555
C62_6 N1_6 1_555 1_555
C63_6 C58_6 1_555 1_555
H59_6 C63_6 1_555 1_555
H60_6 C63_6 1_555 1_555
H61_6 C63_6 1_555 1_555
C72_6 C61_6 1_555 1_555
H75_6 C72_6 1_555 1_555
C73_6 C57_6 1_555 1_555
H76_6 C73_6 1_555 1_555
C74_6 C56_6 1_555 1_555
H77_6 C74_6 1_555 1_555
H78_6 C74_6 1_555 1_555
H79_6 C74_6 1_555 1_555
C75_6 C59_6 1_555 1_555
C76_6 C72_6 1_555 1_555
C77_6 C53_6 1_555 1_555
H80_6 C77_6 1_555 1_555
C78_6 C56_6 1_555 1_555
H82_6 C78_6 1_555 1_555
H83_6 C78_6 1_555 1_555
C79_6 C58_6 1_555 1_555
H84_6 C79_6 1_555 1_555
H85_6 C79_6 1_555 1_555
H86_6 C79_6 1_555 1_555
C80_6 H87_6 1_555 1_555
H88_6 C80_6 1_555 1_555
H89_6 C80_6 1_555 1_555
C81_5 C31_5 1_555 1_555
H90_5 C81_5 1_555 1_555
H91_5 C81_5 1_555 1_555
H92_5 C81_5 1_555 1_555
Cu3_6 C17_6 1_555 1_555
C88_6 H109_6 1_555 1_555
C89_6 C93_6 1_555 1_555
C91_6 H110_6 1_555 1_555
C92_6 O1_6 1_555 1_555
C93_6 H111_6 1_555 1_555
C98_6 C88_6 1_555 1_555
C99_6 C89_6 1_555 1_555
C100_6 C104_6 1_555 1_555
C104_6 C89_6 1_555 1_555
H115_6 C104_6 1_555 1_555
C108_6 C91_6 1_555 1_555
H118_6 C108_6 1_555 1_555
C111_6 C20_6 1_555 1_555
C112_6 N2_6 1_555 1_555
C115_6 C88_6 1_555 1_555
H121_6 C115_6 1_555 1_555
C120_6 C32_6 1_555 1_555
H124_6 C120_6 1_555 1_555
O11_6 C92_6 1_555 1_555
C19_6 N2_6 1_555 1_555
C38_5 C50_5 1_555 1_555
C46_5 C50_5 1_555 1_555
C53_6 C62_6 1_555 1_555
C61_6 C62_6 1_555 1_555
C73_6 C75_6 1_555 1_555
C75_6 C76_6 1_555 1_555
C76_6 C77_6 1_555 1_555
C80_6 C120_6 1_555 1_555
C91_6 C98_6 1_555 1_555
C92_6 C98_6 1_555 1_555
C93_6 C111_6 1_555 1_555
C99_6 C108_6 1_555 1_555
C99_6 C115_6 1_555 1_555
C100_6 C112_6 1_555 1_555
C100_6 C120_6 1_555 1_555
C111_6 C112_6 1_555 1_555
C17_6 H133_6 1_555 1_555
C31_6 H23_6 1_555 1_555
C38_6 H30_6 1_555 1_555
H31_6 C38_6 1_555 1_555
H32_6 C38_6 1_555 1_555
C44_6 C31_6 1_555 1_555
H37_6 C44_6 1_555 1_555
H38_6 C44_6 1_555 1_555
H39_6 C44_6 1_555 1_555
C46_6 H43_6 1_555 1_555
H44_6 C46_6 1_555 1_555
H45_6 C46_6 1_555 1_555
H49_6 C50_6 1_555 1_555
C81_6 C31_6 1_555 1_555
H90_6 C81_6 1_555 1_555
H91_6 C81_6 1_555 1_555
H92_6 C81_6 1_555 1_555
C38_6 C50_6 1_555 1_555
C46_6 C50_6 1_555 1_555
O6_4 C106_7 1_555 1_555
O12_4 C106_7 1_555 1_555
Zn6_4 O6_4 1_555 1_555
Zn10_2 O12_4 1_555 1_555
O5_4 C97_7 1_555 1_555
O13_4 C97_7 1_555 1_555
C5_7 C10_7 1_555 1_555
C10_7 H5_7 1_555 1_555
C11_7 C13_7 1_555 1_555
C12_7 C5_7 1_555 1_555
H6_7 C12_7 1_555 1_555
C13_7 C10_7 1_555 1_555
C28_7 C11_7 1_555 1_555
C30_7 C28_7 1_555 1_555
H22_7 C30_7 1_555 1_555
C31_7 H23_7 1_555 1_555
C34_7 H27_7 1_555 1_555
C36_7 Cu1_7 1_555 1_555
C37_7 C34_7 1_555 1_555
H29_7 C37_7 1_555 1_555
C38_7 H30_7 1_555 1_555
H31_7 C38_7 1_555 1_555
H32_7 C38_7 1_555 1_555
C39_7 H33_7 1_555 1_555
C41_7 C31_7 1_555 1_555
C42_7 C49_7 1_555 1_555
C44_7 C31_7 1_555 1_555
H37_7 C44_7 1_555 1_555
H38_7 C44_7 1_555 1_555
H39_7 C44_7 1_555 1_555
C45_7 C39_7 1_555 1_555
H40_7 C45_7 1_555 1_555
H41_7 C45_7 1_555 1_555
H42_7 C45_7 1_555 1_555
C46_7 H43_7 1_555 1_555
H44_7 C46_7 1_555 1_555
H45_7 C46_7 1_555 1_555
C48_7 C30_7 1_555 1_555
H46_7 C48_7 1_555 1_555
H47_7 C48_7 1_555 1_555
H48_7 C48_7 1_555 1_555
C49_7 C41_7 1_555 1_555
C50_7 C13_7 1_555 1_555
H49_7 C50_7 1_555 1_555
C52_7 C30_7 1_555 1_555
H51_7 C52_7 1_555 1_555
H52_7 C52_7 1_555 1_555
H53_7 C52_7 1_555 1_555
Cu1_7 Br2_7 1_555 1_555
N3_7 C64_7 1_555 1_555
N4_7 C11_7 1_555 1_555
N5_7 C34_7 1_555 1_555
C64_7 N6_7 1_555 1_555
C66_7 N3_7 1_555 1_555
H63_7 C66_7 1_555 1_555
C67_7 H64_7 1_555 1_555
C68_7 C67_7 1_555 1_555
H65_7 C68_7 1_555 1_555
H66_7 C68_7 1_555 1_555
H67_7 C68_7 1_555 1_555
C69_7 C67_7 1_555 1_555
H68_7 C69_7 1_555 1_555
H69_7 C69_7 1_555 1_555
H70_7 C69_7 1_555 1_555
C70_7 N6_7 1_555 1_555
H71_7 C70_7 1_555 1_555
Cu2_7 C64_7 1_555 1_555
C81_7 C31_7 1_555 1_555
H90_7 C81_7 1_555 1_555
H91_7 C81_7 1_555 1_555
H92_7 C81_7 1_555 1_555
C82_7 H93_7 1_555 1_555
H94_7 C82_7 1_555 1_555
H95_7 C82_7 1_555 1_555
C83_7 H96_7 1_555 1_555
H97_7 C83_7 1_555 1_555
H98_7 C83_7 1_555 1_555
Br3_6 Cu2_7 1_555 1_555
C84_7 C39_7 1_555 1_555
H99_7 C84_7 1_555 1_555
H100_7 C84_7 1_555 1_555
H101_7 C84_7 1_555 1_555
C85_7 H102_7 1_555 1_555
H104_7 C85_7 1_555 1_555
C87_7 C42_7 1_555 1_555
H108_7 C87_7 1_555 1_555
C94_7 C97_7 1_555 1_555
C95_7 C101_7 1_555 1_555
C96_7 H112_7 1_555 1_555
C101_7 H113_7 1_555 1_555
C103_7 H114_7 1_555 1_555
C105_7 C95_7 1_555 1_555
H116_7 C105_7 1_555 1_555
C107_7 C94_7 1_555 1_555
H117_7 C107_7 1_555 1_555
C109_7 C95_7 1_555 1_555
C110_7 C96_7 1_555 1_555
C113_7 C5_7 1_555 1_555
C114_7 C113_7 1_555 1_555
H120_7 C114_7 1_555 1_555
C116_7 C94_7 1_555 1_555
H122_7 C116_7 1_555 1_555
C117_7 N3_7 1_555 1_555
C118_7 C67_7 1_555 1_555
C119_7 C102_7 1_555 1_555
H123_7 C119_7 1_555 1_555
C121_7 C103_7 1_555 1_555
C122_7 C109_7 1_555 1_555
H125_7 C122_7 1_555 1_555
C123_7 C82_7 1_555 1_555
H126_7 C123_7 1_555 1_555
Zn8_4 O5_4 1_555 1_555
Zn10_2 O13_4 1_555 1_555
C12_7 C28_7 1_555 1_555
C36_7 N4_7 1_555 1_555
C36_7 N5_7 1_555 1_555
C37_7 N4_7 1_555 1_555
C38_7 C50_7 1_555 1_555
C46_7 C50_7 1_555 1_555
C49_7 N5_7 1_555 1_555
C66_7 C70_7 1_555 1_555
C83_7 C123_7 1_555 1_555
C85_7 C87_7 1_555 1_555
C96_7 C113_7 1_555 1_555
C101_7 C116_7 1_555 1_555
C102_7 C110_7 1_555 1_555
C103_7 C109_7 1_555 1_555
C105_7 C107_7 1_555 1_555
C114_7 C119_7 1_555 1_555
C117_7 C118_7 1_555 1_555
C117_7 C121_7 1_555 1_555
C118_7 C122_7 1_555 1_555
C121_7 C123_7 1_555 1_555
C36_7 H134_7 1_555 1_555
C64_7 H135_7 1_555 1_555
O3_3 C60_7 1_555 1_555
O10_3 C60_7 1_555 1_555
C53_7 C58_7 1_555 1_555
C54_7 C55_7 1_555 1_555
C55_7 H54_7 1_555 1_555
C57_7 C54_7 1_555 1_555
H56_7 C57_7 1_555 1_555
C58_7 H57_7 1_555 1_555
C59_7 C55_7 1_555 1_555
H58_7 C59_7 1_555 1_555
C60_7 C54_7 1_555 1_555
C63_7 C58_7 1_555 1_555
H59_7 C63_7 1_555 1_555
H60_7 C63_7 1_555 1_555
C72_7 C61_7 1_555 1_555
H75_7 C72_7 1_555 1_555
C73_7 C57_7 1_555 1_555
H76_7 C73_7 1_555 1_555
C75_7 C59_7 1_555 1_555
C76_7 C72_7 1_555 1_555
C77_7 C53_7 1_555 1_555
H80_7 C77_7 1_555 1_555
C79_7 C58_7 1_555 1_555
H84_7 C79_7 1_555 1_555
H85_7 C79_7 1_555 1_555
H86_7 C79_7 1_555 1_555
Zn5_2 O3_3 1_555 1_555
Zn7_2 O10_3 1_555 1_555
C53_7 C62_7 1_555 1_555
C61_7 C62_7 1_555 1_555
C73_7 C75_7 1_555 1_555
C75_7 C76_7 1_555 1_555
C76_7 C77_7 1_555 1_555
O1_7 Zn3_7 1_555 1_555
O2_7 Zn3_7 1_555 1_555
O4_7 Zn5_2 1_555 1_555
O7_7 C7_7 1_555 1_555
O8_7 Zn7_2 1_555 1_555
O9_7 C7_7 1_555 1_555
O11_7 Zn4_4 1_555 1_555
C1_7 C2_7 1_555 1_555
C2_7 H1_7 1_555 1_555
C3_7 H2_7 1_555 1_555
C4_7 C3_7 1_555 1_555
C6_7 C2_7 1_555 1_555
H3_7 C6_7 1_555 1_555
C7_7 C1_7 1_555 1_555
C8_7 C4_7 1_555 1_555
C9_7 C1_7 1_555 1_555
H4_7 C9_7 1_555 1_555
C14_7 H7_7 1_555 1_555
C15_7 C16_7 1_555 1_555
C16_7 H8_7 1_555 1_555
C17_7 N1_7 1_555 1_555
C18_7 C25_7 1_555 1_555
C19_7 C14_7 1_555 1_555
H9_7 C19_7 1_555 1_555
C20_7 H10_7 1_555 1_555
C21_7 C16_7 1_555 1_555
H11_7 C21_7 1_555 1_555
C22_7 H12_7 1_555 1_555
H13_7 C22_7 1_555 1_555
H14_7 C22_7 1_555 1_555
C23_7 C20_7 1_555 1_555
H15_7 C23_7 1_555 1_555
H16_7 C23_7 1_555 1_555
H17_7 C23_7 1_555 1_555
C24_7 C21_7 1_555 1_555
C25_7 C22_7 1_555 1_555
H18_7 C25_7 1_555 1_555
C26_7 C24_7 1_555 1_555
H19_7 C26_7 1_555 1_555
C27_7 C8_7 1_555 1_555
H20_7 C27_7 1_555 1_555
C29_7 C15_7 1_555 1_555
H21_7 C29_7 1_555 1_555
C32_7 H24_7 1_555 1_555
H25_7 C32_7 1_555 1_555
H26_7 C32_7 1_555 1_555
C33_7 C24_7 1_555 1_555
C35_7 C8_7 1_555 1_555
H28_7 C35_7 1_555 1_555
C40_7 C18_7 1_555 1_555
C43_7 C20_7 1_555 1_555
H34_7 C43_7 1_555 1_555
H35_6 C43_7 1_555 1_555
H36_6 C43_7 1_555 1_555
C47_7 C35_7 1_555 1_555
C51_7 C33_7 1_555 1_555
H50_7 C51_7 1_555 1_555
Br1_7 Cu3_7 1_555 1_555
N1_7 C14_7 1_555 1_555
N2_7 C17_7 1_555 1_555
C56_7 H55_7 1_555 1_555
C65_7 C33_7 1_555 1_555
H62_7 C65_7 1_555 1_555
C71_7 C25_7 1_555 1_555
H72_7 C71_7 1_555 1_555
H73_7 C71_7 1_555 1_555
H74_7 C71_7 1_555 1_555
C74_7 C56_7 1_555 1_555
H77_7 C74_7 1_555 1_555
H78_7 C74_7 1_555 1_555
C78_7 C56_7 1_555 1_555
H81_6 C78_7 1_555 1_555
H83_7 C78_7 1_555 1_555
C80_7 H87_7 1_555 1_555
H88_7 C80_7 1_555 1_555
H89_7 C80_7 1_555 1_555
C86_7 H105_7 1_555 1_555
H107_7 C86_7 1_555 1_555
Zn5_2 O7_7 1_555 1_555
Zn7_2 O4_7 1_555 1_555
Zn3_7 O4_7 1_555 1_555
Zn4_4 O4_7 1_555 1_555
Cu3_7 C17_7 1_555 1_555
C88_7 H109_7 1_555 1_555
C89_7 C93_7 1_555 1_555
C90_7 O2_7 1_555 1_555
C91_7 H110_7 1_555 1_555
C92_7 O1_7 1_555 1_555
C93_7 H111_7 1_555 1_555
C98_7 C88_7 1_555 1_555
C99_7 C89_7 1_555 1_555
C100_7 C104_7 1_555 1_555
C104_7 C89_7 1_555 1_555
H115_7 C104_7 1_555 1_555
C108_7 C91_7 1_555 1_555
H118_7 C108_7 1_555 1_555
C111_7 C20_7 1_555 1_555
C112_7 N2_7 1_555 1_555
C115_7 C88_7 1_555 1_555
H121_7 C115_7 1_555 1_555
C120_7 C32_7 1_555 1_555
H124_7 C120_7 1_555 1_555
O14_7 Zn4_4 1_555 1_555
O15_7 Zn4_4 1_555 1_555
N7_7 C124_7 1_555 1_555
C124_7 O14_7 1_555 1_555
C125_7 N7_7 1_555 1_555
H127_7 C125_7 1_555 1_555
H128_7 C125_7 1_555 1_555
H129_7 C125_7 1_555 1_555
C126_7 N7_7 1_555 1_555
H130_7 C126_7 1_555 1_555
H131_7 C126_7 1_555 1_555
H132_7 C126_7 1_555 1_555
O17_4 Zn7_2 1_555 1_555
O18_4 Zn5_2 1_555 1_555
O20_4 Zn4_4 1_555 1_555
O21_4 Zn4_4 1_555 1_555
O8_7 C90_7 1_555 1_555
O9_7 Zn3_7 1_555 1_555
O11_7 C92_7 1_555 1_555
C3_7 C9_7 1_555 1_555
C4_7 C6_7 1_555 1_555
C15_7 C90_7 1_555 1_555
C18_7 C27_7 1_555 1_555
C19_7 N2_7 1_555 1_555
C26_7 C29_7 1_555 1_555
C40_7 C47_7 1_555 1_555
C80_7 C120_7 1_555 1_555
C91_7 C98_7 1_555 1_555
C92_7 C98_7 1_555 1_555
C93_7 C111_7 1_555 1_555
C99_7 C108_7 1_555 1_555
C99_7 C115_7 1_555 1_555
C100_7 C112_7 1_555 1_555
C100_7 C120_7 1_555 1_555
C111_7 C112_7 1_555 1_555
C17_7 H133_7 1_555 1_555
O15_7 H136_7 1_555 1_555
O15_7 H137_7 1_555 1_555
C124_7 H138_7 1_555 1_555
O3_4 C60_8 1_555 1_555
O10_4 C60_8 1_555 1_555
C53_8 C58_8 1_555 1_555
C54_8 C55_8 1_555 1_555
C55_8 H54_8 1_555 1_555
C57_8 C54_8 1_555 1_555
H56_8 C57_8 1_555 1_555
C58_8 H57_8 1_555 1_555
C59_8 C55_8 1_555 1_555
H58_8 C59_8 1_555 1_555
C60_8 C54_8 1_555 1_555
C63_8 C58_8 1_555 1_555
H59_8 C63_8 1_555 1_555
H60_8 C63_8 1_555 1_555
C72_8 C61_8 1_555 1_555
H75_8 C72_8 1_555 1_555
C73_8 C57_8 1_555 1_555
H76_8 C73_8 1_555 1_555
C75_8 C59_8 1_555 1_555
C76_8 C72_8 1_555 1_555
C77_8 C53_8 1_555 1_555
H80_8 C77_8 1_555 1_555
C79_8 C58_8 1_555 1_555
H84_8 C79_8 1_555 1_555
H85_8 C79_8 1_555 1_555
H86_8 C79_8 1_555 1_555
Zn6_4 O3_4 1_555 1_555
Zn8_4 O10_4 1_555 1_555
C53_8 C62_8 1_555 1_555
C61_8 C62_8 1_555 1_555
C73_8 C75_8 1_555 1_555
C75_8 C76_8 1_555 1_555
C76_8 C77_8 1_555 1_555
O1_8 Zn3_8 1_555 1_555
O2_8 Zn3_8 1_555 1_555
O4_8 Zn6_4 1_555 1_555
O18_4 C106_8 1_555 1_555
O7_8 C7_8 1_555 1_555
O8_8 Zn8_4 1_555 1_555
O9_8 C7_8 1_555 1_555
O11_8 Zn10_2 1_555 1_555
O20_4 C106_8 1_555 1_555
C1_8 C2_8 1_555 1_555
C2_8 H1_8 1_555 1_555
C5_8 C10_8 1_555 1_555
C6_8 C2_8 1_555 1_555
H3_8 C6_8 1_555 1_555
C7_8 C1_8 1_555 1_555
C10_8 H5_8 1_555 1_555
C11_8 C13_8 1_555 1_555
C12_8 C5_8 1_555 1_555
H6_8 C12_8 1_555 1_555
C13_8 C10_8 1_555 1_555
C14_8 H7_8 1_555 1_555
C15_8 C16_8 1_555 1_555
C16_8 H8_8 1_555 1_555
C17_8 N1_8 1_555 1_555
C19_8 C14_8 1_555 1_555
H9_8 C19_8 1_555 1_555
C20_8 H10_8 1_555 1_555
C21_8 C16_8 1_555 1_555
H11_8 C21_8 1_555 1_555
C23_8 C20_8 1_555 1_555
H15_8 C23_8 1_555 1_555
H16_8 C23_8 1_555 1_555
H17_8 C23_8 1_555 1_555
C24_8 C21_8 1_555 1_555
C26_8 C24_8 1_555 1_555
H19_8 C26_8 1_555 1_555
C28_8 C11_8 1_555 1_555
C29_8 C15_8 1_555 1_555
H21_8 C29_8 1_555 1_555
C30_8 C28_8 1_555 1_555
H22_8 C30_8 1_555 1_555
C31_8 H23_8 1_555 1_555
C32_8 H24_8 1_555 1_555
H25_8 C32_8 1_555 1_555
H26_8 C32_8 1_555 1_555
C33_8 C24_8 1_555 1_555
C34_8 H27_8 1_555 1_555
C36_8 Cu1_8 1_555 1_555
C37_8 C34_8 1_555 1_555
H29_8 C37_8 1_555 1_555
C38_8 H30_8 1_555 1_555
H31_8 C38_8 1_555 1_555
H32_8 C38_8 1_555 1_555
C41_8 C31_8 1_555 1_555
C42_8 C49_8 1_555 1_555
C43_8 C20_8 1_555 1_555
H34_8 C43_8 1_555 1_555
C44_8 C31_8 1_555 1_555
H37_8 C44_8 1_555 1_555
H38_8 C44_8 1_555 1_555
H39_8 C44_8 1_555 1_555
H41_8 C45_8 1_555 1_555
H42_8 C45_8 1_555 1_555
C46_8 H43_8 1_555 1_555
H44_8 C46_8 1_555 1_555
H45_8 C46_8 1_555 1_555
C48_8 C30_8 1_555 1_555
H46_8 C48_8 1_555 1_555
H47_8 C48_8 1_555 1_555
H48_8 C48_8 1_555 1_555
C49_8 C41_8 1_555 1_555
C50_8 C13_8 1_555 1_555
H49_8 C50_8 1_555 1_555
C51_8 C33_8 1_555 1_555
H50_8 C51_8 1_555 1_555
C52_8 C30_8 1_555 1_555
H51_8 C52_8 1_555 1_555
H52_8 C52_8 1_555 1_555
H53_8 C52_8 1_555 1_555
Br1_8 Cu3_8 1_555 1_555
Cu1_8 Br2_8 1_555 1_555
N1_8 C14_8 1_555 1_555
N2_8 C17_8 1_555 1_555
C56_8 H55_8 1_555 1_555
N4_8 C11_8 1_555 1_555
N5_8 C34_8 1_555 1_555
C65_8 C33_8 1_555 1_555
H62_8 C65_8 1_555 1_555
C74_8 C56_8 1_555 1_555
H77_8 C74_8 1_555 1_555
H78_8 C74_8 1_555 1_555
C78_8 C56_8 1_555 1_555
H83_8 C78_8 1_555 1_555
C80_8 H87_8 1_555 1_555
H88_8 C80_8 1_555 1_555
H89_8 C80_8 1_555 1_555
C81_8 C31_8 1_555 1_555
H90_8 C81_8 1_555 1_555
H91_8 C81_8 1_555 1_555
H92_8 C81_8 1_555 1_555
H99_8 C84_8 1_555 1_555
H100_8 C84_8 1_555 1_555
H101_8 C84_8 1_555 1_555
C85_8 H102_8 1_555 1_555
H103_8 C85_8 1_555 1_555
H104_8 C85_8 1_555 1_555
C86_8 H105_8 1_555 1_555
H106_8 C86_8 1_555 1_555
H107_8 C86_8 1_555 1_555
C87_8 C42_8 1_555 1_555
H108_8 C87_8 1_555 1_555
Zn6_4 O7_8 1_555 1_555
Zn8_4 O4_8 1_555 1_555
Zn3_8 O4_8 1_555 1_555
Zn10_2 O4_8 1_555 1_555
Cu3_8 C17_8 1_555 1_555
C88_8 H109_8 1_555 1_555
C89_8 C93_8 1_555 1_555
C90_8 O2_8 1_555 1_555
C91_8 H110_8 1_555 1_555
C92_8 O1_8 1_555 1_555
C93_8 H111_8 1_555 1_555
C96_8 H112_8 1_555 1_555
C98_8 C88_8 1_555 1_555
C99_8 C89_8 1_555 1_555
C100_8 C104_8 1_555 1_555
C102_8 C106_8 1_555 1_555
C104_8 C89_8 1_555 1_555
H115_8 C104_8 1_555 1_555
C108_8 C91_8 1_555 1_555
H118_8 C108_8 1_555 1_555
C110_8 C96_8 1_555 1_555
H119_8 C110_8 1_555 1_555
C111_8 C20_8 1_555 1_555
C112_8 N2_8 1_555 1_555
C113_8 C5_8 1_555 1_555
C114_8 C113_8 1_555 1_555
H120_8 C114_8 1_555 1_555
C115_8 C88_8 1_555 1_555
H121_8 C115_8 1_555 1_555
C119_8 C102_8 1_555 1_555
H123_8 C119_8 1_555 1_555
C120_8 C32_8 1_555 1_555
H124_8 C120_8 1_555 1_555
O14_8 Zn10_2 1_555 1_555
O15_8 Zn10_2 1_555 1_555
N7_8 C124_8 1_555 1_555
C124_8 O14_8 1_555 1_555
C125_8 N7_8 1_555 1_555
H127_8 C125_8 1_555 1_555
H128_8 C125_8 1_555 1_555
H129_8 C125_8 1_555 1_555
C126_8 N7_8 1_555 1_555
H130_8 C126_8 1_555 1_555
H131_8 C126_8 1_555 1_555
H132_8 C126_8 1_555 1_555
O8_8 C90_8 1_555 1_555
O9_8 Zn3_8 1_555 1_555
O11_8 C92_8 1_555 1_555
C12_8 C28_8 1_555 1_555
C15_8 C90_8 1_555 1_555
C19_8 N2_8 1_555 1_555
C26_8 C29_8 1_555 1_555
C36_8 N4_8 1_555 1_555
C36_8 N5_8 1_555 1_555
C37_8 N4_8 1_555 1_555
C38_8 C50_8 1_555 1_555
C41_8 C65_8 1_555 1_555
C42_8 C51_8 1_555 1_555
C46_8 C50_8 1_555 1_555
C49_8 N5_8 1_555 1_555
C80_8 C120_8 1_555 1_555
C85_8 C87_8 1_555 1_555
C86_8 C87_8 1_555 1_555
C91_8 C98_8 1_555 1_555
C92_8 C98_8 1_555 1_555
C93_8 C111_8 1_555 1_555
C96_8 C113_8 1_555 1_555
C99_8 C108_8 1_555 1_555
C99_8 C115_8 1_555 1_555
C100_8 C112_8 1_555 1_555
C100_8 C120_8 1_555 1_555
C102_8 C110_8 1_555 1_555
C111_8 C112_8 1_555 1_555
C114_8 C119_8 1_555 1_555
C17_8 H133_8 1_555 1_555
C36_8 H134_8 1_555 1_555
O15_8 H136_8 1_555 1_555
O15_8 H137_8 1_555 1_555
C124_8 H138_8 1_555 1_555
O17_4 C97_8 1_555 1_555
O21_4 C97_8 1_555 1_555
C3_8 H2_8 1_555 1_555
C4_8 C3_8 1_555 1_555
C8_8 C4_8 1_555 1_555
H4_8 C9_8 1_555 1_555
C18_8 C25_8 1_555 1_555
C22_8 H12_8 1_555 1_555
H13_8 C22_8 1_555 1_555
H14_8 C22_8 1_555 1_555
C25_8 C22_8 1_555 1_555
H18_8 C25_8 1_555 1_555
C27_8 C8_8 1_555 1_555
H20_8 C27_8 1_555 1_555
C35_8 C8_8 1_555 1_555
C39_8 H33_8 1_555 1_555
C40_8 C18_8 1_555 1_555
C47_8 C35_8 1_555 1_555
N3_8 C64_8 1_555 1_555
N6_8 C40_8 1_555 1_555
C64_8 N6_8 1_555 1_555
C66_8 N3_8 1_555 1_555
H63_8 C66_8 1_555 1_555
C67_8 H64_8 1_555 1_555
C68_8 C67_8 1_555 1_555
H65_8 C68_8 1_555 1_555
H66_8 C68_8 1_555 1_555
H67_8 C68_8 1_555 1_555
C69_8 C67_8 1_555 1_555
H68_8 C69_8 1_555 1_555
H69_8 C69_8 1_555 1_555
H70_8 C69_8 1_555 1_555
C70_8 N6_8 1_555 1_555
H71_8 C70_8 1_555 1_555
C71_8 C25_8 1_555 1_555
H72_8 C71_8 1_555 1_555
H73_8 C71_8 1_555 1_555
H74_8 C71_8 1_555 1_555
Cu2_8 C64_8 1_555 1_555
C82_8 H93_8 1_555 1_555
H94_8 C82_8 1_555 1_555
H95_8 C82_8 1_555 1_555
C83_8 H96_8 1_555 1_555
H97_8 C83_8 1_555 1_555
H98_8 C83_8 1_555 1_555
Br3_7 Cu2_8 1_555 1_555
C94_8 C97_8 1_555 1_555
C95_8 C101_8 1_555 1_555
C101_8 H113_8 1_555 1_555
C103_8 H114_8 1_555 1_555
C105_8 C95_8 1_555 1_555
H116_8 C105_8 1_555 1_555
C107_8 C94_8 1_555 1_555
H117_8 C107_8 1_555 1_555
C109_8 C95_8 1_555 1_555
C116_8 C94_8 1_555 1_555
H122_8 C116_8 1_555 1_555
C117_8 N3_8 1_555 1_555
C118_8 C67_8 1_555 1_555
C121_8 C103_8 1_555 1_555
C122_8 C109_8 1_555 1_555
H125_8 C122_8 1_555 1_555
C123_8 C82_8 1_555 1_555
H126_8 C123_8 1_555 1_555
C3_8 C9_8 1_555 1_555
C18_8 C27_8 1_555 1_555
C39_8 C47_8 1_555 1_555
C40_8 C47_8 1_555 1_555
C66_8 C70_8 1_555 1_555
C83_8 C123_8 1_555 1_555
C101_8 C116_8 1_555 1_555
C103_8 C109_8 1_555 1_555
C105_8 C107_8 1_555 1_555
C117_8 C118_8 1_555 1_555
C117_8 C121_8 1_555 1_555
C118_8 C122_8 1_555 1_555
C121_8 C123_8 1_555 1_555
C64_8 H135_8 1_555 1_555

#END
