
###############################################################################
#
# This file contains modified crystal structure data generated from the
# MOF subset of the Cambridge Structural Database (CSD) v543 
# hosted by the Cambridge Crystallographic Data Centre (CCDC).
#
# This work is licensed under the Creative Commons
# Attribution-NonCommercial-ShareAlike 4.0 International License.
# To view a copy of this license, visit
# http://creativecommons.org/licenses/by-nc-sa/4.0/
# or send a letter to
# Creative Commons, PO Box 1866, Mountain View, CA 94042, USA.
#
# CIF created using the CSD Python API on 29 September 2022
# The structure has been converted into the P1 space group
# The structure has a 3D framework
# The original CSD entry NAPJUN is in the monoclinic crystal system
# The framework has been calculated to contain at least 10.0% void space
# The void calculation uses a probe of radius 1.32A, grid spacing 0.4
# H atom positions have been added when not included in the experimental data
#
###############################################################################

data_NAPJUN
_chemical_formula_moiety         '(C984 H1032 Au24 Cl24 N56 O128 Zn32)n'
_symmetry_cell_setting           triclinic
_symmetry_space_group_name_H-M   'P 1'
_symmetry_Int_Tables_number      1
_space_group_name_Hall           'P 1'
loop_
_symmetry_equiv_pos_site_id
_symmetry_equiv_pos_as_xyz
1 x,y,z
_cell_length_a                   31.303(6)
_cell_length_b                   46.242(9)
_cell_length_c                   28.703(6)
_cell_angle_alpha                90
_cell_angle_beta                 101.08(3)
_cell_angle_gamma                90
_cell_volume                     40773.5
loop_
_atom_site_label
_atom_site_type_symbol
_atom_site_fract_x
_atom_site_fract_y
_atom_site_fract_z
C4 C 0.3389(3) 0.61651(15) 0.3800(3)
C7 C 0.4911(4) 0.02305(17) 0.3889(4)
H3 H 0.473664 0.040627 0.377208
C8 C 0.3731(3) 0.63572(15) 0.3807(3)
H4 H 0.381170 0.641277 0.351721
C9 C 0.3381(3) 0.61184(19) 0.5138(4)
C11 C 0.2486(4) 0.52020(16) 0.4330(4)
C13 C 0.3840(3) 0.63877(15) 0.4669(3)
H6 H 0.399672 0.646462 0.495865
C14 C 0.3280(3) 0.60940(15) 0.4249(3)
C15 C 0.2533(4) 0.50880(15) 0.4789(4)
C17 C 0.3955(3) 0.64690(15) 0.4233(3)
C18 C 0.5320(5) 0.0223(2) 0.3643(5)
H10 H 0.549934 0.039487 0.373478
H11 H 0.549193 0.004888 0.374327
H12 H 0.522299 0.022015 0.329716
C19 C 0.5073(4) 0.02664(19) 0.4417(4)
H13 H 0.525759 0.043865 0.447469
H14 H 0.482396 0.028816 0.457537
H15 H 0.524176 0.009553 0.454210
C21 C 0.3505(3) 0.62003(16) 0.4676(3)
C24 C 0.2378(4) 0.50384(19) 0.3939(4)
C25 C 0.2278(4) 0.47520(18) 0.3985(4)
H19 H 0.218816 0.463772 0.370900
C28 C 0.4292(3) 0.1330(2) 0.3351(3)
H22 H 0.460691 0.133623 0.336457
H23 H 0.415080 0.122958 0.306146
H24 H 0.417860 0.152786 0.334847
C29 C 0.3146(3) 0.60418(17) 0.3338(3)
C30 C 0.3224(4) 0.6382(2) 0.5355(4)
H25 H 0.299156 0.647383 0.512528
H26 H 0.311095 0.632667 0.563850
H27 H 0.346556 0.651796 0.544481
C31 C 0.2276(4) 0.57205(17) 0.4262(4)
H28 H 0.197550 0.569938 0.426900
C32 C 0.2495(3) 0.59724(16) 0.4230(4)
H29 H 0.237559 0.616180 0.420462
C33 C 0.2958(4) 0.6289(2) 0.3004(4)
H30 H 0.276595 0.640803 0.315724
H31 H 0.319596 0.640794 0.293265
H32 H 0.279142 0.620771 0.270875
C34 C 0.3440(4) 0.5854(2) 0.3124(4)
H33 H 0.328061 0.577421 0.282374
H34 H 0.368778 0.596773 0.306326
H35 H 0.354603 0.569524 0.334197
C36 C 0.2533(4) 0.0491(2) 0.3791(4)
H37 H 0.237207 0.031706 0.366667
H38 H 0.274751 0.044124 0.407611
H39 H 0.233017 0.063535 0.387213
C39 C 0.2785(6) 0.4961(3) 0.3174(5)
H43 H 0.307846 0.495070 0.336884
H44 H 0.266280 0.476572 0.312630
H45 H 0.279992 0.504714 0.286563
C40 C 0.2503(5) 0.5142(2) 0.3419(4)
H46 H 0.261396 0.534544 0.344554
O1 O 0.18803(17) 0.23393(12) 0.47422(15)
C43 C 0.2698(5) 0.5271(2) 0.5249(4)
H51 H 0.273441 0.547780 0.516186
C44 C 0.2423(6) 0.5254(3) 0.5599(5)
H52 H 0.254669 0.537327 0.587392
H53 H 0.213092 0.532435 0.546018
H54 H 0.240500 0.505257 0.569955
C45 C 0.3736(4) 0.5959(3) 0.5456(4)
H55 H 0.382016 0.579014 0.528821
H56 H 0.398788 0.608686 0.554727
H57 H 0.363327 0.589556 0.574096
C46 C 0.3159(5) 0.5135(3) 0.5471(5)
H58 H 0.334994 0.514467 0.523750
H59 H 0.329060 0.524306 0.575581
H60 H 0.312121 0.493222 0.555532
C47 C 0.2114(5) 0.5130(3) 0.3096(5)
H61 H 0.189311 0.524301 0.321474
H62 H 0.215539 0.520971 0.279099
H63 H 0.201826 0.492829 0.305167
O2 O 0.1212(3) 0.21836(16) 0.3981(3)
O3 O 0.1274(3) 0.19333(14) 0.4905(4)
O4 O 0.1097(4) 0.1666(2) 0.4048(4)
N1 N 0.1147(4) 0.1891(2) 0.4323(5)
Zn1 Zn 0.16850(2) 0.28737(2) 0.40999(2)
Zn2 Zn 0.06594(2) 0.28060(2) 0.38975(2)
Zn3 Zn 0.12424(2) 0.24111(2) 0.46970(2)
Zn4 Zn 0.11317(2) 0.30812(2) 0.48462(2)
O7 O 0.14986(13) 0.28944(9) 0.34100(12)
O8 O 0.15821(13) 0.33754(7) 0.48819(11)
O9 O 0.11819(9) 0.27949(6) 0.43762(9)
O10 O 0.07569(13) 0.28420(8) 0.32548(10)
O12 O 0.52722(12) 0.74781(8) 0.38985(12)
C52 C 0.07461(18) 0.27831(14) 0.18129(15)
H74 H 0.048088 0.277878 0.158711
C53 C 0.11337(19) 0.28653(12) 0.31390(15)
C55 C 0.07372(19) 0.28244(13) 0.22875(15)
H76 H 0.046747 0.284166 0.239055
C56 C 0.18126(18) 0.34301(9) 0.45765(16)
O14 O 0.19142(12) 0.32569(7) 0.42791(12)
C57 C 0.14617(18) 0.23735(14) 0.06076(14)
C59 C 0.4280(2) 0.68832(15) 0.3872(2)
H78 H 0.402595 0.688889 0.363054
O15 O 0.21393(13) 0.25890(8) 0.42096(16)
C61 C 0.28061(18) 0.16205(12) 0.4100(2)
C62 C 0.1535(2) 0.27764(16) 0.19927(17)
H79 H 0.180521 0.276596 0.188964
C63 C 0.1788(2) 0.21523(16) 0.05031(18)
H80 H 0.163031 0.201846 0.025442
C64 C 0.27015(19) 0.21335(12) 0.4117(2)
H81 H 0.278302 0.232216 0.403557
C66 C 0.11518(18) 0.26686(14) 0.11612(14)
O16 O 0.56373(16) 0.72916(11) 0.45767(15)
C67 C 0.08369(19) 0.26953(14) 0.03219(15)
C68 C 0.2475(2) 0.15832(13) 0.4342(2)
H82 H 0.239160 0.139373 0.441581
C69 C 0.2369(2) 0.21026(13) 0.4358(2)
C70 C 0.4972(2) 0.70775(14) 0.4229(2)
C72 C 0.3487(2) 0.13774(12) 0.3949(2)
H83 H 0.364281 0.154627 0.406900
C73 C 0.08398(19) 0.27815(14) 0.07860(15)
H84 H 0.063062 0.291707 0.085052
C74 C 0.3036(2) 0.13667(12) 0.3938(2)
C75 C 0.29229(18) 0.18972(11) 0.3986(2)
H85 H 0.315422 0.192439 0.381963
C76 C 0.1528(2) 0.28198(15) 0.24666(17)
H86 H 0.179349 0.283546 0.269047
C77 C 0.2259(2) 0.18225(14) 0.4480(2)
H87 H 0.203611 0.179560 0.465868
C78 C 0.3462(3) 0.09062(12) 0.3613(2)
C79 C 0.11318(19) 0.28405(13) 0.26160(15)
C80 C 0.14588(18) 0.24692(14) 0.10676(14)
H88 H 0.167072 0.239700 0.132313
C81 C 0.11454(19) 0.24901(14) 0.02509(14)
C82 C 0.11428(18) 0.27476(15) 0.16609(15)
C83 C 0.1846(2) 0.39447(11) 0.4858(2)
H89 H 0.168900 0.389017 0.509696
C84 C 0.3016(3) 0.08816(12) 0.3600(2)
C85 C 0.2095(2) 0.23545(14) 0.4458(2)
C86 C 0.2219(3) 0.38187(13) 0.4236(2)
H90 H 0.231491 0.367503 0.404292
H92 H 0.043468 0.321815 0.021978
C88 C 0.4609(2) 0.70828(14) 0.3874(2)
H94 H 0.458299 0.722401 0.363004
C90 C 0.5323(2) 0.72961(14) 0.42358(19)
C91 C 0.1965(2) 0.37371(10) 0.4556(2)
C93 C 0.2149(2) 0.22927(19) 0.0305(2)
H96 H 0.235402 0.214418 0.024190
H97 H 0.202660 0.239345 0.000959
H98 H 0.230250 0.243176 0.053633
C94 C 0.1988(2) 0.19664(17) 0.0939(2)
H99 H 0.175396 0.187454 0.106904
H100 H 0.217492 0.181705 0.084217
H101 H 0.216083 0.209000 0.118165
C97 C 0.5014(2) 0.68738(15) 0.4590(2)
H103 H 0.526629 0.687215 0.483436
C98 C 0.4324(2) 0.66710(15) 0.4231(2)
C101 C 0.3727(3) 0.06390(15) 0.2969(3)
H106 H 0.361679 0.076840 0.271738
C104 C 0.2307(4) 0.46271(15) 0.4428(3)
C106 C 0.1958(2) 0.42345(12) 0.4807(3)
H109 H 0.186517 0.437703 0.500432
C107 C 0.3713(2) 0.11501(13) 0.3791(2)
C108 C 0.2771(3) 0.06167(14) 0.3410(3)
H110 H 0.298452 0.046956 0.334092
C110 C 0.2811(2) 0.11139(12) 0.3768(2)
H111 H 0.250765 0.110164 0.376815
C111 C 0.2339(3) 0.41056(14) 0.4186(3)
H112 H 0.251139 0.415786 0.396093
C113 C 0.4689(2) 0.66747(15) 0.4590(2)
H114 H 0.471563 0.653729 0.483975
C114 C 0.2447(3) 0.06742(16) 0.2958(3)
H115 H 0.229512 0.049452 0.284704
H116 H 0.223578 0.081896 0.301795
H117 H 0.260088 0.074665 0.271423
C115 C 0.2199(3) 0.43165(13) 0.4478(3)
C117 C 0.4193(3) 0.11625(17) 0.3803(3)
H119 H 0.430201 0.095984 0.379236
C118 C 0.3953(3) 0.03917(15) 0.2933(3)
H120 H 0.405337 0.032037 0.266221
C119 C 0.4439(3) 0.1305(2) 0.4252(3)
H121 H 0.475096 0.130799 0.424464
H122 H 0.433421 0.150298 0.427232
H123 H 0.439188 0.119453 0.452957
C120 C 0.2423(3) 0.47969(15) 0.4824(3)
H124 H 0.242782 0.471502 0.512885
N2 N 0.3686(2) 0.06682(11) 0.34302(19)
C121 C 0.3842(3) 0.04368(13) 0.3693(2)
N3 N 0.4006(3) 0.02637(12) 0.3392(2)
Au1 Au 0.38982(2) 0.03865(2) 0.43847(2)
Cl1 Cl 0.39959(9) 0.03388(6) 0.51866(8)
N6 N 0.2577(3) 0.55049(13) 0.4282(3)
C123 C 0.2976(2) 0.56091(11) 0.4275(3)
N7 N 0.2924(2) 0.58990(10) 0.4242(3)
Au3 Au 0.35136(2) 0.53880(2) 0.42887(4)
Cl3 Cl 0.4132(3) 0.5120(2) 0.4312(4)
Zn6 Zn 0.56594(2) 0.78060(2) 0.38975(2)
Zn8 Zn 0.62424(2) 0.74111(2) 0.46970(2)
O17 O 0.10714(11) 0.29505(7) 0.54697(10)
O18 O 0.12739(12) 0.24918(8) 0.53952(10)
O19 O 0.02760(12) 0.31388(7) 0.39612(12)
O20 O 0.02722(12) 0.24781(8) 0.38985(12)
O21 O 0.06186(13) 0.33280(8) 0.46431(12)
O22 O 0.06373(16) 0.22916(11) 0.45767(15)
H125 H 0.352778 0.0327867 0.361968
H127 H 0.304493 0.562324 0.466091
H128 H 0.310537 0.597118 0.50544
H129 H 0.287755 0.591074 0.34114
C2 C 0.1507(2) 0.2300(2) 0.83656(16)
C3 C 0.08403(19) 0.26261(18) 0.78253(16)
H2 H 0.062204 0.274485 0.764388
C5 C 0.0821(2) 0.25650(19) 0.82993(17)
C26 C 0.0909(2) 0.20919(17) 0.91552(18)
H20 H 0.079033 0.193903 0.894926
C27 C 0.0897(2) 0.21214(15) 0.96215(17)
H21 H 0.076599 0.199176 0.980920
C35 C 0.0431(2) 0.2667(2) 0.8502(2)
H36 H 0.050243 0.264208 0.885460
C37 C 0.1156(2) 0.24054(16) 0.85541(15)
C38 C 0.0323(4) 0.2955(3) 0.8405(4)
H40 H 0.007075 0.300598 0.854452
H41 H 0.057038 0.307782 0.854183
H42 H 0.025157 0.298402 0.806074
C42 C 0.0046(2) 0.27121(19) 0.9945(2)
H48 H 0.004857 0.250023 0.994573
C48 C 0.1878(3) 0.2132(2) 0.8658(2)
H64 H 0.187177 0.215742 0.900256
C49 C 0.2323(3) 0.2235(3) 0.8562(3)
H65 H 0.255664 0.212225 0.875589
H66 H 0.233188 0.220812 0.822518
H67 H 0.236287 0.244041 0.864365
C50 C 0.1809(4) 0.1810(3) 0.8526(4)
H68 H 0.204630 0.169521 0.871073
H69 H 0.153069 0.174450 0.859616
H70 H 0.180764 0.178442 0.818639
C51 C 0.0030(3) 0.2464(3) 0.8300(3)
H71 H 0.011035 0.226206 0.837134
C54 C 0.10295(17) 0.28708(13) 0.64119(15)
H75 H 0.094402 0.305306 0.627152
C58 C 0.10241(18) 0.28247(15) 0.68890(15)
H77 H 0.092109 0.297237 0.706933
C60 C 0.11670(14) 0.27025(11) 0.56266(12)
C71 C 0.11593(16) 0.26517(12) 0.61399(13)
C87 C 0.0502(3) 0.31473(19) 0.9920(3)
H91 H 0.028085 0.321715 0.965484
H93 H 0.078881 0.321850 0.988510
C89 C 0.0504(2) 0.28253(16) 0.99216(17)
H95 H 0.057624 0.275897 0.961444
C92 C 0.11683(18) 0.25642(15) 0.71045(15)
C99 C 0.12896(19) 0.23909(14) 0.63482(15)
H104 H 0.137178 0.223887 0.616092
C109 C 0.11713(19) 0.25168(17) 0.76146(15)
C112 C 0.1496(2) 0.23544(18) 0.78886(16)
H113 H 0.172045 0.227711 0.774481
C116 C 0.1303(2) 0.23461(16) 0.68343(15)
H118 H 0.140326 0.216717 0.697751
N4 N 0.11119(16) 0.23763(12) 0.97738(12)
C122 C 0.12584(17) 0.25161(12) 0.94153(14)
N5 N 0.11360(16) 0.23379(11) 0.90411(12)
Au2 Au 0.15610(2) 0.28902(2) 0.94464(2)
Cl2 Cl 0.19163(10) 0.33277(6) 0.95105(11)
H126 H 0.156935 0.240423 0.95072
C1 C 0.4806(3) 0.96977(13) 0.3866(3)
H1 H 0.510361 0.968149 0.401305
C6 C 0.4558(2) 0.94460(13) 0.3758(3)
C10 C 0.3478(4) 0.9758(2) 0.3150(4)
H5 H 0.344251 0.995345 0.299782
C12 C 0.3929(3) 0.97401(16) 0.3387(3)
C16 C 0.3183(4) 0.9753(3) 0.3495(5)
H7 H 0.288054 0.976584 0.332452
H8 H 0.322452 0.957264 0.367675
H9 H 0.324773 0.991786 0.371206
C20 C 0.4625(3) 0.99730(15) 0.3762(3)
C22 C 0.3335(5) 0.9535(3) 0.2741(5)
H16 H 0.302671 0.956346 0.260259
H17 H 0.350998 0.956302 0.249572
H18 H 0.337923 0.933822 0.286845
C23 C 0.4196(3) 0.99836(15) 0.3512(3)
C41 C 0.4126(3) 0.94729(14) 0.3520(3)
H47 H 0.395811 0.930207 0.344605
O11 O 0.52760(12) 0.81388(7) 0.39612(12)
O13 O 0.56186(13) 0.83280(8) 0.46431(12)
C65 C 0.53600(17) 0.83409(10) 0.42598(16)
C95 C 0.4748(2) 0.91596(12) 0.3897(2)
C96 C 0.4586(2) 0.89091(13) 0.3660(2)
H102 H 0.433785 0.892292 0.341200
C100 C 0.5286(2) 0.88661(13) 0.4385(2)
H105 H 0.552969 0.885168 0.463827
C102 C 0.5100(2) 0.91361(14) 0.4275(2)
H107 H 0.521061 0.930179 0.445381
C103 C 0.4772(2) 0.86413(12) 0.3769(2)
H108 H 0.465886 0.847492 0.359390
C105 C 0.51320(19) 0.86185(11) 0.41449(19)
Zn10 Zn 0.61317(2) 0.80812(2) 0.48462(2)
C90_2 C 0.0323(2) 0.22961(14) 0.42358(19)
C97_2 C 0.0014(2) 0.18738(15) 0.4590(2)
H103_2 H 0.026629 0.187215 0.483436
H1_2 H 0.010361 0.468149 0.401305
C18_2 C 0.0320(5) 0.5223(2) 0.3643(5)
H10_2 H 0.049934 0.539487 0.373478
H11_2 H 0.049193 0.504888 0.374327
H12_2 H 0.022299 0.522015 0.329716
C19_2 C 0.0073(4) 0.52664(19) 0.4417(4)
H13_2 H 0.025759 0.543865 0.447469
H15_2 H 0.024176 0.509553 0.454210
C65_2 C 0.03600(17) 0.33409(10) 0.42598(16)
C100_2 C 0.0286(2) 0.38661(13) 0.4385(2)
H105_2 H 0.052969 0.385168 0.463827
C102_2 C 0.0100(2) 0.41361(14) 0.4275(2)
H107_2 H 0.021061 0.430179 0.445381
C105_2 C 0.01320(19) 0.36185(11) 0.41449(19)
C1_2 C 0.9806(3) 0.46977(13) 0.3866(3)
C6_2 C 0.9558(2) 0.44460(13) 0.3758(3)
C7_2 C 0.9911(4) 0.52305(17) 0.3889(4)
H3_2 H 0.973664 0.540627 0.377208
C10_2 C 0.8478(4) 0.4758(2) 0.3150(4)
H5_2 H 0.844251 0.495345 0.299782
C12_2 C 0.8929(3) 0.47401(16) 0.3387(3)
C16_2 C 0.8183(4) 0.4753(3) 0.3495(5)
H7_2 H 0.788054 0.476584 0.332452
H8_2 H 0.822452 0.457264 0.367675
H9_2 H 0.824773 0.491786 0.371206
H14_2 H 0.982396 0.528816 0.457537
C20_2 C 0.9625(3) 0.49730(15) 0.3762(3)
C22_2 C 0.8335(5) 0.4535(3) 0.2741(5)
H16_2 H 0.802671 0.456346 0.260259
H17_2 H 0.850998 0.456302 0.249572
H18_2 H 0.837923 0.433822 0.286845
C23_2 C 0.9196(3) 0.49836(15) 0.3512(3)
C25_2 C 0.7278(4) 0.97520(18) 0.3985(4)
H19_2 H 0.718816 0.963772 0.370900
C28_2 C 0.9292(3) 0.6330(2) 0.3351(3)
H22_2 H 0.960691 0.633623 0.336457
H23_2 H 0.915080 0.622958 0.306146
H24_2 H 0.917860 0.652786 0.334847
C36_2 C 0.7533(4) 0.5491(2) 0.3791(4)
H37_2 H 0.737207 0.531706 0.366667
H38_2 H 0.774751 0.544124 0.407611
H39_2 H 0.733017 0.563535 0.387213
C39_2 C 0.7785(6) 0.9961(3) 0.3174(5)
H43_2 H 0.807846 0.995070 0.336884
H44_2 H 0.766280 0.976572 0.312630
C41_2 C 0.9126(3) 0.44729(14) 0.3520(3)
H47_2 H 0.895811 0.430207 0.344605
O1_2 O 0.68803(17) 0.73393(12) 0.47422(15)
H49 H 0.496056 0.778253 0.023572
H60_2 H 0.812121 0.993222 0.555532
H63_2 H 0.701826 0.992829 0.305167
O2_2 O 0.6212(3) 0.71836(16) 0.3981(3)
O3_2 O 0.6274(3) 0.69333(14) 0.4905(4)
O4_2 O 0.6097(4) 0.6666(2) 0.4048(4)
N1_2 N 0.6147(4) 0.6891(2) 0.4323(5)
Zn1_2 Zn 0.66850(2) 0.78737(2) 0.40999(2)
O7_2 O 0.64986(13) 0.78944(9) 0.34100(12)
O8_2 O 0.65821(13) 0.83754(7) 0.48819(11)
O9_2 O 0.61819(9) 0.77949(6) 0.43762(9)
O10_2 O 0.57569(13) 0.78420(8) 0.32548(10)
C52_2 C 0.57461(18) 0.77831(14) 0.18129(15)
H74_2 H 0.548088 0.777878 0.158711
C53_2 C 0.61337(19) 0.78653(12) 0.31390(15)
C55_2 C 0.57372(19) 0.78244(13) 0.22875(15)
H76_2 H 0.546747 0.784166 0.239055
C56_2 C 0.68126(18) 0.84301(9) 0.45765(16)
O14_2 O 0.69142(12) 0.82569(7) 0.42791(12)
C57_2 C 0.64617(18) 0.73735(14) 0.06076(14)
O15_2 O 0.71393(13) 0.75890(8) 0.42096(16)
C61_2 C 0.78061(18) 0.66205(12) 0.4100(2)
C62_2 C 0.6535(2) 0.77764(16) 0.19927(17)
H79_2 H 0.680521 0.776596 0.188964
C63_2 C 0.6788(2) 0.71523(16) 0.05031(18)
H80_2 H 0.663031 0.701846 0.025442
C64_2 C 0.77015(19) 0.71335(12) 0.4117(2)
H81_2 H 0.778302 0.732216 0.403557
C66_2 C 0.61518(18) 0.76686(14) 0.11612(14)
C67_2 C 0.58369(19) 0.76953(14) 0.03219(15)
C68_2 C 0.7475(2) 0.65832(13) 0.4342(2)
H82_2 H 0.739160 0.639373 0.441581
C69_2 C 0.7369(2) 0.71026(13) 0.4358(2)
C72_2 C 0.8487(2) 0.63774(12) 0.3949(2)
H83_2 H 0.864281 0.654627 0.406900
C73_2 C 0.58398(19) 0.77815(14) 0.07860(15)
H84_2 H 0.563062 0.791707 0.085052
C74_2 C 0.8036(2) 0.63667(12) 0.3938(2)
C75_2 C 0.79229(18) 0.68972(11) 0.3986(2)
H85_2 H 0.815422 0.692439 0.381963
C76_2 C 0.6528(2) 0.78198(15) 0.24666(17)
H86_2 H 0.679349 0.783546 0.269047
C77_2 C 0.7259(2) 0.68225(14) 0.4480(2)
H87_2 H 0.703611 0.679560 0.465868
C78_2 C 0.8462(3) 0.59062(12) 0.3613(2)
C79_2 C 0.61318(19) 0.78405(13) 0.26160(15)
C80_2 C 0.64588(18) 0.74692(14) 0.10676(14)
H88_2 H 0.667072 0.739700 0.132313
C81_2 C 0.61454(19) 0.74901(14) 0.02509(14)
C82_2 C 0.61428(18) 0.77476(15) 0.16609(15)
C83_2 C 0.6846(2) 0.89447(11) 0.4858(2)
H89_2 H 0.668900 0.889017 0.509696
C84_2 C 0.8016(3) 0.58816(12) 0.3600(2)
C85_2 C 0.7095(2) 0.73545(14) 0.4458(2)
C86_2 C 0.7219(3) 0.88187(13) 0.4236(2)
H90_2 H 0.731491 0.867503 0.404292
H92_2 H 0.543468 0.821815 0.021978
C91_2 C 0.6965(2) 0.87371(10) 0.4556(2)
C93_2 C 0.7149(2) 0.72927(19) 0.0305(2)
H96_2 H 0.735402 0.714418 0.024190
H97_2 H 0.702660 0.739345 0.000959
H98_2 H 0.730250 0.743176 0.053633
C94_2 C 0.6988(2) 0.69664(17) 0.0939(2)
H99_2 H 0.675396 0.687454 0.106904
H100_2 H 0.717492 0.681705 0.084217
H101_2 H 0.716083 0.709000 0.118165
C95_2 C 0.9748(2) 0.41596(12) 0.3897(2)
C96_2 C 0.9586(2) 0.39091(13) 0.3660(2)
H102_2 H 0.933785 0.392292 0.341200
C101_2 C 0.8727(3) 0.56390(15) 0.2969(3)
H106_2 H 0.861679 0.576840 0.271738
C103_2 C 0.9772(2) 0.36413(12) 0.3769(2)
H108_2 H 0.965886 0.347492 0.359390
C104_2 C 0.7307(4) 0.96271(15) 0.4428(3)
C106_2 C 0.6958(2) 0.92345(12) 0.4807(3)
H109_2 H 0.686517 0.937703 0.500432
C107_2 C 0.8713(2) 0.61501(13) 0.3791(2)
C108_2 C 0.7771(3) 0.56167(14) 0.3410(3)
H110_2 H 0.798452 0.546956 0.334092
C110_2 C 0.7811(2) 0.61139(12) 0.3768(2)
H111_2 H 0.750765 0.610164 0.376815
C111_2 C 0.7339(3) 0.91056(14) 0.4186(3)
H112_2 H 0.751139 0.915786 0.396093
C114_2 C 0.7447(3) 0.56742(16) 0.2958(3)
H115_2 H 0.729512 0.549452 0.284704
H116_2 H 0.723578 0.581896 0.301795
H117_2 H 0.760088 0.574665 0.271423
C115_2 C 0.7199(3) 0.93165(13) 0.4478(3)
C117_2 C 0.9193(3) 0.61625(17) 0.3803(3)
H119_2 H 0.930201 0.595984 0.379236
C118_2 C 0.8953(3) 0.53917(15) 0.2933(3)
H120_2 H 0.905337 0.532037 0.266221
C119_2 C 0.9439(3) 0.6305(2) 0.4252(3)
H121_2 H 0.975096 0.630799 0.424464
H122_2 H 0.933421 0.650298 0.427232
H123_2 H 0.939188 0.619453 0.452957
C120_2 C 0.7423(3) 0.97969(15) 0.4824(3)
H124_2 H 0.742782 0.971502 0.512885
N2_2 N 0.8686(2) 0.56682(11) 0.34302(19)
C121_2 C 0.8842(3) 0.54368(13) 0.3693(2)
N3_2 N 0.9006(3) 0.52637(12) 0.3392(2)
Au1_2 Au 0.88982(2) 0.53865(2) 0.43847(2)
Cl1_2 Cl 0.89959(9) 0.53388(6) 0.51866(8)
O17_2 O 0.60714(11) 0.79505(7) 0.54697(10)
O18_2 O 0.62739(12) 0.74918(8) 0.53952(10)
H125_2 H 0.852778 0.532787 0.361968
C2_2 C 0.6507(2) 0.7300(2) 0.83656(16)
C3_2 C 0.58403(19) 0.76261(18) 0.78253(16)
H2_2 H 0.562204 0.774485 0.764388
C5_2 C 0.5821(2) 0.75650(19) 0.82993(17)
C26_2 C 0.5909(2) 0.70919(17) 0.91552(18)
H20_2 H 0.579033 0.693903 0.894926
C27_2 C 0.5897(2) 0.71214(15) 0.96215(17)
H21_2 H 0.576599 0.699176 0.980920
C35_2 C 0.5431(2) 0.7667(2) 0.8502(2)
H36_2 H 0.550243 0.764208 0.885460
C37_2 C 0.6156(2) 0.74054(16) 0.85541(15)
C38_2 C 0.5323(4) 0.7955(3) 0.8405(4)
H40_2 H 0.507075 0.800598 0.854452
H41_2 H 0.557038 0.807782 0.854183
H42_2 H 0.525157 0.798402 0.806074
C42_2 C 0.5046(2) 0.77121(19) 0.9945(2)
H48_2 H 0.504857 0.750023 0.994573
H50 H 0.483776 0.778160 0.966814
C48_2 C 0.6878(3) 0.7132(2) 0.8658(2)
H64_2 H 0.687177 0.715742 0.900256
C49_2 C 0.7323(3) 0.7235(3) 0.8562(3)
H65_2 H 0.755664 0.712225 0.875589
H66_2 H 0.733188 0.720812 0.822518
H67_2 H 0.736287 0.744041 0.864365
C50_2 C 0.6809(4) 0.6810(3) 0.8526(4)
H68_2 H 0.704630 0.669521 0.871073
H69_2 H 0.653069 0.674450 0.859616
H70_2 H 0.680764 0.678442 0.818639
C51_2 C 0.5030(3) 0.7464(3) 0.8300(3)
H71_2 H 0.511035 0.726206 0.837134
H72 H 0.478314 0.751553 0.844928
H73 H 0.494704 0.749018 0.795598
C54_2 C 0.60295(17) 0.78708(13) 0.64119(15)
H75_2 H 0.594402 0.805306 0.627152
C58_2 C 0.60241(18) 0.78247(15) 0.68890(15)
H77_2 H 0.592109 0.797237 0.706933
C60_2 C 0.61670(14) 0.77025(11) 0.56266(12)
C71_2 C 0.61593(16) 0.76517(12) 0.61399(13)
C87_2 C 0.5502(3) 0.81473(19) 0.9920(3)
H91_2 H 0.528085 0.821715 0.965484
H93_2 H 0.578881 0.821850 0.988510
C89_2 C 0.5504(2) 0.78253(16) 0.99216(17)
H95_2 H 0.557624 0.775897 0.961444
C92_2 C 0.61683(18) 0.75642(15) 0.71045(15)
C99_2 C 0.62896(19) 0.73909(14) 0.63482(15)
H104_2 H 0.637178 0.723887 0.616092
C109_2 C 0.61713(19) 0.75168(17) 0.76146(15)
C112_2 C 0.6496(2) 0.73544(18) 0.78886(16)
H113_2 H 0.672045 0.727711 0.774481
C116_2 C 0.6303(2) 0.73461(16) 0.68343(15)
H118_2 H 0.640326 0.716717 0.697751
N4_2 N 0.61119(16) 0.73763(12) 0.97738(12)
C122_2 C 0.62584(17) 0.75161(12) 0.94153(14)
N5_2 N 0.61360(16) 0.73379(11) 0.90411(12)
Au2_2 Au 0.65610(2) 0.78902(2) 0.94464(2)
Cl2_2 Cl 0.69163(10) 0.83277(6) 0.95105(11)
H126_2 H 0.656935 0.740423 0.95072
H49_2 H 0.996056 0.278253 0.023572
H50_2 H 0.983776 0.278160 0.966814
H72_2 H 0.978314 0.251553 0.844928
H73_2 H 0.994704 0.249018 0.795598
H49_3 H 0.003944 0.278253 0.476428
H50_3 H 0.016224 0.278160 0.533186
H72_3 H 0.021686 0.251553 0.655072
H73_3 H 0.005296 0.249018 0.704402
Zn7 Zn 0.87576(2) 0.24111(2) 0.03030(2)
Zn9 Zn 0.88683(2) 0.30812(2) 0.01538(2)
C2_3 C 0.8493(2) 0.2300(2) 0.66344(16)
C3_3 C 0.91597(19) 0.26261(18) 0.71747(16)
H2_3 H 0.937796 0.274485 0.735612
C4_2 C 0.6611(3) 0.61651(15) 0.1200(3)
C5_3 C 0.9179(2) 0.25650(19) 0.67007(17)
C7_3 C 0.5089(4) 0.02305(17) 0.1111(4)
H3_3 H 0.526336 0.040627 0.122792
C8_2 C 0.6269(3) 0.63572(15) 0.1193(3)
H4_2 H 0.618830 0.641277 0.148279
C11_2 C 0.7514(4) 0.52020(16) 0.0670(4)
C13_2 C 0.6160(3) 0.63877(15) 0.0331(3)
H6_2 H 0.600328 0.646462 0.004135
C14_2 C 0.6720(3) 0.60940(15) 0.0751(3)
C15_2 C 0.7467(4) 0.50880(15) 0.0211(4)
C17_2 C 0.6045(3) 0.64690(15) 0.0767(3)
C18_3 C 0.4680(5) 0.0223(2) 0.1357(5)
H10_3 H 0.450066 0.039487 0.126522
H11_3 H 0.450807 0.004888 0.125673
H12_3 H 0.477701 0.022015 0.170284
C19_3 C 0.4927(4) 0.02664(19) 0.0583(4)
H13_3 H 0.474241 0.043865 0.052531
H14_3 H 0.517604 0.028816 0.042463
H15_3 H 0.475824 0.009553 0.045790
C21_2 C 0.6495(3) 0.62003(16) 0.0324(3)
C24_2 C 0.7622(4) 0.50384(19) 0.1061(4)
C25_3 C 0.7722(4) 0.47520(18) 0.1015(4)
H19_3 H 0.781184 0.463772 0.129100
C26_3 C 0.9091(2) 0.20919(17) 0.58448(18)
H20_3 H 0.920967 0.193903 0.605074
C27_3 C 0.9103(2) 0.21214(15) 0.53785(17)
H21_3 H 0.923401 0.199176 0.519080
C28_3 C 0.5708(3) 0.1330(2) 0.1649(3)
H22_3 H 0.539309 0.133623 0.163543
H23_3 H 0.584920 0.122958 0.193854
H24_3 H 0.582140 0.152786 0.165153
C29_2 C 0.6854(3) 0.60418(17) 0.1662(3)
C31_2 C 0.7724(4) 0.57205(17) 0.0738(4)
H28_2 H 0.802450 0.569938 0.073100
C32_2 C 0.7505(3) 0.59724(16) 0.0770(4)
H29_2 H 0.762441 0.616180 0.079538
C33_2 C 0.7042(4) 0.6289(2) 0.1996(4)
H30_2 H 0.723405 0.640803 0.184276
H31_2 H 0.680404 0.640794 0.206735
H32_2 H 0.720858 0.620771 0.229125
C34_2 C 0.6560(4) 0.5854(2) 0.1876(4)
H33_2 H 0.671939 0.577421 0.217626
H34_2 H 0.631222 0.596773 0.193674
H35_2 H 0.645397 0.569524 0.165803
C35_3 C 0.9569(2) 0.2667(2) 0.6498(2)
H36_3 H 0.949757 0.264208 0.614540
C36_3 C 0.7467(4) 0.0491(2) 0.1209(4)
H37_3 H 0.762793 0.031706 0.133333
H38_3 H 0.725249 0.044124 0.092389
H39_3 H 0.766983 0.063535 0.112787
C37_3 C 0.8844(2) 0.24054(16) 0.64459(15)
C38_3 C 0.9677(4) 0.2955(3) 0.6595(4)
H40_3 H 0.992925 0.300598 0.645548
H41_3 H 0.942962 0.307782 0.645817
H42_3 H 0.974843 0.298402 0.693926
C39_3 C 0.7215(6) 0.4961(3) 0.1826(5)
H43_3 H 0.692154 0.495070 0.163116
H44_3 H 0.733720 0.476572 0.187370
H45_2 H 0.720008 0.504714 0.213437
C40_2 C 0.7497(5) 0.5142(2) 0.1581(4)
H46_2 H 0.738604 0.534544 0.155446
O1_3 O 0.81197(17) 0.23393(12) 0.02578(15)
C42_3 C 0.9954(2) 0.27121(19) 0.5055(2)
H48_3 H 0.995143 0.250023 0.505427
C47_2 C 0.7886(5) 0.5130(3) 0.1904(5)
H61_2 H 0.810689 0.524301 0.178526
H62_2 H 0.784461 0.520971 0.220901
H63_3 H 0.798174 0.492829 0.194833
C48_3 C 0.8122(3) 0.2132(2) 0.6342(2)
H64_3 H 0.812823 0.215742 0.599744
C49_3 C 0.7677(3) 0.2235(3) 0.6438(3)
H65_3 H 0.744336 0.212225 0.624411
H66_3 H 0.766812 0.220812 0.677482
H67_3 H 0.763713 0.244041 0.635635
C50_3 C 0.8191(4) 0.1810(3) 0.6474(4)
H68_3 H 0.795370 0.169521 0.628927
H69_3 H 0.846931 0.174450 0.640384
H70_3 H 0.819236 0.178442 0.681361
O2_3 O 0.8788(3) 0.21836(16) 0.1019(3)
O3_3 O 0.8726(3) 0.19333(14) 0.0095(4)
O4_3 O 0.8903(4) 0.1666(2) 0.0952(4)
N1_3 N 0.8853(4) 0.1891(2) 0.0677(5)
C51_3 C 0.9970(3) 0.2464(3) 0.6700(3)
H71_3 H 0.988965 0.226206 0.662866
Zn1_3 Zn 0.83150(2) 0.28737(2) 0.09001(2)
Zn2_2 Zn 0.93406(2) 0.28060(2) 0.11025(2)
O5 O 0.89286(11) 0.29505(7) 0.95303(10)
O6 O 0.87261(12) 0.24918(8) 0.96048(10)
O7_3 O 0.85014(13) 0.28944(9) 0.15900(12)
O8_3 O 0.84179(13) 0.33754(7) 0.01181(11)
O9_3 O 0.88181(9) 0.27949(6) 0.06238(9)
O10_3 O 0.92431(13) 0.28420(8) 0.17452(10)
O12_2 O 0.47278(12) 0.74781(8) 0.11015(12)
C52_3 C 0.92539(18) 0.27831(14) 0.31871(15)
H74_3 H 0.951912 0.277878 0.341289
C53_3 C 0.88663(19) 0.28653(12) 0.18610(15)
C54_3 C 0.89705(17) 0.28708(13) 0.85881(15)
H75_3 H 0.905598 0.305306 0.872848
C55_3 C 0.92628(19) 0.28244(13) 0.27125(15)
H76_3 H 0.953253 0.284166 0.260945
C56_3 C 0.81874(18) 0.34301(9) 0.04235(16)
O14_3 O 0.80858(12) 0.32569(7) 0.07209(12)
C57_3 C 0.85383(18) 0.23735(14) 0.43924(14)
C58_3 C 0.89759(18) 0.28247(15) 0.81110(15)
H77_3 H 0.907891 0.297237 0.793067
C59_2 C 0.5720(2) 0.68832(15) 0.1128(2)
H78_2 H 0.597405 0.688889 0.136946
C60_3 C 0.88330(14) 0.27025(11) 0.93734(12)
O15_3 O 0.78607(13) 0.25890(8) 0.07904(16)
C61_3 C 0.71939(18) 0.16205(12) 0.0900(2)
C62_3 C 0.8465(2) 0.27764(16) 0.30073(17)
H79_3 H 0.819479 0.276596 0.311036
C63_3 C 0.8212(2) 0.21523(16) 0.44969(18)
H80_3 H 0.836969 0.201846 0.474558
C64_3 C 0.72985(19) 0.21335(12) 0.0883(2)
H81_3 H 0.721698 0.232216 0.096443
C66_3 C 0.88482(18) 0.26686(14) 0.38388(14)
O16_2 O 0.43627(16) 0.72916(11) 0.04233(15)
C67_3 C 0.91631(19) 0.26953(14) 0.46781(15)
C68_3 C 0.7525(2) 0.15832(13) 0.0658(2)
H82_3 H 0.760840 0.139373 0.058419
C69_3 C 0.7631(2) 0.21026(13) 0.0642(2)
C70_2 C 0.5028(2) 0.70775(14) 0.0771(2)
C71_3 C 0.88407(16) 0.26517(12) 0.88601(13)
C72_3 C 0.6513(2) 0.13774(12) 0.1051(2)
H83_3 H 0.635719 0.154627 0.093100
C73_3 C 0.91602(19) 0.27815(14) 0.42140(15)
H84_3 H 0.936938 0.291707 0.414948
C74_3 C 0.6964(2) 0.13667(12) 0.1062(2)
C75_3 C 0.70771(18) 0.18972(11) 0.1014(2)
H85_3 H 0.684578 0.192439 0.118037
C76_3 C 0.8472(2) 0.28198(15) 0.25334(17)
H86_3 H 0.820651 0.283546 0.230953
C77_3 C 0.7741(2) 0.18225(14) 0.0520(2)
H87_3 H 0.796389 0.179560 0.034132
C78_3 C 0.6538(3) 0.09062(12) 0.1387(2)
C79_3 C 0.88682(19) 0.28405(13) 0.23840(15)
C80_3 C 0.85412(18) 0.24692(14) 0.39324(14)
H88_3 H 0.832928 0.239700 0.367687
C81_3 C 0.88546(19) 0.24901(14) 0.47491(14)
C82_3 C 0.88572(18) 0.27476(15) 0.33391(15)
C83_3 C 0.8154(2) 0.39447(11) 0.0142(2)
C84_3 C 0.6984(3) 0.08816(12) 0.1400(2)
C85_3 C 0.7905(2) 0.23545(14) 0.0542(2)
C86_3 C 0.7781(3) 0.38187(13) 0.0764(2)
H90_3 H 0.768509 0.367503 0.095708
C87_3 C 0.9498(3) 0.31473(19) 0.5080(3)
H91_3 H 0.971915 0.321715 0.534516
H92_3 H 0.956532 0.321815 0.478022
H93_3 H 0.921119 0.321850 0.511490
C88_2 C 0.5391(2) 0.70828(14) 0.1126(2)
H94_2 H 0.541701 0.722401 0.136996
C89_3 C 0.9496(2) 0.28253(16) 0.50784(17)
H95_3 H 0.942376 0.275897 0.538556
C90_3 C 0.4677(2) 0.72961(14) 0.07642(19)
C91_3 C 0.8035(2) 0.37371(10) 0.0444(2)
C92_3 C 0.88317(18) 0.25642(15) 0.78955(15)
C93_3 C 0.7851(2) 0.22927(19) 0.4695(2)
H96_3 H 0.764598 0.214418 0.475810
H97_3 H 0.797340 0.239345 0.499041
H98_3 H 0.769750 0.243176 0.446367
C94_3 C 0.8012(2) 0.19664(17) 0.4061(2)
H99_3 H 0.824604 0.187454 0.393096
H100_3 H 0.782508 0.181705 0.415783
H101_3 H 0.783917 0.209000 0.381835
C97_3 C 0.4986(2) 0.68738(15) 0.0410(2)
H103_3 H 0.473371 0.687215 0.016564
C98_2 C 0.5676(2) 0.66710(15) 0.0769(2)
C99_3 C 0.87104(19) 0.23909(14) 0.86518(15)
H104_3 H 0.862822 0.223887 0.883908
C101_3 C 0.6273(3) 0.06390(15) 0.2031(3)
H106_3 H 0.638321 0.076840 0.228262
C104_3 C 0.7693(4) 0.46271(15) 0.0572(3)
C106_3 C 0.8042(2) 0.42345(12) 0.0193(3)
C107_3 C 0.6287(2) 0.11501(13) 0.1209(2)
C108_3 C 0.7229(3) 0.06167(14) 0.1590(3)
H110_3 H 0.701548 0.046956 0.165908
C109_3 C 0.88287(19) 0.25168(17) 0.73854(15)
C110_3 C 0.7189(2) 0.11139(12) 0.1232(2)
H111_3 H 0.749235 0.110164 0.123185
C111_3 C 0.7661(3) 0.41056(14) 0.0814(3)
H112_3 H 0.748861 0.415786 0.103907
C112_3 C 0.8504(2) 0.23544(18) 0.71114(16)
H113_3 H 0.827955 0.227711 0.725519
C113_2 C 0.5311(2) 0.66747(15) 0.0410(2)
H114_2 H 0.528437 0.653729 0.016025
C114_3 C 0.7553(3) 0.06742(16) 0.2042(3)
H115_3 H 0.770488 0.049452 0.215296
H116_3 H 0.776422 0.081896 0.198205
H117_3 H 0.739912 0.074665 0.228577
C115_3 C 0.7801(3) 0.43165(13) 0.0522(3)
C116_3 C 0.8697(2) 0.23461(16) 0.81657(15)
H118_3 H 0.859674 0.216717 0.802249
C117_3 C 0.5807(3) 0.11625(17) 0.1197(3)
H119_3 H 0.569799 0.095984 0.120764
C118_3 C 0.6047(3) 0.03917(15) 0.2067(3)
H120_3 H 0.594663 0.032037 0.233779
C119_3 C 0.5561(3) 0.1305(2) 0.0748(3)
H121_3 H 0.524904 0.130799 0.075536
H122_3 H 0.566579 0.150298 0.072768
H123_3 H 0.560812 0.119453 0.047043
C120_3 C 0.7577(3) 0.47969(15) 0.0176(3)
N2_3 N 0.6314(2) 0.06682(11) 0.15698(19)
C121_3 C 0.6158(3) 0.04368(13) 0.1307(2)
N3_3 N 0.5994(3) 0.02637(12) 0.1608(2)
Au1_3 Au 0.61018(2) 0.03865(2) 0.06153(2)
N4_3 N 0.88881(16) 0.23763(12) 0.52262(12)
C122_3 C 0.87416(17) 0.25161(12) 0.55847(14)
N5_3 N 0.88640(16) 0.23379(11) 0.59589(12)
Au2_3 Au 0.84390(2) 0.28902(2) 0.55536(2)
Cl2_3 Cl 0.80837(10) 0.33277(6) 0.54895(11)
N6_2 N 0.7423(3) 0.55049(13) 0.0718(3)
C123_2 C 0.7024(2) 0.56091(11) 0.0725(3)
N7_2 N 0.7076(2) 0.58990(10) 0.0758(3)
Au3_2 Au 0.64864(2) 0.53880(2) 0.07113(4)
Cl3_2 Cl 0.5868(3) 0.5120(2) 0.0688(4)
Zn6_2 Zn 0.43406(2) 0.78060(2) 0.11025(2)
Zn8_2 Zn 0.37576(2) 0.74111(2) 0.03030(2)
O19_2 O 0.97240(12) 0.31388(7) 0.10388(12)
O20_2 O 0.97278(12) 0.24781(8) 0.11015(12)
O21_2 O 0.93814(13) 0.33280(8) 0.03569(12)
O22_2 O 0.93627(16) 0.22916(11) 0.04233(15)
H125_3 H 0.647222 0.0327867 0.138032
H126_3 H 0.843065 0.240423 0.54928
H127_2 H 0.695507 0.562324 0.033909
H129_2 H 0.712245 0.591074 0.15886
C9_2 C 0.6619(3) 0.61184(19) 0.9862(4)
C30_2 C 0.6776(4) 0.6382(2) 0.9645(4)
H25_2 H 0.700844 0.647383 0.987472
H26_2 H 0.688905 0.632667 0.936150
H27_2 H 0.653444 0.651796 0.955519
C43_2 C 0.7302(5) 0.5271(2) 0.9751(4)
H51_2 H 0.726559 0.547780 0.983814
C44_2 C 0.7577(6) 0.5254(3) 0.9401(5)
H52_2 H 0.745331 0.537327 0.912608
H53_2 H 0.786908 0.532435 0.953982
H54_2 H 0.759500 0.505257 0.930045
C45_2 C 0.6264(4) 0.5959(3) 0.9544(4)
H55_2 H 0.617984 0.579014 0.971179
H56_2 H 0.601212 0.608686 0.945273
H57_2 H 0.636673 0.589556 0.925904
C46_2 C 0.6841(5) 0.5135(3) 0.9529(5)
H58_2 H 0.665006 0.514467 0.976250
H59_2 H 0.670940 0.524306 0.924419
H60_3 H 0.687879 0.493222 0.944468
H89_3 H 0.831100 0.389017 0.990304
H109_3 H 0.813483 0.437703 0.999568
H124_3 H 0.757218 0.471502 0.987115
Cl1_3 Cl 0.60041(9) 0.03388(6) 0.98134(8)
H128_2 H 0.689463 0.597118 0.99456
C1_3 C 0.5194(3) 0.96977(13) 0.1134(3)
H1_3 H 0.489639 0.968149 0.098695
C6_3 C 0.5442(2) 0.94460(13) 0.1242(3)
C10_3 C 0.6522(4) 0.9758(2) 0.1850(4)
H5_3 H 0.655749 0.995345 0.200218
C12_3 C 0.6071(3) 0.97401(16) 0.1613(3)
C16_3 C 0.6817(4) 0.9753(3) 0.1505(5)
H7_3 H 0.711946 0.976584 0.167548
H8_3 H 0.677548 0.957264 0.132325
H9_3 H 0.675227 0.991786 0.128794
C20_3 C 0.5375(3) 0.99730(15) 0.1238(3)
C22_3 C 0.6665(5) 0.9535(3) 0.2259(5)
H16_3 H 0.697329 0.956346 0.239741
H17_3 H 0.649002 0.956302 0.250428
H18_3 H 0.662077 0.933822 0.213155
C23_3 C 0.5804(3) 0.99836(15) 0.1488(3)
C41_3 C 0.5874(3) 0.94729(14) 0.1480(3)
H47_3 H 0.604189 0.930207 0.155395
O11_2 O 0.47240(12) 0.81388(7) 0.10388(12)
O13_2 O 0.43814(13) 0.83280(8) 0.03569(12)
C65_3 C 0.46400(17) 0.83409(10) 0.07402(16)
C95_3 C 0.5252(2) 0.91596(12) 0.1103(2)
C96_3 C 0.5414(2) 0.89091(13) 0.1340(2)
H102_3 H 0.566215 0.892292 0.158800
C100_3 C 0.4714(2) 0.88661(13) 0.0615(2)
H105_3 H 0.447031 0.885168 0.036173
C102_3 C 0.4900(2) 0.91361(14) 0.0725(2)
H107_3 H 0.478939 0.930179 0.054619
C103_3 C 0.5228(2) 0.86413(12) 0.1231(2)
H108_3 H 0.534114 0.847492 0.140610
C105_3 C 0.48680(19) 0.86185(11) 0.08551(19)
Zn10_2 Zn 0.38683(2) 0.80812(2) 0.01538(2)
C1_4 C 0.0194(3) 0.46977(13) 0.1134(3)
C2_4 C 0.3493(2) 0.7300(2) 0.66344(16)
C3_4 C 0.41597(19) 0.76261(18) 0.71747(16)
H2_4 H 0.437796 0.774485 0.735612
C5_4 C 0.4179(2) 0.75650(19) 0.67007(17)
C6_4 C 0.0442(2) 0.44460(13) 0.1242(3)
C7_4 C 0.0089(4) 0.52305(17) 0.1111(4)
H3_4 H 0.026336 0.540627 0.122792
C10_4 C 0.1522(4) 0.4758(2) 0.1850(4)
H5_4 H 0.155749 0.495345 0.200218
C12_4 C 0.1071(3) 0.47401(16) 0.1613(3)
C16_4 C 0.1817(4) 0.4753(3) 0.1505(5)
H7_4 H 0.211946 0.476584 0.167548
H8_4 H 0.177548 0.457264 0.132325
H9_4 H 0.175227 0.491786 0.128794
H14_4 H 0.017604 0.528816 0.042463
C20_4 C 0.0375(3) 0.49730(15) 0.1238(3)
C22_4 C 0.1665(5) 0.4535(3) 0.2259(5)
H16_4 H 0.197329 0.456346 0.239741
H17_4 H 0.149002 0.456302 0.250428
H18_4 H 0.162077 0.433822 0.213155
C23_4 C 0.0804(3) 0.49836(15) 0.1488(3)
C25_4 C 0.2722(4) 0.97520(18) 0.1015(4)
H19_4 H 0.281184 0.963772 0.129100
C26_4 C 0.4091(2) 0.70919(17) 0.58448(18)
H20_4 H 0.420967 0.693903 0.605074
C27_4 C 0.4103(2) 0.71214(15) 0.53785(17)
H21_4 H 0.423401 0.699176 0.519080
C28_4 C 0.0708(3) 0.6330(2) 0.1649(3)
H22_4 H 0.039309 0.633623 0.163543
H23_4 H 0.084920 0.622958 0.193854
H24_4 H 0.082140 0.652786 0.165153
C35_4 C 0.4569(2) 0.7667(2) 0.6498(2)
H36_4 H 0.449757 0.764208 0.614540
C36_4 C 0.2467(4) 0.5491(2) 0.1209(4)
H37_4 H 0.262793 0.531706 0.133333
H38_4 H 0.225249 0.544124 0.092389
H39_4 H 0.266983 0.563535 0.112787
C37_4 C 0.3844(2) 0.74054(16) 0.64459(15)
C38_4 C 0.4677(4) 0.7955(3) 0.6595(4)
H40_4 H 0.492925 0.800598 0.645548
H41_4 H 0.442962 0.807782 0.645817
H42_4 H 0.474843 0.798402 0.693926
C39_4 C 0.2215(6) 0.9961(3) 0.1826(5)
H43_4 H 0.192154 0.995070 0.163116
H44_4 H 0.233720 0.976572 0.187370
C41_4 C 0.0874(3) 0.44729(14) 0.1480(3)
H47_4 H 0.104189 0.430207 0.155395
O1_4 O 0.31197(17) 0.73393(12) 0.02578(15)
C42_4 C 0.4954(2) 0.77121(19) 0.5055(2)
H48_4 H 0.495143 0.750023 0.505427
H49_4 H 0.503944 0.778253 0.476428
H50_4 H 0.516224 0.778160 0.533186
H63_4 H 0.298174 0.992829 0.194833
C48_4 C 0.3122(3) 0.7132(2) 0.6342(2)
H64_4 H 0.312823 0.715742 0.599744
C49_4 C 0.2677(3) 0.7235(3) 0.6438(3)
H65_4 H 0.244336 0.712225 0.624411
H66_4 H 0.266812 0.720812 0.677482
H67_4 H 0.263713 0.744041 0.635635
C50_4 C 0.3191(4) 0.6810(3) 0.6474(4)
H68_4 H 0.295370 0.669521 0.628927
H69_4 H 0.346931 0.674450 0.640384
H70_4 H 0.319236 0.678442 0.681361
O2_4 O 0.3788(3) 0.71836(16) 0.1019(3)
O3_4 O 0.3726(3) 0.69333(14) 0.0095(4)
O4_4 O 0.3903(4) 0.6666(2) 0.0952(4)
N1_4 N 0.3853(4) 0.6891(2) 0.0677(5)
C51_4 C 0.4970(3) 0.7464(3) 0.6700(3)
H71_4 H 0.488965 0.726206 0.662866
H72_4 H 0.521686 0.751553 0.655072
H73_4 H 0.505296 0.749018 0.704402
Zn1_4 Zn 0.33150(2) 0.78737(2) 0.09001(2)
O5_2 O 0.39286(11) 0.79505(7) 0.95303(10)
O6_2 O 0.37261(12) 0.74918(8) 0.96048(10)
O7_4 O 0.35014(13) 0.78944(9) 0.15900(12)
O8_4 O 0.34179(13) 0.83754(7) 0.01181(11)
O9_4 O 0.38181(9) 0.77949(6) 0.06238(9)
O10_4 O 0.42431(13) 0.78420(8) 0.17452(10)
C52_4 C 0.42539(18) 0.77831(14) 0.31871(15)
H74_4 H 0.451912 0.777878 0.341289
C53_4 C 0.38663(19) 0.78653(12) 0.18610(15)
C54_4 C 0.39705(17) 0.78708(13) 0.85881(15)
H75_4 H 0.405598 0.805306 0.872848
C55_4 C 0.42628(19) 0.78244(13) 0.27125(15)
H76_4 H 0.453253 0.784166 0.260945
C56_4 C 0.31874(18) 0.84301(9) 0.04235(16)
O14_4 O 0.30858(12) 0.82569(7) 0.07209(12)
C57_4 C 0.35383(18) 0.73735(14) 0.43924(14)
C58_4 C 0.39759(18) 0.78247(15) 0.81110(15)
H77_4 H 0.407891 0.797237 0.793067
C60_4 C 0.38330(14) 0.77025(11) 0.93734(12)
O15_4 O 0.28607(13) 0.75890(8) 0.07904(16)
C61_4 C 0.21939(18) 0.66205(12) 0.0900(2)
C62_4 C 0.3465(2) 0.77764(16) 0.30073(17)
H79_4 H 0.319479 0.776596 0.311036
C63_4 C 0.3212(2) 0.71523(16) 0.44969(18)
H80_4 H 0.336969 0.701846 0.474558
C64_4 C 0.22985(19) 0.71335(12) 0.0883(2)
H81_4 H 0.221698 0.732216 0.096443
C66_4 C 0.38482(18) 0.76686(14) 0.38388(14)
C67_4 C 0.41631(19) 0.76953(14) 0.46781(15)
C68_4 C 0.2525(2) 0.65832(13) 0.0658(2)
H82_4 H 0.260840 0.639373 0.058419
C69_4 C 0.2631(2) 0.71026(13) 0.0642(2)
C71_4 C 0.38407(16) 0.76517(12) 0.88601(13)
C72_4 C 0.1513(2) 0.63774(12) 0.1051(2)
H83_4 H 0.135719 0.654627 0.093100
C73_4 C 0.41602(19) 0.77815(14) 0.42140(15)
H84_4 H 0.436938 0.791707 0.414948
C74_4 C 0.1964(2) 0.63667(12) 0.1062(2)
C75_4 C 0.20771(18) 0.68972(11) 0.1014(2)
H85_4 H 0.184578 0.692439 0.118037
C76_4 C 0.3472(2) 0.78198(15) 0.25334(17)
H86_4 H 0.320651 0.783546 0.230953
C77_4 C 0.2741(2) 0.68225(14) 0.0520(2)
H87_4 H 0.296389 0.679560 0.034132
C78_4 C 0.1538(3) 0.59062(12) 0.1387(2)
C79_4 C 0.38682(19) 0.78405(13) 0.23840(15)
C80_4 C 0.35412(18) 0.74692(14) 0.39324(14)
H88_4 H 0.332928 0.739700 0.367687
C81_4 C 0.38546(19) 0.74901(14) 0.47491(14)
C82_4 C 0.38572(18) 0.77476(15) 0.33391(15)
C83_4 C 0.3154(2) 0.89447(11) 0.0142(2)
C84_4 C 0.1984(3) 0.58816(12) 0.1400(2)
C85_4 C 0.2905(2) 0.73545(14) 0.0542(2)
C86_4 C 0.2781(3) 0.88187(13) 0.0764(2)
H90_4 H 0.268509 0.867503 0.095708
C87_4 C 0.4498(3) 0.81473(19) 0.5080(3)
H91_4 H 0.471915 0.821715 0.534516
H92_4 H 0.456532 0.821815 0.478022
H93_4 H 0.421119 0.821850 0.511490
C89_4 C 0.4496(2) 0.78253(16) 0.50784(17)
H95_4 H 0.442376 0.775897 0.538556
C91_4 C 0.3035(2) 0.87371(10) 0.0444(2)
C92_4 C 0.38317(18) 0.75642(15) 0.78955(15)
C93_4 C 0.2851(2) 0.72927(19) 0.4695(2)
H96_4 H 0.264598 0.714418 0.475810
H97_4 H 0.297340 0.739345 0.499041
H98_4 H 0.269750 0.743176 0.446367
C94_4 C 0.3012(2) 0.69664(17) 0.4061(2)
H99_4 H 0.324604 0.687454 0.393096
H100_4 H 0.282508 0.681705 0.415783
H101_4 H 0.283917 0.709000 0.381835
C95_4 C 0.0252(2) 0.41596(12) 0.1103(2)
C96_4 C 0.0414(2) 0.39091(13) 0.1340(2)
H102_4 H 0.066215 0.392292 0.158800
C99_4 C 0.37104(19) 0.73909(14) 0.86518(15)
H104_4 H 0.362822 0.723887 0.883908
C101_4 C 0.1273(3) 0.56390(15) 0.2031(3)
H106_4 H 0.138321 0.576840 0.228262
C103_4 C 0.0228(2) 0.36413(12) 0.1231(2)
H108_4 H 0.034114 0.347492 0.140610
C104_4 C 0.2693(4) 0.96271(15) 0.0572(3)
C106_4 C 0.3042(2) 0.92345(12) 0.0193(3)
C107_4 C 0.1287(2) 0.61501(13) 0.1209(2)
C108_4 C 0.2229(3) 0.56167(14) 0.1590(3)
H110_4 H 0.201548 0.546956 0.165908
C109_4 C 0.38287(19) 0.75168(17) 0.73854(15)
C110_4 C 0.2189(2) 0.61139(12) 0.1232(2)
H111_4 H 0.249235 0.610164 0.123185
C111_4 C 0.2661(3) 0.91056(14) 0.0814(3)
H112_4 H 0.248861 0.915786 0.103907
C112_4 C 0.3504(2) 0.73544(18) 0.71114(16)
H113_4 H 0.327955 0.727711 0.725519
C114_4 C 0.2553(3) 0.56742(16) 0.2042(3)
H115_4 H 0.270488 0.549452 0.215296
H116_4 H 0.276422 0.581896 0.198205
H117_4 H 0.239912 0.574665 0.228577
C115_4 C 0.2801(3) 0.93165(13) 0.0522(3)
C116_4 C 0.3697(2) 0.73461(16) 0.81657(15)
H118_4 H 0.359674 0.716717 0.802249
C117_4 C 0.0807(3) 0.61625(17) 0.1197(3)
H119_4 H 0.069799 0.595984 0.120764
C118_4 C 0.1047(3) 0.53917(15) 0.2067(3)
H120_4 H 0.094663 0.532037 0.233779
C119_4 C 0.0561(3) 0.6305(2) 0.0748(3)
H121_4 H 0.024904 0.630799 0.075536
H122_4 H 0.066579 0.650298 0.072768
H123_4 H 0.060812 0.619453 0.047043
C120_4 C 0.2577(3) 0.97969(15) 0.0176(3)
N2_4 N 0.1314(2) 0.56682(11) 0.15698(19)
C121_4 C 0.1158(3) 0.54368(13) 0.1307(2)
N3_4 N 0.0994(3) 0.52637(12) 0.1608(2)
Au1_4 Au 0.11018(2) 0.53865(2) 0.06153(2)
N4_4 N 0.38881(16) 0.73763(12) 0.52262(12)
C122_4 C 0.37416(17) 0.75161(12) 0.55847(14)
N5_4 N 0.38640(16) 0.73379(11) 0.59589(12)
Au2_4 Au 0.34390(2) 0.78902(2) 0.55536(2)
Cl2_4 Cl 0.30837(10) 0.83277(6) 0.54895(11)
H125_4 H 0.147222 0.532787 0.138032
H126_4 H 0.343065 0.740423 0.54928
H60_4 H 0.187879 0.993222 0.944468
H89_4 H 0.331100 0.889017 0.990304
H109_4 H 0.313483 0.937703 0.999568
H124_4 H 0.257218 0.971502 0.987115
Cl1_4 Cl 0.10041(9) 0.53388(6) 0.98134(8)
C90_4 C 0.9677(2) 0.22961(14) 0.07642(19)
C97_4 C 0.9986(2) 0.18738(15) 0.0410(2)
H103_4 H 0.973371 0.187215 0.016564
H1_4 H 0.989639 0.468149 0.098695
C18_4 C 0.9680(5) 0.5223(2) 0.1357(5)
H10_4 H 0.950066 0.539487 0.126522
H11_4 H 0.950807 0.504888 0.125673
H12_4 H 0.977701 0.522015 0.170284
C19_4 C 0.9927(4) 0.52664(19) 0.0583(4)
H13_4 H 0.974241 0.543865 0.052531
H15_4 H 0.975824 0.509553 0.045790
C65_4 C 0.96400(17) 0.33409(10) 0.07402(16)
C100_4 C 0.9714(2) 0.38661(13) 0.0615(2)
H105_4 H 0.947031 0.385168 0.036173
C102_4 C 0.9900(2) 0.41361(14) 0.0725(2)
H107_4 H 0.978939 0.430179 0.054619
C105_4 C 0.98680(19) 0.36185(11) 0.08551(19)
C4_3 C 0.8389(3) 0.11651(15) 0.3800(3)
C8_3 C 0.8731(3) 0.13572(15) 0.3807(3)
H4_3 H 0.881170 0.141277 0.351721
C9_3 C 0.8381(3) 0.11184(19) 0.5138(4)
C11_3 C 0.7486(4) 0.02020(16) 0.4330(4)
C13_3 C 0.8840(3) 0.13877(15) 0.4669(3)
H6_3 H 0.899672 0.146462 0.495865
C14_3 C 0.8280(3) 0.10940(15) 0.4249(3)
C15_3 C 0.7533(4) 0.00880(15) 0.4789(4)
C17_3 C 0.8955(3) 0.14690(15) 0.4233(3)
C21_3 C 0.8505(3) 0.12003(16) 0.4676(3)
C24_3 C 0.7378(4) 0.00384(19) 0.3939(4)
C29_3 C 0.8146(3) 0.10418(17) 0.3338(3)
C30_3 C 0.8224(4) 0.1382(2) 0.5355(4)
H25_3 H 0.799156 0.147383 0.512528
H26_3 H 0.811095 0.132667 0.563850
H27_3 H 0.846556 0.151796 0.544481
C31_3 C 0.7276(4) 0.07205(17) 0.4262(4)
H28_3 H 0.697550 0.069938 0.426900
C32_3 C 0.7495(3) 0.09724(16) 0.4230(4)
H29_3 H 0.737559 0.116180 0.420462
C33_3 C 0.7958(4) 0.1289(2) 0.3004(4)
H30_3 H 0.776595 0.140803 0.315724
H31_3 H 0.819596 0.140794 0.293265
H32_3 H 0.779142 0.120771 0.270875
C34_3 C 0.8440(4) 0.0854(2) 0.3124(4)
H33_3 H 0.828061 0.077421 0.282374
H34_3 H 0.868778 0.096773 0.306326
H35_3 H 0.854603 0.069524 0.334197
H45_3 H 0.779992 0.004714 0.286563
C40_3 C 0.7503(5) 0.0142(2) 0.3419(4)
H46_3 H 0.761396 0.034544 0.344554
C43_3 C 0.7698(5) 0.0271(2) 0.5249(4)
H51_3 H 0.773441 0.047780 0.516186
C44_3 C 0.7423(6) 0.0254(3) 0.5599(5)
H52_3 H 0.754669 0.037327 0.587392
H53_3 H 0.713092 0.032435 0.546018
H54_3 H 0.740500 0.005257 0.569955
C45_3 C 0.8736(4) 0.0959(3) 0.5456(4)
H55_3 H 0.882016 0.079014 0.528821
H56_3 H 0.898788 0.108686 0.554727
H57_3 H 0.863327 0.089556 0.574096
C46_3 C 0.8159(5) 0.0135(3) 0.5471(5)
H58_3 H 0.834994 0.014467 0.523750
H59_3 H 0.829060 0.024306 0.575581
C47_3 C 0.7114(5) 0.0130(3) 0.3096(5)
H61_3 H 0.689311 0.024301 0.321474
H62_3 H 0.715539 0.020971 0.279099
C59_3 C 0.9280(2) 0.18832(15) 0.3872(2)
H78_3 H 0.902595 0.188889 0.363054
C70_3 C 0.9972(2) 0.20775(14) 0.4229(2)
C88_3 C 0.9609(2) 0.20828(14) 0.3874(2)
H94_3 H 0.958299 0.222401 0.363004
C98_3 C 0.9324(2) 0.16710(15) 0.4231(2)
C113_3 C 0.9689(2) 0.16747(15) 0.4590(2)
H114_3 H 0.971563 0.153729 0.483975
N6_3 N 0.7577(3) 0.05049(13) 0.4282(3)
C123_3 C 0.7976(2) 0.06091(11) 0.4275(3)
N7_3 N 0.7924(2) 0.08990(10) 0.4242(3)
Au3_3 Au 0.85136(2) 0.03880(2) 0.42887(4)
Cl3_3 Cl 0.9132(3) 0.0120(2) 0.4312(4)
H127_3 H 0.804493 0.0623241 0.466091
H128_3 H 0.810537 0.0971177 0.50544
H129_3 H 0.787755 0.0910736 0.34114
C4_4 C 0.1611(3) 0.11651(15) 0.1200(3)
C8_4 C 0.1269(3) 0.13572(15) 0.1193(3)
H4_4 H 0.118830 0.141277 0.148279
C11_4 C 0.2514(4) 0.02020(16) 0.0670(4)
C13_4 C 0.1160(3) 0.13877(15) 0.0331(3)
H6_4 H 0.100328 0.146462 0.004135
C14_4 C 0.1720(3) 0.10940(15) 0.0751(3)
C15_4 C 0.2467(4) 0.00880(15) 0.0211(4)
C17_4 C 0.1045(3) 0.14690(15) 0.0767(3)
C21_4 C 0.1495(3) 0.12003(16) 0.0324(3)
C24_4 C 0.2622(4) 0.00384(19) 0.1061(4)
C29_4 C 0.1854(3) 0.10418(17) 0.1662(3)
C31_4 C 0.2724(4) 0.07205(17) 0.0738(4)
H28_4 H 0.302450 0.069938 0.073100
C32_4 C 0.2505(3) 0.09724(16) 0.0770(4)
H29_4 H 0.262441 0.116180 0.079538
C33_4 C 0.2042(4) 0.1289(2) 0.1996(4)
H30_4 H 0.223405 0.140803 0.184276
H31_4 H 0.180404 0.140794 0.206735
H32_4 H 0.220858 0.120771 0.229125
C34_4 C 0.1560(4) 0.0854(2) 0.1876(4)
H33_4 H 0.171939 0.077421 0.217626
H34_4 H 0.131222 0.096773 0.193674
H35_4 H 0.145397 0.069524 0.165803
H45_4 H 0.220008 0.004714 0.213437
C40_4 C 0.2497(5) 0.0142(2) 0.1581(4)
H46_4 H 0.238604 0.034544 0.155446
C47_4 C 0.2886(5) 0.0130(3) 0.1904(5)
H61_4 H 0.310689 0.024301 0.178526
H62_4 H 0.284461 0.020971 0.220901
C59_4 C 0.0720(2) 0.18832(15) 0.1128(2)
H78_4 H 0.097405 0.188889 0.136946
C70_4 C 0.0028(2) 0.20775(14) 0.0771(2)
C88_4 C 0.0391(2) 0.20828(14) 0.1126(2)
H94_4 H 0.041701 0.222401 0.136996
C98_4 C 0.0676(2) 0.16710(15) 0.0769(2)
C113_4 C 0.0311(2) 0.16747(15) 0.0410(2)
H114_4 H 0.028437 0.153729 0.016025
N6_4 N 0.2423(3) 0.05049(13) 0.0718(3)
C123_4 C 0.2024(2) 0.06091(11) 0.0725(3)
N7_4 N 0.2076(2) 0.08990(10) 0.0758(3)
Au3_4 Au 0.14864(2) 0.03880(2) 0.07113(4)
Cl3_4 Cl 0.0868(3) 0.0120(2) 0.0688(4)
H127_4 H 0.195507 0.0623241 0.033909
H129_4 H 0.212245 0.0910736 0.15886
C9_4 C 0.1619(3) 0.11184(19) 0.9862(4)
C30_4 C 0.1776(4) 0.1382(2) 0.9645(4)
H25_4 H 0.200844 0.147383 0.987472
H26_4 H 0.188905 0.132667 0.936150
H27_4 H 0.153444 0.151796 0.955519
C43_4 C 0.2302(5) 0.0271(2) 0.9751(4)
H51_4 H 0.226559 0.047780 0.983814
C44_4 C 0.2577(6) 0.0254(3) 0.9401(5)
H52_4 H 0.245331 0.037327 0.912608
H53_4 H 0.286908 0.032435 0.953982
H54_4 H 0.259500 0.005257 0.930045
C45_4 C 0.1264(4) 0.0959(3) 0.9544(4)
H55_4 H 0.117984 0.079014 0.971179
H56_4 H 0.101212 0.108686 0.945273
H57_4 H 0.136673 0.089556 0.925904
C46_4 C 0.1841(5) 0.0135(3) 0.9529(5)
H58_4 H 0.165006 0.014467 0.976250
H59_4 H 0.170940 0.024306 0.924419
H128_4 H 0.189463 0.0971177 0.99456
H50_5 H 0.016224 0.721840 0.033186
H72_5 H 0.021686 0.748447 0.155072
H73_5 H 0.005296 0.750982 0.204402
H49_5 H 0.003944 0.721747 0.976428
C1_5 C 0.5194(3) 0.03023(13) 0.6134(3)
H1_5 H 0.489639 0.031851 0.598695
C6_5 C 0.5442(2) 0.05540(13) 0.6242(3)
C10_5 C 0.6522(4) 0.0242(2) 0.6850(4)
H5_5 H 0.655749 0.004655 0.700218
C12_5 C 0.6071(3) 0.02599(16) 0.6613(3)
C16_5 C 0.6817(4) 0.0247(3) 0.6505(5)
H7_5 H 0.711946 0.023416 0.667548
H8_5 H 0.677548 0.042736 0.632325
H9_5 H 0.675227 0.008214 0.628794
C20_5 C 0.5375(3) 0.00270(15) 0.6238(3)
C22_5 C 0.6665(5) 0.0465(3) 0.7259(5)
H16_5 H 0.697329 0.043654 0.739741
H17_5 H 0.649002 0.043698 0.750428
H18_5 H 0.662077 0.066178 0.713155
C23_5 C 0.5804(3) 0.00164(15) 0.6488(3)
C41_5 C 0.5874(3) 0.05271(14) 0.6480(3)
H47_5 H 0.604189 0.069793 0.655395
O11_3 O 0.47240(12) 0.18612(7) 0.60388(12)
O13_3 O 0.43814(13) 0.16720(8) 0.53569(12)
C65_5 C 0.46400(17) 0.16591(10) 0.57402(16)
C95_5 C 0.5252(2) 0.08404(12) 0.6103(2)
C96_5 C 0.5414(2) 0.10909(13) 0.6340(2)
H102_5 H 0.566215 0.107708 0.658800
C100_5 C 0.4714(2) 0.11339(13) 0.5615(2)
H105_5 H 0.447031 0.114832 0.536173
C102_5 C 0.4900(2) 0.08639(14) 0.5725(2)
H107_5 H 0.478939 0.069821 0.554619
C103_5 C 0.5228(2) 0.13587(12) 0.6231(2)
H108_5 H 0.534114 0.152508 0.640610
C105_5 C 0.48680(19) 0.13815(11) 0.58551(19)
Zn5 Zn 0.43406(2) 0.21940(2) 0.61025(2)
Zn10_3 Zn 0.38683(2) 0.19188(2) 0.51538(2)
C2_5 C 0.8493(2) 0.7700(2) 0.16344(16)
C3_5 C 0.91597(19) 0.73739(18) 0.21747(16)
H2_5 H 0.937796 0.725515 0.235612
C5_5 C 0.9179(2) 0.74350(19) 0.17007(17)
C26_5 C 0.9091(2) 0.79081(17) 0.08448(18)
H20_5 H 0.920967 0.806097 0.105074
C27_5 C 0.9103(2) 0.78786(15) 0.03785(17)
H21_5 H 0.923401 0.800824 0.019080
C35_5 C 0.9569(2) 0.7333(2) 0.1498(2)
H36_5 H 0.949757 0.735792 0.114540
C37_5 C 0.8844(2) 0.75946(16) 0.14459(15)
C38_5 C 0.9677(4) 0.7045(3) 0.1595(4)
H40_5 H 0.992925 0.699402 0.145548
H41_5 H 0.942962 0.692218 0.145817
H42_5 H 0.974843 0.701598 0.193926
C42_5 C 0.9954(2) 0.72879(19) 0.0055(2)
H48_5 H 0.995143 0.749977 0.005427
C48_5 C 0.8122(3) 0.7868(2) 0.1342(2)
H64_5 H 0.812823 0.784258 0.099744
C49_5 C 0.7677(3) 0.7765(3) 0.1438(3)
H65_5 H 0.744336 0.787775 0.124411
H66_5 H 0.766812 0.779188 0.177482
H67_5 H 0.763713 0.755959 0.135635
C50_5 C 0.8191(4) 0.8190(3) 0.1474(4)
H68_5 H 0.795370 0.830479 0.128927
H69_5 H 0.846931 0.825550 0.140384
H70_5 H 0.819236 0.821558 0.181361
C51_5 C 0.9970(3) 0.7536(3) 0.1700(3)
H71_5 H 0.988965 0.773794 0.162866
O5_3 O 0.89286(11) 0.70495(7) 0.45303(10)
O6_3 O 0.87261(12) 0.75082(8) 0.46048(10)
C54_5 C 0.89705(17) 0.71292(13) 0.35881(15)
H75_5 H 0.905598 0.694694 0.372848
C58_5 C 0.89759(18) 0.71753(15) 0.31110(15)
H77_5 H 0.907891 0.702763 0.293067
C60_5 C 0.88330(14) 0.72975(11) 0.43734(12)
C71_5 C 0.88407(16) 0.73483(12) 0.38601(13)
C87_5 C 0.9498(3) 0.68527(19) 0.0080(3)
H91_5 H 0.971915 0.678285 0.034516
H93_5 H 0.921119 0.678150 0.011490
C89_5 C 0.9496(2) 0.71747(16) 0.00784(17)
H95_5 H 0.942376 0.724103 0.038556
C92_5 C 0.88317(18) 0.74358(15) 0.28955(15)
C99_5 C 0.87104(19) 0.76091(14) 0.36518(15)
H104_5 H 0.862822 0.776113 0.383908
C109_5 C 0.88287(19) 0.74832(17) 0.23854(15)
C112_5 C 0.8504(2) 0.76456(18) 0.21114(16)
H113_5 H 0.827955 0.772289 0.225519
C116_5 C 0.8697(2) 0.76539(16) 0.31657(15)
H118_5 H 0.859674 0.783283 0.302249
N4_5 N 0.88881(16) 0.76237(12) 0.02262(12)
C122_5 C 0.87416(17) 0.74839(12) 0.05847(14)
N5_5 N 0.88640(16) 0.76621(11) 0.09589(12)
Au2_5 Au 0.84390(2) 0.71098(2) 0.05536(2)
Cl2_5 Cl 0.80837(10) 0.66723(6) 0.04895(11)
Zn7_2 Zn 0.87576(2) 0.75889(2) 0.53030(2)
Zn9_2 Zn 0.88683(2) 0.69188(2) 0.51538(2)
H126_5 H 0.843065 0.759577 0.0492802
C4_5 C 0.6611(3) 0.38349(15) 0.6200(3)
C7_5 C 0.5089(4) 0.97695(17) 0.6111(4)
H3_5 H 0.526336 0.959373 0.622792
C8_5 C 0.6269(3) 0.36428(15) 0.6193(3)
H4_5 H 0.618830 0.358723 0.648279
C9_5 C 0.6619(3) 0.38816(19) 0.4862(4)
C11_5 C 0.7514(4) 0.47980(16) 0.5670(4)
C13_5 C 0.6160(3) 0.36123(15) 0.5331(3)
H6_5 H 0.600328 0.353538 0.504135
C14_5 C 0.6720(3) 0.39060(15) 0.5751(3)
C15_5 C 0.7467(4) 0.49120(15) 0.5211(4)
C17_5 C 0.6045(3) 0.35310(15) 0.5767(3)
C18_5 C 0.4680(5) 0.9777(2) 0.6357(5)
H10_5 H 0.450066 0.960513 0.626522
H11_5 H 0.450807 0.995112 0.625673
H12_5 H 0.477701 0.977985 0.670284
C19_5 C 0.4927(4) 0.97336(19) 0.5583(4)
H13_5 H 0.474241 0.956135 0.552531
H14_5 H 0.517604 0.971184 0.542463
H15_5 H 0.475824 0.990447 0.545790
C21_5 C 0.6495(3) 0.37997(16) 0.5324(3)
C24_5 C 0.7622(4) 0.49616(19) 0.6061(4)
C25_5 C 0.7722(4) 0.52480(18) 0.6015(4)
H19_5 H 0.781184 0.536228 0.629100
C28_5 C 0.5708(3) 0.8670(2) 0.6649(3)
H22_5 H 0.539309 0.866377 0.663543
H23_5 H 0.584920 0.877042 0.693854
H24_5 H 0.582140 0.847214 0.665153
C29_5 C 0.6854(3) 0.39582(17) 0.6662(3)
C30_5 C 0.6776(4) 0.3618(2) 0.4645(4)
H25_5 H 0.700844 0.352617 0.487472
H26_5 H 0.688905 0.367333 0.436150
H27_5 H 0.653444 0.348204 0.455519
C31_5 C 0.7724(4) 0.42795(17) 0.5738(4)
H28_5 H 0.802450 0.430062 0.573100
C32_5 C 0.7505(3) 0.40276(16) 0.5770(4)
H29_5 H 0.762441 0.383820 0.579538
C33_5 C 0.7042(4) 0.3711(2) 0.6996(4)
H30_5 H 0.723405 0.359197 0.684276
H31_5 H 0.680404 0.359206 0.706735
H32_5 H 0.720858 0.379229 0.729125
C34_5 C 0.6560(4) 0.4146(2) 0.6876(4)
H33_5 H 0.671939 0.422579 0.717626
H34_5 H 0.631222 0.403227 0.693674
H35_5 H 0.645397 0.430476 0.665803
C36_5 C 0.7467(4) 0.9509(2) 0.6209(4)
H37_5 H 0.762793 0.968294 0.633333
H38_5 H 0.725249 0.955876 0.592389
H39_5 H 0.766983 0.936465 0.612787
C39_5 C 0.7215(6) 0.5039(3) 0.6826(5)
H43_5 H 0.692154 0.504930 0.663116
H44_5 H 0.733720 0.523428 0.687370
H45_5 H 0.720008 0.495286 0.713437
C40_5 C 0.7497(5) 0.4858(2) 0.6581(4)
H46_5 H 0.738604 0.465456 0.655446
O1_5 O 0.81197(17) 0.76607(12) 0.52578(15)
C43_5 C 0.7302(5) 0.4729(2) 0.4751(4)
H51_5 H 0.726559 0.452220 0.483814
C44_5 C 0.7577(6) 0.4746(3) 0.4401(5)
H52_5 H 0.745331 0.462673 0.412608
H53_5 H 0.786908 0.467565 0.453982
H54_5 H 0.759500 0.494743 0.430045
C45_5 C 0.6264(4) 0.4041(3) 0.4544(4)
H55_5 H 0.617984 0.420986 0.471179
H56_5 H 0.601212 0.391314 0.445273
H57_5 H 0.636673 0.410444 0.425904
C46_5 C 0.6841(5) 0.4865(3) 0.4529(5)
H58_5 H 0.665006 0.485533 0.476250
H59_5 H 0.670940 0.475694 0.424419
H60_5 H 0.687879 0.506778 0.444468
C47_5 C 0.7886(5) 0.4870(3) 0.6904(5)
H61_5 H 0.810689 0.475699 0.678526
H62_5 H 0.784461 0.479029 0.720901
H63_5 H 0.798174 0.507171 0.694833
O2_5 O 0.8788(3) 0.78164(16) 0.6019(3)
O3_5 O 0.8726(3) 0.80667(14) 0.5095(4)
O4_5 O 0.8903(4) 0.8334(2) 0.5952(4)
N1_5 N 0.8853(4) 0.8109(2) 0.5677(5)
Zn1_5 Zn 0.83150(2) 0.71263(2) 0.59001(2)
Zn2_3 Zn 0.93406(2) 0.71940(2) 0.61025(2)
O7_5 O 0.85014(13) 0.71056(9) 0.65900(12)
O8_5 O 0.84179(13) 0.66246(7) 0.51181(11)
O9_5 O 0.88181(9) 0.72051(6) 0.56238(9)
O10_5 O 0.92431(13) 0.71580(8) 0.67452(10)
O12_3 O 0.47278(12) 0.25219(8) 0.61015(12)
C52_5 C 0.92539(18) 0.72169(14) 0.81871(15)
H74_5 H 0.951912 0.722122 0.841289
C53_5 C 0.88663(19) 0.71347(12) 0.68610(15)
C55_5 C 0.92628(19) 0.71756(13) 0.77125(15)
H76_5 H 0.953253 0.715834 0.760945
C56_5 C 0.81874(18) 0.65699(9) 0.54235(16)
O14_5 O 0.80858(12) 0.67431(7) 0.57209(12)
C57_5 C 0.85383(18) 0.76265(14) 0.93924(14)
C59_5 C 0.5720(2) 0.31168(15) 0.6128(2)
H78_5 H 0.597405 0.311111 0.636946
O15_5 O 0.78607(13) 0.74110(8) 0.57904(16)
C61_5 C 0.71939(18) 0.83795(12) 0.5900(2)
C62_5 C 0.8465(2) 0.72236(16) 0.80073(17)
H79_5 H 0.819479 0.723404 0.811036
C63_5 C 0.8212(2) 0.78477(16) 0.94969(18)
H80_5 H 0.836969 0.798154 0.974558
C64_5 C 0.72985(19) 0.78665(12) 0.5883(2)
H81_5 H 0.721698 0.767784 0.596443
C66_5 C 0.88482(18) 0.73314(14) 0.88388(14)
O16_3 O 0.43627(16) 0.27084(11) 0.54233(15)
C67_5 C 0.91631(19) 0.73047(14) 0.96781(15)
C68_5 C 0.7525(2) 0.84168(13) 0.5658(2)
H82_5 H 0.760840 0.860627 0.558419
C69_5 C 0.7631(2) 0.78974(13) 0.5642(2)
C70_5 C 0.5028(2) 0.29225(14) 0.5771(2)
C72_5 C 0.6513(2) 0.86226(12) 0.6051(2)
H83_5 H 0.635719 0.845373 0.593100
C73_5 C 0.91602(19) 0.72185(14) 0.92140(15)
H84_5 H 0.936938 0.708293 0.914948
C74_5 C 0.6964(2) 0.86333(12) 0.6062(2)
C75_5 C 0.70771(18) 0.81028(11) 0.6014(2)
H85_5 H 0.684578 0.807561 0.618037
C76_5 C 0.8472(2) 0.71802(15) 0.75334(17)
H86_5 H 0.820651 0.716454 0.730953
C77_5 C 0.7741(2) 0.81775(14) 0.5520(2)
H87_5 H 0.796389 0.820440 0.534132
C78_5 C 0.6538(3) 0.90938(12) 0.6387(2)
C79_5 C 0.88682(19) 0.71595(13) 0.73840(15)
C80_5 C 0.85412(18) 0.75308(14) 0.89324(14)
H88_5 H 0.832928 0.760300 0.867687
C81_5 C 0.88546(19) 0.75099(14) 0.97491(14)
C82_5 C 0.88572(18) 0.72524(15) 0.83391(15)
C83_5 C 0.8154(2) 0.60553(11) 0.5142(2)
H89_5 H 0.831100 0.610983 0.490304
C84_5 C 0.6984(3) 0.91184(12) 0.6400(2)
C85_5 C 0.7905(2) 0.76455(14) 0.5542(2)
C86_5 C 0.7781(3) 0.61813(13) 0.5764(2)
H90_5 H 0.768509 0.632497 0.595708
H92_5 H 0.956532 0.678185 0.978022
C88_5 C 0.5391(2) 0.29172(14) 0.6126(2)
H94_5 H 0.541701 0.277599 0.636996
C90_5 C 0.4677(2) 0.27039(14) 0.57642(19)
C91_5 C 0.8035(2) 0.62629(10) 0.5444(2)
C93_5 C 0.7851(2) 0.77073(19) 0.9695(2)
H96_5 H 0.764598 0.785582 0.975810
H97_5 H 0.797340 0.760655 0.999041
H98_5 H 0.769750 0.756824 0.946367
C94_5 C 0.8012(2) 0.80336(17) 0.9061(2)
H99_5 H 0.824604 0.812546 0.893096
H100_5 H 0.782508 0.818295 0.915783
H101_5 H 0.783917 0.791000 0.881835
C97_5 C 0.4986(2) 0.31262(15) 0.5410(2)
H103_5 H 0.473371 0.312785 0.516564
C98_5 C 0.5676(2) 0.33290(15) 0.5769(2)
C101_5 C 0.6273(3) 0.93610(15) 0.7031(3)
H106_5 H 0.638321 0.923160 0.728262
C104_5 C 0.7693(4) 0.53729(15) 0.5572(3)
C106_5 C 0.8042(2) 0.57655(12) 0.5193(3)
H109_5 H 0.813483 0.562297 0.499568
C107_5 C 0.6287(2) 0.88499(13) 0.6209(2)
C108_5 C 0.7229(3) 0.93833(14) 0.6590(3)
H110_5 H 0.701548 0.953044 0.665908
C110_5 C 0.7189(2) 0.88861(12) 0.6232(2)
H111_5 H 0.749235 0.889836 0.623185
C111_5 C 0.7661(3) 0.58944(14) 0.5814(3)
H112_5 H 0.748861 0.584214 0.603907
C113_5 C 0.5311(2) 0.33253(15) 0.5410(2)
H114_5 H 0.528437 0.346271 0.516025
C114_5 C 0.7553(3) 0.93258(16) 0.7042(3)
H115_5 H 0.770488 0.950548 0.715296
H116_5 H 0.776422 0.918104 0.698205
H117_5 H 0.739912 0.925335 0.728577
C115_5 C 0.7801(3) 0.56835(13) 0.5522(3)
C117_5 C 0.5807(3) 0.88375(17) 0.6197(3)
H119_5 H 0.569799 0.904016 0.620764
C118_5 C 0.6047(3) 0.96083(15) 0.7067(3)
H120_5 H 0.594663 0.967963 0.733779
C119_5 C 0.5561(3) 0.8695(2) 0.5748(3)
H121_5 H 0.524904 0.869201 0.575536
H122_5 H 0.566579 0.849702 0.572768
H123_5 H 0.560812 0.880547 0.547043
C120_5 C 0.7577(3) 0.52031(15) 0.5176(3)
H124_5 H 0.757218 0.528498 0.487115
N2_5 N 0.6314(2) 0.93318(11) 0.65698(19)
C121_5 C 0.6158(3) 0.95632(13) 0.6307(2)
N3_5 N 0.5994(3) 0.97363(12) 0.6608(2)
Au1_5 Au 0.61018(2) 0.96135(2) 0.56153(2)
Cl1_5 Cl 0.60041(9) 0.96612(6) 0.48134(8)
N6_5 N 0.7423(3) 0.44951(13) 0.5718(3)
C123_5 C 0.7024(2) 0.43909(11) 0.5725(3)
N7_5 N 0.7076(2) 0.41010(10) 0.5758(3)
Au3_5 Au 0.64864(2) 0.46120(2) 0.57113(4)
Cl3_5 Cl 0.5868(3) 0.4880(2) 0.5688(4)
Zn8_3 Zn 0.37576(2) 0.25889(2) 0.53030(2)
O19_3 O 0.97240(12) 0.68612(7) 0.60388(12)
O20_3 O 0.97278(12) 0.75219(8) 0.61015(12)
O21_3 O 0.93814(13) 0.66720(8) 0.53569(12)
O22_3 O 0.93627(16) 0.77084(11) 0.54233(15)
H125_5 H 0.647222 0.967213 0.638032
H127_5 H 0.695507 0.437676 0.533909
H128_5 H 0.689463 0.402882 0.49456
H129_5 H 0.712245 0.408926 0.65886
C2_6 C 0.3493(2) 0.2700(2) 0.16344(16)
C3_6 C 0.41597(19) 0.23739(18) 0.21747(16)
H2_6 H 0.437796 0.225515 0.235612
C5_6 C 0.4179(2) 0.24350(19) 0.17007(17)
C26_6 C 0.4091(2) 0.29081(17) 0.08448(18)
H20_6 H 0.420967 0.306097 0.105074
C27_6 C 0.4103(2) 0.28786(15) 0.03785(17)
H21_6 H 0.423401 0.300824 0.019080
C35_6 C 0.4569(2) 0.2333(2) 0.1498(2)
H36_6 H 0.449757 0.235792 0.114540
C37_6 C 0.3844(2) 0.25946(16) 0.14459(15)
C38_6 C 0.4677(4) 0.2045(3) 0.1595(4)
H40_6 H 0.492925 0.199402 0.145548
H41_6 H 0.442962 0.192218 0.145817
H42_6 H 0.474843 0.201598 0.193926
C42_6 C 0.4954(2) 0.22879(19) 0.0055(2)
H48_6 H 0.495143 0.249977 0.005427
H50_6 H 0.516224 0.221840 0.033186
C48_6 C 0.3122(3) 0.2868(2) 0.1342(2)
H64_6 H 0.312823 0.284258 0.099744
C49_6 C 0.2677(3) 0.2765(3) 0.1438(3)
H65_6 H 0.244336 0.287775 0.124411
H66_6 H 0.266812 0.279188 0.177482
H67_6 H 0.263713 0.255959 0.135635
C50_6 C 0.3191(4) 0.3190(3) 0.1474(4)
H68_6 H 0.295370 0.330479 0.128927
H69_6 H 0.346931 0.325550 0.140384
H70_6 H 0.319236 0.321558 0.181361
C51_6 C 0.4970(3) 0.2536(3) 0.1700(3)
H71_6 H 0.488965 0.273794 0.162866
H72_6 H 0.521686 0.248447 0.155072
H73_6 H 0.505296 0.250982 0.204402
O5_4 O 0.39286(11) 0.20495(7) 0.45303(10)
O6_4 O 0.37261(12) 0.25082(8) 0.46048(10)
C54_6 C 0.39705(17) 0.21292(13) 0.35881(15)
H75_6 H 0.405598 0.194694 0.372848
C58_6 C 0.39759(18) 0.21753(15) 0.31110(15)
H77_6 H 0.407891 0.202763 0.293067
C60_6 C 0.38330(14) 0.22975(11) 0.43734(12)
C71_6 C 0.38407(16) 0.23483(12) 0.38601(13)
C87_6 C 0.4498(3) 0.18527(19) 0.0080(3)
H91_6 H 0.471915 0.178285 0.034516
H93_6 H 0.421119 0.178150 0.011490
C89_6 C 0.4496(2) 0.21747(16) 0.00784(17)
H95_6 H 0.442376 0.224103 0.038556
C92_6 C 0.38317(18) 0.24358(15) 0.28955(15)
C99_6 C 0.37104(19) 0.26091(14) 0.36518(15)
H104_6 H 0.362822 0.276113 0.383908
C109_6 C 0.38287(19) 0.24832(17) 0.23854(15)
C112_6 C 0.3504(2) 0.26456(18) 0.21114(16)
H113_6 H 0.327955 0.272289 0.225519
C116_6 C 0.3697(2) 0.26539(16) 0.31657(15)
H118_6 H 0.359674 0.283283 0.302249
N4_6 N 0.38881(16) 0.26237(12) 0.02262(12)
C122_6 C 0.37416(17) 0.24839(12) 0.05847(14)
N5_6 N 0.38640(16) 0.26621(11) 0.09589(12)
Au2_6 Au 0.34390(2) 0.21098(2) 0.05536(2)
Cl2_6 Cl 0.30837(10) 0.16723(6) 0.04895(11)
H126_6 H 0.343065 0.259577 0.0492802
C1_6 C 0.0194(3) 0.53023(13) 0.6134(3)
C6_6 C 0.0442(2) 0.55540(13) 0.6242(3)
C7_6 C 0.0089(4) 0.47695(17) 0.6111(4)
H3_6 H 0.026336 0.459373 0.622792
C10_6 C 0.1522(4) 0.5242(2) 0.6850(4)
H5_6 H 0.155749 0.504655 0.700218
C12_6 C 0.1071(3) 0.52599(16) 0.6613(3)
C16_6 C 0.1817(4) 0.5247(3) 0.6505(5)
H7_6 H 0.211946 0.523416 0.667548
H8_6 H 0.177548 0.542736 0.632325
H9_6 H 0.175227 0.508214 0.628794
H14_6 H 0.017604 0.471184 0.542463
C20_6 C 0.0375(3) 0.50270(15) 0.6238(3)
C22_6 C 0.1665(5) 0.5465(3) 0.7259(5)
H16_6 H 0.197329 0.543654 0.739741
H17_6 H 0.149002 0.543698 0.750428
H18_6 H 0.162077 0.566178 0.713155
C23_6 C 0.0804(3) 0.50164(15) 0.6488(3)
C25_6 C 0.2722(4) 0.02480(18) 0.6015(4)
H19_6 H 0.281184 0.036228 0.629100
C28_6 C 0.0708(3) 0.3670(2) 0.6649(3)
H22_6 H 0.039309 0.366377 0.663543
H23_6 H 0.084920 0.377042 0.693854
H24_6 H 0.082140 0.347214 0.665153
C36_6 C 0.2467(4) 0.4509(2) 0.6209(4)
H37_6 H 0.262793 0.468294 0.633333
H38_6 H 0.225249 0.455876 0.592389
H39_6 H 0.266983 0.436465 0.612787
C39_6 C 0.2215(6) 0.0039(3) 0.6826(5)
H43_6 H 0.192154 0.004930 0.663116
H44_6 H 0.233720 0.023428 0.687370
C41_6 C 0.0874(3) 0.55271(14) 0.6480(3)
H47_6 H 0.104189 0.569793 0.655395
O1_6 O 0.31197(17) 0.26607(12) 0.52578(15)
H49_6 H 0.503944 0.221747 0.976428
H60_6 H 0.187879 0.006778 0.444468
H63_6 H 0.298174 0.007171 0.694833
O2_6 O 0.3788(3) 0.28164(16) 0.6019(3)
O3_6 O 0.3726(3) 0.30667(14) 0.5095(4)
O4_6 O 0.3903(4) 0.3334(2) 0.5952(4)
N1_6 N 0.3853(4) 0.3109(2) 0.5677(5)
Zn1_6 Zn 0.33150(2) 0.21263(2) 0.59001(2)
O7_6 O 0.35014(13) 0.21056(9) 0.65900(12)
O8_6 O 0.34179(13) 0.16246(7) 0.51181(11)
O9_6 O 0.38181(9) 0.22051(6) 0.56238(9)
O10_6 O 0.42431(13) 0.21580(8) 0.67452(10)
C52_6 C 0.42539(18) 0.22169(14) 0.81871(15)
H74_6 H 0.451912 0.222122 0.841289
C53_6 C 0.38663(19) 0.21347(12) 0.68610(15)
C55_6 C 0.42628(19) 0.21756(13) 0.77125(15)
H76_6 H 0.453253 0.215834 0.760945
C56_6 C 0.31874(18) 0.15699(9) 0.54235(16)
O14_6 O 0.30858(12) 0.17431(7) 0.57209(12)
C57_6 C 0.35383(18) 0.26265(14) 0.93924(14)
O15_6 O 0.28607(13) 0.24110(8) 0.57904(16)
C61_6 C 0.21939(18) 0.33795(12) 0.5900(2)
C62_6 C 0.3465(2) 0.22236(16) 0.80073(17)
H79_6 H 0.319479 0.223404 0.811036
C63_6 C 0.3212(2) 0.28477(16) 0.94969(18)
H80_6 H 0.336969 0.298154 0.974558
C64_6 C 0.22985(19) 0.28665(12) 0.5883(2)
H81_6 H 0.221698 0.267784 0.596443
C66_6 C 0.38482(18) 0.23314(14) 0.88388(14)
C67_6 C 0.41631(19) 0.23047(14) 0.96781(15)
C68_6 C 0.2525(2) 0.34168(13) 0.5658(2)
H82_6 H 0.260840 0.360627 0.558419
C69_6 C 0.2631(2) 0.28974(13) 0.5642(2)
C72_6 C 0.1513(2) 0.36226(12) 0.6051(2)
H83_6 H 0.135719 0.345373 0.593100
C73_6 C 0.41602(19) 0.22185(14) 0.92140(15)
H84_6 H 0.436938 0.208293 0.914948
C74_6 C 0.1964(2) 0.36333(12) 0.6062(2)
C75_6 C 0.20771(18) 0.31028(11) 0.6014(2)
H85_6 H 0.184578 0.307561 0.618037
C76_6 C 0.3472(2) 0.21802(15) 0.75334(17)
H86_6 H 0.320651 0.216454 0.730953
C77_6 C 0.2741(2) 0.31775(14) 0.5520(2)
H87_6 H 0.296389 0.320440 0.534132
C78_6 C 0.1538(3) 0.40938(12) 0.6387(2)
C79_6 C 0.38682(19) 0.21595(13) 0.73840(15)
C80_6 C 0.35412(18) 0.25308(14) 0.89324(14)
H88_6 H 0.332928 0.260300 0.867687
C81_6 C 0.38546(19) 0.25099(14) 0.97491(14)
C82_6 C 0.38572(18) 0.22524(15) 0.83391(15)
C83_6 C 0.3154(2) 0.10553(11) 0.5142(2)
H89_6 H 0.331100 0.110983 0.490304
C84_6 C 0.1984(3) 0.41184(12) 0.6400(2)
C85_6 C 0.2905(2) 0.26455(14) 0.5542(2)
C86_6 C 0.2781(3) 0.11813(13) 0.5764(2)
H90_6 H 0.268509 0.132497 0.595708
H92_6 H 0.456532 0.178185 0.978022
C91_6 C 0.3035(2) 0.12629(10) 0.5444(2)
C93_6 C 0.2851(2) 0.27073(19) 0.9695(2)
H96_6 H 0.264598 0.285582 0.975810
H97_6 H 0.297340 0.260655 0.999041
H98_6 H 0.269750 0.256824 0.946367
C94_6 C 0.3012(2) 0.30336(17) 0.9061(2)
H99_6 H 0.324604 0.312546 0.893096
H100_6 H 0.282508 0.318295 0.915783
H101_6 H 0.283917 0.291000 0.881835
C95_6 C 0.0252(2) 0.58404(12) 0.6103(2)
C96_6 C 0.0414(2) 0.60909(13) 0.6340(2)
H102_6 H 0.066215 0.607708 0.658800
C101_6 C 0.1273(3) 0.43610(15) 0.7031(3)
H106_6 H 0.138321 0.423160 0.728262
C103_6 C 0.0228(2) 0.63587(12) 0.6231(2)
H108_6 H 0.034114 0.652508 0.640610
C104_6 C 0.2693(4) 0.03729(15) 0.5572(3)
C106_6 C 0.3042(2) 0.07655(12) 0.5193(3)
H109_6 H 0.313483 0.062297 0.499568
C107_6 C 0.1287(2) 0.38499(13) 0.6209(2)
C108_6 C 0.2229(3) 0.43833(14) 0.6590(3)
H110_6 H 0.201548 0.453044 0.665908
C110_6 C 0.2189(2) 0.38861(12) 0.6232(2)
H111_6 H 0.249235 0.389836 0.623185
C111_6 C 0.2661(3) 0.08944(14) 0.5814(3)
H112_6 H 0.248861 0.084214 0.603907
C114_6 C 0.2553(3) 0.43258(16) 0.7042(3)
H115_6 H 0.270488 0.450548 0.715296
H116_6 H 0.276422 0.418104 0.698205
H117_6 H 0.239912 0.425335 0.728577
C115_6 C 0.2801(3) 0.06835(13) 0.5522(3)
C117_6 C 0.0807(3) 0.38375(17) 0.6197(3)
H119_6 H 0.069799 0.404016 0.620764
C118_6 C 0.1047(3) 0.46083(15) 0.7067(3)
H120_6 H 0.094663 0.467963 0.733779
C119_6 C 0.0561(3) 0.3695(2) 0.5748(3)
H121_6 H 0.024904 0.369201 0.575536
H122_6 H 0.066579 0.349702 0.572768
H123_6 H 0.060812 0.380547 0.547043
C120_6 C 0.2577(3) 0.02031(15) 0.5176(3)
H124_6 H 0.257218 0.028498 0.487115
N2_6 N 0.1314(2) 0.43318(11) 0.65698(19)
C121_6 C 0.1158(3) 0.45632(13) 0.6307(2)
N3_6 N 0.0994(3) 0.47363(12) 0.6608(2)
Au1_6 Au 0.11018(2) 0.46135(2) 0.56153(2)
Cl1_6 Cl 0.10041(9) 0.46612(6) 0.48134(8)
H125_6 H 0.147222 0.467213 0.638032
H1_6 H 0.989639 0.531851 0.598695
C18_6 C 0.9680(5) 0.4777(2) 0.6357(5)
H10_6 H 0.950066 0.460513 0.626522
H11_6 H 0.950807 0.495112 0.625673
H12_6 H 0.977701 0.477985 0.670284
C19_6 C 0.9927(4) 0.47336(19) 0.5583(4)
H13_6 H 0.974241 0.456135 0.552531
H15_6 H 0.975824 0.490447 0.545790
C65_6 C 0.96400(17) 0.66591(10) 0.57402(16)
C100_6 C 0.9714(2) 0.61339(13) 0.5615(2)
H105_6 H 0.947031 0.614832 0.536173
C102_6 C 0.9900(2) 0.58639(14) 0.5725(2)
H107_6 H 0.978939 0.569821 0.554619
C105_6 C 0.98680(19) 0.63815(11) 0.58551(19)
C90_6 C 0.9677(2) 0.77039(14) 0.57642(19)
C97_6 C 0.9986(2) 0.81262(15) 0.5410(2)
H103_6 H 0.973371 0.812785 0.516564
C1_7 C 0.4806(3) 0.03023(13) 0.8866(3)
H1_7 H 0.510361 0.031851 0.901305
C6_7 C 0.4558(2) 0.05540(13) 0.8758(3)
C10_7 C 0.3478(4) 0.0242(2) 0.8150(4)
H5_7 H 0.344251 0.004655 0.799782
C12_7 C 0.3929(3) 0.02599(16) 0.8387(3)
C16_7 C 0.3183(4) 0.0247(3) 0.8495(5)
H7_7 H 0.288054 0.023416 0.832452
H8_7 H 0.322452 0.042736 0.867675
H9_7 H 0.324773 0.008214 0.871206
C20_7 C 0.4625(3) 0.00270(15) 0.8762(3)
C22_7 C 0.3335(5) 0.0465(3) 0.7741(5)
H16_7 H 0.302671 0.043654 0.760259
H17_7 H 0.350998 0.043698 0.749572
H18_7 H 0.337923 0.066178 0.786845
C23_7 C 0.4196(3) 0.00164(15) 0.8512(3)
C41_7 C 0.4126(3) 0.05271(14) 0.8520(3)
H47_7 H 0.395811 0.069793 0.844605
O11_4 O 0.52760(12) 0.18612(7) 0.89612(12)
O13_4 O 0.56186(13) 0.16720(8) 0.96431(12)
C65_7 C 0.53600(17) 0.16591(10) 0.92598(16)
C95_7 C 0.4748(2) 0.08404(12) 0.8897(2)
C96_7 C 0.4586(2) 0.10909(13) 0.8660(2)
H102_7 H 0.433785 0.107708 0.841200
C100_7 C 0.5286(2) 0.11339(13) 0.9385(2)
H105_7 H 0.552969 0.114832 0.963827
C102_7 C 0.5100(2) 0.08639(14) 0.9275(2)
H107_7 H 0.521061 0.069821 0.945381
C103_7 C 0.4772(2) 0.13587(12) 0.8769(2)
H108_7 H 0.465886 0.152508 0.859390
C105_7 C 0.51320(19) 0.13815(11) 0.91449(19)
Zn5_2 Zn 0.56594(2) 0.21940(2) 0.88975(2)
Zn10_4 Zn 0.61317(2) 0.19188(2) 0.98462(2)
C9_6 C 0.3381(3) 0.38816(19) 0.0138(4)
C30_6 C 0.3224(4) 0.3618(2) 0.0355(4)
H25_6 H 0.299156 0.352617 0.012528
H26_6 H 0.311095 0.367333 0.063850
H27_6 H 0.346556 0.348204 0.044481
C43_6 C 0.2698(5) 0.4729(2) 0.0249(4)
H51_6 H 0.273441 0.452220 0.016186
C44_6 C 0.2423(6) 0.4746(3) 0.0599(5)
H52_6 H 0.254669 0.462673 0.087392
H53_6 H 0.213092 0.467565 0.046018
H54_6 H 0.240500 0.494743 0.069955
C45_6 C 0.3736(4) 0.4041(3) 0.0456(4)
H55_6 H 0.382016 0.420986 0.028821
H56_6 H 0.398788 0.391314 0.054727
H57_6 H 0.363327 0.410444 0.074096
C46_6 C 0.3159(5) 0.4865(3) 0.0471(5)
H58_6 H 0.334994 0.485533 0.023750
H59_6 H 0.329060 0.475694 0.075581
H60_7 H 0.312121 0.506778 0.055532
H89_7 H 0.168900 0.610983 0.009696
H109_7 H 0.186517 0.562297 0.000432
H124_7 H 0.242782 0.528498 0.012885
Cl1_7 Cl 0.39959(9) 0.96612(6) 0.01866(8)
O17_3 O 0.10714(11) 0.70495(7) 0.04697(10)
O18_3 O 0.12739(12) 0.75082(8) 0.03952(10)
H128_6 H 0.310537 0.402882 0.00543973
C2_7 C 0.1507(2) 0.7700(2) 0.33656(16)
C3_7 C 0.08403(19) 0.73739(18) 0.28253(16)
H2_7 H 0.062204 0.725515 0.264388
C4_6 C 0.3389(3) 0.38349(15) 0.8800(3)
C5_7 C 0.0821(2) 0.74350(19) 0.32993(17)
C7_7 C 0.4911(4) 0.97695(17) 0.8889(4)
H3_7 H 0.473664 0.959373 0.877208
C8_6 C 0.3731(3) 0.36428(15) 0.8807(3)
H4_6 H 0.381170 0.358723 0.851721
C11_6 C 0.2486(4) 0.47980(16) 0.9330(4)
C13_6 C 0.3840(3) 0.36123(15) 0.9669(3)
H6_6 H 0.399672 0.353538 0.995865
C14_6 C 0.3280(3) 0.39060(15) 0.9249(3)
C15_6 C 0.2533(4) 0.49120(15) 0.9789(4)
C17_6 C 0.3955(3) 0.35310(15) 0.9233(3)
C18_7 C 0.5320(5) 0.9777(2) 0.8643(5)
H10_7 H 0.549934 0.960513 0.873478
H11_7 H 0.549193 0.995112 0.874327
H12_7 H 0.522299 0.977985 0.829716
C19_7 C 0.5073(4) 0.97336(19) 0.9417(4)
H13_7 H 0.525759 0.956135 0.947469
H14_7 H 0.482396 0.971184 0.957537
H15_7 H 0.524176 0.990447 0.954210
C21_6 C 0.3505(3) 0.37997(16) 0.9676(3)
C24_6 C 0.2378(4) 0.49616(19) 0.8939(4)
C25_7 C 0.2278(4) 0.52480(18) 0.8985(4)
H19_7 H 0.218816 0.536228 0.870900
C26_7 C 0.0909(2) 0.79081(17) 0.41552(18)
H20_7 H 0.079033 0.806097 0.394926
C27_7 C 0.0897(2) 0.78786(15) 0.46215(17)
H21_7 H 0.076599 0.800824 0.480920
C28_7 C 0.4292(3) 0.8670(2) 0.8351(3)
H22_7 H 0.460691 0.866377 0.836457
H23_7 H 0.415080 0.877042 0.806146
H24_7 H 0.417860 0.847214 0.834847
C29_6 C 0.3146(3) 0.39582(17) 0.8338(3)
C31_6 C 0.2276(4) 0.42795(17) 0.9262(4)
H28_6 H 0.197550 0.430062 0.926900
C32_6 C 0.2495(3) 0.40276(16) 0.9230(4)
H29_6 H 0.237559 0.383820 0.920462
C33_6 C 0.2958(4) 0.3711(2) 0.8004(4)
H30_6 H 0.276595 0.359197 0.815724
H31_6 H 0.319596 0.359206 0.793265
H32_6 H 0.279142 0.379229 0.770875
C34_6 C 0.3440(4) 0.4146(2) 0.8124(4)
H33_6 H 0.328061 0.422579 0.782374
H34_6 H 0.368778 0.403227 0.806326
H35_6 H 0.354603 0.430476 0.834197
C35_7 C 0.0431(2) 0.7333(2) 0.3502(2)
H36_7 H 0.050243 0.735792 0.385460
C36_7 C 0.2533(4) 0.9509(2) 0.8791(4)
H37_7 H 0.237207 0.968294 0.866667
H38_7 H 0.274751 0.955876 0.907611
H39_7 H 0.233017 0.936465 0.887213
C37_7 C 0.1156(2) 0.75946(16) 0.35541(15)
C38_7 C 0.0323(4) 0.7045(3) 0.3405(4)
H40_7 H 0.007075 0.699402 0.354452
H41_7 H 0.057038 0.692218 0.354183
H42_7 H 0.025157 0.701598 0.306074
C39_7 C 0.2785(6) 0.5039(3) 0.8174(5)
H43_7 H 0.307846 0.504930 0.836884
H44_7 H 0.266280 0.523428 0.812630
H45_6 H 0.279992 0.495286 0.786563
C40_6 C 0.2503(5) 0.4858(2) 0.8419(4)
H46_6 H 0.261396 0.465456 0.844554
O1_7 O 0.18803(17) 0.76607(12) 0.97422(15)
C42_7 C 0.0046(2) 0.72879(19) 0.4945(2)
H48_7 H 0.004857 0.749977 0.494573
C47_6 C 0.2114(5) 0.4870(3) 0.8096(5)
H61_6 H 0.189311 0.475699 0.821474
H62_6 H 0.215539 0.479029 0.779099
H63_7 H 0.201826 0.507171 0.805167
C48_7 C 0.1878(3) 0.7868(2) 0.3658(2)
H64_7 H 0.187177 0.784258 0.400256
C49_7 C 0.2323(3) 0.7765(3) 0.3562(3)
H65_7 H 0.255664 0.787775 0.375589
H66_7 H 0.233188 0.779188 0.322518
H67_7 H 0.236287 0.755959 0.364365
C50_7 C 0.1809(4) 0.8190(3) 0.3526(4)
H68_7 H 0.204630 0.830479 0.371073
H69_7 H 0.153069 0.825550 0.359616
H70_7 H 0.180764 0.821558 0.318639
O2_7 O 0.1212(3) 0.78164(16) 0.8981(3)
O3_7 O 0.1274(3) 0.80667(14) 0.9905(4)
O4_7 O 0.1097(4) 0.8334(2) 0.9048(4)
N1_7 N 0.1147(4) 0.8109(2) 0.9323(5)
C51_7 C 0.0030(3) 0.7536(3) 0.3300(3)
H71_7 H 0.011035 0.773794 0.337134
Zn1_7 Zn 0.16850(2) 0.71263(2) 0.90999(2)
Zn2_4 Zn 0.06594(2) 0.71940(2) 0.88975(2)
Zn3_2 Zn 0.12424(2) 0.75889(2) 0.96970(2)
Zn4_2 Zn 0.11317(2) 0.69188(2) 0.98462(2)
O7_7 O 0.14986(13) 0.71056(9) 0.84100(12)
O8_7 O 0.15821(13) 0.66246(7) 0.98819(11)
O9_7 O 0.11819(9) 0.72051(6) 0.93762(9)
O10_7 O 0.07569(13) 0.71580(8) 0.82548(10)
O12_4 O 0.52722(12) 0.25219(8) 0.88985(12)
C52_7 C 0.07461(18) 0.72169(14) 0.68129(15)
H74_7 H 0.048088 0.722122 0.658711
C53_7 C 0.11337(19) 0.71347(12) 0.81390(15)
C54_7 C 0.10295(17) 0.71292(13) 0.14119(15)
H75_7 H 0.094402 0.694694 0.127152
C55_7 C 0.07372(19) 0.71756(13) 0.72875(15)
H76_7 H 0.046747 0.715834 0.739055
C56_7 C 0.18126(18) 0.65699(9) 0.95765(16)
O14_7 O 0.19142(12) 0.67431(7) 0.92791(12)
C57_7 C 0.14617(18) 0.76265(14) 0.56076(14)
C58_7 C 0.10241(18) 0.71753(15) 0.18890(15)
H77_7 H 0.092109 0.702763 0.206933
C59_6 C 0.4280(2) 0.31168(15) 0.8872(2)
H78_6 H 0.402595 0.311111 0.863054
C60_7 C 0.11670(14) 0.72975(11) 0.06266(12)
O15_7 O 0.21393(13) 0.74110(8) 0.92096(16)
C61_7 C 0.28061(18) 0.83795(12) 0.9100(2)
C62_7 C 0.1535(2) 0.72236(16) 0.69927(17)
H79_7 H 0.180521 0.723404 0.688964
C63_7 C 0.1788(2) 0.78477(16) 0.55031(18)
H80_7 H 0.163031 0.798154 0.525442
C64_7 C 0.27015(19) 0.78665(12) 0.9117(2)
H81_7 H 0.278302 0.767784 0.903557
C66_7 C 0.11518(18) 0.73314(14) 0.61612(14)
O16_4 O 0.56373(16) 0.27084(11) 0.95767(15)
C67_7 C 0.08369(19) 0.73047(14) 0.53219(15)
C68_7 C 0.2475(2) 0.84168(13) 0.9342(2)
H82_7 H 0.239160 0.860627 0.941581
C69_7 C 0.2369(2) 0.78974(13) 0.9358(2)
C70_6 C 0.4972(2) 0.29225(14) 0.9229(2)
C71_7 C 0.11593(16) 0.73483(12) 0.11399(13)
C72_7 C 0.3487(2) 0.86226(12) 0.8949(2)
H83_7 H 0.364281 0.845373 0.906900
C73_7 C 0.08398(19) 0.72185(14) 0.57860(15)
H84_7 H 0.063062 0.708293 0.585052
C74_7 C 0.3036(2) 0.86333(12) 0.8938(2)
C75_7 C 0.29229(18) 0.81028(11) 0.8986(2)
H85_7 H 0.315422 0.807561 0.881963
C76_7 C 0.1528(2) 0.71802(15) 0.74666(17)
H86_7 H 0.179349 0.716454 0.769047
C77_7 C 0.2259(2) 0.81775(14) 0.9480(2)
H87_7 H 0.203611 0.820440 0.965868
C78_7 C 0.3462(3) 0.90938(12) 0.8613(2)
C79_7 C 0.11318(19) 0.71595(13) 0.76160(15)
C80_7 C 0.14588(18) 0.75308(14) 0.60676(14)
H88_7 H 0.167072 0.760300 0.632313
C81_7 C 0.11454(19) 0.75099(14) 0.52509(14)
C82_7 C 0.11428(18) 0.72524(15) 0.66609(15)
C83_7 C 0.1846(2) 0.60553(11) 0.9858(2)
C84_7 C 0.3016(3) 0.91184(12) 0.8600(2)
C85_7 C 0.2095(2) 0.76455(14) 0.9458(2)
C86_7 C 0.2219(3) 0.61813(13) 0.9236(2)
H90_7 H 0.231491 0.632497 0.904292
C87_7 C 0.0502(3) 0.68527(19) 0.4920(3)
H91_7 H 0.028085 0.678285 0.465484
H92_7 H 0.043468 0.678185 0.521978
H93_7 H 0.078881 0.678150 0.488510
C88_6 C 0.4609(2) 0.29172(14) 0.8874(2)
H94_6 H 0.458299 0.277599 0.863004
C89_7 C 0.0504(2) 0.71747(16) 0.49216(17)
H95_7 H 0.057624 0.724103 0.461444
C90_7 C 0.5323(2) 0.27039(14) 0.92358(19)
C91_7 C 0.1965(2) 0.62629(10) 0.9556(2)
C92_7 C 0.11683(18) 0.74358(15) 0.21045(15)
C93_7 C 0.2149(2) 0.77073(19) 0.5305(2)
H96_7 H 0.235402 0.785582 0.524190
H97_7 H 0.202660 0.760655 0.500959
H98_7 H 0.230250 0.756824 0.553633
C94_7 C 0.1988(2) 0.80336(17) 0.5939(2)
H99_7 H 0.175396 0.812546 0.606904
H100_7 H 0.217492 0.818295 0.584217
H101_7 H 0.216083 0.791000 0.618165
C97_7 C 0.5014(2) 0.31262(15) 0.9590(2)
H103_7 H 0.526629 0.312785 0.983436
C98_6 C 0.4324(2) 0.33290(15) 0.9231(2)
C99_7 C 0.12896(19) 0.76091(14) 0.13482(15)
H104_7 H 0.137178 0.776113 0.116092
C101_7 C 0.3727(3) 0.93610(15) 0.7969(3)
H106_7 H 0.361679 0.923160 0.771738
C104_7 C 0.2307(4) 0.53729(15) 0.9428(3)
C106_7 C 0.1958(2) 0.57655(12) 0.9807(3)
C107_7 C 0.3713(2) 0.88499(13) 0.8791(2)
C108_7 C 0.2771(3) 0.93833(14) 0.8410(3)
H110_7 H 0.298452 0.953044 0.834092
C109_7 C 0.11713(19) 0.74832(17) 0.26146(15)
C110_7 C 0.2811(2) 0.88861(12) 0.8768(2)
H111_7 H 0.250765 0.889836 0.876815
C111_7 C 0.2339(3) 0.58944(14) 0.9186(3)
H112_7 H 0.251139 0.584214 0.896093
C112_7 C 0.1496(2) 0.76456(18) 0.28886(16)
H113_7 H 0.172045 0.772289 0.274481
C113_6 C 0.4689(2) 0.33253(15) 0.9590(2)
H114_6 H 0.471563 0.346271 0.983975
C114_7 C 0.2447(3) 0.93258(16) 0.7958(3)
H115_7 H 0.229512 0.950548 0.784704
H116_7 H 0.223578 0.918104 0.801795
H117_7 H 0.260088 0.925335 0.771423
C115_7 C 0.2199(3) 0.56835(13) 0.9478(3)
C116_7 C 0.1303(2) 0.76539(16) 0.18343(15)
H118_7 H 0.140326 0.783283 0.197751
C117_7 C 0.4193(3) 0.88375(17) 0.8803(3)
H119_7 H 0.430201 0.904016 0.879236
C118_7 C 0.3953(3) 0.96083(15) 0.7933(3)
H120_7 H 0.405337 0.967963 0.766221
C119_7 C 0.4439(3) 0.8695(2) 0.9252(3)
H121_7 H 0.475096 0.869201 0.924464
H122_7 H 0.433421 0.849702 0.927232
H123_7 H 0.439188 0.880547 0.952957
C120_7 C 0.2423(3) 0.52031(15) 0.9824(3)
N2_7 N 0.3686(2) 0.93318(11) 0.84302(19)
C121_7 C 0.3842(3) 0.95632(13) 0.8693(2)
N3_7 N 0.4006(3) 0.97363(12) 0.8392(2)
Au1_7 Au 0.38982(2) 0.96135(2) 0.93847(2)
N4_7 N 0.11119(16) 0.76237(12) 0.47738(12)
C122_7 C 0.12584(17) 0.74839(12) 0.44153(14)
N5_7 N 0.11360(16) 0.76621(11) 0.40411(12)
Au2_7 Au 0.15610(2) 0.71098(2) 0.44464(2)
Cl2_7 Cl 0.19163(10) 0.66723(6) 0.45105(11)
N6_6 N 0.2577(3) 0.44951(13) 0.9282(3)
C123_6 C 0.2976(2) 0.43909(11) 0.9275(3)
N7_6 N 0.2924(2) 0.41010(10) 0.9242(3)
Au3_6 Au 0.35136(2) 0.46120(2) 0.92887(4)
Cl3_6 Cl 0.4132(3) 0.4880(2) 0.9312(4)
Zn8_4 Zn 0.62424(2) 0.25889(2) 0.96970(2)
O19_4 O 0.02760(12) 0.68612(7) 0.89612(12)
O20_4 O 0.02722(12) 0.75219(8) 0.88985(12)
O21_4 O 0.06186(13) 0.66720(8) 0.96431(12)
O22_4 O 0.06373(16) 0.77084(11) 0.95767(15)
H125_7 H 0.352778 0.967213 0.861968
H126_7 H 0.156935 0.759577 0.45072
H127_6 H 0.304493 0.437676 0.966091
H129_6 H 0.287755 0.408926 0.84114
H1_8 H 0.010361 0.531851 0.901305
C18_8 C 0.0320(5) 0.4777(2) 0.8643(5)
H10_8 H 0.049934 0.460513 0.873478
H11_8 H 0.049193 0.495112 0.874327
H12_8 H 0.022299 0.477985 0.829716
C19_8 C 0.0073(4) 0.47336(19) 0.9417(4)
H13_8 H 0.025759 0.456135 0.947469
H15_8 H 0.024176 0.490447 0.954210
C65_8 C 0.03600(17) 0.66591(10) 0.92598(16)
C100_8 C 0.0286(2) 0.61339(13) 0.9385(2)
H105_8 H 0.052969 0.614832 0.963827
C102_8 C 0.0100(2) 0.58639(14) 0.9275(2)
H107_8 H 0.021061 0.569821 0.945381
C105_8 C 0.01320(19) 0.63815(11) 0.91449(19)
C90_8 C 0.0323(2) 0.77039(14) 0.92358(19)
C97_8 C 0.0014(2) 0.81262(15) 0.9590(2)
H103_8 H 0.026629 0.812785 0.983436
H60_8 H 0.812121 0.006778 0.055532
H89_8 H 0.668900 0.110983 0.009696
H109_8 H 0.686517 0.062297 0.000432
H124_8 H 0.742782 0.028498 0.012885
Cl1_8 Cl 0.89959(9) 0.46612(6) 0.01866(8)
O17_4 O 0.60714(11) 0.20495(7) 0.04697(10)
O18_4 O 0.62739(12) 0.25082(8) 0.03952(10)
C1_8 C 0.9806(3) 0.53023(13) 0.8866(3)
C2_8 C 0.6507(2) 0.2700(2) 0.33656(16)
C3_8 C 0.58403(19) 0.23739(18) 0.28253(16)
H2_8 H 0.562204 0.225515 0.264388
C5_8 C 0.5821(2) 0.24350(19) 0.32993(17)
C6_8 C 0.9558(2) 0.55540(13) 0.8758(3)
C7_8 C 0.9911(4) 0.47695(17) 0.8889(4)
H3_8 H 0.973664 0.459373 0.877208
C10_8 C 0.8478(4) 0.5242(2) 0.8150(4)
H5_8 H 0.844251 0.504655 0.799782
C12_8 C 0.8929(3) 0.52599(16) 0.8387(3)
C16_8 C 0.8183(4) 0.5247(3) 0.8495(5)
H7_8 H 0.788054 0.523416 0.832452
H8_8 H 0.822452 0.542736 0.867675
H9_8 H 0.824773 0.508214 0.871206
H14_8 H 0.982396 0.471184 0.957537
C20_8 C 0.9625(3) 0.50270(15) 0.8762(3)
C22_8 C 0.8335(5) 0.5465(3) 0.7741(5)
H16_8 H 0.802671 0.543654 0.760259
H17_8 H 0.850998 0.543698 0.749572
H18_8 H 0.837923 0.566178 0.786845
C23_8 C 0.9196(3) 0.50164(15) 0.8512(3)
C25_8 C 0.7278(4) 0.02480(18) 0.8985(4)
H19_8 H 0.718816 0.036228 0.870900
C26_8 C 0.5909(2) 0.29081(17) 0.41552(18)
H20_8 H 0.579033 0.306097 0.394926
C27_8 C 0.5897(2) 0.28786(15) 0.46215(17)
H21_8 H 0.576599 0.300824 0.480920
C28_8 C 0.9292(3) 0.3670(2) 0.8351(3)
H22_8 H 0.960691 0.366377 0.836457
H23_8 H 0.915080 0.377042 0.806146
H24_8 H 0.917860 0.347214 0.834847
C35_8 C 0.5431(2) 0.2333(2) 0.3502(2)
H36_8 H 0.550243 0.235792 0.385460
C36_8 C 0.7533(4) 0.4509(2) 0.8791(4)
H37_8 H 0.737207 0.468294 0.866667
H38_8 H 0.774751 0.455876 0.907611
H39_8 H 0.733017 0.436465 0.887213
C37_8 C 0.6156(2) 0.25946(16) 0.35541(15)
C38_8 C 0.5323(4) 0.2045(3) 0.3405(4)
H40_8 H 0.507075 0.199402 0.354452
H41_8 H 0.557038 0.192218 0.354183
H42_8 H 0.525157 0.201598 0.306074
C39_8 C 0.7785(6) 0.0039(3) 0.8174(5)
H43_8 H 0.807846 0.004930 0.836884
H44_8 H 0.766280 0.023428 0.812630
C41_8 C 0.9126(3) 0.55271(14) 0.8520(3)
H47_8 H 0.895811 0.569793 0.844605
O1_8 O 0.68803(17) 0.26607(12) 0.97422(15)
C42_8 C 0.5046(2) 0.22879(19) 0.4945(2)
H48_8 H 0.504857 0.249977 0.494573
H49_7 H 0.496056 0.221747 0.523572
H50_7 H 0.483776 0.221840 0.466814
H63_8 H 0.701826 0.007171 0.805167
C48_8 C 0.6878(3) 0.2868(2) 0.3658(2)
H64_8 H 0.687177 0.284258 0.400256
C49_8 C 0.7323(3) 0.2765(3) 0.3562(3)
H65_8 H 0.755664 0.287775 0.375589
H66_8 H 0.733188 0.279188 0.322518
H67_8 H 0.736287 0.255959 0.364365
C50_8 C 0.6809(4) 0.3190(3) 0.3526(4)
H68_8 H 0.704630 0.330479 0.371073
H69_8 H 0.653069 0.325550 0.359616
H70_8 H 0.680764 0.321558 0.318639
O2_8 O 0.6212(3) 0.28164(16) 0.8981(3)
O3_8 O 0.6274(3) 0.30667(14) 0.9905(4)
O4_8 O 0.6097(4) 0.3334(2) 0.9048(4)
N1_8 N 0.6147(4) 0.3109(2) 0.9323(5)
C51_8 C 0.5030(3) 0.2536(3) 0.3300(3)
H71_8 H 0.511035 0.273794 0.337134
H72_7 H 0.478314 0.248447 0.344928
H73_7 H 0.494704 0.250982 0.295598
Zn1_8 Zn 0.66850(2) 0.21263(2) 0.90999(2)
O7_8 O 0.64986(13) 0.21056(9) 0.84100(12)
O8_8 O 0.65821(13) 0.16246(7) 0.98819(11)
O9_8 O 0.61819(9) 0.22051(6) 0.93762(9)
O10_8 O 0.57569(13) 0.21580(8) 0.82548(10)
C52_8 C 0.57461(18) 0.22169(14) 0.68129(15)
H74_8 H 0.548088 0.222122 0.658711
C53_8 C 0.61337(19) 0.21347(12) 0.81390(15)
C54_8 C 0.60295(17) 0.21292(13) 0.14119(15)
H75_8 H 0.594402 0.194694 0.127152
C55_8 C 0.57372(19) 0.21756(13) 0.72875(15)
H76_8 H 0.546747 0.215834 0.739055
C56_8 C 0.68126(18) 0.15699(9) 0.95765(16)
O14_8 O 0.69142(12) 0.17431(7) 0.92791(12)
C57_8 C 0.64617(18) 0.26265(14) 0.56076(14)
C58_8 C 0.60241(18) 0.21753(15) 0.18890(15)
H77_8 H 0.592109 0.202763 0.206933
C60_8 C 0.61670(14) 0.22975(11) 0.06266(12)
O15_8 O 0.71393(13) 0.24110(8) 0.92096(16)
C61_8 C 0.78061(18) 0.33795(12) 0.9100(2)
C62_8 C 0.6535(2) 0.22236(16) 0.69927(17)
H79_8 H 0.680521 0.223404 0.688964
C63_8 C 0.6788(2) 0.28477(16) 0.55031(18)
H80_8 H 0.663031 0.298154 0.525442
C64_8 C 0.77015(19) 0.28665(12) 0.9117(2)
H81_8 H 0.778302 0.267784 0.903557
C66_8 C 0.61518(18) 0.23314(14) 0.61612(14)
C67_8 C 0.58369(19) 0.23047(14) 0.53219(15)
C68_8 C 0.7475(2) 0.34168(13) 0.9342(2)
H82_8 H 0.739160 0.360627 0.941581
C69_8 C 0.7369(2) 0.28974(13) 0.9358(2)
C71_8 C 0.61593(16) 0.23483(12) 0.11399(13)
C72_8 C 0.8487(2) 0.36226(12) 0.8949(2)
H83_8 H 0.864281 0.345373 0.906900
C73_8 C 0.58398(19) 0.22185(14) 0.57860(15)
H84_8 H 0.563062 0.208293 0.585052
C74_8 C 0.8036(2) 0.36333(12) 0.8938(2)
C75_8 C 0.79229(18) 0.31028(11) 0.8986(2)
H85_8 H 0.815422 0.307561 0.881963
C76_8 C 0.6528(2) 0.21802(15) 0.74666(17)
H86_8 H 0.679349 0.216454 0.769047
C77_8 C 0.7259(2) 0.31775(14) 0.9480(2)
H87_8 H 0.703611 0.320440 0.965868
C78_8 C 0.8462(3) 0.40938(12) 0.8613(2)
C79_8 C 0.61318(19) 0.21595(13) 0.76160(15)
C80_8 C 0.64588(18) 0.25308(14) 0.60676(14)
H88_8 H 0.667072 0.260300 0.632313
C81_8 C 0.61454(19) 0.25099(14) 0.52509(14)
C82_8 C 0.61428(18) 0.22524(15) 0.66609(15)
C83_8 C 0.6846(2) 0.10553(11) 0.9858(2)
C84_8 C 0.8016(3) 0.41184(12) 0.8600(2)
C85_8 C 0.7095(2) 0.26455(14) 0.9458(2)
C86_8 C 0.7219(3) 0.11813(13) 0.9236(2)
H90_8 H 0.731491 0.132497 0.904292
C87_8 C 0.5502(3) 0.18527(19) 0.4920(3)
H91_8 H 0.528085 0.178285 0.465484
H92_8 H 0.543468 0.178185 0.521978
H93_8 H 0.578881 0.178150 0.488510
C89_8 C 0.5504(2) 0.21747(16) 0.49216(17)
H95_8 H 0.557624 0.224103 0.461444
C91_8 C 0.6965(2) 0.12629(10) 0.9556(2)
C92_8 C 0.61683(18) 0.24358(15) 0.21045(15)
C93_8 C 0.7149(2) 0.27073(19) 0.5305(2)
H96_8 H 0.735402 0.285582 0.524190
H97_8 H 0.702660 0.260655 0.500959
H98_8 H 0.730250 0.256824 0.553633
C94_8 C 0.6988(2) 0.30336(17) 0.5939(2)
H99_8 H 0.675396 0.312546 0.606904
H100_8 H 0.717492 0.318295 0.584217
H101_8 H 0.716083 0.291000 0.618165
C95_8 C 0.9748(2) 0.58404(12) 0.8897(2)
C96_8 C 0.9586(2) 0.60909(13) 0.8660(2)
H102_8 H 0.933785 0.607708 0.841200
C99_8 C 0.62896(19) 0.26091(14) 0.13482(15)
H104_8 H 0.637178 0.276113 0.116092
C101_8 C 0.8727(3) 0.43610(15) 0.7969(3)
H106_8 H 0.861679 0.423160 0.771738
C103_8 C 0.9772(2) 0.63587(12) 0.8769(2)
H108_8 H 0.965886 0.652508 0.859390
C104_8 C 0.7307(4) 0.03729(15) 0.9428(3)
C106_8 C 0.6958(2) 0.07655(12) 0.9807(3)
C107_8 C 0.8713(2) 0.38499(13) 0.8791(2)
C108_8 C 0.7771(3) 0.43833(14) 0.8410(3)
H110_8 H 0.798452 0.453044 0.834092
C109_8 C 0.61713(19) 0.24832(17) 0.26146(15)
C110_8 C 0.7811(2) 0.38861(12) 0.8768(2)
H111_8 H 0.750765 0.389836 0.876815
C111_8 C 0.7339(3) 0.08944(14) 0.9186(3)
H112_8 H 0.751139 0.084214 0.896093
C112_8 C 0.6496(2) 0.26456(18) 0.28886(16)
H113_8 H 0.672045 0.272289 0.274481
C114_8 C 0.7447(3) 0.43258(16) 0.7958(3)
H115_8 H 0.729512 0.450548 0.784704
H116_8 H 0.723578 0.418104 0.801795
H117_8 H 0.760088 0.425335 0.771423
C115_8 C 0.7199(3) 0.06835(13) 0.9478(3)
C116_8 C 0.6303(2) 0.26539(16) 0.18343(15)
H118_8 H 0.640326 0.283283 0.197751
C117_8 C 0.9193(3) 0.38375(17) 0.8803(3)
H119_8 H 0.930201 0.404016 0.879236
C118_8 C 0.8953(3) 0.46083(15) 0.7933(3)
H120_8 H 0.905337 0.467963 0.766221
C119_8 C 0.9439(3) 0.3695(2) 0.9252(3)
H121_8 H 0.975096 0.369201 0.924464
H122_8 H 0.933421 0.349702 0.927232
H123_8 H 0.939188 0.380547 0.952957
C120_8 C 0.7423(3) 0.02031(15) 0.9824(3)
N2_8 N 0.8686(2) 0.43318(11) 0.84302(19)
C121_8 C 0.8842(3) 0.45632(13) 0.8693(2)
N3_8 N 0.9006(3) 0.47363(12) 0.8392(2)
Au1_8 Au 0.88982(2) 0.46135(2) 0.93847(2)
N4_8 N 0.61119(16) 0.26237(12) 0.47738(12)
C122_8 C 0.62584(17) 0.24839(12) 0.44153(14)
N5_8 N 0.61360(16) 0.26621(11) 0.40411(12)
Au2_8 Au 0.65610(2) 0.21098(2) 0.44464(2)
Cl2_8 Cl 0.69163(10) 0.16723(6) 0.45105(11)
H125_8 H 0.852778 0.467213 0.861968
H126_8 H 0.656935 0.259577 0.45072
H49_8 H 0.996056 0.721747 0.523572
H50_8 H 0.983776 0.721840 0.466814
H72_8 H 0.978314 0.748447 0.344928
H73_8 H 0.994704 0.750982 0.295598
C4_7 C 0.1611(3) 0.88349(15) 0.6200(3)
C8_7 C 0.1269(3) 0.86428(15) 0.6193(3)
H4_7 H 0.118830 0.858723 0.648279
C9_7 C 0.1619(3) 0.88816(19) 0.4862(4)
C11_7 C 0.2514(4) 0.97980(16) 0.5670(4)
C13_7 C 0.1160(3) 0.86123(15) 0.5331(3)
H6_7 H 0.100328 0.853538 0.504135
C14_7 C 0.1720(3) 0.89060(15) 0.5751(3)
C15_7 C 0.2467(4) 0.99120(15) 0.5211(4)
C17_7 C 0.1045(3) 0.85310(15) 0.5767(3)
C21_7 C 0.1495(3) 0.87997(16) 0.5324(3)
C24_7 C 0.2622(4) 0.99616(19) 0.6061(4)
C29_7 C 0.1854(3) 0.89582(17) 0.6662(3)
C30_7 C 0.1776(4) 0.8618(2) 0.4645(4)
H25_7 H 0.200844 0.852617 0.487472
H26_7 H 0.188905 0.867333 0.436150
H27_7 H 0.153444 0.848204 0.455519
C31_7 C 0.2724(4) 0.92795(17) 0.5738(4)
H28_7 H 0.302450 0.930062 0.573100
C32_7 C 0.2505(3) 0.90276(16) 0.5770(4)
H29_7 H 0.262441 0.883820 0.579538
C33_7 C 0.2042(4) 0.8711(2) 0.6996(4)
H30_7 H 0.223405 0.859197 0.684276
H31_7 H 0.180404 0.859206 0.706735
H32_7 H 0.220858 0.879229 0.729125
C34_7 C 0.1560(4) 0.9146(2) 0.6876(4)
H33_7 H 0.171939 0.922579 0.717626
H34_7 H 0.131222 0.903227 0.693674
H35_7 H 0.145397 0.930476 0.665803
H45_7 H 0.220008 0.995286 0.713437
C40_7 C 0.2497(5) 0.9858(2) 0.6581(4)
H46_7 H 0.238604 0.965456 0.655446
C43_7 C 0.2302(5) 0.9729(2) 0.4751(4)
H51_7 H 0.226559 0.952220 0.483814
C44_7 C 0.2577(6) 0.9746(3) 0.4401(5)
H52_7 H 0.245331 0.962673 0.412608
H53_7 H 0.286908 0.967565 0.453982
H54_7 H 0.259500 0.994743 0.430045
C45_7 C 0.1264(4) 0.9041(3) 0.4544(4)
H55_7 H 0.117984 0.920986 0.471179
H56_7 H 0.101212 0.891314 0.445273
H57_7 H 0.136673 0.910444 0.425904
C46_7 C 0.1841(5) 0.9865(3) 0.4529(5)
H58_7 H 0.165006 0.985533 0.476250
H59_7 H 0.170940 0.975694 0.424419
C47_7 C 0.2886(5) 0.9870(3) 0.6904(5)
H61_7 H 0.310689 0.975699 0.678526
H62_7 H 0.284461 0.979029 0.720901
C59_7 C 0.0720(2) 0.81168(15) 0.6128(2)
H78_7 H 0.097405 0.811111 0.636946
C70_7 C 0.0028(2) 0.79225(14) 0.5771(2)
C88_7 C 0.0391(2) 0.79172(14) 0.6126(2)
H94_7 H 0.041701 0.777599 0.636996
C98_7 C 0.0676(2) 0.83290(15) 0.5769(2)
C113_7 C 0.0311(2) 0.83253(15) 0.5410(2)
H114_7 H 0.028437 0.846271 0.516025
N6_7 N 0.2423(3) 0.94951(13) 0.5718(3)
C123_7 C 0.2024(2) 0.93909(11) 0.5725(3)
N7_7 N 0.2076(2) 0.91010(10) 0.5758(3)
Au3_7 Au 0.14864(2) 0.96120(2) 0.57113(4)
Cl3_7 Cl 0.0868(3) 0.9880(2) 0.5688(4)
H127_7 H 0.195507 0.937676 0.533909
H128_7 H 0.189463 0.902882 0.49456
H129_7 H 0.212245 0.908926 0.65886
C9_8 C 0.8381(3) 0.88816(19) 0.0138(4)
C30_8 C 0.8224(4) 0.8618(2) 0.0355(4)
H25_8 H 0.799156 0.852617 0.012528
H26_8 H 0.811095 0.867333 0.063850
H27_8 H 0.846556 0.848204 0.044481
C43_8 C 0.7698(5) 0.9729(2) 0.0249(4)
H51_8 H 0.773441 0.952220 0.016186
C44_8 C 0.7423(6) 0.9746(3) 0.0599(5)
H52_8 H 0.754669 0.962673 0.087392
H53_8 H 0.713092 0.967565 0.046018
H54_8 H 0.740500 0.994743 0.069955
C45_8 C 0.8736(4) 0.9041(3) 0.0456(4)
H55_8 H 0.882016 0.920986 0.028821
H56_8 H 0.898788 0.891314 0.054727
H57_8 H 0.863327 0.910444 0.074096
C46_8 C 0.8159(5) 0.9865(3) 0.0471(5)
H58_8 H 0.834994 0.985533 0.023750
H59_8 H 0.829060 0.975694 0.075581
H128_8 H 0.810537 0.902882 0.00543973
C4_8 C 0.8389(3) 0.88349(15) 0.8800(3)
C8_8 C 0.8731(3) 0.86428(15) 0.8807(3)
H4_8 H 0.881170 0.858723 0.851721
C11_8 C 0.7486(4) 0.97980(16) 0.9330(4)
C13_8 C 0.8840(3) 0.86123(15) 0.9669(3)
H6_8 H 0.899672 0.853538 0.995865
C14_8 C 0.8280(3) 0.89060(15) 0.9249(3)
C15_8 C 0.7533(4) 0.99120(15) 0.9789(4)
C17_8 C 0.8955(3) 0.85310(15) 0.9233(3)
C21_8 C 0.8505(3) 0.87997(16) 0.9676(3)
C24_8 C 0.7378(4) 0.99616(19) 0.8939(4)
C29_8 C 0.8146(3) 0.89582(17) 0.8338(3)
C31_8 C 0.7276(4) 0.92795(17) 0.9262(4)
H28_8 H 0.697550 0.930062 0.926900
C32_8 C 0.7495(3) 0.90276(16) 0.9230(4)
H29_8 H 0.737559 0.883820 0.920462
C33_8 C 0.7958(4) 0.8711(2) 0.8004(4)
H30_8 H 0.776595 0.859197 0.815724
H31_8 H 0.819596 0.859206 0.793265
H32_8 H 0.779142 0.879229 0.770875
C34_8 C 0.8440(4) 0.9146(2) 0.8124(4)
H33_8 H 0.828061 0.922579 0.782374
H34_8 H 0.868778 0.903227 0.806326
H35_8 H 0.854603 0.930476 0.834197
H45_8 H 0.779992 0.995286 0.786563
C40_8 C 0.7503(5) 0.9858(2) 0.8419(4)
H46_8 H 0.761396 0.965456 0.844554
C47_8 C 0.7114(5) 0.9870(3) 0.8096(5)
H61_8 H 0.689311 0.975699 0.821474
H62_8 H 0.715539 0.979029 0.779099
C59_8 C 0.9280(2) 0.81168(15) 0.8872(2)
H78_8 H 0.902595 0.811111 0.863054
C70_8 C 0.9972(2) 0.79225(14) 0.9229(2)
C88_8 C 0.9609(2) 0.79172(14) 0.8874(2)
H94_8 H 0.958299 0.777599 0.863004
C98_8 C 0.9324(2) 0.83290(15) 0.9231(2)
C113_8 C 0.9689(2) 0.83253(15) 0.9590(2)
H114_8 H 0.971563 0.846271 0.983975
N6_8 N 0.7577(3) 0.94951(13) 0.9282(3)
C123_8 C 0.7976(2) 0.93909(11) 0.9275(3)
N7_8 N 0.7924(2) 0.91010(10) 0.9242(3)
Au3_8 Au 0.85136(2) 0.96120(2) 0.92887(4)
Cl3_8 Cl 0.9132(3) 0.9880(2) 0.9312(4)
H127_8 H 0.804493 0.937676 0.966091
H129_8 H 0.787755 0.908926 0.84114
loop_
_geom_bond_atom_site_label_1
_geom_bond_atom_site_label_2
_geom_bond_site_symmetry_1
_geom_bond_site_symmetry_2
C4 C8 1_555 1_555
C7 H3 1_555 1_555
C8 H4 1_555 1_555
C9 C21 1_555 1_555
C11 C15 1_555 1_555
C13 H6 1_555 1_555
C14 C4 1_555 1_555
C15 C43 1_555 1_555
C17 C8 1_555 1_555
C18 C7 1_555 1_555
H10 C18 1_555 1_555
H11 C18 1_555 1_555
H12 C18 1_555 1_555
C19 C7 1_555 1_555
H13 C19 1_555 1_555
H14 C19 1_555 1_555
H15 C19 1_555 1_555
C21 C13 1_555 1_555
C24 C11 1_555 1_555
C25 C24 1_555 1_555
H19 C25 1_555 1_555
C28 H22 1_555 1_555
H23 C28 1_555 1_555
H24 C28 1_555 1_555
C29 C4 1_555 1_555
C30 C9 1_555 1_555
H25 C30 1_555 1_555
H26 C30 1_555 1_555
H27 C30 1_555 1_555
C31 H28 1_555 1_555
C32 C31 1_555 1_555
H29 C32 1_555 1_555
C33 C29 1_555 1_555
H30 C33 1_555 1_555
H31 C33 1_555 1_555
H32 C33 1_555 1_555
C34 C29 1_555 1_555
H33 C34 1_555 1_555
H34 C34 1_555 1_555
H35 C34 1_555 1_555
C36 H37 1_555 1_555
H38 C36 1_555 1_555
H39 C36 1_555 1_555
C39 H43 1_555 1_555
H44 C39 1_555 1_555
H45 C39 1_555 1_555
C40 C24 1_555 1_555
H46 C40 1_555 1_555
O1 Zn3 1_555 1_555
C43 H51 1_555 1_555
C44 C43 1_555 1_555
H52 C44 1_555 1_555
H53 C44 1_555 1_555
H54 C44 1_555 1_555
C45 C9 1_555 1_555
H55 C45 1_555 1_555
H56 C45 1_555 1_555
H57 C45 1_555 1_555
C46 C43 1_555 1_555
H58 C46 1_555 1_555
H59 C46 1_555 1_555
H60 C46 1_555 1_555
C47 C40 1_555 1_555
H61 C47 1_555 1_555
H62 C47 1_555 1_555
H63 C47 1_555 1_555
O2 N1 1_555 1_555
O3 N1 1_555 1_555
O4 N1 1_555 1_555
Zn1 O7 1_555 1_555
Zn2 O9 1_555 1_555
Zn3 O2 1_555 1_555
Zn4 O8 1_555 1_555
O7 C53 1_555 1_555
O8 C56 1_555 1_555
O9 Zn1 1_555 1_555
O10 Zn2 1_555 1_555
O12 C90 1_555 1_555
C52 H74 1_555 1_555
C53 O10 1_555 1_555
C55 C52 1_555 1_555
H76 C55 1_555 1_555
C56 O14 1_555 1_555
O14 Zn1 1_555 1_555
C57 C63 1_555 1_555
C59 H78 1_555 1_555
O15 Zn1 1_555 1_555
C61 C68 1_555 1_555
C62 H79 1_555 1_555
C63 H80 1_555 1_555
C64 H81 1_555 1_555
C66 C73 1_555 1_555
O16 C90 1_555 1_555
C67 C73 1_555 1_555
C68 H82 1_555 1_555
C69 C64 1_555 1_555
C70 C88 1_555 1_555
C72 H83 1_555 1_555
C73 H84 1_555 1_555
C74 C61 1_555 1_555
C75 C61 1_555 1_555
H85 C75 1_555 1_555
C76 C62 1_555 1_555
H86 C76 1_555 1_555
C77 C68 1_555 1_555
H87 C77 1_555 1_555
C78 C84 1_555 1_555
C79 C53 1_555 1_555
C80 C57 1_555 1_555
H88 C80 1_555 1_555
C81 C57 1_555 1_555
C82 C52 1_555 1_555
C83 H89 1_555 1_555
C84 C108 1_555 1_555
C85 O1 1_555 1_555
C86 H90 1_555 1_555
C88 C59 1_555 1_555
H94 C88 1_555 1_555
C90 C70 1_555 1_555
C91 C56 1_555 1_555
C93 C63 1_555 1_555
H96 C93 1_555 1_555
H97 C93 1_555 1_555
H98 C93 1_555 1_555
C94 C63 1_555 1_555
H99 C94 1_555 1_555
H100 C94 1_555 1_555
H101 C94 1_555 1_555
C97 C70 1_555 1_555
H103 C97 1_555 1_555
C98 C17 1_555 1_555
C101 H106 1_555 1_555
C104 C25 1_555 1_555
C106 C83 1_555 1_555
H109 C106 1_555 1_555
C107 C72 1_555 1_555
C108 C36 1_555 1_555
H110 C108 1_555 1_555
C110 C74 1_555 1_555
H111 C110 1_555 1_555
C111 C86 1_555 1_555
H112 C111 1_555 1_555
C113 C97 1_555 1_555
H114 C113 1_555 1_555
C114 C108 1_555 1_555
H115 C114 1_555 1_555
H116 C114 1_555 1_555
H117 C114 1_555 1_555
C115 C104 1_555 1_555
C117 C28 1_555 1_555
H119 C117 1_555 1_555
C118 C101 1_555 1_555
H120 C118 1_555 1_555
C119 C117 1_555 1_555
H121 C119 1_555 1_555
H122 C119 1_555 1_555
H123 C119 1_555 1_555
C120 C15 1_555 1_555
H124 C120 1_555 1_555
N2 C78 1_555 1_555
C121 N2 1_555 1_555
Au1 C121 1_555 1_555
Cl1 Au1 1_555 1_555
N6 C11 1_555 1_555
C123 N6 1_555 1_555
N7 C14 1_555 1_555
Au3 C123 1_555 1_555
Cl3 Au3 1_555 1_555
Zn6 O12 1_555 1_555
Zn8 O16 1_555 1_555
O17 Zn4 1_555 1_555
O18 Zn3 1_555 1_555
O19 Zn2 1_555 1_555
O20 Zn2 1_555 1_555
O21 Zn4 1_555 1_555
O22 Zn3 1_555 1_555
C13 C17 1_555 1_555
C14 C21 1_555 1_555
C31 N6 1_555 1_555
C32 N7 1_555 1_555
C39 C40 1_555 1_555
O3 Zn3 1_555 1_555
Zn3 O9 1_555 1_555
Zn4 O9 1_555 1_555
C55 C79 1_555 1_555
C59 C98 1_555 1_555
O15 C85 1_555 1_555
C62 C82 1_555 1_555
C64 C75 1_555 1_555
C66 C80 1_555 1_555
C66 C82 1_555 1_555
C67 C81 1_555 1_555
C69 C77 1_555 1_555
C69 C85 1_555 1_555
C72 C74 1_555 1_555
C76 C79 1_555 1_555
C78 C107 1_555 1_555
C83 C91 1_555 1_555
C84 C110 1_555 1_555
C86 C91 1_555 1_555
C98 C113 1_555 1_555
C101 N2 1_555 1_555
C104 C120 1_555 1_555
C106 C115 1_555 1_555
C107 C117 1_555 1_555
C111 C115 1_555 1_555
C118 N3 1_555 1_555
C121 N3 1_555 1_555
C123 N7 1_555 1_555
C121 H125 1_555 1_555
C123 H127 1_555 1_555
C9 H128 1_555 1_555
C29 H129 1_555 1_555
C2 C37 1_555 1_555
C3 H2 1_555 1_555
C5 C3 1_555 1_555
C26 H20 1_555 1_555
C27 C26 1_555 1_555
H21 C27 1_555 1_555
C35 C5 1_555 1_555
H36 C35 1_555 1_555
C37 C5 1_555 1_555
C38 C35 1_555 1_555
H40 C38 1_555 1_555
H41 C38 1_555 1_555
H42 C38 1_555 1_555
C42 H48 1_555 1_555
C48 C2 1_555 1_555
H64 C48 1_555 1_555
C49 C48 1_555 1_555
H65 C49 1_555 1_555
H66 C49 1_555 1_555
H67 C49 1_555 1_555
C50 C48 1_555 1_555
H68 C50 1_555 1_555
H69 C50 1_555 1_555
H70 C50 1_555 1_555
C51 C35 1_555 1_555
H71 C51 1_555 1_555
O17 C60 1_555 1_555
O18 C60 1_555 1_555
C54 H75 1_555 1_555
C58 C54 1_555 1_555
H77 C58 1_555 1_555
C60 C71 1_555 1_555
C71 C54 1_555 1_555
C87 H91 1_555 1_555
H93 C87 1_555 1_555
C89 C42 1_555 1_555
H95 C89 1_555 1_555
C92 C58 1_555 1_555
C99 C71 1_555 1_555
H104 C99 1_555 1_555
C109 C3 1_555 1_555
C112 C2 1_555 1_555
H113 C112 1_555 1_555
C116 C92 1_555 1_555
H118 C116 1_555 1_555
N4 C27 1_555 1_555
C122 N4 1_555 1_555
N5 C26 1_555 1_555
Au2 C122 1_555 1_555
Cl2 Au2 1_555 1_555
C37 N5 1_555 1_555
C87 C89 1_555 1_555
C92 C109 1_555 1_555
C99 C116 1_555 1_555
C109 C112 1_555 1_555
C122 N5 1_555 1_555
C122 H126 1_555 1_555
C1 H1 1_555 1_555
C6 C1 1_555 1_555
C10 H5 1_555 1_555
C12 C10 1_555 1_555
C16 C10 1_555 1_555
H7 C16 1_555 1_555
H8 C16 1_555 1_555
H9 C16 1_555 1_555
C20 C1 1_555 1_555
C22 C10 1_555 1_555
H16 C22 1_555 1_555
H17 C22 1_555 1_555
H18 C22 1_555 1_555
C23 C12 1_555 1_555
C41 C6 1_555 1_555
H47 C41 1_555 1_555
O11 C65 1_555 1_555
O13 C65 1_555 1_555
C65 C105 1_555 1_555
C95 C6 1_555 1_555
C96 C95 1_555 1_555
H102 C96 1_555 1_555
C100 H105 1_555 1_555
C102 C95 1_555 1_555
H107 C102 1_555 1_555
C103 C96 1_555 1_555
H108 C103 1_555 1_555
C105 C100 1_555 1_555
Zn6 O11 1_555 1_555
Zn10 O13 1_555 1_555
C12 C41 1_555 1_555
C20 C23 1_555 1_555
C100 C102 1_555 1_555
C103 C105 1_555 1_555
O20 C90_2 1_555 1_555
O22 C90_2 1_555 1_555
H103_2 C97_2 1_555 1_555
H10_2 C18_2 1_555 1_555
H11_2 C18_2 1_555 1_555
H12_2 C18_2 1_555 1_555
H13_2 C19_2 1_555 1_555
H15_2 C19_2 1_555 1_555
O19 C65_2 1_555 1_555
O21 C65_2 1_555 1_555
C65_2 C105_2 1_555 1_555
C100_2 H105_2 1_555 1_555
H107_2 C102_2 1_555 1_555
C105_2 C100_2 1_555 1_555
C100_2 C102_2 1_555 1_555
C6_2 C1_2 1_555 1_555
C7_2 H3_2 1_555 1_555
C10_2 H5_2 1_555 1_555
C12_2 C10_2 1_555 1_555
C16_2 C10_2 1_555 1_555
H7_2 C16_2 1_555 1_555
H8_2 C16_2 1_555 1_555
H9_2 C16_2 1_555 1_555
C20_2 C1_2 1_555 1_555
C22_2 C10_2 1_555 1_555
H16_2 C22_2 1_555 1_555
H17_2 C22_2 1_555 1_555
H18_2 C22_2 1_555 1_555
C23_2 C12_2 1_555 1_555
H19_2 C25_2 1_555 1_555
C28_2 H22_2 1_555 1_555
H23_2 C28_2 1_555 1_555
H24_2 C28_2 1_555 1_555
C36_2 H37_2 1_555 1_555
H38_2 C36_2 1_555 1_555
H39_2 C36_2 1_555 1_555
C39_2 H43_2 1_555 1_555
H44_2 C39_2 1_555 1_555
C41_2 C6_2 1_555 1_555
H47_2 C41_2 1_555 1_555
O1_2 Zn8 1_555 1_555
O2_2 N1_2 1_555 1_555
O3_2 N1_2 1_555 1_555
O4_2 N1_2 1_555 1_555
Zn1_2 O7_2 1_555 1_555
Zn6 O9_2 1_555 1_555
Zn8 O2_2 1_555 1_555
Zn10 O8_2 1_555 1_555
O7_2 C53_2 1_555 1_555
O8_2 C56_2 1_555 1_555
O9_2 Zn1_2 1_555 1_555
O10_2 Zn6 1_555 1_555
C52_2 H74_2 1_555 1_555
C53_2 O10_2 1_555 1_555
C55_2 C52_2 1_555 1_555
H76_2 C55_2 1_555 1_555
C56_2 O14_2 1_555 1_555
O14_2 Zn1_2 1_555 1_555
C57_2 C63_2 1_555 1_555
O15_2 Zn1_2 1_555 1_555
C61_2 C68_2 1_555 1_555
C62_2 H79_2 1_555 1_555
C63_2 H80_2 1_555 1_555
C64_2 H81_2 1_555 1_555
C66_2 C73_2 1_555 1_555
C67_2 C73_2 1_555 1_555
C68_2 H82_2 1_555 1_555
C69_2 C64_2 1_555 1_555
C72_2 H83_2 1_555 1_555
C73_2 H84_2 1_555 1_555
C74_2 C61_2 1_555 1_555
C75_2 C61_2 1_555 1_555
H85_2 C75_2 1_555 1_555
C76_2 C62_2 1_555 1_555
H86_2 C76_2 1_555 1_555
C77_2 C68_2 1_555 1_555
H87_2 C77_2 1_555 1_555
C78_2 C84_2 1_555 1_555
C79_2 C53_2 1_555 1_555
C80_2 C57_2 1_555 1_555
H88_2 C80_2 1_555 1_555
C81_2 C57_2 1_555 1_555
C82_2 C52_2 1_555 1_555
C83_2 H89_2 1_555 1_555
C84_2 C108_2 1_555 1_555
C85_2 O1_2 1_555 1_555
C86_2 H90_2 1_555 1_555
C91_2 C56_2 1_555 1_555
C93_2 C63_2 1_555 1_555
H96_2 C93_2 1_555 1_555
H97_2 C93_2 1_555 1_555
H98_2 C93_2 1_555 1_555
C94_2 C63_2 1_555 1_555
H99_2 C94_2 1_555 1_555
H100_2 C94_2 1_555 1_555
H101_2 C94_2 1_555 1_555
C95_2 C6_2 1_555 1_555
C96_2 C95_2 1_555 1_555
H102_2 C96_2 1_555 1_555
C101_2 H106_2 1_555 1_555
C103_2 C96_2 1_555 1_555
H108_2 C103_2 1_555 1_555
C104_2 C25_2 1_555 1_555
C106_2 C83_2 1_555 1_555
H109_2 C106_2 1_555 1_555
C107_2 C72_2 1_555 1_555
C108_2 C36_2 1_555 1_555
H110_2 C108_2 1_555 1_555
C110_2 C74_2 1_555 1_555
H111_2 C110_2 1_555 1_555
C111_2 C86_2 1_555 1_555
H112_2 C111_2 1_555 1_555
C114_2 C108_2 1_555 1_555
H115_2 C114_2 1_555 1_555
H116_2 C114_2 1_555 1_555
H117_2 C114_2 1_555 1_555
C115_2 C104_2 1_555 1_555
C117_2 C28_2 1_555 1_555
H119_2 C117_2 1_555 1_555
C118_2 C101_2 1_555 1_555
H120_2 C118_2 1_555 1_555
C119_2 C117_2 1_555 1_555
H121_2 C119_2 1_555 1_555
H122_2 C119_2 1_555 1_555
H123_2 C119_2 1_555 1_555
H124_2 C120_2 1_555 1_555
N2_2 C78_2 1_555 1_555
C121_2 N2_2 1_555 1_555
N3_2 C23_2 1_555 1_555
Au1_2 C121_2 1_555 1_555
Cl1_2 Au1_2 1_555 1_555
O17_2 Zn10 1_555 1_555
O18_2 Zn8 1_555 1_555
C7_2 C20_2 1_555 1_555
C12_2 C41_2 1_555 1_555
C20_2 C23_2 1_555 1_555
O3_2 Zn8 1_555 1_555
Zn8 O9_2 1_555 1_555
Zn10 O9_2 1_555 1_555
C55_2 C79_2 1_555 1_555
O15_2 C85_2 1_555 1_555
C62_2 C82_2 1_555 1_555
C64_2 C75_2 1_555 1_555
C66_2 C80_2 1_555 1_555
C66_2 C82_2 1_555 1_555
C67_2 C81_2 1_555 1_555
C69_2 C77_2 1_555 1_555
C69_2 C85_2 1_555 1_555
C72_2 C74_2 1_555 1_555
C76_2 C79_2 1_555 1_555
C78_2 C107_2 1_555 1_555
C83_2 C91_2 1_555 1_555
C84_2 C110_2 1_555 1_555
C86_2 C91_2 1_555 1_555
C101_2 N2_2 1_555 1_555
C104_2 C120_2 1_555 1_555
C106_2 C115_2 1_555 1_555
C107_2 C117_2 1_555 1_555
C111_2 C115_2 1_555 1_555
C118_2 N3_2 1_555 1_555
C121_2 N3_2 1_555 1_555
C121_2 H125_2 1_555 1_555
C2_2 C37_2 1_555 1_555
C3_2 H2_2 1_555 1_555
C5_2 C3_2 1_555 1_555
C26_2 H20_2 1_555 1_555
C27_2 C26_2 1_555 1_555
H21_2 C27_2 1_555 1_555
C35_2 C5_2 1_555 1_555
H36_2 C35_2 1_555 1_555
C37_2 C5_2 1_555 1_555
C38_2 C35_2 1_555 1_555
H40_2 C38_2 1_555 1_555
H41_2 C38_2 1_555 1_555
H42_2 C38_2 1_555 1_555
C42_2 H48_2 1_555 1_555
H50 C42_2 1_555 1_555
C48_2 C2_2 1_555 1_555
H64_2 C48_2 1_555 1_555
C49_2 C48_2 1_555 1_555
H65_2 C49_2 1_555 1_555
H66_2 C49_2 1_555 1_555
H67_2 C49_2 1_555 1_555
C50_2 C48_2 1_555 1_555
H68_2 C50_2 1_555 1_555
H69_2 C50_2 1_555 1_555
H70_2 C50_2 1_555 1_555
C51_2 C35_2 1_555 1_555
H71_2 C51_2 1_555 1_555
H72 C51_2 1_555 1_555
H73 C51_2 1_555 1_555
O17_2 C60_2 1_555 1_555
O18_2 C60_2 1_555 1_555
C54_2 H75_2 1_555 1_555
C58_2 C54_2 1_555 1_555
H77_2 C58_2 1_555 1_555
C60_2 C71_2 1_555 1_555
C71_2 C54_2 1_555 1_555
C87_2 H91_2 1_555 1_555
H93_2 C87_2 1_555 1_555
C89_2 C42_2 1_555 1_555
H95_2 C89_2 1_555 1_555
C92_2 C58_2 1_555 1_555
C99_2 C71_2 1_555 1_555
H104_2 C99_2 1_555 1_555
C109_2 C3_2 1_555 1_555
C112_2 C2_2 1_555 1_555
H113_2 C112_2 1_555 1_555
C116_2 C92_2 1_555 1_555
H118_2 C116_2 1_555 1_555
N4_2 C27_2 1_555 1_555
C122_2 N4_2 1_555 1_555
N5_2 C26_2 1_555 1_555
Au2_2 C122_2 1_555 1_555
Cl2_2 Au2_2 1_555 1_555
C37_2 N5_2 1_555 1_555
C87_2 C89_2 1_555 1_555
C92_2 C109_2 1_555 1_555
C99_2 C116_2 1_555 1_555
C109_2 C112_2 1_555 1_555
C122_2 N5_2 1_555 1_555
C122_2 H126_2 1_555 1_555
C2_3 C37_3 1_555 1_555
C3_3 H2_3 1_555 1_555
C4_2 C8_2 1_555 1_555
C5_3 C3_3 1_555 1_555
C7_3 H3_3 1_555 1_555
C8_2 H4_2 1_555 1_555
C11_2 C15_2 1_555 1_555
C13_2 H6_2 1_555 1_555
C14_2 C4_2 1_555 1_555
C17_2 C8_2 1_555 1_555
C18_3 C7_3 1_555 1_555
H10_3 C18_3 1_555 1_555
H11_3 C18_3 1_555 1_555
H12_3 C18_3 1_555 1_555
C19_3 C7_3 1_555 1_555
H13_3 C19_3 1_555 1_555
H14_3 C19_3 1_555 1_555
H15_3 C19_3 1_555 1_555
C21_2 C13_2 1_555 1_555
C24_2 C11_2 1_555 1_555
C25_3 C24_2 1_555 1_555
H19_3 C25_3 1_555 1_555
C26_3 H20_3 1_555 1_555
C27_3 C26_3 1_555 1_555
H21_3 C27_3 1_555 1_555
C28_3 H22_3 1_555 1_555
H23_3 C28_3 1_555 1_555
H24_3 C28_3 1_555 1_555
C29_2 C4_2 1_555 1_555
C31_2 H28_2 1_555 1_555
C32_2 C31_2 1_555 1_555
H29_2 C32_2 1_555 1_555
C33_2 C29_2 1_555 1_555
H30_2 C33_2 1_555 1_555
H31_2 C33_2 1_555 1_555
H32_2 C33_2 1_555 1_555
C34_2 C29_2 1_555 1_555
H33_2 C34_2 1_555 1_555
H34_2 C34_2 1_555 1_555
H35_2 C34_2 1_555 1_555
C35_3 C5_3 1_555 1_555
H36_3 C35_3 1_555 1_555
C36_3 H37_3 1_555 1_555
H38_3 C36_3 1_555 1_555
H39_3 C36_3 1_555 1_555
C37_3 C5_3 1_555 1_555
C38_3 C35_3 1_555 1_555
H40_3 C38_3 1_555 1_555
H41_3 C38_3 1_555 1_555
H42_3 C38_3 1_555 1_555
C39_3 H43_3 1_555 1_555
H44_3 C39_3 1_555 1_555
H45_2 C39_3 1_555 1_555
C40_2 C24_2 1_555 1_555
H46_2 C40_2 1_555 1_555
O1_3 Zn7 1_555 1_555
C42_3 H48_3 1_555 1_555
C47_2 C40_2 1_555 1_555
H61_2 C47_2 1_555 1_555
H62_2 C47_2 1_555 1_555
H63_3 C47_2 1_555 1_555
C48_3 C2_3 1_555 1_555
H64_3 C48_3 1_555 1_555
C49_3 C48_3 1_555 1_555
H65_3 C49_3 1_555 1_555
H66_3 C49_3 1_555 1_555
H67_3 C49_3 1_555 1_555
C50_3 C48_3 1_555 1_555
H68_3 C50_3 1_555 1_555
H69_3 C50_3 1_555 1_555
H70_3 C50_3 1_555 1_555
O2_3 N1_3 1_555 1_555
O3_3 N1_3 1_555 1_555
O4_3 N1_3 1_555 1_555
C51_3 C35_3 1_555 1_555
H71_3 C51_3 1_555 1_555
Zn1_3 O7_3 1_555 1_555
Zn2_2 O9_3 1_555 1_555
Zn7 O2_3 1_555 1_555
Zn9 O8_3 1_555 1_555
O5 C60_3 1_555 1_555
O6 C60_3 1_555 1_555
O7_3 C53_3 1_555 1_555
O8_3 C56_3 1_555 1_555
O9_3 Zn1_3 1_555 1_555
O10_3 Zn2_2 1_555 1_555
O12_2 C90_3 1_555 1_555
C52_3 H74_3 1_555 1_555
C53_3 O10_3 1_555 1_555
C54_3 H75_3 1_555 1_555
C55_3 C52_3 1_555 1_555
H76_3 C55_3 1_555 1_555
C56_3 O14_3 1_555 1_555
O14_3 Zn1_3 1_555 1_555
C57_3 C63_3 1_555 1_555
C58_3 C54_3 1_555 1_555
H77_3 C58_3 1_555 1_555
C59_2 H78_2 1_555 1_555
C60_3 C71_3 1_555 1_555
O15_3 Zn1_3 1_555 1_555
C61_3 C68_3 1_555 1_555
C62_3 H79_3 1_555 1_555
C63_3 H80_3 1_555 1_555
C64_3 H81_3 1_555 1_555
C66_3 C73_3 1_555 1_555
O16_2 C90_3 1_555 1_555
C67_3 C73_3 1_555 1_555
C68_3 H82_3 1_555 1_555
C69_3 C64_3 1_555 1_555
C70_2 C88_2 1_555 1_555
C71_3 C54_3 1_555 1_555
C72_3 H83_3 1_555 1_555
C73_3 H84_3 1_555 1_555
C74_3 C61_3 1_555 1_555
C75_3 C61_3 1_555 1_555
H85_3 C75_3 1_555 1_555
C76_3 C62_3 1_555 1_555
H86_3 C76_3 1_555 1_555
C77_3 C68_3 1_555 1_555
H87_3 C77_3 1_555 1_555
C78_3 C84_3 1_555 1_555
C79_3 C53_3 1_555 1_555
C80_3 C57_3 1_555 1_555
H88_3 C80_3 1_555 1_555
C81_3 C57_3 1_555 1_555
C82_3 C52_3 1_555 1_555
C84_3 C108_3 1_555 1_555
C85_3 O1_3 1_555 1_555
C86_3 H90_3 1_555 1_555
C87_3 H91_3 1_555 1_555
H92_3 C87_3 1_555 1_555
H93_3 C87_3 1_555 1_555
C88_2 C59_2 1_555 1_555
H94_2 C88_2 1_555 1_555
C89_3 C42_3 1_555 1_555
H95_3 C89_3 1_555 1_555
C90_3 C70_2 1_555 1_555
C91_3 C56_3 1_555 1_555
C92_3 C58_3 1_555 1_555
C93_3 C63_3 1_555 1_555
H96_3 C93_3 1_555 1_555
H97_3 C93_3 1_555 1_555
H98_3 C93_3 1_555 1_555
C94_3 C63_3 1_555 1_555
H99_3 C94_3 1_555 1_555
H100_3 C94_3 1_555 1_555
H101_3 C94_3 1_555 1_555
C97_3 C70_2 1_555 1_555
H103_3 C97_3 1_555 1_555
C98_2 C17_2 1_555 1_555
C99_3 C71_3 1_555 1_555
H104_3 C99_3 1_555 1_555
C101_3 H106_3 1_555 1_555
C104_3 C25_3 1_555 1_555
C106_3 C83_3 1_555 1_555
C107_3 C72_3 1_555 1_555
C108_3 C36_3 1_555 1_555
H110_3 C108_3 1_555 1_555
C109_3 C3_3 1_555 1_555
C110_3 C74_3 1_555 1_555
H111_3 C110_3 1_555 1_555
C111_3 C86_3 1_555 1_555
H112_3 C111_3 1_555 1_555
C112_3 C2_3 1_555 1_555
H113_3 C112_3 1_555 1_555
C113_2 C97_3 1_555 1_555
H114_2 C113_2 1_555 1_555
C114_3 C108_3 1_555 1_555
H115_3 C114_3 1_555 1_555
H116_3 C114_3 1_555 1_555
H117_3 C114_3 1_555 1_555
C115_3 C104_3 1_555 1_555
C116_3 C92_3 1_555 1_555
H118_3 C116_3 1_555 1_555
C117_3 C28_3 1_555 1_555
H119_3 C117_3 1_555 1_555
C118_3 C101_3 1_555 1_555
H120_3 C118_3 1_555 1_555
C119_3 C117_3 1_555 1_555
H121_3 C119_3 1_555 1_555
H122_3 C119_3 1_555 1_555
H123_3 C119_3 1_555 1_555
C120_3 C15_2 1_555 1_555
N2_3 C78_3 1_555 1_555
C121_3 N2_3 1_555 1_555
Au1_3 C121_3 1_555 1_555
N4_3 C27_3 1_555 1_555
C122_3 N4_3 1_555 1_555
N5_3 C26_3 1_555 1_555
Au2_3 C122_3 1_555 1_555
Cl2_3 Au2_3 1_555 1_555
N6_2 C11_2 1_555 1_555
C123_2 N6_2 1_555 1_555
N7_2 C14_2 1_555 1_555
Au3_2 C123_2 1_555 1_555
Cl3_2 Au3_2 1_555 1_555
Zn6_2 O12_2 1_555 1_555
Zn8_2 O16_2 1_555 1_555
O19_2 Zn2_2 1_555 1_555
O20_2 Zn2_2 1_555 1_555
O21_2 Zn9 1_555 1_555
O22_2 Zn7 1_555 1_555
C13_2 C17_2 1_555 1_555
C14_2 C21_2 1_555 1_555
C31_2 N6_2 1_555 1_555
C32_2 N7_2 1_555 1_555
C37_3 N5_3 1_555 1_555
C39_3 C40_2 1_555 1_555
O3_3 Zn7 1_555 1_555
Zn7 O9_3 1_555 1_555
Zn9 O9_3 1_555 1_555
C55_3 C79_3 1_555 1_555
C59_2 C98_2 1_555 1_555
O15_3 C85_3 1_555 1_555
C62_3 C82_3 1_555 1_555
C64_3 C75_3 1_555 1_555
C66_3 C80_3 1_555 1_555
C66_3 C82_3 1_555 1_555
C67_3 C81_3 1_555 1_555
C67_3 C89_3 1_555 1_555
C69_3 C77_3 1_555 1_555
C69_3 C85_3 1_555 1_555
C72_3 C74_3 1_555 1_555
C76_3 C79_3 1_555 1_555
C78_3 C107_3 1_555 1_555
C81_3 N4_3 1_555 1_555
C83_3 C91_3 1_555 1_555
C84_3 C110_3 1_555 1_555
C86_3 C91_3 1_555 1_555
C87_3 C89_3 1_555 1_555
C92_3 C109_3 1_555 1_555
C98_2 C113_2 1_555 1_555
C99_3 C116_3 1_555 1_555
C101_3 N2_3 1_555 1_555
C104_3 C120_3 1_555 1_555
C106_3 C115_3 1_555 1_555
C107_3 C117_3 1_555 1_555
C109_3 C112_3 1_555 1_555
C111_3 C115_3 1_555 1_555
C118_3 N3_3 1_555 1_555
C121_3 N3_3 1_555 1_555
C122_3 N5_3 1_555 1_555
C123_2 N7_2 1_555 1_555
C121_3 H125_3 1_555 1_555
C122_3 H126_3 1_555 1_555
C123_2 H127_2 1_555 1_555
C29_2 H129_2 1_555 1_555
C30_2 C9_2 1_555 1_555
H25_2 C30_2 1_555 1_555
H26_2 C30_2 1_555 1_555
H27_2 C30_2 1_555 1_555
C43_2 H51_2 1_555 1_555
C44_2 C43_2 1_555 1_555
H52_2 C44_2 1_555 1_555
H53_2 C44_2 1_555 1_555
H54_2 C44_2 1_555 1_555
C45_2 C9_2 1_555 1_555
H55_2 C45_2 1_555 1_555
H56_2 C45_2 1_555 1_555
H57_2 C45_2 1_555 1_555
C46_2 C43_2 1_555 1_555
H58_2 C46_2 1_555 1_555
H59_2 C46_2 1_555 1_555
H60_3 C46_2 1_555 1_555
C9_2 H128_2 1_555 1_555
C1_3 H1_3 1_555 1_555
C6_3 C1_3 1_555 1_555
C10_3 H5_3 1_555 1_555
C12_3 C10_3 1_555 1_555
C16_3 C10_3 1_555 1_555
H7_3 C16_3 1_555 1_555
H8_3 C16_3 1_555 1_555
H9_3 C16_3 1_555 1_555
C20_3 C1_3 1_555 1_555
C22_3 C10_3 1_555 1_555
H16_3 C22_3 1_555 1_555
H17_3 C22_3 1_555 1_555
H18_3 C22_3 1_555 1_555
C23_3 C12_3 1_555 1_555
C41_3 C6_3 1_555 1_555
H47_3 C41_3 1_555 1_555
O11_2 C65_3 1_555 1_555
O13_2 C65_3 1_555 1_555
C65_3 C105_3 1_555 1_555
C95_3 C6_3 1_555 1_555
C96_3 C95_3 1_555 1_555
H102_3 C96_3 1_555 1_555
C100_3 H105_3 1_555 1_555
C102_3 C95_3 1_555 1_555
H107_3 C102_3 1_555 1_555
C103_3 C96_3 1_555 1_555
H108_3 C103_3 1_555 1_555
C105_3 C100_3 1_555 1_555
Zn6_2 O11_2 1_555 1_555
Zn10_2 O13_2 1_555 1_555
C12_3 C41_3 1_555 1_555
C20_3 C23_3 1_555 1_555
C100_3 C102_3 1_555 1_555
C103_3 C105_3 1_555 1_555
C2_4 C37_4 1_555 1_555
C3_4 H2_4 1_555 1_555
C5_4 C3_4 1_555 1_555
C6_4 C1_4 1_555 1_555
C7_4 H3_4 1_555 1_555
C10_4 H5_4 1_555 1_555
C12_4 C10_4 1_555 1_555
C16_4 C10_4 1_555 1_555
H7_4 C16_4 1_555 1_555
H8_4 C16_4 1_555 1_555
H9_4 C16_4 1_555 1_555
C20_4 C1_4 1_555 1_555
C22_4 C10_4 1_555 1_555
H16_4 C22_4 1_555 1_555
H17_4 C22_4 1_555 1_555
H18_4 C22_4 1_555 1_555
C23_4 C12_4 1_555 1_555
H19_4 C25_4 1_555 1_555
C26_4 H20_4 1_555 1_555
C27_4 C26_4 1_555 1_555
H21_4 C27_4 1_555 1_555
C28_4 H22_4 1_555 1_555
H23_4 C28_4 1_555 1_555
H24_4 C28_4 1_555 1_555
C35_4 C5_4 1_555 1_555
H36_4 C35_4 1_555 1_555
C36_4 H37_4 1_555 1_555
H38_4 C36_4 1_555 1_555
H39_4 C36_4 1_555 1_555
C37_4 C5_4 1_555 1_555
C38_4 C35_4 1_555 1_555
H40_4 C38_4 1_555 1_555
H41_4 C38_4 1_555 1_555
H42_4 C38_4 1_555 1_555
C39_4 H43_4 1_555 1_555
H44_4 C39_4 1_555 1_555
C41_4 C6_4 1_555 1_555
H47_4 C41_4 1_555 1_555
O1_4 Zn8_2 1_555 1_555
C42_4 H48_4 1_555 1_555
H49_4 C42_4 1_555 1_555
H50_4 C42_4 1_555 1_555
C48_4 C2_4 1_555 1_555
H64_4 C48_4 1_555 1_555
C49_4 C48_4 1_555 1_555
H65_4 C49_4 1_555 1_555
H66_4 C49_4 1_555 1_555
H67_4 C49_4 1_555 1_555
C50_4 C48_4 1_555 1_555
H68_4 C50_4 1_555 1_555
H69_4 C50_4 1_555 1_555
H70_4 C50_4 1_555 1_555
O2_4 N1_4 1_555 1_555
O3_4 N1_4 1_555 1_555
O4_4 N1_4 1_555 1_555
C51_4 C35_4 1_555 1_555
H71_4 C51_4 1_555 1_555
H72_4 C51_4 1_555 1_555
H73_4 C51_4 1_555 1_555
Zn1_4 O7_4 1_555 1_555
Zn6_2 O9_4 1_555 1_555
Zn8_2 O2_4 1_555 1_555
Zn10_2 O8_4 1_555 1_555
O5_2 C60_4 1_555 1_555
O6_2 C60_4 1_555 1_555
O7_4 C53_4 1_555 1_555
O8_4 C56_4 1_555 1_555
O9_4 Zn1_4 1_555 1_555
O10_4 Zn6_2 1_555 1_555
C52_4 H74_4 1_555 1_555
C53_4 O10_4 1_555 1_555
C54_4 H75_4 1_555 1_555
C55_4 C52_4 1_555 1_555
H76_4 C55_4 1_555 1_555
C56_4 O14_4 1_555 1_555
O14_4 Zn1_4 1_555 1_555
C57_4 C63_4 1_555 1_555
C58_4 C54_4 1_555 1_555
H77_4 C58_4 1_555 1_555
C60_4 C71_4 1_555 1_555
O15_4 Zn1_4 1_555 1_555
C61_4 C68_4 1_555 1_555
C62_4 H79_4 1_555 1_555
C63_4 H80_4 1_555 1_555
C64_4 H81_4 1_555 1_555
C66_4 C73_4 1_555 1_555
C67_4 C73_4 1_555 1_555
C68_4 H82_4 1_555 1_555
C69_4 C64_4 1_555 1_555
C71_4 C54_4 1_555 1_555
C72_4 H83_4 1_555 1_555
C73_4 H84_4 1_555 1_555
C74_4 C61_4 1_555 1_555
C75_4 C61_4 1_555 1_555
H85_4 C75_4 1_555 1_555
C76_4 C62_4 1_555 1_555
H86_4 C76_4 1_555 1_555
C77_4 C68_4 1_555 1_555
H87_4 C77_4 1_555 1_555
C78_4 C84_4 1_555 1_555
C79_4 C53_4 1_555 1_555
C80_4 C57_4 1_555 1_555
H88_4 C80_4 1_555 1_555
C81_4 C57_4 1_555 1_555
C82_4 C52_4 1_555 1_555
C84_4 C108_4 1_555 1_555
C85_4 O1_4 1_555 1_555
C86_4 H90_4 1_555 1_555
C87_4 H91_4 1_555 1_555
H92_4 C87_4 1_555 1_555
H93_4 C87_4 1_555 1_555
C89_4 C42_4 1_555 1_555
H95_4 C89_4 1_555 1_555
C91_4 C56_4 1_555 1_555
C92_4 C58_4 1_555 1_555
C93_4 C63_4 1_555 1_555
H96_4 C93_4 1_555 1_555
H97_4 C93_4 1_555 1_555
H98_4 C93_4 1_555 1_555
C94_4 C63_4 1_555 1_555
H99_4 C94_4 1_555 1_555
H100_4 C94_4 1_555 1_555
H101_4 C94_4 1_555 1_555
C95_4 C6_4 1_555 1_555
C96_4 C95_4 1_555 1_555
H102_4 C96_4 1_555 1_555
C99_4 C71_4 1_555 1_555
H104_4 C99_4 1_555 1_555
C101_4 H106_4 1_555 1_555
C103_4 C96_4 1_555 1_555
H108_4 C103_4 1_555 1_555
C104_4 C25_4 1_555 1_555
C106_4 C83_4 1_555 1_555
C107_4 C72_4 1_555 1_555
C108_4 C36_4 1_555 1_555
H110_4 C108_4 1_555 1_555
C109_4 C3_4 1_555 1_555
C110_4 C74_4 1_555 1_555
H111_4 C110_4 1_555 1_555
C111_4 C86_4 1_555 1_555
H112_4 C111_4 1_555 1_555
C112_4 C2_4 1_555 1_555
H113_4 C112_4 1_555 1_555
C114_4 C108_4 1_555 1_555
H115_4 C114_4 1_555 1_555
H116_4 C114_4 1_555 1_555
H117_4 C114_4 1_555 1_555
C115_4 C104_4 1_555 1_555
C116_4 C92_4 1_555 1_555
H118_4 C116_4 1_555 1_555
C117_4 C28_4 1_555 1_555
H119_4 C117_4 1_555 1_555
C118_4 C101_4 1_555 1_555
H120_4 C118_4 1_555 1_555
C119_4 C117_4 1_555 1_555
H121_4 C119_4 1_555 1_555
H122_4 C119_4 1_555 1_555
H123_4 C119_4 1_555 1_555
N2_4 C78_4 1_555 1_555
C121_4 N2_4 1_555 1_555
N3_4 C23_4 1_555 1_555
Au1_4 C121_4 1_555 1_555
N4_4 C27_4 1_555 1_555
C122_4 N4_4 1_555 1_555
N5_4 C26_4 1_555 1_555
Au2_4 C122_4 1_555 1_555
Cl2_4 Au2_4 1_555 1_555
C7_4 C20_4 1_555 1_555
C12_4 C41_4 1_555 1_555
C20_4 C23_4 1_555 1_555
C37_4 N5_4 1_555 1_555
O3_4 Zn8_2 1_555 1_555
Zn8_2 O9_4 1_555 1_555
Zn10_2 O9_4 1_555 1_555
C55_4 C79_4 1_555 1_555
O15_4 C85_4 1_555 1_555
C62_4 C82_4 1_555 1_555
C64_4 C75_4 1_555 1_555
C66_4 C80_4 1_555 1_555
C66_4 C82_4 1_555 1_555
C67_4 C81_4 1_555 1_555
C67_4 C89_4 1_555 1_555
C69_4 C77_4 1_555 1_555
C69_4 C85_4 1_555 1_555
C72_4 C74_4 1_555 1_555
C76_4 C79_4 1_555 1_555
C78_4 C107_4 1_555 1_555
C81_4 N4_4 1_555 1_555
C83_4 C91_4 1_555 1_555
C84_4 C110_4 1_555 1_555
C86_4 C91_4 1_555 1_555
C87_4 C89_4 1_555 1_555
C92_4 C109_4 1_555 1_555
C99_4 C116_4 1_555 1_555
C101_4 N2_4 1_555 1_555
C104_4 C120_4 1_555 1_555
C106_4 C115_4 1_555 1_555
C107_4 C117_4 1_555 1_555
C109_4 C112_4 1_555 1_555
C111_4 C115_4 1_555 1_555
C118_4 N3_4 1_555 1_555
C121_4 N3_4 1_555 1_555
C122_4 N5_4 1_555 1_555
C121_4 H125_4 1_555 1_555
C122_4 H126_4 1_555 1_555
O20_2 C90_4 1_555 1_555
O22_2 C90_4 1_555 1_555
H103_4 C97_4 1_555 1_555
H10_4 C18_4 1_555 1_555
H11_4 C18_4 1_555 1_555
H12_4 C18_4 1_555 1_555
H13_4 C19_4 1_555 1_555
H15_4 C19_4 1_555 1_555
O19_2 C65_4 1_555 1_555
O21_2 C65_4 1_555 1_555
C65_4 C105_4 1_555 1_555
C100_4 H105_4 1_555 1_555
H107_4 C102_4 1_555 1_555
C105_4 C100_4 1_555 1_555
C100_4 C102_4 1_555 1_555
C4_3 C8_3 1_555 1_555
C8_3 H4_3 1_555 1_555
C9_3 C21_3 1_555 1_555
C11_3 C15_3 1_555 1_555
C13_3 H6_3 1_555 1_555
C14_3 C4_3 1_555 1_555
C15_3 C43_3 1_555 1_555
C17_3 C8_3 1_555 1_555
C21_3 C13_3 1_555 1_555
C24_3 C11_3 1_555 1_555
C29_3 C4_3 1_555 1_555
C30_3 C9_3 1_555 1_555
H25_3 C30_3 1_555 1_555
H26_3 C30_3 1_555 1_555
H27_3 C30_3 1_555 1_555
C31_3 H28_3 1_555 1_555
C32_3 C31_3 1_555 1_555
H29_3 C32_3 1_555 1_555
C33_3 C29_3 1_555 1_555
H30_3 C33_3 1_555 1_555
H31_3 C33_3 1_555 1_555
H32_3 C33_3 1_555 1_555
C34_3 C29_3 1_555 1_555
H33_3 C34_3 1_555 1_555
H34_3 C34_3 1_555 1_555
H35_3 C34_3 1_555 1_555
C40_3 C24_3 1_555 1_555
H46_3 C40_3 1_555 1_555
C43_3 H51_3 1_555 1_555
C44_3 C43_3 1_555 1_555
H52_3 C44_3 1_555 1_555
H53_3 C44_3 1_555 1_555
H54_3 C44_3 1_555 1_555
C45_3 C9_3 1_555 1_555
H55_3 C45_3 1_555 1_555
H56_3 C45_3 1_555 1_555
H57_3 C45_3 1_555 1_555
C46_3 C43_3 1_555 1_555
H58_3 C46_3 1_555 1_555
H59_3 C46_3 1_555 1_555
C47_3 C40_3 1_555 1_555
H61_3 C47_3 1_555 1_555
H62_3 C47_3 1_555 1_555
C59_3 H78_3 1_555 1_555
C70_3 C88_3 1_555 1_555
C88_3 C59_3 1_555 1_555
H94_3 C88_3 1_555 1_555
C98_3 C17_3 1_555 1_555
H114_3 C113_3 1_555 1_555
N6_3 C11_3 1_555 1_555
C123_3 N6_3 1_555 1_555
N7_3 C14_3 1_555 1_555
Au3_3 C123_3 1_555 1_555
Cl3_3 Au3_3 1_555 1_555
C13_3 C17_3 1_555 1_555
C14_3 C21_3 1_555 1_555
C31_3 N6_3 1_555 1_555
C32_3 N7_3 1_555 1_555
C59_3 C98_3 1_555 1_555
C98_3 C113_3 1_555 1_555
C123_3 N7_3 1_555 1_555
C123_3 H127_3 1_555 1_555
C9_3 H128_3 1_555 1_555
C29_3 H129_3 1_555 1_555
C4_4 C8_4 1_555 1_555
C8_4 H4_4 1_555 1_555
C11_4 C15_4 1_555 1_555
C13_4 H6_4 1_555 1_555
C14_4 C4_4 1_555 1_555
C17_4 C8_4 1_555 1_555
C21_4 C13_4 1_555 1_555
C24_4 C11_4 1_555 1_555
C29_4 C4_4 1_555 1_555
C31_4 H28_4 1_555 1_555
C32_4 C31_4 1_555 1_555
H29_4 C32_4 1_555 1_555
C33_4 C29_4 1_555 1_555
H30_4 C33_4 1_555 1_555
H31_4 C33_4 1_555 1_555
H32_4 C33_4 1_555 1_555
C34_4 C29_4 1_555 1_555
H33_4 C34_4 1_555 1_555
H34_4 C34_4 1_555 1_555
H35_4 C34_4 1_555 1_555
C40_4 C24_4 1_555 1_555
H46_4 C40_4 1_555 1_555
C47_4 C40_4 1_555 1_555
H61_4 C47_4 1_555 1_555
H62_4 C47_4 1_555 1_555
C59_4 H78_4 1_555 1_555
C70_4 C88_4 1_555 1_555
C88_4 C59_4 1_555 1_555
H94_4 C88_4 1_555 1_555
C98_4 C17_4 1_555 1_555
H114_4 C113_4 1_555 1_555
N6_4 C11_4 1_555 1_555
C123_4 N6_4 1_555 1_555
N7_4 C14_4 1_555 1_555
Au3_4 C123_4 1_555 1_555
Cl3_4 Au3_4 1_555 1_555
C13_4 C17_4 1_555 1_555
C14_4 C21_4 1_555 1_555
C31_4 N6_4 1_555 1_555
C32_4 N7_4 1_555 1_555
C59_4 C98_4 1_555 1_555
C98_4 C113_4 1_555 1_555
C123_4 N7_4 1_555 1_555
C123_4 H127_4 1_555 1_555
C29_4 H129_4 1_555 1_555
C30_4 C9_4 1_555 1_555
H25_4 C30_4 1_555 1_555
H26_4 C30_4 1_555 1_555
H27_4 C30_4 1_555 1_555
C43_4 H51_4 1_555 1_555
C44_4 C43_4 1_555 1_555
H52_4 C44_4 1_555 1_555
H53_4 C44_4 1_555 1_555
H54_4 C44_4 1_555 1_555
C45_4 C9_4 1_555 1_555
H55_4 C45_4 1_555 1_555
H56_4 C45_4 1_555 1_555
H57_4 C45_4 1_555 1_555
C46_4 C43_4 1_555 1_555
H58_4 C46_4 1_555 1_555
H59_4 C46_4 1_555 1_555
C9_4 H128_4 1_555 1_555
C1_5 H1_5 1_555 1_555
C6_5 C1_5 1_555 1_555
C10_5 H5_5 1_555 1_555
C12_5 C10_5 1_555 1_555
C16_5 C10_5 1_555 1_555
H7_5 C16_5 1_555 1_555
H8_5 C16_5 1_555 1_555
H9_5 C16_5 1_555 1_555
C20_5 C1_5 1_555 1_555
C22_5 C10_5 1_555 1_555
H16_5 C22_5 1_555 1_555
H17_5 C22_5 1_555 1_555
H18_5 C22_5 1_555 1_555
C23_5 C12_5 1_555 1_555
C41_5 C6_5 1_555 1_555
H47_5 C41_5 1_555 1_555
O11_3 C65_5 1_555 1_555
O13_3 C65_5 1_555 1_555
C65_5 C105_5 1_555 1_555
C95_5 C6_5 1_555 1_555
C96_5 C95_5 1_555 1_555
H102_5 C96_5 1_555 1_555
C100_5 H105_5 1_555 1_555
C102_5 C95_5 1_555 1_555
H107_5 C102_5 1_555 1_555
C103_5 C96_5 1_555 1_555
H108_5 C103_5 1_555 1_555
C105_5 C100_5 1_555 1_555
Zn5 O11_3 1_555 1_555
Zn10_3 O13_3 1_555 1_555
C12_5 C41_5 1_555 1_555
C20_5 C23_5 1_555 1_555
C100_5 C102_5 1_555 1_555
C103_5 C105_5 1_555 1_555
C2_5 C37_5 1_555 1_555
C3_5 H2_5 1_555 1_555
C5_5 C3_5 1_555 1_555
C26_5 H20_5 1_555 1_555
C27_5 C26_5 1_555 1_555
H21_5 C27_5 1_555 1_555
C35_5 C5_5 1_555 1_555
H36_5 C35_5 1_555 1_555
C37_5 C5_5 1_555 1_555
C38_5 C35_5 1_555 1_555
H40_5 C38_5 1_555 1_555
H41_5 C38_5 1_555 1_555
H42_5 C38_5 1_555 1_555
C42_5 H48_5 1_555 1_555
C48_5 C2_5 1_555 1_555
H64_5 C48_5 1_555 1_555
C49_5 C48_5 1_555 1_555
H65_5 C49_5 1_555 1_555
H66_5 C49_5 1_555 1_555
H67_5 C49_5 1_555 1_555
C50_5 C48_5 1_555 1_555
H68_5 C50_5 1_555 1_555
H69_5 C50_5 1_555 1_555
H70_5 C50_5 1_555 1_555
C51_5 C35_5 1_555 1_555
H71_5 C51_5 1_555 1_555
O5_3 C60_5 1_555 1_555
O6_3 C60_5 1_555 1_555
C54_5 H75_5 1_555 1_555
C58_5 C54_5 1_555 1_555
H77_5 C58_5 1_555 1_555
C60_5 C71_5 1_555 1_555
C71_5 C54_5 1_555 1_555
C87_5 H91_5 1_555 1_555
H93_5 C87_5 1_555 1_555
C89_5 C42_5 1_555 1_555
H95_5 C89_5 1_555 1_555
C92_5 C58_5 1_555 1_555
C99_5 C71_5 1_555 1_555
H104_5 C99_5 1_555 1_555
C109_5 C3_5 1_555 1_555
C112_5 C2_5 1_555 1_555
H113_5 C112_5 1_555 1_555
C116_5 C92_5 1_555 1_555
H118_5 C116_5 1_555 1_555
N4_5 C27_5 1_555 1_555
C122_5 N4_5 1_555 1_555
N5_5 C26_5 1_555 1_555
Au2_5 C122_5 1_555 1_555
Cl2_5 Au2_5 1_555 1_555
Zn7_2 O6_3 1_555 1_555
Zn9_2 O5_3 1_555 1_555
C37_5 N5_5 1_555 1_555
C87_5 C89_5 1_555 1_555
C92_5 C109_5 1_555 1_555
C99_5 C116_5 1_555 1_555
C109_5 C112_5 1_555 1_555
C122_5 N5_5 1_555 1_555
C122_5 H126_5 1_555 1_555
C4_5 C8_5 1_555 1_555
C7_5 H3_5 1_555 1_555
C8_5 H4_5 1_555 1_555
C9_5 C21_5 1_555 1_555
C11_5 C15_5 1_555 1_555
C13_5 H6_5 1_555 1_555
C14_5 C4_5 1_555 1_555
C15_5 C43_5 1_555 1_555
C17_5 C8_5 1_555 1_555
C18_5 C7_5 1_555 1_555
H10_5 C18_5 1_555 1_555
H11_5 C18_5 1_555 1_555
H12_5 C18_5 1_555 1_555
C19_5 C7_5 1_555 1_555
H13_5 C19_5 1_555 1_555
H14_5 C19_5 1_555 1_555
H15_5 C19_5 1_555 1_555
C21_5 C13_5 1_555 1_555
C24_5 C11_5 1_555 1_555
C25_5 C24_5 1_555 1_555
H19_5 C25_5 1_555 1_555
C28_5 H22_5 1_555 1_555
H23_5 C28_5 1_555 1_555
H24_5 C28_5 1_555 1_555
C29_5 C4_5 1_555 1_555
C30_5 C9_5 1_555 1_555
H25_5 C30_5 1_555 1_555
H26_5 C30_5 1_555 1_555
H27_5 C30_5 1_555 1_555
C31_5 H28_5 1_555 1_555
C32_5 C31_5 1_555 1_555
H29_5 C32_5 1_555 1_555
C33_5 C29_5 1_555 1_555
H30_5 C33_5 1_555 1_555
H31_5 C33_5 1_555 1_555
H32_5 C33_5 1_555 1_555
C34_5 C29_5 1_555 1_555
H33_5 C34_5 1_555 1_555
H34_5 C34_5 1_555 1_555
H35_5 C34_5 1_555 1_555
C36_5 H37_5 1_555 1_555
H38_5 C36_5 1_555 1_555
H39_5 C36_5 1_555 1_555
C39_5 H43_5 1_555 1_555
H44_5 C39_5 1_555 1_555
H45_5 C39_5 1_555 1_555
C40_5 C24_5 1_555 1_555
H46_5 C40_5 1_555 1_555
O1_5 Zn7_2 1_555 1_555
C43_5 H51_5 1_555 1_555
C44_5 C43_5 1_555 1_555
H52_5 C44_5 1_555 1_555
H53_5 C44_5 1_555 1_555
H54_5 C44_5 1_555 1_555
C45_5 C9_5 1_555 1_555
H55_5 C45_5 1_555 1_555
H56_5 C45_5 1_555 1_555
H57_5 C45_5 1_555 1_555
C46_5 C43_5 1_555 1_555
H58_5 C46_5 1_555 1_555
H59_5 C46_5 1_555 1_555
H60_5 C46_5 1_555 1_555
C47_5 C40_5 1_555 1_555
H61_5 C47_5 1_555 1_555
H62_5 C47_5 1_555 1_555
H63_5 C47_5 1_555 1_555
O2_5 N1_5 1_555 1_555
O3_5 N1_5 1_555 1_555
O4_5 N1_5 1_555 1_555
Zn1_5 O7_5 1_555 1_555
Zn2_3 O9_5 1_555 1_555
Zn7_2 O2_5 1_555 1_555
Zn9_2 O8_5 1_555 1_555
O7_5 C53_5 1_555 1_555
O8_5 C56_5 1_555 1_555
O9_5 Zn1_5 1_555 1_555
O10_5 Zn2_3 1_555 1_555
O12_3 C90_5 1_555 1_555
C52_5 H74_5 1_555 1_555
C53_5 O10_5 1_555 1_555
C55_5 C52_5 1_555 1_555
H76_5 C55_5 1_555 1_555
C56_5 O14_5 1_555 1_555
O14_5 Zn1_5 1_555 1_555
C57_5 C63_5 1_555 1_555
C59_5 H78_5 1_555 1_555
O15_5 Zn1_5 1_555 1_555
C61_5 C68_5 1_555 1_555
C62_5 H79_5 1_555 1_555
C63_5 H80_5 1_555 1_555
C64_5 H81_5 1_555 1_555
C66_5 C73_5 1_555 1_555
O16_3 C90_5 1_555 1_555
C67_5 C73_5 1_555 1_555
C68_5 H82_5 1_555 1_555
C69_5 C64_5 1_555 1_555
C70_5 C88_5 1_555 1_555
C72_5 H83_5 1_555 1_555
C73_5 H84_5 1_555 1_555
C74_5 C61_5 1_555 1_555
C75_5 C61_5 1_555 1_555
H85_5 C75_5 1_555 1_555
C76_5 C62_5 1_555 1_555
H86_5 C76_5 1_555 1_555
C77_5 C68_5 1_555 1_555
H87_5 C77_5 1_555 1_555
C78_5 C84_5 1_555 1_555
C79_5 C53_5 1_555 1_555
C80_5 C57_5 1_555 1_555
H88_5 C80_5 1_555 1_555
C81_5 C57_5 1_555 1_555
C82_5 C52_5 1_555 1_555
C83_5 H89_5 1_555 1_555
C84_5 C108_5 1_555 1_555
C85_5 O1_5 1_555 1_555
C86_5 H90_5 1_555 1_555
C88_5 C59_5 1_555 1_555
H94_5 C88_5 1_555 1_555
C90_5 C70_5 1_555 1_555
C91_5 C56_5 1_555 1_555
C93_5 C63_5 1_555 1_555
H96_5 C93_5 1_555 1_555
H97_5 C93_5 1_555 1_555
H98_5 C93_5 1_555 1_555
C94_5 C63_5 1_555 1_555
H99_5 C94_5 1_555 1_555
H100_5 C94_5 1_555 1_555
H101_5 C94_5 1_555 1_555
C97_5 C70_5 1_555 1_555
H103_5 C97_5 1_555 1_555
C98_5 C17_5 1_555 1_555
C101_5 H106_5 1_555 1_555
C104_5 C25_5 1_555 1_555
C106_5 C83_5 1_555 1_555
H109_5 C106_5 1_555 1_555
C107_5 C72_5 1_555 1_555
C108_5 C36_5 1_555 1_555
H110_5 C108_5 1_555 1_555
C110_5 C74_5 1_555 1_555
H111_5 C110_5 1_555 1_555
C111_5 C86_5 1_555 1_555
H112_5 C111_5 1_555 1_555
C113_5 C97_5 1_555 1_555
H114_5 C113_5 1_555 1_555
C114_5 C108_5 1_555 1_555
H115_5 C114_5 1_555 1_555
H116_5 C114_5 1_555 1_555
H117_5 C114_5 1_555 1_555
C115_5 C104_5 1_555 1_555
C117_5 C28_5 1_555 1_555
H119_5 C117_5 1_555 1_555
C118_5 C101_5 1_555 1_555
H120_5 C118_5 1_555 1_555
C119_5 C117_5 1_555 1_555
H121_5 C119_5 1_555 1_555
H122_5 C119_5 1_555 1_555
H123_5 C119_5 1_555 1_555
C120_5 C15_5 1_555 1_555
H124_5 C120_5 1_555 1_555
N2_5 C78_5 1_555 1_555
C121_5 N2_5 1_555 1_555
Au1_5 C121_5 1_555 1_555
Cl1_5 Au1_5 1_555 1_555
N6_5 C11_5 1_555 1_555
C123_5 N6_5 1_555 1_555
N7_5 C14_5 1_555 1_555
Au3_5 C123_5 1_555 1_555
Cl3_5 Au3_5 1_555 1_555
Zn5 O12_3 1_555 1_555
Zn8_3 O16_3 1_555 1_555
O19_3 Zn2_3 1_555 1_555
O20_3 Zn2_3 1_555 1_555
O21_3 Zn9_2 1_555 1_555
O22_3 Zn7_2 1_555 1_555
C13_5 C17_5 1_555 1_555
C14_5 C21_5 1_555 1_555
C31_5 N6_5 1_555 1_555
C32_5 N7_5 1_555 1_555
C39_5 C40_5 1_555 1_555
O3_5 Zn7_2 1_555 1_555
Zn7_2 O9_5 1_555 1_555
Zn9_2 O9_5 1_555 1_555
C55_5 C79_5 1_555 1_555
C59_5 C98_5 1_555 1_555
O15_5 C85_5 1_555 1_555
C62_5 C82_5 1_555 1_555
C64_5 C75_5 1_555 1_555
C66_5 C80_5 1_555 1_555
C66_5 C82_5 1_555 1_555
C67_5 C81_5 1_555 1_555
C69_5 C77_5 1_555 1_555
C69_5 C85_5 1_555 1_555
C72_5 C74_5 1_555 1_555
C76_5 C79_5 1_555 1_555
C78_5 C107_5 1_555 1_555
C83_5 C91_5 1_555 1_555
C84_5 C110_5 1_555 1_555
C86_5 C91_5 1_555 1_555
C98_5 C113_5 1_555 1_555
C101_5 N2_5 1_555 1_555
C104_5 C120_5 1_555 1_555
C106_5 C115_5 1_555 1_555
C107_5 C117_5 1_555 1_555
C111_5 C115_5 1_555 1_555
C118_5 N3_5 1_555 1_555
C121_5 N3_5 1_555 1_555
C123_5 N7_5 1_555 1_555
C121_5 H125_5 1_555 1_555
C123_5 H127_5 1_555 1_555
C9_5 H128_5 1_555 1_555
C29_5 H129_5 1_555 1_555
C2_6 C37_6 1_555 1_555
C3_6 H2_6 1_555 1_555
C5_6 C3_6 1_555 1_555
C26_6 H20_6 1_555 1_555
C27_6 C26_6 1_555 1_555
H21_6 C27_6 1_555 1_555
C35_6 C5_6 1_555 1_555
H36_6 C35_6 1_555 1_555
C37_6 C5_6 1_555 1_555
C38_6 C35_6 1_555 1_555
H40_6 C38_6 1_555 1_555
H41_6 C38_6 1_555 1_555
H42_6 C38_6 1_555 1_555
C42_6 H48_6 1_555 1_555
H50_6 C42_6 1_555 1_555
C48_6 C2_6 1_555 1_555
H64_6 C48_6 1_555 1_555
C49_6 C48_6 1_555 1_555
H65_6 C49_6 1_555 1_555
H66_6 C49_6 1_555 1_555
H67_6 C49_6 1_555 1_555
C50_6 C48_6 1_555 1_555
H68_6 C50_6 1_555 1_555
H69_6 C50_6 1_555 1_555
H70_6 C50_6 1_555 1_555
C51_6 C35_6 1_555 1_555
H71_6 C51_6 1_555 1_555
H72_6 C51_6 1_555 1_555
H73_6 C51_6 1_555 1_555
O5_4 C60_6 1_555 1_555
O6_4 C60_6 1_555 1_555
C54_6 H75_6 1_555 1_555
C58_6 C54_6 1_555 1_555
H77_6 C58_6 1_555 1_555
C60_6 C71_6 1_555 1_555
C71_6 C54_6 1_555 1_555
C87_6 H91_6 1_555 1_555
H93_6 C87_6 1_555 1_555
C89_6 C42_6 1_555 1_555
H95_6 C89_6 1_555 1_555
C92_6 C58_6 1_555 1_555
C99_6 C71_6 1_555 1_555
H104_6 C99_6 1_555 1_555
C109_6 C3_6 1_555 1_555
C112_6 C2_6 1_555 1_555
H113_6 C112_6 1_555 1_555
C116_6 C92_6 1_555 1_555
H118_6 C116_6 1_555 1_555
N4_6 C27_6 1_555 1_555
C122_6 N4_6 1_555 1_555
N5_6 C26_6 1_555 1_555
Au2_6 C122_6 1_555 1_555
Cl2_6 Au2_6 1_555 1_555
Zn8_3 O6_4 1_555 1_555
Zn10_3 O5_4 1_555 1_555
C37_6 N5_6 1_555 1_555
C87_6 C89_6 1_555 1_555
C92_6 C109_6 1_555 1_555
C99_6 C116_6 1_555 1_555
C109_6 C112_6 1_555 1_555
C122_6 N5_6 1_555 1_555
C122_6 H126_6 1_555 1_555
C6_6 C1_6 1_555 1_555
C7_6 H3_6 1_555 1_555
C10_6 H5_6 1_555 1_555
C12_6 C10_6 1_555 1_555
C16_6 C10_6 1_555 1_555
H7_6 C16_6 1_555 1_555
H8_6 C16_6 1_555 1_555
H9_6 C16_6 1_555 1_555
C20_6 C1_6 1_555 1_555
C22_6 C10_6 1_555 1_555
H16_6 C22_6 1_555 1_555
H17_6 C22_6 1_555 1_555
H18_6 C22_6 1_555 1_555
C23_6 C12_6 1_555 1_555
H19_6 C25_6 1_555 1_555
C28_6 H22_6 1_555 1_555
H23_6 C28_6 1_555 1_555
H24_6 C28_6 1_555 1_555
C36_6 H37_6 1_555 1_555
H38_6 C36_6 1_555 1_555
H39_6 C36_6 1_555 1_555
C39_6 H43_6 1_555 1_555
H44_6 C39_6 1_555 1_555
C41_6 C6_6 1_555 1_555
H47_6 C41_6 1_555 1_555
O1_6 Zn8_3 1_555 1_555
O2_6 N1_6 1_555 1_555
O3_6 N1_6 1_555 1_555
O4_6 N1_6 1_555 1_555
Zn1_6 O7_6 1_555 1_555
Zn5 O9_6 1_555 1_555
Zn8_3 O2_6 1_555 1_555
Zn10_3 O8_6 1_555 1_555
O7_6 C53_6 1_555 1_555
O8_6 C56_6 1_555 1_555
O9_6 Zn1_6 1_555 1_555
O10_6 Zn5 1_555 1_555
C52_6 H74_6 1_555 1_555
C53_6 O10_6 1_555 1_555
C55_6 C52_6 1_555 1_555
H76_6 C55_6 1_555 1_555
C56_6 O14_6 1_555 1_555
O14_6 Zn1_6 1_555 1_555
C57_6 C63_6 1_555 1_555
O15_6 Zn1_6 1_555 1_555
C61_6 C68_6 1_555 1_555
C62_6 H79_6 1_555 1_555
C63_6 H80_6 1_555 1_555
C64_6 H81_6 1_555 1_555
C66_6 C73_6 1_555 1_555
C67_6 C73_6 1_555 1_555
C68_6 H82_6 1_555 1_555
C69_6 C64_6 1_555 1_555
C72_6 H83_6 1_555 1_555
C73_6 H84_6 1_555 1_555
C74_6 C61_6 1_555 1_555
C75_6 C61_6 1_555 1_555
H85_6 C75_6 1_555 1_555
C76_6 C62_6 1_555 1_555
H86_6 C76_6 1_555 1_555
C77_6 C68_6 1_555 1_555
H87_6 C77_6 1_555 1_555
C78_6 C84_6 1_555 1_555
C79_6 C53_6 1_555 1_555
C80_6 C57_6 1_555 1_555
H88_6 C80_6 1_555 1_555
C81_6 C57_6 1_555 1_555
C82_6 C52_6 1_555 1_555
C83_6 H89_6 1_555 1_555
C84_6 C108_6 1_555 1_555
C85_6 O1_6 1_555 1_555
C86_6 H90_6 1_555 1_555
C91_6 C56_6 1_555 1_555
C93_6 C63_6 1_555 1_555
H96_6 C93_6 1_555 1_555
H97_6 C93_6 1_555 1_555
H98_6 C93_6 1_555 1_555
C94_6 C63_6 1_555 1_555
H99_6 C94_6 1_555 1_555
H100_6 C94_6 1_555 1_555
H101_6 C94_6 1_555 1_555
C95_6 C6_6 1_555 1_555
C96_6 C95_6 1_555 1_555
H102_6 C96_6 1_555 1_555
C101_6 H106_6 1_555 1_555
C103_6 C96_6 1_555 1_555
H108_6 C103_6 1_555 1_555
C104_6 C25_6 1_555 1_555
C106_6 C83_6 1_555 1_555
H109_6 C106_6 1_555 1_555
C107_6 C72_6 1_555 1_555
C108_6 C36_6 1_555 1_555
H110_6 C108_6 1_555 1_555
C110_6 C74_6 1_555 1_555
H111_6 C110_6 1_555 1_555
C111_6 C86_6 1_555 1_555
H112_6 C111_6 1_555 1_555
C114_6 C108_6 1_555 1_555
H115_6 C114_6 1_555 1_555
H116_6 C114_6 1_555 1_555
H117_6 C114_6 1_555 1_555
C115_6 C104_6 1_555 1_555
C117_6 C28_6 1_555 1_555
H119_6 C117_6 1_555 1_555
C118_6 C101_6 1_555 1_555
H120_6 C118_6 1_555 1_555
C119_6 C117_6 1_555 1_555
H121_6 C119_6 1_555 1_555
H122_6 C119_6 1_555 1_555
H123_6 C119_6 1_555 1_555
H124_6 C120_6 1_555 1_555
N2_6 C78_6 1_555 1_555
C121_6 N2_6 1_555 1_555
N3_6 C23_6 1_555 1_555
Au1_6 C121_6 1_555 1_555
Cl1_6 Au1_6 1_555 1_555
C7_6 C20_6 1_555 1_555
C12_6 C41_6 1_555 1_555
C20_6 C23_6 1_555 1_555
O3_6 Zn8_3 1_555 1_555
Zn8_3 O9_6 1_555 1_555
Zn10_3 O9_6 1_555 1_555
C55_6 C79_6 1_555 1_555
O15_6 C85_6 1_555 1_555
C62_6 C82_6 1_555 1_555
C64_6 C75_6 1_555 1_555
C66_6 C80_6 1_555 1_555
C66_6 C82_6 1_555 1_555
C67_6 C81_6 1_555 1_555
C69_6 C77_6 1_555 1_555
C69_6 C85_6 1_555 1_555
C72_6 C74_6 1_555 1_555
C76_6 C79_6 1_555 1_555
C78_6 C107_6 1_555 1_555
C83_6 C91_6 1_555 1_555
C84_6 C110_6 1_555 1_555
C86_6 C91_6 1_555 1_555
C101_6 N2_6 1_555 1_555
C104_6 C120_6 1_555 1_555
C106_6 C115_6 1_555 1_555
C107_6 C117_6 1_555 1_555
C111_6 C115_6 1_555 1_555
C118_6 N3_6 1_555 1_555
C121_6 N3_6 1_555 1_555
C121_6 H125_6 1_555 1_555
H10_6 C18_6 1_555 1_555
H11_6 C18_6 1_555 1_555
H12_6 C18_6 1_555 1_555
H13_6 C19_6 1_555 1_555
H15_6 C19_6 1_555 1_555
O19_3 C65_6 1_555 1_555
O21_3 C65_6 1_555 1_555
C65_6 C105_6 1_555 1_555
C100_6 H105_6 1_555 1_555
H107_6 C102_6 1_555 1_555
C105_6 C100_6 1_555 1_555
C100_6 C102_6 1_555 1_555
O20_3 C90_6 1_555 1_555
O22_3 C90_6 1_555 1_555
H103_6 C97_6 1_555 1_555
C1_7 H1_7 1_555 1_555
C6_7 C1_7 1_555 1_555
C10_7 H5_7 1_555 1_555
C12_7 C10_7 1_555 1_555
C16_7 C10_7 1_555 1_555
H7_7 C16_7 1_555 1_555
H8_7 C16_7 1_555 1_555
H9_7 C16_7 1_555 1_555
C20_7 C1_7 1_555 1_555
C22_7 C10_7 1_555 1_555
H16_7 C22_7 1_555 1_555
H17_7 C22_7 1_555 1_555
H18_7 C22_7 1_555 1_555
C23_7 C12_7 1_555 1_555
C41_7 C6_7 1_555 1_555
H47_7 C41_7 1_555 1_555
O11_4 C65_7 1_555 1_555
O13_4 C65_7 1_555 1_555
C65_7 C105_7 1_555 1_555
C95_7 C6_7 1_555 1_555
C96_7 C95_7 1_555 1_555
H102_7 C96_7 1_555 1_555
C100_7 H105_7 1_555 1_555
C102_7 C95_7 1_555 1_555
H107_7 C102_7 1_555 1_555
C103_7 C96_7 1_555 1_555
H108_7 C103_7 1_555 1_555
C105_7 C100_7 1_555 1_555
Zn5_2 O11_4 1_555 1_555
Zn10_4 O13_4 1_555 1_555
C12_7 C41_7 1_555 1_555
C20_7 C23_7 1_555 1_555
C100_7 C102_7 1_555 1_555
C103_7 C105_7 1_555 1_555
C30_6 C9_6 1_555 1_555
H25_6 C30_6 1_555 1_555
H26_6 C30_6 1_555 1_555
H27_6 C30_6 1_555 1_555
C43_6 H51_6 1_555 1_555
C44_6 C43_6 1_555 1_555
H52_6 C44_6 1_555 1_555
H53_6 C44_6 1_555 1_555
H54_6 C44_6 1_555 1_555
C45_6 C9_6 1_555 1_555
H55_6 C45_6 1_555 1_555
H56_6 C45_6 1_555 1_555
H57_6 C45_6 1_555 1_555
C46_6 C43_6 1_555 1_555
H58_6 C46_6 1_555 1_555
H59_6 C46_6 1_555 1_555
H60_7 C46_6 1_555 1_555
C9_6 H128_6 1_555 1_555
C2_7 C37_7 1_555 1_555
C3_7 H2_7 1_555 1_555
C4_6 C8_6 1_555 1_555
C5_7 C3_7 1_555 1_555
C7_7 H3_7 1_555 1_555
C8_6 H4_6 1_555 1_555
C11_6 C15_6 1_555 1_555
C13_6 H6_6 1_555 1_555
C14_6 C4_6 1_555 1_555
C17_6 C8_6 1_555 1_555
C18_7 C7_7 1_555 1_555
H10_7 C18_7 1_555 1_555
H11_7 C18_7 1_555 1_555
H12_7 C18_7 1_555 1_555
C19_7 C7_7 1_555 1_555
H13_7 C19_7 1_555 1_555
H14_7 C19_7 1_555 1_555
H15_7 C19_7 1_555 1_555
C21_6 C13_6 1_555 1_555
C24_6 C11_6 1_555 1_555
C25_7 C24_6 1_555 1_555
H19_7 C25_7 1_555 1_555
C26_7 H20_7 1_555 1_555
C27_7 C26_7 1_555 1_555
H21_7 C27_7 1_555 1_555
C28_7 H22_7 1_555 1_555
H23_7 C28_7 1_555 1_555
H24_7 C28_7 1_555 1_555
C29_6 C4_6 1_555 1_555
C31_6 H28_6 1_555 1_555
C32_6 C31_6 1_555 1_555
H29_6 C32_6 1_555 1_555
C33_6 C29_6 1_555 1_555
H30_6 C33_6 1_555 1_555
H31_6 C33_6 1_555 1_555
H32_6 C33_6 1_555 1_555
C34_6 C29_6 1_555 1_555
H33_6 C34_6 1_555 1_555
H34_6 C34_6 1_555 1_555
H35_6 C34_6 1_555 1_555
C35_7 C5_7 1_555 1_555
H36_7 C35_7 1_555 1_555
C36_7 H37_7 1_555 1_555
H38_7 C36_7 1_555 1_555
H39_7 C36_7 1_555 1_555
C37_7 C5_7 1_555 1_555
C38_7 C35_7 1_555 1_555
H40_7 C38_7 1_555 1_555
H41_7 C38_7 1_555 1_555
H42_7 C38_7 1_555 1_555
C39_7 H43_7 1_555 1_555
H44_7 C39_7 1_555 1_555
H45_6 C39_7 1_555 1_555
C40_6 C24_6 1_555 1_555
H46_6 C40_6 1_555 1_555
O1_7 Zn3_2 1_555 1_555
C42_7 H48_7 1_555 1_555
C47_6 C40_6 1_555 1_555
H61_6 C47_6 1_555 1_555
H62_6 C47_6 1_555 1_555
H63_7 C47_6 1_555 1_555
C48_7 C2_7 1_555 1_555
H64_7 C48_7 1_555 1_555
C49_7 C48_7 1_555 1_555
H65_7 C49_7 1_555 1_555
H66_7 C49_7 1_555 1_555
H67_7 C49_7 1_555 1_555
C50_7 C48_7 1_555 1_555
H68_7 C50_7 1_555 1_555
H69_7 C50_7 1_555 1_555
H70_7 C50_7 1_555 1_555
O2_7 N1_7 1_555 1_555
O3_7 N1_7 1_555 1_555
O4_7 N1_7 1_555 1_555
C51_7 C35_7 1_555 1_555
H71_7 C51_7 1_555 1_555
Zn1_7 O7_7 1_555 1_555
Zn2_4 O9_7 1_555 1_555
Zn3_2 O2_7 1_555 1_555
Zn4_2 O8_7 1_555 1_555
O17_3 C60_7 1_555 1_555
O18_3 C60_7 1_555 1_555
O7_7 C53_7 1_555 1_555
O8_7 C56_7 1_555 1_555
O9_7 Zn1_7 1_555 1_555
O10_7 Zn2_4 1_555 1_555
O12_4 C90_7 1_555 1_555
C52_7 H74_7 1_555 1_555
C53_7 O10_7 1_555 1_555
C54_7 H75_7 1_555 1_555
C55_7 C52_7 1_555 1_555
H76_7 C55_7 1_555 1_555
C56_7 O14_7 1_555 1_555
O14_7 Zn1_7 1_555 1_555
C57_7 C63_7 1_555 1_555
C58_7 C54_7 1_555 1_555
H77_7 C58_7 1_555 1_555
C59_6 H78_6 1_555 1_555
C60_7 C71_7 1_555 1_555
O15_7 Zn1_7 1_555 1_555
C61_7 C68_7 1_555 1_555
C62_7 H79_7 1_555 1_555
C63_7 H80_7 1_555 1_555
C64_7 H81_7 1_555 1_555
C66_7 C73_7 1_555 1_555
O16_4 C90_7 1_555 1_555
C67_7 C73_7 1_555 1_555
C68_7 H82_7 1_555 1_555
C69_7 C64_7 1_555 1_555
C70_6 C88_6 1_555 1_555
C71_7 C54_7 1_555 1_555
C72_7 H83_7 1_555 1_555
C73_7 H84_7 1_555 1_555
C74_7 C61_7 1_555 1_555
C75_7 C61_7 1_555 1_555
H85_7 C75_7 1_555 1_555
C76_7 C62_7 1_555 1_555
H86_7 C76_7 1_555 1_555
C77_7 C68_7 1_555 1_555
H87_7 C77_7 1_555 1_555
C78_7 C84_7 1_555 1_555
C79_7 C53_7 1_555 1_555
C80_7 C57_7 1_555 1_555
H88_7 C80_7 1_555 1_555
C81_7 C57_7 1_555 1_555
C82_7 C52_7 1_555 1_555
C84_7 C108_7 1_555 1_555
C85_7 O1_7 1_555 1_555
C86_7 H90_7 1_555 1_555
C87_7 H91_7 1_555 1_555
H92_7 C87_7 1_555 1_555
H93_7 C87_7 1_555 1_555
C88_6 C59_6 1_555 1_555
H94_6 C88_6 1_555 1_555
C89_7 C42_7 1_555 1_555
H95_7 C89_7 1_555 1_555
C90_7 C70_6 1_555 1_555
C91_7 C56_7 1_555 1_555
C92_7 C58_7 1_555 1_555
C93_7 C63_7 1_555 1_555
H96_7 C93_7 1_555 1_555
H97_7 C93_7 1_555 1_555
H98_7 C93_7 1_555 1_555
C94_7 C63_7 1_555 1_555
H99_7 C94_7 1_555 1_555
H100_7 C94_7 1_555 1_555
H101_7 C94_7 1_555 1_555
C97_7 C70_6 1_555 1_555
H103_7 C97_7 1_555 1_555
C98_6 C17_6 1_555 1_555
C99_7 C71_7 1_555 1_555
H104_7 C99_7 1_555 1_555
C101_7 H106_7 1_555 1_555
C104_7 C25_7 1_555 1_555
C106_7 C83_7 1_555 1_555
C107_7 C72_7 1_555 1_555
C108_7 C36_7 1_555 1_555
H110_7 C108_7 1_555 1_555
C109_7 C3_7 1_555 1_555
C110_7 C74_7 1_555 1_555
H111_7 C110_7 1_555 1_555
C111_7 C86_7 1_555 1_555
H112_7 C111_7 1_555 1_555
C112_7 C2_7 1_555 1_555
H113_7 C112_7 1_555 1_555
C113_6 C97_7 1_555 1_555
H114_6 C113_6 1_555 1_555
C114_7 C108_7 1_555 1_555
H115_7 C114_7 1_555 1_555
H116_7 C114_7 1_555 1_555
H117_7 C114_7 1_555 1_555
C115_7 C104_7 1_555 1_555
C116_7 C92_7 1_555 1_555
H118_7 C116_7 1_555 1_555
C117_7 C28_7 1_555 1_555
H119_7 C117_7 1_555 1_555
C118_7 C101_7 1_555 1_555
H120_7 C118_7 1_555 1_555
C119_7 C117_7 1_555 1_555
H121_7 C119_7 1_555 1_555
H122_7 C119_7 1_555 1_555
H123_7 C119_7 1_555 1_555
C120_7 C15_6 1_555 1_555
N2_7 C78_7 1_555 1_555
C121_7 N2_7 1_555 1_555
Au1_7 C121_7 1_555 1_555
N4_7 C27_7 1_555 1_555
C122_7 N4_7 1_555 1_555
N5_7 C26_7 1_555 1_555
Au2_7 C122_7 1_555 1_555
Cl2_7 Au2_7 1_555 1_555
N6_6 C11_6 1_555 1_555
C123_6 N6_6 1_555 1_555
N7_6 C14_6 1_555 1_555
Au3_6 C123_6 1_555 1_555
Cl3_6 Au3_6 1_555 1_555
Zn5_2 O12_4 1_555 1_555
Zn8_4 O16_4 1_555 1_555
O19_4 Zn2_4 1_555 1_555
O20_4 Zn2_4 1_555 1_555
O21_4 Zn4_2 1_555 1_555
O22_4 Zn3_2 1_555 1_555
C13_6 C17_6 1_555 1_555
C14_6 C21_6 1_555 1_555
C31_6 N6_6 1_555 1_555
C32_6 N7_6 1_555 1_555
C37_7 N5_7 1_555 1_555
C39_7 C40_6 1_555 1_555
O3_7 Zn3_2 1_555 1_555
Zn3_2 O9_7 1_555 1_555
Zn4_2 O9_7 1_555 1_555
C55_7 C79_7 1_555 1_555
C59_6 C98_6 1_555 1_555
O15_7 C85_7 1_555 1_555
C62_7 C82_7 1_555 1_555
C64_7 C75_7 1_555 1_555
C66_7 C80_7 1_555 1_555
C66_7 C82_7 1_555 1_555
C67_7 C81_7 1_555 1_555
C67_7 C89_7 1_555 1_555
C69_7 C77_7 1_555 1_555
C69_7 C85_7 1_555 1_555
C72_7 C74_7 1_555 1_555
C76_7 C79_7 1_555 1_555
C78_7 C107_7 1_555 1_555
C81_7 N4_7 1_555 1_555
C83_7 C91_7 1_555 1_555
C84_7 C110_7 1_555 1_555
C86_7 C91_7 1_555 1_555
C87_7 C89_7 1_555 1_555
C92_7 C109_7 1_555 1_555
C98_6 C113_6 1_555 1_555
C99_7 C116_7 1_555 1_555
C101_7 N2_7 1_555 1_555
C104_7 C120_7 1_555 1_555
C106_7 C115_7 1_555 1_555
C107_7 C117_7 1_555 1_555
C109_7 C112_7 1_555 1_555
C111_7 C115_7 1_555 1_555
C118_7 N3_7 1_555 1_555
C121_7 N3_7 1_555 1_555
C122_7 N5_7 1_555 1_555
C123_6 N7_6 1_555 1_555
C121_7 H125_7 1_555 1_555
C122_7 H126_7 1_555 1_555
C123_6 H127_6 1_555 1_555
C29_6 H129_6 1_555 1_555
H10_8 C18_8 1_555 1_555
H11_8 C18_8 1_555 1_555
H12_8 C18_8 1_555 1_555
H13_8 C19_8 1_555 1_555
H15_8 C19_8 1_555 1_555
O19_4 C65_8 1_555 1_555
O21_4 C65_8 1_555 1_555
C65_8 C105_8 1_555 1_555
C100_8 H105_8 1_555 1_555
H107_8 C102_8 1_555 1_555
C105_8 C100_8 1_555 1_555
C100_8 C102_8 1_555 1_555
O20_4 C90_8 1_555 1_555
O22_4 C90_8 1_555 1_555
H103_8 C97_8 1_555 1_555
C2_8 C37_8 1_555 1_555
C3_8 H2_8 1_555 1_555
C5_8 C3_8 1_555 1_555
C6_8 C1_8 1_555 1_555
C7_8 H3_8 1_555 1_555
C10_8 H5_8 1_555 1_555
C12_8 C10_8 1_555 1_555
C16_8 C10_8 1_555 1_555
H7_8 C16_8 1_555 1_555
H8_8 C16_8 1_555 1_555
H9_8 C16_8 1_555 1_555
C20_8 C1_8 1_555 1_555
C22_8 C10_8 1_555 1_555
H16_8 C22_8 1_555 1_555
H17_8 C22_8 1_555 1_555
H18_8 C22_8 1_555 1_555
C23_8 C12_8 1_555 1_555
H19_8 C25_8 1_555 1_555
C26_8 H20_8 1_555 1_555
C27_8 C26_8 1_555 1_555
H21_8 C27_8 1_555 1_555
C28_8 H22_8 1_555 1_555
H23_8 C28_8 1_555 1_555
H24_8 C28_8 1_555 1_555
C35_8 C5_8 1_555 1_555
H36_8 C35_8 1_555 1_555
C36_8 H37_8 1_555 1_555
H38_8 C36_8 1_555 1_555
H39_8 C36_8 1_555 1_555
C37_8 C5_8 1_555 1_555
C38_8 C35_8 1_555 1_555
H40_8 C38_8 1_555 1_555
H41_8 C38_8 1_555 1_555
H42_8 C38_8 1_555 1_555
C39_8 H43_8 1_555 1_555
H44_8 C39_8 1_555 1_555
C41_8 C6_8 1_555 1_555
H47_8 C41_8 1_555 1_555
O1_8 Zn8_4 1_555 1_555
C42_8 H48_8 1_555 1_555
H49_7 C42_8 1_555 1_555
H50_7 C42_8 1_555 1_555
C48_8 C2_8 1_555 1_555
H64_8 C48_8 1_555 1_555
C49_8 C48_8 1_555 1_555
H65_8 C49_8 1_555 1_555
H66_8 C49_8 1_555 1_555
H67_8 C49_8 1_555 1_555
C50_8 C48_8 1_555 1_555
H68_8 C50_8 1_555 1_555
H69_8 C50_8 1_555 1_555
H70_8 C50_8 1_555 1_555
O2_8 N1_8 1_555 1_555
O3_8 N1_8 1_555 1_555
O4_8 N1_8 1_555 1_555
C51_8 C35_8 1_555 1_555
H71_8 C51_8 1_555 1_555
H72_7 C51_8 1_555 1_555
H73_7 C51_8 1_555 1_555
Zn1_8 O7_8 1_555 1_555
Zn5_2 O9_8 1_555 1_555
Zn8_4 O2_8 1_555 1_555
Zn10_4 O8_8 1_555 1_555
O17_4 C60_8 1_555 1_555
O18_4 C60_8 1_555 1_555
O7_8 C53_8 1_555 1_555
O8_8 C56_8 1_555 1_555
O9_8 Zn1_8 1_555 1_555
O10_8 Zn5_2 1_555 1_555
C52_8 H74_8 1_555 1_555
C53_8 O10_8 1_555 1_555
C54_8 H75_8 1_555 1_555
C55_8 C52_8 1_555 1_555
H76_8 C55_8 1_555 1_555
C56_8 O14_8 1_555 1_555
O14_8 Zn1_8 1_555 1_555
C57_8 C63_8 1_555 1_555
C58_8 C54_8 1_555 1_555
H77_8 C58_8 1_555 1_555
C60_8 C71_8 1_555 1_555
O15_8 Zn1_8 1_555 1_555
C61_8 C68_8 1_555 1_555
C62_8 H79_8 1_555 1_555
C63_8 H80_8 1_555 1_555
C64_8 H81_8 1_555 1_555
C66_8 C73_8 1_555 1_555
C67_8 C73_8 1_555 1_555
C68_8 H82_8 1_555 1_555
C69_8 C64_8 1_555 1_555
C71_8 C54_8 1_555 1_555
C72_8 H83_8 1_555 1_555
C73_8 H84_8 1_555 1_555
C74_8 C61_8 1_555 1_555
C75_8 C61_8 1_555 1_555
H85_8 C75_8 1_555 1_555
C76_8 C62_8 1_555 1_555
H86_8 C76_8 1_555 1_555
C77_8 C68_8 1_555 1_555
H87_8 C77_8 1_555 1_555
C78_8 C84_8 1_555 1_555
C79_8 C53_8 1_555 1_555
C80_8 C57_8 1_555 1_555
H88_8 C80_8 1_555 1_555
C81_8 C57_8 1_555 1_555
C82_8 C52_8 1_555 1_555
C84_8 C108_8 1_555 1_555
C85_8 O1_8 1_555 1_555
C86_8 H90_8 1_555 1_555
C87_8 H91_8 1_555 1_555
H92_8 C87_8 1_555 1_555
H93_8 C87_8 1_555 1_555
C89_8 C42_8 1_555 1_555
H95_8 C89_8 1_555 1_555
C91_8 C56_8 1_555 1_555
C92_8 C58_8 1_555 1_555
C93_8 C63_8 1_555 1_555
H96_8 C93_8 1_555 1_555
H97_8 C93_8 1_555 1_555
H98_8 C93_8 1_555 1_555
C94_8 C63_8 1_555 1_555
H99_8 C94_8 1_555 1_555
H100_8 C94_8 1_555 1_555
H101_8 C94_8 1_555 1_555
C95_8 C6_8 1_555 1_555
C96_8 C95_8 1_555 1_555
H102_8 C96_8 1_555 1_555
C99_8 C71_8 1_555 1_555
H104_8 C99_8 1_555 1_555
C101_8 H106_8 1_555 1_555
C103_8 C96_8 1_555 1_555
H108_8 C103_8 1_555 1_555
C104_8 C25_8 1_555 1_555
C106_8 C83_8 1_555 1_555
C107_8 C72_8 1_555 1_555
C108_8 C36_8 1_555 1_555
H110_8 C108_8 1_555 1_555
C109_8 C3_8 1_555 1_555
C110_8 C74_8 1_555 1_555
H111_8 C110_8 1_555 1_555
C111_8 C86_8 1_555 1_555
H112_8 C111_8 1_555 1_555
C112_8 C2_8 1_555 1_555
H113_8 C112_8 1_555 1_555
C114_8 C108_8 1_555 1_555
H115_8 C114_8 1_555 1_555
H116_8 C114_8 1_555 1_555
H117_8 C114_8 1_555 1_555
C115_8 C104_8 1_555 1_555
C116_8 C92_8 1_555 1_555
H118_8 C116_8 1_555 1_555
C117_8 C28_8 1_555 1_555
H119_8 C117_8 1_555 1_555
C118_8 C101_8 1_555 1_555
H120_8 C118_8 1_555 1_555
C119_8 C117_8 1_555 1_555
H121_8 C119_8 1_555 1_555
H122_8 C119_8 1_555 1_555
H123_8 C119_8 1_555 1_555
N2_8 C78_8 1_555 1_555
C121_8 N2_8 1_555 1_555
N3_8 C23_8 1_555 1_555
Au1_8 C121_8 1_555 1_555
N4_8 C27_8 1_555 1_555
C122_8 N4_8 1_555 1_555
N5_8 C26_8 1_555 1_555
Au2_8 C122_8 1_555 1_555
Cl2_8 Au2_8 1_555 1_555
C7_8 C20_8 1_555 1_555
C12_8 C41_8 1_555 1_555
C20_8 C23_8 1_555 1_555
C37_8 N5_8 1_555 1_555
O3_8 Zn8_4 1_555 1_555
Zn8_4 O9_8 1_555 1_555
Zn10_4 O9_8 1_555 1_555
C55_8 C79_8 1_555 1_555
O15_8 C85_8 1_555 1_555
C62_8 C82_8 1_555 1_555
C64_8 C75_8 1_555 1_555
C66_8 C80_8 1_555 1_555
C66_8 C82_8 1_555 1_555
C67_8 C81_8 1_555 1_555
C67_8 C89_8 1_555 1_555
C69_8 C77_8 1_555 1_555
C69_8 C85_8 1_555 1_555
C72_8 C74_8 1_555 1_555
C76_8 C79_8 1_555 1_555
C78_8 C107_8 1_555 1_555
C81_8 N4_8 1_555 1_555
C83_8 C91_8 1_555 1_555
C84_8 C110_8 1_555 1_555
C86_8 C91_8 1_555 1_555
C87_8 C89_8 1_555 1_555
C92_8 C109_8 1_555 1_555
C99_8 C116_8 1_555 1_555
C101_8 N2_8 1_555 1_555
C104_8 C120_8 1_555 1_555
C106_8 C115_8 1_555 1_555
C107_8 C117_8 1_555 1_555
C109_8 C112_8 1_555 1_555
C111_8 C115_8 1_555 1_555
C118_8 N3_8 1_555 1_555
C121_8 N3_8 1_555 1_555
C122_8 N5_8 1_555 1_555
C121_8 H125_8 1_555 1_555
C122_8 H126_8 1_555 1_555
C4_7 C8_7 1_555 1_555
C8_7 H4_7 1_555 1_555
C9_7 C21_7 1_555 1_555
C11_7 C15_7 1_555 1_555
C13_7 H6_7 1_555 1_555
C14_7 C4_7 1_555 1_555
C15_7 C43_7 1_555 1_555
C17_7 C8_7 1_555 1_555
C21_7 C13_7 1_555 1_555
C24_7 C11_7 1_555 1_555
C29_7 C4_7 1_555 1_555
C30_7 C9_7 1_555 1_555
H25_7 C30_7 1_555 1_555
H26_7 C30_7 1_555 1_555
H27_7 C30_7 1_555 1_555
C31_7 H28_7 1_555 1_555
C32_7 C31_7 1_555 1_555
H29_7 C32_7 1_555 1_555
C33_7 C29_7 1_555 1_555
H30_7 C33_7 1_555 1_555
H31_7 C33_7 1_555 1_555
H32_7 C33_7 1_555 1_555
C34_7 C29_7 1_555 1_555
H33_7 C34_7 1_555 1_555
H34_7 C34_7 1_555 1_555
H35_7 C34_7 1_555 1_555
C40_7 C24_7 1_555 1_555
H46_7 C40_7 1_555 1_555
C43_7 H51_7 1_555 1_555
C44_7 C43_7 1_555 1_555
H52_7 C44_7 1_555 1_555
H53_7 C44_7 1_555 1_555
H54_7 C44_7 1_555 1_555
C45_7 C9_7 1_555 1_555
H55_7 C45_7 1_555 1_555
H56_7 C45_7 1_555 1_555
H57_7 C45_7 1_555 1_555
C46_7 C43_7 1_555 1_555
H58_7 C46_7 1_555 1_555
H59_7 C46_7 1_555 1_555
C47_7 C40_7 1_555 1_555
H61_7 C47_7 1_555 1_555
H62_7 C47_7 1_555 1_555
C59_7 H78_7 1_555 1_555
C70_7 C88_7 1_555 1_555
C88_7 C59_7 1_555 1_555
H94_7 C88_7 1_555 1_555
C98_7 C17_7 1_555 1_555
H114_7 C113_7 1_555 1_555
N6_7 C11_7 1_555 1_555
C123_7 N6_7 1_555 1_555
N7_7 C14_7 1_555 1_555
Au3_7 C123_7 1_555 1_555
Cl3_7 Au3_7 1_555 1_555
C13_7 C17_7 1_555 1_555
C14_7 C21_7 1_555 1_555
C31_7 N6_7 1_555 1_555
C32_7 N7_7 1_555 1_555
C59_7 C98_7 1_555 1_555
C98_7 C113_7 1_555 1_555
C123_7 N7_7 1_555 1_555
C123_7 H127_7 1_555 1_555
C9_7 H128_7 1_555 1_555
C29_7 H129_7 1_555 1_555
C30_8 C9_8 1_555 1_555
H25_8 C30_8 1_555 1_555
H26_8 C30_8 1_555 1_555
H27_8 C30_8 1_555 1_555
C43_8 H51_8 1_555 1_555
C44_8 C43_8 1_555 1_555
H52_8 C44_8 1_555 1_555
H53_8 C44_8 1_555 1_555
H54_8 C44_8 1_555 1_555
C45_8 C9_8 1_555 1_555
H55_8 C45_8 1_555 1_555
H56_8 C45_8 1_555 1_555
H57_8 C45_8 1_555 1_555
C46_8 C43_8 1_555 1_555
H58_8 C46_8 1_555 1_555
H59_8 C46_8 1_555 1_555
C9_8 H128_8 1_555 1_555
C4_8 C8_8 1_555 1_555
C8_8 H4_8 1_555 1_555
C11_8 C15_8 1_555 1_555
C13_8 H6_8 1_555 1_555
C14_8 C4_8 1_555 1_555
C17_8 C8_8 1_555 1_555
C21_8 C13_8 1_555 1_555
C24_8 C11_8 1_555 1_555
C29_8 C4_8 1_555 1_555
C31_8 H28_8 1_555 1_555
C32_8 C31_8 1_555 1_555
H29_8 C32_8 1_555 1_555
C33_8 C29_8 1_555 1_555
H30_8 C33_8 1_555 1_555
H31_8 C33_8 1_555 1_555
H32_8 C33_8 1_555 1_555
C34_8 C29_8 1_555 1_555
H33_8 C34_8 1_555 1_555
H34_8 C34_8 1_555 1_555
H35_8 C34_8 1_555 1_555
C40_8 C24_8 1_555 1_555
H46_8 C40_8 1_555 1_555
C47_8 C40_8 1_555 1_555
H61_8 C47_8 1_555 1_555
H62_8 C47_8 1_555 1_555
C59_8 H78_8 1_555 1_555
C70_8 C88_8 1_555 1_555
C88_8 C59_8 1_555 1_555
H94_8 C88_8 1_555 1_555
C98_8 C17_8 1_555 1_555
H114_8 C113_8 1_555 1_555
N6_8 C11_8 1_555 1_555
C123_8 N6_8 1_555 1_555
N7_8 C14_8 1_555 1_555
Au3_8 C123_8 1_555 1_555
Cl3_8 Au3_8 1_555 1_555
C13_8 C17_8 1_555 1_555
C14_8 C21_8 1_555 1_555
C31_8 N6_8 1_555 1_555
C32_8 N7_8 1_555 1_555
C59_8 C98_8 1_555 1_555
C98_8 C113_8 1_555 1_555
C123_8 N7_8 1_555 1_555
C123_8 H127_8 1_555 1_555
C29_8 H129_8 1_555 1_555

#END
