
###############################################################################
#
# This file contains modified crystal structure data generated from the
# MOF subset of the Cambridge Structural Database (CSD) v543 
# hosted by the Cambridge Crystallographic Data Centre (CCDC).
#
# This work is licensed under the Creative Commons
# Attribution-NonCommercial-ShareAlike 4.0 International License.
# To view a copy of this license, visit
# http://creativecommons.org/licenses/by-nc-sa/4.0/
# or send a letter to
# Creative Commons, PO Box 1866, Mountain View, CA 94042, USA.
#
# CIF created using the CSD Python API on 29 September 2022
# The structure has been converted into the P1 space group
# The structure has a 3D framework
# The original CSD entry NAPJEX is in the monoclinic crystal system
# The framework has been calculated to contain at least 10.0% void space
# The void calculation uses a probe of radius 1.32A, grid spacing 0.4
# H atom positions have been added when not included in the experimental data
#
###############################################################################

data_NAPJEX
_chemical_formula_moiety         '(C984 H1032 Cl24 Cu24 N56 O128 Zn32)n'
_symmetry_cell_setting           triclinic
_symmetry_space_group_name_H-M   'P 1'
_symmetry_Int_Tables_number      1
_space_group_name_Hall           'P 1'
loop_
_symmetry_equiv_pos_site_id
_symmetry_equiv_pos_as_xyz
1 x,y,z
_cell_length_a                   31.2209(16)
_cell_length_b                   46.176(3)
_cell_length_c                   28.6618(16)
_cell_angle_alpha                90
_cell_angle_beta                 101.183(2)
_cell_angle_gamma                90
_cell_volume                     40535.9
loop_
_atom_site_label
_atom_site_type_symbol
_atom_site_fract_x
_atom_site_fract_y
_atom_site_fract_z
H12 H 0.012130 0.219691 0.033955
H74 H 0.004783 0.249360 0.206093
H75 H 0.022334 0.246995 0.157349
H13 H 0.000064 0.221414 0.977151
C2 C 0.9175(3) 0.2442(3) 0.1702(2)
C5 C 0.9489(4) 0.1839(3) 0.0050(4)
H7 H 0.919647 0.176370 0.005602
H9 H 0.969705 0.176190 0.032180
C8 C 0.9914(4) 0.2275(3) 0.0068(4)
H11 H 0.991311 0.248668 0.008502
C12 C 0.8509(3) 0.2732(2) 0.1639(3)
C20 C 0.8141(4) 0.2909(3) 0.1338(3)
H24 H 0.816172 0.289547 0.099514
C25 C 0.7703(4) 0.2794(4) 0.1405(5)
H30 H 0.766764 0.259359 0.128999
H31 H 0.768773 0.279925 0.174314
H32 H 0.746901 0.291382 0.122464
C30 C 0.8218(5) 0.3210(4) 0.1503(6)
H45 H 0.850477 0.327371 0.145236
H46 H 0.799094 0.333544 0.132435
H47 H 0.820966 0.322087 0.184285
C38 C 0.9556(3) 0.2350(3) 0.1489(3)
H69 H 0.948696 0.238188 0.113690
C39 C 0.9662(5) 0.2052(3) 0.1586(5)
H70 H 0.991057 0.199834 0.144233
H71 H 0.973713 0.202239 0.193096
H72 H 0.940957 0.193116 0.145233
C40 C 0.9977(4) 0.2530(4) 0.1718(5)
H73 H 0.992073 0.273663 0.165991
O4 O 0.87285(14) 0.25164(10) 0.46011(12)
O6 O 0.89254(13) 0.20571(9) 0.45231(13)
C46 C 0.8959(2) 0.21444(17) 0.3574(2)
H84 H 0.904604 0.196143 0.371217
C47 C 0.88313(19) 0.23110(15) 0.43724(19)
C54 C 0.8721(3) 0.26205(17) 0.3644(2)
H87 H 0.864300 0.277425 0.383127
C61 C 0.8840(2) 0.23597(16) 0.3855(2)
C66 C 0.9109(3) 0.2883(2) 0.0366(3)
H92 H 0.923802 0.301291 0.017683
C71 C 0.8834(3) 0.2500(2) 0.2382(2)
C76 C 0.8954(2) 0.21876(18) 0.3103(2)
H99 H 0.903717 0.203416 0.291853
C78 C 0.8509(3) 0.2671(2) 0.2102(2)
H101 H 0.828106 0.274758 0.224304
C80 C 0.9484(3) 0.2167(2) 0.0077(3)
H103 H 0.940461 0.222409 0.038602
C85 C 0.8710(3) 0.2666(2) 0.3175(2)
H106 H 0.861831 0.284896 0.303835
C94 C 0.8831(2) 0.2448(2) 0.2890(2)
C96 C 0.9097(3) 0.2905(3) 0.0832(3)
H110 H 0.922494 0.305683 0.103750
C98 C 0.9155(3) 0.2383(2) 0.2173(2)
H112 H 0.936684 0.225870 0.235442
C107 C 0.8850(3) 0.2613(2) 0.1442(2)
N4 N 0.8892(2) 0.26281(19) 0.02251(19)
C122 C 0.8747(3) 0.2500(2) 0.0589(2)
N5 N 0.8874(2) 0.2679(2) 0.0960(2)
Cu3 Cu 0.84455(5) 0.21410(4) 0.05563(4)
Cl3 Cl 0.81145(18) 0.17088(13) 0.0474(2)
Zn7 Zn 0.87585(2) 0.25998(2) 0.53001(2)
Zn9 Zn 0.88771(2) 0.19263(2) 0.51506(2)
H128 H 0.843798 0.261523 0.0494519
O1 O 0.8803(3) 0.2843(2) 0.5991(3)
O2 O 0.8778(3) 0.30676(15) 0.5190(4)
C1 C 0.7848(3) 0.2704(3) 0.9701(3)
H1 H 0.764442 0.285265 0.976949
H2 H 0.769047 0.256534 0.947087
H3 H 0.797501 0.260237 0.999547
C3 C 0.8003(3) 0.3037(2) 0.9064(3)
H4 H 0.780069 0.317526 0.916511
H5 H 0.823116 0.314193 0.894417
H6 H 0.784224 0.291254 0.881244
C4 C 0.5410(4) 0.5031(2) 0.6268(4)
H8 H 0.957639 0.177913 0.975376
C10 C 0.7265(4) 0.43896(19) 0.6585(4)
H14 H 0.704568 0.453763 0.663818
C13 C 0.6302(4) 0.4368(2) 0.7045(3)
H16 H 0.638121 0.422940 0.729228
C16 C 0.5836(4) 0.50344(19) 0.6520(4)
C17 C 0.5159(5) 0.4763(3) 0.6137(6)
H19 H 0.535490 0.459345 0.623786
C18 C 0.6560(4) 0.5275(2) 0.6926(4)
H20 H 0.659979 0.508669 0.710070
C19 C 0.7561(4) 0.4343(2) 0.7055(4)
H21 H 0.739410 0.426043 0.727912
H22 H 0.779524 0.420920 0.701573
H23 H 0.768771 0.452848 0.717733
N1 N 0.8856(4) 0.3101(3) 0.5705(5)
O3 O 0.8892(4) 0.3341(2) 0.5920(5)
C28 C 0.7492(6) 0.4510(3) 0.6242(5)
H39 H 0.728758 0.453757 0.593970
H40 H 0.761824 0.469743 0.635679
H41 H 0.772576 0.437815 0.619519
C31 C 0.5580(4) 0.3774(4) 0.5736(5)
H48 H 0.566041 0.390112 0.549255
H49 H 0.564966 0.357292 0.566931
H50 H 0.526662 0.379139 0.573097
C32 C 0.6653(4) 0.5506(3) 0.7295(5)
H51 H 0.644175 0.549322 0.750633
H52 H 0.694899 0.548069 0.748108
H53 H 0.662961 0.569643 0.714072
C33 C 0.4986(5) 0.4740(3) 0.5613(5)
H54 H 0.482285 0.455891 0.554386
H55 H 0.479267 0.490443 0.550828
H56 H 0.523030 0.474230 0.544317
C34 C 0.6848(4) 0.5264(3) 0.6579(6)
H57 H 0.675731 0.510499 0.635463
H58 H 0.683010 0.544752 0.640439
H59 H 0.714948 0.523178 0.674475
C37 C 0.4793(7) 0.4754(4) 0.6403(7)
H66 H 0.462206 0.457737 0.632058
H67 H 0.491208 0.475667 0.674553
H68 H 0.460505 0.492376 0.631784
H79 H 0.774698 0.014453 0.697071
H82 H 0.715633 0.020237 0.669757
Zn1 Zn 0.93355(2) 0.21998(2) 0.61039(2)
Zn2 Zn 0.83068(2) 0.21294(2) 0.58855(2)
O5 O 0.84320(16) 0.16265(9) 0.51179(14)
O7 O 0.92163(16) 0.21557(10) 0.67384(14)
O8 O 0.88155(12) 0.22123(8) 0.56186(12)
O9 O 0.84779(16) 0.20957(10) 0.65803(14)
O11 O 0.78549(15) 0.24164(10) 0.57938(17)
O12 O 0.47072(14) 0.68615(10) 0.60527(16)
O13 O 0.43832(17) 0.66747(10) 0.53521(16)
O14 O 0.80750(15) 0.17448(9) 0.56988(16)
O15 O 0.81089(17) 0.26521(12) 0.52357(16)
C44 C 0.8184(2) 0.15725(13) 0.5407(2)
C45 C 0.9234(2) 0.21647(16) 0.7712(2)
H83 H 0.950532 0.214442 0.761135
C48 C 0.7617(2) 0.28944(15) 0.5629(2)
C49 C 0.9130(3) 0.22059(19) 0.9216(2)
H85 H 0.932640 0.206016 0.915264
C50 C 0.8029(3) 0.12645(14) 0.5417(2)
C51 C 0.8842(2) 0.21306(14) 0.6858(2)
C52 C 0.7198(2) 0.33849(15) 0.5897(3)
C53 C 0.8183(3) 0.10545(14) 0.5151(3)
H86 H 0.837113 0.110440 0.494072
C55 C 0.7280(2) 0.28655(14) 0.5881(3)
H88 H 0.719297 0.267844 0.596560
C56 C 0.4642(2) 0.66613(15) 0.5748(2)
C57 C 0.7532(2) 0.34104(16) 0.5646(3)
H89 H 0.762429 0.359735 0.556776
C58 C 0.7875(2) 0.26357(17) 0.5535(2)
C59 C 0.4867(2) 0.63829(15) 0.5867(3)
C60 C 0.9228(2) 0.22091(16) 0.8184(2)
H90 H 0.949497 0.221820 0.840893
C62 C 0.7073(2) 0.31068(14) 0.6009(3)
H91 H 0.684080 0.308426 0.617594
C65 C 0.6974(3) 0.36414(14) 0.6056(3)
C67 C 0.8213(3) 0.2848(2) 0.9493(2)
H93 H 0.837595 0.298006 0.974167
C68 C 0.8446(3) 0.21690(18) 0.7530(2)
H94 H 0.817845 0.215334 0.730750
C69 C 0.5220(3) 0.63616(17) 0.6240(3)
H95 H 0.532999 0.652974 0.641335
C70 C 0.8528(3) 0.25234(19) 0.8936(2)
H96 H 0.831144 0.259394 0.868171
C72 C 0.7732(2) 0.31696(17) 0.5507(3)
H97 H 0.795322 0.319205 0.532434
C73 C 0.8842(2) 0.21492(16) 0.7375(2)
C74 C 0.8531(3) 0.2625(2) 0.9384(2)
C75 C 0.4714(3) 0.61335(16) 0.5621(3)
H98 H 0.447451 0.614469 0.536099
C77 C 0.6529(3) 0.36377(16) 0.6048(3)
H100 H 0.636337 0.347242 0.592581
C79 C 0.8443(3) 0.22110(19) 0.8003(2)
H102 H 0.817183 0.221983 0.810633
C81 C 0.6202(4) 0.45842(19) 0.6321(3)
C84 C 0.7010(3) 0.41239(15) 0.6389(3)
C86 C 0.6318(3) 0.38707(18) 0.6216(3)
C87 C 0.7778(3) 0.06938(17) 0.5487(3)
C88 C 0.5412(3) 0.60957(17) 0.6359(3)
H107 H 0.565820 0.608725 0.661219
C90 C 0.7210(3) 0.38840(15) 0.6217(3)
H109 H 0.751283 0.389050 0.621145
C91 C 0.8850(3) 0.2506(2) 0.9748(2)
C92 C 0.5460(3) 0.55616(18) 0.6269(3)
C93 C 0.9150(3) 0.2298(2) 0.9675(2)
C95 C 0.8831(3) 0.22409(18) 0.8336(2)
C97 C 0.7740(3) 0.11894(18) 0.5707(3)
H111 H 0.763304 0.133507 0.588907
C99 C 0.5892(3) 0.55431(18) 0.6520(3)
H113 H 0.605421 0.571600 0.660174
C100 C 0.8824(3) 0.23236(19) 0.8835(2)
C101 C 0.6088(3) 0.5278(2) 0.6652(3)
C104 C 0.5265(3) 0.58411(16) 0.6128(3)
C106 C 0.7675(4) 0.03789(19) 0.5545(4)
C109 C 0.4910(3) 0.58647(18) 0.5752(3)
H116 H 0.479951 0.569590 0.558025
C110 C 0.7606(4) 0.09100(19) 0.5737(3)
H117 H 0.739766 0.086300 0.592577
C111 C 0.8059(3) 0.07697(16) 0.5195(3)
H118 H 0.817148 0.062355 0.501835
C112 C 0.5222(4) 0.53015(19) 0.6146(4)
H119 H 0.492885 0.531183 0.597721
C114 C 0.7630(4) 0.0274(2) 0.5983(4)
H120 H 0.765742 0.040153 0.624669
C115 C 0.7596(4) 0.02028(18) 0.5162(4)
H121 H 0.759956 0.028016 0.485552
C118 C 0.5825(3) 0.3858(2) 0.6204(3)
H122 H 0.573257 0.406028 0.626000
C119 C 0.6570(4) 0.41115(18) 0.6386(3)
C120 C 0.5736(4) 0.3684(3) 0.6607(5)
H123 H 0.591421 0.375558 0.690361
H124 H 0.542639 0.369895 0.662253
H125 H 0.580943 0.348047 0.656088
N2 N 0.6358(3) 0.43430(15) 0.6583(3)
C121 C 0.6114(4) 0.4626(2) 0.7078(4)
H126 H 0.604072 0.470837 0.735566
N3 N 0.6049(3) 0.47475(16) 0.6645(3)
Cu2 Cu 0.61382(7) 0.46383(4) 0.56794(6)
Cl2 Cl 0.59819(18) 0.46633(11) 0.49322(15)
Zn6 Zn 0.43355(2) 0.71998(2) 0.61039(2)
Zn10 Zn 0.38771(2) 0.69263(2) 0.51506(2)
O19 O 0.97362(15) 0.25191(10) 0.61269(16)
O20 O 0.97072(14) 0.18615(10) 0.60527(16)
O21 O 0.93832(17) 0.16747(10) 0.53521(16)
O22 O 0.94179(19) 0.26528(16) 0.54049(19)
H127 H 0.651943 0.469039 0.639338
C6 C 0.6716(3) 0.89068(19) 0.5748(4)
C7 C 0.6160(3) 0.86065(19) 0.5329(3)
H10 H 0.600807 0.852219 0.504141
C9 C 0.6504(4) 0.8798(2) 0.5318(4)
C11 C 0.6841(4) 0.8968(2) 0.6646(4)
H15 H 0.709112 0.908729 0.658307
C14 C 0.7497(4) 0.9038(2) 0.5773(5)
H17 H 0.761712 0.884804 0.580292
C15 C 0.7722(4) 0.9285(2) 0.5754(5)
H18 H 0.802703 0.930499 0.576980
C21 C 0.6626(4) 0.8875(3) 0.4842(4)
H25 H 0.688787 0.900427 0.491081
C22 C 0.7416(5) 0.9712(2) 0.4763(5)
H26 H 0.744062 0.950537 0.486969
C23 C 0.7037(4) 0.8725(2) 0.7003(4)
H27 H 0.722759 0.860025 0.685605
H28 H 0.720577 0.881293 0.729168
H29 H 0.679915 0.860862 0.708487
C24 C 0.7546(5) 0.9980(2) 0.6042(4)
C26 C 0.6546(5) 0.9165(3) 0.6853(4)
H33 H 0.670177 0.924125 0.715794
H34 H 0.645421 0.932619 0.663336
H35 H 0.628805 0.905716 0.690219
C27 C 0.6248(5) 0.9053(3) 0.4542(5)
H36 H 0.632289 0.910291 0.423522
H37 H 0.597977 0.893644 0.448737
H38 H 0.620156 0.923007 0.471255
C29 C 0.6761(6) 0.8599(3) 0.4613(5)
H42 H 0.683955 0.864731 0.430759
H43 H 0.701200 0.851174 0.482370
H44 H 0.651641 0.846219 0.456115
C35 C 0.6945(6) 0.9766(4) 0.4515(6)
H60 H 0.674994 0.973571 0.474053
H61 H 0.691469 0.996523 0.439582
H62 H 0.686621 0.963095 0.424756
C36 C 0.7710(6) 0.9755(3) 0.4434(6)
H63 H 0.801138 0.972019 0.459858
H64 H 0.763481 0.962059 0.416678
H65 H 0.768328 0.995487 0.431504
C41 C 0.7497(7) 0.9842(4) 0.6520(6)
H76 H 0.746685 0.962656 0.650248
C42 C 0.7784(7) 0.9936(4) 0.6930(6)
H77 H 0.772051 0.983279 0.720746
H78 H 0.808547 0.989610 0.689822
C43 C 0.7101(8) 0.9994(4) 0.6666(7)
H80 H 0.683927 0.995930 0.642175
H81 H 0.705604 0.991544 0.697064
Cu1 Cu 0.64968(13) 0.96047(7) 0.56506(16)
Cl1 Cl 0.5916(5) 0.9702(4) 0.5348(6)
O10 O 0.47362(15) 0.75191(10) 0.61269(16)
O16 O 0.44179(19) 0.76528(16) 0.54049(19)
C63 C 0.4698(3) 0.76803(19) 0.5772(3)
C64 C 0.5036(3) 0.79071(18) 0.5773(3)
C82 C 0.6263(3) 0.86519(18) 0.6178(3)
H104 H 0.618381 0.859943 0.647000
C83 C 0.5717(3) 0.81238(18) 0.6127(3)
H105 H 0.596591 0.813043 0.637720
C89 C 0.5406(3) 0.79182(19) 0.6138(3)
H108 H 0.543920 0.778296 0.639192
C102 C 0.7498(4) 0.9805(2) 0.5648(4)
C103 C 0.5308(3) 0.83176(19) 0.5415(3)
H114 H 0.527012 0.845962 0.517096
C105 C 0.4993(3) 0.81129(19) 0.5416(3)
H115 H 0.474138 0.811155 0.516850
C108 C 0.5680(3) 0.83218(18) 0.5762(3)
C113 C 0.6038(3) 0.85379(19) 0.5756(3)
C116 C 0.6611(3) 0.88465(19) 0.6176(4)
C117 C 0.7506(4) 0.99048(19) 0.5209(4)
N6 N 0.7417(3) 0.95015(16) 0.5707(3)
C123 C 0.7010(4) 0.9395(2) 0.5704(5)
N7 N 0.7073(3) 0.91051(16) 0.5741(3)
Zn8 Zn 0.37585(2) 0.75998(2) 0.53001(2)
H129 H 0.706411 0.941315 0.608981
C2_2 C 0.4175(3) 0.7442(3) 0.1702(2)
C5_2 C 0.4489(4) 0.6839(3) 0.0050(4)
H7_2 H 0.419647 0.676370 0.005602
H9_2 H 0.469705 0.676190 0.032180
C8_2 C 0.4914(4) 0.7275(3) 0.0068(4)
H11_2 H 0.491311 0.748668 0.008502
H12_2 H 0.512130 0.719691 0.033955
C12_2 C 0.3509(3) 0.7732(2) 0.1639(3)
C20_2 C 0.3141(4) 0.7909(3) 0.1338(3)
H24_2 H 0.316172 0.789547 0.099514
C25_2 C 0.2703(4) 0.7794(4) 0.1405(5)
H30_2 H 0.266764 0.759359 0.128999
H31_2 H 0.268773 0.779925 0.174314
H32_2 H 0.246901 0.791382 0.122464
C30_2 C 0.3218(5) 0.8210(4) 0.1503(6)
H45_2 H 0.350477 0.827371 0.145236
H46_2 H 0.299094 0.833544 0.132435
H47_2 H 0.320966 0.822087 0.184285
C38_2 C 0.4556(3) 0.7350(3) 0.1489(3)
H69_2 H 0.448696 0.738188 0.113690
C39_2 C 0.4662(5) 0.7052(3) 0.1586(5)
H70_2 H 0.491057 0.699834 0.144233
H71_2 H 0.473713 0.702239 0.193096
H72_2 H 0.440957 0.693116 0.145233
C40_2 C 0.4977(4) 0.7530(4) 0.1718(5)
H73_2 H 0.492073 0.773663 0.165991
H74_2 H 0.504783 0.749360 0.206093
H75_2 H 0.522334 0.746995 0.157349
O4_2 O 0.37285(14) 0.75164(10) 0.46011(12)
O6_2 O 0.39254(13) 0.70571(9) 0.45231(13)
C46_2 C 0.3959(2) 0.71444(17) 0.3574(2)
H84_2 H 0.404604 0.696143 0.371217
C47_2 C 0.38313(19) 0.73110(15) 0.43724(19)
C54_2 C 0.3721(3) 0.76205(17) 0.3644(2)
H87_2 H 0.364300 0.777425 0.383127
C61_2 C 0.3840(2) 0.73597(16) 0.3855(2)
C66_2 C 0.4109(3) 0.7883(2) 0.0366(3)
H92_2 H 0.423802 0.801291 0.017683
C71_2 C 0.3834(3) 0.7500(2) 0.2382(2)
C76_2 C 0.3954(2) 0.71876(18) 0.3103(2)
H99_2 H 0.403717 0.703416 0.291853
C78_2 C 0.3509(3) 0.7671(2) 0.2102(2)
H101_2 H 0.328106 0.774758 0.224304
C80_2 C 0.4484(3) 0.7167(2) 0.0077(3)
H103_2 H 0.440461 0.722409 0.038602
C85_2 C 0.3710(3) 0.7666(2) 0.3175(2)
H106_2 H 0.361831 0.784896 0.303835
C94_2 C 0.3831(2) 0.7448(2) 0.2890(2)
C96_2 C 0.4097(3) 0.7905(3) 0.0832(3)
H110_2 H 0.422494 0.805683 0.103750
C98_2 C 0.4155(3) 0.7383(2) 0.2173(2)
H112_2 H 0.436684 0.725870 0.235442
C107_2 C 0.3850(3) 0.7613(2) 0.1442(2)
N4_2 N 0.3892(2) 0.76281(19) 0.02251(19)
C122_2 C 0.3747(3) 0.7500(2) 0.0589(2)
N5_2 N 0.3874(2) 0.7679(2) 0.0960(2)
Cu3_2 Cu 0.34455(5) 0.71410(4) 0.05563(4)
Cl3_2 Cl 0.31145(18) 0.67088(13) 0.0474(2)
H128_2 H 0.343798 0.761523 0.0494519
O1_2 O 0.3803(3) 0.7843(2) 0.5991(3)
O2_2 O 0.3778(3) 0.80676(15) 0.5190(4)
C1_2 C 0.2848(3) 0.7704(3) 0.9701(3)
H1_2 H 0.264442 0.785265 0.976949
H2_2 H 0.269047 0.756534 0.947087
H3_2 H 0.297501 0.760237 0.999547
C3_2 C 0.3003(3) 0.8037(2) 0.9064(3)
H4_2 H 0.280069 0.817526 0.916511
H5_2 H 0.323116 0.814193 0.894417
H6_2 H 0.284224 0.791254 0.881244
H8_2 H 0.457639 0.677913 0.975376
C6_2 C 0.1716(3) 0.39068(19) 0.5748(4)
C7_2 C 0.1160(3) 0.36065(19) 0.5329(3)
H10_2 H 0.100807 0.352219 0.504141
H13_2 H 0.500064 0.721414 0.977151
C9_2 C 0.1504(4) 0.3798(2) 0.5318(4)
C10_2 C 0.2265(4) 0.93896(19) 0.6585(4)
H14_2 H 0.204568 0.953763 0.663818
C11_2 C 0.1841(4) 0.3968(2) 0.6646(4)
H15_2 H 0.209112 0.408729 0.658307
C13_2 C 0.1302(4) 0.9368(2) 0.7045(3)
H16_2 H 0.138121 0.922940 0.729228
C14_2 C 0.2497(4) 0.4038(2) 0.5773(5)
H17_2 H 0.261712 0.384804 0.580292
C15_2 C 0.2722(4) 0.4285(2) 0.5754(5)
H18_2 H 0.302703 0.430499 0.576980
C17_2 C 0.0159(5) 0.9763(3) 0.6137(6)
H19_2 H 0.035490 0.959345 0.623786
C19_2 C 0.2561(4) 0.9343(2) 0.7055(4)
H21_2 H 0.239410 0.926043 0.727912
H22_2 H 0.279524 0.920920 0.701573
H23_2 H 0.268771 0.952848 0.717733
C21_2 C 0.1626(4) 0.3875(3) 0.4842(4)
H25_2 H 0.188787 0.400427 0.491081
N1_2 N 0.3856(4) 0.8101(3) 0.5705(5)
C22_2 C 0.2416(5) 0.4712(2) 0.4763(5)
H26_2 H 0.244062 0.450537 0.486969
O3_2 O 0.3892(4) 0.8341(2) 0.5920(5)
C23_2 C 0.2037(4) 0.3725(2) 0.7003(4)
H27_2 H 0.222759 0.360025 0.685605
H28_2 H 0.220577 0.381293 0.729168
H29_2 H 0.179915 0.360862 0.708487
C24_2 C 0.2546(5) 0.4980(2) 0.6042(4)
C26_2 C 0.1546(5) 0.4165(3) 0.6853(4)
H33_2 H 0.170177 0.424125 0.715794
H34_2 H 0.145421 0.432619 0.663336
H35_2 H 0.128805 0.405716 0.690219
C27_2 C 0.1248(5) 0.4053(3) 0.4542(5)
H36_2 H 0.132289 0.410291 0.423522
H37_2 H 0.097977 0.393644 0.448737
H38_2 H 0.120156 0.423007 0.471255
C28_2 C 0.2492(6) 0.9510(3) 0.6242(5)
H39_2 H 0.228758 0.953757 0.593970
H40_2 H 0.261824 0.969743 0.635679
H41_2 H 0.272576 0.937815 0.619519
C29_2 C 0.1761(6) 0.3599(3) 0.4613(5)
H42_2 H 0.183955 0.364731 0.430759
H43_2 H 0.201200 0.351174 0.482370
H44_2 H 0.151641 0.346219 0.456115
C31_2 C 0.0580(4) 0.8774(4) 0.5736(5)
H48_2 H 0.066041 0.890112 0.549255
H49_2 H 0.064966 0.857292 0.566931
H50_2 H 0.026662 0.879139 0.573097
H56_2 H 0.023030 0.974230 0.544317
C35_2 C 0.1945(6) 0.4766(4) 0.4515(6)
H60_2 H 0.174994 0.473571 0.474053
H61_2 H 0.191469 0.496523 0.439582
H62_2 H 0.186621 0.463095 0.424756
C36_2 C 0.2710(6) 0.4755(3) 0.4434(6)
H63_2 H 0.301138 0.472019 0.459858
H64_2 H 0.263481 0.462059 0.416678
H65_2 H 0.268328 0.495487 0.431504
C41_2 C 0.2497(7) 0.4842(4) 0.6520(6)
H76_2 H 0.246685 0.462656 0.650248
C42_2 C 0.2784(7) 0.4936(4) 0.6930(6)
H77_2 H 0.272051 0.483279 0.720746
H78_2 H 0.308547 0.489610 0.689822
H79_2 H 0.274698 0.514453 0.697071
C43_2 C 0.2101(8) 0.4994(4) 0.6666(7)
H80_2 H 0.183927 0.495930 0.642175
H81_2 H 0.205604 0.491544 0.697064
H82_2 H 0.215633 0.520237 0.669757
Cu1_2 Cu 0.14968(13) 0.46047(7) 0.56506(16)
Cl1_2 Cl 0.0916(5) 0.4702(4) 0.5348(6)
Zn2_2 Zn 0.33068(2) 0.71294(2) 0.58855(2)
O5_2 O 0.34320(16) 0.66265(9) 0.51179(14)
O7_2 O 0.42163(16) 0.71557(10) 0.67384(14)
O8_2 O 0.38155(12) 0.72123(8) 0.56186(12)
O9_2 O 0.34779(16) 0.70957(10) 0.65803(14)
O11_2 O 0.28549(15) 0.74164(10) 0.57938(17)
O14_2 O 0.30750(15) 0.67448(9) 0.56988(16)
O15_2 O 0.31089(17) 0.76521(12) 0.52357(16)
C44_2 C 0.3184(2) 0.65725(13) 0.5407(2)
C45_2 C 0.4234(2) 0.71647(16) 0.7712(2)
H83_2 H 0.450532 0.714442 0.761135
C48_2 C 0.2617(2) 0.78944(15) 0.5629(2)
C49_2 C 0.4130(3) 0.72059(19) 0.9216(2)
H85_2 H 0.432640 0.706016 0.915264
C50_2 C 0.3029(3) 0.62645(14) 0.5417(2)
C51_2 C 0.3842(2) 0.71306(14) 0.6858(2)
C52_2 C 0.2198(2) 0.83849(15) 0.5897(3)
C53_2 C 0.3183(3) 0.60545(14) 0.5151(3)
H86_2 H 0.337113 0.610440 0.494072
C55_2 C 0.2280(2) 0.78655(14) 0.5881(3)
H88_2 H 0.219297 0.767844 0.596560
C57_2 C 0.2532(2) 0.84104(16) 0.5646(3)
H89_2 H 0.262429 0.859735 0.556776
C58_2 C 0.2875(2) 0.76357(17) 0.5535(2)
C60_2 C 0.4228(2) 0.72091(16) 0.8184(2)
H90_2 H 0.449497 0.721820 0.840893
C62_2 C 0.2073(2) 0.81068(14) 0.6009(3)
H91_2 H 0.184080 0.808426 0.617594
C64_2 C 0.0036(3) 0.29071(18) 0.5773(3)
C65_2 C 0.1974(3) 0.86414(14) 0.6056(3)
C67_2 C 0.3213(3) 0.7848(2) 0.9493(2)
H93_2 H 0.337595 0.798006 0.974167
C68_2 C 0.3446(3) 0.71690(18) 0.7530(2)
H94_2 H 0.317845 0.715334 0.730750
C70_2 C 0.3528(3) 0.75234(19) 0.8936(2)
H96_2 H 0.331144 0.759394 0.868171
C72_2 C 0.2732(2) 0.81696(17) 0.5507(3)
H97_2 H 0.295322 0.819205 0.532434
C73_2 C 0.3842(2) 0.71492(16) 0.7375(2)
C74_2 C 0.3531(3) 0.7625(2) 0.9384(2)
C77_2 C 0.1529(3) 0.86377(16) 0.6048(3)
H100_2 H 0.136337 0.847242 0.592581
C79_2 C 0.3443(3) 0.72110(19) 0.8003(2)
H102_2 H 0.317183 0.721983 0.810633
C81_2 C 0.1202(4) 0.95842(19) 0.6321(3)
C82_2 C 0.1263(3) 0.36519(18) 0.6178(3)
H104_2 H 0.118381 0.359943 0.647000
C83_2 C 0.0717(3) 0.31238(18) 0.6127(3)
H105_2 H 0.096591 0.313043 0.637720
C84_2 C 0.2010(3) 0.91239(15) 0.6389(3)
C86_2 C 0.1318(3) 0.88707(18) 0.6216(3)
C87_2 C 0.2778(3) 0.56938(17) 0.5487(3)
C89_2 C 0.0406(3) 0.29182(19) 0.6138(3)
H108_2 H 0.043920 0.278296 0.639192
C90_2 C 0.2210(3) 0.88840(15) 0.6217(3)
H109_2 H 0.251283 0.889050 0.621145
C91_2 C 0.3850(3) 0.7506(2) 0.9748(2)
C93_2 C 0.4150(3) 0.7298(2) 0.9675(2)
C95_2 C 0.3831(3) 0.72409(18) 0.8336(2)
C97_2 C 0.2740(3) 0.61894(18) 0.5707(3)
H111_2 H 0.263304 0.633507 0.588907
C100_2 C 0.3824(3) 0.73236(19) 0.8835(2)
C102_2 C 0.2498(4) 0.4805(2) 0.5648(4)
C103_2 C 0.0308(3) 0.33176(19) 0.5415(3)
H114_2 H 0.027012 0.345962 0.517096
C106_2 C 0.2675(4) 0.53789(19) 0.5545(4)
C108_2 C 0.0680(3) 0.33218(18) 0.5762(3)
C110_2 C 0.2606(4) 0.59100(19) 0.5737(3)
H117_2 H 0.239766 0.586300 0.592577
C111_2 C 0.3059(3) 0.57697(16) 0.5195(3)
H118_2 H 0.317148 0.562355 0.501835
C113_2 C 0.1038(3) 0.35379(19) 0.5756(3)
C114_2 C 0.2630(4) 0.5274(2) 0.5983(4)
H120_2 H 0.265742 0.540153 0.624669
C115_2 C 0.2596(4) 0.52028(18) 0.5162(4)
H121_2 H 0.259956 0.528016 0.485552
C116_2 C 0.1611(3) 0.38465(19) 0.6176(4)
C117_2 C 0.2506(4) 0.49048(19) 0.5209(4)
C118_2 C 0.0825(3) 0.8858(2) 0.6204(3)
H122_2 H 0.073257 0.906028 0.626000
C119_2 C 0.1570(4) 0.91115(18) 0.6386(3)
C120_2 C 0.0736(4) 0.8684(3) 0.6607(5)
H123_2 H 0.091421 0.875558 0.690361
H124_2 H 0.042639 0.869895 0.662253
H125_2 H 0.080943 0.848047 0.656088
N2_2 N 0.1358(3) 0.93430(15) 0.6583(3)
C121_2 C 0.1114(4) 0.9626(2) 0.7078(4)
H126_2 H 0.104072 0.970837 0.735566
N3_2 N 0.1049(3) 0.97475(16) 0.6645(3)
Cu2_2 Cu 0.11382(7) 0.96383(4) 0.56794(6)
Cl2_2 Cl 0.09819(18) 0.96633(11) 0.49322(15)
N6_2 N 0.2417(3) 0.45015(16) 0.5707(3)
C123_2 C 0.2010(4) 0.4395(2) 0.5704(5)
N7_2 N 0.2073(3) 0.41051(16) 0.5741(3)
H127_2 H 0.151943 0.969039 0.639338
H129_2 H 0.206411 0.441315 0.608981
C56_2 C 0.9642(2) 0.16613(15) 0.5748(2)
C59_2 C 0.9867(2) 0.13829(15) 0.5867(3)
C75_2 C 0.9714(3) 0.11335(16) 0.5621(3)
H98_2 H 0.947451 0.114469 0.536099
C109_2 C 0.9910(3) 0.08647(18) 0.5752(3)
H116_2 H 0.979951 0.069590 0.558025
H119_2 H 0.992885 0.031183 0.597721
C33_2 C 0.9986(5) 0.9740(3) 0.5613(5)
H54_2 H 0.982285 0.955891 0.554386
H55_2 H 0.979267 0.990443 0.550828
C37_2 C 0.9793(7) 0.9754(4) 0.6403(7)
H66_2 H 0.962206 0.957737 0.632058
H67_2 H 0.991208 0.975667 0.674553
H68_2 H 0.960505 0.992376 0.631784
C63_2 C 0.9698(3) 0.26803(19) 0.5772(3)
C105_2 C 0.9993(3) 0.31129(19) 0.5416(3)
H115_2 H 0.974138 0.311155 0.516850
H86_3 H 0.162887 0.110440 0.005928
H121_3 H 0.240044 0.028016 0.014448
Cl2_3 Cl 0.40181(18) 0.46633(11) 0.00678(15)
O17 O 0.12715(14) 0.25164(10) 0.03989(12)
O18 O 0.10746(13) 0.20571(9) 0.04769(13)
O1_3 O 0.1197(3) 0.2843(2) 0.9009(3)
O2_3 O 0.1222(3) 0.30676(15) 0.9810(4)
C1_3 C 0.2152(3) 0.2704(3) 0.5299(3)
H1_3 H 0.235558 0.285265 0.523051
H2_3 H 0.230953 0.256534 0.552913
H3_3 H 0.202499 0.260237 0.500453
C2_3 C 0.0825(3) 0.2442(3) 0.3298(2)
C3_3 C 0.1997(3) 0.3037(2) 0.5936(3)
H4_3 H 0.219931 0.317526 0.583489
H5_3 H 0.176884 0.314193 0.605583
H6_3 H 0.215776 0.291254 0.618756
C4_2 C 0.4590(4) 0.5031(2) 0.8732(4)
C5_3 C 0.0511(4) 0.1839(3) 0.4950(4)
H7_3 H 0.080353 0.176370 0.494398
H8_3 H 0.042361 0.177913 0.524624
H9_3 H 0.030295 0.176190 0.467820
C8_3 C 0.0086(4) 0.2275(3) 0.4932(4)
H11_3 H 0.008689 0.248668 0.491498
C10_3 C 0.2735(4) 0.43896(19) 0.8415(4)
H14_3 H 0.295432 0.453763 0.836182
C12_3 C 0.1491(3) 0.2732(2) 0.3361(3)
C13_3 C 0.3698(4) 0.4368(2) 0.7955(3)
H16_3 H 0.361879 0.422940 0.770772
C16_2 C 0.4164(4) 0.50344(19) 0.8480(4)
C17_3 C 0.4841(5) 0.4763(3) 0.8863(6)
H19_3 H 0.464510 0.459345 0.876214
C18_2 C 0.3440(4) 0.5275(2) 0.8074(4)
H20_2 H 0.340021 0.508669 0.789930
C19_3 C 0.2439(4) 0.4343(2) 0.7945(4)
H21_3 H 0.260590 0.426043 0.772088
H22_3 H 0.220476 0.420920 0.798427
H23_3 H 0.231229 0.452848 0.782267
C20_3 C 0.1859(4) 0.2909(3) 0.3662(3)
H24_3 H 0.183828 0.289547 0.400486
N1_3 N 0.1144(4) 0.3101(3) 0.9295(5)
O3_3 O 0.1108(4) 0.3341(2) 0.9080(5)
C25_3 C 0.2297(4) 0.2794(4) 0.3595(5)
H30_3 H 0.233236 0.259359 0.371001
H31_3 H 0.231227 0.279925 0.325686
H32_3 H 0.253099 0.291382 0.377536
C28_3 C 0.2508(6) 0.4510(3) 0.8758(5)
H39_3 H 0.271242 0.453757 0.906030
H40_3 H 0.238176 0.469743 0.864321
H41_3 H 0.227424 0.437815 0.880481
C30_3 C 0.1782(5) 0.3210(4) 0.3497(6)
H45_3 H 0.149523 0.327371 0.354764
H46_3 H 0.200906 0.333544 0.367565
H47_3 H 0.179034 0.322087 0.315715
C31_3 C 0.4420(4) 0.3774(4) 0.9264(5)
H48_3 H 0.433959 0.390112 0.950745
H49_3 H 0.435034 0.357292 0.933069
H50_3 H 0.473338 0.379139 0.926903
C32_2 C 0.3347(4) 0.5506(3) 0.7705(5)
H51_2 H 0.355825 0.549322 0.749367
H52_2 H 0.305101 0.548069 0.751892
H53_2 H 0.337039 0.569643 0.785928
C33_3 C 0.5014(5) 0.4740(3) 0.9387(5)
H54_3 H 0.517715 0.455891 0.945614
H55_3 H 0.520733 0.490443 0.949172
H56_3 H 0.476970 0.474230 0.955683
C34_2 C 0.3152(4) 0.5264(3) 0.8421(6)
H57_2 H 0.324269 0.510499 0.864537
H58_2 H 0.316990 0.544752 0.859561
H59_2 H 0.285052 0.523178 0.825525
C37_3 C 0.5207(7) 0.4754(4) 0.8597(7)
H66_3 H 0.537794 0.457737 0.867942
H67_3 H 0.508792 0.475667 0.825447
H68_3 H 0.539495 0.492376 0.868216
C38_3 C 0.0444(3) 0.2350(3) 0.3511(3)
H69_3 H 0.051304 0.238188 0.386310
C39_3 C 0.0338(5) 0.2052(3) 0.3414(5)
H70_3 H 0.008943 0.199834 0.355767
H71_3 H 0.026287 0.202239 0.306904
H72_3 H 0.059043 0.193116 0.354767
C40_3 C 0.0023(4) 0.2530(4) 0.3282(5)
H73_3 H 0.007927 0.273663 0.334009
H79_3 H 0.225302 0.014453 0.802929
H82_3 H 0.284367 0.020237 0.830243
Zn1_2 Zn 0.06645(2) 0.21998(2) 0.88961(2)
Zn2_3 Zn 0.16932(2) 0.21294(2) 0.91145(2)
Zn3 Zn 0.12415(2) 0.25998(2) 0.96999(2)
Zn4 Zn 0.11229(2) 0.19263(2) 0.98494(2)
O5_3 O 0.15680(16) 0.16265(9) 0.98821(14)
O7_3 O 0.07837(16) 0.21557(10) 0.82616(14)
O8_3 O 0.11845(12) 0.22123(8) 0.93814(12)
O9_3 O 0.15221(16) 0.20957(10) 0.84197(14)
O11_3 O 0.21451(15) 0.24164(10) 0.92062(17)
O12_2 O 0.52928(14) 0.68615(10) 0.89473(16)
O13_2 O 0.56168(17) 0.66747(10) 0.96479(16)
O14_3 O 0.19250(15) 0.17448(9) 0.93012(16)
O15_3 O 0.18911(17) 0.26521(12) 0.97643(16)
C44_3 C 0.1816(2) 0.15725(13) 0.9593(2)
C45_3 C 0.0766(2) 0.21647(16) 0.7288(2)
H83_3 H 0.049468 0.214442 0.738865
C46_3 C 0.1041(2) 0.21444(17) 0.1426(2)
H84_3 H 0.095396 0.196143 0.128783
C47_3 C 0.11687(19) 0.23110(15) 0.06276(19)
C48_3 C 0.2383(2) 0.28944(15) 0.9371(2)
C49_3 C 0.0870(3) 0.22059(19) 0.5784(2)
H85_3 H 0.067360 0.206016 0.584736
C50_3 C 0.1971(3) 0.12645(14) 0.9583(2)
C51_3 C 0.1158(2) 0.21306(14) 0.8142(2)
C52_3 C 0.2802(2) 0.33849(15) 0.9103(3)
C53_3 C 0.1817(3) 0.10545(14) 0.9849(3)
C54_3 C 0.1279(3) 0.26205(17) 0.1356(2)
H87_3 H 0.135700 0.277425 0.116873
C55_3 C 0.2720(2) 0.28655(14) 0.9119(3)
H88_3 H 0.280703 0.267844 0.903440
C56_3 C 0.5358(2) 0.66613(15) 0.9252(2)
C57_3 C 0.2468(2) 0.34104(16) 0.9354(3)
H89_3 H 0.237571 0.359735 0.943224
C58_3 C 0.2125(2) 0.26357(17) 0.9465(2)
C59_3 C 0.5133(2) 0.63829(15) 0.9133(3)
C60_3 C 0.0772(2) 0.22091(16) 0.6816(2)
H90_3 H 0.050503 0.221820 0.659107
C61_3 C 0.1160(2) 0.23597(16) 0.1145(2)
C62_3 C 0.2927(2) 0.31068(14) 0.8991(3)
H91_3 H 0.315920 0.308426 0.882406
C65_3 C 0.3026(3) 0.36414(14) 0.8944(3)
C66_3 C 0.0891(3) 0.2883(2) 0.4634(3)
H92_3 H 0.076198 0.301291 0.482317
C67_3 C 0.1787(3) 0.2848(2) 0.5507(2)
H93_3 H 0.162405 0.298006 0.525833
C68_3 C 0.1554(3) 0.21690(18) 0.7470(2)
H94_3 H 0.182155 0.215334 0.769250
C69_2 C 0.4780(3) 0.63616(17) 0.8760(3)
H95_2 H 0.467001 0.652974 0.858665
C70_3 C 0.1472(3) 0.25234(19) 0.6064(2)
H96_3 H 0.168856 0.259394 0.631829
C71_3 C 0.1166(3) 0.2500(2) 0.2618(2)
C72_3 C 0.2268(2) 0.31696(17) 0.9493(3)
H97_3 H 0.204678 0.319205 0.967566
C73_3 C 0.1158(2) 0.21492(16) 0.7625(2)
C74_3 C 0.1469(3) 0.2625(2) 0.5616(2)
C75_3 C 0.5286(3) 0.61335(16) 0.9379(3)
H98_3 H 0.552549 0.614469 0.963901
C76_3 C 0.1046(2) 0.21876(18) 0.1897(2)
H99_3 H 0.096283 0.203416 0.208147
C77_3 C 0.3471(3) 0.36377(16) 0.8952(3)
H100_3 H 0.363663 0.347242 0.907419
C78_3 C 0.1491(3) 0.2671(2) 0.2898(2)
H101_3 H 0.171894 0.274758 0.275696
C79_3 C 0.1557(3) 0.22110(19) 0.6997(2)
H102_3 H 0.182817 0.221983 0.689367
C80_3 C 0.0516(3) 0.2167(2) 0.4923(3)
H103_3 H 0.059539 0.222409 0.461398
C81_3 C 0.3798(4) 0.45842(19) 0.8679(3)
C84_3 C 0.2990(3) 0.41239(15) 0.8611(3)
C85_3 C 0.1290(3) 0.2666(2) 0.1825(2)
H106_3 H 0.138169 0.284896 0.196165
C86_3 C 0.3682(3) 0.38707(18) 0.8784(3)
C87_3 C 0.2222(3) 0.06938(17) 0.9513(3)
C88_2 C 0.4588(3) 0.60957(17) 0.8641(3)
H107_2 H 0.434180 0.608725 0.838781
C90_3 C 0.2790(3) 0.38840(15) 0.8783(3)
H109_3 H 0.248717 0.389050 0.878855
C91_3 C 0.1150(3) 0.2506(2) 0.5252(2)
C92_2 C 0.4540(3) 0.55616(18) 0.8731(3)
C93_3 C 0.0850(3) 0.2298(2) 0.5325(2)
C94_3 C 0.1169(2) 0.2448(2) 0.2110(2)
C95_3 C 0.1169(3) 0.22409(18) 0.6664(2)
C96_3 C 0.0903(3) 0.2905(3) 0.4168(3)
H110_3 H 0.077506 0.305683 0.396250
C97_3 C 0.2260(3) 0.11894(18) 0.9293(3)
H111_3 H 0.236696 0.133507 0.911093
C98_3 C 0.0845(3) 0.2383(2) 0.2827(2)
H112_3 H 0.063316 0.225870 0.264558
C99_2 C 0.4108(3) 0.55431(18) 0.8480(3)
H113_2 H 0.394579 0.571600 0.839826
C100_3 C 0.1176(3) 0.23236(19) 0.6165(2)
C101_2 C 0.3912(3) 0.5278(2) 0.8348(3)
C104_2 C 0.4735(3) 0.58411(16) 0.8872(3)
C106_3 C 0.2325(4) 0.03789(19) 0.9455(4)
C107_3 C 0.1150(3) 0.2613(2) 0.3558(2)
C109_3 C 0.5090(3) 0.58647(18) 0.9248(3)
H116_3 H 0.520049 0.569590 0.941975
C110_3 C 0.2394(4) 0.09100(19) 0.9263(3)
H117_3 H 0.260234 0.086300 0.907423
C111_3 C 0.1941(3) 0.07697(16) 0.9805(3)
H118_3 H 0.182852 0.062355 0.998165
C112_2 C 0.4778(4) 0.53015(19) 0.8854(4)
H119_3 H 0.507115 0.531183 0.902279
C114_3 C 0.2370(4) 0.0274(2) 0.9017(4)
H120_3 H 0.234258 0.040153 0.875331
C115_3 C 0.2404(4) 0.02028(18) 0.9838(4)
C118_3 C 0.4175(3) 0.3858(2) 0.8796(3)
H122_3 H 0.426743 0.406028 0.874000
C119_3 C 0.3430(4) 0.41115(18) 0.8614(3)
C120_3 C 0.4264(4) 0.3684(3) 0.8393(5)
H123_3 H 0.408579 0.375558 0.809639
H124_3 H 0.457361 0.369895 0.837747
H125_3 H 0.419057 0.348047 0.843912
N2_3 N 0.3642(3) 0.43430(15) 0.8417(3)
C121_3 C 0.3886(4) 0.4626(2) 0.7922(4)
H126_3 H 0.395928 0.470837 0.764434
N3_3 N 0.3951(3) 0.47475(16) 0.8355(3)
Cu2_3 Cu 0.38618(7) 0.46383(4) 0.93206(6)
N4_3 N 0.1108(2) 0.26281(19) 0.47749(19)
C122_3 C 0.1253(3) 0.2500(2) 0.4411(2)
N5_3 N 0.1126(2) 0.2679(2) 0.4040(2)
Cu3_3 Cu 0.15545(5) 0.21410(4) 0.44437(4)
Cl3_3 Cl 0.18855(18) 0.17088(13) 0.4526(2)
Zn6_2 Zn 0.56645(2) 0.71998(2) 0.88961(2)
Zn10_2 Zn 0.61229(2) 0.69263(2) 0.98494(2)
O19_2 O 0.02638(15) 0.25191(10) 0.88731(16)
O20_2 O 0.02928(14) 0.18615(10) 0.89473(16)
O21_2 O 0.06168(17) 0.16747(10) 0.96479(16)
O22_2 O 0.05821(19) 0.26528(16) 0.95951(19)
H127_3 H 0.348057 0.469039 0.860662
H128_3 H 0.156202 0.261523 0.450548
C6_3 C 0.3284(3) 0.89068(19) 0.9252(4)
C7_3 C 0.3840(3) 0.86065(19) 0.9671(3)
H10_3 H 0.399193 0.852219 0.995859
C9_3 C 0.3496(4) 0.8798(2) 0.9682(4)
C11_3 C 0.3159(4) 0.8968(2) 0.8354(4)
H15_3 H 0.290888 0.908729 0.841693
C14_3 C 0.2503(4) 0.9038(2) 0.9227(5)
H17_3 H 0.238288 0.884804 0.919708
C15_3 C 0.2278(4) 0.9285(2) 0.9246(5)
H18_3 H 0.197297 0.930499 0.923020
C23_3 C 0.2963(4) 0.8725(2) 0.7997(4)
H27_3 H 0.277241 0.860025 0.814395
H28_3 H 0.279423 0.881293 0.770832
H29_3 H 0.320085 0.860862 0.791513
C24_3 C 0.2454(5) 0.9980(2) 0.8958(4)
C26_3 C 0.3454(5) 0.9165(3) 0.8147(4)
H33_3 H 0.329823 0.924125 0.784206
H34_3 H 0.354579 0.932619 0.836664
H35_3 H 0.371195 0.905716 0.809781
C41_3 C 0.2503(7) 0.9842(4) 0.8480(6)
H76_3 H 0.253315 0.962656 0.849752
C42_3 C 0.2216(7) 0.9936(4) 0.8070(6)
H77_3 H 0.227949 0.983279 0.779254
H78_3 H 0.191453 0.989610 0.810178
C43_3 C 0.2899(8) 0.9994(4) 0.8334(7)
H80_3 H 0.316073 0.995930 0.857825
H81_3 H 0.294396 0.991544 0.802936
Cu1_3 Cu 0.35032(13) 0.96047(7) 0.93494(16)
Cl1_3 Cl 0.4084(5) 0.9702(4) 0.9652(6)
O10_2 O 0.52638(15) 0.75191(10) 0.88731(16)
O16_2 O 0.55821(19) 0.76528(16) 0.95951(19)
C63_3 C 0.5302(3) 0.76803(19) 0.9228(3)
C64_3 C 0.4964(3) 0.79071(18) 0.9227(3)
C82_3 C 0.3737(3) 0.86519(18) 0.8822(3)
H104_3 H 0.381619 0.859943 0.853000
C83_3 C 0.4283(3) 0.81238(18) 0.8873(3)
H105_3 H 0.403409 0.813043 0.862280
C89_3 C 0.4594(3) 0.79182(19) 0.8862(3)
H108_3 H 0.456080 0.778296 0.860808
C102_3 C 0.2502(4) 0.9805(2) 0.9352(4)
C103_3 C 0.4692(3) 0.83176(19) 0.9585(3)
H114_3 H 0.472988 0.845962 0.982904
C105_3 C 0.5007(3) 0.81129(19) 0.9584(3)
H115_3 H 0.525862 0.811155 0.983150
C108_3 C 0.4320(3) 0.83218(18) 0.9238(3)
C113_3 C 0.3962(3) 0.85379(19) 0.9244(3)
C116_3 C 0.3389(3) 0.88465(19) 0.8824(4)
C117_3 C 0.2494(4) 0.99048(19) 0.9791(4)
N6_3 N 0.2583(3) 0.95015(16) 0.9293(3)
C123_3 C 0.2990(4) 0.9395(2) 0.9296(5)
N7_3 N 0.2927(3) 0.91051(16) 0.9259(3)
Zn8_2 Zn 0.62415(2) 0.75998(2) 0.96999(2)
H129_3 H 0.293589 0.941315 0.891019
C56_4 C 0.0358(2) 0.16613(15) 0.9252(2)
C59_4 C 0.0133(2) 0.13829(15) 0.9133(3)
C75_4 C 0.0286(3) 0.11335(16) 0.9379(3)
H98_4 H 0.052549 0.114469 0.963901
C109_4 C 0.0090(3) 0.08647(18) 0.9248(3)
H116_4 H 0.020049 0.069590 0.941975
H119_4 H 0.007115 0.031183 0.902279
C33_4 C 0.0014(5) 0.9740(3) 0.9387(5)
H54_4 H 0.017715 0.955891 0.945614
H55_4 H 0.020733 0.990443 0.949172
C37_4 C 0.0207(7) 0.9754(4) 0.8597(7)
H66_4 H 0.037794 0.957737 0.867942
H67_4 H 0.008792 0.975667 0.825447
H68_4 H 0.039495 0.992376 0.868216
C63_4 C 0.0302(3) 0.26803(19) 0.9228(3)
C105_4 C 0.0007(3) 0.31129(19) 0.9584(3)
H115_4 H 0.025862 0.311155 0.983150
C21_3 C 0.8374(4) 0.3875(3) 0.0158(4)
H25_3 H 0.811213 0.400427 0.008919
C22_3 C 0.7584(5) 0.4712(2) 0.0237(5)
H26_3 H 0.755938 0.450537 0.013031
C27_3 C 0.8752(5) 0.4053(3) 0.0458(5)
H36_3 H 0.867711 0.410291 0.076478
H37_3 H 0.902023 0.393644 0.051263
H38_3 H 0.879844 0.423007 0.028745
C29_3 C 0.8239(6) 0.3599(3) 0.0387(5)
H42_3 H 0.816045 0.364731 0.069241
H43_3 H 0.798800 0.351174 0.017630
H44_3 H 0.848359 0.346219 0.043885
C35_3 C 0.8055(6) 0.4766(4) 0.0485(6)
H60_3 H 0.825006 0.473571 0.025947
H61_3 H 0.808531 0.496523 0.060418
H62_3 H 0.813379 0.463095 0.075244
C36_3 C 0.7290(6) 0.4755(3) 0.0566(6)
H63_3 H 0.698862 0.472019 0.040142
H64_3 H 0.736519 0.462059 0.083322
H65_3 H 0.731672 0.495487 0.068496
H86_4 H 0.662887 0.610440 0.005928
H121_4 H 0.740044 0.528016 0.014448
Cl2_4 Cl 0.90181(18) 0.96633(11) 0.00678(15)
O17_2 O 0.62715(14) 0.75164(10) 0.03989(12)
O18_2 O 0.60746(13) 0.70571(9) 0.04769(13)
O1_4 O 0.6197(3) 0.7843(2) 0.9009(3)
O2_4 O 0.6222(3) 0.80676(15) 0.9810(4)
C1_4 C 0.7152(3) 0.7704(3) 0.5299(3)
H1_4 H 0.735558 0.785265 0.523051
H2_4 H 0.730953 0.756534 0.552913
H3_4 H 0.702499 0.760237 0.500453
C2_4 C 0.5825(3) 0.7442(3) 0.3298(2)
C3_4 C 0.6997(3) 0.8037(2) 0.5936(3)
H4_4 H 0.719931 0.817526 0.583489
H5_4 H 0.676884 0.814193 0.605583
H6_4 H 0.715776 0.791254 0.618756
C5_4 C 0.5511(4) 0.6839(3) 0.4950(4)
H7_4 H 0.580353 0.676370 0.494398
H8_4 H 0.542361 0.677913 0.524624
H9_4 H 0.530295 0.676190 0.467820
C6_4 C 0.8284(3) 0.39068(19) 0.9252(4)
C7_4 C 0.8840(3) 0.36065(19) 0.9671(3)
H10_4 H 0.899193 0.352219 0.995859
C8_4 C 0.5086(4) 0.7275(3) 0.4932(4)
H11_4 H 0.508689 0.748668 0.491498
H12_3 H 0.487870 0.719691 0.466045
H13_3 H 0.499936 0.721414 0.522849
C9_4 C 0.8496(4) 0.3798(2) 0.9682(4)
C10_4 C 0.7735(4) 0.93896(19) 0.8415(4)
H14_4 H 0.795432 0.953763 0.836182
C11_4 C 0.8159(4) 0.3968(2) 0.8354(4)
H15_4 H 0.790888 0.408729 0.841693
C12_4 C 0.6491(3) 0.7732(2) 0.3361(3)
C13_4 C 0.8698(4) 0.9368(2) 0.7955(3)
H16_4 H 0.861879 0.922940 0.770772
C14_4 C 0.7503(4) 0.4038(2) 0.9227(5)
H17_4 H 0.738288 0.384804 0.919708
C15_4 C 0.7278(4) 0.4285(2) 0.9246(5)
H18_4 H 0.697297 0.430499 0.923020
C17_4 C 0.9841(5) 0.9763(3) 0.8863(6)
H19_4 H 0.964510 0.959345 0.876214
C19_4 C 0.7439(4) 0.9343(2) 0.7945(4)
H21_4 H 0.760590 0.926043 0.772088
H22_4 H 0.720476 0.920920 0.798427
H23_4 H 0.731229 0.952848 0.782267
C20_4 C 0.6859(4) 0.7909(3) 0.3662(3)
H24_4 H 0.683828 0.789547 0.400486
N1_4 N 0.6144(4) 0.8101(3) 0.9295(5)
O3_4 O 0.6108(4) 0.8341(2) 0.9080(5)
C23_4 C 0.7963(4) 0.3725(2) 0.7997(4)
H27_4 H 0.777241 0.360025 0.814395
H28_4 H 0.779423 0.381293 0.770832
H29_4 H 0.820085 0.360862 0.791513
C24_4 C 0.7454(5) 0.4980(2) 0.8958(4)
C25_4 C 0.7297(4) 0.7794(4) 0.3595(5)
H30_4 H 0.733236 0.759359 0.371001
H31_4 H 0.731227 0.779925 0.325686
H32_4 H 0.753099 0.791382 0.377536
C26_4 C 0.8454(5) 0.4165(3) 0.8147(4)
H33_4 H 0.829823 0.424125 0.784206
H34_4 H 0.854579 0.432619 0.836664
H35_4 H 0.871195 0.405716 0.809781
C28_4 C 0.7508(6) 0.9510(3) 0.8758(5)
H39_4 H 0.771242 0.953757 0.906030
H40_4 H 0.738176 0.969743 0.864321
H41_4 H 0.727424 0.937815 0.880481
C30_4 C 0.6782(5) 0.8210(4) 0.3497(6)
H45_4 H 0.649523 0.827371 0.354764
H46_4 H 0.700906 0.833544 0.367565
H47_4 H 0.679034 0.822087 0.315715
C31_4 C 0.9420(4) 0.8774(4) 0.9264(5)
H48_4 H 0.933959 0.890112 0.950745
H49_4 H 0.935034 0.857292 0.933069
H50_4 H 0.973338 0.879139 0.926903
H56_4 H 0.976970 0.974230 0.955683
C38_4 C 0.5444(3) 0.7350(3) 0.3511(3)
H69_4 H 0.551304 0.738188 0.386310
C39_4 C 0.5338(5) 0.7052(3) 0.3414(5)
H70_4 H 0.508943 0.699834 0.355767
H71_4 H 0.526287 0.702239 0.306904
H72_4 H 0.559043 0.693116 0.354767
C40_4 C 0.5023(4) 0.7530(4) 0.3282(5)
H73_4 H 0.507927 0.773663 0.334009
H74_3 H 0.495217 0.749360 0.293907
H75_3 H 0.477666 0.746995 0.342651
C41_4 C 0.7503(7) 0.4842(4) 0.8480(6)
H76_4 H 0.753315 0.462656 0.849752
C42_4 C 0.7216(7) 0.4936(4) 0.8070(6)
H77_4 H 0.727949 0.483279 0.779254
H78_4 H 0.691453 0.489610 0.810178
H79_4 H 0.725302 0.514453 0.802929
C43_4 C 0.7899(8) 0.4994(4) 0.8334(7)
H80_4 H 0.816073 0.495930 0.857825
H81_4 H 0.794396 0.491544 0.802936
H82_4 H 0.784367 0.520237 0.830243
Cu1_4 Cu 0.85032(13) 0.46047(7) 0.93494(16)
Cl1_4 Cl 0.9084(5) 0.4702(4) 0.9652(6)
Zn2_4 Zn 0.66932(2) 0.71294(2) 0.91145(2)
O5_4 O 0.65680(16) 0.66265(9) 0.98821(14)
O7_4 O 0.57837(16) 0.71557(10) 0.82616(14)
O8_4 O 0.61845(12) 0.72123(8) 0.93814(12)
O9_4 O 0.65221(16) 0.70957(10) 0.84197(14)
O11_4 O 0.71451(15) 0.74164(10) 0.92062(17)
O14_4 O 0.69250(15) 0.67448(9) 0.93012(16)
O15_4 O 0.68911(17) 0.76521(12) 0.97643(16)
C44_4 C 0.6816(2) 0.65725(13) 0.9593(2)
C45_4 C 0.5766(2) 0.71647(16) 0.7288(2)
H83_4 H 0.549468 0.714442 0.738865
C46_4 C 0.6041(2) 0.71444(17) 0.1426(2)
H84_4 H 0.595396 0.696143 0.128783
C47_4 C 0.61687(19) 0.73110(15) 0.06276(19)
C48_4 C 0.7383(2) 0.78944(15) 0.9371(2)
C49_4 C 0.5870(3) 0.72059(19) 0.5784(2)
H85_4 H 0.567360 0.706016 0.584736
C50_4 C 0.6971(3) 0.62645(14) 0.9583(2)
C51_4 C 0.6158(2) 0.71306(14) 0.8142(2)
C52_4 C 0.7802(2) 0.83849(15) 0.9103(3)
C53_4 C 0.6817(3) 0.60545(14) 0.9849(3)
C54_4 C 0.6279(3) 0.76205(17) 0.1356(2)
H87_4 H 0.635700 0.777425 0.116873
C55_4 C 0.7720(2) 0.78655(14) 0.9119(3)
H88_4 H 0.780703 0.767844 0.903440
C57_4 C 0.7468(2) 0.84104(16) 0.9354(3)
H89_4 H 0.737571 0.859735 0.943224
C58_4 C 0.7125(2) 0.76357(17) 0.9465(2)
C60_4 C 0.5772(2) 0.72091(16) 0.6816(2)
H90_4 H 0.550503 0.721820 0.659107
C61_4 C 0.6160(2) 0.73597(16) 0.1145(2)
C62_4 C 0.7927(2) 0.81068(14) 0.8991(3)
H91_4 H 0.815920 0.808426 0.882406
C64_4 C 0.9964(3) 0.29071(18) 0.9227(3)
C65_4 C 0.8026(3) 0.86414(14) 0.8944(3)
C66_4 C 0.5891(3) 0.7883(2) 0.4634(3)
H92_4 H 0.576198 0.801291 0.482317
C67_4 C 0.6787(3) 0.7848(2) 0.5507(2)
H93_4 H 0.662405 0.798006 0.525833
C68_4 C 0.6554(3) 0.71690(18) 0.7470(2)
H94_4 H 0.682155 0.715334 0.769250
C70_4 C 0.6472(3) 0.75234(19) 0.6064(2)
H96_4 H 0.668856 0.759394 0.631829
C71_4 C 0.6166(3) 0.7500(2) 0.2618(2)
C72_4 C 0.7268(2) 0.81696(17) 0.9493(3)
H97_4 H 0.704678 0.819205 0.967566
C73_4 C 0.6158(2) 0.71492(16) 0.7625(2)
C74_4 C 0.6469(3) 0.7625(2) 0.5616(2)
C76_4 C 0.6046(2) 0.71876(18) 0.1897(2)
H99_4 H 0.596283 0.703416 0.208147
C77_4 C 0.8471(3) 0.86377(16) 0.8952(3)
H100_4 H 0.863663 0.847242 0.907419
C78_4 C 0.6491(3) 0.7671(2) 0.2898(2)
H101_4 H 0.671894 0.774758 0.275696
C79_4 C 0.6557(3) 0.72110(19) 0.6997(2)
H102_4 H 0.682817 0.721983 0.689367
C80_4 C 0.5516(3) 0.7167(2) 0.4923(3)
H103_4 H 0.559539 0.722409 0.461398
C81_4 C 0.8798(4) 0.95842(19) 0.8679(3)
C82_4 C 0.8737(3) 0.36519(18) 0.8822(3)
H104_4 H 0.881619 0.359943 0.853000
C83_4 C 0.9283(3) 0.31238(18) 0.8873(3)
H105_4 H 0.903409 0.313043 0.862280
C84_4 C 0.7990(3) 0.91239(15) 0.8611(3)
C85_4 C 0.6290(3) 0.7666(2) 0.1825(2)
H106_4 H 0.638169 0.784896 0.196165
C86_4 C 0.8682(3) 0.88707(18) 0.8784(3)
C87_4 C 0.7222(3) 0.56938(17) 0.9513(3)
C89_4 C 0.9594(3) 0.29182(19) 0.8862(3)
H108_4 H 0.956080 0.278296 0.860808
C90_4 C 0.7790(3) 0.88840(15) 0.8783(3)
H109_4 H 0.748717 0.889050 0.878855
C91_4 C 0.6150(3) 0.7506(2) 0.5252(2)
C93_4 C 0.5850(3) 0.7298(2) 0.5325(2)
C94_4 C 0.6169(2) 0.7448(2) 0.2110(2)
C95_4 C 0.6169(3) 0.72409(18) 0.6664(2)
C96_4 C 0.5903(3) 0.7905(3) 0.4168(3)
H110_4 H 0.577506 0.805683 0.396250
C97_4 C 0.7260(3) 0.61894(18) 0.9293(3)
H111_4 H 0.736696 0.633507 0.911093
C98_4 C 0.5845(3) 0.7383(2) 0.2827(2)
H112_4 H 0.563316 0.725870 0.264558
C100_4 C 0.6176(3) 0.73236(19) 0.6165(2)
C102_4 C 0.7502(4) 0.4805(2) 0.9352(4)
C103_4 C 0.9692(3) 0.33176(19) 0.9585(3)
H114_4 H 0.972988 0.345962 0.982904
C106_4 C 0.7325(4) 0.53789(19) 0.9455(4)
C107_4 C 0.6150(3) 0.7613(2) 0.3558(2)
C108_4 C 0.9320(3) 0.33218(18) 0.9238(3)
C110_4 C 0.7394(4) 0.59100(19) 0.9263(3)
H117_4 H 0.760234 0.586300 0.907423
C111_4 C 0.6941(3) 0.57697(16) 0.9805(3)
H118_4 H 0.682852 0.562355 0.998165
C113_4 C 0.8962(3) 0.35379(19) 0.9244(3)
C114_4 C 0.7370(4) 0.5274(2) 0.9017(4)
H120_4 H 0.734258 0.540153 0.875331
C115_4 C 0.7404(4) 0.52028(18) 0.9838(4)
C116_4 C 0.8389(3) 0.38465(19) 0.8824(4)
C117_4 C 0.7494(4) 0.49048(19) 0.9791(4)
C118_4 C 0.9175(3) 0.8858(2) 0.8796(3)
H122_4 H 0.926743 0.906028 0.874000
C119_4 C 0.8430(4) 0.91115(18) 0.8614(3)
C120_4 C 0.9264(4) 0.8684(3) 0.8393(5)
H123_4 H 0.908579 0.875558 0.809639
H124_4 H 0.957361 0.869895 0.837747
H125_4 H 0.919057 0.848047 0.843912
N2_4 N 0.8642(3) 0.93430(15) 0.8417(3)
C121_4 C 0.8886(4) 0.9626(2) 0.7922(4)
H126_4 H 0.895928 0.970837 0.764434
N3_4 N 0.8951(3) 0.97475(16) 0.8355(3)
Cu2_4 Cu 0.88618(7) 0.96383(4) 0.93206(6)
N4_4 N 0.6108(2) 0.76281(19) 0.47749(19)
C122_4 C 0.6253(3) 0.7500(2) 0.4411(2)
N5_4 N 0.6126(2) 0.7679(2) 0.4040(2)
Cu3_4 Cu 0.65545(5) 0.71410(4) 0.44437(4)
Cl3_4 Cl 0.68855(18) 0.67088(13) 0.4526(2)
N6_4 N 0.7583(3) 0.45015(16) 0.9293(3)
C123_4 C 0.7990(4) 0.4395(2) 0.9296(5)
N7_4 N 0.7927(3) 0.41051(16) 0.9259(3)
H127_4 H 0.848057 0.969039 0.860662
H128_4 H 0.656202 0.761523 0.450548
H129_4 H 0.793589 0.441315 0.891019
C21_4 C 0.3374(4) 0.8875(3) 0.0158(4)
H25_4 H 0.311213 0.900427 0.008919
C22_4 C 0.2584(5) 0.9712(2) 0.0237(5)
H26_4 H 0.255938 0.950537 0.013031
C27_4 C 0.3752(5) 0.9053(3) 0.0458(5)
H36_4 H 0.367711 0.910291 0.076478
H37_4 H 0.402023 0.893644 0.051263
H38_4 H 0.379844 0.923007 0.028745
C29_4 C 0.3239(6) 0.8599(3) 0.0387(5)
H42_4 H 0.316045 0.864731 0.069241
H43_4 H 0.298800 0.851174 0.017630
H44_4 H 0.348359 0.846219 0.043885
C35_4 C 0.3055(6) 0.9766(4) 0.0485(6)
H60_4 H 0.325006 0.973571 0.025947
H61_4 H 0.308531 0.996523 0.060418
H62_4 H 0.313379 0.963095 0.075244
C36_4 C 0.2290(6) 0.9755(3) 0.0566(6)
H63_4 H 0.198862 0.972019 0.040142
H64_4 H 0.236519 0.962059 0.083322
H65_4 H 0.231672 0.995487 0.068496
H12_4 H 0.987870 0.219691 0.466045
H13_4 H 0.999936 0.221414 0.522849
H74_4 H 0.995217 0.249360 0.293907
H75_4 H 0.977666 0.246995 0.342651
C4_3 C 0.0410(4) 0.0031(2) 0.6268(4)
C16_3 C 0.0836(4) 0.00344(19) 0.6520(4)
C18_3 C 0.1560(4) 0.0275(2) 0.6926(4)
H20_3 H 0.159979 0.008669 0.710070
C32_3 C 0.1653(4) 0.0506(3) 0.7295(5)
H51_3 H 0.144175 0.049322 0.750633
H52_3 H 0.194899 0.048069 0.748108
H53_3 H 0.162961 0.069643 0.714072
C34_3 C 0.1848(4) 0.0264(3) 0.6579(6)
H57_3 H 0.175731 0.010499 0.635463
H58_3 H 0.183010 0.044752 0.640439
H59_3 H 0.214948 0.023178 0.674475
C69_3 C 0.0220(3) 0.13616(17) 0.6240(3)
H95_3 H 0.032999 0.152974 0.641335
C88_3 C 0.0412(3) 0.10957(17) 0.6359(3)
H107_3 H 0.065820 0.108725 0.661219
C92_3 C 0.0460(3) 0.05616(18) 0.6269(3)
C99_3 C 0.0892(3) 0.05431(18) 0.6520(3)
H113_3 H 0.105421 0.071600 0.660174
C101_3 C 0.1088(3) 0.0278(2) 0.6652(3)
C104_3 C 0.0265(3) 0.08411(16) 0.6128(3)
C112_3 C 0.0222(4) 0.03015(19) 0.6146(4)
C4_4 C 0.9590(4) 0.0031(2) 0.8732(4)
C16_4 C 0.9164(4) 0.00344(19) 0.8480(4)
C18_4 C 0.8440(4) 0.0275(2) 0.8074(4)
H20_4 H 0.840021 0.008669 0.789930
C32_4 C 0.8347(4) 0.0506(3) 0.7705(5)
H51_4 H 0.855825 0.049322 0.749367
H52_4 H 0.805101 0.048069 0.751892
H53_4 H 0.837039 0.069643 0.785928
C34_4 C 0.8152(4) 0.0264(3) 0.8421(6)
H57_4 H 0.824269 0.010499 0.864537
H58_4 H 0.816990 0.044752 0.859561
H59_4 H 0.785052 0.023178 0.825525
C69_4 C 0.9780(3) 0.13616(17) 0.8760(3)
H95_4 H 0.967001 0.152974 0.858665
C88_4 C 0.9588(3) 0.10957(17) 0.8641(3)
H107_4 H 0.934180 0.108725 0.838781
C92_4 C 0.9540(3) 0.05616(18) 0.8731(3)
C99_4 C 0.9108(3) 0.05431(18) 0.8480(3)
H113_4 H 0.894579 0.071600 0.839826
C101_4 C 0.8912(3) 0.0278(2) 0.8348(3)
C104_4 C 0.9735(3) 0.08411(16) 0.8872(3)
C112_4 C 0.9778(4) 0.03015(19) 0.8854(4)
C6_5 C 0.3284(3) 0.10932(19) 0.4252(4)
C7_5 C 0.3840(3) 0.13935(19) 0.4671(3)
H10_5 H 0.399193 0.147781 0.495859
C9_5 C 0.3496(4) 0.1202(2) 0.4682(4)
C11_5 C 0.3159(4) 0.1032(2) 0.3354(4)
H15_5 H 0.290888 0.091271 0.341693
C14_5 C 0.2503(4) 0.0962(2) 0.4227(5)
H17_5 H 0.238288 0.115196 0.419708
C15_5 C 0.2278(4) 0.0715(2) 0.4246(5)
H18_5 H 0.197297 0.069501 0.423020
C21_5 C 0.3374(4) 0.1125(3) 0.5158(4)
H25_5 H 0.311213 0.099573 0.508919
C22_5 C 0.2584(5) 0.0288(2) 0.5237(5)
H26_5 H 0.255938 0.049463 0.513031
C23_5 C 0.2963(4) 0.1275(2) 0.2997(4)
H27_5 H 0.277241 0.139975 0.314395
H28_5 H 0.279423 0.118707 0.270832
H29_5 H 0.320085 0.139138 0.291513
C24_5 C 0.2454(5) 0.0020(2) 0.3958(4)
C26_5 C 0.3454(5) 0.0835(3) 0.3147(4)
H33_5 H 0.329823 0.075875 0.284206
H34_5 H 0.354579 0.067381 0.336664
H35_5 H 0.371195 0.094284 0.309781
C27_5 C 0.3752(5) 0.0947(3) 0.5458(5)
H36_5 H 0.367711 0.089709 0.576478
H37_5 H 0.402023 0.106356 0.551263
H38_5 H 0.379844 0.076993 0.528745
C29_5 C 0.3239(6) 0.1401(3) 0.5387(5)
H42_5 H 0.316045 0.135269 0.569241
H43_5 H 0.298800 0.148826 0.517630
H44_5 H 0.348359 0.153781 0.543885
C35_5 C 0.3055(6) 0.0234(4) 0.5485(6)
H60_5 H 0.325006 0.026429 0.525947
H61_5 H 0.308531 0.003477 0.560418
H62_5 H 0.313379 0.036905 0.575244
C36_5 C 0.2290(6) 0.0245(3) 0.5566(6)
H63_5 H 0.198862 0.027981 0.540142
H64_5 H 0.236519 0.037941 0.583322
H65_5 H 0.231672 0.004513 0.568496
C41_5 C 0.2503(7) 0.0158(4) 0.3480(6)
H76_5 H 0.253315 0.037344 0.349752
C42_5 C 0.2216(7) 0.0064(4) 0.3070(6)
H77_5 H 0.227949 0.016721 0.279254
H78_5 H 0.191453 0.010390 0.310178
C43_5 C 0.2899(8) 0.0006(4) 0.3334(7)
H80_5 H 0.316073 0.004070 0.357825
H81_5 H 0.294396 0.008456 0.302936
Cu1_5 Cu 0.35032(13) 0.03953(7) 0.43494(16)
Cl1_5 Cl 0.4084(5) 0.0298(4) 0.4652(6)
O10_3 O 0.52638(15) 0.24809(10) 0.38731(16)
O16_3 O 0.55821(19) 0.23472(16) 0.45951(19)
C63_5 C 0.5302(3) 0.23197(19) 0.4228(3)
C64_5 C 0.4964(3) 0.20929(18) 0.4227(3)
C82_5 C 0.3737(3) 0.13481(18) 0.3822(3)
H104_5 H 0.381619 0.140057 0.353000
C83_5 C 0.4283(3) 0.18762(18) 0.3873(3)
H105_5 H 0.403409 0.186957 0.362280
C89_5 C 0.4594(3) 0.20818(19) 0.3862(3)
H108_5 H 0.456080 0.221704 0.360808
C102_5 C 0.2502(4) 0.0195(2) 0.4352(4)
C103_5 C 0.4692(3) 0.16824(19) 0.4585(3)
H114_5 H 0.472988 0.154038 0.482904
C105_5 C 0.5007(3) 0.18871(19) 0.4584(3)
H115_5 H 0.525862 0.188845 0.483150
C108_5 C 0.4320(3) 0.16782(18) 0.4238(3)
C113_5 C 0.3962(3) 0.14621(19) 0.4244(3)
C116_5 C 0.3389(3) 0.11535(19) 0.3824(4)
C117_5 C 0.2494(4) 0.00952(19) 0.4791(4)
N6_5 N 0.2583(3) 0.04985(16) 0.4293(3)
C123_5 C 0.2990(4) 0.0605(2) 0.4296(5)
N7_5 N 0.2927(3) 0.08949(16) 0.4259(3)
Zn5 Zn 0.56645(2) 0.28002(2) 0.38961(2)
Zn8_3 Zn 0.62415(2) 0.24002(2) 0.46999(2)
H129_5 H 0.293589 0.0586846 0.391019
O1_5 O 0.1197(3) 0.7157(2) 0.4009(3)
O2_5 O 0.1222(3) 0.69324(15) 0.4810(4)
C1_5 C 0.2152(3) 0.7296(3) 0.0299(3)
H1_5 H 0.235558 0.714735 0.023051
H2_5 H 0.230953 0.743466 0.052913
H3_5 H 0.202499 0.739763 0.000453
C3_5 C 0.1997(3) 0.6963(2) 0.0936(3)
H4_5 H 0.219931 0.682474 0.083489
H5_5 H 0.176884 0.685807 0.105583
H6_5 H 0.215776 0.708746 0.118756
C4_5 C 0.4590(4) 0.4969(2) 0.3732(4)
H8_5 H 0.042361 0.822087 0.024624
C10_5 C 0.2735(4) 0.56104(19) 0.3415(4)
H14_5 H 0.295432 0.546237 0.336182
C13_5 C 0.3698(4) 0.5632(2) 0.2955(3)
H16_5 H 0.361879 0.577060 0.270772
C16_5 C 0.4164(4) 0.49656(19) 0.3480(4)
C17_5 C 0.4841(5) 0.5237(3) 0.3863(6)
H19_5 H 0.464510 0.540655 0.376214
C18_5 C 0.3440(4) 0.4725(2) 0.3074(4)
H20_5 H 0.340021 0.491331 0.289930
C19_5 C 0.2439(4) 0.5657(2) 0.2945(4)
H21_5 H 0.260590 0.573957 0.272088
H22_5 H 0.220476 0.579080 0.298427
H23_5 H 0.231229 0.547152 0.282267
N1_5 N 0.1144(4) 0.6899(3) 0.4295(5)
O3_5 O 0.1108(4) 0.6659(2) 0.4080(5)
C28_5 C 0.2508(6) 0.5490(3) 0.3758(5)
H39_5 H 0.271242 0.546243 0.406030
H40_5 H 0.238176 0.530257 0.364321
H41_5 H 0.227424 0.562185 0.380481
C31_5 C 0.4420(4) 0.6226(4) 0.4264(5)
H48_5 H 0.433959 0.609888 0.450745
H49_5 H 0.435034 0.642708 0.433069
H50_5 H 0.473338 0.620861 0.426903
C32_5 C 0.3347(4) 0.4494(3) 0.2705(5)
H51_5 H 0.355825 0.450678 0.249367
H52_5 H 0.305101 0.451931 0.251892
H53_5 H 0.337039 0.430357 0.285928
C33_5 C 0.5014(5) 0.5260(3) 0.4387(5)
H54_5 H 0.517715 0.544109 0.445614
H55_5 H 0.520733 0.509557 0.449172
H56_5 H 0.476970 0.525770 0.455683
C34_5 C 0.3152(4) 0.4736(3) 0.3421(6)
H57_5 H 0.324269 0.489501 0.364537
H58_5 H 0.316990 0.455248 0.359561
H59_5 H 0.285052 0.476822 0.325525
C37_5 C 0.5207(7) 0.5246(4) 0.3597(7)
H66_5 H 0.537794 0.542263 0.367942
H67_5 H 0.508792 0.524333 0.325447
H68_5 H 0.539495 0.507624 0.368216
H79_5 H 0.225302 0.985547 0.302929
H82_5 H 0.284367 0.979763 0.330243
Zn1_3 Zn 0.06645(2) 0.78002(2) 0.38961(2)
Zn2_5 Zn 0.16932(2) 0.78706(2) 0.41145(2)
Zn3_2 Zn 0.12415(2) 0.74002(2) 0.46999(2)
Zn4_2 Zn 0.11229(2) 0.80737(2) 0.48494(2)
O5_5 O 0.15680(16) 0.83735(9) 0.48821(14)
O7_5 O 0.07837(16) 0.78443(10) 0.32616(14)
O8_5 O 0.11845(12) 0.77877(8) 0.43814(12)
O9_5 O 0.15221(16) 0.79043(10) 0.34197(14)
O11_5 O 0.21451(15) 0.75836(10) 0.42062(17)
O12_3 O 0.52928(14) 0.31385(10) 0.39473(16)
O13_3 O 0.56168(17) 0.33253(10) 0.46479(16)
O14_5 O 0.19250(15) 0.82552(9) 0.43012(16)
O15_5 O 0.18911(17) 0.73479(12) 0.47643(16)
C44_5 C 0.1816(2) 0.84275(13) 0.4593(2)
C45_5 C 0.0766(2) 0.78353(16) 0.2288(2)
H83_5 H 0.049468 0.785558 0.238865
C48_5 C 0.2383(2) 0.71056(15) 0.4371(2)
C49_5 C 0.0870(3) 0.77941(19) 0.0784(2)
H85_5 H 0.067360 0.793984 0.084736
C50_5 C 0.1971(3) 0.87355(14) 0.4583(2)
C51_5 C 0.1158(2) 0.78694(14) 0.3142(2)
C52_5 C 0.2802(2) 0.66151(15) 0.4103(3)
C53_5 C 0.1817(3) 0.89455(14) 0.4849(3)
H86_5 H 0.162887 0.889560 0.505928
C55_5 C 0.2720(2) 0.71345(14) 0.4119(3)
H88_5 H 0.280703 0.732156 0.403440
C56_5 C 0.5358(2) 0.33387(15) 0.4252(2)
C57_5 C 0.2468(2) 0.65896(16) 0.4354(3)
H89_5 H 0.237571 0.640265 0.443224
C58_5 C 0.2125(2) 0.73643(17) 0.4465(2)
C59_5 C 0.5133(2) 0.36171(15) 0.4133(3)
C60_5 C 0.0772(2) 0.77909(16) 0.1816(2)
H90_5 H 0.050503 0.778180 0.159107
C62_5 C 0.2927(2) 0.68932(14) 0.3991(3)
H91_5 H 0.315920 0.691574 0.382406
C65_5 C 0.3026(3) 0.63586(14) 0.3944(3)
C67_5 C 0.1787(3) 0.7152(2) 0.0507(2)
H93_5 H 0.162405 0.701994 0.025833
C68_5 C 0.1554(3) 0.78310(18) 0.2470(2)
H94_5 H 0.182155 0.784666 0.269250
C69_5 C 0.4780(3) 0.36384(17) 0.3760(3)
H95_5 H 0.467001 0.347026 0.358665
C70_5 C 0.1472(3) 0.74766(19) 0.1064(2)
H96_5 H 0.168856 0.740606 0.131829
C72_5 C 0.2268(2) 0.68304(17) 0.4493(3)
H97_5 H 0.204678 0.680795 0.467566
C73_5 C 0.1158(2) 0.78508(16) 0.2625(2)
C74_5 C 0.1469(3) 0.7375(2) 0.0616(2)
C75_5 C 0.5286(3) 0.38665(16) 0.4379(3)
H98_5 H 0.552549 0.385531 0.463901
C77_5 C 0.3471(3) 0.63623(16) 0.3952(3)
H100_5 H 0.363663 0.652758 0.407419
C79_5 C 0.1557(3) 0.77890(19) 0.1997(2)
H102_5 H 0.182817 0.778017 0.189367
C81_5 C 0.3798(4) 0.54158(19) 0.3679(3)
C84_5 C 0.2990(3) 0.58761(15) 0.3611(3)
C86_5 C 0.3682(3) 0.61293(18) 0.3784(3)
C87_5 C 0.2222(3) 0.93062(17) 0.4513(3)
C88_5 C 0.4588(3) 0.39043(17) 0.3641(3)
H107_5 H 0.434180 0.391275 0.338781
C90_5 C 0.2790(3) 0.61160(15) 0.3783(3)
H109_5 H 0.248717 0.610950 0.378855
C91_5 C 0.1150(3) 0.7494(2) 0.0252(2)
C92_5 C 0.4540(3) 0.44384(18) 0.3731(3)
C93_5 C 0.0850(3) 0.7702(2) 0.0325(2)
C95_5 C 0.1169(3) 0.77591(18) 0.1664(2)
C97_5 C 0.2260(3) 0.88106(18) 0.4293(3)
H111_5 H 0.236696 0.866493 0.411093
C99_5 C 0.4108(3) 0.44569(18) 0.3480(3)
H113_5 H 0.394579 0.428400 0.339826
C100_5 C 0.1176(3) 0.76764(19) 0.1165(2)
C101_5 C 0.3912(3) 0.4722(2) 0.3348(3)
C104_5 C 0.4735(3) 0.41589(16) 0.3872(3)
C106_5 C 0.2325(4) 0.96211(19) 0.4455(4)
C109_5 C 0.5090(3) 0.41353(18) 0.4248(3)
H116_5 H 0.520049 0.430410 0.441975
C110_5 C 0.2394(4) 0.90900(19) 0.4263(3)
H117_5 H 0.260234 0.913700 0.407423
C111_5 C 0.1941(3) 0.92303(16) 0.4805(3)
H118_5 H 0.182852 0.937645 0.498165
C112_5 C 0.4778(4) 0.46985(19) 0.3854(4)
H119_5 H 0.507115 0.468817 0.402279
C114_5 C 0.2370(4) 0.9726(2) 0.4017(4)
H120_5 H 0.234258 0.959847 0.375331
C115_5 C 0.2404(4) 0.97972(18) 0.4838(4)
H121_5 H 0.240044 0.971984 0.514448
C118_5 C 0.4175(3) 0.6142(2) 0.3796(3)
H122_5 H 0.426743 0.593972 0.374000
C119_5 C 0.3430(4) 0.58885(18) 0.3614(3)
C120_5 C 0.4264(4) 0.6316(3) 0.3393(5)
H123_5 H 0.408579 0.624442 0.309639
H124_5 H 0.457361 0.630105 0.337747
H125_5 H 0.419057 0.651953 0.343912
N2_5 N 0.3642(3) 0.56570(15) 0.3417(3)
C121_5 C 0.3886(4) 0.5374(2) 0.2922(4)
H126_5 H 0.395928 0.529163 0.264434
N3_5 N 0.3951(3) 0.52525(16) 0.3355(3)
Cu2_5 Cu 0.38618(7) 0.53617(4) 0.43206(6)
Cl2_5 Cl 0.40181(18) 0.53367(11) 0.50678(15)
Zn10_3 Zn 0.61229(2) 0.30737(2) 0.48494(2)
O17_3 O 0.12715(14) 0.74836(10) 0.53989(12)
O18_3 O 0.10746(13) 0.79429(9) 0.54769(13)
O19_3 O 0.02638(15) 0.74809(10) 0.38731(16)
O20_3 O 0.02928(14) 0.81385(10) 0.39473(16)
O21_3 O 0.06168(17) 0.83253(10) 0.46479(16)
O22_3 O 0.05821(19) 0.73472(16) 0.45951(19)
H127_5 H 0.348057 0.530961 0.360662
C2_5 C 0.0825(3) 0.7558(3) 0.8298(2)
C5_5 C 0.0511(4) 0.8161(3) 0.9950(4)
H7_5 H 0.080353 0.823630 0.994398
H9_5 H 0.030295 0.823810 0.967820
C8_5 C 0.0086(4) 0.7725(3) 0.9932(4)
H11_5 H 0.008689 0.751332 0.991498
C12_5 C 0.1491(3) 0.7268(2) 0.8361(3)
C20_5 C 0.1859(4) 0.7091(3) 0.8662(3)
H24_5 H 0.183828 0.710453 0.900486
C25_5 C 0.2297(4) 0.7206(4) 0.8595(5)
H30_5 H 0.233236 0.740641 0.871001
H31_5 H 0.231227 0.720075 0.825686
H32_5 H 0.253099 0.708618 0.877536
C30_5 C 0.1782(5) 0.6790(4) 0.8497(6)
H45_5 H 0.149523 0.672629 0.854764
H46_5 H 0.200906 0.666456 0.867565
H47_5 H 0.179034 0.677913 0.815715
C38_5 C 0.0444(3) 0.7650(3) 0.8511(3)
H69_5 H 0.051304 0.761812 0.886310
C39_5 C 0.0338(5) 0.7948(3) 0.8414(5)
H70_5 H 0.008943 0.800166 0.855767
H71_5 H 0.026287 0.797761 0.806904
H72_5 H 0.059043 0.806884 0.854767
C40_5 C 0.0023(4) 0.7470(4) 0.8282(5)
H73_5 H 0.007927 0.726337 0.834009
C46_5 C 0.1041(2) 0.78556(17) 0.6426(2)
H84_5 H 0.095396 0.803857 0.628783
C47_5 C 0.11687(19) 0.76890(15) 0.56276(19)
C54_5 C 0.1279(3) 0.73795(17) 0.6356(2)
H87_5 H 0.135700 0.722575 0.616873
C61_5 C 0.1160(2) 0.76403(16) 0.6145(2)
C66_5 C 0.0891(3) 0.7117(2) 0.9634(3)
H92_5 H 0.076198 0.698709 0.982317
C71_5 C 0.1166(3) 0.7500(2) 0.7618(2)
C76_5 C 0.1046(2) 0.78124(18) 0.6897(2)
H99_5 H 0.096283 0.796584 0.708147
C78_5 C 0.1491(3) 0.7329(2) 0.7898(2)
H101_5 H 0.171894 0.725242 0.775696
C80_5 C 0.0516(3) 0.7833(2) 0.9923(3)
H103_5 H 0.059539 0.777591 0.961398
C85_5 C 0.1290(3) 0.7334(2) 0.6825(2)
H106_5 H 0.138169 0.715104 0.696165
C94_5 C 0.1169(2) 0.7552(2) 0.7110(2)
C96_5 C 0.0903(3) 0.7095(3) 0.9168(3)
H110_5 H 0.077506 0.694317 0.896250
C98_5 C 0.0845(3) 0.7617(2) 0.7827(2)
H112_5 H 0.063316 0.774130 0.764558
C107_5 C 0.1150(3) 0.7387(2) 0.8558(2)
N4_5 N 0.1108(2) 0.73719(19) 0.97749(19)
C122_5 C 0.1253(3) 0.7500(2) 0.9411(2)
N5_5 N 0.1126(2) 0.7321(2) 0.9040(2)
Cu3_5 Cu 0.15545(5) 0.78590(4) 0.94437(4)
Cl3_5 Cl 0.18855(18) 0.82912(13) 0.9526(2)
H128_5 H 0.156202 0.738477 0.950548
C33_6 C 0.0014(5) 0.0260(3) 0.4387(5)
H54_6 H 0.017715 0.044109 0.445614
H55_6 H 0.020733 0.009557 0.449172
C37_6 C 0.0207(7) 0.0246(4) 0.3597(7)
H66_6 H 0.037794 0.042263 0.367942
H67_6 H 0.008792 0.024333 0.325447
H68_6 H 0.039495 0.007624 0.368216
C63_6 C 0.0302(3) 0.73197(19) 0.4228(3)
C105_6 C 0.0007(3) 0.68871(19) 0.4584(3)
H115_6 H 0.025862 0.688845 0.483150
C56_6 C 0.0358(2) 0.83387(15) 0.4252(2)
C59_6 C 0.0133(2) 0.86171(15) 0.4133(3)
C75_6 C 0.0286(3) 0.88665(16) 0.4379(3)
H98_6 H 0.052549 0.885531 0.463901
C109_6 C 0.0090(3) 0.91353(18) 0.4248(3)
H116_6 H 0.020049 0.930410 0.441975
H119_6 H 0.007115 0.968817 0.402279
O1_6 O 0.6197(3) 0.2157(2) 0.4009(3)
O2_6 O 0.6222(3) 0.19324(15) 0.4810(4)
C1_6 C 0.7152(3) 0.2296(3) 0.0299(3)
H1_6 H 0.735558 0.214735 0.023051
H2_6 H 0.730953 0.243466 0.052913
H3_6 H 0.702499 0.239763 0.000453
C3_6 C 0.6997(3) 0.1963(2) 0.0936(3)
H4_6 H 0.719931 0.182474 0.083489
H5_6 H 0.676884 0.185807 0.105583
H6_6 H 0.715776 0.208746 0.118756
H8_6 H 0.542361 0.322087 0.024624
C6_6 C 0.8284(3) 0.60932(19) 0.4252(4)
C7_6 C 0.8840(3) 0.63935(19) 0.4671(3)
H10_6 H 0.899193 0.647781 0.495859
H13_5 H 0.499936 0.278586 0.022849
C9_6 C 0.8496(4) 0.6202(2) 0.4682(4)
C10_6 C 0.7735(4) 0.06104(19) 0.3415(4)
H14_6 H 0.795432 0.046237 0.336182
C11_6 C 0.8159(4) 0.6032(2) 0.3354(4)
H15_6 H 0.790888 0.591271 0.341693
C13_6 C 0.8698(4) 0.0632(2) 0.2955(3)
H16_6 H 0.861879 0.077060 0.270772
C14_6 C 0.7503(4) 0.5962(2) 0.4227(5)
H17_6 H 0.738288 0.615196 0.419708
C15_6 C 0.7278(4) 0.5715(2) 0.4246(5)
H18_6 H 0.697297 0.569501 0.423020
C17_6 C 0.9841(5) 0.0237(3) 0.3863(6)
H19_6 H 0.964510 0.040655 0.376214
C19_6 C 0.7439(4) 0.0657(2) 0.2945(4)
H21_6 H 0.760590 0.073957 0.272088
H22_6 H 0.720476 0.079080 0.298427
H23_6 H 0.731229 0.047152 0.282267
C21_6 C 0.8374(4) 0.6125(3) 0.5158(4)
H25_6 H 0.811213 0.599573 0.508919
N1_6 N 0.6144(4) 0.1899(3) 0.4295(5)
C22_6 C 0.7584(5) 0.5288(2) 0.5237(5)
H26_6 H 0.755938 0.549463 0.513031
O3_6 O 0.6108(4) 0.1659(2) 0.4080(5)
C23_6 C 0.7963(4) 0.6275(2) 0.2997(4)
H27_6 H 0.777241 0.639975 0.314395
H28_6 H 0.779423 0.618707 0.270832
H29_6 H 0.820085 0.639138 0.291513
C24_6 C 0.7454(5) 0.5020(2) 0.3958(4)
C26_6 C 0.8454(5) 0.5835(3) 0.3147(4)
H33_6 H 0.829823 0.575875 0.284206
H34_6 H 0.854579 0.567381 0.336664
H35_6 H 0.871195 0.594284 0.309781
C27_6 C 0.8752(5) 0.5947(3) 0.5458(5)
H36_6 H 0.867711 0.589709 0.576478
H37_6 H 0.902023 0.606356 0.551263
H38_6 H 0.879844 0.576993 0.528745
C28_6 C 0.7508(6) 0.0490(3) 0.3758(5)
H39_6 H 0.771242 0.046243 0.406030
H40_6 H 0.738176 0.030257 0.364321
H41_6 H 0.727424 0.062185 0.380481
C29_6 C 0.8239(6) 0.6401(3) 0.5387(5)
H42_6 H 0.816045 0.635269 0.569241
H43_6 H 0.798800 0.648826 0.517630
H44_6 H 0.848359 0.653781 0.543885
C31_6 C 0.9420(4) 0.1226(4) 0.4264(5)
H48_6 H 0.933959 0.109888 0.450745
H49_6 H 0.935034 0.142708 0.433069
H50_6 H 0.973338 0.120861 0.426903
H56_6 H 0.976970 0.025770 0.455683
C35_6 C 0.8055(6) 0.5234(4) 0.5485(6)
H60_6 H 0.825006 0.526429 0.525947
H61_6 H 0.808531 0.503477 0.560418
H62_6 H 0.813379 0.536905 0.575244
C36_6 C 0.7290(6) 0.5245(3) 0.5566(6)
H63_6 H 0.698862 0.527981 0.540142
H64_6 H 0.736519 0.537941 0.583322
H65_6 H 0.731672 0.504513 0.568496
C41_6 C 0.7503(7) 0.5158(4) 0.3480(6)
H76_6 H 0.753315 0.537344 0.349752
C42_6 C 0.7216(7) 0.5064(4) 0.3070(6)
H77_6 H 0.727949 0.516721 0.279254
H78_6 H 0.691453 0.510390 0.310178
H79_6 H 0.725302 0.485547 0.302929
C43_6 C 0.7899(8) 0.5006(4) 0.3334(7)
H80_6 H 0.816073 0.504070 0.357825
H81_6 H 0.794396 0.508456 0.302936
H82_6 H 0.784367 0.479763 0.330243
Cu1_6 Cu 0.85032(13) 0.53953(7) 0.43494(16)
Cl1_6 Cl 0.9084(5) 0.5298(4) 0.4652(6)
Zn2_6 Zn 0.66932(2) 0.28706(2) 0.41145(2)
O5_6 O 0.65680(16) 0.33735(9) 0.48821(14)
O7_6 O 0.57837(16) 0.28443(10) 0.32616(14)
O8_6 O 0.61845(12) 0.27877(8) 0.43814(12)
O9_6 O 0.65221(16) 0.29043(10) 0.34197(14)
O11_6 O 0.71451(15) 0.25836(10) 0.42062(17)
O14_6 O 0.69250(15) 0.32552(9) 0.43012(16)
O15_6 O 0.68911(17) 0.23479(12) 0.47643(16)
C44_6 C 0.6816(2) 0.34275(13) 0.4593(2)
C45_6 C 0.5766(2) 0.28353(16) 0.2288(2)
H83_6 H 0.549468 0.285558 0.238865
C48_6 C 0.7383(2) 0.21056(15) 0.4371(2)
C49_6 C 0.5870(3) 0.27941(19) 0.0784(2)
H85_6 H 0.567360 0.293984 0.084736
C50_6 C 0.6971(3) 0.37355(14) 0.4583(2)
C51_6 C 0.6158(2) 0.28694(14) 0.3142(2)
C52_6 C 0.7802(2) 0.16151(15) 0.4103(3)
C53_6 C 0.6817(3) 0.39455(14) 0.4849(3)
H86_6 H 0.662887 0.389560 0.505928
C55_6 C 0.7720(2) 0.21345(14) 0.4119(3)
H88_6 H 0.780703 0.232156 0.403440
C57_6 C 0.7468(2) 0.15896(16) 0.4354(3)
H89_6 H 0.737571 0.140265 0.443224
C58_6 C 0.7125(2) 0.23643(17) 0.4465(2)
C60_6 C 0.5772(2) 0.27909(16) 0.1816(2)
H90_6 H 0.550503 0.278180 0.159107
C62_6 C 0.7927(2) 0.18932(14) 0.3991(3)
H91_6 H 0.815920 0.191574 0.382406
C64_6 C 0.9964(3) 0.70929(18) 0.4227(3)
C65_6 C 0.8026(3) 0.13586(14) 0.3944(3)
C67_6 C 0.6787(3) 0.2152(2) 0.0507(2)
H93_6 H 0.662405 0.201994 0.025833
C68_6 C 0.6554(3) 0.28310(18) 0.2470(2)
H94_6 H 0.682155 0.284666 0.269250
C70_6 C 0.6472(3) 0.24766(19) 0.1064(2)
H96_6 H 0.668856 0.240606 0.131829
C72_6 C 0.7268(2) 0.18304(17) 0.4493(3)
H97_6 H 0.704678 0.180795 0.467566
C73_6 C 0.6158(2) 0.28508(16) 0.2625(2)
C74_6 C 0.6469(3) 0.2375(2) 0.0616(2)
C77_6 C 0.8471(3) 0.13623(16) 0.3952(3)
H100_6 H 0.863663 0.152758 0.407419
C79_6 C 0.6557(3) 0.27890(19) 0.1997(2)
H102_6 H 0.682817 0.278017 0.189367
C81_6 C 0.8798(4) 0.04158(19) 0.3679(3)
C82_6 C 0.8737(3) 0.63481(18) 0.3822(3)
H104_6 H 0.881619 0.640057 0.353000
C83_6 C 0.9283(3) 0.68762(18) 0.3873(3)
H105_6 H 0.903409 0.686957 0.362280
C84_6 C 0.7990(3) 0.08761(15) 0.3611(3)
C86_6 C 0.8682(3) 0.11293(18) 0.3784(3)
C87_6 C 0.7222(3) 0.43062(17) 0.4513(3)
C89_6 C 0.9594(3) 0.70818(19) 0.3862(3)
H108_6 H 0.956080 0.721704 0.360808
C90_6 C 0.7790(3) 0.11160(15) 0.3783(3)
H109_6 H 0.748717 0.110950 0.378855
C91_6 C 0.6150(3) 0.2494(2) 0.0252(2)
C93_6 C 0.5850(3) 0.2702(2) 0.0325(2)
C95_6 C 0.6169(3) 0.27591(18) 0.1664(2)
C97_6 C 0.7260(3) 0.38106(18) 0.4293(3)
H111_6 H 0.736696 0.366493 0.411093
C100_6 C 0.6176(3) 0.26764(19) 0.1165(2)
C102_6 C 0.7502(4) 0.5195(2) 0.4352(4)
C103_6 C 0.9692(3) 0.66824(19) 0.4585(3)
H114_6 H 0.972988 0.654038 0.482904
C106_6 C 0.7325(4) 0.46211(19) 0.4455(4)
C108_6 C 0.9320(3) 0.66782(18) 0.4238(3)
C110_6 C 0.7394(4) 0.40900(19) 0.4263(3)
H117_6 H 0.760234 0.413700 0.407423
C111_6 C 0.6941(3) 0.42303(16) 0.4805(3)
H118_6 H 0.682852 0.437645 0.498165
C113_6 C 0.8962(3) 0.64621(19) 0.4244(3)
C114_6 C 0.7370(4) 0.4726(2) 0.4017(4)
H120_6 H 0.734258 0.459847 0.375331
C115_6 C 0.7404(4) 0.47972(18) 0.4838(4)
H121_6 H 0.740044 0.471984 0.514448
C116_6 C 0.8389(3) 0.61535(19) 0.3824(4)
C117_6 C 0.7494(4) 0.50952(19) 0.4791(4)
C118_6 C 0.9175(3) 0.1142(2) 0.3796(3)
H122_6 H 0.926743 0.093972 0.374000
C119_6 C 0.8430(4) 0.08885(18) 0.3614(3)
C120_6 C 0.9264(4) 0.1316(3) 0.3393(5)
H123_6 H 0.908579 0.124442 0.309639
H124_6 H 0.957361 0.130105 0.337747
H125_6 H 0.919057 0.151953 0.343912
N2_6 N 0.8642(3) 0.06570(15) 0.3417(3)
C121_6 C 0.8886(4) 0.0374(2) 0.2922(4)
H126_6 H 0.895928 0.029163 0.264434
N3_6 N 0.8951(3) 0.02525(16) 0.3355(3)
Cu2_6 Cu 0.88618(7) 0.03617(4) 0.43206(6)
Cl2_6 Cl 0.90181(18) 0.03367(11) 0.50678(15)
N6_6 N 0.7583(3) 0.54985(16) 0.4293(3)
C123_6 C 0.7990(4) 0.5605(2) 0.4296(5)
N7_6 N 0.7927(3) 0.58949(16) 0.4259(3)
O17_4 O 0.62715(14) 0.24836(10) 0.53989(12)
O18_4 O 0.60746(13) 0.29429(9) 0.54769(13)
H127_6 H 0.848057 0.030961 0.360662
H129_6 H 0.793589 0.558685 0.391019
C2_6 C 0.5825(3) 0.2558(3) 0.8298(2)
C5_6 C 0.5511(4) 0.3161(3) 0.9950(4)
H7_6 H 0.580353 0.323630 0.994398
H9_6 H 0.530295 0.323810 0.967820
C8_6 C 0.5086(4) 0.2725(3) 0.9932(4)
H11_6 H 0.508689 0.251332 0.991498
H12_5 H 0.487870 0.280309 0.966045
C12_6 C 0.6491(3) 0.2268(2) 0.8361(3)
C20_6 C 0.6859(4) 0.2091(3) 0.8662(3)
H24_6 H 0.683828 0.210453 0.900486
C25_6 C 0.7297(4) 0.2206(4) 0.8595(5)
H30_6 H 0.733236 0.240641 0.871001
H31_6 H 0.731227 0.220075 0.825686
H32_6 H 0.753099 0.208618 0.877536
C30_6 C 0.6782(5) 0.1790(4) 0.8497(6)
H45_6 H 0.649523 0.172629 0.854764
H46_6 H 0.700906 0.166456 0.867565
H47_6 H 0.679034 0.177913 0.815715
C38_6 C 0.5444(3) 0.2650(3) 0.8511(3)
H69_6 H 0.551304 0.261812 0.886310
C39_6 C 0.5338(5) 0.2948(3) 0.8414(5)
H70_6 H 0.508943 0.300166 0.855767
H71_6 H 0.526287 0.297761 0.806904
H72_6 H 0.559043 0.306884 0.854767
C40_6 C 0.5023(4) 0.2470(4) 0.8282(5)
H73_6 H 0.507927 0.226337 0.834009
H74_5 H 0.495217 0.250640 0.793907
H75_5 H 0.477666 0.253005 0.842651
C46_6 C 0.6041(2) 0.28556(17) 0.6426(2)
H84_6 H 0.595396 0.303857 0.628783
C47_6 C 0.61687(19) 0.26890(15) 0.56276(19)
C54_6 C 0.6279(3) 0.23795(17) 0.6356(2)
H87_6 H 0.635700 0.222575 0.616873
C61_6 C 0.6160(2) 0.26403(16) 0.6145(2)
C66_6 C 0.5891(3) 0.2117(2) 0.9634(3)
H92_6 H 0.576198 0.198709 0.982317
C71_6 C 0.6166(3) 0.2500(2) 0.7618(2)
C76_6 C 0.6046(2) 0.28124(18) 0.6897(2)
H99_6 H 0.596283 0.296584 0.708147
C78_6 C 0.6491(3) 0.2329(2) 0.7898(2)
H101_6 H 0.671894 0.225242 0.775696
C80_6 C 0.5516(3) 0.2833(2) 0.9923(3)
H103_6 H 0.559539 0.277591 0.961398
C85_6 C 0.6290(3) 0.2334(2) 0.6825(2)
H106_6 H 0.638169 0.215104 0.696165
C94_6 C 0.6169(2) 0.2552(2) 0.7110(2)
C96_6 C 0.5903(3) 0.2095(3) 0.9168(3)
H110_6 H 0.577506 0.194317 0.896250
C98_6 C 0.5845(3) 0.2617(2) 0.7827(2)
H112_6 H 0.563316 0.274130 0.764558
C107_6 C 0.6150(3) 0.2387(2) 0.8558(2)
N4_6 N 0.6108(2) 0.23719(19) 0.97749(19)
C122_6 C 0.6253(3) 0.2500(2) 0.9411(2)
N5_6 N 0.6126(2) 0.2321(2) 0.9040(2)
Cu3_6 Cu 0.65545(5) 0.28590(4) 0.94437(4)
Cl3_6 Cl 0.68855(18) 0.32912(13) 0.9526(2)
H128_6 H 0.656202 0.238477 0.950548
H13_6 H 0.999936 0.778586 0.022849
H12_6 H 0.987870 0.780309 0.966045
H74_6 H 0.995217 0.750640 0.793907
H75_6 H 0.977666 0.753005 0.842651
H12_7 H 0.012130 0.780309 0.533955
H13_7 H 0.000064 0.778586 0.477151
H74_7 H 0.004783 0.750640 0.706093
H75_7 H 0.022334 0.753005 0.657349
C6_7 C 0.6716(3) 0.10932(19) 0.0748(4)
C7_7 C 0.6160(3) 0.13935(19) 0.0329(3)
H10_7 H 0.600807 0.147781 0.004141
C9_7 C 0.6504(4) 0.1202(2) 0.0318(4)
C11_7 C 0.6841(4) 0.1032(2) 0.1646(4)
H15_7 H 0.709112 0.091271 0.158307
C14_7 C 0.7497(4) 0.0962(2) 0.0773(5)
H17_7 H 0.761712 0.115196 0.080292
C15_7 C 0.7722(4) 0.0715(2) 0.0754(5)
H18_7 H 0.802703 0.069501 0.076980
C23_7 C 0.7037(4) 0.1275(2) 0.2003(4)
H27_7 H 0.722759 0.139975 0.185605
H28_7 H 0.720577 0.118707 0.229168
H29_7 H 0.679915 0.139138 0.208487
C24_7 C 0.7546(5) 0.0020(2) 0.1042(4)
C26_7 C 0.6546(5) 0.0835(3) 0.1853(4)
H33_7 H 0.670177 0.075875 0.215794
H34_7 H 0.645421 0.067381 0.163336
H35_7 H 0.628805 0.094284 0.190219
C41_7 C 0.7497(7) 0.0158(4) 0.1520(6)
H76_7 H 0.746685 0.037344 0.150248
C42_7 C 0.7784(7) 0.0064(4) 0.1930(6)
H77_7 H 0.772051 0.016721 0.220746
H78_7 H 0.808547 0.010390 0.189822
C43_7 C 0.7101(8) 0.0006(4) 0.1666(7)
H80_7 H 0.683927 0.004070 0.142175
H81_7 H 0.705604 0.008456 0.197064
Cu1_7 Cu 0.64968(13) 0.03953(7) 0.06506(16)
Cl1_7 Cl 0.5916(5) 0.0298(4) 0.0348(6)
O10_4 O 0.47362(15) 0.24809(10) 0.11269(16)
O16_4 O 0.44179(19) 0.23472(16) 0.04049(19)
C63_7 C 0.4698(3) 0.23197(19) 0.0772(3)
C64_7 C 0.5036(3) 0.20929(18) 0.0773(3)
C82_7 C 0.6263(3) 0.13481(18) 0.1178(3)
H104_7 H 0.618381 0.140057 0.147000
C83_7 C 0.5717(3) 0.18762(18) 0.1127(3)
H105_7 H 0.596591 0.186957 0.137720
C89_7 C 0.5406(3) 0.20818(19) 0.1138(3)
H108_7 H 0.543920 0.221704 0.139192
C102_7 C 0.7498(4) 0.0195(2) 0.0648(4)
C103_7 C 0.5308(3) 0.16824(19) 0.0415(3)
H114_7 H 0.527012 0.154038 0.017096
C105_7 C 0.4993(3) 0.18871(19) 0.0416(3)
H115_7 H 0.474138 0.188845 0.016850
C108_7 C 0.5680(3) 0.16782(18) 0.0762(3)
C113_7 C 0.6038(3) 0.14621(19) 0.0756(3)
C116_7 C 0.6611(3) 0.11535(19) 0.1176(4)
C117_7 C 0.7506(4) 0.00952(19) 0.0209(4)
N6_7 N 0.7417(3) 0.04985(16) 0.0707(3)
C123_7 C 0.7010(4) 0.0605(2) 0.0704(5)
N7_7 N 0.7073(3) 0.08949(16) 0.0741(3)
Zn5_2 Zn 0.43355(2) 0.28002(2) 0.11039(2)
Zn8_4 Zn 0.37585(2) 0.24002(2) 0.03001(2)
H129_7 H 0.706411 0.0586846 0.108981
Zn7_2 Zn 0.87585(2) 0.74002(2) 0.03001(2)
Zn9_2 Zn 0.88771(2) 0.80737(2) 0.01506(2)
O1_7 O 0.8803(3) 0.7157(2) 0.0991(3)
O2_7 O 0.8778(3) 0.69324(15) 0.0190(4)
C1_7 C 0.7848(3) 0.7296(3) 0.4701(3)
H1_7 H 0.764442 0.714735 0.476949
H2_7 H 0.769047 0.743466 0.447087
H3_7 H 0.797501 0.739763 0.499547
C2_7 C 0.9175(3) 0.7558(3) 0.6702(2)
C3_7 C 0.8003(3) 0.6963(2) 0.4064(3)
H4_7 H 0.780069 0.682474 0.416511
H5_7 H 0.823116 0.685807 0.394417
H6_7 H 0.784224 0.708746 0.381244
C4_6 C 0.5410(4) 0.4969(2) 0.1268(4)
C5_7 C 0.9489(4) 0.8161(3) 0.5050(4)
H7_7 H 0.919647 0.823630 0.505602
H8_7 H 0.957639 0.822087 0.475376
H9_7 H 0.969705 0.823810 0.532180
C8_7 C 0.9914(4) 0.7725(3) 0.5068(4)
H11_7 H 0.991311 0.751332 0.508502
C10_7 C 0.7265(4) 0.56104(19) 0.1585(4)
H14_7 H 0.704568 0.546237 0.163818
C12_7 C 0.8509(3) 0.7268(2) 0.6639(3)
C13_7 C 0.6302(4) 0.5632(2) 0.2045(3)
H16_7 H 0.638121 0.577060 0.229228
C16_6 C 0.5836(4) 0.49656(19) 0.1520(4)
C17_7 C 0.5159(5) 0.5237(3) 0.1137(6)
H19_7 H 0.535490 0.540655 0.123786
C18_6 C 0.6560(4) 0.4725(2) 0.1926(4)
H20_6 H 0.659979 0.491331 0.210070
C19_7 C 0.7561(4) 0.5657(2) 0.2055(4)
H21_7 H 0.739410 0.573957 0.227912
H22_7 H 0.779524 0.579080 0.201573
H23_7 H 0.768771 0.547152 0.217733
C20_7 C 0.8141(4) 0.7091(3) 0.6338(3)
H24_7 H 0.816172 0.710453 0.599514
N1_7 N 0.8856(4) 0.6899(3) 0.0705(5)
O3_7 O 0.8892(4) 0.6659(2) 0.0920(5)
C25_7 C 0.7703(4) 0.7206(4) 0.6405(5)
H30_7 H 0.766764 0.740641 0.628999
H31_7 H 0.768773 0.720075 0.674314
H32_7 H 0.746901 0.708618 0.622464
C28_7 C 0.7492(6) 0.5490(3) 0.1242(5)
H39_7 H 0.728758 0.546243 0.093970
H40_7 H 0.761824 0.530257 0.135679
H41_7 H 0.772576 0.562185 0.119519
C30_7 C 0.8218(5) 0.6790(4) 0.6503(6)
H45_7 H 0.850477 0.672629 0.645236
H46_7 H 0.799094 0.666456 0.632435
H47_7 H 0.820966 0.677913 0.684285
C31_7 C 0.5580(4) 0.6226(4) 0.0736(5)
H48_7 H 0.566041 0.609888 0.049255
H49_7 H 0.564966 0.642708 0.066931
H50_7 H 0.526662 0.620861 0.073097
C32_6 C 0.6653(4) 0.4494(3) 0.2295(5)
H51_6 H 0.644175 0.450678 0.250633
H52_6 H 0.694899 0.451931 0.248108
H53_6 H 0.662961 0.430357 0.214072
C33_7 C 0.4986(5) 0.5260(3) 0.0613(5)
H54_7 H 0.482285 0.544109 0.054386
H55_7 H 0.479267 0.509557 0.050828
H56_7 H 0.523030 0.525770 0.044317
C34_6 C 0.6848(4) 0.4736(3) 0.1579(6)
H57_6 H 0.675731 0.489501 0.135463
H58_6 H 0.683010 0.455248 0.140439
H59_6 H 0.714948 0.476822 0.174475
C37_7 C 0.4793(7) 0.5246(4) 0.1403(7)
H66_7 H 0.462206 0.542263 0.132058
H67_7 H 0.491208 0.524333 0.174553
H68_7 H 0.460505 0.507624 0.131784
C38_7 C 0.9556(3) 0.7650(3) 0.6489(3)
H69_7 H 0.948696 0.761812 0.613690
C39_7 C 0.9662(5) 0.7948(3) 0.6586(5)
H70_7 H 0.991057 0.800166 0.644233
H71_7 H 0.973713 0.797761 0.693096
H72_7 H 0.940957 0.806884 0.645233
C40_7 C 0.9977(4) 0.7470(4) 0.6718(5)
H73_7 H 0.992073 0.726337 0.665991
H79_7 H 0.774698 0.985547 0.197071
H82_7 H 0.715633 0.979763 0.169757
Zn1_4 Zn 0.93355(2) 0.78002(2) 0.11039(2)
Zn2_7 Zn 0.83068(2) 0.78706(2) 0.08855(2)
O4_3 O 0.87285(14) 0.74836(10) 0.96011(12)
O5_7 O 0.84320(16) 0.83735(9) 0.01179(14)
O6_3 O 0.89254(13) 0.79429(9) 0.95231(13)
O7_7 O 0.92163(16) 0.78443(10) 0.17384(14)
O8_7 O 0.88155(12) 0.77877(8) 0.06186(12)
O9_7 O 0.84779(16) 0.79043(10) 0.15803(14)
O11_7 O 0.78549(15) 0.75836(10) 0.07938(17)
O12_4 O 0.47072(14) 0.31385(10) 0.10527(16)
O13_4 O 0.43832(17) 0.33253(10) 0.03521(16)
O14_7 O 0.80750(15) 0.82552(9) 0.06988(16)
O15_7 O 0.81089(17) 0.73479(12) 0.02357(16)
C44_7 C 0.8184(2) 0.84275(13) 0.0407(2)
C45_7 C 0.9234(2) 0.78353(16) 0.2712(2)
H83_7 H 0.950532 0.785558 0.261135
C46_7 C 0.8959(2) 0.78556(17) 0.8574(2)
H84_7 H 0.904604 0.803857 0.871217
C47_7 C 0.88313(19) 0.76890(15) 0.93724(19)
C48_7 C 0.7617(2) 0.71056(15) 0.0629(2)
C49_7 C 0.9130(3) 0.77941(19) 0.4216(2)
H85_7 H 0.932640 0.793984 0.415264
C50_7 C 0.8029(3) 0.87355(14) 0.0417(2)
C51_7 C 0.8842(2) 0.78694(14) 0.1858(2)
C52_7 C 0.7198(2) 0.66151(15) 0.0897(3)
C53_7 C 0.8183(3) 0.89455(14) 0.0151(3)
C54_7 C 0.8721(3) 0.73795(17) 0.8644(2)
H87_7 H 0.864300 0.722575 0.883127
C55_7 C 0.7280(2) 0.71345(14) 0.0881(3)
H88_7 H 0.719297 0.732156 0.096560
C56_7 C 0.4642(2) 0.33387(15) 0.0748(2)
C57_7 C 0.7532(2) 0.65896(16) 0.0646(3)
H89_7 H 0.762429 0.640265 0.056776
C58_7 C 0.7875(2) 0.73643(17) 0.0535(2)
C59_7 C 0.4867(2) 0.36171(15) 0.0867(3)
C60_7 C 0.9228(2) 0.77909(16) 0.3184(2)
H90_7 H 0.949497 0.778180 0.340893
C61_7 C 0.8840(2) 0.76403(16) 0.8855(2)
C62_7 C 0.7073(2) 0.68932(14) 0.1009(3)
H91_7 H 0.684080 0.691574 0.117594
C65_7 C 0.6974(3) 0.63586(14) 0.1056(3)
C66_7 C 0.9109(3) 0.7117(2) 0.5366(3)
H92_7 H 0.923802 0.698709 0.517683
C67_7 C 0.8213(3) 0.7152(2) 0.4493(2)
H93_7 H 0.837595 0.701994 0.474167
C68_7 C 0.8446(3) 0.78310(18) 0.2530(2)
H94_7 H 0.817845 0.784666 0.230750
C69_6 C 0.5220(3) 0.36384(17) 0.1240(3)
H95_6 H 0.532999 0.347026 0.141335
C70_7 C 0.8528(3) 0.74766(19) 0.3936(2)
H96_7 H 0.831144 0.740606 0.368171
C71_7 C 0.8834(3) 0.7500(2) 0.7382(2)
C72_7 C 0.7732(2) 0.68304(17) 0.0507(3)
H97_7 H 0.795322 0.680795 0.032434
C73_7 C 0.8842(2) 0.78508(16) 0.2375(2)
C74_7 C 0.8531(3) 0.7375(2) 0.4384(2)
C75_7 C 0.4714(3) 0.38665(16) 0.0621(3)
H98_7 H 0.447451 0.385531 0.036099
C76_7 C 0.8954(2) 0.78124(18) 0.8103(2)
H99_7 H 0.903717 0.796584 0.791853
C77_7 C 0.6529(3) 0.63623(16) 0.1048(3)
H100_7 H 0.636337 0.652758 0.092581
C78_7 C 0.8509(3) 0.7329(2) 0.7102(2)
H101_7 H 0.828106 0.725242 0.724304
C79_7 C 0.8443(3) 0.77890(19) 0.3003(2)
H102_7 H 0.817183 0.778017 0.310633
C80_7 C 0.9484(3) 0.7833(2) 0.5077(3)
H103_7 H 0.940461 0.777591 0.538602
C81_7 C 0.6202(4) 0.54158(19) 0.1321(3)
C84_7 C 0.7010(3) 0.58761(15) 0.1389(3)
C85_7 C 0.8710(3) 0.7334(2) 0.8175(2)
H106_7 H 0.861831 0.715104 0.803835
C86_7 C 0.6318(3) 0.61293(18) 0.1216(3)
C87_7 C 0.7778(3) 0.93062(17) 0.0487(3)
C88_6 C 0.5412(3) 0.39043(17) 0.1359(3)
H107_6 H 0.565820 0.391275 0.161219
C90_7 C 0.7210(3) 0.61160(15) 0.1217(3)
H109_7 H 0.751283 0.610950 0.121145
C91_7 C 0.8850(3) 0.7494(2) 0.4748(2)
C92_6 C 0.5460(3) 0.44384(18) 0.1269(3)
C93_7 C 0.9150(3) 0.7702(2) 0.4675(2)
C94_7 C 0.8831(2) 0.7552(2) 0.7890(2)
C95_7 C 0.8831(3) 0.77591(18) 0.3336(2)
C96_7 C 0.9097(3) 0.7095(3) 0.5832(3)
H110_7 H 0.922494 0.694317 0.603750
C97_7 C 0.7740(3) 0.88106(18) 0.0707(3)
H111_7 H 0.763304 0.866493 0.088907
C98_7 C 0.9155(3) 0.7617(2) 0.7173(2)
H112_7 H 0.936684 0.774130 0.735442
C99_6 C 0.5892(3) 0.44569(18) 0.1520(3)
H113_6 H 0.605421 0.428400 0.160174
C100_7 C 0.8824(3) 0.76764(19) 0.3835(2)
C101_6 C 0.6088(3) 0.4722(2) 0.1652(3)
C104_6 C 0.5265(3) 0.41589(16) 0.1128(3)
C106_7 C 0.7675(4) 0.96211(19) 0.0545(4)
C107_7 C 0.8850(3) 0.7387(2) 0.6442(2)
C109_7 C 0.4910(3) 0.41353(18) 0.0752(3)
H116_7 H 0.479951 0.430410 0.058025
C110_7 C 0.7606(4) 0.90900(19) 0.0737(3)
H117_7 H 0.739766 0.913700 0.092577
C111_7 C 0.8059(3) 0.92303(16) 0.0195(3)
H118_7 H 0.817148 0.937645 0.001835
C112_6 C 0.5222(4) 0.46985(19) 0.1146(4)
H119_7 H 0.492885 0.468817 0.097721
C114_7 C 0.7630(4) 0.9726(2) 0.0983(4)
H120_7 H 0.765742 0.959847 0.124669
C115_7 C 0.7596(4) 0.97972(18) 0.0162(4)
C118_7 C 0.5825(3) 0.6142(2) 0.1204(3)
H122_7 H 0.573257 0.593972 0.126000
C119_7 C 0.6570(4) 0.58885(18) 0.1386(3)
C120_7 C 0.5736(4) 0.6316(3) 0.1607(5)
H123_7 H 0.591421 0.624442 0.190361
H124_7 H 0.542639 0.630105 0.162253
H125_7 H 0.580943 0.651953 0.156088
N2_7 N 0.6358(3) 0.56570(15) 0.1583(3)
C121_7 C 0.6114(4) 0.5374(2) 0.2078(4)
H126_7 H 0.604072 0.529163 0.235566
N3_7 N 0.6049(3) 0.52525(16) 0.1645(3)
Cu2_7 Cu 0.61382(7) 0.53617(4) 0.06794(6)
N4_7 N 0.8892(2) 0.73719(19) 0.52251(19)
C122_7 C 0.8747(3) 0.7500(2) 0.5589(2)
N5_7 N 0.8874(2) 0.7321(2) 0.5960(2)
Cu3_7 Cu 0.84455(5) 0.78590(4) 0.55563(4)
Cl3_7 Cl 0.81145(18) 0.82912(13) 0.5474(2)
Zn10_4 Zn 0.38771(2) 0.30737(2) 0.01506(2)
O19_4 O 0.97362(15) 0.74809(10) 0.11269(16)
O20_4 O 0.97072(14) 0.81385(10) 0.10527(16)
O21_4 O 0.93832(17) 0.83253(10) 0.03521(16)
O22_4 O 0.94179(19) 0.73472(16) 0.04049(19)
H127_7 H 0.651943 0.530961 0.139338
H128_7 H 0.843798 0.738477 0.549452
H86_7 H 0.837113 0.889560 0.994072
H121_7 H 0.759956 0.971984 0.985552
Cl2_7 Cl 0.59819(18) 0.53367(11) 0.99322(15)
O1_8 O 0.3803(3) 0.2157(2) 0.0991(3)
O2_8 O 0.3778(3) 0.19324(15) 0.0190(4)
C1_8 C 0.2848(3) 0.2296(3) 0.4701(3)
H1_8 H 0.264442 0.214735 0.476949
H2_8 H 0.269047 0.243466 0.447087
H3_8 H 0.297501 0.239763 0.499547
C2_8 C 0.4175(3) 0.2558(3) 0.6702(2)
C3_8 C 0.3003(3) 0.1963(2) 0.4064(3)
H4_8 H 0.280069 0.182474 0.416511
H5_8 H 0.323116 0.185807 0.394417
H6_8 H 0.284224 0.208746 0.381244
C5_8 C 0.4489(4) 0.3161(3) 0.5050(4)
H7_8 H 0.419647 0.323630 0.505602
H8_8 H 0.457639 0.322087 0.475376
H9_8 H 0.469705 0.323810 0.532180
C6_8 C 0.1716(3) 0.60932(19) 0.0748(4)
C7_8 C 0.1160(3) 0.63935(19) 0.0329(3)
H10_8 H 0.100807 0.647781 0.004141
C8_8 C 0.4914(4) 0.2725(3) 0.5068(4)
H11_8 H 0.491311 0.251332 0.508502
H12_8 H 0.512130 0.280309 0.533955
H13_8 H 0.500064 0.278586 0.477151
C9_8 C 0.1504(4) 0.6202(2) 0.0318(4)
C10_8 C 0.2265(4) 0.06104(19) 0.1585(4)
H14_8 H 0.204568 0.046237 0.163818
C11_8 C 0.1841(4) 0.6032(2) 0.1646(4)
H15_8 H 0.209112 0.591271 0.158307
C12_8 C 0.3509(3) 0.2268(2) 0.6639(3)
C13_8 C 0.1302(4) 0.0632(2) 0.2045(3)
H16_8 H 0.138121 0.077060 0.229228
C14_8 C 0.2497(4) 0.5962(2) 0.0773(5)
H17_8 H 0.261712 0.615196 0.080292
C15_8 C 0.2722(4) 0.5715(2) 0.0754(5)
H18_8 H 0.302703 0.569501 0.076980
C17_8 C 0.0159(5) 0.0237(3) 0.1137(6)
H19_8 H 0.035490 0.040655 0.123786
C19_8 C 0.2561(4) 0.0657(2) 0.2055(4)
H21_8 H 0.239410 0.073957 0.227912
H22_8 H 0.279524 0.079080 0.201573
H23_8 H 0.268771 0.047152 0.217733
C20_8 C 0.3141(4) 0.2091(3) 0.6338(3)
H24_8 H 0.316172 0.210453 0.599514
N1_8 N 0.3856(4) 0.1899(3) 0.0705(5)
O3_8 O 0.3892(4) 0.1659(2) 0.0920(5)
C23_8 C 0.2037(4) 0.6275(2) 0.2003(4)
H27_8 H 0.222759 0.639975 0.185605
H28_8 H 0.220577 0.618707 0.229168
H29_8 H 0.179915 0.639138 0.208487
C24_8 C 0.2546(5) 0.5020(2) 0.1042(4)
C25_8 C 0.2703(4) 0.2206(4) 0.6405(5)
H30_8 H 0.266764 0.240641 0.628999
H31_8 H 0.268773 0.220075 0.674314
H32_8 H 0.246901 0.208618 0.622464
C26_8 C 0.1546(5) 0.5835(3) 0.1853(4)
H33_8 H 0.170177 0.575875 0.215794
H34_8 H 0.145421 0.567381 0.163336
H35_8 H 0.128805 0.594284 0.190219
C28_8 C 0.2492(6) 0.0490(3) 0.1242(5)
H39_8 H 0.228758 0.046243 0.093970
H40_8 H 0.261824 0.030257 0.135679
H41_8 H 0.272576 0.062185 0.119519
C30_8 C 0.3218(5) 0.1790(4) 0.6503(6)
H45_8 H 0.350477 0.172629 0.645236
H46_8 H 0.299094 0.166456 0.632435
H47_8 H 0.320966 0.177913 0.684285
C31_8 C 0.0580(4) 0.1226(4) 0.0736(5)
H48_8 H 0.066041 0.109888 0.049255
H49_8 H 0.064966 0.142708 0.066931
H50_8 H 0.026662 0.120861 0.073097
H56_8 H 0.023030 0.025770 0.044317
C38_8 C 0.4556(3) 0.2650(3) 0.6489(3)
H69_8 H 0.448696 0.261812 0.613690
C39_8 C 0.4662(5) 0.2948(3) 0.6586(5)
H70_8 H 0.491057 0.300166 0.644233
H71_8 H 0.473713 0.297761 0.693096
H72_8 H 0.440957 0.306884 0.645233
C40_8 C 0.4977(4) 0.2470(4) 0.6718(5)
H73_8 H 0.492073 0.226337 0.665991
H74_8 H 0.504783 0.250640 0.706093
H75_8 H 0.522334 0.253005 0.657349
C41_8 C 0.2497(7) 0.5158(4) 0.1520(6)
H76_8 H 0.246685 0.537344 0.150248
C42_8 C 0.2784(7) 0.5064(4) 0.1930(6)
H77_8 H 0.272051 0.516721 0.220746
H78_8 H 0.308547 0.510390 0.189822
H79_8 H 0.274698 0.485547 0.197071
C43_8 C 0.2101(8) 0.5006(4) 0.1666(7)
H80_8 H 0.183927 0.504070 0.142175
H81_8 H 0.205604 0.508456 0.197064
H82_8 H 0.215633 0.479763 0.169757
Cu1_8 Cu 0.14968(13) 0.53953(7) 0.06506(16)
Cl1_8 Cl 0.0916(5) 0.5298(4) 0.0348(6)
Zn2_8 Zn 0.33068(2) 0.28706(2) 0.08855(2)
O4_4 O 0.37285(14) 0.24836(10) 0.96011(12)
O5_8 O 0.34320(16) 0.33735(9) 0.01179(14)
O6_4 O 0.39254(13) 0.29429(9) 0.95231(13)
O7_8 O 0.42163(16) 0.28443(10) 0.17384(14)
O8_8 O 0.38155(12) 0.27877(8) 0.06186(12)
O9_8 O 0.34779(16) 0.29043(10) 0.15803(14)
O11_8 O 0.28549(15) 0.25836(10) 0.07938(17)
O14_8 O 0.30750(15) 0.32552(9) 0.06988(16)
O15_8 O 0.31089(17) 0.23479(12) 0.02357(16)
C44_8 C 0.3184(2) 0.34275(13) 0.0407(2)
C45_8 C 0.4234(2) 0.28353(16) 0.2712(2)
H83_8 H 0.450532 0.285558 0.261135
C46_8 C 0.3959(2) 0.28556(17) 0.8574(2)
H84_8 H 0.404604 0.303857 0.871217
C47_8 C 0.38313(19) 0.26890(15) 0.93724(19)
C48_8 C 0.2617(2) 0.21056(15) 0.0629(2)
C49_8 C 0.4130(3) 0.27941(19) 0.4216(2)
H85_8 H 0.432640 0.293984 0.415264
C50_8 C 0.3029(3) 0.37355(14) 0.0417(2)
C51_8 C 0.3842(2) 0.28694(14) 0.1858(2)
C52_8 C 0.2198(2) 0.16151(15) 0.0897(3)
C53_8 C 0.3183(3) 0.39455(14) 0.0151(3)
C54_8 C 0.3721(3) 0.23795(17) 0.8644(2)
H87_8 H 0.364300 0.222575 0.883127
C55_8 C 0.2280(2) 0.21345(14) 0.0881(3)
H88_8 H 0.219297 0.232156 0.096560
C57_8 C 0.2532(2) 0.15896(16) 0.0646(3)
H89_8 H 0.262429 0.140265 0.056776
C58_8 C 0.2875(2) 0.23643(17) 0.0535(2)
C60_8 C 0.4228(2) 0.27909(16) 0.3184(2)
H90_8 H 0.449497 0.278180 0.340893
C61_8 C 0.3840(2) 0.26403(16) 0.8855(2)
C62_8 C 0.2073(2) 0.18932(14) 0.1009(3)
H91_8 H 0.184080 0.191574 0.117594
C64_8 C 0.0036(3) 0.70929(18) 0.0773(3)
C65_8 C 0.1974(3) 0.13586(14) 0.1056(3)
C66_8 C 0.4109(3) 0.2117(2) 0.5366(3)
H92_8 H 0.423802 0.198709 0.517683
C67_8 C 0.3213(3) 0.2152(2) 0.4493(2)
H93_8 H 0.337595 0.201994 0.474167
C68_8 C 0.3446(3) 0.28310(18) 0.2530(2)
H94_8 H 0.317845 0.284666 0.230750
C70_8 C 0.3528(3) 0.24766(19) 0.3936(2)
H96_8 H 0.331144 0.240606 0.368171
C71_8 C 0.3834(3) 0.2500(2) 0.7382(2)
C72_8 C 0.2732(2) 0.18304(17) 0.0507(3)
H97_8 H 0.295322 0.180795 0.032434
C73_8 C 0.3842(2) 0.28508(16) 0.2375(2)
C74_8 C 0.3531(3) 0.2375(2) 0.4384(2)
C76_8 C 0.3954(2) 0.28124(18) 0.8103(2)
H99_8 H 0.403717 0.296584 0.791853
C77_8 C 0.1529(3) 0.13623(16) 0.1048(3)
H100_8 H 0.136337 0.152758 0.092581
C78_8 C 0.3509(3) 0.2329(2) 0.7102(2)
H101_8 H 0.328106 0.225242 0.724304
C79_8 C 0.3443(3) 0.27890(19) 0.3003(2)
H102_8 H 0.317183 0.278017 0.310633
C80_8 C 0.4484(3) 0.2833(2) 0.5077(3)
H103_8 H 0.440461 0.277591 0.538602
C81_8 C 0.1202(4) 0.04158(19) 0.1321(3)
C82_8 C 0.1263(3) 0.63481(18) 0.1178(3)
H104_8 H 0.118381 0.640057 0.147000
C83_8 C 0.0717(3) 0.68762(18) 0.1127(3)
H105_8 H 0.096591 0.686957 0.137720
C84_8 C 0.2010(3) 0.08761(15) 0.1389(3)
C85_8 C 0.3710(3) 0.2334(2) 0.8175(2)
H106_8 H 0.361831 0.215104 0.803835
C86_8 C 0.1318(3) 0.11293(18) 0.1216(3)
C87_8 C 0.2778(3) 0.43062(17) 0.0487(3)
C89_8 C 0.0406(3) 0.70818(19) 0.1138(3)
H108_8 H 0.043920 0.721704 0.139192
C90_8 C 0.2210(3) 0.11160(15) 0.1217(3)
H109_8 H 0.251283 0.110950 0.121145
C91_8 C 0.3850(3) 0.2494(2) 0.4748(2)
C93_8 C 0.4150(3) 0.2702(2) 0.4675(2)
C94_8 C 0.3831(2) 0.2552(2) 0.7890(2)
C95_8 C 0.3831(3) 0.27591(18) 0.3336(2)
C96_8 C 0.4097(3) 0.2095(3) 0.5832(3)
H110_8 H 0.422494 0.194317 0.603750
C97_8 C 0.2740(3) 0.38106(18) 0.0707(3)
H111_8 H 0.263304 0.366493 0.088907
C98_8 C 0.4155(3) 0.2617(2) 0.7173(2)
H112_8 H 0.436684 0.274130 0.735442
C100_8 C 0.3824(3) 0.26764(19) 0.3835(2)
C102_8 C 0.2498(4) 0.5195(2) 0.0648(4)
C103_8 C 0.0308(3) 0.66824(19) 0.0415(3)
H114_8 H 0.027012 0.654038 0.017096
C106_8 C 0.2675(4) 0.46211(19) 0.0545(4)
C107_8 C 0.3850(3) 0.2387(2) 0.6442(2)
C108_8 C 0.0680(3) 0.66782(18) 0.0762(3)
C110_8 C 0.2606(4) 0.40900(19) 0.0737(3)
H117_8 H 0.239766 0.413700 0.092577
C111_8 C 0.3059(3) 0.42303(16) 0.0195(3)
H118_8 H 0.317148 0.437645 0.001835
C113_8 C 0.1038(3) 0.64621(19) 0.0756(3)
C114_8 C 0.2630(4) 0.4726(2) 0.0983(4)
H120_8 H 0.265742 0.459847 0.124669
C115_8 C 0.2596(4) 0.47972(18) 0.0162(4)
C116_8 C 0.1611(3) 0.61535(19) 0.1176(4)
C117_8 C 0.2506(4) 0.50952(19) 0.0209(4)
C118_8 C 0.0825(3) 0.1142(2) 0.1204(3)
H122_8 H 0.073257 0.093972 0.126000
C119_8 C 0.1570(4) 0.08885(18) 0.1386(3)
C120_8 C 0.0736(4) 0.1316(3) 0.1607(5)
H123_8 H 0.091421 0.124442 0.190361
H124_8 H 0.042639 0.130105 0.162253
H125_8 H 0.080943 0.151953 0.156088
N2_8 N 0.1358(3) 0.06570(15) 0.1583(3)
C121_8 C 0.1114(4) 0.0374(2) 0.2078(4)
H126_8 H 0.104072 0.029163 0.235566
N3_8 N 0.1049(3) 0.02525(16) 0.1645(3)
Cu2_8 Cu 0.11382(7) 0.03617(4) 0.06794(6)
N4_8 N 0.3892(2) 0.23719(19) 0.52251(19)
C122_8 C 0.3747(3) 0.2500(2) 0.5589(2)
N5_8 N 0.3874(2) 0.2321(2) 0.5960(2)
Cu3_8 Cu 0.34455(5) 0.28590(4) 0.55563(4)
Cl3_8 Cl 0.31145(18) 0.32912(13) 0.5474(2)
N6_8 N 0.2417(3) 0.54985(16) 0.0707(3)
C123_8 C 0.2010(4) 0.5605(2) 0.0704(5)
N7_8 N 0.2073(3) 0.58949(16) 0.0741(3)
H127_8 H 0.151943 0.030961 0.139338
H128_8 H 0.343798 0.238477 0.549452
H129_8 H 0.206411 0.558685 0.108981
C21_7 C 0.1626(4) 0.6125(3) 0.9842(4)
H25_7 H 0.188787 0.599573 0.991081
C22_7 C 0.2416(5) 0.5288(2) 0.9763(5)
H26_7 H 0.244062 0.549463 0.986969
C27_7 C 0.1248(5) 0.5947(3) 0.9542(5)
H36_7 H 0.132289 0.589709 0.923522
H37_7 H 0.097977 0.606356 0.948737
H38_7 H 0.120156 0.576993 0.971255
C29_7 C 0.1761(6) 0.6401(3) 0.9613(5)
H42_7 H 0.183955 0.635269 0.930759
H43_7 H 0.201200 0.648826 0.982370
H44_7 H 0.151641 0.653781 0.956115
C35_7 C 0.1945(6) 0.5234(4) 0.9515(6)
H60_7 H 0.174994 0.526429 0.974053
H61_7 H 0.191469 0.503477 0.939582
H62_7 H 0.186621 0.536905 0.924756
C36_7 C 0.2710(6) 0.5245(3) 0.9434(6)
H63_7 H 0.301138 0.527981 0.959858
H64_7 H 0.263481 0.537941 0.916678
H65_7 H 0.268328 0.504513 0.931504
H86_8 H 0.337113 0.389560 0.994072
H121_8 H 0.259956 0.471984 0.985552
Cl2_8 Cl 0.09819(18) 0.03367(11) 0.99322(15)
C33_8 C 0.9986(5) 0.0260(3) 0.0613(5)
H54_8 H 0.982285 0.044109 0.054386
H55_8 H 0.979267 0.009557 0.050828
C37_8 C 0.9793(7) 0.0246(4) 0.1403(7)
H66_8 H 0.962206 0.042263 0.132058
H67_8 H 0.991208 0.024333 0.174553
H68_8 H 0.960505 0.007624 0.131784
C63_8 C 0.9698(3) 0.73197(19) 0.0772(3)
C105_8 C 0.9993(3) 0.68871(19) 0.0416(3)
H115_8 H 0.974138 0.688845 0.016850
C56_8 C 0.9642(2) 0.83387(15) 0.0748(2)
C59_8 C 0.9867(2) 0.86171(15) 0.0867(3)
C75_8 C 0.9714(3) 0.88665(16) 0.0621(3)
H98_8 H 0.947451 0.885531 0.036099
C109_8 C 0.9910(3) 0.91353(18) 0.0752(3)
H116_8 H 0.979951 0.930410 0.058025
H119_8 H 0.992885 0.968817 0.097721
C21_8 C 0.6626(4) 0.1125(3) 0.9842(4)
H25_8 H 0.688787 0.099573 0.991081
C22_8 C 0.7416(5) 0.0288(2) 0.9763(5)
H26_8 H 0.744062 0.049463 0.986969
C27_8 C 0.6248(5) 0.0947(3) 0.9542(5)
H36_8 H 0.632289 0.089709 0.923522
H37_8 H 0.597977 0.106356 0.948737
H38_8 H 0.620156 0.076993 0.971255
C29_8 C 0.6761(6) 0.1401(3) 0.9613(5)
H42_8 H 0.683955 0.135269 0.930759
H43_8 H 0.701200 0.148826 0.982370
H44_8 H 0.651641 0.153781 0.956115
C35_8 C 0.6945(6) 0.0234(4) 0.9515(6)
H60_8 H 0.674994 0.026429 0.974053
H61_8 H 0.691469 0.003477 0.939582
H62_8 H 0.686621 0.036905 0.924756
C36_8 C 0.7710(6) 0.0245(3) 0.9434(6)
H63_8 H 0.801138 0.027981 0.959858
H64_8 H 0.763481 0.037941 0.916678
H65_8 H 0.768328 0.004513 0.931504
C4_7 C 0.9590(4) 0.9969(2) 0.3732(4)
C16_7 C 0.9164(4) 0.99656(19) 0.3480(4)
C18_7 C 0.8440(4) 0.9725(2) 0.3074(4)
H20_7 H 0.840021 0.991331 0.289930
C32_7 C 0.8347(4) 0.9494(3) 0.2705(5)
H51_7 H 0.855825 0.950678 0.249367
H52_7 H 0.805101 0.951931 0.251892
H53_7 H 0.837039 0.930357 0.285928
C34_7 C 0.8152(4) 0.9736(3) 0.3421(6)
H57_7 H 0.824269 0.989501 0.364537
H58_7 H 0.816990 0.955248 0.359561
H59_7 H 0.785052 0.976822 0.325525
C69_7 C 0.9780(3) 0.86384(17) 0.3760(3)
H95_7 H 0.967001 0.847026 0.358665
C88_7 C 0.9588(3) 0.89043(17) 0.3641(3)
H107_7 H 0.934180 0.891275 0.338781
C92_7 C 0.9540(3) 0.94384(18) 0.3731(3)
C99_7 C 0.9108(3) 0.94569(18) 0.3480(3)
H113_7 H 0.894579 0.928400 0.339826
C101_7 C 0.8912(3) 0.9722(2) 0.3348(3)
C104_7 C 0.9735(3) 0.91589(16) 0.3872(3)
C112_7 C 0.9778(4) 0.96985(19) 0.3854(4)
C4_8 C 0.0410(4) 0.9969(2) 0.1268(4)
C16_8 C 0.0836(4) 0.99656(19) 0.1520(4)
C18_8 C 0.1560(4) 0.9725(2) 0.1926(4)
H20_8 H 0.159979 0.991331 0.210070
C32_8 C 0.1653(4) 0.9494(3) 0.2295(5)
H51_8 H 0.144175 0.950678 0.250633
H52_8 H 0.194899 0.951931 0.248108
H53_8 H 0.162961 0.930357 0.214072
C34_8 C 0.1848(4) 0.9736(3) 0.1579(6)
H57_8 H 0.175731 0.989501 0.135463
H58_8 H 0.183010 0.955248 0.140439
H59_8 H 0.214948 0.976822 0.174475
C69_8 C 0.0220(3) 0.86384(17) 0.1240(3)
H95_8 H 0.032999 0.847026 0.141335
C88_8 C 0.0412(3) 0.89043(17) 0.1359(3)
H107_8 H 0.065820 0.891275 0.161219
C92_8 C 0.0460(3) 0.94384(18) 0.1269(3)
C99_8 C 0.0892(3) 0.94569(18) 0.1520(3)
H113_8 H 0.105421 0.928400 0.160174
C101_8 C 0.1088(3) 0.9722(2) 0.1652(3)
C104_8 C 0.0265(3) 0.91589(16) 0.1128(3)
C112_8 C 0.0222(4) 0.96985(19) 0.1146(4)
loop_
_geom_bond_atom_site_label_1
_geom_bond_atom_site_label_2
_geom_bond_site_symmetry_1
_geom_bond_site_symmetry_2
C2 C38 1_555 1_555
C5 H7 1_555 1_555
H9 C5 1_555 1_555
C8 H11 1_555 1_555
C12 C20 1_555 1_555
C20 H24 1_555 1_555
C25 C20 1_555 1_555
H30 C25 1_555 1_555
H31 C25 1_555 1_555
H32 C25 1_555 1_555
C30 C20 1_555 1_555
H45 C30 1_555 1_555
H46 C30 1_555 1_555
H47 C30 1_555 1_555
C38 H69 1_555 1_555
C39 C38 1_555 1_555
H70 C39 1_555 1_555
H71 C39 1_555 1_555
H72 C39 1_555 1_555
C40 C38 1_555 1_555
H73 C40 1_555 1_555
O4 C47 1_555 1_555
O6 C47 1_555 1_555
C46 H84 1_555 1_555
C47 C61 1_555 1_555
C54 H87 1_555 1_555
C61 C46 1_555 1_555
C66 H92 1_555 1_555
C71 C78 1_555 1_555
C76 C46 1_555 1_555
H99 C76 1_555 1_555
C78 C12 1_555 1_555
H101 C78 1_555 1_555
C80 C5 1_555 1_555
H103 C80 1_555 1_555
C85 C54 1_555 1_555
H106 C85 1_555 1_555
C94 C71 1_555 1_555
C96 C66 1_555 1_555
H110 C96 1_555 1_555
C98 C2 1_555 1_555
H112 C98 1_555 1_555
C107 C2 1_555 1_555
N4 C66 1_555 1_555
C122 N4 1_555 1_555
N5 C96 1_555 1_555
Cu3 C122 1_555 1_555
Cl3 Cu3 1_555 1_555
Zn7 O4 1_555 1_555
Zn9 O6 1_555 1_555
C8 C80 1_555 1_555
C12 C107 1_555 1_555
C54 C61 1_555 1_555
C71 C98 1_555 1_555
C76 C94 1_555 1_555
C85 C94 1_555 1_555
C107 N5 1_555 1_555
C122 N5 1_555 1_555
C122 H128 1_555 1_555
O1 N1 1_555 1_555
O2 N1 1_555 1_555
C1 H1 1_555 1_555
H2 C1 1_555 1_555
H3 C1 1_555 1_555
C3 H4 1_555 1_555
H5 C3 1_555 1_555
H6 C3 1_555 1_555
C4 C16 1_555 1_555
C10 H14 1_555 1_555
C13 H16 1_555 1_555
C16 C101 1_555 1_555
C17 C4 1_555 1_555
H19 C17 1_555 1_555
C18 H20 1_555 1_555
C19 C10 1_555 1_555
H21 C19 1_555 1_555
H22 C19 1_555 1_555
H23 C19 1_555 1_555
N1 O3 1_555 1_555
C28 C10 1_555 1_555
H39 C28 1_555 1_555
H40 C28 1_555 1_555
H41 C28 1_555 1_555
C31 H48 1_555 1_555
H49 C31 1_555 1_555
H50 C31 1_555 1_555
C32 C18 1_555 1_555
H51 C32 1_555 1_555
H52 C32 1_555 1_555
H53 C32 1_555 1_555
C33 C17 1_555 1_555
H54 C33 1_555 1_555
H55 C33 1_555 1_555
H56 C33 1_555 1_555
C34 C18 1_555 1_555
H57 C34 1_555 1_555
H58 C34 1_555 1_555
H59 C34 1_555 1_555
C37 C17 1_555 1_555
H66 C37 1_555 1_555
H67 C37 1_555 1_555
H68 C37 1_555 1_555
Zn1 O7 1_555 1_555
Zn2 O8 1_555 1_555
Zn7 O1 1_555 1_555
Zn9 O5 1_555 1_555
O5 C44 1_555 1_555
O7 C51 1_555 1_555
O8 Zn1 1_555 1_555
O9 Zn2 1_555 1_555
O11 Zn2 1_555 1_555
O12 C56 1_555 1_555
O13 C56 1_555 1_555
O14 Zn2 1_555 1_555
O15 Zn7 1_555 1_555
C44 O14 1_555 1_555
C45 H83 1_555 1_555
C48 C55 1_555 1_555
C49 H85 1_555 1_555
C50 C44 1_555 1_555
C51 O9 1_555 1_555
C52 C57 1_555 1_555
C53 C50 1_555 1_555
H86 C53 1_555 1_555
C55 H88 1_555 1_555
C56 C59 1_555 1_555
C57 H89 1_555 1_555
C58 O11 1_555 1_555
C59 C69 1_555 1_555
C60 C45 1_555 1_555
H90 C60 1_555 1_555
C62 C52 1_555 1_555
H91 C62 1_555 1_555
C65 C52 1_555 1_555
C67 C1 1_555 1_555
H93 C67 1_555 1_555
C68 H94 1_555 1_555
C69 H95 1_555 1_555
C70 H96 1_555 1_555
C72 C48 1_555 1_555
H97 C72 1_555 1_555
C73 C45 1_555 1_555
C74 C67 1_555 1_555
C75 C59 1_555 1_555
H98 C75 1_555 1_555
C77 C65 1_555 1_555
H100 C77 1_555 1_555
C79 C68 1_555 1_555
H102 C79 1_555 1_555
C81 N2 1_555 1_555
C84 C10 1_555 1_555
C86 C77 1_555 1_555
C87 C106 1_555 1_555
C88 C69 1_555 1_555
H107 C88 1_555 1_555
C90 C65 1_555 1_555
H109 C90 1_555 1_555
C91 C74 1_555 1_555
C92 C99 1_555 1_555
C93 C49 1_555 1_555
C95 C60 1_555 1_555
C97 C50 1_555 1_555
H111 C97 1_555 1_555
C99 H113 1_555 1_555
C100 C49 1_555 1_555
C101 C18 1_555 1_555
C104 C88 1_555 1_555
C106 C114 1_555 1_555
C109 C75 1_555 1_555
H116 C109 1_555 1_555
C110 C87 1_555 1_555
H117 C110 1_555 1_555
C111 C53 1_555 1_555
H118 C111 1_555 1_555
C112 C4 1_555 1_555
H119 C112 1_555 1_555
H120 C114 1_555 1_555
C115 C106 1_555 1_555
H121 C115 1_555 1_555
C118 C31 1_555 1_555
H122 C118 1_555 1_555
C119 C84 1_555 1_555
C120 C118 1_555 1_555
H123 C120 1_555 1_555
H124 C120 1_555 1_555
H125 C120 1_555 1_555
N2 C13 1_555 1_555
C121 C13 1_555 1_555
H126 C121 1_555 1_555
N3 C16 1_555 1_555
Cu2 C81 1_555 1_555
Cl2 Cu2 1_555 1_555
Zn6 O12 1_555 1_555
Zn10 O13 1_555 1_555
O19 Zn1 1_555 1_555
O20 Zn1 1_555 1_555
O21 Zn9 1_555 1_555
O22 Zn7 1_555 1_555
O2 Zn7 1_555 1_555
C3 C67 1_555 1_555
Zn7 O8 1_555 1_555
Zn9 O8 1_555 1_555
O15 C58 1_555 1_555
C48 C58 1_555 1_555
C51 C73 1_555 1_555
C55 C62 1_555 1_555
C57 C72 1_555 1_555
C68 C73 1_555 1_555
C70 C74 1_555 1_555
C70 C100 1_555 1_555
C79 C95 1_555 1_555
C81 N3 1_555 1_555
C84 C90 1_555 1_555
C86 C118 1_555 1_555
C86 C119 1_555 1_555
C87 C111 1_555 1_555
C91 C93 1_555 1_555
C92 C104 1_555 1_555
C92 C112 1_555 1_555
C95 C100 1_555 1_555
C97 C110 1_555 1_555
C99 C101 1_555 1_555
C104 C109 1_555 1_555
C119 N2 1_555 1_555
C121 N3 1_555 1_555
C81 H127 1_555 1_555
C6 C9 1_555 1_555
C7 H10 1_555 1_555
C9 C7 1_555 1_555
C11 H15 1_555 1_555
C14 H17 1_555 1_555
C15 C14 1_555 1_555
H18 C15 1_555 1_555
C21 C9 1_555 1_555
H25 C21 1_555 1_555
C22 H26 1_555 1_555
C23 C11 1_555 1_555
H27 C23 1_555 1_555
H28 C23 1_555 1_555
H29 C23 1_555 1_555
C24 C41 1_555 1_555
C26 C11 1_555 1_555
H33 C26 1_555 1_555
H34 C26 1_555 1_555
H35 C26 1_555 1_555
C27 C21 1_555 1_555
H36 C27 1_555 1_555
H37 C27 1_555 1_555
H38 C27 1_555 1_555
C29 C21 1_555 1_555
H42 C29 1_555 1_555
H43 C29 1_555 1_555
H44 C29 1_555 1_555
C35 C22 1_555 1_555
H60 C35 1_555 1_555
H61 C35 1_555 1_555
H62 C35 1_555 1_555
C36 C22 1_555 1_555
H63 C36 1_555 1_555
H64 C36 1_555 1_555
H65 C36 1_555 1_555
C41 H76 1_555 1_555
C42 C41 1_555 1_555
H77 C42 1_555 1_555
H78 C42 1_555 1_555
C43 C41 1_555 1_555
H80 C43 1_555 1_555
H81 C43 1_555 1_555
Cu1 Cl1 1_555 1_555
O10 C63 1_555 1_555
O16 C63 1_555 1_555
C63 C64 1_555 1_555
C64 C89 1_555 1_555
C82 H104 1_555 1_555
C83 H105 1_555 1_555
C89 C83 1_555 1_555
H108 C89 1_555 1_555
C102 C24 1_555 1_555
C103 H114 1_555 1_555
C105 C64 1_555 1_555
H115 C105 1_555 1_555
C108 C83 1_555 1_555
C113 C7 1_555 1_555
C116 C6 1_555 1_555
C117 C22 1_555 1_555
N6 C15 1_555 1_555
C123 Cu1 1_555 1_555
N7 C6 1_555 1_555
Zn6 O10 1_555 1_555
Zn8 O16 1_555 1_555
C11 C116 1_555 1_555
C14 N7 1_555 1_555
C82 C113 1_555 1_555
C82 C116 1_555 1_555
C102 C117 1_555 1_555
C102 N6 1_555 1_555
C103 C105 1_555 1_555
C103 C108 1_555 1_555
C108 C113 1_555 1_555
N6 C123 1_555 1_555
C123 N7 1_555 1_555
C123 H129 1_555 1_555
C2_2 C38_2 1_555 1_555
C5_2 H7_2 1_555 1_555
H9_2 C5_2 1_555 1_555
C8_2 H11_2 1_555 1_555
H12_2 C8_2 1_555 1_555
C12_2 C20_2 1_555 1_555
C20_2 H24_2 1_555 1_555
C25_2 C20_2 1_555 1_555
H30_2 C25_2 1_555 1_555
H31_2 C25_2 1_555 1_555
H32_2 C25_2 1_555 1_555
C30_2 C20_2 1_555 1_555
H45_2 C30_2 1_555 1_555
H46_2 C30_2 1_555 1_555
H47_2 C30_2 1_555 1_555
C38_2 H69_2 1_555 1_555
C39_2 C38_2 1_555 1_555
H70_2 C39_2 1_555 1_555
H71_2 C39_2 1_555 1_555
H72_2 C39_2 1_555 1_555
C40_2 C38_2 1_555 1_555
H73_2 C40_2 1_555 1_555
H74_2 C40_2 1_555 1_555
H75_2 C40_2 1_555 1_555
O4_2 C47_2 1_555 1_555
O6_2 C47_2 1_555 1_555
C46_2 H84_2 1_555 1_555
C47_2 C61_2 1_555 1_555
C54_2 H87_2 1_555 1_555
C61_2 C46_2 1_555 1_555
C66_2 H92_2 1_555 1_555
C71_2 C78_2 1_555 1_555
C76_2 C46_2 1_555 1_555
H99_2 C76_2 1_555 1_555
C78_2 C12_2 1_555 1_555
H101_2 C78_2 1_555 1_555
C80_2 C5_2 1_555 1_555
H103_2 C80_2 1_555 1_555
C85_2 C54_2 1_555 1_555
H106_2 C85_2 1_555 1_555
C94_2 C71_2 1_555 1_555
C96_2 C66_2 1_555 1_555
H110_2 C96_2 1_555 1_555
C98_2 C2_2 1_555 1_555
H112_2 C98_2 1_555 1_555
C107_2 C2_2 1_555 1_555
N4_2 C66_2 1_555 1_555
C122_2 N4_2 1_555 1_555
N5_2 C96_2 1_555 1_555
Cu3_2 C122_2 1_555 1_555
Cl3_2 Cu3_2 1_555 1_555
Zn8 O4_2 1_555 1_555
Zn10 O6_2 1_555 1_555
C8_2 C80_2 1_555 1_555
C12_2 C107_2 1_555 1_555
C54_2 C61_2 1_555 1_555
C71_2 C98_2 1_555 1_555
C76_2 C94_2 1_555 1_555
C85_2 C94_2 1_555 1_555
C107_2 N5_2 1_555 1_555
C122_2 N5_2 1_555 1_555
C122_2 H128_2 1_555 1_555
O1_2 N1_2 1_555 1_555
O2_2 N1_2 1_555 1_555
C1_2 H1_2 1_555 1_555
H2_2 C1_2 1_555 1_555
H3_2 C1_2 1_555 1_555
C3_2 H4_2 1_555 1_555
H5_2 C3_2 1_555 1_555
H6_2 C3_2 1_555 1_555
C6_2 C9_2 1_555 1_555
C7_2 H10_2 1_555 1_555
C9_2 C7_2 1_555 1_555
C10_2 H14_2 1_555 1_555
C11_2 H15_2 1_555 1_555
C13_2 H16_2 1_555 1_555
C14_2 H17_2 1_555 1_555
C15_2 C14_2 1_555 1_555
H18_2 C15_2 1_555 1_555
H19_2 C17_2 1_555 1_555
C19_2 C10_2 1_555 1_555
H21_2 C19_2 1_555 1_555
H22_2 C19_2 1_555 1_555
H23_2 C19_2 1_555 1_555
C21_2 C9_2 1_555 1_555
H25_2 C21_2 1_555 1_555
N1_2 O3_2 1_555 1_555
C22_2 H26_2 1_555 1_555
C23_2 C11_2 1_555 1_555
H27_2 C23_2 1_555 1_555
H28_2 C23_2 1_555 1_555
H29_2 C23_2 1_555 1_555
C24_2 C41_2 1_555 1_555
C26_2 C11_2 1_555 1_555
H33_2 C26_2 1_555 1_555
H34_2 C26_2 1_555 1_555
H35_2 C26_2 1_555 1_555
C27_2 C21_2 1_555 1_555
H36_2 C27_2 1_555 1_555
H37_2 C27_2 1_555 1_555
H38_2 C27_2 1_555 1_555
C28_2 C10_2 1_555 1_555
H39_2 C28_2 1_555 1_555
H40_2 C28_2 1_555 1_555
H41_2 C28_2 1_555 1_555
C29_2 C21_2 1_555 1_555
H42_2 C29_2 1_555 1_555
H43_2 C29_2 1_555 1_555
H44_2 C29_2 1_555 1_555
C31_2 H48_2 1_555 1_555
H49_2 C31_2 1_555 1_555
H50_2 C31_2 1_555 1_555
C35_2 C22_2 1_555 1_555
H60_2 C35_2 1_555 1_555
H61_2 C35_2 1_555 1_555
H62_2 C35_2 1_555 1_555
C36_2 C22_2 1_555 1_555
H63_2 C36_2 1_555 1_555
H64_2 C36_2 1_555 1_555
H65_2 C36_2 1_555 1_555
C41_2 H76_2 1_555 1_555
C42_2 C41_2 1_555 1_555
H77_2 C42_2 1_555 1_555
H78_2 C42_2 1_555 1_555
H79_2 C42_2 1_555 1_555
C43_2 C41_2 1_555 1_555
H80_2 C43_2 1_555 1_555
H81_2 C43_2 1_555 1_555
H82_2 C43_2 1_555 1_555
Cu1_2 Cl1_2 1_555 1_555
Zn6 O7_2 1_555 1_555
Zn2_2 O8_2 1_555 1_555
Zn8 O1_2 1_555 1_555
Zn10 O5_2 1_555 1_555
O5_2 C44_2 1_555 1_555
O7_2 C51_2 1_555 1_555
O8_2 Zn6 1_555 1_555
O9_2 Zn2_2 1_555 1_555
O11_2 Zn2_2 1_555 1_555
O14_2 Zn2_2 1_555 1_555
O15_2 Zn8 1_555 1_555
C44_2 O14_2 1_555 1_555
C45_2 H83_2 1_555 1_555
C48_2 C55_2 1_555 1_555
C49_2 H85_2 1_555 1_555
C50_2 C44_2 1_555 1_555
C51_2 O9_2 1_555 1_555
C52_2 C57_2 1_555 1_555
C53_2 C50_2 1_555 1_555
H86_2 C53_2 1_555 1_555
C55_2 H88_2 1_555 1_555
C57_2 H89_2 1_555 1_555
C58_2 O11_2 1_555 1_555
C60_2 C45_2 1_555 1_555
H90_2 C60_2 1_555 1_555
C62_2 C52_2 1_555 1_555
H91_2 C62_2 1_555 1_555
C64_2 C89_2 1_555 1_555
C65_2 C52_2 1_555 1_555
C67_2 C1_2 1_555 1_555
H93_2 C67_2 1_555 1_555
C68_2 H94_2 1_555 1_555
C70_2 H96_2 1_555 1_555
C72_2 C48_2 1_555 1_555
H97_2 C72_2 1_555 1_555
C73_2 C45_2 1_555 1_555
C74_2 C67_2 1_555 1_555
C77_2 C65_2 1_555 1_555
H100_2 C77_2 1_555 1_555
C79_2 C68_2 1_555 1_555
H102_2 C79_2 1_555 1_555
C81_2 N2_2 1_555 1_555
C82_2 H104_2 1_555 1_555
C83_2 H105_2 1_555 1_555
C84_2 C10_2 1_555 1_555
C86_2 C77_2 1_555 1_555
C87_2 C106_2 1_555 1_555
C89_2 C83_2 1_555 1_555
H108_2 C89_2 1_555 1_555
C90_2 C65_2 1_555 1_555
H109_2 C90_2 1_555 1_555
C91_2 C74_2 1_555 1_555
C93_2 C49_2 1_555 1_555
C95_2 C60_2 1_555 1_555
C97_2 C50_2 1_555 1_555
H111_2 C97_2 1_555 1_555
C100_2 C49_2 1_555 1_555
C102_2 C24_2 1_555 1_555
C103_2 H114_2 1_555 1_555
C106_2 C114_2 1_555 1_555
C108_2 C83_2 1_555 1_555
C110_2 C87_2 1_555 1_555
H117_2 C110_2 1_555 1_555
C111_2 C53_2 1_555 1_555
H118_2 C111_2 1_555 1_555
C113_2 C7_2 1_555 1_555
C114_2 C24_2 1_555 1_555
H120_2 C114_2 1_555 1_555
C115_2 C106_2 1_555 1_555
H121_2 C115_2 1_555 1_555
C116_2 C6_2 1_555 1_555
C117_2 C22_2 1_555 1_555
C118_2 C31_2 1_555 1_555
H122_2 C118_2 1_555 1_555
C119_2 C84_2 1_555 1_555
C120_2 C118_2 1_555 1_555
H123_2 C120_2 1_555 1_555
H124_2 C120_2 1_555 1_555
H125_2 C120_2 1_555 1_555
N2_2 C13_2 1_555 1_555
C121_2 C13_2 1_555 1_555
H126_2 C121_2 1_555 1_555
Cu2_2 C81_2 1_555 1_555
Cl2_2 Cu2_2 1_555 1_555
N6_2 C15_2 1_555 1_555
C123_2 Cu1_2 1_555 1_555
N7_2 C6_2 1_555 1_555
O2_2 Zn8 1_555 1_555
C3_2 C67_2 1_555 1_555
C11_2 C116_2 1_555 1_555
C14_2 N7_2 1_555 1_555
Zn8 O8_2 1_555 1_555
Zn10 O8_2 1_555 1_555
O15_2 C58_2 1_555 1_555
C48_2 C58_2 1_555 1_555
C51_2 C73_2 1_555 1_555
C55_2 C62_2 1_555 1_555
C57_2 C72_2 1_555 1_555
C68_2 C73_2 1_555 1_555
C70_2 C74_2 1_555 1_555
C70_2 C100_2 1_555 1_555
C79_2 C95_2 1_555 1_555
C81_2 N3_2 1_555 1_555
C82_2 C113_2 1_555 1_555
C82_2 C116_2 1_555 1_555
C84_2 C90_2 1_555 1_555
C86_2 C118_2 1_555 1_555
C86_2 C119_2 1_555 1_555
C87_2 C111_2 1_555 1_555
C91_2 C93_2 1_555 1_555
C95_2 C100_2 1_555 1_555
C97_2 C110_2 1_555 1_555
C102_2 C117_2 1_555 1_555
C102_2 N6_2 1_555 1_555
C103_2 C108_2 1_555 1_555
C108_2 C113_2 1_555 1_555
C115_2 C117_2 1_555 1_555
C119_2 N2_2 1_555 1_555
C121_2 N3_2 1_555 1_555
N6_2 C123_2 1_555 1_555
C123_2 N7_2 1_555 1_555
C81_2 H127_2 1_555 1_555
C123_2 H129_2 1_555 1_555
O20 C56_2 1_555 1_555
O21 C56_2 1_555 1_555
C56_2 C59_2 1_555 1_555
C75_2 C59_2 1_555 1_555
H98_2 C75_2 1_555 1_555
C109_2 C75_2 1_555 1_555
H116_2 C109_2 1_555 1_555
H54_2 C33_2 1_555 1_555
H55_2 C33_2 1_555 1_555
H66_2 C37_2 1_555 1_555
H67_2 C37_2 1_555 1_555
H68_2 C37_2 1_555 1_555
O19 C63_2 1_555 1_555
O22 C63_2 1_555 1_555
H115_2 C105_2 1_555 1_555
O1_3 N1_3 1_555 1_555
O2_3 N1_3 1_555 1_555
C1_3 H1_3 1_555 1_555
H2_3 C1_3 1_555 1_555
H3_3 C1_3 1_555 1_555
C2_3 C38_3 1_555 1_555
C3_3 H4_3 1_555 1_555
H5_3 C3_3 1_555 1_555
H6_3 C3_3 1_555 1_555
C4_2 C16_2 1_555 1_555
C5_3 H7_3 1_555 1_555
H8_3 C5_3 1_555 1_555
H9_3 C5_3 1_555 1_555
C8_3 H11_3 1_555 1_555
C10_3 H14_3 1_555 1_555
C12_3 C20_3 1_555 1_555
C13_3 H16_3 1_555 1_555
C16_2 C101_2 1_555 1_555
C17_3 C4_2 1_555 1_555
H19_3 C17_3 1_555 1_555
C18_2 H20_2 1_555 1_555
C19_3 C10_3 1_555 1_555
H21_3 C19_3 1_555 1_555
H22_3 C19_3 1_555 1_555
H23_3 C19_3 1_555 1_555
C20_3 H24_3 1_555 1_555
N1_3 O3_3 1_555 1_555
C25_3 C20_3 1_555 1_555
H30_3 C25_3 1_555 1_555
H31_3 C25_3 1_555 1_555
H32_3 C25_3 1_555 1_555
C28_3 C10_3 1_555 1_555
H39_3 C28_3 1_555 1_555
H40_3 C28_3 1_555 1_555
H41_3 C28_3 1_555 1_555
C30_3 C20_3 1_555 1_555
H45_3 C30_3 1_555 1_555
H46_3 C30_3 1_555 1_555
H47_3 C30_3 1_555 1_555
C31_3 H48_3 1_555 1_555
H49_3 C31_3 1_555 1_555
H50_3 C31_3 1_555 1_555
C32_2 C18_2 1_555 1_555
H51_2 C32_2 1_555 1_555
H52_2 C32_2 1_555 1_555
H53_2 C32_2 1_555 1_555
C33_3 C17_3 1_555 1_555
H54_3 C33_3 1_555 1_555
H55_3 C33_3 1_555 1_555
H56_3 C33_3 1_555 1_555
C34_2 C18_2 1_555 1_555
H57_2 C34_2 1_555 1_555
H58_2 C34_2 1_555 1_555
H59_2 C34_2 1_555 1_555
C37_3 C17_3 1_555 1_555
H66_3 C37_3 1_555 1_555
H67_3 C37_3 1_555 1_555
H68_3 C37_3 1_555 1_555
C38_3 H69_3 1_555 1_555
C39_3 C38_3 1_555 1_555
H70_3 C39_3 1_555 1_555
H71_3 C39_3 1_555 1_555
H72_3 C39_3 1_555 1_555
C40_3 C38_3 1_555 1_555
H73_3 C40_3 1_555 1_555
Zn1_2 O7_3 1_555 1_555
Zn2_3 O8_3 1_555 1_555
Zn3 O1_3 1_555 1_555
Zn4 O5_3 1_555 1_555
O17 C47_3 1_555 1_555
O5_3 C44_3 1_555 1_555
O18 C47_3 1_555 1_555
O7_3 C51_3 1_555 1_555
O8_3 Zn1_2 1_555 1_555
O9_3 Zn2_3 1_555 1_555
O11_3 Zn2_3 1_555 1_555
O12_2 C56_3 1_555 1_555
O13_2 C56_3 1_555 1_555
O14_3 Zn2_3 1_555 1_555
O15_3 Zn3 1_555 1_555
C44_3 O14_3 1_555 1_555
C45_3 H83_3 1_555 1_555
C46_3 H84_3 1_555 1_555
C47_3 C61_3 1_555 1_555
C48_3 C55_3 1_555 1_555
C49_3 H85_3 1_555 1_555
C50_3 C44_3 1_555 1_555
C51_3 O9_3 1_555 1_555
C52_3 C57_3 1_555 1_555
C53_3 C50_3 1_555 1_555
C54_3 H87_3 1_555 1_555
C55_3 H88_3 1_555 1_555
C56_3 C59_3 1_555 1_555
C57_3 H89_3 1_555 1_555
C58_3 O11_3 1_555 1_555
C59_3 C69_2 1_555 1_555
C60_3 C45_3 1_555 1_555
H90_3 C60_3 1_555 1_555
C61_3 C46_3 1_555 1_555
C62_3 C52_3 1_555 1_555
H91_3 C62_3 1_555 1_555
C65_3 C52_3 1_555 1_555
C66_3 H92_3 1_555 1_555
C67_3 C1_3 1_555 1_555
H93_3 C67_3 1_555 1_555
C68_3 H94_3 1_555 1_555
C69_2 H95_2 1_555 1_555
C70_3 H96_3 1_555 1_555
C71_3 C78_3 1_555 1_555
C72_3 C48_3 1_555 1_555
H97_3 C72_3 1_555 1_555
C73_3 C45_3 1_555 1_555
C74_3 C67_3 1_555 1_555
C75_3 C59_3 1_555 1_555
H98_3 C75_3 1_555 1_555
C76_3 C46_3 1_555 1_555
H99_3 C76_3 1_555 1_555
C77_3 C65_3 1_555 1_555
H100_3 C77_3 1_555 1_555
C78_3 C12_3 1_555 1_555
H101_3 C78_3 1_555 1_555
C79_3 C68_3 1_555 1_555
H102_3 C79_3 1_555 1_555
C80_3 C5_3 1_555 1_555
H103_3 C80_3 1_555 1_555
C81_3 N2_3 1_555 1_555
C84_3 C10_3 1_555 1_555
C85_3 C54_3 1_555 1_555
H106_3 C85_3 1_555 1_555
C86_3 C77_3 1_555 1_555
C87_3 C106_3 1_555 1_555
C88_2 C69_2 1_555 1_555
H107_2 C88_2 1_555 1_555
C90_3 C65_3 1_555 1_555
H109_3 C90_3 1_555 1_555
C91_3 C74_3 1_555 1_555
C92_2 C99_2 1_555 1_555
C93_3 C49_3 1_555 1_555
C94_3 C71_3 1_555 1_555
C95_3 C60_3 1_555 1_555
C96_3 C66_3 1_555 1_555
H110_3 C96_3 1_555 1_555
C97_3 C50_3 1_555 1_555
H111_3 C97_3 1_555 1_555
C98_3 C2_3 1_555 1_555
H112_3 C98_3 1_555 1_555
C99_2 H113_2 1_555 1_555
C100_3 C49_3 1_555 1_555
C101_2 C18_2 1_555 1_555
C104_2 C88_2 1_555 1_555
C106_3 C114_3 1_555 1_555
C107_3 C2_3 1_555 1_555
C109_3 C75_3 1_555 1_555
H116_3 C109_3 1_555 1_555
C110_3 C87_3 1_555 1_555
H117_3 C110_3 1_555 1_555
C111_3 C53_3 1_555 1_555
H118_3 C111_3 1_555 1_555
C112_2 C4_2 1_555 1_555
H119_3 C112_2 1_555 1_555
H120_3 C114_3 1_555 1_555
C115_3 C106_3 1_555 1_555
C118_3 C31_3 1_555 1_555
H122_3 C118_3 1_555 1_555
C119_3 C84_3 1_555 1_555
C120_3 C118_3 1_555 1_555
H123_3 C120_3 1_555 1_555
H124_3 C120_3 1_555 1_555
H125_3 C120_3 1_555 1_555
N2_3 C13_3 1_555 1_555
C121_3 C13_3 1_555 1_555
H126_3 C121_3 1_555 1_555
N3_3 C16_2 1_555 1_555
Cu2_3 C81_3 1_555 1_555
N4_3 C66_3 1_555 1_555
C122_3 N4_3 1_555 1_555
N5_3 C96_3 1_555 1_555
Cu3_3 C122_3 1_555 1_555
Cl3_3 Cu3_3 1_555 1_555
Zn6_2 O12_2 1_555 1_555
Zn10_2 O13_2 1_555 1_555
O19_2 Zn1_2 1_555 1_555
O20_2 Zn1_2 1_555 1_555
O21_2 Zn4 1_555 1_555
O22_2 Zn3 1_555 1_555
O2_3 Zn3 1_555 1_555
C3_3 C67_3 1_555 1_555
C8_3 C80_3 1_555 1_555
C12_3 C107_3 1_555 1_555
Zn3 O8_3 1_555 1_555
Zn4 O8_3 1_555 1_555
O15_3 C58_3 1_555 1_555
C48_3 C58_3 1_555 1_555
C51_3 C73_3 1_555 1_555
C54_3 C61_3 1_555 1_555
C55_3 C62_3 1_555 1_555
C57_3 C72_3 1_555 1_555
C68_3 C73_3 1_555 1_555
C70_3 C74_3 1_555 1_555
C70_3 C100_3 1_555 1_555
C71_3 C98_3 1_555 1_555
C76_3 C94_3 1_555 1_555
C79_3 C95_3 1_555 1_555
C80_3 C93_3 1_555 1_555
C81_3 N3_3 1_555 1_555
C84_3 C90_3 1_555 1_555
C85_3 C94_3 1_555 1_555
C86_3 C118_3 1_555 1_555
C86_3 C119_3 1_555 1_555
C87_3 C111_3 1_555 1_555
C91_3 C93_3 1_555 1_555
C91_3 N4_3 1_555 1_555
C92_2 C104_2 1_555 1_555
C92_2 C112_2 1_555 1_555
C95_3 C100_3 1_555 1_555
C97_3 C110_3 1_555 1_555
C99_2 C101_2 1_555 1_555
C104_2 C109_3 1_555 1_555
C107_3 N5_3 1_555 1_555
C119_3 N2_3 1_555 1_555
C121_3 N3_3 1_555 1_555
C122_3 N5_3 1_555 1_555
C81_3 H127_3 1_555 1_555
C122_3 H128_3 1_555 1_555
C6_3 C9_3 1_555 1_555
C7_3 H10_3 1_555 1_555
C9_3 C7_3 1_555 1_555
C11_3 H15_3 1_555 1_555
C14_3 H17_3 1_555 1_555
C15_3 C14_3 1_555 1_555
H18_3 C15_3 1_555 1_555
C23_3 C11_3 1_555 1_555
H27_3 C23_3 1_555 1_555
H28_3 C23_3 1_555 1_555
H29_3 C23_3 1_555 1_555
C24_3 C41_3 1_555 1_555
C26_3 C11_3 1_555 1_555
H33_3 C26_3 1_555 1_555
H34_3 C26_3 1_555 1_555
H35_3 C26_3 1_555 1_555
C41_3 H76_3 1_555 1_555
C42_3 C41_3 1_555 1_555
H77_3 C42_3 1_555 1_555
H78_3 C42_3 1_555 1_555
C43_3 C41_3 1_555 1_555
H80_3 C43_3 1_555 1_555
H81_3 C43_3 1_555 1_555
Cu1_3 Cl1_3 1_555 1_555
O10_2 C63_3 1_555 1_555
O16_2 C63_3 1_555 1_555
C63_3 C64_3 1_555 1_555
C64_3 C89_3 1_555 1_555
C82_3 H104_3 1_555 1_555
C83_3 H105_3 1_555 1_555
C89_3 C83_3 1_555 1_555
H108_3 C89_3 1_555 1_555
C102_3 C24_3 1_555 1_555
C103_3 H114_3 1_555 1_555
C105_3 C64_3 1_555 1_555
H115_3 C105_3 1_555 1_555
C108_3 C83_3 1_555 1_555
C113_3 C7_3 1_555 1_555
C116_3 C6_3 1_555 1_555
N6_3 C15_3 1_555 1_555
C123_3 Cu1_3 1_555 1_555
N7_3 C6_3 1_555 1_555
Zn6_2 O10_2 1_555 1_555
Zn8_2 O16_2 1_555 1_555
C11_3 C116_3 1_555 1_555
C14_3 N7_3 1_555 1_555
C82_3 C113_3 1_555 1_555
C82_3 C116_3 1_555 1_555
C102_3 C117_3 1_555 1_555
C102_3 N6_3 1_555 1_555
C103_3 C105_3 1_555 1_555
C103_3 C108_3 1_555 1_555
C108_3 C113_3 1_555 1_555
N6_3 C123_3 1_555 1_555
C123_3 N7_3 1_555 1_555
C123_3 H129_3 1_555 1_555
O20_2 C56_4 1_555 1_555
O21_2 C56_4 1_555 1_555
C56_4 C59_4 1_555 1_555
C75_4 C59_4 1_555 1_555
H98_4 C75_4 1_555 1_555
C109_4 C75_4 1_555 1_555
H116_4 C109_4 1_555 1_555
H54_4 C33_4 1_555 1_555
H55_4 C33_4 1_555 1_555
H66_4 C37_4 1_555 1_555
H67_4 C37_4 1_555 1_555
H68_4 C37_4 1_555 1_555
O19_2 C63_4 1_555 1_555
O22_2 C63_4 1_555 1_555
H115_4 C105_4 1_555 1_555
H25_3 C21_3 1_555 1_555
C22_3 H26_3 1_555 1_555
C27_3 C21_3 1_555 1_555
H36_3 C27_3 1_555 1_555
H37_3 C27_3 1_555 1_555
H38_3 C27_3 1_555 1_555
C29_3 C21_3 1_555 1_555
H42_3 C29_3 1_555 1_555
H43_3 C29_3 1_555 1_555
H44_3 C29_3 1_555 1_555
C35_3 C22_3 1_555 1_555
H60_3 C35_3 1_555 1_555
H61_3 C35_3 1_555 1_555
H62_3 C35_3 1_555 1_555
C36_3 C22_3 1_555 1_555
H63_3 C36_3 1_555 1_555
H64_3 C36_3 1_555 1_555
H65_3 C36_3 1_555 1_555
O1_4 N1_4 1_555 1_555
O2_4 N1_4 1_555 1_555
C1_4 H1_4 1_555 1_555
H2_4 C1_4 1_555 1_555
H3_4 C1_4 1_555 1_555
C2_4 C38_4 1_555 1_555
C3_4 H4_4 1_555 1_555
H5_4 C3_4 1_555 1_555
H6_4 C3_4 1_555 1_555
C5_4 H7_4 1_555 1_555
H8_4 C5_4 1_555 1_555
H9_4 C5_4 1_555 1_555
C6_4 C9_4 1_555 1_555
C7_4 H10_4 1_555 1_555
C8_4 H11_4 1_555 1_555
H12_3 C8_4 1_555 1_555
H13_3 C8_4 1_555 1_555
C9_4 C7_4 1_555 1_555
C10_4 H14_4 1_555 1_555
C11_4 H15_4 1_555 1_555
C12_4 C20_4 1_555 1_555
C13_4 H16_4 1_555 1_555
C14_4 H17_4 1_555 1_555
C15_4 C14_4 1_555 1_555
H18_4 C15_4 1_555 1_555
H19_4 C17_4 1_555 1_555
C19_4 C10_4 1_555 1_555
H21_4 C19_4 1_555 1_555
H22_4 C19_4 1_555 1_555
H23_4 C19_4 1_555 1_555
C20_4 H24_4 1_555 1_555
N1_4 O3_4 1_555 1_555
C23_4 C11_4 1_555 1_555
H27_4 C23_4 1_555 1_555
H28_4 C23_4 1_555 1_555
H29_4 C23_4 1_555 1_555
C24_4 C41_4 1_555 1_555
C25_4 C20_4 1_555 1_555
H30_4 C25_4 1_555 1_555
H31_4 C25_4 1_555 1_555
H32_4 C25_4 1_555 1_555
C26_4 C11_4 1_555 1_555
H33_4 C26_4 1_555 1_555
H34_4 C26_4 1_555 1_555
H35_4 C26_4 1_555 1_555
C28_4 C10_4 1_555 1_555
H39_4 C28_4 1_555 1_555
H40_4 C28_4 1_555 1_555
H41_4 C28_4 1_555 1_555
C30_4 C20_4 1_555 1_555
H45_4 C30_4 1_555 1_555
H46_4 C30_4 1_555 1_555
H47_4 C30_4 1_555 1_555
C31_4 H48_4 1_555 1_555
H49_4 C31_4 1_555 1_555
H50_4 C31_4 1_555 1_555
C38_4 H69_4 1_555 1_555
C39_4 C38_4 1_555 1_555
H70_4 C39_4 1_555 1_555
H71_4 C39_4 1_555 1_555
H72_4 C39_4 1_555 1_555
C40_4 C38_4 1_555 1_555
H73_4 C40_4 1_555 1_555
H74_3 C40_4 1_555 1_555
H75_3 C40_4 1_555 1_555
C41_4 H76_4 1_555 1_555
C42_4 C41_4 1_555 1_555
H77_4 C42_4 1_555 1_555
H78_4 C42_4 1_555 1_555
H79_4 C42_4 1_555 1_555
C43_4 C41_4 1_555 1_555
H80_4 C43_4 1_555 1_555
H81_4 C43_4 1_555 1_555
H82_4 C43_4 1_555 1_555
Cu1_4 Cl1_4 1_555 1_555
Zn6_2 O7_4 1_555 1_555
Zn2_4 O8_4 1_555 1_555
Zn8_2 O1_4 1_555 1_555
Zn10_2 O5_4 1_555 1_555
O17_2 C47_4 1_555 1_555
O5_4 C44_4 1_555 1_555
O18_2 C47_4 1_555 1_555
O7_4 C51_4 1_555 1_555
O8_4 Zn6_2 1_555 1_555
O9_4 Zn2_4 1_555 1_555
O11_4 Zn2_4 1_555 1_555
O14_4 Zn2_4 1_555 1_555
O15_4 Zn8_2 1_555 1_555
C44_4 O14_4 1_555 1_555
C45_4 H83_4 1_555 1_555
C46_4 H84_4 1_555 1_555
C47_4 C61_4 1_555 1_555
C48_4 C55_4 1_555 1_555
C49_4 H85_4 1_555 1_555
C50_4 C44_4 1_555 1_555
C51_4 O9_4 1_555 1_555
C52_4 C57_4 1_555 1_555
C53_4 C50_4 1_555 1_555
C54_4 H87_4 1_555 1_555
C55_4 H88_4 1_555 1_555
C57_4 H89_4 1_555 1_555
C58_4 O11_4 1_555 1_555
C60_4 C45_4 1_555 1_555
H90_4 C60_4 1_555 1_555
C61_4 C46_4 1_555 1_555
C62_4 C52_4 1_555 1_555
H91_4 C62_4 1_555 1_555
C64_4 C89_4 1_555 1_555
C65_4 C52_4 1_555 1_555
C66_4 H92_4 1_555 1_555
C67_4 C1_4 1_555 1_555
H93_4 C67_4 1_555 1_555
C68_4 H94_4 1_555 1_555
C70_4 H96_4 1_555 1_555
C71_4 C78_4 1_555 1_555
C72_4 C48_4 1_555 1_555
H97_4 C72_4 1_555 1_555
C73_4 C45_4 1_555 1_555
C74_4 C67_4 1_555 1_555
C76_4 C46_4 1_555 1_555
H99_4 C76_4 1_555 1_555
C77_4 C65_4 1_555 1_555
H100_4 C77_4 1_555 1_555
C78_4 C12_4 1_555 1_555
H101_4 C78_4 1_555 1_555
C79_4 C68_4 1_555 1_555
H102_4 C79_4 1_555 1_555
C80_4 C5_4 1_555 1_555
H103_4 C80_4 1_555 1_555
C81_4 N2_4 1_555 1_555
C82_4 H104_4 1_555 1_555
C83_4 H105_4 1_555 1_555
C84_4 C10_4 1_555 1_555
C85_4 C54_4 1_555 1_555
H106_4 C85_4 1_555 1_555
C86_4 C77_4 1_555 1_555
C87_4 C106_4 1_555 1_555
C89_4 C83_4 1_555 1_555
H108_4 C89_4 1_555 1_555
C90_4 C65_4 1_555 1_555
H109_4 C90_4 1_555 1_555
C91_4 C74_4 1_555 1_555
C93_4 C49_4 1_555 1_555
C94_4 C71_4 1_555 1_555
C95_4 C60_4 1_555 1_555
C96_4 C66_4 1_555 1_555
H110_4 C96_4 1_555 1_555
C97_4 C50_4 1_555 1_555
H111_4 C97_4 1_555 1_555
C98_4 C2_4 1_555 1_555
H112_4 C98_4 1_555 1_555
C100_4 C49_4 1_555 1_555
C102_4 C24_4 1_555 1_555
C103_4 H114_4 1_555 1_555
C106_4 C114_4 1_555 1_555
C107_4 C2_4 1_555 1_555
C108_4 C83_4 1_555 1_555
C110_4 C87_4 1_555 1_555
H117_4 C110_4 1_555 1_555
C111_4 C53_4 1_555 1_555
H118_4 C111_4 1_555 1_555
C113_4 C7_4 1_555 1_555
C114_4 C24_4 1_555 1_555
H120_4 C114_4 1_555 1_555
C115_4 C106_4 1_555 1_555
C116_4 C6_4 1_555 1_555
C118_4 C31_4 1_555 1_555
H122_4 C118_4 1_555 1_555
C119_4 C84_4 1_555 1_555
C120_4 C118_4 1_555 1_555
H123_4 C120_4 1_555 1_555
H124_4 C120_4 1_555 1_555
H125_4 C120_4 1_555 1_555
N2_4 C13_4 1_555 1_555
C121_4 C13_4 1_555 1_555
H126_4 C121_4 1_555 1_555
Cu2_4 C81_4 1_555 1_555
N4_4 C66_4 1_555 1_555
C122_4 N4_4 1_555 1_555
N5_4 C96_4 1_555 1_555
Cu3_4 C122_4 1_555 1_555
Cl3_4 Cu3_4 1_555 1_555
N6_4 C15_4 1_555 1_555
C123_4 Cu1_4 1_555 1_555
N7_4 C6_4 1_555 1_555
O2_4 Zn8_2 1_555 1_555
C3_4 C67_4 1_555 1_555
C8_4 C80_4 1_555 1_555
C11_4 C116_4 1_555 1_555
C12_4 C107_4 1_555 1_555
C14_4 N7_4 1_555 1_555
Zn8_2 O8_4 1_555 1_555
Zn10_2 O8_4 1_555 1_555
O15_4 C58_4 1_555 1_555
C48_4 C58_4 1_555 1_555
C51_4 C73_4 1_555 1_555
C54_4 C61_4 1_555 1_555
C55_4 C62_4 1_555 1_555
C57_4 C72_4 1_555 1_555
C68_4 C73_4 1_555 1_555
C70_4 C74_4 1_555 1_555
C70_4 C100_4 1_555 1_555
C71_4 C98_4 1_555 1_555
C76_4 C94_4 1_555 1_555
C79_4 C95_4 1_555 1_555
C80_4 C93_4 1_555 1_555
C81_4 N3_4 1_555 1_555
C82_4 C113_4 1_555 1_555
C82_4 C116_4 1_555 1_555
C84_4 C90_4 1_555 1_555
C85_4 C94_4 1_555 1_555
C86_4 C118_4 1_555 1_555
C86_4 C119_4 1_555 1_555
C87_4 C111_4 1_555 1_555
C91_4 C93_4 1_555 1_555
C91_4 N4_4 1_555 1_555
C95_4 C100_4 1_555 1_555
C97_4 C110_4 1_555 1_555
C102_4 C117_4 1_555 1_555
C102_4 N6_4 1_555 1_555
C103_4 C108_4 1_555 1_555
C107_4 N5_4 1_555 1_555
C108_4 C113_4 1_555 1_555
C115_4 C117_4 1_555 1_555
C119_4 N2_4 1_555 1_555
C121_4 N3_4 1_555 1_555
C122_4 N5_4 1_555 1_555
N6_4 C123_4 1_555 1_555
C123_4 N7_4 1_555 1_555
C81_4 H127_4 1_555 1_555
C122_4 H128_4 1_555 1_555
C123_4 H129_4 1_555 1_555
H25_4 C21_4 1_555 1_555
C22_4 H26_4 1_555 1_555
C27_4 C21_4 1_555 1_555
H36_4 C27_4 1_555 1_555
H37_4 C27_4 1_555 1_555
H38_4 C27_4 1_555 1_555
C29_4 C21_4 1_555 1_555
H42_4 C29_4 1_555 1_555
H43_4 C29_4 1_555 1_555
H44_4 C29_4 1_555 1_555
C35_4 C22_4 1_555 1_555
H60_4 C35_4 1_555 1_555
H61_4 C35_4 1_555 1_555
H62_4 C35_4 1_555 1_555
C36_4 C22_4 1_555 1_555
H63_4 C36_4 1_555 1_555
H64_4 C36_4 1_555 1_555
H65_4 C36_4 1_555 1_555
C4_3 C16_3 1_555 1_555
C16_3 C101_3 1_555 1_555
C18_3 H20_3 1_555 1_555
C32_3 C18_3 1_555 1_555
H51_3 C32_3 1_555 1_555
H52_3 C32_3 1_555 1_555
H53_3 C32_3 1_555 1_555
C34_3 C18_3 1_555 1_555
H57_3 C34_3 1_555 1_555
H58_3 C34_3 1_555 1_555
H59_3 C34_3 1_555 1_555
C69_3 H95_3 1_555 1_555
C88_3 C69_3 1_555 1_555
H107_3 C88_3 1_555 1_555
C92_3 C99_3 1_555 1_555
C99_3 H113_3 1_555 1_555
C101_3 C18_3 1_555 1_555
C104_3 C88_3 1_555 1_555
C112_3 C4_3 1_555 1_555
C92_3 C104_3 1_555 1_555
C92_3 C112_3 1_555 1_555
C99_3 C101_3 1_555 1_555
C4_4 C16_4 1_555 1_555
C16_4 C101_4 1_555 1_555
C18_4 H20_4 1_555 1_555
C32_4 C18_4 1_555 1_555
H51_4 C32_4 1_555 1_555
H52_4 C32_4 1_555 1_555
H53_4 C32_4 1_555 1_555
C34_4 C18_4 1_555 1_555
H57_4 C34_4 1_555 1_555
H58_4 C34_4 1_555 1_555
H59_4 C34_4 1_555 1_555
C69_4 H95_4 1_555 1_555
C88_4 C69_4 1_555 1_555
H107_4 C88_4 1_555 1_555
C92_4 C99_4 1_555 1_555
C99_4 H113_4 1_555 1_555
C101_4 C18_4 1_555 1_555
C104_4 C88_4 1_555 1_555
C112_4 C4_4 1_555 1_555
C92_4 C104_4 1_555 1_555
C92_4 C112_4 1_555 1_555
C99_4 C101_4 1_555 1_555
C6_5 C9_5 1_555 1_555
C7_5 H10_5 1_555 1_555
C9_5 C7_5 1_555 1_555
C11_5 H15_5 1_555 1_555
C14_5 H17_5 1_555 1_555
C15_5 C14_5 1_555 1_555
H18_5 C15_5 1_555 1_555
C21_5 C9_5 1_555 1_555
H25_5 C21_5 1_555 1_555
C22_5 H26_5 1_555 1_555
C23_5 C11_5 1_555 1_555
H27_5 C23_5 1_555 1_555
H28_5 C23_5 1_555 1_555
H29_5 C23_5 1_555 1_555
C24_5 C41_5 1_555 1_555
C26_5 C11_5 1_555 1_555
H33_5 C26_5 1_555 1_555
H34_5 C26_5 1_555 1_555
H35_5 C26_5 1_555 1_555
C27_5 C21_5 1_555 1_555
H36_5 C27_5 1_555 1_555
H37_5 C27_5 1_555 1_555
H38_5 C27_5 1_555 1_555
C29_5 C21_5 1_555 1_555
H42_5 C29_5 1_555 1_555
H43_5 C29_5 1_555 1_555
H44_5 C29_5 1_555 1_555
C35_5 C22_5 1_555 1_555
H60_5 C35_5 1_555 1_555
H61_5 C35_5 1_555 1_555
H62_5 C35_5 1_555 1_555
C36_5 C22_5 1_555 1_555
H63_5 C36_5 1_555 1_555
H64_5 C36_5 1_555 1_555
H65_5 C36_5 1_555 1_555
C41_5 H76_5 1_555 1_555
C42_5 C41_5 1_555 1_555
H77_5 C42_5 1_555 1_555
H78_5 C42_5 1_555 1_555
C43_5 C41_5 1_555 1_555
H80_5 C43_5 1_555 1_555
H81_5 C43_5 1_555 1_555
Cu1_5 Cl1_5 1_555 1_555
O10_3 C63_5 1_555 1_555
O16_3 C63_5 1_555 1_555
C63_5 C64_5 1_555 1_555
C64_5 C89_5 1_555 1_555
C82_5 H104_5 1_555 1_555
C83_5 H105_5 1_555 1_555
C89_5 C83_5 1_555 1_555
H108_5 C89_5 1_555 1_555
C102_5 C24_5 1_555 1_555
C103_5 H114_5 1_555 1_555
C105_5 C64_5 1_555 1_555
H115_5 C105_5 1_555 1_555
C108_5 C83_5 1_555 1_555
C113_5 C7_5 1_555 1_555
C116_5 C6_5 1_555 1_555
C117_5 C22_5 1_555 1_555
N6_5 C15_5 1_555 1_555
C123_5 Cu1_5 1_555 1_555
N7_5 C6_5 1_555 1_555
Zn5 O10_3 1_555 1_555
Zn8_3 O16_3 1_555 1_555
C11_5 C116_5 1_555 1_555
C14_5 N7_5 1_555 1_555
C82_5 C113_5 1_555 1_555
C82_5 C116_5 1_555 1_555
C102_5 C117_5 1_555 1_555
C102_5 N6_5 1_555 1_555
C103_5 C105_5 1_555 1_555
C103_5 C108_5 1_555 1_555
C108_5 C113_5 1_555 1_555
N6_5 C123_5 1_555 1_555
C123_5 N7_5 1_555 1_555
C123_5 H129_5 1_555 1_555
O1_5 N1_5 1_555 1_555
O2_5 N1_5 1_555 1_555
C1_5 H1_5 1_555 1_555
H2_5 C1_5 1_555 1_555
H3_5 C1_5 1_555 1_555
C3_5 H4_5 1_555 1_555
H5_5 C3_5 1_555 1_555
H6_5 C3_5 1_555 1_555
C4_5 C16_5 1_555 1_555
C10_5 H14_5 1_555 1_555
C13_5 H16_5 1_555 1_555
C16_5 C101_5 1_555 1_555
C17_5 C4_5 1_555 1_555
H19_5 C17_5 1_555 1_555
C18_5 H20_5 1_555 1_555
C19_5 C10_5 1_555 1_555
H21_5 C19_5 1_555 1_555
H22_5 C19_5 1_555 1_555
H23_5 C19_5 1_555 1_555
N1_5 O3_5 1_555 1_555
C28_5 C10_5 1_555 1_555
H39_5 C28_5 1_555 1_555
H40_5 C28_5 1_555 1_555
H41_5 C28_5 1_555 1_555
C31_5 H48_5 1_555 1_555
H49_5 C31_5 1_555 1_555
H50_5 C31_5 1_555 1_555
C32_5 C18_5 1_555 1_555
H51_5 C32_5 1_555 1_555
H52_5 C32_5 1_555 1_555
H53_5 C32_5 1_555 1_555
C33_5 C17_5 1_555 1_555
H54_5 C33_5 1_555 1_555
H55_5 C33_5 1_555 1_555
H56_5 C33_5 1_555 1_555
C34_5 C18_5 1_555 1_555
H57_5 C34_5 1_555 1_555
H58_5 C34_5 1_555 1_555
H59_5 C34_5 1_555 1_555
C37_5 C17_5 1_555 1_555
H66_5 C37_5 1_555 1_555
H67_5 C37_5 1_555 1_555
H68_5 C37_5 1_555 1_555
Zn1_3 O7_5 1_555 1_555
Zn2_5 O8_5 1_555 1_555
Zn3_2 O1_5 1_555 1_555
Zn4_2 O5_5 1_555 1_555
O5_5 C44_5 1_555 1_555
O7_5 C51_5 1_555 1_555
O8_5 Zn1_3 1_555 1_555
O9_5 Zn2_5 1_555 1_555
O11_5 Zn2_5 1_555 1_555
O12_3 C56_5 1_555 1_555
O13_3 C56_5 1_555 1_555
O14_5 Zn2_5 1_555 1_555
O15_5 Zn3_2 1_555 1_555
C44_5 O14_5 1_555 1_555
C45_5 H83_5 1_555 1_555
C48_5 C55_5 1_555 1_555
C49_5 H85_5 1_555 1_555
C50_5 C44_5 1_555 1_555
C51_5 O9_5 1_555 1_555
C52_5 C57_5 1_555 1_555
C53_5 C50_5 1_555 1_555
H86_5 C53_5 1_555 1_555
C55_5 H88_5 1_555 1_555
C56_5 C59_5 1_555 1_555
C57_5 H89_5 1_555 1_555
C58_5 O11_5 1_555 1_555
C59_5 C69_5 1_555 1_555
C60_5 C45_5 1_555 1_555
H90_5 C60_5 1_555 1_555
C62_5 C52_5 1_555 1_555
H91_5 C62_5 1_555 1_555
C65_5 C52_5 1_555 1_555
C67_5 C1_5 1_555 1_555
H93_5 C67_5 1_555 1_555
C68_5 H94_5 1_555 1_555
C69_5 H95_5 1_555 1_555
C70_5 H96_5 1_555 1_555
C72_5 C48_5 1_555 1_555
H97_5 C72_5 1_555 1_555
C73_5 C45_5 1_555 1_555
C74_5 C67_5 1_555 1_555
C75_5 C59_5 1_555 1_555
H98_5 C75_5 1_555 1_555
C77_5 C65_5 1_555 1_555
H100_5 C77_5 1_555 1_555
C79_5 C68_5 1_555 1_555
H102_5 C79_5 1_555 1_555
C81_5 N2_5 1_555 1_555
C84_5 C10_5 1_555 1_555
C86_5 C77_5 1_555 1_555
C87_5 C106_5 1_555 1_555
C88_5 C69_5 1_555 1_555
H107_5 C88_5 1_555 1_555
C90_5 C65_5 1_555 1_555
H109_5 C90_5 1_555 1_555
C91_5 C74_5 1_555 1_555
C92_5 C99_5 1_555 1_555
C93_5 C49_5 1_555 1_555
C95_5 C60_5 1_555 1_555
C97_5 C50_5 1_555 1_555
H111_5 C97_5 1_555 1_555
C99_5 H113_5 1_555 1_555
C100_5 C49_5 1_555 1_555
C101_5 C18_5 1_555 1_555
C104_5 C88_5 1_555 1_555
C106_5 C114_5 1_555 1_555
C109_5 C75_5 1_555 1_555
H116_5 C109_5 1_555 1_555
C110_5 C87_5 1_555 1_555
H117_5 C110_5 1_555 1_555
C111_5 C53_5 1_555 1_555
H118_5 C111_5 1_555 1_555
C112_5 C4_5 1_555 1_555
H119_5 C112_5 1_555 1_555
H120_5 C114_5 1_555 1_555
C115_5 C106_5 1_555 1_555
H121_5 C115_5 1_555 1_555
C118_5 C31_5 1_555 1_555
H122_5 C118_5 1_555 1_555
C119_5 C84_5 1_555 1_555
C120_5 C118_5 1_555 1_555
H123_5 C120_5 1_555 1_555
H124_5 C120_5 1_555 1_555
H125_5 C120_5 1_555 1_555
N2_5 C13_5 1_555 1_555
C121_5 C13_5 1_555 1_555
H126_5 C121_5 1_555 1_555
N3_5 C16_5 1_555 1_555
Cu2_5 C81_5 1_555 1_555
Cl2_5 Cu2_5 1_555 1_555
Zn5 O12_3 1_555 1_555
Zn10_3 O13_3 1_555 1_555
O17_3 Zn3_2 1_555 1_555
O18_3 Zn4_2 1_555 1_555
O19_3 Zn1_3 1_555 1_555
O20_3 Zn1_3 1_555 1_555
O21_3 Zn4_2 1_555 1_555
O22_3 Zn3_2 1_555 1_555
O2_5 Zn3_2 1_555 1_555
C3_5 C67_5 1_555 1_555
Zn3_2 O8_5 1_555 1_555
Zn4_2 O8_5 1_555 1_555
O15_5 C58_5 1_555 1_555
C48_5 C58_5 1_555 1_555
C51_5 C73_5 1_555 1_555
C55_5 C62_5 1_555 1_555
C57_5 C72_5 1_555 1_555
C68_5 C73_5 1_555 1_555
C70_5 C74_5 1_555 1_555
C70_5 C100_5 1_555 1_555
C79_5 C95_5 1_555 1_555
C81_5 N3_5 1_555 1_555
C84_5 C90_5 1_555 1_555
C86_5 C118_5 1_555 1_555
C86_5 C119_5 1_555 1_555
C87_5 C111_5 1_555 1_555
C91_5 C93_5 1_555 1_555
C92_5 C104_5 1_555 1_555
C92_5 C112_5 1_555 1_555
C95_5 C100_5 1_555 1_555
C97_5 C110_5 1_555 1_555
C99_5 C101_5 1_555 1_555
C104_5 C109_5 1_555 1_555
C119_5 N2_5 1_555 1_555
C121_5 N3_5 1_555 1_555
C81_5 H127_5 1_555 1_555
C2_5 C38_5 1_555 1_555
C5_5 H7_5 1_555 1_555
H9_5 C5_5 1_555 1_555
C8_5 H11_5 1_555 1_555
C12_5 C20_5 1_555 1_555
C20_5 H24_5 1_555 1_555
C25_5 C20_5 1_555 1_555
H30_5 C25_5 1_555 1_555
H31_5 C25_5 1_555 1_555
H32_5 C25_5 1_555 1_555
C30_5 C20_5 1_555 1_555
H45_5 C30_5 1_555 1_555
H46_5 C30_5 1_555 1_555
H47_5 C30_5 1_555 1_555
C38_5 H69_5 1_555 1_555
C39_5 C38_5 1_555 1_555
H70_5 C39_5 1_555 1_555
H71_5 C39_5 1_555 1_555
H72_5 C39_5 1_555 1_555
C40_5 C38_5 1_555 1_555
H73_5 C40_5 1_555 1_555
O17_3 C47_5 1_555 1_555
O18_3 C47_5 1_555 1_555
C46_5 H84_5 1_555 1_555
C47_5 C61_5 1_555 1_555
C54_5 H87_5 1_555 1_555
C61_5 C46_5 1_555 1_555
C66_5 H92_5 1_555 1_555
C71_5 C78_5 1_555 1_555
C76_5 C46_5 1_555 1_555
H99_5 C76_5 1_555 1_555
C78_5 C12_5 1_555 1_555
H101_5 C78_5 1_555 1_555
C80_5 C5_5 1_555 1_555
H103_5 C80_5 1_555 1_555
C85_5 C54_5 1_555 1_555
H106_5 C85_5 1_555 1_555
C94_5 C71_5 1_555 1_555
C96_5 C66_5 1_555 1_555
H110_5 C96_5 1_555 1_555
C98_5 C2_5 1_555 1_555
H112_5 C98_5 1_555 1_555
C107_5 C2_5 1_555 1_555
N4_5 C66_5 1_555 1_555
C122_5 N4_5 1_555 1_555
N5_5 C96_5 1_555 1_555
Cu3_5 C122_5 1_555 1_555
Cl3_5 Cu3_5 1_555 1_555
C8_5 C80_5 1_555 1_555
C12_5 C107_5 1_555 1_555
C54_5 C61_5 1_555 1_555
C71_5 C98_5 1_555 1_555
C76_5 C94_5 1_555 1_555
C85_5 C94_5 1_555 1_555
C107_5 N5_5 1_555 1_555
C122_5 N5_5 1_555 1_555
C122_5 H128_5 1_555 1_555
H54_6 C33_6 1_555 1_555
H55_6 C33_6 1_555 1_555
H66_6 C37_6 1_555 1_555
H67_6 C37_6 1_555 1_555
H68_6 C37_6 1_555 1_555
O19_3 C63_6 1_555 1_555
O22_3 C63_6 1_555 1_555
H115_6 C105_6 1_555 1_555
O20_3 C56_6 1_555 1_555
O21_3 C56_6 1_555 1_555
C56_6 C59_6 1_555 1_555
C75_6 C59_6 1_555 1_555
H98_6 C75_6 1_555 1_555
C109_6 C75_6 1_555 1_555
H116_6 C109_6 1_555 1_555
O1_6 N1_6 1_555 1_555
O2_6 N1_6 1_555 1_555
C1_6 H1_6 1_555 1_555
H2_6 C1_6 1_555 1_555
H3_6 C1_6 1_555 1_555
C3_6 H4_6 1_555 1_555
H5_6 C3_6 1_555 1_555
H6_6 C3_6 1_555 1_555
C6_6 C9_6 1_555 1_555
C7_6 H10_6 1_555 1_555
C9_6 C7_6 1_555 1_555
C10_6 H14_6 1_555 1_555
C11_6 H15_6 1_555 1_555
C13_6 H16_6 1_555 1_555
C14_6 H17_6 1_555 1_555
C15_6 C14_6 1_555 1_555
H18_6 C15_6 1_555 1_555
H19_6 C17_6 1_555 1_555
C19_6 C10_6 1_555 1_555
H21_6 C19_6 1_555 1_555
H22_6 C19_6 1_555 1_555
H23_6 C19_6 1_555 1_555
C21_6 C9_6 1_555 1_555
H25_6 C21_6 1_555 1_555
N1_6 O3_6 1_555 1_555
C22_6 H26_6 1_555 1_555
C23_6 C11_6 1_555 1_555
H27_6 C23_6 1_555 1_555
H28_6 C23_6 1_555 1_555
H29_6 C23_6 1_555 1_555
C24_6 C41_6 1_555 1_555
C26_6 C11_6 1_555 1_555
H33_6 C26_6 1_555 1_555
H34_6 C26_6 1_555 1_555
H35_6 C26_6 1_555 1_555
C27_6 C21_6 1_555 1_555
H36_6 C27_6 1_555 1_555
H37_6 C27_6 1_555 1_555
H38_6 C27_6 1_555 1_555
C28_6 C10_6 1_555 1_555
H39_6 C28_6 1_555 1_555
H40_6 C28_6 1_555 1_555
H41_6 C28_6 1_555 1_555
C29_6 C21_6 1_555 1_555
H42_6 C29_6 1_555 1_555
H43_6 C29_6 1_555 1_555
H44_6 C29_6 1_555 1_555
C31_6 H48_6 1_555 1_555
H49_6 C31_6 1_555 1_555
H50_6 C31_6 1_555 1_555
C35_6 C22_6 1_555 1_555
H60_6 C35_6 1_555 1_555
H61_6 C35_6 1_555 1_555
H62_6 C35_6 1_555 1_555
C36_6 C22_6 1_555 1_555
H63_6 C36_6 1_555 1_555
H64_6 C36_6 1_555 1_555
H65_6 C36_6 1_555 1_555
C41_6 H76_6 1_555 1_555
C42_6 C41_6 1_555 1_555
H77_6 C42_6 1_555 1_555
H78_6 C42_6 1_555 1_555
H79_6 C42_6 1_555 1_555
C43_6 C41_6 1_555 1_555
H80_6 C43_6 1_555 1_555
H81_6 C43_6 1_555 1_555
H82_6 C43_6 1_555 1_555
Cu1_6 Cl1_6 1_555 1_555
Zn5 O7_6 1_555 1_555
Zn2_6 O8_6 1_555 1_555
Zn8_3 O1_6 1_555 1_555
Zn10_3 O5_6 1_555 1_555
O5_6 C44_6 1_555 1_555
O7_6 C51_6 1_555 1_555
O8_6 Zn5 1_555 1_555
O9_6 Zn2_6 1_555 1_555
O11_6 Zn2_6 1_555 1_555
O14_6 Zn2_6 1_555 1_555
O15_6 Zn8_3 1_555 1_555
C44_6 O14_6 1_555 1_555
C45_6 H83_6 1_555 1_555
C48_6 C55_6 1_555 1_555
C49_6 H85_6 1_555 1_555
C50_6 C44_6 1_555 1_555
C51_6 O9_6 1_555 1_555
C52_6 C57_6 1_555 1_555
C53_6 C50_6 1_555 1_555
H86_6 C53_6 1_555 1_555
C55_6 H88_6 1_555 1_555
C57_6 H89_6 1_555 1_555
C58_6 O11_6 1_555 1_555
C60_6 C45_6 1_555 1_555
H90_6 C60_6 1_555 1_555
C62_6 C52_6 1_555 1_555
H91_6 C62_6 1_555 1_555
C64_6 C89_6 1_555 1_555
C65_6 C52_6 1_555 1_555
C67_6 C1_6 1_555 1_555
H93_6 C67_6 1_555 1_555
C68_6 H94_6 1_555 1_555
C70_6 H96_6 1_555 1_555
C72_6 C48_6 1_555 1_555
H97_6 C72_6 1_555 1_555
C73_6 C45_6 1_555 1_555
C74_6 C67_6 1_555 1_555
C77_6 C65_6 1_555 1_555
H100_6 C77_6 1_555 1_555
C79_6 C68_6 1_555 1_555
H102_6 C79_6 1_555 1_555
C81_6 N2_6 1_555 1_555
C82_6 H104_6 1_555 1_555
C83_6 H105_6 1_555 1_555
C84_6 C10_6 1_555 1_555
C86_6 C77_6 1_555 1_555
C87_6 C106_6 1_555 1_555
C89_6 C83_6 1_555 1_555
H108_6 C89_6 1_555 1_555
C90_6 C65_6 1_555 1_555
H109_6 C90_6 1_555 1_555
C91_6 C74_6 1_555 1_555
C93_6 C49_6 1_555 1_555
C95_6 C60_6 1_555 1_555
C97_6 C50_6 1_555 1_555
H111_6 C97_6 1_555 1_555
C100_6 C49_6 1_555 1_555
C102_6 C24_6 1_555 1_555
C103_6 H114_6 1_555 1_555
C106_6 C114_6 1_555 1_555
C108_6 C83_6 1_555 1_555
C110_6 C87_6 1_555 1_555
H117_6 C110_6 1_555 1_555
C111_6 C53_6 1_555 1_555
H118_6 C111_6 1_555 1_555
C113_6 C7_6 1_555 1_555
C114_6 C24_6 1_555 1_555
H120_6 C114_6 1_555 1_555
C115_6 C106_6 1_555 1_555
H121_6 C115_6 1_555 1_555
C116_6 C6_6 1_555 1_555
C117_6 C22_6 1_555 1_555
C118_6 C31_6 1_555 1_555
H122_6 C118_6 1_555 1_555
C119_6 C84_6 1_555 1_555
C120_6 C118_6 1_555 1_555
H123_6 C120_6 1_555 1_555
H124_6 C120_6 1_555 1_555
H125_6 C120_6 1_555 1_555
N2_6 C13_6 1_555 1_555
C121_6 C13_6 1_555 1_555
H126_6 C121_6 1_555 1_555
Cu2_6 C81_6 1_555 1_555
Cl2_6 Cu2_6 1_555 1_555
N6_6 C15_6 1_555 1_555
C123_6 Cu1_6 1_555 1_555
N7_6 C6_6 1_555 1_555
O17_4 Zn8_3 1_555 1_555
O18_4 Zn10_3 1_555 1_555
O2_6 Zn8_3 1_555 1_555
C3_6 C67_6 1_555 1_555
C11_6 C116_6 1_555 1_555
C14_6 N7_6 1_555 1_555
Zn8_3 O8_6 1_555 1_555
Zn10_3 O8_6 1_555 1_555
O15_6 C58_6 1_555 1_555
C48_6 C58_6 1_555 1_555
C51_6 C73_6 1_555 1_555
C55_6 C62_6 1_555 1_555
C57_6 C72_6 1_555 1_555
C68_6 C73_6 1_555 1_555
C70_6 C74_6 1_555 1_555
C70_6 C100_6 1_555 1_555
C79_6 C95_6 1_555 1_555
C81_6 N3_6 1_555 1_555
C82_6 C113_6 1_555 1_555
C82_6 C116_6 1_555 1_555
C84_6 C90_6 1_555 1_555
C86_6 C118_6 1_555 1_555
C86_6 C119_6 1_555 1_555
C87_6 C111_6 1_555 1_555
C91_6 C93_6 1_555 1_555
C95_6 C100_6 1_555 1_555
C97_6 C110_6 1_555 1_555
C102_6 C117_6 1_555 1_555
C102_6 N6_6 1_555 1_555
C103_6 C108_6 1_555 1_555
C108_6 C113_6 1_555 1_555
C115_6 C117_6 1_555 1_555
C119_6 N2_6 1_555 1_555
C121_6 N3_6 1_555 1_555
N6_6 C123_6 1_555 1_555
C123_6 N7_6 1_555 1_555
C81_6 H127_6 1_555 1_555
C123_6 H129_6 1_555 1_555
C2_6 C38_6 1_555 1_555
C5_6 H7_6 1_555 1_555
H9_6 C5_6 1_555 1_555
C8_6 H11_6 1_555 1_555
H12_5 C8_6 1_555 1_555
C12_6 C20_6 1_555 1_555
C20_6 H24_6 1_555 1_555
C25_6 C20_6 1_555 1_555
H30_6 C25_6 1_555 1_555
H31_6 C25_6 1_555 1_555
H32_6 C25_6 1_555 1_555
C30_6 C20_6 1_555 1_555
H45_6 C30_6 1_555 1_555
H46_6 C30_6 1_555 1_555
H47_6 C30_6 1_555 1_555
C38_6 H69_6 1_555 1_555
C39_6 C38_6 1_555 1_555
H70_6 C39_6 1_555 1_555
H71_6 C39_6 1_555 1_555
H72_6 C39_6 1_555 1_555
C40_6 C38_6 1_555 1_555
H73_6 C40_6 1_555 1_555
H74_5 C40_6 1_555 1_555
H75_5 C40_6 1_555 1_555
O17_4 C47_6 1_555 1_555
O18_4 C47_6 1_555 1_555
C46_6 H84_6 1_555 1_555
C47_6 C61_6 1_555 1_555
C54_6 H87_6 1_555 1_555
C61_6 C46_6 1_555 1_555
C66_6 H92_6 1_555 1_555
C71_6 C78_6 1_555 1_555
C76_6 C46_6 1_555 1_555
H99_6 C76_6 1_555 1_555
C78_6 C12_6 1_555 1_555
H101_6 C78_6 1_555 1_555
C80_6 C5_6 1_555 1_555
H103_6 C80_6 1_555 1_555
C85_6 C54_6 1_555 1_555
H106_6 C85_6 1_555 1_555
C94_6 C71_6 1_555 1_555
C96_6 C66_6 1_555 1_555
H110_6 C96_6 1_555 1_555
C98_6 C2_6 1_555 1_555
H112_6 C98_6 1_555 1_555
C107_6 C2_6 1_555 1_555
N4_6 C66_6 1_555 1_555
C122_6 N4_6 1_555 1_555
N5_6 C96_6 1_555 1_555
Cu3_6 C122_6 1_555 1_555
Cl3_6 Cu3_6 1_555 1_555
C8_6 C80_6 1_555 1_555
C12_6 C107_6 1_555 1_555
C54_6 C61_6 1_555 1_555
C71_6 C98_6 1_555 1_555
C76_6 C94_6 1_555 1_555
C85_6 C94_6 1_555 1_555
C107_6 N5_6 1_555 1_555
C122_6 N5_6 1_555 1_555
C122_6 H128_6 1_555 1_555
C6_7 C9_7 1_555 1_555
C7_7 H10_7 1_555 1_555
C9_7 C7_7 1_555 1_555
C11_7 H15_7 1_555 1_555
C14_7 H17_7 1_555 1_555
C15_7 C14_7 1_555 1_555
H18_7 C15_7 1_555 1_555
C23_7 C11_7 1_555 1_555
H27_7 C23_7 1_555 1_555
H28_7 C23_7 1_555 1_555
H29_7 C23_7 1_555 1_555
C24_7 C41_7 1_555 1_555
C26_7 C11_7 1_555 1_555
H33_7 C26_7 1_555 1_555
H34_7 C26_7 1_555 1_555
H35_7 C26_7 1_555 1_555
C41_7 H76_7 1_555 1_555
C42_7 C41_7 1_555 1_555
H77_7 C42_7 1_555 1_555
H78_7 C42_7 1_555 1_555
C43_7 C41_7 1_555 1_555
H80_7 C43_7 1_555 1_555
H81_7 C43_7 1_555 1_555
Cu1_7 Cl1_7 1_555 1_555
O10_4 C63_7 1_555 1_555
O16_4 C63_7 1_555 1_555
C63_7 C64_7 1_555 1_555
C64_7 C89_7 1_555 1_555
C82_7 H104_7 1_555 1_555
C83_7 H105_7 1_555 1_555
C89_7 C83_7 1_555 1_555
H108_7 C89_7 1_555 1_555
C102_7 C24_7 1_555 1_555
C103_7 H114_7 1_555 1_555
C105_7 C64_7 1_555 1_555
H115_7 C105_7 1_555 1_555
C108_7 C83_7 1_555 1_555
C113_7 C7_7 1_555 1_555
C116_7 C6_7 1_555 1_555
N6_7 C15_7 1_555 1_555
C123_7 Cu1_7 1_555 1_555
N7_7 C6_7 1_555 1_555
Zn5_2 O10_4 1_555 1_555
Zn8_4 O16_4 1_555 1_555
C11_7 C116_7 1_555 1_555
C14_7 N7_7 1_555 1_555
C82_7 C113_7 1_555 1_555
C82_7 C116_7 1_555 1_555
C102_7 C117_7 1_555 1_555
C102_7 N6_7 1_555 1_555
C103_7 C105_7 1_555 1_555
C103_7 C108_7 1_555 1_555
C108_7 C113_7 1_555 1_555
N6_7 C123_7 1_555 1_555
C123_7 N7_7 1_555 1_555
C123_7 H129_7 1_555 1_555
O1_7 N1_7 1_555 1_555
O2_7 N1_7 1_555 1_555
C1_7 H1_7 1_555 1_555
H2_7 C1_7 1_555 1_555
H3_7 C1_7 1_555 1_555
C2_7 C38_7 1_555 1_555
C3_7 H4_7 1_555 1_555
H5_7 C3_7 1_555 1_555
H6_7 C3_7 1_555 1_555
C4_6 C16_6 1_555 1_555
C5_7 H7_7 1_555 1_555
H8_7 C5_7 1_555 1_555
H9_7 C5_7 1_555 1_555
C8_7 H11_7 1_555 1_555
C10_7 H14_7 1_555 1_555
C12_7 C20_7 1_555 1_555
C13_7 H16_7 1_555 1_555
C16_6 C101_6 1_555 1_555
C17_7 C4_6 1_555 1_555
H19_7 C17_7 1_555 1_555
C18_6 H20_6 1_555 1_555
C19_7 C10_7 1_555 1_555
H21_7 C19_7 1_555 1_555
H22_7 C19_7 1_555 1_555
H23_7 C19_7 1_555 1_555
C20_7 H24_7 1_555 1_555
N1_7 O3_7 1_555 1_555
C25_7 C20_7 1_555 1_555
H30_7 C25_7 1_555 1_555
H31_7 C25_7 1_555 1_555
H32_7 C25_7 1_555 1_555
C28_7 C10_7 1_555 1_555
H39_7 C28_7 1_555 1_555
H40_7 C28_7 1_555 1_555
H41_7 C28_7 1_555 1_555
C30_7 C20_7 1_555 1_555
H45_7 C30_7 1_555 1_555
H46_7 C30_7 1_555 1_555
H47_7 C30_7 1_555 1_555
C31_7 H48_7 1_555 1_555
H49_7 C31_7 1_555 1_555
H50_7 C31_7 1_555 1_555
C32_6 C18_6 1_555 1_555
H51_6 C32_6 1_555 1_555
H52_6 C32_6 1_555 1_555
H53_6 C32_6 1_555 1_555
C33_7 C17_7 1_555 1_555
H54_7 C33_7 1_555 1_555
H55_7 C33_7 1_555 1_555
H56_7 C33_7 1_555 1_555
C34_6 C18_6 1_555 1_555
H57_6 C34_6 1_555 1_555
H58_6 C34_6 1_555 1_555
H59_6 C34_6 1_555 1_555
C37_7 C17_7 1_555 1_555
H66_7 C37_7 1_555 1_555
H67_7 C37_7 1_555 1_555
H68_7 C37_7 1_555 1_555
C38_7 H69_7 1_555 1_555
C39_7 C38_7 1_555 1_555
H70_7 C39_7 1_555 1_555
H71_7 C39_7 1_555 1_555
H72_7 C39_7 1_555 1_555
C40_7 C38_7 1_555 1_555
H73_7 C40_7 1_555 1_555
Zn1_4 O7_7 1_555 1_555
Zn2_7 O8_7 1_555 1_555
Zn7_2 O1_7 1_555 1_555
Zn9_2 O5_7 1_555 1_555
O4_3 C47_7 1_555 1_555
O5_7 C44_7 1_555 1_555
O6_3 C47_7 1_555 1_555
O7_7 C51_7 1_555 1_555
O8_7 Zn1_4 1_555 1_555
O9_7 Zn2_7 1_555 1_555
O11_7 Zn2_7 1_555 1_555
O12_4 C56_7 1_555 1_555
O13_4 C56_7 1_555 1_555
O14_7 Zn2_7 1_555 1_555
O15_7 Zn7_2 1_555 1_555
C44_7 O14_7 1_555 1_555
C45_7 H83_7 1_555 1_555
C46_7 H84_7 1_555 1_555
C47_7 C61_7 1_555 1_555
C48_7 C55_7 1_555 1_555
C49_7 H85_7 1_555 1_555
C50_7 C44_7 1_555 1_555
C51_7 O9_7 1_555 1_555
C52_7 C57_7 1_555 1_555
C53_7 C50_7 1_555 1_555
C54_7 H87_7 1_555 1_555
C55_7 H88_7 1_555 1_555
C56_7 C59_7 1_555 1_555
C57_7 H89_7 1_555 1_555
C58_7 O11_7 1_555 1_555
C59_7 C69_6 1_555 1_555
C60_7 C45_7 1_555 1_555
H90_7 C60_7 1_555 1_555
C61_7 C46_7 1_555 1_555
C62_7 C52_7 1_555 1_555
H91_7 C62_7 1_555 1_555
C65_7 C52_7 1_555 1_555
C66_7 H92_7 1_555 1_555
C67_7 C1_7 1_555 1_555
H93_7 C67_7 1_555 1_555
C68_7 H94_7 1_555 1_555
C69_6 H95_6 1_555 1_555
C70_7 H96_7 1_555 1_555
C71_7 C78_7 1_555 1_555
C72_7 C48_7 1_555 1_555
H97_7 C72_7 1_555 1_555
C73_7 C45_7 1_555 1_555
C74_7 C67_7 1_555 1_555
C75_7 C59_7 1_555 1_555
H98_7 C75_7 1_555 1_555
C76_7 C46_7 1_555 1_555
H99_7 C76_7 1_555 1_555
C77_7 C65_7 1_555 1_555
H100_7 C77_7 1_555 1_555
C78_7 C12_7 1_555 1_555
H101_7 C78_7 1_555 1_555
C79_7 C68_7 1_555 1_555
H102_7 C79_7 1_555 1_555
C80_7 C5_7 1_555 1_555
H103_7 C80_7 1_555 1_555
C81_7 N2_7 1_555 1_555
C84_7 C10_7 1_555 1_555
C85_7 C54_7 1_555 1_555
H106_7 C85_7 1_555 1_555
C86_7 C77_7 1_555 1_555
C87_7 C106_7 1_555 1_555
C88_6 C69_6 1_555 1_555
H107_6 C88_6 1_555 1_555
C90_7 C65_7 1_555 1_555
H109_7 C90_7 1_555 1_555
C91_7 C74_7 1_555 1_555
C92_6 C99_6 1_555 1_555
C93_7 C49_7 1_555 1_555
C94_7 C71_7 1_555 1_555
C95_7 C60_7 1_555 1_555
C96_7 C66_7 1_555 1_555
H110_7 C96_7 1_555 1_555
C97_7 C50_7 1_555 1_555
H111_7 C97_7 1_555 1_555
C98_7 C2_7 1_555 1_555
H112_7 C98_7 1_555 1_555
C99_6 H113_6 1_555 1_555
C100_7 C49_7 1_555 1_555
C101_6 C18_6 1_555 1_555
C104_6 C88_6 1_555 1_555
C106_7 C114_7 1_555 1_555
C107_7 C2_7 1_555 1_555
C109_7 C75_7 1_555 1_555
H116_7 C109_7 1_555 1_555
C110_7 C87_7 1_555 1_555
H117_7 C110_7 1_555 1_555
C111_7 C53_7 1_555 1_555
H118_7 C111_7 1_555 1_555
C112_6 C4_6 1_555 1_555
H119_7 C112_6 1_555 1_555
H120_7 C114_7 1_555 1_555
C115_7 C106_7 1_555 1_555
C118_7 C31_7 1_555 1_555
H122_7 C118_7 1_555 1_555
C119_7 C84_7 1_555 1_555
C120_7 C118_7 1_555 1_555
H123_7 C120_7 1_555 1_555
H124_7 C120_7 1_555 1_555
H125_7 C120_7 1_555 1_555
N2_7 C13_7 1_555 1_555
C121_7 C13_7 1_555 1_555
H126_7 C121_7 1_555 1_555
N3_7 C16_6 1_555 1_555
Cu2_7 C81_7 1_555 1_555
N4_7 C66_7 1_555 1_555
C122_7 N4_7 1_555 1_555
N5_7 C96_7 1_555 1_555
Cu3_7 C122_7 1_555 1_555
Cl3_7 Cu3_7 1_555 1_555
Zn5_2 O12_4 1_555 1_555
Zn10_4 O13_4 1_555 1_555
O19_4 Zn1_4 1_555 1_555
O20_4 Zn1_4 1_555 1_555
O21_4 Zn9_2 1_555 1_555
O22_4 Zn7_2 1_555 1_555
O2_7 Zn7_2 1_555 1_555
C3_7 C67_7 1_555 1_555
C8_7 C80_7 1_555 1_555
C12_7 C107_7 1_555 1_555
Zn7_2 O8_7 1_555 1_555
Zn9_2 O8_7 1_555 1_555
O15_7 C58_7 1_555 1_555
C48_7 C58_7 1_555 1_555
C51_7 C73_7 1_555 1_555
C54_7 C61_7 1_555 1_555
C55_7 C62_7 1_555 1_555
C57_7 C72_7 1_555 1_555
C68_7 C73_7 1_555 1_555
C70_7 C74_7 1_555 1_555
C70_7 C100_7 1_555 1_555
C71_7 C98_7 1_555 1_555
C76_7 C94_7 1_555 1_555
C79_7 C95_7 1_555 1_555
C80_7 C93_7 1_555 1_555
C81_7 N3_7 1_555 1_555
C84_7 C90_7 1_555 1_555
C85_7 C94_7 1_555 1_555
C86_7 C118_7 1_555 1_555
C86_7 C119_7 1_555 1_555
C87_7 C111_7 1_555 1_555
C91_7 C93_7 1_555 1_555
C91_7 N4_7 1_555 1_555
C92_6 C104_6 1_555 1_555
C92_6 C112_6 1_555 1_555
C95_7 C100_7 1_555 1_555
C97_7 C110_7 1_555 1_555
C99_6 C101_6 1_555 1_555
C104_6 C109_7 1_555 1_555
C107_7 N5_7 1_555 1_555
C119_7 N2_7 1_555 1_555
C121_7 N3_7 1_555 1_555
C122_7 N5_7 1_555 1_555
C81_7 H127_7 1_555 1_555
C122_7 H128_7 1_555 1_555
O1_8 N1_8 1_555 1_555
O2_8 N1_8 1_555 1_555
C1_8 H1_8 1_555 1_555
H2_8 C1_8 1_555 1_555
H3_8 C1_8 1_555 1_555
C2_8 C38_8 1_555 1_555
C3_8 H4_8 1_555 1_555
H5_8 C3_8 1_555 1_555
H6_8 C3_8 1_555 1_555
C5_8 H7_8 1_555 1_555
H8_8 C5_8 1_555 1_555
H9_8 C5_8 1_555 1_555
C6_8 C9_8 1_555 1_555
C7_8 H10_8 1_555 1_555
C8_8 H11_8 1_555 1_555
H12_8 C8_8 1_555 1_555
H13_8 C8_8 1_555 1_555
C9_8 C7_8 1_555 1_555
C10_8 H14_8 1_555 1_555
C11_8 H15_8 1_555 1_555
C12_8 C20_8 1_555 1_555
C13_8 H16_8 1_555 1_555
C14_8 H17_8 1_555 1_555
C15_8 C14_8 1_555 1_555
H18_8 C15_8 1_555 1_555
H19_8 C17_8 1_555 1_555
C19_8 C10_8 1_555 1_555
H21_8 C19_8 1_555 1_555
H22_8 C19_8 1_555 1_555
H23_8 C19_8 1_555 1_555
C20_8 H24_8 1_555 1_555
N1_8 O3_8 1_555 1_555
C23_8 C11_8 1_555 1_555
H27_8 C23_8 1_555 1_555
H28_8 C23_8 1_555 1_555
H29_8 C23_8 1_555 1_555
C24_8 C41_8 1_555 1_555
C25_8 C20_8 1_555 1_555
H30_8 C25_8 1_555 1_555
H31_8 C25_8 1_555 1_555
H32_8 C25_8 1_555 1_555
C26_8 C11_8 1_555 1_555
H33_8 C26_8 1_555 1_555
H34_8 C26_8 1_555 1_555
H35_8 C26_8 1_555 1_555
C28_8 C10_8 1_555 1_555
H39_8 C28_8 1_555 1_555
H40_8 C28_8 1_555 1_555
H41_8 C28_8 1_555 1_555
C30_8 C20_8 1_555 1_555
H45_8 C30_8 1_555 1_555
H46_8 C30_8 1_555 1_555
H47_8 C30_8 1_555 1_555
C31_8 H48_8 1_555 1_555
H49_8 C31_8 1_555 1_555
H50_8 C31_8 1_555 1_555
C38_8 H69_8 1_555 1_555
C39_8 C38_8 1_555 1_555
H70_8 C39_8 1_555 1_555
H71_8 C39_8 1_555 1_555
H72_8 C39_8 1_555 1_555
C40_8 C38_8 1_555 1_555
H73_8 C40_8 1_555 1_555
H74_8 C40_8 1_555 1_555
H75_8 C40_8 1_555 1_555
C41_8 H76_8 1_555 1_555
C42_8 C41_8 1_555 1_555
H77_8 C42_8 1_555 1_555
H78_8 C42_8 1_555 1_555
H79_8 C42_8 1_555 1_555
C43_8 C41_8 1_555 1_555
H80_8 C43_8 1_555 1_555
H81_8 C43_8 1_555 1_555
H82_8 C43_8 1_555 1_555
Cu1_8 Cl1_8 1_555 1_555
Zn5_2 O7_8 1_555 1_555
Zn2_8 O8_8 1_555 1_555
Zn8_4 O1_8 1_555 1_555
Zn10_4 O5_8 1_555 1_555
O4_4 C47_8 1_555 1_555
O5_8 C44_8 1_555 1_555
O6_4 C47_8 1_555 1_555
O7_8 C51_8 1_555 1_555
O8_8 Zn5_2 1_555 1_555
O9_8 Zn2_8 1_555 1_555
O11_8 Zn2_8 1_555 1_555
O14_8 Zn2_8 1_555 1_555
O15_8 Zn8_4 1_555 1_555
C44_8 O14_8 1_555 1_555
C45_8 H83_8 1_555 1_555
C46_8 H84_8 1_555 1_555
C47_8 C61_8 1_555 1_555
C48_8 C55_8 1_555 1_555
C49_8 H85_8 1_555 1_555
C50_8 C44_8 1_555 1_555
C51_8 O9_8 1_555 1_555
C52_8 C57_8 1_555 1_555
C53_8 C50_8 1_555 1_555
C54_8 H87_8 1_555 1_555
C55_8 H88_8 1_555 1_555
C57_8 H89_8 1_555 1_555
C58_8 O11_8 1_555 1_555
C60_8 C45_8 1_555 1_555
H90_8 C60_8 1_555 1_555
C61_8 C46_8 1_555 1_555
C62_8 C52_8 1_555 1_555
H91_8 C62_8 1_555 1_555
C64_8 C89_8 1_555 1_555
C65_8 C52_8 1_555 1_555
C66_8 H92_8 1_555 1_555
C67_8 C1_8 1_555 1_555
H93_8 C67_8 1_555 1_555
C68_8 H94_8 1_555 1_555
C70_8 H96_8 1_555 1_555
C71_8 C78_8 1_555 1_555
C72_8 C48_8 1_555 1_555
H97_8 C72_8 1_555 1_555
C73_8 C45_8 1_555 1_555
C74_8 C67_8 1_555 1_555
C76_8 C46_8 1_555 1_555
H99_8 C76_8 1_555 1_555
C77_8 C65_8 1_555 1_555
H100_8 C77_8 1_555 1_555
C78_8 C12_8 1_555 1_555
H101_8 C78_8 1_555 1_555
C79_8 C68_8 1_555 1_555
H102_8 C79_8 1_555 1_555
C80_8 C5_8 1_555 1_555
H103_8 C80_8 1_555 1_555
C81_8 N2_8 1_555 1_555
C82_8 H104_8 1_555 1_555
C83_8 H105_8 1_555 1_555
C84_8 C10_8 1_555 1_555
C85_8 C54_8 1_555 1_555
H106_8 C85_8 1_555 1_555
C86_8 C77_8 1_555 1_555
C87_8 C106_8 1_555 1_555
C89_8 C83_8 1_555 1_555
H108_8 C89_8 1_555 1_555
C90_8 C65_8 1_555 1_555
H109_8 C90_8 1_555 1_555
C91_8 C74_8 1_555 1_555
C93_8 C49_8 1_555 1_555
C94_8 C71_8 1_555 1_555
C95_8 C60_8 1_555 1_555
C96_8 C66_8 1_555 1_555
H110_8 C96_8 1_555 1_555
C97_8 C50_8 1_555 1_555
H111_8 C97_8 1_555 1_555
C98_8 C2_8 1_555 1_555
H112_8 C98_8 1_555 1_555
C100_8 C49_8 1_555 1_555
C102_8 C24_8 1_555 1_555
C103_8 H114_8 1_555 1_555
C106_8 C114_8 1_555 1_555
C107_8 C2_8 1_555 1_555
C108_8 C83_8 1_555 1_555
C110_8 C87_8 1_555 1_555
H117_8 C110_8 1_555 1_555
C111_8 C53_8 1_555 1_555
H118_8 C111_8 1_555 1_555
C113_8 C7_8 1_555 1_555
C114_8 C24_8 1_555 1_555
H120_8 C114_8 1_555 1_555
C115_8 C106_8 1_555 1_555
C116_8 C6_8 1_555 1_555
C118_8 C31_8 1_555 1_555
H122_8 C118_8 1_555 1_555
C119_8 C84_8 1_555 1_555
C120_8 C118_8 1_555 1_555
H123_8 C120_8 1_555 1_555
H124_8 C120_8 1_555 1_555
H125_8 C120_8 1_555 1_555
N2_8 C13_8 1_555 1_555
C121_8 C13_8 1_555 1_555
H126_8 C121_8 1_555 1_555
Cu2_8 C81_8 1_555 1_555
N4_8 C66_8 1_555 1_555
C122_8 N4_8 1_555 1_555
N5_8 C96_8 1_555 1_555
Cu3_8 C122_8 1_555 1_555
Cl3_8 Cu3_8 1_555 1_555
N6_8 C15_8 1_555 1_555
C123_8 Cu1_8 1_555 1_555
N7_8 C6_8 1_555 1_555
O2_8 Zn8_4 1_555 1_555
C3_8 C67_8 1_555 1_555
C8_8 C80_8 1_555 1_555
C11_8 C116_8 1_555 1_555
C12_8 C107_8 1_555 1_555
C14_8 N7_8 1_555 1_555
Zn8_4 O8_8 1_555 1_555
Zn10_4 O8_8 1_555 1_555
O15_8 C58_8 1_555 1_555
C48_8 C58_8 1_555 1_555
C51_8 C73_8 1_555 1_555
C54_8 C61_8 1_555 1_555
C55_8 C62_8 1_555 1_555
C57_8 C72_8 1_555 1_555
C68_8 C73_8 1_555 1_555
C70_8 C74_8 1_555 1_555
C70_8 C100_8 1_555 1_555
C71_8 C98_8 1_555 1_555
C76_8 C94_8 1_555 1_555
C79_8 C95_8 1_555 1_555
C80_8 C93_8 1_555 1_555
C81_8 N3_8 1_555 1_555
C82_8 C113_8 1_555 1_555
C82_8 C116_8 1_555 1_555
C84_8 C90_8 1_555 1_555
C85_8 C94_8 1_555 1_555
C86_8 C118_8 1_555 1_555
C86_8 C119_8 1_555 1_555
C87_8 C111_8 1_555 1_555
C91_8 C93_8 1_555 1_555
C91_8 N4_8 1_555 1_555
C95_8 C100_8 1_555 1_555
C97_8 C110_8 1_555 1_555
C102_8 C117_8 1_555 1_555
C102_8 N6_8 1_555 1_555
C103_8 C108_8 1_555 1_555
C107_8 N5_8 1_555 1_555
C108_8 C113_8 1_555 1_555
C115_8 C117_8 1_555 1_555
C119_8 N2_8 1_555 1_555
C121_8 N3_8 1_555 1_555
C122_8 N5_8 1_555 1_555
N6_8 C123_8 1_555 1_555
C123_8 N7_8 1_555 1_555
C81_8 H127_8 1_555 1_555
C122_8 H128_8 1_555 1_555
C123_8 H129_8 1_555 1_555
H25_7 C21_7 1_555 1_555
C22_7 H26_7 1_555 1_555
C27_7 C21_7 1_555 1_555
H36_7 C27_7 1_555 1_555
H37_7 C27_7 1_555 1_555
H38_7 C27_7 1_555 1_555
C29_7 C21_7 1_555 1_555
H42_7 C29_7 1_555 1_555
H43_7 C29_7 1_555 1_555
H44_7 C29_7 1_555 1_555
C35_7 C22_7 1_555 1_555
H60_7 C35_7 1_555 1_555
H61_7 C35_7 1_555 1_555
H62_7 C35_7 1_555 1_555
C36_7 C22_7 1_555 1_555
H63_7 C36_7 1_555 1_555
H64_7 C36_7 1_555 1_555
H65_7 C36_7 1_555 1_555
H54_8 C33_8 1_555 1_555
H55_8 C33_8 1_555 1_555
H66_8 C37_8 1_555 1_555
H67_8 C37_8 1_555 1_555
H68_8 C37_8 1_555 1_555
O19_4 C63_8 1_555 1_555
O22_4 C63_8 1_555 1_555
H115_8 C105_8 1_555 1_555
O20_4 C56_8 1_555 1_555
O21_4 C56_8 1_555 1_555
C56_8 C59_8 1_555 1_555
C75_8 C59_8 1_555 1_555
H98_8 C75_8 1_555 1_555
C109_8 C75_8 1_555 1_555
H116_8 C109_8 1_555 1_555
H25_8 C21_8 1_555 1_555
C22_8 H26_8 1_555 1_555
C27_8 C21_8 1_555 1_555
H36_8 C27_8 1_555 1_555
H37_8 C27_8 1_555 1_555
H38_8 C27_8 1_555 1_555
C29_8 C21_8 1_555 1_555
H42_8 C29_8 1_555 1_555
H43_8 C29_8 1_555 1_555
H44_8 C29_8 1_555 1_555
C35_8 C22_8 1_555 1_555
H60_8 C35_8 1_555 1_555
H61_8 C35_8 1_555 1_555
H62_8 C35_8 1_555 1_555
C36_8 C22_8 1_555 1_555
H63_8 C36_8 1_555 1_555
H64_8 C36_8 1_555 1_555
H65_8 C36_8 1_555 1_555
C4_7 C16_7 1_555 1_555
C16_7 C101_7 1_555 1_555
C18_7 H20_7 1_555 1_555
C32_7 C18_7 1_555 1_555
H51_7 C32_7 1_555 1_555
H52_7 C32_7 1_555 1_555
H53_7 C32_7 1_555 1_555
C34_7 C18_7 1_555 1_555
H57_7 C34_7 1_555 1_555
H58_7 C34_7 1_555 1_555
H59_7 C34_7 1_555 1_555
C69_7 H95_7 1_555 1_555
C88_7 C69_7 1_555 1_555
H107_7 C88_7 1_555 1_555
C92_7 C99_7 1_555 1_555
C99_7 H113_7 1_555 1_555
C101_7 C18_7 1_555 1_555
C104_7 C88_7 1_555 1_555
C112_7 C4_7 1_555 1_555
C92_7 C104_7 1_555 1_555
C92_7 C112_7 1_555 1_555
C99_7 C101_7 1_555 1_555
C4_8 C16_8 1_555 1_555
C16_8 C101_8 1_555 1_555
C18_8 H20_8 1_555 1_555
C32_8 C18_8 1_555 1_555
H51_8 C32_8 1_555 1_555
H52_8 C32_8 1_555 1_555
H53_8 C32_8 1_555 1_555
C34_8 C18_8 1_555 1_555
H57_8 C34_8 1_555 1_555
H58_8 C34_8 1_555 1_555
H59_8 C34_8 1_555 1_555
C69_8 H95_8 1_555 1_555
C88_8 C69_8 1_555 1_555
H107_8 C88_8 1_555 1_555
C92_8 C99_8 1_555 1_555
C99_8 H113_8 1_555 1_555
C101_8 C18_8 1_555 1_555
C104_8 C88_8 1_555 1_555
C112_8 C4_8 1_555 1_555
C92_8 C104_8 1_555 1_555
C92_8 C112_8 1_555 1_555
C99_8 C101_8 1_555 1_555

#END
