
###############################################################################
#
# This file contains modified crystal structure data generated from the
# MOF subset of the Cambridge Structural Database (CSD) v543 
# hosted by the Cambridge Crystallographic Data Centre (CCDC).
#
# This work is licensed under the Creative Commons
# Attribution-NonCommercial-ShareAlike 4.0 International License.
# To view a copy of this license, visit
# http://creativecommons.org/licenses/by-nc-sa/4.0/
# or send a letter to
# Creative Commons, PO Box 1866, Mountain View, CA 94042, USA.
#
# CIF created using the CSD Python API on 29 September 2022
# The structure has been converted into the P1 space group
# The structure has a 3D framework
# The original CSD entry NAQLAT is in the monoclinic crystal system
# The framework has been calculated to contain at least 10.0% void space
# The void calculation uses a probe of radius 1.32A, grid spacing 0.4
#
###############################################################################

data_NAQLAT
_chemical_formula_moiety         '(C148 H96 N8 O48 Zn12)n'
_symmetry_cell_setting           triclinic
_symmetry_space_group_name_H-M   'P 1'
_symmetry_Int_Tables_number      1
_space_group_name_Hall           'P 1'
loop_
_symmetry_equiv_pos_site_id
_symmetry_equiv_pos_as_xyz
1 x,y,z
_cell_length_a                   14.5949(14)
_cell_length_b                   12.5583(12)
_cell_length_c                   25.741(3)
_cell_angle_alpha                90
_cell_angle_beta                 100.093(2)
_cell_angle_gamma                90
_cell_volume                     4644.98
loop_
_atom_site_label
_atom_site_type_symbol
_atom_site_fract_x
_atom_site_fract_y
_atom_site_fract_z
Zn3 Zn 0.06995(4) 0.07522(4) 0.529836(19)
O2 O 0.3446(2) 0.2095(3) 0.29325(12)
O6 O 0.0845(3) 0.0904(3) 0.45365(12)
N2 N 0.1784(3) 0.1605(3) 0.56874(15)
C2 C 0.2833(4) 0.1907(4) 0.6503(2)
H1 H 0.2986 0.1806 0.6874
C4 C 0.4538(5) 0.3670(5) 0.5671(3)
H2 H 0.4909 0.4097 0.5485
O9 O 0.4598(3) 0.3239(3) 0.01962(17)
C6 C 0.0489(3) 0.0435(4) 0.41229(18)
C8 C 0.1086(3) 0.0140(4) 0.27565(18)
C9 C 0.0638(3) 0.0012(4) 0.31853(18)
C10 C 0.0930(3) 0.0594(4) 0.36471(17)
C11 C 0.3423(4) 0.2484(4) 0.6237(2)
C12 C 0.2311(4) 0.2164(4) 0.5438(2)
H5 H 0.2126 0.2260 0.5068
C15 C 0.2045(4) 0.1493(4) 0.6228(2)
H8 H 0.1648 0.1103 0.6414
C17 C 0.4306(4) 0.2923(5) 0.6502(3)
H10 H 0.4506 0.2828 0.6871
C18 C 0.3170(4) 0.2651(4) 0.5694(2)
C20 C 0.4837(4) 0.3474(5) 0.6208(3)
H12 H 0.5428 0.3732 0.6374
C23 C 0.3722(4) 0.3257(5) 0.5412(2)
H14 H 0.3529 0.3378 0.5045
O11 O 0.3188(2) 0.2608(3) 0.37279(12)
O13 O 0.2929(3) 0.0524(3) 0.11895(14)
C27 C 0.1837(3) 0.0828(4) 0.27880(17)
H18 H 0.2145 0.0907 0.2494
C28 C 0.2328(3) 0.1229(4) 0.03444(18)
C31 C 0.2144(4) 0.1404(4) 0.32503(18)
C32 C 0.1683(3) 0.1289(4) 0.36758(18)
H20 H 0.1883 0.1686 0.3989
C33 C 0.3064(3) 0.1947(4) 0.03441(18)
H21 H 0.3575 0.1947 0.0629
C34 C 0.2314(4) 0.0487(4) 0.08023(18)
C36 C 0.2982(3) 0.2084(4) 0.33010(18)
Zn5 Zn 0.38344(4) 0.39521(4) 0.376596(19)
Zn7 Zn 0.48268(4) 0.22139(4) 0.30551(2)
Zn10 Zn 0.56995(4) 0.42478(4) 0.029836(19)
O17 O 0.0185(3) 0.0178(3) 0.59228(14)
O1 O 0.0810(2) 0.2467(3) 0.86641(12)
N1 N 0.0424(3) 0.3349(3) 0.74540(15)
O7 O 0.3631(3) 0.4300(3) 0.96967(16)
C1 C 0.1685(3) 0.4235(4) 0.71450(18)
C5 C 0.3051(3) 0.2662(4) 0.99287(17)
C7 C 0.3819(3) 0.3456(4) 0.99374(17)
C13 C 0.1245(4) 0.3820(4) 0.75501(19)
H6 H 0.1554 0.3882 0.7906
C16 C 0.2569(4) 0.4749(5) 0.7261(2)
H9 H 0.2876 0.4821 0.7616
C19 C 0.2971(4) 0.5135(5) 0.6863(2)
H11 H 0.3556 0.5485 0.6939
C21 C 0.0362(4) 0.3607(5) 0.6530(2)
H13 H 0.0037 0.3517 0.6179
C22 C 0.1233(4) 0.4118(4) 0.6621(2)
C24 C 0.2516(4) 0.5012(5) 0.6334(2)
H15 H 0.2804 0.5285 0.6058
C25 C 0.1681(4) 0.4517(5) 0.6210(2)
H16 H 0.1396 0.4435 0.5851
O12 O 0.0100(2) 0.1319(3) 0.91268(13)
C26 C 0.1604(3) 0.1221(4) 0.99174(17)
H17 H 0.1112 0.0722 0.9909
C29 C 0.1584(3) 0.1926(4) 0.95033(16)
C30 C 0.2306(3) 0.2657(4) 0.95118(18)
H19 H 0.2288 0.3153 0.9231
C35 C 0.0768(3) 0.1904(4) 0.90603(18)
C37 C 0.0499(5) 0.4932(5) 0.8702(3)
H22 H 0.0881 0.5222 0.8458
H23 H 0.0242 0.5519 0.8882
H24 H 0.0884 0.4478 0.8963
Zn8 Zn 0.43005(4) 0.57522(4) 0.970164(19)
Zn1 Zn 0.11656(4) 0.89521(4) 0.123404(19)
O3 O 0.1606(2) 0.9867(3) 0.07367(12)
O4 O 0.1250(2) 0.9682(3) 0.19009(12)
O5 O 0.0244(2) 0.8726(3) 0.22802(12)
C3 C 0.0827(3) 0.9454(4) 0.22773(17)
H3 H 0.0132 0.9529 0.3165
Zn6 Zn 0.01732(4) 0.72139(4) 0.19449(2)
O16 O 0.1369(3) 0.9300(3) 0.53033(16)
O19 O 0.1812(2) 0.7608(3) 0.12721(12)
O18 O 0.9598(3) 0.1761(3) 0.51962(17)
Zn2 Zn 0.98268(4) 0.27861(4) 0.80551(2)
O10 O 0.9767(3) 0.4326(3) 0.84178(14)
H4 H 0.9331 0.4819 0.8230
C14 C 0.9987(4) 0.3243(5) 0.69414(19)
H7 H 0.9398 0.2901 0.6871
Zn4 Zn 0.88344(4) 0.10479(4) 0.876596(19)
O14 O 0.8446(2) 0.2905(3) 0.79325(12)
O15 O 0.9756(2) 0.1274(3) 0.77198(12)
O8 O 0.9815(3) 0.9822(3) 0.40772(14)
Zn9 Zn 0.93005(4) 0.92478(4) 0.470164(19)
O20 O 0.9900(2) 0.8681(3) 0.08732(13)
C19_2 C 0.2029(4) 0.0135(5) 0.8137(2)
H11_2 H 0.1444 0.0485 0.8061
C24_2 C 0.2484(4) 0.0012(5) 0.8666(2)
H15_2 H 0.2196 0.0285 0.8942
H22_2 H 0.4119 0.0222 0.6542
H23_2 H 0.4758 0.0519 0.6118
Zn2_2 Zn 0.51732(4) 0.77861(4) 0.69449(2)
O1_2 O 0.4190(2) 0.7467(3) 0.63359(12)
O2_2 O 0.1554(2) 0.7095(3) 0.20675(12)
O3_2 O 0.3394(2) 0.4867(3) 0.42633(12)
O4_2 O 0.3750(2) 0.4682(3) 0.30991(12)
O5_2 O 0.4756(2) 0.3726(3) 0.27198(12)
O6_2 O 0.4155(3) 0.5904(3) 0.04635(12)
N1_2 N 0.4576(3) 0.8349(3) 0.75460(15)
C1_2 C 0.3315(3) 0.9235(4) 0.78550(18)
C3_2 C 0.4173(3) 0.4454(4) 0.27227(17)
O8_2 O 0.5185(3) 0.4822(3) 0.09228(14)
C5_2 C 0.1949(3) 0.7662(4) 0.50713(17)
O9_2 O 0.0402(3) 0.8239(3) 0.48038(17)
C6_2 C 0.4511(3) 0.5435(4) 0.08771(18)
C7_2 C 0.1181(3) 0.8456(4) 0.50626(17)
C8_2 C 0.3914(3) 0.5140(4) 0.22435(18)
C9_2 C 0.4362(3) 0.5012(4) 0.18147(18)
H3_2 H 0.4868 0.4529 0.1835
C10_2 C 0.4070(3) 0.5594(4) 0.13529(17)
O10_2 O 0.5233(3) 0.9326(3) 0.65822(14)
H4_2 H 0.5669 0.9819 0.6770
C13_2 C 0.3755(4) 0.8820(4) 0.74499(19)
H6_2 H 0.3446 0.8882 0.7094
C14_2 C 0.5013(4) 0.8243(5) 0.80586(19)
H7_2 H 0.5602 0.7901 0.8129
C16_2 C 0.2431(4) 0.9749(5) 0.7739(2)
H9_2 H 0.2124 0.9821 0.7384
C21_2 C 0.4638(4) 0.8607(5) 0.8470(2)
H13_2 H 0.4963 0.8517 0.8821
C22_2 C 0.3767(4) 0.9118(4) 0.8379(2)
C25_2 C 0.3319(4) 0.9517(5) 0.8790(2)
H16_2 H 0.3604 0.9435 0.9149
O12_2 O 0.4900(2) 0.6319(3) 0.58732(13)
O13_2 O 0.2071(3) 0.5524(3) 0.38105(14)
C26_2 C 0.3396(3) 0.6221(4) 0.50826(17)
H17_2 H 0.3888 0.5722 0.5091
C27_2 C 0.3163(3) 0.5828(4) 0.22120(17)
H18_2 H 0.2855 0.5907 0.2506
C28_2 C 0.2672(3) 0.6229(4) 0.46556(18)
C29_2 C 0.3416(3) 0.6926(4) 0.54967(16)
C30_2 C 0.2694(3) 0.7657(4) 0.54882(18)
H19_2 H 0.2712 0.8153 0.5769
C31_2 C 0.2856(4) 0.6404(4) 0.17497(18)
C32_2 C 0.3317(3) 0.6289(4) 0.13242(18)
H20_2 H 0.3117 0.6686 0.1011
C33_2 C 0.1936(3) 0.6947(4) 0.46559(18)
H21_2 H 0.1425 0.6947 0.4371
C34_2 C 0.2686(4) 0.5487(4) 0.41977(18)
C35_2 C 0.4232(3) 0.6904(4) 0.59397(18)
C36_2 C 0.2018(3) 0.7084(4) 0.16990(18)
C37_2 C 0.4501(5) 0.9932(5) 0.6298(3)
H24_2 H 0.4116 0.9478 0.6037
Zn4_2 Zn 0.61656(4) 0.60479(4) 0.623404(19)
O14_2 O 0.6554(2) 0.7905(3) 0.70675(12)
O15_2 O 0.5244(2) 0.6274(3) 0.72802(12)
O20_2 O 0.5100(2) 0.3681(3) 0.41268(13)
N2_2 N 0.3216(3) 0.6605(3) 0.93126(15)
C2_2 C 0.2167(4) 0.6907(4) 0.8497(2)
H1_2 H 0.2014 0.6806 0.8126
C4_2 C 0.0462(5) 0.8670(5) 0.9329(3)
H2_2 H 0.0091 0.9097 0.9515
C11_2 C 0.1577(4) 0.7484(4) 0.8763(2)
C12_2 C 0.2689(4) 0.7164(4) 0.9562(2)
H5_2 H 0.2874 0.7260 0.9932
C15_2 C 0.2955(4) 0.6493(4) 0.8772(2)
H8_2 H 0.3352 0.6103 0.8586
C17_2 C 0.0694(4) 0.7923(5) 0.8498(3)
H10_2 H 0.0494 0.7828 0.8129
C18_2 C 0.1830(4) 0.7651(4) 0.9306(2)
C20_2 C 0.0163(4) 0.8474(5) 0.8792(3)
C23_2 C 0.1278(4) 0.8257(5) 0.9588(2)
H14_2 H 0.1471 0.8378 0.9955
O17_2 O 0.4815(3) 0.5178(3) 0.90772(14)
O18_2 O 0.5402(3) 0.6761(3) 0.98038(17)
O10_3 O 0.0233(3) 0.5674(3) 0.15822(14)
H4_3 H 0.0669 0.5181 0.1770
C14_3 C 0.0013(4) 0.6757(5) 0.30586(19)
H7_3 H 0.0602 0.7099 0.3129
O3_3 O 0.8394(2) 0.0133(3) 0.92633(12)
O4_3 O 0.8750(2) 0.0318(3) 0.80991(12)
C3_3 C 0.9173(3) 0.0546(4) 0.77227(17)
H3_3 H 0.9868 0.0471 0.6835
O16_2 O 0.8631(3) 0.0700(3) 0.46967(16)
O19_2 O 0.8188(2) 0.2392(3) 0.87279(12)
O1_3 O 0.9190(2) 0.7533(3) 0.13359(12)
N1_3 N 0.9576(3) 0.6651(3) 0.25460(15)
O7_2 O 0.6369(3) 0.5700(3) 0.03033(16)
C1_3 C 0.8315(3) 0.5765(4) 0.28550(18)
C5_3 C 0.6949(3) 0.7338(4) 0.00713(17)
C7_3 C 0.6181(3) 0.6544(4) 0.00626(17)
C13_3 C 0.8755(4) 0.6180(4) 0.24499(19)
H6_3 H 0.8446 0.6118 0.2094
C16_3 C 0.7431(4) 0.5251(5) 0.2739(2)
H9_3 H 0.7124 0.5179 0.2384
C19_3 C 0.7029(4) 0.4865(5) 0.3137(2)
H11_3 H 0.6444 0.4515 0.3061
C21_3 C 0.9638(4) 0.6393(5) 0.3470(2)
H13_3 H 0.9963 0.6483 0.3821
C22_3 C 0.8767(4) 0.5882(4) 0.3379(2)
C24_3 C 0.7484(4) 0.4988(5) 0.3666(2)
H15_3 H 0.7196 0.4715 0.3942
C25_3 C 0.8319(4) 0.5483(5) 0.3790(2)
H16_3 H 0.8604 0.5565 0.4149
C26_3 C 0.8396(3) 0.8779(4) 0.00826(17)
H17_3 H 0.8888 0.9278 0.0091
C29_3 C 0.8416(3) 0.8074(4) 0.04967(16)
C30_3 C 0.7694(3) 0.7343(4) 0.04882(18)
H19_3 H 0.7712 0.6847 0.0769
C35_3 C 0.9232(3) 0.8096(4) 0.09397(18)
C37_3 C 0.9501(5) 0.5068(5) 0.1298(3)
H22_3 H 0.9119 0.4778 0.1542
H23_3 H 0.9758 0.4481 0.1118
H24_3 H 0.9116 0.5522 0.1037
O6_3 O 0.9155(3) 0.9096(3) 0.54635(12)
N2_3 N 0.8216(3) 0.8395(3) 0.43126(15)
C2_3 C 0.7167(4) 0.8093(4) 0.3497(2)
H1_3 H 0.7014 0.8194 0.3126
C4_3 C 0.5462(5) 0.6330(5) 0.4329(3)
H2_3 H 0.5091 0.5903 0.4515
C6_3 C 0.9511(3) 0.9565(4) 0.58771(18)
C8_3 C 0.8914(3) 0.9860(4) 0.72435(18)
C9_3 C 0.9362(3) 0.9988(4) 0.68147(18)
C10_3 C 0.9070(3) 0.9406(4) 0.63529(17)
C11_3 C 0.6577(4) 0.7516(4) 0.3763(2)
C12_3 C 0.7689(4) 0.7836(4) 0.4562(2)
H5_3 H 0.7874 0.7740 0.4932
C15_3 C 0.7955(4) 0.8507(4) 0.3772(2)
H8_3 H 0.8352 0.8897 0.3586
C17_3 C 0.5694(4) 0.7077(5) 0.3498(3)
H10_3 H 0.5494 0.7172 0.3129
C18_3 C 0.6830(4) 0.7349(4) 0.4306(2)
C20_3 C 0.5163(4) 0.6526(5) 0.3792(3)
H12_2 H 0.4572 0.6268 0.3626
C23_3 C 0.6278(4) 0.6743(5) 0.4588(2)
H14_3 H 0.6471 0.6622 0.4955
O11_2 O 0.6812(2) 0.7392(3) 0.62721(12)
O13_3 O 0.7071(3) 0.9476(3) 0.88105(14)
C27_3 C 0.8163(3) 0.9172(4) 0.72120(17)
H18_3 H 0.7855 0.9093 0.7506
C28_3 C 0.7672(3) 0.8771(4) 0.96556(18)
C31_3 C 0.7856(4) 0.8596(4) 0.67497(18)
C32_3 C 0.8317(3) 0.8711(4) 0.63242(18)
H20_3 H 0.8117 0.8314 0.6011
C33_3 C 0.6936(3) 0.8053(4) 0.96559(18)
H21_3 H 0.6425 0.8053 0.9371
C34_3 C 0.7686(4) 0.9513(4) 0.91977(18)
C36_3 C 0.7018(3) 0.7916(4) 0.66990(18)
N2_4 N 0.6784(3) 0.3395(3) 0.06874(15)
C2_4 C 0.7833(4) 0.3093(4) 0.1503(2)
H1_4 H 0.7986 0.3194 0.1874
C4_4 C 0.9538(5) 0.1330(5) 0.0671(3)
H2_4 H 0.9909 0.0903 0.0485
C11_4 C 0.8423(4) 0.2516(4) 0.1237(2)
C12_4 C 0.7311(4) 0.2836(4) 0.0438(2)
H5_4 H 0.7126 0.2740 0.0068
C15_4 C 0.7045(4) 0.3507(4) 0.1228(2)
H8_4 H 0.6648 0.3897 0.1414
C17_4 C 0.9306(4) 0.2077(5) 0.1502(3)
H10_4 H 0.9506 0.2172 0.1871
C18_4 C 0.8170(4) 0.2349(4) 0.0694(2)
C20_4 C 0.9837(4) 0.1526(5) 0.1208(3)
C23_4 C 0.8722(4) 0.1743(5) 0.0412(2)
H14_4 H 0.8529 0.1622 0.0045
O1_4 O 0.5810(2) 0.2533(3) 0.36641(12)
O3_4 O 0.6606(2) 0.5133(3) 0.57367(12)
O4_4 O 0.6250(2) 0.5318(3) 0.69009(12)
O6_4 O 0.5845(3) 0.4096(3) 0.95365(12)
N1_4 N 0.5424(3) 0.1651(3) 0.24540(15)
C1_4 C 0.6685(3) 0.0765(4) 0.21450(18)
C3_4 C 0.5827(3) 0.5546(4) 0.72773(17)
C5_4 C 0.8051(3) 0.2338(4) 0.49287(17)
C6_4 C 0.5489(3) 0.4565(4) 0.91229(18)
C7_4 C 0.8819(3) 0.1544(4) 0.49374(17)
C8_4 C 0.6086(3) 0.4860(4) 0.77565(18)
C9_4 C 0.5638(3) 0.4988(4) 0.81853(18)
H3_4 H 0.5132 0.5471 0.8165
C10_4 C 0.5930(3) 0.4406(4) 0.86471(17)
O10_4 O 0.4767(3) 0.0674(3) 0.34178(14)
H4_4 H 0.4331 0.0181 0.3230
C13_4 C 0.6245(4) 0.1180(4) 0.25501(19)
H6_4 H 0.6554 0.1118 0.2906
C14_4 C 0.4987(4) 0.1757(5) 0.19414(19)
H7_4 H 0.4398 0.2099 0.1871
C16_4 C 0.7569(4) 0.0251(5) 0.2261(2)
H9_4 H 0.7876 0.0179 0.2616
C21_4 C 0.5362(4) 0.1393(5) 0.1530(2)
H13_4 H 0.5037 0.1483 0.1179
C22_4 C 0.6233(4) 0.0882(4) 0.1621(2)
C25_4 C 0.6681(4) 0.0483(5) 0.1210(2)
H16_4 H 0.6396 0.0565 0.0851
O13_4 O 0.7929(3) 0.4476(3) 0.61895(14)
C26_4 C 0.6604(3) 0.3779(4) 0.49174(17)
H17_4 H 0.6112 0.4278 0.4909
C27_4 C 0.6837(3) 0.4172(4) 0.77880(17)
H18_4 H 0.7145 0.4093 0.7494
C28_4 C 0.7328(3) 0.3771(4) 0.53444(18)
C29_4 C 0.6584(3) 0.3074(4) 0.45033(16)
C30_4 C 0.7306(3) 0.2343(4) 0.45118(18)
H19_4 H 0.7288 0.1847 0.4231
C31_4 C 0.7144(4) 0.3596(4) 0.82503(18)
C32_4 C 0.6683(3) 0.3711(4) 0.86758(18)
H20_4 H 0.6883 0.3314 0.8989
C33_4 C 0.8064(3) 0.3053(4) 0.53441(18)
H21_4 H 0.8575 0.3053 0.5629
C34_4 C 0.7314(4) 0.4513(4) 0.58023(18)
C35_4 C 0.5768(3) 0.3096(4) 0.40603(18)
C36_4 C 0.7982(3) 0.2916(4) 0.83010(18)
C37_4 C 0.5499(5) 0.0068(5) 0.3702(3)
H24_4 H 0.5884 0.0522 0.3963
C19_4 C 0.7971(4) 0.9865(5) 0.1863(2)
H11_4 H 0.8556 0.9515 0.1939
C24_4 C 0.7516(4) 0.9988(5) 0.1334(2)
H15_4 H 0.7804 0.9715 0.1058
H22_4 H 0.5881 0.9778 0.3458
H23_4 H 0.5242 0.9481 0.3882
H12_3 H 0.9572 0.8732 0.8626
H12_4 H 0.0428 0.1268 0.1374
loop_
_geom_bond_atom_site_label_1
_geom_bond_atom_site_label_2
_geom_bond_site_symmetry_1
_geom_bond_site_symmetry_2
Zn3 O6 1_555 1_555
O2 C36 1_555 1_555
O6 C6 1_555 1_555
N2 Zn3 1_555 1_555
C2 H1 1_555 1_555
C4 H2 1_555 1_555
C6 C10 1_555 1_555
C9 C8 1_555 1_555
C10 C9 1_555 1_555
C11 C2 1_555 1_555
C12 N2 1_555 1_555
H5 C12 1_555 1_555
C15 N2 1_555 1_555
H8 C15 1_555 1_555
C17 C11 1_555 1_555
H10 C17 1_555 1_555
C18 C11 1_555 1_555
C20 C4 1_555 1_555
H12 C20 1_555 1_555
C23 C4 1_555 1_555
H14 C23 1_555 1_555
O11 C36 1_555 1_555
O13 C34 1_555 1_555
C27 C8 1_555 1_555
H18 C27 1_555 1_555
C31 C27 1_555 1_555
C32 C10 1_555 1_555
H20 C32 1_555 1_555
H21 C33 1_555 1_555
C34 C28 1_555 1_555
C36 C31 1_555 1_555
Zn5 O11 1_555 1_555
Zn7 O2 1_555 1_555
Zn10 O9 1_555 1_555
O17 Zn3 1_555 1_555
C2 C15 1_555 1_555
C12 C18 1_555 1_555
C17 C20 1_555 1_555
C18 C23 1_555 1_555
C28 C33 1_555 1_555
C31 C32 1_555 1_555
O1 C35 1_555 1_555
O7 C7 1_555 1_555
C1 C13 1_555 1_555
C5 C7 1_555 1_555
C13 N1 1_555 1_555
H6 C13 1_555 1_555
C16 C1 1_555 1_555
H9 C16 1_555 1_555
C19 C16 1_555 1_555
H11 C19 1_555 1_555
H13 C21 1_555 1_555
C22 C1 1_555 1_555
C24 C19 1_555 1_555
H15 C24 1_555 1_555
C25 C22 1_555 1_555
H16 C25 1_555 1_555
O12 C35 1_555 1_555
C26 H17 1_555 1_555
C29 C26 1_555 1_555
C30 C5 1_555 1_555
H19 C30 1_555 1_555
C35 C29 1_555 1_555
H22 C37 1_555 1_555
H23 C37 1_555 1_555
H24 C37 1_555 1_555
Zn8 O7 1_555 1_555
C21 C22 1_555 1_555
C24 C25 1_555 1_555
C29 C30 1_555 1_555
Zn1 O3 1_555 1_555
O4 Zn1 1_555 1_555
O5 C3 1_555 1_555
C3 O4 1_555 1_555
Zn6 O5 1_555 1_555
O19 Zn1 1_555 1_555
O10 Zn2 1_555 1_555
H4 O10 1_555 1_555
H7 C14 1_555 1_555
O14 Zn2 1_555 1_555
O15 Zn2 1_555 1_555
Zn9 O8 1_555 1_555
H11_2 C19_2 1_555 1_555
C24_2 C19_2 1_555 1_555
H15_2 C24_2 1_555 1_555
Zn5 O3_2 1_555 1_555
Zn2_2 O1_2 1_555 1_555
O1_2 C35_2 1_555 1_555
O2_2 C36_2 1_555 1_555
O3_2 C34_2 1_555 1_555
O4_2 Zn5 1_555 1_555
O5_2 C3_2 1_555 1_555
O6_2 C6_2 1_555 1_555
N1_2 Zn2_2 1_555 1_555
O16 C7_2 1_555 1_555
C1_2 C13_2 1_555 1_555
C3_2 O4_2 1_555 1_555
O8_2 C6_2 1_555 1_555
C5_2 C7_2 1_555 1_555
O9_2 C7_2 1_555 1_555
C6_2 C10_2 1_555 1_555
C8_2 C3_2 1_555 1_555
C9_2 C8_2 1_555 1_555
H3_2 C9_2 1_555 1_555
C10_2 C9_2 1_555 1_555
O10_2 Zn2_2 1_555 1_555
H4_2 O10_2 1_555 1_555
C13_2 N1_2 1_555 1_555
H6_2 C13_2 1_555 1_555
C14_2 N1_2 1_555 1_555
H7_2 C14_2 1_555 1_555
C16_2 C1_2 1_555 1_555
H9_2 C16_2 1_555 1_555
C21_2 C14_2 1_555 1_555
H13_2 C21_2 1_555 1_555
C22_2 C1_2 1_555 1_555
C25_2 C22_2 1_555 1_555
H16_2 C25_2 1_555 1_555
O19 C36_2 1_555 1_555
O12_2 C35_2 1_555 1_555
O13_2 C34_2 1_555 1_555
C26_2 H17_2 1_555 1_555
C27_2 C8_2 1_555 1_555
H18_2 C27_2 1_555 1_555
C28_2 C26_2 1_555 1_555
C29_2 C26_2 1_555 1_555
C30_2 C5_2 1_555 1_555
H19_2 C30_2 1_555 1_555
C31_2 C27_2 1_555 1_555
C32_2 C10_2 1_555 1_555
H20_2 C32_2 1_555 1_555
C33_2 C5_2 1_555 1_555
H21_2 C33_2 1_555 1_555
C34_2 C28_2 1_555 1_555
C35_2 C29_2 1_555 1_555
C36_2 C31_2 1_555 1_555
C37_2 O10_2 1_555 1_555
H24_2 C37_2 1_555 1_555
Zn4_2 O12_2 1_555 1_555
Zn7 O5_2 1_555 1_555
Zn6 O2_2 1_555 1_555
Zn10 O8_2 1_555 1_555
O14_2 Zn2_2 1_555 1_555
O15_2 Zn2_2 1_555 1_555
O20_2 Zn5 1_555 1_555
C21_2 C22_2 1_555 1_555
C28_2 C33_2 1_555 1_555
C29_2 C30_2 1_555 1_555
C31_2 C32_2 1_555 1_555
N2_2 Zn8 1_555 1_555
C2_2 H1_2 1_555 1_555
C4_2 H2_2 1_555 1_555
C11_2 C2_2 1_555 1_555
C12_2 N2_2 1_555 1_555
H5_2 C12_2 1_555 1_555
C15_2 N2_2 1_555 1_555
H8_2 C15_2 1_555 1_555
C17_2 C11_2 1_555 1_555
H10_2 C17_2 1_555 1_555
C18_2 C11_2 1_555 1_555
C20_2 C4_2 1_555 1_555
C23_2 C4_2 1_555 1_555
H14_2 C23_2 1_555 1_555
O17_2 Zn8 1_555 1_555
O18_2 Zn8 1_555 1_555
C2_2 C15_2 1_555 1_555
C12_2 C18_2 1_555 1_555
C17_2 C20_2 1_555 1_555
C18_2 C23_2 1_555 1_555
O10_3 Zn6 1_555 1_555
H4_3 O10_3 1_555 1_555
H7_3 C14_3 1_555 1_555
Zn4 O3_3 1_555 1_555
O4_3 Zn4 1_555 1_555
O15 C3_3 1_555 1_555
C3_3 O4_3 1_555 1_555
O19_2 Zn4 1_555 1_555
O1_3 C35_3 1_555 1_555
O7_2 C7_3 1_555 1_555
C1_3 C13_3 1_555 1_555
C5_3 C7_3 1_555 1_555
C13_3 N1_3 1_555 1_555
H6_3 C13_3 1_555 1_555
C16_3 C1_3 1_555 1_555
H9_3 C16_3 1_555 1_555
C19_3 C16_3 1_555 1_555
H11_3 C19_3 1_555 1_555
H13_3 C21_3 1_555 1_555
C22_3 C1_3 1_555 1_555
C24_3 C19_3 1_555 1_555
H15_3 C24_3 1_555 1_555
C25_3 C22_3 1_555 1_555
H16_3 C25_3 1_555 1_555
O20 C35_3 1_555 1_555
C26_3 H17_3 1_555 1_555
C29_3 C26_3 1_555 1_555
C30_3 C5_3 1_555 1_555
H19_3 C30_3 1_555 1_555
C35_3 C29_3 1_555 1_555
H22_3 C37_3 1_555 1_555
H23_3 C37_3 1_555 1_555
H24_3 C37_3 1_555 1_555
Zn10 O7_2 1_555 1_555
C21_3 C22_3 1_555 1_555
C24_3 C25_3 1_555 1_555
C29_3 C30_3 1_555 1_555
Zn9 O6_3 1_555 1_555
O14_2 C36_3 1_555 1_555
O6_3 C6_3 1_555 1_555
N2_3 Zn9 1_555 1_555
C2_3 H1_3 1_555 1_555
C4_3 H2_3 1_555 1_555
C6_3 C10_3 1_555 1_555
C9_3 C8_3 1_555 1_555
C10_3 C9_3 1_555 1_555
C11_3 C2_3 1_555 1_555
C12_3 N2_3 1_555 1_555
H5_3 C12_3 1_555 1_555
C15_3 N2_3 1_555 1_555
H8_3 C15_3 1_555 1_555
C17_3 C11_3 1_555 1_555
H10_3 C17_3 1_555 1_555
C18_3 C11_3 1_555 1_555
C20_3 C4_3 1_555 1_555
H12_2 C20_3 1_555 1_555
C23_3 C4_3 1_555 1_555
H14_3 C23_3 1_555 1_555
O11_2 C36_3 1_555 1_555
O13_3 C34_3 1_555 1_555
C27_3 C8_3 1_555 1_555
H18_3 C27_3 1_555 1_555
C31_3 C27_3 1_555 1_555
C32_3 C10_3 1_555 1_555
H20_3 C32_3 1_555 1_555
H21_3 C33_3 1_555 1_555
C34_3 C28_3 1_555 1_555
C36_3 C31_3 1_555 1_555
Zn4_2 O11_2 1_555 1_555
C2_3 C15_3 1_555 1_555
C12_3 C18_3 1_555 1_555
C17_3 C20_3 1_555 1_555
C18_3 C23_3 1_555 1_555
C28_3 C33_3 1_555 1_555
C31_3 C32_3 1_555 1_555
N2_4 Zn10 1_555 1_555
C2_4 H1_4 1_555 1_555
C4_4 H2_4 1_555 1_555
C11_4 C2_4 1_555 1_555
C12_4 N2_4 1_555 1_555
H5_4 C12_4 1_555 1_555
C15_4 N2_4 1_555 1_555
H8_4 C15_4 1_555 1_555
C17_4 C11_4 1_555 1_555
H10_4 C17_4 1_555 1_555
C18_4 C11_4 1_555 1_555
C20_4 C4_4 1_555 1_555
C23_4 C4_4 1_555 1_555
H14_4 C23_4 1_555 1_555
C2_4 C15_4 1_555 1_555
C12_4 C18_4 1_555 1_555
C17_4 C20_4 1_555 1_555
C18_4 C23_4 1_555 1_555
Zn4_2 O3_4 1_555 1_555
Zn7 O1_4 1_555 1_555
O1_4 C35_4 1_555 1_555
O14 C36_4 1_555 1_555
O3_4 C34_4 1_555 1_555
O4_4 Zn4_2 1_555 1_555
O15_2 C3_4 1_555 1_555
O6_4 C6_4 1_555 1_555
N1_4 Zn7 1_555 1_555
O16_2 C7_4 1_555 1_555
C1_4 C13_4 1_555 1_555
C3_4 O4_4 1_555 1_555
O17_2 C6_4 1_555 1_555
C5_4 C7_4 1_555 1_555
O18 C7_4 1_555 1_555
C6_4 C10_4 1_555 1_555
C8_4 C3_4 1_555 1_555
C9_4 C8_4 1_555 1_555
H3_4 C9_4 1_555 1_555
C10_4 C9_4 1_555 1_555
O10_4 Zn7 1_555 1_555
H4_4 O10_4 1_555 1_555
C13_4 N1_4 1_555 1_555
H6_4 C13_4 1_555 1_555
C14_4 N1_4 1_555 1_555
H7_4 C14_4 1_555 1_555
C16_4 C1_4 1_555 1_555
H9_4 C16_4 1_555 1_555
C21_4 C14_4 1_555 1_555
H13_4 C21_4 1_555 1_555
C22_4 C1_4 1_555 1_555
C25_4 C22_4 1_555 1_555
H16_4 C25_4 1_555 1_555
O19_2 C36_4 1_555 1_555
O20_2 C35_4 1_555 1_555
O13_4 C34_4 1_555 1_555
C26_4 H17_4 1_555 1_555
C27_4 C8_4 1_555 1_555
H18_4 C27_4 1_555 1_555
C28_4 C26_4 1_555 1_555
C29_4 C26_4 1_555 1_555
C30_4 C5_4 1_555 1_555
H19_4 C30_4 1_555 1_555
C31_4 C27_4 1_555 1_555
C32_4 C10_4 1_555 1_555
H20_4 C32_4 1_555 1_555
C33_4 C5_4 1_555 1_555
H21_4 C33_4 1_555 1_555
C34_4 C28_4 1_555 1_555
C35_4 C29_4 1_555 1_555
C36_4 C31_4 1_555 1_555
C37_4 O10_4 1_555 1_555
H24_4 C37_4 1_555 1_555
C21_4 C22_4 1_555 1_555
C28_4 C33_4 1_555 1_555
C29_4 C30_4 1_555 1_555
C31_4 C32_4 1_555 1_555
H11_4 C19_4 1_555 1_555
C24_4 C19_4 1_555 1_555
H15_4 C24_4 1_555 1_555

#END
