
###############################################################################
#
# This file contains modified crystal structure data generated from the
# MOF subset of the Cambridge Structural Database (CSD) v543 
# hosted by the Cambridge Crystallographic Data Centre (CCDC).
#
# This work is licensed under the Creative Commons
# Attribution-NonCommercial-ShareAlike 4.0 International License.
# To view a copy of this license, visit
# http://creativecommons.org/licenses/by-nc-sa/4.0/
# or send a letter to
# Creative Commons, PO Box 1866, Mountain View, CA 94042, USA.
#
# CIF created using the CSD Python API on 29 September 2022
# The structure has been converted into the P1 space group
# The structure has a 3D framework
# The original CSD entry NARPOO is in the monoclinic crystal system
# The framework has been calculated to contain at least 10.0% void space
# The void calculation uses a probe of radius 1.32A, grid spacing 0.4
# H atom positions have been added when not included in the experimental data
#
###############################################################################

data_NARPOO
_chemical_formula_moiety         '(C48 H16 F24 O28 Pr4)n'
_symmetry_cell_setting           triclinic
_symmetry_space_group_name_H-M   'P 1'
_symmetry_Int_Tables_number      1
_space_group_name_Hall           'P 1'
loop_
_symmetry_equiv_pos_site_id
_symmetry_equiv_pos_as_xyz
1 x,y,z
_cell_length_a                   10.212(5)
_cell_length_b                   21.288(5)
_cell_length_c                   7.905(5)
_cell_angle_alpha                90
_cell_angle_beta                 98.851(5)
_cell_angle_gamma                90
_cell_volume                     1698.03
loop_
_atom_site_label
_atom_site_type_symbol
_atom_site_fract_x
_atom_site_fract_y
_atom_site_fract_z
Pr1 Pr 0.01055(4) 0.21505(2) 0.00493(6)
O6 O 0.0432(7) 0.1187(3) 0.1806(9)
Pr10 Pr 0.01055(4) 0.28495(2) 0.50493(6)
O19 O 0.1522(5) 0.2420(3) 0.2829(8)
O24 O 0.0145(9) 0.3302(3) 0.0307(9)
H2 H 0.100963 0.089087 0.128966
F5 F 0.2302(7) 0.0590(4) 0.6123(14)
C5 C 0.0003(9) 0.0602(4) 0.5667(11)
C7 C 0.0007(10) 0.1272(4) 0.6364(12)
O7 O 0.0145(9) 0.1698(3) 0.5307(9)
C10 C 0.1175(10) 0.0296(5) 0.5578(14)
O18 O 0.2464(6) 0.1899(3) 0.9703(8)
O22 O 0.1522(5) 0.2580(3) 0.7829(8)
O1 O 0.8709(6) 0.2405(3) 0.2485(8)
O2 O 0.2464(6) 0.3101(3) 0.4703(8)
O3 O 0.7755(6) 0.1838(3) 0.0338(8)
F1 F 0.5894(6) 0.1227(3) 0.2416(9)
C1 C 0.7691(8) 0.2167(4) 0.1617(11)
F2 F 0.6660(5) 0.3388(2) 0.1775(8)
C2 C 0.2529(8) 0.2720(4) 0.3570(11)
F3 F 0.4319(6) 0.3644(3) 0.2725(9)
F4 F 0.3563(5) 0.1478(3) 0.3378(9)
C3 C 0.6363(8) 0.2301(4) 0.2116(11)
C4 C 0.5520(9) 0.1829(4) 0.2503(12)
C6 C 0.3874(8) 0.2566(5) 0.3060(11)
C8 C 0.4310(8) 0.1963(5) 0.2948(12)
C9 C 0.5911(9) 0.2920(4) 0.2216(11)
C12 C 0.4706(8) 0.3036(5) 0.2676(12)
H1 H 0.956043 0.0986026 0.185031
O5 O 0.9898(6) 0.1328(3) 0.7911(7)
F6 F 0.7693(7) 0.0592(3) 0.5155(13)
C11 C 0.8831(10) 0.0299(4) 0.5084(13)
O16 O 0.8709(6) 0.2595(3) 0.7485(8)
F7 F 0.2302(7) 0.4410(4) 0.1123(14)
C13 C 0.0003(9) 0.4398(4) 0.0667(11)
C14 C 0.0007(10) 0.3728(4) 0.1364(12)
C15 C 0.1175(10) 0.4704(5) 0.0578(14)
O14 O 0.0432(7) 0.3813(3) 0.6806(9)
H4 H 0.0585668 0.369773 0.803785
O8 O 0.9898(6) 0.3672(3) 0.2911(7)
F8 F 0.7693(7) 0.4408(3) 0.0155(13)
C16 C 0.8831(10) 0.4701(4) 0.0084(13)
O12 O 0.7755(6) 0.3162(3) 0.5338(8)
F9 F 0.5894(6) 0.3773(3) 0.7416(9)
C17 C 0.7691(8) 0.2833(4) 0.6617(11)
F10 F 0.6660(5) 0.1612(2) 0.6775(8)
C18 C 0.2529(8) 0.2280(4) 0.8570(11)
F11 F 0.4319(6) 0.1356(3) 0.7725(9)
F12 F 0.3563(5) 0.3522(3) 0.8378(9)
C19 C 0.6363(8) 0.2699(4) 0.7116(11)
C20 C 0.5520(9) 0.3171(4) 0.7503(12)
C21 C 0.3874(8) 0.2434(5) 0.8060(11)
C22 C 0.4310(8) 0.3037(5) 0.7948(12)
C23 C 0.5911(9) 0.2080(4) 0.7216(11)
C24 C 0.4706(8) 0.1964(5) 0.7676(12)
H3 H 0.963015 0.408163 0.656282
H4_2 H 0.0585668 0.130227 0.303785
H3_2 H 0.963015 0.0918372 0.156282
H2_2 H 0.100963 0.410913 0.628966
H1_2 H 0.956043 0.401397 0.685031
O8_2 O 0.0102(6) 0.8672(3) 0.2089(7)
F8_2 F 0.2307(7) 0.9408(3) 0.4845(13)
C16_2 C 0.1169(10) 0.9701(4) 0.4916(13)
O15 O 0.1291(6) 0.7405(3) 0.2515(8)
O10 O 0.1291(6) 0.7595(3) 0.7515(8)
O11 O 0.7536(6) 0.6899(3) 0.5297(8)
O12_2 O 0.2245(6) 0.8162(3) 0.9662(8)
F9_2 F 0.4106(6) 0.8773(3) 0.7584(9)
C17_2 C 0.2309(8) 0.7833(4) 0.8383(11)
O13 O 0.8478(5) 0.7580(3) 0.7171(8)
F10_2 F 0.3340(5) 0.6612(2) 0.8225(8)
C18_2 C 0.7471(8) 0.7280(4) 0.6430(11)
F11_2 F 0.5681(6) 0.6356(3) 0.7275(9)
F12_2 F 0.6437(5) 0.8522(3) 0.6622(9)
C19_2 C 0.3637(8) 0.7699(4) 0.7884(11)
C20_2 C 0.4480(9) 0.8171(4) 0.7497(12)
C21_2 C 0.6126(8) 0.7434(5) 0.6940(11)
C22_2 C 0.5690(8) 0.8037(5) 0.7052(12)
C23_2 C 0.4089(9) 0.7080(4) 0.7784(11)
C24_2 C 0.5294(8) 0.6964(5) 0.7324(12)
Pr6 Pr 0.98945(4) 0.71505(2) 0.49507(6)
Pr7 Pr 0.98945(4) 0.78495(2) 0.99507(6)
H3_3 H 0.0369852 0.908163 0.843718
F7_2 F 0.7698(7) 0.9410(4) 0.3877(14)
C13_2 C 0.9997(9) 0.9398(4) 0.4333(11)
C14_2 C 0.9993(10) 0.8728(4) 0.3636(12)
C15_2 C 0.8825(10) 0.9704(5) 0.4422(14)
O9 O 0.9855(9) 0.8302(3) 0.4693(9)
O17 O 0.7536(6) 0.8101(3) 0.0297(8)
O20 O 0.8478(5) 0.7420(3) 0.2171(8)
O14_2 O 0.9568(7) 0.8813(3) 0.8194(9)
O23 O 0.9855(9) 0.6698(3) 0.9693(9)
H4_3 H 0.941433 0.869773 0.696215
O3_2 O 0.2245(6) 0.6838(3) 0.4662(8)
F1_2 F 0.4106(6) 0.6227(3) 0.2584(9)
C1_2 C 0.2309(8) 0.7167(4) 0.3383(11)
F2_2 F 0.3340(5) 0.8388(2) 0.3225(8)
C2_2 C 0.7471(8) 0.7720(4) 0.1430(11)
O5_2 O 0.0102(6) 0.6328(3) 0.7089(7)
F3_2 F 0.5681(6) 0.8644(3) 0.2275(9)
F4_2 F 0.6437(5) 0.6478(3) 0.1622(9)
C3_2 C 0.3637(8) 0.7301(4) 0.2884(11)
C4_2 C 0.4480(9) 0.6829(4) 0.2497(12)
C6_2 C 0.6126(8) 0.7566(5) 0.1940(11)
C8_2 C 0.5690(8) 0.6963(5) 0.2052(12)
C9_2 C 0.4089(9) 0.7920(4) 0.2784(11)
F6_2 F 0.2307(7) 0.5592(3) 0.9845(13)
C11_2 C 0.1169(10) 0.5299(4) 0.9916(13)
C12_2 C 0.5294(8) 0.8036(5) 0.2324(12)
H1_3 H 0.0439572 0.598603 0.314969
O6_2 O 0.9568(7) 0.6187(3) 0.3194(9)
F5_2 F 0.7698(7) 0.5590(4) 0.8877(14)
C5_2 C 0.9997(9) 0.5602(4) 0.9333(11)
C7_2 C 0.9993(10) 0.6272(4) 0.8636(12)
C10_2 C 0.8825(10) 0.5296(5) 0.9422(14)
H2_3 H 0.899037 0.589087 0.371034
H1_4 H 0.0439572 0.901397 0.814969
H2_4 H 0.899037 0.910913 0.871034
H3_4 H 0.0369852 0.591837 0.343718
H4_4 H 0.941433 0.630227 0.196215
loop_
_geom_bond_atom_site_label_1
_geom_bond_atom_site_label_2
_geom_bond_site_symmetry_1
_geom_bond_site_symmetry_2
O6 Pr1 1_555 1_555
O19 Pr1 1_555 1_555
O24 Pr1 1_555 1_555
Pr10 O19 1_555 1_555
O6 H2 1_555 1_555
F5 C10 1_555 1_555
C5 C7 1_555 1_555
O7 C7 1_555 1_555
C10 C5 1_555 1_555
Pr10 O7 1_555 1_555
Pr10 O22 1_555 1_555
O1 C1 1_555 1_555
O2 C2 1_555 1_555
F1 C4 1_555 1_555
C1 O3 1_555 1_555
O19 C2 1_555 1_555
F2 C9 1_555 1_555
C2 C6 1_555 1_555
F3 C12 1_555 1_555
F4 C8 1_555 1_555
C3 C1 1_555 1_555
C4 C3 1_555 1_555
C6 C8 1_555 1_555
C8 C4 1_555 1_555
C9 C3 1_555 1_555
C12 C6 1_555 1_555
Pr10 O2 1_555 1_555
C9 C12 1_555 1_555
F6 C11 1_555 1_555
F7 C15 1_555 1_555
C13 C14 1_555 1_555
C14 O24 1_555 1_555
O14 Pr10 1_555 1_555
C13 C15 1_555 1_555
O14 H4 1_555 1_555
F8 C16 1_555 1_555
O18 C18 1_555 1_555
F9 C20 1_555 1_555
C17 O16 1_555 1_555
O22 C18 1_555 1_555
F10 C23 1_555 1_555
C18 C21 1_555 1_555
F11 C24 1_555 1_555
F12 C22 1_555 1_555
C19 C17 1_555 1_555
C20 C19 1_555 1_555
C21 C22 1_555 1_555
C22 C20 1_555 1_555
C23 C19 1_555 1_555
C24 C21 1_555 1_555
O12 C17 1_555 1_555
C23 C24 1_555 1_555
O6 H4_2 1_555 1_555
O14 H2_2 1_555 1_555
F8_2 C16_2 1_555 1_555
O11 C18_2 1_555 1_555
F9_2 C20_2 1_555 1_555
C17_2 O10 1_555 1_555
O13 C18_2 1_555 1_555
F10_2 C23_2 1_555 1_555
C18_2 C21_2 1_555 1_555
F11_2 C24_2 1_555 1_555
F12_2 C22_2 1_555 1_555
C19_2 C17_2 1_555 1_555
C20_2 C19_2 1_555 1_555
C21_2 C22_2 1_555 1_555
C22_2 C20_2 1_555 1_555
C23_2 C19_2 1_555 1_555
C24_2 C21_2 1_555 1_555
Pr6 O11 1_555 1_555
Pr7 O13 1_555 1_555
O12_2 C17_2 1_555 1_555
O13 Pr6 1_555 1_555
C23_2 C24_2 1_555 1_555
F7_2 C15_2 1_555 1_555
C13_2 C14_2 1_555 1_555
C14_2 O9 1_555 1_555
O9 Pr6 1_555 1_555
C13_2 C15_2 1_555 1_555
Pr6 O20 1_555 1_555
O14_2 Pr7 1_555 1_555
O23 Pr7 1_555 1_555
O14_2 H4_3 1_555 1_555
O15 C1_2 1_555 1_555
O17 C2_2 1_555 1_555
F1_2 C4_2 1_555 1_555
C1_2 O3_2 1_555 1_555
O20 C2_2 1_555 1_555
F2_2 C9_2 1_555 1_555
C2_2 C6_2 1_555 1_555
F3_2 C12_2 1_555 1_555
F4_2 C8_2 1_555 1_555
C3_2 C1_2 1_555 1_555
C4_2 C3_2 1_555 1_555
C6_2 C8_2 1_555 1_555
C8_2 C4_2 1_555 1_555
C9_2 C3_2 1_555 1_555
F6_2 C11_2 1_555 1_555
C12_2 C6_2 1_555 1_555
C9_2 C12_2 1_555 1_555
O6_2 Pr6 1_555 1_555
F5_2 C10_2 1_555 1_555
C5_2 C7_2 1_555 1_555
O23 C7_2 1_555 1_555
C10_2 C5_2 1_555 1_555
O6_2 H2_3 1_555 1_555
O14_2 H2_4 1_555 1_555
O6_2 H4_4 1_555 1_555

#END
