
###############################################################################
#
# This file contains modified crystal structure data generated from the
# MOF subset of the Cambridge Structural Database (CSD) v543 
# hosted by the Cambridge Crystallographic Data Centre (CCDC).
#
# This work is licensed under the Creative Commons
# Attribution-NonCommercial-ShareAlike 4.0 International License.
# To view a copy of this license, visit
# http://creativecommons.org/licenses/by-nc-sa/4.0/
# or send a letter to
# Creative Commons, PO Box 1866, Mountain View, CA 94042, USA.
#
# CIF created using the CSD Python API on 29 September 2022
# The structure has been converted into the P1 space group
# The structure has a 3D framework
# The original CSD entry NARPUU is in the monoclinic crystal system
# The framework has been calculated to contain at least 10.0% void space
# The void calculation uses a probe of radius 1.32A, grid spacing 0.4
# H atom positions have been added when not included in the experimental data
# Generated hydrogen atom positions removed from atoms on special positions
#
###############################################################################

data_NARPUU
_chemical_formula_moiety         '(C48 H16 F24 Nd4 O28)n'
_symmetry_cell_setting           triclinic
_symmetry_space_group_name_H-M   'P 1'
_symmetry_Int_Tables_number      1
_space_group_name_Hall           'P 1'
loop_
_symmetry_equiv_pos_site_id
_symmetry_equiv_pos_as_xyz
1 x,y,z
_cell_length_a                   10.205(5)
_cell_length_b                   21.215(5)
_cell_length_c                   7.866(5)
_cell_angle_alpha                90
_cell_angle_beta                 98.642(5)
_cell_angle_gamma                90
_cell_volume                     1683.65
loop_
_atom_site_label
_atom_site_type_symbol
_atom_site_fract_x
_atom_site_fract_y
_atom_site_fract_z
Nd3 Nd 0.50925(3) 0.21527(2) 0.00420(4)
C5 C 0.0898(8) 0.2083(4) 0.7206(11)
C6 C 0.1352(7) 0.2705(4) 0.7138(10)
C7 C 0.0520(8) 0.3178(4) 0.7486(11)
C12 C 0.2685(8) 0.2837(3) 0.6598(11)
O5 O 0.3703(5) 0.2595(3) 0.7466(7)
O7 O 0.2755(5) 0.3158(3) 0.5339(7)
F4 F 0.1646(5) 0.1611(2) 0.6764(7)
F6 F 0.0892(5) 0.3781(2) 0.7426(8)
Nd8 Nd 0.50925(3) 0.28473(2) 0.50420(4)
O6 O 0.5402(7) 0.1195(3) 0.1782(8)
O16 O 0.6506(5) 0.2423(3) 0.2830(7)
O18 O 0.5128(8) 0.3304(3) 0.0297(8)
O22 O 0.3703(5) 0.2405(3) 0.2466(7)
O24 O 0.2755(5) 0.1842(3) 0.0339(7)
C1 C 0.5000(9) 0.1269(4) 0.6349(10)
C2 C 0.4991(8) 0.0608(4) 0.5698(10)
C3 C 0.6151(10) 0.0299(5) 0.5562(14)
C4 C 0.3835(10) 0.0302(5) 0.5072(13)
C8 C 0.9293(8) 0.3042(4) 0.7930(11)
C9 C 0.8850(7) 0.2433(4) 0.8049(10)
C10 C 0.9694(7) 0.1950(4) 0.7667(10)
C11 C 0.7515(8) 0.2280(4) 0.8570(10)
O1 O 0.7453(5) 0.1897(3) 0.9694(7)
O2 O 0.6506(5) 0.2577(3) 0.7830(7)
O3 O 0.5128(8) 0.1696(3) 0.5297(8)
O4 O 0.4884(6) 0.1333(2) 0.7914(6)
F1 F 0.2678(7) 0.0587(4) 0.5164(12)
F2 F 0.7309(7) 0.0590(3) 0.6127(13)
F3 F 0.9312(5) 0.1352(2) 0.7725(8)
F5 F 0.8539(5) 0.3521(3) 0.8359(8)
C17 C 0.0898(8) 0.2917(4) 0.2206(11)
C18 C 0.1352(7) 0.2295(4) 0.2138(10)
C19 C 0.0520(8) 0.1822(4) 0.2486(11)
C24 C 0.2685(8) 0.2163(3) 0.1598(11)
F10 F 0.1646(5) 0.3389(2) 0.1764(7)
F12 F 0.0892(5) 0.1219(2) 0.2426(8)
C13 C 0.5000(9) 0.3731(4) 0.1349(10)
C14 C 0.4991(8) 0.4392(4) 0.0698(10)
C15 C 0.6151(10) 0.4701(5) 0.0562(14)
C16 C 0.3835(10) 0.4698(5) 0.0072(13)
O8 O 0.4884(6) 0.3667(2) 0.2914(6)
F7 F 0.2678(7) 0.4413(4) 0.0164(12)
F8 F 0.7309(7) 0.4410(3) 0.1127(13)
C20 C 0.9293(8) 0.1958(4) 0.2930(11)
C21 C 0.8850(7) 0.2567(4) 0.3049(10)
C22 C 0.9694(7) 0.3050(4) 0.2667(10)
C23 C 0.7515(8) 0.2720(4) 0.3570(10)
O10 O 0.7453(5) 0.3103(3) 0.4694(7)
O13 O 0.5402(7) 0.3805(3) 0.6782(8)
F9 F 0.9312(5) 0.3648(2) 0.2725(8)
F11 F 0.8539(5) 0.1479(3) 0.3359(8)
C13_2 C 0.5000(9) 0.8731(4) 0.3651(10)
C14_2 C 0.5009(8) 0.9392(4) 0.4302(10)
C15_2 C 0.3849(10) 0.9701(5) 0.4438(14)
C16_2 C 0.6165(10) 0.9698(5) 0.4928(13)
O8_2 O 0.5116(6) 0.8667(2) 0.2086(6)
F7_2 F 0.7322(7) 0.9413(4) 0.4836(12)
F8_2 F 0.2691(7) 0.9410(3) 0.3873(13)
O9 O 0.4872(8) 0.8304(3) 0.4703(8)
C20_2 C 0.0707(8) 0.6958(4) 0.2070(11)
C21_2 C 0.1150(7) 0.7567(4) 0.1951(10)
C22_2 C 0.0306(7) 0.8050(4) 0.2333(10)
C23_2 C 0.2485(8) 0.7720(4) 0.1430(10)
O10_2 O 0.2547(5) 0.8103(3) 0.0306(7)
O11 O 0.3494(5) 0.7423(3) 0.2170(7)
F9_2 F 0.0688(5) 0.8648(2) 0.2275(8)
F11_2 F 0.1461(5) 0.6479(3) 0.1641(8)
O21 O 0.6297(5) 0.7405(3) 0.2534(7)
Nd5 Nd 0.49075(3) 0.71527(2) 0.49580(4)
O13_2 O 0.4598(7) 0.8805(3) 0.8218(8)
Nd2 Nd 0.49075(3) 0.78473(2) 0.99580(4)
O15 O 0.3494(5) 0.7577(3) 0.7170(7)
O17 O 0.4872(8) 0.6696(3) 0.9703(8)
O20 O 0.6297(5) 0.7595(3) 0.7534(7)
O23 O 0.7245(5) 0.8158(3) 0.9661(7)
C17_2 C 0.9102(8) 0.7917(4) 0.2794(11)
C18_2 C 0.8648(7) 0.7295(4) 0.2862(10)
C19_2 C 0.9480(8) 0.6822(4) 0.2514(11)
C24_2 C 0.7315(8) 0.7163(3) 0.3402(11)
O14 O 0.7245(5) 0.6842(3) 0.4661(7)
F10_2 F 0.8354(5) 0.8389(2) 0.3236(7)
F12_2 F 0.9108(5) 0.6219(2) 0.2574(8)
C1_2 C 0.5000(9) 0.6269(4) 0.8651(10)
C2_2 C 0.5009(8) 0.5608(4) 0.9302(10)
C3_2 C 0.3849(10) 0.5299(5) 0.9438(14)
C4_2 C 0.6165(10) 0.5302(5) 0.9928(13)
C8_2 C 0.0707(8) 0.8042(4) 0.7070(11)
C9_2 C 0.1150(7) 0.7433(4) 0.6951(10)
C10_2 C 0.0306(7) 0.6950(4) 0.7333(10)
C11_2 C 0.2485(8) 0.7280(4) 0.6430(10)
O1_2 O 0.2547(5) 0.6897(3) 0.5306(7)
O4_2 O 0.5116(6) 0.6333(2) 0.7086(6)
O6_2 O 0.4598(7) 0.6195(3) 0.3218(8)
F1_2 F 0.7322(7) 0.5587(4) 0.9836(12)
F2_2 F 0.2691(7) 0.5590(3) 0.8873(13)
F3_2 F 0.0688(5) 0.6352(2) 0.7275(8)
F5_2 F 0.1461(5) 0.8521(3) 0.6641(8)
C5_2 C 0.9102(8) 0.7083(4) 0.7794(11)
C6_2 C 0.8648(7) 0.7705(4) 0.7862(10)
C7_2 C 0.9480(8) 0.8178(4) 0.7514(11)
C12_2 C 0.7315(8) 0.7837(3) 0.8402(11)
F4_2 F 0.8354(5) 0.6611(2) 0.8236(7)
F6_2 F 0.9108(5) 0.8781(2) 0.7574(8)
loop_
_geom_bond_atom_site_label_1
_geom_bond_atom_site_label_2
_geom_bond_site_symmetry_1
_geom_bond_site_symmetry_2
C5 C6 1_555 1_555
C6 C7 1_555 1_555
C12 C6 1_555 1_555
O5 C12 1_555 1_555
O7 C12 1_555 1_555
F4 C5 1_555 1_555
F6 C7 1_555 1_555
Nd8 O5 1_555 1_555
O7 Nd8 1_555 1_555
O6 Nd3 1_555 1_555
O16 Nd3 1_555 1_555
O18 Nd3 1_555 1_555
O22 Nd3 1_555 1_555
O24 Nd3 1_555 1_555
C1 C2 1_555 1_555
C2 C3 1_555 1_555
C3 F2 1_555 1_555
C4 C2 1_555 1_555
C8 C9 1_555 1_555
C9 C10 1_555 1_555
C11 C9 1_555 1_555
O1 C11 1_555 1_555
O2 C11 1_555 1_555
O3 C1 1_555 1_555
O4 C1 1_555 1_555
F1 C4 1_555 1_555
F3 C10 1_555 1_555
F5 C8 1_555 1_555
Nd8 O2 1_555 1_555
O3 Nd8 1_555 1_555
C17 C18 1_555 1_555
C18 C19 1_555 1_555
C24 C18 1_555 1_555
O22 C24 1_555 1_555
O24 C24 1_555 1_555
F10 C17 1_555 1_555
F12 C19 1_555 1_555
Nd8 O22 1_555 1_555
C13 C14 1_555 1_555
C14 C15 1_555 1_555
O8 C13 1_555 1_555
F7 C16 1_555 1_555
F8 C15 1_555 1_555
O18 C13 1_555 1_555
C20 C21 1_555 1_555
C21 C22 1_555 1_555
C23 C21 1_555 1_555
O10 C23 1_555 1_555
O16 C23 1_555 1_555
O13 Nd8 1_555 1_555
F9 C22 1_555 1_555
F11 C20 1_555 1_555
Nd8 O8 1_555 1_555
C14 C16 1_555 1_555
O10 Nd8 1_555 1_555
O16 Nd8 1_555 1_555
C13_2 C14_2 1_555 1_555
C14_2 C15_2 1_555 1_555
O8_2 C13_2 1_555 1_555
F7_2 C16_2 1_555 1_555
F8_2 C15_2 1_555 1_555
O9 C13_2 1_555 1_555
C20_2 C21_2 1_555 1_555
C21_2 C22_2 1_555 1_555
C23_2 C21_2 1_555 1_555
O10_2 C23_2 1_555 1_555
O11 C23_2 1_555 1_555
F9_2 C22_2 1_555 1_555
F11_2 C20_2 1_555 1_555
Nd5 O9 1_555 1_555
C14_2 C16_2 1_555 1_555
O11 Nd5 1_555 1_555
O21 Nd5 1_555 1_555
O13_2 Nd2 1_555 1_555
O15 Nd2 1_555 1_555
O17 Nd2 1_555 1_555
O20 Nd2 1_555 1_555
O23 Nd2 1_555 1_555
C17_2 C18_2 1_555 1_555
C18_2 C19_2 1_555 1_555
C24_2 C18_2 1_555 1_555
O21 C24_2 1_555 1_555
O14 C24_2 1_555 1_555
F10_2 C17_2 1_555 1_555
F12_2 C19_2 1_555 1_555
O14 Nd5 1_555 1_555
C1_2 C2_2 1_555 1_555
C2_2 C3_2 1_555 1_555
C3_2 F2_2 1_555 1_555
C4_2 C2_2 1_555 1_555
C8_2 C9_2 1_555 1_555
C9_2 C10_2 1_555 1_555
C11_2 C9_2 1_555 1_555
O1_2 C11_2 1_555 1_555
O15 C11_2 1_555 1_555
O17 C1_2 1_555 1_555
O4_2 C1_2 1_555 1_555
O6_2 Nd5 1_555 1_555
F1_2 C4_2 1_555 1_555
F3_2 C10_2 1_555 1_555
F5_2 C8_2 1_555 1_555
Nd5 O1_2 1_555 1_555
O20 Nd5 1_555 1_555
O15 Nd5 1_555 1_555
O4_2 Nd5 1_555 1_555
C5_2 C6_2 1_555 1_555
C6_2 C7_2 1_555 1_555
C12_2 C6_2 1_555 1_555
O20 C12_2 1_555 1_555
O23 C12_2 1_555 1_555
F4_2 C5_2 1_555 1_555
F6_2 C7_2 1_555 1_555

#END
