
###############################################################################
#
# This file contains modified crystal structure data generated from the
# MOF subset of the Cambridge Structural Database (CSD) v543 
# hosted by the Cambridge Crystallographic Data Centre (CCDC).
#
# This work is licensed under the Creative Commons
# Attribution-NonCommercial-ShareAlike 4.0 International License.
# To view a copy of this license, visit
# http://creativecommons.org/licenses/by-nc-sa/4.0/
# or send a letter to
# Creative Commons, PO Box 1866, Mountain View, CA 94042, USA.
#
# CIF created using the CSD Python API on 29 September 2022
# The structure has been converted into the P1 space group
# The structure has a 3D framework
# The original CSD entry NATFAS is in the orthorhombic crystal system
# The framework has been calculated to contain at least 10.0% void space
# The void calculation uses a probe of radius 1.32A, grid spacing 0.4
# The framework is charged, counterions have been retained in the structure
# H atom positions have been added when not included in the experimental data
#
###############################################################################

data_NATFAS
_chemical_formula_moiety         '(C192 H172 N16 O126 Zn22 1-)n'
_symmetry_cell_setting           triclinic
_symmetry_space_group_name_H-M   'P 1'
_symmetry_Int_Tables_number      1
_space_group_name_Hall           'P 1'
loop_
_symmetry_equiv_pos_site_id
_symmetry_equiv_pos_as_xyz
1 x,y,z
_cell_length_a                   14.3929(6)
_cell_length_b                   17.8516(8)
_cell_length_c                   26.7111(11)
_cell_angle_alpha                90
_cell_angle_beta                 90
_cell_angle_gamma                90
_cell_volume                     6863.05
loop_
_atom_site_label
_atom_site_type_symbol
_atom_site_fract_x
_atom_site_fract_y
_atom_site_fract_z
O8 O 0.0578(3) 0.4200(3) 0.4658(2)
O9 O 0.0827(3) 0.4471(2) 0.57753(16)
O10 O 0.2008(3) 0.3848(2) 0.61193(14)
C7 C 0.0053(4) 0.3871(3) 0.4939(2)
C8 C 0.0375(3) 0.3177(3) 0.5214(2)
C9 C 0.0961(4) 0.3175(3) 0.56182(19)
C10 C 0.1302(4) 0.3884(3) 0.5853(2)
C11 C 0.1255(5) 0.2500 0.5821(3)
H2 H 0.1652 0.2500 0.6096
C12 C 0.0087(5) 0.2500 0.5011(3)
O26 O 0.0578(3) 0.0800(3) 0.4658(2)
O27 O 0.0827(3) 0.0529(2) 0.57753(16)
O28 O 0.2008(3) 0.1152(2) 0.61193(14)
C33 C 0.0053(4) 0.1129(3) 0.4939(2)
C34 C 0.0375(3) 0.1823(3) 0.5214(2)
C35 C 0.0961(4) 0.1825(3) 0.56182(19)
C36 C 0.1302(4) 0.1116(3) 0.5853(2)
Zn13 Zn 0.24583(4) 0.03592(3) 0.65801(2)
Zn14 Zn 0.24583(4) 0.46408(3) 0.65801(2)
Zn17 Zn 0.13343(4) 0.54218(3) 0.55590(2)
Zn16 Zn 0.13343(4) 0.95782(3) 0.55590(2)
Zn1 Zn 0.56416(4) 0.47132(3) 0.70404(2)
Zn2 Zn 0.75417(4) 0.53592(3) 0.34199(2)
Zn3 Zn 0.86657(4) 0.45782(3) 0.44410(2)
O1 O 0.5426(3) 0.4966(3) 0.63409(13)
O2 O 0.4912(4) 0.3845(3) 0.61425(17)
O3 O 0.6656(3) 0.4959(3) 0.39668(13)
O4 O 0.8042(3) 0.4368(2) 0.32442(13)
O5 O 0.8822(3) 0.3876(2) 0.38887(14)
O6 O 0.7412(3) 0.4753(3) 0.46711(16)
O7 O 0.9193(3) 0.4013(2) 0.49837(13)
O11 O 0.9463(3) 0.43349(19) 0.24126(13)
O12 O 0.8134(3) 0.4038(3) 0.20426(17)
O13 O 0.4806(2) 0.39065(19) 0.73022(13)
O14 O 0.3556(2) 0.44775(19) 0.70171(12)
O15 O 0.1605(2) 0.4225(2) 0.71520(14)
O16 O 0.1743(2) 0.4021(2) 0.79566(13)
C1 C 0.5095(4) 0.4507(4) 0.6041(2)
C2 C 0.5013(4) 0.4772(4) 0.55040(19)
C3 C 0.5793(4) 0.4749(4) 0.52131(19)
H1 H 0.6346 0.4591 0.5359
C4 C 0.5804(4) 0.4950(4) 0.47105(18)
C5 C 0.6690(4) 0.4880(3) 0.44238(19)
C6 C 0.8510(3) 0.3874(3) 0.34508(19)
H3 H 0.9694 0.2500 0.4735
C13 C 0.8687(3) 0.3180(3) 0.31526(17)
C14 C 0.8747(3) 0.3183(3) 0.26298(18)
C15 C 0.8763(4) 0.3907(3) 0.23377(19)
C16 C 0.8795(5) 0.2500 0.2374(3)
H4 H 0.8859 0.2500 0.2028
C17 C 0.8669(5) 0.2500 0.3402(3)
H5 H 0.8644 0.2500 0.3750
C18 C 0.3962(3) 0.3901(3) 0.71842(16)
C19 C 0.3434(3) 0.3184(3) 0.72577(17)
C20 C 0.2519(3) 0.3178(3) 0.74116(17)
C21 C 0.1931(3) 0.3869(3) 0.75098(19)
C22 C 0.2070(5) 0.2500 0.7499(3)
H6 H 0.1462 0.2500 0.7618
C23 C 0.3898(4) 0.2500 0.7197(2)
H7 H 0.4526 0.2500 0.7114
O17 O 0.4574(3) 0.5034(3) 0.36591(13)
O18 O 0.5088(4) 0.6155(3) 0.38575(17)
O19 O 0.3344(3) 0.5041(3) 0.60332(13)
O20 O 0.2588(3) 0.5247(3) 0.53289(16)
C24 C 0.4905(4) 0.5493(4) 0.3959(2)
C25 C 0.4987(4) 0.5228(4) 0.44960(19)
C26 C 0.4207(4) 0.5251(4) 0.47869(19)
H8 H 0.3654 0.5409 0.4641
C27 C 0.4196(4) 0.5050(4) 0.52895(18)
C28 C 0.3310(4) 0.5120(3) 0.55762(19)
O21 O 0.8042(3) 0.0632(2) 0.32442(13)
O22 O 0.8822(3) 0.1124(2) 0.38887(14)
O23 O 0.9463(3) 0.06651(19) 0.24126(13)
O24 O 0.8134(3) 0.0962(3) 0.20426(17)
C29 C 0.8510(3) 0.1126(3) 0.34508(19)
C30 C 0.8687(3) 0.1820(3) 0.31526(17)
C31 C 0.8747(3) 0.1817(3) 0.26298(18)
C32 C 0.8763(4) 0.1093(3) 0.23377(19)
O25 O 0.9193(3) 0.0987(2) 0.49837(13)
O29 O 0.4806(2) 0.10935(19) 0.73022(13)
O30 O 0.3556(2) 0.05225(19) 0.70171(12)
O31 O 0.1605(2) 0.0775(2) 0.71520(14)
O32 O 0.1743(2) 0.0979(2) 0.79566(13)
C37 C 0.3962(3) 0.1099(3) 0.71842(16)
C38 C 0.3434(3) 0.1816(3) 0.72577(17)
C39 C 0.2519(3) 0.1822(3) 0.74116(17)
C40 C 0.1931(3) 0.1131(3) 0.75098(19)
Zn4 Zn 0.43584(4) 0.52868(3) 0.29596(2)
Zn7 Zn 0.93584(4) 0.52868(3) 0.20404(2)
Zn8 Zn 0.06416(4) 0.02868(3) 0.79596(2)
Zn9 Zn 0.06416(4) 0.47132(3) 0.79596(2)
Zn11 Zn 0.56416(4) 0.02868(3) 0.70404(2)
Zn18 Zn 0.86657(4) 0.04218(3) 0.44410(2)
O33 O 0.1958(3) 0.5632(2) 0.67558(13)
O34 O 0.1178(3) 0.6124(2) 0.61113(14)
O35 O 0.0807(3) 0.5987(2) 0.50163(13)
O37 O 0.9173(3) 0.5529(2) 0.42247(16)
O39 O 0.7992(3) 0.6152(2) 0.38807(14)
O40 O 0.5537(3) 0.56651(19) 0.74126(13)
O41 O 0.4463(3) 0.43349(19) 0.25874(13)
O42 O 0.5194(2) 0.60935(19) 0.26978(13)
O43 O 0.6444(2) 0.55225(19) 0.29829(12)
O44 O 0.8395(2) 0.5775(2) 0.28480(14)
O45 O 0.3257(2) 0.5979(2) 0.29566(13)
O46 O 0.6743(2) 0.4021(2) 0.70434(13)
Zn10 Zn 0.93584(4) 0.97132(3) 0.20404(2)
Zn15 Zn 0.75417(4) 0.96408(3) 0.34199(2)
O2_2 O 0.0088(4) 0.6155(3) 0.11425(17)
O13_2 O 0.0194(2) 0.60935(19) 0.23022(13)
O14_2 O 0.1444(2) 0.55225(19) 0.20171(12)
O15_2 O 0.3395(2) 0.5775(2) 0.21520(14)
C18_2 C 0.1038(3) 0.6099(3) 0.21842(16)
C19_2 C 0.1566(3) 0.6816(3) 0.22577(17)
C20_2 C 0.2481(3) 0.6822(3) 0.24116(17)
C21_2 C 0.3069(3) 0.6131(3) 0.25098(19)
C22_2 C 0.2930(5) 0.7500 0.2499(3)
H6_2 H 0.3538 0.7500 0.2618
C23_2 C 0.1102(4) 0.7500 0.2197(2)
H7_2 H 0.0474 0.7500 0.2114
O19_2 O 0.1656(3) 0.4959(3) 0.10332(13)
O20_2 O 0.2412(3) 0.4753(3) 0.03289(16)
C27_2 C 0.0804(4) 0.4950(4) 0.02895(18)
C28_2 C 0.1690(4) 0.4880(3) 0.05762(19)
O29_2 O 0.0194(2) 0.89065(19) 0.23022(13)
O30_2 O 0.1444(2) 0.94775(19) 0.20171(12)
O31_2 O 0.3395(2) 0.9225(2) 0.21520(14)
O32_2 O 0.3257(2) 0.9021(2) 0.29566(13)
C37_2 C 0.1038(3) 0.8901(3) 0.21842(16)
C38_2 C 0.1566(3) 0.8184(3) 0.22577(17)
C39_2 C 0.2481(3) 0.8178(3) 0.24116(17)
C40_2 C 0.3069(3) 0.8869(3) 0.25098(19)
Zn5 Zn 0.25417(4) 0.53592(3) 0.15801(2)
Zn6 Zn 0.36657(4) 0.45782(3) 0.05590(2)
Zn8_2 Zn 0.43584(4) 0.97132(3) 0.29596(2)
Zn12 Zn 0.25417(4) 0.96408(3) 0.15801(2)
O33_2 O 0.3042(3) 0.4368(2) 0.17558(13)
O34_2 O 0.3822(3) 0.3876(2) 0.11113(14)
O35_2 O 0.4193(3) 0.4013(2) 0.00163(13)
O36 O 0.4173(3) 0.5529(2) 0.07753(16)
O38 O 0.2992(3) 0.6152(2) 0.11193(14)
O17_2 O 0.0426(3) 0.4966(3) 0.86591(13)
C24_2 C 0.0095(4) 0.4507(4) 0.8959(2)
C25_2 C 0.0013(4) 0.4772(4) 0.94960(19)
C26_2 C 0.0793(4) 0.4749(4) 0.97869(19)
H8_2 H 0.1346 0.4591 0.9641
O41_2 O 0.0537(3) 0.56651(19) 0.75874(13)
Zn16_2 Zn 0.36657(4) 0.04218(3) 0.05590(2)
Zn15_2 Zn 0.74583(4) 0.03592(3) 0.84199(2)
O1_2 O 0.9574(3) 0.5034(3) 0.13409(13)
C1_2 C 0.9905(4) 0.5493(4) 0.1041(2)
C2_2 C 0.9987(4) 0.5228(4) 0.05040(19)
C3_2 C 0.9207(4) 0.5251(4) 0.02131(19)
H1_2 H 0.8654 0.5409 0.0359
C8_2 C 0.4625(3) 0.6823(3) 0.0214(2)
C9_2 C 0.4039(4) 0.6825(3) 0.06182(19)
C10_2 C 0.3698(4) 0.6116(3) 0.0853(2)
C11_2 C 0.3745(5) 0.7500 0.0821(3)
H2_2 H 0.3348 0.7500 0.1096
C12_2 C 0.4913(5) 0.7500 0.0011(3)
O27_2 O 0.4173(3) 0.9471(2) 0.07753(16)
O28_2 O 0.2992(3) 0.8848(2) 0.11193(14)
C34_2 C 0.4625(3) 0.8177(3) 0.0214(2)
C35_2 C 0.4039(4) 0.8175(3) 0.06182(19)
C36_2 C 0.3698(4) 0.8884(3) 0.0853(2)
O46_2 O 0.8257(2) 0.5979(2) 0.20434(13)
Zn2_2 Zn 0.74583(4) 0.46408(3) 0.84199(2)
Zn3_2 Zn 0.63343(4) 0.54218(3) 0.94410(2)
O3_2 O 0.8344(3) 0.5041(3) 0.89668(13)
O4_2 O 0.6958(3) 0.5632(2) 0.82442(13)
O5_2 O 0.6178(3) 0.6124(2) 0.88887(14)
O6_2 O 0.7588(3) 0.5247(3) 0.96711(16)
O7_2 O 0.5807(3) 0.5987(2) 0.99837(13)
O8_2 O 0.4422(3) 0.5800(3) 0.9658(2)
O12_2 O 0.6866(3) 0.5962(3) 0.70426(17)
C4_2 C 0.9196(4) 0.5050(4) 0.97105(18)
C5_2 C 0.8310(4) 0.5120(3) 0.94238(19)
C6_2 C 0.6490(3) 0.6126(3) 0.84508(19)
C7_2 C 0.4947(4) 0.6129(3) 0.9939(2)
H3_2 H 0.5306 0.7500 0.9735
C13_2 C 0.6313(3) 0.6820(3) 0.81526(17)
C14_2 C 0.6253(3) 0.6817(3) 0.76298(18)
C15_2 C 0.6237(4) 0.6093(3) 0.73377(19)
C16_2 C 0.6205(5) 0.7500 0.7374(3)
H4_2 H 0.6141 0.7500 0.7028
C17_2 C 0.6331(5) 0.7500 0.8402(3)
H5_2 H 0.6356 0.7500 0.8750
O18_2 O 0.9912(4) 0.3845(3) 0.88575(17)
O21_2 O 0.6958(3) 0.9368(2) 0.82442(13)
O22_2 O 0.6178(3) 0.8876(2) 0.88887(14)
O23_2 O 0.5537(3) 0.93349(19) 0.74126(13)
O24_2 O 0.6866(3) 0.9038(3) 0.70426(17)
C29_2 C 0.6490(3) 0.8874(3) 0.84508(19)
C30_2 C 0.6313(3) 0.8180(3) 0.81526(17)
C31_2 C 0.6253(3) 0.8183(3) 0.76298(18)
C32_2 C 0.6237(4) 0.8907(3) 0.73377(19)
O25_2 O 0.5807(3) 0.9013(2) 0.99837(13)
O26_2 O 0.4422(3) 0.9200(3) 0.9658(2)
C33_2 C 0.4947(4) 0.8871(3) 0.9939(2)
Zn18_2 Zn 0.63343(4) 0.95782(3) 0.94410(2)
O37_2 O 0.5827(3) 0.4471(2) 0.92247(16)
O39_2 O 0.7008(3) 0.3848(2) 0.88807(14)
O42_2 O 0.9806(2) 0.39065(19) 0.76978(13)
O43_2 O 0.8556(2) 0.44775(19) 0.79829(12)
O44_2 O 0.6605(2) 0.4225(2) 0.78480(14)
O3_3 O 0.1656(3) 0.0041(3) 0.10332(13)
O4_3 O 0.3042(3) 0.0632(2) 0.17558(13)
O5_3 O 0.3822(3) 0.1124(2) 0.11113(14)
O6_3 O 0.2412(3) 0.0247(3) 0.03289(16)
O7_3 O 0.4193(3) 0.0987(2) 0.00163(13)
O8_3 O 0.5578(3) 0.0800(3) 0.0342(2)
O11_2 O 0.4463(3) 0.06651(19) 0.25874(13)
O12_3 O 0.3134(3) 0.0962(3) 0.29574(17)
C4_3 C 0.0804(4) 0.0050(4) 0.02895(18)
C5_3 C 0.1690(4) 0.0120(3) 0.05762(19)
C6_3 C 0.3510(3) 0.1126(3) 0.15492(19)
C7_3 C 0.5053(4) 0.1129(3) 0.0061(2)
H3_3 H 0.4694 0.2500 0.0265
C13_3 C 0.3687(3) 0.1820(3) 0.18474(17)
C14_3 C 0.3747(3) 0.1817(3) 0.23702(18)
C15_3 C 0.3763(4) 0.1093(3) 0.26623(19)
C16_3 C 0.3795(5) 0.2500 0.2626(3)
H4_3 H 0.3859 0.2500 0.2972
C17_3 C 0.3669(5) 0.2500 0.1598(3)
H5_3 H 0.3644 0.2500 0.1250
O24_3 O 0.3134(3) 0.4038(3) 0.29574(17)
C29_3 C 0.3510(3) 0.3874(3) 0.15492(19)
C30_3 C 0.3687(3) 0.3180(3) 0.18474(17)
C31_3 C 0.3747(3) 0.3183(3) 0.23702(18)
C32_3 C 0.3763(4) 0.3907(3) 0.26623(19)
O26_3 O 0.5578(3) 0.4200(3) 0.0342(2)
C33_3 C 0.5053(4) 0.3871(3) 0.0061(2)
O1_3 O 0.0426(3) 0.0034(3) 0.86591(13)
O9_2 O 0.5827(3) 0.0529(2) 0.92247(16)
O10_2 O 0.7008(3) 0.1152(2) 0.88807(14)
C1_3 C 0.0095(4) 0.0493(4) 0.8959(2)
C2_3 C 0.0013(4) 0.0228(4) 0.94960(19)
C3_3 C 0.0793(4) 0.0251(4) 0.97869(19)
H1_3 H 0.1346 0.0409 0.9641
C8_3 C 0.5375(3) 0.1823(3) 0.9786(2)
C9_3 C 0.5961(4) 0.1825(3) 0.93818(19)
C10_3 C 0.6302(4) 0.1116(3) 0.9147(2)
C11_3 C 0.6255(5) 0.2500 0.9179(3)
H2_3 H 0.6652 0.2500 0.8904
C12_3 C 0.5087(5) 0.2500 0.9989(3)
C34_3 C 0.5375(3) 0.3177(3) 0.9786(2)
C35_3 C 0.5961(4) 0.3175(3) 0.93818(19)
C36_3 C 0.6302(4) 0.3884(3) 0.9147(2)
O18_3 O 0.0088(4) 0.8845(3) 0.11425(17)
O40_2 O 0.0537(3) 0.93349(19) 0.75874(13)
O2_3 O 0.9912(4) 0.1155(3) 0.88575(17)
O13_3 O 0.9806(2) 0.10935(19) 0.76978(13)
O14_3 O 0.8556(2) 0.05225(19) 0.79829(12)
O15_3 O 0.6605(2) 0.0775(2) 0.78480(14)
O16_2 O 0.6743(2) 0.0979(2) 0.70434(13)
C18_3 C 0.8962(3) 0.1099(3) 0.78158(16)
C19_3 C 0.8434(3) 0.1816(3) 0.77423(17)
C20_3 C 0.7519(3) 0.1822(3) 0.75884(17)
C21_3 C 0.6931(3) 0.1131(3) 0.74902(19)
C22_3 C 0.7070(5) 0.2500 0.7501(3)
H6_3 H 0.6462 0.2500 0.7382
C23_3 C 0.8898(4) 0.2500 0.7803(2)
H7_3 H 0.9526 0.2500 0.7886
C37_3 C 0.8962(3) 0.3901(3) 0.78158(16)
C38_3 C 0.8434(3) 0.3184(3) 0.77423(17)
C39_3 C 0.7519(3) 0.3178(3) 0.75884(17)
C40_3 C 0.6931(3) 0.3869(3) 0.74902(19)
O17_3 O 0.9574(3) 0.9966(3) 0.13409(13)
C24_3 C 0.9905(4) 0.9507(4) 0.1041(2)
C25_3 C 0.9987(4) 0.9772(4) 0.05040(19)
C26_3 C 0.9207(4) 0.9749(4) 0.02131(19)
H8_3 H 0.8654 0.9591 0.0359
O45_2 O 0.8257(2) 0.9021(2) 0.20434(13)
O19_3 O 0.8344(3) 0.9959(3) 0.89668(13)
O20_3 O 0.7588(3) 0.9753(3) 0.96711(16)
C27_3 C 0.9196(4) 0.9950(4) 0.97105(18)
C28_3 C 0.8310(4) 0.9880(3) 0.94238(19)
O17_4 O 0.5426(3) 0.0034(3) 0.63409(13)
O18_4 O 0.4912(4) 0.1155(3) 0.61425(17)
O19_4 O 0.6656(3) 0.0041(3) 0.39668(13)
O20_4 O 0.7412(3) 0.0247(3) 0.46711(16)
C24_4 C 0.5095(4) 0.0493(4) 0.6041(2)
C25_4 C 0.5013(4) 0.0228(4) 0.55040(19)
C26_4 C 0.5793(4) 0.0251(4) 0.52131(19)
H8_4 H 0.6346 0.0409 0.5359
C27_4 C 0.5804(4) 0.0050(4) 0.47105(18)
C28_4 C 0.6690(4) 0.0120(3) 0.44238(19)
O1_4 O 0.4574(3) 0.9966(3) 0.36591(13)
O2_4 O 0.5088(4) 0.8845(3) 0.38575(17)
O3_4 O 0.3344(3) 0.9959(3) 0.60332(13)
O4_4 O 0.1958(3) 0.9368(2) 0.67558(13)
O5_4 O 0.1178(3) 0.8876(2) 0.61113(14)
O6_4 O 0.2588(3) 0.9753(3) 0.53289(16)
O7_4 O 0.0807(3) 0.9013(2) 0.50163(13)
O12_4 O 0.1866(3) 0.9038(3) 0.79574(17)
O13_4 O 0.5194(2) 0.89065(19) 0.26978(13)
O14_4 O 0.6444(2) 0.94775(19) 0.29829(12)
O15_4 O 0.8395(2) 0.9225(2) 0.28480(14)
C1_4 C 0.4905(4) 0.9507(4) 0.3959(2)
C2_4 C 0.4987(4) 0.9772(4) 0.44960(19)
C3_4 C 0.4207(4) 0.9749(4) 0.47869(19)
H1_4 H 0.3654 0.9591 0.4641
C4_4 C 0.4196(4) 0.9950(4) 0.52895(18)
C5_4 C 0.3310(4) 0.9880(3) 0.55762(19)
C6_4 C 0.1490(3) 0.8874(3) 0.65492(19)
H3_4 H 0.0306 0.7500 0.5265
C13_4 C 0.1313(3) 0.8180(3) 0.68474(17)
C14_4 C 0.1253(3) 0.8183(3) 0.73702(18)
C15_4 C 0.1237(4) 0.8907(3) 0.76623(19)
C16_4 C 0.1205(5) 0.7500 0.7626(3)
H4_4 H 0.1141 0.7500 0.7972
C17_4 C 0.1331(5) 0.7500 0.6598(3)
H5_4 H 0.1356 0.7500 0.6250
C18_4 C 0.6038(3) 0.8901(3) 0.28158(16)
C19_4 C 0.6566(3) 0.8184(3) 0.27423(17)
C20_4 C 0.7481(3) 0.8178(3) 0.25884(17)
C21_4 C 0.8069(3) 0.8869(3) 0.24902(19)
C22_4 C 0.7930(5) 0.7500 0.2501(3)
H6_4 H 0.8538 0.7500 0.2382
C23_4 C 0.6102(4) 0.7500 0.2803(2)
H7_4 H 0.5474 0.7500 0.2886
O24_4 O 0.1866(3) 0.5962(3) 0.79574(17)
C29_4 C 0.1490(3) 0.6126(3) 0.65492(19)
C30_4 C 0.1313(3) 0.6820(3) 0.68474(17)
C31_4 C 0.1253(3) 0.6817(3) 0.73702(18)
C32_4 C 0.1237(4) 0.6093(3) 0.76623(19)
C37_4 C 0.6038(3) 0.6099(3) 0.28158(16)
C38_4 C 0.6566(3) 0.6816(3) 0.27423(17)
C39_4 C 0.7481(3) 0.6822(3) 0.25884(17)
C40_4 C 0.8069(3) 0.6131(3) 0.24902(19)
O36_2 O 0.9173(3) 0.9471(2) 0.42247(16)
O38_2 O 0.7992(3) 0.8848(2) 0.38807(14)
O8_4 O 0.9422(3) 0.9200(3) 0.5342(2)
C7_4 C 0.9947(4) 0.8871(3) 0.5061(2)
C8_4 C 0.9625(3) 0.8177(3) 0.4786(2)
C9_4 C 0.9039(4) 0.8175(3) 0.43818(19)
C10_4 C 0.8698(4) 0.8884(3) 0.4147(2)
C11_4 C 0.8745(5) 0.7500 0.4179(3)
H2_4 H 0.8348 0.7500 0.3904
C12_4 C 0.9913(5) 0.7500 0.4989(3)
O26_4 O 0.9422(3) 0.5800(3) 0.5342(2)
C33_4 C 0.9947(4) 0.6129(3) 0.5061(2)
C34_4 C 0.9625(3) 0.6823(3) 0.4786(2)
C35_4 C 0.9039(4) 0.6825(3) 0.43818(19)
C36_4 C 0.8698(4) 0.6116(3) 0.4147(2)
N1 N 0.1115(6) 0.5231(8) 0.3846(4)
H9 H 0.0963 0.5714 0.3845
H10 H 0.0787 0.5015 0.4089
C41 C 0.2043(9) 0.5180(14) 0.3975(5)
H11 H 0.2293 0.4690 0.3914
H12 H 0.2095 0.5297 0.4325
H13 H 0.2383 0.5543 0.3783
C42 C 0.0813(12) 0.4920(15) 0.3384(5)
H14 H 0.1056 0.5220 0.3116
H15 H 0.0147 0.4914 0.3367
H16 H 0.1045 0.4418 0.3355
N1_2 N 0.3885(6) 0.4769(8) 0.8846(4)
H9_2 H 0.4037 0.4286 0.8845
H10_2 H 0.4213 0.4985 0.9089
C41_2 C 0.2957(9) 0.4820(14) 0.8975(5)
H11_2 H 0.2707 0.5310 0.8914
H12_2 H 0.2905 0.4703 0.9325
H13_2 H 0.2617 0.4457 0.8783
C42_2 C 0.4187(12) 0.5080(15) 0.8384(5)
H14_2 H 0.3944 0.4780 0.8116
H15_2 H 0.4853 0.5086 0.8367
H16_2 H 0.3955 0.5582 0.8355
H11_3 H 0.7293 0.0310 0.1086
C42_3 C 0.5813(12) 0.0080(15) 0.1616(5)
H15_3 H 0.5147 0.0086 0.1633
H16_3 H 0.6045 0.0582 0.1645
N1_3 N 0.6115(6) 0.9769(8) 0.1154(4)
H9_3 H 0.5963 0.9286 0.1155
H10_3 H 0.5787 0.9985 0.0911
C41_3 C 0.7043(9) 0.9820(14) 0.1025(5)
H12_3 H 0.7095 0.9703 0.0675
H13_3 H 0.7383 0.9457 0.1217
H14_3 H 0.6056 0.9780 0.1884
N1_4 N 0.8885(6) 0.0231(8) 0.6154(4)
H9_4 H 0.9037 0.0714 0.6155
H10_4 H 0.9213 0.0015 0.5911
C41_4 C 0.7957(9) 0.0180(14) 0.6025(5)
H12_4 H 0.7905 0.0297 0.5675
H13_4 H 0.7617 0.0543 0.6217
H14_4 H 0.8944 0.0220 0.6884
H11_4 H 0.7707 0.9690 0.6086
C42_4 C 0.9187(12) 0.9920(15) 0.6616(5)
H15_4 H 0.9853 0.9914 0.6633
H16_4 H 0.8955 0.9418 0.6645
N1_5 N 0.8885(6) 0.4769(8) 0.6154(4)
H9_5 H 0.9037 0.4286 0.6155
H10_5 H 0.9213 0.4985 0.5911
C41_5 C 0.7957(9) 0.4820(14) 0.6025(5)
H11_5 H 0.7707 0.5310 0.6086
H12_5 H 0.7905 0.4703 0.5675
H13_5 H 0.7617 0.4457 0.6217
C42_5 C 0.9187(12) 0.5080(15) 0.6616(5)
H14_5 H 0.8944 0.4780 0.6884
H15_5 H 0.9853 0.5086 0.6633
H16_5 H 0.8955 0.5582 0.6645
N1_6 N 0.6115(6) 0.5231(8) 0.1154(4)
H9_6 H 0.5963 0.5714 0.1155
H10_6 H 0.5787 0.5015 0.0911
C41_6 C 0.7043(9) 0.5180(14) 0.1025(5)
H11_6 H 0.7293 0.4690 0.1086
H12_6 H 0.7095 0.5297 0.0675
H13_6 H 0.7383 0.5543 0.1217
C42_6 C 0.5813(12) 0.4920(15) 0.1616(5)
H14_6 H 0.6056 0.5220 0.1884
H15_6 H 0.5147 0.4914 0.1633
H16_6 H 0.6045 0.4418 0.1645
N1_7 N 0.3885(6) 0.0231(8) 0.8846(4)
H9_7 H 0.4037 0.0714 0.8845
H10_7 H 0.4213 0.0015 0.9089
C41_7 C 0.2957(9) 0.0180(14) 0.8975(5)
H12_7 H 0.2905 0.0297 0.9325
H13_7 H 0.2617 0.0543 0.8783
H14_7 H 0.3944 0.0220 0.8116
H11_7 H 0.2707 0.9690 0.8914
C42_7 C 0.4187(12) 0.9920(15) 0.8384(5)
H15_7 H 0.4853 0.9914 0.8367
H16_7 H 0.3955 0.9418 0.8355
H11_8 H 0.2293 0.0310 0.3914
C42_8 C 0.0813(12) 0.0080(15) 0.3384(5)
H15_8 H 0.0147 0.0086 0.3367
H16_8 H 0.1045 0.0582 0.3355
N1_8 N 0.1115(6) 0.9769(8) 0.3846(4)
H9_8 H 0.0963 0.9286 0.3845
H10_8 H 0.0787 0.9985 0.4089
C41_8 C 0.2043(9) 0.9820(14) 0.3975(5)
H12_8 H 0.2095 0.9703 0.4325
H13_8 H 0.2383 0.9457 0.3783
H14_8 H 0.1056 0.9780 0.3116
N2 N 0.443(2) 0.2500 0.5581(11)
H17 H 0.4715 0.2095 0.5703
C43 C 0.351(2) 0.2500 0.5712(11)
C44 C 0.448(3) 0.2500 0.5036(12)
H18 H 0.4715 0.2905 0.5703
H27 H 0.414156 0.199945 0.489092
H28 H 0.41309 0.299558 0.489064
H29 H 0.520491 0.250497 0.491924
H30 H 0.344841 0.250146 0.611834
H31 H 0.317464 0.299736 0.55601
H32 H 0.317544 0.200119 0.556172
H27_2 H 0.414156 0.300055 0.489092
H28_2 H 0.41309 0.200442 0.489064
H29_2 H 0.520491 0.249503 0.491924
N2_2 N 0.057(2) 0.7500 0.0581(11)
H17_2 H 0.0285 0.7905 0.0703
C43_2 C 0.149(2) 0.7500 0.0712(11)
C44_2 C 0.052(3) 0.7500 0.0036(12)
H18_2 H 0.0285 0.7095 0.0703
H30_2 H 0.155159 0.749854 0.111834
H31_2 H 0.182536 0.700264 0.0560095
H32_2 H 0.182456 0.799881 0.0561724
H27_3 H 0.0858445 0.800055 0.989092
H28_3 H 0.0869104 0.700442 0.989064
H29_3 H 0.979509 0.749503 0.991924
H29_4 H 0.0204907 0.249503 0.00807551
H27_4 H 0.914156 0.300055 0.010908
H28_4 H 0.91309 0.200442 0.0109364
N2_3 N 0.943(2) 0.2500 0.9419(11)
H17_3 H 0.9715 0.2905 0.9297
C43_3 C 0.851(2) 0.2500 0.9288(11)
C44_3 C 0.948(3) 0.2500 0.9964(12)
H18_3 H 0.9715 0.2095 0.9297
H30_3 H 0.844841 0.249854 0.888166
H31_3 H 0.817464 0.200264 0.94399
H32_3 H 0.817544 0.299881 0.943828
N2_4 N 0.557(2) 0.7500 0.4419(11)
H17_4 H 0.5285 0.7095 0.4297
C43_4 C 0.649(2) 0.7500 0.4288(11)
C44_4 C 0.552(3) 0.7500 0.4964(12)
H18_4 H 0.5285 0.7905 0.4297
H27_5 H 0.585844 0.699945 0.510908
H28_5 H 0.58691 0.799558 0.510936
H29_5 H 0.479509 0.750497 0.508076
H30_4 H 0.655159 0.750146 0.388166
H31_4 H 0.682536 0.799736 0.44399
H32_4 H 0.682456 0.700119 0.443828
H27_6 H 0.585844 0.800055 0.510908
H28_6 H 0.58691 0.700442 0.510936
H29_6 H 0.479509 0.749503 0.508076
H29_7 H 0.0204907 0.250497 0.00807551
H27_7 H 0.914156 0.199945 0.010908
H28_7 H 0.91309 0.299558 0.0109364
H27_8 H 0.0858445 0.699945 0.989092
H28_8 H 0.0869104 0.799558 0.989064
H29_8 H 0.979509 0.750497 0.991924
N3 N 0.635(2) 0.2500 0.2573(11)
H19 H 0.6937 0.2500 0.2463
H20 H 0.5959 0.2500 0.2316
C45 C 0.6147(10) 0.1834(11) 0.2972(6)
H21 H 0.6451 0.1954 0.3282
H22 H 0.6405 0.1381 0.2838
H23 H 0.5494 0.1767 0.3030
C46 C 0.6147(10) 0.3166(11) 0.2972(6)
H24 H 0.6451 0.3046 0.3282
H25 H 0.6405 0.3619 0.2838
H26 H 0.5494 0.3233 0.3030
N3_2 N 0.865(2) 0.7500 0.7573(11)
H19_2 H 0.8063 0.7500 0.7463
H20_2 H 0.9041 0.7500 0.7316
C45_2 C 0.8853(10) 0.8166(11) 0.7972(6)
H21_2 H 0.8549 0.8046 0.8282
H22_2 H 0.8595 0.8619 0.7838
H23_2 H 0.9506 0.8233 0.8030
C46_2 C 0.8853(10) 0.6834(11) 0.7972(6)
H24_2 H 0.8549 0.6954 0.8282
H25_2 H 0.8595 0.6381 0.7838
H26_2 H 0.9506 0.6767 0.8030
N3_3 N 0.135(2) 0.2500 0.2427(11)
H19_3 H 0.1937 0.2500 0.2537
H20_3 H 0.0959 0.2500 0.2684
C45_3 C 0.1147(10) 0.3166(11) 0.2028(6)
H21_3 H 0.1451 0.3046 0.1718
H22_3 H 0.1405 0.3619 0.2162
H23_3 H 0.0494 0.3233 0.1970
C46_3 C 0.1147(10) 0.1834(11) 0.2028(6)
H24_3 H 0.1451 0.1954 0.1718
H25_3 H 0.1405 0.1381 0.2162
H26_3 H 0.0494 0.1767 0.1970
N3_4 N 0.365(2) 0.7500 0.7427(11)
H19_4 H 0.3063 0.7500 0.7537
H20_4 H 0.4041 0.7500 0.7684
C45_4 C 0.3853(10) 0.6834(11) 0.7028(6)
H21_4 H 0.3549 0.6954 0.6718
H22_4 H 0.3595 0.6381 0.7162
H23_4 H 0.4506 0.6767 0.6970
C46_4 C 0.3853(10) 0.8166(11) 0.7028(6)
H24_4 H 0.3549 0.8046 0.6718
H25_4 H 0.3595 0.8619 0.7162
H26_4 H 0.4506 0.8233 0.6970
loop_
_geom_bond_atom_site_label_1
_geom_bond_atom_site_label_2
_geom_bond_site_symmetry_1
_geom_bond_site_symmetry_2
O8 C7 1_555 1_555
O9 C10 1_555 1_555
O10 C10 1_555 1_555
C8 C7 1_555 1_555
C9 C8 1_555 1_555
C10 C9 1_555 1_555
C11 C9 1_555 1_555
H2 C11 1_555 1_555
C12 C8 1_555 1_555
O26 C33 1_555 1_555
O27 C36 1_555 1_555
O28 C36 1_555 1_555
C33 C34 1_555 1_555
C34 C12 1_555 1_555
C35 C11 1_555 1_555
C36 C35 1_555 1_555
Zn13 O28 1_555 1_555
Zn14 O10 1_555 1_555
Zn17 O9 1_555 1_555
C34 C35 1_555 1_555
Zn1 O1 1_555 1_555
Zn2 O3 1_555 1_555
Zn3 O5 1_555 1_555
O1 C1 1_555 1_555
O2 C1 1_555 1_555
O3 C5 1_555 1_555
O4 Zn2 1_555 1_555
O5 C6 1_555 1_555
O6 Zn3 1_555 1_555
O7 Zn3 1_555 1_555
O11 C15 1_555 1_555
O12 C15 1_555 1_555
O13 Zn1 1_555 1_555
O14 C18 1_555 1_555
O15 C21 1_555 1_555
O16 C21 1_555 1_555
C1 C2 1_555 1_555
C2 C3 1_555 1_555
C3 H1 1_555 1_555
C4 C3 1_555 1_555
C5 O6 1_555 1_555
C6 O4 1_555 1_555
C13 C6 1_555 1_555
C14 C13 1_555 1_555
C15 C14 1_555 1_555
C16 C14 1_555 1_555
H4 C16 1_555 1_555
C17 C13 1_555 1_555
H5 C17 1_555 1_555
C18 O13 1_555 1_555
C19 C18 1_555 1_555
C20 C19 1_555 1_555
C21 C20 1_555 1_555
C22 C20 1_555 1_555
H6 C22 1_555 1_555
C23 C19 1_555 1_555
H7 C23 1_555 1_555
O17 C24 1_555 1_555
O18 C24 1_555 1_555
O19 C28 1_555 1_555
O20 C28 1_555 1_555
C24 C25 1_555 1_555
C25 C4 1_555 1_555
C26 C25 1_555 1_555
H8 C26 1_555 1_555
C27 C2 1_555 1_555
C28 C27 1_555 1_555
O21 C29 1_555 1_555
O22 C29 1_555 1_555
O23 C32 1_555 1_555
O24 C32 1_555 1_555
C29 C30 1_555 1_555
C30 C17 1_555 1_555
C31 C16 1_555 1_555
C32 C31 1_555 1_555
O29 C37 1_555 1_555
O30 C37 1_555 1_555
O31 C40 1_555 1_555
O32 C40 1_555 1_555
C37 C38 1_555 1_555
C38 C23 1_555 1_555
C39 C22 1_555 1_555
C40 C39 1_555 1_555
Zn4 O17 1_555 1_555
Zn14 O14 1_555 1_555
Zn17 O20 1_555 1_555
Zn7 O11 1_555 1_555
Zn8 O32 1_555 1_555
Zn9 O16 1_555 1_555
Zn11 O29 1_555 1_555
Zn13 O30 1_555 1_555
Zn18 O22 1_555 1_555
O33 Zn14 1_555 1_555
O34 Zn17 1_555 1_555
O35 Zn17 1_555 1_555
O37 Zn3 1_555 1_555
O39 Zn2 1_555 1_555
O40 Zn1 1_555 1_555
O41 Zn4 1_555 1_555
O42 Zn4 1_555 1_555
O43 Zn2 1_555 1_555
O44 Zn2 1_555 1_555
O45 Zn4 1_555 1_555
O46 Zn1 1_555 1_555
O15 Zn14 1_555 1_555
C4 C5 1_555 1_555
O19 Zn14 1_555 1_555
C26 C27 1_555 1_555
C30 C31 1_555 1_555
O25 Zn18 1_555 1_555
O31 Zn13 1_555 1_555
C38 C39 1_555 1_555
O14_2 C18_2 1_555 1_555
O15_2 C21_2 1_555 1_555
O45 C21_2 1_555 1_555
C18_2 O13_2 1_555 1_555
C19_2 C18_2 1_555 1_555
C20_2 C19_2 1_555 1_555
C21_2 C20_2 1_555 1_555
C22_2 C20_2 1_555 1_555
H6_2 C22_2 1_555 1_555
C23_2 C19_2 1_555 1_555
H7_2 C23_2 1_555 1_555
O19_2 C28_2 1_555 1_555
O20_2 C28_2 1_555 1_555
C28_2 C27_2 1_555 1_555
O29_2 C37_2 1_555 1_555
O30_2 C37_2 1_555 1_555
O31_2 C40_2 1_555 1_555
O32_2 C40_2 1_555 1_555
C37_2 C38_2 1_555 1_555
C38_2 C23_2 1_555 1_555
C39_2 C22_2 1_555 1_555
C40_2 C39_2 1_555 1_555
Zn5 O14_2 1_555 1_555
Zn6 O20_2 1_555 1_555
Zn8_2 O32_2 1_555 1_555
Zn12 O30_2 1_555 1_555
O33_2 Zn5 1_555 1_555
O34_2 Zn6 1_555 1_555
O35_2 Zn6 1_555 1_555
O36 Zn6 1_555 1_555
O38 Zn5 1_555 1_555
O15_2 Zn5 1_555 1_555
O19_2 Zn5 1_555 1_555
O31_2 Zn12 1_555 1_555
C38_2 C39_2 1_555 1_555
O17_2 C24_2 1_555 1_555
C24_2 C25_2 1_555 1_555
C26_2 C25_2 1_555 1_555
H8_2 C26_2 1_555 1_555
Zn9 O17_2 1_555 1_555
O41_2 Zn9 1_555 1_555
Zn7 O1_2 1_555 1_555
O1_2 C1_2 1_555 1_555
O36 C10_2 1_555 1_555
O38 C10_2 1_555 1_555
C1_2 C2_2 1_555 1_555
C2_2 C3_2 1_555 1_555
C3_2 H1_2 1_555 1_555
C9_2 C8_2 1_555 1_555
C10_2 C9_2 1_555 1_555
C11_2 C9_2 1_555 1_555
H2_2 C11_2 1_555 1_555
C12_2 C8_2 1_555 1_555
O27_2 C36_2 1_555 1_555
O28_2 C36_2 1_555 1_555
C34_2 C12_2 1_555 1_555
C35_2 C11_2 1_555 1_555
C36_2 C35_2 1_555 1_555
Zn12 O28_2 1_555 1_555
O46_2 Zn7 1_555 1_555
C34_2 C35_2 1_555 1_555
Zn2_2 O3_2 1_555 1_555
Zn3_2 O5_2 1_555 1_555
O3_2 C5_2 1_555 1_555
O4_2 Zn2_2 1_555 1_555
O5_2 C6_2 1_555 1_555
O6_2 Zn3_2 1_555 1_555
O7_2 Zn3_2 1_555 1_555
O8_2 C7_2 1_555 1_555
O40 C15_2 1_555 1_555
O12_2 C15_2 1_555 1_555
C5_2 O6_2 1_555 1_555
C6_2 O4_2 1_555 1_555
C7_2 O7_2 1_555 1_555
C13_2 C6_2 1_555 1_555
C14_2 C13_2 1_555 1_555
C15_2 C14_2 1_555 1_555
C16_2 C14_2 1_555 1_555
H4_2 C16_2 1_555 1_555
C17_2 C13_2 1_555 1_555
H5_2 C17_2 1_555 1_555
O21_2 C29_2 1_555 1_555
O22_2 C29_2 1_555 1_555
O23_2 C32_2 1_555 1_555
O24_2 C32_2 1_555 1_555
C29_2 C30_2 1_555 1_555
C30_2 C17_2 1_555 1_555
C31_2 C16_2 1_555 1_555
C32_2 C31_2 1_555 1_555
O25_2 C33_2 1_555 1_555
O26_2 C33_2 1_555 1_555
Zn18_2 O22_2 1_555 1_555
O37_2 Zn3_2 1_555 1_555
O39_2 Zn2_2 1_555 1_555
O43_2 Zn2_2 1_555 1_555
O44_2 Zn2_2 1_555 1_555
C4_2 C5_2 1_555 1_555
C30_2 C31_2 1_555 1_555
O25_2 Zn18_2 1_555 1_555
Zn16_2 O5_3 1_555 1_555
O3_3 C5_3 1_555 1_555
O5_3 C6_3 1_555 1_555
O6_3 Zn16_2 1_555 1_555
O7_3 Zn16_2 1_555 1_555
O8_3 C7_3 1_555 1_555
O11_2 C15_3 1_555 1_555
O12_3 C15_3 1_555 1_555
C5_3 O6_3 1_555 1_555
C6_3 O4_3 1_555 1_555
C7_3 O7_3 1_555 1_555
C13_3 C6_3 1_555 1_555
C14_3 C13_3 1_555 1_555
C15_3 C14_3 1_555 1_555
C16_3 C14_3 1_555 1_555
H4_3 C16_3 1_555 1_555
C17_3 C13_3 1_555 1_555
H5_3 C17_3 1_555 1_555
O33_2 C29_3 1_555 1_555
O34_2 C29_3 1_555 1_555
O41 C32_3 1_555 1_555
O24_3 C32_3 1_555 1_555
C29_3 C30_3 1_555 1_555
C30_3 C17_3 1_555 1_555
C31_3 C16_3 1_555 1_555
C32_3 C31_3 1_555 1_555
O35_2 C33_3 1_555 1_555
O26_3 C33_3 1_555 1_555
C4_3 C5_3 1_555 1_555
C30_3 C31_3 1_555 1_555
Zn8 O1_3 1_555 1_555
O1_3 C1_3 1_555 1_555
O9_2 C10_3 1_555 1_555
O10_2 C10_3 1_555 1_555
C1_3 C2_3 1_555 1_555
C2_3 C3_3 1_555 1_555
C3_3 H1_3 1_555 1_555
C9_3 C8_3 1_555 1_555
C10_3 C9_3 1_555 1_555
C11_3 C9_3 1_555 1_555
H2_3 C11_3 1_555 1_555
C12_3 C8_3 1_555 1_555
O37_2 C36_3 1_555 1_555
O39_2 C36_3 1_555 1_555
C34_3 C12_3 1_555 1_555
C35_3 C11_3 1_555 1_555
C36_3 C35_3 1_555 1_555
Zn15_2 O10_2 1_555 1_555
C34_3 C35_3 1_555 1_555
O14_3 C18_3 1_555 1_555
O15_3 C21_3 1_555 1_555
O16_2 C21_3 1_555 1_555
C18_3 O13_3 1_555 1_555
C19_3 C18_3 1_555 1_555
C20_3 C19_3 1_555 1_555
C21_3 C20_3 1_555 1_555
C22_3 C20_3 1_555 1_555
H6_3 C22_3 1_555 1_555
C23_3 C19_3 1_555 1_555
H7_3 C23_3 1_555 1_555
O42_2 C37_3 1_555 1_555
O43_2 C37_3 1_555 1_555
O44_2 C40_3 1_555 1_555
O46 C40_3 1_555 1_555
C37_3 C38_3 1_555 1_555
C38_3 C23_3 1_555 1_555
C39_3 C22_3 1_555 1_555
C40_3 C39_3 1_555 1_555
Zn15_2 O14_3 1_555 1_555
Zn11 O16_2 1_555 1_555
O15_3 Zn15_2 1_555 1_555
C38_3 C39_3 1_555 1_555
O17_3 C24_3 1_555 1_555
C24_3 C25_3 1_555 1_555
C26_3 C25_3 1_555 1_555
H8_3 C26_3 1_555 1_555
Zn10 O17_3 1_555 1_555
O45_2 Zn10 1_555 1_555
O19_3 C28_3 1_555 1_555
O20_3 C28_3 1_555 1_555
C28_3 C27_3 1_555 1_555
Zn18_2 O20_3 1_555 1_555
O17_4 C24_4 1_555 1_555
O18_4 C24_4 1_555 1_555
O19_4 C28_4 1_555 1_555
O20_4 C28_4 1_555 1_555
C24_4 C25_4 1_555 1_555
C26_4 C25_4 1_555 1_555
H8_4 C26_4 1_555 1_555
C28_4 C27_4 1_555 1_555
Zn11 O17_4 1_555 1_555
Zn18 O20_4 1_555 1_555
C26_4 C27_4 1_555 1_555
Zn8_2 O1_4 1_555 1_555
Zn16 O5_4 1_555 1_555
O1_4 C1_4 1_555 1_555
O2_4 C1_4 1_555 1_555
O3_4 C5_4 1_555 1_555
O5_4 C6_4 1_555 1_555
O6_4 Zn16 1_555 1_555
O7_4 Zn16 1_555 1_555
O40_2 C15_4 1_555 1_555
O12_4 C15_4 1_555 1_555
O13_4 Zn8_2 1_555 1_555
O14_4 C18_4 1_555 1_555
O15_4 C21_4 1_555 1_555
O45_2 C21_4 1_555 1_555
C1_4 C2_4 1_555 1_555
C2_4 C3_4 1_555 1_555
C3_4 H1_4 1_555 1_555
C4_4 C3_4 1_555 1_555
C5_4 O6_4 1_555 1_555
C6_4 O4_4 1_555 1_555
C13_4 C6_4 1_555 1_555
C14_4 C13_4 1_555 1_555
C15_4 C14_4 1_555 1_555
C16_4 C14_4 1_555 1_555
H4_4 C16_4 1_555 1_555
C17_4 C13_4 1_555 1_555
H5_4 C17_4 1_555 1_555
C18_4 O13_4 1_555 1_555
C19_4 C18_4 1_555 1_555
C20_4 C19_4 1_555 1_555
C21_4 C20_4 1_555 1_555
C22_4 C20_4 1_555 1_555
H6_4 C22_4 1_555 1_555
C23_4 C19_4 1_555 1_555
H7_4 C23_4 1_555 1_555
O33 C29_4 1_555 1_555
O34 C29_4 1_555 1_555
O41_2 C32_4 1_555 1_555
O24_4 C32_4 1_555 1_555
C29_4 C30_4 1_555 1_555
C30_4 C17_4 1_555 1_555
C31_4 C16_4 1_555 1_555
C32_4 C31_4 1_555 1_555
O42 C37_4 1_555 1_555
O43 C37_4 1_555 1_555
O44 C40_4 1_555 1_555
O46_2 C40_4 1_555 1_555
C37_4 C38_4 1_555 1_555
C38_4 C23_4 1_555 1_555
C39_4 C22_4 1_555 1_555
C40_4 C39_4 1_555 1_555
Zn15 O14_4 1_555 1_555
O38_2 Zn15 1_555 1_555
O15_4 Zn15 1_555 1_555
C4_4 C5_4 1_555 1_555
C30_4 C31_4 1_555 1_555
C38_4 C39_4 1_555 1_555
O8_4 C7_4 1_555 1_555
O36_2 C10_4 1_555 1_555
O38_2 C10_4 1_555 1_555
C8_4 C7_4 1_555 1_555
C9_4 C8_4 1_555 1_555
C10_4 C9_4 1_555 1_555
C11_4 C9_4 1_555 1_555
H2_4 C11_4 1_555 1_555
C12_4 C8_4 1_555 1_555
O26_4 C33_4 1_555 1_555
O37 C36_4 1_555 1_555
O39 C36_4 1_555 1_555
C33_4 C34_4 1_555 1_555
C34_4 C12_4 1_555 1_555
C35_4 C11_4 1_555 1_555
C36_4 C35_4 1_555 1_555
C34_4 C35_4 1_555 1_555
N1 H9 1_555 1_555
H10 N1 1_555 1_555
C41 N1 1_555 1_555
H11 C41 1_555 1_555
H12 C41 1_555 1_555
H13 C41 1_555 1_555
C42 N1 1_555 1_555
H14 C42 1_555 1_555
H15 C42 1_555 1_555
H16 C42 1_555 1_555
N1_2 H9_2 1_555 1_555
H10_2 N1_2 1_555 1_555
C41_2 N1_2 1_555 1_555
H11_2 C41_2 1_555 1_555
H12_2 C41_2 1_555 1_555
H13_2 C41_2 1_555 1_555
C42_2 N1_2 1_555 1_555
H14_2 C42_2 1_555 1_555
H15_2 C42_2 1_555 1_555
H16_2 C42_2 1_555 1_555
H15_3 C42_3 1_555 1_555
H16_3 C42_3 1_555 1_555
N1_3 H9_3 1_555 1_555
H10_3 N1_3 1_555 1_555
C41_3 N1_3 1_555 1_555
H12_3 C41_3 1_555 1_555
H13_3 C41_3 1_555 1_555
N1_4 H9_4 1_555 1_555
H10_4 N1_4 1_555 1_555
C41_4 N1_4 1_555 1_555
H12_4 C41_4 1_555 1_555
H13_4 C41_4 1_555 1_555
H15_4 C42_4 1_555 1_555
H16_4 C42_4 1_555 1_555
N1_5 H9_5 1_555 1_555
H10_5 N1_5 1_555 1_555
C41_5 N1_5 1_555 1_555
H11_5 C41_5 1_555 1_555
H12_5 C41_5 1_555 1_555
H13_5 C41_5 1_555 1_555
C42_5 N1_5 1_555 1_555
H14_5 C42_5 1_555 1_555
H15_5 C42_5 1_555 1_555
H16_5 C42_5 1_555 1_555
N1_6 H9_6 1_555 1_555
H10_6 N1_6 1_555 1_555
C41_6 N1_6 1_555 1_555
H11_6 C41_6 1_555 1_555
H12_6 C41_6 1_555 1_555
H13_6 C41_6 1_555 1_555
C42_6 N1_6 1_555 1_555
H14_6 C42_6 1_555 1_555
H15_6 C42_6 1_555 1_555
H16_6 C42_6 1_555 1_555
N1_7 H9_7 1_555 1_555
H10_7 N1_7 1_555 1_555
C41_7 N1_7 1_555 1_555
H12_7 C41_7 1_555 1_555
H13_7 C41_7 1_555 1_555
H15_7 C42_7 1_555 1_555
H16_7 C42_7 1_555 1_555
H15_8 C42_8 1_555 1_555
H16_8 C42_8 1_555 1_555
N1_8 H9_8 1_555 1_555
H10_8 N1_8 1_555 1_555
C41_8 N1_8 1_555 1_555
H12_8 C41_8 1_555 1_555
H13_8 C41_8 1_555 1_555
N2 H17 1_555 1_555
C43 N2 1_555 1_555
C44 N2 1_555 1_555
H18 N2 1_555 1_555
C44 H27 1_555 1_555
C44 H28 1_555 1_555
C44 H29 1_555 1_555
C43 H30 1_555 1_555
C43 H31 1_555 1_555
C43 H32 1_555 1_555
C44 H27_2 1_555 1_555
C44 H28_2 1_555 1_555
C44 H29_2 1_555 1_555
N2_2 H17_2 1_555 1_555
C43_2 N2_2 1_555 1_555
C44_2 N2_2 1_555 1_555
H18_2 N2_2 1_555 1_555
C43_2 H30_2 1_555 1_555
C43_2 H31_2 1_555 1_555
C43_2 H32_2 1_555 1_555
N2_3 H17_3 1_555 1_555
C43_3 N2_3 1_555 1_555
C44_3 N2_3 1_555 1_555
H18_3 N2_3 1_555 1_555
C43_3 H30_3 1_555 1_555
C43_3 H31_3 1_555 1_555
C43_3 H32_3 1_555 1_555
N2_4 H17_4 1_555 1_555
C43_4 N2_4 1_555 1_555
C44_4 N2_4 1_555 1_555
H18_4 N2_4 1_555 1_555
C44_4 H27_5 1_555 1_555
C44_4 H28_5 1_555 1_555
C44_4 H29_5 1_555 1_555
C43_4 H30_4 1_555 1_555
C43_4 H31_4 1_555 1_555
C43_4 H32_4 1_555 1_555
C44_4 H27_6 1_555 1_555
C44_4 H28_6 1_555 1_555
C44_4 H29_6 1_555 1_555
N3 H19 1_555 1_555
H20 N3 1_555 1_555
C45 N3 1_555 1_555
H21 C45 1_555 1_555
H22 C45 1_555 1_555
H23 C45 1_555 1_555
C46 N3 1_555 1_555
H24 C46 1_555 1_555
H25 C46 1_555 1_555
H26 C46 1_555 1_555
N3_2 H19_2 1_555 1_555
H20_2 N3_2 1_555 1_555
C45_2 N3_2 1_555 1_555
H21_2 C45_2 1_555 1_555
H22_2 C45_2 1_555 1_555
H23_2 C45_2 1_555 1_555
C46_2 N3_2 1_555 1_555
H24_2 C46_2 1_555 1_555
H25_2 C46_2 1_555 1_555
H26_2 C46_2 1_555 1_555
N3_3 H19_3 1_555 1_555
H20_3 N3_3 1_555 1_555
C45_3 N3_3 1_555 1_555
H21_3 C45_3 1_555 1_555
H22_3 C45_3 1_555 1_555
H23_3 C45_3 1_555 1_555
C46_3 N3_3 1_555 1_555
H24_3 C46_3 1_555 1_555
H25_3 C46_3 1_555 1_555
H26_3 C46_3 1_555 1_555
N3_4 H19_4 1_555 1_555
H20_4 N3_4 1_555 1_555
C45_4 N3_4 1_555 1_555
H21_4 C45_4 1_555 1_555
H22_4 C45_4 1_555 1_555
H23_4 C45_4 1_555 1_555
C46_4 N3_4 1_555 1_555
H24_4 C46_4 1_555 1_555
H25_4 C46_4 1_555 1_555
H26_4 C46_4 1_555 1_555

#END
