
###############################################################################
#
# This file contains modified crystal structure data generated from the
# MOF subset of the Cambridge Structural Database (CSD) v543 
# hosted by the Cambridge Crystallographic Data Centre (CCDC).
#
# This work is licensed under the Creative Commons
# Attribution-NonCommercial-ShareAlike 4.0 International License.
# To view a copy of this license, visit
# http://creativecommons.org/licenses/by-nc-sa/4.0/
# or send a letter to
# Creative Commons, PO Box 1866, Mountain View, CA 94042, USA.
#
# CIF created using the CSD Python API on 29 September 2022
# The structure has been converted into the P1 space group
# The structure has a 3D framework
# The original CSD entry NATHUO is in the orthorhombic crystal system
# The framework has been calculated to contain at least 10.0% void space
# The void calculation uses a probe of radius 1.32A, grid spacing 0.4
# The framework is charged, counterions have been retained in the structure
#
###############################################################################

data_NATHUO
_chemical_formula_moiety         '(C208 H136 F72 N8 O48 Zn8)n'
_symmetry_cell_setting           triclinic
_symmetry_space_group_name_H-M   'P 1'
_symmetry_Int_Tables_number      1
_space_group_name_Hall           'P 1'
loop_
_symmetry_equiv_pos_site_id
_symmetry_equiv_pos_as_xyz
1 x,y,z
_cell_length_a                   7.8849(2)
_cell_length_b                   36.8328(7)
_cell_length_c                   26.7656(5)
_cell_angle_alpha                90
_cell_angle_beta                 90
_cell_angle_gamma                90
_cell_volume                     7773.34
loop_
_atom_site_label
_atom_site_type_symbol
_atom_site_fract_x
_atom_site_fract_y
_atom_site_fract_z
F8 F 0.1615(6) 0.11809(11) 0.2243(2)
F9 F 0.0350(9) 0.07635(10) 0.26734(16)
O2 O 0.0094(4) 0.18668(11) 0.03393(12)
C20 C 0.0181(7) 0.04087(12) 0.1801(2)
H7 H 0.0693 0.0296 0.2082
C24 C 0.0160(10) 0.09835(13) 0.2280(2)
O15 O 0.0590(3) 0.23839(7) 0.15078(9)
F10 F 0.1043(6) 0.87810(9) 0.24015(14)
O7 O 0.0301(4) 0.84317(7) 0.14667(11)
O8 O 0.2877(5) 0.85805(8) 0.12192(17)
C25 C 0.1411(6) 0.86580(10) 0.1362(2)
C26 C 0.0941(7) 0.90594(10) 0.1391(2)
C27 C 0.0185(7) 0.92228(11) 0.1813(2)
C29 C 0.0200(7) 0.97986(9) 0.1374(2)
C30 C 0.0815(11) 0.96266(13) 0.0965(2)
H11 H 0.0979 0.9760 0.0665
C31 C 0.1204(10) 0.92638(14) 0.0976(3)
H12 H 0.1669 0.9153 0.0686
Zn2 Zn 0.13239(5) 0.79525(2) 0.13361(2)
O9 O 0.2101(4) 0.78456(7) 0.06640(10)
C33 C 0.1286(5) 0.79882(10) 0.03092(15)
O13 O 0.2952(4) 0.78299(7) 0.18615(9)
F13 F 0.1343(6) 0.87193(9) 0.98747(15)
F15 F 0.1390(7) 0.87749(9) 0.90763(15)
F16 F 0.6221(3) 0.66775(7) 0.76384(11)
F17 F 0.4146(4) 0.67784(7) 0.71340(9)
F18 F 0.3664(3) 0.66543(7) 0.79030(11)
O11 O 0.7048(4) 0.71701(7) 0.68615(9)
O12 O 0.5590(3) 0.76161(7) 0.65078(9)
C34 C 0.2109(5) 0.79501(9) 0.98005(13)
C35 C 0.1912(5) 0.81927(10) 0.94015(14)
C36 C 0.2592(5) 0.81125(10) 0.89355(13)
H13 H 0.2446 0.8280 0.8669
C37 C 0.3486(4) 0.77914(10) 0.88506(13)
C38 C 0.3712(5) 0.75558(11) 0.92540(15)
H14 H 0.4336 0.7338 0.9207
C39 C 0.3053(5) 0.76325(10) 0.97180(13)
H15 H 0.3238 0.7468 0.9986
C40 C 0.0989(8) 0.85460(13) 0.9454(2)
C41 C 0.4123(4) 0.76988(10) 0.83463(13)
C42 C 0.4174(4) 0.73391(10) 0.81932(13)
H16 H 0.3803 0.7155 0.8417
C43 C 0.4751(4) 0.72399(9) 0.77221(13)
C44 C 0.5274(4) 0.75066(9) 0.73891(12)
C45 C 0.5192(5) 0.78645(10) 0.75350(13)
H17 H 0.5503 0.8049 0.7304
C46 C 0.4670(5) 0.79631(9) 0.80085(14)
H18 H 0.4683 0.8211 0.8105
C47 C 0.4709(5) 0.68416(10) 0.75958(15)
C48 C 0.5991(4) 0.74274(9) 0.68783(13)
Zn4 Zn 0.36761(5) 0.79525(2) 0.63361(2)
Zn5 Zn 0.86761(5) 0.70475(2) 0.63361(2)
Zn1 Zn 0.86761(5) 0.20475(2) 0.13361(2)
F7 F 0.8957(6) 0.12190(9) 0.24015(14)
O1 O 0.7899(4) 0.21544(7) 0.06640(10)
O5 O 0.9699(4) 0.15683(7) 0.14667(11)
O6 O 0.7123(5) 0.14195(8) 0.12192(17)
C1 C 0.8714(5) 0.20118(10) 0.03092(15)
C17 C 0.8589(6) 0.13420(10) 0.1362(2)
C18 C 0.9059(7) 0.09406(10) 0.1391(2)
C19 C 0.9815(7) 0.07772(11) 0.1813(2)
C21 C 0.9800(7) 0.02014(9) 0.1374(2)
C22 C 0.9185(11) 0.03734(13) 0.0965(2)
H8 H 0.9021 0.0240 0.0665
C23 C 0.8796(10) 0.07362(14) 0.0976(3)
H9 H 0.8331 0.0847 0.0686
O14 O 0.7048(4) 0.21701(7) 0.18615(9)
F1 F 0.8657(6) 0.12807(9) 0.98747(15)
F3 F 0.8610(7) 0.12251(9) 0.90763(15)
F4 F 0.3779(3) 0.33225(7) 0.76384(11)
F5 F 0.5854(4) 0.32216(7) 0.71340(9)
F6 F 0.6336(3) 0.33457(7) 0.79030(11)
O3 O 0.2952(4) 0.28299(7) 0.68615(9)
O4 O 0.4410(3) 0.23839(7) 0.65078(9)
C2 C 0.7891(5) 0.20499(9) 0.98005(13)
C3 C 0.8088(5) 0.18073(10) 0.94015(14)
C4 C 0.7408(5) 0.18875(10) 0.89355(13)
H1 H 0.7554 0.1720 0.8669
C5 C 0.6514(4) 0.22086(10) 0.88506(13)
C6 C 0.6288(5) 0.24442(11) 0.92540(15)
H2 H 0.5664 0.2662 0.9207
C7 C 0.6947(5) 0.23675(10) 0.97180(13)
H3 H 0.6762 0.2532 0.9986
C8 C 0.9011(8) 0.14540(13) 0.9454(2)
C9 C 0.5877(4) 0.23012(10) 0.83463(13)
C10 C 0.5826(4) 0.26609(10) 0.81932(13)
H4 H 0.6197 0.2845 0.8417
C11 C 0.5249(4) 0.27601(9) 0.77221(13)
C12 C 0.4726(4) 0.24934(9) 0.73891(12)
C13 C 0.4808(5) 0.21355(10) 0.75350(13)
H5 H 0.4497 0.1951 0.7304
C14 C 0.5330(5) 0.20369(9) 0.80085(14)
H6 H 0.5317 0.1789 0.8105
C15 C 0.5291(5) 0.31584(10) 0.75958(15)
C16 C 0.4009(4) 0.25726(9) 0.68783(13)
Zn3 Zn 0.63239(5) 0.20475(2) 0.63361(2)
Zn6 Zn 0.13239(5) 0.29525(2) 0.63361(2)
F11 F 0.8385(6) 0.88191(11) 0.2243(2)
F12 F 0.9650(9) 0.92365(10) 0.26734(16)
C28 C 0.9819(7) 0.95913(12) 0.1801(2)
H10 H 0.9307 0.9704 0.2082
C32 C 0.9840(10) 0.90165(13) 0.2280(2)
O10 O 0.9906(4) 0.81332(11) 0.03393(12)
O16 O 0.9410(3) 0.76161(7) 0.15078(9)
F4_2 F 0.1221(3) 0.33225(7) 0.26384(11)
O3_2 O 0.2048(4) 0.28299(7) 0.18615(9)
C12_2 C 0.0274(4) 0.24934(9) 0.23891(12)
C13_2 C 0.0192(5) 0.21355(10) 0.25350(13)
H5_2 H 0.0503 0.1951 0.2304
C16_2 C 0.0991(4) 0.25726(9) 0.18783(13)
Zn6_2 Zn 0.36761(5) 0.29525(2) 0.13361(2)
F1_2 F 0.6343(6) 0.12807(9) 0.48747(15)
F2 F 0.4309(6) 0.14840(12) 0.44362(14)
F3_2 F 0.6390(7) 0.12251(9) 0.40763(15)
F5_2 F 0.9146(4) 0.32216(7) 0.21340(9)
F6_2 F 0.8664(3) 0.33457(7) 0.29030(11)
F7_2 F 0.6043(6) 0.12190(9) 0.74015(14)
F8_2 F 0.3385(6) 0.11809(11) 0.7243(2)
F9_2 F 0.4650(9) 0.07635(10) 0.76734(16)
O1_2 O 0.7101(4) 0.21544(7) 0.56640(10)
O2_2 O 0.4906(4) 0.18668(11) 0.53393(12)
O5_2 O 0.5301(4) 0.15683(7) 0.64667(11)
O6_2 O 0.7877(5) 0.14195(8) 0.62192(17)
C1_2 C 0.6286(5) 0.20118(10) 0.53092(15)
C2_2 C 0.7109(5) 0.20499(9) 0.48005(13)
C3_2 C 0.6912(5) 0.18073(10) 0.44015(14)
C4_2 C 0.7592(5) 0.18875(10) 0.39355(13)
H1_2 H 0.7446 0.1720 0.3669
C5_2 C 0.8486(4) 0.22086(10) 0.38506(13)
C6_2 C 0.8712(5) 0.24442(11) 0.42540(15)
H2_2 H 0.9336 0.2662 0.4207
C7_2 C 0.8053(5) 0.23675(10) 0.47180(13)
H3_2 H 0.8238 0.2532 0.4986
C8_2 C 0.5989(8) 0.14540(13) 0.4454(2)
C9_2 C 0.9123(4) 0.23012(10) 0.33463(13)
C10_2 C 0.9174(4) 0.26609(10) 0.31932(13)
H4_2 H 0.8803 0.2845 0.3417
C11_2 C 0.9751(4) 0.27601(9) 0.27221(13)
C14_2 C 0.9670(5) 0.20369(9) 0.30085(14)
H6_2 H 0.9683 0.1789 0.3105
C15_2 C 0.9709(5) 0.31584(10) 0.25958(15)
C17_2 C 0.6411(6) 0.13420(10) 0.6362(2)
C18_2 C 0.5941(7) 0.09406(10) 0.6391(2)
C19_2 C 0.5185(7) 0.07772(11) 0.6813(2)
C20_2 C 0.4819(7) 0.04087(12) 0.6801(2)
H7_2 H 0.4307 0.0296 0.7082
C21_2 C 0.5200(7) 0.02014(9) 0.6374(2)
C22_2 C 0.5815(11) 0.03734(13) 0.5965(2)
H8_2 H 0.5979 0.0240 0.5665
C23_2 C 0.6204(10) 0.07362(14) 0.5976(3)
H9_2 H 0.6669 0.0847 0.5686
C24_2 C 0.4840(10) 0.09835(13) 0.7280(2)
O14_2 O 0.7952(4) 0.21701(7) 0.68615(9)
F10_2 F 0.3957(6) 0.87810(9) 0.74015(14)
F11_2 F 0.6615(6) 0.88191(11) 0.7243(2)
F12_2 F 0.5350(9) 0.92365(10) 0.76734(16)
O7_2 O 0.4699(4) 0.84317(7) 0.64667(11)
O8_2 O 0.2123(5) 0.85805(8) 0.62192(17)
C25_2 C 0.3589(6) 0.86580(10) 0.6362(2)
C26_2 C 0.4059(7) 0.90594(10) 0.6391(2)
C27_2 C 0.4815(7) 0.92228(11) 0.6813(2)
C28_2 C 0.5181(7) 0.95913(12) 0.6801(2)
H10_2 H 0.5693 0.9704 0.7082
C29_2 C 0.4800(7) 0.97986(9) 0.6374(2)
C30_2 C 0.4185(11) 0.96266(13) 0.5965(2)
H11_2 H 0.4021 0.9760 0.5665
C31_2 C 0.3796(10) 0.92638(14) 0.5976(3)
H12_2 H 0.3331 0.9153 0.5686
C32_2 C 0.5160(10) 0.90165(13) 0.7280(2)
F13_2 F 0.3657(6) 0.87193(9) 0.48747(15)
F14 F 0.5691(6) 0.85160(12) 0.44362(14)
F15_2 F 0.3610(7) 0.87749(9) 0.40763(15)
F17_2 F 0.0854(4) 0.67784(7) 0.21340(9)
F18_2 F 0.1336(3) 0.66543(7) 0.29030(11)
O9_2 O 0.2899(4) 0.78456(7) 0.56640(10)
O10_2 O 0.5094(4) 0.81332(11) 0.53393(12)
C33_2 C 0.3714(5) 0.79882(10) 0.53092(15)
C34_2 C 0.2891(5) 0.79501(9) 0.48005(13)
C35_2 C 0.3088(5) 0.81927(10) 0.44015(14)
C36_2 C 0.2408(5) 0.81125(10) 0.39355(13)
H13_2 H 0.2554 0.8280 0.3669
C37_2 C 0.1514(4) 0.77914(10) 0.38506(13)
C38_2 C 0.1288(5) 0.75558(11) 0.42540(15)
H14_2 H 0.0664 0.7338 0.4207
C39_2 C 0.1947(5) 0.76325(10) 0.47180(13)
H15_2 H 0.1762 0.7468 0.4986
C40_2 C 0.4011(8) 0.85460(13) 0.4454(2)
C41_2 C 0.0877(4) 0.76988(10) 0.33463(13)
C42_2 C 0.0826(4) 0.73391(10) 0.31932(13)
H16_2 H 0.1197 0.7155 0.3417
C43_2 C 0.0249(4) 0.72399(9) 0.27221(13)
C46_2 C 0.0330(5) 0.79631(9) 0.30085(14)
H18_2 H 0.0317 0.8211 0.3105
C47_2 C 0.0291(5) 0.68416(10) 0.25958(15)
O13_2 O 0.2048(4) 0.78299(7) 0.68615(9)
F16_2 F 0.8779(3) 0.66775(7) 0.26384(11)
O11_2 O 0.7952(4) 0.71701(7) 0.18615(9)
C44_2 C 0.9726(4) 0.75066(9) 0.23891(12)
C45_2 C 0.9808(5) 0.78645(10) 0.25350(13)
H17_2 H 0.9497 0.8049 0.2304
C48_2 C 0.9009(4) 0.74274(9) 0.18783(13)
Zn5_2 Zn 0.63239(5) 0.70475(2) 0.13361(2)
F2_2 F 0.0691(6) 0.64840(12) 0.44362(14)
F8_3 F 0.1615(6) 0.61809(11) 0.7243(2)
F9_3 F 0.0350(9) 0.57635(10) 0.76734(16)
O2_3 O 0.0094(4) 0.68668(11) 0.53393(12)
C20_3 C 0.0181(7) 0.54087(12) 0.6801(2)
H7_3 H 0.0693 0.5296 0.7082
C24_3 C 0.0160(10) 0.59835(13) 0.7280(2)
F10_3 F 0.1043(6) 0.37810(9) 0.74015(14)
O7_3 O 0.0301(4) 0.34317(7) 0.64667(11)
O8_3 O 0.2877(5) 0.35805(8) 0.62192(17)
C25_3 C 0.1411(6) 0.36580(10) 0.6362(2)
C26_3 C 0.0941(7) 0.40594(10) 0.6391(2)
C27_3 C 0.0185(7) 0.42228(11) 0.6813(2)
C29_3 C 0.0200(7) 0.47986(9) 0.6374(2)
C30_3 C 0.0815(11) 0.46266(13) 0.5965(2)
H11_3 H 0.0979 0.4760 0.5665
C31_3 C 0.1204(10) 0.42638(14) 0.5976(3)
H12_3 H 0.1669 0.4153 0.5686
F13_3 F 0.1343(6) 0.37193(9) 0.48747(15)
F15_3 F 0.1390(7) 0.37749(9) 0.40763(15)
F16_3 F 0.6221(3) 0.16775(7) 0.26384(11)
F17_3 F 0.4146(4) 0.17784(7) 0.21340(9)
F18_3 F 0.3664(3) 0.16543(7) 0.29030(11)
O9_3 O 0.2101(4) 0.28456(7) 0.56640(10)
O12_2 O 0.5590(3) 0.26161(7) 0.15078(9)
C33_3 C 0.1286(5) 0.29882(10) 0.53092(15)
C34_3 C 0.2109(5) 0.29501(9) 0.48005(13)
C35_3 C 0.1912(5) 0.31927(10) 0.44015(14)
C36_3 C 0.2592(5) 0.31125(10) 0.39355(13)
H13_3 H 0.2446 0.3280 0.3669
C37_3 C 0.3486(4) 0.27914(10) 0.38506(13)
C38_3 C 0.3712(5) 0.25558(11) 0.42540(15)
H14_3 H 0.4336 0.2338 0.4207
C39_3 C 0.3053(5) 0.26325(10) 0.47180(13)
H15_3 H 0.3238 0.2468 0.4986
C40_3 C 0.0989(8) 0.35460(13) 0.4454(2)
C41_3 C 0.4123(4) 0.26988(10) 0.33463(13)
C42_3 C 0.4174(4) 0.23391(10) 0.31932(13)
H16_3 H 0.3803 0.2155 0.3417
C43_3 C 0.4751(4) 0.22399(9) 0.27221(13)
C44_3 C 0.5274(4) 0.25066(9) 0.23891(12)
C45_3 C 0.5192(5) 0.28645(10) 0.25350(13)
H17_3 H 0.5503 0.3049 0.2304
C46_3 C 0.4670(5) 0.29631(9) 0.30085(14)
H18_3 H 0.4683 0.3211 0.3105
C47_3 C 0.4709(5) 0.18416(10) 0.25958(15)
C48_3 C 0.5991(4) 0.24274(9) 0.18783(13)
O15_2 O 0.0590(3) 0.73839(7) 0.65078(9)
F1_3 F 0.8657(6) 0.62807(9) 0.48747(15)
F3_3 F 0.8610(7) 0.62251(9) 0.40763(15)
F4_3 F 0.3779(3) 0.83225(7) 0.26384(11)
F5_3 F 0.5854(4) 0.82216(7) 0.21340(9)
F6_3 F 0.6336(3) 0.83457(7) 0.29030(11)
F7_3 F 0.8957(6) 0.62190(9) 0.74015(14)
O1_3 O 0.7899(4) 0.71544(7) 0.56640(10)
O4_2 O 0.4410(3) 0.73839(7) 0.15078(9)
O5_3 O 0.9699(4) 0.65683(7) 0.64667(11)
O6_3 O 0.7123(5) 0.64195(8) 0.62192(17)
C1_3 C 0.8714(5) 0.70118(10) 0.53092(15)
C2_3 C 0.7891(5) 0.70499(9) 0.48005(13)
C3_3 C 0.8088(5) 0.68073(10) 0.44015(14)
C4_3 C 0.7408(5) 0.68875(10) 0.39355(13)
H1_3 H 0.7554 0.6720 0.3669
C5_3 C 0.6514(4) 0.72086(10) 0.38506(13)
C6_3 C 0.6288(5) 0.74442(11) 0.42540(15)
H2_3 H 0.5664 0.7662 0.4207
C7_3 C 0.6947(5) 0.73675(10) 0.47180(13)
H3_3 H 0.6762 0.7532 0.4986
C8_3 C 0.9011(8) 0.64540(13) 0.4454(2)
C9_3 C 0.5877(4) 0.73012(10) 0.33463(13)
C10_3 C 0.5826(4) 0.76609(10) 0.31932(13)
H4_3 H 0.6197 0.7845 0.3417
C11_3 C 0.5249(4) 0.77601(9) 0.27221(13)
C12_3 C 0.4726(4) 0.74934(9) 0.23891(12)
C13_3 C 0.4808(5) 0.71355(10) 0.25350(13)
H5_3 H 0.4497 0.6951 0.2304
C14_3 C 0.5330(5) 0.70369(9) 0.30085(14)
H6_3 H 0.5317 0.6789 0.3105
C15_3 C 0.5291(5) 0.81584(10) 0.25958(15)
C16_3 C 0.4009(4) 0.75726(9) 0.18783(13)
C17_3 C 0.8589(6) 0.63420(10) 0.6362(2)
C18_3 C 0.9059(7) 0.59406(10) 0.6391(2)
C19_3 C 0.9815(7) 0.57772(11) 0.6813(2)
C21_3 C 0.9800(7) 0.52014(9) 0.6374(2)
C22_3 C 0.9185(11) 0.53734(13) 0.5965(2)
H8_3 H 0.9021 0.5240 0.5665
C23_3 C 0.8796(10) 0.57362(14) 0.5976(3)
H9_3 H 0.8331 0.5847 0.5686
F11_3 F 0.8385(6) 0.38191(11) 0.7243(2)
F12_3 F 0.9650(9) 0.42365(10) 0.76734(16)
C28_3 C 0.9819(7) 0.45913(12) 0.6801(2)
H10_3 H 0.9307 0.4704 0.7082
C32_3 C 0.9840(10) 0.40165(13) 0.7280(2)
F14_2 F 0.9309(6) 0.35160(12) 0.44362(14)
O10_3 O 0.9906(4) 0.31332(11) 0.53393(12)
O16_2 O 0.9410(3) 0.26161(7) 0.65078(9)
F4_4 F 0.1221(3) 0.83225(7) 0.76384(11)
C12_4 C 0.0274(4) 0.74934(9) 0.73891(12)
C13_4 C 0.0192(5) 0.71355(10) 0.75350(13)
H5_4 H 0.0503 0.6951 0.7304
C16_4 C 0.0991(4) 0.75726(9) 0.68783(13)
F7_4 F 0.6043(6) 0.62190(9) 0.24015(14)
F8_4 F 0.3385(6) 0.61809(11) 0.2243(2)
F9_4 F 0.4650(9) 0.57635(10) 0.26734(16)
O1_4 O 0.7101(4) 0.71544(7) 0.06640(10)
O2_4 O 0.4906(4) 0.68668(11) 0.03393(12)
O5_4 O 0.5301(4) 0.65683(7) 0.14667(11)
O6_4 O 0.7877(5) 0.64195(8) 0.12192(17)
C1_4 C 0.6286(5) 0.70118(10) 0.03092(15)
C17_4 C 0.6411(6) 0.63420(10) 0.1362(2)
C18_4 C 0.5941(7) 0.59406(10) 0.1391(2)
C19_4 C 0.5185(7) 0.57772(11) 0.1813(2)
C20_4 C 0.4819(7) 0.54087(12) 0.1801(2)
H7_4 H 0.4307 0.5296 0.2082
C21_4 C 0.5200(7) 0.52014(9) 0.1374(2)
C22_4 C 0.5815(11) 0.53734(13) 0.0965(2)
H8_4 H 0.5979 0.5240 0.0665
C23_4 C 0.6204(10) 0.57362(14) 0.0976(3)
H9_4 H 0.6669 0.5847 0.0686
C24_4 C 0.4840(10) 0.59835(13) 0.2280(2)
F10_4 F 0.3957(6) 0.37810(9) 0.24015(14)
F11_4 F 0.6615(6) 0.38191(11) 0.2243(2)
F12_4 F 0.5350(9) 0.42365(10) 0.26734(16)
O7_4 O 0.4699(4) 0.34317(7) 0.14667(11)
O8_4 O 0.2123(5) 0.35805(8) 0.12192(17)
C25_4 C 0.3589(6) 0.36580(10) 0.1362(2)
C26_4 C 0.4059(7) 0.40594(10) 0.1391(2)
C27_4 C 0.4815(7) 0.42228(11) 0.1813(2)
C28_4 C 0.5181(7) 0.45913(12) 0.1801(2)
H10_4 H 0.5693 0.4704 0.2082
C29_4 C 0.4800(7) 0.47986(9) 0.1374(2)
C30_4 C 0.4185(11) 0.46266(13) 0.0965(2)
H11_4 H 0.4021 0.4760 0.0665
C31_4 C 0.3796(10) 0.42638(14) 0.0976(3)
H12_4 H 0.3331 0.4153 0.0686
C32_4 C 0.5160(10) 0.40165(13) 0.2280(2)
O9_4 O 0.2899(4) 0.28456(7) 0.06640(10)
O10_4 O 0.5094(4) 0.31332(11) 0.03393(12)
C33_4 C 0.3714(5) 0.29882(10) 0.03092(15)
F1_4 F 0.6343(6) 0.62807(9) 0.98747(15)
F2_3 F 0.4309(6) 0.64840(12) 0.94362(14)
F3_4 F 0.6390(7) 0.62251(9) 0.90763(15)
F5_4 F 0.9146(4) 0.82216(7) 0.71340(9)
F6_4 F 0.8664(3) 0.83457(7) 0.79030(11)
C2_4 C 0.7109(5) 0.70499(9) 0.98005(13)
C3_4 C 0.6912(5) 0.68073(10) 0.94015(14)
C4_4 C 0.7592(5) 0.68875(10) 0.89355(13)
H1_4 H 0.7446 0.6720 0.8669
C5_4 C 0.8486(4) 0.72086(10) 0.88506(13)
C6_4 C 0.8712(5) 0.74442(11) 0.92540(15)
H2_4 H 0.9336 0.7662 0.9207
C7_4 C 0.8053(5) 0.73675(10) 0.97180(13)
H3_4 H 0.8238 0.7532 0.9986
C8_4 C 0.5989(8) 0.64540(13) 0.9454(2)
C9_4 C 0.9123(4) 0.73012(10) 0.83463(13)
C10_4 C 0.9174(4) 0.76609(10) 0.81932(13)
H4_4 H 0.8803 0.7845 0.8417
C11_4 C 0.9751(4) 0.77601(9) 0.77221(13)
C14_4 C 0.9670(5) 0.70369(9) 0.80085(14)
H6_4 H 0.9683 0.6789 0.8105
C15_4 C 0.9709(5) 0.81584(10) 0.75958(15)
F13_4 F 0.3657(6) 0.37193(9) 0.98747(15)
F14_3 F 0.5691(6) 0.35160(12) 0.94362(14)
F15_4 F 0.3610(7) 0.37749(9) 0.90763(15)
F17_4 F 0.0854(4) 0.17784(7) 0.71340(9)
F18_4 F 0.1336(3) 0.16543(7) 0.79030(11)
C34_4 C 0.2891(5) 0.29501(9) 0.98005(13)
C35_4 C 0.3088(5) 0.31927(10) 0.94015(14)
C36_4 C 0.2408(5) 0.31125(10) 0.89355(13)
H13_4 H 0.2554 0.3280 0.8669
C37_4 C 0.1514(4) 0.27914(10) 0.88506(13)
C38_4 C 0.1288(5) 0.25558(11) 0.92540(15)
H14_4 H 0.0664 0.2338 0.9207
C39_4 C 0.1947(5) 0.26325(10) 0.97180(13)
H15_4 H 0.1762 0.2468 0.9986
C40_4 C 0.4011(8) 0.35460(13) 0.9454(2)
C41_4 C 0.0877(4) 0.26988(10) 0.83463(13)
C42_4 C 0.0826(4) 0.23391(10) 0.81932(13)
H16_4 H 0.1197 0.2155 0.8417
C43_4 C 0.0249(4) 0.22399(9) 0.77221(13)
C46_4 C 0.0330(5) 0.29631(9) 0.80085(14)
H18_4 H 0.0317 0.3211 0.8105
C47_4 C 0.0291(5) 0.18416(10) 0.75958(15)
F16_4 F 0.8779(3) 0.16775(7) 0.76384(11)
C44_4 C 0.9726(4) 0.25066(9) 0.73891(12)
C45_4 C 0.9808(5) 0.28645(10) 0.75350(13)
H17_4 H 0.9497 0.3049 0.7304
C48_4 C 0.9009(4) 0.24274(9) 0.68783(13)
F2_4 F 0.0691(6) 0.14840(12) 0.94362(14)
F14_4 F 0.9309(6) 0.85160(12) 0.94362(14)
N1 N 0.3086(6) 0.15841(14) 0.0674(3)
H19 H 0.3247 0.1386 0.0872
H20 H 0.1954 0.1606 0.0615
C49 C 0.3695(7) 0.1905(2) 0.0929(3)
H21 H 0.4929 0.1890 0.0967
H22 H 0.3165 0.1921 0.1259
H23 H 0.3404 0.2121 0.0733
C50 C 0.3964(16) 0.1534(4) 0.0209(5)
H24 H 0.4112 0.1769 0.0044
H26 H 0.5077 0.1425 0.0272
H25 H 0.3301 0.1373 0.9992
N1_2 N 0.6914(6) 0.84159(14) 0.0674(3)
H19_2 H 0.6753 0.8614 0.0872
H20_2 H 0.8046 0.8394 0.0615
C49_2 C 0.6305(7) 0.8095(2) 0.0929(3)
H21_2 H 0.5071 0.8110 0.0967
H22_2 H 0.6835 0.8079 0.1259
H23_2 H 0.6596 0.7879 0.0733
C50_2 C 0.6036(16) 0.8466(4) 0.0209(5)
H24_2 H 0.5888 0.8231 0.0044
H26_2 H 0.4923 0.8575 0.0272
H25_2 H 0.6699 0.8627 0.9992
N1_3 N 0.1914(6) 0.15841(14) 0.5674(3)
H19_3 H 0.1753 0.1386 0.5872
H20_3 H 0.3046 0.1606 0.5615
C49_3 C 0.1305(7) 0.1905(2) 0.5929(3)
H21_3 H 0.0071 0.1890 0.5967
H22_3 H 0.1835 0.1921 0.6259
H23_3 H 0.1596 0.2121 0.5733
C50_3 C 0.1036(16) 0.1534(4) 0.5209(5)
H24_3 H 0.0888 0.1769 0.5044
H25_3 H 0.1699 0.1373 0.4992
H26_3 H 0.9923 0.1425 0.5272
H26_4 H 0.0077 0.8575 0.5272
N1_4 N 0.8086(6) 0.84159(14) 0.5674(3)
H19_4 H 0.8247 0.8614 0.5872
H20_4 H 0.6954 0.8394 0.5615
C49_4 C 0.8695(7) 0.8095(2) 0.5929(3)
H21_4 H 0.9929 0.8110 0.5967
H22_4 H 0.8165 0.8079 0.6259
H23_4 H 0.8404 0.7879 0.5733
C50_4 C 0.8964(16) 0.8466(4) 0.5209(5)
H24_4 H 0.9112 0.8231 0.5044
H25_4 H 0.8301 0.8627 0.4992
N1_5 N 0.3086(6) 0.65841(14) 0.5674(3)
H19_5 H 0.3247 0.6386 0.5872
H20_5 H 0.1954 0.6606 0.5615
C49_5 C 0.3695(7) 0.6905(2) 0.5929(3)
H21_5 H 0.4929 0.6890 0.5967
H22_5 H 0.3165 0.6921 0.6259
H23_5 H 0.3404 0.7121 0.5733
C50_5 C 0.3964(16) 0.6534(4) 0.5209(5)
H24_5 H 0.4112 0.6769 0.5044
H25_5 H 0.3301 0.6373 0.4992
H26_5 H 0.5077 0.6425 0.5272
N1_6 N 0.6914(6) 0.34159(14) 0.5674(3)
H19_6 H 0.6753 0.3614 0.5872
H20_6 H 0.8046 0.3394 0.5615
C49_6 C 0.6305(7) 0.3095(2) 0.5929(3)
H21_6 H 0.5071 0.3110 0.5967
H22_6 H 0.6835 0.3079 0.6259
H23_6 H 0.6596 0.2879 0.5733
C50_6 C 0.6036(16) 0.3466(4) 0.5209(5)
H24_6 H 0.5888 0.3231 0.5044
H25_6 H 0.6699 0.3627 0.4992
H26_6 H 0.4923 0.3575 0.5272
N1_7 N 0.1914(6) 0.65841(14) 0.0674(3)
H19_7 H 0.1753 0.6386 0.0872
H20_7 H 0.3046 0.6606 0.0615
C49_7 C 0.1305(7) 0.6905(2) 0.0929(3)
H21_7 H 0.0071 0.6890 0.0967
H22_7 H 0.1835 0.6921 0.1259
H23_7 H 0.1596 0.7121 0.0733
C50_7 C 0.1036(16) 0.6534(4) 0.0209(5)
H24_7 H 0.0888 0.6769 0.0044
H25_7 H 0.1699 0.6373 0.9992
H26_7 H 0.9923 0.6425 0.0272
H26_8 H 0.0077 0.3575 0.0272
N1_8 N 0.8086(6) 0.34159(14) 0.0674(3)
H19_8 H 0.8247 0.3614 0.0872
H20_8 H 0.6954 0.3394 0.0615
C49_8 C 0.8695(7) 0.3095(2) 0.0929(3)
H21_8 H 0.9929 0.3110 0.0967
H22_8 H 0.8165 0.3079 0.1259
H23_8 H 0.8404 0.2879 0.0733
C50_8 C 0.8964(16) 0.3466(4) 0.0209(5)
H24_8 H 0.9112 0.3231 0.0044
H25_8 H 0.8301 0.3627 0.9992
loop_
_geom_bond_atom_site_label_1
_geom_bond_atom_site_label_2
_geom_bond_site_symmetry_1
_geom_bond_site_symmetry_2
F8 C24 1_555 1_555
F9 C24 1_555 1_555
H7 C20 1_555 1_555
O7 C25 1_555 1_555
O8 C25 1_555 1_555
C25 C26 1_555 1_555
C26 C27 1_555 1_555
C30 C29 1_555 1_555
H11 C30 1_555 1_555
C31 C26 1_555 1_555
H12 C31 1_555 1_555
Zn2 O7 1_555 1_555
O9 Zn2 1_555 1_555
C33 O9 1_555 1_555
O13 Zn2 1_555 1_555
C30 C31 1_555 1_555
F13 C40 1_555 1_555
F15 C40 1_555 1_555
F16 C47 1_555 1_555
F17 C47 1_555 1_555
F18 C47 1_555 1_555
O11 C48 1_555 1_555
O12 C48 1_555 1_555
C35 C34 1_555 1_555
C36 C35 1_555 1_555
H13 C36 1_555 1_555
C37 C36 1_555 1_555
C38 C37 1_555 1_555
H14 C38 1_555 1_555
C39 C34 1_555 1_555
H15 C39 1_555 1_555
C40 C35 1_555 1_555
C41 C37 1_555 1_555
C42 C41 1_555 1_555
H16 C42 1_555 1_555
C43 C42 1_555 1_555
C44 C43 1_555 1_555
C45 C44 1_555 1_555
H17 C45 1_555 1_555
C46 C41 1_555 1_555
H18 C46 1_555 1_555
C47 C43 1_555 1_555
C48 C44 1_555 1_555
Zn4 O12 1_555 1_555
Zn5 O11 1_555 1_555
C38 C39 1_555 1_555
C45 C46 1_555 1_555
Zn1 O1 1_555 1_555
O1 C1 1_555 1_555
O5 Zn1 1_555 1_555
O6 C17 1_555 1_555
C17 O5 1_555 1_555
C18 C17 1_555 1_555
C19 C18 1_555 1_555
C22 C21 1_555 1_555
H8 C22 1_555 1_555
C23 C18 1_555 1_555
H9 C23 1_555 1_555
O14 Zn1 1_555 1_555
C22 C23 1_555 1_555
F1 C8 1_555 1_555
F3 C8 1_555 1_555
F4 C15 1_555 1_555
F5 C15 1_555 1_555
F6 C15 1_555 1_555
O3 C16 1_555 1_555
O4 C16 1_555 1_555
C2 C3 1_555 1_555
C3 C4 1_555 1_555
C4 H1 1_555 1_555
C5 C4 1_555 1_555
C6 C5 1_555 1_555
H2 C6 1_555 1_555
C7 C2 1_555 1_555
H3 C7 1_555 1_555
C8 C3 1_555 1_555
C9 C5 1_555 1_555
C10 C9 1_555 1_555
H4 C10 1_555 1_555
C11 C10 1_555 1_555
C12 C11 1_555 1_555
C13 C12 1_555 1_555
H5 C13 1_555 1_555
C14 C9 1_555 1_555
H6 C14 1_555 1_555
C15 C11 1_555 1_555
C16 C12 1_555 1_555
Zn3 O4 1_555 1_555
Zn6 O3 1_555 1_555
C6 C7 1_555 1_555
C13 C14 1_555 1_555
F11 C32 1_555 1_555
F12 C32 1_555 1_555
C28 H10 1_555 1_555
O3_2 C16_2 1_555 1_555
O15 C16_2 1_555 1_555
C13_2 C12_2 1_555 1_555
H5_2 C13_2 1_555 1_555
C16_2 C12_2 1_555 1_555
Zn6_2 O3_2 1_555 1_555
Zn3 O1_2 1_555 1_555
F1_2 C8_2 1_555 1_555
F2 C8_2 1_555 1_555
F3_2 C8_2 1_555 1_555
F5_2 C15_2 1_555 1_555
F6_2 C15_2 1_555 1_555
F7_2 C24_2 1_555 1_555
F8_2 C24_2 1_555 1_555
F9_2 C24_2 1_555 1_555
O1_2 C1_2 1_555 1_555
O2_2 C1_2 1_555 1_555
O5_2 Zn3 1_555 1_555
O6_2 C17_2 1_555 1_555
C1_2 C2_2 1_555 1_555
C2_2 C3_2 1_555 1_555
C3_2 C4_2 1_555 1_555
C4_2 H1_2 1_555 1_555
C5_2 C4_2 1_555 1_555
C6_2 C5_2 1_555 1_555
H2_2 C6_2 1_555 1_555
C7_2 C2_2 1_555 1_555
H3_2 C7_2 1_555 1_555
C8_2 C3_2 1_555 1_555
C9_2 C5_2 1_555 1_555
C10_2 C9_2 1_555 1_555
H4_2 C10_2 1_555 1_555
C11_2 C10_2 1_555 1_555
C14_2 C9_2 1_555 1_555
H6_2 C14_2 1_555 1_555
C15_2 C11_2 1_555 1_555
C17_2 O5_2 1_555 1_555
C18_2 C17_2 1_555 1_555
C19_2 C18_2 1_555 1_555
C20_2 C19_2 1_555 1_555
H7_2 C20_2 1_555 1_555
C21_2 C20_2 1_555 1_555
C22_2 C21_2 1_555 1_555
H8_2 C22_2 1_555 1_555
C23_2 C18_2 1_555 1_555
H9_2 C23_2 1_555 1_555
C24_2 C19_2 1_555 1_555
O14_2 Zn3 1_555 1_555
C6_2 C7_2 1_555 1_555
C22_2 C23_2 1_555 1_555
F10_2 C32_2 1_555 1_555
F11_2 C32_2 1_555 1_555
F12_2 C32_2 1_555 1_555
O7_2 C25_2 1_555 1_555
O8_2 C25_2 1_555 1_555
C25_2 C26_2 1_555 1_555
C26_2 C27_2 1_555 1_555
C27_2 C28_2 1_555 1_555
C28_2 H10_2 1_555 1_555
C30_2 C29_2 1_555 1_555
H11_2 C30_2 1_555 1_555
C31_2 C26_2 1_555 1_555
H12_2 C31_2 1_555 1_555
C32_2 C27_2 1_555 1_555
Zn4 O7_2 1_555 1_555
F13_2 C40_2 1_555 1_555
F14 C40_2 1_555 1_555
F15_2 C40_2 1_555 1_555
F17_2 C47_2 1_555 1_555
F18_2 C47_2 1_555 1_555
O9_2 Zn4 1_555 1_555
O10_2 C33_2 1_555 1_555
C33_2 O9_2 1_555 1_555
C34_2 C33_2 1_555 1_555
C35_2 C34_2 1_555 1_555
C36_2 C35_2 1_555 1_555
H13_2 C36_2 1_555 1_555
C37_2 C36_2 1_555 1_555
C38_2 C37_2 1_555 1_555
H14_2 C38_2 1_555 1_555
C39_2 C34_2 1_555 1_555
H15_2 C39_2 1_555 1_555
C40_2 C35_2 1_555 1_555
C41_2 C37_2 1_555 1_555
C42_2 C41_2 1_555 1_555
H16_2 C42_2 1_555 1_555
C43_2 C42_2 1_555 1_555
C46_2 C41_2 1_555 1_555
H18_2 C46_2 1_555 1_555
C47_2 C43_2 1_555 1_555
O13_2 Zn4 1_555 1_555
C28_2 C29_2 1_555 1_555
C30_2 C31_2 1_555 1_555
C38_2 C39_2 1_555 1_555
O11_2 C48_2 1_555 1_555
O16 C48_2 1_555 1_555
C45_2 C44_2 1_555 1_555
H17_2 C45_2 1_555 1_555
C48_2 C44_2 1_555 1_555
Zn5_2 O11_2 1_555 1_555
F8_3 C24_3 1_555 1_555
F9_3 C24_3 1_555 1_555
H7_3 C20_3 1_555 1_555
O7_3 C25_3 1_555 1_555
O8_3 C25_3 1_555 1_555
C25_3 C26_3 1_555 1_555
C26_3 C27_3 1_555 1_555
C30_3 C29_3 1_555 1_555
H11_3 C30_3 1_555 1_555
C31_3 C26_3 1_555 1_555
H12_3 C31_3 1_555 1_555
Zn6 O7_3 1_555 1_555
F13_3 C40_3 1_555 1_555
F15_3 C40_3 1_555 1_555
F16_3 C47_3 1_555 1_555
F17_3 C47_3 1_555 1_555
F18_3 C47_3 1_555 1_555
O9_3 Zn6 1_555 1_555
O14 C48_3 1_555 1_555
O12_2 C48_3 1_555 1_555
C33_3 O9_3 1_555 1_555
C34_3 C33_3 1_555 1_555
C35_3 C34_3 1_555 1_555
C36_3 C35_3 1_555 1_555
H13_3 C36_3 1_555 1_555
C37_3 C36_3 1_555 1_555
C38_3 C37_3 1_555 1_555
H14_3 C38_3 1_555 1_555
C39_3 C34_3 1_555 1_555
H15_3 C39_3 1_555 1_555
C40_3 C35_3 1_555 1_555
C41_3 C37_3 1_555 1_555
C42_3 C41_3 1_555 1_555
H16_3 C42_3 1_555 1_555
C43_3 C42_3 1_555 1_555
C44_3 C43_3 1_555 1_555
C45_3 C44_3 1_555 1_555
H17_3 C45_3 1_555 1_555
C46_3 C41_3 1_555 1_555
H18_3 C46_3 1_555 1_555
C47_3 C43_3 1_555 1_555
C48_3 C44_3 1_555 1_555
Zn6_2 O12_2 1_555 1_555
C30_3 C31_3 1_555 1_555
C38_3 C39_3 1_555 1_555
C45_3 C46_3 1_555 1_555
Zn5 O1_3 1_555 1_555
F1_3 C8_3 1_555 1_555
F3_3 C8_3 1_555 1_555
F4_3 C15_3 1_555 1_555
F5_3 C15_3 1_555 1_555
F6_3 C15_3 1_555 1_555
O1_3 C1_3 1_555 1_555
O13 C16_3 1_555 1_555
O4_2 C16_3 1_555 1_555
O5_3 Zn5 1_555 1_555
O6_3 C17_3 1_555 1_555
C1_3 C2_3 1_555 1_555
C2_3 C3_3 1_555 1_555
C3_3 C4_3 1_555 1_555
C4_3 H1_3 1_555 1_555
C5_3 C4_3 1_555 1_555
C6_3 C5_3 1_555 1_555
H2_3 C6_3 1_555 1_555
C7_3 C2_3 1_555 1_555
H3_3 C7_3 1_555 1_555
C8_3 C3_3 1_555 1_555
C9_3 C5_3 1_555 1_555
C10_3 C9_3 1_555 1_555
H4_3 C10_3 1_555 1_555
C11_3 C10_3 1_555 1_555
C12_3 C11_3 1_555 1_555
C13_3 C12_3 1_555 1_555
H5_3 C13_3 1_555 1_555
C14_3 C9_3 1_555 1_555
H6_3 C14_3 1_555 1_555
C15_3 C11_3 1_555 1_555
C16_3 C12_3 1_555 1_555
C17_3 O5_3 1_555 1_555
C18_3 C17_3 1_555 1_555
C19_3 C18_3 1_555 1_555
C22_3 C21_3 1_555 1_555
H8_3 C22_3 1_555 1_555
C23_3 C18_3 1_555 1_555
H9_3 C23_3 1_555 1_555
F11_3 C32_3 1_555 1_555
F12_3 C32_3 1_555 1_555
C28_3 H10_3 1_555 1_555
Zn5_2 O4_2 1_555 1_555
C6_3 C7_3 1_555 1_555
C13_3 C14_3 1_555 1_555
C22_3 C23_3 1_555 1_555
O13_2 C16_4 1_555 1_555
O15_2 C16_4 1_555 1_555
C13_4 C12_4 1_555 1_555
H5_4 C13_4 1_555 1_555
C16_4 C12_4 1_555 1_555
Zn5_2 O1_4 1_555 1_555
F7_4 C24_4 1_555 1_555
F8_4 C24_4 1_555 1_555
F9_4 C24_4 1_555 1_555
O1_4 C1_4 1_555 1_555
O2_4 C1_4 1_555 1_555
O5_4 Zn5_2 1_555 1_555
O6_4 C17_4 1_555 1_555
C17_4 O5_4 1_555 1_555
C18_4 C17_4 1_555 1_555
C19_4 C18_4 1_555 1_555
C20_4 C19_4 1_555 1_555
H7_4 C20_4 1_555 1_555
C21_4 C20_4 1_555 1_555
C22_4 C21_4 1_555 1_555
H8_4 C22_4 1_555 1_555
C23_4 C18_4 1_555 1_555
H9_4 C23_4 1_555 1_555
C24_4 C19_4 1_555 1_555
F10_4 C32_4 1_555 1_555
F11_4 C32_4 1_555 1_555
F12_4 C32_4 1_555 1_555
O7_4 C25_4 1_555 1_555
O8_4 C25_4 1_555 1_555
C25_4 C26_4 1_555 1_555
C26_4 C27_4 1_555 1_555
C27_4 C28_4 1_555 1_555
C28_4 H10_4 1_555 1_555
C29_4 C21_4 1_555 1_555
C30_4 C29_4 1_555 1_555
H11_4 C30_4 1_555 1_555
C31_4 C26_4 1_555 1_555
H12_4 C31_4 1_555 1_555
C32_4 C27_4 1_555 1_555
Zn6_2 O7_4 1_555 1_555
O9_4 Zn6_2 1_555 1_555
O10_4 C33_4 1_555 1_555
C33_4 O9_4 1_555 1_555
C22_4 C23_4 1_555 1_555
C28_4 C29_4 1_555 1_555
C30_4 C31_4 1_555 1_555
F1_4 C8_4 1_555 1_555
F2_3 C8_4 1_555 1_555
F3_4 C8_4 1_555 1_555
F5_4 C15_4 1_555 1_555
F6_4 C15_4 1_555 1_555
C2_4 C3_4 1_555 1_555
C3_4 C4_4 1_555 1_555
C4_4 H1_4 1_555 1_555
C5_4 C4_4 1_555 1_555
C6_4 C5_4 1_555 1_555
H2_4 C6_4 1_555 1_555
C7_4 C2_4 1_555 1_555
H3_4 C7_4 1_555 1_555
C8_4 C3_4 1_555 1_555
C9_4 C5_4 1_555 1_555
C10_4 C9_4 1_555 1_555
H4_4 C10_4 1_555 1_555
C11_4 C10_4 1_555 1_555
C14_4 C9_4 1_555 1_555
H6_4 C14_4 1_555 1_555
C15_4 C11_4 1_555 1_555
F13_4 C40_4 1_555 1_555
F14_3 C40_4 1_555 1_555
F15_4 C40_4 1_555 1_555
F17_4 C47_4 1_555 1_555
F18_4 C47_4 1_555 1_555
C35_4 C34_4 1_555 1_555
C36_4 C35_4 1_555 1_555
H13_4 C36_4 1_555 1_555
C37_4 C36_4 1_555 1_555
C38_4 C37_4 1_555 1_555
H14_4 C38_4 1_555 1_555
C39_4 C34_4 1_555 1_555
H15_4 C39_4 1_555 1_555
C40_4 C35_4 1_555 1_555
C41_4 C37_4 1_555 1_555
C42_4 C41_4 1_555 1_555
H16_4 C42_4 1_555 1_555
C43_4 C42_4 1_555 1_555
C46_4 C41_4 1_555 1_555
H18_4 C46_4 1_555 1_555
C47_4 C43_4 1_555 1_555
C6_4 C7_4 1_555 1_555
C38_4 C39_4 1_555 1_555
O14_2 C48_4 1_555 1_555
O16_2 C48_4 1_555 1_555
C45_4 C44_4 1_555 1_555
H17_4 C45_4 1_555 1_555
C48_4 C44_4 1_555 1_555
N1 H19 1_555 1_555
H20 N1 1_555 1_555
C49 N1 1_555 1_555
H21 C49 1_555 1_555
H22 C49 1_555 1_555
H23 C49 1_555 1_555
C50 N1 1_555 1_555
H24 C50 1_555 1_555
H26 C50 1_555 1_555
N1_2 H19_2 1_555 1_555
H20_2 N1_2 1_555 1_555
C49_2 N1_2 1_555 1_555
H21_2 C49_2 1_555 1_555
H22_2 C49_2 1_555 1_555
H23_2 C49_2 1_555 1_555
C50_2 N1_2 1_555 1_555
H24_2 C50_2 1_555 1_555
H26_2 C50_2 1_555 1_555
N1_3 H19_3 1_555 1_555
H20_3 N1_3 1_555 1_555
C49_3 N1_3 1_555 1_555
H21_3 C49_3 1_555 1_555
H22_3 C49_3 1_555 1_555
H23_3 C49_3 1_555 1_555
C50_3 N1_3 1_555 1_555
H24_3 C50_3 1_555 1_555
H25_3 C50_3 1_555 1_555
N1_4 H19_4 1_555 1_555
H20_4 N1_4 1_555 1_555
C49_4 N1_4 1_555 1_555
H21_4 C49_4 1_555 1_555
H22_4 C49_4 1_555 1_555
H23_4 C49_4 1_555 1_555
C50_4 N1_4 1_555 1_555
H24_4 C50_4 1_555 1_555
H25_4 C50_4 1_555 1_555
N1_5 H19_5 1_555 1_555
H20_5 N1_5 1_555 1_555
C49_5 N1_5 1_555 1_555
H21_5 C49_5 1_555 1_555
H22_5 C49_5 1_555 1_555
H23_5 C49_5 1_555 1_555
C50_5 N1_5 1_555 1_555
H24_5 C50_5 1_555 1_555
H25_5 C50_5 1_555 1_555
H26_5 C50_5 1_555 1_555
N1_6 H19_6 1_555 1_555
H20_6 N1_6 1_555 1_555
C49_6 N1_6 1_555 1_555
H21_6 C49_6 1_555 1_555
H22_6 C49_6 1_555 1_555
H23_6 C49_6 1_555 1_555
C50_6 N1_6 1_555 1_555
H24_6 C50_6 1_555 1_555
H25_6 C50_6 1_555 1_555
H26_6 C50_6 1_555 1_555
N1_7 H19_7 1_555 1_555
H20_7 N1_7 1_555 1_555
C49_7 N1_7 1_555 1_555
H21_7 C49_7 1_555 1_555
H22_7 C49_7 1_555 1_555
H23_7 C49_7 1_555 1_555
C50_7 N1_7 1_555 1_555
H24_7 C50_7 1_555 1_555
N1_8 H19_8 1_555 1_555
H20_8 N1_8 1_555 1_555
C49_8 N1_8 1_555 1_555
H21_8 C49_8 1_555 1_555
H22_8 C49_8 1_555 1_555
H23_8 C49_8 1_555 1_555
C50_8 N1_8 1_555 1_555
H24_8 C50_8 1_555 1_555

#END
