
###############################################################################
#
# This file contains modified crystal structure data generated from the
# MOF subset of the Cambridge Structural Database (CSD) v543 
# hosted by the Cambridge Crystallographic Data Centre (CCDC).
#
# This work is licensed under the Creative Commons
# Attribution-NonCommercial-ShareAlike 4.0 International License.
# To view a copy of this license, visit
# http://creativecommons.org/licenses/by-nc-sa/4.0/
# or send a letter to
# Creative Commons, PO Box 1866, Mountain View, CA 94042, USA.
#
# CIF created using the CSD Python API on 29 September 2022
# The structure has been converted into the P1 space group
# The structure has a 3D framework
# The original CSD entry NATKOL is in the tetragonal crystal system
# The original CSD entry NATKOL is in a Sohncke space group
# The framework has been calculated to contain at least 10.0% void space
# The void calculation uses a probe of radius 1.32A, grid spacing 0.4
#
###############################################################################

data_NATKOL
_chemical_formula_moiety         '(C248 H160 Cu8 N48 O36)n'
_symmetry_cell_setting           triclinic
_symmetry_space_group_name_H-M   'P 1'
_symmetry_Int_Tables_number      1
_space_group_name_Hall           'P 1'
loop_
_symmetry_equiv_pos_site_id
_symmetry_equiv_pos_as_xyz
1 x,y,z
_cell_length_a                   16.0604(4)
_cell_length_b                   16.0604(4)
_cell_length_c                   44.1170(11)
_cell_angle_alpha                90
_cell_angle_beta                 90
_cell_angle_gamma                90
_cell_volume                     11379.4
loop_
_atom_site_label
_atom_site_type_symbol
_atom_site_fract_x
_atom_site_fract_y
_atom_site_fract_z
Cu8 Cu 0.42949(5) 0.04158(5) 0.21035(2)
Cu1 Cu 0.45842(5) 0.92949(5) 0.71035(2)
O1 O 0.3897(3) 0.9856(3) 0.68041(8)
O3 O 0.3897(4) 0.8135(3) 0.71185(12)
H1 H 0.385429 0.794544 0.694654
H2 H 0.361405 0.844796 0.723613
O12 O 0.5334(3) 0.8983(3) 0.67740(8)
O13 O 0.3944(3) 0.9800(3) 0.74306(8)
O16 O 0.5421(3) 0.8948(3) 0.74041(8)
C2 C 1.000000 0.500000 0.46021(13)
C3 C 0.9310(4) 0.4670(4) 0.43915(9)
N2 N 0.6724(4) 0.3011(5) 0.34772(13)
C7 C 0.8056(4) 0.4019(4) 0.40033(11)
C8 C 0.8444(4) 0.4835(4) 0.44460(11)
H3 H 0.828747 0.516105 0.461059
C11 C 0.7836(4) 0.4509(5) 0.42546(13)
H5 H 0.727723 0.461834 0.429352
C13 C 0.9483(4) 0.4193(4) 0.41391(10)
C15 C 0.8884(4) 0.3885(5) 0.39507(11)
H9 H 0.904352 0.357665 0.378197
C16 C 0.7469(5) 0.3158(5) 0.35708(12)
H10 H 0.795863 0.295276 0.348687
H13 H 0.987923 0.332447 0.459504
C24 C 0.7409(5) 0.3656(5) 0.38081(15)
C25 C 0.6437(5) 0.2460(6) 0.32294(15)
N5 N 0.6618(5) 0.3763(7) 0.3858(2)
N6 N 0.6182(5) 0.3396(8) 0.3646(2)
C26 C 0.6945(6) 0.1918(6) 0.31105(17)
H17 H 0.748141 0.185258 0.318636
C27 C 0.6664(5) 0.1434(5) 0.28640(16)
H18 H 0.702665 0.105955 0.277204
C28 C 0.5621(6) 0.2584(7) 0.31252(19)
H19 H 0.526862 0.297022 0.321576
C29 C 0.5363(5) 0.2102(6) 0.28796(18)
H20 H 0.483690 0.219084 0.279778
C30 C 0.5857(5) 0.1507(5) 0.27571(13)
C31 C 0.5539(6) 0.0941(5) 0.25114(13)
O4 O 0.4800(3) 0.1056(3) 0.24306(8)
O5 O 0.6052(3) 0.0421(3) 0.24041(8)
C32 C 0.9659(4) 0.5698(4) 0.48094(8)
N7 N 0.8021(4) 0.8276(4) 0.57431(11)
C34 C 0.6503(5) 0.9099(4) 0.64508(11)
C35 C 0.8997(4) 0.6933(4) 0.51919(11)
C36 C 0.8671(5) 0.7570(5) 0.53971(12)
C39 C 0.9195(4) 0.5493(4) 0.50565(10)
H22 H 0.911951 0.493367 0.510338
C40 C 0.5940(5) 0.9434(5) 0.66987(11)
N9 N 0.8939(5) 0.8389(4) 0.53915(12)
C42 C 0.8081(5) 0.7489(5) 0.56186(14)
H24 H 0.778795 0.701297 0.567312
N10 N 0.8549(5) 0.8822(4) 0.56039(13)
H25 H 0.996306 0.592511 0.409518
C44 C 0.6242(5) 0.8432(5) 0.62855(12)
H26 H 0.574268 0.816477 0.632913
C47 C 0.9476(5) 0.7137(4) 0.49454(13)
H29 H 0.958519 0.769342 0.490246
C48 C 0.8829(5) 0.6094(4) 0.52416(11)
H30 H 0.847412 0.593539 0.539771
C49 C 0.9797(5) 0.6520(4) 0.47603(12)
C50 C 0.7500(5) 0.8555(5) 0.59887(12)
C51 C 0.7251(5) 0.9512(5) 0.63856(13)
H32 H 0.740786 0.998047 0.649528
C52 C 0.7739(5) 0.9218(5) 0.61613(14)
H33 H 0.824915 0.947153 0.612351
C53 C 0.6763(5) 0.8158(5) 0.60422(14)
H34 H 0.660114 0.771166 0.592133
O12_2 O 0.6017(3) 0.0334(3) 0.17740(8)
H20_2 H 0.280916 0.983690 0.779778
H4 H 0.993367 0.588049 0.010338
O6 O 0.4856(3) 0.1103(3) 0.18041(8)
N7_2 N 0.6724(4) 0.3021(4) 0.07431(11)
C34_2 C 0.5901(4) 0.1503(5) 0.14508(11)
C35_2 C 0.8067(4) 0.3997(4) 0.01919(11)
C36_2 C 0.7430(5) 0.3671(5) 0.03971(12)
C39_2 C 0.9507(4) 0.4195(4) 0.00565(10)
C40_2 C 0.5566(5) 0.0940(5) 0.16987(11)
N9_2 N 0.6611(4) 0.3939(5) 0.03915(12)
C42_2 C 0.7511(5) 0.3081(5) 0.06186(14)
H24_2 H 0.798703 0.278795 0.067312
N10_2 N 0.6178(4) 0.3549(5) 0.06039(13)
C44_2 C 0.6568(5) 0.1242(5) 0.12855(12)
H26_2 H 0.683523 0.074268 0.132913
C48_2 C 0.8906(4) 0.3829(5) 0.02416(11)
H30_2 H 0.906461 0.347412 0.039771
C50_2 C 0.6445(5) 0.2500(5) 0.09887(12)
C51_2 C 0.5488(5) 0.2251(5) 0.13856(13)
H32_2 H 0.501953 0.240786 0.149528
C52_2 C 0.5782(5) 0.2739(5) 0.11613(14)
H33_2 H 0.552847 0.324915 0.112351
C53_2 C 0.6842(5) 0.1763(5) 0.10422(14)
H34_2 H 0.728834 0.160114 0.092133
O10 O 0.3135(3) 0.1103(4) 0.21185(12)
H39 H 0.294544 0.114571 0.194654
H40 H 0.344796 0.138595 0.223613
C2_2 C 1.000000 0.500000 0.96021(13)
H3_2 H 0.983895 0.328747 0.961059
C32_2 C 0.9302(4) 0.4659(4) 0.98094(8)
C33 C 0.9670(4) 0.5690(4) 0.93915(9)
N8 N 0.8011(5) 0.8276(4) 0.84772(13)
C37 C 0.9019(4) 0.6944(4) 0.90033(11)
C38 C 0.9835(4) 0.6556(4) 0.94460(11)
C41 C 0.9509(5) 0.7164(4) 0.92546(13)
H23 H 0.961834 0.772277 0.929352
C43 C 0.9193(4) 0.5517(4) 0.91391(10)
H25_2 H 0.907489 0.496306 0.909518
C45 C 0.8885(5) 0.6116(4) 0.89507(11)
H27 H 0.857665 0.595648 0.878197
C46 C 0.8158(5) 0.7531(5) 0.85708(12)
H28 H 0.795276 0.704137 0.848687
C47_2 C 0.7863(4) 0.4476(5) 0.99454(13)
H29_2 H 0.730658 0.458519 0.990246
C49_2 C 0.8480(4) 0.4797(5) 0.97603(12)
H31 H 0.832447 0.512077 0.959504
C54 C 0.8656(5) 0.7591(5) 0.88081(15)
C55 C 0.7460(6) 0.8563(5) 0.82294(15)
N11 N 0.8763(7) 0.8382(5) 0.8858(2)
N12 N 0.8396(8) 0.8818(5) 0.8646(2)
C56 C 0.6918(6) 0.8055(6) 0.81105(17)
H35 H 0.685258 0.751859 0.818636
C57 C 0.6434(5) 0.8336(5) 0.78640(16)
H36 H 0.605955 0.797335 0.777204
C58 C 0.7584(7) 0.9379(6) 0.81252(19)
H37 H 0.797022 0.973138 0.821576
C59 C 0.7102(6) 0.9637(5) 0.78796(18)
C60 C 0.6507(5) 0.9143(5) 0.77571(13)
C61 C 0.5941(5) 0.9461(6) 0.75114(13)
O2 O 0.4666(3) 0.1017(3) 0.67740(8)
C1 C 0.0341(4) 0.4302(4) 0.48094(8)
C2_3 C 0.000000 0.500000 0.46021(13)
N1 N 0.1979(4) 0.1724(4) 0.57431(11)
C4 C 0.3497(5) 0.0901(4) 0.64508(11)
C5 C 0.1003(4) 0.3067(4) 0.51919(11)
C6 C 0.1329(5) 0.2430(5) 0.53971(12)
C9 C 0.0805(4) 0.4507(4) 0.50565(10)
H4_2 H 0.088049 0.506633 0.510338
C10 C 0.4060(5) 0.0566(5) 0.66987(11)
N3 N 0.1061(5) 0.1611(4) 0.53915(12)
C12 C 0.1919(5) 0.2511(5) 0.56186(14)
H6 H 0.221205 0.298703 0.567312
N4 N 0.1451(5) 0.1178(4) 0.56039(13)
H7 H 0.003694 0.407489 0.409518
C14 C 0.3758(5) 0.1568(5) 0.62855(12)
H8 H 0.425732 0.183523 0.632913
C17 C 0.0524(5) 0.2863(4) 0.49454(13)
H11 H 0.041481 0.230658 0.490246
C18 C 0.1171(5) 0.3906(4) 0.52416(11)
H12 H 0.152588 0.406461 0.539771
C19 C 0.0203(5) 0.3480(4) 0.47603(12)
C20 C 0.2500(5) 0.1445(5) 0.59887(12)
C21 C 0.2749(5) 0.0488(5) 0.63856(13)
H14 H 0.259214 0.001953 0.649528
C22 C 0.2261(5) 0.0782(5) 0.61613(14)
H15 H 0.175085 0.052847 0.612351
C23 C 0.3237(5) 0.1842(5) 0.60422(14)
H16 H 0.339886 0.228834 0.592133
C33_2 C 0.0690(4) 0.5330(4) 0.43915(9)
N8_2 N 0.3276(4) 0.6989(5) 0.34772(13)
C37_2 C 0.1944(4) 0.5981(4) 0.40033(11)
C38_2 C 0.1556(4) 0.5165(4) 0.44460(11)
H21 H 0.171253 0.483895 0.461059
C41_2 C 0.2164(4) 0.5491(5) 0.42546(13)
H23_2 H 0.272277 0.538166 0.429352
C43_2 C 0.0517(4) 0.5807(4) 0.41391(10)
C45_2 C 0.1116(4) 0.6115(5) 0.39507(11)
H27_2 H 0.095648 0.642335 0.378197
C46_2 C 0.2531(5) 0.6842(5) 0.35708(12)
H28_2 H 0.204137 0.704724 0.348687
H31_2 H 0.012077 0.667553 0.459504
C54_2 C 0.2591(5) 0.6344(5) 0.38081(15)
C55_2 C 0.3563(5) 0.7540(6) 0.32294(15)
N11_2 N 0.3382(5) 0.6237(7) 0.3858(2)
N12_2 N 0.3818(5) 0.6604(8) 0.3646(2)
C56_2 C 0.3055(6) 0.8082(6) 0.31105(17)
H35_2 H 0.251859 0.814742 0.318636
C57_2 C 0.3336(5) 0.8566(5) 0.28640(16)
H36_2 H 0.297335 0.894045 0.277204
C58_2 C 0.4379(6) 0.7416(7) 0.31252(19)
H37_2 H 0.473138 0.702978 0.321576
C59_2 C 0.4637(5) 0.7898(6) 0.28796(18)
H38 H 0.516310 0.780916 0.279778
C60_2 C 0.4143(5) 0.8493(5) 0.27571(13)
C61_2 C 0.4461(6) 0.9059(5) 0.25114(13)
O8 O 0.5200(3) 0.8944(3) 0.24306(8)
O9 O 0.3948(3) 0.9579(3) 0.24041(8)
Cu5 Cu 0.57051(5) 0.95842(5) 0.21035(2)
Cu6 Cu 0.54158(5) 0.07051(5) 0.71035(2)
O6_2 O 0.6103(3) 0.0144(3) 0.68041(8)
O10_2 O 0.6103(4) 0.1865(3) 0.71185(12)
H39_2 H 0.614571 0.205456 0.694654
H40_2 H 0.638595 0.155204 0.723613
O14 O 0.6056(3) 0.0200(3) 0.74306(8)
O15 O 0.4579(3) 0.1052(3) 0.74041(8)
O1_2 O 0.5144(3) 0.8897(3) 0.18041(8)
O2_2 O 0.3983(3) 0.9666(3) 0.17740(8)
N1_2 N 0.3276(4) 0.6979(4) 0.07431(11)
O3_2 O 0.6865(3) 0.8897(4) 0.21185(12)
H1_2 H 0.705456 0.885429 0.194654
H2_2 H 0.655204 0.861405 0.223613
C4_2 C 0.4099(4) 0.8497(5) 0.14508(11)
C5_2 C 0.1933(4) 0.6003(4) 0.01919(11)
C6_2 C 0.2570(5) 0.6329(5) 0.03971(12)
C9_2 C 0.0493(4) 0.5805(4) 0.00565(10)
C10_2 C 0.4434(5) 0.9060(5) 0.16987(11)
N3_2 N 0.3389(4) 0.6061(5) 0.03915(12)
C12_2 C 0.2489(5) 0.6919(5) 0.06186(14)
H6_2 H 0.201297 0.721205 0.067312
N4_2 N 0.3822(4) 0.6451(5) 0.06039(13)
C14_2 C 0.3432(5) 0.8758(5) 0.12855(12)
H8_2 H 0.316477 0.925732 0.132913
C18_2 C 0.1094(4) 0.6171(5) 0.02416(11)
H12_2 H 0.093539 0.652588 0.039771
C20_2 C 0.3555(5) 0.7500(5) 0.09887(12)
C21_2 C 0.4512(5) 0.7749(5) 0.13856(13)
H14_2 H 0.498047 0.759214 0.149528
C22_2 C 0.4218(5) 0.7261(5) 0.11613(14)
H15_2 H 0.447153 0.675085 0.112351
C23_2 C 0.3158(5) 0.8237(5) 0.10422(14)
H16_2 H 0.271166 0.839886 0.092133
H22_2 H 0.006633 0.411951 0.010338
C1_2 C 0.0698(4) 0.5341(4) 0.98094(8)
C2_4 C -0.000000 0.500000 0.96021(13)
C3_2 C 0.0330(4) 0.4310(4) 0.93915(9)
N2_2 N 0.1989(5) 0.1724(4) 0.84772(13)
C7_2 C 0.0981(4) 0.3056(4) 0.90033(11)
C8_2 C 0.0165(4) 0.3444(4) 0.94460(11)
C11_2 C 0.0491(5) 0.2836(4) 0.92546(13)
H5_2 H 0.038166 0.227723 0.929352
C13_2 C 0.0807(4) 0.4483(4) 0.91391(10)
H7_2 H 0.092511 0.503694 0.909518
C15_2 C 0.1115(5) 0.3884(4) 0.89507(11)
H9_2 H 0.142335 0.404352 0.878197
C16_2 C 0.1842(5) 0.2469(5) 0.85708(12)
H10_2 H 0.204724 0.295863 0.848687
C17_2 C 0.2137(4) 0.5524(5) 0.99454(13)
H11_2 H 0.269342 0.541481 0.990246
C19_2 C 0.1520(4) 0.5203(5) 0.97603(12)
H13_2 H 0.167553 0.487923 0.959504
C24_2 C 0.1344(5) 0.2409(5) 0.88081(15)
C25_2 C 0.2540(6) 0.1437(5) 0.82294(15)
N5_2 N 0.1237(7) 0.1618(5) 0.8858(2)
N6_2 N 0.1604(8) 0.1182(5) 0.8646(2)
C26_2 C 0.3082(6) 0.1945(6) 0.81105(17)
H17_2 H 0.314742 0.248141 0.818636
C27_2 C 0.3566(5) 0.1664(5) 0.78640(16)
H18_2 H 0.394045 0.202665 0.777204
C28_2 C 0.2416(7) 0.0621(6) 0.81252(19)
H19_2 H 0.202978 0.026862 0.821576
C29_2 C 0.2898(6) 0.0363(5) 0.78796(18)
C30_2 C 0.3493(5) 0.0857(5) 0.77571(13)
C31_2 C 0.4059(5) 0.0539(6) 0.75114(13)
H21_2 H 0.016105 0.671253 0.961059
H38_2 H 0.719084 0.016310 0.779778
Cu6_2 Cu 0.04158(5) 0.42949(5) 0.78965(2)
O12_3 O 0.0334(3) 0.6017(3) 0.82260(8)
O16_2 O 0.0421(3) 0.6052(3) 0.75959(8)
C2_5 C 0.500000 1.000000 0.03979(13)
H3_3 H 0.328747 0.983895 0.038941
C32_3 C 0.4659(4) 0.9302(4) 0.01906(8)
C33_3 C 0.5690(4) 0.9670(4) 0.06085(9)
N8_3 N 0.8276(4) 0.8011(5) 0.15228(13)
C37_3 C 0.6944(4) 0.9019(4) 0.09967(11)
C38_3 C 0.6556(4) 0.9835(4) 0.05540(11)
C41_3 C 0.7164(4) 0.9509(5) 0.07454(13)
H23_3 H 0.772277 0.961834 0.070648
C43_3 C 0.5517(4) 0.9193(4) 0.08609(10)
H25_3 H 0.496306 0.907489 0.090482
C45_3 C 0.6116(4) 0.8885(5) 0.10493(11)
H27_3 H 0.595648 0.857665 0.121803
C46_3 C 0.7531(5) 0.8158(5) 0.14292(12)
H28_3 H 0.704137 0.795276 0.151313
C47_3 C 0.4476(5) 0.7863(4) 0.00546(13)
H29_3 H 0.458519 0.730658 0.009754
C49_3 C 0.4797(5) 0.8480(4) 0.02397(12)
H31_3 H 0.512077 0.832447 0.040496
C54_3 C 0.7591(5) 0.8656(5) 0.11919(15)
C55_3 C 0.8563(5) 0.7460(6) 0.17706(15)
N11_3 N 0.8382(5) 0.8763(7) 0.1142(2)
N12_3 N 0.8818(5) 0.8396(8) 0.1354(2)
C56_3 C 0.8055(6) 0.6918(6) 0.18895(17)
H35_3 H 0.751859 0.685258 0.181364
C57_3 C 0.8336(5) 0.6434(5) 0.21360(16)
H36_3 H 0.797335 0.605955 0.222796
C58_3 C 0.9379(6) 0.7584(7) 0.18748(19)
H37_3 H 0.973138 0.797022 0.178424
C59_3 C 0.9637(5) 0.7102(6) 0.21204(18)
C60_3 C 0.9143(5) 0.6507(5) 0.22429(13)
C61_3 C 0.9461(6) 0.5941(5) 0.24886(13)
O9_2 O 0.8948(3) 0.5421(3) 0.25959(8)
Cu8_2 Cu 0.92949(5) 0.45842(5) 0.28965(2)
H4_3 H 0.588049 0.993367 0.989662
O6_3 O 0.1103(3) 0.4856(3) 0.81959(8)
N7_3 N 0.3021(4) 0.6724(4) 0.92569(11)
C34_3 C 0.1503(5) 0.5901(4) 0.85492(11)
C35_3 C 0.3997(4) 0.8067(4) 0.98081(11)
C36_3 C 0.3671(5) 0.7430(5) 0.96029(12)
C39_3 C 0.4195(4) 0.9507(4) 0.99435(10)
C40_3 C 0.0940(5) 0.5566(5) 0.83013(11)
N9_3 N 0.3939(5) 0.6611(4) 0.96085(12)
C42_3 C 0.3081(5) 0.7511(5) 0.93814(14)
H24_3 H 0.278795 0.798703 0.932688
N10_3 N 0.3549(5) 0.6178(4) 0.93961(13)
C44_3 C 0.1242(5) 0.6568(5) 0.87145(12)
H26_3 H 0.074268 0.683523 0.867087
C48_3 C 0.3829(5) 0.8906(4) 0.97584(11)
H30_3 H 0.347412 0.906461 0.960229
C50_3 C 0.2500(5) 0.6445(5) 0.90113(12)
C51_3 C 0.2251(5) 0.5488(5) 0.86144(13)
H32_3 H 0.240786 0.501953 0.850472
C52_3 C 0.2739(5) 0.5782(5) 0.88387(14)
H33_3 H 0.324915 0.552847 0.887649
C53_3 C 0.1763(5) 0.6842(5) 0.89578(14)
H34_3 H 0.160114 0.728834 0.907867
O10_3 O 0.1103(4) 0.3135(3) 0.78815(12)
H39_3 H 0.114571 0.294544 0.805346
H40_3 H 0.138595 0.344796 0.776387
O14_2 O 0.1056(3) 0.4800(3) 0.75694(8)
H20_3 H 0.983690 0.280916 0.220222
O4_2 O 0.9800(3) 0.3944(3) 0.25694(8)
O2_3 O 0.8983(3) 0.5334(3) 0.32260(8)
C1_3 C 0.5698(4) 0.9659(4) 0.51906(8)
C2_6 C 0.500000 1.000000 0.53979(13)
N1_3 N 0.8276(4) 0.8021(4) 0.42569(11)
C4_3 C 0.9099(4) 0.6503(5) 0.35492(11)
C5_3 C 0.6933(4) 0.8997(4) 0.48081(11)
C6_3 C 0.7570(5) 0.8671(5) 0.46029(12)
C9_3 C 0.5493(4) 0.9195(4) 0.49435(10)
H4_4 H 0.493367 0.911951 0.489662
C10_3 C 0.9434(5) 0.5940(5) 0.33013(11)
N3_3 N 0.8389(4) 0.8939(5) 0.46085(12)
C12_3 C 0.7489(5) 0.8081(5) 0.43814(14)
H6_3 H 0.701297 0.778795 0.432688
N4_3 N 0.8822(4) 0.8549(5) 0.43961(13)
H7_3 H 0.592511 0.996306 0.590482
C14_3 C 0.8432(5) 0.6242(5) 0.37145(12)
H8_3 H 0.816477 0.574268 0.367087
C17_3 C 0.7137(4) 0.9476(5) 0.50546(13)
H11_3 H 0.769342 0.958519 0.509754
C18_3 C 0.6094(4) 0.8829(5) 0.47584(11)
H12_3 H 0.593539 0.847412 0.460229
C19_3 C 0.6520(4) 0.9797(5) 0.52397(12)
C20_3 C 0.8555(5) 0.7500(5) 0.40113(12)
C21_3 C 0.9512(5) 0.7251(5) 0.36144(13)
H14_3 H 0.998047 0.740786 0.350472
C22_3 C 0.9218(5) 0.7739(5) 0.38387(14)
H15_3 H 0.947153 0.824915 0.387649
C23_3 C 0.8158(5) 0.6763(5) 0.39578(14)
H16_3 H 0.771166 0.660114 0.407867
C33_4 C 0.4670(4) 0.9310(4) 0.56085(9)
N8_4 N 0.3011(5) 0.6724(4) 0.65228(13)
C37_4 C 0.4019(4) 0.8056(4) 0.59967(11)
C38_4 C 0.4835(4) 0.8444(4) 0.55540(11)
H21_3 H 0.516105 0.828747 0.538941
C41_4 C 0.4509(5) 0.7836(4) 0.57454(13)
H23_4 H 0.461834 0.727723 0.570648
C43_4 C 0.4193(4) 0.9483(4) 0.58609(10)
C45_4 C 0.3885(5) 0.8884(4) 0.60493(11)
H27_4 H 0.357665 0.904352 0.621803
C46_4 C 0.3158(5) 0.7469(5) 0.64292(12)
H28_4 H 0.295276 0.795863 0.651313
H31_4 H 0.332447 0.987923 0.540496
C54_4 C 0.3656(5) 0.7409(5) 0.61919(15)
C55_4 C 0.2460(6) 0.6437(5) 0.67706(15)
N11_4 N 0.3763(7) 0.6618(5) 0.6142(2)
N12_4 N 0.3396(8) 0.6182(5) 0.6354(2)
C56_4 C 0.1918(6) 0.6945(6) 0.68895(17)
H35_4 H 0.185258 0.748141 0.681364
C57_4 C 0.1434(5) 0.6664(5) 0.71360(16)
H36_4 H 0.105955 0.702665 0.722796
C58_4 C 0.2584(7) 0.5621(6) 0.68748(19)
H37_4 H 0.297022 0.526862 0.678424
C59_4 C 0.2102(6) 0.5363(5) 0.71204(18)
H38_3 H 0.219084 0.483690 0.720222
C60_4 C 0.1507(5) 0.5857(5) 0.72429(13)
C61_4 C 0.0941(5) 0.5539(6) 0.74886(13)
O6_4 O 0.9856(3) 0.3897(3) 0.31959(8)
O10_4 O 0.8135(3) 0.3897(4) 0.28815(12)
H39_4 H 0.794544 0.385429 0.305346
H40_4 H 0.844796 0.361405 0.276387
H38_4 H 0.016310 0.719084 0.220222
O8_2 O 0.0200(3) 0.6056(3) 0.25694(8)
Cu5_2 Cu 0.07051(5) 0.54158(5) 0.28965(2)
C1_4 C 0.5341(4) 0.0698(4) 0.01906(8)
C2_7 C 0.500000 -0.000000 0.03979(13)
C3_3 C 0.4310(4) 0.0330(4) 0.06085(9)
N2_3 N 0.1724(4) 0.1989(5) 0.15228(13)
C7_3 C 0.3056(4) 0.0981(4) 0.09967(11)
C8_3 C 0.3444(4) 0.0165(4) 0.05540(11)
C11_3 C 0.2836(4) 0.0491(5) 0.07454(13)
H5_3 H 0.227723 0.038166 0.070648
C13_3 C 0.4483(4) 0.0807(4) 0.08609(10)
H7_4 H 0.503694 0.092511 0.090482
C15_3 C 0.3884(4) 0.1115(5) 0.10493(11)
H9_3 H 0.404352 0.142335 0.121803
C16_3 C 0.2469(5) 0.1842(5) 0.14292(12)
H10_3 H 0.295863 0.204724 0.151313
C17_4 C 0.5524(5) 0.2137(4) 0.00546(13)
H11_4 H 0.541481 0.269342 0.009754
C19_4 C 0.5203(5) 0.1520(4) 0.02397(12)
H13_3 H 0.487923 0.167553 0.040496
C24_3 C 0.2409(5) 0.1344(5) 0.11919(15)
C25_3 C 0.1437(5) 0.2540(6) 0.17706(15)
N5_3 N 0.1618(5) 0.1237(7) 0.1142(2)
N6_3 N 0.1182(5) 0.1604(8) 0.1354(2)
C26_3 C 0.1945(6) 0.3082(6) 0.18895(17)
H17_3 H 0.248141 0.314742 0.181364
C27_3 C 0.1664(5) 0.3566(5) 0.21360(16)
H18_3 H 0.202665 0.394045 0.222796
C28_3 C 0.0621(6) 0.2416(7) 0.18748(19)
H19_3 H 0.026862 0.202978 0.178424
C29_3 C 0.0363(5) 0.2898(6) 0.21204(18)
C30_3 C 0.0857(5) 0.3493(5) 0.22429(13)
C31_3 C 0.0539(6) 0.4059(5) 0.24886(13)
O5_2 O 0.1052(3) 0.4579(3) 0.25959(8)
H21_4 H 0.671253 0.016105 0.038941
Cu1_2 Cu 0.95842(5) 0.57051(5) 0.78965(2)
O1_3 O 0.8897(3) 0.5144(3) 0.81959(8)
O2_4 O 0.9666(3) 0.3983(3) 0.82260(8)
N1_4 N 0.6979(4) 0.3276(4) 0.92569(11)
O3_3 O 0.8897(4) 0.6865(3) 0.78815(12)
H1_3 H 0.885429 0.705456 0.805346
H2_3 H 0.861405 0.655204 0.776387
C4_4 C 0.8497(5) 0.4099(4) 0.85492(11)
C5_4 C 0.6003(4) 0.1933(4) 0.98081(11)
C6_4 C 0.6329(5) 0.2570(5) 0.96029(12)
C9_4 C 0.5805(4) 0.0493(4) 0.99435(10)
C10_4 C 0.9060(5) 0.4434(5) 0.83013(11)
N3_4 N 0.6061(5) 0.3389(4) 0.96085(12)
C12_4 C 0.6919(5) 0.2489(5) 0.93814(14)
H6_4 H 0.721205 0.201297 0.932688
N4_4 N 0.6451(5) 0.3822(4) 0.93961(13)
C14_4 C 0.8758(5) 0.3432(5) 0.87145(12)
H8_4 H 0.925732 0.316477 0.867087
C18_4 C 0.6171(5) 0.1094(4) 0.97584(11)
H12_4 H 0.652588 0.093539 0.960229
C20_4 C 0.7500(5) 0.3555(5) 0.90113(12)
C21_4 C 0.7749(5) 0.4512(5) 0.86144(13)
H14_4 H 0.759214 0.498047 0.850472
C22_4 C 0.7261(5) 0.4218(5) 0.88387(14)
H15_4 H 0.675085 0.447153 0.887649
C23_4 C 0.8237(5) 0.3158(5) 0.89578(14)
H16_4 H 0.839886 0.271166 0.907867
H22_3 H 0.411951 0.006633 0.989662
O13_2 O 0.8944(3) 0.5200(3) 0.75694(8)
O15_2 O 0.9579(3) 0.3948(3) 0.75959(8)
O1_4 O 0.0144(3) 0.6103(3) 0.31959(8)
O3_4 O 0.1865(3) 0.6103(4) 0.28815(12)
H1_4 H 0.205456 0.614571 0.305346
H2_4 H 0.155204 0.638595 0.276387
O12_4 O 0.1017(3) 0.4666(3) 0.32260(8)
C2_8 C 0.500000 -0.000000 0.53979(13)
C3_4 C 0.5330(4) 0.0690(4) 0.56085(9)
N2_4 N 0.6989(5) 0.3276(4) 0.65228(13)
C7_4 C 0.5981(4) 0.1944(4) 0.59967(11)
C8_4 C 0.5165(4) 0.1556(4) 0.55540(11)
H3_4 H 0.483895 0.171253 0.538941
C11_4 C 0.5491(5) 0.2164(4) 0.57454(13)
H5_4 H 0.538166 0.272277 0.570648
C13_4 C 0.5807(4) 0.0517(4) 0.58609(10)
C15_4 C 0.6115(5) 0.1116(4) 0.60493(11)
H9_4 H 0.642335 0.095648 0.621803
C16_4 C 0.6842(5) 0.2531(5) 0.64292(12)
H10_4 H 0.704724 0.204137 0.651313
H13_4 H 0.667553 0.012077 0.540496
C24_4 C 0.6344(5) 0.2591(5) 0.61919(15)
C25_4 C 0.7540(6) 0.3563(5) 0.67706(15)
N5_4 N 0.6237(7) 0.3382(5) 0.6142(2)
N6_4 N 0.6604(8) 0.3818(5) 0.6354(2)
C26_4 C 0.8082(6) 0.3055(6) 0.68895(17)
H17_4 H 0.814742 0.251859 0.681364
C27_4 C 0.8566(5) 0.3336(5) 0.71360(16)
H18_4 H 0.894045 0.297335 0.722796
C28_4 C 0.7416(7) 0.4379(6) 0.68748(19)
H19_4 H 0.702978 0.473138 0.678424
C29_4 C 0.7898(6) 0.4637(5) 0.71204(18)
H20_4 H 0.780916 0.516310 0.720222
C30_4 C 0.8493(5) 0.4143(5) 0.72429(13)
C31_4 C 0.9059(5) 0.4461(6) 0.74886(13)
C32_4 C 0.4302(4) 0.0341(4) 0.51906(8)
N7_4 N 0.1724(4) 0.1979(4) 0.42569(11)
C34_4 C 0.0901(4) 0.3497(5) 0.35492(11)
C35_4 C 0.3067(4) 0.1003(4) 0.48081(11)
C36_4 C 0.2430(5) 0.1329(5) 0.46029(12)
C39_4 C 0.4507(4) 0.0805(4) 0.49435(10)
H22_4 H 0.506633 0.088049 0.489662
C40_4 C 0.0566(5) 0.4060(5) 0.33013(11)
N9_4 N 0.1611(4) 0.1061(5) 0.46085(12)
C42_4 C 0.2511(5) 0.1919(5) 0.43814(14)
H24_4 H 0.298703 0.221205 0.432688
N10_4 N 0.1178(4) 0.1451(5) 0.43961(13)
H25_4 H 0.407489 0.003694 0.590482
C44_4 C 0.1568(5) 0.3758(5) 0.37145(12)
H26_4 H 0.183523 0.425732 0.367087
C47_4 C 0.2863(4) 0.0524(5) 0.50546(13)
H29_4 H 0.230658 0.041481 0.509754
C48_4 C 0.3906(4) 0.1171(5) 0.47584(11)
H30_4 H 0.406461 0.152588 0.460229
C49_4 C 0.3480(4) 0.0203(5) 0.52397(12)
C50_4 C 0.1445(5) 0.2500(5) 0.40113(12)
C51_4 C 0.0488(5) 0.2749(5) 0.36144(13)
H32_4 H 0.001953 0.259214 0.350472
C52_4 C 0.0782(5) 0.2261(5) 0.38387(14)
H33_4 H 0.052847 0.175085 0.387649
C53_4 C 0.1842(5) 0.3237(5) 0.39578(14)
H34_4 H 0.228834 0.339886 0.407867
loop_
_geom_bond_atom_site_label_1
_geom_bond_atom_site_label_2
_geom_bond_site_symmetry_1
_geom_bond_site_symmetry_2
Cu1 O1 1_555 1_555
O3 Cu1 1_555 1_555
H1 O3 1_555 1_555
H2 O3 1_555 1_555
O12 Cu1 1_555 1_555
O13 Cu1 1_555 1_555
O16 Cu1 1_555 1_555
C2 C3 1_555 1_555
C3 C8 1_555 1_555
N2 C16 1_555 1_555
C7 C11 1_555 1_555
C8 H3 1_555 1_555
C11 C8 1_555 1_555
H5 C11 1_555 1_555
C13 C3 1_555 1_555
C15 C7 1_555 1_555
H9 C15 1_555 1_555
C16 H10 1_555 1_555
C24 C7 1_555 1_555
C25 N2 1_555 1_555
N5 C24 1_555 1_555
N6 N2 1_555 1_555
C26 C25 1_555 1_555
H17 C26 1_555 1_555
C27 C26 1_555 1_555
H18 C27 1_555 1_555
C28 C25 1_555 1_555
H19 C28 1_555 1_555
C29 C28 1_555 1_555
H20 C29 1_555 1_555
C30 C27 1_555 1_555
C31 C30 1_555 1_555
O4 C31 1_555 1_555
O5 C31 1_555 1_555
O12 C40 1_555 1_555
C32 C2 1_555 1_555
N7 C42 1_555 1_555
C34 C40 1_555 1_555
C35 C36 1_555 1_555
C36 N9 1_555 1_555
C39 C32 1_555 1_555
H22 C39 1_555 1_555
N9 N10 1_555 1_555
C42 C36 1_555 1_555
H24 C42 1_555 1_555
N10 N7 1_555 1_555
C44 C34 1_555 1_555
H26 C44 1_555 1_555
C47 C35 1_555 1_555
H29 C47 1_555 1_555
C48 C35 1_555 1_555
H30 C48 1_555 1_555
C49 C32 1_555 1_555
C50 N7 1_555 1_555
C51 C34 1_555 1_555
H32 C51 1_555 1_555
C52 C50 1_555 1_555
H33 C52 1_555 1_555
C53 C44 1_555 1_555
H34 C53 1_555 1_555
Cu8 O4 1_555 1_555
C13 C15 1_555 1_555
C16 C24 1_555 1_555
N5 N6 1_555 1_555
C29 C30 1_555 1_555
C39 C48 1_555 1_555
C47 C49 1_555 1_555
C50 C53 1_555 1_555
C51 C52 1_555 1_555
O6 C40_2 1_555 1_555
O12_2 C40_2 1_555 1_555
N7_2 C42_2 1_555 1_555
C34_2 C40_2 1_555 1_555
C35_2 C36_2 1_555 1_555
C36_2 N9_2 1_555 1_555
N9_2 N10_2 1_555 1_555
C42_2 C36_2 1_555 1_555
H24_2 C42_2 1_555 1_555
N10_2 N7_2 1_555 1_555
C44_2 C34_2 1_555 1_555
H26_2 C44_2 1_555 1_555
C48_2 C35_2 1_555 1_555
H30_2 C48_2 1_555 1_555
C50_2 N7_2 1_555 1_555
C51_2 C34_2 1_555 1_555
H32_2 C51_2 1_555 1_555
C52_2 C50_2 1_555 1_555
H33_2 C52_2 1_555 1_555
C53_2 C44_2 1_555 1_555
H34_2 C53_2 1_555 1_555
Cu8 O6 1_555 1_555
O10 Cu8 1_555 1_555
H39 O10 1_555 1_555
H40 O10 1_555 1_555
C39_2 C48_2 1_555 1_555
C50_2 C53_2 1_555 1_555
C51_2 C52_2 1_555 1_555
C32_2 C2_2 1_555 1_555
C33 C2_2 1_555 1_555
N8 C46 1_555 1_555
C37 C41 1_555 1_555
C38 C33 1_555 1_555
C41 C38 1_555 1_555
H23 C41 1_555 1_555
C43 C33 1_555 1_555
H25_2 C43 1_555 1_555
C45 C37 1_555 1_555
H27 C45 1_555 1_555
C46 H28 1_555 1_555
H29_2 C47_2 1_555 1_555
C49_2 C32_2 1_555 1_555
H31 C49_2 1_555 1_555
C54 C37 1_555 1_555
C55 N8 1_555 1_555
N11 C54 1_555 1_555
N12 N8 1_555 1_555
C56 C55 1_555 1_555
H35 C56 1_555 1_555
C57 C56 1_555 1_555
H36 C57 1_555 1_555
C58 C55 1_555 1_555
H37 C58 1_555 1_555
C59 C58 1_555 1_555
C60 C57 1_555 1_555
C61 C60 1_555 1_555
O16 C61 1_555 1_555
C43 C45 1_555 1_555
C46 C54 1_555 1_555
C47_2 C49_2 1_555 1_555
N11 N12 1_555 1_555
C59 C60 1_555 1_555
O2 C10 1_555 1_555
C1 C2_3 1_555 1_555
N1 C12 1_555 1_555
C4 C10 1_555 1_555
C5 C6 1_555 1_555
C6 N3 1_555 1_555
C9 C1 1_555 1_555
H4_2 C9 1_555 1_555
N3 N4 1_555 1_555
C12 C6 1_555 1_555
H6 C12 1_555 1_555
N4 N1 1_555 1_555
C14 C4 1_555 1_555
H8 C14 1_555 1_555
C17 C5 1_555 1_555
H11 C17 1_555 1_555
C18 C5 1_555 1_555
H12 C18 1_555 1_555
C19 C1 1_555 1_555
C20 N1 1_555 1_555
C21 C4 1_555 1_555
H14 C21 1_555 1_555
C22 C20 1_555 1_555
H15 C22 1_555 1_555
C23 C14 1_555 1_555
H16 C23 1_555 1_555
C33_2 C2_3 1_555 1_555
N8_2 C46_2 1_555 1_555
C37_2 C41_2 1_555 1_555
C38_2 C33_2 1_555 1_555
H21 C38_2 1_555 1_555
C41_2 C38_2 1_555 1_555
H23_2 C41_2 1_555 1_555
C43_2 C33_2 1_555 1_555
C45_2 C37_2 1_555 1_555
H27_2 C45_2 1_555 1_555
C46_2 H28_2 1_555 1_555
C54_2 C37_2 1_555 1_555
C55_2 N8_2 1_555 1_555
N11_2 C54_2 1_555 1_555
N12_2 N8_2 1_555 1_555
C56_2 C55_2 1_555 1_555
H35_2 C56_2 1_555 1_555
C57_2 C56_2 1_555 1_555
H36_2 C57_2 1_555 1_555
C58_2 C55_2 1_555 1_555
H37_2 C58_2 1_555 1_555
C59_2 C58_2 1_555 1_555
H38 C59_2 1_555 1_555
C60_2 C57_2 1_555 1_555
C61_2 C60_2 1_555 1_555
O8 C61_2 1_555 1_555
O9 C61_2 1_555 1_555
Cu5 O8 1_555 1_555
O2 Cu6 1_555 1_555
C9 C18 1_555 1_555
C17 C19 1_555 1_555
C20 C23 1_555 1_555
C21 C22 1_555 1_555
C43_2 C45_2 1_555 1_555
C46_2 C54_2 1_555 1_555
N11_2 N12_2 1_555 1_555
C59_2 C60_2 1_555 1_555
Cu6 O6_2 1_555 1_555
O10_2 Cu6 1_555 1_555
H39_2 O10_2 1_555 1_555
H40_2 O10_2 1_555 1_555
O14 Cu6 1_555 1_555
O15 Cu6 1_555 1_555
Cu5 O1_2 1_555 1_555
O1_2 C10_2 1_555 1_555
O2_2 C10_2 1_555 1_555
N1_2 C12_2 1_555 1_555
O3_2 Cu5 1_555 1_555
H1_2 O3_2 1_555 1_555
H2_2 O3_2 1_555 1_555
C4_2 C10_2 1_555 1_555
C5_2 C6_2 1_555 1_555
C6_2 N3_2 1_555 1_555
N3_2 N4_2 1_555 1_555
C12_2 C6_2 1_555 1_555
H6_2 C12_2 1_555 1_555
N4_2 N1_2 1_555 1_555
C14_2 C4_2 1_555 1_555
H8_2 C14_2 1_555 1_555
C18_2 C5_2 1_555 1_555
H12_2 C18_2 1_555 1_555
C20_2 N1_2 1_555 1_555
C21_2 C4_2 1_555 1_555
H14_2 C21_2 1_555 1_555
C22_2 C20_2 1_555 1_555
H15_2 C22_2 1_555 1_555
C23_2 C14_2 1_555 1_555
H16_2 C23_2 1_555 1_555
C9_2 C18_2 1_555 1_555
C20_2 C23_2 1_555 1_555
C21_2 C22_2 1_555 1_555
C1_2 C2_4 1_555 1_555
C2_4 C3_2 1_555 1_555
C3_2 C8_2 1_555 1_555
N2_2 C16_2 1_555 1_555
C7_2 C11_2 1_555 1_555
C11_2 C8_2 1_555 1_555
H5_2 C11_2 1_555 1_555
C13_2 C3_2 1_555 1_555
H7_2 C13_2 1_555 1_555
C15_2 C7_2 1_555 1_555
H9_2 C15_2 1_555 1_555
C16_2 H10_2 1_555 1_555
H11_2 C17_2 1_555 1_555
C19_2 C1_2 1_555 1_555
H13_2 C19_2 1_555 1_555
C24_2 C7_2 1_555 1_555
C25_2 N2_2 1_555 1_555
N5_2 C24_2 1_555 1_555
N6_2 N2_2 1_555 1_555
C26_2 C25_2 1_555 1_555
H17_2 C26_2 1_555 1_555
C27_2 C26_2 1_555 1_555
H18_2 C27_2 1_555 1_555
C28_2 C25_2 1_555 1_555
H19_2 C28_2 1_555 1_555
C29_2 C28_2 1_555 1_555
C30_2 C27_2 1_555 1_555
C31_2 C30_2 1_555 1_555
O15 C31_2 1_555 1_555
C13_2 C15_2 1_555 1_555
C16_2 C24_2 1_555 1_555
C17_2 C19_2 1_555 1_555
N5_2 N6_2 1_555 1_555
C29_2 C30_2 1_555 1_555
C32_3 C2_5 1_555 1_555
C33_3 C2_5 1_555 1_555
N8_3 C46_3 1_555 1_555
C37_3 C41_3 1_555 1_555
C38_3 C33_3 1_555 1_555
C41_3 C38_3 1_555 1_555
H23_3 C41_3 1_555 1_555
C43_3 C33_3 1_555 1_555
H25_3 C43_3 1_555 1_555
C45_3 C37_3 1_555 1_555
H27_3 C45_3 1_555 1_555
C46_3 H28_3 1_555 1_555
H29_3 C47_3 1_555 1_555
C49_3 C32_3 1_555 1_555
H31_3 C49_3 1_555 1_555
C54_3 C37_3 1_555 1_555
C55_3 N8_3 1_555 1_555
N11_3 C54_3 1_555 1_555
N12_3 N8_3 1_555 1_555
C56_3 C55_3 1_555 1_555
H35_3 C56_3 1_555 1_555
C57_3 C56_3 1_555 1_555
H36_3 C57_3 1_555 1_555
C58_3 C55_3 1_555 1_555
H37_3 C58_3 1_555 1_555
C59_3 C58_3 1_555 1_555
C60_3 C57_3 1_555 1_555
C61_3 C60_3 1_555 1_555
O9_2 C61_3 1_555 1_555
Cu8_2 O9_2 1_555 1_555
C43_3 C45_3 1_555 1_555
C46_3 C54_3 1_555 1_555
C47_3 C49_3 1_555 1_555
N11_3 N12_3 1_555 1_555
C59_3 C60_3 1_555 1_555
O6_3 C40_3 1_555 1_555
O12_3 C40_3 1_555 1_555
N7_3 C42_3 1_555 1_555
C34_3 C40_3 1_555 1_555
C35_3 C36_3 1_555 1_555
C36_3 N9_3 1_555 1_555
N9_3 N10_3 1_555 1_555
C42_3 C36_3 1_555 1_555
H24_3 C42_3 1_555 1_555
N10_3 N7_3 1_555 1_555
C44_3 C34_3 1_555 1_555
H26_3 C44_3 1_555 1_555
C48_3 C35_3 1_555 1_555
H30_3 C48_3 1_555 1_555
C50_3 N7_3 1_555 1_555
C51_3 C34_3 1_555 1_555
H32_3 C51_3 1_555 1_555
C52_3 C50_3 1_555 1_555
H33_3 C52_3 1_555 1_555
C53_3 C44_3 1_555 1_555
H34_3 C53_3 1_555 1_555
Cu6_2 O6_3 1_555 1_555
O10_3 Cu6_2 1_555 1_555
H39_3 O10_3 1_555 1_555
H40_3 O10_3 1_555 1_555
O14_2 Cu6_2 1_555 1_555
C39_3 C48_3 1_555 1_555
C50_3 C53_3 1_555 1_555
C51_3 C52_3 1_555 1_555
Cu8_2 O4_2 1_555 1_555
O2_3 C10_3 1_555 1_555
C1_3 C2_6 1_555 1_555
N1_3 C12_3 1_555 1_555
C4_3 C10_3 1_555 1_555
C5_3 C6_3 1_555 1_555
C6_3 N3_3 1_555 1_555
C9_3 C1_3 1_555 1_555
H4_4 C9_3 1_555 1_555
N3_3 N4_3 1_555 1_555
C12_3 C6_3 1_555 1_555
H6_3 C12_3 1_555 1_555
N4_3 N1_3 1_555 1_555
C14_3 C4_3 1_555 1_555
H8_3 C14_3 1_555 1_555
C17_3 C5_3 1_555 1_555
H11_3 C17_3 1_555 1_555
C18_3 C5_3 1_555 1_555
H12_3 C18_3 1_555 1_555
C19_3 C1_3 1_555 1_555
C20_3 N1_3 1_555 1_555
C21_3 C4_3 1_555 1_555
H14_3 C21_3 1_555 1_555
C22_3 C20_3 1_555 1_555
H15_3 C22_3 1_555 1_555
C23_3 C14_3 1_555 1_555
H16_3 C23_3 1_555 1_555
C33_4 C2_6 1_555 1_555
N8_4 C46_4 1_555 1_555
C37_4 C41_4 1_555 1_555
C38_4 C33_4 1_555 1_555
H21_3 C38_4 1_555 1_555
C41_4 C38_4 1_555 1_555
H23_4 C41_4 1_555 1_555
C43_4 C33_4 1_555 1_555
C45_4 C37_4 1_555 1_555
H27_4 C45_4 1_555 1_555
C46_4 H28_4 1_555 1_555
C54_4 C37_4 1_555 1_555
C55_4 N8_4 1_555 1_555
N11_4 C54_4 1_555 1_555
N12_4 N8_4 1_555 1_555
C56_4 C55_4 1_555 1_555
H35_4 C56_4 1_555 1_555
C57_4 C56_4 1_555 1_555
H36_4 C57_4 1_555 1_555
C58_4 C55_4 1_555 1_555
H37_4 C58_4 1_555 1_555
C59_4 C58_4 1_555 1_555
H38_3 C59_4 1_555 1_555
C60_4 C57_4 1_555 1_555
C61_4 C60_4 1_555 1_555
O14_2 C61_4 1_555 1_555
O16_2 C61_4 1_555 1_555
O2_3 Cu8_2 1_555 1_555
C9_3 C18_3 1_555 1_555
C17_3 C19_3 1_555 1_555
C20_3 C23_3 1_555 1_555
C21_3 C22_3 1_555 1_555
C43_4 C45_4 1_555 1_555
C46_4 C54_4 1_555 1_555
N11_4 N12_4 1_555 1_555
C59_4 C60_4 1_555 1_555
Cu8_2 O6_4 1_555 1_555
O10_4 Cu8_2 1_555 1_555
H39_4 O10_4 1_555 1_555
H40_4 O10_4 1_555 1_555
Cu5_2 O8_2 1_555 1_555
C1_4 C2_7 1_555 1_555
C2_7 C3_3 1_555 1_555
C3_3 C8_3 1_555 1_555
N2_3 C16_3 1_555 1_555
C7_3 C11_3 1_555 1_555
C11_3 C8_3 1_555 1_555
H5_3 C11_3 1_555 1_555
C13_3 C3_3 1_555 1_555
H7_4 C13_3 1_555 1_555
C15_3 C7_3 1_555 1_555
H9_3 C15_3 1_555 1_555
C16_3 H10_3 1_555 1_555
H11_4 C17_4 1_555 1_555
C19_4 C1_4 1_555 1_555
H13_3 C19_4 1_555 1_555
C24_3 C7_3 1_555 1_555
C25_3 N2_3 1_555 1_555
N5_3 C24_3 1_555 1_555
N6_3 N2_3 1_555 1_555
C26_3 C25_3 1_555 1_555
H17_3 C26_3 1_555 1_555
C27_3 C26_3 1_555 1_555
H18_3 C27_3 1_555 1_555
C28_3 C25_3 1_555 1_555
H19_3 C28_3 1_555 1_555
C29_3 C28_3 1_555 1_555
C30_3 C27_3 1_555 1_555
C31_3 C30_3 1_555 1_555
O5_2 C31_3 1_555 1_555
Cu5_2 O5_2 1_555 1_555
C13_3 C15_3 1_555 1_555
C16_3 C24_3 1_555 1_555
C17_4 C19_4 1_555 1_555
N5_3 N6_3 1_555 1_555
C29_3 C30_3 1_555 1_555
Cu1_2 O1_3 1_555 1_555
O1_3 C10_4 1_555 1_555
O2_4 C10_4 1_555 1_555
N1_4 C12_4 1_555 1_555
O3_3 Cu1_2 1_555 1_555
H1_3 O3_3 1_555 1_555
H2_3 O3_3 1_555 1_555
C4_4 C10_4 1_555 1_555
C5_4 C6_4 1_555 1_555
C6_4 N3_4 1_555 1_555
N3_4 N4_4 1_555 1_555
C12_4 C6_4 1_555 1_555
H6_4 C12_4 1_555 1_555
N4_4 N1_4 1_555 1_555
C14_4 C4_4 1_555 1_555
H8_4 C14_4 1_555 1_555
C18_4 C5_4 1_555 1_555
H12_4 C18_4 1_555 1_555
C20_4 N1_4 1_555 1_555
C21_4 C4_4 1_555 1_555
H14_4 C21_4 1_555 1_555
C22_4 C20_4 1_555 1_555
H15_4 C22_4 1_555 1_555
C23_4 C14_4 1_555 1_555
H16_4 C23_4 1_555 1_555
O13_2 Cu1_2 1_555 1_555
C9_4 C18_4 1_555 1_555
C20_4 C23_4 1_555 1_555
C21_4 C22_4 1_555 1_555
Cu5_2 O1_4 1_555 1_555
O3_4 Cu5_2 1_555 1_555
H1_4 O3_4 1_555 1_555
H2_4 O3_4 1_555 1_555
O12_4 Cu5_2 1_555 1_555
C2_8 C3_4 1_555 1_555
C3_4 C8_4 1_555 1_555
N2_4 C16_4 1_555 1_555
C7_4 C11_4 1_555 1_555
C8_4 H3_4 1_555 1_555
C11_4 C8_4 1_555 1_555
H5_4 C11_4 1_555 1_555
C13_4 C3_4 1_555 1_555
C15_4 C7_4 1_555 1_555
H9_4 C15_4 1_555 1_555
C16_4 H10_4 1_555 1_555
C24_4 C7_4 1_555 1_555
C25_4 N2_4 1_555 1_555
N5_4 C24_4 1_555 1_555
N6_4 N2_4 1_555 1_555
C26_4 C25_4 1_555 1_555
H17_4 C26_4 1_555 1_555
C27_4 C26_4 1_555 1_555
H18_4 C27_4 1_555 1_555
C28_4 C25_4 1_555 1_555
H19_4 C28_4 1_555 1_555
C29_4 C28_4 1_555 1_555
H20_4 C29_4 1_555 1_555
C30_4 C27_4 1_555 1_555
C31_4 C30_4 1_555 1_555
O13_2 C31_4 1_555 1_555
O15_2 C31_4 1_555 1_555
O12_4 C40_4 1_555 1_555
C32_4 C2_8 1_555 1_555
N7_4 C42_4 1_555 1_555
C34_4 C40_4 1_555 1_555
C35_4 C36_4 1_555 1_555
C36_4 N9_4 1_555 1_555
C39_4 C32_4 1_555 1_555
H22_4 C39_4 1_555 1_555
N9_4 N10_4 1_555 1_555
C42_4 C36_4 1_555 1_555
H24_4 C42_4 1_555 1_555
N10_4 N7_4 1_555 1_555
C44_4 C34_4 1_555 1_555
H26_4 C44_4 1_555 1_555
C47_4 C35_4 1_555 1_555
H29_4 C47_4 1_555 1_555
C48_4 C35_4 1_555 1_555
H30_4 C48_4 1_555 1_555
C49_4 C32_4 1_555 1_555
C50_4 N7_4 1_555 1_555
C51_4 C34_4 1_555 1_555
H32_4 C51_4 1_555 1_555
C52_4 C50_4 1_555 1_555
H33_4 C52_4 1_555 1_555
C53_4 C44_4 1_555 1_555
H34_4 C53_4 1_555 1_555
C13_4 C15_4 1_555 1_555
C16_4 C24_4 1_555 1_555
N5_4 N6_4 1_555 1_555
C29_4 C30_4 1_555 1_555
C39_4 C48_4 1_555 1_555
C47_4 C49_4 1_555 1_555
C50_4 C53_4 1_555 1_555
C51_4 C52_4 1_555 1_555

#END
