
###############################################################################
#
# This file contains modified crystal structure data generated from the
# MOF subset of the Cambridge Structural Database (CSD) v543 
# hosted by the Cambridge Crystallographic Data Centre (CCDC).
#
# This work is licensed under the Creative Commons
# Attribution-NonCommercial-ShareAlike 4.0 International License.
# To view a copy of this license, visit
# http://creativecommons.org/licenses/by-nc-sa/4.0/
# or send a letter to
# Creative Commons, PO Box 1866, Mountain View, CA 94042, USA.
#
# CIF created using the CSD Python API on 29 September 2022
# The structure has been converted into the P1 space group
# The structure has a 3D framework
# The original CSD entry NATKIF is in the tetragonal crystal system
# The original CSD entry NATKIF is in a Sohncke space group
# The framework has been calculated to contain at least 10.0% void space
# The void calculation uses a probe of radius 1.32A, grid spacing 0.4
#
###############################################################################

data_NATKIF
_chemical_formula_moiety         '(C248 H160 Cu8 N48 O36)n'
_symmetry_cell_setting           triclinic
_symmetry_space_group_name_H-M   'P 1'
_symmetry_Int_Tables_number      1
_space_group_name_Hall           'P 1'
loop_
_symmetry_equiv_pos_site_id
_symmetry_equiv_pos_as_xyz
1 x,y,z
_cell_length_a                   22.8050(5)
_cell_length_b                   22.8050(5)
_cell_length_c                   44.0727(12)
_cell_angle_alpha                90
_cell_angle_beta                 90
_cell_angle_gamma                90
_cell_volume                     22920.8
loop_
_atom_site_label
_atom_site_type_symbol
_atom_site_fract_x
_atom_site_fract_y
_atom_site_fract_z
Cu5 Cu 0.01549(4) 0.05582(4) 0.86105(2)
Cu1 Cu 0.55582(4) 0.48451(4) 0.36105(2)
O1 O 0.5322(2) 0.4296(2) 0.33004(10)
O2 O 0.4347(2) 0.4555(2) 0.32993(11)
O5 O 0.64690(19) 0.4565(2) 0.36094(14)
H1 H 0.667271 0.485651 0.355317
H2 H 0.655842 0.449641 0.379567
N1 N 0.4319(4) 0.2544(4) 0.2284(2)
N2 N 0.3766(4) 0.2523(6) 0.2141(3)
N3 N 0.3814(4) 0.2110(6) 0.1940(3)
C1 C 0.4773(3) 0.4246(4) 0.32022(15)
C2 C 0.4652(4) 0.3785(4) 0.29707(18)
C3 C 0.5087(5) 0.3465(5) 0.2869(2)
H3 H 0.545995 0.350996 0.295108
C4 C 0.4998(4) 0.3072(5) 0.2645(2)
H4 H 0.531148 0.284852 0.257481
C5 C 0.4479(5) 0.2997(4) 0.2524(2)
C6 C 0.3993(4) 0.3320(5) 0.2618(2)
H5 H 0.362318 0.327194 0.253277
C7 C 0.4099(4) 0.3716(5) 0.2847(2)
H6 H 0.379140 0.394216 0.292057
C8 C 0.4665(4) 0.2153(5) 0.2137(2)
H7 H 0.506471 0.210211 0.216958
C9 C 0.4331(5) 0.1845(5) 0.1933(2)
C10 C 0.4523(4) 0.1393(5) 0.17346(18)
C11 C 0.5078(4) 0.1146(4) 0.17375(19)
H8 H 0.535605 0.127821 0.187587
C12 C 0.5213(4) 0.0727(4) 0.15458(16)
H9 H 0.558821 0.056874 0.155500
C13 C 0.4815(3) 0.0499(3) 0.13228(18)
C14 C 0.4266(3) 0.0744(4) 0.1325(2)
H10 H 0.397669 0.059484 0.119773
C15 C 0.4137(4) 0.1223(5) 0.1519(2)
H11 H 0.378338 0.142187 0.149818
C16 C 0.500000 0.000000 0.1101(3)
C21 C 0.3809(3) 0.0095(4) 0.04813(15)
H14 H 0.366101 0.037746 0.034992
C22 C 0.4291(3) 0.0208(3) 0.06786(14)
H15 H 0.448753 0.056310 0.065692
N10 N 0.7243(5) 0.1085(4) 0.0325(2)
N11 N 0.7663(4) 0.1096(4) 0.0133(2)
C47 C 0.5517(3) 0.0171(4) 0.08983(15)
C48 C 0.5766(4) 0.0713(4) 0.08913(18)
H30 H 0.562716 0.099255 0.102708
C49 C 0.6209(4) 0.0876(4) 0.06981(19)
H31 H 0.635520 0.125652 0.070414
C50 C 0.6432(4) 0.0484(4) 0.0499(2)
C53 C 0.6945(4) 0.0597(4) 0.0290(2)
C54 C 0.7169(3) 0.0299(4) 0.00668(15)
Cu6 Cu 0.44418(4) 0.51549(4) 0.36105(2)
O12 O 0.5653(2) 0.5445(2) 0.32993(11)
O14 O 0.5329(2) 0.4297(2) 0.39206(13)
O15 O 0.5613(2) 0.54305(19) 0.39259(7)
O3 O 0.0703(2) 0.0329(2) 0.89206(13)
H16 H 0.293619 0.007233 0.999908
C29 C 0.1576(3) 0.0130(4) 0.93543(19)
H19 H 0.157498 0.049626 0.926149
C30 C 0.1971(3) 0.0011(4) 0.95973(18)
H20 H 0.221165 0.030905 0.966978
O9 O 0.95695(19) 0.0613(2) 0.89259(7)
N12 N 0.7577(3) 0.0648(4) 0.99593(12)
C55 C 0.7994(5) 0.0560(4) 0.9731(2)
C56 C 0.8380(4) 0.0963(3) 0.96135(19)
H35 H 0.837474 0.133839 0.969565
C57 C 0.8782(3) 0.0852(4) 0.93777(13)
H36 H 0.902426 0.114881 0.930585
C58 C 0.8810(4) 0.0304(3) 0.92569(17)
C61 C 0.9249(3) 0.0198(4) 0.90170(15)
N4 N 0.2757(5) 0.8915(4) 0.0325(2)
N5 N 0.2337(4) 0.8904(4) 0.0133(2)
C16_2 C 0.500000 1.000000 0.1101(3)
C17 C 0.4483(3) 0.9829(4) 0.08983(15)
C18 C 0.4234(4) 0.9287(4) 0.08913(18)
H12 H 0.437284 0.900745 0.102708
C19 C 0.3791(4) 0.9124(4) 0.06981(19)
H13 H 0.364480 0.874348 0.070414
C20 C 0.3568(4) 0.9516(4) 0.0499(2)
C23 C 0.3055(4) 0.9403(4) 0.0290(2)
C24 C 0.2831(3) 0.9701(4) 0.00668(15)
O6 O 0.4678(2) 0.5704(2) 0.33004(10)
N7 N 0.5681(4) 0.7456(4) 0.2284(2)
N8 N 0.6234(4) 0.7477(6) 0.2141(3)
N9 N 0.6186(4) 0.7890(6) 0.1940(3)
C32 C 0.5227(3) 0.5754(4) 0.32022(15)
C33 C 0.5348(4) 0.6215(4) 0.29707(18)
C34 C 0.4913(5) 0.6535(5) 0.2869(2)
H21 H 0.454005 0.649004 0.295108
C35 C 0.5002(4) 0.6928(5) 0.2645(2)
H22 H 0.468852 0.715148 0.257481
C36 C 0.5521(5) 0.7003(4) 0.2524(2)
C37 C 0.6007(4) 0.6680(5) 0.2618(2)
H23 H 0.637682 0.672806 0.253277
C38 C 0.5901(4) 0.6284(5) 0.2847(2)
H24 H 0.620860 0.605784 0.292057
C39 C 0.5335(4) 0.7847(5) 0.2137(2)
H25 H 0.493529 0.789789 0.216958
C40 C 0.5669(5) 0.8155(5) 0.1933(2)
C41 C 0.5477(4) 0.8607(5) 0.17346(18)
C42 C 0.4922(4) 0.8854(4) 0.17375(19)
H26 H 0.464395 0.872179 0.187587
C43 C 0.4787(4) 0.9273(4) 0.15458(16)
H27 H 0.441179 0.943126 0.155500
C44 C 0.5185(3) 0.9501(3) 0.13228(18)
C45 C 0.5734(3) 0.9256(4) 0.1325(2)
H28 H 0.602331 0.940516 0.119773
C46 C 0.5863(4) 0.8777(5) 0.1519(2)
H29 H 0.621662 0.857813 0.149818
C51 C 0.6191(3) 0.9905(4) 0.04813(15)
H32 H 0.633899 0.962254 0.034992
C52 C 0.5709(3) 0.9792(3) 0.06786(14)
H33 H 0.551247 0.943690 0.065692
O10 O 0.35310(19) 0.5435(2) 0.36094(14)
H39 H 0.332729 0.514349 0.355317
H40 H 0.344158 0.550359 0.379567
O13 O 0.4671(2) 0.5703(2) 0.39206(13)
O16 O 0.4387(2) 0.45695(19) 0.39259(7)
O4 O 0.04305(19) 0.9387(2) 0.89259(7)
N6 N 0.2423(3) 0.9352(4) 0.99593(12)
C25 C 0.2006(5) 0.9440(4) 0.9731(2)
C26 C 0.1620(4) 0.9037(3) 0.96135(19)
H17 H 0.162526 0.866161 0.969565
C27 C 0.1218(3) 0.9148(4) 0.93777(13)
H18 H 0.097574 0.885119 0.930585
C28 C 0.1190(4) 0.9696(3) 0.92569(17)
C31 C 0.0751(3) 0.9802(4) 0.90170(15)
O8 O 0.9297(2) 0.9671(2) 0.89206(13)
H34 H 0.706381 0.992767 0.999908
C59 C 0.8424(3) 0.9870(4) 0.93543(19)
H37 H 0.842502 0.950374 0.926149
C60 C 0.8029(3) 0.9989(4) 0.95973(18)
H38 H 0.778835 0.969095 0.966978
Cu8 Cu 0.98451(4) 0.94418(4) 0.86105(2)
O11 O 0.0445(2) 0.9347(2) 0.82993(11)
O1_2 O 0.0704(2) 0.0322(2) 0.83004(10)
O5_2 O 0.0435(2) 0.14690(19) 0.86094(14)
H1_2 H 0.014349 0.167271 0.855317
H2_2 H 0.050359 0.155842 0.879567
C3_2 C 0.1535(5) 0.0087(5) 0.7869(2)
H3_2 H 0.149004 0.045995 0.795108
H4_2 H 0.215148 0.031148 0.757481
H7_2 H 0.289789 0.006471 0.716958
C11_2 C 0.3854(4) 0.0078(4) 0.67375(19)
H8_2 H 0.372179 0.035605 0.687587
C12_2 C 0.4273(4) 0.0213(4) 0.65458(16)
H9_2 H 0.443126 0.058821 0.655500
C16_3 C 0.500000 0.000000 0.6101(3)
O7 O 0.9555(2) 0.0653(2) 0.82993(11)
N7_2 N 0.7544(4) 0.0681(4) 0.7284(2)
N8_2 N 0.7523(6) 0.1234(4) 0.7141(3)
N9_2 N 0.7110(6) 0.1186(4) 0.6940(3)
N10_2 N 0.3915(4) 0.2243(5) 0.5325(2)
N11_2 N 0.3904(4) 0.2663(4) 0.5133(2)
N12_2 N 0.4352(4) 0.2577(3) 0.49593(12)
C32_2 C 0.9246(4) 0.0227(3) 0.82022(15)
C33_2 C 0.8785(4) 0.0348(4) 0.79707(18)
C35_2 C 0.8072(5) 0.0002(4) 0.7645(2)
C36_2 C 0.7997(4) 0.0521(5) 0.7524(2)
C37_2 C 0.8320(5) 0.1007(4) 0.7618(2)
H23_2 H 0.827194 0.137682 0.753277
C38_2 C 0.8716(5) 0.0901(4) 0.7847(2)
H24_2 H 0.894216 0.120860 0.792057
C39_2 C 0.7153(5) 0.0335(4) 0.7137(2)
C40_2 C 0.6845(5) 0.0669(5) 0.6933(2)
C41_2 C 0.6393(5) 0.0477(4) 0.67346(18)
C44_2 C 0.5499(3) 0.0185(3) 0.63228(18)
C45_2 C 0.5744(4) 0.0734(3) 0.6325(2)
H28_2 H 0.559484 0.102331 0.619773
C46_2 C 0.6223(5) 0.0863(4) 0.6519(2)
H29_2 H 0.642187 0.121662 0.649818
C47_2 C 0.4829(4) 0.0517(3) 0.58983(15)
C48_2 C 0.4287(4) 0.0766(4) 0.58913(18)
H30_2 H 0.400745 0.062716 0.602708
C49_2 C 0.4124(4) 0.1209(4) 0.56981(19)
H31_2 H 0.374348 0.135520 0.570414
C50_2 C 0.4516(4) 0.1432(4) 0.5499(2)
C51_2 C 0.5095(4) 0.1191(3) 0.54813(15)
H32_2 H 0.537746 0.133899 0.534992
C52_2 C 0.5208(3) 0.0709(3) 0.56786(14)
H33_2 H 0.556310 0.051247 0.565692
C53_2 C 0.4403(4) 0.1945(4) 0.5290(2)
C54_2 C 0.4701(4) 0.2169(3) 0.50668(15)
H34_2 H 0.507233 0.206381 0.499908
C55_2 C 0.4440(4) 0.2994(5) 0.4731(2)
C56_2 C 0.4037(3) 0.3380(4) 0.46135(19)
H35_2 H 0.366161 0.337474 0.469565
C57_2 C 0.4148(4) 0.3782(3) 0.43777(13)
H36_2 H 0.385119 0.402426 0.430585
C58_2 C 0.4696(3) 0.3810(4) 0.42569(17)
C59_2 C 0.5130(4) 0.3424(3) 0.43543(19)
H37_2 H 0.549626 0.342502 0.426149
C60_2 C 0.5011(4) 0.3029(3) 0.45973(18)
H38_2 H 0.530905 0.278835 0.466978
C61_2 C 0.4802(4) 0.4249(3) 0.40170(15)
N1_2 N 0.2456(4) 0.9319(4) 0.7284(2)
N2_2 N 0.2477(6) 0.8766(4) 0.7141(3)
N3_2 N 0.2890(6) 0.8814(4) 0.6940(3)
N4_2 N 0.6085(4) 0.7757(5) 0.5325(2)
N5_2 N 0.6096(4) 0.7337(4) 0.5133(2)
N6_2 N 0.5648(4) 0.7423(3) 0.49593(12)
C1_2 C 0.0754(4) 0.9773(3) 0.82022(15)
C2_2 C 0.1215(4) 0.9652(4) 0.79707(18)
C4_2 C 0.1928(5) 0.9998(4) 0.7645(2)
C5_2 C 0.2003(4) 0.9479(5) 0.7524(2)
C6_2 C 0.1680(5) 0.8993(4) 0.7618(2)
H5_2 H 0.172806 0.862318 0.753277
C7_2 C 0.1284(5) 0.9099(4) 0.7847(2)
H6_2 H 0.105784 0.879140 0.792057
C8_2 C 0.2847(5) 0.9665(4) 0.7137(2)
C9_2 C 0.3155(5) 0.9331(5) 0.6933(2)
C10_2 C 0.3607(5) 0.9523(4) 0.67346(18)
C13_2 C 0.4501(3) 0.9815(3) 0.63228(18)
C14_2 C 0.4256(4) 0.9266(3) 0.6325(2)
H10_2 H 0.440516 0.897669 0.619773
C15_2 C 0.3777(5) 0.9137(4) 0.6519(2)
H11_2 H 0.357813 0.878338 0.649818
C16_4 C 0.500000 1.000000 0.6101(3)
C17_2 C 0.5171(4) 0.9483(3) 0.58983(15)
C18_2 C 0.5713(4) 0.9234(4) 0.58913(18)
H12_2 H 0.599255 0.937284 0.602708
C19_2 C 0.5876(4) 0.8791(4) 0.56981(19)
H13_2 H 0.625652 0.864480 0.570414
C20_2 C 0.5484(4) 0.8568(4) 0.5499(2)
C21_2 C 0.4905(4) 0.8809(3) 0.54813(15)
H14_2 H 0.462254 0.866101 0.534992
C22_2 C 0.4792(3) 0.9291(3) 0.56786(14)
H15_2 H 0.443690 0.948753 0.565692
C23_2 C 0.5597(4) 0.8055(4) 0.5290(2)
C24_2 C 0.5299(4) 0.7831(3) 0.50668(15)
H16_2 H 0.492767 0.793619 0.499908
C25_2 C 0.5560(4) 0.7006(5) 0.4731(2)
C26_2 C 0.5963(3) 0.6620(4) 0.46135(19)
H17_2 H 0.633839 0.662526 0.469565
C27_2 C 0.5852(4) 0.6218(3) 0.43777(13)
H18_2 H 0.614881 0.597574 0.430585
C28_2 C 0.5304(3) 0.6190(4) 0.42569(17)
C29_2 C 0.4870(4) 0.6576(3) 0.43543(19)
H19_2 H 0.450374 0.657498 0.426149
C30_2 C 0.4989(4) 0.6971(3) 0.45973(18)
H20_2 H 0.469095 0.721165 0.466978
C31_2 C 0.5198(4) 0.5751(3) 0.40170(15)
O6_2 O 0.9296(2) 0.9678(2) 0.83004(10)
C34_2 C 0.8465(5) 0.9913(5) 0.7869(2)
H21_2 H 0.850996 0.954005 0.795108
H22_2 H 0.784852 0.968852 0.757481
H25_2 H 0.710211 0.993529 0.716958
C42_2 C 0.6146(4) 0.9922(4) 0.67375(19)
H26_2 H 0.627821 0.964395 0.687587
C43_2 C 0.5727(4) 0.9787(4) 0.65458(16)
H27_2 H 0.556874 0.941179 0.655500
O10_2 O 0.9565(2) 0.85310(19) 0.86094(14)
H39_2 H 0.985651 0.832729 0.855317
H40_2 H 0.949641 0.844158 0.879567
Cu3 Cu 0.05582(4) 0.01549(4) 0.13895(2)
O1_3 O 0.0322(2) 0.0704(2) 0.16996(10)
O5_3 O 0.14690(19) 0.0435(2) 0.13906(14)
H1_3 H 0.167271 0.014349 0.144683
H2_3 H 0.155842 0.050359 0.120433
C3_3 C 0.0087(5) 0.1535(5) 0.2131(2)
H3_3 H 0.045995 0.149004 0.204892
H4_3 H 0.031148 0.215148 0.242519
H7_3 H 0.006471 0.289789 0.283042
C11_3 C 0.0078(4) 0.3854(4) 0.32625(19)
H8_3 H 0.035605 0.372179 0.312413
C12_3 C 0.0213(4) 0.4273(4) 0.34542(16)
H9_3 H 0.058821 0.443126 0.344500
C16_5 C 0.000000 0.500000 0.3899(3)
O7_2 O 0.0653(2) 0.9555(2) 0.17007(11)
O8_2 O 0.4297(2) 0.5329(2) 0.60794(13)
O9_2 O 0.45695(19) 0.4387(2) 0.60741(7)
N7_3 N 0.0681(4) 0.7544(4) 0.2716(2)
N8_3 N 0.1234(4) 0.7523(6) 0.2859(3)
N9_3 N 0.1186(4) 0.7110(6) 0.3060(3)
N10_3 N 0.2243(5) 0.3915(4) 0.4675(2)
N11_3 N 0.2663(4) 0.3904(4) 0.4867(2)
N12_3 N 0.2577(3) 0.4352(4) 0.50407(12)
C32_3 C 0.0227(3) 0.9246(4) 0.17978(15)
C33_3 C 0.0348(4) 0.8785(4) 0.20293(18)
C35_3 C 0.0002(4) 0.8072(5) 0.2355(2)
C36_3 C 0.0521(5) 0.7997(4) 0.2476(2)
C37_3 C 0.1007(4) 0.8320(5) 0.2382(2)
H23_3 H 0.137682 0.827194 0.246723
C38_3 C 0.0901(4) 0.8716(5) 0.2153(2)
H24_3 H 0.120860 0.894216 0.207943
C39_3 C 0.0335(4) 0.7153(5) 0.2863(2)
C40_3 C 0.0669(5) 0.6845(5) 0.3067(2)
C41_3 C 0.0477(4) 0.6393(5) 0.32654(18)
C44_3 C 0.0185(3) 0.5499(3) 0.36772(18)
C45_3 C 0.0734(3) 0.5744(4) 0.3675(2)
H28_3 H 0.102331 0.559484 0.380227
C46_3 C 0.0863(4) 0.6223(5) 0.3481(2)
H29_3 H 0.121662 0.642187 0.350182
C47_3 C 0.0517(3) 0.4829(4) 0.41017(15)
C48_3 C 0.0766(4) 0.4287(4) 0.41087(18)
H30_3 H 0.062716 0.400745 0.397292
C49_3 C 0.1209(4) 0.4124(4) 0.43019(19)
H31_3 H 0.135520 0.374348 0.429586
C50_3 C 0.1432(4) 0.4516(4) 0.4501(2)
C51_3 C 0.1191(3) 0.5095(4) 0.45187(15)
H32_3 H 0.133899 0.537746 0.465008
C52_3 C 0.0709(3) 0.5208(3) 0.43214(14)
H33_3 H 0.051247 0.556310 0.434308
C53_3 C 0.1945(4) 0.4403(4) 0.4710(2)
C54_3 C 0.2169(3) 0.4701(4) 0.49332(15)
H34_3 H 0.206381 0.507233 0.500092
C55_3 C 0.2994(5) 0.4440(4) 0.5269(2)
C56_3 C 0.3380(4) 0.4037(3) 0.53865(19)
H35_3 H 0.337474 0.366161 0.530435
C57_3 C 0.3782(3) 0.4148(4) 0.56223(13)
H36_3 H 0.402426 0.385119 0.569415
C58_3 C 0.3810(4) 0.4696(3) 0.57431(17)
C59_3 C 0.3424(3) 0.5130(4) 0.56457(19)
H37_3 H 0.342502 0.549626 0.573851
C60_3 C 0.3029(3) 0.5011(4) 0.54027(18)
H38_3 H 0.278835 0.530905 0.533022
C61_3 C 0.4249(3) 0.4802(4) 0.59830(15)
Cu5_2 Cu 0.51549(4) 0.44418(4) 0.63895(2)
Cu8_2 Cu 0.48451(4) 0.55582(4) 0.63895(2)
O14_2 O 0.0329(2) 0.0703(2) 0.10794(13)
O15_2 O 0.0613(2) 0.95695(19) 0.10741(7)
O11_2 O 0.9347(2) 0.0445(2) 0.17007(11)
O16_2 O 0.9387(2) 0.04305(19) 0.10741(7)
O3_2 O 0.5703(2) 0.4671(2) 0.60794(13)
O4_2 O 0.54305(19) 0.5613(2) 0.60741(7)
N1_3 N 0.9319(4) 0.2456(4) 0.2716(2)
N2_3 N 0.8766(4) 0.2477(6) 0.2859(3)
N3_3 N 0.8814(4) 0.2890(6) 0.3060(3)
N4_3 N 0.7757(5) 0.6085(4) 0.4675(2)
N5_3 N 0.7337(4) 0.6096(4) 0.4867(2)
N6_3 N 0.7423(3) 0.5648(4) 0.50407(12)
C1_3 C 0.9773(3) 0.0754(4) 0.17978(15)
C2_3 C 0.9652(4) 0.1215(4) 0.20293(18)
C4_3 C 0.9998(4) 0.1928(5) 0.2355(2)
C5_3 C 0.9479(5) 0.2003(4) 0.2476(2)
C6_3 C 0.8993(4) 0.1680(5) 0.2382(2)
H5_3 H 0.862318 0.172806 0.246723
C7_3 C 0.9099(4) 0.1284(5) 0.2153(2)
H6_3 H 0.879140 0.105784 0.207943
C8_3 C 0.9665(4) 0.2847(5) 0.2863(2)
C9_3 C 0.9331(5) 0.3155(5) 0.3067(2)
C10_3 C 0.9523(4) 0.3607(5) 0.32654(18)
C13_3 C 0.9815(3) 0.4501(3) 0.36772(18)
C14_3 C 0.9266(3) 0.4256(4) 0.3675(2)
H10_3 H 0.897669 0.440516 0.380227
C15_3 C 0.9137(4) 0.3777(5) 0.3481(2)
H11_3 H 0.878338 0.357813 0.350182
C16_6 C 1.000000 0.500000 0.3899(3)
C17_3 C 0.9483(3) 0.5171(4) 0.41017(15)
C18_3 C 0.9234(4) 0.5713(4) 0.41087(18)
H12_3 H 0.937284 0.599255 0.397292
C19_3 C 0.8791(4) 0.5876(4) 0.43019(19)
H13_3 H 0.864480 0.625652 0.429586
C20_3 C 0.8568(4) 0.5484(4) 0.4501(2)
C21_3 C 0.8809(3) 0.4905(4) 0.45187(15)
H14_3 H 0.866101 0.462254 0.465008
C22_3 C 0.9291(3) 0.4792(3) 0.43214(14)
H15_3 H 0.948753 0.443690 0.434308
C23_3 C 0.8055(4) 0.5597(4) 0.4710(2)
C24_3 C 0.7831(3) 0.5299(4) 0.49332(15)
H16_3 H 0.793619 0.492767 0.500092
C25_3 C 0.7006(5) 0.5560(4) 0.5269(2)
C26_3 C 0.6620(4) 0.5963(3) 0.53865(19)
H17_3 H 0.662526 0.633839 0.530435
C27_3 C 0.6218(3) 0.5852(4) 0.56223(13)
H18_3 H 0.597574 0.614881 0.569415
C28_3 C 0.6190(4) 0.5304(3) 0.57431(17)
C29_3 C 0.6576(3) 0.4870(4) 0.56457(19)
H19_3 H 0.657498 0.450374 0.573851
C30_3 C 0.6971(3) 0.4989(4) 0.54027(18)
H20_3 H 0.721165 0.469095 0.533022
C31_3 C 0.5751(3) 0.5198(4) 0.59830(15)
O6_3 O 0.9678(2) 0.9296(2) 0.16996(10)
C34_3 C 0.9913(5) 0.8465(5) 0.2131(2)
H21_3 H 0.954005 0.850996 0.204892
H22_3 H 0.968852 0.784852 0.242519
H25_3 H 0.993529 0.710211 0.283042
C42_3 C 0.9922(4) 0.6146(4) 0.32625(19)
H26_3 H 0.964395 0.627821 0.312413
C43_3 C 0.9787(4) 0.5727(4) 0.34542(16)
H27_3 H 0.941179 0.556874 0.344500
Cu2 Cu 0.94418(4) 0.98451(4) 0.13895(2)
O10_3 O 0.85310(19) 0.9565(2) 0.13906(14)
H39_3 H 0.832729 0.985651 0.144683
H40_3 H 0.844158 0.949641 0.120433
O13_2 O 0.9671(2) 0.9297(2) 0.10794(13)
H16_4 H 0.007233 0.293619 0.000092
C29_4 C 0.0130(4) 0.1576(3) 0.06457(19)
H19_4 H 0.049626 0.157498 0.073851
C30_4 C 0.0011(4) 0.1971(3) 0.04027(18)
H20_4 H 0.030905 0.221165 0.033022
N12_4 N 0.0648(4) 0.7577(3) 0.00407(12)
C55_4 C 0.0560(4) 0.7994(5) 0.0269(2)
C56_4 C 0.0963(3) 0.8380(4) 0.03865(19)
H35_4 H 0.133839 0.837474 0.030435
C57_4 C 0.0852(4) 0.8782(3) 0.06223(13)
H36_4 H 0.114881 0.902426 0.069415
C58_4 C 0.0304(3) 0.8810(4) 0.07431(17)
C61_4 C 0.0198(4) 0.9249(3) 0.09830(15)
O1_4 O 0.4296(2) 0.5322(2) 0.66996(10)
O2_2 O 0.4555(2) 0.4347(2) 0.67007(11)
O5_4 O 0.4565(2) 0.64690(19) 0.63906(14)
H1_4 H 0.485651 0.667271 0.644683
H2_4 H 0.449641 0.655842 0.620433
N1_4 N 0.2544(4) 0.4319(4) 0.7716(2)
N2_4 N 0.2523(6) 0.3766(4) 0.7859(3)
N3_4 N 0.2110(6) 0.3814(4) 0.8060(3)
C1_4 C 0.4246(4) 0.4773(3) 0.67978(15)
C2_4 C 0.3785(4) 0.4652(4) 0.70293(18)
C3_4 C 0.3465(5) 0.5087(5) 0.7131(2)
H3_4 H 0.350996 0.545995 0.704892
C4_4 C 0.3072(5) 0.4998(4) 0.7355(2)
H4_4 H 0.284852 0.531148 0.742519
C5_4 C 0.2997(4) 0.4479(5) 0.7476(2)
C6_4 C 0.3320(5) 0.3993(4) 0.7382(2)
H5_4 H 0.327194 0.362318 0.746723
C7_4 C 0.3716(5) 0.4099(4) 0.7153(2)
H6_4 H 0.394216 0.379140 0.707943
C8_4 C 0.2153(5) 0.4665(4) 0.7863(2)
H7_4 H 0.210211 0.506471 0.783042
C9_4 C 0.1845(5) 0.4331(5) 0.8067(2)
C10_4 C 0.1393(5) 0.4523(4) 0.82654(18)
C11_4 C 0.1146(4) 0.5078(4) 0.82625(19)
H8_4 H 0.127821 0.535605 0.812413
C12_4 C 0.0727(4) 0.5213(4) 0.84542(16)
H9_4 H 0.056874 0.558821 0.844500
C13_4 C 0.0499(3) 0.4815(3) 0.86772(18)
C14_4 C 0.0744(4) 0.4266(3) 0.8675(2)
H10_4 H 0.059484 0.397669 0.880227
C15_4 C 0.1223(5) 0.4137(4) 0.8481(2)
H11_4 H 0.142187 0.378338 0.850182
C16_7 C 0.000000 0.500000 0.8899(3)
C21_4 C 0.0095(4) 0.3809(3) 0.95187(15)
H14_4 H 0.037746 0.366101 0.965008
C22_4 C 0.0208(3) 0.4291(3) 0.93214(14)
H15_4 H 0.056310 0.448753 0.934308
N10_4 N 0.1085(4) 0.7243(5) 0.9675(2)
N11_4 N 0.1096(4) 0.7663(4) 0.9867(2)
C47_4 C 0.0171(4) 0.5517(3) 0.91017(15)
C48_4 C 0.0713(4) 0.5766(4) 0.91087(18)
H30_4 H 0.099255 0.562716 0.897292
C49_4 C 0.0876(4) 0.6209(4) 0.93019(19)
H31_4 H 0.125652 0.635520 0.929586
C50_4 C 0.0484(4) 0.6432(4) 0.9501(2)
C53_4 C 0.0597(4) 0.6945(4) 0.9710(2)
C54_4 C 0.0299(4) 0.7169(3) 0.99332(15)
O12_2 O 0.5445(2) 0.5653(2) 0.67007(11)
N6_4 N 0.9352(4) 0.2423(3) 0.00407(12)
C25_4 C 0.9440(4) 0.2006(5) 0.0269(2)
C26_4 C 0.9037(3) 0.1620(4) 0.03865(19)
H17_4 H 0.866161 0.162526 0.030435
C27_4 C 0.9148(4) 0.1218(3) 0.06223(13)
H18_4 H 0.885119 0.097574 0.069415
C28_4 C 0.9696(3) 0.1190(4) 0.07431(17)
C31_4 C 0.9802(4) 0.0751(3) 0.09830(15)
H34_4 H 0.992767 0.706381 0.000092
C59_4 C 0.9870(4) 0.8424(3) 0.06457(19)
H37_4 H 0.950374 0.842502 0.073851
C60_4 C 0.9989(4) 0.8029(3) 0.04027(18)
H38_4 H 0.969095 0.778835 0.033022
N4_4 N 0.8915(4) 0.2757(5) 0.9675(2)
N5_4 N 0.8904(4) 0.2337(4) 0.9867(2)
C16_8 C 1.000000 0.500000 0.8899(3)
C17_4 C 0.9829(4) 0.4483(3) 0.91017(15)
C18_4 C 0.9287(4) 0.4234(4) 0.91087(18)
H12_4 H 0.900745 0.437284 0.897292
C19_4 C 0.9124(4) 0.3791(4) 0.93019(19)
H13_4 H 0.874348 0.364480 0.929586
C20_4 C 0.9516(4) 0.3568(4) 0.9501(2)
C23_4 C 0.9403(4) 0.3055(4) 0.9710(2)
C24_4 C 0.9701(4) 0.2831(3) 0.99332(15)
O6_4 O 0.5704(2) 0.4678(2) 0.66996(10)
N7_4 N 0.7456(4) 0.5681(4) 0.7716(2)
N8_4 N 0.7477(6) 0.6234(4) 0.7859(3)
N9_4 N 0.7890(6) 0.6186(4) 0.8060(3)
C32_4 C 0.5754(4) 0.5227(3) 0.67978(15)
C33_4 C 0.6215(4) 0.5348(4) 0.70293(18)
C34_4 C 0.6535(5) 0.4913(5) 0.7131(2)
H21_4 H 0.649004 0.454005 0.704892
C35_4 C 0.6928(5) 0.5002(4) 0.7355(2)
H22_4 H 0.715148 0.468852 0.742519
C36_4 C 0.7003(4) 0.5521(5) 0.7476(2)
C37_4 C 0.6680(5) 0.6007(4) 0.7382(2)
H23_4 H 0.672806 0.637682 0.746723
C38_4 C 0.6284(5) 0.5901(4) 0.7153(2)
H24_4 H 0.605784 0.620860 0.707943
C39_4 C 0.7847(5) 0.5335(4) 0.7863(2)
H25_4 H 0.789789 0.493529 0.783042
C40_4 C 0.8155(5) 0.5669(5) 0.8067(2)
C41_4 C 0.8607(5) 0.5477(4) 0.82654(18)
C42_4 C 0.8854(4) 0.4922(4) 0.82625(19)
H26_4 H 0.872179 0.464395 0.812413
C43_4 C 0.9273(4) 0.4787(4) 0.84542(16)
H27_4 H 0.943126 0.441179 0.844500
C44_4 C 0.9501(3) 0.5185(3) 0.86772(18)
C45_4 C 0.9256(4) 0.5734(3) 0.8675(2)
H28_4 H 0.940516 0.602331 0.880227
C46_4 C 0.8777(5) 0.5863(4) 0.8481(2)
H29_4 H 0.857813 0.621662 0.850182
C51_4 C 0.9905(4) 0.6191(3) 0.95187(15)
H32_4 H 0.962254 0.633899 0.965008
C52_4 C 0.9792(3) 0.5709(3) 0.93214(14)
H33_4 H 0.943690 0.551247 0.934308
O10_4 O 0.5435(2) 0.35310(19) 0.63906(14)
H39_4 H 0.514349 0.332729 0.644683
H40_4 H 0.550359 0.344158 0.620433
loop_
_geom_bond_atom_site_label_1
_geom_bond_atom_site_label_2
_geom_bond_site_symmetry_1
_geom_bond_site_symmetry_2
Cu1 O1 1_555 1_555
O1 C1 1_555 1_555
O2 C1 1_555 1_555
O5 Cu1 1_555 1_555
H1 O5 1_555 1_555
H2 O5 1_555 1_555
N1 N2 1_555 1_555
N2 N3 1_555 1_555
N3 C9 1_555 1_555
C1 C2 1_555 1_555
C2 C3 1_555 1_555
C3 H3 1_555 1_555
C4 C3 1_555 1_555
H4 C4 1_555 1_555
C5 N1 1_555 1_555
C6 C5 1_555 1_555
H5 C6 1_555 1_555
C7 C2 1_555 1_555
H6 C7 1_555 1_555
C8 N1 1_555 1_555
H7 C8 1_555 1_555
C9 C8 1_555 1_555
C10 C9 1_555 1_555
C11 C10 1_555 1_555
H8 C11 1_555 1_555
C12 C11 1_555 1_555
H9 C12 1_555 1_555
C13 C12 1_555 1_555
C14 C13 1_555 1_555
H10 C14 1_555 1_555
C15 C10 1_555 1_555
H11 C15 1_555 1_555
C16 C13 1_555 1_555
H14 C21 1_555 1_555
H15 C22 1_555 1_555
N10 N11 1_555 1_555
C47 C16 1_555 1_555
C48 C47 1_555 1_555
H30 C48 1_555 1_555
C49 C48 1_555 1_555
H31 C49 1_555 1_555
C50 C49 1_555 1_555
C53 N10 1_555 1_555
C54 C53 1_555 1_555
Cu6 Cu1 1_555 1_555
O12 Cu1 1_555 1_555
O14 Cu1 1_555 1_555
O15 Cu1 1_555 1_555
O2 Cu6 1_555 1_555
C4 C5 1_555 1_555
C6 C7 1_555 1_555
C14 C15 1_555 1_555
C21 C22 1_555 1_555
C50 C53 1_555 1_555
H19 C29 1_555 1_555
H20 C30 1_555 1_555
O9 C61 1_555 1_555
C55 N12 1_555 1_555
C56 C55 1_555 1_555
H35 C56 1_555 1_555
C57 C56 1_555 1_555
H36 C57 1_555 1_555
C58 C57 1_555 1_555
C61 C58 1_555 1_555
Cu5 O3 1_555 1_555
C29 C30 1_555 1_555
N4 N5 1_555 1_555
C17 C16_2 1_555 1_555
C18 C17 1_555 1_555
H12 C18 1_555 1_555
C19 C18 1_555 1_555
H13 C19 1_555 1_555
C20 C19 1_555 1_555
C23 N4 1_555 1_555
C24 C23 1_555 1_555
O6 C32 1_555 1_555
O12 C32 1_555 1_555
N7 N8 1_555 1_555
N8 N9 1_555 1_555
N9 C40 1_555 1_555
C32 C33 1_555 1_555
C33 C34 1_555 1_555
C34 H21 1_555 1_555
C35 C34 1_555 1_555
H22 C35 1_555 1_555
C36 N7 1_555 1_555
C37 C36 1_555 1_555
H23 C37 1_555 1_555
C38 C33 1_555 1_555
H24 C38 1_555 1_555
C39 N7 1_555 1_555
H25 C39 1_555 1_555
C40 C39 1_555 1_555
C41 C40 1_555 1_555
C42 C41 1_555 1_555
H26 C42 1_555 1_555
C43 C42 1_555 1_555
H27 C43 1_555 1_555
C44 C16_2 1_555 1_555
C45 C44 1_555 1_555
H28 C45 1_555 1_555
C46 C41 1_555 1_555
H29 C46 1_555 1_555
H32 C51 1_555 1_555
H33 C52 1_555 1_555
Cu6 O6 1_555 1_555
O10 Cu6 1_555 1_555
H39 O10 1_555 1_555
H40 O10 1_555 1_555
O13 Cu6 1_555 1_555
O16 Cu6 1_555 1_555
C20 C23 1_555 1_555
C35 C36 1_555 1_555
C37 C38 1_555 1_555
C43 C44 1_555 1_555
C45 C46 1_555 1_555
C51 C52 1_555 1_555
O4 C31 1_555 1_555
C25 N6 1_555 1_555
C26 C25 1_555 1_555
H17 C26 1_555 1_555
C27 C26 1_555 1_555
H18 C27 1_555 1_555
C28 C27 1_555 1_555
C31 C28 1_555 1_555
H37 C59 1_555 1_555
H38 C60 1_555 1_555
Cu8 O8 1_555 1_555
C59 C60 1_555 1_555
Cu5 O1_2 1_555 1_555
O5_2 Cu5 1_555 1_555
H1_2 O5_2 1_555 1_555
H2_2 O5_2 1_555 1_555
C3_2 H3_2 1_555 1_555
H8_2 C11_2 1_555 1_555
C12_2 C11_2 1_555 1_555
H9_2 C12_2 1_555 1_555
O7 C32_2 1_555 1_555
O14 C61_2 1_555 1_555
O16 C61_2 1_555 1_555
N7_2 N8_2 1_555 1_555
N8_2 N9_2 1_555 1_555
N9_2 C40_2 1_555 1_555
N10_2 N11_2 1_555 1_555
N11_2 N12_2 1_555 1_555
N12_2 C54_2 1_555 1_555
C32_2 C33_2 1_555 1_555
C36_2 N7_2 1_555 1_555
C37_2 C36_2 1_555 1_555
H23_2 C37_2 1_555 1_555
C38_2 C33_2 1_555 1_555
H24_2 C38_2 1_555 1_555
C39_2 N7_2 1_555 1_555
C40_2 C39_2 1_555 1_555
C41_2 C40_2 1_555 1_555
C44_2 C16_3 1_555 1_555
C45_2 C44_2 1_555 1_555
H28_2 C45_2 1_555 1_555
C46_2 C41_2 1_555 1_555
H29_2 C46_2 1_555 1_555
C47_2 C16_3 1_555 1_555
C48_2 C47_2 1_555 1_555
H30_2 C48_2 1_555 1_555
C49_2 C48_2 1_555 1_555
H31_2 C49_2 1_555 1_555
C50_2 C49_2 1_555 1_555
C51_2 C50_2 1_555 1_555
H32_2 C51_2 1_555 1_555
C52_2 C47_2 1_555 1_555
H33_2 C52_2 1_555 1_555
C53_2 N10_2 1_555 1_555
C54_2 C53_2 1_555 1_555
H34_2 C54_2 1_555 1_555
C55_2 N12_2 1_555 1_555
C56_2 C55_2 1_555 1_555
H35_2 C56_2 1_555 1_555
C57_2 C56_2 1_555 1_555
H36_2 C57_2 1_555 1_555
C58_2 C57_2 1_555 1_555
C59_2 C58_2 1_555 1_555
H37_2 C59_2 1_555 1_555
C60_2 C55_2 1_555 1_555
H38_2 C60_2 1_555 1_555
C61_2 C58_2 1_555 1_555
C35_2 C36_2 1_555 1_555
C37_2 C38_2 1_555 1_555
C45_2 C46_2 1_555 1_555
C50_2 C53_2 1_555 1_555
C51_2 C52_2 1_555 1_555
C59_2 C60_2 1_555 1_555
O11 C1_2 1_555 1_555
O13 C31_2 1_555 1_555
O15 C31_2 1_555 1_555
N1_2 N2_2 1_555 1_555
N2_2 N3_2 1_555 1_555
N3_2 C9_2 1_555 1_555
N4_2 N5_2 1_555 1_555
N5_2 N6_2 1_555 1_555
N6_2 C24_2 1_555 1_555
C1_2 C2_2 1_555 1_555
C5_2 N1_2 1_555 1_555
C6_2 C5_2 1_555 1_555
H5_2 C6_2 1_555 1_555
C7_2 C2_2 1_555 1_555
H6_2 C7_2 1_555 1_555
C8_2 N1_2 1_555 1_555
C9_2 C8_2 1_555 1_555
C10_2 C9_2 1_555 1_555
C14_2 C13_2 1_555 1_555
H10_2 C14_2 1_555 1_555
C15_2 C10_2 1_555 1_555
H11_2 C15_2 1_555 1_555
C16_4 C13_2 1_555 1_555
C17_2 C16_4 1_555 1_555
C18_2 C17_2 1_555 1_555
H12_2 C18_2 1_555 1_555
C19_2 C18_2 1_555 1_555
H13_2 C19_2 1_555 1_555
C20_2 C19_2 1_555 1_555
C21_2 C20_2 1_555 1_555
H14_2 C21_2 1_555 1_555
C22_2 C17_2 1_555 1_555
H15_2 C22_2 1_555 1_555
C23_2 N4_2 1_555 1_555
C24_2 C23_2 1_555 1_555
H16_2 C24_2 1_555 1_555
C25_2 N6_2 1_555 1_555
C26_2 C25_2 1_555 1_555
H17_2 C26_2 1_555 1_555
C27_2 C26_2 1_555 1_555
H18_2 C27_2 1_555 1_555
C28_2 C27_2 1_555 1_555
C29_2 C28_2 1_555 1_555
H19_2 C29_2 1_555 1_555
C30_2 C25_2 1_555 1_555
H20_2 C30_2 1_555 1_555
C31_2 C28_2 1_555 1_555
C34_2 H21_2 1_555 1_555
H26_2 C42_2 1_555 1_555
C43_2 C42_2 1_555 1_555
H27_2 C43_2 1_555 1_555
Cu8 O6_2 1_555 1_555
O10_2 Cu8 1_555 1_555
H39_2 O10_2 1_555 1_555
H40_2 O10_2 1_555 1_555
C4_2 C5_2 1_555 1_555
C6_2 C7_2 1_555 1_555
C14_2 C15_2 1_555 1_555
C20_2 C23_2 1_555 1_555
C21_2 C22_2 1_555 1_555
C29_2 C30_2 1_555 1_555
Cu3 O1_3 1_555 1_555
O5_3 Cu3 1_555 1_555
H1_3 O5_3 1_555 1_555
H2_3 O5_3 1_555 1_555
C3_3 H3_3 1_555 1_555
H8_3 C11_3 1_555 1_555
C12_3 C11_3 1_555 1_555
H9_3 C12_3 1_555 1_555
O7_2 C32_3 1_555 1_555
O8_2 C61_3 1_555 1_555
O9_2 C61_3 1_555 1_555
N7_3 N8_3 1_555 1_555
N8_3 N9_3 1_555 1_555
N9_3 C40_3 1_555 1_555
N10_3 N11_3 1_555 1_555
N11_3 N12_3 1_555 1_555
N12_3 C54_3 1_555 1_555
C32_3 C33_3 1_555 1_555
C36_3 N7_3 1_555 1_555
C37_3 C36_3 1_555 1_555
H23_3 C37_3 1_555 1_555
C38_3 C33_3 1_555 1_555
H24_3 C38_3 1_555 1_555
C39_3 N7_3 1_555 1_555
C40_3 C39_3 1_555 1_555
C41_3 C40_3 1_555 1_555
C44_3 C16_5 1_555 1_555
C45_3 C44_3 1_555 1_555
H28_3 C45_3 1_555 1_555
C46_3 C41_3 1_555 1_555
H29_3 C46_3 1_555 1_555
C47_3 C16_5 1_555 1_555
C48_3 C47_3 1_555 1_555
H30_3 C48_3 1_555 1_555
C49_3 C48_3 1_555 1_555
H31_3 C49_3 1_555 1_555
C50_3 C49_3 1_555 1_555
C51_3 C50_3 1_555 1_555
H32_3 C51_3 1_555 1_555
C52_3 C47_3 1_555 1_555
H33_3 C52_3 1_555 1_555
C53_3 N10_3 1_555 1_555
C54_3 C53_3 1_555 1_555
H34_3 C54_3 1_555 1_555
C55_3 N12_3 1_555 1_555
C56_3 C55_3 1_555 1_555
H35_3 C56_3 1_555 1_555
C57_3 C56_3 1_555 1_555
H36_3 C57_3 1_555 1_555
C58_3 C57_3 1_555 1_555
C59_3 C58_3 1_555 1_555
H37_3 C59_3 1_555 1_555
C60_3 C55_3 1_555 1_555
H38_3 C60_3 1_555 1_555
C61_3 C58_3 1_555 1_555
Cu5_2 O9_2 1_555 1_555
Cu8_2 O8_2 1_555 1_555
O14_2 Cu3 1_555 1_555
C35_3 C36_3 1_555 1_555
C37_3 C38_3 1_555 1_555
C45_3 C46_3 1_555 1_555
C50_3 C53_3 1_555 1_555
C51_3 C52_3 1_555 1_555
C59_3 C60_3 1_555 1_555
Cu5_2 Cu8_2 1_555 1_555
O11_2 C1_3 1_555 1_555
O3_2 C31_3 1_555 1_555
O4_2 C31_3 1_555 1_555
N1_3 N2_3 1_555 1_555
N2_3 N3_3 1_555 1_555
N3_3 C9_3 1_555 1_555
N4_3 N5_3 1_555 1_555
N5_3 N6_3 1_555 1_555
N6_3 C24_3 1_555 1_555
C1_3 C2_3 1_555 1_555
C5_3 N1_3 1_555 1_555
C6_3 C5_3 1_555 1_555
H5_3 C6_3 1_555 1_555
C7_3 C2_3 1_555 1_555
H6_3 C7_3 1_555 1_555
C8_3 N1_3 1_555 1_555
C9_3 C8_3 1_555 1_555
C10_3 C9_3 1_555 1_555
C14_3 C13_3 1_555 1_555
H10_3 C14_3 1_555 1_555
C15_3 C10_3 1_555 1_555
H11_3 C15_3 1_555 1_555
C16_6 C13_3 1_555 1_555
C17_3 C16_6 1_555 1_555
C18_3 C17_3 1_555 1_555
H12_3 C18_3 1_555 1_555
C19_3 C18_3 1_555 1_555
H13_3 C19_3 1_555 1_555
C20_3 C19_3 1_555 1_555
C21_3 C20_3 1_555 1_555
H14_3 C21_3 1_555 1_555
C22_3 C17_3 1_555 1_555
H15_3 C22_3 1_555 1_555
C23_3 N4_3 1_555 1_555
C24_3 C23_3 1_555 1_555
H16_3 C24_3 1_555 1_555
C25_3 N6_3 1_555 1_555
C26_3 C25_3 1_555 1_555
H17_3 C26_3 1_555 1_555
C27_3 C26_3 1_555 1_555
H18_3 C27_3 1_555 1_555
C28_3 C27_3 1_555 1_555
C29_3 C28_3 1_555 1_555
H19_3 C29_3 1_555 1_555
C30_3 C25_3 1_555 1_555
H20_3 C30_3 1_555 1_555
C31_3 C28_3 1_555 1_555
C34_3 H21_3 1_555 1_555
H26_3 C42_3 1_555 1_555
C43_3 C42_3 1_555 1_555
H27_3 C43_3 1_555 1_555
Cu2 O6_3 1_555 1_555
O10_3 Cu2 1_555 1_555
H39_3 O10_3 1_555 1_555
H40_3 O10_3 1_555 1_555
Cu5_2 O3_2 1_555 1_555
Cu8_2 O4_2 1_555 1_555
O13_2 Cu2 1_555 1_555
C4_3 C5_3 1_555 1_555
C6_3 C7_3 1_555 1_555
C14_3 C15_3 1_555 1_555
C20_3 C23_3 1_555 1_555
C21_3 C22_3 1_555 1_555
C29_3 C30_3 1_555 1_555
H19_4 C29_4 1_555 1_555
H20_4 C30_4 1_555 1_555
O15_2 C61_4 1_555 1_555
C55_4 N12_4 1_555 1_555
C56_4 C55_4 1_555 1_555
H35_4 C56_4 1_555 1_555
C57_4 C56_4 1_555 1_555
H36_4 C57_4 1_555 1_555
C58_4 C57_4 1_555 1_555
C61_4 C58_4 1_555 1_555
C29_4 C30_4 1_555 1_555
Cu8_2 O1_4 1_555 1_555
O1_4 C1_4 1_555 1_555
O2_2 C1_4 1_555 1_555
O5_4 Cu8_2 1_555 1_555
H1_4 O5_4 1_555 1_555
H2_4 O5_4 1_555 1_555
N1_4 N2_4 1_555 1_555
N2_4 N3_4 1_555 1_555
N3_4 C9_4 1_555 1_555
C1_4 C2_4 1_555 1_555
C2_4 C3_4 1_555 1_555
C3_4 H3_4 1_555 1_555
C4_4 C3_4 1_555 1_555
H4_4 C4_4 1_555 1_555
C5_4 N1_4 1_555 1_555
C6_4 C5_4 1_555 1_555
H5_4 C6_4 1_555 1_555
C7_4 C2_4 1_555 1_555
H6_4 C7_4 1_555 1_555
C8_4 N1_4 1_555 1_555
H7_4 C8_4 1_555 1_555
C9_4 C8_4 1_555 1_555
C10_4 C9_4 1_555 1_555
C11_4 C10_4 1_555 1_555
H8_4 C11_4 1_555 1_555
C12_4 C11_4 1_555 1_555
H9_4 C12_4 1_555 1_555
C13_4 C12_4 1_555 1_555
C14_4 C13_4 1_555 1_555
H10_4 C14_4 1_555 1_555
C15_4 C10_4 1_555 1_555
H11_4 C15_4 1_555 1_555
C16_7 C13_4 1_555 1_555
H14_4 C21_4 1_555 1_555
H15_4 C22_4 1_555 1_555
N10_4 N11_4 1_555 1_555
C47_4 C16_7 1_555 1_555
C48_4 C47_4 1_555 1_555
H30_4 C48_4 1_555 1_555
C49_4 C48_4 1_555 1_555
H31_4 C49_4 1_555 1_555
C50_4 C49_4 1_555 1_555
C53_4 N10_4 1_555 1_555
C54_4 C53_4 1_555 1_555
O12_2 Cu8_2 1_555 1_555
O2_2 Cu5_2 1_555 1_555
C4_4 C5_4 1_555 1_555
C6_4 C7_4 1_555 1_555
C14_4 C15_4 1_555 1_555
C21_4 C22_4 1_555 1_555
C50_4 C53_4 1_555 1_555
O16_2 C31_4 1_555 1_555
C25_4 N6_4 1_555 1_555
C26_4 C25_4 1_555 1_555
H17_4 C26_4 1_555 1_555
C27_4 C26_4 1_555 1_555
H18_4 C27_4 1_555 1_555
C28_4 C27_4 1_555 1_555
C31_4 C28_4 1_555 1_555
H37_4 C59_4 1_555 1_555
H38_4 C60_4 1_555 1_555
C59_4 C60_4 1_555 1_555
N4_4 N5_4 1_555 1_555
C17_4 C16_8 1_555 1_555
C18_4 C17_4 1_555 1_555
H12_4 C18_4 1_555 1_555
C19_4 C18_4 1_555 1_555
H13_4 C19_4 1_555 1_555
C20_4 C19_4 1_555 1_555
C23_4 N4_4 1_555 1_555
C24_4 C23_4 1_555 1_555
O6_4 C32_4 1_555 1_555
O12_2 C32_4 1_555 1_555
N7_4 N8_4 1_555 1_555
N8_4 N9_4 1_555 1_555
N9_4 C40_4 1_555 1_555
C32_4 C33_4 1_555 1_555
C33_4 C34_4 1_555 1_555
C34_4 H21_4 1_555 1_555
C35_4 C34_4 1_555 1_555
H22_4 C35_4 1_555 1_555
C36_4 N7_4 1_555 1_555
C37_4 C36_4 1_555 1_555
H23_4 C37_4 1_555 1_555
C38_4 C33_4 1_555 1_555
H24_4 C38_4 1_555 1_555
C39_4 N7_4 1_555 1_555
H25_4 C39_4 1_555 1_555
C40_4 C39_4 1_555 1_555
C41_4 C40_4 1_555 1_555
C42_4 C41_4 1_555 1_555
H26_4 C42_4 1_555 1_555
C43_4 C42_4 1_555 1_555
H27_4 C43_4 1_555 1_555
C44_4 C16_8 1_555 1_555
C45_4 C44_4 1_555 1_555
H28_4 C45_4 1_555 1_555
C46_4 C41_4 1_555 1_555
H29_4 C46_4 1_555 1_555
H32_4 C51_4 1_555 1_555
H33_4 C52_4 1_555 1_555
Cu5_2 O6_4 1_555 1_555
O10_4 Cu5_2 1_555 1_555
H39_4 O10_4 1_555 1_555
H40_4 O10_4 1_555 1_555
C20_4 C23_4 1_555 1_555
C35_4 C36_4 1_555 1_555
C37_4 C38_4 1_555 1_555
C43_4 C44_4 1_555 1_555
C45_4 C46_4 1_555 1_555
C51_4 C52_4 1_555 1_555

#END
