
###############################################################################
#
# This file contains modified crystal structure data generated from the
# MOF subset of the Cambridge Structural Database (CSD) v543 
# hosted by the Cambridge Crystallographic Data Centre (CCDC).
#
# This work is licensed under the Creative Commons
# Attribution-NonCommercial-ShareAlike 4.0 International License.
# To view a copy of this license, visit
# http://creativecommons.org/licenses/by-nc-sa/4.0/
# or send a letter to
# Creative Commons, PO Box 1866, Mountain View, CA 94042, USA.
#
# CIF created using the CSD Python API on 29 September 2022
# The structure has been converted into the P1 space group
# The structure has a 3D framework
# The original CSD entry NAVBIX is in the hexagonal crystal system
# The original CSD entry NAVBIX is in a Sohncke space group
# The framework has been calculated to contain at least 10.0% void space
# The void calculation uses a probe of radius 1.32A, grid spacing 0.4
# The framework is charged, counterions have been retained in the structure
# H atom positions have been added when not included in the experimental data
# Generated hydrogen atom positions removed from atoms on special positions
#
###############################################################################

data_NAVBIX
_chemical_formula_moiety         '(C240 H216 Cd12 N36 Na4 O93 39+)n'
_symmetry_cell_setting           triclinic
_symmetry_space_group_name_H-M   'P 1'
_symmetry_Int_Tables_number      1
_space_group_name_Hall           'P 1'
loop_
_symmetry_equiv_pos_site_id
_symmetry_equiv_pos_as_xyz
1 x,y,z
_cell_length_a                   18.6150(8)
_cell_length_b                   18.6150(8)
_cell_length_c                   24.852(2)
_cell_angle_alpha                90
_cell_angle_beta                 90
_cell_angle_gamma                120
_cell_volume                     7457.93
loop_
_atom_site_label
_atom_site_type_symbol
_atom_site_fract_x
_atom_site_fract_y
_atom_site_fract_z
Cd8 Cd 0.45199(3) 0.19284(5) 0.93705(2)
C23 C 0.1729(7) 0.0068(10) 0.8536(4)
H15 H 0.1640 0.0114 0.8900
C48 C 0.2482(6) 0.0509(8) 0.8344(4)
C53 C 0.2609(6) 0.0509(8) 0.7812(4)
H30 H 0.3129 0.0864 0.7666
C58 C 0.3194(7) 0.0998(9) 0.8706(4)
O7 O 0.3853(5) 0.1594(9) 0.8514(3)
O15 O 0.3181(5) 0.0802(8) 0.9172(3)
Cd5 Cd 0.74085(4) 0.54801(3) 0.93705(2)
Cd6 Cd 0.80716(5) 0.25915(4) 0.93705(2)
N6 N 0.5093(4) 0.3260(6) 0.9107(3)
N7 N 0.6740(6) 0.1833(4) 0.9107(3)
N8 N 0.8167(4) 0.4907(4) 0.9107(3)
C33 C 0.4140(7) 0.3516(10) 0.8501(3)
C34 C 0.6484(10) 0.0624(7) 0.8501(3)
C35 C 0.9376(7) 0.5860(7) 0.8501(3)
H25 H 0.3706 0.2972 0.8478
H26 H 0.7028 0.0734 0.8478
H27 H 0.9266 0.6294 0.8478
N11 N 0.5850(4) 0.3775(6) 0.9285(2)
N12 N 0.6225(6) 0.2075(4) 0.9285(2)
N13 N 0.7925(4) 0.4150(4) 0.9285(2)
C43 C 0.4855(6) 0.3724(8) 0.8778(3)
C44 C 0.6276(8) 0.1131(5) 0.8778(3)
C45 C 0.8869(5) 0.5145(6) 0.8778(3)
O11 O 0.7741(7) 0.6147(5) 0.8514(3)
O12 O 0.8406(9) 0.2259(7) 0.8514(3)
O19 O 0.7621(6) 0.6819(5) 0.9172(3)
O20 O 0.9198(8) 0.2379(6) 0.9172(3)
C63 C 0.5524(6) 0.4538(8) 0.8797(3)
C64 C 0.5462(8) 0.0986(5) 0.8797(3)
C65 C 0.9014(5) 0.4476(6) 0.8797(3)
C68 C 0.5471(8) 0.5190(10) 0.8544(4)
C69 C 0.4810(10) 0.0281(6) 0.8544(4)
C70 C 0.9719(6) 0.4529(8) 0.8544(4)
H35 H 0.5898 0.5738 0.8569
H36 H 0.4262 0.0160 0.8569
H37 H 0.9840 0.4102 0.8569
C78 C 0.4102(8) 0.4149(11) 0.8261(5)
H45 H 0.3616 0.4037 0.8084
C83 C 0.4781(9) 0.4985(11) 0.8268(5)
H50 H 0.4739 0.5391 0.8076
N16 N 0.6129(4) 0.4542(6) 0.9108(3)
N17 N 0.5458(6) 0.1587(4) 0.9108(3)
N18 N 0.8413(4) 0.3871(4) 0.9108(3)
Na2 Na 0.6667 0.3334 0.98507(13)
C12 C 0.4102(8) 0.9953(8) 0.6739(5)
H7 H 0.3616 0.9579 0.6916
C13 C 0.4781(9) 0.9796(7) 0.6732(5)
H8 H 0.4739 0.9348 0.6924
C25 C 0.8339(7) 0.8271(7) 0.8536(4)
H17 H 0.8474 0.8360 0.8900
C29 C 0.8018(6) 0.9975(8) 0.7520(4)
C30 C 0.8018(6) 0.8043(6) 0.7480(4)
H21 H 0.7905 0.9959 0.7885
H22 H 0.7905 0.7946 0.7115
C39 C 0.8292(5) 0.9473(7) 0.7323(3)
C40 C 0.8292(5) 0.8819(5) 0.7677(3)
C50 C 0.8027(6) 0.7518(6) 0.8344(4)
C55 C 0.7900(6) 0.7391(6) 0.7812(4)
H32 H 0.7735 0.6871 0.7666
C60 C 0.7804(6) 0.6806(7) 0.8706(4)
C74 C 0.8475(6) 0.9538(8) 0.6780(4)
C75 C 0.8475(6) 0.8937(6) 0.8220(4)
H41 H 0.8687 0.9226 0.6629
H42 H 0.8687 0.9461 0.8371
C21 C 0.9932(10) 0.1661(7) 0.8536(4)
H13 H 0.9886 0.1526 0.8900
C46 C 0.9491(8) 0.1973(6) 0.8344(4)
C51 C 0.9491(8) 0.2100(6) 0.7812(4)
H28 H 0.9136 0.2265 0.7666
C56 C 0.9002(9) 0.2196(6) 0.8706(4)
C27 C 0.0025(8) 0.8043(6) 0.7520(4)
C28 C 0.1957(6) 0.9975(8) 0.7480(4)
H19 H 0.0041 0.7946 0.7885
H20 H 0.2054 0.9959 0.7115
C37 C 0.0527(7) 0.8819(5) 0.7323(3)
C38 C 0.1181(5) 0.9473(7) 0.7677(3)
C72 C 0.0462(8) 0.8937(6) 0.6780(4)
C73 C 0.1063(6) 0.9538(8) 0.8220(4)
H39 H 0.0774 0.9461 0.6629
H40 H 0.0539 0.9226 0.8371
C77 C 0.0047(8) 0.4149(11) 0.6739(5)
H44 H 0.0421 0.4037 0.6916
C82 C 0.0204(7) 0.4985(11) 0.6732(5)
H49 H 0.0652 0.5391 0.6924
C79 C 0.5851(11) 0.9953(8) 0.8261(5)
H46 H 0.5963 0.9579 0.8084
C84 C 0.5015(11) 0.9796(7) 0.8268(5)
H51 H 0.4609 0.9348 0.8076
C80 C 0.0047(8) 0.5898(8) 0.8261(5)
H47 H 0.0421 0.6384 0.8084
C85 C 0.0204(7) 0.5219(9) 0.8268(5)
H52 H 0.0652 0.5261 0.8076
Cd1 Cd 0.45199(3) 0.25915(4) 0.56295(2)
C1 C 0.1729(7) 0.1661(7) 0.6464(4)
H1 H 0.1640 0.1526 0.6100
C2 C 0.1957(6) 0.1982(6) 0.7520(4)
H2 H 0.2054 0.2095 0.7885
N1 N 0.5093(4) 0.1833(4) 0.5893(3)
C3 C 0.4140(7) 0.0624(7) 0.6499(3)
H3 H 0.3706 0.0734 0.6522
N2 N 0.5850(4) 0.2075(4) 0.5715(2)
C4 C 0.1181(5) 0.1708(5) 0.7323(3)
C5 C 0.4855(6) 0.1131(5) 0.6222(3)
C6 C 0.2482(6) 0.1973(6) 0.6656(4)
C7 C 0.2609(6) 0.2100(6) 0.7188(4)
H4 H 0.3129 0.2265 0.7334
C8 C 0.3194(7) 0.2196(6) 0.6294(4)
O1 O 0.3853(5) 0.2259(7) 0.6486(3)
O2 O 0.3181(5) 0.2379(6) 0.5828(3)
C9 C 0.5524(6) 0.0986(5) 0.6203(3)
C10 C 0.5471(8) 0.0281(6) 0.6456(4)
H5 H 0.5898 0.0160 0.6431
C11 C 0.1063(6) 0.1525(6) 0.6780(4)
H6 H 0.0539 0.1313 0.6629
N3 N 0.6129(4) 0.1587(4) 0.5892(3)
O3 O 0.5334(4) 0.2824(4) 0.4773(2)
O4 O 0.4007(4) 0.2332(5) 0.4768(2)
C14 C 0.4661(4) 0.2465(5) 0.3930(3)
C15 C 0.4657(5) 0.2535(5) 0.4537(3)
C16 C 0.4647(4) 0.2351(5) 0.2797(3)
C17 C 0.5312(4) 0.2460(4) 0.3104(3)
H9 H 0.5770 0.2492 0.2931
C18 C 0.3964(5) 0.2284(7) 0.3080(3)
H10 H 0.3494 0.2186 0.2889
C19 C 0.5325(4) 0.2519(5) 0.3642(3)
H11 H 0.5792 0.2599 0.3829
C20 C 0.3966(5) 0.2357(7) 0.3629(3)
H12 H 0.3514 0.2336 0.3803
Na1 Na 0.6667 0.3333 0.51493(13)
Cd2 Cd 0.80716(5) 0.54801(3) 0.56295(2)
Cd3 Cd 0.74085(4) 0.19284(5) 0.56295(2)
C22 C 0.9932(10) 0.8271(7) 0.6464(4)
C24 C 0.8339(7) 0.0068(10) 0.6464(4)
H14 H 0.9886 0.8360 0.6100
H16 H 0.8474 0.0114 0.6100
C26 C 0.0025(8) 0.1982(6) 0.7480(4)
H18 H 0.0041 0.2095 0.7115
N4 N 0.6740(6) 0.4907(4) 0.5893(3)
N5 N 0.8167(4) 0.3260(6) 0.5893(3)
C31 C 0.6484(10) 0.5860(7) 0.6499(3)
C32 C 0.9376(7) 0.3516(10) 0.6499(3)
H23 H 0.7028 0.6294 0.6522
H24 H 0.9266 0.2972 0.6522
N9 N 0.6225(6) 0.4150(4) 0.5715(2)
N10 N 0.7925(4) 0.3775(6) 0.5715(2)
C36 C 0.0527(7) 0.1708(5) 0.7677(3)
C41 C 0.6276(8) 0.5145(6) 0.6222(3)
C42 C 0.8869(5) 0.3724(8) 0.6222(3)
C47 C 0.9491(8) 0.7518(6) 0.6656(4)
C49 C 0.8027(6) 0.0509(8) 0.6656(4)
C52 C 0.9491(8) 0.7391(6) 0.7188(4)
C54 C 0.7900(6) 0.0509(8) 0.7188(4)
H29 H 0.9136 0.6871 0.7334
H31 H 0.7735 0.0864 0.7334
C57 C 0.9002(9) 0.6806(7) 0.6294(4)
C59 C 0.7804(6) 0.0998(9) 0.6294(4)
O6 O 0.8406(9) 0.6147(5) 0.6486(3)
O8 O 0.7741(7) 0.1594(9) 0.6486(3)
O14 O 0.9198(8) 0.6819(5) 0.5828(3)
O16 O 0.7621(6) 0.0802(8) 0.5828(3)
C61 C 0.5462(8) 0.4476(6) 0.6203(3)
C62 C 0.9014(5) 0.4538(8) 0.6203(3)
C66 C 0.4810(10) 0.4529(8) 0.6456(4)
C67 C 0.9719(6) 0.5190(10) 0.6456(4)
H33 H 0.4262 0.4102 0.6431
H34 H 0.9840 0.5738 0.6431
C71 C 0.0462(8) 0.1525(6) 0.8220(4)
H38 H 0.0774 0.1313 0.8371
C76 C 0.5851(11) 0.5898(8) 0.6739(5)
H43 H 0.5963 0.6384 0.6916
C81 C 0.5015(11) 0.5219(9) 0.6732(5)
H48 H 0.4609 0.5261 0.6924
N14 N 0.5458(6) 0.3871(4) 0.5892(3)
N15 N 0.8413(4) 0.4542(6) 0.5892(3)
O21 O 0.5334(4) 0.2510(6) 0.0227(2)
O22 O 0.7490(6) 0.4666(4) 0.4773(2)
O23 O 0.7176(4) 0.4666(4) 0.0227(2)
O24 O 0.7176(4) 0.2510(6) 0.4773(2)
O25 O 0.7490(6) 0.2824(4) 0.0227(2)
O26 O 0.4007(4) 0.1675(6) 0.0232(2)
O27 O 0.8325(6) 0.5993(4) 0.4768(2)
O28 O 0.7668(5) 0.5993(4) 0.0232(2)
O29 O 0.7668(5) 0.1675(6) 0.4768(2)
O30 O 0.8325(6) 0.2332(5) 0.0232(2)
C86 C 0.4661(4) 0.2196(6) 0.1070(3)
C87 C 0.7804(6) 0.5339(4) 0.3930(3)
C88 C 0.7535(5) 0.5339(4) 0.1070(3)
C89 C 0.7535(5) 0.2196(6) 0.3930(3)
C90 C 0.7804(6) 0.2465(5) 0.1070(3)
C91 C 0.4657(5) 0.2122(7) 0.0463(3)
C92 C 0.7878(7) 0.5343(5) 0.4537(3)
C93 C 0.7465(5) 0.5343(5) 0.0463(3)
C94 C 0.7465(5) 0.2122(7) 0.4537(3)
C95 C 0.7878(7) 0.2535(5) 0.0463(3)
C96 C 0.4647(4) 0.2296(6) 0.2203(3)
C97 C 0.7704(6) 0.5353(4) 0.2797(3)
C98 C 0.7649(5) 0.5353(4) 0.2203(3)
C99 C 0.7649(5) 0.2296(6) 0.2797(3)
C100 C 0.7704(6) 0.2351(5) 0.2203(3)
C101 C 0.5312(4) 0.2852(6) 0.1896(3)
C102 C 0.7148(6) 0.4688(4) 0.3104(3)
C103 C 0.7540(4) 0.4688(4) 0.1896(3)
C104 C 0.7540(4) 0.2852(6) 0.3104(3)
C105 C 0.7148(6) 0.2460(4) 0.1896(3)
H53 H 0.5770 0.3278 0.2069
H54 H 0.6722 0.4230 0.2931
H55 H 0.7508 0.4230 0.2069
H56 H 0.7508 0.3278 0.2931
H57 H 0.6722 0.2492 0.2069
C106 C 0.3964(5) 0.1680(9) 0.1920(3)
C107 C 0.8320(9) 0.6036(5) 0.3080(3)
C108 C 0.7716(7) 0.6036(5) 0.1920(3)
C109 C 0.7716(7) 0.1680(9) 0.3080(3)
C110 C 0.8320(9) 0.2284(7) 0.1920(3)
H58 H 0.3494 0.1308 0.2111
H59 H 0.8692 0.6506 0.2889
H60 H 0.7814 0.6506 0.2111
H61 H 0.7814 0.1308 0.2889
H62 H 0.8692 0.2186 0.2111
C111 C 0.5325(4) 0.2806(6) 0.1358(3)
C112 C 0.7194(6) 0.4675(4) 0.3642(3)
C113 C 0.7481(5) 0.4675(4) 0.1358(3)
C114 C 0.7481(5) 0.2806(6) 0.3642(3)
C115 C 0.7194(6) 0.2519(5) 0.1358(3)
H63 H 0.5792 0.3193 0.1171
H64 H 0.6807 0.4208 0.3829
H65 H 0.7401 0.4208 0.1171
H66 H 0.7401 0.3193 0.3829
H67 H 0.6807 0.2599 0.1171
C116 C 0.3966(5) 0.1609(9) 0.1371(3)
C117 C 0.8391(9) 0.6034(5) 0.3629(3)
C118 C 0.7643(7) 0.6034(5) 0.1371(3)
C119 C 0.7643(7) 0.1609(9) 0.3629(3)
C120 C 0.8391(9) 0.2357(7) 0.1371(3)
H68 H 0.3514 0.1178 0.1197
H69 H 0.8822 0.6486 0.3803
H70 H 0.7664 0.6486 0.1197
H71 H 0.7664 0.1178 0.3803
H72 H 0.8822 0.2336 0.1197
Cd7 Cd 0.19284(5) 0.74085(4) 0.43705(2)
C21_2 C 0.0068(10) 0.8339(7) 0.3536(4)
H13_2 H 0.0114 0.8474 0.3900
C46_2 C 0.0509(8) 0.8027(6) 0.3344(4)
C51_2 C 0.0509(8) 0.7900(6) 0.2812(4)
H28_2 H 0.0864 0.7735 0.2666
C56_2 C 0.0998(9) 0.7804(6) 0.3706(4)
O5 O 0.1594(9) 0.7741(7) 0.3514(3)
O13 O 0.0802(8) 0.7621(6) 0.4172(3)
C12_2 C 0.5898(8) 0.0047(8) 0.1739(5)
H7_2 H 0.6384 0.0421 0.1916
C13_2 C 0.5219(9) 0.0204(7) 0.1732(5)
H8_2 H 0.5261 0.0652 0.1924
Cd9 Cd 0.25915(4) 0.45199(3) 0.43705(2)
C25_2 C 0.1661(7) 0.1729(7) 0.3536(4)
H17_2 H 0.1526 0.1640 0.3900
C29_2 C 0.1982(6) 0.0025(8) 0.2520(4)
C30_2 C 0.1982(6) 0.1957(6) 0.2480(4)
H21_2 H 0.2095 0.0041 0.2885
H22_2 H 0.2095 0.2054 0.2115
C39_2 C 0.1708(5) 0.0527(7) 0.2323(3)
C40_2 C 0.1708(5) 0.1181(5) 0.2677(3)
C50_2 C 0.1973(6) 0.2482(6) 0.3344(4)
C55_2 C 0.2100(6) 0.2609(6) 0.2812(4)
H32_2 H 0.2265 0.3129 0.2666
C60_2 C 0.2196(6) 0.3194(7) 0.3706(4)
O9 O 0.2259(7) 0.3853(5) 0.3514(3)
O17 O 0.2379(6) 0.3181(5) 0.4172(3)
C74_2 C 0.1525(6) 0.0462(8) 0.1780(4)
C75_2 C 0.1525(6) 0.1063(6) 0.3220(4)
H41_2 H 0.1313 0.0774 0.1629
H42_2 H 0.1313 0.0539 0.3371
O3_2 O 0.4666(4) 0.7176(4) 0.9773(2)
O4_2 O 0.5993(4) 0.7668(5) 0.9768(2)
C14_2 C 0.5339(4) 0.7535(5) 0.8930(3)
C15_2 C 0.5343(5) 0.7465(5) 0.9537(3)
C16_2 C 0.5353(4) 0.7649(5) 0.7797(3)
C17_2 C 0.4688(4) 0.7540(4) 0.8104(3)
H9_2 H 0.4230 0.7508 0.7931
C18_2 C 0.6036(5) 0.7716(7) 0.8080(3)
H10_2 H 0.6506 0.7814 0.7889
C19_2 C 0.4675(4) 0.7481(5) 0.8642(3)
H11_2 H 0.4208 0.7401 0.8829
C20_2 C 0.6034(5) 0.7643(7) 0.8629(3)
H12_2 H 0.6486 0.7664 0.8803
Cd4 Cd 0.54801(3) 0.80716(5) 0.43705(2)
N6_2 N 0.4907(4) 0.6740(6) 0.4107(3)
N7_2 N 0.3260(6) 0.8167(4) 0.4107(3)
N8_2 N 0.1833(4) 0.5093(4) 0.4107(3)
C33_2 C 0.5860(7) 0.6484(10) 0.3501(3)
C34_2 C 0.3516(10) 0.9376(7) 0.3501(3)
C35_2 C 0.0624(7) 0.4140(7) 0.3501(3)
H25_2 H 0.6294 0.7028 0.3478
H26_2 H 0.2972 0.9266 0.3478
H27_2 H 0.0734 0.3706 0.3478
N11_2 N 0.4150(4) 0.6225(6) 0.4285(2)
N12_2 N 0.3775(6) 0.7925(4) 0.4285(2)
N13_2 N 0.2075(4) 0.5850(4) 0.4285(2)
C43_2 C 0.5145(6) 0.6276(8) 0.3778(3)
C44_2 C 0.3724(8) 0.8869(5) 0.3778(3)
C45_2 C 0.1131(5) 0.4855(6) 0.3778(3)
O10 O 0.6147(5) 0.8406(9) 0.3514(3)
O18 O 0.6819(5) 0.9198(8) 0.4172(3)
C63_2 C 0.4476(6) 0.5462(8) 0.3797(3)
C64_2 C 0.4538(8) 0.9014(5) 0.3797(3)
C65_2 C 0.0986(5) 0.5524(6) 0.3797(3)
C68_2 C 0.4529(8) 0.4810(10) 0.3544(4)
C69_2 C 0.5190(10) 0.9719(6) 0.3544(4)
C70_2 C 0.0281(6) 0.5471(8) 0.3544(4)
H35_2 H 0.4102 0.4262 0.3569
H36_2 H 0.5738 0.9840 0.3569
H37_2 H 0.0160 0.5898 0.3569
C78_2 C 0.5898(8) 0.5851(11) 0.3261(5)
H45_2 H 0.6384 0.5963 0.3084
C83_2 C 0.5219(9) 0.5015(11) 0.3268(5)
H50_2 H 0.5261 0.4609 0.3076
N16_2 N 0.3871(4) 0.5458(6) 0.4108(3)
N17_2 N 0.4542(6) 0.8413(4) 0.4108(3)
N18_2 N 0.1587(4) 0.6129(4) 0.4108(3)
O21_2 O 0.4666(4) 0.7490(6) 0.5227(2)
O22_2 O 0.2510(6) 0.5334(4) 0.9773(2)
O23_2 O 0.2824(4) 0.5334(4) 0.5227(2)
O24_2 O 0.2824(4) 0.7490(6) 0.9773(2)
O25_2 O 0.2510(6) 0.7176(4) 0.5227(2)
O26_2 O 0.5993(4) 0.8325(6) 0.5232(2)
O27_2 O 0.1675(6) 0.4007(4) 0.9768(2)
O28_2 O 0.2332(5) 0.4007(4) 0.5232(2)
O29_2 O 0.2332(5) 0.8325(6) 0.9768(2)
O30_2 O 0.1675(6) 0.7668(5) 0.5232(2)
C86_2 C 0.5339(4) 0.7804(6) 0.6070(3)
C87_2 C 0.2196(6) 0.4661(4) 0.8930(3)
C88_2 C 0.2465(5) 0.4661(4) 0.6070(3)
C89_2 C 0.2465(5) 0.7804(6) 0.8930(3)
C90_2 C 0.2196(6) 0.7535(5) 0.6070(3)
C91_2 C 0.5343(5) 0.7878(7) 0.5463(3)
C92_2 C 0.2122(7) 0.4657(5) 0.9537(3)
C93_2 C 0.2535(5) 0.4657(5) 0.5463(3)
C94_2 C 0.2535(5) 0.7878(7) 0.9537(3)
C95_2 C 0.2122(7) 0.7465(5) 0.5463(3)
C96_2 C 0.5353(4) 0.7704(6) 0.7203(3)
C97_2 C 0.2296(6) 0.4647(4) 0.7797(3)
C98_2 C 0.2351(5) 0.4647(4) 0.7203(3)
C99_2 C 0.2351(5) 0.7704(6) 0.7797(3)
C100_2 C 0.2296(6) 0.7649(5) 0.7203(3)
C101_2 C 0.4688(4) 0.7148(6) 0.6896(3)
C102_2 C 0.2852(6) 0.5312(4) 0.8104(3)
C103_2 C 0.2460(4) 0.5312(4) 0.6896(3)
C104_2 C 0.2460(4) 0.7148(6) 0.8104(3)
C105_2 C 0.2852(6) 0.7540(4) 0.6896(3)
H53_2 H 0.4230 0.6722 0.7069
H54_2 H 0.3278 0.5770 0.7931
H55_2 H 0.2492 0.5770 0.7069
H56_2 H 0.2492 0.6722 0.7931
H57_2 H 0.3278 0.7508 0.7069
C106_2 C 0.6036(5) 0.8320(9) 0.6920(3)
C107_2 C 0.1680(9) 0.3964(5) 0.8080(3)
C108_2 C 0.2284(7) 0.3964(5) 0.6920(3)
C109_2 C 0.2284(7) 0.8320(9) 0.8080(3)
C110_2 C 0.1680(9) 0.7716(7) 0.6920(3)
H58_2 H 0.6506 0.8692 0.7111
H59_2 H 0.1308 0.3494 0.7889
H60_2 H 0.2186 0.3494 0.7111
H61_2 H 0.2186 0.8692 0.7889
H62_2 H 0.1308 0.7814 0.7111
C111_2 C 0.4675(4) 0.7194(6) 0.6358(3)
C112_2 C 0.2806(6) 0.5325(4) 0.8642(3)
C113_2 C 0.2519(5) 0.5325(4) 0.6358(3)
C114_2 C 0.2519(5) 0.7194(6) 0.8642(3)
C115_2 C 0.2806(6) 0.7481(5) 0.6358(3)
H63_2 H 0.4208 0.6807 0.6171
H64_2 H 0.3193 0.5792 0.8829
H65_2 H 0.2599 0.5792 0.6171
H66_2 H 0.2599 0.6807 0.8829
H67_2 H 0.3193 0.7401 0.6171
C116_2 C 0.6034(5) 0.8391(9) 0.6371(3)
C117_2 C 0.1609(9) 0.3966(5) 0.8629(3)
C118_2 C 0.2357(7) 0.3966(5) 0.6371(3)
C119_2 C 0.2357(7) 0.8391(9) 0.8629(3)
C120_2 C 0.1609(9) 0.7643(7) 0.6371(3)
H68_2 H 0.6486 0.8822 0.6197
H69_2 H 0.1178 0.3514 0.8803
H70_2 H 0.2336 0.3514 0.6197
H71_2 H 0.2336 0.8822 0.8803
H72_2 H 0.1178 0.7664 0.6197
Na2_2 Na 0.3333 0.6666 0.48507(13)
C23_2 C 0.8271(7) 0.9932(10) 0.3536(4)
H15_2 H 0.8360 0.9886 0.3900
C48_2 C 0.7518(6) 0.9491(8) 0.3344(4)
C53_2 C 0.7391(6) 0.9491(8) 0.2812(4)
H30_2 H 0.6871 0.9136 0.2666
C58_2 C 0.6806(7) 0.9002(9) 0.3706(4)
C79_2 C 0.4149(11) 0.0047(8) 0.3261(5)
H46_2 H 0.4037 0.0421 0.3084
C84_2 C 0.4985(11) 0.0204(7) 0.3268(5)
H51_2 H 0.5391 0.0652 0.3076
C27_2 C 0.9975(8) 0.1957(6) 0.2520(4)
C28_2 C 0.8043(6) 0.0025(8) 0.2480(4)
H19_2 H 0.9959 0.2054 0.2885
H20_2 H 0.7946 0.0041 0.2115
C37_2 C 0.9473(7) 0.1181(5) 0.2323(3)
C38_2 C 0.8819(5) 0.0527(7) 0.2677(3)
C72_2 C 0.9538(8) 0.1063(6) 0.1780(4)
C73_2 C 0.8937(6) 0.0462(8) 0.3220(4)
H39_2 H 0.9226 0.0539 0.1629
H40_2 H 0.9461 0.0774 0.3371
C77_2 C 0.9953(8) 0.5851(11) 0.1739(5)
H44_2 H 0.9579 0.5963 0.1916
C82_2 C 0.9796(7) 0.5015(11) 0.1732(5)
H49_2 H 0.9348 0.4609 0.1924
Cd1_2 Cd 0.54801(3) 0.74085(4) 0.06295(2)
C1_2 C 0.8271(7) 0.8339(7) 0.1464(4)
H1_2 H 0.8360 0.8474 0.1100
C2_2 C 0.8043(6) 0.8018(6) 0.2520(4)
H2_2 H 0.7946 0.7905 0.2885
N1_2 N 0.4907(4) 0.8167(4) 0.0893(3)
C3_2 C 0.5860(7) 0.9376(7) 0.1499(3)
H3_2 H 0.6294 0.9266 0.1522
N2_2 N 0.4150(4) 0.7925(4) 0.0715(2)
C4_2 C 0.8819(5) 0.8292(5) 0.2323(3)
C5_2 C 0.5145(6) 0.8869(5) 0.1222(3)
C6_2 C 0.7518(6) 0.8027(6) 0.1656(4)
C7_2 C 0.7391(6) 0.7900(6) 0.2188(4)
H4_2 H 0.6871 0.7735 0.2334
C8_2 C 0.6806(7) 0.7804(6) 0.1294(4)
O1_2 O 0.6147(5) 0.7741(7) 0.1486(3)
O2_2 O 0.6819(5) 0.7621(6) 0.0828(3)
C9_2 C 0.4476(6) 0.9014(5) 0.1203(3)
C10_2 C 0.4529(8) 0.9719(6) 0.1456(4)
H5_2 H 0.4102 0.9840 0.1431
C11_2 C 0.8937(6) 0.8475(6) 0.1780(4)
H6_2 H 0.9461 0.8687 0.1629
N3_2 N 0.3871(4) 0.8413(4) 0.0892(3)
Na1_2 Na 0.3333 0.6667 0.01493(13)
Cd2_2 Cd 0.19284(5) 0.45199(3) 0.06295(2)
Cd3_2 Cd 0.25915(4) 0.80716(5) 0.06295(2)
C22_2 C 0.0068(10) 0.1729(7) 0.1464(4)
C24_2 C 0.1661(7) 0.9932(10) 0.1464(4)
H14_2 H 0.0114 0.1640 0.1100
H16_2 H 0.1526 0.9886 0.1100
C26_2 C 0.9975(8) 0.8018(6) 0.2480(4)
H18_2 H 0.9959 0.7905 0.2115
N4_2 N 0.3260(6) 0.5093(4) 0.0893(3)
N5_2 N 0.1833(4) 0.6740(6) 0.0893(3)
C31_2 C 0.3516(10) 0.4140(7) 0.1499(3)
C32_2 C 0.0624(7) 0.6484(10) 0.1499(3)
H23_2 H 0.2972 0.3706 0.1522
H24_2 H 0.0734 0.7028 0.1522
N9_2 N 0.3775(6) 0.5850(4) 0.0715(2)
N10_2 N 0.2075(4) 0.6225(6) 0.0715(2)
C36_2 C 0.9473(7) 0.8292(5) 0.2677(3)
C41_2 C 0.3724(8) 0.4855(6) 0.1222(3)
C42_2 C 0.1131(5) 0.6276(8) 0.1222(3)
C47_2 C 0.0509(8) 0.2482(6) 0.1656(4)
C49_2 C 0.1973(6) 0.9491(8) 0.1656(4)
C52_2 C 0.0509(8) 0.2609(6) 0.2188(4)
C54_2 C 0.2100(6) 0.9491(8) 0.2188(4)
H29_2 H 0.0864 0.3129 0.2334
H31_2 H 0.2265 0.9136 0.2334
C57_2 C 0.0998(9) 0.3194(7) 0.1294(4)
C59_2 C 0.2196(6) 0.9002(9) 0.1294(4)
O6_2 O 0.1594(9) 0.3853(5) 0.1486(3)
O8_2 O 0.2259(7) 0.8406(9) 0.1486(3)
O14_2 O 0.0802(8) 0.3181(5) 0.0828(3)
O16_2 O 0.2379(6) 0.9198(8) 0.0828(3)
C61_2 C 0.4538(8) 0.5524(6) 0.1203(3)
C62_2 C 0.0986(5) 0.5462(8) 0.1203(3)
C66_2 C 0.5190(10) 0.5471(8) 0.1456(4)
C67_2 C 0.0281(6) 0.4810(10) 0.1456(4)
H33_2 H 0.5738 0.5898 0.1431
H34_2 H 0.0160 0.4262 0.1431
C71_2 C 0.9538(8) 0.8475(6) 0.3220(4)
H38_2 H 0.9226 0.8687 0.3371
C76_2 C 0.4149(11) 0.4102(8) 0.1739(5)
H43_2 H 0.4037 0.3616 0.1916
C81_2 C 0.4985(11) 0.4781(9) 0.1732(5)
H48_2 H 0.5391 0.4739 0.1924
N14_2 N 0.4542(6) 0.6129(4) 0.0892(3)
N15_2 N 0.1587(4) 0.5458(6) 0.0892(3)
C80_2 C 0.9953(8) 0.4102(8) 0.3261(5)
H47_2 H 0.9579 0.3616 0.3084
C85_2 C 0.9796(7) 0.4781(9) 0.3268(5)
H52_2 H 0.9348 0.4739 0.3076
O31 O 0.2905(4) 0.2905(4) 0.5000
O31_2 O 0.7095(4) -0.0000(6) 0.5000
H74 H 0.7611(10) 0.0331(32) 0.493(2)
H79 H 0.686496 0.0155888 0.531018
O31_3 O 0.7095(4) 1.0000(6) 0.5000
H73 H 0.728(3) 0.9669(32) 0.507(2)
H79_2 H 0.670907 0.984411 0.468982
O31_4 O -0.0000(6) 0.7095(4) 0.5000
H73_2 H 0.0331(32) 0.7611(10) 0.507(2)
H79_3 H 0.0155888 0.686496 0.468982
O31_5 O 1.0000(6) 0.7095(4) 0.5000
H74_2 H 0.9669(32) 0.728(3) 0.493(2)
H79_4 H 0.984411 0.670907 0.531018
O31_6 O 0.7095(4) 0.7095(4) 0.0000
H73_3 H 0.7611(10) 0.728(3) 0.007(2)
H79_5 H 0.670907 0.686496 0.0310176
O31_7 O 0.7095(4) 0.7095(4) 1.0000
H74_3 H 0.728(3) 0.7611(10) 0.993(2)
H79_6 H 0.686496 0.670907 0.968982
O31_8 O 0.2905(4) 0.0000(6) 0.0000
H73_4 H 0.272(3) 0.0331(32) 0.007(2)
O31_9 O 0.2905(4) -0.0000(6) 1.0000
H79_7 H 0.329093 0.0155888 0.968982
O31_10 O 0.2905(4) 1.0000(6) 0.0000
H79_8 H 0.313504 0.984411 0.0310176
O31_11 O 0.2905(4) 1.0000(6) 1.0000
H74_4 H 0.2389(10) 0.9669(32) 0.993(2)
O31_12 O 0.0000(6) 0.2905(4) 0.0000
H79_9 H 0.0155888 0.329093 0.0310176
O31_13 O 0.0000(6) 0.2905(4) 1.0000
H74_5 H 0.0331(32) 0.272(3) 0.993(2)
O31_14 O 1.0000(6) 0.2905(4) 0.0000
H73_5 H 0.9669(32) 0.2389(10) 0.007(2)
O31_15 O 1.0000(6) 0.2905(4) 1.0000
H79_10 H 0.984411 0.313504 0.968982
O32 O 0.5799(12) -0.0000 0.5000
H76 H 0.614(5) 0.035(3) 0.523(2)
H81 H 0.566998 0.0357924 0.477081
O32_2 O 0.5799(12) 1.0000 0.5000
H75 H 0.579(4) 0.965(3) 0.477(2)
H81_2 H 0.531206 0.964208 0.522919
O32_3 O 0.0000 0.5799(12) 0.5000
H75_2 H 0.035(3) 0.614(5) 0.477(2)
H81_3 H 0.0357924 0.566998 0.522919
O32_4 O 1.0000 0.5799(12) 0.5000
H76_2 H 0.965(3) 0.579(6) 0.523(2)
H81_4 H 0.964208 0.531206 0.477081
O32_5 O 0.4201(12) 0.4201(12) 0.5000
O32_6 O 0.4201(12) 0.0000 0.0000
H81_5 H 0.468794 0.0357924 0.022919
O32_7 O 0.4201(12) 0.0000 1.0000
H75_3 H 0.421(4) 0.035(3) 0.977(2)
O32_8 O 0.4201(12) 1.0000 0.0000
H76_3 H 0.386(5) 0.965(3) 0.023(2)
O32_9 O 0.4201(12) 1.0000 1.0000
H81_6 H 0.433002 0.964208 0.977081
O32_10 O -0.0000 0.4201(12) 0.0000
H76_4 H 0.035(3) 0.421(6) 0.023(2)
O32_11 O -0.0000 0.4201(12) 1.0000
H81_7 H 0.0357924 0.468794 0.977081
O32_12 O 1.0000 0.4201(12) 0.0000
H81_8 H 0.964208 0.433002 0.022919
O32_13 O 1.0000 0.4201(12) 1.0000
H75_4 H 0.965(3) 0.386(5) 0.977(2)
O32_14 O 0.5799(12) 0.5799(12) 0.0000
H76_5 H 0.579(6) 0.614(5) 0.023(2)
H81_9 H 0.566998 0.531206 0.022919
O32_15 O 0.5799(12) 0.5799(12) 1.0000
H75_5 H 0.614(5) 0.579(4) 0.977(2)
H81_10 H 0.531206 0.566998 0.977081
O33 O 0.1974(16) -0.0000 0.5000
H78 H 0.24(3) 0.01(2) 0.481(13)
H80 H 0.1904 0.0475958 0.510541
O33_2 O 0.1974(16) 1.0000 0.5000
H77 H 0.23(2) 0.99(2) 0.519(13)
H80_2 H 0.142804 0.952404 0.489459
O33_3 O 0.0000 0.1974(16) 0.5000
H77_2 H 0.01(2) 0.24(3) 0.519(13)
H80_3 H 0.0475958 0.1904 0.489459
O33_4 O 1.0000 0.1974(16) 0.5000
H78_2 H 0.99(2) 0.23(4) 0.481(13)
H80_4 H 0.952404 0.142804 0.510541
O33_5 O 0.8026(16) 0.8026(16) 0.5000
O33_6 O 0.8026(16) 0.0000 0.0000
H77_3 H 0.77(2) 0.01(2) 0.019(13)
O33_7 O 0.8026(16) 0.0000 1.0000
H80_5 H 0.857196 0.0475958 0.989459
O33_8 O 0.8026(16) 1.0000 0.0000
H80_6 H 0.8096 0.952404 0.0105409
O33_9 O 0.8026(16) 1.0000 1.0000
H78_3 H 0.76(3) 0.99(2) 0.981(13)
O33_10 O -0.0000 0.8026(16) 0.0000
H80_7 H 0.0475958 0.857196 0.0105409
O33_11 O -0.0000 0.8026(16) 1.0000
H78_4 H 0.01(2) 0.77(4) 0.981(13)
O33_12 O 1.0000 0.8026(16) 0.0000
H77_4 H 0.99(2) 0.76(3) 0.019(13)
O33_13 O 1.0000 0.8026(16) 1.0000
H80_8 H 0.952404 0.8096 0.989459
O33_14 O 0.1974(16) 0.1974(16) 0.0000
H77_5 H 0.24(3) 0.23(2) 0.019(13)
H80_9 H 0.142804 0.1904 0.0105409
O33_15 O 0.1974(16) 0.1974(16) 1.0000
H78_5 H 0.23(4) 0.24(3) 0.981(13)
H80_10 H 0.1904 0.142804 0.989459
loop_
_geom_bond_atom_site_label_1
_geom_bond_atom_site_label_2
_geom_bond_site_symmetry_1
_geom_bond_site_symmetry_2
Cd8 O7 1_555 1_555
C23 H15 1_555 1_555
C48 C23 1_555 1_555
H30 C53 1_555 1_555
C58 C48 1_555 1_555
O7 C58 1_555 1_555
O15 Cd8 1_555 1_555
C48 C53 1_555 1_555
C58 O15 1_555 1_555
Cd8 N6 1_555 1_555
Cd5 N8 1_555 1_555
Cd6 N7 1_555 1_555
N6 N11 1_555 1_555
N7 N12 1_555 1_555
N8 N13 1_555 1_555
C33 H25 1_555 1_555
C34 H26 1_555 1_555
C35 H27 1_555 1_555
N11 N16 1_555 1_555
N12 N17 1_555 1_555
N13 N18 1_555 1_555
C43 N6 1_555 1_555
C44 N7 1_555 1_555
C45 N8 1_555 1_555
O11 Cd5 1_555 1_555
O12 Cd6 1_555 1_555
O19 Cd5 1_555 1_555
O20 Cd6 1_555 1_555
C63 C43 1_555 1_555
C64 C44 1_555 1_555
C65 C45 1_555 1_555
C68 C63 1_555 1_555
C69 C64 1_555 1_555
C70 C65 1_555 1_555
H35 C68 1_555 1_555
H36 C69 1_555 1_555
H37 C70 1_555 1_555
C78 C33 1_555 1_555
H45 C78 1_555 1_555
C83 C68 1_555 1_555
H50 C83 1_555 1_555
N16 Cd5 1_555 1_555
N17 Cd8 1_555 1_555
N18 Cd6 1_555 1_555
Na2 N11 1_555 1_555
C33 C43 1_555 1_555
C34 C44 1_555 1_555
C35 C45 1_555 1_555
N12 Na2 1_555 1_555
N13 Na2 1_555 1_555
C63 N16 1_555 1_555
C64 N17 1_555 1_555
C65 N18 1_555 1_555
C78 C83 1_555 1_555
H7 C12 1_555 1_555
H8 C13 1_555 1_555
C25 H17 1_555 1_555
C29 H21 1_555 1_555
C30 H22 1_555 1_555
C39 C29 1_555 1_555
C40 C30 1_555 1_555
C50 C25 1_555 1_555
C55 C30 1_555 1_555
H32 C55 1_555 1_555
C60 C50 1_555 1_555
O11 C60 1_555 1_555
C75 C25 1_555 1_555
H41 C74 1_555 1_555
H42 C75 1_555 1_555
C12 C13 1_555 1_555
C39 C40 1_555 1_555
C39 C74 1_555 1_555
C40 C75 1_555 1_555
C50 C55 1_555 1_555
C60 O19 1_555 1_555
C21 H13 1_555 1_555
C46 C21 1_555 1_555
H28 C51 1_555 1_555
C56 C46 1_555 1_555
O12 C56 1_555 1_555
C46 C51 1_555 1_555
C56 O20 1_555 1_555
C27 H19 1_555 1_555
C28 H20 1_555 1_555
C37 C27 1_555 1_555
C38 C28 1_555 1_555
H39 C72 1_555 1_555
H40 C73 1_555 1_555
H44 C77 1_555 1_555
H49 C82 1_555 1_555
C37 C38 1_555 1_555
C37 C72 1_555 1_555
C38 C73 1_555 1_555
C77 C82 1_555 1_555
H46 C79 1_555 1_555
H51 C84 1_555 1_555
C79 C84 1_555 1_555
H47 C80 1_555 1_555
H52 C85 1_555 1_555
C80 C85 1_555 1_555
Cd1 N1 1_555 1_555
C1 H1 1_555 1_555
C2 H2 1_555 1_555
N1 N2 1_555 1_555
C3 H3 1_555 1_555
N2 N3 1_555 1_555
C4 C2 1_555 1_555
C5 N1 1_555 1_555
C6 C1 1_555 1_555
C7 C2 1_555 1_555
H4 C7 1_555 1_555
C8 C6 1_555 1_555
O1 Cd1 1_555 1_555
O2 Cd1 1_555 1_555
C9 C5 1_555 1_555
C10 C9 1_555 1_555
H5 C10 1_555 1_555
C11 C1 1_555 1_555
H6 C11 1_555 1_555
N3 C9 1_555 1_555
O3 Cd1 1_555 1_555
O4 Cd1 1_555 1_555
C14 C15 1_555 1_555
C15 O3 1_555 1_555
C16 C17 1_555 1_555
C17 H9 1_555 1_555
C18 C16 1_555 1_555
H10 C18 1_555 1_555
C19 C14 1_555 1_555
H11 C19 1_555 1_555
C20 C14 1_555 1_555
H12 C20 1_555 1_555
Na1 N2 1_555 1_555
Cd2 N4 1_555 1_555
Cd3 N3 1_555 1_555
C22 H14 1_555 1_555
C24 H16 1_555 1_555
C26 H18 1_555 1_555
N4 N9 1_555 1_555
N5 Cd3 1_555 1_555
C31 H23 1_555 1_555
C32 H24 1_555 1_555
N9 Na1 1_555 1_555
N10 Na1 1_555 1_555
C36 C4 1_555 1_555
C41 N4 1_555 1_555
C42 N5 1_555 1_555
C47 C22 1_555 1_555
C49 C24 1_555 1_555
H29 C52 1_555 1_555
H31 C54 1_555 1_555
C57 C47 1_555 1_555
C59 C49 1_555 1_555
O6 Cd2 1_555 1_555
O8 Cd3 1_555 1_555
O14 Cd2 1_555 1_555
O16 Cd3 1_555 1_555
C61 C41 1_555 1_555
C62 C42 1_555 1_555
C66 C61 1_555 1_555
C67 C62 1_555 1_555
H33 C66 1_555 1_555
H34 C67 1_555 1_555
H38 C71 1_555 1_555
C76 C31 1_555 1_555
H43 C76 1_555 1_555
C81 C66 1_555 1_555
H48 C81 1_555 1_555
N14 Cd1 1_555 1_555
N15 Cd2 1_555 1_555
O22 Na1 1_555 1_555
O24 Na1 1_555 1_555
O27 Cd2 1_555 1_555
O29 Cd3 1_555 1_555
C86 C91 1_555 1_555
C87 C92 1_555 1_555
C88 C93 1_555 1_555
C89 C94 1_555 1_555
C90 C95 1_555 1_555
C91 O21 1_555 1_555
C92 O22 1_555 1_555
C93 O23 1_555 1_555
C94 O24 1_555 1_555
C95 O25 1_555 1_555
C96 C16 1_555 1_555
C97 C98 1_555 1_555
C98 C103 1_555 1_555
C99 C100 1_555 1_555
C100 C105 1_555 1_555
C101 C96 1_555 1_555
C102 C97 1_555 1_555
C103 H55 1_555 1_555
C104 C99 1_555 1_555
C105 H57 1_555 1_555
H53 C101 1_555 1_555
H54 C102 1_555 1_555
H56 C104 1_555 1_555
C106 C96 1_555 1_555
C107 C97 1_555 1_555
C108 C98 1_555 1_555
C109 C99 1_555 1_555
C110 C100 1_555 1_555
H58 C106 1_555 1_555
H59 C107 1_555 1_555
H60 C108 1_555 1_555
H61 C109 1_555 1_555
H62 C110 1_555 1_555
C111 C86 1_555 1_555
C112 C87 1_555 1_555
C113 C88 1_555 1_555
C114 C89 1_555 1_555
C115 C90 1_555 1_555
H63 C111 1_555 1_555
H64 C112 1_555 1_555
H65 C113 1_555 1_555
H66 C114 1_555 1_555
H67 C115 1_555 1_555
C116 C86 1_555 1_555
C117 C87 1_555 1_555
C118 C88 1_555 1_555
C119 C89 1_555 1_555
C120 C90 1_555 1_555
H68 C116 1_555 1_555
H69 C117 1_555 1_555
H70 C118 1_555 1_555
H71 C119 1_555 1_555
H72 C120 1_555 1_555
C3 C5 1_555 1_555
C4 C11 1_555 1_555
C6 C7 1_555 1_555
C8 O1 1_555 1_555
C8 O2 1_555 1_555
O3 Na1 1_555 1_555
O4 C15 1_555 1_555
C17 C19 1_555 1_555
C18 C20 1_555 1_555
Cd2 O22 1_555 1_555
Cd3 O24 1_555 1_555
C26 C36 1_555 1_555
N5 N10 1_555 1_555
C31 C41 1_555 1_555
C32 C42 1_555 1_555
N9 N14 1_555 1_555
N10 N15 1_555 1_555
C36 C71 1_555 1_555
C47 C52 1_555 1_555
C49 C54 1_555 1_555
C57 O6 1_555 1_555
C57 O14 1_555 1_555
C59 O8 1_555 1_555
C59 O16 1_555 1_555
C61 N14 1_555 1_555
C62 N15 1_555 1_555
C76 C81 1_555 1_555
O26 C91 1_555 1_555
O27 C92 1_555 1_555
O28 C93 1_555 1_555
O29 C94 1_555 1_555
O30 C95 1_555 1_555
C101 C111 1_555 1_555
C102 C112 1_555 1_555
C103 C113 1_555 1_555
C104 C114 1_555 1_555
C105 C115 1_555 1_555
C106 C116 1_555 1_555
C107 C117 1_555 1_555
C108 C118 1_555 1_555
C109 C119 1_555 1_555
C110 C120 1_555 1_555
Cd7 O5 1_555 1_555
C21_2 H13_2 1_555 1_555
C46_2 C21_2 1_555 1_555
H28_2 C51_2 1_555 1_555
C56_2 C46_2 1_555 1_555
O5 C56_2 1_555 1_555
O13 Cd7 1_555 1_555
C46_2 C51_2 1_555 1_555
C56_2 O13 1_555 1_555
H7_2 C12_2 1_555 1_555
H8_2 C13_2 1_555 1_555
Cd9 O9 1_555 1_555
C25_2 H17_2 1_555 1_555
C29_2 H21_2 1_555 1_555
C30_2 H22_2 1_555 1_555
C39_2 C29_2 1_555 1_555
C40_2 C30_2 1_555 1_555
C50_2 C25_2 1_555 1_555
C55_2 C30_2 1_555 1_555
H32_2 C55_2 1_555 1_555
C60_2 C50_2 1_555 1_555
O9 C60_2 1_555 1_555
O17 Cd9 1_555 1_555
C75_2 C25_2 1_555 1_555
H41_2 C74_2 1_555 1_555
H42_2 C75_2 1_555 1_555
C12_2 C13_2 1_555 1_555
C39_2 C40_2 1_555 1_555
C39_2 C74_2 1_555 1_555
C40_2 C75_2 1_555 1_555
C50_2 C55_2 1_555 1_555
C60_2 O17 1_555 1_555
C14_2 C15_2 1_555 1_555
C15_2 O3_2 1_555 1_555
C16_2 C17_2 1_555 1_555
C17_2 H9_2 1_555 1_555
C18_2 C16_2 1_555 1_555
H10_2 C18_2 1_555 1_555
C19_2 C14_2 1_555 1_555
H11_2 C19_2 1_555 1_555
C20_2 C14_2 1_555 1_555
H12_2 C20_2 1_555 1_555
Cd4 N6_2 1_555 1_555
Cd9 N8_2 1_555 1_555
Cd7 N7_2 1_555 1_555
N6_2 N11_2 1_555 1_555
N7_2 N12_2 1_555 1_555
N8_2 N13_2 1_555 1_555
C33_2 H25_2 1_555 1_555
C34_2 H26_2 1_555 1_555
C35_2 H27_2 1_555 1_555
N11_2 N16_2 1_555 1_555
N12_2 N17_2 1_555 1_555
N13_2 N18_2 1_555 1_555
C43_2 N6_2 1_555 1_555
C44_2 N7_2 1_555 1_555
C45_2 N8_2 1_555 1_555
O10 Cd4 1_555 1_555
O18 Cd4 1_555 1_555
C63_2 C43_2 1_555 1_555
C64_2 C44_2 1_555 1_555
C65_2 C45_2 1_555 1_555
C68_2 C63_2 1_555 1_555
C69_2 C64_2 1_555 1_555
C70_2 C65_2 1_555 1_555
H35_2 C68_2 1_555 1_555
H36_2 C69_2 1_555 1_555
H37_2 C70_2 1_555 1_555
C78_2 C33_2 1_555 1_555
H45_2 C78_2 1_555 1_555
C83_2 C68_2 1_555 1_555
H50_2 C83_2 1_555 1_555
N16_2 Cd9 1_555 1_555
N17_2 Cd4 1_555 1_555
N18_2 Cd7 1_555 1_555
O21_2 Cd4 1_555 1_555
O23_2 Cd9 1_555 1_555
O25_2 Cd7 1_555 1_555
O26_2 Cd4 1_555 1_555
O28_2 Cd9 1_555 1_555
O30_2 Cd7 1_555 1_555
C86_2 C91_2 1_555 1_555
C87_2 C92_2 1_555 1_555
C88_2 C93_2 1_555 1_555
C89_2 C94_2 1_555 1_555
C90_2 C95_2 1_555 1_555
C91_2 O21_2 1_555 1_555
C92_2 O22_2 1_555 1_555
C93_2 O23_2 1_555 1_555
C94_2 O24_2 1_555 1_555
C95_2 O25_2 1_555 1_555
C96_2 C16_2 1_555 1_555
C97_2 C98_2 1_555 1_555
C98_2 C103_2 1_555 1_555
C99_2 C100_2 1_555 1_555
C100_2 C105_2 1_555 1_555
C101_2 C96_2 1_555 1_555
C102_2 C97_2 1_555 1_555
C103_2 H55_2 1_555 1_555
C104_2 C99_2 1_555 1_555
C105_2 H57_2 1_555 1_555
H53_2 C101_2 1_555 1_555
H54_2 C102_2 1_555 1_555
H56_2 C104_2 1_555 1_555
C106_2 C96_2 1_555 1_555
C107_2 C97_2 1_555 1_555
C108_2 C98_2 1_555 1_555
C109_2 C99_2 1_555 1_555
C110_2 C100_2 1_555 1_555
H58_2 C106_2 1_555 1_555
H59_2 C107_2 1_555 1_555
H60_2 C108_2 1_555 1_555
H61_2 C109_2 1_555 1_555
H62_2 C110_2 1_555 1_555
C111_2 C86_2 1_555 1_555
C112_2 C87_2 1_555 1_555
C113_2 C88_2 1_555 1_555
C114_2 C89_2 1_555 1_555
C115_2 C90_2 1_555 1_555
H63_2 C111_2 1_555 1_555
H64_2 C112_2 1_555 1_555
H65_2 C113_2 1_555 1_555
H66_2 C114_2 1_555 1_555
H67_2 C115_2 1_555 1_555
C116_2 C86_2 1_555 1_555
C117_2 C87_2 1_555 1_555
C118_2 C88_2 1_555 1_555
C119_2 C89_2 1_555 1_555
C120_2 C90_2 1_555 1_555
H68_2 C116_2 1_555 1_555
H69_2 C117_2 1_555 1_555
H70_2 C118_2 1_555 1_555
H71_2 C119_2 1_555 1_555
H72_2 C120_2 1_555 1_555
Na2_2 N11_2 1_555 1_555
O4_2 C15_2 1_555 1_555
C17_2 C19_2 1_555 1_555
C18_2 C20_2 1_555 1_555
C33_2 C43_2 1_555 1_555
C34_2 C44_2 1_555 1_555
C35_2 C45_2 1_555 1_555
N12_2 Na2_2 1_555 1_555
N13_2 Na2_2 1_555 1_555
C63_2 N16_2 1_555 1_555
C64_2 N17_2 1_555 1_555
C65_2 N18_2 1_555 1_555
C78_2 C83_2 1_555 1_555
O21_2 Na2_2 1_555 1_555
O23_2 Na2_2 1_555 1_555
O25_2 Na2_2 1_555 1_555
O26_2 C91_2 1_555 1_555
O27_2 C92_2 1_555 1_555
O28_2 C93_2 1_555 1_555
O29_2 C94_2 1_555 1_555
O30_2 C95_2 1_555 1_555
C101_2 C111_2 1_555 1_555
C102_2 C112_2 1_555 1_555
C103_2 C113_2 1_555 1_555
C104_2 C114_2 1_555 1_555
C105_2 C115_2 1_555 1_555
C106_2 C116_2 1_555 1_555
C107_2 C117_2 1_555 1_555
C108_2 C118_2 1_555 1_555
C109_2 C119_2 1_555 1_555
C110_2 C120_2 1_555 1_555
C23_2 H15_2 1_555 1_555
C48_2 C23_2 1_555 1_555
H30_2 C53_2 1_555 1_555
C58_2 C48_2 1_555 1_555
O10 C58_2 1_555 1_555
C48_2 C53_2 1_555 1_555
C58_2 O18 1_555 1_555
H46_2 C79_2 1_555 1_555
H51_2 C84_2 1_555 1_555
C79_2 C84_2 1_555 1_555
C27_2 H19_2 1_555 1_555
C28_2 H20_2 1_555 1_555
C37_2 C27_2 1_555 1_555
C38_2 C28_2 1_555 1_555
H39_2 C72_2 1_555 1_555
H40_2 C73_2 1_555 1_555
H44_2 C77_2 1_555 1_555
H49_2 C82_2 1_555 1_555
C37_2 C38_2 1_555 1_555
C37_2 C72_2 1_555 1_555
C38_2 C73_2 1_555 1_555
C77_2 C82_2 1_555 1_555
Cd1_2 N1_2 1_555 1_555
C1_2 H1_2 1_555 1_555
C2_2 H2_2 1_555 1_555
N1_2 N2_2 1_555 1_555
C3_2 H3_2 1_555 1_555
N2_2 N3_2 1_555 1_555
C4_2 C2_2 1_555 1_555
C5_2 N1_2 1_555 1_555
C6_2 C1_2 1_555 1_555
C7_2 C2_2 1_555 1_555
H4_2 C7_2 1_555 1_555
C8_2 C6_2 1_555 1_555
O1_2 Cd1_2 1_555 1_555
O2_2 Cd1_2 1_555 1_555
C9_2 C5_2 1_555 1_555
C10_2 C9_2 1_555 1_555
H5_2 C10_2 1_555 1_555
C11_2 C1_2 1_555 1_555
H6_2 C11_2 1_555 1_555
N3_2 C9_2 1_555 1_555
Na1_2 N2_2 1_555 1_555
Cd2_2 N4_2 1_555 1_555
Cd3_2 N3_2 1_555 1_555
C22_2 H14_2 1_555 1_555
C24_2 H16_2 1_555 1_555
C26_2 H18_2 1_555 1_555
N4_2 N9_2 1_555 1_555
N5_2 Cd3_2 1_555 1_555
C31_2 H23_2 1_555 1_555
C32_2 H24_2 1_555 1_555
N9_2 Na1_2 1_555 1_555
N10_2 Na1_2 1_555 1_555
C36_2 C4_2 1_555 1_555
C41_2 N4_2 1_555 1_555
C42_2 N5_2 1_555 1_555
C47_2 C22_2 1_555 1_555
C49_2 C24_2 1_555 1_555
H29_2 C52_2 1_555 1_555
H31_2 C54_2 1_555 1_555
C57_2 C47_2 1_555 1_555
C59_2 C49_2 1_555 1_555
O6_2 Cd2_2 1_555 1_555
O8_2 Cd3_2 1_555 1_555
O14_2 Cd2_2 1_555 1_555
O16_2 Cd3_2 1_555 1_555
C61_2 C41_2 1_555 1_555
C62_2 C42_2 1_555 1_555
C66_2 C61_2 1_555 1_555
C67_2 C62_2 1_555 1_555
H33_2 C66_2 1_555 1_555
H34_2 C67_2 1_555 1_555
H38_2 C71_2 1_555 1_555
C76_2 C31_2 1_555 1_555
H43_2 C76_2 1_555 1_555
C81_2 C66_2 1_555 1_555
H48_2 C81_2 1_555 1_555
N14_2 Cd1_2 1_555 1_555
N15_2 Cd2_2 1_555 1_555
C3_2 C5_2 1_555 1_555
C4_2 C11_2 1_555 1_555
C6_2 C7_2 1_555 1_555
C8_2 O1_2 1_555 1_555
C8_2 O2_2 1_555 1_555
C26_2 C36_2 1_555 1_555
N5_2 N10_2 1_555 1_555
C31_2 C41_2 1_555 1_555
C32_2 C42_2 1_555 1_555
N9_2 N14_2 1_555 1_555
N10_2 N15_2 1_555 1_555
C36_2 C71_2 1_555 1_555
C47_2 C52_2 1_555 1_555
C49_2 C54_2 1_555 1_555
C57_2 O6_2 1_555 1_555
C57_2 O14_2 1_555 1_555
C59_2 O8_2 1_555 1_555
C59_2 O16_2 1_555 1_555
C61_2 N14_2 1_555 1_555
C62_2 N15_2 1_555 1_555
C76_2 C81_2 1_555 1_555
H47_2 C80_2 1_555 1_555
H52_2 C85_2 1_555 1_555
C80_2 C85_2 1_555 1_555
H74 O31_2 1_555 1_555
O31_2 H79 1_555 1_555
O31_3 H73 1_555 1_555
O31_3 H79_2 1_555 1_555
O31_4 H73_2 1_555 1_555
O31_4 H79_3 1_555 1_555
H74_2 O31_5 1_555 1_555
O31_5 H79_4 1_555 1_555
O31_6 H73_3 1_555 1_555
O31_6 H79_5 1_555 1_555
H74_3 O31_7 1_555 1_555
O31_7 H79_6 1_555 1_555
O31_8 H73_4 1_555 1_555
O31_9 H79_7 1_555 1_555
O31_10 H79_8 1_555 1_555
H74_4 O31_11 1_555 1_555
O31_12 H79_9 1_555 1_555
H74_5 O31_13 1_555 1_555
O31_14 H73_5 1_555 1_555
O31_15 H79_10 1_555 1_555
H76 O32 1_555 1_555
O32 H81 1_555 1_555
O32_2 H75 1_555 1_555
O32_2 H81_2 1_555 1_555
O32_3 H75_2 1_555 1_555
O32_3 H81_3 1_555 1_555
H76_2 O32_4 1_555 1_555
O32_4 H81_4 1_555 1_555
O32_6 H81_5 1_555 1_555
O32_7 H75_3 1_555 1_555
H76_3 O32_8 1_555 1_555
O32_9 H81_6 1_555 1_555
H76_4 O32_10 1_555 1_555
O32_11 H81_7 1_555 1_555
O32_12 H81_8 1_555 1_555
O32_13 H75_4 1_555 1_555
H76_5 O32_14 1_555 1_555
O32_14 H81_9 1_555 1_555
O32_15 H75_5 1_555 1_555
O32_15 H81_10 1_555 1_555
H78 O33 1_555 1_555
O33 H80 1_555 1_555
O33_2 H77 1_555 1_555
O33_2 H80_2 1_555 1_555
O33_3 H77_2 1_555 1_555
O33_3 H80_3 1_555 1_555
H78_2 O33_4 1_555 1_555
O33_4 H80_4 1_555 1_555
O33_6 H77_3 1_555 1_555
O33_7 H80_5 1_555 1_555
O33_8 H80_6 1_555 1_555
H78_3 O33_9 1_555 1_555
O33_10 H80_7 1_555 1_555
H78_4 O33_11 1_555 1_555
O33_12 H77_4 1_555 1_555
O33_13 H80_8 1_555 1_555
O33_14 H77_5 1_555 1_555
O33_14 H80_9 1_555 1_555
H78_5 O33_15 1_555 1_555
O33_15 H80_10 1_555 1_555

#END
