
###############################################################################
#
# This file contains modified crystal structure data generated from the
# MOF subset of the Cambridge Structural Database (CSD) v543 
# hosted by the Cambridge Crystallographic Data Centre (CCDC).
#
# This work is licensed under the Creative Commons
# Attribution-NonCommercial-ShareAlike 4.0 International License.
# To view a copy of this license, visit
# http://creativecommons.org/licenses/by-nc-sa/4.0/
# or send a letter to
# Creative Commons, PO Box 1866, Mountain View, CA 94042, USA.
#
# CIF created using the CSD Python API on 29 September 2022
# The structure has been converted into the P1 space group
# The structure has a 3D framework
# The original CSD entry NAVKIH is in the monoclinic crystal system
# The framework has been calculated to contain at least 10.0% void space
# The void calculation uses a probe of radius 1.32A, grid spacing 0.4
#
###############################################################################

data_NAVKIH
_chemical_formula_moiety         '(C232 H120 N32 O44 Sm8)n'
_symmetry_cell_setting           triclinic
_symmetry_space_group_name_H-M   'P 1'
_symmetry_Int_Tables_number      1
_space_group_name_Hall           'P 1'
loop_
_symmetry_equiv_pos_site_id
_symmetry_equiv_pos_as_xyz
1 x,y,z
_cell_length_a                   24.1498(13)
_cell_length_b                   11.2593(6)
_cell_length_c                   20.1289(10)
_cell_angle_alpha                90
_cell_angle_beta                 95.2190(10)
_cell_angle_gamma                90
_cell_volume                     5450.56
loop_
_atom_site_label
_atom_site_type_symbol
_atom_site_fract_x
_atom_site_fract_y
_atom_site_fract_z
Sm2 Sm 0.076533(11) 0.16421(2) 0.792749(13)
C40 C 0.2166(2) 0.1009(5) 0.6353(3)
C41 C 0.2562(2) 0.1814(5) 0.6103(3)
C42 C 0.2608(2) 0.2965(5) 0.6339(3)
C43 C 0.2269(2) 0.3443(5) 0.6817(3)
C44 C 0.2284(2) 0.4619(5) 0.7040(3)
H23 H 0.2539 0.5150 0.6887
C45 C 0.1927(2) 0.4978(5) 0.7478(3)
H24 H 0.1925 0.5765 0.7620
C46 C 0.1561(2) 0.4159(5) 0.7715(3)
H25 H 0.1326 0.4412 0.8027
C47 C 0.1882(2) 0.2661(5) 0.7071(3)
C48 C 0.1833(2) 0.1430(5) 0.6839(3)
C49 C 0.3196(2) 0.2636(5) 0.5580(3)
C50 C 0.3621(2) 0.2868(5) 0.5134(3)
C51 C 0.3715(3) 0.2052(5) 0.4635(3)
H26 H 0.3512 0.1349 0.4603
C52 C 0.4099(2) 0.2265(5) 0.4193(3)
H27 H 0.4151 0.1716 0.3859
C53 C 0.4412(2) 0.3300(5) 0.4241(3)
C54 C 0.4326(3) 0.4114(6) 0.4732(3)
H28 H 0.4533 0.4810 0.4766
C55 C 0.3933(3) 0.3901(5) 0.5175(3)
H29 H 0.3878 0.4456 0.5504
C56 C 0.4839(2) 0.3517(5) 0.3764(3)
N5 N 0.14629(18) 0.0722(4) 0.7120(2)
N6 N 0.15321(19) 0.3018(4) 0.7515(2)
N7 N 0.2929(2) 0.1614(4) 0.5632(2)
N8 N 0.30157(19) 0.3480(4) 0.6009(2)
H30 H 0.3137 0.4196 0.6059
O11 O 0.47221(15) 0.3269(3) 0.31488(17)
O12 O 0.53082(16) 0.3896(4) 0.39709(19)
Sm7 Sm 0.576533(11) 0.33579(2) 0.292749(13)
Sm9 Sm 0.423467(11) 0.33579(2) 0.207251(13)
O14 O 0.02779(15) 0.1731(3) 0.68512(17)
O15 O 0.03082(16) 0.1104(4) 0.89709(19)
O17 O 0.15978(15) 0.0944(3) 0.86844(18)
O18 O 0.12248(17) 0.2672(3) 0.88992(18)
O19 O 0.03927(16) 0.3576(3) 0.7840(2)
C25 C -0.0000 0.7863(7) 0.7500
C28 C 0.0000 0.5417(6) 0.7500
C29 C -0.0000 0.9186(7) 0.7500
C30 C -0.0000 0.4084(7) 0.7500
C35 C 0.0328(3) 0.7253(5) 0.7985(3)
H18 H 0.0549 0.7667 0.8309
C36 C 0.0327(3) 0.6018(5) 0.7985(3)
H19 H 0.0545 0.5601 0.8311
O9 O 0.04304(15) 0.9708(3) 0.77603(19)
C37 C 0.1421(2) 0.9598(5) 0.6917(3)
H20 H 0.1172 0.9102 0.7110
C38 C 0.1734(3) 0.9129(5) 0.6428(3)
H21 H 0.1689 0.8340 0.6298
C39 C 0.2103(2) 0.9831(5) 0.6144(3)
H22 H 0.2311 0.9531 0.5815
C15 C 0.6285(3) 0.2052(5) 0.0365(3)
H7 H 0.6488 0.1349 0.0397
C16 C 0.5901(2) 0.2265(5) 0.0807(3)
H8 H 0.5849 0.1716 0.1141
C17 C 0.5588(2) 0.3300(5) 0.0759(3)
C18 C 0.5674(3) 0.4114(6) 0.0268(3)
H9 H 0.5467 0.4810 0.0234
C20 C 0.5161(2) 0.3517(5) 0.1236(3)
O1 O 0.52779(15) 0.3269(3) 0.18512(17)
O2 O 0.46918(16) 0.3896(4) 0.10291(19)
Sm1 Sm 0.923467(11) 0.16421(2) 0.707251(13)
C4 C 0.7834(2) 0.1009(5) 0.8647(3)
C5 C 0.7438(2) 0.1814(5) 0.8897(3)
C6 C 0.7392(2) 0.2965(5) 0.8661(3)
C7 C 0.7731(2) 0.3443(5) 0.8183(3)
C8 C 0.7716(2) 0.4619(5) 0.7960(3)
H4 H 0.7461 0.5150 0.8113
C9 C 0.8073(2) 0.4978(5) 0.7522(3)
H5 H 0.8075 0.5765 0.7380
C10 C 0.8439(2) 0.4159(5) 0.7285(3)
H6 H 0.8674 0.4412 0.6973
C11 C 0.8118(2) 0.2661(5) 0.7929(3)
C12 C 0.8167(2) 0.1430(5) 0.8161(3)
C13 C 0.6804(2) 0.2636(5) 0.9420(3)
C14 C 0.6379(2) 0.2868(5) 0.9866(3)
C19 C 0.6067(3) 0.3901(5) 0.9825(3)
H10 H 0.6122 0.4456 0.9496
C21 C 0.7573(2) 0.3381(5) 0.4536(3)
H11 H 0.7623 0.3971 0.4224
C22 C 0.8008(3) 0.3068(5) 0.4999(3)
H12 H 0.8350 0.3451 0.4999
C23 C 0.7936(2) 0.2188(5) 0.5462(3)
C24 C 0.8400(2) 0.1914(5) 0.5982(3)
N1 N 0.85371(18) 0.0722(4) 0.7880(2)
N2 N 0.84679(19) 0.3018(4) 0.7485(2)
N3 N 0.7071(2) 0.1614(4) 0.9368(2)
N4 N 0.69843(19) 0.3480(4) 0.8991(2)
H15 H 0.6863 0.4196 0.8941
O3 O 0.84022(15) 0.0944(3) 0.63156(18)
O4 O 0.87752(17) 0.2672(3) 0.61008(18)
C31 C 0.7427(2) 0.1619(5) 0.5464(3)
H16 H 0.7377 0.1029 0.5776
C32 C 0.6992(3) 0.1932(5) 0.5001(3)
H17 H 0.6650 0.1549 0.5001
C33 C 0.7064(2) 0.2812(5) 0.4538(3)
C34 C 0.6600(2) 0.3086(5) 0.4018(3)
O7 O 0.65978(15) 0.4056(3) 0.36844(18)
O8 O 0.62248(17) 0.2328(3) 0.38992(18)
O13 O 0.97221(15) 0.1731(3) 0.81488(17)
O16 O 0.96918(16) 0.1104(4) 0.60291(19)
O20 O 0.96073(16) 0.3576(3) 0.7160(2)
C1 C 0.8579(2) 0.9598(5) 0.8083(3)
H1 H 0.8828 0.9102 0.7890
C2 C 0.8266(3) 0.9129(5) 0.8572(3)
H2 H 0.8311 0.8340 0.8702
C3 C 0.7897(2) 0.9831(5) 0.8856(3)
H3 H 0.7689 0.9531 0.9185
C25_2 C 1.0000 0.7863(7) 0.7500
C26 C 0.9672(3) 0.7253(5) 0.7015(3)
H13 H 0.9451 0.7667 0.6691
C27 C 0.9673(3) 0.6018(5) 0.7015(3)
H14 H 0.9455 0.5601 0.6689
C28_2 C 1.0000 0.5417(6) 0.7500
C29_2 C 1.0000 0.9186(7) 0.7500
C30_2 C 1.0000 0.4084(7) 0.7500
O5 O 0.95696(15) 0.9708(3) 0.72397(19)
C21_2 C 0.2427(2) 0.3381(5) 0.0464(3)
H11_2 H 0.2377 0.3971 0.0776
C22_2 C 0.1992(3) 0.3068(5) 0.0001(3)
H12_2 H 0.1650 0.3451 0.0001
C33_2 C 0.2936(2) 0.2812(5) 0.0462(3)
C34_2 C 0.3400(2) 0.3086(5) 0.0982(3)
O7_2 O 0.34022(15) 0.4056(3) 0.13156(18)
O8_2 O 0.37752(17) 0.2328(3) 0.11008(18)
C23_2 C 0.2064(2) 0.2188(5) 0.9538(3)
C24_2 C 0.1600(2) 0.1914(5) 0.9018(3)
C31_2 C 0.2573(2) 0.1619(5) 0.9536(3)
H16_2 H 0.2623 0.1029 0.9224
C32_2 C 0.3008(3) 0.1932(5) 0.9999(3)
H17_2 H 0.3350 0.1549 0.9999
C30_3 C 0.5000 0.0916(7) 0.2500
O6 O 0.46073(16) 0.1424(3) 0.2160(2)
O10 O 0.53927(16) 0.1424(3) 0.2840(2)
C1_2 C 0.6421(2) 0.5402(5) 0.1917(3)
H1_2 H 0.6172 0.5898 0.2110
C2_2 C 0.6734(3) 0.5871(5) 0.1428(3)
H2_2 H 0.6689 0.6660 0.1298
C3_2 C 0.7103(2) 0.5169(5) 0.1144(3)
H3_2 H 0.7311 0.5469 0.0815
C4_2 C 0.7166(2) 0.3991(5) 0.1353(3)
C5_2 C 0.7562(2) 0.3186(5) 0.1103(3)
C6_2 C 0.7608(2) 0.2035(5) 0.1339(3)
C7_2 C 0.7269(2) 0.1557(5) 0.1817(3)
C8_2 C 0.7284(2) 0.0381(5) 0.2040(3)
C9_2 C 0.6927(2) 0.0022(5) 0.2478(3)
C10_2 C 0.6561(2) 0.0841(5) 0.2715(3)
H6_2 H 0.6326 0.0588 0.3027
C11_2 C 0.6882(2) 0.2339(5) 0.2071(3)
C12_2 C 0.6833(2) 0.3570(5) 0.1839(3)
C13_2 C 0.8196(2) 0.2364(5) 0.0580(3)
C14_2 C 0.8621(2) 0.2132(5) 0.0134(3)
C19_2 C 0.8933(3) 0.1099(5) 0.0175(3)
H10_2 H 0.8878 0.0544 0.0504
C25_3 C 0.5000 0.7137(7) 0.2500
C26_2 C 0.5328(3) 0.7747(5) 0.2985(3)
H13_2 H 0.5549 0.7333 0.3309
C27_2 C 0.5327(3) 0.8982(5) 0.2985(3)
H14_2 H 0.5545 0.9399 0.3311
C28_3 C 0.5000 0.9583(6) 0.2500
C29_3 C 0.5000 0.5814(7) 0.2500
N1_2 N 0.64629(18) 0.4278(4) 0.2120(2)
N2_2 N 0.65321(19) 0.1982(4) 0.2515(2)
N3_2 N 0.7929(2) 0.3386(4) 0.0632(2)
N4_2 N 0.80157(19) 0.1520(4) 0.1009(2)
H15_2 H 0.8137 0.0804 0.1059
O5_2 O 0.54304(15) 0.5292(3) 0.27603(19)
C35_2 C 0.4672(3) 0.7747(5) 0.2015(3)
H18_2 H 0.4451 0.7333 0.1691
C36_2 C 0.4673(3) 0.8982(5) 0.2015(3)
H19_2 H 0.4455 0.9399 0.1689
O9_2 O 0.45696(15) 0.5292(3) 0.22397(19)
C37_2 C 0.3579(2) 0.5402(5) 0.3083(3)
H20_2 H 0.3828 0.5898 0.2890
C38_2 C 0.3266(3) 0.5871(5) 0.3572(3)
H21_2 H 0.3311 0.6660 0.3702
C39_2 C 0.2897(2) 0.5169(5) 0.3856(3)
H22_2 H 0.2689 0.5469 0.4185
C40_2 C 0.2834(2) 0.3991(5) 0.3647(3)
C41_2 C 0.2438(2) 0.3186(5) 0.3897(3)
C42_2 C 0.2392(2) 0.2035(5) 0.3661(3)
C43_2 C 0.2731(2) 0.1557(5) 0.3183(3)
C44_2 C 0.2716(2) 0.0381(5) 0.2960(3)
C45_2 C 0.3073(2) 0.0022(5) 0.2522(3)
C46_2 C 0.3439(2) 0.0841(5) 0.2285(3)
H25_2 H 0.3674 0.0588 0.1973
C47_2 C 0.3118(2) 0.2339(5) 0.2929(3)
C48_2 C 0.3167(2) 0.3570(5) 0.3161(3)
C49_2 C 0.1804(2) 0.2364(5) 0.4420(3)
C50_2 C 0.1379(2) 0.2132(5) 0.4866(3)
C51_2 C 0.1285(3) 0.2948(5) 0.5365(3)
H26_2 H 0.1488 0.3651 0.5397
C52_2 C 0.0901(2) 0.2735(5) 0.5807(3)
H27_2 H 0.0849 0.3284 0.6141
C53_2 C 0.0588(2) 0.1700(5) 0.5759(3)
C54_2 C 0.0674(3) 0.0886(6) 0.5268(3)
H28_2 H 0.0467 0.0190 0.5234
C55_2 C 0.1067(3) 0.1099(5) 0.4825(3)
H29_2 H 0.1122 0.0544 0.4496
C56_2 C 0.0161(2) 0.1483(5) 0.6236(3)
N5_2 N 0.35371(18) 0.4278(4) 0.2880(2)
N6_2 N 0.34679(19) 0.1982(4) 0.2485(2)
N7_2 N 0.2071(2) 0.3386(4) 0.4368(2)
N8_2 N 0.19843(19) 0.1520(4) 0.3991(2)
H30_2 H 0.1863 0.0804 0.3941
C15_2 C 0.8715(3) 0.2948(5) 0.9635(3)
H7_2 H 0.8512 0.3651 0.9603
C16_2 C 0.9099(2) 0.2735(5) 0.9193(3)
H8_2 H 0.9151 0.3284 0.8859
C17_2 C 0.9412(2) 0.1700(5) 0.9241(3)
C18_2 C 0.9326(3) 0.0886(6) 0.9732(3)
H9_2 H 0.9533 0.0190 0.9766
C20_2 C 0.9839(2) 0.1483(5) 0.8764(3)
O12_2 O 0.03082(16) 0.8896(4) 0.39709(19)
Sm7_2 Sm 0.076533(11) 0.83579(2) 0.292749(13)
C15_3 C 0.1285(3) 0.7052(5) 0.0365(3)
H7_3 H 0.1488 0.6349 0.0397
C16_3 C 0.0901(2) 0.7265(5) 0.0807(3)
H8_3 H 0.0849 0.6716 0.1141
C17_3 C 0.0588(2) 0.8300(5) 0.0759(3)
C18_3 C 0.0674(3) 0.9114(6) 0.0268(3)
H9_3 H 0.0467 0.9810 0.0234
C20_3 C 0.0161(2) 0.8517(5) 0.1236(3)
O1_2 O 0.02779(15) 0.8269(3) 0.18512(17)
Sm1_2 Sm 0.423467(11) 0.66421(2) 0.707251(13)
C1_3 C 0.3579(2) 0.4598(5) 0.8083(3)
H1_3 H 0.3828 0.4102 0.7890
C2_3 C 0.3266(3) 0.4129(5) 0.8572(3)
H2_3 H 0.3311 0.3340 0.8702
C3_3 C 0.2897(2) 0.4831(5) 0.8856(3)
H3_3 H 0.2689 0.4531 0.9185
C4_3 C 0.2834(2) 0.6009(5) 0.8647(3)
C5_3 C 0.2438(2) 0.6814(5) 0.8897(3)
C6_3 C 0.2392(2) 0.7965(5) 0.8661(3)
C7_3 C 0.2731(2) 0.8443(5) 0.8183(3)
C8_3 C 0.2716(2) 0.9619(5) 0.7960(3)
C9_3 C 0.3073(2) 0.9978(5) 0.7522(3)
C10_3 C 0.3439(2) 0.9159(5) 0.7285(3)
H6_3 H 0.3674 0.9412 0.6973
C11_3 C 0.3118(2) 0.7661(5) 0.7929(3)
C12_3 C 0.3167(2) 0.6430(5) 0.8161(3)
C13_3 C 0.1804(2) 0.7636(5) 0.9420(3)
C14_3 C 0.1379(2) 0.7868(5) 0.9866(3)
C19_3 C 0.1067(3) 0.8901(5) 0.9825(3)
H10_3 H 0.1122 0.9456 0.9496
C21_3 C 0.2573(2) 0.8381(5) 0.4536(3)
H11_3 H 0.2623 0.8971 0.4224
C22_3 C 0.3008(3) 0.8068(5) 0.4999(3)
H12_3 H 0.3350 0.8451 0.4999
C23_3 C 0.2936(2) 0.7188(5) 0.5462(3)
C24_3 C 0.3400(2) 0.6914(5) 0.5982(3)
C25_4 C 0.5000 0.2863(7) 0.7500
C26_3 C 0.4672(3) 0.2253(5) 0.7015(3)
H13_3 H 0.4451 0.2667 0.6691
C27_3 C 0.4673(3) 0.1018(5) 0.7015(3)
H14_3 H 0.4455 0.0601 0.6689
C28_4 C 0.5000 0.0417(6) 0.7500
C29_4 C 0.5000 0.4186(7) 0.7500
N1_3 N 0.35371(18) 0.5722(4) 0.7880(2)
N2_3 N 0.34679(19) 0.8018(4) 0.7485(2)
N3_3 N 0.2071(2) 0.6614(4) 0.9368(2)
N4_3 N 0.19843(19) 0.8480(4) 0.8991(2)
H15_3 H 0.1863 0.9196 0.8941
O3_2 O 0.34022(15) 0.5944(3) 0.63156(18)
O4_2 O 0.37752(17) 0.7672(3) 0.61008(18)
O5_3 O 0.45696(15) 0.4708(3) 0.72397(19)
C31_3 C 0.2427(2) 0.6619(5) 0.5464(3)
H16_3 H 0.2377 0.6029 0.5776
C32_3 C 0.1992(3) 0.6932(5) 0.5001(3)
H17_3 H 0.1650 0.6549 0.5001
C33_3 C 0.2064(2) 0.7812(5) 0.4538(3)
C34_3 C 0.1600(2) 0.8086(5) 0.4018(3)
O7_3 O 0.15978(15) 0.9056(3) 0.36844(18)
O8_3 O 0.12248(17) 0.7328(3) 0.38992(18)
C35_3 C 0.5328(3) 0.2253(5) 0.7985(3)
H18_3 H 0.5549 0.2667 0.8309
C36_3 C 0.5327(3) 0.1018(5) 0.7985(3)
H19_3 H 0.5545 0.0601 0.8311
O9_3 O 0.54304(15) 0.4708(3) 0.77603(19)
Sm2_2 Sm 0.576533(11) 0.66421(2) 0.792749(13)
C37_3 C 0.6421(2) 0.4598(5) 0.6917(3)
H20_3 H 0.6172 0.4102 0.7110
C38_3 C 0.6734(3) 0.4129(5) 0.6428(3)
H21_3 H 0.6689 0.3340 0.6298
C39_3 C 0.7103(2) 0.4831(5) 0.6144(3)
H22_3 H 0.7311 0.4531 0.5815
C40_3 C 0.7166(2) 0.6009(5) 0.6353(3)
C41_3 C 0.7562(2) 0.6814(5) 0.6103(3)
C42_3 C 0.7608(2) 0.7965(5) 0.6339(3)
C43_3 C 0.7269(2) 0.8443(5) 0.6817(3)
C44_3 C 0.7284(2) 0.9619(5) 0.7040(3)
C45_3 C 0.6927(2) 0.9978(5) 0.7478(3)
C46_3 C 0.6561(2) 0.9159(5) 0.7715(3)
H25_3 H 0.6326 0.9412 0.8027
C47_3 C 0.6882(2) 0.7661(5) 0.7071(3)
C48_3 C 0.6833(2) 0.6430(5) 0.6839(3)
C49_3 C 0.8196(2) 0.7636(5) 0.5580(3)
C50_3 C 0.8621(2) 0.7868(5) 0.5134(3)
C51_3 C 0.8715(3) 0.7052(5) 0.4635(3)
H26_3 H 0.8512 0.6349 0.4603
C52_3 C 0.9099(2) 0.7265(5) 0.4193(3)
H27_3 H 0.9151 0.6716 0.3859
C53_3 C 0.9412(2) 0.8300(5) 0.4241(3)
C54_3 C 0.9326(3) 0.9114(6) 0.4732(3)
H28_3 H 0.9533 0.9810 0.4766
C55_3 C 0.8933(3) 0.8901(5) 0.5175(3)
H29_3 H 0.8878 0.9456 0.5504
C56_3 C 0.9839(2) 0.8517(5) 0.3764(3)
N5_3 N 0.64629(18) 0.5722(4) 0.7120(2)
N6_3 N 0.65321(19) 0.8018(4) 0.7515(2)
N7_3 N 0.7929(2) 0.6614(4) 0.5632(2)
N8_3 N 0.80157(19) 0.8480(4) 0.6009(2)
H30_3 H 0.8137 0.9196 0.6059
O11_2 O 0.97221(15) 0.8269(3) 0.31488(17)
Sm9_2 Sm 0.923467(11) 0.83579(2) 0.207251(13)
O13_2 O 0.47221(15) 0.6731(3) 0.81488(17)
O14_2 O 0.52779(15) 0.6731(3) 0.68512(17)
O15_2 O 0.53082(16) 0.6104(4) 0.89709(19)
O16_2 O 0.46918(16) 0.6104(4) 0.60291(19)
O17_2 O 0.65978(15) 0.5944(3) 0.86844(18)
O18_2 O 0.62248(17) 0.7672(3) 0.88992(18)
O19_2 O 0.53927(16) 0.8576(3) 0.7840(2)
O20_2 O 0.46073(16) 0.8576(3) 0.7160(2)
C30_4 C 0.5000 0.9084(7) 0.7500
O2_2 O 0.96918(16) 0.8896(4) 0.10291(19)
C21_4 C 0.7427(2) 0.8381(5) 0.0464(3)
H11_4 H 0.7377 0.8971 0.0776
C22_4 C 0.6992(3) 0.8068(5) 0.0001(3)
H12_4 H 0.6650 0.8451 0.0001
C33_4 C 0.7936(2) 0.7812(5) 0.0462(3)
C34_4 C 0.8400(2) 0.8086(5) 0.0982(3)
O7_4 O 0.84022(15) 0.9056(3) 0.13156(18)
O8_4 O 0.87752(17) 0.7328(3) 0.11008(18)
C23_4 C 0.7064(2) 0.7188(5) 0.9538(3)
C24_4 C 0.6600(2) 0.6914(5) 0.9018(3)
C31_4 C 0.7573(2) 0.6619(5) 0.9536(3)
H16_4 H 0.7623 0.6029 0.9224
C32_4 C 0.8008(3) 0.6932(5) 0.9999(3)
H17_4 H 0.8350 0.6549 0.9999
C1_4 C 0.1421(2) 0.0402(5) 0.1917(3)
H1_4 H 0.1172 0.0898 0.2110
C2_4 C 0.1734(3) 0.0871(5) 0.1428(3)
H2_4 H 0.1689 0.1660 0.1298
C3_4 C 0.2103(2) 0.0169(5) 0.1144(3)
H3_4 H 0.2311 0.0469 0.0815
C25_5 C 0.0000 0.2137(7) 0.2500
C26_4 C 0.0328(3) 0.2747(5) 0.2985(3)
H13_4 H 0.0549 0.2333 0.3309
C27_4 C 0.0327(3) 0.3982(5) 0.2985(3)
H14_4 H 0.0545 0.4399 0.3311
C28_5 C 0.0000 0.4583(6) 0.2500
C29_5 C 0.0000 0.0814(7) 0.2500
C30_5 C 0.0000 0.5916(7) 0.2500
O5_4 O 0.04304(15) 0.0292(3) 0.27603(19)
O10_2 O 0.03927(16) 0.6424(3) 0.2840(2)
C4_4 C 0.2166(2) 0.8991(5) 0.1353(3)
C5_4 C 0.2562(2) 0.8186(5) 0.1103(3)
C6_4 C 0.2608(2) 0.7035(5) 0.1339(3)
C7_4 C 0.2269(2) 0.6557(5) 0.1817(3)
C8_4 C 0.2284(2) 0.5381(5) 0.2040(3)
H4_2 H 0.2539 0.4850 0.1887
C9_4 C 0.1927(2) 0.5022(5) 0.2478(3)
H5_2 H 0.1925 0.4235 0.2620
C10_4 C 0.1561(2) 0.5841(5) 0.2715(3)
H6_4 H 0.1326 0.5588 0.3027
C11_4 C 0.1882(2) 0.7339(5) 0.2071(3)
C12_4 C 0.1833(2) 0.8570(5) 0.1839(3)
C13_4 C 0.3196(2) 0.7364(5) 0.0580(3)
C14_4 C 0.3621(2) 0.7132(5) 0.0134(3)
C19_4 C 0.3933(3) 0.6099(5) 0.0175(3)
H10_4 H 0.3878 0.5544 0.0504
N1_4 N 0.14629(18) 0.9278(4) 0.2120(2)
N2_4 N 0.15321(19) 0.6982(4) 0.2515(2)
N3_4 N 0.2929(2) 0.8386(4) 0.0632(2)
N4_4 N 0.30157(19) 0.6520(4) 0.1009(2)
H15_4 H 0.3137 0.5804 0.1059
C15_4 C 0.3715(3) 0.7948(5) 0.9635(3)
H7_4 H 0.3512 0.8651 0.9603
C16_4 C 0.4099(2) 0.7735(5) 0.9193(3)
H8_4 H 0.4151 0.8284 0.8859
C17_4 C 0.4412(2) 0.6700(5) 0.9241(3)
C18_4 C 0.4326(3) 0.5886(6) 0.9732(3)
H9_4 H 0.4533 0.5190 0.9766
C20_4 C 0.4839(2) 0.6483(5) 0.8764(3)
C25_6 C 1.0000 0.2137(7) 0.2500
C28_6 C 1.0000 0.4583(6) 0.2500
C29_6 C 1.0000 0.0814(7) 0.2500
C30_6 C 1.0000 0.5916(7) 0.2500
O6_2 O 0.96073(16) 0.6424(3) 0.2160(2)
C35_4 C 0.9672(3) 0.2747(5) 0.2015(3)
H18_4 H 0.9451 0.2333 0.1691
C36_4 C 0.9673(3) 0.3982(5) 0.2015(3)
H19_4 H 0.9455 0.4399 0.1689
O9_4 O 0.95696(15) 0.0292(3) 0.22397(19)
C37_4 C 0.8579(2) 0.0402(5) 0.3083(3)
H20_4 H 0.8828 0.0898 0.2890
C38_4 C 0.8266(3) 0.0871(5) 0.3572(3)
H21_4 H 0.8311 0.1660 0.3702
C39_4 C 0.7897(2) 0.0169(5) 0.3856(3)
H22_4 H 0.7689 0.0469 0.4185
C40_4 C 0.7834(2) 0.8991(5) 0.3647(3)
C41_4 C 0.7438(2) 0.8186(5) 0.3897(3)
C42_4 C 0.7392(2) 0.7035(5) 0.3661(3)
C43_4 C 0.7731(2) 0.6557(5) 0.3183(3)
C44_4 C 0.7716(2) 0.5381(5) 0.2960(3)
H23_2 H 0.7461 0.4850 0.3113
C45_4 C 0.8073(2) 0.5022(5) 0.2522(3)
H24_2 H 0.8075 0.4235 0.2380
C46_4 C 0.8439(2) 0.5841(5) 0.2285(3)
H25_4 H 0.8674 0.5588 0.1973
C47_4 C 0.8118(2) 0.7339(5) 0.2929(3)
C48_4 C 0.8167(2) 0.8570(5) 0.3161(3)
C49_4 C 0.6804(2) 0.7364(5) 0.4420(3)
C50_4 C 0.6379(2) 0.7132(5) 0.4866(3)
C51_4 C 0.6285(3) 0.7948(5) 0.5365(3)
H26_4 H 0.6488 0.8651 0.5397
C52_4 C 0.5901(2) 0.7735(5) 0.5807(3)
H27_4 H 0.5849 0.8284 0.6141
C53_4 C 0.5588(2) 0.6700(5) 0.5759(3)
C54_4 C 0.5674(3) 0.5886(6) 0.5268(3)
H28_4 H 0.5467 0.5190 0.5234
C55_4 C 0.6067(3) 0.6099(5) 0.4825(3)
H29_4 H 0.6122 0.5544 0.4496
C56_4 C 0.5161(2) 0.6483(5) 0.6236(3)
N5_4 N 0.85371(18) 0.9278(4) 0.2880(2)
N6_4 N 0.84679(19) 0.6982(4) 0.2485(2)
N7_4 N 0.7071(2) 0.8386(4) 0.4368(2)
N8_4 N 0.69843(19) 0.6520(4) 0.3991(2)
H30_4 H 0.6863 0.5804 0.3941
H4_3 H 0.2461 0.0150 0.8113
H5_3 H 0.3075 0.0765 0.7380
H23_3 H 0.7539 0.0150 0.6887
H24_3 H 0.6925 0.0765 0.7620
H4_4 H 0.7539 0.9850 0.1887
H5_4 H 0.6925 0.9235 0.2620
H23_4 H 0.2461 0.9850 0.3113
H24_4 H 0.3075 0.9235 0.2380
loop_
_geom_bond_atom_site_label_1
_geom_bond_atom_site_label_2
_geom_bond_site_symmetry_1
_geom_bond_site_symmetry_2
C41 C40 1_555 1_555
C42 C41 1_555 1_555
C43 C42 1_555 1_555
C44 C43 1_555 1_555
H23 C44 1_555 1_555
C45 C44 1_555 1_555
H24 C45 1_555 1_555
C46 C45 1_555 1_555
H25 C46 1_555 1_555
C47 C43 1_555 1_555
C48 C40 1_555 1_555
C49 C50 1_555 1_555
C50 C51 1_555 1_555
C51 H26 1_555 1_555
C52 C51 1_555 1_555
H27 C52 1_555 1_555
C53 C52 1_555 1_555
C54 C53 1_555 1_555
H28 C54 1_555 1_555
C55 C50 1_555 1_555
H29 C55 1_555 1_555
C56 C53 1_555 1_555
N5 Sm2 1_555 1_555
N6 Sm2 1_555 1_555
N7 C41 1_555 1_555
N8 C42 1_555 1_555
H30 N8 1_555 1_555
O11 C56 1_555 1_555
O12 C56 1_555 1_555
Sm7 O11 1_555 1_555
Sm9 O11 1_555 1_555
O15 Sm2 1_555 1_555
O17 Sm2 1_555 1_555
O18 Sm2 1_555 1_555
O19 Sm2 1_555 1_555
Sm2 O14 1_555 1_555
C46 N6 1_555 1_555
C47 C48 1_555 1_555
C47 N6 1_555 1_555
C48 N5 1_555 1_555
C49 N7 1_555 1_555
C49 N8 1_555 1_555
C54 C55 1_555 1_555
O12 Sm7 1_555 1_555
C29 C25 1_555 1_555
C30 C28 1_555 1_555
O19 C30 1_555 1_555
C35 C25 1_555 1_555
H18 C35 1_555 1_555
C36 C28 1_555 1_555
H19 C36 1_555 1_555
O9 C29 1_555 1_555
C37 H20 1_555 1_555
C38 C37 1_555 1_555
H21 C38 1_555 1_555
C39 C38 1_555 1_555
H22 C39 1_555 1_555
C35 C36 1_555 1_555
C15 H7 1_555 1_555
C16 C15 1_555 1_555
H8 C16 1_555 1_555
C17 C16 1_555 1_555
C18 C17 1_555 1_555
H9 C18 1_555 1_555
C20 C17 1_555 1_555
O1 C20 1_555 1_555
O2 C20 1_555 1_555
Sm7 O1 1_555 1_555
Sm9 O1 1_555 1_555
O2 Sm9 1_555 1_555
Sm1 N1 1_555 1_555
C5 C4 1_555 1_555
C6 C5 1_555 1_555
C7 C6 1_555 1_555
C8 C7 1_555 1_555
H4 C8 1_555 1_555
C9 C8 1_555 1_555
H5 C9 1_555 1_555
C10 C9 1_555 1_555
H6 C10 1_555 1_555
C11 C7 1_555 1_555
C12 C4 1_555 1_555
C13 C14 1_555 1_555
C19 C14 1_555 1_555
H10 C19 1_555 1_555
C21 H11 1_555 1_555
C22 C21 1_555 1_555
H12 C22 1_555 1_555
C23 C22 1_555 1_555
C24 C23 1_555 1_555
N2 Sm1 1_555 1_555
N3 C5 1_555 1_555
N4 C6 1_555 1_555
H15 N4 1_555 1_555
O3 Sm1 1_555 1_555
O4 Sm1 1_555 1_555
C31 C23 1_555 1_555
H16 C31 1_555 1_555
C32 C31 1_555 1_555
H17 C32 1_555 1_555
C33 C21 1_555 1_555
C34 C33 1_555 1_555
O7 C34 1_555 1_555
O8 C34 1_555 1_555
Sm7 O7 1_555 1_555
O13 Sm1 1_555 1_555
O16 Sm1 1_555 1_555
O20 Sm1 1_555 1_555
C10 N2 1_555 1_555
C11 C12 1_555 1_555
C11 N2 1_555 1_555
C12 N1 1_555 1_555
C13 N3 1_555 1_555
C13 N4 1_555 1_555
C24 O3 1_555 1_555
C24 O4 1_555 1_555
C32 C33 1_555 1_555
O8 Sm7 1_555 1_555
C1 H1 1_555 1_555
C2 C1 1_555 1_555
H2 C2 1_555 1_555
C3 C2 1_555 1_555
H3 C3 1_555 1_555
C25_2 C26 1_555 1_555
C26 H13 1_555 1_555
C27 C26 1_555 1_555
H14 C27 1_555 1_555
C28_2 C27 1_555 1_555
C29_2 C25_2 1_555 1_555
C30_2 C28_2 1_555 1_555
O20 C30_2 1_555 1_555
C29_2 O5 1_555 1_555
C21_2 H11_2 1_555 1_555
C22_2 C21_2 1_555 1_555
H12_2 C22_2 1_555 1_555
C33_2 C21_2 1_555 1_555
C34_2 C33_2 1_555 1_555
O7_2 C34_2 1_555 1_555
O8_2 C34_2 1_555 1_555
Sm9 O7_2 1_555 1_555
O8_2 Sm9 1_555 1_555
C24_2 C23_2 1_555 1_555
C31_2 C23_2 1_555 1_555
H16_2 C31_2 1_555 1_555
C32_2 C31_2 1_555 1_555
H17_2 C32_2 1_555 1_555
C24_2 O17 1_555 1_555
C24_2 O18 1_555 1_555
O6 C30_3 1_555 1_555
O10 C30_3 1_555 1_555
Sm7 O10 1_555 1_555
Sm9 O6 1_555 1_555
Sm7 N1_2 1_555 1_555
C1_2 H1_2 1_555 1_555
C2_2 C1_2 1_555 1_555
H2_2 C2_2 1_555 1_555
C3_2 C2_2 1_555 1_555
H3_2 C3_2 1_555 1_555
C4_2 C3_2 1_555 1_555
C5_2 C4_2 1_555 1_555
C6_2 C5_2 1_555 1_555
C7_2 C6_2 1_555 1_555
C8_2 C7_2 1_555 1_555
C9_2 C8_2 1_555 1_555
C10_2 C9_2 1_555 1_555
H6_2 C10_2 1_555 1_555
C11_2 C7_2 1_555 1_555
C12_2 C4_2 1_555 1_555
C13_2 C14_2 1_555 1_555
C19_2 C14_2 1_555 1_555
H10_2 C19_2 1_555 1_555
C25_3 C26_2 1_555 1_555
C26_2 H13_2 1_555 1_555
C27_2 C26_2 1_555 1_555
H14_2 C27_2 1_555 1_555
C28_3 C27_2 1_555 1_555
C29_3 C25_3 1_555 1_555
N1_2 C1_2 1_555 1_555
N2_2 Sm7 1_555 1_555
N3_2 C5_2 1_555 1_555
N4_2 C6_2 1_555 1_555
H15_2 N4_2 1_555 1_555
O5_2 Sm7 1_555 1_555
C35_2 C25_3 1_555 1_555
H18_2 C35_2 1_555 1_555
C36_2 C28_3 1_555 1_555
H19_2 C36_2 1_555 1_555
O9_2 C29_3 1_555 1_555
Sm9 O9_2 1_555 1_555
C37_2 H20_2 1_555 1_555
C38_2 C37_2 1_555 1_555
H21_2 C38_2 1_555 1_555
C39_2 C38_2 1_555 1_555
H22_2 C39_2 1_555 1_555
C40_2 C39_2 1_555 1_555
C41_2 C40_2 1_555 1_555
C42_2 C41_2 1_555 1_555
C43_2 C42_2 1_555 1_555
C44_2 C43_2 1_555 1_555
C45_2 C44_2 1_555 1_555
C46_2 C45_2 1_555 1_555
H25_2 C46_2 1_555 1_555
C47_2 C43_2 1_555 1_555
C48_2 C40_2 1_555 1_555
C49_2 C50_2 1_555 1_555
C50_2 C51_2 1_555 1_555
C51_2 H26_2 1_555 1_555
C52_2 C51_2 1_555 1_555
H27_2 C52_2 1_555 1_555
C53_2 C52_2 1_555 1_555
C54_2 C53_2 1_555 1_555
H28_2 C54_2 1_555 1_555
C55_2 C50_2 1_555 1_555
H29_2 C55_2 1_555 1_555
C56_2 C53_2 1_555 1_555
N5_2 Sm9 1_555 1_555
N6_2 Sm9 1_555 1_555
N7_2 C41_2 1_555 1_555
N8_2 C42_2 1_555 1_555
H30_2 N8_2 1_555 1_555
O14 C56_2 1_555 1_555
C10_2 N2_2 1_555 1_555
C11_2 C12_2 1_555 1_555
C11_2 N2_2 1_555 1_555
C12_2 N1_2 1_555 1_555
C13_2 N3_2 1_555 1_555
C13_2 N4_2 1_555 1_555
C29_3 O5_2 1_555 1_555
C35_2 C36_2 1_555 1_555
C37_2 N5_2 1_555 1_555
C46_2 N6_2 1_555 1_555
C47_2 C48_2 1_555 1_555
C47_2 N6_2 1_555 1_555
C48_2 N5_2 1_555 1_555
C49_2 N7_2 1_555 1_555
C49_2 N8_2 1_555 1_555
C54_2 C55_2 1_555 1_555
C15_2 H7_2 1_555 1_555
C16_2 C15_2 1_555 1_555
H8_2 C16_2 1_555 1_555
C17_2 C16_2 1_555 1_555
C18_2 C17_2 1_555 1_555
H9_2 C18_2 1_555 1_555
C20_2 C17_2 1_555 1_555
O13 C20_2 1_555 1_555
O12_2 Sm7_2 1_555 1_555
C15_3 H7_3 1_555 1_555
C16_3 C15_3 1_555 1_555
H8_3 C16_3 1_555 1_555
C17_3 C16_3 1_555 1_555
C18_3 C17_3 1_555 1_555
H9_3 C18_3 1_555 1_555
C20_3 C17_3 1_555 1_555
O1_2 C20_3 1_555 1_555
Sm7_2 O1_2 1_555 1_555
Sm1_2 N1_3 1_555 1_555
C1_3 H1_3 1_555 1_555
C2_3 C1_3 1_555 1_555
H2_3 C2_3 1_555 1_555
C3_3 C2_3 1_555 1_555
H3_3 C3_3 1_555 1_555
C4_3 C3_3 1_555 1_555
C5_3 C4_3 1_555 1_555
C6_3 C5_3 1_555 1_555
C7_3 C6_3 1_555 1_555
C8_3 C7_3 1_555 1_555
C9_3 C8_3 1_555 1_555
C10_3 C9_3 1_555 1_555
H6_3 C10_3 1_555 1_555
C11_3 C7_3 1_555 1_555
C12_3 C4_3 1_555 1_555
C13_3 C14_3 1_555 1_555
C19_3 C14_3 1_555 1_555
H10_3 C19_3 1_555 1_555
C21_3 H11_3 1_555 1_555
C22_3 C21_3 1_555 1_555
H12_3 C22_3 1_555 1_555
C23_3 C22_3 1_555 1_555
C24_3 C23_3 1_555 1_555
C25_4 C26_3 1_555 1_555
C26_3 H13_3 1_555 1_555
C27_3 C26_3 1_555 1_555
H14_3 C27_3 1_555 1_555
C28_4 C27_3 1_555 1_555
C29_4 C25_4 1_555 1_555
N1_3 C1_3 1_555 1_555
N2_3 Sm1_2 1_555 1_555
N3_3 C5_3 1_555 1_555
N4_3 C6_3 1_555 1_555
H15_3 N4_3 1_555 1_555
O3_2 Sm1_2 1_555 1_555
O4_2 Sm1_2 1_555 1_555
O5_3 Sm1_2 1_555 1_555
C31_3 C23_3 1_555 1_555
H16_3 C31_3 1_555 1_555
C32_3 C31_3 1_555 1_555
H17_3 C32_3 1_555 1_555
C33_3 C21_3 1_555 1_555
C34_3 C33_3 1_555 1_555
O7_3 C34_3 1_555 1_555
O8_3 C34_3 1_555 1_555
C35_3 C25_4 1_555 1_555
H18_3 C35_3 1_555 1_555
C36_3 C28_4 1_555 1_555
H19_3 C36_3 1_555 1_555
O9_3 C29_4 1_555 1_555
Sm2_2 O9_3 1_555 1_555
C37_3 H20_3 1_555 1_555
C38_3 C37_3 1_555 1_555
H21_3 C38_3 1_555 1_555
C39_3 C38_3 1_555 1_555
H22_3 C39_3 1_555 1_555
C40_3 C39_3 1_555 1_555
C41_3 C40_3 1_555 1_555
C42_3 C41_3 1_555 1_555
C43_3 C42_3 1_555 1_555
C44_3 C43_3 1_555 1_555
C45_3 C44_3 1_555 1_555
C46_3 C45_3 1_555 1_555
H25_3 C46_3 1_555 1_555
C47_3 C43_3 1_555 1_555
C48_3 C40_3 1_555 1_555
C49_3 C50_3 1_555 1_555
C50_3 C51_3 1_555 1_555
C51_3 H26_3 1_555 1_555
C52_3 C51_3 1_555 1_555
H27_3 C52_3 1_555 1_555
C53_3 C52_3 1_555 1_555
C54_3 C53_3 1_555 1_555
H28_3 C54_3 1_555 1_555
C55_3 C50_3 1_555 1_555
H29_3 C55_3 1_555 1_555
C56_3 C53_3 1_555 1_555
N5_3 Sm2_2 1_555 1_555
N6_3 Sm2_2 1_555 1_555
N7_3 C41_3 1_555 1_555
N8_3 C42_3 1_555 1_555
H30_3 N8_3 1_555 1_555
O11_2 C56_3 1_555 1_555
Sm7_2 O7_3 1_555 1_555
Sm9_2 O11_2 1_555 1_555
O13_2 Sm1_2 1_555 1_555
O14_2 Sm1_2 1_555 1_555
O15_2 Sm2_2 1_555 1_555
O16_2 Sm1_2 1_555 1_555
O17_2 Sm2_2 1_555 1_555
O18_2 Sm2_2 1_555 1_555
O19_2 Sm2_2 1_555 1_555
O20_2 Sm1_2 1_555 1_555
C10_3 N2_3 1_555 1_555
C11_3 C12_3 1_555 1_555
C11_3 N2_3 1_555 1_555
C12_3 N1_3 1_555 1_555
C13_3 N3_3 1_555 1_555
C13_3 N4_3 1_555 1_555
C24_3 O3_2 1_555 1_555
C24_3 O4_2 1_555 1_555
C29_4 O5_3 1_555 1_555
C32_3 C33_3 1_555 1_555
O8_3 Sm7_2 1_555 1_555
C35_3 C36_3 1_555 1_555
Sm2_2 O13_2 1_555 1_555
Sm2_2 O14_2 1_555 1_555
C37_3 N5_3 1_555 1_555
C46_3 N6_3 1_555 1_555
C47_3 C48_3 1_555 1_555
C47_3 N6_3 1_555 1_555
C48_3 N5_3 1_555 1_555
C49_3 N7_3 1_555 1_555
C49_3 N8_3 1_555 1_555
C54_3 C55_3 1_555 1_555
O19_2 C30_4 1_555 1_555
O20_2 C30_4 1_555 1_555
O2_2 Sm9_2 1_555 1_555
C21_4 H11_4 1_555 1_555
C22_4 C21_4 1_555 1_555
H12_4 C22_4 1_555 1_555
C33_4 C21_4 1_555 1_555
C34_4 C33_4 1_555 1_555
O7_4 C34_4 1_555 1_555
O8_4 C34_4 1_555 1_555
Sm9_2 O7_4 1_555 1_555
O8_4 Sm9_2 1_555 1_555
C24_4 C23_4 1_555 1_555
C31_4 C23_4 1_555 1_555
H16_4 C31_4 1_555 1_555
C32_4 C31_4 1_555 1_555
H17_4 C32_4 1_555 1_555
C24_4 O17_2 1_555 1_555
C24_4 O18_2 1_555 1_555
C1_4 H1_4 1_555 1_555
C2_4 C1_4 1_555 1_555
H2_4 C2_4 1_555 1_555
C3_4 C2_4 1_555 1_555
H3_4 C3_4 1_555 1_555
C25_5 C26_4 1_555 1_555
C26_4 H13_4 1_555 1_555
C27_4 C26_4 1_555 1_555
H14_4 C27_4 1_555 1_555
C28_5 C27_4 1_555 1_555
C29_5 C25_5 1_555 1_555
C30_5 C28_5 1_555 1_555
O10_2 C30_5 1_555 1_555
Sm7_2 O10_2 1_555 1_555
C29_5 O5_4 1_555 1_555
Sm7_2 N1_4 1_555 1_555
C5_4 C4_4 1_555 1_555
C6_4 C5_4 1_555 1_555
C7_4 C6_4 1_555 1_555
C8_4 C7_4 1_555 1_555
H4_2 C8_4 1_555 1_555
C9_4 C8_4 1_555 1_555
H5_2 C9_4 1_555 1_555
C10_4 C9_4 1_555 1_555
H6_4 C10_4 1_555 1_555
C11_4 C7_4 1_555 1_555
C12_4 C4_4 1_555 1_555
C13_4 C14_4 1_555 1_555
C19_4 C14_4 1_555 1_555
H10_4 C19_4 1_555 1_555
N2_4 Sm7_2 1_555 1_555
N3_4 C5_4 1_555 1_555
N4_4 C6_4 1_555 1_555
H15_4 N4_4 1_555 1_555
C10_4 N2_4 1_555 1_555
C11_4 C12_4 1_555 1_555
C11_4 N2_4 1_555 1_555
C12_4 N1_4 1_555 1_555
C13_4 N3_4 1_555 1_555
C13_4 N4_4 1_555 1_555
C15_4 H7_4 1_555 1_555
C16_4 C15_4 1_555 1_555
H8_4 C16_4 1_555 1_555
C17_4 C16_4 1_555 1_555
C18_4 C17_4 1_555 1_555
H9_4 C18_4 1_555 1_555
C20_4 C17_4 1_555 1_555
O13_2 C20_4 1_555 1_555
O15_2 C20_4 1_555 1_555
C29_6 C25_6 1_555 1_555
C30_6 C28_6 1_555 1_555
O6_2 C30_6 1_555 1_555
C35_4 C25_6 1_555 1_555
H18_4 C35_4 1_555 1_555
C36_4 C28_6 1_555 1_555
H19_4 C36_4 1_555 1_555
O9_4 C29_6 1_555 1_555
C37_4 H20_4 1_555 1_555
C38_4 C37_4 1_555 1_555
H21_4 C38_4 1_555 1_555
C39_4 C38_4 1_555 1_555
H22_4 C39_4 1_555 1_555
Sm9_2 O6_2 1_555 1_555
C35_4 C36_4 1_555 1_555
C41_4 C40_4 1_555 1_555
C42_4 C41_4 1_555 1_555
C43_4 C42_4 1_555 1_555
C44_4 C43_4 1_555 1_555
H23_2 C44_4 1_555 1_555
C45_4 C44_4 1_555 1_555
H24_2 C45_4 1_555 1_555
C46_4 C45_4 1_555 1_555
H25_4 C46_4 1_555 1_555
C47_4 C43_4 1_555 1_555
C48_4 C40_4 1_555 1_555
C49_4 C50_4 1_555 1_555
C50_4 C51_4 1_555 1_555
C51_4 H26_4 1_555 1_555
C52_4 C51_4 1_555 1_555
H27_4 C52_4 1_555 1_555
C53_4 C52_4 1_555 1_555
C54_4 C53_4 1_555 1_555
H28_4 C54_4 1_555 1_555
C55_4 C50_4 1_555 1_555
H29_4 C55_4 1_555 1_555
C56_4 C53_4 1_555 1_555
N5_4 Sm9_2 1_555 1_555
N6_4 Sm9_2 1_555 1_555
N7_4 C41_4 1_555 1_555
N8_4 C42_4 1_555 1_555
H30_4 N8_4 1_555 1_555
O14_2 C56_4 1_555 1_555
O16_2 C56_4 1_555 1_555
C46_4 N6_4 1_555 1_555
C47_4 C48_4 1_555 1_555
C47_4 N6_4 1_555 1_555
C48_4 N5_4 1_555 1_555
C49_4 N7_4 1_555 1_555
C49_4 N8_4 1_555 1_555
C54_4 C55_4 1_555 1_555

#END
