
###############################################################################
#
# This file contains modified crystal structure data generated from the
# MOF subset of the Cambridge Structural Database (CSD) v543 
# hosted by the Cambridge Crystallographic Data Centre (CCDC).
#
# This work is licensed under the Creative Commons
# Attribution-NonCommercial-ShareAlike 4.0 International License.
# To view a copy of this license, visit
# http://creativecommons.org/licenses/by-nc-sa/4.0/
# or send a letter to
# Creative Commons, PO Box 1866, Mountain View, CA 94042, USA.
#
# CIF created using the CSD Python API on 29 September 2022
# The structure has been converted into the P1 space group
# The structure has a 3D framework
# The original CSD entry NAVKON is in the monoclinic crystal system
# The framework has been calculated to contain at least 10.0% void space
# The void calculation uses a probe of radius 1.32A, grid spacing 0.4
#
###############################################################################

data_NAVKON
_chemical_formula_moiety         '(C232 H120 N32 Nd8 O44)n'
_symmetry_cell_setting           triclinic
_symmetry_space_group_name_H-M   'P 1'
_symmetry_Int_Tables_number      1
_space_group_name_Hall           'P 1'
loop_
_symmetry_equiv_pos_site_id
_symmetry_equiv_pos_as_xyz
1 x,y,z
_cell_length_a                   24.3895(7)
_cell_length_b                   11.3200(5)
_cell_length_c                   20.1674(7)
_cell_angle_alpha                90
_cell_angle_beta                 95.115(3)
_cell_angle_gamma                90
_cell_volume                     5545.83
loop_
_atom_site_label
_atom_site_type_symbol
_atom_site_fract_x
_atom_site_fract_y
_atom_site_fract_z
Nd4 Nd 0.076533(10) 0.16619(3) 0.792955(13)
C25 C -0.0000 0.5438(8) 0.7500
C26 C 0.0332(2) 0.6060(6) 0.7976(3)
H13 H 0.0551 0.5656 0.8303
C27 C 0.0336(2) 0.7274(6) 0.7960(3)
H14 H 0.0571 0.7687 0.8266
C28 C -0.0000 0.7882(8) 0.7500
C29 C -0.0000 0.4138(8) 0.7500
C30 C -0.0000 0.9210(8) 0.7500
O9 O 0.03944(14) 0.3607(4) 0.78302(19)
O10 O 0.04285(14) 0.9722(4) 0.77473(18)
C40 C 0.2170(2) 0.1038(6) 0.6348(3)
C41 C 0.2566(2) 0.1854(6) 0.6104(3)
C42 C 0.2611(2) 0.2983(6) 0.6337(3)
C43 C 0.2275(2) 0.3464(6) 0.6814(2)
C44 C 0.2292(2) 0.4630(6) 0.7036(3)
H23 H 0.2546 0.5157 0.6886
C45 C 0.1931(2) 0.4994(6) 0.7475(3)
H24 H 0.1926 0.5776 0.7615
C46 C 0.1570(2) 0.4160(6) 0.7707(3)
H25 H 0.1337 0.4404 0.8020
C47 C 0.18874(19) 0.2678(6) 0.7064(2)
C48 C 0.18410(19) 0.1467(5) 0.6839(2)
C49 C 0.3197(2) 0.2653(7) 0.5590(3)
C50 C 0.3631(2) 0.2865(6) 0.5147(3)
C51 C 0.3720(2) 0.2050(6) 0.4653(3)
H26 H 0.3518 0.1352 0.4623
C52 C 0.4105(2) 0.2268(7) 0.4209(3)
H27 H 0.4156 0.1720 0.3876
C53 C 0.44156(19) 0.3288(6) 0.4250(2)
C54 C 0.4333(2) 0.4102(6) 0.4746(3)
H28 H 0.4543 0.4788 0.4782
C55 C 0.3941(2) 0.3903(7) 0.5188(3)
H29 H 0.3883 0.4461 0.5513
C56 C 0.48382(19) 0.3503(6) 0.3777(2)
N5 N 0.14651(17) 0.0757(5) 0.7109(2)
N6 N 0.15415(16) 0.3056(5) 0.7511(2)
N7 N 0.29332(17) 0.1634(5) 0.5631(2)
N8 N 0.30209(16) 0.3498(5) 0.6010(2)
H30 H 0.3142 0.4209 0.6060
O11 O 0.47215(12) 0.3238(4) 0.31617(15)
O12 O 0.53006(13) 0.3897(4) 0.39772(17)
Nd7 Nd 0.576533(10) 0.33381(3) 0.292955(13)
Nd9 Nd 0.423467(10) 0.33381(3) 0.207045(13)
O14 O 0.02785(12) 0.1762(4) 0.68383(15)
O15 O 0.03006(13) 0.1103(4) 0.89772(17)
O17 O 0.16018(13) 0.0951(4) 0.86954(17)
O18 O 0.12323(15) 0.2680(4) 0.89105(17)
C37 C 0.1426(2) 0.9649(6) 0.6901(3)
H20 H 0.1178 0.9158 0.7092
C38 C 0.1732(2) 0.9165(7) 0.6415(3)
H21 H 0.1683 0.8383 0.6281
C39 C 0.2105(2) 0.9873(6) 0.6143(3)
H22 H 0.2316 0.9574 0.5819
Nd3 Nd 0.923467(10) 0.16619(3) 0.707045(13)
C15 C 0.6280(2) 0.2050(6) 0.0347(3)
H7 H 0.6482 0.1352 0.0377
C16 C 0.5895(2) 0.2268(7) 0.0791(3)
H8 H 0.5844 0.1720 0.1124
C17 C 0.55844(19) 0.3288(6) 0.0750(2)
C18 C 0.5667(2) 0.4102(6) 0.0254(3)
H9 H 0.5457 0.4788 0.0218
C20 C 0.51618(19) 0.3503(6) 0.1223(2)
O1 O 0.52785(12) 0.3238(4) 0.18383(15)
O2 O 0.46994(13) 0.3897(4) 0.10228(17)
C4 C 0.7830(2) 0.1038(6) 0.8652(3)
C5 C 0.7434(2) 0.1854(6) 0.8896(3)
C6 C 0.7389(2) 0.2983(6) 0.8663(3)
C7 C 0.7725(2) 0.3464(6) 0.8186(2)
C8 C 0.7708(2) 0.4630(6) 0.7964(3)
H4 H 0.7454 0.5157 0.8114
C9 C 0.8069(2) 0.4994(6) 0.7525(3)
H5 H 0.8074 0.5776 0.7385
C10 C 0.8430(2) 0.4160(6) 0.7293(3)
H6 H 0.8663 0.4404 0.6980
C11 C 0.81126(19) 0.2678(6) 0.7936(2)
C12 C 0.81590(19) 0.1467(5) 0.8161(2)
C13 C 0.6803(2) 0.2653(7) 0.9410(3)
C14 C 0.6369(2) 0.2865(6) 0.9853(3)
C19 C 0.6059(2) 0.3903(7) 0.9812(3)
H10 H 0.6117 0.4461 0.9487
C21 C 0.7010(2) 0.1885(6) 0.4974(3)
H11 H 0.6679 0.1474 0.4958
C22 C 0.7441(2) 0.1573(7) 0.5438(3)
H12 H 0.7401 0.0949 0.5729
C23 C 0.7930(2) 0.2196(6) 0.5463(2)
C24 C 0.8401(2) 0.1923(6) 0.5985(3)
C25_2 C 1.0000 0.5438(8) 0.7500
C28_2 C 1.0000 0.7882(8) 0.7500
C29_2 C 1.0000 0.4138(8) 0.7500
C30_2 C 1.0000 0.9210(8) 0.7500
N1 N 0.85349(17) 0.0757(5) 0.7891(2)
N2 N 0.84585(16) 0.3056(5) 0.7489(2)
N3 N 0.70668(17) 0.1634(5) 0.9369(2)
N4 N 0.69791(16) 0.3498(5) 0.8990(2)
H15 H 0.6858 0.4209 0.8940
O3 O 0.83982(13) 0.0951(4) 0.63046(17)
O4 O 0.87677(15) 0.2680(4) 0.60895(17)
O5 O 0.96056(14) 0.3607(4) 0.71698(19)
O6 O 0.95715(14) 0.9722(4) 0.72527(18)
C31 C 0.7990(2) 0.3115(6) 0.5026(3)
H16 H 0.8321 0.3526 0.5042
C32 C 0.7559(2) 0.3427(7) 0.4562(3)
H17 H 0.7599 0.4051 0.4271
C33 C 0.7070(2) 0.2804(6) 0.4537(2)
C34 C 0.6599(2) 0.3077(6) 0.4015(3)
O7 O 0.66018(13) 0.4049(4) 0.36954(17)
O8 O 0.62323(15) 0.2320(4) 0.39105(17)
C35 C 0.9668(2) 0.6060(6) 0.7024(3)
H18 H 0.9449 0.5656 0.6697
C36 C 0.9664(2) 0.7274(6) 0.7040(3)
H19 H 0.9429 0.7687 0.6734
O13 O 0.97215(12) 0.1762(4) 0.81617(15)
O16 O 0.96994(13) 0.1103(4) 0.60228(17)
C1 C 0.8574(2) 0.9649(6) 0.8099(3)
H1 H 0.8822 0.9158 0.7908
C2 C 0.8268(2) 0.9165(7) 0.8585(3)
H2 H 0.8317 0.8383 0.8719
C3 C 0.7895(2) 0.9873(6) 0.8857(3)
H3 H 0.7684 0.9574 0.9181
C21_2 C 0.2990(2) 0.1885(6) 0.0026(3)
H11_2 H 0.3321 0.1474 0.0042
C32_2 C 0.2441(2) 0.3427(7) 0.0438(3)
H17_2 H 0.2401 0.4051 0.0729
C33_2 C 0.2930(2) 0.2804(6) 0.0463(2)
C34_2 C 0.3401(2) 0.3077(6) 0.0985(3)
O7_2 O 0.33982(13) 0.4049(4) 0.13046(17)
O8_2 O 0.37677(15) 0.2320(4) 0.10895(17)
C22_2 C 0.2559(2) 0.1573(7) 0.9562(3)
H12_2 H 0.2599 0.0949 0.9271
C23_2 C 0.2070(2) 0.2196(6) 0.9537(2)
C24_2 C 0.1599(2) 0.1923(6) 0.9015(3)
C31_2 C 0.2010(2) 0.3115(6) 0.9974(3)
H16_2 H 0.1679 0.3526 0.9958
C1_2 C 0.6426(2) 0.5351(6) 0.1901(3)
H1_2 H 0.6178 0.5842 0.2092
C2_2 C 0.6732(2) 0.5835(7) 0.1415(3)
H2_2 H 0.6683 0.6617 0.1281
C3_2 C 0.7105(2) 0.5127(6) 0.1143(3)
H3_2 H 0.7316 0.5426 0.0819
C4_2 C 0.7170(2) 0.3962(6) 0.1348(3)
C5_2 C 0.7566(2) 0.3146(6) 0.1104(3)
C6_2 C 0.7611(2) 0.2017(6) 0.1337(3)
C7_2 C 0.7275(2) 0.1536(6) 0.1814(2)
C8_2 C 0.7292(2) 0.0370(6) 0.2036(3)
C9_2 C 0.6931(2) 0.0006(6) 0.2475(3)
C10_2 C 0.6570(2) 0.0840(6) 0.2707(3)
H6_2 H 0.6337 0.0596 0.3020
C11_2 C 0.68874(19) 0.2322(6) 0.2064(2)
C12_2 C 0.68410(19) 0.3533(5) 0.1839(2)
C13_2 C 0.8197(2) 0.2347(7) 0.0590(3)
C14_2 C 0.8631(2) 0.2135(6) 0.0147(3)
C19_2 C 0.8941(2) 0.1097(7) 0.0188(3)
H10_2 H 0.8883 0.0539 0.0513
C29_3 C 0.5000 0.0862(8) 0.2500
N1_2 N 0.64651(17) 0.4243(5) 0.2109(2)
N2_2 N 0.65415(16) 0.1944(5) 0.2511(2)
N3_2 N 0.79332(17) 0.3366(5) 0.0631(2)
N4_2 N 0.80209(16) 0.1502(5) 0.1010(2)
H15_2 H 0.8142 0.0791 0.1060
O5_2 O 0.53944(14) 0.1393(4) 0.28302(19)
O9_2 O 0.46056(14) 0.1393(4) 0.21698(19)
C37_2 C 0.3574(2) 0.5351(6) 0.3099(3)
H20_2 H 0.3822 0.5842 0.2908
C38_2 C 0.3268(2) 0.5835(7) 0.3585(3)
H21_2 H 0.3317 0.6617 0.3719
C39_2 C 0.2895(2) 0.5127(6) 0.3857(3)
H22_2 H 0.2684 0.5426 0.4181
C40_2 C 0.2830(2) 0.3962(6) 0.3652(3)
C41_2 C 0.2434(2) 0.3146(6) 0.3896(3)
C42_2 C 0.2389(2) 0.2017(6) 0.3663(3)
C43_2 C 0.2725(2) 0.1536(6) 0.3186(2)
C44_2 C 0.2708(2) 0.0370(6) 0.2964(3)
C45_2 C 0.3069(2) 0.0006(6) 0.2525(3)
C46_2 C 0.3430(2) 0.0840(6) 0.2293(3)
H25_2 H 0.3663 0.0596 0.1980
C47_2 C 0.31126(19) 0.2322(6) 0.2936(2)
C48_2 C 0.31590(19) 0.3533(5) 0.3161(2)
C49_2 C 0.1803(2) 0.2347(7) 0.4410(3)
C50_2 C 0.1369(2) 0.2135(6) 0.4853(3)
C51_2 C 0.1280(2) 0.2950(6) 0.5347(3)
H26_2 H 0.1482 0.3648 0.5377
C52_2 C 0.0895(2) 0.2732(7) 0.5791(3)
H27_2 H 0.0844 0.3280 0.6124
C53_2 C 0.05844(19) 0.1712(6) 0.5750(2)
C54_2 C 0.0667(2) 0.0898(6) 0.5254(3)
H28_2 H 0.0457 0.0212 0.5218
C55_2 C 0.1059(2) 0.1097(7) 0.4812(3)
H29_2 H 0.1117 0.0539 0.4487
C56_2 C 0.01618(19) 0.1497(6) 0.6223(2)
N5_2 N 0.35349(17) 0.4243(5) 0.2891(2)
N6_2 N 0.34585(16) 0.1944(5) 0.2489(2)
N7_2 N 0.20668(17) 0.3366(5) 0.4369(2)
N8_2 N 0.19791(16) 0.1502(5) 0.3990(2)
H30_2 H 0.1858 0.0791 0.3940
O19 O 0.54285(14) 0.5278(4) 0.27473(18)
O20 O 0.45715(14) 0.5278(4) 0.22527(18)
C15_2 C 0.8720(2) 0.2950(6) 0.9653(3)
H7_2 H 0.8518 0.3648 0.9623
C16_2 C 0.9105(2) 0.2732(7) 0.9209(3)
H8_2 H 0.9156 0.3280 0.8876
C17_2 C 0.94156(19) 0.1712(6) 0.9250(2)
C18_2 C 0.9333(2) 0.0898(6) 0.9746(3)
H9_2 H 0.9543 0.0212 0.9782
C20_2 C 0.98382(19) 0.1497(6) 0.8777(2)
H4_2 H 0.7546 0.9843 0.1886
H5_2 H 0.6926 0.9224 0.2615
C25_3 C 0.5000 0.9562(8) 0.2500
C26_2 C 0.4668(2) 0.8940(6) 0.2024(3)
H13_2 H 0.4449 0.9344 0.1697
C27_2 C 0.4664(2) 0.7726(6) 0.2040(3)
H14_2 H 0.4429 0.7313 0.1734
C28_3 C 0.5000 0.7118(8) 0.2500
C30_3 C 0.5000 0.5790(8) 0.2500
C35_2 C 0.5332(2) 0.8940(6) 0.2976(3)
H18_2 H 0.5551 0.9344 0.3303
C36_2 C 0.5336(2) 0.7726(6) 0.2960(3)
H19_2 H 0.5571 0.7313 0.3266
H23_2 H 0.2454 0.9843 0.3114
H24_2 H 0.3074 0.9224 0.2385
O12_2 O 0.03006(13) 0.8897(4) 0.39772(17)
Nd7_2 Nd 0.076533(10) 0.83381(3) 0.292955(13)
H4_3 H 0.2454 0.0157 0.8114
H5_3 H 0.3074 0.0776 0.7385
C25_4 C 0.5000 0.0438(8) 0.7500
C26_3 C 0.5332(2) 0.1060(6) 0.7976(3)
H13_3 H 0.5551 0.0656 0.8303
C27_3 C 0.5336(2) 0.2274(6) 0.7960(3)
H14_3 H 0.5571 0.2687 0.8266
C28_4 C 0.5000 0.2882(8) 0.7500
C30_4 C 0.5000 0.4210(8) 0.7500
O6_2 O 0.45715(14) 0.4722(4) 0.72527(18)
C35_3 C 0.4668(2) 0.1060(6) 0.7024(3)
H18_3 H 0.4449 0.0656 0.6697
C36_3 C 0.4664(2) 0.2274(6) 0.7040(3)
H19_3 H 0.4429 0.2687 0.6734
O10_2 O 0.54285(14) 0.4722(4) 0.77473(18)
H23_3 H 0.7546 0.0157 0.6886
H24_3 H 0.6926 0.0776 0.7615
Nd3_2 Nd 0.423467(10) 0.66619(3) 0.707045(13)
Nd4_2 Nd 0.576533(10) 0.66619(3) 0.792955(13)
C15_3 C 0.1280(2) 0.7050(6) 0.0347(3)
H7_3 H 0.1482 0.6352 0.0377
C16_3 C 0.0895(2) 0.7268(7) 0.0791(3)
H8_3 H 0.0844 0.6720 0.1124
C17_3 C 0.05844(19) 0.8288(6) 0.0750(2)
C18_3 C 0.0667(2) 0.9102(6) 0.0254(3)
H9_3 H 0.0457 0.9788 0.0218
C20_3 C 0.01618(19) 0.8503(6) 0.1223(2)
O1_2 O 0.02785(12) 0.8238(4) 0.18383(15)
C1_3 C 0.3574(2) 0.4649(6) 0.8099(3)
H1_3 H 0.3822 0.4158 0.7908
C2_3 C 0.3268(2) 0.4165(7) 0.8585(3)
H2_3 H 0.3317 0.3383 0.8719
C3_3 C 0.2895(2) 0.4873(6) 0.8857(3)
H3_3 H 0.2684 0.4574 0.9181
C4_3 C 0.2830(2) 0.6038(6) 0.8652(3)
C5_3 C 0.2434(2) 0.6854(6) 0.8896(3)
C6_3 C 0.2389(2) 0.7983(6) 0.8663(3)
C7_3 C 0.2725(2) 0.8464(6) 0.8186(2)
C8_3 C 0.2708(2) 0.9630(6) 0.7964(3)
C9_3 C 0.3069(2) 0.9994(6) 0.7525(3)
C10_3 C 0.3430(2) 0.9160(6) 0.7293(3)
H6_3 H 0.3663 0.9404 0.6980
C11_3 C 0.31126(19) 0.7678(6) 0.7936(2)
C12_3 C 0.31590(19) 0.6467(5) 0.8161(2)
C13_3 C 0.1803(2) 0.7653(7) 0.9410(3)
C14_3 C 0.1369(2) 0.7865(6) 0.9853(3)
C19_3 C 0.1059(2) 0.8903(7) 0.9812(3)
H10_3 H 0.1117 0.9461 0.9487
C21_3 C 0.2010(2) 0.6885(6) 0.4974(3)
H11_3 H 0.1679 0.6474 0.4958
C22_3 C 0.2441(2) 0.6573(7) 0.5438(3)
H12_3 H 0.2401 0.5949 0.5729
C23_3 C 0.2930(2) 0.7196(6) 0.5463(2)
C24_3 C 0.3401(2) 0.6923(6) 0.5985(3)
C29_4 C 0.5000 0.9138(8) 0.7500
N1_3 N 0.35349(17) 0.5757(5) 0.7891(2)
N2_3 N 0.34585(16) 0.8056(5) 0.7489(2)
N3_3 N 0.20668(17) 0.6634(5) 0.9369(2)
N4_3 N 0.19791(16) 0.8498(5) 0.8990(2)
H15_3 H 0.1858 0.9209 0.8940
O3_2 O 0.33982(13) 0.5951(4) 0.63046(17)
O4_2 O 0.37677(15) 0.7680(4) 0.60895(17)
O5_3 O 0.46056(14) 0.8607(4) 0.71698(19)
C31_3 C 0.2990(2) 0.8115(6) 0.5026(3)
H16_3 H 0.3321 0.8526 0.5042
C32_3 C 0.2559(2) 0.8427(7) 0.4562(3)
H17_3 H 0.2599 0.9051 0.4271
C33_3 C 0.2070(2) 0.7804(6) 0.4537(2)
C34_3 C 0.1599(2) 0.8077(6) 0.4015(3)
O7_3 O 0.16018(13) 0.9049(4) 0.36954(17)
O8_3 O 0.12323(15) 0.7320(4) 0.39105(17)
O9_3 O 0.53944(14) 0.8607(4) 0.78302(19)
C37_3 C 0.6426(2) 0.4649(6) 0.6901(3)
H20_3 H 0.6178 0.4158 0.7092
C38_3 C 0.6732(2) 0.4165(7) 0.6415(3)
H21_3 H 0.6683 0.3383 0.6281
C39_3 C 0.7105(2) 0.4873(6) 0.6143(3)
H22_3 H 0.7316 0.4574 0.5819
C40_3 C 0.7170(2) 0.6038(6) 0.6348(3)
C41_3 C 0.7566(2) 0.6854(6) 0.6104(3)
C42_3 C 0.7611(2) 0.7983(6) 0.6337(3)
C43_3 C 0.7275(2) 0.8464(6) 0.6814(2)
C44_3 C 0.7292(2) 0.9630(6) 0.7036(3)
C45_3 C 0.6931(2) 0.9994(6) 0.7475(3)
C46_3 C 0.6570(2) 0.9160(6) 0.7707(3)
H25_3 H 0.6337 0.9404 0.8020
C47_3 C 0.68874(19) 0.7678(6) 0.7064(2)
C48_3 C 0.68410(19) 0.6467(5) 0.6839(2)
C49_3 C 0.8197(2) 0.7653(7) 0.5590(3)
C50_3 C 0.8631(2) 0.7865(6) 0.5147(3)
C51_3 C 0.8720(2) 0.7050(6) 0.4653(3)
H26_3 H 0.8518 0.6352 0.4623
C52_3 C 0.9105(2) 0.7268(7) 0.4209(3)
H27_3 H 0.9156 0.6720 0.3876
C53_3 C 0.94156(19) 0.8288(6) 0.4250(2)
C54_3 C 0.9333(2) 0.9102(6) 0.4746(3)
H28_3 H 0.9543 0.9788 0.4782
C55_3 C 0.8941(2) 0.8903(7) 0.5188(3)
H29_3 H 0.8883 0.9461 0.5513
C56_3 C 0.98382(19) 0.8503(6) 0.3777(2)
N5_3 N 0.64651(17) 0.5757(5) 0.7109(2)
N6_3 N 0.65415(16) 0.8056(5) 0.7511(2)
N7_3 N 0.79332(17) 0.6634(5) 0.5631(2)
N8_3 N 0.80209(16) 0.8498(5) 0.6010(2)
H30_3 H 0.8142 0.9209 0.6060
O11_2 O 0.97215(12) 0.8238(4) 0.31617(15)
Nd9_2 Nd 0.923467(10) 0.83381(3) 0.207045(13)
O13_2 O 0.47215(12) 0.6762(4) 0.81617(15)
O14_2 O 0.52785(12) 0.6762(4) 0.68383(15)
O15_2 O 0.53006(13) 0.6103(4) 0.89772(17)
O16_2 O 0.46994(13) 0.6103(4) 0.60228(17)
O17_2 O 0.66018(13) 0.5951(4) 0.86954(17)
O18_2 O 0.62323(15) 0.7680(4) 0.89105(17)
O2_2 O 0.96994(13) 0.8897(4) 0.10228(17)
C21_4 C 0.7990(2) 0.6885(6) 0.0026(3)
H11_4 H 0.8321 0.6474 0.0042
C32_4 C 0.7441(2) 0.8427(7) 0.0438(3)
H17_4 H 0.7401 0.9051 0.0729
C33_4 C 0.7930(2) 0.7804(6) 0.0463(2)
C34_4 C 0.8401(2) 0.8077(6) 0.0985(3)
O7_4 O 0.83982(13) 0.9049(4) 0.13046(17)
O8_4 O 0.87677(15) 0.7320(4) 0.10895(17)
C22_4 C 0.7559(2) 0.6573(7) 0.9562(3)
H12_4 H 0.7599 0.5949 0.9271
C23_4 C 0.7070(2) 0.7196(6) 0.9537(2)
C24_4 C 0.6599(2) 0.6923(6) 0.9015(3)
C31_4 C 0.7010(2) 0.8115(6) 0.9974(3)
H16_4 H 0.6679 0.8526 0.9958
C1_4 C 0.1426(2) 0.0351(6) 0.1901(3)
H1_4 H 0.1178 0.0842 0.2092
C2_4 C 0.1732(2) 0.0835(7) 0.1415(3)
H2_4 H 0.1683 0.1617 0.1281
C3_4 C 0.2105(2) 0.0127(6) 0.1143(3)
H3_4 H 0.2316 0.0426 0.0819
O19_2 O 0.04285(14) 0.0278(4) 0.27473(18)
C4_4 C 0.2170(2) 0.8962(6) 0.1348(3)
C5_4 C 0.2566(2) 0.8146(6) 0.1104(3)
C6_4 C 0.2611(2) 0.7017(6) 0.1337(3)
C7_4 C 0.2275(2) 0.6536(6) 0.1814(2)
C8_4 C 0.2292(2) 0.5370(6) 0.2036(3)
H4_4 H 0.2546 0.4843 0.1886
C9_4 C 0.1931(2) 0.5006(6) 0.2475(3)
H5_4 H 0.1926 0.4224 0.2615
C10_4 C 0.1570(2) 0.5840(6) 0.2707(3)
H6_4 H 0.1337 0.5596 0.3020
C11_4 C 0.18874(19) 0.7322(6) 0.2064(2)
C12_4 C 0.18410(19) 0.8533(5) 0.1839(2)
C13_4 C 0.3197(2) 0.7347(7) 0.0590(3)
C14_4 C 0.3631(2) 0.7135(6) 0.0147(3)
C19_4 C 0.3941(2) 0.6097(7) 0.0188(3)
H10_4 H 0.3883 0.5539 0.0513
C25_5 C 0.0000 0.4562(8) 0.2500
C28_5 C 0.0000 0.2118(8) 0.2500
C29_5 C 0.0000 0.5862(8) 0.2500
C30_5 C 0.0000 0.0790(8) 0.2500
N1_4 N 0.14651(17) 0.9243(5) 0.2109(2)
N2_4 N 0.15415(16) 0.6944(5) 0.2511(2)
N3_4 N 0.29332(17) 0.8366(5) 0.0631(2)
N4_4 N 0.30209(16) 0.6502(5) 0.1010(2)
H15_4 H 0.3142 0.5791 0.1060
O5_4 O 0.03944(14) 0.6393(4) 0.28302(19)
C35_4 C 0.0332(2) 0.3940(6) 0.2976(3)
H18_4 H 0.0551 0.4344 0.3303
C36_4 C 0.0336(2) 0.2726(6) 0.2960(3)
H19_4 H 0.0571 0.2313 0.3266
C15_4 C 0.3720(2) 0.7950(6) 0.9653(3)
H7_4 H 0.3518 0.8648 0.9623
C16_4 C 0.4105(2) 0.7732(7) 0.9209(3)
H8_4 H 0.4156 0.8280 0.8876
C17_4 C 0.44156(19) 0.6712(6) 0.9250(2)
C18_4 C 0.4333(2) 0.5898(6) 0.9746(3)
H9_4 H 0.4543 0.5212 0.9782
C20_4 C 0.48382(19) 0.6497(6) 0.8777(2)
C37_4 C 0.8574(2) 0.0351(6) 0.3099(3)
H20_4 H 0.8822 0.0842 0.2908
C38_4 C 0.8268(2) 0.0835(7) 0.3585(3)
H21_4 H 0.8317 0.1617 0.3719
C39_4 C 0.7895(2) 0.0127(6) 0.3857(3)
H22_4 H 0.7684 0.0426 0.4181
O20_2 O 0.95715(14) 0.0278(4) 0.22527(18)
C25_6 C 1.0000 0.4562(8) 0.2500
C26_4 C 0.9668(2) 0.3940(6) 0.2024(3)
H13_4 H 0.9449 0.4344 0.1697
C27_4 C 0.9664(2) 0.2726(6) 0.2040(3)
H14_4 H 0.9429 0.2313 0.1734
C28_6 C 1.0000 0.2118(8) 0.2500
C29_6 C 1.0000 0.5862(8) 0.2500
C30_6 C 1.0000 0.0790(8) 0.2500
O9_4 O 0.96056(14) 0.6393(4) 0.21698(19)
C40_4 C 0.7830(2) 0.8962(6) 0.3652(3)
C41_4 C 0.7434(2) 0.8146(6) 0.3896(3)
C42_4 C 0.7389(2) 0.7017(6) 0.3663(3)
C43_4 C 0.7725(2) 0.6536(6) 0.3186(2)
C44_4 C 0.7708(2) 0.5370(6) 0.2964(3)
H23_4 H 0.7454 0.4843 0.3114
C45_4 C 0.8069(2) 0.5006(6) 0.2525(3)
H24_4 H 0.8074 0.4224 0.2385
C46_4 C 0.8430(2) 0.5840(6) 0.2293(3)
H25_4 H 0.8663 0.5596 0.1980
C47_4 C 0.81126(19) 0.7322(6) 0.2936(2)
C48_4 C 0.81590(19) 0.8533(5) 0.3161(2)
C49_4 C 0.6803(2) 0.7347(7) 0.4410(3)
C50_4 C 0.6369(2) 0.7135(6) 0.4853(3)
C51_4 C 0.6280(2) 0.7950(6) 0.5347(3)
H26_4 H 0.6482 0.8648 0.5377
C52_4 C 0.5895(2) 0.7732(7) 0.5791(3)
H27_4 H 0.5844 0.8280 0.6124
C53_4 C 0.55844(19) 0.6712(6) 0.5750(2)
C54_4 C 0.5667(2) 0.5898(6) 0.5254(3)
H28_4 H 0.5457 0.5212 0.5218
C55_4 C 0.6059(2) 0.6097(7) 0.4812(3)
H29_4 H 0.6117 0.5539 0.4487
C56_4 C 0.51618(19) 0.6497(6) 0.6223(2)
N5_4 N 0.85349(17) 0.9243(5) 0.2891(2)
N6_4 N 0.84585(16) 0.6944(5) 0.2489(2)
N7_4 N 0.70668(17) 0.8366(5) 0.4369(2)
N8_4 N 0.69791(16) 0.6502(5) 0.3990(2)
H30_4 H 0.6858 0.5791 0.3940
loop_
_geom_bond_atom_site_label_1
_geom_bond_atom_site_label_2
_geom_bond_site_symmetry_1
_geom_bond_site_symmetry_2
C25 C26 1_555 1_555
C26 H13 1_555 1_555
C27 C26 1_555 1_555
H14 C27 1_555 1_555
C28 C27 1_555 1_555
C29 C25 1_555 1_555
C30 C28 1_555 1_555
O9 C29 1_555 1_555
O10 C30 1_555 1_555
Nd4 O9 1_555 1_555
C41 C40 1_555 1_555
C42 C41 1_555 1_555
C43 C42 1_555 1_555
C44 C43 1_555 1_555
H23 C44 1_555 1_555
C45 C44 1_555 1_555
H24 C45 1_555 1_555
C46 C45 1_555 1_555
H25 C46 1_555 1_555
C47 C43 1_555 1_555
C48 C40 1_555 1_555
C49 C50 1_555 1_555
C50 C51 1_555 1_555
C51 H26 1_555 1_555
C52 C51 1_555 1_555
H27 C52 1_555 1_555
C53 C52 1_555 1_555
C54 C53 1_555 1_555
H28 C54 1_555 1_555
C55 C50 1_555 1_555
H29 C55 1_555 1_555
C56 C53 1_555 1_555
N5 Nd4 1_555 1_555
N6 Nd4 1_555 1_555
N7 C41 1_555 1_555
N8 C42 1_555 1_555
H30 N8 1_555 1_555
O11 C56 1_555 1_555
O12 C56 1_555 1_555
Nd7 O11 1_555 1_555
Nd9 O11 1_555 1_555
O15 Nd4 1_555 1_555
O17 Nd4 1_555 1_555
O18 Nd4 1_555 1_555
Nd4 O14 1_555 1_555
C46 N6 1_555 1_555
C47 C48 1_555 1_555
C47 N6 1_555 1_555
C48 N5 1_555 1_555
C49 N7 1_555 1_555
C49 N8 1_555 1_555
C54 C55 1_555 1_555
O12 Nd7 1_555 1_555
C37 H20 1_555 1_555
C38 C37 1_555 1_555
H21 C38 1_555 1_555
C39 C38 1_555 1_555
H22 C39 1_555 1_555
C15 H7 1_555 1_555
C16 C15 1_555 1_555
H8 C16 1_555 1_555
C17 C16 1_555 1_555
C18 C17 1_555 1_555
H9 C18 1_555 1_555
C20 C17 1_555 1_555
O1 C20 1_555 1_555
O2 C20 1_555 1_555
Nd7 O1 1_555 1_555
Nd9 O1 1_555 1_555
O2 Nd9 1_555 1_555
Nd3 N1 1_555 1_555
C5 C4 1_555 1_555
C6 C5 1_555 1_555
C7 C6 1_555 1_555
C8 C7 1_555 1_555
H4 C8 1_555 1_555
C9 C8 1_555 1_555
H5 C9 1_555 1_555
C10 C9 1_555 1_555
H6 C10 1_555 1_555
C11 C7 1_555 1_555
C12 C4 1_555 1_555
C13 C14 1_555 1_555
C19 C14 1_555 1_555
H10 C19 1_555 1_555
C21 H11 1_555 1_555
C22 C21 1_555 1_555
H12 C22 1_555 1_555
C23 C22 1_555 1_555
C24 C23 1_555 1_555
C29_2 C25_2 1_555 1_555
C30_2 C28_2 1_555 1_555
N2 Nd3 1_555 1_555
N3 C5 1_555 1_555
N4 C6 1_555 1_555
H15 N4 1_555 1_555
O3 Nd3 1_555 1_555
O4 Nd3 1_555 1_555
O5 Nd3 1_555 1_555
O6 C30_2 1_555 1_555
C31 C23 1_555 1_555
H16 C31 1_555 1_555
C32 C31 1_555 1_555
H17 C32 1_555 1_555
C33 C21 1_555 1_555
C34 C33 1_555 1_555
O7 C34 1_555 1_555
O8 C34 1_555 1_555
C35 C25_2 1_555 1_555
H18 C35 1_555 1_555
C36 C28_2 1_555 1_555
H19 C36 1_555 1_555
Nd7 O7 1_555 1_555
O13 Nd3 1_555 1_555
O16 Nd3 1_555 1_555
C10 N2 1_555 1_555
C11 C12 1_555 1_555
C11 N2 1_555 1_555
C12 N1 1_555 1_555
C13 N3 1_555 1_555
C13 N4 1_555 1_555
C24 O3 1_555 1_555
C24 O4 1_555 1_555
C29_2 O5 1_555 1_555
C32 C33 1_555 1_555
O8 Nd7 1_555 1_555
C35 C36 1_555 1_555
C1 H1 1_555 1_555
C2 C1 1_555 1_555
H2 C2 1_555 1_555
C3 C2 1_555 1_555
H3 C3 1_555 1_555
C21_2 H11_2 1_555 1_555
H17_2 C32_2 1_555 1_555
C33_2 C21_2 1_555 1_555
C34_2 C33_2 1_555 1_555
O7_2 C34_2 1_555 1_555
O8_2 C34_2 1_555 1_555
Nd9 O7_2 1_555 1_555
C32_2 C33_2 1_555 1_555
O8_2 Nd9 1_555 1_555
H12_2 C22_2 1_555 1_555
C23_2 C22_2 1_555 1_555
C24_2 C23_2 1_555 1_555
C31_2 C23_2 1_555 1_555
H16_2 C31_2 1_555 1_555
C24_2 O17 1_555 1_555
C24_2 O18 1_555 1_555
Nd7 N1_2 1_555 1_555
C1_2 H1_2 1_555 1_555
C2_2 C1_2 1_555 1_555
H2_2 C2_2 1_555 1_555
C3_2 C2_2 1_555 1_555
H3_2 C3_2 1_555 1_555
C4_2 C3_2 1_555 1_555
C5_2 C4_2 1_555 1_555
C6_2 C5_2 1_555 1_555
C7_2 C6_2 1_555 1_555
C8_2 C7_2 1_555 1_555
C9_2 C8_2 1_555 1_555
C10_2 C9_2 1_555 1_555
H6_2 C10_2 1_555 1_555
C11_2 C7_2 1_555 1_555
C12_2 C4_2 1_555 1_555
C13_2 C14_2 1_555 1_555
C19_2 C14_2 1_555 1_555
H10_2 C19_2 1_555 1_555
N1_2 C1_2 1_555 1_555
N2_2 Nd7 1_555 1_555
N3_2 C5_2 1_555 1_555
N4_2 C6_2 1_555 1_555
H15_2 N4_2 1_555 1_555
O5_2 Nd7 1_555 1_555
O9_2 C29_3 1_555 1_555
Nd9 O9_2 1_555 1_555
C37_2 H20_2 1_555 1_555
C38_2 C37_2 1_555 1_555
H21_2 C38_2 1_555 1_555
C39_2 C38_2 1_555 1_555
H22_2 C39_2 1_555 1_555
C40_2 C39_2 1_555 1_555
C41_2 C40_2 1_555 1_555
C42_2 C41_2 1_555 1_555
C43_2 C42_2 1_555 1_555
C44_2 C43_2 1_555 1_555
C45_2 C44_2 1_555 1_555
C46_2 C45_2 1_555 1_555
H25_2 C46_2 1_555 1_555
C47_2 C43_2 1_555 1_555
C48_2 C40_2 1_555 1_555
C49_2 C50_2 1_555 1_555
C50_2 C51_2 1_555 1_555
C51_2 H26_2 1_555 1_555
C52_2 C51_2 1_555 1_555
H27_2 C52_2 1_555 1_555
C53_2 C52_2 1_555 1_555
C54_2 C53_2 1_555 1_555
H28_2 C54_2 1_555 1_555
C55_2 C50_2 1_555 1_555
H29_2 C55_2 1_555 1_555
C56_2 C53_2 1_555 1_555
N5_2 Nd9 1_555 1_555
N6_2 Nd9 1_555 1_555
N7_2 C41_2 1_555 1_555
N8_2 C42_2 1_555 1_555
H30_2 N8_2 1_555 1_555
O14 C56_2 1_555 1_555
O19 Nd7 1_555 1_555
O20 Nd9 1_555 1_555
C10_2 N2_2 1_555 1_555
C11_2 C12_2 1_555 1_555
C11_2 N2_2 1_555 1_555
C12_2 N1_2 1_555 1_555
C13_2 N3_2 1_555 1_555
C13_2 N4_2 1_555 1_555
C29_3 O5_2 1_555 1_555
C37_2 N5_2 1_555 1_555
C46_2 N6_2 1_555 1_555
C47_2 C48_2 1_555 1_555
C47_2 N6_2 1_555 1_555
C48_2 N5_2 1_555 1_555
C49_2 N7_2 1_555 1_555
C49_2 N8_2 1_555 1_555
C54_2 C55_2 1_555 1_555
C15_2 H7_2 1_555 1_555
C16_2 C15_2 1_555 1_555
H8_2 C16_2 1_555 1_555
C17_2 C16_2 1_555 1_555
C18_2 C17_2 1_555 1_555
H9_2 C18_2 1_555 1_555
C20_2 C17_2 1_555 1_555
O13 C20_2 1_555 1_555
C25_3 C26_2 1_555 1_555
C26_2 H13_2 1_555 1_555
C27_2 C26_2 1_555 1_555
H14_2 C27_2 1_555 1_555
C28_3 C27_2 1_555 1_555
C30_3 C28_3 1_555 1_555
O19 C30_3 1_555 1_555
C35_2 C25_3 1_555 1_555
H18_2 C35_2 1_555 1_555
C36_2 C28_3 1_555 1_555
H19_2 C36_2 1_555 1_555
O20 C30_3 1_555 1_555
C35_2 C36_2 1_555 1_555
O12_2 Nd7_2 1_555 1_555
C25_4 C26_3 1_555 1_555
C26_3 H13_3 1_555 1_555
C27_3 C26_3 1_555 1_555
H14_3 C27_3 1_555 1_555
C28_4 C27_3 1_555 1_555
C30_4 C28_4 1_555 1_555
O6_2 C30_4 1_555 1_555
C35_3 C25_4 1_555 1_555
H18_3 C35_3 1_555 1_555
C36_3 C28_4 1_555 1_555
H19_3 C36_3 1_555 1_555
O10_2 C30_4 1_555 1_555
Nd3_2 O6_2 1_555 1_555
Nd4_2 O10_2 1_555 1_555
C35_3 C36_3 1_555 1_555
C15_3 H7_3 1_555 1_555
C16_3 C15_3 1_555 1_555
H8_3 C16_3 1_555 1_555
C17_3 C16_3 1_555 1_555
C18_3 C17_3 1_555 1_555
H9_3 C18_3 1_555 1_555
C20_3 C17_3 1_555 1_555
O1_2 C20_3 1_555 1_555
Nd7_2 O1_2 1_555 1_555
Nd3_2 N1_3 1_555 1_555
C1_3 H1_3 1_555 1_555
C2_3 C1_3 1_555 1_555
H2_3 C2_3 1_555 1_555
C3_3 C2_3 1_555 1_555
H3_3 C3_3 1_555 1_555
C4_3 C3_3 1_555 1_555
C5_3 C4_3 1_555 1_555
C6_3 C5_3 1_555 1_555
C7_3 C6_3 1_555 1_555
C8_3 C7_3 1_555 1_555
C9_3 C8_3 1_555 1_555
C10_3 C9_3 1_555 1_555
H6_3 C10_3 1_555 1_555
C11_3 C7_3 1_555 1_555
C12_3 C4_3 1_555 1_555
C13_3 C14_3 1_555 1_555
C19_3 C14_3 1_555 1_555
H10_3 C19_3 1_555 1_555
C21_3 H11_3 1_555 1_555
C22_3 C21_3 1_555 1_555
H12_3 C22_3 1_555 1_555
C23_3 C22_3 1_555 1_555
C24_3 C23_3 1_555 1_555
N1_3 C1_3 1_555 1_555
N2_3 Nd3_2 1_555 1_555
N3_3 C5_3 1_555 1_555
N4_3 C6_3 1_555 1_555
H15_3 N4_3 1_555 1_555
O3_2 Nd3_2 1_555 1_555
O4_2 Nd3_2 1_555 1_555
O5_3 Nd3_2 1_555 1_555
C31_3 C23_3 1_555 1_555
H16_3 C31_3 1_555 1_555
C32_3 C31_3 1_555 1_555
H17_3 C32_3 1_555 1_555
C33_3 C21_3 1_555 1_555
C34_3 C33_3 1_555 1_555
O7_3 C34_3 1_555 1_555
O8_3 C34_3 1_555 1_555
O9_3 C29_4 1_555 1_555
Nd4_2 O9_3 1_555 1_555
C37_3 H20_3 1_555 1_555
C38_3 C37_3 1_555 1_555
H21_3 C38_3 1_555 1_555
C39_3 C38_3 1_555 1_555
H22_3 C39_3 1_555 1_555
C40_3 C39_3 1_555 1_555
C41_3 C40_3 1_555 1_555
C42_3 C41_3 1_555 1_555
C43_3 C42_3 1_555 1_555
C44_3 C43_3 1_555 1_555
C45_3 C44_3 1_555 1_555
C46_3 C45_3 1_555 1_555
H25_3 C46_3 1_555 1_555
C47_3 C43_3 1_555 1_555
C48_3 C40_3 1_555 1_555
C49_3 C50_3 1_555 1_555
C50_3 C51_3 1_555 1_555
C51_3 H26_3 1_555 1_555
C52_3 C51_3 1_555 1_555
H27_3 C52_3 1_555 1_555
C53_3 C52_3 1_555 1_555
C54_3 C53_3 1_555 1_555
H28_3 C54_3 1_555 1_555
C55_3 C50_3 1_555 1_555
H29_3 C55_3 1_555 1_555
C56_3 C53_3 1_555 1_555
N5_3 Nd4_2 1_555 1_555
N6_3 Nd4_2 1_555 1_555
N7_3 C41_3 1_555 1_555
N8_3 C42_3 1_555 1_555
H30_3 N8_3 1_555 1_555
O11_2 C56_3 1_555 1_555
Nd7_2 O7_3 1_555 1_555
Nd9_2 O11_2 1_555 1_555
O13_2 Nd3_2 1_555 1_555
O14_2 Nd3_2 1_555 1_555
O15_2 Nd4_2 1_555 1_555
O16_2 Nd3_2 1_555 1_555
O17_2 Nd4_2 1_555 1_555
O18_2 Nd4_2 1_555 1_555
C10_3 N2_3 1_555 1_555
C11_3 C12_3 1_555 1_555
C11_3 N2_3 1_555 1_555
C12_3 N1_3 1_555 1_555
C13_3 N3_3 1_555 1_555
C13_3 N4_3 1_555 1_555
C24_3 O3_2 1_555 1_555
C24_3 O4_2 1_555 1_555
C29_4 O5_3 1_555 1_555
C32_3 C33_3 1_555 1_555
O8_3 Nd7_2 1_555 1_555
Nd4_2 O13_2 1_555 1_555
Nd4_2 O14_2 1_555 1_555
C37_3 N5_3 1_555 1_555
C46_3 N6_3 1_555 1_555
C47_3 C48_3 1_555 1_555
C47_3 N6_3 1_555 1_555
C48_3 N5_3 1_555 1_555
C49_3 N7_3 1_555 1_555
C49_3 N8_3 1_555 1_555
C54_3 C55_3 1_555 1_555
O2_2 Nd9_2 1_555 1_555
C21_4 H11_4 1_555 1_555
H17_4 C32_4 1_555 1_555
C33_4 C21_4 1_555 1_555
C34_4 C33_4 1_555 1_555
O7_4 C34_4 1_555 1_555
O8_4 C34_4 1_555 1_555
Nd9_2 O7_4 1_555 1_555
C32_4 C33_4 1_555 1_555
O8_4 Nd9_2 1_555 1_555
H12_4 C22_4 1_555 1_555
C23_4 C22_4 1_555 1_555
C24_4 C23_4 1_555 1_555
C31_4 C23_4 1_555 1_555
H16_4 C31_4 1_555 1_555
C24_4 O17_2 1_555 1_555
C24_4 O18_2 1_555 1_555
C1_4 H1_4 1_555 1_555
C2_4 C1_4 1_555 1_555
H2_4 C2_4 1_555 1_555
C3_4 C2_4 1_555 1_555
H3_4 C3_4 1_555 1_555
Nd7_2 N1_4 1_555 1_555
C5_4 C4_4 1_555 1_555
C6_4 C5_4 1_555 1_555
C7_4 C6_4 1_555 1_555
C8_4 C7_4 1_555 1_555
H4_4 C8_4 1_555 1_555
C9_4 C8_4 1_555 1_555
H5_4 C9_4 1_555 1_555
C10_4 C9_4 1_555 1_555
H6_4 C10_4 1_555 1_555
C11_4 C7_4 1_555 1_555
C12_4 C4_4 1_555 1_555
C13_4 C14_4 1_555 1_555
C19_4 C14_4 1_555 1_555
H10_4 C19_4 1_555 1_555
C29_5 C25_5 1_555 1_555
C30_5 C28_5 1_555 1_555
N2_4 Nd7_2 1_555 1_555
N3_4 C5_4 1_555 1_555
N4_4 C6_4 1_555 1_555
H15_4 N4_4 1_555 1_555
O5_4 Nd7_2 1_555 1_555
O19_2 C30_5 1_555 1_555
C35_4 C25_5 1_555 1_555
H18_4 C35_4 1_555 1_555
C36_4 C28_5 1_555 1_555
H19_4 C36_4 1_555 1_555
C10_4 N2_4 1_555 1_555
C11_4 C12_4 1_555 1_555
C11_4 N2_4 1_555 1_555
C12_4 N1_4 1_555 1_555
C13_4 N3_4 1_555 1_555
C13_4 N4_4 1_555 1_555
C29_5 O5_4 1_555 1_555
C35_4 C36_4 1_555 1_555
C15_4 H7_4 1_555 1_555
C16_4 C15_4 1_555 1_555
H8_4 C16_4 1_555 1_555
C17_4 C16_4 1_555 1_555
C18_4 C17_4 1_555 1_555
H9_4 C18_4 1_555 1_555
C20_4 C17_4 1_555 1_555
O13_2 C20_4 1_555 1_555
O15_2 C20_4 1_555 1_555
C37_4 H20_4 1_555 1_555
C38_4 C37_4 1_555 1_555
H21_4 C38_4 1_555 1_555
C39_4 C38_4 1_555 1_555
H22_4 C39_4 1_555 1_555
C25_6 C26_4 1_555 1_555
C26_4 H13_4 1_555 1_555
C27_4 C26_4 1_555 1_555
H14_4 C27_4 1_555 1_555
C28_6 C27_4 1_555 1_555
C29_6 C25_6 1_555 1_555
C30_6 C28_6 1_555 1_555
O9_4 C29_6 1_555 1_555
O20_2 C30_6 1_555 1_555
Nd9_2 O9_4 1_555 1_555
C41_4 C40_4 1_555 1_555
C42_4 C41_4 1_555 1_555
C43_4 C42_4 1_555 1_555
C44_4 C43_4 1_555 1_555
H23_4 C44_4 1_555 1_555
C45_4 C44_4 1_555 1_555
H24_4 C45_4 1_555 1_555
C46_4 C45_4 1_555 1_555
H25_4 C46_4 1_555 1_555
C47_4 C43_4 1_555 1_555
C48_4 C40_4 1_555 1_555
C49_4 C50_4 1_555 1_555
C50_4 C51_4 1_555 1_555
C51_4 H26_4 1_555 1_555
C52_4 C51_4 1_555 1_555
H27_4 C52_4 1_555 1_555
C53_4 C52_4 1_555 1_555
C54_4 C53_4 1_555 1_555
H28_4 C54_4 1_555 1_555
C55_4 C50_4 1_555 1_555
H29_4 C55_4 1_555 1_555
C56_4 C53_4 1_555 1_555
N5_4 Nd9_2 1_555 1_555
N6_4 Nd9_2 1_555 1_555
N7_4 C41_4 1_555 1_555
N8_4 C42_4 1_555 1_555
H30_4 N8_4 1_555 1_555
O14_2 C56_4 1_555 1_555
O16_2 C56_4 1_555 1_555
C46_4 N6_4 1_555 1_555
C47_4 C48_4 1_555 1_555
C47_4 N6_4 1_555 1_555
C48_4 N5_4 1_555 1_555
C49_4 N7_4 1_555 1_555
C49_4 N8_4 1_555 1_555
C54_4 C55_4 1_555 1_555

#END
