
###############################################################################
#
# This file contains modified crystal structure data generated from the
# MOF subset of the Cambridge Structural Database (CSD) v543 
# hosted by the Cambridge Crystallographic Data Centre (CCDC).
#
# This work is licensed under the Creative Commons
# Attribution-NonCommercial-ShareAlike 4.0 International License.
# To view a copy of this license, visit
# http://creativecommons.org/licenses/by-nc-sa/4.0/
# or send a letter to
# Creative Commons, PO Box 1866, Mountain View, CA 94042, USA.
#
# CIF created using the CSD Python API on 29 September 2022
# The structure has been converted into the P1 space group
# The structure has a 3D framework
# The original CSD entry NAVKED is in the monoclinic crystal system
# The framework has been calculated to contain at least 10.0% void space
# The void calculation uses a probe of radius 1.32A, grid spacing 0.4
#
###############################################################################

data_NAVKED
_chemical_formula_moiety         '(C232 H120 N32 O44 Pr8)n'
_symmetry_cell_setting           triclinic
_symmetry_space_group_name_H-M   'P 1'
_symmetry_Int_Tables_number      1
_space_group_name_Hall           'P 1'
loop_
_symmetry_equiv_pos_site_id
_symmetry_equiv_pos_as_xyz
1 x,y,z
_cell_length_a                   24.3757(10)
_cell_length_b                   11.3280(5)
_cell_length_c                   20.2420(8)
_cell_angle_alpha                90
_cell_angle_beta                 94.9290(10)
_cell_angle_gamma                90
_cell_volume                     5568.71
loop_
_atom_site_label
_atom_site_type_symbol
_atom_site_fract_x
_atom_site_fract_y
_atom_site_fract_z
O12 O 0.02986(11) 0.1085(3) 0.89802(14)
Pr7 Pr 0.076892(8) 0.162393(17) 0.793036(9)
Pr1 Pr 0.423108(8) 0.337607(17) 0.206964(9)
C1 C 0.34302(17) 0.0861(4) 0.2293(2)
H1 H 0.3668 0.0612 0.1986
C2 C 0.30666(17) 0.0036(4) 0.2525(2)
C3 C 0.27106(16) 0.0386(4) 0.2968(2)
C4 C 0.27229(16) 0.1559(3) 0.31884(19)
C5 C 0.23889(16) 0.2021(4) 0.36691(19)
C6 C 0.24340(16) 0.3167(4) 0.39004(19)
C7 C 0.28191(16) 0.3976(4) 0.36554(19)
C8 C 0.28845(17) 0.5153(4) 0.3865(2)
H4 H 0.2677 0.5449 0.4193
C9 C 0.32551(18) 0.5862(4) 0.3584(2)
H5 H 0.3300 0.6646 0.3714
C10 C 0.35643(17) 0.5385(4) 0.3099(2)
H6 H 0.3814 0.5875 0.2910
C11 C 0.31511(15) 0.3562(3) 0.31610(19)
C12 C 0.31063(14) 0.2340(4) 0.29389(18)
C13 C 0.18105(16) 0.2340(4) 0.4421(2)
C14 C 0.13812(15) 0.2111(4) 0.48740(19)
C15 C 0.10637(17) 0.1085(4) 0.4821(2)
H7 H 0.1118 0.0539 0.4489
C16 C 0.06692(17) 0.0874(4) 0.5256(2)
H8 H 0.0454 0.0195 0.5213
C17 C 0.05946(16) 0.1679(4) 0.57583(19)
C18 C 0.09065(17) 0.2694(4) 0.5812(2)
H9 H 0.0857 0.3228 0.6151
C19 C 0.12907(17) 0.2921(4) 0.5367(2)
H10 H 0.1490 0.3621 0.5398
C20 C 0.01642(15) 0.1459(3) 0.62296(19)
C23 C 0.29280(16) 0.2817(4) 0.04631(19)
C24 C 0.33889(16) 0.3099(4) 0.09732(19)
C29 C 0.5000 0.0914(5) 0.2500
N1 N 0.34544(13) 0.1980(3) 0.24877(16)
N2 N 0.35230(13) 0.4266(3) 0.28908(16)
N3 N 0.20665(14) 0.3365(3) 0.43725(17)
N4 N 0.19860(13) 0.1506(3) 0.40052(16)
H15 H 0.1867 0.0793 0.3961
O1 O 0.02767(11) 0.1712(2) 0.68389(13)
O3 O 0.33894(10) 0.4067(2) 0.12945(13)
O4 O 0.37639(11) 0.2348(3) 0.10860(13)
O5 O 0.46043(12) 0.1427(2) 0.21689(16)
C31 C 0.24232(18) 0.3356(4) 0.0467(2)
H16 H 0.2370 0.3933 0.0782
C32 C 0.19914(18) 0.3049(4) 0.0006(2)
H17 H 0.1651 0.3419 0.0012
O9 O 0.53957(12) 0.1427(2) 0.28311(16)
Pr2 Pr 0.576892(8) 0.337607(17) 0.293036(9)
C37 C 0.65698(17) 0.0861(4) 0.2707(2)
H20 H 0.6332 0.0612 0.3014
C38 C 0.69334(17) 0.0036(4) 0.2475(2)
C39 C 0.72894(16) 0.0386(4) 0.2032(2)
C40 C 0.72771(16) 0.1559(3) 0.18116(19)
C41 C 0.76111(16) 0.2021(4) 0.13309(19)
C42 C 0.75660(16) 0.3167(4) 0.10996(19)
C43 C 0.71809(16) 0.3976(4) 0.13446(19)
C44 C 0.71155(17) 0.5153(4) 0.1135(2)
H23 H 0.7323 0.5449 0.0807
C45 C 0.67449(18) 0.5862(4) 0.1416(2)
H24 H 0.6700 0.6646 0.1286
C46 C 0.64357(17) 0.5385(4) 0.1901(2)
H25 H 0.6186 0.5875 0.2090
C47 C 0.68489(15) 0.3562(3) 0.18390(19)
C48 C 0.68937(14) 0.2340(4) 0.20611(18)
C49 C 0.81895(16) 0.2340(4) 0.0579(2)
C50 C 0.86188(15) 0.2111(4) 0.01260(19)
C51 C 0.89363(17) 0.1085(4) 0.0179(2)
H26 H 0.8882 0.0539 0.0511
N5 N 0.65456(13) 0.1980(3) 0.25123(16)
N6 N 0.64770(13) 0.4266(3) 0.21092(16)
N7 N 0.79335(14) 0.3365(3) 0.06275(17)
N8 N 0.80140(13) 0.1506(3) 0.09948(16)
H30 H 0.8133 0.0793 0.1039
O13 O 0.47233(11) 0.3288(2) 0.31611(13)
O14 O 0.52767(11) 0.3288(2) 0.18389(13)
O15 O 0.52986(11) 0.3915(3) 0.39802(14)
O16 O 0.47014(11) 0.3915(3) 0.10198(14)
O17 O 0.66106(10) 0.4067(2) 0.37055(13)
O18 O 0.62361(11) 0.2348(3) 0.39140(13)
O19 O 0.45706(11) 0.5333(2) 0.22501(14)
O20 O 0.54294(11) 0.5333(2) 0.27499(14)
C21 C 0.25768(18) 0.1644(4) 0.9533(2)
H11 H 0.2630 0.1067 0.9218
C22 C 0.30086(18) 0.1951(4) 0.9994(2)
H12 H 0.3349 0.1581 0.9988
C33 C 0.20720(16) 0.2183(4) 0.95369(19)
C34 C 0.16111(16) 0.1901(4) 0.90268(19)
O7 O 0.16106(10) 0.0933(2) 0.87055(13)
O8 O 0.12361(11) 0.2652(3) 0.89140(13)
C52 C 0.93308(17) 0.0874(4) 0.9744(2)
H27 H 0.9546 0.0195 0.9787
C53 C 0.94054(16) 0.1679(4) 0.92417(19)
C54 C 0.90935(17) 0.2694(4) 0.9188(2)
H28 H 0.9143 0.3228 0.8849
C55 C 0.87093(17) 0.2921(4) 0.9633(2)
H29 H 0.8510 0.3621 0.9602
C56 C 0.98358(15) 0.1459(3) 0.87704(19)
O11 O 0.97233(11) 0.1712(2) 0.81611(13)
Pr9 Pr 0.923108(8) 0.162393(17) 0.706964(9)
H2 H 0.3068 0.9258 0.2378
H3 H 0.2462 0.9853 0.3123
C25 C 0.5000 0.9603(5) 0.2500
C26 C 0.46679(18) 0.8988(4) 0.2024(3)
H13 H 0.4450 0.9399 0.1702
C27 C 0.46614(18) 0.7765(4) 0.2030(2)
H14 H 0.4431 0.7355 0.1719
C28 C 0.5000 0.7152(5) 0.2500
C30 C 0.5000 0.5843(5) 0.2500
C35 C 0.53321(18) 0.8988(4) 0.2976(3)
H18 H 0.5550 0.9399 0.3298
C36 C 0.53386(18) 0.7765(4) 0.2970(2)
H19 H 0.5569 0.7355 0.3281
H21 H 0.6932 0.9258 0.2622
H22 H 0.7538 0.9853 0.1877
O2 O 0.97014(11) 0.1085(3) 0.60198(14)
C21_2 C 0.74232(18) 0.1644(4) 0.5467(2)
H11_2 H 0.7370 0.1067 0.5782
C22_2 C 0.69914(18) 0.1951(4) 0.5006(2)
H12_2 H 0.6651 0.1581 0.5012
C23_2 C 0.70720(16) 0.2817(4) 0.45369(19)
C24_2 C 0.66111(16) 0.3099(4) 0.40268(19)
C31_2 C 0.75768(18) 0.3356(4) 0.4533(2)
H16_2 H 0.7630 0.3933 0.4218
C32_2 C 0.80086(18) 0.3049(4) 0.4994(2)
H17_2 H 0.8349 0.3419 0.4988
C33_2 C 0.79280(16) 0.2183(4) 0.54631(19)
C34_2 C 0.83889(16) 0.1901(4) 0.59732(19)
O7_2 O 0.83894(10) 0.0933(2) 0.62945(13)
O8_2 O 0.87639(11) 0.2652(3) 0.60860(13)
C1_2 C 0.15698(17) 0.4139(4) 0.7707(2)
H1_2 H 0.1332 0.4388 0.8014
C2_2 C 0.19334(17) 0.4964(4) 0.7475(2)
H2_2 H 0.1932 0.5742 0.7622
C3_2 C 0.22894(16) 0.4614(4) 0.7032(2)
H3_2 H 0.2538 0.5147 0.6877
C4_2 C 0.22771(16) 0.3441(3) 0.68116(19)
C5_2 C 0.26111(16) 0.2979(4) 0.63309(19)
C6_2 C 0.25660(16) 0.1833(4) 0.60996(19)
C7_2 C 0.21809(16) 0.1024(4) 0.63446(19)
C11_2 C 0.18489(15) 0.1438(3) 0.68390(19)
C12_2 C 0.18937(14) 0.2660(4) 0.70611(18)
C13_2 C 0.31895(16) 0.2660(4) 0.5579(2)
C14_2 C 0.36188(15) 0.2889(4) 0.51260(19)
C15_2 C 0.39363(17) 0.3915(4) 0.5179(2)
H7_2 H 0.3882 0.4461 0.5511
C16_2 C 0.43308(17) 0.4126(4) 0.4744(2)
H8_2 H 0.4546 0.4805 0.4787
C17_2 C 0.44054(16) 0.3321(4) 0.42417(19)
C18_2 C 0.40935(17) 0.2306(4) 0.4188(2)
H9_2 H 0.4143 0.1772 0.3849
C19_2 C 0.37093(17) 0.2079(4) 0.4633(2)
H10_2 H 0.3510 0.1379 0.4602
C20_2 C 0.48358(15) 0.3541(3) 0.37704(19)
C25_2 C 0.0000 0.5397(5) 0.7500
C26_2 C 0.03321(18) 0.6012(4) 0.7976(3)
H13_2 H 0.0550 0.5601 0.8298
C27_2 C 0.03386(18) 0.7235(4) 0.7970(2)
H14_2 H 0.0569 0.7645 0.8281
C28_2 C -0.0000 0.7848(5) 0.7500
C29_2 C -0.0000 0.4086(5) 0.7500
C30_2 C -0.0000 0.9157(5) 0.7500
N1_2 N 0.15456(13) 0.3020(3) 0.75123(16)
N2_2 N 0.14770(13) 0.0734(3) 0.71092(16)
N3_2 N 0.29335(14) 0.1635(3) 0.56275(17)
N4_2 N 0.30140(13) 0.3494(3) 0.59948(16)
H15_2 H 0.3133 0.4207 0.6039
O5_2 O 0.03957(12) 0.3573(2) 0.78311(16)
O6 O 0.04294(11) 0.9667(2) 0.77499(14)
C8_2 C 0.21155(17) 0.9847(4) 0.6135(2)
H4_2 H 0.2323 0.9551 0.5807
C9_2 C 0.17449(18) 0.9138(4) 0.6416(2)
H5_2 H 0.1700 0.8354 0.6286
C10_2 C 0.14357(17) 0.9615(4) 0.6901(2)
H6_2 H 0.1186 0.9125 0.7090
C52_2 C 0.56692(17) 0.4126(4) 0.0256(2)
H27_2 H 0.5454 0.4805 0.0213
C53_2 C 0.55946(16) 0.3321(4) 0.07583(19)
C54_2 C 0.59065(17) 0.2306(4) 0.0812(2)
H28_2 H 0.5857 0.1772 0.1151
C55_2 C 0.62907(17) 0.2079(4) 0.0367(2)
H29_2 H 0.6490 0.1379 0.0398
C56_2 C 0.51642(15) 0.3541(3) 0.12296(19)
C25_3 C 1.0000 0.5397(5) 0.7500
C28_3 C 1.0000 0.7848(5) 0.7500
C29_3 C 1.0000 0.4086(5) 0.7500
C30_3 C 1.0000 0.9157(5) 0.7500
C35_2 C 0.96679(18) 0.6012(4) 0.7024(3)
H18_2 H 0.9450 0.5601 0.6702
C36_2 C 0.96614(18) 0.7235(4) 0.7030(2)
H19_2 H 0.9431 0.7645 0.6719
O9_2 O 0.96043(12) 0.3573(2) 0.71689(16)
O10 O 0.95706(11) 0.9667(2) 0.72501(14)
C37_2 C 0.84302(17) 0.4139(4) 0.7293(2)
H20_2 H 0.8668 0.4388 0.6986
C38_2 C 0.80666(17) 0.4964(4) 0.7525(2)
H21_2 H 0.8068 0.5742 0.7378
C39_2 C 0.77106(16) 0.4614(4) 0.7968(2)
H22_2 H 0.7462 0.5147 0.8123
C40_2 C 0.77229(16) 0.3441(3) 0.81884(19)
C41_2 C 0.73889(16) 0.2979(4) 0.86691(19)
C42_2 C 0.74340(16) 0.1833(4) 0.89004(19)
C43_2 C 0.78191(16) 0.1024(4) 0.86554(19)
C47_2 C 0.81511(15) 0.1438(3) 0.81610(19)
C48_2 C 0.81063(14) 0.2660(4) 0.79389(18)
C49_2 C 0.68105(16) 0.2660(4) 0.9421(2)
C50_2 C 0.63812(15) 0.2889(4) 0.98740(19)
C51_2 C 0.60637(17) 0.3915(4) 0.9821(2)
H26_2 H 0.6118 0.4461 0.9489
N5_2 N 0.84544(13) 0.3020(3) 0.74877(16)
N6_2 N 0.85230(13) 0.0734(3) 0.78908(16)
N7_2 N 0.70665(14) 0.1635(3) 0.93725(17)
N8_2 N 0.69860(13) 0.3494(3) 0.90052(16)
H30_2 H 0.6867 0.4207 0.8961
C44_2 C 0.78845(17) 0.9847(4) 0.8865(2)
H23_2 H 0.7677 0.9551 0.9193
C45_2 C 0.82551(18) 0.9138(4) 0.8584(2)
H24_2 H 0.8300 0.8354 0.8714
C46_2 C 0.85643(17) 0.9615(4) 0.8099(2)
H25_2 H 0.8814 0.9125 0.7910
C44_3 C 0.21155(17) 0.0153(4) 0.1135(2)
H23_3 H 0.2323 0.0449 0.0807
C45_3 C 0.17449(18) 0.0862(4) 0.1416(2)
H24_3 H 0.1700 0.1646 0.1286
C46_3 C 0.14357(17) 0.0385(4) 0.1901(2)
H25_3 H 0.1186 0.0875 0.2090
O20_2 O 0.04294(11) 0.0333(2) 0.27499(14)
C25_4 C -0.0000 0.4603(5) 0.2500
C28_4 C -0.0000 0.2152(5) 0.2500
C29_4 C -0.0000 0.5914(5) 0.2500
C30_4 C -0.0000 0.0843(5) 0.2500
C35_3 C 0.03321(18) 0.3988(4) 0.2976(3)
H18_3 H 0.0550 0.4399 0.3298
C36_3 C 0.03386(18) 0.2765(4) 0.2970(2)
H19_3 H 0.0569 0.2355 0.3281
O9_3 O 0.03957(12) 0.6427(2) 0.28311(16)
Pr2_2 Pr 0.076892(8) 0.837607(17) 0.293036(9)
C37_3 C 0.15698(17) 0.5861(4) 0.2707(2)
H20_3 H 0.1332 0.5612 0.3014
C38_3 C 0.19334(17) 0.5036(4) 0.2475(2)
H21_3 H 0.1932 0.4258 0.2622
C39_3 C 0.22894(16) 0.5386(4) 0.2032(2)
H22_3 H 0.2538 0.4853 0.1877
C40_3 C 0.22771(16) 0.6559(3) 0.18116(19)
C41_3 C 0.26111(16) 0.7021(4) 0.13309(19)
C42_3 C 0.25660(16) 0.8167(4) 0.10996(19)
C43_3 C 0.21809(16) 0.8976(4) 0.13446(19)
C47_3 C 0.18489(15) 0.8562(3) 0.18390(19)
C48_3 C 0.18937(14) 0.7340(4) 0.20611(18)
C49_3 C 0.31895(16) 0.7340(4) 0.0579(2)
C50_3 C 0.36188(15) 0.7111(4) 0.01260(19)
C51_3 C 0.39363(17) 0.6085(4) 0.0179(2)
H26_3 H 0.3882 0.5539 0.0511
N5_3 N 0.15456(13) 0.6980(3) 0.25123(16)
N6_3 N 0.14770(13) 0.9266(3) 0.21092(16)
N7_3 N 0.29335(14) 0.8365(3) 0.06275(17)
N8_3 N 0.30140(13) 0.6506(3) 0.09948(16)
H30_3 H 0.3133 0.5793 0.1039
O14_2 O 0.02767(11) 0.8288(2) 0.18389(13)
O15_2 O 0.02986(11) 0.8915(3) 0.39802(14)
O17_2 O 0.16106(10) 0.9067(2) 0.37055(13)
O18_2 O 0.12361(11) 0.7348(3) 0.39140(13)
C52_3 C 0.43308(17) 0.5874(4) 0.9744(2)
H27_3 H 0.4546 0.5195 0.9787
C53_3 C 0.44054(16) 0.6679(4) 0.92417(19)
C54_3 C 0.40935(17) 0.7694(4) 0.9188(2)
H28_3 H 0.4143 0.8228 0.8849
C55_3 C 0.37093(17) 0.7921(4) 0.9633(2)
H29_3 H 0.3510 0.8621 0.9602
C56_3 C 0.48358(15) 0.6459(3) 0.87704(19)
O11_2 O 0.47233(11) 0.6712(2) 0.81611(13)
O12_2 O 0.52986(11) 0.6085(3) 0.89802(14)
Pr7_2 Pr 0.576892(8) 0.662393(17) 0.793036(9)
Pr9_2 Pr 0.423108(8) 0.662393(17) 0.706964(9)
C8_3 C 0.78845(17) 0.0153(4) 0.3865(2)
H4_3 H 0.7677 0.0449 0.4193
C9_3 C 0.82551(18) 0.0862(4) 0.3584(2)
H5_3 H 0.8300 0.1646 0.3714
C10_3 C 0.85643(17) 0.0385(4) 0.3099(2)
H6_3 H 0.8814 0.0875 0.2910
O19_2 O 0.95706(11) 0.0333(2) 0.22501(14)
Pr1_2 Pr 0.923108(8) 0.837607(17) 0.206964(9)
C1_3 C 0.84302(17) 0.5861(4) 0.2293(2)
H1_3 H 0.8668 0.5612 0.1986
C2_3 C 0.80666(17) 0.5036(4) 0.2525(2)
H2_3 H 0.8068 0.4258 0.2378
C3_3 C 0.77106(16) 0.5386(4) 0.2968(2)
H3_3 H 0.7462 0.4853 0.3123
C4_3 C 0.77229(16) 0.6559(3) 0.31884(19)
C5_3 C 0.73889(16) 0.7021(4) 0.36691(19)
C6_3 C 0.74340(16) 0.8167(4) 0.39004(19)
C7_3 C 0.78191(16) 0.8976(4) 0.36554(19)
C11_3 C 0.81511(15) 0.8562(3) 0.31610(19)
C12_3 C 0.81063(14) 0.7340(4) 0.29389(18)
C13_3 C 0.68105(16) 0.7340(4) 0.4421(2)
C14_3 C 0.63812(15) 0.7111(4) 0.48740(19)
C15_3 C 0.60637(17) 0.6085(4) 0.4821(2)
H7_3 H 0.6118 0.5539 0.4489
C16_3 C 0.56692(17) 0.5874(4) 0.5256(2)
H8_3 H 0.5454 0.5195 0.5213
C17_3 C 0.55946(16) 0.6679(4) 0.57583(19)
C18_3 C 0.59065(17) 0.7694(4) 0.5812(2)
H9_3 H 0.5857 0.8228 0.6151
C19_3 C 0.62907(17) 0.7921(4) 0.5367(2)
H10_3 H 0.6490 0.8621 0.5398
C20_3 C 0.51642(15) 0.6459(3) 0.62296(19)
C23_3 C 0.79280(16) 0.7817(4) 0.04631(19)
C24_3 C 0.83889(16) 0.8099(4) 0.09732(19)
C25_5 C 1.0000 0.4603(5) 0.2500
C26_3 C 0.96679(18) 0.3988(4) 0.2024(3)
H13_3 H 0.9450 0.4399 0.1702
C27_3 C 0.96614(18) 0.2765(4) 0.2030(2)
H14_3 H 0.9431 0.2355 0.1719
C28_5 C 1.0000 0.2152(5) 0.2500
C29_5 C 1.0000 0.5914(5) 0.2500
C30_5 C 1.0000 0.0843(5) 0.2500
N1_3 N 0.84544(13) 0.6980(3) 0.24877(16)
N2_3 N 0.85230(13) 0.9266(3) 0.28908(16)
N3_3 N 0.70665(14) 0.8365(3) 0.43725(17)
N4_3 N 0.69860(13) 0.6506(3) 0.40052(16)
H15_3 H 0.6867 0.5793 0.3961
O1_2 O 0.52767(11) 0.6712(2) 0.68389(13)
O2_2 O 0.47014(11) 0.6085(3) 0.60198(14)
O3_2 O 0.83894(10) 0.9067(2) 0.12945(13)
O4_2 O 0.87639(11) 0.7348(3) 0.10860(13)
O5_3 O 0.96043(12) 0.6427(2) 0.21689(16)
C31_3 C 0.74232(18) 0.8356(4) 0.0467(2)
H16_3 H 0.7370 0.8933 0.0782
C32_3 C 0.69914(18) 0.8049(4) 0.0006(2)
H17_3 H 0.6651 0.8419 0.0012
O13_2 O 0.97233(11) 0.8288(2) 0.31611(13)
O16_2 O 0.97014(11) 0.8915(3) 0.10198(14)
C21_3 C 0.75768(18) 0.6644(4) 0.9533(2)
H11_3 H 0.7630 0.6067 0.9218
C22_3 C 0.80086(18) 0.6951(4) 0.9994(2)
H12_3 H 0.8349 0.6581 0.9988
C33_3 C 0.70720(16) 0.7183(4) 0.95369(19)
C34_3 C 0.66111(16) 0.6901(4) 0.90268(19)
O7_3 O 0.66106(10) 0.5933(2) 0.87055(13)
O8_3 O 0.62361(11) 0.7652(3) 0.89140(13)
C21_4 C 0.24232(18) 0.6644(4) 0.5467(2)
H11_4 H 0.2370 0.6067 0.5782
C22_4 C 0.19914(18) 0.6951(4) 0.5006(2)
H12_4 H 0.1651 0.6581 0.5012
C23_4 C 0.20720(16) 0.7817(4) 0.45369(19)
C24_4 C 0.16111(16) 0.8099(4) 0.40268(19)
C31_4 C 0.25768(18) 0.8356(4) 0.4533(2)
H16_4 H 0.2630 0.8933 0.4218
C32_4 C 0.30086(18) 0.8049(4) 0.4994(2)
H17_4 H 0.3349 0.8419 0.4988
C33_4 C 0.29280(16) 0.7183(4) 0.54631(19)
C34_4 C 0.33889(16) 0.6901(4) 0.59732(19)
O7_4 O 0.33894(10) 0.5933(2) 0.62945(13)
O8_4 O 0.37639(11) 0.7652(3) 0.60860(13)
H2_4 H 0.6932 0.0742 0.7622
H3_4 H 0.7538 0.0147 0.6877
C25_6 C 0.5000 0.0397(5) 0.7500
C26_4 C 0.53321(18) 0.1012(4) 0.7976(3)
H13_4 H 0.5550 0.0601 0.8298
C27_4 C 0.53386(18) 0.2235(4) 0.7970(2)
H14_4 H 0.5569 0.2645 0.8281
C28_6 C 0.5000 0.2848(5) 0.7500
C30_6 C 0.5000 0.4157(5) 0.7500
O6_2 O 0.54294(11) 0.4667(2) 0.77499(14)
C35_4 C 0.46679(18) 0.1012(4) 0.7024(3)
H18_4 H 0.4450 0.0601 0.6702
C36_4 C 0.46614(18) 0.2235(4) 0.7030(2)
H19_4 H 0.4431 0.2645 0.6719
O10_2 O 0.45706(11) 0.4667(2) 0.72501(14)
H21_4 H 0.3068 0.0742 0.7378
H22_4 H 0.2462 0.0147 0.8123
C52_4 C 0.06692(17) 0.9126(4) 0.0256(2)
H27_4 H 0.0454 0.9805 0.0213
C53_4 C 0.05946(16) 0.8321(4) 0.07583(19)
C54_4 C 0.09065(17) 0.7306(4) 0.0812(2)
H28_4 H 0.0857 0.6772 0.1151
C55_4 C 0.12907(17) 0.7079(4) 0.0367(2)
H29_4 H 0.1490 0.6379 0.0398
C56_4 C 0.01642(15) 0.8541(3) 0.12296(19)
C1_4 C 0.65698(17) 0.9139(4) 0.7707(2)
H1_4 H 0.6332 0.9388 0.8014
C2_4 C 0.69334(17) 0.9964(4) 0.7475(2)
C3_4 C 0.72894(16) 0.9614(4) 0.7032(2)
C4_4 C 0.72771(16) 0.8441(3) 0.68116(19)
C5_4 C 0.76111(16) 0.7979(4) 0.63309(19)
C6_4 C 0.75660(16) 0.6833(4) 0.60996(19)
C7_4 C 0.71809(16) 0.6024(4) 0.63446(19)
C8_4 C 0.71155(17) 0.4847(4) 0.6135(2)
H4_4 H 0.7323 0.4551 0.5807
C9_4 C 0.67449(18) 0.4138(4) 0.6416(2)
H5_4 H 0.6700 0.3354 0.6286
C10_4 C 0.64357(17) 0.4615(4) 0.6901(2)
H6_4 H 0.6186 0.4125 0.7090
C11_4 C 0.68489(15) 0.6438(3) 0.68390(19)
C12_4 C 0.68937(14) 0.7660(4) 0.70611(18)
C13_4 C 0.81895(16) 0.7660(4) 0.5579(2)
C14_4 C 0.86188(15) 0.7889(4) 0.51260(19)
C15_4 C 0.89363(17) 0.8915(4) 0.5179(2)
H7_4 H 0.8882 0.9461 0.5511
C16_4 C 0.93308(17) 0.9126(4) 0.4744(2)
H8_4 H 0.9546 0.9805 0.4787
C17_4 C 0.94054(16) 0.8321(4) 0.42417(19)
C18_4 C 0.90935(17) 0.7306(4) 0.4188(2)
H9_4 H 0.9143 0.6772 0.3849
C19_4 C 0.87093(17) 0.7079(4) 0.4633(2)
H10_4 H 0.8510 0.6379 0.4602
C20_4 C 0.98358(15) 0.8541(3) 0.37704(19)
C29_6 C 0.5000 0.9086(5) 0.7500
N1_4 N 0.65456(13) 0.8020(3) 0.75123(16)
N2_4 N 0.64770(13) 0.5734(3) 0.71092(16)
N3_4 N 0.79335(14) 0.6635(3) 0.56275(17)
N4_4 N 0.80140(13) 0.8494(3) 0.59948(16)
H15_4 H 0.8133 0.9207 0.6039
O5_4 O 0.53957(12) 0.8573(2) 0.78311(16)
O9_4 O 0.46043(12) 0.8573(2) 0.71689(16)
C37_4 C 0.34302(17) 0.9139(4) 0.7293(2)
H20_4 H 0.3668 0.9388 0.6986
C38_4 C 0.30666(17) 0.9964(4) 0.7525(2)
C39_4 C 0.27106(16) 0.9614(4) 0.7968(2)
C40_4 C 0.27229(16) 0.8441(3) 0.81884(19)
C41_4 C 0.23889(16) 0.7979(4) 0.86691(19)
C42_4 C 0.24340(16) 0.6833(4) 0.89004(19)
C43_4 C 0.28191(16) 0.6024(4) 0.86554(19)
C44_4 C 0.28845(17) 0.4847(4) 0.8865(2)
H23_4 H 0.2677 0.4551 0.9193
C45_4 C 0.32551(18) 0.4138(4) 0.8584(2)
H24_4 H 0.3300 0.3354 0.8714
C46_4 C 0.35643(17) 0.4615(4) 0.8099(2)
H25_4 H 0.3814 0.4125 0.7910
C47_4 C 0.31511(15) 0.6438(3) 0.81610(19)
C48_4 C 0.31063(14) 0.7660(4) 0.79389(18)
C49_4 C 0.18105(16) 0.7660(4) 0.9421(2)
C50_4 C 0.13812(15) 0.7889(4) 0.98740(19)
C51_4 C 0.10637(17) 0.8915(4) 0.9821(2)
H26_4 H 0.1118 0.9461 0.9489
N5_4 N 0.34544(13) 0.8020(3) 0.74877(16)
N6_4 N 0.35230(13) 0.5734(3) 0.78908(16)
N7_4 N 0.20665(14) 0.6635(3) 0.93725(17)
N8_4 N 0.19860(13) 0.8494(3) 0.90052(16)
H30_4 H 0.1867 0.9207 0.8961
loop_
_geom_bond_atom_site_label_1
_geom_bond_atom_site_label_2
_geom_bond_site_symmetry_1
_geom_bond_site_symmetry_2
O12 Pr7 1_555 1_555
Pr1 N1 1_555 1_555
C1 H1 1_555 1_555
C2 C1 1_555 1_555
C3 C2 1_555 1_555
C4 C3 1_555 1_555
C5 C4 1_555 1_555
C6 C5 1_555 1_555
C7 C6 1_555 1_555
C8 C7 1_555 1_555
H4 C8 1_555 1_555
C9 C8 1_555 1_555
H5 C9 1_555 1_555
C10 C9 1_555 1_555
H6 C10 1_555 1_555
C11 C7 1_555 1_555
C12 C4 1_555 1_555
C13 C14 1_555 1_555
C14 C15 1_555 1_555
C15 H7 1_555 1_555
C16 C15 1_555 1_555
H8 C16 1_555 1_555
C17 C16 1_555 1_555
C18 C17 1_555 1_555
H9 C18 1_555 1_555
C19 C14 1_555 1_555
H10 C19 1_555 1_555
C20 C17 1_555 1_555
C24 C23 1_555 1_555
N1 C1 1_555 1_555
N2 Pr1 1_555 1_555
N3 C6 1_555 1_555
N4 C5 1_555 1_555
H15 N4 1_555 1_555
O1 C20 1_555 1_555
O3 Pr1 1_555 1_555
O4 Pr1 1_555 1_555
O5 Pr1 1_555 1_555
C31 C23 1_555 1_555
H16 C31 1_555 1_555
C32 C31 1_555 1_555
H17 C32 1_555 1_555
O9 C29 1_555 1_555
Pr2 O9 1_555 1_555
C37 H20 1_555 1_555
C38 C37 1_555 1_555
C39 C38 1_555 1_555
C40 C39 1_555 1_555
C41 C40 1_555 1_555
C42 C41 1_555 1_555
C43 C42 1_555 1_555
C44 C43 1_555 1_555
H23 C44 1_555 1_555
C45 C44 1_555 1_555
H24 C45 1_555 1_555
C46 C45 1_555 1_555
H25 C46 1_555 1_555
C47 C43 1_555 1_555
C48 C40 1_555 1_555
C49 C50 1_555 1_555
C50 C51 1_555 1_555
C51 H26 1_555 1_555
N5 Pr2 1_555 1_555
N6 Pr2 1_555 1_555
N7 C42 1_555 1_555
N8 C41 1_555 1_555
H30 N8 1_555 1_555
Pr7 O1 1_555 1_555
O13 Pr1 1_555 1_555
O14 Pr1 1_555 1_555
O15 Pr2 1_555 1_555
O16 Pr1 1_555 1_555
O17 Pr2 1_555 1_555
O18 Pr2 1_555 1_555
O19 Pr1 1_555 1_555
O20 Pr2 1_555 1_555
C10 N2 1_555 1_555
C11 C12 1_555 1_555
C11 N2 1_555 1_555
C12 N1 1_555 1_555
C13 N3 1_555 1_555
C13 N4 1_555 1_555
C18 C19 1_555 1_555
C24 O3 1_555 1_555
C24 O4 1_555 1_555
C29 O5 1_555 1_555
Pr2 O13 1_555 1_555
Pr2 O14 1_555 1_555
C37 N5 1_555 1_555
C46 N6 1_555 1_555
C47 C48 1_555 1_555
C47 N6 1_555 1_555
C48 N5 1_555 1_555
C49 N7 1_555 1_555
C49 N8 1_555 1_555
C21 H11 1_555 1_555
C22 C21 1_555 1_555
H12 C22 1_555 1_555
C33 C21 1_555 1_555
C34 C33 1_555 1_555
O7 C34 1_555 1_555
O8 C34 1_555 1_555
H27 C52 1_555 1_555
C53 C52 1_555 1_555
C54 C53 1_555 1_555
H28 C54 1_555 1_555
H29 C55 1_555 1_555
C56 C53 1_555 1_555
O11 C56 1_555 1_555
Pr7 O7 1_555 1_555
Pr9 O11 1_555 1_555
O8 Pr7 1_555 1_555
C54 C55 1_555 1_555
C25 C26 1_555 1_555
C26 H13 1_555 1_555
C27 C26 1_555 1_555
H14 C27 1_555 1_555
C28 C27 1_555 1_555
C30 C28 1_555 1_555
O19 C30 1_555 1_555
C35 C25 1_555 1_555
H18 C35 1_555 1_555
C36 C28 1_555 1_555
H19 C36 1_555 1_555
O20 C30 1_555 1_555
C35 C36 1_555 1_555
O2 Pr9 1_555 1_555
C21_2 H11_2 1_555 1_555
C22_2 C21_2 1_555 1_555
H12_2 C22_2 1_555 1_555
C23_2 C22_2 1_555 1_555
C24_2 C23_2 1_555 1_555
C31_2 C23_2 1_555 1_555
H16_2 C31_2 1_555 1_555
C32_2 C31_2 1_555 1_555
H17_2 C32_2 1_555 1_555
C33_2 C21_2 1_555 1_555
C34_2 C33_2 1_555 1_555
O7_2 C34_2 1_555 1_555
O8_2 C34_2 1_555 1_555
Pr9 O7_2 1_555 1_555
C24_2 O17 1_555 1_555
C24_2 O18 1_555 1_555
C32_2 C33_2 1_555 1_555
O8_2 Pr9 1_555 1_555
Pr7 N1_2 1_555 1_555
C1_2 H1_2 1_555 1_555
C2_2 C1_2 1_555 1_555
H2_2 C2_2 1_555 1_555
C3_2 C2_2 1_555 1_555
H3_2 C3_2 1_555 1_555
C4_2 C3_2 1_555 1_555
C5_2 C4_2 1_555 1_555
C6_2 C5_2 1_555 1_555
C7_2 C6_2 1_555 1_555
C11_2 C7_2 1_555 1_555
C12_2 C4_2 1_555 1_555
C13_2 C14_2 1_555 1_555
C14_2 C15_2 1_555 1_555
C15_2 H7_2 1_555 1_555
C16_2 C15_2 1_555 1_555
H8_2 C16_2 1_555 1_555
C17_2 C16_2 1_555 1_555
C18_2 C17_2 1_555 1_555
H9_2 C18_2 1_555 1_555
C19_2 C14_2 1_555 1_555
H10_2 C19_2 1_555 1_555
C20_2 C17_2 1_555 1_555
C25_2 C26_2 1_555 1_555
C26_2 H13_2 1_555 1_555
C27_2 C26_2 1_555 1_555
H14_2 C27_2 1_555 1_555
C28_2 C27_2 1_555 1_555
C29_2 C25_2 1_555 1_555
C30_2 C28_2 1_555 1_555
N1_2 C1_2 1_555 1_555
N2_2 Pr7 1_555 1_555
N3_2 C6_2 1_555 1_555
N4_2 C5_2 1_555 1_555
H15_2 N4_2 1_555 1_555
O13 C20_2 1_555 1_555
O15 C20_2 1_555 1_555
O5_2 Pr7 1_555 1_555
O6 C30_2 1_555 1_555
C11_2 C12_2 1_555 1_555
C11_2 N2_2 1_555 1_555
C12_2 N1_2 1_555 1_555
C13_2 N3_2 1_555 1_555
C13_2 N4_2 1_555 1_555
C18_2 C19_2 1_555 1_555
C29_2 O5_2 1_555 1_555
H4_2 C8_2 1_555 1_555
C9_2 C8_2 1_555 1_555
H5_2 C9_2 1_555 1_555
C10_2 C9_2 1_555 1_555
H6_2 C10_2 1_555 1_555
H27_2 C52_2 1_555 1_555
C53_2 C52_2 1_555 1_555
C54_2 C53_2 1_555 1_555
H28_2 C54_2 1_555 1_555
H29_2 C55_2 1_555 1_555
C56_2 C53_2 1_555 1_555
O14 C56_2 1_555 1_555
O16 C56_2 1_555 1_555
C54_2 C55_2 1_555 1_555
C29_3 C25_3 1_555 1_555
C30_3 C28_3 1_555 1_555
C35_2 C25_3 1_555 1_555
H18_2 C35_2 1_555 1_555
C36_2 C28_3 1_555 1_555
H19_2 C36_2 1_555 1_555
O9_2 C29_3 1_555 1_555
O10 C30_3 1_555 1_555
Pr9 O9_2 1_555 1_555
C37_2 H20_2 1_555 1_555
C38_2 C37_2 1_555 1_555
H21_2 C38_2 1_555 1_555
C39_2 C38_2 1_555 1_555
H22_2 C39_2 1_555 1_555
C40_2 C39_2 1_555 1_555
C41_2 C40_2 1_555 1_555
C42_2 C41_2 1_555 1_555
C43_2 C42_2 1_555 1_555
C47_2 C43_2 1_555 1_555
C48_2 C40_2 1_555 1_555
C49_2 C50_2 1_555 1_555
C50_2 C51_2 1_555 1_555
C51_2 H26_2 1_555 1_555
N5_2 Pr9 1_555 1_555
N6_2 Pr9 1_555 1_555
N7_2 C42_2 1_555 1_555
N8_2 C41_2 1_555 1_555
H30_2 N8_2 1_555 1_555
C35_2 C36_2 1_555 1_555
C37_2 N5_2 1_555 1_555
C47_2 C48_2 1_555 1_555
C47_2 N6_2 1_555 1_555
C48_2 N5_2 1_555 1_555
C49_2 N7_2 1_555 1_555
C49_2 N8_2 1_555 1_555
H23_2 C44_2 1_555 1_555
C45_2 C44_2 1_555 1_555
H24_2 C45_2 1_555 1_555
C46_2 C45_2 1_555 1_555
H25_2 C46_2 1_555 1_555
H23_3 C44_3 1_555 1_555
C45_3 C44_3 1_555 1_555
H24_3 C45_3 1_555 1_555
C46_3 C45_3 1_555 1_555
H25_3 C46_3 1_555 1_555
C29_4 C25_4 1_555 1_555
C30_4 C28_4 1_555 1_555
C35_3 C25_4 1_555 1_555
H18_3 C35_3 1_555 1_555
C36_3 C28_4 1_555 1_555
H19_3 C36_3 1_555 1_555
O9_3 C29_4 1_555 1_555
O20_2 C30_4 1_555 1_555
Pr2_2 O9_3 1_555 1_555
C37_3 H20_3 1_555 1_555
C38_3 C37_3 1_555 1_555
H21_3 C38_3 1_555 1_555
C39_3 C38_3 1_555 1_555
H22_3 C39_3 1_555 1_555
C40_3 C39_3 1_555 1_555
C41_3 C40_3 1_555 1_555
C42_3 C41_3 1_555 1_555
C43_3 C42_3 1_555 1_555
C47_3 C43_3 1_555 1_555
C48_3 C40_3 1_555 1_555
C49_3 C50_3 1_555 1_555
C50_3 C51_3 1_555 1_555
C51_3 H26_3 1_555 1_555
N5_3 Pr2_2 1_555 1_555
N6_3 Pr2_2 1_555 1_555
N7_3 C42_3 1_555 1_555
N8_3 C41_3 1_555 1_555
H30_3 N8_3 1_555 1_555
O15_2 Pr2_2 1_555 1_555
O17_2 Pr2_2 1_555 1_555
O18_2 Pr2_2 1_555 1_555
C35_3 C36_3 1_555 1_555
Pr2_2 O14_2 1_555 1_555
C37_3 N5_3 1_555 1_555
C47_3 C48_3 1_555 1_555
C47_3 N6_3 1_555 1_555
C48_3 N5_3 1_555 1_555
C49_3 N7_3 1_555 1_555
C49_3 N8_3 1_555 1_555
H27_3 C52_3 1_555 1_555
C53_3 C52_3 1_555 1_555
C54_3 C53_3 1_555 1_555
H28_3 C54_3 1_555 1_555
H29_3 C55_3 1_555 1_555
C56_3 C53_3 1_555 1_555
O11_2 C56_3 1_555 1_555
O12_2 C56_3 1_555 1_555
Pr7_2 O11_2 1_555 1_555
Pr9_2 O11_2 1_555 1_555
C54_3 C55_3 1_555 1_555
O12_2 Pr7_2 1_555 1_555
H4_3 C8_3 1_555 1_555
C9_3 C8_3 1_555 1_555
H5_3 C9_3 1_555 1_555
C10_3 C9_3 1_555 1_555
H6_3 C10_3 1_555 1_555
Pr1_2 N1_3 1_555 1_555
C1_3 H1_3 1_555 1_555
C2_3 C1_3 1_555 1_555
H2_3 C2_3 1_555 1_555
C3_3 C2_3 1_555 1_555
H3_3 C3_3 1_555 1_555
C4_3 C3_3 1_555 1_555
C5_3 C4_3 1_555 1_555
C6_3 C5_3 1_555 1_555
C7_3 C6_3 1_555 1_555
C11_3 C7_3 1_555 1_555
C12_3 C4_3 1_555 1_555
C13_3 C14_3 1_555 1_555
C14_3 C15_3 1_555 1_555
C15_3 H7_3 1_555 1_555
C16_3 C15_3 1_555 1_555
H8_3 C16_3 1_555 1_555
C17_3 C16_3 1_555 1_555
C18_3 C17_3 1_555 1_555
H9_3 C18_3 1_555 1_555
C19_3 C14_3 1_555 1_555
H10_3 C19_3 1_555 1_555
C20_3 C17_3 1_555 1_555
C24_3 C23_3 1_555 1_555
C25_5 C26_3 1_555 1_555
C26_3 H13_3 1_555 1_555
C27_3 C26_3 1_555 1_555
H14_3 C27_3 1_555 1_555
C28_5 C27_3 1_555 1_555
C29_5 C25_5 1_555 1_555
C30_5 C28_5 1_555 1_555
N1_3 C1_3 1_555 1_555
N2_3 Pr1_2 1_555 1_555
N3_3 C6_3 1_555 1_555
N4_3 C5_3 1_555 1_555
H15_3 N4_3 1_555 1_555
O1_2 C20_3 1_555 1_555
O2_2 C20_3 1_555 1_555
O3_2 Pr1_2 1_555 1_555
O4_2 Pr1_2 1_555 1_555
O5_3 Pr1_2 1_555 1_555
O19_2 C30_5 1_555 1_555
C31_3 C23_3 1_555 1_555
H16_3 C31_3 1_555 1_555
C32_3 C31_3 1_555 1_555
H17_3 C32_3 1_555 1_555
Pr7_2 O1_2 1_555 1_555
Pr9_2 O1_2 1_555 1_555
O13_2 Pr1_2 1_555 1_555
O16_2 Pr1_2 1_555 1_555
C11_3 C12_3 1_555 1_555
C11_3 N2_3 1_555 1_555
C12_3 N1_3 1_555 1_555
C13_3 N3_3 1_555 1_555
C13_3 N4_3 1_555 1_555
C18_3 C19_3 1_555 1_555
C24_3 O3_2 1_555 1_555
C24_3 O4_2 1_555 1_555
C29_5 O5_3 1_555 1_555
O2_2 Pr9_2 1_555 1_555
C21_3 H11_3 1_555 1_555
C22_3 C21_3 1_555 1_555
H12_3 C22_3 1_555 1_555
C33_3 C21_3 1_555 1_555
C34_3 C33_3 1_555 1_555
O7_3 C34_3 1_555 1_555
O8_3 C34_3 1_555 1_555
Pr7_2 O7_3 1_555 1_555
O8_3 Pr7_2 1_555 1_555
C21_4 H11_4 1_555 1_555
C22_4 C21_4 1_555 1_555
H12_4 C22_4 1_555 1_555
C23_4 C22_4 1_555 1_555
C24_4 C23_4 1_555 1_555
C31_4 C23_4 1_555 1_555
H16_4 C31_4 1_555 1_555
C32_4 C31_4 1_555 1_555
H17_4 C32_4 1_555 1_555
C33_4 C21_4 1_555 1_555
C34_4 C33_4 1_555 1_555
O7_4 C34_4 1_555 1_555
O8_4 C34_4 1_555 1_555
Pr9_2 O7_4 1_555 1_555
C24_4 O17_2 1_555 1_555
C24_4 O18_2 1_555 1_555
C32_4 C33_4 1_555 1_555
O8_4 Pr9_2 1_555 1_555
C25_6 C26_4 1_555 1_555
C26_4 H13_4 1_555 1_555
C27_4 C26_4 1_555 1_555
H14_4 C27_4 1_555 1_555
C28_6 C27_4 1_555 1_555
C30_6 C28_6 1_555 1_555
O6_2 C30_6 1_555 1_555
C35_4 C25_6 1_555 1_555
H18_4 C35_4 1_555 1_555
C36_4 C28_6 1_555 1_555
H19_4 C36_4 1_555 1_555
O10_2 C30_6 1_555 1_555
Pr7_2 O6_2 1_555 1_555
Pr9_2 O10_2 1_555 1_555
C35_4 C36_4 1_555 1_555
H27_4 C52_4 1_555 1_555
C53_4 C52_4 1_555 1_555
C54_4 C53_4 1_555 1_555
H28_4 C54_4 1_555 1_555
H29_4 C55_4 1_555 1_555
C56_4 C53_4 1_555 1_555
O14_2 C56_4 1_555 1_555
C54_4 C55_4 1_555 1_555
Pr7_2 N1_4 1_555 1_555
C1_4 H1_4 1_555 1_555
C2_4 C1_4 1_555 1_555
C3_4 C2_4 1_555 1_555
C4_4 C3_4 1_555 1_555
C5_4 C4_4 1_555 1_555
C6_4 C5_4 1_555 1_555
C7_4 C6_4 1_555 1_555
C8_4 C7_4 1_555 1_555
H4_4 C8_4 1_555 1_555
C9_4 C8_4 1_555 1_555
H5_4 C9_4 1_555 1_555
C10_4 C9_4 1_555 1_555
H6_4 C10_4 1_555 1_555
C11_4 C7_4 1_555 1_555
C12_4 C4_4 1_555 1_555
C13_4 C14_4 1_555 1_555
C14_4 C15_4 1_555 1_555
C15_4 H7_4 1_555 1_555
C16_4 C15_4 1_555 1_555
H8_4 C16_4 1_555 1_555
C17_4 C16_4 1_555 1_555
C18_4 C17_4 1_555 1_555
H9_4 C18_4 1_555 1_555
C19_4 C14_4 1_555 1_555
H10_4 C19_4 1_555 1_555
C20_4 C17_4 1_555 1_555
N1_4 C1_4 1_555 1_555
N2_4 Pr7_2 1_555 1_555
N3_4 C6_4 1_555 1_555
N4_4 C5_4 1_555 1_555
H15_4 N4_4 1_555 1_555
O13_2 C20_4 1_555 1_555
O5_4 Pr7_2 1_555 1_555
O9_4 C29_6 1_555 1_555
Pr9_2 O9_4 1_555 1_555
C37_4 H20_4 1_555 1_555
C38_4 C37_4 1_555 1_555
C39_4 C38_4 1_555 1_555
C40_4 C39_4 1_555 1_555
C41_4 C40_4 1_555 1_555
C42_4 C41_4 1_555 1_555
C43_4 C42_4 1_555 1_555
C44_4 C43_4 1_555 1_555
H23_4 C44_4 1_555 1_555
C45_4 C44_4 1_555 1_555
H24_4 C45_4 1_555 1_555
C46_4 C45_4 1_555 1_555
H25_4 C46_4 1_555 1_555
C47_4 C43_4 1_555 1_555
C48_4 C40_4 1_555 1_555
C49_4 C50_4 1_555 1_555
C50_4 C51_4 1_555 1_555
C51_4 H26_4 1_555 1_555
N5_4 Pr9_2 1_555 1_555
N6_4 Pr9_2 1_555 1_555
N7_4 C42_4 1_555 1_555
N8_4 C41_4 1_555 1_555
H30_4 N8_4 1_555 1_555
C10_4 N2_4 1_555 1_555
C11_4 C12_4 1_555 1_555
C11_4 N2_4 1_555 1_555
C12_4 N1_4 1_555 1_555
C13_4 N3_4 1_555 1_555
C13_4 N4_4 1_555 1_555
C18_4 C19_4 1_555 1_555
C29_6 O5_4 1_555 1_555
C37_4 N5_4 1_555 1_555
C46_4 N6_4 1_555 1_555
C47_4 C48_4 1_555 1_555
C47_4 N6_4 1_555 1_555
C48_4 N5_4 1_555 1_555
C49_4 N7_4 1_555 1_555
C49_4 N8_4 1_555 1_555

#END
