
###############################################################################
#
# This file contains modified crystal structure data generated from the
# MOF subset of the Cambridge Structural Database (CSD) v543 
# hosted by the Cambridge Crystallographic Data Centre (CCDC).
#
# This work is licensed under the Creative Commons
# Attribution-NonCommercial-ShareAlike 4.0 International License.
# To view a copy of this license, visit
# http://creativecommons.org/licenses/by-nc-sa/4.0/
# or send a letter to
# Creative Commons, PO Box 1866, Mountain View, CA 94042, USA.
#
# CIF created using the CSD Python API on 29 September 2022
# The structure has been converted into the P1 space group
# The structure has a 3D framework
# The original CSD entry NAVPAE is in the rhombohedral crystal system
# The framework has been calculated to contain at least 10.0% void space
# The void calculation uses a probe of radius 1.32A, grid spacing 0.4
# The framework is charged, counterions have been retained in the structure
# H atom positions have been added when not included in the experimental data
# Generated hydrogen atom positions removed from atoms on special positions
#
###############################################################################

data_NAVPAE
_chemical_formula_moiety         '(C540 H530 O354 Zr36 28+)n'
_symmetry_cell_setting           triclinic
_symmetry_space_group_name_H-M   'P 1'
_symmetry_Int_Tables_number      1
_space_group_name_Hall           'P 1'
loop_
_symmetry_equiv_pos_site_id
_symmetry_equiv_pos_as_xyz
1 x,y,z
_cell_length_a                   19.677(3)
_cell_length_b                   19.677(3)
_cell_length_c                   54.778(11)
_cell_angle_alpha                90
_cell_angle_beta                 90
_cell_angle_gamma                120
_cell_volume                     18367.7
loop_
_atom_site_label
_atom_site_type_symbol
_atom_site_fract_x
_atom_site_fract_y
_atom_site_fract_z
O51 O 0.24354(12) 0.00865(17) 0.15713(5)
O52 O 0.11955(12) 0.03168(18) 0.15778(4)
C85 C 0.45296(14) 0.03381(20) 0.00087(5)
H41 H 0.4209 0.0573 0.0014
C89 C 0.28565(15) 0.08526(21) 0.16210(5)
O57 O 0.14532(19) 0.15287(23) 0.15367(6)
C90 C 0.16758(22) 0.10392(27) 0.15727(5)
Zr13 Zr 0.07297(3) 0.20406(2) 0.15236(2)
C91 C 0.36555(15) 0.11813(22) 0.16726(6)
C92 C 0.25315(14) 0.13495(20) 0.16190(5)
H42 H 0.3878 0.0850 0.1679
C93 C 0.41352(14) 0.19838(20) 0.17143(5)
C94 C 0.30112(15) 0.21520(22) 0.16607(6)
O60 O 0.42313(12) 0.32468(17) 0.17620(5)
C97 C 0.38102(15) 0.24807(21) 0.17123(5)
Zr15 Zr 0.53558(2) 0.40630(3) 0.18097(2)
O61 O 0.52135(19) 0.18046(23) 0.17966(6)
C98 C 0.49909(22) 0.22941(27) 0.17606(5)
Zr16 Zr 0.59370(3) 0.12927(2) 0.18097(2)
O62 O 0.54712(12) 0.30165(18) 0.17555(4)
H44 H 0.2789 0.2483 0.1654
O63 O 0.47812(16) 0.26854(16) 0.03125(5)
O64 O 0.37475(13) 0.16659(15) 0.01588(4)
C99 C 0.41840(19) 0.2008(2) 0.03444(6)
C100 C 0.4013(2) 0.1604(2) 0.05851(6)
C101 C 0.3518(2) 0.0791(3) 0.06008(8)
C102 C 0.4354(3) 0.2043(3) 0.07937(8)
H45 H 0.3274 0.0494 0.0458
C103 C 0.3383(3) 0.0417(3) 0.08259(9)
C104 C 0.3689(3) 0.0856(4) 0.10378(8)
H47 H 0.3565 0.0604 0.1192
C105 C 0.4177(4) 0.1663(4) 0.10224(9)
H48 H 0.4393 0.1962 0.1167
H49 H 0.4702 0.2592 0.0783
Zr18 Zr 0.20218(3) 0.45926(2) 0.01046(2)
O80 O 0.17607(19) 0.36514(13) 0.03175(4)
O81 O 0.22678(24) 0.50994(15) 0.04529(5)
O82 O 0.08931(16) 0.42976(12) 0.00773(5)
O83 O 0.21419(17) 0.57598(12) 0.00585(4)
O84 O 0.32557(18) 0.51712(13) 0.00681(5)
O85 O 0.0674(3) 0.1791(2) 0.19357(6)
O86 O 0.15351(27) 0.29301(18) 0.17912(5)
O87 O 0.14012(21) 0.29566(14) 0.13040(4)
O88 O 0.03568(25) 0.15157(16) 0.11726(5)
C128 C 0.1205(4) 0.2484(3) 0.19740(6)
C129 C 0.1395(6) 0.2792(4) 0.22227(9)
C130 C 0.1034(7) 0.2274(5) 0.24214(9)
C131 C 0.1889(7) 0.3588(5) 0.22616(12)
H62 H 0.0690 0.1731 0.2392
C132 C 0.1180(10) 0.2552(7) 0.26548(11)
H63 H 0.0948 0.2203 0.2788
C133 C 0.1644(11) 0.3305(8) 0.26935(13)
H64 H 0.1734 0.3486 0.2857
C134 C 0.2019(10) 0.3867(7) 0.25035(15)
H65 H 0.2344 0.4409 0.2539
H66 H 0.2133 0.3936 0.2129
C135 C 0.16401(24) 0.34956(17) 0.05556(6)
C136 C 0.2359(4) 0.4919(2) 0.06738(6)
O91 O 0.27679(44) 0.54249(19) 0.08267(6)
C137 C 0.14441(26) 0.31063(18) 0.10630(6)
C138 C 0.0535(3) 0.1692(2) 0.09434(6)
O92 O 0.02450(26) 0.11730(17) 0.07856(5)
C139 C 0.19552(28) 0.40772(19) 0.07352(6)
C140 C 0.11910(25) 0.27187(18) 0.06306(6)
C141 C 0.18687(28) 0.38827(19) 0.09832(6)
H67 H 0.2106 0.4291 0.1101
C142 C 0.10782(26) 0.25200(18) 0.08811(6)
H68 H 0.0956 0.2315 0.0512
C143 C 0.04763(20) 0.46521(14) 0.00360(5)
C146 C 0.08176(20) 0.54827(14) 0.00254(4)
O96 O 0.19155(22) 0.67443(18) 0.00681(5)
C155 C 0.16739(24) 0.60200(19) 0.00510(5)
Zr21 Zr 0.25708(2) 0.79782(3) 0.01046(2)
H74 H 0.0139 0.3219 0.0835
O55 O 0.51712(13) 0.19155(22) 0.99319(5)
C84 C 0.56539(14) 0.16739(24) 0.99490(5)
Zr11 Zr 0.45926(2) 0.25708(2) 0.98954(2)
O56 O 0.63821(12) 0.21419(17) 0.99415(4)
Zr12 Zr 0.74292(2) 0.20218(3) 0.98954(2)
C87 C 0.53349(14) 0.08176(20) 0.99746(4)
C88 C 0.58242(14) 0.04763(20) 0.99640(5)
O58 O 0.65955(11) 0.08931(16) 0.99227(5)
O65 O 0.36514(13) 0.18907(14) 0.96825(4)
O66 O 0.50994(15) 0.28316(19) 0.95471(5)
O67 O 0.42976(12) 0.34045(11) 0.99227(5)
O68 O 0.57598(12) 0.36179(12) 0.99415(4)
Zr17 Zr 0.20406(2) 0.13109(2) 0.84764(2)
O69 O 0.1791(2) 0.1117(2) 0.80643(6)
O70 O 0.29301(18) 0.1395(2) 0.82088(5)
O71 O 0.29566(14) 0.15554(15) 0.86960(4)
O72 O 0.15157(16) 0.11589(19) 0.88274(5)
O73 O 0.23489(12) 0.24354(12) 0.84287(5)
O74 O 0.15287(23) 0.00755(13) 0.84633(6)
O75 O 0.08787(13) 0.11955(12) 0.84222(4)
C106 C 0.2484(3) 0.1279(3) 0.80260(6)
C107 C 0.2792(4) 0.1397(4) 0.77773(9)
C108 C 0.2274(5) 0.1240(5) 0.75786(9)
C109 C 0.3588(5) 0.1699(5) 0.77384(12)
H50 H 0.1731 0.1041 0.7608
C110 C 0.2552(7) 0.1372(7) 0.73452(11)
H51 H 0.2203 0.1255 0.7212
C111 C 0.3305(8) 0.1661(7) 0.73065(13)
H52 H 0.3486 0.1752 0.7143
C112 C 0.3867(7) 0.1848(7) 0.74965(15)
H53 H 0.4409 0.2065 0.7461
H54 H 0.3936 0.1803 0.7871
C113 C 0.34956(17) 0.18555(17) 0.94444(6)
C114 C 0.4919(2) 0.2560(3) 0.93262(6)
O76 O 0.54249(19) 0.2657(4) 0.91733(6)
C115 C 0.31063(18) 0.16622(19) 0.89370(6)
C116 C 0.1692(2) 0.1157(2) 0.90566(6)
O77 O 0.11730(17) 0.0928(2) 0.92144(5)
C117 C 0.40772(19) 0.2122(2) 0.92648(6)
C118 C 0.27187(18) 0.15277(18) 0.93694(6)
C119 C 0.38827(19) 0.2014(2) 0.90168(6)
H55 H 0.4291 0.2185 0.8899
C120 C 0.25200(18) 0.14418(19) 0.91189(6)
H56 H 0.2315 0.1359 0.9488
O78 O 0.20958(23) 0.47812(16) 0.96875(5)
O79 O 0.20816(20) 0.37475(13) 0.98412(4)
C121 C 0.21760(28) 0.41840(19) 0.96556(6)
C122 C 0.2409(3) 0.4013(2) 0.94149(6)
C123 C 0.2727(4) 0.3518(2) 0.93992(8)
C124 C 0.2311(4) 0.4354(3) 0.92063(8)
H57 H 0.2780 0.3274 0.9542
C125 C 0.2966(4) 0.3383(3) 0.91741(9)
H58 H 0.3219 0.3080 0.9165
C126 C 0.2833(5) 0.3689(3) 0.89622(8)
H59 H 0.2961 0.3565 0.8808
C127 C 0.2514(6) 0.4177(4) 0.89776(9)
H60 H 0.2431 0.4393 0.8833
H61 H 0.2110 0.4702 0.9217
C156 C 0.03381(20) 0.58085(14) 0.99913(5)
H71 H 0.0573 0.6364 0.9986
O15 O 0.00755(13) 0.85468(19) 0.15367(6)
Zr7 Zr 0.13109(2) 0.92703(3) 0.15236(2)
O42 O 0.18907(14) 0.82393(19) 0.03175(4)
O43 O 0.28316(19) 0.77322(24) 0.04529(5)
O44 O 0.34045(11) 0.91069(16) 0.00773(5)
O45 O 0.36179(12) 0.78581(17) 0.00585(4)
O47 O 0.1117(2) 0.9326(3) 0.19357(6)
O48 O 0.1395(2) 0.84649(27) 0.17912(5)
O49 O 0.15554(15) 0.85988(21) 0.13040(4)
O50 O 0.11589(19) 0.96432(25) 0.11726(5)
C68 C 0.1279(3) 0.8795(4) 0.19740(6)
C69 C 0.1397(4) 0.8605(6) 0.22227(9)
C70 C 0.1240(5) 0.8966(7) 0.24214(9)
C71 C 0.1699(5) 0.8111(7) 0.22616(12)
H34 H 0.1041 0.9310 0.2392
C72 C 0.1372(7) 0.8820(10) 0.26548(11)
H35 H 0.1255 0.9052 0.2788
C73 C 0.1661(7) 0.8356(11) 0.26935(13)
H36 H 0.1752 0.8266 0.2857
C74 C 0.1848(7) 0.7981(10) 0.25035(15)
H37 H 0.2065 0.7656 0.2539
H38 H 0.1803 0.7867 0.2129
C75 C 0.18555(17) 0.83599(24) 0.05556(6)
C76 C 0.2560(3) 0.7641(4) 0.06738(6)
O53 O 0.2657(4) 0.72321(44) 0.08267(6)
C77 C 0.16622(19) 0.85559(26) 0.10630(6)
C78 C 0.1157(2) 0.9465(3) 0.09434(6)
O54 O 0.0928(2) 0.97550(26) 0.07856(5)
C79 C 0.2122(2) 0.80448(28) 0.07352(6)
C80 C 0.15277(18) 0.88090(25) 0.06306(6)
C81 C 0.2014(2) 0.81313(28) 0.09832(6)
H39 H 0.2185 0.7894 0.1101
C82 C 0.14418(19) 0.89218(26) 0.08811(6)
H40 H 0.1359 0.9044 0.0512
C83 C 0.41758(14) 0.95237(20) 0.00360(5)
C86 C 0.46651(14) 0.91824(20) 0.00254(4)
O59 O 0.48288(13) 0.80845(22) 0.00681(5)
C95 C 0.43461(14) 0.83261(24) 0.00510(5)
Zr14 Zr 0.54074(2) 0.74292(2) 0.01046(2)
H46 H 0.3080 0.9861 0.0835
O36 O 0.00865(17) 0.76511(12) 0.84287(5)
O39 O 0.03168(18) 0.91213(13) 0.84222(4)
O40 O 0.26854(16) 0.79042(23) 0.96875(5)
O41 O 0.16659(15) 0.79184(20) 0.98412(4)
C61 C 0.2008(2) 0.78240(28) 0.96556(6)
C62 C 0.1604(2) 0.7591(3) 0.94149(6)
C63 C 0.0791(3) 0.7273(4) 0.93992(8)
C64 C 0.2043(3) 0.7689(4) 0.92063(8)
H29 H 0.0494 0.7220 0.9542
C65 C 0.0417(3) 0.7034(4) 0.91741(9)
C66 C 0.0856(4) 0.7167(5) 0.89622(8)
H31 H 0.0604 0.7039 0.8808
C67 C 0.1663(4) 0.7486(6) 0.89776(9)
H32 H 0.1962 0.7569 0.8833
H33 H 0.2592 0.7890 0.9217
C96 C 0.54704(14) 0.96619(20) 0.99913(5)
H43 H 0.5791 0.9427 0.9986
O89 O 0.99135(17) 0.23489(12) 0.15713(5)
O90 O 0.96832(18) 0.08787(13) 0.15778(4)
C145 C 0.96619(20) 0.41915(14) 0.00087(5)
H69 H 0.9427 0.3636 0.0014
C149 C 0.91474(21) 0.20039(15) 0.16210(5)
C150 C 0.89608(27) 0.06366(15) 0.15727(5)
C151 C 0.88187(22) 0.24742(16) 0.16726(6)
C152 C 0.86505(20) 0.11820(14) 0.16190(5)
H70 H 0.9150 0.3028 0.1679
C153 C 0.80162(20) 0.21513(14) 0.17143(5)
C154 C 0.78480(22) 0.08591(16) 0.16607(6)
O97 O 0.67532(17) 0.09844(12) 0.17620(5)
C157 C 0.75193(21) 0.13294(15) 0.17123(5)
O98 O 0.81954(23) 0.34088(13) 0.17966(6)
C158 C 0.77059(27) 0.26967(15) 0.17606(5)
Zr23 Zr 0.87073(2) 0.46442(2) 0.18097(2)
O99 O 0.69835(18) 0.24546(13) 0.17555(4)
H72 H 0.7517 0.0305 0.1654
O100 O 0.73146(16) 0.20958(23) 0.03125(5)
O101 O 0.83341(15) 0.20816(20) 0.01588(4)
C159 C 0.7992(2) 0.21760(28) 0.03444(6)
C160 C 0.8396(2) 0.2409(3) 0.05851(6)
C161 C 0.9209(3) 0.2727(4) 0.06008(8)
C162 C 0.7957(3) 0.2311(4) 0.07937(8)
H73 H 0.9506 0.2780 0.0458
C163 C 0.9583(3) 0.2966(4) 0.08259(9)
C164 C 0.9144(4) 0.2833(5) 0.10378(8)
H75 H 0.9396 0.2961 0.1192
C165 C 0.8337(4) 0.2514(6) 0.10224(9)
H76 H 0.8038 0.2431 0.1167
H77 H 0.7408 0.2110 0.0783
H2 H 0.6920 0.0139 0.9165
O93 O 0.80845(22) 0.32557(18) 0.99319(5)
C144 C 0.83261(24) 0.39800(19) 0.99490(5)
O94 O 0.78581(17) 0.42402(12) 0.99415(4)
Zr20 Zr 0.79782(3) 0.54074(2) 0.98954(2)
C147 C 0.91824(20) 0.45173(14) 0.99746(4)
C148 C 0.95237(20) 0.53479(14) 0.99640(5)
O95 O 0.91069(16) 0.57024(12) 0.99227(5)
O102 O 0.81093(14) 0.17607(19) 0.96825(4)
O103 O 0.71684(19) 0.22678(24) 0.95471(5)
Zr24 Zr 0.86891(2) 0.07297(3) 0.84764(2)
O106 O 0.8883(2) 0.0674(3) 0.80643(6)
O107 O 0.8605(2) 0.15351(27) 0.82088(5)
O108 O 0.84446(15) 0.14012(21) 0.86960(4)
O109 O 0.88411(19) 0.03568(25) 0.88274(5)
O111 O 0.99245(13) 0.14532(19) 0.84633(6)
C166 C 0.8721(3) 0.1205(4) 0.80260(6)
C167 C 0.8603(4) 0.1395(6) 0.77773(9)
C168 C 0.8760(5) 0.1034(7) 0.75786(9)
C169 C 0.8301(5) 0.1889(7) 0.77384(12)
H78 H 0.8959 0.0690 0.7608
C170 C 0.8628(7) 0.1180(10) 0.73452(11)
H79 H 0.8745 0.0948 0.7212
C171 C 0.8339(7) 0.1644(11) 0.73065(13)
H80 H 0.8248 0.1734 0.7143
C172 C 0.8152(7) 0.2019(10) 0.74965(15)
H81 H 0.7935 0.2344 0.7461
H82 H 0.8197 0.2133 0.7871
C173 C 0.81445(17) 0.16401(24) 0.94444(6)
C174 C 0.7440(3) 0.2359(4) 0.93262(6)
O113 O 0.7343(4) 0.27679(44) 0.91733(6)
C175 C 0.83378(19) 0.14441(26) 0.89370(6)
C176 C 0.8843(2) 0.0535(3) 0.90566(6)
O114 O 0.9072(2) 0.02450(26) 0.92144(5)
C177 C 0.7878(2) 0.19552(28) 0.92648(6)
C178 C 0.84723(18) 0.11910(25) 0.93694(6)
C179 C 0.7986(2) 0.18687(28) 0.90168(6)
H83 H 0.7815 0.2106 0.8899
C180 C 0.85582(19) 0.10782(26) 0.91189(6)
H84 H 0.8641 0.0956 0.9488
Zr2 Zr 0.79594(2) 0.86891(2) 0.15236(2)
O3 O 0.8209(2) 0.8883(2) 0.19357(6)
O4 O 0.70699(18) 0.8605(2) 0.17912(5)
C8 C 0.7516(3) 0.8721(3) 0.19740(6)
C9 C 0.7208(4) 0.8603(4) 0.22227(9)
C10 C 0.7726(5) 0.8760(5) 0.24214(9)
H6 H 0.8269 0.8959 0.2392
C11 C 0.7448(7) 0.8628(7) 0.26548(11)
H7 H 0.7797 0.8745 0.2788
C12 C 0.6695(8) 0.8339(7) 0.26935(13)
H8 H 0.6514 0.8248 0.2857
C13 C 0.6133(7) 0.8152(7) 0.25035(15)
H9 H 0.5591 0.7935 0.2539
C14 C 0.6412(5) 0.8301(5) 0.22616(12)
H10 H 0.6064 0.8197 0.2129
O5 O 0.63486(13) 0.81093(14) 0.03175(4)
O6 O 0.49006(15) 0.71684(19) 0.04529(5)
O7 O 0.45751(19) 0.7343(4) 0.08267(6)
O8 O 0.70434(14) 0.84446(15) 0.13040(4)
O9 O 0.84843(16) 0.88411(19) 0.11726(5)
O10 O 0.88270(17) 0.9072(2) 0.07856(5)
C15 C 0.65044(17) 0.81445(17) 0.05556(6)
C16 C 0.59228(19) 0.7878(2) 0.07352(6)
C17 C 0.61173(19) 0.7986(2) 0.09832(6)
H11 H 0.5709 0.7815 0.1101
C18 C 0.68937(18) 0.83378(19) 0.10630(6)
C19 C 0.74800(18) 0.85582(19) 0.08811(6)
C20 C 0.72813(18) 0.84723(18) 0.06306(6)
H12 H 0.7685 0.8641 0.0512
C21 C 0.5081(2) 0.7440(3) 0.06738(6)
C22 C 0.8308(2) 0.8843(2) 0.09434(6)
O11 O 0.57024(12) 0.65955(11) 0.00773(5)
C23 C 0.53479(14) 0.58242(14) 0.00360(5)
C24 C 0.58085(14) 0.54704(14) 0.00087(5)
H13 H 0.6364 0.5791 0.0014
O14 O 0.76511(12) 0.75646(12) 0.15713(5)
O16 O 0.91213(13) 0.88045(12) 0.15778(4)
C27 C 0.79961(15) 0.71435(15) 0.16210(5)
C28 C 0.75258(16) 0.63445(15) 0.16726(6)
H14 H 0.6972 0.6122 0.1679
C29 C 0.88180(14) 0.74685(14) 0.16190(5)
C30 C 0.93634(15) 0.83242(22) 0.15727(5)
O19 O 0.42402(12) 0.63821(12) 0.00585(4)
C33 C 0.45173(14) 0.53349(14) 0.00254(4)
C34 C 0.39800(19) 0.56539(14) 0.00510(5)
O20 O 0.90156(12) 0.57687(12) 0.17620(5)
O21 O 0.65912(13) 0.47865(19) 0.17966(6)
O22 O 0.75454(13) 0.45288(12) 0.17555(4)
C35 C 0.86706(15) 0.61898(15) 0.17123(5)
C36 C 0.91409(16) 0.69888(15) 0.16607(6)
H16 H 0.9695 0.7211 0.1654
C37 C 0.78487(14) 0.58648(14) 0.17143(5)
C38 C 0.73033(15) 0.50091(22) 0.17606(5)
O23 O 0.79042(23) 0.52188(16) 0.03125(5)
O24 O 0.79184(20) 0.62525(13) 0.01588(4)
C39 C 0.78240(28) 0.58160(19) 0.03444(6)
C40 C 0.7591(3) 0.5987(2) 0.05851(6)
C41 C 0.7273(4) 0.6482(2) 0.06008(8)
H17 H 0.7220 0.6726 0.0458
C42 C 0.7034(4) 0.6617(3) 0.08259(9)
H18 H 0.6781 0.6920 0.0835
C43 C 0.7167(5) 0.6311(3) 0.10378(8)
H19 H 0.7039 0.6435 0.1192
C44 C 0.7486(6) 0.5823(4) 0.10224(9)
H20 H 0.7569 0.5607 0.1167
C45 C 0.7689(4) 0.5646(3) 0.07937(8)
H21 H 0.7890 0.5298 0.0783
O37 O 0.84713(23) 0.99245(13) 0.15367(6)
O1 O 0.52188(16) 0.73146(16) 0.96875(5)
O2 O 0.62525(13) 0.83341(15) 0.98412(4)
C1 C 0.58160(19) 0.7992(2) 0.96556(6)
C2 C 0.5987(2) 0.8396(2) 0.94149(6)
C3 C 0.6482(2) 0.9209(3) 0.93992(8)
H1 H 0.6726 0.9506 0.9542
C4 C 0.6617(3) 0.9583(3) 0.91741(9)
C5 C 0.6311(3) 0.9144(4) 0.89622(8)
H3 H 0.6435 0.9396 0.8808
C6 C 0.5823(4) 0.8337(4) 0.89776(9)
H4 H 0.5607 0.8038 0.8833
C7 C 0.5646(3) 0.7957(3) 0.92063(8)
H5 H 0.5298 0.7408 0.9217
O12 O 0.67443(18) 0.48288(13) 0.99319(5)
C25 C 0.54827(14) 0.46651(14) 0.99746(4)
C26 C 0.60200(19) 0.43461(14) 0.99490(5)
C31 C 0.46521(14) 0.41758(14) 0.99640(5)
C32 C 0.41915(14) 0.45296(14) 0.99913(5)
H15 H 0.3636 0.4209 0.9986
Zr4 Zr 0.92703(3) 0.79594(2) 0.84764(2)
O25 O 0.9326(3) 0.8209(2) 0.80643(6)
O26 O 0.84649(27) 0.70699(18) 0.82088(5)
C46 C 0.8795(4) 0.7516(3) 0.80260(6)
C47 C 0.8605(6) 0.7208(4) 0.77773(9)
C48 C 0.8966(7) 0.7726(5) 0.75786(9)
H22 H 0.9310 0.8269 0.7608
C49 C 0.8820(10) 0.7448(7) 0.73452(11)
H23 H 0.9052 0.7797 0.7212
C50 C 0.8356(11) 0.6695(8) 0.73065(13)
H24 H 0.8266 0.6514 0.7143
C51 C 0.7981(10) 0.6133(7) 0.74965(15)
H25 H 0.7656 0.5591 0.7461
C52 C 0.8111(7) 0.6412(5) 0.77384(12)
H26 H 0.7867 0.6064 0.7871
O27 O 0.82393(19) 0.63486(13) 0.96825(4)
O28 O 0.77322(24) 0.49006(15) 0.95471(5)
O29 O 0.72321(44) 0.45751(19) 0.91733(6)
O30 O 0.85988(21) 0.70434(14) 0.86960(4)
O31 O 0.96432(25) 0.84843(16) 0.88274(5)
O32 O 0.97550(26) 0.88270(17) 0.92144(5)
C53 C 0.83599(24) 0.65044(17) 0.94444(6)
C54 C 0.80448(28) 0.59228(19) 0.92648(6)
C55 C 0.81313(28) 0.61173(19) 0.90168(6)
H27 H 0.7894 0.5709 0.8899
C56 C 0.85559(26) 0.68937(18) 0.89370(6)
C57 C 0.89218(26) 0.74800(18) 0.91189(6)
C58 C 0.88090(25) 0.72813(18) 0.93694(6)
H28 H 0.9044 0.7685 0.9488
C59 C 0.7641(4) 0.5081(2) 0.93262(6)
C60 C 0.9465(3) 0.8308(2) 0.90566(6)
O38 O 0.85468(19) 0.84713(23) 0.84633(6)
H30 H 0.9861 0.6781 0.9165
O110 O 0.75646(12) 0.99135(17) 0.84287(5)
O112 O 0.88045(12) 0.96832(18) 0.84222(4)
O44_2 O 0.00712(11) 0.24402(16) 0.34106(5)
O45_2 O 0.02846(12) 0.11914(17) 0.33918(4)
C83_2 C 0.08425(14) 0.28570(20) 0.33693(5)
O55_2 O 0.18379(13) 0.52488(22) 0.32652(5)
C84_2 C 0.23206(14) 0.50072(24) 0.32823(5)
Zr11_2 Zr 0.12593(2) 0.59041(2) 0.32287(2)
O56_2 O 0.30488(12) 0.54752(17) 0.32748(4)
Zr12_2 Zr 0.40959(2) 0.53551(3) 0.32287(2)
C85_2 C 0.11963(14) 0.36714(20) 0.33420(5)
C86_2 C 0.13318(14) 0.25157(20) 0.33587(4)
H41_2 H 0.0876 0.3906 0.3347
C87_2 C 0.20016(14) 0.41509(20) 0.33079(4)
C88_2 C 0.24909(14) 0.38096(20) 0.32973(5)
C91_2 C 0.03222(15) 0.45146(22) 0.50059(6)
H42_2 H 0.0545 0.4183 0.5012
C93_2 C 0.08018(14) 0.53172(20) 0.50477(5)
O58_2 O 0.32622(11) 0.42264(16) 0.32560(5)
O59_2 O 0.14955(13) 0.14178(22) 0.34014(5)
C95_2 C 0.10128(14) 0.16594(24) 0.33843(5)
Zr14_2 Zr 0.20741(2) 0.07625(2) 0.34379(2)
C96_2 C 0.21371(14) 0.29952(20) 0.33246(5)
H43_2 H 0.2458 0.2760 0.3319
O60_2 O 0.08979(12) 0.65802(17) 0.50954(5)
C97_2 C 0.04768(15) 0.58141(21) 0.50457(5)
Zr15_2 Zr 0.20224(2) 0.73964(3) 0.51431(2)
O61_2 O 0.18801(19) 0.51380(23) 0.51300(6)
C98_2 C 0.16575(22) 0.56275(27) 0.50940(5)
Zr16_2 Zr 0.26036(3) 0.46261(2) 0.51431(2)
O62_2 O 0.21378(12) 0.63499(18) 0.50889(4)
O63_2 O 0.14479(16) 0.60187(16) 0.36458(5)
O64_2 O 0.04142(13) 0.49992(15) 0.34921(4)
O65_2 O 0.03181(13) 0.52240(14) 0.30158(4)
O66_2 O 0.17661(15) 0.61649(19) 0.28804(5)
O67_2 O 0.09643(12) 0.67378(11) 0.32560(5)
O68_2 O 0.24265(12) 0.69512(12) 0.32748(4)
C99_2 C 0.08507(19) 0.5341(2) 0.36777(6)
C100_2 C 0.0680(2) 0.4937(2) 0.39184(6)
C101_2 C 0.0185(2) 0.4124(3) 0.39341(8)
C102_2 C 0.1021(3) 0.5376(3) 0.41270(8)
C103_2 C 0.0050(3) 0.3750(3) 0.41592(9)
C104_2 C 0.0356(3) 0.4189(4) 0.43711(8)
H47_2 H 0.0232 0.3937 0.4525
C105_2 C 0.0844(4) 0.4996(4) 0.43557(9)
H48_2 H 0.1060 0.5295 0.4500
H49_2 H 0.1369 0.5925 0.4116
C109_2 C 0.0255(5) 0.5032(5) 0.10717(12)
H52_2 H 0.0153 0.5085 0.0476
C112_2 C 0.0534(7) 0.5181(7) 0.08298(15)
H53_2 H 0.1076 0.5398 0.0794
H54_2 H 0.0603 0.5136 0.1204
C113_2 C 0.01623(17) 0.51888(17) 0.27777(6)
C114_2 C 0.1586(2) 0.5893(3) 0.26595(6)
O76_2 O 0.20916(19) 0.5990(4) 0.25066(6)
C117_2 C 0.07439(19) 0.5455(2) 0.25981(6)
C119_2 C 0.05494(19) 0.5347(2) 0.23501(6)
H55_2 H 0.0958 0.5518 0.2232
O96_2 O 0.85822(22) 0.00776(18) 0.34014(5)
Zr21_2 Zr 0.92375(2) 0.13115(3) 0.34379(2)
O1_2 O 0.18855(16) 0.06479(16) 0.30208(5)
O2_2 O 0.29192(13) 0.16674(15) 0.31745(4)
C1_2 C 0.24827(19) 0.1325(2) 0.29889(6)
C2_2 C 0.2654(2) 0.1729(2) 0.27482(6)
C3_2 C 0.3149(2) 0.2542(3) 0.27325(8)
H1_2 H 0.3393 0.2839 0.2875
C4_2 C 0.3284(3) 0.2916(3) 0.25074(9)
H2_2 H 0.3587 0.3472 0.2498
C5_2 C 0.2978(3) 0.2477(4) 0.22955(8)
H3_2 H 0.3102 0.2729 0.2141
C6_2 C 0.2490(4) 0.1670(4) 0.23109(9)
H4_2 H 0.2274 0.1371 0.2166
C7_2 C 0.2313(3) 0.1290(3) 0.25396(8)
H5_2 H 0.1965 0.0741 0.2550
Zr2_2 Zr 0.46261(2) 0.20224(2) 0.48569(2)
O3_2 O 0.4876(2) 0.2216(2) 0.52690(6)
O4_2 O 0.37366(18) 0.1938(2) 0.51245(5)
C8_2 C 0.4183(3) 0.2054(3) 0.53073(6)
C9_2 C 0.3875(4) 0.1936(4) 0.55560(9)
C10_2 C 0.4393(5) 0.2093(5) 0.57547(9)
H6_2 H 0.4936 0.2292 0.5725
C11_2 C 0.4115(7) 0.1961(7) 0.59881(11)
H7_2 H 0.4464 0.2078 0.6121
C12_2 C 0.3362(8) 0.1672(7) 0.60268(13)
H8_2 H 0.3181 0.1581 0.6190
C13_2 C 0.2800(7) 0.1485(7) 0.58368(15)
H9_2 H 0.2258 0.1268 0.5872
C14_2 C 0.3079(5) 0.1634(5) 0.55949(12)
H10_2 H 0.2731 0.1530 0.5462
O5_2 O 0.30153(13) 0.14426(14) 0.36508(4)
O6_2 O 0.15673(15) 0.05017(19) 0.37862(5)
O7_2 O 0.12418(19) 0.0676(4) 0.41600(6)
O8_2 O 0.37101(14) 0.17779(15) 0.46373(4)
O9_2 O 0.51510(16) 0.21744(19) 0.45059(5)
O10_2 O 0.54937(17) 0.2405(2) 0.41189(5)
C15_2 C 0.31711(17) 0.14778(17) 0.38889(6)
C16_2 C 0.25895(19) 0.1211(2) 0.40685(6)
C17_2 C 0.27840(19) 0.1319(2) 0.43165(6)
H11_2 H 0.2376 0.1148 0.4434
C18_2 C 0.35604(18) 0.16711(19) 0.43963(6)
C19_2 C 0.41467(18) 0.18915(19) 0.42144(6)
C20_2 C 0.39480(18) 0.18056(18) 0.39639(6)
H12_2 H 0.4352 0.1974 0.3845
C21_2 C 0.1748(2) 0.0773(3) 0.40071(6)
C22_2 C 0.4975(2) 0.2176(2) 0.42767(6)
O14_2 O 0.43178(12) 0.08979(12) 0.49046(5)
O15_2 O 0.67422(13) 0.18801(19) 0.48700(6)
O16_2 O 0.57880(13) 0.21378(12) 0.49111(4)
C27_2 C 0.46628(15) 0.04768(15) 0.49543(5)
C29_2 C 0.54847(14) 0.08018(14) 0.49523(5)
C30_2 C 0.60301(15) 0.16575(22) 0.49060(5)
C36_2 C 0.58075(16) 0.03222(15) 0.49941(6)
H16_2 H 0.6361 0.0545 0.4988
H17_2 H 0.3887 0.0059 0.3791
H18_2 H 0.3448 0.0253 0.4168
O25_2 O 0.5993(3) 0.1542(2) 0.13976(6)
O26_2 O 0.51316(27) 0.04032(18) 0.15421(5)
C46_2 C 0.5462(4) 0.0849(3) 0.13593(6)
C47_2 C 0.5272(6) 0.0541(4) 0.11106(9)
C48_2 C 0.5633(7) 0.1059(5) 0.09119(9)
H22_2 H 0.5977 0.1602 0.0941
C49_2 C 0.5487(10) 0.0781(7) 0.06785(11)
H23_2 H 0.5719 0.1130 0.0545
C50_2 C 0.5023(11) 0.0028(8) 0.06398(13)
O30_2 O 0.52655(21) 0.03767(14) 0.20293(4)
O31_2 O 0.63099(25) 0.18176(16) 0.21607(5)
O32_2 O 0.64217(26) 0.21603(17) 0.25477(5)
C56_2 C 0.52226(26) 0.02270(18) 0.22703(6)
C57_2 C 0.55885(26) 0.08133(18) 0.24522(6)
C58_2 C 0.54757(25) 0.06146(18) 0.27027(6)
H28_2 H 0.5711 0.1018 0.2821
C60_2 C 0.6132(3) 0.1641(2) 0.23899(6)
Zr7_2 Zr 0.79776(2) 0.26036(3) 0.48569(2)
O37_2 O 0.51380(23) 0.32578(13) 0.48700(6)
O40_2 O 0.93521(16) 0.12375(23) 0.30208(5)
O41_2 O 0.83326(15) 0.12517(20) 0.31745(4)
O42_2 O 0.85574(14) 0.15726(19) 0.36508(4)
O43_2 O 0.94983(19) 0.10655(24) 0.37862(5)
C61_2 C 0.8675(2) 0.11573(28) 0.29889(6)
C62_2 C 0.8271(2) 0.0924(3) 0.27482(6)
C63_2 C 0.7458(3) 0.0606(4) 0.27325(8)
C64_2 C 0.8710(3) 0.1022(4) 0.25396(8)
H29_2 H 0.7161 0.0553 0.2875
C65_2 C 0.7084(3) 0.0367(4) 0.25074(9)
H30_2 H 0.6528 0.0114 0.2498
C66_2 C 0.7523(4) 0.0500(5) 0.22955(8)
H31_2 H 0.7271 0.0372 0.2141
C67_2 C 0.8330(4) 0.0819(6) 0.23109(9)
H32_2 H 0.8629 0.0902 0.2166
H33_2 H 0.9259 0.1223 0.2550
O47_2 O 0.7784(2) 0.2659(3) 0.52690(6)
O48_2 O 0.8062(2) 0.17982(27) 0.51245(5)
O49_2 O 0.82221(15) 0.19321(21) 0.46373(4)
O50_2 O 0.78256(19) 0.29765(25) 0.45059(5)
O51_2 O 0.91021(12) 0.34198(17) 0.49046(5)
O52_2 O 0.78622(12) 0.36501(18) 0.49111(4)
C68_2 C 0.7946(3) 0.2128(4) 0.53073(6)
C69_2 C 0.8064(4) 0.1938(6) 0.55560(9)
C70_2 C 0.7907(5) 0.2299(7) 0.57547(9)
C71_2 C 0.8366(5) 0.1444(7) 0.55949(12)
H34_2 H 0.7708 0.2643 0.5725
C72_2 C 0.8039(7) 0.2153(10) 0.59881(11)
H35_2 H 0.7922 0.2385 0.6121
C73_2 C 0.8328(7) 0.1689(11) 0.60268(13)
H36_2 H 0.8419 0.1599 0.6190
C74_2 C 0.8515(7) 0.1314(10) 0.58368(15)
H37_2 H 0.8732 0.0989 0.5872
H38_2 H 0.8470 0.1200 0.5462
C75_2 C 0.85222(17) 0.16932(24) 0.38889(6)
C76_2 C 0.9227(3) 0.0974(4) 0.40071(6)
O53_2 O 0.9324(4) 0.05654(44) 0.41600(6)
C77_2 C 0.83289(19) 0.18892(26) 0.43963(6)
C78_2 C 0.7824(2) 0.2798(3) 0.42767(6)
O54_2 O 0.7595(2) 0.30883(26) 0.41189(5)
C79_2 C 0.8789(2) 0.13781(28) 0.40685(6)
C80_2 C 0.81944(18) 0.21423(25) 0.39639(6)
C81_2 C 0.8681(2) 0.14646(28) 0.43165(6)
H39_2 H 0.8852 0.1227 0.4434
C82_2 C 0.81085(19) 0.22551(26) 0.42144(6)
H40_2 H 0.8026 0.2377 0.3845
C89_2 C 0.95232(15) 0.41859(21) 0.49543(5)
O57_2 O 0.81199(19) 0.48620(23) 0.48700(6)
C90_2 C 0.83425(22) 0.43725(27) 0.49060(5)
Zr13_2 Zr 0.73964(3) 0.53739(2) 0.48569(2)
C92_2 C 0.91982(14) 0.46828(20) 0.49523(5)
C94_2 C 0.96778(15) 0.54854(22) 0.49941(6)
H44_2 H 0.9455 0.5817 0.4988
H45_2 H 0.9941 0.3827 0.3791
H46_2 H 0.9747 0.3194 0.4168
O69_2 O 0.8458(2) 0.4450(2) 0.13976(6)
O70_2 O 0.95968(18) 0.4728(2) 0.15421(5)
O71_2 O 0.96233(14) 0.48887(15) 0.20293(4)
O72_2 O 0.81824(16) 0.44922(19) 0.21607(5)
C106_2 C 0.9151(3) 0.4612(3) 0.13593(6)
C107_2 C 0.9459(4) 0.4730(4) 0.11106(9)
C108_2 C 0.8941(5) 0.4573(5) 0.09119(9)
H50_2 H 0.8398 0.4374 0.0941
C110_2 C 0.9219(7) 0.4705(7) 0.06785(11)
H51_2 H 0.8870 0.4588 0.0545
C111_2 C 0.9972(8) 0.4994(7) 0.06398(13)
C115_2 C 0.97730(18) 0.49955(19) 0.22703(6)
C116_2 C 0.8359(2) 0.4490(2) 0.23899(6)
O77_2 O 0.78397(17) 0.4261(2) 0.25477(5)
C118_2 C 0.93854(18) 0.48610(18) 0.27027(6)
C120_2 C 0.91867(18) 0.47751(19) 0.24522(6)
H56_2 H 0.8982 0.4692 0.2821
Zr18_2 Zr 0.86885(3) 0.79259(2) 0.34379(2)
O78_2 O 0.87625(23) 0.81145(16) 0.30208(5)
O79_2 O 0.87483(20) 0.70808(13) 0.31745(4)
O80_2 O 0.84274(19) 0.69847(13) 0.36508(4)
O81_2 O 0.89345(24) 0.84327(15) 0.37862(5)
O82_2 O 0.75598(16) 0.76309(12) 0.34106(5)
O83_2 O 0.88086(17) 0.90931(12) 0.33918(4)
O84_2 O 0.99224(18) 0.85045(13) 0.34014(5)
C121_2 C 0.88427(28) 0.75173(19) 0.29889(6)
C122_2 C 0.9076(3) 0.7346(2) 0.27482(6)
C123_2 C 0.9394(4) 0.6851(2) 0.27325(8)
C124_2 C 0.8978(4) 0.7687(3) 0.25396(8)
H57_2 H 0.9447 0.6607 0.2875
C125_2 C 0.9633(4) 0.6716(3) 0.25074(9)
H58_2 H 0.9886 0.6413 0.2498
C126_2 C 0.9500(5) 0.7022(3) 0.22955(8)
H59_2 H 0.9628 0.6898 0.2141
C127_2 C 0.9181(6) 0.7510(4) 0.23109(9)
H60_2 H 0.9098 0.7726 0.2166
H61_2 H 0.8777 0.8035 0.2550
O85_2 O 0.7341(3) 0.5124(2) 0.52690(6)
O86_2 O 0.82018(27) 0.62634(18) 0.51245(5)
O87_2 O 0.80679(21) 0.62899(14) 0.46373(4)
O88_2 O 0.70235(25) 0.48490(16) 0.45059(5)
O89_2 O 0.65802(17) 0.56822(12) 0.49046(5)
O90_2 O 0.63499(18) 0.42120(13) 0.49111(4)
C128_2 C 0.7872(4) 0.5817(3) 0.53073(6)
C129_2 C 0.8062(6) 0.6125(4) 0.55560(9)
C130_2 C 0.7701(7) 0.5607(5) 0.57547(9)
C131_2 C 0.8556(7) 0.6921(5) 0.55949(12)
H62_2 H 0.7357 0.5064 0.5725
C132_2 C 0.7847(10) 0.5885(7) 0.59881(11)
H63_2 H 0.7615 0.5536 0.6121
C133_2 C 0.8311(11) 0.6638(8) 0.60268(13)
H64_2 H 0.8401 0.6819 0.6190
C134_2 C 0.8686(10) 0.7200(7) 0.58368(15)
H65_2 H 0.9011 0.7742 0.5872
H66_2 H 0.8800 0.7269 0.5462
C135_2 C 0.83068(24) 0.68289(17) 0.38889(6)
C136_2 C 0.9026(4) 0.8252(2) 0.40071(6)
O91_2 O 0.94346(44) 0.87582(19) 0.41600(6)
C137_2 C 0.81108(26) 0.64396(18) 0.43963(6)
C138_2 C 0.7202(3) 0.5025(2) 0.42767(6)
O92_2 O 0.69117(26) 0.45063(17) 0.41189(5)
C139_2 C 0.86219(28) 0.74105(19) 0.40685(6)
C140_2 C 0.78577(25) 0.60520(18) 0.39639(6)
C141_2 C 0.85354(28) 0.72160(19) 0.43165(6)
H67_2 H 0.8773 0.7624 0.4434
C142_2 C 0.77449(26) 0.58533(18) 0.42144(6)
H68_2 H 0.7623 0.5648 0.3845
C143_2 C 0.71430(20) 0.79854(14) 0.33693(5)
O93_2 O 0.47512(22) 0.65890(18) 0.32652(5)
C144_2 C 0.49928(24) 0.73133(19) 0.32823(5)
O94_2 O 0.45248(17) 0.75735(12) 0.32748(4)
Zr20_2 Zr 0.46449(3) 0.87407(2) 0.32287(2)
C145_2 C 0.63286(20) 0.75248(14) 0.33420(5)
C146_2 C 0.74843(20) 0.88160(14) 0.33587(4)
H69_2 H 0.6094 0.6969 0.3347
C147_2 C 0.58491(20) 0.78506(14) 0.33079(4)
C148_2 C 0.61904(20) 0.86812(14) 0.32973(5)
C149_2 C 0.58141(21) 0.53372(15) 0.49543(5)
C150_2 C 0.56275(27) 0.39699(15) 0.49060(5)
C151_2 C 0.54854(22) 0.58075(16) 0.50059(6)
C152_2 C 0.53172(20) 0.45153(14) 0.49523(5)
H70_2 H 0.5817 0.6361 0.5012
C153_2 C 0.46828(20) 0.54847(14) 0.50477(5)
C154_2 C 0.45146(22) 0.41925(16) 0.49941(6)
O95_2 O 0.57736(16) 0.90357(12) 0.32560(5)
C155_2 C 0.83406(24) 0.93533(19) 0.33843(5)
C156_2 C 0.70048(20) 0.91418(14) 0.33246(5)
H71_2 H 0.7240 0.9697 0.3319
O97_2 O 0.34198(17) 0.43178(12) 0.50954(5)
C157_2 C 0.41859(21) 0.46628(15) 0.50457(5)
O98_2 O 0.48620(23) 0.67422(13) 0.51300(6)
C158_2 C 0.43725(27) 0.60301(15) 0.50940(5)
Zr23_2 Zr 0.53739(2) 0.79776(2) 0.51431(2)
O99_2 O 0.36501(18) 0.57880(13) 0.50889(4)
H72_2 H 0.4183 0.3639 0.4988
O100_2 O 0.39813(16) 0.54291(23) 0.36458(5)
O101_2 O 0.50008(15) 0.54149(20) 0.34921(4)
O102_2 O 0.47760(14) 0.50940(19) 0.30158(4)
O103_2 O 0.38351(19) 0.56011(24) 0.28804(5)
C159_2 C 0.4659(2) 0.55093(28) 0.36777(6)
C160_2 C 0.5063(2) 0.5742(3) 0.39184(6)
C161_2 C 0.5876(3) 0.6060(4) 0.39341(8)
C162_2 C 0.4624(3) 0.5644(4) 0.41270(8)
H73_2 H 0.6173 0.6113 0.3791
C163_2 C 0.6250(3) 0.6299(4) 0.41592(9)
H74_2 H 0.6806 0.6552 0.4168
C164_2 C 0.5811(4) 0.6166(5) 0.43711(8)
H75_2 H 0.6063 0.6294 0.4525
C165_2 C 0.5004(4) 0.5847(6) 0.43557(9)
H76_2 H 0.4705 0.5764 0.4500
H77_2 H 0.4075 0.5443 0.4116
O106_2 O 0.5550(2) 0.4007(3) 0.13976(6)
O107_2 O 0.5272(2) 0.48684(27) 0.15421(5)
O108_2 O 0.51113(15) 0.47345(21) 0.20293(4)
O109_2 O 0.55078(19) 0.36901(25) 0.21607(5)
C166_2 C 0.5388(3) 0.4538(4) 0.13593(6)
C167_2 C 0.5270(4) 0.4728(6) 0.11106(9)
C168_2 C 0.5427(5) 0.4367(7) 0.09119(9)
C169_2 C 0.4968(5) 0.5222(7) 0.10717(12)
H78_2 H 0.5626 0.4023 0.0941
C170_2 C 0.5295(7) 0.4513(10) 0.06785(11)
H79_2 H 0.5412 0.4281 0.0545
C171_2 C 0.5006(7) 0.4977(11) 0.06398(13)
H80_2 H 0.4915 0.5067 0.0476
C172_2 C 0.4819(7) 0.5352(10) 0.08298(15)
H81_2 H 0.4602 0.5677 0.0794
H82_2 H 0.4864 0.5466 0.1204
C173_2 C 0.48112(17) 0.49734(24) 0.27777(6)
C174_2 C 0.4107(3) 0.5692(4) 0.26595(6)
O113_2 O 0.4010(4) 0.61012(44) 0.25066(6)
C175_2 C 0.50045(19) 0.47774(26) 0.22703(6)
C176_2 C 0.5510(2) 0.3868(3) 0.23899(6)
O114_2 O 0.5739(2) 0.35783(26) 0.25477(5)
C177_2 C 0.4545(2) 0.52885(28) 0.25981(6)
C178_2 C 0.51390(18) 0.45243(25) 0.27027(6)
C179_2 C 0.4653(2) 0.52020(28) 0.23501(6)
H83_2 H 0.4482 0.5439 0.2232
C180_2 C 0.52249(19) 0.44115(26) 0.24522(6)
H84_2 H 0.5308 0.4289 0.2821
O11_2 O 0.23691(12) 0.99288(11) 0.34106(5)
O12_2 O 0.34110(18) 0.81621(13) 0.32652(5)
C23_2 C 0.20146(14) 0.91575(14) 0.33693(5)
C24_2 C 0.24752(14) 0.88037(14) 0.33420(5)
H13_2 H 0.3031 0.9124 0.3347
C25_2 C 0.21494(14) 0.79984(14) 0.33079(4)
C26_2 C 0.26867(19) 0.76794(14) 0.32823(5)
C28_2 C 0.41925(16) 0.96778(15) 0.50059(6)
H14_2 H 0.3639 0.9455 0.5012
O19_2 O 0.09069(12) 0.97154(12) 0.33918(4)
C31_2 C 0.13188(14) 0.75091(14) 0.32973(5)
C32_2 C 0.08582(14) 0.78629(14) 0.33246(5)
H15_2 H 0.0303 0.7542 0.3319
C33_2 C 0.11840(14) 0.86682(14) 0.33587(4)
C34_2 C 0.06467(19) 0.89872(14) 0.33843(5)
O20_2 O 0.56822(12) 0.91021(12) 0.50954(5)
O21_2 O 0.32578(13) 0.81199(19) 0.51300(6)
O22_2 O 0.42120(13) 0.78622(12) 0.50889(4)
C35_2 C 0.53372(15) 0.95232(15) 0.50457(5)
C37_2 C 0.45153(14) 0.91982(14) 0.50477(5)
C38_2 C 0.39699(15) 0.83425(22) 0.50940(5)
O23_2 O 0.45709(23) 0.85521(16) 0.36458(5)
O24_2 O 0.45851(20) 0.95858(13) 0.34921(4)
C39_2 C 0.44907(28) 0.91493(19) 0.36777(6)
C40_2 C 0.4258(3) 0.9320(2) 0.39184(6)
C41_2 C 0.3940(4) 0.9815(2) 0.39341(8)
C42_2 C 0.3701(4) 0.9950(3) 0.41592(9)
C43_2 C 0.3834(5) 0.9644(3) 0.43711(8)
H19_2 H 0.3706 0.9768 0.4525
C44_2 C 0.4153(6) 0.9156(4) 0.43557(9)
H20_2 H 0.4236 0.8940 0.4500
C45_2 C 0.4356(4) 0.8979(3) 0.41270(8)
H21_2 H 0.4557 0.8631 0.4116
H24_2 H 0.4933 0.9847 0.0476
C51_2 C 0.4648(10) 0.9466(7) 0.08298(15)
H25_2 H 0.4323 0.8924 0.0794
C52_2 C 0.4778(7) 0.9745(5) 0.10717(12)
H26_2 H 0.4534 0.9397 0.1204
O27_2 O 0.49060(19) 0.96819(13) 0.30158(4)
O28_2 O 0.43989(24) 0.82339(15) 0.28804(5)
O29_2 O 0.38988(44) 0.79084(19) 0.25066(6)
C53_2 C 0.50266(24) 0.98377(17) 0.27777(6)
C54_2 C 0.47115(28) 0.92561(19) 0.25981(6)
C55_2 C 0.47980(28) 0.94506(19) 0.23501(6)
H27_2 H 0.4561 0.9042 0.2232
C59_2 C 0.4308(4) 0.8414(2) 0.26595(6)
Zr12_3 Zr 0.07625(2) 0.86885(3) 0.65621(2)
O67_3 O 0.76309(12) 0.00712(11) 0.65894(5)
O68_3 O 0.90931(12) 0.02846(12) 0.66082(4)
Zr18_3 Zr 0.53551(3) 0.12593(2) 0.67713(2)
O78_3 O 0.54291(23) 0.14479(16) 0.63542(5)
O79_3 O 0.54149(20) 0.04142(13) 0.65079(4)
O80_3 O 0.50940(19) 0.03181(13) 0.69842(4)
O81_3 O 0.56011(24) 0.17661(15) 0.71196(5)
O82_3 O 0.42264(16) 0.09643(12) 0.67440(5)
O83_3 O 0.54752(17) 0.24265(12) 0.67252(4)
O84_3 O 0.65890(18) 0.18379(13) 0.67348(5)
C121_3 C 0.55093(28) 0.08507(19) 0.63223(6)
C122_3 C 0.5742(3) 0.0680(2) 0.60816(6)
C123_3 C 0.6060(4) 0.0185(2) 0.60659(8)
C124_3 C 0.5644(4) 0.1021(3) 0.58730(8)
C125_3 C 0.6299(4) 0.0050(3) 0.58408(9)
C126_3 C 0.6166(5) 0.0356(3) 0.56289(8)
H59_3 H 0.6294 0.0232 0.5475
C127_3 C 0.5847(6) 0.0844(4) 0.56443(9)
H60_3 H 0.5764 0.1060 0.5500
H61_3 H 0.5443 0.1369 0.5884
C131_3 C 0.5222(7) 0.0255(5) 0.89283(12)
H64_3 H 0.5067 0.0153 0.9524
C134_3 C 0.5352(10) 0.0534(7) 0.91702(15)
H65_3 H 0.5677 0.1076 0.9206
H66_3 H 0.5466 0.0603 0.8796
C135_3 C 0.49734(24) 0.01623(17) 0.72223(6)
C136_3 C 0.5692(4) 0.1586(2) 0.73405(6)
O91_3 O 0.61012(44) 0.20916(19) 0.74934(6)
C139_3 C 0.52885(28) 0.07439(19) 0.74019(6)
C141_3 C 0.52020(28) 0.05494(19) 0.76499(6)
H67_3 H 0.5439 0.0958 0.7768
C143_3 C 0.38096(20) 0.13188(14) 0.67027(5)
C144_3 C 0.16594(24) 0.06467(19) 0.66157(5)
O94_3 O 0.11914(17) 0.09069(12) 0.66082(4)
Zr20_3 Zr 0.13115(3) 0.20741(2) 0.65621(2)
C145_3 C 0.29952(20) 0.08582(14) 0.66754(5)
C146_3 C 0.41509(20) 0.21494(14) 0.66921(4)
H69_3 H 0.2760 0.0303 0.6681
C147_3 C 0.25157(20) 0.11840(14) 0.66413(4)
C148_3 C 0.28570(20) 0.20146(14) 0.66307(5)
O95_3 O 0.24402(16) 0.23691(12) 0.65894(5)
O96_3 O 0.52488(22) 0.34110(18) 0.67348(5)
C155_3 C 0.50072(24) 0.26867(19) 0.67177(5)
Zr21_3 Zr 0.59041(2) 0.46449(3) 0.67713(2)
C156_3 C 0.36714(20) 0.24752(14) 0.66580(5)
H71_3 H 0.3906 0.3031 0.6653
H1_3 H 0.0059 0.6173 0.6209
H2_3 H 0.0253 0.6806 0.5832
Zr2_3 Zr 0.12927(2) 0.53558(2) 0.81903(2)
O3_3 O 0.1542(2) 0.5550(2) 0.86024(6)
O4_3 O 0.04032(18) 0.5272(2) 0.84579(5)
C8_3 C 0.0849(3) 0.5388(3) 0.86407(6)
C9_3 C 0.0541(4) 0.5270(4) 0.88894(9)
C10_3 C 0.1059(5) 0.5427(5) 0.90881(9)
H6_3 H 0.1602 0.5626 0.9059
C11_3 C 0.0781(7) 0.5295(7) 0.93215(11)
H7_3 H 0.1130 0.5412 0.9455
C12_3 C 0.0028(8) 0.5006(7) 0.93602(13)
O8_3 O 0.03767(14) 0.51113(15) 0.79707(4)
O9_3 O 0.18176(16) 0.55078(19) 0.78393(5)
O10_3 O 0.21603(17) 0.5739(2) 0.74523(5)
C18_3 C 0.02270(18) 0.50045(19) 0.77297(6)
C19_3 C 0.08133(18) 0.52249(19) 0.75478(6)
C20_3 C 0.06146(18) 0.51390(18) 0.72973(6)
H12_3 H 0.1018 0.5308 0.7179
C22_3 C 0.1641(2) 0.5510(2) 0.76101(6)
O12_3 O 0.00776(18) 0.14955(13) 0.65986(5)
O14_3 O 0.09844(12) 0.42313(12) 0.82380(5)
O15_3 O 0.34088(13) 0.52135(19) 0.82034(6)
O16_3 O 0.24546(13) 0.54712(12) 0.82445(4)
C27_3 C 0.13294(15) 0.38102(15) 0.82877(5)
C28_3 C 0.08591(16) 0.30112(15) 0.83393(6)
H14_3 H 0.0305 0.2789 0.8346
C29_3 C 0.21513(14) 0.41352(14) 0.82857(5)
C30_3 C 0.26967(15) 0.49909(22) 0.82394(5)
C35_3 C 0.20039(15) 0.28565(15) 0.83790(5)
C36_3 C 0.24742(16) 0.36555(15) 0.83274(6)
H16_3 H 0.3028 0.3878 0.8321
C37_3 C 0.11820(14) 0.25315(14) 0.83810(5)
C38_3 C 0.06366(15) 0.16758(22) 0.84273(5)
O23_3 O 0.12375(23) 0.18855(16) 0.69792(5)
O24_3 O 0.12517(20) 0.29192(13) 0.68255(4)
C39_3 C 0.11573(28) 0.24827(19) 0.70111(6)
C40_3 C 0.0924(3) 0.2654(2) 0.72518(6)
C41_3 C 0.0606(4) 0.3149(2) 0.72675(8)
H17_3 H 0.0553 0.3393 0.7125
C42_3 C 0.0367(4) 0.3284(3) 0.74926(9)
H18_3 H 0.0114 0.3587 0.7502
C43_3 C 0.0500(5) 0.2978(3) 0.77045(8)
H19_3 H 0.0372 0.3102 0.7859
C44_3 C 0.0819(6) 0.2490(4) 0.76891(9)
H20_3 H 0.0902 0.2274 0.7834
C45_3 C 0.1022(4) 0.2313(3) 0.74604(8)
H21_3 H 0.1223 0.1965 0.7450
O25_3 O 0.2659(3) 0.4876(2) 0.47310(6)
O26_3 O 0.17982(27) 0.37366(18) 0.48755(5)
C46_3 C 0.2128(4) 0.4183(3) 0.46927(6)
C47_3 C 0.1938(6) 0.3875(4) 0.44440(9)
C48_3 C 0.2299(7) 0.4393(5) 0.42453(9)
H22_3 H 0.2643 0.4936 0.4275
C49_3 C 0.2153(10) 0.4115(7) 0.40119(11)
H23_3 H 0.2385 0.4464 0.3879
C50_3 C 0.1689(11) 0.3362(8) 0.39732(13)
H24_3 H 0.1599 0.3181 0.3810
C51_3 C 0.1314(10) 0.2800(7) 0.41632(15)
H25_3 H 0.0989 0.2258 0.4128
C52_3 C 0.1444(7) 0.3079(5) 0.44051(12)
H26_3 H 0.1200 0.2731 0.4538
O27_3 O 0.15726(19) 0.30153(13) 0.63492(4)
O28_3 O 0.10655(24) 0.15673(15) 0.62138(5)
O29_3 O 0.05654(44) 0.12418(19) 0.58400(6)
O30_3 O 0.19321(21) 0.37101(14) 0.53627(4)
O31_3 O 0.29765(25) 0.51510(16) 0.54941(5)
O32_3 O 0.30883(26) 0.54937(17) 0.58811(5)
C53_3 C 0.16932(24) 0.31711(17) 0.61111(6)
C54_3 C 0.13781(28) 0.25895(19) 0.59315(6)
C55_3 C 0.14646(28) 0.27840(19) 0.56835(6)
H27_3 H 0.1227 0.2376 0.5566
C56_3 C 0.18892(26) 0.35604(18) 0.56037(6)
C57_3 C 0.22551(26) 0.41467(18) 0.57856(6)
C58_3 C 0.21423(25) 0.39480(18) 0.60361(6)
H28_3 H 0.2377 0.4352 0.6155
C59_3 C 0.0974(4) 0.1748(2) 0.59929(6)
C60_3 C 0.2798(3) 0.4975(2) 0.57233(6)
Zr7_3 Zr 0.46442(2) 0.59370(3) 0.81903(2)
O37_3 O 0.18046(23) 0.65912(13) 0.82034(6)
O40_3 O 0.60187(16) 0.45709(23) 0.63542(5)
O41_3 O 0.49992(15) 0.45851(20) 0.65079(4)
O42_3 O 0.52240(14) 0.49060(19) 0.69842(4)
O43_3 O 0.61649(19) 0.43989(24) 0.71196(5)
O44_3 O 0.67378(11) 0.57736(16) 0.67440(5)
O45_3 O 0.69512(12) 0.45248(17) 0.67252(4)
C61_3 C 0.5341(2) 0.44907(28) 0.63223(6)
C62_3 C 0.4937(2) 0.4258(3) 0.60816(6)
C63_3 C 0.4124(3) 0.3940(4) 0.60659(8)
C64_3 C 0.5376(3) 0.4356(4) 0.58730(8)
H29_3 H 0.3827 0.3887 0.6209
C65_3 C 0.3750(3) 0.3701(4) 0.58408(9)
H30_3 H 0.3194 0.3448 0.5832
C66_3 C 0.4189(4) 0.3834(5) 0.56289(8)
H31_3 H 0.3937 0.3706 0.5475
C67_3 C 0.4996(4) 0.4153(6) 0.56443(9)
H32_3 H 0.5295 0.4236 0.5500
H33_3 H 0.5925 0.4557 0.5884
O47_3 O 0.4450(2) 0.5993(3) 0.86024(6)
O48_3 O 0.4728(2) 0.51316(27) 0.84579(5)
O49_3 O 0.48887(15) 0.52655(21) 0.79707(4)
O50_3 O 0.44922(19) 0.63099(25) 0.78393(5)
O51_3 O 0.57687(12) 0.67532(17) 0.82380(5)
O52_3 O 0.45288(12) 0.69835(18) 0.82445(4)
C68_3 C 0.4612(3) 0.5462(4) 0.86407(6)
C69_3 C 0.4730(4) 0.5272(6) 0.88894(9)
C70_3 C 0.4573(5) 0.5633(7) 0.90881(9)
C71_3 C 0.5032(5) 0.4778(7) 0.89283(12)
H34_3 H 0.4374 0.5977 0.9059
C72_3 C 0.4705(7) 0.5487(10) 0.93215(11)
H35_3 H 0.4588 0.5719 0.9455
C73_3 C 0.4994(7) 0.5023(11) 0.93602(13)
H36_3 H 0.5085 0.4933 0.9524
C74_3 C 0.5181(7) 0.4648(10) 0.91702(15)
H37_3 H 0.5398 0.4323 0.9206
H38_3 H 0.5136 0.4534 0.8796
C75_3 C 0.51888(17) 0.50266(24) 0.72223(6)
C76_3 C 0.5893(3) 0.4308(4) 0.73405(6)
O53_3 O 0.5990(4) 0.38988(44) 0.74934(6)
C77_3 C 0.49955(19) 0.52226(26) 0.77297(6)
C78_3 C 0.4490(2) 0.6132(3) 0.76101(6)
O54_3 O 0.4261(2) 0.64217(26) 0.74523(5)
C79_3 C 0.5455(2) 0.47115(28) 0.74019(6)
C80_3 C 0.48610(18) 0.54757(25) 0.72973(6)
C81_3 C 0.5347(2) 0.47980(28) 0.76499(6)
H39_3 H 0.5518 0.4561 0.7768
C82_3 C 0.47751(19) 0.55885(26) 0.75478(6)
H40_3 H 0.4692 0.5711 0.7179
C83_3 C 0.75091(14) 0.61904(20) 0.67027(5)
O55_3 O 0.85045(13) 0.85822(22) 0.65986(5)
C84_3 C 0.89872(14) 0.83406(24) 0.66157(5)
Zr11_3 Zr 0.79259(2) 0.92375(2) 0.65621(2)
O56_3 O 0.97154(12) 0.88086(17) 0.66082(4)
C85_3 C 0.78629(14) 0.70048(20) 0.66754(5)
C86_3 C 0.79984(14) 0.58491(20) 0.66921(4)
H41_3 H 0.7542 0.7240 0.6681
C87_3 C 0.86682(14) 0.74843(20) 0.66413(4)
C88_3 C 0.91575(14) 0.71430(20) 0.66307(5)
C89_3 C 0.61898(15) 0.75193(21) 0.82877(5)
O57_3 O 0.47865(19) 0.81954(23) 0.82034(6)
C90_3 C 0.50091(22) 0.77059(27) 0.82394(5)
Zr13_3 Zr 0.40630(3) 0.87073(2) 0.81903(2)
C91_3 C 0.69888(15) 0.78480(22) 0.83393(6)
C92_3 C 0.58648(14) 0.80162(20) 0.82857(5)
H42_3 H 0.7211 0.7517 0.8346
C93_3 C 0.74685(14) 0.86505(20) 0.83810(5)
C94_3 C 0.63445(15) 0.88187(22) 0.83274(6)
O58_3 O 0.99288(11) 0.75598(16) 0.65894(5)
O59_3 O 0.81621(13) 0.47512(22) 0.67348(5)
C95_3 C 0.76794(14) 0.49928(24) 0.67177(5)
Zr14_3 Zr 0.87407(2) 0.40959(2) 0.67713(2)
C96_3 C 0.88037(14) 0.63286(20) 0.66580(5)
H43_3 H 0.9124 0.6094 0.6653
C97_3 C 0.71435(15) 0.91474(21) 0.83790(5)
C98_3 C 0.83242(22) 0.89608(27) 0.84273(5)
H44_3 H 0.6122 0.9150 0.8321
O63_3 O 0.81145(16) 0.93521(16) 0.69792(5)
O64_3 O 0.70808(13) 0.83326(15) 0.68255(4)
O65_3 O 0.69847(13) 0.85574(14) 0.63492(4)
O66_3 O 0.84327(15) 0.94983(19) 0.62138(5)
C99_3 C 0.75173(19) 0.8675(2) 0.70111(6)
C100_3 C 0.7346(2) 0.8271(2) 0.72518(6)
C101_3 C 0.6851(2) 0.7458(3) 0.72675(8)
C102_3 C 0.7687(3) 0.8710(3) 0.74604(8)
H45_3 H 0.6607 0.7161 0.7125
C103_3 C 0.6716(3) 0.7084(3) 0.74926(9)
H46_3 H 0.6413 0.6528 0.7502
C104_3 C 0.7022(3) 0.7523(4) 0.77045(8)
H47_3 H 0.6898 0.7271 0.7859
C105_3 C 0.7510(4) 0.8330(4) 0.76891(9)
H48_3 H 0.7726 0.8629 0.7834
H49_3 H 0.8035 0.9259 0.7450
O69_3 O 0.5124(2) 0.7784(2) 0.47310(6)
O70_3 O 0.62634(18) 0.8062(2) 0.48755(5)
O71_3 O 0.62899(14) 0.82221(15) 0.53627(4)
O72_3 O 0.48490(16) 0.78256(19) 0.54941(5)
C106_3 C 0.5817(3) 0.7946(3) 0.46927(6)
C107_3 C 0.6125(4) 0.8064(4) 0.44440(9)
C108_3 C 0.5607(5) 0.7907(5) 0.42453(9)
C109_3 C 0.6921(5) 0.8366(5) 0.44051(12)
H50_3 H 0.5064 0.7708 0.4275
C110_3 C 0.5885(7) 0.8039(7) 0.40119(11)
H51_3 H 0.5536 0.7922 0.3879
C111_3 C 0.6638(8) 0.8328(7) 0.39732(13)
H52_3 H 0.6819 0.8419 0.3810
C112_3 C 0.7200(7) 0.8515(7) 0.41632(15)
H53_3 H 0.7742 0.8732 0.4128
H54_3 H 0.7269 0.8470 0.4538
C113_3 C 0.68289(17) 0.85222(17) 0.61111(6)
C114_3 C 0.8252(2) 0.9227(3) 0.59929(6)
O76_3 O 0.87582(19) 0.9324(4) 0.58400(6)
C115_3 C 0.64396(18) 0.83289(19) 0.56037(6)
C116_3 C 0.5025(2) 0.7824(2) 0.57233(6)
O77_3 O 0.45063(17) 0.7595(2) 0.58811(5)
C117_3 C 0.74105(19) 0.8789(2) 0.59315(6)
C118_3 C 0.60520(18) 0.81944(18) 0.60361(6)
C119_3 C 0.72160(19) 0.8681(2) 0.56835(6)
H55_3 H 0.7624 0.8852 0.5566
C120_3 C 0.58533(18) 0.81085(19) 0.57856(6)
H56_3 H 0.5648 0.8026 0.6155
H57_3 H 0.6113 0.9941 0.6209
H58_3 H 0.6552 0.9747 0.5832
O85_3 O 0.4007(3) 0.8458(2) 0.86024(6)
O86_3 O 0.48684(27) 0.95968(18) 0.84579(5)
O87_3 O 0.47345(21) 0.96233(14) 0.79707(4)
O88_3 O 0.36901(25) 0.81824(16) 0.78393(5)
O89_3 O 0.32468(17) 0.90156(12) 0.82380(5)
O90_3 O 0.30165(18) 0.75454(13) 0.82445(4)
C128_3 C 0.4538(4) 0.9151(3) 0.86407(6)
C129_3 C 0.4728(6) 0.9459(4) 0.88894(9)
C130_3 C 0.4367(7) 0.8941(5) 0.90881(9)
H62_3 H 0.4023 0.8398 0.9059
C132_3 C 0.4513(10) 0.9219(7) 0.93215(11)
H63_3 H 0.4281 0.8870 0.9455
C133_3 C 0.4977(11) 0.9972(8) 0.93602(13)
C137_3 C 0.47774(26) 0.97730(18) 0.77297(6)
C138_3 C 0.3868(3) 0.8359(2) 0.76101(6)
O92_3 O 0.35783(26) 0.78397(17) 0.74523(5)
C140_3 C 0.45243(25) 0.93854(18) 0.72973(6)
C142_3 C 0.44115(26) 0.91867(18) 0.75478(6)
H68_3 H 0.4289 0.8982 0.7179
O93_3 O 0.14178(22) 0.99224(18) 0.65986(5)
C149_3 C 0.24807(21) 0.86706(15) 0.82877(5)
C150_3 C 0.22941(27) 0.73033(15) 0.82394(5)
C151_3 C 0.21520(22) 0.91409(16) 0.83393(6)
C152_3 C 0.19838(20) 0.78487(14) 0.82857(5)
H70_3 H 0.2483 0.9695 0.8346
C153_3 C 0.13495(20) 0.88180(14) 0.83810(5)
C154_3 C 0.11813(22) 0.75258(16) 0.83274(6)
C157_3 C 0.08526(21) 0.79961(15) 0.83790(5)
C158_3 C 0.10392(27) 0.93634(15) 0.84273(5)
H72_3 H 0.0850 0.6972 0.8321
O100_3 O 0.06479(16) 0.87625(23) 0.69792(5)
O101_3 O 0.16674(15) 0.87483(20) 0.68255(4)
O102_3 O 0.14426(14) 0.84274(19) 0.63492(4)
O103_3 O 0.05017(19) 0.89345(24) 0.62138(5)
C159_3 C 0.1325(2) 0.88427(28) 0.70111(6)
C160_3 C 0.1729(2) 0.9076(3) 0.72518(6)
C161_3 C 0.2542(3) 0.9394(4) 0.72675(8)
C162_3 C 0.1290(3) 0.8978(4) 0.74604(8)
H73_3 H 0.2839 0.9447 0.7125
C163_3 C 0.2916(3) 0.9633(4) 0.74926(9)
H74_3 H 0.3472 0.9886 0.7502
C164_3 C 0.2477(4) 0.9500(5) 0.77045(8)
H75_3 H 0.2729 0.9628 0.7859
C165_3 C 0.1670(4) 0.9181(6) 0.76891(9)
H76_3 H 0.1371 0.9098 0.7834
H77_3 H 0.0741 0.8777 0.7450
O106_3 O 0.2216(2) 0.7341(3) 0.47310(6)
O107_3 O 0.1938(2) 0.82018(27) 0.48755(5)
O108_3 O 0.17779(15) 0.80679(21) 0.53627(4)
O109_3 O 0.21744(19) 0.70235(25) 0.54941(5)
C166_3 C 0.2054(3) 0.7872(4) 0.46927(6)
C167_3 C 0.1936(4) 0.8062(6) 0.44440(9)
C168_3 C 0.2093(5) 0.7701(7) 0.42453(9)
C169_3 C 0.1634(5) 0.8556(7) 0.44051(12)
H78_3 H 0.2292 0.7357 0.4275
C170_3 C 0.1961(7) 0.7847(10) 0.40119(11)
H79_3 H 0.2078 0.7615 0.3879
C171_3 C 0.1672(7) 0.8311(11) 0.39732(13)
H80_3 H 0.1581 0.8401 0.3810
C172_3 C 0.1485(7) 0.8686(10) 0.41632(15)
H81_3 H 0.1268 0.9011 0.4128
H82_3 H 0.1530 0.8800 0.4538
C173_3 C 0.14778(17) 0.83068(24) 0.61111(6)
C174_3 C 0.0773(3) 0.9026(4) 0.59929(6)
O113_3 O 0.0676(4) 0.94346(44) 0.58400(6)
C175_3 C 0.16711(19) 0.81108(26) 0.56037(6)
C176_3 C 0.2176(2) 0.7202(3) 0.57233(6)
O114_3 O 0.2405(2) 0.69117(26) 0.58811(5)
C177_3 C 0.1211(2) 0.86219(28) 0.59315(6)
C178_3 C 0.18056(18) 0.78577(25) 0.60361(6)
C179_3 C 0.1319(2) 0.85354(28) 0.56835(6)
H83_3 H 0.1148 0.8773 0.5566
C180_3 C 0.18915(19) 0.77449(26) 0.57856(6)
H84_3 H 0.1974 0.7623 0.6155
O1_3 O 0.85521(16) 0.39813(16) 0.63542(5)
O2_3 O 0.95858(13) 0.50008(15) 0.65079(4)
C1_3 C 0.91493(19) 0.4659(2) 0.63223(6)
C2_3 C 0.9320(2) 0.5063(2) 0.60816(6)
C3_3 C 0.9815(2) 0.5876(3) 0.60659(8)
C4_3 C 0.9950(3) 0.6250(3) 0.58408(9)
C5_3 C 0.9644(3) 0.5811(4) 0.56289(8)
H3_3 H 0.9768 0.6063 0.5475
C6_3 C 0.9156(4) 0.5004(4) 0.56443(9)
H4_3 H 0.8940 0.4705 0.5500
C7_3 C 0.8979(3) 0.4624(3) 0.58730(8)
H5_3 H 0.8631 0.4075 0.5884
H8_3 H 0.9847 0.4915 0.9524
C13_3 C 0.9466(7) 0.4819(7) 0.91702(15)
H9_3 H 0.8924 0.4602 0.9206
C14_3 C 0.9745(5) 0.4968(5) 0.89283(12)
H10_3 H 0.9397 0.4864 0.8796
O5_3 O 0.96819(13) 0.47760(14) 0.69842(4)
O6_3 O 0.82339(15) 0.38351(19) 0.71196(5)
O7_3 O 0.79084(19) 0.4010(4) 0.74934(6)
C15_3 C 0.98377(17) 0.48112(17) 0.72223(6)
C16_3 C 0.92561(19) 0.4545(2) 0.74019(6)
C17_3 C 0.94506(19) 0.4653(2) 0.76499(6)
H11_3 H 0.9042 0.4482 0.7768
C21_3 C 0.8414(2) 0.4107(3) 0.73405(6)
O11_3 O 0.90357(12) 0.32622(11) 0.67440(5)
C23_3 C 0.86812(14) 0.24909(14) 0.67027(5)
C24_3 C 0.91418(14) 0.21371(14) 0.66754(5)
H13_3 H 0.9697 0.2458 0.6681
C25_3 C 0.88160(14) 0.13318(14) 0.66413(4)
C26_3 C 0.93533(19) 0.10128(14) 0.66157(5)
O19_3 O 0.75735(12) 0.30488(12) 0.67252(4)
C31_3 C 0.79854(14) 0.08425(14) 0.66307(5)
C32_3 C 0.75248(14) 0.11963(14) 0.66580(5)
H15_3 H 0.6969 0.0876 0.6653
C33_3 C 0.78506(14) 0.20016(14) 0.66921(4)
C34_3 C 0.73133(19) 0.23206(14) 0.67177(5)
H85 H 0.0215 0.0464 0.1194
O115 O 0.0000 -0.0000 0.11504(15)
O115_2 O -0.0000 1.0000 0.11504(15)
H87 H 0.0249 0.9785 0.1194
O115_3 O 1.0000 -0.0000 0.11504(15)
O115_4 O 1.0000 1.0000 0.11504(15)
H86 H 0.9536 0.9751 0.1194
O115_5 O 0.6667 0.3333 0.44837(15)
O115_6 O 0.3333 0.6667 0.78171(15)
O115_7 O 0.0000 0.0000 0.88496(15)
H86_2 H 0.0464 0.0249 0.8806
O115_8 O -0.0000 1.0000 0.88496(15)
O115_9 O 1.0000 0.0000 0.88496(15)
H87_2 H 0.9751 0.0215 0.8806
H85_2 H 0.9785 0.9536 0.8806
O115_10 O 1.0000 1.0000 0.88496(15)
O115_11 O 0.3333 0.6667 0.55163(15)
O115_12 O 0.6667 0.3333 0.21829(15)
O116 O 0.3333 0.6667 0.04474(11)
O116_2 O -0.0000 0.0000 0.37807(11)
H90 H 0.0434 0.0210 0.3838
O116_3 O -0.0000 1.0000 0.37807(11)
H88 H 0.9790 0.0223 0.3838
O116_4 O 1.0000 0.0000 0.37807(11)
O116_5 O 1.0000 1.0000 0.37807(11)
H89 H 0.9777 0.9566 0.3838
O116_6 O 0.6666 0.3334 0.71141(11)
O116_7 O 0.6667 0.3333 0.95526(11)
O116_8 O 0.0000 -0.0000 0.62193(11)
H89_2 H 0.0223 0.0434 0.6162
H88_2 H 0.0210 0.9777 0.6162
O116_9 O 0.0000 1.0000 0.62193(11)
O116_10 O 1.0000 -0.0000 0.62193(11)
O116_11 O 1.0000 1.0000 0.62193(11)
H90_2 H 0.9566 0.9790 0.6162
O116_12 O 0.3334 0.6666 0.28859(11)
O117 O 0.3333 0.6667 0.11706(17)
O117_2 O -0.0000 0.0000 0.45039(17)
H100 H 0.0504317 3.33333e-05 0.450393
H101 H 0.00693443 0.0476122 0.441848
O117_3 O -0.0000 1.0000 0.45039(17)
H100_2 H 0.0504317 1.00003 0.450393
H101_2 H 0.0406778 0.993066 0.441848
O117_4 O 1.0000 0.0000 0.45039(17)
O117_5 O 1.0000 1.0000 0.45039(17)
H102 H 0.959356 0.952454 0.441848
H101_3 H 0.952388 0.959322 0.441848
H100_3 H -3.33333e-05 0.0503983 0.450393
H102_2 H 0.0475455 0.0069011 0.441848
H100_4 H 0.999967 0.0503983 0.450393
H102_3 H 0.993099 0.0406444 0.441848
H100_5 H 0.949602 0.949568 0.450393
O117_6 O 0.6666 0.3334 0.78373(17)
O117_7 O 0.6667 0.3333 0.88294(17)
O117_8 O 0.0000 -0.0000 0.54961(17)
H102_4 H 0.0406444 0.0475455 0.558152
H101_4 H 0.0476122 0.0406778 0.558152
O117_9 O 0.0000 1.0000 0.54961(17)
O117_10 O 1.0000 -0.0000 0.54961(17)
H100_6 H 0.949568 -3.33333e-05 0.549607
H101_5 H 0.959322 0.00693443 0.558152
O117_11 O 1.0000 1.0000 0.54961(17)
H100_7 H 0.949568 0.999967 0.549607
H101_6 H 0.993066 0.952388 0.558152
H100_8 H 3.33333e-05 0.949602 0.549607
H100_9 H 1.00003 0.949602 0.549607
H102_5 H 0.952454 0.993099 0.558152
H100_10 H 0.0503983 0.0504317 0.549607
H102_6 H 0.0069011 0.959356 0.558152
O117_12 O 0.3334 0.6666 0.21627(17)
O118 O 0.3333 0.6667 0.9616(3)
O118_2 O -0.0000 0.0000 0.2949(3)
H91 H 0.0504317 3.33333e-05 0.294933
H92 H 0.00693443 0.0476122 0.286388
O118_3 O -0.0000 1.0000 0.2949(3)
H91_2 H 0.0504317 1.00003 0.294933
H92_2 H 0.0406778 0.993066 0.286388
O118_4 O 1.0000 0.0000 0.2949(3)
O118_5 O 1.0000 1.0000 0.2949(3)
H93 H 0.959356 0.952454 0.286388
H92_3 H 0.952388 0.959322 0.286388
H91_3 H -3.33333e-05 0.0503983 0.294933
H93_2 H 0.0475455 0.0069011 0.286388
H91_4 H 0.999967 0.0503983 0.294933
H93_3 H 0.993099 0.0406444 0.286388
H91_5 H 0.949602 0.949568 0.294933
O118_6 O 0.6666 0.3334 0.6283(3)
O118_7 O 0.6667 0.3333 0.0384(3)
O118_8 O 0.0000 -0.0000 0.7051(3)
H93_4 H 0.0406444 0.0475455 0.713612
H92_4 H 0.0476122 0.0406778 0.713612
O118_9 O 0.0000 1.0000 0.7051(3)
O118_10 O 1.0000 -0.0000 0.7051(3)
H91_6 H 0.949568 -3.33333e-05 0.705067
H92_5 H 0.959322 0.00693443 0.713612
O118_11 O 1.0000 1.0000 0.7051(3)
H91_7 H 0.949568 0.999967 0.705067
H92_6 H 0.993066 0.952388 0.713612
H91_8 H 3.33333e-05 0.949602 0.705067
H91_9 H 1.00003 0.949602 0.705067
H93_5 H 0.952454 0.993099 0.713612
H91_10 H 0.0503983 0.0504317 0.705067
H93_6 H 0.0069011 0.959356 0.713612
O118_12 O 0.3334 0.6666 0.3717(3)
O119 O -0.0000 -0.0000 0.1980(2)
O119_2 O -0.0000 1.0000 0.1980(2)
H97 H 0.050465 1 0.198
H98 H 0.0406111 0.993032 0.189455
O119_3 O 1.0000 -0.0000 0.1980(2)
H97_2 H 1 0.050465 0.198
H99 H 0.993032 0.0406111 0.189455
O119_4 O 1.0000 1.0000 0.1980(2)
O119_5 O 0.6667 0.3333 0.5313(2)
O119_6 O 0.3333 0.6667 0.8647(2)
O119_7 O 0.0000 0.0000 0.8020(2)
O119_8 O 0.0000 1.0000 0.8020(2)
H97_3 H -1.62399e-16 0.949535 0.802
H99_2 H 0.00696776 0.959389 0.810545
O119_9 O 1.0000 0.0000 0.8020(2)
H97_4 H 0.949535 2.22045e-16 0.802
H98_2 H 0.959389 0.00696776 0.810545
O119_10 O 1.0000 1.0000 0.8020(2)
O119_11 O 0.3333 0.6667 0.4687(2)
O119_12 O 0.6667 0.3333 0.1353(2)
O120 O 0.0000 -0.0000 0.0000
O120_2 O 0.0000 -0.0000 1.0000
O120_3 O 0.0000 1.0000 0.0000
O120_4 O 0.0000 1.0000 1.0000
O120_5 O 1.0000 -0.0000 0.0000
O120_6 O 1.0000 -0.0000 1.0000
O120_7 O 1.0000 1.0000 0.0000
O120_8 O 1.0000 1.0000 1.0000
O120_9 O 0.6667 0.3333 0.3333
O120_10 O 0.3333 0.6667 0.6667
loop_
_geom_bond_atom_site_label_1
_geom_bond_atom_site_label_2
_geom_bond_site_symmetry_1
_geom_bond_site_symmetry_2
H41 C85 1_555 1_555
C89 O51 1_555 1_555
O57 C90 1_555 1_555
C90 O52 1_555 1_555
Zr13 O57 1_555 1_555
C91 C89 1_555 1_555
C92 C89 1_555 1_555
H42 C91 1_555 1_555
C93 C91 1_555 1_555
C94 C92 1_555 1_555
O60 C97 1_555 1_555
C97 C93 1_555 1_555
Zr15 O60 1_555 1_555
O61 C98 1_555 1_555
C98 C93 1_555 1_555
Zr16 O61 1_555 1_555
O62 Zr15 1_555 1_555
H44 C94 1_555 1_555
C99 O63 1_555 1_555
C100 C99 1_555 1_555
C101 C100 1_555 1_555
C102 C100 1_555 1_555
H45 C101 1_555 1_555
C103 C101 1_555 1_555
C104 C103 1_555 1_555
H47 C104 1_555 1_555
C105 C102 1_555 1_555
H48 C105 1_555 1_555
H49 C102 1_555 1_555
O80 Zr18 1_555 1_555
O81 Zr18 1_555 1_555
O82 Zr18 1_555 1_555
O83 Zr18 1_555 1_555
O84 Zr18 1_555 1_555
O85 Zr13 1_555 1_555
O86 Zr13 1_555 1_555
O87 Zr13 1_555 1_555
O88 Zr13 1_555 1_555
C128 O85 1_555 1_555
C129 C128 1_555 1_555
C130 C129 1_555 1_555
C131 C129 1_555 1_555
H62 C130 1_555 1_555
C132 C130 1_555 1_555
H63 C132 1_555 1_555
C133 C132 1_555 1_555
H64 C133 1_555 1_555
C134 C131 1_555 1_555
H65 C134 1_555 1_555
H66 C131 1_555 1_555
C135 O80 1_555 1_555
C136 O81 1_555 1_555
O91 C136 1_555 1_555
C137 O87 1_555 1_555
C138 O88 1_555 1_555
O92 C138 1_555 1_555
C139 C135 1_555 1_555
C140 C135 1_555 1_555
C141 C137 1_555 1_555
H67 C141 1_555 1_555
C142 C137 1_555 1_555
H68 C140 1_555 1_555
C143 O82 1_555 1_555
C146 C143 1_555 1_555
O96 C155 1_555 1_555
C155 O83 1_555 1_555
Zr21 O96 1_555 1_555
C90 C92 1_555 1_555
C94 C97 1_555 1_555
C98 O62 1_555 1_555
O64 C99 1_555 1_555
C104 C105 1_555 1_555
O86 C128 1_555 1_555
C133 C134 1_555 1_555
C136 C139 1_555 1_555
C138 C142 1_555 1_555
C139 C141 1_555 1_555
C140 C142 1_555 1_555
C146 C155 1_555 1_555
O55 C84 1_555 1_555
C84 O56 1_555 1_555
Zr11 O55 1_555 1_555
O56 Zr12 1_555 1_555
Zr12 O58 1_555 1_555
C87 C84 1_555 1_555
C88 C87 1_555 1_555
O58 C88 1_555 1_555
O65 Zr11 1_555 1_555
O66 Zr11 1_555 1_555
O67 Zr11 1_555 1_555
O68 Zr11 1_555 1_555
Zr17 O69 1_555 1_555
O69 C106 1_555 1_555
O70 Zr17 1_555 1_555
O71 Zr17 1_555 1_555
O72 Zr17 1_555 1_555
O73 Zr17 1_555 1_555
O74 Zr17 1_555 1_555
O75 Zr17 1_555 1_555
C106 O70 1_555 1_555
C107 C106 1_555 1_555
C108 C107 1_555 1_555
C109 C107 1_555 1_555
H50 C108 1_555 1_555
C110 C108 1_555 1_555
H51 C110 1_555 1_555
C111 C110 1_555 1_555
H52 C111 1_555 1_555
C112 C109 1_555 1_555
H53 C112 1_555 1_555
H54 C109 1_555 1_555
C113 O65 1_555 1_555
C114 O66 1_555 1_555
O76 C114 1_555 1_555
C115 O71 1_555 1_555
C116 O72 1_555 1_555
O77 C116 1_555 1_555
C117 C113 1_555 1_555
C118 C113 1_555 1_555
C119 C115 1_555 1_555
H55 C119 1_555 1_555
C120 C115 1_555 1_555
H56 C118 1_555 1_555
O78 C121 1_555 1_555
C121 O79 1_555 1_555
C122 C121 1_555 1_555
C123 C122 1_555 1_555
C124 C122 1_555 1_555
H57 C123 1_555 1_555
C125 C123 1_555 1_555
H58 C125 1_555 1_555
C126 C125 1_555 1_555
H59 C126 1_555 1_555
C127 C124 1_555 1_555
H60 C127 1_555 1_555
H61 C124 1_555 1_555
H71 C156 1_555 1_555
C111 C112 1_555 1_555
C114 C117 1_555 1_555
C116 C120 1_555 1_555
C117 C119 1_555 1_555
C118 C120 1_555 1_555
C126 C127 1_555 1_555
Zr7 O15 1_555 1_555
O42 Zr21 1_555 1_555
O43 Zr21 1_555 1_555
O44 Zr21 1_555 1_555
O45 Zr21 1_555 1_555
O47 Zr7 1_555 1_555
O48 Zr7 1_555 1_555
O49 Zr7 1_555 1_555
O50 Zr7 1_555 1_555
C68 O47 1_555 1_555
C69 C68 1_555 1_555
C70 C69 1_555 1_555
C71 C69 1_555 1_555
H34 C70 1_555 1_555
C72 C70 1_555 1_555
H35 C72 1_555 1_555
C73 C72 1_555 1_555
H36 C73 1_555 1_555
C74 C71 1_555 1_555
H37 C74 1_555 1_555
H38 C71 1_555 1_555
C75 O42 1_555 1_555
C76 O43 1_555 1_555
O53 C76 1_555 1_555
C77 O49 1_555 1_555
C78 O50 1_555 1_555
O54 C78 1_555 1_555
C79 C75 1_555 1_555
C80 C75 1_555 1_555
C81 C77 1_555 1_555
H39 C81 1_555 1_555
C82 C77 1_555 1_555
H40 C80 1_555 1_555
C83 O44 1_555 1_555
C86 C83 1_555 1_555
O59 C95 1_555 1_555
C95 O45 1_555 1_555
Zr14 O59 1_555 1_555
O48 C68 1_555 1_555
C73 C74 1_555 1_555
C76 C79 1_555 1_555
C78 C82 1_555 1_555
C79 C81 1_555 1_555
C80 C82 1_555 1_555
C86 C95 1_555 1_555
O40 C61 1_555 1_555
C61 O41 1_555 1_555
C62 C61 1_555 1_555
C63 C62 1_555 1_555
C64 C62 1_555 1_555
H29 C63 1_555 1_555
C65 C63 1_555 1_555
C66 C65 1_555 1_555
H31 C66 1_555 1_555
C67 C64 1_555 1_555
H32 C67 1_555 1_555
H33 C64 1_555 1_555
H43 C96 1_555 1_555
C66 C67 1_555 1_555
H69 C145 1_555 1_555
C149 O89 1_555 1_555
C151 C149 1_555 1_555
C152 C149 1_555 1_555
H70 C151 1_555 1_555
C153 C151 1_555 1_555
C154 C152 1_555 1_555
O97 C157 1_555 1_555
C157 C153 1_555 1_555
Zr16 O97 1_555 1_555
O98 C158 1_555 1_555
C158 C153 1_555 1_555
Zr23 O98 1_555 1_555
O99 Zr16 1_555 1_555
H72 C154 1_555 1_555
C159 O100 1_555 1_555
C160 C159 1_555 1_555
C161 C160 1_555 1_555
C162 C160 1_555 1_555
H73 C161 1_555 1_555
C163 C161 1_555 1_555
C164 C163 1_555 1_555
H75 C164 1_555 1_555
C165 C162 1_555 1_555
H76 C165 1_555 1_555
H77 C162 1_555 1_555
O90 C150 1_555 1_555
C150 C152 1_555 1_555
C154 C157 1_555 1_555
C158 O99 1_555 1_555
O101 C159 1_555 1_555
C164 C165 1_555 1_555
O93 C144 1_555 1_555
C144 O94 1_555 1_555
Zr12 O93 1_555 1_555
O94 Zr20 1_555 1_555
Zr20 O95 1_555 1_555
C147 C144 1_555 1_555
C148 C147 1_555 1_555
O95 C148 1_555 1_555
O102 Zr12 1_555 1_555
O103 Zr12 1_555 1_555
Zr24 O106 1_555 1_555
O106 C166 1_555 1_555
O107 Zr24 1_555 1_555
O108 Zr24 1_555 1_555
O109 Zr24 1_555 1_555
O111 Zr24 1_555 1_555
C166 O107 1_555 1_555
C167 C166 1_555 1_555
C168 C167 1_555 1_555
C169 C167 1_555 1_555
H78 C168 1_555 1_555
C170 C168 1_555 1_555
H79 C170 1_555 1_555
C171 C170 1_555 1_555
H80 C171 1_555 1_555
C172 C169 1_555 1_555
H81 C172 1_555 1_555
H82 C169 1_555 1_555
C173 O102 1_555 1_555
C174 O103 1_555 1_555
O113 C174 1_555 1_555
C175 O108 1_555 1_555
C176 O109 1_555 1_555
O114 C176 1_555 1_555
C177 C173 1_555 1_555
C178 C173 1_555 1_555
C179 C175 1_555 1_555
H83 C179 1_555 1_555
C180 C175 1_555 1_555
H84 C178 1_555 1_555
C171 C172 1_555 1_555
C174 C177 1_555 1_555
C176 C180 1_555 1_555
C177 C179 1_555 1_555
C178 C180 1_555 1_555
Zr2 O3 1_555 1_555
O3 C8 1_555 1_555
O4 Zr2 1_555 1_555
C8 O4 1_555 1_555
C9 C8 1_555 1_555
C10 C9 1_555 1_555
H6 C10 1_555 1_555
C11 C10 1_555 1_555
H7 C11 1_555 1_555
C12 C11 1_555 1_555
H8 C12 1_555 1_555
C13 C12 1_555 1_555
H9 C13 1_555 1_555
C14 C9 1_555 1_555
H10 C14 1_555 1_555
O5 Zr14 1_555 1_555
O6 Zr14 1_555 1_555
O7 C21 1_555 1_555
O8 Zr2 1_555 1_555
O9 Zr2 1_555 1_555
O10 C22 1_555 1_555
C15 O5 1_555 1_555
C16 C15 1_555 1_555
C17 C16 1_555 1_555
H11 C17 1_555 1_555
C18 O8 1_555 1_555
C19 C18 1_555 1_555
C20 C15 1_555 1_555
H12 C20 1_555 1_555
C21 O6 1_555 1_555
C22 O9 1_555 1_555
O11 Zr14 1_555 1_555
C23 O11 1_555 1_555
C24 C23 1_555 1_555
H13 C24 1_555 1_555
O14 Zr2 1_555 1_555
O16 Zr2 1_555 1_555
C27 O14 1_555 1_555
C28 C27 1_555 1_555
H14 C28 1_555 1_555
C29 C27 1_555 1_555
C30 O16 1_555 1_555
O84 C34 1_555 1_555
O19 Zr14 1_555 1_555
C33 C23 1_555 1_555
C34 O19 1_555 1_555
O20 C35 1_555 1_555
O21 C38 1_555 1_555
O22 C38 1_555 1_555
C35 C36 1_555 1_555
C36 C29 1_555 1_555
H16 C36 1_555 1_555
C37 C28 1_555 1_555
C38 C37 1_555 1_555
C39 O23 1_555 1_555
C40 C39 1_555 1_555
C41 C40 1_555 1_555
H17 C41 1_555 1_555
C42 C41 1_555 1_555
H18 C42 1_555 1_555
C43 C42 1_555 1_555
H19 C43 1_555 1_555
C44 C43 1_555 1_555
H20 C44 1_555 1_555
C45 C40 1_555 1_555
H21 C45 1_555 1_555
Zr23 O20 1_555 1_555
Zr15 O21 1_555 1_555
O37 Zr2 1_555 1_555
C13 C14 1_555 1_555
C16 C21 1_555 1_555
C17 C18 1_555 1_555
C19 C20 1_555 1_555
C19 C22 1_555 1_555
C29 C30 1_555 1_555
C33 C34 1_555 1_555
O22 Zr23 1_555 1_555
C35 C37 1_555 1_555
O24 C39 1_555 1_555
C44 C45 1_555 1_555
O1 C1 1_555 1_555
C1 O2 1_555 1_555
C2 C1 1_555 1_555
C3 C2 1_555 1_555
H1 C3 1_555 1_555
C4 C3 1_555 1_555
C5 C4 1_555 1_555
H3 C5 1_555 1_555
C6 C5 1_555 1_555
H4 C6 1_555 1_555
C7 C2 1_555 1_555
H5 C7 1_555 1_555
O12 C26 1_555 1_555
O68 C26 1_555 1_555
C26 C25 1_555 1_555
O67 C31 1_555 1_555
C31 C25 1_555 1_555
C32 C31 1_555 1_555
H15 C32 1_555 1_555
Zr20 O12 1_555 1_555
Zr4 O25 1_555 1_555
O25 C46 1_555 1_555
O26 Zr4 1_555 1_555
C46 O26 1_555 1_555
C47 C46 1_555 1_555
C48 C47 1_555 1_555
H22 C48 1_555 1_555
C49 C48 1_555 1_555
H23 C49 1_555 1_555
C50 C49 1_555 1_555
H24 C50 1_555 1_555
C51 C50 1_555 1_555
H25 C51 1_555 1_555
C52 C47 1_555 1_555
H26 C52 1_555 1_555
O27 Zr20 1_555 1_555
O28 Zr20 1_555 1_555
O29 C59 1_555 1_555
O30 Zr4 1_555 1_555
O31 Zr4 1_555 1_555
O32 C60 1_555 1_555
C53 O27 1_555 1_555
C54 C53 1_555 1_555
C55 C54 1_555 1_555
H27 C55 1_555 1_555
C56 O30 1_555 1_555
C57 C56 1_555 1_555
C58 C53 1_555 1_555
H28 C58 1_555 1_555
C59 O28 1_555 1_555
C60 O31 1_555 1_555
O38 Zr4 1_555 1_555
C6 C7 1_555 1_555
C51 C52 1_555 1_555
C54 C59 1_555 1_555
C55 C56 1_555 1_555
C57 C58 1_555 1_555
C57 C60 1_555 1_555
C83_2 O44_2 1_555 1_555
O55_2 C84_2 1_555 1_555
C84_2 O56_2 1_555 1_555
Zr11_2 O55_2 1_555 1_555
O56_2 Zr12_2 1_555 1_555
Zr12_2 O58_2 1_555 1_555
C85_2 C83_2 1_555 1_555
C86_2 C83_2 1_555 1_555
H41_2 C85_2 1_555 1_555
C87_2 C84_2 1_555 1_555
C88_2 C87_2 1_555 1_555
H42_2 C91_2 1_555 1_555
C93_2 C91_2 1_555 1_555
O58_2 C88_2 1_555 1_555
O59_2 C95_2 1_555 1_555
C95_2 O45_2 1_555 1_555
Zr14_2 O59_2 1_555 1_555
C96_2 C86_2 1_555 1_555
H43_2 C96_2 1_555 1_555
O60_2 C97_2 1_555 1_555
C97_2 C93_2 1_555 1_555
Zr15_2 O60_2 1_555 1_555
O61_2 C98_2 1_555 1_555
C98_2 C93_2 1_555 1_555
Zr16_2 O61_2 1_555 1_555
O62_2 Zr15_2 1_555 1_555
O63_2 Zr11_2 1_555 1_555
O64_2 Zr11_2 1_555 1_555
O65_2 Zr11_2 1_555 1_555
O66_2 Zr11_2 1_555 1_555
O67_2 Zr11_2 1_555 1_555
O68_2 Zr11_2 1_555 1_555
C99_2 O63_2 1_555 1_555
C100_2 C99_2 1_555 1_555
C101_2 C100_2 1_555 1_555
C102_2 C100_2 1_555 1_555
C103_2 C101_2 1_555 1_555
C104_2 C103_2 1_555 1_555
H47_2 C104_2 1_555 1_555
C105_2 C102_2 1_555 1_555
H48_2 C105_2 1_555 1_555
H49_2 C102_2 1_555 1_555
C112_2 C109_2 1_555 1_555
H53_2 C112_2 1_555 1_555
H54_2 C109_2 1_555 1_555
C113_2 O65_2 1_555 1_555
C114_2 O66_2 1_555 1_555
O76_2 C114_2 1_555 1_555
C117_2 C113_2 1_555 1_555
H55_2 C119_2 1_555 1_555
C85_2 C87_2 1_555 1_555
C86_2 C95_2 1_555 1_555
C88_2 C96_2 1_555 1_555
C98_2 O62_2 1_555 1_555
O64_2 C99_2 1_555 1_555
C104_2 C105_2 1_555 1_555
C114_2 C117_2 1_555 1_555
C117_2 C119_2 1_555 1_555
Zr21_2 O96_2 1_555 1_555
Zr14_2 O1_2 1_555 1_555
O1_2 C1_2 1_555 1_555
O2_2 Zr14_2 1_555 1_555
C1_2 O2_2 1_555 1_555
C2_2 C1_2 1_555 1_555
C3_2 C2_2 1_555 1_555
H1_2 C3_2 1_555 1_555
C4_2 C3_2 1_555 1_555
H2_2 C4_2 1_555 1_555
C5_2 C4_2 1_555 1_555
H3_2 C5_2 1_555 1_555
C6_2 C5_2 1_555 1_555
H4_2 C6_2 1_555 1_555
C7_2 C2_2 1_555 1_555
H5_2 C7_2 1_555 1_555
Zr2_2 O3_2 1_555 1_555
O3_2 C8_2 1_555 1_555
O4_2 Zr2_2 1_555 1_555
C8_2 O4_2 1_555 1_555
C9_2 C8_2 1_555 1_555
C10_2 C9_2 1_555 1_555
H6_2 C10_2 1_555 1_555
C11_2 C10_2 1_555 1_555
H7_2 C11_2 1_555 1_555
C12_2 C11_2 1_555 1_555
H8_2 C12_2 1_555 1_555
C13_2 C12_2 1_555 1_555
H9_2 C13_2 1_555 1_555
C14_2 C9_2 1_555 1_555
H10_2 C14_2 1_555 1_555
O5_2 Zr14_2 1_555 1_555
O6_2 Zr14_2 1_555 1_555
O7_2 C21_2 1_555 1_555
O8_2 Zr2_2 1_555 1_555
O9_2 Zr2_2 1_555 1_555
O10_2 C22_2 1_555 1_555
C15_2 O5_2 1_555 1_555
C16_2 C15_2 1_555 1_555
C17_2 C16_2 1_555 1_555
H11_2 C17_2 1_555 1_555
C18_2 O8_2 1_555 1_555
C19_2 C18_2 1_555 1_555
C20_2 C15_2 1_555 1_555
H12_2 C20_2 1_555 1_555
C21_2 O6_2 1_555 1_555
C22_2 O9_2 1_555 1_555
O14_2 Zr2_2 1_555 1_555
O15_2 C30_2 1_555 1_555
O16_2 Zr2_2 1_555 1_555
C27_2 O14_2 1_555 1_555
C29_2 C27_2 1_555 1_555
C30_2 O16_2 1_555 1_555
C36_2 C29_2 1_555 1_555
H16_2 C36_2 1_555 1_555
Zr16 O25_2 1_555 1_555
O25_2 C46_2 1_555 1_555
O26_2 Zr16 1_555 1_555
C46_2 O26_2 1_555 1_555
C47_2 C46_2 1_555 1_555
C48_2 C47_2 1_555 1_555
H22_2 C48_2 1_555 1_555
C49_2 C48_2 1_555 1_555
H23_2 C49_2 1_555 1_555
C50_2 C49_2 1_555 1_555
O30_2 Zr16 1_555 1_555
O31_2 Zr16 1_555 1_555
O32_2 C60_2 1_555 1_555
C56_2 O30_2 1_555 1_555
C57_2 C56_2 1_555 1_555
H28_2 C58_2 1_555 1_555
C60_2 O31_2 1_555 1_555
Zr7_2 O15_2 1_555 1_555
O37_2 Zr2_2 1_555 1_555
Zr21_2 O40_2 1_555 1_555
O40_2 C61_2 1_555 1_555
O41_2 Zr21_2 1_555 1_555
O42_2 Zr21_2 1_555 1_555
O43_2 Zr21_2 1_555 1_555
C61_2 O41_2 1_555 1_555
C62_2 C61_2 1_555 1_555
C63_2 C62_2 1_555 1_555
C64_2 C62_2 1_555 1_555
H29_2 C63_2 1_555 1_555
C65_2 C63_2 1_555 1_555
H30_2 C65_2 1_555 1_555
C66_2 C65_2 1_555 1_555
H31_2 C66_2 1_555 1_555
C67_2 C64_2 1_555 1_555
H32_2 C67_2 1_555 1_555
H33_2 C64_2 1_555 1_555
O47_2 Zr7_2 1_555 1_555
O48_2 Zr7_2 1_555 1_555
O49_2 Zr7_2 1_555 1_555
O50_2 Zr7_2 1_555 1_555
O51_2 Zr7_2 1_555 1_555
O52_2 Zr7_2 1_555 1_555
C68_2 O47_2 1_555 1_555
C69_2 C68_2 1_555 1_555
C70_2 C69_2 1_555 1_555
C71_2 C69_2 1_555 1_555
H34_2 C70_2 1_555 1_555
C72_2 C70_2 1_555 1_555
H35_2 C72_2 1_555 1_555
C73_2 C72_2 1_555 1_555
H36_2 C73_2 1_555 1_555
C74_2 C71_2 1_555 1_555
H37_2 C74_2 1_555 1_555
H38_2 C71_2 1_555 1_555
C75_2 O42_2 1_555 1_555
C76_2 O43_2 1_555 1_555
O53_2 C76_2 1_555 1_555
C77_2 O49_2 1_555 1_555
C78_2 O50_2 1_555 1_555
O54_2 C78_2 1_555 1_555
C79_2 C75_2 1_555 1_555
C80_2 C75_2 1_555 1_555
C81_2 C77_2 1_555 1_555
H39_2 C81_2 1_555 1_555
C82_2 C77_2 1_555 1_555
H40_2 C80_2 1_555 1_555
C89_2 O51_2 1_555 1_555
O57_2 C90_2 1_555 1_555
C90_2 O52_2 1_555 1_555
Zr13_2 O57_2 1_555 1_555
C92_2 C89_2 1_555 1_555
C94_2 C92_2 1_555 1_555
H44_2 C94_2 1_555 1_555
Zr23 O69_2 1_555 1_555
O69_2 C106_2 1_555 1_555
O70_2 Zr23 1_555 1_555
O71_2 Zr23 1_555 1_555
O72_2 Zr23 1_555 1_555
C106_2 O70_2 1_555 1_555
C107_2 C106_2 1_555 1_555
C108_2 C107_2 1_555 1_555
H50_2 C108_2 1_555 1_555
C110_2 C108_2 1_555 1_555
H51_2 C110_2 1_555 1_555
C111_2 C110_2 1_555 1_555
C115_2 O71_2 1_555 1_555
C116_2 O72_2 1_555 1_555
O77_2 C116_2 1_555 1_555
C120_2 C115_2 1_555 1_555
H56_2 C118_2 1_555 1_555
Zr18_2 O78_2 1_555 1_555
O78_2 C121_2 1_555 1_555
O79_2 Zr18_2 1_555 1_555
O80_2 Zr18_2 1_555 1_555
O81_2 Zr18_2 1_555 1_555
O82_2 Zr18_2 1_555 1_555
O83_2 Zr18_2 1_555 1_555
O84_2 Zr18_2 1_555 1_555
C121_2 O79_2 1_555 1_555
C122_2 C121_2 1_555 1_555
C123_2 C122_2 1_555 1_555
C124_2 C122_2 1_555 1_555
H57_2 C123_2 1_555 1_555
C125_2 C123_2 1_555 1_555
H58_2 C125_2 1_555 1_555
C126_2 C125_2 1_555 1_555
H59_2 C126_2 1_555 1_555
C127_2 C124_2 1_555 1_555
H60_2 C127_2 1_555 1_555
H61_2 C124_2 1_555 1_555
O85_2 Zr13_2 1_555 1_555
O86_2 Zr13_2 1_555 1_555
O87_2 Zr13_2 1_555 1_555
O88_2 Zr13_2 1_555 1_555
O89_2 Zr13_2 1_555 1_555
O90_2 Zr13_2 1_555 1_555
C128_2 O85_2 1_555 1_555
C129_2 C128_2 1_555 1_555
C130_2 C129_2 1_555 1_555
C131_2 C129_2 1_555 1_555
H62_2 C130_2 1_555 1_555
C132_2 C130_2 1_555 1_555
H63_2 C132_2 1_555 1_555
C133_2 C132_2 1_555 1_555
H64_2 C133_2 1_555 1_555
C134_2 C131_2 1_555 1_555
H65_2 C134_2 1_555 1_555
H66_2 C131_2 1_555 1_555
C135_2 O80_2 1_555 1_555
C136_2 O81_2 1_555 1_555
O91_2 C136_2 1_555 1_555
C137_2 O87_2 1_555 1_555
C138_2 O88_2 1_555 1_555
O92_2 C138_2 1_555 1_555
C139_2 C135_2 1_555 1_555
C140_2 C135_2 1_555 1_555
C141_2 C137_2 1_555 1_555
H67_2 C141_2 1_555 1_555
C142_2 C137_2 1_555 1_555
H68_2 C140_2 1_555 1_555
C143_2 O82_2 1_555 1_555
O93_2 C144_2 1_555 1_555
C144_2 O94_2 1_555 1_555
Zr12_2 O93_2 1_555 1_555
O94_2 Zr20_2 1_555 1_555
Zr20_2 O95_2 1_555 1_555
C145_2 C143_2 1_555 1_555
C146_2 C143_2 1_555 1_555
H69_2 C145_2 1_555 1_555
C147_2 C144_2 1_555 1_555
C148_2 C147_2 1_555 1_555
C149_2 O89_2 1_555 1_555
C150_2 O37_2 1_555 1_555
C151_2 C149_2 1_555 1_555
C152_2 C149_2 1_555 1_555
H70_2 C151_2 1_555 1_555
C153_2 C151_2 1_555 1_555
C154_2 C152_2 1_555 1_555
O95_2 C148_2 1_555 1_555
C155_2 O83_2 1_555 1_555
C156_2 C146_2 1_555 1_555
H71_2 C156_2 1_555 1_555
O97_2 C157_2 1_555 1_555
C157_2 C153_2 1_555 1_555
Zr16_2 O97_2 1_555 1_555
O98_2 C158_2 1_555 1_555
C158_2 C153_2 1_555 1_555
Zr23_2 O98_2 1_555 1_555
O99_2 Zr16_2 1_555 1_555
H72_2 C154_2 1_555 1_555
O100_2 Zr12_2 1_555 1_555
O101_2 Zr12_2 1_555 1_555
O102_2 Zr12_2 1_555 1_555
O103_2 Zr12_2 1_555 1_555
C159_2 O100_2 1_555 1_555
C160_2 C159_2 1_555 1_555
C161_2 C160_2 1_555 1_555
C162_2 C160_2 1_555 1_555
H73_2 C161_2 1_555 1_555
C163_2 C161_2 1_555 1_555
H74_2 C163_2 1_555 1_555
C164_2 C163_2 1_555 1_555
H75_2 C164_2 1_555 1_555
C165_2 C162_2 1_555 1_555
H76_2 C165_2 1_555 1_555
H77_2 C162_2 1_555 1_555
Zr15 O106_2 1_555 1_555
O106_2 C166_2 1_555 1_555
O107_2 Zr15 1_555 1_555
O108_2 Zr15 1_555 1_555
O109_2 Zr15 1_555 1_555
C166_2 O107_2 1_555 1_555
C167_2 C166_2 1_555 1_555
C168_2 C167_2 1_555 1_555
C169_2 C167_2 1_555 1_555
H78_2 C168_2 1_555 1_555
C170_2 C168_2 1_555 1_555
H79_2 C170_2 1_555 1_555
C171_2 C170_2 1_555 1_555
H80_2 C171_2 1_555 1_555
C172_2 C169_2 1_555 1_555
H81_2 C172_2 1_555 1_555
H82_2 C169_2 1_555 1_555
C173_2 O102_2 1_555 1_555
C174_2 O103_2 1_555 1_555
O113_2 C174_2 1_555 1_555
C175_2 O108_2 1_555 1_555
C176_2 O109_2 1_555 1_555
O114_2 C176_2 1_555 1_555
C177_2 C173_2 1_555 1_555
C178_2 C173_2 1_555 1_555
C179_2 C175_2 1_555 1_555
H83_2 C179_2 1_555 1_555
C180_2 C175_2 1_555 1_555
H84_2 C178_2 1_555 1_555
C6_2 C7_2 1_555 1_555
C13_2 C14_2 1_555 1_555
C16_2 C21_2 1_555 1_555
C17_2 C18_2 1_555 1_555
C19_2 C20_2 1_555 1_555
C19_2 C22_2 1_555 1_555
C29_2 C30_2 1_555 1_555
C57_2 C58_2 1_555 1_555
C57_2 C60_2 1_555 1_555
C66_2 C67_2 1_555 1_555
O48_2 C68_2 1_555 1_555
C73_2 C74_2 1_555 1_555
C76_2 C79_2 1_555 1_555
C78_2 C82_2 1_555 1_555
C79_2 C81_2 1_555 1_555
C80_2 C82_2 1_555 1_555
C90_2 C92_2 1_555 1_555
C116_2 C120_2 1_555 1_555
C118_2 C120_2 1_555 1_555
C126_2 C127_2 1_555 1_555
O86_2 C128_2 1_555 1_555
O90_2 C150_2 1_555 1_555
C133_2 C134_2 1_555 1_555
C136_2 C139_2 1_555 1_555
C138_2 C142_2 1_555 1_555
C139_2 C141_2 1_555 1_555
C140_2 C142_2 1_555 1_555
C145_2 C147_2 1_555 1_555
C146_2 C155_2 1_555 1_555
C148_2 C156_2 1_555 1_555
C150_2 C152_2 1_555 1_555
C154_2 C157_2 1_555 1_555
C158_2 O99_2 1_555 1_555
O101_2 C159_2 1_555 1_555
C164_2 C165_2 1_555 1_555
C171_2 C172_2 1_555 1_555
C174_2 C177_2 1_555 1_555
C176_2 C180_2 1_555 1_555
C177_2 C179_2 1_555 1_555
C178_2 C180_2 1_555 1_555
O12_2 C26_2 1_555 1_555
O68_2 C26_2 1_555 1_555
C23_2 O11_2 1_555 1_555
C24_2 C23_2 1_555 1_555
H13_2 C24_2 1_555 1_555
C25_2 C24_2 1_555 1_555
C26_2 C25_2 1_555 1_555
H14_2 C28_2 1_555 1_555
O67_2 C31_2 1_555 1_555
C31_2 C25_2 1_555 1_555
C32_2 C31_2 1_555 1_555
H15_2 C32_2 1_555 1_555
C33_2 C23_2 1_555 1_555
C34_2 O19_2 1_555 1_555
O20_2 C35_2 1_555 1_555
O21_2 C38_2 1_555 1_555
O22_2 C38_2 1_555 1_555
C37_2 C28_2 1_555 1_555
C38_2 C37_2 1_555 1_555
Zr20_2 O12_2 1_555 1_555
O23_2 Zr20_2 1_555 1_555
O24_2 Zr20_2 1_555 1_555
C39_2 O23_2 1_555 1_555
C40_2 C39_2 1_555 1_555
C41_2 C40_2 1_555 1_555
C42_2 C41_2 1_555 1_555
C43_2 C42_2 1_555 1_555
H19_2 C43_2 1_555 1_555
C44_2 C43_2 1_555 1_555
H20_2 C44_2 1_555 1_555
C45_2 C40_2 1_555 1_555
H21_2 C45_2 1_555 1_555
H25_2 C51_2 1_555 1_555
H26_2 C52_2 1_555 1_555
O27_2 Zr20_2 1_555 1_555
O28_2 Zr20_2 1_555 1_555
O29_2 C59_2 1_555 1_555
C53_2 O27_2 1_555 1_555
C54_2 C53_2 1_555 1_555
C55_2 C54_2 1_555 1_555
H27_2 C55_2 1_555 1_555
C59_2 O28_2 1_555 1_555
Zr23_2 O20_2 1_555 1_555
Zr15_2 O21_2 1_555 1_555
C32_2 C33_2 1_555 1_555
C33_2 C34_2 1_555 1_555
O22_2 Zr23_2 1_555 1_555
C35_2 C37_2 1_555 1_555
O24_2 C39_2 1_555 1_555
C44_2 C45_2 1_555 1_555
C51_2 C52_2 1_555 1_555
C54_2 C59_2 1_555 1_555
Zr18_3 O78_3 1_555 1_555
O78_3 C121_3 1_555 1_555
O79_3 Zr18_3 1_555 1_555
O80_3 Zr18_3 1_555 1_555
O81_3 Zr18_3 1_555 1_555
O82_3 Zr18_3 1_555 1_555
O83_3 Zr18_3 1_555 1_555
O84_3 Zr18_3 1_555 1_555
C121_3 O79_3 1_555 1_555
C122_3 C121_3 1_555 1_555
C123_3 C122_3 1_555 1_555
C124_3 C122_3 1_555 1_555
C125_3 C123_3 1_555 1_555
C126_3 C125_3 1_555 1_555
H59_3 C126_3 1_555 1_555
C127_3 C124_3 1_555 1_555
H60_3 C127_3 1_555 1_555
H61_3 C124_3 1_555 1_555
C134_3 C131_3 1_555 1_555
H65_3 C134_3 1_555 1_555
H66_3 C131_3 1_555 1_555
C135_3 O80_3 1_555 1_555
C136_3 O81_3 1_555 1_555
O91_3 C136_3 1_555 1_555
C139_3 C135_3 1_555 1_555
H67_3 C141_3 1_555 1_555
C143_3 O82_3 1_555 1_555
C144_3 O94_3 1_555 1_555
O94_3 Zr20_3 1_555 1_555
Zr20_3 O95_3 1_555 1_555
C145_3 C143_3 1_555 1_555
C146_3 C143_3 1_555 1_555
H69_3 C145_3 1_555 1_555
C147_3 C144_3 1_555 1_555
C148_3 C147_3 1_555 1_555
O95_3 C148_3 1_555 1_555
O96_3 C155_3 1_555 1_555
C155_3 O83_3 1_555 1_555
Zr21_3 O96_3 1_555 1_555
C156_3 C146_3 1_555 1_555
H71_3 C156_3 1_555 1_555
C126_3 C127_3 1_555 1_555
C136_3 C139_3 1_555 1_555
C139_3 C141_3 1_555 1_555
C145_3 C147_3 1_555 1_555
C146_3 C155_3 1_555 1_555
C148_3 C156_3 1_555 1_555
Zr2_3 O3_3 1_555 1_555
O3_3 C8_3 1_555 1_555
O4_3 Zr2_3 1_555 1_555
C8_3 O4_3 1_555 1_555
C9_3 C8_3 1_555 1_555
C10_3 C9_3 1_555 1_555
H6_3 C10_3 1_555 1_555
C11_3 C10_3 1_555 1_555
H7_3 C11_3 1_555 1_555
C12_3 C11_3 1_555 1_555
O8_3 Zr2_3 1_555 1_555
O9_3 Zr2_3 1_555 1_555
O10_3 C22_3 1_555 1_555
C18_3 O8_3 1_555 1_555
C19_3 C18_3 1_555 1_555
H12_3 C20_3 1_555 1_555
C22_3 O9_3 1_555 1_555
O14_3 Zr2_3 1_555 1_555
O15_3 C30_3 1_555 1_555
O16_3 Zr2_3 1_555 1_555
C27_3 O14_3 1_555 1_555
C28_3 C27_3 1_555 1_555
H14_3 C28_3 1_555 1_555
C29_3 C27_3 1_555 1_555
C30_3 O16_3 1_555 1_555
O73 C35_3 1_555 1_555
O75 C38_3 1_555 1_555
C35_3 C36_3 1_555 1_555
C36_3 C29_3 1_555 1_555
H16_3 C36_3 1_555 1_555
C37_3 C28_3 1_555 1_555
C38_3 C37_3 1_555 1_555
Zr20_3 O12_3 1_555 1_555
O23_3 Zr20_3 1_555 1_555
O24_3 Zr20_3 1_555 1_555
C39_3 O23_3 1_555 1_555
C40_3 C39_3 1_555 1_555
C41_3 C40_3 1_555 1_555
H17_3 C41_3 1_555 1_555
C42_3 C41_3 1_555 1_555
H18_3 C42_3 1_555 1_555
C43_3 C42_3 1_555 1_555
H19_3 C43_3 1_555 1_555
C44_3 C43_3 1_555 1_555
H20_3 C44_3 1_555 1_555
C45_3 C40_3 1_555 1_555
H21_3 C45_3 1_555 1_555
Zr16_2 O25_3 1_555 1_555
O25_3 C46_3 1_555 1_555
O26_3 Zr16_2 1_555 1_555
C46_3 O26_3 1_555 1_555
C47_3 C46_3 1_555 1_555
C48_3 C47_3 1_555 1_555
H22_3 C48_3 1_555 1_555
C49_3 C48_3 1_555 1_555
H23_3 C49_3 1_555 1_555
C50_3 C49_3 1_555 1_555
H24_3 C50_3 1_555 1_555
C51_3 C50_3 1_555 1_555
H25_3 C51_3 1_555 1_555
C52_3 C47_3 1_555 1_555
H26_3 C52_3 1_555 1_555
O27_3 Zr20_3 1_555 1_555
O28_3 Zr20_3 1_555 1_555
O29_3 C59_3 1_555 1_555
O30_3 Zr16_2 1_555 1_555
O31_3 Zr16_2 1_555 1_555
O32_3 C60_3 1_555 1_555
C53_3 O27_3 1_555 1_555
C54_3 C53_3 1_555 1_555
C55_3 C54_3 1_555 1_555
H27_3 C55_3 1_555 1_555
C56_3 O30_3 1_555 1_555
C57_3 C56_3 1_555 1_555
C58_3 C53_3 1_555 1_555
H28_3 C58_3 1_555 1_555
C59_3 O28_3 1_555 1_555
C60_3 O31_3 1_555 1_555
Zr7_3 O15_3 1_555 1_555
O37_3 Zr2_3 1_555 1_555
Zr21_3 O40_3 1_555 1_555
O40_3 C61_3 1_555 1_555
O41_3 Zr21_3 1_555 1_555
O42_3 Zr21_3 1_555 1_555
O43_3 Zr21_3 1_555 1_555
O44_3 Zr21_3 1_555 1_555
O45_3 Zr21_3 1_555 1_555
C61_3 O41_3 1_555 1_555
C62_3 C61_3 1_555 1_555
C63_3 C62_3 1_555 1_555
C64_3 C62_3 1_555 1_555
H29_3 C63_3 1_555 1_555
C65_3 C63_3 1_555 1_555
H30_3 C65_3 1_555 1_555
C66_3 C65_3 1_555 1_555
H31_3 C66_3 1_555 1_555
C67_3 C64_3 1_555 1_555
H32_3 C67_3 1_555 1_555
H33_3 C64_3 1_555 1_555
O47_3 Zr7_3 1_555 1_555
O48_3 Zr7_3 1_555 1_555
O49_3 Zr7_3 1_555 1_555
O50_3 Zr7_3 1_555 1_555
O51_3 Zr7_3 1_555 1_555
O52_3 Zr7_3 1_555 1_555
C68_3 O47_3 1_555 1_555
C69_3 C68_3 1_555 1_555
C70_3 C69_3 1_555 1_555
C71_3 C69_3 1_555 1_555
H34_3 C70_3 1_555 1_555
C72_3 C70_3 1_555 1_555
H35_3 C72_3 1_555 1_555
C73_3 C72_3 1_555 1_555
H36_3 C73_3 1_555 1_555
C74_3 C71_3 1_555 1_555
H37_3 C74_3 1_555 1_555
H38_3 C71_3 1_555 1_555
C75_3 O42_3 1_555 1_555
C76_3 O43_3 1_555 1_555
O53_3 C76_3 1_555 1_555
C77_3 O49_3 1_555 1_555
C78_3 O50_3 1_555 1_555
O54_3 C78_3 1_555 1_555
C79_3 C75_3 1_555 1_555
C80_3 C75_3 1_555 1_555
C81_3 C77_3 1_555 1_555
H39_3 C81_3 1_555 1_555
C82_3 C77_3 1_555 1_555
H40_3 C80_3 1_555 1_555
C83_3 O44_3 1_555 1_555
O55_3 C84_3 1_555 1_555
C84_3 O56_3 1_555 1_555
Zr11_3 O55_3 1_555 1_555
C85_3 C83_3 1_555 1_555
C86_3 C83_3 1_555 1_555
H41_3 C85_3 1_555 1_555
C87_3 C84_3 1_555 1_555
C88_3 C87_3 1_555 1_555
C89_3 O51_3 1_555 1_555
O57_3 C90_3 1_555 1_555
C90_3 O52_3 1_555 1_555
Zr13_3 O57_3 1_555 1_555
C91_3 C89_3 1_555 1_555
C92_3 C89_3 1_555 1_555
H42_3 C91_3 1_555 1_555
C93_3 C91_3 1_555 1_555
C94_3 C92_3 1_555 1_555
O58_3 C88_3 1_555 1_555
O59_3 C95_3 1_555 1_555
C95_3 O45_3 1_555 1_555
Zr14_3 O59_3 1_555 1_555
C96_3 C86_3 1_555 1_555
H43_3 C96_3 1_555 1_555
O110 C97_3 1_555 1_555
C97_3 C93_3 1_555 1_555
O38 C98_3 1_555 1_555
C98_3 C93_3 1_555 1_555
H44_3 C94_3 1_555 1_555
O63_3 Zr11_3 1_555 1_555
O64_3 Zr11_3 1_555 1_555
O65_3 Zr11_3 1_555 1_555
O66_3 Zr11_3 1_555 1_555
C99_3 O63_3 1_555 1_555
C100_3 C99_3 1_555 1_555
C101_3 C100_3 1_555 1_555
C102_3 C100_3 1_555 1_555
H45_3 C101_3 1_555 1_555
C103_3 C101_3 1_555 1_555
H46_3 C103_3 1_555 1_555
C104_3 C103_3 1_555 1_555
H47_3 C104_3 1_555 1_555
C105_3 C102_3 1_555 1_555
H48_3 C105_3 1_555 1_555
H49_3 C102_3 1_555 1_555
Zr23_2 O69_3 1_555 1_555
O69_3 C106_3 1_555 1_555
O70_3 Zr23_2 1_555 1_555
O71_3 Zr23_2 1_555 1_555
O72_3 Zr23_2 1_555 1_555
C106_3 O70_3 1_555 1_555
C107_3 C106_3 1_555 1_555
C108_3 C107_3 1_555 1_555
C109_3 C107_3 1_555 1_555
H50_3 C108_3 1_555 1_555
C110_3 C108_3 1_555 1_555
H51_3 C110_3 1_555 1_555
C111_3 C110_3 1_555 1_555
H52_3 C111_3 1_555 1_555
C112_3 C109_3 1_555 1_555
H53_3 C112_3 1_555 1_555
H54_3 C109_3 1_555 1_555
C113_3 O65_3 1_555 1_555
C114_3 O66_3 1_555 1_555
O76_3 C114_3 1_555 1_555
C115_3 O71_3 1_555 1_555
C116_3 O72_3 1_555 1_555
O77_3 C116_3 1_555 1_555
C117_3 C113_3 1_555 1_555
C118_3 C113_3 1_555 1_555
C119_3 C115_3 1_555 1_555
H55_3 C119_3 1_555 1_555
C120_3 C115_3 1_555 1_555
H56_3 C118_3 1_555 1_555
O85_3 Zr13_3 1_555 1_555
O86_3 Zr13_3 1_555 1_555
O87_3 Zr13_3 1_555 1_555
O88_3 Zr13_3 1_555 1_555
O89_3 Zr13_3 1_555 1_555
O90_3 Zr13_3 1_555 1_555
C128_3 O85_3 1_555 1_555
C129_3 C128_3 1_555 1_555
C130_3 C129_3 1_555 1_555
H62_3 C130_3 1_555 1_555
C132_3 C130_3 1_555 1_555
H63_3 C132_3 1_555 1_555
C133_3 C132_3 1_555 1_555
C137_3 O87_3 1_555 1_555
C138_3 O88_3 1_555 1_555
O92_3 C138_3 1_555 1_555
C142_3 C137_3 1_555 1_555
H68_3 C140_3 1_555 1_555
Zr12_3 O93_3 1_555 1_555
C149_3 O89_3 1_555 1_555
C150_3 O37_3 1_555 1_555
C151_3 C149_3 1_555 1_555
C152_3 C149_3 1_555 1_555
H70_3 C151_3 1_555 1_555
C153_3 C151_3 1_555 1_555
C154_3 C152_3 1_555 1_555
O36 C157_3 1_555 1_555
C157_3 C153_3 1_555 1_555
C158_3 C153_3 1_555 1_555
H72_3 C154_3 1_555 1_555
O100_3 Zr12_3 1_555 1_555
O101_3 Zr12_3 1_555 1_555
O102_3 Zr12_3 1_555 1_555
O103_3 Zr12_3 1_555 1_555
C159_3 O100_3 1_555 1_555
C160_3 C159_3 1_555 1_555
C161_3 C160_3 1_555 1_555
C162_3 C160_3 1_555 1_555
H73_3 C161_3 1_555 1_555
C163_3 C161_3 1_555 1_555
H74_3 C163_3 1_555 1_555
C164_3 C163_3 1_555 1_555
H75_3 C164_3 1_555 1_555
C165_3 C162_3 1_555 1_555
H76_3 C165_3 1_555 1_555
H77_3 C162_3 1_555 1_555
Zr15_2 O106_3 1_555 1_555
O106_3 C166_3 1_555 1_555
O107_3 Zr15_2 1_555 1_555
O108_3 Zr15_2 1_555 1_555
O109_3 Zr15_2 1_555 1_555
C166_3 O107_3 1_555 1_555
C167_3 C166_3 1_555 1_555
C168_3 C167_3 1_555 1_555
C169_3 C167_3 1_555 1_555
H78_3 C168_3 1_555 1_555
C170_3 C168_3 1_555 1_555
H79_3 C170_3 1_555 1_555
C171_3 C170_3 1_555 1_555
H80_3 C171_3 1_555 1_555
C172_3 C169_3 1_555 1_555
H81_3 C172_3 1_555 1_555
H82_3 C169_3 1_555 1_555
C173_3 O102_3 1_555 1_555
C174_3 O103_3 1_555 1_555
O113_3 C174_3 1_555 1_555
C175_3 O108_3 1_555 1_555
C176_3 O109_3 1_555 1_555
O114_3 C176_3 1_555 1_555
C177_3 C173_3 1_555 1_555
C178_3 C173_3 1_555 1_555
C179_3 C175_3 1_555 1_555
H83_3 C179_3 1_555 1_555
C180_3 C175_3 1_555 1_555
H84_3 C178_3 1_555 1_555
C19_3 C20_3 1_555 1_555
C19_3 C22_3 1_555 1_555
C29_3 C30_3 1_555 1_555
C35_3 C37_3 1_555 1_555
O24_3 C39_3 1_555 1_555
C44_3 C45_3 1_555 1_555
C51_3 C52_3 1_555 1_555
C54_3 C59_3 1_555 1_555
C55_3 C56_3 1_555 1_555
C57_3 C58_3 1_555 1_555
C57_3 C60_3 1_555 1_555
C66_3 C67_3 1_555 1_555
O48_3 C68_3 1_555 1_555
C73_3 C74_3 1_555 1_555
C76_3 C79_3 1_555 1_555
C78_3 C82_3 1_555 1_555
C79_3 C81_3 1_555 1_555
C80_3 C82_3 1_555 1_555
C85_3 C87_3 1_555 1_555
C86_3 C95_3 1_555 1_555
C88_3 C96_3 1_555 1_555
C90_3 C92_3 1_555 1_555
C94_3 C97_3 1_555 1_555
C98_3 O112 1_555 1_555
O64_3 C99_3 1_555 1_555
C104_3 C105_3 1_555 1_555
C111_3 C112_3 1_555 1_555
C114_3 C117_3 1_555 1_555
C116_3 C120_3 1_555 1_555
C117_3 C119_3 1_555 1_555
C118_3 C120_3 1_555 1_555
O86_3 C128_3 1_555 1_555
O90_3 C150_3 1_555 1_555
C138_3 C142_3 1_555 1_555
C140_3 C142_3 1_555 1_555
C150_3 C152_3 1_555 1_555
C154_3 C157_3 1_555 1_555
C158_3 O39 1_555 1_555
O101_3 C159_3 1_555 1_555
C164_3 C165_3 1_555 1_555
C171_3 C172_3 1_555 1_555
C174_3 C177_3 1_555 1_555
C176_3 C180_3 1_555 1_555
C177_3 C179_3 1_555 1_555
C178_3 C180_3 1_555 1_555
Zr14_3 O1_3 1_555 1_555
O1_3 C1_3 1_555 1_555
O2_3 Zr14_3 1_555 1_555
C1_3 O2_3 1_555 1_555
C2_3 C1_3 1_555 1_555
C3_3 C2_3 1_555 1_555
C4_3 C3_3 1_555 1_555
C5_3 C4_3 1_555 1_555
H3_3 C5_3 1_555 1_555
C6_3 C5_3 1_555 1_555
H4_3 C6_3 1_555 1_555
C7_3 C2_3 1_555 1_555
H5_3 C7_3 1_555 1_555
H9_3 C13_3 1_555 1_555
H10_3 C14_3 1_555 1_555
O5_3 Zr14_3 1_555 1_555
O6_3 Zr14_3 1_555 1_555
O7_3 C21_3 1_555 1_555
C15_3 O5_3 1_555 1_555
C16_3 C15_3 1_555 1_555
C17_3 C16_3 1_555 1_555
H11_3 C17_3 1_555 1_555
C21_3 O6_3 1_555 1_555
O11_3 Zr14_3 1_555 1_555
O68_3 C26_3 1_555 1_555
C23_3 O11_3 1_555 1_555
C24_3 C23_3 1_555 1_555
H13_3 C24_3 1_555 1_555
C25_3 C24_3 1_555 1_555
C26_3 C25_3 1_555 1_555
O67_3 C31_3 1_555 1_555
O84_3 C34_3 1_555 1_555
O19_3 Zr14_3 1_555 1_555
C31_3 C25_3 1_555 1_555
C32_3 C31_3 1_555 1_555
H15_3 C32_3 1_555 1_555
C33_3 C23_3 1_555 1_555
C34_3 O19_3 1_555 1_555
C6_3 C7_3 1_555 1_555
C13_3 C14_3 1_555 1_555
C16_3 C21_3 1_555 1_555
C32_3 C33_3 1_555 1_555
C33_3 C34_3 1_555 1_555
H85 O115 1_555 1_555
H87 O115_2 1_555 1_555
O115_4 H86 1_555 1_555
O115_7 H86_2 1_555 1_555
H87_2 O115_9 1_555 1_555
H85_2 O115_10 1_555 1_555
H90 O116_2 1_555 1_555
H88 O116_4 1_555 1_555
O116_5 H89 1_555 1_555
O116_8 H89_2 1_555 1_555
H88_2 O116_9 1_555 1_555
H90_2 O116_11 1_555 1_555
O117_2 H100 1_555 1_555
O117_2 H101 1_555 1_555
O117_3 H100_2 1_555 1_555
O117_3 H101_2 1_555 1_555
O117_5 H102 1_555 1_555
O117_5 H101_3 1_555 1_555
O117_8 H102_4 1_555 1_555
O117_8 H101_4 1_555 1_555
O117_10 H100_6 1_555 1_555
O117_10 H101_5 1_555 1_555
O117_11 H100_7 1_555 1_555
O117_11 H101_6 1_555 1_555
O118_2 H91 1_555 1_555
O118_2 H92 1_555 1_555
O118_3 H91_2 1_555 1_555
O118_3 H92_2 1_555 1_555
O118_5 H93 1_555 1_555
O118_5 H92_3 1_555 1_555
O118_8 H93_4 1_555 1_555
O118_8 H92_4 1_555 1_555
O118_10 H91_6 1_555 1_555
O118_10 H92_5 1_555 1_555
O118_11 H91_7 1_555 1_555
O118_11 H92_6 1_555 1_555
O119_2 H97 1_555 1_555
O119_2 H98 1_555 1_555
O119_3 H97_2 1_555 1_555
O119_3 H99 1_555 1_555
O119_8 H97_3 1_555 1_555
O119_8 H99_2 1_555 1_555
O119_9 H97_4 1_555 1_555
O119_9 H98_2 1_555 1_555

#END
