
###############################################################################
#
# This file contains modified crystal structure data generated from the
# MOF subset of the Cambridge Structural Database (CSD) v543 
# hosted by the Cambridge Crystallographic Data Centre (CCDC).
#
# This work is licensed under the Creative Commons
# Attribution-NonCommercial-ShareAlike 4.0 International License.
# To view a copy of this license, visit
# http://creativecommons.org/licenses/by-nc-sa/4.0/
# or send a letter to
# Creative Commons, PO Box 1866, Mountain View, CA 94042, USA.
#
# CIF created using the CSD Python API on 29 September 2022
# The structure has been converted into the P1 space group
# The structure has a 3D framework
# The original CSD entry NAVPEI is in the rhombohedral crystal system
# The framework has been calculated to contain at least 10.0% void space
# The void calculation uses a probe of radius 1.32A, grid spacing 0.4
# The framework is charged, counterions have been retained in the structure
# H atom positions have been added when not included in the experimental data
# Generated hydrogen atom positions removed from atoms on special positions
#
###############################################################################

data_NAVPEI
_chemical_formula_moiety         '(C540 H658 Hf36 O360 51+)n'
_symmetry_cell_setting           triclinic
_symmetry_space_group_name_H-M   'P 1'
_symmetry_Int_Tables_number      1
_space_group_name_Hall           'P 1'
loop_
_symmetry_equiv_pos_site_id
_symmetry_equiv_pos_as_xyz
1 x,y,z
_cell_length_a                   19.677(3)
_cell_length_b                   19.677(3)
_cell_length_c                   55.019(11)
_cell_angle_alpha                90
_cell_angle_beta                 90
_cell_angle_gamma                120
_cell_volume                     18448.5
loop_
_atom_site_label
_atom_site_type_symbol
_atom_site_fract_x
_atom_site_fract_y
_atom_site_fract_z
Hf1 Hf 0.13093(2) 0.20557(2) 0.15507(2)
O1 O 0.1193(3) 0.1824(3) 0.19662(9)
O2 O 0.1262(3) 0.2889(2) 0.18142(8)
C1 C 0.1178(5) 0.2453(4) 0.20006(11)
C2 C 0.0978(5) 0.2641(4) 0.22454(12)
C3 C 0.1065(7) 0.2267(5) 0.24514(15)
H1 H 0.1260 0.1919 0.2441
C4 C 0.0836(7) 0.2455(7) 0.26762(16)
H2 H 0.0868 0.2208 0.2819
C5 C 0.0577(7) 0.2966(8) 0.26936(18)
H3 H 0.0498 0.3114 0.2849
C6 C 0.0419(6) 0.3289(6) 0.24898(19)
H4 H 0.0169 0.3588 0.2503
C7 C 0.0656(6) 0.3143(6) 0.22625(15)
H5 H 0.0598 0.3379 0.2122
Hf2 Hf 0.26151(2) 0.46394(2) 0.01459(2)
O5 O 0.1056(3) 0.1556(2) 0.12084(8)
O6 O 0.0669(6) 0.1239(4) 0.08222(13)
O7 O 0.1584(3) 0.3000(2) 0.13470(7)
O8 O 0.2960(3) 0.5162(3) 0.04920(8)
O9 O 0.3116(4) 0.5484(3) 0.08799(10)
O10 O 0.1943(3) 0.3703(2) 0.03641(7)
C15 C 0.1005(6) 0.1746(4) 0.09868(12)
C16 C 0.1412(5) 0.2586(4) 0.09227(12)
C17 C 0.1720(3) 0.3174(3) 0.11041(10)
C18 C 0.2139(3) 0.3920(3) 0.10331(10)
H11 H 0.2364 0.4316 0.1152
C19 C 0.2259(3) 0.4142(3) 0.07770(10)
C20 C 0.1905(4) 0.3573(3) 0.06041(10)
C21 C 0.1509(5) 0.2772(4) 0.06861(11)
H12 H 0.1311 0.2367 0.0570
C22 C 0.2769(4) 0.4952(4) 0.07221(14)
O11 O 0.1195(2) 0.0894(2) 0.15918(8)
O12 O 0.2440(2) 0.2367(2) 0.15836(8)
C23 C 0.1670(3) 0.0642(3) 0.16029(9)
C24 C 0.2522(3) 0.1176(3) 0.16348(8)
C25 C 0.2846(2) 0.1993(3) 0.16277(9)
C26 C 0.3672(2) 0.2467(3) 0.16593(9)
H13 H 0.3900 0.3016 0.1653
O14 O 0.3658(2) 0.5800(2) 0.00954(7)
O15 O 0.3423(2) 0.4322(2) 0.01033(9)
O16 O 0.4866(2) 0.6752(4) 0.01255(11)
C27 C 0.4375(3) 0.6037(3) 0.00961(9)
C28 C 0.4683(3) 0.5494(3) 0.00477(9)
C29 C 0.4179(3) 0.4648(3) 0.00462(10)
O17 O 0.5472(2) 0.2439(2) 0.17415(8)
O18 O 0.4227(2) 0.0966(2) 0.17497(8)
O19 O 0.5230(3) 0.3413(2) 0.17505(8)
C31 C 0.4997(3) 0.2691(3) 0.17304(9)
C32 C 0.4145(3) 0.2157(3) 0.16985(8)
C33 C 0.3821(2) 0.1340(3) 0.17056(9)
C34 C 0.2995(2) 0.0866(3) 0.16740(9)
H15 H 0.2767 0.0317 0.1680
C38 C 0.4503(3) 0.4202(3) 0.00009(11)
H16 H 0.4174 0.3654 0.0001
Hf5 Hf 0.53574(2) 0.12776(2) 0.17826(2)
Hf6 Hf 0.59203(3) 0.46426(2) 0.17826(2)
Hf7 Hf 0.53606(2) 0.79757(3) 0.01459(2)
O35 O 0.0080(2) 0.1517(4) 0.15828(8)
O39 O 0.1886(4) 0.5134(2) 0.01255(11)
O3 O 0.2691(4) 0.4888(4) 0.97383(10)
O4 O 0.1825(4) 0.3760(3) 0.98797(9)
C8 C 0.2119(5) 0.4199(5) 0.96996(13)
C9 C 0.1968(7) 0.3899(7) 0.94523(18)
C10 C 0.2257(10) 0.4360(9) 0.92576(16)
H6 H 0.2551 0.4897 0.9296
C11 C 0.2214(12) 0.4218(12) 0.9022(2)
H7 H 0.2474 0.4594 0.8900
C12 C 0.1689(14) 0.3371(11) 0.8983(2)
H8 H 0.1617 0.3181 0.8823
C13 C 0.1312(17) 0.2859(16) 0.9159(4)
H9 H 0.0966 0.2328 0.9123
C14 C 0.1440(11) 0.3129(8) 0.94113(19)
H10 H 0.1167 0.2785 0.9540
C30 C 0.5497(3) 0.5798(3) 0.99991(11)
H14 H 0.5826 0.6346 0.9999
O20 O 0.6342(2) 0.4200(2) 0.99046(7)
O21 O 0.6577(2) 0.5678(2) 0.98967(9)
O22 O 0.5134(2) 0.3248(4) 0.98745(11)
C35 C 0.5625(3) 0.3963(3) 0.99039(9)
C36 C 0.5317(3) 0.4506(3) 0.99523(9)
C37 C 0.5821(3) 0.5352(3) 0.99538(10)
Hf8 Hf 0.73849(2) 0.53606(2) 0.98541(2)
Hf9 Hf 0.46394(2) 0.20243(3) 0.98541(2)
O13 O 0.1437(3) 0.9920(2) 0.15828(8)
Hf3 Hf 0.07464(3) 0.86907(2) 0.15507(2)
O23 O 0.0631(4) 0.8807(3) 0.19662(9)
O24 O 0.1627(4) 0.8738(3) 0.18142(8)
C39 C 0.1275(6) 0.8822(5) 0.20006(11)
C40 C 0.1663(6) 0.9022(5) 0.22454(12)
C41 C 0.1202(9) 0.8935(7) 0.24514(15)
H17 H 0.0659 0.8740 0.2441
C42 C 0.1619(10) 0.9164(7) 0.26762(16)
H18 H 0.1340 0.9132 0.2819
C43 C 0.2389(11) 0.9423(7) 0.26936(18)
H19 H 0.2616 0.9502 0.2849
C44 C 0.2870(8) 0.9581(6) 0.24898(19)
H20 H 0.3419 0.9831 0.2503
C45 C 0.2487(8) 0.9344(6) 0.22625(15)
H21 H 0.2781 0.9402 0.2122
Hf4 Hf 0.20243(3) 0.73849(2) 0.01459(2)
O27 O 0.0500(4) 0.8944(3) 0.12084(8)
O28 O 0.0570(7) 0.9331(6) 0.08222(13)
O29 O 0.1416(4) 0.8416(3) 0.13470(7)
O30 O 0.2202(4) 0.7040(3) 0.04920(8)
O31 O 0.2368(5) 0.6884(4) 0.08799(10)
O32 O 0.1760(4) 0.8057(3) 0.03641(7)
C53 C 0.0741(7) 0.8995(6) 0.09868(12)
C54 C 0.1174(6) 0.8588(5) 0.09227(12)
C55 C 0.1454(4) 0.8280(3) 0.11041(10)
C56 C 0.1781(4) 0.7861(3) 0.10331(10)
H27 H 0.1952 0.7636 0.1152
C57 C 0.1883(4) 0.7741(3) 0.07770(10)
C58 C 0.1668(5) 0.8095(4) 0.06041(10)
C59 C 0.1263(6) 0.8491(5) 0.06861(11)
H28 H 0.1056 0.8689 0.0570
C60 C 0.2183(6) 0.7231(4) 0.07221(14)
O36 O 0.2142(3) 0.6342(2) 0.00954(7)
O37 O 0.0899(3) 0.6577(2) 0.01033(9)
O38 O 0.3248(4) 0.8114(4) 0.01255(11)
C105 C 0.1662(4) 0.5625(3) 0.00961(9)
C106 C 0.0469(4) 0.5821(3) 0.00462(10)
C107 C 0.0811(4) 0.5317(3) 0.00477(9)
O25 O 0.2197(6) 0.7309(4) 0.97383(10)
O26 O 0.1935(5) 0.8175(4) 0.98797(9)
C46 C 0.2080(7) 0.7881(5) 0.96996(13)
C47 C 0.1931(10) 0.8032(7) 0.94523(18)
C48 C 0.2103(13) 0.7743(10) 0.92576(16)
H22 H 0.2346 0.7449 0.9296
C49 C 0.2004(17) 0.7786(12) 0.9022(2)
H23 H 0.2120 0.7526 0.8900
C50 C 0.1682(18) 0.8311(14) 0.8983(2)
H24 H 0.1564 0.8383 0.8823
C51 C 0.1547(23) 0.8688(17) 0.9159(4)
H25 H 0.1362 0.9034 0.9123
C52 C 0.1689(14) 0.8560(11) 0.94113(19)
H26 H 0.1618 0.8833 0.9540
C108 C 0.0301(4) 0.4503(3) 0.99991(11)
H46 H 0.0520 0.4174 0.9999
O44 O 0.9106(2) 0.0301(3) 0.15918(8)
O45 O 0.7633(2) 0.0073(3) 0.15836(8)
C83 C 0.9358(3) 0.1028(4) 0.16029(9)
C84 C 0.8007(3) 0.0853(4) 0.16277(9)
C85 C 0.8824(3) 0.1346(4) 0.16348(8)
C86 C 0.9134(3) 0.2128(4) 0.16740(9)
C87 C 0.7533(3) 0.1205(4) 0.16593(9)
H41 H 0.6984 0.0884 0.1653
C88 C 0.7843(3) 0.1987(4) 0.16985(8)
C93 C 0.5798(3) 0.0301(4) 0.00009(11)
O57 O 0.7561(2) 0.3032(3) 0.17415(8)
C95 C 0.7309(3) 0.2305(4) 0.17304(9)
Hf13 Hf 0.87224(2) 0.40797(3) 0.17826(2)
O58 O 0.9034(2) 0.3260(3) 0.17497(8)
C96 C 0.8660(3) 0.2480(4) 0.17056(9)
O59 O 0.6587(2) 0.1816(4) 0.17505(8)
H43 H 0.9683 0.2449 0.1680
H44 H 0.6346 0.0520 0.0001
C94 C 0.4648(3) 0.0469(4) 0.99538(10)
O60 O 0.5800(2) 0.2142(3) 0.99046(7)
C97 C 0.6037(3) 0.1662(4) 0.99039(9)
O61 O 0.4322(2) 0.0899(3) 0.98967(9)
O62 O 0.6752(4) 0.1886(4) 0.98745(11)
Hf16 Hf 0.79757(3) 0.26151(2) 0.98541(2)
C98 C 0.5494(3) 0.0811(4) 0.99523(9)
O33 O 0.9699(3) 0.8805(2) 0.15918(8)
O34 O 0.9927(3) 0.7560(2) 0.15836(8)
Hf10 Hf 0.79443(2) 0.92536(3) 0.15507(2)
O40 O 0.8176(3) 0.9369(4) 0.19662(9)
O41 O 0.7111(2) 0.8373(4) 0.18142(8)
O42 O 0.8444(2) 0.9500(4) 0.12084(8)
O43 O 0.7000(2) 0.8584(4) 0.13470(7)
O46 O 0.8483(4) 0.8563(3) 0.15828(8)
C61 C 0.7547(4) 0.8725(6) 0.20006(11)
C62 C 0.7359(4) 0.8337(6) 0.22454(12)
C63 C 0.7733(5) 0.8798(9) 0.24514(15)
C64 C 0.6857(6) 0.7513(8) 0.22625(15)
H29 H 0.8081 0.9341 0.2441
C65 C 0.7545(7) 0.8381(10) 0.26762(16)
H30 H 0.7792 0.8660 0.2819
C66 C 0.7034(8) 0.7611(11) 0.26936(18)
H31 H 0.6886 0.7384 0.2849
C67 C 0.6711(6) 0.7130(8) 0.24898(19)
H32 H 0.6412 0.6581 0.2503
H33 H 0.6621 0.7219 0.2122
O49 O 0.4838(3) 0.7798(4) 0.04920(8)
O50 O 0.6297(2) 0.8240(4) 0.03641(7)
O51 O 0.4200(2) 0.7858(3) 0.00954(7)
O52 O 0.5678(2) 0.9101(3) 0.01033(9)
C75 C 0.8254(4) 0.9259(7) 0.09868(12)
O54 O 0.8761(4) 0.9430(7) 0.08222(13)
C76 C 0.6826(3) 0.8546(4) 0.11041(10)
C77 C 0.5048(4) 0.7817(6) 0.07221(14)
O55 O 0.4516(3) 0.7632(5) 0.08799(10)
C78 C 0.6427(3) 0.8332(5) 0.06041(10)
C79 C 0.7414(4) 0.8826(6) 0.09227(12)
C80 C 0.7228(4) 0.8737(6) 0.06861(11)
C81 C 0.6080(3) 0.8219(4) 0.10331(10)
H39 H 0.5684 0.8048 0.1152
C82 C 0.5858(3) 0.8117(4) 0.07770(10)
H40 H 0.7633 0.8944 0.0570
C89 C 0.3963(3) 0.8338(4) 0.00961(9)
C90 C 0.5352(3) 0.9531(4) 0.00462(10)
C91 C 0.4506(3) 0.9189(4) 0.00477(9)
C99 C 0.8972(4) 0.8330(3) 0.16029(9)
C100 C 0.9147(4) 0.7154(2) 0.16277(9)
C101 C 0.8654(4) 0.7478(3) 0.16348(8)
C102 C 0.7872(4) 0.7005(2) 0.16740(9)
C103 C 0.8795(4) 0.6328(2) 0.16593(9)
H45 H 0.9116 0.6100 0.1653
C104 C 0.8013(4) 0.5855(3) 0.16985(8)
C109 C 0.9699(4) 0.5497(3) 0.00009(11)
O64 O 0.6968(3) 0.4528(2) 0.17415(8)
C111 C 0.7695(4) 0.5003(3) 0.17304(9)
O65 O 0.6740(3) 0.5773(2) 0.17497(8)
C112 C 0.7520(4) 0.6179(2) 0.17056(9)
O66 O 0.8184(4) 0.4770(3) 0.17505(8)
H47 H 0.7551 0.7233 0.1680
H48 H 0.9480 0.5826 0.0001
O47 O 0.5112(4) 0.7803(6) 0.97383(10)
O48 O 0.6240(3) 0.8065(5) 0.98797(9)
C68 C 0.5801(5) 0.7920(7) 0.96996(13)
C69 C 0.6101(7) 0.8069(10) 0.94523(18)
C70 C 0.5640(9) 0.7897(13) 0.92576(16)
C71 C 0.6871(8) 0.8311(14) 0.94113(19)
H34 H 0.5103 0.7654 0.9296
C72 C 0.5782(12) 0.7996(17) 0.9022(2)
H35 H 0.5406 0.7880 0.8900
C73 C 0.6629(11) 0.8318(18) 0.8983(2)
H36 H 0.6819 0.8436 0.8823
C74 C 0.7141(16) 0.8453(23) 0.9159(4)
H37 H 0.7672 0.8638 0.9123
H38 H 0.7215 0.8382 0.9540
C92 C 0.4202(3) 0.9699(4) 0.99991(11)
H42 H 0.3654 0.9480 0.9999
C110 C 0.9531(4) 0.4179(3) 0.99538(10)
O67 O 0.7858(3) 0.3658(2) 0.99046(7)
C113 C 0.8338(4) 0.4375(3) 0.99039(9)
O68 O 0.9101(3) 0.3423(2) 0.98967(9)
O69 O 0.8114(4) 0.4866(2) 0.98745(11)
C114 C 0.9189(4) 0.4683(3) 0.99523(9)
O16_2 O 0.1533(2) 0.0085(4) 0.34588(11)
Hf7_2 Hf 0.20273(2) 0.13090(3) 0.34792(2)
C26_2 C 0.0339(2) 0.5800(3) 0.49926(9)
H13_2 H 0.0567 0.6349 0.4986
O14_2 O 0.0325(2) 0.9133(2) 0.34287(7)
O15_2 O 0.0090(2) 0.7655(2) 0.34366(9)
C27_2 C 0.1042(3) 0.9370(3) 0.34294(9)
C28_2 C 0.1350(3) 0.8827(3) 0.33810(9)
C29_2 C 0.0846(3) 0.7981(3) 0.33795(10)
C30_2 C 0.2164(3) 0.9131(3) 0.33324(11)
H14_2 H 0.2493 0.9679 0.3332
O17_2 O 0.2138(2) 0.5773(2) 0.50749(8)
O18_2 O 0.0893(2) 0.4300(2) 0.50831(8)
O19_2 O 0.1896(3) 0.6747(2) 0.50839(8)
C31_2 C 0.1663(3) 0.6025(3) 0.50638(9)
C32_2 C 0.0811(3) 0.5491(3) 0.50319(8)
C33_2 C 0.0487(2) 0.4674(3) 0.50390(9)
O20_2 O 0.3009(2) 0.7533(2) 0.32379(7)
O21_2 O 0.3244(2) 0.9011(2) 0.32300(9)
O22_2 O 0.1801(2) 0.6581(4) 0.32078(11)
C35_2 C 0.2292(3) 0.7296(3) 0.32372(9)
C36_2 C 0.1984(3) 0.7839(3) 0.32856(9)
C37_2 C 0.2488(3) 0.8685(3) 0.32871(10)
C38_2 C 0.1170(3) 0.7535(3) 0.33342(11)
H16_2 H 0.0841 0.6987 0.3334
H20_2 H 0.0086 0.3164 0.5836
Hf5_2 Hf 0.20240(2) 0.46110(2) 0.51160(2)
Hf6_2 Hf 0.25869(3) 0.79760(2) 0.51160(2)
Hf8_2 Hf 0.40516(2) 0.86939(2) 0.31874(2)
Hf9_2 Hf 0.13061(2) 0.53576(3) 0.31874(2)
Hf1_2 Hf 0.79760(2) 0.53890(2) 0.48840(2)
O1_2 O 0.7860(3) 0.5157(3) 0.52995(9)
O2_2 O 0.7929(3) 0.6222(2) 0.51475(8)
C1_2 C 0.7845(5) 0.5786(4) 0.53339(11)
C2_2 C 0.7645(5) 0.5974(4) 0.55787(12)
C3_2 C 0.7732(7) 0.5600(5) 0.57847(15)
H1_2 H 0.7927 0.5252 0.5774
C4_2 C 0.7503(7) 0.5788(7) 0.60095(16)
H2_2 H 0.7535 0.5541 0.6152
C5_2 C 0.7244(7) 0.6299(8) 0.60269(18)
H3_2 H 0.7165 0.6447 0.6182
C6_2 C 0.7086(6) 0.6622(6) 0.58231(19)
H4_2 H 0.6836 0.6921 0.5836
C7_2 C 0.7323(6) 0.6476(6) 0.55958(15)
H5_2 H 0.7265 0.6712 0.5455
Hf2_2 Hf 0.92818(2) 0.79727(2) 0.34792(2)
O3_2 O 0.9358(4) 0.8221(4) 0.30716(10)
O4_2 O 0.8492(4) 0.7093(3) 0.32130(9)
C8_2 C 0.8786(5) 0.7532(5) 0.30329(13)
C9_2 C 0.8635(7) 0.7232(7) 0.27856(18)
C10_2 C 0.8924(10) 0.7693(9) 0.25909(16)
H6_2 H 0.9218 0.8230 0.2629
C11_2 C 0.8881(12) 0.7551(12) 0.2355(2)
H7_2 H 0.9141 0.7927 0.2233
C12_2 C 0.8356(14) 0.6704(11) 0.2316(2)
H8_2 H 0.8284 0.6514 0.2156
C13_2 C 0.7979(17) 0.6192(16) 0.2492(4)
H9_2 H 0.7633 0.5661 0.2456
C14_2 C 0.8107(11) 0.6462(8) 0.27446(19)
H10_2 H 0.7834 0.6118 0.2873
O5_2 O 0.7723(3) 0.4889(2) 0.45417(8)
O6_2 O 0.7336(6) 0.4572(4) 0.41555(13)
O7_2 O 0.8251(3) 0.6333(2) 0.46803(7)
O8_2 O 0.9627(3) 0.8495(3) 0.38253(8)
O9_2 O 0.9783(4) 0.8817(3) 0.42132(10)
O10_2 O 0.8610(3) 0.7036(2) 0.36974(7)
C15_2 C 0.7672(6) 0.5079(4) 0.43201(12)
C16_2 C 0.8079(5) 0.5919(4) 0.42560(12)
C17_2 C 0.8387(3) 0.6507(3) 0.44374(10)
C18_2 C 0.8806(3) 0.7253(3) 0.43664(10)
H11_2 H 0.9031 0.7649 0.4485
C19_2 C 0.8926(3) 0.7475(3) 0.41103(10)
C20_2 C 0.8572(4) 0.6906(3) 0.39374(10)
C21_2 C 0.8176(5) 0.6105(4) 0.40194(11)
H12_2 H 0.7978 0.5700 0.3903
C22_2 C 0.9436(4) 0.8285(4) 0.40554(14)
O11_2 O 0.7862(2) 0.4227(2) 0.49251(8)
O12_2 O 0.9107(2) 0.5700(2) 0.49169(8)
O13_2 O 0.8104(3) 0.3253(2) 0.49161(8)
C23_2 C 0.8337(3) 0.3975(3) 0.49362(9)
C24_2 C 0.9189(3) 0.4509(3) 0.49681(8)
C25_2 C 0.9513(2) 0.5326(3) 0.49610(9)
C34_2 C 0.9661(2) 0.4200(3) 0.50074(9)
H15_2 H 0.9433 0.3651 0.5014
Hf3_2 Hf 0.74131(3) 0.20240(2) 0.48840(2)
O23_2 O 0.7298(4) 0.2140(3) 0.52995(9)
O24_2 O 0.8294(4) 0.2071(3) 0.51475(8)
C39_2 C 0.7942(6) 0.2155(5) 0.53339(11)
C40_2 C 0.8330(6) 0.2355(5) 0.55787(12)
C41_2 C 0.7869(9) 0.2268(7) 0.57847(15)
H17_2 H 0.7326 0.2073 0.5774
C42_2 C 0.8286(10) 0.2497(7) 0.60095(16)
H18_2 H 0.8007 0.2465 0.6152
C43_2 C 0.9056(11) 0.2756(7) 0.60269(18)
H19_2 H 0.9283 0.2835 0.6182
C44_2 C 0.9537(8) 0.2914(6) 0.58231(19)
C45_2 C 0.9154(8) 0.2677(6) 0.55958(15)
H21_2 H 0.9448 0.2735 0.5455
Hf4_2 Hf 0.86910(3) 0.07182(2) 0.34792(2)
O25_2 O 0.8864(6) 0.0642(4) 0.30716(10)
O26_2 O 0.8602(5) 0.1508(4) 0.32130(9)
C46_2 C 0.8747(7) 0.1214(5) 0.30329(13)
C47_2 C 0.8598(10) 0.1365(7) 0.27856(18)
C48_2 C 0.8770(13) 0.1076(10) 0.25909(16)
H22_2 H 0.9013 0.0782 0.2629
C49_2 C 0.8671(17) 0.1119(12) 0.2355(2)
H23_2 H 0.8787 0.0859 0.2233
C50_2 C 0.8349(18) 0.1644(14) 0.2316(2)
H24_2 H 0.8231 0.1716 0.2156
C51_2 C 0.8214(23) 0.2021(17) 0.2492(4)
H25_2 H 0.8029 0.2367 0.2456
C52_2 C 0.8356(14) 0.1893(11) 0.27446(19)
H26_2 H 0.8285 0.2166 0.2873
O27_2 O 0.7167(4) 0.2277(3) 0.45417(8)
O28_2 O 0.7237(7) 0.2664(6) 0.41555(13)
O29_2 O 0.8083(4) 0.1749(3) 0.46803(7)
O30_2 O 0.8869(4) 0.0373(3) 0.38253(8)
O31_2 O 0.9035(5) 0.0217(4) 0.42132(10)
O32_2 O 0.8427(4) 0.1390(3) 0.36974(7)
C53_2 C 0.7408(7) 0.2328(6) 0.43201(12)
C54_2 C 0.7841(6) 0.1921(5) 0.42560(12)
C55_2 C 0.8121(4) 0.1613(3) 0.44374(10)
C56_2 C 0.8448(4) 0.1194(3) 0.43664(10)
H27_2 H 0.8619 0.0969 0.4485
C57_2 C 0.8550(4) 0.1074(3) 0.41103(10)
C58_2 C 0.8335(5) 0.1428(4) 0.39374(10)
C59_2 C 0.7930(6) 0.1824(5) 0.40194(11)
H28_2 H 0.7723 0.2022 0.3903
C60_2 C 0.8850(6) 0.0564(4) 0.40554(14)
O33_2 O 0.6366(3) 0.2138(2) 0.49251(8)
O34_2 O 0.6594(3) 0.0893(2) 0.49169(8)
O35_2 O 0.6747(2) 0.4850(4) 0.49161(8)
O38_2 O 0.9915(4) 0.1447(4) 0.34588(11)
O39_2 O 0.8553(4) 0.8467(2) 0.34588(11)
Hf10_2 Hf 0.46110(2) 0.25869(3) 0.48840(2)
O40_2 O 0.4843(3) 0.2702(4) 0.52995(9)
O41_2 O 0.3778(2) 0.1706(4) 0.51475(8)
O42_2 O 0.5111(2) 0.2833(4) 0.45417(8)
O43_2 O 0.3667(2) 0.1917(4) 0.46803(7)
O44_2 O 0.5773(2) 0.3634(3) 0.49251(8)
O45_2 O 0.4300(2) 0.3406(3) 0.49169(8)
O46_2 O 0.5150(4) 0.1896(3) 0.49161(8)
C61_2 C 0.4214(4) 0.2058(6) 0.53339(11)
C62_2 C 0.4026(4) 0.1670(6) 0.55787(12)
C63_2 C 0.4400(5) 0.2131(9) 0.57847(15)
C64_2 C 0.3524(6) 0.0846(8) 0.55958(15)
H29_2 H 0.4748 0.2674 0.5774
C65_2 C 0.4212(7) 0.1714(10) 0.60095(16)
H30_2 H 0.4459 0.1993 0.6152
C66_2 C 0.3701(8) 0.0944(11) 0.60269(18)
H31_2 H 0.3553 0.0717 0.6182
C67_2 C 0.3378(6) 0.0463(8) 0.58231(19)
H33_2 H 0.3288 0.0552 0.5455
O47_2 O 0.1779(4) 0.1136(6) 0.30716(10)
O48_2 O 0.2907(3) 0.1398(5) 0.32130(9)
O49_2 O 0.1505(3) 0.1131(4) 0.38253(8)
O50_2 O 0.2964(2) 0.1573(4) 0.36974(7)
O51_2 O 0.0867(2) 0.1191(3) 0.34287(7)
O52_2 O 0.2345(2) 0.2434(3) 0.34366(9)
C68_2 C 0.2468(5) 0.1253(7) 0.30329(13)
C69_2 C 0.2768(7) 0.1402(10) 0.27856(18)
C70_2 C 0.2307(9) 0.1230(13) 0.25909(16)
C71_2 C 0.3538(8) 0.1644(14) 0.27446(19)
H34_2 H 0.1770 0.0987 0.2629
C72_2 C 0.2449(12) 0.1329(17) 0.2355(2)
H35_2 H 0.2073 0.1213 0.2233
C73_2 C 0.3296(11) 0.1651(18) 0.2316(2)
H36_2 H 0.3486 0.1769 0.2156
C74_2 C 0.3808(16) 0.1786(23) 0.2492(4)
H37_2 H 0.4339 0.1971 0.2456
H38_2 H 0.3882 0.1715 0.2873
C75_2 C 0.4921(4) 0.2592(7) 0.43201(12)
O54_2 O 0.5428(4) 0.2763(7) 0.41555(13)
C76_2 C 0.3493(3) 0.1879(4) 0.44374(10)
C77_2 C 0.1715(4) 0.1150(6) 0.40554(14)
O55_2 O 0.1183(3) 0.0965(5) 0.42132(10)
C78_2 C 0.3094(3) 0.1665(5) 0.39374(10)
C79_2 C 0.4081(4) 0.2159(6) 0.42560(12)
C80_2 C 0.3895(4) 0.2070(6) 0.40194(11)
C81_2 C 0.2747(3) 0.1552(4) 0.43664(10)
H39_2 H 0.2351 0.1381 0.4485
C82_2 C 0.2525(3) 0.1450(4) 0.41103(10)
H40_2 H 0.4300 0.2277 0.3903
C83_2 C 0.6025(3) 0.4361(4) 0.49362(9)
C84_2 C 0.4674(3) 0.4186(4) 0.49610(9)
C85_2 C 0.5491(3) 0.4679(4) 0.49681(8)
C86_2 C 0.5800(3) 0.5462(4) 0.50074(9)
C87_2 C 0.4200(3) 0.4538(4) 0.49926(9)
H41_2 H 0.3651 0.4217 0.4986
C88_2 C 0.4509(3) 0.5321(4) 0.50319(8)
C89_2 C 0.0630(3) 0.1671(4) 0.34294(9)
C90_2 C 0.2019(3) 0.2864(4) 0.33795(10)
C91_2 C 0.1173(3) 0.2522(4) 0.33810(9)
C92_2 C 0.0869(3) 0.3032(4) 0.33324(11)
C93_2 C 0.2465(3) 0.3634(4) 0.33342(11)
H42_2 H 0.0321 0.2813 0.3332
C94_2 C 0.1315(3) 0.3802(4) 0.32871(10)
O57_2 O 0.4227(2) 0.6366(3) 0.50749(8)
C95_2 C 0.3975(3) 0.5639(4) 0.50638(9)
Hf13_2 Hf 0.53890(2) 0.74131(3) 0.51160(2)
O58_2 O 0.5700(2) 0.6594(3) 0.50831(8)
C96_2 C 0.5326(3) 0.5814(4) 0.50390(9)
O59_2 O 0.3253(2) 0.5150(4) 0.50839(8)
H43_2 H 0.6349 0.5783 0.5014
O60_2 O 0.2467(2) 0.5475(3) 0.32379(7)
C97_2 C 0.2704(3) 0.4995(4) 0.32372(9)
O61_2 O 0.0989(2) 0.4232(3) 0.32300(9)
O62_2 O 0.3419(4) 0.5219(4) 0.32078(11)
Hf16_2 Hf 0.46424(3) 0.59484(2) 0.31874(2)
C98_2 C 0.2161(3) 0.4144(4) 0.32856(9)
H44_2 H 0.3013 0.3853 0.3334
C99_2 C 0.5639(4) 0.1663(3) 0.49362(9)
C100_2 C 0.5814(4) 0.0487(2) 0.49610(9)
C101_2 C 0.5321(4) 0.0811(3) 0.49681(8)
C102_2 C 0.4538(4) 0.0339(2) 0.50074(9)
H47_2 H 0.4217 0.0567 0.5014
O36_2 O 0.8809(3) 0.9675(2) 0.34287(7)
O37_2 O 0.7566(3) 0.9910(2) 0.34366(9)
H32_2 H 0.3079 0.9914 0.5836
C103_2 C 0.5462(4) 0.9661(2) 0.49926(9)
H45_2 H 0.5783 0.9433 0.4986
C104_2 C 0.4679(4) 0.9189(3) 0.50319(8)
C105_2 C 0.8329(4) 0.8958(3) 0.34294(9)
C106_2 C 0.7136(4) 0.9154(3) 0.33795(10)
C107_2 C 0.7478(4) 0.8650(3) 0.33810(9)
C108_2 C 0.6968(4) 0.7836(3) 0.33324(11)
C109_2 C 0.6366(4) 0.8830(3) 0.33342(11)
H46_2 H 0.7187 0.7507 0.3332
C110_2 C 0.6198(4) 0.7512(3) 0.32871(10)
O64_2 O 0.3634(3) 0.7862(2) 0.50749(8)
C111_2 C 0.4361(4) 0.8337(3) 0.50638(9)
O65_2 O 0.3406(3) 0.9107(2) 0.50831(8)
C112_2 C 0.4186(4) 0.9513(2) 0.50390(9)
O66_2 O 0.4850(4) 0.8104(3) 0.50839(8)
O67_2 O 0.4525(3) 0.6991(2) 0.32379(7)
C113_2 C 0.5005(4) 0.7708(3) 0.32372(9)
O68_2 O 0.5768(3) 0.6756(2) 0.32300(9)
O69_2 O 0.4781(4) 0.8199(2) 0.32078(11)
C114_2 C 0.5856(4) 0.8016(3) 0.32856(9)
H48_2 H 0.6147 0.9159 0.3334
Hf8_3 Hf 0.07182(2) 0.20273(2) 0.65208(2)
H4_3 H 0.3502 0.0255 0.9170
H5_3 H 0.3931 0.0046 0.8789
Hf2_3 Hf 0.59484(2) 0.13061(2) 0.68126(2)
O3_3 O 0.6024(4) 0.1555(4) 0.64050(10)
O4_3 O 0.5158(4) 0.0427(3) 0.65464(9)
C8_3 C 0.5452(5) 0.0866(5) 0.63663(13)
C9_3 C 0.5301(7) 0.0566(7) 0.61190(18)
C10_3 C 0.5590(10) 0.1027(9) 0.59243(16)
H6_3 H 0.5884 0.1564 0.5963
C11_3 C 0.5547(12) 0.0885(12) 0.5689(2)
H7_3 H 0.5807 0.1261 0.5567
C12_3 C 0.5022(14) 0.0038(11) 0.5650(2)
O8_3 O 0.6293(3) 0.1829(3) 0.71587(8)
O9_3 O 0.6449(4) 0.2151(3) 0.75466(10)
O10_3 O 0.5276(3) 0.0370(2) 0.70308(7)
C18_3 C 0.5472(3) 0.0587(3) 0.76998(10)
H11_3 H 0.5697 0.0983 0.7819
C19_3 C 0.5592(3) 0.0809(3) 0.74437(10)
C20_3 C 0.5238(4) 0.0240(3) 0.72708(10)
C22_3 C 0.6102(4) 0.1619(4) 0.73888(14)
O14_3 O 0.6991(2) 0.2467(2) 0.67621(7)
O15_3 O 0.6756(2) 0.0989(2) 0.67700(9)
O16_3 O 0.8199(2) 0.3419(4) 0.67922(11)
C27_3 C 0.7708(3) 0.2704(3) 0.67628(9)
C28_3 C 0.8016(3) 0.2161(3) 0.67144(9)
C29_3 C 0.7512(3) 0.1315(3) 0.67129(10)
C30_3 C 0.8830(3) 0.2465(3) 0.66658(11)
H14_3 H 0.9159 0.3013 0.6666
O19_3 O 0.8563(3) 0.0080(2) 0.84172(8)
O20_3 O 0.9675(2) 0.0867(2) 0.65713(7)
O21_3 O 0.9910(2) 0.2345(2) 0.65634(9)
C35_3 C 0.8958(3) 0.0630(3) 0.65706(9)
C36_3 C 0.8650(3) 0.1173(3) 0.66190(9)
C37_3 C 0.9154(3) 0.2019(3) 0.66205(10)
C38_3 C 0.7836(3) 0.0869(3) 0.66676(11)
H16_3 H 0.7507 0.0321 0.6668
Hf6_3 Hf 0.92536(3) 0.13093(2) 0.84493(2)
Hf7_3 Hf 0.86939(2) 0.46424(3) 0.68126(2)
O39_3 O 0.5219(4) 0.1801(2) 0.67922(11)
Hf13_3 Hf 0.20557(2) 0.07464(3) 0.84493(2)
Hf1_3 Hf 0.46426(2) 0.87224(2) 0.82174(2)
O1_3 O 0.4526(3) 0.8491(3) 0.86329(9)
O2_3 O 0.4595(3) 0.9556(2) 0.84809(8)
C1_3 C 0.4511(5) 0.9120(4) 0.86673(11)
C2_3 C 0.4311(5) 0.9308(4) 0.89121(12)
C3_3 C 0.4398(7) 0.8934(5) 0.91181(15)
H1_3 H 0.4593 0.8586 0.9108
C4_3 C 0.4169(7) 0.9122(7) 0.93429(16)
H2_3 H 0.4201 0.8875 0.9486
C5_3 C 0.3910(7) 0.9633(8) 0.93603(18)
H3_3 H 0.3831 0.9781 0.9516
C6_3 C 0.3752(6) 0.9956(6) 0.91565(19)
C7_3 C 0.3989(6) 0.9810(6) 0.89292(15)
H8_3 H 0.4950 0.9848 0.5490
C13_3 C 0.4645(17) 0.9526(16) 0.5826(4)
H9_3 H 0.4299 0.8995 0.5790
C14_3 C 0.4773(11) 0.9796(8) 0.60780(19)
H10_3 H 0.4500 0.9452 0.6207
O5_3 O 0.4389(3) 0.8223(2) 0.78751(8)
O6_3 O 0.4002(6) 0.7906(4) 0.74889(13)
O7_3 O 0.4917(3) 0.9667(2) 0.80137(7)
C15_3 C 0.4338(6) 0.8413(4) 0.76535(12)
C16_3 C 0.4745(5) 0.9253(4) 0.75894(12)
C17_3 C 0.5053(3) 0.9841(3) 0.77708(10)
C21_3 C 0.4842(5) 0.9439(4) 0.73528(11)
H12_3 H 0.4644 0.9034 0.7237
O11_3 O 0.4528(2) 0.7561(2) 0.82585(8)
O12_3 O 0.5773(2) 0.9034(2) 0.82503(8)
O13_3 O 0.4770(3) 0.6587(2) 0.82495(8)
C23_3 C 0.5003(3) 0.7309(3) 0.82696(9)
C24_3 C 0.5855(3) 0.7843(3) 0.83015(8)
C25_3 C 0.6179(2) 0.8660(3) 0.82944(9)
C26_3 C 0.7005(2) 0.9134(3) 0.83260(9)
H13_3 H 0.7233 0.9683 0.8320
O17_3 O 0.8805(2) 0.9106(2) 0.84082(8)
O18_3 O 0.7560(2) 0.7633(2) 0.84164(8)
C31_3 C 0.8330(3) 0.9358(3) 0.83971(9)
C32_3 C 0.7478(3) 0.8824(3) 0.83652(8)
C33_3 C 0.7154(2) 0.8007(3) 0.83723(9)
C34_3 C 0.6328(2) 0.7533(3) 0.83407(9)
H15_3 H 0.6100 0.6984 0.8347
O22_3 O 0.8467(2) 0.9915(4) 0.65412(11)
Hf3_3 Hf 0.40797(3) 0.53574(2) 0.82174(2)
O23_3 O 0.3964(4) 0.5474(3) 0.86329(9)
O24_3 O 0.4960(4) 0.5405(3) 0.84809(8)
C39_3 C 0.4608(6) 0.5489(5) 0.86673(11)
C40_3 C 0.4996(6) 0.5689(5) 0.89121(12)
C41_3 C 0.4535(9) 0.5602(7) 0.91181(15)
H17_3 H 0.3992 0.5407 0.9108
C42_3 C 0.4952(10) 0.5831(7) 0.93429(16)
H18_3 H 0.4673 0.5799 0.9486
C43_3 C 0.5722(11) 0.6090(7) 0.93603(18)
H19_3 H 0.5949 0.6169 0.9516
C44_3 C 0.6203(8) 0.6248(6) 0.91565(19)
H20_3 H 0.6752 0.6498 0.9170
C45_3 C 0.5820(8) 0.6011(6) 0.89292(15)
H21_3 H 0.6114 0.6069 0.8789
Hf4_3 Hf 0.53576(3) 0.40516(2) 0.68126(2)
O25_3 O 0.5530(6) 0.3976(4) 0.64050(10)
O26_3 O 0.5268(5) 0.4842(4) 0.65464(9)
C46_3 C 0.5413(7) 0.4548(5) 0.63663(13)
C47_3 C 0.5264(10) 0.4699(7) 0.61190(18)
C48_3 C 0.5436(13) 0.4410(10) 0.59243(16)
H22_3 H 0.5679 0.4116 0.5963
C49_3 C 0.5337(17) 0.4453(12) 0.5689(2)
H23_3 H 0.5453 0.4193 0.5567
C50_3 C 0.5015(18) 0.4978(14) 0.5650(2)
H24_3 H 0.4897 0.5050 0.5490
C51_3 C 0.4880(23) 0.5355(17) 0.5826(4)
H25_3 H 0.4695 0.5701 0.5790
C52_3 C 0.5022(14) 0.5227(11) 0.60780(19)
H26_3 H 0.4951 0.5500 0.6207
O27_3 O 0.3833(4) 0.5611(3) 0.78751(8)
O28_3 O 0.3903(7) 0.5998(6) 0.74889(13)
O29_3 O 0.4749(4) 0.5083(3) 0.80137(7)
O30_3 O 0.5535(4) 0.3707(3) 0.71587(8)
O31_3 O 0.5701(5) 0.3551(4) 0.75466(10)
O32_3 O 0.5093(4) 0.4724(3) 0.70308(7)
C53_3 C 0.4074(7) 0.5662(6) 0.76535(12)
C54_3 C 0.4507(6) 0.5255(5) 0.75894(12)
C55_3 C 0.4787(4) 0.4947(3) 0.77708(10)
C56_3 C 0.5114(4) 0.4528(3) 0.76998(10)
H27_3 H 0.5285 0.4303 0.7819
C57_3 C 0.5216(4) 0.4408(3) 0.74437(10)
C58_3 C 0.5001(5) 0.4762(4) 0.72708(10)
C59_3 C 0.4596(6) 0.5158(5) 0.73528(11)
H28_3 H 0.4389 0.5356 0.7237
C60_3 C 0.5516(6) 0.3898(4) 0.73888(14)
Hf5_3 Hf 0.86907(2) 0.79443(2) 0.84493(2)
Hf9_3 Hf 0.79727(2) 0.86910(3) 0.65208(2)
O33_3 O 0.3032(3) 0.5472(2) 0.82585(8)
O34_3 O 0.3260(3) 0.4227(2) 0.82503(8)
O35_3 O 0.3413(2) 0.8184(4) 0.82495(8)
O36_3 O 0.5475(3) 0.3009(2) 0.67621(7)
O37_3 O 0.4232(3) 0.3244(2) 0.67700(9)
O38_3 O 0.6581(4) 0.4781(4) 0.67922(11)
Hf10_3 Hf 0.12776(2) 0.59203(3) 0.82174(2)
O40_3 O 0.1509(3) 0.6036(4) 0.86329(9)
O41_3 O 0.0444(2) 0.5040(4) 0.84809(8)
O42_3 O 0.1777(2) 0.6167(4) 0.78751(8)
O43_3 O 0.0333(2) 0.5251(4) 0.80137(7)
O44_3 O 0.2439(2) 0.6968(3) 0.82585(8)
O45_3 O 0.0966(2) 0.6740(3) 0.82503(8)
O46_3 O 0.1816(4) 0.5230(3) 0.82495(8)
C61_3 C 0.0880(4) 0.5392(6) 0.86673(11)
C62_3 C 0.0692(4) 0.5004(6) 0.89121(12)
C63_3 C 0.1066(5) 0.5465(9) 0.91181(15)
C64_3 C 0.0190(6) 0.4180(8) 0.89292(15)
H29_3 H 0.1414 0.6008 0.9108
C65_3 C 0.0878(7) 0.5048(10) 0.93429(16)
H30_3 H 0.1125 0.5327 0.9486
C66_3 C 0.0367(8) 0.4278(11) 0.93603(18)
H31_3 H 0.0219 0.4051 0.9516
C67_3 C 0.0044(6) 0.3797(8) 0.91565(19)
C71_3 C 0.0204(8) 0.4978(14) 0.60780(19)
H36_3 H 0.0152 0.5103 0.5490
C74_3 C 0.0474(16) 0.5120(23) 0.5826(4)
H37_3 H 0.1005 0.5305 0.5790
H38_3 H 0.0548 0.5049 0.6207
C75_3 C 0.1587(4) 0.5926(7) 0.76535(12)
O54_3 O 0.2094(4) 0.6097(7) 0.74889(13)
C76_3 C 0.0159(3) 0.5213(4) 0.77708(10)
C79_3 C 0.0747(4) 0.5493(6) 0.75894(12)
C80_3 C 0.0561(4) 0.5404(6) 0.73528(11)
H40_3 H 0.0966 0.5611 0.7237
C83_3 C 0.2691(3) 0.7695(4) 0.82696(9)
C84_3 C 0.1340(3) 0.7520(4) 0.82944(9)
C85_3 C 0.2157(3) 0.8013(4) 0.83015(8)
C86_3 C 0.2467(3) 0.8795(4) 0.83407(9)
C87_3 C 0.0866(3) 0.7872(4) 0.83260(9)
H41_3 H 0.0317 0.7551 0.8320
C88_3 C 0.1176(3) 0.8654(4) 0.83652(8)
O57_3 O 0.0894(2) 0.9699(3) 0.84082(8)
C95_3 C 0.0642(3) 0.8972(4) 0.83971(9)
O58_3 O 0.2367(2) 0.9927(3) 0.84164(8)
C96_3 C 0.1993(3) 0.9147(4) 0.83723(9)
H43_3 H 0.3016 0.9116 0.8347
O62_3 O 0.0085(4) 0.8553(4) 0.65412(11)
Hf16_3 Hf 0.13090(3) 0.92818(2) 0.65208(2)
C99_3 C 0.2305(4) 0.4997(3) 0.82696(9)
C100_3 C 0.2480(4) 0.3821(2) 0.82944(9)
C101_3 C 0.1987(4) 0.4145(3) 0.83015(8)
C102_3 C 0.1205(4) 0.3672(2) 0.83407(9)
C103_3 C 0.2128(4) 0.2995(2) 0.83260(9)
H45_3 H 0.2449 0.2767 0.8320
C104_3 C 0.1346(4) 0.2522(3) 0.83652(8)
C105_3 C 0.4995(4) 0.2292(3) 0.67628(9)
C106_3 C 0.3802(4) 0.2488(3) 0.67129(10)
C107_3 C 0.4144(4) 0.1984(3) 0.67144(9)
C108_3 C 0.3634(4) 0.1170(3) 0.66658(11)
C109_3 C 0.3032(4) 0.2164(3) 0.66676(11)
H46_3 H 0.3853 0.0841 0.6666
C110_3 C 0.2864(4) 0.0846(3) 0.66205(10)
O64_3 O 0.0301(3) 0.1195(2) 0.84082(8)
C111_3 C 0.1028(4) 0.1670(3) 0.83971(9)
O65_3 O 0.0073(3) 0.2440(2) 0.84164(8)
C112_3 C 0.0853(4) 0.2846(2) 0.83723(9)
O66_3 O 0.1517(4) 0.1437(3) 0.84172(8)
H47_3 H 0.0884 0.3900 0.8347
O67_3 O 0.1191(3) 0.0325(2) 0.65713(7)
C113_3 C 0.1671(4) 0.1042(3) 0.65706(9)
O68_3 O 0.2434(3) 0.0090(2) 0.65634(9)
O69_3 O 0.1447(4) 0.1533(2) 0.65412(11)
C114_3 C 0.2522(4) 0.1350(3) 0.66190(9)
H48_3 H 0.2813 0.2493 0.6668
H32_3 H 0.9745 0.3248 0.9170
H33_3 H 0.9954 0.3886 0.8789
O47_3 O 0.8445(4) 0.4470(6) 0.64050(10)
O48_3 O 0.9573(3) 0.4732(5) 0.65464(9)
O49_3 O 0.8171(3) 0.4465(4) 0.71587(8)
O50_3 O 0.9630(2) 0.4907(4) 0.70308(7)
O51_3 O 0.7533(2) 0.4525(3) 0.67621(7)
O52_3 O 0.9011(2) 0.5768(3) 0.67700(9)
C68_3 C 0.9134(5) 0.4587(7) 0.63663(13)
C69_3 C 0.9434(7) 0.4736(10) 0.61190(18)
C70_3 C 0.8973(9) 0.4564(13) 0.59243(16)
H34_3 H 0.8436 0.4321 0.5963
C72_3 C 0.9115(12) 0.4663(17) 0.5689(2)
H35_3 H 0.8739 0.4547 0.5567
C73_3 C 0.9962(11) 0.4985(18) 0.5650(2)
C77_3 C 0.8381(4) 0.4484(6) 0.73888(14)
O55_3 O 0.7849(3) 0.4299(5) 0.75466(10)
C78_3 C 0.9760(3) 0.4999(5) 0.72708(10)
C81_3 C 0.9413(3) 0.4886(4) 0.76998(10)
H39_3 H 0.9017 0.4715 0.7819
C82_3 C 0.9191(3) 0.4784(4) 0.74437(10)
C89_3 C 0.7296(3) 0.5005(4) 0.67628(9)
C90_3 C 0.8685(3) 0.6198(4) 0.67129(10)
C91_3 C 0.7839(3) 0.5856(4) 0.67144(9)
C92_3 C 0.7535(3) 0.6366(4) 0.66658(11)
C93_3 C 0.9131(3) 0.6968(4) 0.66676(11)
H42_3 H 0.6987 0.6147 0.6666
C94_3 C 0.7981(3) 0.7136(4) 0.66205(10)
O59_3 O 0.9920(2) 0.8483(4) 0.84172(8)
O60_3 O 0.9133(2) 0.8809(3) 0.65713(7)
C97_3 C 0.9370(3) 0.8329(4) 0.65706(9)
O61_3 O 0.7655(2) 0.7566(3) 0.65634(9)
C98_3 C 0.8827(3) 0.7478(4) 0.66190(9)
H44_3 H 0.9679 0.7187 0.6668
O47_4 O 0.4888(4) 0.2197(6) 0.02617(10)
O48_4 O 0.3760(3) 0.1935(5) 0.01203(9)
C68_4 C 0.4199(5) 0.2080(7) 0.03004(13)
C69_4 C 0.3899(7) 0.1931(10) 0.05477(18)
C70_4 C 0.4360(9) 0.2103(13) 0.07424(16)
C71_4 C 0.3129(8) 0.1689(14) 0.05887(19)
H34_4 H 0.4897 0.2346 0.0704
C72_4 C 0.4218(12) 0.2004(17) 0.0978(2)
H35_4 H 0.4594 0.2120 0.1100
C73_4 C 0.3371(11) 0.1682(18) 0.1017(2)
H36_4 H 0.3181 0.1564 0.1177
C74_4 C 0.2859(16) 0.1547(23) 0.0841(4)
H37_4 H 0.2328 0.1362 0.0877
H38_4 H 0.2785 0.1618 0.0460
O40_4 O 0.1824(3) 0.0631(4) 0.80338(9)
O41_4 O 0.2889(2) 0.1627(4) 0.81858(8)
O42_4 O 0.1556(2) 0.0500(4) 0.87916(8)
O43_4 O 0.3000(2) 0.1416(4) 0.86530(7)
C61_4 C 0.2453(4) 0.1275(6) 0.79994(11)
C62_4 C 0.2641(4) 0.1663(6) 0.77546(12)
C63_4 C 0.2267(5) 0.1202(9) 0.75486(15)
C64_4 C 0.3143(6) 0.2487(8) 0.77375(15)
H29_4 H 0.1919 0.0659 0.7559
C65_4 C 0.2455(7) 0.1619(10) 0.73238(16)
H30_4 H 0.2208 0.1340 0.7181
C66_4 C 0.2966(8) 0.2389(11) 0.73064(18)
H31_4 H 0.3114 0.2616 0.7151
C67_4 C 0.3289(6) 0.2870(8) 0.75102(19)
H32_4 H 0.3588 0.3419 0.7497
H33_4 H 0.3379 0.2781 0.7878
O49_4 O 0.5162(3) 0.2202(4) 0.95080(8)
O50_4 O 0.3703(2) 0.1760(4) 0.96359(7)
C75_4 C 0.1746(4) 0.0741(7) 0.90132(12)
O54_4 O 0.1239(4) 0.0570(7) 0.91778(13)
C76_4 C 0.3174(3) 0.1454(4) 0.88959(10)
C77_4 C 0.4952(4) 0.2183(6) 0.92779(14)
O55_4 O 0.5484(3) 0.2368(5) 0.91201(10)
C78_4 C 0.3573(3) 0.1668(5) 0.93959(10)
C79_4 C 0.2586(4) 0.1174(6) 0.90773(12)
C80_4 C 0.2772(4) 0.1263(6) 0.93139(11)
C81_4 C 0.3920(3) 0.1781(4) 0.89669(10)
H39_4 H 0.4316 0.1952 0.8848
C82_4 C 0.4142(3) 0.1883(4) 0.92230(10)
H40_4 H 0.2367 0.1056 0.9430
O25_4 O 0.7803(6) 0.2691(4) 0.02617(10)
O26_4 O 0.8065(5) 0.1825(4) 0.01203(9)
C46_4 C 0.7920(7) 0.2119(5) 0.03004(13)
C47_4 C 0.8069(10) 0.1968(7) 0.05477(18)
C48_4 C 0.7897(13) 0.2257(10) 0.07424(16)
H22_4 H 0.7654 0.2551 0.0704
C49_4 C 0.7996(17) 0.2214(12) 0.0978(2)
H23_4 H 0.7880 0.2474 0.1100
C50_4 C 0.8318(18) 0.1689(14) 0.1017(2)
H24_4 H 0.8436 0.1617 0.1177
C51_4 C 0.8453(23) 0.1312(17) 0.0841(4)
H25_4 H 0.8638 0.0966 0.0877
C52_4 C 0.8311(14) 0.1440(11) 0.05887(19)
H26_4 H 0.8382 0.1167 0.0460
O23_4 O 0.9369(4) 0.1193(3) 0.80338(9)
O24_4 O 0.8373(4) 0.1262(3) 0.81858(8)
C39_4 C 0.8725(6) 0.1178(5) 0.79994(11)
C40_4 C 0.8337(6) 0.0978(5) 0.77546(12)
C41_4 C 0.8798(9) 0.1065(7) 0.75486(15)
H17_4 H 0.9341 0.1260 0.7559
C42_4 C 0.8381(10) 0.0836(7) 0.73238(16)
H18_4 H 0.8660 0.0868 0.7181
C43_4 C 0.7611(11) 0.0577(7) 0.73064(18)
H19_4 H 0.7384 0.0498 0.7151
C44_4 C 0.7130(8) 0.0419(6) 0.75102(19)
H20_4 H 0.6581 0.0169 0.7497
C45_4 C 0.7513(8) 0.0656(6) 0.77375(15)
H21_4 H 0.7219 0.0598 0.7878
O27_4 O 0.9500(4) 0.1056(3) 0.87916(8)
O28_4 O 0.9430(7) 0.0669(6) 0.91778(13)
O29_4 O 0.8584(4) 0.1584(3) 0.86530(7)
O30_4 O 0.7798(4) 0.2960(3) 0.95080(8)
O31_4 O 0.7632(5) 0.3116(4) 0.91201(10)
O32_4 O 0.8240(4) 0.1943(3) 0.96359(7)
C53_4 C 0.9259(7) 0.1005(6) 0.90132(12)
C54_4 C 0.8826(6) 0.1412(5) 0.90773(12)
C55_4 C 0.8546(4) 0.1720(3) 0.88959(10)
C56_4 C 0.8219(4) 0.2139(3) 0.89669(10)
H27_4 H 0.8048 0.2364 0.8848
C57_4 C 0.8117(4) 0.2259(3) 0.92230(10)
C58_4 C 0.8332(5) 0.1905(4) 0.93959(10)
C59_4 C 0.8737(6) 0.1509(5) 0.93139(11)
H28_4 H 0.8944 0.1311 0.9430
C60_4 C 0.7817(6) 0.2769(4) 0.92779(14)
O3_4 O 0.7309(4) 0.5112(4) 0.02617(10)
O4_4 O 0.8175(4) 0.6240(3) 0.01203(9)
C8_4 C 0.7881(5) 0.5801(5) 0.03004(13)
C9_4 C 0.8032(7) 0.6101(7) 0.05477(18)
C10_4 C 0.7743(10) 0.5640(9) 0.07424(16)
H6_4 H 0.7449 0.5103 0.0704
C11_4 C 0.7786(12) 0.5782(12) 0.0978(2)
H7_4 H 0.7526 0.5406 0.1100
C12_4 C 0.8311(14) 0.6629(11) 0.1017(2)
H8_4 H 0.8383 0.6819 0.1177
C13_4 C 0.8688(17) 0.7141(16) 0.0841(4)
H9_4 H 0.9034 0.7672 0.0877
C14_4 C 0.8560(11) 0.6871(8) 0.05887(19)
H10_4 H 0.8833 0.7215 0.0460
O1_4 O 0.8807(3) 0.8176(3) 0.80338(9)
O2_4 O 0.8738(3) 0.7111(2) 0.81858(8)
C1_4 C 0.8822(5) 0.7547(4) 0.79994(11)
C2_4 C 0.9022(5) 0.7359(4) 0.77546(12)
C3_4 C 0.8935(7) 0.7733(5) 0.75486(15)
H1_4 H 0.8740 0.8081 0.7559
C4_4 C 0.9164(7) 0.7545(7) 0.73238(16)
H2_4 H 0.9132 0.7792 0.7181
C5_4 C 0.9423(7) 0.7034(8) 0.73064(18)
H3_4 H 0.9502 0.6886 0.7151
C6_4 C 0.9581(6) 0.6711(6) 0.75102(19)
H4_4 H 0.9831 0.6412 0.7497
C7_4 C 0.9344(6) 0.6857(6) 0.77375(15)
H5_4 H 0.9402 0.6621 0.7878
O5_4 O 0.8944(3) 0.8444(2) 0.87916(8)
O6_4 O 0.9331(6) 0.8761(4) 0.91778(13)
O7_4 O 0.8416(3) 0.7000(2) 0.86530(7)
O8_4 O 0.7040(3) 0.4838(3) 0.95080(8)
O9_4 O 0.6884(4) 0.4516(3) 0.91201(10)
O10_4 O 0.8057(3) 0.6297(2) 0.96359(7)
C15_4 C 0.8995(6) 0.8254(4) 0.90132(12)
C16_4 C 0.8588(5) 0.7414(4) 0.90773(12)
C17_4 C 0.8280(3) 0.6826(3) 0.88959(10)
C18_4 C 0.7861(3) 0.6080(3) 0.89669(10)
H11_4 H 0.7636 0.5684 0.8848
C19_4 C 0.7741(3) 0.5858(3) 0.92230(10)
C20_4 C 0.8095(4) 0.6427(3) 0.93959(10)
C21_4 C 0.8491(5) 0.7228(4) 0.93139(11)
H12_4 H 0.8689 0.7633 0.9430
C22_4 C 0.7231(4) 0.5048(4) 0.92779(14)
H32_5 H 0.6921 0.0086 0.4164
O1_5 O 0.2140(3) 0.4843(3) 0.47005(9)
O2_5 O 0.2071(3) 0.3778(2) 0.48525(8)
C1_5 C 0.2155(5) 0.4214(4) 0.46661(11)
C2_5 C 0.2355(5) 0.4026(4) 0.44213(12)
C3_5 C 0.2268(7) 0.4400(5) 0.42153(15)
H1_5 H 0.2073 0.4748 0.4226
C4_5 C 0.2497(7) 0.4212(7) 0.39905(16)
H2_5 H 0.2465 0.4459 0.3848
C5_5 C 0.2756(7) 0.3701(8) 0.39731(18)
H3_5 H 0.2835 0.3553 0.3818
C6_5 C 0.2914(6) 0.3378(6) 0.41769(19)
H4_5 H 0.3164 0.3079 0.4164
C7_5 C 0.2677(6) 0.3524(6) 0.44042(15)
H5_5 H 0.2735 0.3288 0.4545
O3_5 O 0.0642(4) 0.1779(4) 0.69284(10)
O4_5 O 0.1508(4) 0.2907(3) 0.67870(9)
C8_5 C 0.1214(5) 0.2468(5) 0.69671(13)
C9_5 C 0.1365(7) 0.2768(7) 0.72144(18)
C10_5 C 0.1076(10) 0.2307(9) 0.74091(16)
H6_5 H 0.0782 0.1770 0.7371
C11_5 C 0.1119(12) 0.2449(12) 0.7645(2)
H7_5 H 0.0859 0.2073 0.7767
C12_5 C 0.1644(14) 0.3296(11) 0.7684(2)
H8_5 H 0.1716 0.3486 0.7844
C13_5 C 0.2021(17) 0.3808(16) 0.7508(4)
H9_5 H 0.2367 0.4339 0.7544
C14_5 C 0.1893(11) 0.3538(8) 0.72554(19)
H10_5 H 0.2166 0.3882 0.7127
O5_5 O 0.2277(3) 0.5111(2) 0.54583(8)
O6_5 O 0.2664(6) 0.5428(4) 0.58445(13)
O7_5 O 0.1749(3) 0.3667(2) 0.53197(7)
O8_5 O 0.0373(3) 0.1505(3) 0.61747(8)
O9_5 O 0.0217(4) 0.1183(3) 0.57868(10)
O10_5 O 0.1390(3) 0.2964(2) 0.63026(7)
C15_5 C 0.2328(6) 0.4921(4) 0.56799(12)
C16_5 C 0.1921(5) 0.4081(4) 0.57440(12)
C17_5 C 0.1613(3) 0.3493(3) 0.55626(10)
C18_5 C 0.1194(3) 0.2747(3) 0.56336(10)
H11_5 H 0.0969 0.2351 0.5515
C19_5 C 0.1074(3) 0.2525(3) 0.58897(10)
C20_5 C 0.1428(4) 0.3094(3) 0.60626(10)
C21_5 C 0.1824(5) 0.3895(4) 0.59806(11)
H12_5 H 0.2022 0.4300 0.6097
C22_5 C 0.0564(4) 0.1715(4) 0.59446(14)
O23_5 O 0.2702(4) 0.7860(3) 0.47005(9)
O24_5 O 0.1706(4) 0.7929(3) 0.48525(8)
C39_5 C 0.2058(6) 0.7845(5) 0.46661(11)
C40_5 C 0.1670(6) 0.7645(5) 0.44213(12)
C41_5 C 0.2131(9) 0.7732(7) 0.42153(15)
H17_5 H 0.2674 0.7927 0.4226
C42_5 C 0.1714(10) 0.7503(7) 0.39905(16)
H18_5 H 0.1993 0.7535 0.3848
C43_5 C 0.0944(11) 0.7244(7) 0.39731(18)
H19_5 H 0.0717 0.7165 0.3818
C44_5 C 0.0463(8) 0.7086(6) 0.41769(19)
C45_5 C 0.0846(8) 0.7323(6) 0.44042(15)
H21_5 H 0.0552 0.7265 0.4545
O25_5 O 0.1136(6) 0.9358(4) 0.69284(10)
O26_5 O 0.1398(5) 0.8492(4) 0.67870(9)
C46_5 C 0.1253(7) 0.8786(5) 0.69671(13)
C47_5 C 0.1402(10) 0.8635(7) 0.72144(18)
C48_5 C 0.1230(13) 0.8924(10) 0.74091(16)
H22_5 H 0.0987 0.9218 0.7371
C49_5 C 0.1329(17) 0.8881(12) 0.7645(2)
H23_5 H 0.1213 0.9141 0.7767
C50_5 C 0.1651(18) 0.8356(14) 0.7684(2)
H24_5 H 0.1769 0.8284 0.7844
C51_5 C 0.1786(23) 0.7979(17) 0.7508(4)
H25_5 H 0.1971 0.7633 0.7544
C52_5 C 0.1644(14) 0.8107(11) 0.72554(19)
H26_5 H 0.1715 0.7834 0.7127
O27_5 O 0.2833(4) 0.7723(3) 0.54583(8)
O28_5 O 0.2763(7) 0.7336(6) 0.58445(13)
O29_5 O 0.1917(4) 0.8251(3) 0.53197(7)
O30_5 O 0.1131(4) 0.9627(3) 0.61747(8)
O31_5 O 0.0965(5) 0.9783(4) 0.57868(10)
O32_5 O 0.1573(4) 0.8610(3) 0.63026(7)
C53_5 C 0.2592(7) 0.7672(6) 0.56799(12)
C54_5 C 0.2159(6) 0.8079(5) 0.57440(12)
C55_5 C 0.1879(4) 0.8387(3) 0.55626(10)
C56_5 C 0.1552(4) 0.8806(3) 0.56336(10)
H27_5 H 0.1381 0.9031 0.5515
C57_5 C 0.1450(4) 0.8926(3) 0.58897(10)
C58_5 C 0.1665(5) 0.8572(4) 0.60626(10)
C59_5 C 0.2070(6) 0.8176(5) 0.59806(11)
H28_5 H 0.2277 0.7978 0.6097
C60_5 C 0.1150(6) 0.9436(4) 0.59446(14)
O40_5 O 0.5157(3) 0.7298(4) 0.47005(9)
O41_5 O 0.6222(2) 0.8294(4) 0.48525(8)
O42_5 O 0.4889(2) 0.7167(4) 0.54583(8)
O43_5 O 0.6333(2) 0.8083(4) 0.53197(7)
C61_5 C 0.5786(4) 0.7942(6) 0.46661(11)
C62_5 C 0.5974(4) 0.8330(6) 0.44213(12)
C63_5 C 0.5600(5) 0.7869(9) 0.42153(15)
C64_5 C 0.6476(6) 0.9154(8) 0.44042(15)
H29_5 H 0.5252 0.7326 0.4226
C65_5 C 0.5788(7) 0.8286(10) 0.39905(16)
H30_5 H 0.5541 0.8007 0.3848
C66_5 C 0.6299(8) 0.9056(11) 0.39731(18)
H31_5 H 0.6447 0.9283 0.3818
C67_5 C 0.6622(6) 0.9537(8) 0.41769(19)
H33_5 H 0.6712 0.9448 0.4545
O47_5 O 0.8221(4) 0.8864(6) 0.69284(10)
O48_5 O 0.7093(3) 0.8602(5) 0.67870(9)
O49_5 O 0.8495(3) 0.8869(4) 0.61747(8)
O50_5 O 0.7036(2) 0.8427(4) 0.63026(7)
C68_5 C 0.7532(5) 0.8747(7) 0.69671(13)
C69_5 C 0.7232(7) 0.8598(10) 0.72144(18)
C70_5 C 0.7693(9) 0.8770(13) 0.74091(16)
C71_5 C 0.6462(8) 0.8356(14) 0.72554(19)
H34_5 H 0.8230 0.9013 0.7371
C72_5 C 0.7551(12) 0.8671(17) 0.7645(2)
H35_5 H 0.7927 0.8787 0.7767
C73_5 C 0.6704(11) 0.8349(18) 0.7684(2)
H36_5 H 0.6514 0.8231 0.7844
C74_5 C 0.6192(16) 0.8214(23) 0.7508(4)
H37_5 H 0.5661 0.8029 0.7544
H38_5 H 0.6118 0.8285 0.7127
C75_5 C 0.5079(4) 0.7408(7) 0.56799(12)
O54_5 O 0.4572(4) 0.7237(7) 0.58445(13)
C76_5 C 0.6507(3) 0.8121(4) 0.55626(10)
C77_5 C 0.8285(4) 0.8850(6) 0.59446(14)
O55_5 O 0.8817(3) 0.9035(5) 0.57868(10)
C78_5 C 0.6906(3) 0.8335(5) 0.60626(10)
C79_5 C 0.5919(4) 0.7841(6) 0.57440(12)
C80_5 C 0.6105(4) 0.7930(6) 0.59806(11)
C81_5 C 0.7253(3) 0.8448(4) 0.56336(10)
H39_5 H 0.7649 0.8619 0.5515
C82_5 C 0.7475(3) 0.8550(4) 0.58897(10)
H40_5 H 0.5700 0.7723 0.6097
H20_5 H 0.9914 0.6836 0.4164
H32_6 H 0.0255 0.6752 0.0830
H33_6 H 0.0046 0.6114 0.1211
O47_6 O 0.1555(4) 0.5530(6) 0.35950(10)
O48_6 O 0.0427(3) 0.5268(5) 0.34536(9)
O49_6 O 0.1829(3) 0.5535(4) 0.28413(8)
O50_6 O 0.0370(2) 0.5093(4) 0.29692(7)
C68_6 C 0.0866(5) 0.5413(7) 0.36337(13)
C69_6 C 0.0566(7) 0.5264(10) 0.38810(18)
C70_6 C 0.1027(9) 0.5436(13) 0.40757(16)
H34_6 H 0.1564 0.5679 0.4037
C72_6 C 0.0885(12) 0.5337(17) 0.4311(2)
H35_6 H 0.1261 0.5453 0.4433
C73_6 C 0.0038(11) 0.5015(18) 0.4350(2)
C77_6 C 0.1619(4) 0.5516(6) 0.26112(14)
O55_6 O 0.2151(3) 0.5701(5) 0.24534(10)
C78_6 C 0.0240(3) 0.5001(5) 0.27292(10)
C81_6 C 0.0587(3) 0.5114(4) 0.23002(10)
H39_6 H 0.0983 0.5285 0.2181
C82_6 C 0.0809(3) 0.5216(4) 0.25563(10)
O1_6 O 0.5474(3) 0.1509(3) 0.13671(9)
O2_6 O 0.5405(3) 0.0444(2) 0.15191(8)
C1_6 C 0.5489(5) 0.0880(4) 0.13327(11)
C2_6 C 0.5689(5) 0.0692(4) 0.10879(12)
C3_6 C 0.5602(7) 0.1066(5) 0.08819(15)
H1_6 H 0.5407 0.1414 0.0892
C4_6 C 0.5831(7) 0.0878(7) 0.06571(16)
H2_6 H 0.5799 0.1125 0.0514
C5_6 C 0.6090(7) 0.0367(8) 0.06397(18)
H3_6 H 0.6169 0.0219 0.0484
C6_6 C 0.6248(6) 0.0044(6) 0.08435(19)
C7_6 C 0.6011(6) 0.0190(6) 0.10708(15)
H8_6 H 0.5050 0.0152 0.4510
C13_6 C 0.5355(17) 0.0474(16) 0.4174(4)
H9_6 H 0.5701 0.1005 0.4210
C14_6 C 0.5227(11) 0.0204(8) 0.39220(19)
H10_6 H 0.5500 0.0548 0.3793
O5_6 O 0.5611(3) 0.1777(2) 0.21249(8)
O6_6 O 0.5998(6) 0.2094(4) 0.25111(13)
O7_6 O 0.5083(3) 0.0333(2) 0.19863(7)
C15_6 C 0.5662(6) 0.1587(4) 0.23465(12)
C16_6 C 0.5255(5) 0.0747(4) 0.24106(12)
C17_6 C 0.4947(3) 0.0159(3) 0.22292(10)
C21_6 C 0.5158(5) 0.0561(4) 0.26472(11)
H12_6 H 0.5356 0.0966 0.2763
O23_6 O 0.6036(4) 0.4526(3) 0.13671(9)
O24_6 O 0.5040(4) 0.4595(3) 0.15191(8)
C39_6 C 0.5392(6) 0.4511(5) 0.13327(11)
C40_6 C 0.5004(6) 0.4311(5) 0.10879(12)
C41_6 C 0.5465(9) 0.4398(7) 0.08819(15)
H17_6 H 0.6008 0.4593 0.0892
C42_6 C 0.5048(10) 0.4169(7) 0.06571(16)
H18_6 H 0.5327 0.4201 0.0514
C43_6 C 0.4278(11) 0.3910(7) 0.06397(18)
H19_6 H 0.4051 0.3831 0.0484
C44_6 C 0.3797(8) 0.3752(6) 0.08435(19)
H20_6 H 0.3248 0.3502 0.0830
C45_6 C 0.4180(8) 0.3989(6) 0.10708(15)
H21_6 H 0.3886 0.3931 0.1211
O25_6 O 0.4470(6) 0.6024(4) 0.35950(10)
O26_6 O 0.4732(5) 0.5158(4) 0.34536(9)
C46_6 C 0.4587(7) 0.5452(5) 0.36337(13)
C47_6 C 0.4736(10) 0.5301(7) 0.38810(18)
C48_6 C 0.4564(13) 0.5590(10) 0.40757(16)
H22_6 H 0.4321 0.5884 0.4037
C49_6 C 0.4663(17) 0.5547(12) 0.4311(2)
H23_6 H 0.4547 0.5807 0.4433
C50_6 C 0.4985(18) 0.5022(14) 0.4350(2)
H24_6 H 0.5103 0.4950 0.4510
C51_6 C 0.5120(23) 0.4645(17) 0.4174(4)
H25_6 H 0.5305 0.4299 0.4210
C52_6 C 0.4978(14) 0.4773(11) 0.39220(19)
H26_6 H 0.5049 0.4500 0.3793
O27_6 O 0.6167(4) 0.4389(3) 0.21249(8)
O28_6 O 0.6097(7) 0.4002(6) 0.25111(13)
O29_6 O 0.5251(4) 0.4917(3) 0.19863(7)
O30_6 O 0.4465(4) 0.6293(3) 0.28413(8)
O31_6 O 0.4299(5) 0.6449(4) 0.24534(10)
O32_6 O 0.4907(4) 0.5276(3) 0.29692(7)
C53_6 C 0.5926(7) 0.4338(6) 0.23465(12)
C54_6 C 0.5493(6) 0.4745(5) 0.24106(12)
C55_6 C 0.5213(4) 0.5053(3) 0.22292(10)
C56_6 C 0.4886(4) 0.5472(3) 0.23002(10)
H27_6 H 0.4715 0.5697 0.2181
C57_6 C 0.4784(4) 0.5592(3) 0.25563(10)
C58_6 C 0.4999(5) 0.5238(4) 0.27292(10)
C59_6 C 0.5404(6) 0.4842(5) 0.26472(11)
H28_6 H 0.5611 0.4644 0.2763
C60_6 C 0.4484(6) 0.6102(4) 0.26112(14)
O40_6 O 0.8491(3) 0.3964(4) 0.13671(9)
O41_6 O 0.9556(2) 0.4960(4) 0.15191(8)
O42_6 O 0.8223(2) 0.3833(4) 0.21249(8)
O43_6 O 0.9667(2) 0.4749(4) 0.19863(7)
C61_6 C 0.9120(4) 0.4608(6) 0.13327(11)
C62_6 C 0.9308(4) 0.4996(6) 0.10879(12)
C63_6 C 0.8934(5) 0.4535(9) 0.08819(15)
C64_6 C 0.9810(6) 0.5820(8) 0.10708(15)
H29_6 H 0.8586 0.3992 0.0892
C65_6 C 0.9122(7) 0.4952(10) 0.06571(16)
H30_6 H 0.8875 0.4673 0.0514
C66_6 C 0.9633(8) 0.5722(11) 0.06397(18)
H31_6 H 0.9781 0.5949 0.0484
C67_6 C 0.9956(6) 0.6203(8) 0.08435(19)
C71_6 C 0.9796(8) 0.5022(14) 0.39220(19)
H36_6 H 0.9848 0.4897 0.4510
C74_6 C 0.9526(16) 0.4880(23) 0.4174(4)
H37_6 H 0.8995 0.4695 0.4210
H38_6 H 0.9452 0.4951 0.3793
C75_6 C 0.8413(4) 0.4074(7) 0.23465(12)
O54_6 O 0.7906(4) 0.3903(7) 0.25111(13)
C76_6 C 0.9841(3) 0.4787(4) 0.22292(10)
C79_6 C 0.9253(4) 0.4507(6) 0.24106(12)
C80_6 C 0.9439(4) 0.4596(6) 0.26472(11)
H40_6 H 0.9034 0.4389 0.2763
H4_6 H 0.6498 0.9745 0.0830
H5_6 H 0.6069 0.9954 0.1211
O3_6 O 0.3976(4) 0.8445(4) 0.35950(10)
O4_6 O 0.4842(4) 0.9573(3) 0.34536(9)
C8_6 C 0.4548(5) 0.9134(5) 0.36337(13)
C9_6 C 0.4699(7) 0.9434(7) 0.38810(18)
C10_6 C 0.4410(10) 0.8973(9) 0.40757(16)
H6_6 H 0.4116 0.8436 0.4037
C11_6 C 0.4453(12) 0.9115(12) 0.4311(2)
H7_6 H 0.4193 0.8739 0.4433
C12_6 C 0.4978(14) 0.9962(11) 0.4350(2)
O8_6 O 0.3707(3) 0.8171(3) 0.28413(8)
O9_6 O 0.3551(4) 0.7849(3) 0.24534(10)
O10_6 O 0.4724(3) 0.9630(2) 0.29692(7)
C18_6 C 0.4528(3) 0.9413(3) 0.23002(10)
H11_6 H 0.4303 0.9017 0.2181
C19_6 C 0.4408(3) 0.9191(3) 0.25563(10)
C20_6 C 0.4762(4) 0.9760(3) 0.27292(10)
C22_6 C 0.3898(4) 0.8381(4) 0.26112(14)
O70 O 0.0000 0.0000 0.1191(2)
O70_2 O -0.0000 1.0000 0.1191(2)
H61 H 0.050465 1 0.1191
H62 H 0.0406111 0.993032 0.110592
O70_3 O 1.0000 0.0000 0.1191(2)
H61_2 H 1 0.050465 0.1191
H63 H 0.993032 0.0406111 0.110592
O70_4 O 1.0000 1.0000 0.1191(2)
O70_5 O 0.6667 0.3333 0.4524(2)
O70_6 O 0.3333 0.6667 0.7858(2)
O70_7 O -0.0000 -0.0000 0.8809(2)
O70_8 O -0.0000 1.0000 0.8809(2)
H61_3 H -2.40859e-17 0.949535 0.8809
H63_2 H 0.00696776 0.959389 0.889408
O70_9 O 1.0000 -0.0000 0.8809(2)
H61_4 H 0.949535 -4.93038e-32 0.8809
H62_2 H 0.959389 0.00696776 0.889408
O70_10 O 1.0000 1.0000 0.8809(2)
O70_11 O 0.3333 0.6667 0.5476(2)
O70_12 O 0.6667 0.3333 0.2142(2)
O71 O 0.3333 0.6667 0.0525(2)
O71_2 O -0.0000 0.0000 0.3858(2)
H55 H 0.0504317 3.33333e-05 0.385833
H56 H 0.00693443 0.0476122 0.377325
O71_3 O -0.0000 1.0000 0.3858(2)
H55_2 H 0.0504317 1.00003 0.385833
H56_2 H 0.0406778 0.993066 0.377325
O71_4 O 1.0000 0.0000 0.3858(2)
O71_5 O 1.0000 1.0000 0.3858(2)
H57 H 0.959356 0.952454 0.377325
H56_3 H 0.952388 0.959322 0.377325
H55_3 H -3.33333e-05 0.0503983 0.385833
H57_2 H 0.0475455 0.0069011 0.377325
H55_4 H 0.999967 0.0503983 0.385833
H57_3 H 0.993099 0.0406444 0.377325
H55_5 H 0.949602 0.949568 0.385833
O71_6 O 0.6666 0.3334 0.7192(2)
O71_7 O 0.6667 0.3333 0.9475(2)
O71_8 O 0.0000 -0.0000 0.6142(2)
H57_4 H 0.0406444 0.0475455 0.622675
H56_4 H 0.0476122 0.0406778 0.622675
O71_9 O 0.0000 1.0000 0.6142(2)
O71_10 O 1.0000 -0.0000 0.6142(2)
H55_6 H 0.949568 -3.33333e-05 0.614167
H56_5 H 0.959322 0.00693443 0.622675
O71_11 O 1.0000 1.0000 0.6142(2)
H55_7 H 0.949568 0.999967 0.614167
H56_6 H 0.993066 0.952388 0.622675
H55_8 H 3.33333e-05 0.949602 0.614167
H55_9 H 1.00003 0.949602 0.614167
H57_5 H 0.952454 0.993099 0.622675
H55_10 H 0.0503983 0.0504317 0.614167
H57_6 H 0.0069011 0.959356 0.622675
O71_12 O 0.3334 0.6666 0.2808(2)
O72 O 0.3333 0.6667 0.9659(3)
O72_2 O -0.0000 0.0000 0.2992(3)
H64 H 0.0504317 3.33333e-05 0.299233
H65 H 0.00693443 0.0476122 0.290725
O72_3 O -0.0000 1.0000 0.2992(3)
H64_2 H 0.0504317 1.00003 0.299233
H65_2 H 0.0406778 0.993066 0.290725
O72_4 O 1.0000 0.0000 0.2992(3)
O72_5 O 1.0000 1.0000 0.2992(3)
H66 H 0.959356 0.952454 0.290725
H65_3 H 0.952388 0.959322 0.290725
H64_3 H -3.33333e-05 0.0503983 0.299233
H66_2 H 0.0475455 0.0069011 0.290725
H64_4 H 0.999967 0.0503983 0.299233
H66_3 H 0.993099 0.0406444 0.290725
H64_5 H 0.949602 0.949568 0.299233
O72_6 O 0.6666 0.3334 0.6326(3)
O72_7 O 0.6667 0.3333 0.0341(3)
O72_8 O 0.0000 -0.0000 0.7008(3)
H66_4 H 0.0406444 0.0475455 0.709275
H65_4 H 0.0476122 0.0406778 0.709275
O72_9 O 0.0000 1.0000 0.7008(3)
O72_10 O 1.0000 -0.0000 0.7008(3)
H64_6 H 0.949568 -3.33333e-05 0.700767
H65_5 H 0.959322 0.00693443 0.709275
O72_11 O 1.0000 1.0000 0.7008(3)
H64_7 H 0.949568 0.999967 0.700767
H65_6 H 0.993066 0.952388 0.709275
H64_8 H 3.33333e-05 0.949602 0.700767
H64_9 H 1.00003 0.949602 0.700767
H66_5 H 0.952454 0.993099 0.709275
H64_10 H 0.0503983 0.0504317 0.700767
H66_6 H 0.0069011 0.959356 0.709275
O72_12 O 0.3334 0.6666 0.3674(3)
O73 O -0.0000 -0.0000 0.2047(5)
O73_2 O -0.0000 1.0000 0.2047(5)
H67 H 0.050465 1 0.2047
H68 H 0.0406111 0.993032 0.196192
O73_3 O 1.0000 -0.0000 0.2047(5)
H67_2 H 1 0.050465 0.2047
H69 H 0.993032 0.0406111 0.196192
O73_4 O 1.0000 1.0000 0.2047(5)
O73_5 O 0.6667 0.3333 0.5380(5)
O73_6 O 0.3333 0.6667 0.8714(5)
O73_7 O 0.0000 0.0000 0.7953(5)
O73_8 O 0.0000 1.0000 0.7953(5)
H67_3 H 5.22566e-18 0.949535 0.7953
H69_2 H 0.00696776 0.959389 0.803808
O73_9 O 1.0000 0.0000 0.7953(5)
H67_4 H 0.949535 4.93038e-32 0.7953
H68_2 H 0.959389 0.00696776 0.803808
O73_10 O 1.0000 1.0000 0.7953(5)
O73_11 O 0.3333 0.6667 0.4620(5)
O73_12 O 0.6667 0.3333 0.1286(5)
O74 O 0.3333 0.6667 0.1667
O74_2 O -0.0000 0.0000 0.5000
O74_3 O -0.0000 1.0000 0.5000
H52 H 0.0504317 1.00003 0.500033
H53 H 0.0406778 0.993066 0.491525
O74_4 O 1.0000 0.0000 0.5000
H52_2 H 0.949568 -3.33333e-05 0.499967
H53_2 H 0.959322 0.00693443 0.508475
O74_5 O 1.0000 1.0000 0.5000
H52_3 H -3.33333e-05 0.0503983 0.500033
H54 H 0.0475455 0.0069011 0.491525
H52_4 H 0.999967 0.0503983 0.500033
H54_2 H 0.993099 0.0406444 0.491525
H52_5 H 0.949602 0.949568 0.500033
O74_6 O 0.6666 0.3334 0.8334
H52_6 H 3.33333e-05 0.949602 0.499967
H52_7 H 1.00003 0.949602 0.499967
H54_3 H 0.952454 0.993099 0.508475
H52_8 H 0.0503983 0.0504317 0.499967
H54_4 H 0.0069011 0.959356 0.508475
O75 O 0.0000 0.0000 0.0491(3)
O75_2 O -0.0000 1.0000 0.0491(3)
H58 H 0.050465 1 0.0491
H59 H 0.0406111 0.993032 0.0405919
O75_3 O 1.0000 0.0000 0.0491(3)
H58_2 H 1 0.050465 0.0491
H60 H 0.993032 0.0406111 0.0405919
O75_4 O 1.0000 1.0000 0.0491(3)
O75_5 O 0.6667 0.3333 0.3824(3)
O75_6 O 0.3333 0.6667 0.7158(3)
O75_7 O -0.0000 0.0000 0.9509(3)
O75_8 O 0.0000 1.0000 0.9509(3)
H58_3 H 6.29667e-17 0.949535 0.9509
H60_2 H 0.00696776 0.959389 0.959408
O75_9 O 1.0000 0.0000 0.9509(3)
H58_4 H 0.949535 0 0.9509
H59_2 H 0.959389 0.00696776 0.959408
O75_10 O 1.0000 1.0000 0.9509(3)
O75_11 O 0.3333 0.6667 0.6176(3)
O75_12 O 0.6667 0.3333 0.2842(3)
O76 O -0.0000 0.0000 0.2463(5)
O76_2 O -0.0000 1.0000 0.2463(5)
H49 H 0.050465 1 0.2463
H50 H 0.0406111 0.993032 0.237792
O76_3 O 1.0000 0.0000 0.2463(5)
H49_2 H 1 0.050465 0.2463
H51 H 0.993032 0.0406111 0.237792
O76_4 O 1.0000 1.0000 0.2463(5)
O76_5 O 0.6667 0.3333 0.5796(5)
O76_6 O 0.3333 0.6667 0.9130(5)
O76_7 O 0.0000 0.0000 0.7537(5)
O76_8 O -0.0000 1.0000 0.7537(5)
H49_3 H -3.60406e-17 0.949535 0.7537
H51_2 H 0.00696776 0.959389 0.762208
O76_9 O 1.0000 0.0000 0.7537(5)
H49_4 H 0.949535 4.93038e-32 0.7537
H50_2 H 0.959389 0.00696776 0.762208
O76_10 O 1.0000 1.0000 0.7537(5)
O76_11 O 0.3333 0.6667 0.4204(5)
O76_12 O 0.6667 0.3333 0.0870(5)
loop_
_geom_bond_atom_site_label_1
_geom_bond_atom_site_label_2
_geom_bond_site_symmetry_1
_geom_bond_site_symmetry_2
Hf1 O1 1_555 1_555
O1 C1 1_555 1_555
O2 Hf1 1_555 1_555
C1 O2 1_555 1_555
C2 C1 1_555 1_555
C3 C2 1_555 1_555
H1 C3 1_555 1_555
C4 C3 1_555 1_555
H2 C4 1_555 1_555
C5 C4 1_555 1_555
H3 C5 1_555 1_555
C6 C5 1_555 1_555
H4 C6 1_555 1_555
C7 C2 1_555 1_555
H5 C7 1_555 1_555
O5 Hf1 1_555 1_555
O6 C15 1_555 1_555
O7 Hf1 1_555 1_555
O8 Hf2 1_555 1_555
O9 C22 1_555 1_555
O10 Hf2 1_555 1_555
C15 O5 1_555 1_555
C16 C15 1_555 1_555
C17 O7 1_555 1_555
C18 C17 1_555 1_555
H11 C18 1_555 1_555
C19 C18 1_555 1_555
C20 O10 1_555 1_555
C21 C16 1_555 1_555
H12 C21 1_555 1_555
C22 O8 1_555 1_555
O11 Hf1 1_555 1_555
O12 Hf1 1_555 1_555
C23 O11 1_555 1_555
C24 C23 1_555 1_555
C25 O12 1_555 1_555
C26 C25 1_555 1_555
H13 C26 1_555 1_555
O14 Hf2 1_555 1_555
O15 Hf2 1_555 1_555
O16 C27 1_555 1_555
C27 O14 1_555 1_555
C28 C27 1_555 1_555
C29 O15 1_555 1_555
O17 C31 1_555 1_555
O18 C33 1_555 1_555
O19 C31 1_555 1_555
C31 C32 1_555 1_555
C32 C26 1_555 1_555
C33 C32 1_555 1_555
C34 C24 1_555 1_555
H15 C34 1_555 1_555
C38 C29 1_555 1_555
H16 C38 1_555 1_555
Hf5 O17 1_555 1_555
Hf6 O19 1_555 1_555
Hf7 O16 1_555 1_555
O35 Hf1 1_555 1_555
O39 Hf2 1_555 1_555
C6 C7 1_555 1_555
C16 C17 1_555 1_555
C19 C20 1_555 1_555
C19 C22 1_555 1_555
C20 C21 1_555 1_555
C24 C25 1_555 1_555
C28 C29 1_555 1_555
O18 Hf5 1_555 1_555
C33 C34 1_555 1_555
O3 C8 1_555 1_555
C8 O4 1_555 1_555
C9 C8 1_555 1_555
C10 C9 1_555 1_555
H6 C10 1_555 1_555
C11 C10 1_555 1_555
H7 C11 1_555 1_555
C12 C11 1_555 1_555
H8 C12 1_555 1_555
C13 C12 1_555 1_555
H9 C13 1_555 1_555
C14 C9 1_555 1_555
H10 C14 1_555 1_555
H14 C30 1_555 1_555
O20 C35 1_555 1_555
O21 C37 1_555 1_555
O22 C35 1_555 1_555
C35 C36 1_555 1_555
C36 C37 1_555 1_555
C37 C30 1_555 1_555
Hf8 O20 1_555 1_555
Hf9 O22 1_555 1_555
C13 C14 1_555 1_555
O21 Hf8 1_555 1_555
Hf3 O13 1_555 1_555
O23 Hf3 1_555 1_555
O24 Hf3 1_555 1_555
C39 O23 1_555 1_555
C40 C39 1_555 1_555
C41 C40 1_555 1_555
H17 C41 1_555 1_555
C42 C41 1_555 1_555
H18 C42 1_555 1_555
C43 C42 1_555 1_555
H19 C43 1_555 1_555
C44 C43 1_555 1_555
H20 C44 1_555 1_555
C45 C40 1_555 1_555
H21 C45 1_555 1_555
O27 Hf3 1_555 1_555
O28 C53 1_555 1_555
O29 Hf3 1_555 1_555
O30 Hf4 1_555 1_555
O31 C60 1_555 1_555
O32 Hf4 1_555 1_555
C53 O27 1_555 1_555
C54 C53 1_555 1_555
C55 O29 1_555 1_555
C56 C55 1_555 1_555
H27 C56 1_555 1_555
C57 C56 1_555 1_555
C58 O32 1_555 1_555
C59 C54 1_555 1_555
H28 C59 1_555 1_555
C60 O30 1_555 1_555
O36 Hf4 1_555 1_555
O37 Hf4 1_555 1_555
O38 Hf4 1_555 1_555
C105 O36 1_555 1_555
C106 O37 1_555 1_555
O39 C105 1_555 1_555
C107 C105 1_555 1_555
O24 C39 1_555 1_555
C44 C45 1_555 1_555
C54 C55 1_555 1_555
C57 C58 1_555 1_555
C57 C60 1_555 1_555
C58 C59 1_555 1_555
C106 C107 1_555 1_555
O25 C46 1_555 1_555
C46 O26 1_555 1_555
C47 C46 1_555 1_555
C48 C47 1_555 1_555
H22 C48 1_555 1_555
C49 C48 1_555 1_555
H23 C49 1_555 1_555
C50 C49 1_555 1_555
H24 C50 1_555 1_555
C51 C50 1_555 1_555
H25 C51 1_555 1_555
C52 C47 1_555 1_555
H26 C52 1_555 1_555
H46 C108 1_555 1_555
C51 C52 1_555 1_555
C84 O45 1_555 1_555
C85 C83 1_555 1_555
C86 C85 1_555 1_555
C87 C84 1_555 1_555
H41 C87 1_555 1_555
C88 C87 1_555 1_555
O57 C95 1_555 1_555
C95 C88 1_555 1_555
Hf13 O57 1_555 1_555
O58 Hf13 1_555 1_555
C96 C86 1_555 1_555
O59 C95 1_555 1_555
Hf5 O59 1_555 1_555
H43 C86 1_555 1_555
H44 C93 1_555 1_555
O44 C83 1_555 1_555
C84 C85 1_555 1_555
C88 C96 1_555 1_555
O58 C96 1_555 1_555
O60 C97 1_555 1_555
C97 O62 1_555 1_555
Hf9 O60 1_555 1_555
O61 C94 1_555 1_555
O62 Hf16 1_555 1_555
C94 C98 1_555 1_555
C97 C98 1_555 1_555
Hf9 O61 1_555 1_555
Hf10 O40 1_555 1_555
O40 C61 1_555 1_555
O41 Hf10 1_555 1_555
O42 Hf10 1_555 1_555
O43 Hf10 1_555 1_555
O46 Hf10 1_555 1_555
C61 O41 1_555 1_555
C62 C61 1_555 1_555
C63 C62 1_555 1_555
C64 C62 1_555 1_555
H29 C63 1_555 1_555
C65 C63 1_555 1_555
H30 C65 1_555 1_555
C66 C65 1_555 1_555
H31 C66 1_555 1_555
C67 C64 1_555 1_555
H32 C67 1_555 1_555
H33 C64 1_555 1_555
O49 Hf7 1_555 1_555
O50 Hf7 1_555 1_555
O51 Hf7 1_555 1_555
O52 Hf7 1_555 1_555
C75 O42 1_555 1_555
O54 C75 1_555 1_555
C76 O43 1_555 1_555
C77 O49 1_555 1_555
O55 C77 1_555 1_555
C78 O50 1_555 1_555
C79 C75 1_555 1_555
C80 C78 1_555 1_555
C81 C76 1_555 1_555
H39 C81 1_555 1_555
C82 C77 1_555 1_555
H40 C80 1_555 1_555
C89 O51 1_555 1_555
C90 O52 1_555 1_555
O38 C89 1_555 1_555
C91 C89 1_555 1_555
C99 O33 1_555 1_555
C100 O34 1_555 1_555
C101 C99 1_555 1_555
C102 C101 1_555 1_555
C103 C100 1_555 1_555
H45 C103 1_555 1_555
C104 C103 1_555 1_555
O64 C111 1_555 1_555
C111 C104 1_555 1_555
Hf6 O64 1_555 1_555
O65 Hf6 1_555 1_555
C112 C102 1_555 1_555
O66 C111 1_555 1_555
Hf13 O66 1_555 1_555
H47 C102 1_555 1_555
H48 C109 1_555 1_555
O46 C99 1_555 1_555
C66 C67 1_555 1_555
C76 C79 1_555 1_555
C78 C82 1_555 1_555
C79 C80 1_555 1_555
C81 C82 1_555 1_555
C90 C91 1_555 1_555
C100 C101 1_555 1_555
C104 C112 1_555 1_555
O65 C112 1_555 1_555
O47 C68 1_555 1_555
C68 O48 1_555 1_555
C69 C68 1_555 1_555
C70 C69 1_555 1_555
C71 C69 1_555 1_555
H34 C70 1_555 1_555
C72 C70 1_555 1_555
H35 C72 1_555 1_555
C73 C72 1_555 1_555
H36 C73 1_555 1_555
C74 C71 1_555 1_555
H37 C74 1_555 1_555
H38 C71 1_555 1_555
H42 C92 1_555 1_555
O67 C113 1_555 1_555
C113 O69 1_555 1_555
Hf16 O67 1_555 1_555
O68 C110 1_555 1_555
O69 Hf8 1_555 1_555
C73 C74 1_555 1_555
C110 C114 1_555 1_555
C113 C114 1_555 1_555
Hf16 O68 1_555 1_555
Hf7_2 O16_2 1_555 1_555
H13_2 C26_2 1_555 1_555
C27_2 O14_2 1_555 1_555
C28_2 C27_2 1_555 1_555
C29_2 O15_2 1_555 1_555
C30_2 C28_2 1_555 1_555
H14_2 C30_2 1_555 1_555
O17_2 C31_2 1_555 1_555
O18_2 C33_2 1_555 1_555
O19_2 C31_2 1_555 1_555
C31_2 C32_2 1_555 1_555
C32_2 C26_2 1_555 1_555
C33_2 C32_2 1_555 1_555
O20_2 C35_2 1_555 1_555
O21_2 C37_2 1_555 1_555
O22_2 C35_2 1_555 1_555
C35_2 C36_2 1_555 1_555
C36_2 C37_2 1_555 1_555
C37_2 C30_2 1_555 1_555
C38_2 C29_2 1_555 1_555
H16_2 C38_2 1_555 1_555
Hf5_2 O17_2 1_555 1_555
Hf6_2 O19_2 1_555 1_555
Hf8_2 O20_2 1_555 1_555
Hf9_2 O22_2 1_555 1_555
C28_2 C29_2 1_555 1_555
O18_2 Hf5_2 1_555 1_555
O21_2 Hf8_2 1_555 1_555
C36_2 C38_2 1_555 1_555
Hf1_2 O1_2 1_555 1_555
O1_2 C1_2 1_555 1_555
O2_2 Hf1_2 1_555 1_555
C1_2 O2_2 1_555 1_555
C2_2 C1_2 1_555 1_555
C3_2 C2_2 1_555 1_555
H1_2 C3_2 1_555 1_555
C4_2 C3_2 1_555 1_555
H2_2 C4_2 1_555 1_555
C5_2 C4_2 1_555 1_555
H3_2 C5_2 1_555 1_555
C6_2 C5_2 1_555 1_555
H4_2 C6_2 1_555 1_555
C7_2 C2_2 1_555 1_555
H5_2 C7_2 1_555 1_555
Hf2_2 O3_2 1_555 1_555
O3_2 C8_2 1_555 1_555
O4_2 Hf2_2 1_555 1_555
C8_2 O4_2 1_555 1_555
C9_2 C8_2 1_555 1_555
C10_2 C9_2 1_555 1_555
H6_2 C10_2 1_555 1_555
C11_2 C10_2 1_555 1_555
H7_2 C11_2 1_555 1_555
C12_2 C11_2 1_555 1_555
H8_2 C12_2 1_555 1_555
C13_2 C12_2 1_555 1_555
H9_2 C13_2 1_555 1_555
C14_2 C9_2 1_555 1_555
H10_2 C14_2 1_555 1_555
O5_2 Hf1_2 1_555 1_555
O6_2 C15_2 1_555 1_555
O7_2 Hf1_2 1_555 1_555
O8_2 Hf2_2 1_555 1_555
O9_2 C22_2 1_555 1_555
O10_2 Hf2_2 1_555 1_555
C15_2 O5_2 1_555 1_555
C16_2 C15_2 1_555 1_555
C17_2 O7_2 1_555 1_555
C18_2 C17_2 1_555 1_555
H11_2 C18_2 1_555 1_555
C19_2 C18_2 1_555 1_555
C20_2 O10_2 1_555 1_555
C21_2 C16_2 1_555 1_555
H12_2 C21_2 1_555 1_555
C22_2 O8_2 1_555 1_555
O11_2 Hf1_2 1_555 1_555
O12_2 Hf1_2 1_555 1_555
O13_2 C23_2 1_555 1_555
C23_2 O11_2 1_555 1_555
C24_2 C23_2 1_555 1_555
C25_2 O12_2 1_555 1_555
C34_2 C24_2 1_555 1_555
H15_2 C34_2 1_555 1_555
Hf3_2 O13_2 1_555 1_555
O23_2 Hf3_2 1_555 1_555
O24_2 Hf3_2 1_555 1_555
C39_2 O23_2 1_555 1_555
C40_2 C39_2 1_555 1_555
C41_2 C40_2 1_555 1_555
H17_2 C41_2 1_555 1_555
C42_2 C41_2 1_555 1_555
H18_2 C42_2 1_555 1_555
C43_2 C42_2 1_555 1_555
H19_2 C43_2 1_555 1_555
C44_2 C43_2 1_555 1_555
C45_2 C40_2 1_555 1_555
H21_2 C45_2 1_555 1_555
Hf4_2 O25_2 1_555 1_555
O25_2 C46_2 1_555 1_555
O26_2 Hf4_2 1_555 1_555
C46_2 O26_2 1_555 1_555
C47_2 C46_2 1_555 1_555
C48_2 C47_2 1_555 1_555
H22_2 C48_2 1_555 1_555
C49_2 C48_2 1_555 1_555
H23_2 C49_2 1_555 1_555
C50_2 C49_2 1_555 1_555
H24_2 C50_2 1_555 1_555
C51_2 C50_2 1_555 1_555
H25_2 C51_2 1_555 1_555
C52_2 C47_2 1_555 1_555
H26_2 C52_2 1_555 1_555
O27_2 Hf3_2 1_555 1_555
O28_2 C53_2 1_555 1_555
O29_2 Hf3_2 1_555 1_555
O30_2 Hf4_2 1_555 1_555
O31_2 C60_2 1_555 1_555
O32_2 Hf4_2 1_555 1_555
C53_2 O27_2 1_555 1_555
C54_2 C53_2 1_555 1_555
C55_2 O29_2 1_555 1_555
C56_2 C55_2 1_555 1_555
H27_2 C56_2 1_555 1_555
C57_2 C56_2 1_555 1_555
C58_2 O32_2 1_555 1_555
C59_2 C54_2 1_555 1_555
H28_2 C59_2 1_555 1_555
C60_2 O30_2 1_555 1_555
O33_2 Hf3_2 1_555 1_555
O34_2 Hf3_2 1_555 1_555
O35_2 Hf1_2 1_555 1_555
O38_2 Hf4_2 1_555 1_555
O39_2 Hf2_2 1_555 1_555
Hf10_2 O40_2 1_555 1_555
O40_2 C61_2 1_555 1_555
O41_2 Hf10_2 1_555 1_555
O42_2 Hf10_2 1_555 1_555
O43_2 Hf10_2 1_555 1_555
O44_2 Hf10_2 1_555 1_555
O45_2 Hf10_2 1_555 1_555
O46_2 Hf10_2 1_555 1_555
C61_2 O41_2 1_555 1_555
C62_2 C61_2 1_555 1_555
C63_2 C62_2 1_555 1_555
C64_2 C62_2 1_555 1_555
H29_2 C63_2 1_555 1_555
C65_2 C63_2 1_555 1_555
H30_2 C65_2 1_555 1_555
C66_2 C65_2 1_555 1_555
H31_2 C66_2 1_555 1_555
C67_2 C64_2 1_555 1_555
H33_2 C64_2 1_555 1_555
Hf7_2 O47_2 1_555 1_555
O47_2 C68_2 1_555 1_555
O48_2 Hf7_2 1_555 1_555
O49_2 Hf7_2 1_555 1_555
O50_2 Hf7_2 1_555 1_555
O51_2 Hf7_2 1_555 1_555
O52_2 Hf7_2 1_555 1_555
C68_2 O48_2 1_555 1_555
C69_2 C68_2 1_555 1_555
C70_2 C69_2 1_555 1_555
C71_2 C69_2 1_555 1_555
H34_2 C70_2 1_555 1_555
C72_2 C70_2 1_555 1_555
H35_2 C72_2 1_555 1_555
C73_2 C72_2 1_555 1_555
H36_2 C73_2 1_555 1_555
C74_2 C71_2 1_555 1_555
H37_2 C74_2 1_555 1_555
H38_2 C71_2 1_555 1_555
C75_2 O42_2 1_555 1_555
O54_2 C75_2 1_555 1_555
C76_2 O43_2 1_555 1_555
C77_2 O49_2 1_555 1_555
O55_2 C77_2 1_555 1_555
C78_2 O50_2 1_555 1_555
C79_2 C75_2 1_555 1_555
C80_2 C78_2 1_555 1_555
C81_2 C76_2 1_555 1_555
H39_2 C81_2 1_555 1_555
C82_2 C77_2 1_555 1_555
H40_2 C80_2 1_555 1_555
C83_2 O35_2 1_555 1_555
C84_2 O45_2 1_555 1_555
C85_2 C83_2 1_555 1_555
C86_2 C85_2 1_555 1_555
C87_2 C84_2 1_555 1_555
H41_2 C87_2 1_555 1_555
C88_2 C87_2 1_555 1_555
C89_2 O51_2 1_555 1_555
C90_2 O52_2 1_555 1_555
C91_2 C89_2 1_555 1_555
C92_2 C91_2 1_555 1_555
C93_2 C90_2 1_555 1_555
H42_2 C92_2 1_555 1_555
C94_2 C92_2 1_555 1_555
O57_2 C95_2 1_555 1_555
C95_2 C88_2 1_555 1_555
Hf13_2 O57_2 1_555 1_555
O58_2 Hf13_2 1_555 1_555
C96_2 C86_2 1_555 1_555
O59_2 C95_2 1_555 1_555
Hf5_2 O59_2 1_555 1_555
H43_2 C86_2 1_555 1_555
O60_2 C97_2 1_555 1_555
C97_2 O62_2 1_555 1_555
Hf9_2 O60_2 1_555 1_555
O61_2 C94_2 1_555 1_555
O62_2 Hf16_2 1_555 1_555
C98_2 C93_2 1_555 1_555
H44_2 C93_2 1_555 1_555
C99_2 O33_2 1_555 1_555
C100_2 O34_2 1_555 1_555
C101_2 C99_2 1_555 1_555
C102_2 C101_2 1_555 1_555
H47_2 C102_2 1_555 1_555
C6_2 C7_2 1_555 1_555
C13_2 C14_2 1_555 1_555
C16_2 C17_2 1_555 1_555
C19_2 C20_2 1_555 1_555
C19_2 C22_2 1_555 1_555
C20_2 C21_2 1_555 1_555
C24_2 C25_2 1_555 1_555
O24_2 C39_2 1_555 1_555
C44_2 C45_2 1_555 1_555
C51_2 C52_2 1_555 1_555
C54_2 C55_2 1_555 1_555
C57_2 C58_2 1_555 1_555
C57_2 C60_2 1_555 1_555
C58_2 C59_2 1_555 1_555
O44_2 C83_2 1_555 1_555
O46_2 C99_2 1_555 1_555
C66_2 C67_2 1_555 1_555
C73_2 C74_2 1_555 1_555
C76_2 C79_2 1_555 1_555
C78_2 C82_2 1_555 1_555
C79_2 C80_2 1_555 1_555
C81_2 C82_2 1_555 1_555
C84_2 C85_2 1_555 1_555
C88_2 C96_2 1_555 1_555
C90_2 C91_2 1_555 1_555
C94_2 C98_2 1_555 1_555
O58_2 C96_2 1_555 1_555
C97_2 C98_2 1_555 1_555
Hf9_2 O61_2 1_555 1_555
C100_2 C101_2 1_555 1_555
H45_2 C103_2 1_555 1_555
C104_2 C103_2 1_555 1_555
C105_2 O36_2 1_555 1_555
C106_2 O37_2 1_555 1_555
O39_2 C105_2 1_555 1_555
C107_2 C105_2 1_555 1_555
C108_2 C107_2 1_555 1_555
C109_2 C106_2 1_555 1_555
H46_2 C108_2 1_555 1_555
C110_2 C108_2 1_555 1_555
O64_2 C111_2 1_555 1_555
C111_2 C104_2 1_555 1_555
Hf6_2 O64_2 1_555 1_555
O65_2 Hf6_2 1_555 1_555
O66_2 C111_2 1_555 1_555
Hf13_2 O66_2 1_555 1_555
O67_2 C113_2 1_555 1_555
C113_2 O69_2 1_555 1_555
Hf16_2 O67_2 1_555 1_555
O68_2 C110_2 1_555 1_555
O69_2 Hf8_2 1_555 1_555
C114_2 C109_2 1_555 1_555
H48_2 C109_2 1_555 1_555
C104_2 C112_2 1_555 1_555
C106_2 C107_2 1_555 1_555
C110_2 C114_2 1_555 1_555
O65_2 C112_2 1_555 1_555
C113_2 C114_2 1_555 1_555
Hf16_2 O68_2 1_555 1_555
Hf2_3 O3_3 1_555 1_555
O3_3 C8_3 1_555 1_555
O4_3 Hf2_3 1_555 1_555
C8_3 O4_3 1_555 1_555
C9_3 C8_3 1_555 1_555
C10_3 C9_3 1_555 1_555
H6_3 C10_3 1_555 1_555
C11_3 C10_3 1_555 1_555
H7_3 C11_3 1_555 1_555
C12_3 C11_3 1_555 1_555
O8_3 Hf2_3 1_555 1_555
O9_3 C22_3 1_555 1_555
O10_3 Hf2_3 1_555 1_555
H11_3 C18_3 1_555 1_555
C19_3 C18_3 1_555 1_555
C20_3 O10_3 1_555 1_555
C22_3 O8_3 1_555 1_555
O14_3 Hf2_3 1_555 1_555
O15_3 Hf2_3 1_555 1_555
O16_3 C27_3 1_555 1_555
C27_3 O14_3 1_555 1_555
C28_3 C27_3 1_555 1_555
C29_3 O15_3 1_555 1_555
C30_3 C28_3 1_555 1_555
H14_3 C30_3 1_555 1_555
O20_3 C35_3 1_555 1_555
O21_3 C37_3 1_555 1_555
C35_3 C36_3 1_555 1_555
C36_3 C37_3 1_555 1_555
C37_3 C30_3 1_555 1_555
C38_3 C29_3 1_555 1_555
H16_3 C38_3 1_555 1_555
Hf6_3 O19_3 1_555 1_555
Hf7_3 O16_3 1_555 1_555
O39_3 Hf2_3 1_555 1_555
C19_3 C20_3 1_555 1_555
C19_3 C22_3 1_555 1_555
C28_3 C29_3 1_555 1_555
C36_3 C38_3 1_555 1_555
Hf1_3 O1_3 1_555 1_555
O1_3 C1_3 1_555 1_555
O2_3 Hf1_3 1_555 1_555
C1_3 O2_3 1_555 1_555
C2_3 C1_3 1_555 1_555
C3_3 C2_3 1_555 1_555
H1_3 C3_3 1_555 1_555
C4_3 C3_3 1_555 1_555
H2_3 C4_3 1_555 1_555
C5_3 C4_3 1_555 1_555
H3_3 C5_3 1_555 1_555
C6_3 C5_3 1_555 1_555
C7_3 C2_3 1_555 1_555
H9_3 C13_3 1_555 1_555
H10_3 C14_3 1_555 1_555
O5_3 Hf1_3 1_555 1_555
O6_3 C15_3 1_555 1_555
O7_3 Hf1_3 1_555 1_555
C15_3 O5_3 1_555 1_555
C16_3 C15_3 1_555 1_555
C17_3 O7_3 1_555 1_555
C21_3 C16_3 1_555 1_555
H12_3 C21_3 1_555 1_555
O11_3 Hf1_3 1_555 1_555
O12_3 Hf1_3 1_555 1_555
O13_3 C23_3 1_555 1_555
C23_3 O11_3 1_555 1_555
C24_3 C23_3 1_555 1_555
C25_3 O12_3 1_555 1_555
C26_3 C25_3 1_555 1_555
H13_3 C26_3 1_555 1_555
O17_3 C31_3 1_555 1_555
O18_3 C33_3 1_555 1_555
C31_3 C32_3 1_555 1_555
C32_3 C26_3 1_555 1_555
C33_3 C32_3 1_555 1_555
C34_3 C24_3 1_555 1_555
H15_3 C34_3 1_555 1_555
Hf3_3 O13_3 1_555 1_555
O23_3 Hf3_3 1_555 1_555
O24_3 Hf3_3 1_555 1_555
C39_3 O23_3 1_555 1_555
C40_3 C39_3 1_555 1_555
C41_3 C40_3 1_555 1_555
H17_3 C41_3 1_555 1_555
C42_3 C41_3 1_555 1_555
H18_3 C42_3 1_555 1_555
C43_3 C42_3 1_555 1_555
H19_3 C43_3 1_555 1_555
C44_3 C43_3 1_555 1_555
H20_3 C44_3 1_555 1_555
C45_3 C40_3 1_555 1_555
H21_3 C45_3 1_555 1_555
Hf4_3 O25_3 1_555 1_555
O25_3 C46_3 1_555 1_555
O26_3 Hf4_3 1_555 1_555
C46_3 O26_3 1_555 1_555
C47_3 C46_3 1_555 1_555
C48_3 C47_3 1_555 1_555
H22_3 C48_3 1_555 1_555
C49_3 C48_3 1_555 1_555
H23_3 C49_3 1_555 1_555
C50_3 C49_3 1_555 1_555
H24_3 C50_3 1_555 1_555
C51_3 C50_3 1_555 1_555
H25_3 C51_3 1_555 1_555
C52_3 C47_3 1_555 1_555
H26_3 C52_3 1_555 1_555
O27_3 Hf3_3 1_555 1_555
O28_3 C53_3 1_555 1_555
O29_3 Hf3_3 1_555 1_555
O30_3 Hf4_3 1_555 1_555
O31_3 C60_3 1_555 1_555
O32_3 Hf4_3 1_555 1_555
C53_3 O27_3 1_555 1_555
C54_3 C53_3 1_555 1_555
C55_3 O29_3 1_555 1_555
C56_3 C55_3 1_555 1_555
H27_3 C56_3 1_555 1_555
C57_3 C56_3 1_555 1_555
C58_3 O32_3 1_555 1_555
C59_3 C54_3 1_555 1_555
H28_3 C59_3 1_555 1_555
C60_3 O30_3 1_555 1_555
Hf5_3 O17_3 1_555 1_555
Hf9_3 O22_3 1_555 1_555
O33_3 Hf3_3 1_555 1_555
O34_3 Hf3_3 1_555 1_555
O35_3 Hf1_3 1_555 1_555
O36_3 Hf4_3 1_555 1_555
O37_3 Hf4_3 1_555 1_555
O38_3 Hf4_3 1_555 1_555
Hf10_3 O40_3 1_555 1_555
O40_3 C61_3 1_555 1_555
O41_3 Hf10_3 1_555 1_555
O42_3 Hf10_3 1_555 1_555
O43_3 Hf10_3 1_555 1_555
O44_3 Hf10_3 1_555 1_555
O45_3 Hf10_3 1_555 1_555
O46_3 Hf10_3 1_555 1_555
C61_3 O41_3 1_555 1_555
C62_3 C61_3 1_555 1_555
C63_3 C62_3 1_555 1_555
C64_3 C62_3 1_555 1_555
H29_3 C63_3 1_555 1_555
C65_3 C63_3 1_555 1_555
H30_3 C65_3 1_555 1_555
C66_3 C65_3 1_555 1_555
H31_3 C66_3 1_555 1_555
C67_3 C64_3 1_555 1_555
C74_3 C71_3 1_555 1_555
H37_3 C74_3 1_555 1_555
H38_3 C71_3 1_555 1_555
C75_3 O42_3 1_555 1_555
O54_3 C75_3 1_555 1_555
C76_3 O43_3 1_555 1_555
C79_3 C75_3 1_555 1_555
H40_3 C80_3 1_555 1_555
C83_3 O35_3 1_555 1_555
C84_3 O45_3 1_555 1_555
C85_3 C83_3 1_555 1_555
C86_3 C85_3 1_555 1_555
C87_3 C84_3 1_555 1_555
H41_3 C87_3 1_555 1_555
C88_3 C87_3 1_555 1_555
O57_3 C95_3 1_555 1_555
C95_3 C88_3 1_555 1_555
C96_3 C86_3 1_555 1_555
H43_3 C86_3 1_555 1_555
O62_3 Hf16_3 1_555 1_555
C99_3 O33_3 1_555 1_555
C100_3 O34_3 1_555 1_555
C101_3 C99_3 1_555 1_555
C102_3 C101_3 1_555 1_555
C103_3 C100_3 1_555 1_555
H45_3 C103_3 1_555 1_555
C104_3 C103_3 1_555 1_555
C105_3 O36_3 1_555 1_555
C106_3 O37_3 1_555 1_555
O39_3 C105_3 1_555 1_555
C107_3 C105_3 1_555 1_555
C108_3 C107_3 1_555 1_555
C109_3 C106_3 1_555 1_555
H46_3 C108_3 1_555 1_555
C110_3 C108_3 1_555 1_555
O64_3 C111_3 1_555 1_555
C111_3 C104_3 1_555 1_555
C112_3 C102_3 1_555 1_555
O66_3 C111_3 1_555 1_555
Hf13_3 O66_3 1_555 1_555
H47_3 C102_3 1_555 1_555
O67_3 C113_3 1_555 1_555
C113_3 O69_3 1_555 1_555
O68_3 C110_3 1_555 1_555
O69_3 Hf8_3 1_555 1_555
C114_3 C109_3 1_555 1_555
H48_3 C109_3 1_555 1_555
C6_3 C7_3 1_555 1_555
C13_3 C14_3 1_555 1_555
C16_3 C17_3 1_555 1_555
C24_3 C25_3 1_555 1_555
O18_3 Hf5_3 1_555 1_555
C33_3 C34_3 1_555 1_555
O24_3 C39_3 1_555 1_555
C44_3 C45_3 1_555 1_555
C51_3 C52_3 1_555 1_555
C54_3 C55_3 1_555 1_555
C57_3 C58_3 1_555 1_555
C57_3 C60_3 1_555 1_555
C58_3 C59_3 1_555 1_555
O44_3 C83_3 1_555 1_555
O46_3 C99_3 1_555 1_555
C66_3 C67_3 1_555 1_555
C76_3 C79_3 1_555 1_555
C79_3 C80_3 1_555 1_555
C84_3 C85_3 1_555 1_555
C88_3 C96_3 1_555 1_555
O58_3 C96_3 1_555 1_555
C100_3 C101_3 1_555 1_555
C104_3 C112_3 1_555 1_555
C106_3 C107_3 1_555 1_555
C110_3 C114_3 1_555 1_555
O65_3 C112_3 1_555 1_555
C113_3 C114_3 1_555 1_555
Hf7_3 O47_3 1_555 1_555
O47_3 C68_3 1_555 1_555
O48_3 Hf7_3 1_555 1_555
O49_3 Hf7_3 1_555 1_555
O50_3 Hf7_3 1_555 1_555
O51_3 Hf7_3 1_555 1_555
O52_3 Hf7_3 1_555 1_555
C68_3 O48_3 1_555 1_555
C69_3 C68_3 1_555 1_555
C70_3 C69_3 1_555 1_555
H34_3 C70_3 1_555 1_555
C72_3 C70_3 1_555 1_555
H35_3 C72_3 1_555 1_555
C73_3 C72_3 1_555 1_555
C77_3 O49_3 1_555 1_555
O55_3 C77_3 1_555 1_555
C78_3 O50_3 1_555 1_555
H39_3 C81_3 1_555 1_555
C82_3 C77_3 1_555 1_555
C89_3 O51_3 1_555 1_555
C90_3 O52_3 1_555 1_555
O38_3 C89_3 1_555 1_555
C91_3 C89_3 1_555 1_555
C92_3 C91_3 1_555 1_555
C93_3 C90_3 1_555 1_555
H42_3 C92_3 1_555 1_555
C94_3 C92_3 1_555 1_555
Hf5_3 O59_3 1_555 1_555
O60_3 C97_3 1_555 1_555
Hf9_3 O60_3 1_555 1_555
O61_3 C94_3 1_555 1_555
C98_3 C93_3 1_555 1_555
H44_3 C93_3 1_555 1_555
C78_3 C82_3 1_555 1_555
C81_3 C82_3 1_555 1_555
C90_3 C91_3 1_555 1_555
C94_3 C98_3 1_555 1_555
C97_3 C98_3 1_555 1_555
Hf9_3 O61_3 1_555 1_555
O47_4 C68_4 1_555 1_555
C68_4 O48_4 1_555 1_555
C69_4 C68_4 1_555 1_555
C70_4 C69_4 1_555 1_555
C71_4 C69_4 1_555 1_555
H34_4 C70_4 1_555 1_555
C72_4 C70_4 1_555 1_555
H35_4 C72_4 1_555 1_555
C73_4 C72_4 1_555 1_555
H36_4 C73_4 1_555 1_555
C74_4 C71_4 1_555 1_555
H37_4 C74_4 1_555 1_555
H38_4 C71_4 1_555 1_555
C73_4 C74_4 1_555 1_555
Hf13_3 O40_4 1_555 1_555
O40_4 C61_4 1_555 1_555
O41_4 Hf13_3 1_555 1_555
O42_4 Hf13_3 1_555 1_555
O43_4 Hf13_3 1_555 1_555
C61_4 O41_4 1_555 1_555
C62_4 C61_4 1_555 1_555
C63_4 C62_4 1_555 1_555
C64_4 C62_4 1_555 1_555
H29_4 C63_4 1_555 1_555
C65_4 C63_4 1_555 1_555
H30_4 C65_4 1_555 1_555
C66_4 C65_4 1_555 1_555
H31_4 C66_4 1_555 1_555
C67_4 C64_4 1_555 1_555
H32_4 C67_4 1_555 1_555
H33_4 C64_4 1_555 1_555
O49_4 Hf9 1_555 1_555
O50_4 Hf9 1_555 1_555
C75_4 O42_4 1_555 1_555
O54_4 C75_4 1_555 1_555
C76_4 O43_4 1_555 1_555
C77_4 O49_4 1_555 1_555
O55_4 C77_4 1_555 1_555
C78_4 O50_4 1_555 1_555
C79_4 C75_4 1_555 1_555
C80_4 C78_4 1_555 1_555
C81_4 C76_4 1_555 1_555
H39_4 C81_4 1_555 1_555
C82_4 C77_4 1_555 1_555
H40_4 C80_4 1_555 1_555
C66_4 C67_4 1_555 1_555
C76_4 C79_4 1_555 1_555
C78_4 C82_4 1_555 1_555
C79_4 C80_4 1_555 1_555
C81_4 C82_4 1_555 1_555
O25_4 C46_4 1_555 1_555
C46_4 O26_4 1_555 1_555
C47_4 C46_4 1_555 1_555
C48_4 C47_4 1_555 1_555
H22_4 C48_4 1_555 1_555
C49_4 C48_4 1_555 1_555
H23_4 C49_4 1_555 1_555
C50_4 C49_4 1_555 1_555
H24_4 C50_4 1_555 1_555
C51_4 C50_4 1_555 1_555
H25_4 C51_4 1_555 1_555
C52_4 C47_4 1_555 1_555
H26_4 C52_4 1_555 1_555
C51_4 C52_4 1_555 1_555
O23_4 Hf6_3 1_555 1_555
O24_4 Hf6_3 1_555 1_555
C39_4 O23_4 1_555 1_555
C40_4 C39_4 1_555 1_555
C41_4 C40_4 1_555 1_555
H17_4 C41_4 1_555 1_555
C42_4 C41_4 1_555 1_555
H18_4 C42_4 1_555 1_555
C43_4 C42_4 1_555 1_555
H19_4 C43_4 1_555 1_555
C44_4 C43_4 1_555 1_555
H20_4 C44_4 1_555 1_555
C45_4 C40_4 1_555 1_555
H21_4 C45_4 1_555 1_555
O27_4 Hf6_3 1_555 1_555
O28_4 C53_4 1_555 1_555
O29_4 Hf6_3 1_555 1_555
O30_4 Hf16 1_555 1_555
O31_4 C60_4 1_555 1_555
O32_4 Hf16 1_555 1_555
C53_4 O27_4 1_555 1_555
C54_4 C53_4 1_555 1_555
C55_4 O29_4 1_555 1_555
C56_4 C55_4 1_555 1_555
H27_4 C56_4 1_555 1_555
C57_4 C56_4 1_555 1_555
C58_4 O32_4 1_555 1_555
C59_4 C54_4 1_555 1_555
H28_4 C59_4 1_555 1_555
C60_4 O30_4 1_555 1_555
O24_4 C39_4 1_555 1_555
C44_4 C45_4 1_555 1_555
C54_4 C55_4 1_555 1_555
C57_4 C58_4 1_555 1_555
C57_4 C60_4 1_555 1_555
C58_4 C59_4 1_555 1_555
O3_4 C8_4 1_555 1_555
C8_4 O4_4 1_555 1_555
C9_4 C8_4 1_555 1_555
C10_4 C9_4 1_555 1_555
H6_4 C10_4 1_555 1_555
C11_4 C10_4 1_555 1_555
H7_4 C11_4 1_555 1_555
C12_4 C11_4 1_555 1_555
H8_4 C12_4 1_555 1_555
C13_4 C12_4 1_555 1_555
H9_4 C13_4 1_555 1_555
C14_4 C9_4 1_555 1_555
H10_4 C14_4 1_555 1_555
C13_4 C14_4 1_555 1_555
Hf5_3 O1_4 1_555 1_555
O1_4 C1_4 1_555 1_555
O2_4 Hf5_3 1_555 1_555
C1_4 O2_4 1_555 1_555
C2_4 C1_4 1_555 1_555
C3_4 C2_4 1_555 1_555
H1_4 C3_4 1_555 1_555
C4_4 C3_4 1_555 1_555
H2_4 C4_4 1_555 1_555
C5_4 C4_4 1_555 1_555
H3_4 C5_4 1_555 1_555
C6_4 C5_4 1_555 1_555
H4_4 C6_4 1_555 1_555
C7_4 C2_4 1_555 1_555
H5_4 C7_4 1_555 1_555
O5_4 Hf5_3 1_555 1_555
O6_4 C15_4 1_555 1_555
O7_4 Hf5_3 1_555 1_555
O8_4 Hf8 1_555 1_555
O9_4 C22_4 1_555 1_555
O10_4 Hf8 1_555 1_555
C15_4 O5_4 1_555 1_555
C16_4 C15_4 1_555 1_555
C17_4 O7_4 1_555 1_555
C18_4 C17_4 1_555 1_555
H11_4 C18_4 1_555 1_555
C19_4 C18_4 1_555 1_555
C20_4 O10_4 1_555 1_555
C21_4 C16_4 1_555 1_555
H12_4 C21_4 1_555 1_555
C22_4 O8_4 1_555 1_555
C6_4 C7_4 1_555 1_555
C16_4 C17_4 1_555 1_555
C19_4 C20_4 1_555 1_555
C19_4 C22_4 1_555 1_555
C20_4 C21_4 1_555 1_555
Hf5_2 O1_5 1_555 1_555
O1_5 C1_5 1_555 1_555
O2_5 Hf5_2 1_555 1_555
C1_5 O2_5 1_555 1_555
C2_5 C1_5 1_555 1_555
C3_5 C2_5 1_555 1_555
H1_5 C3_5 1_555 1_555
C4_5 C3_5 1_555 1_555
H2_5 C4_5 1_555 1_555
C5_5 C4_5 1_555 1_555
H3_5 C5_5 1_555 1_555
C6_5 C5_5 1_555 1_555
H4_5 C6_5 1_555 1_555
C7_5 C2_5 1_555 1_555
H5_5 C7_5 1_555 1_555
Hf8_3 O3_5 1_555 1_555
O3_5 C8_5 1_555 1_555
O4_5 Hf8_3 1_555 1_555
C8_5 O4_5 1_555 1_555
C9_5 C8_5 1_555 1_555
C10_5 C9_5 1_555 1_555
H6_5 C10_5 1_555 1_555
C11_5 C10_5 1_555 1_555
H7_5 C11_5 1_555 1_555
C12_5 C11_5 1_555 1_555
H8_5 C12_5 1_555 1_555
C13_5 C12_5 1_555 1_555
H9_5 C13_5 1_555 1_555
C14_5 C9_5 1_555 1_555
H10_5 C14_5 1_555 1_555
O5_5 Hf5_2 1_555 1_555
O6_5 C15_5 1_555 1_555
O7_5 Hf5_2 1_555 1_555
O8_5 Hf8_3 1_555 1_555
O9_5 C22_5 1_555 1_555
O10_5 Hf8_3 1_555 1_555
C15_5 O5_5 1_555 1_555
C16_5 C15_5 1_555 1_555
C17_5 O7_5 1_555 1_555
C18_5 C17_5 1_555 1_555
H11_5 C18_5 1_555 1_555
C19_5 C18_5 1_555 1_555
C20_5 O10_5 1_555 1_555
C21_5 C16_5 1_555 1_555
H12_5 C21_5 1_555 1_555
C22_5 O8_5 1_555 1_555
O23_5 Hf6_2 1_555 1_555
O24_5 Hf6_2 1_555 1_555
C39_5 O23_5 1_555 1_555
C40_5 C39_5 1_555 1_555
C41_5 C40_5 1_555 1_555
H17_5 C41_5 1_555 1_555
C42_5 C41_5 1_555 1_555
H18_5 C42_5 1_555 1_555
C43_5 C42_5 1_555 1_555
H19_5 C43_5 1_555 1_555
C44_5 C43_5 1_555 1_555
C45_5 C40_5 1_555 1_555
H21_5 C45_5 1_555 1_555
Hf16_3 O25_5 1_555 1_555
O25_5 C46_5 1_555 1_555
O26_5 Hf16_3 1_555 1_555
C46_5 O26_5 1_555 1_555
C47_5 C46_5 1_555 1_555
C48_5 C47_5 1_555 1_555
H22_5 C48_5 1_555 1_555
C49_5 C48_5 1_555 1_555
H23_5 C49_5 1_555 1_555
C50_5 C49_5 1_555 1_555
H24_5 C50_5 1_555 1_555
C51_5 C50_5 1_555 1_555
H25_5 C51_5 1_555 1_555
C52_5 C47_5 1_555 1_555
H26_5 C52_5 1_555 1_555
O27_5 Hf6_2 1_555 1_555
O28_5 C53_5 1_555 1_555
O29_5 Hf6_2 1_555 1_555
O30_5 Hf16_3 1_555 1_555
O31_5 C60_5 1_555 1_555
O32_5 Hf16_3 1_555 1_555
C53_5 O27_5 1_555 1_555
C54_5 C53_5 1_555 1_555
C55_5 O29_5 1_555 1_555
C56_5 C55_5 1_555 1_555
H27_5 C56_5 1_555 1_555
C57_5 C56_5 1_555 1_555
C58_5 O32_5 1_555 1_555
C59_5 C54_5 1_555 1_555
H28_5 C59_5 1_555 1_555
C60_5 O30_5 1_555 1_555
Hf13_2 O40_5 1_555 1_555
O40_5 C61_5 1_555 1_555
O41_5 Hf13_2 1_555 1_555
O42_5 Hf13_2 1_555 1_555
O43_5 Hf13_2 1_555 1_555
C61_5 O41_5 1_555 1_555
C62_5 C61_5 1_555 1_555
C63_5 C62_5 1_555 1_555
C64_5 C62_5 1_555 1_555
H29_5 C63_5 1_555 1_555
C65_5 C63_5 1_555 1_555
H30_5 C65_5 1_555 1_555
C66_5 C65_5 1_555 1_555
H31_5 C66_5 1_555 1_555
C67_5 C64_5 1_555 1_555
H33_5 C64_5 1_555 1_555
Hf9_3 O47_5 1_555 1_555
O47_5 C68_5 1_555 1_555
O48_5 Hf9_3 1_555 1_555
O49_5 Hf9_3 1_555 1_555
O50_5 Hf9_3 1_555 1_555
C68_5 O48_5 1_555 1_555
C69_5 C68_5 1_555 1_555
C70_5 C69_5 1_555 1_555
C71_5 C69_5 1_555 1_555
H34_5 C70_5 1_555 1_555
C72_5 C70_5 1_555 1_555
H35_5 C72_5 1_555 1_555
C73_5 C72_5 1_555 1_555
H36_5 C73_5 1_555 1_555
C74_5 C71_5 1_555 1_555
H37_5 C74_5 1_555 1_555
H38_5 C71_5 1_555 1_555
C75_5 O42_5 1_555 1_555
O54_5 C75_5 1_555 1_555
C76_5 O43_5 1_555 1_555
C77_5 O49_5 1_555 1_555
O55_5 C77_5 1_555 1_555
C78_5 O50_5 1_555 1_555
C79_5 C75_5 1_555 1_555
C80_5 C78_5 1_555 1_555
C81_5 C76_5 1_555 1_555
H39_5 C81_5 1_555 1_555
C82_5 C77_5 1_555 1_555
H40_5 C80_5 1_555 1_555
C6_5 C7_5 1_555 1_555
C13_5 C14_5 1_555 1_555
C16_5 C17_5 1_555 1_555
C19_5 C20_5 1_555 1_555
C19_5 C22_5 1_555 1_555
C20_5 C21_5 1_555 1_555
O24_5 C39_5 1_555 1_555
C44_5 C45_5 1_555 1_555
C51_5 C52_5 1_555 1_555
C54_5 C55_5 1_555 1_555
C57_5 C58_5 1_555 1_555
C57_5 C60_5 1_555 1_555
C58_5 C59_5 1_555 1_555
C66_5 C67_5 1_555 1_555
C73_5 C74_5 1_555 1_555
C76_5 C79_5 1_555 1_555
C78_5 C82_5 1_555 1_555
C79_5 C80_5 1_555 1_555
C81_5 C82_5 1_555 1_555
Hf9_2 O47_6 1_555 1_555
O47_6 C68_6 1_555 1_555
O48_6 Hf9_2 1_555 1_555
O49_6 Hf9_2 1_555 1_555
O50_6 Hf9_2 1_555 1_555
C68_6 O48_6 1_555 1_555
C69_6 C68_6 1_555 1_555
C70_6 C69_6 1_555 1_555
H34_6 C70_6 1_555 1_555
C72_6 C70_6 1_555 1_555
H35_6 C72_6 1_555 1_555
C73_6 C72_6 1_555 1_555
C77_6 O49_6 1_555 1_555
O55_6 C77_6 1_555 1_555
C78_6 O50_6 1_555 1_555
H39_6 C81_6 1_555 1_555
C82_6 C77_6 1_555 1_555
C78_6 C82_6 1_555 1_555
C81_6 C82_6 1_555 1_555
Hf5 O1_6 1_555 1_555
O1_6 C1_6 1_555 1_555
O2_6 Hf5 1_555 1_555
C1_6 O2_6 1_555 1_555
C2_6 C1_6 1_555 1_555
C3_6 C2_6 1_555 1_555
H1_6 C3_6 1_555 1_555
C4_6 C3_6 1_555 1_555
H2_6 C4_6 1_555 1_555
C5_6 C4_6 1_555 1_555
H3_6 C5_6 1_555 1_555
C6_6 C5_6 1_555 1_555
C7_6 C2_6 1_555 1_555
H9_6 C13_6 1_555 1_555
H10_6 C14_6 1_555 1_555
O5_6 Hf5 1_555 1_555
O6_6 C15_6 1_555 1_555
O7_6 Hf5 1_555 1_555
C15_6 O5_6 1_555 1_555
C16_6 C15_6 1_555 1_555
C17_6 O7_6 1_555 1_555
C21_6 C16_6 1_555 1_555
H12_6 C21_6 1_555 1_555
O23_6 Hf6 1_555 1_555
O24_6 Hf6 1_555 1_555
C39_6 O23_6 1_555 1_555
C40_6 C39_6 1_555 1_555
C41_6 C40_6 1_555 1_555
H17_6 C41_6 1_555 1_555
C42_6 C41_6 1_555 1_555
H18_6 C42_6 1_555 1_555
C43_6 C42_6 1_555 1_555
H19_6 C43_6 1_555 1_555
C44_6 C43_6 1_555 1_555
H20_6 C44_6 1_555 1_555
C45_6 C40_6 1_555 1_555
H21_6 C45_6 1_555 1_555
Hf16_2 O25_6 1_555 1_555
O25_6 C46_6 1_555 1_555
O26_6 Hf16_2 1_555 1_555
C46_6 O26_6 1_555 1_555
C47_6 C46_6 1_555 1_555
C48_6 C47_6 1_555 1_555
H22_6 C48_6 1_555 1_555
C49_6 C48_6 1_555 1_555
H23_6 C49_6 1_555 1_555
C50_6 C49_6 1_555 1_555
H24_6 C50_6 1_555 1_555
C51_6 C50_6 1_555 1_555
H25_6 C51_6 1_555 1_555
C52_6 C47_6 1_555 1_555
H26_6 C52_6 1_555 1_555
O27_6 Hf6 1_555 1_555
O28_6 C53_6 1_555 1_555
O29_6 Hf6 1_555 1_555
O30_6 Hf16_2 1_555 1_555
O31_6 C60_6 1_555 1_555
O32_6 Hf16_2 1_555 1_555
C53_6 O27_6 1_555 1_555
C54_6 C53_6 1_555 1_555
C55_6 O29_6 1_555 1_555
C56_6 C55_6 1_555 1_555
H27_6 C56_6 1_555 1_555
C57_6 C56_6 1_555 1_555
C58_6 O32_6 1_555 1_555
C59_6 C54_6 1_555 1_555
H28_6 C59_6 1_555 1_555
C60_6 O30_6 1_555 1_555
Hf13 O40_6 1_555 1_555
O40_6 C61_6 1_555 1_555
O41_6 Hf13 1_555 1_555
O42_6 Hf13 1_555 1_555
O43_6 Hf13 1_555 1_555
C61_6 O41_6 1_555 1_555
C62_6 C61_6 1_555 1_555
C63_6 C62_6 1_555 1_555
C64_6 C62_6 1_555 1_555
H29_6 C63_6 1_555 1_555
C65_6 C63_6 1_555 1_555
H30_6 C65_6 1_555 1_555
C66_6 C65_6 1_555 1_555
H31_6 C66_6 1_555 1_555
C67_6 C64_6 1_555 1_555
C74_6 C71_6 1_555 1_555
H37_6 C74_6 1_555 1_555
H38_6 C71_6 1_555 1_555
C75_6 O42_6 1_555 1_555
O54_6 C75_6 1_555 1_555
C76_6 O43_6 1_555 1_555
C79_6 C75_6 1_555 1_555
H40_6 C80_6 1_555 1_555
C6_6 C7_6 1_555 1_555
C13_6 C14_6 1_555 1_555
C16_6 C17_6 1_555 1_555
O24_6 C39_6 1_555 1_555
C44_6 C45_6 1_555 1_555
C51_6 C52_6 1_555 1_555
C54_6 C55_6 1_555 1_555
C57_6 C58_6 1_555 1_555
C57_6 C60_6 1_555 1_555
C58_6 C59_6 1_555 1_555
C66_6 C67_6 1_555 1_555
C76_6 C79_6 1_555 1_555
C79_6 C80_6 1_555 1_555
Hf8_2 O3_6 1_555 1_555
O3_6 C8_6 1_555 1_555
O4_6 Hf8_2 1_555 1_555
C8_6 O4_6 1_555 1_555
C9_6 C8_6 1_555 1_555
C10_6 C9_6 1_555 1_555
H6_6 C10_6 1_555 1_555
C11_6 C10_6 1_555 1_555
H7_6 C11_6 1_555 1_555
C12_6 C11_6 1_555 1_555
O8_6 Hf8_2 1_555 1_555
O9_6 C22_6 1_555 1_555
O10_6 Hf8_2 1_555 1_555
H11_6 C18_6 1_555 1_555
C19_6 C18_6 1_555 1_555
C20_6 O10_6 1_555 1_555
C22_6 O8_6 1_555 1_555
C19_6 C20_6 1_555 1_555
C19_6 C22_6 1_555 1_555
O70_2 H61 1_555 1_555
O70_2 H62 1_555 1_555
O70_3 H61_2 1_555 1_555
O70_3 H63 1_555 1_555
O70_8 H61_3 1_555 1_555
O70_8 H63_2 1_555 1_555
O70_9 H61_4 1_555 1_555
O70_9 H62_2 1_555 1_555
O71_2 H55 1_555 1_555
O71_2 H56 1_555 1_555
O71_3 H55_2 1_555 1_555
O71_3 H56_2 1_555 1_555
O71_5 H57 1_555 1_555
O71_5 H56_3 1_555 1_555
O71_8 H57_4 1_555 1_555
O71_8 H56_4 1_555 1_555
O71_10 H55_6 1_555 1_555
O71_10 H56_5 1_555 1_555
O71_11 H55_7 1_555 1_555
O71_11 H56_6 1_555 1_555
O72_2 H64 1_555 1_555
O72_2 H65 1_555 1_555
O72_3 H64_2 1_555 1_555
O72_3 H65_2 1_555 1_555
O72_5 H66 1_555 1_555
O72_5 H65_3 1_555 1_555
O72_8 H66_4 1_555 1_555
O72_8 H65_4 1_555 1_555
O72_10 H64_6 1_555 1_555
O72_10 H65_5 1_555 1_555
O72_11 H64_7 1_555 1_555
O72_11 H65_6 1_555 1_555
O73_2 H67 1_555 1_555
O73_2 H68 1_555 1_555
O73_3 H67_2 1_555 1_555
O73_3 H69 1_555 1_555
O73_8 H67_3 1_555 1_555
O73_8 H69_2 1_555 1_555
O73_9 H67_4 1_555 1_555
O73_9 H68_2 1_555 1_555
O74_3 H52 1_555 1_555
O74_3 H53 1_555 1_555
O74_4 H52_2 1_555 1_555
O74_4 H53_2 1_555 1_555
O75_2 H58 1_555 1_555
O75_2 H59 1_555 1_555
O75_3 H58_2 1_555 1_555
O75_3 H60 1_555 1_555
O75_8 H58_3 1_555 1_555
O75_8 H60_2 1_555 1_555
O75_9 H58_4 1_555 1_555
O75_9 H59_2 1_555 1_555
O76_2 H49 1_555 1_555
O76_2 H50 1_555 1_555
O76_3 H49_2 1_555 1_555
O76_3 H51 1_555 1_555
O76_8 H49_3 1_555 1_555
O76_8 H51_2 1_555 1_555
O76_9 H49_4 1_555 1_555
O76_9 H50_2 1_555 1_555

#END
