
###############################################################################
#
# This file contains modified crystal structure data generated from the
# MOF subset of the Cambridge Structural Database (CSD) v543 
# hosted by the Cambridge Crystallographic Data Centre (CCDC).
#
# This work is licensed under the Creative Commons
# Attribution-NonCommercial-ShareAlike 4.0 International License.
# To view a copy of this license, visit
# http://creativecommons.org/licenses/by-nc-sa/4.0/
# or send a letter to
# Creative Commons, PO Box 1866, Mountain View, CA 94042, USA.
#
# CIF created using the CSD Python API on 29 September 2022
# The structure has been converted into the P1 space group
# The structure has a 3D framework
# The original CSD entry NAWDUN is in the orthorhombic crystal system
# The original CSD entry NAWDUN is in a Sohncke space group
# The framework has been calculated to contain at least 10.0% void space
# The void calculation uses a probe of radius 1.32A, grid spacing 0.4
# H atom positions have been added when not included in the experimental data
#
###############################################################################

data_NAWDUN
_chemical_formula_moiety         '(C324 H324 Cu16 N4 O76)n'
_symmetry_cell_setting           triclinic
_symmetry_space_group_name_H-M   'P 1'
_symmetry_Int_Tables_number      1
_space_group_name_Hall           'P 1'
loop_
_symmetry_equiv_pos_site_id
_symmetry_equiv_pos_as_xyz
1 x,y,z
_cell_length_a                   18.4059(7)
_cell_length_b                   18.7645(9)
_cell_length_c                   34.5211(14)
_cell_angle_alpha                90
_cell_angle_beta                 90
_cell_angle_gamma                90
_cell_volume                     11922.8
loop_
_atom_site_label
_atom_site_type_symbol
_atom_site_fract_x
_atom_site_fract_y
_atom_site_fract_z
O16 O 0.0266(4) 0.1626(5) 0.0705(2)
H80 H 0.0596273 0.199637 0.0810843
O30 O 0.0397(4) 0.2412(4) 0.99545(19)
O12 O 0.4013(4) 0.1407(3) 0.00095(17)
Cu7 Cu 0.38221(6) 0.22895(6) 0.03137(3)
Cu2 Cu 0.61843(6) 0.22853(6) 0.53168(3)
Cu3 Cu 0.54518(6) 0.28958(6) 0.47455(3)
Cu4 Cu 0.95555(6) 0.21061(6) 0.02575(3)
O1 O 0.8571(4) 0.1885(4) 0.0479(2)
O4 O 0.1357(3) 0.1896(4) 0.55020(19)
O5 O 0.4522(4) 0.1949(4) 0.9507(2)
O6 O 0.2045(4) 0.2457(4) 0.50195(18)
O8 O 0.5516(4) 0.1968(3) 0.44766(19)
O9 O 0.6819(4) 0.1805(4) 0.57635(19)
O10 O 0.4777(3) 0.2139(4) 0.05517(19)
O11 O 0.4631(4) 0.2570(4) 0.50574(18)
O13 O 0.8053(4) 0.2508(4) 0.00361(19)
O15 O 0.6031(5) 0.1429(4) 0.5009(2)
O18 O 0.5245(4) 0.2186(4) 0.55738(18)
O19 O 0.5397(4) 0.2588(4) 0.00455(19)
O20 O 0.4889(4) 0.3508(5) 0.43249(19)
C1 C 0.4677(5) 0.2259(5) 0.5377(3)
C2 C 0.7130(5) 0.0655(6) 0.1579(3)
H1 H 0.7409 0.0465 0.1379
C3 C 0.6198(5) 0.1128(6) 0.2154(3)
C4 C 0.7357(5) 0.2000(6) 0.0542(3)
C5 C 0.4117(6) 0.0745(6) 0.9443(3)
C6 C 0.4250(5) 0.1310(5) 0.7497(3)
C7 C 0.3955(5) 0.1782(6) 0.5952(3)
H2 H 0.4387 0.1739 0.6090
C8 C 0.3956(5) 0.2124(6) 0.5559(3)
C9 C 0.6712(5) 0.2215(5) 0.0376(3)
H3 H 0.6707 0.2439 0.0136
C10 C 0.6714(6) 0.1593(5) 0.1118(3)
C12 C 0.6690(6) 0.0579(6) 0.2242(3)
C13 C 0.6069(6) 0.0185(6) 0.3839(3)
C14 C 0.6700(5) 0.1278(5) 0.1500(3)
C16 C 0.5794(5) 0.0695(6) 0.3161(3)
H4 H 0.5414 0.0970 0.3257
C17 C 0.7151(5) 0.0307(7) 0.1954(3)
C18 C 0.4101(5) 0.0091(5) 0.9631(3)
H6 H 0.4145 0.0075 0.9899
C19 C 0.3972(5) 0.0786(5) 0.7789(3)
C20 C 0.3389(5) 0.0337(5) 0.7632(3)
C21 C 0.6134(7) 0.0179(7) 0.3388(3)
C22 C 0.8062(5) 0.2149(5) 0.0351(3)
C23 C 0.2677(5) 0.2015(6) 0.5556(3)
C24 C 0.5759(5) 0.0089(5) 0.4624(3)
H7 H 0.5654 0.0060 0.4887
C25 C 0.3364(5) 0.0544(5) 0.7205(3)
C26 C 0.3342(5) 0.1541(6) 0.6103(3)
C27 C 0.6040(6) 0.0777(6) 0.2798(3)
C30 C 0.3790(5) 0.1443(5) 0.6793(3)
H9 H 0.4082 0.1838 0.6744
C31 C 0.6214(5) 0.1480(6) 0.1780(3)
H10 H 0.5889 0.1848 0.1729
C32 C 0.3972(6) 0.0114(6) 0.8818(3)
C34 C 0.5962(5) 0.0788(6) 0.4038(3)
H12 H 0.6008 0.1226 0.3914
C35 C 0.3336(5) 0.2242(5) 0.5383(3)
H13 H 0.3329 0.2475 0.5145
C36 C 0.2657(5) 0.1692(6) 0.5907(3)
H14 H 0.2216 0.1570 0.6020
C37 C 0.1956(5) 0.2118(5) 0.5327(3)
C38 C 0.2872(6) 0.0307(6) 0.6918(3)
C39 C 0.3335(5) 0.1159(6) 0.6493(3)
C40 C 0.5796(5) 0.2102(6) 0.2633(3)
H16 H 0.5579 0.2409 0.2439
H17 H 0.5513 0.2157 0.2869
C41 C 0.4155(6) 0.2099(5) 0.7615(3)
H18 H 0.4466 0.2182 0.7837
H19 H 0.4346 0.2386 0.7404
C42 C 0.4250(5) 0.1411(5) 0.9665(3)
C43 C 0.6026(5) 0.2081(6) 0.0589(3)
C44 C 0.6046(5) 0.1787(5) 0.0925(3)
H20 H 0.5609 0.1694 0.1050
C46 C 0.4116(6) 0.0777(6) 0.9043(3)
H22 H 0.4203 0.1205 0.8916
C47 C 0.6498(5) 0.0356(6) 0.2616(3)
C48 C 0.2853(6) 0.0618(6) 0.6569(3)
H23 H 0.2521 0.0471 0.6382
C51 C 0.4103(5) 0.0717(6) 0.8190(3)
H26 H 0.4429 0.1030 0.8306
C52 C 0.5709(5) 0.1322(6) 0.2494(3)
C53 C 0.3772(5) 0.0211(6) 0.8416(3)
C54 C 0.5780(6) 0.1437(6) 0.4661(3)
C55 C 0.4901(5) 0.1230(6) 0.2414(3)
H27 H 0.4625 0.1384 0.2638
H28 H 0.4763 0.1528 0.2196
C56 C 0.5058(5) 0.1161(6) 0.7422(3)
H29 H 0.5310 0.1270 0.7662
H30 H 0.5216 0.1512 0.7234
C57 C 0.3796(5) 0.1150(5) 0.7133(3)
C58 C 0.5356(5) 0.2327(5) 0.0388(2)
C59 C 0.5775(5) 0.0760(6) 0.4441(3)
C61 C 0.4716(7) 0.0459(6) 0.2323(3)
H32 H 0.5141 0.0191 0.2414
C62 C 0.5357(5) 0.0442(6) 0.7283(3)
H33 H 0.5040 0.0030 0.7329
C64 C 0.6134(5) 0.0376(7) 0.7448(3)
H34 H 0.6368 0.0839 0.7453
H35 H 0.6423 0.0059 0.7288
C65 C 0.4778(7) 0.3372(7) 0.3987(4)
C66 C 0.5624(6) 0.0529(7) 0.6868(3)
H36 H 0.5814 0.0083 0.6777
H37 H 0.5228 0.0676 0.6706
H38 H 0.6000 0.0884 0.6861
C67 C 0.4089(6) 0.0127(7) 0.2536(3)
H39 H 0.4125 0.0236 0.2807
H40 H 0.3641 0.0314 0.2436
C68 C 0.4690(7) 0.0307(7) 0.1895(3)
H42 H 0.5160 0.0090 0.1847
C69 C 0.3016(7) 0.2022(6) 0.8042(3)
H44 H 0.2543 0.2250 0.8039
H45 H 0.3256 0.2206 0.8271
C70 C 0.3082(8) 0.2404(8) 0.7310(4)
C71 C 0.6561(6) 0.2381(6) 0.2715(3)
H46 H 0.6887 0.2177 0.2520
C72 C 0.6885(6) 0.2222(7) 0.3113(3)
H47 H 0.6958 0.1713 0.3142
H48 H 0.7353 0.2455 0.3138
C73 C 0.6576(6) 0.3202(5) 0.2668(3)
H49 H 0.6377 0.3328 0.2420
H50 H 0.6293 0.3418 0.2869
H51 H 0.7069 0.3368 0.2684
C74 C 0.6384(6) 0.2485(7) 0.3419(3)
H52 H 0.6587 0.2385 0.3669
H53 H 0.6317 0.2989 0.3391
H54 H 0.5923 0.2249 0.3395
C75 C 0.6067(6) 0.0073(6) 0.7865(3)
H55 H 0.6542 0.0025 0.7977
H56 H 0.5781 0.0392 0.8021
C76 C 0.4552(7) 0.0704(6) 0.1528(3)
H58 H 0.4592 0.0384 0.1312
H59 H 0.4072 0.0904 0.1535
H60 H 0.4902 0.1080 0.1502
C77 C 0.2834(5) 0.1246(6) 0.8157(4)
H61 H 0.2562 0.1245 0.8394
H62 H 0.2552 0.1028 0.7955
H63 H 0.3277 0.0983 0.8192
C78 C 0.3417(6) 0.2392(7) 0.7713(3)
H64 H 0.3487 0.2889 0.7792
C79 C 0.7338(5) 0.1654(5) 0.0920(3)
H65 H 0.7765 0.1474 0.1026
N1 N 0.4348(5) 0.3531(5) 0.3671(3)
C80 C 0.3538(7) 0.3524(7) 0.3802(4)
C81 C 0.4223(7) 0.3001(6) 0.3322(3)
Cu8 Cu 0.11843(6) 0.27147(6) 0.46832(3)
Cu10 Cu 0.04518(6) 0.21042(6) 0.52545(3)
Cu14 Cu 0.45555(6) 0.28939(6) 0.97425(3)
O22 O 0.6258(4) 0.3267(4) 0.55464(19)
O23 O 0.6357(3) 0.3104(4) 0.44980(19)
O24 O 0.9522(4) 0.3051(4) 0.0493(2)
O25 O 0.7045(4) 0.2543(4) 0.49805(18)
O26 O 0.5531(4) 0.3723(3) 0.50717(18)
H66 H 0.307322 0.186562 0.719231
H67 H 0.252919 0.260833 0.73274
H68 H 0.340388 0.274663 0.712192
H69 H 0.516863 0.296792 0.389816
H70 H 0.397562 0.251184 0.342885
H71 H 0.386477 0.324797 0.310984
H72 H 0.474241 0.287769 0.318662
H73 H 0.345714 0.392029 0.40284
H74 H 0.319069 0.364863 0.355576
H75 H 0.340001 0.299819 0.391341
H78 H 0.714873 0.2167 0.587802
H79 H 0.649231 0.161477 0.596773
H81 H 0.996217 0.142931 0.0917295
Cu1 Cu 0.88221(6) 0.27105(6) 0.96863(3)
O17 O 0.8225(4) 0.3199(4) 0.9222(2)
O21 O 0.9420(4) 0.1230(4) 0.9935(2)
O27 O 0.9777(3) 0.2861(4) 0.94483(19)
O28 O 0.9013(4) 0.3593(3) 0.99905(17)
O29 O 0.8797(4) 0.1762(4) 0.9469(2)
H76 H 0.797139 0.36298 0.93201
H77 H 0.856553 0.333712 0.90119
Cu11 Cu 0.45482(6) 0.78958(6) 0.02545(3)
O2 O 0.5580(4) 0.8770(4) 0.4935(2)
O3 O 0.3742(4) 0.8267(4) 0.94536(19)
O7 O 0.4469(4) 0.8723(3) 0.99283(18)
O14 O 0.6203(4) 0.8238(4) 0.4469(2)
C11 C 0.5894(5) 0.9490(6) 0.4420(3)
C15 C 0.4126(6) 0.8749(5) 0.9615(3)
H5 H 0.7456 0.9922 0.2001
C28 C 0.6915(6) 0.9824(6) 0.2842(3)
H8 H 0.7265 0.9532 0.2731
C29 C 0.4020(6) 0.9451(5) 0.9422(3)
C33 C 0.6042(5) 0.9518(6) 0.4015(3)
H11 H 0.6118 0.9103 0.3872
H15 H 0.2558 0.9932 0.6972
C45 C 0.6737(6) 0.9795(6) 0.3243(3)
H21 H 0.7018 0.9521 0.3411
C49 C 0.3271(6) 0.9722(6) 0.8226(3)
H24 H 0.3074 0.9341 0.8363
C50 C 0.3901(5) 0.9492(5) 0.9029(3)
H25 H 0.3765 0.9079 0.8898
C60 C 0.3093(6) 0.9825(7) 0.7848(3)
H31 H 0.2750 0.9526 0.7736
C63 C 0.5928(5) 0.8775(5) 0.4626(3)
H41 H 0.4099 0.9620 0.2501
H43 H 0.4345 0.9917 0.1879
H57 H 0.5835 0.9614 0.7856
Cu5 Cu 0.61779(6) 0.72895(6) 0.46863(3)
Cu9 Cu 0.38157(6) 0.72853(6) 0.96832(3)
Cu12 Cu 0.54445(6) 0.78939(6) 0.52575(3)
O3_2 O 0.1258(4) 0.1733(4) 0.44536(19)
O7_2 O 0.0531(4) 0.1277(3) 0.49283(18)
C15_2 C 0.0874(6) 0.1251(5) 0.4615(3)
C29_2 C 0.0980(6) 0.0549(5) 0.4422(3)
H15_2 H 0.2442 0.0068 0.1972
C49_2 C 0.1729(6) 0.0278(6) 0.3226(3)
H24_2 H 0.1926 0.0659 0.3363
C50_2 C 0.1099(5) 0.0508(5) 0.4029(3)
H25_2 H 0.1235 0.0921 0.3898
C60_2 C 0.1907(6) 0.0175(7) 0.2848(3)
H31_2 H 0.2250 0.0474 0.2736
O4_2 O 0.3643(3) 0.8104(4) 0.05020(19)
O5_2 O 0.0478(4) 0.8051(4) 0.4507(2)
O6_2 O 0.2955(4) 0.7543(4) 0.00195(18)
O11_2 O 0.0369(4) 0.7430(4) 0.00574(18)
O12_2 O 0.0987(4) 0.8593(3) 0.50095(17)
C1_2 C 0.0323(5) 0.7741(5) 0.0377(3)
C5_2 C 0.0883(6) 0.9255(6) 0.4443(3)
C6_2 C 0.0750(5) 0.8690(5) 0.2497(3)
C7_2 C 0.1045(5) 0.8218(6) 0.0952(3)
H2_2 H 0.0613 0.8261 0.1090
C8_2 C 0.1044(5) 0.7876(6) 0.0559(3)
C18_2 C 0.0899(5) 0.9909(5) 0.4631(3)
H6_2 H 0.0855 0.9925 0.4899
C19_2 C 0.1028(5) 0.9214(5) 0.2789(3)
C20_2 C 0.1611(5) 0.9663(5) 0.2632(3)
C23_2 C 0.2323(5) 0.7985(6) 0.0556(3)
C25_2 C 0.1636(5) 0.9456(5) 0.2205(3)
C26_2 C 0.1658(5) 0.8459(6) 0.1103(3)
C30_2 C 0.1210(5) 0.8557(5) 0.1793(3)
H9_2 H 0.0918 0.8162 0.1744
C32_2 C 0.1028(6) 0.9886(6) 0.3818(3)
C35_2 C 0.1664(5) 0.7758(5) 0.0383(3)
H13_2 H 0.1671 0.7525 0.0145
C36_2 C 0.2343(5) 0.8308(6) 0.0907(3)
H14_2 H 0.2784 0.8430 0.1020
C37_2 C 0.3044(5) 0.7882(5) 0.0327(3)
C38_2 C 0.2128(6) 0.9693(6) 0.1918(3)
C39_2 C 0.1665(5) 0.8841(6) 0.1493(3)
C41_2 C 0.0845(6) 0.7901(5) 0.2615(3)
H18_2 H 0.0534 0.7818 0.2837
H19_2 H 0.0654 0.7614 0.2404
C42_2 C 0.0750(5) 0.8589(5) 0.4665(3)
C46_2 C 0.0884(6) 0.9223(6) 0.4043(3)
H22_2 H 0.0797 0.8795 0.3916
C48_2 C 0.2147(6) 0.9382(6) 0.1569(3)
H23_2 H 0.2479 0.9529 0.1382
C51_2 C 0.0897(5) 0.9283(6) 0.3190(3)
H26_2 H 0.0571 0.8970 0.3306
C53_2 C 0.1228(5) 0.9789(6) 0.3416(3)
C57_2 C 0.1204(5) 0.8850(5) 0.2133(3)
C69_2 C 0.1984(7) 0.7978(6) 0.3042(3)
H44_2 H 0.2457 0.7750 0.3039
H45_2 H 0.1744 0.7794 0.3271
C70_2 C 0.1918(8) 0.7596(8) 0.2310(4)
C77_2 C 0.2166(5) 0.8754(6) 0.3157(4)
H61_2 H 0.2438 0.8755 0.3394
H62_2 H 0.2448 0.8972 0.2955
H63_2 H 0.1723 0.9017 0.3192
C78_2 C 0.1583(6) 0.7608(7) 0.2713(3)
H64_2 H 0.1513 0.7111 0.2792
Cu7_2 Cu 0.11779(6) 0.77105(6) 0.53137(3)
Cu14_2 Cu 0.04445(6) 0.71061(6) 0.47425(3)
H66_2 H 0.192678 0.813438 0.219231
H67_2 H 0.247081 0.739167 0.23274
H68_2 H 0.159612 0.725337 0.212192
O10_2 O 0.0223(3) 0.7861(4) 0.55517(19)
O20_2 O 0.0111(4) 0.6492(5) 0.93249(19)
C55_2 C 0.0099(5) 0.8770(6) 0.7414(3)
H27_2 H 0.0375 0.8616 0.7638
H28_2 H 0.0237 0.8472 0.7196
C61_2 C 0.0284(7) 0.9541(6) 0.7323(3)
C65_2 C 0.0222(7) 0.6628(7) 0.8987(4)
C67_2 C 0.0911(6) 0.9873(7) 0.7536(3)
H39_2 H 0.0875 0.9764 0.7807
H40_2 H 0.1359 0.9686 0.7436
C68_2 C 0.0310(7) 0.9693(7) 0.6895(3)
C76_2 C 0.0448(7) 0.9296(6) 0.6528(3)
H58_2 H 0.0408 0.9616 0.6312
H59_2 H 0.0928 0.9096 0.6535
H60_2 H 0.0098 0.8920 0.6502
N1_2 N 0.0652(5) 0.6469(5) 0.8671(3)
C80_2 C 0.1462(7) 0.6476(7) 0.8802(4)
C81_2 C 0.0777(7) 0.6999(6) 0.8322(3)
H70_2 H 0.102438 0.748816 0.842885
H71_2 H 0.113523 0.675203 0.810984
H72_2 H 0.025759 0.712231 0.818662
H73_2 H 0.154286 0.607971 0.90284
H74_2 H 0.180931 0.635137 0.855576
H75_2 H 0.159999 0.700181 0.891341
H57_2 H 0.9165 0.0386 0.2856
C11_2 C 0.9106(5) 0.0510(6) 0.9420(3)
H5_2 H 0.7544 0.0078 0.7001
C28_2 C 0.8085(6) 0.0176(6) 0.7842(3)
H8_2 H 0.7735 0.0468 0.7731
C33_2 C 0.8958(5) 0.0482(6) 0.9015(3)
H11_2 H 0.8882 0.0897 0.8872
C45_2 C 0.8263(6) 0.0205(6) 0.8243(3)
H21_2 H 0.7982 0.0479 0.8411
C63_2 C 0.9072(5) 0.1225(5) 0.9626(3)
Cu2_2 Cu 0.88157(6) 0.77147(6) 0.03168(3)
O9_2 O 0.8181(4) 0.8195(4) 0.07635(19)
O15_2 O 0.8969(5) 0.8571(4) 0.0009(2)
O18_2 O 0.9755(4) 0.7814(4) 0.05738(18)
C56_2 C 0.9942(5) 0.8839(6) 0.2422(3)
H29_2 H 0.9690 0.8730 0.2662
H30_2 H 0.9784 0.8488 0.2234
C62_2 C 0.9643(5) 0.9558(6) 0.2283(3)
H33_2 H 0.9960 0.9970 0.2329
C64_2 C 0.8866(5) 0.9624(7) 0.2448(3)
H34_2 H 0.8632 0.9161 0.2453
H35_2 H 0.8577 0.9941 0.2288
C66_2 C 0.9376(6) 0.9471(7) 0.1868(3)
H36_2 H 0.9186 0.9917 0.1777
H37_2 H 0.9772 0.9324 0.1706
H38_2 H 0.9000 0.9116 0.1861
C75_2 C 0.8933(6) 0.9927(6) 0.2865(3)
H55_2 H 0.8458 0.9975 0.2977
H56_2 H 0.9219 0.9608 0.3021
O22_2 O 0.8742(4) 0.6733(4) 0.05464(19)
O26_2 O 0.9469(4) 0.6277(3) 0.00717(18)
H78_2 H 0.785127 0.7833 0.0878021
H79_2 H 0.850769 0.838523 0.0967731
Cu3_2 Cu 0.95482(6) 0.71042(6) 0.97455(3)
O1_2 O 0.6429(4) 0.8115(4) 0.5479(2)
O8_2 O 0.9484(4) 0.8032(3) 0.94766(19)
O13_2 O 0.6947(4) 0.7492(4) 0.50361(19)
O16_2 O 0.4734(4) 0.8374(5) 0.5705(2)
O17_2 O 0.6775(4) 0.6801(4) 0.4222(2)
O19_2 O 0.9603(4) 0.7412(4) 0.50455(19)
C2_2 C 0.7870(5) 0.9345(6) 0.6579(3)
H1_2 H 0.7591 0.9535 0.6379
C3_2 C 0.8802(5) 0.8872(6) 0.7154(3)
C4_2 C 0.7643(5) 0.8000(6) 0.5542(3)
C9_2 C 0.8288(5) 0.7785(5) 0.5376(3)
H3_2 H 0.8293 0.7561 0.5136
C10_2 C 0.8286(6) 0.8407(5) 0.6118(3)
C12_2 C 0.8310(6) 0.9421(6) 0.7242(3)
C13_2 C 0.8931(6) 0.9815(6) 0.8839(3)
C14_2 C 0.8300(5) 0.8722(5) 0.6500(3)
C16_2 C 0.9206(5) 0.9305(6) 0.8161(3)
H4_2 H 0.9586 0.9030 0.8257
C17_2 C 0.7849(5) 0.9693(7) 0.6954(3)
C21_2 C 0.8866(7) 0.9821(7) 0.8388(3)
C22_2 C 0.6938(5) 0.7851(5) 0.5351(3)
C24_2 C 0.9241(5) 0.9911(5) 0.9624(3)
H7_2 H 0.9346 0.9940 0.9887
C27_2 C 0.8960(6) 0.9223(6) 0.7798(3)
C31_2 C 0.8786(5) 0.8520(6) 0.6780(3)
H10_2 H 0.9111 0.8152 0.6729
C34_2 C 0.9038(5) 0.9212(6) 0.9038(3)
H12_2 H 0.8992 0.8774 0.8914
C40_2 C 0.9204(5) 0.7898(6) 0.7633(3)
H16_2 H 0.9421 0.7591 0.7439
H17_2 H 0.9487 0.7843 0.7869
C43_2 C 0.8974(5) 0.7919(6) 0.5589(3)
C44_2 C 0.8954(5) 0.8213(5) 0.5925(3)
H20_2 H 0.9391 0.8306 0.6050
C47_2 C 0.8502(5) 0.9644(6) 0.7616(3)
C52_2 C 0.9291(5) 0.8678(6) 0.7494(3)
C54_2 C 0.9220(6) 0.8563(6) 0.9661(3)
C58_2 C 0.9644(5) 0.7673(5) 0.5388(2)
C59_2 C 0.9225(5) 0.9240(6) 0.9441(3)
H32_2 H 0.9859 0.9809 0.7414
H42_2 H 0.9840 0.9910 0.6847
C71_2 C 0.8439(6) 0.7619(6) 0.7715(3)
H46_2 H 0.8113 0.7823 0.7520
C72_2 C 0.8115(6) 0.7778(7) 0.8113(3)
H47_2 H 0.8042 0.8287 0.8142
H48_2 H 0.7647 0.7545 0.8138
C73_2 C 0.8424(6) 0.6798(5) 0.7668(3)
H49_2 H 0.8623 0.6672 0.7420
H50_2 H 0.8707 0.6582 0.7869
H51_2 H 0.7931 0.6632 0.7684
C74_2 C 0.8616(6) 0.7515(7) 0.8419(3)
H52_2 H 0.8413 0.7615 0.8669
H53_2 H 0.8683 0.7011 0.8391
H54_2 H 0.9077 0.7751 0.8395
C79_2 C 0.7662(5) 0.8346(5) 0.5920(3)
H65_2 H 0.7235 0.8526 0.6026
O23_2 O 0.8643(3) 0.6896(4) 0.94980(19)
O24_2 O 0.5478(4) 0.6949(4) 0.5493(2)
O25_2 O 0.7955(4) 0.7457(4) 0.99805(18)
O27_2 O 0.5223(3) 0.7139(4) 0.44483(19)
O28_2 O 0.5987(4) 0.6407(3) 0.49905(17)
O30_2 O 0.4603(4) 0.7588(4) 0.49545(19)
H69_2 H 0.983137 0.703208 0.889816
H76_2 H 0.702861 0.63702 0.43201
H77_2 H 0.643447 0.666288 0.40119
H80_2 H 0.440373 0.800363 0.581084
H81_2 H 0.503783 0.857069 0.59173
O17_3 O 0.3225(4) 0.1801(4) 0.0778(2)
O21_2 O 0.4420(4) 0.3770(4) 0.0065(2)
O29_2 O 0.3797(4) 0.3238(4) 0.0531(2)
H76_3 H 0.297139 0.13702 0.0679903
H77_3 H 0.356553 0.166288 0.09881
O1_3 O 0.3571(4) 0.3115(4) 0.9521(2)
O2_2 O 0.0580(4) 0.6230(4) 0.5065(2)
O8_3 O 0.0516(4) 0.3032(3) 0.55234(19)
O9_3 O 0.1819(4) 0.3195(4) 0.42365(19)
O13_3 O 0.3053(4) 0.2492(4) 0.99639(19)
O14_2 O 0.1203(4) 0.6762(4) 0.5531(2)
O15_3 O 0.1031(5) 0.3571(4) 0.4991(2)
O16_3 O 0.5266(4) 0.3374(5) 0.9295(2)
O18_3 O 0.0245(4) 0.2814(4) 0.44262(18)
C2_3 C 0.2130(5) 0.4345(6) 0.8421(3)
H1_3 H 0.2409 0.4535 0.8621
C3_3 C 0.1198(5) 0.3872(6) 0.7846(3)
C4_3 C 0.2357(5) 0.3000(6) 0.9458(3)
C9_3 C 0.1712(5) 0.2785(5) 0.9624(3)
H3_3 H 0.1707 0.2561 0.9864
C10_3 C 0.1714(6) 0.3407(5) 0.8882(3)
C11_3 C 0.0894(5) 0.5510(6) 0.5580(3)
C12_3 C 0.1690(6) 0.4421(6) 0.7758(3)
C13_3 C 0.1069(6) 0.4815(6) 0.6161(3)
C14_3 C 0.1700(5) 0.3722(5) 0.8500(3)
C16_3 C 0.0794(5) 0.4305(6) 0.6839(3)
H4_3 H 0.0414 0.4030 0.6743
C17_3 C 0.2151(5) 0.4693(7) 0.8046(3)
H5_3 H 0.2456 0.5078 0.7999
C21_3 C 0.1134(7) 0.4821(7) 0.6612(3)
C22_3 C 0.3062(5) 0.2851(5) 0.9649(3)
C24_3 C 0.0759(5) 0.4911(5) 0.5376(3)
H7_3 H 0.0654 0.4940 0.5113
C27_3 C 0.1040(6) 0.4223(6) 0.7202(3)
C28_3 C 0.1915(6) 0.5176(6) 0.7158(3)
H8_3 H 0.2265 0.5468 0.7269
C31_3 C 0.1214(5) 0.3520(6) 0.8220(3)
H10_3 H 0.0889 0.3152 0.8271
C33_3 C 0.1042(5) 0.5482(6) 0.5985(3)
H11_3 H 0.1118 0.5897 0.6128
C34_3 C 0.0962(5) 0.4212(6) 0.5962(3)
H12_3 H 0.1008 0.3774 0.6086
C40_3 C 0.0796(5) 0.2898(6) 0.7367(3)
H16_3 H 0.0579 0.2591 0.7561
H17_3 H 0.0513 0.2843 0.7131
C43_3 C 0.1026(5) 0.2919(6) 0.9411(3)
C44_3 C 0.1046(5) 0.3213(5) 0.9075(3)
H20_3 H 0.0609 0.3306 0.8950
C45_3 C 0.1737(6) 0.5205(6) 0.6757(3)
H21_3 H 0.2018 0.5479 0.6589
C47_3 C 0.1498(5) 0.4644(6) 0.7384(3)
C52_3 C 0.0709(5) 0.3678(6) 0.7506(3)
C54_3 C 0.0780(6) 0.3563(6) 0.5339(3)
C56_3 C 0.0058(5) 0.3839(6) 0.2578(3)
H29_3 H 0.0310 0.3730 0.2338
H30_3 H 0.0216 0.3488 0.2766
C58_3 C 0.0356(5) 0.2673(5) 0.9612(2)
C59_3 C 0.0775(5) 0.4240(6) 0.5559(3)
H32_3 H 0.0141 0.4809 0.7586
C62_3 C 0.0357(5) 0.4558(6) 0.2717(3)
H33_3 H 0.0040 0.4970 0.2671
C63_3 C 0.0928(5) 0.6225(5) 0.5374(3)
C64_3 C 0.1134(5) 0.4624(7) 0.2552(3)
H34_3 H 0.1368 0.4161 0.2547
H35_3 H 0.1423 0.4941 0.2712
C66_3 C 0.0624(6) 0.4471(7) 0.3132(3)
H36_3 H 0.0814 0.4917 0.3223
H37_3 H 0.0228 0.4324 0.3294
H38_3 H 0.1000 0.4116 0.3139
H42_3 H 0.0160 0.4910 0.8153
C71_3 C 0.1561(6) 0.2619(6) 0.7285(3)
H46_3 H 0.1887 0.2823 0.7480
C72_3 C 0.1885(6) 0.2778(7) 0.6887(3)
H47_3 H 0.1958 0.3287 0.6858
H48_3 H 0.2353 0.2545 0.6862
C73_3 C 0.1576(6) 0.1798(5) 0.7332(3)
H49_3 H 0.1377 0.1672 0.7580
H50_3 H 0.1293 0.1582 0.7131
H51_3 H 0.2069 0.1632 0.7316
C74_3 C 0.1384(6) 0.2515(7) 0.6581(3)
H52_3 H 0.1587 0.2615 0.6331
H53_3 H 0.1317 0.2011 0.6609
H54_3 H 0.0923 0.2751 0.6605
C75_3 C 0.1067(6) 0.4927(6) 0.2135(3)
H55_3 H 0.1542 0.4975 0.2023
H56_3 H 0.0781 0.4608 0.1979
H57_3 H 0.0835 0.5386 0.2144
C79_3 C 0.2338(5) 0.3346(5) 0.9080(3)
H65_3 H 0.2765 0.3526 0.8974
H69_3 H 0.0168631 0.203208 0.610184
H78_3 H 0.214873 0.2833 0.412198
H79_3 H 0.149231 0.338523 0.403227
H80_3 H 0.559627 0.300363 0.918916
H81_3 H 0.496217 0.357069 0.90827
O11_3 O 0.9631(4) 0.2430(4) 0.49426(18)
O20_3 O 0.9889(4) 0.1492(5) 0.56751(19)
C1_3 C 0.9677(5) 0.2741(5) 0.4623(3)
C5_3 C 0.9117(6) 0.4255(6) 0.0557(3)
C6_3 C 0.9250(5) 0.3690(5) 0.2503(3)
C7_3 C 0.8955(5) 0.3218(6) 0.4048(3)
H2_3 H 0.9387 0.3261 0.3910
C8_3 C 0.8956(5) 0.2876(6) 0.4441(3)
C15_3 C 0.9126(6) 0.6251(5) 0.0385(3)
C18_3 C 0.9101(5) 0.4909(5) 0.0369(3)
H6_3 H 0.9145 0.4925 0.0101
C19_3 C 0.8972(5) 0.4214(5) 0.2211(3)
C20_3 C 0.8389(5) 0.4663(5) 0.2368(3)
C23_3 C 0.7677(5) 0.2985(6) 0.4444(3)
C25_3 C 0.8364(5) 0.4456(5) 0.2795(3)
C26_3 C 0.8342(5) 0.3459(6) 0.3897(3)
C29_3 C 0.9020(6) 0.5549(5) 0.0578(3)
C30_3 C 0.8790(5) 0.3557(5) 0.3207(3)
H9_3 H 0.9082 0.3162 0.3256
C32_3 C 0.8972(6) 0.4886(6) 0.1182(3)
C35_3 C 0.8336(5) 0.2758(5) 0.4617(3)
H13_3 H 0.8329 0.2525 0.4855
C36_3 C 0.7657(5) 0.3308(6) 0.4093(3)
H14_3 H 0.7216 0.3430 0.3980
C37_3 C 0.6956(5) 0.2882(5) 0.4673(3)
C38_3 C 0.7872(6) 0.4693(6) 0.3082(3)
H15_3 H 0.7558 0.5068 0.3028
C39_3 C 0.8335(5) 0.3841(6) 0.3507(3)
C41_3 C 0.9155(6) 0.2901(5) 0.2385(3)
H18_3 H 0.9466 0.2818 0.2163
H19_3 H 0.9346 0.2614 0.2596
C42_3 C 0.9250(5) 0.3589(5) 0.0335(3)
C46_3 C 0.9116(6) 0.4223(6) 0.0957(3)
H22_3 H 0.9203 0.3795 0.1084
C48_3 C 0.7853(6) 0.4382(6) 0.3431(3)
H23_3 H 0.7521 0.4529 0.3618
C49_3 C 0.8271(6) 0.5278(6) 0.1774(3)
H24_3 H 0.8074 0.5659 0.1637
C50_3 C 0.8901(5) 0.5508(5) 0.0971(3)
H25_3 H 0.8765 0.5921 0.1102
C51_3 C 0.9103(5) 0.4283(6) 0.1810(3)
H26_3 H 0.9429 0.3970 0.1694
C53_3 C 0.8772(5) 0.4789(6) 0.1584(3)
C55_3 C 0.9901(5) 0.3770(6) 0.7586(3)
H27_3 H 0.9625 0.3616 0.7362
H28_3 H 0.9763 0.3472 0.7804
C57_3 C 0.8796(5) 0.3850(5) 0.2867(3)
C60_3 C 0.8093(6) 0.5175(7) 0.2152(3)
H31_3 H 0.7750 0.5474 0.2264
C61_3 C 0.9716(7) 0.4541(6) 0.7677(3)
C65_3 C 0.9778(7) 0.1628(7) 0.6013(4)
C67_3 C 0.9089(6) 0.4873(7) 0.7464(3)
H39_3 H 0.9125 0.4764 0.7193
H40_3 H 0.8641 0.4686 0.7564
H41_2 H 0.9099 0.5380 0.7499
C68_3 C 0.9690(7) 0.4693(7) 0.8105(3)
H43_2 H 0.9345 0.5083 0.8121
C69_3 C 0.8016(7) 0.2978(6) 0.1958(3)
H44_3 H 0.7543 0.2750 0.1961
H45_3 H 0.8256 0.2794 0.1729
C70_3 C 0.8082(8) 0.2596(8) 0.2690(4)
C76_3 C 0.9552(7) 0.4296(6) 0.8472(3)
H58_3 H 0.9592 0.4616 0.8688
H59_3 H 0.9072 0.4096 0.8465
H60_3 H 0.9902 0.3920 0.8498
C77_3 C 0.7834(5) 0.3754(6) 0.1843(4)
H61_3 H 0.7562 0.3755 0.1606
H62_3 H 0.7552 0.3972 0.2045
H63_3 H 0.8277 0.4017 0.1808
C78_3 C 0.8417(6) 0.2608(7) 0.2287(3)
H64_3 H 0.8487 0.2111 0.2208
N1_3 N 0.9348(5) 0.1469(5) 0.6329(3)
C80_3 C 0.8538(7) 0.1476(7) 0.6198(4)
C81_3 C 0.9223(7) 0.1999(6) 0.6678(3)
H66_3 H 0.807322 0.313438 0.280769
H67_3 H 0.752919 0.239167 0.26726
H68_3 H 0.840388 0.225337 0.287808
H70_3 H 0.897562 0.248816 0.657115
H71_3 H 0.886477 0.175203 0.689016
H72_3 H 0.974241 0.212231 0.681338
H73_3 H 0.845714 0.107971 0.59716
H74_3 H 0.819069 0.135137 0.644424
H75_3 H 0.840001 0.200181 0.608659
O1_4 O 0.1429(4) 0.6885(4) 0.4521(2)
O8_4 O 0.4484(4) 0.6968(3) 0.05234(19)
O13_4 O 0.1947(4) 0.7508(4) 0.49639(19)
O17_4 O 0.1775(4) 0.8199(4) 0.5778(2)
O20_4 O 0.5111(4) 0.8508(5) 0.06751(19)
C2_4 C 0.2870(5) 0.5655(6) 0.3421(3)
H1_4 H 0.2591 0.5465 0.3621
C3_4 C 0.3802(5) 0.6128(6) 0.2846(3)
C4_4 C 0.2643(5) 0.7000(6) 0.4458(3)
C9_4 C 0.3288(5) 0.7215(5) 0.4624(3)
H3_4 H 0.3293 0.7439 0.4864
C10_4 C 0.3286(6) 0.6593(5) 0.3882(3)
C11_4 C 0.4106(5) 0.4490(6) 0.0580(3)
C12_4 C 0.3310(6) 0.5579(6) 0.2758(3)
C13_4 C 0.3931(6) 0.5185(6) 0.1161(3)
C14_4 C 0.3300(5) 0.6278(5) 0.3500(3)
C16_4 C 0.4206(5) 0.5695(6) 0.1839(3)
H4_4 H 0.4586 0.5970 0.1743
C17_4 C 0.2849(5) 0.5307(7) 0.3046(3)
H5_4 H 0.2544 0.4922 0.2999
C21_4 C 0.3866(7) 0.5179(7) 0.1612(3)
C22_4 C 0.1938(5) 0.7149(5) 0.4649(3)
C24_4 C 0.4241(5) 0.5089(5) 0.0376(3)
H7_4 H 0.4346 0.5060 0.0113
C27_4 C 0.3960(6) 0.5777(6) 0.2202(3)
C28_4 C 0.3085(6) 0.4824(6) 0.2158(3)
H8_4 H 0.2735 0.4532 0.2269
C31_4 C 0.3786(5) 0.6480(6) 0.3220(3)
H10_4 H 0.4111 0.6848 0.3271
C33_4 C 0.3958(5) 0.4518(6) 0.0985(3)
H11_4 H 0.3882 0.4103 0.1128
C34_4 C 0.4038(5) 0.5788(6) 0.0962(3)
H12_4 H 0.3992 0.6226 0.1086
C40_4 C 0.4204(5) 0.7102(6) 0.2367(3)
H16_4 H 0.4421 0.7409 0.2561
H17_4 H 0.4487 0.7157 0.2131
C43_4 C 0.3974(5) 0.7081(6) 0.4411(3)
C44_4 C 0.3954(5) 0.6787(5) 0.4075(3)
H20_4 H 0.4391 0.6694 0.3950
C45_4 C 0.3263(6) 0.4795(6) 0.1757(3)
H21_4 H 0.2982 0.4521 0.1589
C47_4 C 0.3502(5) 0.5356(6) 0.2384(3)
C52_4 C 0.4291(5) 0.6322(6) 0.2506(3)
C54_4 C 0.4220(6) 0.6437(6) 0.0339(3)
C55_4 C 0.5099(5) 0.6230(6) 0.2586(3)
H27_4 H 0.5375 0.6384 0.2362
H28_4 H 0.5237 0.6528 0.2804
C58_4 C 0.4644(5) 0.7327(5) 0.4612(2)
C59_4 C 0.4225(5) 0.5760(6) 0.0559(3)
C61_4 C 0.5284(7) 0.5459(6) 0.2677(3)
H32_4 H 0.4859 0.5191 0.2586
C63_4 C 0.4072(5) 0.3775(5) 0.0374(3)
C65_4 C 0.5222(7) 0.8372(7) 0.1013(4)
C67_4 C 0.5911(6) 0.5127(7) 0.2464(3)
H39_4 H 0.5875 0.5236 0.2193
H40_4 H 0.6359 0.5314 0.2564
H41_3 H 0.5901 0.4620 0.2499
C68_4 C 0.5310(7) 0.5307(7) 0.3105(3)
H42_4 H 0.4840 0.5090 0.3153
H43_3 H 0.5655 0.4917 0.3121
C71_4 C 0.3439(6) 0.7381(6) 0.2285(3)
H46_4 H 0.3113 0.7177 0.2480
C72_4 C 0.3115(6) 0.7222(7) 0.1887(3)
H47_4 H 0.3042 0.6713 0.1858
H48_4 H 0.2647 0.7455 0.1862
C73_4 C 0.3424(6) 0.8202(5) 0.2332(3)
H49_4 H 0.3623 0.8328 0.2580
H50_4 H 0.3707 0.8418 0.2131
H51_4 H 0.2931 0.8368 0.2316
C74_4 C 0.3616(6) 0.7485(7) 0.1581(3)
H52_4 H 0.3413 0.7385 0.1331
H53_4 H 0.3683 0.7989 0.1609
H54_4 H 0.4077 0.7249 0.1605
C76_4 C 0.5448(7) 0.5704(6) 0.3472(3)
H58_4 H 0.5408 0.5384 0.3688
H59_4 H 0.5928 0.5904 0.3465
H60_4 H 0.5098 0.6080 0.3498
C79_4 C 0.2662(5) 0.6654(5) 0.4080(3)
H65_4 H 0.2235 0.6474 0.3974
N1_4 N 0.5652(5) 0.8531(5) 0.1329(3)
C80_4 C 0.6462(7) 0.8524(7) 0.1198(4)
C81_4 C 0.5777(7) 0.8001(6) 0.1678(3)
H69_4 H 0.483137 0.796792 0.110184
H70_4 H 0.602438 0.751184 0.157115
H71_4 H 0.613523 0.824797 0.189016
H72_4 H 0.525759 0.787769 0.181338
H73_4 H 0.654286 0.892029 0.0971605
H74_4 H 0.680931 0.864863 0.144424
H75_4 H 0.659999 0.799819 0.108659
H76_4 H 0.202861 0.86298 0.56799
H77_4 H 0.143447 0.833712 0.59881
H81_4 H 0.00378317 0.642931 0.40827
O9_4 O 0.3181(4) 0.6805(4) 0.92365(19)
O11_4 O 0.5369(4) 0.7570(4) 0.99426(18)
O15_4 O 0.3969(5) 0.6429(4) 0.9991(2)
O18_4 O 0.4755(4) 0.7186(4) 0.94262(18)
C1_4 C 0.5323(5) 0.7259(5) 0.9623(3)
C5_4 C 0.5883(6) 0.5745(6) 0.5557(3)
C6_4 C 0.5750(5) 0.6310(5) 0.7503(3)
C7_4 C 0.6045(5) 0.6782(6) 0.9048(3)
H2_4 H 0.5613 0.6739 0.8910
C8_4 C 0.6044(5) 0.7124(6) 0.9441(3)
C15_4 C 0.5874(6) 0.3749(5) 0.5385(3)
C18_4 C 0.5899(5) 0.5091(5) 0.5369(3)
H6_4 H 0.5855 0.5075 0.5101
C19_4 C 0.6028(5) 0.5786(5) 0.7211(3)
C20_4 C 0.6611(5) 0.5337(5) 0.7368(3)
C23_4 C 0.7323(5) 0.7015(6) 0.9444(3)
C25_4 C 0.6636(5) 0.5544(5) 0.7795(3)
C26_4 C 0.6658(5) 0.6541(6) 0.8897(3)
C29_4 C 0.5980(6) 0.4451(5) 0.5578(3)
C30_4 C 0.6210(5) 0.6443(5) 0.8207(3)
H9_4 H 0.5918 0.6838 0.8256
C32_4 C 0.6028(6) 0.5114(6) 0.6182(3)
C35_4 C 0.6664(5) 0.7242(5) 0.9617(3)
H13_4 H 0.6671 0.7475 0.9855
C36_4 C 0.7343(5) 0.6692(6) 0.9093(3)
H14_4 H 0.7784 0.6570 0.8980
C37_4 C 0.8044(5) 0.7118(5) 0.9673(3)
C38_4 C 0.7128(6) 0.5307(6) 0.8082(3)
H15_4 H 0.7442 0.4932 0.8028
C39_4 C 0.6665(5) 0.6159(6) 0.8507(3)
C41_4 C 0.5845(6) 0.7099(5) 0.7385(3)
H18_4 H 0.5534 0.7182 0.7163
H19_4 H 0.5654 0.7386 0.7596
C42_4 C 0.5750(5) 0.6411(5) 0.5335(3)
C46_4 C 0.5884(6) 0.5777(6) 0.5957(3)
H22_4 H 0.5797 0.6205 0.6084
C48_4 C 0.7147(6) 0.5618(6) 0.8431(3)
H23_4 H 0.7479 0.5471 0.8618
C49_4 C 0.6729(6) 0.4722(6) 0.6774(3)
H24_4 H 0.6926 0.4341 0.6637
C50_4 C 0.6099(5) 0.4492(5) 0.5971(3)
H25_4 H 0.6235 0.4079 0.6102
C51_4 C 0.5897(5) 0.5717(6) 0.6810(3)
H26_4 H 0.5571 0.6030 0.6694
C53_4 C 0.6228(5) 0.5211(6) 0.6584(3)
C56_4 C 0.4942(5) 0.6161(6) 0.7578(3)
H29_4 H 0.4690 0.6270 0.7338
H30_4 H 0.4784 0.6512 0.7766
C57_4 C 0.6204(5) 0.6150(5) 0.7867(3)
C60_4 C 0.6907(6) 0.4825(7) 0.7152(3)
H31_4 H 0.7250 0.4526 0.7264
C62_4 C 0.4643(5) 0.5442(6) 0.7717(3)
H33_4 H 0.4960 0.5030 0.7671
C64_4 C 0.3866(5) 0.5376(7) 0.7552(3)
H34_4 H 0.3632 0.5839 0.7547
H35_4 H 0.3577 0.5059 0.7712
C66_4 C 0.4376(6) 0.5529(7) 0.8132(3)
H36_4 H 0.4186 0.5083 0.8223
H37_4 H 0.4772 0.5676 0.8294
H38_4 H 0.4000 0.5884 0.8139
C69_4 C 0.6984(7) 0.7022(6) 0.6958(3)
H44_4 H 0.7457 0.7250 0.6961
H45_4 H 0.6744 0.7206 0.6729
C70_4 C 0.6918(8) 0.7404(8) 0.7690(4)
C75_4 C 0.3933(6) 0.5073(6) 0.7135(3)
H55_4 H 0.3458 0.5025 0.7023
H56_4 H 0.4219 0.5392 0.6979
H57_4 H 0.4165 0.4614 0.7144
C77_4 C 0.7166(5) 0.6246(6) 0.6843(4)
H61_4 H 0.7438 0.6245 0.6606
H62_4 H 0.7448 0.6028 0.7045
H63_4 H 0.6723 0.5983 0.6808
C78_4 C 0.6583(6) 0.7392(7) 0.7287(3)
H64_4 H 0.6513 0.7889 0.7208
H66_4 H 0.692678 0.686562 0.780769
H67_4 H 0.747081 0.760833 0.76726
H68_4 H 0.659612 0.774663 0.787808
H78_4 H 0.285127 0.7167 0.912198
H79_4 H 0.350769 0.661477 0.903227
O16_4 O 0.9734(4) 0.6626(5) 0.4295(2)
H80_4 H 0.940373 0.699637 0.418916
H41_4 H 0.0901 0.0380 0.7501
H43_4 H 0.0655 0.0083 0.6879
loop_
_geom_bond_atom_site_label_1
_geom_bond_atom_site_label_2
_geom_bond_site_symmetry_1
_geom_bond_site_symmetry_2
O16 H80 1_555 1_555
Cu7 O12 1_555 1_555
Cu2 Cu3 1_555 1_555
Cu3 O8 1_555 1_555
Cu4 O1 1_555 1_555
O1 C22 1_555 1_555
O4 C37 1_555 1_555
O5 C42 1_555 1_555
O6 C37 1_555 1_555
O8 C54 1_555 1_555
O9 Cu2 1_555 1_555
O10 C58 1_555 1_555
O11 Cu3 1_555 1_555
O15 Cu2 1_555 1_555
O18 Cu2 1_555 1_555
O19 C58 1_555 1_555
O20 Cu3 1_555 1_555
C1 O11 1_555 1_555
C2 H1 1_555 1_555
C3 C12 1_555 1_555
C4 C9 1_555 1_555
C5 C18 1_555 1_555
C6 C19 1_555 1_555
C7 H2 1_555 1_555
C8 C1 1_555 1_555
C9 H3 1_555 1_555
C10 C14 1_555 1_555
C12 C17 1_555 1_555
C13 C21 1_555 1_555
C14 C2 1_555 1_555
C16 H4 1_555 1_555
C17 C2 1_555 1_555
C18 H6 1_555 1_555
C19 C20 1_555 1_555
C20 C25 1_555 1_555
C21 C16 1_555 1_555
C22 O13 1_555 1_555
C23 C35 1_555 1_555
C24 H7 1_555 1_555
C25 C38 1_555 1_555
C26 C7 1_555 1_555
C27 C16 1_555 1_555
C30 H9 1_555 1_555
C31 C3 1_555 1_555
H10 C31 1_555 1_555
C32 C46 1_555 1_555
C34 C13 1_555 1_555
H12 C34 1_555 1_555
C35 C8 1_555 1_555
H13 C35 1_555 1_555
C36 C23 1_555 1_555
H14 C36 1_555 1_555
C37 C23 1_555 1_555
C39 C26 1_555 1_555
C40 H16 1_555 1_555
H17 C40 1_555 1_555
C41 C6 1_555 1_555
H18 C41 1_555 1_555
H19 C41 1_555 1_555
C42 C5 1_555 1_555
C43 C9 1_555 1_555
C44 C10 1_555 1_555
H20 C44 1_555 1_555
C46 C5 1_555 1_555
H22 C46 1_555 1_555
C47 C12 1_555 1_555
C48 C38 1_555 1_555
H23 C48 1_555 1_555
C51 C19 1_555 1_555
H26 C51 1_555 1_555
C52 C3 1_555 1_555
C53 C32 1_555 1_555
C54 O15 1_555 1_555
C55 C52 1_555 1_555
H27 C55 1_555 1_555
H28 C55 1_555 1_555
C56 C6 1_555 1_555
H29 C56 1_555 1_555
H30 C56 1_555 1_555
C57 C6 1_555 1_555
C58 C43 1_555 1_555
C59 C24 1_555 1_555
C61 C55 1_555 1_555
H32 C61 1_555 1_555
C62 C56 1_555 1_555
H33 C62 1_555 1_555
C64 C62 1_555 1_555
H34 C64 1_555 1_555
H35 C64 1_555 1_555
C65 O20 1_555 1_555
C66 C62 1_555 1_555
H36 C66 1_555 1_555
H37 C66 1_555 1_555
H38 C66 1_555 1_555
C67 C61 1_555 1_555
H39 C67 1_555 1_555
H40 C67 1_555 1_555
C68 C61 1_555 1_555
H42 C68 1_555 1_555
C69 H44 1_555 1_555
H45 C69 1_555 1_555
C70 C78 1_555 1_555
C71 C40 1_555 1_555
H46 C71 1_555 1_555
C72 C71 1_555 1_555
H47 C72 1_555 1_555
H48 C72 1_555 1_555
C73 C71 1_555 1_555
H49 C73 1_555 1_555
H50 C73 1_555 1_555
H51 C73 1_555 1_555
C74 C72 1_555 1_555
H52 C74 1_555 1_555
H53 C74 1_555 1_555
H54 C74 1_555 1_555
C75 C64 1_555 1_555
H55 C75 1_555 1_555
H56 C75 1_555 1_555
C76 C68 1_555 1_555
H58 C76 1_555 1_555
H59 C76 1_555 1_555
H60 C76 1_555 1_555
C77 C69 1_555 1_555
H61 C77 1_555 1_555
H62 C77 1_555 1_555
H63 C77 1_555 1_555
C78 C41 1_555 1_555
H64 C78 1_555 1_555
C79 C4 1_555 1_555
H65 C79 1_555 1_555
N1 C65 1_555 1_555
C80 N1 1_555 1_555
C81 N1 1_555 1_555
Cu7 O10 1_555 1_555
Cu8 O6 1_555 1_555
Cu10 O4 1_555 1_555
Cu14 O5 1_555 1_555
O22 Cu2 1_555 1_555
O23 Cu3 1_555 1_555
O24 Cu4 1_555 1_555
O25 Cu2 1_555 1_555
O26 Cu3 1_555 1_555
O18 C1 1_555 1_555
C4 C22 1_555 1_555
C7 C8 1_555 1_555
C10 C79 1_555 1_555
C14 C31 1_555 1_555
C25 C57 1_555 1_555
C26 C36 1_555 1_555
C27 C47 1_555 1_555
C27 C52 1_555 1_555
C30 C39 1_555 1_555
C30 C57 1_555 1_555
C34 C59 1_555 1_555
C39 C48 1_555 1_555
C40 C52 1_555 1_555
C43 C44 1_555 1_555
C51 C53 1_555 1_555
C54 C59 1_555 1_555
C69 C78 1_555 1_555
Cu8 Cu10 1_555 1_555
C70 H66 1_555 1_555
C70 H67 1_555 1_555
C70 H68 1_555 1_555
C65 H69 1_555 1_555
C81 H70 1_555 1_555
C81 H71 1_555 1_555
C81 H72 1_555 1_555
C80 H73 1_555 1_555
C80 H74 1_555 1_555
C80 H75 1_555 1_555
O9 H78 1_555 1_555
O9 H79 1_555 1_555
O17 Cu1 1_555 1_555
O27 Cu1 1_555 1_555
O28 Cu1 1_555 1_555
O29 Cu1 1_555 1_555
O17 H76 1_555 1_555
O17 H77 1_555 1_555
O2 C63 1_555 1_555
O3 C15 1_555 1_555
O7 C15 1_555 1_555
O14 C63 1_555 1_555
C15 C29 1_555 1_555
C28 H8 1_555 1_555
C33 C11 1_555 1_555
H11 C33 1_555 1_555
H21 C45 1_555 1_555
C49 H24 1_555 1_555
C50 C29 1_555 1_555
H25 C50 1_555 1_555
H31 C60 1_555 1_555
C63 C11 1_555 1_555
Cu5 O14 1_555 1_555
Cu9 O3 1_555 1_555
Cu12 O2 1_555 1_555
C28 C45 1_555 1_555
C49 C60 1_555 1_555
Cu5 Cu12 1_555 1_555
O3_2 C15_2 1_555 1_555
O7_2 C15_2 1_555 1_555
C15_2 C29_2 1_555 1_555
C49_2 H24_2 1_555 1_555
C50_2 C29_2 1_555 1_555
H25_2 C50_2 1_555 1_555
H31_2 C60_2 1_555 1_555
Cu8 O3_2 1_555 1_555
Cu10 O7_2 1_555 1_555
C49_2 C60_2 1_555 1_555
O4_2 C37_2 1_555 1_555
O5_2 C42_2 1_555 1_555
O6_2 C37_2 1_555 1_555
O12_2 C42_2 1_555 1_555
C1_2 O11_2 1_555 1_555
C5_2 C18_2 1_555 1_555
C6_2 C19_2 1_555 1_555
C7_2 H2_2 1_555 1_555
C8_2 C1_2 1_555 1_555
C18_2 H6_2 1_555 1_555
C19_2 C20_2 1_555 1_555
C20_2 C25_2 1_555 1_555
C23_2 C35_2 1_555 1_555
C25_2 C38_2 1_555 1_555
C26_2 C7_2 1_555 1_555
C30_2 H9_2 1_555 1_555
C32_2 C46_2 1_555 1_555
C35_2 C8_2 1_555 1_555
H13_2 C35_2 1_555 1_555
C36_2 C23_2 1_555 1_555
H14_2 C36_2 1_555 1_555
C37_2 C23_2 1_555 1_555
C39_2 C26_2 1_555 1_555
C41_2 C6_2 1_555 1_555
H18_2 C41_2 1_555 1_555
H19_2 C41_2 1_555 1_555
C42_2 C5_2 1_555 1_555
C46_2 C5_2 1_555 1_555
H22_2 C46_2 1_555 1_555
C48_2 C38_2 1_555 1_555
H23_2 C48_2 1_555 1_555
C51_2 C19_2 1_555 1_555
H26_2 C51_2 1_555 1_555
C53_2 C32_2 1_555 1_555
C57_2 C6_2 1_555 1_555
C69_2 H44_2 1_555 1_555
H45_2 C69_2 1_555 1_555
C70_2 C78_2 1_555 1_555
C77_2 C69_2 1_555 1_555
H61_2 C77_2 1_555 1_555
H62_2 C77_2 1_555 1_555
H63_2 C77_2 1_555 1_555
C78_2 C41_2 1_555 1_555
H64_2 C78_2 1_555 1_555
Cu7_2 O12_2 1_555 1_555
Cu11 O4_2 1_555 1_555
Cu14_2 O5_2 1_555 1_555
C7_2 C8_2 1_555 1_555
C25_2 C57_2 1_555 1_555
C26_2 C36_2 1_555 1_555
C30_2 C39_2 1_555 1_555
C30_2 C57_2 1_555 1_555
C39_2 C48_2 1_555 1_555
C51_2 C53_2 1_555 1_555
C69_2 C78_2 1_555 1_555
Cu7_2 Cu14_2 1_555 1_555
C70_2 H66_2 1_555 1_555
C70_2 H67_2 1_555 1_555
C70_2 H68_2 1_555 1_555
H27_2 C55_2 1_555 1_555
H28_2 C55_2 1_555 1_555
C61_2 C55_2 1_555 1_555
C65_2 O20_2 1_555 1_555
C67_2 C61_2 1_555 1_555
H39_2 C67_2 1_555 1_555
H40_2 C67_2 1_555 1_555
C68_2 C61_2 1_555 1_555
C76_2 C68_2 1_555 1_555
H58_2 C76_2 1_555 1_555
H59_2 C76_2 1_555 1_555
H60_2 C76_2 1_555 1_555
N1_2 C65_2 1_555 1_555
C80_2 N1_2 1_555 1_555
C81_2 N1_2 1_555 1_555
Cu7_2 O10_2 1_555 1_555
C81_2 H70_2 1_555 1_555
C81_2 H71_2 1_555 1_555
C81_2 H72_2 1_555 1_555
C80_2 H73_2 1_555 1_555
C80_2 H74_2 1_555 1_555
C80_2 H75_2 1_555 1_555
O21 C63_2 1_555 1_555
O29 C63_2 1_555 1_555
C28_2 H8_2 1_555 1_555
C33_2 C11_2 1_555 1_555
H11_2 C33_2 1_555 1_555
H21_2 C45_2 1_555 1_555
C63_2 C11_2 1_555 1_555
C28_2 C45_2 1_555 1_555
O9_2 Cu2_2 1_555 1_555
O15_2 Cu2_2 1_555 1_555
O18_2 Cu2_2 1_555 1_555
H29_2 C56_2 1_555 1_555
H30_2 C56_2 1_555 1_555
C62_2 C56_2 1_555 1_555
H33_2 C62_2 1_555 1_555
C64_2 C62_2 1_555 1_555
H34_2 C64_2 1_555 1_555
H35_2 C64_2 1_555 1_555
C66_2 C62_2 1_555 1_555
H36_2 C66_2 1_555 1_555
H37_2 C66_2 1_555 1_555
H38_2 C66_2 1_555 1_555
C75_2 C64_2 1_555 1_555
H55_2 C75_2 1_555 1_555
H56_2 C75_2 1_555 1_555
O22_2 Cu2_2 1_555 1_555
O9_2 H78_2 1_555 1_555
O9_2 H79_2 1_555 1_555
Cu3_2 O8_2 1_555 1_555
Cu12 O1_2 1_555 1_555
O1_2 C22_2 1_555 1_555
O8_2 C54_2 1_555 1_555
O13_2 Cu5 1_555 1_555
O16_2 Cu12 1_555 1_555
O17_2 Cu5 1_555 1_555
O19_2 C58_2 1_555 1_555
C2_2 H1_2 1_555 1_555
C3_2 C12_2 1_555 1_555
C4_2 C9_2 1_555 1_555
C9_2 H3_2 1_555 1_555
C10_2 C14_2 1_555 1_555
C12_2 C17_2 1_555 1_555
C13_2 C21_2 1_555 1_555
C14_2 C2_2 1_555 1_555
C16_2 H4_2 1_555 1_555
C17_2 C2_2 1_555 1_555
C21_2 C16_2 1_555 1_555
C22_2 O13_2 1_555 1_555
C24_2 H7_2 1_555 1_555
C27_2 C16_2 1_555 1_555
C31_2 C3_2 1_555 1_555
H10_2 C31_2 1_555 1_555
C34_2 C13_2 1_555 1_555
H12_2 C34_2 1_555 1_555
C40_2 H16_2 1_555 1_555
H17_2 C40_2 1_555 1_555
C43_2 C9_2 1_555 1_555
C44_2 C10_2 1_555 1_555
H20_2 C44_2 1_555 1_555
C47_2 C12_2 1_555 1_555
C52_2 C3_2 1_555 1_555
C58_2 C43_2 1_555 1_555
C59_2 C24_2 1_555 1_555
C71_2 C40_2 1_555 1_555
H46_2 C71_2 1_555 1_555
C72_2 C71_2 1_555 1_555
H47_2 C72_2 1_555 1_555
H48_2 C72_2 1_555 1_555
C73_2 C71_2 1_555 1_555
H49_2 C73_2 1_555 1_555
H50_2 C73_2 1_555 1_555
H51_2 C73_2 1_555 1_555
C74_2 C72_2 1_555 1_555
H52_2 C74_2 1_555 1_555
H53_2 C74_2 1_555 1_555
H54_2 C74_2 1_555 1_555
C79_2 C4_2 1_555 1_555
H65_2 C79_2 1_555 1_555
O23_2 Cu3_2 1_555 1_555
O24_2 Cu12 1_555 1_555
O27_2 Cu5 1_555 1_555
O28_2 Cu5 1_555 1_555
O30_2 Cu12 1_555 1_555
C4_2 C22_2 1_555 1_555
C10_2 C79_2 1_555 1_555
C14_2 C31_2 1_555 1_555
C27_2 C47_2 1_555 1_555
C27_2 C52_2 1_555 1_555
C34_2 C59_2 1_555 1_555
C40_2 C52_2 1_555 1_555
C43_2 C44_2 1_555 1_555
C54_2 C59_2 1_555 1_555
O17_2 H76_2 1_555 1_555
O17_2 H77_2 1_555 1_555
O16_2 H80_2 1_555 1_555
O16_2 H81_2 1_555 1_555
O17_3 Cu7 1_555 1_555
O29_2 Cu7 1_555 1_555
O17_3 H76_3 1_555 1_555
O17_3 H77_3 1_555 1_555
Cu10 O8_3 1_555 1_555
Cu14 O1_3 1_555 1_555
O1_3 C22_3 1_555 1_555
O2_2 C63_3 1_555 1_555
O8_3 C54_3 1_555 1_555
O9_3 Cu8 1_555 1_555
O14_2 C63_3 1_555 1_555
O15_3 Cu8 1_555 1_555
O16_3 Cu14 1_555 1_555
O18_3 Cu8 1_555 1_555
O30 C58_3 1_555 1_555
C2_3 H1_3 1_555 1_555
C3_3 C12_3 1_555 1_555
C4_3 C9_3 1_555 1_555
C9_3 H3_3 1_555 1_555
C10_3 C14_3 1_555 1_555
C11_3 C24_3 1_555 1_555
C12_3 C17_3 1_555 1_555
C13_3 C21_3 1_555 1_555
C14_3 C2_3 1_555 1_555
C16_3 H4_3 1_555 1_555
C17_3 C2_3 1_555 1_555
H5_3 C17_3 1_555 1_555
C21_3 C16_3 1_555 1_555
C22_3 O13_3 1_555 1_555
C24_3 H7_3 1_555 1_555
C27_3 C16_3 1_555 1_555
C28_3 H8_3 1_555 1_555
C31_3 C3_3 1_555 1_555
H10_3 C31_3 1_555 1_555
C33_3 C11_3 1_555 1_555
H11_3 C33_3 1_555 1_555
C34_3 C13_3 1_555 1_555
H12_3 C34_3 1_555 1_555
C40_3 H16_3 1_555 1_555
H17_3 C40_3 1_555 1_555
C43_3 C9_3 1_555 1_555
C44_3 C10_3 1_555 1_555
H20_3 C44_3 1_555 1_555
C45_3 C21_3 1_555 1_555
H21_3 C45_3 1_555 1_555
C47_3 C12_3 1_555 1_555
C52_3 C3_3 1_555 1_555
C54_3 O15_3 1_555 1_555
H29_3 C56_3 1_555 1_555
H30_3 C56_3 1_555 1_555
C58_3 C43_3 1_555 1_555
C59_3 C24_3 1_555 1_555
C62_3 C56_3 1_555 1_555
H33_3 C62_3 1_555 1_555
C63_3 C11_3 1_555 1_555
C64_3 C62_3 1_555 1_555
H34_3 C64_3 1_555 1_555
H35_3 C64_3 1_555 1_555
C66_3 C62_3 1_555 1_555
H36_3 C66_3 1_555 1_555
H37_3 C66_3 1_555 1_555
H38_3 C66_3 1_555 1_555
C71_3 C40_3 1_555 1_555
H46_3 C71_3 1_555 1_555
C72_3 C71_3 1_555 1_555
H47_3 C72_3 1_555 1_555
H48_3 C72_3 1_555 1_555
C73_3 C71_3 1_555 1_555
H49_3 C73_3 1_555 1_555
H50_3 C73_3 1_555 1_555
H51_3 C73_3 1_555 1_555
C74_3 C72_3 1_555 1_555
H52_3 C74_3 1_555 1_555
H53_3 C74_3 1_555 1_555
H54_3 C74_3 1_555 1_555
C75_3 C64_3 1_555 1_555
H55_3 C75_3 1_555 1_555
H56_3 C75_3 1_555 1_555
H57_3 C75_3 1_555 1_555
C79_3 C4_3 1_555 1_555
H65_3 C79_3 1_555 1_555
Cu7_2 O14_2 1_555 1_555
Cu14_2 O2_2 1_555 1_555
C4_3 C22_3 1_555 1_555
C10_3 C79_3 1_555 1_555
C13_3 C33_3 1_555 1_555
C14_3 C31_3 1_555 1_555
C27_3 C47_3 1_555 1_555
C27_3 C52_3 1_555 1_555
C28_3 C45_3 1_555 1_555
C28_3 C47_3 1_555 1_555
C34_3 C59_3 1_555 1_555
C40_3 C52_3 1_555 1_555
C43_3 C44_3 1_555 1_555
C54_3 C59_3 1_555 1_555
O9_3 H78_3 1_555 1_555
O9_3 H79_3 1_555 1_555
O16_3 H80_3 1_555 1_555
O16_3 H81_3 1_555 1_555
O22_2 C15_3 1_555 1_555
O23 C37_3 1_555 1_555
O24 C42_3 1_555 1_555
O25 C37_3 1_555 1_555
O26_2 C15_3 1_555 1_555
C1_3 O11_3 1_555 1_555
C5_3 C18_3 1_555 1_555
C6_3 C19_3 1_555 1_555
C7_3 H2_3 1_555 1_555
C8_3 C1_3 1_555 1_555
C15_3 C29_3 1_555 1_555
C18_3 H6_3 1_555 1_555
C19_3 C20_3 1_555 1_555
C20_3 C25_3 1_555 1_555
C23_3 C35_3 1_555 1_555
C25_3 C38_3 1_555 1_555
C26_3 C7_3 1_555 1_555
C29_3 C18_3 1_555 1_555
C30_3 H9_3 1_555 1_555
C32_3 C46_3 1_555 1_555
C35_3 C8_3 1_555 1_555
H13_3 C35_3 1_555 1_555
C36_3 C23_3 1_555 1_555
H14_3 C36_3 1_555 1_555
C37_3 C23_3 1_555 1_555
C38_3 H15_3 1_555 1_555
C39_3 C26_3 1_555 1_555
C41_3 C6_3 1_555 1_555
H18_3 C41_3 1_555 1_555
H19_3 C41_3 1_555 1_555
C42_3 C5_3 1_555 1_555
C46_3 C5_3 1_555 1_555
H22_3 C46_3 1_555 1_555
C48_3 C38_3 1_555 1_555
H23_3 C48_3 1_555 1_555
C49_3 H24_3 1_555 1_555
C50_3 C29_3 1_555 1_555
H25_3 C50_3 1_555 1_555
C51_3 C19_3 1_555 1_555
H26_3 C51_3 1_555 1_555
C53_3 C32_3 1_555 1_555
H27_3 C55_3 1_555 1_555
H28_3 C55_3 1_555 1_555
C57_3 C6_3 1_555 1_555
C60_3 C20_3 1_555 1_555
H31_3 C60_3 1_555 1_555
C61_3 C55_3 1_555 1_555
C65_3 O20_3 1_555 1_555
C67_3 C61_3 1_555 1_555
H39_3 C67_3 1_555 1_555
H40_3 C67_3 1_555 1_555
H41_2 C67_3 1_555 1_555
C68_3 C61_3 1_555 1_555
H43_2 C68_3 1_555 1_555
C69_3 H44_3 1_555 1_555
H45_3 C69_3 1_555 1_555
C70_3 C78_3 1_555 1_555
C76_3 C68_3 1_555 1_555
H58_3 C76_3 1_555 1_555
H59_3 C76_3 1_555 1_555
H60_3 C76_3 1_555 1_555
C77_3 C69_3 1_555 1_555
H61_3 C77_3 1_555 1_555
H62_3 C77_3 1_555 1_555
H63_3 C77_3 1_555 1_555
C78_3 C41_3 1_555 1_555
H64_3 C78_3 1_555 1_555
N1_3 C65_3 1_555 1_555
C80_3 N1_3 1_555 1_555
C81_3 N1_3 1_555 1_555
C7_3 C8_3 1_555 1_555
C25_3 C57_3 1_555 1_555
C26_3 C36_3 1_555 1_555
C30_3 C39_3 1_555 1_555
C30_3 C57_3 1_555 1_555
C32_3 C50_3 1_555 1_555
C39_3 C48_3 1_555 1_555
C49_3 C53_3 1_555 1_555
C49_3 C60_3 1_555 1_555
C51_3 C53_3 1_555 1_555
C69_3 C78_3 1_555 1_555
C70_3 H66_3 1_555 1_555
C70_3 H67_3 1_555 1_555
C70_3 H68_3 1_555 1_555
C81_3 H70_3 1_555 1_555
C81_3 H71_3 1_555 1_555
C81_3 H72_3 1_555 1_555
C80_3 H73_3 1_555 1_555
C80_3 H74_3 1_555 1_555
C80_3 H75_3 1_555 1_555
Cu11 O8_4 1_555 1_555
Cu14_2 O1_4 1_555 1_555
O1_4 C22_4 1_555 1_555
O21_2 C63_4 1_555 1_555
O8_4 C54_4 1_555 1_555
O27_2 C58_4 1_555 1_555
O13_4 Cu7_2 1_555 1_555
O29_2 C63_4 1_555 1_555
O17_4 Cu7_2 1_555 1_555
O30_2 C58_4 1_555 1_555
O20_4 Cu11 1_555 1_555
C2_4 H1_4 1_555 1_555
C3_4 C12_4 1_555 1_555
C4_4 C9_4 1_555 1_555
C9_4 H3_4 1_555 1_555
C10_4 C14_4 1_555 1_555
C11_4 C24_4 1_555 1_555
C12_4 C17_4 1_555 1_555
C13_4 C21_4 1_555 1_555
C14_4 C2_4 1_555 1_555
C16_4 H4_4 1_555 1_555
C17_4 C2_4 1_555 1_555
H5_4 C17_4 1_555 1_555
C21_4 C16_4 1_555 1_555
C22_4 O13_4 1_555 1_555
C24_4 H7_4 1_555 1_555
C27_4 C16_4 1_555 1_555
C28_4 H8_4 1_555 1_555
C31_4 C3_4 1_555 1_555
H10_4 C31_4 1_555 1_555
C33_4 C11_4 1_555 1_555
H11_4 C33_4 1_555 1_555
C34_4 C13_4 1_555 1_555
H12_4 C34_4 1_555 1_555
C40_4 H16_4 1_555 1_555
H17_4 C40_4 1_555 1_555
C43_4 C9_4 1_555 1_555
C44_4 C10_4 1_555 1_555
H20_4 C44_4 1_555 1_555
C45_4 C21_4 1_555 1_555
H21_4 C45_4 1_555 1_555
C47_4 C12_4 1_555 1_555
C52_4 C3_4 1_555 1_555
C55_4 C52_4 1_555 1_555
H27_4 C55_4 1_555 1_555
H28_4 C55_4 1_555 1_555
C58_4 C43_4 1_555 1_555
C59_4 C24_4 1_555 1_555
C61_4 C55_4 1_555 1_555
H32_4 C61_4 1_555 1_555
C63_4 C11_4 1_555 1_555
C65_4 O20_4 1_555 1_555
C67_4 C61_4 1_555 1_555
H39_4 C67_4 1_555 1_555
H40_4 C67_4 1_555 1_555
H41_3 C67_4 1_555 1_555
C68_4 C61_4 1_555 1_555
H42_4 C68_4 1_555 1_555
H43_3 C68_4 1_555 1_555
C71_4 C40_4 1_555 1_555
H46_4 C71_4 1_555 1_555
C72_4 C71_4 1_555 1_555
H47_4 C72_4 1_555 1_555
H48_4 C72_4 1_555 1_555
C73_4 C71_4 1_555 1_555
H49_4 C73_4 1_555 1_555
H50_4 C73_4 1_555 1_555
H51_4 C73_4 1_555 1_555
C74_4 C72_4 1_555 1_555
H52_4 C74_4 1_555 1_555
H53_4 C74_4 1_555 1_555
H54_4 C74_4 1_555 1_555
C76_4 C68_4 1_555 1_555
H58_4 C76_4 1_555 1_555
H59_4 C76_4 1_555 1_555
H60_4 C76_4 1_555 1_555
C79_4 C4_4 1_555 1_555
H65_4 C79_4 1_555 1_555
N1_4 C65_4 1_555 1_555
C80_4 N1_4 1_555 1_555
C81_4 N1_4 1_555 1_555
C4_4 C22_4 1_555 1_555
C10_4 C79_4 1_555 1_555
C13_4 C33_4 1_555 1_555
C14_4 C31_4 1_555 1_555
C27_4 C47_4 1_555 1_555
C27_4 C52_4 1_555 1_555
C28_4 C45_4 1_555 1_555
C28_4 C47_4 1_555 1_555
C34_4 C59_4 1_555 1_555
C40_4 C52_4 1_555 1_555
C43_4 C44_4 1_555 1_555
C54_4 C59_4 1_555 1_555
C65_4 H69_4 1_555 1_555
C81_4 H70_4 1_555 1_555
C81_4 H71_4 1_555 1_555
C81_4 H72_4 1_555 1_555
C80_4 H73_4 1_555 1_555
C80_4 H74_4 1_555 1_555
C80_4 H75_4 1_555 1_555
O17_4 H76_4 1_555 1_555
O17_4 H77_4 1_555 1_555
O22 C15_4 1_555 1_555
O23_2 C37_4 1_555 1_555
O24_2 C42_4 1_555 1_555
O25_2 C37_4 1_555 1_555
O26 C15_4 1_555 1_555
O9_4 Cu9 1_555 1_555
O28_2 C42_4 1_555 1_555
O15_4 Cu9 1_555 1_555
O18_4 Cu9 1_555 1_555
C1_4 O11_4 1_555 1_555
C5_4 C18_4 1_555 1_555
C6_4 C19_4 1_555 1_555
C7_4 H2_4 1_555 1_555
C8_4 C1_4 1_555 1_555
C15_4 C29_4 1_555 1_555
C18_4 H6_4 1_555 1_555
C19_4 C20_4 1_555 1_555
C20_4 C25_4 1_555 1_555
C23_4 C35_4 1_555 1_555
C25_4 C38_4 1_555 1_555
C26_4 C7_4 1_555 1_555
C29_4 C18_4 1_555 1_555
C30_4 H9_4 1_555 1_555
C32_4 C46_4 1_555 1_555
C35_4 C8_4 1_555 1_555
H13_4 C35_4 1_555 1_555
C36_4 C23_4 1_555 1_555
H14_4 C36_4 1_555 1_555
C37_4 C23_4 1_555 1_555
C38_4 H15_4 1_555 1_555
C39_4 C26_4 1_555 1_555
C41_4 C6_4 1_555 1_555
H18_4 C41_4 1_555 1_555
H19_4 C41_4 1_555 1_555
C42_4 C5_4 1_555 1_555
C46_4 C5_4 1_555 1_555
H22_4 C46_4 1_555 1_555
C48_4 C38_4 1_555 1_555
H23_4 C48_4 1_555 1_555
C49_4 H24_4 1_555 1_555
C50_4 C29_4 1_555 1_555
H25_4 C50_4 1_555 1_555
C51_4 C19_4 1_555 1_555
H26_4 C51_4 1_555 1_555
C53_4 C32_4 1_555 1_555
C56_4 C6_4 1_555 1_555
H29_4 C56_4 1_555 1_555
H30_4 C56_4 1_555 1_555
C57_4 C6_4 1_555 1_555
C60_4 C20_4 1_555 1_555
H31_4 C60_4 1_555 1_555
C62_4 C56_4 1_555 1_555
H33_4 C62_4 1_555 1_555
C64_4 C62_4 1_555 1_555
H34_4 C64_4 1_555 1_555
H35_4 C64_4 1_555 1_555
C66_4 C62_4 1_555 1_555
H36_4 C66_4 1_555 1_555
H37_4 C66_4 1_555 1_555
H38_4 C66_4 1_555 1_555
C69_4 H44_4 1_555 1_555
H45_4 C69_4 1_555 1_555
C70_4 C78_4 1_555 1_555
C75_4 C64_4 1_555 1_555
H55_4 C75_4 1_555 1_555
H56_4 C75_4 1_555 1_555
H57_4 C75_4 1_555 1_555
C77_4 C69_4 1_555 1_555
H61_4 C77_4 1_555 1_555
H62_4 C77_4 1_555 1_555
H63_4 C77_4 1_555 1_555
C78_4 C41_4 1_555 1_555
H64_4 C78_4 1_555 1_555
O18_4 C1_4 1_555 1_555
C7_4 C8_4 1_555 1_555
C25_4 C57_4 1_555 1_555
C26_4 C36_4 1_555 1_555
C30_4 C39_4 1_555 1_555
C30_4 C57_4 1_555 1_555
C32_4 C50_4 1_555 1_555
C39_4 C48_4 1_555 1_555
C49_4 C53_4 1_555 1_555
C49_4 C60_4 1_555 1_555
C51_4 C53_4 1_555 1_555
C69_4 C78_4 1_555 1_555
C70_4 H66_4 1_555 1_555
C70_4 H67_4 1_555 1_555
C70_4 H68_4 1_555 1_555
O9_4 H78_4 1_555 1_555
O9_4 H79_4 1_555 1_555
O16_4 H80_4 1_555 1_555

#END
