
###############################################################################
#
# This file contains modified crystal structure data generated from the
# MOF subset of the Cambridge Structural Database (CSD) v543 
# hosted by the Cambridge Crystallographic Data Centre (CCDC).
#
# This work is licensed under the Creative Commons
# Attribution-NonCommercial-ShareAlike 4.0 International License.
# To view a copy of this license, visit
# http://creativecommons.org/licenses/by-nc-sa/4.0/
# or send a letter to
# Creative Commons, PO Box 1866, Mountain View, CA 94042, USA.
#
# CIF created using the CSD Python API on 29 September 2022
# The structure has been converted into the P1 space group
# The structure has a 3D framework
# The original CSD entry NAXKOO01 is in the monoclinic crystal system
# The framework has been calculated to contain at least 10.0% void space
# The void calculation uses a probe of radius 1.32A, grid spacing 0.4
# H atom positions have been added when not included in the experimental data
#
###############################################################################

data_NAXKOO01
_chemical_formula_moiety         '(C32 H20 Al8 N4 O18)n'
_symmetry_cell_setting           triclinic
_symmetry_space_group_name_H-M   'P 1'
_symmetry_Int_Tables_number      1
_space_group_name_Hall           'P 1'
loop_
_symmetry_equiv_pos_site_id
_symmetry_equiv_pos_as_xyz
1 x,y,z
_cell_length_a                   20.538(16)
_cell_length_b                   7.7998(22)
_cell_length_c                   6.6080(35)
_cell_angle_alpha                90
_cell_angle_beta                 112.35(9)
_cell_angle_gamma                90
_cell_volume                     979.03
loop_
_atom_site_label
_atom_site_type_symbol
_atom_site_fract_x
_atom_site_fract_y
_atom_site_fract_z
_atom_site_U_iso_or_equiv
_atom_site_thermal_displace_type
Al1 Al 0.00000 0.0000 0.00000 0.0373 Uiso
Al2 Al -0.00000 0.0000 0.50000 0.0373 Uiso
O6 O 0.078(19) 0.156(30) 0.00(5) 0.0180 Uiso
O9 O 0.00264 0.1103 0.23903 0.0148 Uiso
Al1_2 Al -0.00000 0.0000 1.00000 0.0373 Uiso
O6_2 O 0.078(19) 0.156(30) 1.00(5) 0.0180 Uiso
Al4 Al 0.50000 0.5000 0.00000 0.0373 Uiso
Al1_3 Al -0.00000 1.0000 0.00000 0.0373 Uiso
C1 C 0.179(31) 0.77(5) 0.45(12) 0.0128 Uiso
C2 C 0.212(34) 0.74(5) 0.30(12) 0.0073 Uiso
C3 C 0.285(35) 0.69(5) 0.38(9) 0.0104 Uiso
C4 C 0.324(30) 0.69(5) 0.60(9) 0.0128 Uiso
C5 C 0.291(32) 0.72(5) 0.75(9) 0.0073 Uiso
C6 C 0.22(4) 0.76(5) 0.67(10) 0.0104 Uiso
C7 C 0.107(31) 0.81(5) 0.37(10) 0.0137 Uiso
O1 O 0.072(19) 0.820(30) 0.17(5) 0.0046 Uiso
O2 O 0.078(19) 0.844(30) 0.50(5) 0.0180 Uiso
C8 C 0.396(31) 0.64(6) 0.68(8) 0.0137 Uiso
O3 O 0.425(22) 0.612(31) 0.55(7) 0.0180 Uiso
O4 O 0.431(19) 0.635(33) 0.88(6) 0.0046 Uiso
N1 N 0.173(19) 0.74(4) 0.07(6) 0.0086 Uiso
Al2_2 Al -0.00000 1.0000 0.50000 0.0373 Uiso
Al3 Al 0.50000 0.5000 0.50000 0.0373 Uiso
Al4_2 Al 0.50000 0.5000 1.00000 0.0373 Uiso
H1 H 0.195351 0.784779 0.786756 . .
H2 H 0.309036 0.652321 0.265553 . .
H3 H 0.321024 0.711722 0.925538 . .
H5 H 0.120329 0.761827 0.0101 . .
Al1_4 Al -0.00000 1.0000 1.00000 0.0373 Uiso
O5 O 0.00264 0.8897 0.73903 0.0148 Uiso
H4 H 0.197858 0.718173 0.965874 . .
Al1_5 Al 1.00000 0.0000 0.00000 0.0373 Uiso
Al2_3 Al 1.00000 0.0000 0.50000 0.0373 Uiso
Al1_6 Al 1.00000 0.0000 1.00000 0.0373 Uiso
O8 O 0.931(19) 0.135(33) 0.88(6) 0.0046 Uiso
Al1_7 Al 1.00000 1.0000 0.00000 0.0373 Uiso
Al2_4 Al 1.00000 1.0000 0.50000 0.0373 Uiso
O7 O 0.925(22) 0.888(31) 0.05(7) 0.0180 Uiso
Al1_8 Al 1.00000 1.0000 1.00000 0.0373 Uiso
C4_2 C 0.324(30) 0.31(5) 0.10(9) 0.0128 Uiso
C5_2 C 0.291(32) 0.28(5) 0.25(9) 0.0073 Uiso
C6_2 C 0.22(4) 0.24(5) 0.17(10) 0.0104 Uiso
C8_2 C 0.396(31) 0.36(6) 0.18(8) 0.0137 Uiso
O3_2 O 0.425(22) 0.388(31) 0.05(7) 0.0180 Uiso
O4_2 O 0.431(19) 0.365(33) 0.38(6) 0.0046 Uiso
H1_2 H 0.195351 0.215221 0.286756 . .
H3_2 H 0.321024 0.288278 0.425538 . .
C1_2 C 0.179(31) 0.23(5) 0.95(12) 0.0128 Uiso
C2_2 C 0.212(34) 0.26(5) 0.80(12) 0.0073 Uiso
C3_2 C 0.285(35) 0.31(5) 0.88(9) 0.0104 Uiso
C7_2 C 0.107(31) 0.19(5) 0.87(10) 0.0137 Uiso
O1_2 O 0.072(19) 0.180(30) 0.67(5) 0.0046 Uiso
N1_2 N 0.173(19) 0.26(4) 0.57(6) 0.0086 Uiso
H2_2 H 0.309036 0.347679 0.765553 . .
H4_2 H 0.197858 0.281827 0.465874 . .
H5_2 H 0.120329 0.238173 0.5101 . .
O7_2 O 0.925(22) 0.112(31) 0.55(7) 0.0180 Uiso
O8_2 O 0.931(19) 0.865(33) 0.38(6) 0.0046 Uiso
C1_3 C 0.679(31) 0.27(5) 0.45(12) 0.0128 Uiso
C2_3 C 0.712(34) 0.24(5) 0.30(12) 0.0073 Uiso
C3_3 C 0.785(35) 0.19(5) 0.38(9) 0.0104 Uiso
C4_3 C 0.824(30) 0.19(5) 0.60(9) 0.0128 Uiso
C5_3 C 0.791(32) 0.22(5) 0.75(9) 0.0073 Uiso
C6_3 C 0.72(4) 0.26(5) 0.67(10) 0.0104 Uiso
C7_3 C 0.607(31) 0.31(5) 0.37(10) 0.0137 Uiso
O1_3 O 0.572(19) 0.320(30) 0.17(5) 0.0046 Uiso
O2_2 O 0.578(19) 0.344(30) 0.50(5) 0.0180 Uiso
C8_3 C 0.896(31) 0.14(6) 0.68(8) 0.0137 Uiso
N1_3 N 0.673(19) 0.24(4) 0.07(6) 0.0086 Uiso
O6_3 O 0.578(19) 0.656(30) 0.00(5) 0.0180 Uiso
O9_2 O 0.50264 0.6103 0.23903 0.0148 Uiso
H1_3 H 0.695351 0.284779 0.786756 . .
H2_3 H 0.809036 0.152321 0.265553 . .
H3_3 H 0.821024 0.211722 0.925538 . .
H5_3 H 0.620329 0.261827 0.0101 . .
O5_2 O 0.50264 0.3897 0.73903 0.0148 Uiso
O6_4 O 0.578(19) 0.656(30) 1.00(5) 0.0180 Uiso
H4_3 H 0.697858 0.218173 0.965874 . .
C4_4 C 0.824(30) 0.81(5) 0.10(9) 0.0128 Uiso
C5_4 C 0.791(32) 0.78(5) 0.25(9) 0.0073 Uiso
C6_4 C 0.72(4) 0.74(5) 0.17(10) 0.0104 Uiso
C8_4 C 0.896(31) 0.86(6) 0.18(8) 0.0137 Uiso
H1_4 H 0.695351 0.715221 0.286756 . .
H3_4 H 0.821024 0.788278 0.425538 . .
C1_4 C 0.679(31) 0.73(5) 0.95(12) 0.0128 Uiso
C2_4 C 0.712(34) 0.76(5) 0.80(12) 0.0073 Uiso
C3_4 C 0.785(35) 0.81(5) 0.88(9) 0.0104 Uiso
C7_4 C 0.607(31) 0.69(5) 0.87(10) 0.0137 Uiso
O1_4 O 0.572(19) 0.680(30) 0.67(5) 0.0046 Uiso
N1_4 N 0.673(19) 0.76(4) 0.57(6) 0.0086 Uiso
H2_4 H 0.809036 0.847679 0.765553 . .
H4_4 H 0.697858 0.781827 0.465874 . .
H5_4 H 0.620329 0.738173 0.5101 . .
loop_
_geom_bond_atom_site_label_1
_geom_bond_atom_site_label_2
_geom_bond_site_symmetry_1
_geom_bond_site_symmetry_2
O6 Al1 1_555 1_555
O9 Al1 1_555 1_555
Al2 O9 1_555 1_555
O6_2 Al1_2 1_555 1_555
Al1_3 O1 1_555 1_555
C1 C2 1_555 1_555
C2 C3 1_555 1_555
C3 C4 1_555 1_555
C4 C5 1_555 1_555
C5 C6 1_555 1_555
C6 C1 1_555 1_555
C7 C1 1_555 1_555
O1 C7 1_555 1_555
O2 C7 1_555 1_555
C8 C4 1_555 1_555
O3 C8 1_555 1_555
O4 C8 1_555 1_555
N1 C2 1_555 1_555
Al2_2 O2 1_555 1_555
Al3 O3 1_555 1_555
Al4_2 O4 1_555 1_555
C6 H1 1_555 1_555
C3 H2 1_555 1_555
C5 H3 1_555 1_555
N1 H5 1_555 1_555
O5 Al1_4 1_555 1_555
Al2_2 O5 1_555 1_555
O8 Al1_6 1_555 1_555
O7 Al1_7 1_555 1_555
C4_2 C5_2 1_555 1_555
C5_2 C6_2 1_555 1_555
C8_2 C4_2 1_555 1_555
O3_2 C8_2 1_555 1_555
O4_2 C8_2 1_555 1_555
Al4 O3_2 1_555 1_555
Al3 O4_2 1_555 1_555
C6_2 H1_2 1_555 1_555
C5_2 H3_2 1_555 1_555
Al2 O1_2 1_555 1_555
C1_2 C2_2 1_555 1_555
C2_2 C3_2 1_555 1_555
C7_2 C1_2 1_555 1_555
O1_2 C7_2 1_555 1_555
O6_2 C7_2 1_555 1_555
N1_2 C2_2 1_555 1_555
C3_2 H2_2 1_555 1_555
N1_2 H4_2 1_555 1_555
N1_2 H5_2 1_555 1_555
O7_2 Al2_3 1_555 1_555
O8_2 Al2_4 1_555 1_555
Al4 O1_3 1_555 1_555
C1_3 C2_3 1_555 1_555
C2_3 C3_3 1_555 1_555
C3_3 C4_3 1_555 1_555
C4_3 C5_3 1_555 1_555
C5_3 C6_3 1_555 1_555
C6_3 C1_3 1_555 1_555
C7_3 C1_3 1_555 1_555
O1_3 C7_3 1_555 1_555
O2_2 C7_3 1_555 1_555
C8_3 C4_3 1_555 1_555
O7_2 C8_3 1_555 1_555
O8 C8_3 1_555 1_555
N1_3 C2_3 1_555 1_555
Al3 O2_2 1_555 1_555
O6_3 Al4 1_555 1_555
O9_2 Al4 1_555 1_555
Al3 O9_2 1_555 1_555
C6_3 H1_3 1_555 1_555
C3_3 H2_3 1_555 1_555
C5_3 H3_3 1_555 1_555
N1_3 H5_3 1_555 1_555
O5_2 Al4_2 1_555 1_555
Al3 O5_2 1_555 1_555
O6_4 Al4_2 1_555 1_555
C4_4 C5_4 1_555 1_555
C5_4 C6_4 1_555 1_555
C8_4 C4_4 1_555 1_555
O7 C8_4 1_555 1_555
O8_2 C8_4 1_555 1_555
C6_4 H1_4 1_555 1_555
C5_4 H3_4 1_555 1_555
Al3 O1_4 1_555 1_555
C1_4 C2_4 1_555 1_555
C2_4 C3_4 1_555 1_555
C7_4 C1_4 1_555 1_555
O1_4 C7_4 1_555 1_555
O6_4 C7_4 1_555 1_555
N1_4 C2_4 1_555 1_555
C3_4 H2_4 1_555 1_555
N1_4 H4_4 1_555 1_555
N1_4 H5_4 1_555 1_555

#END
