
###############################################################################
#
# This file contains modified crystal structure data generated from the
# MOF subset of the Cambridge Structural Database (CSD) v543 
# hosted by the Cambridge Crystallographic Data Centre (CCDC).
#
# This work is licensed under the Creative Commons
# Attribution-NonCommercial-ShareAlike 4.0 International License.
# To view a copy of this license, visit
# http://creativecommons.org/licenses/by-nc-sa/4.0/
# or send a letter to
# Creative Commons, PO Box 1866, Mountain View, CA 94042, USA.
#
# CIF created using the CSD Python API on 29 September 2022
# The structure has been converted into the P1 space group
# The structure has a 3D framework
# The original CSD entry NAXVOY02 is in the monoclinic crystal system
# The framework has been calculated to contain at least 10.0% void space
# The void calculation uses a probe of radius 1.32A, grid spacing 0.4
#
###############################################################################

data_NAXVOY02
_chemical_formula_moiety         '(C24 H24 Mg23 O48)n'
_symmetry_cell_setting           triclinic
_symmetry_space_group_name_H-M   'P 1'
_symmetry_Int_Tables_number      1
_space_group_name_Hall           'P 1'
loop_
_symmetry_equiv_pos_site_id
_symmetry_equiv_pos_as_xyz
1 x,y,z
_cell_length_a                   11.3590(10)
_cell_length_b                   9.8850(10)
_cell_length_c                   14.5840(10)
_cell_angle_alpha                90
_cell_angle_beta                 91.3700(10)
_cell_angle_gamma                90
_cell_volume                     1637.08
loop_
_atom_site_label
_atom_site_type_symbol
_atom_site_fract_x
_atom_site_fract_y
_atom_site_fract_z
Mg1 Mg 0.25624(4) 0.07763(4) 0.13469(3)
Mg2 Mg 0.0000 0.0000 0.0000
Mg4 Mg 0.5000 0.0000 0.0000
O2 O 0.15673(8) 0.25443(9) 0.11163(6)
O3 O 0.30704(8) 0.19857(9) 0.24709(6)
O4 O 0.39855(8) 0.15113(9) 0.06296(6)
O8 O 0.01984(9) 0.20660(11) 0.00391(7)
O9 O 0.38848(9) 0.37161(10) 0.09732(7)
O12 O 0.31438(9) 0.05526(10) 0.36560(7)
C2 C 0.07862(13) 0.28579(15) 0.05137(10)
H2 H 0.0642 0.3795 0.0421
C3 C 0.32948(12) 0.16759(14) 0.33031(10)
H3 H 0.3607 0.2370 0.3689
C4 C 0.43044(12) 0.27471(14) 0.05628(10)
H4 H 0.4925 0.2936 0.0157
Mg9 Mg 0.26033(4) 0.38684(4) 0.19071(3)
O32 O 0.64991(9) 0.10484(11) 0.03291(7)
Mg2_2 Mg 0.0000 0.0000 1.0000
Mg4_2 Mg 0.5000 0.0000 1.0000
Mg12 Mg 0.76033(4) 0.11316(4) 0.69071(3)
O23 O 0.65063(8) 0.08267(9) 0.80396(7)
O26 O 0.03668(9) 0.00178(11) 0.86237(7)
O30 O 0.48324(9) 0.10730(11) 0.87961(7)
H7 H 0.0230 0.0408 0.7378
C11 C 0.54903(13) 0.13227(15) 0.81618(10)
H11 H 0.5210 0.1953 0.7716
Mg2_3 Mg 0.0000 1.0000 0.0000
Mg3 Mg 0.23967(4) 0.88684(4) 0.30929(3)
Mg4_3 Mg 0.5000 1.0000 0.0000
O1 O 0.13080(8) 0.99143(9) 0.21943(7)
O5 O 0.34937(8) 0.91733(9) 0.19604(7)
O6 O 0.18312(8) 0.97403(10) 0.02483(7)
O10 O 0.51676(9) 0.89270(11) 0.12039(7)
C1 C 0.02008(12) 0.98158(15) 0.20926(10)
C5 C 0.45097(13) 0.86773(15) 0.18382(10)
H5 H 0.4790 0.8047 0.2284
Mg6 Mg 0.24376(4) 0.57763(4) 0.36531(3)
Mg14 Mg -0.0000 0.5000 0.5000
O15 O 0.34327(8) 0.75443(9) 0.38837(6)
O17 O 0.19296(8) 0.69857(9) 0.25291(6)
O20 O 0.10145(8) 0.65113(9) 0.43704(6)
O28 O 0.11152(9) 0.87161(10) 0.40268(7)
O33 O 0.18562(9) 0.55526(10) 0.13440(7)
C9 C 0.17052(12) 0.66759(14) 0.16969(10)
H9 H 0.1393 0.7370 0.1311
C10 C 0.06956(12) 0.77471(14) 0.44372(10)
H10 H 0.0075 0.7936 0.4843
Mg2_4 Mg 0.0000 1.0000 1.0000
Mg4_4 Mg 0.5000 1.0000 1.0000
O11 O 0.35009(9) 0.89516(11) 0.96709(7)
C6 C 0.24262(12) 0.90044(15) 0.97034(10)
H6 H 0.1992 0.8448 0.9286
Mg7 Mg 0.74376(4) 0.92237(4) 0.86531(3)
O21 O 0.60145(8) 0.84887(9) 0.93704(6)
Mg2_5 Mg 1.0000 0.0000 0.0000
C12 C 0.75738(12) 0.09956(15) 0.02966(10)
H12 H 0.8008 0.1552 0.0714
Mg2_6 Mg 1.0000 0.0000 1.0000
O13 O 0.86920(8) 0.00857(9) 0.78057(7)
O16 O 0.65673(8) 0.24557(9) 0.61163(6)
O19 O 0.80704(8) 0.30143(9) 0.74709(6)
O25 O 0.81688(8) 0.02597(10) 0.97517(7)
O29 O 0.88848(9) 0.12839(10) 0.59732(7)
C7 C 0.97992(12) 0.01842(15) 0.79074(10)
Mg2_7 Mg 1.0000 1.0000 0.0000
O7 O 0.96332(9) 0.99822(11) 0.13763(7)
H1 H 0.9770 0.9592 0.2622
Mg14_2 Mg 1.0000 0.5000 0.5000
Mg2_8 Mg 1.0000 1.0000 1.0000
Mg10 Mg 0.73967(4) 0.61316(4) 0.80929(3)
O14 O 0.84327(8) 0.74557(9) 0.88837(6)
O18 O 0.69296(8) 0.80143(9) 0.75291(6)
O27 O 0.98016(9) 0.79340(11) 0.99609(7)
O34 O 0.68562(9) 0.94474(10) 0.63440(7)
C8 C 0.92138(13) 0.71421(15) 0.94863(10)
H8 H 0.9358 0.6205 0.9579
Mg2_9 Mg 0.5000 0.5000 0.5000
O1_2 O 0.36920(8) 0.49143(9) 0.28057(7)
O5_2 O 0.15063(8) 0.41733(9) 0.30396(7)
O6_2 O 0.31688(8) 0.47403(10) 0.47517(7)
O7_2 O 0.53668(9) 0.49822(11) 0.36237(7)
O8_2 O 0.48016(9) 0.70660(11) 0.49609(7)
O11_2 O 0.14991(9) 0.39516(11) 0.53291(7)
C1_2 C 0.47992(12) 0.48158(15) 0.29074(10)
H1_2 H 0.5230 0.4592 0.2378
C2_2 C 0.42138(13) 0.78579(15) 0.44863(10)
H2_2 H 0.4358 0.8795 0.4579
C5_2 C 0.04903(13) 0.36773(15) 0.31618(10)
H5_2 H 0.0210 0.3047 0.2716
C6_2 C 0.25738(12) 0.40044(15) 0.52966(10)
H6_2 H 0.3008 0.3448 0.5714
Mg5 Mg 0.75624(4) 0.42237(4) 0.63469(3)
O13_2 O 0.63080(8) 0.50857(9) 0.71943(7)
O22 O 0.89855(8) 0.34887(9) 0.56296(6)
O24 O 0.84937(8) 0.58267(9) 0.69604(7)
O25_2 O 0.68312(8) 0.52597(10) 0.52483(7)
O26_2 O 0.46332(9) 0.50178(11) 0.63763(7)
O27_2 O 0.51984(9) 0.29340(11) 0.50391(7)
O29_2 O 0.61152(9) 0.62839(10) 0.90268(7)
O30_2 O 0.01676(9) 0.60730(11) 0.62039(7)
O31 O 0.85009(9) 0.60484(11) 0.46709(7)
O34_2 O 0.81438(9) 0.44474(10) 0.86560(7)
C7_2 C 0.52008(12) 0.51842(15) 0.70926(10)
H7_2 H 0.4770 0.5408 0.7622
C8_2 C 0.57862(13) 0.21421(15) 0.55137(10)
H8_2 H 0.5642 0.1205 0.5421
C12_2 C 0.74262(12) 0.59956(15) 0.47034(10)
H12_2 H 0.6992 0.6552 0.4286
O10_2 O 0.98324(9) 0.39270(11) 0.37961(7)
C11_2 C 0.95097(13) 0.63227(15) 0.68382(10)
H11_2 H 0.9790 0.6953 0.7284
C9_2 C 0.82948(12) 0.33241(14) 0.83031(10)
H9_2 H 0.8607 0.2630 0.8689
C10_2 C 0.93044(12) 0.22529(14) 0.55628(10)
H10_2 H 0.9925 0.2064 0.5157
C3_2 C 0.67052(12) 0.83241(14) 0.66969(10)
H3_2 H 0.6393 0.7630 0.6311
C4_2 C 0.56956(12) 0.72529(14) 0.94372(10)
H4_2 H 0.5075 0.7064 0.9843
loop_
_geom_bond_atom_site_label_1
_geom_bond_atom_site_label_2
_geom_bond_site_symmetry_1
_geom_bond_site_symmetry_2
Mg4 O4 1_555 1_555
O2 Mg1 1_555 1_555
O3 Mg1 1_555 1_555
O4 Mg1 1_555 1_555
O8 Mg2 1_555 1_555
O9 C4 1_555 1_555
C2 O2 1_555 1_555
H2 C2 1_555 1_555
C3 O3 1_555 1_555
H3 C3 1_555 1_555
C4 O4 1_555 1_555
H4 C4 1_555 1_555
Mg9 O2 1_555 1_555
O32 Mg4 1_555 1_555
O3 Mg9 1_555 1_555
O8 C2 1_555 1_555
O9 Mg9 1_555 1_555
O12 C3 1_555 1_555
Mg12 O23 1_555 1_555
O26 Mg2_2 1_555 1_555
O30 Mg4_2 1_555 1_555
C11 O23 1_555 1_555
H11 C11 1_555 1_555
O30 C11 1_555 1_555
Mg2_3 O6 1_555 1_555
Mg3 O1 1_555 1_555
O1 C1 1_555 1_555
O10 Mg4_3 1_555 1_555
C5 O5 1_555 1_555
H5 C5 1_555 1_555
Mg6 O15 1_555 1_555
Mg9 O33 1_555 1_555
Mg14 O20 1_555 1_555
O15 Mg3 1_555 1_555
O17 Mg3 1_555 1_555
O20 Mg6 1_555 1_555
O28 Mg3 1_555 1_555
O33 C9 1_555 1_555
C9 O17 1_555 1_555
H9 C9 1_555 1_555
C10 O20 1_555 1_555
H10 C10 1_555 1_555
Mg3 O5 1_555 1_555
O10 C5 1_555 1_555
Mg6 O17 1_555 1_555
O28 C10 1_555 1_555
O11 Mg4_4 1_555 1_555
H6 C6 1_555 1_555
Mg7 O21 1_555 1_555
O21 Mg4_4 1_555 1_555
O11 C6 1_555 1_555
H12 C12 1_555 1_555
O32 C12 1_555 1_555
Mg12 O13 1_555 1_555
O13 C7 1_555 1_555
O16 Mg12 1_555 1_555
O19 Mg12 1_555 1_555
O25 Mg2_6 1_555 1_555
O29 Mg12 1_555 1_555
O7 Mg2_7 1_555 1_555
Mg10 O14 1_555 1_555
O14 Mg7 1_555 1_555
O18 Mg7 1_555 1_555
O27 Mg2_8 1_555 1_555
C8 O14 1_555 1_555
H8 C8 1_555 1_555
Mg10 O18 1_555 1_555
O27 C8 1_555 1_555
Mg6 O1_2 1_555 1_555
Mg2_9 O6_2 1_555 1_555
Mg9 O1_2 1_555 1_555
O1_2 C1_2 1_555 1_555
O5_2 Mg6 1_555 1_555
O6_2 Mg6 1_555 1_555
O7_2 Mg2_9 1_555 1_555
O8_2 Mg2_9 1_555 1_555
O11_2 Mg14 1_555 1_555
C1_2 O7_2 1_555 1_555
H1_2 C1_2 1_555 1_555
C2_2 O15 1_555 1_555
H2_2 C2_2 1_555 1_555
C5_2 O5_2 1_555 1_555
H5_2 C5_2 1_555 1_555
C6_2 O6_2 1_555 1_555
H6_2 C6_2 1_555 1_555
Mg5 O13_2 1_555 1_555
Mg10 O13_2 1_555 1_555
Mg14_2 O22 1_555 1_555
O13_2 C7_2 1_555 1_555
O16 Mg5 1_555 1_555
O19 Mg5 1_555 1_555
O22 Mg5 1_555 1_555
O24 Mg5 1_555 1_555
O25_2 Mg2_9 1_555 1_555
O26_2 Mg2_9 1_555 1_555
O27_2 Mg2_9 1_555 1_555
O29_2 Mg10 1_555 1_555
O30_2 Mg14 1_555 1_555
O31 Mg14_2 1_555 1_555
O34_2 Mg10 1_555 1_555
C7_2 O26_2 1_555 1_555
H7_2 C7_2 1_555 1_555
C8_2 O16 1_555 1_555
H8_2 C8_2 1_555 1_555
C12_2 O25_2 1_555 1_555
H12_2 C12_2 1_555 1_555
Mg9 O5_2 1_555 1_555
O8_2 C2_2 1_555 1_555
O11_2 C6_2 1_555 1_555
Mg5 O25_2 1_555 1_555
Mg10 O24 1_555 1_555
O27_2 C8_2 1_555 1_555
O31 C12_2 1_555 1_555
O10_2 Mg14_2 1_555 1_555
C11_2 O24 1_555 1_555
H11_2 C11_2 1_555 1_555
O34_2 C9_2 1_555 1_555
C9_2 O19 1_555 1_555
H9_2 C9_2 1_555 1_555
C10_2 O22 1_555 1_555
H10_2 C10_2 1_555 1_555
O29 C10_2 1_555 1_555
O29_2 C4_2 1_555 1_555
C3_2 O18 1_555 1_555
H3_2 C3_2 1_555 1_555
C4_2 O21 1_555 1_555
H4_2 C4_2 1_555 1_555
O34 C3_2 1_555 1_555

#END
