
###############################################################################
#
# This file contains modified crystal structure data generated from the
# MOF subset of the Cambridge Structural Database (CSD) v543 
# hosted by the Cambridge Crystallographic Data Centre (CCDC).
#
# This work is licensed under the Creative Commons
# Attribution-NonCommercial-ShareAlike 4.0 International License.
# To view a copy of this license, visit
# http://creativecommons.org/licenses/by-nc-sa/4.0/
# or send a letter to
# Creative Commons, PO Box 1866, Mountain View, CA 94042, USA.
#
# CIF created using the CSD Python API on 29 September 2022
# The structure has been converted into the P1 space group
# The structure has a 3D framework
# The original CSD entry NAXVOY03 is in the monoclinic crystal system
# The framework has been calculated to contain at least 10.0% void space
# The void calculation uses a probe of radius 1.32A, grid spacing 0.4
#
###############################################################################

data_NAXVOY03
_chemical_formula_moiety         '(C24 H24 Mg23 O48)n'
_symmetry_cell_setting           triclinic
_symmetry_space_group_name_H-M   'P 1'
_symmetry_Int_Tables_number      1
_space_group_name_Hall           'P 1'
loop_
_symmetry_equiv_pos_site_id
_symmetry_equiv_pos_as_xyz
1 x,y,z
_cell_length_a                   11.3410(10)
_cell_length_b                   9.8490(10)
_cell_length_c                   14.5470(10)
_cell_angle_alpha                90
_cell_angle_beta                 91.3880(10)
_cell_angle_gamma                90
_cell_volume                     1624.39
loop_
_atom_site_label
_atom_site_type_symbol
_atom_site_fract_x
_atom_site_fract_y
_atom_site_fract_z
Mg1 Mg 0.25630(4) 0.07865(5) 0.13466(3)
Mg2 Mg 0.0000 0.0000 0.0000
Mg4 Mg 0.5000 0.0000 0.0000
O2 O 0.15667(9) 0.25581(10) 0.11107(7)
O3 O 0.30791(9) 0.20033(10) 0.24662(7)
O4 O 0.39844(9) 0.15190(10) 0.06251(7)
O8 O 0.01995(9) 0.20736(11) 0.00254(7)
O9 O 0.38861(9) 0.37372(10) 0.09632(7)
O12 O 0.31514(9) 0.05728(10) 0.36636(7)
C2 C 0.07874(13) 0.28741(15) 0.05008(10)
H2 H 0.0646 0.3815 0.0403
C3 C 0.33073(13) 0.16996(15) 0.33051(10)
H3 H 0.3624 0.2398 0.3688
C4 C 0.43056(13) 0.27603(15) 0.05515(10)
H4 H 0.4925 0.2947 0.0142
Mg9 Mg 0.26041(4) 0.38846(5) 0.19005(3)
O32 O 0.64976(9) 0.10617(11) 0.03262(7)
Mg2_2 Mg 0.0000 0.0000 1.0000
Mg4_2 Mg 0.5000 0.0000 1.0000
Mg12 Mg 0.76041(4) 0.11154(5) 0.69005(3)
O23 O 0.65052(9) 0.08188(10) 0.80356(7)
O30 O 0.48247(10) 0.10690(11) 0.87900(7)
H7 H 0.0237 0.0378 0.7367
C11 C 0.54849(13) 0.13176(16) 0.81522(11)
H11 H 0.5204 0.1945 0.7702
Mg2_3 Mg -0.0000 1.0000 0.0000
Mg3 Mg 0.23959(4) 0.88846(5) 0.30995(3)
Mg4_3 Mg 0.5000 1.0000 0.0000
O1 O 0.13085(9) 0.99372(10) 0.22016(7)
O5 O 0.34948(9) 0.91812(10) 0.19644(7)
O6 O 0.18300(9) 0.97386(10) 0.02513(7)
O10 O 0.51753(10) 0.89310(11) 0.12100(7)
C1 C 0.01951(13) 0.98398(15) 0.21012(11)
C5 C 0.45151(13) 0.86824(16) 0.18478(11)
H5 H 0.4796 0.8055 0.2298
Mg6 Mg 0.24370(4) 0.57865(5) 0.36534(3)
Mg14 Mg 0.0000 0.5000 0.5000
O15 O 0.34333(9) 0.75581(10) 0.38893(7)
O17 O 0.19209(9) 0.70033(10) 0.25338(7)
O20 O 0.10156(9) 0.65190(10) 0.43749(7)
O28 O 0.11139(9) 0.87372(10) 0.40368(7)
O33 O 0.18486(9) 0.55728(10) 0.13364(7)
C9 C 0.16927(13) 0.66996(15) 0.16949(10)
H9 H 0.1376 0.7398 0.1312
C10 C 0.06944(13) 0.77603(15) 0.44485(10)
H10 H 0.0075 0.7947 0.4858
Mg2_4 Mg 0.0000 1.0000 1.0000
Mg4_4 Mg 0.5000 1.0000 1.0000
O11 O 0.35024(9) 0.89383(11) 0.96738(7)
C6 C 0.24239(13) 0.89899(15) 0.97090(11)
H6 H 0.1988 0.8423 0.9296
Mg7 Mg 0.74370(4) 0.92135(5) 0.86534(3)
O21 O 0.60156(9) 0.84810(10) 0.93749(7)
O26 O 0.03733(10) 0.99976(11) 0.86212(8)
Mg2_5 Mg 1.0000 0.0000 0.0000
O7 O 0.96267(10) 0.00024(11) 0.13788(8)
C12 C 0.75761(13) 0.10101(15) 0.02910(11)
H12 H 0.8012 0.1577 0.0704
Mg2_6 Mg 1.0000 0.0000 1.0000
O13 O 0.86915(9) 0.00628(10) 0.77984(7)
O16 O 0.65667(9) 0.24419(10) 0.61107(7)
O19 O 0.80791(9) 0.29967(10) 0.74662(7)
O25 O 0.81700(9) 0.02614(10) 0.97487(7)
O29 O 0.88861(9) 0.12628(10) 0.59632(7)
C7 C 0.98049(13) 0.01602(15) 0.78988(11)
Mg2_7 Mg 1.0000 1.0000 0.0000
H1 H 0.9763 0.9622 0.2633
Mg14_2 Mg 1.0000 0.5000 0.5000
Mg2_8 Mg 1.0000 1.0000 1.0000
Mg10 Mg 0.73959(4) 0.61154(5) 0.80995(3)
O14 O 0.84333(9) 0.74419(10) 0.88893(7)
O18 O 0.69209(9) 0.79967(10) 0.75338(7)
O27 O 0.98005(9) 0.79264(11) 0.99746(7)
O34 O 0.68486(9) 0.94272(10) 0.63364(7)
C8 C 0.92126(13) 0.71259(15) 0.94992(10)
H8 H 0.9354 0.6185 0.9597
Mg2_9 Mg 0.5000 0.5000 0.5000
O1_2 O 0.36915(9) 0.49372(10) 0.27984(7)
O5_2 O 0.15052(9) 0.41812(10) 0.30356(7)
O6_2 O 0.31700(9) 0.47386(10) 0.47487(7)
O7_2 O 0.53733(10) 0.50024(11) 0.36212(8)
O8_2 O 0.48005(9) 0.70736(11) 0.49746(7)
O11_2 O 0.14976(9) 0.39383(11) 0.53262(7)
C1_2 C 0.48049(13) 0.48398(15) 0.28988(11)
H1_2 H 0.5237 0.4622 0.2367
C2_2 C 0.42126(13) 0.78741(15) 0.44992(10)
H2_2 H 0.4354 0.8815 0.4597
C5_2 C 0.04849(13) 0.36824(16) 0.31522(11)
H5_2 H 0.0204 0.3055 0.2702
C6_2 C 0.25761(13) 0.39899(15) 0.52910(11)
H6_2 H 0.3012 0.3423 0.5704
Mg5 Mg 0.75630(4) 0.42135(5) 0.63466(3)
O13_2 O 0.63085(9) 0.50628(10) 0.72016(7)
O22 O 0.89844(9) 0.34810(10) 0.56251(7)
O24 O 0.84948(9) 0.58188(10) 0.69644(7)
O25_2 O 0.68300(9) 0.52614(10) 0.52513(7)
O26_2 O 0.46267(10) 0.49976(11) 0.63788(8)
O27_2 O 0.51995(9) 0.29264(11) 0.50254(7)
O29_2 O 0.61139(9) 0.62628(10) 0.90368(7)
O30_2 O 0.01753(10) 0.60690(11) 0.62100(7)
O31 O 0.85024(9) 0.60617(11) 0.46738(7)
O34_2 O 0.81514(9) 0.44272(10) 0.86636(7)
C7_2 C 0.51951(13) 0.51602(15) 0.71012(11)
H7_2 H 0.4763 0.5378 0.7633
C8_2 C 0.57874(13) 0.21259(15) 0.55008(10)
H8_2 H 0.5646 0.1185 0.5403
C12_2 C 0.74239(13) 0.60101(15) 0.47090(11)
H12_2 H 0.6988 0.6577 0.4296
O10_2 O 0.98247(10) 0.39310(11) 0.37900(7)
C11_2 C 0.95151(13) 0.63176(16) 0.68478(11)
H11_2 H 0.9796 0.6945 0.7298
C9_2 C 0.83073(13) 0.33004(15) 0.83051(10)
H9_2 H 0.8624 0.2602 0.8688
C10_2 C 0.93056(13) 0.22397(15) 0.55515(10)
H10_2 H 0.9925 0.2053 0.5142
C3_2 C 0.66927(13) 0.83004(15) 0.66949(10)
H3_2 H 0.6376 0.7602 0.6312
C4_2 C 0.56944(13) 0.72397(15) 0.94485(10)
H4_2 H 0.5075 0.7053 0.9858
loop_
_geom_bond_atom_site_label_1
_geom_bond_atom_site_label_2
_geom_bond_site_symmetry_1
_geom_bond_site_symmetry_2
Mg4 O4 1_555 1_555
O2 Mg1 1_555 1_555
O3 Mg1 1_555 1_555
O4 Mg1 1_555 1_555
O8 Mg2 1_555 1_555
O9 C4 1_555 1_555
C2 O2 1_555 1_555
H2 C2 1_555 1_555
C3 O3 1_555 1_555
H3 C3 1_555 1_555
C4 O4 1_555 1_555
H4 C4 1_555 1_555
Mg9 O2 1_555 1_555
O32 Mg4 1_555 1_555
O3 Mg9 1_555 1_555
O8 C2 1_555 1_555
O9 Mg9 1_555 1_555
O12 C3 1_555 1_555
Mg12 O23 1_555 1_555
O30 Mg4_2 1_555 1_555
C11 O23 1_555 1_555
H11 C11 1_555 1_555
O30 C11 1_555 1_555
Mg2_3 O6 1_555 1_555
Mg3 O1 1_555 1_555
O1 C1 1_555 1_555
O10 Mg4_3 1_555 1_555
C5 O5 1_555 1_555
H5 C5 1_555 1_555
Mg6 O15 1_555 1_555
Mg9 O33 1_555 1_555
Mg14 O20 1_555 1_555
O15 Mg3 1_555 1_555
O17 Mg3 1_555 1_555
O20 Mg6 1_555 1_555
O28 Mg3 1_555 1_555
O33 C9 1_555 1_555
C9 O17 1_555 1_555
H9 C9 1_555 1_555
C10 O20 1_555 1_555
H10 C10 1_555 1_555
Mg3 O5 1_555 1_555
O10 C5 1_555 1_555
Mg6 O17 1_555 1_555
O28 C10 1_555 1_555
O11 Mg4_4 1_555 1_555
H6 C6 1_555 1_555
Mg7 O21 1_555 1_555
O21 Mg4_4 1_555 1_555
O26 Mg2_4 1_555 1_555
O11 C6 1_555 1_555
O7 Mg2_5 1_555 1_555
H12 C12 1_555 1_555
O32 C12 1_555 1_555
Mg12 O13 1_555 1_555
O13 C7 1_555 1_555
O16 Mg12 1_555 1_555
O19 Mg12 1_555 1_555
O25 Mg2_6 1_555 1_555
O29 Mg12 1_555 1_555
Mg10 O14 1_555 1_555
O14 Mg7 1_555 1_555
O18 Mg7 1_555 1_555
O27 Mg2_8 1_555 1_555
C8 O14 1_555 1_555
H8 C8 1_555 1_555
Mg10 O18 1_555 1_555
O27 C8 1_555 1_555
Mg6 O1_2 1_555 1_555
Mg2_9 O6_2 1_555 1_555
Mg9 O1_2 1_555 1_555
O1_2 C1_2 1_555 1_555
O5_2 Mg6 1_555 1_555
O6_2 Mg6 1_555 1_555
O7_2 Mg2_9 1_555 1_555
O8_2 Mg2_9 1_555 1_555
O11_2 Mg14 1_555 1_555
C1_2 O7_2 1_555 1_555
H1_2 C1_2 1_555 1_555
C2_2 O15 1_555 1_555
H2_2 C2_2 1_555 1_555
C5_2 O5_2 1_555 1_555
H5_2 C5_2 1_555 1_555
C6_2 O6_2 1_555 1_555
H6_2 C6_2 1_555 1_555
Mg5 O13_2 1_555 1_555
Mg10 O13_2 1_555 1_555
Mg14_2 O22 1_555 1_555
O13_2 C7_2 1_555 1_555
O16 Mg5 1_555 1_555
O19 Mg5 1_555 1_555
O22 Mg5 1_555 1_555
O24 Mg5 1_555 1_555
O25_2 Mg2_9 1_555 1_555
O26_2 Mg2_9 1_555 1_555
O27_2 Mg2_9 1_555 1_555
O29_2 Mg10 1_555 1_555
O30_2 Mg14 1_555 1_555
O31 Mg14_2 1_555 1_555
O34_2 Mg10 1_555 1_555
C7_2 O26_2 1_555 1_555
H7_2 C7_2 1_555 1_555
C8_2 O16 1_555 1_555
H8_2 C8_2 1_555 1_555
C12_2 O25_2 1_555 1_555
H12_2 C12_2 1_555 1_555
Mg9 O5_2 1_555 1_555
O8_2 C2_2 1_555 1_555
O11_2 C6_2 1_555 1_555
Mg5 O25_2 1_555 1_555
Mg10 O24 1_555 1_555
O27_2 C8_2 1_555 1_555
O31 C12_2 1_555 1_555
O10_2 Mg14_2 1_555 1_555
C11_2 O24 1_555 1_555
H11_2 C11_2 1_555 1_555
O34_2 C9_2 1_555 1_555
C9_2 O19 1_555 1_555
H9_2 C9_2 1_555 1_555
C10_2 O22 1_555 1_555
H10_2 C10_2 1_555 1_555
O29 C10_2 1_555 1_555
O29_2 C4_2 1_555 1_555
C3_2 O18 1_555 1_555
H3_2 C3_2 1_555 1_555
C4_2 O21 1_555 1_555
H4_2 C4_2 1_555 1_555
O34 C3_2 1_555 1_555

#END
