
###############################################################################
#
# This file contains modified crystal structure data generated from the
# MOF subset of the Cambridge Structural Database (CSD) v543 
# hosted by the Cambridge Crystallographic Data Centre (CCDC).
#
# This work is licensed under the Creative Commons
# Attribution-NonCommercial-ShareAlike 4.0 International License.
# To view a copy of this license, visit
# http://creativecommons.org/licenses/by-nc-sa/4.0/
# or send a letter to
# Creative Commons, PO Box 1866, Mountain View, CA 94042, USA.
#
# CIF created using the CSD Python API on 29 September 2022
# The structure has been converted into the P1 space group
# The structure has a 3D framework
# The original CSD entry NAXVOY01 is in the monoclinic crystal system
# The framework has been calculated to contain at least 10.0% void space
# The void calculation uses a probe of radius 1.32A, grid spacing 0.4
#
###############################################################################

data_NAXVOY01
_chemical_formula_moiety         '(C24 H24 Mg19 O50)n'
_symmetry_cell_setting           triclinic
_symmetry_space_group_name_H-M   'P 1'
_symmetry_Int_Tables_number      1
_space_group_name_Hall           'P 1'
loop_
_symmetry_equiv_pos_site_id
_symmetry_equiv_pos_as_xyz
1 x,y,z
_cell_length_a                   11.324(2)
_cell_length_b                   9.847(2)
_cell_length_c                   14.623(3)
_cell_angle_alpha                90
_cell_angle_beta                 91.15(3)
_cell_angle_gamma                90
_cell_volume                     1630.24
loop_
_atom_site_label
_atom_site_type_symbol
_atom_site_fract_x
_atom_site_fract_y
_atom_site_fract_z
Mg14 Mg 0.0000 -0.0000 -0.0000
Mg11 Mg 0.26038(3) 0.11201(3) 0.69024(2)
Mg14_2 Mg 0.0000 -0.0000 1.0000
Mg14_3 Mg 0.0000 1.0000 -0.0000
Mg1 Mg 0.25629(3) 0.42168(3) 0.63470(2)
Mg2 Mg 0.0000 0.5000 0.5000
Mg3 Mg 0.23962(3) 0.61201(3) 0.80976(2)
Mg4 Mg 0.5000 0.5000 0.5000
O1 O 0.13108(6) 0.50693(7) 0.72005(4)
O3 O 0.15662(6) 0.24476(7) 0.61127(4)
O4 O 0.01999(6) 0.29304(8) 0.50271(5)
O5 O 0.39842(6) 0.34834(7) 0.56271(4)
O6 O 0.38844(6) 0.12672(7) 0.59657(5)
O7 O 0.30752(6) 0.30016(7) 0.74665(4)
O8 O 0.31479(6) 0.44322(7) 0.86612(4)
O9 O 0.18298(6) 0.52620(7) 0.52509(4)
O10 O 0.35042(6) 0.60605(8) 0.46735(5)
O11 O 0.34936(6) 0.58208(7) 0.69627(4)
O12 O 0.51750(6) 0.60711(8) 0.62075(5)
C1 C 0.01949(8) 0.51633(11) 0.71015(6)
C2 C 0.07854(8) 0.21305(11) 0.55022(6)
H2 H 0.0647 0.1210 0.5408
C3 C 0.43054(8) 0.22466(10) 0.55533(6)
H3 H 0.4912 0.2064 0.5152
C4 C 0.33021(8) 0.33066(10) 0.83047(6)
H4 H 0.3610 0.2622 0.8678
C5 C 0.24207(8) 0.60081(10) 0.47069(6)
H5 H 0.1993 0.6557 0.4302
C6 C 0.45158(8) 0.63213(11) 0.68454(6)
H6 H 0.4791 0.6935 0.7284
Mg6 Mg 0.24371(3) 0.92168(3) 0.86530(2)
Mg7 Mg 0.74371(3) 0.57832(3) 0.36530(2)
Mg12 Mg 0.76038(3) 0.38799(3) 0.19024(2)
Mg14_4 Mg 0.0000 1.0000 1.0000
O14 O 0.03721(6) 0.49995(8) 0.36239(5)
O16 O 0.34338(6) 0.74476(7) 0.88873(4)
O19 O 0.10158(6) 0.84834(7) 0.93729(4)
O20 O 0.60158(6) 0.65166(7) 0.43729(4)
O22 O 0.11156(6) 0.62672(7) 0.90343(5)
O24 O 0.19248(6) 0.80016(7) 0.75335(4)
O27 O 0.18521(6) 0.94322(7) 0.63388(4)
O31 O 0.64958(6) 0.39395(8) 0.53265(5)
O32 O 0.65064(6) 0.41792(7) 0.30373(4)
O34 O 0.48250(6) 0.39289(8) 0.37925(5)
H7 H 0.0233 0.4627 0.2381
C9 C 0.06946(8) 0.72466(10) 0.94467(6)
H9 H 0.0088 0.7064 0.9848
C10 C 0.16979(8) 0.83066(10) 0.66953(6)
H10 H 0.1390 0.7622 0.6322
C12 C 0.54842(8) 0.36787(11) 0.31546(6)
H12 H 0.5209 0.3065 0.2716
Mg14_5 Mg 1.0000 -0.0000 -0.0000
Mg14_6 Mg 1.0000 -0.0000 1.0000
Mg14_7 Mg 1.0000 1.0000 -0.0000
Mg2_2 Mg 1.0000 0.5000 0.5000
O2 O 0.96279(6) 0.50005(8) 0.63761(5)
H1 H 0.9767 0.5373 0.7619
Mg10 Mg 0.73962(3) 0.88799(3) 0.30976(2)
Mg14_8 Mg 1.0000 1.0000 1.0000
O13 O 0.86892(6) 0.49307(7) 0.27995(4)
O15 O 0.84338(6) 0.75524(7) 0.38873(4)
O17 O 0.65662(6) 0.25524(7) 0.11127(4)
O18 O 0.98001(6) 0.70696(8) 0.49729(5)
O23 O 0.88844(6) 0.37328(7) 0.09657(5)
O25 O 0.69248(6) 0.69984(7) 0.25335(4)
O26 O 0.80752(6) 0.19984(7) 0.24665(4)
O28 O 0.68521(6) 0.55678(7) 0.13388(4)
O29 O 0.81702(6) 0.47380(7) 0.47491(4)
C7 C 0.98051(8) 0.48367(11) 0.28985(6)
C8 C 0.92146(8) 0.78695(11) 0.44978(6)
H8 H 0.9353 0.8790 0.4592
C11 C 0.75793(8) 0.39919(10) 0.52931(6)
H11 H 0.8007 0.3443 0.5698
Mg2_3 Mg 0.5000 -0.0000 0.0000
O10_2 O 0.14958(6) 0.10605(8) 0.03265(5)
C5_2 C 0.25793(8) 0.10081(10) 0.02931(6)
H5_2 H 0.3007 0.1557 0.0698
Mg5 Mg 0.75629(3) 0.07832(3) 0.13470(2)
O14_2 O 0.46279(6) -0.00005(8) 0.13761(5)
O18_2 O 0.51999(6) 0.20696(8) 0.00271(5)
O21 O 0.89842(6) 0.15166(7) 0.06271(4)
O28_2 O 0.81479(6) 0.05678(7) 0.36612(4)
C8_2 C 0.57854(8) 0.28695(11) 0.05022(6)
H8_2 H 0.5647 0.3790 0.0408
Mg2_4 Mg 0.5000 -0.0000 1.0000
O1_2 O 0.36892(6) 0.00693(7) 0.77995(4)
O2_2 O 0.53721(6) 0.00005(8) 0.86239(5)
O9_2 O 0.31702(6) 0.02620(7) 0.97491(4)
O11_2 O 0.15064(6) 0.08208(7) 0.80373(4)
C1_2 C 0.48051(8) 0.01633(11) 0.78985(6)
H1_2 H 0.5233 0.0373 0.7381
C6_2 C 0.04842(8) 0.13213(11) 0.81546(6)
H6_2 H 0.0209 0.1935 0.7716
Mg2_5 Mg 0.5000 1.0000 0.0000
O13_2 O 0.63108(6) 0.99307(7) 0.22005(4)
O14_3 O 0.46279(6) 0.99995(8) 0.13761(5)
O23_2 O 0.61156(6) 0.87328(7) 0.40343(5)
O29_2 O 0.68298(6) 0.97380(7) 0.02509(4)
O33 O 0.84936(6) 0.91792(7) 0.19627(4)
O34_2 O 0.01750(6) 0.89289(8) 0.12075(5)
C7_2 C 0.51949(8) 0.98367(11) 0.21015(6)
H7_2 H 0.4767 0.9627 0.2619
Mg2_6 Mg 0.5000 1.0000 1.0000
O2_3 O 0.53721(6) 1.00005(8) 0.86239(5)
O4_2 O 0.48001(6) 0.79304(8) 0.99729(5)
C2_2 C 0.42146(8) 0.71305(11) 0.94978(6)
H2_2 H 0.4353 0.6210 0.9592
O30 O 0.85042(6) 0.89395(8) 0.96735(5)
C11_2 C 0.74207(8) 0.89919(10) 0.97069(6)
H11_2 H 0.6993 0.8443 0.9302
O12_2 O 0.98250(6) 0.10711(8) 0.87925(5)
C12_2 C 0.95158(8) 0.86787(11) 0.18454(6)
H12_2 H 0.9791 0.8065 0.2284
C3_2 C 0.56946(8) 0.77534(10) 0.44467(6)
H3_2 H 0.5088 0.7936 0.4848
C4_2 C 0.66979(8) 0.66934(10) 0.16953(6)
H4_2 H 0.6390 0.7378 0.1322
C9_2 C 0.93054(8) 0.27534(10) 0.05533(6)
H9_2 H 0.9912 0.2936 0.0152
C10_2 C 0.83021(8) 0.16934(10) 0.33047(6)
H10_2 H 0.8610 0.2378 0.3678
loop_
_geom_bond_atom_site_label_1
_geom_bond_atom_site_label_2
_geom_bond_site_symmetry_1
_geom_bond_site_symmetry_2
Mg1 O1 1_555 1_555
Mg3 O1 1_555 1_555
Mg4 O5 1_555 1_555
O1 C1 1_555 1_555
O3 Mg1 1_555 1_555
O4 Mg2 1_555 1_555
O5 Mg1 1_555 1_555
O6 C3 1_555 1_555
O7 Mg1 1_555 1_555
O8 Mg3 1_555 1_555
O9 Mg1 1_555 1_555
O10 Mg4 1_555 1_555
O11 Mg1 1_555 1_555
O12 Mg4 1_555 1_555
C2 O3 1_555 1_555
H2 C2 1_555 1_555
C3 O5 1_555 1_555
H3 C3 1_555 1_555
C4 O7 1_555 1_555
H4 C4 1_555 1_555
C5 O9 1_555 1_555
H5 C5 1_555 1_555
C6 O11 1_555 1_555
H6 C6 1_555 1_555
Mg6 O16 1_555 1_555
Mg7 O20 1_555 1_555
Mg11 O3 1_555 1_555
Mg12 O32 1_555 1_555
Mg14_4 O19 1_555 1_555
O14 Mg2 1_555 1_555
O16 Mg3 1_555 1_555
O19 Mg6 1_555 1_555
O20 Mg4 1_555 1_555
O22 Mg3 1_555 1_555
O24 Mg3 1_555 1_555
O27 C10 1_555 1_555
O31 Mg4 1_555 1_555
O32 Mg7 1_555 1_555
O34 Mg4 1_555 1_555
C9 O19 1_555 1_555
H9 C9 1_555 1_555
C10 O24 1_555 1_555
H10 C10 1_555 1_555
C12 O32 1_555 1_555
H12 C12 1_555 1_555
Mg2 O9 1_555 1_555
Mg3 O11 1_555 1_555
O4 C2 1_555 1_555
O6 Mg11 1_555 1_555
O7 Mg11 1_555 1_555
O8 C4 1_555 1_555
O10 C5 1_555 1_555
O12 C6 1_555 1_555
Mg6 O24 1_555 1_555
O22 C9 1_555 1_555
O34 C12 1_555 1_555
Mg2_2 O2 1_555 1_555
Mg7 O13 1_555 1_555
Mg12 O13 1_555 1_555
Mg10 O15 1_555 1_555
O13 C7 1_555 1_555
O15 Mg7 1_555 1_555
O17 Mg12 1_555 1_555
O18 Mg2_2 1_555 1_555
O23 Mg12 1_555 1_555
O25 Mg7 1_555 1_555
O26 Mg12 1_555 1_555
O28 Mg12 1_555 1_555
O29 Mg2_2 1_555 1_555
C8 O15 1_555 1_555
H8 C8 1_555 1_555
C11 O29 1_555 1_555
H11 C11 1_555 1_555
Mg7 O29 1_555 1_555
Mg10 O25 1_555 1_555
O18 C8 1_555 1_555
O31 C11 1_555 1_555
O10_2 Mg14 1_555 1_555
H5_2 C5_2 1_555 1_555
Mg14_5 O21 1_555 1_555
O14_2 Mg2_3 1_555 1_555
O17 Mg5 1_555 1_555
O18_2 Mg2_3 1_555 1_555
O21 Mg5 1_555 1_555
O26 Mg5 1_555 1_555
C8_2 O17 1_555 1_555
H8_2 C8_2 1_555 1_555
O10_2 C5_2 1_555 1_555
O18_2 C8_2 1_555 1_555
Mg2_4 O2_2 1_555 1_555
Mg11 O1_2 1_555 1_555
O1_2 C1_2 1_555 1_555
O2_2 C1_2 1_555 1_555
C1_2 H1_2 1_555 1_555
C6_2 O11_2 1_555 1_555
H6_2 C6_2 1_555 1_555
Mg2_4 O9_2 1_555 1_555
Mg11 O11_2 1_555 1_555
Mg10 O13_2 1_555 1_555
O13_2 C7_2 1_555 1_555
O14_3 Mg2_5 1_555 1_555
O23_2 Mg10 1_555 1_555
O29_2 Mg2_5 1_555 1_555
O34_2 Mg14_3 1_555 1_555
C7_2 O14_3 1_555 1_555
H7_2 C7_2 1_555 1_555
Mg10 O33 1_555 1_555
Mg2_6 O2_3 1_555 1_555
O4_2 Mg2_6 1_555 1_555
C2_2 O16 1_555 1_555
H2_2 C2_2 1_555 1_555
O30 Mg14_8 1_555 1_555
H11_2 C11_2 1_555 1_555
O4_2 C2_2 1_555 1_555
O30 C11_2 1_555 1_555
O12_2 Mg14_6 1_555 1_555
C12_2 O33 1_555 1_555
H12_2 C12_2 1_555 1_555
O23_2 C3_2 1_555 1_555
C3_2 O20 1_555 1_555
H3_2 C3_2 1_555 1_555
C4_2 O25 1_555 1_555
H4_2 C4_2 1_555 1_555
O28_2 C10_2 1_555 1_555
C9_2 O21 1_555 1_555
H9_2 C9_2 1_555 1_555
C10_2 O26 1_555 1_555
H10_2 C10_2 1_555 1_555
O28 C4_2 1_555 1_555
O23 C9_2 1_555 1_555

#END
