
###############################################################################
#
# This file contains modified crystal structure data generated from the
# MOF subset of the Cambridge Structural Database (CSD) v543 
# hosted by the Cambridge Crystallographic Data Centre (CCDC).
#
# This work is licensed under the Creative Commons
# Attribution-NonCommercial-ShareAlike 4.0 International License.
# To view a copy of this license, visit
# http://creativecommons.org/licenses/by-nc-sa/4.0/
# or send a letter to
# Creative Commons, PO Box 1866, Mountain View, CA 94042, USA.
#
# CIF created using the CSD Python API on 29 September 2022
# The structure has been converted into the P1 space group
# The structure has a 3D framework
# The original CSD entry NAYBEY is in the cubic crystal system
# The original CSD entry NAYBEY is in a Sohncke space group
# The framework has been calculated to contain at least 10.0% void space
# The void calculation uses a probe of radius 1.32A, grid spacing 0.4
# The framework is charged, counterions have been retained in the structure
#
###############################################################################

data_NAYBEY
_chemical_formula_moiety         '(C288 H192 Cu11 N96 O16 S4 2+)n'
_symmetry_cell_setting           triclinic
_symmetry_space_group_name_H-M   'P 1'
_symmetry_Int_Tables_number      1
_space_group_name_Hall           'P 1'
loop_
_symmetry_equiv_pos_site_id
_symmetry_equiv_pos_as_xyz
1 x,y,z
_cell_length_a                   21.1951(6)
_cell_length_b                   21.1951(6)
_cell_length_c                   21.1951(6)
_cell_angle_alpha                90
_cell_angle_beta                 90
_cell_angle_gamma                90
_cell_volume                     9521.52
loop_
_atom_site_label
_atom_site_type_symbol
_atom_site_fract_x
_atom_site_fract_y
_atom_site_fract_z
N20 N 0.6571(2) 0.1036(2) 0.0666(2)
C57 C 0.6156(3) 0.1497(3) 0.0637(3)
C58 C 0.5872(3) 0.2512(3) 0.0104(3)
H39 H 0.5580 0.2600 0.0432
C60 C 0.6219(2) 0.1962(3) 0.0117(3)
N21 N 0.41531(18) 0.13582(17) 0.28406(19)
N22 N 0.5666(2) 0.1571(2) 0.1036(2)
C61 C 0.4165(2) 0.1689(2) 0.2298(2)
H41 H 0.3829 0.1976 0.2218
C62 C 0.4627(2) 0.1637(2) 0.1859(2)
H42 H 0.4614 0.1885 0.1485
C63 C 0.5637(3) 0.1156(3) 0.1497(3)
C64 C 0.5104(3) 0.0872(3) 0.2512(3)
H43 H 0.5432 0.0580 0.2600
C65 C 0.4617(3) 0.0951(3) 0.2934(3)
H44 H 0.4614 0.0703 0.3307
C66 C 0.5117(3) 0.1219(2) 0.1962(3)
N24 N 0.6036(2) 0.0666(2) 0.1571(2)
C69 C 0.6497(3) 0.0637(3) 0.1156(3)
C70 C 0.7512(3) 0.0104(3) 0.0872(3)
H47 H 0.7600 0.0432 0.0580
C72 C 0.6962(3) 0.0117(3) 0.1219(2)
Cu9 Cu 0.34846(3) 0.15154(3) 0.34846(3)
Cu1 Cu 0.65154(3) 0.34846(3) 0.84846(3)
S1 S 0.7500 0.2500 0.7500
N1 N 0.58469(18) 0.36418(17) 0.78406(19)
N2 N 0.4334(2) 0.3429(2) 0.6036(2)
C1 C 0.5835(2) 0.3311(2) 0.7298(2)
H1 H 0.6171 0.3024 0.7218
C2 C 0.5373(2) 0.3363(2) 0.6859(2)
H2 H 0.5386 0.3115 0.6485
C3 C 0.4363(3) 0.3844(3) 0.6497(3)
C4 C 0.4896(3) 0.4128(3) 0.7512(3)
H3 H 0.4568 0.4420 0.7600
C5 C 0.5383(3) 0.4049(3) 0.7934(3)
H4 H 0.5386 0.4297 0.8307
C6 C 0.4883(3) 0.3781(2) 0.6962(3)
O1 O 0.71068(17) 0.28932(17) 0.78932(17)
O2 O 0.71068(17) 0.21068(17) 0.71068(17)
O3 O 0.78932(17) 0.28932(17) 0.71068(17)
O4 O 0.78932(17) 0.21068(17) 0.78932(17)
N3 N 0.21594(19) 0.58469(18) 0.63582(17)
N4 N 0.3964(2) 0.4334(2) 0.6571(2)
C7 C 0.2702(2) 0.5835(2) 0.6689(2)
H5 H 0.2782 0.6171 0.6976
C8 C 0.3141(2) 0.5373(2) 0.6637(2)
H6 H 0.3515 0.5386 0.6885
C9 C 0.3503(3) 0.4363(3) 0.6156(3)
C10 C 0.2488(3) 0.4896(3) 0.5872(3)
H7 H 0.2400 0.4568 0.5580
C11 C 0.2066(3) 0.5383(3) 0.5951(3)
H8 H 0.1693 0.5386 0.5703
C12 C 0.3038(3) 0.4883(3) 0.6219(2)
N5 N 0.36418(17) 0.21594(19) 0.41531(18)
N6 N 0.3429(2) 0.3964(2) 0.5666(2)
C13 C 0.3311(2) 0.2702(2) 0.4165(2)
H9 H 0.3024 0.2782 0.3829
C14 C 0.3363(2) 0.3141(2) 0.4627(2)
H10 H 0.3115 0.3515 0.4614
C15 C 0.3844(3) 0.3503(3) 0.5637(3)
C16 C 0.4128(3) 0.2488(3) 0.5104(3)
H11 H 0.4420 0.2400 0.5432
C17 C 0.4049(3) 0.2066(3) 0.4617(3)
H12 H 0.4297 0.1693 0.4614
C18 C 0.3781(2) 0.3038(3) 0.5117(3)
Cu2 Cu 0.65154(3) 0.15154(3) 0.65154(3)
N7 N 0.63582(17) 0.21594(19) 0.58469(18)
N8 N 0.6571(2) 0.3964(2) 0.4334(2)
C19 C 0.6689(2) 0.2702(2) 0.5835(2)
H13 H 0.6976 0.2782 0.6171
C20 C 0.6637(2) 0.3141(2) 0.5373(2)
H14 H 0.6885 0.3515 0.5386
C21 C 0.6156(3) 0.3503(3) 0.4363(3)
C22 C 0.5872(3) 0.2488(3) 0.4896(3)
H15 H 0.5580 0.2400 0.4568
C23 C 0.5951(3) 0.2066(3) 0.5383(3)
H16 H 0.5703 0.1693 0.5386
C24 C 0.6219(2) 0.3038(3) 0.4883(3)
N9 N 0.41531(18) 0.36418(17) 0.21594(19)
N10 N 0.5666(2) 0.3429(2) 0.3964(2)
C25 C 0.4165(2) 0.3311(2) 0.2702(2)
H17 H 0.3829 0.3024 0.2782
C26 C 0.4627(2) 0.3363(2) 0.3141(2)
H18 H 0.4614 0.3115 0.3515
C27 C 0.5637(3) 0.3844(3) 0.3503(3)
C28 C 0.5104(3) 0.4128(3) 0.2488(3)
H19 H 0.5432 0.4420 0.2400
C29 C 0.4617(3) 0.4049(3) 0.2066(3)
H20 H 0.4614 0.4297 0.1693
C30 C 0.5117(3) 0.3781(2) 0.3038(3)
N11 N 0.78406(19) 0.58469(18) 0.36418(17)
N12 N 0.6036(2) 0.4334(2) 0.3429(2)
C31 C 0.7298(2) 0.5835(2) 0.3311(2)
H21 H 0.7218 0.6171 0.3024
C32 C 0.6859(2) 0.5373(2) 0.3363(2)
H22 H 0.6485 0.5386 0.3115
C33 C 0.6497(3) 0.4363(3) 0.3844(3)
C34 C 0.7512(3) 0.4896(3) 0.4128(3)
H23 H 0.7600 0.4568 0.4420
C35 C 0.7934(3) 0.5383(3) 0.4049(3)
H24 H 0.8307 0.5386 0.4297
C36 C 0.6962(3) 0.4883(3) 0.3781(2)
Cu3 Cu 0.84846(3) 0.34846(3) 0.65154(3)
N13 N 0.78406(19) 0.41531(18) 0.63582(17)
N14 N 0.6036(2) 0.5666(2) 0.6571(2)
C37 C 0.7298(2) 0.4165(2) 0.6689(2)
H25 H 0.7218 0.3829 0.6976
C38 C 0.6859(2) 0.4627(2) 0.6637(2)
H26 H 0.6485 0.4614 0.6885
C39 C 0.6497(3) 0.5637(3) 0.6156(3)
C40 C 0.7512(3) 0.5104(3) 0.5872(3)
H27 H 0.7600 0.5432 0.5580
C41 C 0.7934(3) 0.4617(3) 0.5951(3)
H28 H 0.8307 0.4614 0.5703
C42 C 0.6962(3) 0.5117(3) 0.6219(2)
N15 N 0.63582(17) 0.78406(19) 0.41531(18)
N16 N 0.6571(2) 0.6036(2) 0.5666(2)
C43 C 0.6689(2) 0.7298(2) 0.4165(2)
H29 H 0.6976 0.7218 0.3829
C44 C 0.6637(2) 0.6859(2) 0.4627(2)
H30 H 0.6885 0.6485 0.4614
C45 C 0.6156(3) 0.6497(3) 0.5637(3)
C46 C 0.5872(3) 0.7512(3) 0.5104(3)
H31 H 0.5580 0.7600 0.5432
C47 C 0.5951(3) 0.7934(3) 0.4617(3)
H32 H 0.5703 0.8307 0.4614
C48 C 0.6219(2) 0.6962(3) 0.5117(3)
N17 N 0.41531(18) 0.63582(17) 0.78406(19)
N18 N 0.5666(2) 0.6571(2) 0.6036(2)
C49 C 0.4165(2) 0.6689(2) 0.7298(2)
H33 H 0.3829 0.6976 0.7218
C50 C 0.4627(2) 0.6637(2) 0.6859(2)
H34 H 0.4614 0.6885 0.6485
C51 C 0.5637(3) 0.6156(3) 0.6497(3)
C52 C 0.5104(3) 0.5872(3) 0.7512(3)
H35 H 0.5432 0.5580 0.7600
C53 C 0.4617(3) 0.5951(3) 0.7934(3)
H36 H 0.4614 0.5703 0.8307
C54 C 0.5117(3) 0.6219(2) 0.6962(3)
Cu4 Cu 0.34846(3) 0.65154(3) 0.84846(3)
N19 N 0.63582(17) 0.28406(19) 0.91531(18)
C55 C 0.6689(2) 0.2298(2) 0.9165(2)
H37 H 0.6976 0.2218 0.8829
C56 C 0.6637(2) 0.1859(2) 0.9627(2)
H38 H 0.6885 0.1485 0.9614
C59 C 0.5951(3) 0.2934(3) 0.9617(3)
H40 H 0.5703 0.3307 0.9614
Cu5 Cu 0.84846(3) 0.65154(3) 0.34846(3)
Cu6 Cu 0.65154(3) 0.84846(3) 0.34846(3)
Cu7 Cu 0.15154(3) 0.65154(3) 0.65154(3)
Cu10 Cu 0.34846(3) 0.34846(3) 0.15154(3)
Cu11 Cu 0.84846(3) 0.15154(3) 0.84846(3)
N25 N 0.36418(17) 0.71594(19) 0.91531(18)
N26 N 0.58469(18) 0.13582(17) 0.71594(19)
N27 N 0.28406(19) 0.58469(18) 0.86418(17)
N28 N 0.71594(19) 0.41531(18) 0.86418(17)
N29 N 0.91531(18) 0.36418(17) 0.71594(19)
N30 N 0.86418(17) 0.28406(19) 0.58469(18)
N31 N 0.71594(19) 0.08469(18) 0.63582(17)
O5 O 0.28932(17) 0.71068(17) 0.78932(17)
N23 N 0.78406(19) 0.91531(18) 0.13582(17)
C67 C 0.7298(2) 0.9165(2) 0.1689(2)
H45 H 0.7218 0.8829 0.1976
C68 C 0.6859(2) 0.9627(2) 0.1637(2)
H46 H 0.6485 0.9614 0.1885
C71 C 0.7934(3) 0.9617(3) 0.0951(3)
H48 H 0.8307 0.9614 0.0703
Cu12 Cu 0.84846(3) 0.84846(3) 0.15154(3)
N20_2 N 0.0666(2) 0.6571(2) 0.1036(2)
C57_2 C 0.0637(3) 0.6156(3) 0.1497(3)
C58_2 C 0.0104(3) 0.5872(3) 0.2512(3)
H39_2 H 0.0432 0.5580 0.2600
C60_2 C 0.0117(3) 0.6219(2) 0.1962(3)
N21_2 N 0.28406(19) 0.41531(18) 0.13582(17)
N22_2 N 0.1036(2) 0.5666(2) 0.1571(2)
C61_2 C 0.2298(2) 0.4165(2) 0.1689(2)
H41_2 H 0.2218 0.3829 0.1976
C62_2 C 0.1859(2) 0.4627(2) 0.1637(2)
H42_2 H 0.1485 0.4614 0.1885
C63_2 C 0.1497(3) 0.5637(3) 0.1156(3)
C64_2 C 0.2512(3) 0.5104(3) 0.0872(3)
H43_2 H 0.2600 0.5432 0.0580
C65_2 C 0.2934(3) 0.4617(3) 0.0951(3)
H44_2 H 0.3307 0.4614 0.0703
C66_2 C 0.1962(3) 0.5117(3) 0.1219(2)
N24_2 N 0.1571(2) 0.6036(2) 0.0666(2)
C69_2 C 0.1156(3) 0.6497(3) 0.0637(3)
C70_2 C 0.0872(3) 0.7512(3) 0.0104(3)
H47_2 H 0.0580 0.7600 0.0432
C72_2 C 0.1219(2) 0.6962(3) 0.0117(3)
N23_2 N 0.13582(17) 0.78406(19) 0.91531(18)
C67_2 C 0.1689(2) 0.7298(2) 0.9165(2)
H45_2 H 0.1976 0.7218 0.8829
C68_2 C 0.1637(2) 0.6859(2) 0.9627(2)
H46_2 H 0.1885 0.6485 0.9614
C71_2 C 0.0951(3) 0.7934(3) 0.9617(3)
H48_2 H 0.0703 0.8307 0.9614
Cu12_2 Cu 0.15154(3) 0.84846(3) 0.84846(3)
S1_2 S 0.7500 0.7500 0.2500
O1_2 O 0.78932(17) 0.71068(17) 0.28932(17)
O2_2 O 0.71068(17) 0.71068(17) 0.21068(17)
O3_2 O 0.71068(17) 0.78932(17) 0.28932(17)
O4_2 O 0.78932(17) 0.78932(17) 0.21068(17)
Cu2_2 Cu 0.65154(3) 0.65154(3) 0.15154(3)
N7_2 N 0.58469(18) 0.63582(17) 0.21594(19)
N8_2 N 0.4334(2) 0.6571(2) 0.3964(2)
C19_2 C 0.5835(2) 0.6689(2) 0.2702(2)
H13_2 H 0.6171 0.6976 0.2782
C20_2 C 0.5373(2) 0.6637(2) 0.3141(2)
H14_2 H 0.5386 0.6885 0.3515
C21_2 C 0.4363(3) 0.6156(3) 0.3503(3)
C22_2 C 0.4896(3) 0.5872(3) 0.2488(3)
H15_2 H 0.4568 0.5580 0.2400
C23_2 C 0.5383(3) 0.5951(3) 0.2066(3)
H16_2 H 0.5386 0.5703 0.1693
C24_2 C 0.4883(3) 0.6219(2) 0.3038(3)
N9_2 N 0.21594(19) 0.41531(18) 0.36418(17)
N10_2 N 0.3964(2) 0.5666(2) 0.3429(2)
C25_2 C 0.2702(2) 0.4165(2) 0.3311(2)
H17_2 H 0.2782 0.3829 0.3024
C26_2 C 0.3141(2) 0.4627(2) 0.3363(2)
H18_2 H 0.3515 0.4614 0.3115
C27_2 C 0.3503(3) 0.5637(3) 0.3844(3)
C28_2 C 0.2488(3) 0.5104(3) 0.4128(3)
H19_2 H 0.2400 0.5432 0.4420
C29_2 C 0.2066(3) 0.4617(3) 0.4049(3)
H20_2 H 0.1693 0.4614 0.4297
C30_2 C 0.3038(3) 0.5117(3) 0.3781(2)
N11_2 N 0.36418(17) 0.78406(19) 0.58469(18)
N12_2 N 0.3429(2) 0.6036(2) 0.4334(2)
C31_2 C 0.3311(2) 0.7298(2) 0.5835(2)
H21_2 H 0.3024 0.7218 0.6171
C32_2 C 0.3363(2) 0.6859(2) 0.5373(2)
H22_2 H 0.3115 0.6485 0.5386
C33_2 C 0.3844(3) 0.6497(3) 0.4363(3)
C34_2 C 0.4128(3) 0.7512(3) 0.4896(3)
H23_2 H 0.4420 0.7600 0.4568
C35_2 C 0.4049(3) 0.7934(3) 0.5383(3)
H24_2 H 0.4297 0.8307 0.5386
C36_2 C 0.3781(2) 0.6962(3) 0.4883(3)
N19_2 N 0.91531(18) 0.63582(17) 0.28406(19)
C55_2 C 0.9165(2) 0.6689(2) 0.2298(2)
H37_2 H 0.8829 0.6976 0.2218
C56_2 C 0.9627(2) 0.6637(2) 0.1859(2)
H38_2 H 0.9614 0.6885 0.1485
C59_2 C 0.9617(3) 0.5951(3) 0.2934(3)
H40_2 H 0.9614 0.5703 0.3307
Cu5_2 Cu 0.34846(3) 0.84846(3) 0.65154(3)
Cu10_2 Cu 0.15154(3) 0.34846(3) 0.34846(3)
N26_2 N 0.71594(19) 0.58469(18) 0.13582(17)
N28_2 N 0.86418(17) 0.71594(19) 0.41531(18)
N29_2 N 0.71594(19) 0.91531(18) 0.36418(17)
N30_2 N 0.58469(18) 0.86418(17) 0.28406(19)
N31_2 N 0.63582(17) 0.71594(19) 0.08469(18)
N20_3 N 0.1036(2) 0.0666(2) 0.6571(2)
C57_3 C 0.1497(3) 0.0637(3) 0.6156(3)
C58_3 C 0.2512(3) 0.0104(3) 0.5872(3)
H39_3 H 0.2600 0.0432 0.5580
C60_3 C 0.1962(3) 0.0117(3) 0.6219(2)
N21_3 N 0.13582(17) 0.28406(19) 0.41531(18)
N22_3 N 0.1571(2) 0.1036(2) 0.5666(2)
C61_3 C 0.1689(2) 0.2298(2) 0.4165(2)
H41_3 H 0.1976 0.2218 0.3829
C62_3 C 0.1637(2) 0.1859(2) 0.4627(2)
H42_3 H 0.1885 0.1485 0.4614
C63_3 C 0.1156(3) 0.1497(3) 0.5637(3)
C64_3 C 0.0872(3) 0.2512(3) 0.5104(3)
H43_3 H 0.0580 0.2600 0.5432
C65_3 C 0.0951(3) 0.2934(3) 0.4617(3)
H44_3 H 0.0703 0.3307 0.4614
C66_3 C 0.1219(2) 0.1962(3) 0.5117(3)
N24_3 N 0.0666(2) 0.1571(2) 0.6036(2)
C69_3 C 0.0637(3) 0.1156(3) 0.6497(3)
C70_3 C 0.0104(3) 0.0872(3) 0.7512(3)
H47_3 H 0.0432 0.0580 0.7600
C72_3 C 0.0117(3) 0.1219(2) 0.6962(3)
S1_3 S 0.2500 0.7500 0.7500
O1_3 O 0.28932(17) 0.78932(17) 0.71068(17)
O2_3 O 0.21068(17) 0.71068(17) 0.71068(17)
O4_3 O 0.21068(17) 0.78932(17) 0.78932(17)
N19_3 N 0.28406(19) 0.91531(18) 0.63582(17)
C55_3 C 0.2298(2) 0.9165(2) 0.6689(2)
H37_3 H 0.2218 0.8829 0.6976
C56_3 C 0.1859(2) 0.9627(2) 0.6637(2)
H38_3 H 0.1485 0.9614 0.6885
C59_3 C 0.2934(3) 0.9617(3) 0.5951(3)
H40_3 H 0.3307 0.9614 0.5703
N26_3 N 0.13582(17) 0.71594(19) 0.58469(18)
N28_3 N 0.41531(18) 0.86418(17) 0.71594(19)
N31_3 N 0.08469(18) 0.63582(17) 0.71594(19)
N23_3 N 0.91531(18) 0.13582(17) 0.78406(19)
C67_3 C 0.9165(2) 0.1689(2) 0.7298(2)
H45_3 H 0.8829 0.1976 0.7218
C68_3 C 0.9627(2) 0.1637(2) 0.6859(2)
H46_3 H 0.9614 0.1885 0.6485
C71_3 C 0.9617(3) 0.0951(3) 0.7934(3)
H48_3 H 0.9614 0.0703 0.8307
N23_4 N 0.08469(18) 0.86418(17) 0.78406(19)
C67_4 C 0.0835(2) 0.8311(2) 0.7298(2)
H45_4 H 0.1171 0.8024 0.7218
C68_4 C 0.0373(2) 0.8363(2) 0.6859(2)
H46_4 H 0.0386 0.8115 0.6485
C71_4 C 0.0383(3) 0.9049(3) 0.7934(3)
H48_4 H 0.0386 0.9297 0.8307
C55_4 C 0.7702(2) 0.0835(2) 0.6689(2)
H37_4 H 0.7782 0.1171 0.6976
C56_4 C 0.8141(2) 0.0373(2) 0.6637(2)
H38_4 H 0.8515 0.0386 0.6885
C59_4 C 0.7066(3) 0.0383(3) 0.5951(3)
H40_4 H 0.6693 0.0386 0.5703
N25_2 N 0.28406(19) 0.08469(18) 0.36418(17)
O5_2 O 0.28932(17) 0.21068(17) 0.28932(17)
N20_4 N 0.8964(2) 0.9334(2) 0.6571(2)
C57_4 C 0.8503(3) 0.9363(3) 0.6156(3)
C58_4 C 0.7488(3) 0.9896(3) 0.5872(3)
H39_4 H 0.7400 0.9568 0.5580
C60_4 C 0.8038(3) 0.9883(3) 0.6219(2)
N22_4 N 0.8429(2) 0.8964(2) 0.5666(2)
C61_4 C 0.8311(2) 0.7702(2) 0.4165(2)
H41_4 H 0.8024 0.7782 0.3829
C62_4 C 0.8363(2) 0.8141(2) 0.4627(2)
H42_4 H 0.8115 0.8515 0.4614
C63_4 C 0.8844(3) 0.8503(3) 0.5637(3)
C64_4 C 0.9128(3) 0.7488(3) 0.5104(3)
H43_4 H 0.9420 0.7400 0.5432
C65_4 C 0.9049(3) 0.7066(3) 0.4617(3)
H44_4 H 0.9297 0.6693 0.4614
C66_4 C 0.8781(2) 0.8038(3) 0.5117(3)
N24_4 N 0.9334(2) 0.8429(2) 0.6036(2)
C69_4 C 0.9363(3) 0.8844(3) 0.6497(3)
C70_4 C 0.9896(3) 0.9128(3) 0.7512(3)
H47_4 H 0.9568 0.9420 0.7600
C72_4 C 0.9883(3) 0.8781(2) 0.6962(3)
N23_5 N 0.13582(17) 0.21594(19) 0.08469(18)
C67_5 C 0.1689(2) 0.2702(2) 0.0835(2)
H45_5 H 0.1976 0.2782 0.1171
C68_5 C 0.1637(2) 0.3141(2) 0.0373(2)
H46_5 H 0.1885 0.3515 0.0386
C71_5 C 0.0951(3) 0.2066(3) 0.0383(3)
H48_5 H 0.0703 0.1693 0.0386
Cu12_3 Cu 0.15154(3) 0.15154(3) 0.15154(3)
N20_5 N 0.0666(2) 0.3429(2) 0.8964(2)
C57_5 C 0.0637(3) 0.3844(3) 0.8503(3)
C58_5 C 0.0104(3) 0.4128(3) 0.7488(3)
H39_5 H 0.0432 0.4420 0.7400
C60_5 C 0.0117(3) 0.3781(2) 0.8038(3)
N22_5 N 0.1036(2) 0.4334(2) 0.8429(2)
C61_5 C 0.2298(2) 0.5835(2) 0.8311(2)
H41_5 H 0.2218 0.6171 0.8024
C62_5 C 0.1859(2) 0.5373(2) 0.8363(2)
H42_5 H 0.1485 0.5386 0.8115
C63_5 C 0.1497(3) 0.4363(3) 0.8844(3)
C64_5 C 0.2512(3) 0.4896(3) 0.9128(3)
H43_5 H 0.2600 0.4568 0.9420
C65_5 C 0.2934(3) 0.5383(3) 0.9049(3)
H44_5 H 0.3307 0.5386 0.9297
C66_5 C 0.1962(3) 0.4883(3) 0.8781(2)
N24_5 N 0.1571(2) 0.3964(2) 0.9334(2)
C69_5 C 0.1156(3) 0.3503(3) 0.9363(3)
C70_5 C 0.0872(3) 0.2488(3) 0.9896(3)
H47_5 H 0.0580 0.2400 0.9568
C72_5 C 0.1219(2) 0.3038(3) 0.9883(3)
C55_5 C 0.9165(2) 0.3311(2) 0.7702(2)
H37_5 H 0.8829 0.3024 0.7782
C56_5 C 0.9627(2) 0.3363(2) 0.8141(2)
H38_5 H 0.9614 0.3115 0.8515
C59_5 C 0.9617(3) 0.4049(3) 0.7066(3)
H40_5 H 0.9614 0.4297 0.6693
N23_6 N 0.08469(18) 0.13582(17) 0.21594(19)
C67_6 C 0.0835(2) 0.1689(2) 0.2702(2)
H45_6 H 0.1171 0.1976 0.2782
C68_6 C 0.0373(2) 0.1637(2) 0.3141(2)
H46_6 H 0.0386 0.1885 0.3515
C71_6 C 0.0383(3) 0.0951(3) 0.2066(3)
H48_6 H 0.0386 0.0703 0.1693
N20_6 N 0.8964(2) 0.0666(2) 0.3429(2)
C57_6 C 0.8503(3) 0.0637(3) 0.3844(3)
C58_6 C 0.7488(3) 0.0104(3) 0.4128(3)
H39_6 H 0.7400 0.0432 0.4420
C60_6 C 0.8038(3) 0.0117(3) 0.3781(2)
N22_6 N 0.8429(2) 0.1036(2) 0.4334(2)
C61_6 C 0.8311(2) 0.2298(2) 0.5835(2)
H41_6 H 0.8024 0.2218 0.6171
C62_6 C 0.8363(2) 0.1859(2) 0.5373(2)
H42_6 H 0.8115 0.1485 0.5386
C63_6 C 0.8844(3) 0.1497(3) 0.4363(3)
C64_6 C 0.9128(3) 0.2512(3) 0.4896(3)
H43_6 H 0.9420 0.2600 0.4568
C65_6 C 0.9049(3) 0.2934(3) 0.5383(3)
H44_6 H 0.9297 0.3307 0.5386
C66_6 C 0.8781(2) 0.1962(3) 0.4883(3)
N24_6 N 0.9334(2) 0.1571(2) 0.3964(2)
C69_6 C 0.9363(3) 0.1156(3) 0.3503(3)
C70_6 C 0.9896(3) 0.0872(3) 0.2488(3)
H47_6 H 0.9568 0.0580 0.2400
C72_6 C 0.9883(3) 0.1219(2) 0.3038(3)
C55_6 C 0.7702(2) 0.9165(2) 0.3311(2)
H37_6 H 0.7782 0.8829 0.3024
C56_6 C 0.8141(2) 0.9627(2) 0.3363(2)
H38_6 H 0.8515 0.9614 0.3115
C59_6 C 0.7066(3) 0.9617(3) 0.4049(3)
H40_6 H 0.6693 0.9614 0.4297
S1_4 S 0.2500 0.2500 0.2500
O1_4 O 0.21068(17) 0.28932(17) 0.28932(17)
O2_4 O 0.28932(17) 0.28932(17) 0.21068(17)
O4_4 O 0.21068(17) 0.21068(17) 0.21068(17)
N19_4 N 0.08469(18) 0.36418(17) 0.28406(19)
C55_7 C 0.0835(2) 0.3311(2) 0.2298(2)
H37_7 H 0.1171 0.3024 0.2218
C56_7 C 0.0373(2) 0.3363(2) 0.1859(2)
H38_7 H 0.0386 0.3115 0.1485
C59_7 C 0.0383(3) 0.4049(3) 0.2934(3)
H40_7 H 0.0386 0.4297 0.3307
N31_4 N 0.36418(17) 0.28406(19) 0.08469(18)
N20_7 N 0.9334(2) 0.3429(2) 0.1036(2)
C57_7 C 0.9363(3) 0.3844(3) 0.1497(3)
C58_7 C 0.9896(3) 0.4128(3) 0.2512(3)
H39_7 H 0.9568 0.4420 0.2600
C60_7 C 0.9883(3) 0.3781(2) 0.1962(3)
N22_7 N 0.8964(2) 0.4334(2) 0.1571(2)
C61_7 C 0.7702(2) 0.5835(2) 0.1689(2)
H41_7 H 0.7782 0.6171 0.1976
C62_7 C 0.8141(2) 0.5373(2) 0.1637(2)
H42_7 H 0.8515 0.5386 0.1885
C63_7 C 0.8503(3) 0.4363(3) 0.1156(3)
C64_7 C 0.7488(3) 0.4896(3) 0.0872(3)
H43_7 H 0.7400 0.4568 0.0580
C65_7 C 0.7066(3) 0.5383(3) 0.0951(3)
H44_7 H 0.6693 0.5386 0.0703
C66_7 C 0.8038(3) 0.4883(3) 0.1219(2)
N24_7 N 0.8429(2) 0.3964(2) 0.0666(2)
C69_7 C 0.8844(3) 0.3503(3) 0.0637(3)
C70_7 C 0.9128(3) 0.2488(3) 0.0104(3)
H47_7 H 0.9420 0.2400 0.0432
C72_7 C 0.8781(2) 0.3038(3) 0.0117(3)
N23_7 N 0.86418(17) 0.21594(19) 0.91531(18)
C67_7 C 0.8311(2) 0.2702(2) 0.9165(2)
H45_7 H 0.8024 0.2782 0.8829
C68_7 C 0.8363(2) 0.3141(2) 0.9627(2)
H46_7 H 0.8115 0.3515 0.9614
C71_7 C 0.9049(3) 0.2066(3) 0.9617(3)
H48_7 H 0.9297 0.1693 0.9614
C55_8 C 0.0835(2) 0.6689(2) 0.7702(2)
H37_8 H 0.1171 0.6976 0.7782
C56_8 C 0.0373(2) 0.6637(2) 0.8141(2)
H38_8 H 0.0386 0.6885 0.8515
C59_8 C 0.0383(3) 0.5951(3) 0.7066(3)
H40_8 H 0.0386 0.5703 0.6693
N23_8 N 0.86418(17) 0.78406(19) 0.08469(18)
C67_8 C 0.8311(2) 0.7298(2) 0.0835(2)
H45_8 H 0.8024 0.7218 0.1171
C68_8 C 0.8363(2) 0.6859(2) 0.0373(2)
H46_8 H 0.8115 0.6485 0.0386
C71_8 C 0.9049(3) 0.7934(3) 0.0383(3)
H48_8 H 0.9297 0.8307 0.0386
N20_8 N 0.9334(2) 0.6571(2) 0.8964(2)
C57_8 C 0.9363(3) 0.6156(3) 0.8503(3)
C58_8 C 0.9896(3) 0.5872(3) 0.7488(3)
H39_8 H 0.9568 0.5580 0.7400
C60_8 C 0.9883(3) 0.6219(2) 0.8038(3)
N22_8 N 0.8964(2) 0.5666(2) 0.8429(2)
C61_8 C 0.7702(2) 0.4165(2) 0.8311(2)
H41_8 H 0.7782 0.3829 0.8024
C62_8 C 0.8141(2) 0.4627(2) 0.8363(2)
H42_8 H 0.8515 0.4614 0.8115
C63_8 C 0.8503(3) 0.5637(3) 0.8844(3)
C64_8 C 0.7488(3) 0.5104(3) 0.9128(3)
H43_8 H 0.7400 0.5432 0.9420
C65_8 C 0.7066(3) 0.4617(3) 0.9049(3)
H44_8 H 0.6693 0.4614 0.9297
C66_8 C 0.8038(3) 0.5117(3) 0.8781(2)
N24_8 N 0.8429(2) 0.6036(2) 0.9334(2)
C69_8 C 0.8844(3) 0.6497(3) 0.9363(3)
C70_8 C 0.9128(3) 0.7512(3) 0.9896(3)
H47_8 H 0.9420 0.7600 0.9568
C72_8 C 0.8781(2) 0.6962(3) 0.9883(3)
C55_9 C 0.2298(2) 0.0835(2) 0.3311(2)
H37_9 H 0.2218 0.1171 0.3024
C56_9 C 0.1859(2) 0.0373(2) 0.3363(2)
H38_9 H 0.1485 0.0386 0.3115
C59_9 C 0.2934(3) 0.0383(3) 0.4049(3)
H40_9 H 0.3307 0.0386 0.4297
N20_9 N 0.1036(2) 0.9334(2) 0.3429(2)
C57_9 C 0.1497(3) 0.9363(3) 0.3844(3)
C58_9 C 0.2512(3) 0.9896(3) 0.4128(3)
H39_9 H 0.2600 0.9568 0.4420
C60_9 C 0.1962(3) 0.9883(3) 0.3781(2)
N22_9 N 0.1571(2) 0.8964(2) 0.4334(2)
C61_9 C 0.1689(2) 0.7702(2) 0.5835(2)
H41_9 H 0.1976 0.7782 0.6171
C62_9 C 0.1637(2) 0.8141(2) 0.5373(2)
H42_9 H 0.1885 0.8515 0.5386
C63_9 C 0.1156(3) 0.8503(3) 0.4363(3)
C64_9 C 0.0872(3) 0.7488(3) 0.4896(3)
H43_9 H 0.0580 0.7400 0.4568
C65_9 C 0.0951(3) 0.7066(3) 0.5383(3)
H44_9 H 0.0703 0.6693 0.5386
C66_9 C 0.1219(2) 0.8038(3) 0.4883(3)
N24_9 N 0.0666(2) 0.8429(2) 0.3964(2)
C69_9 C 0.0637(3) 0.8844(3) 0.3503(3)
C70_9 C 0.0104(3) 0.9128(3) 0.2488(3)
H47_9 H 0.0432 0.9420 0.2400
C72_9 C 0.0117(3) 0.8781(2) 0.3038(3)
N23_9 N 0.91531(18) 0.86418(17) 0.21594(19)
C67_9 C 0.9165(2) 0.8311(2) 0.2702(2)
H45_9 H 0.8829 0.8024 0.2782
C68_9 C 0.9627(2) 0.8363(2) 0.3141(2)
H46_9 H 0.9614 0.8115 0.3515
C71_9 C 0.9617(3) 0.9049(3) 0.2066(3)
H48_9 H 0.9614 0.9297 0.1693
N23_10 N 0.21594(19) 0.08469(18) 0.13582(17)
C67_10 C 0.2702(2) 0.0835(2) 0.1689(2)
H45_10 H 0.2782 0.1171 0.1976
C68_10 C 0.3141(2) 0.0373(2) 0.1637(2)
H46_10 H 0.3515 0.0386 0.1885
C71_10 C 0.2066(3) 0.0383(3) 0.0951(3)
H48_10 H 0.1693 0.0386 0.0703
N20_10 N 0.3429(2) 0.8964(2) 0.0666(2)
C57_10 C 0.3844(3) 0.8503(3) 0.0637(3)
C58_10 C 0.4128(3) 0.7488(3) 0.0104(3)
H39_10 H 0.4420 0.7400 0.0432
C60_10 C 0.3781(2) 0.8038(3) 0.0117(3)
N22_10 N 0.4334(2) 0.8429(2) 0.1036(2)
C61_10 C 0.5835(2) 0.8311(2) 0.2298(2)
H41_10 H 0.6171 0.8024 0.2218
C62_10 C 0.5373(2) 0.8363(2) 0.1859(2)
H42_10 H 0.5386 0.8115 0.1485
C63_10 C 0.4363(3) 0.8844(3) 0.1497(3)
C64_10 C 0.4896(3) 0.9128(3) 0.2512(3)
H43_10 H 0.4568 0.9420 0.2600
C65_10 C 0.5383(3) 0.9049(3) 0.2934(3)
H44_10 H 0.5386 0.9297 0.3307
C66_10 C 0.4883(3) 0.8781(2) 0.1962(3)
N24_10 N 0.3964(2) 0.9334(2) 0.1571(2)
C69_10 C 0.3503(3) 0.9363(3) 0.1156(3)
C70_10 C 0.2488(3) 0.9896(3) 0.0872(3)
H47_10 H 0.2400 0.9568 0.0580
C72_10 C 0.3038(3) 0.9883(3) 0.1219(2)
C55_10 C 0.3311(2) 0.7702(2) 0.9165(2)
H37_10 H 0.3024 0.7782 0.8829
C56_10 C 0.3363(2) 0.8141(2) 0.9627(2)
H38_10 H 0.3115 0.8515 0.9614
C59_10 C 0.4049(3) 0.7066(3) 0.9617(3)
H40_10 H 0.4297 0.6693 0.9614
N23_11 N 0.78406(19) 0.08469(18) 0.86418(17)
C67_11 C 0.7298(2) 0.0835(2) 0.8311(2)
H45_11 H 0.7218 0.1171 0.8024
C68_11 C 0.6859(2) 0.0373(2) 0.8363(2)
H46_11 H 0.6485 0.0386 0.8115
C71_11 C 0.7934(3) 0.0383(3) 0.9049(3)
H48_11 H 0.8307 0.0386 0.9297
C55_11 C 0.6689(2) 0.7702(2) 0.0835(2)
H37_11 H 0.6976 0.7782 0.1171
C56_11 C 0.6637(2) 0.8141(2) 0.0373(2)
H38_11 H 0.6885 0.8515 0.0386
C59_11 C 0.5951(3) 0.7066(3) 0.0383(3)
H40_11 H 0.5703 0.6693 0.0386
N20_11 N 0.6571(2) 0.8964(2) 0.9334(2)
C57_11 C 0.6156(3) 0.8503(3) 0.9363(3)
C58_11 C 0.5872(3) 0.7488(3) 0.9896(3)
H39_11 H 0.5580 0.7400 0.9568
C60_11 C 0.6219(2) 0.8038(3) 0.9883(3)
N22_11 N 0.5666(2) 0.8429(2) 0.8964(2)
C61_11 C 0.4165(2) 0.8311(2) 0.7702(2)
H41_11 H 0.3829 0.8024 0.7782
C62_11 C 0.4627(2) 0.8363(2) 0.8141(2)
H42_11 H 0.4614 0.8115 0.8515
C63_11 C 0.5637(3) 0.8844(3) 0.8503(3)
C64_11 C 0.5104(3) 0.9128(3) 0.7488(3)
H43_11 H 0.5432 0.9420 0.7400
C65_11 C 0.4617(3) 0.9049(3) 0.7066(3)
H44_11 H 0.4614 0.9297 0.6693
C66_11 C 0.5117(3) 0.8781(2) 0.8038(3)
N24_11 N 0.6036(2) 0.9334(2) 0.8429(2)
C69_11 C 0.6497(3) 0.9363(3) 0.8844(3)
C70_11 C 0.7512(3) 0.9896(3) 0.9128(3)
H47_11 H 0.7600 0.9568 0.9420
C72_11 C 0.6962(3) 0.9883(3) 0.8781(2)
C55_12 C 0.3311(2) 0.2298(2) 0.0835(2)
H37_12 H 0.3024 0.2218 0.1171
C56_12 C 0.3363(2) 0.1859(2) 0.0373(2)
H38_12 H 0.3115 0.1485 0.0386
C59_12 C 0.4049(3) 0.2934(3) 0.0383(3)
H40_12 H 0.4297 0.3307 0.0386
N20_12 N 0.3429(2) 0.1036(2) 0.9334(2)
C57_12 C 0.3844(3) 0.1497(3) 0.9363(3)
C58_12 C 0.4128(3) 0.2512(3) 0.9896(3)
H39_12 H 0.4420 0.2600 0.9568
C60_12 C 0.3781(2) 0.1962(3) 0.9883(3)
N22_12 N 0.4334(2) 0.1571(2) 0.8964(2)
C61_12 C 0.5835(2) 0.1689(2) 0.7702(2)
H41_12 H 0.6171 0.1976 0.7782
C62_12 C 0.5373(2) 0.1637(2) 0.8141(2)
H42_12 H 0.5386 0.1885 0.8515
C63_12 C 0.4363(3) 0.1156(3) 0.8503(3)
C64_12 C 0.4896(3) 0.0872(3) 0.7488(3)
H43_12 H 0.4568 0.0580 0.7400
C65_12 C 0.5383(3) 0.0951(3) 0.7066(3)
H44_12 H 0.5386 0.0703 0.6693
C66_12 C 0.4883(3) 0.1219(2) 0.8038(3)
N24_12 N 0.3964(2) 0.0666(2) 0.8429(2)
C69_12 C 0.3503(3) 0.0637(3) 0.8844(3)
C70_12 C 0.2488(3) 0.0104(3) 0.9128(3)
H47_12 H 0.2400 0.0432 0.9420
C72_12 C 0.3038(3) 0.0117(3) 0.8781(2)
N23_12 N 0.21594(19) 0.91531(18) 0.86418(17)
C67_12 C 0.2702(2) 0.9165(2) 0.8311(2)
H45_12 H 0.2782 0.8829 0.8024
C68_12 C 0.3141(2) 0.9627(2) 0.8363(2)
H46_12 H 0.3515 0.9614 0.8115
C71_12 C 0.2066(3) 0.9617(3) 0.9049(3)
H48_12 H 0.1693 0.9614 0.9297
loop_
_geom_bond_atom_site_label_1
_geom_bond_atom_site_label_2
_geom_bond_site_symmetry_1
_geom_bond_site_symmetry_2
N20 C57 1_555 1_555
C57 C60 1_555 1_555
C58 H39 1_555 1_555
N21 C61 1_555 1_555
N22 C57 1_555 1_555
C61 H41 1_555 1_555
C62 C61 1_555 1_555
H42 C62 1_555 1_555
C63 N22 1_555 1_555
C64 H43 1_555 1_555
C65 N21 1_555 1_555
H44 C65 1_555 1_555
C66 C62 1_555 1_555
N24 C63 1_555 1_555
C69 N20 1_555 1_555
C70 H47 1_555 1_555
Cu9 N21 1_555 1_555
C58 C60 1_555 1_555
C63 C66 1_555 1_555
C64 C65 1_555 1_555
C64 C66 1_555 1_555
N24 C69 1_555 1_555
C69 C72 1_555 1_555
C70 C72 1_555 1_555
Cu1 N1 1_555 1_555
S1 O1 1_555 1_555
N1 C1 1_555 1_555
N2 C3 1_555 1_555
C1 H1 1_555 1_555
C2 C1 1_555 1_555
H2 C2 1_555 1_555
C3 C6 1_555 1_555
C4 H3 1_555 1_555
C5 N1 1_555 1_555
H4 C5 1_555 1_555
C6 C2 1_555 1_555
O1 Cu1 1_555 1_555
O2 S1 1_555 1_555
O3 S1 1_555 1_555
O4 S1 1_555 1_555
N3 C7 1_555 1_555
N4 C3 1_555 1_555
C7 H5 1_555 1_555
C8 C7 1_555 1_555
H6 C8 1_555 1_555
C9 N4 1_555 1_555
C10 H7 1_555 1_555
C11 N3 1_555 1_555
H8 C11 1_555 1_555
C12 C8 1_555 1_555
N5 C13 1_555 1_555
N6 C9 1_555 1_555
C13 H9 1_555 1_555
C14 C13 1_555 1_555
H10 C14 1_555 1_555
C15 N2 1_555 1_555
C16 H11 1_555 1_555
C17 N5 1_555 1_555
H12 C17 1_555 1_555
C18 C14 1_555 1_555
Cu2 O2 1_555 1_555
N7 Cu2 1_555 1_555
N8 C21 1_555 1_555
C19 N7 1_555 1_555
H13 C19 1_555 1_555
C20 C19 1_555 1_555
H14 C20 1_555 1_555
C21 C24 1_555 1_555
C22 H15 1_555 1_555
C23 N7 1_555 1_555
H16 C23 1_555 1_555
C24 C20 1_555 1_555
N9 C25 1_555 1_555
N10 C21 1_555 1_555
C25 H17 1_555 1_555
C26 C25 1_555 1_555
H18 C26 1_555 1_555
C27 N10 1_555 1_555
C28 H19 1_555 1_555
C29 N9 1_555 1_555
H20 C29 1_555 1_555
C30 C26 1_555 1_555
N11 C31 1_555 1_555
N12 C27 1_555 1_555
C31 H21 1_555 1_555
C32 C31 1_555 1_555
H22 C32 1_555 1_555
C33 N8 1_555 1_555
C34 H23 1_555 1_555
C35 N11 1_555 1_555
H24 C35 1_555 1_555
C36 C32 1_555 1_555
Cu3 O3 1_555 1_555
N13 Cu3 1_555 1_555
N14 C39 1_555 1_555
C37 N13 1_555 1_555
H25 C37 1_555 1_555
C38 C37 1_555 1_555
H26 C38 1_555 1_555
C39 C42 1_555 1_555
C40 H27 1_555 1_555
C41 N13 1_555 1_555
H28 C41 1_555 1_555
C42 C38 1_555 1_555
N15 C43 1_555 1_555
N16 C39 1_555 1_555
C43 H29 1_555 1_555
C44 C43 1_555 1_555
H30 C44 1_555 1_555
C45 N16 1_555 1_555
C46 H31 1_555 1_555
C47 N15 1_555 1_555
H32 C47 1_555 1_555
C48 C44 1_555 1_555
N17 C49 1_555 1_555
N18 C45 1_555 1_555
C49 H33 1_555 1_555
C50 C49 1_555 1_555
H34 C50 1_555 1_555
C51 N14 1_555 1_555
C52 H35 1_555 1_555
C53 N17 1_555 1_555
H36 C53 1_555 1_555
C54 C50 1_555 1_555
Cu4 N17 1_555 1_555
N19 Cu1 1_555 1_555
C55 N19 1_555 1_555
H37 C55 1_555 1_555
C56 C55 1_555 1_555
H38 C56 1_555 1_555
C59 N19 1_555 1_555
H40 C59 1_555 1_555
Cu5 N11 1_555 1_555
Cu6 N15 1_555 1_555
Cu7 N3 1_555 1_555
Cu9 N5 1_555 1_555
Cu10 N9 1_555 1_555
Cu11 O4 1_555 1_555
N25 Cu4 1_555 1_555
N26 Cu2 1_555 1_555
N27 Cu4 1_555 1_555
N28 Cu1 1_555 1_555
N29 Cu3 1_555 1_555
N30 Cu3 1_555 1_555
N31 Cu2 1_555 1_555
O5 Cu4 1_555 1_555
C4 C5 1_555 1_555
C4 C6 1_555 1_555
C9 C12 1_555 1_555
C10 C11 1_555 1_555
C10 C12 1_555 1_555
N6 C15 1_555 1_555
C15 C18 1_555 1_555
C16 C17 1_555 1_555
C16 C18 1_555 1_555
C22 C23 1_555 1_555
C22 C24 1_555 1_555
C27 C30 1_555 1_555
C28 C29 1_555 1_555
C28 C30 1_555 1_555
N12 C33 1_555 1_555
C33 C36 1_555 1_555
C34 C35 1_555 1_555
C34 C36 1_555 1_555
C40 C41 1_555 1_555
C40 C42 1_555 1_555
C45 C48 1_555 1_555
C46 C47 1_555 1_555
C46 C48 1_555 1_555
N18 C51 1_555 1_555
C51 C54 1_555 1_555
C52 C53 1_555 1_555
C52 C54 1_555 1_555
N23 C67 1_555 1_555
C67 H45 1_555 1_555
C68 C67 1_555 1_555
H46 C68 1_555 1_555
C71 N23 1_555 1_555
H48 C71 1_555 1_555
Cu12 N23 1_555 1_555
N20_2 C57_2 1_555 1_555
C57_2 C60_2 1_555 1_555
C58_2 H39_2 1_555 1_555
N21_2 C61_2 1_555 1_555
N22_2 C57_2 1_555 1_555
C61_2 H41_2 1_555 1_555
C62_2 C61_2 1_555 1_555
H42_2 C62_2 1_555 1_555
C63_2 N22_2 1_555 1_555
C64_2 H43_2 1_555 1_555
C65_2 N21_2 1_555 1_555
H44_2 C65_2 1_555 1_555
C66_2 C62_2 1_555 1_555
N24_2 C63_2 1_555 1_555
C69_2 N20_2 1_555 1_555
C70_2 H47_2 1_555 1_555
Cu10 N21_2 1_555 1_555
C58_2 C60_2 1_555 1_555
C63_2 C66_2 1_555 1_555
C64_2 C65_2 1_555 1_555
C64_2 C66_2 1_555 1_555
N24_2 C69_2 1_555 1_555
C69_2 C72_2 1_555 1_555
C70_2 C72_2 1_555 1_555
N23_2 C67_2 1_555 1_555
C67_2 H45_2 1_555 1_555
C68_2 C67_2 1_555 1_555
H46_2 C68_2 1_555 1_555
C71_2 N23_2 1_555 1_555
H48_2 C71_2 1_555 1_555
Cu12_2 N23_2 1_555 1_555
S1_2 O1_2 1_555 1_555
O1_2 Cu5 1_555 1_555
O2_2 S1_2 1_555 1_555
O3_2 S1_2 1_555 1_555
O4_2 S1_2 1_555 1_555
Cu2_2 O2_2 1_555 1_555
N7_2 Cu2_2 1_555 1_555
N8_2 C21_2 1_555 1_555
C19_2 N7_2 1_555 1_555
H13_2 C19_2 1_555 1_555
C20_2 C19_2 1_555 1_555
H14_2 C20_2 1_555 1_555
C21_2 C24_2 1_555 1_555
C22_2 H15_2 1_555 1_555
C23_2 N7_2 1_555 1_555
H16_2 C23_2 1_555 1_555
C24_2 C20_2 1_555 1_555
N9_2 C25_2 1_555 1_555
N10_2 C21_2 1_555 1_555
C25_2 H17_2 1_555 1_555
C26_2 C25_2 1_555 1_555
H18_2 C26_2 1_555 1_555
C27_2 N10_2 1_555 1_555
C28_2 H19_2 1_555 1_555
C29_2 N9_2 1_555 1_555
H20_2 C29_2 1_555 1_555
C30_2 C26_2 1_555 1_555
N11_2 C31_2 1_555 1_555
N12_2 C27_2 1_555 1_555
C31_2 H21_2 1_555 1_555
C32_2 C31_2 1_555 1_555
H22_2 C32_2 1_555 1_555
C33_2 N8_2 1_555 1_555
C34_2 H23_2 1_555 1_555
C35_2 N11_2 1_555 1_555
H24_2 C35_2 1_555 1_555
C36_2 C32_2 1_555 1_555
Cu6 O3_2 1_555 1_555
N19_2 Cu5 1_555 1_555
C55_2 N19_2 1_555 1_555
H37_2 C55_2 1_555 1_555
C56_2 C55_2 1_555 1_555
H38_2 C56_2 1_555 1_555
C59_2 N19_2 1_555 1_555
H40_2 C59_2 1_555 1_555
Cu5_2 N11_2 1_555 1_555
Cu10_2 N9_2 1_555 1_555
Cu12 O4_2 1_555 1_555
N26_2 Cu2_2 1_555 1_555
N28_2 Cu5 1_555 1_555
N29_2 Cu6 1_555 1_555
N30_2 Cu6 1_555 1_555
N31_2 Cu2_2 1_555 1_555
C22_2 C23_2 1_555 1_555
C22_2 C24_2 1_555 1_555
C27_2 C30_2 1_555 1_555
C28_2 C29_2 1_555 1_555
C28_2 C30_2 1_555 1_555
N12_2 C33_2 1_555 1_555
C33_2 C36_2 1_555 1_555
C34_2 C35_2 1_555 1_555
C34_2 C36_2 1_555 1_555
N20_3 C57_3 1_555 1_555
C57_3 C60_3 1_555 1_555
C58_3 H39_3 1_555 1_555
N21_3 C61_3 1_555 1_555
N22_3 C57_3 1_555 1_555
C61_3 H41_3 1_555 1_555
C62_3 C61_3 1_555 1_555
H42_3 C62_3 1_555 1_555
C63_3 N22_3 1_555 1_555
C64_3 H43_3 1_555 1_555
C65_3 N21_3 1_555 1_555
H44_3 C65_3 1_555 1_555
C66_3 C62_3 1_555 1_555
N24_3 C63_3 1_555 1_555
C69_3 N20_3 1_555 1_555
C70_3 H47_3 1_555 1_555
Cu10_2 N21_3 1_555 1_555
C58_3 C60_3 1_555 1_555
C63_3 C66_3 1_555 1_555
C64_3 C65_3 1_555 1_555
C64_3 C66_3 1_555 1_555
N24_3 C69_3 1_555 1_555
C69_3 C72_3 1_555 1_555
C70_3 C72_3 1_555 1_555
S1_3 O1_3 1_555 1_555
O1_3 Cu5_2 1_555 1_555
O2_3 S1_3 1_555 1_555
O5 S1_3 1_555 1_555
O4_3 S1_3 1_555 1_555
Cu7 O2_3 1_555 1_555
N19_3 Cu5_2 1_555 1_555
C55_3 N19_3 1_555 1_555
H37_3 C55_3 1_555 1_555
C56_3 C55_3 1_555 1_555
H38_3 C56_3 1_555 1_555
C59_3 N19_3 1_555 1_555
H40_3 C59_3 1_555 1_555
Cu12_2 O4_3 1_555 1_555
N26_3 Cu7 1_555 1_555
N28_3 Cu5_2 1_555 1_555
N31_3 Cu7 1_555 1_555
N23_3 C67_3 1_555 1_555
C67_3 H45_3 1_555 1_555
C68_3 C67_3 1_555 1_555
H46_3 C68_3 1_555 1_555
C71_3 N23_3 1_555 1_555
H48_3 C71_3 1_555 1_555
Cu11 N23_3 1_555 1_555
N23_4 C67_4 1_555 1_555
C67_4 H45_4 1_555 1_555
C68_4 C67_4 1_555 1_555
H46_4 C68_4 1_555 1_555
C71_4 N23_4 1_555 1_555
H48_4 C71_4 1_555 1_555
Cu12_2 N23_4 1_555 1_555
C55_4 N31 1_555 1_555
H37_4 C55_4 1_555 1_555
C56_4 C55_4 1_555 1_555
H38_4 C56_4 1_555 1_555
C59_4 N31 1_555 1_555
H40_4 C59_4 1_555 1_555
N25_2 Cu9 1_555 1_555
O5_2 Cu9 1_555 1_555
N20_4 C57_4 1_555 1_555
C57_4 C60_4 1_555 1_555
C58_4 H39_4 1_555 1_555
N28_2 C61_4 1_555 1_555
N22_4 C57_4 1_555 1_555
C61_4 H41_4 1_555 1_555
C62_4 C61_4 1_555 1_555
H42_4 C62_4 1_555 1_555
C63_4 N22_4 1_555 1_555
C64_4 H43_4 1_555 1_555
C65_4 N28_2 1_555 1_555
H44_4 C65_4 1_555 1_555
C66_4 C62_4 1_555 1_555
N24_4 C63_4 1_555 1_555
C69_4 N20_4 1_555 1_555
C70_4 H47_4 1_555 1_555
C58_4 C60_4 1_555 1_555
C63_4 C66_4 1_555 1_555
C64_4 C65_4 1_555 1_555
C64_4 C66_4 1_555 1_555
N24_4 C69_4 1_555 1_555
C69_4 C72_4 1_555 1_555
C70_4 C72_4 1_555 1_555
N23_5 C67_5 1_555 1_555
C67_5 H45_5 1_555 1_555
C68_5 C67_5 1_555 1_555
H46_5 C68_5 1_555 1_555
C71_5 N23_5 1_555 1_555
H48_5 C71_5 1_555 1_555
Cu12_3 N23_5 1_555 1_555
N20_5 C57_5 1_555 1_555
C57_5 C60_5 1_555 1_555
C58_5 H39_5 1_555 1_555
N27 C61_5 1_555 1_555
N22_5 C57_5 1_555 1_555
C61_5 H41_5 1_555 1_555
C62_5 C61_5 1_555 1_555
H42_5 C62_5 1_555 1_555
C63_5 N22_5 1_555 1_555
C64_5 H43_5 1_555 1_555
C65_5 N27 1_555 1_555
H44_5 C65_5 1_555 1_555
C66_5 C62_5 1_555 1_555
N24_5 C63_5 1_555 1_555
C69_5 N20_5 1_555 1_555
C70_5 H47_5 1_555 1_555
C58_5 C60_5 1_555 1_555
C63_5 C66_5 1_555 1_555
C64_5 C65_5 1_555 1_555
C64_5 C66_5 1_555 1_555
N24_5 C69_5 1_555 1_555
C69_5 C72_5 1_555 1_555
C70_5 C72_5 1_555 1_555
C55_5 N29 1_555 1_555
H37_5 C55_5 1_555 1_555
C56_5 C55_5 1_555 1_555
H38_5 C56_5 1_555 1_555
C59_5 N29 1_555 1_555
H40_5 C59_5 1_555 1_555
N23_6 C67_6 1_555 1_555
C67_6 H45_6 1_555 1_555
C68_6 C67_6 1_555 1_555
H46_6 C68_6 1_555 1_555
C71_6 N23_6 1_555 1_555
H48_6 C71_6 1_555 1_555
Cu12_3 N23_6 1_555 1_555
N20_6 C57_6 1_555 1_555
C57_6 C60_6 1_555 1_555
C58_6 H39_6 1_555 1_555
N30 C61_6 1_555 1_555
N22_6 C57_6 1_555 1_555
C61_6 H41_6 1_555 1_555
C62_6 C61_6 1_555 1_555
H42_6 C62_6 1_555 1_555
C63_6 N22_6 1_555 1_555
C64_6 H43_6 1_555 1_555
C65_6 N30 1_555 1_555
H44_6 C65_6 1_555 1_555
C66_6 C62_6 1_555 1_555
N24_6 C63_6 1_555 1_555
C69_6 N20_6 1_555 1_555
C70_6 H47_6 1_555 1_555
C58_6 C60_6 1_555 1_555
C63_6 C66_6 1_555 1_555
C64_6 C65_6 1_555 1_555
C64_6 C66_6 1_555 1_555
N24_6 C69_6 1_555 1_555
C69_6 C72_6 1_555 1_555
C70_6 C72_6 1_555 1_555
C55_6 N29_2 1_555 1_555
H37_6 C55_6 1_555 1_555
C56_6 C55_6 1_555 1_555
H38_6 C56_6 1_555 1_555
C59_6 N29_2 1_555 1_555
H40_6 C59_6 1_555 1_555
S1_4 O1_4 1_555 1_555
O1_4 Cu10_2 1_555 1_555
O2_4 S1_4 1_555 1_555
O5_2 S1_4 1_555 1_555
O4_4 S1_4 1_555 1_555
Cu10 O2_4 1_555 1_555
N19_4 Cu10_2 1_555 1_555
C55_7 N19_4 1_555 1_555
H37_7 C55_7 1_555 1_555
C56_7 C55_7 1_555 1_555
H38_7 C56_7 1_555 1_555
C59_7 N19_4 1_555 1_555
H40_7 C59_7 1_555 1_555
Cu12_3 O4_4 1_555 1_555
N31_4 Cu10 1_555 1_555
N20_7 C57_7 1_555 1_555
C57_7 C60_7 1_555 1_555
C58_7 H39_7 1_555 1_555
N26_2 C61_7 1_555 1_555
N22_7 C57_7 1_555 1_555
C61_7 H41_7 1_555 1_555
C62_7 C61_7 1_555 1_555
H42_7 C62_7 1_555 1_555
C63_7 N22_7 1_555 1_555
C64_7 H43_7 1_555 1_555
C65_7 N26_2 1_555 1_555
H44_7 C65_7 1_555 1_555
C66_7 C62_7 1_555 1_555
N24_7 C63_7 1_555 1_555
C69_7 N20_7 1_555 1_555
C70_7 H47_7 1_555 1_555
C58_7 C60_7 1_555 1_555
C63_7 C66_7 1_555 1_555
C64_7 C65_7 1_555 1_555
C64_7 C66_7 1_555 1_555
N24_7 C69_7 1_555 1_555
C69_7 C72_7 1_555 1_555
C70_7 C72_7 1_555 1_555
N23_7 C67_7 1_555 1_555
C67_7 H45_7 1_555 1_555
C68_7 C67_7 1_555 1_555
H46_7 C68_7 1_555 1_555
C71_7 N23_7 1_555 1_555
H48_7 C71_7 1_555 1_555
Cu11 N23_7 1_555 1_555
C55_8 N31_3 1_555 1_555
H37_8 C55_8 1_555 1_555
C56_8 C55_8 1_555 1_555
H38_8 C56_8 1_555 1_555
C59_8 N31_3 1_555 1_555
H40_8 C59_8 1_555 1_555
N23_8 C67_8 1_555 1_555
C67_8 H45_8 1_555 1_555
C68_8 C67_8 1_555 1_555
H46_8 C68_8 1_555 1_555
C71_8 N23_8 1_555 1_555
H48_8 C71_8 1_555 1_555
Cu12 N23_8 1_555 1_555
N20_8 C57_8 1_555 1_555
C57_8 C60_8 1_555 1_555
C58_8 H39_8 1_555 1_555
N28 C61_8 1_555 1_555
N22_8 C57_8 1_555 1_555
C61_8 H41_8 1_555 1_555
C62_8 C61_8 1_555 1_555
H42_8 C62_8 1_555 1_555
C63_8 N22_8 1_555 1_555
C64_8 H43_8 1_555 1_555
C65_8 N28 1_555 1_555
H44_8 C65_8 1_555 1_555
C66_8 C62_8 1_555 1_555
N24_8 C63_8 1_555 1_555
C69_8 N20_8 1_555 1_555
C70_8 H47_8 1_555 1_555
C58_8 C60_8 1_555 1_555
C63_8 C66_8 1_555 1_555
C64_8 C65_8 1_555 1_555
C64_8 C66_8 1_555 1_555
N24_8 C69_8 1_555 1_555
C69_8 C72_8 1_555 1_555
C70_8 C72_8 1_555 1_555
C55_9 N25_2 1_555 1_555
H37_9 C55_9 1_555 1_555
C56_9 C55_9 1_555 1_555
H38_9 C56_9 1_555 1_555
C59_9 N25_2 1_555 1_555
H40_9 C59_9 1_555 1_555
N20_9 C57_9 1_555 1_555
C57_9 C60_9 1_555 1_555
C58_9 H39_9 1_555 1_555
N26_3 C61_9 1_555 1_555
N22_9 C57_9 1_555 1_555
C61_9 H41_9 1_555 1_555
C62_9 C61_9 1_555 1_555
H42_9 C62_9 1_555 1_555
C63_9 N22_9 1_555 1_555
C64_9 H43_9 1_555 1_555
C65_9 N26_3 1_555 1_555
H44_9 C65_9 1_555 1_555
C66_9 C62_9 1_555 1_555
N24_9 C63_9 1_555 1_555
C69_9 N20_9 1_555 1_555
C70_9 H47_9 1_555 1_555
C58_9 C60_9 1_555 1_555
C63_9 C66_9 1_555 1_555
C64_9 C65_9 1_555 1_555
C64_9 C66_9 1_555 1_555
N24_9 C69_9 1_555 1_555
C69_9 C72_9 1_555 1_555
C70_9 C72_9 1_555 1_555
N23_9 C67_9 1_555 1_555
C67_9 H45_9 1_555 1_555
C68_9 C67_9 1_555 1_555
H46_9 C68_9 1_555 1_555
C71_9 N23_9 1_555 1_555
H48_9 C71_9 1_555 1_555
Cu12 N23_9 1_555 1_555
N23_10 C67_10 1_555 1_555
C67_10 H45_10 1_555 1_555
C68_10 C67_10 1_555 1_555
H46_10 C68_10 1_555 1_555
C71_10 N23_10 1_555 1_555
H48_10 C71_10 1_555 1_555
Cu12_3 N23_10 1_555 1_555
N20_10 C57_10 1_555 1_555
C57_10 C60_10 1_555 1_555
C58_10 H39_10 1_555 1_555
N30_2 C61_10 1_555 1_555
N22_10 C57_10 1_555 1_555
C61_10 H41_10 1_555 1_555
C62_10 C61_10 1_555 1_555
H42_10 C62_10 1_555 1_555
C63_10 N22_10 1_555 1_555
C64_10 H43_10 1_555 1_555
C65_10 N30_2 1_555 1_555
H44_10 C65_10 1_555 1_555
C66_10 C62_10 1_555 1_555
N24_10 C63_10 1_555 1_555
C69_10 N20_10 1_555 1_555
C70_10 H47_10 1_555 1_555
C58_10 C60_10 1_555 1_555
C63_10 C66_10 1_555 1_555
C64_10 C65_10 1_555 1_555
C64_10 C66_10 1_555 1_555
N24_10 C69_10 1_555 1_555
C69_10 C72_10 1_555 1_555
C70_10 C72_10 1_555 1_555
C55_10 N25 1_555 1_555
H37_10 C55_10 1_555 1_555
C56_10 C55_10 1_555 1_555
H38_10 C56_10 1_555 1_555
C59_10 N25 1_555 1_555
H40_10 C59_10 1_555 1_555
N23_11 C67_11 1_555 1_555
C67_11 H45_11 1_555 1_555
C68_11 C67_11 1_555 1_555
H46_11 C68_11 1_555 1_555
C71_11 N23_11 1_555 1_555
H48_11 C71_11 1_555 1_555
Cu11 N23_11 1_555 1_555
C55_11 N31_2 1_555 1_555
H37_11 C55_11 1_555 1_555
C56_11 C55_11 1_555 1_555
H38_11 C56_11 1_555 1_555
C59_11 N31_2 1_555 1_555
H40_11 C59_11 1_555 1_555
N20_11 C57_11 1_555 1_555
C57_11 C60_11 1_555 1_555
C58_11 H39_11 1_555 1_555
N28_3 C61_11 1_555 1_555
N22_11 C57_11 1_555 1_555
C61_11 H41_11 1_555 1_555
C62_11 C61_11 1_555 1_555
H42_11 C62_11 1_555 1_555
C63_11 N22_11 1_555 1_555
C64_11 H43_11 1_555 1_555
C65_11 N28_3 1_555 1_555
H44_11 C65_11 1_555 1_555
C66_11 C62_11 1_555 1_555
N24_11 C63_11 1_555 1_555
C69_11 N20_11 1_555 1_555
C70_11 H47_11 1_555 1_555
C58_11 C60_11 1_555 1_555
C63_11 C66_11 1_555 1_555
C64_11 C65_11 1_555 1_555
C64_11 C66_11 1_555 1_555
N24_11 C69_11 1_555 1_555
C69_11 C72_11 1_555 1_555
C70_11 C72_11 1_555 1_555
C55_12 N31_4 1_555 1_555
H37_12 C55_12 1_555 1_555
C56_12 C55_12 1_555 1_555
H38_12 C56_12 1_555 1_555
C59_12 N31_4 1_555 1_555
H40_12 C59_12 1_555 1_555
N20_12 C57_12 1_555 1_555
C57_12 C60_12 1_555 1_555
C58_12 H39_12 1_555 1_555
N26 C61_12 1_555 1_555
N22_12 C57_12 1_555 1_555
C61_12 H41_12 1_555 1_555
C62_12 C61_12 1_555 1_555
H42_12 C62_12 1_555 1_555
C63_12 N22_12 1_555 1_555
C64_12 H43_12 1_555 1_555
C65_12 N26 1_555 1_555
H44_12 C65_12 1_555 1_555
C66_12 C62_12 1_555 1_555
N24_12 C63_12 1_555 1_555
C69_12 N20_12 1_555 1_555
C70_12 H47_12 1_555 1_555
C58_12 C60_12 1_555 1_555
C63_12 C66_12 1_555 1_555
C64_12 C65_12 1_555 1_555
C64_12 C66_12 1_555 1_555
N24_12 C69_12 1_555 1_555
C69_12 C72_12 1_555 1_555
C70_12 C72_12 1_555 1_555
N23_12 C67_12 1_555 1_555
C67_12 H45_12 1_555 1_555
C68_12 C67_12 1_555 1_555
H46_12 C68_12 1_555 1_555
C71_12 N23_12 1_555 1_555
H48_12 C71_12 1_555 1_555
Cu12_2 N23_12 1_555 1_555

#END
