
###############################################################################
#
# This file contains modified crystal structure data generated from the
# MOF subset of the Cambridge Structural Database (CSD) v543 
# hosted by the Cambridge Crystallographic Data Centre (CCDC).
#
# This work is licensed under the Creative Commons
# Attribution-NonCommercial-ShareAlike 4.0 International License.
# To view a copy of this license, visit
# http://creativecommons.org/licenses/by-nc-sa/4.0/
# or send a letter to
# Creative Commons, PO Box 1866, Mountain View, CA 94042, USA.
#
# CIF created using the CSD Python API on 29 September 2022
# The structure has been converted into the P1 space group
# The structure has a 3D framework
# The original CSD entry NAYFIF is in the rhombohedral crystal system
# The framework has been calculated to contain at least 10.0% void space
# The void calculation uses a probe of radius 1.32A, grid spacing 0.4
#
###############################################################################

data_NAYFIF
_chemical_formula_moiety         '(C432 H360 Co18 N72 O70)n'
_symmetry_cell_setting           triclinic
_symmetry_space_group_name_H-M   'P 1'
_symmetry_Int_Tables_number      1
_space_group_name_Hall           'P 1'
loop_
_symmetry_equiv_pos_site_id
_symmetry_equiv_pos_as_xyz
1 x,y,z
_cell_length_a                   26.7166(8)
_cell_length_b                   26.7166(8)
_cell_length_c                   21.7748(13)
_cell_angle_alpha                90
_cell_angle_beta                 90
_cell_angle_gamma                120
_cell_volume                     13460.1
loop_
_atom_site_label
_atom_site_type_symbol
_atom_site_fract_x
_atom_site_fract_y
_atom_site_fract_z
C1 C 0.22780(14) 0.33125(14) 0.13632(16)
C2 C 0.26227(14) 0.33822(14) 0.07927(15)
C3 C 0.23590(15) 0.31421(17) 0.02333(17)
H1 H 0.1958 0.2924 0.0212
C6 C 0.35498(13) 0.38190(13) 0.03020(14)
C7 C 0.32202(13) 0.37141(13) 0.08284(14)
H3 H 0.3399 0.3865 0.1204
C8 C 0.41889(13) 0.42366(13) 0.03238(14)
C13 C 0.28337(15) 0.45919(14) 0.24551(19)
H13 H 0.3045 0.4407 0.2519
C14 C 0.31183(15) 0.51852(15) 0.24926(19)
H14 H 0.3513 0.5393 0.2573
C15 C 0.28099(14) 0.54691(13) 0.24097(16)
C16 C 0.22244(14) 0.51377(14) 0.22777(18)
H15 H 0.2002 0.5313 0.2217
C17 C 0.19775(15) 0.45474(15) 0.22375(18)
H16 H 0.1587 0.4330 0.2140
C18 C 0.30872(13) 0.61063(14) 0.24403(17)
C19 C 0.07904(17) 0.21188(16) 0.2329(2)
H17 H 0.0622 0.2335 0.2210
C20 C 0.04442(16) 0.15282(16) 0.2358(2)
H18 H 0.0053 0.1356 0.2263
C21 C 0.06774(14) 0.11972(14) 0.25261(17)
C22 C 0.12561(16) 0.14773(16) 0.2664(2)
H19 H 0.1432 0.1268 0.2782
C23 C 0.15738(16) 0.20694(15) 0.2625(2)
H20 H 0.1966 0.2250 0.2719
C24 C 0.03175(14) 0.05608(14) 0.25418(17)
N1 N 0.22724(12) 0.42680(11) 0.23323(13)
N2 N 0.13521(11) 0.23995(11) 0.24617(13)
N3 N 0.27407(11) 0.63345(11) 0.24401(14)
O1 O 0.25132(10) 0.33557(11) 0.18751(10)
O2 O 0.17736(10) 0.32298(12) 0.13344(12)
O3 O 0.44087(9) 0.44300(9) 0.08405(10)
Co1 Co 0.18393(2) 0.33267(2) 0.23900(2)
C25 C 0.54081(14) 0.82418(21) 0.24551(19)
H21 H 0.5593 0.8638 0.2519
C26 C 0.48148(15) 0.79331(21) 0.24926(19)
H22 H 0.4607 0.8120 0.2573
C27 C 0.45309(13) 0.73408(19) 0.24097(16)
C28 C 0.48623(14) 0.70867(20) 0.22777(18)
H23 H 0.4687 0.6689 0.2217
C29 C 0.54526(15) 0.74301(21) 0.22375(18)
H24 H 0.5670 0.7257 0.2140
C30 C 0.38937(14) 0.69809(19) 0.24403(17)
N5 N 0.57320(11) 0.80044(16) 0.23323(13)
N6 N 0.36655(11) 0.64062(16) 0.24401(14)
C31 C 0.17582(21) 0.71663(15) 0.24551(19)
H25 H 0.1362 0.6955 0.2519
C32 C 0.20669(21) 0.68817(15) 0.24926(19)
H26 H 0.1880 0.6487 0.2573
C33 C 0.26592(19) 0.71901(14) 0.24097(16)
C34 C 0.29133(20) 0.77756(14) 0.22777(18)
H27 H 0.3311 0.7998 0.2217
C35 C 0.25699(21) 0.80225(15) 0.22375(18)
H28 H 0.2743 0.8413 0.2140
C36 C 0.30191(19) 0.69128(13) 0.24403(17)
N7 N 0.19956(16) 0.77276(12) 0.23323(13)
N8 N 0.35938(16) 0.72593(11) 0.24401(14)
N12 N 0.05891(16) 0.02516(11) 0.25427(15)
O14 O 0.10967(9) 0.33546(13) 0.24928(10)
O17 O 0.22879(10) 0.34230(14) 0.31675(11)
Co4 Co 0.66733(2) 0.85126(3) 0.23900(2)
Co5 Co 0.14874(3) 0.81607(2) 0.23900(2)
Co11 Co 0.51793(3) 0.51726(2) 0.09433(2)
C4 C 0.26828(16) 0.32230(17) 0.97086(17)
C5 C 0.32787(15) 0.35682(15) 0.97501(15)
H2 H 0.3502 0.3634 0.9400
C9 C 0.2398(2) 0.2959(3) 0.9085(2)
C10 C 0.2577(3) 0.3490(4) 0.8616(3)
H4 H 0.2420 0.3723 0.8758
H5 H 0.2991 0.3722 0.8596
H6 H 0.2427 0.3342 0.8215
C11 C 0.1764(3) 0.2648(4) 0.9104(3)
H7 H 0.1635 0.2887 0.9297
H8 H 0.1615 0.2558 0.8693
H9 H 0.1628 0.2297 0.9334
C12 C 0.2667(4) 0.2657(4) 0.8805(4)
H10 H 0.3080 0.2900 0.8818
H11 H 0.2557 0.2306 0.9026
H12 H 0.2543 0.2567 0.8386
O4 O 0.44685(10) 0.43788(10) 0.98342(11)
Co8 Co 0.48207(3) 0.48274(2) 0.90567(2)
C43 C 0.13284(23) 0.92096(17) 0.2329(2)
H33 H 0.1713 0.9378 0.2210
C44 C 0.10840(23) 0.95558(16) 0.2358(2)
H34 H 0.1303 0.9947 0.2263
C45 C 0.05198(20) 0.93226(14) 0.25261(17)
C46 C 0.02212(23) 0.87439(16) 0.2664(2)
C47 C 0.04956(22) 0.84262(16) 0.2625(2)
H36 H 0.0284 0.8034 0.2719
C48 C 0.02433(20) 0.96825(14) 0.25418(17)
N11 N 0.10474(16) 0.86479(11) 0.24617(13)
C61 C 0.10345(20) 0.77220(14) 0.13632(16)
C62 C 0.07595(20) 0.73773(14) 0.07927(15)
C63 C 0.07831(23) 0.76410(15) 0.02333(17)
H49 H 0.0966 0.8042 0.0212
C66 C 0.02692(18) 0.64502(13) 0.03020(14)
C67 C 0.04939(18) 0.67798(13) 0.08284(14)
H51 H 0.0466 0.6601 0.1204
C68 C 0.00477(18) 0.58111(13) 0.03238(14)
O9 O 0.08425(15) 0.74868(10) 0.18751(10)
O10 O 0.14562(16) 0.82264(10) 0.13344(12)
O11 O 0.00213(13) 0.55913(9) 0.08405(10)
O13 O 0.22580(9) 0.89033(9) 0.24928(10)
O16 O 0.11352(10) 0.77121(10) 0.31675(11)
C64 C 0.05402(23) 0.73172(16) 0.97086(17)
C65 C 0.02895(21) 0.67213(15) 0.97501(15)
H50 H 0.0132 0.6498 0.9400
C69 C 0.0561(4) 0.7602(2) 0.9085(2)
C70 C 0.0913(5) 0.7423(3) 0.8616(3)
H52 H 0.1303 0.7580 0.8758
H53 H 0.0731 0.7009 0.8596
H54 H 0.0915 0.7573 0.8215
C71 C 0.0884(5) 0.8236(3) 0.9104(3)
H55 H 0.1252 0.8365 0.9297
H56 H 0.0943 0.8385 0.8693
H57 H 0.0669 0.8372 0.9334
H60 H 0.0024 0.7457 0.8386
Co7 Co 0.00066(2) 0.51793(3) 0.90567(2)
N4 N 0.97484(11) 0.03375(11) 0.25427(15)
H31 H 0.8732 0.0164 0.2782
Co9 Co 0.48274(2) 0.00066(2) 0.09433(2)
C60 C 0.7343(4) 0.0010(6) 0.8805(4)
H46 H 0.7100 0.0180 0.8818
H47 H 0.7694 0.0251 0.9026
O8 O 0.56212(10) 0.00897(14) 0.98342(11)
C37 C 0.78812(16) 0.86716(23) 0.2329(2)
H29 H 0.7665 0.8287 0.2210
C38 C 0.84718(16) 0.89160(23) 0.2358(2)
H30 H 0.8644 0.8697 0.2263
C39 C 0.88028(14) 0.94802(20) 0.25261(17)
C40 C 0.85227(16) 0.97788(23) 0.2664(2)
C41 C 0.79306(15) 0.95044(22) 0.2625(2)
H32 H 0.7750 0.9716 0.2719
C42 C 0.94392(14) 0.97567(20) 0.25418(17)
N9 N 0.76005(11) 0.89526(16) 0.24617(13)
N10 N 0.96625(11) 0.94109(16) 0.25427(15)
H35 H 0.9836 0.8568 0.2782
C49 C 0.66875(14) 0.89655(20) 0.13632(16)
C50 C 0.66178(14) 0.92405(20) 0.07927(15)
C51 C 0.68579(17) 0.92169(23) 0.02333(17)
H37 H 0.7076 0.9034 0.0212
C54 C 0.61810(13) 0.97308(18) 0.03020(14)
C55 C 0.62859(13) 0.95061(18) 0.08284(14)
H39 H 0.6135 0.9534 0.1204
C56 C 0.57634(13) 0.99523(18) 0.03238(14)
O5 O 0.66443(11) 0.91575(15) 0.18751(10)
O6 O 0.67702(12) 0.85438(16) 0.13344(12)
O7 O 0.55700(9) 0.99787(13) 0.08405(10)
O15 O 0.66454(13) 0.77420(9) 0.24928(10)
O18 O 0.65770(14) 0.88648(10) 0.31675(11)
Co10 Co 0.99934(2) 0.48207(3) 0.09433(2)
C52 C 0.67770(17) 0.94598(23) 0.97086(17)
C53 C 0.64318(15) 0.97105(21) 0.97501(15)
H38 H 0.6366 0.9868 0.9400
C57 C 0.7041(3) 0.9439(4) 0.9085(2)
C58 C 0.6510(4) 0.9087(5) 0.8616(3)
H40 H 0.6277 0.8697 0.8758
H41 H 0.6278 0.9269 0.8596
H42 H 0.6658 0.9085 0.8215
C59 C 0.7352(4) 0.9116(5) 0.9104(3)
H43 H 0.7113 0.8748 0.9297
H44 H 0.7442 0.9057 0.8693
H45 H 0.7703 0.9331 0.9334
H48 H 0.7433 0.9976 0.8386
C72 C 0.9990(6) 0.7333(4) 0.8805(4)
H58 H 0.9820 0.6920 0.8818
H59 H 0.9749 0.7443 0.9026
O12 O 0.99103(14) 0.55315(10) 0.98342(11)
Co6 Co 0.51726(2) 0.99934(2) 0.90567(2)
C25_2 C 0.20748(14) 0.15751(21) 0.57884(19)
H21_2 H 0.2260 0.1971 0.5852
C26_2 C 0.14815(15) 0.12664(21) 0.58259(19)
H22_2 H 0.1274 0.1453 0.5906
C27_2 C 0.11976(13) 0.06741(19) 0.57430(16)
C28_2 C 0.15290(14) 0.04200(20) 0.56110(18)
H23_2 H 0.1354 0.0022 0.5550
C29_2 C 0.21193(15) 0.07634(21) 0.55708(18)
H24_2 H 0.2337 0.0590 0.5473
C30_2 C 0.05604(14) 0.03142(19) 0.57736(17)
N5_2 N 0.23987(11) 0.13377(16) 0.56656(13)
N8_2 N 0.02605(16) 0.05926(11) 0.57734(14)
Co4_2 Co 0.33400(2) 0.18459(3) 0.57233(2)
H2_2 H 0.0169 0.6967 0.2733
C6_2 C 0.02165(13) 0.71523(13) 0.36353(14)
H3_2 H 0.0066 0.7198 0.4537
C8_2 C 0.08556(13) 0.75699(13) 0.36571(14)
H14_2 H 0.0180 0.8726 0.5906
O3_2 O 0.10754(9) 0.77633(9) 0.41738(10)
N6_2 N 0.03322(11) 0.97395(16) 0.57734(14)
Co11_2 Co 0.18459(3) 0.85060(2) 0.42767(2)
C31_2 C 0.84249(21) 0.04996(15) 0.57884(19)
H25_2 H 0.8029 0.0288 0.5852
C32_2 C 0.87336(21) 0.02150(15) 0.58259(19)
C33_2 C 0.93259(19) 0.05234(14) 0.57430(16)
C34_2 C 0.95800(20) 0.11089(14) 0.56110(18)
H27_2 H 0.9978 0.1331 0.5550
C35_2 C 0.92366(21) 0.13558(15) 0.55708(18)
H28_2 H 0.9410 0.1746 0.5473
C36_2 C 0.96858(19) 0.02461(13) 0.57736(17)
N7_2 N 0.86623(16) 0.10609(12) 0.56656(13)
Co5_2 Co 0.81541(3) 0.14940(2) 0.57233(2)
C1_2 C 0.89447(14) 0.66458(14) 0.46965(16)
C2_2 C 0.92894(14) 0.67155(14) 0.41260(15)
C3_2 C 0.90257(15) 0.64754(17) 0.35666(17)
H1_2 H 0.8625 0.6257 0.3545
C4_2 C 0.93495(16) 0.65563(17) 0.30419(17)
C5_2 C 0.99454(15) 0.69015(15) 0.30834(15)
C7_2 C 0.98869(13) 0.70474(13) 0.41617(14)
C9_2 C 0.9065(2) 0.6292(3) 0.2418(2)
C10_2 C 0.9244(3) 0.6823(4) 0.1949(3)
H4_2 H 0.9087 0.7056 0.2091
H5_2 H 0.9658 0.7055 0.1929
H6_2 H 0.9094 0.6675 0.1548
C11_2 C 0.8431(3) 0.5981(4) 0.2437(3)
H7_2 H 0.8302 0.6220 0.2630
H8_2 H 0.8282 0.5891 0.2026
H9_2 H 0.8295 0.5630 0.2667
C12_2 C 0.9334(4) 0.5990(4) 0.2138(4)
H10_2 H 0.9747 0.6233 0.2151
H11_2 H 0.9224 0.5639 0.2359
H12_2 H 0.9210 0.5900 0.1719
C13_2 C 0.95004(15) 0.79252(14) 0.57884(19)
H13_2 H 0.9712 0.7740 0.5852
C14_2 C 0.97850(15) 0.85185(15) 0.58259(19)
C15_2 C 0.94766(14) 0.88024(13) 0.57430(16)
C16_2 C 0.88911(14) 0.84710(14) 0.56110(18)
H15_2 H 0.8669 0.8646 0.5550
C17_2 C 0.86442(15) 0.78807(15) 0.55708(18)
H16_2 H 0.8254 0.7663 0.5473
C18_2 C 0.97539(13) 0.94396(14) 0.57736(17)
C19_2 C 0.74571(17) 0.54521(16) 0.5662(2)
H17_2 H 0.7289 0.5668 0.5543
C20_2 C 0.71109(16) 0.48615(16) 0.5691(2)
H18_2 H 0.6720 0.4689 0.5596
C21_2 C 0.73441(14) 0.45305(14) 0.58594(17)
C22_2 C 0.79228(16) 0.48106(16) 0.5997(2)
H19_2 H 0.8099 0.4601 0.6115
C23_2 C 0.82405(16) 0.54027(15) 0.5958(2)
H20_2 H 0.8633 0.5583 0.6052
C24_2 C 0.69842(14) 0.38941(14) 0.58751(17)
N1_2 N 0.89391(12) 0.76013(11) 0.56656(13)
N2_2 N 0.80188(11) 0.57328(11) 0.57950(13)
N3_2 N 0.94074(11) 0.96678(11) 0.57734(14)
N4_2 N 0.64151(11) 0.36708(11) 0.58760(15)
O1_2 O 0.91799(10) 0.66890(11) 0.52084(10)
O2_2 O 0.84403(10) 0.65631(12) 0.46677(12)
Co1_2 Co 0.85060(2) 0.66600(2) 0.57233(2)
H26_2 H 0.8547 0.9820 0.5906
C37_2 C 0.45479(16) 0.20049(23) 0.5662(2)
H29_2 H 0.4332 0.1620 0.5543
C38_2 C 0.51385(16) 0.22493(23) 0.5691(2)
H30_2 H 0.5311 0.2030 0.5596
C39_2 C 0.54695(14) 0.28135(20) 0.58594(17)
C40_2 C 0.51894(16) 0.31121(23) 0.5997(2)
H31_2 H 0.5399 0.3497 0.6115
C41_2 C 0.45973(15) 0.28377(22) 0.5958(2)
H32_2 H 0.4417 0.3049 0.6052
C42_2 C 0.61059(14) 0.30900(20) 0.58751(17)
N9_2 N 0.42672(11) 0.22859(16) 0.57950(13)
N10_2 N 0.63292(11) 0.27442(16) 0.58760(15)
C43_2 C 0.79951(23) 0.25429(17) 0.5662(2)
H33_2 H 0.8380 0.2711 0.5543
C44_2 C 0.77507(23) 0.28891(16) 0.5691(2)
H34_2 H 0.7970 0.3280 0.5596
C45_2 C 0.71865(20) 0.26559(14) 0.58594(17)
C46_2 C 0.68879(23) 0.20772(16) 0.5997(2)
H35_2 H 0.6503 0.1901 0.6115
C47_2 C 0.71623(22) 0.17595(16) 0.5958(2)
H36_2 H 0.6951 0.1367 0.6052
C48_2 C 0.69100(20) 0.30158(14) 0.58751(17)
N11_2 N 0.77141(16) 0.19812(11) 0.57950(13)
N12_2 N 0.72558(16) 0.35849(11) 0.58760(15)
C49_2 C 0.33542(14) 0.22988(20) 0.46965(16)
C50_2 C 0.32845(14) 0.25738(20) 0.41260(15)
C51_2 C 0.35246(17) 0.25502(23) 0.35666(17)
H37_2 H 0.3743 0.2367 0.3545
C52_2 C 0.34437(17) 0.27931(23) 0.30419(17)
C53_2 C 0.30985(15) 0.30438(21) 0.30834(15)
H38_2 H 0.3033 0.3201 0.2733
C54_2 C 0.28477(13) 0.30641(18) 0.36353(14)
C55_2 C 0.29526(13) 0.28394(18) 0.41617(14)
H39_2 H 0.2802 0.2867 0.4537
C56_2 C 0.24301(13) 0.32856(18) 0.36571(14)
C57_2 C 0.3708(3) 0.2772(4) 0.2418(2)
C58_2 C 0.3177(4) 0.2420(5) 0.1949(3)
H40_2 H 0.2944 0.2030 0.2091
H41_2 H 0.2945 0.2602 0.1929
H42_2 H 0.3325 0.2418 0.1548
C59_2 C 0.4019(4) 0.2449(5) 0.2437(3)
H43_2 H 0.3780 0.2081 0.2630
H44_2 H 0.4109 0.2390 0.2026
H45_2 H 0.4370 0.2664 0.2667
C60_2 C 0.4010(4) 0.3343(6) 0.2138(4)
H46_2 H 0.3767 0.3513 0.2151
H47_2 H 0.4361 0.3584 0.2359
H48_2 H 0.4100 0.3309 0.1719
O5_2 O 0.33110(11) 0.24908(15) 0.52084(10)
O6_2 O 0.34369(12) 0.18771(16) 0.46677(12)
O7_2 O 0.22367(9) 0.33120(13) 0.41738(10)
C61_2 C 0.77012(20) 0.10553(14) 0.46965(16)
C62_2 C 0.74262(20) 0.07106(14) 0.41260(15)
C63_2 C 0.74498(23) 0.09743(15) 0.35666(17)
H49_2 H 0.7633 0.1375 0.3545
C64_2 C 0.72069(23) 0.06505(16) 0.30419(17)
C65_2 C 0.69562(21) 0.00546(15) 0.30834(15)
C67_2 C 0.71606(18) 0.01131(13) 0.41617(14)
C69_2 C 0.7228(4) 0.0935(2) 0.2418(2)
C70_2 C 0.7580(5) 0.0756(3) 0.1949(3)
H52_2 H 0.7970 0.0913 0.2091
H53_2 H 0.7398 0.0342 0.1929
H54_2 H 0.7582 0.0906 0.1548
C71_2 C 0.7551(5) 0.1569(3) 0.2437(3)
H55_2 H 0.7919 0.1698 0.2630
H56_2 H 0.7610 0.1718 0.2026
H57_2 H 0.7336 0.1705 0.2667
C72_2 C 0.6657(6) 0.0666(4) 0.2138(4)
H58_2 H 0.6487 0.0253 0.2151
H59_2 H 0.6416 0.0776 0.2359
H60_2 H 0.6691 0.0790 0.1719
O9_2 O 0.75092(15) 0.08201(10) 0.52084(10)
O10_2 O 0.81229(16) 0.15597(10) 0.46677(12)
O13_2 O 0.89246(9) 0.22367(9) 0.58262(10)
O14_2 O 0.77633(9) 0.66880(13) 0.58262(10)
O15_2 O 0.33120(13) 0.10754(9) 0.58262(10)
O16_2 O 0.78018(10) 0.10455(10) 0.65009(11)
O17_2 O 0.89545(10) 0.67564(14) 0.65009(11)
O18_2 O 0.32436(14) 0.21982(10) 0.65009(11)
Co9_2 Co 0.14940(2) 0.33400(2) 0.42767(2)
H50_2 H 0.6799 0.9831 0.2733
C66_2 C 0.69359(18) 0.97835(13) 0.36353(14)
H51_2 H 0.7133 0.9934 0.4537
C68_2 C 0.67144(18) 0.91444(13) 0.36571(14)
O11_2 O 0.66880(13) 0.89246(9) 0.41738(10)
Co10_2 Co 0.66600(2) 0.81541(3) 0.42767(2)
C2_3 C 0.59560(14) 0.00489(14) 0.74594(15)
C5_3 C 0.66120(15) 0.02349(15) 0.64168(15)
H2_3 H 0.6835 0.0301 0.6067
C6_3 C 0.68831(13) 0.04857(13) 0.69687(14)
C7_3 C 0.65535(13) 0.03808(13) 0.74951(14)
H3_3 H 0.6732 0.0532 0.7871
C8_3 C 0.75222(13) 0.09033(13) 0.69905(14)
C10_3 C 0.5910(3) 0.0157(4) 0.5283(3)
H4_3 H 0.5753 0.0390 0.5425
H5_3 H 0.6324 0.0389 0.5263
H6_3 H 0.5760 0.0009 0.4882
C13_3 C 0.61670(15) 0.12586(14) 0.91218(19)
H13_3 H 0.6378 0.1074 0.9186
C14_3 C 0.64516(15) 0.18519(15) 0.91593(19)
H14_3 H 0.6846 0.2060 0.9240
C15_3 C 0.61432(14) 0.21358(13) 0.90764(16)
C16_3 C 0.55577(14) 0.18044(14) 0.89444(18)
H15_3 H 0.5335 0.1980 0.8884
C17_3 C 0.53108(15) 0.12141(15) 0.89042(18)
H16_3 H 0.4920 0.0997 0.8807
C18_3 C 0.64205(13) 0.27730(14) 0.91070(17)
N1_3 N 0.56057(12) 0.09347(11) 0.89990(13)
N3_3 N 0.60740(11) 0.30012(11) 0.91068(14)
O1_3 O 0.58465(10) 0.00224(11) 0.85418(10)
O3_3 O 0.77420(9) 0.10967(9) 0.75072(10)
C25_3 C 0.87414(14) 0.49085(21) 0.91218(19)
H21_3 H 0.8926 0.5305 0.9186
C26_3 C 0.81481(15) 0.45998(21) 0.91593(19)
H22_3 H 0.7940 0.4787 0.9240
C27_3 C 0.78642(13) 0.40075(19) 0.90764(16)
C28_3 C 0.81956(14) 0.37534(20) 0.89444(18)
H23_3 H 0.8020 0.3356 0.8884
C29_3 C 0.87859(15) 0.40968(21) 0.89042(18)
H24_3 H 0.9003 0.3924 0.8807
C30_3 C 0.72270(14) 0.36476(19) 0.91070(17)
N5_3 N 0.90653(11) 0.46711(16) 0.89990(13)
N6_3 N 0.69988(11) 0.30729(16) 0.91068(14)
C31_3 C 0.50915(21) 0.38330(15) 0.91218(19)
H25_3 H 0.4695 0.3622 0.9186
C32_3 C 0.54002(21) 0.35484(15) 0.91593(19)
H26_3 H 0.5213 0.3154 0.9240
C33_3 C 0.59925(19) 0.38568(14) 0.90764(16)
C34_3 C 0.62466(20) 0.44423(14) 0.89444(18)
H27_3 H 0.6644 0.4665 0.8884
C35_3 C 0.59032(21) 0.46892(15) 0.89042(18)
H28_3 H 0.6076 0.5080 0.8807
C36_3 C 0.63524(19) 0.35795(13) 0.91070(17)
N7_3 N 0.53289(16) 0.43943(12) 0.89990(13)
N8_3 N 0.69271(16) 0.39260(11) 0.91068(14)
O14_3 O 0.44300(9) 0.00213(13) 0.91595(10)
Co11_3 Co 0.85126(3) 0.18393(2) 0.76100(2)
C1_3 C 0.56113(14) 0.99792(14) 0.80299(16)
C3_3 C 0.56923(15) 0.98088(17) 0.69000(17)
H1_3 H 0.5291 0.9591 0.6879
C4_3 C 0.60161(16) 0.98897(17) 0.63753(17)
C9_3 C 0.5731(2) 0.9626(3) 0.5752(2)
C11_3 C 0.5097(3) 0.9315(4) 0.5771(3)
H7_3 H 0.4968 0.9554 0.5964
H8_3 H 0.4948 0.9225 0.5360
H9_3 H 0.4961 0.8964 0.6001
C12_3 C 0.6000(4) 0.9324(4) 0.5472(4)
H10_3 H 0.6413 0.9567 0.5485
H11_3 H 0.5890 0.8973 0.5693
H12_3 H 0.5876 0.9234 0.5053
C19_3 C 0.41237(17) 0.87855(16) 0.8996(2)
H17_3 H 0.3955 0.9002 0.8877
C20_3 C 0.37775(16) 0.81949(16) 0.9025(2)
H18_3 H 0.3386 0.8023 0.8930
C21_3 C 0.40107(14) 0.78639(14) 0.91928(17)
C22_3 C 0.45894(16) 0.81440(16) 0.9331(2)
H19_3 H 0.4765 0.7935 0.9449
C23_3 C 0.49071(16) 0.87361(15) 0.9292(2)
H20_3 H 0.5299 0.8917 0.9386
C24_3 C 0.36508(14) 0.72275(14) 0.92085(17)
N2_3 N 0.46854(11) 0.90662(11) 0.91284(13)
N4_3 N 0.30817(11) 0.70042(11) 0.92094(15)
O2_3 O 0.51069(10) 0.98965(12) 0.80011(12)
C37_3 C 0.12145(16) 0.53383(23) 0.8996(2)
H29_3 H 0.0998 0.4954 0.8877
C38_3 C 0.18051(16) 0.55827(23) 0.9025(2)
H30_3 H 0.1977 0.5364 0.8930
C39_3 C 0.21361(14) 0.61469(20) 0.91928(17)
C40_3 C 0.18560(16) 0.64455(23) 0.9331(2)
H31_3 H 0.2065 0.6831 0.9449
C41_3 C 0.12639(15) 0.61711(22) 0.9292(2)
H32_3 H 0.1083 0.6383 0.9386
C42_3 C 0.27725(14) 0.64234(20) 0.92085(17)
N9_3 N 0.09338(11) 0.56193(16) 0.91284(13)
N10_3 N 0.29958(11) 0.60776(16) 0.92094(15)
C43_3 C 0.46617(23) 0.58763(17) 0.8996(2)
H33_3 H 0.5046 0.6045 0.8877
C44_3 C 0.44173(23) 0.62225(16) 0.9025(2)
H34_3 H 0.4636 0.6614 0.8930
C45_3 C 0.38531(20) 0.59893(14) 0.91928(17)
C46_3 C 0.35545(23) 0.54106(16) 0.9331(2)
H35_3 H 0.3169 0.5235 0.9449
C47_3 C 0.38289(22) 0.50929(16) 0.9292(2)
H36_3 H 0.3617 0.4701 0.9386
C48_3 C 0.35766(20) 0.63492(14) 0.92085(17)
N11_3 N 0.43807(16) 0.53146(11) 0.91284(13)
N12_3 N 0.39224(16) 0.69183(11) 0.92094(15)
C49_3 C 0.00208(14) 0.56322(20) 0.80299(16)
C51_3 C 0.01912(17) 0.58836(23) 0.69000(17)
H37_3 H 0.0409 0.5701 0.6879
C52_3 C 0.01103(17) 0.61265(23) 0.63753(17)
C57_3 C 0.0374(3) 0.6106(4) 0.5752(2)
C59_3 C 0.0685(4) 0.5783(5) 0.5771(3)
H43_3 H 0.0446 0.5415 0.5964
H44_3 H 0.0775 0.5724 0.5360
H45_3 H 0.1036 0.5998 0.6001
C60_3 C 0.0676(4) 0.6677(6) 0.5472(4)
H46_3 H 0.0433 0.6847 0.5485
H47_3 H 0.1027 0.6918 0.5693
H48_3 H 0.0766 0.6643 0.5053
O6_3 O 0.01035(12) 0.52105(16) 0.80011(12)
C61_3 C 0.43678(20) 0.43887(14) 0.80299(16)
C62_3 C 0.40928(20) 0.40440(14) 0.74594(15)
C63_3 C 0.41164(23) 0.43077(15) 0.69000(17)
H49_3 H 0.4299 0.4709 0.6879
C64_3 C 0.38735(23) 0.39839(16) 0.63753(17)
C65_3 C 0.36228(21) 0.33880(15) 0.64168(15)
H50_3 H 0.3465 0.3165 0.6067
C66_3 C 0.36025(18) 0.31169(13) 0.69687(14)
C67_3 C 0.38272(18) 0.34465(13) 0.74951(14)
H51_3 H 0.3799 0.3268 0.7871
C68_3 C 0.33810(18) 0.24778(13) 0.69905(14)
C69_3 C 0.3894(4) 0.4269(2) 0.5752(2)
C70_3 C 0.4246(5) 0.4090(3) 0.5283(3)
H52_3 H 0.4636 0.4247 0.5425
H53_3 H 0.4064 0.3676 0.5263
H54_3 H 0.4248 0.4240 0.4882
C71_3 C 0.4217(5) 0.4903(3) 0.5771(3)
H55_3 H 0.4585 0.5032 0.5964
H56_3 H 0.4276 0.5052 0.5360
H57_3 H 0.4002 0.5039 0.6001
C72_3 C 0.3323(6) 0.4000(4) 0.5472(4)
H58_3 H 0.3153 0.3587 0.5485
H59_3 H 0.3082 0.4110 0.5693
H60_3 H 0.3357 0.4124 0.5053
O9_3 O 0.41758(15) 0.41535(10) 0.85418(10)
O10_3 O 0.47895(16) 0.48931(10) 0.80011(12)
O11_3 O 0.33546(13) 0.22580(9) 0.75072(10)
O13_3 O 0.55913(9) 0.55700(9) 0.91595(10)
Co10_3 Co 0.33267(2) 0.14874(3) 0.76100(2)
C50_3 C 0.99511(14) 0.59072(20) 0.74594(15)
C53_3 C 0.97651(15) 0.63772(21) 0.64168(15)
H38_3 H 0.9699 0.6535 0.6067
C54_3 C 0.95143(13) 0.63975(18) 0.69687(14)
C55_3 C 0.96192(13) 0.61728(18) 0.74951(14)
H39_3 H 0.9468 0.6201 0.7871
C56_3 C 0.90967(13) 0.66190(18) 0.69905(14)
C58_3 C 0.9843(4) 0.5754(5) 0.5283(3)
H40_3 H 0.9610 0.5364 0.5425
H41_3 H 0.9611 0.5936 0.5263
H42_3 H 0.9991 0.5752 0.4882
O5_3 O 0.99776(11) 0.58242(15) 0.85418(10)
O7_3 O 0.89033(9) 0.66454(13) 0.75072(10)
O15_3 O 0.99787(13) 0.44087(9) 0.91595(10)
Co9_3 Co 0.81607(2) 0.66733(2) 0.76100(2)
C52_4 C 0.32230(17) 0.05402(23) 0.02914(17)
C53_4 C 0.35682(15) 0.02895(21) 0.02499(15)
H38_4 H 0.3634 0.0132 0.0600
C57_4 C 0.2959(3) 0.0561(4) 0.0915(2)
C58_4 C 0.3490(4) 0.0913(5) 0.1384(3)
H40_4 H 0.3723 0.1303 0.1242
H41_4 H 0.3722 0.0731 0.1404
H42_4 H 0.3342 0.0915 0.1785
C59_4 C 0.2648(4) 0.0884(5) 0.0896(3)
H43_4 H 0.2887 0.1252 0.0703
H44_4 H 0.2558 0.0943 0.1307
H45_4 H 0.2297 0.0669 0.0666
H48_4 H 0.2567 0.0024 0.1614
C72_4 C 0.0010(6) 0.2667(4) 0.1195(4)
H58_4 H 0.0180 0.3080 0.1182
H59_4 H 0.0251 0.2557 0.0974
O12_2 O 0.00897(14) 0.44685(10) 0.01658(11)
C37_4 C 0.21188(16) 0.13284(23) 0.7671(2)
H29_4 H 0.2335 0.1713 0.7790
C38_4 C 0.15282(16) 0.10840(23) 0.7642(2)
H30_4 H 0.1356 0.1303 0.7737
C39_4 C 0.11972(14) 0.05198(20) 0.74739(17)
C40_4 C 0.14773(16) 0.02212(23) 0.7336(2)
C41_4 C 0.20694(15) 0.04956(22) 0.7375(2)
H32_4 H 0.2250 0.0284 0.7281
C42_4 C 0.05608(14) 0.02433(20) 0.74582(17)
N9_4 N 0.23995(11) 0.10474(16) 0.75383(13)
N10_4 N 0.03375(11) 0.05891(16) 0.74573(15)
H35_4 H 0.0164 0.1432 0.7218
C49_4 C 0.33125(14) 0.10345(20) 0.86368(16)
C50_4 C 0.33822(14) 0.07595(20) 0.92073(15)
C51_4 C 0.31421(17) 0.07831(23) 0.97667(17)
H37_4 H 0.2924 0.0966 0.9788
C54_4 C 0.38190(13) 0.02692(18) 0.96980(14)
C55_4 C 0.37141(13) 0.04939(18) 0.91716(14)
H39_4 H 0.3865 0.0466 0.8796
C56_4 C 0.42366(13) 0.00477(18) 0.96762(14)
O5_4 O 0.33557(11) 0.08425(15) 0.81249(10)
O6_4 O 0.32298(12) 0.14562(16) 0.86656(12)
N13 N 0.42680(11) 0.19956(16) 0.76677(13)
O18_3 O 0.34230(14) 0.11352(10) 0.68325(11)
C60_4 C 0.2657(4) 0.9990(6) 0.1195(4)
H46_4 H 0.2900 0.9820 0.1182
H47_4 H 0.2306 0.9749 0.0974
O8_2 O 0.43788(10) 0.99103(14) 0.01658(11)
N4_4 N 0.02516(11) 0.96625(11) 0.74573(15)
H31_4 H 0.1268 0.9836 0.7218
C64_4 C 0.94598(23) 0.26828(16) 0.02914(17)
C65_4 C 0.97105(21) 0.32787(15) 0.02499(15)
H50_4 H 0.9868 0.3502 0.0600
C69_4 C 0.9439(4) 0.2398(2) 0.0915(2)
C70_4 C 0.9087(5) 0.2577(3) 0.1384(3)
H52_4 H 0.8697 0.2420 0.1242
H53_4 H 0.9269 0.2991 0.1404
H54_4 H 0.9085 0.2427 0.1785
C71_4 C 0.9116(5) 0.1764(3) 0.0896(3)
H55_4 H 0.8748 0.1635 0.0703
H56_4 H 0.9057 0.1615 0.1307
H57_4 H 0.9331 0.1628 0.0666
H60_4 H 0.9976 0.2543 0.1614
C43_4 C 0.86716(23) 0.07904(17) 0.7671(2)
H33_4 H 0.8287 0.0622 0.7790
C44_4 C 0.89160(23) 0.04442(16) 0.7642(2)
H34_4 H 0.8697 0.0053 0.7737
C45_4 C 0.94802(20) 0.06774(14) 0.74739(17)
C46_4 C 0.97788(23) 0.12561(16) 0.7336(2)
C47_4 C 0.95044(22) 0.15738(16) 0.7375(2)
H36_4 H 0.9716 0.1966 0.7281
C48_4 C 0.97567(20) 0.03175(14) 0.74582(17)
N11_4 N 0.89526(16) 0.13521(11) 0.75383(13)
C61_4 C 0.89655(20) 0.22780(14) 0.86368(16)
C62_4 C 0.92405(20) 0.26227(14) 0.92073(15)
C63_4 C 0.92169(23) 0.23590(15) 0.97667(17)
H49_4 H 0.9034 0.1958 0.9788
C66_4 C 0.97308(18) 0.35498(13) 0.96980(14)
C67_4 C 0.95061(18) 0.32202(13) 0.91716(14)
H51_4 H 0.9534 0.3399 0.8796
C68_4 C 0.99523(18) 0.41889(13) 0.96762(14)
O9_4 O 0.91575(15) 0.25132(10) 0.81249(10)
O10_4 O 0.85438(16) 0.17736(10) 0.86656(12)
N14 N 0.80044(16) 0.22724(12) 0.76677(13)
O16_3 O 0.88648(10) 0.22879(10) 0.68325(11)
C4_4 C 0.73172(16) 0.67770(17) 0.02914(17)
C5_4 C 0.67213(15) 0.64318(15) 0.02499(15)
H2_4 H 0.6498 0.6366 0.0600
C9_4 C 0.7602(2) 0.7041(3) 0.0915(2)
C10_4 C 0.7423(3) 0.6510(4) 0.1384(3)
H4_4 H 0.7580 0.6277 0.1242
H5_4 H 0.7009 0.6278 0.1404
H6_4 H 0.7573 0.6658 0.1785
C11_4 C 0.8236(3) 0.7352(4) 0.0896(3)
H7_4 H 0.8365 0.7113 0.0703
H8_4 H 0.8385 0.7442 0.1307
H9_4 H 0.8372 0.7703 0.0666
C12_4 C 0.7333(4) 0.7343(4) 0.1195(4)
H10_4 H 0.6920 0.7100 0.1182
H11_4 H 0.7443 0.7694 0.0974
H12_4 H 0.7457 0.7433 0.1614
O4_2 O 0.55315(10) 0.56212(10) 0.01658(11)
C1_4 C 0.77220(14) 0.66875(14) 0.86368(16)
C2_4 C 0.73773(14) 0.66178(14) 0.92073(15)
C3_4 C 0.76410(15) 0.68579(17) 0.97667(17)
H1_4 H 0.8042 0.7076 0.9788
C6_4 C 0.64502(13) 0.61810(13) 0.96980(14)
C7_4 C 0.67798(13) 0.62859(13) 0.91716(14)
H3_4 H 0.6601 0.6135 0.8796
C8_4 C 0.58111(13) 0.57634(13) 0.96762(14)
C13_4 C 0.71663(15) 0.54081(14) 0.75449(19)
H13_4 H 0.6955 0.5593 0.7481
C14_4 C 0.68817(15) 0.48148(15) 0.75074(19)
H14_4 H 0.6487 0.4607 0.7427
C15_4 C 0.71901(14) 0.45309(13) 0.75903(16)
C16_4 C 0.77756(14) 0.48623(14) 0.77223(18)
H15_4 H 0.7998 0.4687 0.7783
C17_4 C 0.80225(15) 0.54526(15) 0.77625(18)
H16_4 H 0.8413 0.5670 0.7860
C18_4 C 0.69128(13) 0.38937(14) 0.75597(17)
C19_4 C 0.92096(17) 0.78812(16) 0.7671(2)
H17_4 H 0.9378 0.7665 0.7790
C20_4 C 0.95558(16) 0.84718(16) 0.7642(2)
H18_4 H 0.9947 0.8644 0.7737
C21_4 C 0.93226(14) 0.88028(14) 0.74739(17)
C22_4 C 0.87439(16) 0.85227(16) 0.7336(2)
H19_4 H 0.8568 0.8732 0.7218
C23_4 C 0.84262(16) 0.79306(15) 0.7375(2)
H20_4 H 0.8034 0.7750 0.7281
C24_4 C 0.96825(14) 0.94392(14) 0.74582(17)
N1_4 N 0.77276(12) 0.57320(11) 0.76677(13)
N2_4 N 0.86479(11) 0.76005(11) 0.75383(13)
N3_4 N 0.72593(11) 0.36655(11) 0.75599(14)
O1_4 O 0.74868(10) 0.66443(11) 0.81249(10)
O2_4 O 0.82264(10) 0.67702(12) 0.86656(12)
C25_4 C 0.45919(14) 0.17582(21) 0.75449(19)
H21_4 H 0.4407 0.1362 0.7481
C26_4 C 0.51852(15) 0.20669(21) 0.75074(19)
H22_4 H 0.5393 0.1880 0.7427
C27_4 C 0.54691(13) 0.26592(19) 0.75903(16)
C28_4 C 0.51377(14) 0.29133(20) 0.77223(18)
H23_4 H 0.5313 0.3311 0.7783
C29_4 C 0.45474(15) 0.25699(21) 0.77625(18)
H24_4 H 0.4330 0.2743 0.7860
C30_4 C 0.61063(14) 0.30191(19) 0.75597(17)
N6_4 N 0.63345(11) 0.35938(16) 0.75599(14)
C31_4 C 0.82418(21) 0.28337(15) 0.75449(19)
H25_4 H 0.8638 0.3045 0.7481
C32_4 C 0.79331(21) 0.31183(15) 0.75074(19)
H26_4 H 0.8120 0.3513 0.7427
C33_4 C 0.73408(19) 0.28099(14) 0.75903(16)
C34_4 C 0.70867(20) 0.22244(14) 0.77223(18)
H27_4 H 0.6689 0.2002 0.7783
C35_4 C 0.74301(21) 0.19775(15) 0.77625(18)
H28_4 H 0.7257 0.1587 0.7860
C36_4 C 0.69809(19) 0.30872(13) 0.75597(17)
N8_4 N 0.64062(16) 0.27407(11) 0.75599(14)
N12_4 N 0.94109(16) 0.97484(11) 0.74573(15)
O17_3 O 0.77121(10) 0.65770(14) 0.68325(11)
H50_5 H 0.3201 0.0169 0.7267
C66_5 C 0.30641(18) 0.02165(13) 0.63647(14)
H51_5 H 0.2867 0.0066 0.5463
C68_5 C 0.32856(18) 0.08556(13) 0.63429(14)
C1_5 C 0.10553(14) 0.33542(14) 0.53035(16)
C2_5 C 0.07106(14) 0.32845(14) 0.58740(15)
C3_5 C 0.09743(15) 0.35246(17) 0.64334(17)
H1_5 H 0.1375 0.3743 0.6455
C4_5 C 0.06505(16) 0.34437(17) 0.69581(17)
C5_5 C 0.00546(15) 0.30985(15) 0.69166(15)
C7_5 C 0.01131(13) 0.29526(13) 0.58383(14)
C9_5 C 0.0935(2) 0.3708(3) 0.7582(2)
C10_5 C 0.0756(3) 0.3177(4) 0.8051(3)
H4_5 H 0.0913 0.2944 0.7909
H5_5 H 0.0342 0.2945 0.8071
H6_5 H 0.0906 0.3325 0.8452
C11_5 C 0.1569(3) 0.4019(4) 0.7563(3)
H7_5 H 0.1698 0.3780 0.7370
H8_5 H 0.1718 0.4109 0.7974
H9_5 H 0.1705 0.4370 0.7333
C12_5 C 0.0666(4) 0.4010(4) 0.7862(4)
H10_5 H 0.0253 0.3767 0.7849
H11_5 H 0.0776 0.4361 0.7641
H12_5 H 0.0790 0.4100 0.8281
C13_5 C 0.04996(15) 0.20748(14) 0.42116(19)
H13_5 H 0.0288 0.2260 0.4148
C14_5 C 0.02150(15) 0.14815(15) 0.41741(19)
C15_5 C 0.05234(14) 0.11976(13) 0.42570(16)
C16_5 C 0.11089(14) 0.15290(14) 0.43890(18)
H15_5 H 0.1331 0.1354 0.4450
C17_5 C 0.13558(15) 0.21193(15) 0.44292(18)
H16_5 H 0.1746 0.2337 0.4527
C18_5 C 0.02461(13) 0.05604(14) 0.42264(17)
C19_5 C 0.25429(17) 0.45479(16) 0.4338(2)
H17_5 H 0.2711 0.4332 0.4457
C20_5 C 0.28891(16) 0.51385(16) 0.4309(2)
H18_5 H 0.3280 0.5311 0.4404
C21_5 C 0.26559(14) 0.54695(14) 0.41406(17)
C22_5 C 0.20772(16) 0.51894(16) 0.4003(2)
H19_5 H 0.1901 0.5399 0.3885
C23_5 C 0.17595(16) 0.45973(15) 0.4042(2)
H20_5 H 0.1367 0.4417 0.3948
C24_5 C 0.30158(14) 0.61059(14) 0.41249(17)
N1_5 N 0.10609(12) 0.23987(11) 0.43344(13)
N2_5 N 0.19812(11) 0.42672(11) 0.42050(13)
N3_5 N 0.05926(11) 0.03322(11) 0.42266(14)
N4_5 N 0.35849(11) 0.63292(11) 0.41240(15)
O1_5 O 0.08201(10) 0.33110(11) 0.47916(10)
O2_5 O 0.15597(10) 0.34369(12) 0.53323(12)
H26_5 H 0.1453 0.0180 0.4094
C37_5 C 0.54521(16) 0.79951(23) 0.4338(2)
H29_5 H 0.5668 0.8380 0.4457
C38_5 C 0.48615(16) 0.77507(23) 0.4309(2)
H30_5 H 0.4689 0.7970 0.4404
C39_5 C 0.45305(14) 0.71865(20) 0.41406(17)
C40_5 C 0.48106(16) 0.68879(23) 0.4003(2)
H31_5 H 0.4601 0.6503 0.3885
C41_5 C 0.54027(15) 0.71623(22) 0.4042(2)
H32_5 H 0.5583 0.6951 0.3948
C42_5 C 0.38941(14) 0.69100(20) 0.41249(17)
N9_5 N 0.57328(11) 0.77141(16) 0.42050(13)
N10_5 N 0.36708(11) 0.72558(16) 0.41240(15)
C43_5 C 0.20049(23) 0.74571(17) 0.4338(2)
H33_5 H 0.1620 0.7289 0.4457
C44_5 C 0.22493(23) 0.71109(16) 0.4309(2)
H34_5 H 0.2030 0.6720 0.4404
C45_5 C 0.28135(20) 0.73441(14) 0.41406(17)
C46_5 C 0.31121(23) 0.79228(16) 0.4003(2)
H35_5 H 0.3497 0.8099 0.3885
C47_5 C 0.28377(22) 0.82405(16) 0.4042(2)
H36_5 H 0.3049 0.8633 0.3948
C48_5 C 0.30900(20) 0.69842(14) 0.41249(17)
N11_5 N 0.22859(16) 0.80188(11) 0.42050(13)
N12_5 N 0.27442(16) 0.64151(11) 0.41240(15)
C49_5 C 0.66458(14) 0.77012(20) 0.53035(16)
C50_5 C 0.67155(14) 0.74262(20) 0.58740(15)
C51_5 C 0.64754(17) 0.74498(23) 0.64334(17)
H37_5 H 0.6257 0.7633 0.6455
C52_5 C 0.65563(17) 0.72069(23) 0.69581(17)
C53_5 C 0.69015(15) 0.69562(21) 0.69166(15)
H38_5 H 0.6967 0.6799 0.7267
C54_5 C 0.71523(13) 0.69359(18) 0.63647(14)
C55_5 C 0.70474(13) 0.71606(18) 0.58383(14)
H39_5 H 0.7198 0.7133 0.5463
C56_5 C 0.75699(13) 0.67144(18) 0.63429(14)
C57_5 C 0.6292(3) 0.7228(4) 0.7582(2)
C58_5 C 0.6823(4) 0.7580(5) 0.8051(3)
H40_5 H 0.7056 0.7970 0.7909
H41_5 H 0.7055 0.7398 0.8071
H42_5 H 0.6675 0.7582 0.8452
C59_5 C 0.5981(4) 0.7551(5) 0.7563(3)
H43_5 H 0.6220 0.7919 0.7370
H44_5 H 0.5891 0.7610 0.7974
H45_5 H 0.5630 0.7336 0.7333
C60_5 C 0.5990(4) 0.6657(6) 0.7862(4)
H46_5 H 0.6233 0.6487 0.7849
H47_5 H 0.5639 0.6416 0.7641
H48_5 H 0.5900 0.6691 0.8281
O5_5 O 0.66890(11) 0.75092(15) 0.47916(10)
O6_5 O 0.65631(12) 0.81229(16) 0.53323(12)
C61_5 C 0.22988(20) 0.89447(14) 0.53035(16)
C62_5 C 0.25738(20) 0.92894(14) 0.58740(15)
C63_5 C 0.25502(23) 0.90257(15) 0.64334(17)
H49_5 H 0.2367 0.8625 0.6455
C64_5 C 0.27931(23) 0.93495(16) 0.69581(17)
C65_5 C 0.30438(21) 0.99454(15) 0.69166(15)
C67_5 C 0.28394(18) 0.98869(13) 0.58383(14)
C69_5 C 0.2772(4) 0.9065(2) 0.7582(2)
C70_5 C 0.2420(5) 0.9244(3) 0.8051(3)
H52_5 H 0.2030 0.9087 0.7909
H53_5 H 0.2602 0.9658 0.8071
H54_5 H 0.2418 0.9094 0.8452
C71_5 C 0.2449(5) 0.8431(3) 0.7563(3)
H55_5 H 0.2081 0.8302 0.7370
H56_5 H 0.2390 0.8282 0.7974
H57_5 H 0.2664 0.8295 0.7333
C72_5 C 0.3343(6) 0.9334(4) 0.7862(4)
H58_5 H 0.3513 0.9747 0.7849
H59_5 H 0.3584 0.9224 0.7641
H60_5 H 0.3309 0.9210 0.8281
O9_5 O 0.24908(15) 0.91799(10) 0.47916(10)
O10_5 O 0.18771(16) 0.84403(10) 0.53323(12)
N13_2 N 0.76013(11) 0.86623(16) 0.43344(13)
N14_2 N 0.13377(16) 0.89391(12) 0.43344(13)
O16_4 O 0.21982(10) 0.89545(10) 0.34991(11)
O17_4 O 0.10455(10) 0.32436(14) 0.34991(11)
O18_4 O 0.67564(14) 0.78018(10) 0.34991(11)
C31_5 C 0.15751(21) 0.95004(15) 0.42116(19)
H25_5 H 0.1971 0.9712 0.4148
C32_5 C 0.12664(21) 0.97850(15) 0.41741(19)
C33_5 C 0.06741(19) 0.94766(14) 0.42570(16)
C34_5 C 0.04200(20) 0.88911(14) 0.43890(18)
H27_5 H 0.0022 0.8669 0.4450
C35_5 C 0.07634(21) 0.86442(15) 0.44292(18)
H28_5 H 0.0590 0.8254 0.4527
C36_5 C 0.03142(19) 0.97539(13) 0.42264(17)
H2_5 H 0.9831 0.3033 0.7267
C6_5 C 0.97835(13) 0.28477(13) 0.63647(14)
H3_5 H 0.9934 0.2802 0.5463
C8_5 C 0.91444(13) 0.24301(13) 0.63429(14)
H14_5 H 0.9820 0.1274 0.4094
N6_5 N 0.96678(11) 0.02605(16) 0.42266(14)
C25_5 C 0.79252(14) 0.84249(21) 0.42116(19)
H21_5 H 0.7740 0.8029 0.4148
C26_5 C 0.85185(15) 0.87336(21) 0.41741(19)
H22_5 H 0.8726 0.8547 0.4094
C27_5 C 0.88024(13) 0.93259(19) 0.42570(16)
C28_5 C 0.84710(14) 0.95800(20) 0.43890(18)
H23_5 H 0.8646 0.9978 0.4450
C29_5 C 0.78807(15) 0.92366(21) 0.44292(18)
H24_5 H 0.7663 0.9410 0.4527
C30_5 C 0.94396(14) 0.96858(19) 0.42264(17)
N8_5 N 0.97395(16) 0.94074(11) 0.42266(14)
C50_6 C 0.00489(14) 0.40928(20) 0.25406(15)
C53_6 C 0.02349(15) 0.36228(21) 0.35832(15)
H38_6 H 0.0301 0.3465 0.3933
C54_6 C 0.04857(13) 0.36025(18) 0.30313(14)
C55_6 C 0.03808(13) 0.38272(18) 0.25049(14)
H39_6 H 0.0532 0.3799 0.2129
C56_6 C 0.09033(13) 0.33810(18) 0.30095(14)
C58_6 C 0.0157(4) 0.4246(5) 0.4717(3)
H40_6 H 0.0390 0.4636 0.4575
H41_6 H 0.0389 0.4064 0.4737
H42_6 H 0.0009 0.4248 0.5118
O5_6 O 0.00224(11) 0.41758(15) 0.14582(10)
N13_3 N 0.09347(11) 0.53289(16) 0.10010(13)
C1_6 C 0.43887(14) 0.00208(14) 0.19701(16)
C3_6 C 0.43077(15) 0.01912(17) 0.31000(17)
H1_6 H 0.4709 0.0409 0.3121
C4_6 C 0.39839(16) 0.01103(17) 0.36247(17)
C9_6 C 0.4269(2) 0.0374(3) 0.4248(2)
C11_6 C 0.4903(3) 0.0685(4) 0.4229(3)
H7_6 H 0.5032 0.0446 0.4036
H8_6 H 0.5052 0.0775 0.4640
H9_6 H 0.5039 0.1036 0.3999
C12_6 C 0.4000(4) 0.0676(4) 0.4528(4)
H10_6 H 0.3587 0.0433 0.4515
H11_6 H 0.4110 0.1027 0.4307
H12_6 H 0.4124 0.0766 0.4947
C19_6 C 0.58763(17) 0.12145(16) 0.1004(2)
H17_6 H 0.6045 0.0998 0.1123
C20_6 C 0.62225(16) 0.18051(16) 0.0975(2)
H18_6 H 0.6614 0.1977 0.1070
C21_6 C 0.59893(14) 0.21361(14) 0.08072(17)
C22_6 C 0.54106(16) 0.18560(16) 0.0669(2)
H19_6 H 0.5235 0.2065 0.0551
C23_6 C 0.50929(16) 0.12639(15) 0.0708(2)
H20_6 H 0.4701 0.1083 0.0614
C24_6 C 0.63492(14) 0.27725(14) 0.07915(17)
N2_6 N 0.53146(11) 0.09338(11) 0.08716(13)
N4_6 N 0.69183(11) 0.29958(11) 0.07906(15)
O2_6 O 0.48931(10) 0.01035(12) 0.19989(12)
C37_6 C 0.87855(16) 0.46617(23) 0.1004(2)
H29_6 H 0.9002 0.5046 0.1123
C38_6 C 0.81949(16) 0.44173(23) 0.0975(2)
H30_6 H 0.8023 0.4636 0.1070
C39_6 C 0.78639(14) 0.38531(20) 0.08072(17)
C40_6 C 0.81440(16) 0.35545(23) 0.0669(2)
H31_6 H 0.7935 0.3169 0.0551
C41_6 C 0.87361(15) 0.38289(22) 0.0708(2)
H32_6 H 0.8917 0.3617 0.0614
C42_6 C 0.72275(14) 0.35766(20) 0.07915(17)
N9_6 N 0.90662(11) 0.43807(16) 0.08716(13)
N10_6 N 0.70042(11) 0.39224(16) 0.07906(15)
C43_6 C 0.53383(23) 0.41237(17) 0.1004(2)
H33_6 H 0.4954 0.3955 0.1123
C44_6 C 0.55827(23) 0.37775(16) 0.0975(2)
H34_6 H 0.5364 0.3386 0.1070
C45_6 C 0.61469(20) 0.40107(14) 0.08072(17)
C46_6 C 0.64455(23) 0.45894(16) 0.0669(2)
H35_6 H 0.6831 0.4765 0.0551
C47_6 C 0.61711(22) 0.49071(16) 0.0708(2)
H36_6 H 0.6383 0.5299 0.0614
C48_6 C 0.64234(20) 0.36508(14) 0.07915(17)
N11_6 N 0.56193(16) 0.46854(11) 0.08716(13)
N12_6 N 0.60776(16) 0.30817(11) 0.07906(15)
C49_6 C 0.99792(14) 0.43678(20) 0.19701(16)
C51_6 C 0.98088(17) 0.41164(23) 0.31000(17)
H37_6 H 0.9591 0.4299 0.3121
C52_6 C 0.98897(17) 0.38735(23) 0.36247(17)
C57_6 C 0.9626(3) 0.3894(4) 0.4248(2)
C59_6 C 0.9315(4) 0.4217(5) 0.4229(3)
H43_6 H 0.9554 0.4585 0.4036
H44_6 H 0.9225 0.4276 0.4640
H45_6 H 0.8964 0.4002 0.3999
C60_6 C 0.9324(4) 0.3323(6) 0.4528(4)
H46_6 H 0.9567 0.3153 0.4515
H47_6 H 0.8973 0.3082 0.4307
H48_6 H 0.9234 0.3357 0.4947
O6_6 O 0.98965(12) 0.47895(16) 0.19989(12)
C61_6 C 0.56322(20) 0.56113(14) 0.19701(16)
C62_6 C 0.59072(20) 0.59560(14) 0.25406(15)
C63_6 C 0.58836(23) 0.56923(15) 0.31000(17)
H49_6 H 0.5701 0.5291 0.3121
C64_6 C 0.61265(23) 0.60161(16) 0.36247(17)
C65_6 C 0.63772(21) 0.66120(15) 0.35832(15)
H50_6 H 0.6535 0.6835 0.3933
C66_6 C 0.63975(18) 0.68831(13) 0.30313(14)
C67_6 C 0.61728(18) 0.65535(13) 0.25049(14)
H51_6 H 0.6201 0.6732 0.2129
C68_6 C 0.66190(18) 0.75222(13) 0.30095(14)
C69_6 C 0.6106(4) 0.5731(2) 0.4248(2)
C70_6 C 0.5754(5) 0.5910(3) 0.4717(3)
H52_6 H 0.5364 0.5753 0.4575
H53_6 H 0.5936 0.6324 0.4737
H54_6 H 0.5752 0.5760 0.5118
C71_6 C 0.5783(5) 0.5097(3) 0.4229(3)
H55_6 H 0.5415 0.4968 0.4036
H56_6 H 0.5724 0.4948 0.4640
H57_6 H 0.5998 0.4961 0.3999
C72_6 C 0.6677(6) 0.6000(4) 0.4528(4)
H58_6 H 0.6847 0.6413 0.4515
H59_6 H 0.6918 0.5890 0.4307
H60_6 H 0.6643 0.5876 0.4947
O9_6 O 0.58242(15) 0.58465(10) 0.14582(10)
O10_6 O 0.52105(16) 0.51069(10) 0.19989(12)
N14_3 N 0.46711(16) 0.56057(12) 0.10010(13)
C2_6 C 0.40440(14) 0.99511(14) 0.25406(15)
C5_6 C 0.33880(15) 0.97651(15) 0.35832(15)
H2_6 H 0.3165 0.9699 0.3933
C6_6 C 0.31169(13) 0.95143(13) 0.30313(14)
C7_6 C 0.34465(13) 0.96192(13) 0.25049(14)
H3_6 H 0.3268 0.9468 0.2129
C8_6 C 0.24778(13) 0.90967(13) 0.30095(14)
C10_6 C 0.4090(3) 0.9843(4) 0.4717(3)
H4_6 H 0.4247 0.9610 0.4575
H5_6 H 0.3676 0.9611 0.4737
H6_6 H 0.4240 0.9991 0.5118
C13_6 C 0.38330(15) 0.87414(14) 0.08782(19)
H13_6 H 0.3622 0.8926 0.0814
C14_6 C 0.35484(15) 0.81481(15) 0.08407(19)
H14_6 H 0.3154 0.7940 0.0760
C15_6 C 0.38568(14) 0.78642(13) 0.09236(16)
C16_6 C 0.44423(14) 0.81956(14) 0.10556(18)
H15_6 H 0.4665 0.8020 0.1116
C17_6 C 0.46892(15) 0.87859(15) 0.10958(18)
H16_6 H 0.5080 0.9003 0.1193
C18_6 C 0.35795(13) 0.72270(14) 0.08930(17)
N1_6 N 0.43943(12) 0.90653(11) 0.10010(13)
N3_6 N 0.39260(11) 0.69988(11) 0.08932(14)
O1_6 O 0.41535(10) 0.99776(11) 0.14582(10)
C25_6 C 0.12586(14) 0.50915(21) 0.08782(19)
H21_6 H 0.1074 0.4695 0.0814
C26_6 C 0.18519(15) 0.54002(21) 0.08407(19)
H22_6 H 0.2060 0.5213 0.0760
C27_6 C 0.21358(13) 0.59925(19) 0.09236(16)
C28_6 C 0.18044(14) 0.62466(20) 0.10556(18)
H23_6 H 0.1980 0.6644 0.1116
C29_6 C 0.12141(15) 0.59032(21) 0.10958(18)
H24_6 H 0.0997 0.6076 0.1193
C30_6 C 0.27730(14) 0.63524(19) 0.08930(17)
N6_6 N 0.30012(11) 0.69271(16) 0.08932(14)
C31_6 C 0.49085(21) 0.61670(15) 0.08782(19)
H25_6 H 0.5305 0.6378 0.0814
C32_6 C 0.45998(21) 0.64516(15) 0.08407(19)
H26_6 H 0.4787 0.6846 0.0760
C33_6 C 0.40075(19) 0.61432(14) 0.09236(16)
C34_6 C 0.37534(20) 0.55577(14) 0.10556(18)
H27_6 H 0.3356 0.5335 0.1116
C35_6 C 0.40968(21) 0.53108(15) 0.10958(18)
H28_6 H 0.3924 0.4920 0.1193
C36_6 C 0.36476(19) 0.64205(13) 0.08930(17)
N8_6 N 0.30729(16) 0.60740(11) 0.08932(14)
loop_
_geom_bond_atom_site_label_1
_geom_bond_atom_site_label_2
_geom_bond_site_symmetry_1
_geom_bond_site_symmetry_2
C1 C2 1_555 1_555
C2 C3 1_555 1_555
C3 H1 1_555 1_555
C7 C2 1_555 1_555
H3 C7 1_555 1_555
C8 C6 1_555 1_555
C13 H13 1_555 1_555
C14 C13 1_555 1_555
H14 C14 1_555 1_555
C15 C14 1_555 1_555
C16 C15 1_555 1_555
H15 C16 1_555 1_555
C17 C16 1_555 1_555
H16 C17 1_555 1_555
C18 C15 1_555 1_555
C19 H17 1_555 1_555
C20 C19 1_555 1_555
H18 C20 1_555 1_555
C21 C20 1_555 1_555
C22 C21 1_555 1_555
H19 C22 1_555 1_555
C23 C22 1_555 1_555
H20 C23 1_555 1_555
C24 C21 1_555 1_555
N1 C13 1_555 1_555
N2 C19 1_555 1_555
N3 C18 1_555 1_555
O1 C1 1_555 1_555
O2 C1 1_555 1_555
O3 C8 1_555 1_555
Co1 N1 1_555 1_555
C25 H21 1_555 1_555
C26 C25 1_555 1_555
H22 C26 1_555 1_555
C27 C26 1_555 1_555
C28 C27 1_555 1_555
H23 C28 1_555 1_555
C29 C28 1_555 1_555
H24 C29 1_555 1_555
C30 C27 1_555 1_555
N5 C25 1_555 1_555
N6 C18 1_555 1_555
C31 H25 1_555 1_555
C32 C31 1_555 1_555
H26 C32 1_555 1_555
C33 C32 1_555 1_555
C34 C33 1_555 1_555
H27 C34 1_555 1_555
C35 C34 1_555 1_555
H28 C35 1_555 1_555
C36 N3 1_555 1_555
N7 C31 1_555 1_555
N8 C30 1_555 1_555
N12 C24 1_555 1_555
O14 Co1 1_555 1_555
O17 Co1 1_555 1_555
Co4 N5 1_555 1_555
Co5 N7 1_555 1_555
Co11 O3 1_555 1_555
C6 C7 1_555 1_555
C17 N1 1_555 1_555
C23 N2 1_555 1_555
N2 Co1 1_555 1_555
O1 Co1 1_555 1_555
O2 Co1 1_555 1_555
C29 N5 1_555 1_555
C30 N6 1_555 1_555
C33 C36 1_555 1_555
C35 N7 1_555 1_555
C36 N8 1_555 1_555
C5 C4 1_555 1_555
H2 C5 1_555 1_555
C9 C4 1_555 1_555
C10 C9 1_555 1_555
H4 C10 1_555 1_555
H5 C10 1_555 1_555
H6 C10 1_555 1_555
C11 C9 1_555 1_555
H7 C11 1_555 1_555
H8 C11 1_555 1_555
H9 C11 1_555 1_555
C12 C9 1_555 1_555
H10 C12 1_555 1_555
H11 C12 1_555 1_555
H12 C12 1_555 1_555
Co8 O4 1_555 1_555
C43 H33 1_555 1_555
C44 C43 1_555 1_555
H34 C44 1_555 1_555
C45 C44 1_555 1_555
C46 C45 1_555 1_555
C47 C46 1_555 1_555
H36 C47 1_555 1_555
N11 C43 1_555 1_555
C61 C62 1_555 1_555
C62 C63 1_555 1_555
C63 H49 1_555 1_555
C67 C62 1_555 1_555
H51 C67 1_555 1_555
C68 C66 1_555 1_555
O9 C61 1_555 1_555
O10 C61 1_555 1_555
O11 C68 1_555 1_555
Co5 N11 1_555 1_555
O13 Co5 1_555 1_555
O16 Co5 1_555 1_555
C45 C48 1_555 1_555
C47 N11 1_555 1_555
C66 C67 1_555 1_555
O9 Co5 1_555 1_555
O10 Co5 1_555 1_555
C65 C64 1_555 1_555
H50 C65 1_555 1_555
C69 C64 1_555 1_555
C70 C69 1_555 1_555
H52 C70 1_555 1_555
H53 C70 1_555 1_555
H54 C70 1_555 1_555
C71 C69 1_555 1_555
H55 C71 1_555 1_555
H56 C71 1_555 1_555
H57 C71 1_555 1_555
H46 C60 1_555 1_555
H47 C60 1_555 1_555
C37 H29 1_555 1_555
C38 C37 1_555 1_555
H30 C38 1_555 1_555
C39 C38 1_555 1_555
C40 C39 1_555 1_555
C41 C40 1_555 1_555
H32 C41 1_555 1_555
N9 C37 1_555 1_555
N10 C42 1_555 1_555
C49 C50 1_555 1_555
C50 C51 1_555 1_555
C51 H37 1_555 1_555
C55 C50 1_555 1_555
H39 C55 1_555 1_555
C56 C54 1_555 1_555
O5 C49 1_555 1_555
O6 C49 1_555 1_555
O7 C56 1_555 1_555
Co4 N9 1_555 1_555
O15 Co4 1_555 1_555
O18 Co4 1_555 1_555
C39 C42 1_555 1_555
C41 N9 1_555 1_555
C54 C55 1_555 1_555
O5 Co4 1_555 1_555
O6 Co4 1_555 1_555
C53 C52 1_555 1_555
H38 C53 1_555 1_555
C57 C52 1_555 1_555
C58 C57 1_555 1_555
H40 C58 1_555 1_555
H41 C58 1_555 1_555
H42 C58 1_555 1_555
C59 C57 1_555 1_555
H43 C59 1_555 1_555
H44 C59 1_555 1_555
H45 C59 1_555 1_555
H58 C72 1_555 1_555
H59 C72 1_555 1_555
C25_2 H21_2 1_555 1_555
C26_2 C25_2 1_555 1_555
H22_2 C26_2 1_555 1_555
C27_2 C26_2 1_555 1_555
C28_2 C27_2 1_555 1_555
H23_2 C28_2 1_555 1_555
C29_2 C28_2 1_555 1_555
H24_2 C29_2 1_555 1_555
C30_2 C27_2 1_555 1_555
N5_2 C25_2 1_555 1_555
N8_2 C30_2 1_555 1_555
Co4_2 N5_2 1_555 1_555
C29_2 N5_2 1_555 1_555
C8_2 C6_2 1_555 1_555
O3_2 C8_2 1_555 1_555
O16 C8_2 1_555 1_555
Co11_2 O3_2 1_555 1_555
C31_2 H25_2 1_555 1_555
C32_2 C31_2 1_555 1_555
C33_2 C32_2 1_555 1_555
C34_2 C33_2 1_555 1_555
H27_2 C34_2 1_555 1_555
C35_2 C34_2 1_555 1_555
H28_2 C35_2 1_555 1_555
N7_2 C31_2 1_555 1_555
Co5_2 N7_2 1_555 1_555
C33_2 C36_2 1_555 1_555
C35_2 N7_2 1_555 1_555
C1_2 C2_2 1_555 1_555
C2_2 C3_2 1_555 1_555
C3_2 H1_2 1_555 1_555
C4_2 C3_2 1_555 1_555
C5_2 C4_2 1_555 1_555
C7_2 C2_2 1_555 1_555
C9_2 C4_2 1_555 1_555
C10_2 C9_2 1_555 1_555
H4_2 C10_2 1_555 1_555
H5_2 C10_2 1_555 1_555
H6_2 C10_2 1_555 1_555
C11_2 C9_2 1_555 1_555
H7_2 C11_2 1_555 1_555
H8_2 C11_2 1_555 1_555
H9_2 C11_2 1_555 1_555
C12_2 C9_2 1_555 1_555
H10_2 C12_2 1_555 1_555
H11_2 C12_2 1_555 1_555
H12_2 C12_2 1_555 1_555
C13_2 H13_2 1_555 1_555
C14_2 C13_2 1_555 1_555
C15_2 C14_2 1_555 1_555
C16_2 C15_2 1_555 1_555
H15_2 C16_2 1_555 1_555
C17_2 C16_2 1_555 1_555
H16_2 C17_2 1_555 1_555
C18_2 C15_2 1_555 1_555
C19_2 H17_2 1_555 1_555
C20_2 C19_2 1_555 1_555
H18_2 C20_2 1_555 1_555
C21_2 C20_2 1_555 1_555
C22_2 C21_2 1_555 1_555
H19_2 C22_2 1_555 1_555
C23_2 C22_2 1_555 1_555
H20_2 C23_2 1_555 1_555
C24_2 C21_2 1_555 1_555
N1_2 C13_2 1_555 1_555
N2_2 C19_2 1_555 1_555
N3_2 C18_2 1_555 1_555
N4_2 C24_2 1_555 1_555
O1_2 C1_2 1_555 1_555
O2_2 C1_2 1_555 1_555
Co1_2 N1_2 1_555 1_555
C37_2 H29_2 1_555 1_555
C38_2 C37_2 1_555 1_555
H30_2 C38_2 1_555 1_555
C39_2 C38_2 1_555 1_555
C40_2 C39_2 1_555 1_555
H31_2 C40_2 1_555 1_555
C41_2 C40_2 1_555 1_555
H32_2 C41_2 1_555 1_555
C42_2 N4_2 1_555 1_555
N9_2 C37_2 1_555 1_555
N10_2 C42_2 1_555 1_555
C43_2 H33_2 1_555 1_555
C44_2 C43_2 1_555 1_555
H34_2 C44_2 1_555 1_555
C45_2 C44_2 1_555 1_555
C46_2 C45_2 1_555 1_555
H35_2 C46_2 1_555 1_555
C47_2 C46_2 1_555 1_555
H36_2 C47_2 1_555 1_555
C48_2 N10_2 1_555 1_555
N11_2 C43_2 1_555 1_555
N12_2 C24_2 1_555 1_555
C49_2 C50_2 1_555 1_555
C50_2 C51_2 1_555 1_555
C51_2 H37_2 1_555 1_555
C52_2 C51_2 1_555 1_555
C53_2 C52_2 1_555 1_555
H38_2 C53_2 1_555 1_555
C54_2 C53_2 1_555 1_555
C55_2 C50_2 1_555 1_555
H39_2 C55_2 1_555 1_555
C56_2 C54_2 1_555 1_555
C57_2 C52_2 1_555 1_555
C58_2 C57_2 1_555 1_555
H40_2 C58_2 1_555 1_555
H41_2 C58_2 1_555 1_555
H42_2 C58_2 1_555 1_555
C59_2 C57_2 1_555 1_555
H43_2 C59_2 1_555 1_555
H44_2 C59_2 1_555 1_555
H45_2 C59_2 1_555 1_555
C60_2 C57_2 1_555 1_555
H46_2 C60_2 1_555 1_555
H47_2 C60_2 1_555 1_555
H48_2 C60_2 1_555 1_555
O5_2 C49_2 1_555 1_555
O6_2 C49_2 1_555 1_555
O7_2 C56_2 1_555 1_555
O17 C56_2 1_555 1_555
Co4_2 N9_2 1_555 1_555
C61_2 C62_2 1_555 1_555
C62_2 C63_2 1_555 1_555
C63_2 H49_2 1_555 1_555
C64_2 C63_2 1_555 1_555
C65_2 C64_2 1_555 1_555
C67_2 C62_2 1_555 1_555
C69_2 C64_2 1_555 1_555
C70_2 C69_2 1_555 1_555
H52_2 C70_2 1_555 1_555
H53_2 C70_2 1_555 1_555
H54_2 C70_2 1_555 1_555
C71_2 C69_2 1_555 1_555
H55_2 C71_2 1_555 1_555
H56_2 C71_2 1_555 1_555
H57_2 C71_2 1_555 1_555
C72_2 C69_2 1_555 1_555
H58_2 C72_2 1_555 1_555
H59_2 C72_2 1_555 1_555
H60_2 C72_2 1_555 1_555
O9_2 C61_2 1_555 1_555
O10_2 C61_2 1_555 1_555
Co5_2 N11_2 1_555 1_555
O13_2 Co5_2 1_555 1_555
O14_2 Co1_2 1_555 1_555
O15_2 Co4_2 1_555 1_555
O16_2 Co5_2 1_555 1_555
O17_2 Co1_2 1_555 1_555
O18_2 Co4_2 1_555 1_555
Co9_2 O7_2 1_555 1_555
C17_2 N1_2 1_555 1_555
C23_2 N2_2 1_555 1_555
N2_2 Co1_2 1_555 1_555
O1_2 Co1_2 1_555 1_555
O2_2 Co1_2 1_555 1_555
C39_2 C42_2 1_555 1_555
C41_2 N9_2 1_555 1_555
C45_2 C48_2 1_555 1_555
C47_2 N11_2 1_555 1_555
C48_2 N12_2 1_555 1_555
C54_2 C55_2 1_555 1_555
O5_2 Co4_2 1_555 1_555
O6_2 Co4_2 1_555 1_555
O9_2 Co5_2 1_555 1_555
O10_2 Co5_2 1_555 1_555
C68_2 C66_2 1_555 1_555
O11_2 C68_2 1_555 1_555
O18 C68_2 1_555 1_555
Co10_2 O11_2 1_555 1_555
H2_3 C5_3 1_555 1_555
C6_3 C5_3 1_555 1_555
C7_3 C2_3 1_555 1_555
H3_3 C7_3 1_555 1_555
C8_3 C6_3 1_555 1_555
H4_3 C10_3 1_555 1_555
H5_3 C10_3 1_555 1_555
H6_3 C10_3 1_555 1_555
C13_3 H13_3 1_555 1_555
C14_3 C13_3 1_555 1_555
H14_3 C14_3 1_555 1_555
C15_3 C14_3 1_555 1_555
C16_3 C15_3 1_555 1_555
H15_3 C16_3 1_555 1_555
C17_3 C16_3 1_555 1_555
H16_3 C17_3 1_555 1_555
C18_3 C15_3 1_555 1_555
N1_3 C13_3 1_555 1_555
N3_3 C18_3 1_555 1_555
O3_3 C8_3 1_555 1_555
O16_2 C8_3 1_555 1_555
C25_3 H21_3 1_555 1_555
C26_3 C25_3 1_555 1_555
H22_3 C26_3 1_555 1_555
C27_3 C26_3 1_555 1_555
C28_3 C27_3 1_555 1_555
H23_3 C28_3 1_555 1_555
C29_3 C28_3 1_555 1_555
H24_3 C29_3 1_555 1_555
C30_3 C27_3 1_555 1_555
N5_3 C25_3 1_555 1_555
N6_3 C18_3 1_555 1_555
C31_3 H25_3 1_555 1_555
C32_3 C31_3 1_555 1_555
H26_3 C32_3 1_555 1_555
C33_3 C32_3 1_555 1_555
C34_3 C33_3 1_555 1_555
H27_3 C34_3 1_555 1_555
C35_3 C34_3 1_555 1_555
H28_3 C35_3 1_555 1_555
C36_3 N3_3 1_555 1_555
N7_3 C31_3 1_555 1_555
N8_3 C30_3 1_555 1_555
Co8 N7_3 1_555 1_555
Co11_3 O3_3 1_555 1_555
C6_3 C7_3 1_555 1_555
C17_3 N1_3 1_555 1_555
C29_3 N5_3 1_555 1_555
C30_3 N6_3 1_555 1_555
C33_3 C36_3 1_555 1_555
C35_3 N7_3 1_555 1_555
C36_3 N8_3 1_555 1_555
C3_3 H1_3 1_555 1_555
C4_3 C3_3 1_555 1_555
C9_3 C4_3 1_555 1_555
C11_3 C9_3 1_555 1_555
H7_3 C11_3 1_555 1_555
H8_3 C11_3 1_555 1_555
H9_3 C11_3 1_555 1_555
C12_3 C9_3 1_555 1_555
H10_3 C12_3 1_555 1_555
H11_3 C12_3 1_555 1_555
H12_3 C12_3 1_555 1_555
C19_3 H17_3 1_555 1_555
C20_3 C19_3 1_555 1_555
H18_3 C20_3 1_555 1_555
C21_3 C20_3 1_555 1_555
C22_3 C21_3 1_555 1_555
H19_3 C22_3 1_555 1_555
C23_3 C22_3 1_555 1_555
H20_3 C23_3 1_555 1_555
C24_3 C21_3 1_555 1_555
N2_3 C19_3 1_555 1_555
N4_3 C24_3 1_555 1_555
O2_3 C1_3 1_555 1_555
C37_3 H29_3 1_555 1_555
C38_3 C37_3 1_555 1_555
H30_3 C38_3 1_555 1_555
C39_3 C38_3 1_555 1_555
C40_3 C39_3 1_555 1_555
H31_3 C40_3 1_555 1_555
C41_3 C40_3 1_555 1_555
H32_3 C41_3 1_555 1_555
C42_3 N4_3 1_555 1_555
N9_3 C37_3 1_555 1_555
N10_3 C42_3 1_555 1_555
C43_3 H33_3 1_555 1_555
C44_3 C43_3 1_555 1_555
H34_3 C44_3 1_555 1_555
C45_3 C44_3 1_555 1_555
C46_3 C45_3 1_555 1_555
H35_3 C46_3 1_555 1_555
C47_3 C46_3 1_555 1_555
H36_3 C47_3 1_555 1_555
C48_3 N10_3 1_555 1_555
N11_3 C43_3 1_555 1_555
N12_3 C24_3 1_555 1_555
C51_3 H37_3 1_555 1_555
C52_3 C51_3 1_555 1_555
C57_3 C52_3 1_555 1_555
C59_3 C57_3 1_555 1_555
H43_3 C59_3 1_555 1_555
H44_3 C59_3 1_555 1_555
H45_3 C59_3 1_555 1_555
C60_3 C57_3 1_555 1_555
H46_3 C60_3 1_555 1_555
H47_3 C60_3 1_555 1_555
H48_3 C60_3 1_555 1_555
O6_3 C49_3 1_555 1_555
Co7 N9_3 1_555 1_555
C61_3 C62_3 1_555 1_555
C62_3 C63_3 1_555 1_555
C63_3 H49_3 1_555 1_555
C64_3 C63_3 1_555 1_555
C65_3 C64_3 1_555 1_555
H50_3 C65_3 1_555 1_555
C66_3 C65_3 1_555 1_555
C67_3 C62_3 1_555 1_555
H51_3 C67_3 1_555 1_555
C68_3 C66_3 1_555 1_555
C69_3 C64_3 1_555 1_555
C70_3 C69_3 1_555 1_555
H52_3 C70_3 1_555 1_555
H53_3 C70_3 1_555 1_555
H54_3 C70_3 1_555 1_555
C71_3 C69_3 1_555 1_555
H55_3 C71_3 1_555 1_555
H56_3 C71_3 1_555 1_555
H57_3 C71_3 1_555 1_555
C72_3 C69_3 1_555 1_555
H58_3 C72_3 1_555 1_555
H59_3 C72_3 1_555 1_555
H60_3 C72_3 1_555 1_555
O9_3 C61_3 1_555 1_555
O10_3 C61_3 1_555 1_555
O11_3 C68_3 1_555 1_555
O18_2 C68_3 1_555 1_555
Co8 N11_3 1_555 1_555
O13_3 Co8 1_555 1_555
Co10_3 O11_3 1_555 1_555
C23_3 N2_3 1_555 1_555
N2_3 Co6 1_555 1_555
O2_3 Co6 1_555 1_555
C39_3 C42_3 1_555 1_555
C41_3 N9_3 1_555 1_555
C45_3 C48_3 1_555 1_555
C47_3 N11_3 1_555 1_555
C48_3 N12_3 1_555 1_555
O6_3 Co7 1_555 1_555
C66_3 C67_3 1_555 1_555
O9_3 Co8 1_555 1_555
O10_3 Co8 1_555 1_555
H38_3 C53_3 1_555 1_555
C54_3 C53_3 1_555 1_555
C55_3 C50_3 1_555 1_555
H39_3 C55_3 1_555 1_555
C56_3 C54_3 1_555 1_555
H40_3 C58_3 1_555 1_555
H41_3 C58_3 1_555 1_555
H42_3 C58_3 1_555 1_555
O7_3 C56_3 1_555 1_555
O17_2 C56_3 1_555 1_555
Co9_3 O7_3 1_555 1_555
C54_3 C55_3 1_555 1_555
C53_4 C52_4 1_555 1_555
H38_4 C53_4 1_555 1_555
C57_4 C52_4 1_555 1_555
C58_4 C57_4 1_555 1_555
H40_4 C58_4 1_555 1_555
H41_4 C58_4 1_555 1_555
H42_4 C58_4 1_555 1_555
C59_4 C57_4 1_555 1_555
H43_4 C59_4 1_555 1_555
H44_4 C59_4 1_555 1_555
H45_4 C59_4 1_555 1_555
H58_4 C72_4 1_555 1_555
H59_4 C72_4 1_555 1_555
C37_4 H29_4 1_555 1_555
C38_4 C37_4 1_555 1_555
H30_4 C38_4 1_555 1_555
C39_4 C38_4 1_555 1_555
C40_4 C39_4 1_555 1_555
C41_4 C40_4 1_555 1_555
H32_4 C41_4 1_555 1_555
N9_4 C37_4 1_555 1_555
N10_4 C42_4 1_555 1_555
C49_4 C50_4 1_555 1_555
C50_4 C51_4 1_555 1_555
C51_4 H37_4 1_555 1_555
C55_4 C50_4 1_555 1_555
H39_4 C55_4 1_555 1_555
C56_4 C54_4 1_555 1_555
O5_4 C49_4 1_555 1_555
O6_4 C49_4 1_555 1_555
O14_3 C56_4 1_555 1_555
Co10_3 N9_4 1_555 1_555
N13 Co10_3 1_555 1_555
O18_3 Co10_3 1_555 1_555
C39_4 C42_4 1_555 1_555
C41_4 N9_4 1_555 1_555
C54_4 C55_4 1_555 1_555
O5_4 Co10_3 1_555 1_555
O6_4 Co10_3 1_555 1_555
H46_4 C60_4 1_555 1_555
H47_4 C60_4 1_555 1_555
C65_4 C64_4 1_555 1_555
H50_4 C65_4 1_555 1_555
C69_4 C64_4 1_555 1_555
C70_4 C69_4 1_555 1_555
H52_4 C70_4 1_555 1_555
H53_4 C70_4 1_555 1_555
H54_4 C70_4 1_555 1_555
C71_4 C69_4 1_555 1_555
H55_4 C71_4 1_555 1_555
H56_4 C71_4 1_555 1_555
H57_4 C71_4 1_555 1_555
C43_4 H33_4 1_555 1_555
C44_4 C43_4 1_555 1_555
H34_4 C44_4 1_555 1_555
C45_4 C44_4 1_555 1_555
C46_4 C45_4 1_555 1_555
C47_4 C46_4 1_555 1_555
H36_4 C47_4 1_555 1_555
N11_4 C43_4 1_555 1_555
C61_4 C62_4 1_555 1_555
C62_4 C63_4 1_555 1_555
C63_4 H49_4 1_555 1_555
C67_4 C62_4 1_555 1_555
H51_4 C67_4 1_555 1_555
C68_4 C66_4 1_555 1_555
O9_4 C61_4 1_555 1_555
O10_4 C61_4 1_555 1_555
O15_3 C68_4 1_555 1_555
Co11_3 N11_4 1_555 1_555
N14 Co11_3 1_555 1_555
O16_3 Co11_3 1_555 1_555
C45_4 C48_4 1_555 1_555
C47_4 N11_4 1_555 1_555
C66_4 C67_4 1_555 1_555
O9_4 Co11_3 1_555 1_555
O10_4 Co11_3 1_555 1_555
C5_4 C4_4 1_555 1_555
H2_4 C5_4 1_555 1_555
C9_4 C4_4 1_555 1_555
C10_4 C9_4 1_555 1_555
H4_4 C10_4 1_555 1_555
H5_4 C10_4 1_555 1_555
H6_4 C10_4 1_555 1_555
C11_4 C9_4 1_555 1_555
H7_4 C11_4 1_555 1_555
H8_4 C11_4 1_555 1_555
H9_4 C11_4 1_555 1_555
C12_4 C9_4 1_555 1_555
H10_4 C12_4 1_555 1_555
H11_4 C12_4 1_555 1_555
H12_4 C12_4 1_555 1_555
Co11 O4_2 1_555 1_555
C1_4 C2_4 1_555 1_555
C2_4 C3_4 1_555 1_555
C3_4 H1_4 1_555 1_555
C7_4 C2_4 1_555 1_555
H3_4 C7_4 1_555 1_555
C8_4 C6_4 1_555 1_555
C13_4 H13_4 1_555 1_555
C14_4 C13_4 1_555 1_555
H14_4 C14_4 1_555 1_555
C15_4 C14_4 1_555 1_555
C16_4 C15_4 1_555 1_555
H15_4 C16_4 1_555 1_555
C17_4 C16_4 1_555 1_555
H16_4 C17_4 1_555 1_555
C18_4 C15_4 1_555 1_555
C19_4 H17_4 1_555 1_555
C20_4 C19_4 1_555 1_555
H18_4 C20_4 1_555 1_555
C21_4 C20_4 1_555 1_555
C22_4 C21_4 1_555 1_555
H19_4 C22_4 1_555 1_555
C23_4 C22_4 1_555 1_555
H20_4 C23_4 1_555 1_555
C24_4 C21_4 1_555 1_555
N1_4 C13_4 1_555 1_555
N2_4 C19_4 1_555 1_555
N3_4 C18_4 1_555 1_555
O1_4 C1_4 1_555 1_555
O2_4 C1_4 1_555 1_555
O13_3 C8_4 1_555 1_555
Co9_3 N1_4 1_555 1_555
C25_4 H21_4 1_555 1_555
C26_4 C25_4 1_555 1_555
H22_4 C26_4 1_555 1_555
C27_4 C26_4 1_555 1_555
C28_4 C27_4 1_555 1_555
H23_4 C28_4 1_555 1_555
C29_4 C28_4 1_555 1_555
H24_4 C29_4 1_555 1_555
C30_4 C27_4 1_555 1_555
N13 C25_4 1_555 1_555
N6_4 C18_4 1_555 1_555
C31_4 H25_4 1_555 1_555
C32_4 C31_4 1_555 1_555
H26_4 C32_4 1_555 1_555
C33_4 C32_4 1_555 1_555
C34_4 C33_4 1_555 1_555
H27_4 C34_4 1_555 1_555
C35_4 C34_4 1_555 1_555
H28_4 C35_4 1_555 1_555
C36_4 N3_4 1_555 1_555
N14 C31_4 1_555 1_555
N8_4 C30_4 1_555 1_555
N12_4 C24_4 1_555 1_555
O17_3 Co9_3 1_555 1_555
C6_4 C7_4 1_555 1_555
C17_4 N1_4 1_555 1_555
C23_4 N2_4 1_555 1_555
N2_4 Co9_3 1_555 1_555
O1_4 Co9_3 1_555 1_555
O2_4 Co9_3 1_555 1_555
C29_4 N13 1_555 1_555
C30_4 N6_4 1_555 1_555
C33_4 C36_4 1_555 1_555
C35_4 N14 1_555 1_555
C36_4 N8_4 1_555 1_555
C68_5 C66_5 1_555 1_555
O15_2 C68_5 1_555 1_555
O18_3 C68_5 1_555 1_555
C1_5 C2_5 1_555 1_555
C2_5 C3_5 1_555 1_555
C3_5 H1_5 1_555 1_555
C4_5 C3_5 1_555 1_555
C5_5 C4_5 1_555 1_555
C7_5 C2_5 1_555 1_555
C9_5 C4_5 1_555 1_555
C10_5 C9_5 1_555 1_555
H4_5 C10_5 1_555 1_555
H5_5 C10_5 1_555 1_555
H6_5 C10_5 1_555 1_555
C11_5 C9_5 1_555 1_555
H7_5 C11_5 1_555 1_555
H8_5 C11_5 1_555 1_555
H9_5 C11_5 1_555 1_555
C12_5 C9_5 1_555 1_555
H10_5 C12_5 1_555 1_555
H11_5 C12_5 1_555 1_555
H12_5 C12_5 1_555 1_555
C13_5 H13_5 1_555 1_555
C14_5 C13_5 1_555 1_555
C15_5 C14_5 1_555 1_555
C16_5 C15_5 1_555 1_555
H15_5 C16_5 1_555 1_555
C17_5 C16_5 1_555 1_555
H16_5 C17_5 1_555 1_555
C18_5 C15_5 1_555 1_555
C19_5 H17_5 1_555 1_555
C20_5 C19_5 1_555 1_555
H18_5 C20_5 1_555 1_555
C21_5 C20_5 1_555 1_555
C22_5 C21_5 1_555 1_555
H19_5 C22_5 1_555 1_555
C23_5 C22_5 1_555 1_555
H20_5 C23_5 1_555 1_555
C24_5 C21_5 1_555 1_555
N1_5 C13_5 1_555 1_555
N2_5 C19_5 1_555 1_555
N3_5 C18_5 1_555 1_555
N4_5 C24_5 1_555 1_555
O1_5 C1_5 1_555 1_555
O2_5 C1_5 1_555 1_555
Co9_2 N1_5 1_555 1_555
C37_5 H29_5 1_555 1_555
C38_5 C37_5 1_555 1_555
H30_5 C38_5 1_555 1_555
C39_5 C38_5 1_555 1_555
C40_5 C39_5 1_555 1_555
H31_5 C40_5 1_555 1_555
C41_5 C40_5 1_555 1_555
H32_5 C41_5 1_555 1_555
C42_5 N4_5 1_555 1_555
N9_5 C37_5 1_555 1_555
N10_5 C42_5 1_555 1_555
C43_5 H33_5 1_555 1_555
C44_5 C43_5 1_555 1_555
H34_5 C44_5 1_555 1_555
C45_5 C44_5 1_555 1_555
C46_5 C45_5 1_555 1_555
H35_5 C46_5 1_555 1_555
C47_5 C46_5 1_555 1_555
H36_5 C47_5 1_555 1_555
C48_5 N10_5 1_555 1_555
N11_5 C43_5 1_555 1_555
N12_5 C24_5 1_555 1_555
C49_5 C50_5 1_555 1_555
C50_5 C51_5 1_555 1_555
C51_5 H37_5 1_555 1_555
C52_5 C51_5 1_555 1_555
C53_5 C52_5 1_555 1_555
H38_5 C53_5 1_555 1_555
C54_5 C53_5 1_555 1_555
C55_5 C50_5 1_555 1_555
H39_5 C55_5 1_555 1_555
C56_5 C54_5 1_555 1_555
C57_5 C52_5 1_555 1_555
C58_5 C57_5 1_555 1_555
H40_5 C58_5 1_555 1_555
H41_5 C58_5 1_555 1_555
H42_5 C58_5 1_555 1_555
C59_5 C57_5 1_555 1_555
H43_5 C59_5 1_555 1_555
H44_5 C59_5 1_555 1_555
H45_5 C59_5 1_555 1_555
C60_5 C57_5 1_555 1_555
H46_5 C60_5 1_555 1_555
H47_5 C60_5 1_555 1_555
H48_5 C60_5 1_555 1_555
O5_5 C49_5 1_555 1_555
O6_5 C49_5 1_555 1_555
O14_2 C56_5 1_555 1_555
O17_3 C56_5 1_555 1_555
Co10_2 N9_5 1_555 1_555
C61_5 C62_5 1_555 1_555
C62_5 C63_5 1_555 1_555
C63_5 H49_5 1_555 1_555
C64_5 C63_5 1_555 1_555
C65_5 C64_5 1_555 1_555
C67_5 C62_5 1_555 1_555
C69_5 C64_5 1_555 1_555
C70_5 C69_5 1_555 1_555
H52_5 C70_5 1_555 1_555
H53_5 C70_5 1_555 1_555
H54_5 C70_5 1_555 1_555
C71_5 C69_5 1_555 1_555
H55_5 C71_5 1_555 1_555
H56_5 C71_5 1_555 1_555
H57_5 C71_5 1_555 1_555
C72_5 C69_5 1_555 1_555
H58_5 C72_5 1_555 1_555
H59_5 C72_5 1_555 1_555
H60_5 C72_5 1_555 1_555
O9_5 C61_5 1_555 1_555
O10_5 C61_5 1_555 1_555
Co11_2 N11_5 1_555 1_555
N13_2 Co10_2 1_555 1_555
N14_2 Co11_2 1_555 1_555
O16_4 Co11_2 1_555 1_555
O17_4 Co9_2 1_555 1_555
O18_4 Co10_2 1_555 1_555
C17_5 N1_5 1_555 1_555
C23_5 N2_5 1_555 1_555
N2_5 Co9_2 1_555 1_555
O1_5 Co9_2 1_555 1_555
O2_5 Co9_2 1_555 1_555
C39_5 C42_5 1_555 1_555
C41_5 N9_5 1_555 1_555
C45_5 C48_5 1_555 1_555
C47_5 N11_5 1_555 1_555
C48_5 N12_5 1_555 1_555
C54_5 C55_5 1_555 1_555
O5_5 Co10_2 1_555 1_555
O6_5 Co10_2 1_555 1_555
O9_5 Co11_2 1_555 1_555
O10_5 Co11_2 1_555 1_555
C31_5 H25_5 1_555 1_555
C32_5 C31_5 1_555 1_555
C33_5 C32_5 1_555 1_555
C34_5 C33_5 1_555 1_555
H27_5 C34_5 1_555 1_555
C35_5 C34_5 1_555 1_555
H28_5 C35_5 1_555 1_555
N14_2 C31_5 1_555 1_555
C33_5 C36_5 1_555 1_555
C35_5 N14_2 1_555 1_555
C8_5 C6_5 1_555 1_555
O13_2 C8_5 1_555 1_555
O16_3 C8_5 1_555 1_555
C25_5 H21_5 1_555 1_555
C26_5 C25_5 1_555 1_555
H22_5 C26_5 1_555 1_555
C27_5 C26_5 1_555 1_555
C28_5 C27_5 1_555 1_555
H23_5 C28_5 1_555 1_555
C29_5 C28_5 1_555 1_555
H24_5 C29_5 1_555 1_555
C30_5 C27_5 1_555 1_555
N13_2 C25_5 1_555 1_555
N8_5 C30_5 1_555 1_555
C29_5 N13_2 1_555 1_555
H38_6 C53_6 1_555 1_555
C54_6 C53_6 1_555 1_555
C55_6 C50_6 1_555 1_555
H39_6 C55_6 1_555 1_555
C56_6 C54_6 1_555 1_555
H40_6 C58_6 1_555 1_555
H41_6 C58_6 1_555 1_555
H42_6 C58_6 1_555 1_555
O14 C56_6 1_555 1_555
O17_4 C56_6 1_555 1_555
C54_6 C55_6 1_555 1_555
C3_6 H1_6 1_555 1_555
C4_6 C3_6 1_555 1_555
C9_6 C4_6 1_555 1_555
C11_6 C9_6 1_555 1_555
H7_6 C11_6 1_555 1_555
H8_6 C11_6 1_555 1_555
H9_6 C11_6 1_555 1_555
C12_6 C9_6 1_555 1_555
H10_6 C12_6 1_555 1_555
H11_6 C12_6 1_555 1_555
H12_6 C12_6 1_555 1_555
C19_6 H17_6 1_555 1_555
C20_6 C19_6 1_555 1_555
H18_6 C20_6 1_555 1_555
C21_6 C20_6 1_555 1_555
C22_6 C21_6 1_555 1_555
H19_6 C22_6 1_555 1_555
C23_6 C22_6 1_555 1_555
H20_6 C23_6 1_555 1_555
C24_6 C21_6 1_555 1_555
N2_6 C19_6 1_555 1_555
N4_6 C24_6 1_555 1_555
O2_6 C1_6 1_555 1_555
C37_6 H29_6 1_555 1_555
C38_6 C37_6 1_555 1_555
H30_6 C38_6 1_555 1_555
C39_6 C38_6 1_555 1_555
C40_6 C39_6 1_555 1_555
H31_6 C40_6 1_555 1_555
C41_6 C40_6 1_555 1_555
H32_6 C41_6 1_555 1_555
C42_6 N4_6 1_555 1_555
N9_6 C37_6 1_555 1_555
N10_6 C42_6 1_555 1_555
C43_6 H33_6 1_555 1_555
C44_6 C43_6 1_555 1_555
H34_6 C44_6 1_555 1_555
C45_6 C44_6 1_555 1_555
C46_6 C45_6 1_555 1_555
H35_6 C46_6 1_555 1_555
C47_6 C46_6 1_555 1_555
H36_6 C47_6 1_555 1_555
C48_6 N10_6 1_555 1_555
N11_6 C43_6 1_555 1_555
N12_6 C24_6 1_555 1_555
C51_6 H37_6 1_555 1_555
C52_6 C51_6 1_555 1_555
C57_6 C52_6 1_555 1_555
C59_6 C57_6 1_555 1_555
H43_6 C59_6 1_555 1_555
H44_6 C59_6 1_555 1_555
H45_6 C59_6 1_555 1_555
C60_6 C57_6 1_555 1_555
H46_6 C60_6 1_555 1_555
H47_6 C60_6 1_555 1_555
H48_6 C60_6 1_555 1_555
O6_6 C49_6 1_555 1_555
Co10 N9_6 1_555 1_555
C61_6 C62_6 1_555 1_555
C62_6 C63_6 1_555 1_555
C63_6 H49_6 1_555 1_555
C64_6 C63_6 1_555 1_555
C65_6 C64_6 1_555 1_555
H50_6 C65_6 1_555 1_555
C66_6 C65_6 1_555 1_555
C67_6 C62_6 1_555 1_555
H51_6 C67_6 1_555 1_555
C68_6 C66_6 1_555 1_555
C69_6 C64_6 1_555 1_555
C70_6 C69_6 1_555 1_555
H52_6 C70_6 1_555 1_555
H53_6 C70_6 1_555 1_555
H54_6 C70_6 1_555 1_555
C71_6 C69_6 1_555 1_555
H55_6 C71_6 1_555 1_555
H56_6 C71_6 1_555 1_555
H57_6 C71_6 1_555 1_555
C72_6 C69_6 1_555 1_555
H58_6 C72_6 1_555 1_555
H59_6 C72_6 1_555 1_555
H60_6 C72_6 1_555 1_555
O9_6 C61_6 1_555 1_555
O10_6 C61_6 1_555 1_555
O15 C68_6 1_555 1_555
O18_4 C68_6 1_555 1_555
Co11 N11_6 1_555 1_555
N14_3 Co11 1_555 1_555
C23_6 N2_6 1_555 1_555
N2_6 Co9 1_555 1_555
O2_6 Co9 1_555 1_555
C39_6 C42_6 1_555 1_555
C41_6 N9_6 1_555 1_555
C45_6 C48_6 1_555 1_555
C47_6 N11_6 1_555 1_555
C48_6 N12_6 1_555 1_555
O6_6 Co10 1_555 1_555
C66_6 C67_6 1_555 1_555
O9_6 Co11 1_555 1_555
O10_6 Co11 1_555 1_555
H2_6 C5_6 1_555 1_555
C6_6 C5_6 1_555 1_555
C7_6 C2_6 1_555 1_555
H3_6 C7_6 1_555 1_555
C8_6 C6_6 1_555 1_555
H4_6 C10_6 1_555 1_555
H5_6 C10_6 1_555 1_555
H6_6 C10_6 1_555 1_555
C13_6 H13_6 1_555 1_555
C14_6 C13_6 1_555 1_555
H14_6 C14_6 1_555 1_555
C15_6 C14_6 1_555 1_555
C16_6 C15_6 1_555 1_555
H15_6 C16_6 1_555 1_555
C17_6 C16_6 1_555 1_555
H16_6 C17_6 1_555 1_555
C18_6 C15_6 1_555 1_555
N1_6 C13_6 1_555 1_555
N3_6 C18_6 1_555 1_555
O13 C8_6 1_555 1_555
O16_4 C8_6 1_555 1_555
C25_6 H21_6 1_555 1_555
C26_6 C25_6 1_555 1_555
H22_6 C26_6 1_555 1_555
C27_6 C26_6 1_555 1_555
C28_6 C27_6 1_555 1_555
H23_6 C28_6 1_555 1_555
C29_6 C28_6 1_555 1_555
H24_6 C29_6 1_555 1_555
C30_6 C27_6 1_555 1_555
N13_3 C25_6 1_555 1_555
N6_6 C18_6 1_555 1_555
C31_6 H25_6 1_555 1_555
C32_6 C31_6 1_555 1_555
H26_6 C32_6 1_555 1_555
C33_6 C32_6 1_555 1_555
C34_6 C33_6 1_555 1_555
H27_6 C34_6 1_555 1_555
C35_6 C34_6 1_555 1_555
H28_6 C35_6 1_555 1_555
C36_6 N3_6 1_555 1_555
N14_3 C31_6 1_555 1_555
N8_6 C30_6 1_555 1_555
C6_6 C7_6 1_555 1_555
C17_6 N1_6 1_555 1_555
C29_6 N13_3 1_555 1_555
C30_6 N6_6 1_555 1_555
C33_6 C36_6 1_555 1_555
C35_6 N14_3 1_555 1_555
C36_6 N8_6 1_555 1_555

#END
