
###############################################################################
#
# This file contains modified crystal structure data generated from the
# MOF subset of the Cambridge Structural Database (CSD) v543 
# hosted by the Cambridge Crystallographic Data Centre (CCDC).
#
# This work is licensed under the Creative Commons
# Attribution-NonCommercial-ShareAlike 4.0 International License.
# To view a copy of this license, visit
# http://creativecommons.org/licenses/by-nc-sa/4.0/
# or send a letter to
# Creative Commons, PO Box 1866, Mountain View, CA 94042, USA.
#
# CIF created using the CSD Python API on 29 September 2022
# The structure has been converted into the P1 space group
# The structure has a 3D framework
# The original CSD entry NAYKAB is in the tetragonal crystal system
# The framework has been calculated to contain at least 10.0% void space
# The void calculation uses a probe of radius 1.32A, grid spacing 0.4
# The framework is charged, counterions have been retained in the structure
# H atom positions have been added when not included in the experimental data
#
###############################################################################

data_NAYKAB
_chemical_formula_moiety         '(C768 H416 Cd16 Fe16 N64 O132 20-)n'
_symmetry_cell_setting           triclinic
_symmetry_space_group_name_H-M   'P 1'
_symmetry_Int_Tables_number      1
_space_group_name_Hall           'P 1'
loop_
_symmetry_equiv_pos_site_id
_symmetry_equiv_pos_as_xyz
1 x,y,z
_cell_length_a                   18.967(2)
_cell_length_b                   18.967(2)
_cell_length_c                   61.245(15)
_cell_angle_alpha                90
_cell_angle_beta                 90
_cell_angle_gamma                90
_cell_volume                     22032.7
loop_
_atom_site_label
_atom_site_type_symbol
_atom_site_fract_x
_atom_site_fract_y
_atom_site_fract_z
C4 C 0.0563(12) 0.5944(10) 0.0472(3)
H2 H 0.0956 0.5784 0.0555
C5 C 0.0503(11) 0.5937(9) 0.0240(3)
C6 C 0.1005(10) 0.5669(9) 0.0095(3)
C28 C 0.1692(11) 0.5420(10) 0.0187(3)
C29 C 0.1700(11) 0.4839(9) 0.0337(3)
H13 H 0.1280 0.4587 0.0369
C30 C 0.2320(12) 0.4657(10) 0.0432(3)
H14 H 0.2330 0.4278 0.0533
C31 C 0.2944(11) 0.5016(11) 0.0383(3)
C32 C 0.2931(12) 0.5541(12) 0.0231(3)
H15 H 0.3360 0.5765 0.0192
C33 C 0.2314(11) 0.5758(11) 0.0132(4)
H16 H 0.2316 0.6130 0.0028
C34 C 0.3602(12) 0.4828(13) 0.0513(4)
O3 O 0.3581(7) 0.4467(7) 0.0677(2)
O4 O 0.4159(9) 0.5095(11) 0.0443(3)
Cd3 Cd 0.47234(8) 0.47938(8) 0.07834(2)
C7 C 0.0929(11) 0.5632(9) 0.9866(3)
C8 C 0.1372(10) 0.5268(9) 0.9720(4)
H3 H 0.1766 0.4986 0.9759
C9 C 0.1149(11) 0.5385(10) 0.9516(3)
H4 H 0.1353 0.5209 0.9386
C10 C 0.0524(9) 0.5840(8) 0.9535(3)
C11 C 0.0154(10) 0.6084(9) 0.9354(3)
C42 C 0.0475(12) 0.5907(10) 0.9133(3)
C43 C 0.1126(12) 0.6176(11) 0.9074(4)
H21 H 0.1346 0.6514 0.9166
C44 C 0.1458(11) 0.5968(12) 0.8888(4)
H22 H 0.1892 0.6179 0.8847
C45 C 0.1164(13) 0.5450(12) 0.8760(3)
C46 C 0.0496(14) 0.5215(11) 0.8807(3)
H23 H 0.0271 0.4898 0.8709
C47 C 0.0136(11) 0.5430(11) 0.8997(4)
C48 C 0.1573(16) 0.5164(14) 0.8566(3)
N3 N 0.0395(8) 0.5974(7) 0.9749(3)
O7 O 0.0000 0.7500 0.9891(2)
O8 O 0.1251(8) 0.4664(8) 0.8459(2)
O9 O 0.2140(10) 0.5377(9) 0.8521(3)
Fe3 Fe 0.03684(14) 0.83538(14) 0.98764(4)
H49 H 0.246561 0.529453 0.864537
C1 C 0.8855(17) 0.6654(13) 0.0383(4)
C2 C 0.9538(10) 0.6369(9) 0.0370(3)
C3 C 0.9970(12) 0.6217(11) 0.0554(3)
H1 H 0.9859 0.6293 0.0704
C18 C 0.7533(10) 0.7306(10) 0.0021(3)
C19 C 0.7740(10) 0.7163(9) 0.0221(4)
H8 H 0.7485 0.7248 0.0352
C20 C 0.8417(10) 0.6856(10) 0.0202(3)
C21 C 0.8586(15) 0.6789(13) 0.0610(4)
C22 C 0.8215(14) 0.6285(13) 0.0715(3)
H9 H 0.8103 0.5863 0.0639
C23 C 0.7989(14) 0.6360(13) 0.0931(3)
H10 H 0.7729 0.6001 0.1003
C24 C 0.8166(15) 0.6988(13) 0.1035(4)
C25 C 0.8419(14) 0.7512(13) 0.0918(4)
H11 H 0.8435 0.7976 0.0976
C26 C 0.8655(14) 0.7380(13) 0.0713(3)
H12 H 0.8892 0.7752 0.0640
C27 C 0.7974(18) 0.7055(14) 0.1294(5)
Cd1 Cd 0.77062(8) 0.72234(8) 0.17166(2)
N2 N 0.9867(8) 0.6212(7) 0.0180(2)
O1 O 0.7612(14) 0.6618(16) 0.1369(4)
O2 O 0.8030(15) 0.7617(13) 0.1362(3)
C49 C 0.5846(13) 0.1355(17) 0.2117(4)
C50 C 0.6131(9) 0.2038(10) 0.2130(3)
C51 C 0.6283(11) 0.2470(12) 0.1946(3)
H25 H 0.6207 0.2359 0.1796
C52 C 0.6556(10) 0.3063(12) 0.2028(3)
H26 H 0.6716 0.3456 0.1945
C53 C 0.6563(9) 0.3003(11) 0.2260(3)
C54 C 0.6831(9) 0.3505(10) 0.2405(3)
C55 C 0.6868(9) 0.3429(11) 0.2634(3)
C56 C 0.7232(9) 0.3872(10) 0.2780(4)
H27 H 0.7514 0.4266 0.2741
C57 C 0.7115(10) 0.3649(11) 0.2984(3)
H28 H 0.7291 0.3853 0.3114
C58 C 0.6660(8) 0.3024(9) 0.2965(3)
C59 C 0.6416(9) 0.2654(10) 0.3146(3)
C60 C 0.6036(9) 0.2047(10) 0.3130(3)
C61 C 0.5769(10) 0.1632(12) 0.3308(3)
H29 H 0.5808 0.1748 0.3458
C62 C 0.5459(10) 0.1061(10) 0.3228(3)
H30 H 0.5240 0.0697 0.3310
C63 C 0.5516(9) 0.1097(10) 0.2992(3)
C64 C 0.5306(9) 0.0573(10) 0.2851(3)
C65 C 0.5407(10) 0.0554(10) 0.2628(4)
C66 C 0.5194(10) 0.0033(10) 0.2479(3)
C67 C 0.5337(9) 0.0240(10) 0.2279(4)
C68 C 0.5644(10) 0.0917(10) 0.2298(3)
C69 C 0.5711(13) 0.1086(15) 0.1890(4)
C70 C 0.6215(13) 0.0715(14) 0.1785(3)
H33 H 0.6637 0.0603 0.1861
C71 C 0.6140(13) 0.0489(14) 0.1569(3)
H34 H 0.6499 0.0229 0.1497
C72 C 0.5512(13) 0.0666(15) 0.1465(4)
C73 C 0.4988(13) 0.0919(14) 0.1582(4)
H35 H 0.4524 0.0935 0.1524
C74 C 0.5120(13) 0.1155(14) 0.1787(3)
H36 H 0.4748 0.1392 0.1860
C75 C 0.5445(14) 0.0474(18) 0.1206(5)
C76 C 0.7080(10) 0.4192(11) 0.2313(3)
C77 C 0.7661(9) 0.4200(11) 0.2163(3)
H37 H 0.7913 0.3780 0.2131
C78 C 0.7843(10) 0.4820(12) 0.2068(3)
H38 H 0.8222 0.4830 0.1967
C79 C 0.7484(11) 0.5444(11) 0.2117(3)
C80 C 0.6959(12) 0.5431(12) 0.2269(3)
H39 H 0.6735 0.5860 0.2308
C81 C 0.6742(11) 0.4814(11) 0.2368(4)
H40 H 0.6370 0.4816 0.2472
C82 C 0.7672(13) 0.6102(12) 0.1987(4)
C88 C 0.4180(12) 0.0022(10) 0.2971(3)
H44 H 0.3960 0.0465 0.2946
C90 C 0.6593(10) 0.2975(12) 0.3367(3)
C91 C 0.6324(11) 0.3626(12) 0.3426(4)
H45 H 0.5986 0.3846 0.3334
C92 C 0.6532(12) 0.3958(11) 0.3612(4)
H46 H 0.6321 0.4392 0.3653
C93 C 0.7050(12) 0.3664(13) 0.3740(3)
C94 C 0.7285(11) 0.2996(14) 0.3693(3)
H47 H 0.7602 0.2771 0.3791
C95 C 0.7070(11) 0.2636(11) 0.3503(4)
H48 H 0.7245 0.2179 0.3470
C96 C 0.7336(14) 0.4073(16) 0.3934(3)
Cd2 Cd 0.52766(8) 0.02062(8) 0.07834(2)
Fe2 Fe 0.58538(14) 0.21316(14) 0.26236(4)
N5 N 0.5699(7) 0.1122(8) 0.2508(2)
N6 N 0.6288(7) 0.2367(8) 0.2320(2)
N7 N 0.6526(7) 0.2895(8) 0.2751(3)
N8 N 0.5861(7) 0.1698(8) 0.2937(2)
O10 O 0.5882(16) 0.0112(14) 0.1131(4)
O11 O 0.4883(13) 0.0530(15) 0.1138(3)
O12 O 0.8033(7) 0.6081(7) 0.1823(2)
O13 O 0.6419(7) 0.0533(7) 0.0677(2)
O14 O 0.7405(11) 0.6659(9) 0.2057(3)
O17 O 0.8957(8) 0.7627(8) 0.1796(2)
O18 O 0.4873(8) 0.1457(8) 0.0704(2)
O20 O 0.8010(10) 0.8245(7) 0.1875(2)
O21 O 0.4255(7) 0.0510(10) 0.0625(2)
O22 O 0.5000 0.2500 0.2609(2)
O23 O 0.7836(8) 0.3751(8) 0.4041(2)
O24 O 0.7123(9) 0.4640(10) 0.3979(3)
H50 H 0.660988 0.461322 0.40101
C12 C 0.9547(10) 0.6464(9) 0.9370(3)
C13 C 0.9132(12) 0.6731(10) 0.9192(3)
H5 H 0.9248 0.6692 0.9042
C14 C 0.8561(10) 0.7041(10) 0.9272(3)
H6 H 0.8197 0.7260 0.9190
C15 C 0.8597(10) 0.6984(9) 0.9508(3)
C16 C 0.8073(10) 0.7194(9) 0.9649(3)
C17 C 0.8054(10) 0.7093(10) 0.9872(4)
H7 H 0.7097 0.7521 0.9983
C35 C 0.7458(9) 0.7614(12) 0.9563(3)
C36 C 0.6805(12) 0.7270(11) 0.9527(3)
H17 H 0.6756 0.6777 0.9548
C37 C 0.6239(10) 0.7678(12) 0.9458(3)
H18 H 0.5794 0.7464 0.9432
C38 C 0.6321(12) 0.8385(11) 0.9428(3)
C39 C 0.6974(12) 0.8717(11) 0.9461(3)
H19 H 0.7029 0.9208 0.9436
C40 C 0.7522(10) 0.8320(12) 0.9529(3)
H20 H 0.7965 0.8540 0.9554
C41 C 0.5674(13) 0.8837(14) 0.9362(3)
H24 H 0.9679 0.5255 0.9030
Fe1 Fe 0.96316(14) 0.66462(14) 0.98764(4)
N1 N 0.8622(8) 0.6801(7) 0.9992(2)
N4 N 0.9198(8) 0.6639(7) 0.9563(2)
O5 O 0.5127(8) 0.8543(8) 0.9296(2)
O6 O 0.5745(7) 0.9490(10) 0.9375(2)
O7_2 O 1.0000 0.7500 0.9891(2)
Cd4 Cd 0.47234(8) 0.97938(8) 0.92166(2)
H31 H 0.4979 0.9597 0.2517
H32 H 0.5252 0.9985 0.2148
C83 C 0.4886(12) 0.9958(9) 0.2937(3)
C84 C 0.5230(11) 0.9305(12) 0.2973(3)
H41 H 0.5723 0.9256 0.2952
C85 C 0.4822(12) 0.8739(10) 0.3042(3)
H42 H 0.5036 0.8294 0.3068
C86 C 0.4115(11) 0.8821(12) 0.3072(3)
C87 C 0.3783(11) 0.9474(12) 0.3039(3)
H43 H 0.3292 0.9529 0.3064
C89 C 0.3663(14) 0.8174(13) 0.3138(3)
Cd5 Cd 0.27062(8) 0.72234(8) 0.32834(2)
O15 O 0.5841(9) 0.9905(11) 0.0443(3)
O16 O 0.3957(8) 0.7627(8) 0.3204(2)
O19 O 0.3010(10) 0.8245(7) 0.3125(2)
H31_2 H 0.0021 0.0403 0.7517
C83_2 C 0.0114(12) 0.0042(9) 0.7937(3)
C85_2 C 0.0178(12) 0.1261(10) 0.8042(3)
C86_2 C 0.0885(11) 0.1179(12) 0.8072(3)
C87_2 C 0.1217(11) 0.0526(12) 0.8039(3)
H43_2 H 0.1708 0.0471 0.8064
C89_2 C 0.1337(14) 0.1826(13) 0.8138(3)
Cd5_2 Cd 0.22938(8) 0.27766(8) 0.82834(2)
O16_2 O 0.1043(8) 0.2373(8) 0.8204(2)
O19_2 O 0.1990(10) 0.1755(7) 0.8125(2)
C73_2 C 0.0012(13) 0.9081(14) 0.6582(4)
H35_2 H 0.0476 0.9065 0.6524
H36_2 H 0.0252 0.8608 0.6860
C88_2 C 0.0820(12) 0.9978(10) 0.7971(3)
H44_2 H 0.1040 0.9535 0.7946
Cd4_2 Cd 0.02766(8) 0.02062(8) 0.42166(2)
O11_2 O 0.0117(13) 0.9470(15) 0.6138(3)
O18_2 O 0.0127(8) 0.8543(8) 0.5704(2)
O21_2 O 0.0745(7) 0.9490(10) 0.5625(2)
O22_2 O 0.0000 0.7500 0.7609(2)
H32_2 H 0.9748 0.0015 0.7148
C84_2 C 0.9770(11) 0.0695(12) 0.7973(3)
H41_2 H 0.9277 0.0744 0.7952
H42_2 H 0.9964 0.1706 0.8068
O15_2 O 0.9159(9) 0.0095(11) 0.5443(3)
C1_2 C 0.6145(17) 0.3346(13) 0.5383(4)
C2_2 C 0.5462(10) 0.3631(9) 0.5370(3)
C3_2 C 0.5030(12) 0.3783(11) 0.5554(3)
H1_2 H 0.5141 0.3707 0.5704
C4_2 C 0.4437(12) 0.4056(10) 0.5472(3)
H2_2 H 0.4044 0.4216 0.5555
C5_2 C 0.4497(11) 0.4063(9) 0.5240(3)
C6_2 C 0.3995(10) 0.4331(9) 0.5095(3)
C7_2 C 0.4071(11) 0.4368(9) 0.4866(3)
C8_2 C 0.3628(10) 0.4732(9) 0.4720(4)
H3_2 H 0.3234 0.5014 0.4759
C9_2 C 0.3851(11) 0.4615(10) 0.4516(3)
H4_2 H 0.3647 0.4791 0.4386
C10_2 C 0.4476(9) 0.4160(8) 0.4535(3)
C11_2 C 0.4846(10) 0.3916(9) 0.4354(3)
C12_2 C 0.5453(10) 0.3536(9) 0.4370(3)
C13_2 C 0.5868(12) 0.3269(10) 0.4192(3)
H5_2 H 0.5752 0.3308 0.4042
C14_2 C 0.6439(10) 0.2959(10) 0.4272(3)
H6_2 H 0.6803 0.2740 0.4190
C15_2 C 0.6403(10) 0.3016(9) 0.4508(3)
C16_2 C 0.6927(10) 0.2806(9) 0.4649(3)
C17_2 C 0.6946(10) 0.2907(10) 0.4872(4)
C18_2 C 0.7467(10) 0.2694(10) 0.5021(3)
H7_2 H 0.7903 0.2479 0.4983
C19_2 C 0.7260(10) 0.2837(9) 0.5221(4)
H8_2 H 0.7515 0.2752 0.5352
C20_2 C 0.6583(10) 0.3144(10) 0.5202(3)
C21_2 C 0.6414(15) 0.3211(13) 0.5610(4)
C22_2 C 0.6785(14) 0.3715(13) 0.5715(3)
H9_2 H 0.6897 0.4137 0.5639
C23_2 C 0.7011(14) 0.3640(13) 0.5931(3)
H10_2 H 0.7271 0.3999 0.6003
C24_2 C 0.6834(15) 0.3012(13) 0.6035(4)
C25_2 C 0.6581(14) 0.2488(13) 0.5918(4)
H11_2 H 0.6565 0.2024 0.5976
C26_2 C 0.6345(14) 0.2620(13) 0.5713(3)
H12_2 H 0.6108 0.2248 0.5640
C27_2 C 0.7026(18) 0.2945(14) 0.6294(5)
C28_2 C 0.3308(11) 0.4580(10) 0.5187(3)
C29_2 C 0.3300(11) 0.5161(9) 0.5337(3)
H13_2 H 0.3720 0.5413 0.5369
C30_2 C 0.2680(12) 0.5343(10) 0.5432(3)
H14_2 H 0.2670 0.5722 0.5533
C31_2 C 0.2056(11) 0.4984(11) 0.5383(3)
C32_2 C 0.2069(12) 0.4459(12) 0.5231(3)
H15_2 H 0.1640 0.4235 0.5192
C33_2 C 0.2686(11) 0.4242(11) 0.5132(4)
H16_2 H 0.2684 0.3870 0.5028
C34_2 C 0.1398(12) 0.5172(13) 0.5513(4)
C35_2 C 0.7542(9) 0.2386(12) 0.4563(3)
C36_2 C 0.8195(12) 0.2730(11) 0.4527(3)
H17_2 H 0.8244 0.3223 0.4548
C37_2 C 0.8761(10) 0.2322(12) 0.4458(3)
H18_2 H 0.9206 0.2536 0.4432
C38_2 C 0.8679(12) 0.1615(11) 0.4428(3)
C39_2 C 0.8026(12) 0.1283(11) 0.4461(3)
H19_2 H 0.7971 0.0792 0.4436
C40_2 C 0.7478(10) 0.1680(12) 0.4529(3)
H20_2 H 0.7035 0.1460 0.4554
C41_2 C 0.9326(13) 0.1163(14) 0.4362(3)
C42_2 C 0.4525(12) 0.4093(10) 0.4133(3)
C43_2 C 0.3874(12) 0.3824(11) 0.4074(4)
H21_2 H 0.3654 0.3486 0.4166
C44_2 C 0.3542(11) 0.4032(12) 0.3888(4)
H22_2 H 0.3108 0.3821 0.3847
C45_2 C 0.3836(13) 0.4550(12) 0.3760(3)
C46_2 C 0.4504(14) 0.4785(11) 0.3807(3)
H23_2 H 0.4729 0.5102 0.3709
C47_2 C 0.4864(11) 0.4570(11) 0.3997(4)
H24_2 H 0.5321 0.4745 0.4030
C48_2 C 0.3427(16) 0.4836(14) 0.3566(3)
Cd1_2 Cd 0.72938(8) 0.27766(8) 0.67166(2)
Fe1_2 Fe 0.53684(14) 0.33538(14) 0.48764(4)
N1_2 N 0.6378(8) 0.3199(7) 0.4992(2)
N2_2 N 0.5133(8) 0.3788(7) 0.5180(2)
N3_2 N 0.4605(8) 0.4026(7) 0.4749(3)
N4_2 N 0.5802(8) 0.3361(7) 0.4563(2)
O1_2 O 0.7388(14) 0.3382(16) 0.6369(4)
O2_2 O 0.6970(15) 0.2383(13) 0.6362(3)
O3_2 O 0.1419(7) 0.5533(7) 0.5677(2)
O4_2 O 0.0841(9) 0.4905(11) 0.5443(3)
O5_2 O 0.9873(8) 0.1457(8) 0.4296(2)
O6_2 O 0.9255(7) 0.0510(10) 0.4375(2)
O7_3 O 0.5000 0.2500 0.4891(2)
O8_2 O 0.3749(8) 0.5336(8) 0.3459(2)
O9_2 O 0.2860(10) 0.4623(9) 0.3521(3)
C49_2 C 0.9154(13) 0.8645(17) 0.7117(4)
C50_2 C 0.8869(9) 0.7962(10) 0.7130(3)
C51_2 C 0.8717(11) 0.7530(12) 0.6946(3)
H25_2 H 0.8793 0.7641 0.6796
C52_2 C 0.8444(10) 0.6937(12) 0.7028(3)
H26_2 H 0.8284 0.6544 0.6945
C53_2 C 0.8437(9) 0.6997(11) 0.7260(3)
C54_2 C 0.8169(9) 0.6495(10) 0.7405(3)
C55_2 C 0.8132(9) 0.6571(11) 0.7634(3)
C56_2 C 0.7768(9) 0.6128(10) 0.7780(4)
H27_2 H 0.7486 0.5734 0.7741
C57_2 C 0.7885(10) 0.6351(11) 0.7984(3)
H28_2 H 0.7709 0.6147 0.8114
C58_2 C 0.8340(8) 0.6976(9) 0.7965(3)
C59_2 C 0.8584(9) 0.7346(10) 0.8146(3)
C60_2 C 0.8964(9) 0.7953(10) 0.8130(3)
C61_2 C 0.9231(10) 0.8368(12) 0.8308(3)
H29_2 H 0.9192 0.8252 0.8458
C62_2 C 0.9541(10) 0.8939(10) 0.8228(3)
H30_2 H 0.9760 0.9303 0.8310
C63_2 C 0.9484(9) 0.8903(10) 0.7992(3)
C64_2 C 0.9694(9) 0.9427(10) 0.7851(3)
C65_2 C 0.9593(10) 0.9446(10) 0.7628(4)
C66_2 C 0.9806(10) 0.9967(10) 0.7479(3)
C67_2 C 0.9663(9) 0.9760(10) 0.7279(4)
C68_2 C 0.9356(10) 0.9083(10) 0.7298(3)
C69_2 C 0.9289(13) 0.8914(15) 0.6890(4)
C70_2 C 0.8785(13) 0.9285(14) 0.6785(3)
H33_2 H 0.8363 0.9397 0.6861
C71_2 C 0.8860(13) 0.9511(14) 0.6569(3)
H34_2 H 0.8501 0.9771 0.6497
C72_2 C 0.9488(13) 0.9334(15) 0.6465(4)
C74_2 C 0.9880(13) 0.8845(14) 0.6787(3)
C75_2 C 0.9555(14) 0.9526(18) 0.6206(5)
C76_2 C 0.7920(10) 0.5808(11) 0.7313(3)
C77_2 C 0.7339(9) 0.5800(11) 0.7163(3)
H37_2 H 0.7087 0.6220 0.7131
C78_2 C 0.7157(10) 0.5180(12) 0.7068(3)
H38_2 H 0.6778 0.5170 0.6967
C79_2 C 0.7516(11) 0.4556(11) 0.7117(3)
C80_2 C 0.8041(12) 0.4569(12) 0.7269(3)
H39_2 H 0.8265 0.4140 0.7308
C81_2 C 0.8258(11) 0.5186(11) 0.7368(4)
H40_2 H 0.8630 0.5184 0.7472
C82_2 C 0.7328(13) 0.3898(12) 0.6987(4)
C90_2 C 0.8407(10) 0.7025(12) 0.8367(3)
C91_2 C 0.8676(11) 0.6374(12) 0.8426(4)
H45_2 H 0.9014 0.6154 0.8334
C92_2 C 0.8468(12) 0.6042(11) 0.8612(4)
H46_2 H 0.8679 0.5608 0.8653
C93_2 C 0.7950(12) 0.6336(13) 0.8740(3)
C94_2 C 0.7715(11) 0.7004(14) 0.8693(3)
H47_2 H 0.7398 0.7229 0.8791
C95_2 C 0.7930(11) 0.7364(11) 0.8503(4)
H48_2 H 0.7755 0.7821 0.8470
C96_2 C 0.7664(14) 0.5927(16) 0.8934(3)
Cd2_2 Cd 0.97234(8) 0.97938(8) 0.57834(2)
Cd3_2 Cd 0.02766(8) 0.52062(8) 0.57834(2)
Fe2_2 Fe 0.91462(14) 0.78684(14) 0.76236(4)
Fe3_2 Fe 0.46316(14) 0.16462(14) 0.48764(4)
N5_2 N 0.9301(7) 0.8878(8) 0.7508(2)
N6_2 N 0.8712(7) 0.7633(8) 0.7320(2)
N7_2 N 0.8474(7) 0.7105(8) 0.7751(3)
N8_2 N 0.9139(7) 0.8302(8) 0.7937(2)
O10_2 O 0.9118(16) 0.9888(14) 0.6131(4)
O12_2 O 0.6967(7) 0.3919(7) 0.6823(2)
O13_2 O 0.8581(7) 0.9467(7) 0.5677(2)
O14_2 O 0.7595(11) 0.3341(9) 0.7057(3)
O17_2 O 0.6043(8) 0.2373(8) 0.6796(2)
O20_2 O 0.6990(10) 0.1755(7) 0.6875(2)
O22_3 O 1.0000 0.7500 0.7609(2)
O23_2 O 0.7164(8) 0.6249(8) 0.9041(2)
O24_2 O 0.7877(9) 0.5360(10) 0.8979(3)
H49_2 H 0.253439 0.470547 0.364537
H50_2 H 0.839012 0.538678 0.90101
C1_3 C 0.0846(13) 0.1355(17) 0.2883(4)
C2_3 C 0.1131(9) 0.2038(10) 0.2870(3)
C3_3 C 0.1283(11) 0.2470(12) 0.3054(3)
H1_3 H 0.1207 0.2359 0.3204
C4_3 C 0.1556(10) 0.3063(12) 0.2972(3)
H2_3 H 0.1716 0.3456 0.3055
C5_3 C 0.1563(9) 0.3003(11) 0.2740(3)
C6_3 C 0.1831(9) 0.3505(10) 0.2595(3)
C7_3 C 0.1868(9) 0.3429(11) 0.2366(3)
C8_3 C 0.2232(9) 0.3872(10) 0.2220(4)
H3_3 H 0.2514 0.4266 0.2259
C9_3 C 0.2115(10) 0.3649(11) 0.2016(3)
H4_3 H 0.2291 0.3853 0.1886
C10_3 C 0.1660(8) 0.3024(9) 0.2035(3)
C11_3 C 0.1416(9) 0.2654(10) 0.1854(3)
C12_3 C 0.1036(9) 0.2047(10) 0.1870(3)
C13_3 C 0.0769(10) 0.1632(12) 0.1692(3)
H5_3 H 0.0808 0.1748 0.1542
C14_3 C 0.0459(10) 0.1061(10) 0.1772(3)
H6_3 H 0.0240 0.0697 0.1690
C15_3 C 0.0516(9) 0.1097(10) 0.2008(3)
C16_3 C 0.0306(9) 0.0573(10) 0.2149(3)
C17_3 C 0.0407(10) 0.0554(10) 0.2372(4)
C18_3 C 0.0194(10) 0.0033(10) 0.2521(3)
C19_3 C 0.0337(9) 0.0240(10) 0.2721(4)
C20_3 C 0.0644(10) 0.0917(10) 0.2702(3)
C21_3 C 0.0711(13) 0.1086(15) 0.3110(4)
C22_3 C 0.1215(13) 0.0715(14) 0.3215(3)
H9_3 H 0.1637 0.0603 0.3139
C23_3 C 0.1140(13) 0.0489(14) 0.3431(3)
H10_3 H 0.1499 0.0229 0.3503
C24_3 C 0.0512(13) 0.0666(15) 0.3535(4)
C26_3 C 0.0120(13) 0.1155(14) 0.3213(3)
C27_3 C 0.0445(14) 0.0474(18) 0.3794(5)
C28_3 C 0.2080(10) 0.4192(11) 0.2687(3)
C29_3 C 0.2661(9) 0.4200(11) 0.2837(3)
H13_3 H 0.2913 0.3780 0.2869
C30_3 C 0.2843(10) 0.4820(12) 0.2932(3)
H14_3 H 0.3222 0.4830 0.3033
C31_3 C 0.2484(11) 0.5444(11) 0.2883(3)
C32_3 C 0.1959(12) 0.5431(12) 0.2731(3)
H15_3 H 0.1735 0.5860 0.2692
C33_3 C 0.1742(11) 0.4814(11) 0.2632(4)
H16_3 H 0.1370 0.4816 0.2528
C34_3 C 0.2672(13) 0.6102(12) 0.3013(4)
C42_3 C 0.1593(10) 0.2975(12) 0.1633(3)
C43_3 C 0.1324(11) 0.3626(12) 0.1574(4)
H21_3 H 0.0986 0.3846 0.1666
C44_3 C 0.1532(12) 0.3958(11) 0.1388(4)
H22_3 H 0.1321 0.4392 0.1347
C45_3 C 0.2050(12) 0.3664(13) 0.1260(3)
C46_3 C 0.2285(11) 0.2996(14) 0.1307(3)
H23_3 H 0.2602 0.2771 0.1209
C47_3 C 0.2070(11) 0.2636(11) 0.1497(4)
H24_3 H 0.2245 0.2179 0.1530
C48_3 C 0.2336(14) 0.4073(16) 0.1066(3)
Fe1_3 Fe 0.08538(14) 0.21316(14) 0.23764(4)
N1_3 N 0.0699(7) 0.1122(8) 0.2492(2)
N2_3 N 0.1288(7) 0.2367(8) 0.2680(2)
N3_3 N 0.1526(7) 0.2895(8) 0.2249(3)
N4_3 N 0.0861(7) 0.1698(8) 0.2063(2)
O1_3 O 0.0882(16) 0.0112(14) 0.3869(4)
O3_3 O 0.3033(7) 0.6081(7) 0.3177(2)
O4_3 O 0.2405(11) 0.6659(9) 0.2943(3)
O7_4 O 0.0000 0.2500 0.2391(2)
O8_3 O 0.2836(8) 0.3751(8) 0.0959(2)
O9_3 O 0.2123(9) 0.4640(10) 0.1021(3)
H27_3 H 0.3234 0.0014 0.5241
C77_3 C 0.3300(11) 0.0161(9) 0.4663(3)
H37_3 H 0.3720 0.0413 0.4631
C78_3 C 0.2680(12) 0.0343(10) 0.4568(3)
H38_3 H 0.2670 0.0722 0.4467
C82_3 C 0.1398(12) 0.0172(13) 0.4487(4)
H47_3 H 0.4729 0.0102 0.6291
O12_3 O 0.1419(7) 0.0533(7) 0.4323(2)
O23_3 O 0.3749(8) 0.0336(8) 0.6541(2)
H49_3 H 0.220547 0.496561 0.114537
H8_3 H 0.0252 0.9985 0.2852
C36_3 C 0.0230(11) 0.9305(12) 0.2027(3)
H17_3 H 0.0723 0.9256 0.2048
H18_3 H 0.0036 0.8294 0.1932
C49_3 C 0.6145(17) 0.8346(13) 0.4617(4)
C50_3 C 0.5462(10) 0.8631(9) 0.4630(3)
C51_3 C 0.5030(12) 0.8783(11) 0.4446(3)
H25_3 H 0.5141 0.8707 0.4296
C52_3 C 0.4437(12) 0.9056(10) 0.4528(3)
H26_3 H 0.4044 0.9216 0.4445
C53_3 C 0.4497(11) 0.9063(9) 0.4760(3)
C54_3 C 0.3995(10) 0.9331(9) 0.4905(3)
C55_3 C 0.4071(11) 0.9368(9) 0.5134(3)
C56_3 C 0.3628(10) 0.9732(9) 0.5280(4)
C57_3 C 0.3851(11) 0.9615(10) 0.5484(3)
H28_3 H 0.3647 0.9791 0.5614
C58_3 C 0.4476(9) 0.9160(8) 0.5465(3)
C59_3 C 0.4846(10) 0.8916(9) 0.5646(3)
C60_3 C 0.5453(10) 0.8536(9) 0.5630(3)
C61_3 C 0.5868(12) 0.8269(10) 0.5808(3)
H29_3 H 0.5752 0.8308 0.5958
C62_3 C 0.6439(10) 0.7959(10) 0.5728(3)
H30_3 H 0.6803 0.7740 0.5810
C63_3 C 0.6403(10) 0.8016(9) 0.5492(3)
C64_3 C 0.6927(10) 0.7806(9) 0.5351(3)
C65_3 C 0.6946(10) 0.7907(10) 0.5128(4)
C66_3 C 0.7467(10) 0.7694(10) 0.4979(3)
H31_3 H 0.7903 0.7479 0.5017
C67_3 C 0.7260(10) 0.7837(9) 0.4779(4)
H32_3 H 0.7515 0.7752 0.4648
C68_3 C 0.6583(10) 0.8144(10) 0.4798(3)
C69_3 C 0.6414(15) 0.8211(13) 0.4390(4)
C70_3 C 0.6785(14) 0.8715(13) 0.4285(3)
H33_3 H 0.6897 0.9137 0.4361
C71_3 C 0.7011(14) 0.8640(13) 0.4069(3)
H34_3 H 0.7271 0.8999 0.3997
C72_3 C 0.6834(15) 0.8012(13) 0.3965(4)
C73_3 C 0.6581(14) 0.7488(13) 0.4082(4)
H35_3 H 0.6565 0.7024 0.4024
C74_3 C 0.6345(14) 0.7620(13) 0.4287(3)
H36_3 H 0.6108 0.7248 0.4360
C75_3 C 0.7026(18) 0.7945(14) 0.3706(5)
C76_3 C 0.3308(11) 0.9580(10) 0.4813(3)
C79_3 C 0.2056(11) 0.9984(11) 0.4617(3)
C80_3 C 0.2069(12) 0.9459(12) 0.4769(3)
H39_3 H 0.1640 0.9235 0.4808
C81_3 C 0.2686(11) 0.9242(11) 0.4868(4)
H40_3 H 0.2684 0.8870 0.4972
C83_3 C 0.7542(9) 0.7386(12) 0.5437(3)
C84_3 C 0.8195(12) 0.7730(11) 0.5473(3)
H41_3 H 0.8244 0.8223 0.5452
C85_3 C 0.8761(10) 0.7322(12) 0.5542(3)
H42_3 H 0.9206 0.7536 0.5568
C86_3 C 0.8679(12) 0.6615(11) 0.5572(3)
C87_3 C 0.8026(12) 0.6283(11) 0.5539(3)
H43_3 H 0.7971 0.5792 0.5564
C88_3 C 0.7478(10) 0.6680(12) 0.5471(3)
H44_3 H 0.7035 0.6460 0.5446
C89_3 C 0.9326(13) 0.6163(14) 0.5638(3)
C90_3 C 0.4525(12) 0.9093(10) 0.5867(3)
C91_3 C 0.3874(12) 0.8824(11) 0.5926(4)
H45_3 H 0.3654 0.8486 0.5834
C92_3 C 0.3542(11) 0.9032(12) 0.6112(4)
H46_3 H 0.3108 0.8821 0.6153
C93_3 C 0.3836(13) 0.9550(12) 0.6240(3)
C94_3 C 0.4504(14) 0.9785(11) 0.6193(3)
C95_3 C 0.4864(11) 0.9570(11) 0.6003(4)
H48_3 H 0.5321 0.9745 0.5970
C96_3 C 0.3427(16) 0.9836(14) 0.6434(3)
Cd2_3 Cd 0.72938(8) 0.77766(8) 0.32834(2)
Fe2_3 Fe 0.53684(14) 0.83538(14) 0.51236(4)
N5_3 N 0.6378(8) 0.8199(7) 0.5008(2)
N6_3 N 0.5133(8) 0.8788(7) 0.4820(2)
N7_3 N 0.4605(8) 0.9026(7) 0.5251(3)
N8_3 N 0.5802(8) 0.8361(7) 0.5437(2)
O10_3 O 0.7388(14) 0.8382(16) 0.3631(4)
O11_3 O 0.6970(15) 0.7383(13) 0.3638(3)
O13_3 O 0.6967(7) 0.8919(7) 0.3177(2)
O14_3 O 0.0841(9) 0.9905(11) 0.4557(3)
O15_3 O 0.7595(11) 0.8341(9) 0.2943(3)
O16_3 O 0.9873(8) 0.6457(8) 0.5704(2)
O18_3 O 0.6043(8) 0.7373(8) 0.3204(2)
O19_3 O 0.9255(7) 0.5510(10) 0.5625(2)
O21_3 O 0.6990(10) 0.6755(7) 0.3125(2)
O22_4 O 0.5000 0.7500 0.5109(2)
O24_3 O 0.2860(10) 0.9623(9) 0.6479(3)
H50_3 H 0.288678 0.910988 0.65101
C25_3 C 0.9988(13) 0.0919(14) 0.3418(4)
H11_3 H 0.9524 0.0935 0.3476
H12_3 H 0.9748 0.1392 0.3140
C40_3 C 0.9180(12) 0.0022(10) 0.2029(3)
H20_3 H 0.8960 0.0465 0.2054
O2_3 O 0.9883(13) 0.0530(15) 0.3862(3)
O7_5 O 1.0000 0.2500 0.2391(2)
Fe3_3 Fe 0.91462(14) 0.28684(14) 0.23764(4)
H7_3 H 0.9979 0.9597 0.2483
C35_3 C 0.9886(12) 0.9958(9) 0.2063(3)
C37_3 C 0.9822(12) 0.8739(10) 0.1958(3)
C38_3 C 0.9115(11) 0.8821(12) 0.1928(3)
C39_3 C 0.8783(11) 0.9474(12) 0.1961(3)
H19_3 H 0.8292 0.9529 0.1936
C41_3 C 0.8663(14) 0.8174(13) 0.1862(3)
C55_4 C 0.0929(11) 0.0632(9) 0.0134(3)
C56_4 C 0.1372(10) 0.0268(9) 0.0280(4)
C57_4 C 0.1149(11) 0.0385(10) 0.0484(3)
H28_4 H 0.1353 0.0209 0.0614
C58_4 C 0.0524(9) 0.0840(8) 0.0465(3)
C59_4 C 0.0154(10) 0.1084(9) 0.0646(3)
C90_4 C 0.0475(12) 0.0907(10) 0.0867(3)
C91_4 C 0.1126(12) 0.1176(11) 0.0926(4)
H45_4 H 0.1346 0.1514 0.0834
C92_4 C 0.1458(11) 0.0968(12) 0.1112(4)
H46_4 H 0.1892 0.1179 0.1153
C93_4 C 0.1164(13) 0.0450(12) 0.1240(3)
C94_4 C 0.0496(14) 0.0215(11) 0.1193(3)
C95_4 C 0.0136(11) 0.0430(11) 0.1003(4)
C96_4 C 0.1573(16) 0.0164(14) 0.1434(3)
N7_4 N 0.0395(8) 0.0974(7) 0.0251(3)
O22_5 O 0.0000 0.2500 0.0109(2)
O24_4 O 0.2140(10) 0.0377(9) 0.1479(3)
H50_4 H 0.211322 0.0890123 0.15101
H7_4 H 0.5021 0.0403 0.7483
H8_4 H 0.4748 0.0015 0.7852
C35_4 C 0.5114(12) 0.0042(9) 0.7063(3)
C36_4 C 0.4770(11) 0.0695(12) 0.7027(3)
H17_4 H 0.4277 0.0744 0.7048
C37_4 C 0.5178(12) 0.1261(10) 0.6958(3)
H18_4 H 0.4964 0.1706 0.6932
C38_4 C 0.5885(11) 0.1179(12) 0.6928(3)
C39_4 C 0.6217(11) 0.0526(12) 0.6961(3)
H19_4 H 0.6708 0.0471 0.6936
C41_4 C 0.6337(14) 0.1826(13) 0.6862(3)
C52_4 C 0.0563(12) 0.0944(10) 0.9528(3)
H26_4 H 0.0956 0.0784 0.9445
C53_4 C 0.0503(11) 0.0937(9) 0.9760(3)
C54_4 C 0.1005(10) 0.0669(9) 0.9905(3)
C76_4 C 0.1692(11) 0.0420(10) 0.9813(3)
C79_4 C 0.2944(11) 0.0016(11) 0.9617(3)
C80_4 C 0.2931(12) 0.0541(12) 0.9769(3)
H39_4 H 0.3360 0.0765 0.9808
C81_4 C 0.2314(11) 0.0758(11) 0.9868(4)
H40_4 H 0.2316 0.1130 0.9972
O14_4 O 0.4159(9) 0.0095(11) 0.9557(3)
C1_4 C 0.4154(13) 0.8645(17) 0.7883(4)
C2_4 C 0.3869(9) 0.7962(10) 0.7870(3)
C3_4 C 0.3717(11) 0.7530(12) 0.8054(3)
H1_4 H 0.3793 0.7641 0.8204
C4_4 C 0.3444(10) 0.6937(12) 0.7972(3)
H2_4 H 0.3284 0.6544 0.8055
C5_4 C 0.3437(9) 0.6997(11) 0.7740(3)
C6_4 C 0.3169(9) 0.6495(10) 0.7595(3)
C7_4 C 0.3132(9) 0.6571(11) 0.7366(3)
C8_4 C 0.2768(9) 0.6128(10) 0.7220(4)
H3_4 H 0.2486 0.5734 0.7259
C9_4 C 0.2885(10) 0.6351(11) 0.7016(3)
H4_4 H 0.2709 0.6147 0.6886
C10_4 C 0.3340(8) 0.6976(9) 0.7035(3)
C11_4 C 0.3584(9) 0.7346(10) 0.6854(3)
C12_4 C 0.3964(9) 0.7953(10) 0.6870(3)
C13_4 C 0.4231(10) 0.8368(12) 0.6692(3)
H5_4 H 0.4192 0.8252 0.6542
C14_4 C 0.4541(10) 0.8939(10) 0.6772(3)
H6_4 H 0.4760 0.9303 0.6690
C15_4 C 0.4484(9) 0.8903(10) 0.7008(3)
C16_4 C 0.4694(9) 0.9427(10) 0.7149(3)
C17_4 C 0.4593(10) 0.9446(10) 0.7372(4)
C18_4 C 0.4806(10) 0.9967(10) 0.7521(3)
C19_4 C 0.4663(9) 0.9760(10) 0.7721(4)
C20_4 C 0.4356(10) 0.9083(10) 0.7702(3)
C21_4 C 0.4289(13) 0.8914(15) 0.8110(4)
C22_4 C 0.3785(13) 0.9285(14) 0.8215(3)
H9_4 H 0.3363 0.9397 0.8139
C23_4 C 0.3860(13) 0.9511(14) 0.8431(3)
H10_4 H 0.3501 0.9771 0.8503
C24_4 C 0.4488(13) 0.9334(15) 0.8535(4)
C25_4 C 0.5012(13) 0.9081(14) 0.8418(4)
H11_4 H 0.5476 0.9065 0.8476
C26_4 C 0.4880(13) 0.8845(14) 0.8213(3)
H12_4 H 0.5252 0.8608 0.8140
C27_4 C 0.4555(14) 0.9526(18) 0.8794(5)
C28_4 C 0.2920(10) 0.5808(11) 0.7687(3)
C29_4 C 0.2339(9) 0.5800(11) 0.7837(3)
H13_4 H 0.2087 0.6220 0.7869
C30_4 C 0.2157(10) 0.5180(12) 0.7932(3)
H14_4 H 0.1778 0.5170 0.8033
C31_4 C 0.2516(11) 0.4556(11) 0.7883(3)
C32_4 C 0.3041(12) 0.4569(12) 0.7731(3)
H15_4 H 0.3265 0.4140 0.7692
C33_4 C 0.3258(11) 0.5186(11) 0.7632(4)
H16_4 H 0.3630 0.5184 0.7528
C34_4 C 0.2328(13) 0.3898(12) 0.8013(4)
C40_4 C 0.5820(12) 0.9978(10) 0.7029(3)
H20_4 H 0.6040 0.9535 0.7054
C42_4 C 0.3407(10) 0.7025(12) 0.6633(3)
C43_4 C 0.3676(11) 0.6374(12) 0.6574(4)
H21_4 H 0.4014 0.6154 0.6666
C44_4 C 0.3468(12) 0.6042(11) 0.6388(4)
H22_4 H 0.3679 0.5608 0.6347
C45_4 C 0.2950(12) 0.6336(13) 0.6260(3)
C46_4 C 0.2715(11) 0.7004(14) 0.6307(3)
H23_4 H 0.2398 0.7229 0.6209
C47_4 C 0.2930(11) 0.7364(11) 0.6497(4)
H24_4 H 0.2755 0.7821 0.6530
C48_4 C 0.2664(14) 0.5927(16) 0.6066(3)
Fe1_4 Fe 0.41462(14) 0.78684(14) 0.73764(4)
N1_4 N 0.4301(7) 0.8878(8) 0.7492(2)
N2_4 N 0.3712(7) 0.7633(8) 0.7680(2)
N3_4 N 0.3474(7) 0.7105(8) 0.7249(3)
N4_4 N 0.4139(7) 0.8302(8) 0.7063(2)
O1_4 O 0.4118(16) 0.9888(14) 0.8869(4)
O2_4 O 0.5117(13) 0.9470(15) 0.8862(3)
O3_4 O 0.1967(7) 0.3919(7) 0.8177(2)
O4_4 O 0.2595(11) 0.3341(9) 0.7943(3)
O7_6 O 0.5000 0.7500 0.7391(2)
O8_4 O 0.2164(8) 0.6249(8) 0.5959(2)
O9_4 O 0.2877(9) 0.5360(10) 0.6021(3)
C77_4 C 0.1700(11) 0.9839(9) 0.9663(3)
H37_4 H 0.1280 0.9587 0.9631
C78_4 C 0.2320(12) 0.9657(10) 0.9568(3)
H38_4 H 0.2330 0.9278 0.9467
C82_4 C 0.3602(12) 0.9828(13) 0.9487(4)
Fe3_4 Fe 0.58538(14) 0.71316(14) 0.73764(4)
O12_4 O 0.3581(7) 0.9467(7) 0.9323(2)
H49_4 H 0.279453 0.503439 0.614537
C60_4 C 0.9547(10) 0.1464(9) 0.0630(3)
C61_4 C 0.9132(12) 0.1731(10) 0.0808(3)
H29_4 H 0.9248 0.1692 0.0958
C62_4 C 0.8561(10) 0.2041(10) 0.0728(3)
H30_4 H 0.8197 0.2260 0.0810
C63_4 C 0.8597(10) 0.1984(9) 0.0492(3)
C64_4 C 0.8073(10) 0.2194(9) 0.0351(3)
C65_4 C 0.8054(10) 0.2093(10) 0.0128(4)
H31_4 H 0.7097 0.2521 0.0017
C83_4 C 0.7458(9) 0.2614(12) 0.0437(3)
C84_4 C 0.6805(12) 0.2270(11) 0.0473(3)
H41_4 H 0.6756 0.1777 0.0452
C85_4 C 0.6239(10) 0.2678(12) 0.0542(3)
H42_4 H 0.5794 0.2464 0.0568
C86_4 C 0.6321(12) 0.3385(11) 0.0572(3)
C87_4 C 0.6974(12) 0.3717(11) 0.0539(3)
H43_4 H 0.7029 0.4208 0.0564
C88_4 C 0.7522(10) 0.3320(12) 0.0471(3)
H44_4 H 0.7965 0.3540 0.0446
C89_4 C 0.5674(13) 0.3837(14) 0.0638(3)
H48_4 H 0.9679 0.0255 0.0970
Fe2_4 Fe 0.96316(14) 0.16462(14) 0.01236(4)
N5_4 N 0.8622(8) 0.1801(7) 0.0008(2)
N8_4 N 0.9198(8) 0.1639(7) 0.0437(2)
O16_4 O 0.5127(8) 0.3543(8) 0.0704(2)
O19_4 O 0.5745(7) 0.4490(10) 0.0625(2)
O22_6 O 1.0000 0.2500 0.0109(2)
C49_4 C 0.8855(17) 0.1654(13) 0.9617(4)
C50_4 C 0.9538(10) 0.1369(9) 0.9630(3)
C51_4 C 0.9970(12) 0.1217(11) 0.9446(3)
H25_4 H 0.9859 0.1293 0.9296
C66_4 C 0.7533(10) 0.2306(10) 0.9979(3)
C67_4 C 0.7740(10) 0.2163(9) 0.9779(4)
H32_4 H 0.7485 0.2248 0.9648
C68_4 C 0.8417(10) 0.1856(10) 0.9798(3)
C69_4 C 0.8586(15) 0.1789(13) 0.9390(4)
C70_4 C 0.8215(14) 0.1285(13) 0.9285(3)
H33_4 H 0.8103 0.0863 0.9361
C71_4 C 0.7989(14) 0.1360(13) 0.9069(3)
H34_4 H 0.7729 0.1001 0.8997
C72_4 C 0.8166(15) 0.1988(13) 0.8965(4)
C73_4 C 0.8419(14) 0.2512(13) 0.9082(4)
H35_4 H 0.8435 0.2976 0.9024
C74_4 C 0.8655(14) 0.2380(13) 0.9287(3)
H36_4 H 0.8892 0.2752 0.9360
C75_4 C 0.7974(18) 0.2055(14) 0.8706(5)
Cd2_4 Cd 0.77062(8) 0.22234(8) 0.82834(2)
N6_4 N 0.9867(8) 0.1212(7) 0.9820(2)
O10_4 O 0.7612(14) 0.1618(16) 0.8631(4)
O11_4 O 0.8030(15) 0.2617(13) 0.8638(3)
O13_4 O 0.8033(7) 0.1081(7) 0.8177(2)
O15_4 O 0.7405(11) 0.1659(9) 0.7943(3)
O18_4 O 0.8957(8) 0.2627(8) 0.8204(2)
O21_4 O 0.8010(10) 0.3245(7) 0.8125(2)
C1_5 C 0.3855(17) 0.1654(13) 0.5383(4)
C2_5 C 0.4538(10) 0.1369(9) 0.5370(3)
C3_5 C 0.4970(12) 0.1217(11) 0.5554(3)
H1_5 H 0.4859 0.1293 0.5704
C4_5 C 0.5563(12) 0.0944(10) 0.5472(3)
H2_5 H 0.5956 0.0784 0.5555
C5_5 C 0.5503(11) 0.0937(9) 0.5240(3)
C6_5 C 0.6005(10) 0.0669(9) 0.5095(3)
C7_5 C 0.5929(11) 0.0632(9) 0.4866(3)
C8_5 C 0.6372(10) 0.0268(9) 0.4720(4)
C9_5 C 0.6149(11) 0.0385(10) 0.4516(3)
H4_5 H 0.6353 0.0209 0.4386
C10_5 C 0.5524(9) 0.0840(8) 0.4535(3)
C11_5 C 0.5154(10) 0.1084(9) 0.4354(3)
C12_5 C 0.4547(10) 0.1464(9) 0.4370(3)
C13_5 C 0.4132(12) 0.1731(10) 0.4192(3)
H5_5 H 0.4248 0.1692 0.4042
C14_5 C 0.3561(10) 0.2041(10) 0.4272(3)
H6_5 H 0.3197 0.2260 0.4190
C15_5 C 0.3597(10) 0.1984(9) 0.4508(3)
C16_5 C 0.3073(10) 0.2194(9) 0.4649(3)
C17_5 C 0.3054(10) 0.2093(10) 0.4872(4)
C18_5 C 0.2533(10) 0.2306(10) 0.5021(3)
H7_5 H 0.2097 0.2521 0.4983
C19_5 C 0.2740(10) 0.2163(9) 0.5221(4)
H8_5 H 0.2485 0.2248 0.5352
C20_5 C 0.3417(10) 0.1856(10) 0.5202(3)
C21_5 C 0.3586(15) 0.1789(13) 0.5610(4)
C22_5 C 0.3215(14) 0.1285(13) 0.5715(3)
H9_5 H 0.3103 0.0863 0.5639
C23_5 C 0.2989(14) 0.1360(13) 0.5931(3)
H10_5 H 0.2729 0.1001 0.6003
C24_5 C 0.3166(15) 0.1988(13) 0.6035(4)
C25_5 C 0.3419(14) 0.2512(13) 0.5918(4)
H11_5 H 0.3435 0.2976 0.5976
C26_5 C 0.3655(14) 0.2380(13) 0.5713(3)
H12_5 H 0.3892 0.2752 0.5640
C27_5 C 0.2974(18) 0.2055(14) 0.6294(5)
C28_5 C 0.6692(11) 0.0420(10) 0.5187(3)
C31_5 C 0.7944(11) 0.0016(11) 0.5383(3)
C32_5 C 0.7931(12) 0.0541(12) 0.5231(3)
H15_5 H 0.8360 0.0765 0.5192
C33_5 C 0.7314(11) 0.0758(11) 0.5132(4)
H16_5 H 0.7316 0.1130 0.5028
C35_5 C 0.2458(9) 0.2614(12) 0.4563(3)
C36_5 C 0.1805(12) 0.2270(11) 0.4527(3)
H17_5 H 0.1756 0.1777 0.4548
C37_5 C 0.1239(10) 0.2678(12) 0.4458(3)
H18_5 H 0.0794 0.2464 0.4432
C38_5 C 0.1321(12) 0.3385(11) 0.4428(3)
C39_5 C 0.1974(12) 0.3717(11) 0.4461(3)
H19_5 H 0.2029 0.4208 0.4436
C40_5 C 0.2522(10) 0.3320(12) 0.4529(3)
H20_5 H 0.2965 0.3540 0.4554
C41_5 C 0.0674(13) 0.3837(14) 0.4362(3)
C42_5 C 0.5475(12) 0.0907(10) 0.4133(3)
C43_5 C 0.6126(12) 0.1176(11) 0.4074(4)
H21_5 H 0.6346 0.1514 0.4166
C44_5 C 0.6458(11) 0.0968(12) 0.3888(4)
H22_5 H 0.6892 0.1179 0.3847
C45_5 C 0.6164(13) 0.0450(12) 0.3760(3)
C46_5 C 0.5496(14) 0.0215(11) 0.3807(3)
C47_5 C 0.5136(11) 0.0430(11) 0.3997(4)
H24_5 H 0.4679 0.0255 0.4030
C48_5 C 0.6573(16) 0.0164(14) 0.3566(3)
Cd1_3 Cd 0.27062(8) 0.22234(8) 0.67166(2)
N1_5 N 0.3622(8) 0.1801(7) 0.4992(2)
N2_5 N 0.4867(8) 0.1212(7) 0.5180(2)
N3_5 N 0.5395(8) 0.0974(7) 0.4749(3)
N4_5 N 0.4198(8) 0.1639(7) 0.4563(2)
O1_5 O 0.2612(14) 0.1618(16) 0.6369(4)
O2_5 O 0.3030(15) 0.2617(13) 0.6362(3)
O5_3 O 0.0127(8) 0.3543(8) 0.4296(2)
O6_3 O 0.0745(7) 0.4490(10) 0.4375(2)
O9_5 O 0.7140(10) 0.0377(9) 0.3521(3)
C79_5 C 0.2484(11) 0.0444(11) 0.7117(3)
C80_5 C 0.1959(12) 0.0431(12) 0.7269(3)
H39_5 H 0.1735 0.0860 0.7308
C82_5 C 0.2672(13) 0.1102(12) 0.6987(4)
O12_5 O 0.3033(7) 0.1081(7) 0.6823(2)
O14_5 O 0.2405(11) 0.1659(9) 0.7057(3)
O17_3 O 0.3957(8) 0.2627(8) 0.6796(2)
O20_3 O 0.3010(10) 0.3245(7) 0.6875(2)
H49_5 H 0.746561 0.0294525 0.364537
H3_5 H 0.6766 0.9986 0.4759
C29_5 C 0.6700(11) 0.9839(9) 0.5337(3)
H13_5 H 0.6280 0.9587 0.5369
C30_5 C 0.7320(12) 0.9657(10) 0.5432(3)
H14_5 H 0.7330 0.9278 0.5533
C34_5 C 0.8602(12) 0.9828(13) 0.5513(4)
H23_5 H 0.5271 0.9898 0.3709
O8_5 O 0.6251(8) 0.9664(8) 0.3459(2)
C49_5 C 0.0846(13) 0.6355(17) 0.7117(4)
C50_5 C 0.1131(9) 0.7038(10) 0.7130(3)
C51_5 C 0.1283(11) 0.7470(12) 0.6946(3)
H25_5 H 0.1207 0.7359 0.6796
C52_5 C 0.1556(10) 0.8063(12) 0.7028(3)
H26_5 H 0.1716 0.8456 0.6945
C53_5 C 0.1563(9) 0.8003(11) 0.7260(3)
C54_5 C 0.1831(9) 0.8505(10) 0.7405(3)
C55_5 C 0.1868(9) 0.8429(11) 0.7634(3)
C56_5 C 0.2232(9) 0.8872(10) 0.7780(4)
H27_4 H 0.2514 0.9266 0.7741
C57_5 C 0.2115(10) 0.8649(11) 0.7984(3)
H28_5 H 0.2291 0.8853 0.8114
C58_5 C 0.1660(8) 0.8024(9) 0.7965(3)
C59_5 C 0.1416(9) 0.7654(10) 0.8146(3)
C60_5 C 0.1036(9) 0.7047(10) 0.8130(3)
C61_5 C 0.0769(10) 0.6632(12) 0.8308(3)
H29_5 H 0.0808 0.6748 0.8458
C62_5 C 0.0459(10) 0.6061(10) 0.8228(3)
H30_5 H 0.0240 0.5697 0.8310
C63_5 C 0.0516(9) 0.6097(10) 0.7992(3)
C64_5 C 0.0306(9) 0.5573(10) 0.7851(3)
C65_5 C 0.0407(10) 0.5554(10) 0.7628(4)
C66_5 C 0.0194(10) 0.5033(10) 0.7479(3)
C67_5 C 0.0337(9) 0.5240(10) 0.7279(4)
H32_5 H 0.0252 0.4985 0.7148
C68_5 C 0.0644(10) 0.5917(10) 0.7298(3)
C69_5 C 0.0711(13) 0.6086(15) 0.6890(4)
C70_5 C 0.1215(13) 0.5715(14) 0.6785(3)
H33_5 H 0.1637 0.5603 0.6861
C71_5 C 0.1140(13) 0.5489(14) 0.6569(3)
H34_5 H 0.1499 0.5229 0.6497
C72_5 C 0.0512(13) 0.5666(15) 0.6465(4)
C74_5 C 0.0120(13) 0.6155(14) 0.6787(3)
C75_5 C 0.0445(14) 0.5474(18) 0.6206(5)
C76_5 C 0.2080(10) 0.9192(11) 0.7313(3)
C77_5 C 0.2661(9) 0.9200(11) 0.7163(3)
H37_5 H 0.2913 0.8780 0.7131
C78_5 C 0.2843(10) 0.9820(12) 0.7068(3)
H38_5 H 0.3222 0.9830 0.6967
C81_5 C 0.1742(11) 0.9814(11) 0.7368(4)
H40_5 H 0.1370 0.9816 0.7472
C84_5 C 0.0230(11) 0.4305(12) 0.7973(3)
H41_5 H 0.0723 0.4256 0.7952
H42_5 H 0.0036 0.3294 0.8068
C90_5 C 0.1593(10) 0.7975(12) 0.8367(3)
C91_5 C 0.1324(11) 0.8626(12) 0.8426(4)
H45_5 H 0.0986 0.8846 0.8334
C92_5 C 0.1532(12) 0.8958(11) 0.8612(4)
H46_5 H 0.1321 0.9392 0.8653
C93_5 C 0.2050(12) 0.8664(13) 0.8740(3)
C94_5 C 0.2285(11) 0.7996(14) 0.8693(3)
H47_4 H 0.2602 0.7771 0.8791
C95_5 C 0.2070(11) 0.7636(11) 0.8503(4)
H48_5 H 0.2245 0.7179 0.8470
C96_5 C 0.2336(14) 0.9073(16) 0.8934(3)
Fe2_5 Fe 0.08538(14) 0.71316(14) 0.76236(4)
N5_5 N 0.0699(7) 0.6122(8) 0.7508(2)
N6_5 N 0.1288(7) 0.7367(8) 0.7320(2)
N7_5 N 0.1526(7) 0.7895(8) 0.7751(3)
N8_5 N 0.0861(7) 0.6698(8) 0.7937(2)
O10_5 O 0.0882(16) 0.5112(14) 0.6131(4)
O23_4 O 0.2836(8) 0.8751(8) 0.9041(2)
O24_5 O 0.2123(9) 0.9640(10) 0.8979(3)
H50_5 H 0.160988 0.961322 0.90101
Cd4_3 Cd 0.97234(8) 0.47938(8) 0.42166(2)
H31_5 H 0.9979 0.4597 0.7517
C73_5 C 0.9988(13) 0.5919(14) 0.6582(4)
H35_5 H 0.9524 0.5935 0.6524
H36_5 H 0.9748 0.6392 0.6860
C83_5 C 0.9886(12) 0.4958(9) 0.7937(3)
C85_5 C 0.9822(12) 0.3739(10) 0.8042(3)
C86_5 C 0.9115(11) 0.3821(12) 0.8072(3)
C87_5 C 0.8783(11) 0.4474(12) 0.8039(3)
H43_5 H 0.8292 0.4529 0.8064
C88_5 C 0.9180(12) 0.5022(10) 0.7971(3)
H44_5 H 0.8960 0.5465 0.7946
C89_5 C 0.8663(14) 0.3174(13) 0.8138(3)
O11_5 O 0.9883(13) 0.5530(15) 0.6138(3)
C49_6 C 0.4154(13) 0.3645(17) 0.2117(4)
C50_6 C 0.3869(9) 0.2962(10) 0.2130(3)
C51_6 C 0.3717(11) 0.2530(12) 0.1946(3)
H25_6 H 0.3793 0.2641 0.1796
C52_6 C 0.3444(10) 0.1937(12) 0.2028(3)
H26_6 H 0.3284 0.1544 0.1945
C53_6 C 0.3437(9) 0.1997(11) 0.2260(3)
C54_6 C 0.3169(9) 0.1495(10) 0.2405(3)
C55_6 C 0.3132(9) 0.1571(11) 0.2634(3)
C56_6 C 0.2768(9) 0.1128(10) 0.2780(4)
H27_5 H 0.2486 0.0734 0.2741
C57_6 C 0.2885(10) 0.1351(11) 0.2984(3)
H28_6 H 0.2709 0.1147 0.3114
C58_6 C 0.3340(8) 0.1976(9) 0.2965(3)
C59_6 C 0.3584(9) 0.2346(10) 0.3146(3)
C60_6 C 0.3964(9) 0.2953(10) 0.3130(3)
C61_6 C 0.4231(10) 0.3368(12) 0.3308(3)
H29_6 H 0.4192 0.3252 0.3458
C62_6 C 0.4541(10) 0.3939(10) 0.3228(3)
H30_6 H 0.4760 0.4303 0.3310
C63_6 C 0.4484(9) 0.3903(10) 0.2992(3)
C64_6 C 0.4694(9) 0.4427(10) 0.2851(3)
C65_6 C 0.4593(10) 0.4446(10) 0.2628(4)
C66_6 C 0.4806(10) 0.4967(10) 0.2479(3)
H31_6 H 0.5021 0.5403 0.2517
C67_6 C 0.4663(9) 0.4760(10) 0.2279(4)
H32_6 H 0.4748 0.5015 0.2148
C68_6 C 0.4356(10) 0.4083(10) 0.2298(3)
C69_6 C 0.4289(13) 0.3914(15) 0.1890(4)
C70_6 C 0.3785(13) 0.4285(14) 0.1785(3)
H33_6 H 0.3363 0.4397 0.1861
C71_6 C 0.3860(13) 0.4511(14) 0.1569(3)
H34_6 H 0.3501 0.4771 0.1497
C72_6 C 0.4488(13) 0.4334(15) 0.1465(4)
C73_6 C 0.5012(13) 0.4081(14) 0.1582(4)
H35_6 H 0.5476 0.4065 0.1524
C74_6 C 0.4880(13) 0.3845(14) 0.1787(3)
H36_6 H 0.5252 0.3608 0.1860
C75_6 C 0.4555(14) 0.4526(18) 0.1206(5)
C76_6 C 0.2920(10) 0.0808(11) 0.2313(3)
C77_6 C 0.2339(9) 0.0800(11) 0.2163(3)
H37_6 H 0.2087 0.1220 0.2131
C78_6 C 0.2157(10) 0.0180(12) 0.2068(3)
H38_6 H 0.1778 0.0170 0.1967
C81_6 C 0.3258(11) 0.0186(11) 0.2368(4)
H40_6 H 0.3630 0.0184 0.2472
C83_6 C 0.5114(12) 0.5042(9) 0.2937(3)
C84_6 C 0.4770(11) 0.5695(12) 0.2973(3)
H41_6 H 0.4277 0.5744 0.2952
C85_6 C 0.5178(12) 0.6261(10) 0.3042(3)
H42_6 H 0.4964 0.6706 0.3068
C86_6 C 0.5885(11) 0.6179(12) 0.3072(3)
C87_6 C 0.6217(11) 0.5526(12) 0.3039(3)
H43_6 H 0.6708 0.5471 0.3064
C88_6 C 0.5820(12) 0.4978(10) 0.2971(3)
H44_6 H 0.6040 0.4535 0.2946
C89_6 C 0.6337(14) 0.6826(13) 0.3138(3)
C90_6 C 0.3407(10) 0.2025(12) 0.3367(3)
C91_6 C 0.3676(11) 0.1374(12) 0.3426(4)
H45_6 H 0.4014 0.1154 0.3334
C92_6 C 0.3468(12) 0.1042(11) 0.3612(4)
H46_6 H 0.3679 0.0608 0.3653
C93_6 C 0.2950(12) 0.1336(13) 0.3740(3)
C94_6 C 0.2715(11) 0.2004(14) 0.3693(3)
H47_5 H 0.2398 0.2229 0.3791
C95_6 C 0.2930(11) 0.2364(11) 0.3503(4)
H48_6 H 0.2755 0.2821 0.3470
C96_6 C 0.2664(14) 0.0927(16) 0.3934(3)
Fe2_6 Fe 0.41462(14) 0.28684(14) 0.26236(4)
N5_6 N 0.4301(7) 0.3878(8) 0.2508(2)
N6_6 N 0.3712(7) 0.2633(8) 0.2320(2)
N7_6 N 0.3474(7) 0.2105(8) 0.2751(3)
N8_6 N 0.4139(7) 0.3302(8) 0.2937(2)
O10_6 O 0.4118(16) 0.4888(14) 0.1131(4)
O11_6 O 0.5117(13) 0.4470(15) 0.1138(3)
O23_5 O 0.2164(8) 0.1249(8) 0.4041(2)
O24_6 O 0.2877(9) 0.0360(10) 0.3979(3)
H50_6 H 0.339012 0.0386783 0.40101
C1_6 C 0.1145(17) 0.8346(13) 0.0383(4)
C2_6 C 0.0462(10) 0.8631(9) 0.0370(3)
C3_6 C 0.0030(12) 0.8783(11) 0.0554(3)
H1_6 H 0.0141 0.8707 0.0704
C18_6 C 0.2467(10) 0.7694(10) 0.0021(3)
C19_6 C 0.2260(10) 0.7837(9) 0.0221(4)
H8_6 H 0.2515 0.7752 0.0352
C20_6 C 0.1583(10) 0.8144(10) 0.0202(3)
C21_6 C 0.1414(15) 0.8211(13) 0.0610(4)
C22_6 C 0.1785(14) 0.8715(13) 0.0715(3)
H9_6 H 0.1897 0.9137 0.0639
C23_6 C 0.2011(14) 0.8640(13) 0.0931(3)
H10_6 H 0.2271 0.8999 0.1003
C24_6 C 0.1834(15) 0.8012(13) 0.1035(4)
C25_6 C 0.1581(14) 0.7488(13) 0.0918(4)
H11_6 H 0.1565 0.7024 0.0976
C26_6 C 0.1345(14) 0.7620(13) 0.0713(3)
H12_6 H 0.1108 0.7248 0.0640
C27_6 C 0.2026(18) 0.7945(14) 0.1294(5)
Cd1_4 Cd 0.22938(8) 0.77766(8) 0.17166(2)
N2_6 N 0.0133(8) 0.8788(7) 0.0180(2)
O1_6 O 0.2388(14) 0.8382(16) 0.1369(4)
O2_6 O 0.1970(15) 0.7383(13) 0.1362(3)
C79_6 C 0.2516(11) 0.9556(11) 0.2117(3)
C80_6 C 0.3041(12) 0.9569(12) 0.2269(3)
H39_6 H 0.3265 0.9140 0.2308
C82_6 C 0.2328(13) 0.8898(12) 0.1987(4)
O12_6 O 0.1967(7) 0.8919(7) 0.1823(2)
O14_6 O 0.2595(11) 0.8341(9) 0.2057(3)
O17_4 O 0.1043(8) 0.7373(8) 0.1796(2)
O20_4 O 0.1990(10) 0.6755(7) 0.1875(2)
C12_6 C 0.0453(10) 0.8536(9) 0.9370(3)
C13_6 C 0.0868(12) 0.8269(10) 0.9192(3)
H5_6 H 0.0752 0.8308 0.9042
C14_6 C 0.1439(10) 0.7959(10) 0.9272(3)
H6_6 H 0.1803 0.7740 0.9190
C15_6 C 0.1403(10) 0.8016(9) 0.9508(3)
C16_6 C 0.1927(10) 0.7806(9) 0.9649(3)
C17_6 C 0.1946(10) 0.7907(10) 0.9872(4)
H7_6 H 0.2903 0.7479 0.9983
C35_6 C 0.2542(9) 0.7386(12) 0.9563(3)
C36_6 C 0.3195(12) 0.7730(11) 0.9527(3)
H17_6 H 0.3244 0.8223 0.9548
C37_6 C 0.3761(10) 0.7322(12) 0.9458(3)
H18_6 H 0.4206 0.7536 0.9432
C38_6 C 0.3679(12) 0.6615(11) 0.9428(3)
C39_6 C 0.3026(12) 0.6283(11) 0.9461(3)
H19_6 H 0.2971 0.5792 0.9436
C40_6 C 0.2478(10) 0.6680(12) 0.9529(3)
H20_6 H 0.2035 0.6460 0.9554
C41_6 C 0.4326(13) 0.6163(14) 0.9362(3)
H24_6 H 0.0321 0.9745 0.9030
N1_6 N 0.1378(8) 0.8199(7) 0.9992(2)
N4_6 N 0.0802(8) 0.8361(7) 0.9563(2)
O5_4 O 0.4873(8) 0.6457(8) 0.9296(2)
O6_4 O 0.4255(7) 0.5510(10) 0.9375(2)
Cd4_4 Cd 0.52766(8) 0.52062(8) 0.92166(2)
C29_6 C 0.8300(11) 0.0161(9) 0.0337(3)
H13_6 H 0.8720 0.0413 0.0369
C30_6 C 0.7680(12) 0.0343(10) 0.0432(3)
H14_6 H 0.7670 0.0722 0.0533
C34_6 C 0.6398(12) 0.0172(13) 0.0513(4)
C4_6 C 0.9437(12) 0.9056(10) 0.0472(3)
H2_6 H 0.9044 0.9216 0.0555
C5_6 C 0.9497(11) 0.9063(9) 0.0240(3)
C6_6 C 0.8995(10) 0.9331(9) 0.0095(3)
C28_6 C 0.8308(11) 0.9580(10) 0.0187(3)
C31_6 C 0.7056(11) 0.9984(11) 0.0383(3)
C32_6 C 0.7069(12) 0.9459(12) 0.0231(3)
H15_6 H 0.6640 0.9235 0.0192
C33_6 C 0.7686(11) 0.9242(11) 0.0132(4)
H16_6 H 0.7684 0.8870 0.0028
C7_6 C 0.9071(11) 0.9368(9) 0.9866(3)
C8_6 C 0.8628(10) 0.9732(9) 0.9720(4)
C9_6 C 0.8851(11) 0.9615(10) 0.9516(3)
H4_6 H 0.8647 0.9791 0.9386
C10_6 C 0.9476(9) 0.9160(8) 0.9535(3)
C11_6 C 0.9846(10) 0.8916(9) 0.9354(3)
C42_6 C 0.9525(12) 0.9093(10) 0.9133(3)
C43_6 C 0.8874(12) 0.8824(11) 0.9074(4)
H21_6 H 0.8654 0.8486 0.9166
C44_6 C 0.8542(11) 0.9032(12) 0.8888(4)
H22_6 H 0.8108 0.8821 0.8847
C45_6 C 0.8836(13) 0.9550(12) 0.8760(3)
C46_6 C 0.9504(14) 0.9785(11) 0.8807(3)
C47_6 C 0.9864(11) 0.9570(11) 0.8997(4)
C48_6 C 0.8427(16) 0.9836(14) 0.8566(3)
N3_6 N 0.9605(8) 0.9026(7) 0.9749(3)
O9_6 O 0.7860(10) 0.9623(9) 0.8521(3)
H49_6 H 0.753439 0.970547 0.864537
C60_7 C 0.0453(10) 0.3536(9) 0.0630(3)
C61_7 C 0.0868(12) 0.3269(10) 0.0808(3)
H29_7 H 0.0752 0.3308 0.0958
C62_7 C 0.1439(10) 0.2959(10) 0.0728(3)
H30_7 H 0.1803 0.2740 0.0810
C63_7 C 0.1403(10) 0.3016(9) 0.0492(3)
C64_7 C 0.1927(10) 0.2806(9) 0.0351(3)
C65_7 C 0.1946(10) 0.2907(10) 0.0128(4)
H31_7 H 0.2903 0.2479 0.0017
C83_7 C 0.2542(9) 0.2386(12) 0.0437(3)
C84_7 C 0.3195(12) 0.2730(11) 0.0473(3)
H41_7 H 0.3244 0.3223 0.0452
C85_7 C 0.3761(10) 0.2322(12) 0.0542(3)
H42_7 H 0.4206 0.2536 0.0568
C86_7 C 0.3679(12) 0.1615(11) 0.0572(3)
C87_7 C 0.3026(12) 0.1283(11) 0.0539(3)
H43_7 H 0.2971 0.0792 0.0564
C88_7 C 0.2478(10) 0.1680(12) 0.0471(3)
H44_7 H 0.2035 0.1460 0.0446
C89_7 C 0.4326(13) 0.1163(14) 0.0638(3)
H48_7 H 0.0321 0.4745 0.0970
Fe2_7 Fe 0.03684(14) 0.33538(14) 0.01236(4)
N5_7 N 0.1378(8) 0.3199(7) 0.0008(2)
N8_7 N 0.0802(8) 0.3361(7) 0.0437(2)
C49_7 C 0.1145(17) 0.3346(13) 0.9617(4)
C50_7 C 0.0462(10) 0.3631(9) 0.9630(3)
C51_7 C 0.0030(12) 0.3783(11) 0.9446(3)
H25_7 H 0.0141 0.3707 0.9296
C66_7 C 0.2467(10) 0.2694(10) 0.9979(3)
C67_7 C 0.2260(10) 0.2837(9) 0.9779(4)
H32_7 H 0.2515 0.2752 0.9648
C68_7 C 0.1583(10) 0.3144(10) 0.9798(3)
C69_7 C 0.1414(15) 0.3211(13) 0.9390(4)
C70_7 C 0.1785(14) 0.3715(13) 0.9285(3)
H33_7 H 0.1897 0.4137 0.9361
C71_7 C 0.2011(14) 0.3640(13) 0.9069(3)
H34_7 H 0.2271 0.3999 0.8997
C72_7 C 0.1834(15) 0.3012(13) 0.8965(4)
C73_7 C 0.1581(14) 0.2488(13) 0.9082(4)
H35_7 H 0.1565 0.2024 0.9024
C74_7 C 0.1345(14) 0.2620(13) 0.9287(3)
H36_7 H 0.1108 0.2248 0.9360
C75_7 C 0.2026(18) 0.2945(14) 0.8706(5)
N6_7 N 0.0133(8) 0.3788(7) 0.9820(2)
O10_7 O 0.2388(14) 0.3382(16) 0.8631(4)
O11_7 O 0.1970(15) 0.2383(13) 0.8638(3)
C31_7 C 0.7484(11) 0.0444(11) 0.7883(3)
C32_7 C 0.6959(12) 0.0431(12) 0.7731(3)
H15_7 H 0.6735 0.0860 0.7692
C34_7 C 0.7672(13) 0.1102(12) 0.8013(4)
C55_7 C 0.9071(11) 0.4368(9) 0.0134(3)
C56_7 C 0.8628(10) 0.4732(9) 0.0280(4)
H27_6 H 0.8234 0.5014 0.0241
C57_7 C 0.8851(11) 0.4615(10) 0.0484(3)
H28_7 H 0.8647 0.4791 0.0614
C58_7 C 0.9476(9) 0.4160(8) 0.0465(3)
C59_7 C 0.9846(10) 0.3916(9) 0.0646(3)
C90_7 C 0.9525(12) 0.4093(10) 0.0867(3)
C91_7 C 0.8874(12) 0.3824(11) 0.0926(4)
H45_7 H 0.8654 0.3486 0.0834
C92_7 C 0.8542(11) 0.4032(12) 0.1112(4)
H46_7 H 0.8108 0.3821 0.1153
C93_7 C 0.8836(13) 0.4550(12) 0.1240(3)
C94_7 C 0.9504(14) 0.4785(11) 0.1193(3)
H47_6 H 0.9729 0.5102 0.1291
C95_7 C 0.9864(11) 0.4570(11) 0.1003(4)
C96_7 C 0.8427(16) 0.4836(14) 0.1434(3)
N7_7 N 0.9605(8) 0.4026(7) 0.0251(3)
O23_6 O 0.8749(8) 0.5336(8) 0.1541(2)
O24_7 O 0.7860(10) 0.4623(9) 0.1479(3)
H50_7 H 0.788678 0.410988 0.15101
C1_7 C 0.5846(13) 0.6355(17) 0.7883(4)
C2_7 C 0.6131(9) 0.7038(10) 0.7870(3)
C3_7 C 0.6283(11) 0.7470(12) 0.8054(3)
H1_7 H 0.6207 0.7359 0.8204
C4_7 C 0.6556(10) 0.8063(12) 0.7972(3)
H2_7 H 0.6716 0.8456 0.8055
C5_7 C 0.6563(9) 0.8003(11) 0.7740(3)
C6_7 C 0.6831(9) 0.8505(10) 0.7595(3)
C7_7 C 0.6868(9) 0.8429(11) 0.7366(3)
C8_7 C 0.7232(9) 0.8872(10) 0.7220(4)
H3_6 H 0.7514 0.9266 0.7259
C9_7 C 0.7115(10) 0.8649(11) 0.7016(3)
H4_7 H 0.7291 0.8853 0.6886
C10_7 C 0.6660(8) 0.8024(9) 0.7035(3)
C11_7 C 0.6416(9) 0.7654(10) 0.6854(3)
C12_7 C 0.6036(9) 0.7047(10) 0.6870(3)
C13_7 C 0.5769(10) 0.6632(12) 0.6692(3)
H5_7 H 0.5808 0.6748 0.6542
C14_7 C 0.5459(10) 0.6061(10) 0.6772(3)
H6_7 H 0.5240 0.5697 0.6690
C15_7 C 0.5516(9) 0.6097(10) 0.7008(3)
C16_7 C 0.5306(9) 0.5573(10) 0.7149(3)
C17_7 C 0.5407(10) 0.5554(10) 0.7372(4)
C18_7 C 0.5194(10) 0.5033(10) 0.7521(3)
H7_7 H 0.4979 0.4597 0.7483
C19_7 C 0.5337(9) 0.5240(10) 0.7721(4)
H8_7 H 0.5252 0.4985 0.7852
C20_7 C 0.5644(10) 0.5917(10) 0.7702(3)
C21_7 C 0.5711(13) 0.6086(15) 0.8110(4)
C22_7 C 0.6215(13) 0.5715(14) 0.8215(3)
H9_7 H 0.6637 0.5603 0.8139
C23_7 C 0.6140(13) 0.5489(14) 0.8431(3)
H10_7 H 0.6499 0.5229 0.8503
C24_7 C 0.5512(13) 0.5666(15) 0.8535(4)
C25_7 C 0.4988(13) 0.5919(14) 0.8418(4)
H11_7 H 0.4524 0.5935 0.8476
C26_7 C 0.5120(13) 0.6155(14) 0.8213(3)
H12_7 H 0.4748 0.6392 0.8140
C27_7 C 0.5445(14) 0.5474(18) 0.8794(5)
C28_7 C 0.7080(10) 0.9192(11) 0.7687(3)
C29_7 C 0.7661(9) 0.9200(11) 0.7837(3)
H13_7 H 0.7913 0.8780 0.7869
C30_7 C 0.7843(10) 0.9820(12) 0.7932(3)
H14_7 H 0.8222 0.9830 0.8033
C33_7 C 0.6742(11) 0.9814(11) 0.7632(4)
H16_7 H 0.6370 0.9816 0.7528
C35_7 C 0.4886(12) 0.4958(9) 0.7063(3)
C36_7 C 0.5230(11) 0.4305(12) 0.7027(3)
H17_7 H 0.5723 0.4256 0.7048
C37_7 C 0.4822(12) 0.3739(10) 0.6958(3)
H18_7 H 0.5036 0.3294 0.6932
C38_7 C 0.4115(11) 0.3821(12) 0.6928(3)
C39_7 C 0.3783(11) 0.4474(12) 0.6961(3)
H19_7 H 0.3292 0.4529 0.6936
C40_7 C 0.4180(12) 0.5022(10) 0.7029(3)
H20_7 H 0.3960 0.5465 0.7054
C41_7 C 0.3663(14) 0.3174(13) 0.6862(3)
C42_7 C 0.6593(10) 0.7975(12) 0.6633(3)
C43_7 C 0.6324(11) 0.8626(12) 0.6574(4)
H21_7 H 0.5986 0.8846 0.6666
C44_7 C 0.6532(12) 0.8958(11) 0.6388(4)
H22_7 H 0.6321 0.9392 0.6347
C45_7 C 0.7050(12) 0.8664(13) 0.6260(3)
C46_7 C 0.7285(11) 0.7996(14) 0.6307(3)
H23_6 H 0.7602 0.7771 0.6209
C47_7 C 0.7070(11) 0.7636(11) 0.6497(4)
H24_7 H 0.7245 0.7179 0.6530
C48_7 C 0.7336(14) 0.9073(16) 0.6066(3)
N1_7 N 0.5699(7) 0.6122(8) 0.7492(2)
N2_7 N 0.6288(7) 0.7367(8) 0.7680(2)
N3_7 N 0.6526(7) 0.7895(8) 0.7249(3)
N4_7 N 0.5861(7) 0.6698(8) 0.7063(2)
O1_7 O 0.5882(16) 0.5112(14) 0.8869(4)
O2_7 O 0.4883(13) 0.5530(15) 0.8862(3)
O8_6 O 0.7836(8) 0.8751(8) 0.5959(2)
O9_7 O 0.7123(9) 0.9640(10) 0.6021(3)
C52_7 C 0.9437(12) 0.4056(10) 0.9528(3)
H26_7 H 0.9044 0.4216 0.9445
C53_7 C 0.9497(11) 0.4063(9) 0.9760(3)
C54_7 C 0.8995(10) 0.4331(9) 0.9905(3)
C76_7 C 0.8308(11) 0.4580(10) 0.9813(3)
C77_7 C 0.8300(11) 0.5161(9) 0.9663(3)
H37_7 H 0.8720 0.5413 0.9631
C78_7 C 0.7680(12) 0.5343(10) 0.9568(3)
H38_7 H 0.7670 0.5722 0.9467
C79_7 C 0.7056(11) 0.4984(11) 0.9617(3)
C80_7 C 0.7069(12) 0.4459(12) 0.9769(3)
H39_7 H 0.6640 0.4235 0.9808
C81_7 C 0.7686(11) 0.4242(11) 0.9868(4)
H40_7 H 0.7684 0.3870 0.9972
C82_7 C 0.6398(12) 0.5172(13) 0.9487(4)
O12_7 O 0.6419(7) 0.5533(7) 0.9323(2)
O14_7 O 0.5841(9) 0.4905(11) 0.9557(3)
H49_7 H 0.720547 0.996561 0.614537
H7_8 H 0.0021 0.5403 0.2483
C25_8 C 0.0012(13) 0.4081(14) 0.3418(4)
H11_8 H 0.0476 0.4065 0.3476
H12_8 H 0.0252 0.3608 0.3140
C35_8 C 0.0114(12) 0.5042(9) 0.2063(3)
C37_8 C 0.0178(12) 0.6261(10) 0.1958(3)
C38_8 C 0.0885(11) 0.6179(12) 0.1928(3)
C39_8 C 0.1217(11) 0.5526(12) 0.1961(3)
H19_8 H 0.1708 0.5471 0.1936
C40_8 C 0.0820(12) 0.4978(10) 0.2029(3)
H20_8 H 0.1040 0.4535 0.2054
C41_8 C 0.1337(14) 0.6826(13) 0.1862(3)
O2_8 O 0.0117(13) 0.4470(15) 0.3862(3)
C1_8 C 0.9154(13) 0.3645(17) 0.2883(4)
C2_8 C 0.8869(9) 0.2962(10) 0.2870(3)
C3_8 C 0.8717(11) 0.2530(12) 0.3054(3)
H1_8 H 0.8793 0.2641 0.3204
C4_8 C 0.8444(10) 0.1937(12) 0.2972(3)
H2_8 H 0.8284 0.1544 0.3055
C5_8 C 0.8437(9) 0.1997(11) 0.2740(3)
C6_8 C 0.8169(9) 0.1495(10) 0.2595(3)
C7_8 C 0.8132(9) 0.1571(11) 0.2366(3)
C8_8 C 0.7768(9) 0.1128(10) 0.2220(4)
H3_7 H 0.7486 0.0734 0.2259
C9_8 C 0.7885(10) 0.1351(11) 0.2016(3)
H4_8 H 0.7709 0.1147 0.1886
C10_8 C 0.8340(8) 0.1976(9) 0.2035(3)
C11_8 C 0.8584(9) 0.2346(10) 0.1854(3)
C12_8 C 0.8964(9) 0.2953(10) 0.1870(3)
C13_8 C 0.9231(10) 0.3368(12) 0.1692(3)
H5_8 H 0.9192 0.3252 0.1542
C14_8 C 0.9541(10) 0.3939(10) 0.1772(3)
H6_8 H 0.9760 0.4303 0.1690
C15_8 C 0.9484(9) 0.3903(10) 0.2008(3)
C16_8 C 0.9694(9) 0.4427(10) 0.2149(3)
C17_8 C 0.9593(10) 0.4446(10) 0.2372(4)
C18_8 C 0.9806(10) 0.4967(10) 0.2521(3)
C19_8 C 0.9663(9) 0.4760(10) 0.2721(4)
H8_8 H 0.9748 0.5015 0.2852
C20_8 C 0.9356(10) 0.4083(10) 0.2702(3)
C21_8 C 0.9289(13) 0.3914(15) 0.3110(4)
C22_8 C 0.8785(13) 0.4285(14) 0.3215(3)
H9_8 H 0.8363 0.4397 0.3139
C23_8 C 0.8860(13) 0.4511(14) 0.3431(3)
H10_8 H 0.8501 0.4771 0.3503
C24_8 C 0.9488(13) 0.4334(15) 0.3535(4)
C26_8 C 0.9880(13) 0.3845(14) 0.3213(3)
C27_8 C 0.9555(14) 0.4526(18) 0.3794(5)
C28_8 C 0.7920(10) 0.0808(11) 0.2687(3)
C29_8 C 0.7339(9) 0.0800(11) 0.2837(3)
H13_8 H 0.7087 0.1220 0.2869
C30_8 C 0.7157(10) 0.0180(12) 0.2932(3)
H14_8 H 0.6778 0.0170 0.3033
C33_8 C 0.8258(11) 0.0186(11) 0.2632(4)
H16_8 H 0.8630 0.0184 0.2528
C36_8 C 0.9770(11) 0.5695(12) 0.2027(3)
H17_8 H 0.9277 0.5744 0.2048
H18_8 H 0.9964 0.6706 0.1932
C42_8 C 0.8407(10) 0.2025(12) 0.1633(3)
C43_8 C 0.8676(11) 0.1374(12) 0.1574(4)
H21_8 H 0.9014 0.1154 0.1666
C44_8 C 0.8468(12) 0.1042(11) 0.1388(4)
H22_8 H 0.8679 0.0608 0.1347
C45_8 C 0.7950(12) 0.1336(13) 0.1260(3)
C46_8 C 0.7715(11) 0.2004(14) 0.1307(3)
H23_7 H 0.7398 0.2229 0.1209
C47_8 C 0.7930(11) 0.2364(11) 0.1497(4)
H24_8 H 0.7755 0.2821 0.1530
C48_8 C 0.7664(14) 0.0927(16) 0.1066(3)
N1_8 N 0.9301(7) 0.3878(8) 0.2492(2)
N2_8 N 0.8712(7) 0.2633(8) 0.2680(2)
N3_8 N 0.8474(7) 0.2105(8) 0.2249(3)
N4_8 N 0.9139(7) 0.3302(8) 0.2063(2)
O1_8 O 0.9118(16) 0.4888(14) 0.3869(4)
O8_7 O 0.7164(8) 0.1249(8) 0.0959(2)
O9_8 O 0.7877(9) 0.0360(10) 0.1021(3)
C49_8 C 0.3855(17) 0.6654(13) 0.4617(4)
C50_8 C 0.4538(10) 0.6369(9) 0.4630(3)
C51_8 C 0.4970(12) 0.6217(11) 0.4446(3)
H25_8 H 0.4859 0.6293 0.4296
C52_8 C 0.5563(12) 0.5944(10) 0.4528(3)
H26_8 H 0.5956 0.5784 0.4445
C53_8 C 0.5503(11) 0.5937(9) 0.4760(3)
C54_8 C 0.6005(10) 0.5669(9) 0.4905(3)
C55_8 C 0.5929(11) 0.5632(9) 0.5134(3)
C56_8 C 0.6372(10) 0.5268(9) 0.5280(4)
H27_7 H 0.6766 0.4986 0.5241
C57_8 C 0.6149(11) 0.5385(10) 0.5484(3)
H28_8 H 0.6353 0.5209 0.5614
C58_8 C 0.5524(9) 0.5840(8) 0.5465(3)
C59_8 C 0.5154(10) 0.6084(9) 0.5646(3)
C60_8 C 0.4547(10) 0.6464(9) 0.5630(3)
C61_8 C 0.4132(12) 0.6731(10) 0.5808(3)
H29_8 H 0.4248 0.6692 0.5958
C62_8 C 0.3561(10) 0.7041(10) 0.5728(3)
H30_8 H 0.3197 0.7260 0.5810
C63_8 C 0.3597(10) 0.6984(9) 0.5492(3)
C64_8 C 0.3073(10) 0.7194(9) 0.5351(3)
C65_8 C 0.3054(10) 0.7093(10) 0.5128(4)
C66_8 C 0.2533(10) 0.7306(10) 0.4979(3)
H31_8 H 0.2097 0.7521 0.5017
C67_8 C 0.2740(10) 0.7163(9) 0.4779(4)
H32_8 H 0.2485 0.7248 0.4648
C68_8 C 0.3417(10) 0.6856(10) 0.4798(3)
C69_8 C 0.3586(15) 0.6789(13) 0.4390(4)
C70_8 C 0.3215(14) 0.6285(13) 0.4285(3)
H33_8 H 0.3103 0.5863 0.4361
C71_8 C 0.2989(14) 0.6360(13) 0.4069(3)
H34_8 H 0.2729 0.6001 0.3997
C72_8 C 0.3166(15) 0.6988(13) 0.3965(4)
C73_8 C 0.3419(14) 0.7512(13) 0.4082(4)
H35_8 H 0.3435 0.7976 0.4024
C74_8 C 0.3655(14) 0.7380(13) 0.4287(3)
H36_8 H 0.3892 0.7752 0.4360
C75_8 C 0.2974(18) 0.7055(14) 0.3706(5)
C76_8 C 0.6692(11) 0.5420(10) 0.4813(3)
C77_8 C 0.6700(11) 0.4839(9) 0.4663(3)
H37_8 H 0.6280 0.4587 0.4631
C78_8 C 0.7320(12) 0.4657(10) 0.4568(3)
H38_8 H 0.7330 0.4278 0.4467
C79_8 C 0.7944(11) 0.5016(11) 0.4617(3)
C80_8 C 0.7931(12) 0.5541(12) 0.4769(3)
H39_8 H 0.8360 0.5765 0.4808
C81_8 C 0.7314(11) 0.5758(11) 0.4868(4)
H40_8 H 0.7316 0.6130 0.4972
C82_8 C 0.8602(12) 0.4828(13) 0.4487(4)
C83_8 C 0.2458(9) 0.7614(12) 0.5437(3)
C84_8 C 0.1805(12) 0.7270(11) 0.5473(3)
H41_8 H 0.1756 0.6777 0.5452
C85_8 C 0.1239(10) 0.7678(12) 0.5542(3)
H42_8 H 0.0794 0.7464 0.5568
C86_8 C 0.1321(12) 0.8385(11) 0.5572(3)
C87_8 C 0.1974(12) 0.8717(11) 0.5539(3)
H43_8 H 0.2029 0.9208 0.5564
C88_8 C 0.2522(10) 0.8320(12) 0.5471(3)
H44_8 H 0.2965 0.8540 0.5446
C89_8 C 0.0674(13) 0.8837(14) 0.5638(3)
C90_8 C 0.5475(12) 0.5907(10) 0.5867(3)
C91_8 C 0.6126(12) 0.6176(11) 0.5926(4)
H45_8 H 0.6346 0.6514 0.5834
C92_8 C 0.6458(11) 0.5968(12) 0.6112(4)
H46_8 H 0.6892 0.6179 0.6153
C93_8 C 0.6164(13) 0.5450(12) 0.6240(3)
C94_8 C 0.5496(14) 0.5215(11) 0.6193(3)
H47_7 H 0.5271 0.4898 0.6291
C95_8 C 0.5136(11) 0.5430(11) 0.6003(4)
H48_8 H 0.4679 0.5255 0.5970
C96_8 C 0.6573(16) 0.5164(14) 0.6434(3)
Fe2_8 Fe 0.46316(14) 0.66462(14) 0.51236(4)
N5_8 N 0.3622(8) 0.6801(7) 0.5008(2)
N6_8 N 0.4867(8) 0.6212(7) 0.4820(2)
N7_8 N 0.5395(8) 0.5974(7) 0.5251(3)
N8_8 N 0.4198(8) 0.6639(7) 0.5437(2)
O10_8 O 0.2612(14) 0.6618(16) 0.3631(4)
O11_8 O 0.3030(15) 0.7617(13) 0.3638(3)
O12_8 O 0.8581(7) 0.4467(7) 0.4323(2)
O14_8 O 0.9159(9) 0.5095(11) 0.4557(3)
O23_7 O 0.6251(8) 0.4664(8) 0.6541(2)
O24_8 O 0.7140(10) 0.5377(9) 0.6479(3)
H49_8 H 0.779453 0.00343913 0.114537
H50_8 H 0.711322 0.589012 0.65101
C31_8 C 0.7516(11) 0.9556(11) 0.2883(3)
C32_8 C 0.8041(12) 0.9569(12) 0.2731(3)
H15_8 H 0.8265 0.9140 0.2692
C34_8 C 0.7328(13) 0.8898(12) 0.3013(4)
H50_9 H 0.339012 0.538678 0.59899
H49_9 H 0.753439 0.470547 0.135463
H49_10 H 0.746561 0.529453 0.635463
H50_10 H 0.160988 0.461322 0.0989903
H50_11 H 0.711322 0.0890123 0.34899
H49_11 H 0.779453 0.503439 0.885463
H49_12 H 0.720547 0.496561 0.385463
H50_12 H 0.788678 0.910988 0.84899
H50_13 H 0.839012 0.0386783 0.0989903
H49_13 H 0.253439 0.970547 0.635463
H49_14 H 0.246561 0.0294525 0.135463
H50_14 H 0.660988 0.961322 0.59899
H49_15 H 0.279453 0.00343913 0.385463
H50_15 H 0.211322 0.589012 0.84899
H49_16 H 0.220547 0.996561 0.885463
H50_16 H 0.288678 0.410988 0.34899
H27_8 H 0.1766 0.9986 0.0241
H47_8 H 0.0271 0.9898 0.1291
O23_8 O 0.1251(8) 0.9664(8) 0.1541(2)
H3_8 H 0.8234 0.0014 0.9759
H23_8 H 0.9729 0.0102 0.8709
O8_8 O 0.8749(8) 0.0336(8) 0.8459(2)
loop_
_geom_bond_atom_site_label_1
_geom_bond_atom_site_label_2
_geom_bond_site_symmetry_1
_geom_bond_site_symmetry_2
H2 C4 1_555 1_555
C5 C4 1_555 1_555
C6 C5 1_555 1_555
C28 C6 1_555 1_555
C29 C28 1_555 1_555
H13 C29 1_555 1_555
C30 C29 1_555 1_555
H14 C30 1_555 1_555
C31 C30 1_555 1_555
C32 C31 1_555 1_555
H15 C32 1_555 1_555
C33 C28 1_555 1_555
H16 C33 1_555 1_555
C34 C31 1_555 1_555
O3 C34 1_555 1_555
O4 C34 1_555 1_555
Cd3 O3 1_555 1_555
C32 C33 1_555 1_555
O4 Cd3 1_555 1_555
C8 C7 1_555 1_555
H3 C8 1_555 1_555
C9 C8 1_555 1_555
H4 C9 1_555 1_555
C10 C9 1_555 1_555
C11 C10 1_555 1_555
C42 C11 1_555 1_555
C43 C42 1_555 1_555
H21 C43 1_555 1_555
C44 C43 1_555 1_555
H22 C44 1_555 1_555
C45 C44 1_555 1_555
C46 C45 1_555 1_555
H23 C46 1_555 1_555
C47 C42 1_555 1_555
C48 C45 1_555 1_555
N3 C7 1_555 1_555
O8 C48 1_555 1_555
O9 C48 1_555 1_555
Fe3 O7 1_555 1_555
C10 N3 1_555 1_555
C46 C47 1_555 1_555
O9 H49 1_555 1_555
C1 C2 1_555 1_555
C2 C3 1_555 1_555
C3 H1 1_555 1_555
C19 C18 1_555 1_555
H8 C19 1_555 1_555
C20 C1 1_555 1_555
C21 C1 1_555 1_555
C22 C21 1_555 1_555
H9 C22 1_555 1_555
C23 C22 1_555 1_555
H10 C23 1_555 1_555
C24 C23 1_555 1_555
C25 C24 1_555 1_555
H11 C25 1_555 1_555
C26 C21 1_555 1_555
H12 C26 1_555 1_555
C27 C24 1_555 1_555
Cd1 O1 1_555 1_555
N2 C2 1_555 1_555
O1 C27 1_555 1_555
O2 C27 1_555 1_555
C49 C50 1_555 1_555
C50 C51 1_555 1_555
C51 H25 1_555 1_555
C52 C51 1_555 1_555
H26 C52 1_555 1_555
C53 C52 1_555 1_555
C54 C53 1_555 1_555
C55 C54 1_555 1_555
C56 C55 1_555 1_555
H27 C56 1_555 1_555
C57 C56 1_555 1_555
H28 C57 1_555 1_555
C58 C57 1_555 1_555
C59 C58 1_555 1_555
C60 C59 1_555 1_555
C61 C60 1_555 1_555
H29 C61 1_555 1_555
C62 C61 1_555 1_555
H30 C62 1_555 1_555
C63 C62 1_555 1_555
C64 C63 1_555 1_555
C65 C64 1_555 1_555
C66 C65 1_555 1_555
C67 C66 1_555 1_555
C68 C49 1_555 1_555
C69 C49 1_555 1_555
C70 C69 1_555 1_555
H33 C70 1_555 1_555
C71 C70 1_555 1_555
H34 C71 1_555 1_555
C72 C71 1_555 1_555
C73 C72 1_555 1_555
H35 C73 1_555 1_555
C74 C69 1_555 1_555
H36 C74 1_555 1_555
C75 C72 1_555 1_555
C76 C54 1_555 1_555
C77 C76 1_555 1_555
H37 C77 1_555 1_555
C78 C77 1_555 1_555
H38 C78 1_555 1_555
C79 C78 1_555 1_555
C80 C79 1_555 1_555
H39 C80 1_555 1_555
C81 C76 1_555 1_555
H40 C81 1_555 1_555
C82 C79 1_555 1_555
H44 C88 1_555 1_555
C90 C59 1_555 1_555
C91 C90 1_555 1_555
H45 C91 1_555 1_555
C92 C91 1_555 1_555
H46 C92 1_555 1_555
C93 C92 1_555 1_555
C94 C93 1_555 1_555
H47 C94 1_555 1_555
C95 C90 1_555 1_555
H48 C95 1_555 1_555
C96 C93 1_555 1_555
Cd2 O10 1_555 1_555
Fe2 N5 1_555 1_555
N5 C65 1_555 1_555
N6 C50 1_555 1_555
N7 C55 1_555 1_555
N8 C60 1_555 1_555
O10 C75 1_555 1_555
O11 C75 1_555 1_555
O12 Cd1 1_555 1_555
O13 Cd2 1_555 1_555
O14 Cd1 1_555 1_555
O17 Cd1 1_555 1_555
O18 Cd2 1_555 1_555
O20 Cd1 1_555 1_555
O21 Cd2 1_555 1_555
O22 Fe2 1_555 1_555
O23 C96 1_555 1_555
O24 C96 1_555 1_555
C19 C20 1_555 1_555
C25 C26 1_555 1_555
Cd1 O2 1_555 1_555
C53 N6 1_555 1_555
C58 N7 1_555 1_555
C63 N8 1_555 1_555
C67 C68 1_555 1_555
C68 N5 1_555 1_555
C73 C74 1_555 1_555
C80 C81 1_555 1_555
C82 O12 1_555 1_555
C82 O14 1_555 1_555
C94 C95 1_555 1_555
Cd2 O11 1_555 1_555
Fe2 N6 1_555 1_555
Fe2 N7 1_555 1_555
Fe2 N8 1_555 1_555
O24 H50 1_555 1_555
C13 C12 1_555 1_555
H5 C13 1_555 1_555
C14 C13 1_555 1_555
H6 C14 1_555 1_555
C15 C14 1_555 1_555
C16 C15 1_555 1_555
C17 C16 1_555 1_555
C35 C16 1_555 1_555
C36 C35 1_555 1_555
H17 C36 1_555 1_555
C37 C36 1_555 1_555
H18 C37 1_555 1_555
C38 C37 1_555 1_555
C39 C38 1_555 1_555
H19 C39 1_555 1_555
C40 C35 1_555 1_555
H20 C40 1_555 1_555
C41 C38 1_555 1_555
Fe1 N1 1_555 1_555
N1 C17 1_555 1_555
N4 C12 1_555 1_555
O5 C41 1_555 1_555
O6 C41 1_555 1_555
O7_2 Fe1 1_555 1_555
Cd4 O5 1_555 1_555
C15 N4 1_555 1_555
C39 C40 1_555 1_555
Fe1 N4 1_555 1_555
O6 Cd4 1_555 1_555
C84 C83 1_555 1_555
H41 C84 1_555 1_555
C85 C84 1_555 1_555
H42 C85 1_555 1_555
C86 C85 1_555 1_555
C87 C86 1_555 1_555
H43 C87 1_555 1_555
C89 C86 1_555 1_555
Cd5 O16 1_555 1_555
O16 C89 1_555 1_555
O19 C89 1_555 1_555
Cd5 O19 1_555 1_555
C86_2 C85_2 1_555 1_555
C87_2 C86_2 1_555 1_555
H43_2 C87_2 1_555 1_555
C89_2 C86_2 1_555 1_555
Cd5_2 O16_2 1_555 1_555
O16_2 C89_2 1_555 1_555
O19_2 C89_2 1_555 1_555
Cd5_2 O19_2 1_555 1_555
H35_2 C73_2 1_555 1_555
H44_2 C88_2 1_555 1_555
H41_2 C84_2 1_555 1_555
C1_2 C2_2 1_555 1_555
C2_2 C3_2 1_555 1_555
C3_2 H1_2 1_555 1_555
C4_2 C3_2 1_555 1_555
H2_2 C4_2 1_555 1_555
C5_2 C4_2 1_555 1_555
C6_2 C5_2 1_555 1_555
C7_2 C6_2 1_555 1_555
C8_2 C7_2 1_555 1_555
H3_2 C8_2 1_555 1_555
C9_2 C8_2 1_555 1_555
H4_2 C9_2 1_555 1_555
C10_2 C9_2 1_555 1_555
C11_2 C10_2 1_555 1_555
C12_2 C11_2 1_555 1_555
C13_2 C12_2 1_555 1_555
H5_2 C13_2 1_555 1_555
C14_2 C13_2 1_555 1_555
H6_2 C14_2 1_555 1_555
C15_2 C14_2 1_555 1_555
C16_2 C15_2 1_555 1_555
C17_2 C16_2 1_555 1_555
C18_2 C17_2 1_555 1_555
H7_2 C18_2 1_555 1_555
C19_2 C18_2 1_555 1_555
H8_2 C19_2 1_555 1_555
C20_2 C1_2 1_555 1_555
C21_2 C1_2 1_555 1_555
C22_2 C21_2 1_555 1_555
H9_2 C22_2 1_555 1_555
C23_2 C22_2 1_555 1_555
H10_2 C23_2 1_555 1_555
C24_2 C23_2 1_555 1_555
C25_2 C24_2 1_555 1_555
H11_2 C25_2 1_555 1_555
C26_2 C21_2 1_555 1_555
H12_2 C26_2 1_555 1_555
C27_2 C24_2 1_555 1_555
C28_2 C6_2 1_555 1_555
C29_2 C28_2 1_555 1_555
H13_2 C29_2 1_555 1_555
C30_2 C29_2 1_555 1_555
H14_2 C30_2 1_555 1_555
C31_2 C30_2 1_555 1_555
C32_2 C31_2 1_555 1_555
H15_2 C32_2 1_555 1_555
C33_2 C28_2 1_555 1_555
H16_2 C33_2 1_555 1_555
C34_2 C31_2 1_555 1_555
C35_2 C16_2 1_555 1_555
C36_2 C35_2 1_555 1_555
H17_2 C36_2 1_555 1_555
C37_2 C36_2 1_555 1_555
H18_2 C37_2 1_555 1_555
C38_2 C37_2 1_555 1_555
C39_2 C38_2 1_555 1_555
H19_2 C39_2 1_555 1_555
C40_2 C35_2 1_555 1_555
H20_2 C40_2 1_555 1_555
C41_2 C38_2 1_555 1_555
C42_2 C11_2 1_555 1_555
C43_2 C42_2 1_555 1_555
H21_2 C43_2 1_555 1_555
C44_2 C43_2 1_555 1_555
H22_2 C44_2 1_555 1_555
C45_2 C44_2 1_555 1_555
C46_2 C45_2 1_555 1_555
H23_2 C46_2 1_555 1_555
C47_2 C42_2 1_555 1_555
H24_2 C47_2 1_555 1_555
C48_2 C45_2 1_555 1_555
Cd1_2 O1_2 1_555 1_555
Fe1_2 N1_2 1_555 1_555
N1_2 C17_2 1_555 1_555
N2_2 C2_2 1_555 1_555
N3_2 C7_2 1_555 1_555
N4_2 C12_2 1_555 1_555
O1_2 C27_2 1_555 1_555
O2_2 C27_2 1_555 1_555
O3_2 C34_2 1_555 1_555
O4_2 C34_2 1_555 1_555
O5_2 C41_2 1_555 1_555
O6_2 C41_2 1_555 1_555
O7_3 Fe1_2 1_555 1_555
O8_2 C48_2 1_555 1_555
O9_2 C48_2 1_555 1_555
C49_2 C50_2 1_555 1_555
C50_2 C51_2 1_555 1_555
C51_2 H25_2 1_555 1_555
C52_2 C51_2 1_555 1_555
H26_2 C52_2 1_555 1_555
C53_2 C52_2 1_555 1_555
C54_2 C53_2 1_555 1_555
C55_2 C54_2 1_555 1_555
C56_2 C55_2 1_555 1_555
H27_2 C56_2 1_555 1_555
C57_2 C56_2 1_555 1_555
H28_2 C57_2 1_555 1_555
C58_2 C57_2 1_555 1_555
C59_2 C58_2 1_555 1_555
C60_2 C59_2 1_555 1_555
C61_2 C60_2 1_555 1_555
H29_2 C61_2 1_555 1_555
C62_2 C61_2 1_555 1_555
H30_2 C62_2 1_555 1_555
C63_2 C62_2 1_555 1_555
C64_2 C63_2 1_555 1_555
C65_2 C64_2 1_555 1_555
C66_2 C65_2 1_555 1_555
C67_2 C66_2 1_555 1_555
C68_2 C49_2 1_555 1_555
C69_2 C49_2 1_555 1_555
C70_2 C69_2 1_555 1_555
H33_2 C70_2 1_555 1_555
C71_2 C70_2 1_555 1_555
H34_2 C71_2 1_555 1_555
C72_2 C71_2 1_555 1_555
C74_2 C69_2 1_555 1_555
C75_2 C72_2 1_555 1_555
C76_2 C54_2 1_555 1_555
C77_2 C76_2 1_555 1_555
H37_2 C77_2 1_555 1_555
C78_2 C77_2 1_555 1_555
H38_2 C78_2 1_555 1_555
C79_2 C78_2 1_555 1_555
C80_2 C79_2 1_555 1_555
H39_2 C80_2 1_555 1_555
C81_2 C76_2 1_555 1_555
H40_2 C81_2 1_555 1_555
C82_2 C79_2 1_555 1_555
C90_2 C59_2 1_555 1_555
C91_2 C90_2 1_555 1_555
H45_2 C91_2 1_555 1_555
C92_2 C91_2 1_555 1_555
H46_2 C92_2 1_555 1_555
C93_2 C92_2 1_555 1_555
C94_2 C93_2 1_555 1_555
H47_2 C94_2 1_555 1_555
C95_2 C90_2 1_555 1_555
H48_2 C95_2 1_555 1_555
C96_2 C93_2 1_555 1_555
Cd2_2 O10_2 1_555 1_555
Cd3_2 O3_2 1_555 1_555
Fe2_2 N5_2 1_555 1_555
Fe3_2 O7_3 1_555 1_555
N5_2 C65_2 1_555 1_555
N6_2 C50_2 1_555 1_555
N7_2 C55_2 1_555 1_555
N8_2 C60_2 1_555 1_555
O10_2 C75_2 1_555 1_555
O12_2 Cd1_2 1_555 1_555
O13_2 Cd2_2 1_555 1_555
O14_2 Cd1_2 1_555 1_555
O17_2 Cd1_2 1_555 1_555
O20_2 Cd1_2 1_555 1_555
O22_3 Fe2_2 1_555 1_555
O23_2 C96_2 1_555 1_555
O24_2 C96_2 1_555 1_555
C5_2 N2_2 1_555 1_555
C10_2 N3_2 1_555 1_555
C15_2 N4_2 1_555 1_555
C19_2 C20_2 1_555 1_555
C20_2 N1_2 1_555 1_555
C25_2 C26_2 1_555 1_555
C32_2 C33_2 1_555 1_555
C39_2 C40_2 1_555 1_555
C46_2 C47_2 1_555 1_555
Cd1_2 O2_2 1_555 1_555
Fe1_2 N2_2 1_555 1_555
Fe1_2 N3_2 1_555 1_555
Fe1_2 N4_2 1_555 1_555
O4_2 Cd3_2 1_555 1_555
C53_2 N6_2 1_555 1_555
C58_2 N7_2 1_555 1_555
C63_2 N8_2 1_555 1_555
C67_2 C68_2 1_555 1_555
C68_2 N5_2 1_555 1_555
C80_2 C81_2 1_555 1_555
C82_2 O12_2 1_555 1_555
C82_2 O14_2 1_555 1_555
C94_2 C95_2 1_555 1_555
Fe2_2 N6_2 1_555 1_555
Fe2_2 N7_2 1_555 1_555
Fe2_2 N8_2 1_555 1_555
O9_2 H49_2 1_555 1_555
O24_2 H50_2 1_555 1_555
C1_3 C2_3 1_555 1_555
C2_3 C3_3 1_555 1_555
C3_3 H1_3 1_555 1_555
C4_3 C3_3 1_555 1_555
H2_3 C4_3 1_555 1_555
C5_3 C4_3 1_555 1_555
C6_3 C5_3 1_555 1_555
C7_3 C6_3 1_555 1_555
C8_3 C7_3 1_555 1_555
H3_3 C8_3 1_555 1_555
C9_3 C8_3 1_555 1_555
H4_3 C9_3 1_555 1_555
C10_3 C9_3 1_555 1_555
C11_3 C10_3 1_555 1_555
C12_3 C11_3 1_555 1_555
C13_3 C12_3 1_555 1_555
H5_3 C13_3 1_555 1_555
C14_3 C13_3 1_555 1_555
H6_3 C14_3 1_555 1_555
C15_3 C14_3 1_555 1_555
C16_3 C15_3 1_555 1_555
C17_3 C16_3 1_555 1_555
C18_3 C17_3 1_555 1_555
C19_3 C18_3 1_555 1_555
C20_3 C1_3 1_555 1_555
C21_3 C1_3 1_555 1_555
C22_3 C21_3 1_555 1_555
H9_3 C22_3 1_555 1_555
C23_3 C22_3 1_555 1_555
H10_3 C23_3 1_555 1_555
C24_3 C23_3 1_555 1_555
C26_3 C21_3 1_555 1_555
C27_3 C24_3 1_555 1_555
C28_3 C6_3 1_555 1_555
C29_3 C28_3 1_555 1_555
H13_3 C29_3 1_555 1_555
C30_3 C29_3 1_555 1_555
H14_3 C30_3 1_555 1_555
C31_3 C30_3 1_555 1_555
C32_3 C31_3 1_555 1_555
H15_3 C32_3 1_555 1_555
C33_3 C28_3 1_555 1_555
H16_3 C33_3 1_555 1_555
C34_3 C31_3 1_555 1_555
C42_3 C11_3 1_555 1_555
C43_3 C42_3 1_555 1_555
H21_3 C43_3 1_555 1_555
C44_3 C43_3 1_555 1_555
H22_3 C44_3 1_555 1_555
C45_3 C44_3 1_555 1_555
C46_3 C45_3 1_555 1_555
H23_3 C46_3 1_555 1_555
C47_3 C42_3 1_555 1_555
H24_3 C47_3 1_555 1_555
C48_3 C45_3 1_555 1_555
Cd4_2 O1_3 1_555 1_555
Fe1_3 N1_3 1_555 1_555
N1_3 C17_3 1_555 1_555
N2_3 C2_3 1_555 1_555
N3_3 C7_3 1_555 1_555
N4_3 C12_3 1_555 1_555
O1_3 C27_3 1_555 1_555
O3_3 C34_3 1_555 1_555
O4_3 C34_3 1_555 1_555
O7_4 Fe1_3 1_555 1_555
O8_3 C48_3 1_555 1_555
O9_3 C48_3 1_555 1_555
H37_3 C77_3 1_555 1_555
C78_3 C77_3 1_555 1_555
H38_3 C78_3 1_555 1_555
Cd5 O3_3 1_555 1_555
O12_3 Cd4_2 1_555 1_555
C5_3 N2_3 1_555 1_555
C10_3 N3_3 1_555 1_555
C15_3 N4_3 1_555 1_555
C19_3 C20_3 1_555 1_555
C20_3 N1_3 1_555 1_555
C32_3 C33_3 1_555 1_555
C46_3 C47_3 1_555 1_555
Fe1_3 N2_3 1_555 1_555
Fe1_3 N3_3 1_555 1_555
Fe1_3 N4_3 1_555 1_555
O4_3 Cd5 1_555 1_555
C82_3 O12_3 1_555 1_555
O9_3 H49_3 1_555 1_555
H17_3 C36_3 1_555 1_555
C49_3 C50_3 1_555 1_555
C50_3 C51_3 1_555 1_555
C51_3 H25_3 1_555 1_555
C52_3 C51_3 1_555 1_555
H26_3 C52_3 1_555 1_555
C53_3 C52_3 1_555 1_555
C54_3 C53_3 1_555 1_555
C55_3 C54_3 1_555 1_555
C56_3 C55_3 1_555 1_555
C57_3 C56_3 1_555 1_555
H28_3 C57_3 1_555 1_555
C58_3 C57_3 1_555 1_555
C59_3 C58_3 1_555 1_555
C60_3 C59_3 1_555 1_555
C61_3 C60_3 1_555 1_555
H29_3 C61_3 1_555 1_555
C62_3 C61_3 1_555 1_555
H30_3 C62_3 1_555 1_555
C63_3 C62_3 1_555 1_555
C64_3 C63_3 1_555 1_555
C65_3 C64_3 1_555 1_555
C66_3 C65_3 1_555 1_555
H31_3 C66_3 1_555 1_555
C67_3 C66_3 1_555 1_555
H32_3 C67_3 1_555 1_555
C68_3 C49_3 1_555 1_555
C69_3 C49_3 1_555 1_555
C70_3 C69_3 1_555 1_555
H33_3 C70_3 1_555 1_555
C71_3 C70_3 1_555 1_555
H34_3 C71_3 1_555 1_555
C72_3 C71_3 1_555 1_555
C73_3 C72_3 1_555 1_555
H35_3 C73_3 1_555 1_555
C74_3 C69_3 1_555 1_555
H36_3 C74_3 1_555 1_555
C75_3 C72_3 1_555 1_555
C76_3 C54_3 1_555 1_555
C80_3 C79_3 1_555 1_555
H39_3 C80_3 1_555 1_555
C81_3 C76_3 1_555 1_555
H40_3 C81_3 1_555 1_555
C83_3 C64_3 1_555 1_555
C84_3 C83_3 1_555 1_555
H41_3 C84_3 1_555 1_555
C85_3 C84_3 1_555 1_555
H42_3 C85_3 1_555 1_555
C86_3 C85_3 1_555 1_555
C87_3 C86_3 1_555 1_555
H43_3 C87_3 1_555 1_555
C88_3 C83_3 1_555 1_555
H44_3 C88_3 1_555 1_555
C89_3 C86_3 1_555 1_555
C90_3 C59_3 1_555 1_555
C91_3 C90_3 1_555 1_555
H45_3 C91_3 1_555 1_555
C92_3 C91_3 1_555 1_555
H46_3 C92_3 1_555 1_555
C93_3 C92_3 1_555 1_555
C94_3 C93_3 1_555 1_555
C95_3 C90_3 1_555 1_555
H48_3 C95_3 1_555 1_555
C96_3 C93_3 1_555 1_555
Cd2_3 O10_3 1_555 1_555
Fe2_3 N5_3 1_555 1_555
N5_3 C65_3 1_555 1_555
N6_3 C50_3 1_555 1_555
N7_3 C55_3 1_555 1_555
N8_3 C60_3 1_555 1_555
O10_3 C75_3 1_555 1_555
O11_3 C75_3 1_555 1_555
O13_3 Cd2_3 1_555 1_555
O15_3 Cd2_3 1_555 1_555
O16_3 C89_3 1_555 1_555
O18_3 Cd2_3 1_555 1_555
O19_3 C89_3 1_555 1_555
O21_3 Cd2_3 1_555 1_555
O22_4 Fe2_3 1_555 1_555
O24_3 C96_3 1_555 1_555
C53_3 N6_3 1_555 1_555
C58_3 N7_3 1_555 1_555
C63_3 N8_3 1_555 1_555
C67_3 C68_3 1_555 1_555
C68_3 N5_3 1_555 1_555
C73_3 C74_3 1_555 1_555
C80_3 C81_3 1_555 1_555
C87_3 C88_3 1_555 1_555
C94_3 C95_3 1_555 1_555
Cd2_3 O11_3 1_555 1_555
Fe2_3 N6_3 1_555 1_555
Fe2_3 N7_3 1_555 1_555
Fe2_3 N8_3 1_555 1_555
O24_3 H50_3 1_555 1_555
H11_3 C25_3 1_555 1_555
H20_3 C40_3 1_555 1_555
Fe3_3 O7_5 1_555 1_555
C38_3 C37_3 1_555 1_555
C39_3 C38_3 1_555 1_555
H19_3 C39_3 1_555 1_555
C41_3 C38_3 1_555 1_555
O17 C41_3 1_555 1_555
O20 C41_3 1_555 1_555
C56_4 C55_4 1_555 1_555
C57_4 C56_4 1_555 1_555
H28_4 C57_4 1_555 1_555
C58_4 C57_4 1_555 1_555
C59_4 C58_4 1_555 1_555
C90_4 C59_4 1_555 1_555
C91_4 C90_4 1_555 1_555
H45_4 C91_4 1_555 1_555
C92_4 C91_4 1_555 1_555
H46_4 C92_4 1_555 1_555
C93_4 C92_4 1_555 1_555
C94_4 C93_4 1_555 1_555
C95_4 C90_4 1_555 1_555
C96_4 C93_4 1_555 1_555
N7_4 C55_4 1_555 1_555
O24_4 C96_4 1_555 1_555
C58_4 N7_4 1_555 1_555
C94_4 C95_4 1_555 1_555
O24_4 H50_4 1_555 1_555
C36_4 C35_4 1_555 1_555
H17_4 C36_4 1_555 1_555
C37_4 C36_4 1_555 1_555
H18_4 C37_4 1_555 1_555
C38_4 C37_4 1_555 1_555
C39_4 C38_4 1_555 1_555
H19_4 C39_4 1_555 1_555
C41_4 C38_4 1_555 1_555
O17_2 C41_4 1_555 1_555
O20_2 C41_4 1_555 1_555
H26_4 C52_4 1_555 1_555
C53_4 C52_4 1_555 1_555
C54_4 C53_4 1_555 1_555
C76_4 C54_4 1_555 1_555
C80_4 C79_4 1_555 1_555
H39_4 C80_4 1_555 1_555
C81_4 C76_4 1_555 1_555
H40_4 C81_4 1_555 1_555
C80_4 C81_4 1_555 1_555
C1_4 C2_4 1_555 1_555
C2_4 C3_4 1_555 1_555
C3_4 H1_4 1_555 1_555
C4_4 C3_4 1_555 1_555
H2_4 C4_4 1_555 1_555
C5_4 C4_4 1_555 1_555
C6_4 C5_4 1_555 1_555
C7_4 C6_4 1_555 1_555
C8_4 C7_4 1_555 1_555
H3_4 C8_4 1_555 1_555
C9_4 C8_4 1_555 1_555
H4_4 C9_4 1_555 1_555
C10_4 C9_4 1_555 1_555
C11_4 C10_4 1_555 1_555
C12_4 C11_4 1_555 1_555
C13_4 C12_4 1_555 1_555
H5_4 C13_4 1_555 1_555
C14_4 C13_4 1_555 1_555
H6_4 C14_4 1_555 1_555
C15_4 C14_4 1_555 1_555
C16_4 C15_4 1_555 1_555
C17_4 C16_4 1_555 1_555
C18_4 C17_4 1_555 1_555
C19_4 C18_4 1_555 1_555
C20_4 C1_4 1_555 1_555
C21_4 C1_4 1_555 1_555
C22_4 C21_4 1_555 1_555
H9_4 C22_4 1_555 1_555
C23_4 C22_4 1_555 1_555
H10_4 C23_4 1_555 1_555
C24_4 C23_4 1_555 1_555
C25_4 C24_4 1_555 1_555
H11_4 C25_4 1_555 1_555
C26_4 C21_4 1_555 1_555
H12_4 C26_4 1_555 1_555
C27_4 C24_4 1_555 1_555
C28_4 C6_4 1_555 1_555
C29_4 C28_4 1_555 1_555
H13_4 C29_4 1_555 1_555
C30_4 C29_4 1_555 1_555
H14_4 C30_4 1_555 1_555
C31_4 C30_4 1_555 1_555
C32_4 C31_4 1_555 1_555
H15_4 C32_4 1_555 1_555
C33_4 C28_4 1_555 1_555
H16_4 C33_4 1_555 1_555
C34_4 C31_4 1_555 1_555
H20_4 C40_4 1_555 1_555
C42_4 C11_4 1_555 1_555
C43_4 C42_4 1_555 1_555
H21_4 C43_4 1_555 1_555
C44_4 C43_4 1_555 1_555
H22_4 C44_4 1_555 1_555
C45_4 C44_4 1_555 1_555
C46_4 C45_4 1_555 1_555
H23_4 C46_4 1_555 1_555
C47_4 C42_4 1_555 1_555
H24_4 C47_4 1_555 1_555
C48_4 C45_4 1_555 1_555
Cd4 O1_4 1_555 1_555
Fe1_4 N1_4 1_555 1_555
N1_4 C17_4 1_555 1_555
N2_4 C2_4 1_555 1_555
N3_4 C7_4 1_555 1_555
N4_4 C12_4 1_555 1_555
O1_4 C27_4 1_555 1_555
O2_4 C27_4 1_555 1_555
O3_4 C34_4 1_555 1_555
O4_4 C34_4 1_555 1_555
O7_6 Fe1_4 1_555 1_555
O8_4 C48_4 1_555 1_555
O9_4 C48_4 1_555 1_555
H37_4 C77_4 1_555 1_555
C78_4 C77_4 1_555 1_555
H38_4 C78_4 1_555 1_555
Cd5_2 O3_4 1_555 1_555
Fe3_4 O7_6 1_555 1_555
O12_4 Cd4 1_555 1_555
C5_4 N2_4 1_555 1_555
C10_4 N3_4 1_555 1_555
C15_4 N4_4 1_555 1_555
C19_4 C20_4 1_555 1_555
C20_4 N1_4 1_555 1_555
C25_4 C26_4 1_555 1_555
C32_4 C33_4 1_555 1_555
C46_4 C47_4 1_555 1_555
Cd4 O2_4 1_555 1_555
Fe1_4 N2_4 1_555 1_555
Fe1_4 N3_4 1_555 1_555
Fe1_4 N4_4 1_555 1_555
O4_4 Cd5_2 1_555 1_555
C82_4 O12_4 1_555 1_555
O9_4 H49_4 1_555 1_555
C61_4 C60_4 1_555 1_555
H29_4 C61_4 1_555 1_555
C62_4 C61_4 1_555 1_555
H30_4 C62_4 1_555 1_555
C63_4 C62_4 1_555 1_555
C64_4 C63_4 1_555 1_555
C65_4 C64_4 1_555 1_555
C83_4 C64_4 1_555 1_555
C84_4 C83_4 1_555 1_555
H41_4 C84_4 1_555 1_555
C85_4 C84_4 1_555 1_555
H42_4 C85_4 1_555 1_555
C86_4 C85_4 1_555 1_555
C87_4 C86_4 1_555 1_555
H43_4 C87_4 1_555 1_555
C88_4 C83_4 1_555 1_555
H44_4 C88_4 1_555 1_555
C89_4 C86_4 1_555 1_555
Cd3 O16_4 1_555 1_555
Fe2_4 N5_4 1_555 1_555
N5_4 C65_4 1_555 1_555
N8_4 C60_4 1_555 1_555
O16_4 C89_4 1_555 1_555
O19_4 C89_4 1_555 1_555
O22_6 Fe2_4 1_555 1_555
C63_4 N8_4 1_555 1_555
C87_4 C88_4 1_555 1_555
Cd3 O19_4 1_555 1_555
Fe2_4 N8_4 1_555 1_555
C49_4 C50_4 1_555 1_555
C50_4 C51_4 1_555 1_555
C51_4 H25_4 1_555 1_555
C67_4 C66_4 1_555 1_555
H32_4 C67_4 1_555 1_555
C68_4 C49_4 1_555 1_555
C69_4 C49_4 1_555 1_555
C70_4 C69_4 1_555 1_555
H33_4 C70_4 1_555 1_555
C71_4 C70_4 1_555 1_555
H34_4 C71_4 1_555 1_555
C72_4 C71_4 1_555 1_555
C73_4 C72_4 1_555 1_555
H35_4 C73_4 1_555 1_555
C74_4 C69_4 1_555 1_555
H36_4 C74_4 1_555 1_555
C75_4 C72_4 1_555 1_555
Cd2_4 O10_4 1_555 1_555
N6_4 C50_4 1_555 1_555
O10_4 C75_4 1_555 1_555
O11_4 C75_4 1_555 1_555
O13_4 Cd2_4 1_555 1_555
O15_4 Cd2_4 1_555 1_555
O18_4 Cd2_4 1_555 1_555
O21_4 Cd2_4 1_555 1_555
C67_4 C68_4 1_555 1_555
C73_4 C74_4 1_555 1_555
Cd2_4 O11_4 1_555 1_555
C1_5 C2_5 1_555 1_555
C2_5 C3_5 1_555 1_555
C3_5 H1_5 1_555 1_555
C4_5 C3_5 1_555 1_555
H2_5 C4_5 1_555 1_555
C5_5 C4_5 1_555 1_555
C6_5 C5_5 1_555 1_555
C7_5 C6_5 1_555 1_555
C8_5 C7_5 1_555 1_555
C9_5 C8_5 1_555 1_555
H4_5 C9_5 1_555 1_555
C10_5 C9_5 1_555 1_555
C11_5 C10_5 1_555 1_555
C12_5 C11_5 1_555 1_555
C13_5 C12_5 1_555 1_555
H5_5 C13_5 1_555 1_555
C14_5 C13_5 1_555 1_555
H6_5 C14_5 1_555 1_555
C15_5 C14_5 1_555 1_555
C16_5 C15_5 1_555 1_555
C17_5 C16_5 1_555 1_555
C18_5 C17_5 1_555 1_555
H7_5 C18_5 1_555 1_555
C19_5 C18_5 1_555 1_555
H8_5 C19_5 1_555 1_555
C20_5 C1_5 1_555 1_555
C21_5 C1_5 1_555 1_555
C22_5 C21_5 1_555 1_555
H9_5 C22_5 1_555 1_555
C23_5 C22_5 1_555 1_555
H10_5 C23_5 1_555 1_555
C24_5 C23_5 1_555 1_555
C25_5 C24_5 1_555 1_555
H11_5 C25_5 1_555 1_555
C26_5 C21_5 1_555 1_555
H12_5 C26_5 1_555 1_555
C27_5 C24_5 1_555 1_555
C28_5 C6_5 1_555 1_555
C32_5 C31_5 1_555 1_555
H15_5 C32_5 1_555 1_555
C33_5 C28_5 1_555 1_555
H16_5 C33_5 1_555 1_555
C35_5 C16_5 1_555 1_555
C36_5 C35_5 1_555 1_555
H17_5 C36_5 1_555 1_555
C37_5 C36_5 1_555 1_555
H18_5 C37_5 1_555 1_555
C38_5 C37_5 1_555 1_555
C39_5 C38_5 1_555 1_555
H19_5 C39_5 1_555 1_555
C40_5 C35_5 1_555 1_555
H20_5 C40_5 1_555 1_555
C41_5 C38_5 1_555 1_555
C42_5 C11_5 1_555 1_555
C43_5 C42_5 1_555 1_555
H21_5 C43_5 1_555 1_555
C44_5 C43_5 1_555 1_555
H22_5 C44_5 1_555 1_555
C45_5 C44_5 1_555 1_555
C46_5 C45_5 1_555 1_555
C47_5 C42_5 1_555 1_555
H24_5 C47_5 1_555 1_555
C48_5 C45_5 1_555 1_555
Cd1_3 O1_5 1_555 1_555
Fe3_2 N1_5 1_555 1_555
N1_5 C17_5 1_555 1_555
N2_5 C2_5 1_555 1_555
N3_5 C7_5 1_555 1_555
N4_5 C12_5 1_555 1_555
O1_5 C27_5 1_555 1_555
O2_5 C27_5 1_555 1_555
O5_3 C41_5 1_555 1_555
O6_3 C41_5 1_555 1_555
O9_5 C48_5 1_555 1_555
C80_5 C79_5 1_555 1_555
H39_5 C80_5 1_555 1_555
C82_5 C79_5 1_555 1_555
O12_5 Cd1_3 1_555 1_555
O14_5 Cd1_3 1_555 1_555
O17_3 Cd1_3 1_555 1_555
O20_3 Cd1_3 1_555 1_555
C5_5 N2_5 1_555 1_555
C10_5 N3_5 1_555 1_555
C15_5 N4_5 1_555 1_555
C19_5 C20_5 1_555 1_555
C20_5 N1_5 1_555 1_555
C25_5 C26_5 1_555 1_555
C32_5 C33_5 1_555 1_555
C39_5 C40_5 1_555 1_555
C46_5 C47_5 1_555 1_555
Cd1_3 O2_5 1_555 1_555
Fe3_2 N2_5 1_555 1_555
Fe3_2 N3_5 1_555 1_555
Fe3_2 N4_5 1_555 1_555
C82_5 O12_5 1_555 1_555
C82_5 O14_5 1_555 1_555
O9_5 H49_5 1_555 1_555
H13_5 C29_5 1_555 1_555
C30_5 C29_5 1_555 1_555
H14_5 C30_5 1_555 1_555
O13_2 C34_5 1_555 1_555
C49_5 C50_5 1_555 1_555
C50_5 C51_5 1_555 1_555
C51_5 H25_5 1_555 1_555
C52_5 C51_5 1_555 1_555
H26_5 C52_5 1_555 1_555
C53_5 C52_5 1_555 1_555
C54_5 C53_5 1_555 1_555
C55_5 C54_5 1_555 1_555
C56_5 C55_5 1_555 1_555
H27_4 C56_5 1_555 1_555
C57_5 C56_5 1_555 1_555
H28_5 C57_5 1_555 1_555
C58_5 C57_5 1_555 1_555
C59_5 C58_5 1_555 1_555
C60_5 C59_5 1_555 1_555
C61_5 C60_5 1_555 1_555
H29_5 C61_5 1_555 1_555
C62_5 C61_5 1_555 1_555
H30_5 C62_5 1_555 1_555
C63_5 C62_5 1_555 1_555
C64_5 C63_5 1_555 1_555
C65_5 C64_5 1_555 1_555
C66_5 C65_5 1_555 1_555
C67_5 C66_5 1_555 1_555
H32_5 C67_5 1_555 1_555
C68_5 C49_5 1_555 1_555
C69_5 C49_5 1_555 1_555
C70_5 C69_5 1_555 1_555
H33_5 C70_5 1_555 1_555
C71_5 C70_5 1_555 1_555
H34_5 C71_5 1_555 1_555
C72_5 C71_5 1_555 1_555
C74_5 C69_5 1_555 1_555
C75_5 C72_5 1_555 1_555
C76_5 C54_5 1_555 1_555
C77_5 C76_5 1_555 1_555
H37_5 C77_5 1_555 1_555
C78_5 C77_5 1_555 1_555
H38_5 C78_5 1_555 1_555
C81_5 C76_5 1_555 1_555
H40_5 C81_5 1_555 1_555
H41_5 C84_5 1_555 1_555
C90_5 C59_5 1_555 1_555
C91_5 C90_5 1_555 1_555
H45_5 C91_5 1_555 1_555
C92_5 C91_5 1_555 1_555
H46_5 C92_5 1_555 1_555
C93_5 C92_5 1_555 1_555
C94_5 C93_5 1_555 1_555
H47_4 C94_5 1_555 1_555
C95_5 C90_5 1_555 1_555
H48_5 C95_5 1_555 1_555
C96_5 C93_5 1_555 1_555
Cd3_2 O10_5 1_555 1_555
Fe2_5 N5_5 1_555 1_555
N5_5 C65_5 1_555 1_555
N6_5 C50_5 1_555 1_555
N7_5 C55_5 1_555 1_555
N8_5 C60_5 1_555 1_555
O10_5 C75_5 1_555 1_555
O22_2 Fe2_5 1_555 1_555
O23_4 C96_5 1_555 1_555
O24_5 C96_5 1_555 1_555
C53_5 N6_5 1_555 1_555
C58_5 N7_5 1_555 1_555
C63_5 N8_5 1_555 1_555
C67_5 C68_5 1_555 1_555
C68_5 N5_5 1_555 1_555
C94_5 C95_5 1_555 1_555
Fe2_5 N6_5 1_555 1_555
Fe2_5 N7_5 1_555 1_555
Fe2_5 N8_5 1_555 1_555
O24_5 H50_5 1_555 1_555
H35_5 C73_5 1_555 1_555
C86_5 C85_5 1_555 1_555
C87_5 C86_5 1_555 1_555
H43_5 C87_5 1_555 1_555
C88_5 C83_5 1_555 1_555
H44_5 C88_5 1_555 1_555
C89_5 C86_5 1_555 1_555
O18_4 C89_5 1_555 1_555
O21_4 C89_5 1_555 1_555
C87_5 C88_5 1_555 1_555
C49_6 C50_6 1_555 1_555
C50_6 C51_6 1_555 1_555
C51_6 H25_6 1_555 1_555
C52_6 C51_6 1_555 1_555
H26_6 C52_6 1_555 1_555
C53_6 C52_6 1_555 1_555
C54_6 C53_6 1_555 1_555
C55_6 C54_6 1_555 1_555
C56_6 C55_6 1_555 1_555
H27_5 C56_6 1_555 1_555
C57_6 C56_6 1_555 1_555
H28_6 C57_6 1_555 1_555
C58_6 C57_6 1_555 1_555
C59_6 C58_6 1_555 1_555
C60_6 C59_6 1_555 1_555
C61_6 C60_6 1_555 1_555
H29_6 C61_6 1_555 1_555
C62_6 C61_6 1_555 1_555
H30_6 C62_6 1_555 1_555
C63_6 C62_6 1_555 1_555
C64_6 C63_6 1_555 1_555
C65_6 C64_6 1_555 1_555
C66_6 C65_6 1_555 1_555
H31_6 C66_6 1_555 1_555
C67_6 C66_6 1_555 1_555
H32_6 C67_6 1_555 1_555
C68_6 C49_6 1_555 1_555
C69_6 C49_6 1_555 1_555
C70_6 C69_6 1_555 1_555
H33_6 C70_6 1_555 1_555
C71_6 C70_6 1_555 1_555
H34_6 C71_6 1_555 1_555
C72_6 C71_6 1_555 1_555
C73_6 C72_6 1_555 1_555
H35_6 C73_6 1_555 1_555
C74_6 C69_6 1_555 1_555
H36_6 C74_6 1_555 1_555
C75_6 C72_6 1_555 1_555
C76_6 C54_6 1_555 1_555
C77_6 C76_6 1_555 1_555
H37_6 C77_6 1_555 1_555
C78_6 C77_6 1_555 1_555
H38_6 C78_6 1_555 1_555
C81_6 C76_6 1_555 1_555
H40_6 C81_6 1_555 1_555
C83_6 C64_6 1_555 1_555
C84_6 C83_6 1_555 1_555
H41_6 C84_6 1_555 1_555
C85_6 C84_6 1_555 1_555
H42_6 C85_6 1_555 1_555
C86_6 C85_6 1_555 1_555
C87_6 C86_6 1_555 1_555
H43_6 C87_6 1_555 1_555
C88_6 C83_6 1_555 1_555
H44_6 C88_6 1_555 1_555
C89_6 C86_6 1_555 1_555
C90_6 C59_6 1_555 1_555
C91_6 C90_6 1_555 1_555
H45_6 C91_6 1_555 1_555
C92_6 C91_6 1_555 1_555
H46_6 C92_6 1_555 1_555
C93_6 C92_6 1_555 1_555
C94_6 C93_6 1_555 1_555
H47_5 C94_6 1_555 1_555
C95_6 C90_6 1_555 1_555
H48_6 C95_6 1_555 1_555
C96_6 C93_6 1_555 1_555
Cd3 O10_6 1_555 1_555
Fe2_6 N5_6 1_555 1_555
N5_6 C65_6 1_555 1_555
N6_6 C50_6 1_555 1_555
N7_6 C55_6 1_555 1_555
N8_6 C60_6 1_555 1_555
O10_6 C75_6 1_555 1_555
O11_6 C75_6 1_555 1_555
O18_3 C89_6 1_555 1_555
O21_3 C89_6 1_555 1_555
O22 Fe2_6 1_555 1_555
O23_5 C96_6 1_555 1_555
O24_6 C96_6 1_555 1_555
C53_6 N6_6 1_555 1_555
C58_6 N7_6 1_555 1_555
C63_6 N8_6 1_555 1_555
C67_6 C68_6 1_555 1_555
C68_6 N5_6 1_555 1_555
C73_6 C74_6 1_555 1_555
C87_6 C88_6 1_555 1_555
C94_6 C95_6 1_555 1_555
Cd3 O11_6 1_555 1_555
Fe2_6 N6_6 1_555 1_555
Fe2_6 N7_6 1_555 1_555
Fe2_6 N8_6 1_555 1_555
O24_6 H50_6 1_555 1_555
C1_6 C2_6 1_555 1_555
C2_6 C3_6 1_555 1_555
C3_6 H1_6 1_555 1_555
C19_6 C18_6 1_555 1_555
H8_6 C19_6 1_555 1_555
C20_6 C1_6 1_555 1_555
C21_6 C1_6 1_555 1_555
C22_6 C21_6 1_555 1_555
H9_6 C22_6 1_555 1_555
C23_6 C22_6 1_555 1_555
H10_6 C23_6 1_555 1_555
C24_6 C23_6 1_555 1_555
C25_6 C24_6 1_555 1_555
H11_6 C25_6 1_555 1_555
C26_6 C21_6 1_555 1_555
H12_6 C26_6 1_555 1_555
C27_6 C24_6 1_555 1_555
Cd1_4 O1_6 1_555 1_555
N2_6 C2_6 1_555 1_555
O1_6 C27_6 1_555 1_555
O2_6 C27_6 1_555 1_555
C80_6 C79_6 1_555 1_555
H39_6 C80_6 1_555 1_555
C82_6 C79_6 1_555 1_555
O12_6 Cd1_4 1_555 1_555
O14_6 Cd1_4 1_555 1_555
O17_4 Cd1_4 1_555 1_555
O20_4 Cd1_4 1_555 1_555
C19_6 C20_6 1_555 1_555
C25_6 C26_6 1_555 1_555
Cd1_4 O2_6 1_555 1_555
C82_6 O12_6 1_555 1_555
C82_6 O14_6 1_555 1_555
C13_6 C12_6 1_555 1_555
H5_6 C13_6 1_555 1_555
C14_6 C13_6 1_555 1_555
H6_6 C14_6 1_555 1_555
C15_6 C14_6 1_555 1_555
C16_6 C15_6 1_555 1_555
C17_6 C16_6 1_555 1_555
C35_6 C16_6 1_555 1_555
C36_6 C35_6 1_555 1_555
H17_6 C36_6 1_555 1_555
C37_6 C36_6 1_555 1_555
H18_6 C37_6 1_555 1_555
C38_6 C37_6 1_555 1_555
C39_6 C38_6 1_555 1_555
H19_6 C39_6 1_555 1_555
C40_6 C35_6 1_555 1_555
H20_6 C40_6 1_555 1_555
C41_6 C38_6 1_555 1_555
Fe3 N1_6 1_555 1_555
N1_6 C17_6 1_555 1_555
N4_6 C12_6 1_555 1_555
O5_4 C41_6 1_555 1_555
O6_4 C41_6 1_555 1_555
Cd4_4 O5_4 1_555 1_555
C15_6 N4_6 1_555 1_555
C39_6 C40_6 1_555 1_555
Fe3 N4_6 1_555 1_555
O6_4 Cd4_4 1_555 1_555
H13_6 C29_6 1_555 1_555
C30_6 C29_6 1_555 1_555
H14_6 C30_6 1_555 1_555
O13 C34_6 1_555 1_555
H2_6 C4_6 1_555 1_555
C5_6 C4_6 1_555 1_555
C6_6 C5_6 1_555 1_555
C28_6 C6_6 1_555 1_555
C32_6 C31_6 1_555 1_555
H15_6 C32_6 1_555 1_555
C33_6 C28_6 1_555 1_555
H16_6 C33_6 1_555 1_555
C32_6 C33_6 1_555 1_555
C8_6 C7_6 1_555 1_555
C9_6 C8_6 1_555 1_555
H4_6 C9_6 1_555 1_555
C10_6 C9_6 1_555 1_555
C11_6 C10_6 1_555 1_555
C42_6 C11_6 1_555 1_555
C43_6 C42_6 1_555 1_555
H21_6 C43_6 1_555 1_555
C44_6 C43_6 1_555 1_555
H22_6 C44_6 1_555 1_555
C45_6 C44_6 1_555 1_555
C46_6 C45_6 1_555 1_555
C47_6 C42_6 1_555 1_555
C48_6 C45_6 1_555 1_555
N3_6 C7_6 1_555 1_555
O9_6 C48_6 1_555 1_555
C10_6 N3_6 1_555 1_555
C46_6 C47_6 1_555 1_555
O9_6 H49_6 1_555 1_555
C61_7 C60_7 1_555 1_555
H29_7 C61_7 1_555 1_555
C62_7 C61_7 1_555 1_555
H30_7 C62_7 1_555 1_555
C63_7 C62_7 1_555 1_555
C64_7 C63_7 1_555 1_555
C65_7 C64_7 1_555 1_555
C83_7 C64_7 1_555 1_555
C84_7 C83_7 1_555 1_555
H41_7 C84_7 1_555 1_555
C85_7 C84_7 1_555 1_555
H42_7 C85_7 1_555 1_555
C86_7 C85_7 1_555 1_555
C87_7 C86_7 1_555 1_555
H43_7 C87_7 1_555 1_555
C88_7 C83_7 1_555 1_555
H44_7 C88_7 1_555 1_555
C89_7 C86_7 1_555 1_555
Fe2_7 N5_7 1_555 1_555
N5_7 C65_7 1_555 1_555
N8_7 C60_7 1_555 1_555
O18 C89_7 1_555 1_555
O21 C89_7 1_555 1_555
O22_5 Fe2_7 1_555 1_555
C63_7 N8_7 1_555 1_555
C87_7 C88_7 1_555 1_555
Fe2_7 N8_7 1_555 1_555
C49_7 C50_7 1_555 1_555
C50_7 C51_7 1_555 1_555
C51_7 H25_7 1_555 1_555
C67_7 C66_7 1_555 1_555
H32_7 C67_7 1_555 1_555
C68_7 C49_7 1_555 1_555
C69_7 C49_7 1_555 1_555
C70_7 C69_7 1_555 1_555
H33_7 C70_7 1_555 1_555
C71_7 C70_7 1_555 1_555
H34_7 C71_7 1_555 1_555
C72_7 C71_7 1_555 1_555
C73_7 C72_7 1_555 1_555
H35_7 C73_7 1_555 1_555
C74_7 C69_7 1_555 1_555
H36_7 C74_7 1_555 1_555
C75_7 C72_7 1_555 1_555
Cd5_2 O10_7 1_555 1_555
N6_7 C50_7 1_555 1_555
O10_7 C75_7 1_555 1_555
O11_7 C75_7 1_555 1_555
C67_7 C68_7 1_555 1_555
C73_7 C74_7 1_555 1_555
Cd5_2 O11_7 1_555 1_555
C32_7 C31_7 1_555 1_555
H15_7 C32_7 1_555 1_555
C34_7 C31_7 1_555 1_555
O13_4 C34_7 1_555 1_555
O15_4 C34_7 1_555 1_555
C56_7 C55_7 1_555 1_555
H27_6 C56_7 1_555 1_555
C57_7 C56_7 1_555 1_555
H28_7 C57_7 1_555 1_555
C58_7 C57_7 1_555 1_555
C59_7 C58_7 1_555 1_555
C90_7 C59_7 1_555 1_555
C91_7 C90_7 1_555 1_555
H45_7 C91_7 1_555 1_555
C92_7 C91_7 1_555 1_555
H46_7 C92_7 1_555 1_555
C93_7 C92_7 1_555 1_555
C94_7 C93_7 1_555 1_555
H47_6 C94_7 1_555 1_555
C95_7 C90_7 1_555 1_555
C96_7 C93_7 1_555 1_555
N7_7 C55_7 1_555 1_555
O23_6 C96_7 1_555 1_555
O24_7 C96_7 1_555 1_555
C58_7 N7_7 1_555 1_555
C94_7 C95_7 1_555 1_555
O24_7 H50_7 1_555 1_555
C1_7 C2_7 1_555 1_555
C2_7 C3_7 1_555 1_555
C3_7 H1_7 1_555 1_555
C4_7 C3_7 1_555 1_555
H2_7 C4_7 1_555 1_555
C5_7 C4_7 1_555 1_555
C6_7 C5_7 1_555 1_555
C7_7 C6_7 1_555 1_555
C8_7 C7_7 1_555 1_555
H3_6 C8_7 1_555 1_555
C9_7 C8_7 1_555 1_555
H4_7 C9_7 1_555 1_555
C10_7 C9_7 1_555 1_555
C11_7 C10_7 1_555 1_555
C12_7 C11_7 1_555 1_555
C13_7 C12_7 1_555 1_555
H5_7 C13_7 1_555 1_555
C14_7 C13_7 1_555 1_555
H6_7 C14_7 1_555 1_555
C15_7 C14_7 1_555 1_555
C16_7 C15_7 1_555 1_555
C17_7 C16_7 1_555 1_555
C18_7 C17_7 1_555 1_555
H7_7 C18_7 1_555 1_555
C19_7 C18_7 1_555 1_555
H8_7 C19_7 1_555 1_555
C20_7 C1_7 1_555 1_555
C21_7 C1_7 1_555 1_555
C22_7 C21_7 1_555 1_555
H9_7 C22_7 1_555 1_555
C23_7 C22_7 1_555 1_555
H10_7 C23_7 1_555 1_555
C24_7 C23_7 1_555 1_555
C25_7 C24_7 1_555 1_555
H11_7 C25_7 1_555 1_555
C26_7 C21_7 1_555 1_555
H12_7 C26_7 1_555 1_555
C27_7 C24_7 1_555 1_555
C28_7 C6_7 1_555 1_555
C29_7 C28_7 1_555 1_555
H13_7 C29_7 1_555 1_555
C30_7 C29_7 1_555 1_555
H14_7 C30_7 1_555 1_555
C33_7 C28_7 1_555 1_555
H16_7 C33_7 1_555 1_555
C35_7 C16_7 1_555 1_555
C36_7 C35_7 1_555 1_555
H17_7 C36_7 1_555 1_555
C37_7 C36_7 1_555 1_555
H18_7 C37_7 1_555 1_555
C38_7 C37_7 1_555 1_555
C39_7 C38_7 1_555 1_555
H19_7 C39_7 1_555 1_555
C40_7 C35_7 1_555 1_555
H20_7 C40_7 1_555 1_555
C41_7 C38_7 1_555 1_555
C42_7 C11_7 1_555 1_555
C43_7 C42_7 1_555 1_555
H21_7 C43_7 1_555 1_555
C44_7 C43_7 1_555 1_555
H22_7 C44_7 1_555 1_555
C45_7 C44_7 1_555 1_555
C46_7 C45_7 1_555 1_555
H23_6 C46_7 1_555 1_555
C47_7 C42_7 1_555 1_555
H24_7 C47_7 1_555 1_555
C48_7 C45_7 1_555 1_555
Cd4_4 O1_7 1_555 1_555
Fe3_4 N1_7 1_555 1_555
N1_7 C17_7 1_555 1_555
N2_7 C2_7 1_555 1_555
N3_7 C7_7 1_555 1_555
N4_7 C12_7 1_555 1_555
O1_7 C27_7 1_555 1_555
O2_7 C27_7 1_555 1_555
O17_3 C41_7 1_555 1_555
O20_3 C41_7 1_555 1_555
O8_6 C48_7 1_555 1_555
O9_7 C48_7 1_555 1_555
H26_7 C52_7 1_555 1_555
C53_7 C52_7 1_555 1_555
C54_7 C53_7 1_555 1_555
C76_7 C54_7 1_555 1_555
C77_7 C76_7 1_555 1_555
H37_7 C77_7 1_555 1_555
C78_7 C77_7 1_555 1_555
H38_7 C78_7 1_555 1_555
C79_7 C78_7 1_555 1_555
C80_7 C79_7 1_555 1_555
H39_7 C80_7 1_555 1_555
C81_7 C76_7 1_555 1_555
H40_7 C81_7 1_555 1_555
C82_7 C79_7 1_555 1_555
O12_7 Cd4_4 1_555 1_555
O14_7 Cd4_4 1_555 1_555
C5_7 N2_7 1_555 1_555
C10_7 N3_7 1_555 1_555
C15_7 N4_7 1_555 1_555
C19_7 C20_7 1_555 1_555
C20_7 N1_7 1_555 1_555
C25_7 C26_7 1_555 1_555
C39_7 C40_7 1_555 1_555
C46_7 C47_7 1_555 1_555
Cd4_4 O2_7 1_555 1_555
Fe3_4 N2_7 1_555 1_555
Fe3_4 N3_7 1_555 1_555
Fe3_4 N4_7 1_555 1_555
C80_7 C81_7 1_555 1_555
C82_7 O12_7 1_555 1_555
C82_7 O14_7 1_555 1_555
O9_7 H49_7 1_555 1_555
H11_8 C25_8 1_555 1_555
C38_8 C37_8 1_555 1_555
C39_8 C38_8 1_555 1_555
H19_8 C39_8 1_555 1_555
C40_8 C35_8 1_555 1_555
H20_8 C40_8 1_555 1_555
C41_8 C38_8 1_555 1_555
O17_4 C41_8 1_555 1_555
O20_4 C41_8 1_555 1_555
C39_8 C40_8 1_555 1_555
C1_8 C2_8 1_555 1_555
C2_8 C3_8 1_555 1_555
C3_8 H1_8 1_555 1_555
C4_8 C3_8 1_555 1_555
H2_8 C4_8 1_555 1_555
C5_8 C4_8 1_555 1_555
C6_8 C5_8 1_555 1_555
C7_8 C6_8 1_555 1_555
C8_8 C7_8 1_555 1_555
H3_7 C8_8 1_555 1_555
C9_8 C8_8 1_555 1_555
H4_8 C9_8 1_555 1_555
C10_8 C9_8 1_555 1_555
C11_8 C10_8 1_555 1_555
C12_8 C11_8 1_555 1_555
C13_8 C12_8 1_555 1_555
H5_8 C13_8 1_555 1_555
C14_8 C13_8 1_555 1_555
H6_8 C14_8 1_555 1_555
C15_8 C14_8 1_555 1_555
C16_8 C15_8 1_555 1_555
C17_8 C16_8 1_555 1_555
C18_8 C17_8 1_555 1_555
C19_8 C18_8 1_555 1_555
H8_8 C19_8 1_555 1_555
C20_8 C1_8 1_555 1_555
C21_8 C1_8 1_555 1_555
C22_8 C21_8 1_555 1_555
H9_8 C22_8 1_555 1_555
C23_8 C22_8 1_555 1_555
H10_8 C23_8 1_555 1_555
C24_8 C23_8 1_555 1_555
C26_8 C21_8 1_555 1_555
C27_8 C24_8 1_555 1_555
C28_8 C6_8 1_555 1_555
C29_8 C28_8 1_555 1_555
H13_8 C29_8 1_555 1_555
C30_8 C29_8 1_555 1_555
H14_8 C30_8 1_555 1_555
C33_8 C28_8 1_555 1_555
H16_8 C33_8 1_555 1_555
H17_8 C36_8 1_555 1_555
C42_8 C11_8 1_555 1_555
C43_8 C42_8 1_555 1_555
H21_8 C43_8 1_555 1_555
C44_8 C43_8 1_555 1_555
H22_8 C44_8 1_555 1_555
C45_8 C44_8 1_555 1_555
C46_8 C45_8 1_555 1_555
H23_7 C46_8 1_555 1_555
C47_8 C42_8 1_555 1_555
H24_8 C47_8 1_555 1_555
C48_8 C45_8 1_555 1_555
Cd4_3 O1_8 1_555 1_555
Fe3_3 N1_8 1_555 1_555
N1_8 C17_8 1_555 1_555
N2_8 C2_8 1_555 1_555
N3_8 C7_8 1_555 1_555
N4_8 C12_8 1_555 1_555
O1_8 C27_8 1_555 1_555
O8_7 C48_8 1_555 1_555
O9_8 C48_8 1_555 1_555
C49_8 C50_8 1_555 1_555
C50_8 C51_8 1_555 1_555
C51_8 H25_8 1_555 1_555
C52_8 C51_8 1_555 1_555
H26_8 C52_8 1_555 1_555
C53_8 C52_8 1_555 1_555
C54_8 C53_8 1_555 1_555
C55_8 C54_8 1_555 1_555
C56_8 C55_8 1_555 1_555
H27_7 C56_8 1_555 1_555
C57_8 C56_8 1_555 1_555
H28_8 C57_8 1_555 1_555
C58_8 C57_8 1_555 1_555
C59_8 C58_8 1_555 1_555
C60_8 C59_8 1_555 1_555
C61_8 C60_8 1_555 1_555
H29_8 C61_8 1_555 1_555
C62_8 C61_8 1_555 1_555
H30_8 C62_8 1_555 1_555
C63_8 C62_8 1_555 1_555
C64_8 C63_8 1_555 1_555
C65_8 C64_8 1_555 1_555
C66_8 C65_8 1_555 1_555
H31_8 C66_8 1_555 1_555
C67_8 C66_8 1_555 1_555
H32_8 C67_8 1_555 1_555
C68_8 C49_8 1_555 1_555
C69_8 C49_8 1_555 1_555
C70_8 C69_8 1_555 1_555
H33_8 C70_8 1_555 1_555
C71_8 C70_8 1_555 1_555
H34_8 C71_8 1_555 1_555
C72_8 C71_8 1_555 1_555
C73_8 C72_8 1_555 1_555
H35_8 C73_8 1_555 1_555
C74_8 C69_8 1_555 1_555
H36_8 C74_8 1_555 1_555
C75_8 C72_8 1_555 1_555
C76_8 C54_8 1_555 1_555
C77_8 C76_8 1_555 1_555
H37_8 C77_8 1_555 1_555
C78_8 C77_8 1_555 1_555
H38_8 C78_8 1_555 1_555
C79_8 C78_8 1_555 1_555
C80_8 C79_8 1_555 1_555
H39_8 C80_8 1_555 1_555
C81_8 C76_8 1_555 1_555
H40_8 C81_8 1_555 1_555
C82_8 C79_8 1_555 1_555
C83_8 C64_8 1_555 1_555
C84_8 C83_8 1_555 1_555
H41_8 C84_8 1_555 1_555
C85_8 C84_8 1_555 1_555
H42_8 C85_8 1_555 1_555
C86_8 C85_8 1_555 1_555
C87_8 C86_8 1_555 1_555
H43_8 C87_8 1_555 1_555
C88_8 C83_8 1_555 1_555
H44_8 C88_8 1_555 1_555
C89_8 C86_8 1_555 1_555
C90_8 C59_8 1_555 1_555
C91_8 C90_8 1_555 1_555
H45_8 C91_8 1_555 1_555
C92_8 C91_8 1_555 1_555
H46_8 C92_8 1_555 1_555
C93_8 C92_8 1_555 1_555
C94_8 C93_8 1_555 1_555
H47_7 C94_8 1_555 1_555
C95_8 C90_8 1_555 1_555
H48_8 C95_8 1_555 1_555
C96_8 C93_8 1_555 1_555
Cd5 O10_8 1_555 1_555
Fe2_8 N5_8 1_555 1_555
N5_8 C65_8 1_555 1_555
N6_8 C50_8 1_555 1_555
N7_8 C55_8 1_555 1_555
N8_8 C60_8 1_555 1_555
O10_8 C75_8 1_555 1_555
O11_8 C75_8 1_555 1_555
O12_8 Cd4_3 1_555 1_555
O14_8 Cd4_3 1_555 1_555
O18_2 C89_8 1_555 1_555
O21_2 C89_8 1_555 1_555
O22_4 Fe2_8 1_555 1_555
O23_7 C96_8 1_555 1_555
O24_8 C96_8 1_555 1_555
C5_8 N2_8 1_555 1_555
C10_8 N3_8 1_555 1_555
C15_8 N4_8 1_555 1_555
C19_8 C20_8 1_555 1_555
C20_8 N1_8 1_555 1_555
C46_8 C47_8 1_555 1_555
Fe3_3 N2_8 1_555 1_555
Fe3_3 N3_8 1_555 1_555
Fe3_3 N4_8 1_555 1_555
C53_8 N6_8 1_555 1_555
C58_8 N7_8 1_555 1_555
C63_8 N8_8 1_555 1_555
C67_8 C68_8 1_555 1_555
C68_8 N5_8 1_555 1_555
C73_8 C74_8 1_555 1_555
C80_8 C81_8 1_555 1_555
C82_8 O12_8 1_555 1_555
C82_8 O14_8 1_555 1_555
C87_8 C88_8 1_555 1_555
C94_8 C95_8 1_555 1_555
Cd5 O11_8 1_555 1_555
Fe2_8 N6_8 1_555 1_555
Fe2_8 N7_8 1_555 1_555
Fe2_8 N8_8 1_555 1_555
O9_8 H49_8 1_555 1_555
O24_8 H50_8 1_555 1_555
C32_8 C31_8 1_555 1_555
H15_8 C32_8 1_555 1_555
C34_8 C31_8 1_555 1_555
O13_3 C34_8 1_555 1_555
O15_3 C34_8 1_555 1_555
O9_4 H50_9 1_555 1_555
O24_7 H49_9 1_555 1_555
O24_8 H49_10 1_555 1_555
O9_3 H50_10 1_555 1_555
O9_5 H50_11 1_555 1_555
O24_2 H49_11 1_555 1_555
O24 H49_12 1_555 1_555
O9_6 H50_12 1_555 1_555
O9_8 H50_13 1_555 1_555
O24_3 H49_13 1_555 1_555
O24_4 H49_14 1_555 1_555
O9_7 H50_14 1_555 1_555
O24_6 H49_15 1_555 1_555
O9 H50_15 1_555 1_555
O24_5 H49_16 1_555 1_555
O9_2 H50_16 1_555 1_555

#END
