
###############################################################################
#
# This file contains modified crystal structure data generated from the
# MOF subset of the Cambridge Structural Database (CSD) v543 
# hosted by the Cambridge Crystallographic Data Centre (CCDC).
#
# This work is licensed under the Creative Commons
# Attribution-NonCommercial-ShareAlike 4.0 International License.
# To view a copy of this license, visit
# http://creativecommons.org/licenses/by-nc-sa/4.0/
# or send a letter to
# Creative Commons, PO Box 1866, Mountain View, CA 94042, USA.
#
# CIF created using the CSD Python API on 29 September 2022
# The structure has been converted into the P1 space group
# The structure has a 3D framework
# The original CSD entry NAYMOQ is in the monoclinic crystal system
# The framework has been calculated to contain at least 10.0% void space
# The void calculation uses a probe of radius 1.32A, grid spacing 0.4
# H atom positions have been added when not included in the experimental data
#
###############################################################################

data_NAYMOQ
_chemical_formula_moiety         '(C56 H110 N8 Na8 O49 Pb4)n'
_symmetry_cell_setting           triclinic
_symmetry_space_group_name_H-M   'P 1'
_symmetry_Int_Tables_number      1
_space_group_name_Hall           'P 1'
loop_
_symmetry_equiv_pos_site_id
_symmetry_equiv_pos_as_xyz
1 x,y,z
_cell_length_a                   17.018(2)
_cell_length_b                   17.963(2)
_cell_length_c                   8.903(1)
_cell_angle_alpha                90
_cell_angle_beta                 121.156(2)
_cell_angle_gamma                90
_cell_volume                     2329.04
loop_
_atom_site_label
_atom_site_type_symbol
_atom_site_fract_x
_atom_site_fract_y
_atom_site_fract_z
H14 H 0.039(2) 0.363(2) 0.062(3)
H27 H 0.0101155 0.84143 0.0280867
O6 O 0.0471(1) 0.8181(1) 0.4684(2)
O16 O 0.0639(1) 0.5308(1) 0.8684(2)
O17 O 0.0058(1) 0.3798(1) 0.9449(2)
H11 H 0.106(2) 0.53(2) 0.978(3)
H12 H 0.078(2) 0.57(2) 0.843(4)
O8 O 0.6930(1) 0.0268(1) 0.2191(2)
Na3 Na 0.60907(6) 0.08802(5) 0.3325(1)
O9 O 0.5639(1) 0.0308(1) 0.8684(2)
H1 H 0.606(2) 0.03(2) 0.978(3)
H2 H 0.578(2) 0.07(2) 0.843(4)
Na6 Na 0.41894(8) 0.00816(6) 0.3170(2)
O14 O 0.8460(1) 0.4452(1) 0.0189(3)
O18 O 0.9663(1) 0.5912(1) 0.0345(2)
H15 H 0.922(2) 0.611(2) 0.046(4)
H28 H 0.979031 0.927354 0.0825389
H29 H 0.901103 0.820901 0.127077
Pb1 Pb 0.749380(9) 0.779530(3) 0.25542(1)
Na2 Na 0.91894(8) 0.49184(6) 0.8170(2)
O1 O 0.6233(1) 0.8258(1) 0.3070(2)
O2 O 0.5470(1) 0.7932(1) 0.4393(3)
O3 O 0.7662(1) 0.6389(1) 0.3126(2)
O4 O 0.8460(1) 0.5548(1) 0.5189(3)
O5 O 0.9176(1) 0.7575(1) 0.3989(2)
O7 O 0.7236(1) 0.9176(1) 0.1412(2)
O13 O 0.8212(1) 0.3884(2) 0.5825(3)
N1 N 0.7710(1) 0.7414(1) 0.5451(2)
N2 N 0.8479(1) 0.8762(1) 0.4857(2)
C1 C 0.6773(2) 0.7210(1) 0.5012(3)
C2 C 0.6103(2) 0.7854(1) 0.4083(3)
C3 C 0.8306(2) 0.6740(1) 0.6123(3)
C4 C 0.8120(2) 0.6190(1) 0.4682(3)
C5 C 0.8070(1) 0.8042(1) 0.6766(3)
C6 C 0.8398(2) 0.7778(1) 0.8644(3)
C7 C 0.8762(2) 0.8423(2) 0.9955(3)
C8 C 0.9544(2) 0.8809(1) 0.9907(3)
C9 C 0.9214(2) 0.9097(1) 0.8076(3)
C10 C 0.8819(1) 0.8472(1) 0.6683(2)
C11 C 0.9263(1) 0.8876(1) 0.4602(3)
C12 C 0.9685(2) 0.8154(1) 0.4455(3)
C13 C 0.7939(1) 0.9462(1) 0.4485(3)
C14 C 0.7321(1) 0.9641(1) 0.2529(3)
H4 H 0.539(2) 0.863(2) 0.062(3)
H9 H 0.800(2) 0.401(3) 0.653(4)
H10 H 0.772(3) 0.395(3) 0.475(5)
Na4 Na 0.91894(8) 0.50816(6) 0.3170(2)
H13 H 0.970(2) 0.345(2) 0.909(4)
H16 H 0.986(2) 0.624(2) 0.985(4)
H17 H 0.894425 0.737074 0.903408
H18 H 0.782402 0.751974 0.866213
H19 H 0.937506 0.808335 0.700073
H20 H 0.678399 0.707556 0.621546
H21 H 0.654437 0.672602 0.415125
H22 H 0.979057 0.91901 0.571519
H23 H 0.902514 0.919485 0.340193
H24 H 0.750232 0.842583 0.63894
H25 H 0.818486 0.646334 0.70734
H26 H 0.902081 0.691504 0.67646
H30 H 0.821086 0.882046 0.961076
H31 H 0.841818 0.992145 0.510878
H32 H 0.750735 0.941163 0.505175
H33 H 0.978998 0.93548 0.806429
H34 H 0.868063 0.951116 0.774006
Na1 Na 0.60907(6) 0.91198(5) 0.8325(1)
O10 O 0.5058(1) 0.8798(1) 0.9449(2)
O11 O 0.6137(2) 0.7801(1) 0.8069(3)
O12 O 0.4663(1) 0.9088(1) 0.5345(2)
H3 H 0.470(2) 0.845(2) 0.909(4)
H5 H 0.583(2) 0.761(2) 0.850(4)
H6 H 0.592(3) 0.771(2) 0.691(4)
H7 H 0.422(2) 0.889(2) 0.546(4)
H8 H 0.486(2) 0.876(2) 0.485(4)
Na5 Na 0.41894(8) 0.99184(6) 0.8170(2)
O15 O 0.6930(1) 0.9732(1) 0.7191(2)
O16_2 O 0.0639(1) 0.4692(1) 0.3684(2)
O17_2 O 0.0058(1) 0.6202(1) 0.4449(2)
H11_2 H 0.106(2) 0.47(2) 0.478(3)
H12_2 H 0.078(2) 0.43(2) 0.343(4)
H14_2 H 0.039(2) 0.637(2) 0.562(3)
H27_2 H 0.0101155 0.15857 0.528087
O13_2 O 0.8212(1) 0.6116(2) 0.0825(3)
N1_2 N 0.7710(1) 0.2586(1) 0.0451(2)
C1_2 C 0.6773(2) 0.2790(1) 0.0012(3)
C3_2 C 0.8306(2) 0.3260(1) 0.1123(3)
C5_2 C 0.8070(1) 0.1958(1) 0.1766(3)
C6_2 C 0.8398(2) 0.2222(1) 0.3644(3)
C7_2 C 0.8762(2) 0.1577(2) 0.4955(3)
C8_2 C 0.9544(2) 0.1191(1) 0.4907(3)
C9_2 C 0.9214(2) 0.0903(1) 0.3076(3)
C10_2 C 0.8819(1) 0.1528(1) 0.1683(2)
H9_2 H 0.800(2) 0.599(3) 0.153(4)
O18_2 O 0.9663(1) 0.4088(1) 0.5345(2)
H13_2 H 0.970(2) 0.655(2) 0.409(4)
H15_2 H 0.922(2) 0.389(2) 0.546(4)
H16_2 H 0.986(2) 0.376(2) 0.485(4)
H17_2 H 0.894425 0.262926 0.403408
H18_2 H 0.782402 0.248026 0.366213
H19_2 H 0.937506 0.191665 0.200073
H20_2 H 0.678399 0.292444 0.121546
H22_2 H 0.979057 0.0809901 0.0715188
H24_2 H 0.750232 0.157417 0.13894
H25_2 H 0.818486 0.353666 0.20734
H26_2 H 0.902081 0.308496 0.17646
H28_2 H 0.979031 0.0726458 0.582539
H29_2 H 0.901103 0.179099 0.627077
H30_2 H 0.821086 0.117954 0.461076
H31_2 H 0.841818 0.00785534 0.0108777
H32_2 H 0.750735 0.0588374 0.00517473
H33_2 H 0.978998 0.0645199 0.306429
H34_2 H 0.868063 0.048884 0.274006
Pb1_2 Pb 0.749380(9) 0.220470(3) 0.75542(1)
O1_2 O 0.6233(1) 0.1742(1) 0.8070(2)
O2_2 O 0.5470(1) 0.2068(1) 0.9393(3)
O3_2 O 0.7662(1) 0.3611(1) 0.8126(2)
O5_2 O 0.9176(1) 0.2425(1) 0.8989(2)
O7_2 O 0.7236(1) 0.0824(1) 0.6412(2)
O10_2 O 0.5058(1) 0.1202(1) 0.4449(2)
O11_2 O 0.6137(2) 0.2199(1) 0.3069(3)
O12_2 O 0.4663(1) 0.0912(1) 0.0345(2)
N2_2 N 0.8479(1) 0.1238(1) 0.9857(2)
C2_2 C 0.6103(2) 0.2146(1) 0.9083(3)
C4_2 C 0.8120(2) 0.3810(1) 0.9682(3)
C11_2 C 0.9263(1) 0.1124(1) 0.9602(3)
C12_2 C 0.9685(2) 0.1846(1) 0.9455(3)
C13_2 C 0.7939(1) 0.0538(1) 0.9485(3)
C14_2 C 0.7321(1) 0.0359(1) 0.7529(3)
H3_2 H 0.470(2) 0.155(2) 0.409(4)
H4_2 H 0.539(2) 0.137(2) 0.562(3)
H5_2 H 0.583(2) 0.239(2) 0.350(4)
H6_2 H 0.592(3) 0.229(2) 0.191(4)
H7_2 H 0.422(2) 0.111(2) 0.046(4)
H10_2 H 0.772(3) 0.605(3) 0.975(5)
H21_2 H 0.654437 0.327398 0.915125
H23_2 H 0.902514 0.0805146 0.840193
H8_2 H 0.486(2) 0.124(2) 0.985(4)
O9_2 O 0.5639(1) 0.9692(1) 0.3684(2)
H1_2 H 0.606(2) 0.97(2) 0.478(3)
H2_2 H 0.578(2) 0.93(2) 0.343(4)
H27_3 H 0.510115 0.34143 0.0280867
H28_3 H 0.479031 0.427354 0.0825389
H29_3 H 0.401103 0.320901 0.127077
Pb1_3 Pb 0.249380(9) 0.279530(3) 0.25542(1)
O1_3 O 0.1233(1) 0.3258(1) 0.3070(2)
O2_3 O 0.0470(1) 0.2932(1) 0.4393(3)
O3_3 O 0.2662(1) 0.1389(1) 0.3126(2)
O4_2 O 0.3460(1) 0.0548(1) 0.5189(3)
O5_3 O 0.4176(1) 0.2575(1) 0.3989(2)
O6_2 O 0.5471(1) 0.3181(1) 0.4684(2)
O7_3 O 0.2236(1) 0.4176(1) 0.1412(2)
O8_2 O 0.1930(1) 0.5268(1) 0.2191(2)
N1_3 N 0.2710(1) 0.2414(1) 0.5451(2)
N2_3 N 0.3479(1) 0.3762(1) 0.4857(2)
C1_3 C 0.1773(2) 0.2210(1) 0.5012(3)
C2_3 C 0.1103(2) 0.2854(1) 0.4083(3)
C3_3 C 0.3306(2) 0.1740(1) 0.6123(3)
C4_3 C 0.3120(2) 0.1190(1) 0.4682(3)
C5_3 C 0.3070(1) 0.3042(1) 0.6766(3)
C6_3 C 0.3398(2) 0.2778(1) 0.8644(3)
C7_3 C 0.3762(2) 0.3423(2) 0.9955(3)
C8_3 C 0.4544(2) 0.3809(1) 0.9907(3)
C9_3 C 0.4214(2) 0.4097(1) 0.8076(3)
C10_3 C 0.3819(1) 0.3472(1) 0.6683(2)
C11_3 C 0.4263(1) 0.3876(1) 0.4602(3)
C12_3 C 0.4685(2) 0.3154(1) 0.4455(3)
C13_3 C 0.2939(1) 0.4462(1) 0.4485(3)
C14_3 C 0.2321(1) 0.4641(1) 0.2529(3)
Na3_2 Na 0.10907(6) 0.58802(5) 0.3325(1)
H17_3 H 0.394425 0.237074 0.903408
H18_3 H 0.282402 0.251974 0.866213
H19_3 H 0.437506 0.308335 0.700073
H20_3 H 0.178399 0.207556 0.621546
H21_3 H 0.154437 0.172602 0.415125
H22_3 H 0.479057 0.41901 0.571519
H23_3 H 0.402514 0.419485 0.340193
H24_3 H 0.250232 0.342583 0.63894
H25_3 H 0.318486 0.146334 0.70734
H26_3 H 0.402081 0.191504 0.67646
H30_3 H 0.321086 0.382046 0.961076
H31_3 H 0.341818 0.492145 0.510878
H32_3 H 0.250735 0.441163 0.505175
H33_3 H 0.478998 0.43548 0.806429
H34_3 H 0.368063 0.451116 0.774006
Na1_2 Na 0.10907(6) 0.41198(5) 0.8325(1)
O11_3 O 0.1137(2) 0.2801(1) 0.8069(3)
H5_3 H 0.083(2) 0.261(2) 0.850(4)
H6_3 H 0.092(3) 0.271(2) 0.691(4)
O15_2 O 0.1930(1) 0.4732(1) 0.7191(2)
O14_2 O 0.3460(1) 0.9452(1) 0.0189(3)
O13_3 O 0.3212(1) 0.8884(2) 0.5825(3)
H9_3 H 0.300(2) 0.901(3) 0.653(4)
H10_3 H 0.272(3) 0.895(3) 0.475(5)
O13_4 O 0.3212(1) 0.1116(2) 0.0825(3)
H9_4 H 0.300(2) 0.099(3) 0.153(4)
N1_4 N 0.2710(1) 0.7586(1) 0.0451(2)
C1_4 C 0.1773(2) 0.7790(1) 0.0012(3)
C3_4 C 0.3306(2) 0.8260(1) 0.1123(3)
C5_4 C 0.3070(1) 0.6958(1) 0.1766(3)
C6_4 C 0.3398(2) 0.7222(1) 0.3644(3)
C7_4 C 0.3762(2) 0.6577(2) 0.4955(3)
C8_4 C 0.4544(2) 0.6191(1) 0.4907(3)
C9_4 C 0.4214(2) 0.5903(1) 0.3076(3)
C10_4 C 0.3819(1) 0.6528(1) 0.1683(2)
H17_4 H 0.394425 0.762926 0.403408
H18_4 H 0.282402 0.748026 0.366213
H19_4 H 0.437506 0.691665 0.200073
H20_4 H 0.178399 0.792444 0.121546
H22_4 H 0.479057 0.58099 0.0715188
H24_4 H 0.250232 0.657417 0.13894
H25_4 H 0.318486 0.853666 0.20734
H26_4 H 0.402081 0.808496 0.17646
H27_4 H 0.510115 0.65857 0.528087
H28_4 H 0.479031 0.572646 0.582539
H29_4 H 0.401103 0.679099 0.627077
H30_4 H 0.321086 0.617954 0.461076
H31_4 H 0.341818 0.507855 0.0108777
H32_4 H 0.250735 0.558837 0.00517473
H33_4 H 0.478998 0.56452 0.306429
H34_4 H 0.368063 0.548884 0.274006
Pb1_4 Pb 0.249380(9) 0.720470(3) 0.75542(1)
O1_4 O 0.1233(1) 0.6742(1) 0.8070(2)
O2_4 O 0.0470(1) 0.7068(1) 0.9393(3)
O3_4 O 0.2662(1) 0.8611(1) 0.8126(2)
O5_4 O 0.4176(1) 0.7425(1) 0.8989(2)
O6_3 O 0.5471(1) 0.6819(1) 0.9684(2)
O7_4 O 0.2236(1) 0.5824(1) 0.6412(2)
O11_4 O 0.1137(2) 0.7199(1) 0.3069(3)
N2_4 N 0.3479(1) 0.6238(1) 0.9857(2)
C2_4 C 0.1103(2) 0.7146(1) 0.9083(3)
C4_4 C 0.3120(2) 0.8810(1) 0.9682(3)
C11_4 C 0.4263(1) 0.6124(1) 0.9602(3)
C12_4 C 0.4685(2) 0.6846(1) 0.9455(3)
C13_4 C 0.2939(1) 0.5538(1) 0.9485(3)
C14_4 C 0.2321(1) 0.5359(1) 0.7529(3)
H5_4 H 0.083(2) 0.739(2) 0.350(4)
H6_4 H 0.092(3) 0.729(2) 0.191(4)
H21_4 H 0.154437 0.827398 0.915125
H23_4 H 0.402514 0.580515 0.840193
O6_4 O 0.0471(1) 0.1819(1) 0.9684(2)
H10_4 H 0.272(3) 0.105(3) 0.975(5)
loop_
_geom_bond_atom_site_label_1
_geom_bond_atom_site_label_2
_geom_bond_site_symmetry_1
_geom_bond_site_symmetry_2
H11 O16 1_555 1_555
H12 O16 1_555 1_555
Na3 O8 1_555 1_555
H1 O9 1_555 1_555
H2 O9 1_555 1_555
H15 O18 1_555 1_555
Pb1 O1 1_555 1_555
Na2 O4 1_555 1_555
O1 C2 1_555 1_555
O2 C2 1_555 1_555
O3 Pb1 1_555 1_555
O4 C4 1_555 1_555
O5 Pb1 1_555 1_555
O7 Pb1 1_555 1_555
O13 Na2 1_555 1_555
N1 Pb1 1_555 1_555
N2 Pb1 1_555 1_555
C1 N1 1_555 1_555
C2 C1 1_555 1_555
C3 N1 1_555 1_555
C4 O3 1_555 1_555
C5 N1 1_555 1_555
C6 C5 1_555 1_555
C7 C6 1_555 1_555
C8 C7 1_555 1_555
C9 C8 1_555 1_555
C10 N2 1_555 1_555
C11 N2 1_555 1_555
C12 O5 1_555 1_555
C13 N2 1_555 1_555
C14 O7 1_555 1_555
H9 O13 1_555 1_555
H10 O13 1_555 1_555
Na4 O4 1_555 1_555
C3 C4 1_555 1_555
C5 C10 1_555 1_555
C9 C10 1_555 1_555
C11 C12 1_555 1_555
C13 C14 1_555 1_555
C6 H17 1_555 1_555
C6 H18 1_555 1_555
C10 H19 1_555 1_555
C1 H20 1_555 1_555
C1 H21 1_555 1_555
C11 H22 1_555 1_555
C11 H23 1_555 1_555
C5 H24 1_555 1_555
C3 H25 1_555 1_555
C3 H26 1_555 1_555
C7 H30 1_555 1_555
C13 H31 1_555 1_555
C13 H32 1_555 1_555
C9 H33 1_555 1_555
C9 H34 1_555 1_555
O10 Na1 1_555 1_555
O11 Na1 1_555 1_555
O12 Na1 1_555 1_555
H3 O10 1_555 1_555
H5 O11 1_555 1_555
H6 O11 1_555 1_555
H7 O12 1_555 1_555
H8 O12 1_555 1_555
O15 Na1 1_555 1_555
O10 Na5 1_555 1_555
H11_2 O16_2 1_555 1_555
H12_2 O16_2 1_555 1_555
H14_2 O17_2 1_555 1_555
Na4 O14 1_555 1_555
O13_2 Na4 1_555 1_555
C1_2 N1_2 1_555 1_555
C3_2 N1_2 1_555 1_555
C5_2 N1_2 1_555 1_555
C6_2 C5_2 1_555 1_555
C7_2 C6_2 1_555 1_555
C8_2 C7_2 1_555 1_555
C9_2 C8_2 1_555 1_555
H9_2 O13_2 1_555 1_555
O18_2 Na4 1_555 1_555
H15_2 O18_2 1_555 1_555
H16_2 O18_2 1_555 1_555
C5_2 C10_2 1_555 1_555
C9_2 C10_2 1_555 1_555
C6_2 H17_2 1_555 1_555
C6_2 H18_2 1_555 1_555
C10_2 H19_2 1_555 1_555
C1_2 H20_2 1_555 1_555
C5_2 H24_2 1_555 1_555
C3_2 H25_2 1_555 1_555
C3_2 H26_2 1_555 1_555
C8_2 H28_2 1_555 1_555
C7_2 H29_2 1_555 1_555
C7_2 H30_2 1_555 1_555
C9_2 H33_2 1_555 1_555
C9_2 H34_2 1_555 1_555
Pb1_2 O1_2 1_555 1_555
Na3 O7_2 1_555 1_555
O1_2 C2_2 1_555 1_555
O2_2 C2_2 1_555 1_555
O3_2 Pb1_2 1_555 1_555
O5_2 Pb1_2 1_555 1_555
O7_2 Pb1_2 1_555 1_555
O10_2 Na3 1_555 1_555
O11_2 Na3 1_555 1_555
O12_2 Na3 1_555 1_555
N2_2 Pb1_2 1_555 1_555
C4_2 O3_2 1_555 1_555
C11_2 N2_2 1_555 1_555
C12_2 O5_2 1_555 1_555
C13_2 N2_2 1_555 1_555
C14_2 O7_2 1_555 1_555
H3_2 O10_2 1_555 1_555
H4_2 O10_2 1_555 1_555
H5_2 O11_2 1_555 1_555
H6_2 O11_2 1_555 1_555
H7_2 O12_2 1_555 1_555
O10_2 Na6 1_555 1_555
C11_2 C12_2 1_555 1_555
C13_2 C14_2 1_555 1_555
C11_2 H23_2 1_555 1_555
H1_2 O9_2 1_555 1_555
H2_2 O9_2 1_555 1_555
Pb1_3 O1_3 1_555 1_555
O1_3 C2_3 1_555 1_555
O2_3 C2_3 1_555 1_555
O3_3 Pb1_3 1_555 1_555
O4_2 C4_3 1_555 1_555
O5_3 Pb1_3 1_555 1_555
O6_2 C12_3 1_555 1_555
O7_3 Pb1_3 1_555 1_555
O8_2 C14_3 1_555 1_555
N1_3 Pb1_3 1_555 1_555
N2_3 Pb1_3 1_555 1_555
C1_3 N1_3 1_555 1_555
C2_3 C1_3 1_555 1_555
C3_3 N1_3 1_555 1_555
C4_3 O3_3 1_555 1_555
C5_3 N1_3 1_555 1_555
C6_3 C5_3 1_555 1_555
C7_3 C6_3 1_555 1_555
C8_3 C7_3 1_555 1_555
C9_3 C8_3 1_555 1_555
C10_3 N2_3 1_555 1_555
C11_3 N2_3 1_555 1_555
C12_3 O5_3 1_555 1_555
C13_3 N2_3 1_555 1_555
C14_3 O7_3 1_555 1_555
Na3_2 O8_2 1_555 1_555
Na6 O4_2 1_555 1_555
C3_3 C4_3 1_555 1_555
C5_3 C10_3 1_555 1_555
C9_3 C10_3 1_555 1_555
C11_3 C12_3 1_555 1_555
C13_3 C14_3 1_555 1_555
C6_3 H17_3 1_555 1_555
C6_3 H18_3 1_555 1_555
C10_3 H19_3 1_555 1_555
C1_3 H20_3 1_555 1_555
C1_3 H21_3 1_555 1_555
C11_3 H22_3 1_555 1_555
C11_3 H23_3 1_555 1_555
C5_3 H24_3 1_555 1_555
C3_3 H25_3 1_555 1_555
C3_3 H26_3 1_555 1_555
C7_3 H30_3 1_555 1_555
C13_3 H31_3 1_555 1_555
C13_3 H32_3 1_555 1_555
C9_3 H33_3 1_555 1_555
C9_3 H34_3 1_555 1_555
O16 Na1_2 1_555 1_555
O17 Na1_2 1_555 1_555
O11_3 Na1_2 1_555 1_555
H5_3 O11_3 1_555 1_555
H6_3 O11_3 1_555 1_555
O15_2 Na1_2 1_555 1_555
O13_3 Na5 1_555 1_555
H9_3 O13_3 1_555 1_555
H10_3 O13_3 1_555 1_555
O13_4 Na6 1_555 1_555
H9_4 O13_4 1_555 1_555
C1_4 N1_4 1_555 1_555
C3_4 N1_4 1_555 1_555
C5_4 N1_4 1_555 1_555
C6_4 C5_4 1_555 1_555
C7_4 C6_4 1_555 1_555
C8_4 C7_4 1_555 1_555
C9_4 C8_4 1_555 1_555
C5_4 C10_4 1_555 1_555
C9_4 C10_4 1_555 1_555
C6_4 H17_4 1_555 1_555
C6_4 H18_4 1_555 1_555
C10_4 H19_4 1_555 1_555
C1_4 H20_4 1_555 1_555
C5_4 H24_4 1_555 1_555
C3_4 H25_4 1_555 1_555
C3_4 H26_4 1_555 1_555
C8_4 H27_4 1_555 1_555
C8_4 H28_4 1_555 1_555
C7_4 H29_4 1_555 1_555
C7_4 H30_4 1_555 1_555
C9_4 H33_4 1_555 1_555
C9_4 H34_4 1_555 1_555
Pb1_4 O1_4 1_555 1_555
Na3_2 O7_4 1_555 1_555
O1_4 C2_4 1_555 1_555
O2_4 C2_4 1_555 1_555
O3_4 Pb1_4 1_555 1_555
O5_4 Pb1_4 1_555 1_555
O6_3 C12_4 1_555 1_555
O7_4 Pb1_4 1_555 1_555
O15_2 C14_4 1_555 1_555
O16_2 Na3_2 1_555 1_555
O17_2 Na3_2 1_555 1_555
O11_4 Na3_2 1_555 1_555
N2_4 Pb1_4 1_555 1_555
C4_4 O3_4 1_555 1_555
C11_4 N2_4 1_555 1_555
C12_4 O5_4 1_555 1_555
C13_4 N2_4 1_555 1_555
C14_4 O7_4 1_555 1_555
H5_4 O11_4 1_555 1_555
H6_4 O11_4 1_555 1_555
C11_4 C12_4 1_555 1_555
C13_4 C14_4 1_555 1_555
C11_4 H23_4 1_555 1_555

#END
