
###############################################################################
#
# This file contains modified crystal structure data generated from the
# MOF subset of the Cambridge Structural Database (CSD) v543 
# hosted by the Cambridge Crystallographic Data Centre (CCDC).
#
# This work is licensed under the Creative Commons
# Attribution-NonCommercial-ShareAlike 4.0 International License.
# To view a copy of this license, visit
# http://creativecommons.org/licenses/by-nc-sa/4.0/
# or send a letter to
# Creative Commons, PO Box 1866, Mountain View, CA 94042, USA.
#
# CIF created using the CSD Python API on 29 September 2022
# The structure has been converted into the P1 space group
# The structure has a 3D framework
# The original CSD entry NAYXOC is in the orthorhombic crystal system
# The framework has been calculated to contain at least 10.0% void space
# The void calculation uses a probe of radius 1.32A, grid spacing 0.4
# H atom positions have been added when not included in the experimental data
#
###############################################################################

data_NAYXOC
_chemical_formula_moiety         '(C168 H112 O64 P8 Tb8)n'
_symmetry_cell_setting           triclinic
_symmetry_space_group_name_H-M   'P 1'
_symmetry_Int_Tables_number      1
_space_group_name_Hall           'P 1'
loop_
_symmetry_equiv_pos_site_id
_symmetry_equiv_pos_as_xyz
1 x,y,z
_cell_length_a                   27.185(5)
_cell_length_b                   12.100(2)
_cell_length_c                   20.605(4)
_cell_angle_alpha                90
_cell_angle_beta                 90
_cell_angle_gamma                90
_cell_volume                     6777.78
loop_
_atom_site_label
_atom_site_type_symbol
_atom_site_fract_x
_atom_site_fract_y
_atom_site_fract_z
H3 H 0.0044 0.8349 0.0371
Tb4 Tb 0.07143(2) 0.61089(4) 0.97775(3)
P1 P 0.89206(12) 0.1218(2) 0.09595(14)
Tb1 Tb 0.57143(2) 0.11089(4) 0.02225(3)
O1 O 0.9202(3) 0.2079(5) 0.0592(4)
O4 O 0.9348(3) 0.0368(6) 0.4135(3)
O5 O 0.9210(3) 0.2173(6) 0.4195(4)
O6 O 0.6410(3) 0.0982(6) 0.0980(4)
O8 O 0.5251(4) 0.0754(7) 0.1191(4)
H4 H 0.9807 0.0141 0.0586
C8 C 0.9039(5) 0.1252(8) 0.1820(5)
C9 C 0.9105(6) 0.0262(11) 0.2156(6)
C10 C 0.9173(6) 0.0287(10) 0.2824(6)
C11 C 0.9189(5) 0.1293(9) 0.3155(5)
C12 C 0.9152(6) 0.2261(10) 0.2807(7)
H7 H 0.9168 0.2954 0.3023
C13 C 0.9090(6) 0.2216(9) 0.2129(6)
H8 H 0.9084 0.2883 0.1886
C14 C 0.9257(5) 0.1309(9) 0.3869(5)
C15 C 0.8275(5) 0.1265(8) 0.0856(5)
C16 C 0.7930(5) 0.1179(10) 0.1374(6)
H9 H 0.8048 0.1171 0.1808
C17 C 0.7430(5) 0.1106(11) 0.1265(6)
H10 H 0.7205 0.1073 0.1618
C18 C 0.7264(4) 0.1082(9) 0.0630(5)
C19 C 0.7589(5) 0.1151(11) 0.0114(6)
C20 C 0.8094(4) 0.1259(9) 0.0235(6)
C21 C 0.6719(4) 0.1013(9) 0.0508(6)
Tb2 Tb 0.92857(2) 0.38911(4) 0.02225(3)
Tb5 Tb 0.92857(2) 0.11089(4) 0.52225(3)
O9 O 0.5798(3) 0.2921(5) 0.0592(4)
H13 H 0.531463 0.134883 0.151223
H14 H 0.489477 0.0734879 0.108503
O7 O 0.6566(3) 0.1020(7) 0.9922(3)
H11 H 0.7470 0.1125 0.9681
H12 H 0.8315 0.1329 0.9880
O11 O 0.4904(3) 0.1345(6) 0.9976(4)
O12 O 0.5652(3) 0.0368(6) 0.9135(3)
O13 O 0.5790(3) 0.2173(6) 0.9195(4)
O2 O 0.9176(3) 0.5795(6) 0.0360(4)
O3 O 0.9904(3) 0.6345(6) 0.0024(4)
C1 C 0.9085(4) 0.9844(9) 0.0709(5)
C2 C 0.8734(5) 0.9031(9) 0.0657(7)
H1 H 0.8396 0.9205 0.0714
C3 C 0.8877(5) 0.7941(10) 0.0519(8)
H2 H 0.8638 0.7370 0.0505
C4 C 0.9350(4) 0.7702(9) 0.0408(5)
C5 C 0.9708(5) 0.8520(9) 0.0442(6)
C6 C 0.9565(5) 0.9574(9) 0.0580(6)
C7 C 0.9492(4) 0.6529(9) 0.0254(6)
H5 H 0.9103 0.9577 0.1930
H6 H 0.9210 0.9614 0.3057
O10 O 0.5824(3) 0.9205(6) 0.0360(4)
O11_2 O 0.0096(3) 0.3655(6) 0.9976(4)
P1_2 P 0.60794(12) 0.3782(2) 0.09595(14)
O3_2 O 0.5096(3) 0.8655(6) 0.0024(4)
O4_2 O 0.5652(3) 0.4632(6) 0.4135(3)
O5_2 O 0.5790(3) 0.2827(6) 0.4195(4)
O6_2 O 0.8590(3) 0.4018(6) 0.0980(4)
O8_2 O 0.9749(4) 0.4246(7) 0.1191(4)
C1_2 C 0.5915(4) 0.5156(9) 0.0709(5)
C2_2 C 0.6266(5) 0.5969(9) 0.0657(7)
H1_2 H 0.6604 0.5795 0.0714
C3_2 C 0.6123(5) 0.7059(10) 0.0519(8)
H2_2 H 0.6362 0.7630 0.0505
C4_2 C 0.5650(4) 0.7298(9) 0.0408(5)
C5_2 C 0.5292(5) 0.6480(9) 0.0442(6)
H3_2 H 0.4956 0.6651 0.0371
C6_2 C 0.5435(5) 0.5426(9) 0.0580(6)
H4_2 H 0.5193 0.4859 0.0586
C7_2 C 0.5508(4) 0.8471(9) 0.0254(6)
C8_2 C 0.5961(5) 0.3748(8) 0.1820(5)
C9_2 C 0.5895(6) 0.4738(11) 0.2156(6)
H5_2 H 0.5897 0.5423 0.1930
C10_2 C 0.5827(6) 0.4713(10) 0.2824(6)
H6_2 H 0.5790 0.5386 0.3057
C11_2 C 0.5811(5) 0.3707(9) 0.3155(5)
C12_2 C 0.5848(6) 0.2739(10) 0.2807(7)
H7_2 H 0.5832 0.2046 0.3023
C13_2 C 0.5910(6) 0.2784(9) 0.2129(6)
H8_2 H 0.5916 0.2117 0.1886
C14_2 C 0.5743(5) 0.3691(9) 0.3869(5)
C15_2 C 0.6725(5) 0.3735(8) 0.0856(5)
C16_2 C 0.7070(5) 0.3821(10) 0.1374(6)
H9_2 H 0.6952 0.3829 0.1808
C17_2 C 0.7570(5) 0.3894(11) 0.1265(6)
H10_2 H 0.7795 0.3927 0.1618
C18_2 C 0.7736(4) 0.3918(9) 0.0630(5)
C19_2 C 0.7411(5) 0.3849(11) 0.0114(6)
C20_2 C 0.6906(4) 0.3741(9) 0.0235(6)
C21_2 C 0.8281(4) 0.3987(9) 0.0508(6)
Tb5_2 Tb 0.57143(2) 0.38911(4) 0.52225(3)
H13_2 H 0.968537 0.365117 0.151223
O7_2 O 0.8434(3) 0.3980(7) 0.9922(3)
H11_2 H 0.7530 0.3875 0.9681
H12_2 H 0.6685 0.3671 0.9880
Tb4_2 Tb 0.42857(2) 0.88911(4) 0.97775(3)
O12_2 O 0.9348(3) 0.4632(6) 0.9135(3)
O13_2 O 0.9210(3) 0.2827(6) 0.9195(4)
P1_3 P 0.10794(12) 0.6218(2) 0.40405(14)
Tb1_2 Tb 0.42857(2) 0.61089(4) 0.47775(3)
O1_2 O 0.0798(3) 0.7079(5) 0.4408(4)
O2_2 O 0.0824(3) 0.0795(6) 0.4640(4)
O3_3 O 0.0096(3) 0.1345(6) 0.4976(4)
O4_3 O 0.0652(3) 0.5368(6) 0.0865(3)
O5_3 O 0.0790(3) 0.7173(6) 0.0805(4)
O6_3 O 0.3590(3) 0.5982(6) 0.4020(4)
O7_3 O 0.3434(3) 0.6020(7) 0.5078(3)
O8_3 O 0.4749(4) 0.5754(7) 0.3809(4)
C1_3 C 0.0915(4) 0.4844(9) 0.4291(5)
C2_3 C 0.1266(5) 0.4031(9) 0.4343(7)
H1_3 H 0.1604 0.4205 0.4286
C3_3 C 0.1123(5) 0.2941(10) 0.4481(8)
H2_3 H 0.1362 0.2370 0.4495
C4_3 C 0.0650(4) 0.2702(9) 0.4592(5)
C5_3 C 0.0292(5) 0.3520(9) 0.4558(6)
C6_3 C 0.0435(5) 0.4574(9) 0.4420(6)
H4_3 H 0.0193 0.5141 0.4414
C7_3 C 0.0508(4) 0.1529(9) 0.4746(6)
C8_3 C 0.0961(5) 0.6252(8) 0.3180(5)
C9_3 C 0.0895(6) 0.5262(11) 0.2844(6)
H5_3 H 0.0897 0.4577 0.3070
C10_3 C 0.0827(6) 0.5287(10) 0.2176(6)
H6_3 H 0.0790 0.4614 0.1943
C11_3 C 0.0811(5) 0.6293(9) 0.1845(5)
C12_3 C 0.0848(6) 0.7261(10) 0.2193(7)
H7_3 H 0.0832 0.7954 0.1977
C13_3 C 0.0910(6) 0.7216(9) 0.2871(6)
H8_3 H 0.0916 0.7883 0.3114
C14_3 C 0.0743(5) 0.6309(9) 0.1131(5)
C15_3 C 0.1725(5) 0.6265(8) 0.4144(5)
C16_3 C 0.2070(5) 0.6179(10) 0.3626(6)
H9_3 H 0.1952 0.6171 0.3192
C17_3 C 0.2570(5) 0.6106(11) 0.3735(6)
H10_3 H 0.2795 0.6073 0.3382
C18_3 C 0.2736(4) 0.6082(9) 0.4370(5)
C19_3 C 0.2411(5) 0.6151(11) 0.4886(6)
H11_3 H 0.2530 0.6125 0.5319
C20_3 C 0.1906(4) 0.6259(9) 0.4765(6)
H12_3 H 0.1685 0.6329 0.5120
C21_3 C 0.3281(4) 0.6013(9) 0.4492(6)
Tb2_2 Tb 0.07143(2) 0.88911(4) 0.47775(3)
O9_2 O 0.4202(3) 0.7921(5) 0.4408(4)
O10_2 O 0.4176(3) 0.4205(6) 0.4640(4)
O11_3 O 0.5096(3) 0.6345(6) 0.5024(4)
O12_3 O 0.4348(3) 0.5368(6) 0.5865(3)
O13_3 O 0.4210(3) 0.7173(6) 0.5805(4)
H13_3 H 0.468537 0.634883 0.348777
H14_2 H 0.510523 0.573488 0.391497
H3_3 H 0.9956 0.3349 0.4629
O3_4 O 0.4904(3) 0.3655(6) 0.4976(4)
C1_4 C 0.4085(4) 0.0156(9) 0.4291(5)
C2_4 C 0.3734(5) 0.0969(9) 0.4343(7)
H1_4 H 0.3396 0.0795 0.4286
C3_4 C 0.3877(5) 0.2059(10) 0.4481(8)
H2_4 H 0.3638 0.2630 0.4495
C4_4 C 0.4350(4) 0.2298(9) 0.4592(5)
C5_4 C 0.4708(5) 0.1480(9) 0.4558(6)
H3_4 H 0.5044 0.1651 0.4629
C6_4 C 0.4565(5) 0.0426(9) 0.4420(6)
C7_4 C 0.4492(4) 0.3471(9) 0.4746(6)
H5_4 H 0.4103 0.0423 0.3070
H6_4 H 0.4210 0.0386 0.1943
P1_4 P 0.39206(12) 0.8782(2) 0.40405(14)
O4_4 O 0.4348(3) 0.9632(6) 0.0865(3)
O5_4 O 0.4210(3) 0.7827(6) 0.0805(4)
O6_4 O 0.1410(3) 0.9018(6) 0.4020(4)
O7_4 O 0.1566(3) 0.8980(7) 0.5078(3)
O8_4 O 0.0251(4) 0.9246(7) 0.3809(4)
H4_4 H 0.4807 0.9859 0.4414
C8_4 C 0.4039(5) 0.8748(8) 0.3180(5)
C9_4 C 0.4105(6) 0.9738(11) 0.2844(6)
C10_4 C 0.4173(6) 0.9713(10) 0.2176(6)
C11_4 C 0.4189(5) 0.8707(9) 0.1845(5)
C12_4 C 0.4152(6) 0.7739(10) 0.2193(7)
H7_4 H 0.4168 0.7046 0.1977
C13_4 C 0.4090(6) 0.7784(9) 0.2871(6)
H8_4 H 0.4084 0.7117 0.3114
C14_4 C 0.4257(5) 0.8691(9) 0.1131(5)
C15_4 C 0.3275(5) 0.8735(8) 0.4144(5)
C16_4 C 0.2930(5) 0.8821(10) 0.3626(6)
H9_4 H 0.3048 0.8829 0.3192
C17_4 C 0.2430(5) 0.8894(11) 0.3735(6)
H10_4 H 0.2205 0.8927 0.3382
C18_4 C 0.2264(4) 0.8918(9) 0.4370(5)
C19_4 C 0.2589(5) 0.8849(11) 0.4886(6)
H11_4 H 0.2470 0.8875 0.5319
C20_4 C 0.3094(4) 0.8741(9) 0.4765(6)
H12_4 H 0.3315 0.8671 0.5120
C21_4 C 0.1719(4) 0.8987(9) 0.4492(6)
O12_4 O 0.0652(3) 0.9632(6) 0.5865(3)
O13_4 O 0.0790(3) 0.7827(6) 0.5805(4)
H13_4 H 0.0314629 0.865117 0.348777
O11_4 O 0.9904(3) 0.8655(6) 0.5024(4)
H14_3 H 0.989477 0.926512 0.391497
O2_3 O 0.0824(3) 0.4205(6) 0.9640(4)
C1_5 C 0.0915(4) 0.0156(9) 0.9291(5)
C2_5 C 0.1266(5) 0.0969(9) 0.9343(7)
H1_5 H 0.1604 0.0795 0.9286
C3_5 C 0.1123(5) 0.2059(10) 0.9481(8)
H2_5 H 0.1362 0.2630 0.9495
C4_5 C 0.0650(4) 0.2298(9) 0.9592(5)
C5_5 C 0.0292(5) 0.1480(9) 0.9558(6)
C6_5 C 0.0435(5) 0.0426(9) 0.9420(6)
C7_5 C 0.0508(4) 0.3471(9) 0.9746(6)
H5_5 H 0.0897 0.0423 0.8070
H6_5 H 0.0790 0.0386 0.6943
O10_3 O 0.4176(3) 0.0795(6) 0.9640(4)
O7_5 O 0.3434(3) 0.8980(7) 0.0078(3)
H11_5 H 0.2530 0.8875 0.0319
H12_5 H 0.1685 0.8671 0.0120
P1_5 P 0.10794(12) 0.8782(2) 0.90405(14)
O1_3 O 0.0798(3) 0.7921(5) 0.9408(4)
O6_5 O 0.3590(3) 0.9018(6) 0.9020(4)
O8_5 O 0.4749(4) 0.9246(7) 0.8809(4)
H4_5 H 0.0193 0.9859 0.9414
C8_5 C 0.0961(5) 0.8748(8) 0.8180(5)
C9_5 C 0.0895(6) 0.9738(11) 0.7844(6)
C10_5 C 0.0827(6) 0.9713(10) 0.7176(6)
C11_5 C 0.0811(5) 0.8707(9) 0.6845(5)
C12_5 C 0.0848(6) 0.7739(10) 0.7193(7)
H7_5 H 0.0832 0.7046 0.6977
C13_5 C 0.0910(6) 0.7784(9) 0.7871(6)
H8_5 H 0.0916 0.7117 0.8114
C14_5 C 0.0743(5) 0.8691(9) 0.6131(5)
C15_5 C 0.1725(5) 0.8735(8) 0.9144(5)
C16_5 C 0.2070(5) 0.8821(10) 0.8626(6)
H9_5 H 0.1952 0.8829 0.8192
C17_5 C 0.2570(5) 0.8894(11) 0.8735(6)
H10_5 H 0.2795 0.8927 0.8382
C18_5 C 0.2736(4) 0.8918(9) 0.9370(5)
C19_5 C 0.2411(5) 0.8849(11) 0.9886(6)
C20_5 C 0.1906(4) 0.8741(9) 0.9765(6)
C21_5 C 0.3281(4) 0.8987(9) 0.9492(6)
O9_3 O 0.4202(3) 0.7079(5) 0.9408(4)
H13_5 H 0.468537 0.865117 0.848777
H14_4 H 0.510523 0.926512 0.891497
O7_6 O 0.1566(3) 0.6020(7) 0.0078(3)
H11_6 H 0.2470 0.6125 0.0319
H12_6 H 0.3315 0.6329 0.0120
P1_6 P 0.39206(12) 0.6218(2) 0.90405(14)
O6_6 O 0.1410(3) 0.5982(6) 0.9020(4)
O8_6 O 0.0251(4) 0.5754(7) 0.8809(4)
C1_6 C 0.4085(4) 0.4844(9) 0.9291(5)
C2_6 C 0.3734(5) 0.4031(9) 0.9343(7)
H1_6 H 0.3396 0.4205 0.9286
C3_6 C 0.3877(5) 0.2941(10) 0.9481(8)
H2_6 H 0.3638 0.2370 0.9495
C4_6 C 0.4350(4) 0.2702(9) 0.9592(5)
C5_6 C 0.4708(5) 0.3520(9) 0.9558(6)
H3_5 H 0.5044 0.3349 0.9629
C6_6 C 0.4565(5) 0.4574(9) 0.9420(6)
H4_6 H 0.4807 0.5141 0.9414
C7_6 C 0.4492(4) 0.1529(9) 0.9746(6)
C8_6 C 0.4039(5) 0.6252(8) 0.8180(5)
C9_6 C 0.4105(6) 0.5262(11) 0.7844(6)
H5_6 H 0.4103 0.4577 0.8070
C10_6 C 0.4173(6) 0.5287(10) 0.7176(6)
H6_6 H 0.4210 0.4614 0.6943
C11_6 C 0.4189(5) 0.6293(9) 0.6845(5)
C12_6 C 0.4152(6) 0.7261(10) 0.7193(7)
H7_6 H 0.4168 0.7954 0.6977
C13_6 C 0.4090(6) 0.7216(9) 0.7871(6)
H8_6 H 0.4084 0.7883 0.8114
C14_6 C 0.4257(5) 0.6309(9) 0.6131(5)
C15_6 C 0.3275(5) 0.6265(8) 0.9144(5)
C16_6 C 0.2930(5) 0.6179(10) 0.8626(6)
H9_6 H 0.3048 0.6171 0.8192
C17_6 C 0.2430(5) 0.6106(11) 0.8735(6)
H10_6 H 0.2205 0.6073 0.8382
C18_6 C 0.2264(4) 0.6082(9) 0.9370(5)
C19_6 C 0.2589(5) 0.6151(11) 0.9886(6)
C20_6 C 0.3094(4) 0.6259(9) 0.9765(6)
C21_6 C 0.1719(4) 0.6013(9) 0.9492(6)
H13_6 H 0.0314629 0.634883 0.848777
H3_6 H 0.0044 0.6651 0.5371
P1_7 P 0.89206(12) 0.3782(2) 0.59595(14)
O1_4 O 0.9202(3) 0.2921(5) 0.5592(4)
O2_4 O 0.9176(3) 0.9205(6) 0.5360(4)
O6_7 O 0.6410(3) 0.4018(6) 0.5980(4)
O7_7 O 0.6566(3) 0.3980(7) 0.4922(3)
O8_7 O 0.5251(4) 0.4246(7) 0.6191(4)
C1_7 C 0.9085(4) 0.5156(9) 0.5709(5)
C2_7 C 0.8734(5) 0.5969(9) 0.5657(7)
H1_7 H 0.8396 0.5795 0.5714
C3_7 C 0.8877(5) 0.7059(10) 0.5519(8)
H2_7 H 0.8638 0.7630 0.5505
C4_7 C 0.9350(4) 0.7298(9) 0.5408(5)
C5_7 C 0.9708(5) 0.6480(9) 0.5442(6)
C6_7 C 0.9565(5) 0.5426(9) 0.5580(6)
H4_7 H 0.9807 0.4859 0.5586
C7_7 C 0.9492(4) 0.8471(9) 0.5254(6)
C8_7 C 0.9039(5) 0.3748(8) 0.6820(5)
C9_7 C 0.9105(6) 0.4738(11) 0.7156(6)
H5_7 H 0.9103 0.5423 0.6930
C10_7 C 0.9173(6) 0.4713(10) 0.7824(6)
H6_7 H 0.9210 0.5386 0.8057
C11_7 C 0.9189(5) 0.3707(9) 0.8155(5)
C12_7 C 0.9152(6) 0.2739(10) 0.7807(7)
H7_7 H 0.9168 0.2046 0.8023
C13_7 C 0.9090(6) 0.2784(9) 0.7129(6)
H8_7 H 0.9084 0.2117 0.6886
C14_7 C 0.9257(5) 0.3691(9) 0.8869(5)
C15_7 C 0.8275(5) 0.3735(8) 0.5856(5)
C16_7 C 0.7930(5) 0.3821(10) 0.6374(6)
H9_7 H 0.8048 0.3829 0.6808
C17_7 C 0.7430(5) 0.3894(11) 0.6265(6)
H10_7 H 0.7205 0.3927 0.6618
C18_7 C 0.7264(4) 0.3918(9) 0.5630(5)
C19_7 C 0.7589(5) 0.3849(11) 0.5114(6)
H11_7 H 0.7470 0.3875 0.4681
C20_7 C 0.8094(4) 0.3741(9) 0.5235(6)
H12_7 H 0.8315 0.3671 0.4880
C21_7 C 0.6719(4) 0.3987(9) 0.5508(6)
O9_4 O 0.5798(3) 0.2079(5) 0.5592(4)
O10_4 O 0.5824(3) 0.5795(6) 0.5360(4)
H13_7 H 0.531463 0.365117 0.651223
H14_5 H 0.489477 0.426512 0.608503
H14_6 H 0.0105234 0.0734879 0.608503
P1_8 P 0.60794(12) 0.1218(2) 0.59595(14)
O6_8 O 0.8590(3) 0.0982(6) 0.5980(4)
O7_8 O 0.8434(3) 0.1020(7) 0.4922(3)
O8_8 O 0.9749(4) 0.0754(7) 0.6191(4)
H4_8 H 0.5193 0.0141 0.5586
C8_8 C 0.5961(5) 0.1252(8) 0.6820(5)
C9_8 C 0.5895(6) 0.0262(11) 0.7156(6)
C10_8 C 0.5827(6) 0.0287(10) 0.7824(6)
C11_8 C 0.5811(5) 0.1293(9) 0.8155(5)
C12_8 C 0.5848(6) 0.2261(10) 0.7807(7)
H7_8 H 0.5832 0.2954 0.8023
C13_8 C 0.5910(6) 0.2216(9) 0.7129(6)
H8_8 H 0.5916 0.2883 0.6886
C14_8 C 0.5743(5) 0.1309(9) 0.8869(5)
C15_8 C 0.6725(5) 0.1265(8) 0.5856(5)
C16_8 C 0.7070(5) 0.1179(10) 0.6374(6)
H9_8 H 0.6952 0.1171 0.6808
C17_8 C 0.7570(5) 0.1106(11) 0.6265(6)
H10_8 H 0.7795 0.1073 0.6618
C18_8 C 0.7736(4) 0.1082(9) 0.5630(5)
C19_8 C 0.7411(5) 0.1151(11) 0.5114(6)
H11_8 H 0.7530 0.1125 0.4681
C20_8 C 0.6906(4) 0.1259(9) 0.5235(6)
H12_8 H 0.6685 0.1329 0.4880
C21_8 C 0.8281(4) 0.1013(9) 0.5508(6)
H13_8 H 0.968537 0.134883 0.651223
C1_8 C 0.5915(4) 0.9844(9) 0.5709(5)
C2_8 C 0.6266(5) 0.9031(9) 0.5657(7)
H1_8 H 0.6604 0.9205 0.5714
C3_8 C 0.6123(5) 0.7941(10) 0.5519(8)
H2_8 H 0.6362 0.7370 0.5505
C4_8 C 0.5650(4) 0.7702(9) 0.5408(5)
C5_8 C 0.5292(5) 0.8520(9) 0.5442(6)
H3_7 H 0.4956 0.8349 0.5371
C6_8 C 0.5435(5) 0.9574(9) 0.5580(6)
C7_8 C 0.5508(4) 0.6529(9) 0.5254(6)
H5_8 H 0.5897 0.9577 0.6930
H6_8 H 0.5790 0.9614 0.8057
H14_7 H 0.0105234 0.426512 0.108503
H3_8 H 0.9956 0.1651 0.9629
H14_8 H 0.989477 0.573488 0.891497
loop_
_geom_bond_atom_site_label_1
_geom_bond_atom_site_label_2
_geom_bond_site_symmetry_1
_geom_bond_site_symmetry_2
P1 O1 1_555 1_555
Tb1 O6 1_555 1_555
O1 Tb2 1_555 1_555
O4 C14 1_555 1_555
O5 C14 1_555 1_555
O6 C21 1_555 1_555
O8 Tb1 1_555 1_555
C8 P1 1_555 1_555
C9 C8 1_555 1_555
C10 C9 1_555 1_555
C11 C10 1_555 1_555
C12 C11 1_555 1_555
H7 C12 1_555 1_555
C13 C8 1_555 1_555
H8 C13 1_555 1_555
C14 C11 1_555 1_555
C15 P1 1_555 1_555
C16 C15 1_555 1_555
H9 C16 1_555 1_555
C17 C16 1_555 1_555
H10 C17 1_555 1_555
C18 C17 1_555 1_555
C19 C18 1_555 1_555
C20 C15 1_555 1_555
Tb5 O4 1_555 1_555
O9 Tb1 1_555 1_555
O5 Tb5 1_555 1_555
C12 C13 1_555 1_555
C18 C21 1_555 1_555
C19 C20 1_555 1_555
O8 H13 1_555 1_555
O8 H14 1_555 1_555
O2 C7 1_555 1_555
O3 C7 1_555 1_555
C2 C1 1_555 1_555
H1 C2 1_555 1_555
C3 C2 1_555 1_555
H2 C3 1_555 1_555
C4 C3 1_555 1_555
C5 C4 1_555 1_555
C6 C1 1_555 1_555
C7 C4 1_555 1_555
Tb2 O2 1_555 1_555
C5 C6 1_555 1_555
P1_2 O9 1_555 1_555
Tb2 O6_2 1_555 1_555
O10 C7_2 1_555 1_555
O3_2 C7_2 1_555 1_555
O4_2 C14_2 1_555 1_555
O5_2 C14_2 1_555 1_555
O6_2 C21_2 1_555 1_555
O8_2 Tb2 1_555 1_555
C1_2 P1_2 1_555 1_555
C2_2 C1_2 1_555 1_555
H1_2 C2_2 1_555 1_555
C3_2 C2_2 1_555 1_555
H2_2 C3_2 1_555 1_555
C4_2 C3_2 1_555 1_555
C5_2 C4_2 1_555 1_555
H3_2 C5_2 1_555 1_555
C6_2 C1_2 1_555 1_555
H4_2 C6_2 1_555 1_555
C7_2 C4_2 1_555 1_555
C8_2 P1_2 1_555 1_555
C9_2 C8_2 1_555 1_555
H5_2 C9_2 1_555 1_555
C10_2 C9_2 1_555 1_555
H6_2 C10_2 1_555 1_555
C11_2 C10_2 1_555 1_555
C12_2 C11_2 1_555 1_555
H7_2 C12_2 1_555 1_555
C13_2 C8_2 1_555 1_555
H8_2 C13_2 1_555 1_555
C14_2 C11_2 1_555 1_555
C15_2 P1_2 1_555 1_555
C16_2 C15_2 1_555 1_555
H9_2 C16_2 1_555 1_555
C17_2 C16_2 1_555 1_555
H10_2 C17_2 1_555 1_555
C18_2 C17_2 1_555 1_555
C19_2 C18_2 1_555 1_555
C20_2 C15_2 1_555 1_555
Tb5_2 O4_2 1_555 1_555
O5_2 Tb5_2 1_555 1_555
C5_2 C6_2 1_555 1_555
C12_2 C13_2 1_555 1_555
C18_2 C21_2 1_555 1_555
C19_2 C20_2 1_555 1_555
O8_2 H13_2 1_555 1_555
P1_3 O1_2 1_555 1_555
Tb1_2 O6_3 1_555 1_555
O1_2 Tb2_2 1_555 1_555
O2_2 C7_3 1_555 1_555
O3_3 C7_3 1_555 1_555
O4_3 C14_3 1_555 1_555
O5_3 C14_3 1_555 1_555
O6_3 C21_3 1_555 1_555
O7_3 Tb1_2 1_555 1_555
O8_3 Tb1_2 1_555 1_555
C1_3 P1_3 1_555 1_555
C2_3 C1_3 1_555 1_555
H1_3 C2_3 1_555 1_555
C3_3 C2_3 1_555 1_555
H2_3 C3_3 1_555 1_555
C4_3 C3_3 1_555 1_555
C5_3 C4_3 1_555 1_555
C6_3 C1_3 1_555 1_555
H4_3 C6_3 1_555 1_555
C7_3 C4_3 1_555 1_555
C8_3 P1_3 1_555 1_555
C9_3 C8_3 1_555 1_555
H5_3 C9_3 1_555 1_555
C10_3 C9_3 1_555 1_555
H6_3 C10_3 1_555 1_555
C11_3 C10_3 1_555 1_555
C12_3 C11_3 1_555 1_555
H7_3 C12_3 1_555 1_555
C13_3 C8_3 1_555 1_555
H8_3 C13_3 1_555 1_555
C14_3 C11_3 1_555 1_555
C15_3 P1_3 1_555 1_555
C16_3 C15_3 1_555 1_555
H9_3 C16_3 1_555 1_555
C17_3 C16_3 1_555 1_555
H10_3 C17_3 1_555 1_555
C18_3 C17_3 1_555 1_555
C19_3 C18_3 1_555 1_555
H11_3 C19_3 1_555 1_555
C20_3 C15_3 1_555 1_555
H12_3 C20_3 1_555 1_555
C21_3 O7_3 1_555 1_555
O9_2 Tb1_2 1_555 1_555
O10_2 Tb1_2 1_555 1_555
O11_3 Tb1_2 1_555 1_555
O12_3 Tb1_2 1_555 1_555
O13_3 Tb1_2 1_555 1_555
C5_3 C6_3 1_555 1_555
C12_3 C13_3 1_555 1_555
C18_3 C21_3 1_555 1_555
C19_3 C20_3 1_555 1_555
O8_3 H13_3 1_555 1_555
O8_3 H14_2 1_555 1_555
O10_2 C7_4 1_555 1_555
O3_4 C7_4 1_555 1_555
C2_4 C1_4 1_555 1_555
H1_4 C2_4 1_555 1_555
C3_4 C2_4 1_555 1_555
H2_4 C3_4 1_555 1_555
C4_4 C3_4 1_555 1_555
C5_4 C4_4 1_555 1_555
H3_4 C5_4 1_555 1_555
C6_4 C1_4 1_555 1_555
C7_4 C4_4 1_555 1_555
Tb5_2 O3_4 1_555 1_555
C5_4 C6_4 1_555 1_555
P1_4 O9_2 1_555 1_555
Tb2_2 O6_4 1_555 1_555
O4_4 C14_4 1_555 1_555
O5_4 C14_4 1_555 1_555
O6_4 C21_4 1_555 1_555
O7_4 Tb2_2 1_555 1_555
O8_4 Tb2_2 1_555 1_555
C8_4 P1_4 1_555 1_555
C9_4 C8_4 1_555 1_555
C10_4 C9_4 1_555 1_555
C11_4 C10_4 1_555 1_555
C12_4 C11_4 1_555 1_555
H7_4 C12_4 1_555 1_555
C13_4 C8_4 1_555 1_555
H8_4 C13_4 1_555 1_555
C14_4 C11_4 1_555 1_555
C15_4 P1_4 1_555 1_555
C16_4 C15_4 1_555 1_555
H9_4 C16_4 1_555 1_555
C17_4 C16_4 1_555 1_555
H10_4 C17_4 1_555 1_555
C18_4 C17_4 1_555 1_555
C19_4 C18_4 1_555 1_555
H11_4 C19_4 1_555 1_555
C20_4 C15_4 1_555 1_555
H12_4 C20_4 1_555 1_555
C21_4 O7_4 1_555 1_555
O12_4 Tb2_2 1_555 1_555
O13_4 Tb2_2 1_555 1_555
C12_4 C13_4 1_555 1_555
C18_4 C21_4 1_555 1_555
C19_4 C20_4 1_555 1_555
O8_4 H13_4 1_555 1_555
O2_3 C7_5 1_555 1_555
O11_2 C7_5 1_555 1_555
C2_5 C1_5 1_555 1_555
H1_5 C2_5 1_555 1_555
C3_5 C2_5 1_555 1_555
H2_5 C3_5 1_555 1_555
C4_5 C3_5 1_555 1_555
C5_5 C4_5 1_555 1_555
C6_5 C1_5 1_555 1_555
C7_5 C4_5 1_555 1_555
Tb4 O2_3 1_555 1_555
C5_5 C6_5 1_555 1_555
P1_5 O1_3 1_555 1_555
Tb4_2 O6_5 1_555 1_555
O1_3 Tb4 1_555 1_555
O12_4 C14_5 1_555 1_555
O13_4 C14_5 1_555 1_555
O6_5 C21_5 1_555 1_555
O8_5 Tb4_2 1_555 1_555
C8_5 P1_5 1_555 1_555
C9_5 C8_5 1_555 1_555
C10_5 C9_5 1_555 1_555
C11_5 C10_5 1_555 1_555
C12_5 C11_5 1_555 1_555
H7_5 C12_5 1_555 1_555
C13_5 C8_5 1_555 1_555
H8_5 C13_5 1_555 1_555
C14_5 C11_5 1_555 1_555
C15_5 P1_5 1_555 1_555
C16_5 C15_5 1_555 1_555
H9_5 C16_5 1_555 1_555
C17_5 C16_5 1_555 1_555
H10_5 C17_5 1_555 1_555
C18_5 C17_5 1_555 1_555
C19_5 C18_5 1_555 1_555
C20_5 C15_5 1_555 1_555
O9_3 Tb4_2 1_555 1_555
C12_5 C13_5 1_555 1_555
C18_5 C21_5 1_555 1_555
C19_5 C20_5 1_555 1_555
O8_5 H13_5 1_555 1_555
O8_5 H14_4 1_555 1_555
P1_6 O9_3 1_555 1_555
Tb4 O6_6 1_555 1_555
O10_3 C7_6 1_555 1_555
O11 C7_6 1_555 1_555
O12_3 C14_6 1_555 1_555
O13_3 C14_6 1_555 1_555
O6_6 C21_6 1_555 1_555
O8_6 Tb4 1_555 1_555
C1_6 P1_6 1_555 1_555
C2_6 C1_6 1_555 1_555
H1_6 C2_6 1_555 1_555
C3_6 C2_6 1_555 1_555
H2_6 C3_6 1_555 1_555
C4_6 C3_6 1_555 1_555
C5_6 C4_6 1_555 1_555
H3_5 C5_6 1_555 1_555
C6_6 C1_6 1_555 1_555
H4_6 C6_6 1_555 1_555
C7_6 C4_6 1_555 1_555
C8_6 P1_6 1_555 1_555
C9_6 C8_6 1_555 1_555
H5_6 C9_6 1_555 1_555
C10_6 C9_6 1_555 1_555
H6_6 C10_6 1_555 1_555
C11_6 C10_6 1_555 1_555
C12_6 C11_6 1_555 1_555
H7_6 C12_6 1_555 1_555
C13_6 C8_6 1_555 1_555
H8_6 C13_6 1_555 1_555
C14_6 C11_6 1_555 1_555
C15_6 P1_6 1_555 1_555
C16_6 C15_6 1_555 1_555
H9_6 C16_6 1_555 1_555
C17_6 C16_6 1_555 1_555
H10_6 C17_6 1_555 1_555
C18_6 C17_6 1_555 1_555
C19_6 C18_6 1_555 1_555
C20_6 C15_6 1_555 1_555
C5_6 C6_6 1_555 1_555
C12_6 C13_6 1_555 1_555
C18_6 C21_6 1_555 1_555
C19_6 C20_6 1_555 1_555
O8_6 H13_6 1_555 1_555
P1_7 O1_4 1_555 1_555
Tb5_2 O6_7 1_555 1_555
O1_4 Tb5 1_555 1_555
O2_4 C7_7 1_555 1_555
O11_4 C7_7 1_555 1_555
O12_2 C14_7 1_555 1_555
O13_2 C14_7 1_555 1_555
O6_7 C21_7 1_555 1_555
O7_7 Tb5_2 1_555 1_555
O8_7 Tb5_2 1_555 1_555
C1_7 P1_7 1_555 1_555
C2_7 C1_7 1_555 1_555
H1_7 C2_7 1_555 1_555
C3_7 C2_7 1_555 1_555
H2_7 C3_7 1_555 1_555
C4_7 C3_7 1_555 1_555
C5_7 C4_7 1_555 1_555
C6_7 C1_7 1_555 1_555
H4_7 C6_7 1_555 1_555
C7_7 C4_7 1_555 1_555
C8_7 P1_7 1_555 1_555
C9_7 C8_7 1_555 1_555
H5_7 C9_7 1_555 1_555
C10_7 C9_7 1_555 1_555
H6_7 C10_7 1_555 1_555
C11_7 C10_7 1_555 1_555
C12_7 C11_7 1_555 1_555
H7_7 C12_7 1_555 1_555
C13_7 C8_7 1_555 1_555
H8_7 C13_7 1_555 1_555
C14_7 C11_7 1_555 1_555
C15_7 P1_7 1_555 1_555
C16_7 C15_7 1_555 1_555
H9_7 C16_7 1_555 1_555
C17_7 C16_7 1_555 1_555
H10_7 C17_7 1_555 1_555
C18_7 C17_7 1_555 1_555
C19_7 C18_7 1_555 1_555
H11_7 C19_7 1_555 1_555
C20_7 C15_7 1_555 1_555
H12_7 C20_7 1_555 1_555
C21_7 O7_7 1_555 1_555
O9_4 Tb5_2 1_555 1_555
O10_4 Tb5_2 1_555 1_555
C5_7 C6_7 1_555 1_555
C12_7 C13_7 1_555 1_555
C18_7 C21_7 1_555 1_555
C19_7 C20_7 1_555 1_555
O8_7 H13_7 1_555 1_555
O8_7 H14_5 1_555 1_555
P1_8 O9_4 1_555 1_555
Tb5 O6_8 1_555 1_555
O12 C14_8 1_555 1_555
O13 C14_8 1_555 1_555
O6_8 C21_8 1_555 1_555
O7_8 Tb5 1_555 1_555
O8_8 Tb5 1_555 1_555
C8_8 P1_8 1_555 1_555
C9_8 C8_8 1_555 1_555
C10_8 C9_8 1_555 1_555
C11_8 C10_8 1_555 1_555
C12_8 C11_8 1_555 1_555
H7_8 C12_8 1_555 1_555
C13_8 C8_8 1_555 1_555
H8_8 C13_8 1_555 1_555
C14_8 C11_8 1_555 1_555
C15_8 P1_8 1_555 1_555
C16_8 C15_8 1_555 1_555
H9_8 C16_8 1_555 1_555
C17_8 C16_8 1_555 1_555
H10_8 C17_8 1_555 1_555
C18_8 C17_8 1_555 1_555
C19_8 C18_8 1_555 1_555
H11_8 C19_8 1_555 1_555
C20_8 C15_8 1_555 1_555
H12_8 C20_8 1_555 1_555
C21_8 O7_8 1_555 1_555
C12_8 C13_8 1_555 1_555
C18_8 C21_8 1_555 1_555
C19_8 C20_8 1_555 1_555
O8_8 H13_8 1_555 1_555
O10_4 C7_8 1_555 1_555
O11_3 C7_8 1_555 1_555
C2_8 C1_8 1_555 1_555
H1_8 C2_8 1_555 1_555
C3_8 C2_8 1_555 1_555
H2_8 C3_8 1_555 1_555
C4_8 C3_8 1_555 1_555
C5_8 C4_8 1_555 1_555
H3_7 C5_8 1_555 1_555
C6_8 C1_8 1_555 1_555
C7_8 C4_8 1_555 1_555
C5_8 C6_8 1_555 1_555

#END
