
###############################################################################
#
# This file contains modified crystal structure data generated from the
# MOF subset of the Cambridge Structural Database (CSD) v543 
# hosted by the Cambridge Crystallographic Data Centre (CCDC).
#
# This work is licensed under the Creative Commons
# Attribution-NonCommercial-ShareAlike 4.0 International License.
# To view a copy of this license, visit
# http://creativecommons.org/licenses/by-nc-sa/4.0/
# or send a letter to
# Creative Commons, PO Box 1866, Mountain View, CA 94042, USA.
#
# CIF created using the CSD Python API on 29 September 2022
# The structure has been converted into the P1 space group
# The structure has a 3D framework
# The original CSD entry NAYZOE is in the cubic crystal system
# The framework has been calculated to contain at least 10.0% void space
# The void calculation uses a probe of radius 1.32A, grid spacing 0.4
# H atom positions have been added when not included in the experimental data
# Generated hydrogen atom positions removed from atoms on special positions
#
###############################################################################

data_NAYZOE
_chemical_formula_moiety         '(C168 H192 Cu24 N8 O72)n'
_symmetry_cell_setting           triclinic
_symmetry_space_group_name_H-M   'P 1'
_symmetry_Int_Tables_number      1
_space_group_name_Hall           'P 1'
loop_
_symmetry_equiv_pos_site_id
_symmetry_equiv_pos_as_xyz
1 x,y,z
_cell_length_a                   23.211(3)
_cell_length_b                   23.211(3)
_cell_length_c                   23.211(3)
_cell_angle_alpha                90
_cell_angle_beta                 90
_cell_angle_gamma                90
_cell_volume                     12504.9
loop_
_atom_site_label
_atom_site_type_symbol
_atom_site_fract_x
_atom_site_fract_y
_atom_site_fract_z
Cu17 Cu 0.5000 -0.0000 0.30648(7)
Cu18 Cu 0.5000 -0.0000 0.19352(7)
Cu9 Cu 0.5000 -0.0000 0.69352(7)
Cu10 Cu 0.5000 -0.0000 0.80648(7)
Cu1 Cu 0.30648(7) 0.5000 0.0000
N1 N 0.2500 0.2500 0.2500
O1 O 0.29728(18) 0.44100(18) 0.05897(17)
O2 O 0.3998 0.5000 0.0000(4)
C1 C 0.2500(3) 0.4224 0.0776(3)
C2 C 0.2500(2) 0.3790 0.1210(2)
C3 C 0.2996(3) 0.3572(3) 0.1435(3)
H1 H 0.3345 0.3702 0.1289
C4 C 0.3003(3) 0.3160(3) 0.1874(3)
H2 H 0.3352 0.3043 0.2033
C5 C 0.2500(3) 0.2931 0.2069(3)
Cu2 Cu 0.19352(7) 0.5000 0.0000
Cu3 Cu -0.0000 0.30648(7) 0.5000
Cu4 Cu -0.0000 0.19352(7) 0.5000
Cu15 Cu -0.0000 0.69352(7) 0.5000
Cu16 Cu 0.0000 0.80648(7) 0.5000
Cu17_2 Cu 0.5000 1.0000 0.30648(7)
Cu18_2 Cu 0.5000 1.0000 0.19352(7)
N4 N 0.2500 0.7500 0.2500
O3 O 0.20272(18) 0.44103(17) 0.05900(18)
O4 O 0.05897(17) 0.29728(18) 0.44100(18)
O5 O 0.05900(18) 0.20272(18) 0.44103(17)
O6 O 0.44100(18) 0.05897(17) 0.29728(18)
O7 O 0.44103(17) 0.05900(18) 0.20272(18)
O20 O 0.29728(18) 0.55900(18) 0.05897(17)
O21 O 0.20272(18) 0.55897(17) 0.05900(18)
O22 O 0.05897(17) 0.70272(18) 0.44100(18)
O23 O 0.05900(18) 0.79728(18) 0.44103(17)
O24 O 0.44100(18) 0.94103(17) 0.29728(18)
O25 O 0.44103(17) 0.94100(18) 0.20272(18)
O28 O 0.05897(17) 0.29728(18) 0.55900(18)
O30 O 0.05900(18) 0.20272(18) 0.55897(17)
O34 O 0.55900(18) 0.05897(17) 0.29728(18)
O36 O 0.55897(17) 0.05900(18) 0.20272(18)
O38 O 0.1002 0.5000(4) 0.0000
O39 O -0.0000(4) 0.3998 0.5000
O40 O -0.0000 0.1002 0.5000(4)
O41 O 0.5000 -0.0000(4) 0.3998
O42 O 0.5000(4) -0.0000 0.1002
C6 C 0.0776(3) 0.2500(3) 0.4224
C7 C 0.4224 0.0776(3) 0.2500(3)
C14 C 0.2500(3) 0.5776 0.0776(3)
C15 C 0.0776(3) 0.7500(3) 0.4224
C16 C 0.4224 0.9224(3) 0.2500(3)
C17 C 0.1210(2) 0.2500(2) 0.3790
C18 C 0.3790 0.1210(2) 0.2500(2)
C25 C 0.2500(2) 0.6210 0.1210(2)
C26 C 0.1210(2) 0.7500(2) 0.3790
C27 C 0.3790 0.8790(2) 0.2500(2)
C28 C 0.2004(3) 0.3565(3) 0.1428(3)
C29 C 0.1435(3) 0.2996(3) 0.3572(3)
C30 C 0.1428(3) 0.2004(3) 0.3565(3)
C31 C 0.3572(3) 0.1435(3) 0.2996(3)
C32 C 0.3565(3) 0.1428(3) 0.2004(3)
C45 C 0.2996(3) 0.6428(3) 0.1435(3)
C46 C 0.2004(3) 0.6435(3) 0.1428(3)
C47 C 0.1435(3) 0.7004(3) 0.3572(3)
C48 C 0.1428(3) 0.7996(3) 0.3565(3)
C49 C 0.3572(3) 0.8565(3) 0.2996(3)
C50 C 0.3565(3) 0.8572(3) 0.2004(3)
H3 H 0.1655 0.3711 0.1298
H4 H 0.1298 0.1655 0.3711
H5 H 0.1289 0.3345 0.3702
H6 H 0.3711 0.1298 0.1655
H7 H 0.3702 0.1289 0.3345
H20 H 0.3345 0.6298 0.1289
H21 H 0.1655 0.6289 0.1298
H22 H 0.1298 0.8345 0.3711
H23 H 0.1289 0.6655 0.3702
H24 H 0.3711 0.8702 0.1655
H25 H 0.3702 0.8711 0.3345
C51 C 0.1997(3) 0.3126(3) 0.1840(3)
C52 C 0.1874(3) 0.3003(3) 0.3160(3)
C53 C 0.1840(3) 0.1997(3) 0.3126(3)
C54 C 0.3160(3) 0.1874(3) 0.3003(3)
C55 C 0.3126(3) 0.1840(3) 0.1997(3)
C68 C 0.3003(3) 0.6840(3) 0.1874(3)
C69 C 0.1997(3) 0.6874(3) 0.1840(3)
C70 C 0.1874(3) 0.6997(3) 0.3160(3)
C71 C 0.1840(3) 0.8003(3) 0.3126(3)
C72 C 0.3160(3) 0.8126(3) 0.3003(3)
C73 C 0.3126(3) 0.8160(3) 0.1997(3)
H26 H 0.1648 0.2967 0.1957
H27 H 0.1957 0.1648 0.2967
H28 H 0.2033 0.3352 0.3043
H29 H 0.2967 0.1957 0.1648
H30 H 0.3043 0.2033 0.3352
H43 H 0.3352 0.6957 0.2033
H44 H 0.1648 0.7033 0.1957
H45 H 0.1957 0.8352 0.2967
H46 H 0.2033 0.6648 0.3043
H47 H 0.2967 0.8043 0.1648
H48 H 0.3043 0.7967 0.3352
C74 C 0.2069(3) 0.2500(3) 0.2931
C75 C 0.2931 0.2069(3) 0.2500(3)
C82 C 0.2500(3) 0.7069 0.2069(3)
C83 C 0.2069(3) 0.7500(3) 0.2931
C84 C 0.2931 0.7931(3) 0.2500(3)
Cu1_2 Cu 0.30648(7) 0.5000 1.0000
O2_2 O 0.3998 0.5000 1.0000(4)
Cu2_2 Cu 0.19352(7) 0.5000 1.0000
Cu9_2 Cu 0.5000 1.0000 0.69352(7)
Cu10_2 Cu 0.5000 1.0000 0.80648(7)
N2 N 0.2500 0.7500 0.7500
N3 N 0.2500 0.2500 0.7500
O8 O 0.29728(18) 0.55900(18) 0.94103(17)
O9 O 0.20272(18) 0.55897(17) 0.94100(18)
O10 O 0.05897(17) 0.70272(18) 0.55900(18)
O11 O 0.05900(18) 0.79728(18) 0.55897(17)
O12 O 0.44100(18) 0.94103(17) 0.70272(18)
O13 O 0.44103(17) 0.94100(18) 0.79728(18)
O14 O 0.29728(18) 0.44100(18) 0.94103(17)
O15 O 0.20272(18) 0.44103(17) 0.94100(18)
O18 O 0.44100(18) 0.05897(17) 0.70272(18)
O19 O 0.44103(17) 0.05900(18) 0.79728(18)
O38_2 O 0.1002 0.5000(4) 1.0000
C8 C 0.2500(3) 0.5776 0.9224(3)
C9 C 0.0776(3) 0.7500(3) 0.5776
C10 C 0.4224 0.9224(3) 0.7500(3)
C11 C 0.2500(3) 0.4224 0.9224(3)
C12 C 0.0776(3) 0.2500(3) 0.5776
C13 C 0.4224 0.0776(3) 0.7500(3)
C19 C 0.2500(2) 0.6210 0.8790(2)
C20 C 0.1210(2) 0.7500(2) 0.6210
C21 C 0.3790 0.8790(2) 0.7500(2)
C22 C 0.2500(2) 0.3790 0.8790(2)
C23 C 0.1210(2) 0.2500(2) 0.6210
C24 C 0.3790 0.1210(2) 0.7500(2)
C33 C 0.2996(3) 0.6428(3) 0.8565(3)
C34 C 0.2004(3) 0.6435(3) 0.8572(3)
C35 C 0.1435(3) 0.7004(3) 0.6428(3)
C36 C 0.1428(3) 0.7996(3) 0.6435(3)
C37 C 0.3572(3) 0.8565(3) 0.7004(3)
C38 C 0.3565(3) 0.8572(3) 0.7996(3)
C39 C 0.2996(3) 0.3572(3) 0.8565(3)
C40 C 0.2004(3) 0.3565(3) 0.8572(3)
C41 C 0.1435(3) 0.2996(3) 0.6428(3)
C42 C 0.1428(3) 0.2004(3) 0.6435(3)
C43 C 0.3572(3) 0.1435(3) 0.7004(3)
C44 C 0.3565(3) 0.1428(3) 0.7996(3)
H8 H 0.3345 0.6298 0.8711
H9 H 0.1655 0.6289 0.8702
H10 H 0.1298 0.8345 0.6289
H11 H 0.1289 0.6655 0.6298
H12 H 0.3711 0.8702 0.8345
H13 H 0.3702 0.8711 0.6655
H14 H 0.3345 0.3702 0.8711
H15 H 0.1655 0.3711 0.8702
H16 H 0.1298 0.1655 0.6289
H17 H 0.1289 0.3345 0.6298
H18 H 0.3711 0.1298 0.8345
H19 H 0.3702 0.1289 0.6655
C56 C 0.3003(3) 0.6840(3) 0.8126(3)
C57 C 0.1997(3) 0.6874(3) 0.8160(3)
C58 C 0.1874(3) 0.6997(3) 0.6840(3)
C59 C 0.1840(3) 0.8003(3) 0.6874(3)
C60 C 0.3160(3) 0.8126(3) 0.6997(3)
C61 C 0.3126(3) 0.8160(3) 0.8003(3)
C62 C 0.3003(3) 0.3160(3) 0.8126(3)
C63 C 0.1997(3) 0.3126(3) 0.8160(3)
C64 C 0.1874(3) 0.3003(3) 0.6840(3)
C65 C 0.1840(3) 0.1997(3) 0.6874(3)
C66 C 0.3160(3) 0.1874(3) 0.6997(3)
C67 C 0.3126(3) 0.1840(3) 0.8003(3)
H31 H 0.3352 0.6957 0.7967
H32 H 0.1648 0.7033 0.8043
H33 H 0.1957 0.8352 0.7033
H34 H 0.2033 0.6648 0.6957
H35 H 0.2967 0.8043 0.8352
H36 H 0.3043 0.7967 0.6648
H37 H 0.3352 0.3043 0.7967
H38 H 0.1648 0.2967 0.8043
H39 H 0.1957 0.1648 0.7033
H40 H 0.2033 0.3352 0.6957
H41 H 0.2967 0.1957 0.8352
H42 H 0.3043 0.2033 0.6648
C76 C 0.2500(3) 0.7069 0.7931(3)
C77 C 0.2069(3) 0.7500(3) 0.7069
C78 C 0.2931 0.7931(3) 0.7500(3)
C79 C 0.2500(3) 0.2931 0.7931(3)
C80 C 0.2069(3) 0.2500(3) 0.7069
C81 C 0.2931 0.2069(3) 0.7500(3)
O32 O 0.55900(18) 0.94103(17) 0.29728(18)
O35 O 0.55897(17) 0.94100(18) 0.20272(18)
O41_2 O 0.5000 1.0000(4) 0.3998
O42_2 O 0.5000(4) 1.0000 0.1002
Cu3_2 Cu 1.0000 0.30648(7) 0.5000
Cu4_2 Cu 1.0000 0.19352(7) 0.5000
Cu15_2 Cu 1.0000 0.69352(7) 0.5000
Cu16_2 Cu 1.0000 0.80648(7) 0.5000
O26 O 0.94103(17) 0.29728(18) 0.55900(18)
O27 O 0.94103(17) 0.29728(18) 0.44100(18)
O29 O 0.94100(18) 0.20272(18) 0.55897(17)
O31 O 0.94100(18) 0.20272(18) 0.44103(17)
O39_2 O 1.0000(4) 0.3998 0.5000
O40_2 O 1.0000 0.1002 0.5000(4)
O39_3 O 0.0000(4) 0.6002 0.5000
O40_3 O -0.0000 0.8998 0.5000(4)
Cu1_3 Cu 0.69352(7) 0.5000 0.0000
N1_2 N 0.7500 0.7500 0.2500
O1_2 O 0.70272(18) 0.55900(18) 0.05897(17)
O2_3 O 0.6002 0.5000 0.0000(4)
C1_2 C 0.7500(3) 0.5776 0.0776(3)
C2_2 C 0.7500(2) 0.6210 0.1210(2)
C3_2 C 0.7004(3) 0.6428(3) 0.1435(3)
H1_2 H 0.6655 0.6298 0.1289
C4_2 C 0.6997(3) 0.6840(3) 0.1874(3)
H2_2 H 0.6648 0.6957 0.2033
C5_2 C 0.7500(3) 0.7069 0.2069(3)
Cu2_3 Cu 0.80648(7) 0.5000 0.0000
N4_2 N 0.7500 0.2500 0.2500
O3_2 O 0.79728(18) 0.55897(17) 0.05900(18)
O4_2 O 0.94103(17) 0.70272(18) 0.44100(18)
O5_2 O 0.94100(18) 0.79728(18) 0.44103(17)
O20_2 O 0.70272(18) 0.44100(18) 0.05897(17)
O21_2 O 0.79728(18) 0.44103(17) 0.05900(18)
O28_2 O 0.94103(17) 0.70272(18) 0.55900(18)
O30_2 O 0.94100(18) 0.79728(18) 0.55897(17)
O38_3 O 0.8998 0.5000(4) 0.0000
O39_4 O 1.0000(4) 0.6002 0.5000
O40_4 O 1.0000 0.8998 0.5000(4)
C6_2 C 0.9224(3) 0.7500(3) 0.4224
C7_2 C 0.5776 0.9224(3) 0.2500(3)
C14_2 C 0.7500(3) 0.4224 0.0776(3)
C15_2 C 0.9224(3) 0.2500(3) 0.4224
C16_2 C 0.5776 0.0776(3) 0.2500(3)
C17_2 C 0.8790(2) 0.7500(2) 0.3790
C18_2 C 0.6210 0.8790(2) 0.2500(2)
C25_2 C 0.7500(2) 0.3790 0.1210(2)
C26_2 C 0.8790(2) 0.2500(2) 0.3790
C27_2 C 0.6210 0.1210(2) 0.2500(2)
C28_2 C 0.7996(3) 0.6435(3) 0.1428(3)
C29_2 C 0.8565(3) 0.7004(3) 0.3572(3)
C30_2 C 0.8572(3) 0.7996(3) 0.3565(3)
C31_2 C 0.6428(3) 0.8565(3) 0.2996(3)
C32_2 C 0.6435(3) 0.8572(3) 0.2004(3)
C45_2 C 0.7004(3) 0.3572(3) 0.1435(3)
C46_2 C 0.7996(3) 0.3565(3) 0.1428(3)
C47_2 C 0.8565(3) 0.2996(3) 0.3572(3)
C48_2 C 0.8572(3) 0.2004(3) 0.3565(3)
C49_2 C 0.6428(3) 0.1435(3) 0.2996(3)
C50_2 C 0.6435(3) 0.1428(3) 0.2004(3)
H3_2 H 0.8345 0.6289 0.1298
H4_2 H 0.8702 0.8345 0.3711
H5_2 H 0.8711 0.6655 0.3702
H6_2 H 0.6289 0.8702 0.1655
H7_2 H 0.6298 0.8711 0.3345
H20_2 H 0.6655 0.3702 0.1289
H21_2 H 0.8345 0.3711 0.1298
H22_2 H 0.8702 0.1655 0.3711
H23_2 H 0.8711 0.3345 0.3702
H24_2 H 0.6289 0.1298 0.1655
H25_2 H 0.6298 0.1289 0.3345
C51_2 C 0.8003(3) 0.6874(3) 0.1840(3)
C52_2 C 0.8126(3) 0.6997(3) 0.3160(3)
C53_2 C 0.8160(3) 0.8003(3) 0.3126(3)
C54_2 C 0.6840(3) 0.8126(3) 0.3003(3)
C55_2 C 0.6874(3) 0.8160(3) 0.1997(3)
C68_2 C 0.6997(3) 0.3160(3) 0.1874(3)
C69_2 C 0.8003(3) 0.3126(3) 0.1840(3)
C70_2 C 0.8126(3) 0.3003(3) 0.3160(3)
C71_2 C 0.8160(3) 0.1997(3) 0.3126(3)
C72_2 C 0.6840(3) 0.1874(3) 0.3003(3)
C73_2 C 0.6874(3) 0.1840(3) 0.1997(3)
H26_2 H 0.8352 0.7033 0.1957
H27_2 H 0.8043 0.8352 0.2967
H28_2 H 0.7967 0.6648 0.3043
H29_2 H 0.7033 0.8043 0.1648
H30_2 H 0.6957 0.7967 0.3352
H43_2 H 0.6648 0.3043 0.2033
H44_2 H 0.8352 0.2967 0.1957
H45_2 H 0.8043 0.1648 0.2967
H46_2 H 0.7967 0.3352 0.3043
H47_2 H 0.7033 0.1957 0.1648
H48_2 H 0.6957 0.2033 0.3352
C74_2 C 0.7931(3) 0.7500(3) 0.2931
C75_2 C 0.7069 0.7931(3) 0.2500(3)
C82_2 C 0.7500(3) 0.2931 0.2069(3)
C83_2 C 0.7931(3) 0.2500(3) 0.2931
C84_2 C 0.7069 0.2069(3) 0.2500(3)
Cu1_4 Cu 0.69352(7) 0.5000 1.0000
O2_4 O 0.6002 0.5000 1.0000(4)
Cu2_4 Cu 0.80648(7) 0.5000 1.0000
N2_2 N 0.7500 0.2500 0.7500
N3_2 N 0.7500 0.7500 0.7500
O8_2 O 0.70272(18) 0.44100(18) 0.94103(17)
O9_2 O 0.79728(18) 0.44103(17) 0.94100(18)
O12_2 O 0.55900(18) 0.05897(17) 0.70272(18)
O13_2 O 0.55897(17) 0.05900(18) 0.79728(18)
O14_2 O 0.70272(18) 0.55900(18) 0.94103(17)
O15_2 O 0.79728(18) 0.55897(17) 0.94100(18)
O18_2 O 0.55900(18) 0.94103(17) 0.70272(18)
O19_2 O 0.55897(17) 0.94100(18) 0.79728(18)
O38_4 O 0.8998 0.5000(4) 1.0000
C8_2 C 0.7500(3) 0.4224 0.9224(3)
C9_2 C 0.9224(3) 0.2500(3) 0.5776
C10_2 C 0.5776 0.0776(3) 0.7500(3)
C11_2 C 0.7500(3) 0.5776 0.9224(3)
C12_2 C 0.9224(3) 0.7500(3) 0.5776
C13_2 C 0.5776 0.9224(3) 0.7500(3)
C19_2 C 0.7500(2) 0.3790 0.8790(2)
C20_2 C 0.8790(2) 0.2500(2) 0.6210
C21_2 C 0.6210 0.1210(2) 0.7500(2)
C22_2 C 0.7500(2) 0.6210 0.8790(2)
C23_2 C 0.8790(2) 0.7500(2) 0.6210
C24_2 C 0.6210 0.8790(2) 0.7500(2)
C33_2 C 0.7004(3) 0.3572(3) 0.8565(3)
C34_2 C 0.7996(3) 0.3565(3) 0.8572(3)
C35_2 C 0.8565(3) 0.2996(3) 0.6428(3)
C36_2 C 0.8572(3) 0.2004(3) 0.6435(3)
C37_2 C 0.6428(3) 0.1435(3) 0.7004(3)
C38_2 C 0.6435(3) 0.1428(3) 0.7996(3)
C39_2 C 0.7004(3) 0.6428(3) 0.8565(3)
C40_2 C 0.7996(3) 0.6435(3) 0.8572(3)
C41_2 C 0.8565(3) 0.7004(3) 0.6428(3)
C42_2 C 0.8572(3) 0.7996(3) 0.6435(3)
C43_2 C 0.6428(3) 0.8565(3) 0.7004(3)
C44_2 C 0.6435(3) 0.8572(3) 0.7996(3)
H8_2 H 0.6655 0.3702 0.8711
H9_2 H 0.8345 0.3711 0.8702
H10_2 H 0.8702 0.1655 0.6289
H11_2 H 0.8711 0.3345 0.6298
H12_2 H 0.6289 0.1298 0.8345
H13_2 H 0.6298 0.1289 0.6655
H14_2 H 0.6655 0.6298 0.8711
H15_2 H 0.8345 0.6289 0.8702
H16_2 H 0.8702 0.8345 0.6289
H17_2 H 0.8711 0.6655 0.6298
H18_2 H 0.6289 0.8702 0.8345
H19_2 H 0.6298 0.8711 0.6655
C56_2 C 0.6997(3) 0.3160(3) 0.8126(3)
C57_2 C 0.8003(3) 0.3126(3) 0.8160(3)
C58_2 C 0.8126(3) 0.3003(3) 0.6840(3)
C59_2 C 0.8160(3) 0.1997(3) 0.6874(3)
C60_2 C 0.6840(3) 0.1874(3) 0.6997(3)
C61_2 C 0.6874(3) 0.1840(3) 0.8003(3)
C62_2 C 0.6997(3) 0.6840(3) 0.8126(3)
C63_2 C 0.8003(3) 0.6874(3) 0.8160(3)
C64_2 C 0.8126(3) 0.6997(3) 0.6840(3)
C65_2 C 0.8160(3) 0.8003(3) 0.6874(3)
C66_2 C 0.6840(3) 0.8126(3) 0.6997(3)
C67_2 C 0.6874(3) 0.8160(3) 0.8003(3)
H31_2 H 0.6648 0.3043 0.7967
H32_2 H 0.8352 0.2967 0.8043
H33_2 H 0.8043 0.1648 0.7033
H34_2 H 0.7967 0.3352 0.6957
H35_2 H 0.7033 0.1957 0.8352
H36_2 H 0.6957 0.2033 0.6648
H37_2 H 0.6648 0.6957 0.7967
H38_2 H 0.8352 0.7033 0.8043
H39_2 H 0.8043 0.8352 0.7033
H40_2 H 0.7967 0.6648 0.6957
H41_2 H 0.7033 0.8043 0.8352
H42_2 H 0.6957 0.7967 0.6648
C76_2 C 0.7500(3) 0.2931 0.7931(3)
C77_2 C 0.7931(3) 0.2500(3) 0.7069
C78_2 C 0.7069 0.2069(3) 0.7500(3)
C79_2 C 0.7500(3) 0.7069 0.7931(3)
C80_2 C 0.7931(3) 0.7500(3) 0.7069
C81_2 C 0.7069 0.7931(3) 0.7500(3)
O41_3 O 0.5000 -0.0000(4) 0.6002
O42_3 O 0.5000(4) -0.0000 0.8998
O41_4 O 0.5000 1.0000(4) 0.6002
O42_4 O 0.5000(4) 1.0000 0.8998
loop_
_geom_bond_atom_site_label_1
_geom_bond_atom_site_label_2
_geom_bond_site_symmetry_1
_geom_bond_site_symmetry_2
Cu1 O1 1_555 1_555
N1 C5 1_555 1_555
O1 C1 1_555 1_555
O2 Cu1 1_555 1_555
C1 C2 1_555 1_555
C2 C3 1_555 1_555
C3 H1 1_555 1_555
C4 C3 1_555 1_555
H2 C4 1_555 1_555
C5 C4 1_555 1_555
Cu2 O3 1_555 1_555
Cu3 O4 1_555 1_555
Cu4 O5 1_555 1_555
Cu17 O6 1_555 1_555
Cu18 O7 1_555 1_555
Cu15 O22 1_555 1_555
Cu16 O23 1_555 1_555
Cu17_2 O24 1_555 1_555
Cu18_2 O25 1_555 1_555
N4 C82 1_555 1_555
O3 C1 1_555 1_555
O4 C6 1_555 1_555
O5 C6 1_555 1_555
O6 C7 1_555 1_555
O7 C7 1_555 1_555
O20 Cu1 1_555 1_555
O21 Cu2 1_555 1_555
O22 C15 1_555 1_555
O23 C15 1_555 1_555
O24 C16 1_555 1_555
O25 C16 1_555 1_555
O28 Cu3 1_555 1_555
O30 Cu4 1_555 1_555
O34 Cu17 1_555 1_555
O36 Cu18 1_555 1_555
O38 Cu2 1_555 1_555
O39 Cu3 1_555 1_555
O40 Cu4 1_555 1_555
O41 Cu17 1_555 1_555
O42 Cu18 1_555 1_555
C6 C17 1_555 1_555
C7 C18 1_555 1_555
C14 O20 1_555 1_555
C15 C26 1_555 1_555
C16 C27 1_555 1_555
C17 C29 1_555 1_555
C18 C31 1_555 1_555
C25 C14 1_555 1_555
C26 C47 1_555 1_555
C27 C49 1_555 1_555
C28 C2 1_555 1_555
C29 H5 1_555 1_555
C30 C17 1_555 1_555
C31 H7 1_555 1_555
C32 C18 1_555 1_555
C45 C25 1_555 1_555
C46 C25 1_555 1_555
C47 H23 1_555 1_555
C48 C26 1_555 1_555
C49 H25 1_555 1_555
C50 C27 1_555 1_555
H3 C28 1_555 1_555
H4 C30 1_555 1_555
H6 C32 1_555 1_555
H20 C45 1_555 1_555
H21 C46 1_555 1_555
H22 C48 1_555 1_555
H24 C50 1_555 1_555
C51 C5 1_555 1_555
C52 C29 1_555 1_555
C53 C30 1_555 1_555
C54 C31 1_555 1_555
C55 C32 1_555 1_555
C68 C45 1_555 1_555
C69 C46 1_555 1_555
C70 C47 1_555 1_555
C71 C48 1_555 1_555
C72 C49 1_555 1_555
C73 C50 1_555 1_555
H26 C51 1_555 1_555
H27 C53 1_555 1_555
H28 C52 1_555 1_555
H29 C55 1_555 1_555
H30 C54 1_555 1_555
H43 C68 1_555 1_555
H44 C69 1_555 1_555
H45 C71 1_555 1_555
H46 C70 1_555 1_555
H47 C73 1_555 1_555
H48 C72 1_555 1_555
C74 N1 1_555 1_555
C75 N1 1_555 1_555
C82 C68 1_555 1_555
C83 N4 1_555 1_555
C84 N4 1_555 1_555
O21 C14 1_555 1_555
C28 C51 1_555 1_555
C52 C74 1_555 1_555
C53 C74 1_555 1_555
C54 C75 1_555 1_555
C55 C75 1_555 1_555
C69 C82 1_555 1_555
C70 C83 1_555 1_555
C71 C83 1_555 1_555
C72 C84 1_555 1_555
C73 C84 1_555 1_555
O2_2 Cu1_2 1_555 1_555
Cu15 O10 1_555 1_555
Cu16 O11 1_555 1_555
Cu9_2 O12 1_555 1_555
Cu10_2 O13 1_555 1_555
Cu9 O18 1_555 1_555
Cu10 O19 1_555 1_555
N2 C76 1_555 1_555
N3 C79 1_555 1_555
O8 Cu1_2 1_555 1_555
O9 Cu2_2 1_555 1_555
O10 C9 1_555 1_555
O11 C9 1_555 1_555
O12 C10 1_555 1_555
O13 C10 1_555 1_555
O14 Cu1_2 1_555 1_555
O15 Cu2_2 1_555 1_555
O28 C12 1_555 1_555
O30 C12 1_555 1_555
O18 C13 1_555 1_555
O19 C13 1_555 1_555
O38_2 Cu2_2 1_555 1_555
C8 O8 1_555 1_555
C9 C20 1_555 1_555
C10 C21 1_555 1_555
C11 O14 1_555 1_555
C12 C23 1_555 1_555
C13 C24 1_555 1_555
C19 C8 1_555 1_555
C20 C35 1_555 1_555
C21 C37 1_555 1_555
C22 C11 1_555 1_555
C23 C41 1_555 1_555
C24 C43 1_555 1_555
C33 C19 1_555 1_555
C34 C19 1_555 1_555
C35 H11 1_555 1_555
C36 C20 1_555 1_555
C37 H13 1_555 1_555
C38 C21 1_555 1_555
C39 C22 1_555 1_555
C40 C22 1_555 1_555
C41 H17 1_555 1_555
C42 C23 1_555 1_555
C43 H19 1_555 1_555
C44 C24 1_555 1_555
H8 C33 1_555 1_555
H9 C34 1_555 1_555
H10 C36 1_555 1_555
H12 C38 1_555 1_555
H14 C39 1_555 1_555
H15 C40 1_555 1_555
H16 C42 1_555 1_555
H18 C44 1_555 1_555
C56 C33 1_555 1_555
C57 C34 1_555 1_555
C58 C35 1_555 1_555
C59 C36 1_555 1_555
C60 C37 1_555 1_555
C61 C38 1_555 1_555
C62 C39 1_555 1_555
C63 C40 1_555 1_555
C64 C41 1_555 1_555
C65 C42 1_555 1_555
C66 C43 1_555 1_555
C67 C44 1_555 1_555
H31 C56 1_555 1_555
H32 C57 1_555 1_555
H33 C59 1_555 1_555
H34 C58 1_555 1_555
H35 C61 1_555 1_555
H36 C60 1_555 1_555
H37 C62 1_555 1_555
H38 C63 1_555 1_555
H39 C65 1_555 1_555
H40 C64 1_555 1_555
H41 C67 1_555 1_555
H42 C66 1_555 1_555
C76 C56 1_555 1_555
C77 N2 1_555 1_555
C78 N2 1_555 1_555
C79 C62 1_555 1_555
C80 N3 1_555 1_555
C81 N3 1_555 1_555
O9 C8 1_555 1_555
O15 C11 1_555 1_555
C57 C76 1_555 1_555
C58 C77 1_555 1_555
C59 C77 1_555 1_555
C60 C78 1_555 1_555
C61 C78 1_555 1_555
C63 C79 1_555 1_555
C64 C80 1_555 1_555
C65 C80 1_555 1_555
C66 C81 1_555 1_555
C67 C81 1_555 1_555
O32 Cu17_2 1_555 1_555
O35 Cu18_2 1_555 1_555
O41_2 Cu17_2 1_555 1_555
O42_2 Cu18_2 1_555 1_555
O26 Cu3_2 1_555 1_555
O27 Cu3_2 1_555 1_555
O29 Cu4_2 1_555 1_555
O31 Cu4_2 1_555 1_555
O39_2 Cu3_2 1_555 1_555
O40_2 Cu4_2 1_555 1_555
O39_3 Cu15 1_555 1_555
O40_3 Cu16 1_555 1_555
Cu1_3 O1_2 1_555 1_555
N1_2 C5_2 1_555 1_555
O1_2 C1_2 1_555 1_555
O2_3 Cu1_3 1_555 1_555
C1_2 C2_2 1_555 1_555
C2_2 C3_2 1_555 1_555
C3_2 H1_2 1_555 1_555
C4_2 C3_2 1_555 1_555
H2_2 C4_2 1_555 1_555
C5_2 C4_2 1_555 1_555
Cu2_3 O3_2 1_555 1_555
Cu15_2 O4_2 1_555 1_555
Cu16_2 O5_2 1_555 1_555
N4_2 C82_2 1_555 1_555
O3_2 C1_2 1_555 1_555
O4_2 C6_2 1_555 1_555
O5_2 C6_2 1_555 1_555
O32 C7_2 1_555 1_555
O35 C7_2 1_555 1_555
O20_2 Cu1_3 1_555 1_555
O21_2 Cu2_3 1_555 1_555
O27 C15_2 1_555 1_555
O31 C15_2 1_555 1_555
O34 C16_2 1_555 1_555
O36 C16_2 1_555 1_555
O28_2 Cu15_2 1_555 1_555
O30_2 Cu16_2 1_555 1_555
O38_3 Cu2_3 1_555 1_555
O39_4 Cu15_2 1_555 1_555
O40_4 Cu16_2 1_555 1_555
C6_2 C17_2 1_555 1_555
C7_2 C18_2 1_555 1_555
C14_2 O20_2 1_555 1_555
C15_2 C26_2 1_555 1_555
C16_2 C27_2 1_555 1_555
C17_2 C29_2 1_555 1_555
C18_2 C31_2 1_555 1_555
C25_2 C14_2 1_555 1_555
C26_2 C47_2 1_555 1_555
C27_2 C49_2 1_555 1_555
C28_2 C2_2 1_555 1_555
C29_2 H5_2 1_555 1_555
C30_2 C17_2 1_555 1_555
C31_2 H7_2 1_555 1_555
C32_2 C18_2 1_555 1_555
C45_2 C25_2 1_555 1_555
C46_2 C25_2 1_555 1_555
C47_2 H23_2 1_555 1_555
C48_2 C26_2 1_555 1_555
C49_2 H25_2 1_555 1_555
C50_2 C27_2 1_555 1_555
H3_2 C28_2 1_555 1_555
H4_2 C30_2 1_555 1_555
H6_2 C32_2 1_555 1_555
H20_2 C45_2 1_555 1_555
H21_2 C46_2 1_555 1_555
H22_2 C48_2 1_555 1_555
H24_2 C50_2 1_555 1_555
C51_2 C5_2 1_555 1_555
C52_2 C29_2 1_555 1_555
C53_2 C30_2 1_555 1_555
C54_2 C31_2 1_555 1_555
C55_2 C32_2 1_555 1_555
C68_2 C45_2 1_555 1_555
C69_2 C46_2 1_555 1_555
C70_2 C47_2 1_555 1_555
C71_2 C48_2 1_555 1_555
C72_2 C49_2 1_555 1_555
C73_2 C50_2 1_555 1_555
H26_2 C51_2 1_555 1_555
H27_2 C53_2 1_555 1_555
H28_2 C52_2 1_555 1_555
H29_2 C55_2 1_555 1_555
H30_2 C54_2 1_555 1_555
H43_2 C68_2 1_555 1_555
H44_2 C69_2 1_555 1_555
H45_2 C71_2 1_555 1_555
H46_2 C70_2 1_555 1_555
H47_2 C73_2 1_555 1_555
H48_2 C72_2 1_555 1_555
C74_2 N1_2 1_555 1_555
C75_2 N1_2 1_555 1_555
C82_2 C68_2 1_555 1_555
C83_2 N4_2 1_555 1_555
C84_2 N4_2 1_555 1_555
O21_2 C14_2 1_555 1_555
C28_2 C51_2 1_555 1_555
C52_2 C74_2 1_555 1_555
C53_2 C74_2 1_555 1_555
C54_2 C75_2 1_555 1_555
C55_2 C75_2 1_555 1_555
C69_2 C82_2 1_555 1_555
C70_2 C83_2 1_555 1_555
C71_2 C83_2 1_555 1_555
C72_2 C84_2 1_555 1_555
C73_2 C84_2 1_555 1_555
O2_4 Cu1_4 1_555 1_555
Cu9 O12_2 1_555 1_555
Cu10 O13_2 1_555 1_555
Cu9_2 O18_2 1_555 1_555
Cu10_2 O19_2 1_555 1_555
N2_2 C76_2 1_555 1_555
N3_2 C79_2 1_555 1_555
O8_2 Cu1_4 1_555 1_555
O9_2 Cu2_4 1_555 1_555
O26 C9_2 1_555 1_555
O29 C9_2 1_555 1_555
O12_2 C10_2 1_555 1_555
O13_2 C10_2 1_555 1_555
O14_2 Cu1_4 1_555 1_555
O15_2 Cu2_4 1_555 1_555
O28_2 C12_2 1_555 1_555
O30_2 C12_2 1_555 1_555
O18_2 C13_2 1_555 1_555
O19_2 C13_2 1_555 1_555
O38_4 Cu2_4 1_555 1_555
C8_2 O8_2 1_555 1_555
C9_2 C20_2 1_555 1_555
C10_2 C21_2 1_555 1_555
C11_2 O14_2 1_555 1_555
C12_2 C23_2 1_555 1_555
C13_2 C24_2 1_555 1_555
C19_2 C8_2 1_555 1_555
C20_2 C35_2 1_555 1_555
C21_2 C37_2 1_555 1_555
C22_2 C11_2 1_555 1_555
C23_2 C41_2 1_555 1_555
C24_2 C43_2 1_555 1_555
C33_2 C19_2 1_555 1_555
C34_2 C19_2 1_555 1_555
C35_2 H11_2 1_555 1_555
C36_2 C20_2 1_555 1_555
C37_2 H13_2 1_555 1_555
C38_2 C21_2 1_555 1_555
C39_2 C22_2 1_555 1_555
C40_2 C22_2 1_555 1_555
C41_2 H17_2 1_555 1_555
C42_2 C23_2 1_555 1_555
C43_2 H19_2 1_555 1_555
C44_2 C24_2 1_555 1_555
H8_2 C33_2 1_555 1_555
H9_2 C34_2 1_555 1_555
H10_2 C36_2 1_555 1_555
H12_2 C38_2 1_555 1_555
H14_2 C39_2 1_555 1_555
H15_2 C40_2 1_555 1_555
H16_2 C42_2 1_555 1_555
H18_2 C44_2 1_555 1_555
C56_2 C33_2 1_555 1_555
C57_2 C34_2 1_555 1_555
C58_2 C35_2 1_555 1_555
C59_2 C36_2 1_555 1_555
C60_2 C37_2 1_555 1_555
C61_2 C38_2 1_555 1_555
C62_2 C39_2 1_555 1_555
C63_2 C40_2 1_555 1_555
C64_2 C41_2 1_555 1_555
C65_2 C42_2 1_555 1_555
C66_2 C43_2 1_555 1_555
C67_2 C44_2 1_555 1_555
H31_2 C56_2 1_555 1_555
H32_2 C57_2 1_555 1_555
H33_2 C59_2 1_555 1_555
H34_2 C58_2 1_555 1_555
H35_2 C61_2 1_555 1_555
H36_2 C60_2 1_555 1_555
H37_2 C62_2 1_555 1_555
H38_2 C63_2 1_555 1_555
H39_2 C65_2 1_555 1_555
H40_2 C64_2 1_555 1_555
H41_2 C67_2 1_555 1_555
H42_2 C66_2 1_555 1_555
C76_2 C56_2 1_555 1_555
C77_2 N2_2 1_555 1_555
C78_2 N2_2 1_555 1_555
C79_2 C62_2 1_555 1_555
C80_2 N3_2 1_555 1_555
C81_2 N3_2 1_555 1_555
O9_2 C8_2 1_555 1_555
O15_2 C11_2 1_555 1_555
C57_2 C76_2 1_555 1_555
C58_2 C77_2 1_555 1_555
C59_2 C77_2 1_555 1_555
C60_2 C78_2 1_555 1_555
C61_2 C78_2 1_555 1_555
C63_2 C79_2 1_555 1_555
C64_2 C80_2 1_555 1_555
C65_2 C80_2 1_555 1_555
C66_2 C81_2 1_555 1_555
C67_2 C81_2 1_555 1_555
O41_3 Cu9 1_555 1_555
O42_3 Cu10 1_555 1_555
O41_4 Cu9_2 1_555 1_555
O42_4 Cu10_2 1_555 1_555

#END
