
###############################################################################
#
# This file contains modified crystal structure data generated from the
# MOF subset of the Cambridge Structural Database (CSD) v543 
# hosted by the Cambridge Crystallographic Data Centre (CCDC).
#
# This work is licensed under the Creative Commons
# Attribution-NonCommercial-ShareAlike 4.0 International License.
# To view a copy of this license, visit
# http://creativecommons.org/licenses/by-nc-sa/4.0/
# or send a letter to
# Creative Commons, PO Box 1866, Mountain View, CA 94042, USA.
#
# CIF created using the CSD Python API on 29 September 2022
# The structure has been converted into the P1 space group
# The structure has a 3D framework
# The original CSD entry NAYZUK is in the tetragonal crystal system
# The framework has been calculated to contain at least 10.0% void space
# The void calculation uses a probe of radius 1.32A, grid spacing 0.4
#
###############################################################################

data_NAYZUK
_chemical_formula_moiety         '(C96 H48 In20 O40)n'
_symmetry_cell_setting           triclinic
_symmetry_space_group_name_H-M   'P 1'
_symmetry_Int_Tables_number      1
_space_group_name_Hall           'P 1'
loop_
_symmetry_equiv_pos_site_id
_symmetry_equiv_pos_as_xyz
1 x,y,z
_cell_length_a                   21.8930(5)
_cell_length_b                   21.8930(5)
_cell_length_c                   7.1812(2)
_cell_angle_alpha                90
_cell_angle_beta                 90
_cell_angle_gamma                90
_cell_volume                     3441.97
loop_
_atom_site_label
_atom_site_type_symbol
_atom_site_fract_x
_atom_site_fract_y
_atom_site_fract_z
In3 In 0.0000 0.5000 0.0000
In5 In -0.0000 0.5000 0.5000
In3_2 In 0.0000 0.5000 1.0000
In1 In 0.5000 0.5000 0.0000
In2 In 0.5000 0.5000 0.5000
O1 O 0.4658(3) 0.4658(3) 0.2545(11)
O2 O 0.5926(3) 0.4923(5) 0.4054(11)
O3 O 0.5926(3) 0.4905(5) 0.1034(10)
C1 C 0.6183(4) 0.4876(6) 0.2606(15)
C2 C 0.6857(4) 0.4786(5) 0.2555(11)
C3 C 0.7179(5) 0.5013(6) 0.4091(13)
H1 H 0.6967 0.5164 0.5115
C4 C 0.7165(4) 0.4512(6) 0.1038(14)
In3_3 In 1.0000 0.5000 0.0000
In4 In 0.5000 0.0000 0.0000
In5_2 In 1.0000 0.5000 0.5000
O5 O 0.5342(3) 0.5342(3) 0.7455(11)
O6 O 0.9074(3) 0.4923(5) 0.4054(11)
O9 O 0.5077(5) 0.4074(3) 0.5946(11)
O10 O 0.4074(3) 0.5077(5) 0.5946(11)
O11 O 0.4923(5) 0.5926(3) 0.4054(11)
O12 O 0.9074(3) 0.4905(5) 0.1034(10)
O16 O 0.4905(5) 0.5926(3) 0.1034(10)
C7 C 0.8817(4) 0.4876(6) 0.2606(15)
C10 C 0.8143(4) 0.4786(5) 0.2555(11)
C13 C 0.7821(5) 0.5013(6) 0.4091(13)
H4 H 0.8033 0.5164 0.5115
C16 C 0.7835(4) 0.4512(6) 0.1038(14)
C20 C 0.5799(6) 0.3127(4) 0.0468(13)
C21 C 0.5799(6) 0.1873(4) 0.0468(13)
H8 H 0.5855 0.3548 0.0412
H9 H 0.5855 0.1452 0.0412
C23 C 0.6025(6) 0.2812(4) 0.2033(14)
C24 C 0.6025(6) 0.2188(4) 0.2033(14)
H11 H 0.6173 0.3027 0.3056
H12 H 0.6173 0.1973 0.3056
In1_2 In 0.5000 0.5000 1.0000
C5 C 0.6873(4) 0.4201(6) 0.9532(13)
H2 H 0.6452 0.4145 0.9588
C6 C 0.7188(4) 0.3975(6) 0.7967(14)
H3 H 0.6973 0.3827 0.6944
In3_4 In 1.0000 0.5000 1.0000
In4_2 In 0.5000 0.0000 1.0000
In7 In 0.5000 0.0000 0.5000
O8 O 0.5077(5) 0.0926(3) 0.5946(11)
O13 O 0.5095(5) 0.4074(3) 0.8966(10)
O14 O 0.5095(5) 0.0926(3) 0.8966(10)
O15 O 0.4074(3) 0.5095(5) 0.8966(10)
C8 C 0.5124(6) 0.3817(4) 0.7394(15)
C9 C 0.5124(6) 0.1183(4) 0.7394(15)
C11 C 0.5214(5) 0.3143(4) 0.7445(11)
C12 C 0.5214(5) 0.1857(4) 0.7445(11)
C14 C 0.4987(6) 0.2821(5) 0.5909(13)
C15 C 0.4987(6) 0.2179(5) 0.5909(13)
H5 H 0.4836 0.3033 0.4885
H6 H 0.4836 0.1967 0.4885
C17 C 0.5488(6) 0.2835(4) 0.8962(14)
C18 C 0.5488(6) 0.2165(4) 0.8962(14)
C19 C 0.8127(4) 0.4201(6) 0.9532(13)
H7 H 0.8548 0.4145 0.9588
C22 C 0.7812(4) 0.3975(6) 0.7967(14)
H10 H 0.8027 0.3827 0.6944
In4_3 In 0.5000 1.0000 0.0000
In4_4 In 0.5000 1.0000 1.0000
In7_2 In 0.5000 1.0000 0.5000
In3_5 In 0.0000 0.0000 0.0000
In5_3 In 0.0000 0.0000 0.5000
In3_6 In 0.0000 0.0000 1.0000
O1_2 O 0.0342(3) 0.4658(3) 0.2545(11)
O2_2 O 0.0077(5) 0.5926(3) 0.4054(11)
O3_2 O 0.0095(5) 0.5926(3) 0.1034(10)
C1_2 C 0.0124(6) 0.6183(4) 0.2606(15)
C2_2 C 0.0214(5) 0.6857(4) 0.2555(11)
C4_2 C 0.0488(6) 0.7165(4) 0.1038(14)
In3_7 In 0.0000 1.0000 0.0000
In5_4 In 0.0000 1.0000 0.5000
O6_2 O 0.0077(5) 0.9074(3) 0.4054(11)
O9_2 O 0.0926(3) 0.5077(5) 0.5946(11)
O12_2 O 0.0095(5) 0.9074(3) 0.1034(10)
C7_2 C 0.0124(6) 0.8817(4) 0.2606(15)
C10_2 C 0.0214(5) 0.8143(4) 0.2555(11)
C16_2 C 0.0488(6) 0.7835(4) 0.1038(14)
C20_2 C 0.1873(4) 0.5799(6) 0.0468(13)
C21_2 C 0.3127(4) 0.5799(6) 0.0468(13)
H8_2 H 0.1452 0.5855 0.0412
H9_2 H 0.3548 0.5855 0.0412
C23_2 C 0.2188(4) 0.6025(6) 0.2033(14)
C24_2 C 0.2812(4) 0.6025(6) 0.2033(14)
H11_2 H 0.1973 0.6173 0.3056
H12_2 H 0.3027 0.6173 0.3056
C5_2 C 0.0799(6) 0.6873(4) 0.9532(13)
H2_2 H 0.0855 0.6452 0.9588
C6_2 C 0.1025(6) 0.7188(4) 0.7967(14)
H3_2 H 0.1173 0.6973 0.6944
In3_8 In -0.0000 1.0000 1.0000
O13_2 O 0.0926(3) 0.5095(5) 0.8966(10)
C8_2 C 0.1183(4) 0.5124(6) 0.7394(15)
C9_2 C 0.3817(4) 0.5124(6) 0.7394(15)
C11_2 C 0.1857(4) 0.5214(5) 0.7445(11)
C12_2 C 0.3143(4) 0.5214(5) 0.7445(11)
C14_2 C 0.2179(5) 0.4987(6) 0.5909(13)
C15_2 C 0.2821(5) 0.4987(6) 0.5909(13)
H5_2 H 0.1967 0.4836 0.4885
H6_2 H 0.3033 0.4836 0.4885
C17_2 C 0.2165(4) 0.5488(6) 0.8962(14)
C18_2 C 0.2835(4) 0.5488(6) 0.8962(14)
C19_2 C 0.0799(6) 0.8127(4) 0.9532(13)
H7_2 H 0.0855 0.8548 0.9588
C22_2 C 0.1025(6) 0.7812(4) 0.7967(14)
H10_2 H 0.1173 0.8027 0.6944
In3_9 In 1.0000 0.0000 0.0000
In5_5 In 1.0000 0.0000 0.5000
In3_10 In 1.0000 0.0000 1.0000
C3_2 C 0.9987(6) 0.7179(5) 0.4091(13)
H1_2 H 0.9836 0.6967 0.5115
In3_11 In 1.0000 1.0000 0.0000
In5_6 In 1.0000 1.0000 0.5000
O5_2 O 0.9658(3) 0.5342(3) 0.7455(11)
O10_2 O 0.9923(5) 0.4074(3) 0.5946(11)
C13_2 C 0.9987(6) 0.7821(5) 0.4091(13)
H4_2 H 0.9836 0.8033 0.5115
In3_12 In 1.0000 1.0000 1.0000
O15_2 O 0.9905(5) 0.4074(3) 0.8966(10)
O1_3 O 0.0342(3) 0.0342(3) 0.2545(11)
C14_3 C 0.0013(6) 0.2179(5) 0.5909(13)
C15_3 C 0.0013(6) 0.2821(5) 0.5909(13)
H5_3 H 0.0164 0.1967 0.4885
H6_3 H 0.0164 0.3033 0.4885
O10_3 O 0.0926(3) 0.9923(5) 0.5946(11)
O15_3 O 0.0926(3) 0.9905(5) 0.8966(10)
O2_3 O 0.9074(3) 0.0077(5) 0.4054(11)
O3_3 O 0.9074(3) 0.0095(5) 0.1034(10)
C1_3 C 0.8817(4) 0.0124(6) 0.2606(15)
C2_3 C 0.8143(4) 0.0214(5) 0.2555(11)
C4_3 C 0.7835(4) 0.0488(6) 0.1038(14)
O6_3 O 0.5926(3) 0.0077(5) 0.4054(11)
O9_3 O 0.9923(5) 0.0926(3) 0.5946(11)
O12_3 O 0.5926(3) 0.0095(5) 0.1034(10)
C7_3 C 0.6183(4) 0.0124(6) 0.2606(15)
C10_3 C 0.6857(4) 0.0214(5) 0.2555(11)
C16_3 C 0.7165(4) 0.0488(6) 0.1038(14)
C20_3 C 0.9201(6) 0.1873(4) 0.0468(13)
C21_3 C 0.9201(6) 0.3127(4) 0.0468(13)
H8_3 H 0.9145 0.1452 0.0412
H9_3 H 0.9145 0.3548 0.0412
C23_3 C 0.8975(6) 0.2188(4) 0.2033(14)
C24_3 C 0.8975(6) 0.2812(4) 0.2033(14)
H11_3 H 0.8827 0.1973 0.3056
H12_3 H 0.8827 0.3027 0.3056
C5_3 C 0.8127(4) 0.0799(6) 0.9532(13)
H2_3 H 0.8548 0.0855 0.9588
C6_3 C 0.7812(4) 0.1025(6) 0.7967(14)
H3_3 H 0.8027 0.1173 0.6944
O13_3 O 0.9905(5) 0.0926(3) 0.8966(10)
C8_3 C 0.9876(6) 0.1183(4) 0.7394(15)
C9_3 C 0.9876(6) 0.3817(4) 0.7394(15)
C11_3 C 0.9786(5) 0.1857(4) 0.7445(11)
C12_3 C 0.9786(5) 0.3143(4) 0.7445(11)
C17_3 C 0.9512(6) 0.2165(4) 0.8962(14)
C18_3 C 0.9512(6) 0.2835(4) 0.8962(14)
C19_3 C 0.6873(4) 0.0799(6) 0.9532(13)
H7_3 H 0.6452 0.0855 0.9588
C22_3 C 0.7188(4) 0.1025(6) 0.7967(14)
H10_3 H 0.6973 0.1173 0.6944
C3_3 C 0.7821(5) 0.9987(6) 0.4091(13)
H1_3 H 0.8033 0.9836 0.5115
O5_3 O 0.9658(3) 0.9658(3) 0.7455(11)
C13_3 C 0.7179(5) 0.9987(6) 0.4091(13)
H4_3 H 0.6967 0.9836 0.5115
O1_4 O 0.4658(3) 0.0342(3) 0.2545(11)
C14_4 C 0.2821(5) 0.0013(6) 0.5909(13)
C15_4 C 0.2179(5) 0.0013(6) 0.5909(13)
H5_4 H 0.3033 0.0164 0.4885
H6_4 H 0.1967 0.0164 0.4885
O2_4 O 0.4923(5) 0.9074(3) 0.4054(11)
O3_4 O 0.4905(5) 0.9074(3) 0.1034(10)
C1_4 C 0.4876(6) 0.8817(4) 0.2606(15)
C2_4 C 0.4786(5) 0.8143(4) 0.2555(11)
C3_4 C 0.5013(6) 0.7821(5) 0.4091(13)
H1_4 H 0.5164 0.8033 0.5115
C4_4 C 0.4512(6) 0.7835(4) 0.1038(14)
O5_4 O 0.5342(3) 0.9658(3) 0.7455(11)
O9_4 O 0.4074(3) 0.9923(5) 0.5946(11)
C7_4 C 0.4876(6) 0.6183(4) 0.2606(15)
C10_4 C 0.4786(5) 0.6857(4) 0.2555(11)
C13_4 C 0.5013(6) 0.7179(5) 0.4091(13)
H4_4 H 0.5164 0.6967 0.5115
C16_4 C 0.4512(6) 0.7165(4) 0.1038(14)
C20_4 C 0.3127(4) 0.9201(6) 0.0468(13)
C21_4 C 0.1873(4) 0.9201(6) 0.0468(13)
H8_4 H 0.3548 0.9145 0.0412
H9_4 H 0.1452 0.9145 0.0412
C23_4 C 0.2812(4) 0.8975(6) 0.2033(14)
C24_4 C 0.2188(4) 0.8975(6) 0.2033(14)
H11_4 H 0.3027 0.8827 0.3056
H12_4 H 0.1973 0.8827 0.3056
C5_4 C 0.4201(6) 0.8127(4) 0.9532(13)
H2_4 H 0.4145 0.8548 0.9588
C6_4 C 0.3975(6) 0.7812(4) 0.7967(14)
H3_4 H 0.3827 0.8027 0.6944
O13_4 O 0.4074(3) 0.9905(5) 0.8966(10)
C8_4 C 0.3817(4) 0.9876(6) 0.7394(15)
C9_4 C 0.1183(4) 0.9876(6) 0.7394(15)
C11_4 C 0.3143(4) 0.9786(5) 0.7445(11)
C12_4 C 0.1857(4) 0.9786(5) 0.7445(11)
C17_4 C 0.2835(4) 0.9512(6) 0.8962(14)
C18_4 C 0.2165(4) 0.9512(6) 0.8962(14)
C19_4 C 0.4201(6) 0.6873(4) 0.9532(13)
H7_4 H 0.4145 0.6452 0.9588
C22_4 C 0.3975(6) 0.7188(4) 0.7967(14)
H10_4 H 0.3827 0.6973 0.6944
loop_
_geom_bond_atom_site_label_1
_geom_bond_atom_site_label_2
_geom_bond_site_symmetry_1
_geom_bond_site_symmetry_2
In1 O1 1_555 1_555
In2 O1 1_555 1_555
O2 In2 1_555 1_555
O3 In1 1_555 1_555
C1 O2 1_555 1_555
C2 C1 1_555 1_555
C3 C2 1_555 1_555
H1 C3 1_555 1_555
C4 C2 1_555 1_555
In3_3 O12 1_555 1_555
In5_2 O6 1_555 1_555
O5 In2 1_555 1_555
O6 C7 1_555 1_555
O9 In2 1_555 1_555
O10 In2 1_555 1_555
O11 In2 1_555 1_555
O12 C7 1_555 1_555
O16 In1 1_555 1_555
C7 C10 1_555 1_555
C10 C13 1_555 1_555
C13 C3 1_555 1_555
H4 C13 1_555 1_555
C16 C4 1_555 1_555
H8 C20 1_555 1_555
H9 C21 1_555 1_555
C23 C20 1_555 1_555
C24 C21 1_555 1_555
H11 C23 1_555 1_555
H12 C24 1_555 1_555
O3 C1 1_555 1_555
C10 C16 1_555 1_555
C23 C24 1_555 1_555
H2 C5 1_555 1_555
C6 C5 1_555 1_555
H3 C6 1_555 1_555
In4_2 O14 1_555 1_555
In7 O8 1_555 1_555
O5 In1_2 1_555 1_555
O8 C9 1_555 1_555
O13 In1_2 1_555 1_555
O14 C9 1_555 1_555
O15 In1_2 1_555 1_555
C8 O9 1_555 1_555
C9 C12 1_555 1_555
C11 C8 1_555 1_555
C12 C15 1_555 1_555
C14 C11 1_555 1_555
C15 C14 1_555 1_555
H5 C14 1_555 1_555
H6 C15 1_555 1_555
C17 C11 1_555 1_555
C18 C12 1_555 1_555
H7 C19 1_555 1_555
C22 C6 1_555 1_555
H10 C22 1_555 1_555
O13 C8 1_555 1_555
C17 C18 1_555 1_555
C19 C22 1_555 1_555
In3 O1_2 1_555 1_555
In5 O1_2 1_555 1_555
O2_2 In5 1_555 1_555
O3_2 In3 1_555 1_555
C1_2 O2_2 1_555 1_555
C2_2 C1_2 1_555 1_555
C4_2 C2_2 1_555 1_555
In3_7 O12_2 1_555 1_555
In5_4 O6_2 1_555 1_555
O6_2 C7_2 1_555 1_555
O9_2 In5 1_555 1_555
O12_2 C7_2 1_555 1_555
C7_2 C10_2 1_555 1_555
C16_2 C4_2 1_555 1_555
H8_2 C20_2 1_555 1_555
H9_2 C21_2 1_555 1_555
C23_2 C20_2 1_555 1_555
C24_2 C21_2 1_555 1_555
H11_2 C23_2 1_555 1_555
H12_2 C24_2 1_555 1_555
O3_2 C1_2 1_555 1_555
C10_2 C16_2 1_555 1_555
C23_2 C24_2 1_555 1_555
H2_2 C5_2 1_555 1_555
C6_2 C5_2 1_555 1_555
H3_2 C6_2 1_555 1_555
O10 C9_2 1_555 1_555
O13_2 In3_2 1_555 1_555
O15 C9_2 1_555 1_555
C8_2 O9_2 1_555 1_555
C9_2 C12_2 1_555 1_555
C11_2 C8_2 1_555 1_555
C12_2 C15_2 1_555 1_555
C14_2 C11_2 1_555 1_555
C15_2 C14_2 1_555 1_555
H5_2 C14_2 1_555 1_555
H6_2 C15_2 1_555 1_555
C17_2 C11_2 1_555 1_555
C18_2 C12_2 1_555 1_555
H7_2 C19_2 1_555 1_555
C22_2 C6_2 1_555 1_555
H10_2 C22_2 1_555 1_555
O13_2 C8_2 1_555 1_555
C17_2 C18_2 1_555 1_555
C19_2 C22_2 1_555 1_555
H1_2 C3_2 1_555 1_555
O5_2 In5_2 1_555 1_555
O10_2 In5_2 1_555 1_555
C13_2 C3_2 1_555 1_555
H4_2 C13_2 1_555 1_555
O5_2 In3_4 1_555 1_555
O15_2 In3_4 1_555 1_555
In3_5 O1_3 1_555 1_555
In5_3 O1_3 1_555 1_555
C15_3 C14_3 1_555 1_555
H5_3 C14_3 1_555 1_555
H6_3 C15_3 1_555 1_555
O10_3 In5_4 1_555 1_555
O15_3 In3_8 1_555 1_555
O2_3 In5_5 1_555 1_555
O3_3 In3_9 1_555 1_555
C1_3 O2_3 1_555 1_555
C2_3 C1_3 1_555 1_555
C4_3 C2_3 1_555 1_555
In4 O12_3 1_555 1_555
In7 O6_3 1_555 1_555
O6_3 C7_3 1_555 1_555
O9_3 In5_5 1_555 1_555
O12_3 C7_3 1_555 1_555
C7_3 C10_3 1_555 1_555
C16_3 C4_3 1_555 1_555
H8_3 C20_3 1_555 1_555
H9_3 C21_3 1_555 1_555
C23_3 C20_3 1_555 1_555
C24_3 C21_3 1_555 1_555
H11_3 C23_3 1_555 1_555
H12_3 C24_3 1_555 1_555
O3_3 C1_3 1_555 1_555
C10_3 C16_3 1_555 1_555
C23_3 C24_3 1_555 1_555
H2_3 C5_3 1_555 1_555
C6_3 C5_3 1_555 1_555
H3_3 C6_3 1_555 1_555
O10_2 C9_3 1_555 1_555
O13_3 In3_10 1_555 1_555
O15_2 C9_3 1_555 1_555
C8_3 O9_3 1_555 1_555
C9_3 C12_3 1_555 1_555
C11_3 C8_3 1_555 1_555
C17_3 C11_3 1_555 1_555
C18_3 C12_3 1_555 1_555
H7_3 C19_3 1_555 1_555
C22_3 C6_3 1_555 1_555
H10_3 C22_3 1_555 1_555
O13_3 C8_3 1_555 1_555
C17_3 C18_3 1_555 1_555
C19_3 C22_3 1_555 1_555
H1_3 C3_3 1_555 1_555
O5_3 In5_6 1_555 1_555
C13_3 C3_3 1_555 1_555
H4_3 C13_3 1_555 1_555
O5_3 In3_12 1_555 1_555
In4 O1_4 1_555 1_555
In7 O1_4 1_555 1_555
C15_4 C14_4 1_555 1_555
H5_4 C14_4 1_555 1_555
H6_4 C15_4 1_555 1_555
O2_4 In7_2 1_555 1_555
O3_4 In4_3 1_555 1_555
C1_4 O2_4 1_555 1_555
C2_4 C1_4 1_555 1_555
C3_4 C2_4 1_555 1_555
H1_4 C3_4 1_555 1_555
C4_4 C2_4 1_555 1_555
O5_4 In7_2 1_555 1_555
O11 C7_4 1_555 1_555
O9_4 In7_2 1_555 1_555
O16 C7_4 1_555 1_555
C7_4 C10_4 1_555 1_555
C10_4 C13_4 1_555 1_555
C13_4 C3_4 1_555 1_555
H4_4 C13_4 1_555 1_555
C16_4 C4_4 1_555 1_555
H8_4 C20_4 1_555 1_555
H9_4 C21_4 1_555 1_555
C23_4 C20_4 1_555 1_555
C24_4 C21_4 1_555 1_555
H11_4 C23_4 1_555 1_555
H12_4 C24_4 1_555 1_555
O3_4 C1_4 1_555 1_555
C10_4 C16_4 1_555 1_555
C23_4 C24_4 1_555 1_555
H2_4 C5_4 1_555 1_555
C6_4 C5_4 1_555 1_555
H3_4 C6_4 1_555 1_555
O5_4 In4_4 1_555 1_555
O10_3 C9_4 1_555 1_555
O13_4 In4_4 1_555 1_555
O15_3 C9_4 1_555 1_555
C8_4 O9_4 1_555 1_555
C9_4 C12_4 1_555 1_555
C11_4 C8_4 1_555 1_555
C17_4 C11_4 1_555 1_555
C18_4 C12_4 1_555 1_555
H7_4 C19_4 1_555 1_555
C22_4 C6_4 1_555 1_555
H10_4 C22_4 1_555 1_555
O13_4 C8_4 1_555 1_555
C17_4 C18_4 1_555 1_555
C19_4 C22_4 1_555 1_555

#END
