
###############################################################################
#
# This file contains modified crystal structure data generated from the
# MOF subset of the Cambridge Structural Database (CSD) v543 
# hosted by the Cambridge Crystallographic Data Centre (CCDC).
#
# This work is licensed under the Creative Commons
# Attribution-NonCommercial-ShareAlike 4.0 International License.
# To view a copy of this license, visit
# http://creativecommons.org/licenses/by-nc-sa/4.0/
# or send a letter to
# Creative Commons, PO Box 1866, Mountain View, CA 94042, USA.
#
# CIF created using the CSD Python API on 29 September 2022
# The structure has been converted into the P1 space group
# The structure has a 3D framework
# The original CSD entry NAZBAT is in the tetragonal crystal system
# The framework has been calculated to contain at least 10.0% void space
# The void calculation uses a probe of radius 1.32A, grid spacing 0.4
#
###############################################################################

data_NAZBAT
_chemical_formula_moiety         '(C192 H96 In8 O58)n'
_symmetry_cell_setting           triclinic
_symmetry_space_group_name_H-M   'P 1'
_symmetry_Int_Tables_number      1
_space_group_name_Hall           'P 1'
loop_
_symmetry_equiv_pos_site_id
_symmetry_equiv_pos_as_xyz
1 x,y,z
_cell_length_a                   14.659(2)
_cell_length_b                   14.659(2)
_cell_length_c                   32.512(6)
_cell_angle_alpha                90
_cell_angle_beta                 90
_cell_angle_gamma                90
_cell_volume                     6986.38
loop_
_atom_site_label
_atom_site_type_symbol
_atom_site_fract_x
_atom_site_fract_y
_atom_site_fract_z
O1 O 0.4337(2) 0.1623(2) 0.08686(9)
C2 C 0.1846(3) 0.1300(2) 0.00992(11)
C3 C 0.2467(3) 0.1354(3) 0.04389(11)
C4 C 0.3069(3) 0.2104(3) 0.04650(12)
C5 C 0.3066(4) 0.2777(3) 0.01727(14)
H1 H 0.3458 0.3272 0.0197
C7 C 0.1242(3) 0.0546(3) 0.00864(14)
C10 C 0.2437(3) 0.0680(3) 0.07459(13)
H6 H 0.2835 0.0717 0.0968
C12 C 0.3732(3) 0.2211(3) 0.08152(11)
In1 In 0.5000 0.2500 0.137109(8)
O4 O 0.3705(2) 0.2907(2) 0.10330(10)
O5 O 0.5877(2) 0.6837(2) 0.33686(9)
O6 O 0.5663(2) 0.3377(2) 0.08686(9)
C13 C 0.5487(3) 0.4370(3) 0.22977(11)
C14 C 0.6200(2) 0.4346(3) 0.25992(11)
C15 C 0.6146(3) 0.4967(3) 0.29389(11)
C16 C 0.5396(3) 0.5569(3) 0.29650(12)
C17 C 0.4723(3) 0.5566(4) 0.26727(14)
H7 H 0.4228 0.5958 0.2697
C18 C 0.4782(3) 0.4974(3) 0.23379(13)
H8 H 0.4331 0.4991 0.2137
C19 C 0.6954(3) 0.3742(3) 0.25864(14)
H9 H 0.7012 0.3339 0.2367
C20 C 0.7592(3) 0.3739(4) 0.28885(17)
H10 H 0.8081 0.3336 0.2872
C21 C 0.7528(3) 0.4333(3) 0.32243(16)
H11 H 0.7964 0.4317 0.3432
C22 C 0.6820(3) 0.4937(3) 0.32459(13)
H12 H 0.6783 0.5335 0.3468
C23 C 0.5419(3) 0.3709(3) 0.19394(11)
C24 C 0.5289(3) 0.6232(3) 0.33152(11)
In3 In 0.5000 0.7500 0.387109(8)
O7 O 0.5957(3) 0.3083(3) 0.18887(11)
O8 O 0.4043(3) 0.1917(3) 0.18887(11)
O9 O 0.4756(2) 0.3782(2) 0.17056(9)
O10 O 0.5244(2) 0.1218(2) 0.17056(9)
O11 O 0.4593(2) 0.6205(2) 0.35330(10)
O12 O 0.6295(2) 0.2093(2) 0.10330(10)
C1 C 0.1870(3) 0.2013(3) 0.97977(11)
C6 C 0.2474(3) 0.2718(3) 0.98379(13)
H2 H 0.2491 0.3169 0.9637
H3 H 0.0839 0.0488 0.9867
C11 C 0.1209(3) 0.2081(3) 0.94394(11)
O2 O 0.0583(3) 0.1543(3) 0.93887(11)
O3 O 0.1282(2) 0.2744(2) 0.92056(9)
In2 In 0.0000 0.2500 0.887109(8)
In2_2 In 1.0000 0.2500 0.887109(8)
O5_2 O 0.0663(2) 0.8377(2) 0.58686(9)
O6_2 O 0.4123(2) 0.8163(2) 0.33686(9)
C13_2 C 0.3130(3) 0.7987(3) 0.47977(11)
C14_2 C 0.3154(3) 0.8700(2) 0.50992(11)
C15_2 C 0.2533(3) 0.8646(3) 0.54389(11)
C16_2 C 0.1931(3) 0.7896(3) 0.54650(12)
C17_2 C 0.1934(4) 0.7223(3) 0.51727(14)
H7_2 H 0.1542 0.6728 0.5197
C18_2 C 0.2526(3) 0.7282(3) 0.48379(13)
H8_2 H 0.2509 0.6831 0.4637
C19_2 C 0.3758(3) 0.9454(3) 0.50864(14)
H9_2 H 0.4161 0.9512 0.4867
C22_2 C 0.2563(3) 0.9320(3) 0.57459(13)
H12_2 H 0.2165 0.9283 0.5968
C23_2 C 0.3791(3) 0.7919(3) 0.44394(11)
C24_2 C 0.1268(3) 0.7789(3) 0.58152(11)
In3_2 In 0.0000 0.7500 0.637109(8)
O7_2 O 0.4417(3) 0.8457(3) 0.43887(11)
O8_2 O 0.5583(3) 0.6543(3) 0.43887(11)
O9_2 O 0.3718(2) 0.7256(2) 0.42056(9)
O10_2 O 0.6282(2) 0.7744(2) 0.42056(9)
O11_2 O 0.1295(2) 0.7093(2) 0.60330(10)
O12_2 O 0.5407(2) 0.8795(2) 0.35330(10)
In3_3 In 1.0000 0.7500 0.637109(8)
C17_3 C 0.0277(3) 0.4434(4) 0.76727(14)
H7_3 H 0.0772 0.4042 0.7697
C18_3 C 0.0218(3) 0.5026(3) 0.73379(13)
H8_3 H 0.0669 0.5009 0.7137
O8_3 O 0.0957(3) 0.8083(3) 0.68887(11)
O9_3 O 0.0244(2) 0.6218(2) 0.67056(9)
O11_3 O 0.0407(2) 0.3795(2) 0.85330(10)
O5_3 O 0.9123(2) 0.3163(2) 0.83686(9)
O6_3 O 0.9337(2) 0.6623(2) 0.58686(9)
C13_3 C 0.9513(3) 0.5630(3) 0.72977(11)
C14_3 C 0.8800(2) 0.5654(3) 0.75992(11)
C15_3 C 0.8854(3) 0.5033(3) 0.79389(11)
C16_3 C 0.9604(3) 0.4431(3) 0.79650(12)
C19_3 C 0.8046(3) 0.6258(3) 0.75864(14)
H9_3 H 0.7988 0.6661 0.7367
C20_2 C 0.7408(3) 0.6261(4) 0.78885(17)
H10_2 H 0.6919 0.6664 0.7872
C21_2 C 0.7472(3) 0.5667(3) 0.82243(16)
H11_2 H 0.7036 0.5683 0.8432
C22_3 C 0.8180(3) 0.5063(3) 0.82459(13)
H12_3 H 0.8217 0.4665 0.8468
C23_3 C 0.9581(3) 0.6291(3) 0.69394(11)
C24_3 C 0.9711(3) 0.3768(3) 0.83152(11)
O7_3 O 0.9043(3) 0.6917(3) 0.68887(11)
O10_3 O 0.9756(2) 0.8782(2) 0.67056(9)
O12_3 O 0.8705(2) 0.7907(2) 0.60330(10)
O6_4 O 0.0877(2) 0.1837(2) 0.83686(9)
O8_4 O 0.9417(3) 0.3457(3) 0.93887(11)
O10_4 O 0.8718(2) 0.2256(2) 0.92056(9)
O12_4 O 0.9593(2) 0.1205(2) 0.85330(10)
C16_4 C 0.0396(3) 0.0569(3) 0.79650(12)
H12_4 H 0.1783 0.0335 0.8468
C24_4 C 0.0289(3) 0.1232(3) 0.83152(11)
C13_4 C 0.0487(3) 0.9370(3) 0.72977(11)
C14_4 C 0.1200(2) 0.9346(3) 0.75992(11)
C15_4 C 0.1146(3) 0.9967(3) 0.79389(11)
C19_4 C 0.1954(3) 0.8742(3) 0.75864(14)
H9_4 H 0.2012 0.8339 0.7367
C20_3 C 0.2592(3) 0.8739(4) 0.78885(17)
H10_3 H 0.3081 0.8336 0.7872
C21_3 C 0.2528(3) 0.9333(3) 0.82243(16)
H11_3 H 0.2964 0.9317 0.8432
C22_4 C 0.1820(3) 0.9937(3) 0.82459(13)
C23_4 C 0.0419(3) 0.8709(3) 0.69394(11)
C17_4 C 0.9723(3) 0.0566(4) 0.76727(14)
H7_4 H 0.9228 0.0958 0.7697
C1_2 C 0.6870(3) 0.7013(3) 0.47977(11)
C2_2 C 0.6846(3) 0.6300(2) 0.50992(11)
C3_2 C 0.7467(3) 0.6354(3) 0.54389(11)
C4_2 C 0.8069(3) 0.7104(3) 0.54650(12)
C5_2 C 0.8066(4) 0.7777(3) 0.51727(14)
H1_2 H 0.8458 0.8272 0.5197
C6_2 C 0.7474(3) 0.7718(3) 0.48379(13)
H2_2 H 0.7491 0.8169 0.4637
C7_2 C 0.6242(3) 0.5546(3) 0.50864(14)
H3_2 H 0.5839 0.5488 0.4867
C8 C 0.6239(4) 0.4908(3) 0.53885(17)
H4 H 0.5836 0.4419 0.5372
C9 C 0.6833(3) 0.4972(3) 0.57243(16)
H5 H 0.6817 0.4536 0.5932
C10_2 C 0.7437(3) 0.5680(3) 0.57459(13)
H6_2 H 0.7835 0.5717 0.5968
C11_2 C 0.6209(3) 0.7081(3) 0.44394(11)
C12_2 C 0.8732(3) 0.7211(3) 0.58152(11)
C18_4 C 0.9782(3) 0.9974(3) 0.73379(13)
H8_4 H 0.9331 0.9991 0.7137
C14_5 C 0.8154(3) 0.3700(2) 0.00992(11)
C15_5 C 0.7533(3) 0.3646(3) 0.04389(11)
C16_5 C 0.6931(3) 0.2896(3) 0.04650(12)
C17_5 C 0.6934(4) 0.2223(3) 0.01727(14)
H7_5 H 0.6542 0.1728 0.0197
C19_5 C 0.8758(3) 0.4454(3) 0.00864(14)
C20_4 C 0.8761(4) 0.5092(3) 0.03885(17)
H10_4 H 0.9164 0.5581 0.0372
C21_4 C 0.8167(3) 0.5028(3) 0.07243(16)
H11_4 H 0.8183 0.5464 0.0932
C22_5 C 0.7563(3) 0.4320(3) 0.07459(13)
H12_5 H 0.7165 0.4283 0.0968
C24_5 C 0.6268(3) 0.2789(3) 0.08152(11)
C13_5 C 0.8130(3) 0.2987(3) 0.97977(11)
C18_5 C 0.7526(3) 0.2282(3) 0.98379(13)
H8_5 H 0.7509 0.1831 0.9637
H9_5 H 0.9161 0.4512 0.9867
C23_5 C 0.8791(3) 0.2919(3) 0.94394(11)
C13_6 C 0.4513(3) 0.0630(3) 0.22977(11)
C14_6 C 0.3800(2) 0.0654(3) 0.25992(11)
C15_6 C 0.3854(3) 0.0033(3) 0.29389(11)
C18_6 C 0.5218(3) 0.0026(3) 0.23379(13)
H8_6 H 0.5669 0.0009 0.2137
C19_6 C 0.3046(3) 0.1258(3) 0.25864(14)
H9_6 H 0.2988 0.1661 0.2367
C20_5 C 0.2408(3) 0.1261(4) 0.28885(17)
H10_5 H 0.1919 0.1664 0.2872
C21_5 C 0.2472(3) 0.0667(3) 0.32243(16)
H11_5 H 0.2036 0.0683 0.3432
C22_6 C 0.3180(3) 0.0063(3) 0.32459(13)
C23_6 C 0.4581(3) 0.1291(3) 0.19394(11)
C16_6 C 0.4604(3) 0.9431(3) 0.29650(12)
C17_6 C 0.5277(3) 0.9434(4) 0.26727(14)
H7_6 H 0.5772 0.9042 0.2697
H12_6 H 0.3217 0.9665 0.3468
C24_6 C 0.4711(3) 0.8768(3) 0.33152(11)
C8_2 C 0.1239(4) 0.9908(3) 0.03885(17)
H4_2 H 0.0836 0.9419 0.0372
C9_2 C 0.1833(3) 0.9972(3) 0.07243(16)
H5_2 H 0.1817 0.9536 0.0932
C20_6 C 0.3761(4) 0.0092(3) 0.53885(17)
H10_6 H 0.4164 0.0581 0.5372
C21_6 C 0.3167(3) 0.0028(3) 0.57243(16)
H11_6 H 0.3183 0.0464 0.5932
In2_3 In 0.0000 0.7500 0.112891(8)
C1_3 C 0.8130(3) 0.7987(3) 0.02023(11)
C6_3 C 0.7526(3) 0.7282(3) 0.01621(13)
H2_3 H 0.7509 0.6831 0.0363
H3_3 H 0.9161 0.9512 0.0133
C11_3 C 0.8791(3) 0.7919(3) 0.05606(11)
O2_2 O 0.9417(3) 0.8457(3) 0.06113(11)
O3_2 O 0.8718(2) 0.7256(2) 0.07944(9)
In2_4 In 1.0000 0.7500 0.112891(8)
O1_2 O 0.5663(2) 0.8377(2) 0.91314(9)
C2_3 C 0.8154(3) 0.8700(2) 0.99008(11)
C3_3 C 0.7533(3) 0.8646(3) 0.95611(11)
C4_3 C 0.6931(3) 0.7896(3) 0.95350(12)
C5_3 C 0.6934(4) 0.7223(3) 0.98273(14)
H1_3 H 0.6542 0.6728 0.9803
C7_3 C 0.8758(3) 0.9454(3) 0.99136(14)
C10_3 C 0.7563(3) 0.9320(3) 0.92541(13)
H6_3 H 0.7165 0.9283 0.9032
C12_3 C 0.6268(3) 0.7789(3) 0.91848(11)
In1_2 In 0.5000 0.7500 0.862891(8)
O4_2 O 0.6295(2) 0.7093(2) 0.89670(10)
O5_4 O 0.4123(2) 0.3163(2) 0.66314(9)
O6_5 O 0.4337(2) 0.6623(2) 0.91314(9)
C13_7 C 0.4513(3) 0.5630(3) 0.77023(11)
C14_7 C 0.3800(2) 0.5654(3) 0.74008(11)
C15_7 C 0.3854(3) 0.5033(3) 0.70611(11)
C16_7 C 0.4604(3) 0.4431(3) 0.70350(12)
C17_7 C 0.5277(3) 0.4434(4) 0.73273(14)
H7_7 H 0.5772 0.4042 0.7303
C18_7 C 0.5218(3) 0.5026(3) 0.76621(13)
H8_7 H 0.5669 0.5009 0.7863
C19_7 C 0.3046(3) 0.6258(3) 0.74136(14)
H9_7 H 0.2988 0.6661 0.7633
C20_7 C 0.2408(3) 0.6261(4) 0.71115(17)
H10_7 H 0.1919 0.6664 0.7128
C21_7 C 0.2472(3) 0.5667(3) 0.67757(16)
H11_7 H 0.2036 0.5683 0.6568
C22_7 C 0.3180(3) 0.5063(3) 0.67541(13)
H12_7 H 0.3217 0.4665 0.6532
C23_7 C 0.4581(3) 0.6291(3) 0.80606(11)
C24_7 C 0.4711(3) 0.3768(3) 0.66848(11)
In3_4 In 0.5000 0.2500 0.612891(8)
O7_4 O 0.4043(3) 0.6917(3) 0.81113(11)
O8_5 O 0.5957(3) 0.8083(3) 0.81113(11)
O9_4 O 0.5244(2) 0.6218(2) 0.82944(9)
O10_5 O 0.4756(2) 0.8782(2) 0.82944(9)
O11_4 O 0.5407(2) 0.3795(2) 0.64670(10)
O12_5 O 0.3705(2) 0.7907(2) 0.89670(10)
In3_5 In 0.0000 0.2500 0.362891(8)
O5_5 O 0.9337(2) 0.1623(2) 0.41314(9)
O6_6 O 0.5877(2) 0.1837(2) 0.66314(9)
C13_8 C 0.6870(3) 0.2013(3) 0.52023(11)
C14_8 C 0.6846(3) 0.1300(2) 0.49008(11)
C15_8 C 0.7467(3) 0.1354(3) 0.45611(11)
C16_8 C 0.8069(3) 0.2104(3) 0.45350(12)
C17_8 C 0.8066(4) 0.2777(3) 0.48273(14)
H7_8 H 0.8458 0.3272 0.4803
C18_8 C 0.7474(3) 0.2718(3) 0.51621(13)
H8_8 H 0.7491 0.3169 0.5363
C19_8 C 0.6242(3) 0.0546(3) 0.49136(14)
H9_8 H 0.5839 0.0488 0.5133
C22_8 C 0.7437(3) 0.0680(3) 0.42541(13)
H12_8 H 0.7835 0.0717 0.4032
C23_8 C 0.6209(3) 0.2081(3) 0.55606(11)
C24_8 C 0.8732(3) 0.2211(3) 0.41848(11)
In3_6 In 1.0000 0.2500 0.362891(8)
O7_5 O 0.5583(3) 0.1543(3) 0.56113(11)
O8_6 O 0.4417(3) 0.3457(3) 0.56113(11)
O9_5 O 0.6282(2) 0.2744(2) 0.57944(9)
O10_6 O 0.3718(2) 0.2256(2) 0.57944(9)
O11_5 O 0.8705(2) 0.2907(2) 0.39670(10)
O12_6 O 0.4593(2) 0.1205(2) 0.64670(10)
O5_6 O 0.0877(2) 0.6837(2) 0.16314(9)
O6_7 O 0.0663(2) 0.3377(2) 0.41314(9)
C13_9 C 0.0487(3) 0.4370(3) 0.27023(11)
C14_9 C 0.1200(2) 0.4346(3) 0.24008(11)
C15_9 C 0.1146(3) 0.4967(3) 0.20611(11)
C16_9 C 0.0396(3) 0.5569(3) 0.20350(12)
C19_9 C 0.1954(3) 0.3742(3) 0.24136(14)
H9_9 H 0.2012 0.3339 0.2633
C20_8 C 0.2592(3) 0.3739(4) 0.21115(17)
H10_8 H 0.3081 0.3336 0.2128
C21_8 C 0.2528(3) 0.4333(3) 0.17757(16)
H11_8 H 0.2964 0.4317 0.1568
C22_9 C 0.1820(3) 0.4937(3) 0.17541(13)
H12_9 H 0.1783 0.5335 0.1532
C23_9 C 0.0419(3) 0.3709(3) 0.30606(11)
C24_9 C 0.0289(3) 0.6232(3) 0.16848(11)
O7_6 O 0.0957(3) 0.3083(3) 0.31113(11)
O10_7 O 0.0244(2) 0.1218(2) 0.32944(9)
O12_7 O 0.1295(2) 0.2093(2) 0.39670(10)
C17_9 C 0.9723(3) 0.5566(4) 0.23273(14)
H7_9 H 0.9228 0.5958 0.2303
C18_9 C 0.9782(3) 0.4974(3) 0.26621(13)
H8_9 H 0.9331 0.4991 0.2863
O8_7 O 0.9043(3) 0.1917(3) 0.31113(11)
O9_6 O 0.9756(2) 0.3782(2) 0.32944(9)
O11_6 O 0.9593(2) 0.6205(2) 0.14670(10)
O8_8 O 0.0583(3) 0.6543(3) 0.06113(11)
O10_8 O 0.1282(2) 0.7744(2) 0.07944(9)
O12_8 O 0.0407(2) 0.8795(2) 0.14670(10)
O6_8 O 0.9123(2) 0.8163(2) 0.16314(9)
C1_4 C 0.3130(3) 0.2987(3) 0.52023(11)
C2_4 C 0.3154(3) 0.3700(2) 0.49008(11)
C3_4 C 0.2533(3) 0.3646(3) 0.45611(11)
C4_4 C 0.1931(3) 0.2896(3) 0.45350(12)
C5_4 C 0.1934(4) 0.2223(3) 0.48273(14)
H1_4 H 0.1542 0.1728 0.4803
C6_4 C 0.2526(3) 0.2282(3) 0.51621(13)
H2_4 H 0.2509 0.1831 0.5363
C7_4 C 0.3758(3) 0.4454(3) 0.49136(14)
H3_4 H 0.4161 0.4512 0.5133
C8_3 C 0.3761(4) 0.5092(3) 0.46115(17)
H4_3 H 0.4164 0.5581 0.4628
C9_3 C 0.3167(3) 0.5028(3) 0.42757(16)
H5_3 H 0.3183 0.5464 0.4068
C10_4 C 0.2563(3) 0.4320(3) 0.42541(13)
H6_4 H 0.2165 0.4283 0.4032
C11_4 C 0.3791(3) 0.2919(3) 0.55606(11)
C12_4 C 0.1268(3) 0.2789(3) 0.41848(11)
C18_10 C 0.0218(3) 0.0026(3) 0.26621(13)
H8_10 H 0.0669 0.0009 0.2863
C17_10 C 0.0277(3) 0.9434(4) 0.23273(14)
H7_10 H 0.0772 0.9042 0.2303
C13_10 C 0.9513(3) 0.0630(3) 0.27023(11)
C14_10 C 0.8800(2) 0.0654(3) 0.24008(11)
C15_10 C 0.8854(3) 0.0033(3) 0.20611(11)
C19_10 C 0.8046(3) 0.1258(3) 0.24136(14)
H9_10 H 0.7988 0.1661 0.2633
C20_9 C 0.7408(3) 0.1261(4) 0.21115(17)
H10_9 H 0.6919 0.1664 0.2128
C21_9 C 0.7472(3) 0.0667(3) 0.17757(16)
H11_9 H 0.7036 0.0683 0.1568
C22_10 C 0.8180(3) 0.0063(3) 0.17541(13)
C23_10 C 0.9581(3) 0.1291(3) 0.30606(11)
C16_10 C 0.9604(3) 0.9431(3) 0.20350(12)
H12_10 H 0.8217 0.9665 0.1532
C24_10 C 0.9711(3) 0.8768(3) 0.16848(11)
C13_11 C 0.1870(3) 0.7013(3) 0.02023(11)
C18_11 C 0.2474(3) 0.7718(3) 0.01621(13)
H8_11 H 0.2491 0.8169 0.0363
H9_11 H 0.0839 0.5488 0.0133
C23_11 C 0.1209(3) 0.7081(3) 0.05606(11)
C14_11 C 0.1846(3) 0.6300(2) 0.99008(11)
C15_11 C 0.2467(3) 0.6354(3) 0.95611(11)
C16_11 C 0.3069(3) 0.7104(3) 0.95350(12)
C17_11 C 0.3066(4) 0.7777(3) 0.98273(14)
H7_11 H 0.3458 0.8272 0.9803
C19_11 C 0.1242(3) 0.5546(3) 0.99136(14)
C20_10 C 0.1239(4) 0.4908(3) 0.96115(17)
H10_10 H 0.0836 0.4419 0.9628
C21_10 C 0.1833(3) 0.4972(3) 0.92757(16)
H11_10 H 0.1817 0.4536 0.9068
C22_11 C 0.2437(3) 0.5680(3) 0.92541(13)
H12_11 H 0.2835 0.5717 0.9032
C24_11 C 0.3732(3) 0.7211(3) 0.91848(11)
C16_12 C 0.5396(3) 0.0569(3) 0.70350(12)
C17_12 C 0.4723(3) 0.0566(4) 0.73273(14)
H7_12 H 0.4228 0.0958 0.7303
H12_12 H 0.6783 0.0335 0.6532
C24_12 C 0.5289(3) 0.1232(3) 0.66848(11)
C13_12 C 0.5487(3) 0.9370(3) 0.77023(11)
C14_12 C 0.6200(2) 0.9346(3) 0.74008(11)
C15_12 C 0.6146(3) 0.9967(3) 0.70611(11)
C18_12 C 0.4782(3) 0.9974(3) 0.76621(13)
H8_12 H 0.4331 0.9991 0.7863
C19_12 C 0.6954(3) 0.8742(3) 0.74136(14)
H9_12 H 0.7012 0.8339 0.7633
C20_11 C 0.7592(3) 0.8739(4) 0.71115(17)
H10_11 H 0.8081 0.8336 0.7128
C21_11 C 0.7528(3) 0.9333(3) 0.67757(16)
H11_11 H 0.7964 0.9317 0.6568
C22_12 C 0.6820(3) 0.9937(3) 0.67541(13)
C23_12 C 0.5419(3) 0.8709(3) 0.80606(11)
C8_4 C 0.8761(4) 0.0092(3) 0.96115(17)
H4_4 H 0.9164 0.0581 0.9628
C9_4 C 0.8167(3) 0.0028(3) 0.92757(16)
H5_4 H 0.8183 0.0464 0.9068
C20_12 C 0.6239(4) 0.9908(3) 0.46115(17)
H10_12 H 0.5836 0.9419 0.4628
C21_12 C 0.6833(3) 0.9972(3) 0.42757(16)
H11_12 H 0.6817 0.9536 0.4068
loop_
_geom_bond_atom_site_label_1
_geom_bond_atom_site_label_2
_geom_bond_site_symmetry_1
_geom_bond_site_symmetry_2
O1 C12 1_555 1_555
C2 C3 1_555 1_555
C3 C4 1_555 1_555
C4 C5 1_555 1_555
C5 H1 1_555 1_555
C7 C2 1_555 1_555
C10 C3 1_555 1_555
H6 C10 1_555 1_555
C12 C4 1_555 1_555
In1 O1 1_555 1_555
O4 C12 1_555 1_555
O5 C24 1_555 1_555
O6 In1 1_555 1_555
C13 C14 1_555 1_555
C14 C15 1_555 1_555
C15 C16 1_555 1_555
C16 C17 1_555 1_555
C17 H7 1_555 1_555
C18 C13 1_555 1_555
H8 C18 1_555 1_555
C19 C14 1_555 1_555
H9 C19 1_555 1_555
C20 C19 1_555 1_555
H10 C20 1_555 1_555
C21 C20 1_555 1_555
H11 C21 1_555 1_555
C22 C15 1_555 1_555
H12 C22 1_555 1_555
C23 C13 1_555 1_555
C24 C16 1_555 1_555
In3 O5 1_555 1_555
O7 In1 1_555 1_555
O8 In1 1_555 1_555
O9 In1 1_555 1_555
O10 In1 1_555 1_555
O11 C24 1_555 1_555
O12 In1 1_555 1_555
In1 O4 1_555 1_555
C17 C18 1_555 1_555
C21 C22 1_555 1_555
C23 O7 1_555 1_555
C23 O9 1_555 1_555
In3 O11 1_555 1_555
C6 C1 1_555 1_555
H2 C6 1_555 1_555
C11 C1 1_555 1_555
O2 C11 1_555 1_555
O3 C11 1_555 1_555
In2 O2 1_555 1_555
O3 In2 1_555 1_555
O5_2 C24_2 1_555 1_555
O6_2 In3 1_555 1_555
C13_2 C14_2 1_555 1_555
C14_2 C15_2 1_555 1_555
C15_2 C16_2 1_555 1_555
C16_2 C17_2 1_555 1_555
C17_2 H7_2 1_555 1_555
C18_2 C13_2 1_555 1_555
H8_2 C18_2 1_555 1_555
C19_2 C14_2 1_555 1_555
H9_2 C19_2 1_555 1_555
C22_2 C15_2 1_555 1_555
H12_2 C22_2 1_555 1_555
C23_2 C13_2 1_555 1_555
C24_2 C16_2 1_555 1_555
In3_2 O5_2 1_555 1_555
O7_2 In3 1_555 1_555
O8_2 In3 1_555 1_555
O9_2 In3 1_555 1_555
O10_2 In3 1_555 1_555
O11_2 C24_2 1_555 1_555
O12_2 In3 1_555 1_555
C17_2 C18_2 1_555 1_555
C23_2 O7_2 1_555 1_555
C23_2 O9_2 1_555 1_555
In3_2 O11_2 1_555 1_555
C17_3 H7_3 1_555 1_555
H8_3 C18_3 1_555 1_555
O8_3 In3_2 1_555 1_555
O9_3 In3_2 1_555 1_555
C17_3 C18_3 1_555 1_555
In2 O11_3 1_555 1_555
O5_3 C24_3 1_555 1_555
O6_3 In3_3 1_555 1_555
C13_3 C14_3 1_555 1_555
C14_3 C15_3 1_555 1_555
C15_3 C16_3 1_555 1_555
C19_3 C14_3 1_555 1_555
H9_3 C19_3 1_555 1_555
C20_2 C19_3 1_555 1_555
H10_2 C20_2 1_555 1_555
C21_2 C20_2 1_555 1_555
H11_2 C21_2 1_555 1_555
C22_3 C15_3 1_555 1_555
H12_3 C22_3 1_555 1_555
C23_3 C13_3 1_555 1_555
C24_3 C16_3 1_555 1_555
In2_2 O5_3 1_555 1_555
O7_3 In3_3 1_555 1_555
O10_3 In3_3 1_555 1_555
O12_3 In3_3 1_555 1_555
C21_2 C22_3 1_555 1_555
C23_3 O7_3 1_555 1_555
O6_4 In2 1_555 1_555
O8_4 In2_2 1_555 1_555
O10_4 In2_2 1_555 1_555
O12_4 In2_2 1_555 1_555
O6_4 C24_4 1_555 1_555
C24_4 C16_4 1_555 1_555
C13_4 C14_4 1_555 1_555
C14_4 C15_4 1_555 1_555
C19_4 C14_4 1_555 1_555
H9_4 C19_4 1_555 1_555
C20_3 C19_4 1_555 1_555
H10_3 C20_3 1_555 1_555
C21_3 C20_3 1_555 1_555
H11_3 C21_3 1_555 1_555
C22_4 C15_4 1_555 1_555
C23_4 C13_4 1_555 1_555
C21_3 C22_4 1_555 1_555
C23_4 O8_3 1_555 1_555
C17_4 H7_4 1_555 1_555
O6_3 C12_2 1_555 1_555
C1_2 C2_2 1_555 1_555
C2_2 C3_2 1_555 1_555
C3_2 C4_2 1_555 1_555
C4_2 C5_2 1_555 1_555
C5_2 H1_2 1_555 1_555
C6_2 C1_2 1_555 1_555
H2_2 C6_2 1_555 1_555
C7_2 C2_2 1_555 1_555
H3_2 C7_2 1_555 1_555
C8 C7_2 1_555 1_555
H4 C8 1_555 1_555
C9 C8 1_555 1_555
H5 C9 1_555 1_555
C10_2 C3_2 1_555 1_555
H6_2 C10_2 1_555 1_555
C11_2 C1_2 1_555 1_555
C12_2 C4_2 1_555 1_555
O8_2 C11_2 1_555 1_555
O10_2 C11_2 1_555 1_555
O12_3 C12_2 1_555 1_555
H8_4 C18_4 1_555 1_555
C5_2 C6_2 1_555 1_555
C9 C10_2 1_555 1_555
O6 C24_5 1_555 1_555
C14_5 C15_5 1_555 1_555
C15_5 C16_5 1_555 1_555
C16_5 C17_5 1_555 1_555
C17_5 H7_5 1_555 1_555
C19_5 C14_5 1_555 1_555
C20_4 C19_5 1_555 1_555
H10_4 C20_4 1_555 1_555
C21_4 C20_4 1_555 1_555
H11_4 C21_4 1_555 1_555
C22_5 C15_5 1_555 1_555
H12_5 C22_5 1_555 1_555
C24_5 C16_5 1_555 1_555
O12 C24_5 1_555 1_555
C21_4 C22_5 1_555 1_555
C18_5 C13_5 1_555 1_555
H8_5 C18_5 1_555 1_555
C23_5 C13_5 1_555 1_555
C23_5 O8_4 1_555 1_555
C23_5 O10_4 1_555 1_555
C13_6 C14_6 1_555 1_555
C14_6 C15_6 1_555 1_555
C18_6 C13_6 1_555 1_555
H8_6 C18_6 1_555 1_555
C19_6 C14_6 1_555 1_555
H9_6 C19_6 1_555 1_555
C20_5 C19_6 1_555 1_555
H10_5 C20_5 1_555 1_555
C21_5 C20_5 1_555 1_555
H11_5 C21_5 1_555 1_555
C22_6 C15_6 1_555 1_555
C23_6 C13_6 1_555 1_555
C21_5 C22_6 1_555 1_555
C23_6 O8 1_555 1_555
C23_6 O10 1_555 1_555
O6_2 C24_6 1_555 1_555
C16_6 C17_6 1_555 1_555
C17_6 H7_6 1_555 1_555
C24_6 C16_6 1_555 1_555
O12_2 C24_6 1_555 1_555
H4_2 C8_2 1_555 1_555
C9_2 C8_2 1_555 1_555
H5_2 C9_2 1_555 1_555
H10_6 C20_6 1_555 1_555
C21_6 C20_6 1_555 1_555
H11_6 C21_6 1_555 1_555
C6_3 C1_3 1_555 1_555
H2_3 C6_3 1_555 1_555
C11_3 C1_3 1_555 1_555
O2_2 C11_3 1_555 1_555
O3_2 C11_3 1_555 1_555
In2_4 O2_2 1_555 1_555
O3_2 In2_4 1_555 1_555
O1_2 C12_3 1_555 1_555
C2_3 C3_3 1_555 1_555
C3_3 C4_3 1_555 1_555
C4_3 C5_3 1_555 1_555
C5_3 H1_3 1_555 1_555
C7_3 C2_3 1_555 1_555
C10_3 C3_3 1_555 1_555
H6_3 C10_3 1_555 1_555
C12_3 C4_3 1_555 1_555
In1_2 O1_2 1_555 1_555
O4_2 C12_3 1_555 1_555
O5_4 C24_7 1_555 1_555
O6_5 In1_2 1_555 1_555
C13_7 C14_7 1_555 1_555
C14_7 C15_7 1_555 1_555
C15_7 C16_7 1_555 1_555
C16_7 C17_7 1_555 1_555
C17_7 H7_7 1_555 1_555
C18_7 C13_7 1_555 1_555
H8_7 C18_7 1_555 1_555
C19_7 C14_7 1_555 1_555
H9_7 C19_7 1_555 1_555
C20_7 C19_7 1_555 1_555
H10_7 C20_7 1_555 1_555
C21_7 C20_7 1_555 1_555
H11_7 C21_7 1_555 1_555
C22_7 C15_7 1_555 1_555
H12_7 C22_7 1_555 1_555
C23_7 C13_7 1_555 1_555
C24_7 C16_7 1_555 1_555
In3_4 O5_4 1_555 1_555
O7_4 In1_2 1_555 1_555
O8_5 In1_2 1_555 1_555
O9_4 In1_2 1_555 1_555
O10_5 In1_2 1_555 1_555
O11_4 C24_7 1_555 1_555
O12_5 In1_2 1_555 1_555
In1_2 O4_2 1_555 1_555
C17_7 C18_7 1_555 1_555
C21_7 C22_7 1_555 1_555
C23_7 O7_4 1_555 1_555
C23_7 O9_4 1_555 1_555
In3_4 O11_4 1_555 1_555
O5_5 C24_8 1_555 1_555
O6_6 In3_4 1_555 1_555
C13_8 C14_8 1_555 1_555
C14_8 C15_8 1_555 1_555
C15_8 C16_8 1_555 1_555
C16_8 C17_8 1_555 1_555
C17_8 H7_8 1_555 1_555
C18_8 C13_8 1_555 1_555
H8_8 C18_8 1_555 1_555
C19_8 C14_8 1_555 1_555
H9_8 C19_8 1_555 1_555
C22_8 C15_8 1_555 1_555
H12_8 C22_8 1_555 1_555
C23_8 C13_8 1_555 1_555
C24_8 C16_8 1_555 1_555
In3_6 O5_5 1_555 1_555
O7_5 In3_4 1_555 1_555
O8_6 In3_4 1_555 1_555
O9_5 In3_4 1_555 1_555
O10_6 In3_4 1_555 1_555
O11_5 C24_8 1_555 1_555
O12_6 In3_4 1_555 1_555
C17_8 C18_8 1_555 1_555
C23_8 O7_5 1_555 1_555
C23_8 O9_5 1_555 1_555
In3_6 O11_5 1_555 1_555
O5_6 C24_9 1_555 1_555
O6_7 In3_5 1_555 1_555
C13_9 C14_9 1_555 1_555
C14_9 C15_9 1_555 1_555
C15_9 C16_9 1_555 1_555
C19_9 C14_9 1_555 1_555
H9_9 C19_9 1_555 1_555
C20_8 C19_9 1_555 1_555
H10_8 C20_8 1_555 1_555
C21_8 C20_8 1_555 1_555
H11_8 C21_8 1_555 1_555
C22_9 C15_9 1_555 1_555
H12_9 C22_9 1_555 1_555
C23_9 C13_9 1_555 1_555
C24_9 C16_9 1_555 1_555
In2_3 O5_6 1_555 1_555
O7_6 In3_5 1_555 1_555
O10_7 In3_5 1_555 1_555
O12_7 In3_5 1_555 1_555
C21_8 C22_9 1_555 1_555
C23_9 O7_6 1_555 1_555
C17_9 H7_9 1_555 1_555
H8_9 C18_9 1_555 1_555
O8_7 In3_6 1_555 1_555
O9_6 In3_6 1_555 1_555
C17_9 C18_9 1_555 1_555
In2_4 O11_6 1_555 1_555
O8_8 In2_3 1_555 1_555
O10_8 In2_3 1_555 1_555
O12_8 In2_3 1_555 1_555
O6_8 In2_4 1_555 1_555
O6_7 C12_4 1_555 1_555
C1_4 C2_4 1_555 1_555
C2_4 C3_4 1_555 1_555
C3_4 C4_4 1_555 1_555
C4_4 C5_4 1_555 1_555
C5_4 H1_4 1_555 1_555
C6_4 C1_4 1_555 1_555
H2_4 C6_4 1_555 1_555
C7_4 C2_4 1_555 1_555
H3_4 C7_4 1_555 1_555
C8_3 C7_4 1_555 1_555
H4_3 C8_3 1_555 1_555
C9_3 C8_3 1_555 1_555
H5_3 C9_3 1_555 1_555
C10_4 C3_4 1_555 1_555
H6_4 C10_4 1_555 1_555
C11_4 C1_4 1_555 1_555
C12_4 C4_4 1_555 1_555
O8_6 C11_4 1_555 1_555
O10_6 C11_4 1_555 1_555
O12_7 C12_4 1_555 1_555
H8_10 C18_10 1_555 1_555
C5_4 C6_4 1_555 1_555
C9_3 C10_4 1_555 1_555
C17_10 H7_10 1_555 1_555
C13_10 C14_10 1_555 1_555
C14_10 C15_10 1_555 1_555
C19_10 C14_10 1_555 1_555
H9_10 C19_10 1_555 1_555
C20_9 C19_10 1_555 1_555
H10_9 C20_9 1_555 1_555
C21_9 C20_9 1_555 1_555
H11_9 C21_9 1_555 1_555
C22_10 C15_10 1_555 1_555
C23_10 C13_10 1_555 1_555
C21_9 C22_10 1_555 1_555
C23_10 O8_7 1_555 1_555
O6_8 C24_10 1_555 1_555
C24_10 C16_10 1_555 1_555
C18_11 C13_11 1_555 1_555
H8_11 C18_11 1_555 1_555
C23_11 C13_11 1_555 1_555
C23_11 O8_8 1_555 1_555
C23_11 O10_8 1_555 1_555
O6_5 C24_11 1_555 1_555
C14_11 C15_11 1_555 1_555
C15_11 C16_11 1_555 1_555
C16_11 C17_11 1_555 1_555
C17_11 H7_11 1_555 1_555
C19_11 C14_11 1_555 1_555
C20_10 C19_11 1_555 1_555
H10_10 C20_10 1_555 1_555
C21_10 C20_10 1_555 1_555
H11_10 C21_10 1_555 1_555
C22_11 C15_11 1_555 1_555
H12_11 C22_11 1_555 1_555
C24_11 C16_11 1_555 1_555
O12_5 C24_11 1_555 1_555
C21_10 C22_11 1_555 1_555
O6_6 C24_12 1_555 1_555
C16_12 C17_12 1_555 1_555
C17_12 H7_12 1_555 1_555
C24_12 C16_12 1_555 1_555
O12_6 C24_12 1_555 1_555
C13_12 C14_12 1_555 1_555
C14_12 C15_12 1_555 1_555
C18_12 C13_12 1_555 1_555
H8_12 C18_12 1_555 1_555
C19_12 C14_12 1_555 1_555
H9_12 C19_12 1_555 1_555
C20_11 C19_12 1_555 1_555
H10_11 C20_11 1_555 1_555
C21_11 C20_11 1_555 1_555
H11_11 C21_11 1_555 1_555
C22_12 C15_12 1_555 1_555
C23_12 C13_12 1_555 1_555
C21_11 C22_12 1_555 1_555
C23_12 O8_5 1_555 1_555
C23_12 O10_5 1_555 1_555
H4_4 C8_4 1_555 1_555
C9_4 C8_4 1_555 1_555
H5_4 C9_4 1_555 1_555
H10_12 C20_12 1_555 1_555
C21_12 C20_12 1_555 1_555
H11_12 C21_12 1_555 1_555

#END
