
###############################################################################
#
# This file contains modified crystal structure data generated from the
# MOF subset of the Cambridge Structural Database (CSD) v543 
# hosted by the Cambridge Crystallographic Data Centre (CCDC).
#
# This work is licensed under the Creative Commons
# Attribution-NonCommercial-ShareAlike 4.0 International License.
# To view a copy of this license, visit
# http://creativecommons.org/licenses/by-nc-sa/4.0/
# or send a letter to
# Creative Commons, PO Box 1866, Mountain View, CA 94042, USA.
#
# CIF created using the CSD Python API on 29 September 2022
# The structure has been converted into the P1 space group
# The structure has a 3D framework
# The original CSD entry NAZZEV is in the monoclinic crystal system
# The framework has been calculated to contain at least 10.0% void space
# The void calculation uses a probe of radius 1.32A, grid spacing 0.4
# H atom positions have been added when not included in the experimental data
# Generated hydrogen atom positions removed from atoms on special positions
#
###############################################################################

data_NAZZEV
_chemical_formula_moiety         '(C184 H172 N32 O59 Sm8)n'
_symmetry_cell_setting           triclinic
_symmetry_space_group_name_H-M   'P 1'
_symmetry_Int_Tables_number      1
_space_group_name_Hall           'P 1'
loop_
_symmetry_equiv_pos_site_id
_symmetry_equiv_pos_as_xyz
1 x,y,z
_cell_length_a                   25.475(2)
_cell_length_b                   15.5864(14)
_cell_length_c                   17.0301(16)
_cell_angle_alpha                90
_cell_angle_beta                 98.428(2)
_cell_angle_gamma                90
_cell_volume                     6689.01
loop_
_atom_site_label
_atom_site_type_symbol
_atom_site_fract_x
_atom_site_fract_y
_atom_site_fract_z
Sm10 Sm 0.24829(4) 0.17593(9) 0.18493(8)
O30 O 0.1973(6) 0.1719(12) 0.0580(11)
N12 N 0.0598(10) 0.030(2) 0.0610(15)
C70 C 0.1041(12) 0.073(2) 0.0582(17)
H30 H 0.1297 0.0750 0.1048
Sm6 Sm 0.25036(4) 0.29514(8) 0.96244(7)
O28 O 0.1736(7) 0.2024(13) 0.9319(12)
C65 C 0.1653(10) 0.1667(18) 0.9945(16)
C66 C 0.1154(10) 0.1152(18) 0.9927(15)
C67 C 0.0797(12) 0.107(3) 0.9253(18)
H28 H 0.0860 0.1325 0.8768
C68 C 0.0341(12) 0.060(2) 0.9295(18)
H29 H 0.0089 0.0540 0.8830
C69 C 0.0245(10) 0.025(2) 0.9954(16)
O19 O 0.1889(6) 0.3565(12) 0.0452(11)
O21 O 0.2031(7) 0.3090(12) 0.1711(11)
C53 C 0.1791(10) 0.3529(19) 0.1153(18)
C54 C 0.1334(6) 0.4068(13) 0.1324(11)
C55 C 0.1110(8) 0.3904(16) 0.2006(12)
H22 H 0.1263 0.3485 0.2375
C56 C 0.0661(8) 0.4352(18) 0.2147(11)
H23 H 0.0508 0.4239 0.2612
C57 C 0.0436(7) 0.4964(15) 0.1606(11)
N10 N 0.0661(7) 0.5129(12) 0.0925(10)
C58 C 0.1109(7) 0.4681(14) 0.0784(9)
H24 H 0.1262 0.4794 0.0318
O6 O 0.1909(6) 0.3674(12) 0.8664(10)
O7 O 0.1668(7) 0.3489(16) 0.7385(11)
C13 C 0.1578(9) 0.3672(17) 0.8058(16)
C14 C 0.0045(6) 0.4612(16) 0.8346(11)
C15 C 0.0233(8) 0.4699(18) 0.7625(9)
H7 H 0.0024 0.4985 0.7195
C16 C 0.0726(8) 0.4368(18) 0.7531(9)
H8 H 0.0855 0.4427 0.7038
C17 C 0.1032(6) 0.3949(14) 0.8160(10)
C18 C 0.0844(7) 0.3863(14) 0.8882(9)
H9 H 0.1052 0.3577 0.9311
N3 N 0.0350(7) 0.4194(16) 0.8975(9)
Sm8 Sm 0.24829(4) 0.32407(9) 0.68493(8)
O18 O 0.3133(7) 0.1137(11) 0.1100(11)
O27 O 0.1668(7) 0.1511(16) 0.2385(11)
O33 O 0.3004(6) 0.3001(10) 0.0931(11)
O35 O 0.3221(6) 0.2746(11) 0.2208(11)
O40 O 0.3014(6) 0.1159(10) 0.2943(10)
C47 C 0.3254(10) 0.1247(16) 0.0427(17)
C48 C 0.3778(10) 0.0864(17) 0.0279(15)
C49 C 0.4022(12) 0.0193(18) 0.0725(16)
C51 C 0.4744(10) 0.0178(18) 0.0049(15)
C84 C 0.308(3) 0.605(6) 0.059(4)
C87 C 0.192(5) 0.668(8) 0.050(7)
O42 O 0.2271(9) 0.0261(15) 0.1747(15)
H62 H 0.220093 0.675885 0.104211
H63 H 0.163364 0.720313 0.0448234
H64 H 0.171288 0.607094 0.0519783
H68 H 0.317267 0.549024 0.0967586
H69 H 0.305639 0.661544 0.0958811
H79 H 0.384677 0.626646 0.0231853
H1 H 0.6151 0.0043 0.8867
C4 C 0.5514(10) 0.0138(15) 0.9388(14)
H2 H 0.5366 0.0602 0.9067
C42 C 0.7391(19) 0.032(3) 0.818(4)
N8 N 0.763(2) 0.118(4) 0.812(4)
C43 C 0.715(4) 0.174(3) 0.823(9)
C44 C 0.702(9) 0.201(13) 0.735(9)
C45 C 0.805(4) 0.095(9) 0.758(5)
C46 C 0.844(3) 0.134(5) 0.826(5)
O16 O 0.2497(6) 0.2178(13) 0.8304(11)
O17 O 0.3003(7) 0.1656(11) 0.9858(11)
O37 O 0.3323(7) 0.3228(12) 0.9107(11)
N9 N 0.4521(10) 0.084(2) 0.9532(16)
C52 C 0.4034(11) 0.118(2) 0.9663(17)
H21 H 0.3876 0.1628 0.9333
O41 O 0.2729(8) 0.4471(13) 0.9783(14)
C83 C 0.2412(15) 0.508(2) 0.963(3)
N15 N 0.260(2) 0.593(3) 0.994(3)
C85 C 0.344(3) 0.616(6) 0.995(5)
C86 C 0.222(3) 0.669(4) 0.978(6)
H43 H 0.693428 0.144152 0.698176
H44 H 0.667555 0.243193 0.727458
H45 H 0.735854 0.234685 0.717341
H46 H 0.801369 0.129335 0.701772
H47 H 0.810051 0.0267651 0.747569
H50 H 0.842099 0.0981159 0.880378
H51 H 0.884127 0.130842 0.811239
H52 H 0.833418 0.200686 0.834582
H53 H 0.696732 0.0209491 0.816217
H59 H 0.725525 0.228152 0.862593
H60 H 0.683098 0.137618 0.843427
H61 H 0.201983 0.499064 0.928815
H75 H 0.1949 0.660052 0.922926
H76 H 0.243705 0.728843 0.975159
H78 H 0.330631 0.670843 0.957743
H80 H 0.342259 0.558322 0.958621
Sm1 Sm 0.74964(4) 0.70486(8) 0.03756(7)
O1 O 0.7503(6) 0.7822(13) 0.1696(11)
O2 O 0.6997(7) 0.8344(11) 0.0142(11)
O8 O 0.8264(7) 0.7976(13) 0.0681(12)
N1 N 0.5479(10) 0.916(2) 0.0468(16)
C6 C 0.5966(11) 0.882(2) 0.0337(17)
H3 H 0.6124 0.8372 0.0667
C19 C 0.8347(10) 0.8333(18) 0.0055(16)
C20 C 0.8846(10) 0.8848(18) 0.0073(15)
C21 C 0.9203(12) 0.893(3) 0.0747(18)
H10 H 0.9140 0.8675 0.1232
C22 C 0.9659(12) 0.940(2) 0.0705(18)
H11 H 0.9911 0.9460 0.1170
C23 C 0.9755(10) 0.975(2) 0.0046(16)
O14 O 0.7271(8) 0.5529(13) 0.0217(14)
C37 C 0.7588(15) 0.492(2) 0.037(3)
N7 N 0.740(2) 0.407(3) 0.006(3)
C39 C 0.656(3) 0.384(6) 0.005(5)
C40 C 0.778(3) 0.331(4) 0.022(6)
Sm12 Sm 0.75171(4) 0.67593(9) 0.31507(8)
O23 O 0.8091(6) 0.6326(12) 0.1336(10)
O25 O 0.8332(7) 0.6511(16) 0.2615(11)
O36 O 0.6677(7) 0.6772(12) 0.0893(11)
O38 O 0.6986(6) 0.6159(10) 0.2057(10)
H19 H 0.3849 0.9957 0.1133
C50 C 0.4486(10) 0.9862(15) 0.0612(14)
H20 H 0.4634 0.9398 0.0933
C59 C 0.8422(9) 0.6328(17) 0.1942(16)
C60 C 0.9955(6) 0.5388(16) 0.1654(11)
C61 C 0.9767(8) 0.5301(18) 0.2375(9)
H25 H 0.9976 0.5015 0.2805
C62 C 0.9274(8) 0.5632(18) 0.2469(9)
H26 H 0.9145 0.5573 0.2962
C63 C 0.8968(6) 0.6051(14) 0.1840(10)
C64 C 0.9156(7) 0.6137(14) 0.1118(9)
H27 H 0.8948 0.6423 0.0689
N11 N 0.9650(7) 0.5806(16) 0.1025(9)
C71 C 0.3293(9) 0.3125(15) 0.1579(15)
C72 C 0.3757(9) 0.3705(17) 0.1615(14)
C73 C 0.4106(10) 0.381(2) 0.2313(17)
H31 H 0.4041 0.3520 0.2783
C74 C 0.4547(9) 0.4322(18) 0.2325(15)
H32 H 0.4782 0.4410 0.2805
C75 C 0.4641(10) 0.4702(17) 0.1642(15)
N13 N 0.4299(9) 0.4645(19) 0.0964(14)
C76 C 0.3864(11) 0.414(2) 0.0940(17)
H33 H 0.3629 0.4076 0.0455
C77 C 0.5134(10) 0.5208(18) 0.1634(15)
C78 C 0.5523(9) 0.5179(19) 0.2262(15)
H34 H 0.5468 0.4887 0.2733
C79 C 0.5986(12) 0.556(2) 0.2218(19)
H35 H 0.6258 0.5533 0.2664
C80 C 0.6084(9) 0.5989(17) 0.1560(15)
C81 C 0.5684(10) 0.605(2) 0.0943(16)
H36 H 0.5742 0.6368 0.0488
N14 N 0.5188(10) 0.5660(19) 0.0950(15)
C82 C 0.6620(10) 0.6353(16) 0.1503(16)
C88 C 0.2609(19) 0.968(3) 0.182(4)
N16 N 0.237(2) 0.882(4) 0.188(4)
C89 C 0.285(4) 0.826(3) 0.177(9)
C90 C 0.298(9) 0.799(13) 0.265(9)
C91 C 0.195(4) 0.905(9) 0.242(5)
C92 C 0.156(3) 0.866(5) 0.174(5)
H37 H 0.798017 0.500936 0.0711847
H40 H 0.657741 0.441678 0.0413794
H42 H 0.669369 0.329157 0.0422569
H54 H 0.756295 0.271157 0.0248414
H55 H 0.8051 0.339948 0.0770737
H65 H 0.264146 0.765315 0.282659
H66 H 0.332445 0.756807 0.272542
H67 H 0.306572 0.855848 0.301824
H70 H 0.316902 0.862382 0.156573
H71 H 0.274475 0.771848 0.137407
H72 H 0.166582 0.799314 0.165418
H73 H 0.115873 0.869158 0.188761
H74 H 0.157901 0.901884 0.119622
H77 H 0.303268 0.979051 0.183783
H81 H 0.189949 0.973235 0.252431
H82 H 0.198631 0.870665 0.298228
Sm2 Sm 0.75171(4) 0.82407(9) 0.81507(8)
O3 O 0.6867(7) 0.8863(11) 0.8900(11)
O4 O 0.8111(6) 0.6435(12) 0.9548(11)
O5 O 0.7969(7) 0.6910(12) 0.8289(11)
O9 O 0.8027(6) 0.8281(12) 0.9420(11)
O10 O 0.6996(6) 0.6999(10) 0.9069(11)
O11 O 0.6779(6) 0.7254(11) 0.7792(11)
O13 O 0.3014(6) 0.3841(10) 0.7943(10)
C1 C 0.6746(10) 0.8753(16) 0.9573(17)
C2 C 0.6222(10) 0.9136(17) 0.9721(15)
C3 C 0.5978(12) 0.9807(18) 0.9275(16)
C5 C 0.5256(10) 0.9822(18) 0.9951(15)
C7 C 0.8209(10) 0.6471(19) 0.8847(18)
C8 C 0.8666(6) 0.5932(13) 0.8676(11)
C9 C 0.8890(8) 0.6096(16) 0.7994(12)
H4 H 0.8737 0.6515 0.7625
C10 C 0.9339(8) 0.5648(18) 0.7853(11)
H5 H 0.9492 0.5761 0.7388
C11 C 0.9564(7) 0.5036(15) 0.8394(11)
N2 N 0.9339(7) 0.4871(12) 0.9075(10)
C12 C 0.8891(7) 0.5319(14) 0.9216(9)
H6 H 0.8738 0.5206 0.9682
N4 N 0.9402(10) 0.970(2) 0.9390(15)
C24 C 0.8959(12) 0.927(2) 0.9418(17)
H12 H 0.8703 0.9250 0.8952
C25 C 0.6707(9) 0.6875(15) 0.8421(15)
C26 C 0.6243(9) 0.6295(17) 0.8385(14)
C27 C 0.5894(10) 0.619(2) 0.7687(17)
H13 H 0.5959 0.6480 0.7217
C28 C 0.5453(9) 0.5678(18) 0.7675(15)
H14 H 0.5218 0.5590 0.7195
C29 C 0.5359(10) 0.5298(17) 0.8358(15)
N5 N 0.5701(9) 0.5355(19) 0.9036(14)
C30 C 0.6136(11) 0.586(2) 0.9060(17)
H15 H 0.6371 0.5924 0.9545
C31 C 0.4866(10) 0.4792(18) 0.8366(15)
C32 C 0.4477(9) 0.4821(19) 0.7738(15)
H16 H 0.4532 0.5113 0.7267
C33 C 0.4014(12) 0.444(2) 0.7782(19)
H17 H 0.3742 0.4467 0.7336
C34 C 0.3916(9) 0.4011(17) 0.8440(15)
C35 C 0.4316(10) 0.395(2) 0.9057(16)
H18 H 0.4258 0.3632 0.9512
N6 N 0.4812(10) 0.4340(19) 0.9050(15)
C36 C 0.3380(10) 0.3647(16) 0.8497(16)
C38 C 0.692(3) 0.395(6) 0.941(4)
C41 C 0.808(5) 0.332(8) 0.950(7)
O15 O 0.7729(9) 0.9739(15) 0.8253(15)
O26 O 0.8332(7) 0.8489(16) 0.7615(11)
O39 O 0.6986(6) 0.8841(10) 0.7057(10)
H38 H 0.694361 0.338456 0.904119
H39 H 0.682733 0.450976 0.903241
H41 H 0.615323 0.373354 0.976815
H56 H 0.828712 0.392906 0.948022
H57 H 0.836636 0.279687 0.955177
H58 H 0.779907 0.324115 0.895789
C83_2 C 0.7588(15) 0.008(2) 0.537(3)
N15_2 N 0.740(2) 0.093(3) 0.506(3)
C84_2 C 0.692(3) 0.105(6) 0.441(4)
C85_2 C 0.656(3) 0.116(6) 0.505(5)
C86_2 C 0.778(3) 0.169(4) 0.522(6)
C87_2 C 0.808(5) 0.168(8) 0.450(7)
H62_2 H 0.779907 0.175885 0.395789
H63_2 H 0.836636 0.220313 0.455177
H64_2 H 0.828712 0.107094 0.448022
H68_2 H 0.682733 0.0490238 0.403241
H69_2 H 0.694361 0.161544 0.404119
H75_2 H 0.8051 0.160052 0.577074
H76_2 H 0.756295 0.228843 0.524841
H78_2 H 0.669369 0.170843 0.542257
H79_2 H 0.615323 0.126646 0.476815
H80_2 H 0.657741 0.0583225 0.541379
Sm1_2 Sm 0.25036(4) 0.20486(8) 0.46244(7)
O1_2 O 0.2497(6) 0.2822(13) 0.3304(11)
O2_2 O 0.3003(7) 0.3344(11) 0.4858(11)
O3_2 O 0.3133(7) 0.3863(11) 0.6100(11)
O4_2 O 0.1889(6) 0.1435(12) 0.5452(11)
O5_2 O 0.2031(7) 0.1910(12) 0.6711(11)
O8_2 O 0.1736(7) 0.2976(13) 0.4319(12)
O9_2 O 0.1973(6) 0.3281(12) 0.5580(11)
O10_2 O 0.3004(6) 0.1999(10) 0.5931(11)
O11_2 O 0.3221(6) 0.2254(11) 0.7208(11)
C1_2 C 0.3254(10) 0.3753(16) 0.5427(17)
C2_2 C 0.3778(10) 0.4136(17) 0.5279(15)
C3_2 C 0.4022(12) 0.4807(18) 0.5725(16)
H1_2 H 0.3849 0.5043 0.6133
C4_2 C 0.4486(10) 0.5138(15) 0.5612(14)
H2_2 H 0.4634 0.5602 0.5933
C5_2 C 0.4744(10) 0.4822(18) 0.5049(15)
N1_2 N 0.4521(10) 0.416(2) 0.4532(16)
C6_2 C 0.4034(11) 0.382(2) 0.4663(17)
H3_2 H 0.3876 0.3372 0.4333
C7_2 C 0.1791(10) 0.1471(19) 0.6153(18)
C8_2 C 0.1334(6) 0.0932(13) 0.6324(11)
C9_2 C 0.1110(8) 0.1096(16) 0.7006(12)
H4_2 H 0.1263 0.1515 0.7375
C10_2 C 0.0661(8) 0.0648(18) 0.7147(11)
H5_2 H 0.0508 0.0761 0.7612
C11_2 C 0.0436(7) 0.0036(15) 0.6606(11)
C12_2 C 0.1109(7) 0.0319(14) 0.5784(9)
H6_2 H 0.1262 0.0206 0.5318
C19_2 C 0.1653(10) 0.3333(18) 0.4945(16)
C20_2 C 0.1154(10) 0.3848(18) 0.4927(15)
C21_2 C 0.0797(12) 0.393(3) 0.4253(18)
H10_2 H 0.0860 0.3675 0.3768
C22_2 C 0.0341(12) 0.440(2) 0.4295(18)
H11_2 H 0.0089 0.4460 0.3830
C23_2 C 0.0245(10) 0.475(2) 0.4954(16)
N4_2 N 0.0598(10) 0.470(2) 0.5610(15)
C24_2 C 0.1041(12) 0.427(2) 0.5582(17)
H12_2 H 0.1297 0.4250 0.6048
C25_2 C 0.3293(9) 0.1875(15) 0.6579(15)
C26_2 C 0.3757(9) 0.1295(17) 0.6615(14)
C27_2 C 0.4106(10) 0.119(2) 0.7313(17)
H13_2 H 0.4041 0.1480 0.7783
C28_2 C 0.4547(9) 0.0678(18) 0.7325(15)
H14_2 H 0.4782 0.0590 0.7805
C29_2 C 0.4641(10) 0.0298(17) 0.6642(15)
N5_2 N 0.4299(9) 0.0355(19) 0.5964(14)
C30_2 C 0.3864(11) 0.086(2) 0.5940(17)
H15_2 H 0.3629 0.0924 0.5455
H16_2 H 0.5468 0.0113 0.7733
O14_2 O 0.2729(8) 0.0529(13) 0.4783(14)
O15_2 O 0.2271(9) 0.4739(15) 0.6747(15)
C42_2 C 0.2609(19) 0.532(3) 0.682(4)
N8_2 N 0.237(2) 0.618(4) 0.688(4)
C43_2 C 0.285(4) 0.674(3) 0.677(9)
C44_2 C 0.298(9) 0.701(13) 0.765(9)
C45_2 C 0.195(4) 0.595(9) 0.742(5)
C46_2 C 0.156(3) 0.634(5) 0.674(5)
Sm3 Sm 0.74964(4) 0.79514(8) 0.53756(7)
O16_2 O 0.7503(6) 0.7178(13) 0.6696(11)
O17_2 O 0.6997(7) 0.6656(11) 0.5142(11)
O18_2 O 0.6867(7) 0.6137(11) 0.3900(11)
O20 O 0.8111(6) 0.8565(12) 0.4548(11)
O22 O 0.7969(7) 0.8090(12) 0.3289(11)
O23_2 O 0.1909(6) 0.1326(12) 0.3664(10)
O24 O 0.8091(6) 0.8674(12) 0.6336(10)
O29 O 0.8264(7) 0.7024(13) 0.5681(12)
O31 O 0.8027(6) 0.6719(12) 0.4420(11)
O33_2 O 0.6996(6) 0.8001(10) 0.4069(11)
O35_2 O 0.6779(6) 0.7746(11) 0.2792(11)
O36_2 O 0.3323(7) 0.1772(12) 0.4107(11)
O37_2 O 0.6677(7) 0.8228(12) 0.5893(11)
C47_2 C 0.6746(10) 0.6247(16) 0.4573(17)
C48_2 C 0.6222(10) 0.5864(17) 0.4721(15)
C49_2 C 0.5978(12) 0.5193(18) 0.4275(16)
H19_2 H 0.6151 0.4957 0.3867
C50_2 C 0.5514(10) 0.4862(15) 0.4388(14)
H20_2 H 0.5366 0.4398 0.4067
C51_2 C 0.5256(10) 0.5178(18) 0.4951(15)
N9_2 N 0.5479(10) 0.584(2) 0.5468(16)
C52_2 C 0.5966(11) 0.618(2) 0.5337(17)
H21_2 H 0.6124 0.6628 0.5667
C59_2 C 0.1578(9) 0.1328(17) 0.3058(16)
C60_2 C 0.0045(6) 0.0388(16) 0.3346(11)
C61_2 C 0.0233(8) 0.0301(18) 0.2625(9)
H25_2 H 0.0024 0.0015 0.2195
C62_2 C 0.0726(8) 0.0632(18) 0.2531(9)
H26_2 H 0.0855 0.0573 0.2038
C63_2 C 0.1032(6) 0.1051(14) 0.3160(10)
C64_2 C 0.0844(7) 0.1137(14) 0.3882(9)
H27_2 H 0.1052 0.1423 0.4311
N11_2 N 0.0350(7) 0.0806(16) 0.3975(9)
C77_2 C 0.4866(10) 0.0208(18) 0.3366(15)
C78_2 C 0.4477(9) 0.0179(19) 0.2738(15)
C79_2 C 0.4014(12) 0.056(2) 0.2782(19)
H35_2 H 0.3742 0.0533 0.2336
C80_2 C 0.3916(9) 0.0989(17) 0.3440(15)
C81_2 C 0.4316(10) 0.105(2) 0.4057(16)
H36_2 H 0.4258 0.1368 0.4512
N14_2 N 0.4812(10) 0.0660(19) 0.4050(15)
C82_2 C 0.3380(10) 0.1353(16) 0.3497(16)
O41_2 O 0.7271(8) 0.9471(13) 0.5217(14)
O42_2 O 0.7729(9) 0.5261(15) 0.3253(15)
C88_2 C 0.7391(19) 0.468(3) 0.318(4)
N16_2 N 0.763(2) 0.382(4) 0.312(4)
C89_2 C 0.715(4) 0.326(3) 0.323(9)
C90_2 C 0.702(9) 0.299(13) 0.235(9)
C91_2 C 0.805(4) 0.405(9) 0.258(5)
C92_2 C 0.844(3) 0.366(5) 0.326(5)
H37_2 H 0.201983 0.000935765 0.428815
H43_2 H 0.306572 0.644152 0.801824
H44_2 H 0.332445 0.743193 0.772542
H45_2 H 0.264146 0.734685 0.782659
H46_2 H 0.198631 0.629335 0.798228
H47_2 H 0.189949 0.526765 0.752431
H50_2 H 0.157901 0.598116 0.619622
H51_2 H 0.115873 0.630842 0.688761
H52_2 H 0.166582 0.700686 0.665418
H53_2 H 0.303268 0.520949 0.683783
H59_2 H 0.274475 0.728152 0.637407
H60_2 H 0.316902 0.637618 0.656573
H61_2 H 0.798017 0.999064 0.571185
H65_2 H 0.735854 0.265315 0.217341
H66_2 H 0.667555 0.256807 0.227458
H67_2 H 0.693428 0.355848 0.198176
H70_2 H 0.683098 0.362382 0.343427
H71_2 H 0.725525 0.271848 0.362593
H72_2 H 0.833418 0.299314 0.334582
H73_2 H 0.884127 0.369158 0.311239
H74_2 H 0.842099 0.401884 0.380378
H77_2 H 0.696732 0.479051 0.316217
H81_2 H 0.810051 0.473235 0.247569
H82_2 H 0.801369 0.370665 0.201772
N2_2 N 0.0661(7) 0.9871(12) 0.5925(10)
C31_2 C 0.5134(10) 0.9792(18) 0.6634(15)
C32_2 C 0.5523(9) 0.9821(19) 0.7262(15)
C33_2 C 0.5986(12) 0.944(2) 0.7218(19)
H17_2 H 0.6258 0.9467 0.7664
C34_2 C 0.6084(9) 0.9011(17) 0.6560(15)
C35_2 C 0.5684(10) 0.895(2) 0.5943(16)
H18_2 H 0.5742 0.8632 0.5488
N6_2 N 0.5188(10) 0.9340(19) 0.5950(15)
C36_2 C 0.6620(10) 0.8647(16) 0.6503(16)
C37_2 C 0.2412(15) 0.992(2) 0.463(3)
N7_2 N 0.260(2) 0.907(3) 0.494(3)
C38_2 C 0.308(3) 0.895(6) 0.559(4)
C39_2 C 0.344(3) 0.884(6) 0.495(5)
C40_2 C 0.222(3) 0.831(4) 0.478(6)
C41_2 C 0.192(5) 0.832(8) 0.550(7)
C71_2 C 0.6707(9) 0.8125(15) 0.3421(15)
C72_2 C 0.6243(9) 0.8705(17) 0.3385(14)
C73_2 C 0.5894(10) 0.881(2) 0.2687(17)
H31_2 H 0.5959 0.8520 0.2217
C74_2 C 0.5453(9) 0.9322(18) 0.2675(15)
H32_2 H 0.5218 0.9410 0.2195
C75_2 C 0.5359(10) 0.9702(17) 0.3358(15)
N13_2 N 0.5701(9) 0.9645(19) 0.4036(14)
C76_2 C 0.6136(11) 0.914(2) 0.4060(17)
H33_2 H 0.6371 0.9076 0.4545
H34_2 H 0.4532 0.9887 0.2267
H38_2 H 0.305639 0.838456 0.595881
H39_2 H 0.317267 0.950976 0.596759
H40_2 H 0.342259 0.941678 0.458621
H41_2 H 0.384677 0.873354 0.523185
H42_2 H 0.330631 0.829157 0.457743
H54_2 H 0.243705 0.771157 0.475159
H55_2 H 0.1949 0.839948 0.422926
H56_2 H 0.171288 0.892906 0.551978
H57_2 H 0.163364 0.779687 0.544823
H58_2 H 0.220093 0.824115 0.604211
N10_2 N 0.9339(7) 0.0129(12) 0.4075(10)
C65_2 C 0.8347(10) 0.6667(18) 0.5055(16)
C66_2 C 0.8846(10) 0.6152(18) 0.5073(15)
C67_2 C 0.9203(12) 0.607(3) 0.5747(18)
H28_2 H 0.9140 0.6325 0.6232
C68_2 C 0.9659(12) 0.560(2) 0.5705(18)
H29_2 H 0.9911 0.5540 0.6170
C69_2 C 0.9755(10) 0.525(2) 0.5046(16)
N12_2 N 0.9402(10) 0.530(2) 0.4390(15)
C70_2 C 0.8959(12) 0.573(2) 0.4418(17)
H30_2 H 0.8703 0.5750 0.3952
C13_2 C 0.8422(9) 0.8672(17) 0.6942(16)
C14_2 C 0.9955(6) 0.9612(16) 0.6654(11)
C15_2 C 0.9767(8) 0.9699(18) 0.7375(9)
H7_2 H 0.9976 0.9985 0.7805
C16_2 C 0.9274(8) 0.9368(18) 0.7469(9)
H8_2 H 0.9145 0.9427 0.7962
C17_2 C 0.8968(6) 0.8949(14) 0.6840(10)
C18_2 C 0.9156(7) 0.8863(14) 0.6118(9)
H9_2 H 0.8948 0.8577 0.5689
N3_2 N 0.9650(7) 0.9194(16) 0.6025(9)
C53_2 C 0.8209(10) 0.8529(19) 0.3847(18)
C54_2 C 0.8666(6) 0.9068(13) 0.3676(11)
C55_2 C 0.8890(8) 0.8904(16) 0.2994(12)
H22_2 H 0.8737 0.8485 0.2625
C56_2 C 0.9339(8) 0.9352(18) 0.2853(11)
H23_2 H 0.9492 0.9239 0.2388
C57_2 C 0.9564(7) 0.9964(15) 0.3394(11)
C58_2 C 0.8891(7) 0.9681(14) 0.4216(9)
H24_2 H 0.8738 0.9794 0.4682
loop_
_geom_bond_atom_site_label_1
_geom_bond_atom_site_label_2
_geom_bond_site_symmetry_1
_geom_bond_site_symmetry_2
Sm10 O30 1_555 1_555
H30 C70 1_555 1_555
N12 C70 1_555 1_555
Sm6 O28 1_555 1_555
O28 C65 1_555 1_555
C65 C66 1_555 1_555
C66 C67 1_555 1_555
C67 H28 1_555 1_555
C68 C67 1_555 1_555
H29 C68 1_555 1_555
C68 C69 1_555 1_555
Sm10 O21 1_555 1_555
O21 C53 1_555 1_555
C53 O19 1_555 1_555
C54 C53 1_555 1_555
C55 C54 1_555 1_555
H22 C55 1_555 1_555
C56 C55 1_555 1_555
H23 C56 1_555 1_555
C57 C56 1_555 1_555
N10 C57 1_555 1_555
C58 C54 1_555 1_555
H24 C58 1_555 1_555
N10 C58 1_555 1_555
O6 C13 1_555 1_555
O7 C13 1_555 1_555
C13 C17 1_555 1_555
C15 C14 1_555 1_555
H7 C15 1_555 1_555
C16 C15 1_555 1_555
H8 C16 1_555 1_555
C17 C16 1_555 1_555
C18 C17 1_555 1_555
H9 C18 1_555 1_555
N3 C14 1_555 1_555
Sm6 O6 1_555 1_555
Sm8 O7 1_555 1_555
C18 N3 1_555 1_555
Sm10 O18 1_555 1_555
O18 C47 1_555 1_555
O27 Sm10 1_555 1_555
O35 Sm10 1_555 1_555
O40 Sm10 1_555 1_555
C48 C47 1_555 1_555
C49 C48 1_555 1_555
O42 Sm10 1_555 1_555
C87 H62 1_555 1_555
C87 H63 1_555 1_555
C87 H64 1_555 1_555
C84 H68 1_555 1_555
C84 H69 1_555 1_555
H2 C4 1_555 1_555
N8 C42 1_555 1_555
C43 N8 1_555 1_555
C44 C43 1_555 1_555
C45 N8 1_555 1_555
C46 C45 1_555 1_555
Sm6 O16 1_555 1_555
O17 Sm6 1_555 1_555
O37 Sm6 1_555 1_555
H21 C52 1_555 1_555
O41 Sm6 1_555 1_555
C83 O41 1_555 1_555
N15 C83 1_555 1_555
C86 N15 1_555 1_555
N9 C52 1_555 1_555
C44 H43 1_555 1_555
C44 H44 1_555 1_555
C44 H45 1_555 1_555
C45 H46 1_555 1_555
C45 H47 1_555 1_555
C46 H50 1_555 1_555
C46 H51 1_555 1_555
C46 H52 1_555 1_555
C42 H53 1_555 1_555
C43 H59 1_555 1_555
C43 H60 1_555 1_555
C83 H61 1_555 1_555
C86 H75 1_555 1_555
C86 H76 1_555 1_555
C85 H78 1_555 1_555
C85 H80 1_555 1_555
Sm1 O1 1_555 1_555
O2 Sm1 1_555 1_555
O8 Sm1 1_555 1_555
H3 C6 1_555 1_555
C19 O8 1_555 1_555
C20 C19 1_555 1_555
C21 C20 1_555 1_555
H10 C21 1_555 1_555
C22 C21 1_555 1_555
H11 C22 1_555 1_555
C23 C22 1_555 1_555
O14 Sm1 1_555 1_555
C37 O14 1_555 1_555
N7 C37 1_555 1_555
C40 N7 1_555 1_555
Sm12 O25 1_555 1_555
O23 Sm1 1_555 1_555
O25 C59 1_555 1_555
O35 C71 1_555 1_555
O36 Sm1 1_555 1_555
O38 Sm12 1_555 1_555
H20 C50 1_555 1_555
C59 O23 1_555 1_555
C61 C60 1_555 1_555
H25 C61 1_555 1_555
C62 C61 1_555 1_555
H26 C62 1_555 1_555
C63 C59 1_555 1_555
C64 C63 1_555 1_555
H27 C64 1_555 1_555
N11 C60 1_555 1_555
C71 O33 1_555 1_555
C72 C71 1_555 1_555
C73 C72 1_555 1_555
H31 C73 1_555 1_555
C74 C73 1_555 1_555
H32 C74 1_555 1_555
C75 C74 1_555 1_555
N13 C75 1_555 1_555
C76 C72 1_555 1_555
H33 C76 1_555 1_555
C77 C75 1_555 1_555
C78 C77 1_555 1_555
H34 C78 1_555 1_555
C79 C78 1_555 1_555
H35 C79 1_555 1_555
C80 C79 1_555 1_555
C81 C80 1_555 1_555
H36 C81 1_555 1_555
N14 C77 1_555 1_555
C82 O36 1_555 1_555
N16 C88 1_555 1_555
C89 N16 1_555 1_555
C90 C89 1_555 1_555
C91 N16 1_555 1_555
C92 C91 1_555 1_555
N1 C6 1_555 1_555
O38 C82 1_555 1_555
C62 C63 1_555 1_555
C64 N11 1_555 1_555
N13 C76 1_555 1_555
C80 C82 1_555 1_555
C81 N14 1_555 1_555
C37 H37 1_555 1_555
C39 H40 1_555 1_555
C39 H42 1_555 1_555
C40 H54 1_555 1_555
C40 H55 1_555 1_555
C90 H65 1_555 1_555
C90 H66 1_555 1_555
C90 H67 1_555 1_555
C89 H70 1_555 1_555
C89 H71 1_555 1_555
C92 H72 1_555 1_555
C92 H73 1_555 1_555
C92 H74 1_555 1_555
C88 H77 1_555 1_555
C91 H81 1_555 1_555
C91 H82 1_555 1_555
Sm2 O3 1_555 1_555
O3 C1 1_555 1_555
O5 Sm2 1_555 1_555
O9 Sm2 1_555 1_555
O11 Sm2 1_555 1_555
O37 C36 1_555 1_555
O13 C36 1_555 1_555
C2 C1 1_555 1_555
C3 C2 1_555 1_555
C7 O4 1_555 1_555
C8 C7 1_555 1_555
C9 C8 1_555 1_555
H4 C9 1_555 1_555
C10 C9 1_555 1_555
H5 C10 1_555 1_555
C11 C10 1_555 1_555
N2 C11 1_555 1_555
C12 C8 1_555 1_555
H6 C12 1_555 1_555
H12 C24 1_555 1_555
C25 O10 1_555 1_555
C26 C25 1_555 1_555
C27 C26 1_555 1_555
H13 C27 1_555 1_555
C28 C27 1_555 1_555
H14 C28 1_555 1_555
C29 C28 1_555 1_555
N5 C29 1_555 1_555
C30 C26 1_555 1_555
H15 C30 1_555 1_555
C31 C29 1_555 1_555
C32 C31 1_555 1_555
H16 C32 1_555 1_555
C33 C32 1_555 1_555
H17 C33 1_555 1_555
C34 C33 1_555 1_555
C35 C34 1_555 1_555
H18 C35 1_555 1_555
N6 C31 1_555 1_555
C36 C34 1_555 1_555
O15 Sm2 1_555 1_555
Sm8 O13 1_555 1_555
O26 Sm2 1_555 1_555
O39 Sm2 1_555 1_555
O5 C7 1_555 1_555
O11 C25 1_555 1_555
N2 C12 1_555 1_555
N4 C24 1_555 1_555
N5 C30 1_555 1_555
C35 N6 1_555 1_555
C38 H38 1_555 1_555
C38 H39 1_555 1_555
C41 H56 1_555 1_555
C41 H57 1_555 1_555
C41 H58 1_555 1_555
N15_2 C83_2 1_555 1_555
C84_2 N15_2 1_555 1_555
C85_2 C84_2 1_555 1_555
C86_2 N15_2 1_555 1_555
C87_2 C86_2 1_555 1_555
C87_2 H62_2 1_555 1_555
C87_2 H63_2 1_555 1_555
C87_2 H64_2 1_555 1_555
C84_2 H68_2 1_555 1_555
C84_2 H69_2 1_555 1_555
C86_2 H75_2 1_555 1_555
C86_2 H76_2 1_555 1_555
C85_2 H78_2 1_555 1_555
C85_2 H79_2 1_555 1_555
C85_2 H80_2 1_555 1_555
Sm1_2 O1_2 1_555 1_555
Sm8 O3_2 1_555 1_555
O2_2 Sm1_2 1_555 1_555
O3_2 C1_2 1_555 1_555
O4_2 Sm1_2 1_555 1_555
O5_2 Sm8 1_555 1_555
O8_2 Sm1_2 1_555 1_555
O9_2 Sm8 1_555 1_555
O10_2 Sm1_2 1_555 1_555
O11_2 Sm8 1_555 1_555
C1_2 O2_2 1_555 1_555
C2_2 C1_2 1_555 1_555
C3_2 C2_2 1_555 1_555
H1_2 C3_2 1_555 1_555
C4_2 C3_2 1_555 1_555
H2_2 C4_2 1_555 1_555
C5_2 C4_2 1_555 1_555
N1_2 C5_2 1_555 1_555
C6_2 C2_2 1_555 1_555
H3_2 C6_2 1_555 1_555
C7_2 O4_2 1_555 1_555
C8_2 C7_2 1_555 1_555
C9_2 C8_2 1_555 1_555
H4_2 C9_2 1_555 1_555
C10_2 C9_2 1_555 1_555
H5_2 C10_2 1_555 1_555
C11_2 C10_2 1_555 1_555
C12_2 C8_2 1_555 1_555
H6_2 C12_2 1_555 1_555
C19_2 O8_2 1_555 1_555
C20_2 C19_2 1_555 1_555
C21_2 C20_2 1_555 1_555
H10_2 C21_2 1_555 1_555
C22_2 C21_2 1_555 1_555
H11_2 C22_2 1_555 1_555
C23_2 C22_2 1_555 1_555
N4_2 C23_2 1_555 1_555
C24_2 C20_2 1_555 1_555
H12_2 C24_2 1_555 1_555
C25_2 O10_2 1_555 1_555
C26_2 C25_2 1_555 1_555
C27_2 C26_2 1_555 1_555
H13_2 C27_2 1_555 1_555
C28_2 C27_2 1_555 1_555
H14_2 C28_2 1_555 1_555
C29_2 C28_2 1_555 1_555
N5_2 C29_2 1_555 1_555
C30_2 C26_2 1_555 1_555
H15_2 C30_2 1_555 1_555
O14_2 Sm1_2 1_555 1_555
O15_2 Sm8 1_555 1_555
C42_2 O15_2 1_555 1_555
N8_2 C42_2 1_555 1_555
C43_2 N8_2 1_555 1_555
C44_2 C43_2 1_555 1_555
C45_2 N8_2 1_555 1_555
C46_2 C45_2 1_555 1_555
Sm3 O16_2 1_555 1_555
Sm12 O18_2 1_555 1_555
O17_2 Sm3 1_555 1_555
O18_2 C47_2 1_555 1_555
O20 Sm3 1_555 1_555
O22 Sm12 1_555 1_555
O23_2 Sm1_2 1_555 1_555
O24 Sm3 1_555 1_555
O27 C59_2 1_555 1_555
O29 Sm3 1_555 1_555
O31 Sm12 1_555 1_555
O33_2 Sm3 1_555 1_555
O35_2 Sm12 1_555 1_555
O36_2 Sm1_2 1_555 1_555
O37_2 Sm3 1_555 1_555
C47_2 O17_2 1_555 1_555
C48_2 C47_2 1_555 1_555
C49_2 C48_2 1_555 1_555
H19_2 C49_2 1_555 1_555
C50_2 C49_2 1_555 1_555
H20_2 C50_2 1_555 1_555
C51_2 C5_2 1_555 1_555
N9_2 C51_2 1_555 1_555
C52_2 C48_2 1_555 1_555
H21_2 C52_2 1_555 1_555
C59_2 O23_2 1_555 1_555
C61_2 C60_2 1_555 1_555
H25_2 C61_2 1_555 1_555
C62_2 C61_2 1_555 1_555
H26_2 C62_2 1_555 1_555
C63_2 C59_2 1_555 1_555
C64_2 C63_2 1_555 1_555
H27_2 C64_2 1_555 1_555
N11_2 C60_2 1_555 1_555
C78_2 C77_2 1_555 1_555
C79_2 C78_2 1_555 1_555
H35_2 C79_2 1_555 1_555
C80_2 C79_2 1_555 1_555
C81_2 C80_2 1_555 1_555
H36_2 C81_2 1_555 1_555
N14_2 C77_2 1_555 1_555
C82_2 O36_2 1_555 1_555
O41_2 Sm3 1_555 1_555
O42_2 Sm12 1_555 1_555
C88_2 O42_2 1_555 1_555
N16_2 C88_2 1_555 1_555
C89_2 N16_2 1_555 1_555
C90_2 C89_2 1_555 1_555
C91_2 N16_2 1_555 1_555
C92_2 C91_2 1_555 1_555
O5_2 C7_2 1_555 1_555
O9_2 C19_2 1_555 1_555
O11_2 C25_2 1_555 1_555
N1_2 C6_2 1_555 1_555
N4_2 C24_2 1_555 1_555
N5_2 C30_2 1_555 1_555
O40 C82_2 1_555 1_555
C50_2 C51_2 1_555 1_555
N9_2 C52_2 1_555 1_555
C62_2 C63_2 1_555 1_555
C64_2 N11_2 1_555 1_555
C80_2 C82_2 1_555 1_555
C81_2 N14_2 1_555 1_555
C44_2 H43_2 1_555 1_555
C44_2 H44_2 1_555 1_555
C44_2 H45_2 1_555 1_555
C45_2 H46_2 1_555 1_555
C45_2 H47_2 1_555 1_555
C46_2 H50_2 1_555 1_555
C46_2 H51_2 1_555 1_555
C46_2 H52_2 1_555 1_555
C42_2 H53_2 1_555 1_555
C43_2 H59_2 1_555 1_555
C43_2 H60_2 1_555 1_555
C90_2 H65_2 1_555 1_555
C90_2 H66_2 1_555 1_555
C90_2 H67_2 1_555 1_555
C89_2 H70_2 1_555 1_555
C89_2 H71_2 1_555 1_555
C92_2 H72_2 1_555 1_555
C92_2 H73_2 1_555 1_555
C92_2 H74_2 1_555 1_555
C88_2 H77_2 1_555 1_555
C91_2 H81_2 1_555 1_555
C91_2 H82_2 1_555 1_555
O37_2 C36_2 1_555 1_555
O39 C36_2 1_555 1_555
C32_2 C31_2 1_555 1_555
C33_2 C32_2 1_555 1_555
H17_2 C33_2 1_555 1_555
C34_2 C33_2 1_555 1_555
C35_2 C34_2 1_555 1_555
H18_2 C35_2 1_555 1_555
N6_2 C31_2 1_555 1_555
C36_2 C34_2 1_555 1_555
N7_2 C37_2 1_555 1_555
C38_2 N7_2 1_555 1_555
C39_2 C38_2 1_555 1_555
C40_2 N7_2 1_555 1_555
C41_2 C40_2 1_555 1_555
O35_2 C71_2 1_555 1_555
C71_2 O33_2 1_555 1_555
C72_2 C71_2 1_555 1_555
C73_2 C72_2 1_555 1_555
H31_2 C73_2 1_555 1_555
C74_2 C73_2 1_555 1_555
H32_2 C74_2 1_555 1_555
C75_2 C74_2 1_555 1_555
N13_2 C75_2 1_555 1_555
C76_2 C72_2 1_555 1_555
H33_2 C76_2 1_555 1_555
C35_2 N6_2 1_555 1_555
N13_2 C76_2 1_555 1_555
C38_2 H38_2 1_555 1_555
C38_2 H39_2 1_555 1_555
C39_2 H40_2 1_555 1_555
C39_2 H41_2 1_555 1_555
C39_2 H42_2 1_555 1_555
C40_2 H54_2 1_555 1_555
C40_2 H55_2 1_555 1_555
C41_2 H56_2 1_555 1_555
C41_2 H57_2 1_555 1_555
C41_2 H58_2 1_555 1_555
O29 C65_2 1_555 1_555
O31 C65_2 1_555 1_555
C65_2 C66_2 1_555 1_555
C66_2 C67_2 1_555 1_555
C67_2 H28_2 1_555 1_555
C68_2 C67_2 1_555 1_555
H29_2 C68_2 1_555 1_555
N12_2 C69_2 1_555 1_555
C70_2 C66_2 1_555 1_555
H30_2 C70_2 1_555 1_555
C68_2 C69_2 1_555 1_555
N12_2 C70_2 1_555 1_555
O24 C13_2 1_555 1_555
O26 C13_2 1_555 1_555
C13_2 C17_2 1_555 1_555
C15_2 C14_2 1_555 1_555
H7_2 C15_2 1_555 1_555
C16_2 C15_2 1_555 1_555
H8_2 C16_2 1_555 1_555
C17_2 C16_2 1_555 1_555
C18_2 C17_2 1_555 1_555
H9_2 C18_2 1_555 1_555
N3_2 C14_2 1_555 1_555
O22 C53_2 1_555 1_555
C53_2 O20 1_555 1_555
C54_2 C53_2 1_555 1_555
C55_2 C54_2 1_555 1_555
H22_2 C55_2 1_555 1_555
C56_2 C55_2 1_555 1_555
H23_2 C56_2 1_555 1_555
C57_2 C56_2 1_555 1_555
C58_2 C54_2 1_555 1_555
H24_2 C58_2 1_555 1_555
C18_2 N3_2 1_555 1_555

#END
