
###############################################################################
#
# This file contains modified crystal structure data generated from the
# MOF subset of the Cambridge Structural Database (CSD) v543 
# hosted by the Cambridge Crystallographic Data Centre (CCDC).
#
# This work is licensed under the Creative Commons
# Attribution-NonCommercial-ShareAlike 4.0 International License.
# To view a copy of this license, visit
# http://creativecommons.org/licenses/by-nc-sa/4.0/
# or send a letter to
# Creative Commons, PO Box 1866, Mountain View, CA 94042, USA.
#
# CIF created using the CSD Python API on 29 September 2022
# The structure has been converted into the P1 space group
# The structure has a 3D framework
# The original CSD entry NDAIAH is in the monoclinic crystal system
# The framework has been calculated to contain at least 10.0% void space
# The void calculation uses a probe of radius 1.32A, grid spacing 0.4
# H atom positions have been added when not included in the experimental data
# Generated hydrogen atom positions removed from atoms on special positions
#
###############################################################################

data_NDAIAH
_chemical_formula_moiety         '(C24 H66 Cl4 N6 Nd4 O30)n'
_symmetry_cell_setting           triclinic
_symmetry_space_group_name_H-M   'P 1'
_symmetry_Int_Tables_number      1
_space_group_name_Hall           'P 1'
loop_
_symmetry_equiv_pos_site_id
_symmetry_equiv_pos_as_xyz
1 x,y,z
_cell_length_a                   8.73
_cell_length_b                   18.33
_cell_length_c                   9.31
_cell_angle_alpha                90
_cell_angle_beta                 105.8
_cell_angle_gamma                90
_cell_volume                     1433.51
loop_
_atom_site_label
_atom_site_type_symbol
_atom_site_fract_x
_atom_site_fract_y
_atom_site_fract_z
Cl1 Cl 0.36000 0.25000 0.41000
Cl1_2 Cl 0.64000 0.75000 0.59000
Cl2 Cl 0.81100 0.25000 0.40000
Cl2_2 Cl 0.18900 0.75000 0.60000
O8 O 0.06800 0.09400 0.68100
O10 O 0.25600 0.03300 0.95000
C5 C 0.15100 0.88100 0.05000
C6 C 0.21900 0.81900 0.17700
N2 N 0.21800 0.75000 0.08700
O5 O 0.08600 0.93600 0.08300
C7 C 0.21900 0.68100 0.17700
C8 C 0.15100 0.61900 0.05000
O13 O 0.08600 0.56400 0.08300
H9 H 0.315952 0.75 0.0481729
H18 H 0.141837 0.686648 0.250633
H19 H 0.339207 0.667727 0.242845
H24 H 0.141837 0.813352 0.250633
H25 H 0.339207 0.832273 0.242845
Nd1 Nd 0.00800 0.97600 0.78200
O6 O 0.17000 0.87000 0.92900
O9 O 0.17800 0.95000 0.64200
O14 O 0.17000 0.63000 0.92900
Nd7 Nd 0.00800 0.52400 0.78200
O16 O 0.17800 0.55000 0.64200
O17 O 0.25600 0.46700 0.95000
O21 O 0.06800 0.40600 0.68100
H10 H 0.0256945 0.67219 0.650082
H13 H 0.00705023 0.82177 0.673185
Nd5 Nd 0.99200 0.02400 0.21800
C1 C 0.75300 0.04400 0.44100
C2 C 0.57300 0.08100 0.40900
C3 C 0.29700 0.06200 0.08100
C4 C 0.48700 0.08800 0.11600
N1 N 0.53400 0.12800 0.26800
O1 O 0.77300 0.00900 0.56600
O2 O 0.82200 0.05000 0.35800
O4 O 0.22700 0.07800 0.16700
O12 O 0.91400 0.06400 0.91700
H1 H 0.568885 0.114925 0.503902
H2 H 0.484935 0.0376323 0.395347
H3 H 0.500996 0.124612 0.0283223
H4 H 0.562602 0.0403211 0.120569
H16 H 0.986346 0.130486 0.688223
H20 H 0.631533 0.158738 0.271015
H21 H 0.441971 0.161092 0.271817
Nd6 Nd 0.99200 0.47600 0.21800
O7 O 0.93400 0.86200 0.62700
O11 O 0.77300 0.92200 0.83300
O15 O 0.77300 0.49100 0.56600
O18 O 0.77300 0.57800 0.83300
O19 O 0.91400 0.43600 0.91700
O20 O 0.93400 0.63800 0.62700
C9 C 0.75300 0.45600 0.44100
C10 C 0.57300 0.41900 0.40900
O22 O 0.82200 0.45000 0.35800
N3 N 0.53400 0.37200 0.26800
C11 C 0.48700 0.41200 0.11600
C12 C 0.29700 0.43800 0.08100
O24 O 0.22700 0.42200 0.16700
H7 H 0.441971 0.338908 0.271817
H8 H 0.631533 0.341262 0.271015
H11 H 0.905788 0.625028 0.519417
H12 H 0.943009 0.871252 0.524523
H14 H 0.500996 0.375388 0.0283223
H15 H 0.562602 0.459679 0.120569
H22 H 0.484935 0.462368 0.395347
H23 H 0.568885 0.385075 0.503902
O3 O 0.74400 0.53300 0.05000
C1_2 C 0.24700 0.54400 0.55900
C2_2 C 0.42700 0.58100 0.59100
C3_2 C 0.70300 0.56200 0.91900
C4_2 C 0.51300 0.58800 0.88400
N1_2 N 0.46600 0.62800 0.73200
O1_2 O 0.22700 0.50900 0.43400
O7_2 O 0.06600 0.36200 0.37300
O20_2 O 0.06600 0.13800 0.37300
H1_2 H 0.431115 0.614925 0.496098
H2_2 H 0.515065 0.537632 0.604653
H3_2 H 0.499004 0.624612 0.971678
H4_2 H 0.437398 0.540321 0.879431
H11_2 H 0.0942116 0.125028 0.480583
H12_2 H 0.0569911 0.371252 0.475477
H16_2 H 0.0136536 0.630486 0.311777
H20_2 H 0.368467 0.658738 0.728985
H21_2 H 0.558029 0.661092 0.728183
O15_2 O 0.22700 0.99100 0.43400
C9_2 C 0.24700 0.95600 0.55900
C10_2 C 0.42700 0.91900 0.59100
N3_2 N 0.46600 0.87200 0.73200
C11_2 C 0.51300 0.91200 0.88400
C12_2 C 0.70300 0.93800 0.91900
H7_2 H 0.558029 0.838908 0.728183
H8_2 H 0.368467 0.841262 0.728985
H14_2 H 0.499004 0.875388 0.971678
H15_2 H 0.437398 0.959679 0.879431
H22_2 H 0.515065 0.962368 0.604653
H23_2 H 0.431115 0.885075 0.496098
O6_2 O 0.83000 0.37000 0.07100
O8_2 O 0.93200 0.59400 0.31900
O14_2 O 0.83000 0.13000 0.07100
H10_2 H 0.974305 0.17219 0.349918
H13_2 H 0.99295 0.32177 0.326815
C5_2 C 0.84900 0.38100 0.95000
C6_2 C 0.78100 0.31900 0.82300
N2_2 N 0.78200 0.25000 0.91300
C7_2 C 0.78100 0.18100 0.82300
C8_2 C 0.84900 0.11900 0.95000
H9_2 H 0.684048 0.25 0.951827
H18_2 H 0.858163 0.186648 0.749367
H19_2 H 0.660793 0.167727 0.757155
H24_2 H 0.858163 0.313352 0.749367
H25_2 H 0.660793 0.332273 0.757155
H11_3 H 0.0942116 0.374972 0.480583
H12_3 H 0.0569911 0.128748 0.475477
H16_3 H 0.0136536 0.869514 0.311777
H10_3 H 0.974305 0.32781 0.349918
H13_3 H 0.99295 0.17823 0.326815
H10_4 H 0.0256945 0.82781 0.650082
H13_4 H 0.00705023 0.67823 0.673185
H11_4 H 0.905788 0.874972 0.519417
H12_4 H 0.943009 0.628748 0.524523
H16_4 H 0.986346 0.369514 0.688223
O23 O 0.74400 0.96700 0.05000
O21_2 O 0.93200 0.90600 0.31900
loop_
_geom_bond_atom_site_label_1
_geom_bond_atom_site_label_2
_geom_bond_site_symmetry_1
_geom_bond_site_symmetry_2
C5 C6 1_555 1_555
C6 N2 1_555 1_555
N2 C7 1_555 1_555
O5 C5 1_555 1_555
C7 C8 1_555 1_555
C8 O13 1_555 1_555
N2 H9 1_555 1_555
C7 H18 1_555 1_555
C7 H19 1_555 1_555
C6 H24 1_555 1_555
C6 H25 1_555 1_555
O9 Nd1 1_555 1_555
O16 Nd7 1_555 1_555
O17 Nd7 1_555 1_555
O21 Nd7 1_555 1_555
Nd1 O6 1_555 1_555
O14 Nd7 1_555 1_555
C1 C2 1_555 1_555
C2 N1 1_555 1_555
C3 C4 1_555 1_555
C4 N1 1_555 1_555
O1 C1 1_555 1_555
O2 C1 1_555 1_555
O4 C3 1_555 1_555
Nd5 O2 1_555 1_555
C2 H1 1_555 1_555
C2 H2 1_555 1_555
C4 H3 1_555 1_555
C4 H4 1_555 1_555
N1 H20 1_555 1_555
N1 H21 1_555 1_555
C9 O15 1_555 1_555
C10 C9 1_555 1_555
O22 C9 1_555 1_555
N3 C10 1_555 1_555
Nd6 O22 1_555 1_555
C11 N3 1_555 1_555
C12 C11 1_555 1_555
O24 C12 1_555 1_555
N3 H7 1_555 1_555
N3 H8 1_555 1_555
O20 H11 1_555 1_555
O7 H12 1_555 1_555
C11 H14 1_555 1_555
C11 H15 1_555 1_555
C10 H22 1_555 1_555
C10 H23 1_555 1_555
Nd6 O3 1_555 1_555
C1_2 C2_2 1_555 1_555
C2_2 N1_2 1_555 1_555
C3_2 C4_2 1_555 1_555
C4_2 N1_2 1_555 1_555
O1_2 C1_2 1_555 1_555
O16 C1_2 1_555 1_555
O18 C3_2 1_555 1_555
C2_2 H1_2 1_555 1_555
C2_2 H2_2 1_555 1_555
C4_2 H3_2 1_555 1_555
C4_2 H4_2 1_555 1_555
O20_2 H11_2 1_555 1_555
O7_2 H12_2 1_555 1_555
N1_2 H20_2 1_555 1_555
N1_2 H21_2 1_555 1_555
C9_2 O15_2 1_555 1_555
C10_2 C9_2 1_555 1_555
O9 C9_2 1_555 1_555
N3_2 C10_2 1_555 1_555
C11_2 N3_2 1_555 1_555
C12_2 C11_2 1_555 1_555
O11 C12_2 1_555 1_555
N3_2 H7_2 1_555 1_555
N3_2 H8_2 1_555 1_555
C11_2 H14_2 1_555 1_555
C11_2 H15_2 1_555 1_555
C10_2 H22_2 1_555 1_555
C10_2 H23_2 1_555 1_555
O8_2 Nd6 1_555 1_555
Nd6 O6_2 1_555 1_555
O14_2 Nd5 1_555 1_555
C5_2 C6_2 1_555 1_555
C6_2 N2_2 1_555 1_555
N2_2 C7_2 1_555 1_555
O19 C5_2 1_555 1_555
C7_2 C8_2 1_555 1_555
C8_2 O12 1_555 1_555
N2_2 H9_2 1_555 1_555
C7_2 H18_2 1_555 1_555
C7_2 H19_2 1_555 1_555
C6_2 H24_2 1_555 1_555
C6_2 H25_2 1_555 1_555
O7_2 H11_3 1_555 1_555
O20_2 H12_3 1_555 1_555
O7 H11_4 1_555 1_555
O20 H12_4 1_555 1_555

#END
