
###############################################################################
#
# This file contains modified crystal structure data generated from the
# MOF subset of the Cambridge Structural Database (CSD) v543 
# hosted by the Cambridge Crystallographic Data Centre (CCDC).
#
# This work is licensed under the Creative Commons
# Attribution-NonCommercial-ShareAlike 4.0 International License.
# To view a copy of this license, visit
# http://creativecommons.org/licenses/by-nc-sa/4.0/
# or send a letter to
# Creative Commons, PO Box 1866, Mountain View, CA 94042, USA.
#
# CIF created using the CSD Python API on 29 September 2022
# The structure has been converted into the P1 space group
# The structure has a 3D framework
# The original CSD entry NEBGAG is in the orthorhombic crystal system
# The framework has been calculated to contain at least 10.0% void space
# The void calculation uses a probe of radius 1.32A, grid spacing 0.4
#
###############################################################################

data_NEBGAG
_chemical_formula_moiety         '(C336 H284 N16 Ni32 O140)n'
_symmetry_cell_setting           triclinic
_symmetry_space_group_name_H-M   'P 1'
_symmetry_Int_Tables_number      1
_space_group_name_Hall           'P 1'
loop_
_symmetry_equiv_pos_site_id
_symmetry_equiv_pos_as_xyz
1 x,y,z
_cell_length_a                   53.975(5)
_cell_length_b                   16.2783(16)
_cell_length_c                   18.3050(16)
_cell_angle_alpha                90
_cell_angle_beta                 90
_cell_angle_gamma                90
_cell_volume                     16083.2
loop_
_atom_site_label
_atom_site_type_symbol
_atom_site_fract_x
_atom_site_fract_y
_atom_site_fract_z
O5 O 0.34020(6) 0.5669(2) 0.27561(17)
O6 O 0.36980(5) 0.6580(2) 0.24380(16)
H5 H 0.233194 0.685443 0.028472
H6 H 0.276996 0.695235 0.028161
C15 C 0.35072(9) 0.6045(3) 0.2288(3)
C16 C 0.34128(8) 0.6023(3) 0.1569(2)
C17 C 0.35262(8) 0.6537(3) 0.0990(2)
H9 H 0.367594 0.682785 0.107699
C18 C 0.34026(9) 0.6587(3) 0.0283(2)
C19 C 0.32009(8) 0.6039(3) 0.0125(2)
C20 C 0.31058(9) 0.5554(3) 0.0697(3)
H11 H 0.296640 0.520952 0.061735
C21 C 0.32191(8) 0.5586(3) 0.1383(2)
H12 H 0.314785 0.525414 0.175492
Ni6 Ni 0.15372(2) 0.66096(4) 0.01215(3)
Ni9 Ni 0.38491(2) 0.68139(4) 0.34738(3)
Ni12 Ni 0.34656(2) 0.55180(4) 0.38799(3)
Ni1 Ni 0.34628(2) 0.66096(4) 0.51215(3)
Ni2 Ni 0.38280(2) 0.52664(5) 0.55360(3)
Ni4 Ni 0.15344(2) 0.55180(4) 0.88799(3)
N1 N 0.30725(6) 0.6099(2) 0.9430(2)
N2 N 0.46794(7) 0.3460(3) 0.2061(2)
O1 O 0.34017(6) 0.64923(18) 0.61568(16)
O2 O 0.36636(6) 0.5467(2) 0.64821(17)
O3 O 0.19110(5) 0.5631(2) 0.89723(17)
O4 O 0.19040(5) 0.6519(2) 0.99160(15)
O7 O 0.40327(6) 0.4970(3) 0.46255(18)
O8 O 0.38501(6) 0.5511(2) 0.36758(18)
O10 O 0.38462(5) 0.1532(2) 0.02647(15)
O11 O 0.57534(10) 0.1964(4) 0.2590(4)
O12 O 0.58113(6) 0.3224(2) 0.29592(19)
C1 C 0.35036(8) 0.5970(3) 0.6637(2)
C2 C 0.34093(8) 0.6039(3) 0.7429(2)
C3 C 0.32166(9) 0.6597(3) 0.7576(3)
H1 H 0.316529 0.698598 0.722001
C4 C 0.31094(8) 0.6562(3) 0.8222(2)
H2 H 0.296369 0.687577 0.830638
C5 C 0.32005(7) 0.6096(3) 0.8765(2)
C6 C 0.34135(9) 0.5681(3) 0.8652(3)
H3 H 0.349884 0.543785 0.905081
C7 C 0.35036(8) 0.5616(3) 0.7971(3)
H4 H 0.363867 0.525650 0.788056
C8 C 0.20177(7) 0.6089(3) 0.9480(2)
C9 C 0.22961(7) 0.6083(3) 0.9451(2)
C10 C 0.24232(8) 0.6547(3) 0.9935(2)
C11 C 0.26859(8) 0.6600(3) 0.9950(2)
C12 C 0.28160(7) 0.6101(3) 0.9445(2)
C13 C 0.26776(9) 0.5614(4) 0.8975(3)
H7 H 0.276365 0.527008 0.864159
C14 C 0.24349(8) 0.5602(3) 0.8966(3)
H8 H 0.235151 0.526011 0.862473
H10 H 0.345500 0.697711 0.992920
C22 C 0.40245(8) 0.5133(3) 0.3950(3)
C23 C 0.42099(9) 0.4794(4) 0.3453(3)
C24 C 0.44006(8) 0.4275(3) 0.3773(2)
H13 H 0.441371 0.420388 0.428679
C25 C 0.45660(9) 0.3880(4) 0.3285(3)
H14 H 0.470361 0.358655 0.347646
C26 C 0.45331(8) 0.3910(4) 0.2555(3)
C27 C 0.43568(9) 0.4452(3) 0.2269(3)
H15 H 0.435396 0.459090 0.176511
C28 C 0.41839(9) 0.4780(4) 0.2765(3)
H16 H 0.403637 0.500966 0.256916
C30 C 0.42002(8) 0.2313(3) 0.0522(3)
C31 C 0.41474(9) 0.2194(3) 0.1294(3)
H17 H 0.401439 0.186831 0.147253
C32 C 0.43133(10) 0.2610(4) 0.1742(3)
H18 H 0.427510 0.262143 0.224875
C33 C 0.45189(8) 0.2993(4) 0.1540(3)
C34 C 0.45750(10) 0.3009(4) 0.0779(3)
H19 H 0.472075 0.327474 0.060960
C35 C 0.44299(9) 0.2668(4) 0.0332(3)
C36 C 0.56779(11) 0.2668(4) 0.2692(3)
C37 C 0.54233(10) 0.2868(4) 0.2473(3)
C38 C 0.52614(10) 0.2274(4) 0.2132(3)
H21 H 0.531748 0.173147 0.203408
C39 C 0.50296(10) 0.2504(4) 0.1956(3)
H22 H 0.493757 0.215676 0.163956
C40 C 0.49154(8) 0.3217(3) 0.2206(3)
C41 C 0.50803(8) 0.3789(3) 0.2576(3)
H23 H 0.501718 0.430960 0.271949
C42 C 0.53182(9) 0.3610(3) 0.2723(3)
H24 H 0.541601 0.398557 0.299674
O13 O 0.35260(6) 0.6746(2) 0.39971(17)
H25 H 0.339449 0.708201 0.375491
O14 O 0.35107(5) 0.53882(19) 0.49401(15)
H26 H 0.337254 0.506139 0.515900
O15 O 0.34490(7) 0.7857(2) 0.52342(19)
H27 H 0.350492 0.815712 0.560597
H28 H 0.338510 0.822425 0.492678
O16 O 0.37770(8) 0.3992(3) 0.5734(2)
H29 H 0.387113 0.366546 0.599896
H30 H 0.365737 0.367143 0.557382
O17 O 0.41674(6) 0.5255(3) 0.6069(2)
H31 H 0.419895 0.541504 0.651497
H32 H 0.431039 0.509065 0.590072
O19 O 0.15595(7) 0.4263(2) 0.86639(18)
H35 H 0.169723 0.396796 0.857340
H36 H 0.143668 0.389107 0.864736
Ni5 Ni 0.34628(2) 0.16096(4) 0.01215(3)
Ni7 Ni 0.38280(2) 0.02664(5) 0.05360(3)
Ni10 Ni 0.61509(2) 0.31861(4) 0.34738(3)
O20 O 0.30960(5) 0.6519(2) 0.49160(15)
O21 O 0.15980(6) 0.5669(2) 0.77561(17)
O24 O 0.11499(6) 0.5511(2) 0.86758(18)
O25 O 0.38462(5) 0.6532(2) 0.52647(15)
O28 O 0.14740(6) 0.6746(2) 0.89971(17)
O29 O 0.14893(5) 0.53882(19) 0.99401(15)
Ni3 Ni 0.38491(2) 0.18139(4) 0.84738(3)
O9 O 0.40396(5) 0.2140(2) 0.93414(16)
C29 C 0.40126(8) 0.1968(3) 0.9990(3)
H20 H 0.447866 0.264761 0.983403
O18 O 0.38123(7) 0.3063(3) 0.8229(2)
H33 H 0.394488 0.323484 0.800497
H34 H 0.380969 0.334092 0.863557
O22 O 0.36980(5) 0.1580(2) 0.74380(16)
O23 O 0.38501(6) 0.0511(2) 0.86758(18)
O26 O 0.41887(6) 0.1776(2) 0.79592(19)
O27 O 0.35260(6) 0.1746(2) 0.89971(17)
O5_2 O 0.65980(6) 0.4331(2) 0.27561(17)
O6_2 O 0.63020(5) 0.3420(2) 0.24380(16)
H5_2 H 0.766806 0.314557 0.028472
H6_2 H 0.723004 0.304765 0.028161
C15_2 C 0.64928(9) 0.3955(3) 0.2288(3)
C16_2 C 0.65872(8) 0.3977(3) 0.1569(2)
C17_2 C 0.64738(8) 0.3463(3) 0.0990(2)
H9_2 H 0.632406 0.317215 0.107699
C18_2 C 0.65974(9) 0.3413(3) 0.0283(2)
C19_2 C 0.67991(8) 0.3961(3) 0.0125(2)
C20_2 C 0.68942(9) 0.4446(3) 0.0697(3)
H11_2 H 0.703360 0.479048 0.061735
C21_2 C 0.67809(8) 0.4414(3) 0.1383(2)
H12_2 H 0.685215 0.474586 0.175492
Ni6_2 Ni 0.84628(2) 0.33904(4) 0.01215(3)
Ni12_2 Ni 0.65344(2) 0.44820(4) 0.38799(3)
Ni1_2 Ni 0.65372(2) 0.33904(4) 0.51215(3)
Ni2_2 Ni 0.61720(2) 0.47336(5) 0.55360(3)
Ni4_2 Ni 0.84656(2) 0.44820(4) 0.88799(3)
N1_2 N 0.69275(6) 0.3901(2) 0.9430(2)
N2_2 N 0.53206(7) 0.6540(3) 0.2061(2)
O1_2 O 0.65983(6) 0.35077(18) 0.61568(16)
O2_2 O 0.63364(6) 0.4533(2) 0.64821(17)
O3_2 O 0.80890(5) 0.4369(2) 0.89723(17)
O4_2 O 0.80960(5) 0.3481(2) 0.99160(15)
O7_2 O 0.59673(6) 0.5030(3) 0.46255(18)
O8_2 O 0.61499(6) 0.4489(2) 0.36758(18)
O10_2 O 0.61538(5) 0.8468(2) 0.02647(15)
O11_2 O 0.42466(10) 0.8036(4) 0.2590(4)
O12_2 O 0.41887(6) 0.6776(2) 0.29592(19)
C1_2 C 0.64964(8) 0.4030(3) 0.6637(2)
C2_2 C 0.65907(8) 0.3961(3) 0.7429(2)
C3_2 C 0.67834(9) 0.3403(3) 0.7576(3)
H1_2 H 0.683471 0.301402 0.722001
C4_2 C 0.68906(8) 0.3438(3) 0.8222(2)
H2_2 H 0.703631 0.312423 0.830638
C5_2 C 0.67995(7) 0.3904(3) 0.8765(2)
C6_2 C 0.65865(9) 0.4319(3) 0.8652(3)
H3_2 H 0.650116 0.456215 0.905081
C7_2 C 0.64964(8) 0.4384(3) 0.7971(3)
H4_2 H 0.636133 0.474350 0.788056
C8_2 C 0.79823(7) 0.3911(3) 0.9480(2)
C9_2 C 0.77039(7) 0.3917(3) 0.9451(2)
C10_2 C 0.75768(8) 0.3453(3) 0.9935(2)
C11_2 C 0.73141(8) 0.3400(3) 0.9950(2)
C12_2 C 0.71840(7) 0.3899(3) 0.9445(2)
C13_2 C 0.73224(9) 0.4386(4) 0.8975(3)
H7_2 H 0.723635 0.472992 0.864159
C14_2 C 0.75651(8) 0.4398(3) 0.8966(3)
H8_2 H 0.764849 0.473989 0.862473
H10_2 H 0.654500 0.302289 0.992920
C22_2 C 0.59755(8) 0.4867(3) 0.3950(3)
C23_2 C 0.57901(9) 0.5206(4) 0.3453(3)
C24_2 C 0.55994(8) 0.5725(3) 0.3773(2)
H13_2 H 0.558629 0.579612 0.428679
C25_2 C 0.54340(9) 0.6120(4) 0.3285(3)
H14_2 H 0.529639 0.641345 0.347646
C26_2 C 0.54669(8) 0.6090(4) 0.2555(3)
C27_2 C 0.56432(9) 0.5548(3) 0.2269(3)
H15_2 H 0.564604 0.540910 0.176511
C28_2 C 0.58161(9) 0.5220(4) 0.2765(3)
H16_2 H 0.596363 0.499034 0.256916
C30_2 C 0.57998(8) 0.7687(3) 0.0522(3)
C31_2 C 0.58526(9) 0.7806(3) 0.1294(3)
H17_2 H 0.598561 0.813169 0.147253
C32_2 C 0.56867(10) 0.7390(4) 0.1742(3)
H18_2 H 0.572490 0.737857 0.224875
C33_2 C 0.54811(8) 0.7007(4) 0.1540(3)
C34_2 C 0.54250(10) 0.6991(4) 0.0779(3)
H19_2 H 0.527925 0.672526 0.060960
C35_2 C 0.55701(9) 0.7332(4) 0.0332(3)
C36_2 C 0.43221(11) 0.7332(4) 0.2692(3)
C37_2 C 0.45767(10) 0.7132(4) 0.2473(3)
C38_2 C 0.47386(10) 0.7726(4) 0.2132(3)
H21_2 H 0.468252 0.826853 0.203408
C39_2 C 0.49704(10) 0.7496(4) 0.1956(3)
H22_2 H 0.506243 0.784324 0.163956
C40_2 C 0.50846(8) 0.6783(3) 0.2206(3)
C41_2 C 0.49197(8) 0.6211(3) 0.2576(3)
H23_2 H 0.498282 0.569040 0.271949
C42_2 C 0.46818(9) 0.6390(3) 0.2723(3)
H24_2 H 0.458399 0.601443 0.299674
O13_2 O 0.64740(6) 0.3254(2) 0.39971(17)
H25_2 H 0.660551 0.291799 0.375491
O14_2 O 0.64893(5) 0.46118(19) 0.49401(15)
H26_2 H 0.662746 0.493861 0.515900
O15_2 O 0.65510(7) 0.2143(2) 0.52342(19)
H27_2 H 0.649508 0.184288 0.560597
H28_2 H 0.661490 0.177575 0.492678
O16_2 O 0.62230(8) 0.6008(3) 0.5734(2)
H29_2 H 0.612887 0.633454 0.599896
H30_2 H 0.634263 0.632857 0.557382
O17_2 O 0.58326(6) 0.4745(3) 0.6069(2)
H31_2 H 0.580105 0.458496 0.651497
H32_2 H 0.568961 0.490935 0.590072
O19_2 O 0.84405(7) 0.5737(2) 0.86639(18)
H35_2 H 0.830277 0.603204 0.857340
H36_2 H 0.856332 0.610893 0.864736
Ni5_2 Ni 0.65372(2) 0.83904(4) 0.01215(3)
Ni7_2 Ni 0.61720(2) 0.97336(5) 0.05360(3)
O20_2 O 0.69040(5) 0.3481(2) 0.49160(15)
O21_2 O 0.84020(6) 0.4331(2) 0.77561(17)
O24_2 O 0.88501(6) 0.4489(2) 0.86758(18)
O25_2 O 0.61538(5) 0.3468(2) 0.52647(15)
O28_2 O 0.85260(6) 0.3254(2) 0.89971(17)
O29_2 O 0.85107(5) 0.46118(19) 0.99401(15)
Ni3_2 Ni 0.61509(2) 0.81861(4) 0.84738(3)
O9_2 O 0.59604(5) 0.7860(2) 0.93414(16)
C29_2 C 0.59874(8) 0.8032(3) 0.9990(3)
H20_2 H 0.552134 0.735239 0.983403
O18_2 O 0.61877(7) 0.6937(3) 0.8229(2)
H33_2 H 0.605512 0.676516 0.800497
H34_2 H 0.619031 0.665908 0.863557
O22_2 O 0.63020(5) 0.8420(2) 0.74380(16)
O23_2 O 0.61499(6) 0.9489(2) 0.86758(18)
O26_2 O 0.58113(6) 0.8224(2) 0.79592(19)
O27_2 O 0.64740(6) 0.8254(2) 0.89971(17)
O11_3 O 0.07534(10) 0.3036(4) 0.2590(4)
O12_3 O 0.08113(6) 0.1776(2) 0.29592(19)
C36_3 C 0.06779(11) 0.2332(4) 0.2692(3)
C37_3 C 0.04233(10) 0.2132(4) 0.2473(3)
C38_3 C 0.02614(10) 0.2726(4) 0.2132(3)
H21_3 H 0.031748 0.326853 0.203408
C39_3 C 0.00296(10) 0.2496(4) 0.1956(3)
C41_3 C 0.00803(8) 0.1211(3) 0.2576(3)
H23_3 H 0.001718 0.069040 0.271949
C42_3 C 0.03182(9) 0.1390(3) 0.2723(3)
H24_3 H 0.041601 0.101443 0.299674
Ni10_2 Ni 0.11509(2) 0.18139(4) 0.34738(3)
N2_3 N 0.96794(7) 0.1540(3) 0.2061(2)
O7_3 O 0.90327(6) 0.0030(3) 0.46255(18)
O10_3 O 0.88462(5) 0.3468(2) 0.02647(15)
C23_3 C 0.92099(9) 0.0206(4) 0.3453(3)
C24_3 C 0.94006(8) 0.0725(3) 0.3773(2)
H13_3 H 0.941371 0.079612 0.428679
C25_3 C 0.95660(9) 0.1120(4) 0.3285(3)
H14_3 H 0.970361 0.141345 0.347646
C26_3 C 0.95331(8) 0.1090(4) 0.2555(3)
C27_3 C 0.93568(9) 0.0548(3) 0.2269(3)
H15_3 H 0.935396 0.040910 0.176511
C28_3 C 0.91839(9) 0.0220(4) 0.2765(3)
C30_3 C 0.92002(8) 0.2687(3) 0.0522(3)
C31_3 C 0.91474(9) 0.2806(3) 0.1294(3)
H17_3 H 0.901439 0.313169 0.147253
C32_3 C 0.93133(10) 0.2390(4) 0.1742(3)
H18_3 H 0.927510 0.237857 0.224875
C33_3 C 0.95189(8) 0.2007(4) 0.1540(3)
C34_3 C 0.95750(10) 0.1991(4) 0.0779(3)
H19_3 H 0.972075 0.172526 0.060960
C35_3 C 0.94299(9) 0.2332(4) 0.0332(3)
H22_3 H 0.993757 0.284324 0.163956
C40_3 C 0.99154(8) 0.1783(3) 0.2206(3)
O16_3 O 0.87770(8) 0.1008(3) 0.5734(2)
H29_3 H 0.887113 0.133454 0.599896
H30_3 H 0.865737 0.132857 0.557382
O19_3 O 0.65595(7) 0.0737(2) 0.86639(18)
H35_3 H 0.669723 0.103204 0.857340
H36_3 H 0.643668 0.110893 0.864736
Ni7_3 Ni 0.88280(2) 0.47336(5) 0.05360(3)
Ni3_3 Ni 0.88491(2) 0.31861(4) 0.84738(3)
O9_3 O 0.90396(5) 0.2860(2) 0.93414(16)
C29_3 C 0.90126(8) 0.3032(3) 0.9990(3)
H20_3 H 0.947866 0.235239 0.983403
O18_3 O 0.88123(7) 0.1937(3) 0.8229(2)
H33_3 H 0.894488 0.176516 0.800497
H34_3 H 0.880969 0.165908 0.863557
O22_3 O 0.86980(5) 0.3420(2) 0.74380(16)
O26_3 O 0.91887(6) 0.3224(2) 0.79592(19)
O5_3 O 0.84020(6) 0.9331(2) 0.27561(17)
O6_3 O 0.86980(5) 0.8420(2) 0.24380(16)
H5_3 H 0.733194 0.814557 0.028472
H6_3 H 0.776996 0.804765 0.028161
C15_3 C 0.85072(9) 0.8955(3) 0.2288(3)
C16_3 C 0.84128(8) 0.8977(3) 0.1569(2)
C17_3 C 0.85262(8) 0.8463(3) 0.0990(2)
H9_3 H 0.867594 0.817215 0.107699
C18_3 C 0.84026(9) 0.8413(3) 0.0283(2)
C19_3 C 0.82009(8) 0.8961(3) 0.0125(2)
C20_3 C 0.81058(9) 0.9446(3) 0.0697(3)
H11_3 H 0.796640 0.979048 0.061735
C21_3 C 0.82191(8) 0.9414(3) 0.1383(2)
H12_3 H 0.814785 0.974586 0.175492
Ni9_2 Ni 0.88491(2) 0.81861(4) 0.34738(3)
Ni12_3 Ni 0.84656(2) 0.94820(4) 0.38799(3)
Ni1_3 Ni 0.84628(2) 0.83904(4) 0.51215(3)
Ni2_3 Ni 0.88280(2) 0.97336(5) 0.55360(3)
Ni4_3 Ni 0.65344(2) 0.94820(4) 0.88799(3)
N1_3 N 0.80725(6) 0.8901(2) 0.9430(2)
O1_3 O 0.84017(6) 0.85077(18) 0.61568(16)
O2_3 O 0.86636(6) 0.9533(2) 0.64821(17)
O3_3 O 0.69110(5) 0.9369(2) 0.89723(17)
O4_3 O 0.69040(5) 0.8481(2) 0.99160(15)
O8_3 O 0.88501(6) 0.9489(2) 0.36758(18)
C1_3 C 0.85036(8) 0.9030(3) 0.6637(2)
C2_3 C 0.84093(8) 0.8961(3) 0.7429(2)
C3_3 C 0.82166(9) 0.8403(3) 0.7576(3)
H1_3 H 0.816529 0.801402 0.722001
C4_3 C 0.81094(8) 0.8438(3) 0.8222(2)
H2_3 H 0.796369 0.812423 0.830638
C5_3 C 0.82005(7) 0.8904(3) 0.8765(2)
C6_3 C 0.84135(9) 0.9319(3) 0.8652(3)
H3_3 H 0.849884 0.956215 0.905081
C7_3 C 0.85036(8) 0.9384(3) 0.7971(3)
H4_3 H 0.863867 0.974350 0.788056
C8_3 C 0.70177(7) 0.8911(3) 0.9480(2)
C9_3 C 0.72961(7) 0.8917(3) 0.9451(2)
C10_3 C 0.74232(8) 0.8453(3) 0.9935(2)
C11_3 C 0.76859(8) 0.8400(3) 0.9950(2)
C12_3 C 0.78160(7) 0.8899(3) 0.9445(2)
C13_3 C 0.76776(9) 0.9386(4) 0.8975(3)
H7_3 H 0.776365 0.972992 0.864159
C14_3 C 0.74349(8) 0.9398(3) 0.8966(3)
H8_3 H 0.735151 0.973989 0.862473
H10_3 H 0.845500 0.802289 0.992920
C22_3 C 0.90245(8) 0.9867(3) 0.3950(3)
H16_3 H 0.903637 0.999034 0.256916
O13_3 O 0.85260(6) 0.8254(2) 0.39971(17)
H25_3 H 0.839449 0.791799 0.375491
O14_3 O 0.85107(5) 0.96118(19) 0.49401(15)
H26_3 H 0.837254 0.993861 0.515900
O15_3 O 0.84490(7) 0.7143(2) 0.52342(19)
H27_3 H 0.850492 0.684288 0.560597
H28_3 H 0.838510 0.677575 0.492678
O17_3 O 0.91674(6) 0.9745(3) 0.6069(2)
H31_3 H 0.919895 0.958496 0.651497
H32_3 H 0.931039 0.990935 0.590072
O20_3 O 0.80960(5) 0.8481(2) 0.49160(15)
O21_3 O 0.65980(6) 0.9331(2) 0.77561(17)
O25_3 O 0.88462(5) 0.8468(2) 0.52647(15)
O29_3 O 0.64893(5) 0.96118(19) 0.99401(15)
O5_4 O 0.15980(6) 0.0669(2) 0.27561(17)
O6_4 O 0.13020(5) 0.1580(2) 0.24380(16)
H5_4 H 0.266806 0.185443 0.028472
H6_4 H 0.223004 0.195235 0.028161
C15_4 C 0.14928(9) 0.1045(3) 0.2288(3)
C16_4 C 0.15872(8) 0.1023(3) 0.1569(2)
C17_4 C 0.14738(8) 0.1537(3) 0.0990(2)
H9_4 H 0.132406 0.182785 0.107699
C18_4 C 0.15974(9) 0.1587(3) 0.0283(2)
C19_4 C 0.17991(8) 0.1039(3) 0.0125(2)
C20_4 C 0.18942(9) 0.0554(3) 0.0697(3)
H11_4 H 0.203360 0.020952 0.061735
C21_4 C 0.17809(8) 0.0586(3) 0.1383(2)
H12_4 H 0.185215 0.025414 0.175492
Ni12_4 Ni 0.15344(2) 0.05180(4) 0.38799(3)
Ni1_4 Ni 0.15372(2) 0.16096(4) 0.51215(3)
Ni2_4 Ni 0.11720(2) 0.02664(5) 0.55360(3)
Ni4_4 Ni 0.34656(2) 0.05180(4) 0.88799(3)
N1_4 N 0.19275(6) 0.1099(2) 0.9430(2)
O1_4 O 0.15983(6) 0.14923(18) 0.61568(16)
O2_4 O 0.13364(6) 0.0467(2) 0.64821(17)
O3_4 O 0.30890(5) 0.0631(2) 0.89723(17)
O4_4 O 0.30960(5) 0.1519(2) 0.99160(15)
O8_4 O 0.11499(6) 0.0511(2) 0.36758(18)
C1_4 C 0.14964(8) 0.0970(3) 0.6637(2)
C2_4 C 0.15907(8) 0.1039(3) 0.7429(2)
C3_4 C 0.17834(9) 0.1597(3) 0.7576(3)
H1_4 H 0.183471 0.198598 0.722001
C4_4 C 0.18906(8) 0.1562(3) 0.8222(2)
H2_4 H 0.203631 0.187577 0.830638
C5_4 C 0.17995(7) 0.1096(3) 0.8765(2)
C6_4 C 0.15865(9) 0.0681(3) 0.8652(3)
H3_4 H 0.150116 0.043785 0.905081
C7_4 C 0.14964(8) 0.0616(3) 0.7971(3)
H4_4 H 0.136133 0.025650 0.788056
C8_4 C 0.29823(7) 0.1089(3) 0.9480(2)
C9_4 C 0.27039(7) 0.1083(3) 0.9451(2)
C10_4 C 0.25768(8) 0.1547(3) 0.9935(2)
C11_4 C 0.23141(8) 0.1600(3) 0.9950(2)
C12_4 C 0.21840(7) 0.1101(3) 0.9445(2)
C13_4 C 0.23224(9) 0.0614(4) 0.8975(3)
H7_4 H 0.223635 0.027008 0.864159
C14_4 C 0.25651(8) 0.0602(3) 0.8966(3)
H8_4 H 0.264849 0.026011 0.862473
H10_4 H 0.154500 0.197711 0.992920
C22_4 C 0.09755(8) 0.0133(3) 0.3950(3)
H16_4 H 0.096363 0.000966 0.256916
O13_4 O 0.14740(6) 0.1746(2) 0.39971(17)
H25_4 H 0.160551 0.208201 0.375491
O14_4 O 0.14893(5) 0.03882(19) 0.49401(15)
H26_4 H 0.162746 0.006139 0.515900
O15_4 O 0.15510(7) 0.2857(2) 0.52342(19)
H27_4 H 0.149508 0.315712 0.560597
H28_4 H 0.161490 0.322425 0.492678
O17_4 O 0.08326(6) 0.0255(3) 0.6069(2)
H31_4 H 0.080105 0.041504 0.651497
H32_4 H 0.068961 0.009065 0.590072
O20_4 O 0.19040(5) 0.1519(2) 0.49160(15)
O21_4 O 0.34020(6) 0.0669(2) 0.77561(17)
O25_4 O 0.11538(5) 0.1532(2) 0.52647(15)
O29_4 O 0.35107(5) 0.03882(19) 0.99401(15)
N2_4 N 0.03206(7) 0.8460(3) 0.2061(2)
O7_4 O 0.09673(6) 0.9970(3) 0.46255(18)
O10_4 O 0.11538(5) 0.6532(2) 0.02647(15)
C23_4 C 0.07901(9) 0.9794(4) 0.3453(3)
C24_4 C 0.05994(8) 0.9275(3) 0.3773(2)
H13_4 H 0.058629 0.920388 0.428679
C25_4 C 0.04340(9) 0.8880(4) 0.3285(3)
H14_4 H 0.029639 0.858655 0.347646
C26_4 C 0.04669(8) 0.8910(4) 0.2555(3)
C27_4 C 0.06432(9) 0.9452(3) 0.2269(3)
H15_4 H 0.064604 0.959090 0.176511
C28_4 C 0.08161(9) 0.9780(4) 0.2765(3)
C30_4 C 0.07998(8) 0.7313(3) 0.0522(3)
C31_4 C 0.08526(9) 0.7194(3) 0.1294(3)
H17_4 H 0.098561 0.686831 0.147253
C32_4 C 0.06867(10) 0.7610(4) 0.1742(3)
H18_4 H 0.072490 0.762143 0.224875
C33_4 C 0.04811(8) 0.7993(4) 0.1540(3)
C34_4 C 0.04250(10) 0.8009(4) 0.0779(3)
H19_4 H 0.027925 0.827474 0.060960
C35_4 C 0.05701(9) 0.7668(4) 0.0332(3)
H22_4 H 0.006243 0.715676 0.163956
C40_4 C 0.00846(8) 0.8217(3) 0.2206(3)
O16_4 O 0.12230(8) 0.8992(3) 0.5734(2)
H29_4 H 0.112887 0.866546 0.599896
H30_4 H 0.134263 0.867143 0.557382
O19_4 O 0.34405(7) 0.9263(2) 0.86639(18)
H35_4 H 0.330277 0.896796 0.857340
H36_4 H 0.356332 0.889107 0.864736
Ni7_4 Ni 0.11720(2) 0.52664(5) 0.05360(3)
Ni3_4 Ni 0.11509(2) 0.68139(4) 0.84738(3)
O9_4 O 0.09604(5) 0.7140(2) 0.93414(16)
C29_4 C 0.09874(8) 0.6968(3) 0.9990(3)
H20_4 H 0.052134 0.764761 0.983403
O18_4 O 0.11877(7) 0.8063(3) 0.8229(2)
H33_4 H 0.105512 0.823484 0.800497
H34_4 H 0.119031 0.834092 0.863557
O22_4 O 0.13020(5) 0.6580(2) 0.74380(16)
O26_4 O 0.08113(6) 0.6776(2) 0.79592(19)
O11_4 O 0.92466(10) 0.6964(4) 0.2590(4)
O12_4 O 0.91887(6) 0.8224(2) 0.29592(19)
C36_4 C 0.93221(11) 0.7668(4) 0.2692(3)
C37_4 C 0.95767(10) 0.7868(4) 0.2473(3)
C38_4 C 0.97386(10) 0.7274(4) 0.2132(3)
H21_4 H 0.968252 0.673147 0.203408
C39_4 C 0.99704(10) 0.7504(4) 0.1956(3)
C41_4 C 0.99197(8) 0.8789(3) 0.2576(3)
H23_4 H 0.998282 0.930960 0.271949
C42_4 C 0.96818(9) 0.8610(3) 0.2723(3)
H24_4 H 0.958399 0.898557 0.299674
N1_5 N 0.30725(6) 0.1099(2) 0.4430(2)
O1_5 O 0.34017(6) 0.14923(18) 0.11568(16)
O2_5 O 0.36636(6) 0.0467(2) 0.14821(17)
O3_5 O 0.19110(5) 0.0631(2) 0.39723(17)
C1_5 C 0.35036(8) 0.0970(3) 0.1637(2)
C2_5 C 0.34093(8) 0.1039(3) 0.2429(2)
C3_5 C 0.32166(9) 0.1597(3) 0.2576(3)
H1_5 H 0.316529 0.198598 0.222001
C4_5 C 0.31094(8) 0.1562(3) 0.3222(2)
H2_5 H 0.296369 0.187577 0.330638
C5_5 C 0.32005(7) 0.1096(3) 0.3765(2)
C6_5 C 0.34135(9) 0.0681(3) 0.3652(3)
H3_5 H 0.349884 0.043785 0.405081
C7_5 C 0.35036(8) 0.0616(3) 0.2971(3)
H4_5 H 0.363867 0.025650 0.288056
C8_5 C 0.20177(7) 0.1089(3) 0.4480(2)
C9_5 C 0.22961(7) 0.1083(3) 0.4451(2)
C10_5 C 0.24232(8) 0.1547(3) 0.4935(2)
H5_5 H 0.233194 0.185443 0.528472
C11_5 C 0.26859(8) 0.1600(3) 0.4950(2)
H6_5 H 0.276996 0.195235 0.528161
C12_5 C 0.28160(7) 0.1101(3) 0.4445(2)
C13_5 C 0.26776(9) 0.0614(4) 0.3975(3)
H7_5 H 0.276365 0.027008 0.364159
C14_5 C 0.24349(8) 0.0602(3) 0.3966(3)
H8_5 H 0.235151 0.026011 0.362473
C15_5 C 0.35072(9) 0.1045(3) 0.7288(3)
C16_5 C 0.34128(8) 0.1023(3) 0.6569(2)
C17_5 C 0.35262(8) 0.1537(3) 0.5990(2)
H9_5 H 0.367594 0.182785 0.607699
C18_5 C 0.34026(9) 0.1587(3) 0.5283(2)
H10_5 H 0.345500 0.197711 0.492920
C19_5 C 0.32009(8) 0.1039(3) 0.5125(2)
C20_5 C 0.31058(9) 0.0554(3) 0.5697(3)
H11_5 H 0.296640 0.020952 0.561735
C21_5 C 0.32191(8) 0.0586(3) 0.6383(2)
H12_5 H 0.314785 0.025414 0.675492
H26_5 H 0.337254 0.006139 0.015900
O15_5 O 0.34490(7) 0.2857(2) 0.02342(19)
H27_5 H 0.350492 0.315712 0.060597
O17_5 O 0.41674(6) 0.0255(3) 0.1069(2)
H31_5 H 0.419895 0.041504 0.151497
H32_5 H 0.431039 0.009065 0.090072
C22_5 C 0.40245(8) 0.0133(3) 0.8950(3)
H16_5 H 0.403637 0.000966 0.756916
H25_5 H 0.339449 0.208201 0.875491
H28_5 H 0.338510 0.322425 0.992678
N2_5 N 0.46794(7) 0.8460(3) 0.7061(2)
O7_5 O 0.40327(6) 0.9970(3) 0.96255(18)
O9_5 O 0.40396(5) 0.7140(2) 0.43414(16)
O11_5 O 0.57534(10) 0.6964(4) 0.7590(4)
C23_5 C 0.42099(9) 0.9794(4) 0.8453(3)
C24_5 C 0.44006(8) 0.9275(3) 0.8773(2)
H13_5 H 0.441371 0.920388 0.928679
C25_5 C 0.45660(9) 0.8880(4) 0.8285(3)
H14_5 H 0.470361 0.858655 0.847646
C26_5 C 0.45331(8) 0.8910(4) 0.7555(3)
C27_5 C 0.43568(9) 0.9452(3) 0.7269(3)
H15_5 H 0.435396 0.959090 0.676511
C28_5 C 0.41839(9) 0.9780(4) 0.7765(3)
C29_5 C 0.40126(8) 0.6968(3) 0.4990(3)
C30_5 C 0.42002(8) 0.7313(3) 0.5522(3)
C31_5 C 0.41474(9) 0.7194(3) 0.6294(3)
H17_5 H 0.401439 0.686831 0.647253
C32_5 C 0.43133(10) 0.7610(4) 0.6742(3)
H18_5 H 0.427510 0.762143 0.724875
C33_5 C 0.45189(8) 0.7993(4) 0.6540(3)
C34_5 C 0.45750(10) 0.8009(4) 0.5779(3)
H19_5 H 0.472075 0.827474 0.560960
C35_5 C 0.44299(9) 0.7668(4) 0.5332(3)
H20_5 H 0.447866 0.764761 0.483403
C36_5 C 0.56779(11) 0.7668(4) 0.7692(3)
C37_5 C 0.54233(10) 0.7868(4) 0.7473(3)
C38_5 C 0.52614(10) 0.7274(4) 0.7132(3)
H21_5 H 0.531748 0.673147 0.703408
C39_5 C 0.50296(10) 0.7504(4) 0.6956(3)
H22_5 H 0.493757 0.715676 0.663956
C40_5 C 0.49154(8) 0.8217(3) 0.7206(3)
C41_5 C 0.50803(8) 0.8789(3) 0.7576(3)
H23_5 H 0.501718 0.930960 0.771949
C42_5 C 0.53182(9) 0.8610(3) 0.7723(3)
H24_5 H 0.541601 0.898557 0.799674
O18_5 O 0.38123(7) 0.8063(3) 0.3229(2)
H33_5 H 0.394488 0.823484 0.300497
H34_5 H 0.380969 0.834092 0.363557
N2_6 N 0.53206(7) 0.1540(3) 0.7061(2)
O7_6 O 0.59673(6) 0.0030(3) 0.96255(18)
O9_6 O 0.59604(5) 0.2860(2) 0.43414(16)
O11_6 O 0.42466(10) 0.3036(4) 0.7590(4)
C23_6 C 0.57901(9) 0.0206(4) 0.8453(3)
C24_6 C 0.55994(8) 0.0725(3) 0.8773(2)
H13_6 H 0.558629 0.079612 0.928679
C25_6 C 0.54340(9) 0.1120(4) 0.8285(3)
H14_6 H 0.529639 0.141345 0.847646
C26_6 C 0.54669(8) 0.1090(4) 0.7555(3)
C27_6 C 0.56432(9) 0.0548(3) 0.7269(3)
H15_6 H 0.564604 0.040910 0.676511
C28_6 C 0.58161(9) 0.0220(4) 0.7765(3)
C29_6 C 0.59874(8) 0.3032(3) 0.4990(3)
C30_6 C 0.57998(8) 0.2687(3) 0.5522(3)
C31_6 C 0.58526(9) 0.2806(3) 0.6294(3)
H17_6 H 0.598561 0.313169 0.647253
C32_6 C 0.56867(10) 0.2390(4) 0.6742(3)
H18_6 H 0.572490 0.237857 0.724875
C33_6 C 0.54811(8) 0.2007(4) 0.6540(3)
C34_6 C 0.54250(10) 0.1991(4) 0.5779(3)
H19_6 H 0.527925 0.172526 0.560960
C35_6 C 0.55701(9) 0.2332(4) 0.5332(3)
H20_6 H 0.552134 0.235239 0.483403
C36_6 C 0.43221(11) 0.2332(4) 0.7692(3)
C37_6 C 0.45767(10) 0.2132(4) 0.7473(3)
C38_6 C 0.47386(10) 0.2726(4) 0.7132(3)
H21_6 H 0.468252 0.326853 0.703408
C39_6 C 0.49704(10) 0.2496(4) 0.6956(3)
H22_6 H 0.506243 0.284324 0.663956
C40_6 C 0.50846(8) 0.1783(3) 0.7206(3)
C41_6 C 0.49197(8) 0.1211(3) 0.7576(3)
H23_6 H 0.498282 0.069040 0.771949
C42_6 C 0.46818(9) 0.1390(3) 0.7723(3)
H24_6 H 0.458399 0.101443 0.799674
O18_6 O 0.61877(7) 0.1937(3) 0.3229(2)
H33_6 H 0.605512 0.176516 0.300497
H34_6 H 0.619031 0.165908 0.363557
N1_6 N 0.69275(6) 0.8901(2) 0.4430(2)
O1_6 O 0.65983(6) 0.85077(18) 0.11568(16)
O2_6 O 0.63364(6) 0.9533(2) 0.14821(17)
O3_6 O 0.80890(5) 0.9369(2) 0.39723(17)
C1_6 C 0.64964(8) 0.9030(3) 0.1637(2)
C2_6 C 0.65907(8) 0.8961(3) 0.2429(2)
C3_6 C 0.67834(9) 0.8403(3) 0.2576(3)
H1_6 H 0.683471 0.801402 0.222001
C4_6 C 0.68906(8) 0.8438(3) 0.3222(2)
H2_6 H 0.703631 0.812423 0.330638
C5_6 C 0.67995(7) 0.8904(3) 0.3765(2)
C6_6 C 0.65865(9) 0.9319(3) 0.3652(3)
H3_6 H 0.650116 0.956215 0.405081
C7_6 C 0.64964(8) 0.9384(3) 0.2971(3)
H4_6 H 0.636133 0.974350 0.288056
C8_6 C 0.79823(7) 0.8911(3) 0.4480(2)
C9_6 C 0.77039(7) 0.8917(3) 0.4451(2)
C10_6 C 0.75768(8) 0.8453(3) 0.4935(2)
H5_6 H 0.766806 0.814557 0.528472
C11_6 C 0.73141(8) 0.8400(3) 0.4950(2)
H6_6 H 0.723004 0.804765 0.528161
C12_6 C 0.71840(7) 0.8899(3) 0.4445(2)
C13_6 C 0.73224(9) 0.9386(4) 0.3975(3)
H7_6 H 0.723635 0.972992 0.364159
C14_6 C 0.75651(8) 0.9398(3) 0.3966(3)
H8_6 H 0.764849 0.973989 0.362473
C15_6 C 0.64928(9) 0.8955(3) 0.7288(3)
C16_6 C 0.65872(8) 0.8977(3) 0.6569(2)
C17_6 C 0.64738(8) 0.8463(3) 0.5990(2)
H9_6 H 0.632406 0.817215 0.607699
C18_6 C 0.65974(9) 0.8413(3) 0.5283(2)
H10_6 H 0.654500 0.802289 0.492920
C19_6 C 0.67991(8) 0.8961(3) 0.5125(2)
C20_6 C 0.68942(9) 0.9446(3) 0.5697(3)
H11_6 H 0.703360 0.979048 0.561735
C21_6 C 0.67809(8) 0.9414(3) 0.6383(2)
H12_6 H 0.685215 0.974586 0.675492
H26_6 H 0.662746 0.993861 0.015900
O15_6 O 0.65510(7) 0.7143(2) 0.02342(19)
H27_6 H 0.649508 0.684288 0.060597
O17_6 O 0.58326(6) 0.9745(3) 0.1069(2)
H31_6 H 0.580105 0.958496 0.151497
H32_6 H 0.568961 0.990935 0.090072
C22_6 C 0.59755(8) 0.9867(3) 0.8950(3)
H16_6 H 0.596363 0.999034 0.756916
H25_6 H 0.660551 0.791799 0.875491
H28_6 H 0.661490 0.677575 0.992678
O11_7 O 0.07534(10) 0.8036(4) 0.7590(4)
C36_7 C 0.06779(11) 0.7332(4) 0.7692(3)
C37_7 C 0.04233(10) 0.7132(4) 0.7473(3)
C38_7 C 0.02614(10) 0.7726(4) 0.7132(3)
H21_7 H 0.031748 0.826853 0.703408
C39_7 C 0.00296(10) 0.7496(4) 0.6956(3)
C41_7 C 0.00803(8) 0.6211(3) 0.7576(3)
H23_7 H 0.001718 0.569040 0.771949
C42_7 C 0.03182(9) 0.6390(3) 0.7723(3)
H24_7 H 0.041601 0.601443 0.799674
N1_7 N 0.80725(6) 0.3901(2) 0.4430(2)
O1_7 O 0.84017(6) 0.35077(18) 0.11568(16)
O2_7 O 0.86636(6) 0.4533(2) 0.14821(17)
O3_7 O 0.69110(5) 0.4369(2) 0.39723(17)
C1_7 C 0.85036(8) 0.4030(3) 0.1637(2)
C2_7 C 0.84093(8) 0.3961(3) 0.2429(2)
C3_7 C 0.82166(9) 0.3403(3) 0.2576(3)
H1_7 H 0.816529 0.301402 0.222001
C4_7 C 0.81094(8) 0.3438(3) 0.3222(2)
H2_7 H 0.796369 0.312423 0.330638
C5_7 C 0.82005(7) 0.3904(3) 0.3765(2)
C6_7 C 0.84135(9) 0.4319(3) 0.3652(3)
H3_7 H 0.849884 0.456215 0.405081
C7_7 C 0.85036(8) 0.4384(3) 0.2971(3)
H4_7 H 0.863867 0.474350 0.288056
C8_7 C 0.70177(7) 0.3911(3) 0.4480(2)
C9_7 C 0.72961(7) 0.3917(3) 0.4451(2)
C10_7 C 0.74232(8) 0.3453(3) 0.4935(2)
H5_7 H 0.733194 0.314557 0.528472
C11_7 C 0.76859(8) 0.3400(3) 0.4950(2)
H6_7 H 0.776996 0.304765 0.528161
C12_7 C 0.78160(7) 0.3899(3) 0.4445(2)
C13_7 C 0.76776(9) 0.4386(4) 0.3975(3)
H7_7 H 0.776365 0.472992 0.364159
C14_7 C 0.74349(8) 0.4398(3) 0.3966(3)
H8_7 H 0.735151 0.473989 0.362473
C15_7 C 0.85072(9) 0.3955(3) 0.7288(3)
C16_7 C 0.84128(8) 0.3977(3) 0.6569(2)
C17_7 C 0.85262(8) 0.3463(3) 0.5990(2)
H9_7 H 0.867594 0.317215 0.607699
C18_7 C 0.84026(9) 0.3413(3) 0.5283(2)
H10_7 H 0.845500 0.302289 0.492920
C19_7 C 0.82009(8) 0.3961(3) 0.5125(2)
C20_7 C 0.81058(9) 0.4446(3) 0.5697(3)
H11_7 H 0.796640 0.479048 0.561735
C21_7 C 0.82191(8) 0.4414(3) 0.6383(2)
H12_7 H 0.814785 0.474586 0.675492
H26_7 H 0.837254 0.493861 0.015900
O15_7 O 0.84490(7) 0.2143(2) 0.02342(19)
H27_7 H 0.850492 0.184288 0.060597
O16_5 O 0.87770(8) 0.6008(3) 0.0734(2)
H29_5 H 0.887113 0.633454 0.099896
H30_5 H 0.865737 0.632857 0.057382
O17_7 O 0.91674(6) 0.4745(3) 0.1069(2)
H31_7 H 0.919895 0.458496 0.151497
H32_7 H 0.931039 0.490935 0.090072
O19_5 O 0.65595(7) 0.5737(2) 0.36639(18)
H35_5 H 0.669723 0.603204 0.357340
H36_5 H 0.643668 0.610893 0.364736
N2_7 N 0.96794(7) 0.6540(3) 0.7061(2)
O7_7 O 0.90327(6) 0.5030(3) 0.96255(18)
O9_7 O 0.90396(5) 0.7860(2) 0.43414(16)
C22_7 C 0.90245(8) 0.4867(3) 0.8950(3)
C23_7 C 0.92099(9) 0.5206(4) 0.8453(3)
C24_7 C 0.94006(8) 0.5725(3) 0.8773(2)
H13_7 H 0.941371 0.579612 0.928679
C25_7 C 0.95660(9) 0.6120(4) 0.8285(3)
H14_7 H 0.970361 0.641345 0.847646
C26_7 C 0.95331(8) 0.6090(4) 0.7555(3)
C27_7 C 0.93568(9) 0.5548(3) 0.7269(3)
H15_7 H 0.935396 0.540910 0.676511
C28_7 C 0.91839(9) 0.5220(4) 0.7765(3)
H16_7 H 0.903637 0.499034 0.756916
C29_7 C 0.90126(8) 0.8032(3) 0.4990(3)
C30_7 C 0.92002(8) 0.7687(3) 0.5522(3)
C31_7 C 0.91474(9) 0.7806(3) 0.6294(3)
H17_7 H 0.901439 0.813169 0.647253
C32_7 C 0.93133(10) 0.7390(4) 0.6742(3)
H18_7 H 0.927510 0.737857 0.724875
C33_7 C 0.95189(8) 0.7007(4) 0.6540(3)
C34_7 C 0.95750(10) 0.6991(4) 0.5779(3)
H19_7 H 0.972075 0.672526 0.560960
C35_7 C 0.94299(9) 0.7332(4) 0.5332(3)
H20_7 H 0.947866 0.735239 0.483403
H22_7 H 0.993757 0.784324 0.663956
C40_7 C 0.99154(8) 0.6783(3) 0.7206(3)
H25_7 H 0.839449 0.291799 0.875491
H28_7 H 0.838510 0.177575 0.992678
O18_7 O 0.88123(7) 0.6937(3) 0.3229(2)
H33_7 H 0.894488 0.676516 0.300497
H34_7 H 0.880969 0.665908 0.363557
N1_8 N 0.19275(6) 0.6099(2) 0.4430(2)
O1_8 O 0.15983(6) 0.64923(18) 0.11568(16)
O2_8 O 0.13364(6) 0.5467(2) 0.14821(17)
O3_8 O 0.30890(5) 0.5631(2) 0.39723(17)
C1_8 C 0.14964(8) 0.5970(3) 0.1637(2)
C2_8 C 0.15907(8) 0.6039(3) 0.2429(2)
C3_8 C 0.17834(9) 0.6597(3) 0.2576(3)
H1_8 H 0.183471 0.698598 0.222001
C4_8 C 0.18906(8) 0.6562(3) 0.3222(2)
H2_8 H 0.203631 0.687577 0.330638
C5_8 C 0.17995(7) 0.6096(3) 0.3765(2)
C6_8 C 0.15865(9) 0.5681(3) 0.3652(3)
H3_8 H 0.150116 0.543785 0.405081
C7_8 C 0.14964(8) 0.5616(3) 0.2971(3)
H4_8 H 0.136133 0.525650 0.288056
C8_8 C 0.29823(7) 0.6089(3) 0.4480(2)
C9_8 C 0.27039(7) 0.6083(3) 0.4451(2)
C10_8 C 0.25768(8) 0.6547(3) 0.4935(2)
H5_8 H 0.266806 0.685443 0.528472
C11_8 C 0.23141(8) 0.6600(3) 0.4950(2)
H6_8 H 0.223004 0.695235 0.528161
C12_8 C 0.21840(7) 0.6101(3) 0.4445(2)
C13_8 C 0.23224(9) 0.5614(4) 0.3975(3)
H7_8 H 0.223635 0.527008 0.364159
C14_8 C 0.25651(8) 0.5602(3) 0.3966(3)
H8_8 H 0.264849 0.526011 0.362473
C15_8 C 0.14928(9) 0.6045(3) 0.7288(3)
C16_8 C 0.15872(8) 0.6023(3) 0.6569(2)
C17_8 C 0.14738(8) 0.6537(3) 0.5990(2)
H9_8 H 0.132406 0.682785 0.607699
C18_8 C 0.15974(9) 0.6587(3) 0.5283(2)
H10_8 H 0.154500 0.697711 0.492920
C19_8 C 0.17991(8) 0.6039(3) 0.5125(2)
C20_8 C 0.18942(9) 0.5554(3) 0.5697(3)
H11_8 H 0.203360 0.520952 0.561735
C21_8 C 0.17809(8) 0.5586(3) 0.6383(2)
H12_8 H 0.185215 0.525414 0.675492
H26_8 H 0.162746 0.506139 0.015900
O15_8 O 0.15510(7) 0.7857(2) 0.02342(19)
H27_8 H 0.149508 0.815712 0.060597
O16_6 O 0.12230(8) 0.3992(3) 0.0734(2)
H29_6 H 0.112887 0.366546 0.099896
H30_6 H 0.134263 0.367143 0.057382
O17_8 O 0.08326(6) 0.5255(3) 0.1069(2)
H31_8 H 0.080105 0.541504 0.151497
H32_8 H 0.068961 0.509065 0.090072
O19_6 O 0.34405(7) 0.4263(2) 0.36639(18)
H35_6 H 0.330277 0.396796 0.357340
H36_6 H 0.356332 0.389107 0.364736
N2_8 N 0.03206(7) 0.3460(3) 0.7061(2)
O7_8 O 0.09673(6) 0.4970(3) 0.96255(18)
O9_8 O 0.09604(5) 0.2140(2) 0.43414(16)
C22_8 C 0.09755(8) 0.5133(3) 0.8950(3)
C23_8 C 0.07901(9) 0.4794(4) 0.8453(3)
C24_8 C 0.05994(8) 0.4275(3) 0.8773(2)
H13_8 H 0.058629 0.420388 0.928679
C25_8 C 0.04340(9) 0.3880(4) 0.8285(3)
H14_8 H 0.029639 0.358655 0.847646
C26_8 C 0.04669(8) 0.3910(4) 0.7555(3)
C27_8 C 0.06432(9) 0.4452(3) 0.7269(3)
H15_8 H 0.064604 0.459090 0.676511
C28_8 C 0.08161(9) 0.4780(4) 0.7765(3)
H16_8 H 0.096363 0.500966 0.756916
C29_8 C 0.09874(8) 0.1968(3) 0.4990(3)
C30_8 C 0.07998(8) 0.2313(3) 0.5522(3)
C31_8 C 0.08526(9) 0.2194(3) 0.6294(3)
H17_8 H 0.098561 0.186831 0.647253
C32_8 C 0.06867(10) 0.2610(4) 0.6742(3)
H18_8 H 0.072490 0.262143 0.724875
C33_8 C 0.04811(8) 0.2993(4) 0.6540(3)
C34_8 C 0.04250(10) 0.3009(4) 0.5779(3)
H19_8 H 0.027925 0.327474 0.560960
C35_8 C 0.05701(9) 0.2668(4) 0.5332(3)
H20_8 H 0.052134 0.264761 0.483403
H22_8 H 0.006243 0.215676 0.663956
C40_8 C 0.00846(8) 0.3217(3) 0.7206(3)
H25_8 H 0.160551 0.708201 0.875491
H28_8 H 0.161490 0.822425 0.992678
O18_8 O 0.11877(7) 0.3063(3) 0.3229(2)
H33_8 H 0.105512 0.323484 0.300497
H34_8 H 0.119031 0.334092 0.363557
O11_8 O 0.92466(10) 0.1964(4) 0.7590(4)
C36_8 C 0.93221(11) 0.2668(4) 0.7692(3)
C37_8 C 0.95767(10) 0.2868(4) 0.7473(3)
C38_8 C 0.97386(10) 0.2274(4) 0.7132(3)
H21_8 H 0.968252 0.173147 0.703408
C39_8 C 0.99704(10) 0.2504(4) 0.6956(3)
C41_8 C 0.99197(8) 0.3789(3) 0.7576(3)
H23_8 H 0.998282 0.430960 0.771949
C42_8 C 0.96818(9) 0.3610(3) 0.7723(3)
H24_8 H 0.958399 0.398557 0.799674
O16_7 O 0.37770(8) 0.8992(3) 0.0734(2)
H29_7 H 0.387113 0.866546 0.099896
H30_7 H 0.365737 0.867143 0.057382
O19_7 O 0.15595(7) 0.9263(2) 0.36639(18)
H35_7 H 0.169723 0.896796 0.357340
H36_7 H 0.143668 0.889107 0.364736
O16_8 O 0.62230(8) 0.1008(3) 0.0734(2)
H29_8 H 0.612887 0.133454 0.099896
H30_8 H 0.634263 0.132857 0.057382
O19_8 O 0.84405(7) 0.0737(2) 0.36639(18)
H35_8 H 0.830277 0.103204 0.357340
H36_8 H 0.856332 0.110893 0.364736
loop_
_geom_bond_atom_site_label_1
_geom_bond_atom_site_label_2
_geom_bond_site_symmetry_1
_geom_bond_site_symmetry_2
O5 C15 1_555 1_555
O6 C15 1_555 1_555
C15 C16 1_555 1_555
C16 C17 1_555 1_555
C17 H9 1_555 1_555
C18 C17 1_555 1_555
C20 C19 1_555 1_555
H11 C20 1_555 1_555
C21 C16 1_555 1_555
H12 C21 1_555 1_555
Ni9 O6 1_555 1_555
Ni12 O5 1_555 1_555
C18 C19 1_555 1_555
C20 C21 1_555 1_555
Ni1 O1 1_555 1_555
Ni2 O2 1_555 1_555
Ni4 O3 1_555 1_555
N1 C5 1_555 1_555
N2 C26 1_555 1_555
O1 C1 1_555 1_555
O2 C1 1_555 1_555
O3 C8 1_555 1_555
O4 C8 1_555 1_555
O7 Ni2 1_555 1_555
O8 C22 1_555 1_555
O11 C36 1_555 1_555
O12 C36 1_555 1_555
C1 C2 1_555 1_555
C2 C3 1_555 1_555
C3 H1 1_555 1_555
C4 C3 1_555 1_555
H2 C4 1_555 1_555
C5 C4 1_555 1_555
C6 C5 1_555 1_555
H3 C6 1_555 1_555
C7 C2 1_555 1_555
H4 C7 1_555 1_555
C8 C9 1_555 1_555
C9 C10 1_555 1_555
C11 C10 1_555 1_555
C12 N1 1_555 1_555
C13 C12 1_555 1_555
H7 C13 1_555 1_555
C14 C9 1_555 1_555
H8 C14 1_555 1_555
C22 O7 1_555 1_555
C23 C22 1_555 1_555
C24 C23 1_555 1_555
H13 C24 1_555 1_555
C25 C24 1_555 1_555
H14 C25 1_555 1_555
C26 C25 1_555 1_555
C27 C26 1_555 1_555
H15 C27 1_555 1_555
C28 C23 1_555 1_555
H16 C28 1_555 1_555
C30 C31 1_555 1_555
C31 H17 1_555 1_555
C32 C31 1_555 1_555
H18 C32 1_555 1_555
C33 N2 1_555 1_555
C34 C33 1_555 1_555
H19 C34 1_555 1_555
C35 C30 1_555 1_555
C36 C37 1_555 1_555
C37 C38 1_555 1_555
C38 H21 1_555 1_555
C39 C38 1_555 1_555
H22 C39 1_555 1_555
C40 N2 1_555 1_555
C41 C40 1_555 1_555
H23 C41 1_555 1_555
C42 C37 1_555 1_555
H24 C42 1_555 1_555
O13 Ni1 1_555 1_555
H25 O13 1_555 1_555
O14 Ni1 1_555 1_555
H26 O14 1_555 1_555
O15 Ni1 1_555 1_555
H27 O15 1_555 1_555
H28 O15 1_555 1_555
O16 Ni2 1_555 1_555
H29 O16 1_555 1_555
H30 O16 1_555 1_555
O17 Ni2 1_555 1_555
H31 O17 1_555 1_555
H32 O17 1_555 1_555
O19 Ni4 1_555 1_555
H35 O19 1_555 1_555
H36 O19 1_555 1_555
Ni5 O10 1_555 1_555
Ni7 O10 1_555 1_555
Ni9 O8 1_555 1_555
Ni10 O12 1_555 1_555
Ni12 Ni1 1_555 1_555
O20 Ni1 1_555 1_555
O21 Ni4 1_555 1_555
O24 Ni4 1_555 1_555
O25 Ni1 1_555 1_555
O28 Ni4 1_555 1_555
O29 Ni4 1_555 1_555
Ni2 O14 1_555 1_555
Ni2 O25 1_555 1_555
O8 Ni12 1_555 1_555
C6 C7 1_555 1_555
C11 C12 1_555 1_555
C13 C14 1_555 1_555
C27 C28 1_555 1_555
C32 C33 1_555 1_555
C34 C35 1_555 1_555
C39 C40 1_555 1_555
C41 C42 1_555 1_555
O13 Ni9 1_555 1_555
O13 Ni12 1_555 1_555
O14 Ni12 1_555 1_555
Ni3 O9 1_555 1_555
O9 C29 1_555 1_555
O18 Ni3 1_555 1_555
H33 O18 1_555 1_555
H34 O18 1_555 1_555
O22 Ni3 1_555 1_555
O23 Ni3 1_555 1_555
O26 Ni3 1_555 1_555
O27 Ni3 1_555 1_555
O5_2 C15_2 1_555 1_555
O6_2 C15_2 1_555 1_555
C15_2 C16_2 1_555 1_555
C16_2 C17_2 1_555 1_555
C17_2 H9_2 1_555 1_555
C18_2 C17_2 1_555 1_555
C20_2 C19_2 1_555 1_555
H11_2 C20_2 1_555 1_555
C21_2 C16_2 1_555 1_555
H12_2 C21_2 1_555 1_555
Ni10 O6_2 1_555 1_555
Ni12_2 O5_2 1_555 1_555
C18_2 C19_2 1_555 1_555
C20_2 C21_2 1_555 1_555
Ni1_2 O1_2 1_555 1_555
Ni2_2 O2_2 1_555 1_555
Ni4_2 O3_2 1_555 1_555
N1_2 C5_2 1_555 1_555
N2_2 C26_2 1_555 1_555
O1_2 C1_2 1_555 1_555
O2_2 C1_2 1_555 1_555
O3_2 C8_2 1_555 1_555
O4_2 C8_2 1_555 1_555
O7_2 Ni2_2 1_555 1_555
O8_2 C22_2 1_555 1_555
O11_2 C36_2 1_555 1_555
O12_2 C36_2 1_555 1_555
C1_2 C2_2 1_555 1_555
C2_2 C3_2 1_555 1_555
C3_2 H1_2 1_555 1_555
C4_2 C3_2 1_555 1_555
H2_2 C4_2 1_555 1_555
C5_2 C4_2 1_555 1_555
C6_2 C5_2 1_555 1_555
H3_2 C6_2 1_555 1_555
C7_2 C2_2 1_555 1_555
H4_2 C7_2 1_555 1_555
C8_2 C9_2 1_555 1_555
C9_2 C10_2 1_555 1_555
C11_2 C10_2 1_555 1_555
C12_2 N1_2 1_555 1_555
C13_2 C12_2 1_555 1_555
H7_2 C13_2 1_555 1_555
C14_2 C9_2 1_555 1_555
H8_2 C14_2 1_555 1_555
C22_2 O7_2 1_555 1_555
C23_2 C22_2 1_555 1_555
C24_2 C23_2 1_555 1_555
H13_2 C24_2 1_555 1_555
C25_2 C24_2 1_555 1_555
H14_2 C25_2 1_555 1_555
C26_2 C25_2 1_555 1_555
C27_2 C26_2 1_555 1_555
H15_2 C27_2 1_555 1_555
C28_2 C23_2 1_555 1_555
H16_2 C28_2 1_555 1_555
C30_2 C31_2 1_555 1_555
C31_2 H17_2 1_555 1_555
C32_2 C31_2 1_555 1_555
H18_2 C32_2 1_555 1_555
C33_2 N2_2 1_555 1_555
C34_2 C33_2 1_555 1_555
H19_2 C34_2 1_555 1_555
C35_2 C30_2 1_555 1_555
C36_2 C37_2 1_555 1_555
C37_2 C38_2 1_555 1_555
C38_2 H21_2 1_555 1_555
C39_2 C38_2 1_555 1_555
H22_2 C39_2 1_555 1_555
C40_2 N2_2 1_555 1_555
C41_2 C40_2 1_555 1_555
H23_2 C41_2 1_555 1_555
C42_2 C37_2 1_555 1_555
H24_2 C42_2 1_555 1_555
O13_2 Ni1_2 1_555 1_555
H25_2 O13_2 1_555 1_555
O14_2 Ni1_2 1_555 1_555
H26_2 O14_2 1_555 1_555
O15_2 Ni1_2 1_555 1_555
H27_2 O15_2 1_555 1_555
H28_2 O15_2 1_555 1_555
O16_2 Ni2_2 1_555 1_555
H29_2 O16_2 1_555 1_555
H30_2 O16_2 1_555 1_555
O17_2 Ni2_2 1_555 1_555
H31_2 O17_2 1_555 1_555
H32_2 O17_2 1_555 1_555
O19_2 Ni4_2 1_555 1_555
H35_2 O19_2 1_555 1_555
H36_2 O19_2 1_555 1_555
Ni5_2 O10_2 1_555 1_555
Ni7_2 O10_2 1_555 1_555
Ni10 O8_2 1_555 1_555
Ni9 O12_2 1_555 1_555
Ni12_2 Ni1_2 1_555 1_555
O20_2 Ni1_2 1_555 1_555
O21_2 Ni4_2 1_555 1_555
O24_2 Ni4_2 1_555 1_555
O25_2 Ni1_2 1_555 1_555
O28_2 Ni4_2 1_555 1_555
O29_2 Ni4_2 1_555 1_555
Ni2_2 O14_2 1_555 1_555
Ni2_2 O25_2 1_555 1_555
O8_2 Ni12_2 1_555 1_555
C6_2 C7_2 1_555 1_555
C11_2 C12_2 1_555 1_555
C13_2 C14_2 1_555 1_555
C27_2 C28_2 1_555 1_555
C32_2 C33_2 1_555 1_555
C34_2 C35_2 1_555 1_555
C39_2 C40_2 1_555 1_555
C41_2 C42_2 1_555 1_555
O13_2 Ni10 1_555 1_555
O13_2 Ni12_2 1_555 1_555
O14_2 Ni12_2 1_555 1_555
Ni3_2 O9_2 1_555 1_555
O9_2 C29_2 1_555 1_555
O18_2 Ni3_2 1_555 1_555
H33_2 O18_2 1_555 1_555
H34_2 O18_2 1_555 1_555
O22_2 Ni3_2 1_555 1_555
O23_2 Ni3_2 1_555 1_555
O26_2 Ni3_2 1_555 1_555
O27_2 Ni3_2 1_555 1_555
O11_3 C36_3 1_555 1_555
O12_3 C36_3 1_555 1_555
C36_3 C37_3 1_555 1_555
C37_3 C38_3 1_555 1_555
C38_3 H21_3 1_555 1_555
C39_3 C38_3 1_555 1_555
H23_3 C41_3 1_555 1_555
C42_3 C37_3 1_555 1_555
H24_3 C42_3 1_555 1_555
Ni10_2 O12_3 1_555 1_555
C41_3 C42_3 1_555 1_555
N2_3 C26_3 1_555 1_555
C24_3 C23_3 1_555 1_555
H13_3 C24_3 1_555 1_555
C25_3 C24_3 1_555 1_555
H14_3 C25_3 1_555 1_555
C26_3 C25_3 1_555 1_555
C27_3 C26_3 1_555 1_555
H15_3 C27_3 1_555 1_555
C28_3 C23_3 1_555 1_555
C30_3 C31_3 1_555 1_555
C31_3 H17_3 1_555 1_555
C32_3 C31_3 1_555 1_555
H18_3 C32_3 1_555 1_555
C33_3 N2_3 1_555 1_555
C34_3 C33_3 1_555 1_555
H19_3 C34_3 1_555 1_555
C35_3 C30_3 1_555 1_555
C40_3 N2_3 1_555 1_555
H29_3 O16_3 1_555 1_555
H30_3 O16_3 1_555 1_555
H35_3 O19_3 1_555 1_555
H36_3 O19_3 1_555 1_555
Ni6_2 O10_3 1_555 1_555
Ni7_3 O10_3 1_555 1_555
C27_3 C28_3 1_555 1_555
C32_3 C33_3 1_555 1_555
C34_3 C35_3 1_555 1_555
Ni3_3 O9_3 1_555 1_555
O9_3 C29_3 1_555 1_555
O18_3 Ni3_3 1_555 1_555
H33_3 O18_3 1_555 1_555
H34_3 O18_3 1_555 1_555
O22_3 Ni3_3 1_555 1_555
O24_2 Ni3_3 1_555 1_555
O26_3 Ni3_3 1_555 1_555
O28_2 Ni3_3 1_555 1_555
O5_3 C15_3 1_555 1_555
O6_3 C15_3 1_555 1_555
C15_3 C16_3 1_555 1_555
C16_3 C17_3 1_555 1_555
C17_3 H9_3 1_555 1_555
C18_3 C17_3 1_555 1_555
C20_3 C19_3 1_555 1_555
H11_3 C20_3 1_555 1_555
C21_3 C16_3 1_555 1_555
H12_3 C21_3 1_555 1_555
Ni9_2 O6_3 1_555 1_555
Ni12_3 O5_3 1_555 1_555
C18_3 C19_3 1_555 1_555
C20_3 C21_3 1_555 1_555
Ni1_3 O1_3 1_555 1_555
Ni2_3 O2_3 1_555 1_555
Ni4_3 O3_3 1_555 1_555
N1_3 C5_3 1_555 1_555
O1_3 C1_3 1_555 1_555
O2_3 C1_3 1_555 1_555
O3_3 C8_3 1_555 1_555
O4_3 C8_3 1_555 1_555
O8_3 C22_3 1_555 1_555
C1_3 C2_3 1_555 1_555
C2_3 C3_3 1_555 1_555
C3_3 H1_3 1_555 1_555
C4_3 C3_3 1_555 1_555
H2_3 C4_3 1_555 1_555
C5_3 C4_3 1_555 1_555
C6_3 C5_3 1_555 1_555
H3_3 C6_3 1_555 1_555
C7_3 C2_3 1_555 1_555
H4_3 C7_3 1_555 1_555
C8_3 C9_3 1_555 1_555
C9_3 C10_3 1_555 1_555
C11_3 C10_3 1_555 1_555
C12_3 N1_3 1_555 1_555
C13_3 C12_3 1_555 1_555
H7_3 C13_3 1_555 1_555
C14_3 C9_3 1_555 1_555
H8_3 C14_3 1_555 1_555
O13_3 Ni1_3 1_555 1_555
H25_3 O13_3 1_555 1_555
O14_3 Ni1_3 1_555 1_555
H26_3 O14_3 1_555 1_555
O15_3 Ni1_3 1_555 1_555
H27_3 O15_3 1_555 1_555
H28_3 O15_3 1_555 1_555
O17_3 Ni2_3 1_555 1_555
H31_3 O17_3 1_555 1_555
H32_3 O17_3 1_555 1_555
Ni9_2 O8_3 1_555 1_555
Ni12_3 Ni1_3 1_555 1_555
O20_3 Ni1_3 1_555 1_555
O21_3 Ni4_3 1_555 1_555
O23_2 Ni4_3 1_555 1_555
O25_3 Ni1_3 1_555 1_555
O27_2 Ni4_3 1_555 1_555
O29_3 Ni4_3 1_555 1_555
Ni2_3 O14_3 1_555 1_555
Ni2_3 O25_3 1_555 1_555
O8_3 Ni12_3 1_555 1_555
C6_3 C7_3 1_555 1_555
C11_3 C12_3 1_555 1_555
C13_3 C14_3 1_555 1_555
O13_3 Ni9_2 1_555 1_555
O13_3 Ni12_3 1_555 1_555
O14_3 Ni12_3 1_555 1_555
O5_4 C15_4 1_555 1_555
O6_4 C15_4 1_555 1_555
C15_4 C16_4 1_555 1_555
C16_4 C17_4 1_555 1_555
C17_4 H9_4 1_555 1_555
C18_4 C17_4 1_555 1_555
C20_4 C19_4 1_555 1_555
H11_4 C20_4 1_555 1_555
C21_4 C16_4 1_555 1_555
H12_4 C21_4 1_555 1_555
Ni10_2 O6_4 1_555 1_555
Ni12_4 O5_4 1_555 1_555
C18_4 C19_4 1_555 1_555
C20_4 C21_4 1_555 1_555
Ni1_4 O1_4 1_555 1_555
Ni2_4 O2_4 1_555 1_555
Ni4_4 O3_4 1_555 1_555
N1_4 C5_4 1_555 1_555
O1_4 C1_4 1_555 1_555
O2_4 C1_4 1_555 1_555
O3_4 C8_4 1_555 1_555
O4_4 C8_4 1_555 1_555
O8_4 C22_4 1_555 1_555
C1_4 C2_4 1_555 1_555
C2_4 C3_4 1_555 1_555
C3_4 H1_4 1_555 1_555
C4_4 C3_4 1_555 1_555
H2_4 C4_4 1_555 1_555
C5_4 C4_4 1_555 1_555
C6_4 C5_4 1_555 1_555
H3_4 C6_4 1_555 1_555
C7_4 C2_4 1_555 1_555
H4_4 C7_4 1_555 1_555
C8_4 C9_4 1_555 1_555
C9_4 C10_4 1_555 1_555
C11_4 C10_4 1_555 1_555
C12_4 N1_4 1_555 1_555
C13_4 C12_4 1_555 1_555
H7_4 C13_4 1_555 1_555
C14_4 C9_4 1_555 1_555
H8_4 C14_4 1_555 1_555
O13_4 Ni1_4 1_555 1_555
H25_4 O13_4 1_555 1_555
O14_4 Ni1_4 1_555 1_555
H26_4 O14_4 1_555 1_555
O15_4 Ni1_4 1_555 1_555
H27_4 O15_4 1_555 1_555
H28_4 O15_4 1_555 1_555
O17_4 Ni2_4 1_555 1_555
H31_4 O17_4 1_555 1_555
H32_4 O17_4 1_555 1_555
Ni10_2 O8_4 1_555 1_555
Ni12_4 Ni1_4 1_555 1_555
O20_4 Ni1_4 1_555 1_555
O21_4 Ni4_4 1_555 1_555
O23 Ni4_4 1_555 1_555
O25_4 Ni1_4 1_555 1_555
O27 Ni4_4 1_555 1_555
O29_4 Ni4_4 1_555 1_555
Ni2_4 O14_4 1_555 1_555
Ni2_4 O25_4 1_555 1_555
O8_4 Ni12_4 1_555 1_555
C6_4 C7_4 1_555 1_555
C11_4 C12_4 1_555 1_555
C13_4 C14_4 1_555 1_555
O13_4 Ni10_2 1_555 1_555
O13_4 Ni12_4 1_555 1_555
O14_4 Ni12_4 1_555 1_555
N2_4 C26_4 1_555 1_555
C24_4 C23_4 1_555 1_555
H13_4 C24_4 1_555 1_555
C25_4 C24_4 1_555 1_555
H14_4 C25_4 1_555 1_555
C26_4 C25_4 1_555 1_555
C27_4 C26_4 1_555 1_555
H15_4 C27_4 1_555 1_555
C28_4 C23_4 1_555 1_555
C30_4 C31_4 1_555 1_555
C31_4 H17_4 1_555 1_555
C32_4 C31_4 1_555 1_555
H18_4 C32_4 1_555 1_555
C33_4 N2_4 1_555 1_555
C34_4 C33_4 1_555 1_555
H19_4 C34_4 1_555 1_555
C35_4 C30_4 1_555 1_555
C40_4 N2_4 1_555 1_555
H29_4 O16_4 1_555 1_555
H30_4 O16_4 1_555 1_555
H35_4 O19_4 1_555 1_555
H36_4 O19_4 1_555 1_555
Ni6 O10_4 1_555 1_555
Ni7_4 O10_4 1_555 1_555
C27_4 C28_4 1_555 1_555
C32_4 C33_4 1_555 1_555
C34_4 C35_4 1_555 1_555
Ni3_4 O9_4 1_555 1_555
O9_4 C29_4 1_555 1_555
O18_4 Ni3_4 1_555 1_555
H33_4 O18_4 1_555 1_555
H34_4 O18_4 1_555 1_555
O22_4 Ni3_4 1_555 1_555
O24 Ni3_4 1_555 1_555
O26_4 Ni3_4 1_555 1_555
O28 Ni3_4 1_555 1_555
O11_4 C36_4 1_555 1_555
O12_4 C36_4 1_555 1_555
C36_4 C37_4 1_555 1_555
C37_4 C38_4 1_555 1_555
C38_4 H21_4 1_555 1_555
C39_4 C38_4 1_555 1_555
H23_4 C41_4 1_555 1_555
C42_4 C37_4 1_555 1_555
H24_4 C42_4 1_555 1_555
Ni9_2 O12_4 1_555 1_555
C41_4 C42_4 1_555 1_555
Ni5 O1_5 1_555 1_555
Ni7 O2_5 1_555 1_555
Ni12_4 O3_5 1_555 1_555
N1_5 C5_5 1_555 1_555
O1_5 C1_5 1_555 1_555
O2_5 C1_5 1_555 1_555
O3_5 C8_5 1_555 1_555
O20_4 C8_5 1_555 1_555
O21_4 C15_5 1_555 1_555
O22 C15_5 1_555 1_555
C1_5 C2_5 1_555 1_555
C2_5 C3_5 1_555 1_555
C3_5 H1_5 1_555 1_555
C4_5 C3_5 1_555 1_555
H2_5 C4_5 1_555 1_555
C5_5 C4_5 1_555 1_555
C6_5 C5_5 1_555 1_555
H3_5 C6_5 1_555 1_555
C7_5 C2_5 1_555 1_555
H4_5 C7_5 1_555 1_555
C8_5 C9_5 1_555 1_555
C9_5 C10_5 1_555 1_555
C10_5 H5_5 1_555 1_555
C11_5 C10_5 1_555 1_555
H6_5 C11_5 1_555 1_555
C12_5 N1_5 1_555 1_555
C13_5 C12_5 1_555 1_555
H7_5 C13_5 1_555 1_555
C14_5 C9_5 1_555 1_555
H8_5 C14_5 1_555 1_555
C15_5 C16_5 1_555 1_555
C16_5 C17_5 1_555 1_555
C17_5 H9_5 1_555 1_555
C18_5 C17_5 1_555 1_555
H10_5 C18_5 1_555 1_555
C19_5 N1_5 1_555 1_555
C20_5 C19_5 1_555 1_555
H11_5 C20_5 1_555 1_555
C21_5 C16_5 1_555 1_555
H12_5 C21_5 1_555 1_555
O15_5 Ni5 1_555 1_555
H27_5 O15_5 1_555 1_555
O17_5 Ni7 1_555 1_555
H31_5 O17_5 1_555 1_555
H32_5 O17_5 1_555 1_555
C6_5 C7_5 1_555 1_555
C11_5 C12_5 1_555 1_555
C13_5 C14_5 1_555 1_555
C18_5 C19_5 1_555 1_555
C20_5 C21_5 1_555 1_555
O23 C22_5 1_555 1_555
H25_5 O27 1_555 1_555
Ni9 O9_5 1_555 1_555
N2_5 C26_5 1_555 1_555
O9_5 C29_5 1_555 1_555
O25 C29_5 1_555 1_555
O11_5 C36_5 1_555 1_555
O26_2 C36_5 1_555 1_555
C24_5 C23_5 1_555 1_555
H13_5 C24_5 1_555 1_555
C25_5 C24_5 1_555 1_555
H14_5 C25_5 1_555 1_555
C26_5 C25_5 1_555 1_555
C27_5 C26_5 1_555 1_555
H15_5 C27_5 1_555 1_555
C28_5 C23_5 1_555 1_555
C29_5 C30_5 1_555 1_555
C30_5 C31_5 1_555 1_555
C31_5 H17_5 1_555 1_555
C32_5 C31_5 1_555 1_555
H18_5 C32_5 1_555 1_555
C33_5 N2_5 1_555 1_555
C34_5 C33_5 1_555 1_555
H19_5 C34_5 1_555 1_555
C35_5 C30_5 1_555 1_555
H20_5 C35_5 1_555 1_555
C36_5 C37_5 1_555 1_555
C37_5 C38_5 1_555 1_555
C38_5 H21_5 1_555 1_555
C39_5 C38_5 1_555 1_555
H22_5 C39_5 1_555 1_555
C40_5 N2_5 1_555 1_555
C41_5 C40_5 1_555 1_555
H23_5 C41_5 1_555 1_555
C42_5 C37_5 1_555 1_555
H24_5 C42_5 1_555 1_555
O18_5 Ni9 1_555 1_555
H33_5 O18_5 1_555 1_555
H34_5 O18_5 1_555 1_555
C27_5 C28_5 1_555 1_555
C32_5 C33_5 1_555 1_555
C34_5 C35_5 1_555 1_555
C39_5 C40_5 1_555 1_555
C41_5 C42_5 1_555 1_555
Ni10 O9_6 1_555 1_555
N2_6 C26_6 1_555 1_555
O9_6 C29_6 1_555 1_555
O25_2 C29_6 1_555 1_555
O11_6 C36_6 1_555 1_555
O26 C36_6 1_555 1_555
C24_6 C23_6 1_555 1_555
H13_6 C24_6 1_555 1_555
C25_6 C24_6 1_555 1_555
H14_6 C25_6 1_555 1_555
C26_6 C25_6 1_555 1_555
C27_6 C26_6 1_555 1_555
H15_6 C27_6 1_555 1_555
C28_6 C23_6 1_555 1_555
C29_6 C30_6 1_555 1_555
C30_6 C31_6 1_555 1_555
C31_6 H17_6 1_555 1_555
C32_6 C31_6 1_555 1_555
H18_6 C32_6 1_555 1_555
C33_6 N2_6 1_555 1_555
C34_6 C33_6 1_555 1_555
H19_6 C34_6 1_555 1_555
C35_6 C30_6 1_555 1_555
H20_6 C35_6 1_555 1_555
C36_6 C37_6 1_555 1_555
C37_6 C38_6 1_555 1_555
C38_6 H21_6 1_555 1_555
C39_6 C38_6 1_555 1_555
H22_6 C39_6 1_555 1_555
C40_6 N2_6 1_555 1_555
C41_6 C40_6 1_555 1_555
H23_6 C41_6 1_555 1_555
C42_6 C37_6 1_555 1_555
H24_6 C42_6 1_555 1_555
O18_6 Ni10 1_555 1_555
H33_6 O18_6 1_555 1_555
H34_6 O18_6 1_555 1_555
C27_6 C28_6 1_555 1_555
C32_6 C33_6 1_555 1_555
C34_6 C35_6 1_555 1_555
C39_6 C40_6 1_555 1_555
C41_6 C42_6 1_555 1_555
Ni5_2 O1_6 1_555 1_555
Ni7_2 O2_6 1_555 1_555
Ni12_3 O3_6 1_555 1_555
N1_6 C5_6 1_555 1_555
O1_6 C1_6 1_555 1_555
O2_6 C1_6 1_555 1_555
O3_6 C8_6 1_555 1_555
O20_3 C8_6 1_555 1_555
O21_3 C15_6 1_555 1_555
O22_2 C15_6 1_555 1_555
C1_6 C2_6 1_555 1_555
C2_6 C3_6 1_555 1_555
C3_6 H1_6 1_555 1_555
C4_6 C3_6 1_555 1_555
H2_6 C4_6 1_555 1_555
C5_6 C4_6 1_555 1_555
C6_6 C5_6 1_555 1_555
H3_6 C6_6 1_555 1_555
C7_6 C2_6 1_555 1_555
H4_6 C7_6 1_555 1_555
C8_6 C9_6 1_555 1_555
C9_6 C10_6 1_555 1_555
C10_6 H5_6 1_555 1_555
C11_6 C10_6 1_555 1_555
H6_6 C11_6 1_555 1_555
C12_6 N1_6 1_555 1_555
C13_6 C12_6 1_555 1_555
H7_6 C13_6 1_555 1_555
C14_6 C9_6 1_555 1_555
H8_6 C14_6 1_555 1_555
C15_6 C16_6 1_555 1_555
C16_6 C17_6 1_555 1_555
C17_6 H9_6 1_555 1_555
C18_6 C17_6 1_555 1_555
H10_6 C18_6 1_555 1_555
C19_6 N1_6 1_555 1_555
C20_6 C19_6 1_555 1_555
H11_6 C20_6 1_555 1_555
C21_6 C16_6 1_555 1_555
H12_6 C21_6 1_555 1_555
O15_6 Ni5_2 1_555 1_555
H27_6 O15_6 1_555 1_555
O17_6 Ni7_2 1_555 1_555
H31_6 O17_6 1_555 1_555
H32_6 O17_6 1_555 1_555
C6_6 C7_6 1_555 1_555
C11_6 C12_6 1_555 1_555
C13_6 C14_6 1_555 1_555
C18_6 C19_6 1_555 1_555
C20_6 C21_6 1_555 1_555
O23_2 C22_6 1_555 1_555
H25_6 O27_2 1_555 1_555
O11_7 C36_7 1_555 1_555
O26_4 C36_7 1_555 1_555
C36_7 C37_7 1_555 1_555
C37_7 C38_7 1_555 1_555
C38_7 H21_7 1_555 1_555
C39_7 C38_7 1_555 1_555
H23_7 C41_7 1_555 1_555
C42_7 C37_7 1_555 1_555
H24_7 C42_7 1_555 1_555
C41_7 C42_7 1_555 1_555
Ni6_2 O1_7 1_555 1_555
Ni7_3 O2_7 1_555 1_555
Ni12_2 O3_7 1_555 1_555
N1_7 C5_7 1_555 1_555
O1_7 C1_7 1_555 1_555
O2_7 C1_7 1_555 1_555
O3_7 C8_7 1_555 1_555
O20_2 C8_7 1_555 1_555
O21_2 C15_7 1_555 1_555
O22_3 C15_7 1_555 1_555
C1_7 C2_7 1_555 1_555
C2_7 C3_7 1_555 1_555
C3_7 H1_7 1_555 1_555
C4_7 C3_7 1_555 1_555
H2_7 C4_7 1_555 1_555
C5_7 C4_7 1_555 1_555
C6_7 C5_7 1_555 1_555
H3_7 C6_7 1_555 1_555
C7_7 C2_7 1_555 1_555
H4_7 C7_7 1_555 1_555
C8_7 C9_7 1_555 1_555
C9_7 C10_7 1_555 1_555
C10_7 H5_7 1_555 1_555
C11_7 C10_7 1_555 1_555
H6_7 C11_7 1_555 1_555
C12_7 N1_7 1_555 1_555
C13_7 C12_7 1_555 1_555
H7_7 C13_7 1_555 1_555
C14_7 C9_7 1_555 1_555
H8_7 C14_7 1_555 1_555
C15_7 C16_7 1_555 1_555
C16_7 C17_7 1_555 1_555
C17_7 H9_7 1_555 1_555
C18_7 C17_7 1_555 1_555
H10_7 C18_7 1_555 1_555
C19_7 N1_7 1_555 1_555
C20_7 C19_7 1_555 1_555
H11_7 C20_7 1_555 1_555
C21_7 C16_7 1_555 1_555
H12_7 C21_7 1_555 1_555
O15_7 Ni6_2 1_555 1_555
H27_7 O15_7 1_555 1_555
O16_5 Ni7_3 1_555 1_555
H29_5 O16_5 1_555 1_555
H30_5 O16_5 1_555 1_555
O17_7 Ni7_3 1_555 1_555
H31_7 O17_7 1_555 1_555
H32_7 O17_7 1_555 1_555
O19_5 Ni12_2 1_555 1_555
H35_5 O19_5 1_555 1_555
H36_5 O19_5 1_555 1_555
C6_7 C7_7 1_555 1_555
C11_7 C12_7 1_555 1_555
C13_7 C14_7 1_555 1_555
C18_7 C19_7 1_555 1_555
C20_7 C21_7 1_555 1_555
Ni9_2 O9_7 1_555 1_555
N2_7 C26_7 1_555 1_555
O24_2 C22_7 1_555 1_555
O9_7 C29_7 1_555 1_555
O25_3 C29_7 1_555 1_555
C22_7 O7_7 1_555 1_555
C23_7 C22_7 1_555 1_555
C24_7 C23_7 1_555 1_555
H13_7 C24_7 1_555 1_555
C25_7 C24_7 1_555 1_555
H14_7 C25_7 1_555 1_555
C26_7 C25_7 1_555 1_555
C27_7 C26_7 1_555 1_555
H15_7 C27_7 1_555 1_555
C28_7 C23_7 1_555 1_555
H16_7 C28_7 1_555 1_555
C29_7 C30_7 1_555 1_555
C30_7 C31_7 1_555 1_555
C31_7 H17_7 1_555 1_555
C32_7 C31_7 1_555 1_555
H18_7 C32_7 1_555 1_555
C33_7 N2_7 1_555 1_555
C34_7 C33_7 1_555 1_555
H19_7 C34_7 1_555 1_555
C35_7 C30_7 1_555 1_555
H20_7 C35_7 1_555 1_555
C40_7 N2_7 1_555 1_555
H25_7 O28_2 1_555 1_555
O18_7 Ni9_2 1_555 1_555
H33_7 O18_7 1_555 1_555
H34_7 O18_7 1_555 1_555
C27_7 C28_7 1_555 1_555
C32_7 C33_7 1_555 1_555
C34_7 C35_7 1_555 1_555
Ni6 O1_8 1_555 1_555
Ni7_4 O2_8 1_555 1_555
Ni12 O3_8 1_555 1_555
N1_8 C5_8 1_555 1_555
O1_8 C1_8 1_555 1_555
O2_8 C1_8 1_555 1_555
O3_8 C8_8 1_555 1_555
O20 C8_8 1_555 1_555
O21 C15_8 1_555 1_555
O22_4 C15_8 1_555 1_555
C1_8 C2_8 1_555 1_555
C2_8 C3_8 1_555 1_555
C3_8 H1_8 1_555 1_555
C4_8 C3_8 1_555 1_555
H2_8 C4_8 1_555 1_555
C5_8 C4_8 1_555 1_555
C6_8 C5_8 1_555 1_555
H3_8 C6_8 1_555 1_555
C7_8 C2_8 1_555 1_555
H4_8 C7_8 1_555 1_555
C8_8 C9_8 1_555 1_555
C9_8 C10_8 1_555 1_555
C10_8 H5_8 1_555 1_555
C11_8 C10_8 1_555 1_555
H6_8 C11_8 1_555 1_555
C12_8 N1_8 1_555 1_555
C13_8 C12_8 1_555 1_555
H7_8 C13_8 1_555 1_555
C14_8 C9_8 1_555 1_555
H8_8 C14_8 1_555 1_555
C15_8 C16_8 1_555 1_555
C16_8 C17_8 1_555 1_555
C17_8 H9_8 1_555 1_555
C18_8 C17_8 1_555 1_555
H10_8 C18_8 1_555 1_555
C19_8 N1_8 1_555 1_555
C20_8 C19_8 1_555 1_555
H11_8 C20_8 1_555 1_555
C21_8 C16_8 1_555 1_555
H12_8 C21_8 1_555 1_555
O15_8 Ni6 1_555 1_555
H27_8 O15_8 1_555 1_555
O16_6 Ni7_4 1_555 1_555
H29_6 O16_6 1_555 1_555
H30_6 O16_6 1_555 1_555
O17_8 Ni7_4 1_555 1_555
H31_8 O17_8 1_555 1_555
H32_8 O17_8 1_555 1_555
O19_6 Ni12 1_555 1_555
H35_6 O19_6 1_555 1_555
H36_6 O19_6 1_555 1_555
C6_8 C7_8 1_555 1_555
C11_8 C12_8 1_555 1_555
C13_8 C14_8 1_555 1_555
C18_8 C19_8 1_555 1_555
C20_8 C21_8 1_555 1_555
Ni10_2 O9_8 1_555 1_555
N2_8 C26_8 1_555 1_555
O24 C22_8 1_555 1_555
O9_8 C29_8 1_555 1_555
O25_4 C29_8 1_555 1_555
C22_8 O7_8 1_555 1_555
C23_8 C22_8 1_555 1_555
C24_8 C23_8 1_555 1_555
H13_8 C24_8 1_555 1_555
C25_8 C24_8 1_555 1_555
H14_8 C25_8 1_555 1_555
C26_8 C25_8 1_555 1_555
C27_8 C26_8 1_555 1_555
H15_8 C27_8 1_555 1_555
C28_8 C23_8 1_555 1_555
H16_8 C28_8 1_555 1_555
C29_8 C30_8 1_555 1_555
C30_8 C31_8 1_555 1_555
C31_8 H17_8 1_555 1_555
C32_8 C31_8 1_555 1_555
H18_8 C32_8 1_555 1_555
C33_8 N2_8 1_555 1_555
C34_8 C33_8 1_555 1_555
H19_8 C34_8 1_555 1_555
C35_8 C30_8 1_555 1_555
H20_8 C35_8 1_555 1_555
C40_8 N2_8 1_555 1_555
H25_8 O28 1_555 1_555
O18_8 Ni10_2 1_555 1_555
H33_8 O18_8 1_555 1_555
H34_8 O18_8 1_555 1_555
C27_8 C28_8 1_555 1_555
C32_8 C33_8 1_555 1_555
C34_8 C35_8 1_555 1_555
O11_8 C36_8 1_555 1_555
O26_3 C36_8 1_555 1_555
C36_8 C37_8 1_555 1_555
C37_8 C38_8 1_555 1_555
C38_8 H21_8 1_555 1_555
C39_8 C38_8 1_555 1_555
H23_8 C41_8 1_555 1_555
C42_8 C37_8 1_555 1_555
H24_8 C42_8 1_555 1_555
C41_8 C42_8 1_555 1_555
H29_7 O16_7 1_555 1_555
H30_7 O16_7 1_555 1_555
H35_7 O19_7 1_555 1_555
H36_7 O19_7 1_555 1_555
H29_8 O16_8 1_555 1_555
H30_8 O16_8 1_555 1_555
H35_8 O19_8 1_555 1_555
H36_8 O19_8 1_555 1_555

#END
