
###############################################################################
#
# This file contains modified crystal structure data generated from the
# MOF subset of the Cambridge Structural Database (CSD) v543 
# hosted by the Cambridge Crystallographic Data Centre (CCDC).
#
# This work is licensed under the Creative Commons
# Attribution-NonCommercial-ShareAlike 4.0 International License.
# To view a copy of this license, visit
# http://creativecommons.org/licenses/by-nc-sa/4.0/
# or send a letter to
# Creative Commons, PO Box 1866, Mountain View, CA 94042, USA.
#
# CIF created using the CSD Python API on 29 September 2022
# The structure has been converted into the P1 space group
# The structure has a 3D framework
# The original CSD entry NEBNOZ is in the triclinic crystal system
# The framework has been calculated to contain at least 10.0% void space
# The void calculation uses a probe of radius 1.32A, grid spacing 0.4
#
###############################################################################

data_NEBNOZ
_chemical_formula_moiety         '(C88 H56 N3 O14 Zn4)n'
_symmetry_cell_setting           triclinic
_symmetry_space_group_name_H-M   'P 1'
_symmetry_Int_Tables_number      1
_space_group_name_Hall           'P 1'
loop_
_symmetry_equiv_pos_site_id
_symmetry_equiv_pos_as_xyz
1 x,y,z
_cell_length_a                   13.0735(3)
_cell_length_b                   13.0828(3)
_cell_length_c                   15.6584(3)
_cell_angle_alpha                82.7410(10)
_cell_angle_beta                 68.0590(10)
_cell_angle_gamma                84.1880(10)
_cell_volume                     2460.03
loop_
_atom_site_label
_atom_site_type_symbol
_atom_site_fract_x
_atom_site_fract_y
_atom_site_fract_z
_atom_site_U_iso_or_equiv
_atom_site_thermal_displace_type
Zn12 Zn 0.03486(4) 0.69837(4) 0.62769(4) 0.0150 Uani
O4 O 0.0286(4) 0.5435(3) 0.6640(3) 0.0422 Uani
C25 C 0.0163(5) 0.2235(4) 0.6796(4) 0.0247 Uani
C26 C 0.0563(5) 0.1678(4) 0.6005(4) 0.0295 Uani
H18 H 0.0911 0.2031 0.5412 0.0360 Uiso
C27 C 0.0455(5) 0.0642(4) 0.6084(4) 0.0303 Uani
H19 H 0.0726 0.0281 0.5546 0.0370 Uiso
C31 C 0.0237(5) 0.3309(4) 0.6744(4) 0.0273 Uani
H22 H 0.0605 0.3676 0.6161 0.0330 Uiso
O2 O 0.0207(4) 0.8525(3) 0.6315(3) 0.0392 Uani
N2 N 0.1250(4) 0.6839(3) 0.4923(3) 0.0215 Uani
C11 C 0.1884(5) 0.7573(5) 0.4367(4) 0.0346 Uani
H9 H 0.1845 0.8221 0.4595 0.0410 Uiso
C12 C 0.2588(6) 0.7434(5) 0.3482(4) 0.0384 Uani
H10 H 0.3029 0.7978 0.3114 0.0460 Uiso
C13 C 0.2660(5) 0.6503(5) 0.3124(4) 0.0308 Uani
C14 C 0.1996(5) 0.5730(5) 0.3705(4) 0.0300 Uani
H11 H 0.2013 0.5077 0.3493 0.0360 Uiso
C15 C 0.1319(5) 0.5931(5) 0.4586(4) 0.0280 Uani
H12 H 0.0877 0.5399 0.4977 0.0340 Uiso
C16 C 0.3448(5) 0.6315(5) 0.2196(4) 0.0366 Uani
H13 H 0.4036 0.6763 0.1912 0.0440 Uiso
C17 C 0.3391(5) 0.5565(5) 0.1730(4) 0.0376 Uani
H14 H 0.2763 0.5162 0.1996 0.0450 Uiso
C18 C 0.5276(6) 0.5653(6) 0.0496(5) 0.0439 Uani
H15 H 0.5471 0.6103 0.0834 0.0530 Uiso
C19 C 0.4209(5) 0.5298(5) 0.0836(4) 0.0355 Uani
C20 C 0.3949(6) 0.4647(6) 0.0331(4) 0.0428 Uani
H16 H 0.3228 0.4399 0.0553 0.0510 Uiso
Zn7 Zn 0.92263(4) 0.69994(4) 0.83111(4) 0.0147 Uani
O15 O 0.7897(3) 0.7097(3) 0.7932(3) 0.0325 Uani
O17 O 0.8731(3) 0.7006(4) 0.6414(3) 0.0381 Uani
O19 O 0.0804(3) 0.6861(3) 0.8275(3) 0.0324 Uani
O21 O 0.1611(3) 0.6960(4) 0.6739(3) 0.0391 Uani
C77 C 0.7899(4) 0.7065(4) 0.7125(4) 0.0264 Uani
C78 C 0.6789(4) 0.7069(5) 0.7044(4) 0.0269 Uani
C79 C 0.6709(5) 0.7081(6) 0.6176(4) 0.0395 Uani
H51 H 0.7359 0.7096 0.5634 0.0470 Uiso
C80 C 0.5702(5) 0.7070(7) 0.6104(4) 0.0462 Uani
H52 H 0.5660 0.7098 0.5509 0.0550 Uiso
C81 C 0.4724(4) 0.7018(5) 0.6894(4) 0.0302 Uani
C82 C 0.4801(4) 0.6974(5) 0.7777(4) 0.0278 Uani
C83 C 0.5852(5) 0.7011(5) 0.7826(4) 0.0289 Uani
H53 H 0.5912 0.6996 0.8414 0.0350 Uiso
C84 C 0.3669(4) 0.7009(5) 0.6836(4) 0.0305 Uani
H54 H 0.3607 0.7066 0.6246 0.0370 Uiso
C85 C 0.2742(4) 0.6921(4) 0.7615(4) 0.0252 Uani
C86 C 0.2831(5) 0.6841(6) 0.8489(4) 0.0368 Uani
H55 H 0.2186 0.6765 0.9031 0.0440 Uiso
C87 C 0.3828(5) 0.6870(6) 0.8569(4) 0.0388 Uani
H56 H 0.3870 0.6820 0.9166 0.0470 Uiso
C88 C 0.1636(4) 0.6917(4) 0.7538(4) 0.0266 Uani
O3 O 0.9369(4) 0.5438(3) 0.8158(3) 0.0309 Uani
C22 C 0.9943(5) 0.0100(4) 0.6961(4) 0.0272 Uani
C23 C 0.9540(5) 0.0622(4) 0.7724(4) 0.0332 Uani
H17 H 0.9193 0.0254 0.8311 0.0400 Uiso
C24 C 0.9620(5) 0.1698(4) 0.7671(4) 0.0310 Uani
C28 C 0.9166(7) 0.2260(5) 0.8452(4) 0.0439 Uani
H20 H 0.8800 0.1905 0.9041 0.0530 Uiso
C29 C 0.9238(6) 0.3297(5) 0.8384(4) 0.0405 Uani
H21 H 0.8919 0.3659 0.8921 0.0490 Uiso
C30 C 0.9786(5) 0.3837(4) 0.7517(4) 0.0261 Uani
C32 C 0.9820(4) 0.4993(4) 0.7433(4) 0.0234 Uani
O1 O 0.9441(4) 0.8512(3) 0.7847(3) 0.0321 Uani
N1 N 0.8510(3) 0.6822(3) 0.9720(3) 0.0196 Uani
H1 H 0.7153 0.7718 0.9946 0.0440 Uiso
H4 H 0.9721 0.5840 0.9804 0.0470 Uiso
C21 C 0.9863(5) 0.8953(4) 0.7048(4) 0.0250 Uani
Zn11 Zn 0.96514(4) 0.30163(4) 0.37231(4) 0.0150 Uani
N5 N 0.8750(4) 0.3161(3) 0.5077(3) 0.0215 Uani
C55 C 0.8116(5) 0.2427(5) 0.5633(4) 0.0346 Uani
H37 H 0.8155 0.1779 0.5405 0.0410 Uiso
C56 C 0.7412(6) 0.2566(5) 0.6518(4) 0.0384 Uani
H38 H 0.6971 0.2022 0.6886 0.0460 Uiso
C57 C 0.7340(5) 0.3497(5) 0.6876(4) 0.0308 Uani
C58 C 0.8004(5) 0.4270(5) 0.6295(4) 0.0300 Uani
H39 H 0.7987 0.4923 0.6507 0.0360 Uiso
C59 C 0.8681(5) 0.4069(5) 0.5414(4) 0.0280 Uani
H40 H 0.9123 0.4601 0.5023 0.0340 Uiso
C60 C 0.6552(5) 0.3685(5) 0.7804(4) 0.0366 Uani
H41 H 0.5964 0.3237 0.8088 0.0440 Uiso
C61 C 0.6609(5) 0.4435(5) 0.8270(4) 0.0376 Uani
H42 H 0.7237 0.4838 0.8004 0.0450 Uiso
C62 C 0.4724(6) 0.4347(6) 0.9504(5) 0.0439 Uani
H43 H 0.4529 0.3897 0.9166 0.0530 Uiso
C63 C 0.5791(5) 0.4702(5) 0.9164(4) 0.0355 Uani
C64 C 0.6051(6) 0.5353(6) 0.9669(4) 0.0428 Uani
H44 H 0.6772 0.5601 0.9447 0.0510 Uiso
Zn6 Zn 0.07737(4) 0.30006(4) 0.16889(4) 0.0147 Uani
N3 N 0.1490(3) 0.3178(3) 0.0280(3) 0.0196 Uani
H29 H 0.2847 0.2282 0.0054 0.0440 Uiso
H32 H 0.0279 0.4160 0.0196 0.0470 Uiso
O9 O 0.0559(4) 0.1488(3) 0.2153(3) 0.0321 Uani
O12 O 0.0631(4) 0.4562(3) 0.1842(3) 0.0309 Uani
O16 O 0.2103(3) 0.2903(3) 0.2068(3) 0.0325 Uani
O18 O 0.1269(3) 0.2994(4) 0.3586(3) 0.0381 Uani
C65 C 0.0137(5) 0.1047(4) 0.2952(4) 0.0250 Uani
O7 O 0.9196(3) 0.3139(3) 0.1725(3) 0.0324 Uani
O8 O 0.8389(3) 0.3040(4) 0.3261(3) 0.0391 Uani
C33 C 0.2101(4) 0.2935(4) 0.2875(4) 0.0264 Uani
C34 C 0.3211(4) 0.2931(5) 0.2956(4) 0.0269 Uani
C35 C 0.3291(5) 0.2919(6) 0.3824(4) 0.0395 Uani
H23 H 0.2641 0.2904 0.4366 0.0470 Uiso
C36 C 0.4298(5) 0.2930(7) 0.3896(4) 0.0462 Uani
H24 H 0.4340 0.2902 0.4491 0.0550 Uiso
C37 C 0.5276(4) 0.2982(5) 0.3106(4) 0.0302 Uani
C38 C 0.5199(4) 0.3026(5) 0.2223(4) 0.0278 Uani
C39 C 0.4148(5) 0.2989(5) 0.2174(4) 0.0289 Uani
H25 H 0.4088 0.3004 0.1586 0.0350 Uiso
C40 C 0.6331(4) 0.2991(5) 0.3164(4) 0.0305 Uani
H26 H 0.6393 0.2934 0.3754 0.0370 Uiso
C41 C 0.7258(4) 0.3079(4) 0.2385(4) 0.0252 Uani
C42 C 0.7169(5) 0.3159(6) 0.1511(4) 0.0368 Uani
H27 H 0.7814 0.3235 0.0969 0.0440 Uiso
C43 C 0.6172(5) 0.3130(6) 0.1431(4) 0.0388 Uani
H28 H 0.6130 0.3180 0.0834 0.0470 Uiso
C44 C 0.8364(4) 0.3083(4) 0.2462(4) 0.0266 Uani
C66 C 0.0057(5) 0.9900(4) 0.3039(4) 0.0272 Uani
C67 C 0.0460(5) 0.9378(4) 0.2276(4) 0.0332 Uani
H45 H 0.0807 0.9746 0.1689 0.0400 Uiso
C68 C 0.0380(5) 0.8302(4) 0.2329(4) 0.0310 Uani
C72 C 0.0834(7) 0.7740(5) 0.1548(4) 0.0439 Uani
H48 H 0.1200 0.8095 0.0959 0.0530 Uiso
C73 C 0.0762(6) 0.6703(5) 0.1616(4) 0.0405 Uani
H49 H 0.1081 0.6341 0.1079 0.0490 Uiso
C74 C 0.0214(5) 0.6163(4) 0.2483(4) 0.0261 Uani
C76 C 0.0180(4) 0.5007(4) 0.2567(4) 0.0234 Uani
O10 O 0.9793(4) 0.1475(3) 0.3685(3) 0.0392 Uani
O14 O 0.9714(4) 0.4565(3) 0.3360(3) 0.0422 Uani
C69 C 0.9837(5) 0.7765(4) 0.3204(4) 0.0247 Uani
C70 C 0.9437(5) 0.8322(4) 0.3995(4) 0.0295 Uani
H46 H 0.9089 0.7969 0.4588 0.0360 Uiso
C71 C 0.9545(5) 0.9358(4) 0.3916(4) 0.0303 Uani
H47 H 0.9274 0.9719 0.4454 0.0370 Uiso
C75 C 0.9763(5) 0.6691(4) 0.3256(4) 0.0273 Uani
H50 H 0.9395 0.6324 0.3839 0.0330 Uiso
C1 C 0.7534(5) 0.7221(5) 0.0234(4) 0.0365 Uani
C2 C 0.7040(5) 0.6942(6) 0.1185(4) 0.0430 Uani
H2 H 0.6347 0.7260 0.1533 0.0510 Uiso
C3 C 0.7563(6) 0.6205(5) 0.1615(4) 0.0372 Uani
C4 C 0.8586(6) 0.5820(6) 0.1082(4) 0.0449 Uani
H3 H 0.8995 0.5337 0.1354 0.0540 Uiso
C5 C 0.9016(6) 0.6132(5) 0.0158(4) 0.0391 Uani
C6 C 0.7094(6) 0.5782(5) 0.2594(5) 0.0413 Uani
H5 H 0.7587 0.5410 0.2854 0.0500 Uiso
C7 C 0.6060(6) 0.5881(6) 0.3128(5) 0.0455 Uani
H6 H 0.5579 0.6287 0.2873 0.0550 Uiso
C8 C 0.4425(6) 0.5573(6) 0.4519(5) 0.0483 Uani
H7 H 0.4017 0.5969 0.4189 0.0580 Uiso
C9 C 0.5562(6) 0.5422(5) 0.4091(4) 0.0376 Uani
C10 C 0.6125(6) 0.4838(6) 0.4590(4) 0.0440 Uani
H8 H 0.6903 0.4718 0.4314 0.0530 Uiso
C45 C 0.2466(5) 0.2779(5) 0.9766(4) 0.0365 Uani
C46 C 0.2960(5) 0.3058(6) 0.8815(4) 0.0430 Uani
H30 H 0.3653 0.2740 0.8467 0.0510 Uiso
C47 C 0.2437(6) 0.3795(5) 0.8385(4) 0.0372 Uani
C48 C 0.1414(6) 0.4180(6) 0.8918(4) 0.0449 Uani
H31 H 0.1005 0.4663 0.8646 0.0540 Uiso
C49 C 0.0984(6) 0.3868(5) 0.9842(4) 0.0391 Uani
C50 C 0.2906(6) 0.4218(5) 0.7406(5) 0.0413 Uani
H33 H 0.2413 0.4590 0.7146 0.0500 Uiso
C51 C 0.3940(6) 0.4119(6) 0.6872(5) 0.0455 Uani
H34 H 0.4421 0.3713 0.7127 0.0550 Uiso
C52 C 0.5575(6) 0.4427(6) 0.5481(5) 0.0483 Uani
H35 H 0.5983 0.4031 0.5811 0.0580 Uiso
C53 C 0.4438(6) 0.4578(5) 0.5909(4) 0.0376 Uani
C54 C 0.3875(6) 0.5162(6) 0.5410(4) 0.0440 Uani
H36 H 0.3097 0.5282 0.5686 0.0530 Uiso
loop_
_atom_site_aniso_label
_atom_site_aniso_U_11
_atom_site_aniso_U_22
_atom_site_aniso_U_33
_atom_site_aniso_U_23
_atom_site_aniso_U_13
_atom_site_aniso_U_12
Zn12 0.0135 0.0155 0.0147 -0.0026 -0.003 -0.0015
O4 0.07 0.0151 0.029 -0.0002 -0.004 -0.004
C25 0.027 0.021 0.024 -0.003 -0.007 0
C26 0.035 0.025 0.022 -0.001 -0.003 -0.003
C27 0.039 0.024 0.026 -0.006 -0.008 -0.004
C31 0.035 0.02 0.023 0.002 -0.007 -0.003
O2 0.06 0.019 0.038 -0.0055 -0.016 -0.0039
N2 0.021 0.023 0.018 -0.0022 -0.004 -0.0018
C11 0.041 0.028 0.026 -0.005 0 -0.008
C12 0.046 0.032 0.025 -0.005 0.004 -0.012
C13 0.029 0.039 0.021 -0.008 -0.004 0
C14 0.034 0.029 0.024 -0.011 -0.004 -0.004
C15 0.031 0.031 0.02 -0.005 -0.005 -0.007
C16 0.037 0.041 0.024 -0.006 0 -0.007
C17 0.032 0.049 0.024 -0.011 0.001 -0.002
C18 0.042 0.055 0.028 -0.019 0.003 -0.016
C19 0.037 0.04 0.02 -0.009 0.003 -0.005
C20 0.036 0.058 0.027 -0.015 0.003 -0.013
Zn7 0.0134 0.0155 0.0138 -0.0008 -0.0034 -0.0019
O15 0.02 0.051 0.031 -0.0013 -0.0142 -0.0064
O17 0.017 0.065 0.035 -0.01 -0.0107 -0.0038
O19 0.0146 0.051 0.029 0.0032 -0.0064 -0.0054
O21 0.018 0.078 0.026 -0.011 -0.0117 -0.002
C77 0.017 0.02 0.045 0.001 -0.015 -0.004
C78 0.015 0.035 0.032 -0.003 -0.01 -0.002
C79 0.015 0.074 0.029 -0.011 -0.005 -0.005
C80 0.027 0.092 0.023 -0.013 -0.01 -0.006
C81 0.015 0.048 0.026 -0.006 -0.005 -0.002
C82 0.019 0.043 0.023 -0.001 -0.01 -0.002
C83 0.022 0.042 0.025 0 -0.012 -0.003
C84 0.017 0.052 0.024 -0.008 -0.008 -0.001
C85 0.018 0.034 0.027 -0.002 -0.012 -0.003
C86 0.018 0.064 0.024 0.005 -0.005 -0.004
C87 0.022 0.075 0.019 0.001 -0.008 -0.006
C88 0.012 0.027 0.038 0.001 -0.007 -0.002
O3 0.043 0.0157 0.029 -0.0053 -0.0061 -0.0025
C22 0.034 0.017 0.031 -0.001 -0.013 -0.001
C23 0.049 0.017 0.029 0.001 -0.009 -0.006
C24 0.044 0.018 0.027 -0.002 -0.008 -0.003
C28 0.074 0.024 0.022 -0.001 -0.003 -0.009
C29 0.066 0.023 0.023 -0.004 -0.004 -0.006
C30 0.036 0.013 0.028 -0.001 -0.01 -0.003
C32 0.024 0.016 0.031 -0.002 -0.011 -0.001
O1 0.043 0.0145 0.036 -0.0018 -0.011 -0.0033
N1 0.02 0.021 0.016 -0.0008 -0.0048 -0.0016
C21 0.027 0.015 0.035 -0.003 -0.014 0.001
Zn11 0.0135 0.0155 0.0147 -0.0026 -0.003 -0.0015
N5 0.021 0.023 0.018 -0.0022 -0.004 -0.0018
C55 0.041 0.028 0.026 -0.005 0 -0.008
C56 0.046 0.032 0.025 -0.005 0.004 -0.012
C57 0.029 0.039 0.021 -0.008 -0.004 0
C58 0.034 0.029 0.024 -0.011 -0.004 -0.004
C59 0.031 0.031 0.02 -0.005 -0.005 -0.007
C60 0.037 0.041 0.024 -0.006 0 -0.007
C61 0.032 0.049 0.024 -0.011 0.001 -0.002
C62 0.042 0.055 0.028 -0.019 0.003 -0.016
C63 0.037 0.04 0.02 -0.009 0.003 -0.005
C64 0.036 0.058 0.027 -0.015 0.003 -0.013
Zn6 0.0134 0.0155 0.0138 -0.0008 -0.0034 -0.0019
N3 0.02 0.021 0.016 -0.0008 -0.0048 -0.0016
O9 0.043 0.0145 0.036 -0.0018 -0.011 -0.0033
O12 0.043 0.0157 0.029 -0.0053 -0.0061 -0.0025
O16 0.02 0.051 0.031 -0.0013 -0.0142 -0.0064
O18 0.017 0.065 0.035 -0.01 -0.0107 -0.0038
C65 0.027 0.015 0.035 -0.003 -0.014 0.001
O7 0.0146 0.051 0.029 0.0032 -0.0064 -0.0054
O8 0.018 0.078 0.026 -0.011 -0.0117 -0.002
C33 0.017 0.02 0.045 0.001 -0.015 -0.004
C34 0.015 0.035 0.032 -0.003 -0.01 -0.002
C35 0.015 0.074 0.029 -0.011 -0.005 -0.005
C36 0.027 0.092 0.023 -0.013 -0.01 -0.006
C37 0.015 0.048 0.026 -0.006 -0.005 -0.002
C38 0.019 0.043 0.023 -0.001 -0.01 -0.002
C39 0.022 0.042 0.025 0 -0.012 -0.003
C40 0.017 0.052 0.024 -0.008 -0.008 -0.001
C41 0.018 0.034 0.027 -0.002 -0.012 -0.003
C42 0.018 0.064 0.024 0.005 -0.005 -0.004
C43 0.022 0.075 0.019 0.001 -0.008 -0.006
C44 0.012 0.027 0.038 0.001 -0.007 -0.002
C66 0.034 0.017 0.031 -0.001 -0.013 -0.001
C67 0.049 0.017 0.029 0.001 -0.009 -0.006
C68 0.044 0.018 0.027 -0.002 -0.008 -0.003
C72 0.074 0.024 0.022 -0.001 -0.003 -0.009
C73 0.066 0.023 0.023 -0.004 -0.004 -0.006
C74 0.036 0.013 0.028 -0.001 -0.01 -0.003
C76 0.024 0.016 0.031 -0.002 -0.011 -0.001
O10 0.06 0.019 0.038 -0.0055 -0.016 -0.0039
O14 0.07 0.0151 0.029 -0.0002 -0.004 -0.004
C69 0.027 0.021 0.024 -0.003 -0.007 0
C70 0.035 0.025 0.022 -0.001 -0.003 -0.003
C71 0.039 0.024 0.026 -0.006 -0.008 -0.004
C75 0.035 0.02 0.023 0.002 -0.007 -0.003
C1 0.032 0.049 0.022 -0.002 -0.006 0.01
C2 0.029 0.063 0.027 -0.015 0.004 0
C3 0.048 0.043 0.023 0 -0.013 -0.018
C4 0.061 0.044 0.025 0.004 -0.015 0.006
C5 0.046 0.041 0.025 0.001 -0.012 0.012
C6 0.047 0.044 0.03 0 -0.012 -0.002
C7 0.05 0.056 0.026 0.001 -0.01 -0.004
C8 0.05 0.057 0.03 0.006 -0.013 0.013
C9 0.042 0.045 0.017 0.001 -0.001 -0.007
C10 0.028 0.068 0.027 -0.006 -0.001 0.004
C45 0.032 0.049 0.022 -0.002 -0.006 0.01
C46 0.029 0.063 0.027 -0.015 0.004 0
C47 0.048 0.043 0.023 0 -0.013 -0.018
C48 0.061 0.044 0.025 0.004 -0.015 0.006
C49 0.046 0.041 0.025 0.001 -0.012 0.012
C50 0.047 0.044 0.03 0 -0.012 -0.002
C51 0.05 0.056 0.026 0.001 -0.01 -0.004
C52 0.05 0.057 0.03 0.006 -0.013 0.013
C53 0.042 0.045 0.017 0.001 -0.001 -0.007
C54 0.028 0.068 0.027 -0.006 -0.001 0.004
loop_
_geom_bond_atom_site_label_1
_geom_bond_atom_site_label_2
_geom_bond_site_symmetry_1
_geom_bond_site_symmetry_2
C26 C25 1_555 1_555
H18 C26 1_555 1_555
H19 C27 1_555 1_555
C31 C25 1_555 1_555
H22 C31 1_555 1_555
Zn12 O4 1_555 1_555
C26 C27 1_555 1_555
Zn12 O2 1_555 1_555
N2 Zn12 1_555 1_555
C11 N2 1_555 1_555
H9 C11 1_555 1_555
C12 C11 1_555 1_555
H10 C12 1_555 1_555
C13 C12 1_555 1_555
C14 C13 1_555 1_555
H11 C14 1_555 1_555
C15 N2 1_555 1_555
H12 C15 1_555 1_555
C16 C13 1_555 1_555
H13 C16 1_555 1_555
C17 C16 1_555 1_555
H14 C17 1_555 1_555
C18 H15 1_555 1_555
C19 C17 1_555 1_555
C20 C19 1_555 1_555
H16 C20 1_555 1_555
Zn7 O15 1_555 1_555
O15 C77 1_555 1_555
O17 C77 1_555 1_555
O21 Zn12 1_555 1_555
C77 C78 1_555 1_555
C78 C79 1_555 1_555
C79 H51 1_555 1_555
C80 C79 1_555 1_555
H52 C80 1_555 1_555
C81 C80 1_555 1_555
C82 C81 1_555 1_555
C83 C78 1_555 1_555
H53 C83 1_555 1_555
C84 C81 1_555 1_555
H54 C84 1_555 1_555
C85 C84 1_555 1_555
C86 C85 1_555 1_555
H55 C86 1_555 1_555
C87 C82 1_555 1_555
H56 C87 1_555 1_555
C88 O19 1_555 1_555
C14 C15 1_555 1_555
C18 C19 1_555 1_555
O21 C88 1_555 1_555
C82 C83 1_555 1_555
C85 C88 1_555 1_555
C86 C87 1_555 1_555
O3 C32 1_555 1_555
C22 C23 1_555 1_555
C23 H17 1_555 1_555
C24 C23 1_555 1_555
C28 C24 1_555 1_555
H20 C28 1_555 1_555
C29 C28 1_555 1_555
H21 C29 1_555 1_555
C30 C29 1_555 1_555
C32 C30 1_555 1_555
Zn7 O3 1_555 1_555
Zn7 O1 1_555 1_555
O1 C21 1_555 1_555
N1 Zn7 1_555 1_555
Zn11 N5 1_555 1_555
N5 C55 1_555 1_555
C55 H37 1_555 1_555
C56 C55 1_555 1_555
H38 C56 1_555 1_555
C57 C56 1_555 1_555
C58 C57 1_555 1_555
H39 C58 1_555 1_555
C59 N5 1_555 1_555
H40 C59 1_555 1_555
C60 C57 1_555 1_555
H41 C60 1_555 1_555
C61 C60 1_555 1_555
H42 C61 1_555 1_555
H43 C62 1_555 1_555
C63 C61 1_555 1_555
H44 C64 1_555 1_555
C58 C59 1_555 1_555
C62 C63 1_555 1_555
C63 C64 1_555 1_555
Zn6 N3 1_555 1_555
Zn6 O9 1_555 1_555
O9 C65 1_555 1_555
O12 Zn6 1_555 1_555
O16 Zn6 1_555 1_555
O7 C44 1_555 1_555
O8 C44 1_555 1_555
C33 O16 1_555 1_555
C34 C33 1_555 1_555
C35 C34 1_555 1_555
H23 C35 1_555 1_555
C36 C35 1_555 1_555
H24 C36 1_555 1_555
C37 C36 1_555 1_555
C38 C37 1_555 1_555
C39 C34 1_555 1_555
H25 C39 1_555 1_555
C40 C37 1_555 1_555
H26 C40 1_555 1_555
C41 C40 1_555 1_555
C42 C41 1_555 1_555
H27 C42 1_555 1_555
C43 C38 1_555 1_555
H28 C43 1_555 1_555
C44 C41 1_555 1_555
Zn11 O8 1_555 1_555
C66 C67 1_555 1_555
C67 H45 1_555 1_555
C68 C67 1_555 1_555
C72 C68 1_555 1_555
H48 C72 1_555 1_555
C73 C72 1_555 1_555
H49 C73 1_555 1_555
C74 C73 1_555 1_555
C76 O12 1_555 1_555
O18 C33 1_555 1_555
C38 C39 1_555 1_555
C42 C43 1_555 1_555
C74 C76 1_555 1_555
Zn11 O10 1_555 1_555
O14 Zn11 1_555 1_555
C70 C69 1_555 1_555
H46 C70 1_555 1_555
H47 C71 1_555 1_555
C75 C69 1_555 1_555
H50 C75 1_555 1_555
C70 C71 1_555 1_555
C2 C1 1_555 1_555
H2 C2 1_555 1_555
C3 C2 1_555 1_555
C4 C3 1_555 1_555
H3 C4 1_555 1_555
C6 C3 1_555 1_555
H5 C6 1_555 1_555
C7 C6 1_555 1_555
H6 C7 1_555 1_555
C8 H7 1_555 1_555
C9 C7 1_555 1_555
C10 C9 1_555 1_555
H8 C10 1_555 1_555
C46 C45 1_555 1_555
H30 C46 1_555 1_555
C47 C46 1_555 1_555
C48 C47 1_555 1_555
H31 C48 1_555 1_555
C50 C47 1_555 1_555
H33 C50 1_555 1_555
C51 C50 1_555 1_555
H34 C51 1_555 1_555
C52 C10 1_555 1_555
H35 C52 1_555 1_555
C53 C51 1_555 1_555
C54 C8 1_555 1_555
H36 C54 1_555 1_555
C4 C5 1_555 1_555
C8 C9 1_555 1_555
C48 C49 1_555 1_555
C52 C53 1_555 1_555
C53 C54 1_555 1_555

#END
