
###############################################################################
#
# This file contains modified crystal structure data generated from the
# MOF subset of the Cambridge Structural Database (CSD) v543 
# hosted by the Cambridge Crystallographic Data Centre (CCDC).
#
# This work is licensed under the Creative Commons
# Attribution-NonCommercial-ShareAlike 4.0 International License.
# To view a copy of this license, visit
# http://creativecommons.org/licenses/by-nc-sa/4.0/
# or send a letter to
# Creative Commons, PO Box 1866, Mountain View, CA 94042, USA.
#
# CIF created using the CSD Python API on 29 September 2022
# The structure has been converted into the P1 space group
# The structure has a 3D framework
# The original CSD entry NEBRAQ is in the monoclinic crystal system
# The framework has been calculated to contain at least 10.0% void space
# The void calculation uses a probe of radius 1.32A, grid spacing 0.4
#
###############################################################################

data_NEBRAQ
_chemical_formula_moiety         '(C264 H152 Cd14 N24 O56)n'
_symmetry_cell_setting           triclinic
_symmetry_space_group_name_H-M   'P 1'
_symmetry_Int_Tables_number      1
_space_group_name_Hall           'P 1'
loop_
_symmetry_equiv_pos_site_id
_symmetry_equiv_pos_as_xyz
1 x,y,z
_cell_length_a                   16.6222(4)
_cell_length_b                   22.5784(5)
_cell_length_c                   17.8564(4)
_cell_angle_alpha                90
_cell_angle_beta                 90.3922(7)
_cell_angle_gamma                90
_cell_volume                     6701.4
loop_
_atom_site_label
_atom_site_type_symbol
_atom_site_fract_x
_atom_site_fract_y
_atom_site_fract_z
H35 H 0.0027 0.3025 0.5943
H18 H 0.2512 0.1070 0.0219
H19 H 0.1277 0.1510 0.0282
O10 O 0.7115(2) 0.17511(16) 0.15539(19)
O11 O 0.7207(2) 0.26752(17) 0.19175(18)
O13 O 0.7695(3) 0.5869(2) 0.1851(2)
O14 O 0.6443(2) 0.61588(13) 0.18676(18)
C43 C 0.64887(17) 0.30984(10) 0.06334(11)
H24 H 0.6563 0.3355 0.1035
C44 C 0.66587(16) 0.24990(11) 0.07157(11)
C45 C 0.65473(17) 0.21150(8) 0.01155(14)
H25 H 0.6661 0.1714 0.0171
C47 C 0.7008(3) 0.2295(2) 0.1448(2)
C48 C 0.6288(2) 0.43214(11) 0.03167(17)
C49 C 0.57102(16) 0.47172(13) 0.05707(17)
H27 H 0.5171 0.4661 0.0446
C50 C 0.59376(17) 0.51971(12) 0.10112(17)
H28 H 0.5551 0.5462 0.1181
C51 C 0.67427(19) 0.52814(12) 0.11978(16)
C52 C 0.73204(15) 0.48857(15) 0.0944(2)
H29 H 0.7859 0.4942 0.1069
C53 C 0.70930(19) 0.44057(14) 0.0503(2)
H30 H 0.7480 0.4141 0.0333
C54 C 0.6982(4) 0.5799(2) 0.1677(3)
Cd5 Cd 0.5000 0.61135(2) 0.2500
Cd6 Cd 0.71923(2) 0.69140(2) 0.23169(2)
Cd9 Cd 0.78077(2) 0.19140(2) 0.26831(2)
Cd1 Cd 0.5000 0.38865(2) 0.7500
Cd2 Cd 0.28077(2) 0.30860(2) 0.76831(2)
O1 O 0.4788(2) 0.35152(15) 0.63756(17)
O2 O 0.3980(2) 0.29397(18) 0.69833(16)
O3 O 0.2885(2) 0.17511(16) 0.34461(19)
O4 O 0.2793(2) 0.26752(17) 0.30825(18)
O5 O 0.3991(3) 0.38929(14) 0.5158(2)
O6 O 0.2305(3) 0.5869(2) 0.3149(2)
O7 O 0.3557(2) 0.61588(13) 0.31324(18)
C1 C 0.4239(2) 0.31468(17) 0.6392(2)
C2 C 0.39040(16) 0.29296(10) 0.56492(10)
C3 C 0.37926(17) 0.33137(8) 0.50490(12)
C4 C 0.35113(17) 0.30984(10) 0.43666(11)
H1 H 0.3437 0.3355 0.3965
C5 C 0.33413(16) 0.24990(11) 0.42843(11)
C6 C 0.34527(17) 0.21150(8) 0.48845(14)
H2 H 0.3339 0.1714 0.4829
C7 C 0.37340(16) 0.23302(9) 0.55669(11)
H3 H 0.3809 0.2073 0.5968
C8 C 0.2992(3) 0.2295(2) 0.3552(2)
C9 C 0.3712(2) 0.43214(11) 0.46833(17)
C10 C 0.42898(16) 0.47172(13) 0.44293(17)
H4 H 0.4829 0.4661 0.4554
C11 C 0.40624(17) 0.51971(12) 0.39888(17)
H5 H 0.4449 0.5462 0.3819
C12 C 0.32573(19) 0.52814(12) 0.38022(16)
C13 C 0.26796(15) 0.48857(15) 0.4056(2)
H6 H 0.2141 0.4942 0.3931
C14 C 0.29070(19) 0.44057(14) 0.4497(2)
H7 H 0.2520 0.4141 0.4667
C15 C 0.3018(4) 0.5799(2) 0.3323(3)
N1 N 0.43112(17) 0.47460(11) 0.70991(16)
C16 C 0.35758(19) 0.47323(14) 0.67243(19)
H8 H 0.3351 0.4371 0.6584
C17 C 0.31766(18) 0.52577(18) 0.6559(3)
H9 H 0.2685 0.5249 0.6308
C18 C 0.3513(2) 0.57970(15) 0.6769(3)
H10 H 0.3246 0.6149 0.6658
C19 C 0.4248(2) 0.58108(11) 0.7143(2)
C20 C 0.46476(15) 0.52853(13) 0.73087(16)
C21 C 0.4611(3) 0.6352(2) 0.7362(4)
H11 H 0.4327 0.6706 0.7319
N2 N 0.3310(2) 0.23437(12) 0.84556(14)
C22 C 0.40770(19) 0.21014(18) 0.8413(2)
H12 H 0.4450 0.2259 0.8082
C23 C 0.4287(2) 0.16235(17) 0.8864(3)
H13 H 0.4800 0.1461 0.8835
C24 C 0.3730(3) 0.13880(15) 0.9359(2)
H14 H 0.3870 0.1068 0.9661
C25 C 0.2963(3) 0.16303(17) 0.94019(18)
C26 C 0.27528(19) 0.21081(14) 0.89503(14)
N3 N 0.1819(2) 0.28200(16) 0.85329(17)
C27 C 0.1058(2) 0.30747(18) 0.8555(2)
H15 H 0.0935 0.3392 0.8243
C28 C 0.0483(2) 0.2854(2) 0.9042(3)
C29 C 0.0668(3) 0.2379(2) 0.9508(3)
H17 H 0.0282 0.2232 0.9834
C30 C 0.1428(3) 0.21248(19) 0.9486(2)
C31 C 0.2004(2) 0.23451(17) 0.8998(2)
C32 C 0.2386(5) 0.1392(3) 0.9915(3)
C33 C 0.1650(5) 0.1654(3) 0.9941(4)
N4 N 0.56888(17) 0.47460(11) 0.79009(16)
C34 C 0.64242(19) 0.47323(14) 0.82757(19)
H20 H 0.6649 0.4371 0.8416
C35 C 0.68234(18) 0.52577(18) 0.8441(3)
H21 H 0.7315 0.5249 0.8692
C36 C 0.6487(2) 0.57970(15) 0.8231(3)
H22 H 0.6754 0.6149 0.8342
C37 C 0.5752(2) 0.58108(11) 0.7857(2)
C38 C 0.53524(15) 0.52853(13) 0.76913(16)
C39 C 0.5389(3) 0.6352(2) 0.7638(4)
H23 H 0.5673 0.6706 0.7681
Cd3 Cd 0.71923(2) 0.30860(2) 0.73169(2)
O8 O 0.5212(2) 0.35152(15) 0.86244(17)
O9 O 0.6020(2) 0.29397(18) 0.80167(16)
O12 O 0.6009(3) 0.38929(14) 0.9842(2)
C40 C 0.5761(2) 0.31468(17) 0.8608(2)
C41 C 0.60960(16) 0.29296(10) 0.93508(10)
C42 C 0.62074(17) 0.33137(8) 0.99510(12)
C46 C 0.62660(16) 0.23302(9) 0.94331(11)
H26 H 0.6191 0.2073 0.9032
N5 N 0.6690(2) 0.23437(12) 0.65444(14)
C55 C 0.59230(19) 0.21014(18) 0.6587(2)
H31 H 0.5550 0.2259 0.6918
C56 C 0.5713(2) 0.16235(17) 0.6136(3)
H32 H 0.5200 0.1461 0.6165
C57 C 0.6270(3) 0.13880(15) 0.5641(2)
H33 H 0.6130 0.1068 0.5339
C58 C 0.7037(3) 0.16303(17) 0.55981(18)
C59 C 0.72472(19) 0.21081(14) 0.60497(14)
N6 N 0.8181(2) 0.28200(16) 0.64671(17)
C60 C 0.8942(2) 0.30747(18) 0.6445(2)
H34 H 0.9065 0.3392 0.6757
C61 C 0.9517(2) 0.2854(2) 0.5958(3)
C62 C 0.9332(3) 0.2379(2) 0.5492(3)
H36 H 0.9718 0.2232 0.5166
C63 C 0.8572(3) 0.21248(19) 0.5514(2)
C64 C 0.7996(2) 0.23451(17) 0.6002(2)
C65 C 0.7614(5) 0.1392(3) 0.5085(3)
H37 H 0.7488 0.1070 0.4781
C66 C 0.8350(5) 0.1654(3) 0.5059(4)
H38 H 0.8723 0.1510 0.4718
Cd7 Cd 0.28077(2) 0.69140(2) 0.26831(2)
Cd8 Cd 0.21923(2) 0.19140(2) 0.23169(2)
O15 O 0.2115(2) 0.32489(16) 0.65539(19)
O16 O 0.7885(2) 0.32489(16) 0.84461(19)
O17 O 0.2207(2) 0.23248(17) 0.69175(18)
O18 O 0.7793(2) 0.23248(17) 0.80825(18)
O19 O 0.7695(3) 0.4131(2) 0.6851(2)
O20 O 0.2305(3) 0.4131(2) 0.8149(2)
O21 O 0.6443(2) 0.38412(13) 0.68676(18)
O22 O 0.3557(2) 0.38412(13) 0.81324(18)
O13_2 O 0.2695(3) 0.0869(2) 0.1851(2)
O14_2 O 0.1443(2) 0.11588(13) 0.18676(18)
C50_2 C 0.09376(17) 0.01971(12) 0.10112(17)
H28_2 H 0.0551 0.0462 0.1181
C51_2 C 0.17427(19) 0.02814(12) 0.11978(16)
C54_2 C 0.1982(4) 0.0799(2) 0.1677(3)
Cd5_2 Cd -0.0000 0.11135(2) 0.2500
C35_2 C 0.18234(18) 0.02577(18) 0.8441(3)
H21_2 H 0.2315 0.0249 0.8692
C36_2 C 0.1487(2) 0.07970(15) 0.8231(3)
H22_2 H 0.1754 0.1149 0.8342
C37_2 C 0.0752(2) 0.08108(11) 0.7857(2)
C38_2 C 0.03524(15) 0.02853(13) 0.76913(16)
C39_2 C 0.0389(3) 0.1352(2) 0.7638(4)
H23_2 H 0.0673 0.1706 0.7681
O10_2 O 0.2115(2) 0.67511(16) 0.15539(19)
O11_2 O 0.2207(2) 0.76752(17) 0.19175(18)
C43_2 C 0.14887(17) 0.80984(10) 0.06334(11)
H24_2 H 0.1563 0.8355 0.1035
C44_2 C 0.16587(16) 0.74990(11) 0.07157(11)
C45_2 C 0.15473(17) 0.71150(8) 0.01155(14)
H25_2 H 0.1661 0.6714 0.0171
C47_2 C 0.2008(3) 0.7295(2) 0.1448(2)
C48_2 C 0.1288(2) 0.93214(11) 0.03167(17)
C49_2 C 0.07102(16) 0.97172(13) 0.05707(17)
H27_2 H 0.0171 0.9661 0.0446
C52_2 C 0.23204(15) 0.98857(15) 0.0944(2)
H29_2 H 0.2859 0.9942 0.1069
C53_2 C 0.20930(19) 0.94057(14) 0.0503(2)
H30_2 H 0.2480 0.9141 0.0333
Cd1_2 Cd -0.0000 0.88865(2) 0.7500
N4_2 N 0.06888(17) 0.97460(11) 0.79009(16)
C34_2 C 0.14242(19) 0.97323(14) 0.82757(19)
H20_2 H 0.1649 0.9371 0.8416
Cd3_2 Cd 0.21923(2) 0.80860(2) 0.73169(2)
O8_2 O 0.0212(2) 0.85152(15) 0.86244(17)
O9_2 O 0.1020(2) 0.79397(18) 0.80167(16)
O12_2 O 0.1009(3) 0.88929(14) 0.9842(2)
C40_2 C 0.0761(2) 0.81468(17) 0.8608(2)
C41_2 C 0.10960(16) 0.79296(10) 0.93508(10)
C42_2 C 0.12074(17) 0.83137(8) 0.99510(12)
C46_2 C 0.12660(16) 0.73302(9) 0.94331(11)
H26_2 H 0.1191 0.7073 0.9032
N5_2 N 0.1690(2) 0.73437(12) 0.65444(14)
C55_2 C 0.09230(19) 0.71014(18) 0.6587(2)
H31_2 H 0.0550 0.7259 0.6918
C56_2 C 0.0713(2) 0.66235(17) 0.6136(3)
H32_2 H 0.0200 0.6461 0.6165
C57_2 C 0.1270(3) 0.63880(15) 0.5641(2)
H33_2 H 0.1130 0.6068 0.5339
C58_2 C 0.2037(3) 0.66303(17) 0.55981(18)
C59_2 C 0.22472(19) 0.71081(14) 0.60497(14)
N6_2 N 0.3181(2) 0.78200(16) 0.64671(17)
C60_2 C 0.3942(2) 0.80747(18) 0.6445(2)
H34_2 H 0.4065 0.8392 0.6757
C61_2 C 0.4517(2) 0.7854(2) 0.5958(3)
H35_2 H 0.5027 0.8025 0.5943
C62_2 C 0.4332(3) 0.7379(2) 0.5492(3)
H36_2 H 0.4718 0.7232 0.5166
C63_2 C 0.3572(3) 0.71248(19) 0.5514(2)
C64_2 C 0.2996(2) 0.73451(17) 0.6002(2)
C65_2 C 0.2614(5) 0.6392(3) 0.5085(3)
H37_2 H 0.2488 0.6070 0.4781
C66_2 C 0.3350(5) 0.6654(3) 0.5059(4)
H38_2 H 0.3723 0.6510 0.4718
O16_2 O 0.2885(2) 0.82489(16) 0.84461(19)
O18_2 O 0.2793(2) 0.73248(17) 0.80825(18)
O19_2 O 0.2695(3) 0.9131(2) 0.6851(2)
O21_2 O 0.1443(2) 0.88412(13) 0.68676(18)
Cd5_3 Cd 1.0000 0.11135(2) 0.2500
O6_2 O 0.7305(3) 0.0869(2) 0.3149(2)
O7_2 O 0.8557(2) 0.11588(13) 0.31324(18)
C11_2 C 0.90624(17) 0.01971(12) 0.39888(17)
H5_2 H 0.9449 0.0462 0.3819
C12_2 C 0.82573(19) 0.02814(12) 0.38022(16)
C15_2 C 0.8018(4) 0.0799(2) 0.3323(3)
C17_2 C 0.81766(18) 0.02577(18) 0.6559(3)
H9_2 H 0.7685 0.0249 0.6308
C18_2 C 0.8513(2) 0.07970(15) 0.6769(3)
H10_2 H 0.8246 0.1149 0.6658
C19_2 C 0.9248(2) 0.08108(11) 0.7143(2)
C20_2 C 0.96476(15) 0.02853(13) 0.73087(16)
C21_2 C 0.9611(3) 0.1352(2) 0.7362(4)
H11_2 H 0.9327 0.1706 0.7319
Cd1_3 Cd 1.0000 0.88865(2) 0.7500
Cd2_2 Cd 0.78077(2) 0.80860(2) 0.76831(2)
O1_2 O 0.9788(2) 0.85152(15) 0.63756(17)
O2_2 O 0.8980(2) 0.79397(18) 0.69833(16)
O3_2 O 0.7885(2) 0.67511(16) 0.34461(19)
O4_2 O 0.7793(2) 0.76752(17) 0.30825(18)
O5_2 O 0.8991(3) 0.88929(14) 0.5158(2)
C1_2 C 0.9239(2) 0.81468(17) 0.6392(2)
C2_2 C 0.89040(16) 0.79296(10) 0.56492(10)
C3_2 C 0.87926(17) 0.83137(8) 0.50490(12)
C4_2 C 0.85113(17) 0.80984(10) 0.43666(11)
H1_2 H 0.8437 0.8355 0.3965
C5_2 C 0.83413(16) 0.74990(11) 0.42843(11)
C6_2 C 0.84527(17) 0.71150(8) 0.48845(14)
H2_2 H 0.8339 0.6714 0.4829
C7_2 C 0.87340(16) 0.73302(9) 0.55669(11)
H3_2 H 0.8809 0.7073 0.5968
C8_2 C 0.7992(3) 0.7295(2) 0.3552(2)
C9_2 C 0.8712(2) 0.93214(11) 0.46833(17)
C10_2 C 0.92898(16) 0.97172(13) 0.44293(17)
H4_2 H 0.9829 0.9661 0.4554
C13_2 C 0.76796(15) 0.98857(15) 0.4056(2)
H6_2 H 0.7141 0.9942 0.3931
C14_2 C 0.79070(19) 0.94057(14) 0.4497(2)
H7_2 H 0.7520 0.9141 0.4667
N1_2 N 0.93112(17) 0.97460(11) 0.70991(16)
C16_2 C 0.85758(19) 0.97323(14) 0.67243(19)
H8_2 H 0.8351 0.9371 0.6584
N2_2 N 0.8310(2) 0.73437(12) 0.84556(14)
C22_2 C 0.90770(19) 0.71014(18) 0.8413(2)
H12_2 H 0.9450 0.7259 0.8082
C23_2 C 0.9287(2) 0.66235(17) 0.8864(3)
H13_2 H 0.9800 0.6461 0.8835
C24_2 C 0.8730(3) 0.63880(15) 0.9359(2)
H14_2 H 0.8870 0.6068 0.9661
C25_2 C 0.7963(3) 0.66303(17) 0.94019(18)
C26_2 C 0.77528(19) 0.71081(14) 0.89503(14)
N3_2 N 0.6819(2) 0.78200(16) 0.85329(17)
C27_2 C 0.6058(2) 0.80747(18) 0.8555(2)
H15_2 H 0.5935 0.8392 0.8243
C28_2 C 0.5483(2) 0.7854(2) 0.9042(3)
H16 H 0.4973 0.8025 0.9057
C29_2 C 0.5668(3) 0.7379(2) 0.9508(3)
H17_2 H 0.5282 0.7232 0.9834
C30_2 C 0.6428(3) 0.71248(19) 0.9486(2)
C31_2 C 0.7004(2) 0.73451(17) 0.8998(2)
C32_2 C 0.7386(5) 0.6392(3) 0.9915(3)
C33_2 C 0.6650(5) 0.6654(3) 0.9941(4)
O15_2 O 0.7115(2) 0.82489(16) 0.65539(19)
O17_2 O 0.7207(2) 0.73248(17) 0.69175(18)
O20_2 O 0.7305(3) 0.9131(2) 0.8149(2)
O22_2 O 0.8557(2) 0.88412(13) 0.81324(18)
O1_3 O 0.5212(2) 0.64848(15) 0.36244(17)
O2_3 O 0.6020(2) 0.70603(18) 0.30167(16)
O5_3 O 0.6009(3) 0.61071(14) 0.4842(2)
C1_3 C 0.5761(2) 0.68532(17) 0.3608(2)
C2_3 C 0.60960(16) 0.70704(10) 0.43508(10)
C3_3 C 0.62074(17) 0.66863(8) 0.49510(12)
C4_3 C 0.64887(17) 0.69016(10) 0.56334(11)
H1_3 H 0.6563 0.6645 0.6035
C5_3 C 0.66587(16) 0.75010(11) 0.57157(11)
C6_3 C 0.65473(17) 0.78850(8) 0.51155(14)
H2_3 H 0.6661 0.8286 0.5171
C7_3 C 0.62660(16) 0.76698(9) 0.44331(11)
H3_3 H 0.6191 0.7927 0.4032
C8_3 C 0.7008(3) 0.7705(2) 0.6448(2)
C9_3 C 0.6288(2) 0.56786(11) 0.53167(17)
C10_3 C 0.57102(16) 0.52828(13) 0.55707(17)
H4_3 H 0.5171 0.5339 0.5446
C11_3 C 0.59376(17) 0.48029(12) 0.60112(17)
H5_3 H 0.5551 0.4538 0.6181
C12_3 C 0.67427(19) 0.47186(12) 0.61978(16)
C13_3 C 0.73204(15) 0.51143(15) 0.5944(2)
H6_3 H 0.7859 0.5058 0.6069
C14_3 C 0.70930(19) 0.55943(14) 0.5503(2)
H7_3 H 0.7480 0.5859 0.5333
C15_3 C 0.6982(4) 0.4201(2) 0.6677(3)
N1_3 N 0.56888(17) 0.52540(11) 0.29009(16)
C16_3 C 0.64242(19) 0.52677(14) 0.32757(19)
H8_3 H 0.6649 0.5629 0.3416
C17_3 C 0.68234(18) 0.47423(18) 0.3441(3)
H9_3 H 0.7315 0.4751 0.3692
C18_3 C 0.6487(2) 0.42030(15) 0.3231(3)
H10_3 H 0.6754 0.3851 0.3342
C19_3 C 0.5752(2) 0.41892(11) 0.2857(2)
C20_3 C 0.53524(15) 0.47147(13) 0.26913(16)
C21_3 C 0.5389(3) 0.3648(2) 0.2638(4)
H11_3 H 0.5673 0.3294 0.2681
N2_3 N 0.6690(2) 0.76563(12) 0.15444(14)
C22_3 C 0.59230(19) 0.78986(18) 0.1587(2)
H12_3 H 0.5550 0.7741 0.1918
C23_3 C 0.5713(2) 0.83765(17) 0.1136(3)
H13_3 H 0.5200 0.8539 0.1165
C24_3 C 0.6270(3) 0.86120(15) 0.0641(2)
H14_3 H 0.6130 0.8932 0.0339
C25_3 C 0.7037(3) 0.83697(17) 0.05981(18)
C26_3 C 0.72472(19) 0.78919(14) 0.10497(14)
N3_3 N 0.8181(2) 0.71800(16) 0.14671(17)
C27_3 C 0.8942(2) 0.69253(18) 0.1445(2)
H15_3 H 0.9065 0.6608 0.1757
C28_3 C 0.9517(2) 0.7146(2) 0.0958(3)
C29_3 C 0.9332(3) 0.7621(2) 0.0492(3)
H17_3 H 0.9718 0.7768 0.0166
C30_3 C 0.8572(3) 0.78752(19) 0.0514(2)
C31_3 C 0.7996(2) 0.76549(17) 0.1002(2)
C32_3 C 0.7614(5) 0.8608(3) 0.0085(3)
C33_3 C 0.8350(5) 0.8346(3) 0.0059(4)
N4_3 N 0.43112(17) 0.52540(11) 0.20991(16)
C34_3 C 0.35758(19) 0.52677(14) 0.17243(19)
H20_3 H 0.3351 0.5629 0.1584
C35_3 C 0.31766(18) 0.47423(18) 0.1559(3)
H21_3 H 0.2685 0.4751 0.1308
C36_3 C 0.3513(2) 0.42030(15) 0.1769(3)
H22_3 H 0.3246 0.3851 0.1658
C37_3 C 0.4248(2) 0.41892(11) 0.2143(2)
C38_3 C 0.46476(15) 0.47147(13) 0.23087(16)
C39_3 C 0.4611(3) 0.3648(2) 0.2362(4)
H23_3 H 0.4327 0.3294 0.2319
O8_3 O 0.4788(2) 0.64848(15) 0.13756(17)
O9_3 O 0.3980(2) 0.70603(18) 0.19833(16)
O12_3 O 0.3991(3) 0.61071(14) 0.0158(2)
C40_3 C 0.4239(2) 0.68532(17) 0.1392(2)
C41_3 C 0.39040(16) 0.70704(10) 0.06492(10)
C42_3 C 0.37926(17) 0.66863(8) 0.00490(12)
C46_3 C 0.37340(16) 0.76698(9) 0.05669(11)
H26_3 H 0.3809 0.7927 0.0968
N5_3 N 0.3310(2) 0.76563(12) 0.34556(14)
C55_3 C 0.40770(19) 0.78986(18) 0.3413(2)
H31_3 H 0.4450 0.7741 0.3082
C56_3 C 0.4287(2) 0.83765(17) 0.3864(3)
H32_3 H 0.4800 0.8539 0.3835
C57_3 C 0.3730(3) 0.86120(15) 0.4359(2)
H33_3 H 0.3870 0.8932 0.4661
C58_3 C 0.2963(3) 0.83697(17) 0.44019(18)
C59_3 C 0.27528(19) 0.78919(14) 0.39503(14)
N6_3 N 0.1819(2) 0.71800(16) 0.35329(17)
C60_3 C 0.1058(2) 0.69253(18) 0.3555(2)
H34_3 H 0.0935 0.6608 0.3243
C61_3 C 0.0483(2) 0.7146(2) 0.4042(3)
C62_3 C 0.0668(3) 0.7621(2) 0.4508(3)
H36_3 H 0.0282 0.7768 0.4834
C63_3 C 0.1428(3) 0.78752(19) 0.4486(2)
C64_3 C 0.2004(2) 0.76549(17) 0.3998(2)
C65_3 C 0.2386(5) 0.8608(3) 0.4915(3)
H37_3 H 0.2512 0.8930 0.5219
C66_3 C 0.1650(5) 0.8346(3) 0.4941(4)
H38_3 H 0.1277 0.8490 0.5282
H18_2 H 0.7488 0.8930 0.9781
H19_2 H 0.8723 0.8490 0.9718
C43_3 C 0.35113(17) 0.69016(10) 0.93666(11)
H24_3 H 0.3437 0.6645 0.8965
C44_3 C 0.33413(16) 0.75010(11) 0.92843(11)
C45_3 C 0.34527(17) 0.78850(8) 0.98845(14)
H25_3 H 0.3339 0.8286 0.9829
C47_3 C 0.2992(3) 0.7705(2) 0.8552(2)
C48_3 C 0.3712(2) 0.56786(11) 0.96833(17)
C49_3 C 0.42898(16) 0.52828(13) 0.94293(17)
H27_3 H 0.4829 0.5339 0.9554
C50_3 C 0.40624(17) 0.48029(12) 0.89888(17)
H28_3 H 0.4449 0.4538 0.8819
C51_3 C 0.32573(19) 0.47186(12) 0.88022(16)
C52_3 C 0.26796(15) 0.51143(15) 0.9056(2)
H29_3 H 0.2141 0.5058 0.8931
C53_3 C 0.29070(19) 0.55943(14) 0.9497(2)
H30_3 H 0.2520 0.5859 0.9667
C54_3 C 0.3018(4) 0.4201(2) 0.8323(3)
O1_4 O 0.0212(2) 0.14848(15) 0.36244(17)
O2_4 O 0.1020(2) 0.20603(18) 0.30167(16)
O5_4 O 0.1009(3) 0.11071(14) 0.4842(2)
C1_4 C 0.0761(2) 0.18532(17) 0.3608(2)
C2_4 C 0.10960(16) 0.20704(10) 0.43508(10)
C3_4 C 0.12074(17) 0.16863(8) 0.49510(12)
C4_4 C 0.14887(17) 0.19016(10) 0.56334(11)
H1_4 H 0.1563 0.1645 0.6035
C5_4 C 0.16587(16) 0.25010(11) 0.57157(11)
C6_4 C 0.15473(17) 0.28850(8) 0.51155(14)
H2_4 H 0.1661 0.3286 0.5171
C7_4 C 0.12660(16) 0.26698(9) 0.44331(11)
H3_4 H 0.1191 0.2927 0.4032
C8_4 C 0.2008(3) 0.2705(2) 0.6448(2)
C9_4 C 0.1288(2) 0.06786(11) 0.53167(17)
C10_4 C 0.07102(16) 0.02828(13) 0.55707(17)
H4_4 H 0.0171 0.0339 0.5446
C13_4 C 0.23204(15) 0.01143(15) 0.5944(2)
H6_4 H 0.2859 0.0058 0.6069
C14_4 C 0.20930(19) 0.05943(14) 0.5503(2)
H7_4 H 0.2480 0.0859 0.5333
N1_4 N 0.06888(17) 0.02540(11) 0.29009(16)
C16_4 C 0.14242(19) 0.02677(14) 0.32757(19)
H8_4 H 0.1649 0.0629 0.3416
N2_4 N 0.1690(2) 0.26563(12) 0.15444(14)
C22_4 C 0.09230(19) 0.28986(18) 0.1587(2)
H12_4 H 0.0550 0.2741 0.1918
C23_4 C 0.0713(2) 0.33765(17) 0.1136(3)
H13_4 H 0.0200 0.3539 0.1165
C24_4 C 0.1270(3) 0.36120(15) 0.0641(2)
H14_4 H 0.1130 0.3932 0.0339
C25_4 C 0.2037(3) 0.33697(17) 0.05981(18)
C26_4 C 0.22472(19) 0.28919(14) 0.10497(14)
N3_4 N 0.3181(2) 0.21800(16) 0.14671(17)
C27_4 C 0.3942(2) 0.19253(18) 0.1445(2)
H15_4 H 0.4065 0.1608 0.1757
C28_4 C 0.4517(2) 0.2146(2) 0.0958(3)
H16_2 H 0.5027 0.1975 0.0943
C29_4 C 0.4332(3) 0.2621(2) 0.0492(3)
H17_4 H 0.4718 0.2768 0.0166
C30_4 C 0.3572(3) 0.28752(19) 0.0514(2)
C31_4 C 0.2996(2) 0.26549(17) 0.1002(2)
C32_4 C 0.2614(5) 0.3608(3) 0.0085(3)
C33_4 C 0.3350(5) 0.3346(3) 0.0059(4)
C11_4 C 0.09376(17) 0.98029(12) 0.60112(17)
H5_4 H 0.0551 0.9538 0.6181
C12_4 C 0.17427(19) 0.97186(12) 0.61978(16)
C15_4 C 0.1982(4) 0.9201(2) 0.6677(3)
C17_4 C 0.18234(18) 0.97423(18) 0.3441(3)
H9_4 H 0.2315 0.9751 0.3692
C18_4 C 0.1487(2) 0.92030(15) 0.3231(3)
H10_4 H 0.1754 0.8851 0.3342
C19_4 C 0.0752(2) 0.91892(11) 0.2857(2)
C20_4 C 0.03524(15) 0.97147(13) 0.26913(16)
C21_4 C 0.0389(3) 0.8648(2) 0.2638(4)
H11_4 H 0.0673 0.8294 0.2681
N4_4 N 0.93112(17) 0.02540(11) 0.20991(16)
C34_4 C 0.85758(19) 0.02677(14) 0.17243(19)
H20_4 H 0.8351 0.0629 0.1584
O8_4 O 0.9788(2) 0.14848(15) 0.13756(17)
O9_4 O 0.8980(2) 0.20603(18) 0.19833(16)
O12_4 O 0.8991(3) 0.11071(14) 0.0158(2)
C40_4 C 0.9239(2) 0.18532(17) 0.1392(2)
C41_4 C 0.89040(16) 0.20704(10) 0.06492(10)
C42_4 C 0.87926(17) 0.16863(8) 0.00490(12)
C46_4 C 0.87340(16) 0.26698(9) 0.05669(11)
H26_4 H 0.8809 0.2927 0.0968
N5_4 N 0.8310(2) 0.26563(12) 0.34556(14)
C55_4 C 0.90770(19) 0.28986(18) 0.3413(2)
H31_4 H 0.9450 0.2741 0.3082
C56_4 C 0.9287(2) 0.33765(17) 0.3864(3)
H32_4 H 0.9800 0.3539 0.3835
C57_4 C 0.8730(3) 0.36120(15) 0.4359(2)
H33_4 H 0.8870 0.3932 0.4661
C58_4 C 0.7963(3) 0.33697(17) 0.44019(18)
C59_4 C 0.77528(19) 0.28919(14) 0.39503(14)
N6_4 N 0.6819(2) 0.21800(16) 0.35329(17)
C60_4 C 0.6058(2) 0.19253(18) 0.3555(2)
H34_4 H 0.5935 0.1608 0.3243
C61_4 C 0.5483(2) 0.2146(2) 0.4042(3)
H35_3 H 0.4973 0.1975 0.4057
C62_4 C 0.5668(3) 0.2621(2) 0.4508(3)
H36_4 H 0.5282 0.2768 0.4834
C63_4 C 0.6428(3) 0.28752(19) 0.4486(2)
C64_4 C 0.7004(2) 0.26549(17) 0.3998(2)
C65_4 C 0.7386(5) 0.3608(3) 0.4915(3)
H37_4 H 0.7512 0.3930 0.5219
C66_4 C 0.6650(5) 0.3346(3) 0.4941(4)
H38_4 H 0.6277 0.3490 0.5282
C43_4 C 0.85113(17) 0.19016(10) 0.93666(11)
H24_4 H 0.8437 0.1645 0.8965
C44_4 C 0.83413(16) 0.25010(11) 0.92843(11)
C45_4 C 0.84527(17) 0.28850(8) 0.98845(14)
H25_4 H 0.8339 0.3286 0.9829
C47_4 C 0.7992(3) 0.2705(2) 0.8552(2)
C48_4 C 0.8712(2) 0.06786(11) 0.96833(17)
C49_4 C 0.92898(16) 0.02828(13) 0.94293(17)
H27_4 H 0.9829 0.0339 0.9554
C52_4 C 0.76796(15) 0.01143(15) 0.9056(2)
H29_4 H 0.7141 0.0058 0.8931
C53_4 C 0.79070(19) 0.05943(14) 0.9497(2)
H30_4 H 0.7520 0.0859 0.9667
C35_4 C 0.81766(18) 0.97423(18) 0.1559(3)
H21_4 H 0.7685 0.9751 0.1308
C36_4 C 0.8513(2) 0.92030(15) 0.1769(3)
H22_4 H 0.8246 0.8851 0.1658
C37_4 C 0.9248(2) 0.91892(11) 0.2143(2)
C38_4 C 0.96476(15) 0.97147(13) 0.23087(16)
C39_4 C 0.9611(3) 0.8648(2) 0.2362(4)
H23_4 H 0.9327 0.8294 0.2319
C50_4 C 0.90624(17) 0.98029(12) 0.89888(17)
H28_4 H 0.9449 0.9538 0.8819
C51_4 C 0.82573(19) 0.97186(12) 0.88022(16)
C54_4 C 0.8018(4) 0.9201(2) 0.8323(3)
H16_3 H 0.9973 0.3025 0.9057
H18_3 H 0.7512 0.6070 0.0219
H19_3 H 0.6277 0.6510 0.0282
H16_4 H 0.0027 0.6975 0.0943
H35_4 H 0.9973 0.6975 0.4057
H18_4 H 0.2488 0.3930 0.9781
H19_4 H 0.3723 0.3490 0.9718
loop_
_geom_bond_atom_site_label_1
_geom_bond_atom_site_label_2
_geom_bond_site_symmetry_1
_geom_bond_site_symmetry_2
O10 C47 1_555 1_555
O11 C47 1_555 1_555
O13 C54 1_555 1_555
O14 C54 1_555 1_555
H24 C43 1_555 1_555
C44 C43 1_555 1_555
C45 C44 1_555 1_555
H25 C45 1_555 1_555
C47 C44 1_555 1_555
C49 C48 1_555 1_555
H27 C49 1_555 1_555
C50 C49 1_555 1_555
H28 C50 1_555 1_555
C51 C50 1_555 1_555
C52 C51 1_555 1_555
H29 C52 1_555 1_555
C53 C48 1_555 1_555
H30 C53 1_555 1_555
C54 C51 1_555 1_555
Cd5 O14 1_555 1_555
Cd6 O13 1_555 1_555
Cd9 O10 1_555 1_555
O11 Cd9 1_555 1_555
O14 Cd6 1_555 1_555
C52 C53 1_555 1_555
Cd1 O1 1_555 1_555
Cd2 O2 1_555 1_555
O1 C1 1_555 1_555
O2 C1 1_555 1_555
O3 C8 1_555 1_555
O4 C8 1_555 1_555
O5 C3 1_555 1_555
O6 C15 1_555 1_555
O7 C15 1_555 1_555
C1 C2 1_555 1_555
C2 C3 1_555 1_555
C3 C4 1_555 1_555
C4 H1 1_555 1_555
C5 C4 1_555 1_555
C6 C5 1_555 1_555
H2 C6 1_555 1_555
C7 C2 1_555 1_555
H3 C7 1_555 1_555
C8 C5 1_555 1_555
C9 O5 1_555 1_555
C10 C9 1_555 1_555
H4 C10 1_555 1_555
C11 C10 1_555 1_555
H5 C11 1_555 1_555
C12 C11 1_555 1_555
C13 C12 1_555 1_555
H6 C13 1_555 1_555
C14 C9 1_555 1_555
H7 C14 1_555 1_555
C15 C12 1_555 1_555
N1 Cd1 1_555 1_555
C16 N1 1_555 1_555
H8 C16 1_555 1_555
C17 C16 1_555 1_555
H9 C17 1_555 1_555
C18 C17 1_555 1_555
H10 C18 1_555 1_555
C19 C18 1_555 1_555
C20 N1 1_555 1_555
C21 C19 1_555 1_555
H11 C21 1_555 1_555
N2 Cd2 1_555 1_555
C22 N2 1_555 1_555
H12 C22 1_555 1_555
C23 C22 1_555 1_555
H13 C23 1_555 1_555
C24 C23 1_555 1_555
H14 C24 1_555 1_555
C25 C24 1_555 1_555
C26 N2 1_555 1_555
N3 Cd2 1_555 1_555
C27 N3 1_555 1_555
H15 C27 1_555 1_555
C28 C27 1_555 1_555
C29 C28 1_555 1_555
H17 C29 1_555 1_555
C30 C29 1_555 1_555
C31 C26 1_555 1_555
C32 C25 1_555 1_555
C33 C30 1_555 1_555
N4 Cd1 1_555 1_555
C34 N4 1_555 1_555
H20 C34 1_555 1_555
C35 C34 1_555 1_555
H21 C35 1_555 1_555
C36 C35 1_555 1_555
H22 C36 1_555 1_555
C37 C36 1_555 1_555
C38 C20 1_555 1_555
C39 C21 1_555 1_555
H23 C39 1_555 1_555
Cd3 O9 1_555 1_555
O8 Cd1 1_555 1_555
O9 C40 1_555 1_555
O12 C42 1_555 1_555
C40 O8 1_555 1_555
C41 C40 1_555 1_555
C42 C41 1_555 1_555
C46 C41 1_555 1_555
H26 C46 1_555 1_555
N5 Cd3 1_555 1_555
C55 N5 1_555 1_555
H31 C55 1_555 1_555
C56 C55 1_555 1_555
H32 C56 1_555 1_555
C57 C56 1_555 1_555
H33 C57 1_555 1_555
C58 C57 1_555 1_555
C59 N5 1_555 1_555
N6 Cd3 1_555 1_555
C60 N6 1_555 1_555
H34 C60 1_555 1_555
C61 C60 1_555 1_555
C62 C61 1_555 1_555
H36 C62 1_555 1_555
C63 C62 1_555 1_555
C64 C59 1_555 1_555
C65 C58 1_555 1_555
H37 C65 1_555 1_555
C66 C63 1_555 1_555
H38 C66 1_555 1_555
Cd5 O7 1_555 1_555
Cd7 O6 1_555 1_555
Cd8 O3 1_555 1_555
O15 Cd2 1_555 1_555
O16 Cd3 1_555 1_555
O17 Cd2 1_555 1_555
O18 Cd3 1_555 1_555
O19 Cd3 1_555 1_555
O20 Cd2 1_555 1_555
O21 Cd1 1_555 1_555
O22 Cd1 1_555 1_555
Cd2 O22 1_555 1_555
O4 Cd8 1_555 1_555
O7 Cd7 1_555 1_555
C6 C7 1_555 1_555
C13 C14 1_555 1_555
C19 C20 1_555 1_555
C25 C26 1_555 1_555
N3 C31 1_555 1_555
C30 C31 1_555 1_555
C32 C33 1_555 1_555
N4 C38 1_555 1_555
C37 C38 1_555 1_555
C37 C39 1_555 1_555
Cd3 O21 1_555 1_555
C58 C59 1_555 1_555
N6 C64 1_555 1_555
C63 C64 1_555 1_555
C65 C66 1_555 1_555
O13_2 C54_2 1_555 1_555
O14_2 C54_2 1_555 1_555
H28_2 C50_2 1_555 1_555
C51_2 C50_2 1_555 1_555
C54_2 C51_2 1_555 1_555
Cd5_2 O14_2 1_555 1_555
Cd8 O13_2 1_555 1_555
O14_2 Cd8 1_555 1_555
H21_2 C35_2 1_555 1_555
C36_2 C35_2 1_555 1_555
H22_2 C36_2 1_555 1_555
C37_2 C36_2 1_555 1_555
H23_2 C39_2 1_555 1_555
C37_2 C38_2 1_555 1_555
C37_2 C39_2 1_555 1_555
O10_2 C47_2 1_555 1_555
O11_2 C47_2 1_555 1_555
H24_2 C43_2 1_555 1_555
C44_2 C43_2 1_555 1_555
C45_2 C44_2 1_555 1_555
H25_2 C45_2 1_555 1_555
C47_2 C44_2 1_555 1_555
C49_2 C48_2 1_555 1_555
H27_2 C49_2 1_555 1_555
H29_2 C52_2 1_555 1_555
C53_2 C48_2 1_555 1_555
H30_2 C53_2 1_555 1_555
Cd7 O10_2 1_555 1_555
O11_2 Cd7 1_555 1_555
C52_2 C53_2 1_555 1_555
N4_2 Cd1_2 1_555 1_555
C34_2 N4_2 1_555 1_555
H20_2 C34_2 1_555 1_555
Cd3_2 O9_2 1_555 1_555
O8_2 Cd1_2 1_555 1_555
O9_2 C40_2 1_555 1_555
O12_2 C42_2 1_555 1_555
C40_2 O8_2 1_555 1_555
C41_2 C40_2 1_555 1_555
C42_2 C41_2 1_555 1_555
C46_2 C41_2 1_555 1_555
H26_2 C46_2 1_555 1_555
N5_2 Cd3_2 1_555 1_555
C55_2 N5_2 1_555 1_555
H31_2 C55_2 1_555 1_555
C56_2 C55_2 1_555 1_555
H32_2 C56_2 1_555 1_555
C57_2 C56_2 1_555 1_555
H33_2 C57_2 1_555 1_555
C58_2 C57_2 1_555 1_555
C59_2 N5_2 1_555 1_555
N6_2 Cd3_2 1_555 1_555
C60_2 N6_2 1_555 1_555
H34_2 C60_2 1_555 1_555
C61_2 C60_2 1_555 1_555
H35_2 C61_2 1_555 1_555
C62_2 C61_2 1_555 1_555
H36_2 C62_2 1_555 1_555
C63_2 C62_2 1_555 1_555
C64_2 C59_2 1_555 1_555
C65_2 C58_2 1_555 1_555
H37_2 C65_2 1_555 1_555
C66_2 C63_2 1_555 1_555
H38_2 C66_2 1_555 1_555
O16_2 Cd3_2 1_555 1_555
O18_2 Cd3_2 1_555 1_555
O19_2 Cd3_2 1_555 1_555
O21_2 Cd1_2 1_555 1_555
Cd3_2 O21_2 1_555 1_555
C58_2 C59_2 1_555 1_555
N6_2 C64_2 1_555 1_555
C63_2 C64_2 1_555 1_555
C65_2 C66_2 1_555 1_555
O6_2 C15_2 1_555 1_555
O7_2 C15_2 1_555 1_555
H5_2 C11_2 1_555 1_555
C12_2 C11_2 1_555 1_555
C15_2 C12_2 1_555 1_555
H9_2 C17_2 1_555 1_555
C18_2 C17_2 1_555 1_555
H10_2 C18_2 1_555 1_555
C19_2 C18_2 1_555 1_555
C21_2 C19_2 1_555 1_555
H11_2 C21_2 1_555 1_555
Cd5_3 O7_2 1_555 1_555
Cd9 O6_2 1_555 1_555
O7_2 Cd9 1_555 1_555
C19_2 C20_2 1_555 1_555
Cd1_3 O1_2 1_555 1_555
Cd2_2 O2_2 1_555 1_555
O1_2 C1_2 1_555 1_555
O2_2 C1_2 1_555 1_555
O3_2 C8_2 1_555 1_555
O4_2 C8_2 1_555 1_555
O5_2 C3_2 1_555 1_555
C1_2 C2_2 1_555 1_555
C2_2 C3_2 1_555 1_555
C3_2 C4_2 1_555 1_555
C4_2 H1_2 1_555 1_555
C5_2 C4_2 1_555 1_555
C6_2 C5_2 1_555 1_555
H2_2 C6_2 1_555 1_555
C7_2 C2_2 1_555 1_555
H3_2 C7_2 1_555 1_555
C8_2 C5_2 1_555 1_555
C9_2 O5_2 1_555 1_555
C10_2 C9_2 1_555 1_555
H4_2 C10_2 1_555 1_555
H6_2 C13_2 1_555 1_555
C14_2 C9_2 1_555 1_555
H7_2 C14_2 1_555 1_555
N1_2 Cd1_3 1_555 1_555
C16_2 N1_2 1_555 1_555
H8_2 C16_2 1_555 1_555
N2_2 Cd2_2 1_555 1_555
C22_2 N2_2 1_555 1_555
H12_2 C22_2 1_555 1_555
C23_2 C22_2 1_555 1_555
H13_2 C23_2 1_555 1_555
C24_2 C23_2 1_555 1_555
H14_2 C24_2 1_555 1_555
C25_2 C24_2 1_555 1_555
C26_2 N2_2 1_555 1_555
N3_2 Cd2_2 1_555 1_555
C27_2 N3_2 1_555 1_555
H15_2 C27_2 1_555 1_555
C28_2 C27_2 1_555 1_555
H16 C28_2 1_555 1_555
C29_2 C28_2 1_555 1_555
H17_2 C29_2 1_555 1_555
C30_2 C29_2 1_555 1_555
C31_2 C26_2 1_555 1_555
C32_2 C25_2 1_555 1_555
C33_2 C30_2 1_555 1_555
Cd6 O3_2 1_555 1_555
O15_2 Cd2_2 1_555 1_555
O17_2 Cd2_2 1_555 1_555
O20_2 Cd2_2 1_555 1_555
O22_2 Cd1_3 1_555 1_555
Cd2_2 O22_2 1_555 1_555
O4_2 Cd6 1_555 1_555
C6_2 C7_2 1_555 1_555
C13_2 C14_2 1_555 1_555
C25_2 C26_2 1_555 1_555
N3_2 C31_2 1_555 1_555
C30_2 C31_2 1_555 1_555
C32_2 C33_2 1_555 1_555
Cd5 O1_3 1_555 1_555
Cd6 O2_3 1_555 1_555
O1_3 C1_3 1_555 1_555
O2_3 C1_3 1_555 1_555
O15_2 C8_3 1_555 1_555
O17_2 C8_3 1_555 1_555
O5_3 C3_3 1_555 1_555
O19 C15_3 1_555 1_555
O21 C15_3 1_555 1_555
C1_3 C2_3 1_555 1_555
C2_3 C3_3 1_555 1_555
C3_3 C4_3 1_555 1_555
C4_3 H1_3 1_555 1_555
C5_3 C4_3 1_555 1_555
C6_3 C5_3 1_555 1_555
H2_3 C6_3 1_555 1_555
C7_3 C2_3 1_555 1_555
H3_3 C7_3 1_555 1_555
C8_3 C5_3 1_555 1_555
C9_3 O5_3 1_555 1_555
C10_3 C9_3 1_555 1_555
H4_3 C10_3 1_555 1_555
C11_3 C10_3 1_555 1_555
H5_3 C11_3 1_555 1_555
C12_3 C11_3 1_555 1_555
C13_3 C12_3 1_555 1_555
H6_3 C13_3 1_555 1_555
C14_3 C9_3 1_555 1_555
H7_3 C14_3 1_555 1_555
C15_3 C12_3 1_555 1_555
N1_3 Cd5 1_555 1_555
C16_3 N1_3 1_555 1_555
H8_3 C16_3 1_555 1_555
C17_3 C16_3 1_555 1_555
H9_3 C17_3 1_555 1_555
C18_3 C17_3 1_555 1_555
H10_3 C18_3 1_555 1_555
C19_3 C18_3 1_555 1_555
C20_3 N1_3 1_555 1_555
C21_3 C19_3 1_555 1_555
H11_3 C21_3 1_555 1_555
N2_3 Cd6 1_555 1_555
C22_3 N2_3 1_555 1_555
H12_3 C22_3 1_555 1_555
C23_3 C22_3 1_555 1_555
H13_3 C23_3 1_555 1_555
C24_3 C23_3 1_555 1_555
H14_3 C24_3 1_555 1_555
C25_3 C24_3 1_555 1_555
C26_3 N2_3 1_555 1_555
N3_3 Cd6 1_555 1_555
C27_3 N3_3 1_555 1_555
H15_3 C27_3 1_555 1_555
C28_3 C27_3 1_555 1_555
C29_3 C28_3 1_555 1_555
H17_3 C29_3 1_555 1_555
C30_3 C29_3 1_555 1_555
C31_3 C26_3 1_555 1_555
C32_3 C25_3 1_555 1_555
C33_3 C30_3 1_555 1_555
N4_3 Cd5 1_555 1_555
C34_3 N4_3 1_555 1_555
H20_3 C34_3 1_555 1_555
C35_3 C34_3 1_555 1_555
H21_3 C35_3 1_555 1_555
C36_3 C35_3 1_555 1_555
H22_3 C36_3 1_555 1_555
C37_3 C36_3 1_555 1_555
C38_3 C20_3 1_555 1_555
C39_3 C21_3 1_555 1_555
H23_3 C39_3 1_555 1_555
Cd7 O9_3 1_555 1_555
O8_3 Cd5 1_555 1_555
O9_3 C40_3 1_555 1_555
O12_3 C42_3 1_555 1_555
C40_3 O8_3 1_555 1_555
C41_3 C40_3 1_555 1_555
C42_3 C41_3 1_555 1_555
C46_3 C41_3 1_555 1_555
H26_3 C46_3 1_555 1_555
N5_3 Cd7 1_555 1_555
C55_3 N5_3 1_555 1_555
H31_3 C55_3 1_555 1_555
C56_3 C55_3 1_555 1_555
H32_3 C56_3 1_555 1_555
C57_3 C56_3 1_555 1_555
H33_3 C57_3 1_555 1_555
C58_3 C57_3 1_555 1_555
C59_3 N5_3 1_555 1_555
N6_3 Cd7 1_555 1_555
C60_3 N6_3 1_555 1_555
H34_3 C60_3 1_555 1_555
C61_3 C60_3 1_555 1_555
C62_3 C61_3 1_555 1_555
H36_3 C62_3 1_555 1_555
C63_3 C62_3 1_555 1_555
C64_3 C59_3 1_555 1_555
C65_3 C58_3 1_555 1_555
H37_3 C65_3 1_555 1_555
C66_3 C63_3 1_555 1_555
H38_3 C66_3 1_555 1_555
C6_3 C7_3 1_555 1_555
C13_3 C14_3 1_555 1_555
C19_3 C20_3 1_555 1_555
C25_3 C26_3 1_555 1_555
N3_3 C31_3 1_555 1_555
C30_3 C31_3 1_555 1_555
C32_3 C33_3 1_555 1_555
N4_3 C38_3 1_555 1_555
C37_3 C38_3 1_555 1_555
C37_3 C39_3 1_555 1_555
C58_3 C59_3 1_555 1_555
N6_3 C64_3 1_555 1_555
C63_3 C64_3 1_555 1_555
C65_3 C66_3 1_555 1_555
O16_2 C47_3 1_555 1_555
O18_2 C47_3 1_555 1_555
O20 C54_3 1_555 1_555
O22 C54_3 1_555 1_555
H24_3 C43_3 1_555 1_555
C44_3 C43_3 1_555 1_555
C45_3 C44_3 1_555 1_555
H25_3 C45_3 1_555 1_555
C47_3 C44_3 1_555 1_555
C49_3 C48_3 1_555 1_555
H27_3 C49_3 1_555 1_555
C50_3 C49_3 1_555 1_555
H28_3 C50_3 1_555 1_555
C51_3 C50_3 1_555 1_555
C52_3 C51_3 1_555 1_555
H29_3 C52_3 1_555 1_555
C53_3 C48_3 1_555 1_555
H30_3 C53_3 1_555 1_555
C54_3 C51_3 1_555 1_555
C52_3 C53_3 1_555 1_555
Cd5_2 O1_4 1_555 1_555
Cd8 O2_4 1_555 1_555
O1_4 C1_4 1_555 1_555
O2_4 C1_4 1_555 1_555
O15 C8_4 1_555 1_555
O17 C8_4 1_555 1_555
O5_4 C3_4 1_555 1_555
C1_4 C2_4 1_555 1_555
C2_4 C3_4 1_555 1_555
C3_4 C4_4 1_555 1_555
C4_4 H1_4 1_555 1_555
C5_4 C4_4 1_555 1_555
C6_4 C5_4 1_555 1_555
H2_4 C6_4 1_555 1_555
C7_4 C2_4 1_555 1_555
H3_4 C7_4 1_555 1_555
C8_4 C5_4 1_555 1_555
C9_4 O5_4 1_555 1_555
C10_4 C9_4 1_555 1_555
H4_4 C10_4 1_555 1_555
H6_4 C13_4 1_555 1_555
C14_4 C9_4 1_555 1_555
H7_4 C14_4 1_555 1_555
N1_4 Cd5_2 1_555 1_555
C16_4 N1_4 1_555 1_555
H8_4 C16_4 1_555 1_555
N2_4 Cd8 1_555 1_555
C22_4 N2_4 1_555 1_555
H12_4 C22_4 1_555 1_555
C23_4 C22_4 1_555 1_555
H13_4 C23_4 1_555 1_555
C24_4 C23_4 1_555 1_555
H14_4 C24_4 1_555 1_555
C25_4 C24_4 1_555 1_555
C26_4 N2_4 1_555 1_555
N3_4 Cd8 1_555 1_555
C27_4 N3_4 1_555 1_555
H15_4 C27_4 1_555 1_555
C28_4 C27_4 1_555 1_555
H16_2 C28_4 1_555 1_555
C29_4 C28_4 1_555 1_555
H17_4 C29_4 1_555 1_555
C30_4 C29_4 1_555 1_555
C31_4 C26_4 1_555 1_555
C32_4 C25_4 1_555 1_555
C33_4 C30_4 1_555 1_555
C6_4 C7_4 1_555 1_555
C13_4 C14_4 1_555 1_555
C25_4 C26_4 1_555 1_555
N3_4 C31_4 1_555 1_555
C30_4 C31_4 1_555 1_555
C32_4 C33_4 1_555 1_555
O19_2 C15_4 1_555 1_555
O21_2 C15_4 1_555 1_555
H5_4 C11_4 1_555 1_555
C12_4 C11_4 1_555 1_555
C15_4 C12_4 1_555 1_555
H9_4 C17_4 1_555 1_555
C18_4 C17_4 1_555 1_555
H10_4 C18_4 1_555 1_555
C19_4 C18_4 1_555 1_555
C21_4 C19_4 1_555 1_555
H11_4 C21_4 1_555 1_555
C19_4 C20_4 1_555 1_555
N4_4 Cd5_3 1_555 1_555
C34_4 N4_4 1_555 1_555
H20_4 C34_4 1_555 1_555
Cd9 O9_4 1_555 1_555
O8_4 Cd5_3 1_555 1_555
O9_4 C40_4 1_555 1_555
O12_4 C42_4 1_555 1_555
C40_4 O8_4 1_555 1_555
C41_4 C40_4 1_555 1_555
C42_4 C41_4 1_555 1_555
C46_4 C41_4 1_555 1_555
H26_4 C46_4 1_555 1_555
N5_4 Cd9 1_555 1_555
C55_4 N5_4 1_555 1_555
H31_4 C55_4 1_555 1_555
C56_4 C55_4 1_555 1_555
H32_4 C56_4 1_555 1_555
C57_4 C56_4 1_555 1_555
H33_4 C57_4 1_555 1_555
C58_4 C57_4 1_555 1_555
C59_4 N5_4 1_555 1_555
N6_4 Cd9 1_555 1_555
C60_4 N6_4 1_555 1_555
H34_4 C60_4 1_555 1_555
C61_4 C60_4 1_555 1_555
H35_3 C61_4 1_555 1_555
C62_4 C61_4 1_555 1_555
H36_4 C62_4 1_555 1_555
C63_4 C62_4 1_555 1_555
C64_4 C59_4 1_555 1_555
C65_4 C58_4 1_555 1_555
H37_4 C65_4 1_555 1_555
C66_4 C63_4 1_555 1_555
H38_4 C66_4 1_555 1_555
C58_4 C59_4 1_555 1_555
N6_4 C64_4 1_555 1_555
C63_4 C64_4 1_555 1_555
C65_4 C66_4 1_555 1_555
O16 C47_4 1_555 1_555
O18 C47_4 1_555 1_555
H24_4 C43_4 1_555 1_555
C44_4 C43_4 1_555 1_555
C45_4 C44_4 1_555 1_555
H25_4 C45_4 1_555 1_555
C47_4 C44_4 1_555 1_555
C49_4 C48_4 1_555 1_555
H27_4 C49_4 1_555 1_555
H29_4 C52_4 1_555 1_555
C53_4 C48_4 1_555 1_555
H30_4 C53_4 1_555 1_555
C52_4 C53_4 1_555 1_555
H21_4 C35_4 1_555 1_555
C36_4 C35_4 1_555 1_555
H22_4 C36_4 1_555 1_555
C37_4 C36_4 1_555 1_555
H23_4 C39_4 1_555 1_555
C37_4 C38_4 1_555 1_555
C37_4 C39_4 1_555 1_555
O20_2 C54_4 1_555 1_555
O22_2 C54_4 1_555 1_555
H28_4 C50_4 1_555 1_555
C51_4 C50_4 1_555 1_555
C54_4 C51_4 1_555 1_555

#END
