
###############################################################################
#
# This file contains modified crystal structure data generated from the
# MOF subset of the Cambridge Structural Database (CSD) v543 
# hosted by the Cambridge Crystallographic Data Centre (CCDC).
#
# This work is licensed under the Creative Commons
# Attribution-NonCommercial-ShareAlike 4.0 International License.
# To view a copy of this license, visit
# http://creativecommons.org/licenses/by-nc-sa/4.0/
# or send a letter to
# Creative Commons, PO Box 1866, Mountain View, CA 94042, USA.
#
# CIF created using the CSD Python API on 29 September 2022
# The structure has been converted into the P1 space group
# The structure has a 3D framework
# The original CSD entry NECGUB is in the hexagonal crystal system
# The framework has been calculated to contain at least 10.0% void space
# The void calculation uses a probe of radius 1.32A, grid spacing 0.4
#
###############################################################################

data_NECGUB
_chemical_formula_moiety         '(C384 H336 Al16 Co16 N16 O112)n'
_symmetry_cell_setting           triclinic
_symmetry_space_group_name_H-M   'P 1'
_symmetry_Int_Tables_number      1
_space_group_name_Hall           'P 1'
loop_
_symmetry_equiv_pos_site_id
_symmetry_equiv_pos_as_xyz
1 x,y,z
_cell_length_a                   22.8201(6)
_cell_length_b                   22.8201(6)
_cell_length_c                   37.3225(10)
_cell_angle_alpha                90
_cell_angle_beta                 90
_cell_angle_gamma                120
_cell_volume                     16832
loop_
_atom_site_label
_atom_site_type_symbol
_atom_site_fract_x
_atom_site_fract_y
_atom_site_fract_z
C65 C 0.0022(9) 0.4177(13) 0.6591(5)
H64 H 0.0477 0.4509 0.6595
N6 N 0.0613(3) 0.5302(4) 0.48851(15)
C72 C 0.0355(4) 0.4580(4) 0.4905(2)
H71 H 0.0668 0.4493 0.5038
H72 H 0.0312 0.4398 0.4665
C73 C 0.0575(4) 0.5553(5) 0.5249(2)
H73 H 0.0801 0.6043 0.5248
H74 H 0.0801 0.5416 0.5422
C74 C 0.0163(4) 0.5426(4) 0.4645(2)
H75 H 0.0226 0.5332 0.4399
H76 H 0.0283 0.5897 0.4661
H91 H 0.0068 0.6332 0.6182
C96 C 0.0013(16) 0.5977(11) 0.6689(6)
H93 H 0.0455 0.6294 0.6749
C158 C 0.0022(9) 0.4177(13) 0.8409(5)
H142 H 0.0477 0.4509 0.8405
H157 H 0.0068 0.6332 0.8818
C183 C 0.0013(16) 0.5977(11) 0.8311(6)
H159 H 0.0455 0.6294 0.8251
Co9 Co 0.16653(5) 0.58316(7) 0.46892(2)
O30 O 0.7030(3) 0.2928(3) 0.01459(11)
O35 O 0.8148(3) 0.3618(3) 0.01608(15)
C109 C 0.7611(4) 0.3124(4) 0.0267(2)
C113 C 0.7653(5) 0.2706(5) 0.0567(3)
C120 C 0.7047(6) 0.2168(6) 0.0697(3)
H112 H 0.6633 0.2099 0.0614
H113 H 0.3778 0.2844 0.0028
C122 C 0.8282(6) 0.2849(8) 0.0699(4)
H114 H 0.8680 0.3206 0.0609
C126 C 0.2782(10) 0.1197(10) 0.0026(5)
H118 H 0.2338 0.0866 0.0075
C131 C 0.7074(8) 0.1739(8) 0.0952(4)
H123 H 0.6683 0.1343 0.1017
C132 C 0.7678(11) 0.1903(10) 0.1105(5)
H124 H 0.7684 0.1658 0.1303
C133 C 0.8290(10) 0.2432(11) 0.0974(5)
H125 H 0.8699 0.2506 0.1067
C136 C 0.2978(10) 0.1864(11) 0.0132(5)
H128 H 0.2714 0.1963 0.0283
O40 O 0.7072(3) 0.4102(4) 0.01459(11)
O44 O 0.6382(3) 0.4530(4) 0.01608(15)
C137 C 0.6876(4) 0.4487(6) 0.0267(2)
C141 C 0.7294(5) 0.4947(7) 0.0567(3)
C148 C 0.7832(6) 0.4879(8) 0.0697(3)
H132 H 0.7901 0.4534 0.0614
H133 H 0.7156 0.0934 0.0028
C150 C 0.7151(8) 0.5433(10) 0.0699(4)
H134 H 0.6794 0.5474 0.0609
C154 C 0.8803(10) 0.1585(14) 0.0026(5)
H138 H 0.9134 0.1472 0.0075
C159 C 0.8261(8) 0.5335(11) 0.0952(4)
H143 H 0.8657 0.5340 0.1017
C160 C 0.8097(10) 0.5775(15) 0.1105(5)
H144 H 0.8342 0.6026 0.1303
C161 C 0.7568(11) 0.5858(15) 0.0974(5)
H145 H 0.7494 0.6193 0.1067
C164 C 0.8136(11) 0.1114(15) 0.0132(5)
H148 H 0.8037 0.0751 0.0283
O49 O 0.5898(4) 0.2970(3) 0.01459(11)
O53 O 0.5470(4) 0.1852(3) 0.01608(15)
C165 C 0.5513(6) 0.2389(4) 0.0267(2)
C169 C 0.5053(7) 0.2347(5) 0.0567(3)
C176 C 0.5121(8) 0.2953(6) 0.0697(3)
H152 H 0.5466 0.3367 0.0614
H153 H 0.9066 0.6222 0.0028
C178 C 0.4567(10) 0.1718(6) 0.0699(4)
H154 H 0.4526 0.1320 0.0609
C182 C 0.8415(14) 0.7218(10) 0.0026(5)
H158 H 0.8528 0.7662 0.0075
C187 C 0.4665(11) 0.2926(8) 0.0952(4)
H163 H 0.4660 0.3317 0.1017
C188 C 0.4225(15) 0.2322(11) 0.1105(5)
H164 H 0.3974 0.2316 0.1303
C189 C 0.4142(15) 0.1710(10) 0.0974(5)
H165 H 0.3807 0.1301 0.1067
C192 C 0.8886(15) 0.7022(10) 0.0132(5)
H168 H 0.9249 0.7286 0.0283
Co1 Co 0.6667 0.3333 0.65632(4)
Co2 Co 0.58316(7) 0.16653(5) 0.53108(2)
Al1 Al 0.6667 0.3333 0.51589(8)
Al2 Al 0.58384(9) 0.29192(12) 0.57813(5)
O1 O 0.6297(3) 0.25933(19) 0.54848(10)
O2 O 0.7030(3) 0.2928(3) 0.48541(11)
O3 O 0.5419(2) 0.3292(3) 0.60635(13)
O4 O 0.5046(2) 0.2503(3) 0.55012(11)
O5 O 0.6667 0.3333 0.60396(17)
O6 O 0.5781(3) 0.3368(3) 0.66301(14)
O7 O 0.8148(3) 0.3618(3) 0.48392(15)
O8 O 0.5431(3) 0.2144(3) 0.60777(12)
O9 O 0.5176(3) 0.1253(3) 0.57340(14)
O10 O 0.4882(3) 0.3330(3) 0.52846(15)
N1 N 0.5302(4) 0.0613(3) 0.51149(15)
N2 N 0.6667 0.3333 0.7149(2)
C1 C 0.7611(4) 0.3124(4) 0.4733(2)
C2 C 0.4704(4) 0.2725(5) 0.5341(2)
C3 C 0.5157(4) 0.1519(4) 0.6014(2)
C4 C 0.4580(4) 0.0355(4) 0.5095(2)
H1 H 0.4493 0.0668 0.4962
H2 H 0.4398 0.0312 0.5335
C5 C 0.5416(4) 0.3410(4) 0.6393(2)
C6 C 0.5553(5) 0.0575(4) 0.4751(2)
H3 H 0.6043 0.0801 0.4752
H4 H 0.5416 0.0801 0.4578
C7 C 0.5426(4) 0.0163(4) 0.5355(2)
H5 H 0.5332 0.0226 0.5601
H6 H 0.5897 0.0283 0.5339
C8 C 0.7653(5) 0.2706(5) 0.4433(3)
C9 C 0.4749(6) 0.1064(5) 0.6326(3)
C10 C 0.4932(5) 0.3634(6) 0.6500(3)
C11 C 0.4015(6) 0.2186(5) 0.5212(3)
C12 C 0.3837(6) 0.1547(6) 0.5256(4)
H7 H 0.4136 0.1438 0.5366
C13 C 0.6745(4) 0.3975(4) 0.7295(2)
H8 H 0.6378 0.4035 0.7209
H9 H 0.7167 0.4352 0.7209
C14 C 0.4469(9) 0.0388(7) 0.6297(4)
H10 H 0.4486 0.0196 0.6080
C15 C 0.4505(7) 0.3641(7) 0.6261(3)
H11 H 0.4544 0.3538 0.6024
C16 C 0.7047(6) 0.2168(6) 0.4303(3)
H12 H 0.6633 0.2099 0.4386
C17 C 0.3627(8) 0.2388(8) 0.5012(4)
H13 H 0.3778 0.2844 0.4972
C18 C 0.8282(6) 0.2849(8) 0.4301(4)
H14 H 0.8680 0.3206 0.4391
C19 C 0.3168(9) 0.0995(9) 0.5135(4)
H15 H 0.3029 0.0541 0.5169
C20 C 0.4915(8) 0.3831(9) 0.6845(3)
H16 H 0.5185 0.3786 0.7017
C21 C 0.4000(8) 0.3794(9) 0.6346(5)
H17 H 0.3668 0.3736 0.6182
C22 C 0.2782(10) 0.1197(10) 0.4974(5)
H18 H 0.2338 0.0866 0.4925
C23 C 0.4023(11) 0.4036(11) 0.6689(6)
H19 H 0.3706 0.4161 0.6749
C24 C 0.4492(9) 0.4106(9) 0.6951(5)
H20 H 0.4528 0.4309 0.7172
C25 C 0.4711(6) 0.1351(6) 0.6635(3)
H21 H 0.4885 0.1816 0.6651
C27 C 0.7074(8) 0.1739(8) 0.4048(4)
H23 H 0.6683 0.1343 0.3983
C28 C 0.7678(11) 0.1903(10) 0.3895(5)
H24 H 0.7684 0.1658 0.3697
C29 C 0.8290(10) 0.2432(11) 0.4026(5)
H25 H 0.8699 0.2506 0.3933
C30 C 0.4037(10) 0.0286(10) 0.6877(5)
H26 H 0.3689 0.0028 0.7037
C31 C 0.4406(9) 0.0932(9) 0.6927(4)
H27 H 0.4466 0.1113 0.7156
C32 C 0.2978(10) 0.1864(11) 0.4868(5)
H28 H 0.2714 0.1963 0.4717
C36 C 0.6025(4) 0.2770(6) 0.7295(2)
H35 H 0.5965 0.2343 0.7209
H36 H 0.5648 0.2815 0.7209
C37 C 0.7230(6) 0.3255(4) 0.7295(2)
H37 H 0.7657 0.3622 0.7209
H38 H 0.7185 0.2833 0.7209
N4 N 0.6667 0.3333 0.7851(2)
C38 C 0.6745(4) 0.3975(4) 0.7705(2)
H39 H 0.6378 0.4035 0.7791
H40 H 0.7167 0.4352 0.7791
C39 C 0.6025(4) 0.2770(6) 0.7705(2)
H41 H 0.5965 0.2343 0.7791
H42 H 0.5648 0.2815 0.7791
C40 C 0.7230(6) 0.3255(4) 0.7705(2)
H43 H 0.7657 0.3622 0.7791
H44 H 0.7185 0.2833 0.7791
Co3 Co 0.83347(5) 0.41663(9) 0.53108(2)
Al3 Al 0.70808(12) 0.29192(15) 0.57813(5)
O11 O 0.74067(19) 0.37037(36) 0.54848(10)
O12 O 0.7072(3) 0.4102(4) 0.48541(11)
O13 O 0.6708(3) 0.2127(4) 0.60635(13)
O14 O 0.7497(3) 0.2543(4) 0.55012(11)
O15 O 0.6632(3) 0.2413(4) 0.66301(14)
O16 O 0.6382(3) 0.4530(4) 0.48392(15)
O17 O 0.7856(3) 0.3287(4) 0.60777(12)
O18 O 0.8747(3) 0.3923(4) 0.57340(14)
O19 O 0.6670(3) 0.1552(4) 0.52846(15)
N5 N 0.9387(3) 0.4689(5) 0.51149(15)
C41 C 0.6876(4) 0.4487(6) 0.4733(2)
C42 C 0.7275(5) 0.1979(6) 0.5341(2)
C43 C 0.8481(4) 0.3638(6) 0.6014(2)
C44 C 0.9645(4) 0.4225(6) 0.5095(2)
H45 H 0.9332 0.3825 0.4962
H46 H 0.9688 0.4086 0.5335
C45 C 0.6590(4) 0.2006(6) 0.6393(2)
C46 C 0.9425(4) 0.4978(6) 0.4751(2)
H47 H 0.9199 0.5242 0.4752
H48 H 0.9199 0.4615 0.4578
C47 C 0.9837(4) 0.5263(6) 0.5355(2)
H49 H 0.9774 0.5106 0.5601
H50 H 0.9717 0.5614 0.5339
C48 C 0.7294(5) 0.4947(7) 0.4433(3)
C49 C 0.8936(5) 0.3685(8) 0.6326(3)
C50 C 0.6366(6) 0.1298(8) 0.6500(3)
C51 C 0.7814(5) 0.1829(8) 0.5212(3)
C52 C 0.8453(6) 0.2290(8) 0.5256(4)
H51 H 0.8562 0.2698 0.5366
C53 C 0.9612(7) 0.4081(11) 0.6297(4)
H52 H 0.9804 0.4290 0.6080
C54 C 0.6359(7) 0.0864(10) 0.6261(3)
H53 H 0.6462 0.1006 0.6024
C55 C 0.7832(6) 0.4879(8) 0.4303(3)
H54 H 0.7901 0.4534 0.4386
C56 C 0.7612(8) 0.1239(11) 0.5012(4)
H55 H 0.7156 0.0934 0.4972
C57 C 0.7151(8) 0.5433(10) 0.4301(4)
H56 H 0.6794 0.5474 0.4391
C58 C 0.9005(9) 0.2173(13) 0.5135(4)
H57 H 0.9459 0.2488 0.5169
C59 C 0.6169(9) 0.1084(12) 0.6845(3)
H58 H 0.6214 0.1399 0.7017
C60 C 0.6206(9) 0.0206(12) 0.6346(5)
C61 C 0.8803(10) 0.1585(14) 0.4974(5)
H60 H 0.9134 0.1472 0.4925
C63 C 0.5894(9) 0.0386(13) 0.6951(5)
H62 H 0.5691 0.0219 0.7172
C64 C 0.8649(6) 0.3360(8) 0.6635(3)
H63 H 0.8184 0.3069 0.6651
C66 C 0.8261(8) 0.5335(11) 0.4048(4)
H65 H 0.8657 0.5340 0.3983
C67 C 0.8097(10) 0.5775(15) 0.3895(5)
H66 H 0.8342 0.6026 0.3697
C68 C 0.7568(11) 0.5858(15) 0.4026(5)
H67 H 0.7494 0.6193 0.3933
C69 C 0.9714(10) 0.3751(14) 0.6877(5)
H68 H 0.9972 0.3661 0.7037
C70 C 0.9068(9) 0.3474(13) 0.6927(4)
H69 H 0.8887 0.3353 0.7156
C71 C 0.8136(11) 0.1114(15) 0.4868(5)
H70 H 0.8037 0.0751 0.4717
Co4 Co 0.58337(9) 0.41684(7) 0.53108(2)
Al4 Al 0.70808(15) 0.41616(9) 0.57813(5)
O20 O 0.62963(36) 0.3703(3) 0.54848(10)
O21 O 0.5898(4) 0.2970(3) 0.48541(11)
O22 O 0.7873(4) 0.4581(2) 0.60635(13)
O23 O 0.7457(4) 0.4954(2) 0.55012(11)
O24 O 0.7587(4) 0.4219(3) 0.66301(14)
O25 O 0.5470(4) 0.1852(3) 0.48392(15)
O26 O 0.6713(4) 0.4569(3) 0.60777(12)
O27 O 0.6077(4) 0.4824(3) 0.57340(14)
O28 O 0.8448(4) 0.5118(3) 0.52846(15)
N7 N 0.5311(5) 0.4698(4) 0.51149(15)
C75 C 0.5513(6) 0.2389(4) 0.4733(2)
C76 C 0.8021(6) 0.5296(4) 0.5341(2)
C77 C 0.6362(6) 0.4843(4) 0.6014(2)
C78 C 0.5775(6) 0.5420(4) 0.5095(2)
H77 H 0.6175 0.5507 0.4962
H78 H 0.5914 0.5602 0.5335
C79 C 0.7994(6) 0.4584(4) 0.6393(2)
C80 C 0.5022(6) 0.4447(5) 0.4751(2)
H79 H 0.4758 0.3957 0.4752
H80 H 0.5385 0.4584 0.4578
C81 C 0.4737(6) 0.4574(4) 0.5355(2)
H81 H 0.4894 0.4668 0.5601
H82 H 0.4386 0.4103 0.5339
C82 C 0.5053(7) 0.2347(5) 0.4433(3)
C83 C 0.6315(8) 0.5251(6) 0.6326(3)
C84 C 0.8702(8) 0.5068(5) 0.6500(3)
C85 C 0.8171(8) 0.5985(6) 0.5212(3)
C86 C 0.7710(8) 0.6163(6) 0.5256(4)
H83 H 0.7302 0.5864 0.5366
C87 C 0.5919(11) 0.5531(9) 0.6297(4)
H84 H 0.5710 0.5514 0.6080
C88 C 0.9136(10) 0.5495(7) 0.6261(3)
H85 H 0.8994 0.5456 0.6024
C89 C 0.5121(8) 0.2953(6) 0.4303(3)
H86 H 0.5466 0.3367 0.4386
C90 C 0.8761(11) 0.6373(8) 0.5012(4)
H87 H 0.9066 0.6222 0.4972
C91 C 0.4567(10) 0.1718(6) 0.4301(4)
H88 H 0.4526 0.1320 0.4391
C92 C 0.7827(13) 0.6832(9) 0.5135(4)
H89 H 0.7512 0.6971 0.5169
C93 C 0.8916(12) 0.5085(8) 0.6845(3)
H90 H 0.8601 0.4815 0.7017
C94 C 0.9794(12) 0.6000(8) 0.6346(5)
C95 C 0.8415(14) 0.7218(10) 0.4974(5)
H92 H 0.8528 0.7662 0.4925
C97 C 0.9614(13) 0.5508(9) 0.6951(5)
H94 H 0.9781 0.5472 0.7172
C98 C 0.6640(8) 0.5289(6) 0.6635(3)
H95 H 0.6931 0.5115 0.6651
C99 C 0.5823(13) 0.5845(9) 0.6591(5)
H96 H 0.5491 0.5968 0.6595
C100 C 0.4665(11) 0.2926(8) 0.4048(4)
H97 H 0.4660 0.3317 0.3983
C101 C 0.4225(15) 0.2322(11) 0.3895(5)
H98 H 0.3974 0.2316 0.3697
C102 C 0.4142(15) 0.1710(10) 0.4026(5)
H99 H 0.3807 0.1301 0.3933
C103 C 0.6249(14) 0.5963(10) 0.6877(5)
H100 H 0.6339 0.6311 0.7037
C104 C 0.6526(13) 0.5594(9) 0.6927(4)
H101 H 0.6647 0.5534 0.7156
C105 C 0.8886(15) 0.7022(10) 0.4868(5)
H102 H 0.9249 0.7286 0.4717
N8 N 0.4698(4) 0.5311(5) 0.48851(15)
C106 C 0.5420(4) 0.5775(6) 0.4905(2)
H103 H 0.5507 0.6175 0.5038
H104 H 0.5602 0.5914 0.4665
C107 C 0.4447(5) 0.5022(6) 0.5249(2)
H105 H 0.3957 0.4758 0.5248
H106 H 0.4584 0.5385 0.5422
C108 C 0.4574(4) 0.4737(6) 0.4645(2)
H107 H 0.4668 0.4894 0.4399
H108 H 0.4103 0.4386 0.4661
Co5 Co 0.6667 0.3333 0.84368(4)
Co6 Co 0.58316(7) 0.16653(5) 0.96892(2)
Al5 Al 0.6667 0.3333 0.98411(8)
Al6 Al 0.58384(9) 0.29192(12) 0.92187(5)
O29 O 0.6297(3) 0.25933(19) 0.95152(10)
O31 O 0.5419(2) 0.3292(3) 0.89365(13)
O32 O 0.5046(2) 0.2503(3) 0.94988(11)
O33 O 0.6667 0.3333 0.89604(17)
O34 O 0.5781(3) 0.3368(3) 0.83699(14)
O36 O 0.5431(3) 0.2144(3) 0.89223(12)
O37 O 0.5176(3) 0.1253(3) 0.92660(14)
O38 O 0.4882(3) 0.3330(3) 0.97154(15)
C110 C 0.4704(4) 0.2725(5) 0.9659(2)
C111 C 0.5157(4) 0.1519(4) 0.8986(2)
C112 C 0.5416(4) 0.3410(4) 0.8607(2)
C114 C 0.4749(6) 0.1064(5) 0.8674(3)
C115 C 0.4932(5) 0.3634(6) 0.8500(3)
C116 C 0.4015(6) 0.2186(5) 0.9788(3)
C117 C 0.3837(6) 0.1547(6) 0.9744(4)
H109 H 0.4136 0.1438 0.9634
C118 C 0.4469(9) 0.0388(7) 0.8703(4)
H110 H 0.4486 0.0196 0.8920
C119 C 0.4505(7) 0.3641(7) 0.8739(3)
H111 H 0.4544 0.3538 0.8976
C121 C 0.3627(8) 0.2388(8) 0.9988(4)
C123 C 0.3168(9) 0.0995(9) 0.9865(4)
H115 H 0.3029 0.0541 0.9831
C124 C 0.4915(8) 0.3831(9) 0.8155(3)
H116 H 0.5185 0.3786 0.7983
C125 C 0.4000(8) 0.3794(9) 0.8654(5)
H117 H 0.3668 0.3736 0.8818
C127 C 0.4023(11) 0.4036(11) 0.8311(6)
H119 H 0.3706 0.4161 0.8251
C128 C 0.4492(9) 0.4106(9) 0.8049(5)
H120 H 0.4528 0.4309 0.7828
C129 C 0.4711(6) 0.1351(6) 0.8365(3)
H121 H 0.4885 0.1816 0.8349
C134 C 0.4037(10) 0.0286(10) 0.8123(5)
H126 H 0.3689 0.0028 0.7963
C135 C 0.4406(9) 0.0932(9) 0.8073(4)
H127 H 0.4466 0.1113 0.7844
Co7 Co 0.83347(5) 0.41663(9) 0.96892(2)
Al7 Al 0.70808(12) 0.29192(15) 0.92187(5)
O39 O 0.74067(19) 0.37037(36) 0.95152(10)
O41 O 0.6708(3) 0.2127(4) 0.89365(13)
O42 O 0.7497(3) 0.2543(4) 0.94988(11)
O43 O 0.6632(3) 0.2413(4) 0.83699(14)
O45 O 0.7856(3) 0.3287(4) 0.89223(12)
O46 O 0.8747(3) 0.3923(4) 0.92660(14)
O47 O 0.6670(3) 0.1552(4) 0.97154(15)
C138 C 0.7275(5) 0.1979(6) 0.9659(2)
C139 C 0.8481(4) 0.3638(6) 0.8986(2)
C140 C 0.6590(4) 0.2006(6) 0.8607(2)
C142 C 0.8936(5) 0.3685(8) 0.8674(3)
C143 C 0.6366(6) 0.1298(8) 0.8500(3)
C144 C 0.7814(5) 0.1829(8) 0.9788(3)
C145 C 0.8453(6) 0.2290(8) 0.9744(4)
H129 H 0.8562 0.2698 0.9634
C146 C 0.9612(7) 0.4081(11) 0.8703(4)
H130 H 0.9804 0.4290 0.8920
C147 C 0.6359(7) 0.0864(10) 0.8739(3)
H131 H 0.6462 0.1006 0.8976
C149 C 0.7612(8) 0.1239(11) 0.9988(4)
C151 C 0.9005(9) 0.2173(13) 0.9865(4)
H135 H 0.9459 0.2488 0.9831
C152 C 0.6169(9) 0.1084(12) 0.8155(3)
H136 H 0.6214 0.1399 0.7983
C153 C 0.6206(9) 0.0206(12) 0.8654(5)
C156 C 0.5894(9) 0.0386(13) 0.8049(5)
H140 H 0.5691 0.0219 0.7828
C157 C 0.8649(6) 0.3360(8) 0.8365(3)
H141 H 0.8184 0.3069 0.8349
C162 C 0.9714(10) 0.3751(14) 0.8123(5)
H146 H 0.9972 0.3661 0.7963
C163 C 0.9068(9) 0.3474(13) 0.8073(4)
H147 H 0.8887 0.3353 0.7844
Co8 Co 0.58337(9) 0.41684(7) 0.96892(2)
Al8 Al 0.70808(15) 0.41616(9) 0.92187(5)
O48 O 0.62963(36) 0.3703(3) 0.95152(10)
O50 O 0.7873(4) 0.4581(2) 0.89365(13)
O51 O 0.7457(4) 0.4954(2) 0.94988(11)
O52 O 0.7587(4) 0.4219(3) 0.83699(14)
O54 O 0.6713(4) 0.4569(3) 0.89223(12)
O55 O 0.6077(4) 0.4824(3) 0.92660(14)
O56 O 0.8448(4) 0.5118(3) 0.97154(15)
C166 C 0.8021(6) 0.5296(4) 0.9659(2)
C167 C 0.6362(6) 0.4843(4) 0.8986(2)
C168 C 0.7994(6) 0.4584(4) 0.8607(2)
C170 C 0.6315(8) 0.5251(6) 0.8674(3)
C171 C 0.8702(8) 0.5068(5) 0.8500(3)
C172 C 0.8171(8) 0.5985(6) 0.9788(3)
C173 C 0.7710(8) 0.6163(6) 0.9744(4)
H149 H 0.7302 0.5864 0.9634
C174 C 0.5919(11) 0.5531(9) 0.8703(4)
H150 H 0.5710 0.5514 0.8920
C175 C 0.9136(10) 0.5495(7) 0.8739(3)
H151 H 0.8994 0.5456 0.8976
C177 C 0.8761(11) 0.6373(8) 0.9988(4)
C179 C 0.7827(13) 0.6832(9) 0.9865(4)
H155 H 0.7512 0.6971 0.9831
C180 C 0.8916(12) 0.5085(8) 0.8155(3)
H156 H 0.8601 0.4815 0.7983
C181 C 0.9794(12) 0.6000(8) 0.8654(5)
C184 C 0.9614(13) 0.5508(9) 0.8049(5)
H160 H 0.9781 0.5472 0.7828
C185 C 0.6640(8) 0.5289(6) 0.8365(3)
H161 H 0.6931 0.5115 0.8349
C186 C 0.5823(13) 0.5845(9) 0.8409(5)
H162 H 0.5491 0.5968 0.8405
C190 C 0.6249(14) 0.5963(10) 0.8123(5)
H166 H 0.6339 0.6311 0.7963
C191 C 0.6526(13) 0.5594(9) 0.8073(4)
H167 H 0.6647 0.5534 0.7844
Co11 Co 0.41684(7) 0.58337(9) 0.46892(2)
N9 N 0.5302(4) 0.0613(3) 0.98851(15)
N10 N 0.9387(3) 0.4689(5) 0.98851(15)
N11 N 0.5311(5) 0.4698(4) 0.98851(15)
C26 C 0.4155(9) 0.9978(9) 0.6591(5)
H22 H 0.4032 0.9523 0.6595
N3 N 0.4689(5) 0.9387(3) 0.48851(15)
C33 C 0.4225(6) 0.9645(4) 0.4905(2)
H29 H 0.3825 0.9332 0.5038
H30 H 0.4086 0.9688 0.4665
C34 C 0.4978(6) 0.9425(4) 0.5249(2)
H31 H 0.5242 0.9199 0.5248
H32 H 0.4615 0.9199 0.5422
C35 C 0.5263(6) 0.9837(4) 0.4645(2)
H33 H 0.5106 0.9774 0.4399
H34 H 0.5614 0.9717 0.4661
H59 H 0.6264 0.9932 0.6182
C62 C 0.5964(11) 0.9987(16) 0.6689(6)
H61 H 0.5839 0.9545 0.6749
C130 C 0.4155(9) 0.9978(9) 0.8409(5)
H122 H 0.4032 0.9523 0.8405
H137 H 0.6264 0.9932 0.8818
C155 C 0.5964(11) 0.9987(16) 0.8311(6)
H139 H 0.5839 0.9545 0.8251
Co10 Co 0.41663(9) 0.83347(5) 0.46892(2)
N6_2 N 0.0613(3) 0.5302(4) 0.01149(15)
C72_2 C 0.0355(4) 0.4580(4) 0.0095(2)
H72_2 H 0.0312 0.4398 0.0335
C74_2 C 0.0163(4) 0.5426(4) 0.0355(2)
H75_2 H 0.0226 0.5332 0.0601
H76_2 H 0.0283 0.5897 0.0339
Co9_2 Co 0.16653(5) 0.58316(7) 0.03108(2)
H71_2 H 0.0668 0.4493 0.9962
C73_2 C 0.0575(4) 0.5553(5) 0.9751(2)
H73_2 H 0.0801 0.6043 0.9752
H74_2 H 0.0801 0.5416 0.9578
H1_2 H 0.4493 0.0668 0.0038
C6_2 C 0.5553(5) 0.0575(4) 0.0249(2)
H3_2 H 0.6043 0.0801 0.0248
H4_2 H 0.5416 0.0801 0.0422
H45_2 H 0.9332 0.3825 0.0038
C46_2 C 0.9425(4) 0.4978(6) 0.0249(2)
H47_2 H 0.9199 0.5242 0.0248
H48_2 H 0.9199 0.4615 0.0422
H77_2 H 0.6175 0.5507 0.0038
C80_2 C 0.5022(6) 0.4447(5) 0.0249(2)
H79_2 H 0.4758 0.3957 0.0248
H80_2 H 0.5385 0.4584 0.0422
N8_2 N 0.4698(4) 0.5311(5) 0.01149(15)
C106_2 C 0.5420(4) 0.5775(6) 0.0095(2)
H104_2 H 0.5602 0.5914 0.0335
C108_2 C 0.4574(4) 0.4737(6) 0.0355(2)
H107_2 H 0.4668 0.4894 0.0601
H108_2 H 0.4103 0.4386 0.0339
Co11_2 Co 0.41684(7) 0.58337(9) 0.03108(2)
C4_2 C 0.4580(4) 0.0355(4) 0.9905(2)
H2_2 H 0.4398 0.0312 0.9665
C7_2 C 0.5426(4) 0.0163(4) 0.9645(2)
H5_2 H 0.5332 0.0226 0.9399
H6_2 H 0.5897 0.0283 0.9661
C44_2 C 0.9645(4) 0.4225(6) 0.9905(2)
H46_2 H 0.9688 0.4086 0.9665
C47_2 C 0.9837(4) 0.5263(6) 0.9645(2)
H49_2 H 0.9774 0.5106 0.9399
H50_2 H 0.9717 0.5614 0.9661
C78_2 C 0.5775(6) 0.5420(4) 0.9905(2)
H78_2 H 0.5914 0.5602 0.9665
C81_2 C 0.4737(6) 0.4574(4) 0.9645(2)
H81_2 H 0.4894 0.4668 0.9399
H82_2 H 0.4386 0.4103 0.9661
H103_2 H 0.5507 0.6175 0.9962
C107_2 C 0.4447(5) 0.5022(6) 0.9751(2)
H105_2 H 0.3957 0.4758 0.9752
H106_2 H 0.4584 0.5385 0.9578
N3_2 N 0.4689(5) 0.9387(3) 0.01149(15)
C33_2 C 0.4225(6) 0.9645(4) 0.0095(2)
H30_2 H 0.4086 0.9688 0.0335
C35_2 C 0.5263(6) 0.9837(4) 0.0355(2)
H33_2 H 0.5106 0.9774 0.0601
H34_2 H 0.5614 0.9717 0.0339
Co10_2 Co 0.41663(9) 0.83347(5) 0.03108(2)
H29_2 H 0.3825 0.9332 0.9962
C34_2 C 0.4978(6) 0.9425(4) 0.9751(2)
H31_2 H 0.5242 0.9199 0.9752
H32_2 H 0.4615 0.9199 0.9578
C65_2 C 0.4177(13) 0.0022(9) 0.3409(5)
H64_2 H 0.4509 0.0477 0.3405
H91_2 H 0.6332 0.0068 0.3818
C96_2 C 0.5977(11) 0.0013(16) 0.3311(6)
H93_2 H 0.6294 0.0455 0.3251
C158_2 C 0.4177(13) 0.0022(9) 0.1591(5)
H142_2 H 0.4509 0.0477 0.1595
H157_2 H 0.6332 0.0068 0.1182
C183_2 C 0.5977(11) 0.0013(16) 0.1689(6)
H159_2 H 0.6294 0.0455 0.1749
Co1_2 Co 0.3333 0.6667 0.34368(4)
Al1_2 Al 0.3333 0.6667 0.48411(8)
Al2_2 Al 0.29192(12) 0.58384(9) 0.42187(5)
O1_2 O 0.25933(19) 0.6297(3) 0.45152(10)
O2_2 O 0.2928(3) 0.7030(3) 0.51459(11)
O3_2 O 0.3292(3) 0.5419(2) 0.39365(13)
O4_2 O 0.2503(3) 0.5046(2) 0.44988(11)
O5_2 O 0.3333 0.6667 0.39604(17)
O6_2 O 0.3368(3) 0.5781(3) 0.33699(14)
O7_2 O 0.3618(3) 0.8148(3) 0.51608(15)
O8_2 O 0.2144(3) 0.5431(3) 0.39223(12)
O9_2 O 0.1253(3) 0.5176(3) 0.42660(14)
O10_2 O 0.3330(3) 0.4882(3) 0.47154(15)
N2_2 N 0.3333 0.6667 0.2851(2)
C1_2 C 0.3124(4) 0.7611(4) 0.5267(2)
C2_2 C 0.2725(5) 0.4704(4) 0.4659(2)
C3_2 C 0.1519(4) 0.5157(4) 0.3986(2)
C5_2 C 0.3410(4) 0.5416(4) 0.3607(2)
C8_2 C 0.2706(5) 0.7653(5) 0.5567(3)
C9_2 C 0.1064(5) 0.4749(6) 0.3674(3)
C10_2 C 0.3634(6) 0.4932(5) 0.3500(3)
C11_2 C 0.2186(5) 0.4015(6) 0.4788(3)
C12_2 C 0.1547(6) 0.3837(6) 0.4744(4)
H7_2 H 0.1438 0.4136 0.4634
C13_2 C 0.3975(4) 0.6745(4) 0.2705(2)
H8_2 H 0.4035 0.6378 0.2791
H9_2 H 0.4352 0.7167 0.2791
C14_2 C 0.0388(7) 0.4469(9) 0.3703(4)
H10_2 H 0.0196 0.4486 0.3920
C15_2 C 0.3641(7) 0.4505(7) 0.3739(3)
H11_2 H 0.3538 0.4544 0.3976
C16_2 C 0.2168(6) 0.7047(6) 0.5697(3)
H12_2 H 0.2099 0.6633 0.5614
C17_2 C 0.2388(8) 0.3627(8) 0.4988(4)
H13_2 H 0.2844 0.3778 0.5028
C18_2 C 0.2849(8) 0.8282(6) 0.5699(4)
H14_2 H 0.3206 0.8680 0.5609
C19_2 C 0.0995(9) 0.3168(9) 0.4865(4)
H15_2 H 0.0541 0.3029 0.4831
C20_2 C 0.3831(9) 0.4915(8) 0.3155(3)
H16_2 H 0.3786 0.5185 0.2983
C21_2 C 0.3794(9) 0.4000(8) 0.3654(5)
H17_2 H 0.3736 0.3668 0.3818
C22_2 C 0.1197(10) 0.2782(10) 0.5026(5)
H18_2 H 0.0866 0.2338 0.5075
C23_2 C 0.4036(11) 0.4023(11) 0.3311(6)
H19_2 H 0.4161 0.3706 0.3251
C24_2 C 0.4106(9) 0.4492(9) 0.3049(5)
H20_2 H 0.4309 0.4528 0.2828
C25_2 C 0.1351(6) 0.4711(6) 0.3365(3)
H21_2 H 0.1816 0.4885 0.3349
C27_2 C 0.1739(8) 0.7074(8) 0.5952(4)
H23_2 H 0.1343 0.6683 0.6017
C28_2 C 0.1903(10) 0.7678(11) 0.6105(5)
H24_2 H 0.1658 0.7684 0.6303
C29_2 C 0.2432(11) 0.8290(10) 0.5974(5)
H25_2 H 0.2506 0.8699 0.6067
C30_2 C 0.0286(10) 0.4037(10) 0.3123(5)
H26_2 H 0.0028 0.3689 0.2963
C31_2 C 0.0932(9) 0.4406(9) 0.3073(4)
H27_2 H 0.1113 0.4466 0.2844
C32_2 C 0.1864(11) 0.2978(10) 0.5132(5)
H28_2 H 0.1963 0.2714 0.5283
C36_2 C 0.2770(6) 0.6025(4) 0.2705(2)
H35_2 H 0.2343 0.5965 0.2791
H36_2 H 0.2815 0.5648 0.2791
C37_2 C 0.3255(4) 0.7230(6) 0.2705(2)
H37_2 H 0.3622 0.7657 0.2791
H38_2 H 0.2833 0.7185 0.2791
N4_2 N 0.3333 0.6667 0.2149(2)
C38_2 C 0.3975(4) 0.6745(4) 0.2295(2)
H39_2 H 0.4035 0.6378 0.2209
H40_2 H 0.4352 0.7167 0.2209
C39_2 C 0.2770(6) 0.6025(4) 0.2295(2)
H41_2 H 0.2343 0.5965 0.2209
H42_2 H 0.2815 0.5648 0.2209
C40_2 C 0.3255(4) 0.7230(6) 0.2295(2)
H43_2 H 0.3622 0.7657 0.2209
H44_2 H 0.2833 0.7185 0.2209
Al3_2 Al 0.29192(15) 0.70808(12) 0.42187(5)
O11_2 O 0.37037(36) 0.74067(19) 0.45152(10)
O12_2 O 0.4102(4) 0.7072(3) 0.51459(11)
O13_2 O 0.2127(4) 0.6708(3) 0.39365(13)
O14_2 O 0.2543(4) 0.7497(3) 0.44988(11)
O15_2 O 0.2413(4) 0.6632(3) 0.33699(14)
O16_2 O 0.4530(4) 0.6382(3) 0.51608(15)
O17_2 O 0.3287(4) 0.7856(3) 0.39223(12)
O18_2 O 0.3923(4) 0.8747(3) 0.42660(14)
O19_2 O 0.1552(4) 0.6670(3) 0.47154(15)
C41_2 C 0.4487(6) 0.6876(4) 0.5267(2)
C42_2 C 0.1979(6) 0.7275(5) 0.4659(2)
C43_2 C 0.3638(6) 0.8481(4) 0.3986(2)
C45_2 C 0.2006(6) 0.6590(4) 0.3607(2)
C48_2 C 0.4947(7) 0.7294(5) 0.5567(3)
C49_2 C 0.3685(8) 0.8936(5) 0.3674(3)
C50_2 C 0.1298(8) 0.6366(6) 0.3500(3)
C51_2 C 0.1829(8) 0.7814(5) 0.4788(3)
C52_2 C 0.2290(8) 0.8453(6) 0.4744(4)
H51_2 H 0.2698 0.8562 0.4634
C53_2 C 0.4081(11) 0.9612(7) 0.3703(4)
H52_2 H 0.4290 0.9804 0.3920
C54_2 C 0.0864(10) 0.6359(7) 0.3739(3)
H53_2 H 0.1006 0.6462 0.3976
C55_2 C 0.4879(8) 0.7832(6) 0.5697(3)
H54_2 H 0.4534 0.7901 0.5614
C56_2 C 0.1239(11) 0.7612(8) 0.4988(4)
H55_2 H 0.0934 0.7156 0.5028
C57_2 C 0.5433(10) 0.7151(8) 0.5699(4)
H56_2 H 0.5474 0.6794 0.5609
C58_2 C 0.2173(13) 0.9005(9) 0.4865(4)
H57_2 H 0.2488 0.9459 0.4831
C59_2 C 0.1084(12) 0.6169(9) 0.3155(3)
H58_2 H 0.1399 0.6214 0.2983
C60_2 C 0.0206(12) 0.6206(9) 0.3654(5)
C61_2 C 0.1585(14) 0.8803(10) 0.5026(5)
H60_2 H 0.1472 0.9134 0.5075
C63_2 C 0.0386(13) 0.5894(9) 0.3049(5)
H62_2 H 0.0219 0.5691 0.2828
C64_2 C 0.3360(8) 0.8649(6) 0.3365(3)
H63_2 H 0.3069 0.8184 0.3349
C66_2 C 0.5335(11) 0.8261(8) 0.5952(4)
H65_2 H 0.5340 0.8657 0.6017
C67_2 C 0.5775(15) 0.8097(10) 0.6105(5)
H66_2 H 0.6026 0.8342 0.6303
C68_2 C 0.5858(15) 0.7568(11) 0.5974(5)
H67_2 H 0.6193 0.7494 0.6067
C69_2 C 0.3751(14) 0.9714(10) 0.3123(5)
H68_2 H 0.3661 0.9972 0.2963
C70_2 C 0.3474(13) 0.9068(9) 0.3073(4)
H69_2 H 0.3353 0.8887 0.2844
C71_2 C 0.1114(15) 0.8136(11) 0.5132(5)
H70_2 H 0.0751 0.8037 0.5283
Al4_2 Al 0.41616(9) 0.70808(15) 0.42187(5)
O20_2 O 0.3703(3) 0.62963(36) 0.45152(10)
O21_2 O 0.2970(3) 0.5898(4) 0.51459(11)
O22_2 O 0.4581(2) 0.7873(4) 0.39365(13)
O23_2 O 0.4954(2) 0.7457(4) 0.44988(11)
O24_2 O 0.4219(3) 0.7587(4) 0.33699(14)
O25_2 O 0.1852(3) 0.5470(4) 0.51608(15)
O26_2 O 0.4569(3) 0.6713(4) 0.39223(12)
O27_2 O 0.4824(3) 0.6077(4) 0.42660(14)
O28_2 O 0.5118(3) 0.8448(4) 0.47154(15)
C75_2 C 0.2389(4) 0.5513(6) 0.5267(2)
C76_2 C 0.5296(4) 0.8021(6) 0.4659(2)
C77_2 C 0.4843(4) 0.6362(6) 0.3986(2)
C79_2 C 0.4584(4) 0.7994(6) 0.3607(2)
C82_2 C 0.2347(5) 0.5053(7) 0.5567(3)
C83_2 C 0.5251(6) 0.6315(8) 0.3674(3)
C84_2 C 0.5068(5) 0.8702(8) 0.3500(3)
C85_2 C 0.5985(6) 0.8171(8) 0.4788(3)
C86_2 C 0.6163(6) 0.7710(8) 0.4744(4)
H83_2 H 0.5864 0.7302 0.4634
C87_2 C 0.5531(9) 0.5919(11) 0.3703(4)
H84_2 H 0.5514 0.5710 0.3920
C88_2 C 0.5495(7) 0.9136(10) 0.3739(3)
H85_2 H 0.5456 0.8994 0.3976
C89_2 C 0.2953(6) 0.5121(8) 0.5697(3)
H86_2 H 0.3367 0.5466 0.5614
C90_2 C 0.6373(8) 0.8761(11) 0.4988(4)
H87_2 H 0.6222 0.9066 0.5028
C91_2 C 0.1718(6) 0.4567(10) 0.5699(4)
H88_2 H 0.1320 0.4526 0.5609
C92_2 C 0.6832(9) 0.7827(13) 0.4865(4)
H89_2 H 0.6971 0.7512 0.4831
C93_2 C 0.5085(8) 0.8916(12) 0.3155(3)
H90_2 H 0.4815 0.8601 0.2983
C94_2 C 0.6000(8) 0.9794(12) 0.3654(5)
C95_2 C 0.7218(10) 0.8415(14) 0.5026(5)
H92_2 H 0.7662 0.8528 0.5075
C97_2 C 0.5508(9) 0.9614(13) 0.3049(5)
H94_2 H 0.5472 0.9781 0.2828
C98_2 C 0.5289(6) 0.6640(8) 0.3365(3)
H95_2 H 0.5115 0.6931 0.3349
C99_2 C 0.5845(9) 0.5823(13) 0.3409(5)
H96_2 H 0.5968 0.5491 0.3405
C100_2 C 0.2926(8) 0.4665(11) 0.5952(4)
H97_2 H 0.3317 0.4660 0.6017
C101_2 C 0.2322(11) 0.4225(15) 0.6105(5)
H98_2 H 0.2316 0.3974 0.6303
C102_2 C 0.1710(10) 0.4142(15) 0.5974(5)
H99_2 H 0.1301 0.3807 0.6067
C103_2 C 0.5963(10) 0.6249(14) 0.3123(5)
H100_2 H 0.6311 0.6339 0.2963
C104_2 C 0.5594(9) 0.6526(13) 0.3073(4)
H101_2 H 0.5534 0.6647 0.2844
C105_2 C 0.7022(10) 0.8886(15) 0.5132(5)
H102_2 H 0.7286 0.9249 0.5283
Co5_2 Co 0.3333 0.6667 0.15632(4)
Al5_2 Al 0.3333 0.6667 0.01589(8)
Al6_2 Al 0.29192(12) 0.58384(9) 0.07813(5)
O29_2 O 0.25933(19) 0.6297(3) 0.04848(10)
O31_2 O 0.3292(3) 0.5419(2) 0.10635(13)
O32_2 O 0.2503(3) 0.5046(2) 0.05012(11)
O33_2 O 0.3333 0.6667 0.10396(17)
O34_2 O 0.3368(3) 0.5781(3) 0.16301(14)
O36_2 O 0.2144(3) 0.5431(3) 0.10777(12)
O37_2 O 0.1253(3) 0.5176(3) 0.07340(14)
O38_2 O 0.3330(3) 0.4882(3) 0.02846(15)
C110_2 C 0.2725(5) 0.4704(4) 0.0341(2)
C111_2 C 0.1519(4) 0.5157(4) 0.1014(2)
C112_2 C 0.3410(4) 0.5416(4) 0.1393(2)
C114_2 C 0.1064(5) 0.4749(6) 0.1326(3)
C115_2 C 0.3634(6) 0.4932(5) 0.1500(3)
C116_2 C 0.2186(5) 0.4015(6) 0.0212(3)
C117_2 C 0.1547(6) 0.3837(6) 0.0256(4)
H109_2 H 0.1438 0.4136 0.0366
C118_2 C 0.0388(7) 0.4469(9) 0.1297(4)
H110_2 H 0.0196 0.4486 0.1080
C119_2 C 0.3641(7) 0.4505(7) 0.1261(3)
H111_2 H 0.3538 0.4544 0.1024
C121_2 C 0.2388(8) 0.3627(8) 0.0012(4)
C123_2 C 0.0995(9) 0.3168(9) 0.0135(4)
H115_2 H 0.0541 0.3029 0.0169
C124_2 C 0.3831(9) 0.4915(8) 0.1845(3)
H116_2 H 0.3786 0.5185 0.2017
C125_2 C 0.3794(9) 0.4000(8) 0.1346(5)
H117_2 H 0.3736 0.3668 0.1182
C127_2 C 0.4036(11) 0.4023(11) 0.1689(6)
H119_2 H 0.4161 0.3706 0.1749
C128_2 C 0.4106(9) 0.4492(9) 0.1951(5)
H120_2 H 0.4309 0.4528 0.2172
C129_2 C 0.1351(6) 0.4711(6) 0.1635(3)
H121_2 H 0.1816 0.4885 0.1651
C134_2 C 0.0286(10) 0.4037(10) 0.1877(5)
H126_2 H 0.0028 0.3689 0.2037
C135_2 C 0.0932(9) 0.4406(9) 0.1927(4)
H127_2 H 0.1113 0.4466 0.2156
Al7_2 Al 0.29192(15) 0.70808(12) 0.07813(5)
O39_2 O 0.37037(36) 0.74067(19) 0.04848(10)
O41_2 O 0.2127(4) 0.6708(3) 0.10635(13)
O42_2 O 0.2543(4) 0.7497(3) 0.05012(11)
O43_2 O 0.2413(4) 0.6632(3) 0.16301(14)
O45_2 O 0.3287(4) 0.7856(3) 0.10777(12)
O46_2 O 0.3923(4) 0.8747(3) 0.07340(14)
O47_2 O 0.1552(4) 0.6670(3) 0.02846(15)
C138_2 C 0.1979(6) 0.7275(5) 0.0341(2)
C139_2 C 0.3638(6) 0.8481(4) 0.1014(2)
C140_2 C 0.2006(6) 0.6590(4) 0.1393(2)
C142_2 C 0.3685(8) 0.8936(5) 0.1326(3)
C143_2 C 0.1298(8) 0.6366(6) 0.1500(3)
C144_2 C 0.1829(8) 0.7814(5) 0.0212(3)
C145_2 C 0.2290(8) 0.8453(6) 0.0256(4)
H129_2 H 0.2698 0.8562 0.0366
C146_2 C 0.4081(11) 0.9612(7) 0.1297(4)
H130_2 H 0.4290 0.9804 0.1080
C147_2 C 0.0864(10) 0.6359(7) 0.1261(3)
H131_2 H 0.1006 0.6462 0.1024
C149_2 C 0.1239(11) 0.7612(8) 0.0012(4)
C151_2 C 0.2173(13) 0.9005(9) 0.0135(4)
H135_2 H 0.2488 0.9459 0.0169
C152_2 C 0.1084(12) 0.6169(9) 0.1845(3)
H136_2 H 0.1399 0.6214 0.2017
C153_2 C 0.0206(12) 0.6206(9) 0.1346(5)
C156_2 C 0.0386(13) 0.5894(9) 0.1951(5)
H140_2 H 0.0219 0.5691 0.2172
C157_2 C 0.3360(8) 0.8649(6) 0.1635(3)
H141_2 H 0.3069 0.8184 0.1651
C162_2 C 0.3751(14) 0.9714(10) 0.1877(5)
H146_2 H 0.3661 0.9972 0.2037
C163_2 C 0.3474(13) 0.9068(9) 0.1927(4)
H147_2 H 0.3353 0.8887 0.2156
Al8_2 Al 0.41616(9) 0.70808(15) 0.07813(5)
O48_2 O 0.3703(3) 0.62963(36) 0.04848(10)
O50_2 O 0.4581(2) 0.7873(4) 0.10635(13)
O51_2 O 0.4954(2) 0.7457(4) 0.05012(11)
O52_2 O 0.4219(3) 0.7587(4) 0.16301(14)
O54_2 O 0.4569(3) 0.6713(4) 0.10777(12)
O55_2 O 0.4824(3) 0.6077(4) 0.07340(14)
O56_2 O 0.5118(3) 0.8448(4) 0.02846(15)
C166_2 C 0.5296(4) 0.8021(6) 0.0341(2)
C167_2 C 0.4843(4) 0.6362(6) 0.1014(2)
C168_2 C 0.4584(4) 0.7994(6) 0.1393(2)
C170_2 C 0.5251(6) 0.6315(8) 0.1326(3)
C171_2 C 0.5068(5) 0.8702(8) 0.1500(3)
C172_2 C 0.5985(6) 0.8171(8) 0.0212(3)
C173_2 C 0.6163(6) 0.7710(8) 0.0256(4)
H149_2 H 0.5864 0.7302 0.0366
C174_2 C 0.5531(9) 0.5919(11) 0.1297(4)
H150_2 H 0.5514 0.5710 0.1080
C175_2 C 0.5495(7) 0.9136(10) 0.1261(3)
H151_2 H 0.5456 0.8994 0.1024
C177_2 C 0.6373(8) 0.8761(11) 0.0012(4)
C179_2 C 0.6832(9) 0.7827(13) 0.0135(4)
H155_2 H 0.6971 0.7512 0.0169
C180_2 C 0.5085(8) 0.8916(12) 0.1845(3)
H156_2 H 0.4815 0.8601 0.2017
C181_2 C 0.6000(8) 0.9794(12) 0.1346(5)
C184_2 C 0.5508(9) 0.9614(13) 0.1951(5)
H160_2 H 0.5472 0.9781 0.2172
C185_2 C 0.5289(6) 0.6640(8) 0.1635(3)
H161_2 H 0.5115 0.6931 0.1651
C186_2 C 0.5845(9) 0.5823(13) 0.1591(5)
H162_2 H 0.5968 0.5491 0.1595
C190_2 C 0.5963(10) 0.6249(14) 0.1877(5)
H166_2 H 0.6311 0.6339 0.2037
C191_2 C 0.5594(9) 0.6526(13) 0.1927(4)
H167_2 H 0.5534 0.6647 0.2156
O30_2 O 0.2928(3) 0.7030(3) 0.98541(11)
O35_2 O 0.3618(3) 0.8148(3) 0.98392(15)
C109_2 C 0.3124(4) 0.7611(4) 0.9733(2)
C113_2 C 0.2706(5) 0.7653(5) 0.9433(3)
C120_2 C 0.2168(6) 0.7047(6) 0.9303(3)
H112_2 H 0.2099 0.6633 0.9386
H113_2 H 0.2844 0.3778 0.9972
C122_2 C 0.2849(8) 0.8282(6) 0.9301(4)
H114_2 H 0.3206 0.8680 0.9391
C126_2 C 0.1197(10) 0.2782(10) 0.9974(5)
H118_2 H 0.0866 0.2338 0.9925
C131_2 C 0.1739(8) 0.7074(8) 0.9048(4)
H123_2 H 0.1343 0.6683 0.8983
C132_2 C 0.1903(10) 0.7678(11) 0.8895(5)
H124_2 H 0.1658 0.7684 0.8697
C133_2 C 0.2432(11) 0.8290(10) 0.9026(5)
H125_2 H 0.2506 0.8699 0.8933
C136_2 C 0.1864(11) 0.2978(10) 0.9868(5)
H128_2 H 0.1963 0.2714 0.9717
O40_2 O 0.4102(4) 0.7072(3) 0.98541(11)
O44_2 O 0.4530(4) 0.6382(3) 0.98392(15)
C137_2 C 0.4487(6) 0.6876(4) 0.9733(2)
C141_2 C 0.4947(7) 0.7294(5) 0.9433(3)
C148_2 C 0.4879(8) 0.7832(6) 0.9303(3)
H132_2 H 0.4534 0.7901 0.9386
H133_2 H 0.0934 0.7156 0.9972
C150_2 C 0.5433(10) 0.7151(8) 0.9301(4)
H134_2 H 0.5474 0.6794 0.9391
C154_2 C 0.1585(14) 0.8803(10) 0.9974(5)
H138_2 H 0.1472 0.9134 0.9925
C159_2 C 0.5335(11) 0.8261(8) 0.9048(4)
H143_2 H 0.5340 0.8657 0.8983
C160_2 C 0.5775(15) 0.8097(10) 0.8895(5)
H144_2 H 0.6026 0.8342 0.8697
C161_2 C 0.5858(15) 0.7568(11) 0.9026(5)
H145_2 H 0.6193 0.7494 0.8933
C164_2 C 0.1114(15) 0.8136(11) 0.9868(5)
H148_2 H 0.0751 0.8037 0.9717
O49_2 O 0.2970(3) 0.5898(4) 0.98541(11)
O53_2 O 0.1852(3) 0.5470(4) 0.98392(15)
C165_2 C 0.2389(4) 0.5513(6) 0.9733(2)
C169_2 C 0.2347(5) 0.5053(7) 0.9433(3)
C176_2 C 0.2953(6) 0.5121(8) 0.9303(3)
H152_2 H 0.3367 0.5466 0.9386
H153_2 H 0.6222 0.9066 0.9972
C178_2 C 0.1718(6) 0.4567(10) 0.9301(4)
H154_2 H 0.1320 0.4526 0.9391
C182_2 C 0.7218(10) 0.8415(14) 0.9974(5)
H158_2 H 0.7662 0.8528 0.9925
C187_2 C 0.2926(8) 0.4665(11) 0.9048(4)
H163_2 H 0.3317 0.4660 0.8983
C188_2 C 0.2322(11) 0.4225(15) 0.8895(5)
H164_2 H 0.2316 0.3974 0.8697
C189_2 C 0.1710(10) 0.4142(15) 0.9026(5)
H165_2 H 0.1301 0.3807 0.8933
C192_2 C 0.7022(10) 0.8886(15) 0.9868(5)
H168_2 H 0.7286 0.9249 0.9717
C26_2 C 0.9978(9) 0.4155(9) 0.3409(5)
H22_2 H 0.9523 0.4032 0.3405
H59_2 H 0.9932 0.6264 0.3818
C62_2 C 0.9987(16) 0.5964(11) 0.3311(6)
H61_2 H 0.9545 0.5839 0.3251
C130_2 C 0.9978(9) 0.4155(9) 0.1591(5)
H122_2 H 0.9523 0.4032 0.1595
H137_2 H 0.9932 0.6264 0.1182
C155_2 C 0.9987(16) 0.5964(11) 0.1689(6)
H139_2 H 0.9545 0.5839 0.1749
loop_
_geom_bond_atom_site_label_1
_geom_bond_atom_site_label_2
_geom_bond_site_symmetry_1
_geom_bond_site_symmetry_2
H64 C65 1_555 1_555
N6 C72 1_555 1_555
H71 C72 1_555 1_555
H72 C72 1_555 1_555
H73 C73 1_555 1_555
H74 C73 1_555 1_555
H75 C74 1_555 1_555
H76 C74 1_555 1_555
H93 C96 1_555 1_555
H142 C158 1_555 1_555
H159 C183 1_555 1_555
Co9 N6 1_555 1_555
N6 C73 1_555 1_555
N6 C74 1_555 1_555
O35 C109 1_555 1_555
C109 O30 1_555 1_555
C113 C109 1_555 1_555
C120 C113 1_555 1_555
H112 C120 1_555 1_555
C122 C113 1_555 1_555
H114 C122 1_555 1_555
H118 C126 1_555 1_555
C131 C120 1_555 1_555
H123 C131 1_555 1_555
C132 C131 1_555 1_555
H124 C132 1_555 1_555
C133 C122 1_555 1_555
H125 C133 1_555 1_555
H128 C136 1_555 1_555
O44 C137 1_555 1_555
C137 O40 1_555 1_555
C141 C137 1_555 1_555
C148 C141 1_555 1_555
H132 C148 1_555 1_555
C150 C141 1_555 1_555
H134 C150 1_555 1_555
H138 C154 1_555 1_555
C159 C148 1_555 1_555
H143 C159 1_555 1_555
C160 C159 1_555 1_555
H144 C160 1_555 1_555
C161 C150 1_555 1_555
H145 C161 1_555 1_555
H148 C164 1_555 1_555
C165 O49 1_555 1_555
C169 C165 1_555 1_555
C176 C169 1_555 1_555
H152 C176 1_555 1_555
C178 C169 1_555 1_555
H154 C178 1_555 1_555
H158 C182 1_555 1_555
C187 C176 1_555 1_555
H163 C187 1_555 1_555
C188 C187 1_555 1_555
H164 C188 1_555 1_555
C189 C178 1_555 1_555
H165 C189 1_555 1_555
H168 C192 1_555 1_555
C126 C136 1_555 1_555
C132 C133 1_555 1_555
C154 C164 1_555 1_555
C160 C161 1_555 1_555
O53 C165 1_555 1_555
C182 C192 1_555 1_555
C188 C189 1_555 1_555
Co1 O5 1_555 1_555
Co2 O1 1_555 1_555
Al1 O1 1_555 1_555
Al2 O1 1_555 1_555
O1 Al3 1_555 1_555
O2 Al1 1_555 1_555
O3 Al2 1_555 1_555
O4 Al2 1_555 1_555
O5 Al2 1_555 1_555
O6 Co1 1_555 1_555
O7 C1 1_555 1_555
O8 Al2 1_555 1_555
O9 Co2 1_555 1_555
O10 C2 1_555 1_555
N1 Co2 1_555 1_555
N2 Co1 1_555 1_555
C1 O2 1_555 1_555
C2 O4 1_555 1_555
C3 O8 1_555 1_555
C4 N1 1_555 1_555
H1 C4 1_555 1_555
H2 C4 1_555 1_555
C5 O3 1_555 1_555
C6 N1 1_555 1_555
H3 C6 1_555 1_555
H4 C6 1_555 1_555
C7 N1 1_555 1_555
H5 C7 1_555 1_555
H6 C7 1_555 1_555
C8 C1 1_555 1_555
C9 C3 1_555 1_555
C10 C5 1_555 1_555
C11 C2 1_555 1_555
C12 C11 1_555 1_555
H7 C12 1_555 1_555
C13 N2 1_555 1_555
H8 C13 1_555 1_555
H9 C13 1_555 1_555
C14 C9 1_555 1_555
H10 C14 1_555 1_555
C15 C10 1_555 1_555
H11 C15 1_555 1_555
C16 C8 1_555 1_555
H12 C16 1_555 1_555
C17 C11 1_555 1_555
H13 C17 1_555 1_555
C18 C8 1_555 1_555
H14 C18 1_555 1_555
C19 C12 1_555 1_555
H15 C19 1_555 1_555
C20 C10 1_555 1_555
H16 C20 1_555 1_555
C21 C15 1_555 1_555
H17 C21 1_555 1_555
C22 C19 1_555 1_555
H18 C22 1_555 1_555
C23 C21 1_555 1_555
H19 C23 1_555 1_555
C24 C20 1_555 1_555
H20 C24 1_555 1_555
C25 C9 1_555 1_555
H21 C25 1_555 1_555
C27 C16 1_555 1_555
H23 C27 1_555 1_555
C28 C27 1_555 1_555
H24 C28 1_555 1_555
C29 C18 1_555 1_555
H25 C29 1_555 1_555
H26 C30 1_555 1_555
C31 C25 1_555 1_555
H27 C31 1_555 1_555
C32 C17 1_555 1_555
H28 C32 1_555 1_555
C36 N2 1_555 1_555
H35 C36 1_555 1_555
H36 C36 1_555 1_555
C37 N2 1_555 1_555
H37 C37 1_555 1_555
H38 C37 1_555 1_555
N4 C38 1_555 1_555
C38 C13 1_555 1_555
H39 C38 1_555 1_555
H40 C38 1_555 1_555
C39 C36 1_555 1_555
H41 C39 1_555 1_555
H42 C39 1_555 1_555
C40 C37 1_555 1_555
H43 C40 1_555 1_555
H44 C40 1_555 1_555
Co3 O7 1_555 1_555
Al3 O5 1_555 1_555
O11 Al1 1_555 1_555
O12 Al1 1_555 1_555
O13 Al3 1_555 1_555
O14 Al3 1_555 1_555
O15 Co1 1_555 1_555
O16 C41 1_555 1_555
O17 Al3 1_555 1_555
O18 Co3 1_555 1_555
O19 Co2 1_555 1_555
N5 Co3 1_555 1_555
C41 O12 1_555 1_555
C42 O14 1_555 1_555
C43 O17 1_555 1_555
C44 N5 1_555 1_555
H45 C44 1_555 1_555
H46 C44 1_555 1_555
C45 O13 1_555 1_555
C46 N5 1_555 1_555
H47 C46 1_555 1_555
H48 C46 1_555 1_555
C47 N5 1_555 1_555
H49 C47 1_555 1_555
H50 C47 1_555 1_555
C48 C41 1_555 1_555
C49 C43 1_555 1_555
C50 C45 1_555 1_555
C51 C42 1_555 1_555
C52 C51 1_555 1_555
H51 C52 1_555 1_555
C53 C49 1_555 1_555
H52 C53 1_555 1_555
C54 C50 1_555 1_555
H53 C54 1_555 1_555
C55 C48 1_555 1_555
H54 C55 1_555 1_555
C56 C51 1_555 1_555
H55 C56 1_555 1_555
C57 C48 1_555 1_555
H56 C57 1_555 1_555
C58 C52 1_555 1_555
H57 C58 1_555 1_555
C59 C50 1_555 1_555
H58 C59 1_555 1_555
C60 C54 1_555 1_555
C61 C58 1_555 1_555
H60 C61 1_555 1_555
C63 C59 1_555 1_555
H62 C63 1_555 1_555
C64 C49 1_555 1_555
H63 C64 1_555 1_555
C66 C55 1_555 1_555
H65 C66 1_555 1_555
C67 C66 1_555 1_555
H66 C67 1_555 1_555
C68 C57 1_555 1_555
H67 C68 1_555 1_555
H68 C69 1_555 1_555
C70 C64 1_555 1_555
H69 C70 1_555 1_555
C71 C56 1_555 1_555
H70 C71 1_555 1_555
Co4 O10 1_555 1_555
Al4 O5 1_555 1_555
O20 Al1 1_555 1_555
O21 Al1 1_555 1_555
O22 Al4 1_555 1_555
O23 Al4 1_555 1_555
O24 Co1 1_555 1_555
O25 Co2 1_555 1_555
O26 Al4 1_555 1_555
O27 Co4 1_555 1_555
O28 Co3 1_555 1_555
N7 Co4 1_555 1_555
C75 O21 1_555 1_555
C76 O23 1_555 1_555
C77 O26 1_555 1_555
C78 N7 1_555 1_555
H77 C78 1_555 1_555
H78 C78 1_555 1_555
C79 O22 1_555 1_555
C80 N7 1_555 1_555
H79 C80 1_555 1_555
H80 C80 1_555 1_555
C81 N7 1_555 1_555
H81 C81 1_555 1_555
H82 C81 1_555 1_555
C82 C75 1_555 1_555
C83 C77 1_555 1_555
C84 C79 1_555 1_555
C85 C76 1_555 1_555
C86 C85 1_555 1_555
H83 C86 1_555 1_555
C87 C83 1_555 1_555
H84 C87 1_555 1_555
C88 C84 1_555 1_555
H85 C88 1_555 1_555
C89 C82 1_555 1_555
H86 C89 1_555 1_555
C90 C85 1_555 1_555
H87 C90 1_555 1_555
C91 C82 1_555 1_555
H88 C91 1_555 1_555
C92 C86 1_555 1_555
H89 C92 1_555 1_555
C93 C84 1_555 1_555
H90 C93 1_555 1_555
C94 C88 1_555 1_555
C95 C92 1_555 1_555
H92 C95 1_555 1_555
C97 C93 1_555 1_555
H94 C97 1_555 1_555
C98 C83 1_555 1_555
H95 C98 1_555 1_555
C99 C87 1_555 1_555
H96 C99 1_555 1_555
C100 C89 1_555 1_555
H97 C100 1_555 1_555
C101 C100 1_555 1_555
H98 C101 1_555 1_555
C102 C91 1_555 1_555
H99 C102 1_555 1_555
C103 C99 1_555 1_555
H100 C103 1_555 1_555
C104 C98 1_555 1_555
H101 C104 1_555 1_555
C105 C90 1_555 1_555
H102 C105 1_555 1_555
N8 C106 1_555 1_555
C106 C78 1_555 1_555
H103 C106 1_555 1_555
H104 C106 1_555 1_555
C107 C81 1_555 1_555
H105 C107 1_555 1_555
H106 C107 1_555 1_555
C108 C80 1_555 1_555
H107 C108 1_555 1_555
H108 C108 1_555 1_555
Co5 N4 1_555 1_555
Co6 O29 1_555 1_555
Al5 O29 1_555 1_555
Al6 O29 1_555 1_555
O29 Al7 1_555 1_555
O31 Al6 1_555 1_555
O32 Al6 1_555 1_555
O33 Co5 1_555 1_555
O34 Co5 1_555 1_555
O36 Al6 1_555 1_555
O37 Co6 1_555 1_555
O38 C110 1_555 1_555
C110 O32 1_555 1_555
C111 O36 1_555 1_555
C112 O31 1_555 1_555
C114 C111 1_555 1_555
C115 C112 1_555 1_555
C116 C110 1_555 1_555
C117 C116 1_555 1_555
H109 C117 1_555 1_555
C118 C114 1_555 1_555
H110 C118 1_555 1_555
C119 C115 1_555 1_555
H111 C119 1_555 1_555
C121 C116 1_555 1_555
C123 C117 1_555 1_555
H115 C123 1_555 1_555
C124 C115 1_555 1_555
H116 C124 1_555 1_555
C125 C119 1_555 1_555
H117 C125 1_555 1_555
C127 C125 1_555 1_555
H119 C127 1_555 1_555
C128 C124 1_555 1_555
H120 C128 1_555 1_555
C129 C114 1_555 1_555
H121 C129 1_555 1_555
H126 C134 1_555 1_555
C135 C129 1_555 1_555
H127 C135 1_555 1_555
Al7 O33 1_555 1_555
O39 Al5 1_555 1_555
O41 Al7 1_555 1_555
O42 Al7 1_555 1_555
O43 Co5 1_555 1_555
O45 Al7 1_555 1_555
O46 Co7 1_555 1_555
O47 Co6 1_555 1_555
C138 O42 1_555 1_555
C139 O45 1_555 1_555
C140 O41 1_555 1_555
C142 C139 1_555 1_555
C143 C140 1_555 1_555
C144 C138 1_555 1_555
C145 C144 1_555 1_555
H129 C145 1_555 1_555
C146 C142 1_555 1_555
H130 C146 1_555 1_555
C147 C143 1_555 1_555
H131 C147 1_555 1_555
C149 C144 1_555 1_555
C151 C145 1_555 1_555
H135 C151 1_555 1_555
C152 C143 1_555 1_555
H136 C152 1_555 1_555
C153 C147 1_555 1_555
C156 C152 1_555 1_555
H140 C156 1_555 1_555
C157 C142 1_555 1_555
H141 C157 1_555 1_555
H146 C162 1_555 1_555
C163 C157 1_555 1_555
H147 C163 1_555 1_555
Co8 O38 1_555 1_555
Al8 O33 1_555 1_555
O48 Al5 1_555 1_555
O50 Al8 1_555 1_555
O51 Al8 1_555 1_555
O52 Co5 1_555 1_555
O54 Al8 1_555 1_555
O55 Co8 1_555 1_555
O56 Co7 1_555 1_555
C166 O51 1_555 1_555
C167 O54 1_555 1_555
C168 O50 1_555 1_555
C170 C167 1_555 1_555
C171 C168 1_555 1_555
C172 C166 1_555 1_555
C173 C172 1_555 1_555
H149 C173 1_555 1_555
C174 C170 1_555 1_555
H150 C174 1_555 1_555
C175 C171 1_555 1_555
H151 C175 1_555 1_555
C177 C172 1_555 1_555
C179 C173 1_555 1_555
H155 C179 1_555 1_555
C180 C171 1_555 1_555
H156 C180 1_555 1_555
C181 C175 1_555 1_555
C184 C180 1_555 1_555
H160 C184 1_555 1_555
C185 C170 1_555 1_555
H161 C185 1_555 1_555
C186 C174 1_555 1_555
H162 C186 1_555 1_555
C190 C186 1_555 1_555
H166 C190 1_555 1_555
C191 C185 1_555 1_555
H167 C191 1_555 1_555
Co11 N8 1_555 1_555
N9 Co6 1_555 1_555
N10 Co7 1_555 1_555
N11 Co8 1_555 1_555
Al2 O20 1_555 1_555
O6 C5 1_555 1_555
O9 C3 1_555 1_555
C22 C32 1_555 1_555
C23 C24 1_555 1_555
C28 C29 1_555 1_555
C30 C31 1_555 1_555
N4 C39 1_555 1_555
N4 C40 1_555 1_555
Co3 O11 1_555 1_555
Al3 O11 1_555 1_555
O11 Al4 1_555 1_555
O15 C45 1_555 1_555
O16 Co4 1_555 1_555
O18 C43 1_555 1_555
O19 C42 1_555 1_555
C61 C71 1_555 1_555
C67 C68 1_555 1_555
C69 C70 1_555 1_555
Co4 O20 1_555 1_555
Al4 O20 1_555 1_555
O24 C79 1_555 1_555
O25 C75 1_555 1_555
O27 C77 1_555 1_555
O28 C76 1_555 1_555
C95 C105 1_555 1_555
C101 C102 1_555 1_555
C103 C104 1_555 1_555
N8 C107 1_555 1_555
N8 C108 1_555 1_555
Al6 O33 1_555 1_555
Al6 O48 1_555 1_555
O34 C112 1_555 1_555
O37 C111 1_555 1_555
C127 C128 1_555 1_555
C134 C135 1_555 1_555
Co7 O39 1_555 1_555
Al7 O39 1_555 1_555
O39 Al8 1_555 1_555
O43 C140 1_555 1_555
O46 C139 1_555 1_555
O47 C138 1_555 1_555
C162 C163 1_555 1_555
Co8 O48 1_555 1_555
Al8 O48 1_555 1_555
O52 C168 1_555 1_555
O55 C167 1_555 1_555
O56 C166 1_555 1_555
C190 C191 1_555 1_555
H22 C26 1_555 1_555
N3 C33 1_555 1_555
H29 C33 1_555 1_555
H30 C33 1_555 1_555
H31 C34 1_555 1_555
H32 C34 1_555 1_555
H33 C35 1_555 1_555
H34 C35 1_555 1_555
H61 C62 1_555 1_555
H122 C130 1_555 1_555
H139 C155 1_555 1_555
Co10 N3 1_555 1_555
N3 C34 1_555 1_555
N3 C35 1_555 1_555
N6_2 C72_2 1_555 1_555
H72_2 C72_2 1_555 1_555
H75_2 C74_2 1_555 1_555
H76_2 C74_2 1_555 1_555
Co9_2 N6_2 1_555 1_555
N6_2 C74_2 1_555 1_555
H73_2 C73_2 1_555 1_555
H74_2 C73_2 1_555 1_555
H3_2 C6_2 1_555 1_555
H4_2 C6_2 1_555 1_555
H47_2 C46_2 1_555 1_555
H48_2 C46_2 1_555 1_555
H79_2 C80_2 1_555 1_555
H80_2 C80_2 1_555 1_555
N8_2 C106_2 1_555 1_555
H104_2 C106_2 1_555 1_555
C108_2 C80_2 1_555 1_555
H107_2 C108_2 1_555 1_555
H108_2 C108_2 1_555 1_555
Co11_2 N8_2 1_555 1_555
N8_2 C108_2 1_555 1_555
C4_2 N9 1_555 1_555
H2_2 C4_2 1_555 1_555
C7_2 N9 1_555 1_555
H5_2 C7_2 1_555 1_555
H6_2 C7_2 1_555 1_555
C44_2 N10 1_555 1_555
H46_2 C44_2 1_555 1_555
C47_2 N10 1_555 1_555
H49_2 C47_2 1_555 1_555
H50_2 C47_2 1_555 1_555
C78_2 N11 1_555 1_555
H78_2 C78_2 1_555 1_555
C81_2 N11 1_555 1_555
H81_2 C81_2 1_555 1_555
H82_2 C81_2 1_555 1_555
C107_2 C81_2 1_555 1_555
H105_2 C107_2 1_555 1_555
H106_2 C107_2 1_555 1_555
N3_2 C33_2 1_555 1_555
H30_2 C33_2 1_555 1_555
H33_2 C35_2 1_555 1_555
H34_2 C35_2 1_555 1_555
Co10_2 N3_2 1_555 1_555
N3_2 C35_2 1_555 1_555
H31_2 C34_2 1_555 1_555
H32_2 C34_2 1_555 1_555
H64_2 C65_2 1_555 1_555
H93_2 C96_2 1_555 1_555
H142_2 C158_2 1_555 1_555
H159_2 C183_2 1_555 1_555
Co1_2 O5_2 1_555 1_555
Co9 O1_2 1_555 1_555
Al1_2 O1_2 1_555 1_555
Al2_2 O1_2 1_555 1_555
O1_2 Al3_2 1_555 1_555
O2_2 Al1_2 1_555 1_555
O3_2 Al2_2 1_555 1_555
O4_2 Al2_2 1_555 1_555
O5_2 Al2_2 1_555 1_555
O6_2 Co1_2 1_555 1_555
O7_2 C1_2 1_555 1_555
O8_2 Al2_2 1_555 1_555
O9_2 Co9 1_555 1_555
O10_2 C2_2 1_555 1_555
N2_2 Co1_2 1_555 1_555
C1_2 O2_2 1_555 1_555
C2_2 O4_2 1_555 1_555
C3_2 O8_2 1_555 1_555
C5_2 O3_2 1_555 1_555
C8_2 C1_2 1_555 1_555
C9_2 C3_2 1_555 1_555
C10_2 C5_2 1_555 1_555
C11_2 C2_2 1_555 1_555
C12_2 C11_2 1_555 1_555
H7_2 C12_2 1_555 1_555
C13_2 N2_2 1_555 1_555
H8_2 C13_2 1_555 1_555
H9_2 C13_2 1_555 1_555
C14_2 C9_2 1_555 1_555
H10_2 C14_2 1_555 1_555
C15_2 C10_2 1_555 1_555
H11_2 C15_2 1_555 1_555
C16_2 C8_2 1_555 1_555
H12_2 C16_2 1_555 1_555
C17_2 C11_2 1_555 1_555
H13_2 C17_2 1_555 1_555
C18_2 C8_2 1_555 1_555
H14_2 C18_2 1_555 1_555
C19_2 C12_2 1_555 1_555
H15_2 C19_2 1_555 1_555
C20_2 C10_2 1_555 1_555
H16_2 C20_2 1_555 1_555
C21_2 C15_2 1_555 1_555
H17_2 C21_2 1_555 1_555
C22_2 C19_2 1_555 1_555
H18_2 C22_2 1_555 1_555
C23_2 C21_2 1_555 1_555
H19_2 C23_2 1_555 1_555
C24_2 C20_2 1_555 1_555
H20_2 C24_2 1_555 1_555
C25_2 C9_2 1_555 1_555
H21_2 C25_2 1_555 1_555
C27_2 C16_2 1_555 1_555
H23_2 C27_2 1_555 1_555
C28_2 C27_2 1_555 1_555
H24_2 C28_2 1_555 1_555
C29_2 C18_2 1_555 1_555
H25_2 C29_2 1_555 1_555
H26_2 C30_2 1_555 1_555
C31_2 C25_2 1_555 1_555
H27_2 C31_2 1_555 1_555
C32_2 C17_2 1_555 1_555
H28_2 C32_2 1_555 1_555
C36_2 N2_2 1_555 1_555
H35_2 C36_2 1_555 1_555
H36_2 C36_2 1_555 1_555
C37_2 N2_2 1_555 1_555
H37_2 C37_2 1_555 1_555
H38_2 C37_2 1_555 1_555
N4_2 C38_2 1_555 1_555
C38_2 C13_2 1_555 1_555
H39_2 C38_2 1_555 1_555
H40_2 C38_2 1_555 1_555
C39_2 C36_2 1_555 1_555
H41_2 C39_2 1_555 1_555
H42_2 C39_2 1_555 1_555
C40_2 C37_2 1_555 1_555
H43_2 C40_2 1_555 1_555
H44_2 C40_2 1_555 1_555
Co10 O7_2 1_555 1_555
Al3_2 O5_2 1_555 1_555
O11_2 Al1_2 1_555 1_555
O12_2 Al1_2 1_555 1_555
O13_2 Al3_2 1_555 1_555
O14_2 Al3_2 1_555 1_555
O15_2 Co1_2 1_555 1_555
O16_2 C41_2 1_555 1_555
O17_2 Al3_2 1_555 1_555
O18_2 Co10 1_555 1_555
O19_2 Co9 1_555 1_555
C41_2 O12_2 1_555 1_555
C42_2 O14_2 1_555 1_555
C43_2 O17_2 1_555 1_555
C45_2 O13_2 1_555 1_555
C48_2 C41_2 1_555 1_555
C49_2 C43_2 1_555 1_555
C50_2 C45_2 1_555 1_555
C51_2 C42_2 1_555 1_555
C52_2 C51_2 1_555 1_555
H51_2 C52_2 1_555 1_555
C53_2 C49_2 1_555 1_555
H52_2 C53_2 1_555 1_555
C54_2 C50_2 1_555 1_555
H53_2 C54_2 1_555 1_555
C55_2 C48_2 1_555 1_555
H54_2 C55_2 1_555 1_555
C56_2 C51_2 1_555 1_555
H55_2 C56_2 1_555 1_555
C57_2 C48_2 1_555 1_555
H56_2 C57_2 1_555 1_555
C58_2 C52_2 1_555 1_555
H57_2 C58_2 1_555 1_555
C59_2 C50_2 1_555 1_555
H58_2 C59_2 1_555 1_555
C60_2 C54_2 1_555 1_555
C61_2 C58_2 1_555 1_555
H60_2 C61_2 1_555 1_555
C63_2 C59_2 1_555 1_555
H62_2 C63_2 1_555 1_555
C64_2 C49_2 1_555 1_555
H63_2 C64_2 1_555 1_555
C66_2 C55_2 1_555 1_555
H65_2 C66_2 1_555 1_555
C67_2 C66_2 1_555 1_555
H66_2 C67_2 1_555 1_555
C68_2 C57_2 1_555 1_555
H67_2 C68_2 1_555 1_555
H68_2 C69_2 1_555 1_555
C70_2 C64_2 1_555 1_555
H69_2 C70_2 1_555 1_555
C71_2 C56_2 1_555 1_555
H70_2 C71_2 1_555 1_555
Co11 O10_2 1_555 1_555
Al4_2 O5_2 1_555 1_555
O20_2 Al1_2 1_555 1_555
O21_2 Al1_2 1_555 1_555
O22_2 Al4_2 1_555 1_555
O23_2 Al4_2 1_555 1_555
O24_2 Co1_2 1_555 1_555
O25_2 Co9 1_555 1_555
O26_2 Al4_2 1_555 1_555
O27_2 Co11 1_555 1_555
O28_2 Co10 1_555 1_555
C75_2 O21_2 1_555 1_555
C76_2 O23_2 1_555 1_555
C77_2 O26_2 1_555 1_555
C79_2 O22_2 1_555 1_555
C82_2 C75_2 1_555 1_555
C83_2 C77_2 1_555 1_555
C84_2 C79_2 1_555 1_555
C85_2 C76_2 1_555 1_555
C86_2 C85_2 1_555 1_555
H83_2 C86_2 1_555 1_555
C87_2 C83_2 1_555 1_555
H84_2 C87_2 1_555 1_555
C88_2 C84_2 1_555 1_555
H85_2 C88_2 1_555 1_555
C89_2 C82_2 1_555 1_555
H86_2 C89_2 1_555 1_555
C90_2 C85_2 1_555 1_555
H87_2 C90_2 1_555 1_555
C91_2 C82_2 1_555 1_555
H88_2 C91_2 1_555 1_555
C92_2 C86_2 1_555 1_555
H89_2 C92_2 1_555 1_555
C93_2 C84_2 1_555 1_555
H90_2 C93_2 1_555 1_555
C94_2 C88_2 1_555 1_555
C95_2 C92_2 1_555 1_555
H92_2 C95_2 1_555 1_555
C97_2 C93_2 1_555 1_555
H94_2 C97_2 1_555 1_555
C98_2 C83_2 1_555 1_555
H95_2 C98_2 1_555 1_555
C99_2 C87_2 1_555 1_555
H96_2 C99_2 1_555 1_555
C100_2 C89_2 1_555 1_555
H97_2 C100_2 1_555 1_555
C101_2 C100_2 1_555 1_555
H98_2 C101_2 1_555 1_555
C102_2 C91_2 1_555 1_555
H99_2 C102_2 1_555 1_555
C103_2 C99_2 1_555 1_555
H100_2 C103_2 1_555 1_555
C104_2 C98_2 1_555 1_555
H101_2 C104_2 1_555 1_555
C105_2 C90_2 1_555 1_555
H102_2 C105_2 1_555 1_555
Co5_2 N4_2 1_555 1_555
Co9_2 O29_2 1_555 1_555
Al5_2 O29_2 1_555 1_555
Al6_2 O29_2 1_555 1_555
O29_2 Al7_2 1_555 1_555
O31_2 Al6_2 1_555 1_555
O32_2 Al6_2 1_555 1_555
O33_2 Co5_2 1_555 1_555
O34_2 Co5_2 1_555 1_555
O36_2 Al6_2 1_555 1_555
O37_2 Co9_2 1_555 1_555
O38_2 C110_2 1_555 1_555
C110_2 O32_2 1_555 1_555
C111_2 O36_2 1_555 1_555
C112_2 O31_2 1_555 1_555
C114_2 C111_2 1_555 1_555
C115_2 C112_2 1_555 1_555
C116_2 C110_2 1_555 1_555
C117_2 C116_2 1_555 1_555
H109_2 C117_2 1_555 1_555
C118_2 C114_2 1_555 1_555
H110_2 C118_2 1_555 1_555
C119_2 C115_2 1_555 1_555
H111_2 C119_2 1_555 1_555
C121_2 C116_2 1_555 1_555
C123_2 C117_2 1_555 1_555
H115_2 C123_2 1_555 1_555
C124_2 C115_2 1_555 1_555
H116_2 C124_2 1_555 1_555
C125_2 C119_2 1_555 1_555
H117_2 C125_2 1_555 1_555
C127_2 C125_2 1_555 1_555
H119_2 C127_2 1_555 1_555
C128_2 C124_2 1_555 1_555
H120_2 C128_2 1_555 1_555
C129_2 C114_2 1_555 1_555
H121_2 C129_2 1_555 1_555
H126_2 C134_2 1_555 1_555
C135_2 C129_2 1_555 1_555
H127_2 C135_2 1_555 1_555
Al7_2 O33_2 1_555 1_555
O39_2 Al5_2 1_555 1_555
O41_2 Al7_2 1_555 1_555
O42_2 Al7_2 1_555 1_555
O43_2 Co5_2 1_555 1_555
O45_2 Al7_2 1_555 1_555
O46_2 Co10_2 1_555 1_555
O47_2 Co9_2 1_555 1_555
C138_2 O42_2 1_555 1_555
C139_2 O45_2 1_555 1_555
C140_2 O41_2 1_555 1_555
C142_2 C139_2 1_555 1_555
C143_2 C140_2 1_555 1_555
C144_2 C138_2 1_555 1_555
C145_2 C144_2 1_555 1_555
H129_2 C145_2 1_555 1_555
C146_2 C142_2 1_555 1_555
H130_2 C146_2 1_555 1_555
C147_2 C143_2 1_555 1_555
H131_2 C147_2 1_555 1_555
C149_2 C144_2 1_555 1_555
C151_2 C145_2 1_555 1_555
H135_2 C151_2 1_555 1_555
C152_2 C143_2 1_555 1_555
H136_2 C152_2 1_555 1_555
C153_2 C147_2 1_555 1_555
C156_2 C152_2 1_555 1_555
H140_2 C156_2 1_555 1_555
C157_2 C142_2 1_555 1_555
H141_2 C157_2 1_555 1_555
H146_2 C162_2 1_555 1_555
C163_2 C157_2 1_555 1_555
H147_2 C163_2 1_555 1_555
Co11_2 O38_2 1_555 1_555
Al8_2 O33_2 1_555 1_555
O48_2 Al5_2 1_555 1_555
O50_2 Al8_2 1_555 1_555
O51_2 Al8_2 1_555 1_555
O52_2 Co5_2 1_555 1_555
O54_2 Al8_2 1_555 1_555
O55_2 Co11_2 1_555 1_555
O56_2 Co10_2 1_555 1_555
C166_2 O51_2 1_555 1_555
C167_2 O54_2 1_555 1_555
C168_2 O50_2 1_555 1_555
C170_2 C167_2 1_555 1_555
C171_2 C168_2 1_555 1_555
C172_2 C166_2 1_555 1_555
C173_2 C172_2 1_555 1_555
H149_2 C173_2 1_555 1_555
C174_2 C170_2 1_555 1_555
H150_2 C174_2 1_555 1_555
C175_2 C171_2 1_555 1_555
H151_2 C175_2 1_555 1_555
C177_2 C172_2 1_555 1_555
C179_2 C173_2 1_555 1_555
H155_2 C179_2 1_555 1_555
C180_2 C171_2 1_555 1_555
H156_2 C180_2 1_555 1_555
C181_2 C175_2 1_555 1_555
C184_2 C180_2 1_555 1_555
H160_2 C184_2 1_555 1_555
C185_2 C170_2 1_555 1_555
H161_2 C185_2 1_555 1_555
C186_2 C174_2 1_555 1_555
H162_2 C186_2 1_555 1_555
C190_2 C186_2 1_555 1_555
H166_2 C190_2 1_555 1_555
C191_2 C185_2 1_555 1_555
H167_2 C191_2 1_555 1_555
Al2_2 O20_2 1_555 1_555
O6_2 C5_2 1_555 1_555
O9_2 C3_2 1_555 1_555
C22_2 C32_2 1_555 1_555
C23_2 C24_2 1_555 1_555
C28_2 C29_2 1_555 1_555
C30_2 C31_2 1_555 1_555
N4_2 C39_2 1_555 1_555
N4_2 C40_2 1_555 1_555
Co10 O11_2 1_555 1_555
Al3_2 O11_2 1_555 1_555
O11_2 Al4_2 1_555 1_555
O15_2 C45_2 1_555 1_555
O16_2 Co11 1_555 1_555
O18_2 C43_2 1_555 1_555
O19_2 C42_2 1_555 1_555
C61_2 C71_2 1_555 1_555
C67_2 C68_2 1_555 1_555
C69_2 C70_2 1_555 1_555
Co11 O20_2 1_555 1_555
Al4_2 O20_2 1_555 1_555
O24_2 C79_2 1_555 1_555
O25_2 C75_2 1_555 1_555
O27_2 C77_2 1_555 1_555
O28_2 C76_2 1_555 1_555
C95_2 C105_2 1_555 1_555
C101_2 C102_2 1_555 1_555
C103_2 C104_2 1_555 1_555
Al6_2 O33_2 1_555 1_555
Al6_2 O48_2 1_555 1_555
O34_2 C112_2 1_555 1_555
O37_2 C111_2 1_555 1_555
C127_2 C128_2 1_555 1_555
C134_2 C135_2 1_555 1_555
Co10_2 O39_2 1_555 1_555
Al7_2 O39_2 1_555 1_555
O39_2 Al8_2 1_555 1_555
O43_2 C140_2 1_555 1_555
O46_2 C139_2 1_555 1_555
O47_2 C138_2 1_555 1_555
C162_2 C163_2 1_555 1_555
Co11_2 O48_2 1_555 1_555
Al8_2 O48_2 1_555 1_555
O52_2 C168_2 1_555 1_555
O55_2 C167_2 1_555 1_555
O56_2 C166_2 1_555 1_555
C190_2 C191_2 1_555 1_555
O35_2 C109_2 1_555 1_555
C109_2 O30_2 1_555 1_555
C113_2 C109_2 1_555 1_555
C120_2 C113_2 1_555 1_555
H112_2 C120_2 1_555 1_555
C122_2 C113_2 1_555 1_555
H114_2 C122_2 1_555 1_555
H118_2 C126_2 1_555 1_555
C131_2 C120_2 1_555 1_555
H123_2 C131_2 1_555 1_555
C132_2 C131_2 1_555 1_555
H124_2 C132_2 1_555 1_555
C133_2 C122_2 1_555 1_555
H125_2 C133_2 1_555 1_555
H128_2 C136_2 1_555 1_555
O44_2 C137_2 1_555 1_555
C137_2 O40_2 1_555 1_555
C141_2 C137_2 1_555 1_555
C148_2 C141_2 1_555 1_555
H132_2 C148_2 1_555 1_555
C150_2 C141_2 1_555 1_555
H134_2 C150_2 1_555 1_555
H138_2 C154_2 1_555 1_555
C159_2 C148_2 1_555 1_555
H143_2 C159_2 1_555 1_555
C160_2 C159_2 1_555 1_555
H144_2 C160_2 1_555 1_555
C161_2 C150_2 1_555 1_555
H145_2 C161_2 1_555 1_555
H148_2 C164_2 1_555 1_555
C165_2 O49_2 1_555 1_555
C169_2 C165_2 1_555 1_555
C176_2 C169_2 1_555 1_555
H152_2 C176_2 1_555 1_555
C178_2 C169_2 1_555 1_555
H154_2 C178_2 1_555 1_555
H158_2 C182_2 1_555 1_555
C187_2 C176_2 1_555 1_555
H163_2 C187_2 1_555 1_555
C188_2 C187_2 1_555 1_555
H164_2 C188_2 1_555 1_555
C189_2 C178_2 1_555 1_555
H165_2 C189_2 1_555 1_555
H168_2 C192_2 1_555 1_555
C126_2 C136_2 1_555 1_555
C132_2 C133_2 1_555 1_555
C154_2 C164_2 1_555 1_555
C160_2 C161_2 1_555 1_555
O53_2 C165_2 1_555 1_555
C182_2 C192_2 1_555 1_555
C188_2 C189_2 1_555 1_555
H22_2 C26_2 1_555 1_555
H61_2 C62_2 1_555 1_555
H122_2 C130_2 1_555 1_555
H139_2 C155_2 1_555 1_555

#END
