
###############################################################################
#
# This file contains modified crystal structure data generated from the
# MOF subset of the Cambridge Structural Database (CSD) v543 
# hosted by the Cambridge Crystallographic Data Centre (CCDC).
#
# This work is licensed under the Creative Commons
# Attribution-NonCommercial-ShareAlike 4.0 International License.
# To view a copy of this license, visit
# http://creativecommons.org/licenses/by-nc-sa/4.0/
# or send a letter to
# Creative Commons, PO Box 1866, Mountain View, CA 94042, USA.
#
# CIF created using the CSD Python API on 29 September 2022
# The structure has been converted into the P1 space group
# The structure has a 3D framework
# The original CSD entry NECGEL is in the cubic crystal system
# The original CSD entry NECGEL is in a Sohncke space group
# The framework has been calculated to contain at least 10.0% void space
# The void calculation uses a probe of radius 1.32A, grid spacing 0.4
#
###############################################################################

data_NECGEL
_chemical_formula_moiety         '(C864 H864 Al24 Co16 N32 O190)n'
_symmetry_cell_setting           triclinic
_symmetry_space_group_name_H-M   'P 1'
_symmetry_Int_Tables_number      1
_space_group_name_Hall           'P 1'
loop_
_symmetry_equiv_pos_site_id
_symmetry_equiv_pos_as_xyz
1 x,y,z
_cell_length_a                   32.1474(2)
_cell_length_b                   32.1474(2)
_cell_length_c                   32.1474(2)
_cell_angle_alpha                90
_cell_angle_beta                 90
_cell_angle_gamma                90
_cell_volume                     33222.9
loop_
_atom_site_label
_atom_site_type_symbol
_atom_site_fract_x
_atom_site_fract_y
_atom_site_fract_z
C21 C 0.0235(10) 0.2367(10) 0.3057(9)
H23 H 0.027230 0.226303 0.333386
H24 H 0.048920 0.249303 0.296276
H25 H 0.016200 0.214253 0.287446
H26 H 0.013083 0.327840 0.298831
C53 C 0.0235(10) 0.2633(10) 0.1943(9)
H51 H 0.027230 0.273697 0.166614
H52 H 0.048920 0.250697 0.203724
H53 H 0.016200 0.285747 0.212554
H54 H 0.013083 0.172160 0.201169
Co1 Co 0.68730(2) 0.31270(2) 0.31270(2)
Al1 Al 0.71877(4) 0.21877(4) 0.28123(4)
O1 O 0.72248(9) 0.27752(9) 0.27752(9)
O2 O 0.71670(12) 0.21823(12) 0.33988(11)
O3 O 0.77314(15) 0.18404(16) 0.36291(13)
N1 N 0.64829(13) 0.35171(13) 0.35171(13)
C1 C 0.7379(2) 0.2018(2) 0.36786(19)
C2 C 0.6694(2) 0.3897(2) 0.3650(3)
H1 H 0.682154 0.402940 0.341106
H2 H 0.691211 0.382695 0.384596
C3 C 0.7205(3) 0.2034(3) 0.4114(2)
C4 C 0.7434(4) 0.1914(4) 0.4447(3)
H3 H 0.770278 0.181553 0.440731
C5 C 0.6808(4) 0.2187(4) 0.4160(3)
H4 H 0.665306 0.227065 0.393016
C6 C 0.7271(5) 0.1934(5) 0.4851(3)
C7 C 0.6645(6) 0.2214(6) 0.4561(5)
H5 H 0.639128 0.234401 0.460729
C8 C 0.7633(10) 0.1943(9) 0.5235(10)
H6 H 0.773697 0.166614 0.527230
H7 H 0.750697 0.203724 0.548920
H8 H 0.785747 0.212554 0.516200
C9 C 0.6858(7) 0.2050(6) 0.4879(7)
H9 H 0.672160 0.201169 0.513083
C10 C 0.6350(3) 0.3306(2) 0.3897(2)
H10 H 0.658894 0.317846 0.402940
H11 H 0.615404 0.308789 0.382695
C11 C 0.6103(2) 0.3650(3) 0.3306(2)
H12 H 0.597060 0.341106 0.317846
H13 H 0.617305 0.384596 0.308789
N2 N 0.60171(13) 0.39829(13) 0.39829(13)
C12 C 0.6397(2) 0.4194(2) 0.3850(3)
H14 H 0.652940 0.432154 0.408894
H15 H 0.632695 0.441211 0.365404
C13 C 0.6150(3) 0.3603(2) 0.4194(2)
H16 H 0.591106 0.347060 0.432154
H17 H 0.634596 0.367305 0.441211
C14 C 0.5806(2) 0.3850(3) 0.3603(2)
H18 H 0.567846 0.408894 0.347060
H19 H 0.558789 0.365404 0.367305
Co2 Co 0.81270(2) 0.31270(2) 0.18730(2)
Al2 Al 0.78123(4) 0.28123(4) 0.28123(4)
O4 O 0.77752(9) 0.27752(9) 0.22248(9)
O5 O 0.83988(11) 0.28330(12) 0.28177(12)
O6 O 0.86291(13) 0.22686(15) 0.31596(16)
C15 C 0.86786(19) 0.2621(2) 0.2982(2)
C16 C 0.9114(2) 0.2795(3) 0.2966(3)
C17 C 0.9447(3) 0.2566(4) 0.3086(4)
H20 H 0.940731 0.229722 0.318447
C18 C 0.9160(3) 0.3192(4) 0.2813(4)
H21 H 0.893016 0.334694 0.272935
C19 C 0.9851(3) 0.2729(5) 0.3066(5)
C20 C 0.9561(5) 0.3355(6) 0.2786(6)
H22 H 0.960729 0.360872 0.265599
C22 C 0.9879(7) 0.3142(7) 0.2950(6)
O7 O 0.71823(12) 0.16012(11) 0.28330(12)
O8 O 0.68404(16) 0.13709(13) 0.22686(15)
C23 C 0.7018(2) 0.13214(19) 0.2621(2)
C24 C 0.7034(3) 0.0886(2) 0.2795(3)
C25 C 0.6914(4) 0.0553(3) 0.2566(4)
H27 H 0.681553 0.059269 0.229722
C26 C 0.7187(4) 0.0840(3) 0.3192(4)
H28 H 0.727065 0.106984 0.334694
C27 C 0.6934(5) 0.0149(3) 0.2729(5)
C28 C 0.7214(6) 0.0439(5) 0.3355(6)
H29 H 0.734401 0.039271 0.360872
C30 C 0.7050(6) 0.0121(7) 0.3142(7)
O9 O 0.71823(12) 0.33988(11) 0.21670(12)
O10 O 0.68404(16) 0.36291(13) 0.27314(15)
C31 C 0.7018(2) 0.36786(19) 0.2379(2)
C32 C 0.7034(3) 0.4114(2) 0.2205(3)
C33 C 0.6914(4) 0.4447(3) 0.2434(4)
H34 H 0.681553 0.440731 0.270278
C34 C 0.7187(4) 0.4160(3) 0.1808(4)
H35 H 0.727065 0.393016 0.165306
C35 C 0.6934(5) 0.4851(3) 0.2271(5)
C36 C 0.7214(6) 0.4561(5) 0.1645(6)
H36 H 0.734401 0.460729 0.139128
C37 C 0.6943(9) 0.5235(10) 0.2633(10)
H37 H 0.666614 0.527230 0.273697
H38 H 0.703724 0.548920 0.250697
H39 H 0.712554 0.516200 0.285747
C38 C 0.7050(6) 0.4879(7) 0.1858(7)
H40 H 0.701169 0.513083 0.172160
O11 O 0.66012(11) 0.21670(12) 0.28177(12)
O12 O 0.63709(13) 0.27314(15) 0.31596(16)
C39 C 0.63214(19) 0.2379(2) 0.2982(2)
C40 C 0.5886(2) 0.2205(3) 0.2966(3)
C41 C 0.5553(3) 0.2434(4) 0.3086(4)
H41 H 0.559269 0.270278 0.318447
C42 C 0.5840(3) 0.1808(4) 0.2813(4)
H42 H 0.606984 0.165306 0.272935
C43 C 0.5149(3) 0.2271(5) 0.3066(5)
C44 C 0.5439(5) 0.1645(6) 0.2786(6)
H43 H 0.539271 0.139128 0.265599
C45 C 0.4765(10) 0.2633(10) 0.3057(9)
H44 H 0.472770 0.273697 0.333386
H45 H 0.451080 0.250697 0.296276
H46 H 0.483800 0.285747 0.287446
C46 C 0.5121(7) 0.1858(7) 0.2950(6)
H47 H 0.486917 0.172160 0.298831
O13 O 0.78330(12) 0.28177(12) 0.33988(11)
O14 O 0.72686(15) 0.31596(16) 0.36291(13)
C47 C 0.7621(2) 0.2982(2) 0.36786(19)
C48 C 0.7795(3) 0.2966(3) 0.4114(2)
C49 C 0.7566(4) 0.3086(4) 0.4447(3)
H48 H 0.729722 0.318447 0.440731
C50 C 0.8192(4) 0.2813(4) 0.4160(3)
H49 H 0.834694 0.272935 0.393016
C51 C 0.7729(5) 0.3066(5) 0.4851(3)
C52 C 0.8355(6) 0.2786(6) 0.4561(5)
H50 H 0.860872 0.265599 0.460729
C53_2 C 0.7367(10) 0.3057(9) 0.5235(10)
H51_2 H 0.726303 0.333386 0.527230
H52_2 H 0.749303 0.296276 0.548920
H53_2 H 0.714253 0.287446 0.516200
C54 C 0.8142(7) 0.2950(6) 0.4879(7)
H54_2 H 0.827840 0.298831 0.513083
Co3 Co 0.68730(2) 0.18730(2) 0.18730(2)
Co4 Co 0.56270(2) 0.43730(2) 0.43730(2)
Co5 Co 0.81270(2) 0.18730(2) 0.31270(2)
Al3 Al 0.78123(4) 0.21877(4) 0.21877(4)
Al4 Al 0.71877(4) 0.28123(4) 0.21877(4)
O15 O 0.72248(9) 0.22248(9) 0.22248(9)
O16 O 0.77752(9) 0.22248(9) 0.27752(9)
O17 O 0.78177(12) 0.33988(11) 0.28330(12)
O18 O 0.77314(15) 0.31596(16) 0.13709(13)
O19 O 0.86291(13) 0.27314(15) 0.18404(16)
O20 O 0.81596(16) 0.36291(13) 0.22686(15)
N3 N 0.85171(13) 0.35171(13) 0.14829(13)
Co1_2 Co 0.31270(2) 0.18730(2) 0.81270(2)
Al1_2 Al 0.28123(4) 0.28123(4) 0.78123(4)
O1_2 O 0.27752(9) 0.22248(9) 0.77752(9)
O2_2 O 0.28330(12) 0.28177(12) 0.83988(11)
O3_2 O 0.22686(15) 0.31596(16) 0.86291(13)
N1_2 N 0.35171(13) 0.14829(13) 0.85171(13)
C1_2 C 0.2621(2) 0.2982(2) 0.86786(19)
C2_2 C 0.3306(2) 0.1103(2) 0.8650(3)
H1_2 H 0.317846 0.097060 0.841106
H2_2 H 0.308789 0.117305 0.884596
C3_2 C 0.2795(3) 0.2966(3) 0.9114(2)
C4_2 C 0.2566(4) 0.3086(4) 0.9447(3)
H3_2 H 0.229722 0.318447 0.940731
C5_2 C 0.3192(4) 0.2813(4) 0.9160(3)
H4_2 H 0.334694 0.272935 0.893016
C6_2 C 0.2729(5) 0.3066(5) 0.9851(3)
C7_2 C 0.3355(6) 0.2786(6) 0.9561(5)
H5_2 H 0.360872 0.265599 0.960729
C9_2 C 0.3142(7) 0.2950(6) 0.9879(7)
C10_2 C 0.3650(3) 0.1694(2) 0.8897(2)
H10_2 H 0.341106 0.182154 0.902940
H11_2 H 0.384596 0.191211 0.882695
C11_2 C 0.3897(2) 0.1350(3) 0.8306(2)
H12_2 H 0.402940 0.158894 0.817846
H13_2 H 0.382695 0.115404 0.808789
N2_2 N 0.39829(13) 0.10171(13) 0.89829(13)
C12_2 C 0.3603(2) 0.0806(2) 0.8850(3)
H14_2 H 0.347060 0.067846 0.908894
H15_2 H 0.367305 0.058789 0.865404
C13_2 C 0.3850(3) 0.1397(2) 0.9194(2)
H16_2 H 0.408894 0.152940 0.932154
H17_2 H 0.365404 0.132695 0.941211
C14_2 C 0.4194(2) 0.1150(3) 0.8603(2)
H18_2 H 0.432154 0.091106 0.847060
H19_2 H 0.441211 0.134596 0.867305
Co2_2 Co 0.18730(2) 0.18730(2) 0.68730(2)
Al2_2 Al 0.21877(4) 0.21877(4) 0.78123(4)
O4_2 O 0.22248(9) 0.22248(9) 0.72248(9)
O5_2 O 0.16012(11) 0.21670(12) 0.78177(12)
O6_2 O 0.13709(13) 0.27314(15) 0.81596(16)
C15_2 C 0.13214(19) 0.2379(2) 0.7982(2)
C16_2 C 0.0886(2) 0.2205(3) 0.7966(3)
C17_2 C 0.0553(3) 0.2434(4) 0.8086(4)
H20_2 H 0.059269 0.270278 0.818447
C18_2 C 0.0840(3) 0.1808(4) 0.7813(4)
H21_2 H 0.106984 0.165306 0.772935
C19_2 C 0.0149(3) 0.2271(5) 0.8066(5)
C20_2 C 0.0439(5) 0.1645(6) 0.7786(6)
H22_2 H 0.039271 0.139128 0.765599
C22_2 C 0.0121(7) 0.1858(7) 0.7950(6)
O7_2 O 0.28177(12) 0.33988(11) 0.78330(12)
O8_2 O 0.31596(16) 0.36291(13) 0.72686(15)
C23_2 C 0.2982(2) 0.36786(19) 0.7621(2)
C24_2 C 0.2966(3) 0.4114(2) 0.7795(3)
C25_2 C 0.3086(4) 0.4447(3) 0.7566(4)
H27_2 H 0.318447 0.440731 0.729722
C26_2 C 0.2813(4) 0.4160(3) 0.8192(4)
H28_2 H 0.272935 0.393016 0.834694
C27_2 C 0.3066(5) 0.4851(3) 0.7729(5)
C28_2 C 0.2786(6) 0.4561(5) 0.8355(6)
H29_2 H 0.265599 0.460729 0.860872
C29 C 0.3057(9) 0.5235(10) 0.7367(10)
H30 H 0.333386 0.527230 0.726303
H31 H 0.296276 0.548920 0.749303
H32 H 0.287446 0.516200 0.714253
C30_2 C 0.2950(6) 0.4879(7) 0.8142(7)
H33 H 0.298831 0.513083 0.827840
O9_2 O 0.28177(12) 0.16012(11) 0.71670(12)
O10_2 O 0.31596(16) 0.13709(13) 0.77314(15)
C31_2 C 0.2982(2) 0.13214(19) 0.7379(2)
C32_2 C 0.2966(3) 0.0886(2) 0.7205(3)
C33_2 C 0.3086(4) 0.0553(3) 0.7434(4)
H34_2 H 0.318447 0.059269 0.770278
C34_2 C 0.2813(4) 0.0840(3) 0.6808(4)
H35_2 H 0.272935 0.106984 0.665306
C35_2 C 0.3066(5) 0.0149(3) 0.7271(5)
C36_2 C 0.2786(6) 0.0439(5) 0.6645(6)
H36_2 H 0.265599 0.039271 0.639128
C38_2 C 0.2950(6) 0.0121(7) 0.6858(7)
O11_2 O 0.33988(11) 0.28330(12) 0.78177(12)
O12_2 O 0.36291(13) 0.22686(15) 0.81596(16)
C39_2 C 0.36786(19) 0.2621(2) 0.7982(2)
C40_2 C 0.4114(2) 0.2795(3) 0.7966(3)
C41_2 C 0.4447(3) 0.2566(4) 0.8086(4)
H41_2 H 0.440731 0.229722 0.818447
C42_2 C 0.4160(3) 0.3192(4) 0.7813(4)
H42_2 H 0.393016 0.334694 0.772935
C43_2 C 0.4851(3) 0.2729(5) 0.8066(5)
C44_2 C 0.4561(5) 0.3355(6) 0.7786(6)
H43_2 H 0.460729 0.360872 0.765599
C45_2 C 0.5235(10) 0.2367(10) 0.8057(9)
H44_2 H 0.527230 0.226303 0.833386
H45_2 H 0.548920 0.249303 0.796276
H46_2 H 0.516200 0.214253 0.787446
C46_2 C 0.4879(7) 0.3142(7) 0.7950(6)
H47_2 H 0.513083 0.327840 0.798831
O13_2 O 0.21670(12) 0.21823(12) 0.83988(11)
O14_2 O 0.27314(15) 0.18404(16) 0.86291(13)
C47_2 C 0.2379(2) 0.2018(2) 0.86786(19)
C48_2 C 0.2205(3) 0.2034(3) 0.9114(2)
C49_2 C 0.2434(4) 0.1914(4) 0.9447(3)
H48_2 H 0.270278 0.181553 0.940731
C50_2 C 0.1808(4) 0.2187(4) 0.9160(3)
H49_2 H 0.165306 0.227065 0.893016
C51_2 C 0.2271(5) 0.1934(5) 0.9851(3)
C52_2 C 0.1645(6) 0.2214(6) 0.9561(5)
H50_2 H 0.139128 0.234401 0.960729
C54_2 C 0.1858(7) 0.2050(6) 0.9879(7)
Co3_2 Co 0.31270(2) 0.31270(2) 0.68730(2)
Co4_2 Co 0.43730(2) 0.06270(2) 0.93730(2)
Co5_2 Co 0.18730(2) 0.31270(2) 0.81270(2)
Al3_2 Al 0.21877(4) 0.28123(4) 0.71877(4)
Al4_2 Al 0.28123(4) 0.21877(4) 0.71877(4)
O15_2 O 0.27752(9) 0.27752(9) 0.72248(9)
O16_2 O 0.22248(9) 0.27752(9) 0.77752(9)
O17_2 O 0.21823(12) 0.16012(11) 0.78330(12)
O18_2 O 0.22686(15) 0.18404(16) 0.63709(13)
O19_2 O 0.13709(13) 0.22686(15) 0.68404(16)
O20_2 O 0.18404(16) 0.13709(13) 0.72686(15)
N3_2 N 0.14829(13) 0.14829(13) 0.64829(13)
Co1_3 Co 0.81270(2) 0.81270(2) 0.68730(2)
Al1_3 Al 0.78123(4) 0.71877(4) 0.71877(4)
O1_3 O 0.77752(9) 0.77752(9) 0.72248(9)
O2_3 O 0.78330(12) 0.71823(12) 0.66012(11)
O3_3 O 0.72686(15) 0.68404(16) 0.63709(13)
N1_3 N 0.85171(13) 0.85171(13) 0.64829(13)
C1_3 C 0.7621(2) 0.7018(2) 0.63214(19)
C2_3 C 0.8306(2) 0.8897(2) 0.6350(3)
H1_3 H 0.817846 0.902940 0.658894
H2_3 H 0.808789 0.882695 0.615404
C3_3 C 0.7795(3) 0.7034(3) 0.5886(2)
C4_3 C 0.7566(4) 0.6914(4) 0.5553(3)
H3_3 H 0.729722 0.681553 0.559269
C5_3 C 0.8192(4) 0.7187(4) 0.5840(3)
H4_3 H 0.834694 0.727065 0.606984
C6_3 C 0.7729(5) 0.6934(5) 0.5149(3)
C7_3 C 0.8355(6) 0.7214(6) 0.5439(5)
H5_3 H 0.860872 0.734401 0.539271
C8_2 C 0.7367(10) 0.6943(9) 0.4765(10)
H6_2 H 0.726303 0.666614 0.472770
H7_2 H 0.749303 0.703724 0.451080
H8_2 H 0.714253 0.712554 0.483800
C9_3 C 0.8142(7) 0.7050(6) 0.5121(7)
H9_2 H 0.827840 0.701169 0.486917
C10_3 C 0.8650(3) 0.8306(2) 0.6103(2)
H10_3 H 0.841106 0.817846 0.597060
H11_3 H 0.884596 0.808789 0.617305
C11_3 C 0.8897(2) 0.8650(3) 0.6694(2)
H12_3 H 0.902940 0.841106 0.682154
H13_3 H 0.882695 0.884596 0.691211
N2_3 N 0.89829(13) 0.89829(13) 0.60171(13)
C12_3 C 0.8603(2) 0.9194(2) 0.6150(3)
H14_3 H 0.847060 0.932154 0.591106
H15_3 H 0.867305 0.941211 0.634596
C13_3 C 0.8850(3) 0.8603(2) 0.5806(2)
H16_3 H 0.908894 0.847060 0.567846
H17_3 H 0.865404 0.867305 0.558789
C14_3 C 0.9194(2) 0.8850(3) 0.6397(2)
H18_3 H 0.932154 0.908894 0.652940
H19_3 H 0.941211 0.865404 0.632695
Co2_3 Co 0.68730(2) 0.81270(2) 0.81270(2)
Al2_3 Al 0.71877(4) 0.78123(4) 0.71877(4)
O4_3 O 0.72248(9) 0.77752(9) 0.77752(9)
O5_3 O 0.66012(11) 0.78330(12) 0.71823(12)
O6_3 O 0.63709(13) 0.72686(15) 0.68404(16)
C15_3 C 0.63214(19) 0.7621(2) 0.7018(2)
C16_3 C 0.5886(2) 0.7795(3) 0.7034(3)
C17_3 C 0.5553(3) 0.7566(4) 0.6914(4)
H20_3 H 0.559269 0.729722 0.681553
C18_3 C 0.5840(3) 0.8192(4) 0.7187(4)
H21_3 H 0.606984 0.834694 0.727065
C19_3 C 0.5149(3) 0.7729(5) 0.6934(5)
C20_3 C 0.5439(5) 0.8355(6) 0.7214(6)
H22_3 H 0.539271 0.860872 0.734401
C21_2 C 0.4765(10) 0.7367(10) 0.6943(9)
H23_2 H 0.472770 0.726303 0.666614
H24_2 H 0.451080 0.749303 0.703724
H25_2 H 0.483800 0.714253 0.712554
C22_3 C 0.5121(7) 0.8142(7) 0.7050(6)
H26_2 H 0.486917 0.827840 0.701169
O7_3 O 0.78177(12) 0.66012(11) 0.71670(12)
O8_3 O 0.81596(16) 0.63709(13) 0.77314(15)
C23_3 C 0.7982(2) 0.63214(19) 0.7379(2)
C24_3 C 0.7966(3) 0.5886(2) 0.7205(3)
C25_3 C 0.8086(4) 0.5553(3) 0.7434(4)
H27_3 H 0.818447 0.559269 0.770278
C26_3 C 0.7813(4) 0.5840(3) 0.6808(4)
H28_3 H 0.772935 0.606984 0.665306
C27_3 C 0.8066(5) 0.5149(3) 0.7271(5)
C28_3 C 0.7786(6) 0.5439(5) 0.6645(6)
H29_3 H 0.765599 0.539271 0.639128
C29_2 C 0.8057(9) 0.4765(10) 0.7633(10)
H30_2 H 0.833386 0.472770 0.773697
H31_2 H 0.796276 0.451080 0.750697
H32_2 H 0.787446 0.483800 0.785747
C30_3 C 0.7950(6) 0.5121(7) 0.6858(7)
H33_2 H 0.798831 0.486917 0.672160
O9_3 O 0.78177(12) 0.83988(11) 0.78330(12)
O10_3 O 0.81596(16) 0.86291(13) 0.72686(15)
C31_3 C 0.7982(2) 0.86786(19) 0.7621(2)
C32_3 C 0.7966(3) 0.9114(2) 0.7795(3)
C33_3 C 0.8086(4) 0.9447(3) 0.7566(4)
H34_3 H 0.818447 0.940731 0.729722
C34_3 C 0.7813(4) 0.9160(3) 0.8192(4)
H35_3 H 0.772935 0.893016 0.834694
C35_3 C 0.8066(5) 0.9851(3) 0.7729(5)
C36_3 C 0.7786(6) 0.9561(5) 0.8355(6)
H36_3 H 0.765599 0.960729 0.860872
C38_3 C 0.7950(6) 0.9879(7) 0.8142(7)
O11_3 O 0.83988(11) 0.71670(12) 0.71823(12)
O12_3 O 0.86291(13) 0.77314(15) 0.68404(16)
C39_3 C 0.86786(19) 0.7379(2) 0.7018(2)
C40_3 C 0.9114(2) 0.7205(3) 0.7034(3)
C41_3 C 0.9447(3) 0.7434(4) 0.6914(4)
H41_3 H 0.940731 0.770278 0.681553
C42_3 C 0.9160(3) 0.6808(4) 0.7187(4)
H42_3 H 0.893016 0.665306 0.727065
C43_3 C 0.9851(3) 0.7271(5) 0.6934(5)
C44_3 C 0.9561(5) 0.6645(6) 0.7214(6)
H43_3 H 0.960729 0.639128 0.734401
C46_3 C 0.9879(7) 0.6858(7) 0.7050(6)
O13_3 O 0.71670(12) 0.78177(12) 0.66012(11)
O14_3 O 0.77314(15) 0.81596(16) 0.63709(13)
C47_3 C 0.7379(2) 0.7982(2) 0.63214(19)
C48_3 C 0.7205(3) 0.7966(3) 0.5886(2)
C49_3 C 0.7434(4) 0.8086(4) 0.5553(3)
H48_3 H 0.770278 0.818447 0.559269
C50_3 C 0.6808(4) 0.7813(4) 0.5840(3)
H49_3 H 0.665306 0.772935 0.606984
C51_3 C 0.7271(5) 0.8066(5) 0.5149(3)
C52_3 C 0.6645(6) 0.7786(6) 0.5439(5)
H50_3 H 0.639128 0.765599 0.539271
C53_3 C 0.7633(10) 0.8057(9) 0.4765(10)
H51_3 H 0.773697 0.833386 0.472770
H52_3 H 0.750697 0.796276 0.451080
H53_3 H 0.785747 0.787446 0.483800
C54_3 C 0.6858(7) 0.7950(6) 0.5121(7)
H54_3 H 0.672160 0.798831 0.486917
Co3_3 Co 0.81270(2) 0.68730(2) 0.81270(2)
Co4_3 Co 0.93730(2) 0.93730(2) 0.56270(2)
Co5_3 Co 0.68730(2) 0.68730(2) 0.68730(2)
Al3_3 Al 0.71877(4) 0.71877(4) 0.78123(4)
Al4_3 Al 0.78123(4) 0.78123(4) 0.78123(4)
O15_3 O 0.77752(9) 0.72248(9) 0.77752(9)
O16_3 O 0.72248(9) 0.72248(9) 0.72248(9)
O17_3 O 0.71823(12) 0.83988(11) 0.71670(12)
O18_3 O 0.72686(15) 0.81596(16) 0.86291(13)
O19_3 O 0.63709(13) 0.77314(15) 0.81596(16)
O20_3 O 0.68404(16) 0.86291(13) 0.77314(15)
N3_3 N 0.64829(13) 0.85171(13) 0.85171(13)
Co1_4 Co 0.18730(2) 0.68730(2) 0.18730(2)
Al1_4 Al 0.21877(4) 0.78123(4) 0.21877(4)
O1_4 O 0.22248(9) 0.72248(9) 0.22248(9)
O2_4 O 0.21670(12) 0.78177(12) 0.16012(11)
O3_4 O 0.27314(15) 0.81596(16) 0.13709(13)
N1_4 N 0.14829(13) 0.64829(13) 0.14829(13)
C1_4 C 0.2379(2) 0.7982(2) 0.13214(19)
C2_4 C 0.1694(2) 0.6103(2) 0.1350(3)
H1_4 H 0.182154 0.597060 0.158894
H2_4 H 0.191211 0.617305 0.115404
C3_4 C 0.2205(3) 0.7966(3) 0.0886(2)
C4_4 C 0.2434(4) 0.8086(4) 0.0553(3)
H3_4 H 0.270278 0.818447 0.059269
C5_4 C 0.1808(4) 0.7813(4) 0.0840(3)
H4_4 H 0.165306 0.772935 0.106984
C6_4 C 0.2271(5) 0.8066(5) 0.0149(3)
C7_4 C 0.1645(6) 0.7786(6) 0.0439(5)
H5_4 H 0.139128 0.765599 0.039271
C9_4 C 0.1858(7) 0.7950(6) 0.0121(7)
C10_4 C 0.1350(3) 0.6694(2) 0.1103(2)
H10_4 H 0.158894 0.682154 0.097060
H11_4 H 0.115404 0.691211 0.117305
C11_4 C 0.1103(2) 0.6350(3) 0.1694(2)
H12_4 H 0.097060 0.658894 0.182154
H13_4 H 0.117305 0.615404 0.191211
N2_4 N 0.10171(13) 0.60171(13) 0.10171(13)
C12_4 C 0.1397(2) 0.5806(2) 0.1150(3)
H14_4 H 0.152940 0.567846 0.091106
H15_4 H 0.132695 0.558789 0.134596
C13_4 C 0.1150(3) 0.6397(2) 0.0806(2)
H16_4 H 0.091106 0.652940 0.067846
H17_4 H 0.134596 0.632695 0.058789
C14_4 C 0.0806(2) 0.6150(3) 0.1397(2)
H18_4 H 0.067846 0.591106 0.152940
H19_4 H 0.058789 0.634596 0.132695
Co2_4 Co 0.31270(2) 0.68730(2) 0.31270(2)
Al2_4 Al 0.28123(4) 0.71877(4) 0.21877(4)
O4_4 O 0.27752(9) 0.72248(9) 0.27752(9)
O5_4 O 0.33988(11) 0.71670(12) 0.21823(12)
O6_4 O 0.36291(13) 0.77314(15) 0.18404(16)
C15_4 C 0.36786(19) 0.7379(2) 0.2018(2)
C16_4 C 0.4114(2) 0.7205(3) 0.2034(3)
C17_4 C 0.4447(3) 0.7434(4) 0.1914(4)
H20_4 H 0.440731 0.770278 0.181553
C18_4 C 0.4160(3) 0.6808(4) 0.2187(4)
H21_4 H 0.393016 0.665306 0.227065
C19_4 C 0.4851(3) 0.7271(5) 0.1934(5)
C20_4 C 0.4561(5) 0.6645(6) 0.2214(6)
H22_4 H 0.460729 0.639128 0.234401
C21_3 C 0.5235(10) 0.7633(10) 0.1943(9)
H23_3 H 0.527230 0.773697 0.166614
H24_3 H 0.548920 0.750697 0.203724
H25_3 H 0.516200 0.785747 0.212554
C22_4 C 0.4879(7) 0.6858(7) 0.2050(6)
H26_3 H 0.513083 0.672160 0.201169
O7_4 O 0.21823(12) 0.83988(11) 0.21670(12)
O8_4 O 0.18404(16) 0.86291(13) 0.27314(15)
C23_4 C 0.2018(2) 0.86786(19) 0.2379(2)
C24_4 C 0.2034(3) 0.9114(2) 0.2205(3)
C25_4 C 0.1914(4) 0.9447(3) 0.2434(4)
H27_4 H 0.181553 0.940731 0.270278
C26_4 C 0.2187(4) 0.9160(3) 0.1808(4)
H28_4 H 0.227065 0.893016 0.165306
C27_4 C 0.1934(5) 0.9851(3) 0.2271(5)
C28_4 C 0.2214(6) 0.9561(5) 0.1645(6)
H29_4 H 0.234401 0.960729 0.139128
C30_4 C 0.2050(6) 0.9879(7) 0.1858(7)
O9_4 O 0.21823(12) 0.66012(11) 0.28330(12)
O10_4 O 0.18404(16) 0.63709(13) 0.22686(15)
C31_4 C 0.2018(2) 0.63214(19) 0.2621(2)
C32_4 C 0.2034(3) 0.5886(2) 0.2795(3)
C33_4 C 0.1914(4) 0.5553(3) 0.2566(4)
H34_4 H 0.181553 0.559269 0.229722
C34_4 C 0.2187(4) 0.5840(3) 0.3192(4)
H35_4 H 0.227065 0.606984 0.334694
C35_4 C 0.1934(5) 0.5149(3) 0.2729(5)
C36_4 C 0.2214(6) 0.5439(5) 0.3355(6)
H36_4 H 0.234401 0.539271 0.360872
C37_2 C 0.1943(9) 0.4765(10) 0.2367(10)
H37_2 H 0.166614 0.472770 0.226303
H38_2 H 0.203724 0.451080 0.249303
H39_2 H 0.212554 0.483800 0.214253
C38_4 C 0.2050(6) 0.5121(7) 0.3142(7)
H40_2 H 0.201169 0.486917 0.327840
O11_4 O 0.16012(11) 0.78330(12) 0.21823(12)
O12_4 O 0.13709(13) 0.72686(15) 0.18404(16)
C39_4 C 0.13214(19) 0.7621(2) 0.2018(2)
C40_4 C 0.0886(2) 0.7795(3) 0.2034(3)
C41_4 C 0.0553(3) 0.7566(4) 0.1914(4)
H41_4 H 0.059269 0.729722 0.181553
C42_4 C 0.0840(3) 0.8192(4) 0.2187(4)
H42_4 H 0.106984 0.834694 0.227065
C43_4 C 0.0149(3) 0.7729(5) 0.1934(5)
C44_4 C 0.0439(5) 0.8355(6) 0.2214(6)
H43_4 H 0.039271 0.860872 0.234401
C46_4 C 0.0121(7) 0.8142(7) 0.2050(6)
O13_4 O 0.28330(12) 0.71823(12) 0.16012(11)
O14_4 O 0.22686(15) 0.68404(16) 0.13709(13)
C47_4 C 0.2621(2) 0.7018(2) 0.13214(19)
C48_4 C 0.2795(3) 0.7034(3) 0.0886(2)
C49_4 C 0.2566(4) 0.6914(4) 0.0553(3)
H48_4 H 0.229722 0.681553 0.059269
C50_4 C 0.3192(4) 0.7187(4) 0.0840(3)
H49_4 H 0.334694 0.727065 0.106984
C51_4 C 0.2729(5) 0.6934(5) 0.0149(3)
C52_4 C 0.3355(6) 0.7214(6) 0.0439(5)
H50_4 H 0.360872 0.734401 0.039271
C54_4 C 0.3142(7) 0.7050(6) 0.0121(7)
Co3_4 Co 0.18730(2) 0.81270(2) 0.31270(2)
Co4_4 Co 0.06270(2) 0.56270(2) 0.06270(2)
Co5_4 Co 0.31270(2) 0.81270(2) 0.18730(2)
Al3_4 Al 0.28123(4) 0.78123(4) 0.28123(4)
Al4_4 Al 0.21877(4) 0.71877(4) 0.28123(4)
O15_4 O 0.22248(9) 0.77752(9) 0.27752(9)
O16_4 O 0.27752(9) 0.77752(9) 0.22248(9)
O17_4 O 0.28177(12) 0.66012(11) 0.21670(12)
O18_4 O 0.27314(15) 0.68404(16) 0.36291(13)
O19_4 O 0.36291(13) 0.72686(15) 0.31596(16)
O20_4 O 0.31596(16) 0.63709(13) 0.27314(15)
N3_4 N 0.35171(13) 0.64829(13) 0.35171(13)
C2_5 C 0.3650(3) 0.6694(2) 0.3897(2)
H1_5 H 0.341106 0.682154 0.402940
H2_5 H 0.384596 0.691211 0.382695
C10_5 C 0.3897(2) 0.6350(3) 0.3306(2)
H10_5 H 0.402940 0.658894 0.317846
H11_5 H 0.382695 0.615404 0.308789
C11_5 C 0.3306(2) 0.6103(2) 0.3650(3)
H12_5 H 0.317846 0.597060 0.341106
H13_5 H 0.308789 0.617305 0.384596
N2_5 N 0.39829(13) 0.60171(13) 0.39829(13)
C12_5 C 0.3850(3) 0.6397(2) 0.4194(2)
H14_5 H 0.408894 0.652940 0.432154
H15_5 H 0.365404 0.632695 0.441211
C13_5 C 0.4194(2) 0.6150(3) 0.3603(2)
H16_5 H 0.432154 0.591106 0.347060
H17_5 H 0.441211 0.634596 0.367305
C14_5 C 0.3603(2) 0.5806(2) 0.3850(3)
H18_5 H 0.347060 0.567846 0.408894
H19_5 H 0.367305 0.558789 0.365404
O5_5 O 0.28177(12) 0.83988(11) 0.28330(12)
O6_5 O 0.31596(16) 0.86291(13) 0.22686(15)
C15_5 C 0.2982(2) 0.86786(19) 0.2621(2)
C16_5 C 0.2966(3) 0.9114(2) 0.2795(3)
C17_5 C 0.3086(4) 0.9447(3) 0.2566(4)
H20_5 H 0.318447 0.940731 0.229722
C18_5 C 0.2813(4) 0.9160(3) 0.3192(4)
H21_5 H 0.272935 0.893016 0.334694
C19_5 C 0.3066(5) 0.9851(3) 0.2729(5)
C20_5 C 0.2786(6) 0.9561(5) 0.3355(6)
H22_5 H 0.265599 0.960729 0.360872
C22_5 C 0.2950(6) 0.9879(7) 0.3142(7)
O9_5 O 0.21670(12) 0.71823(12) 0.33988(11)
C31_5 C 0.2379(2) 0.7018(2) 0.36786(19)
C32_5 C 0.2205(3) 0.7034(3) 0.4114(2)
C33_5 C 0.2434(4) 0.6914(4) 0.4447(3)
H34_5 H 0.270278 0.681553 0.440731
C34_5 C 0.1808(4) 0.7187(4) 0.4160(3)
H35_5 H 0.165306 0.727065 0.393016
C35_5 C 0.2271(5) 0.6934(5) 0.4851(3)
C36_5 C 0.1645(6) 0.7214(6) 0.4561(5)
H36_5 H 0.139128 0.734401 0.460729
C37_3 C 0.2633(10) 0.6943(9) 0.5235(10)
H37_3 H 0.273697 0.666614 0.527230
H38_3 H 0.250697 0.703724 0.548920
H39_3 H 0.285747 0.712554 0.516200
C38_5 C 0.1858(7) 0.7050(6) 0.4879(7)
H40_3 H 0.172160 0.701169 0.513083
C39_5 C 0.2982(2) 0.63214(19) 0.2379(2)
C40_5 C 0.2966(3) 0.5886(2) 0.2205(3)
C41_5 C 0.3086(4) 0.5553(3) 0.2434(4)
H41_5 H 0.318447 0.559269 0.270278
C42_5 C 0.2813(4) 0.5840(3) 0.1808(4)
H42_5 H 0.272935 0.606984 0.165306
C43_5 C 0.3066(5) 0.5149(3) 0.2271(5)
C44_5 C 0.2786(6) 0.5439(5) 0.1645(6)
H43_5 H 0.265599 0.539271 0.139128
C45_3 C 0.3057(9) 0.4765(10) 0.2633(10)
H44_3 H 0.333386 0.472770 0.273697
H45_3 H 0.296276 0.451080 0.250697
H46_3 H 0.287446 0.483800 0.285747
C46_5 C 0.2950(6) 0.5121(7) 0.1858(7)
H47_3 H 0.298831 0.486917 0.172160
O13_5 O 0.33988(11) 0.78330(12) 0.28177(12)
C47_5 C 0.36786(19) 0.7621(2) 0.2982(2)
C48_5 C 0.4114(2) 0.7795(3) 0.2966(3)
C49_5 C 0.4447(3) 0.7566(4) 0.3086(4)
H48_5 H 0.440731 0.729722 0.318447
C50_5 C 0.4160(3) 0.8192(4) 0.2813(4)
H49_5 H 0.393016 0.834694 0.272935
C51_5 C 0.4851(3) 0.7729(5) 0.3066(5)
C52_5 C 0.4561(5) 0.8355(6) 0.2786(6)
H50_5 H 0.460729 0.860872 0.265599
C53_4 C 0.5235(10) 0.7367(10) 0.3057(9)
H51_4 H 0.527230 0.726303 0.333386
H52_4 H 0.548920 0.749303 0.296276
H53_4 H 0.516200 0.714253 0.287446
C54_5 C 0.4879(7) 0.8142(7) 0.2950(6)
H54_4 H 0.513083 0.827840 0.298831
Co4_5 Co 0.43730(2) 0.56270(2) 0.43730(2)
O17_5 O 0.28330(12) 0.78177(12) 0.33988(11)
O18_5 O 0.13709(13) 0.77314(15) 0.31596(16)
O20_5 O 0.22686(15) 0.81596(16) 0.36291(13)
N3_5 N 0.14829(13) 0.85171(13) 0.35171(13)
C2_6 C 0.8650(3) 0.3306(2) 0.1103(2)
H1_6 H 0.841106 0.317846 0.097060
H2_6 H 0.884596 0.308789 0.117305
C10_6 C 0.8897(2) 0.3650(3) 0.1694(2)
H10_6 H 0.902940 0.341106 0.182154
H11_6 H 0.882695 0.384596 0.191211
C11_6 C 0.8306(2) 0.3897(2) 0.1350(3)
H12_6 H 0.817846 0.402940 0.158894
H13_6 H 0.808789 0.382695 0.115404
N2_6 N 0.89829(13) 0.39829(13) 0.10171(13)
C12_6 C 0.8850(3) 0.3603(2) 0.0806(2)
H14_6 H 0.908894 0.347060 0.067846
H15_6 H 0.865404 0.367305 0.058789
C13_6 C 0.9194(2) 0.3850(3) 0.1397(2)
H16_6 H 0.932154 0.408894 0.152940
H17_6 H 0.941211 0.365404 0.132695
C14_6 C 0.8603(2) 0.4194(2) 0.1150(3)
H18_6 H 0.847060 0.432154 0.091106
H19_6 H 0.867305 0.441211 0.134596
O5_6 O 0.78177(12) 0.16012(11) 0.21670(12)
O6_6 O 0.81596(16) 0.13709(13) 0.27314(15)
C15_6 C 0.7982(2) 0.13214(19) 0.2379(2)
C16_6 C 0.7966(3) 0.0886(2) 0.2205(3)
C17_6 C 0.8086(4) 0.0553(3) 0.2434(4)
H20_6 H 0.818447 0.059269 0.270278
C18_6 C 0.7813(4) 0.0840(3) 0.1808(4)
H21_6 H 0.772935 0.106984 0.165306
C19_6 C 0.8066(5) 0.0149(3) 0.2271(5)
C20_6 C 0.7786(6) 0.0439(5) 0.1645(6)
H22_6 H 0.765599 0.039271 0.139128
C22_6 C 0.7950(6) 0.0121(7) 0.1858(7)
O9_6 O 0.71670(12) 0.28177(12) 0.16012(11)
C31_6 C 0.7379(2) 0.2982(2) 0.13214(19)
C32_6 C 0.7205(3) 0.2966(3) 0.0886(2)
C33_6 C 0.7434(4) 0.3086(4) 0.0553(3)
H34_6 H 0.770278 0.318447 0.059269
C34_6 C 0.6808(4) 0.2813(4) 0.0840(3)
H35_6 H 0.665306 0.272935 0.106984
C35_6 C 0.7271(5) 0.3066(5) 0.0149(3)
C36_6 C 0.6645(6) 0.2786(6) 0.0439(5)
H36_6 H 0.639128 0.265599 0.039271
C38_6 C 0.6858(7) 0.2950(6) 0.0121(7)
C39_6 C 0.7982(2) 0.36786(19) 0.2621(2)
C40_6 C 0.7966(3) 0.4114(2) 0.2795(3)
C41_6 C 0.8086(4) 0.4447(3) 0.2566(4)
H41_6 H 0.818447 0.440731 0.229722
C42_6 C 0.7813(4) 0.4160(3) 0.3192(4)
H42_6 H 0.772935 0.393016 0.334694
C43_6 C 0.8066(5) 0.4851(3) 0.2729(5)
C44_6 C 0.7786(6) 0.4561(5) 0.3355(6)
H43_6 H 0.765599 0.460729 0.360872
C45_4 C 0.8057(9) 0.5235(10) 0.2367(10)
H44_4 H 0.833386 0.527230 0.226303
H45_4 H 0.796276 0.548920 0.249303
H46_4 H 0.787446 0.516200 0.214253
C46_6 C 0.7950(6) 0.4879(7) 0.3142(7)
H47_4 H 0.798831 0.513083 0.327840
O13_6 O 0.83988(11) 0.21670(12) 0.21823(12)
C47_6 C 0.86786(19) 0.2379(2) 0.2018(2)
C48_6 C 0.9114(2) 0.2205(3) 0.2034(3)
C49_6 C 0.9447(3) 0.2434(4) 0.1914(4)
H48_6 H 0.940731 0.270278 0.181553
C50_6 C 0.9160(3) 0.1808(4) 0.2187(4)
H49_6 H 0.893016 0.165306 0.227065
C51_6 C 0.9851(3) 0.2271(5) 0.1934(5)
C52_6 C 0.9561(5) 0.1645(6) 0.2214(6)
H50_6 H 0.960729 0.139128 0.234401
C54_6 C 0.9879(7) 0.1858(7) 0.2050(6)
Co4_6 Co 0.93730(2) 0.43730(2) 0.06270(2)
O17_6 O 0.78330(12) 0.21823(12) 0.16012(11)
O18_6 O 0.63709(13) 0.22686(15) 0.18404(16)
O20_6 O 0.72686(15) 0.18404(16) 0.13709(13)
N3_6 N 0.64829(13) 0.14829(13) 0.14829(13)
C2_7 C 0.6350(3) 0.8306(2) 0.8897(2)
H1_7 H 0.658894 0.817846 0.902940
H2_7 H 0.615404 0.808789 0.882695
C10_7 C 0.6103(2) 0.8650(3) 0.8306(2)
H10_7 H 0.597060 0.841106 0.817846
H11_7 H 0.617305 0.884596 0.808789
C11_7 C 0.6694(2) 0.8897(2) 0.8650(3)
H12_7 H 0.682154 0.902940 0.841106
H13_7 H 0.691211 0.882695 0.884596
N2_7 N 0.60171(13) 0.89829(13) 0.89829(13)
C12_7 C 0.6150(3) 0.8603(2) 0.9194(2)
H14_7 H 0.591106 0.847060 0.932154
H15_7 H 0.634596 0.867305 0.941211
C13_7 C 0.5806(2) 0.8850(3) 0.8603(2)
H16_7 H 0.567846 0.908894 0.847060
H17_7 H 0.558789 0.865404 0.867305
C14_7 C 0.6397(2) 0.9194(2) 0.8850(3)
H18_7 H 0.652940 0.932154 0.908894
H19_7 H 0.632695 0.941211 0.865404
O5_7 O 0.71823(12) 0.66012(11) 0.78330(12)
O6_7 O 0.68404(16) 0.63709(13) 0.72686(15)
C15_7 C 0.7018(2) 0.63214(19) 0.7621(2)
C16_7 C 0.7034(3) 0.5886(2) 0.7795(3)
C17_7 C 0.6914(4) 0.5553(3) 0.7566(4)
H20_7 H 0.681553 0.559269 0.729722
C18_7 C 0.7187(4) 0.5840(3) 0.8192(4)
H21_7 H 0.727065 0.606984 0.834694
C19_7 C 0.6934(5) 0.5149(3) 0.7729(5)
C20_7 C 0.7214(6) 0.5439(5) 0.8355(6)
H22_7 H 0.734401 0.539271 0.860872
C21_4 C 0.6943(9) 0.4765(10) 0.7367(10)
H23_4 H 0.666614 0.472770 0.726303
H24_4 H 0.703724 0.451080 0.749303
H25_4 H 0.712554 0.483800 0.714253
C22_7 C 0.7050(6) 0.5121(7) 0.8142(7)
H26_4 H 0.701169 0.486917 0.827840
O9_7 O 0.78330(12) 0.78177(12) 0.83988(11)
C31_7 C 0.7621(2) 0.7982(2) 0.86786(19)
C32_7 C 0.7795(3) 0.7966(3) 0.9114(2)
C33_7 C 0.7566(4) 0.8086(4) 0.9447(3)
H34_7 H 0.729722 0.818447 0.940731
C34_7 C 0.8192(4) 0.7813(4) 0.9160(3)
H35_7 H 0.834694 0.772935 0.893016
C35_7 C 0.7729(5) 0.8066(5) 0.9851(3)
C36_7 C 0.8355(6) 0.7786(6) 0.9561(5)
H36_7 H 0.860872 0.765599 0.960729
C38_7 C 0.8142(7) 0.7950(6) 0.9879(7)
C39_7 C 0.7018(2) 0.86786(19) 0.7379(2)
C40_7 C 0.7034(3) 0.9114(2) 0.7205(3)
C41_7 C 0.6914(4) 0.9447(3) 0.7434(4)
H41_7 H 0.681553 0.940731 0.770278
C42_7 C 0.7187(4) 0.9160(3) 0.6808(4)
H42_7 H 0.727065 0.893016 0.665306
C43_7 C 0.6934(5) 0.9851(3) 0.7271(5)
C44_7 C 0.7214(6) 0.9561(5) 0.6645(6)
H43_7 H 0.734401 0.960729 0.639128
C46_7 C 0.7050(6) 0.9879(7) 0.6858(7)
O13_7 O 0.66012(11) 0.71670(12) 0.78177(12)
C47_7 C 0.63214(19) 0.7379(2) 0.7982(2)
C48_7 C 0.5886(2) 0.7205(3) 0.7966(3)
C49_7 C 0.5553(3) 0.7434(4) 0.8086(4)
H48_7 H 0.559269 0.770278 0.818447
C50_7 C 0.5840(3) 0.6808(4) 0.7813(4)
H49_7 H 0.606984 0.665306 0.772935
C51_7 C 0.5149(3) 0.7271(5) 0.8066(5)
C52_7 C 0.5439(5) 0.6645(6) 0.7786(6)
H50_7 H 0.539271 0.639128 0.765599
C53_5 C 0.4765(10) 0.7633(10) 0.8057(9)
H51_5 H 0.472770 0.773697 0.833386
H52_5 H 0.451080 0.750697 0.796276
H53_5 H 0.483800 0.785747 0.787446
C54_7 C 0.5121(7) 0.6858(7) 0.7950(6)
H54_5 H 0.486917 0.672160 0.798831
Co4_7 Co 0.56270(2) 0.93730(2) 0.93730(2)
O17_7 O 0.71670(12) 0.71823(12) 0.83988(11)
O18_7 O 0.86291(13) 0.72686(15) 0.81596(16)
O20_7 O 0.77314(15) 0.68404(16) 0.86291(13)
N3_7 N 0.85171(13) 0.64829(13) 0.85171(13)
C2_8 C 0.1350(3) 0.1694(2) 0.6103(2)
H1_8 H 0.158894 0.182154 0.597060
H2_8 H 0.115404 0.191211 0.617305
C10_8 C 0.1103(2) 0.1350(3) 0.6694(2)
H10_8 H 0.097060 0.158894 0.682154
H11_8 H 0.117305 0.115404 0.691211
C11_8 C 0.1694(2) 0.1103(2) 0.6350(3)
H12_8 H 0.182154 0.097060 0.658894
H13_8 H 0.191211 0.117305 0.615404
N2_8 N 0.10171(13) 0.10171(13) 0.60171(13)
C12_8 C 0.1150(3) 0.1397(2) 0.5806(2)
H14_8 H 0.091106 0.152940 0.567846
H15_8 H 0.134596 0.132695 0.558789
C13_8 C 0.0806(2) 0.1150(3) 0.6397(2)
H16_8 H 0.067846 0.091106 0.652940
H17_8 H 0.058789 0.134596 0.632695
C14_8 C 0.1397(2) 0.0806(2) 0.6150(3)
H18_8 H 0.152940 0.067846 0.591106
H19_8 H 0.132695 0.058789 0.634596
O5_8 O 0.21823(12) 0.33988(11) 0.71670(12)
O6_8 O 0.18404(16) 0.36291(13) 0.77314(15)
C15_8 C 0.2018(2) 0.36786(19) 0.7379(2)
C16_8 C 0.2034(3) 0.4114(2) 0.7205(3)
C17_8 C 0.1914(4) 0.4447(3) 0.7434(4)
H20_8 H 0.181553 0.440731 0.770278
C18_8 C 0.2187(4) 0.4160(3) 0.6808(4)
H21_8 H 0.227065 0.393016 0.665306
C19_8 C 0.1934(5) 0.4851(3) 0.7271(5)
C20_8 C 0.2214(6) 0.4561(5) 0.6645(6)
H22_8 H 0.234401 0.460729 0.639128
C21_5 C 0.1943(9) 0.5235(10) 0.7633(10)
H23_5 H 0.166614 0.527230 0.773697
H24_5 H 0.203724 0.548920 0.750697
H25_5 H 0.212554 0.516200 0.785747
C22_8 C 0.2050(6) 0.4879(7) 0.6858(7)
H26_5 H 0.201169 0.513083 0.672160
O9_8 O 0.28330(12) 0.21823(12) 0.66012(11)
C31_8 C 0.2621(2) 0.2018(2) 0.63214(19)
C32_8 C 0.2795(3) 0.2034(3) 0.5886(2)
C33_8 C 0.2566(4) 0.1914(4) 0.5553(3)
H34_8 H 0.229722 0.181553 0.559269
C34_8 C 0.3192(4) 0.2187(4) 0.5840(3)
H35_8 H 0.334694 0.227065 0.606984
C35_8 C 0.2729(5) 0.1934(5) 0.5149(3)
C36_8 C 0.3355(6) 0.2214(6) 0.5439(5)
H36_8 H 0.360872 0.234401 0.539271
C37_4 C 0.2367(10) 0.1943(9) 0.4765(10)
H37_4 H 0.226303 0.166614 0.472770
H38_4 H 0.249303 0.203724 0.451080
H39_4 H 0.214253 0.212554 0.483800
C38_8 C 0.3142(7) 0.2050(6) 0.5121(7)
H40_4 H 0.327840 0.201169 0.486917
C39_8 C 0.2018(2) 0.13214(19) 0.7621(2)
C40_8 C 0.2034(3) 0.0886(2) 0.7795(3)
C41_8 C 0.1914(4) 0.0553(3) 0.7566(4)
H41_8 H 0.181553 0.059269 0.729722
C42_8 C 0.2187(4) 0.0840(3) 0.8192(4)
H42_8 H 0.227065 0.106984 0.834694
C43_8 C 0.1934(5) 0.0149(3) 0.7729(5)
C44_8 C 0.2214(6) 0.0439(5) 0.8355(6)
H43_8 H 0.234401 0.039271 0.860872
C46_8 C 0.2050(6) 0.0121(7) 0.8142(7)
O13_8 O 0.16012(11) 0.28330(12) 0.71823(12)
C47_8 C 0.13214(19) 0.2621(2) 0.7018(2)
C48_8 C 0.0886(2) 0.2795(3) 0.7034(3)
C49_8 C 0.0553(3) 0.2566(4) 0.6914(4)
H48_8 H 0.059269 0.229722 0.681553
C50_8 C 0.0840(3) 0.3192(4) 0.7187(4)
H49_8 H 0.106984 0.334694 0.727065
C51_8 C 0.0149(3) 0.2729(5) 0.6934(5)
C52_8 C 0.0439(5) 0.3355(6) 0.7214(6)
H50_8 H 0.039271 0.360872 0.734401
C54_8 C 0.0121(7) 0.3142(7) 0.7050(6)
Co4_8 Co 0.06270(2) 0.06270(2) 0.56270(2)
O17_8 O 0.21670(12) 0.28177(12) 0.66012(11)
O18_8 O 0.36291(13) 0.27314(15) 0.68404(16)
O20_8 O 0.27314(15) 0.31596(16) 0.63709(13)
N3_8 N 0.35171(13) 0.35171(13) 0.64829(13)
C2_9 C 0.3897(2) 0.3650(3) 0.6694(2)
H1_9 H 0.402940 0.341106 0.682154
H2_9 H 0.382695 0.384596 0.691211
C10_9 C 0.3306(2) 0.3897(2) 0.6350(3)
H10_9 H 0.317846 0.402940 0.658894
H11_9 H 0.308789 0.382695 0.615404
C11_9 C 0.3650(3) 0.3306(2) 0.6103(2)
H12_9 H 0.341106 0.317846 0.597060
H13_9 H 0.384596 0.308789 0.617305
N2_9 N 0.39829(13) 0.39829(13) 0.60171(13)
C12_9 C 0.4194(2) 0.3850(3) 0.6397(2)
H14_9 H 0.432154 0.408894 0.652940
H15_9 H 0.441211 0.365404 0.632695
C13_9 C 0.3603(2) 0.4194(2) 0.6150(3)
H16_9 H 0.347060 0.432154 0.591106
H17_9 H 0.367305 0.441211 0.634596
C14_9 C 0.3850(3) 0.3603(2) 0.5806(2)
H18_9 H 0.408894 0.347060 0.567846
H19_9 H 0.365404 0.367305 0.558789
O9_9 O 0.33988(11) 0.21670(12) 0.71823(12)
C31_9 C 0.36786(19) 0.2379(2) 0.7018(2)
C32_9 C 0.4114(2) 0.2205(3) 0.7034(3)
C33_9 C 0.4447(3) 0.2434(4) 0.6914(4)
H34_9 H 0.440731 0.270278 0.681553
C34_9 C 0.4160(3) 0.1808(4) 0.7187(4)
H35_9 H 0.393016 0.165306 0.727065
C35_9 C 0.4851(3) 0.2271(5) 0.6934(5)
C36_9 C 0.4561(5) 0.1645(6) 0.7214(6)
H36_9 H 0.460729 0.139128 0.734401
C37_5 C 0.5235(10) 0.2633(10) 0.6943(9)
H37_5 H 0.527230 0.273697 0.666614
H38_5 H 0.548920 0.250697 0.703724
H39_5 H 0.516200 0.285747 0.712554
C38_9 C 0.4879(7) 0.1858(7) 0.7050(6)
H40_5 H 0.513083 0.172160 0.701169
C39_9 C 0.2379(2) 0.2982(2) 0.63214(19)
C40_9 C 0.2205(3) 0.2966(3) 0.5886(2)
C41_9 C 0.2434(4) 0.3086(4) 0.5553(3)
H41_9 H 0.270278 0.318447 0.559269
C42_9 C 0.1808(4) 0.2813(4) 0.5840(3)
H42_9 H 0.165306 0.272935 0.606984
C43_9 C 0.2271(5) 0.3066(5) 0.5149(3)
C44_9 C 0.1645(6) 0.2786(6) 0.5439(5)
H43_9 H 0.139128 0.265599 0.539271
C45_5 C 0.2633(10) 0.3057(9) 0.4765(10)
H44_5 H 0.273697 0.333386 0.472770
H45_5 H 0.250697 0.296276 0.451080
H46_5 H 0.285747 0.287446 0.483800
C46_9 C 0.1858(7) 0.2950(6) 0.5121(7)
H47_5 H 0.172160 0.298831 0.486917
Co4_9 Co 0.43730(2) 0.43730(2) 0.56270(2)
C2_10 C 0.1103(2) 0.8650(3) 0.3306(2)
H1_10 H 0.097060 0.841106 0.317846
H2_10 H 0.117305 0.884596 0.308789
C10_10 C 0.1694(2) 0.8897(2) 0.3650(3)
H10_10 H 0.182154 0.902940 0.341106
H11_10 H 0.191211 0.882695 0.384596
C11_10 C 0.1350(3) 0.8306(2) 0.3897(2)
H12_10 H 0.158894 0.817846 0.402940
H13_10 H 0.115404 0.808789 0.382695
N2_10 N 0.10171(13) 0.89829(13) 0.39829(13)
C12_10 C 0.0806(2) 0.8850(3) 0.3603(2)
H14_10 H 0.067846 0.908894 0.347060
H15_10 H 0.058789 0.865404 0.367305
C13_10 C 0.1397(2) 0.9194(2) 0.3850(3)
H16_10 H 0.152940 0.932154 0.408894
H17_10 H 0.132695 0.941211 0.365404
C14_10 C 0.1150(3) 0.8603(2) 0.4194(2)
H18_10 H 0.091106 0.847060 0.432154
H19_10 H 0.134596 0.867305 0.441211
O9_10 O 0.16012(11) 0.71670(12) 0.28177(12)
C31_10 C 0.13214(19) 0.7379(2) 0.2982(2)
C32_10 C 0.0886(2) 0.7205(3) 0.2966(3)
C33_10 C 0.0553(3) 0.7434(4) 0.3086(4)
H34_10 H 0.059269 0.770278 0.318447
C34_10 C 0.0840(3) 0.6808(4) 0.2813(4)
H35_10 H 0.106984 0.665306 0.272935
C35_10 C 0.0149(3) 0.7271(5) 0.3066(5)
C36_10 C 0.0439(5) 0.6645(6) 0.2786(6)
H36_10 H 0.039271 0.639128 0.265599
C38_10 C 0.0121(7) 0.6858(7) 0.2950(6)
C39_10 C 0.2621(2) 0.7982(2) 0.36786(19)
C40_10 C 0.2795(3) 0.7966(3) 0.4114(2)
C41_10 C 0.2566(4) 0.8086(4) 0.4447(3)
H41_10 H 0.229722 0.818447 0.440731
C42_10 C 0.3192(4) 0.7813(4) 0.4160(3)
H42_10 H 0.334694 0.772935 0.393016
C43_10 C 0.2729(5) 0.8066(5) 0.4851(3)
C44_10 C 0.3355(6) 0.7786(6) 0.4561(5)
H43_10 H 0.360872 0.765599 0.460729
C45_6 C 0.2367(10) 0.8057(9) 0.5235(10)
H44_6 H 0.226303 0.833386 0.527230
H45_6 H 0.249303 0.796276 0.548920
H46_6 H 0.214253 0.787446 0.516200
C46_10 C 0.3142(7) 0.7950(6) 0.4879(7)
H47_6 H 0.327840 0.798831 0.513083
Co4_10 Co 0.06270(2) 0.93730(2) 0.43730(2)
C2_11 C 0.8897(2) 0.6350(3) 0.8306(2)
H1_11 H 0.902940 0.658894 0.817846
H2_11 H 0.882695 0.615404 0.808789
C10_11 C 0.8306(2) 0.6103(2) 0.8650(3)
H10_11 H 0.817846 0.597060 0.841106
H11_11 H 0.808789 0.617305 0.884596
C11_11 C 0.8650(3) 0.6694(2) 0.8897(2)
H12_11 H 0.841106 0.682154 0.902940
H13_11 H 0.884596 0.691211 0.882695
N2_11 N 0.89829(13) 0.60171(13) 0.89829(13)
C12_11 C 0.9194(2) 0.6150(3) 0.8603(2)
H14_11 H 0.932154 0.591106 0.847060
H15_11 H 0.941211 0.634596 0.867305
C13_11 C 0.8603(2) 0.5806(2) 0.8850(3)
H16_11 H 0.847060 0.567846 0.908894
H17_11 H 0.867305 0.558789 0.865404
C14_11 C 0.8850(3) 0.6397(2) 0.9194(2)
H18_11 H 0.908894 0.652940 0.932154
H19_11 H 0.865404 0.632695 0.941211
O9_11 O 0.83988(11) 0.78330(12) 0.78177(12)
C31_11 C 0.86786(19) 0.7621(2) 0.7982(2)
C32_11 C 0.9114(2) 0.7795(3) 0.7966(3)
C33_11 C 0.9447(3) 0.7566(4) 0.8086(4)
H34_11 H 0.940731 0.729722 0.818447
C34_11 C 0.9160(3) 0.8192(4) 0.7813(4)
H35_11 H 0.893016 0.834694 0.772935
C35_11 C 0.9851(3) 0.7729(5) 0.8066(5)
C36_11 C 0.9561(5) 0.8355(6) 0.7786(6)
H36_11 H 0.960729 0.860872 0.765599
C38_11 C 0.9879(7) 0.8142(7) 0.7950(6)
C39_11 C 0.7379(2) 0.7018(2) 0.86786(19)
C40_11 C 0.7205(3) 0.7034(3) 0.9114(2)
C41_11 C 0.7434(4) 0.6914(4) 0.9447(3)
H41_11 H 0.770278 0.681553 0.940731
C42_11 C 0.6808(4) 0.7187(4) 0.9160(3)
H42_11 H 0.665306 0.727065 0.893016
C43_11 C 0.7271(5) 0.6934(5) 0.9851(3)
C44_11 C 0.6645(6) 0.7214(6) 0.9561(5)
H43_11 H 0.639128 0.734401 0.960729
C46_11 C 0.6858(7) 0.7050(6) 0.9879(7)
Co4_11 Co 0.93730(2) 0.56270(2) 0.93730(2)
C2_12 C 0.6103(2) 0.1350(3) 0.1694(2)
H1_12 H 0.597060 0.158894 0.182154
H2_12 H 0.617305 0.115404 0.191211
C10_12 C 0.6694(2) 0.1103(2) 0.1350(3)
H10_12 H 0.682154 0.097060 0.158894
H11_12 H 0.691211 0.117305 0.115404
C11_12 C 0.6350(3) 0.1694(2) 0.1103(2)
H12_12 H 0.658894 0.182154 0.097060
H13_12 H 0.615404 0.191211 0.117305
N2_12 N 0.60171(13) 0.10171(13) 0.10171(13)
C12_12 C 0.5806(2) 0.1150(3) 0.1397(2)
H14_12 H 0.567846 0.091106 0.152940
H15_12 H 0.558789 0.134596 0.132695
C13_12 C 0.6397(2) 0.0806(2) 0.1150(3)
H16_12 H 0.652940 0.067846 0.091106
H17_12 H 0.632695 0.058789 0.134596
C14_12 C 0.6150(3) 0.1397(2) 0.0806(2)
H18_12 H 0.591106 0.152940 0.067846
H19_12 H 0.634596 0.132695 0.058789
O9_12 O 0.66012(11) 0.28330(12) 0.21823(12)
C31_12 C 0.63214(19) 0.2621(2) 0.2018(2)
C32_12 C 0.5886(2) 0.2795(3) 0.2034(3)
C33_12 C 0.5553(3) 0.2566(4) 0.1914(4)
H34_12 H 0.559269 0.229722 0.181553
C34_12 C 0.5840(3) 0.3192(4) 0.2187(4)
H35_12 H 0.606984 0.334694 0.227065
C35_12 C 0.5149(3) 0.2729(5) 0.1934(5)
C36_12 C 0.5439(5) 0.3355(6) 0.2214(6)
H36_12 H 0.539271 0.360872 0.234401
C37_6 C 0.4765(10) 0.2367(10) 0.1943(9)
H37_6 H 0.472770 0.226303 0.166614
H38_6 H 0.451080 0.249303 0.203724
H39_6 H 0.483800 0.214253 0.212554
C38_12 C 0.5121(7) 0.3142(7) 0.2050(6)
H40_6 H 0.486917 0.327840 0.201169
C39_12 C 0.7621(2) 0.2018(2) 0.13214(19)
C40_12 C 0.7795(3) 0.2034(3) 0.0886(2)
C41_12 C 0.7566(4) 0.1914(4) 0.0553(3)
H41_12 H 0.729722 0.181553 0.059269
C42_12 C 0.8192(4) 0.2187(4) 0.0840(3)
H42_12 H 0.834694 0.227065 0.106984
C43_12 C 0.7729(5) 0.1934(5) 0.0149(3)
C44_12 C 0.8355(6) 0.2214(6) 0.0439(5)
H43_12 H 0.860872 0.234401 0.039271
C46_12 C 0.8142(7) 0.2050(6) 0.0121(7)
Co4_12 Co 0.56270(2) 0.06270(2) 0.06270(2)
Al2_5 Al 0.03123(4) 0.03123(4) 0.46877(4)
O4_5 O 0.02752(9) 0.02752(9) 0.52752(9)
O5_9 O 0.03330(12) 0.08988(11) 0.46823(12)
C15_9 C 0.0121(2) 0.11786(19) 0.4518(2)
C16_9 C 0.0295(3) 0.1614(2) 0.4534(3)
C17_9 C 0.0066(4) 0.1947(3) 0.4414(4)
C18_9 C 0.0692(4) 0.1660(3) 0.4687(4)
H21_9 H 0.084694 0.143016 0.477065
C19_9 C 0.0229(5) 0.2351(3) 0.4434(5)
C20_9 C 0.0855(6) 0.2061(5) 0.4714(6)
H22_9 H 0.110872 0.210729 0.484401
C22_9 C 0.0642(7) 0.2379(7) 0.4550(6)
H26_6 H 0.077840 0.263083 0.451169
O13_9 O 0.03177(12) 0.03330(12) 0.41012(11)
C47_9 C 0.0482(2) 0.0121(2) 0.38214(19)
C48_9 C 0.0466(3) 0.0295(3) 0.3386(2)
C49_9 C 0.0586(4) 0.0066(4) 0.3053(3)
C50_9 C 0.0313(4) 0.0692(4) 0.3340(3)
H49_9 H 0.022935 0.084694 0.356984
C51_9 C 0.0566(5) 0.0229(5) 0.2649(3)
C52_9 C 0.0286(6) 0.0855(6) 0.2939(5)
H50_9 H 0.015599 0.110872 0.289271
C54_9 C 0.0450(6) 0.0642(7) 0.2621(7)
H54_6 H 0.048831 0.077840 0.236917
O17_9 O 0.08988(11) 0.03177(12) 0.46670(12)
O18_9 O 0.06596(16) 0.02314(15) 0.61291(13)
O19_5 O 0.02314(15) 0.11291(13) 0.56596(16)
O20_9 O 0.11291(13) 0.06596(16) 0.52314(15)
O1_5 O 0.02752(9) 0.97248(9) 0.47248(9)
O9_13 O 0.08988(11) 0.96823(12) 0.53330(12)
O10_5 O 0.11291(13) 0.93404(16) 0.47686(15)
C31_13 C 0.11786(19) 0.9518(2) 0.5121(2)
C32_13 C 0.1614(2) 0.9534(3) 0.5295(3)
C33_13 C 0.1947(3) 0.9414(4) 0.5066(4)
H34_13 H 0.190731 0.931553 0.479722
C34_13 C 0.1660(3) 0.9687(4) 0.5692(4)
H35_13 H 0.143016 0.977065 0.584694
C35_13 C 0.2351(3) 0.9434(5) 0.5229(5)
C36_13 C 0.2061(5) 0.9714(6) 0.5855(6)
H36_13 H 0.210729 0.984401 0.610872
C37_7 C 0.2735(10) 0.9443(9) 0.4867(10)
H37_7 H 0.277230 0.916614 0.476303
H38_7 H 0.298920 0.953724 0.499303
H39_7 H 0.266200 0.962554 0.464253
C38_13 C 0.2379(7) 0.9550(6) 0.5642(7)
H40_7 H 0.263083 0.951169 0.577840
O12_5 O 0.02314(15) 0.88709(13) 0.43404(16)
H41_13 H 0.020278 0.809269 0.431553
C45_7 C 0.0133(10) 0.7265(10) 0.4443(9)
H44_7 H 0.023697 0.722770 0.416614
H45_7 H 0.000697 0.701080 0.453724
H46_7 H 0.035747 0.733800 0.462554
O14_5 O 0.06596(16) 0.97686(15) 0.38709(13)
H48_9 H 0.068447 0.979722 0.309269
C53_6 C 0.0557(9) 0.9867(10) 0.2265(10)
H51_6 H 0.083386 0.976303 0.222770
H52_6 H 0.046276 0.999303 0.201080
H53_6 H 0.037446 0.964253 0.233800
Al4_5 Al 0.03123(4) 0.96877(4) 0.53123(4)
O3_5 O 0.93404(16) 0.02314(15) 0.38709(13)
H3_5 H 0.931553 0.020278 0.309269
C8_3 C 0.9443(9) 0.0133(10) 0.2265(10)
H6_3 H 0.916614 0.023697 0.222770
H7_3 H 0.953724 0.000697 0.201080
H8_3 H 0.962554 0.035747 0.233800
O6_9 O 0.97686(15) 0.11291(13) 0.43404(16)
H20_9 H 0.979722 0.190731 0.431553
C21_6 C 0.9867(10) 0.2735(10) 0.4443(9)
H23_6 H 0.976303 0.277230 0.416614
H24_6 H 0.999303 0.298920 0.453724
H25_6 H 0.964253 0.266200 0.462554
Co5_5 Co 0.93730(2) 0.06270(2) 0.43730(2)
Al3_5 Al 0.96877(4) 0.03123(4) 0.53123(4)
O16_5 O 0.97248(9) 0.02752(9) 0.47248(9)
Al1_5 Al 0.96877(4) 0.96877(4) 0.46877(4)
O2_5 O 0.96823(12) 0.96670(12) 0.41012(11)
C1_5 C 0.9518(2) 0.9879(2) 0.38214(19)
C3_5 C 0.9534(3) 0.9705(3) 0.3386(2)
C4_5 C 0.9414(4) 0.9934(4) 0.3053(3)
C5_5 C 0.9687(4) 0.9308(4) 0.3340(3)
H4_5 H 0.977065 0.915306 0.356984
C6_5 C 0.9434(5) 0.9771(5) 0.2649(3)
C7_5 C 0.9714(6) 0.9145(6) 0.2939(5)
H5_5 H 0.984401 0.889128 0.289271
C9_5 C 0.9550(6) 0.9358(7) 0.2621(7)
H9_3 H 0.951169 0.922160 0.236917
O7_5 O 0.91012(11) 0.96823(12) 0.46670(12)
O8_5 O 0.88709(13) 0.93404(16) 0.52314(15)
C23_5 C 0.88214(19) 0.9518(2) 0.4879(2)
C24_5 C 0.8386(2) 0.9534(3) 0.4705(3)
C25_5 C 0.8053(3) 0.9414(4) 0.4934(4)
H27_5 H 0.809269 0.931553 0.520278
C26_5 C 0.8340(3) 0.9687(4) 0.4308(4)
H28_5 H 0.856984 0.977065 0.415306
C27_5 C 0.7649(3) 0.9434(5) 0.4771(5)
C28_5 C 0.7939(5) 0.9714(6) 0.4145(6)
H29_5 H 0.789271 0.984401 0.389128
C29_3 C 0.7265(10) 0.9443(9) 0.5133(10)
H30_3 H 0.722770 0.916614 0.523697
H31_3 H 0.701080 0.953724 0.500697
H32_3 H 0.733800 0.962554 0.535747
C30_5 C 0.7621(7) 0.9550(6) 0.4358(7)
H33_3 H 0.736917 0.951169 0.422160
O11_5 O 0.96670(12) 0.91012(11) 0.46823(12)
C39_13 C 0.9879(2) 0.88214(19) 0.4518(2)
C40_13 C 0.9705(3) 0.8386(2) 0.4534(3)
C41_13 C 0.9934(4) 0.8053(3) 0.4414(4)
C42_13 C 0.9308(4) 0.8340(3) 0.4687(4)
H42_13 H 0.915306 0.856984 0.477065
C43_13 C 0.9771(5) 0.7649(3) 0.4434(5)
C44_13 C 0.9145(6) 0.7939(5) 0.4714(6)
H43_13 H 0.889128 0.789271 0.484401
C46_13 C 0.9358(7) 0.7621(7) 0.4550(6)
H47_7 H 0.922160 0.736917 0.451169
O15_5 O 0.97248(9) 0.97248(9) 0.52752(9)
O8_6 O 0.11291(13) 0.56596(16) 0.02314(15)
H27_6 H 0.190731 0.568447 0.020278
C29_4 C 0.2735(10) 0.5557(9) 0.0133(10)
H30_4 H 0.277230 0.583386 0.023697
H31_4 H 0.298920 0.546276 0.000697
H32_4 H 0.266200 0.537446 0.035747
Al3_6 Al 0.03123(4) 0.46877(4) 0.03123(4)
O15_6 O 0.02752(9) 0.52752(9) 0.02752(9)
Al1_6 Al 0.03123(4) 0.53123(4) 0.96877(4)
O2_6 O 0.03177(12) 0.53330(12) 0.91012(11)
O3_6 O 0.06596(16) 0.47686(15) 0.88709(13)
C1_6 C 0.0482(2) 0.5121(2) 0.88214(19)
C3_6 C 0.0466(3) 0.5295(3) 0.8386(2)
C4_6 C 0.0586(4) 0.5066(4) 0.8053(3)
H3_6 H 0.068447 0.479722 0.809269
C5_6 C 0.0313(4) 0.5692(4) 0.8340(3)
H4_6 H 0.022935 0.584694 0.856984
C6_6 C 0.0566(5) 0.5229(5) 0.7649(3)
C7_6 C 0.0286(6) 0.5855(6) 0.7939(5)
H5_6 H 0.015599 0.610872 0.789271
C8_4 C 0.0557(9) 0.4867(10) 0.7265(10)
H6_4 H 0.083386 0.476303 0.722770
H7_4 H 0.046276 0.499303 0.701080
H8_4 H 0.037446 0.464253 0.733800
C9_6 C 0.0450(6) 0.5642(7) 0.7621(7)
H9_4 H 0.048831 0.577840 0.736917
O6_10 O 0.02314(15) 0.38709(13) 0.93404(16)
H20_10 H 0.020278 0.309269 0.931553
C21_7 C 0.0133(10) 0.2265(10) 0.9443(9)
H23_7 H 0.023697 0.222770 0.916614
H24_7 H 0.000697 0.201080 0.953724
H25_7 H 0.035747 0.233800 0.962554
O7_6 O 0.08988(11) 0.53177(12) 0.96670(12)
C23_6 C 0.11786(19) 0.5482(2) 0.9879(2)
C24_6 C 0.1614(2) 0.5466(3) 0.9705(3)
C25_6 C 0.1947(3) 0.5586(4) 0.9934(4)
C26_6 C 0.1660(3) 0.5313(4) 0.9308(4)
H28_6 H 0.143016 0.522935 0.915306
C27_6 C 0.2351(3) 0.5566(5) 0.9771(5)
C28_6 C 0.2061(5) 0.5286(6) 0.9145(6)
H29_6 H 0.210729 0.515599 0.889128
C30_6 C 0.2379(7) 0.5450(6) 0.9358(7)
H33_4 H 0.263083 0.548831 0.922160
O11_6 O 0.03330(12) 0.58988(11) 0.96823(12)
C39_14 C 0.0121(2) 0.61786(19) 0.9518(2)
C40_14 C 0.0295(3) 0.6614(2) 0.9534(3)
C41_14 C 0.0066(4) 0.6947(3) 0.9414(4)
C42_14 C 0.0692(4) 0.6660(3) 0.9687(4)
H42_14 H 0.084694 0.643016 0.977065
C43_14 C 0.0229(5) 0.7351(3) 0.9434(5)
C44_14 C 0.0855(6) 0.7061(5) 0.9714(6)
H43_14 H 0.110872 0.710729 0.984401
C46_14 C 0.0642(7) 0.7379(7) 0.9550(6)
H47_8 H 0.077840 0.763083 0.951169
Co5_6 Co 0.06270(2) 0.43730(2) 0.93730(2)
O16_6 O 0.02752(9) 0.47248(9) 0.97248(9)
O4_6 O 0.97248(9) 0.47248(9) 0.02752(9)
O9_14 O 0.91012(11) 0.53177(12) 0.03330(12)
C31_14 C 0.88214(19) 0.5482(2) 0.0121(2)
C32_14 C 0.8386(2) 0.5466(3) 0.0295(3)
C33_14 C 0.8053(3) 0.5586(4) 0.0066(4)
C34_14 C 0.8340(3) 0.5313(4) 0.0692(4)
H35_14 H 0.856984 0.522935 0.084694
C35_14 C 0.7649(3) 0.5566(5) 0.0229(5)
C36_14 C 0.7939(5) 0.5286(6) 0.0855(6)
H36_14 H 0.789271 0.515599 0.110872
C38_14 C 0.7621(7) 0.5450(6) 0.0642(7)
H40_8 H 0.736917 0.548831 0.077840
Al4_6 Al 0.96877(4) 0.53123(4) 0.03123(4)
O18_10 O 0.93404(16) 0.47686(15) 0.11291(13)
O19_6 O 0.97686(15) 0.38709(13) 0.06596(16)
O20_10 O 0.88709(13) 0.43404(16) 0.02314(15)
O1_6 O 0.97248(9) 0.52752(9) 0.97248(9)
Al2_6 Al 0.96877(4) 0.46877(4) 0.96877(4)
O5_10 O 0.96670(12) 0.41012(11) 0.96823(12)
C15_10 C 0.9879(2) 0.38214(19) 0.9518(2)
C16_10 C 0.9705(3) 0.3386(2) 0.9534(3)
C17_10 C 0.9934(4) 0.3053(3) 0.9414(4)
C18_10 C 0.9308(4) 0.3340(3) 0.9687(4)
H21_10 H 0.915306 0.356984 0.977065
C19_10 C 0.9771(5) 0.2649(3) 0.9434(5)
C20_10 C 0.9145(6) 0.2939(5) 0.9714(6)
H22_10 H 0.889128 0.289271 0.984401
C22_10 C 0.9358(7) 0.2621(7) 0.9550(6)
H26_7 H 0.922160 0.236917 0.951169
O10_6 O 0.88709(13) 0.56596(16) 0.97686(15)
H34_14 H 0.809269 0.568447 0.979722
C37_8 C 0.7265(10) 0.5557(9) 0.9867(10)
H37_8 H 0.722770 0.583386 0.976303
H38_8 H 0.701080 0.546276 0.999303
H39_8 H 0.733800 0.537446 0.964253
O12_6 O 0.97686(15) 0.61291(13) 0.93404(16)
H41_14 H 0.979722 0.690731 0.931553
C45_8 C 0.9867(10) 0.7735(10) 0.9443(9)
H44_8 H 0.976303 0.777230 0.916614
H45_8 H 0.999303 0.798920 0.953724
H46_8 H 0.964253 0.766200 0.962554
O13_10 O 0.96823(12) 0.46670(12) 0.91012(11)
O14_6 O 0.93404(16) 0.52314(15) 0.88709(13)
C47_10 C 0.9518(2) 0.4879(2) 0.88214(19)
C48_10 C 0.9534(3) 0.4705(3) 0.8386(2)
C49_10 C 0.9414(4) 0.4934(4) 0.8053(3)
H48_10 H 0.931553 0.520278 0.809269
C50_10 C 0.9687(4) 0.4308(4) 0.8340(3)
H49_10 H 0.977065 0.415306 0.856984
C51_10 C 0.9434(5) 0.4771(5) 0.7649(3)
C52_10 C 0.9714(6) 0.4145(6) 0.7939(5)
H50_10 H 0.984401 0.389128 0.789271
C53_7 C 0.9443(9) 0.5133(10) 0.7265(10)
H51_7 H 0.916614 0.523697 0.722770
H52_7 H 0.953724 0.500697 0.701080
H53_7 H 0.962554 0.535747 0.733800
C54_10 C 0.9550(6) 0.4358(7) 0.7621(7)
H54_7 H 0.951169 0.422160 0.736917
O17_10 O 0.91012(11) 0.46823(12) 0.96670(12)
Al1_7 Al 0.46877(4) 0.03123(4) 0.03123(4)
O1_7 O 0.52752(9) 0.02752(9) 0.02752(9)
O2_7 O 0.46823(12) 0.03330(12) 0.08988(11)
C1_7 C 0.4518(2) 0.0121(2) 0.11786(19)
C3_7 C 0.4534(3) 0.0295(3) 0.1614(2)
C4_7 C 0.4414(4) 0.0066(4) 0.1947(3)
C5_7 C 0.4687(4) 0.0692(4) 0.1660(3)
H4_7 H 0.477065 0.084694 0.143016
C6_7 C 0.4434(5) 0.0229(5) 0.2351(3)
C7_7 C 0.4714(6) 0.0855(6) 0.2061(5)
H5_7 H 0.484401 0.110872 0.210729
C9_7 C 0.4550(6) 0.0642(7) 0.2379(7)
H9_5 H 0.451169 0.077840 0.263083
O7_7 O 0.41012(11) 0.03177(12) 0.03330(12)
C23_7 C 0.38214(19) 0.0482(2) 0.0121(2)
C24_7 C 0.3386(2) 0.0466(3) 0.0295(3)
C25_7 C 0.3053(3) 0.0586(4) 0.0066(4)
C26_7 C 0.3340(3) 0.0313(4) 0.0692(4)
H28_7 H 0.356984 0.022935 0.084694
C27_7 C 0.2649(3) 0.0566(5) 0.0229(5)
C28_7 C 0.2939(5) 0.0286(6) 0.0855(6)
H29_7 H 0.289271 0.015599 0.110872
C30_7 C 0.2621(7) 0.0450(6) 0.0642(7)
H33_5 H 0.236917 0.048831 0.077840
O10_7 O 0.61291(13) 0.06596(16) 0.02314(15)
H34_15 H 0.690731 0.068447 0.020278
C37_9 C 0.7735(10) 0.0557(9) 0.0133(10)
H37_9 H 0.777230 0.083386 0.023697
H38_9 H 0.798920 0.046276 0.000697
H39_9 H 0.766200 0.037446 0.035747
O11_7 O 0.46670(12) 0.08988(11) 0.03177(12)
O12_7 O 0.52314(15) 0.11291(13) 0.06596(16)
C39_15 C 0.4879(2) 0.11786(19) 0.0482(2)
C40_15 C 0.4705(3) 0.1614(2) 0.0466(3)
C41_15 C 0.4934(4) 0.1947(3) 0.0586(4)
H41_15 H 0.520278 0.190731 0.068447
C42_15 C 0.4308(4) 0.1660(3) 0.0313(4)
H42_15 H 0.415306 0.143016 0.022935
C43_15 C 0.4771(5) 0.2351(3) 0.0566(5)
C44_15 C 0.4145(6) 0.2061(5) 0.0286(6)
H43_15 H 0.389128 0.210729 0.015599
C45_9 C 0.5133(10) 0.2735(10) 0.0557(9)
H44_9 H 0.523697 0.277230 0.083386
H45_9 H 0.500697 0.298920 0.046276
H46_9 H 0.535747 0.266200 0.037446
C46_15 C 0.4358(7) 0.2379(7) 0.0450(6)
H47_9 H 0.422160 0.263083 0.048831
O14_7 O 0.56596(16) 0.02314(15) 0.11291(13)
H48_11 H 0.568447 0.020278 0.190731
C53_8 C 0.5557(9) 0.0133(10) 0.2735(10)
H51_8 H 0.583386 0.023697 0.277230
H52_8 H 0.546276 0.000697 0.298920
H53_8 H 0.537446 0.035747 0.266200
O8_7 O 0.38709(13) 0.06596(16) 0.97686(15)
H27_7 H 0.309269 0.068447 0.979722
C29_5 C 0.2265(10) 0.0557(9) 0.9867(10)
H30_5 H 0.222770 0.083386 0.976303
H31_5 H 0.201080 0.046276 0.999303
H32_5 H 0.233800 0.037446 0.964253
O9_15 O 0.58988(11) 0.03177(12) 0.96670(12)
C31_15 C 0.61786(19) 0.0482(2) 0.9879(2)
C32_15 C 0.6614(2) 0.0466(3) 0.9705(3)
C33_15 C 0.6947(3) 0.0586(4) 0.9934(4)
C34_15 C 0.6660(3) 0.0313(4) 0.9308(4)
H35_15 H 0.643016 0.022935 0.915306
C35_15 C 0.7351(3) 0.0566(5) 0.9771(5)
C36_15 C 0.7061(5) 0.0286(6) 0.9145(6)
H36_15 H 0.710729 0.015599 0.889128
C38_15 C 0.7379(7) 0.0450(6) 0.9358(7)
H40_9 H 0.763083 0.048831 0.922160
Al4_7 Al 0.53123(4) 0.03123(4) 0.96877(4)
O15_7 O 0.47248(9) 0.02752(9) 0.97248(9)
O3_7 O 0.43404(16) 0.97686(15) 0.11291(13)
H3_7 H 0.431553 0.979722 0.190731
C8_5 C 0.4443(9) 0.9867(10) 0.2735(10)
H6_5 H 0.416614 0.976303 0.277230
H7_5 H 0.453724 0.999303 0.298920
H8_5 H 0.462554 0.964253 0.266200
Al2_7 Al 0.53123(4) 0.96877(4) 0.03123(4)
O5_11 O 0.53330(12) 0.91012(11) 0.03177(12)
O6_11 O 0.47686(15) 0.88709(13) 0.06596(16)
C15_11 C 0.5121(2) 0.88214(19) 0.0482(2)
C16_11 C 0.5295(3) 0.8386(2) 0.0466(3)
C17_11 C 0.5066(4) 0.8053(3) 0.0586(4)
H20_11 H 0.479722 0.809269 0.068447
C18_11 C 0.5692(4) 0.8340(3) 0.0313(4)
H21_11 H 0.584694 0.856984 0.022935
C19_11 C 0.5229(5) 0.7649(3) 0.0566(5)
C20_11 C 0.5855(6) 0.7939(5) 0.0286(6)
H22_11 H 0.610872 0.789271 0.015599
C21_8 C 0.4867(10) 0.7265(10) 0.0557(9)
H23_8 H 0.476303 0.722770 0.083386
H24_8 H 0.499303 0.701080 0.046276
H25_8 H 0.464253 0.733800 0.037446
C22_11 C 0.5642(7) 0.7621(7) 0.0450(6)
H26_8 H 0.577840 0.736917 0.048831
O13_11 O 0.53177(12) 0.96670(12) 0.08988(11)
C47_11 C 0.5482(2) 0.9879(2) 0.11786(19)
C48_11 C 0.5466(3) 0.9705(3) 0.1614(2)
C49_11 C 0.5586(4) 0.9934(4) 0.1947(3)
C50_11 C 0.5313(4) 0.9308(4) 0.1660(3)
H49_11 H 0.522935 0.915306 0.143016
C51_11 C 0.5566(5) 0.9771(5) 0.2351(3)
C52_11 C 0.5286(6) 0.9145(6) 0.2061(5)
H50_11 H 0.515599 0.889128 0.210729
C54_11 C 0.5450(6) 0.9358(7) 0.2379(7)
H54_8 H 0.548831 0.922160 0.263083
Co5_7 Co 0.43730(2) 0.93730(2) 0.06270(2)
O16_7 O 0.47248(9) 0.97248(9) 0.02752(9)
O17_11 O 0.58988(11) 0.96823(12) 0.03330(12)
O4_7 O 0.52752(9) 0.97248(9) 0.97248(9)
Al3_7 Al 0.46877(4) 0.96877(4) 0.96877(4)
O18_11 O 0.56596(16) 0.97686(15) 0.88709(13)
O19_7 O 0.52314(15) 0.88709(13) 0.93404(16)
O20_11 O 0.61291(13) 0.93404(16) 0.97686(15)
Al1_8 Al 0.53123(4) 0.46877(4) 0.53123(4)
O1_8 O 0.47248(9) 0.47248(9) 0.52752(9)
O2_8 O 0.53177(12) 0.46670(12) 0.58988(11)
O3_8 O 0.56596(16) 0.52314(15) 0.61291(13)
C1_8 C 0.5482(2) 0.4879(2) 0.61786(19)
C3_8 C 0.5466(3) 0.4705(3) 0.6614(2)
C4_8 C 0.5586(4) 0.4934(4) 0.6947(3)
H3_8 H 0.568447 0.520278 0.690731
C5_8 C 0.5313(4) 0.4308(4) 0.6660(3)
H4_8 H 0.522935 0.415306 0.643016
C6_8 C 0.5566(5) 0.4771(5) 0.7351(3)
C7_8 C 0.5286(6) 0.4145(6) 0.7061(5)
H5_8 H 0.515599 0.389128 0.710729
C8_6 C 0.5557(9) 0.5133(10) 0.7735(10)
H6_6 H 0.583386 0.523697 0.777230
H7_6 H 0.546276 0.500697 0.798920
H8_6 H 0.537446 0.535747 0.766200
C9_8 C 0.5450(6) 0.4358(7) 0.7379(7)
H9_6 H 0.548831 0.422160 0.763083
Al2_8 Al 0.46877(4) 0.53123(4) 0.53123(4)
O4_8 O 0.47248(9) 0.52752(9) 0.47248(9)
O5_12 O 0.46670(12) 0.58988(11) 0.53177(12)
O6_12 O 0.52314(15) 0.61291(13) 0.56596(16)
C15_12 C 0.4879(2) 0.61786(19) 0.5482(2)
C16_12 C 0.4705(3) 0.6614(2) 0.5466(3)
C17_12 C 0.4934(4) 0.6947(3) 0.5586(4)
H20_12 H 0.520278 0.690731 0.568447
C18_12 C 0.4308(4) 0.6660(3) 0.5313(4)
H21_12 H 0.415306 0.643016 0.522935
C19_12 C 0.4771(5) 0.7351(3) 0.5566(5)
C20_12 C 0.4145(6) 0.7061(5) 0.5286(6)
H22_12 H 0.389128 0.710729 0.515599
C21_9 C 0.5133(10) 0.7735(10) 0.5557(9)
H23_9 H 0.523697 0.777230 0.583386
H24_9 H 0.500697 0.798920 0.546276
H25_9 H 0.535747 0.766200 0.537446
C22_12 C 0.4358(7) 0.7379(7) 0.5450(6)
H26_9 H 0.422160 0.763083 0.548831
O7_8 O 0.58988(11) 0.46823(12) 0.53330(12)
O8_8 O 0.61291(13) 0.43404(16) 0.47686(15)
C23_8 C 0.61786(19) 0.4518(2) 0.5121(2)
C24_8 C 0.6614(2) 0.4534(3) 0.5295(3)
C25_8 C 0.6947(3) 0.4414(4) 0.5066(4)
H27_8 H 0.690731 0.431553 0.479722
C26_8 C 0.6660(3) 0.4687(4) 0.5692(4)
H28_8 H 0.643016 0.477065 0.584694
C27_8 C 0.7351(3) 0.4434(5) 0.5229(5)
C28_8 C 0.7061(5) 0.4714(6) 0.5855(6)
H29_8 H 0.710729 0.484401 0.610872
C29_6 C 0.7735(10) 0.4443(9) 0.4867(10)
H30_6 H 0.777230 0.416614 0.476303
H31_6 H 0.798920 0.453724 0.499303
H32_6 H 0.766200 0.462554 0.464253
C30_8 C 0.7379(7) 0.4550(6) 0.5642(7)
H33_6 H 0.763083 0.451169 0.577840
O9_16 O 0.41012(11) 0.46823(12) 0.46670(12)
O10_8 O 0.38709(13) 0.43404(16) 0.52314(15)
C31_16 C 0.38214(19) 0.4518(2) 0.4879(2)
C32_16 C 0.3386(2) 0.4534(3) 0.4705(3)
C33_16 C 0.3053(3) 0.4414(4) 0.4934(4)
H34_16 H 0.309269 0.431553 0.520278
C34_16 C 0.3340(3) 0.4687(4) 0.4308(4)
H35_16 H 0.356984 0.477065 0.415306
C35_16 C 0.2649(3) 0.4434(5) 0.4771(5)
C36_16 C 0.2939(5) 0.4714(6) 0.4145(6)
H36_16 H 0.289271 0.484401 0.389128
C37_10 C 0.2265(10) 0.4443(9) 0.5133(10)
H37_10 H 0.222770 0.416614 0.523697
H38_10 H 0.201080 0.453724 0.500697
H39_10 H 0.233800 0.462554 0.535747
C38_16 C 0.2621(7) 0.4550(6) 0.4358(7)
H40_10 H 0.236917 0.451169 0.422160
O11_8 O 0.53330(12) 0.41012(11) 0.53177(12)
O12_8 O 0.47686(15) 0.38709(13) 0.56596(16)
C39_16 C 0.5121(2) 0.38214(19) 0.5482(2)
C40_16 C 0.5295(3) 0.3386(2) 0.5466(3)
C41_16 C 0.5066(4) 0.3053(3) 0.5586(4)
H41_16 H 0.479722 0.309269 0.568447
C42_16 C 0.5692(4) 0.3340(3) 0.5313(4)
H42_16 H 0.584694 0.356984 0.522935
C43_16 C 0.5229(5) 0.2649(3) 0.5566(5)
C44_16 C 0.5855(6) 0.2939(5) 0.5286(6)
H43_16 H 0.610872 0.289271 0.515599
C45_10 C 0.4867(10) 0.2265(10) 0.5557(9)
H44_10 H 0.476303 0.222770 0.583386
H45_10 H 0.499303 0.201080 0.546276
H46_10 H 0.464253 0.233800 0.537446
C46_16 C 0.5642(7) 0.2621(7) 0.5450(6)
H47_10 H 0.577840 0.236917 0.548831
O13_12 O 0.46823(12) 0.53330(12) 0.58988(11)
O14_8 O 0.43404(16) 0.47686(15) 0.61291(13)
C47_12 C 0.4518(2) 0.5121(2) 0.61786(19)
C48_12 C 0.4534(3) 0.5295(3) 0.6614(2)
C49_12 C 0.4414(4) 0.5066(4) 0.6947(3)
H48_12 H 0.431553 0.479722 0.690731
C50_12 C 0.4687(4) 0.5692(4) 0.6660(3)
H49_12 H 0.477065 0.584694 0.643016
C51_12 C 0.4434(5) 0.5229(5) 0.7351(3)
C52_12 C 0.4714(6) 0.5855(6) 0.7061(5)
H50_12 H 0.484401 0.610872 0.710729
C53_9 C 0.4443(9) 0.4867(10) 0.7735(10)
H51_9 H 0.416614 0.476303 0.777230
H52_9 H 0.453724 0.499303 0.798920
H53_9 H 0.462554 0.464253 0.766200
C54_12 C 0.4550(6) 0.5642(7) 0.7379(7)
H54_9 H 0.451169 0.577840 0.763083
Co5_8 Co 0.56270(2) 0.56270(2) 0.56270(2)
Al3_8 Al 0.53123(4) 0.53123(4) 0.46877(4)
Al4_8 Al 0.46877(4) 0.46877(4) 0.46877(4)
O15_8 O 0.52752(9) 0.47248(9) 0.47248(9)
O16_8 O 0.52752(9) 0.52752(9) 0.52752(9)
O17_12 O 0.41012(11) 0.53177(12) 0.53330(12)
O18_12 O 0.43404(16) 0.52314(15) 0.38709(13)
O19_8 O 0.47686(15) 0.61291(13) 0.43404(16)
O20_12 O 0.38709(13) 0.56596(16) 0.47686(15)
O5_13 O 0.58988(11) 0.53177(12) 0.46670(12)
O6_13 O 0.61291(13) 0.56596(16) 0.52314(15)
C15_13 C 0.61786(19) 0.5482(2) 0.4879(2)
C16_13 C 0.6614(2) 0.5466(3) 0.4705(3)
C17_13 C 0.6947(3) 0.5586(4) 0.4934(4)
H20_13 H 0.690731 0.568447 0.520278
C18_13 C 0.6660(3) 0.5313(4) 0.4308(4)
H21_13 H 0.643016 0.522935 0.415306
C19_13 C 0.7351(3) 0.5566(5) 0.4771(5)
C20_13 C 0.7061(5) 0.5286(6) 0.4145(6)
H22_13 H 0.710729 0.515599 0.389128
C21_10 C 0.7735(10) 0.5557(9) 0.5133(10)
H23_10 H 0.777230 0.583386 0.523697
H24_10 H 0.798920 0.546276 0.500697
H25_10 H 0.766200 0.537446 0.535747
C22_13 C 0.7379(7) 0.5450(6) 0.4358(7)
H26_10 H 0.763083 0.548831 0.422160
O9_17 O 0.46823(12) 0.46670(12) 0.41012(11)
C31_17 C 0.4518(2) 0.4879(2) 0.38214(19)
C32_17 C 0.4534(3) 0.4705(3) 0.3386(2)
C33_17 C 0.4414(4) 0.4934(4) 0.3053(3)
H34_17 H 0.431553 0.520278 0.309269
C34_17 C 0.4687(4) 0.4308(4) 0.3340(3)
H35_17 H 0.477065 0.415306 0.356984
C35_17 C 0.4434(5) 0.4771(5) 0.2649(3)
C36_17 C 0.4714(6) 0.4145(6) 0.2939(5)
H36_17 H 0.484401 0.389128 0.289271
C37_11 C 0.4443(9) 0.5133(10) 0.2265(10)
H37_11 H 0.416614 0.523697 0.222770
H38_11 H 0.453724 0.500697 0.201080
H39_11 H 0.462554 0.535747 0.233800
C38_17 C 0.4550(6) 0.4358(7) 0.2621(7)
H40_11 H 0.451169 0.422160 0.236917
C39_17 C 0.38214(19) 0.5482(2) 0.5121(2)
C40_17 C 0.3386(2) 0.5466(3) 0.5295(3)
C41_17 C 0.3053(3) 0.5586(4) 0.5066(4)
H41_17 H 0.309269 0.568447 0.479722
C42_17 C 0.3340(3) 0.5313(4) 0.5692(4)
H42_17 H 0.356984 0.522935 0.584694
C43_17 C 0.2649(3) 0.5566(5) 0.5229(5)
C44_17 C 0.2939(5) 0.5286(6) 0.5855(6)
H43_17 H 0.289271 0.515599 0.610872
C45_11 C 0.2265(10) 0.5557(9) 0.4867(10)
H44_11 H 0.222770 0.583386 0.476303
H45_11 H 0.201080 0.546276 0.499303
H46_11 H 0.233800 0.537446 0.464253
C46_17 C 0.2621(7) 0.5450(6) 0.5642(7)
H47_11 H 0.236917 0.548831 0.577840
O13_13 O 0.53330(12) 0.58988(11) 0.46823(12)
C47_13 C 0.5121(2) 0.61786(19) 0.4518(2)
C48_13 C 0.5295(3) 0.6614(2) 0.4534(3)
C49_13 C 0.5066(4) 0.6947(3) 0.4414(4)
H48_13 H 0.479722 0.690731 0.431553
C50_13 C 0.5692(4) 0.6660(3) 0.4687(4)
H49_13 H 0.584694 0.643016 0.477065
C51_13 C 0.5229(5) 0.7351(3) 0.4434(5)
C52_13 C 0.5855(6) 0.7061(5) 0.4714(6)
H50_13 H 0.610872 0.710729 0.484401
C53_10 C 0.4867(10) 0.7735(10) 0.4443(9)
H51_10 H 0.476303 0.777230 0.416614
H52_10 H 0.499303 0.798920 0.453724
H53_10 H 0.464253 0.766200 0.462554
C54_13 C 0.5642(7) 0.7379(7) 0.4550(6)
H54_10 H 0.577840 0.763083 0.451169
O17_13 O 0.53177(12) 0.53330(12) 0.41012(11)
O18_13 O 0.52314(15) 0.38709(13) 0.43404(16)
O20_13 O 0.56596(16) 0.47686(15) 0.38709(13)
H34_18 H 0.068447 0.020278 0.690731
C37_12 C 0.0557(9) 0.0133(10) 0.7735(10)
H37_12 H 0.083386 0.023697 0.777230
H38_12 H 0.046276 0.000697 0.798920
H39_12 H 0.037446 0.035747 0.766200
C39_18 C 0.11786(19) 0.0482(2) 0.4879(2)
C40_18 C 0.1614(2) 0.0466(3) 0.4705(3)
C41_18 C 0.1947(3) 0.0586(4) 0.4934(4)
H41_18 H 0.190731 0.068447 0.520278
C42_18 C 0.1660(3) 0.0313(4) 0.4308(4)
H42_18 H 0.143016 0.022935 0.415306
C43_18 C 0.2351(3) 0.0566(5) 0.4771(5)
C44_18 C 0.2061(5) 0.0286(6) 0.4145(6)
H43_18 H 0.210729 0.015599 0.389128
C45_12 C 0.2735(10) 0.0557(9) 0.5133(10)
H44_12 H 0.277230 0.083386 0.523697
H45_12 H 0.298920 0.046276 0.500697
H46_12 H 0.266200 0.037446 0.535747
C46_18 C 0.2379(7) 0.0450(6) 0.4358(7)
H47_12 H 0.263083 0.048831 0.422160
H48_14 H 0.020278 0.190731 0.568447
C53_11 C 0.0133(10) 0.2735(10) 0.5557(9)
H51_11 H 0.023697 0.277230 0.583386
H52_11 H 0.000697 0.298920 0.546276
H53_11 H 0.035747 0.266200 0.537446
O9_18 O 0.03177(12) 0.96670(12) 0.58988(11)
C31_18 C 0.0482(2) 0.9879(2) 0.61786(19)
C32_18 C 0.0466(3) 0.9705(3) 0.6614(2)
C33_18 C 0.0586(4) 0.9934(4) 0.6947(3)
C34_18 C 0.0313(4) 0.9308(4) 0.6660(3)
H35_18 H 0.022935 0.915306 0.643016
C35_18 C 0.0566(5) 0.9771(5) 0.7351(3)
C36_18 C 0.0286(6) 0.9145(6) 0.7061(5)
H36_18 H 0.015599 0.889128 0.710729
C38_18 C 0.0450(6) 0.9358(7) 0.7379(7)
H40_12 H 0.048831 0.922160 0.763083
O5_14 O 0.91012(11) 0.03177(12) 0.53330(12)
O6_14 O 0.88709(13) 0.06596(16) 0.47686(15)
C15_14 C 0.88214(19) 0.0482(2) 0.5121(2)
C16_14 C 0.8386(2) 0.0466(3) 0.5295(3)
C17_14 C 0.8053(3) 0.0586(4) 0.5066(4)
H20_14 H 0.809269 0.068447 0.479722
C18_14 C 0.8340(3) 0.0313(4) 0.5692(4)
H21_14 H 0.856984 0.022935 0.584694
C19_14 C 0.7649(3) 0.0566(5) 0.5229(5)
C20_14 C 0.7939(5) 0.0286(6) 0.5855(6)
H22_14 H 0.789271 0.015599 0.610872
C21_11 C 0.7265(10) 0.0557(9) 0.4867(10)
H23_11 H 0.722770 0.083386 0.476303
H24_11 H 0.701080 0.046276 0.499303
H25_11 H 0.733800 0.037446 0.464253
C22_14 C 0.7621(7) 0.0450(6) 0.5642(7)
H26_11 H 0.736917 0.048831 0.577840
O13_14 O 0.96670(12) 0.08988(11) 0.53177(12)
C47_14 C 0.9879(2) 0.11786(19) 0.5482(2)
C48_14 C 0.9705(3) 0.1614(2) 0.5466(3)
C49_14 C 0.9934(4) 0.1947(3) 0.5586(4)
C50_14 C 0.9308(4) 0.1660(3) 0.5313(4)
H49_14 H 0.915306 0.143016 0.522935
C51_14 C 0.9771(5) 0.2351(3) 0.5566(5)
C52_14 C 0.9145(6) 0.2061(5) 0.5286(6)
H50_14 H 0.889128 0.210729 0.515599
C54_14 C 0.9358(7) 0.2379(7) 0.5450(6)
H54_11 H 0.922160 0.263083 0.548831
O17_14 O 0.96823(12) 0.03330(12) 0.58988(11)
O18_14 O 0.97686(15) 0.88709(13) 0.56596(16)
O20_14 O 0.93404(16) 0.97686(15) 0.61291(13)
O9_19 O 0.53177(12) 0.03330(12) 0.91012(11)
C31_19 C 0.5482(2) 0.0121(2) 0.88214(19)
C32_19 C 0.5466(3) 0.0295(3) 0.8386(2)
C33_19 C 0.5586(4) 0.0066(4) 0.8053(3)
C34_19 C 0.5313(4) 0.0692(4) 0.8340(3)
H35_19 H 0.522935 0.084694 0.856984
C35_19 C 0.5566(5) 0.0229(5) 0.7649(3)
C36_19 C 0.5286(6) 0.0855(6) 0.7939(5)
H36_19 H 0.515599 0.110872 0.789271
C38_19 C 0.5450(6) 0.0642(7) 0.7621(7)
H40_13 H 0.548831 0.077840 0.736917
O18_15 O 0.47686(15) 0.11291(13) 0.93404(16)
O20_15 O 0.43404(16) 0.02314(15) 0.88709(13)
O6_15 O 0.38709(13) 0.93404(16) 0.02314(15)
H20_15 H 0.309269 0.931553 0.020278
C21_12 C 0.2265(10) 0.9443(9) 0.0133(10)
H23_12 H 0.222770 0.916614 0.023697
H24_12 H 0.201080 0.953724 0.000697
H25_12 H 0.233800 0.962554 0.035747
C39_19 C 0.61786(19) 0.9518(2) 0.0121(2)
C40_19 C 0.6614(2) 0.9534(3) 0.0295(3)
C41_19 C 0.6947(3) 0.9414(4) 0.0066(4)
C42_19 C 0.6660(3) 0.9687(4) 0.0692(4)
H42_19 H 0.643016 0.977065 0.084694
C43_19 C 0.7351(3) 0.9434(5) 0.0229(5)
C44_19 C 0.7061(5) 0.9714(6) 0.0855(6)
H43_19 H 0.710729 0.984401 0.110872
C46_19 C 0.7379(7) 0.9550(6) 0.0642(7)
H47_13 H 0.763083 0.951169 0.077840
O5_15 O 0.41012(11) 0.96823(12) 0.96670(12)
C15_15 C 0.38214(19) 0.9518(2) 0.9879(2)
C16_15 C 0.3386(2) 0.9534(3) 0.9705(3)
C17_15 C 0.3053(3) 0.9414(4) 0.9934(4)
C18_15 C 0.3340(3) 0.9687(4) 0.9308(4)
H21_15 H 0.356984 0.977065 0.915306
C19_15 C 0.2649(3) 0.9434(5) 0.9771(5)
C20_15 C 0.2939(5) 0.9714(6) 0.9145(6)
H22_15 H 0.289271 0.984401 0.889128
C22_15 C 0.2621(7) 0.9550(6) 0.9358(7)
H26_12 H 0.236917 0.951169 0.922160
H34_19 H 0.568447 0.979722 0.809269
C37_13 C 0.5557(9) 0.9867(10) 0.7265(10)
H37_13 H 0.583386 0.976303 0.722770
H38_13 H 0.546276 0.999303 0.701080
H39_13 H 0.537446 0.964253 0.733800
H41_19 H 0.690731 0.931553 0.979722
C45_13 C 0.7735(10) 0.9443(9) 0.9867(10)
H44_13 H 0.777230 0.916614 0.976303
H45_13 H 0.798920 0.953724 0.999303
H46_13 H 0.766200 0.962554 0.964253
O13_15 O 0.46670(12) 0.91012(11) 0.96823(12)
C47_15 C 0.4879(2) 0.88214(19) 0.9518(2)
C48_15 C 0.4705(3) 0.8386(2) 0.9534(3)
C49_15 C 0.4934(4) 0.8053(3) 0.9414(4)
H48_15 H 0.520278 0.809269 0.931553
C50_15 C 0.4308(4) 0.8340(3) 0.9687(4)
H49_15 H 0.415306 0.856984 0.977065
C51_15 C 0.4771(5) 0.7649(3) 0.9434(5)
C52_15 C 0.4145(6) 0.7939(5) 0.9714(6)
H50_15 H 0.389128 0.789271 0.984401
C53_12 C 0.5133(10) 0.7265(10) 0.9443(9)
H51_12 H 0.523697 0.722770 0.916614
H52_12 H 0.500697 0.701080 0.953724
H53_12 H 0.535747 0.733800 0.962554
C54_15 C 0.4358(7) 0.7621(7) 0.9550(6)
H54_12 H 0.422160 0.736917 0.951169
O17_15 O 0.46823(12) 0.96670(12) 0.91012(11)
O5_16 O 0.08988(11) 0.46823(12) 0.03330(12)
C15_16 C 0.11786(19) 0.4518(2) 0.0121(2)
C16_16 C 0.1614(2) 0.4534(3) 0.0295(3)
C17_16 C 0.1947(3) 0.4414(4) 0.0066(4)
C18_16 C 0.1660(3) 0.4687(4) 0.0692(4)
H21_16 H 0.143016 0.477065 0.084694
C19_16 C 0.2351(3) 0.4434(5) 0.0229(5)
C20_16 C 0.2061(5) 0.4714(6) 0.0855(6)
H22_16 H 0.210729 0.484401 0.110872
C22_16 C 0.2379(7) 0.4550(6) 0.0642(7)
H26_13 H 0.263083 0.451169 0.077840
O13_16 O 0.03330(12) 0.41012(11) 0.03177(12)
C47_16 C 0.0121(2) 0.38214(19) 0.0482(2)
C48_16 C 0.0295(3) 0.3386(2) 0.0466(3)
C49_16 C 0.0066(4) 0.3053(3) 0.0586(4)
C50_16 C 0.0692(4) 0.3340(3) 0.0313(4)
H49_16 H 0.084694 0.356984 0.022935
C51_16 C 0.0229(5) 0.2649(3) 0.0566(5)
C52_16 C 0.0855(6) 0.2939(5) 0.0286(6)
H50_16 H 0.110872 0.289271 0.015599
C54_16 C 0.0642(7) 0.2621(7) 0.0450(6)
H54_13 H 0.077840 0.236917 0.048831
O17_16 O 0.03177(12) 0.46670(12) 0.08988(11)
O18_16 O 0.02314(15) 0.61291(13) 0.06596(16)
O20_16 O 0.06596(16) 0.52314(15) 0.11291(13)
O6_16 O 0.11291(13) 0.43404(16) 0.97686(15)
H20_16 H 0.190731 0.431553 0.979722
C21_13 C 0.2735(10) 0.4443(9) 0.9867(10)
H23_13 H 0.277230 0.416614 0.976303
H24_13 H 0.298920 0.453724 0.999303
H25_13 H 0.266200 0.462554 0.964253
O9_20 O 0.96823(12) 0.53330(12) 0.08988(11)
C31_20 C 0.9518(2) 0.5121(2) 0.11786(19)
C32_20 C 0.9534(3) 0.5295(3) 0.1614(2)
C33_20 C 0.9414(4) 0.5066(4) 0.1947(3)
H34_20 H 0.931553 0.479722 0.190731
C34_20 C 0.9687(4) 0.5692(4) 0.1660(3)
H35_20 H 0.977065 0.584694 0.143016
C35_20 C 0.9434(5) 0.5229(5) 0.2351(3)
C36_20 C 0.9714(6) 0.5855(6) 0.2061(5)
H36_20 H 0.984401 0.610872 0.210729
C37_14 C 0.9443(9) 0.4867(10) 0.2735(10)
H37_14 H 0.916614 0.476303 0.277230
H38_14 H 0.953724 0.499303 0.298920
H39_14 H 0.962554 0.464253 0.266200
C38_20 C 0.9550(6) 0.5642(7) 0.2379(7)
H40_14 H 0.951169 0.577840 0.263083
H41_20 H 0.809269 0.431553 0.020278
C45_14 C 0.7265(10) 0.4443(9) 0.0133(10)
H44_14 H 0.722770 0.416614 0.023697
H45_14 H 0.701080 0.453724 0.000697
H46_14 H 0.733800 0.462554 0.035747
H48_16 H 0.979722 0.309269 0.068447
C53_13 C 0.9867(10) 0.2265(10) 0.0557(9)
H51_13 H 0.976303 0.222770 0.083386
H52_13 H 0.999303 0.201080 0.046276
H53_13 H 0.964253 0.233800 0.037446
C39_20 C 0.88214(19) 0.4518(2) 0.9879(2)
C40_20 C 0.8386(2) 0.4534(3) 0.9705(3)
C41_20 C 0.8053(3) 0.4414(4) 0.9934(4)
C42_20 C 0.8340(3) 0.4687(4) 0.9308(4)
H42_20 H 0.856984 0.477065 0.915306
C43_20 C 0.7649(3) 0.4434(5) 0.9771(5)
C44_20 C 0.7939(5) 0.4714(6) 0.9145(6)
H43_20 H 0.789271 0.484401 0.889128
C46_20 C 0.7621(7) 0.4550(6) 0.9358(7)
H47_14 H 0.736917 0.451169 0.922160
H34_21 H 0.020278 0.690731 0.068447
C37_15 C 0.0133(10) 0.7735(10) 0.0557(9)
H37_15 H 0.023697 0.777230 0.083386
H38_15 H 0.000697 0.798920 0.046276
H39_15 H 0.035747 0.766200 0.037446
C39_21 C 0.0482(2) 0.4879(2) 0.11786(19)
C40_21 C 0.0466(3) 0.4705(3) 0.1614(2)
C41_21 C 0.0586(4) 0.4934(4) 0.1947(3)
H41_21 H 0.068447 0.520278 0.190731
C42_21 C 0.0313(4) 0.4308(4) 0.1660(3)
H42_21 H 0.022935 0.415306 0.143016
C43_21 C 0.0566(5) 0.4771(5) 0.2351(3)
C44_21 C 0.0286(6) 0.4145(6) 0.2061(5)
H43_21 H 0.015599 0.389128 0.210729
C45_15 C 0.0557(9) 0.5133(10) 0.2735(10)
H44_15 H 0.083386 0.523697 0.277230
H45_15 H 0.046276 0.500697 0.298920
H46_15 H 0.037446 0.535747 0.266200
C46_21 C 0.0450(6) 0.4358(7) 0.2379(7)
H47_15 H 0.048831 0.422160 0.263083
O9_21 O 0.96670(12) 0.58988(11) 0.03177(12)
C31_21 C 0.9879(2) 0.61786(19) 0.0482(2)
C32_21 C 0.9705(3) 0.6614(2) 0.0466(3)
C33_21 C 0.9934(4) 0.6947(3) 0.0586(4)
C34_21 C 0.9308(4) 0.6660(3) 0.0313(4)
H35_21 H 0.915306 0.643016 0.022935
C35_21 C 0.9771(5) 0.7351(3) 0.0566(5)
C36_21 C 0.9145(6) 0.7061(5) 0.0286(6)
H36_21 H 0.889128 0.710729 0.015599
C38_21 C 0.9358(7) 0.7379(7) 0.0450(6)
H40_15 H 0.922160 0.763083 0.048831
O9_22 O 0.46670(12) 0.41012(11) 0.46823(12)
C31_22 C 0.4879(2) 0.38214(19) 0.4518(2)
C32_22 C 0.4705(3) 0.3386(2) 0.4534(3)
C33_22 C 0.4934(4) 0.3053(3) 0.4414(4)
H34_22 H 0.520278 0.309269 0.431553
C34_22 C 0.4308(4) 0.3340(3) 0.4687(4)
H35_22 H 0.415306 0.356984 0.477065
C35_22 C 0.4771(5) 0.2649(3) 0.4434(5)
C36_22 C 0.4145(6) 0.2939(5) 0.4714(6)
H36_22 H 0.389128 0.289271 0.484401
C37_16 C 0.5133(10) 0.2265(10) 0.4443(9)
H37_16 H 0.523697 0.222770 0.416614
H38_16 H 0.500697 0.201080 0.453724
H39_16 H 0.535747 0.233800 0.462554
C38_22 C 0.4358(7) 0.2621(7) 0.4550(6)
H40_16 H 0.422160 0.236917 0.451169
C39_22 C 0.5482(2) 0.5121(2) 0.38214(19)
C40_22 C 0.5466(3) 0.5295(3) 0.3386(2)
C41_22 C 0.5586(4) 0.5066(4) 0.3053(3)
H41_22 H 0.568447 0.479722 0.309269
C42_22 C 0.5313(4) 0.5692(4) 0.3340(3)
H42_22 H 0.522935 0.584694 0.356984
C43_22 C 0.5566(5) 0.5229(5) 0.2649(3)
C44_22 C 0.5286(6) 0.5855(6) 0.2939(5)
H43_22 H 0.515599 0.610872 0.289271
C45_16 C 0.5557(9) 0.4867(10) 0.2265(10)
H44_16 H 0.583386 0.476303 0.222770
H45_16 H 0.546276 0.499303 0.201080
H46_16 H 0.537446 0.464253 0.233800
C46_22 C 0.5450(6) 0.5642(7) 0.2621(7)
H47_16 H 0.548831 0.577840 0.236917
O9_23 O 0.53330(12) 0.08988(11) 0.96823(12)
C31_23 C 0.5121(2) 0.11786(19) 0.9518(2)
C32_23 C 0.5295(3) 0.1614(2) 0.9534(3)
C33_23 C 0.5066(4) 0.1947(3) 0.9414(4)
H34_23 H 0.479722 0.190731 0.931553
C34_23 C 0.5692(4) 0.1660(3) 0.9687(4)
H35_23 H 0.584694 0.143016 0.977065
C35_23 C 0.5229(5) 0.2351(3) 0.9434(5)
C36_23 C 0.5855(6) 0.2061(5) 0.9714(6)
H36_23 H 0.610872 0.210729 0.984401
C37_17 C 0.4867(10) 0.2735(10) 0.9443(9)
H37_17 H 0.476303 0.277230 0.916614
H38_17 H 0.499303 0.298920 0.953724
H39_17 H 0.464253 0.266200 0.962554
C38_23 C 0.5642(7) 0.2379(7) 0.9550(6)
H40_17 H 0.577840 0.263083 0.951169
H41_23 H 0.431553 0.020278 0.809269
C45_17 C 0.4443(9) 0.0133(10) 0.7265(10)
H44_17 H 0.416614 0.023697 0.722770
H45_17 H 0.453724 0.000697 0.701080
H46_17 H 0.462554 0.035747 0.733800
C39_23 C 0.4518(2) 0.9879(2) 0.88214(19)
C40_23 C 0.4534(3) 0.9705(3) 0.8386(2)
C41_23 C 0.4414(4) 0.9934(4) 0.8053(3)
C42_23 C 0.4687(4) 0.9308(4) 0.8340(3)
H42_23 H 0.477065 0.915306 0.856984
C43_23 C 0.4434(5) 0.9771(5) 0.7649(3)
C44_23 C 0.4714(6) 0.9145(6) 0.7939(5)
H43_23 H 0.484401 0.889128 0.789271
C46_23 C 0.4550(6) 0.9358(7) 0.7621(7)
H47_17 H 0.451169 0.922160 0.736917
O9_24 O 0.03330(12) 0.91012(11) 0.53177(12)
C31_24 C 0.0121(2) 0.88214(19) 0.5482(2)
C32_24 C 0.0295(3) 0.8386(2) 0.5466(3)
C33_24 C 0.0066(4) 0.8053(3) 0.5586(4)
C34_24 C 0.0692(4) 0.8340(3) 0.5313(4)
H35_24 H 0.084694 0.856984 0.522935
C35_24 C 0.0229(5) 0.7649(3) 0.5566(5)
C36_24 C 0.0855(6) 0.7939(5) 0.5286(6)
H36_24 H 0.110872 0.789271 0.515599
C38_24 C 0.0642(7) 0.7621(7) 0.5450(6)
H40_18 H 0.077840 0.736917 0.548831
C39_24 C 0.9518(2) 0.0121(2) 0.61786(19)
C40_24 C 0.9534(3) 0.0295(3) 0.6614(2)
C41_24 C 0.9414(4) 0.0066(4) 0.6947(3)
C42_24 C 0.9687(4) 0.0692(4) 0.6660(3)
H42_24 H 0.977065 0.084694 0.643016
C43_24 C 0.9434(5) 0.0229(5) 0.7351(3)
C44_24 C 0.9714(6) 0.0855(6) 0.7061(5)
H43_24 H 0.984401 0.110872 0.710729
C46_24 C 0.9550(6) 0.0642(7) 0.7379(7)
H47_18 H 0.951169 0.077840 0.763083
H34_24 H 0.979722 0.809269 0.568447
C37_18 C 0.9867(10) 0.7265(10) 0.5557(9)
H37_18 H 0.976303 0.722770 0.583386
H38_18 H 0.999303 0.701080 0.546276
H39_18 H 0.964253 0.733800 0.537446
H41_24 H 0.931553 0.979722 0.690731
C45_18 C 0.9443(9) 0.9867(10) 0.7735(10)
H44_18 H 0.916614 0.976303 0.777230
H45_18 H 0.953724 0.999303 0.798920
H46_18 H 0.962554 0.964253 0.766200
N3_9 N 0.14829(13) 0.35171(13) 0.85171(13)
N3_10 N 0.64829(13) 0.64829(13) 0.64829(13)
N3_11 N 0.85171(13) 0.14829(13) 0.35171(13)
N3_12 N 0.35171(13) 0.85171(13) 0.14829(13)
C2_13 C 0.3897(2) 0.8650(3) 0.1694(2)
H1_13 H 0.402940 0.841106 0.182154
H2_13 H 0.382695 0.884596 0.191211
C10_13 C 0.3306(2) 0.8897(2) 0.1350(3)
H10_13 H 0.317846 0.902940 0.158894
H11_13 H 0.308789 0.882695 0.115404
C11_13 C 0.3650(3) 0.8306(2) 0.1103(2)
H12_13 H 0.341106 0.817846 0.097060
H13_13 H 0.384596 0.808789 0.117305
N2_13 N 0.39829(13) 0.89829(13) 0.10171(13)
C12_13 C 0.4194(2) 0.8850(3) 0.1397(2)
H14_13 H 0.432154 0.908894 0.152940
H15_13 H 0.441211 0.865404 0.132695
C13_13 C 0.3603(2) 0.9194(2) 0.1150(3)
H16_13 H 0.347060 0.932154 0.091106
H17_13 H 0.367305 0.941211 0.134596
C14_13 C 0.3850(3) 0.8603(2) 0.0806(2)
H18_13 H 0.408894 0.847060 0.067846
H19_13 H 0.365404 0.867305 0.058789
C2_14 C 0.1103(2) 0.3650(3) 0.8306(2)
H1_14 H 0.097060 0.341106 0.817846
H2_14 H 0.117305 0.384596 0.808789
C10_14 C 0.1694(2) 0.3897(2) 0.8650(3)
H10_14 H 0.182154 0.402940 0.841106
H11_14 H 0.191211 0.382695 0.884596
C11_14 C 0.1350(3) 0.3306(2) 0.8897(2)
H12_14 H 0.158894 0.317846 0.902940
H13_14 H 0.115404 0.308789 0.882695
N2_14 N 0.10171(13) 0.39829(13) 0.89829(13)
C12_14 C 0.0806(2) 0.3850(3) 0.8603(2)
H14_14 H 0.067846 0.408894 0.847060
H15_14 H 0.058789 0.365404 0.867305
C13_14 C 0.1397(2) 0.4194(2) 0.8850(3)
H16_14 H 0.152940 0.432154 0.908894
H17_14 H 0.132695 0.441211 0.865404
C14_14 C 0.1150(3) 0.3603(2) 0.9194(2)
H18_14 H 0.091106 0.347060 0.932154
H19_14 H 0.134596 0.367305 0.941211
C2_15 C 0.8897(2) 0.1350(3) 0.3306(2)
H1_15 H 0.902940 0.158894 0.317846
H2_15 H 0.882695 0.115404 0.308789
C10_15 C 0.8306(2) 0.1103(2) 0.3650(3)
H10_15 H 0.817846 0.097060 0.341106
H11_15 H 0.808789 0.117305 0.384596
C11_15 C 0.8650(3) 0.1694(2) 0.3897(2)
H12_15 H 0.841106 0.182154 0.402940
H13_15 H 0.884596 0.191211 0.382695
N2_15 N 0.89829(13) 0.10171(13) 0.39829(13)
C12_15 C 0.9194(2) 0.1150(3) 0.3603(2)
H14_15 H 0.932154 0.091106 0.347060
H15_15 H 0.941211 0.134596 0.367305
C13_15 C 0.8603(2) 0.0806(2) 0.3850(3)
H16_15 H 0.847060 0.067846 0.408894
H17_15 H 0.867305 0.058789 0.365404
C14_15 C 0.8850(3) 0.1397(2) 0.4194(2)
H18_15 H 0.908894 0.152940 0.432154
H19_15 H 0.865404 0.132695 0.441211
C2_16 C 0.6103(2) 0.6350(3) 0.6694(2)
H1_16 H 0.597060 0.658894 0.682154
H2_16 H 0.617305 0.615404 0.691211
C10_16 C 0.6694(2) 0.6103(2) 0.6350(3)
H10_16 H 0.682154 0.597060 0.658894
H11_16 H 0.691211 0.617305 0.615404
C11_16 C 0.6350(3) 0.6694(2) 0.6103(2)
H12_16 H 0.658894 0.682154 0.597060
H13_16 H 0.615404 0.691211 0.617305
N2_16 N 0.60171(13) 0.60171(13) 0.60171(13)
C12_16 C 0.5806(2) 0.6150(3) 0.6397(2)
H14_16 H 0.567846 0.591106 0.652940
H15_16 H 0.558789 0.634596 0.632695
C13_16 C 0.6397(2) 0.5806(2) 0.6150(3)
H16_16 H 0.652940 0.567846 0.591106
H17_16 H 0.632695 0.558789 0.634596
C14_16 C 0.6150(3) 0.6397(2) 0.5806(2)
H18_16 H 0.591106 0.652940 0.567846
H19_16 H 0.634596 0.632695 0.558789
C29_7 C 0.6943(9) 0.9765(10) 0.2367(10)
H30_7 H 0.666614 0.972770 0.226303
H31_7 H 0.703724 0.951080 0.249303
H32_7 H 0.712554 0.983800 0.214253
H33_7 H 0.701169 0.986917 0.327840
C21_14 C 0.8057(9) 0.9765(10) 0.2633(10)
H23_14 H 0.833386 0.972770 0.273697
H24_14 H 0.796276 0.951080 0.250697
H25_14 H 0.787446 0.983800 0.285747
H26_14 H 0.798831 0.986917 0.172160
C8_7 C 0.2367(10) 0.3057(9) 0.0235(10)
H6_7 H 0.226303 0.333386 0.027230
H7_7 H 0.249303 0.296276 0.048920
H8_7 H 0.214253 0.287446 0.016200
H9_7 H 0.327840 0.298831 0.013083
C53_14 C 0.2633(10) 0.1943(9) 0.0235(10)
H51_14 H 0.273697 0.166614 0.027230
H52_14 H 0.250697 0.203724 0.048920
H53_14 H 0.285747 0.212554 0.016200
H54_14 H 0.172160 0.201169 0.013083
C37_19 C 0.3057(9) 0.9765(10) 0.7633(10)
H37_19 H 0.333386 0.972770 0.773697
H38_19 H 0.296276 0.951080 0.750697
H39_19 H 0.287446 0.983800 0.785747
H40_19 H 0.298831 0.986917 0.672160
C45_19 C 0.1943(9) 0.9765(10) 0.7367(10)
H44_19 H 0.166614 0.972770 0.726303
H45_19 H 0.203724 0.951080 0.749303
H46_19 H 0.212554 0.983800 0.714253
H47_19 H 0.201169 0.986917 0.827840
C21_15 C 0.9765(10) 0.2633(10) 0.8057(9)
H23_15 H 0.972770 0.273697 0.833386
H24_15 H 0.951080 0.250697 0.796276
H25_15 H 0.983800 0.285747 0.787446
H26_15 H 0.986917 0.172160 0.798831
C53_15 C 0.9765(10) 0.2367(10) 0.6943(9)
H51_15 H 0.972770 0.226303 0.666614
H52_15 H 0.951080 0.249303 0.703724
H53_15 H 0.983800 0.214253 0.712554
H54_15 H 0.986917 0.327840 0.701169
C45_20 C 0.0235(10) 0.7633(10) 0.6943(9)
H44_20 H 0.027230 0.773697 0.666614
H45_20 H 0.048920 0.750697 0.703724
H46_20 H 0.016200 0.785747 0.712554
H47_20 H 0.013083 0.672160 0.701169
C37_20 C 0.0235(10) 0.7367(10) 0.8057(9)
H37_20 H 0.027230 0.726303 0.833386
H38_20 H 0.048920 0.749303 0.796276
H39_20 H 0.016200 0.714253 0.787446
H40_20 H 0.013083 0.827840 0.798831
C37_21 C 0.8057(9) 0.0235(10) 0.7367(10)
H37_21 H 0.833386 0.027230 0.726303
H38_21 H 0.796276 0.048920 0.749303
H39_21 H 0.787446 0.016200 0.714253
H40_21 H 0.798831 0.013083 0.827840
C45_21 C 0.6943(9) 0.0235(10) 0.7633(10)
H44_21 H 0.666614 0.027230 0.773697
H45_21 H 0.703724 0.048920 0.750697
H46_21 H 0.712554 0.016200 0.785747
H47_21 H 0.701169 0.013083 0.672160
C29_8 C 0.1943(9) 0.0235(10) 0.2633(10)
H30_8 H 0.166614 0.027230 0.273697
H31_8 H 0.203724 0.048920 0.250697
H32_8 H 0.212554 0.016200 0.285747
H33_8 H 0.201169 0.013083 0.172160
C21_16 C 0.3057(9) 0.0235(10) 0.2367(10)
H23_16 H 0.333386 0.027230 0.226303
H24_16 H 0.296276 0.048920 0.249303
H25_16 H 0.287446 0.016200 0.214253
H26_16 H 0.298831 0.013083 0.327840
C8_8 C 0.2633(10) 0.8057(9) 0.9765(10)
H6_8 H 0.273697 0.833386 0.972770
H7_8 H 0.250697 0.796276 0.951080
H8_8 H 0.285747 0.787446 0.983800
H9_8 H 0.172160 0.798831 0.986917
C53_16 C 0.2367(10) 0.6943(9) 0.9765(10)
H51_16 H 0.226303 0.666614 0.972770
H52_16 H 0.249303 0.703724 0.951080
H53_16 H 0.214253 0.712554 0.983800
H54_16 H 0.327840 0.701169 0.986917
C45_22 C 0.9765(10) 0.7367(10) 0.1943(9)
H44_22 H 0.972770 0.726303 0.166614
H45_22 H 0.951080 0.749303 0.203724
H46_22 H 0.983800 0.714253 0.212554
H47_22 H 0.986917 0.827840 0.201169
C37_22 C 0.9765(10) 0.7633(10) 0.3057(9)
H37_22 H 0.972770 0.773697 0.333386
H38_22 H 0.951080 0.750697 0.296276
H39_22 H 0.983800 0.785747 0.287446
H40_22 H 0.986917 0.672160 0.298831
C37_23 C 0.7633(10) 0.3057(9) 0.9765(10)
H37_23 H 0.773697 0.333386 0.972770
H38_23 H 0.750697 0.296276 0.951080
H39_23 H 0.785747 0.287446 0.983800
H40_23 H 0.672160 0.298831 0.986917
C45_23 C 0.7367(10) 0.1943(9) 0.9765(10)
H44_23 H 0.726303 0.166614 0.972770
H45_23 H 0.749303 0.203724 0.951080
H46_23 H 0.714253 0.212554 0.983800
H47_23 H 0.827840 0.201169 0.986917
C37_24 C 0.7367(10) 0.8057(9) 0.0235(10)
H37_24 H 0.726303 0.833386 0.027230
H38_24 H 0.749303 0.796276 0.048920
H39_24 H 0.714253 0.787446 0.016200
H40_24 H 0.827840 0.798831 0.013083
C45_24 C 0.7633(10) 0.6943(9) 0.0235(10)
H44_24 H 0.773697 0.666614 0.027230
H45_24 H 0.750697 0.703724 0.048920
H46_24 H 0.785747 0.712554 0.016200
H47_24 H 0.672160 0.701169 0.013083
loop_
_geom_bond_atom_site_label_1
_geom_bond_atom_site_label_2
_geom_bond_site_symmetry_1
_geom_bond_site_symmetry_2
H23 C21 1_555 1_555
H24 C21 1_555 1_555
H25 C21 1_555 1_555
H51 C53 1_555 1_555
H52 C53 1_555 1_555
H53 C53 1_555 1_555
Co1 O1 1_555 1_555
Al1 O1 1_555 1_555
O1 Al2 1_555 1_555
O2 Al1 1_555 1_555
O3 C1 1_555 1_555
N1 Co1 1_555 1_555
C1 O2 1_555 1_555
C2 N1 1_555 1_555
H1 C2 1_555 1_555
H2 C2 1_555 1_555
C3 C1 1_555 1_555
C4 C3 1_555 1_555
H3 C4 1_555 1_555
C5 C3 1_555 1_555
H4 C5 1_555 1_555
C6 C4 1_555 1_555
C7 C5 1_555 1_555
H5 C7 1_555 1_555
C8 C6 1_555 1_555
H6 C8 1_555 1_555
H7 C8 1_555 1_555
H8 C8 1_555 1_555
C9 C6 1_555 1_555
H9 C9 1_555 1_555
C10 N1 1_555 1_555
H10 C10 1_555 1_555
H11 C10 1_555 1_555
C11 N1 1_555 1_555
H12 C11 1_555 1_555
H13 C11 1_555 1_555
N2 C12 1_555 1_555
C12 C2 1_555 1_555
H14 C12 1_555 1_555
H15 C12 1_555 1_555
C13 C10 1_555 1_555
H16 C13 1_555 1_555
H17 C13 1_555 1_555
C14 C11 1_555 1_555
H18 C14 1_555 1_555
H19 C14 1_555 1_555
Co2 O4 1_555 1_555
Al2 O4 1_555 1_555
O4 Al3 1_555 1_555
O5 Al2 1_555 1_555
O6 C15 1_555 1_555
C15 O5 1_555 1_555
C16 C15 1_555 1_555
C17 C16 1_555 1_555
H20 C17 1_555 1_555
C18 C16 1_555 1_555
H21 C18 1_555 1_555
C19 C17 1_555 1_555
C20 C18 1_555 1_555
H22 C20 1_555 1_555
C22 C19 1_555 1_555
O7 Al1 1_555 1_555
O8 C23 1_555 1_555
C23 O7 1_555 1_555
C24 C23 1_555 1_555
C25 C24 1_555 1_555
H27 C25 1_555 1_555
C26 C24 1_555 1_555
H28 C26 1_555 1_555
C27 C25 1_555 1_555
C28 C26 1_555 1_555
H29 C28 1_555 1_555
C30 C27 1_555 1_555
O9 C31 1_555 1_555
O10 Co1 1_555 1_555
C31 O10 1_555 1_555
C32 C31 1_555 1_555
C33 C32 1_555 1_555
H34 C33 1_555 1_555
C34 C32 1_555 1_555
H35 C34 1_555 1_555
C35 C33 1_555 1_555
C36 C34 1_555 1_555
H36 C36 1_555 1_555
C37 C35 1_555 1_555
H37 C37 1_555 1_555
H38 C37 1_555 1_555
H39 C37 1_555 1_555
C38 C35 1_555 1_555
H40 C38 1_555 1_555
O11 Al1 1_555 1_555
O12 Co1 1_555 1_555
C39 O11 1_555 1_555
C40 C39 1_555 1_555
C41 C40 1_555 1_555
H41 C41 1_555 1_555
C42 C40 1_555 1_555
H42 C42 1_555 1_555
C43 C41 1_555 1_555
C44 C42 1_555 1_555
H43 C44 1_555 1_555
C45 C43 1_555 1_555
H44 C45 1_555 1_555
H45 C45 1_555 1_555
H46 C45 1_555 1_555
C46 C43 1_555 1_555
H47 C46 1_555 1_555
O13 Al2 1_555 1_555
O14 Co1 1_555 1_555
C47 O13 1_555 1_555
C48 C47 1_555 1_555
C49 C48 1_555 1_555
H48 C49 1_555 1_555
C50 C48 1_555 1_555
H49 C50 1_555 1_555
C51 C49 1_555 1_555
C52 C50 1_555 1_555
H50 C52 1_555 1_555
C53_2 C51 1_555 1_555
H51_2 C53_2 1_555 1_555
H52_2 C53_2 1_555 1_555
H53_2 C53_2 1_555 1_555
C54 C51 1_555 1_555
H54_2 C54 1_555 1_555
Co3 O8 1_555 1_555
Co4 N2 1_555 1_555
Co5 O3 1_555 1_555
Al3 O15 1_555 1_555
Al4 O1 1_555 1_555
O15 Al1 1_555 1_555
O16 Al1 1_555 1_555
O17 Al2 1_555 1_555
O18 Co2 1_555 1_555
O19 Co2 1_555 1_555
O20 Co2 1_555 1_555
N3 Co2 1_555 1_555
C7 C9 1_555 1_555
N2 C13 1_555 1_555
N2 C14 1_555 1_555
Al2 O16 1_555 1_555
O4 Al4 1_555 1_555
O6 Co5 1_555 1_555
C20 C22 1_555 1_555
C28 C30 1_555 1_555
O9 Al4 1_555 1_555
C36 C38 1_555 1_555
O12 C39 1_555 1_555
C44 C46 1_555 1_555
O14 C47 1_555 1_555
C52 C54 1_555 1_555
Co3 O15 1_555 1_555
Co5 O16 1_555 1_555
Al3 O16 1_555 1_555
Al4 O15 1_555 1_555
Co1_2 O1_2 1_555 1_555
Al1_2 O1_2 1_555 1_555
O1_2 Al2_2 1_555 1_555
O2_2 Al1_2 1_555 1_555
O3_2 C1_2 1_555 1_555
N1_2 Co1_2 1_555 1_555
C1_2 O2_2 1_555 1_555
C2_2 N1_2 1_555 1_555
H1_2 C2_2 1_555 1_555
H2_2 C2_2 1_555 1_555
C3_2 C1_2 1_555 1_555
C4_2 C3_2 1_555 1_555
H3_2 C4_2 1_555 1_555
C5_2 C3_2 1_555 1_555
H4_2 C5_2 1_555 1_555
C6_2 C4_2 1_555 1_555
C7_2 C5_2 1_555 1_555
H5_2 C7_2 1_555 1_555
C9_2 C6_2 1_555 1_555
C10_2 N1_2 1_555 1_555
H10_2 C10_2 1_555 1_555
H11_2 C10_2 1_555 1_555
C11_2 N1_2 1_555 1_555
H12_2 C11_2 1_555 1_555
H13_2 C11_2 1_555 1_555
N2_2 C12_2 1_555 1_555
C12_2 C2_2 1_555 1_555
H14_2 C12_2 1_555 1_555
H15_2 C12_2 1_555 1_555
C13_2 C10_2 1_555 1_555
H16_2 C13_2 1_555 1_555
H17_2 C13_2 1_555 1_555
C14_2 C11_2 1_555 1_555
H18_2 C14_2 1_555 1_555
H19_2 C14_2 1_555 1_555
Co2_2 O4_2 1_555 1_555
Al2_2 O4_2 1_555 1_555
O4_2 Al3_2 1_555 1_555
O5_2 Al2_2 1_555 1_555
O6_2 C15_2 1_555 1_555
C15_2 O5_2 1_555 1_555
C16_2 C15_2 1_555 1_555
C17_2 C16_2 1_555 1_555
H20_2 C17_2 1_555 1_555
C18_2 C16_2 1_555 1_555
H21_2 C18_2 1_555 1_555
C19_2 C17_2 1_555 1_555
C20_2 C18_2 1_555 1_555
H22_2 C20_2 1_555 1_555
C22_2 C19_2 1_555 1_555
O7_2 Al1_2 1_555 1_555
O8_2 C23_2 1_555 1_555
C23_2 O7_2 1_555 1_555
C24_2 C23_2 1_555 1_555
C25_2 C24_2 1_555 1_555
H27_2 C25_2 1_555 1_555
C26_2 C24_2 1_555 1_555
H28_2 C26_2 1_555 1_555
C27_2 C25_2 1_555 1_555
C28_2 C26_2 1_555 1_555
H29_2 C28_2 1_555 1_555
C29 C27_2 1_555 1_555
H30 C29 1_555 1_555
H31 C29 1_555 1_555
H32 C29 1_555 1_555
C30_2 C27_2 1_555 1_555
H33 C30_2 1_555 1_555
O9_2 C31_2 1_555 1_555
O10_2 Co1_2 1_555 1_555
C31_2 O10_2 1_555 1_555
C32_2 C31_2 1_555 1_555
C33_2 C32_2 1_555 1_555
H34_2 C33_2 1_555 1_555
C34_2 C32_2 1_555 1_555
H35_2 C34_2 1_555 1_555
C35_2 C33_2 1_555 1_555
C36_2 C34_2 1_555 1_555
H36_2 C36_2 1_555 1_555
C38_2 C35_2 1_555 1_555
O11_2 Al1_2 1_555 1_555
O12_2 Co1_2 1_555 1_555
C39_2 O11_2 1_555 1_555
C40_2 C39_2 1_555 1_555
C41_2 C40_2 1_555 1_555
H41_2 C41_2 1_555 1_555
C42_2 C40_2 1_555 1_555
H42_2 C42_2 1_555 1_555
C43_2 C41_2 1_555 1_555
C44_2 C42_2 1_555 1_555
H43_2 C44_2 1_555 1_555
C45_2 C43_2 1_555 1_555
H44_2 C45_2 1_555 1_555
H45_2 C45_2 1_555 1_555
H46_2 C45_2 1_555 1_555
C46_2 C43_2 1_555 1_555
H47_2 C46_2 1_555 1_555
O13_2 Al2_2 1_555 1_555
O14_2 Co1_2 1_555 1_555
C47_2 O13_2 1_555 1_555
C48_2 C47_2 1_555 1_555
C49_2 C48_2 1_555 1_555
H48_2 C49_2 1_555 1_555
C50_2 C48_2 1_555 1_555
H49_2 C50_2 1_555 1_555
C51_2 C49_2 1_555 1_555
C52_2 C50_2 1_555 1_555
H50_2 C52_2 1_555 1_555
C54_2 C51_2 1_555 1_555
Co3_2 O8_2 1_555 1_555
Co4_2 N2_2 1_555 1_555
Co5_2 O3_2 1_555 1_555
Al3_2 O15_2 1_555 1_555
Al4_2 O1_2 1_555 1_555
O15_2 Al1_2 1_555 1_555
O16_2 Al1_2 1_555 1_555
O17_2 Al2_2 1_555 1_555
O18_2 Co2_2 1_555 1_555
O19_2 Co2_2 1_555 1_555
O20_2 Co2_2 1_555 1_555
N3_2 Co2_2 1_555 1_555
C7_2 C9_2 1_555 1_555
N2_2 C13_2 1_555 1_555
N2_2 C14_2 1_555 1_555
Al2_2 O16_2 1_555 1_555
O4_2 Al4_2 1_555 1_555
O6_2 Co5_2 1_555 1_555
C20_2 C22_2 1_555 1_555
C28_2 C30_2 1_555 1_555
O9_2 Al4_2 1_555 1_555
C36_2 C38_2 1_555 1_555
O12_2 C39_2 1_555 1_555
C44_2 C46_2 1_555 1_555
O14_2 C47_2 1_555 1_555
C52_2 C54_2 1_555 1_555
Co3_2 O15_2 1_555 1_555
Co5_2 O16_2 1_555 1_555
Al3_2 O16_2 1_555 1_555
Al4_2 O15_2 1_555 1_555
Co1_3 O1_3 1_555 1_555
Al1_3 O1_3 1_555 1_555
O1_3 Al2_3 1_555 1_555
O2_3 Al1_3 1_555 1_555
O3_3 C1_3 1_555 1_555
N1_3 Co1_3 1_555 1_555
C1_3 O2_3 1_555 1_555
C2_3 N1_3 1_555 1_555
H1_3 C2_3 1_555 1_555
H2_3 C2_3 1_555 1_555
C3_3 C1_3 1_555 1_555
C4_3 C3_3 1_555 1_555
H3_3 C4_3 1_555 1_555
C5_3 C3_3 1_555 1_555
H4_3 C5_3 1_555 1_555
C6_3 C4_3 1_555 1_555
C7_3 C5_3 1_555 1_555
H5_3 C7_3 1_555 1_555
C8_2 C6_3 1_555 1_555
H6_2 C8_2 1_555 1_555
H7_2 C8_2 1_555 1_555
H8_2 C8_2 1_555 1_555
C9_3 C6_3 1_555 1_555
H9_2 C9_3 1_555 1_555
C10_3 N1_3 1_555 1_555
H10_3 C10_3 1_555 1_555
H11_3 C10_3 1_555 1_555
C11_3 N1_3 1_555 1_555
H12_3 C11_3 1_555 1_555
H13_3 C11_3 1_555 1_555
N2_3 C12_3 1_555 1_555
C12_3 C2_3 1_555 1_555
H14_3 C12_3 1_555 1_555
H15_3 C12_3 1_555 1_555
C13_3 C10_3 1_555 1_555
H16_3 C13_3 1_555 1_555
H17_3 C13_3 1_555 1_555
C14_3 C11_3 1_555 1_555
H18_3 C14_3 1_555 1_555
H19_3 C14_3 1_555 1_555
Co2_3 O4_3 1_555 1_555
Al2_3 O4_3 1_555 1_555
O4_3 Al3_3 1_555 1_555
O5_3 Al2_3 1_555 1_555
O6_3 C15_3 1_555 1_555
C15_3 O5_3 1_555 1_555
C16_3 C15_3 1_555 1_555
C17_3 C16_3 1_555 1_555
H20_3 C17_3 1_555 1_555
C18_3 C16_3 1_555 1_555
H21_3 C18_3 1_555 1_555
C19_3 C17_3 1_555 1_555
C20_3 C18_3 1_555 1_555
H22_3 C20_3 1_555 1_555
C21_2 C19_3 1_555 1_555
H23_2 C21_2 1_555 1_555
H24_2 C21_2 1_555 1_555
H25_2 C21_2 1_555 1_555
C22_3 C19_3 1_555 1_555
H26_2 C22_3 1_555 1_555
O7_3 Al1_3 1_555 1_555
O8_3 C23_3 1_555 1_555
C23_3 O7_3 1_555 1_555
C24_3 C23_3 1_555 1_555
C25_3 C24_3 1_555 1_555
H27_3 C25_3 1_555 1_555
C26_3 C24_3 1_555 1_555
H28_3 C26_3 1_555 1_555
C27_3 C25_3 1_555 1_555
C28_3 C26_3 1_555 1_555
H29_3 C28_3 1_555 1_555
C29_2 C27_3 1_555 1_555
H30_2 C29_2 1_555 1_555
H31_2 C29_2 1_555 1_555
H32_2 C29_2 1_555 1_555
C30_3 C27_3 1_555 1_555
H33_2 C30_3 1_555 1_555
O9_3 C31_3 1_555 1_555
O10_3 Co1_3 1_555 1_555
C31_3 O10_3 1_555 1_555
C32_3 C31_3 1_555 1_555
C33_3 C32_3 1_555 1_555
H34_3 C33_3 1_555 1_555
C34_3 C32_3 1_555 1_555
H35_3 C34_3 1_555 1_555
C35_3 C33_3 1_555 1_555
C36_3 C34_3 1_555 1_555
H36_3 C36_3 1_555 1_555
C38_3 C35_3 1_555 1_555
O11_3 Al1_3 1_555 1_555
O12_3 Co1_3 1_555 1_555
C39_3 O11_3 1_555 1_555
C40_3 C39_3 1_555 1_555
C41_3 C40_3 1_555 1_555
H41_3 C41_3 1_555 1_555
C42_3 C40_3 1_555 1_555
H42_3 C42_3 1_555 1_555
C43_3 C41_3 1_555 1_555
C44_3 C42_3 1_555 1_555
H43_3 C44_3 1_555 1_555
C46_3 C43_3 1_555 1_555
O13_3 Al2_3 1_555 1_555
O14_3 Co1_3 1_555 1_555
C47_3 O13_3 1_555 1_555
C48_3 C47_3 1_555 1_555
C49_3 C48_3 1_555 1_555
H48_3 C49_3 1_555 1_555
C50_3 C48_3 1_555 1_555
H49_3 C50_3 1_555 1_555
C51_3 C49_3 1_555 1_555
C52_3 C50_3 1_555 1_555
H50_3 C52_3 1_555 1_555
C53_3 C51_3 1_555 1_555
H51_3 C53_3 1_555 1_555
H52_3 C53_3 1_555 1_555
H53_3 C53_3 1_555 1_555
C54_3 C51_3 1_555 1_555
H54_3 C54_3 1_555 1_555
Co3_3 O8_3 1_555 1_555
Co4_3 N2_3 1_555 1_555
Co5_3 O3_3 1_555 1_555
Al3_3 O15_3 1_555 1_555
Al4_3 O1_3 1_555 1_555
O15_3 Al1_3 1_555 1_555
O16_3 Al1_3 1_555 1_555
O17_3 Al2_3 1_555 1_555
O18_3 Co2_3 1_555 1_555
O19_3 Co2_3 1_555 1_555
O20_3 Co2_3 1_555 1_555
N3_3 Co2_3 1_555 1_555
C7_3 C9_3 1_555 1_555
N2_3 C13_3 1_555 1_555
N2_3 C14_3 1_555 1_555
Al2_3 O16_3 1_555 1_555
O4_3 Al4_3 1_555 1_555
O6_3 Co5_3 1_555 1_555
C20_3 C22_3 1_555 1_555
C28_3 C30_3 1_555 1_555
O9_3 Al4_3 1_555 1_555
C36_3 C38_3 1_555 1_555
O12_3 C39_3 1_555 1_555
C44_3 C46_3 1_555 1_555
O14_3 C47_3 1_555 1_555
C52_3 C54_3 1_555 1_555
Co3_3 O15_3 1_555 1_555
Co5_3 O16_3 1_555 1_555
Al3_3 O16_3 1_555 1_555
Al4_3 O15_3 1_555 1_555
Co1_4 O1_4 1_555 1_555
Al1_4 O1_4 1_555 1_555
O1_4 Al2_4 1_555 1_555
O2_4 Al1_4 1_555 1_555
O3_4 C1_4 1_555 1_555
N1_4 Co1_4 1_555 1_555
C1_4 O2_4 1_555 1_555
C2_4 N1_4 1_555 1_555
H1_4 C2_4 1_555 1_555
H2_4 C2_4 1_555 1_555
C3_4 C1_4 1_555 1_555
C4_4 C3_4 1_555 1_555
H3_4 C4_4 1_555 1_555
C5_4 C3_4 1_555 1_555
H4_4 C5_4 1_555 1_555
C6_4 C4_4 1_555 1_555
C7_4 C5_4 1_555 1_555
H5_4 C7_4 1_555 1_555
C9_4 C6_4 1_555 1_555
C10_4 N1_4 1_555 1_555
H10_4 C10_4 1_555 1_555
H11_4 C10_4 1_555 1_555
C11_4 N1_4 1_555 1_555
H12_4 C11_4 1_555 1_555
H13_4 C11_4 1_555 1_555
N2_4 C12_4 1_555 1_555
C12_4 C2_4 1_555 1_555
H14_4 C12_4 1_555 1_555
H15_4 C12_4 1_555 1_555
C13_4 C10_4 1_555 1_555
H16_4 C13_4 1_555 1_555
H17_4 C13_4 1_555 1_555
C14_4 C11_4 1_555 1_555
H18_4 C14_4 1_555 1_555
H19_4 C14_4 1_555 1_555
Co2_4 O4_4 1_555 1_555
Al2_4 O4_4 1_555 1_555
O4_4 Al3_4 1_555 1_555
O5_4 Al2_4 1_555 1_555
O6_4 C15_4 1_555 1_555
C15_4 O5_4 1_555 1_555
C16_4 C15_4 1_555 1_555
C17_4 C16_4 1_555 1_555
H20_4 C17_4 1_555 1_555
C18_4 C16_4 1_555 1_555
H21_4 C18_4 1_555 1_555
C19_4 C17_4 1_555 1_555
C20_4 C18_4 1_555 1_555
H22_4 C20_4 1_555 1_555
C21_3 C19_4 1_555 1_555
H23_3 C21_3 1_555 1_555
H24_3 C21_3 1_555 1_555
H25_3 C21_3 1_555 1_555
C22_4 C19_4 1_555 1_555
H26_3 C22_4 1_555 1_555
O7_4 Al1_4 1_555 1_555
O8_4 C23_4 1_555 1_555
C23_4 O7_4 1_555 1_555
C24_4 C23_4 1_555 1_555
C25_4 C24_4 1_555 1_555
H27_4 C25_4 1_555 1_555
C26_4 C24_4 1_555 1_555
H28_4 C26_4 1_555 1_555
C27_4 C25_4 1_555 1_555
C28_4 C26_4 1_555 1_555
H29_4 C28_4 1_555 1_555
C30_4 C27_4 1_555 1_555
O9_4 C31_4 1_555 1_555
O10_4 Co1_4 1_555 1_555
C31_4 O10_4 1_555 1_555
C32_4 C31_4 1_555 1_555
C33_4 C32_4 1_555 1_555
H34_4 C33_4 1_555 1_555
C34_4 C32_4 1_555 1_555
H35_4 C34_4 1_555 1_555
C35_4 C33_4 1_555 1_555
C36_4 C34_4 1_555 1_555
H36_4 C36_4 1_555 1_555
C37_2 C35_4 1_555 1_555
H37_2 C37_2 1_555 1_555
H38_2 C37_2 1_555 1_555
H39_2 C37_2 1_555 1_555
C38_4 C35_4 1_555 1_555
H40_2 C38_4 1_555 1_555
O11_4 Al1_4 1_555 1_555
O12_4 Co1_4 1_555 1_555
C39_4 O11_4 1_555 1_555
C40_4 C39_4 1_555 1_555
C41_4 C40_4 1_555 1_555
H41_4 C41_4 1_555 1_555
C42_4 C40_4 1_555 1_555
H42_4 C42_4 1_555 1_555
C43_4 C41_4 1_555 1_555
C44_4 C42_4 1_555 1_555
H43_4 C44_4 1_555 1_555
C46_4 C43_4 1_555 1_555
O13_4 Al2_4 1_555 1_555
O14_4 Co1_4 1_555 1_555
C47_4 O13_4 1_555 1_555
C48_4 C47_4 1_555 1_555
C49_4 C48_4 1_555 1_555
H48_4 C49_4 1_555 1_555
C50_4 C48_4 1_555 1_555
H49_4 C50_4 1_555 1_555
C51_4 C49_4 1_555 1_555
C52_4 C50_4 1_555 1_555
H50_4 C52_4 1_555 1_555
C54_4 C51_4 1_555 1_555
Co3_4 O8_4 1_555 1_555
Co4_4 N2_4 1_555 1_555
Co5_4 O3_4 1_555 1_555
Al3_4 O15_4 1_555 1_555
Al4_4 O1_4 1_555 1_555
O15_4 Al1_4 1_555 1_555
O16_4 Al1_4 1_555 1_555
O17_4 Al2_4 1_555 1_555
O18_4 Co2_4 1_555 1_555
O19_4 Co2_4 1_555 1_555
O20_4 Co2_4 1_555 1_555
N3_4 Co2_4 1_555 1_555
C7_4 C9_4 1_555 1_555
N2_4 C13_4 1_555 1_555
N2_4 C14_4 1_555 1_555
Al2_4 O16_4 1_555 1_555
O4_4 Al4_4 1_555 1_555
O6_4 Co5_4 1_555 1_555
C20_4 C22_4 1_555 1_555
C28_4 C30_4 1_555 1_555
O9_4 Al4_4 1_555 1_555
C36_4 C38_4 1_555 1_555
O12_4 C39_4 1_555 1_555
C44_4 C46_4 1_555 1_555
O14_4 C47_4 1_555 1_555
C52_4 C54_4 1_555 1_555
Co3_4 O15_4 1_555 1_555
Co5_4 O16_4 1_555 1_555
Al3_4 O16_4 1_555 1_555
Al4_4 O15_4 1_555 1_555
C2_5 N3_4 1_555 1_555
H1_5 C2_5 1_555 1_555
H2_5 C2_5 1_555 1_555
C10_5 N3_4 1_555 1_555
H10_5 C10_5 1_555 1_555
H11_5 C10_5 1_555 1_555
C11_5 N3_4 1_555 1_555
H12_5 C11_5 1_555 1_555
H13_5 C11_5 1_555 1_555
N2_5 C12_5 1_555 1_555
C12_5 C2_5 1_555 1_555
H14_5 C12_5 1_555 1_555
H15_5 C12_5 1_555 1_555
C13_5 C10_5 1_555 1_555
H16_5 C13_5 1_555 1_555
H17_5 C13_5 1_555 1_555
C14_5 C11_5 1_555 1_555
H18_5 C14_5 1_555 1_555
H19_5 C14_5 1_555 1_555
O5_5 Al3_4 1_555 1_555
O6_5 C15_5 1_555 1_555
C15_5 O5_5 1_555 1_555
C16_5 C15_5 1_555 1_555
C17_5 C16_5 1_555 1_555
H20_5 C17_5 1_555 1_555
C18_5 C16_5 1_555 1_555
H21_5 C18_5 1_555 1_555
C19_5 C17_5 1_555 1_555
C20_5 C18_5 1_555 1_555
H22_5 C20_5 1_555 1_555
C22_5 C19_5 1_555 1_555
O9_5 C31_5 1_555 1_555
C31_5 O18_4 1_555 1_555
C32_5 C31_5 1_555 1_555
C33_5 C32_5 1_555 1_555
H34_5 C33_5 1_555 1_555
C34_5 C32_5 1_555 1_555
H35_5 C34_5 1_555 1_555
C35_5 C33_5 1_555 1_555
C36_5 C34_5 1_555 1_555
H36_5 C36_5 1_555 1_555
C37_3 C35_5 1_555 1_555
H37_3 C37_3 1_555 1_555
H38_3 C37_3 1_555 1_555
H39_3 C37_3 1_555 1_555
C38_5 C35_5 1_555 1_555
H40_3 C38_5 1_555 1_555
C39_5 O17_4 1_555 1_555
C40_5 C39_5 1_555 1_555
C41_5 C40_5 1_555 1_555
H41_5 C41_5 1_555 1_555
C42_5 C40_5 1_555 1_555
H42_5 C42_5 1_555 1_555
C43_5 C41_5 1_555 1_555
C44_5 C42_5 1_555 1_555
H43_5 C44_5 1_555 1_555
C45_3 C43_5 1_555 1_555
H44_3 C45_3 1_555 1_555
H45_3 C45_3 1_555 1_555
H46_3 C45_3 1_555 1_555
C46_5 C43_5 1_555 1_555
H47_3 C46_5 1_555 1_555
O13_5 Al3_4 1_555 1_555
C47_5 O13_5 1_555 1_555
C48_5 C47_5 1_555 1_555
C49_5 C48_5 1_555 1_555
H48_5 C49_5 1_555 1_555
C50_5 C48_5 1_555 1_555
H49_5 C50_5 1_555 1_555
C51_5 C49_5 1_555 1_555
C52_5 C50_5 1_555 1_555
H50_5 C52_5 1_555 1_555
C53_4 C51_5 1_555 1_555
H51_4 C53_4 1_555 1_555
H52_4 C53_4 1_555 1_555
H53_4 C53_4 1_555 1_555
C54_5 C51_5 1_555 1_555
H54_4 C54_5 1_555 1_555
Co4_5 N2_5 1_555 1_555
O17_5 Al3_4 1_555 1_555
O18_5 Co3_4 1_555 1_555
O20_5 Co3_4 1_555 1_555
N3_5 Co3_4 1_555 1_555
N2_5 C13_5 1_555 1_555
N2_5 C14_5 1_555 1_555
O6_5 Co5_4 1_555 1_555
C20_5 C22_5 1_555 1_555
O9_5 Al4_4 1_555 1_555
C36_5 C38_5 1_555 1_555
O20_4 C39_5 1_555 1_555
C44_5 C46_5 1_555 1_555
O19_4 C47_5 1_555 1_555
C52_5 C54_5 1_555 1_555
C2_6 N3 1_555 1_555
H1_6 C2_6 1_555 1_555
H2_6 C2_6 1_555 1_555
C10_6 N3 1_555 1_555
H10_6 C10_6 1_555 1_555
H11_6 C10_6 1_555 1_555
C11_6 N3 1_555 1_555
H12_6 C11_6 1_555 1_555
H13_6 C11_6 1_555 1_555
N2_6 C12_6 1_555 1_555
C12_6 C2_6 1_555 1_555
H14_6 C12_6 1_555 1_555
H15_6 C12_6 1_555 1_555
C13_6 C10_6 1_555 1_555
H16_6 C13_6 1_555 1_555
H17_6 C13_6 1_555 1_555
C14_6 C11_6 1_555 1_555
H18_6 C14_6 1_555 1_555
H19_6 C14_6 1_555 1_555
O5_6 Al3 1_555 1_555
O6_6 C15_6 1_555 1_555
C15_6 O5_6 1_555 1_555
C16_6 C15_6 1_555 1_555
C17_6 C16_6 1_555 1_555
H20_6 C17_6 1_555 1_555
C18_6 C16_6 1_555 1_555
H21_6 C18_6 1_555 1_555
C19_6 C17_6 1_555 1_555
C20_6 C18_6 1_555 1_555
H22_6 C20_6 1_555 1_555
C22_6 C19_6 1_555 1_555
O9_6 C31_6 1_555 1_555
C31_6 O18 1_555 1_555
C32_6 C31_6 1_555 1_555
C33_6 C32_6 1_555 1_555
H34_6 C33_6 1_555 1_555
C34_6 C32_6 1_555 1_555
H35_6 C34_6 1_555 1_555
C35_6 C33_6 1_555 1_555
C36_6 C34_6 1_555 1_555
H36_6 C36_6 1_555 1_555
C38_6 C35_6 1_555 1_555
C39_6 O17 1_555 1_555
C40_6 C39_6 1_555 1_555
C41_6 C40_6 1_555 1_555
H41_6 C41_6 1_555 1_555
C42_6 C40_6 1_555 1_555
H42_6 C42_6 1_555 1_555
C43_6 C41_6 1_555 1_555
C44_6 C42_6 1_555 1_555
H43_6 C44_6 1_555 1_555
C45_4 C43_6 1_555 1_555
H44_4 C45_4 1_555 1_555
H45_4 C45_4 1_555 1_555
H46_4 C45_4 1_555 1_555
C46_6 C43_6 1_555 1_555
H47_4 C46_6 1_555 1_555
O13_6 Al3 1_555 1_555
C47_6 O13_6 1_555 1_555
C48_6 C47_6 1_555 1_555
C49_6 C48_6 1_555 1_555
H48_6 C49_6 1_555 1_555
C50_6 C48_6 1_555 1_555
H49_6 C50_6 1_555 1_555
C51_6 C49_6 1_555 1_555
C52_6 C50_6 1_555 1_555
H50_6 C52_6 1_555 1_555
C54_6 C51_6 1_555 1_555
Co4_6 N2_6 1_555 1_555
O17_6 Al3 1_555 1_555
O18_6 Co3 1_555 1_555
O20_6 Co3 1_555 1_555
N3_6 Co3 1_555 1_555
N2_6 C13_6 1_555 1_555
N2_6 C14_6 1_555 1_555
O6_6 Co5 1_555 1_555
C20_6 C22_6 1_555 1_555
O9_6 Al4 1_555 1_555
C36_6 C38_6 1_555 1_555
O20 C39_6 1_555 1_555
C44_6 C46_6 1_555 1_555
O19 C47_6 1_555 1_555
C52_6 C54_6 1_555 1_555
C2_7 N3_3 1_555 1_555
H1_7 C2_7 1_555 1_555
H2_7 C2_7 1_555 1_555
C10_7 N3_3 1_555 1_555
H10_7 C10_7 1_555 1_555
H11_7 C10_7 1_555 1_555
C11_7 N3_3 1_555 1_555
H12_7 C11_7 1_555 1_555
H13_7 C11_7 1_555 1_555
N2_7 C12_7 1_555 1_555
C12_7 C2_7 1_555 1_555
H14_7 C12_7 1_555 1_555
H15_7 C12_7 1_555 1_555
C13_7 C10_7 1_555 1_555
H16_7 C13_7 1_555 1_555
H17_7 C13_7 1_555 1_555
C14_7 C11_7 1_555 1_555
H18_7 C14_7 1_555 1_555
H19_7 C14_7 1_555 1_555
O5_7 Al3_3 1_555 1_555
O6_7 C15_7 1_555 1_555
C15_7 O5_7 1_555 1_555
C16_7 C15_7 1_555 1_555
C17_7 C16_7 1_555 1_555
H20_7 C17_7 1_555 1_555
C18_7 C16_7 1_555 1_555
H21_7 C18_7 1_555 1_555
C19_7 C17_7 1_555 1_555
C20_7 C18_7 1_555 1_555
H22_7 C20_7 1_555 1_555
C21_4 C19_7 1_555 1_555
H23_4 C21_4 1_555 1_555
H24_4 C21_4 1_555 1_555
H25_4 C21_4 1_555 1_555
C22_7 C19_7 1_555 1_555
H26_4 C22_7 1_555 1_555
O9_7 C31_7 1_555 1_555
C31_7 O18_3 1_555 1_555
C32_7 C31_7 1_555 1_555
C33_7 C32_7 1_555 1_555
H34_7 C33_7 1_555 1_555
C34_7 C32_7 1_555 1_555
H35_7 C34_7 1_555 1_555
C35_7 C33_7 1_555 1_555
C36_7 C34_7 1_555 1_555
H36_7 C36_7 1_555 1_555
C38_7 C35_7 1_555 1_555
C39_7 O17_3 1_555 1_555
C40_7 C39_7 1_555 1_555
C41_7 C40_7 1_555 1_555
H41_7 C41_7 1_555 1_555
C42_7 C40_7 1_555 1_555
H42_7 C42_7 1_555 1_555
C43_7 C41_7 1_555 1_555
C44_7 C42_7 1_555 1_555
H43_7 C44_7 1_555 1_555
C46_7 C43_7 1_555 1_555
O13_7 Al3_3 1_555 1_555
C47_7 O13_7 1_555 1_555
C48_7 C47_7 1_555 1_555
C49_7 C48_7 1_555 1_555
H48_7 C49_7 1_555 1_555
C50_7 C48_7 1_555 1_555
H49_7 C50_7 1_555 1_555
C51_7 C49_7 1_555 1_555
C52_7 C50_7 1_555 1_555
H50_7 C52_7 1_555 1_555
C53_5 C51_7 1_555 1_555
H51_5 C53_5 1_555 1_555
H52_5 C53_5 1_555 1_555
H53_5 C53_5 1_555 1_555
C54_7 C51_7 1_555 1_555
H54_5 C54_7 1_555 1_555
Co4_7 N2_7 1_555 1_555
O17_7 Al3_3 1_555 1_555
O18_7 Co3_3 1_555 1_555
O20_7 Co3_3 1_555 1_555
N3_7 Co3_3 1_555 1_555
N2_7 C13_7 1_555 1_555
N2_7 C14_7 1_555 1_555
O6_7 Co5_3 1_555 1_555
C20_7 C22_7 1_555 1_555
O9_7 Al4_3 1_555 1_555
C36_7 C38_7 1_555 1_555
O20_3 C39_7 1_555 1_555
C44_7 C46_7 1_555 1_555
O19_3 C47_7 1_555 1_555
C52_7 C54_7 1_555 1_555
C2_8 N3_2 1_555 1_555
H1_8 C2_8 1_555 1_555
H2_8 C2_8 1_555 1_555
C10_8 N3_2 1_555 1_555
H10_8 C10_8 1_555 1_555
H11_8 C10_8 1_555 1_555
C11_8 N3_2 1_555 1_555
H12_8 C11_8 1_555 1_555
H13_8 C11_8 1_555 1_555
N2_8 C12_8 1_555 1_555
C12_8 C2_8 1_555 1_555
H14_8 C12_8 1_555 1_555
H15_8 C12_8 1_555 1_555
C13_8 C10_8 1_555 1_555
H16_8 C13_8 1_555 1_555
H17_8 C13_8 1_555 1_555
C14_8 C11_8 1_555 1_555
H18_8 C14_8 1_555 1_555
H19_8 C14_8 1_555 1_555
O5_8 Al3_2 1_555 1_555
O6_8 C15_8 1_555 1_555
C15_8 O5_8 1_555 1_555
C16_8 C15_8 1_555 1_555
C17_8 C16_8 1_555 1_555
H20_8 C17_8 1_555 1_555
C18_8 C16_8 1_555 1_555
H21_8 C18_8 1_555 1_555
C19_8 C17_8 1_555 1_555
C20_8 C18_8 1_555 1_555
H22_8 C20_8 1_555 1_555
C21_5 C19_8 1_555 1_555
H23_5 C21_5 1_555 1_555
H24_5 C21_5 1_555 1_555
H25_5 C21_5 1_555 1_555
C22_8 C19_8 1_555 1_555
H26_5 C22_8 1_555 1_555
O9_8 C31_8 1_555 1_555
C31_8 O18_2 1_555 1_555
C32_8 C31_8 1_555 1_555
C33_8 C32_8 1_555 1_555
H34_8 C33_8 1_555 1_555
C34_8 C32_8 1_555 1_555
H35_8 C34_8 1_555 1_555
C35_8 C33_8 1_555 1_555
C36_8 C34_8 1_555 1_555
H36_8 C36_8 1_555 1_555
C37_4 C35_8 1_555 1_555
H37_4 C37_4 1_555 1_555
H38_4 C37_4 1_555 1_555
H39_4 C37_4 1_555 1_555
C38_8 C35_8 1_555 1_555
H40_4 C38_8 1_555 1_555
C39_8 O17_2 1_555 1_555
C40_8 C39_8 1_555 1_555
C41_8 C40_8 1_555 1_555
H41_8 C41_8 1_555 1_555
C42_8 C40_8 1_555 1_555
H42_8 C42_8 1_555 1_555
C43_8 C41_8 1_555 1_555
C44_8 C42_8 1_555 1_555
H43_8 C44_8 1_555 1_555
C46_8 C43_8 1_555 1_555
O13_8 Al3_2 1_555 1_555
C47_8 O13_8 1_555 1_555
C48_8 C47_8 1_555 1_555
C49_8 C48_8 1_555 1_555
H48_8 C49_8 1_555 1_555
C50_8 C48_8 1_555 1_555
H49_8 C50_8 1_555 1_555
C51_8 C49_8 1_555 1_555
C52_8 C50_8 1_555 1_555
H50_8 C52_8 1_555 1_555
C54_8 C51_8 1_555 1_555
Co4_8 N2_8 1_555 1_555
O17_8 Al3_2 1_555 1_555
O18_8 Co3_2 1_555 1_555
O20_8 Co3_2 1_555 1_555
N3_8 Co3_2 1_555 1_555
N2_8 C13_8 1_555 1_555
N2_8 C14_8 1_555 1_555
O6_8 Co5_2 1_555 1_555
C20_8 C22_8 1_555 1_555
O9_8 Al4_2 1_555 1_555
C36_8 C38_8 1_555 1_555
O20_2 C39_8 1_555 1_555
C44_8 C46_8 1_555 1_555
O19_2 C47_8 1_555 1_555
C52_8 C54_8 1_555 1_555
C2_9 N3_8 1_555 1_555
H1_9 C2_9 1_555 1_555
H2_9 C2_9 1_555 1_555
C10_9 N3_8 1_555 1_555
H10_9 C10_9 1_555 1_555
H11_9 C10_9 1_555 1_555
C11_9 N3_8 1_555 1_555
H12_9 C11_9 1_555 1_555
H13_9 C11_9 1_555 1_555
N2_9 C12_9 1_555 1_555
C12_9 C2_9 1_555 1_555
H14_9 C12_9 1_555 1_555
H15_9 C12_9 1_555 1_555
C13_9 C10_9 1_555 1_555
H16_9 C13_9 1_555 1_555
H17_9 C13_9 1_555 1_555
C14_9 C11_9 1_555 1_555
H18_9 C14_9 1_555 1_555
H19_9 C14_9 1_555 1_555
O9_9 C31_9 1_555 1_555
C31_9 O18_8 1_555 1_555
C32_9 C31_9 1_555 1_555
C33_9 C32_9 1_555 1_555
H34_9 C33_9 1_555 1_555
C34_9 C32_9 1_555 1_555
H35_9 C34_9 1_555 1_555
C35_9 C33_9 1_555 1_555
C36_9 C34_9 1_555 1_555
H36_9 C36_9 1_555 1_555
C37_5 C35_9 1_555 1_555
H37_5 C37_5 1_555 1_555
H38_5 C37_5 1_555 1_555
H39_5 C37_5 1_555 1_555
C38_9 C35_9 1_555 1_555
H40_5 C38_9 1_555 1_555
C39_9 O17_8 1_555 1_555
C40_9 C39_9 1_555 1_555
C41_9 C40_9 1_555 1_555
H41_9 C41_9 1_555 1_555
C42_9 C40_9 1_555 1_555
H42_9 C42_9 1_555 1_555
C43_9 C41_9 1_555 1_555
C44_9 C42_9 1_555 1_555
H43_9 C44_9 1_555 1_555
C45_5 C43_9 1_555 1_555
H44_5 C45_5 1_555 1_555
H45_5 C45_5 1_555 1_555
H46_5 C45_5 1_555 1_555
C46_9 C43_9 1_555 1_555
H47_5 C46_9 1_555 1_555
Co4_9 N2_9 1_555 1_555
N2_9 C13_9 1_555 1_555
N2_9 C14_9 1_555 1_555
O9_9 Al4_2 1_555 1_555
C36_9 C38_9 1_555 1_555
O20_8 C39_9 1_555 1_555
C44_9 C46_9 1_555 1_555
C2_10 N3_5 1_555 1_555
H1_10 C2_10 1_555 1_555
H2_10 C2_10 1_555 1_555
C10_10 N3_5 1_555 1_555
H10_10 C10_10 1_555 1_555
H11_10 C10_10 1_555 1_555
C11_10 N3_5 1_555 1_555
H12_10 C11_10 1_555 1_555
H13_10 C11_10 1_555 1_555
N2_10 C12_10 1_555 1_555
C12_10 C2_10 1_555 1_555
H14_10 C12_10 1_555 1_555
H15_10 C12_10 1_555 1_555
C13_10 C10_10 1_555 1_555
H16_10 C13_10 1_555 1_555
H17_10 C13_10 1_555 1_555
C14_10 C11_10 1_555 1_555
H18_10 C14_10 1_555 1_555
H19_10 C14_10 1_555 1_555
O9_10 C31_10 1_555 1_555
C31_10 O18_5 1_555 1_555
C32_10 C31_10 1_555 1_555
C33_10 C32_10 1_555 1_555
H34_10 C33_10 1_555 1_555
C34_10 C32_10 1_555 1_555
H35_10 C34_10 1_555 1_555
C35_10 C33_10 1_555 1_555
C36_10 C34_10 1_555 1_555
H36_10 C36_10 1_555 1_555
C38_10 C35_10 1_555 1_555
C39_10 O17_5 1_555 1_555
C40_10 C39_10 1_555 1_555
C41_10 C40_10 1_555 1_555
H41_10 C41_10 1_555 1_555
C42_10 C40_10 1_555 1_555
H42_10 C42_10 1_555 1_555
C43_10 C41_10 1_555 1_555
C44_10 C42_10 1_555 1_555
H43_10 C44_10 1_555 1_555
C45_6 C43_10 1_555 1_555
H44_6 C45_6 1_555 1_555
H45_6 C45_6 1_555 1_555
H46_6 C45_6 1_555 1_555
C46_10 C43_10 1_555 1_555
H47_6 C46_10 1_555 1_555
Co4_10 N2_10 1_555 1_555
N2_10 C13_10 1_555 1_555
N2_10 C14_10 1_555 1_555
O9_10 Al4_4 1_555 1_555
C36_10 C38_10 1_555 1_555
O20_5 C39_10 1_555 1_555
C44_10 C46_10 1_555 1_555
C2_11 N3_7 1_555 1_555
H1_11 C2_11 1_555 1_555
H2_11 C2_11 1_555 1_555
C10_11 N3_7 1_555 1_555
H10_11 C10_11 1_555 1_555
H11_11 C10_11 1_555 1_555
C11_11 N3_7 1_555 1_555
H12_11 C11_11 1_555 1_555
H13_11 C11_11 1_555 1_555
N2_11 C12_11 1_555 1_555
C12_11 C2_11 1_555 1_555
H14_11 C12_11 1_555 1_555
H15_11 C12_11 1_555 1_555
C13_11 C10_11 1_555 1_555
H16_11 C13_11 1_555 1_555
H17_11 C13_11 1_555 1_555
C14_11 C11_11 1_555 1_555
H18_11 C14_11 1_555 1_555
H19_11 C14_11 1_555 1_555
O9_11 C31_11 1_555 1_555
C31_11 O18_7 1_555 1_555
C32_11 C31_11 1_555 1_555
C33_11 C32_11 1_555 1_555
H34_11 C33_11 1_555 1_555
C34_11 C32_11 1_555 1_555
H35_11 C34_11 1_555 1_555
C35_11 C33_11 1_555 1_555
C36_11 C34_11 1_555 1_555
H36_11 C36_11 1_555 1_555
C38_11 C35_11 1_555 1_555
C39_11 O17_7 1_555 1_555
C40_11 C39_11 1_555 1_555
C41_11 C40_11 1_555 1_555
H41_11 C41_11 1_555 1_555
C42_11 C40_11 1_555 1_555
H42_11 C42_11 1_555 1_555
C43_11 C41_11 1_555 1_555
C44_11 C42_11 1_555 1_555
H43_11 C44_11 1_555 1_555
C46_11 C43_11 1_555 1_555
Co4_11 N2_11 1_555 1_555
N2_11 C13_11 1_555 1_555
N2_11 C14_11 1_555 1_555
O9_11 Al4_3 1_555 1_555
C36_11 C38_11 1_555 1_555
O20_7 C39_11 1_555 1_555
C44_11 C46_11 1_555 1_555
C2_12 N3_6 1_555 1_555
H1_12 C2_12 1_555 1_555
H2_12 C2_12 1_555 1_555
C10_12 N3_6 1_555 1_555
H10_12 C10_12 1_555 1_555
H11_12 C10_12 1_555 1_555
C11_12 N3_6 1_555 1_555
H12_12 C11_12 1_555 1_555
H13_12 C11_12 1_555 1_555
N2_12 C12_12 1_555 1_555
C12_12 C2_12 1_555 1_555
H14_12 C12_12 1_555 1_555
H15_12 C12_12 1_555 1_555
C13_12 C10_12 1_555 1_555
H16_12 C13_12 1_555 1_555
H17_12 C13_12 1_555 1_555
C14_12 C11_12 1_555 1_555
H18_12 C14_12 1_555 1_555
H19_12 C14_12 1_555 1_555
O9_12 C31_12 1_555 1_555
C31_12 O18_6 1_555 1_555
C32_12 C31_12 1_555 1_555
C33_12 C32_12 1_555 1_555
H34_12 C33_12 1_555 1_555
C34_12 C32_12 1_555 1_555
H35_12 C34_12 1_555 1_555
C35_12 C33_12 1_555 1_555
C36_12 C34_12 1_555 1_555
H36_12 C36_12 1_555 1_555
C37_6 C35_12 1_555 1_555
H37_6 C37_6 1_555 1_555
H38_6 C37_6 1_555 1_555
H39_6 C37_6 1_555 1_555
C38_12 C35_12 1_555 1_555
H40_6 C38_12 1_555 1_555
C39_12 O17_6 1_555 1_555
C40_12 C39_12 1_555 1_555
C41_12 C40_12 1_555 1_555
H41_12 C41_12 1_555 1_555
C42_12 C40_12 1_555 1_555
H42_12 C42_12 1_555 1_555
C43_12 C41_12 1_555 1_555
C44_12 C42_12 1_555 1_555
H43_12 C44_12 1_555 1_555
C46_12 C43_12 1_555 1_555
Co4_12 N2_12 1_555 1_555
N2_12 C13_12 1_555 1_555
N2_12 C14_12 1_555 1_555
O9_12 Al4 1_555 1_555
C36_12 C38_12 1_555 1_555
O20_6 C39_12 1_555 1_555
C44_12 C46_12 1_555 1_555
Co4_8 O4_5 1_555 1_555
Al2_5 O4_5 1_555 1_555
O5_9 Al2_5 1_555 1_555
C15_9 O5_9 1_555 1_555
C16_9 C15_9 1_555 1_555
C17_9 C16_9 1_555 1_555
C18_9 C16_9 1_555 1_555
H21_9 C18_9 1_555 1_555
C19_9 C17_9 1_555 1_555
C20_9 C18_9 1_555 1_555
H22_9 C20_9 1_555 1_555
C22_9 C19_9 1_555 1_555
H26_6 C22_9 1_555 1_555
O13_9 Al2_5 1_555 1_555
C47_9 O13_9 1_555 1_555
C48_9 C47_9 1_555 1_555
C49_9 C48_9 1_555 1_555
C50_9 C48_9 1_555 1_555
H49_9 C50_9 1_555 1_555
C51_9 C49_9 1_555 1_555
C52_9 C50_9 1_555 1_555
H50_9 C52_9 1_555 1_555
C54_9 C51_9 1_555 1_555
H54_6 C54_9 1_555 1_555
O17_9 Al2_5 1_555 1_555
O18_9 Co4_8 1_555 1_555
O19_5 Co4_8 1_555 1_555
O20_9 Co4_8 1_555 1_555
C20_9 C22_9 1_555 1_555
C52_9 C54_9 1_555 1_555
Co4_10 O1_5 1_555 1_555
O9_13 C31_13 1_555 1_555
O10_5 Co4_10 1_555 1_555
C31_13 O10_5 1_555 1_555
C32_13 C31_13 1_555 1_555
C33_13 C32_13 1_555 1_555
H34_13 C33_13 1_555 1_555
C34_13 C32_13 1_555 1_555
H35_13 C34_13 1_555 1_555
C35_13 C33_13 1_555 1_555
C36_13 C34_13 1_555 1_555
H36_13 C36_13 1_555 1_555
C37_7 C35_13 1_555 1_555
H37_7 C37_7 1_555 1_555
H38_7 C37_7 1_555 1_555
H39_7 C37_7 1_555 1_555
C38_13 C35_13 1_555 1_555
H40_7 C38_13 1_555 1_555
O12_5 Co4_10 1_555 1_555
H44_7 C45_7 1_555 1_555
H45_7 C45_7 1_555 1_555
H46_7 C45_7 1_555 1_555
O14_5 Co4_10 1_555 1_555
H51_6 C53_6 1_555 1_555
H52_6 C53_6 1_555 1_555
H53_6 C53_6 1_555 1_555
Al4_5 O1_5 1_555 1_555
O9_13 Al4_5 1_555 1_555
C36_13 C38_13 1_555 1_555
H6_3 C8_3 1_555 1_555
H7_3 C8_3 1_555 1_555
H8_3 C8_3 1_555 1_555
H23_6 C21_6 1_555 1_555
H24_6 C21_6 1_555 1_555
H25_6 C21_6 1_555 1_555
Co5_5 O3_5 1_555 1_555
O6_9 Co5_5 1_555 1_555
Co5_5 O16_5 1_555 1_555
Al3_5 O16_5 1_555 1_555
O2_5 Al1_5 1_555 1_555
C1_5 O2_5 1_555 1_555
C3_5 C1_5 1_555 1_555
C4_5 C3_5 1_555 1_555
C5_5 C3_5 1_555 1_555
H4_5 C5_5 1_555 1_555
C6_5 C4_5 1_555 1_555
C7_5 C5_5 1_555 1_555
H5_5 C7_5 1_555 1_555
C9_5 C6_5 1_555 1_555
H9_3 C9_5 1_555 1_555
O7_5 Al1_5 1_555 1_555
O8_5 C23_5 1_555 1_555
C23_5 O7_5 1_555 1_555
C24_5 C23_5 1_555 1_555
C25_5 C24_5 1_555 1_555
H27_5 C25_5 1_555 1_555
C26_5 C24_5 1_555 1_555
H28_5 C26_5 1_555 1_555
C27_5 C25_5 1_555 1_555
C28_5 C26_5 1_555 1_555
H29_5 C28_5 1_555 1_555
C29_3 C27_5 1_555 1_555
H30_3 C29_3 1_555 1_555
H31_3 C29_3 1_555 1_555
H32_3 C29_3 1_555 1_555
C30_5 C27_5 1_555 1_555
H33_3 C30_5 1_555 1_555
O11_5 Al1_5 1_555 1_555
C39_13 O11_5 1_555 1_555
C40_13 C39_13 1_555 1_555
C41_13 C40_13 1_555 1_555
C42_13 C40_13 1_555 1_555
H42_13 C42_13 1_555 1_555
C43_13 C41_13 1_555 1_555
C44_13 C42_13 1_555 1_555
H43_13 C44_13 1_555 1_555
C46_13 C43_13 1_555 1_555
H47_7 C46_13 1_555 1_555
Co4_3 O8_5 1_555 1_555
O15_5 Al1_5 1_555 1_555
C7_5 C9_5 1_555 1_555
C28_5 C30_5 1_555 1_555
C44_13 C46_13 1_555 1_555
Co4_3 O15_5 1_555 1_555
H30_4 C29_4 1_555 1_555
H31_4 C29_4 1_555 1_555
H32_4 C29_4 1_555 1_555
Co4_4 O8_6 1_555 1_555
Al3_6 O15_6 1_555 1_555
Co4_4 O15_6 1_555 1_555
O2_6 Al1_6 1_555 1_555
O3_6 C1_6 1_555 1_555
C1_6 O2_6 1_555 1_555
C3_6 C1_6 1_555 1_555
C4_6 C3_6 1_555 1_555
H3_6 C4_6 1_555 1_555
C5_6 C3_6 1_555 1_555
H4_6 C5_6 1_555 1_555
C6_6 C4_6 1_555 1_555
C7_6 C5_6 1_555 1_555
H5_6 C7_6 1_555 1_555
C8_4 C6_6 1_555 1_555
H6_4 C8_4 1_555 1_555
H7_4 C8_4 1_555 1_555
H8_4 C8_4 1_555 1_555
C9_6 C6_6 1_555 1_555
H9_4 C9_6 1_555 1_555
H23_7 C21_7 1_555 1_555
H24_7 C21_7 1_555 1_555
H25_7 C21_7 1_555 1_555
O7_6 Al1_6 1_555 1_555
C23_6 O7_6 1_555 1_555
C24_6 C23_6 1_555 1_555
C25_6 C24_6 1_555 1_555
C26_6 C24_6 1_555 1_555
H28_6 C26_6 1_555 1_555
C27_6 C25_6 1_555 1_555
C28_6 C26_6 1_555 1_555
H29_6 C28_6 1_555 1_555
C30_6 C27_6 1_555 1_555
H33_4 C30_6 1_555 1_555
O11_6 Al1_6 1_555 1_555
C39_14 O11_6 1_555 1_555
C40_14 C39_14 1_555 1_555
C41_14 C40_14 1_555 1_555
C42_14 C40_14 1_555 1_555
H42_14 C42_14 1_555 1_555
C43_14 C41_14 1_555 1_555
C44_14 C42_14 1_555 1_555
H43_14 C44_14 1_555 1_555
C46_14 C43_14 1_555 1_555
H47_8 C46_14 1_555 1_555
Co5_6 O3_6 1_555 1_555
O16_6 Al1_6 1_555 1_555
C7_6 C9_6 1_555 1_555
O6_10 Co5_6 1_555 1_555
C28_6 C30_6 1_555 1_555
C44_14 C46_14 1_555 1_555
Co5_6 O16_6 1_555 1_555
Co4_6 O4_6 1_555 1_555
O9_14 C31_14 1_555 1_555
C32_14 C31_14 1_555 1_555
C33_14 C32_14 1_555 1_555
C34_14 C32_14 1_555 1_555
H35_14 C34_14 1_555 1_555
C35_14 C33_14 1_555 1_555
C36_14 C34_14 1_555 1_555
H36_14 C36_14 1_555 1_555
C38_14 C35_14 1_555 1_555
H40_8 C38_14 1_555 1_555
O18_10 Co4_6 1_555 1_555
O19_6 Co4_6 1_555 1_555
O20_10 Co4_6 1_555 1_555
O4_6 Al4_6 1_555 1_555
O9_14 Al4_6 1_555 1_555
C36_14 C38_14 1_555 1_555
Co4_11 O1_6 1_555 1_555
O1_6 Al2_6 1_555 1_555
O5_10 Al2_6 1_555 1_555
C15_10 O5_10 1_555 1_555
C16_10 C15_10 1_555 1_555
C17_10 C16_10 1_555 1_555
C18_10 C16_10 1_555 1_555
H21_10 C18_10 1_555 1_555
C19_10 C17_10 1_555 1_555
C20_10 C18_10 1_555 1_555
H22_10 C20_10 1_555 1_555
C22_10 C19_10 1_555 1_555
H26_7 C22_10 1_555 1_555
O10_6 Co4_11 1_555 1_555
H37_8 C37_8 1_555 1_555
H38_8 C37_8 1_555 1_555
H39_8 C37_8 1_555 1_555
O12_6 Co4_11 1_555 1_555
H44_8 C45_8 1_555 1_555
H45_8 C45_8 1_555 1_555
H46_8 C45_8 1_555 1_555
O13_10 Al2_6 1_555 1_555
O14_6 Co4_11 1_555 1_555
C47_10 O13_10 1_555 1_555
C48_10 C47_10 1_555 1_555
C49_10 C48_10 1_555 1_555
H48_10 C49_10 1_555 1_555
C50_10 C48_10 1_555 1_555
H49_10 C50_10 1_555 1_555
C51_10 C49_10 1_555 1_555
C52_10 C50_10 1_555 1_555
H50_10 C52_10 1_555 1_555
C53_7 C51_10 1_555 1_555
H51_7 C53_7 1_555 1_555
H52_7 C53_7 1_555 1_555
H53_7 C53_7 1_555 1_555
C54_10 C51_10 1_555 1_555
H54_7 C54_10 1_555 1_555
O17_10 Al2_6 1_555 1_555
C20_10 C22_10 1_555 1_555
O14_6 C47_10 1_555 1_555
C52_10 C54_10 1_555 1_555
Co4_12 O1_7 1_555 1_555
Al1_7 O1_7 1_555 1_555
O2_7 Al1_7 1_555 1_555
C1_7 O2_7 1_555 1_555
C3_7 C1_7 1_555 1_555
C4_7 C3_7 1_555 1_555
C5_7 C3_7 1_555 1_555
H4_7 C5_7 1_555 1_555
C6_7 C4_7 1_555 1_555
C7_7 C5_7 1_555 1_555
H5_7 C7_7 1_555 1_555
C9_7 C6_7 1_555 1_555
H9_5 C9_7 1_555 1_555
O7_7 Al1_7 1_555 1_555
C23_7 O7_7 1_555 1_555
C24_7 C23_7 1_555 1_555
C25_7 C24_7 1_555 1_555
C26_7 C24_7 1_555 1_555
H28_7 C26_7 1_555 1_555
C27_7 C25_7 1_555 1_555
C28_7 C26_7 1_555 1_555
H29_7 C28_7 1_555 1_555
C30_7 C27_7 1_555 1_555
H33_5 C30_7 1_555 1_555
O10_7 Co4_12 1_555 1_555
H37_9 C37_9 1_555 1_555
H38_9 C37_9 1_555 1_555
H39_9 C37_9 1_555 1_555
O11_7 Al1_7 1_555 1_555
O12_7 Co4_12 1_555 1_555
C39_15 O11_7 1_555 1_555
C40_15 C39_15 1_555 1_555
C41_15 C40_15 1_555 1_555
H41_15 C41_15 1_555 1_555
C42_15 C40_15 1_555 1_555
H42_15 C42_15 1_555 1_555
C43_15 C41_15 1_555 1_555
C44_15 C42_15 1_555 1_555
H43_15 C44_15 1_555 1_555
C45_9 C43_15 1_555 1_555
H44_9 C45_9 1_555 1_555
H45_9 C45_9 1_555 1_555
H46_9 C45_9 1_555 1_555
C46_15 C43_15 1_555 1_555
H47_9 C46_15 1_555 1_555
O14_7 Co4_12 1_555 1_555
H51_8 C53_8 1_555 1_555
H52_8 C53_8 1_555 1_555
H53_8 C53_8 1_555 1_555
C7_7 C9_7 1_555 1_555
C28_7 C30_7 1_555 1_555
O12_7 C39_15 1_555 1_555
C44_15 C46_15 1_555 1_555
H30_5 C29_5 1_555 1_555
H31_5 C29_5 1_555 1_555
H32_5 C29_5 1_555 1_555
O9_15 C31_15 1_555 1_555
C32_15 C31_15 1_555 1_555
C33_15 C32_15 1_555 1_555
C34_15 C32_15 1_555 1_555
H35_15 C34_15 1_555 1_555
C35_15 C33_15 1_555 1_555
C36_15 C34_15 1_555 1_555
H36_15 C36_15 1_555 1_555
C38_15 C35_15 1_555 1_555
H40_9 C38_15 1_555 1_555
Co4_2 O8_7 1_555 1_555
O9_15 Al4_7 1_555 1_555
C36_15 C38_15 1_555 1_555
Co4_2 O15_7 1_555 1_555
Al4_7 O15_7 1_555 1_555
H6_5 C8_5 1_555 1_555
H7_5 C8_5 1_555 1_555
H8_5 C8_5 1_555 1_555
O5_11 Al2_7 1_555 1_555
O6_11 C15_11 1_555 1_555
C15_11 O5_11 1_555 1_555
C16_11 C15_11 1_555 1_555
C17_11 C16_11 1_555 1_555
H20_11 C17_11 1_555 1_555
C18_11 C16_11 1_555 1_555
H21_11 C18_11 1_555 1_555
C19_11 C17_11 1_555 1_555
C20_11 C18_11 1_555 1_555
H22_11 C20_11 1_555 1_555
C21_8 C19_11 1_555 1_555
H23_8 C21_8 1_555 1_555
H24_8 C21_8 1_555 1_555
H25_8 C21_8 1_555 1_555
C22_11 C19_11 1_555 1_555
H26_8 C22_11 1_555 1_555
O13_11 Al2_7 1_555 1_555
C47_11 O13_11 1_555 1_555
C48_11 C47_11 1_555 1_555
C49_11 C48_11 1_555 1_555
C50_11 C48_11 1_555 1_555
H49_11 C50_11 1_555 1_555
C51_11 C49_11 1_555 1_555
C52_11 C50_11 1_555 1_555
H50_11 C52_11 1_555 1_555
C54_11 C51_11 1_555 1_555
H54_8 C54_11 1_555 1_555
Co5_7 O3_7 1_555 1_555
O17_11 Al2_7 1_555 1_555
Al2_7 O16_7 1_555 1_555
O6_11 Co5_7 1_555 1_555
C20_11 C22_11 1_555 1_555
C52_11 C54_11 1_555 1_555
Co5_7 O16_7 1_555 1_555
Co4_7 O4_7 1_555 1_555
O4_7 Al3_7 1_555 1_555
O18_11 Co4_7 1_555 1_555
O19_7 Co4_7 1_555 1_555
O20_11 Co4_7 1_555 1_555
Co4_9 O1_8 1_555 1_555
Al1_8 O1_8 1_555 1_555
O1_8 Al2_8 1_555 1_555
O2_8 Al1_8 1_555 1_555
O3_8 C1_8 1_555 1_555
C1_8 O2_8 1_555 1_555
C3_8 C1_8 1_555 1_555
C4_8 C3_8 1_555 1_555
H3_8 C4_8 1_555 1_555
C5_8 C3_8 1_555 1_555
H4_8 C5_8 1_555 1_555
C6_8 C4_8 1_555 1_555
C7_8 C5_8 1_555 1_555
H5_8 C7_8 1_555 1_555
C8_6 C6_8 1_555 1_555
H6_6 C8_6 1_555 1_555
H7_6 C8_6 1_555 1_555
H8_6 C8_6 1_555 1_555
C9_8 C6_8 1_555 1_555
H9_6 C9_8 1_555 1_555
Co4_5 O4_8 1_555 1_555
Al2_8 O4_8 1_555 1_555
O4_8 Al3_8 1_555 1_555
O5_12 Al2_8 1_555 1_555
O6_12 C15_12 1_555 1_555
C15_12 O5_12 1_555 1_555
C16_12 C15_12 1_555 1_555
C17_12 C16_12 1_555 1_555
H20_12 C17_12 1_555 1_555
C18_12 C16_12 1_555 1_555
H21_12 C18_12 1_555 1_555
C19_12 C17_12 1_555 1_555
C20_12 C18_12 1_555 1_555
H22_12 C20_12 1_555 1_555
C21_9 C19_12 1_555 1_555
H23_9 C21_9 1_555 1_555
H24_9 C21_9 1_555 1_555
H25_9 C21_9 1_555 1_555
C22_12 C19_12 1_555 1_555
H26_9 C22_12 1_555 1_555
O7_8 Al1_8 1_555 1_555
O8_8 C23_8 1_555 1_555
C23_8 O7_8 1_555 1_555
C24_8 C23_8 1_555 1_555
C25_8 C24_8 1_555 1_555
H27_8 C25_8 1_555 1_555
C26_8 C24_8 1_555 1_555
H28_8 C26_8 1_555 1_555
C27_8 C25_8 1_555 1_555
C28_8 C26_8 1_555 1_555
H29_8 C28_8 1_555 1_555
C29_6 C27_8 1_555 1_555
H30_6 C29_6 1_555 1_555
H31_6 C29_6 1_555 1_555
H32_6 C29_6 1_555 1_555
C30_8 C27_8 1_555 1_555
H33_6 C30_8 1_555 1_555
O9_16 C31_16 1_555 1_555
O10_8 Co4_9 1_555 1_555
C31_16 O10_8 1_555 1_555
C32_16 C31_16 1_555 1_555
C33_16 C32_16 1_555 1_555
H34_16 C33_16 1_555 1_555
C34_16 C32_16 1_555 1_555
H35_16 C34_16 1_555 1_555
C35_16 C33_16 1_555 1_555
C36_16 C34_16 1_555 1_555
H36_16 C36_16 1_555 1_555
C37_10 C35_16 1_555 1_555
H37_10 C37_10 1_555 1_555
H38_10 C37_10 1_555 1_555
H39_10 C37_10 1_555 1_555
C38_16 C35_16 1_555 1_555
H40_10 C38_16 1_555 1_555
O11_8 Al1_8 1_555 1_555
O12_8 Co4_9 1_555 1_555
C39_16 O11_8 1_555 1_555
C40_16 C39_16 1_555 1_555
C41_16 C40_16 1_555 1_555
H41_16 C41_16 1_555 1_555
C42_16 C40_16 1_555 1_555
H42_16 C42_16 1_555 1_555
C43_16 C41_16 1_555 1_555
C44_16 C42_16 1_555 1_555
H43_16 C44_16 1_555 1_555
C45_10 C43_16 1_555 1_555
H44_10 C45_10 1_555 1_555
H45_10 C45_10 1_555 1_555
H46_10 C45_10 1_555 1_555
C46_16 C43_16 1_555 1_555
H47_10 C46_16 1_555 1_555
O13_12 Al2_8 1_555 1_555
O14_8 Co4_9 1_555 1_555
C47_12 O13_12 1_555 1_555
C48_12 C47_12 1_555 1_555
C49_12 C48_12 1_555 1_555
H48_12 C49_12 1_555 1_555
C50_12 C48_12 1_555 1_555
H49_12 C50_12 1_555 1_555
C51_12 C49_12 1_555 1_555
C52_12 C50_12 1_555 1_555
H50_12 C52_12 1_555 1_555
C53_9 C51_12 1_555 1_555
H51_9 C53_9 1_555 1_555
H52_9 C53_9 1_555 1_555
H53_9 C53_9 1_555 1_555
C54_12 C51_12 1_555 1_555
H54_9 C54_12 1_555 1_555
Co4 O8_8 1_555 1_555
Co5_8 O3_8 1_555 1_555
Al3_8 O15_8 1_555 1_555
Al4_8 O1_8 1_555 1_555
O15_8 Al1_8 1_555 1_555
O16_8 Al1_8 1_555 1_555
O17_12 Al2_8 1_555 1_555
O18_12 Co4_5 1_555 1_555
O19_8 Co4_5 1_555 1_555
O20_12 Co4_5 1_555 1_555
C7_8 C9_8 1_555 1_555
Al2_8 O16_8 1_555 1_555
O4_8 Al4_8 1_555 1_555
O6_12 Co5_8 1_555 1_555
C20_12 C22_12 1_555 1_555
C28_8 C30_8 1_555 1_555
O9_16 Al4_8 1_555 1_555
C36_16 C38_16 1_555 1_555
O12_8 C39_16 1_555 1_555
C44_16 C46_16 1_555 1_555
O14_8 C47_12 1_555 1_555
C52_12 C54_12 1_555 1_555
Co4 O15_8 1_555 1_555
Co5_8 O16_8 1_555 1_555
Al3_8 O16_8 1_555 1_555
Al4_8 O15_8 1_555 1_555
O5_13 Al3_8 1_555 1_555
O6_13 C15_13 1_555 1_555
C15_13 O5_13 1_555 1_555
C16_13 C15_13 1_555 1_555
C17_13 C16_13 1_555 1_555
H20_13 C17_13 1_555 1_555
C18_13 C16_13 1_555 1_555
H21_13 C18_13 1_555 1_555
C19_13 C17_13 1_555 1_555
C20_13 C18_13 1_555 1_555
H22_13 C20_13 1_555 1_555
C21_10 C19_13 1_555 1_555
H23_10 C21_10 1_555 1_555
H24_10 C21_10 1_555 1_555
H25_10 C21_10 1_555 1_555
C22_13 C19_13 1_555 1_555
H26_10 C22_13 1_555 1_555
O9_17 C31_17 1_555 1_555
C31_17 O18_12 1_555 1_555
C32_17 C31_17 1_555 1_555
C33_17 C32_17 1_555 1_555
H34_17 C33_17 1_555 1_555
C34_17 C32_17 1_555 1_555
H35_17 C34_17 1_555 1_555
C35_17 C33_17 1_555 1_555
C36_17 C34_17 1_555 1_555
H36_17 C36_17 1_555 1_555
C37_11 C35_17 1_555 1_555
H37_11 C37_11 1_555 1_555
H38_11 C37_11 1_555 1_555
H39_11 C37_11 1_555 1_555
C38_17 C35_17 1_555 1_555
H40_11 C38_17 1_555 1_555
C39_17 O17_12 1_555 1_555
C40_17 C39_17 1_555 1_555
C41_17 C40_17 1_555 1_555
H41_17 C41_17 1_555 1_555
C42_17 C40_17 1_555 1_555
H42_17 C42_17 1_555 1_555
C43_17 C41_17 1_555 1_555
C44_17 C42_17 1_555 1_555
H43_17 C44_17 1_555 1_555
C45_11 C43_17 1_555 1_555
H44_11 C45_11 1_555 1_555
H45_11 C45_11 1_555 1_555
H46_11 C45_11 1_555 1_555
C46_17 C43_17 1_555 1_555
H47_11 C46_17 1_555 1_555
O13_13 Al3_8 1_555 1_555
C47_13 O13_13 1_555 1_555
C48_13 C47_13 1_555 1_555
C49_13 C48_13 1_555 1_555
H48_13 C49_13 1_555 1_555
C50_13 C48_13 1_555 1_555
H49_13 C50_13 1_555 1_555
C51_13 C49_13 1_555 1_555
C52_13 C50_13 1_555 1_555
H50_13 C52_13 1_555 1_555
C53_10 C51_13 1_555 1_555
H51_10 C53_10 1_555 1_555
H52_10 C53_10 1_555 1_555
H53_10 C53_10 1_555 1_555
C54_13 C51_13 1_555 1_555
H54_10 C54_13 1_555 1_555
O17_13 Al3_8 1_555 1_555
O18_13 Co4 1_555 1_555
O20_13 Co4 1_555 1_555
O6_13 Co5_8 1_555 1_555
C20_13 C22_13 1_555 1_555
O9_17 Al4_8 1_555 1_555
C36_17 C38_17 1_555 1_555
O20_12 C39_17 1_555 1_555
C44_17 C46_17 1_555 1_555
O19_8 C47_13 1_555 1_555
C52_13 C54_13 1_555 1_555
H37_12 C37_12 1_555 1_555
H38_12 C37_12 1_555 1_555
H39_12 C37_12 1_555 1_555
C39_18 O17_9 1_555 1_555
C40_18 C39_18 1_555 1_555
C41_18 C40_18 1_555 1_555
H41_18 C41_18 1_555 1_555
C42_18 C40_18 1_555 1_555
H42_18 C42_18 1_555 1_555
C43_18 C41_18 1_555 1_555
C44_18 C42_18 1_555 1_555
H43_18 C44_18 1_555 1_555
C45_12 C43_18 1_555 1_555
H44_12 C45_12 1_555 1_555
H45_12 C45_12 1_555 1_555
H46_12 C45_12 1_555 1_555
C46_18 C43_18 1_555 1_555
H47_12 C46_18 1_555 1_555
H51_11 C53_11 1_555 1_555
H52_11 C53_11 1_555 1_555
H53_11 C53_11 1_555 1_555
O20_9 C39_18 1_555 1_555
C44_18 C46_18 1_555 1_555
O9_18 C31_18 1_555 1_555
C32_18 C31_18 1_555 1_555
C33_18 C32_18 1_555 1_555
C34_18 C32_18 1_555 1_555
H35_18 C34_18 1_555 1_555
C35_18 C33_18 1_555 1_555
C36_18 C34_18 1_555 1_555
H36_18 C36_18 1_555 1_555
C38_18 C35_18 1_555 1_555
H40_12 C38_18 1_555 1_555
O9_18 Al4_5 1_555 1_555
C36_18 C38_18 1_555 1_555
O5_14 Al3_5 1_555 1_555
O6_14 C15_14 1_555 1_555
C15_14 O5_14 1_555 1_555
C16_14 C15_14 1_555 1_555
C17_14 C16_14 1_555 1_555
H20_14 C17_14 1_555 1_555
C18_14 C16_14 1_555 1_555
H21_14 C18_14 1_555 1_555
C19_14 C17_14 1_555 1_555
C20_14 C18_14 1_555 1_555
H22_14 C20_14 1_555 1_555
C21_11 C19_14 1_555 1_555
H23_11 C21_11 1_555 1_555
H24_11 C21_11 1_555 1_555
H25_11 C21_11 1_555 1_555
C22_14 C19_14 1_555 1_555
H26_11 C22_14 1_555 1_555
O13_14 Al3_5 1_555 1_555
C47_14 O13_14 1_555 1_555
C48_14 C47_14 1_555 1_555
C49_14 C48_14 1_555 1_555
C50_14 C48_14 1_555 1_555
H49_14 C50_14 1_555 1_555
C51_14 C49_14 1_555 1_555
C52_14 C50_14 1_555 1_555
H50_14 C52_14 1_555 1_555
C54_14 C51_14 1_555 1_555
H54_11 C54_14 1_555 1_555
O17_14 Al3_5 1_555 1_555
O6_14 Co5_5 1_555 1_555
C20_14 C22_14 1_555 1_555
C52_14 C54_14 1_555 1_555
O18_14 Co4_3 1_555 1_555
O20_14 Co4_3 1_555 1_555
O9_19 C31_19 1_555 1_555
C32_19 C31_19 1_555 1_555
C33_19 C32_19 1_555 1_555
C34_19 C32_19 1_555 1_555
H35_19 C34_19 1_555 1_555
C35_19 C33_19 1_555 1_555
C36_19 C34_19 1_555 1_555
H36_19 C36_19 1_555 1_555
C38_19 C35_19 1_555 1_555
H40_13 C38_19 1_555 1_555
O18_15 Co4_2 1_555 1_555
O20_15 Co4_2 1_555 1_555
O9_19 Al4_7 1_555 1_555
C36_19 C38_19 1_555 1_555
H23_12 C21_12 1_555 1_555
H24_12 C21_12 1_555 1_555
H25_12 C21_12 1_555 1_555
C39_19 O17_11 1_555 1_555
C40_19 C39_19 1_555 1_555
C41_19 C40_19 1_555 1_555
C42_19 C40_19 1_555 1_555
H42_19 C42_19 1_555 1_555
C43_19 C41_19 1_555 1_555
C44_19 C42_19 1_555 1_555
H43_19 C44_19 1_555 1_555
C46_19 C43_19 1_555 1_555
H47_13 C46_19 1_555 1_555
O6_15 Co5_7 1_555 1_555
C44_19 C46_19 1_555 1_555
O5_15 Al3_7 1_555 1_555
C15_15 O5_15 1_555 1_555
C16_15 C15_15 1_555 1_555
C17_15 C16_15 1_555 1_555
C18_15 C16_15 1_555 1_555
H21_15 C18_15 1_555 1_555
C19_15 C17_15 1_555 1_555
C20_15 C18_15 1_555 1_555
H22_15 C20_15 1_555 1_555
C22_15 C19_15 1_555 1_555
H26_12 C22_15 1_555 1_555
H37_13 C37_13 1_555 1_555
H38_13 C37_13 1_555 1_555
H39_13 C37_13 1_555 1_555
H44_13 C45_13 1_555 1_555
H45_13 C45_13 1_555 1_555
H46_13 C45_13 1_555 1_555
O13_15 Al3_7 1_555 1_555
C47_15 O13_15 1_555 1_555
C48_15 C47_15 1_555 1_555
C49_15 C48_15 1_555 1_555
H48_15 C49_15 1_555 1_555
C50_15 C48_15 1_555 1_555
H49_15 C50_15 1_555 1_555
C51_15 C49_15 1_555 1_555
C52_15 C50_15 1_555 1_555
H50_15 C52_15 1_555 1_555
C53_12 C51_15 1_555 1_555
H51_12 C53_12 1_555 1_555
H52_12 C53_12 1_555 1_555
H53_12 C53_12 1_555 1_555
C54_15 C51_15 1_555 1_555
H54_12 C54_15 1_555 1_555
O17_15 Al3_7 1_555 1_555
C20_15 C22_15 1_555 1_555
O19_7 C47_15 1_555 1_555
C52_15 C54_15 1_555 1_555
O5_16 Al3_6 1_555 1_555
C15_16 O5_16 1_555 1_555
C16_16 C15_16 1_555 1_555
C17_16 C16_16 1_555 1_555
C18_16 C16_16 1_555 1_555
H21_16 C18_16 1_555 1_555
C19_16 C17_16 1_555 1_555
C20_16 C18_16 1_555 1_555
H22_16 C20_16 1_555 1_555
C22_16 C19_16 1_555 1_555
H26_13 C22_16 1_555 1_555
O13_16 Al3_6 1_555 1_555
C47_16 O13_16 1_555 1_555
C48_16 C47_16 1_555 1_555
C49_16 C48_16 1_555 1_555
C50_16 C48_16 1_555 1_555
H49_16 C50_16 1_555 1_555
C51_16 C49_16 1_555 1_555
C52_16 C50_16 1_555 1_555
H50_16 C52_16 1_555 1_555
C54_16 C51_16 1_555 1_555
H54_13 C54_16 1_555 1_555
O17_16 Al3_6 1_555 1_555
O18_16 Co4_4 1_555 1_555
O20_16 Co4_4 1_555 1_555
C20_16 C22_16 1_555 1_555
C52_16 C54_16 1_555 1_555
H23_13 C21_13 1_555 1_555
H24_13 C21_13 1_555 1_555
H25_13 C21_13 1_555 1_555
O6_16 Co5_6 1_555 1_555
O9_20 C31_20 1_555 1_555
C31_20 O18_10 1_555 1_555
C32_20 C31_20 1_555 1_555
C33_20 C32_20 1_555 1_555
H34_20 C33_20 1_555 1_555
C34_20 C32_20 1_555 1_555
H35_20 C34_20 1_555 1_555
C35_20 C33_20 1_555 1_555
C36_20 C34_20 1_555 1_555
H36_20 C36_20 1_555 1_555
C37_14 C35_20 1_555 1_555
H37_14 C37_14 1_555 1_555
H38_14 C37_14 1_555 1_555
H39_14 C37_14 1_555 1_555
C38_20 C35_20 1_555 1_555
H40_14 C38_20 1_555 1_555
H44_14 C45_14 1_555 1_555
H45_14 C45_14 1_555 1_555
H46_14 C45_14 1_555 1_555
H51_13 C53_13 1_555 1_555
H52_13 C53_13 1_555 1_555
H53_13 C53_13 1_555 1_555
O9_20 Al4_6 1_555 1_555
C36_20 C38_20 1_555 1_555
C39_20 O17_10 1_555 1_555
C40_20 C39_20 1_555 1_555
C41_20 C40_20 1_555 1_555
C42_20 C40_20 1_555 1_555
H42_20 C42_20 1_555 1_555
C43_20 C41_20 1_555 1_555
C44_20 C42_20 1_555 1_555
H43_20 C44_20 1_555 1_555
C46_20 C43_20 1_555 1_555
H47_14 C46_20 1_555 1_555
C44_20 C46_20 1_555 1_555
H37_15 C37_15 1_555 1_555
H38_15 C37_15 1_555 1_555
H39_15 C37_15 1_555 1_555
C39_21 O17_16 1_555 1_555
C40_21 C39_21 1_555 1_555
C41_21 C40_21 1_555 1_555
H41_21 C41_21 1_555 1_555
C42_21 C40_21 1_555 1_555
H42_21 C42_21 1_555 1_555
C43_21 C41_21 1_555 1_555
C44_21 C42_21 1_555 1_555
H43_21 C44_21 1_555 1_555
C45_15 C43_21 1_555 1_555
H44_15 C45_15 1_555 1_555
H45_15 C45_15 1_555 1_555
H46_15 C45_15 1_555 1_555
C46_21 C43_21 1_555 1_555
H47_15 C46_21 1_555 1_555
O20_16 C39_21 1_555 1_555
C44_21 C46_21 1_555 1_555
O9_21 C31_21 1_555 1_555
C32_21 C31_21 1_555 1_555
C33_21 C32_21 1_555 1_555
C34_21 C32_21 1_555 1_555
H35_21 C34_21 1_555 1_555
C35_21 C33_21 1_555 1_555
C36_21 C34_21 1_555 1_555
H36_21 C36_21 1_555 1_555
C38_21 C35_21 1_555 1_555
H40_15 C38_21 1_555 1_555
O9_21 Al4_6 1_555 1_555
C36_21 C38_21 1_555 1_555
O9_22 C31_22 1_555 1_555
C31_22 O18_13 1_555 1_555
C32_22 C31_22 1_555 1_555
C33_22 C32_22 1_555 1_555
H34_22 C33_22 1_555 1_555
C34_22 C32_22 1_555 1_555
H35_22 C34_22 1_555 1_555
C35_22 C33_22 1_555 1_555
C36_22 C34_22 1_555 1_555
H36_22 C36_22 1_555 1_555
C37_16 C35_22 1_555 1_555
H37_16 C37_16 1_555 1_555
H38_16 C37_16 1_555 1_555
H39_16 C37_16 1_555 1_555
C38_22 C35_22 1_555 1_555
H40_16 C38_22 1_555 1_555
C39_22 O17_13 1_555 1_555
C40_22 C39_22 1_555 1_555
C41_22 C40_22 1_555 1_555
H41_22 C41_22 1_555 1_555
C42_22 C40_22 1_555 1_555
H42_22 C42_22 1_555 1_555
C43_22 C41_22 1_555 1_555
C44_22 C42_22 1_555 1_555
H43_22 C44_22 1_555 1_555
C45_16 C43_22 1_555 1_555
H44_16 C45_16 1_555 1_555
H45_16 C45_16 1_555 1_555
H46_16 C45_16 1_555 1_555
C46_22 C43_22 1_555 1_555
H47_16 C46_22 1_555 1_555
O9_22 Al4_8 1_555 1_555
C36_22 C38_22 1_555 1_555
O20_13 C39_22 1_555 1_555
C44_22 C46_22 1_555 1_555
O9_23 C31_23 1_555 1_555
C31_23 O18_15 1_555 1_555
C32_23 C31_23 1_555 1_555
C33_23 C32_23 1_555 1_555
H34_23 C33_23 1_555 1_555
C34_23 C32_23 1_555 1_555
H35_23 C34_23 1_555 1_555
C35_23 C33_23 1_555 1_555
C36_23 C34_23 1_555 1_555
H36_23 C36_23 1_555 1_555
C37_17 C35_23 1_555 1_555
H37_17 C37_17 1_555 1_555
H38_17 C37_17 1_555 1_555
H39_17 C37_17 1_555 1_555
C38_23 C35_23 1_555 1_555
H40_17 C38_23 1_555 1_555
H44_17 C45_17 1_555 1_555
H45_17 C45_17 1_555 1_555
H46_17 C45_17 1_555 1_555
O9_23 Al4_7 1_555 1_555
C36_23 C38_23 1_555 1_555
C39_23 O17_15 1_555 1_555
C40_23 C39_23 1_555 1_555
C41_23 C40_23 1_555 1_555
C42_23 C40_23 1_555 1_555
H42_23 C42_23 1_555 1_555
C43_23 C41_23 1_555 1_555
C44_23 C42_23 1_555 1_555
H43_23 C44_23 1_555 1_555
C46_23 C43_23 1_555 1_555
H47_17 C46_23 1_555 1_555
C44_23 C46_23 1_555 1_555
O9_24 C31_24 1_555 1_555
C32_24 C31_24 1_555 1_555
C33_24 C32_24 1_555 1_555
C34_24 C32_24 1_555 1_555
H35_24 C34_24 1_555 1_555
C35_24 C33_24 1_555 1_555
C36_24 C34_24 1_555 1_555
H36_24 C36_24 1_555 1_555
C38_24 C35_24 1_555 1_555
H40_18 C38_24 1_555 1_555
O9_24 Al4_5 1_555 1_555
C36_24 C38_24 1_555 1_555
C39_24 O17_14 1_555 1_555
C40_24 C39_24 1_555 1_555
C41_24 C40_24 1_555 1_555
C42_24 C40_24 1_555 1_555
H42_24 C42_24 1_555 1_555
C43_24 C41_24 1_555 1_555
C44_24 C42_24 1_555 1_555
H43_24 C44_24 1_555 1_555
C46_24 C43_24 1_555 1_555
H47_18 C46_24 1_555 1_555
C44_24 C46_24 1_555 1_555
H37_18 C37_18 1_555 1_555
H38_18 C37_18 1_555 1_555
H39_18 C37_18 1_555 1_555
H44_18 C45_18 1_555 1_555
H45_18 C45_18 1_555 1_555
H46_18 C45_18 1_555 1_555
N3_9 Co5_2 1_555 1_555
N3_10 Co5_3 1_555 1_555
N3_11 Co5 1_555 1_555
N3_12 Co5_4 1_555 1_555
C2_13 N3_12 1_555 1_555
H1_13 C2_13 1_555 1_555
H2_13 C2_13 1_555 1_555
C10_13 N3_12 1_555 1_555
H10_13 C10_13 1_555 1_555
H11_13 C10_13 1_555 1_555
C11_13 N3_12 1_555 1_555
H12_13 C11_13 1_555 1_555
H13_13 C11_13 1_555 1_555
N2_13 C12_13 1_555 1_555
C12_13 C2_13 1_555 1_555
H14_13 C12_13 1_555 1_555
H15_13 C12_13 1_555 1_555
C13_13 C10_13 1_555 1_555
H16_13 C13_13 1_555 1_555
H17_13 C13_13 1_555 1_555
C14_13 C11_13 1_555 1_555
H18_13 C14_13 1_555 1_555
H19_13 C14_13 1_555 1_555
Co5_7 N2_13 1_555 1_555
N2_13 C13_13 1_555 1_555
N2_13 C14_13 1_555 1_555
C2_14 N3_9 1_555 1_555
H1_14 C2_14 1_555 1_555
H2_14 C2_14 1_555 1_555
C10_14 N3_9 1_555 1_555
H10_14 C10_14 1_555 1_555
H11_14 C10_14 1_555 1_555
C11_14 N3_9 1_555 1_555
H12_14 C11_14 1_555 1_555
H13_14 C11_14 1_555 1_555
N2_14 C12_14 1_555 1_555
C12_14 C2_14 1_555 1_555
H14_14 C12_14 1_555 1_555
H15_14 C12_14 1_555 1_555
C13_14 C10_14 1_555 1_555
H16_14 C13_14 1_555 1_555
H17_14 C13_14 1_555 1_555
C14_14 C11_14 1_555 1_555
H18_14 C14_14 1_555 1_555
H19_14 C14_14 1_555 1_555
Co5_6 N2_14 1_555 1_555
N2_14 C13_14 1_555 1_555
N2_14 C14_14 1_555 1_555
C2_15 N3_11 1_555 1_555
H1_15 C2_15 1_555 1_555
H2_15 C2_15 1_555 1_555
C10_15 N3_11 1_555 1_555
H10_15 C10_15 1_555 1_555
H11_15 C10_15 1_555 1_555
C11_15 N3_11 1_555 1_555
H12_15 C11_15 1_555 1_555
H13_15 C11_15 1_555 1_555
N2_15 C12_15 1_555 1_555
C12_15 C2_15 1_555 1_555
H14_15 C12_15 1_555 1_555
H15_15 C12_15 1_555 1_555
C13_15 C10_15 1_555 1_555
H16_15 C13_15 1_555 1_555
H17_15 C13_15 1_555 1_555
C14_15 C11_15 1_555 1_555
H18_15 C14_15 1_555 1_555
H19_15 C14_15 1_555 1_555
Co5_5 N2_15 1_555 1_555
N2_15 C13_15 1_555 1_555
N2_15 C14_15 1_555 1_555
C2_16 N3_10 1_555 1_555
H1_16 C2_16 1_555 1_555
H2_16 C2_16 1_555 1_555
C10_16 N3_10 1_555 1_555
H10_16 C10_16 1_555 1_555
H11_16 C10_16 1_555 1_555
C11_16 N3_10 1_555 1_555
H12_16 C11_16 1_555 1_555
H13_16 C11_16 1_555 1_555
N2_16 C12_16 1_555 1_555
C12_16 C2_16 1_555 1_555
H14_16 C12_16 1_555 1_555
H15_16 C12_16 1_555 1_555
C13_16 C10_16 1_555 1_555
H16_16 C13_16 1_555 1_555
H17_16 C13_16 1_555 1_555
C14_16 C11_16 1_555 1_555
H18_16 C14_16 1_555 1_555
H19_16 C14_16 1_555 1_555
Co5_8 N2_16 1_555 1_555
N2_16 C13_16 1_555 1_555
N2_16 C14_16 1_555 1_555
H30_7 C29_7 1_555 1_555
H31_7 C29_7 1_555 1_555
H32_7 C29_7 1_555 1_555
H23_14 C21_14 1_555 1_555
H24_14 C21_14 1_555 1_555
H25_14 C21_14 1_555 1_555
H6_7 C8_7 1_555 1_555
H7_7 C8_7 1_555 1_555
H8_7 C8_7 1_555 1_555
H51_14 C53_14 1_555 1_555
H52_14 C53_14 1_555 1_555
H53_14 C53_14 1_555 1_555
H37_19 C37_19 1_555 1_555
H38_19 C37_19 1_555 1_555
H39_19 C37_19 1_555 1_555
H44_19 C45_19 1_555 1_555
H45_19 C45_19 1_555 1_555
H46_19 C45_19 1_555 1_555
H23_15 C21_15 1_555 1_555
H24_15 C21_15 1_555 1_555
H25_15 C21_15 1_555 1_555
H51_15 C53_15 1_555 1_555
H52_15 C53_15 1_555 1_555
H53_15 C53_15 1_555 1_555
H44_20 C45_20 1_555 1_555
H45_20 C45_20 1_555 1_555
H46_20 C45_20 1_555 1_555
H37_20 C37_20 1_555 1_555
H38_20 C37_20 1_555 1_555
H39_20 C37_20 1_555 1_555
H37_21 C37_21 1_555 1_555
H38_21 C37_21 1_555 1_555
H39_21 C37_21 1_555 1_555
H44_21 C45_21 1_555 1_555
H45_21 C45_21 1_555 1_555
H46_21 C45_21 1_555 1_555
H30_8 C29_8 1_555 1_555
H31_8 C29_8 1_555 1_555
H32_8 C29_8 1_555 1_555
H23_16 C21_16 1_555 1_555
H24_16 C21_16 1_555 1_555
H25_16 C21_16 1_555 1_555
H6_8 C8_8 1_555 1_555
H7_8 C8_8 1_555 1_555
H8_8 C8_8 1_555 1_555
H51_16 C53_16 1_555 1_555
H52_16 C53_16 1_555 1_555
H53_16 C53_16 1_555 1_555
H44_22 C45_22 1_555 1_555
H45_22 C45_22 1_555 1_555
H46_22 C45_22 1_555 1_555
H37_22 C37_22 1_555 1_555
H38_22 C37_22 1_555 1_555
H39_22 C37_22 1_555 1_555
H37_23 C37_23 1_555 1_555
H38_23 C37_23 1_555 1_555
H39_23 C37_23 1_555 1_555
H44_23 C45_23 1_555 1_555
H45_23 C45_23 1_555 1_555
H46_23 C45_23 1_555 1_555
H37_24 C37_24 1_555 1_555
H38_24 C37_24 1_555 1_555
H39_24 C37_24 1_555 1_555
H44_24 C45_24 1_555 1_555
H45_24 C45_24 1_555 1_555
H46_24 C45_24 1_555 1_555

#END
