
###############################################################################
#
# This file contains modified crystal structure data generated from the
# MOF subset of the Cambridge Structural Database (CSD) v543 
# hosted by the Cambridge Crystallographic Data Centre (CCDC).
#
# This work is licensed under the Creative Commons
# Attribution-NonCommercial-ShareAlike 4.0 International License.
# To view a copy of this license, visit
# http://creativecommons.org/licenses/by-nc-sa/4.0/
# or send a letter to
# Creative Commons, PO Box 1866, Mountain View, CA 94042, USA.
#
# CIF created using the CSD Python API on 29 September 2022
# The structure has been converted into the P1 space group
# The structure has a 3D framework
# The original CSD entry NECGOV is in the cubic crystal system
# The original CSD entry NECGOV is in a Sohncke space group
# The framework has been calculated to contain at least 10.0% void space
# The void calculation uses a probe of radius 1.32A, grid spacing 0.4
#
###############################################################################

data_NECGOV
_chemical_formula_moiety         '(C768 H672 Al32 Cd32 N32 O180)n'
_symmetry_cell_setting           triclinic
_symmetry_space_group_name_H-M   'P 1'
_symmetry_Int_Tables_number      1
_space_group_name_Hall           'P 1'
loop_
_symmetry_equiv_pos_site_id
_symmetry_equiv_pos_as_xyz
1 x,y,z
_cell_length_a                   32.8932(3)
_cell_length_b                   32.8932(3)
_cell_length_c                   32.8932(3)
_cell_angle_alpha                90
_cell_angle_beta                 90
_cell_angle_gamma                90
_cell_volume                     35589.2
loop_
_atom_site_label
_atom_site_type_symbol
_atom_site_fract_x
_atom_site_fract_y
_atom_site_fract_z
H38 H 0.0062 0.7007 0.7369
H42 H 0.0082 0.7176 0.6645
Cd1 Cd 0.68673(2) 0.68673(2) 0.68673(2)
Al1 Al 0.78053(5) 0.71947(5) 0.71947(5)
O1 O 0.72314(11) 0.72314(11) 0.72314(11)
O2 O 0.77880(14) 0.71557(14) 0.66182(13)
O3 O 0.81688(17) 0.76704(15) 0.63465(15)
N1 N 0.64742(15) 0.64742(15) 0.64742(15)
C1 C 0.7965(2) 0.7344(2) 0.6333(2)
C2 C 0.7918(3) 0.7158(3) 0.5912(2)
C3 C 0.7967(5) 0.7211(5) 0.5170(4)
H1 H 0.7993 0.7369 0.4938
C4 C 0.6368(3) 0.6101(2) 0.6685(2)
H2 H 0.6202 0.6164 0.6921
H3 H 0.6613 0.5967 0.6779
C5 C 0.8063(4) 0.7354(4) 0.5570(3)
H4 H 0.8226 0.7583 0.5600
C6 C 0.7733(3) 0.6782(3) 0.5875(3)
H5 H 0.7638 0.6657 0.6110
C7 C 0.7680(4) 0.6578(5) 0.5498(3)
H6 H 0.7559 0.6323 0.5480
C8 C 0.7820(5) 0.6783(5) 0.5165(5)
H7 H 0.7824 0.6645 0.4918
C9 C 0.6685(2) 0.6368(3) 0.6101(2)
H8 H 0.6921 0.6202 0.6164
H9 H 0.6779 0.6613 0.5967
C10 C 0.6101(2) 0.6685(2) 0.6368(3)
H10 H 0.6164 0.6921 0.6202
H11 H 0.5967 0.6779 0.6613
N2 N 0.60258(15) 0.60258(15) 0.60258(15)
C11 C 0.6399(2) 0.6132(3) 0.5815(2)
H12 H 0.6336 0.6298 0.5579
H13 H 0.6533 0.5887 0.5721
C12 C 0.6132(3) 0.5815(2) 0.6399(2)
H14 H 0.6298 0.5579 0.6336
H15 H 0.5887 0.5721 0.6533
C13 C 0.5815(2) 0.6399(2) 0.6132(3)
H16 H 0.5579 0.6336 0.6298
H17 H 0.5721 0.6533 0.5887
Al2 Al 0.71947(5) 0.78053(5) 0.71947(5)
O4 O 0.66182(13) 0.77880(14) 0.71557(14)
O5 O 0.63465(15) 0.81688(17) 0.76704(15)
C14 C 0.6333(2) 0.7965(2) 0.7344(2)
C15 C 0.5912(2) 0.7918(3) 0.7158(3)
C16 C 0.5170(4) 0.7967(5) 0.7211(5)
H18 H 0.4938 0.7993 0.7369
C17 C 0.5570(3) 0.8063(4) 0.7354(4)
H19 H 0.5600 0.8226 0.7583
C18 C 0.5875(3) 0.7733(3) 0.6782(3)
H20 H 0.6110 0.7638 0.6657
C19 C 0.5498(3) 0.7680(4) 0.6578(5)
H21 H 0.5480 0.7559 0.6323
C20 C 0.5165(5) 0.7820(5) 0.6783(5)
H22 H 0.4918 0.7824 0.6645
Cd2 Cd 0.56327(2) 0.56327(2) 0.56327(2)
O6 O 0.52686(11) 0.52686(11) 0.52686(11)
O7 O 0.78443(14) 0.66182(13) 0.72120(14)
O8 O 0.73296(15) 0.63465(15) 0.68312(17)
C21 C 0.7656(2) 0.6333(2) 0.7035(2)
C22 C 0.7842(3) 0.5912(2) 0.7082(3)
C23 C 0.7789(5) 0.5170(4) 0.7033(5)
H23 H 0.7631 0.4938 0.7007
C24 C 0.7646(4) 0.5570(3) 0.6937(4)
H24 H 0.7417 0.5600 0.6774
C25 C 0.8218(3) 0.5875(3) 0.7267(3)
H25 H 0.8343 0.6110 0.7362
C26 C 0.8422(5) 0.5498(3) 0.7320(4)
H26 H 0.8677 0.5480 0.7441
C27 C 0.8217(5) 0.5165(5) 0.7180(5)
H27 H 0.8355 0.4918 0.7176
O9 O 0.72120(14) 0.78443(14) 0.66182(13)
O10 O 0.68312(17) 0.73296(15) 0.63465(15)
C28 C 0.7035(2) 0.7656(2) 0.6333(2)
C29 C 0.7082(3) 0.7842(3) 0.5912(2)
C30 C 0.7033(5) 0.7789(5) 0.5170(4)
H28 H 0.7007 0.7631 0.4938
C31 C 0.6937(4) 0.7646(4) 0.5570(3)
H29 H 0.6774 0.7417 0.5600
C32 C 0.7267(3) 0.8218(3) 0.5875(3)
H30 H 0.7362 0.8343 0.6110
C33 C 0.7320(4) 0.8422(5) 0.5498(3)
H31 H 0.7441 0.8677 0.5480
C34 C 0.7180(5) 0.8217(5) 0.5165(5)
H32 H 0.7176 0.8355 0.4918
O11 O 0.66182(13) 0.72120(14) 0.78443(14)
O12 O 0.63465(15) 0.68312(17) 0.73296(15)
C35 C 0.6333(2) 0.7035(2) 0.7656(2)
C36 C 0.5912(2) 0.7082(3) 0.7842(3)
C37 C 0.5170(4) 0.7033(5) 0.7789(5)
H33 H 0.4938 0.7007 0.7631
C38 C 0.5570(3) 0.6937(4) 0.7646(4)
H34 H 0.5600 0.6774 0.7417
C39 C 0.5875(3) 0.7267(3) 0.8218(3)
H35 H 0.6110 0.7362 0.8343
C40 C 0.5498(3) 0.7320(4) 0.8422(5)
H36 H 0.5480 0.7441 0.8677
C41 C 0.5165(5) 0.7180(5) 0.8217(5)
H37 H 0.4918 0.7176 0.8355
O13 O 0.83818(13) 0.72120(14) 0.71557(14)
O14 O 0.86535(15) 0.68312(17) 0.76704(15)
C42 C 0.8667(2) 0.7035(2) 0.7344(2)
C43 C 0.9088(2) 0.7082(3) 0.7158(3)
C44 C 0.9830(4) 0.7033(5) 0.7211(5)
C45 C 0.9430(3) 0.6937(4) 0.7354(4)
H39 H 0.9400 0.6774 0.7583
C46 C 0.9125(3) 0.7267(3) 0.6782(3)
H40 H 0.8890 0.7362 0.6657
C47 C 0.9502(3) 0.7320(4) 0.6578(5)
H41 H 0.9520 0.7441 0.6323
C48 C 0.9835(5) 0.7180(5) 0.6783(5)
Cd3 Cd 0.81327(2) 0.68673(2) 0.81327(2)
Cd4 Cd 0.81327(2) 0.81327(2) 0.68673(2)
Cd5 Cd 0.68673(2) 0.81327(2) 0.81327(2)
Al3 Al 0.71947(5) 0.71947(5) 0.78053(5)
Al4 Al 0.53053(5) 0.46947(5) 0.53053(5)
Al5 Al 0.46947(5) 0.53053(5) 0.53053(5)
Al6 Al 0.53053(5) 0.53053(5) 0.46947(5)
O15 O 0.77686(11) 0.72314(11) 0.77686(11)
O16 O 0.77686(11) 0.77686(11) 0.72314(11)
O17 O 0.72314(11) 0.77686(11) 0.77686(11)
O18 O 0.71557(14) 0.83818(13) 0.72120(14)
O19 O 0.51704(15) 0.56688(17) 0.61535(15)
O20 O 0.61535(15) 0.51704(15) 0.56688(17)
O21 O 0.56688(17) 0.61535(15) 0.51704(15)
H23_2 H 0.2369 0.0062 0.2007
H27_2 H 0.1645 0.0082 0.2176
Al4_2 Al 0.46947(5) 0.03053(5) 0.03053(5)
Cd1_2 Cd 0.31327(2) 0.81327(2) 0.18673(2)
Al1_2 Al 0.21947(5) 0.78053(5) 0.21947(5)
O1_2 O 0.27686(11) 0.77686(11) 0.22314(11)
O2_2 O 0.22120(14) 0.78443(14) 0.16182(13)
O3_2 O 0.18312(17) 0.73296(15) 0.13465(15)
N1_2 N 0.35258(15) 0.85258(15) 0.14742(15)
C1_2 C 0.2035(2) 0.7656(2) 0.1333(2)
C2_2 C 0.2082(3) 0.7842(3) 0.0912(2)
C3_2 C 0.2033(5) 0.7789(5) 0.0170(4)
C4_2 C 0.3632(3) 0.8899(2) 0.1685(2)
H2_2 H 0.3798 0.8836 0.1921
H3_2 H 0.3387 0.9033 0.1779
C5_2 C 0.1937(4) 0.7646(4) 0.0570(3)
H4_2 H 0.1774 0.7417 0.0600
C6_2 C 0.2267(3) 0.8218(3) 0.0875(3)
H5_2 H 0.2362 0.8343 0.1110
C7_2 C 0.2320(4) 0.8422(5) 0.0498(3)
H6_2 H 0.2441 0.8677 0.0480
C8_2 C 0.2180(5) 0.8217(5) 0.0165(5)
C9_2 C 0.3315(2) 0.8632(3) 0.1101(2)
H8_2 H 0.3079 0.8798 0.1164
H9_2 H 0.3221 0.8387 0.0967
C10_2 C 0.3899(2) 0.8315(2) 0.1368(3)
H10_2 H 0.3836 0.8079 0.1202
H11_2 H 0.4033 0.8221 0.1613
N2_2 N 0.39742(15) 0.89742(15) 0.10258(15)
C11_2 C 0.3601(2) 0.8868(3) 0.0815(2)
H12_2 H 0.3664 0.8702 0.0579
H13_2 H 0.3467 0.9113 0.0721
C12_2 C 0.3868(3) 0.9185(2) 0.1399(2)
H14_2 H 0.3702 0.9421 0.1336
H15_2 H 0.4113 0.9279 0.1533
C13_2 C 0.4185(2) 0.8601(2) 0.1132(3)
H16_2 H 0.4421 0.8664 0.1298
H17_2 H 0.4279 0.8467 0.0887
Al2_2 Al 0.28053(5) 0.71947(5) 0.21947(5)
O4_2 O 0.33818(13) 0.72120(14) 0.21557(14)
O5_2 O 0.36535(15) 0.68312(17) 0.26704(15)
C14_2 C 0.3667(2) 0.7035(2) 0.2344(2)
C15_2 C 0.4088(2) 0.7082(3) 0.2158(3)
C16_2 C 0.4830(4) 0.7033(5) 0.2211(5)
H18_2 H 0.5062 0.7007 0.2369
C17_2 C 0.4430(3) 0.6937(4) 0.2354(4)
H19_2 H 0.4400 0.6774 0.2583
C18_2 C 0.4125(3) 0.7267(3) 0.1782(3)
H20_2 H 0.3890 0.7362 0.1657
C19_2 C 0.4502(3) 0.7320(4) 0.1578(5)
H21_2 H 0.4520 0.7441 0.1323
C20_2 C 0.4835(5) 0.7180(5) 0.1783(5)
H22_2 H 0.5082 0.7176 0.1645
Cd2_2 Cd 0.43673(2) 0.93673(2) 0.06327(2)
O6_2 O 0.47314(11) 0.97314(11) 0.02686(11)
O7_2 O 0.21557(14) 0.83818(13) 0.22120(14)
O8_2 O 0.26704(15) 0.86535(15) 0.18312(17)
C21_2 C 0.2344(2) 0.8667(2) 0.2035(2)
C22_2 C 0.2158(3) 0.9088(2) 0.2082(3)
C23_2 C 0.2211(5) 0.9830(4) 0.2033(5)
C24_2 C 0.2354(4) 0.9430(3) 0.1937(4)
H24_2 H 0.2583 0.9400 0.1774
C25_2 C 0.1782(3) 0.9125(3) 0.2267(3)
H25_2 H 0.1657 0.8890 0.2362
C26_2 C 0.1578(5) 0.9502(3) 0.2320(4)
H26_2 H 0.1323 0.9520 0.2441
C27_2 C 0.1783(5) 0.9835(5) 0.2180(5)
O9_2 O 0.27880(14) 0.71557(14) 0.16182(13)
O10_2 O 0.31688(17) 0.76704(15) 0.13465(15)
C28_2 C 0.2965(2) 0.7344(2) 0.1333(2)
C29_2 C 0.2918(3) 0.7158(3) 0.0912(2)
C30_2 C 0.2967(5) 0.7211(5) 0.0170(4)
C31_2 C 0.3063(4) 0.7354(4) 0.0570(3)
H29_2 H 0.3226 0.7583 0.0600
C32_2 C 0.2733(3) 0.6782(3) 0.0875(3)
H30_2 H 0.2638 0.6657 0.1110
C33_2 C 0.2680(4) 0.6578(5) 0.0498(3)
H31_2 H 0.2559 0.6323 0.0480
C34_2 C 0.2820(5) 0.6783(5) 0.0165(5)
O11_2 O 0.33818(13) 0.77880(14) 0.28443(14)
O12_2 O 0.36535(15) 0.81688(17) 0.23296(15)
C35_2 C 0.3667(2) 0.7965(2) 0.2656(2)
C36_2 C 0.4088(2) 0.7918(3) 0.2842(3)
C37_2 C 0.4830(4) 0.7967(5) 0.2789(5)
H33_2 H 0.5062 0.7993 0.2631
C38_2 C 0.4430(3) 0.8063(4) 0.2646(4)
H34_2 H 0.4400 0.8226 0.2417
C39_2 C 0.4125(3) 0.7733(3) 0.3218(3)
H35_2 H 0.3890 0.7638 0.3343
C40_2 C 0.4502(3) 0.7680(4) 0.3422(5)
H36_2 H 0.4520 0.7559 0.3677
C41_2 C 0.4835(5) 0.7820(5) 0.3217(5)
H37_2 H 0.5082 0.7824 0.3355
O13_2 O 0.16182(13) 0.77880(14) 0.21557(14)
O14_2 O 0.13465(15) 0.81688(17) 0.26704(15)
C42_2 C 0.1333(2) 0.7965(2) 0.2344(2)
C43_2 C 0.0912(2) 0.7918(3) 0.2158(3)
C44_2 C 0.0170(4) 0.7967(5) 0.2211(5)
C45_2 C 0.0570(3) 0.8063(4) 0.2354(4)
H39_2 H 0.0600 0.8226 0.2583
C46_2 C 0.0875(3) 0.7733(3) 0.1782(3)
H40_2 H 0.1110 0.7638 0.1657
C47_2 C 0.0498(3) 0.7680(4) 0.1578(5)
H41_2 H 0.0480 0.7559 0.1323
C48_2 C 0.0165(5) 0.7820(5) 0.1783(5)
Cd3_2 Cd 0.18673(2) 0.81327(2) 0.31327(2)
Cd4_2 Cd 0.18673(2) 0.68673(2) 0.18673(2)
Cd5_2 Cd 0.31327(2) 0.68673(2) 0.31327(2)
Al3_2 Al 0.28053(5) 0.78053(5) 0.28053(5)
Al5_2 Al 0.53053(5) 0.96947(5) 0.03053(5)
O15_2 O 0.22314(11) 0.77686(11) 0.27686(11)
O16_2 O 0.22314(11) 0.72314(11) 0.22314(11)
O17_2 O 0.27686(11) 0.72314(11) 0.27686(11)
O18_2 O 0.28443(14) 0.66182(13) 0.22120(14)
O19_2 O 0.48296(15) 0.93312(17) 0.11535(15)
O20_2 O 0.38465(15) 0.98296(15) 0.06688(17)
O21_2 O 0.43312(17) 0.88465(15) 0.01704(15)
H1_2 H 0.2007 0.7631 0.9938
H7_2 H 0.2176 0.8355 0.9918
H28_2 H 0.2993 0.7369 0.9938
H32_2 H 0.2824 0.6645 0.9918
Al6_2 Al 0.46947(5) 0.96947(5) 0.96947(5)
H38_2 H 0.9938 0.7993 0.2369
H42_2 H 0.9918 0.7824 0.1645
H18_3 H 0.0062 0.2993 0.2631
H22_3 H 0.0082 0.2824 0.3355
H33_3 H 0.0062 0.2007 0.2369
H37_3 H 0.0082 0.2176 0.1645
Al5_3 Al 0.03053(5) 0.03053(5) 0.46947(5)
Cd1_3 Cd 0.81327(2) 0.18673(2) 0.31327(2)
Al1_3 Al 0.71947(5) 0.21947(5) 0.28053(5)
O1_3 O 0.77686(11) 0.22314(11) 0.27686(11)
O2_3 O 0.72120(14) 0.21557(14) 0.33818(13)
O3_3 O 0.68312(17) 0.26704(15) 0.36535(15)
N1_3 N 0.85258(15) 0.14742(15) 0.35258(15)
C1_3 C 0.7035(2) 0.2344(2) 0.3667(2)
C2_3 C 0.7082(3) 0.2158(3) 0.4088(2)
C3_3 C 0.7033(5) 0.2211(5) 0.4830(4)
H1_3 H 0.7007 0.2369 0.5062
C4_3 C 0.8632(3) 0.1101(2) 0.3315(2)
H2_3 H 0.8798 0.1164 0.3079
H3_3 H 0.8387 0.0967 0.3221
C5_3 C 0.6937(4) 0.2354(4) 0.4430(3)
H4_3 H 0.6774 0.2583 0.4400
C6_3 C 0.7267(3) 0.1782(3) 0.4125(3)
H5_3 H 0.7362 0.1657 0.3890
C7_3 C 0.7320(4) 0.1578(5) 0.4502(3)
H6_3 H 0.7441 0.1323 0.4520
C8_3 C 0.7180(5) 0.1783(5) 0.4835(5)
H7_3 H 0.7176 0.1645 0.5082
C9_3 C 0.8315(2) 0.1368(3) 0.3899(2)
H8_3 H 0.8079 0.1202 0.3836
H9_3 H 0.8221 0.1613 0.4033
C10_3 C 0.8899(2) 0.1685(2) 0.3632(3)
H10_3 H 0.8836 0.1921 0.3798
H11_3 H 0.9033 0.1779 0.3387
N2_3 N 0.89742(15) 0.10258(15) 0.39742(15)
C11_3 C 0.8601(2) 0.1132(3) 0.4185(2)
H12_3 H 0.8664 0.1298 0.4421
H13_3 H 0.8467 0.0887 0.4279
C12_3 C 0.8868(3) 0.0815(2) 0.3601(2)
H14_3 H 0.8702 0.0579 0.3664
H15_3 H 0.9113 0.0721 0.3467
C13_3 C 0.9185(2) 0.1399(2) 0.3868(3)
H16_3 H 0.9421 0.1336 0.3702
H17_3 H 0.9279 0.1533 0.4113
Al2_3 Al 0.78053(5) 0.28053(5) 0.28053(5)
O4_3 O 0.83818(13) 0.27880(14) 0.28443(14)
O5_3 O 0.86535(15) 0.31688(17) 0.23296(15)
C14_3 C 0.8667(2) 0.2965(2) 0.2656(2)
C15_3 C 0.9088(2) 0.2918(3) 0.2842(3)
C16_3 C 0.9830(4) 0.2967(5) 0.2789(5)
C17_3 C 0.9430(3) 0.3063(4) 0.2646(4)
H19_3 H 0.9400 0.3226 0.2417
C18_3 C 0.9125(3) 0.2733(3) 0.3218(3)
H20_3 H 0.8890 0.2638 0.3343
C19_3 C 0.9502(3) 0.2680(4) 0.3422(5)
H21_3 H 0.9520 0.2559 0.3677
C20_3 C 0.9835(5) 0.2820(5) 0.3217(5)
Cd2_3 Cd 0.93673(2) 0.06327(2) 0.43673(2)
O6_3 O 0.97314(11) 0.02686(11) 0.47314(11)
O7_3 O 0.71557(14) 0.16182(13) 0.27880(14)
O8_3 O 0.76704(15) 0.13465(15) 0.31688(17)
C21_3 C 0.7344(2) 0.1333(2) 0.2965(2)
C22_3 C 0.7158(3) 0.0912(2) 0.2918(3)
C23_3 C 0.7211(5) 0.0170(4) 0.2967(5)
C24_3 C 0.7354(4) 0.0570(3) 0.3063(4)
H24_3 H 0.7583 0.0600 0.3226
C25_3 C 0.6782(3) 0.0875(3) 0.2733(3)
H25_3 H 0.6657 0.1110 0.2638
C26_3 C 0.6578(5) 0.0498(3) 0.2680(4)
H26_3 H 0.6323 0.0480 0.2559
C27_3 C 0.6783(5) 0.0165(5) 0.2820(5)
O9_3 O 0.77880(14) 0.28443(14) 0.33818(13)
O10_3 O 0.81688(17) 0.23296(15) 0.36535(15)
C28_3 C 0.7965(2) 0.2656(2) 0.3667(2)
C29_3 C 0.7918(3) 0.2842(3) 0.4088(2)
C30_3 C 0.7967(5) 0.2789(5) 0.4830(4)
H28_3 H 0.7993 0.2631 0.5062
C31_3 C 0.8063(4) 0.2646(4) 0.4430(3)
H29_3 H 0.8226 0.2417 0.4400
C32_3 C 0.7733(3) 0.3218(3) 0.4125(3)
H30_3 H 0.7638 0.3343 0.3890
C33_3 C 0.7680(4) 0.3422(5) 0.4502(3)
H31_3 H 0.7559 0.3677 0.4520
C34_3 C 0.7820(5) 0.3217(5) 0.4835(5)
H32_3 H 0.7824 0.3355 0.5082
O11_3 O 0.83818(13) 0.22120(14) 0.21557(14)
O12_3 O 0.86535(15) 0.18312(17) 0.26704(15)
C35_3 C 0.8667(2) 0.2035(2) 0.2344(2)
C36_3 C 0.9088(2) 0.2082(3) 0.2158(3)
C37_3 C 0.9830(4) 0.2033(5) 0.2211(5)
C38_3 C 0.9430(3) 0.1937(4) 0.2354(4)
H34_3 H 0.9400 0.1774 0.2583
C39_3 C 0.9125(3) 0.2267(3) 0.1782(3)
H35_3 H 0.8890 0.2362 0.1657
C40_3 C 0.9502(3) 0.2320(4) 0.1578(5)
H36_3 H 0.9520 0.2441 0.1323
C41_3 C 0.9835(5) 0.2180(5) 0.1783(5)
O13_3 O 0.66182(13) 0.22120(14) 0.28443(14)
O14_3 O 0.63465(15) 0.18312(17) 0.23296(15)
C42_3 C 0.6333(2) 0.2035(2) 0.2656(2)
C43_3 C 0.5912(2) 0.2082(3) 0.2842(3)
C44_3 C 0.5170(4) 0.2033(5) 0.2789(5)
H38_3 H 0.4938 0.2007 0.2631
C45_3 C 0.5570(3) 0.1937(4) 0.2646(4)
H39_3 H 0.5600 0.1774 0.2417
C46_3 C 0.5875(3) 0.2267(3) 0.3218(3)
H40_3 H 0.6110 0.2362 0.3343
C47_3 C 0.5498(3) 0.2320(4) 0.3422(5)
H41_3 H 0.5480 0.2441 0.3677
C48_3 C 0.5165(5) 0.2180(5) 0.3217(5)
H42_3 H 0.4918 0.2176 0.3355
Cd3_3 Cd 0.68673(2) 0.18673(2) 0.18673(2)
Cd4_3 Cd 0.68673(2) 0.31327(2) 0.31327(2)
Cd5_3 Cd 0.81327(2) 0.31327(2) 0.18673(2)
Al3_3 Al 0.78053(5) 0.21947(5) 0.21947(5)
Al6_3 Al 0.96947(5) 0.03053(5) 0.53053(5)
O15_3 O 0.72314(11) 0.22314(11) 0.22314(11)
O16_3 O 0.72314(11) 0.27686(11) 0.27686(11)
O17_3 O 0.77686(11) 0.27686(11) 0.22314(11)
O18_3 O 0.78443(14) 0.33818(13) 0.27880(14)
O19_3 O 0.98296(15) 0.06688(17) 0.38465(15)
O20_3 O 0.88465(15) 0.01704(15) 0.43312(17)
O21_3 O 0.93312(17) 0.11535(15) 0.48296(15)
H23_3 H 0.7369 0.9938 0.2993
H27_3 H 0.6645 0.9918 0.2824
Al4_3 Al 0.96947(5) 0.96947(5) 0.46947(5)
H1_4 H 0.2993 0.2631 0.0062
H7_4 H 0.2824 0.3355 0.0082
H28_4 H 0.2007 0.2369 0.0062
H32_4 H 0.2176 0.1645 0.0082
Al6_4 Al 0.03053(5) 0.46947(5) 0.03053(5)
Cd1_4 Cd 0.18673(2) 0.31327(2) 0.81327(2)
Al1_4 Al 0.28053(5) 0.28053(5) 0.78053(5)
O1_4 O 0.22314(11) 0.27686(11) 0.77686(11)
O2_4 O 0.27880(14) 0.28443(14) 0.83818(13)
O3_4 O 0.31688(17) 0.23296(15) 0.86535(15)
N1_4 N 0.14742(15) 0.35258(15) 0.85258(15)
C1_4 C 0.2965(2) 0.2656(2) 0.8667(2)
C2_4 C 0.2918(3) 0.2842(3) 0.9088(2)
C3_4 C 0.2967(5) 0.2789(5) 0.9830(4)
C4_4 C 0.1368(3) 0.3899(2) 0.8315(2)
H2_4 H 0.1202 0.3836 0.8079
H3_4 H 0.1613 0.4033 0.8221
C5_4 C 0.3063(4) 0.2646(4) 0.9430(3)
H4_4 H 0.3226 0.2417 0.9400
C6_4 C 0.2733(3) 0.3218(3) 0.9125(3)
H5_4 H 0.2638 0.3343 0.8890
C7_4 C 0.2680(4) 0.3422(5) 0.9502(3)
H6_4 H 0.2559 0.3677 0.9520
C8_4 C 0.2820(5) 0.3217(5) 0.9835(5)
C9_4 C 0.1685(2) 0.3632(3) 0.8899(2)
H8_4 H 0.1921 0.3798 0.8836
H9_4 H 0.1779 0.3387 0.9033
C10_4 C 0.1101(2) 0.3315(2) 0.8632(3)
H10_4 H 0.1164 0.3079 0.8798
H11_4 H 0.0967 0.3221 0.8387
N2_4 N 0.10258(15) 0.39742(15) 0.89742(15)
C11_4 C 0.1399(2) 0.3868(3) 0.9185(2)
H12_4 H 0.1336 0.3702 0.9421
H13_4 H 0.1533 0.4113 0.9279
C12_4 C 0.1132(3) 0.4185(2) 0.8601(2)
H14_4 H 0.1298 0.4421 0.8664
H15_4 H 0.0887 0.4279 0.8467
C13_4 C 0.0815(2) 0.3601(2) 0.8868(3)
H16_4 H 0.0579 0.3664 0.8702
H17_4 H 0.0721 0.3467 0.9113
Al2_4 Al 0.21947(5) 0.21947(5) 0.78053(5)
O4_4 O 0.16182(13) 0.22120(14) 0.78443(14)
O5_4 O 0.13465(15) 0.18312(17) 0.73296(15)
C14_4 C 0.1333(2) 0.2035(2) 0.7656(2)
C15_4 C 0.0912(2) 0.2082(3) 0.7842(3)
C16_4 C 0.0170(4) 0.2033(5) 0.7789(5)
C17_4 C 0.0570(3) 0.1937(4) 0.7646(4)
H19_4 H 0.0600 0.1774 0.7417
C18_4 C 0.0875(3) 0.2267(3) 0.8218(3)
H20_4 H 0.1110 0.2362 0.8343
C19_4 C 0.0498(3) 0.2320(4) 0.8422(5)
H21_4 H 0.0480 0.2441 0.8677
C20_4 C 0.0165(5) 0.2180(5) 0.8217(5)
Cd2_4 Cd 0.06327(2) 0.43673(2) 0.93673(2)
O6_4 O 0.02686(11) 0.47314(11) 0.97314(11)
O7_4 O 0.28443(14) 0.33818(13) 0.77880(14)
O8_4 O 0.23296(15) 0.36535(15) 0.81688(17)
C21_4 C 0.2656(2) 0.3667(2) 0.7965(2)
C22_4 C 0.2842(3) 0.4088(2) 0.7918(3)
C23_4 C 0.2789(5) 0.4830(4) 0.7967(5)
H23_4 H 0.2631 0.5062 0.7993
C24_4 C 0.2646(4) 0.4430(3) 0.8063(4)
H24_4 H 0.2417 0.4400 0.8226
C25_4 C 0.3218(3) 0.4125(3) 0.7733(3)
H25_4 H 0.3343 0.3890 0.7638
C26_4 C 0.3422(5) 0.4502(3) 0.7680(4)
H26_4 H 0.3677 0.4520 0.7559
C27_4 C 0.3217(5) 0.4835(5) 0.7820(5)
H27_4 H 0.3355 0.5082 0.7824
O9_4 O 0.22120(14) 0.21557(14) 0.83818(13)
O10_4 O 0.18312(17) 0.26704(15) 0.86535(15)
C28_4 C 0.2035(2) 0.2344(2) 0.8667(2)
C29_4 C 0.2082(3) 0.2158(3) 0.9088(2)
C30_4 C 0.2033(5) 0.2211(5) 0.9830(4)
C31_4 C 0.1937(4) 0.2354(4) 0.9430(3)
H29_4 H 0.1774 0.2583 0.9400
C32_4 C 0.2267(3) 0.1782(3) 0.9125(3)
H30_4 H 0.2362 0.1657 0.8890
C33_4 C 0.2320(4) 0.1578(5) 0.9502(3)
H31_4 H 0.2441 0.1323 0.9520
C34_4 C 0.2180(5) 0.1783(5) 0.9835(5)
O11_4 O 0.16182(13) 0.27880(14) 0.71557(14)
O12_4 O 0.13465(15) 0.31688(17) 0.76704(15)
C35_4 C 0.1333(2) 0.2965(2) 0.7344(2)
C36_4 C 0.0912(2) 0.2918(3) 0.7158(3)
C37_4 C 0.0170(4) 0.2967(5) 0.7211(5)
C38_4 C 0.0570(3) 0.3063(4) 0.7354(4)
H34_4 H 0.0600 0.3226 0.7583
C39_4 C 0.0875(3) 0.2733(3) 0.6782(3)
H35_4 H 0.1110 0.2638 0.6657
C40_4 C 0.0498(3) 0.2680(4) 0.6578(5)
H36_4 H 0.0480 0.2559 0.6323
C41_4 C 0.0165(5) 0.2820(5) 0.6783(5)
O13_4 O 0.33818(13) 0.27880(14) 0.78443(14)
O14_4 O 0.36535(15) 0.31688(17) 0.73296(15)
C42_4 C 0.3667(2) 0.2965(2) 0.7656(2)
C43_4 C 0.4088(2) 0.2918(3) 0.7842(3)
C44_4 C 0.4830(4) 0.2967(5) 0.7789(5)
H38_4 H 0.5062 0.2993 0.7631
C45_4 C 0.4430(3) 0.3063(4) 0.7646(4)
H39_4 H 0.4400 0.3226 0.7417
C46_4 C 0.4125(3) 0.2733(3) 0.8218(3)
H40_4 H 0.3890 0.2638 0.8343
C47_4 C 0.4502(3) 0.2680(4) 0.8422(5)
H41_4 H 0.4520 0.2559 0.8677
C48_4 C 0.4835(5) 0.2820(5) 0.8217(5)
H42_4 H 0.5082 0.2824 0.8355
Cd3_4 Cd 0.31327(2) 0.31327(2) 0.68673(2)
Cd4_4 Cd 0.31327(2) 0.18673(2) 0.81327(2)
Cd5_4 Cd 0.18673(2) 0.18673(2) 0.68673(2)
Al3_4 Al 0.21947(5) 0.28053(5) 0.71947(5)
Al4_4 Al 0.03053(5) 0.53053(5) 0.96947(5)
O15_4 O 0.27686(11) 0.27686(11) 0.72314(11)
O16_4 O 0.27686(11) 0.22314(11) 0.77686(11)
O17_4 O 0.22314(11) 0.22314(11) 0.72314(11)
O18_4 O 0.21557(14) 0.16182(13) 0.77880(14)
O19_4 O 0.01704(15) 0.43312(17) 0.88465(15)
O20_4 O 0.11535(15) 0.48296(15) 0.93312(17)
O21_4 O 0.06688(17) 0.38465(15) 0.98296(15)
H18_4 H 0.9938 0.2007 0.7631
H22_4 H 0.9918 0.2176 0.8355
H33_4 H 0.9938 0.2993 0.7369
H37_4 H 0.9918 0.2824 0.6645
Al5_4 Al 0.96947(5) 0.46947(5) 0.96947(5)
H38_5 H 0.7369 0.0062 0.7007
H42_5 H 0.6645 0.0082 0.7176
O4_5 O 0.71557(14) 0.66182(13) 0.77880(14)
O5_5 O 0.76704(15) 0.63465(15) 0.81688(17)
C14_5 C 0.7344(2) 0.6333(2) 0.7965(2)
C15_5 C 0.7158(3) 0.5912(2) 0.7918(3)
C16_5 C 0.7211(5) 0.5170(4) 0.7967(5)
H18_5 H 0.7369 0.4938 0.7993
C17_5 C 0.7354(4) 0.5570(3) 0.8063(4)
H19_5 H 0.7583 0.5600 0.8226
C18_5 C 0.6782(3) 0.5875(3) 0.7733(3)
H20_5 H 0.6657 0.6110 0.7638
C19_5 C 0.6578(5) 0.5498(3) 0.7680(4)
H21_5 H 0.6323 0.5480 0.7559
C20_5 C 0.6783(5) 0.5165(5) 0.7820(5)
H22_5 H 0.6645 0.4918 0.7824
O14_5 O 0.76704(15) 0.86535(15) 0.68312(17)
C42_5 C 0.7344(2) 0.8667(2) 0.7035(2)
C43_5 C 0.7158(3) 0.9088(2) 0.7082(3)
C44_5 C 0.7211(5) 0.9830(4) 0.7033(5)
C45_5 C 0.7354(4) 0.9430(3) 0.6937(4)
H39_5 H 0.7583 0.9400 0.6774
C46_5 C 0.6782(3) 0.9125(3) 0.7267(3)
H40_5 H 0.6657 0.8890 0.7362
C47_5 C 0.6578(5) 0.9502(3) 0.7320(4)
H41_5 H 0.6323 0.9520 0.7441
C48_5 C 0.6783(5) 0.9835(5) 0.7180(5)
O18_5 O 0.72120(14) 0.71557(14) 0.83818(13)
O4_6 O 0.21557(14) 0.33818(13) 0.72120(14)
O5_6 O 0.26704(15) 0.36535(15) 0.68312(17)
C14_6 C 0.2344(2) 0.3667(2) 0.7035(2)
C15_6 C 0.2158(3) 0.4088(2) 0.7082(3)
C16_6 C 0.2211(5) 0.4830(4) 0.7033(5)
H18_6 H 0.2369 0.5062 0.7007
C17_6 C 0.2354(4) 0.4430(3) 0.6937(4)
H19_6 H 0.2583 0.4400 0.6774
C18_6 C 0.1782(3) 0.4125(3) 0.7267(3)
H20_6 H 0.1657 0.3890 0.7362
C19_6 C 0.1578(5) 0.4502(3) 0.7320(4)
H21_6 H 0.1323 0.4520 0.7441
C20_6 C 0.1783(5) 0.4835(5) 0.7180(5)
H22_6 H 0.1645 0.5082 0.7176
O14_6 O 0.26704(15) 0.13465(15) 0.81688(17)
C42_6 C 0.2344(2) 0.1333(2) 0.7965(2)
C43_6 C 0.2158(3) 0.0912(2) 0.7918(3)
C44_6 C 0.2211(5) 0.0170(4) 0.7967(5)
C45_6 C 0.2354(4) 0.0570(3) 0.8063(4)
H39_6 H 0.2583 0.0600 0.8226
C46_6 C 0.1782(3) 0.0875(3) 0.7733(3)
H40_6 H 0.1657 0.1110 0.7638
C47_6 C 0.1578(5) 0.0498(3) 0.7680(4)
H41_6 H 0.1323 0.0480 0.7559
C48_6 C 0.1783(5) 0.0165(5) 0.7820(5)
O18_6 O 0.22120(14) 0.28443(14) 0.66182(13)
H38_6 H 0.2369 0.9938 0.7993
H42_6 H 0.1645 0.9918 0.7824
H18_7 H 0.2631 0.0062 0.2993
H22_7 H 0.3355 0.0082 0.2824
O4_7 O 0.28443(14) 0.83818(13) 0.27880(14)
O5_7 O 0.23296(15) 0.86535(15) 0.31688(17)
C14_7 C 0.2656(2) 0.8667(2) 0.2965(2)
C15_7 C 0.2842(3) 0.9088(2) 0.2918(3)
C16_7 C 0.2789(5) 0.9830(4) 0.2967(5)
C17_7 C 0.2646(4) 0.9430(3) 0.3063(4)
H19_7 H 0.2417 0.9400 0.3226
C18_7 C 0.3218(3) 0.9125(3) 0.2733(3)
H20_7 H 0.3343 0.8890 0.2638
C19_7 C 0.3422(5) 0.9502(3) 0.2680(4)
H21_7 H 0.3677 0.9520 0.2559
C20_7 C 0.3217(5) 0.9835(5) 0.2820(5)
O14_7 O 0.23296(15) 0.63465(15) 0.18312(17)
C42_7 C 0.2656(2) 0.6333(2) 0.2035(2)
C43_7 C 0.2842(3) 0.5912(2) 0.2082(3)
C44_7 C 0.2789(5) 0.5170(4) 0.2033(5)
H38_7 H 0.2631 0.4938 0.2007
C45_7 C 0.2646(4) 0.5570(3) 0.1937(4)
H39_7 H 0.2417 0.5600 0.1774
C46_7 C 0.3218(3) 0.5875(3) 0.2267(3)
H40_7 H 0.3343 0.6110 0.2362
C47_7 C 0.3422(5) 0.5498(3) 0.2320(4)
H41_7 H 0.3677 0.5480 0.2441
C48_7 C 0.3217(5) 0.5165(5) 0.2180(5)
H42_7 H 0.3355 0.4918 0.2176
O18_7 O 0.27880(14) 0.78443(14) 0.33818(13)
O4_8 O 0.78443(14) 0.16182(13) 0.22120(14)
O5_8 O 0.73296(15) 0.13465(15) 0.18312(17)
C14_8 C 0.7656(2) 0.1333(2) 0.2035(2)
C15_8 C 0.7842(3) 0.0912(2) 0.2082(3)
C16_8 C 0.7789(5) 0.0170(4) 0.2033(5)
C17_8 C 0.7646(4) 0.0570(3) 0.1937(4)
H19_8 H 0.7417 0.0600 0.1774
C18_8 C 0.8218(3) 0.0875(3) 0.2267(3)
H20_8 H 0.8343 0.1110 0.2362
C19_8 C 0.8422(5) 0.0498(3) 0.2320(4)
H21_8 H 0.8677 0.0480 0.2441
C20_8 C 0.8217(5) 0.0165(5) 0.2180(5)
O14_8 O 0.73296(15) 0.36535(15) 0.31688(17)
C42_8 C 0.7656(2) 0.3667(2) 0.2965(2)
C43_8 C 0.7842(3) 0.4088(2) 0.2918(3)
C44_8 C 0.7789(5) 0.4830(4) 0.2967(5)
H38_8 H 0.7631 0.5062 0.2993
C45_8 C 0.7646(4) 0.4430(3) 0.3063(4)
H39_8 H 0.7417 0.4400 0.3226
C46_8 C 0.8218(3) 0.4125(3) 0.2733(3)
H40_8 H 0.8343 0.3890 0.2638
C47_8 C 0.8422(5) 0.4502(3) 0.2680(4)
H41_8 H 0.8677 0.4520 0.2559
C48_8 C 0.8217(5) 0.4835(5) 0.2820(5)
H42_8 H 0.8355 0.5082 0.2824
O18_8 O 0.77880(14) 0.21557(14) 0.16182(13)
H18_8 H 0.7631 0.9938 0.2007
H22_8 H 0.8355 0.9918 0.2176
H38_9 H 0.7007 0.7369 0.0062
H42_9 H 0.7176 0.6645 0.0082
O14_9 O 0.68312(17) 0.76704(15) 0.86535(15)
C42_9 C 0.7035(2) 0.7344(2) 0.8667(2)
C43_9 C 0.7082(3) 0.7158(3) 0.9088(2)
C44_9 C 0.7033(5) 0.7211(5) 0.9830(4)
C45_9 C 0.6937(4) 0.7354(4) 0.9430(3)
H39_9 H 0.6774 0.7583 0.9400
C46_9 C 0.7267(3) 0.6782(3) 0.9125(3)
H40_9 H 0.7362 0.6657 0.8890
C47_9 C 0.7320(4) 0.6578(5) 0.9502(3)
H41_9 H 0.7441 0.6323 0.9520
C48_9 C 0.7180(5) 0.6783(5) 0.9835(5)
O14_10 O 0.81688(17) 0.26704(15) 0.13465(15)
C42_10 C 0.7965(2) 0.2344(2) 0.1333(2)
C43_10 C 0.7918(3) 0.2158(3) 0.0912(2)
C44_10 C 0.7967(5) 0.2211(5) 0.0170(4)
C45_10 C 0.8063(4) 0.2354(4) 0.0570(3)
H39_10 H 0.8226 0.2583 0.0600
C46_10 C 0.7733(3) 0.1782(3) 0.0875(3)
H40_10 H 0.7638 0.1657 0.1110
C47_10 C 0.7680(4) 0.1578(5) 0.0498(3)
H41_10 H 0.7559 0.1323 0.0480
C48_10 C 0.7820(5) 0.1783(5) 0.0165(5)
H38_10 H 0.7993 0.2369 0.9938
H42_10 H 0.7824 0.1645 0.9918
O14_11 O 0.18312(17) 0.23296(15) 0.63465(15)
C42_11 C 0.2035(2) 0.2656(2) 0.6333(2)
C43_11 C 0.2082(3) 0.2842(3) 0.5912(2)
C44_11 C 0.2033(5) 0.2789(5) 0.5170(4)
H38_11 H 0.2007 0.2631 0.4938
C45_11 C 0.1937(4) 0.2646(4) 0.5570(3)
H39_11 H 0.1774 0.2417 0.5600
C46_11 C 0.2267(3) 0.3218(3) 0.5875(3)
H40_11 H 0.2362 0.3343 0.6110
C47_11 C 0.2320(4) 0.3422(5) 0.5498(3)
H41_11 H 0.2441 0.3677 0.5480
C48_11 C 0.2180(5) 0.3217(5) 0.5165(5)
H42_11 H 0.2176 0.3355 0.4918
O14_12 O 0.31688(17) 0.73296(15) 0.36535(15)
C42_12 C 0.2965(2) 0.7656(2) 0.3667(2)
C43_12 C 0.2918(3) 0.7842(3) 0.4088(2)
C44_12 C 0.2967(5) 0.7789(5) 0.4830(4)
H38_12 H 0.2993 0.7631 0.5062
C45_12 C 0.3063(4) 0.7646(4) 0.4430(3)
H39_12 H 0.3226 0.7417 0.4400
C46_12 C 0.2733(3) 0.8218(3) 0.4125(3)
H40_12 H 0.2638 0.8343 0.3890
C47_12 C 0.2680(4) 0.8422(5) 0.4502(3)
H41_12 H 0.2559 0.8677 0.4520
C48_12 C 0.2820(5) 0.8217(5) 0.4835(5)
H42_12 H 0.2824 0.8355 0.5082
O2_5 O 0.46557(14) 0.02880(14) 0.08818(13)
O3_5 O 0.51704(15) 0.06688(17) 0.11535(15)
C1_5 C 0.4844(2) 0.0465(2) 0.1167(2)
C2_5 C 0.4658(3) 0.0418(3) 0.1588(2)
C3_5 C 0.4711(5) 0.0467(5) 0.2330(4)
H1_5 H 0.4869 0.0493 0.2562
C5_5 C 0.4854(4) 0.0563(4) 0.1930(3)
H4_5 H 0.5083 0.0726 0.1900
C6_5 C 0.4282(3) 0.0233(3) 0.1625(3)
H5_5 H 0.4157 0.0138 0.1390
C7_5 C 0.4078(5) 0.0180(4) 0.2002(3)
H6_5 H 0.3823 0.0059 0.2020
C8_5 C 0.4283(5) 0.0320(5) 0.2335(5)
H7_5 H 0.4145 0.0324 0.2582
O7_5 O 0.41182(13) 0.03443(14) 0.02880(14)
C21_5 C 0.3833(2) 0.0156(2) 0.0465(2)
C22_5 C 0.3412(2) 0.0342(3) 0.0418(3)
C23_5 C 0.2670(4) 0.0289(5) 0.0467(5)
H23_5 H 0.2438 0.0131 0.0493
C24_5 C 0.3070(3) 0.0146(4) 0.0563(4)
C25_5 C 0.3375(3) 0.0718(3) 0.0233(3)
H25_5 H 0.3610 0.0843 0.0138
C26_5 C 0.2998(3) 0.0922(5) 0.0180(4)
H26_5 H 0.2980 0.1177 0.0059
C27_5 C 0.2665(5) 0.0717(5) 0.0320(5)
H27_5 H 0.2418 0.0855 0.0324
O13_5 O 0.47120(14) 0.08818(13) 0.03443(14)
C42_13 C 0.4535(2) 0.1167(2) 0.0156(2)
C43_13 C 0.4582(3) 0.1588(2) 0.0342(3)
C44_13 C 0.4533(5) 0.2330(4) 0.0289(5)
H38_13 H 0.4507 0.2562 0.0131
C45_13 C 0.4437(4) 0.1930(3) 0.0146(4)
C46_13 C 0.4767(3) 0.1625(3) 0.0718(3)
H40_13 H 0.4862 0.1390 0.0843
C47_13 C 0.4820(4) 0.2002(3) 0.0922(5)
H41_13 H 0.4941 0.2020 0.1177
C48_13 C 0.4680(5) 0.2335(5) 0.0717(5)
H42_13 H 0.4676 0.2582 0.0855
Cd4_5 Cd 0.56327(2) 0.06327(2) 0.06327(2)
O16_5 O 0.52686(11) 0.02686(11) 0.02686(11)
O14_13 O 0.43312(17) 0.11535(15) 0.98296(15)
H39_13 H 0.4274 0.1900 0.9917
Cd3_5 Cd 0.43673(2) 0.06327(2) 0.93673(2)
O15_5 O 0.47314(11) 0.02686(11) 0.97314(11)
O4_9 O 0.52880(14) 0.91182(13) 0.03443(14)
C14_9 C 0.5465(2) 0.8833(2) 0.0156(2)
C15_9 C 0.5418(3) 0.8412(2) 0.0342(3)
C16_9 C 0.5467(5) 0.7670(4) 0.0289(5)
H18_9 H 0.5493 0.7438 0.0131
C17_9 C 0.5563(4) 0.8070(3) 0.0146(4)
C18_9 C 0.5233(3) 0.8375(3) 0.0718(3)
H20_9 H 0.5138 0.8610 0.0843
C19_9 C 0.5180(4) 0.7998(3) 0.0922(5)
H21_9 H 0.5059 0.7980 0.1177
C20_9 C 0.5320(5) 0.7665(5) 0.0717(5)
H22_9 H 0.5324 0.7418 0.0855
H24_5 H 0.3100 0.9917 0.0726
O9_5 O 0.53443(14) 0.97120(14) 0.08818(13)
C28_5 C 0.5156(2) 0.9535(2) 0.1167(2)
C29_5 C 0.5342(3) 0.9582(3) 0.1588(2)
C30_5 C 0.5289(5) 0.9533(5) 0.2330(4)
H28_5 H 0.5131 0.9507 0.2562
C31_5 C 0.5146(4) 0.9437(4) 0.1930(3)
H29_5 H 0.4917 0.9274 0.1900
C32_5 C 0.5718(3) 0.9767(3) 0.1625(3)
H30_5 H 0.5843 0.9862 0.1390
C33_5 C 0.5922(5) 0.9820(4) 0.2002(3)
H31_5 H 0.6177 0.9941 0.2020
C34_5 C 0.5717(5) 0.9680(5) 0.2335(5)
H32_5 H 0.5855 0.9676 0.2582
H34_5 H 0.4274 0.8100 0.0083
O18_9 O 0.58818(13) 0.96557(14) 0.02880(14)
O5_9 O 0.56688(17) 0.88465(15) 0.98296(15)
H19_9 H 0.5726 0.8100 0.9917
O11_5 O 0.47120(14) 0.91182(13) 0.96557(14)
C35_5 C 0.4535(2) 0.8833(2) 0.9844(2)
C36_5 C 0.4582(3) 0.8412(2) 0.9658(3)
C37_5 C 0.4533(5) 0.7670(4) 0.9711(5)
H33_5 H 0.4507 0.7438 0.9869
C38_5 C 0.4437(4) 0.8070(3) 0.9854(4)
C39_5 C 0.4767(3) 0.8375(3) 0.9282(3)
H35_5 H 0.4862 0.8610 0.9157
C40_5 C 0.4820(4) 0.7998(3) 0.9078(5)
H36_5 H 0.4941 0.7980 0.8823
C41_5 C 0.4680(5) 0.7665(5) 0.9283(5)
H37_5 H 0.4676 0.7418 0.9145
Cd5_5 Cd 0.56327(2) 0.93673(2) 0.93673(2)
O17_5 O 0.52686(11) 0.97314(11) 0.97314(11)
O2_6 O 0.53443(14) 0.47120(14) 0.58818(13)
O3_6 O 0.48296(15) 0.43312(17) 0.61535(15)
C1_6 C 0.5156(2) 0.4535(2) 0.6167(2)
C2_6 C 0.5342(3) 0.4582(3) 0.6588(2)
C3_6 C 0.5289(5) 0.4533(5) 0.7330(4)
H1_6 H 0.5131 0.4507 0.7562
C5_6 C 0.5146(4) 0.4437(4) 0.6930(3)
H4_6 H 0.4917 0.4274 0.6900
C6_6 C 0.5718(3) 0.4767(3) 0.6625(3)
H5_6 H 0.5843 0.4862 0.6390
C7_6 C 0.5922(5) 0.4820(4) 0.7002(3)
H6_6 H 0.6177 0.4941 0.7020
C8_6 C 0.5717(5) 0.4680(5) 0.7335(5)
H7_6 H 0.5855 0.4676 0.7582
O4_10 O 0.47120(14) 0.58818(13) 0.53443(14)
O5_10 O 0.43312(17) 0.61535(15) 0.48296(15)
C14_10 C 0.4535(2) 0.6167(2) 0.5156(2)
C15_10 C 0.4582(3) 0.6588(2) 0.5342(3)
C16_10 C 0.4533(5) 0.7330(4) 0.5289(5)
H18_10 H 0.4507 0.7562 0.5131
C17_10 C 0.4437(4) 0.6930(3) 0.5146(4)
H19_10 H 0.4274 0.6900 0.4917
C18_10 C 0.4767(3) 0.6625(3) 0.5718(3)
H20_10 H 0.4862 0.6390 0.5843
C19_10 C 0.4820(4) 0.7002(3) 0.5922(5)
H21_10 H 0.4941 0.7020 0.6177
C20_10 C 0.4680(5) 0.7335(5) 0.5717(5)
H22_10 H 0.4676 0.7582 0.5855
O7_6 O 0.58818(13) 0.46557(14) 0.52880(14)
C21_6 C 0.6167(2) 0.4844(2) 0.5465(2)
C22_6 C 0.6588(2) 0.4658(3) 0.5418(3)
C23_6 C 0.7330(4) 0.4711(5) 0.5467(5)
H23_6 H 0.7562 0.4869 0.5493
C24_6 C 0.6930(3) 0.4854(4) 0.5563(4)
H24_6 H 0.6900 0.5083 0.5726
C25_6 C 0.6625(3) 0.4282(3) 0.5233(3)
H25_6 H 0.6390 0.4157 0.5138
C26_6 C 0.7002(3) 0.4078(5) 0.5180(4)
H26_6 H 0.7020 0.3823 0.5059
C27_6 C 0.7335(5) 0.4283(5) 0.5320(5)
H27_6 H 0.7582 0.4145 0.5324
O9_6 O 0.46557(14) 0.52880(14) 0.58818(13)
C28_6 C 0.4844(2) 0.5465(2) 0.6167(2)
C29_6 C 0.4658(3) 0.5418(3) 0.6588(2)
C30_6 C 0.4711(5) 0.5467(5) 0.7330(4)
H28_6 H 0.4869 0.5493 0.7562
C31_6 C 0.4854(4) 0.5563(4) 0.6930(3)
H29_6 H 0.5083 0.5726 0.6900
C32_6 C 0.4282(3) 0.5233(3) 0.6625(3)
H30_6 H 0.4157 0.5138 0.6390
C33_6 C 0.4078(5) 0.5180(4) 0.7002(3)
H31_6 H 0.3823 0.5059 0.7020
C34_6 C 0.4283(5) 0.5320(5) 0.7335(5)
H32_6 H 0.4145 0.5324 0.7582
O11_6 O 0.52880(14) 0.58818(13) 0.46557(14)
C35_6 C 0.5465(2) 0.6167(2) 0.4844(2)
C36_6 C 0.5418(3) 0.6588(2) 0.4658(3)
C37_6 C 0.5467(5) 0.7330(4) 0.4711(5)
H33_6 H 0.5493 0.7562 0.4869
C38_6 C 0.5563(4) 0.6930(3) 0.4854(4)
H34_6 H 0.5726 0.6900 0.5083
C39_6 C 0.5233(3) 0.6625(3) 0.4282(3)
H35_6 H 0.5138 0.6390 0.4157
C40_6 C 0.5180(4) 0.7002(3) 0.4078(5)
H36_6 H 0.5059 0.7020 0.3823
C41_6 C 0.5320(5) 0.7335(5) 0.4283(5)
H37_6 H 0.5324 0.7582 0.4145
O13_6 O 0.52880(14) 0.41182(13) 0.53443(14)
O14_14 O 0.56688(17) 0.38465(15) 0.48296(15)
C42_14 C 0.5465(2) 0.3833(2) 0.5156(2)
C43_14 C 0.5418(3) 0.3412(2) 0.5342(3)
C44_14 C 0.5467(5) 0.2670(4) 0.5289(5)
H38_14 H 0.5493 0.2438 0.5131
C45_14 C 0.5563(4) 0.3070(3) 0.5146(4)
H39_14 H 0.5726 0.3100 0.4917
C46_14 C 0.5233(3) 0.3375(3) 0.5718(3)
H40_14 H 0.5138 0.3610 0.5843
C47_14 C 0.5180(4) 0.2998(3) 0.5922(5)
H41_14 H 0.5059 0.2980 0.6177
C48_14 C 0.5320(5) 0.2665(5) 0.5717(5)
H42_14 H 0.5324 0.2418 0.5855
Cd3_6 Cd 0.56327(2) 0.43673(2) 0.43673(2)
Cd4_6 Cd 0.43673(2) 0.43673(2) 0.56327(2)
Cd5_6 Cd 0.43673(2) 0.56327(2) 0.43673(2)
O15_6 O 0.52686(11) 0.47314(11) 0.47314(11)
O16_6 O 0.47314(11) 0.47314(11) 0.52686(11)
O17_6 O 0.47314(11) 0.52686(11) 0.47314(11)
O18_10 O 0.41182(13) 0.53443(14) 0.52880(14)
O4_11 O 0.02880(14) 0.08818(13) 0.46557(14)
O5_11 O 0.06688(17) 0.11535(15) 0.51704(15)
C14_11 C 0.0465(2) 0.1167(2) 0.4844(2)
C15_11 C 0.0418(3) 0.1588(2) 0.4658(3)
C16_11 C 0.0467(5) 0.2330(4) 0.4711(5)
H18_11 H 0.0493 0.2562 0.4869
C17_11 C 0.0563(4) 0.1930(3) 0.4854(4)
H19_11 H 0.0726 0.1900 0.5083
C18_11 C 0.0233(3) 0.1625(3) 0.4282(3)
H20_11 H 0.0138 0.1390 0.4157
C19_11 C 0.0180(4) 0.2002(3) 0.4078(5)
H21_11 H 0.0059 0.2020 0.3823
C20_11 C 0.0320(5) 0.2335(5) 0.4283(5)
H22_11 H 0.0324 0.2582 0.4145
O9_7 O 0.03443(14) 0.02880(14) 0.41182(13)
C28_7 C 0.0156(2) 0.0465(2) 0.3833(2)
C29_7 C 0.0342(3) 0.0418(3) 0.3412(2)
C30_7 C 0.0289(5) 0.0467(5) 0.2670(4)
H28_7 H 0.0131 0.0493 0.2438
C31_7 C 0.0146(4) 0.0563(4) 0.3070(3)
C32_7 C 0.0718(3) 0.0233(3) 0.3375(3)
H30_7 H 0.0843 0.0138 0.3610
C33_7 C 0.0922(5) 0.0180(4) 0.2998(3)
H31_7 H 0.1177 0.0059 0.2980
C34_7 C 0.0717(5) 0.0320(5) 0.2665(5)
H32_7 H 0.0855 0.0324 0.2418
Cd5_7 Cd 0.06327(2) 0.06327(2) 0.56327(2)
O17_7 O 0.02686(11) 0.02686(11) 0.52686(11)
O18_11 O 0.08818(13) 0.03443(14) 0.47120(14)
O3_7 O 0.01704(15) 0.93312(17) 0.38465(15)
H4_7 H 0.0083 0.9274 0.3100
Cd4_7 Cd 0.06327(2) 0.93673(2) 0.43673(2)
O16_7 O 0.02686(11) 0.97314(11) 0.47314(11)
H24_7 H 0.8100 0.0083 0.4274
H29_7 H 0.9917 0.0726 0.3100
O11_7 O 0.97120(14) 0.08818(13) 0.53443(14)
C35_7 C 0.9535(2) 0.1167(2) 0.5156(2)
C36_7 C 0.9582(3) 0.1588(2) 0.5342(3)
C37_7 C 0.9533(5) 0.2330(4) 0.5289(5)
H33_7 H 0.9507 0.2562 0.5131
C38_7 C 0.9437(4) 0.1930(3) 0.5146(4)
H34_7 H 0.9274 0.1900 0.4917
C39_7 C 0.9767(3) 0.1625(3) 0.5718(3)
H35_7 H 0.9862 0.1390 0.5843
C40_7 C 0.9820(4) 0.2002(3) 0.5922(5)
H36_7 H 0.9941 0.2020 0.6177
C41_7 C 0.9680(5) 0.2335(5) 0.5717(5)
H37_7 H 0.9676 0.2582 0.5855
O2_7 O 0.96557(14) 0.97120(14) 0.41182(13)
C1_7 C 0.9844(2) 0.9535(2) 0.3833(2)
C2_7 C 0.9658(3) 0.9582(3) 0.3412(2)
C3_7 C 0.9711(5) 0.9533(5) 0.2670(4)
H1_7 H 0.9869 0.9507 0.2438
C5_7 C 0.9854(4) 0.9437(4) 0.3070(3)
C6_7 C 0.9282(3) 0.9767(3) 0.3375(3)
H5_7 H 0.9157 0.9862 0.3610
C7_7 C 0.9078(5) 0.9820(4) 0.2998(3)
H6_7 H 0.8823 0.9941 0.2980
C8_7 C 0.9283(5) 0.9680(5) 0.2665(5)
H7_7 H 0.9145 0.9676 0.2418
O7_7 O 0.91182(13) 0.96557(14) 0.47120(14)
C21_7 C 0.8833(2) 0.9844(2) 0.4535(2)
C22_7 C 0.8412(2) 0.9658(3) 0.4582(3)
C23_7 C 0.7670(4) 0.9711(5) 0.4533(5)
H23_7 H 0.7438 0.9869 0.4507
C24_7 C 0.8070(3) 0.9854(4) 0.4437(4)
C25_7 C 0.8375(3) 0.9282(3) 0.4767(3)
H25_7 H 0.8610 0.9157 0.4862
C26_7 C 0.7998(3) 0.9078(5) 0.4820(4)
H26_7 H 0.7980 0.8823 0.4941
C27_7 C 0.7665(5) 0.9283(5) 0.4680(5)
H27_7 H 0.7418 0.9145 0.4676
O13_7 O 0.97120(14) 0.91182(13) 0.46557(14)
O14_15 O 0.93312(17) 0.88465(15) 0.51704(15)
C42_15 C 0.9535(2) 0.8833(2) 0.4844(2)
C43_15 C 0.9582(3) 0.8412(2) 0.4658(3)
C44_15 C 0.9533(5) 0.7670(4) 0.4711(5)
H38_15 H 0.9507 0.7438 0.4869
C45_15 C 0.9437(4) 0.8070(3) 0.4854(4)
H39_15 H 0.9274 0.8100 0.5083
C46_15 C 0.9767(3) 0.8375(3) 0.4282(3)
H40_15 H 0.9862 0.8610 0.4157
C47_15 C 0.9820(4) 0.7998(3) 0.4078(5)
H41_15 H 0.9941 0.7980 0.3823
C48_15 C 0.9680(5) 0.7665(5) 0.4283(5)
H42_15 H 0.9676 0.7418 0.4145
Cd3_7 Cd 0.93673(2) 0.93673(2) 0.56327(2)
O15_7 O 0.97314(11) 0.97314(11) 0.52686(11)
O11_8 O 0.02880(14) 0.41182(13) 0.03443(14)
C35_8 C 0.0465(2) 0.3833(2) 0.0156(2)
C36_8 C 0.0418(3) 0.3412(2) 0.0342(3)
C37_8 C 0.0467(5) 0.2670(4) 0.0289(5)
H33_8 H 0.0493 0.2438 0.0131
C38_8 C 0.0563(4) 0.3070(3) 0.0146(4)
C39_8 C 0.0233(3) 0.3375(3) 0.0718(3)
H35_8 H 0.0138 0.3610 0.0843
C40_8 C 0.0180(4) 0.2998(3) 0.0922(5)
H36_8 H 0.0059 0.2980 0.1177
C41_8 C 0.0320(5) 0.2665(5) 0.0717(5)
H37_8 H 0.0324 0.2418 0.0855
O14_16 O 0.06688(17) 0.61535(15) 0.01704(15)
H39_16 H 0.0726 0.6900 0.0083
Cd3_8 Cd 0.06327(2) 0.56327(2) 0.06327(2)
O15_8 O 0.02686(11) 0.52686(11) 0.02686(11)
O2_8 O 0.03443(14) 0.52880(14) 0.91182(13)
C1_8 C 0.0156(2) 0.5465(2) 0.8833(2)
C2_8 C 0.0342(3) 0.5418(3) 0.8412(2)
C3_8 C 0.0289(5) 0.5467(5) 0.7670(4)
H1_8 H 0.0131 0.5493 0.7438
C5_8 C 0.0146(4) 0.5563(4) 0.8070(3)
C6_8 C 0.0718(3) 0.5233(3) 0.8375(3)
H5_8 H 0.0843 0.5138 0.8610
C7_8 C 0.0922(5) 0.5180(4) 0.7998(3)
H6_8 H 0.1177 0.5059 0.7980
C8_8 C 0.0717(5) 0.5320(5) 0.7665(5)
H7_8 H 0.0855 0.5324 0.7418
O7_8 O 0.08818(13) 0.53443(14) 0.97120(14)
C21_8 C 0.1167(2) 0.5156(2) 0.9535(2)
C22_8 C 0.1588(2) 0.5342(3) 0.9582(3)
C23_8 C 0.2330(4) 0.5289(5) 0.9533(5)
H23_8 H 0.2562 0.5131 0.9507
C24_8 C 0.1930(3) 0.5146(4) 0.9437(4)
H24_8 H 0.1900 0.4917 0.9274
C25_8 C 0.1625(3) 0.5718(3) 0.9767(3)
H25_8 H 0.1390 0.5843 0.9862
C26_8 C 0.2002(3) 0.5922(5) 0.9820(4)
H26_8 H 0.2020 0.6177 0.9941
C27_8 C 0.2335(5) 0.5717(5) 0.9680(5)
H27_8 H 0.2582 0.5855 0.9676
H29_8 H 0.0083 0.4274 0.8100
H34_8 H 0.0726 0.3100 0.9917
O13_8 O 0.02880(14) 0.58818(13) 0.96557(14)
C42_16 C 0.0465(2) 0.6167(2) 0.9844(2)
C43_16 C 0.0418(3) 0.6588(2) 0.9658(3)
C44_16 C 0.0467(5) 0.7330(4) 0.9711(5)
H38_16 H 0.0493 0.7562 0.9869
C45_16 C 0.0563(4) 0.6930(3) 0.9854(4)
C46_16 C 0.0233(3) 0.6625(3) 0.9282(3)
H40_16 H 0.0138 0.6390 0.9157
C47_16 C 0.0180(4) 0.7002(3) 0.9078(5)
H41_16 H 0.0059 0.7020 0.8823
C48_16 C 0.0320(5) 0.7335(5) 0.9283(5)
H42_16 H 0.0324 0.7582 0.9145
O5_12 O 0.93312(17) 0.38465(15) 0.01704(15)
H19_12 H 0.9274 0.3100 0.0083
Cd5_8 Cd 0.93673(2) 0.43673(2) 0.06327(2)
O17_8 O 0.97314(11) 0.47314(11) 0.02686(11)
O3_8 O 0.98296(15) 0.56688(17) 0.88465(15)
H4_8 H 0.9917 0.5726 0.8100
O4_12 O 0.97120(14) 0.41182(13) 0.96557(14)
C14_12 C 0.9535(2) 0.3833(2) 0.9844(2)
C15_12 C 0.9582(3) 0.3412(2) 0.9658(3)
C16_12 C 0.9533(5) 0.2670(4) 0.9711(5)
H18_12 H 0.9507 0.2438 0.9869
C17_12 C 0.9437(4) 0.3070(3) 0.9854(4)
C18_12 C 0.9767(3) 0.3375(3) 0.9282(3)
H20_12 H 0.9862 0.3610 0.9157
C19_12 C 0.9820(4) 0.2998(3) 0.9078(5)
H21_12 H 0.9941 0.2980 0.8823
C20_12 C 0.9680(5) 0.2665(5) 0.9283(5)
H22_12 H 0.9676 0.2418 0.9145
O9_8 O 0.96557(14) 0.47120(14) 0.91182(13)
C28_8 C 0.9844(2) 0.4535(2) 0.8833(2)
C29_8 C 0.9658(3) 0.4582(3) 0.8412(2)
C30_8 C 0.9711(5) 0.4533(5) 0.7670(4)
H28_8 H 0.9869 0.4507 0.7438
C31_8 C 0.9854(4) 0.4437(4) 0.8070(3)
C32_8 C 0.9282(3) 0.4767(3) 0.8375(3)
H30_8 H 0.9157 0.4862 0.8610
C33_8 C 0.9078(5) 0.4820(4) 0.7998(3)
H31_8 H 0.8823 0.4941 0.7980
C34_8 C 0.9283(5) 0.4680(5) 0.7665(5)
H32_8 H 0.9145 0.4676 0.7418
Cd4_8 Cd 0.93673(2) 0.56327(2) 0.93673(2)
O16_8 O 0.97314(11) 0.52686(11) 0.97314(11)
O18_12 O 0.91182(13) 0.46557(14) 0.97120(14)
O14_17 O 0.61535(15) 0.01704(15) 0.06688(17)
H39_17 H 0.6900 0.0083 0.0726
O5_13 O 0.38465(15) 0.01704(15) 0.93312(17)
H19_13 H 0.3100 0.0083 0.9274
C42_17 C 0.6167(2) 0.9844(2) 0.0465(2)
C43_17 C 0.6588(2) 0.9658(3) 0.0418(3)
C44_17 C 0.7330(4) 0.9711(5) 0.0467(5)
H38_17 H 0.7562 0.9869 0.0493
C45_17 C 0.6930(3) 0.9854(4) 0.0563(4)
C46_17 C 0.6625(3) 0.9282(3) 0.0233(3)
H40_17 H 0.6390 0.9157 0.0138
C47_17 C 0.7002(3) 0.9078(5) 0.0180(4)
H41_17 H 0.7020 0.8823 0.0059
C48_17 C 0.7335(5) 0.9283(5) 0.0320(5)
H42_17 H 0.7582 0.9145 0.0324
O4_13 O 0.41182(13) 0.96557(14) 0.97120(14)
C14_13 C 0.3833(2) 0.9844(2) 0.9535(2)
C15_13 C 0.3412(2) 0.9658(3) 0.9582(3)
C16_13 C 0.2670(4) 0.9711(5) 0.9533(5)
H18_13 H 0.2438 0.9869 0.9507
C17_13 C 0.3070(3) 0.9854(4) 0.9437(4)
C18_13 C 0.3375(3) 0.9282(3) 0.9767(3)
H20_13 H 0.3610 0.9157 0.9862
C19_13 C 0.2998(3) 0.9078(5) 0.9820(4)
H21_13 H 0.2980 0.8823 0.9941
C20_13 C 0.2665(5) 0.9283(5) 0.9680(5)
H22_13 H 0.2418 0.9145 0.9676
O18_13 O 0.46557(14) 0.97120(14) 0.91182(13)
O4_14 O 0.08818(13) 0.46557(14) 0.02880(14)
O5_14 O 0.11535(15) 0.51704(15) 0.06688(17)
C14_14 C 0.1167(2) 0.4844(2) 0.0465(2)
C15_14 C 0.1588(2) 0.4658(3) 0.0418(3)
C16_14 C 0.2330(4) 0.4711(5) 0.0467(5)
H18_14 H 0.2562 0.4869 0.0493
C17_14 C 0.1930(3) 0.4854(4) 0.0563(4)
H19_14 H 0.1900 0.5083 0.0726
C18_14 C 0.1625(3) 0.4282(3) 0.0233(3)
H20_14 H 0.1390 0.4157 0.0138
C19_14 C 0.2002(3) 0.4078(5) 0.0180(4)
H21_14 H 0.2020 0.3823 0.0059
C20_14 C 0.2335(5) 0.4283(5) 0.0320(5)
H22_14 H 0.2582 0.4145 0.0324
O18_14 O 0.03443(14) 0.47120(14) 0.08818(13)
O14_18 O 0.88465(15) 0.51704(15) 0.93312(17)
C42_18 C 0.8833(2) 0.4844(2) 0.9535(2)
C43_18 C 0.8412(2) 0.4658(3) 0.9582(3)
C44_18 C 0.7670(4) 0.4711(5) 0.9533(5)
H38_18 H 0.7438 0.4869 0.9507
C45_18 C 0.8070(3) 0.4854(4) 0.9437(4)
H39_18 H 0.8100 0.5083 0.9274
C46_18 C 0.8375(3) 0.4282(3) 0.9767(3)
H40_18 H 0.8610 0.4157 0.9862
C47_18 C 0.7998(3) 0.4078(5) 0.9820(4)
H41_18 H 0.7980 0.3823 0.9941
C48_18 C 0.7665(5) 0.4283(5) 0.9680(5)
H42_18 H 0.7418 0.4145 0.9676
O4_15 O 0.58818(13) 0.53443(14) 0.47120(14)
O5_15 O 0.61535(15) 0.48296(15) 0.43312(17)
C14_15 C 0.6167(2) 0.5156(2) 0.4535(2)
C15_15 C 0.6588(2) 0.5342(3) 0.4582(3)
C16_15 C 0.7330(4) 0.5289(5) 0.4533(5)
H18_15 H 0.7562 0.5131 0.4507
C17_15 C 0.6930(3) 0.5146(4) 0.4437(4)
H19_15 H 0.6900 0.4917 0.4274
C18_15 C 0.6625(3) 0.5718(3) 0.4767(3)
H20_15 H 0.6390 0.5843 0.4862
C19_15 C 0.7002(3) 0.5922(5) 0.4820(4)
H21_15 H 0.7020 0.6177 0.4941
C20_15 C 0.7335(5) 0.5717(5) 0.4680(5)
H22_15 H 0.7582 0.5855 0.4676
O14_19 O 0.38465(15) 0.48296(15) 0.56688(17)
C42_19 C 0.3833(2) 0.5156(2) 0.5465(2)
C43_19 C 0.3412(2) 0.5342(3) 0.5418(3)
C44_19 C 0.2670(4) 0.5289(5) 0.5467(5)
H38_19 H 0.2438 0.5131 0.5493
C45_19 C 0.3070(3) 0.5146(4) 0.5563(4)
H39_19 H 0.3100 0.4917 0.5726
C46_19 C 0.3375(3) 0.5718(3) 0.5233(3)
H40_19 H 0.3610 0.5843 0.5138
C47_19 C 0.2998(3) 0.5922(5) 0.5180(4)
H41_19 H 0.2980 0.6177 0.5059
C48_19 C 0.2665(5) 0.5717(5) 0.5320(5)
H42_19 H 0.2418 0.5855 0.5324
O18_15 O 0.53443(14) 0.52880(14) 0.41182(13)
C42_20 C 0.1167(2) 0.0156(2) 0.4535(2)
C43_20 C 0.1588(2) 0.0342(3) 0.4582(3)
C44_20 C 0.2330(4) 0.0289(5) 0.4533(5)
H38_20 H 0.2562 0.0131 0.4507
C45_20 C 0.1930(3) 0.0146(4) 0.4437(4)
C46_20 C 0.1625(3) 0.0718(3) 0.4767(3)
H40_20 H 0.1390 0.0843 0.4862
C47_20 C 0.2002(3) 0.0922(5) 0.4820(4)
H41_20 H 0.2020 0.1177 0.4941
C48_20 C 0.2335(5) 0.0717(5) 0.4680(5)
H42_20 H 0.2582 0.0855 0.4676
O14_20 O 0.11535(15) 0.98296(15) 0.43312(17)
H39_20 H 0.1900 0.9917 0.4274
O4_16 O 0.91182(13) 0.03443(14) 0.52880(14)
C14_16 C 0.8833(2) 0.0156(2) 0.5465(2)
C15_16 C 0.8412(2) 0.0342(3) 0.5418(3)
C16_16 C 0.7670(4) 0.0289(5) 0.5467(5)
H18_16 H 0.7438 0.0131 0.5493
C17_16 C 0.8070(3) 0.0146(4) 0.5563(4)
C18_16 C 0.8375(3) 0.0718(3) 0.5233(3)
H20_16 H 0.8610 0.0843 0.5138
C19_16 C 0.7998(3) 0.0922(5) 0.5180(4)
H21_16 H 0.7980 0.1177 0.5059
C20_16 C 0.7665(5) 0.0717(5) 0.5320(5)
H22_16 H 0.7418 0.0855 0.5324
O18_16 O 0.96557(14) 0.02880(14) 0.58818(13)
O5_16 O 0.88465(15) 0.98296(15) 0.56688(17)
H19_16 H 0.8100 0.9917 0.5726
O14_21 O 0.51704(15) 0.93312(17) 0.88465(15)
C42_21 C 0.4844(2) 0.9535(2) 0.8833(2)
C43_21 C 0.4658(3) 0.9582(3) 0.8412(2)
C44_21 C 0.4711(5) 0.9533(5) 0.7670(4)
H38_21 H 0.4869 0.9507 0.7438
C45_21 C 0.4854(4) 0.9437(4) 0.8070(3)
H39_21 H 0.5083 0.9274 0.8100
C46_21 C 0.4282(3) 0.9767(3) 0.8375(3)
H40_21 H 0.4157 0.9862 0.8610
C47_21 C 0.4078(5) 0.9820(4) 0.7998(3)
H41_21 H 0.3823 0.9941 0.7980
C48_21 C 0.4283(5) 0.9680(5) 0.7665(5)
H42_21 H 0.4145 0.9676 0.7418
O14_22 O 0.01704(15) 0.06688(17) 0.61535(15)
H39_22 H 0.0083 0.0726 0.6900
C42_22 C 0.9844(2) 0.0465(2) 0.6167(2)
C43_22 C 0.9658(3) 0.0418(3) 0.6588(2)
C44_22 C 0.9711(5) 0.0467(5) 0.7330(4)
H38_22 H 0.9869 0.0493 0.7562
C45_22 C 0.9854(4) 0.0563(4) 0.6930(3)
C46_22 C 0.9282(3) 0.0233(3) 0.6625(3)
H40_22 H 0.9157 0.0138 0.6390
C47_22 C 0.9078(5) 0.0180(4) 0.7002(3)
H41_22 H 0.8823 0.0059 0.7020
C48_22 C 0.9283(5) 0.0320(5) 0.7335(5)
H42_22 H 0.9145 0.0324 0.7582
C42_23 C 0.0156(2) 0.4535(2) 0.1167(2)
C43_23 C 0.0342(3) 0.4582(3) 0.1588(2)
C44_23 C 0.0289(5) 0.4533(5) 0.2330(4)
H38_23 H 0.0131 0.4507 0.2562
C45_23 C 0.0146(4) 0.4437(4) 0.1930(3)
C46_23 C 0.0718(3) 0.4767(3) 0.1625(3)
H40_23 H 0.0843 0.4862 0.1390
C47_23 C 0.0922(5) 0.4820(4) 0.2002(3)
H41_23 H 0.1177 0.4941 0.2020
C48_23 C 0.0717(5) 0.4680(5) 0.2335(5)
H42_23 H 0.0855 0.4676 0.2582
O14_23 O 0.98296(15) 0.43312(17) 0.11535(15)
H39_23 H 0.9917 0.4274 0.1900
O14_24 O 0.48296(15) 0.56688(17) 0.38465(15)
C42_24 C 0.5156(2) 0.5465(2) 0.3833(2)
C43_24 C 0.5342(3) 0.5418(3) 0.3412(2)
C44_24 C 0.5289(5) 0.5467(5) 0.2670(4)
H38_24 H 0.5131 0.5493 0.2438
C45_24 C 0.5146(4) 0.5563(4) 0.3070(3)
H39_24 H 0.4917 0.5726 0.3100
C46_24 C 0.5718(3) 0.5233(3) 0.3375(3)
H40_24 H 0.5843 0.5138 0.3610
C47_24 C 0.5922(5) 0.5180(4) 0.2998(3)
H41_24 H 0.6177 0.5059 0.2980
C48_24 C 0.5717(5) 0.5320(5) 0.2665(5)
H42_24 H 0.5855 0.5324 0.2418
N1_5 N 0.64742(15) 0.14742(15) 0.14742(15)
C4_5 C 0.6368(3) 0.1101(2) 0.1685(2)
H2_5 H 0.6202 0.1164 0.1921
H3_5 H 0.6613 0.0967 0.1779
C9_5 C 0.6685(2) 0.1368(3) 0.1101(2)
H8_5 H 0.6921 0.1202 0.1164
H9_5 H 0.6779 0.1613 0.0967
C10_5 C 0.6101(2) 0.1685(2) 0.1368(3)
H10_5 H 0.6164 0.1921 0.1202
H11_5 H 0.5967 0.1779 0.1613
N2_5 N 0.60258(15) 0.10258(15) 0.10258(15)
C11_5 C 0.6399(2) 0.1132(3) 0.0815(2)
H12_5 H 0.6336 0.1298 0.0579
H13_5 H 0.6533 0.0887 0.0721
C12_5 C 0.6132(3) 0.0815(2) 0.1399(2)
H14_5 H 0.6298 0.0579 0.1336
H15_5 H 0.5887 0.0721 0.1533
C13_5 C 0.5815(2) 0.1399(2) 0.1132(3)
H16_5 H 0.5579 0.1336 0.1298
H17_5 H 0.5721 0.1533 0.0887
Al2_5 Al 0.71947(5) 0.28053(5) 0.21947(5)
O4_17 O 0.66182(13) 0.27880(14) 0.21557(14)
O5_17 O 0.63465(15) 0.31688(17) 0.26704(15)
C14_17 C 0.6333(2) 0.2965(2) 0.2344(2)
C15_17 C 0.5912(2) 0.2918(3) 0.2158(3)
C16_17 C 0.5170(4) 0.2967(5) 0.2211(5)
H18_17 H 0.4938 0.2993 0.2369
C17_17 C 0.5570(3) 0.3063(4) 0.2354(4)
H19_17 H 0.5600 0.3226 0.2583
C18_17 C 0.5875(3) 0.2733(3) 0.1782(3)
H20_17 H 0.6110 0.2638 0.1657
C19_17 C 0.5498(3) 0.2680(4) 0.1578(5)
H21_17 H 0.5480 0.2559 0.1323
C20_17 C 0.5165(5) 0.2820(5) 0.1783(5)
H22_17 H 0.4918 0.2824 0.1645
O9_9 O 0.72120(14) 0.28443(14) 0.16182(13)
O10_5 O 0.68312(17) 0.23296(15) 0.13465(15)
C28_9 C 0.7035(2) 0.2656(2) 0.1333(2)
C29_9 C 0.7082(3) 0.2842(3) 0.0912(2)
C30_9 C 0.7033(5) 0.2789(5) 0.0170(4)
C31_9 C 0.6937(4) 0.2646(4) 0.0570(3)
H29_9 H 0.6774 0.2417 0.0600
C32_9 C 0.7267(3) 0.3218(3) 0.0875(3)
H30_9 H 0.7362 0.3343 0.1110
C33_9 C 0.7320(4) 0.3422(5) 0.0498(3)
H31_9 H 0.7441 0.3677 0.0480
C34_9 C 0.7180(5) 0.3217(5) 0.0165(5)
O18_17 O 0.71557(14) 0.33818(13) 0.22120(14)
O21_5 O 0.56688(17) 0.11535(15) 0.01704(15)
H28_9 H 0.7007 0.2631 0.9938
H32_9 H 0.7176 0.3355 0.9918
Al6_5 Al 0.53053(5) 0.03053(5) 0.96947(5)
N1_6 N 0.35258(15) 0.35258(15) 0.64742(15)
C4_6 C 0.3632(3) 0.3899(2) 0.6685(2)
H2_6 H 0.3798 0.3836 0.6921
H3_6 H 0.3387 0.4033 0.6779
C9_6 C 0.3315(2) 0.3632(3) 0.6101(2)
H8_6 H 0.3079 0.3798 0.6164
H9_6 H 0.3221 0.3387 0.5967
C10_6 C 0.3899(2) 0.3315(2) 0.6368(3)
H10_6 H 0.3836 0.3079 0.6202
H11_6 H 0.4033 0.3221 0.6613
N2_6 N 0.39742(15) 0.39742(15) 0.60258(15)
C11_6 C 0.3601(2) 0.3868(3) 0.5815(2)
H12_6 H 0.3664 0.3702 0.5579
H13_6 H 0.3467 0.4113 0.5721
C12_6 C 0.3868(3) 0.4185(2) 0.6399(2)
H14_6 H 0.3702 0.4421 0.6336
H15_6 H 0.4113 0.4279 0.6533
C13_6 C 0.4185(2) 0.3601(2) 0.6132(3)
H16_6 H 0.4421 0.3664 0.6298
H17_6 H 0.4279 0.3467 0.5887
Al2_6 Al 0.28053(5) 0.21947(5) 0.71947(5)
O4_18 O 0.33818(13) 0.22120(14) 0.71557(14)
O5_18 O 0.36535(15) 0.18312(17) 0.76704(15)
C14_18 C 0.3667(2) 0.2035(2) 0.7344(2)
C15_18 C 0.4088(2) 0.2082(3) 0.7158(3)
C16_18 C 0.4830(4) 0.2033(5) 0.7211(5)
H18_18 H 0.5062 0.2007 0.7369
C17_18 C 0.4430(3) 0.1937(4) 0.7354(4)
H19_18 H 0.4400 0.1774 0.7583
C18_18 C 0.4125(3) 0.2267(3) 0.6782(3)
H20_18 H 0.3890 0.2362 0.6657
C19_18 C 0.4502(3) 0.2320(4) 0.6578(5)
H21_18 H 0.4520 0.2441 0.6323
C20_18 C 0.4835(5) 0.2180(5) 0.6783(5)
H22_18 H 0.5082 0.2176 0.6645
O9_10 O 0.27880(14) 0.21557(14) 0.66182(13)
O10_6 O 0.31688(17) 0.26704(15) 0.63465(15)
C28_10 C 0.2965(2) 0.2344(2) 0.6333(2)
C29_10 C 0.2918(3) 0.2158(3) 0.5912(2)
C30_10 C 0.2967(5) 0.2211(5) 0.5170(4)
H28_10 H 0.2993 0.2369 0.4938
C31_10 C 0.3063(4) 0.2354(4) 0.5570(3)
H29_10 H 0.3226 0.2583 0.5600
C32_10 C 0.2733(3) 0.1782(3) 0.5875(3)
H30_10 H 0.2638 0.1657 0.6110
C33_10 C 0.2680(4) 0.1578(5) 0.5498(3)
H31_10 H 0.2559 0.1323 0.5480
C34_10 C 0.2820(5) 0.1783(5) 0.5165(5)
H32_10 H 0.2824 0.1645 0.4918
Al6_6 Al 0.46947(5) 0.46947(5) 0.46947(5)
O18_18 O 0.28443(14) 0.16182(13) 0.72120(14)
O21_6 O 0.43312(17) 0.38465(15) 0.51704(15)
H18_19 H 0.0062 0.7993 0.7631
H22_19 H 0.0082 0.7824 0.8355
H28_11 H 0.7993 0.7631 0.0062
H32_11 H 0.7824 0.8355 0.0082
Al6_7 Al 0.96947(5) 0.53053(5) 0.03053(5)
N1_7 N 0.85258(15) 0.64742(15) 0.85258(15)
C4_7 C 0.8632(3) 0.6101(2) 0.8315(2)
H2_7 H 0.8798 0.6164 0.8079
H3_7 H 0.8387 0.5967 0.8221
C9_7 C 0.8315(2) 0.6368(3) 0.8899(2)
H8_7 H 0.8079 0.6202 0.8836
H9_7 H 0.8221 0.6613 0.9033
C10_7 C 0.8899(2) 0.6685(2) 0.8632(3)
H10_7 H 0.8836 0.6921 0.8798
H11_7 H 0.9033 0.6779 0.8387
N2_7 N 0.89742(15) 0.60258(15) 0.89742(15)
C11_7 C 0.8601(2) 0.6132(3) 0.9185(2)
H12_7 H 0.8664 0.6298 0.9421
H13_7 H 0.8467 0.5887 0.9279
C12_7 C 0.8868(3) 0.5815(2) 0.8601(2)
H14_7 H 0.8702 0.5579 0.8664
H15_7 H 0.9113 0.5721 0.8467
C13_7 C 0.9185(2) 0.6399(2) 0.8868(3)
H16_7 H 0.9421 0.6336 0.8702
H17_7 H 0.9279 0.6533 0.9113
Al2_7 Al 0.78053(5) 0.78053(5) 0.78053(5)
O4_19 O 0.83818(13) 0.77880(14) 0.78443(14)
O5_19 O 0.86535(15) 0.81688(17) 0.73296(15)
C14_19 C 0.8667(2) 0.7965(2) 0.7656(2)
C15_19 C 0.9088(2) 0.7918(3) 0.7842(3)
C16_19 C 0.9830(4) 0.7967(5) 0.7789(5)
C17_19 C 0.9430(3) 0.8063(4) 0.7646(4)
H19_19 H 0.9400 0.8226 0.7417
C18_19 C 0.9125(3) 0.7733(3) 0.8218(3)
H20_19 H 0.8890 0.7638 0.8343
C19_19 C 0.9502(3) 0.7680(4) 0.8422(5)
H21_19 H 0.9520 0.7559 0.8677
C20_19 C 0.9835(5) 0.7820(5) 0.8217(5)
O9_11 O 0.77880(14) 0.78443(14) 0.83818(13)
O10_7 O 0.81688(17) 0.73296(15) 0.86535(15)
C28_11 C 0.7965(2) 0.7656(2) 0.8667(2)
C29_11 C 0.7918(3) 0.7842(3) 0.9088(2)
C30_11 C 0.7967(5) 0.7789(5) 0.9830(4)
C31_11 C 0.8063(4) 0.7646(4) 0.9430(3)
H29_11 H 0.8226 0.7417 0.9400
C32_11 C 0.7733(3) 0.8218(3) 0.9125(3)
H30_11 H 0.7638 0.8343 0.8890
C33_11 C 0.7680(4) 0.8422(5) 0.9502(3)
H31_11 H 0.7559 0.8677 0.9520
C34_11 C 0.7820(5) 0.8217(5) 0.9835(5)
O18_19 O 0.78443(14) 0.83818(13) 0.77880(14)
O21_7 O 0.93312(17) 0.61535(15) 0.98296(15)
N1_8 N 0.14742(15) 0.85258(15) 0.35258(15)
C4_8 C 0.1368(3) 0.8899(2) 0.3315(2)
H2_8 H 0.1202 0.8836 0.3079
H3_8 H 0.1613 0.9033 0.3221
C9_8 C 0.1685(2) 0.8632(3) 0.3899(2)
H8_8 H 0.1921 0.8798 0.3836
H9_8 H 0.1779 0.8387 0.4033
C10_8 C 0.1101(2) 0.8315(2) 0.3632(3)
H10_8 H 0.1164 0.8079 0.3798
H11_8 H 0.0967 0.8221 0.3387
N2_8 N 0.10258(15) 0.89742(15) 0.39742(15)
C11_8 C 0.1399(2) 0.8868(3) 0.4185(2)
H12_8 H 0.1336 0.8702 0.4421
H13_8 H 0.1533 0.9113 0.4279
C12_8 C 0.1132(3) 0.9185(2) 0.3601(2)
H14_8 H 0.1298 0.9421 0.3664
H15_8 H 0.0887 0.9279 0.3467
C13_8 C 0.0815(2) 0.8601(2) 0.3868(3)
H16_8 H 0.0579 0.8664 0.3702
H17_8 H 0.0721 0.8467 0.4113
Al2_8 Al 0.21947(5) 0.71947(5) 0.28053(5)
O4_20 O 0.16182(13) 0.72120(14) 0.28443(14)
O5_20 O 0.13465(15) 0.68312(17) 0.23296(15)
C14_20 C 0.1333(2) 0.7035(2) 0.2656(2)
C15_20 C 0.0912(2) 0.7082(3) 0.2842(3)
C16_20 C 0.0170(4) 0.7033(5) 0.2789(5)
C17_20 C 0.0570(3) 0.6937(4) 0.2646(4)
H19_20 H 0.0600 0.6774 0.2417
C18_20 C 0.0875(3) 0.7267(3) 0.3218(3)
H20_20 H 0.1110 0.7362 0.3343
C19_20 C 0.0498(3) 0.7320(4) 0.3422(5)
H21_20 H 0.0480 0.7441 0.3677
C20_20 C 0.0165(5) 0.7180(5) 0.3217(5)
O9_12 O 0.22120(14) 0.71557(14) 0.33818(13)
O10_8 O 0.18312(17) 0.76704(15) 0.36535(15)
C28_12 C 0.2035(2) 0.7344(2) 0.3667(2)
C29_12 C 0.2082(3) 0.7158(3) 0.4088(2)
C30_12 C 0.2033(5) 0.7211(5) 0.4830(4)
H28_12 H 0.2007 0.7369 0.5062
C31_12 C 0.1937(4) 0.7354(4) 0.4430(3)
H29_12 H 0.1774 0.7583 0.4400
C32_12 C 0.2267(3) 0.6782(3) 0.4125(3)
H30_12 H 0.2362 0.6657 0.3890
C33_12 C 0.2320(4) 0.6578(5) 0.4502(3)
H31_12 H 0.2441 0.6323 0.4520
C34_12 C 0.2180(5) 0.6783(5) 0.4835(5)
H32_12 H 0.2176 0.6645 0.5082
Al6_8 Al 0.03053(5) 0.96947(5) 0.53053(5)
O18_20 O 0.21557(14) 0.66182(13) 0.27880(14)
O21_8 O 0.06688(17) 0.88465(15) 0.48296(15)
H18_20 H 0.9938 0.7007 0.2631
H22_20 H 0.9918 0.7176 0.3355
O14_25 O 0.76704(15) 0.36535(15) 0.18312(17)
C42_25 C 0.7344(2) 0.3667(2) 0.2035(2)
C43_25 C 0.7158(3) 0.4088(2) 0.2082(3)
C44_25 C 0.7211(5) 0.4830(4) 0.2033(5)
H38_25 H 0.7369 0.5062 0.2007
C45_25 C 0.7354(4) 0.4430(3) 0.1937(4)
H39_25 H 0.7583 0.4400 0.1774
C46_25 C 0.6782(3) 0.4125(3) 0.2267(3)
H40_25 H 0.6657 0.3890 0.2362
C47_25 C 0.6578(5) 0.4502(3) 0.2320(4)
H41_25 H 0.6323 0.4520 0.2441
C48_25 C 0.6783(5) 0.4835(5) 0.2180(5)
H42_25 H 0.6645 0.5082 0.2176
O14_26 O 0.26704(15) 0.63465(15) 0.31688(17)
C42_26 C 0.2344(2) 0.6333(2) 0.2965(2)
C43_26 C 0.2158(3) 0.5912(2) 0.2918(3)
C44_26 C 0.2211(5) 0.5170(4) 0.2967(5)
H38_26 H 0.2369 0.4938 0.2993
C45_26 C 0.2354(4) 0.5570(3) 0.3063(4)
H39_26 H 0.2583 0.5600 0.3226
C46_26 C 0.1782(3) 0.5875(3) 0.2733(3)
H40_26 H 0.1657 0.6110 0.2638
C47_26 C 0.1578(5) 0.5498(3) 0.2680(4)
H41_26 H 0.1323 0.5480 0.2559
C48_26 C 0.1783(5) 0.5165(5) 0.2820(5)
H42_26 H 0.1645 0.4918 0.2824
O14_27 O 0.23296(15) 0.13465(15) 0.68312(17)
C42_27 C 0.2656(2) 0.1333(2) 0.7035(2)
C43_27 C 0.2842(3) 0.0912(2) 0.7082(3)
C44_27 C 0.2789(5) 0.0170(4) 0.7033(5)
C45_27 C 0.2646(4) 0.0570(3) 0.6937(4)
H39_27 H 0.2417 0.0600 0.6774
C46_27 C 0.3218(3) 0.0875(3) 0.7267(3)
H40_27 H 0.3343 0.1110 0.7362
C47_27 C 0.3422(5) 0.0498(3) 0.7320(4)
H41_27 H 0.3677 0.0480 0.7441
C48_27 C 0.3217(5) 0.0165(5) 0.7180(5)
H38_27 H 0.2631 0.9938 0.7007
H42_27 H 0.3355 0.9918 0.7176
H38_28 H 0.7631 0.0062 0.7993
H42_28 H 0.8355 0.0082 0.7824
O14_28 O 0.73296(15) 0.86535(15) 0.81688(17)
C42_28 C 0.7656(2) 0.8667(2) 0.7965(2)
C43_28 C 0.7842(3) 0.9088(2) 0.7918(3)
C44_28 C 0.7789(5) 0.9830(4) 0.7967(5)
C45_28 C 0.7646(4) 0.9430(3) 0.8063(4)
H39_28 H 0.7417 0.9400 0.8226
C46_28 C 0.8218(3) 0.9125(3) 0.7733(3)
H40_28 H 0.8343 0.8890 0.7638
C47_28 C 0.8422(5) 0.9502(3) 0.7680(4)
H41_28 H 0.8677 0.9520 0.7559
C48_28 C 0.8217(5) 0.9835(5) 0.7820(5)
O11_9 O 0.47120(14) 0.41182(13) 0.46557(14)
C35_9 C 0.4535(2) 0.3833(2) 0.4844(2)
C36_9 C 0.4582(3) 0.3412(2) 0.4658(3)
C37_9 C 0.4533(5) 0.2670(4) 0.4711(5)
H33_9 H 0.4507 0.2438 0.4869
C38_9 C 0.4437(4) 0.3070(3) 0.4854(4)
H34_9 H 0.4274 0.3100 0.5083
C39_9 C 0.4767(3) 0.3375(3) 0.4282(3)
H35_9 H 0.4862 0.3610 0.4157
C40_9 C 0.4820(4) 0.2998(3) 0.4078(5)
H36_9 H 0.4941 0.2980 0.3823
C41_9 C 0.4680(5) 0.2665(5) 0.4283(5)
H37_9 H 0.4676 0.2418 0.4145
H34_10 H 0.5726 0.1900 0.0083
O11_10 O 0.52880(14) 0.08818(13) 0.96557(14)
C35_10 C 0.5465(2) 0.1167(2) 0.9844(2)
C36_10 C 0.5418(3) 0.1588(2) 0.9658(3)
C37_10 C 0.5467(5) 0.2330(4) 0.9711(5)
H33_10 H 0.5493 0.2562 0.9869
C38_10 C 0.5563(4) 0.1930(3) 0.9854(4)
C39_10 C 0.5233(3) 0.1625(3) 0.9282(3)
H35_10 H 0.5138 0.1390 0.9157
C40_10 C 0.5180(4) 0.2002(3) 0.9078(5)
H36_10 H 0.5059 0.2020 0.8823
C41_10 C 0.5320(5) 0.2335(5) 0.9283(5)
H37_10 H 0.5324 0.2582 0.9145
O11_11 O 0.97120(14) 0.58818(13) 0.03443(14)
C35_11 C 0.9535(2) 0.6167(2) 0.0156(2)
C36_11 C 0.9582(3) 0.6588(2) 0.0342(3)
C37_11 C 0.9533(5) 0.7330(4) 0.0289(5)
H33_11 H 0.9507 0.7562 0.0131
C38_11 C 0.9437(4) 0.6930(3) 0.0146(4)
C39_11 C 0.9767(3) 0.6625(3) 0.0718(3)
H35_11 H 0.9862 0.6390 0.0843
C40_11 C 0.9820(4) 0.7002(3) 0.0922(5)
H36_11 H 0.9941 0.7020 0.1177
C41_11 C 0.9680(5) 0.7335(5) 0.0717(5)
H37_11 H 0.9676 0.7582 0.0855
H34_11 H 0.9274 0.6900 0.9917
O11_12 O 0.02880(14) 0.91182(13) 0.53443(14)
C35_12 C 0.0465(2) 0.8833(2) 0.5156(2)
C36_12 C 0.0418(3) 0.8412(2) 0.5342(3)
C37_12 C 0.0467(5) 0.7670(4) 0.5289(5)
H33_12 H 0.0493 0.7438 0.5131
C38_12 C 0.0563(4) 0.8070(3) 0.5146(4)
H34_12 H 0.0726 0.8100 0.4917
C39_12 C 0.0233(3) 0.8375(3) 0.5718(3)
H35_12 H 0.0138 0.8610 0.5843
C40_12 C 0.0180(4) 0.7998(3) 0.5922(5)
H36_12 H 0.0059 0.7980 0.6177
C41_12 C 0.0320(5) 0.7665(5) 0.5717(5)
H37_12 H 0.0324 0.7418 0.5855
O4_21 O 0.41182(13) 0.46557(14) 0.47120(14)
O5_21 O 0.38465(15) 0.51704(15) 0.43312(17)
C14_21 C 0.3833(2) 0.4844(2) 0.4535(2)
C15_21 C 0.3412(2) 0.4658(3) 0.4582(3)
C16_21 C 0.2670(4) 0.4711(5) 0.4533(5)
H18_21 H 0.2438 0.4869 0.4507
C17_21 C 0.3070(3) 0.4854(4) 0.4437(4)
H19_21 H 0.3100 0.5083 0.4274
C18_21 C 0.3375(3) 0.4282(3) 0.4767(3)
H20_21 H 0.3610 0.4157 0.4862
C19_21 C 0.2998(3) 0.4078(5) 0.4820(4)
H21_21 H 0.2980 0.3823 0.4941
C20_21 C 0.2665(5) 0.4283(5) 0.4680(5)
H22_21 H 0.2418 0.4145 0.4676
O18_21 O 0.46557(14) 0.47120(14) 0.41182(13)
O5_22 O 0.11535(15) 0.01704(15) 0.56688(17)
H19_22 H 0.1900 0.0083 0.5726
O4_22 O 0.08818(13) 0.96557(14) 0.52880(14)
C14_22 C 0.1167(2) 0.9844(2) 0.5465(2)
C15_22 C 0.1588(2) 0.9658(3) 0.5418(3)
C16_22 C 0.2330(4) 0.9711(5) 0.5467(5)
H18_22 H 0.2562 0.9869 0.5493
C17_22 C 0.1930(3) 0.9854(4) 0.5563(4)
C18_22 C 0.1625(3) 0.9282(3) 0.5233(3)
H20_22 H 0.1390 0.9157 0.5138
C19_22 C 0.2002(3) 0.9078(5) 0.5180(4)
H21_22 H 0.2020 0.8823 0.5059
C20_22 C 0.2335(5) 0.9283(5) 0.5320(5)
H22_22 H 0.2582 0.9145 0.5324
O18_22 O 0.03443(14) 0.97120(14) 0.58818(13)
O4_23 O 0.58818(13) 0.03443(14) 0.97120(14)
C14_23 C 0.6167(2) 0.0156(2) 0.9535(2)
C15_23 C 0.6588(2) 0.0342(3) 0.9582(3)
C16_23 C 0.7330(4) 0.0289(5) 0.9533(5)
H18_23 H 0.7562 0.0131 0.9507
C17_23 C 0.6930(3) 0.0146(4) 0.9437(4)
C18_23 C 0.6625(3) 0.0718(3) 0.9767(3)
H20_23 H 0.6390 0.0843 0.9862
C19_23 C 0.7002(3) 0.0922(5) 0.9820(4)
H21_23 H 0.7020 0.1177 0.9941
C20_23 C 0.7335(5) 0.0717(5) 0.9680(5)
H22_23 H 0.7582 0.0855 0.9676
O18_23 O 0.53443(14) 0.02880(14) 0.91182(13)
O5_23 O 0.61535(15) 0.98296(15) 0.93312(17)
H19_23 H 0.6900 0.9917 0.9274
O4_24 O 0.91182(13) 0.53443(14) 0.02880(14)
O5_24 O 0.88465(15) 0.48296(15) 0.06688(17)
C14_24 C 0.8833(2) 0.5156(2) 0.0465(2)
C15_24 C 0.8412(2) 0.5342(3) 0.0418(3)
C16_24 C 0.7670(4) 0.5289(5) 0.0467(5)
H18_24 H 0.7438 0.5131 0.0493
C17_24 C 0.8070(3) 0.5146(4) 0.0563(4)
H19_24 H 0.8100 0.4917 0.0726
C18_24 C 0.8375(3) 0.5718(3) 0.0233(3)
H20_24 H 0.8610 0.5843 0.0138
C19_24 C 0.7998(3) 0.5922(5) 0.0180(4)
H21_24 H 0.7980 0.6177 0.0059
C20_24 C 0.7665(5) 0.5717(5) 0.0320(5)
H22_24 H 0.7418 0.5855 0.0324
O18_24 O 0.96557(14) 0.52880(14) 0.08818(13)
O14_29 O 0.51704(15) 0.43312(17) 0.38465(15)
C42_29 C 0.4844(2) 0.4535(2) 0.3833(2)
C43_29 C 0.4658(3) 0.4582(3) 0.3412(2)
C44_29 C 0.4711(5) 0.4533(5) 0.2670(4)
H38_29 H 0.4869 0.4507 0.2438
C45_29 C 0.4854(4) 0.4437(4) 0.3070(3)
H39_29 H 0.5083 0.4274 0.3100
C46_29 C 0.4282(3) 0.4767(3) 0.3375(3)
H40_29 H 0.4157 0.4862 0.3610
C47_29 C 0.4078(5) 0.4820(4) 0.2998(3)
H41_29 H 0.3823 0.4941 0.2980
C48_29 C 0.4283(5) 0.4680(5) 0.2665(5)
H42_29 H 0.4145 0.4676 0.2418
O14_30 O 0.01704(15) 0.56688(17) 0.11535(15)
H39_30 H 0.0083 0.5726 0.1900
C42_30 C 0.9844(2) 0.5465(2) 0.1167(2)
C43_30 C 0.9658(3) 0.5418(3) 0.1588(2)
C44_30 C 0.9711(5) 0.5467(5) 0.2330(4)
H38_30 H 0.9869 0.5493 0.2562
C45_30 C 0.9854(4) 0.5563(4) 0.1930(3)
C46_30 C 0.9282(3) 0.5233(3) 0.1625(3)
H40_30 H 0.9157 0.5138 0.1390
C47_30 C 0.9078(5) 0.5180(4) 0.2002(3)
H41_30 H 0.8823 0.5059 0.2020
C48_30 C 0.9283(5) 0.5320(5) 0.2335(5)
H42_30 H 0.9145 0.5324 0.2582
C42_31 C 0.0156(2) 0.9535(2) 0.6167(2)
C43_31 C 0.0342(3) 0.9582(3) 0.6588(2)
C44_31 C 0.0289(5) 0.9533(5) 0.7330(4)
H38_31 H 0.0131 0.9507 0.7562
C45_31 C 0.0146(4) 0.9437(4) 0.6930(3)
C46_31 C 0.0718(3) 0.9767(3) 0.6625(3)
H40_31 H 0.0843 0.9862 0.6390
C47_31 C 0.0922(5) 0.9820(4) 0.7002(3)
H41_31 H 0.1177 0.9941 0.7020
C48_31 C 0.0717(5) 0.9680(5) 0.7335(5)
H42_31 H 0.0855 0.9676 0.7582
O14_31 O 0.98296(15) 0.93312(17) 0.61535(15)
H39_31 H 0.9917 0.9274 0.6900
O14_32 O 0.48296(15) 0.06688(17) 0.88465(15)
C42_32 C 0.5156(2) 0.0465(2) 0.8833(2)
C43_32 C 0.5342(3) 0.0418(3) 0.8412(2)
C44_32 C 0.5289(5) 0.0467(5) 0.7670(4)
H38_32 H 0.5131 0.0493 0.7438
C45_32 C 0.5146(4) 0.0563(4) 0.8070(3)
H39_32 H 0.4917 0.0726 0.8100
C46_32 C 0.5718(3) 0.0233(3) 0.8375(3)
H40_32 H 0.5843 0.0138 0.8610
C47_32 C 0.5922(5) 0.0180(4) 0.7998(3)
H41_32 H 0.6177 0.0059 0.7980
C48_32 C 0.5717(5) 0.0320(5) 0.7665(5)
H42_32 H 0.5855 0.0324 0.7418
N1_9 N 0.14742(15) 0.64742(15) 0.14742(15)
C4_9 C 0.1368(3) 0.6101(2) 0.1685(2)
H2_9 H 0.1202 0.6164 0.1921
H3_9 H 0.1613 0.5967 0.1779
C9_9 C 0.1685(2) 0.6368(3) 0.1101(2)
H8_9 H 0.1921 0.6202 0.1164
H9_9 H 0.1779 0.6613 0.0967
C10_9 C 0.1101(2) 0.6685(2) 0.1368(3)
H10_9 H 0.1164 0.6921 0.1202
H11_9 H 0.0967 0.6779 0.1613
N2_9 N 0.10258(15) 0.60258(15) 0.10258(15)
C11_9 C 0.1399(2) 0.6132(3) 0.0815(2)
H12_9 H 0.1336 0.6298 0.0579
H13_9 H 0.1533 0.5887 0.0721
C12_9 C 0.1132(3) 0.5815(2) 0.1399(2)
H14_9 H 0.1298 0.5579 0.1336
H15_9 H 0.0887 0.5721 0.1533
C13_9 C 0.0815(2) 0.6399(2) 0.1132(3)
H16_9 H 0.0579 0.6336 0.1298
H17_9 H 0.0721 0.6533 0.0887
N1_10 N 0.85258(15) 0.85258(15) 0.64742(15)
C4_10 C 0.8632(3) 0.8899(2) 0.6685(2)
H2_10 H 0.8798 0.8836 0.6921
H3_10 H 0.8387 0.9033 0.6779
C9_10 C 0.8315(2) 0.8632(3) 0.6101(2)
H8_10 H 0.8079 0.8798 0.6164
H9_10 H 0.8221 0.8387 0.5967
C10_10 C 0.8899(2) 0.8315(2) 0.6368(3)
H10_10 H 0.8836 0.8079 0.6202
H11_10 H 0.9033 0.8221 0.6613
N2_10 N 0.89742(15) 0.89742(15) 0.60258(15)
C11_10 C 0.8601(2) 0.8868(3) 0.5815(2)
H12_10 H 0.8664 0.8702 0.5579
H13_10 H 0.8467 0.9113 0.5721
C12_10 C 0.8868(3) 0.9185(2) 0.6399(2)
H14_10 H 0.8702 0.9421 0.6336
H15_10 H 0.9113 0.9279 0.6533
C13_10 C 0.9185(2) 0.8601(2) 0.6132(3)
H16_10 H 0.9421 0.8664 0.6298
H17_10 H 0.9279 0.8467 0.5887
N1_11 N 0.35258(15) 0.14742(15) 0.85258(15)
C4_11 C 0.3632(3) 0.1101(2) 0.8315(2)
H2_11 H 0.3798 0.1164 0.8079
H3_11 H 0.3387 0.0967 0.8221
C9_11 C 0.3315(2) 0.1368(3) 0.8899(2)
H8_11 H 0.3079 0.1202 0.8836
H9_11 H 0.3221 0.1613 0.9033
C10_11 C 0.3899(2) 0.1685(2) 0.8632(3)
H10_11 H 0.3836 0.1921 0.8798
H11_11 H 0.4033 0.1779 0.8387
N2_11 N 0.39742(15) 0.10258(15) 0.89742(15)
C11_11 C 0.3601(2) 0.1132(3) 0.9185(2)
H12_11 H 0.3664 0.1298 0.9421
H13_11 H 0.3467 0.0887 0.9279
C12_11 C 0.3868(3) 0.0815(2) 0.8601(2)
H14_11 H 0.3702 0.0579 0.8664
H15_11 H 0.4113 0.0721 0.8467
C13_11 C 0.4185(2) 0.1399(2) 0.8868(3)
H16_11 H 0.4421 0.1336 0.8702
H17_11 H 0.4279 0.1533 0.9113
N1_12 N 0.64742(15) 0.35258(15) 0.35258(15)
C4_12 C 0.6368(3) 0.3899(2) 0.3315(2)
H2_12 H 0.6202 0.3836 0.3079
H3_12 H 0.6613 0.4033 0.3221
C9_12 C 0.6685(2) 0.3632(3) 0.3899(2)
H8_12 H 0.6921 0.3798 0.3836
H9_12 H 0.6779 0.3387 0.4033
C10_12 C 0.6101(2) 0.3315(2) 0.3632(3)
H10_12 H 0.6164 0.3079 0.3798
H11_12 H 0.5967 0.3221 0.3387
N2_12 N 0.60258(15) 0.39742(15) 0.39742(15)
C11_12 C 0.6399(2) 0.3868(3) 0.4185(2)
H12_12 H 0.6336 0.3702 0.4421
H13_12 H 0.6533 0.4113 0.4279
C12_12 C 0.6132(3) 0.4185(2) 0.3601(2)
H14_12 H 0.6298 0.4421 0.3664
H15_12 H 0.5887 0.4279 0.3467
C13_12 C 0.5815(2) 0.3601(2) 0.3868(3)
H16_12 H 0.5579 0.3664 0.3702
H17_12 H 0.5721 0.3467 0.4113
N1_13 N 0.14742(15) 0.14742(15) 0.64742(15)
C4_13 C 0.1368(3) 0.1101(2) 0.6685(2)
H2_13 H 0.1202 0.1164 0.6921
H3_13 H 0.1613 0.0967 0.6779
C9_13 C 0.1685(2) 0.1368(3) 0.6101(2)
H8_13 H 0.1921 0.1202 0.6164
H9_13 H 0.1779 0.1613 0.5967
C10_13 C 0.1101(2) 0.1685(2) 0.6368(3)
H10_13 H 0.1164 0.1921 0.6202
H11_13 H 0.0967 0.1779 0.6613
N2_13 N 0.10258(15) 0.10258(15) 0.60258(15)
C11_13 C 0.1399(2) 0.1132(3) 0.5815(2)
H12_13 H 0.1336 0.1298 0.5579
H13_13 H 0.1533 0.0887 0.5721
C12_13 C 0.1132(3) 0.0815(2) 0.6399(2)
H14_13 H 0.1298 0.0579 0.6336
H15_13 H 0.0887 0.0721 0.6533
C13_13 C 0.0815(2) 0.1399(2) 0.6132(3)
H16_13 H 0.0579 0.1336 0.6298
H17_13 H 0.0721 0.1533 0.5887
N1_14 N 0.85258(15) 0.35258(15) 0.14742(15)
C4_14 C 0.8632(3) 0.3899(2) 0.1685(2)
H2_14 H 0.8798 0.3836 0.1921
H3_14 H 0.8387 0.4033 0.1779
C9_14 C 0.8315(2) 0.3632(3) 0.1101(2)
H8_14 H 0.8079 0.3798 0.1164
H9_14 H 0.8221 0.3387 0.0967
C10_14 C 0.8899(2) 0.3315(2) 0.1368(3)
H10_14 H 0.8836 0.3079 0.1202
H11_14 H 0.9033 0.3221 0.1613
N2_14 N 0.89742(15) 0.39742(15) 0.10258(15)
C11_14 C 0.8601(2) 0.3868(3) 0.0815(2)
H12_14 H 0.8664 0.3702 0.0579
H13_14 H 0.8467 0.4113 0.0721
C12_14 C 0.8868(3) 0.4185(2) 0.1399(2)
H14_14 H 0.8702 0.4421 0.1336
H15_14 H 0.9113 0.4279 0.1533
C13_14 C 0.9185(2) 0.3601(2) 0.1132(3)
H16_14 H 0.9421 0.3664 0.1298
H17_14 H 0.9279 0.3467 0.0887
N1_15 N 0.35258(15) 0.64742(15) 0.35258(15)
C4_15 C 0.3632(3) 0.6101(2) 0.3315(2)
H2_15 H 0.3798 0.6164 0.3079
H3_15 H 0.3387 0.5967 0.3221
C9_15 C 0.3315(2) 0.6368(3) 0.3899(2)
H8_15 H 0.3079 0.6202 0.3836
H9_15 H 0.3221 0.6613 0.4033
C10_15 C 0.3899(2) 0.6685(2) 0.3632(3)
H10_15 H 0.3836 0.6921 0.3798
H11_15 H 0.4033 0.6779 0.3387
N2_15 N 0.39742(15) 0.60258(15) 0.39742(15)
C11_15 C 0.3601(2) 0.6132(3) 0.4185(2)
H12_15 H 0.3664 0.6298 0.4421
H13_15 H 0.3467 0.5887 0.4279
C12_15 C 0.3868(3) 0.5815(2) 0.3601(2)
H14_15 H 0.3702 0.5579 0.3664
H15_15 H 0.4113 0.5721 0.3467
C13_15 C 0.4185(2) 0.6399(2) 0.3868(3)
H16_15 H 0.4421 0.6336 0.3702
H17_15 H 0.4279 0.6533 0.4113
N1_16 N 0.64742(15) 0.85258(15) 0.85258(15)
C4_16 C 0.6368(3) 0.8899(2) 0.8315(2)
H2_16 H 0.6202 0.8836 0.8079
H3_16 H 0.6613 0.9033 0.8221
C9_16 C 0.6685(2) 0.8632(3) 0.8899(2)
H8_16 H 0.6921 0.8798 0.8836
H9_16 H 0.6779 0.8387 0.9033
C10_16 C 0.6101(2) 0.8315(2) 0.8632(3)
H10_16 H 0.6164 0.8079 0.8798
H11_16 H 0.5967 0.8221 0.8387
N2_16 N 0.60258(15) 0.89742(15) 0.89742(15)
C11_16 C 0.6399(2) 0.8868(3) 0.9185(2)
H12_16 H 0.6336 0.8702 0.9421
H13_16 H 0.6533 0.9113 0.9279
C12_16 C 0.6132(3) 0.9185(2) 0.8601(2)
H14_16 H 0.6298 0.9421 0.8664
H15_16 H 0.5887 0.9279 0.8467
C13_16 C 0.5815(2) 0.8601(2) 0.8868(3)
H16_16 H 0.5579 0.8664 0.8702
H17_16 H 0.5721 0.8467 0.9113
loop_
_geom_bond_atom_site_label_1
_geom_bond_atom_site_label_2
_geom_bond_site_symmetry_1
_geom_bond_site_symmetry_2
Cd1 O1 1_555 1_555
Al1 O1 1_555 1_555
O1 Al2 1_555 1_555
O2 Al1 1_555 1_555
O3 C1 1_555 1_555
N1 Cd1 1_555 1_555
C1 O2 1_555 1_555
C2 C1 1_555 1_555
C3 H1 1_555 1_555
C4 N1 1_555 1_555
H2 C4 1_555 1_555
H3 C4 1_555 1_555
C5 C2 1_555 1_555
H4 C5 1_555 1_555
C6 C2 1_555 1_555
H5 C6 1_555 1_555
C7 C6 1_555 1_555
H6 C7 1_555 1_555
C8 C3 1_555 1_555
H7 C8 1_555 1_555
C9 N1 1_555 1_555
H8 C9 1_555 1_555
H9 C9 1_555 1_555
C10 N1 1_555 1_555
H10 C10 1_555 1_555
H11 C10 1_555 1_555
N2 C11 1_555 1_555
C11 C9 1_555 1_555
H12 C11 1_555 1_555
H13 C11 1_555 1_555
C12 C4 1_555 1_555
H14 C12 1_555 1_555
H15 C12 1_555 1_555
C13 C10 1_555 1_555
H16 C13 1_555 1_555
H17 C13 1_555 1_555
Al2 O4 1_555 1_555
O4 C14 1_555 1_555
O5 C14 1_555 1_555
C14 C15 1_555 1_555
C15 C17 1_555 1_555
C16 H18 1_555 1_555
C17 C16 1_555 1_555
H19 C17 1_555 1_555
C18 C15 1_555 1_555
H20 C18 1_555 1_555
C19 C18 1_555 1_555
H21 C19 1_555 1_555
C20 C16 1_555 1_555
H22 C20 1_555 1_555
Cd2 N2 1_555 1_555
O6 Cd2 1_555 1_555
O7 Al1 1_555 1_555
O8 Cd1 1_555 1_555
C21 O7 1_555 1_555
C22 C21 1_555 1_555
C23 H23 1_555 1_555
C24 C22 1_555 1_555
H24 C24 1_555 1_555
C25 C22 1_555 1_555
H25 C25 1_555 1_555
C26 C25 1_555 1_555
H26 C26 1_555 1_555
C27 C23 1_555 1_555
H27 C27 1_555 1_555
O9 Al2 1_555 1_555
O10 Cd1 1_555 1_555
C28 O9 1_555 1_555
C29 C28 1_555 1_555
C30 H28 1_555 1_555
C31 C29 1_555 1_555
H29 C31 1_555 1_555
C32 C29 1_555 1_555
H30 C32 1_555 1_555
C33 C32 1_555 1_555
H31 C33 1_555 1_555
C34 C30 1_555 1_555
H32 C34 1_555 1_555
O11 C35 1_555 1_555
O12 Cd1 1_555 1_555
C35 O12 1_555 1_555
C36 C35 1_555 1_555
C37 H33 1_555 1_555
C38 C36 1_555 1_555
H34 C38 1_555 1_555
C39 C36 1_555 1_555
H35 C39 1_555 1_555
C40 C39 1_555 1_555
H36 C40 1_555 1_555
C41 C37 1_555 1_555
H37 C41 1_555 1_555
O13 Al1 1_555 1_555
O14 C42 1_555 1_555
C42 O13 1_555 1_555
C43 C42 1_555 1_555
C45 C43 1_555 1_555
H39 C45 1_555 1_555
C46 C43 1_555 1_555
H40 C46 1_555 1_555
C47 C46 1_555 1_555
H41 C47 1_555 1_555
C48 C44 1_555 1_555
Cd3 O14 1_555 1_555
Cd4 O3 1_555 1_555
Cd5 O5 1_555 1_555
Al3 O1 1_555 1_555
Al4 O6 1_555 1_555
Al5 O6 1_555 1_555
Al6 O6 1_555 1_555
O15 Al1 1_555 1_555
O16 Al1 1_555 1_555
O17 Al2 1_555 1_555
O18 Al2 1_555 1_555
O19 Cd2 1_555 1_555
O20 Cd2 1_555 1_555
O21 Cd2 1_555 1_555
C3 C5 1_555 1_555
C7 C8 1_555 1_555
N2 C12 1_555 1_555
N2 C13 1_555 1_555
Al2 O16 1_555 1_555
C19 C20 1_555 1_555
O8 C21 1_555 1_555
C23 C24 1_555 1_555
C26 C27 1_555 1_555
O10 C28 1_555 1_555
C30 C31 1_555 1_555
C33 C34 1_555 1_555
O11 Al3 1_555 1_555
C37 C38 1_555 1_555
C40 C41 1_555 1_555
C44 C45 1_555 1_555
C47 C48 1_555 1_555
Cd3 O15 1_555 1_555
Cd4 O16 1_555 1_555
Cd5 O17 1_555 1_555
Al3 O15 1_555 1_555
Al3 O17 1_555 1_555
Cd1_2 O1_2 1_555 1_555
Al1_2 O1_2 1_555 1_555
O1_2 Al2_2 1_555 1_555
O2_2 Al1_2 1_555 1_555
O3_2 C1_2 1_555 1_555
N1_2 Cd1_2 1_555 1_555
C1_2 O2_2 1_555 1_555
C2_2 C1_2 1_555 1_555
C4_2 N1_2 1_555 1_555
H2_2 C4_2 1_555 1_555
H3_2 C4_2 1_555 1_555
C5_2 C2_2 1_555 1_555
H4_2 C5_2 1_555 1_555
C6_2 C2_2 1_555 1_555
H5_2 C6_2 1_555 1_555
C7_2 C6_2 1_555 1_555
H6_2 C7_2 1_555 1_555
C8_2 C3_2 1_555 1_555
C9_2 N1_2 1_555 1_555
H8_2 C9_2 1_555 1_555
H9_2 C9_2 1_555 1_555
C10_2 N1_2 1_555 1_555
H10_2 C10_2 1_555 1_555
H11_2 C10_2 1_555 1_555
N2_2 C11_2 1_555 1_555
C11_2 C9_2 1_555 1_555
H12_2 C11_2 1_555 1_555
H13_2 C11_2 1_555 1_555
C12_2 C4_2 1_555 1_555
H14_2 C12_2 1_555 1_555
H15_2 C12_2 1_555 1_555
C13_2 C10_2 1_555 1_555
H16_2 C13_2 1_555 1_555
H17_2 C13_2 1_555 1_555
Al2_2 O4_2 1_555 1_555
O4_2 C14_2 1_555 1_555
O5_2 C14_2 1_555 1_555
C14_2 C15_2 1_555 1_555
C15_2 C17_2 1_555 1_555
C16_2 H18_2 1_555 1_555
C17_2 C16_2 1_555 1_555
H19_2 C17_2 1_555 1_555
C18_2 C15_2 1_555 1_555
H20_2 C18_2 1_555 1_555
C19_2 C18_2 1_555 1_555
H21_2 C19_2 1_555 1_555
C20_2 C16_2 1_555 1_555
H22_2 C20_2 1_555 1_555
Cd2_2 N2_2 1_555 1_555
O6_2 Cd2_2 1_555 1_555
O7_2 Al1_2 1_555 1_555
O8_2 Cd1_2 1_555 1_555
C21_2 O7_2 1_555 1_555
C22_2 C21_2 1_555 1_555
C24_2 C22_2 1_555 1_555
H24_2 C24_2 1_555 1_555
C25_2 C22_2 1_555 1_555
H25_2 C25_2 1_555 1_555
C26_2 C25_2 1_555 1_555
H26_2 C26_2 1_555 1_555
C27_2 C23_2 1_555 1_555
O9_2 Al2_2 1_555 1_555
O10_2 Cd1_2 1_555 1_555
C28_2 O9_2 1_555 1_555
C29_2 C28_2 1_555 1_555
C31_2 C29_2 1_555 1_555
H29_2 C31_2 1_555 1_555
C32_2 C29_2 1_555 1_555
H30_2 C32_2 1_555 1_555
C33_2 C32_2 1_555 1_555
H31_2 C33_2 1_555 1_555
C34_2 C30_2 1_555 1_555
O11_2 C35_2 1_555 1_555
O12_2 Cd1_2 1_555 1_555
C35_2 O12_2 1_555 1_555
C36_2 C35_2 1_555 1_555
C37_2 H33_2 1_555 1_555
C38_2 C36_2 1_555 1_555
H34_2 C38_2 1_555 1_555
C39_2 C36_2 1_555 1_555
H35_2 C39_2 1_555 1_555
C40_2 C39_2 1_555 1_555
H36_2 C40_2 1_555 1_555
C41_2 C37_2 1_555 1_555
H37_2 C41_2 1_555 1_555
O13_2 Al1_2 1_555 1_555
O14_2 C42_2 1_555 1_555
C42_2 O13_2 1_555 1_555
C43_2 C42_2 1_555 1_555
C45_2 C43_2 1_555 1_555
H39_2 C45_2 1_555 1_555
C46_2 C43_2 1_555 1_555
H40_2 C46_2 1_555 1_555
C47_2 C46_2 1_555 1_555
H41_2 C47_2 1_555 1_555
C48_2 C44_2 1_555 1_555
Cd3_2 O14_2 1_555 1_555
Cd4_2 O3_2 1_555 1_555
Cd5_2 O5_2 1_555 1_555
Al3_2 O1_2 1_555 1_555
Al5_2 O6_2 1_555 1_555
O15_2 Al1_2 1_555 1_555
O16_2 Al1_2 1_555 1_555
O17_2 Al2_2 1_555 1_555
O18_2 Al2_2 1_555 1_555
O19_2 Cd2_2 1_555 1_555
O20_2 Cd2_2 1_555 1_555
O21_2 Cd2_2 1_555 1_555
C3_2 C5_2 1_555 1_555
C7_2 C8_2 1_555 1_555
N2_2 C12_2 1_555 1_555
N2_2 C13_2 1_555 1_555
Al2_2 O16_2 1_555 1_555
C19_2 C20_2 1_555 1_555
O8_2 C21_2 1_555 1_555
C23_2 C24_2 1_555 1_555
C26_2 C27_2 1_555 1_555
O10_2 C28_2 1_555 1_555
C30_2 C31_2 1_555 1_555
C33_2 C34_2 1_555 1_555
O11_2 Al3_2 1_555 1_555
C37_2 C38_2 1_555 1_555
C40_2 C41_2 1_555 1_555
C44_2 C45_2 1_555 1_555
C47_2 C48_2 1_555 1_555
Cd3_2 O15_2 1_555 1_555
Cd4_2 O16_2 1_555 1_555
Cd5_2 O17_2 1_555 1_555
Al3_2 O15_2 1_555 1_555
Al3_2 O17_2 1_555 1_555
Cd1_3 O1_3 1_555 1_555
Al1_3 O1_3 1_555 1_555
O1_3 Al2_3 1_555 1_555
O2_3 Al1_3 1_555 1_555
O3_3 C1_3 1_555 1_555
N1_3 Cd1_3 1_555 1_555
C1_3 O2_3 1_555 1_555
C2_3 C1_3 1_555 1_555
C3_3 H1_3 1_555 1_555
C4_3 N1_3 1_555 1_555
H2_3 C4_3 1_555 1_555
H3_3 C4_3 1_555 1_555
C5_3 C2_3 1_555 1_555
H4_3 C5_3 1_555 1_555
C6_3 C2_3 1_555 1_555
H5_3 C6_3 1_555 1_555
C7_3 C6_3 1_555 1_555
H6_3 C7_3 1_555 1_555
C8_3 C3_3 1_555 1_555
H7_3 C8_3 1_555 1_555
C9_3 N1_3 1_555 1_555
H8_3 C9_3 1_555 1_555
H9_3 C9_3 1_555 1_555
C10_3 N1_3 1_555 1_555
H10_3 C10_3 1_555 1_555
H11_3 C10_3 1_555 1_555
N2_3 C11_3 1_555 1_555
C11_3 C9_3 1_555 1_555
H12_3 C11_3 1_555 1_555
H13_3 C11_3 1_555 1_555
C12_3 C4_3 1_555 1_555
H14_3 C12_3 1_555 1_555
H15_3 C12_3 1_555 1_555
C13_3 C10_3 1_555 1_555
H16_3 C13_3 1_555 1_555
H17_3 C13_3 1_555 1_555
Al2_3 O4_3 1_555 1_555
O4_3 C14_3 1_555 1_555
O5_3 C14_3 1_555 1_555
C14_3 C15_3 1_555 1_555
C15_3 C17_3 1_555 1_555
C17_3 C16_3 1_555 1_555
H19_3 C17_3 1_555 1_555
C18_3 C15_3 1_555 1_555
H20_3 C18_3 1_555 1_555
C19_3 C18_3 1_555 1_555
H21_3 C19_3 1_555 1_555
C20_3 C16_3 1_555 1_555
Cd2_3 N2_3 1_555 1_555
O6_3 Cd2_3 1_555 1_555
O7_3 Al1_3 1_555 1_555
O8_3 Cd1_3 1_555 1_555
C21_3 O7_3 1_555 1_555
C22_3 C21_3 1_555 1_555
C24_3 C22_3 1_555 1_555
H24_3 C24_3 1_555 1_555
C25_3 C22_3 1_555 1_555
H25_3 C25_3 1_555 1_555
C26_3 C25_3 1_555 1_555
H26_3 C26_3 1_555 1_555
C27_3 C23_3 1_555 1_555
O9_3 Al2_3 1_555 1_555
O10_3 Cd1_3 1_555 1_555
C28_3 O9_3 1_555 1_555
C29_3 C28_3 1_555 1_555
C30_3 H28_3 1_555 1_555
C31_3 C29_3 1_555 1_555
H29_3 C31_3 1_555 1_555
C32_3 C29_3 1_555 1_555
H30_3 C32_3 1_555 1_555
C33_3 C32_3 1_555 1_555
H31_3 C33_3 1_555 1_555
C34_3 C30_3 1_555 1_555
H32_3 C34_3 1_555 1_555
O11_3 C35_3 1_555 1_555
O12_3 Cd1_3 1_555 1_555
C35_3 O12_3 1_555 1_555
C36_3 C35_3 1_555 1_555
C38_3 C36_3 1_555 1_555
H34_3 C38_3 1_555 1_555
C39_3 C36_3 1_555 1_555
H35_3 C39_3 1_555 1_555
C40_3 C39_3 1_555 1_555
H36_3 C40_3 1_555 1_555
C41_3 C37_3 1_555 1_555
O13_3 Al1_3 1_555 1_555
O14_3 C42_3 1_555 1_555
C42_3 O13_3 1_555 1_555
C43_3 C42_3 1_555 1_555
C44_3 H38_3 1_555 1_555
C45_3 C43_3 1_555 1_555
H39_3 C45_3 1_555 1_555
C46_3 C43_3 1_555 1_555
H40_3 C46_3 1_555 1_555
C47_3 C46_3 1_555 1_555
H41_3 C47_3 1_555 1_555
C48_3 C44_3 1_555 1_555
H42_3 C48_3 1_555 1_555
Cd3_3 O14_3 1_555 1_555
Cd4_3 O3_3 1_555 1_555
Cd5_3 O5_3 1_555 1_555
Al3_3 O1_3 1_555 1_555
Al6_3 O6_3 1_555 1_555
O15_3 Al1_3 1_555 1_555
O16_3 Al1_3 1_555 1_555
O17_3 Al2_3 1_555 1_555
O18_3 Al2_3 1_555 1_555
O19_3 Cd2_3 1_555 1_555
O20_3 Cd2_3 1_555 1_555
O21_3 Cd2_3 1_555 1_555
C3_3 C5_3 1_555 1_555
C7_3 C8_3 1_555 1_555
N2_3 C12_3 1_555 1_555
N2_3 C13_3 1_555 1_555
Al2_3 O16_3 1_555 1_555
C19_3 C20_3 1_555 1_555
O8_3 C21_3 1_555 1_555
C23_3 C24_3 1_555 1_555
C26_3 C27_3 1_555 1_555
O10_3 C28_3 1_555 1_555
C30_3 C31_3 1_555 1_555
C33_3 C34_3 1_555 1_555
O11_3 Al3_3 1_555 1_555
C37_3 C38_3 1_555 1_555
C40_3 C41_3 1_555 1_555
C44_3 C45_3 1_555 1_555
C47_3 C48_3 1_555 1_555
Cd3_3 O15_3 1_555 1_555
Cd4_3 O16_3 1_555 1_555
Cd5_3 O17_3 1_555 1_555
Al3_3 O15_3 1_555 1_555
Al3_3 O17_3 1_555 1_555
Cd1_4 O1_4 1_555 1_555
Al1_4 O1_4 1_555 1_555
O1_4 Al2_4 1_555 1_555
O2_4 Al1_4 1_555 1_555
O3_4 C1_4 1_555 1_555
N1_4 Cd1_4 1_555 1_555
C1_4 O2_4 1_555 1_555
C2_4 C1_4 1_555 1_555
C4_4 N1_4 1_555 1_555
H2_4 C4_4 1_555 1_555
H3_4 C4_4 1_555 1_555
C5_4 C2_4 1_555 1_555
H4_4 C5_4 1_555 1_555
C6_4 C2_4 1_555 1_555
H5_4 C6_4 1_555 1_555
C7_4 C6_4 1_555 1_555
H6_4 C7_4 1_555 1_555
C8_4 C3_4 1_555 1_555
C9_4 N1_4 1_555 1_555
H8_4 C9_4 1_555 1_555
H9_4 C9_4 1_555 1_555
C10_4 N1_4 1_555 1_555
H10_4 C10_4 1_555 1_555
H11_4 C10_4 1_555 1_555
N2_4 C11_4 1_555 1_555
C11_4 C9_4 1_555 1_555
H12_4 C11_4 1_555 1_555
H13_4 C11_4 1_555 1_555
C12_4 C4_4 1_555 1_555
H14_4 C12_4 1_555 1_555
H15_4 C12_4 1_555 1_555
C13_4 C10_4 1_555 1_555
H16_4 C13_4 1_555 1_555
H17_4 C13_4 1_555 1_555
Al2_4 O4_4 1_555 1_555
O4_4 C14_4 1_555 1_555
O5_4 C14_4 1_555 1_555
C14_4 C15_4 1_555 1_555
C15_4 C17_4 1_555 1_555
C17_4 C16_4 1_555 1_555
H19_4 C17_4 1_555 1_555
C18_4 C15_4 1_555 1_555
H20_4 C18_4 1_555 1_555
C19_4 C18_4 1_555 1_555
H21_4 C19_4 1_555 1_555
C20_4 C16_4 1_555 1_555
Cd2_4 N2_4 1_555 1_555
O6_4 Cd2_4 1_555 1_555
O7_4 Al1_4 1_555 1_555
O8_4 Cd1_4 1_555 1_555
C21_4 O7_4 1_555 1_555
C22_4 C21_4 1_555 1_555
C23_4 H23_4 1_555 1_555
C24_4 C22_4 1_555 1_555
H24_4 C24_4 1_555 1_555
C25_4 C22_4 1_555 1_555
H25_4 C25_4 1_555 1_555
C26_4 C25_4 1_555 1_555
H26_4 C26_4 1_555 1_555
C27_4 C23_4 1_555 1_555
H27_4 C27_4 1_555 1_555
O9_4 Al2_4 1_555 1_555
O10_4 Cd1_4 1_555 1_555
C28_4 O9_4 1_555 1_555
C29_4 C28_4 1_555 1_555
C31_4 C29_4 1_555 1_555
H29_4 C31_4 1_555 1_555
C32_4 C29_4 1_555 1_555
H30_4 C32_4 1_555 1_555
C33_4 C32_4 1_555 1_555
H31_4 C33_4 1_555 1_555
C34_4 C30_4 1_555 1_555
O11_4 C35_4 1_555 1_555
O12_4 Cd1_4 1_555 1_555
C35_4 O12_4 1_555 1_555
C36_4 C35_4 1_555 1_555
C38_4 C36_4 1_555 1_555
H34_4 C38_4 1_555 1_555
C39_4 C36_4 1_555 1_555
H35_4 C39_4 1_555 1_555
C40_4 C39_4 1_555 1_555
H36_4 C40_4 1_555 1_555
C41_4 C37_4 1_555 1_555
O13_4 Al1_4 1_555 1_555
O14_4 C42_4 1_555 1_555
C42_4 O13_4 1_555 1_555
C43_4 C42_4 1_555 1_555
C44_4 H38_4 1_555 1_555
C45_4 C43_4 1_555 1_555
H39_4 C45_4 1_555 1_555
C46_4 C43_4 1_555 1_555
H40_4 C46_4 1_555 1_555
C47_4 C46_4 1_555 1_555
H41_4 C47_4 1_555 1_555
C48_4 C44_4 1_555 1_555
H42_4 C48_4 1_555 1_555
Cd3_4 O14_4 1_555 1_555
Cd4_4 O3_4 1_555 1_555
Cd5_4 O5_4 1_555 1_555
Al3_4 O1_4 1_555 1_555
Al4_4 O6_4 1_555 1_555
O15_4 Al1_4 1_555 1_555
O16_4 Al1_4 1_555 1_555
O17_4 Al2_4 1_555 1_555
O18_4 Al2_4 1_555 1_555
O19_4 Cd2_4 1_555 1_555
O20_4 Cd2_4 1_555 1_555
O21_4 Cd2_4 1_555 1_555
C3_4 C5_4 1_555 1_555
C7_4 C8_4 1_555 1_555
N2_4 C12_4 1_555 1_555
N2_4 C13_4 1_555 1_555
Al2_4 O16_4 1_555 1_555
C19_4 C20_4 1_555 1_555
O8_4 C21_4 1_555 1_555
C23_4 C24_4 1_555 1_555
C26_4 C27_4 1_555 1_555
O10_4 C28_4 1_555 1_555
C30_4 C31_4 1_555 1_555
C33_4 C34_4 1_555 1_555
O11_4 Al3_4 1_555 1_555
C37_4 C38_4 1_555 1_555
C40_4 C41_4 1_555 1_555
C44_4 C45_4 1_555 1_555
C47_4 C48_4 1_555 1_555
Cd3_4 O15_4 1_555 1_555
Cd4_4 O16_4 1_555 1_555
Cd5_4 O17_4 1_555 1_555
Al3_4 O15_4 1_555 1_555
Al3_4 O17_4 1_555 1_555
Al3 O4_5 1_555 1_555
O4_5 C14_5 1_555 1_555
O5_5 C14_5 1_555 1_555
C14_5 C15_5 1_555 1_555
C15_5 C17_5 1_555 1_555
C16_5 H18_5 1_555 1_555
C17_5 C16_5 1_555 1_555
H19_5 C17_5 1_555 1_555
C18_5 C15_5 1_555 1_555
H20_5 C18_5 1_555 1_555
C19_5 C18_5 1_555 1_555
H21_5 C19_5 1_555 1_555
C20_5 C16_5 1_555 1_555
H22_5 C20_5 1_555 1_555
O14_5 C42_5 1_555 1_555
C42_5 O18 1_555 1_555
C43_5 C42_5 1_555 1_555
C45_5 C43_5 1_555 1_555
H39_5 C45_5 1_555 1_555
C46_5 C43_5 1_555 1_555
H40_5 C46_5 1_555 1_555
C47_5 C46_5 1_555 1_555
H41_5 C47_5 1_555 1_555
C48_5 C44_5 1_555 1_555
Cd4 O14_5 1_555 1_555
Cd3 O5_5 1_555 1_555
O18_5 Al3 1_555 1_555
C19_5 C20_5 1_555 1_555
C44_5 C45_5 1_555 1_555
C47_5 C48_5 1_555 1_555
Al3_4 O4_6 1_555 1_555
O4_6 C14_6 1_555 1_555
O5_6 C14_6 1_555 1_555
C14_6 C15_6 1_555 1_555
C15_6 C17_6 1_555 1_555
C16_6 H18_6 1_555 1_555
C17_6 C16_6 1_555 1_555
H19_6 C17_6 1_555 1_555
C18_6 C15_6 1_555 1_555
H20_6 C18_6 1_555 1_555
C19_6 C18_6 1_555 1_555
H21_6 C19_6 1_555 1_555
C20_6 C16_6 1_555 1_555
H22_6 C20_6 1_555 1_555
O14_6 C42_6 1_555 1_555
C42_6 O18_4 1_555 1_555
C43_6 C42_6 1_555 1_555
C45_6 C43_6 1_555 1_555
H39_6 C45_6 1_555 1_555
C46_6 C43_6 1_555 1_555
H40_6 C46_6 1_555 1_555
C47_6 C46_6 1_555 1_555
H41_6 C47_6 1_555 1_555
C48_6 C44_6 1_555 1_555
Cd4_4 O14_6 1_555 1_555
Cd3_4 O5_6 1_555 1_555
O18_6 Al3_4 1_555 1_555
C19_6 C20_6 1_555 1_555
C44_6 C45_6 1_555 1_555
C47_6 C48_6 1_555 1_555
Al3_2 O4_7 1_555 1_555
O4_7 C14_7 1_555 1_555
O5_7 C14_7 1_555 1_555
C14_7 C15_7 1_555 1_555
C15_7 C17_7 1_555 1_555
C17_7 C16_7 1_555 1_555
H19_7 C17_7 1_555 1_555
C18_7 C15_7 1_555 1_555
H20_7 C18_7 1_555 1_555
C19_7 C18_7 1_555 1_555
H21_7 C19_7 1_555 1_555
C20_7 C16_7 1_555 1_555
O14_7 C42_7 1_555 1_555
C42_7 O18_2 1_555 1_555
C43_7 C42_7 1_555 1_555
C44_7 H38_7 1_555 1_555
C45_7 C43_7 1_555 1_555
H39_7 C45_7 1_555 1_555
C46_7 C43_7 1_555 1_555
H40_7 C46_7 1_555 1_555
C47_7 C46_7 1_555 1_555
H41_7 C47_7 1_555 1_555
C48_7 C44_7 1_555 1_555
H42_7 C48_7 1_555 1_555
Cd4_2 O14_7 1_555 1_555
Cd3_2 O5_7 1_555 1_555
O18_7 Al3_2 1_555 1_555
C19_7 C20_7 1_555 1_555
C44_7 C45_7 1_555 1_555
C47_7 C48_7 1_555 1_555
Al3_3 O4_8 1_555 1_555
O4_8 C14_8 1_555 1_555
O5_8 C14_8 1_555 1_555
C14_8 C15_8 1_555 1_555
C15_8 C17_8 1_555 1_555
C17_8 C16_8 1_555 1_555
H19_8 C17_8 1_555 1_555
C18_8 C15_8 1_555 1_555
H20_8 C18_8 1_555 1_555
C19_8 C18_8 1_555 1_555
H21_8 C19_8 1_555 1_555
C20_8 C16_8 1_555 1_555
O14_8 C42_8 1_555 1_555
C42_8 O18_3 1_555 1_555
C43_8 C42_8 1_555 1_555
C44_8 H38_8 1_555 1_555
C45_8 C43_8 1_555 1_555
H39_8 C45_8 1_555 1_555
C46_8 C43_8 1_555 1_555
H40_8 C46_8 1_555 1_555
C47_8 C46_8 1_555 1_555
H41_8 C47_8 1_555 1_555
C48_8 C44_8 1_555 1_555
H42_8 C48_8 1_555 1_555
Cd4_3 O14_8 1_555 1_555
Cd3_3 O5_8 1_555 1_555
O18_8 Al3_3 1_555 1_555
C19_8 C20_8 1_555 1_555
C44_8 C45_8 1_555 1_555
C47_8 C48_8 1_555 1_555
O14_9 C42_9 1_555 1_555
C42_9 O18_5 1_555 1_555
C43_9 C42_9 1_555 1_555
C45_9 C43_9 1_555 1_555
H39_9 C45_9 1_555 1_555
C46_9 C43_9 1_555 1_555
H40_9 C46_9 1_555 1_555
C47_9 C46_9 1_555 1_555
H41_9 C47_9 1_555 1_555
C48_9 C44_9 1_555 1_555
Cd5 O14_9 1_555 1_555
C44_9 C45_9 1_555 1_555
C47_9 C48_9 1_555 1_555
O14_10 C42_10 1_555 1_555
C42_10 O18_8 1_555 1_555
C43_10 C42_10 1_555 1_555
C45_10 C43_10 1_555 1_555
H39_10 C45_10 1_555 1_555
C46_10 C43_10 1_555 1_555
H40_10 C46_10 1_555 1_555
C47_10 C46_10 1_555 1_555
H41_10 C47_10 1_555 1_555
C48_10 C44_10 1_555 1_555
Cd5_3 O14_10 1_555 1_555
C44_10 C45_10 1_555 1_555
C47_10 C48_10 1_555 1_555
O14_11 C42_11 1_555 1_555
C42_11 O18_6 1_555 1_555
C43_11 C42_11 1_555 1_555
C44_11 H38_11 1_555 1_555
C45_11 C43_11 1_555 1_555
H39_11 C45_11 1_555 1_555
C46_11 C43_11 1_555 1_555
H40_11 C46_11 1_555 1_555
C47_11 C46_11 1_555 1_555
H41_11 C47_11 1_555 1_555
C48_11 C44_11 1_555 1_555
H42_11 C48_11 1_555 1_555
Cd5_4 O14_11 1_555 1_555
C44_11 C45_11 1_555 1_555
C47_11 C48_11 1_555 1_555
O14_12 C42_12 1_555 1_555
C42_12 O18_7 1_555 1_555
C43_12 C42_12 1_555 1_555
C44_12 H38_12 1_555 1_555
C45_12 C43_12 1_555 1_555
H39_12 C45_12 1_555 1_555
C46_12 C43_12 1_555 1_555
H40_12 C46_12 1_555 1_555
C47_12 C46_12 1_555 1_555
H41_12 C47_12 1_555 1_555
C48_12 C44_12 1_555 1_555
H42_12 C48_12 1_555 1_555
Cd5_2 O14_12 1_555 1_555
C44_12 C45_12 1_555 1_555
C47_12 C48_12 1_555 1_555
O2_5 Al4_2 1_555 1_555
O3_5 C1_5 1_555 1_555
C1_5 O2_5 1_555 1_555
C2_5 C1_5 1_555 1_555
C3_5 H1_5 1_555 1_555
C5_5 C2_5 1_555 1_555
H4_5 C5_5 1_555 1_555
C6_5 C2_5 1_555 1_555
H5_5 C6_5 1_555 1_555
C7_5 C6_5 1_555 1_555
H6_5 C7_5 1_555 1_555
C8_5 C3_5 1_555 1_555
H7_5 C8_5 1_555 1_555
O7_5 Al4_2 1_555 1_555
C21_5 O7_5 1_555 1_555
C22_5 C21_5 1_555 1_555
C23_5 H23_5 1_555 1_555
C24_5 C22_5 1_555 1_555
C25_5 C22_5 1_555 1_555
H25_5 C25_5 1_555 1_555
C26_5 C25_5 1_555 1_555
H26_5 C26_5 1_555 1_555
C27_5 C23_5 1_555 1_555
H27_5 C27_5 1_555 1_555
O13_5 Al4_2 1_555 1_555
C42_13 O13_5 1_555 1_555
C43_13 C42_13 1_555 1_555
C44_13 H38_13 1_555 1_555
C45_13 C43_13 1_555 1_555
C46_13 C43_13 1_555 1_555
H40_13 C46_13 1_555 1_555
C47_13 C46_13 1_555 1_555
H41_13 C47_13 1_555 1_555
C48_13 C44_13 1_555 1_555
H42_13 C48_13 1_555 1_555
Cd4_5 O3_5 1_555 1_555
O16_5 Al4_2 1_555 1_555
C3_5 C5_5 1_555 1_555
C7_5 C8_5 1_555 1_555
C23_5 C24_5 1_555 1_555
C26_5 C27_5 1_555 1_555
C44_13 C45_13 1_555 1_555
C47_13 C48_13 1_555 1_555
Cd4_5 O16_5 1_555 1_555
Cd3_5 O14_13 1_555 1_555
Cd3_5 O15_5 1_555 1_555
Al5_2 O4_9 1_555 1_555
O4_9 C14_9 1_555 1_555
C14_9 C15_9 1_555 1_555
C15_9 C17_9 1_555 1_555
C16_9 H18_9 1_555 1_555
C17_9 C16_9 1_555 1_555
C18_9 C15_9 1_555 1_555
H20_9 C18_9 1_555 1_555
C19_9 C18_9 1_555 1_555
H21_9 C19_9 1_555 1_555
C20_9 C16_9 1_555 1_555
H22_9 C20_9 1_555 1_555
O9_5 Al5_2 1_555 1_555
C28_5 O9_5 1_555 1_555
C29_5 C28_5 1_555 1_555
C30_5 H28_5 1_555 1_555
C31_5 C29_5 1_555 1_555
H29_5 C31_5 1_555 1_555
C32_5 C29_5 1_555 1_555
H30_5 C32_5 1_555 1_555
C33_5 C32_5 1_555 1_555
H31_5 C33_5 1_555 1_555
C34_5 C30_5 1_555 1_555
H32_5 C34_5 1_555 1_555
O18_9 Al5_2 1_555 1_555
C19_9 C20_9 1_555 1_555
O19_2 C28_5 1_555 1_555
C30_5 C31_5 1_555 1_555
C33_5 C34_5 1_555 1_555
O11_5 C35_5 1_555 1_555
C36_5 C35_5 1_555 1_555
C37_5 H33_5 1_555 1_555
C38_5 C36_5 1_555 1_555
C39_5 C36_5 1_555 1_555
H35_5 C39_5 1_555 1_555
C40_5 C39_5 1_555 1_555
H36_5 C40_5 1_555 1_555
C41_5 C37_5 1_555 1_555
H37_5 C41_5 1_555 1_555
Cd5_5 O5_9 1_555 1_555
O11_5 Al6_2 1_555 1_555
C37_5 C38_5 1_555 1_555
C40_5 C41_5 1_555 1_555
Cd5_5 O17_5 1_555 1_555
Al6_2 O17_5 1_555 1_555
O2_6 Al4 1_555 1_555
O3_6 C1_6 1_555 1_555
C1_6 O2_6 1_555 1_555
C2_6 C1_6 1_555 1_555
C3_6 H1_6 1_555 1_555
C5_6 C2_6 1_555 1_555
H4_6 C5_6 1_555 1_555
C6_6 C2_6 1_555 1_555
H5_6 C6_6 1_555 1_555
C7_6 C6_6 1_555 1_555
H6_6 C7_6 1_555 1_555
C8_6 C3_6 1_555 1_555
H7_6 C8_6 1_555 1_555
Al5 O4_10 1_555 1_555
O4_10 C14_10 1_555 1_555
O5_10 C14_10 1_555 1_555
C14_10 C15_10 1_555 1_555
C15_10 C17_10 1_555 1_555
C16_10 H18_10 1_555 1_555
C17_10 C16_10 1_555 1_555
H19_10 C17_10 1_555 1_555
C18_10 C15_10 1_555 1_555
H20_10 C18_10 1_555 1_555
C19_10 C18_10 1_555 1_555
H21_10 C19_10 1_555 1_555
C20_10 C16_10 1_555 1_555
H22_10 C20_10 1_555 1_555
O7_6 Al4 1_555 1_555
C21_6 O7_6 1_555 1_555
C22_6 C21_6 1_555 1_555
C23_6 H23_6 1_555 1_555
C24_6 C22_6 1_555 1_555
H24_6 C24_6 1_555 1_555
C25_6 C22_6 1_555 1_555
H25_6 C25_6 1_555 1_555
C26_6 C25_6 1_555 1_555
H26_6 C26_6 1_555 1_555
C27_6 C23_6 1_555 1_555
H27_6 C27_6 1_555 1_555
O9_6 Al5 1_555 1_555
C28_6 O9_6 1_555 1_555
C29_6 C28_6 1_555 1_555
C30_6 H28_6 1_555 1_555
C31_6 C29_6 1_555 1_555
H29_6 C31_6 1_555 1_555
C32_6 C29_6 1_555 1_555
H30_6 C32_6 1_555 1_555
C33_6 C32_6 1_555 1_555
H31_6 C33_6 1_555 1_555
C34_6 C30_6 1_555 1_555
H32_6 C34_6 1_555 1_555
O11_6 C35_6 1_555 1_555
C35_6 O21 1_555 1_555
C36_6 C35_6 1_555 1_555
C37_6 H33_6 1_555 1_555
C38_6 C36_6 1_555 1_555
H34_6 C38_6 1_555 1_555
C39_6 C36_6 1_555 1_555
H35_6 C39_6 1_555 1_555
C40_6 C39_6 1_555 1_555
H36_6 C40_6 1_555 1_555
C41_6 C37_6 1_555 1_555
H37_6 C41_6 1_555 1_555
O13_6 Al4 1_555 1_555
O14_14 C42_14 1_555 1_555
C42_14 O13_6 1_555 1_555
C43_14 C42_14 1_555 1_555
C44_14 H38_14 1_555 1_555
C45_14 C43_14 1_555 1_555
H39_14 C45_14 1_555 1_555
C46_14 C43_14 1_555 1_555
H40_14 C46_14 1_555 1_555
C47_14 C46_14 1_555 1_555
H41_14 C47_14 1_555 1_555
C48_14 C44_14 1_555 1_555
H42_14 C48_14 1_555 1_555
Cd3_6 O14_14 1_555 1_555
Cd4_6 O3_6 1_555 1_555
Cd5_6 O5_10 1_555 1_555
O15_6 Al4 1_555 1_555
O16_6 Al4 1_555 1_555
O17_6 Al5 1_555 1_555
O18_10 Al5 1_555 1_555
C3_6 C5_6 1_555 1_555
C7_6 C8_6 1_555 1_555
Al5 O16_6 1_555 1_555
C19_10 C20_10 1_555 1_555
O20 C21_6 1_555 1_555
C23_6 C24_6 1_555 1_555
C26_6 C27_6 1_555 1_555
O19 C28_6 1_555 1_555
C30_6 C31_6 1_555 1_555
C33_6 C34_6 1_555 1_555
O11_6 Al6 1_555 1_555
C37_6 C38_6 1_555 1_555
C40_6 C41_6 1_555 1_555
C44_14 C45_14 1_555 1_555
C47_14 C48_14 1_555 1_555
Cd3_6 O15_6 1_555 1_555
Cd4_6 O16_6 1_555 1_555
Cd5_6 O17_6 1_555 1_555
Al6 O15_6 1_555 1_555
Al6 O17_6 1_555 1_555
Al5_3 O4_11 1_555 1_555
O4_11 C14_11 1_555 1_555
O5_11 C14_11 1_555 1_555
C14_11 C15_11 1_555 1_555
C15_11 C17_11 1_555 1_555
C16_11 H18_11 1_555 1_555
C17_11 C16_11 1_555 1_555
H19_11 C17_11 1_555 1_555
C18_11 C15_11 1_555 1_555
H20_11 C18_11 1_555 1_555
C19_11 C18_11 1_555 1_555
H21_11 C19_11 1_555 1_555
C20_11 C16_11 1_555 1_555
H22_11 C20_11 1_555 1_555
O9_7 Al5_3 1_555 1_555
C28_7 O9_7 1_555 1_555
C29_7 C28_7 1_555 1_555
C30_7 H28_7 1_555 1_555
C31_7 C29_7 1_555 1_555
C32_7 C29_7 1_555 1_555
H30_7 C32_7 1_555 1_555
C33_7 C32_7 1_555 1_555
H31_7 C33_7 1_555 1_555
C34_7 C30_7 1_555 1_555
H32_7 C34_7 1_555 1_555
Cd5_7 O5_11 1_555 1_555
O17_7 Al5_3 1_555 1_555
O18_11 Al5_3 1_555 1_555
C19_11 C20_11 1_555 1_555
C30_7 C31_7 1_555 1_555
C33_7 C34_7 1_555 1_555
Cd5_7 O17_7 1_555 1_555
Cd4_7 O3_7 1_555 1_555
Cd4_7 O16_7 1_555 1_555
O11_7 C35_7 1_555 1_555
C35_7 O21_3 1_555 1_555
C36_7 C35_7 1_555 1_555
C37_7 H33_7 1_555 1_555
C38_7 C36_7 1_555 1_555
H34_7 C38_7 1_555 1_555
C39_7 C36_7 1_555 1_555
H35_7 C39_7 1_555 1_555
C40_7 C39_7 1_555 1_555
H36_7 C40_7 1_555 1_555
C41_7 C37_7 1_555 1_555
H37_7 C41_7 1_555 1_555
O11_7 Al6_3 1_555 1_555
C37_7 C38_7 1_555 1_555
C40_7 C41_7 1_555 1_555
O2_7 Al4_3 1_555 1_555
C1_7 O2_7 1_555 1_555
C2_7 C1_7 1_555 1_555
C3_7 H1_7 1_555 1_555
C5_7 C2_7 1_555 1_555
C6_7 C2_7 1_555 1_555
H5_7 C6_7 1_555 1_555
C7_7 C6_7 1_555 1_555
H6_7 C7_7 1_555 1_555
C8_7 C3_7 1_555 1_555
H7_7 C8_7 1_555 1_555
O7_7 Al4_3 1_555 1_555
C21_7 O7_7 1_555 1_555
C22_7 C21_7 1_555 1_555
C23_7 H23_7 1_555 1_555
C24_7 C22_7 1_555 1_555
C25_7 C22_7 1_555 1_555
H25_7 C25_7 1_555 1_555
C26_7 C25_7 1_555 1_555
H26_7 C26_7 1_555 1_555
C27_7 C23_7 1_555 1_555
H27_7 C27_7 1_555 1_555
O13_7 Al4_3 1_555 1_555
O14_15 C42_15 1_555 1_555
C42_15 O13_7 1_555 1_555
C43_15 C42_15 1_555 1_555
C44_15 H38_15 1_555 1_555
C45_15 C43_15 1_555 1_555
H39_15 C45_15 1_555 1_555
C46_15 C43_15 1_555 1_555
H40_15 C46_15 1_555 1_555
C47_15 C46_15 1_555 1_555
H41_15 C47_15 1_555 1_555
C48_15 C44_15 1_555 1_555
H42_15 C48_15 1_555 1_555
Cd3_7 O14_15 1_555 1_555
O15_7 Al4_3 1_555 1_555
C3_7 C5_7 1_555 1_555
C7_7 C8_7 1_555 1_555
C23_7 C24_7 1_555 1_555
C26_7 C27_7 1_555 1_555
C44_15 C45_15 1_555 1_555
C47_15 C48_15 1_555 1_555
Cd3_7 O15_7 1_555 1_555
O11_8 C35_8 1_555 1_555
C36_8 C35_8 1_555 1_555
C37_8 H33_8 1_555 1_555
C38_8 C36_8 1_555 1_555
C39_8 C36_8 1_555 1_555
H35_8 C39_8 1_555 1_555
C40_8 C39_8 1_555 1_555
H36_8 C40_8 1_555 1_555
C41_8 C37_8 1_555 1_555
H37_8 C41_8 1_555 1_555
Cd3_8 O14_16 1_555 1_555
O11_8 Al6_4 1_555 1_555
C37_8 C38_8 1_555 1_555
C40_8 C41_8 1_555 1_555
Cd3_8 O15_8 1_555 1_555
Al6_4 O15_8 1_555 1_555
O2_8 Al4_4 1_555 1_555
C1_8 O2_8 1_555 1_555
C2_8 C1_8 1_555 1_555
C3_8 H1_8 1_555 1_555
C5_8 C2_8 1_555 1_555
C6_8 C2_8 1_555 1_555
H5_8 C6_8 1_555 1_555
C7_8 C6_8 1_555 1_555
H6_8 C7_8 1_555 1_555
C8_8 C3_8 1_555 1_555
H7_8 C8_8 1_555 1_555
O7_8 Al4_4 1_555 1_555
C21_8 O7_8 1_555 1_555
C22_8 C21_8 1_555 1_555
C23_8 H23_8 1_555 1_555
C24_8 C22_8 1_555 1_555
H24_8 C24_8 1_555 1_555
C25_8 C22_8 1_555 1_555
H25_8 C25_8 1_555 1_555
C26_8 C25_8 1_555 1_555
H26_8 C26_8 1_555 1_555
C27_8 C23_8 1_555 1_555
H27_8 C27_8 1_555 1_555
O13_8 Al4_4 1_555 1_555
C42_16 O13_8 1_555 1_555
C43_16 C42_16 1_555 1_555
C44_16 H38_16 1_555 1_555
C45_16 C43_16 1_555 1_555
C46_16 C43_16 1_555 1_555
H40_16 C46_16 1_555 1_555
C47_16 C46_16 1_555 1_555
H41_16 C47_16 1_555 1_555
C48_16 C44_16 1_555 1_555
H42_16 C48_16 1_555 1_555
C3_8 C5_8 1_555 1_555
C7_8 C8_8 1_555 1_555
O20_4 C21_8 1_555 1_555
C23_8 C24_8 1_555 1_555
C26_8 C27_8 1_555 1_555
C44_16 C45_16 1_555 1_555
C47_16 C48_16 1_555 1_555
Cd5_8 O5_12 1_555 1_555
Cd5_8 O17_8 1_555 1_555
Al5_4 O4_12 1_555 1_555
O4_12 C14_12 1_555 1_555
C14_12 C15_12 1_555 1_555
C15_12 C17_12 1_555 1_555
C16_12 H18_12 1_555 1_555
C17_12 C16_12 1_555 1_555
C18_12 C15_12 1_555 1_555
H20_12 C18_12 1_555 1_555
C19_12 C18_12 1_555 1_555
H21_12 C19_12 1_555 1_555
C20_12 C16_12 1_555 1_555
H22_12 C20_12 1_555 1_555
O9_8 Al5_4 1_555 1_555
C28_8 O9_8 1_555 1_555
C29_8 C28_8 1_555 1_555
C30_8 H28_8 1_555 1_555
C31_8 C29_8 1_555 1_555
C32_8 C29_8 1_555 1_555
H30_8 C32_8 1_555 1_555
C33_8 C32_8 1_555 1_555
H31_8 C33_8 1_555 1_555
C34_8 C30_8 1_555 1_555
H32_8 C34_8 1_555 1_555
Cd4_8 O3_8 1_555 1_555
O18_12 Al5_4 1_555 1_555
Al5_4 O16_8 1_555 1_555
C19_12 C20_12 1_555 1_555
C30_8 C31_8 1_555 1_555
C33_8 C34_8 1_555 1_555
Cd4_8 O16_8 1_555 1_555
Cd4_5 O14_17 1_555 1_555
Cd3_5 O5_13 1_555 1_555
C42_17 O18_9 1_555 1_555
C43_17 C42_17 1_555 1_555
C44_17 H38_17 1_555 1_555
C45_17 C43_17 1_555 1_555
C46_17 C43_17 1_555 1_555
H40_17 C46_17 1_555 1_555
C47_17 C46_17 1_555 1_555
H41_17 C47_17 1_555 1_555
C48_17 C44_17 1_555 1_555
H42_17 C48_17 1_555 1_555
C44_17 C45_17 1_555 1_555
C47_17 C48_17 1_555 1_555
Al6_2 O4_13 1_555 1_555
O4_13 C14_13 1_555 1_555
C14_13 C15_13 1_555 1_555
C15_13 C17_13 1_555 1_555
C16_13 H18_13 1_555 1_555
C17_13 C16_13 1_555 1_555
C18_13 C15_13 1_555 1_555
H20_13 C18_13 1_555 1_555
C19_13 C18_13 1_555 1_555
H21_13 C19_13 1_555 1_555
C20_13 C16_13 1_555 1_555
H22_13 C20_13 1_555 1_555
O18_13 Al6_2 1_555 1_555
C19_13 C20_13 1_555 1_555
Al6_4 O4_14 1_555 1_555
O4_14 C14_14 1_555 1_555
O5_14 C14_14 1_555 1_555
C14_14 C15_14 1_555 1_555
C15_14 C17_14 1_555 1_555
C16_14 H18_14 1_555 1_555
C17_14 C16_14 1_555 1_555
H19_14 C17_14 1_555 1_555
C18_14 C15_14 1_555 1_555
H20_14 C18_14 1_555 1_555
C19_14 C18_14 1_555 1_555
H21_14 C19_14 1_555 1_555
C20_14 C16_14 1_555 1_555
H22_14 C20_14 1_555 1_555
Cd3_8 O5_14 1_555 1_555
O18_14 Al6_4 1_555 1_555
C19_14 C20_14 1_555 1_555
O14_18 C42_18 1_555 1_555
C42_18 O18_12 1_555 1_555
C43_18 C42_18 1_555 1_555
C44_18 H38_18 1_555 1_555
C45_18 C43_18 1_555 1_555
H39_18 C45_18 1_555 1_555
C46_18 C43_18 1_555 1_555
H40_18 C46_18 1_555 1_555
C47_18 C46_18 1_555 1_555
H41_18 C47_18 1_555 1_555
C48_18 C44_18 1_555 1_555
H42_18 C48_18 1_555 1_555
Cd4_8 O14_18 1_555 1_555
C44_18 C45_18 1_555 1_555
C47_18 C48_18 1_555 1_555
Al6 O4_15 1_555 1_555
O4_15 C14_15 1_555 1_555
O5_15 C14_15 1_555 1_555
C14_15 C15_15 1_555 1_555
C15_15 C17_15 1_555 1_555
C16_15 H18_15 1_555 1_555
C17_15 C16_15 1_555 1_555
H19_15 C17_15 1_555 1_555
C18_15 C15_15 1_555 1_555
H20_15 C18_15 1_555 1_555
C19_15 C18_15 1_555 1_555
H21_15 C19_15 1_555 1_555
C20_15 C16_15 1_555 1_555
H22_15 C20_15 1_555 1_555
O14_19 C42_19 1_555 1_555
C42_19 O18_10 1_555 1_555
C43_19 C42_19 1_555 1_555
C44_19 H38_19 1_555 1_555
C45_19 C43_19 1_555 1_555
H39_19 C45_19 1_555 1_555
C46_19 C43_19 1_555 1_555
H40_19 C46_19 1_555 1_555
C47_19 C46_19 1_555 1_555
H41_19 C47_19 1_555 1_555
C48_19 C44_19 1_555 1_555
H42_19 C48_19 1_555 1_555
Cd4_6 O14_19 1_555 1_555
Cd3_6 O5_15 1_555 1_555
O18_15 Al6 1_555 1_555
C19_15 C20_15 1_555 1_555
C44_19 C45_19 1_555 1_555
C47_19 C48_19 1_555 1_555
C42_20 O18_11 1_555 1_555
C43_20 C42_20 1_555 1_555
C44_20 H38_20 1_555 1_555
C45_20 C43_20 1_555 1_555
C46_20 C43_20 1_555 1_555
H40_20 C46_20 1_555 1_555
C47_20 C46_20 1_555 1_555
H41_20 C47_20 1_555 1_555
C48_20 C44_20 1_555 1_555
H42_20 C48_20 1_555 1_555
C44_20 C45_20 1_555 1_555
C47_20 C48_20 1_555 1_555
Cd4_7 O14_20 1_555 1_555
Al6_3 O4_16 1_555 1_555
O4_16 C14_16 1_555 1_555
C14_16 C15_16 1_555 1_555
C15_16 C17_16 1_555 1_555
C16_16 H18_16 1_555 1_555
C17_16 C16_16 1_555 1_555
C18_16 C15_16 1_555 1_555
H20_16 C18_16 1_555 1_555
C19_16 C18_16 1_555 1_555
H21_16 C19_16 1_555 1_555
C20_16 C16_16 1_555 1_555
H22_16 C20_16 1_555 1_555
O18_16 Al6_3 1_555 1_555
C19_16 C20_16 1_555 1_555
Cd3_7 O5_16 1_555 1_555
O14_21 C42_21 1_555 1_555
C42_21 O18_13 1_555 1_555
C43_21 C42_21 1_555 1_555
C44_21 H38_21 1_555 1_555
C45_21 C43_21 1_555 1_555
H39_21 C45_21 1_555 1_555
C46_21 C43_21 1_555 1_555
H40_21 C46_21 1_555 1_555
C47_21 C46_21 1_555 1_555
H41_21 C47_21 1_555 1_555
C48_21 C44_21 1_555 1_555
H42_21 C48_21 1_555 1_555
Cd5_5 O14_21 1_555 1_555
C44_21 C45_21 1_555 1_555
C47_21 C48_21 1_555 1_555
Cd5_7 O14_22 1_555 1_555
C42_22 O18_16 1_555 1_555
C43_22 C42_22 1_555 1_555
C44_22 H38_22 1_555 1_555
C45_22 C43_22 1_555 1_555
C46_22 C43_22 1_555 1_555
H40_22 C46_22 1_555 1_555
C47_22 C46_22 1_555 1_555
H41_22 C47_22 1_555 1_555
C48_22 C44_22 1_555 1_555
H42_22 C48_22 1_555 1_555
C44_22 C45_22 1_555 1_555
C47_22 C48_22 1_555 1_555
C42_23 O18_14 1_555 1_555
C43_23 C42_23 1_555 1_555
C44_23 H38_23 1_555 1_555
C45_23 C43_23 1_555 1_555
C46_23 C43_23 1_555 1_555
H40_23 C46_23 1_555 1_555
C47_23 C46_23 1_555 1_555
H41_23 C47_23 1_555 1_555
C48_23 C44_23 1_555 1_555
H42_23 C48_23 1_555 1_555
C44_23 C45_23 1_555 1_555
C47_23 C48_23 1_555 1_555
Cd5_8 O14_23 1_555 1_555
O14_24 C42_24 1_555 1_555
C42_24 O18_15 1_555 1_555
C43_24 C42_24 1_555 1_555
C44_24 H38_24 1_555 1_555
C45_24 C43_24 1_555 1_555
H39_24 C45_24 1_555 1_555
C46_24 C43_24 1_555 1_555
H40_24 C46_24 1_555 1_555
C47_24 C46_24 1_555 1_555
H41_24 C47_24 1_555 1_555
C48_24 C44_24 1_555 1_555
H42_24 C48_24 1_555 1_555
Cd5_6 O14_24 1_555 1_555
C44_24 C45_24 1_555 1_555
C47_24 C48_24 1_555 1_555
O15_3 Al2_5 1_555 1_555
N1_5 Cd3_3 1_555 1_555
C4_5 N1_5 1_555 1_555
H2_5 C4_5 1_555 1_555
H3_5 C4_5 1_555 1_555
C9_5 N1_5 1_555 1_555
H8_5 C9_5 1_555 1_555
H9_5 C9_5 1_555 1_555
C10_5 N1_5 1_555 1_555
H10_5 C10_5 1_555 1_555
H11_5 C10_5 1_555 1_555
N2_5 C11_5 1_555 1_555
C11_5 C9_5 1_555 1_555
H12_5 C11_5 1_555 1_555
H13_5 C11_5 1_555 1_555
C12_5 C4_5 1_555 1_555
H14_5 C12_5 1_555 1_555
H15_5 C12_5 1_555 1_555
C13_5 C10_5 1_555 1_555
H16_5 C13_5 1_555 1_555
H17_5 C13_5 1_555 1_555
Al2_5 O4_17 1_555 1_555
O4_17 C14_17 1_555 1_555
O5_17 C14_17 1_555 1_555
C14_17 C15_17 1_555 1_555
C15_17 C17_17 1_555 1_555
C16_17 H18_17 1_555 1_555
C17_17 C16_17 1_555 1_555
H19_17 C17_17 1_555 1_555
C18_17 C15_17 1_555 1_555
H20_17 C18_17 1_555 1_555
C19_17 C18_17 1_555 1_555
H21_17 C19_17 1_555 1_555
C20_17 C16_17 1_555 1_555
H22_17 C20_17 1_555 1_555
Cd4_5 N2_5 1_555 1_555
O9_9 Al2_5 1_555 1_555
O10_5 Cd3_3 1_555 1_555
C28_9 O9_9 1_555 1_555
C29_9 C28_9 1_555 1_555
C31_9 C29_9 1_555 1_555
H29_9 C31_9 1_555 1_555
C32_9 C29_9 1_555 1_555
H30_9 C32_9 1_555 1_555
C33_9 C32_9 1_555 1_555
H31_9 C33_9 1_555 1_555
C34_9 C30_9 1_555 1_555
Cd4_3 O5_17 1_555 1_555
O16_3 Al2_5 1_555 1_555
O18_17 Al2_5 1_555 1_555
O21_5 Cd4_5 1_555 1_555
N2_5 C12_5 1_555 1_555
N2_5 C13_5 1_555 1_555
Al2_5 O17_3 1_555 1_555
C19_17 C20_17 1_555 1_555
O10_5 C28_9 1_555 1_555
C30_9 C31_9 1_555 1_555
C33_9 C34_9 1_555 1_555
O15_4 Al2_6 1_555 1_555
N1_6 Cd3_4 1_555 1_555
C4_6 N1_6 1_555 1_555
H2_6 C4_6 1_555 1_555
H3_6 C4_6 1_555 1_555
C9_6 N1_6 1_555 1_555
H8_6 C9_6 1_555 1_555
H9_6 C9_6 1_555 1_555
C10_6 N1_6 1_555 1_555
H10_6 C10_6 1_555 1_555
H11_6 C10_6 1_555 1_555
N2_6 C11_6 1_555 1_555
C11_6 C9_6 1_555 1_555
H12_6 C11_6 1_555 1_555
H13_6 C11_6 1_555 1_555
C12_6 C4_6 1_555 1_555
H14_6 C12_6 1_555 1_555
H15_6 C12_6 1_555 1_555
C13_6 C10_6 1_555 1_555
H16_6 C13_6 1_555 1_555
H17_6 C13_6 1_555 1_555
Al2_6 O4_18 1_555 1_555
O4_18 C14_18 1_555 1_555
O5_18 C14_18 1_555 1_555
C14_18 C15_18 1_555 1_555
C15_18 C17_18 1_555 1_555
C16_18 H18_18 1_555 1_555
C17_18 C16_18 1_555 1_555
H19_18 C17_18 1_555 1_555
C18_18 C15_18 1_555 1_555
H20_18 C18_18 1_555 1_555
C19_18 C18_18 1_555 1_555
H21_18 C19_18 1_555 1_555
C20_18 C16_18 1_555 1_555
H22_18 C20_18 1_555 1_555
Cd4_6 N2_6 1_555 1_555
O9_10 Al2_6 1_555 1_555
O10_6 Cd3_4 1_555 1_555
C28_10 O9_10 1_555 1_555
C29_10 C28_10 1_555 1_555
C30_10 H28_10 1_555 1_555
C31_10 C29_10 1_555 1_555
H29_10 C31_10 1_555 1_555
C32_10 C29_10 1_555 1_555
H30_10 C32_10 1_555 1_555
C33_10 C32_10 1_555 1_555
H31_10 C33_10 1_555 1_555
C34_10 C30_10 1_555 1_555
H32_10 C34_10 1_555 1_555
Cd4_4 O5_18 1_555 1_555
Al6_6 O16_6 1_555 1_555
O16_4 Al2_6 1_555 1_555
O18_18 Al2_6 1_555 1_555
O21_6 Cd4_6 1_555 1_555
N2_6 C12_6 1_555 1_555
N2_6 C13_6 1_555 1_555
Al2_6 O17_4 1_555 1_555
C19_18 C20_18 1_555 1_555
O10_6 C28_10 1_555 1_555
C30_10 C31_10 1_555 1_555
C33_10 C34_10 1_555 1_555
O15 Al2_7 1_555 1_555
N1_7 Cd3 1_555 1_555
C4_7 N1_7 1_555 1_555
H2_7 C4_7 1_555 1_555
H3_7 C4_7 1_555 1_555
C9_7 N1_7 1_555 1_555
H8_7 C9_7 1_555 1_555
H9_7 C9_7 1_555 1_555
C10_7 N1_7 1_555 1_555
H10_7 C10_7 1_555 1_555
H11_7 C10_7 1_555 1_555
N2_7 C11_7 1_555 1_555
C11_7 C9_7 1_555 1_555
H12_7 C11_7 1_555 1_555
H13_7 C11_7 1_555 1_555
C12_7 C4_7 1_555 1_555
H14_7 C12_7 1_555 1_555
H15_7 C12_7 1_555 1_555
C13_7 C10_7 1_555 1_555
H16_7 C13_7 1_555 1_555
H17_7 C13_7 1_555 1_555
Al2_7 O4_19 1_555 1_555
O4_19 C14_19 1_555 1_555
O5_19 C14_19 1_555 1_555
C14_19 C15_19 1_555 1_555
C15_19 C17_19 1_555 1_555
C17_19 C16_19 1_555 1_555
H19_19 C17_19 1_555 1_555
C18_19 C15_19 1_555 1_555
H20_19 C18_19 1_555 1_555
C19_19 C18_19 1_555 1_555
H21_19 C19_19 1_555 1_555
C20_19 C16_19 1_555 1_555
Cd4_8 N2_7 1_555 1_555
O9_11 Al2_7 1_555 1_555
O10_7 Cd3 1_555 1_555
C28_11 O9_11 1_555 1_555
C29_11 C28_11 1_555 1_555
C31_11 C29_11 1_555 1_555
H29_11 C31_11 1_555 1_555
C32_11 C29_11 1_555 1_555
H30_11 C32_11 1_555 1_555
C33_11 C32_11 1_555 1_555
H31_11 C33_11 1_555 1_555
C34_11 C30_11 1_555 1_555
Cd4 O5_19 1_555 1_555
O16 Al2_7 1_555 1_555
O18_19 Al2_7 1_555 1_555
O21_7 Cd4_8 1_555 1_555
N2_7 C12_7 1_555 1_555
N2_7 C13_7 1_555 1_555
Al2_7 O17 1_555 1_555
C19_19 C20_19 1_555 1_555
O10_7 C28_11 1_555 1_555
C30_11 C31_11 1_555 1_555
C33_11 C34_11 1_555 1_555
O15_2 Al2_8 1_555 1_555
N1_8 Cd3_2 1_555 1_555
C4_8 N1_8 1_555 1_555
H2_8 C4_8 1_555 1_555
H3_8 C4_8 1_555 1_555
C9_8 N1_8 1_555 1_555
H8_8 C9_8 1_555 1_555
H9_8 C9_8 1_555 1_555
C10_8 N1_8 1_555 1_555
H10_8 C10_8 1_555 1_555
H11_8 C10_8 1_555 1_555
N2_8 C11_8 1_555 1_555
C11_8 C9_8 1_555 1_555
H12_8 C11_8 1_555 1_555
H13_8 C11_8 1_555 1_555
C12_8 C4_8 1_555 1_555
H14_8 C12_8 1_555 1_555
H15_8 C12_8 1_555 1_555
C13_8 C10_8 1_555 1_555
H16_8 C13_8 1_555 1_555
H17_8 C13_8 1_555 1_555
Al2_8 O4_20 1_555 1_555
O4_20 C14_20 1_555 1_555
O5_20 C14_20 1_555 1_555
C14_20 C15_20 1_555 1_555
C15_20 C17_20 1_555 1_555
C17_20 C16_20 1_555 1_555
H19_20 C17_20 1_555 1_555
C18_20 C15_20 1_555 1_555
H20_20 C18_20 1_555 1_555
C19_20 C18_20 1_555 1_555
H21_20 C19_20 1_555 1_555
C20_20 C16_20 1_555 1_555
Cd4_7 N2_8 1_555 1_555
O9_12 Al2_8 1_555 1_555
O10_8 Cd3_2 1_555 1_555
C28_12 O9_12 1_555 1_555
C29_12 C28_12 1_555 1_555
C30_12 H28_12 1_555 1_555
C31_12 C29_12 1_555 1_555
H29_12 C31_12 1_555 1_555
C32_12 C29_12 1_555 1_555
H30_12 C32_12 1_555 1_555
C33_12 C32_12 1_555 1_555
H31_12 C33_12 1_555 1_555
C34_12 C30_12 1_555 1_555
H32_12 C34_12 1_555 1_555
Cd4_2 O5_20 1_555 1_555
Al6_8 O16_7 1_555 1_555
O16_2 Al2_8 1_555 1_555
O18_20 Al2_8 1_555 1_555
O21_8 Cd4_7 1_555 1_555
N2_8 C12_8 1_555 1_555
N2_8 C13_8 1_555 1_555
Al2_8 O17_2 1_555 1_555
C19_20 C20_20 1_555 1_555
O10_8 C28_12 1_555 1_555
C30_12 C31_12 1_555 1_555
C33_12 C34_12 1_555 1_555
O14_25 C42_25 1_555 1_555
C42_25 O18_17 1_555 1_555
C43_25 C42_25 1_555 1_555
C44_25 H38_25 1_555 1_555
C45_25 C43_25 1_555 1_555
H39_25 C45_25 1_555 1_555
C46_25 C43_25 1_555 1_555
H40_25 C46_25 1_555 1_555
C47_25 C46_25 1_555 1_555
H41_25 C47_25 1_555 1_555
C48_25 C44_25 1_555 1_555
H42_25 C48_25 1_555 1_555
Cd5_3 O14_25 1_555 1_555
C44_25 C45_25 1_555 1_555
C47_25 C48_25 1_555 1_555
O14_26 C42_26 1_555 1_555
C42_26 O18_20 1_555 1_555
C43_26 C42_26 1_555 1_555
C44_26 H38_26 1_555 1_555
C45_26 C43_26 1_555 1_555
H39_26 C45_26 1_555 1_555
C46_26 C43_26 1_555 1_555
H40_26 C46_26 1_555 1_555
C47_26 C46_26 1_555 1_555
H41_26 C47_26 1_555 1_555
C48_26 C44_26 1_555 1_555
H42_26 C48_26 1_555 1_555
Cd5_2 O14_26 1_555 1_555
C44_26 C45_26 1_555 1_555
C47_26 C48_26 1_555 1_555
O14_27 C42_27 1_555 1_555
C42_27 O18_18 1_555 1_555
C43_27 C42_27 1_555 1_555
C45_27 C43_27 1_555 1_555
H39_27 C45_27 1_555 1_555
C46_27 C43_27 1_555 1_555
H40_27 C46_27 1_555 1_555
C47_27 C46_27 1_555 1_555
H41_27 C47_27 1_555 1_555
C48_27 C44_27 1_555 1_555
Cd5_4 O14_27 1_555 1_555
C44_27 C45_27 1_555 1_555
C47_27 C48_27 1_555 1_555
O14_28 C42_28 1_555 1_555
C42_28 O18_19 1_555 1_555
C43_28 C42_28 1_555 1_555
C45_28 C43_28 1_555 1_555
H39_28 C45_28 1_555 1_555
C46_28 C43_28 1_555 1_555
H40_28 C46_28 1_555 1_555
C47_28 C46_28 1_555 1_555
H41_28 C47_28 1_555 1_555
C48_28 C44_28 1_555 1_555
Cd5 O14_28 1_555 1_555
C44_28 C45_28 1_555 1_555
C47_28 C48_28 1_555 1_555
O11_9 C35_9 1_555 1_555
C35_9 O21_6 1_555 1_555
C36_9 C35_9 1_555 1_555
C37_9 H33_9 1_555 1_555
C38_9 C36_9 1_555 1_555
H34_9 C38_9 1_555 1_555
C39_9 C36_9 1_555 1_555
H35_9 C39_9 1_555 1_555
C40_9 C39_9 1_555 1_555
H36_9 C40_9 1_555 1_555
C41_9 C37_9 1_555 1_555
H37_9 C41_9 1_555 1_555
O11_9 Al6_6 1_555 1_555
C37_9 C38_9 1_555 1_555
C40_9 C41_9 1_555 1_555
Al6_6 O17_6 1_555 1_555
Al6_6 O15_6 1_555 1_555
O11_10 C35_10 1_555 1_555
C36_10 C35_10 1_555 1_555
C37_10 H33_10 1_555 1_555
C38_10 C36_10 1_555 1_555
C39_10 C36_10 1_555 1_555
H35_10 C39_10 1_555 1_555
C40_10 C39_10 1_555 1_555
H36_10 C40_10 1_555 1_555
C41_10 C37_10 1_555 1_555
H37_10 C41_10 1_555 1_555
O11_10 Al6_5 1_555 1_555
C37_10 C38_10 1_555 1_555
C40_10 C41_10 1_555 1_555
Al6_5 O15_5 1_555 1_555
O11_11 C35_11 1_555 1_555
C36_11 C35_11 1_555 1_555
C37_11 H33_11 1_555 1_555
C38_11 C36_11 1_555 1_555
C39_11 C36_11 1_555 1_555
H35_11 C39_11 1_555 1_555
C40_11 C39_11 1_555 1_555
H36_11 C40_11 1_555 1_555
C41_11 C37_11 1_555 1_555
H37_11 C41_11 1_555 1_555
O11_11 Al6_7 1_555 1_555
C37_11 C38_11 1_555 1_555
C40_11 C41_11 1_555 1_555
Al6_7 O17_8 1_555 1_555
O11_12 C35_12 1_555 1_555
C35_12 O21_8 1_555 1_555
C36_12 C35_12 1_555 1_555
C37_12 H33_12 1_555 1_555
C38_12 C36_12 1_555 1_555
H34_12 C38_12 1_555 1_555
C39_12 C36_12 1_555 1_555
H35_12 C39_12 1_555 1_555
C40_12 C39_12 1_555 1_555
H36_12 C40_12 1_555 1_555
C41_12 C37_12 1_555 1_555
H37_12 C41_12 1_555 1_555
O11_12 Al6_8 1_555 1_555
C37_12 C38_12 1_555 1_555
C40_12 C41_12 1_555 1_555
Al6_6 O4_21 1_555 1_555
O4_21 C14_21 1_555 1_555
O5_21 C14_21 1_555 1_555
C14_21 C15_21 1_555 1_555
C15_21 C17_21 1_555 1_555
C16_21 H18_21 1_555 1_555
C17_21 C16_21 1_555 1_555
H19_21 C17_21 1_555 1_555
C18_21 C15_21 1_555 1_555
H20_21 C18_21 1_555 1_555
C19_21 C18_21 1_555 1_555
H21_21 C19_21 1_555 1_555
C20_21 C16_21 1_555 1_555
H22_21 C20_21 1_555 1_555
Cd5_6 O5_21 1_555 1_555
O18_21 Al6_6 1_555 1_555
C19_21 C20_21 1_555 1_555
Cd5_7 O5_22 1_555 1_555
Al6_8 O4_22 1_555 1_555
O4_22 C14_22 1_555 1_555
C14_22 C15_22 1_555 1_555
C15_22 C17_22 1_555 1_555
C16_22 H18_22 1_555 1_555
C17_22 C16_22 1_555 1_555
C18_22 C15_22 1_555 1_555
H20_22 C18_22 1_555 1_555
C19_22 C18_22 1_555 1_555
H21_22 C19_22 1_555 1_555
C20_22 C16_22 1_555 1_555
H22_22 C20_22 1_555 1_555
O18_22 Al6_8 1_555 1_555
C19_22 C20_22 1_555 1_555
Al6_5 O4_23 1_555 1_555
O4_23 C14_23 1_555 1_555
C14_23 C15_23 1_555 1_555
C15_23 C17_23 1_555 1_555
C16_23 H18_23 1_555 1_555
C17_23 C16_23 1_555 1_555
C18_23 C15_23 1_555 1_555
H20_23 C18_23 1_555 1_555
C19_23 C18_23 1_555 1_555
H21_23 C19_23 1_555 1_555
C20_23 C16_23 1_555 1_555
H22_23 C20_23 1_555 1_555
O18_23 Al6_5 1_555 1_555
C19_23 C20_23 1_555 1_555
Cd5_5 O5_23 1_555 1_555
Al6_7 O4_24 1_555 1_555
O4_24 C14_24 1_555 1_555
O5_24 C14_24 1_555 1_555
C14_24 C15_24 1_555 1_555
C15_24 C17_24 1_555 1_555
C16_24 H18_24 1_555 1_555
C17_24 C16_24 1_555 1_555
H19_24 C17_24 1_555 1_555
C18_24 C15_24 1_555 1_555
H20_24 C18_24 1_555 1_555
C19_24 C18_24 1_555 1_555
H21_24 C19_24 1_555 1_555
C20_24 C16_24 1_555 1_555
H22_24 C20_24 1_555 1_555
Cd5_8 O5_24 1_555 1_555
O18_24 Al6_7 1_555 1_555
C19_24 C20_24 1_555 1_555
O14_29 C42_29 1_555 1_555
C42_29 O18_21 1_555 1_555
C43_29 C42_29 1_555 1_555
C44_29 H38_29 1_555 1_555
C45_29 C43_29 1_555 1_555
H39_29 C45_29 1_555 1_555
C46_29 C43_29 1_555 1_555
H40_29 C46_29 1_555 1_555
C47_29 C46_29 1_555 1_555
H41_29 C47_29 1_555 1_555
C48_29 C44_29 1_555 1_555
H42_29 C48_29 1_555 1_555
Cd3_6 O14_29 1_555 1_555
C44_29 C45_29 1_555 1_555
C47_29 C48_29 1_555 1_555
Cd3_8 O14_30 1_555 1_555
C42_30 O18_24 1_555 1_555
C43_30 C42_30 1_555 1_555
C44_30 H38_30 1_555 1_555
C45_30 C43_30 1_555 1_555
C46_30 C43_30 1_555 1_555
H40_30 C46_30 1_555 1_555
C47_30 C46_30 1_555 1_555
H41_30 C47_30 1_555 1_555
C48_30 C44_30 1_555 1_555
H42_30 C48_30 1_555 1_555
C44_30 C45_30 1_555 1_555
C47_30 C48_30 1_555 1_555
C42_31 O18_22 1_555 1_555
C43_31 C42_31 1_555 1_555
C44_31 H38_31 1_555 1_555
C45_31 C43_31 1_555 1_555
C46_31 C43_31 1_555 1_555
H40_31 C46_31 1_555 1_555
C47_31 C46_31 1_555 1_555
H41_31 C47_31 1_555 1_555
C48_31 C44_31 1_555 1_555
H42_31 C48_31 1_555 1_555
C44_31 C45_31 1_555 1_555
C47_31 C48_31 1_555 1_555
Cd3_7 O14_31 1_555 1_555
O14_32 C42_32 1_555 1_555
C42_32 O18_23 1_555 1_555
C43_32 C42_32 1_555 1_555
C44_32 H38_32 1_555 1_555
C45_32 C43_32 1_555 1_555
H39_32 C45_32 1_555 1_555
C46_32 C43_32 1_555 1_555
H40_32 C46_32 1_555 1_555
C47_32 C46_32 1_555 1_555
H41_32 C47_32 1_555 1_555
C48_32 C44_32 1_555 1_555
H42_32 C48_32 1_555 1_555
Cd3_5 O14_32 1_555 1_555
C44_32 C45_32 1_555 1_555
C47_32 C48_32 1_555 1_555
N1_9 Cd4_2 1_555 1_555
C4_9 N1_9 1_555 1_555
H2_9 C4_9 1_555 1_555
H3_9 C4_9 1_555 1_555
C9_9 N1_9 1_555 1_555
H8_9 C9_9 1_555 1_555
H9_9 C9_9 1_555 1_555
C10_9 N1_9 1_555 1_555
H10_9 C10_9 1_555 1_555
H11_9 C10_9 1_555 1_555
N2_9 C11_9 1_555 1_555
C11_9 C9_9 1_555 1_555
H12_9 C11_9 1_555 1_555
H13_9 C11_9 1_555 1_555
C12_9 C4_9 1_555 1_555
H14_9 C12_9 1_555 1_555
H15_9 C12_9 1_555 1_555
C13_9 C10_9 1_555 1_555
H16_9 C13_9 1_555 1_555
H17_9 C13_9 1_555 1_555
Cd3_8 N2_9 1_555 1_555
N2_9 C12_9 1_555 1_555
N2_9 C13_9 1_555 1_555
N1_10 Cd4 1_555 1_555
C4_10 N1_10 1_555 1_555
H2_10 C4_10 1_555 1_555
H3_10 C4_10 1_555 1_555
C9_10 N1_10 1_555 1_555
H8_10 C9_10 1_555 1_555
H9_10 C9_10 1_555 1_555
C10_10 N1_10 1_555 1_555
H10_10 C10_10 1_555 1_555
H11_10 C10_10 1_555 1_555
N2_10 C11_10 1_555 1_555
C11_10 C9_10 1_555 1_555
H12_10 C11_10 1_555 1_555
H13_10 C11_10 1_555 1_555
C12_10 C4_10 1_555 1_555
H14_10 C12_10 1_555 1_555
H15_10 C12_10 1_555 1_555
C13_10 C10_10 1_555 1_555
H16_10 C13_10 1_555 1_555
H17_10 C13_10 1_555 1_555
Cd3_7 N2_10 1_555 1_555
N2_10 C12_10 1_555 1_555
N2_10 C13_10 1_555 1_555
N1_11 Cd4_4 1_555 1_555
C4_11 N1_11 1_555 1_555
H2_11 C4_11 1_555 1_555
H3_11 C4_11 1_555 1_555
C9_11 N1_11 1_555 1_555
H8_11 C9_11 1_555 1_555
H9_11 C9_11 1_555 1_555
C10_11 N1_11 1_555 1_555
H10_11 C10_11 1_555 1_555
H11_11 C10_11 1_555 1_555
N2_11 C11_11 1_555 1_555
C11_11 C9_11 1_555 1_555
H12_11 C11_11 1_555 1_555
H13_11 C11_11 1_555 1_555
C12_11 C4_11 1_555 1_555
H14_11 C12_11 1_555 1_555
H15_11 C12_11 1_555 1_555
C13_11 C10_11 1_555 1_555
H16_11 C13_11 1_555 1_555
H17_11 C13_11 1_555 1_555
Cd3_5 N2_11 1_555 1_555
N2_11 C12_11 1_555 1_555
N2_11 C13_11 1_555 1_555
N1_12 Cd4_3 1_555 1_555
C4_12 N1_12 1_555 1_555
H2_12 C4_12 1_555 1_555
H3_12 C4_12 1_555 1_555
C9_12 N1_12 1_555 1_555
H8_12 C9_12 1_555 1_555
H9_12 C9_12 1_555 1_555
C10_12 N1_12 1_555 1_555
H10_12 C10_12 1_555 1_555
H11_12 C10_12 1_555 1_555
N2_12 C11_12 1_555 1_555
C11_12 C9_12 1_555 1_555
H12_12 C11_12 1_555 1_555
H13_12 C11_12 1_555 1_555
C12_12 C4_12 1_555 1_555
H14_12 C12_12 1_555 1_555
H15_12 C12_12 1_555 1_555
C13_12 C10_12 1_555 1_555
H16_12 C13_12 1_555 1_555
H17_12 C13_12 1_555 1_555
Cd3_6 N2_12 1_555 1_555
N2_12 C12_12 1_555 1_555
N2_12 C13_12 1_555 1_555
N1_13 Cd5_4 1_555 1_555
C4_13 N1_13 1_555 1_555
H2_13 C4_13 1_555 1_555
H3_13 C4_13 1_555 1_555
C9_13 N1_13 1_555 1_555
H8_13 C9_13 1_555 1_555
H9_13 C9_13 1_555 1_555
C10_13 N1_13 1_555 1_555
H10_13 C10_13 1_555 1_555
H11_13 C10_13 1_555 1_555
N2_13 C11_13 1_555 1_555
C11_13 C9_13 1_555 1_555
H12_13 C11_13 1_555 1_555
H13_13 C11_13 1_555 1_555
C12_13 C4_13 1_555 1_555
H14_13 C12_13 1_555 1_555
H15_13 C12_13 1_555 1_555
C13_13 C10_13 1_555 1_555
H16_13 C13_13 1_555 1_555
H17_13 C13_13 1_555 1_555
Cd5_7 N2_13 1_555 1_555
N2_13 C12_13 1_555 1_555
N2_13 C13_13 1_555 1_555
N1_14 Cd5_3 1_555 1_555
C4_14 N1_14 1_555 1_555
H2_14 C4_14 1_555 1_555
H3_14 C4_14 1_555 1_555
C9_14 N1_14 1_555 1_555
H8_14 C9_14 1_555 1_555
H9_14 C9_14 1_555 1_555
C10_14 N1_14 1_555 1_555
H10_14 C10_14 1_555 1_555
H11_14 C10_14 1_555 1_555
N2_14 C11_14 1_555 1_555
C11_14 C9_14 1_555 1_555
H12_14 C11_14 1_555 1_555
H13_14 C11_14 1_555 1_555
C12_14 C4_14 1_555 1_555
H14_14 C12_14 1_555 1_555
H15_14 C12_14 1_555 1_555
C13_14 C10_14 1_555 1_555
H16_14 C13_14 1_555 1_555
H17_14 C13_14 1_555 1_555
Cd5_8 N2_14 1_555 1_555
N2_14 C12_14 1_555 1_555
N2_14 C13_14 1_555 1_555
N1_15 Cd5_2 1_555 1_555
C4_15 N1_15 1_555 1_555
H2_15 C4_15 1_555 1_555
H3_15 C4_15 1_555 1_555
C9_15 N1_15 1_555 1_555
H8_15 C9_15 1_555 1_555
H9_15 C9_15 1_555 1_555
C10_15 N1_15 1_555 1_555
H10_15 C10_15 1_555 1_555
H11_15 C10_15 1_555 1_555
N2_15 C11_15 1_555 1_555
C11_15 C9_15 1_555 1_555
H12_15 C11_15 1_555 1_555
H13_15 C11_15 1_555 1_555
C12_15 C4_15 1_555 1_555
H14_15 C12_15 1_555 1_555
H15_15 C12_15 1_555 1_555
C13_15 C10_15 1_555 1_555
H16_15 C13_15 1_555 1_555
H17_15 C13_15 1_555 1_555
Cd5_6 N2_15 1_555 1_555
N2_15 C12_15 1_555 1_555
N2_15 C13_15 1_555 1_555
N1_16 Cd5 1_555 1_555
C4_16 N1_16 1_555 1_555
H2_16 C4_16 1_555 1_555
H3_16 C4_16 1_555 1_555
C9_16 N1_16 1_555 1_555
H8_16 C9_16 1_555 1_555
H9_16 C9_16 1_555 1_555
C10_16 N1_16 1_555 1_555
H10_16 C10_16 1_555 1_555
H11_16 C10_16 1_555 1_555
N2_16 C11_16 1_555 1_555
C11_16 C9_16 1_555 1_555
H12_16 C11_16 1_555 1_555
H13_16 C11_16 1_555 1_555
C12_16 C4_16 1_555 1_555
H14_16 C12_16 1_555 1_555
H15_16 C12_16 1_555 1_555
C13_16 C10_16 1_555 1_555
H16_16 C13_16 1_555 1_555
H17_16 C13_16 1_555 1_555
Cd5_5 N2_16 1_555 1_555
N2_16 C12_16 1_555 1_555
N2_16 C13_16 1_555 1_555

#END
