
###############################################################################
#
# This file contains modified crystal structure data generated from the
# MOF subset of the Cambridge Structural Database (CSD) v543 
# hosted by the Cambridge Crystallographic Data Centre (CCDC).
#
# This work is licensed under the Creative Commons
# Attribution-NonCommercial-ShareAlike 4.0 International License.
# To view a copy of this license, visit
# http://creativecommons.org/licenses/by-nc-sa/4.0/
# or send a letter to
# Creative Commons, PO Box 1866, Mountain View, CA 94042, USA.
#
# CIF created using the CSD Python API on 29 September 2022
# The structure has been converted into the P1 space group
# The structure has a 3D framework
# The original CSD entry NECHOW is in the hexagonal crystal system
# The framework has been calculated to contain at least 10.0% void space
# The void calculation uses a probe of radius 1.32A, grid spacing 0.4
# H atom positions have been added when not included in the experimental data
#
###############################################################################

data_NECHOW
_chemical_formula_moiety         '(C392 H384 Al16 Co16 N64 O112)n'
_symmetry_cell_setting           triclinic
_symmetry_space_group_name_H-M   'P 1'
_symmetry_Int_Tables_number      1
_space_group_name_Hall           'P 1'
loop_
_symmetry_equiv_pos_site_id
_symmetry_equiv_pos_as_xyz
1 x,y,z
_cell_length_a                   22.6772(3)
_cell_length_b                   22.6772(3)
_cell_length_c                   36.9621(5)
_cell_angle_alpha                90
_cell_angle_beta                 90
_cell_angle_gamma                120
_cell_volume                     16461.4
loop_
_atom_site_label
_atom_site_type_symbol
_atom_site_fract_x
_atom_site_fract_y
_atom_site_fract_z
C64 C -0.0000(6) 0.4211(12) 0.6589(6)
H57 H 0.0462 0.4529 0.6572
N13 N 0.0295(12) 0.4014(18) 0.7200(6)
C86 C 0.0050(12) 0.5977(8) 0.6751(5)
H78 H 0.0146 0.6342 0.6242
N17 N 0.0799(18) 0.6161(13) 0.6845(7)
N20 N 0.0618(7) 0.5278(5) 0.4888(2)
C106 C 0.0355(8) 0.4526(6) 0.4896(3)
H91 H 0.0678 0.4433 0.5019
H92 H 0.0295 0.4350 0.4651
C107 C 0.0564(8) 0.5514(6) 0.5244(3)
H93 H 0.0764 0.6005 0.5241
H94 H 0.0813 0.5401 0.5418
C108 C 0.0165(7) 0.5356(5) 0.4645(3)
H95 H 0.0214 0.5216 0.4404
H96 H 0.0295 0.5833 0.4634
C157 C -0.0000(6) 0.4211(12) 0.8411(6)
H123 H 0.0462 0.4529 0.8428
N28 N 0.0295(12) 0.4014(18) 0.7800(6)
C175 C 0.0050(12) 0.5977(8) 0.8249(5)
H136 H 0.0146 0.6342 0.8758
N30 N 0.0799(18) 0.6161(13) 0.8155(7)
Co10 Co 0.16601(13) 0.58037(9) 0.46876(3)
H159 H 0.0786654 0.437755 0.784416
H160 H 0.0170976 0.371044 0.75784
H165 H 0.1195 0.652154 0.830058
H166 H 0.0886625 0.591927 0.794872
H185 H 0.0786654 0.437755 0.715584
H186 H 0.0170976 0.371044 0.74216
H189 H 0.1195 0.652154 0.669942
H190 H 0.0886625 0.591927 0.705128
O32 O 0.5899(2) 0.2972(3) 0.01527(13)
O36 O 0.5460(3) 0.1847(4) 0.01665(19)
C109 C 0.5478(7) 0.2363(7) 0.0273(3)
C113 C 0.3644(8) 0.2460(7) 0.0025(5)
H97 H 0.3814 0.2918 0.0077
C114 C 0.2992(8) 0.1979(10) 0.0137(5)
H98 H 0.2726 0.2116 0.0263
C115 C 0.2738(6) 0.1294(9) 0.0059(6)
N21 N 0.2097(14) 0.0714(13) 0.0275(6)
C131 C 0.4565(7) 0.1730(5) 0.0741(4)
H109 H 0.4484 0.1319 0.0642
C132 C 0.4232(8) 0.1736(7) 0.1055(4)
H110 H 0.3928 0.1328 0.1167
C133 C 0.4353(9) 0.2351(10) 0.1202(3)
C134 C 0.4807(9) 0.2960(7) 0.1034(4)
H111 H 0.4888 0.3372 0.1132
C135 C 0.5140(6) 0.2955(5) 0.0719(3)
H112 H 0.5444 0.3363 0.0607
C136 C 0.5019(6) 0.2340(6) 0.0573(3)
N23 N 0.3573(14) 0.2151(13) 0.1344(6)
O41 O 0.7028(3) 0.2927(4) 0.01527(13)
O45 O 0.8153(4) 0.3613(5) 0.01665(19)
C137 C 0.7637(7) 0.3115(10) 0.0273(3)
C141 C 0.7540(7) 0.1184(11) 0.0025(5)
H113 H 0.7082 0.0896 0.0077
C142 C 0.8021(10) 0.1013(13) 0.0137(5)
H114 H 0.7884 0.0610 0.0263
C143 C 0.8706(9) 0.1444(11) 0.0059(6)
N25 N 0.9286(13) 0.1383(19) 0.0275(6)
C159 C 0.8270(5) 0.2835(9) 0.0741(4)
H125 H 0.8681 0.3165 0.0642
C160 C 0.8264(7) 0.2496(11) 0.1055(4)
H126 H 0.8672 0.2600 0.1167
C161 C 0.7649(10) 0.2002(13) 0.1202(3)
C162 C 0.7040(7) 0.1847(11) 0.1034(4)
H127 H 0.6628 0.1516 0.1132
C163 C 0.7045(5) 0.2185(8) 0.0719(3)
H128 H 0.6637 0.2081 0.0607
C164 C 0.7660(6) 0.2679(8) 0.0573(3)
N27 N 0.7849(13) 0.1422(19) 0.1344(6)
O50 O 0.7073(4) 0.4101(2) 0.01527(13)
O54 O 0.6387(5) 0.4540(3) 0.01665(19)
C165 C 0.6885(10) 0.4522(7) 0.0273(3)
C169 C 0.8816(11) 0.6356(8) 0.0025(5)
H129 H 0.9104 0.6186 0.0077
C170 C 0.8987(13) 0.7008(8) 0.0137(5)
H130 H 0.9390 0.7274 0.0263
C171 C 0.8556(11) 0.7262(6) 0.0059(6)
N29 N 0.8617(19) 0.7903(14) 0.0275(6)
C187 C 0.7165(9) 0.5435(7) 0.0741(4)
H141 H 0.6835 0.5516 0.0642
C188 C 0.7504(11) 0.5768(8) 0.1055(4)
H142 H 0.7400 0.6072 0.1167
C189 C 0.7998(13) 0.5647(9) 0.1202(3)
C190 C 0.8153(11) 0.5193(9) 0.1034(4)
H143 H 0.8484 0.5112 0.1132
C191 C 0.7815(8) 0.4860(6) 0.0719(3)
H144 H 0.7919 0.4556 0.0607
C192 C 0.7321(8) 0.4981(6) 0.0573(3)
N31 N 0.8578(19) 0.6427(14) 0.1344(6)
H149 H 0.191693 0.0215896 0.0215218
H150 H 0.187111 0.0844772 0.0471581
H151 H 0.349779 0.250845 0.146674
H152 H 0.317572 0.16724 0.130728
H157 H 0.97841 0.170103 0.0215218
H158 H 0.915523 0.102634 0.0471581
H163 H 0.749155 0.0989338 0.146674
H164 H 0.83276 0.150333 0.130728
H167 H 0.829897 0.808307 0.0215218
H168 H 0.897366 0.812889 0.0471581
H171 H 0.901066 0.650221 0.146674
H172 H 0.849667 0.682428 0.130728
Co1 Co 0.6667 0.3333 0.65634(5)
Co2 Co 0.58564(9) 0.41963(9) 0.53124(3)
Al1 Al 0.6667 0.3333 0.51563(9)
Al2 Al 0.58335(11) 0.29374(16) 0.57807(6)
O1 O 0.6313(3) 0.3719(3) 0.54892(13)
O2 O 0.5419(3) 0.3305(3) 0.60706(16)
O3 O 0.6667 0.3333 0.6044(2)
O4 O 0.5899(2) 0.2972(3) 0.48473(13)
O5 O 0.5032(3) 0.2492(3) 0.54972(13)
O6 O 0.5798(4) 0.3380(3) 0.66339(16)
O7 O 0.5426(3) 0.2160(3) 0.60742(16)
O8 O 0.5460(3) 0.1847(4) 0.48335(19)
O9 O 0.4925(4) 0.3384(4) 0.52896(18)
O10 O 0.5125(4) 0.1250(4) 0.5741(2)
N1 N 0.5340(5) 0.4722(5) 0.5112(2)
N2 N 0.6667 0.3333 0.7160(3)
C1 C 0.5478(7) 0.2363(7) 0.4727(3)
C2 C 0.4722(5) 0.2796(8) 0.5324(3)
C3 C 0.5431(6) 0.3435(6) 0.6393(3)
C4 C 0.6745(5) 0.3988(5) 0.7318(2)
H1 H 0.7168 0.4370 0.7232
H2 H 0.6375 0.4049 0.7232
C5 C 0.5126(7) 0.1525(6) 0.6025(3)
C6 C 0.5829(6) 0.5474(6) 0.5104(3)
H3 H 0.6245 0.5567 0.4981
H4 H 0.5945 0.5650 0.5349
C7 C 0.3644(8) 0.2460(7) 0.4975(5)
H5 H 0.3814 0.2918 0.4923
C8 C 0.2992(8) 0.1979(10) 0.4863(5)
H6 H 0.2726 0.2116 0.4737
C9 C 0.2738(6) 0.1294(9) 0.4941(6)
C10 C 0.3135(9) 0.1090(6) 0.5130(5)
H7 H 0.2965 0.0632 0.5182
C11 C 0.3787(8) 0.1571(8) 0.5241(4)
H8 H 0.4053 0.1435 0.5368
C12 C 0.4041(6) 0.2256(7) 0.5164(4)
N3 N 0.2097(14) 0.0714(13) 0.4725(6)
C13 C 0.4023(8) 0.4073(9) 0.6751(5)
C14 C 0.4527(9) 0.4129(9) 0.6987(3)
H9 H 0.4546 0.4284 0.7222
C15 C 0.5002(7) 0.3953(8) 0.6871(3)
H10 H 0.5339 0.3991 0.7028
C16 C 0.4973(6) 0.3722(7) 0.6519(3)
C17 C 0.4470(7) 0.3666(7) 0.6284(3)
H11 H 0.4451 0.3511 0.6049
C18 C 0.3995(6) 0.3841(8) 0.6400(5)
H12 H 0.3658 0.3804 0.6242
N4 N 0.3839(13) 0.4638(13) 0.6845(7)
C19 C 0.5050(6) 0.4486(6) 0.4756(3)
H13 H 0.4759 0.3995 0.4759
H14 H 0.5412 0.4599 0.4582
C20 C 0.4809(5) 0.4644(5) 0.5355(3)
H15 H 0.4998 0.4784 0.5596
H16 H 0.4462 0.4167 0.5366
C21 C 0.4653(6) 0.1100(6) 0.6309(2)
C22 C 0.4643(6) 0.1380(6) 0.6642(3)
H17 H 0.4787 0.1842 0.6659
C23 C 0.4417(8) 0.0971(9) 0.6948(2)
H18 H 0.4410 0.1158 0.7171
C24 C 0.4201(10) 0.0281(9) 0.6922(4)
C25 C 0.4211(10) -0.0000(6) 0.6589(6)
C26 C 0.4437(8) 0.0410(7) 0.6283(4)
H20 H 0.4444 0.0222 0.6060
C27 C 0.4565(7) 0.1730(5) 0.4259(4)
H21 H 0.4484 0.1319 0.4358
C28 C 0.4232(8) 0.1736(7) 0.3945(4)
H22 H 0.3928 0.1328 0.3833
C29 C 0.4353(9) 0.2351(10) 0.3798(3)
C30 C 0.4807(9) 0.2960(7) 0.3966(4)
H23 H 0.4888 0.3372 0.3868
C31 C 0.5140(6) 0.2955(5) 0.4281(3)
H24 H 0.5444 0.3363 0.4393
C32 C 0.5019(6) 0.2340(6) 0.4427(3)
N5 N 0.3573(14) 0.2151(13) 0.3656(6)
N7 N 0.4722(5) 0.5340(5) 0.4888(2)
C33 C 0.5474(6) 0.5829(6) 0.4896(3)
H25 H 0.5567 0.6245 0.5019
H26 H 0.5650 0.5945 0.4651
C34 C 0.4486(6) 0.5050(6) 0.5244(3)
H27 H 0.3995 0.4759 0.5241
H28 H 0.4599 0.5412 0.5418
C35 C 0.4644(5) 0.4809(5) 0.4645(3)
H29 H 0.4784 0.4998 0.4404
H30 H 0.4167 0.4462 0.4634
C36 C 0.6012(5) 0.2757(7) 0.7318(2)
H31 H 0.5630 0.2798 0.7232
H32 H 0.5951 0.2326 0.7232
C37 C 0.7243(7) 0.3255(5) 0.7318(2)
H33 H 0.7202 0.2832 0.7232
H34 H 0.7674 0.3625 0.7232
N8 N 0.6667 0.3333 0.7840(3)
C38 C 0.6745(5) 0.3988(5) 0.7682(2)
H35 H 0.7168 0.4370 0.7768
H36 H 0.6375 0.4049 0.7768
C39 C 0.6012(5) 0.2757(7) 0.7682(2)
H37 H 0.5630 0.2798 0.7768
H38 H 0.5951 0.2326 0.7768
C40 C 0.7243(7) 0.3255(5) 0.7682(2)
H39 H 0.7202 0.2832 0.7768
H40 H 0.7674 0.3625 0.7768
Co3 Co 0.58037(9) 0.16601(13) 0.53124(3)
Al3 Al 0.70626(16) 0.28961(19) 0.57807(6)
O11 O 0.6281(3) 0.2594(4) 0.54892(13)
O12 O 0.6695(3) 0.2114(4) 0.60706(16)
O13 O 0.7028(3) 0.2927(4) 0.48473(13)
O14 O 0.7508(3) 0.2540(4) 0.54972(13)
O15 O 0.6620(3) 0.2418(5) 0.66339(16)
O16 O 0.7840(3) 0.3266(4) 0.60742(16)
O17 O 0.8153(4) 0.3613(5) 0.48335(19)
O18 O 0.6616(4) 0.1541(6) 0.52896(18)
O19 O 0.8750(4) 0.3875(6) 0.5741(2)
N9 N 0.5278(5) 0.0618(7) 0.5112(2)
C41 C 0.7637(7) 0.3115(10) 0.4727(3)
C42 C 0.7204(8) 0.1926(9) 0.5324(3)
C43 C 0.6565(6) 0.1996(8) 0.6393(3)
C44 C 0.8475(6) 0.3601(9) 0.6025(3)
C45 C 0.4526(6) 0.0355(8) 0.5104(3)
H41 H 0.4433 0.0678 0.4981
H42 H 0.4350 0.0295 0.5349
C46 C 0.7540(7) 0.1184(11) 0.4975(5)
H43 H 0.7082 0.0896 0.4923
C47 C 0.8021(10) 0.1013(13) 0.4863(5)
H44 H 0.7884 0.0610 0.4737
C48 C 0.8706(9) 0.1444(11) 0.4941(6)
C49 C 0.8910(6) 0.2045(11) 0.5130(5)
H45 H 0.9368 0.2333 0.5182
C50 C 0.8429(8) 0.2216(11) 0.5241(4)
H46 H 0.8565 0.2618 0.5368
C51 C 0.7744(7) 0.1785(9) 0.5164(4)
N10 N 0.9286(13) 0.1383(19) 0.4725(6)
C53 C 0.5871(9) 0.0398(13) 0.6987(3)
H47 H 0.5716 0.0262 0.7222
C54 C 0.6047(8) 0.1049(11) 0.6871(3)
H48 H 0.6009 0.1348 0.7028
C55 C 0.6278(7) 0.1251(9) 0.6519(3)
C56 C 0.6334(7) 0.0804(10) 0.6284(3)
H49 H 0.6489 0.0940 0.6049
C57 C 0.6159(8) 0.0154(10) 0.6400(5)
C58 C 0.5514(6) 0.0564(8) 0.4756(3)
H51 H 0.6005 0.0764 0.4759
H52 H 0.5401 0.0813 0.4582
C59 C 0.5356(5) 0.0165(7) 0.5355(3)
H53 H 0.5216 0.0214 0.5596
H54 H 0.5833 0.0295 0.5366
C60 C 0.8900(6) 0.3553(8) 0.6309(2)
C61 C 0.8620(6) 0.3263(8) 0.6642(3)
H55 H 0.8158 0.2945 0.6659
C62 C 0.9029(9) 0.3446(12) 0.6948(2)
H56 H 0.8842 0.3252 0.7171
C63 C 0.9719(9) 0.3920(13) 0.6922(4)
C64_2 C 1.0000(6) 0.4211(12) 0.6589(6)
C65 C 0.9590(7) 0.4027(11) 0.6283(4)
H58 H 0.9778 0.4222 0.6060
C66 C 0.8270(5) 0.2835(9) 0.4259(4)
H59 H 0.8681 0.3165 0.4358
C67 C 0.8264(7) 0.2496(11) 0.3945(4)
H60 H 0.8672 0.2600 0.3833
C68 C 0.7649(10) 0.2002(13) 0.3798(3)
C69 C 0.7040(7) 0.1847(11) 0.3966(4)
H61 H 0.6628 0.1516 0.3868
C70 C 0.7045(5) 0.2185(8) 0.4281(3)
H62 H 0.6637 0.2081 0.4393
C71 C 0.7660(6) 0.2679(8) 0.4427(3)
N12 N 0.7849(13) 0.1422(19) 0.3656(6)
Co4 Co 0.83399(13) 0.41436(9) 0.53124(3)
Al4 Al 0.71039(19) 0.41665(11) 0.57807(6)
O20 O 0.7406(4) 0.3687(3) 0.54892(13)
O21 O 0.7886(4) 0.4581(3) 0.60706(16)
O22 O 0.7073(4) 0.4101(2) 0.48473(13)
O23 O 0.7460(4) 0.4968(3) 0.54972(13)
O24 O 0.7582(5) 0.4202(4) 0.66339(16)
O25 O 0.6734(4) 0.4574(3) 0.60742(16)
O26 O 0.6387(5) 0.4540(3) 0.48335(19)
O27 O 0.8459(6) 0.5075(4) 0.52896(18)
O28 O 0.6125(6) 0.4875(4) 0.5741(2)
N15 N 0.9382(7) 0.4660(5) 0.5112(2)
C75 C 0.6885(10) 0.4522(7) 0.4727(3)
C76 C 0.8074(9) 0.5278(5) 0.5324(3)
C77 C 0.8004(8) 0.4569(6) 0.6393(3)
C78 C 0.6399(9) 0.4874(7) 0.6025(3)
C79 C 0.9645(8) 0.4171(6) 0.5104(3)
H69 H 0.9322 0.3755 0.4981
H70 H 0.9705 0.4055 0.5349
C80 C 0.8816(11) 0.6356(8) 0.4975(5)
H71 H 0.9104 0.6186 0.4923
C81 C 0.8987(13) 0.7008(8) 0.4863(5)
H72 H 0.9390 0.7274 0.4737
C82 C 0.8556(11) 0.7262(6) 0.4941(6)
C83 C 0.7955(11) 0.6865(9) 0.5130(5)
H73 H 0.7667 0.7035 0.5182
C84 C 0.7784(11) 0.6213(8) 0.5241(4)
H74 H 0.7382 0.5947 0.5368
C85 C 0.8215(9) 0.5959(6) 0.5164(4)
N16 N 0.8617(19) 0.7903(14) 0.4725(6)
C87 C 0.9602(13) 0.5473(9) 0.6987(3)
H75 H 0.9738 0.5454 0.7222
C88 C 0.8951(11) 0.4998(7) 0.6871(3)
H76 H 0.8652 0.4661 0.7028
C89 C 0.8749(9) 0.5027(6) 0.6519(3)
C90 C 0.9196(10) 0.5530(7) 0.6284(3)
H77 H 0.9060 0.5549 0.6049
C91 C 0.9846(10) 0.6005(6) 0.6400(5)
C92 C 0.9436(8) 0.4950(6) 0.4756(3)
H79 H 0.9236 0.5241 0.4759
H80 H 0.9187 0.4588 0.4582
C93 C 0.9835(7) 0.5191(5) 0.5355(3)
H81 H 0.9786 0.5002 0.5596
H82 H 0.9705 0.5538 0.5366
C94 C 0.6447(8) 0.5347(6) 0.6309(2)
C95 C 0.6737(8) 0.5357(6) 0.6642(3)
H83 H 0.7055 0.5213 0.6659
C96 C 0.6554(12) 0.5583(8) 0.6948(2)
H84 H 0.6748 0.5590 0.7171
C97 C 0.6080(13) 0.5799(10) 0.6922(4)
C98 C 0.5789(12) 0.5789(10) 0.6589(6)
H85 H 0.5471 0.5933 0.6572
C99 C 0.5973(11) 0.5563(8) 0.6283(4)
H86 H 0.5778 0.5556 0.6060
C100 C 0.7165(9) 0.5435(7) 0.4259(4)
H87 H 0.6835 0.5516 0.4358
C101 C 0.7504(11) 0.5768(8) 0.3945(4)
H88 H 0.7400 0.6072 0.3833
C102 C 0.7998(13) 0.5647(9) 0.3798(3)
C103 C 0.8153(11) 0.5193(9) 0.3966(4)
H89 H 0.8484 0.5112 0.3868
C104 C 0.7815(8) 0.4860(6) 0.4281(3)
H90 H 0.7919 0.4556 0.4393
C105 C 0.7321(8) 0.4981(6) 0.4427(3)
N18 N 0.8578(19) 0.6427(14) 0.3656(6)
N19 N 0.5986(18) 0.6281(14) 0.7200(6)
Co5 Co 0.6667 0.3333 0.84366(5)
Co6 Co 0.58564(9) 0.41963(9) 0.96876(3)
Al5 Al 0.6667 0.3333 0.98437(9)
Al6 Al 0.58335(11) 0.29374(16) 0.92193(6)
O29 O 0.6313(3) 0.3719(3) 0.95108(13)
O30 O 0.5419(3) 0.3305(3) 0.89294(16)
O31 O 0.6667 0.3333 0.8956(2)
O33 O 0.5032(3) 0.2492(3) 0.95028(13)
O34 O 0.5798(4) 0.3380(3) 0.83661(16)
O35 O 0.5426(3) 0.2160(3) 0.89258(16)
O37 O 0.4925(4) 0.3384(4) 0.97104(18)
O38 O 0.5125(4) 0.1250(4) 0.9259(2)
C110 C 0.4722(5) 0.2796(8) 0.9676(3)
C111 C 0.5431(6) 0.3435(6) 0.8607(3)
C112 C 0.5126(7) 0.1525(6) 0.8975(3)
C116 C 0.3135(9) 0.1090(6) 0.9870(5)
H99 H 0.2965 0.0632 0.9818
C117 C 0.3787(8) 0.1571(8) 0.9759(4)
H100 H 0.4053 0.1435 0.9632
C118 C 0.4041(6) 0.2256(7) 0.9836(4)
C119 C 0.4023(8) 0.4073(9) 0.8249(5)
C120 C 0.4527(9) 0.4129(9) 0.8013(3)
H101 H 0.4546 0.4284 0.7778
C121 C 0.5002(7) 0.3953(8) 0.8129(3)
H102 H 0.5339 0.3991 0.7972
C122 C 0.4973(6) 0.3722(7) 0.8481(3)
C123 C 0.4470(7) 0.3666(7) 0.8716(3)
H103 H 0.4451 0.3511 0.8951
C124 C 0.3995(6) 0.3841(8) 0.8600(5)
H104 H 0.3658 0.3804 0.8758
N22 N 0.3839(13) 0.4638(13) 0.8155(7)
C125 C 0.4653(6) 0.1100(6) 0.8691(2)
C126 C 0.4643(6) 0.1380(6) 0.8358(3)
H105 H 0.4787 0.1842 0.8341
C127 C 0.4417(8) 0.0971(9) 0.8052(2)
H106 H 0.4410 0.1158 0.7829
C128 C 0.4201(10) 0.0281(9) 0.8078(4)
C129 C 0.4211(10) -0.0000(6) 0.8411(6)
C130 C 0.4437(8) 0.0410(7) 0.8717(4)
H108 H 0.4444 0.0222 0.8940
Co7 Co 0.58037(9) 0.16601(13) 0.96876(3)
Al7 Al 0.70626(16) 0.28961(19) 0.92193(6)
O39 O 0.6281(3) 0.2594(4) 0.95108(13)
O40 O 0.6695(3) 0.2114(4) 0.89294(16)
O42 O 0.7508(3) 0.2540(4) 0.95028(13)
O43 O 0.6620(3) 0.2418(5) 0.83661(16)
O44 O 0.7840(3) 0.3266(4) 0.89258(16)
O46 O 0.6616(4) 0.1541(6) 0.97104(18)
O47 O 0.8750(4) 0.3875(6) 0.9259(2)
C138 C 0.7204(8) 0.1926(9) 0.9676(3)
C139 C 0.6565(6) 0.1996(8) 0.8607(3)
C140 C 0.8475(6) 0.3601(9) 0.8975(3)
C144 C 0.8910(6) 0.2045(11) 0.9870(5)
H115 H 0.9368 0.2333 0.9818
C145 C 0.8429(8) 0.2216(11) 0.9759(4)
H116 H 0.8565 0.2618 0.9632
C146 C 0.7744(7) 0.1785(9) 0.9836(4)
C148 C 0.5871(9) 0.0398(13) 0.8013(3)
H117 H 0.5716 0.0262 0.7778
C149 C 0.6047(8) 0.1049(11) 0.8129(3)
H118 H 0.6009 0.1348 0.7972
C150 C 0.6278(7) 0.1251(9) 0.8481(3)
C151 C 0.6334(7) 0.0804(10) 0.8716(3)
H119 H 0.6489 0.0940 0.8951
C152 C 0.6159(8) 0.0154(10) 0.8600(5)
C153 C 0.8900(6) 0.3553(8) 0.8691(2)
C154 C 0.8620(6) 0.3263(8) 0.8358(3)
H121 H 0.8158 0.2945 0.8341
C155 C 0.9029(9) 0.3446(12) 0.8052(2)
H122 H 0.8842 0.3252 0.7829
C156 C 0.9719(9) 0.3920(13) 0.8078(4)
C157_2 C 1.0000(6) 0.4211(12) 0.8411(6)
C158 C 0.9590(7) 0.4027(11) 0.8717(4)
H124 H 0.9778 0.4222 0.8940
Co8 Co 0.83399(13) 0.41436(9) 0.96876(3)
Al8 Al 0.71039(19) 0.41665(11) 0.92193(6)
O48 O 0.7406(4) 0.3687(3) 0.95108(13)
O49 O 0.7886(4) 0.4581(3) 0.89294(16)
O51 O 0.7460(4) 0.4968(3) 0.95028(13)
O52 O 0.7582(5) 0.4202(4) 0.83661(16)
O53 O 0.6734(4) 0.4574(3) 0.89258(16)
O55 O 0.8459(6) 0.5075(4) 0.97104(18)
O56 O 0.6125(6) 0.4875(4) 0.9259(2)
C166 C 0.8074(9) 0.5278(5) 0.9676(3)
C167 C 0.8004(8) 0.4569(6) 0.8607(3)
C168 C 0.6399(9) 0.4874(7) 0.8975(3)
C172 C 0.7955(11) 0.6865(9) 0.9870(5)
H131 H 0.7667 0.7035 0.9818
C173 C 0.7784(11) 0.6213(8) 0.9759(4)
H132 H 0.7382 0.5947 0.9632
C174 C 0.8215(9) 0.5959(6) 0.9836(4)
C176 C 0.9602(13) 0.5473(9) 0.8013(3)
H133 H 0.9738 0.5454 0.7778
C177 C 0.8951(11) 0.4998(7) 0.8129(3)
H134 H 0.8652 0.4661 0.7972
C178 C 0.8749(9) 0.5027(6) 0.8481(3)
C179 C 0.9196(10) 0.5530(7) 0.8716(3)
H135 H 0.9060 0.5549 0.8951
C180 C 0.9846(10) 0.6005(6) 0.8600(5)
C181 C 0.6447(8) 0.5347(6) 0.8691(2)
C182 C 0.6737(8) 0.5357(6) 0.8358(3)
H137 H 0.7055 0.5213 0.8341
C183 C 0.6554(12) 0.5583(8) 0.8052(2)
H138 H 0.6748 0.5590 0.7829
C184 C 0.6080(13) 0.5799(10) 0.8078(4)
C185 C 0.5789(12) 0.5789(10) 0.8411(6)
H139 H 0.5471 0.5933 0.8428
C186 C 0.5973(11) 0.5563(8) 0.8717(4)
H140 H 0.5778 0.5556 0.8940
N32 N 0.5986(18) 0.6281(14) 0.7800(6)
Co9 Co 0.41963(9) 0.58564(9) 0.46876(3)
N33 N 0.5340(5) 0.4722(5) 0.9888(2)
N34 N 0.5278(5) 0.0618(7) 0.9888(2)
N35 N 0.9382(7) 0.4660(5) 0.9888(2)
H145 H 0.901066 0.650221 0.353326
H146 H 0.849667 0.682428 0.369272
H147 H 0.562245 0.64091 0.715584
H148 H 0.628956 0.646053 0.74216
H155 H 0.347846 0.467346 0.830058
H156 H 0.408073 0.496735 0.794872
H169 H 0.562245 0.64091 0.784416
H170 H 0.628956 0.646053 0.75784
H173 H 0.191693 0.0215896 0.478478
H174 H 0.187111 0.0844772 0.452842
H175 H 0.347846 0.467346 0.669942
H176 H 0.408073 0.496735 0.705128
H177 H 0.349779 0.250845 0.353326
H178 H 0.317572 0.16724 0.369272
H181 H 0.97841 0.170103 0.478478
H182 H 0.915523 0.102634 0.452842
H187 H 0.749155 0.0989338 0.353326
H188 H 0.83276 0.150333 0.369272
H191 H 0.829897 0.808307 0.478478
H192 H 0.897366 0.812889 0.452842
C25_2 C 0.4211(10) 1.0000(6) 0.6589(6)
H19 H 0.4067 0.9538 0.6572
N6 N 0.3719(14) 0.9705(12) 0.7200(6)
C52 C 0.5927(9) 0.9950(12) 0.6751(5)
H50 H 0.6196 0.9854 0.6242
N11 N 0.5362(13) 0.9201(18) 0.6845(7)
N14 N 0.4660(5) 0.9382(7) 0.4888(2)
C72 C 0.4171(6) 0.9645(8) 0.4896(3)
H63 H 0.3755 0.9322 0.5019
H64 H 0.4055 0.9705 0.4651
C73 C 0.4950(6) 0.9436(8) 0.5244(3)
H65 H 0.5241 0.9236 0.5241
H66 H 0.4588 0.9187 0.5418
C74 C 0.5191(5) 0.9835(7) 0.4645(3)
H67 H 0.5002 0.9786 0.4404
H68 H 0.5538 0.9705 0.4634
C129_2 C 0.4211(10) 1.0000(6) 0.8411(6)
H107 H 0.4067 0.9538 0.8428
N24 N 0.3719(14) 0.9705(12) 0.7800(6)
C147 C 0.5927(9) 0.9950(12) 0.8249(5)
H120 H 0.6196 0.9854 0.8758
N26 N 0.5362(13) 0.9201(18) 0.8155(7)
Co11 Co 0.41436(9) 0.83399(13) 0.46876(3)
H153 H 0.35909 0.921335 0.784416
H154 H 0.353947 0.982902 0.75784
H161 H 0.532654 0.8805 0.830058
H162 H 0.503265 0.911337 0.794872
H179 H 0.35909 0.921335 0.715584
H180 H 0.353947 0.982902 0.74216
H183 H 0.532654 0.8805 0.669942
H184 H 0.503265 0.911337 0.705128
N20_2 N 0.0618(7) 0.5278(5) 0.0112(2)
C106_2 C 0.0355(8) 0.4526(6) 0.0104(3)
H92_2 H 0.0295 0.4350 0.0349
C108_2 C 0.0165(7) 0.5356(5) 0.0355(3)
H95_2 H 0.0214 0.5216 0.0596
H96_2 H 0.0295 0.5833 0.0366
Co10_2 Co 0.16601(13) 0.58037(9) 0.03124(3)
H91_2 H 0.0678 0.4433 0.9981
C107_2 C 0.0564(8) 0.5514(6) 0.9756(3)
H93_2 H 0.0764 0.6005 0.9759
H94_2 H 0.0813 0.5401 0.9582
H3_2 H 0.6245 0.5567 0.0019
C19_2 C 0.5050(6) 0.4486(6) 0.0244(3)
H13_2 H 0.4759 0.3995 0.0241
H14_2 H 0.5412 0.4599 0.0418
N7_2 N 0.4722(5) 0.5340(5) 0.0112(2)
C33_2 C 0.5474(6) 0.5829(6) 0.0104(3)
H26_2 H 0.5650 0.5945 0.0349
C35_2 C 0.4644(5) 0.4809(5) 0.0355(3)
H29_2 H 0.4784 0.4998 0.0596
H30_2 H 0.4167 0.4462 0.0366
H41_2 H 0.4433 0.0678 0.0019
C58_2 C 0.5514(6) 0.0564(8) 0.0244(3)
H51_2 H 0.6005 0.0764 0.0241
H52_2 H 0.5401 0.0813 0.0418
H69_2 H 0.9322 0.3755 0.0019
C92_2 C 0.9436(8) 0.4950(6) 0.0244(3)
H79_2 H 0.9236 0.5241 0.0241
H80_2 H 0.9187 0.4588 0.0418
Co9_2 Co 0.41963(9) 0.58564(9) 0.03124(3)
C6_2 C 0.5829(6) 0.5474(6) 0.9896(3)
H4_2 H 0.5945 0.5650 0.9651
C20_2 C 0.4809(5) 0.4644(5) 0.9645(3)
H15_2 H 0.4998 0.4784 0.9404
H16_2 H 0.4462 0.4167 0.9634
H25_2 H 0.5567 0.6245 0.9981
C34_2 C 0.4486(6) 0.5050(6) 0.9756(3)
H27_2 H 0.3995 0.4759 0.9759
H28_2 H 0.4599 0.5412 0.9582
C45_2 C 0.4526(6) 0.0355(8) 0.9896(3)
H42_2 H 0.4350 0.0295 0.9651
C59_2 C 0.5356(5) 0.0165(7) 0.9645(3)
H53_2 H 0.5216 0.0214 0.9404
H54_2 H 0.5833 0.0295 0.9634
C79_2 C 0.9645(8) 0.4171(6) 0.9896(3)
H70_2 H 0.9705 0.4055 0.9651
C93_2 C 0.9835(7) 0.5191(5) 0.9645(3)
H81_2 H 0.9786 0.5002 0.9404
H82_2 H 0.9705 0.5538 0.9634
N14_2 N 0.4660(5) 0.9382(7) 0.0112(2)
C72_2 C 0.4171(6) 0.9645(8) 0.0104(3)
H64_2 H 0.4055 0.9705 0.0349
C74_2 C 0.5191(5) 0.9835(7) 0.0355(3)
H67_2 H 0.5002 0.9786 0.0596
H68_2 H 0.5538 0.9705 0.0366
Co11_2 Co 0.41436(9) 0.83399(13) 0.03124(3)
H63_2 H 0.3755 0.9322 0.9981
C73_2 C 0.4950(6) 0.9436(8) 0.9756(3)
H65_2 H 0.5241 0.9236 0.9759
H66_2 H 0.4588 0.9187 0.9582
C64_3 C 0.4211(12) -0.0000(6) 0.3411(6)
H57_2 H 0.4529 0.0462 0.3428
N13_2 N 0.4014(18) 0.0295(12) 0.2800(6)
C86_2 C 0.5977(8) 0.0050(12) 0.3249(5)
H78_2 H 0.6342 0.0146 0.3758
N17_2 N 0.6161(13) 0.0799(18) 0.3155(7)
C157_3 C 0.4211(12) -0.0000(6) 0.1589(6)
H123_2 H 0.4529 0.0462 0.1572
N28_2 N 0.4014(18) 0.0295(12) 0.2200(6)
C175_2 C 0.5977(8) 0.0050(12) 0.1751(5)
H136_2 H 0.6342 0.0146 0.1242
N30_2 N 0.6161(13) 0.0799(18) 0.1845(7)
H159_2 H 0.437755 0.0786654 0.215584
H160_2 H 0.371044 0.0170976 0.24216
H165_2 H 0.652154 0.1195 0.169942
H166_2 H 0.591927 0.0886625 0.205128
H185_2 H 0.437755 0.0786654 0.284416
H186_2 H 0.371044 0.0170976 0.25784
H189_2 H 0.652154 0.1195 0.330058
H190_2 H 0.591927 0.0886625 0.294872
Co1_2 Co 0.3333 0.6667 0.34366(5)
Al1_2 Al 0.3333 0.6667 0.48437(9)
Al2_2 Al 0.29374(16) 0.58335(11) 0.42193(6)
O1_2 O 0.3719(3) 0.6313(3) 0.45108(13)
O2_2 O 0.3305(3) 0.5419(3) 0.39294(16)
O3_2 O 0.3333 0.6667 0.3956(2)
O4_2 O 0.2972(3) 0.5899(2) 0.51527(13)
O5_2 O 0.2492(3) 0.5032(3) 0.45028(13)
O6_2 O 0.3380(3) 0.5798(4) 0.33661(16)
O7_2 O 0.2160(3) 0.5426(3) 0.39258(16)
O8_2 O 0.1847(4) 0.5460(3) 0.51665(19)
O9_2 O 0.3384(4) 0.4925(4) 0.47104(18)
O10_2 O 0.1250(4) 0.5125(4) 0.4259(2)
N2_2 N 0.3333 0.6667 0.2840(3)
C1_2 C 0.2363(7) 0.5478(7) 0.5273(3)
C2_2 C 0.2796(8) 0.4722(5) 0.4676(3)
C3_2 C 0.3435(6) 0.5431(6) 0.3607(3)
C4_2 C 0.3988(5) 0.6745(5) 0.2682(2)
H1_2 H 0.4370 0.7168 0.2768
H2_2 H 0.4049 0.6375 0.2768
C5_2 C 0.1525(6) 0.5126(7) 0.3975(3)
C7_2 C 0.2460(7) 0.3644(8) 0.5025(5)
H5_2 H 0.2918 0.3814 0.5077
C8_2 C 0.1979(10) 0.2992(8) 0.5137(5)
H6_2 H 0.2116 0.2726 0.5263
C9_2 C 0.1294(9) 0.2738(6) 0.5059(6)
C10_2 C 0.1090(6) 0.3135(9) 0.4870(5)
H7_2 H 0.0632 0.2965 0.4818
C11_2 C 0.1571(8) 0.3787(8) 0.4759(4)
H8_2 H 0.1435 0.4053 0.4632
C12_2 C 0.2256(7) 0.4041(6) 0.4836(4)
N3_2 N 0.0714(13) 0.2097(14) 0.5275(6)
C13_2 C 0.4073(9) 0.4023(8) 0.3249(5)
C14_2 C 0.4129(9) 0.4527(9) 0.3013(3)
H9_2 H 0.4284 0.4546 0.2778
C15_2 C 0.3953(8) 0.5002(7) 0.3129(3)
H10_2 H 0.3991 0.5339 0.2972
C16_2 C 0.3722(7) 0.4973(6) 0.3481(3)
C17_2 C 0.3666(7) 0.4470(7) 0.3716(3)
H11_2 H 0.3511 0.4451 0.3951
C18_2 C 0.3841(8) 0.3995(6) 0.3600(5)
H12_2 H 0.3804 0.3658 0.3758
N4_2 N 0.4638(13) 0.3839(13) 0.3155(7)
C21_2 C 0.1100(6) 0.4653(6) 0.3691(2)
C22_2 C 0.1380(6) 0.4643(6) 0.3358(3)
H17_2 H 0.1842 0.4787 0.3341
C23_2 C 0.0971(9) 0.4417(8) 0.3052(2)
H18_2 H 0.1158 0.4410 0.2829
C24_2 C 0.0281(9) 0.4201(10) 0.3078(4)
C25_3 C 0.0000(6) 0.4211(10) 0.3411(6)
C26_2 C 0.0410(7) 0.4437(8) 0.3717(4)
H20_2 H 0.0222 0.4444 0.3940
C27_2 C 0.1730(5) 0.4565(7) 0.5741(4)
H21_2 H 0.1319 0.4484 0.5642
C28_2 C 0.1736(7) 0.4232(8) 0.6055(4)
H22_2 H 0.1328 0.3928 0.6167
C29_2 C 0.2351(10) 0.4353(9) 0.6202(3)
C30_2 C 0.2960(7) 0.4807(9) 0.6034(4)
H23_2 H 0.3372 0.4888 0.6132
C31_2 C 0.2955(5) 0.5140(6) 0.5719(3)
H24_2 H 0.3363 0.5444 0.5607
C32_2 C 0.2340(6) 0.5019(6) 0.5573(3)
N5_2 N 0.2151(13) 0.3573(14) 0.6344(6)
C36_2 C 0.2757(7) 0.6012(5) 0.2682(2)
H31_2 H 0.2798 0.5630 0.2768
H32_2 H 0.2326 0.5951 0.2768
C37_2 C 0.3255(5) 0.7243(7) 0.2682(2)
H33_2 H 0.2832 0.7202 0.2768
H34_2 H 0.3625 0.7674 0.2768
N8_2 N 0.3333 0.6667 0.2160(3)
C38_2 C 0.3988(5) 0.6745(5) 0.2318(2)
H35_2 H 0.4370 0.7168 0.2232
H36_2 H 0.4049 0.6375 0.2232
C39_2 C 0.2757(7) 0.6012(5) 0.2318(2)
H37_2 H 0.2798 0.5630 0.2232
H38_2 H 0.2326 0.5951 0.2232
C40_2 C 0.3255(5) 0.7243(7) 0.2318(2)
H39_2 H 0.2832 0.7202 0.2232
H40_2 H 0.3625 0.7674 0.2232
Al3_2 Al 0.28961(19) 0.70626(16) 0.42193(6)
O11_2 O 0.2594(4) 0.6281(3) 0.45108(13)
O12_2 O 0.2114(4) 0.6695(3) 0.39294(16)
O13_2 O 0.2927(4) 0.7028(3) 0.51527(13)
O14_2 O 0.2540(4) 0.7508(3) 0.45028(13)
O15_2 O 0.2418(5) 0.6620(3) 0.33661(16)
O16_2 O 0.3266(4) 0.7840(3) 0.39258(16)
O17_2 O 0.3613(5) 0.8153(4) 0.51665(19)
O18_2 O 0.1541(6) 0.6616(4) 0.47104(18)
O19_2 O 0.3875(6) 0.8750(4) 0.4259(2)
C41_2 C 0.3115(10) 0.7637(7) 0.5273(3)
C42_2 C 0.1926(9) 0.7204(8) 0.4676(3)
C43_2 C 0.1996(8) 0.6565(6) 0.3607(3)
C44_2 C 0.3601(9) 0.8475(6) 0.3975(3)
C46_2 C 0.1184(11) 0.7540(7) 0.5025(5)
H43_2 H 0.0896 0.7082 0.5077
C47_2 C 0.1013(13) 0.8021(10) 0.5137(5)
H44_2 H 0.0610 0.7884 0.5263
C48_2 C 0.1444(11) 0.8706(9) 0.5059(6)
C49_2 C 0.2045(11) 0.8910(6) 0.4870(5)
H45_2 H 0.2333 0.9368 0.4818
C50_2 C 0.2216(11) 0.8429(8) 0.4759(4)
H46_2 H 0.2618 0.8565 0.4632
C51_2 C 0.1785(9) 0.7744(7) 0.4836(4)
N10_2 N 0.1383(19) 0.9286(13) 0.5275(6)
C53_2 C 0.0398(13) 0.5871(9) 0.3013(3)
H47_2 H 0.0262 0.5716 0.2778
C54_2 C 0.1049(11) 0.6047(8) 0.3129(3)
H48_2 H 0.1348 0.6009 0.2972
C55_2 C 0.1251(9) 0.6278(7) 0.3481(3)
C56_2 C 0.0804(10) 0.6334(7) 0.3716(3)
H49_2 H 0.0940 0.6489 0.3951
C57_2 C 0.0154(10) 0.6159(8) 0.3600(5)
C60_2 C 0.3553(8) 0.8900(6) 0.3691(2)
C61_2 C 0.3263(8) 0.8620(6) 0.3358(3)
H55_2 H 0.2945 0.8158 0.3341
C62_2 C 0.3446(12) 0.9029(9) 0.3052(2)
H56_2 H 0.3252 0.8842 0.2829
C63_2 C 0.3920(13) 0.9719(9) 0.3078(4)
C64_4 C 0.4211(12) 1.0000(6) 0.3411(6)
C65_2 C 0.4027(11) 0.9590(7) 0.3717(4)
H58_2 H 0.4222 0.9778 0.3940
C66_2 C 0.2835(9) 0.8270(5) 0.5741(4)
H59_2 H 0.3165 0.8681 0.5642
C67_2 C 0.2496(11) 0.8264(7) 0.6055(4)
H60_2 H 0.2600 0.8672 0.6167
C68_2 C 0.2002(13) 0.7649(10) 0.6202(3)
C69_2 C 0.1847(11) 0.7040(7) 0.6034(4)
H61_2 H 0.1516 0.6628 0.6132
C70_2 C 0.2185(8) 0.7045(5) 0.5719(3)
H62_2 H 0.2081 0.6637 0.5607
C71_2 C 0.2679(8) 0.7660(6) 0.5573(3)
N12_2 N 0.1422(19) 0.7849(13) 0.6344(6)
Al4_2 Al 0.41665(11) 0.71039(19) 0.42193(6)
O20_2 O 0.3687(3) 0.7406(4) 0.45108(13)
O21_2 O 0.4581(3) 0.7886(4) 0.39294(16)
O22_2 O 0.4101(2) 0.7073(4) 0.51527(13)
O23_2 O 0.4968(3) 0.7460(4) 0.45028(13)
O24_2 O 0.4202(4) 0.7582(5) 0.33661(16)
O25_2 O 0.4574(3) 0.6734(4) 0.39258(16)
O26_2 O 0.4540(3) 0.6387(5) 0.51665(19)
O27_2 O 0.5075(4) 0.8459(6) 0.47104(18)
O28_2 O 0.4875(4) 0.6125(6) 0.4259(2)
C75_2 C 0.4522(7) 0.6885(10) 0.5273(3)
C76_2 C 0.5278(5) 0.8074(9) 0.4676(3)
C77_2 C 0.4569(6) 0.8004(8) 0.3607(3)
C78_2 C 0.4874(7) 0.6399(9) 0.3975(3)
C80_2 C 0.6356(8) 0.8816(11) 0.5025(5)
H71_2 H 0.6186 0.9104 0.5077
C81_2 C 0.7008(8) 0.8987(13) 0.5137(5)
H72_2 H 0.7274 0.9390 0.5263
C82_2 C 0.7262(6) 0.8556(11) 0.5059(6)
C83_2 C 0.6865(9) 0.7955(11) 0.4870(5)
H73_2 H 0.7035 0.7667 0.4818
C84_2 C 0.6213(8) 0.7784(11) 0.4759(4)
H74_2 H 0.5947 0.7382 0.4632
C85_2 C 0.5959(6) 0.8215(9) 0.4836(4)
N16_2 N 0.7903(14) 0.8617(19) 0.5275(6)
C87_2 C 0.5473(9) 0.9602(13) 0.3013(3)
H75_2 H 0.5454 0.9738 0.2778
C88_2 C 0.4998(7) 0.8951(11) 0.3129(3)
H76_2 H 0.4661 0.8652 0.2972
C89_2 C 0.5027(6) 0.8749(9) 0.3481(3)
C90_2 C 0.5530(7) 0.9196(10) 0.3716(3)
H77_2 H 0.5549 0.9060 0.3951
C91_2 C 0.6005(6) 0.9846(10) 0.3600(5)
C94_2 C 0.5347(6) 0.6447(8) 0.3691(2)
C95_2 C 0.5357(6) 0.6737(8) 0.3358(3)
H83_2 H 0.5213 0.7055 0.3341
C96_2 C 0.5583(8) 0.6554(12) 0.3052(2)
H84_2 H 0.5590 0.6748 0.2829
C97_2 C 0.5799(10) 0.6080(13) 0.3078(4)
C98_2 C 0.5789(10) 0.5789(12) 0.3411(6)
H85_2 H 0.5933 0.5471 0.3428
C99_2 C 0.5563(8) 0.5973(11) 0.3717(4)
H86_2 H 0.5556 0.5778 0.3940
C100_2 C 0.5435(7) 0.7165(9) 0.5741(4)
H87_2 H 0.5516 0.6835 0.5642
C101_2 C 0.5768(8) 0.7504(11) 0.6055(4)
H88_2 H 0.6072 0.7400 0.6167
C102_2 C 0.5647(9) 0.7998(13) 0.6202(3)
C103_2 C 0.5193(9) 0.8153(11) 0.6034(4)
H89_2 H 0.5112 0.8484 0.6132
C104_2 C 0.4860(6) 0.7815(8) 0.5719(3)
H90_2 H 0.4556 0.7919 0.5607
C105_2 C 0.4981(6) 0.7321(8) 0.5573(3)
N18_2 N 0.6427(14) 0.8578(19) 0.6344(6)
N19_2 N 0.6281(14) 0.5986(18) 0.2800(6)
Co5_2 Co 0.3333 0.6667 0.15634(5)
Al5_2 Al 0.3333 0.6667 0.01563(9)
Al6_2 Al 0.29374(16) 0.58335(11) 0.07807(6)
O29_2 O 0.3719(3) 0.6313(3) 0.04892(13)
O30_2 O 0.3305(3) 0.5419(3) 0.10706(16)
O31_2 O 0.3333 0.6667 0.1044(2)
O33_2 O 0.2492(3) 0.5032(3) 0.04972(13)
O34_2 O 0.3380(3) 0.5798(4) 0.16339(16)
O35_2 O 0.2160(3) 0.5426(3) 0.10742(16)
O37_2 O 0.3384(4) 0.4925(4) 0.02896(18)
O38_2 O 0.1250(4) 0.5125(4) 0.0741(2)
C110_2 C 0.2796(8) 0.4722(5) 0.0324(3)
C111_2 C 0.3435(6) 0.5431(6) 0.1393(3)
C112_2 C 0.1525(6) 0.5126(7) 0.1025(3)
C116_2 C 0.1090(6) 0.3135(9) 0.0130(5)
H99_2 H 0.0632 0.2965 0.0182
C117_2 C 0.1571(8) 0.3787(8) 0.0241(4)
H100_2 H 0.1435 0.4053 0.0368
C118_2 C 0.2256(7) 0.4041(6) 0.0164(4)
C119_2 C 0.4073(9) 0.4023(8) 0.1751(5)
C120_2 C 0.4129(9) 0.4527(9) 0.1987(3)
H101_2 H 0.4284 0.4546 0.2222
C121_2 C 0.3953(8) 0.5002(7) 0.1871(3)
H102_2 H 0.3991 0.5339 0.2028
C122_2 C 0.3722(7) 0.4973(6) 0.1519(3)
C123_2 C 0.3666(7) 0.4470(7) 0.1284(3)
H103_2 H 0.3511 0.4451 0.1049
C124_2 C 0.3841(8) 0.3995(6) 0.1400(5)
H104_2 H 0.3804 0.3658 0.1242
N22_2 N 0.4638(13) 0.3839(13) 0.1845(7)
C125_2 C 0.1100(6) 0.4653(6) 0.1309(2)
C126_2 C 0.1380(6) 0.4643(6) 0.1642(3)
H105_2 H 0.1842 0.4787 0.1659
C127_2 C 0.0971(9) 0.4417(8) 0.1948(2)
H106_2 H 0.1158 0.4410 0.2171
C128_2 C 0.0281(9) 0.4201(10) 0.1922(4)
C129_3 C -0.0000(6) 0.4211(10) 0.1589(6)
C130_2 C 0.0410(7) 0.4437(8) 0.1283(4)
H108_2 H 0.0222 0.4444 0.1060
Al7_2 Al 0.28961(19) 0.70626(16) 0.07807(6)
O39_2 O 0.2594(4) 0.6281(3) 0.04892(13)
O40_2 O 0.2114(4) 0.6695(3) 0.10706(16)
O42_2 O 0.2540(4) 0.7508(3) 0.04972(13)
O43_2 O 0.2418(5) 0.6620(3) 0.16339(16)
O44_2 O 0.3266(4) 0.7840(3) 0.10742(16)
O46_2 O 0.1541(6) 0.6616(4) 0.02896(18)
O47_2 O 0.3875(6) 0.8750(4) 0.0741(2)
C138_2 C 0.1926(9) 0.7204(8) 0.0324(3)
C139_2 C 0.1996(8) 0.6565(6) 0.1393(3)
C140_2 C 0.3601(9) 0.8475(6) 0.1025(3)
C144_2 C 0.2045(11) 0.8910(6) 0.0130(5)
H115_2 H 0.2333 0.9368 0.0182
C145_2 C 0.2216(11) 0.8429(8) 0.0241(4)
H116_2 H 0.2618 0.8565 0.0368
C146_2 C 0.1785(9) 0.7744(7) 0.0164(4)
C148_2 C 0.0398(13) 0.5871(9) 0.1987(3)
H117_2 H 0.0262 0.5716 0.2222
C149_2 C 0.1049(11) 0.6047(8) 0.1871(3)
H118_2 H 0.1348 0.6009 0.2028
C150_2 C 0.1251(9) 0.6278(7) 0.1519(3)
C151_2 C 0.0804(10) 0.6334(7) 0.1284(3)
H119_2 H 0.0940 0.6489 0.1049
C152_2 C 0.0154(10) 0.6159(8) 0.1400(5)
C153_2 C 0.3553(8) 0.8900(6) 0.1309(2)
C154_2 C 0.3263(8) 0.8620(6) 0.1642(3)
H121_2 H 0.2945 0.8158 0.1659
C155_2 C 0.3446(12) 0.9029(9) 0.1948(2)
H122_2 H 0.3252 0.8842 0.2171
C156_2 C 0.3920(13) 0.9719(9) 0.1922(4)
C157_4 C 0.4211(12) 1.0000(6) 0.1589(6)
C158_2 C 0.4027(11) 0.9590(7) 0.1283(4)
H124_2 H 0.4222 0.9778 0.1060
Al8_2 Al 0.41665(11) 0.71039(19) 0.07807(6)
O48_2 O 0.3687(3) 0.7406(4) 0.04892(13)
O49_2 O 0.4581(3) 0.7886(4) 0.10706(16)
O51_2 O 0.4968(3) 0.7460(4) 0.04972(13)
O52_2 O 0.4202(4) 0.7582(5) 0.16339(16)
O53_2 O 0.4574(3) 0.6734(4) 0.10742(16)
O55_2 O 0.5075(4) 0.8459(6) 0.02896(18)
O56_2 O 0.4875(4) 0.6125(6) 0.0741(2)
C166_2 C 0.5278(5) 0.8074(9) 0.0324(3)
C167_2 C 0.4569(6) 0.8004(8) 0.1393(3)
C168_2 C 0.4874(7) 0.6399(9) 0.1025(3)
C172_2 C 0.6865(9) 0.7955(11) 0.0130(5)
H131_2 H 0.7035 0.7667 0.0182
C173_2 C 0.6213(8) 0.7784(11) 0.0241(4)
H132_2 H 0.5947 0.7382 0.0368
C174_2 C 0.5959(6) 0.8215(9) 0.0164(4)
C176_2 C 0.5473(9) 0.9602(13) 0.1987(3)
H133_2 H 0.5454 0.9738 0.2222
C177_2 C 0.4998(7) 0.8951(11) 0.1871(3)
H134_2 H 0.4661 0.8652 0.2028
C178_2 C 0.5027(6) 0.8749(9) 0.1519(3)
C179_2 C 0.5530(7) 0.9196(10) 0.1284(3)
H135_2 H 0.5549 0.9060 0.1049
C180_2 C 0.6005(6) 0.9846(10) 0.1400(5)
C181_2 C 0.5347(6) 0.6447(8) 0.1309(2)
C182_2 C 0.5357(6) 0.6737(8) 0.1642(3)
H137_2 H 0.5213 0.7055 0.1659
C183_2 C 0.5583(8) 0.6554(12) 0.1948(2)
H138_2 H 0.5590 0.6748 0.2171
C184_2 C 0.5799(10) 0.6080(13) 0.1922(4)
C185_2 C 0.5789(10) 0.5789(12) 0.1589(6)
H139_2 H 0.5933 0.5471 0.1572
C186_2 C 0.5563(8) 0.5973(11) 0.1283(4)
H140_2 H 0.5556 0.5778 0.1060
N32_2 N 0.6281(14) 0.5986(18) 0.2200(6)
H145_2 H 0.650221 0.901066 0.646674
H146_2 H 0.682428 0.849667 0.630728
H147_2 H 0.64091 0.562245 0.284416
H148_2 H 0.646053 0.628956 0.25784
H155_2 H 0.467346 0.347846 0.169942
H156_2 H 0.496735 0.408073 0.205128
H169_2 H 0.64091 0.562245 0.215584
H170_2 H 0.646053 0.628956 0.24216
H173_2 H 0.0215896 0.191693 0.521522
H174_2 H 0.0844772 0.187111 0.547158
H175_2 H 0.467346 0.347846 0.330058
H176_2 H 0.496735 0.408073 0.294872
H177_2 H 0.250845 0.349779 0.646674
H178_2 H 0.16724 0.317572 0.630728
H181_2 H 0.170103 0.97841 0.521522
H182_2 H 0.102634 0.915523 0.547158
H187_2 H 0.0989338 0.749155 0.646674
H188_2 H 0.150333 0.83276 0.630728
H191_2 H 0.808307 0.829897 0.521522
H192_2 H 0.812889 0.897366 0.547158
O32_2 O 0.2972(3) 0.5899(2) 0.98473(13)
O36_2 O 0.1847(4) 0.5460(3) 0.98335(19)
C109_2 C 0.2363(7) 0.5478(7) 0.9727(3)
C113_2 C 0.2460(7) 0.3644(8) 0.9975(5)
H97_2 H 0.2918 0.3814 0.9923
C114_2 C 0.1979(10) 0.2992(8) 0.9863(5)
H98_2 H 0.2116 0.2726 0.9737
C115_2 C 0.1294(9) 0.2738(6) 0.9941(6)
N21_2 N 0.0714(13) 0.2097(14) 0.9725(6)
C131_2 C 0.1730(5) 0.4565(7) 0.9259(4)
H109_2 H 0.1319 0.4484 0.9358
C132_2 C 0.1736(7) 0.4232(8) 0.8945(4)
H110_2 H 0.1328 0.3928 0.8833
C133_2 C 0.2351(10) 0.4353(9) 0.8798(3)
C134_2 C 0.2960(7) 0.4807(9) 0.8966(4)
H111_2 H 0.3372 0.4888 0.8868
C135_2 C 0.2955(5) 0.5140(6) 0.9281(3)
H112_2 H 0.3363 0.5444 0.9393
C136_2 C 0.2340(6) 0.5019(6) 0.9427(3)
N23_2 N 0.2151(13) 0.3573(14) 0.8656(6)
O41_2 O 0.2927(4) 0.7028(3) 0.98473(13)
O45_2 O 0.3613(5) 0.8153(4) 0.98335(19)
C137_2 C 0.3115(10) 0.7637(7) 0.9727(3)
C141_2 C 0.1184(11) 0.7540(7) 0.9975(5)
H113_2 H 0.0896 0.7082 0.9923
C142_2 C 0.1013(13) 0.8021(10) 0.9863(5)
H114_2 H 0.0610 0.7884 0.9737
C143_2 C 0.1444(11) 0.8706(9) 0.9941(6)
N25_2 N 0.1383(19) 0.9286(13) 0.9725(6)
C159_2 C 0.2835(9) 0.8270(5) 0.9259(4)
H125_2 H 0.3165 0.8681 0.9358
C160_2 C 0.2496(11) 0.8264(7) 0.8945(4)
H126_2 H 0.2600 0.8672 0.8833
C161_2 C 0.2002(13) 0.7649(10) 0.8798(3)
C162_2 C 0.1847(11) 0.7040(7) 0.8966(4)
H127_2 H 0.1516 0.6628 0.8868
C163_2 C 0.2185(8) 0.7045(5) 0.9281(3)
H128_2 H 0.2081 0.6637 0.9393
C164_2 C 0.2679(8) 0.7660(6) 0.9427(3)
N27_2 N 0.1422(19) 0.7849(13) 0.8656(6)
O50_2 O 0.4101(2) 0.7073(4) 0.98473(13)
O54_2 O 0.4540(3) 0.6387(5) 0.98335(19)
C165_2 C 0.4522(7) 0.6885(10) 0.9727(3)
C169_2 C 0.6356(8) 0.8816(11) 0.9975(5)
H129_2 H 0.6186 0.9104 0.9923
C170_2 C 0.7008(8) 0.8987(13) 0.9863(5)
H130_2 H 0.7274 0.9390 0.9737
C171_2 C 0.7262(6) 0.8556(11) 0.9941(6)
N29_2 N 0.7903(14) 0.8617(19) 0.9725(6)
C187_2 C 0.5435(7) 0.7165(9) 0.9259(4)
H141_2 H 0.5516 0.6835 0.9358
C188_2 C 0.5768(8) 0.7504(11) 0.8945(4)
H142_2 H 0.6072 0.7400 0.8833
C189_2 C 0.5647(9) 0.7998(13) 0.8798(3)
C190_2 C 0.5193(9) 0.8153(11) 0.8966(4)
H143_2 H 0.5112 0.8484 0.8868
C191_2 C 0.4860(6) 0.7815(8) 0.9281(3)
H144_2 H 0.4556 0.7919 0.9393
C192_2 C 0.4981(6) 0.7321(8) 0.9427(3)
N31_2 N 0.6427(14) 0.8578(19) 0.8656(6)
H149_2 H 0.0215896 0.191693 0.978478
H150_2 H 0.0844772 0.187111 0.952842
H151_2 H 0.250845 0.349779 0.853326
H152_2 H 0.16724 0.317572 0.869272
H157_2 H 0.170103 0.97841 0.978478
H158_2 H 0.102634 0.915523 0.952842
H163_2 H 0.0989338 0.749155 0.853326
H164_2 H 0.150333 0.83276 0.869272
H167_2 H 0.808307 0.829897 0.978478
H168_2 H 0.812889 0.897366 0.952842
H171_2 H 0.650221 0.901066 0.853326
H172_2 H 0.682428 0.849667 0.869272
C25_4 C 1.0000(6) 0.4211(10) 0.3411(6)
H19_2 H 0.9538 0.4067 0.3428
N6_2 N 0.9705(12) 0.3719(14) 0.2800(6)
C52_2 C 0.9950(12) 0.5927(9) 0.3249(5)
H50_2 H 0.9854 0.6196 0.3758
N11_2 N 0.9201(18) 0.5362(13) 0.3155(7)
C129_4 C 1.0000(6) 0.4211(10) 0.1589(6)
H107_2 H 0.9538 0.4067 0.1572
N24_2 N 0.9705(12) 0.3719(14) 0.2200(6)
C147_2 C 0.9950(12) 0.5927(9) 0.1751(5)
H120_2 H 0.9854 0.6196 0.1242
N26_2 N 0.9201(18) 0.5362(13) 0.1845(7)
H153_2 H 0.921335 0.35909 0.215584
H154_2 H 0.982902 0.353947 0.24216
H161_2 H 0.8805 0.532654 0.169942
H162_2 H 0.911337 0.503265 0.205128
H179_2 H 0.921335 0.35909 0.284416
H180_2 H 0.982902 0.353947 0.25784
H183_2 H 0.8805 0.532654 0.330058
H184_2 H 0.911337 0.503265 0.294872
loop_
_geom_bond_atom_site_label_1
_geom_bond_atom_site_label_2
_geom_bond_site_symmetry_1
_geom_bond_site_symmetry_2
H57 C64 1_555 1_555
N17 C86 1_555 1_555
N20 C106 1_555 1_555
H91 C106 1_555 1_555
H92 C106 1_555 1_555
H93 C107 1_555 1_555
H94 C107 1_555 1_555
H95 C108 1_555 1_555
H96 C108 1_555 1_555
H123 C157 1_555 1_555
N30 C175 1_555 1_555
Co10 N20 1_555 1_555
N20 C107 1_555 1_555
N20 C108 1_555 1_555
N28 H159 1_555 1_555
N28 H160 1_555 1_555
N30 H165 1_555 1_555
N30 H166 1_555 1_555
N13 H185 1_555 1_555
N13 H186 1_555 1_555
N17 H189 1_555 1_555
N17 H190 1_555 1_555
O36 C109 1_555 1_555
C109 O32 1_555 1_555
C113 H97 1_555 1_555
C114 C113 1_555 1_555
H98 C114 1_555 1_555
C115 C114 1_555 1_555
N21 C115 1_555 1_555
C131 H109 1_555 1_555
C132 C131 1_555 1_555
H110 C132 1_555 1_555
C133 C132 1_555 1_555
C134 C133 1_555 1_555
H111 C134 1_555 1_555
C135 C134 1_555 1_555
H112 C135 1_555 1_555
C136 C109 1_555 1_555
N23 C133 1_555 1_555
O45 C137 1_555 1_555
C137 O41 1_555 1_555
C141 H113 1_555 1_555
C142 C141 1_555 1_555
H114 C142 1_555 1_555
C143 C142 1_555 1_555
N25 C143 1_555 1_555
C159 H125 1_555 1_555
C160 C159 1_555 1_555
H126 C160 1_555 1_555
C161 C160 1_555 1_555
C162 C161 1_555 1_555
H127 C162 1_555 1_555
C163 C162 1_555 1_555
H128 C163 1_555 1_555
C164 C137 1_555 1_555
N27 C161 1_555 1_555
C165 O50 1_555 1_555
C169 H129 1_555 1_555
C170 C169 1_555 1_555
H130 C170 1_555 1_555
C171 C170 1_555 1_555
N29 C171 1_555 1_555
C187 H141 1_555 1_555
C188 C187 1_555 1_555
H142 C188 1_555 1_555
C189 C188 1_555 1_555
C190 C189 1_555 1_555
H143 C190 1_555 1_555
C191 C190 1_555 1_555
H144 C191 1_555 1_555
C192 C165 1_555 1_555
N31 C189 1_555 1_555
C131 C136 1_555 1_555
C135 C136 1_555 1_555
C159 C164 1_555 1_555
C163 C164 1_555 1_555
O54 C165 1_555 1_555
C187 C192 1_555 1_555
C191 C192 1_555 1_555
N21 H149 1_555 1_555
N21 H150 1_555 1_555
N23 H151 1_555 1_555
N23 H152 1_555 1_555
N25 H157 1_555 1_555
N25 H158 1_555 1_555
N27 H163 1_555 1_555
N27 H164 1_555 1_555
N29 H167 1_555 1_555
N29 H168 1_555 1_555
N31 H171 1_555 1_555
N31 H172 1_555 1_555
Co1 O3 1_555 1_555
Co2 O1 1_555 1_555
Al1 O1 1_555 1_555
Al2 O1 1_555 1_555
O1 Al4 1_555 1_555
O2 Al2 1_555 1_555
O3 Al2 1_555 1_555
O4 Al1 1_555 1_555
O5 Al2 1_555 1_555
O6 Co1 1_555 1_555
O7 Al2 1_555 1_555
O8 C1 1_555 1_555
O9 Co2 1_555 1_555
O10 C5 1_555 1_555
N1 Co2 1_555 1_555
N2 Co1 1_555 1_555
C1 O4 1_555 1_555
C2 O5 1_555 1_555
C3 O2 1_555 1_555
C4 N2 1_555 1_555
H1 C4 1_555 1_555
H2 C4 1_555 1_555
C5 O7 1_555 1_555
C6 N1 1_555 1_555
H3 C6 1_555 1_555
H4 C6 1_555 1_555
C7 H5 1_555 1_555
C8 C7 1_555 1_555
H6 C8 1_555 1_555
C9 C8 1_555 1_555
C10 C9 1_555 1_555
H7 C10 1_555 1_555
C11 C10 1_555 1_555
H8 C11 1_555 1_555
C12 C2 1_555 1_555
N3 C9 1_555 1_555
C13 C14 1_555 1_555
C14 H9 1_555 1_555
C15 C14 1_555 1_555
H10 C15 1_555 1_555
C16 C3 1_555 1_555
C17 C16 1_555 1_555
H11 C17 1_555 1_555
C18 C13 1_555 1_555
H12 C18 1_555 1_555
N4 C13 1_555 1_555
C19 N1 1_555 1_555
H13 C19 1_555 1_555
H14 C19 1_555 1_555
C20 N1 1_555 1_555
H15 C20 1_555 1_555
H16 C20 1_555 1_555
C21 C5 1_555 1_555
C22 C21 1_555 1_555
H17 C22 1_555 1_555
C23 C22 1_555 1_555
H18 C23 1_555 1_555
C24 C23 1_555 1_555
C25 C24 1_555 1_555
C26 C21 1_555 1_555
H20 C26 1_555 1_555
C27 H21 1_555 1_555
C28 C27 1_555 1_555
H22 C28 1_555 1_555
C29 C28 1_555 1_555
C30 C29 1_555 1_555
H23 C30 1_555 1_555
C31 C30 1_555 1_555
H24 C31 1_555 1_555
C32 C1 1_555 1_555
N5 C29 1_555 1_555
N7 C33 1_555 1_555
C33 C6 1_555 1_555
H25 C33 1_555 1_555
H26 C33 1_555 1_555
C34 C20 1_555 1_555
H27 C34 1_555 1_555
H28 C34 1_555 1_555
C35 C19 1_555 1_555
H29 C35 1_555 1_555
H30 C35 1_555 1_555
C36 N2 1_555 1_555
H31 C36 1_555 1_555
H32 C36 1_555 1_555
C37 N2 1_555 1_555
H33 C37 1_555 1_555
H34 C37 1_555 1_555
N8 C38 1_555 1_555
C38 C4 1_555 1_555
H35 C38 1_555 1_555
H36 C38 1_555 1_555
C39 C36 1_555 1_555
H37 C39 1_555 1_555
H38 C39 1_555 1_555
C40 C37 1_555 1_555
H39 C40 1_555 1_555
H40 C40 1_555 1_555
Co3 O8 1_555 1_555
Al3 O3 1_555 1_555
O11 Al1 1_555 1_555
O12 Al3 1_555 1_555
O13 Al1 1_555 1_555
O14 Al3 1_555 1_555
O15 Co1 1_555 1_555
O16 Al3 1_555 1_555
O17 C41 1_555 1_555
O18 Co3 1_555 1_555
O19 C44 1_555 1_555
N9 Co3 1_555 1_555
C41 O13 1_555 1_555
C42 O14 1_555 1_555
C43 O12 1_555 1_555
C44 O16 1_555 1_555
C45 N9 1_555 1_555
H41 C45 1_555 1_555
H42 C45 1_555 1_555
C46 H43 1_555 1_555
C47 C46 1_555 1_555
H44 C47 1_555 1_555
C48 C47 1_555 1_555
C49 C48 1_555 1_555
H45 C49 1_555 1_555
C50 C49 1_555 1_555
H46 C50 1_555 1_555
C51 C42 1_555 1_555
N10 C48 1_555 1_555
C53 H47 1_555 1_555
C54 C53 1_555 1_555
H48 C54 1_555 1_555
C55 C43 1_555 1_555
C56 C55 1_555 1_555
H49 C56 1_555 1_555
C58 N9 1_555 1_555
H51 C58 1_555 1_555
H52 C58 1_555 1_555
C59 N9 1_555 1_555
H53 C59 1_555 1_555
H54 C59 1_555 1_555
C60 C44 1_555 1_555
C61 C60 1_555 1_555
H55 C61 1_555 1_555
C62 C61 1_555 1_555
H56 C62 1_555 1_555
C63 C62 1_555 1_555
C64_2 C63 1_555 1_555
C65 C60 1_555 1_555
H58 C65 1_555 1_555
C66 H59 1_555 1_555
C67 C66 1_555 1_555
H60 C67 1_555 1_555
C68 C67 1_555 1_555
C69 C68 1_555 1_555
H61 C69 1_555 1_555
C70 C69 1_555 1_555
H62 C70 1_555 1_555
C71 C41 1_555 1_555
N12 C68 1_555 1_555
Co4 O17 1_555 1_555
Al4 O3 1_555 1_555
O20 Al1 1_555 1_555
O21 Al4 1_555 1_555
O22 Al1 1_555 1_555
O23 Al4 1_555 1_555
O24 Co1 1_555 1_555
O25 Al4 1_555 1_555
O26 Co2 1_555 1_555
O27 Co4 1_555 1_555
O28 Co2 1_555 1_555
N15 Co4 1_555 1_555
C75 O22 1_555 1_555
C76 O23 1_555 1_555
C77 O21 1_555 1_555
C78 O25 1_555 1_555
C79 N15 1_555 1_555
H69 C79 1_555 1_555
H70 C79 1_555 1_555
C80 H71 1_555 1_555
C81 C80 1_555 1_555
H72 C81 1_555 1_555
C82 C81 1_555 1_555
C83 C82 1_555 1_555
H73 C83 1_555 1_555
C84 C83 1_555 1_555
H74 C84 1_555 1_555
C85 C76 1_555 1_555
N16 C82 1_555 1_555
C87 H75 1_555 1_555
C88 C87 1_555 1_555
H76 C88 1_555 1_555
C89 C77 1_555 1_555
C90 C89 1_555 1_555
H77 C90 1_555 1_555
C92 N15 1_555 1_555
H79 C92 1_555 1_555
H80 C92 1_555 1_555
C93 N15 1_555 1_555
H81 C93 1_555 1_555
H82 C93 1_555 1_555
C94 C78 1_555 1_555
C95 C94 1_555 1_555
H83 C95 1_555 1_555
C96 C95 1_555 1_555
H84 C96 1_555 1_555
C97 C96 1_555 1_555
C98 C97 1_555 1_555
H85 C98 1_555 1_555
C99 C94 1_555 1_555
H86 C99 1_555 1_555
C100 H87 1_555 1_555
C101 C100 1_555 1_555
H88 C101 1_555 1_555
C102 C101 1_555 1_555
C103 C102 1_555 1_555
H89 C103 1_555 1_555
C104 C103 1_555 1_555
H90 C104 1_555 1_555
C105 C75 1_555 1_555
N18 C102 1_555 1_555
N19 C97 1_555 1_555
Co5 N8 1_555 1_555
Co6 O29 1_555 1_555
Al5 O29 1_555 1_555
Al6 O29 1_555 1_555
O29 Al8 1_555 1_555
O30 Al6 1_555 1_555
O31 Co5 1_555 1_555
O33 Al6 1_555 1_555
O34 Co5 1_555 1_555
O35 Al6 1_555 1_555
O37 Co6 1_555 1_555
O38 C112 1_555 1_555
C110 O33 1_555 1_555
C111 O30 1_555 1_555
C112 O35 1_555 1_555
H99 C116 1_555 1_555
C117 C116 1_555 1_555
H100 C117 1_555 1_555
C118 C110 1_555 1_555
C119 C120 1_555 1_555
C120 H101 1_555 1_555
C121 C120 1_555 1_555
H102 C121 1_555 1_555
C122 C111 1_555 1_555
C123 C122 1_555 1_555
H103 C123 1_555 1_555
C124 C119 1_555 1_555
H104 C124 1_555 1_555
N22 C119 1_555 1_555
C125 C112 1_555 1_555
C126 C125 1_555 1_555
H105 C126 1_555 1_555
C127 C126 1_555 1_555
H106 C127 1_555 1_555
C128 C127 1_555 1_555
C129 C128 1_555 1_555
C130 C125 1_555 1_555
H108 C130 1_555 1_555
Al7 O31 1_555 1_555
O39 Al5 1_555 1_555
O40 Al7 1_555 1_555
O42 Al7 1_555 1_555
O43 Co5 1_555 1_555
O44 Al7 1_555 1_555
O46 Co7 1_555 1_555
O47 C140 1_555 1_555
C138 O42 1_555 1_555
C139 O40 1_555 1_555
C140 O44 1_555 1_555
H115 C144 1_555 1_555
C145 C144 1_555 1_555
H116 C145 1_555 1_555
C146 C138 1_555 1_555
C148 H117 1_555 1_555
C149 C148 1_555 1_555
H118 C149 1_555 1_555
C150 C139 1_555 1_555
C151 C150 1_555 1_555
H119 C151 1_555 1_555
C153 C140 1_555 1_555
C154 C153 1_555 1_555
H121 C154 1_555 1_555
C155 C154 1_555 1_555
H122 C155 1_555 1_555
C156 C155 1_555 1_555
C157_2 C156 1_555 1_555
C158 C153 1_555 1_555
H124 C158 1_555 1_555
Al8 O31 1_555 1_555
O48 Al5 1_555 1_555
O49 Al8 1_555 1_555
O51 Al8 1_555 1_555
O52 Co5 1_555 1_555
O53 Al8 1_555 1_555
O55 Co8 1_555 1_555
O56 Co6 1_555 1_555
C166 O51 1_555 1_555
C167 O49 1_555 1_555
C168 O53 1_555 1_555
H131 C172 1_555 1_555
C173 C172 1_555 1_555
H132 C173 1_555 1_555
C174 C166 1_555 1_555
C176 H133 1_555 1_555
C177 C176 1_555 1_555
H134 C177 1_555 1_555
C178 C167 1_555 1_555
C179 C178 1_555 1_555
H135 C179 1_555 1_555
C181 C168 1_555 1_555
C182 C181 1_555 1_555
H137 C182 1_555 1_555
C183 C182 1_555 1_555
H138 C183 1_555 1_555
C184 C183 1_555 1_555
C185 C184 1_555 1_555
H139 C185 1_555 1_555
C186 C181 1_555 1_555
H140 C186 1_555 1_555
N32 C184 1_555 1_555
Co9 N7 1_555 1_555
N33 Co6 1_555 1_555
N34 Co7 1_555 1_555
N35 Co8 1_555 1_555
Al2 O11 1_555 1_555
O6 C3 1_555 1_555
O9 C2 1_555 1_555
O10 Co3 1_555 1_555
C7 C12 1_555 1_555
C11 C12 1_555 1_555
C15 C16 1_555 1_555
C17 C18 1_555 1_555
C25 C26 1_555 1_555
C27 C32 1_555 1_555
C31 C32 1_555 1_555
N7 C34 1_555 1_555
N7 C35 1_555 1_555
N8 C39 1_555 1_555
N8 C40 1_555 1_555
Co3 O11 1_555 1_555
Al3 O11 1_555 1_555
Al3 O20 1_555 1_555
O15 C43 1_555 1_555
O18 C42 1_555 1_555
O19 Co4 1_555 1_555
C46 C51 1_555 1_555
C50 C51 1_555 1_555
C54 C55 1_555 1_555
C56 C57 1_555 1_555
C64_2 C65 1_555 1_555
C66 C71 1_555 1_555
C70 C71 1_555 1_555
Co4 O20 1_555 1_555
Al4 O20 1_555 1_555
O24 C77 1_555 1_555
O26 C75 1_555 1_555
O27 C76 1_555 1_555
O28 C78 1_555 1_555
C80 C85 1_555 1_555
C84 C85 1_555 1_555
C88 C89 1_555 1_555
C90 C91 1_555 1_555
C98 C99 1_555 1_555
C100 C105 1_555 1_555
C104 C105 1_555 1_555
Al6 O31 1_555 1_555
Al6 O39 1_555 1_555
O34 C111 1_555 1_555
O37 C110 1_555 1_555
O38 Co7 1_555 1_555
C117 C118 1_555 1_555
C121 C122 1_555 1_555
C123 C124 1_555 1_555
C129 C130 1_555 1_555
Co7 O39 1_555 1_555
Al7 O39 1_555 1_555
Al7 O48 1_555 1_555
O43 C139 1_555 1_555
O46 C138 1_555 1_555
O47 Co8 1_555 1_555
C145 C146 1_555 1_555
C149 C150 1_555 1_555
C151 C152 1_555 1_555
C157_2 C158 1_555 1_555
Co8 O48 1_555 1_555
Al8 O48 1_555 1_555
O52 C167 1_555 1_555
O55 C166 1_555 1_555
O56 C168 1_555 1_555
C173 C174 1_555 1_555
C177 C178 1_555 1_555
C179 C180 1_555 1_555
C185 C186 1_555 1_555
N18 H145 1_555 1_555
N18 H146 1_555 1_555
N19 H147 1_555 1_555
N19 H148 1_555 1_555
N22 H155 1_555 1_555
N22 H156 1_555 1_555
N32 H169 1_555 1_555
N32 H170 1_555 1_555
N3 H173 1_555 1_555
N3 H174 1_555 1_555
N4 H175 1_555 1_555
N4 H176 1_555 1_555
N5 H177 1_555 1_555
N5 H178 1_555 1_555
N10 H181 1_555 1_555
N10 H182 1_555 1_555
N12 H187 1_555 1_555
N12 H188 1_555 1_555
N16 H191 1_555 1_555
N16 H192 1_555 1_555
H19 C25_2 1_555 1_555
N11 C52 1_555 1_555
N14 C72 1_555 1_555
H63 C72 1_555 1_555
H64 C72 1_555 1_555
H65 C73 1_555 1_555
H66 C73 1_555 1_555
H67 C74 1_555 1_555
H68 C74 1_555 1_555
H107 C129_2 1_555 1_555
N26 C147 1_555 1_555
Co11 N14 1_555 1_555
N14 C73 1_555 1_555
N14 C74 1_555 1_555
N24 H153 1_555 1_555
N24 H154 1_555 1_555
N26 H161 1_555 1_555
N26 H162 1_555 1_555
N6 H179 1_555 1_555
N6 H180 1_555 1_555
N11 H183 1_555 1_555
N11 H184 1_555 1_555
N20_2 C106_2 1_555 1_555
H92_2 C106_2 1_555 1_555
H95_2 C108_2 1_555 1_555
H96_2 C108_2 1_555 1_555
Co10_2 N20_2 1_555 1_555
N20_2 C108_2 1_555 1_555
H93_2 C107_2 1_555 1_555
H94_2 C107_2 1_555 1_555
H13_2 C19_2 1_555 1_555
H14_2 C19_2 1_555 1_555
N7_2 C33_2 1_555 1_555
H26_2 C33_2 1_555 1_555
C35_2 C19_2 1_555 1_555
H29_2 C35_2 1_555 1_555
H30_2 C35_2 1_555 1_555
H51_2 C58_2 1_555 1_555
H52_2 C58_2 1_555 1_555
H79_2 C92_2 1_555 1_555
H80_2 C92_2 1_555 1_555
Co9_2 N7_2 1_555 1_555
N7_2 C35_2 1_555 1_555
C6_2 N33 1_555 1_555
H4_2 C6_2 1_555 1_555
C20_2 N33 1_555 1_555
H15_2 C20_2 1_555 1_555
H16_2 C20_2 1_555 1_555
C34_2 C20_2 1_555 1_555
H27_2 C34_2 1_555 1_555
H28_2 C34_2 1_555 1_555
C45_2 N34 1_555 1_555
H42_2 C45_2 1_555 1_555
C59_2 N34 1_555 1_555
H53_2 C59_2 1_555 1_555
H54_2 C59_2 1_555 1_555
C79_2 N35 1_555 1_555
H70_2 C79_2 1_555 1_555
C93_2 N35 1_555 1_555
H81_2 C93_2 1_555 1_555
H82_2 C93_2 1_555 1_555
N14_2 C72_2 1_555 1_555
H64_2 C72_2 1_555 1_555
H67_2 C74_2 1_555 1_555
H68_2 C74_2 1_555 1_555
Co11_2 N14_2 1_555 1_555
N14_2 C74_2 1_555 1_555
H65_2 C73_2 1_555 1_555
H66_2 C73_2 1_555 1_555
H57_2 C64_3 1_555 1_555
N17_2 C86_2 1_555 1_555
H123_2 C157_3 1_555 1_555
N30_2 C175_2 1_555 1_555
N28_2 H159_2 1_555 1_555
N28_2 H160_2 1_555 1_555
N30_2 H165_2 1_555 1_555
N30_2 H166_2 1_555 1_555
N13_2 H185_2 1_555 1_555
N13_2 H186_2 1_555 1_555
N17_2 H189_2 1_555 1_555
N17_2 H190_2 1_555 1_555
Co1_2 O3_2 1_555 1_555
Co9 O1_2 1_555 1_555
Al1_2 O1_2 1_555 1_555
Al2_2 O1_2 1_555 1_555
O1_2 Al4_2 1_555 1_555
O2_2 Al2_2 1_555 1_555
O3_2 Al2_2 1_555 1_555
O4_2 Al1_2 1_555 1_555
O5_2 Al2_2 1_555 1_555
O6_2 Co1_2 1_555 1_555
O7_2 Al2_2 1_555 1_555
O8_2 C1_2 1_555 1_555
O9_2 Co9 1_555 1_555
O10_2 C5_2 1_555 1_555
N2_2 Co1_2 1_555 1_555
C1_2 O4_2 1_555 1_555
C2_2 O5_2 1_555 1_555
C3_2 O2_2 1_555 1_555
C4_2 N2_2 1_555 1_555
H1_2 C4_2 1_555 1_555
H2_2 C4_2 1_555 1_555
C5_2 O7_2 1_555 1_555
C7_2 H5_2 1_555 1_555
C8_2 C7_2 1_555 1_555
H6_2 C8_2 1_555 1_555
C9_2 C8_2 1_555 1_555
C10_2 C9_2 1_555 1_555
H7_2 C10_2 1_555 1_555
C11_2 C10_2 1_555 1_555
H8_2 C11_2 1_555 1_555
C12_2 C2_2 1_555 1_555
N3_2 C9_2 1_555 1_555
C13_2 C14_2 1_555 1_555
C14_2 H9_2 1_555 1_555
C15_2 C14_2 1_555 1_555
H10_2 C15_2 1_555 1_555
C16_2 C3_2 1_555 1_555
C17_2 C16_2 1_555 1_555
H11_2 C17_2 1_555 1_555
C18_2 C13_2 1_555 1_555
H12_2 C18_2 1_555 1_555
N4_2 C13_2 1_555 1_555
C21_2 C5_2 1_555 1_555
C22_2 C21_2 1_555 1_555
H17_2 C22_2 1_555 1_555
C23_2 C22_2 1_555 1_555
H18_2 C23_2 1_555 1_555
C24_2 C23_2 1_555 1_555
C25_3 C24_2 1_555 1_555
C26_2 C21_2 1_555 1_555
H20_2 C26_2 1_555 1_555
C27_2 H21_2 1_555 1_555
C28_2 C27_2 1_555 1_555
H22_2 C28_2 1_555 1_555
C29_2 C28_2 1_555 1_555
C30_2 C29_2 1_555 1_555
H23_2 C30_2 1_555 1_555
C31_2 C30_2 1_555 1_555
H24_2 C31_2 1_555 1_555
C32_2 C1_2 1_555 1_555
N5_2 C29_2 1_555 1_555
C36_2 N2_2 1_555 1_555
H31_2 C36_2 1_555 1_555
H32_2 C36_2 1_555 1_555
C37_2 N2_2 1_555 1_555
H33_2 C37_2 1_555 1_555
H34_2 C37_2 1_555 1_555
N8_2 C38_2 1_555 1_555
C38_2 C4_2 1_555 1_555
H35_2 C38_2 1_555 1_555
H36_2 C38_2 1_555 1_555
C39_2 C36_2 1_555 1_555
H37_2 C39_2 1_555 1_555
H38_2 C39_2 1_555 1_555
C40_2 C37_2 1_555 1_555
H39_2 C40_2 1_555 1_555
H40_2 C40_2 1_555 1_555
Co10 O8_2 1_555 1_555
Al3_2 O3_2 1_555 1_555
O11_2 Al1_2 1_555 1_555
O12_2 Al3_2 1_555 1_555
O13_2 Al1_2 1_555 1_555
O14_2 Al3_2 1_555 1_555
O15_2 Co1_2 1_555 1_555
O16_2 Al3_2 1_555 1_555
O17_2 C41_2 1_555 1_555
O18_2 Co10 1_555 1_555
O19_2 C44_2 1_555 1_555
C41_2 O13_2 1_555 1_555
C42_2 O14_2 1_555 1_555
C43_2 O12_2 1_555 1_555
C44_2 O16_2 1_555 1_555
C46_2 H43_2 1_555 1_555
C47_2 C46_2 1_555 1_555
H44_2 C47_2 1_555 1_555
C48_2 C47_2 1_555 1_555
C49_2 C48_2 1_555 1_555
H45_2 C49_2 1_555 1_555
C50_2 C49_2 1_555 1_555
H46_2 C50_2 1_555 1_555
C51_2 C42_2 1_555 1_555
N10_2 C48_2 1_555 1_555
C53_2 H47_2 1_555 1_555
C54_2 C53_2 1_555 1_555
H48_2 C54_2 1_555 1_555
C55_2 C43_2 1_555 1_555
C56_2 C55_2 1_555 1_555
H49_2 C56_2 1_555 1_555
C60_2 C44_2 1_555 1_555
C61_2 C60_2 1_555 1_555
H55_2 C61_2 1_555 1_555
C62_2 C61_2 1_555 1_555
H56_2 C62_2 1_555 1_555
C63_2 C62_2 1_555 1_555
C64_4 C63_2 1_555 1_555
C65_2 C60_2 1_555 1_555
H58_2 C65_2 1_555 1_555
C66_2 H59_2 1_555 1_555
C67_2 C66_2 1_555 1_555
H60_2 C67_2 1_555 1_555
C68_2 C67_2 1_555 1_555
C69_2 C68_2 1_555 1_555
H61_2 C69_2 1_555 1_555
C70_2 C69_2 1_555 1_555
H62_2 C70_2 1_555 1_555
C71_2 C41_2 1_555 1_555
N12_2 C68_2 1_555 1_555
Co11 O17_2 1_555 1_555
Al4_2 O3_2 1_555 1_555
O20_2 Al1_2 1_555 1_555
O21_2 Al4_2 1_555 1_555
O22_2 Al1_2 1_555 1_555
O23_2 Al4_2 1_555 1_555
O24_2 Co1_2 1_555 1_555
O25_2 Al4_2 1_555 1_555
O26_2 Co9 1_555 1_555
O27_2 Co11 1_555 1_555
O28_2 Co9 1_555 1_555
C75_2 O22_2 1_555 1_555
C76_2 O23_2 1_555 1_555
C77_2 O21_2 1_555 1_555
C78_2 O25_2 1_555 1_555
C80_2 H71_2 1_555 1_555
C81_2 C80_2 1_555 1_555
H72_2 C81_2 1_555 1_555
C82_2 C81_2 1_555 1_555
C83_2 C82_2 1_555 1_555
H73_2 C83_2 1_555 1_555
C84_2 C83_2 1_555 1_555
H74_2 C84_2 1_555 1_555
C85_2 C76_2 1_555 1_555
N16_2 C82_2 1_555 1_555
C87_2 H75_2 1_555 1_555
C88_2 C87_2 1_555 1_555
H76_2 C88_2 1_555 1_555
C89_2 C77_2 1_555 1_555
C90_2 C89_2 1_555 1_555
H77_2 C90_2 1_555 1_555
C94_2 C78_2 1_555 1_555
C95_2 C94_2 1_555 1_555
H83_2 C95_2 1_555 1_555
C96_2 C95_2 1_555 1_555
H84_2 C96_2 1_555 1_555
C97_2 C96_2 1_555 1_555
C98_2 C97_2 1_555 1_555
H85_2 C98_2 1_555 1_555
C99_2 C94_2 1_555 1_555
H86_2 C99_2 1_555 1_555
C100_2 H87_2 1_555 1_555
C101_2 C100_2 1_555 1_555
H88_2 C101_2 1_555 1_555
C102_2 C101_2 1_555 1_555
C103_2 C102_2 1_555 1_555
H89_2 C103_2 1_555 1_555
C104_2 C103_2 1_555 1_555
H90_2 C104_2 1_555 1_555
C105_2 C75_2 1_555 1_555
N18_2 C102_2 1_555 1_555
N19_2 C97_2 1_555 1_555
Co5_2 N8_2 1_555 1_555
Co9_2 O29_2 1_555 1_555
Al5_2 O29_2 1_555 1_555
Al6_2 O29_2 1_555 1_555
O29_2 Al8_2 1_555 1_555
O30_2 Al6_2 1_555 1_555
O31_2 Co5_2 1_555 1_555
O33_2 Al6_2 1_555 1_555
O34_2 Co5_2 1_555 1_555
O35_2 Al6_2 1_555 1_555
O37_2 Co9_2 1_555 1_555
O38_2 C112_2 1_555 1_555
C110_2 O33_2 1_555 1_555
C111_2 O30_2 1_555 1_555
C112_2 O35_2 1_555 1_555
H99_2 C116_2 1_555 1_555
C117_2 C116_2 1_555 1_555
H100_2 C117_2 1_555 1_555
C118_2 C110_2 1_555 1_555
C119_2 C120_2 1_555 1_555
C120_2 H101_2 1_555 1_555
C121_2 C120_2 1_555 1_555
H102_2 C121_2 1_555 1_555
C122_2 C111_2 1_555 1_555
C123_2 C122_2 1_555 1_555
H103_2 C123_2 1_555 1_555
C124_2 C119_2 1_555 1_555
H104_2 C124_2 1_555 1_555
N22_2 C119_2 1_555 1_555
C125_2 C112_2 1_555 1_555
C126_2 C125_2 1_555 1_555
H105_2 C126_2 1_555 1_555
C127_2 C126_2 1_555 1_555
H106_2 C127_2 1_555 1_555
C128_2 C127_2 1_555 1_555
C129_3 C128_2 1_555 1_555
C130_2 C125_2 1_555 1_555
H108_2 C130_2 1_555 1_555
Al7_2 O31_2 1_555 1_555
O39_2 Al5_2 1_555 1_555
O40_2 Al7_2 1_555 1_555
O42_2 Al7_2 1_555 1_555
O43_2 Co5_2 1_555 1_555
O44_2 Al7_2 1_555 1_555
O46_2 Co10_2 1_555 1_555
O47_2 C140_2 1_555 1_555
C138_2 O42_2 1_555 1_555
C139_2 O40_2 1_555 1_555
C140_2 O44_2 1_555 1_555
H115_2 C144_2 1_555 1_555
C145_2 C144_2 1_555 1_555
H116_2 C145_2 1_555 1_555
C146_2 C138_2 1_555 1_555
C148_2 H117_2 1_555 1_555
C149_2 C148_2 1_555 1_555
H118_2 C149_2 1_555 1_555
C150_2 C139_2 1_555 1_555
C151_2 C150_2 1_555 1_555
H119_2 C151_2 1_555 1_555
C153_2 C140_2 1_555 1_555
C154_2 C153_2 1_555 1_555
H121_2 C154_2 1_555 1_555
C155_2 C154_2 1_555 1_555
H122_2 C155_2 1_555 1_555
C156_2 C155_2 1_555 1_555
C157_4 C156_2 1_555 1_555
C158_2 C153_2 1_555 1_555
H124_2 C158_2 1_555 1_555
Al8_2 O31_2 1_555 1_555
O48_2 Al5_2 1_555 1_555
O49_2 Al8_2 1_555 1_555
O51_2 Al8_2 1_555 1_555
O52_2 Co5_2 1_555 1_555
O53_2 Al8_2 1_555 1_555
O55_2 Co11_2 1_555 1_555
O56_2 Co9_2 1_555 1_555
C166_2 O51_2 1_555 1_555
C167_2 O49_2 1_555 1_555
C168_2 O53_2 1_555 1_555
H131_2 C172_2 1_555 1_555
C173_2 C172_2 1_555 1_555
H132_2 C173_2 1_555 1_555
C174_2 C166_2 1_555 1_555
C176_2 H133_2 1_555 1_555
C177_2 C176_2 1_555 1_555
H134_2 C177_2 1_555 1_555
C178_2 C167_2 1_555 1_555
C179_2 C178_2 1_555 1_555
H135_2 C179_2 1_555 1_555
C181_2 C168_2 1_555 1_555
C182_2 C181_2 1_555 1_555
H137_2 C182_2 1_555 1_555
C183_2 C182_2 1_555 1_555
H138_2 C183_2 1_555 1_555
C184_2 C183_2 1_555 1_555
C185_2 C184_2 1_555 1_555
H139_2 C185_2 1_555 1_555
C186_2 C181_2 1_555 1_555
H140_2 C186_2 1_555 1_555
N32_2 C184_2 1_555 1_555
Al2_2 O11_2 1_555 1_555
O6_2 C3_2 1_555 1_555
O9_2 C2_2 1_555 1_555
O10_2 Co10 1_555 1_555
C7_2 C12_2 1_555 1_555
C11_2 C12_2 1_555 1_555
C15_2 C16_2 1_555 1_555
C17_2 C18_2 1_555 1_555
C25_3 C26_2 1_555 1_555
C27_2 C32_2 1_555 1_555
C31_2 C32_2 1_555 1_555
N8_2 C39_2 1_555 1_555
N8_2 C40_2 1_555 1_555
Co10 O11_2 1_555 1_555
Al3_2 O11_2 1_555 1_555
Al3_2 O20_2 1_555 1_555
O15_2 C43_2 1_555 1_555
O18_2 C42_2 1_555 1_555
O19_2 Co11 1_555 1_555
C46_2 C51_2 1_555 1_555
C50_2 C51_2 1_555 1_555
C54_2 C55_2 1_555 1_555
C56_2 C57_2 1_555 1_555
C64_4 C65_2 1_555 1_555
C66_2 C71_2 1_555 1_555
C70_2 C71_2 1_555 1_555
Co11 O20_2 1_555 1_555
Al4_2 O20_2 1_555 1_555
O24_2 C77_2 1_555 1_555
O26_2 C75_2 1_555 1_555
O27_2 C76_2 1_555 1_555
O28_2 C78_2 1_555 1_555
C80_2 C85_2 1_555 1_555
C84_2 C85_2 1_555 1_555
C88_2 C89_2 1_555 1_555
C90_2 C91_2 1_555 1_555
C98_2 C99_2 1_555 1_555
C100_2 C105_2 1_555 1_555
C104_2 C105_2 1_555 1_555
Al6_2 O31_2 1_555 1_555
Al6_2 O39_2 1_555 1_555
O34_2 C111_2 1_555 1_555
O37_2 C110_2 1_555 1_555
O38_2 Co10_2 1_555 1_555
C117_2 C118_2 1_555 1_555
C121_2 C122_2 1_555 1_555
C123_2 C124_2 1_555 1_555
C129_3 C130_2 1_555 1_555
Co10_2 O39_2 1_555 1_555
Al7_2 O39_2 1_555 1_555
Al7_2 O48_2 1_555 1_555
O43_2 C139_2 1_555 1_555
O46_2 C138_2 1_555 1_555
O47_2 Co11_2 1_555 1_555
C145_2 C146_2 1_555 1_555
C149_2 C150_2 1_555 1_555
C151_2 C152_2 1_555 1_555
C157_4 C158_2 1_555 1_555
Co11_2 O48_2 1_555 1_555
Al8_2 O48_2 1_555 1_555
O52_2 C167_2 1_555 1_555
O55_2 C166_2 1_555 1_555
O56_2 C168_2 1_555 1_555
C173_2 C174_2 1_555 1_555
C177_2 C178_2 1_555 1_555
C179_2 C180_2 1_555 1_555
C185_2 C186_2 1_555 1_555
N18_2 H145_2 1_555 1_555
N18_2 H146_2 1_555 1_555
N19_2 H147_2 1_555 1_555
N19_2 H148_2 1_555 1_555
N22_2 H155_2 1_555 1_555
N22_2 H156_2 1_555 1_555
N32_2 H169_2 1_555 1_555
N32_2 H170_2 1_555 1_555
N3_2 H173_2 1_555 1_555
N3_2 H174_2 1_555 1_555
N4_2 H175_2 1_555 1_555
N4_2 H176_2 1_555 1_555
N5_2 H177_2 1_555 1_555
N5_2 H178_2 1_555 1_555
N10_2 H181_2 1_555 1_555
N10_2 H182_2 1_555 1_555
N12_2 H187_2 1_555 1_555
N12_2 H188_2 1_555 1_555
N16_2 H191_2 1_555 1_555
N16_2 H192_2 1_555 1_555
O36_2 C109_2 1_555 1_555
C109_2 O32_2 1_555 1_555
C113_2 H97_2 1_555 1_555
C114_2 C113_2 1_555 1_555
H98_2 C114_2 1_555 1_555
C115_2 C114_2 1_555 1_555
N21_2 C115_2 1_555 1_555
C131_2 H109_2 1_555 1_555
C132_2 C131_2 1_555 1_555
H110_2 C132_2 1_555 1_555
C133_2 C132_2 1_555 1_555
C134_2 C133_2 1_555 1_555
H111_2 C134_2 1_555 1_555
C135_2 C134_2 1_555 1_555
H112_2 C135_2 1_555 1_555
C136_2 C109_2 1_555 1_555
N23_2 C133_2 1_555 1_555
O45_2 C137_2 1_555 1_555
C137_2 O41_2 1_555 1_555
C141_2 H113_2 1_555 1_555
C142_2 C141_2 1_555 1_555
H114_2 C142_2 1_555 1_555
C143_2 C142_2 1_555 1_555
N25_2 C143_2 1_555 1_555
C159_2 H125_2 1_555 1_555
C160_2 C159_2 1_555 1_555
H126_2 C160_2 1_555 1_555
C161_2 C160_2 1_555 1_555
C162_2 C161_2 1_555 1_555
H127_2 C162_2 1_555 1_555
C163_2 C162_2 1_555 1_555
H128_2 C163_2 1_555 1_555
C164_2 C137_2 1_555 1_555
N27_2 C161_2 1_555 1_555
C165_2 O50_2 1_555 1_555
C169_2 H129_2 1_555 1_555
C170_2 C169_2 1_555 1_555
H130_2 C170_2 1_555 1_555
C171_2 C170_2 1_555 1_555
N29_2 C171_2 1_555 1_555
C187_2 H141_2 1_555 1_555
C188_2 C187_2 1_555 1_555
H142_2 C188_2 1_555 1_555
C189_2 C188_2 1_555 1_555
C190_2 C189_2 1_555 1_555
H143_2 C190_2 1_555 1_555
C191_2 C190_2 1_555 1_555
H144_2 C191_2 1_555 1_555
C192_2 C165_2 1_555 1_555
N31_2 C189_2 1_555 1_555
C131_2 C136_2 1_555 1_555
C135_2 C136_2 1_555 1_555
C159_2 C164_2 1_555 1_555
C163_2 C164_2 1_555 1_555
O54_2 C165_2 1_555 1_555
C187_2 C192_2 1_555 1_555
C191_2 C192_2 1_555 1_555
N21_2 H149_2 1_555 1_555
N21_2 H150_2 1_555 1_555
N23_2 H151_2 1_555 1_555
N23_2 H152_2 1_555 1_555
N25_2 H157_2 1_555 1_555
N25_2 H158_2 1_555 1_555
N27_2 H163_2 1_555 1_555
N27_2 H164_2 1_555 1_555
N29_2 H167_2 1_555 1_555
N29_2 H168_2 1_555 1_555
N31_2 H171_2 1_555 1_555
N31_2 H172_2 1_555 1_555
H19_2 C25_4 1_555 1_555
N11_2 C52_2 1_555 1_555
H107_2 C129_4 1_555 1_555
N26_2 C147_2 1_555 1_555
N24_2 H153_2 1_555 1_555
N24_2 H154_2 1_555 1_555
N26_2 H161_2 1_555 1_555
N26_2 H162_2 1_555 1_555
N6_2 H179_2 1_555 1_555
N6_2 H180_2 1_555 1_555
N11_2 H183_2 1_555 1_555
N11_2 H184_2 1_555 1_555

#END
