
###############################################################################
#
# This file contains modified crystal structure data generated from the
# MOF subset of the Cambridge Structural Database (CSD) v543 
# hosted by the Cambridge Crystallographic Data Centre (CCDC).
#
# This work is licensed under the Creative Commons
# Attribution-NonCommercial-ShareAlike 4.0 International License.
# To view a copy of this license, visit
# http://creativecommons.org/licenses/by-nc-sa/4.0/
# or send a letter to
# Creative Commons, PO Box 1866, Mountain View, CA 94042, USA.
#
# CIF created using the CSD Python API on 29 September 2022
# The structure has been converted into the P1 space group
# The structure has a 3D framework
# The original CSD entry NECHUC is in the hexagonal crystal system
# The framework has been calculated to contain at least 10.0% void space
# The void calculation uses a probe of radius 1.32A, grid spacing 0.4
#
###############################################################################

data_NECHUC
_chemical_formula_moiety         '(C384 H336 Al16 Mn16 N16 O112)n'
_symmetry_cell_setting           triclinic
_symmetry_space_group_name_H-M   'P 1'
_symmetry_Int_Tables_number      1
_space_group_name_Hall           'P 1'
loop_
_symmetry_equiv_pos_site_id
_symmetry_equiv_pos_as_xyz
1 x,y,z
_cell_length_a                   22.9056(5)
_cell_length_b                   22.9056(5)
_cell_length_c                   37.4928(8)
_cell_angle_alpha                90
_cell_angle_beta                 90
_cell_angle_gamma                120
_cell_volume                     17035.8
loop_
_atom_site_label
_atom_site_type_symbol
_atom_site_fract_x
_atom_site_fract_y
_atom_site_fract_z
C31 C 0.0013(10) 0.5854(11) 0.3398(5)
H27 H 0.0479 0.6065 0.3418
C94 C 0.0048(13) 0.4079(10) 0.3355(4)
H91 H 0.0501 0.4245 0.3304
H94 H 0.0099 0.3777 0.3850
N8 N 0.0614(6) 0.5309(4) 0.51140(16)
C106 C 0.0186(7) 0.4751(5) 0.5353(2)
H103 H 0.0260 0.4909 0.5598
H104 H 0.0301 0.4398 0.5333
C107 C 0.0574(7) 0.5038(5) 0.4749(2)
H105 H 0.0811 0.4786 0.4741
H106 H 0.0785 0.5406 0.4580
C108 C 0.0339(7) 0.5776(5) 0.5088(3)
H107 H 0.0647 0.6171 0.4951
H108 H 0.0301 0.5923 0.5325
C135 C 0.0013(10) 0.5854(11) 0.1602(5)
H127 H 0.0479 0.6065 0.1582
C181 C 0.0048(13) 0.4079(10) 0.1645(4)
H157 H 0.0501 0.4245 0.1696
H160 H 0.0099 0.3777 0.1150
Mn10 Mn 0.16583(13) 0.58335(9) 0.53083(3)
Mn1 Mn 0.6667 0.3333 0.34304(5)
Mn2 Mn 0.58248(9) 0.41665(9) 0.46917(3)
Al1 Al 0.6667 0.3333 0.48351(10)
Al2 Al 0.70808(15) 0.41571(10) 0.42197(5)
O1 O 0.6300(3) 0.3695(3) 0.45112(11)
O2 O 0.7005(3) 0.4092(3) 0.51390(13)
O3 O 0.6698(3) 0.4588(3) 0.39449(16)
O4 O 0.6667 0.3333 0.39649(19)
O5 O 0.7509(3) 0.4946(2) 0.44967(13)
O6 O 0.7829(3) 0.4558(3) 0.39113(14)
O7 O 0.8748(3) 0.4842(3) 0.42477(17)
O8 O 0.8125(3) 0.4539(3) 0.51680(16)
O9 O 0.6643(3) 0.4249(3) 0.33875(16)
O10 O 0.6715(4) 0.5148(3) 0.47166(17)
N1 N 0.6667 0.3333 0.2844(3)
N2 N 0.5305(5) 0.4691(4) 0.48860(16)
C1 C 0.7577(6) 0.4487(5) 0.5263(2)
C2 C 0.7321(6) 0.5284(5) 0.4655(3)
C3 C 0.8470(5) 0.4850(5) 0.3970(3)
C4 C 0.6580(5) 0.4616(5) 0.3629(3)
C5 C 0.5435(5) 0.5249(5) 0.4647(2)
H1 H 0.5351 0.5091 0.4402
H2 H 0.5903 0.5602 0.4667
C6 C 0.5536(5) 0.4962(5) 0.5251(2)
H3 H 0.6025 0.5214 0.5259
H4 H 0.5379 0.4594 0.5420
C7 C 0.7583(6) 0.4936(5) 0.5564(3)
C8 C 0.4563(5) 0.4224(5) 0.4912(3)
H5 H 0.4476 0.3829 0.5049
H6 H 0.4378 0.4077 0.4675
C9 C 0.6372(6) 0.5093(6) 0.3516(3)
C10 C 0.8893(6) 0.5225(6) 0.3646(3)
C11 C 0.6033(5) 0.3274(5) 0.2703(2)
H7 H 0.5987 0.3648 0.2789
H8 H 0.5651 0.2860 0.2789
C12 C 0.7864(7) 0.5974(6) 0.4798(3)
C13 C 0.6138(7) 0.5111(7) 0.3184(4)
H9 H 0.6137 0.4824 0.3009
C14 C 0.6366(6) 0.5529(6) 0.3771(3)
H10 H 0.6491 0.5506 0.4004
C15 C 0.8510(7) 0.6171(6) 0.4724(3)
H11 H 0.8605 0.5892 0.4585
C16 C 0.6985(6) 0.4868(6) 0.5685(3)
H12 H 0.6577 0.4551 0.5586
C17 C 0.7607(12) 0.5773(10) 0.6088(6)
H13 H 0.7612 0.6070 0.6258
C18 C 0.9577(7) 0.5481(8) 0.3673(4)
H14 H 0.9752 0.5403 0.3879
C19 C 0.7701(9) 0.6376(7) 0.4999(5)
H15 H 0.7251 0.6235 0.5044
C20 C 0.8200(7) 0.5429(7) 0.5699(4)
H16 H 0.8605 0.5487 0.5611
C21 C 0.5921(10) 0.5969(8) 0.3355(4)
H17 H 0.5755 0.6256 0.3304
C22 C 0.7005(8) 0.5288(9) 0.5963(4)
H18 H 0.6607 0.5233 0.6060
C23 C 0.5896(9) 0.5552(9) 0.3100(4)
H19 H 0.5726 0.5552 0.2875
C24 C 0.6177(8) 0.5997(8) 0.3686(4)
H20 H 0.6223 0.6322 0.3850
C25 C 0.9054(8) 0.6789(8) 0.4851(5)
H21 H 0.9503 0.6930 0.4800
C26 C 0.8605(6) 0.5271(6) 0.3324(3)
H22 H 0.8140 0.5071 0.3299
C27 C 0.8219(12) 0.7013(8) 0.5143(6)
H23 H 0.8122 0.7291 0.5281
C28 C 0.9011(9) 0.5604(9) 0.3057(4)
H24 H 0.8831 0.5650 0.2843
C29 C 0.8856(12) 0.7170(9) 0.5059(5)
H25 H 0.9200 0.7574 0.5150
C30 C 0.8184(10) 0.5847(10) 0.5982(5)
H26 H 0.8583 0.6168 0.6089
C32 C 0.9691(9) 0.5883(11) 0.3091(5)
H28 H 0.9958 0.6107 0.2894
C33 C 0.6726(5) 0.2759(7) 0.2703(2)
H29 H 0.6352 0.2339 0.2789
H30 H 0.7140 0.2791 0.2789
C34 C 0.7241(7) 0.3967(5) 0.2703(2)
H31 H 0.7661 0.4013 0.2789
H32 H 0.7209 0.4349 0.2789
N3 N 0.6667 0.3333 0.2156(3)
C35 C 0.6033(5) 0.3274(5) 0.2297(2)
H33 H 0.5987 0.3648 0.2211
H34 H 0.5651 0.2860 0.2211
C36 C 0.6726(5) 0.2759(7) 0.2297(2)
H35 H 0.6352 0.2339 0.2211
H36 H 0.7140 0.2791 0.2211
C37 C 0.7241(7) 0.3967(5) 0.2297(2)
H37 H 0.7661 0.4013 0.2211
H38 H 0.7209 0.4349 0.2211
N4 N 0.4691(4) 0.5305(5) 0.51140(16)
C38 C 0.5249(5) 0.5435(5) 0.5353(2)
H39 H 0.5091 0.5351 0.5598
H40 H 0.5602 0.5903 0.5333
C39 C 0.4962(5) 0.5536(5) 0.4749(2)
H41 H 0.5214 0.6025 0.4741
H42 H 0.4594 0.5379 0.4580
C40 C 0.4224(5) 0.4563(5) 0.5088(3)
H43 H 0.3829 0.4476 0.4951
H44 H 0.4077 0.4378 0.5325
Mn3 Mn 0.58335(9) 0.16583(13) 0.46917(3)
Al3 Al 0.58429(10) 0.29237(18) 0.42197(5)
O11 O 0.6305(3) 0.2605(4) 0.45112(11)
O12 O 0.5908(3) 0.2913(4) 0.51390(13)
O13 O 0.5412(3) 0.2110(4) 0.39449(16)
O14 O 0.5054(2) 0.2563(4) 0.44967(13)
O15 O 0.5442(3) 0.3271(4) 0.39113(14)
O16 O 0.5158(3) 0.3906(4) 0.42477(17)
O17 O 0.5461(3) 0.3586(4) 0.51680(16)
O18 O 0.5751(3) 0.2394(4) 0.33875(16)
O19 O 0.4852(3) 0.1567(5) 0.47166(17)
N5 N 0.5309(4) 0.0614(6) 0.48860(16)
C41 C 0.5513(5) 0.3090(8) 0.5263(2)
C42 C 0.4716(5) 0.2037(8) 0.4655(3)
C43 C 0.5150(5) 0.3620(7) 0.3970(3)
C44 C 0.5384(5) 0.1964(7) 0.3629(3)
C45 C 0.4751(5) 0.0186(7) 0.4647(2)
H45 H 0.4909 0.0260 0.4402
H46 H 0.4398 0.0301 0.4667
C46 C 0.5038(5) 0.0574(7) 0.5251(2)
H47 H 0.4786 0.0811 0.5259
H48 H 0.5406 0.0785 0.5420
C47 C 0.5064(5) 0.2647(8) 0.5564(3)
C48 C 0.5776(5) 0.0339(7) 0.4912(3)
H49 H 0.6171 0.0647 0.5049
H50 H 0.5923 0.0301 0.4675
C49 C 0.4907(6) 0.1279(8) 0.3516(3)
C50 C 0.4775(6) 0.3668(8) 0.3646(3)
C51 C 0.4026(6) 0.1890(9) 0.4798(3)
C52 C 0.4889(7) 0.1027(10) 0.3184(4)
H51 H 0.5176 0.1313 0.3009
C53 C 0.4471(6) 0.0837(8) 0.3771(3)
H52 H 0.4494 0.0985 0.4004
C54 C 0.3829(6) 0.2339(9) 0.4724(3)
H53 H 0.4108 0.2713 0.4585
C55 C 0.5132(6) 0.2117(8) 0.5685(3)
H54 H 0.5449 0.2026 0.5586
C56 C 0.4227(10) 0.1834(16) 0.6088(6)
H55 H 0.3930 0.1542 0.6258
C57 C 0.4519(8) 0.4096(11) 0.3673(4)
H56 H 0.4597 0.4349 0.3879
C58 C 0.3624(7) 0.1325(11) 0.4999(5)
H57 H 0.3765 0.1016 0.5044
C59 C 0.4571(7) 0.2771(10) 0.5699(4)
H58 H 0.4513 0.3118 0.5611
C61 C 0.4712(9) 0.1717(12) 0.5963(4)
H60 H 0.4767 0.1374 0.6060
C62 C 0.4448(9) 0.0344(13) 0.3100(4)
H61 H 0.4448 0.0174 0.2875
C63 C 0.4003(8) 0.0180(11) 0.3686(4)
C64 C 0.3211(8) 0.2265(11) 0.4851(5)
H63 H 0.3070 0.2573 0.4800
C65 C 0.4729(6) 0.3334(8) 0.3324(3)
H64 H 0.4929 0.3069 0.3299
C66 C 0.2987(8) 0.1206(14) 0.5143(6)
H65 H 0.2709 0.0831 0.5281
C67 C 0.4396(9) 0.3407(13) 0.3057(4)
H66 H 0.4350 0.3181 0.2843
C68 C 0.2830(9) 0.1686(15) 0.5059(5)
H67 H 0.2426 0.1626 0.5150
C69 C 0.4153(10) 0.2337(14) 0.5982(5)
H68 H 0.3832 0.2415 0.6089
C70 C 0.4146(11) 0.4159(15) 0.3398(5)
H69 H 0.3935 0.4414 0.3418
C71 C 0.4117(11) 0.3808(14) 0.3091(5)
H70 H 0.3893 0.3851 0.2894
Mn4 Mn 0.83417(13) 0.41752(9) 0.46917(3)
Al4 Al 0.70763(18) 0.29192(15) 0.42197(5)
O20 O 0.7395(4) 0.3700(3) 0.45112(11)
O21 O 0.7087(4) 0.2995(3) 0.51390(13)
O22 O 0.7890(4) 0.3302(3) 0.39449(16)
O23 O 0.7437(4) 0.2491(3) 0.44967(13)
O24 O 0.6729(4) 0.2171(3) 0.39113(14)
O25 O 0.6094(4) 0.1252(3) 0.42477(17)
O26 O 0.6414(4) 0.1875(3) 0.51680(16)
O27 O 0.7606(4) 0.3357(3) 0.33875(16)
O28 O 0.8433(5) 0.3285(4) 0.47166(17)
N7 N 0.9386(6) 0.4695(5) 0.48860(16)
C75 C 0.6910(8) 0.2423(6) 0.5263(2)
C76 C 0.7963(8) 0.2679(6) 0.4655(3)
C77 C 0.6380(7) 0.1530(5) 0.3970(3)
C78 C 0.8036(7) 0.3420(5) 0.3629(3)
C79 C 0.9814(7) 0.4565(5) 0.4647(2)
H77 H 0.9740 0.4649 0.4402
H78 H 0.9699 0.4097 0.4667
C80 C 0.9426(7) 0.4464(5) 0.5251(2)
H79 H 0.9189 0.3975 0.5259
H80 H 0.9215 0.4621 0.5420
C81 C 0.7353(8) 0.2417(6) 0.5564(3)
C82 C 0.9661(7) 0.5437(5) 0.4912(3)
H81 H 0.9353 0.5524 0.5049
H82 H 0.9699 0.5622 0.4675
C83 C 0.8721(8) 0.3628(6) 0.3516(3)
C84 C 0.6332(8) 0.1107(6) 0.3646(3)
C85 C 0.8110(9) 0.2136(7) 0.4798(3)
C86 C 0.8973(10) 0.3862(7) 0.3184(4)
H83 H 0.8687 0.3863 0.3009
C87 C 0.9163(8) 0.3634(6) 0.3771(3)
H84 H 0.9015 0.3509 0.4004
C88 C 0.7661(9) 0.1490(7) 0.4724(3)
H85 H 0.7287 0.1395 0.4585
C89 C 0.7883(8) 0.3015(6) 0.5685(3)
H86 H 0.7974 0.3423 0.5586
C90 C 0.8166(16) 0.2393(12) 0.6088(6)
H87 H 0.8458 0.2388 0.6258
C91 C 0.5904(11) 0.0423(7) 0.3673(4)
H88 H 0.5651 0.0248 0.3879
C92 C 0.8675(11) 0.2299(9) 0.4999(5)
H89 H 0.8984 0.2749 0.5044
C93 C 0.7229(10) 0.1800(7) 0.5699(4)
H90 H 0.6882 0.1395 0.5611
C95 C 0.8283(12) 0.2995(8) 0.5963(4)
H92 H 0.8626 0.3393 0.6060
C96 C 0.9656(13) 0.4104(9) 0.3100(4)
H93 H 0.9826 0.4274 0.2875
C97 C 0.9820(11) 0.3823(8) 0.3686(4)
C98 C 0.7735(11) 0.0946(8) 0.4851(5)
H95 H 0.7427 0.0497 0.4800
C99 C 0.6666(8) 0.1395(6) 0.3324(3)
H96 H 0.6931 0.1860 0.3299
C100 C 0.8794(14) 0.1781(12) 0.5143(6)
H97 H 0.9169 0.1878 0.5281
C101 C 0.6593(13) 0.0989(9) 0.3057(4)
H98 H 0.6819 0.1169 0.2843
C102 C 0.8314(15) 0.1144(12) 0.5059(5)
H99 H 0.8374 0.0800 0.5150
C103 C 0.7663(14) 0.1816(10) 0.5982(5)
H100 H 0.7585 0.1417 0.6089
C105 C 0.6192(14) 0.0309(9) 0.3091(5)
H102 H 0.6149 0.0042 0.2894
Mn5 Mn 0.6667 0.3333 0.15696(5)
Mn6 Mn 0.58248(9) 0.41665(9) 0.03083(3)
Al5 Al 0.6667 0.3333 0.01649(10)
Al6 Al 0.70808(15) 0.41571(10) 0.07803(5)
O29 O 0.6300(3) 0.3695(3) 0.04888(11)
O31 O 0.6698(3) 0.4588(3) 0.10551(16)
O32 O 0.6667 0.3333 0.10351(19)
O33 O 0.7509(3) 0.4946(2) 0.05033(13)
O34 O 0.7829(3) 0.4558(3) 0.10887(14)
O35 O 0.8748(3) 0.4842(3) 0.07523(17)
O37 O 0.6643(3) 0.4249(3) 0.16125(16)
O38 O 0.6715(4) 0.5148(3) 0.02834(17)
C110 C 0.7321(6) 0.5284(5) 0.0345(3)
C111 C 0.8470(5) 0.4850(5) 0.1030(3)
C112 C 0.6580(5) 0.4616(5) 0.1371(3)
C114 C 0.6372(6) 0.5093(6) 0.1484(3)
C115 C 0.8893(6) 0.5225(6) 0.1354(3)
C116 C 0.7864(7) 0.5974(6) 0.0202(3)
C117 C 0.6138(7) 0.5111(7) 0.1816(4)
H109 H 0.6137 0.4824 0.1991
C118 C 0.6366(6) 0.5529(6) 0.1229(3)
H110 H 0.6491 0.5506 0.0996
C119 C 0.8510(7) 0.6171(6) 0.0276(3)
H111 H 0.8605 0.5892 0.0415
C122 C 0.9577(7) 0.5481(8) 0.1327(4)
H114 H 0.9752 0.5403 0.1121
C123 C 0.7701(9) 0.6376(7) 0.0001(5)
C125 C 0.5921(10) 0.5969(8) 0.1645(4)
H117 H 0.5755 0.6256 0.1696
C127 C 0.5896(9) 0.5552(9) 0.1900(4)
H119 H 0.5726 0.5552 0.2125
C128 C 0.6177(8) 0.5997(8) 0.1314(4)
H120 H 0.6223 0.6322 0.1150
C129 C 0.9054(8) 0.6789(8) 0.0149(5)
H121 H 0.9503 0.6930 0.0200
C130 C 0.8605(6) 0.5271(6) 0.1676(3)
H122 H 0.8140 0.5071 0.1701
C132 C 0.9011(9) 0.5604(9) 0.1943(4)
H124 H 0.8831 0.5650 0.2157
C136 C 0.9691(9) 0.5883(11) 0.1909(5)
H128 H 0.9958 0.6107 0.2106
Mn7 Mn 0.58335(9) 0.16583(13) 0.03083(3)
Al7 Al 0.58429(10) 0.29237(18) 0.07803(5)
O39 O 0.6305(3) 0.2605(4) 0.04888(11)
O41 O 0.5412(3) 0.2110(4) 0.10551(16)
O42 O 0.5054(2) 0.2563(4) 0.05033(13)
O43 O 0.5442(3) 0.3271(4) 0.10887(14)
O44 O 0.5158(3) 0.3906(4) 0.07523(17)
O46 O 0.5751(3) 0.2394(4) 0.16125(16)
O47 O 0.4852(3) 0.1567(5) 0.02834(17)
C138 C 0.4716(5) 0.2037(8) 0.0345(3)
C139 C 0.5150(5) 0.3620(7) 0.1030(3)
C140 C 0.5384(5) 0.1964(7) 0.1371(3)
C142 C 0.4907(6) 0.1279(8) 0.1484(3)
C143 C 0.4775(6) 0.3668(8) 0.1354(3)
C144 C 0.4026(6) 0.1890(9) 0.0202(3)
C145 C 0.4889(7) 0.1027(10) 0.1816(4)
H129 H 0.5176 0.1313 0.1991
C146 C 0.4471(6) 0.0837(8) 0.1229(3)
H130 H 0.4494 0.0985 0.0996
C147 C 0.3829(6) 0.2339(9) 0.0276(3)
H131 H 0.4108 0.2713 0.0415
C150 C 0.4519(8) 0.4096(11) 0.1327(4)
H134 H 0.4597 0.4349 0.1121
C151 C 0.3624(7) 0.1325(11) 0.0001(5)
C155 C 0.4448(9) 0.0344(13) 0.1900(4)
H139 H 0.4448 0.0174 0.2125
C156 C 0.4003(8) 0.0180(11) 0.1314(4)
C157 C 0.3211(8) 0.2265(11) 0.0149(5)
H141 H 0.3070 0.2573 0.0200
C158 C 0.4729(6) 0.3334(8) 0.1676(3)
H142 H 0.4929 0.3069 0.1701
C160 C 0.4396(9) 0.3407(13) 0.1943(4)
H144 H 0.4350 0.3181 0.2157
C163 C 0.4146(11) 0.4159(15) 0.1602(5)
H147 H 0.3935 0.4414 0.1582
C164 C 0.4117(11) 0.3808(14) 0.1909(5)
H148 H 0.3893 0.3851 0.2106
Mn8 Mn 0.83417(13) 0.41752(9) 0.03083(3)
Al8 Al 0.70763(18) 0.29192(15) 0.07803(5)
O48 O 0.7395(4) 0.3700(3) 0.04888(11)
O50 O 0.7890(4) 0.3302(3) 0.10551(16)
O51 O 0.7437(4) 0.2491(3) 0.05033(13)
O52 O 0.6729(4) 0.2171(3) 0.10887(14)
O53 O 0.6094(4) 0.1252(3) 0.07523(17)
O55 O 0.7606(4) 0.3357(3) 0.16125(16)
O56 O 0.8433(5) 0.3285(4) 0.02834(17)
C166 C 0.7963(8) 0.2679(6) 0.0345(3)
C167 C 0.6380(7) 0.1530(5) 0.1030(3)
C168 C 0.8036(7) 0.3420(5) 0.1371(3)
C170 C 0.8721(8) 0.3628(6) 0.1484(3)
C171 C 0.6332(8) 0.1107(6) 0.1354(3)
C172 C 0.8110(9) 0.2136(7) 0.0202(3)
C173 C 0.8973(10) 0.3862(7) 0.1816(4)
H149 H 0.8687 0.3863 0.1991
C174 C 0.9163(8) 0.3634(6) 0.1229(3)
H150 H 0.9015 0.3509 0.0996
C175 C 0.7661(9) 0.1490(7) 0.0276(3)
H151 H 0.7287 0.1395 0.0415
C178 C 0.5904(11) 0.0423(7) 0.1327(4)
H154 H 0.5651 0.0248 0.1121
C179 C 0.8675(11) 0.2299(9) 0.0001(5)
C183 C 0.9656(13) 0.4104(9) 0.1900(4)
H159 H 0.9826 0.4274 0.2125
C184 C 0.9820(11) 0.3823(8) 0.1314(4)
C185 C 0.7735(11) 0.0946(8) 0.0149(5)
H161 H 0.7427 0.0497 0.0200
C186 C 0.6666(8) 0.1395(6) 0.1676(3)
H162 H 0.6931 0.1860 0.1701
C188 C 0.6593(13) 0.0989(9) 0.1943(4)
H164 H 0.6819 0.1169 0.2157
C192 C 0.6192(14) 0.0309(9) 0.1909(5)
H168 H 0.6149 0.0042 0.2106
Mn9 Mn 0.41665(9) 0.58248(9) 0.53083(3)
N9 N 0.5305(5) 0.4691(4) 0.01140(16)
N10 N 0.5309(4) 0.0614(6) 0.01140(16)
N11 N 0.9386(6) 0.4695(5) 0.01140(16)
O30 O 0.7005(3) 0.4092(3) 0.98610(13)
O36 O 0.8125(3) 0.4539(3) 0.98320(16)
C109 C 0.7577(6) 0.4487(5) 0.9737(2)
C113 C 0.7583(6) 0.4936(5) 0.9436(3)
C120 C 0.6985(6) 0.4868(6) 0.9315(3)
H112 H 0.6577 0.4551 0.9414
C121 C 0.7607(12) 0.5773(10) 0.8912(6)
H113 H 0.7612 0.6070 0.8742
H115 H 0.7251 0.6235 0.9956
C124 C 0.8200(7) 0.5429(7) 0.9301(4)
H116 H 0.8605 0.5487 0.9389
C126 C 0.7005(8) 0.5288(9) 0.9037(4)
H118 H 0.6607 0.5233 0.8940
C131 C 0.8219(12) 0.7013(8) 0.9857(6)
H123 H 0.8122 0.7291 0.9719
C133 C 0.8856(12) 0.7170(9) 0.9941(5)
H125 H 0.9200 0.7574 0.9850
C134 C 0.8184(10) 0.5847(10) 0.9018(5)
H126 H 0.8583 0.6168 0.8911
O40 O 0.5908(3) 0.2913(4) 0.98610(13)
O45 O 0.5461(3) 0.3586(4) 0.98320(16)
C137 C 0.5513(5) 0.3090(8) 0.9737(2)
C141 C 0.5064(5) 0.2647(8) 0.9436(3)
C148 C 0.5132(6) 0.2117(8) 0.9315(3)
H132 H 0.5449 0.2026 0.9414
C149 C 0.4227(10) 0.1834(16) 0.8912(6)
H133 H 0.3930 0.1542 0.8742
H135 H 0.3765 0.1016 0.9956
C152 C 0.4571(7) 0.2771(10) 0.9301(4)
H136 H 0.4513 0.3118 0.9389
C154 C 0.4712(9) 0.1717(12) 0.9037(4)
H138 H 0.4767 0.1374 0.8940
C159 C 0.2987(8) 0.1206(14) 0.9857(6)
H143 H 0.2709 0.0831 0.9719
C161 C 0.2830(9) 0.1686(15) 0.9941(5)
H145 H 0.2426 0.1626 0.9850
C162 C 0.4153(10) 0.2337(14) 0.9018(5)
H146 H 0.3832 0.2415 0.8911
O49 O 0.7087(4) 0.2995(3) 0.98610(13)
O54 O 0.6414(4) 0.1875(3) 0.98320(16)
C165 C 0.6910(8) 0.2423(6) 0.9737(2)
C169 C 0.7353(8) 0.2417(6) 0.9436(3)
C176 C 0.7883(8) 0.3015(6) 0.9315(3)
H152 H 0.7974 0.3423 0.9414
C177 C 0.8166(16) 0.2393(12) 0.8912(6)
H153 H 0.8458 0.2388 0.8742
H155 H 0.8984 0.2749 0.9956
C180 C 0.7229(10) 0.1800(7) 0.9301(4)
H156 H 0.6882 0.1395 0.9389
C182 C 0.8283(12) 0.2995(8) 0.9037(4)
H158 H 0.8626 0.3393 0.8940
C187 C 0.8794(14) 0.1781(12) 0.9857(6)
H163 H 0.9169 0.1878 0.9719
C189 C 0.8314(15) 0.1144(12) 0.9941(5)
H165 H 0.8374 0.0800 0.9850
C190 C 0.7663(14) 0.1816(10) 0.9018(5)
H166 H 0.7585 0.1417 0.8911
C60 C 0.4031(8) 0.9952(13) 0.3355(4)
H59 H 0.3744 0.9499 0.3304
H62 H 0.3678 0.9901 0.3850
N6 N 0.4695(5) 0.9386(6) 0.51140(16)
C72 C 0.4565(5) 0.9814(7) 0.5353(2)
H71 H 0.4649 0.9740 0.5598
H72 H 0.4097 0.9699 0.5333
C73 C 0.4464(5) 0.9426(7) 0.4749(2)
H73 H 0.3975 0.9189 0.4741
H74 H 0.4621 0.9215 0.4580
C74 C 0.5437(5) 0.9661(7) 0.5088(3)
H75 H 0.5524 0.9353 0.4951
H76 H 0.5622 0.9699 0.5325
C104 C 0.5841(15) 0.9987(10) 0.3398(5)
H101 H 0.5586 0.9521 0.3418
C153 C 0.4031(8) 0.9952(13) 0.1645(4)
H137 H 0.3744 0.9499 0.1696
H140 H 0.3678 0.9901 0.1150
C191 C 0.5841(15) 0.9987(10) 0.1602(5)
H167 H 0.5586 0.9521 0.1582
Mn11 Mn 0.41752(9) 0.83417(13) 0.53083(3)
C107_2 C 0.0574(7) 0.5038(5) 0.0251(2)
H105_2 H 0.0811 0.4786 0.0259
H106_2 H 0.0785 0.5406 0.0420
H107_2 H 0.0647 0.6171 0.0049
N8_2 N 0.0614(6) 0.5309(4) 0.98860(16)
C106_2 C 0.0186(7) 0.4751(5) 0.9647(2)
H103_2 H 0.0260 0.4909 0.9402
H104_2 H 0.0301 0.4398 0.9667
C108_2 C 0.0339(7) 0.5776(5) 0.9912(3)
H108_2 H 0.0301 0.5923 0.9675
Mn10_2 Mn 0.16583(13) 0.58335(9) 0.96917(3)
C5_2 C 0.5435(5) 0.5249(5) 0.0353(2)
H1_2 H 0.5351 0.5091 0.0598
H2_2 H 0.5903 0.5602 0.0333
C8_2 C 0.4563(5) 0.4224(5) 0.0088(3)
H6_2 H 0.4378 0.4077 0.0325
C39_2 C 0.4962(5) 0.5536(5) 0.0251(2)
H41_2 H 0.5214 0.6025 0.0259
H42_2 H 0.4594 0.5379 0.0420
H43_2 H 0.3829 0.4476 0.0049
C45_2 C 0.4751(5) 0.0186(7) 0.0353(2)
H45_2 H 0.4909 0.0260 0.0598
H46_2 H 0.4398 0.0301 0.0333
C48_2 C 0.5776(5) 0.0339(7) 0.0088(3)
H50_2 H 0.5923 0.0301 0.0325
C79_2 C 0.9814(7) 0.4565(5) 0.0353(2)
H77_2 H 0.9740 0.4649 0.0598
H78_2 H 0.9699 0.4097 0.0333
C82_2 C 0.9661(7) 0.5437(5) 0.0088(3)
H82_2 H 0.9699 0.5622 0.0325
C6_2 C 0.5536(5) 0.4962(5) 0.9749(2)
H3_2 H 0.6025 0.5214 0.9741
H4_2 H 0.5379 0.4594 0.9580
H5_2 H 0.4476 0.3829 0.9951
N4_2 N 0.4691(4) 0.5305(5) 0.98860(16)
C38_2 C 0.5249(5) 0.5435(5) 0.9647(2)
H39_2 H 0.5091 0.5351 0.9402
H40_2 H 0.5602 0.5903 0.9667
C40_2 C 0.4224(5) 0.4563(5) 0.9912(3)
H44_2 H 0.4077 0.4378 0.9675
C46_2 C 0.5038(5) 0.0574(7) 0.9749(2)
H47_2 H 0.4786 0.0811 0.9741
H48_2 H 0.5406 0.0785 0.9580
H49_2 H 0.6171 0.0647 0.9951
C80_2 C 0.9426(7) 0.4464(5) 0.9749(2)
H79_2 H 0.9189 0.3975 0.9741
H80_2 H 0.9215 0.4621 0.9580
H81_2 H 0.9353 0.5524 0.9951
Mn9_2 Mn 0.41665(9) 0.58248(9) 0.96917(3)
C73_2 C 0.4464(5) 0.9426(7) 0.0251(2)
H73_2 H 0.3975 0.9189 0.0259
H74_2 H 0.4621 0.9215 0.0420
H75_2 H 0.5524 0.9353 0.0049
N6_2 N 0.4695(5) 0.9386(6) 0.98860(16)
C72_2 C 0.4565(5) 0.9814(7) 0.9647(2)
H71_2 H 0.4649 0.9740 0.9402
H72_2 H 0.4097 0.9699 0.9667
C74_2 C 0.5437(5) 0.9661(7) 0.9912(3)
H76_2 H 0.5622 0.9699 0.9675
Mn11_2 Mn 0.41752(9) 0.83417(13) 0.96917(3)
C31_2 C 0.5854(11) 0.0013(10) 0.6602(5)
H27_2 H 0.6065 0.0479 0.6582
C94_2 C 0.4079(10) 0.0048(13) 0.6645(4)
H91_2 H 0.4245 0.0501 0.6696
H94_2 H 0.3777 0.0099 0.6150
C135_2 C 0.5854(11) 0.0013(10) 0.8398(5)
H127_2 H 0.6065 0.0479 0.8418
C181_2 C 0.4079(10) 0.0048(13) 0.8355(4)
H157_2 H 0.4245 0.0501 0.8304
H160_2 H 0.3777 0.0099 0.8850
O30_2 O 0.4092(3) 0.7005(3) 0.01390(13)
O36_2 O 0.4539(3) 0.8125(3) 0.01680(16)
C109_2 C 0.4487(5) 0.7577(6) 0.0263(2)
C113_2 C 0.4936(5) 0.7583(6) 0.0564(3)
C120_2 C 0.4868(6) 0.6985(6) 0.0685(3)
H112_2 H 0.4551 0.6577 0.0586
C121_2 C 0.5773(10) 0.7607(12) 0.1088(6)
H113_2 H 0.6070 0.7612 0.1258
H115_2 H 0.6235 0.7251 0.0044
C124_2 C 0.5429(7) 0.8200(7) 0.0699(4)
H116_2 H 0.5487 0.8605 0.0611
C126_2 C 0.5288(9) 0.7005(8) 0.0963(4)
H118_2 H 0.5233 0.6607 0.1060
C131_2 C 0.7013(8) 0.8219(12) 0.0143(6)
H123_2 H 0.7291 0.8122 0.0281
C133_2 C 0.7170(9) 0.8856(12) 0.0059(5)
H125_2 H 0.7574 0.9200 0.0150
C134_2 C 0.5847(10) 0.8184(10) 0.0982(5)
H126_2 H 0.6168 0.8583 0.1089
O40_2 O 0.2913(4) 0.5908(3) 0.01390(13)
O45_2 O 0.3586(4) 0.5461(3) 0.01680(16)
C137_2 C 0.3090(8) 0.5513(5) 0.0263(2)
C141_2 C 0.2647(8) 0.5064(5) 0.0564(3)
C148_2 C 0.2117(8) 0.5132(6) 0.0685(3)
H132_2 H 0.2026 0.5449 0.0586
C149_2 C 0.1834(16) 0.4227(10) 0.1088(6)
H133_2 H 0.1542 0.3930 0.1258
H135_2 H 0.1016 0.3765 0.0044
C152_2 C 0.2771(10) 0.4571(7) 0.0699(4)
H136_2 H 0.3118 0.4513 0.0611
C154_2 C 0.1717(12) 0.4712(9) 0.0963(4)
H138_2 H 0.1374 0.4767 0.1060
C159_2 C 0.1206(14) 0.2987(8) 0.0143(6)
H143_2 H 0.0831 0.2709 0.0281
C161_2 C 0.1686(15) 0.2830(9) 0.0059(5)
H145_2 H 0.1626 0.2426 0.0150
C162_2 C 0.2337(14) 0.4153(10) 0.0982(5)
H146_2 H 0.2415 0.3832 0.1089
O49_2 O 0.2995(3) 0.7087(4) 0.01390(13)
O54_2 O 0.1875(3) 0.6414(4) 0.01680(16)
C165_2 C 0.2423(6) 0.6910(8) 0.0263(2)
C169_2 C 0.2417(6) 0.7353(8) 0.0564(3)
C176_2 C 0.3015(6) 0.7883(8) 0.0685(3)
H152_2 H 0.3423 0.7974 0.0586
C177_2 C 0.2393(12) 0.8166(16) 0.1088(6)
H153_2 H 0.2388 0.8458 0.1258
H155_2 H 0.2749 0.8984 0.0044
C180_2 C 0.1800(7) 0.7229(10) 0.0699(4)
H156_2 H 0.1395 0.6882 0.0611
C182_2 C 0.2995(8) 0.8283(12) 0.0963(4)
H158_2 H 0.3393 0.8626 0.1060
C187_2 C 0.1781(12) 0.8794(14) 0.0143(6)
H163_2 H 0.1878 0.9169 0.0281
C189_2 C 0.1144(12) 0.8314(15) 0.0059(5)
H165_2 H 0.0800 0.8374 0.0150
C190_2 C 0.1816(10) 0.7663(14) 0.0982(5)
H166_2 H 0.1417 0.7585 0.1089
Mn1_2 Mn 0.3333 0.6667 0.65696(5)
Al1_2 Al 0.3333 0.6667 0.51649(10)
Al2_2 Al 0.41571(10) 0.70808(15) 0.57803(5)
O1_2 O 0.3695(3) 0.6300(3) 0.54888(11)
O2_2 O 0.4092(3) 0.7005(3) 0.48610(13)
O3_2 O 0.4588(3) 0.6698(3) 0.60551(16)
O4_2 O 0.3333 0.6667 0.60351(19)
O5_2 O 0.4946(2) 0.7509(3) 0.55033(13)
O6_2 O 0.4558(3) 0.7829(3) 0.60887(14)
O7_2 O 0.4842(3) 0.8748(3) 0.57523(17)
O8_2 O 0.4539(3) 0.8125(3) 0.48320(16)
O9_2 O 0.4249(3) 0.6643(3) 0.66125(16)
O10_2 O 0.5148(3) 0.6715(4) 0.52834(17)
N1_2 N 0.3333 0.6667 0.7156(3)
C1_2 C 0.4487(5) 0.7577(6) 0.4737(2)
C2_2 C 0.5284(5) 0.7321(6) 0.5345(3)
C3_2 C 0.4850(5) 0.8470(5) 0.6030(3)
C4_2 C 0.4616(5) 0.6580(5) 0.6371(3)
C7_2 C 0.4936(5) 0.7583(6) 0.4436(3)
C9_2 C 0.5093(6) 0.6372(6) 0.6484(3)
C10_2 C 0.5225(6) 0.8893(6) 0.6354(3)
C11_2 C 0.3274(5) 0.6033(5) 0.7297(2)
H7_2 H 0.3648 0.5987 0.7211
H8_2 H 0.2860 0.5651 0.7211
C12_2 C 0.5974(6) 0.7864(7) 0.5202(3)
C13_2 C 0.5111(7) 0.6138(7) 0.6816(4)
H9_2 H 0.4824 0.6137 0.6991
C14_2 C 0.5529(6) 0.6366(6) 0.6229(3)
H10_2 H 0.5506 0.6491 0.5996
C15_2 C 0.6171(6) 0.8510(7) 0.5276(3)
H11_2 H 0.5892 0.8605 0.5415
C16_2 C 0.4868(6) 0.6985(6) 0.4315(3)
H12_2 H 0.4551 0.6577 0.4414
C17_2 C 0.5773(10) 0.7607(12) 0.3912(6)
H13_2 H 0.6070 0.7612 0.3742
C18_2 C 0.5481(8) 0.9577(7) 0.6327(4)
H14_2 H 0.5403 0.9752 0.6121
C19_2 C 0.6376(7) 0.7701(9) 0.5001(5)
H15_2 H 0.6235 0.7251 0.4956
C20_2 C 0.5429(7) 0.8200(7) 0.4301(4)
H16_2 H 0.5487 0.8605 0.4389
C21_2 C 0.5969(8) 0.5921(10) 0.6645(4)
H17_2 H 0.6256 0.5755 0.6696
C22_2 C 0.5288(9) 0.7005(8) 0.4037(4)
H18_2 H 0.5233 0.6607 0.3940
C23_2 C 0.5552(9) 0.5896(9) 0.6900(4)
H19_2 H 0.5552 0.5726 0.7125
C24_2 C 0.5997(8) 0.6177(8) 0.6314(4)
H20_2 H 0.6322 0.6223 0.6150
C25_2 C 0.6789(8) 0.9054(8) 0.5149(5)
H21_2 H 0.6930 0.9503 0.5200
C26_2 C 0.5271(6) 0.8605(6) 0.6676(3)
H22_2 H 0.5071 0.8140 0.6701
C27_2 C 0.7013(8) 0.8219(12) 0.4857(6)
H23_2 H 0.7291 0.8122 0.4719
C28_2 C 0.5604(9) 0.9011(9) 0.6943(4)
H24_2 H 0.5650 0.8831 0.7157
C29_2 C 0.7170(9) 0.8856(12) 0.4941(5)
H25_2 H 0.7574 0.9200 0.4850
C30_2 C 0.5847(10) 0.8184(10) 0.4018(5)
H26_2 H 0.6168 0.8583 0.3911
C32_2 C 0.5883(11) 0.9691(9) 0.6909(5)
H28_2 H 0.6107 0.9958 0.7106
C33_2 C 0.2759(7) 0.6726(5) 0.7297(2)
H29_2 H 0.2339 0.6352 0.7211
H30_2 H 0.2791 0.7140 0.7211
C34_2 C 0.3967(5) 0.7241(7) 0.7297(2)
H31_2 H 0.4013 0.7661 0.7211
H32_2 H 0.4349 0.7209 0.7211
N3_2 N 0.3333 0.6667 0.7844(3)
C35_2 C 0.3274(5) 0.6033(5) 0.7703(2)
H33_2 H 0.3648 0.5987 0.7789
H34_2 H 0.2860 0.5651 0.7789
C36_2 C 0.2759(7) 0.6726(5) 0.7703(2)
H35_2 H 0.2339 0.6352 0.7789
H36_2 H 0.2791 0.7140 0.7789
C37_2 C 0.3967(5) 0.7241(7) 0.7703(2)
H37_2 H 0.4013 0.7661 0.7789
H38_2 H 0.4349 0.7209 0.7789
Al3_2 Al 0.29237(18) 0.58429(10) 0.57803(5)
O11_2 O 0.2605(4) 0.6305(3) 0.54888(11)
O12_2 O 0.2913(4) 0.5908(3) 0.48610(13)
O13_2 O 0.2110(4) 0.5412(3) 0.60551(16)
O14_2 O 0.2563(4) 0.5054(2) 0.55033(13)
O15_2 O 0.3271(4) 0.5442(3) 0.60887(14)
O16_2 O 0.3906(4) 0.5158(3) 0.57523(17)
O17_2 O 0.3586(4) 0.5461(3) 0.48320(16)
O18_2 O 0.2394(4) 0.5751(3) 0.66125(16)
O19_2 O 0.1567(5) 0.4852(3) 0.52834(17)
C41_2 C 0.3090(8) 0.5513(5) 0.4737(2)
C42_2 C 0.2037(8) 0.4716(5) 0.5345(3)
C43_2 C 0.3620(7) 0.5150(5) 0.6030(3)
C44_2 C 0.1964(7) 0.5384(5) 0.6371(3)
C47_2 C 0.2647(8) 0.5064(5) 0.4436(3)
C49_2 C 0.1279(8) 0.4907(6) 0.6484(3)
C50_2 C 0.3668(8) 0.4775(6) 0.6354(3)
C51_2 C 0.1890(9) 0.4026(6) 0.5202(3)
C52_2 C 0.1027(10) 0.4889(7) 0.6816(4)
H51_2 H 0.1313 0.5176 0.6991
C53_2 C 0.0837(8) 0.4471(6) 0.6229(3)
H52_2 H 0.0985 0.4494 0.5996
C54_2 C 0.2339(9) 0.3829(6) 0.5276(3)
H53_2 H 0.2713 0.4108 0.5415
C55_2 C 0.2117(8) 0.5132(6) 0.4315(3)
H54_2 H 0.2026 0.5449 0.4414
C56_2 C 0.1834(16) 0.4227(10) 0.3912(6)
H55_2 H 0.1542 0.3930 0.3742
C57_2 C 0.4096(11) 0.4519(8) 0.6327(4)
H56_2 H 0.4349 0.4597 0.6121
C58_2 C 0.1325(11) 0.3624(7) 0.5001(5)
H57_2 H 0.1016 0.3765 0.4956
C59_2 C 0.2771(10) 0.4571(7) 0.4301(4)
H58_2 H 0.3118 0.4513 0.4389
C61_2 C 0.1717(12) 0.4712(9) 0.4037(4)
H60_2 H 0.1374 0.4767 0.3940
C62_2 C 0.0344(13) 0.4448(9) 0.6900(4)
H61_2 H 0.0174 0.4448 0.7125
C63_2 C 0.0180(11) 0.4003(8) 0.6314(4)
C64_2 C 0.2265(11) 0.3211(8) 0.5149(5)
H63_2 H 0.2573 0.3070 0.5200
C65_2 C 0.3334(8) 0.4729(6) 0.6676(3)
H64_2 H 0.3069 0.4929 0.6701
C66_2 C 0.1206(14) 0.2987(8) 0.4857(6)
H65_2 H 0.0831 0.2709 0.4719
C67_2 C 0.3407(13) 0.4396(9) 0.6943(4)
H66_2 H 0.3181 0.4350 0.7157
C68_2 C 0.1686(15) 0.2830(9) 0.4941(5)
H67_2 H 0.1626 0.2426 0.4850
C69_2 C 0.2337(14) 0.4153(10) 0.4018(5)
H68_2 H 0.2415 0.3832 0.3911
C70_2 C 0.4159(15) 0.4146(11) 0.6602(5)
H69_2 H 0.4414 0.3935 0.6582
C71_2 C 0.3808(14) 0.4117(11) 0.6909(5)
H70_2 H 0.3851 0.3893 0.7106
Al4_2 Al 0.29192(15) 0.70763(18) 0.57803(5)
O20_2 O 0.3700(3) 0.7395(4) 0.54888(11)
O21_2 O 0.2995(3) 0.7087(4) 0.48610(13)
O22_2 O 0.3302(3) 0.7890(4) 0.60551(16)
O23_2 O 0.2491(3) 0.7437(4) 0.55033(13)
O24_2 O 0.2171(3) 0.6729(4) 0.60887(14)
O25_2 O 0.1252(3) 0.6094(4) 0.57523(17)
O26_2 O 0.1875(3) 0.6414(4) 0.48320(16)
O27_2 O 0.3357(3) 0.7606(4) 0.66125(16)
O28_2 O 0.3285(4) 0.8433(5) 0.52834(17)
C75_2 C 0.2423(6) 0.6910(8) 0.4737(2)
C76_2 C 0.2679(6) 0.7963(8) 0.5345(3)
C77_2 C 0.1530(5) 0.6380(7) 0.6030(3)
C78_2 C 0.3420(5) 0.8036(7) 0.6371(3)
C81_2 C 0.2417(6) 0.7353(8) 0.4436(3)
C83_2 C 0.3628(6) 0.8721(8) 0.6484(3)
C84_2 C 0.1107(6) 0.6332(8) 0.6354(3)
C85_2 C 0.2136(7) 0.8110(9) 0.5202(3)
C86_2 C 0.3862(7) 0.8973(10) 0.6816(4)
H83_2 H 0.3863 0.8687 0.6991
C87_2 C 0.3634(6) 0.9163(8) 0.6229(3)
H84_2 H 0.3509 0.9015 0.5996
C88_2 C 0.1490(7) 0.7661(9) 0.5276(3)
H85_2 H 0.1395 0.7287 0.5415
C89_2 C 0.3015(6) 0.7883(8) 0.4315(3)
H86_2 H 0.3423 0.7974 0.4414
C90_2 C 0.2393(12) 0.8166(16) 0.3912(6)
H87_2 H 0.2388 0.8458 0.3742
C91_2 C 0.0423(7) 0.5904(11) 0.6327(4)
H88_2 H 0.0248 0.5651 0.6121
C92_2 C 0.2299(9) 0.8675(11) 0.5001(5)
H89_2 H 0.2749 0.8984 0.4956
C93_2 C 0.1800(7) 0.7229(10) 0.4301(4)
H90_2 H 0.1395 0.6882 0.4389
C95_2 C 0.2995(8) 0.8283(12) 0.4037(4)
H92_2 H 0.3393 0.8626 0.3940
C96_2 C 0.4104(9) 0.9656(13) 0.6900(4)
H93_2 H 0.4274 0.9826 0.7125
C97_2 C 0.3823(8) 0.9820(11) 0.6314(4)
C98_2 C 0.0946(8) 0.7735(11) 0.5149(5)
H95_2 H 0.0497 0.7427 0.5200
C99_2 C 0.1395(6) 0.6666(8) 0.6676(3)
H96_2 H 0.1860 0.6931 0.6701
C100_2 C 0.1781(12) 0.8794(14) 0.4857(6)
H97_2 H 0.1878 0.9169 0.4719
C101_2 C 0.0989(9) 0.6593(13) 0.6943(4)
H98_2 H 0.1169 0.6819 0.7157
C102_2 C 0.1144(12) 0.8314(15) 0.4941(5)
H99_2 H 0.0800 0.8374 0.4850
C103_2 C 0.1816(10) 0.7663(14) 0.4018(5)
H100_2 H 0.1417 0.7585 0.3911
C105_2 C 0.0309(9) 0.6192(14) 0.6909(5)
H102_2 H 0.0042 0.6149 0.7106
Mn5_2 Mn 0.3333 0.6667 0.84304(5)
Al5_2 Al 0.3333 0.6667 0.98351(10)
Al6_2 Al 0.41571(10) 0.70808(15) 0.92197(5)
O29_2 O 0.3695(3) 0.6300(3) 0.95112(11)
O31_2 O 0.4588(3) 0.6698(3) 0.89449(16)
O32_2 O 0.3333 0.6667 0.89649(19)
O33_2 O 0.4946(2) 0.7509(3) 0.94967(13)
O34_2 O 0.4558(3) 0.7829(3) 0.89113(14)
O35_2 O 0.4842(3) 0.8748(3) 0.92477(17)
O37_2 O 0.4249(3) 0.6643(3) 0.83875(16)
O38_2 O 0.5148(3) 0.6715(4) 0.97166(17)
C110_2 C 0.5284(5) 0.7321(6) 0.9655(3)
C111_2 C 0.4850(5) 0.8470(5) 0.8970(3)
C112_2 C 0.4616(5) 0.6580(5) 0.8629(3)
C114_2 C 0.5093(6) 0.6372(6) 0.8516(3)
C115_2 C 0.5225(6) 0.8893(6) 0.8646(3)
C116_2 C 0.5974(6) 0.7864(7) 0.9798(3)
C117_2 C 0.5111(7) 0.6138(7) 0.8184(4)
H109_2 H 0.4824 0.6137 0.8009
C118_2 C 0.5529(6) 0.6366(6) 0.8771(3)
H110_2 H 0.5506 0.6491 0.9004
C119_2 C 0.6171(6) 0.8510(7) 0.9724(3)
H111_2 H 0.5892 0.8605 0.9585
C122_2 C 0.5481(8) 0.9577(7) 0.8673(4)
H114_2 H 0.5403 0.9752 0.8879
C123_2 C 0.6376(7) 0.7701(9) 0.9999(5)
C125_2 C 0.5969(8) 0.5921(10) 0.8355(4)
H117_2 H 0.6256 0.5755 0.8304
C127_2 C 0.5552(9) 0.5896(9) 0.8100(4)
H119_2 H 0.5552 0.5726 0.7875
C128_2 C 0.5997(8) 0.6177(8) 0.8686(4)
H120_2 H 0.6322 0.6223 0.8850
C129_2 C 0.6789(8) 0.9054(8) 0.9851(5)
H121_2 H 0.6930 0.9503 0.9800
C130_2 C 0.5271(6) 0.8605(6) 0.8324(3)
H122_2 H 0.5071 0.8140 0.8299
C132_2 C 0.5604(9) 0.9011(9) 0.8057(4)
H124_2 H 0.5650 0.8831 0.7843
C136_2 C 0.5883(11) 0.9691(9) 0.8091(5)
H128_2 H 0.6107 0.9958 0.7894
Al7_2 Al 0.29237(18) 0.58429(10) 0.92197(5)
O39_2 O 0.2605(4) 0.6305(3) 0.95112(11)
O41_2 O 0.2110(4) 0.5412(3) 0.89449(16)
O42_2 O 0.2563(4) 0.5054(2) 0.94967(13)
O43_2 O 0.3271(4) 0.5442(3) 0.89113(14)
O44_2 O 0.3906(4) 0.5158(3) 0.92477(17)
O46_2 O 0.2394(4) 0.5751(3) 0.83875(16)
O47_2 O 0.1567(5) 0.4852(3) 0.97166(17)
C138_2 C 0.2037(8) 0.4716(5) 0.9655(3)
C139_2 C 0.3620(7) 0.5150(5) 0.8970(3)
C140_2 C 0.1964(7) 0.5384(5) 0.8629(3)
C142_2 C 0.1279(8) 0.4907(6) 0.8516(3)
C143_2 C 0.3668(8) 0.4775(6) 0.8646(3)
C144_2 C 0.1890(9) 0.4026(6) 0.9798(3)
C145_2 C 0.1027(10) 0.4889(7) 0.8184(4)
H129_2 H 0.1313 0.5176 0.8009
C146_2 C 0.0837(8) 0.4471(6) 0.8771(3)
H130_2 H 0.0985 0.4494 0.9004
C147_2 C 0.2339(9) 0.3829(6) 0.9724(3)
H131_2 H 0.2713 0.4108 0.9585
C150_2 C 0.4096(11) 0.4519(8) 0.8673(4)
H134_2 H 0.4349 0.4597 0.8879
C151_2 C 0.1325(11) 0.3624(7) 0.9999(5)
C155_2 C 0.0344(13) 0.4448(9) 0.8100(4)
H139_2 H 0.0174 0.4448 0.7875
C156_2 C 0.0180(11) 0.4003(8) 0.8686(4)
C157_2 C 0.2265(11) 0.3211(8) 0.9851(5)
H141_2 H 0.2573 0.3070 0.9800
C158_2 C 0.3334(8) 0.4729(6) 0.8324(3)
H142_2 H 0.3069 0.4929 0.8299
C160_2 C 0.3407(13) 0.4396(9) 0.8057(4)
H144_2 H 0.3181 0.4350 0.7843
C163_2 C 0.4159(15) 0.4146(11) 0.8398(5)
H147_2 H 0.4414 0.3935 0.8418
C164_2 C 0.3808(14) 0.4117(11) 0.8091(5)
H148_2 H 0.3851 0.3893 0.7894
Al8_2 Al 0.29192(15) 0.70763(18) 0.92197(5)
O48_2 O 0.3700(3) 0.7395(4) 0.95112(11)
O50_2 O 0.3302(3) 0.7890(4) 0.89449(16)
O51_2 O 0.2491(3) 0.7437(4) 0.94967(13)
O52_2 O 0.2171(3) 0.6729(4) 0.89113(14)
O53_2 O 0.1252(3) 0.6094(4) 0.92477(17)
O55_2 O 0.3357(3) 0.7606(4) 0.83875(16)
O56_2 O 0.3285(4) 0.8433(5) 0.97166(17)
C166_2 C 0.2679(6) 0.7963(8) 0.9655(3)
C167_2 C 0.1530(5) 0.6380(7) 0.8970(3)
C168_2 C 0.3420(5) 0.8036(7) 0.8629(3)
C170_2 C 0.3628(6) 0.8721(8) 0.8516(3)
C171_2 C 0.1107(6) 0.6332(8) 0.8646(3)
C172_2 C 0.2136(7) 0.8110(9) 0.9798(3)
C173_2 C 0.3862(7) 0.8973(10) 0.8184(4)
H149_2 H 0.3863 0.8687 0.8009
C174_2 C 0.3634(6) 0.9163(8) 0.8771(3)
H150_2 H 0.3509 0.9015 0.9004
C175_2 C 0.1490(7) 0.7661(9) 0.9724(3)
H151_2 H 0.1395 0.7287 0.9585
C178_2 C 0.0423(7) 0.5904(11) 0.8673(4)
H154_2 H 0.0248 0.5651 0.8879
C179_2 C 0.2299(9) 0.8675(11) 0.9999(5)
C183_2 C 0.4104(9) 0.9656(13) 0.8100(4)
H159_2 H 0.4274 0.9826 0.7875
C184_2 C 0.3823(8) 0.9820(11) 0.8686(4)
C185_2 C 0.0946(8) 0.7735(11) 0.9851(5)
H161_2 H 0.0497 0.7427 0.9800
C186_2 C 0.1395(6) 0.6666(8) 0.8324(3)
H162_2 H 0.1860 0.6931 0.8299
C188_2 C 0.0989(9) 0.6593(13) 0.8057(4)
H164_2 H 0.1169 0.6819 0.7843
C192_2 C 0.0309(9) 0.6192(14) 0.8091(5)
H168_2 H 0.0042 0.6149 0.7894
C60_2 C 0.9952(13) 0.4031(8) 0.6645(4)
H59_2 H 0.9499 0.3744 0.6696
H62_2 H 0.9901 0.3678 0.6150
C104_2 C 0.9987(10) 0.5841(15) 0.6602(5)
H101_2 H 0.9521 0.5586 0.6582
C153_2 C 0.9952(13) 0.4031(8) 0.8355(4)
H137_2 H 0.9499 0.3744 0.8304
H140_2 H 0.9901 0.3678 0.8850
C191_2 C 0.9987(10) 0.5841(15) 0.8398(5)
H167_2 H 0.9521 0.5586 0.8418
loop_
_geom_bond_atom_site_label_1
_geom_bond_atom_site_label_2
_geom_bond_site_symmetry_1
_geom_bond_site_symmetry_2
H27 C31 1_555 1_555
C94 H91 1_555 1_555
N8 C106 1_555 1_555
H103 C106 1_555 1_555
H104 C106 1_555 1_555
H105 C107 1_555 1_555
H106 C107 1_555 1_555
H107 C108 1_555 1_555
H108 C108 1_555 1_555
H127 C135 1_555 1_555
C181 H157 1_555 1_555
Mn10 N8 1_555 1_555
N8 C107 1_555 1_555
N8 C108 1_555 1_555
Mn1 O4 1_555 1_555
Mn2 O1 1_555 1_555
Al1 O1 1_555 1_555
Al2 O1 1_555 1_555
O1 Al3 1_555 1_555
O2 Al1 1_555 1_555
O3 Al2 1_555 1_555
O4 Al2 1_555 1_555
O5 Al2 1_555 1_555
O6 Al2 1_555 1_555
O7 C3 1_555 1_555
O8 C1 1_555 1_555
O9 Mn1 1_555 1_555
O10 Mn2 1_555 1_555
N1 Mn1 1_555 1_555
N2 Mn2 1_555 1_555
C1 O2 1_555 1_555
C2 O5 1_555 1_555
C3 O6 1_555 1_555
C4 O3 1_555 1_555
C5 N2 1_555 1_555
H1 C5 1_555 1_555
H2 C5 1_555 1_555
C6 N2 1_555 1_555
H3 C6 1_555 1_555
H4 C6 1_555 1_555
C7 C1 1_555 1_555
C8 N2 1_555 1_555
H5 C8 1_555 1_555
H6 C8 1_555 1_555
C9 C4 1_555 1_555
C10 C3 1_555 1_555
C11 N1 1_555 1_555
H7 C11 1_555 1_555
H8 C11 1_555 1_555
C12 C2 1_555 1_555
C13 C9 1_555 1_555
H9 C13 1_555 1_555
C14 C9 1_555 1_555
H10 C14 1_555 1_555
C15 C12 1_555 1_555
H11 C15 1_555 1_555
C16 C7 1_555 1_555
H12 C16 1_555 1_555
C17 H13 1_555 1_555
C18 C10 1_555 1_555
H14 C18 1_555 1_555
C19 C12 1_555 1_555
H15 C19 1_555 1_555
C20 C7 1_555 1_555
H16 C20 1_555 1_555
C21 H17 1_555 1_555
C22 C16 1_555 1_555
H18 C22 1_555 1_555
C23 C13 1_555 1_555
H19 C23 1_555 1_555
C24 C14 1_555 1_555
H20 C24 1_555 1_555
C25 C15 1_555 1_555
H21 C25 1_555 1_555
C26 C10 1_555 1_555
H22 C26 1_555 1_555
C27 C19 1_555 1_555
H23 C27 1_555 1_555
C28 C26 1_555 1_555
H24 C28 1_555 1_555
C29 C25 1_555 1_555
H25 C29 1_555 1_555
C30 C17 1_555 1_555
H26 C30 1_555 1_555
C32 C28 1_555 1_555
H28 C32 1_555 1_555
C33 N1 1_555 1_555
H29 C33 1_555 1_555
H30 C33 1_555 1_555
C34 N1 1_555 1_555
H31 C34 1_555 1_555
H32 C34 1_555 1_555
N3 C35 1_555 1_555
C35 C11 1_555 1_555
H33 C35 1_555 1_555
H34 C35 1_555 1_555
C36 C33 1_555 1_555
H35 C36 1_555 1_555
H36 C36 1_555 1_555
C37 C34 1_555 1_555
H37 C37 1_555 1_555
H38 C37 1_555 1_555
N4 C38 1_555 1_555
C38 C6 1_555 1_555
H39 C38 1_555 1_555
H40 C38 1_555 1_555
C39 C5 1_555 1_555
H41 C39 1_555 1_555
H42 C39 1_555 1_555
C40 C8 1_555 1_555
H43 C40 1_555 1_555
H44 C40 1_555 1_555
Mn3 O11 1_555 1_555
Al3 O4 1_555 1_555
O11 Al1 1_555 1_555
O12 Al1 1_555 1_555
O13 Al3 1_555 1_555
O14 Al3 1_555 1_555
O15 Al3 1_555 1_555
O16 Mn2 1_555 1_555
O17 Mn2 1_555 1_555
O18 Mn1 1_555 1_555
O19 Mn3 1_555 1_555
N5 Mn3 1_555 1_555
C41 O12 1_555 1_555
C42 O14 1_555 1_555
C43 O15 1_555 1_555
C44 O13 1_555 1_555
C45 N5 1_555 1_555
H45 C45 1_555 1_555
H46 C45 1_555 1_555
C46 N5 1_555 1_555
H47 C46 1_555 1_555
H48 C46 1_555 1_555
C47 C41 1_555 1_555
C48 N5 1_555 1_555
H49 C48 1_555 1_555
H50 C48 1_555 1_555
C49 C44 1_555 1_555
C50 C43 1_555 1_555
C51 C42 1_555 1_555
C52 C49 1_555 1_555
H51 C52 1_555 1_555
C53 C49 1_555 1_555
H52 C53 1_555 1_555
C54 C51 1_555 1_555
H53 C54 1_555 1_555
C55 C47 1_555 1_555
H54 C55 1_555 1_555
C56 H55 1_555 1_555
C57 C50 1_555 1_555
H56 C57 1_555 1_555
C58 C51 1_555 1_555
H57 C58 1_555 1_555
C59 C47 1_555 1_555
H58 C59 1_555 1_555
C61 C55 1_555 1_555
H60 C61 1_555 1_555
C62 C52 1_555 1_555
H61 C62 1_555 1_555
C63 C53 1_555 1_555
C64 C54 1_555 1_555
H63 C64 1_555 1_555
C65 C50 1_555 1_555
H64 C65 1_555 1_555
C66 C58 1_555 1_555
H65 C66 1_555 1_555
C67 C65 1_555 1_555
H66 C67 1_555 1_555
C68 C64 1_555 1_555
H67 C68 1_555 1_555
C69 C56 1_555 1_555
H68 C69 1_555 1_555
C70 C57 1_555 1_555
H69 C70 1_555 1_555
C71 C67 1_555 1_555
H70 C71 1_555 1_555
Mn4 O7 1_555 1_555
Al4 O4 1_555 1_555
O20 Al1 1_555 1_555
O21 Al1 1_555 1_555
O22 Al4 1_555 1_555
O23 Al4 1_555 1_555
O24 Al4 1_555 1_555
O25 Mn3 1_555 1_555
O26 Mn3 1_555 1_555
O27 Mn1 1_555 1_555
O28 Mn4 1_555 1_555
N7 Mn4 1_555 1_555
C75 O21 1_555 1_555
C76 O23 1_555 1_555
C77 O24 1_555 1_555
C78 O22 1_555 1_555
C79 N7 1_555 1_555
H77 C79 1_555 1_555
H78 C79 1_555 1_555
C80 N7 1_555 1_555
H79 C80 1_555 1_555
H80 C80 1_555 1_555
C81 C75 1_555 1_555
C82 N7 1_555 1_555
H81 C82 1_555 1_555
H82 C82 1_555 1_555
C83 C78 1_555 1_555
C84 C77 1_555 1_555
C85 C76 1_555 1_555
C86 C83 1_555 1_555
H83 C86 1_555 1_555
C87 C83 1_555 1_555
H84 C87 1_555 1_555
C88 C85 1_555 1_555
H85 C88 1_555 1_555
C89 C81 1_555 1_555
H86 C89 1_555 1_555
C90 H87 1_555 1_555
C91 C84 1_555 1_555
H88 C91 1_555 1_555
C92 C85 1_555 1_555
H89 C92 1_555 1_555
C93 C81 1_555 1_555
H90 C93 1_555 1_555
C95 C89 1_555 1_555
H92 C95 1_555 1_555
C96 C86 1_555 1_555
H93 C96 1_555 1_555
C97 C87 1_555 1_555
C98 C88 1_555 1_555
H95 C98 1_555 1_555
C99 C84 1_555 1_555
H96 C99 1_555 1_555
C100 C92 1_555 1_555
H97 C100 1_555 1_555
C101 C99 1_555 1_555
H98 C101 1_555 1_555
C102 C98 1_555 1_555
H99 C102 1_555 1_555
C103 C90 1_555 1_555
H100 C103 1_555 1_555
C105 C101 1_555 1_555
H102 C105 1_555 1_555
Mn5 N3 1_555 1_555
Mn6 O29 1_555 1_555
Al5 O29 1_555 1_555
Al6 O29 1_555 1_555
O29 Al7 1_555 1_555
O31 Al6 1_555 1_555
O32 Mn5 1_555 1_555
O33 Al6 1_555 1_555
O34 Al6 1_555 1_555
O35 C111 1_555 1_555
O37 Mn5 1_555 1_555
O38 Mn6 1_555 1_555
C110 O33 1_555 1_555
C111 O34 1_555 1_555
C112 O31 1_555 1_555
C114 C112 1_555 1_555
C115 C111 1_555 1_555
C116 C110 1_555 1_555
C117 C114 1_555 1_555
H109 C117 1_555 1_555
C118 C114 1_555 1_555
H110 C118 1_555 1_555
C119 C116 1_555 1_555
H111 C119 1_555 1_555
C122 C115 1_555 1_555
H114 C122 1_555 1_555
C123 C116 1_555 1_555
C125 H117 1_555 1_555
C127 C117 1_555 1_555
H119 C127 1_555 1_555
C128 C118 1_555 1_555
H120 C128 1_555 1_555
C129 C119 1_555 1_555
H121 C129 1_555 1_555
C130 C115 1_555 1_555
H122 C130 1_555 1_555
C132 C130 1_555 1_555
H124 C132 1_555 1_555
C136 C132 1_555 1_555
H128 C136 1_555 1_555
Mn7 O39 1_555 1_555
Al7 O32 1_555 1_555
O39 Al5 1_555 1_555
O41 Al7 1_555 1_555
O42 Al7 1_555 1_555
O43 Al7 1_555 1_555
O44 Mn6 1_555 1_555
O46 Mn5 1_555 1_555
O47 Mn7 1_555 1_555
C138 O42 1_555 1_555
C139 O43 1_555 1_555
C140 O41 1_555 1_555
C142 C140 1_555 1_555
C143 C139 1_555 1_555
C144 C138 1_555 1_555
C145 C142 1_555 1_555
H129 C145 1_555 1_555
C146 C142 1_555 1_555
H130 C146 1_555 1_555
C147 C144 1_555 1_555
H131 C147 1_555 1_555
C150 C143 1_555 1_555
H134 C150 1_555 1_555
C151 C144 1_555 1_555
C155 C145 1_555 1_555
H139 C155 1_555 1_555
C156 C146 1_555 1_555
C157 C147 1_555 1_555
H141 C157 1_555 1_555
C158 C143 1_555 1_555
H142 C158 1_555 1_555
C160 C158 1_555 1_555
H144 C160 1_555 1_555
C163 C150 1_555 1_555
H147 C163 1_555 1_555
C164 C160 1_555 1_555
H148 C164 1_555 1_555
Mn8 O35 1_555 1_555
Al8 O32 1_555 1_555
O48 Al5 1_555 1_555
O50 Al8 1_555 1_555
O51 Al8 1_555 1_555
O52 Al8 1_555 1_555
O53 Mn7 1_555 1_555
O55 Mn5 1_555 1_555
O56 Mn8 1_555 1_555
C166 O51 1_555 1_555
C167 O52 1_555 1_555
C168 O50 1_555 1_555
C170 C168 1_555 1_555
C171 C167 1_555 1_555
C172 C166 1_555 1_555
C173 C170 1_555 1_555
H149 C173 1_555 1_555
C174 C170 1_555 1_555
H150 C174 1_555 1_555
C175 C172 1_555 1_555
H151 C175 1_555 1_555
C178 C171 1_555 1_555
H154 C178 1_555 1_555
C179 C172 1_555 1_555
C183 C173 1_555 1_555
H159 C183 1_555 1_555
C184 C174 1_555 1_555
C185 C175 1_555 1_555
H161 C185 1_555 1_555
C186 C171 1_555 1_555
H162 C186 1_555 1_555
C188 C186 1_555 1_555
H164 C188 1_555 1_555
C192 C188 1_555 1_555
H168 C192 1_555 1_555
Mn9 N4 1_555 1_555
N9 Mn6 1_555 1_555
N10 Mn7 1_555 1_555
N11 Mn8 1_555 1_555
Al2 O20 1_555 1_555
O8 Mn4 1_555 1_555
O9 C4 1_555 1_555
O10 C2 1_555 1_555
C17 C22 1_555 1_555
C20 C30 1_555 1_555
C21 C23 1_555 1_555
C21 C24 1_555 1_555
C27 C29 1_555 1_555
N3 C36 1_555 1_555
N3 C37 1_555 1_555
N4 C39 1_555 1_555
N4 C40 1_555 1_555
Al3 O11 1_555 1_555
O11 Al4 1_555 1_555
O16 C43 1_555 1_555
O17 C41 1_555 1_555
O18 C44 1_555 1_555
O19 C42 1_555 1_555
C56 C61 1_555 1_555
C59 C69 1_555 1_555
C66 C68 1_555 1_555
C70 C71 1_555 1_555
Mn4 O20 1_555 1_555
Al4 O20 1_555 1_555
O25 C77 1_555 1_555
O26 C75 1_555 1_555
O27 C78 1_555 1_555
O28 C76 1_555 1_555
C90 C95 1_555 1_555
C93 C103 1_555 1_555
C100 C102 1_555 1_555
Al6 O32 1_555 1_555
Al6 O48 1_555 1_555
O37 C112 1_555 1_555
O38 C110 1_555 1_555
C125 C127 1_555 1_555
C125 C128 1_555 1_555
Al7 O39 1_555 1_555
O39 Al8 1_555 1_555
O44 C139 1_555 1_555
O46 C140 1_555 1_555
O47 C138 1_555 1_555
C163 C164 1_555 1_555
Mn8 O48 1_555 1_555
Al8 O48 1_555 1_555
O53 C167 1_555 1_555
O55 C168 1_555 1_555
O56 C166 1_555 1_555
O36 C109 1_555 1_555
C109 O30 1_555 1_555
C113 C109 1_555 1_555
C120 C113 1_555 1_555
H112 C120 1_555 1_555
C121 H113 1_555 1_555
C124 C113 1_555 1_555
H116 C124 1_555 1_555
C126 C120 1_555 1_555
H118 C126 1_555 1_555
H123 C131 1_555 1_555
H125 C133 1_555 1_555
C134 C121 1_555 1_555
H126 C134 1_555 1_555
C137 O40 1_555 1_555
C141 C137 1_555 1_555
C148 C141 1_555 1_555
H132 C148 1_555 1_555
C149 H133 1_555 1_555
C152 C141 1_555 1_555
H136 C152 1_555 1_555
C154 C148 1_555 1_555
H138 C154 1_555 1_555
H143 C159 1_555 1_555
H145 C161 1_555 1_555
C162 C149 1_555 1_555
H146 C162 1_555 1_555
C165 O49 1_555 1_555
C169 C165 1_555 1_555
C176 C169 1_555 1_555
H152 C176 1_555 1_555
C177 H153 1_555 1_555
C180 C169 1_555 1_555
H156 C180 1_555 1_555
C182 C176 1_555 1_555
H158 C182 1_555 1_555
H163 C187 1_555 1_555
H165 C189 1_555 1_555
C190 C177 1_555 1_555
H166 C190 1_555 1_555
C121 C126 1_555 1_555
C124 C134 1_555 1_555
C131 C133 1_555 1_555
O45 C137 1_555 1_555
C149 C154 1_555 1_555
C152 C162 1_555 1_555
C159 C161 1_555 1_555
O54 C165 1_555 1_555
C177 C182 1_555 1_555
C180 C190 1_555 1_555
C187 C189 1_555 1_555
C60 H59 1_555 1_555
N6 C72 1_555 1_555
H71 C72 1_555 1_555
H72 C72 1_555 1_555
H73 C73 1_555 1_555
H74 C73 1_555 1_555
H75 C74 1_555 1_555
H76 C74 1_555 1_555
H101 C104 1_555 1_555
C153 H137 1_555 1_555
H167 C191 1_555 1_555
Mn11 N6 1_555 1_555
N6 C73 1_555 1_555
N6 C74 1_555 1_555
H105_2 C107_2 1_555 1_555
H106_2 C107_2 1_555 1_555
N8_2 C106_2 1_555 1_555
H103_2 C106_2 1_555 1_555
H104_2 C106_2 1_555 1_555
H108_2 C108_2 1_555 1_555
Mn10_2 N8_2 1_555 1_555
N8_2 C108_2 1_555 1_555
C5_2 N9 1_555 1_555
H1_2 C5_2 1_555 1_555
H2_2 C5_2 1_555 1_555
C8_2 N9 1_555 1_555
H6_2 C8_2 1_555 1_555
C39_2 C5_2 1_555 1_555
H41_2 C39_2 1_555 1_555
H42_2 C39_2 1_555 1_555
C45_2 N10 1_555 1_555
H45_2 C45_2 1_555 1_555
H46_2 C45_2 1_555 1_555
C48_2 N10 1_555 1_555
H50_2 C48_2 1_555 1_555
C79_2 N11 1_555 1_555
H77_2 C79_2 1_555 1_555
H78_2 C79_2 1_555 1_555
C82_2 N11 1_555 1_555
H82_2 C82_2 1_555 1_555
H3_2 C6_2 1_555 1_555
H4_2 C6_2 1_555 1_555
N4_2 C38_2 1_555 1_555
C38_2 C6_2 1_555 1_555
H39_2 C38_2 1_555 1_555
H40_2 C38_2 1_555 1_555
H44_2 C40_2 1_555 1_555
H47_2 C46_2 1_555 1_555
H48_2 C46_2 1_555 1_555
H79_2 C80_2 1_555 1_555
H80_2 C80_2 1_555 1_555
Mn9_2 N4_2 1_555 1_555
N4_2 C40_2 1_555 1_555
H73_2 C73_2 1_555 1_555
H74_2 C73_2 1_555 1_555
N6_2 C72_2 1_555 1_555
H71_2 C72_2 1_555 1_555
H72_2 C72_2 1_555 1_555
H76_2 C74_2 1_555 1_555
Mn11_2 N6_2 1_555 1_555
N6_2 C74_2 1_555 1_555
H27_2 C31_2 1_555 1_555
C94_2 H91_2 1_555 1_555
H127_2 C135_2 1_555 1_555
C181_2 H157_2 1_555 1_555
O36_2 C109_2 1_555 1_555
C109_2 O30_2 1_555 1_555
C113_2 C109_2 1_555 1_555
C120_2 C113_2 1_555 1_555
H112_2 C120_2 1_555 1_555
C121_2 H113_2 1_555 1_555
C124_2 C113_2 1_555 1_555
H116_2 C124_2 1_555 1_555
C126_2 C120_2 1_555 1_555
H118_2 C126_2 1_555 1_555
H123_2 C131_2 1_555 1_555
H125_2 C133_2 1_555 1_555
C134_2 C121_2 1_555 1_555
H126_2 C134_2 1_555 1_555
C137_2 O40_2 1_555 1_555
C141_2 C137_2 1_555 1_555
C148_2 C141_2 1_555 1_555
H132_2 C148_2 1_555 1_555
C149_2 H133_2 1_555 1_555
C152_2 C141_2 1_555 1_555
H136_2 C152_2 1_555 1_555
C154_2 C148_2 1_555 1_555
H138_2 C154_2 1_555 1_555
H143_2 C159_2 1_555 1_555
H145_2 C161_2 1_555 1_555
C162_2 C149_2 1_555 1_555
H146_2 C162_2 1_555 1_555
C165_2 O49_2 1_555 1_555
C169_2 C165_2 1_555 1_555
C176_2 C169_2 1_555 1_555
H152_2 C176_2 1_555 1_555
C177_2 H153_2 1_555 1_555
C180_2 C169_2 1_555 1_555
H156_2 C180_2 1_555 1_555
C182_2 C176_2 1_555 1_555
H158_2 C182_2 1_555 1_555
H163_2 C187_2 1_555 1_555
H165_2 C189_2 1_555 1_555
C190_2 C177_2 1_555 1_555
H166_2 C190_2 1_555 1_555
C121_2 C126_2 1_555 1_555
C124_2 C134_2 1_555 1_555
C131_2 C133_2 1_555 1_555
O45_2 C137_2 1_555 1_555
C149_2 C154_2 1_555 1_555
C152_2 C162_2 1_555 1_555
C159_2 C161_2 1_555 1_555
O54_2 C165_2 1_555 1_555
C177_2 C182_2 1_555 1_555
C180_2 C190_2 1_555 1_555
C187_2 C189_2 1_555 1_555
Mn1_2 O4_2 1_555 1_555
Mn9 O1_2 1_555 1_555
Al1_2 O1_2 1_555 1_555
Al2_2 O1_2 1_555 1_555
O1_2 Al3_2 1_555 1_555
O2_2 Al1_2 1_555 1_555
O3_2 Al2_2 1_555 1_555
O4_2 Al2_2 1_555 1_555
O5_2 Al2_2 1_555 1_555
O6_2 Al2_2 1_555 1_555
O7_2 C3_2 1_555 1_555
O8_2 C1_2 1_555 1_555
O9_2 Mn1_2 1_555 1_555
O10_2 Mn9 1_555 1_555
N1_2 Mn1_2 1_555 1_555
C1_2 O2_2 1_555 1_555
C2_2 O5_2 1_555 1_555
C3_2 O6_2 1_555 1_555
C4_2 O3_2 1_555 1_555
C7_2 C1_2 1_555 1_555
C9_2 C4_2 1_555 1_555
C10_2 C3_2 1_555 1_555
C11_2 N1_2 1_555 1_555
H7_2 C11_2 1_555 1_555
H8_2 C11_2 1_555 1_555
C12_2 C2_2 1_555 1_555
C13_2 C9_2 1_555 1_555
H9_2 C13_2 1_555 1_555
C14_2 C9_2 1_555 1_555
H10_2 C14_2 1_555 1_555
C15_2 C12_2 1_555 1_555
H11_2 C15_2 1_555 1_555
C16_2 C7_2 1_555 1_555
H12_2 C16_2 1_555 1_555
C17_2 H13_2 1_555 1_555
C18_2 C10_2 1_555 1_555
H14_2 C18_2 1_555 1_555
C19_2 C12_2 1_555 1_555
H15_2 C19_2 1_555 1_555
C20_2 C7_2 1_555 1_555
H16_2 C20_2 1_555 1_555
C21_2 H17_2 1_555 1_555
C22_2 C16_2 1_555 1_555
H18_2 C22_2 1_555 1_555
C23_2 C13_2 1_555 1_555
H19_2 C23_2 1_555 1_555
C24_2 C14_2 1_555 1_555
H20_2 C24_2 1_555 1_555
C25_2 C15_2 1_555 1_555
H21_2 C25_2 1_555 1_555
C26_2 C10_2 1_555 1_555
H22_2 C26_2 1_555 1_555
C27_2 C19_2 1_555 1_555
H23_2 C27_2 1_555 1_555
C28_2 C26_2 1_555 1_555
H24_2 C28_2 1_555 1_555
C29_2 C25_2 1_555 1_555
H25_2 C29_2 1_555 1_555
C30_2 C17_2 1_555 1_555
H26_2 C30_2 1_555 1_555
C32_2 C28_2 1_555 1_555
H28_2 C32_2 1_555 1_555
C33_2 N1_2 1_555 1_555
H29_2 C33_2 1_555 1_555
H30_2 C33_2 1_555 1_555
C34_2 N1_2 1_555 1_555
H31_2 C34_2 1_555 1_555
H32_2 C34_2 1_555 1_555
N3_2 C35_2 1_555 1_555
C35_2 C11_2 1_555 1_555
H33_2 C35_2 1_555 1_555
H34_2 C35_2 1_555 1_555
C36_2 C33_2 1_555 1_555
H35_2 C36_2 1_555 1_555
H36_2 C36_2 1_555 1_555
C37_2 C34_2 1_555 1_555
H37_2 C37_2 1_555 1_555
H38_2 C37_2 1_555 1_555
Mn10 O11_2 1_555 1_555
Al3_2 O4_2 1_555 1_555
O11_2 Al1_2 1_555 1_555
O12_2 Al1_2 1_555 1_555
O13_2 Al3_2 1_555 1_555
O14_2 Al3_2 1_555 1_555
O15_2 Al3_2 1_555 1_555
O16_2 Mn9 1_555 1_555
O17_2 Mn9 1_555 1_555
O18_2 Mn1_2 1_555 1_555
O19_2 Mn10 1_555 1_555
C41_2 O12_2 1_555 1_555
C42_2 O14_2 1_555 1_555
C43_2 O15_2 1_555 1_555
C44_2 O13_2 1_555 1_555
C47_2 C41_2 1_555 1_555
C49_2 C44_2 1_555 1_555
C50_2 C43_2 1_555 1_555
C51_2 C42_2 1_555 1_555
C52_2 C49_2 1_555 1_555
H51_2 C52_2 1_555 1_555
C53_2 C49_2 1_555 1_555
H52_2 C53_2 1_555 1_555
C54_2 C51_2 1_555 1_555
H53_2 C54_2 1_555 1_555
C55_2 C47_2 1_555 1_555
H54_2 C55_2 1_555 1_555
C56_2 H55_2 1_555 1_555
C57_2 C50_2 1_555 1_555
H56_2 C57_2 1_555 1_555
C58_2 C51_2 1_555 1_555
H57_2 C58_2 1_555 1_555
C59_2 C47_2 1_555 1_555
H58_2 C59_2 1_555 1_555
C61_2 C55_2 1_555 1_555
H60_2 C61_2 1_555 1_555
C62_2 C52_2 1_555 1_555
H61_2 C62_2 1_555 1_555
C63_2 C53_2 1_555 1_555
C64_2 C54_2 1_555 1_555
H63_2 C64_2 1_555 1_555
C65_2 C50_2 1_555 1_555
H64_2 C65_2 1_555 1_555
C66_2 C58_2 1_555 1_555
H65_2 C66_2 1_555 1_555
C67_2 C65_2 1_555 1_555
H66_2 C67_2 1_555 1_555
C68_2 C64_2 1_555 1_555
H67_2 C68_2 1_555 1_555
C69_2 C56_2 1_555 1_555
H68_2 C69_2 1_555 1_555
C70_2 C57_2 1_555 1_555
H69_2 C70_2 1_555 1_555
C71_2 C67_2 1_555 1_555
H70_2 C71_2 1_555 1_555
Mn11 O7_2 1_555 1_555
Al4_2 O4_2 1_555 1_555
O20_2 Al1_2 1_555 1_555
O21_2 Al1_2 1_555 1_555
O22_2 Al4_2 1_555 1_555
O23_2 Al4_2 1_555 1_555
O24_2 Al4_2 1_555 1_555
O25_2 Mn10 1_555 1_555
O26_2 Mn10 1_555 1_555
O27_2 Mn1_2 1_555 1_555
O28_2 Mn11 1_555 1_555
C75_2 O21_2 1_555 1_555
C76_2 O23_2 1_555 1_555
C77_2 O24_2 1_555 1_555
C78_2 O22_2 1_555 1_555
C81_2 C75_2 1_555 1_555
C83_2 C78_2 1_555 1_555
C84_2 C77_2 1_555 1_555
C85_2 C76_2 1_555 1_555
C86_2 C83_2 1_555 1_555
H83_2 C86_2 1_555 1_555
C87_2 C83_2 1_555 1_555
H84_2 C87_2 1_555 1_555
C88_2 C85_2 1_555 1_555
H85_2 C88_2 1_555 1_555
C89_2 C81_2 1_555 1_555
H86_2 C89_2 1_555 1_555
C90_2 H87_2 1_555 1_555
C91_2 C84_2 1_555 1_555
H88_2 C91_2 1_555 1_555
C92_2 C85_2 1_555 1_555
H89_2 C92_2 1_555 1_555
C93_2 C81_2 1_555 1_555
H90_2 C93_2 1_555 1_555
C95_2 C89_2 1_555 1_555
H92_2 C95_2 1_555 1_555
C96_2 C86_2 1_555 1_555
H93_2 C96_2 1_555 1_555
C97_2 C87_2 1_555 1_555
C98_2 C88_2 1_555 1_555
H95_2 C98_2 1_555 1_555
C99_2 C84_2 1_555 1_555
H96_2 C99_2 1_555 1_555
C100_2 C92_2 1_555 1_555
H97_2 C100_2 1_555 1_555
C101_2 C99_2 1_555 1_555
H98_2 C101_2 1_555 1_555
C102_2 C98_2 1_555 1_555
H99_2 C102_2 1_555 1_555
C103_2 C90_2 1_555 1_555
H100_2 C103_2 1_555 1_555
C105_2 C101_2 1_555 1_555
H102_2 C105_2 1_555 1_555
Mn5_2 N3_2 1_555 1_555
Mn9_2 O29_2 1_555 1_555
Al5_2 O29_2 1_555 1_555
Al6_2 O29_2 1_555 1_555
O29_2 Al7_2 1_555 1_555
O31_2 Al6_2 1_555 1_555
O32_2 Mn5_2 1_555 1_555
O33_2 Al6_2 1_555 1_555
O34_2 Al6_2 1_555 1_555
O35_2 C111_2 1_555 1_555
O37_2 Mn5_2 1_555 1_555
O38_2 Mn9_2 1_555 1_555
C110_2 O33_2 1_555 1_555
C111_2 O34_2 1_555 1_555
C112_2 O31_2 1_555 1_555
C114_2 C112_2 1_555 1_555
C115_2 C111_2 1_555 1_555
C116_2 C110_2 1_555 1_555
C117_2 C114_2 1_555 1_555
H109_2 C117_2 1_555 1_555
C118_2 C114_2 1_555 1_555
H110_2 C118_2 1_555 1_555
C119_2 C116_2 1_555 1_555
H111_2 C119_2 1_555 1_555
C122_2 C115_2 1_555 1_555
H114_2 C122_2 1_555 1_555
C123_2 C116_2 1_555 1_555
C125_2 H117_2 1_555 1_555
C127_2 C117_2 1_555 1_555
H119_2 C127_2 1_555 1_555
C128_2 C118_2 1_555 1_555
H120_2 C128_2 1_555 1_555
C129_2 C119_2 1_555 1_555
H121_2 C129_2 1_555 1_555
C130_2 C115_2 1_555 1_555
H122_2 C130_2 1_555 1_555
C132_2 C130_2 1_555 1_555
H124_2 C132_2 1_555 1_555
C136_2 C132_2 1_555 1_555
H128_2 C136_2 1_555 1_555
Mn10_2 O39_2 1_555 1_555
Al7_2 O32_2 1_555 1_555
O39_2 Al5_2 1_555 1_555
O41_2 Al7_2 1_555 1_555
O42_2 Al7_2 1_555 1_555
O43_2 Al7_2 1_555 1_555
O44_2 Mn9_2 1_555 1_555
O46_2 Mn5_2 1_555 1_555
O47_2 Mn10_2 1_555 1_555
C138_2 O42_2 1_555 1_555
C139_2 O43_2 1_555 1_555
C140_2 O41_2 1_555 1_555
C142_2 C140_2 1_555 1_555
C143_2 C139_2 1_555 1_555
C144_2 C138_2 1_555 1_555
C145_2 C142_2 1_555 1_555
H129_2 C145_2 1_555 1_555
C146_2 C142_2 1_555 1_555
H130_2 C146_2 1_555 1_555
C147_2 C144_2 1_555 1_555
H131_2 C147_2 1_555 1_555
C150_2 C143_2 1_555 1_555
H134_2 C150_2 1_555 1_555
C151_2 C144_2 1_555 1_555
C155_2 C145_2 1_555 1_555
H139_2 C155_2 1_555 1_555
C156_2 C146_2 1_555 1_555
C157_2 C147_2 1_555 1_555
H141_2 C157_2 1_555 1_555
C158_2 C143_2 1_555 1_555
H142_2 C158_2 1_555 1_555
C160_2 C158_2 1_555 1_555
H144_2 C160_2 1_555 1_555
C163_2 C150_2 1_555 1_555
H147_2 C163_2 1_555 1_555
C164_2 C160_2 1_555 1_555
H148_2 C164_2 1_555 1_555
Mn11_2 O35_2 1_555 1_555
Al8_2 O32_2 1_555 1_555
O48_2 Al5_2 1_555 1_555
O50_2 Al8_2 1_555 1_555
O51_2 Al8_2 1_555 1_555
O52_2 Al8_2 1_555 1_555
O53_2 Mn10_2 1_555 1_555
O55_2 Mn5_2 1_555 1_555
O56_2 Mn11_2 1_555 1_555
C166_2 O51_2 1_555 1_555
C167_2 O52_2 1_555 1_555
C168_2 O50_2 1_555 1_555
C170_2 C168_2 1_555 1_555
C171_2 C167_2 1_555 1_555
C172_2 C166_2 1_555 1_555
C173_2 C170_2 1_555 1_555
H149_2 C173_2 1_555 1_555
C174_2 C170_2 1_555 1_555
H150_2 C174_2 1_555 1_555
C175_2 C172_2 1_555 1_555
H151_2 C175_2 1_555 1_555
C178_2 C171_2 1_555 1_555
H154_2 C178_2 1_555 1_555
C179_2 C172_2 1_555 1_555
C183_2 C173_2 1_555 1_555
H159_2 C183_2 1_555 1_555
C184_2 C174_2 1_555 1_555
C185_2 C175_2 1_555 1_555
H161_2 C185_2 1_555 1_555
C186_2 C171_2 1_555 1_555
H162_2 C186_2 1_555 1_555
C188_2 C186_2 1_555 1_555
H164_2 C188_2 1_555 1_555
C192_2 C188_2 1_555 1_555
H168_2 C192_2 1_555 1_555
Al2_2 O20_2 1_555 1_555
O8_2 Mn11 1_555 1_555
O9_2 C4_2 1_555 1_555
O10_2 C2_2 1_555 1_555
C17_2 C22_2 1_555 1_555
C20_2 C30_2 1_555 1_555
C21_2 C23_2 1_555 1_555
C21_2 C24_2 1_555 1_555
C27_2 C29_2 1_555 1_555
N3_2 C36_2 1_555 1_555
N3_2 C37_2 1_555 1_555
Al3_2 O11_2 1_555 1_555
O11_2 Al4_2 1_555 1_555
O16_2 C43_2 1_555 1_555
O17_2 C41_2 1_555 1_555
O18_2 C44_2 1_555 1_555
O19_2 C42_2 1_555 1_555
C56_2 C61_2 1_555 1_555
C59_2 C69_2 1_555 1_555
C66_2 C68_2 1_555 1_555
C70_2 C71_2 1_555 1_555
Mn11 O20_2 1_555 1_555
Al4_2 O20_2 1_555 1_555
O25_2 C77_2 1_555 1_555
O26_2 C75_2 1_555 1_555
O27_2 C78_2 1_555 1_555
O28_2 C76_2 1_555 1_555
C90_2 C95_2 1_555 1_555
C93_2 C103_2 1_555 1_555
C100_2 C102_2 1_555 1_555
Al6_2 O32_2 1_555 1_555
Al6_2 O48_2 1_555 1_555
O37_2 C112_2 1_555 1_555
O38_2 C110_2 1_555 1_555
C125_2 C127_2 1_555 1_555
C125_2 C128_2 1_555 1_555
Al7_2 O39_2 1_555 1_555
O39_2 Al8_2 1_555 1_555
O44_2 C139_2 1_555 1_555
O46_2 C140_2 1_555 1_555
O47_2 C138_2 1_555 1_555
C163_2 C164_2 1_555 1_555
Mn11_2 O48_2 1_555 1_555
Al8_2 O48_2 1_555 1_555
O53_2 C167_2 1_555 1_555
O55_2 C168_2 1_555 1_555
O56_2 C166_2 1_555 1_555
C60_2 H59_2 1_555 1_555
H101_2 C104_2 1_555 1_555
C153_2 H137_2 1_555 1_555
H167_2 C191_2 1_555 1_555

#END
