
###############################################################################
#
# This file contains modified crystal structure data generated from the
# MOF subset of the Cambridge Structural Database (CSD) v543 
# hosted by the Cambridge Crystallographic Data Centre (CCDC).
#
# This work is licensed under the Creative Commons
# Attribution-NonCommercial-ShareAlike 4.0 International License.
# To view a copy of this license, visit
# http://creativecommons.org/licenses/by-nc-sa/4.0/
# or send a letter to
# Creative Commons, PO Box 1866, Mountain View, CA 94042, USA.
#
# CIF created using the CSD Python API on 29 September 2022
# The structure has been converted into the P1 space group
# The structure has a 3D framework
# The original CSD entry NECJIS is in the hexagonal crystal system
# The framework has been calculated to contain at least 10.0% void space
# The void calculation uses a probe of radius 1.32A, grid spacing 0.4
#
###############################################################################

data_NECJIS
_chemical_formula_moiety         '(C384 H336 Al16 Cd16 N16 O112)n'
_symmetry_cell_setting           triclinic
_symmetry_space_group_name_H-M   'P 1'
_symmetry_Int_Tables_number      1
_space_group_name_Hall           'P 1'
loop_
_symmetry_equiv_pos_site_id
_symmetry_equiv_pos_as_xyz
1 x,y,z
_cell_length_a                   23.1974(5)
_cell_length_b                   23.1974(5)
_cell_length_c                   37.9940(7)
_cell_angle_alpha                90
_cell_angle_beta                 90
_cell_angle_gamma                120
_cell_volume                     17706.2
loop_
_atom_site_label
_atom_site_type_symbol
_atom_site_fract_x
_atom_site_fract_y
_atom_site_fract_z
H6 H 0.597013 0.035606 0.334246
H63 H 0.384014 0.009370 0.391668
C67 C 0.4070(6) 0.0079(8) 0.3405(3)
H64 H 0.421211 0.052379 0.335814
N6 N 0.5297(5) 0.0603(8) 0.51131(19)
C72 C 0.4753(6) 0.0174(8) 0.5357(3)
H71 H 0.441498 0.030313 0.535598
H72 H 0.492549 0.022472 0.559440
C73 C 0.5766(5) 0.0367(8) 0.5084(3)
H73 H 0.593922 0.035732 0.531484
H74 H 0.613655 0.066699 0.493574
C74 C 0.5009(7) 0.0568(10) 0.4762(3)
H75 H 0.536317 0.080953 0.459295
H76 H 0.473346 0.077309 0.476961
H112 H 0.597013 0.035606 0.165754
H145 H 0.384014 0.009370 0.108332
C162 C 0.4070(6) 0.0079(8) 0.1595(3)
H146 H 0.421211 0.052379 0.164186
Cd11 Cd 0.58253(5) 0.16496(7) 0.53052(2)
Cd1 Cd 0.333333 0.666667 0.34254(2)
Cd2 Cd 0.41747(5) 0.58243(5) 0.46948(2)
Al1 Al 0.333333 0.666667 0.48345(9)
Al2 Al 0.41506(12) 0.70756(19) 0.42204(6)
O1 O 0.4568(3) 0.6698(3) 0.39491(19)
O2 O 0.3687(4) 0.6312(4) 0.45082(13)
O3 O 0.2927(5) 0.5910(3) 0.51329(15)
O4 O 0.4539(3) 0.7828(4) 0.39142(16)
O5 O 0.333333 0.666667 0.3967(2)
O6 O 0.4948(3) 0.7511(4) 0.45192(19)
N1 N 0.4703(5) 0.5306(6) 0.48869(19)
O7 O 0.4316(4) 0.6673(4) 0.33802(19)
O8 O 0.3557(4) 0.5460(4) 0.51982(19)
N2 N 0.333333 0.666667 0.2834(3)
C1 C 0.4822(6) 0.8445(6) 0.3953(3)
O9 O 0.5197(4) 0.6754(4) 0.4699(2)
C2 C 0.5247(6) 0.5421(6) 0.4643(3)
H1 H 0.558502 0.588815 0.464402
H2 H 0.507451 0.529923 0.440560
C3 C 0.5173(5) 0.8834(4) 0.3628(2)
C4 C 0.5218(5) 0.8520(4) 0.3326(3)
H3 H 0.502908 0.805917 0.332225
C5 C 0.5545(6) 0.8894(5) 0.3031(2)
H4 H 0.557461 0.868343 0.282869
C6 C 0.5826(6) 0.9582(5) 0.3037(3)
H5 H 0.604513 0.983187 0.283880
C7 C 0.5782(7) 0.9896(4) 0.3338(3)
C8 C 0.5455(6) 0.9522(5) 0.3634(2)
H7 H 0.542459 0.973181 0.383602
C9 C 0.5301(6) 0.7342(7) 0.4658(3)
O10 O 0.4858(4) 0.8747(4) 0.4224(2)
C10 C 0.3295(5) 0.6053(5) 0.2700(2)
H8 H 0.289209 0.566951 0.278513
H9 H 0.367275 0.602235 0.278512
C11 C 0.3071(7) 0.5508(7) 0.5272(3)
C12 C 0.2209(6) 0.4131(5) 0.5943(3)
H10 H 0.224297 0.377855 0.603610
C13 C 0.2661(5) 0.4542(5) 0.5690(3)
H11 H 0.299639 0.446369 0.561338
C14 C 0.2610(4) 0.5069(4) 0.5551(2)
C15 C 0.2108(5) 0.5186(4) 0.5665(3)
H12 H 0.207424 0.553825 0.557152
C16 C 0.1657(5) 0.4775(6) 0.5918(3)
H13 H 0.132082 0.485313 0.599425
C17 C 0.1707(6) 0.4248(6) 0.6057(3)
H14 H 0.140517 0.397328 0.622654
C18 C 0.6951(5) 0.8351(5) 0.5144(3)
H15 H 0.722978 0.827996 0.529133
C19 C 0.7120(5) 0.8995(5) 0.5049(3)
H16 H 0.751026 0.935518 0.513327
C20 C 0.6704(5) 0.9101(4) 0.4828(3)
H17 H 0.681601 0.953205 0.476482
C21 C 0.6120(4) 0.8563(5) 0.4702(3)
H18 H 0.584129 0.863369 0.455444
C22 C 0.5952(4) 0.7919(4) 0.4797(3)
C23 C 0.6367(5) 0.7813(4) 0.5018(3)
H19 H 0.625504 0.738159 0.508094
C24 C 0.4646(5) 0.6610(5) 0.3626(3)
C25 C 0.5102(4) 0.6353(5) 0.3544(2)
C26 C 0.5521(5) 0.6364(5) 0.38087(19)
H20 H 0.549740 0.651342 0.403264
C27 C 0.5974(5) 0.6152(5) 0.3739(2)
H21 H 0.625356 0.615986 0.391668
C28 C 0.6009(5) 0.5930(6) 0.3405(3)
H22 H 0.631168 0.578789 0.335814
C29 C 0.5590(5) 0.5919(6) 0.3139(2)
H23 H 0.561364 0.576949 0.291556
C30 C 0.5137(5) 0.6130(6) 0.3209(2)
H24 H 0.485747 0.612306 0.303151
C31 C 0.4234(5) 0.4601(6) 0.4916(3)
H25 H 0.406078 0.441810 0.468516
H26 H 0.386345 0.453044 0.506426
C32 C 0.4991(7) 0.5559(7) 0.5238(3)
H27 H 0.463683 0.544636 0.540705
H28 H 0.526654 0.603963 0.523039
N3 N 0.5306(6) 0.4703(5) 0.51131(19)
C33 C 0.5421(6) 0.5247(6) 0.5357(3)
H29 H 0.588815 0.558502 0.535598
H30 H 0.529923 0.507451 0.559440
C34 C 0.4601(6) 0.4234(5) 0.5084(3)
H31 H 0.441810 0.406078 0.531484
H32 H 0.453044 0.386345 0.493574
C35 C 0.5559(7) 0.4991(7) 0.4762(3)
H33 H 0.544636 0.463683 0.459295
H34 H 0.603963 0.526654 0.476961
C36 C 0.3947(5) 0.7242(7) 0.2700(2)
H35 H 0.433049 0.722258 0.278513
H36 H 0.397765 0.765040 0.278512
C37 C 0.2758(7) 0.6705(5) 0.2700(2)
H37 H 0.277742 0.710791 0.278513
H38 H 0.234960 0.632725 0.278512
N4 N 0.333333 0.666667 0.2166(3)
C38 C 0.3295(5) 0.6053(5) 0.2300(2)
H39 H 0.289209 0.566951 0.221487
H40 H 0.367275 0.602235 0.221488
C39 C 0.3947(5) 0.7242(7) 0.2300(2)
H41 H 0.433049 0.722258 0.221487
H42 H 0.397765 0.765040 0.221488
C40 C 0.2758(7) 0.6705(5) 0.2300(2)
H43 H 0.277742 0.710791 0.221487
H44 H 0.234960 0.632725 0.221488
Cd3 Cd 0.41757(5) 0.83504(7) 0.46948(2)
Al3 Al 0.29244(19) 0.70750(22) 0.42204(6)
O11 O 0.3302(3) 0.7870(4) 0.39491(19)
O12 O 0.3688(4) 0.7375(6) 0.45082(13)
O13 O 0.4090(3) 0.7017(6) 0.51329(15)
O14 O 0.2172(4) 0.6711(5) 0.39142(16)
O15 O 0.2489(4) 0.7437(5) 0.45192(19)
N5 N 0.4694(6) 0.9397(8) 0.48869(19)
O16 O 0.3327(4) 0.7643(6) 0.33802(19)
O17 O 0.4540(4) 0.8097(6) 0.51982(19)
C41 C 0.1555(6) 0.6377(8) 0.3953(3)
O18 O 0.3246(4) 0.8443(6) 0.4699(2)
C42 C 0.4579(6) 0.9826(8) 0.4643(3)
H45 H 0.411185 0.969687 0.464402
H46 H 0.470077 0.977528 0.440560
C43 C 0.1166(4) 0.6339(6) 0.3628(2)
C44 C 0.1480(4) 0.6698(6) 0.3326(3)
H47 H 0.194083 0.696991 0.332225
C45 C 0.1106(5) 0.6651(8) 0.3031(2)
H48 H 0.131657 0.689118 0.282869
C46 C 0.0418(5) 0.6244(8) 0.3037(3)
H49 H 0.016813 0.621326 0.283880
C47 C 0.0104(4) 0.5886(8) 0.3338(3)
C48 C 0.0478(5) 0.5933(8) 0.3634(2)
H51 H 0.026819 0.569278 0.383602
C49 C 0.2658(7) 0.7959(9) 0.4658(3)
O19 O 0.1253(4) 0.6111(6) 0.4224(2)
C50 C 0.4492(7) 0.7563(10) 0.5272(3)
C51 C 0.5869(5) 0.8078(8) 0.5943(3)
H52 H 0.622145 0.846442 0.603610
C52 C 0.5458(5) 0.8119(7) 0.5690(3)
H53 H 0.553631 0.853270 0.561338
C53 C 0.4931(4) 0.7541(6) 0.5551(2)
C54 C 0.4814(4) 0.6922(6) 0.5665(3)
H54 H 0.446175 0.653599 0.557152
C55 C 0.5225(6) 0.6882(8) 0.5918(3)
H55 H 0.514687 0.646769 0.599425
C56 C 0.5752(6) 0.7459(8) 0.6057(3)
H56 H 0.602672 0.743189 0.622654
C57 C 0.1649(5) 0.8600(7) 0.5144(3)
H57 H 0.172004 0.894982 0.529133
C58 C 0.1005(5) 0.8125(7) 0.5049(3)
H58 H 0.064482 0.815508 0.513327
C59 C 0.0899(4) 0.7603(6) 0.4828(3)
H59 H 0.046795 0.728396 0.476482
C60 C 0.1437(5) 0.7557(6) 0.4702(3)
H60 H 0.136631 0.720760 0.455444
C61 C 0.2081(4) 0.8033(6) 0.4797(3)
C62 C 0.2187(4) 0.8554(6) 0.5018(3)
H61 H 0.261841 0.887345 0.508094
C63 C 0.3390(5) 0.8036(7) 0.3626(3)
C64 C 0.3647(5) 0.8749(6) 0.3544(2)
C65 C 0.3636(5) 0.9157(7) 0.38087(19)
H62 H 0.348658 0.898398 0.403264
C66 C 0.3848(5) 0.9822(7) 0.3739(2)
C68 C 0.4081(6) 0.9671(8) 0.3139(2)
H65 H 0.423051 0.984415 0.291556
C69 C 0.3870(6) 0.9007(8) 0.3209(2)
H66 H 0.387694 0.873441 0.303151
C70 C 0.5399(6) 0.9633(8) 0.4916(3)
H67 H 0.558190 0.964268 0.468516
H68 H 0.546956 0.933301 0.506426
C71 C 0.4441(7) 0.9432(10) 0.5238(3)
H69 H 0.455364 0.919047 0.540705
H70 H 0.396037 0.922691 0.523039
Cd4 Cd 0.16496(7) 0.58253(5) 0.46948(2)
Al4 Al 0.29250(22) 0.58494(12) 0.42204(6)
O20 O 0.2130(4) 0.5432(3) 0.39491(19)
O21 O 0.2625(6) 0.6313(4) 0.45082(13)
O22 O 0.2983(6) 0.7073(5) 0.51329(15)
O23 O 0.3289(5) 0.5461(3) 0.39142(16)
O24 O 0.2563(5) 0.5052(3) 0.45192(19)
N7 N 0.0603(8) 0.5297(5) 0.48869(19)
O25 O 0.2357(6) 0.5684(4) 0.33802(19)
O26 O 0.1903(6) 0.6443(4) 0.51982(19)
C75 C 0.3623(8) 0.5178(6) 0.3953(3)
O27 O 0.1557(6) 0.4803(4) 0.4699(2)
C76 C 0.0174(8) 0.4753(6) 0.4643(3)
H77 H 0.030313 0.441498 0.464402
H78 H 0.022472 0.492549 0.440560
C77 C 0.3661(6) 0.4827(5) 0.3628(2)
C78 C 0.3302(6) 0.4782(5) 0.3326(3)
H79 H 0.303009 0.497092 0.332225
C79 C 0.3349(8) 0.4455(6) 0.3031(2)
H80 H 0.310882 0.442539 0.282869
C80 C 0.3756(8) 0.4174(6) 0.3037(3)
H81 H 0.378674 0.395487 0.283880
C81 C 0.4114(8) 0.4218(7) 0.3338(3)
H82 H 0.438593 0.402987 0.334246
C82 C 0.4067(8) 0.4545(6) 0.3634(2)
H83 H 0.430722 0.457541 0.383602
C83 C 0.2041(9) 0.4699(6) 0.4658(3)
O28 O 0.3889(6) 0.5142(4) 0.4224(2)
C84 C 0.2437(10) 0.6929(7) 0.5272(3)
C85 C 0.1922(8) 0.7791(6) 0.5943(3)
H84 H 0.153558 0.775703 0.603610
C86 C 0.1881(7) 0.7339(5) 0.5690(3)
H85 H 0.146730 0.700361 0.561338
C87 C 0.2459(6) 0.7390(4) 0.5551(2)
C88 C 0.3078(6) 0.7892(5) 0.5665(3)
H86 H 0.346401 0.792576 0.557152
C89 C 0.3118(8) 0.8343(5) 0.5918(3)
H87 H 0.353231 0.867918 0.599425
C90 C 0.2541(8) 0.8293(6) 0.6057(3)
H88 H 0.256811 0.859483 0.622654
C91 C 0.1400(7) 0.3049(5) 0.5144(3)
H89 H 0.105018 0.277022 0.529133
C92 C 0.1875(7) 0.2880(5) 0.5049(3)
H90 H 0.184492 0.248974 0.513327
C93 C 0.2397(6) 0.3296(5) 0.4828(3)
H91 H 0.271604 0.318399 0.476482
C94 C 0.2443(6) 0.3880(4) 0.4702(3)
H92 H 0.279240 0.415871 0.455444
C95 C 0.1967(6) 0.4048(4) 0.4797(3)
C96 C 0.1446(6) 0.3633(5) 0.5018(3)
H93 H 0.112655 0.374496 0.508094
C97 C 0.1964(7) 0.5354(5) 0.3626(3)
C98 C 0.1251(6) 0.4898(4) 0.3544(2)
C99 C 0.0843(7) 0.4479(5) 0.38087(19)
H94 H 0.101602 0.450260 0.403264
C100 C 0.0178(7) 0.4026(5) 0.3739(2)
C102 C 0.0329(8) 0.4410(5) 0.3139(2)
H97 H 0.015585 0.438636 0.291556
C103 C 0.0993(8) 0.4863(5) 0.3209(2)
H98 H 0.126559 0.514253 0.303151
C104 C 0.0367(8) 0.5766(5) 0.4916(3)
H99 H 0.035732 0.593922 0.468516
H100 H 0.066699 0.613655 0.506426
C105 C 0.0568(10) 0.5009(7) 0.5238(3)
H101 H 0.080953 0.536317 0.540705
H102 H 0.077309 0.473346 0.523039
Cd5 Cd 0.333333 0.666667 0.15746(2)
Cd6 Cd 0.41747(5) 0.58243(5) 0.03052(2)
Al5 Al 0.333333 0.666667 0.01655(9)
Al6 Al 0.41506(12) 0.70756(19) 0.07796(6)
O29 O 0.4568(3) 0.6698(3) 0.10509(19)
O30 O 0.3687(4) 0.6312(4) 0.04918(13)
O32 O 0.4539(3) 0.7828(4) 0.10858(16)
O33 O 0.333333 0.666667 0.1033(2)
O34 O 0.4948(3) 0.7511(4) 0.04808(19)
O35 O 0.4316(4) 0.6673(4) 0.16198(19)
C109 C 0.4822(6) 0.8445(6) 0.1047(3)
O37 O 0.5197(4) 0.6754(4) 0.0301(2)
C110 C 0.5173(5) 0.8834(4) 0.1372(2)
C111 C 0.5218(5) 0.8520(4) 0.1674(3)
H109 H 0.502908 0.805917 0.167775
C112 C 0.5545(6) 0.8894(5) 0.1969(2)
H110 H 0.557461 0.868343 0.217131
C113 C 0.5826(6) 0.9582(5) 0.1963(3)
H111 H 0.604513 0.983187 0.216120
C114 C 0.5782(7) 0.9896(4) 0.1662(3)
C115 C 0.5455(6) 0.9522(5) 0.1366(2)
H113 H 0.542459 0.973181 0.116398
C116 C 0.5301(6) 0.7342(7) 0.0342(3)
O38 O 0.4858(4) 0.8747(4) 0.0776(2)
C126 C 0.6704(5) 0.9101(4) 0.0172(3)
H121 H 0.681601 0.953205 0.023518
C127 C 0.6120(4) 0.8563(5) 0.0298(3)
H122 H 0.584129 0.863369 0.044556
C128 C 0.5952(4) 0.7919(4) 0.0203(3)
C130 C 0.4646(5) 0.6610(5) 0.1374(3)
C131 C 0.5102(4) 0.6353(5) 0.1456(2)
C132 C 0.5521(5) 0.6364(5) 0.11913(19)
H124 H 0.549740 0.651342 0.096736
C133 C 0.5974(5) 0.6152(5) 0.1261(2)
H125 H 0.625356 0.615986 0.108332
C134 C 0.6009(5) 0.5930(6) 0.1595(3)
H126 H 0.631168 0.578789 0.164186
C135 C 0.5590(5) 0.5919(6) 0.1861(2)
H127 H 0.561364 0.576949 0.208444
C136 C 0.5137(5) 0.6130(6) 0.1791(2)
H128 H 0.485747 0.612306 0.196849
Cd7 Cd 0.41757(5) 0.83504(7) 0.03052(2)
Al7 Al 0.29244(19) 0.70750(22) 0.07796(6)
O39 O 0.3302(3) 0.7870(4) 0.10509(19)
O40 O 0.3688(4) 0.7375(6) 0.04918(13)
O42 O 0.2172(4) 0.6711(5) 0.10858(16)
O43 O 0.2489(4) 0.7437(5) 0.04808(19)
O44 O 0.3327(4) 0.7643(6) 0.16198(19)
C137 C 0.1555(6) 0.6377(8) 0.1047(3)
O46 O 0.3246(4) 0.8443(6) 0.0301(2)
C138 C 0.1166(4) 0.6339(6) 0.1372(2)
C139 C 0.1480(4) 0.6698(6) 0.1674(3)
H129 H 0.194083 0.696991 0.167775
C140 C 0.1106(5) 0.6651(8) 0.1969(2)
H130 H 0.131657 0.689118 0.217131
C141 C 0.0418(5) 0.6244(8) 0.1963(3)
H131 H 0.016813 0.621326 0.216120
C142 C 0.0104(4) 0.5886(8) 0.1662(3)
C143 C 0.0478(5) 0.5933(8) 0.1366(2)
H133 H 0.026819 0.569278 0.116398
C144 C 0.2658(7) 0.7959(9) 0.0342(3)
O47 O 0.1253(4) 0.6111(6) 0.0776(2)
C154 C 0.0899(4) 0.7603(6) 0.0172(3)
H141 H 0.046795 0.728396 0.023518
C155 C 0.1437(5) 0.7557(6) 0.0298(3)
H142 H 0.136631 0.720760 0.044556
C156 C 0.2081(4) 0.8033(6) 0.0203(3)
C158 C 0.3390(5) 0.8036(7) 0.1374(3)
C159 C 0.3647(5) 0.8749(6) 0.1456(2)
C160 C 0.3636(5) 0.9157(7) 0.11913(19)
H144 H 0.348658 0.898398 0.096736
C161 C 0.3848(5) 0.9822(7) 0.1261(2)
C163 C 0.4081(6) 0.9671(8) 0.1861(2)
H147 H 0.423051 0.984415 0.208444
C164 C 0.3870(6) 0.9007(8) 0.1791(2)
H148 H 0.387694 0.873441 0.196849
Cd8 Cd 0.16496(7) 0.58253(5) 0.03052(2)
Al8 Al 0.29250(22) 0.58494(12) 0.07796(6)
O48 O 0.2130(4) 0.5432(3) 0.10509(19)
O49 O 0.2625(6) 0.6313(4) 0.04918(13)
O51 O 0.3289(5) 0.5461(3) 0.10858(16)
O52 O 0.2563(5) 0.5052(3) 0.04808(19)
O53 O 0.2357(6) 0.5684(4) 0.16198(19)
C165 C 0.3623(8) 0.5178(6) 0.1047(3)
O55 O 0.1557(6) 0.4803(4) 0.0301(2)
C166 C 0.3661(6) 0.4827(5) 0.1372(2)
C167 C 0.3302(6) 0.4782(5) 0.1674(3)
H149 H 0.303009 0.497092 0.167775
C168 C 0.3349(8) 0.4455(6) 0.1969(2)
H150 H 0.310882 0.442539 0.217131
C169 C 0.3756(8) 0.4174(6) 0.1963(3)
H151 H 0.378674 0.395487 0.216120
C170 C 0.4114(8) 0.4218(7) 0.1662(3)
H152 H 0.438593 0.402987 0.165754
C171 C 0.4067(8) 0.4545(6) 0.1366(2)
H153 H 0.430722 0.457541 0.116398
C172 C 0.2041(9) 0.4699(6) 0.0342(3)
O56 O 0.3889(6) 0.5142(4) 0.0776(2)
C182 C 0.2397(6) 0.3296(5) 0.0172(3)
H161 H 0.271604 0.318399 0.023518
C183 C 0.2443(6) 0.3880(4) 0.0298(3)
H162 H 0.279240 0.415871 0.044556
C184 C 0.1967(6) 0.4048(4) 0.0203(3)
C186 C 0.1964(7) 0.5354(5) 0.1374(3)
C187 C 0.1251(6) 0.4898(4) 0.1456(2)
C188 C 0.0843(7) 0.4479(5) 0.11913(19)
H164 H 0.101602 0.450260 0.096736
C189 C 0.0178(7) 0.4026(5) 0.1261(2)
C191 C 0.0329(8) 0.4410(5) 0.1861(2)
H167 H 0.015585 0.438636 0.208444
C192 C 0.0993(8) 0.4863(5) 0.1791(2)
H168 H 0.126559 0.514253 0.196849
Cd9 Cd 0.58243(5) 0.41747(5) 0.53052(2)
N9 N 0.4703(5) 0.5306(6) 0.01131(19)
N10 N 0.4694(6) 0.9397(8) 0.01131(19)
N11 N 0.0603(8) 0.5297(5) 0.01131(19)
O31 O 0.2927(5) 0.5910(3) 0.98671(15)
O36 O 0.3557(4) 0.5460(4) 0.98018(19)
C117 C 0.3071(7) 0.5508(7) 0.9728(3)
C118 C 0.2209(6) 0.4131(5) 0.9057(3)
H114 H 0.224297 0.377855 0.896390
C119 C 0.2661(5) 0.4542(5) 0.9310(3)
H115 H 0.299639 0.446369 0.938662
C120 C 0.2610(4) 0.5069(4) 0.9449(2)
C121 C 0.2108(5) 0.5186(4) 0.9335(3)
H116 H 0.207424 0.553825 0.942848
C122 C 0.1657(5) 0.4775(6) 0.9082(3)
H117 H 0.132082 0.485313 0.900575
C123 C 0.1707(6) 0.4248(6) 0.8943(3)
H118 H 0.140517 0.397328 0.877346
C124 C 0.6951(5) 0.8351(5) 0.9856(3)
H119 H 0.722978 0.827996 0.970867
C125 C 0.7120(5) 0.8995(5) 0.9951(3)
H120 H 0.751026 0.935518 0.986673
C129 C 0.6367(5) 0.7813(4) 0.9982(3)
H123 H 0.625504 0.738159 0.991906
O41 O 0.4090(3) 0.7017(6) 0.98671(15)
O45 O 0.4540(4) 0.8097(6) 0.98018(19)
C145 C 0.4492(7) 0.7563(10) 0.9728(3)
C146 C 0.5869(5) 0.8078(8) 0.9057(3)
H134 H 0.622145 0.846442 0.896390
C147 C 0.5458(5) 0.8119(7) 0.9310(3)
H135 H 0.553631 0.853270 0.938662
C148 C 0.4931(4) 0.7541(6) 0.9449(2)
C149 C 0.4814(4) 0.6922(6) 0.9335(3)
H136 H 0.446175 0.653599 0.942848
C150 C 0.5225(6) 0.6882(8) 0.9082(3)
H137 H 0.514687 0.646769 0.900575
C151 C 0.5752(6) 0.7459(8) 0.8943(3)
H138 H 0.602672 0.743189 0.877346
C152 C 0.1649(5) 0.8600(7) 0.9856(3)
H139 H 0.172004 0.894982 0.970867
C153 C 0.1005(5) 0.8125(7) 0.9951(3)
H140 H 0.064482 0.815508 0.986673
C157 C 0.2187(4) 0.8554(6) 0.9982(3)
H143 H 0.261841 0.887345 0.991906
O50 O 0.2983(6) 0.7073(5) 0.98671(15)
O54 O 0.1903(6) 0.6443(4) 0.98018(19)
C173 C 0.2437(10) 0.6929(7) 0.9728(3)
C174 C 0.1922(8) 0.7791(6) 0.9057(3)
H154 H 0.153558 0.775703 0.896390
C175 C 0.1881(7) 0.7339(5) 0.9310(3)
H155 H 0.146730 0.700361 0.938662
C176 C 0.2459(6) 0.7390(4) 0.9449(2)
C177 C 0.3078(6) 0.7892(5) 0.9335(3)
H156 H 0.346401 0.792576 0.942848
C178 C 0.3118(8) 0.8343(5) 0.9082(3)
H157 H 0.353231 0.867918 0.900575
C179 C 0.2541(8) 0.8293(6) 0.8943(3)
H158 H 0.256811 0.859483 0.877346
C180 C 0.1400(7) 0.3049(5) 0.9856(3)
H159 H 0.105018 0.277022 0.970867
C181 C 0.1875(7) 0.2880(5) 0.9951(3)
H160 H 0.184492 0.248974 0.986673
C185 C 0.1446(6) 0.3633(5) 0.9982(3)
H163 H 0.112655 0.374496 0.991906
H50 H 0.964394 0.561407 0.334246
H95 H 0.990630 0.374644 0.391668
C101 C 0.9921(8) 0.3991(5) 0.3405(3)
H96 H 0.947621 0.368832 0.335814
N8 N 0.9397(8) 0.4694(6) 0.51131(19)
C106 C 0.9826(8) 0.4579(6) 0.5357(3)
H103 H 0.969687 0.411185 0.535598
H104 H 0.977528 0.470077 0.559440
C107 C 0.9633(8) 0.5399(6) 0.5084(3)
H105 H 0.964268 0.558190 0.531484
H106 H 0.933301 0.546956 0.493574
C108 C 0.9432(10) 0.4441(7) 0.4762(3)
H107 H 0.919047 0.455364 0.459295
H108 H 0.922691 0.396037 0.476961
H132 H 0.964394 0.561407 0.165754
H165 H 0.990630 0.374644 0.108332
C190 C 0.9921(8) 0.3991(5) 0.1595(3)
H166 H 0.947621 0.368832 0.164186
Cd10 Cd 0.83504(7) 0.41757(5) 0.53052(2)
H74_2 H 0.613655 0.066699 0.006426
C74_2 C 0.5009(7) 0.0568(10) 0.0238(3)
H75_2 H 0.536317 0.080953 0.040705
H76_2 H 0.473346 0.077309 0.023039
N6_2 N 0.5297(5) 0.0603(8) 0.98869(19)
C72_2 C 0.4753(6) 0.0174(8) 0.9643(3)
H71_2 H 0.441498 0.030313 0.964402
H72_2 H 0.492549 0.022472 0.940560
C73_2 C 0.5766(5) 0.0367(8) 0.9916(3)
H73_2 H 0.593922 0.035732 0.968516
Cd11_2 Cd 0.58253(5) 0.16496(7) 0.96948(2)
C2_2 C 0.5247(6) 0.5421(6) 0.0357(3)
H1_2 H 0.558502 0.588815 0.035598
H2_2 H 0.507451 0.529923 0.059440
C31_2 C 0.4234(5) 0.4601(6) 0.0084(3)
H25_2 H 0.406078 0.441810 0.031484
H32_2 H 0.453044 0.386345 0.006426
C35_2 C 0.5559(7) 0.4991(7) 0.0238(3)
H33_2 H 0.544636 0.463683 0.040705
H34_2 H 0.603963 0.526654 0.023039
C42_2 C 0.4579(6) 0.9826(8) 0.0357(3)
H45_2 H 0.411185 0.969687 0.035598
H46_2 H 0.470077 0.977528 0.059440
C70_2 C 0.5399(6) 0.9633(8) 0.0084(3)
H67_2 H 0.558190 0.964268 0.031484
C76_2 C 0.0174(8) 0.4753(6) 0.0357(3)
H77_2 H 0.030313 0.441498 0.035598
H78_2 H 0.022472 0.492549 0.059440
C104_2 C 0.0367(8) 0.5766(5) 0.0084(3)
H99_2 H 0.035732 0.593922 0.031484
H26_2 H 0.386345 0.453044 0.993574
C32_2 C 0.4991(7) 0.5559(7) 0.9762(3)
H27_2 H 0.463683 0.544636 0.959295
H28_2 H 0.526654 0.603963 0.976961
N3_2 N 0.5306(6) 0.4703(5) 0.98869(19)
C33_2 C 0.5421(6) 0.5247(6) 0.9643(3)
H29_2 H 0.588815 0.558502 0.964402
H30_2 H 0.529923 0.507451 0.940560
C34_2 C 0.4601(6) 0.4234(5) 0.9916(3)
H31_2 H 0.441810 0.406078 0.968516
H68_2 H 0.546956 0.933301 0.993574
C71_2 C 0.4441(7) 0.9432(10) 0.9762(3)
H69_2 H 0.455364 0.919047 0.959295
H70_2 H 0.396037 0.922691 0.976961
H100_2 H 0.066699 0.613655 0.993574
C105_2 C 0.0568(10) 0.5009(7) 0.9762(3)
H101_2 H 0.080953 0.536317 0.959295
H102_2 H 0.077309 0.473346 0.976961
Cd9_2 Cd 0.58243(5) 0.41747(5) 0.96948(2)
H106_2 H 0.933301 0.546956 0.006426
C108_2 C 0.9432(10) 0.4441(7) 0.0238(3)
H107_2 H 0.919047 0.455364 0.040705
H108_2 H 0.922691 0.396037 0.023039
N8_2 N 0.9397(8) 0.4694(6) 0.98869(19)
C106_2 C 0.9826(8) 0.4579(6) 0.9643(3)
H103_2 H 0.969687 0.411185 0.964402
H104_2 H 0.977528 0.470077 0.940560
C107_2 C 0.9633(8) 0.5399(6) 0.9916(3)
H105_2 H 0.964268 0.558190 0.968516
Cd10_2 Cd 0.83504(7) 0.41757(5) 0.96948(2)
H6_2 H 0.035606 0.597013 0.665754
H63_2 H 0.009370 0.384014 0.608332
C67_2 C 0.0079(8) 0.4070(6) 0.6595(3)
H64_2 H 0.052379 0.421211 0.664186
H112_2 H 0.035606 0.597013 0.834246
H145_2 H 0.009370 0.384014 0.891668
C162_2 C 0.0079(8) 0.4070(6) 0.8405(3)
H146_2 H 0.052379 0.421211 0.835814
O31_2 O 0.5910(3) 0.2927(5) 0.01329(15)
O36_2 O 0.5460(4) 0.3557(4) 0.01982(19)
C117_2 C 0.5508(7) 0.3071(7) 0.0272(3)
C118_2 C 0.4131(5) 0.2209(6) 0.0943(3)
H114_2 H 0.377855 0.224297 0.103610
C119_2 C 0.4542(5) 0.2661(5) 0.0690(3)
H115_2 H 0.446369 0.299639 0.061338
C120_2 C 0.5069(4) 0.2610(4) 0.0551(2)
C121_2 C 0.5186(4) 0.2108(5) 0.0665(3)
H116_2 H 0.553825 0.207424 0.057152
C122_2 C 0.4775(6) 0.1657(5) 0.0918(3)
H117_2 H 0.485313 0.132082 0.099425
C123_2 C 0.4248(6) 0.1707(6) 0.1057(3)
H118_2 H 0.397328 0.140517 0.122654
C124_2 C 0.8351(5) 0.6951(5) 0.0144(3)
H119_2 H 0.827996 0.722978 0.029133
C125_2 C 0.8995(5) 0.7120(5) 0.0049(3)
H120_2 H 0.935518 0.751026 0.013327
C129_2 C 0.7813(4) 0.6367(5) 0.0018(3)
H123_2 H 0.738159 0.625504 0.008094
O41_2 O 0.7017(6) 0.4090(3) 0.01329(15)
O45_2 O 0.8097(6) 0.4540(4) 0.01982(19)
C145_2 C 0.7563(10) 0.4492(7) 0.0272(3)
C146_2 C 0.8078(8) 0.5869(5) 0.0943(3)
H134_2 H 0.846442 0.622145 0.103610
C147_2 C 0.8119(7) 0.5458(5) 0.0690(3)
H135_2 H 0.853270 0.553631 0.061338
C148_2 C 0.7541(6) 0.4931(4) 0.0551(2)
C149_2 C 0.6922(6) 0.4814(4) 0.0665(3)
H136_2 H 0.653599 0.446175 0.057152
C150_2 C 0.6882(8) 0.5225(6) 0.0918(3)
H137_2 H 0.646769 0.514687 0.099425
C151_2 C 0.7459(8) 0.5752(6) 0.1057(3)
H138_2 H 0.743189 0.602672 0.122654
C152_2 C 0.8600(7) 0.1649(5) 0.0144(3)
H139_2 H 0.894982 0.172004 0.029133
C153_2 C 0.8125(7) 0.1005(5) 0.0049(3)
H140_2 H 0.815508 0.064482 0.013327
C157_2 C 0.8554(6) 0.2187(4) 0.0018(3)
H143_2 H 0.887345 0.261841 0.008094
O50_2 O 0.7073(5) 0.2983(6) 0.01329(15)
O54_2 O 0.6443(4) 0.1903(6) 0.01982(19)
C173_2 C 0.6929(7) 0.2437(10) 0.0272(3)
C174_2 C 0.7791(6) 0.1922(8) 0.0943(3)
H154_2 H 0.775703 0.153558 0.103610
C175_2 C 0.7339(5) 0.1881(7) 0.0690(3)
H155_2 H 0.700361 0.146730 0.061338
C176_2 C 0.7390(4) 0.2459(6) 0.0551(2)
C177_2 C 0.7892(5) 0.3078(6) 0.0665(3)
H156_2 H 0.792576 0.346401 0.057152
C178_2 C 0.8343(5) 0.3118(8) 0.0918(3)
H157_2 H 0.867918 0.353231 0.099425
C179_2 C 0.8293(6) 0.2541(8) 0.1057(3)
H158_2 H 0.859483 0.256811 0.122654
C180_2 C 0.3049(5) 0.1400(7) 0.0144(3)
H159_2 H 0.277022 0.105018 0.029133
C181_2 C 0.2880(5) 0.1875(7) 0.0049(3)
H160_2 H 0.248974 0.184492 0.013327
C185_2 C 0.3633(5) 0.1446(6) 0.0018(3)
H163_2 H 0.374496 0.112655 0.008094
Cd1_2 Cd 0.666667 0.333333 0.65746(2)
Al1_2 Al 0.666667 0.333333 0.51655(9)
Al2_2 Al 0.70756(19) 0.41506(12) 0.57796(6)
O1_2 O 0.6698(3) 0.4568(3) 0.60509(19)
O2_2 O 0.6312(4) 0.3687(4) 0.54918(13)
O3_2 O 0.5910(3) 0.2927(5) 0.48671(15)
O4_2 O 0.7828(4) 0.4539(3) 0.60858(16)
O5_2 O 0.666667 0.333333 0.6033(2)
O6_2 O 0.7511(4) 0.4948(3) 0.54808(19)
O7_2 O 0.6673(4) 0.4316(4) 0.66198(19)
O8_2 O 0.5460(4) 0.3557(4) 0.48018(19)
N2_2 N 0.666667 0.333333 0.7166(3)
C1_2 C 0.8445(6) 0.4822(6) 0.6047(3)
O9_2 O 0.6754(4) 0.5197(4) 0.5301(2)
C3_2 C 0.8834(4) 0.5173(5) 0.6372(2)
C4_2 C 0.8520(4) 0.5218(5) 0.6674(3)
H3_2 H 0.805917 0.502908 0.667775
C5_2 C 0.8894(5) 0.5545(6) 0.6969(2)
H4_2 H 0.868343 0.557461 0.717131
C6_2 C 0.9582(5) 0.5826(6) 0.6963(3)
H5_2 H 0.983187 0.604513 0.716120
C7_2 C 0.9896(4) 0.5782(7) 0.6662(3)
C8_2 C 0.9522(5) 0.5455(6) 0.6366(2)
H7_2 H 0.973181 0.542459 0.616398
C9_2 C 0.7342(7) 0.5301(6) 0.5342(3)
O10_2 O 0.8747(4) 0.4858(4) 0.5776(2)
C10_2 C 0.6053(5) 0.3295(5) 0.7300(2)
H8_2 H 0.566951 0.289209 0.721487
H9_2 H 0.602235 0.367275 0.721488
C11_2 C 0.5508(7) 0.3071(7) 0.4728(3)
C12_2 C 0.4131(5) 0.2209(6) 0.4057(3)
H10_2 H 0.377855 0.224297 0.396390
C13_2 C 0.4542(5) 0.2661(5) 0.4310(3)
H11_2 H 0.446369 0.299639 0.438662
C14_2 C 0.5069(4) 0.2610(4) 0.4449(2)
C15_2 C 0.5186(4) 0.2108(5) 0.4335(3)
H12_2 H 0.553825 0.207424 0.442848
C16_2 C 0.4775(6) 0.1657(5) 0.4082(3)
H13_2 H 0.485313 0.132082 0.400575
C17_2 C 0.4248(6) 0.1707(6) 0.3943(3)
H14_2 H 0.397328 0.140517 0.377346
C18_2 C 0.8351(5) 0.6951(5) 0.4856(3)
H15_2 H 0.827996 0.722978 0.470867
C19_2 C 0.8995(5) 0.7120(5) 0.4951(3)
H16_2 H 0.935518 0.751026 0.486673
C20_2 C 0.9101(4) 0.6704(5) 0.5172(3)
H17_2 H 0.953205 0.681601 0.523518
C21_2 C 0.8563(5) 0.6120(4) 0.5298(3)
H18_2 H 0.863369 0.584129 0.544556
C22_2 C 0.7919(4) 0.5952(4) 0.5203(3)
C23_2 C 0.7813(4) 0.6367(5) 0.4982(3)
H19_2 H 0.738159 0.625504 0.491906
C24_2 C 0.6610(5) 0.4646(5) 0.6374(3)
C25_2 C 0.6353(5) 0.5102(4) 0.6456(2)
C26_2 C 0.6364(5) 0.5521(5) 0.61913(19)
H20_2 H 0.651342 0.549740 0.596736
C27_2 C 0.6152(5) 0.5974(5) 0.6261(2)
H21_2 H 0.615986 0.625356 0.608332
C28_2 C 0.5930(6) 0.6009(5) 0.6595(3)
H22_2 H 0.578789 0.631168 0.664186
C29_2 C 0.5919(6) 0.5590(5) 0.6861(2)
H23_2 H 0.576949 0.561364 0.708444
C30_2 C 0.6130(6) 0.5137(5) 0.6791(2)
H24_2 H 0.612306 0.485747 0.696849
C36_2 C 0.7242(7) 0.3947(5) 0.7300(2)
H35_2 H 0.722258 0.433049 0.721487
H36_2 H 0.765040 0.397765 0.721488
C37_2 C 0.6705(5) 0.2758(7) 0.7300(2)
H37_2 H 0.710791 0.277742 0.721487
H38_2 H 0.632725 0.234960 0.721488
N4_2 N 0.666667 0.333333 0.7834(3)
C38_2 C 0.6053(5) 0.3295(5) 0.7700(2)
H39_2 H 0.566951 0.289209 0.778513
H40_2 H 0.602235 0.367275 0.778512
C39_2 C 0.7242(7) 0.3947(5) 0.7700(2)
H41_2 H 0.722258 0.433049 0.778513
H42_2 H 0.765040 0.397765 0.778512
C40_2 C 0.6705(5) 0.2758(7) 0.7700(2)
H43_2 H 0.710791 0.277742 0.778513
H44_2 H 0.632725 0.234960 0.778512
Al3_2 Al 0.70750(22) 0.29244(19) 0.57796(6)
O11_2 O 0.7870(4) 0.3302(3) 0.60509(19)
O12_2 O 0.7375(6) 0.3688(4) 0.54918(13)
O13_2 O 0.7017(6) 0.4090(3) 0.48671(15)
O14_2 O 0.6711(5) 0.2172(4) 0.60858(16)
O15_2 O 0.7437(5) 0.2489(4) 0.54808(19)
O16_2 O 0.7643(6) 0.3327(4) 0.66198(19)
O17_2 O 0.8097(6) 0.4540(4) 0.48018(19)
C41_2 C 0.6377(8) 0.1555(6) 0.6047(3)
O18_2 O 0.8443(6) 0.3246(4) 0.5301(2)
C43_2 C 0.6339(6) 0.1166(4) 0.6372(2)
C44_2 C 0.6698(6) 0.1480(4) 0.6674(3)
H47_2 H 0.696991 0.194083 0.667775
C45_2 C 0.6651(8) 0.1106(5) 0.6969(2)
H48_2 H 0.689118 0.131657 0.717131
C46_2 C 0.6244(8) 0.0418(5) 0.6963(3)
H49_2 H 0.621326 0.016813 0.716120
C47_2 C 0.5886(8) 0.0104(4) 0.6662(3)
C48_2 C 0.5933(8) 0.0478(5) 0.6366(2)
H51_2 H 0.569278 0.026819 0.616398
C49_2 C 0.7959(9) 0.2658(7) 0.5342(3)
O19_2 O 0.6111(6) 0.1253(4) 0.5776(2)
C50_2 C 0.7563(10) 0.4492(7) 0.4728(3)
C51_2 C 0.8078(8) 0.5869(5) 0.4057(3)
H52_2 H 0.846442 0.622145 0.396390
C52_2 C 0.8119(7) 0.5458(5) 0.4310(3)
H53_2 H 0.853270 0.553631 0.438662
C53_2 C 0.7541(6) 0.4931(4) 0.4449(2)
C54_2 C 0.6922(6) 0.4814(4) 0.4335(3)
H54_2 H 0.653599 0.446175 0.442848
C55_2 C 0.6882(8) 0.5225(6) 0.4082(3)
H55_2 H 0.646769 0.514687 0.400575
C56_2 C 0.7459(8) 0.5752(6) 0.3943(3)
H56_2 H 0.743189 0.602672 0.377346
C57_2 C 0.8600(7) 0.1649(5) 0.4856(3)
H57_2 H 0.894982 0.172004 0.470867
C58_2 C 0.8125(7) 0.1005(5) 0.4951(3)
H58_2 H 0.815508 0.064482 0.486673
C59_2 C 0.7603(6) 0.0899(4) 0.5172(3)
H59_2 H 0.728396 0.046795 0.523518
C60_2 C 0.7557(6) 0.1437(5) 0.5298(3)
H60_2 H 0.720760 0.136631 0.544556
C61_2 C 0.8033(6) 0.2081(4) 0.5203(3)
C62_2 C 0.8554(6) 0.2187(4) 0.4982(3)
H61_2 H 0.887345 0.261841 0.491906
C63_2 C 0.8036(7) 0.3390(5) 0.6374(3)
C64_2 C 0.8749(6) 0.3647(5) 0.6456(2)
C65_2 C 0.9157(7) 0.3636(5) 0.61913(19)
H62_2 H 0.898398 0.348658 0.596736
C66_2 C 0.9822(7) 0.3848(5) 0.6261(2)
C68_2 C 0.9671(8) 0.4081(6) 0.6861(2)
H65_2 H 0.984415 0.423051 0.708444
C69_2 C 0.9007(8) 0.3870(6) 0.6791(2)
H66_2 H 0.873441 0.387694 0.696849
Al4_2 Al 0.58494(12) 0.29250(22) 0.57796(6)
O20_2 O 0.5432(3) 0.2130(4) 0.60509(19)
O21_2 O 0.6313(4) 0.2625(6) 0.54918(13)
O22_2 O 0.7073(5) 0.2983(6) 0.48671(15)
O23_2 O 0.5461(3) 0.3289(5) 0.60858(16)
O24_2 O 0.5052(3) 0.2563(5) 0.54808(19)
O25_2 O 0.5684(4) 0.2357(6) 0.66198(19)
O26_2 O 0.6443(4) 0.1903(6) 0.48018(19)
C75_2 C 0.5178(6) 0.3623(8) 0.6047(3)
O27_2 O 0.4803(4) 0.1557(6) 0.5301(2)
C77_2 C 0.4827(5) 0.3661(6) 0.6372(2)
C78_2 C 0.4782(5) 0.3302(6) 0.6674(3)
H79_2 H 0.497092 0.303009 0.667775
C79_2 C 0.4455(6) 0.3349(8) 0.6969(2)
H80_2 H 0.442539 0.310882 0.717131
C80_2 C 0.4174(6) 0.3756(8) 0.6963(3)
H81_2 H 0.395487 0.378674 0.716120
C81_2 C 0.4218(7) 0.4114(8) 0.6662(3)
H82_2 H 0.402987 0.438593 0.665754
C82_2 C 0.4545(6) 0.4067(8) 0.6366(2)
H83_2 H 0.457541 0.430722 0.616398
C83_2 C 0.4699(6) 0.2041(9) 0.5342(3)
O28_2 O 0.5142(4) 0.3889(6) 0.5776(2)
C84_2 C 0.6929(7) 0.2437(10) 0.4728(3)
C85_2 C 0.7791(6) 0.1922(8) 0.4057(3)
H84_2 H 0.775703 0.153558 0.396390
C86_2 C 0.7339(5) 0.1881(7) 0.4310(3)
H85_2 H 0.700361 0.146730 0.438662
C87_2 C 0.7390(4) 0.2459(6) 0.4449(2)
C88_2 C 0.7892(5) 0.3078(6) 0.4335(3)
H86_2 H 0.792576 0.346401 0.442848
C89_2 C 0.8343(5) 0.3118(8) 0.4082(3)
H87_2 H 0.867918 0.353231 0.400575
C90_2 C 0.8293(6) 0.2541(8) 0.3943(3)
H88_2 H 0.859483 0.256811 0.377346
C91_2 C 0.3049(5) 0.1400(7) 0.4856(3)
H89_2 H 0.277022 0.105018 0.470867
C92_2 C 0.2880(5) 0.1875(7) 0.4951(3)
H90_2 H 0.248974 0.184492 0.486673
C93_2 C 0.3296(5) 0.2397(6) 0.5172(3)
H91_2 H 0.318399 0.271604 0.523518
C94_2 C 0.3880(4) 0.2443(6) 0.5298(3)
H92_2 H 0.415871 0.279240 0.544556
C95_2 C 0.4048(4) 0.1967(6) 0.5203(3)
C96_2 C 0.3633(5) 0.1446(6) 0.4982(3)
H93_2 H 0.374496 0.112655 0.491906
C97_2 C 0.5354(5) 0.1964(7) 0.6374(3)
C98_2 C 0.4898(4) 0.1251(6) 0.6456(2)
C99_2 C 0.4479(5) 0.0843(7) 0.61913(19)
H94_2 H 0.450260 0.101602 0.596736
C100_2 C 0.4026(5) 0.0178(7) 0.6261(2)
C102_2 C 0.4410(5) 0.0329(8) 0.6861(2)
H97_2 H 0.438636 0.015585 0.708444
C103_2 C 0.4863(5) 0.0993(8) 0.6791(2)
H98_2 H 0.514253 0.126559 0.696849
Cd5_2 Cd 0.666667 0.333333 0.84254(2)
Al5_2 Al 0.666667 0.333333 0.98345(9)
Al6_2 Al 0.70756(19) 0.41506(12) 0.92204(6)
O29_2 O 0.6698(3) 0.4568(3) 0.89491(19)
O30_2 O 0.6312(4) 0.3687(4) 0.95082(13)
O32_2 O 0.7828(4) 0.4539(3) 0.89142(16)
O33_2 O 0.666667 0.333333 0.8967(2)
O34_2 O 0.7511(4) 0.4948(3) 0.95192(19)
O35_2 O 0.6673(4) 0.4316(4) 0.83802(19)
C109_2 C 0.8445(6) 0.4822(6) 0.8953(3)
O37_2 O 0.6754(4) 0.5197(4) 0.9699(2)
C110_2 C 0.8834(4) 0.5173(5) 0.8628(2)
C111_2 C 0.8520(4) 0.5218(5) 0.8326(3)
H109_2 H 0.805917 0.502908 0.832225
C112_2 C 0.8894(5) 0.5545(6) 0.8031(2)
H110_2 H 0.868343 0.557461 0.782869
C113_2 C 0.9582(5) 0.5826(6) 0.8037(3)
H111_2 H 0.983187 0.604513 0.783880
C114_2 C 0.9896(4) 0.5782(7) 0.8338(3)
C115_2 C 0.9522(5) 0.5455(6) 0.8634(2)
H113_2 H 0.973181 0.542459 0.883602
C116_2 C 0.7342(7) 0.5301(6) 0.9658(3)
O38_2 O 0.8747(4) 0.4858(4) 0.9224(2)
C126_2 C 0.9101(4) 0.6704(5) 0.9828(3)
H121_2 H 0.953205 0.681601 0.976482
C127_2 C 0.8563(5) 0.6120(4) 0.9702(3)
H122_2 H 0.863369 0.584129 0.955444
C128_2 C 0.7919(4) 0.5952(4) 0.9797(3)
C130_2 C 0.6610(5) 0.4646(5) 0.8626(3)
C131_2 C 0.6353(5) 0.5102(4) 0.8544(2)
C132_2 C 0.6364(5) 0.5521(5) 0.88087(19)
H124_2 H 0.651342 0.549740 0.903264
C133_2 C 0.6152(5) 0.5974(5) 0.8739(2)
H125_2 H 0.615986 0.625356 0.891668
C134_2 C 0.5930(6) 0.6009(5) 0.8405(3)
H126_2 H 0.578789 0.631168 0.835814
C135_2 C 0.5919(6) 0.5590(5) 0.8139(2)
H127_2 H 0.576949 0.561364 0.791556
C136_2 C 0.6130(6) 0.5137(5) 0.8209(2)
H128_2 H 0.612306 0.485747 0.803151
Al7_2 Al 0.70750(22) 0.29244(19) 0.92204(6)
O39_2 O 0.7870(4) 0.3302(3) 0.89491(19)
O40_2 O 0.7375(6) 0.3688(4) 0.95082(13)
O42_2 O 0.6711(5) 0.2172(4) 0.89142(16)
O43_2 O 0.7437(5) 0.2489(4) 0.95192(19)
O44_2 O 0.7643(6) 0.3327(4) 0.83802(19)
C137_2 C 0.6377(8) 0.1555(6) 0.8953(3)
O46_2 O 0.8443(6) 0.3246(4) 0.9699(2)
C138_2 C 0.6339(6) 0.1166(4) 0.8628(2)
C139_2 C 0.6698(6) 0.1480(4) 0.8326(3)
H129_2 H 0.696991 0.194083 0.832225
C140_2 C 0.6651(8) 0.1106(5) 0.8031(2)
H130_2 H 0.689118 0.131657 0.782869
C141_2 C 0.6244(8) 0.0418(5) 0.8037(3)
H131_2 H 0.621326 0.016813 0.783880
C142_2 C 0.5886(8) 0.0104(4) 0.8338(3)
C143_2 C 0.5933(8) 0.0478(5) 0.8634(2)
H133_2 H 0.569278 0.026819 0.883602
C144_2 C 0.7959(9) 0.2658(7) 0.9658(3)
O47_2 O 0.6111(6) 0.1253(4) 0.9224(2)
C154_2 C 0.7603(6) 0.0899(4) 0.9828(3)
H141_2 H 0.728396 0.046795 0.976482
C155_2 C 0.7557(6) 0.1437(5) 0.9702(3)
H142_2 H 0.720760 0.136631 0.955444
C156_2 C 0.8033(6) 0.2081(4) 0.9797(3)
C158_2 C 0.8036(7) 0.3390(5) 0.8626(3)
C159_2 C 0.8749(6) 0.3647(5) 0.8544(2)
C160_2 C 0.9157(7) 0.3636(5) 0.88087(19)
H144_2 H 0.898398 0.348658 0.903264
C161_2 C 0.9822(7) 0.3848(5) 0.8739(2)
C163_2 C 0.9671(8) 0.4081(6) 0.8139(2)
H147_2 H 0.984415 0.423051 0.791556
C164_2 C 0.9007(8) 0.3870(6) 0.8209(2)
H148_2 H 0.873441 0.387694 0.803151
Al8_2 Al 0.58494(12) 0.29250(22) 0.92204(6)
O48_2 O 0.5432(3) 0.2130(4) 0.89491(19)
O49_2 O 0.6313(4) 0.2625(6) 0.95082(13)
O51_2 O 0.5461(3) 0.3289(5) 0.89142(16)
O52_2 O 0.5052(3) 0.2563(5) 0.95192(19)
O53_2 O 0.5684(4) 0.2357(6) 0.83802(19)
C165_2 C 0.5178(6) 0.3623(8) 0.8953(3)
O55_2 O 0.4803(4) 0.1557(6) 0.9699(2)
C166_2 C 0.4827(5) 0.3661(6) 0.8628(2)
C167_2 C 0.4782(5) 0.3302(6) 0.8326(3)
H149_2 H 0.497092 0.303009 0.832225
C168_2 C 0.4455(6) 0.3349(8) 0.8031(2)
H150_2 H 0.442539 0.310882 0.782869
C169_2 C 0.4174(6) 0.3756(8) 0.8037(3)
H151_2 H 0.395487 0.378674 0.783880
C170_2 C 0.4218(7) 0.4114(8) 0.8338(3)
H152_2 H 0.402987 0.438593 0.834246
C171_2 C 0.4545(6) 0.4067(8) 0.8634(2)
H153_2 H 0.457541 0.430722 0.883602
C172_2 C 0.4699(6) 0.2041(9) 0.9658(3)
O56_2 O 0.5142(4) 0.3889(6) 0.9224(2)
C182_2 C 0.3296(5) 0.2397(6) 0.9828(3)
H161_2 H 0.318399 0.271604 0.976482
C183_2 C 0.3880(4) 0.2443(6) 0.9702(3)
H162_2 H 0.415871 0.279240 0.955444
C184_2 C 0.4048(4) 0.1967(6) 0.9797(3)
C186_2 C 0.5354(5) 0.1964(7) 0.8626(3)
C187_2 C 0.4898(4) 0.1251(6) 0.8544(2)
C188_2 C 0.4479(5) 0.0843(7) 0.88087(19)
H164_2 H 0.450260 0.101602 0.903264
C189_2 C 0.4026(5) 0.0178(7) 0.8739(2)
C191_2 C 0.4410(5) 0.0329(8) 0.8139(2)
H167_2 H 0.438636 0.015585 0.791556
C192_2 C 0.4863(5) 0.0993(8) 0.8209(2)
H168_2 H 0.514253 0.126559 0.803151
H50_2 H 0.561407 0.964394 0.665754
H95_2 H 0.374644 0.990630 0.608332
C101_2 C 0.3991(5) 0.9921(8) 0.6595(3)
H96_2 H 0.368832 0.947621 0.664186
H132_2 H 0.561407 0.964394 0.834246
H165_2 H 0.374644 0.990630 0.891668
C190_2 C 0.3991(5) 0.9921(8) 0.8405(3)
H166_2 H 0.368832 0.947621 0.835814
loop_
_geom_bond_atom_site_label_1
_geom_bond_atom_site_label_2
_geom_bond_site_symmetry_1
_geom_bond_site_symmetry_2
H64 C67 1_555 1_555
N6 C72 1_555 1_555
H71 C72 1_555 1_555
H72 C72 1_555 1_555
H73 C73 1_555 1_555
H74 C73 1_555 1_555
H75 C74 1_555 1_555
H76 C74 1_555 1_555
H146 C162 1_555 1_555
Cd11 N6 1_555 1_555
N6 C73 1_555 1_555
N6 C74 1_555 1_555
Cd1 O5 1_555 1_555
Cd2 O2 1_555 1_555
Al1 O2 1_555 1_555
Al2 O1 1_555 1_555
O1 C24 1_555 1_555
O2 Al2 1_555 1_555
O3 Al1 1_555 1_555
O4 Al2 1_555 1_555
O5 Al2 1_555 1_555
O6 Al2 1_555 1_555
N1 Cd2 1_555 1_555
O7 Cd1 1_555 1_555
O8 Cd2 1_555 1_555
N2 Cd1 1_555 1_555
C1 O4 1_555 1_555
O9 Cd2 1_555 1_555
C2 N1 1_555 1_555
H1 C2 1_555 1_555
H2 C2 1_555 1_555
C3 C1 1_555 1_555
C4 C3 1_555 1_555
H3 C4 1_555 1_555
C5 C4 1_555 1_555
H4 C5 1_555 1_555
C6 C5 1_555 1_555
H5 C6 1_555 1_555
C7 C6 1_555 1_555
C8 C3 1_555 1_555
H7 C8 1_555 1_555
C9 O6 1_555 1_555
O10 C1 1_555 1_555
C10 N2 1_555 1_555
H8 C10 1_555 1_555
H9 C10 1_555 1_555
C11 O3 1_555 1_555
C12 H10 1_555 1_555
C13 C12 1_555 1_555
H11 C13 1_555 1_555
C14 C11 1_555 1_555
C15 C14 1_555 1_555
H12 C15 1_555 1_555
C16 C15 1_555 1_555
H13 C16 1_555 1_555
C17 C12 1_555 1_555
H14 C17 1_555 1_555
C18 H15 1_555 1_555
C19 C18 1_555 1_555
H16 C19 1_555 1_555
C20 C19 1_555 1_555
H17 C20 1_555 1_555
C21 C20 1_555 1_555
H18 C21 1_555 1_555
C22 C9 1_555 1_555
C23 C18 1_555 1_555
H19 C23 1_555 1_555
C24 O7 1_555 1_555
C25 C24 1_555 1_555
C26 C25 1_555 1_555
H20 C26 1_555 1_555
C27 C26 1_555 1_555
H21 C27 1_555 1_555
C28 C27 1_555 1_555
H22 C28 1_555 1_555
C29 C28 1_555 1_555
H23 C29 1_555 1_555
C30 C25 1_555 1_555
H24 C30 1_555 1_555
C31 N1 1_555 1_555
H25 C31 1_555 1_555
H26 C31 1_555 1_555
C32 N1 1_555 1_555
H27 C32 1_555 1_555
H28 C32 1_555 1_555
N3 C33 1_555 1_555
C33 C32 1_555 1_555
H29 C33 1_555 1_555
H30 C33 1_555 1_555
C34 C31 1_555 1_555
H31 C34 1_555 1_555
H32 C34 1_555 1_555
C35 C2 1_555 1_555
H33 C35 1_555 1_555
H34 C35 1_555 1_555
C36 N2 1_555 1_555
H35 C36 1_555 1_555
H36 C36 1_555 1_555
C37 N2 1_555 1_555
H37 C37 1_555 1_555
H38 C37 1_555 1_555
N4 C38 1_555 1_555
C38 C10 1_555 1_555
H39 C38 1_555 1_555
H40 C38 1_555 1_555
C39 C36 1_555 1_555
H41 C39 1_555 1_555
H42 C39 1_555 1_555
C40 C37 1_555 1_555
H43 C40 1_555 1_555
H44 C40 1_555 1_555
Cd3 O10 1_555 1_555
Al3 O5 1_555 1_555
O11 Al3 1_555 1_555
O12 Al1 1_555 1_555
O13 Al1 1_555 1_555
O14 Al3 1_555 1_555
O15 Al3 1_555 1_555
N5 Cd3 1_555 1_555
O16 Cd1 1_555 1_555
O17 Cd3 1_555 1_555
C41 O14 1_555 1_555
O18 Cd3 1_555 1_555
C42 N5 1_555 1_555
H45 C42 1_555 1_555
H46 C42 1_555 1_555
C43 C41 1_555 1_555
C44 C43 1_555 1_555
H47 C44 1_555 1_555
C45 C44 1_555 1_555
H48 C45 1_555 1_555
C46 C45 1_555 1_555
H49 C46 1_555 1_555
C47 C46 1_555 1_555
C48 C43 1_555 1_555
H51 C48 1_555 1_555
C49 O15 1_555 1_555
O19 C41 1_555 1_555
C50 O13 1_555 1_555
C51 H52 1_555 1_555
C52 C51 1_555 1_555
H53 C52 1_555 1_555
C53 C50 1_555 1_555
C54 C53 1_555 1_555
H54 C54 1_555 1_555
C55 C54 1_555 1_555
H55 C55 1_555 1_555
C56 C51 1_555 1_555
H56 C56 1_555 1_555
C57 H57 1_555 1_555
C58 C57 1_555 1_555
H58 C58 1_555 1_555
C59 C58 1_555 1_555
H59 C59 1_555 1_555
C60 C59 1_555 1_555
H60 C60 1_555 1_555
C61 C49 1_555 1_555
C62 C57 1_555 1_555
H61 C62 1_555 1_555
C63 O11 1_555 1_555
C64 C63 1_555 1_555
C65 C64 1_555 1_555
H62 C65 1_555 1_555
C66 C65 1_555 1_555
H65 C68 1_555 1_555
C69 C64 1_555 1_555
H66 C69 1_555 1_555
C70 N5 1_555 1_555
H67 C70 1_555 1_555
H68 C70 1_555 1_555
C71 N5 1_555 1_555
H69 C71 1_555 1_555
H70 C71 1_555 1_555
Cd4 O19 1_555 1_555
Al4 O2 1_555 1_555
O20 Al4 1_555 1_555
O21 Al1 1_555 1_555
O22 Al1 1_555 1_555
O23 Al4 1_555 1_555
O24 Al4 1_555 1_555
N7 Cd4 1_555 1_555
O25 Cd1 1_555 1_555
O26 Cd4 1_555 1_555
C75 O23 1_555 1_555
O27 Cd4 1_555 1_555
C76 N7 1_555 1_555
H77 C76 1_555 1_555
H78 C76 1_555 1_555
C77 C75 1_555 1_555
C78 C77 1_555 1_555
H79 C78 1_555 1_555
C79 C78 1_555 1_555
H80 C79 1_555 1_555
C80 C79 1_555 1_555
H81 C80 1_555 1_555
C81 C80 1_555 1_555
H82 C81 1_555 1_555
C82 C77 1_555 1_555
H83 C82 1_555 1_555
C83 O24 1_555 1_555
O28 Cd2 1_555 1_555
C84 O22 1_555 1_555
C85 H84 1_555 1_555
C86 C85 1_555 1_555
H85 C86 1_555 1_555
C87 C84 1_555 1_555
C88 C87 1_555 1_555
H86 C88 1_555 1_555
C89 C88 1_555 1_555
H87 C89 1_555 1_555
C90 C85 1_555 1_555
H88 C90 1_555 1_555
C91 H89 1_555 1_555
C92 C91 1_555 1_555
H90 C92 1_555 1_555
C93 C92 1_555 1_555
H91 C93 1_555 1_555
C94 C93 1_555 1_555
H92 C94 1_555 1_555
C95 C83 1_555 1_555
C96 C91 1_555 1_555
H93 C96 1_555 1_555
C97 O20 1_555 1_555
C98 C97 1_555 1_555
C99 C98 1_555 1_555
H94 C99 1_555 1_555
C100 C99 1_555 1_555
H97 C102 1_555 1_555
C103 C98 1_555 1_555
H98 C103 1_555 1_555
C104 N7 1_555 1_555
H99 C104 1_555 1_555
H100 C104 1_555 1_555
C105 N7 1_555 1_555
H101 C105 1_555 1_555
H102 C105 1_555 1_555
Cd5 N4 1_555 1_555
Cd6 O30 1_555 1_555
Al5 O30 1_555 1_555
Al6 O29 1_555 1_555
O29 C130 1_555 1_555
O30 Al6 1_555 1_555
O32 Al6 1_555 1_555
O33 Cd5 1_555 1_555
O34 Al6 1_555 1_555
O35 Cd5 1_555 1_555
C109 O32 1_555 1_555
O37 Cd6 1_555 1_555
C110 C109 1_555 1_555
C111 C110 1_555 1_555
H109 C111 1_555 1_555
C112 C111 1_555 1_555
H110 C112 1_555 1_555
C113 C112 1_555 1_555
H111 C113 1_555 1_555
C114 C113 1_555 1_555
C115 C110 1_555 1_555
H113 C115 1_555 1_555
C116 O34 1_555 1_555
O38 C109 1_555 1_555
H121 C126 1_555 1_555
C127 C126 1_555 1_555
H122 C127 1_555 1_555
C128 C116 1_555 1_555
C130 O35 1_555 1_555
C131 C130 1_555 1_555
C132 C131 1_555 1_555
H124 C132 1_555 1_555
C133 C132 1_555 1_555
H125 C133 1_555 1_555
C134 C133 1_555 1_555
H126 C134 1_555 1_555
C135 C134 1_555 1_555
H127 C135 1_555 1_555
C136 C131 1_555 1_555
H128 C136 1_555 1_555
Cd7 O38 1_555 1_555
Al7 O33 1_555 1_555
O39 Al7 1_555 1_555
O40 Al5 1_555 1_555
O42 Al7 1_555 1_555
O43 Al7 1_555 1_555
O44 Cd5 1_555 1_555
C137 O42 1_555 1_555
O46 Cd7 1_555 1_555
C138 C137 1_555 1_555
C139 C138 1_555 1_555
H129 C139 1_555 1_555
C140 C139 1_555 1_555
H130 C140 1_555 1_555
C141 C140 1_555 1_555
H131 C141 1_555 1_555
C142 C141 1_555 1_555
C143 C138 1_555 1_555
H133 C143 1_555 1_555
C144 O43 1_555 1_555
O47 C137 1_555 1_555
H141 C154 1_555 1_555
C155 C154 1_555 1_555
H142 C155 1_555 1_555
C156 C144 1_555 1_555
C158 O39 1_555 1_555
C159 C158 1_555 1_555
C160 C159 1_555 1_555
H144 C160 1_555 1_555
C161 C160 1_555 1_555
H147 C163 1_555 1_555
C164 C159 1_555 1_555
H148 C164 1_555 1_555
Cd8 O47 1_555 1_555
Al8 O30 1_555 1_555
O48 Al8 1_555 1_555
O49 Al5 1_555 1_555
O51 Al8 1_555 1_555
O52 Al8 1_555 1_555
O53 Cd5 1_555 1_555
C165 O51 1_555 1_555
O55 Cd8 1_555 1_555
C166 C165 1_555 1_555
C167 C166 1_555 1_555
H149 C167 1_555 1_555
C168 C167 1_555 1_555
H150 C168 1_555 1_555
C169 C168 1_555 1_555
H151 C169 1_555 1_555
C170 C169 1_555 1_555
H152 C170 1_555 1_555
C171 C166 1_555 1_555
H153 C171 1_555 1_555
C172 O52 1_555 1_555
O56 Cd6 1_555 1_555
H161 C182 1_555 1_555
C183 C182 1_555 1_555
H162 C183 1_555 1_555
C184 C172 1_555 1_555
C186 O48 1_555 1_555
C187 C186 1_555 1_555
C188 C187 1_555 1_555
H164 C188 1_555 1_555
C189 C188 1_555 1_555
H167 C191 1_555 1_555
C192 C187 1_555 1_555
H168 C192 1_555 1_555
Cd9 N3 1_555 1_555
N9 Cd6 1_555 1_555
N10 Cd7 1_555 1_555
N11 Cd8 1_555 1_555
Al2 O12 1_555 1_555
O5 Al4 1_555 1_555
O8 C11 1_555 1_555
O9 C9 1_555 1_555
C7 C8 1_555 1_555
C13 C14 1_555 1_555
C16 C17 1_555 1_555
C21 C22 1_555 1_555
C22 C23 1_555 1_555
C29 C30 1_555 1_555
N3 C34 1_555 1_555
N3 C35 1_555 1_555
N4 C39 1_555 1_555
N4 C40 1_555 1_555
Cd3 O12 1_555 1_555
Al3 O12 1_555 1_555
Al3 O21 1_555 1_555
O16 C63 1_555 1_555
O17 C50 1_555 1_555
O18 C49 1_555 1_555
C47 C48 1_555 1_555
C52 C53 1_555 1_555
C55 C56 1_555 1_555
C60 C61 1_555 1_555
C61 C62 1_555 1_555
C68 C69 1_555 1_555
Cd4 O21 1_555 1_555
Al4 O21 1_555 1_555
O25 C97 1_555 1_555
O26 C84 1_555 1_555
C75 O28 1_555 1_555
O27 C83 1_555 1_555
C81 C82 1_555 1_555
C86 C87 1_555 1_555
C89 C90 1_555 1_555
C94 C95 1_555 1_555
C95 C96 1_555 1_555
C102 C103 1_555 1_555
Al6 O33 1_555 1_555
Al6 O40 1_555 1_555
O33 Al8 1_555 1_555
O37 C116 1_555 1_555
C114 C115 1_555 1_555
C127 C128 1_555 1_555
C135 C136 1_555 1_555
Cd7 O40 1_555 1_555
Al7 O40 1_555 1_555
Al7 O49 1_555 1_555
O44 C158 1_555 1_555
O46 C144 1_555 1_555
C142 C143 1_555 1_555
C155 C156 1_555 1_555
C163 C164 1_555 1_555
Cd8 O49 1_555 1_555
Al8 O49 1_555 1_555
O53 C186 1_555 1_555
C165 O56 1_555 1_555
O55 C172 1_555 1_555
C170 C171 1_555 1_555
C183 C184 1_555 1_555
C191 C192 1_555 1_555
C117 O31 1_555 1_555
C118 H114 1_555 1_555
C119 C118 1_555 1_555
H115 C119 1_555 1_555
C120 C117 1_555 1_555
C121 C120 1_555 1_555
H116 C121 1_555 1_555
C122 C121 1_555 1_555
H117 C122 1_555 1_555
C123 C118 1_555 1_555
H118 C123 1_555 1_555
C124 H119 1_555 1_555
C125 C124 1_555 1_555
H120 C125 1_555 1_555
C129 C124 1_555 1_555
H123 C129 1_555 1_555
C145 O41 1_555 1_555
C146 H134 1_555 1_555
C147 C146 1_555 1_555
H135 C147 1_555 1_555
C148 C145 1_555 1_555
C149 C148 1_555 1_555
H136 C149 1_555 1_555
C150 C149 1_555 1_555
H137 C150 1_555 1_555
C151 C146 1_555 1_555
H138 C151 1_555 1_555
C152 H139 1_555 1_555
C153 C152 1_555 1_555
H140 C153 1_555 1_555
C157 C152 1_555 1_555
H143 C157 1_555 1_555
C173 O50 1_555 1_555
C174 H154 1_555 1_555
C175 C174 1_555 1_555
H155 C175 1_555 1_555
C176 C173 1_555 1_555
C177 C176 1_555 1_555
H156 C177 1_555 1_555
C178 C177 1_555 1_555
H157 C178 1_555 1_555
C179 C174 1_555 1_555
H158 C179 1_555 1_555
C180 H159 1_555 1_555
C181 C180 1_555 1_555
H160 C181 1_555 1_555
C185 C180 1_555 1_555
H163 C185 1_555 1_555
O36 C117 1_555 1_555
C119 C120 1_555 1_555
C122 C123 1_555 1_555
O45 C145 1_555 1_555
C147 C148 1_555 1_555
C150 C151 1_555 1_555
O54 C173 1_555 1_555
C175 C176 1_555 1_555
C178 C179 1_555 1_555
H96 C101 1_555 1_555
N8 C106 1_555 1_555
H103 C106 1_555 1_555
H104 C106 1_555 1_555
H105 C107 1_555 1_555
H106 C107 1_555 1_555
H107 C108 1_555 1_555
H108 C108 1_555 1_555
H166 C190 1_555 1_555
Cd10 N8 1_555 1_555
N8 C107 1_555 1_555
N8 C108 1_555 1_555
H75_2 C74_2 1_555 1_555
H76_2 C74_2 1_555 1_555
N6_2 C72_2 1_555 1_555
H71_2 C72_2 1_555 1_555
H72_2 C72_2 1_555 1_555
H73_2 C73_2 1_555 1_555
Cd11_2 N6_2 1_555 1_555
N6_2 C73_2 1_555 1_555
C2_2 N9 1_555 1_555
H1_2 C2_2 1_555 1_555
H2_2 C2_2 1_555 1_555
C31_2 N9 1_555 1_555
H25_2 C31_2 1_555 1_555
C35_2 C2_2 1_555 1_555
H33_2 C35_2 1_555 1_555
H34_2 C35_2 1_555 1_555
C42_2 N10 1_555 1_555
H45_2 C42_2 1_555 1_555
H46_2 C42_2 1_555 1_555
C70_2 N10 1_555 1_555
H67_2 C70_2 1_555 1_555
C76_2 N11 1_555 1_555
H77_2 C76_2 1_555 1_555
H78_2 C76_2 1_555 1_555
C104_2 N11 1_555 1_555
H99_2 C104_2 1_555 1_555
H27_2 C32_2 1_555 1_555
H28_2 C32_2 1_555 1_555
N3_2 C33_2 1_555 1_555
C33_2 C32_2 1_555 1_555
H29_2 C33_2 1_555 1_555
H30_2 C33_2 1_555 1_555
H31_2 C34_2 1_555 1_555
H69_2 C71_2 1_555 1_555
H70_2 C71_2 1_555 1_555
H101_2 C105_2 1_555 1_555
H102_2 C105_2 1_555 1_555
Cd9_2 N3_2 1_555 1_555
N3_2 C34_2 1_555 1_555
H107_2 C108_2 1_555 1_555
H108_2 C108_2 1_555 1_555
N8_2 C106_2 1_555 1_555
H103_2 C106_2 1_555 1_555
H104_2 C106_2 1_555 1_555
H105_2 C107_2 1_555 1_555
Cd10_2 N8_2 1_555 1_555
N8_2 C107_2 1_555 1_555
H64_2 C67_2 1_555 1_555
H146_2 C162_2 1_555 1_555
C117_2 O31_2 1_555 1_555
C118_2 H114_2 1_555 1_555
C119_2 C118_2 1_555 1_555
H115_2 C119_2 1_555 1_555
C120_2 C117_2 1_555 1_555
C121_2 C120_2 1_555 1_555
H116_2 C121_2 1_555 1_555
C122_2 C121_2 1_555 1_555
H117_2 C122_2 1_555 1_555
C123_2 C118_2 1_555 1_555
H118_2 C123_2 1_555 1_555
C124_2 H119_2 1_555 1_555
C125_2 C124_2 1_555 1_555
H120_2 C125_2 1_555 1_555
C129_2 C124_2 1_555 1_555
H123_2 C129_2 1_555 1_555
C145_2 O41_2 1_555 1_555
C146_2 H134_2 1_555 1_555
C147_2 C146_2 1_555 1_555
H135_2 C147_2 1_555 1_555
C148_2 C145_2 1_555 1_555
C149_2 C148_2 1_555 1_555
H136_2 C149_2 1_555 1_555
C150_2 C149_2 1_555 1_555
H137_2 C150_2 1_555 1_555
C151_2 C146_2 1_555 1_555
H138_2 C151_2 1_555 1_555
C152_2 H139_2 1_555 1_555
C153_2 C152_2 1_555 1_555
H140_2 C153_2 1_555 1_555
C157_2 C152_2 1_555 1_555
H143_2 C157_2 1_555 1_555
C173_2 O50_2 1_555 1_555
C174_2 H154_2 1_555 1_555
C175_2 C174_2 1_555 1_555
H155_2 C175_2 1_555 1_555
C176_2 C173_2 1_555 1_555
C177_2 C176_2 1_555 1_555
H156_2 C177_2 1_555 1_555
C178_2 C177_2 1_555 1_555
H157_2 C178_2 1_555 1_555
C179_2 C174_2 1_555 1_555
H158_2 C179_2 1_555 1_555
C180_2 H159_2 1_555 1_555
C181_2 C180_2 1_555 1_555
H160_2 C181_2 1_555 1_555
C185_2 C180_2 1_555 1_555
H163_2 C185_2 1_555 1_555
O36_2 C117_2 1_555 1_555
C119_2 C120_2 1_555 1_555
C122_2 C123_2 1_555 1_555
O45_2 C145_2 1_555 1_555
C147_2 C148_2 1_555 1_555
C150_2 C151_2 1_555 1_555
O54_2 C173_2 1_555 1_555
C175_2 C176_2 1_555 1_555
C178_2 C179_2 1_555 1_555
Cd1_2 O5_2 1_555 1_555
Cd9 O2_2 1_555 1_555
Al1_2 O2_2 1_555 1_555
Al2_2 O1_2 1_555 1_555
O1_2 C24_2 1_555 1_555
O2_2 Al2_2 1_555 1_555
O3_2 Al1_2 1_555 1_555
O4_2 Al2_2 1_555 1_555
O5_2 Al2_2 1_555 1_555
O6_2 Al2_2 1_555 1_555
O7_2 Cd1_2 1_555 1_555
O8_2 Cd9 1_555 1_555
N2_2 Cd1_2 1_555 1_555
C1_2 O4_2 1_555 1_555
O9_2 Cd9 1_555 1_555
C3_2 C1_2 1_555 1_555
C4_2 C3_2 1_555 1_555
H3_2 C4_2 1_555 1_555
C5_2 C4_2 1_555 1_555
H4_2 C5_2 1_555 1_555
C6_2 C5_2 1_555 1_555
H5_2 C6_2 1_555 1_555
C7_2 C6_2 1_555 1_555
C8_2 C3_2 1_555 1_555
H7_2 C8_2 1_555 1_555
C9_2 O6_2 1_555 1_555
O10_2 C1_2 1_555 1_555
C10_2 N2_2 1_555 1_555
H8_2 C10_2 1_555 1_555
H9_2 C10_2 1_555 1_555
C11_2 O3_2 1_555 1_555
C12_2 H10_2 1_555 1_555
C13_2 C12_2 1_555 1_555
H11_2 C13_2 1_555 1_555
C14_2 C11_2 1_555 1_555
C15_2 C14_2 1_555 1_555
H12_2 C15_2 1_555 1_555
C16_2 C15_2 1_555 1_555
H13_2 C16_2 1_555 1_555
C17_2 C12_2 1_555 1_555
H14_2 C17_2 1_555 1_555
C18_2 H15_2 1_555 1_555
C19_2 C18_2 1_555 1_555
H16_2 C19_2 1_555 1_555
C20_2 C19_2 1_555 1_555
H17_2 C20_2 1_555 1_555
C21_2 C20_2 1_555 1_555
H18_2 C21_2 1_555 1_555
C22_2 C9_2 1_555 1_555
C23_2 C18_2 1_555 1_555
H19_2 C23_2 1_555 1_555
C24_2 O7_2 1_555 1_555
C25_2 C24_2 1_555 1_555
C26_2 C25_2 1_555 1_555
H20_2 C26_2 1_555 1_555
C27_2 C26_2 1_555 1_555
H21_2 C27_2 1_555 1_555
C28_2 C27_2 1_555 1_555
H22_2 C28_2 1_555 1_555
C29_2 C28_2 1_555 1_555
H23_2 C29_2 1_555 1_555
C30_2 C25_2 1_555 1_555
H24_2 C30_2 1_555 1_555
C36_2 N2_2 1_555 1_555
H35_2 C36_2 1_555 1_555
H36_2 C36_2 1_555 1_555
C37_2 N2_2 1_555 1_555
H37_2 C37_2 1_555 1_555
H38_2 C37_2 1_555 1_555
N4_2 C38_2 1_555 1_555
C38_2 C10_2 1_555 1_555
H39_2 C38_2 1_555 1_555
H40_2 C38_2 1_555 1_555
C39_2 C36_2 1_555 1_555
H41_2 C39_2 1_555 1_555
H42_2 C39_2 1_555 1_555
C40_2 C37_2 1_555 1_555
H43_2 C40_2 1_555 1_555
H44_2 C40_2 1_555 1_555
Cd10 O10_2 1_555 1_555
Al3_2 O5_2 1_555 1_555
O11_2 Al3_2 1_555 1_555
O12_2 Al1_2 1_555 1_555
O13_2 Al1_2 1_555 1_555
O14_2 Al3_2 1_555 1_555
O15_2 Al3_2 1_555 1_555
O16_2 Cd1_2 1_555 1_555
O17_2 Cd10 1_555 1_555
C41_2 O14_2 1_555 1_555
O18_2 Cd10 1_555 1_555
C43_2 C41_2 1_555 1_555
C44_2 C43_2 1_555 1_555
H47_2 C44_2 1_555 1_555
C45_2 C44_2 1_555 1_555
H48_2 C45_2 1_555 1_555
C46_2 C45_2 1_555 1_555
H49_2 C46_2 1_555 1_555
C47_2 C46_2 1_555 1_555
C48_2 C43_2 1_555 1_555
H51_2 C48_2 1_555 1_555
C49_2 O15_2 1_555 1_555
O19_2 C41_2 1_555 1_555
C50_2 O13_2 1_555 1_555
C51_2 H52_2 1_555 1_555
C52_2 C51_2 1_555 1_555
H53_2 C52_2 1_555 1_555
C53_2 C50_2 1_555 1_555
C54_2 C53_2 1_555 1_555
H54_2 C54_2 1_555 1_555
C55_2 C54_2 1_555 1_555
H55_2 C55_2 1_555 1_555
C56_2 C51_2 1_555 1_555
H56_2 C56_2 1_555 1_555
C57_2 H57_2 1_555 1_555
C58_2 C57_2 1_555 1_555
H58_2 C58_2 1_555 1_555
C59_2 C58_2 1_555 1_555
H59_2 C59_2 1_555 1_555
C60_2 C59_2 1_555 1_555
H60_2 C60_2 1_555 1_555
C61_2 C49_2 1_555 1_555
C62_2 C57_2 1_555 1_555
H61_2 C62_2 1_555 1_555
C63_2 O11_2 1_555 1_555
C64_2 C63_2 1_555 1_555
C65_2 C64_2 1_555 1_555
H62_2 C65_2 1_555 1_555
C66_2 C65_2 1_555 1_555
H65_2 C68_2 1_555 1_555
C69_2 C64_2 1_555 1_555
H66_2 C69_2 1_555 1_555
Cd11 O19_2 1_555 1_555
Al4_2 O2_2 1_555 1_555
O20_2 Al4_2 1_555 1_555
O21_2 Al1_2 1_555 1_555
O22_2 Al1_2 1_555 1_555
O23_2 Al4_2 1_555 1_555
O24_2 Al4_2 1_555 1_555
O25_2 Cd1_2 1_555 1_555
O26_2 Cd11 1_555 1_555
C75_2 O23_2 1_555 1_555
O27_2 Cd11 1_555 1_555
C77_2 C75_2 1_555 1_555
C78_2 C77_2 1_555 1_555
H79_2 C78_2 1_555 1_555
C79_2 C78_2 1_555 1_555
H80_2 C79_2 1_555 1_555
C80_2 C79_2 1_555 1_555
H81_2 C80_2 1_555 1_555
C81_2 C80_2 1_555 1_555
H82_2 C81_2 1_555 1_555
C82_2 C77_2 1_555 1_555
H83_2 C82_2 1_555 1_555
C83_2 O24_2 1_555 1_555
O28_2 Cd9 1_555 1_555
C84_2 O22_2 1_555 1_555
C85_2 H84_2 1_555 1_555
C86_2 C85_2 1_555 1_555
H85_2 C86_2 1_555 1_555
C87_2 C84_2 1_555 1_555
C88_2 C87_2 1_555 1_555
H86_2 C88_2 1_555 1_555
C89_2 C88_2 1_555 1_555
H87_2 C89_2 1_555 1_555
C90_2 C85_2 1_555 1_555
H88_2 C90_2 1_555 1_555
C91_2 H89_2 1_555 1_555
C92_2 C91_2 1_555 1_555
H90_2 C92_2 1_555 1_555
C93_2 C92_2 1_555 1_555
H91_2 C93_2 1_555 1_555
C94_2 C93_2 1_555 1_555
H92_2 C94_2 1_555 1_555
C95_2 C83_2 1_555 1_555
C96_2 C91_2 1_555 1_555
H93_2 C96_2 1_555 1_555
C97_2 O20_2 1_555 1_555
C98_2 C97_2 1_555 1_555
C99_2 C98_2 1_555 1_555
H94_2 C99_2 1_555 1_555
C100_2 C99_2 1_555 1_555
H97_2 C102_2 1_555 1_555
C103_2 C98_2 1_555 1_555
H98_2 C103_2 1_555 1_555
Cd5_2 N4_2 1_555 1_555
Cd9_2 O30_2 1_555 1_555
Al5_2 O30_2 1_555 1_555
Al6_2 O29_2 1_555 1_555
O29_2 C130_2 1_555 1_555
O30_2 Al6_2 1_555 1_555
O32_2 Al6_2 1_555 1_555
O33_2 Cd5_2 1_555 1_555
O34_2 Al6_2 1_555 1_555
O35_2 Cd5_2 1_555 1_555
C109_2 O32_2 1_555 1_555
O37_2 Cd9_2 1_555 1_555
C110_2 C109_2 1_555 1_555
C111_2 C110_2 1_555 1_555
H109_2 C111_2 1_555 1_555
C112_2 C111_2 1_555 1_555
H110_2 C112_2 1_555 1_555
C113_2 C112_2 1_555 1_555
H111_2 C113_2 1_555 1_555
C114_2 C113_2 1_555 1_555
C115_2 C110_2 1_555 1_555
H113_2 C115_2 1_555 1_555
C116_2 O34_2 1_555 1_555
O38_2 C109_2 1_555 1_555
H121_2 C126_2 1_555 1_555
C127_2 C126_2 1_555 1_555
H122_2 C127_2 1_555 1_555
C128_2 C116_2 1_555 1_555
C130_2 O35_2 1_555 1_555
C131_2 C130_2 1_555 1_555
C132_2 C131_2 1_555 1_555
H124_2 C132_2 1_555 1_555
C133_2 C132_2 1_555 1_555
H125_2 C133_2 1_555 1_555
C134_2 C133_2 1_555 1_555
H126_2 C134_2 1_555 1_555
C135_2 C134_2 1_555 1_555
H127_2 C135_2 1_555 1_555
C136_2 C131_2 1_555 1_555
H128_2 C136_2 1_555 1_555
Cd10_2 O38_2 1_555 1_555
Al7_2 O33_2 1_555 1_555
O39_2 Al7_2 1_555 1_555
O40_2 Al5_2 1_555 1_555
O42_2 Al7_2 1_555 1_555
O43_2 Al7_2 1_555 1_555
O44_2 Cd5_2 1_555 1_555
C137_2 O42_2 1_555 1_555
O46_2 Cd10_2 1_555 1_555
C138_2 C137_2 1_555 1_555
C139_2 C138_2 1_555 1_555
H129_2 C139_2 1_555 1_555
C140_2 C139_2 1_555 1_555
H130_2 C140_2 1_555 1_555
C141_2 C140_2 1_555 1_555
H131_2 C141_2 1_555 1_555
C142_2 C141_2 1_555 1_555
C143_2 C138_2 1_555 1_555
H133_2 C143_2 1_555 1_555
C144_2 O43_2 1_555 1_555
O47_2 C137_2 1_555 1_555
H141_2 C154_2 1_555 1_555
C155_2 C154_2 1_555 1_555
H142_2 C155_2 1_555 1_555
C156_2 C144_2 1_555 1_555
C158_2 O39_2 1_555 1_555
C159_2 C158_2 1_555 1_555
C160_2 C159_2 1_555 1_555
H144_2 C160_2 1_555 1_555
C161_2 C160_2 1_555 1_555
H147_2 C163_2 1_555 1_555
C164_2 C159_2 1_555 1_555
H148_2 C164_2 1_555 1_555
Cd11_2 O47_2 1_555 1_555
Al8_2 O30_2 1_555 1_555
O48_2 Al8_2 1_555 1_555
O49_2 Al5_2 1_555 1_555
O51_2 Al8_2 1_555 1_555
O52_2 Al8_2 1_555 1_555
O53_2 Cd5_2 1_555 1_555
C165_2 O51_2 1_555 1_555
O55_2 Cd11_2 1_555 1_555
C166_2 C165_2 1_555 1_555
C167_2 C166_2 1_555 1_555
H149_2 C167_2 1_555 1_555
C168_2 C167_2 1_555 1_555
H150_2 C168_2 1_555 1_555
C169_2 C168_2 1_555 1_555
H151_2 C169_2 1_555 1_555
C170_2 C169_2 1_555 1_555
H152_2 C170_2 1_555 1_555
C171_2 C166_2 1_555 1_555
H153_2 C171_2 1_555 1_555
C172_2 O52_2 1_555 1_555
O56_2 Cd9_2 1_555 1_555
H161_2 C182_2 1_555 1_555
C183_2 C182_2 1_555 1_555
H162_2 C183_2 1_555 1_555
C184_2 C172_2 1_555 1_555
C186_2 O48_2 1_555 1_555
C187_2 C186_2 1_555 1_555
C188_2 C187_2 1_555 1_555
H164_2 C188_2 1_555 1_555
C189_2 C188_2 1_555 1_555
H167_2 C191_2 1_555 1_555
C192_2 C187_2 1_555 1_555
H168_2 C192_2 1_555 1_555
Al2_2 O12_2 1_555 1_555
O5_2 Al4_2 1_555 1_555
O8_2 C11_2 1_555 1_555
O9_2 C9_2 1_555 1_555
C7_2 C8_2 1_555 1_555
C13_2 C14_2 1_555 1_555
C16_2 C17_2 1_555 1_555
C21_2 C22_2 1_555 1_555
C22_2 C23_2 1_555 1_555
C29_2 C30_2 1_555 1_555
N4_2 C39_2 1_555 1_555
N4_2 C40_2 1_555 1_555
Cd10 O12_2 1_555 1_555
Al3_2 O12_2 1_555 1_555
Al3_2 O21_2 1_555 1_555
O16_2 C63_2 1_555 1_555
O17_2 C50_2 1_555 1_555
O18_2 C49_2 1_555 1_555
C47_2 C48_2 1_555 1_555
C52_2 C53_2 1_555 1_555
C55_2 C56_2 1_555 1_555
C60_2 C61_2 1_555 1_555
C61_2 C62_2 1_555 1_555
C68_2 C69_2 1_555 1_555
Cd11 O21_2 1_555 1_555
Al4_2 O21_2 1_555 1_555
O25_2 C97_2 1_555 1_555
O26_2 C84_2 1_555 1_555
C75_2 O28_2 1_555 1_555
O27_2 C83_2 1_555 1_555
C81_2 C82_2 1_555 1_555
C86_2 C87_2 1_555 1_555
C89_2 C90_2 1_555 1_555
C94_2 C95_2 1_555 1_555
C95_2 C96_2 1_555 1_555
C102_2 C103_2 1_555 1_555
Al6_2 O33_2 1_555 1_555
Al6_2 O40_2 1_555 1_555
O33_2 Al8_2 1_555 1_555
O37_2 C116_2 1_555 1_555
C114_2 C115_2 1_555 1_555
C127_2 C128_2 1_555 1_555
C135_2 C136_2 1_555 1_555
Cd10_2 O40_2 1_555 1_555
Al7_2 O40_2 1_555 1_555
Al7_2 O49_2 1_555 1_555
O44_2 C158_2 1_555 1_555
O46_2 C144_2 1_555 1_555
C142_2 C143_2 1_555 1_555
C155_2 C156_2 1_555 1_555
C163_2 C164_2 1_555 1_555
Cd11_2 O49_2 1_555 1_555
Al8_2 O49_2 1_555 1_555
O53_2 C186_2 1_555 1_555
C165_2 O56_2 1_555 1_555
O55_2 C172_2 1_555 1_555
C170_2 C171_2 1_555 1_555
C183_2 C184_2 1_555 1_555
C191_2 C192_2 1_555 1_555
H96_2 C101_2 1_555 1_555
H166_2 C190_2 1_555 1_555

#END
