
###############################################################################
#
# This file contains modified crystal structure data generated from the
# MOF subset of the Cambridge Structural Database (CSD) v543 
# hosted by the Cambridge Crystallographic Data Centre (CCDC).
#
# This work is licensed under the Creative Commons
# Attribution-NonCommercial-ShareAlike 4.0 International License.
# To view a copy of this license, visit
# http://creativecommons.org/licenses/by-nc-sa/4.0/
# or send a letter to
# Creative Commons, PO Box 1866, Mountain View, CA 94042, USA.
#
# CIF created using the CSD Python API on 29 September 2022
# The structure has been converted into the P1 space group
# The structure has a 3D framework
# The original CSD entry NECJEO is in the hexagonal crystal system
# The framework has been calculated to contain at least 10.0% void space
# The void calculation uses a probe of radius 1.32A, grid spacing 0.4
#
###############################################################################

data_NECJEO
_chemical_formula_moiety         '(C384 H336 Al16 N16 O112 Zn16)n'
_symmetry_cell_setting           triclinic
_symmetry_space_group_name_H-M   'P 1'
_symmetry_Int_Tables_number      1
_space_group_name_Hall           'P 1'
loop_
_symmetry_equiv_pos_site_id
_symmetry_equiv_pos_as_xyz
1 x,y,z
_cell_length_a                   22.8185(4)
_cell_length_b                   22.8185(4)
_cell_length_c                   37.3420(8)
_cell_angle_alpha                90
_cell_angle_beta                 90
_cell_angle_gamma                120
_cell_volume                     16838.5
loop_
_atom_site_label
_atom_site_type_symbol
_atom_site_fract_x
_atom_site_fract_y
_atom_site_fract_z
H59 H 0.635653 0.001495 0.617128
C64 C 0.6022(8) 0.0022(11) 0.6664(4)
H62 H 0.636746 0.045487 0.671977
C81 C 0.5418(4) 0.0168(3) 0.46442(18)
H77 H 0.588906 0.028835 0.466419
H78 H 0.533285 0.023281 0.439697
C93 C 0.4228(9) 0.0047(6) 0.6577(4)
H89 H 0.458072 0.049269 0.657002
H100 H 0.369340 0.002783 0.703409
N8 N 0.5290(3) 0.06270(19) 0.48813(11)
C107 C 0.4576(3) 0.0350(3) 0.49049(19)
H105 H 0.439018 0.030094 0.466583
H106 H 0.448106 0.066024 0.503657
C108 C 0.5544(3) 0.0579(3) 0.52538(16)
H107 H 0.540593 0.080109 0.542813
H108 H 0.603448 0.080465 0.525356
H139 H 0.635653 0.001495 0.882872
C158 C 0.6022(8) 0.0022(11) 0.8336(4)
H142 H 0.636746 0.045487 0.828023
C181 C 0.4228(9) 0.0047(6) 0.8423(4)
H157 H 0.458072 0.049269 0.842998
H168 H 0.369340 0.002783 0.796591
Zn9 Zn 0.58333(4) 0.16615(3) 0.46904(2)
O31 O 0.2965(2) 0.58924(14) 0.01498(8)
O35 O 0.1864(2) 0.5472(2) 0.01582(12)
C109 C 0.2389(3) 0.5518(3) 0.02647(16)
C116 C 0.2334(5) 0.5037(4) 0.0573(2)
C119 C 0.2957(5) 0.5107(6) 0.0713(2)
H111 H 0.337239 0.545484 0.063350
H112 H 0.280909 0.373619 0.001653
C122 C 0.1765(6) 0.4546(6) 0.0708(4)
H114 H 0.135872 0.446184 0.060538
C128 C 0.1144(10) 0.2817(10) 0.0020(5)
H120 H 0.080008 0.237800 0.006720
C129 C 0.2307(9) 0.4219(8) 0.1094(4)
H121 H 0.230841 0.394140 0.127602
C132 C 0.2931(7) 0.4706(8) 0.0936(4)
H124 H 0.332825 0.471794 0.100575
C133 C 0.1742(8) 0.4155(7) 0.0990(4)
H125 H 0.133637 0.385668 0.110129
C135 C 0.1845(8) 0.3018(6) 0.0162(4)
H127 H 0.193015 0.278385 0.033945
O41 O 0.41076(14) 0.70726(24) 0.01498(8)
O44 O 0.4528(2) 0.6392(3) 0.01582(12)
C137 C 0.4482(3) 0.6871(4) 0.02647(16)
C144 C 0.4963(4) 0.7297(6) 0.0573(2)
C147 C 0.4893(6) 0.7850(8) 0.0713(2)
H131 H 0.454516 0.791755 0.063350
H132 H 0.626381 0.907290 0.001653
C150 C 0.5454(6) 0.7219(8) 0.0708(4)
H134 H 0.553816 0.689688 0.060538
C156 C 0.7183(10) 0.8327(14) 0.0020(5)
H140 H 0.762200 0.842208 0.006720
C157 C 0.5781(8) 0.8088(12) 0.1094(4)
H141 H 0.605860 0.836701 0.127602
C160 C 0.5294(8) 0.8225(11) 0.0936(4)
H144 H 0.528206 0.861031 0.100575
C161 C 0.5845(7) 0.7587(11) 0.0990(4)
H145 H 0.614332 0.747969 0.110129
C163 C 0.6982(6) 0.8827(10) 0.0162(4)
H147 H 0.721615 0.914630 0.033945
O50 O 0.29274(24) 0.7035(2) 0.01498(8)
O53 O 0.3608(3) 0.8136(2) 0.01582(12)
C165 C 0.3129(4) 0.7611(3) 0.02647(16)
C172 C 0.2703(6) 0.7666(5) 0.0573(2)
C175 C 0.2150(8) 0.7043(5) 0.0713(2)
H151 H 0.208245 0.662761 0.063350
H152 H 0.092710 0.719091 0.001653
C178 C 0.2781(8) 0.8235(6) 0.0708(4)
H154 H 0.310312 0.864128 0.060538
C184 C 0.1673(14) 0.8856(10) 0.0020(5)
H160 H 0.157792 0.919992 0.006720
C185 C 0.1912(12) 0.7693(9) 0.1094(4)
H161 H 0.163299 0.769159 0.127602
C188 C 0.1775(11) 0.7069(7) 0.0936(4)
H164 H 0.138969 0.667175 0.100575
C189 C 0.2413(11) 0.8258(8) 0.0990(4)
H165 H 0.252031 0.866363 0.110129
C191 C 0.1173(10) 0.8155(8) 0.0162(4)
H167 H 0.085370 0.806985 0.033945
Zn1 Zn 0.333333 0.666667 0.65663(2)
Zn2 Zn 0.16615(3) 0.58333(4) 0.53096(2)
Al1 Al 0.333333 0.666667 0.51580(6)
Al2 Al 0.29190(10) 0.58395(6) 0.57795(3)
O1 O 0.25997(14) 0.6301(2) 0.54857(7)
O2 O 0.32952(19) 0.5411(2) 0.60636(10)
O3 O 0.2965(2) 0.58924(14) 0.48502(8)
O4 O 0.3361(2) 0.5774(2) 0.66217(10)
O5 O 0.2493(2) 0.50320(14) 0.55020(8)
O6 O 0.333333 0.666667 0.60333(12)
O7 O 0.1864(2) 0.5472(2) 0.48418(12)
O8 O 0.21464(18) 0.54306(18) 0.60785(10)
O9 O 0.1256(2) 0.5171(2) 0.57385(11)
N1 N 0.06270(19) 0.5290(3) 0.51187(11)
O10 O 0.3304(2) 0.4876(2) 0.52905(12)
N2 N 0.333333 0.666667 0.71526(17)
C1 C 0.2389(3) 0.5518(3) 0.47353(16)
C2 C 0.1518(3) 0.5157(3) 0.60133(17)
C3 C 0.1065(4) 0.4740(4) 0.6323(3)
C4 C 0.3410(3) 0.5411(3) 0.63888(17)
C5 C 0.3626(5) 0.4915(5) 0.6495(2)
C6 C 0.2719(3) 0.4705(3) 0.53339(15)
C8 C 0.2186(4) 0.4009(4) 0.5226(2)
C9 C 0.3972(3) 0.6750(3) 0.72974(15)
H3 H 0.434691 0.717324 0.721151
H4 H 0.403569 0.638498 0.721151
C10 C 0.2334(5) 0.5037(4) 0.4427(2)
C11 C 0.0350(3) 0.4576(3) 0.50951(19)
H5 H 0.030094 0.439018 0.533417
H6 H 0.066024 0.448106 0.496343
C12 C 0.0358(5) 0.4459(7) 0.6337(3)
H7 H 0.016611 0.449138 0.612350
C13 C 0.1534(5) 0.3839(5) 0.5219(4)
H8 H 0.143481 0.418266 0.526076
C14 C 0.2957(5) 0.5107(6) 0.4287(2)
H9 H 0.337239 0.545484 0.436650
C15 C 0.2357(7) 0.3612(6) 0.5012(4)
H10 H 0.280909 0.373619 0.498347
C16 C 0.3661(6) 0.4509(6) 0.6260(3)
H11 H 0.361686 0.458850 0.602023
C17 C 0.1765(6) 0.4546(6) 0.4292(4)
H12 H 0.135872 0.446184 0.439462
C18 C 0.0986(7) 0.3190(8) 0.5154(5)
H13 H 0.054871 0.304820 0.523264
C19 C 0.3868(7) 0.4929(6) 0.6838(3)
H14 H 0.386431 0.522292 0.700914
C21 C 0.1361(5) 0.4734(5) 0.6649(3)
H16 H 0.182852 0.496973 0.667807
C22 C 0.3756(9) 0.3985(8) 0.6337(5)
H17 H 0.365842 0.364347 0.617128
C23 C 0.1144(10) 0.2817(10) 0.4980(5)
H18 H 0.080008 0.237800 0.493280
C24 C 0.2307(9) 0.4219(8) 0.3906(4)
H19 H 0.230841 0.394140 0.372398
C25 C 0.4000(8) 0.3978(8) 0.6664(4)
H20 H 0.408741 0.363254 0.671977
C26 C 0.4128(6) 0.4478(7) 0.6928(3)
H21 H 0.435838 0.451427 0.713934
C27 C 0.2931(7) 0.4706(8) 0.4064(4)
H22 H 0.332825 0.471794 0.399425
C28 C 0.1742(8) 0.4155(7) 0.4010(4)
H23 H 0.133637 0.385668 0.389871
C29 C 0.0943(6) 0.4370(6) 0.6925(3)
H24 H 0.112657 0.436271 0.714667
C30 C 0.1845(8) 0.3018(6) 0.4838(4)
H25 H 0.193015 0.278385 0.466055
C31 C 0.0247(7) 0.4011(7) 0.6877(3)
C32 C 0.0579(3) 0.5544(3) 0.47462(16)
H27 H 0.080109 0.540593 0.457187
H28 H 0.080465 0.603448 0.474644
C33 C 0.0168(3) 0.5418(4) 0.53558(18)
H29 H 0.028835 0.588906 0.533581
H30 H 0.023281 0.533285 0.560303
C36 C 0.3250(3) 0.7222(4) 0.72974(15)
H35 H 0.282676 0.717367 0.721151
H36 H 0.361502 0.765071 0.721151
C37 C 0.2778(4) 0.6028(3) 0.72974(15)
H37 H 0.282633 0.565309 0.721151
H38 H 0.234929 0.596431 0.721151
N4 N 0.333333 0.666667 0.78474(17)
C38 C 0.3972(3) 0.6750(3) 0.77026(15)
H39 H 0.434691 0.717324 0.778849
H40 H 0.403569 0.638498 0.778849
C39 C 0.3250(3) 0.7222(4) 0.77026(15)
H41 H 0.282676 0.717367 0.778849
H42 H 0.361502 0.765071 0.778849
C40 C 0.2778(4) 0.6028(3) 0.77026(15)
H43 H 0.282633 0.565309 0.778849
H44 H 0.234929 0.596431 0.778849
Zn3 Zn 0.41667(4) 0.58282(5) 0.53096(2)
Al3 Al 0.41605(6) 0.70795(12) 0.57795(3)
O11 O 0.3699(2) 0.62987(24) 0.54857(7)
O12 O 0.4589(2) 0.78842(28) 0.60636(10)
O13 O 0.41076(14) 0.70726(24) 0.48502(8)
O14 O 0.4226(2) 0.7587(3) 0.66217(10)
O15 O 0.49680(14) 0.74610(24) 0.55020(8)
O16 O 0.4528(2) 0.6392(3) 0.48418(12)
O17 O 0.45694(18) 0.67158(25) 0.60785(10)
O18 O 0.4829(2) 0.6085(3) 0.57385(11)
N5 N 0.4710(3) 0.53370(36) 0.51187(11)
O19 O 0.5124(2) 0.8428(3) 0.52905(12)
C41 C 0.4482(3) 0.6871(4) 0.47353(16)
C42 C 0.4843(3) 0.6361(4) 0.60133(17)
C43 C 0.5260(4) 0.6325(6) 0.6323(3)
C44 C 0.4589(3) 0.7999(4) 0.63888(17)
C45 C 0.5085(5) 0.8711(7) 0.6495(2)
C46 C 0.5295(3) 0.8014(4) 0.53339(15)
C47 C 0.4750(3) 0.4582(4) 0.46442(18)
H45 H 0.439929 0.411094 0.466419
H46 H 0.489996 0.466715 0.439697
C48 C 0.5991(4) 0.8177(6) 0.5226(2)
C49 C 0.4963(4) 0.7297(6) 0.4427(2)
C50 C 0.5424(3) 0.5774(4) 0.50951(19)
H47 H 0.560982 0.591076 0.533417
H48 H 0.551894 0.617918 0.496343
C51 C 0.5541(7) 0.5899(9) 0.6337(3)
H49 H 0.550862 0.567473 0.612350
C52 C 0.6161(5) 0.7695(7) 0.5219(4)
H50 H 0.581734 0.725215 0.526076
C53 C 0.4893(6) 0.7850(8) 0.4287(2)
H51 H 0.454516 0.791755 0.436650
C54 C 0.6388(6) 0.8745(9) 0.5012(4)
H52 H 0.626381 0.907290 0.498347
C55 C 0.5491(6) 0.9152(8) 0.6260(3)
H53 H 0.541150 0.902836 0.602023
C56 C 0.5454(6) 0.7219(8) 0.4292(4)
H54 H 0.553816 0.689688 0.439462
C57 C 0.6810(8) 0.7796(11) 0.5154(5)
H55 H 0.695180 0.750051 0.523264
C58 C 0.5071(6) 0.8939(9) 0.6838(3)
H56 H 0.477708 0.864139 0.700914
C59 C 0.5819(7) 0.5772(9) 0.6577(4)
H57 H 0.591197 0.541928 0.657002
C60 C 0.5266(5) 0.6627(7) 0.6649(3)
H58 H 0.503027 0.685879 0.667807
C61 C 0.6015(8) 0.9771(12) 0.6337(5)
C62 C 0.7183(10) 0.8327(14) 0.4980(5)
H60 H 0.762200 0.842208 0.493280
C63 C 0.5781(8) 0.8088(12) 0.3906(4)
H61 H 0.605860 0.836701 0.372398
C65 C 0.5522(7) 0.9650(9) 0.6928(3)
H63 H 0.548573 0.984411 0.713934
C66 C 0.5294(8) 0.8225(11) 0.4064(4)
H64 H 0.528206 0.861031 0.399425
C67 C 0.5845(7) 0.7587(11) 0.4010(4)
H65 H 0.614332 0.747969 0.389871
C68 C 0.5630(6) 0.6573(8) 0.6925(3)
H66 H 0.563729 0.676386 0.714667
C69 C 0.6982(6) 0.8827(10) 0.4838(4)
H67 H 0.721615 0.914630 0.466055
C70 C 0.5989(7) 0.6236(10) 0.6877(3)
H68 H 0.633443 0.630660 0.703409
C71 C 0.4456(3) 0.5035(4) 0.47462(16)
H69 H 0.459407 0.539516 0.457187
H70 H 0.396552 0.477017 0.474644
N6 N 0.53370(36) 0.4710(3) 0.48813(11)
C72 C 0.4582(4) 0.4750(3) 0.53558(18)
H71 H 0.411094 0.439929 0.533581
H72 H 0.466715 0.489996 0.560303
C73 C 0.5774(4) 0.5424(3) 0.49049(19)
H73 H 0.591076 0.560982 0.466583
H74 H 0.617918 0.551894 0.503657
C74 C 0.5035(4) 0.4456(3) 0.52538(16)
H75 H 0.539516 0.459407 0.542813
H76 H 0.477017 0.396552 0.525356
Zn4 Zn 0.41718(5) 0.83385(3) 0.53096(2)
Al4 Al 0.29205(12) 0.70810(10) 0.57795(3)
O20 O 0.37013(24) 0.74003(14) 0.54857(7)
O21 O 0.21158(28) 0.67048(19) 0.60636(10)
O22 O 0.29274(24) 0.7035(2) 0.48502(8)
O23 O 0.2413(3) 0.6639(2) 0.66217(10)
O24 O 0.25390(24) 0.7507(2) 0.55020(8)
O25 O 0.3608(3) 0.8136(2) 0.48418(12)
O26 O 0.32842(25) 0.78536(18) 0.60785(10)
O27 O 0.3915(3) 0.8744(2) 0.57385(11)
N7 N 0.46630(36) 0.93730(19) 0.51187(11)
O28 O 0.1572(3) 0.6696(2) 0.52905(12)
C75 C 0.3129(4) 0.7611(3) 0.47353(16)
C76 C 0.3639(4) 0.8482(3) 0.60133(17)
C77 C 0.3675(6) 0.8935(4) 0.6323(3)
C78 C 0.2001(4) 0.6590(3) 0.63888(17)
C79 C 0.1289(7) 0.6374(5) 0.6495(2)
C80 C 0.1986(4) 0.7281(3) 0.53339(15)
C82 C 0.1823(6) 0.7814(4) 0.5226(2)
C83 C 0.2703(6) 0.7666(5) 0.4427(2)
C84 C 0.4226(4) 0.9650(3) 0.50951(19)
H79 H 0.408924 0.969906 0.533417
H80 H 0.382082 0.933976 0.496343
C85 C 0.4101(9) 0.9642(5) 0.6337(3)
H81 H 0.432527 0.983389 0.612350
C86 C 0.2305(7) 0.8466(5) 0.5219(4)
H82 H 0.274785 0.856519 0.526076
C87 C 0.2150(8) 0.7043(5) 0.4287(2)
H83 H 0.208245 0.662761 0.436650
C88 C 0.1255(9) 0.7643(7) 0.5012(4)
H84 H 0.092710 0.719091 0.498347
C89 C 0.0848(8) 0.6339(6) 0.6260(3)
H85 H 0.097164 0.638314 0.602023
C90 C 0.2781(8) 0.8235(6) 0.4292(4)
H86 H 0.310312 0.864128 0.439462
C91 C 0.2204(11) 0.9014(7) 0.5154(5)
H87 H 0.249949 0.945129 0.523264
C92 C 0.1061(9) 0.6132(7) 0.6838(3)
H88 H 0.135861 0.613569 0.700914
C94 C 0.3373(7) 0.8639(5) 0.6649(3)
H90 H 0.314121 0.817148 0.667807
C95 C 0.0229(12) 0.6244(9) 0.6337(5)
C96 C 0.1673(14) 0.8856(10) 0.4980(5)
H92 H 0.157792 0.919992 0.493280
C97 C 0.1912(12) 0.7693(9) 0.3906(4)
H93 H 0.163299 0.769159 0.372398
C99 C 0.0350(9) 0.5872(6) 0.6928(3)
H95 H 0.015589 0.564162 0.713934
C100 C 0.1775(11) 0.7069(7) 0.4064(4)
H96 H 0.138969 0.667175 0.399425
C101 C 0.2413(11) 0.8258(8) 0.4010(4)
H97 H 0.252031 0.866363 0.389871
C102 C 0.3427(8) 0.9057(6) 0.6925(3)
H98 H 0.323614 0.887343 0.714667
C103 C 0.1173(10) 0.8155(8) 0.4838(4)
H99 H 0.085370 0.806985 0.466055
C104 C 0.3764(10) 0.9753(7) 0.6877(3)
C105 C 0.4965(4) 0.9421(3) 0.47462(16)
H101 H 0.460484 0.919891 0.457187
H102 H 0.522983 0.919535 0.474644
C106 C 0.5250(3) 0.9832(3) 0.53558(18)
H103 H 0.560071 0.971165 0.533581
H104 H 0.510004 0.976719 0.560303
Zn5 Zn 0.333333 0.666667 0.84337(2)
Zn6 Zn 0.16615(3) 0.58333(4) 0.96904(2)
Al5 Al 0.333333 0.666667 0.98420(6)
Al6 Al 0.29190(10) 0.58395(6) 0.92205(3)
O29 O 0.25997(14) 0.6301(2) 0.95143(7)
O30 O 0.32952(19) 0.5411(2) 0.89364(10)
O32 O 0.3361(2) 0.5774(2) 0.83783(10)
O33 O 0.2493(2) 0.50320(14) 0.94980(8)
O34 O 0.333333 0.666667 0.89667(12)
O36 O 0.21464(18) 0.54306(18) 0.89215(10)
O37 O 0.1256(2) 0.5171(2) 0.92615(11)
O38 O 0.3304(2) 0.4876(2) 0.97095(12)
C110 C 0.1518(3) 0.5157(3) 0.89867(17)
C111 C 0.1065(4) 0.4740(4) 0.8677(3)
C112 C 0.3410(3) 0.5411(3) 0.86112(17)
C113 C 0.3626(5) 0.4915(5) 0.8505(2)
C114 C 0.2719(3) 0.4705(3) 0.96661(15)
C115 C 0.2186(4) 0.4009(4) 0.9774(2)
C117 C 0.0358(5) 0.4459(7) 0.8663(3)
H109 H 0.016611 0.449138 0.887650
C118 C 0.1534(5) 0.3839(5) 0.9781(4)
H110 H 0.143481 0.418266 0.973924
C120 C 0.2357(7) 0.3612(6) 0.9988(4)
C121 C 0.3661(6) 0.4509(6) 0.8740(3)
H113 H 0.361686 0.458850 0.897977
C123 C 0.0986(7) 0.3190(8) 0.9846(5)
H115 H 0.054871 0.304820 0.976736
C124 C 0.3868(7) 0.4929(6) 0.8162(3)
H116 H 0.386431 0.522292 0.799086
C126 C 0.1361(5) 0.4734(5) 0.8351(3)
H118 H 0.182852 0.496973 0.832193
C127 C 0.3756(9) 0.3985(8) 0.8663(5)
H119 H 0.365842 0.364347 0.882872
C130 C 0.4000(8) 0.3978(8) 0.8336(4)
H122 H 0.408741 0.363254 0.828023
C131 C 0.4128(6) 0.4478(7) 0.8072(3)
H123 H 0.435838 0.451427 0.786066
C134 C 0.0943(6) 0.4370(6) 0.8075(3)
H126 H 0.112657 0.436271 0.785333
C136 C 0.0247(7) 0.4011(7) 0.8123(3)
Zn7 Zn 0.41667(4) 0.58282(5) 0.96904(2)
Al7 Al 0.41605(6) 0.70795(12) 0.92205(3)
O39 O 0.3699(2) 0.62987(24) 0.95143(7)
O40 O 0.4589(2) 0.78842(28) 0.89364(10)
O42 O 0.4226(2) 0.7587(3) 0.83783(10)
O43 O 0.49680(14) 0.74610(24) 0.94980(8)
O45 O 0.45694(18) 0.67158(25) 0.89215(10)
O46 O 0.4829(2) 0.6085(3) 0.92615(11)
O47 O 0.5124(2) 0.8428(3) 0.97095(12)
C138 C 0.4843(3) 0.6361(4) 0.89867(17)
C139 C 0.5260(4) 0.6325(6) 0.8677(3)
C140 C 0.4589(3) 0.7999(4) 0.86112(17)
C141 C 0.5085(5) 0.8711(7) 0.8505(2)
C142 C 0.5295(3) 0.8014(4) 0.96661(15)
C143 C 0.5991(4) 0.8177(6) 0.9774(2)
C145 C 0.5541(7) 0.5899(9) 0.8663(3)
H129 H 0.550862 0.567473 0.887650
C146 C 0.6161(5) 0.7695(7) 0.9781(4)
H130 H 0.581734 0.725215 0.973924
C148 C 0.6388(6) 0.8745(9) 0.9988(4)
C149 C 0.5491(6) 0.9152(8) 0.8740(3)
H133 H 0.541150 0.902836 0.897977
C151 C 0.6810(8) 0.7796(11) 0.9846(5)
H135 H 0.695180 0.750051 0.976736
C152 C 0.5071(6) 0.8939(9) 0.8162(3)
H136 H 0.477708 0.864139 0.799086
C153 C 0.5819(7) 0.5772(9) 0.8423(4)
H137 H 0.591197 0.541928 0.842998
C154 C 0.5266(5) 0.6627(7) 0.8351(3)
H138 H 0.503027 0.685879 0.832193
C155 C 0.6015(8) 0.9771(12) 0.8663(5)
C159 C 0.5522(7) 0.9650(9) 0.8072(3)
H143 H 0.548573 0.984411 0.786066
C162 C 0.5630(6) 0.6573(8) 0.8075(3)
H146 H 0.563729 0.676386 0.785333
C164 C 0.5989(7) 0.6236(10) 0.8123(3)
H148 H 0.633443 0.630660 0.796591
Zn8 Zn 0.41718(5) 0.83385(3) 0.96904(2)
Al8 Al 0.29205(12) 0.70810(10) 0.92205(3)
O48 O 0.37013(24) 0.74003(14) 0.95143(7)
O49 O 0.21158(28) 0.67048(19) 0.89364(10)
O51 O 0.2413(3) 0.6639(2) 0.83783(10)
O52 O 0.25390(24) 0.7507(2) 0.94980(8)
O54 O 0.32842(25) 0.78536(18) 0.89215(10)
O55 O 0.3915(3) 0.8744(2) 0.92615(11)
O56 O 0.1572(3) 0.6696(2) 0.97095(12)
C166 C 0.3639(4) 0.8482(3) 0.89867(17)
C167 C 0.3675(6) 0.8935(4) 0.8677(3)
C168 C 0.2001(4) 0.6590(3) 0.86112(17)
C169 C 0.1289(7) 0.6374(5) 0.8505(2)
C170 C 0.1986(4) 0.7281(3) 0.96661(15)
C171 C 0.1823(6) 0.7814(4) 0.9774(2)
C173 C 0.4101(9) 0.9642(5) 0.8663(3)
H149 H 0.432527 0.983389 0.887650
C174 C 0.2305(7) 0.8466(5) 0.9781(4)
H150 H 0.274785 0.856519 0.973924
C176 C 0.1255(9) 0.7643(7) 0.9988(4)
C177 C 0.0848(8) 0.6339(6) 0.8740(3)
H153 H 0.097164 0.638314 0.897977
C179 C 0.2204(11) 0.9014(7) 0.9846(5)
H155 H 0.249949 0.945129 0.976736
C180 C 0.1061(9) 0.6132(7) 0.8162(3)
H156 H 0.135861 0.613569 0.799086
C182 C 0.3373(7) 0.8639(5) 0.8351(3)
H158 H 0.314121 0.817148 0.832193
C183 C 0.0229(12) 0.6244(9) 0.8663(5)
C187 C 0.0350(9) 0.5872(6) 0.8072(3)
H163 H 0.015589 0.564162 0.786066
C190 C 0.3427(8) 0.9057(6) 0.8075(3)
H166 H 0.323614 0.887343 0.785333
C192 C 0.3764(10) 0.9753(7) 0.8123(3)
Zn10 Zn 0.58282(5) 0.41667(4) 0.46904(2)
N9 N 0.06270(19) 0.5290(3) 0.98813(11)
N10 N 0.4710(3) 0.53370(36) 0.98813(11)
N11 N 0.46630(36) 0.93730(19) 0.98813(11)
C7 C 0.9832(3) 0.5250(3) 0.46442(18)
H1 H 0.971165 0.560071 0.466419
H2 H 0.976719 0.510004 0.439697
C20 C 0.9953(6) 0.4181(7) 0.6577(4)
H15 H 0.950731 0.408803 0.657002
H26 H 0.997217 0.366557 0.703409
N3 N 0.93730(19) 0.46630(36) 0.48813(11)
C34 C 0.9650(3) 0.4226(4) 0.49049(19)
H31 H 0.969906 0.408924 0.466583
H32 H 0.933976 0.382082 0.503657
C35 C 0.9421(3) 0.4965(4) 0.52538(16)
H33 H 0.919891 0.460484 0.542813
H34 H 0.919535 0.522983 0.525356
H91 H 0.998505 0.634158 0.617128
C98 C 0.9978(11) 0.6000(8) 0.6664(4)
H94 H 0.954513 0.591259 0.671977
C125 C 0.9953(6) 0.4181(7) 0.8423(4)
H117 H 0.950731 0.408803 0.842998
H128 H 0.997217 0.366557 0.796591
H159 H 0.998505 0.634158 0.882872
C186 C 0.9978(11) 0.6000(8) 0.8336(4)
H162 H 0.954513 0.591259 0.828023
Zn11 Zn 0.83385(3) 0.41718(5) 0.46904(2)
C81_2 C 0.5418(4) 0.0168(3) 0.03558(18)
H77_2 H 0.588906 0.028835 0.033581
H78_2 H 0.533285 0.023281 0.060303
N8_2 N 0.5290(3) 0.06270(19) 0.01187(11)
C107_2 C 0.4576(3) 0.0350(3) 0.00951(19)
H105_2 H 0.439018 0.030094 0.033417
Zn9_2 Zn 0.58333(4) 0.16615(3) 0.03096(2)
H106_2 H 0.448106 0.066024 0.996343
C108_2 C 0.5544(3) 0.0579(3) 0.97462(16)
H107_2 H 0.540593 0.080109 0.957187
H108_2 H 0.603448 0.080465 0.974644
H6_2 H 0.066024 0.448106 0.003657
C32_2 C 0.0579(3) 0.5544(3) 0.02538(16)
H27_2 H 0.080109 0.540593 0.042813
H28_2 H 0.080465 0.603448 0.025356
C47_2 C 0.4750(3) 0.4582(4) 0.03558(18)
H45_2 H 0.439929 0.411094 0.033581
H46_2 H 0.489996 0.466715 0.060303
H48_2 H 0.551894 0.617918 0.003657
C71_2 C 0.4456(3) 0.5035(4) 0.02538(16)
H69_2 H 0.459407 0.539516 0.042813
H70_2 H 0.396552 0.477017 0.025356
N6_2 N 0.53370(36) 0.4710(3) 0.01187(11)
C73_2 C 0.5774(4) 0.5424(3) 0.00951(19)
H73_2 H 0.591076 0.560982 0.033417
H80_2 H 0.382082 0.933976 0.003657
C105_2 C 0.4965(4) 0.9421(3) 0.02538(16)
H101_2 H 0.460484 0.919891 0.042813
H102_2 H 0.522983 0.919535 0.025356
Zn10_2 Zn 0.58282(5) 0.41667(4) 0.03096(2)
C11_2 C 0.0350(3) 0.4576(3) 0.99049(19)
H5_2 H 0.030094 0.439018 0.966583
C33_2 C 0.0168(3) 0.5418(4) 0.96442(18)
H29_2 H 0.028835 0.588906 0.966419
H30_2 H 0.023281 0.533285 0.939697
C50_2 C 0.5424(3) 0.5774(4) 0.99049(19)
H47_2 H 0.560982 0.591076 0.966583
C72_2 C 0.4582(4) 0.4750(3) 0.96442(18)
H71_2 H 0.411094 0.439929 0.966419
H72_2 H 0.466715 0.489996 0.939697
H74_2 H 0.617918 0.551894 0.996343
C74_2 C 0.5035(4) 0.4456(3) 0.97462(16)
H75_2 H 0.539516 0.459407 0.957187
H76_2 H 0.477017 0.396552 0.974644
C84_2 C 0.4226(4) 0.9650(3) 0.99049(19)
H79_2 H 0.408924 0.969906 0.966583
C106_2 C 0.5250(3) 0.9832(3) 0.96442(18)
H103_2 H 0.560071 0.971165 0.966419
H104_2 H 0.510004 0.976719 0.939697
C7_2 C 0.9832(3) 0.5250(3) 0.03558(18)
H1_2 H 0.971165 0.560071 0.033581
H2_2 H 0.976719 0.510004 0.060303
N3_2 N 0.93730(19) 0.46630(36) 0.01187(11)
C34_2 C 0.9650(3) 0.4226(4) 0.00951(19)
H31_2 H 0.969906 0.408924 0.033417
Zn11_2 Zn 0.83385(3) 0.41718(5) 0.03096(2)
H32_2 H 0.933976 0.382082 0.996343
C35_2 C 0.9421(3) 0.4965(4) 0.97462(16)
H33_2 H 0.919891 0.460484 0.957187
H34_2 H 0.919535 0.522983 0.974644
H59_2 H 0.001495 0.635653 0.382872
C64_2 C 0.0022(11) 0.6022(8) 0.3336(4)
H62_2 H 0.045487 0.636746 0.328023
C93_2 C 0.0047(6) 0.4228(9) 0.3423(4)
H89_2 H 0.049269 0.458072 0.342998
H100_2 H 0.002783 0.369340 0.296591
H139_2 H 0.001495 0.635653 0.117128
C158_2 C 0.0022(11) 0.6022(8) 0.1664(4)
H142_2 H 0.045487 0.636746 0.171977
C181_2 C 0.0047(6) 0.4228(9) 0.1577(4)
H157_2 H 0.049269 0.458072 0.157002
H168_2 H 0.002783 0.369340 0.203409
Zn1_2 Zn 0.666667 0.333333 0.34337(2)
Al1_2 Al 0.666667 0.333333 0.48420(6)
Al2_2 Al 0.58395(6) 0.29190(10) 0.42205(3)
O1_2 O 0.6301(2) 0.25997(14) 0.45143(7)
O2_2 O 0.5411(2) 0.32952(19) 0.39364(10)
O3_2 O 0.58924(14) 0.2965(2) 0.51498(8)
O4_2 O 0.5774(2) 0.3361(2) 0.33783(10)
O5_2 O 0.50320(14) 0.2493(2) 0.44980(8)
O6_2 O 0.666667 0.333333 0.39667(12)
O7_2 O 0.5472(2) 0.1864(2) 0.51582(12)
O8_2 O 0.54306(18) 0.21464(18) 0.39215(10)
O9_2 O 0.5171(2) 0.1256(2) 0.42615(11)
O10_2 O 0.4876(2) 0.3304(2) 0.47095(12)
N2_2 N 0.666667 0.333333 0.28474(17)
C1_2 C 0.5518(3) 0.2389(3) 0.52647(16)
C2_2 C 0.5157(3) 0.1518(3) 0.39867(17)
C3_2 C 0.4740(4) 0.1065(4) 0.3677(3)
C4_2 C 0.5411(3) 0.3410(3) 0.36112(17)
C5_2 C 0.4915(5) 0.3626(5) 0.3505(2)
C6_2 C 0.4705(3) 0.2719(3) 0.46661(15)
C8_2 C 0.4009(4) 0.2186(4) 0.4774(2)
C9_2 C 0.6750(3) 0.3972(3) 0.27026(15)
H3_2 H 0.717324 0.434691 0.278849
H4_2 H 0.638498 0.403569 0.278849
C10_2 C 0.5037(4) 0.2334(5) 0.5573(2)
C12_2 C 0.4459(7) 0.0358(5) 0.3663(3)
H7_2 H 0.449138 0.016611 0.387650
C13_2 C 0.3839(5) 0.1534(5) 0.4781(4)
H8_2 H 0.418266 0.143481 0.473924
C14_2 C 0.5107(6) 0.2957(5) 0.5713(2)
H9_2 H 0.545484 0.337239 0.563350
C15_2 C 0.3612(6) 0.2357(7) 0.4988(4)
H10_2 H 0.373619 0.280909 0.501653
C16_2 C 0.4509(6) 0.3661(6) 0.3740(3)
H11_2 H 0.458850 0.361686 0.397977
C17_2 C 0.4546(6) 0.1765(6) 0.5708(4)
H12_2 H 0.446184 0.135872 0.560538
C18_2 C 0.3190(8) 0.0986(7) 0.4846(5)
H13_2 H 0.304820 0.054871 0.476736
C19_2 C 0.4929(6) 0.3868(7) 0.3162(3)
H14_2 H 0.522292 0.386431 0.299086
C21_2 C 0.4734(5) 0.1361(5) 0.3351(3)
H16_2 H 0.496973 0.182852 0.332193
C22_2 C 0.3985(8) 0.3756(9) 0.3663(5)
H17_2 H 0.364347 0.365842 0.382872
C23_2 C 0.2817(10) 0.1144(10) 0.5020(5)
H18_2 H 0.237800 0.080008 0.506720
C24_2 C 0.4219(8) 0.2307(9) 0.6094(4)
H19_2 H 0.394140 0.230841 0.627602
C25_2 C 0.3978(8) 0.4000(8) 0.3336(4)
H20_2 H 0.363254 0.408741 0.328023
C26_2 C 0.4478(7) 0.4128(6) 0.3072(3)
H21_2 H 0.451427 0.435838 0.286066
C27_2 C 0.4706(8) 0.2931(7) 0.5936(4)
H22_2 H 0.471794 0.332825 0.600575
C28_2 C 0.4155(7) 0.1742(8) 0.5990(4)
H23_2 H 0.385668 0.133637 0.610129
C29_2 C 0.4370(6) 0.0943(6) 0.3075(3)
H24_2 H 0.436271 0.112657 0.285333
C30_2 C 0.3018(6) 0.1845(8) 0.5162(4)
H25_2 H 0.278385 0.193015 0.533945
C31_2 C 0.4011(7) 0.0247(7) 0.3123(3)
C36_2 C 0.7222(4) 0.3250(3) 0.27026(15)
H35_2 H 0.717367 0.282676 0.278849
H36_2 H 0.765071 0.361502 0.278849
C37_2 C 0.6028(3) 0.2778(4) 0.27026(15)
H37_2 H 0.565309 0.282633 0.278849
H38_2 H 0.596431 0.234929 0.278849
N4_2 N 0.666667 0.333333 0.21526(17)
C38_2 C 0.6750(3) 0.3972(3) 0.22974(15)
H39_2 H 0.717324 0.434691 0.221151
H40_2 H 0.638498 0.403569 0.221151
C39_2 C 0.7222(4) 0.3250(3) 0.22974(15)
H41_2 H 0.717367 0.282676 0.221151
H42_2 H 0.765071 0.361502 0.221151
C40_2 C 0.6028(3) 0.2778(4) 0.22974(15)
H43_2 H 0.565309 0.282633 0.221151
H44_2 H 0.596431 0.234929 0.221151
Al3_2 Al 0.70795(12) 0.41605(6) 0.42205(3)
O11_2 O 0.62987(24) 0.3699(2) 0.45143(7)
O12_2 O 0.78842(28) 0.4589(2) 0.39364(10)
O13_2 O 0.70726(24) 0.41076(14) 0.51498(8)
O14_2 O 0.7587(3) 0.4226(2) 0.33783(10)
O15_2 O 0.74610(24) 0.49680(14) 0.44980(8)
O16_2 O 0.6392(3) 0.4528(2) 0.51582(12)
O17_2 O 0.67158(25) 0.45694(18) 0.39215(10)
O18_2 O 0.6085(3) 0.4829(2) 0.42615(11)
O19_2 O 0.8428(3) 0.5124(2) 0.47095(12)
C41_2 C 0.6871(4) 0.4482(3) 0.52647(16)
C42_2 C 0.6361(4) 0.4843(3) 0.39867(17)
C43_2 C 0.6325(6) 0.5260(4) 0.3677(3)
C44_2 C 0.7999(4) 0.4589(3) 0.36112(17)
C45_2 C 0.8711(7) 0.5085(5) 0.3505(2)
C46_2 C 0.8014(4) 0.5295(3) 0.46661(15)
C48_2 C 0.8177(6) 0.5991(4) 0.4774(2)
C49_2 C 0.7297(6) 0.4963(4) 0.5573(2)
C51_2 C 0.5899(9) 0.5541(7) 0.3663(3)
H49_2 H 0.567473 0.550862 0.387650
C52_2 C 0.7695(7) 0.6161(5) 0.4781(4)
H50_2 H 0.725215 0.581734 0.473924
C53_2 C 0.7850(8) 0.4893(6) 0.5713(2)
H51_2 H 0.791755 0.454516 0.563350
C54_2 C 0.8745(9) 0.6388(6) 0.4988(4)
H52_2 H 0.907290 0.626381 0.501653
C55_2 C 0.9152(8) 0.5491(6) 0.3740(3)
H53_2 H 0.902836 0.541150 0.397977
C56_2 C 0.7219(8) 0.5454(6) 0.5708(4)
H54_2 H 0.689688 0.553816 0.560538
C57_2 C 0.7796(11) 0.6810(8) 0.4846(5)
H55_2 H 0.750051 0.695180 0.476736
C58_2 C 0.8939(9) 0.5071(6) 0.3162(3)
H56_2 H 0.864139 0.477708 0.299086
C59_2 C 0.5772(9) 0.5819(7) 0.3423(4)
H57_2 H 0.541928 0.591197 0.342998
C60_2 C 0.6627(7) 0.5266(5) 0.3351(3)
H58_2 H 0.685879 0.503027 0.332193
C61_2 C 0.9771(12) 0.6015(8) 0.3663(5)
C62_2 C 0.8327(14) 0.7183(10) 0.5020(5)
H60_2 H 0.842208 0.762200 0.506720
C63_2 C 0.8088(12) 0.5781(8) 0.6094(4)
H61_2 H 0.836701 0.605860 0.627602
C65_2 C 0.9650(9) 0.5522(7) 0.3072(3)
H63_2 H 0.984411 0.548573 0.286066
C66_2 C 0.8225(11) 0.5294(8) 0.5936(4)
H64_2 H 0.861031 0.528206 0.600575
C67_2 C 0.7587(11) 0.5845(7) 0.5990(4)
H65_2 H 0.747969 0.614332 0.610129
C68_2 C 0.6573(8) 0.5630(6) 0.3075(3)
H66_2 H 0.676386 0.563729 0.285333
C69_2 C 0.8827(10) 0.6982(6) 0.5162(4)
H67_2 H 0.914630 0.721615 0.533945
C70_2 C 0.6236(10) 0.5989(7) 0.3123(3)
H68_2 H 0.630660 0.633443 0.296591
Al4_2 Al 0.70810(10) 0.29205(12) 0.42205(3)
O20_2 O 0.74003(14) 0.37013(24) 0.45143(7)
O21_2 O 0.67048(19) 0.21158(28) 0.39364(10)
O22_2 O 0.7035(2) 0.29274(24) 0.51498(8)
O23_2 O 0.6639(2) 0.2413(3) 0.33783(10)
O24_2 O 0.7507(2) 0.25390(24) 0.44980(8)
O25_2 O 0.8136(2) 0.3608(3) 0.51582(12)
O26_2 O 0.78536(18) 0.32842(25) 0.39215(10)
O27_2 O 0.8744(2) 0.3915(3) 0.42615(11)
O28_2 O 0.6696(2) 0.1572(3) 0.47095(12)
C75_2 C 0.7611(3) 0.3129(4) 0.52647(16)
C76_2 C 0.8482(3) 0.3639(4) 0.39867(17)
C77_2 C 0.8935(4) 0.3675(6) 0.3677(3)
C78_2 C 0.6590(3) 0.2001(4) 0.36112(17)
C79_2 C 0.6374(5) 0.1289(7) 0.3505(2)
C80_2 C 0.7281(3) 0.1986(4) 0.46661(15)
C82_2 C 0.7814(4) 0.1823(6) 0.4774(2)
C83_2 C 0.7666(5) 0.2703(6) 0.5573(2)
C85_2 C 0.9642(5) 0.4101(9) 0.3663(3)
H81_2 H 0.983389 0.432527 0.387650
C86_2 C 0.8466(5) 0.2305(7) 0.4781(4)
H82_2 H 0.856519 0.274785 0.473924
C87_2 C 0.7043(5) 0.2150(8) 0.5713(2)
H83_2 H 0.662761 0.208245 0.563350
C88_2 C 0.7643(7) 0.1255(9) 0.4988(4)
H84_2 H 0.719091 0.092710 0.501653
C89_2 C 0.6339(6) 0.0848(8) 0.3740(3)
H85_2 H 0.638314 0.097164 0.397977
C90_2 C 0.8235(6) 0.2781(8) 0.5708(4)
H86_2 H 0.864128 0.310312 0.560538
C91_2 C 0.9014(7) 0.2204(11) 0.4846(5)
H87_2 H 0.945129 0.249949 0.476736
C92_2 C 0.6132(7) 0.1061(9) 0.3162(3)
H88_2 H 0.613569 0.135861 0.299086
C94_2 C 0.8639(5) 0.3373(7) 0.3351(3)
H90_2 H 0.817148 0.314121 0.332193
C95_2 C 0.6244(9) 0.0229(12) 0.3663(5)
C96_2 C 0.8856(10) 0.1673(14) 0.5020(5)
H92_2 H 0.919992 0.157792 0.506720
C97_2 C 0.7693(9) 0.1912(12) 0.6094(4)
H93_2 H 0.769159 0.163299 0.627602
C99_2 C 0.5872(6) 0.0350(9) 0.3072(3)
H95_2 H 0.564162 0.015589 0.286066
C100_2 C 0.7069(7) 0.1775(11) 0.5936(4)
H96_2 H 0.667175 0.138969 0.600575
C101_2 C 0.8258(8) 0.2413(11) 0.5990(4)
H97_2 H 0.866363 0.252031 0.610129
C102_2 C 0.9057(6) 0.3427(8) 0.3075(3)
H98_2 H 0.887343 0.323614 0.285333
C103_2 C 0.8155(8) 0.1173(10) 0.5162(4)
H99_2 H 0.806985 0.085370 0.533945
C104_2 C 0.9753(7) 0.3764(10) 0.3123(3)
Zn5_2 Zn 0.666667 0.333333 0.15663(2)
Al5_2 Al 0.666667 0.333333 0.01580(6)
Al6_2 Al 0.58395(6) 0.29190(10) 0.07795(3)
O29_2 O 0.6301(2) 0.25997(14) 0.04857(7)
O30_2 O 0.5411(2) 0.32952(19) 0.10636(10)
O32_2 O 0.5774(2) 0.3361(2) 0.16217(10)
O33_2 O 0.50320(14) 0.2493(2) 0.05020(8)
O34_2 O 0.666667 0.333333 0.10333(12)
O36_2 O 0.54306(18) 0.21464(18) 0.10785(10)
O37_2 O 0.5171(2) 0.1256(2) 0.07385(11)
O38_2 O 0.4876(2) 0.3304(2) 0.02905(12)
C110_2 C 0.5157(3) 0.1518(3) 0.10133(17)
C111_2 C 0.4740(4) 0.1065(4) 0.1323(3)
C112_2 C 0.5411(3) 0.3410(3) 0.13888(17)
C113_2 C 0.4915(5) 0.3626(5) 0.1495(2)
C114_2 C 0.4705(3) 0.2719(3) 0.03339(15)
C115_2 C 0.4009(4) 0.2186(4) 0.0226(2)
C117_2 C 0.4459(7) 0.0358(5) 0.1337(3)
H109_2 H 0.449138 0.016611 0.112350
C118_2 C 0.3839(5) 0.1534(5) 0.0219(4)
H110_2 H 0.418266 0.143481 0.026076
C120_2 C 0.3612(6) 0.2357(7) 0.0012(4)
C121_2 C 0.4509(6) 0.3661(6) 0.1260(3)
H113_2 H 0.458850 0.361686 0.102023
C123_2 C 0.3190(8) 0.0986(7) 0.0154(5)
H115_2 H 0.304820 0.054871 0.023264
C124_2 C 0.4929(6) 0.3868(7) 0.1838(3)
H116_2 H 0.522292 0.386431 0.200914
C126_2 C 0.4734(5) 0.1361(5) 0.1649(3)
H118_2 H 0.496973 0.182852 0.167807
C127_2 C 0.3985(8) 0.3756(9) 0.1337(5)
H119_2 H 0.364347 0.365842 0.117128
C130_2 C 0.3978(8) 0.4000(8) 0.1664(4)
H122_2 H 0.363254 0.408741 0.171977
C131_2 C 0.4478(7) 0.4128(6) 0.1928(3)
H123_2 H 0.451427 0.435838 0.213934
C134_2 C 0.4370(6) 0.0943(6) 0.1925(3)
H126_2 H 0.436271 0.112657 0.214667
C136_2 C 0.4011(7) 0.0247(7) 0.1877(3)
Al7_2 Al 0.70795(12) 0.41605(6) 0.07795(3)
O39_2 O 0.62987(24) 0.3699(2) 0.04857(7)
O40_2 O 0.78842(28) 0.4589(2) 0.10636(10)
O42_2 O 0.7587(3) 0.4226(2) 0.16217(10)
O43_2 O 0.74610(24) 0.49680(14) 0.05020(8)
O45_2 O 0.67158(25) 0.45694(18) 0.10785(10)
O46_2 O 0.6085(3) 0.4829(2) 0.07385(11)
O47_2 O 0.8428(3) 0.5124(2) 0.02905(12)
C138_2 C 0.6361(4) 0.4843(3) 0.10133(17)
C139_2 C 0.6325(6) 0.5260(4) 0.1323(3)
C140_2 C 0.7999(4) 0.4589(3) 0.13888(17)
C141_2 C 0.8711(7) 0.5085(5) 0.1495(2)
C142_2 C 0.8014(4) 0.5295(3) 0.03339(15)
C143_2 C 0.8177(6) 0.5991(4) 0.0226(2)
C145_2 C 0.5899(9) 0.5541(7) 0.1337(3)
H129_2 H 0.567473 0.550862 0.112350
C146_2 C 0.7695(7) 0.6161(5) 0.0219(4)
H130_2 H 0.725215 0.581734 0.026076
C148_2 C 0.8745(9) 0.6388(6) 0.0012(4)
C149_2 C 0.9152(8) 0.5491(6) 0.1260(3)
H133_2 H 0.902836 0.541150 0.102023
C151_2 C 0.7796(11) 0.6810(8) 0.0154(5)
H135_2 H 0.750051 0.695180 0.023264
C152_2 C 0.8939(9) 0.5071(6) 0.1838(3)
H136_2 H 0.864139 0.477708 0.200914
C153_2 C 0.5772(9) 0.5819(7) 0.1577(4)
H137_2 H 0.541928 0.591197 0.157002
C154_2 C 0.6627(7) 0.5266(5) 0.1649(3)
H138_2 H 0.685879 0.503027 0.167807
C155_2 C 0.9771(12) 0.6015(8) 0.1337(5)
C159_2 C 0.9650(9) 0.5522(7) 0.1928(3)
H143_2 H 0.984411 0.548573 0.213934
C162_2 C 0.6573(8) 0.5630(6) 0.1925(3)
H146_2 H 0.676386 0.563729 0.214667
C164_2 C 0.6236(10) 0.5989(7) 0.1877(3)
H148_2 H 0.630660 0.633443 0.203409
Al8_2 Al 0.70810(10) 0.29205(12) 0.07795(3)
O48_2 O 0.74003(14) 0.37013(24) 0.04857(7)
O49_2 O 0.67048(19) 0.21158(28) 0.10636(10)
O51_2 O 0.6639(2) 0.2413(3) 0.16217(10)
O52_2 O 0.7507(2) 0.25390(24) 0.05020(8)
O54_2 O 0.78536(18) 0.32842(25) 0.10785(10)
O55_2 O 0.8744(2) 0.3915(3) 0.07385(11)
O56_2 O 0.6696(2) 0.1572(3) 0.02905(12)
C166_2 C 0.8482(3) 0.3639(4) 0.10133(17)
C167_2 C 0.8935(4) 0.3675(6) 0.1323(3)
C168_2 C 0.6590(3) 0.2001(4) 0.13888(17)
C169_2 C 0.6374(5) 0.1289(7) 0.1495(2)
C170_2 C 0.7281(3) 0.1986(4) 0.03339(15)
C171_2 C 0.7814(4) 0.1823(6) 0.0226(2)
C173_2 C 0.9642(5) 0.4101(9) 0.1337(3)
H149_2 H 0.983389 0.432527 0.112350
C174_2 C 0.8466(5) 0.2305(7) 0.0219(4)
H150_2 H 0.856519 0.274785 0.026076
C176_2 C 0.7643(7) 0.1255(9) 0.0012(4)
C177_2 C 0.6339(6) 0.0848(8) 0.1260(3)
H153_2 H 0.638314 0.097164 0.102023
C179_2 C 0.9014(7) 0.2204(11) 0.0154(5)
H155_2 H 0.945129 0.249949 0.023264
C180_2 C 0.6132(7) 0.1061(9) 0.1838(3)
H156_2 H 0.613569 0.135861 0.200914
C182_2 C 0.8639(5) 0.3373(7) 0.1649(3)
H158_2 H 0.817148 0.314121 0.167807
C183_2 C 0.6244(9) 0.0229(12) 0.1337(5)
C187_2 C 0.5872(6) 0.0350(9) 0.1928(3)
H163_2 H 0.564162 0.015589 0.213934
C190_2 C 0.9057(6) 0.3427(8) 0.1925(3)
H166_2 H 0.887343 0.323614 0.214667
C192_2 C 0.9753(7) 0.3764(10) 0.1877(3)
O31_2 O 0.58924(14) 0.2965(2) 0.98502(8)
O35_2 O 0.5472(2) 0.1864(2) 0.98418(12)
C109_2 C 0.5518(3) 0.2389(3) 0.97353(16)
C116_2 C 0.5037(4) 0.2334(5) 0.9427(2)
C119_2 C 0.5107(6) 0.2957(5) 0.9287(2)
H111_2 H 0.545484 0.337239 0.936650
H112_2 H 0.373619 0.280909 0.998347
C122_2 C 0.4546(6) 0.1765(6) 0.9292(4)
H114_2 H 0.446184 0.135872 0.939462
C128_2 C 0.2817(10) 0.1144(10) 0.9980(5)
H120_2 H 0.237800 0.080008 0.993280
C129_2 C 0.4219(8) 0.2307(9) 0.8906(4)
H121_2 H 0.394140 0.230841 0.872398
C132_2 C 0.4706(8) 0.2931(7) 0.9064(4)
H124_2 H 0.471794 0.332825 0.899425
C133_2 C 0.4155(7) 0.1742(8) 0.9010(4)
H125_2 H 0.385668 0.133637 0.889871
C135_2 C 0.3018(6) 0.1845(8) 0.9838(4)
H127_2 H 0.278385 0.193015 0.966055
O41_2 O 0.70726(24) 0.41076(14) 0.98502(8)
O44_2 O 0.6392(3) 0.4528(2) 0.98418(12)
C137_2 C 0.6871(4) 0.4482(3) 0.97353(16)
C144_2 C 0.7297(6) 0.4963(4) 0.9427(2)
C147_2 C 0.7850(8) 0.4893(6) 0.9287(2)
H131_2 H 0.791755 0.454516 0.936650
H132_2 H 0.907290 0.626381 0.998347
C150_2 C 0.7219(8) 0.5454(6) 0.9292(4)
H134_2 H 0.689688 0.553816 0.939462
C156_2 C 0.8327(14) 0.7183(10) 0.9980(5)
H140_2 H 0.842208 0.762200 0.993280
C157_2 C 0.8088(12) 0.5781(8) 0.8906(4)
H141_2 H 0.836701 0.605860 0.872398
C160_2 C 0.8225(11) 0.5294(8) 0.9064(4)
H144_2 H 0.861031 0.528206 0.899425
C161_2 C 0.7587(11) 0.5845(7) 0.9010(4)
H145_2 H 0.747969 0.614332 0.889871
C163_2 C 0.8827(10) 0.6982(6) 0.9838(4)
H147_2 H 0.914630 0.721615 0.966055
O50_2 O 0.7035(2) 0.29274(24) 0.98502(8)
O53_2 O 0.8136(2) 0.3608(3) 0.98418(12)
C165_2 C 0.7611(3) 0.3129(4) 0.97353(16)
C172_2 C 0.7666(5) 0.2703(6) 0.9427(2)
C175_2 C 0.7043(5) 0.2150(8) 0.9287(2)
H151_2 H 0.662761 0.208245 0.936650
H152_2 H 0.719091 0.092710 0.998347
C178_2 C 0.8235(6) 0.2781(8) 0.9292(4)
H154_2 H 0.864128 0.310312 0.939462
C184_2 C 0.8856(10) 0.1673(14) 0.9980(5)
H160_2 H 0.919992 0.157792 0.993280
C185_2 C 0.7693(9) 0.1912(12) 0.8906(4)
H161_2 H 0.769159 0.163299 0.872398
C188_2 C 0.7069(7) 0.1775(11) 0.9064(4)
H164_2 H 0.667175 0.138969 0.899425
C189_2 C 0.8258(8) 0.2413(11) 0.9010(4)
H165_2 H 0.866363 0.252031 0.889871
C191_2 C 0.8155(8) 0.1173(10) 0.9838(4)
H167_2 H 0.806985 0.085370 0.966055
C20_2 C 0.4181(7) 0.9953(6) 0.3423(4)
H15_2 H 0.408803 0.950731 0.342998
H26_2 H 0.366557 0.997217 0.296591
H91_2 H 0.634158 0.998505 0.382872
C98_2 C 0.6000(8) 0.9978(11) 0.3336(4)
H94_2 H 0.591259 0.954513 0.328023
C125_2 C 0.4181(7) 0.9953(6) 0.1577(4)
H117_2 H 0.408803 0.950731 0.157002
H128_2 H 0.366557 0.997217 0.203409
H159_2 H 0.634158 0.998505 0.117128
C186_2 C 0.6000(8) 0.9978(11) 0.1664(4)
H162_2 H 0.591259 0.954513 0.171977
loop_
_geom_bond_atom_site_label_1
_geom_bond_atom_site_label_2
_geom_bond_site_symmetry_1
_geom_bond_site_symmetry_2
H62 C64 1_555 1_555
C81 H77 1_555 1_555
H78 C81 1_555 1_555
H89 C93 1_555 1_555
N8 C81 1_555 1_555
H105 C107 1_555 1_555
H106 C107 1_555 1_555
C108 N8 1_555 1_555
H107 C108 1_555 1_555
H108 C108 1_555 1_555
H142 C158 1_555 1_555
H157 C181 1_555 1_555
Zn9 N8 1_555 1_555
N8 C107 1_555 1_555
C109 O31 1_555 1_555
C116 C109 1_555 1_555
C119 C116 1_555 1_555
H111 C119 1_555 1_555
C122 C116 1_555 1_555
H114 C122 1_555 1_555
H120 C128 1_555 1_555
C129 H121 1_555 1_555
C132 C119 1_555 1_555
H124 C132 1_555 1_555
C133 C122 1_555 1_555
H125 C133 1_555 1_555
H127 C135 1_555 1_555
C137 O41 1_555 1_555
C144 C137 1_555 1_555
C147 C144 1_555 1_555
H131 C147 1_555 1_555
C150 C144 1_555 1_555
H134 C150 1_555 1_555
H140 C156 1_555 1_555
C157 H141 1_555 1_555
C160 C147 1_555 1_555
H144 C160 1_555 1_555
C161 C150 1_555 1_555
H145 C161 1_555 1_555
H147 C163 1_555 1_555
C165 O50 1_555 1_555
C172 C165 1_555 1_555
C175 C172 1_555 1_555
H151 C175 1_555 1_555
C178 C172 1_555 1_555
H154 C178 1_555 1_555
H160 C184 1_555 1_555
C185 H161 1_555 1_555
C188 C175 1_555 1_555
H164 C188 1_555 1_555
C189 C178 1_555 1_555
H165 C189 1_555 1_555
H167 C191 1_555 1_555
O35 C109 1_555 1_555
C128 C135 1_555 1_555
C129 C132 1_555 1_555
C129 C133 1_555 1_555
O44 C137 1_555 1_555
C156 C163 1_555 1_555
C157 C160 1_555 1_555
C157 C161 1_555 1_555
O53 C165 1_555 1_555
C184 C191 1_555 1_555
C185 C188 1_555 1_555
C185 C189 1_555 1_555
Zn1 O4 1_555 1_555
Zn2 O1 1_555 1_555
Al1 O1 1_555 1_555
Al2 O1 1_555 1_555
O1 Al4 1_555 1_555
O2 Al2 1_555 1_555
O3 Al1 1_555 1_555
O4 C4 1_555 1_555
O5 Al2 1_555 1_555
O6 Zn1 1_555 1_555
O7 Zn2 1_555 1_555
O8 Al2 1_555 1_555
O9 Zn2 1_555 1_555
N1 Zn2 1_555 1_555
O10 C6 1_555 1_555
N2 Zn1 1_555 1_555
C1 O3 1_555 1_555
C2 O8 1_555 1_555
C3 C2 1_555 1_555
C4 O2 1_555 1_555
C5 C4 1_555 1_555
C6 O5 1_555 1_555
C8 C6 1_555 1_555
C9 N2 1_555 1_555
H3 C9 1_555 1_555
H4 C9 1_555 1_555
C10 C1 1_555 1_555
C11 N1 1_555 1_555
H5 C11 1_555 1_555
H6 C11 1_555 1_555
C12 C3 1_555 1_555
H7 C12 1_555 1_555
C13 C8 1_555 1_555
H8 C13 1_555 1_555
C14 C10 1_555 1_555
H9 C14 1_555 1_555
C15 C8 1_555 1_555
H10 C15 1_555 1_555
C16 C5 1_555 1_555
H11 C16 1_555 1_555
C17 C10 1_555 1_555
H12 C17 1_555 1_555
C18 C13 1_555 1_555
H13 C18 1_555 1_555
C19 C5 1_555 1_555
H14 C19 1_555 1_555
C21 C3 1_555 1_555
H16 C21 1_555 1_555
C22 C16 1_555 1_555
H17 C22 1_555 1_555
C23 C18 1_555 1_555
H18 C23 1_555 1_555
C24 H19 1_555 1_555
C25 C22 1_555 1_555
H20 C25 1_555 1_555
C26 C19 1_555 1_555
H21 C26 1_555 1_555
C27 C14 1_555 1_555
H22 C27 1_555 1_555
C28 C17 1_555 1_555
H23 C28 1_555 1_555
C29 C21 1_555 1_555
H24 C29 1_555 1_555
C30 C15 1_555 1_555
H25 C30 1_555 1_555
C32 N1 1_555 1_555
H27 C32 1_555 1_555
H28 C32 1_555 1_555
C33 N1 1_555 1_555
H29 C33 1_555 1_555
H30 C33 1_555 1_555
C36 N2 1_555 1_555
H35 C36 1_555 1_555
H36 C36 1_555 1_555
C37 N2 1_555 1_555
H37 C37 1_555 1_555
H38 C37 1_555 1_555
N4 C38 1_555 1_555
C38 C9 1_555 1_555
H39 C38 1_555 1_555
H40 C38 1_555 1_555
C39 C36 1_555 1_555
H41 C39 1_555 1_555
H42 C39 1_555 1_555
C40 C37 1_555 1_555
H43 C40 1_555 1_555
H44 C40 1_555 1_555
Zn3 O10 1_555 1_555
Al3 O6 1_555 1_555
O11 Al1 1_555 1_555
O12 Al3 1_555 1_555
O13 Al1 1_555 1_555
O14 Zn1 1_555 1_555
O15 Al3 1_555 1_555
O16 Zn3 1_555 1_555
O17 Al3 1_555 1_555
O18 Zn3 1_555 1_555
N5 Zn3 1_555 1_555
O19 C46 1_555 1_555
C41 O13 1_555 1_555
C42 O17 1_555 1_555
C43 C42 1_555 1_555
C44 O12 1_555 1_555
C45 C44 1_555 1_555
C46 O15 1_555 1_555
C47 H45 1_555 1_555
H46 C47 1_555 1_555
C48 C46 1_555 1_555
C49 C41 1_555 1_555
C50 N5 1_555 1_555
H47 C50 1_555 1_555
H48 C50 1_555 1_555
C51 C43 1_555 1_555
H49 C51 1_555 1_555
C52 C48 1_555 1_555
H50 C52 1_555 1_555
C53 C49 1_555 1_555
H51 C53 1_555 1_555
C54 C48 1_555 1_555
H52 C54 1_555 1_555
C55 C45 1_555 1_555
H53 C55 1_555 1_555
C56 C49 1_555 1_555
H54 C56 1_555 1_555
C57 C52 1_555 1_555
H55 C57 1_555 1_555
C58 C45 1_555 1_555
H56 C58 1_555 1_555
C59 C51 1_555 1_555
H57 C59 1_555 1_555
C60 C43 1_555 1_555
H58 C60 1_555 1_555
C61 C55 1_555 1_555
C62 C57 1_555 1_555
H60 C62 1_555 1_555
C63 H61 1_555 1_555
C65 C58 1_555 1_555
H63 C65 1_555 1_555
C66 C53 1_555 1_555
H64 C66 1_555 1_555
C67 C56 1_555 1_555
H65 C67 1_555 1_555
C68 C60 1_555 1_555
H66 C68 1_555 1_555
C69 C54 1_555 1_555
H67 C69 1_555 1_555
C70 C59 1_555 1_555
H68 C70 1_555 1_555
C71 N5 1_555 1_555
H69 C71 1_555 1_555
H70 C71 1_555 1_555
N6 C47 1_555 1_555
C72 N5 1_555 1_555
H71 C72 1_555 1_555
H72 C72 1_555 1_555
C73 C50 1_555 1_555
H73 C73 1_555 1_555
H74 C73 1_555 1_555
C74 N6 1_555 1_555
H75 C74 1_555 1_555
H76 C74 1_555 1_555
Zn4 O19 1_555 1_555
Al4 O6 1_555 1_555
O20 Al1 1_555 1_555
O21 Al4 1_555 1_555
O22 Al1 1_555 1_555
O23 Zn1 1_555 1_555
O24 Al4 1_555 1_555
O25 Zn4 1_555 1_555
O26 Al4 1_555 1_555
O27 Zn4 1_555 1_555
N7 Zn4 1_555 1_555
O28 Zn2 1_555 1_555
C75 O22 1_555 1_555
C76 O26 1_555 1_555
C77 C76 1_555 1_555
C78 O21 1_555 1_555
C79 C78 1_555 1_555
C80 O24 1_555 1_555
C82 C80 1_555 1_555
C83 C75 1_555 1_555
C84 N7 1_555 1_555
H79 C84 1_555 1_555
H80 C84 1_555 1_555
C85 C77 1_555 1_555
H81 C85 1_555 1_555
C86 C82 1_555 1_555
H82 C86 1_555 1_555
C87 C83 1_555 1_555
H83 C87 1_555 1_555
C88 C82 1_555 1_555
H84 C88 1_555 1_555
C89 C79 1_555 1_555
H85 C89 1_555 1_555
C90 C83 1_555 1_555
H86 C90 1_555 1_555
C91 C86 1_555 1_555
H87 C91 1_555 1_555
C92 C79 1_555 1_555
H88 C92 1_555 1_555
C94 C77 1_555 1_555
H90 C94 1_555 1_555
C95 C89 1_555 1_555
C96 C91 1_555 1_555
H92 C96 1_555 1_555
C97 H93 1_555 1_555
C99 C92 1_555 1_555
H95 C99 1_555 1_555
C100 C87 1_555 1_555
H96 C100 1_555 1_555
C101 C90 1_555 1_555
H97 C101 1_555 1_555
C102 C94 1_555 1_555
H98 C102 1_555 1_555
C103 C88 1_555 1_555
H99 C103 1_555 1_555
C105 N7 1_555 1_555
H101 C105 1_555 1_555
H102 C105 1_555 1_555
C106 N7 1_555 1_555
H103 C106 1_555 1_555
H104 C106 1_555 1_555
Zn5 N4 1_555 1_555
Zn6 O29 1_555 1_555
Al5 O29 1_555 1_555
Al6 O29 1_555 1_555
O29 Al8 1_555 1_555
O30 Al6 1_555 1_555
O32 Zn5 1_555 1_555
O33 Al6 1_555 1_555
O34 Zn5 1_555 1_555
O36 Al6 1_555 1_555
O37 Zn6 1_555 1_555
O38 C114 1_555 1_555
C110 O36 1_555 1_555
C111 C110 1_555 1_555
C112 O30 1_555 1_555
C113 C112 1_555 1_555
C114 O33 1_555 1_555
C115 C114 1_555 1_555
C117 C111 1_555 1_555
H109 C117 1_555 1_555
C118 C115 1_555 1_555
H110 C118 1_555 1_555
C120 C115 1_555 1_555
C121 C113 1_555 1_555
H113 C121 1_555 1_555
C123 C118 1_555 1_555
H115 C123 1_555 1_555
C124 C113 1_555 1_555
H116 C124 1_555 1_555
C126 C111 1_555 1_555
H118 C126 1_555 1_555
C127 C121 1_555 1_555
H119 C127 1_555 1_555
C130 C127 1_555 1_555
H122 C130 1_555 1_555
C131 C124 1_555 1_555
H123 C131 1_555 1_555
C134 C126 1_555 1_555
H126 C134 1_555 1_555
Zn7 O38 1_555 1_555
Al7 O34 1_555 1_555
O39 Al5 1_555 1_555
O40 Al7 1_555 1_555
O42 Zn5 1_555 1_555
O43 Al7 1_555 1_555
O45 Al7 1_555 1_555
O46 Zn7 1_555 1_555
O47 C142 1_555 1_555
C138 O45 1_555 1_555
C139 C138 1_555 1_555
C140 O40 1_555 1_555
C141 C140 1_555 1_555
C142 O43 1_555 1_555
C143 C142 1_555 1_555
C145 C139 1_555 1_555
H129 C145 1_555 1_555
C146 C143 1_555 1_555
H130 C146 1_555 1_555
C148 C143 1_555 1_555
C149 C141 1_555 1_555
H133 C149 1_555 1_555
C151 C146 1_555 1_555
H135 C151 1_555 1_555
C152 C141 1_555 1_555
H136 C152 1_555 1_555
C153 C145 1_555 1_555
H137 C153 1_555 1_555
C154 C139 1_555 1_555
H138 C154 1_555 1_555
C155 C149 1_555 1_555
C159 C152 1_555 1_555
H143 C159 1_555 1_555
C162 C154 1_555 1_555
H146 C162 1_555 1_555
C164 C153 1_555 1_555
H148 C164 1_555 1_555
Zn8 O47 1_555 1_555
Al8 O34 1_555 1_555
O48 Al5 1_555 1_555
O49 Al8 1_555 1_555
O51 Zn5 1_555 1_555
O52 Al8 1_555 1_555
O54 Al8 1_555 1_555
O55 Zn8 1_555 1_555
O56 Zn6 1_555 1_555
C166 O54 1_555 1_555
C167 C166 1_555 1_555
C168 O49 1_555 1_555
C169 C168 1_555 1_555
C170 O52 1_555 1_555
C171 C170 1_555 1_555
C173 C167 1_555 1_555
H149 C173 1_555 1_555
C174 C171 1_555 1_555
H150 C174 1_555 1_555
C176 C171 1_555 1_555
C177 C169 1_555 1_555
H153 C177 1_555 1_555
C179 C174 1_555 1_555
H155 C179 1_555 1_555
C180 C169 1_555 1_555
H156 C180 1_555 1_555
C182 C167 1_555 1_555
H158 C182 1_555 1_555
C183 C177 1_555 1_555
C187 C180 1_555 1_555
H163 C187 1_555 1_555
C190 C182 1_555 1_555
H166 C190 1_555 1_555
Zn10 N6 1_555 1_555
N9 Zn6 1_555 1_555
N10 Zn7 1_555 1_555
N11 Zn8 1_555 1_555
Al2 O6 1_555 1_555
Al2 O11 1_555 1_555
O7 C1 1_555 1_555
O9 C2 1_555 1_555
C23 C30 1_555 1_555
C24 C27 1_555 1_555
C24 C28 1_555 1_555
C25 C26 1_555 1_555
C29 C31 1_555 1_555
N4 C39 1_555 1_555
N4 C40 1_555 1_555
Zn3 O11 1_555 1_555
Al3 O11 1_555 1_555
Al3 O20 1_555 1_555
O14 C44 1_555 1_555
O16 C41 1_555 1_555
O18 C42 1_555 1_555
C47 C71 1_555 1_555
C62 C69 1_555 1_555
C63 C66 1_555 1_555
C63 C67 1_555 1_555
C68 C70 1_555 1_555
N6 C73 1_555 1_555
C72 C74 1_555 1_555
Zn4 O20 1_555 1_555
Al4 O20 1_555 1_555
O23 C78 1_555 1_555
O25 C75 1_555 1_555
O27 C76 1_555 1_555
O28 C80 1_555 1_555
C96 C103 1_555 1_555
C97 C100 1_555 1_555
C97 C101 1_555 1_555
C102 C104 1_555 1_555
Al6 O34 1_555 1_555
Al6 O39 1_555 1_555
O32 C112 1_555 1_555
O37 C110 1_555 1_555
C130 C131 1_555 1_555
C134 C136 1_555 1_555
Zn7 O39 1_555 1_555
Al7 O39 1_555 1_555
Al7 O48 1_555 1_555
O42 C140 1_555 1_555
O46 C138 1_555 1_555
C162 C164 1_555 1_555
Zn8 O48 1_555 1_555
Al8 O48 1_555 1_555
O51 C168 1_555 1_555
O55 C166 1_555 1_555
O56 C170 1_555 1_555
C190 C192 1_555 1_555
C7 H1 1_555 1_555
H2 C7 1_555 1_555
H15 C20 1_555 1_555
N3 C7 1_555 1_555
H31 C34 1_555 1_555
H32 C34 1_555 1_555
C35 N3 1_555 1_555
H33 C35 1_555 1_555
H34 C35 1_555 1_555
H94 C98 1_555 1_555
H117 C125 1_555 1_555
H162 C186 1_555 1_555
Zn11 N3 1_555 1_555
N3 C34 1_555 1_555
C81_2 H77_2 1_555 1_555
H78_2 C81_2 1_555 1_555
N8_2 C81_2 1_555 1_555
H105_2 C107_2 1_555 1_555
Zn9_2 N8_2 1_555 1_555
N8_2 C107_2 1_555 1_555
H107_2 C108_2 1_555 1_555
H108_2 C108_2 1_555 1_555
H27_2 C32_2 1_555 1_555
H28_2 C32_2 1_555 1_555
C47_2 H45_2 1_555 1_555
H46_2 C47_2 1_555 1_555
H69_2 C71_2 1_555 1_555
H70_2 C71_2 1_555 1_555
N6_2 C47_2 1_555 1_555
H73_2 C73_2 1_555 1_555
H101_2 C105_2 1_555 1_555
H102_2 C105_2 1_555 1_555
Zn10_2 N6_2 1_555 1_555
C47_2 C71_2 1_555 1_555
N6_2 C73_2 1_555 1_555
C11_2 N9 1_555 1_555
H5_2 C11_2 1_555 1_555
C33_2 N9 1_555 1_555
H29_2 C33_2 1_555 1_555
H30_2 C33_2 1_555 1_555
C50_2 N10 1_555 1_555
H47_2 C50_2 1_555 1_555
C72_2 N10 1_555 1_555
H71_2 C72_2 1_555 1_555
H72_2 C72_2 1_555 1_555
H75_2 C74_2 1_555 1_555
H76_2 C74_2 1_555 1_555
C84_2 N11 1_555 1_555
H79_2 C84_2 1_555 1_555
C106_2 N11 1_555 1_555
H103_2 C106_2 1_555 1_555
H104_2 C106_2 1_555 1_555
C72_2 C74_2 1_555 1_555
C7_2 H1_2 1_555 1_555
H2_2 C7_2 1_555 1_555
N3_2 C7_2 1_555 1_555
H31_2 C34_2 1_555 1_555
Zn11_2 N3_2 1_555 1_555
N3_2 C34_2 1_555 1_555
H33_2 C35_2 1_555 1_555
H34_2 C35_2 1_555 1_555
H62_2 C64_2 1_555 1_555
H89_2 C93_2 1_555 1_555
H142_2 C158_2 1_555 1_555
H157_2 C181_2 1_555 1_555
Zn1_2 O4_2 1_555 1_555
Zn9 O1_2 1_555 1_555
Al1_2 O1_2 1_555 1_555
Al2_2 O1_2 1_555 1_555
O1_2 Al4_2 1_555 1_555
O2_2 Al2_2 1_555 1_555
O3_2 Al1_2 1_555 1_555
O4_2 C4_2 1_555 1_555
O5_2 Al2_2 1_555 1_555
O6_2 Zn1_2 1_555 1_555
O7_2 Zn9 1_555 1_555
O8_2 Al2_2 1_555 1_555
O9_2 Zn9 1_555 1_555
O10_2 C6_2 1_555 1_555
N2_2 Zn1_2 1_555 1_555
C1_2 O3_2 1_555 1_555
C2_2 O8_2 1_555 1_555
C3_2 C2_2 1_555 1_555
C4_2 O2_2 1_555 1_555
C5_2 C4_2 1_555 1_555
C6_2 O5_2 1_555 1_555
C8_2 C6_2 1_555 1_555
C9_2 N2_2 1_555 1_555
H3_2 C9_2 1_555 1_555
H4_2 C9_2 1_555 1_555
C10_2 C1_2 1_555 1_555
C12_2 C3_2 1_555 1_555
H7_2 C12_2 1_555 1_555
C13_2 C8_2 1_555 1_555
H8_2 C13_2 1_555 1_555
C14_2 C10_2 1_555 1_555
H9_2 C14_2 1_555 1_555
C15_2 C8_2 1_555 1_555
H10_2 C15_2 1_555 1_555
C16_2 C5_2 1_555 1_555
H11_2 C16_2 1_555 1_555
C17_2 C10_2 1_555 1_555
H12_2 C17_2 1_555 1_555
C18_2 C13_2 1_555 1_555
H13_2 C18_2 1_555 1_555
C19_2 C5_2 1_555 1_555
H14_2 C19_2 1_555 1_555
C21_2 C3_2 1_555 1_555
H16_2 C21_2 1_555 1_555
C22_2 C16_2 1_555 1_555
H17_2 C22_2 1_555 1_555
C23_2 C18_2 1_555 1_555
H18_2 C23_2 1_555 1_555
C24_2 H19_2 1_555 1_555
C25_2 C22_2 1_555 1_555
H20_2 C25_2 1_555 1_555
C26_2 C19_2 1_555 1_555
H21_2 C26_2 1_555 1_555
C27_2 C14_2 1_555 1_555
H22_2 C27_2 1_555 1_555
C28_2 C17_2 1_555 1_555
H23_2 C28_2 1_555 1_555
C29_2 C21_2 1_555 1_555
H24_2 C29_2 1_555 1_555
C30_2 C15_2 1_555 1_555
H25_2 C30_2 1_555 1_555
C36_2 N2_2 1_555 1_555
H35_2 C36_2 1_555 1_555
H36_2 C36_2 1_555 1_555
C37_2 N2_2 1_555 1_555
H37_2 C37_2 1_555 1_555
H38_2 C37_2 1_555 1_555
N4_2 C38_2 1_555 1_555
C38_2 C9_2 1_555 1_555
H39_2 C38_2 1_555 1_555
H40_2 C38_2 1_555 1_555
C39_2 C36_2 1_555 1_555
H41_2 C39_2 1_555 1_555
H42_2 C39_2 1_555 1_555
C40_2 C37_2 1_555 1_555
H43_2 C40_2 1_555 1_555
H44_2 C40_2 1_555 1_555
Zn10 O10_2 1_555 1_555
Al3_2 O6_2 1_555 1_555
O11_2 Al1_2 1_555 1_555
O12_2 Al3_2 1_555 1_555
O13_2 Al1_2 1_555 1_555
O14_2 Zn1_2 1_555 1_555
O15_2 Al3_2 1_555 1_555
O16_2 Zn10 1_555 1_555
O17_2 Al3_2 1_555 1_555
O18_2 Zn10 1_555 1_555
O19_2 C46_2 1_555 1_555
C41_2 O13_2 1_555 1_555
C42_2 O17_2 1_555 1_555
C43_2 C42_2 1_555 1_555
C44_2 O12_2 1_555 1_555
C45_2 C44_2 1_555 1_555
C46_2 O15_2 1_555 1_555
C48_2 C46_2 1_555 1_555
C49_2 C41_2 1_555 1_555
C51_2 C43_2 1_555 1_555
H49_2 C51_2 1_555 1_555
C52_2 C48_2 1_555 1_555
H50_2 C52_2 1_555 1_555
C53_2 C49_2 1_555 1_555
H51_2 C53_2 1_555 1_555
C54_2 C48_2 1_555 1_555
H52_2 C54_2 1_555 1_555
C55_2 C45_2 1_555 1_555
H53_2 C55_2 1_555 1_555
C56_2 C49_2 1_555 1_555
H54_2 C56_2 1_555 1_555
C57_2 C52_2 1_555 1_555
H55_2 C57_2 1_555 1_555
C58_2 C45_2 1_555 1_555
H56_2 C58_2 1_555 1_555
C59_2 C51_2 1_555 1_555
H57_2 C59_2 1_555 1_555
C60_2 C43_2 1_555 1_555
H58_2 C60_2 1_555 1_555
C61_2 C55_2 1_555 1_555
C62_2 C57_2 1_555 1_555
H60_2 C62_2 1_555 1_555
C63_2 H61_2 1_555 1_555
C65_2 C58_2 1_555 1_555
H63_2 C65_2 1_555 1_555
C66_2 C53_2 1_555 1_555
H64_2 C66_2 1_555 1_555
C67_2 C56_2 1_555 1_555
H65_2 C67_2 1_555 1_555
C68_2 C60_2 1_555 1_555
H66_2 C68_2 1_555 1_555
C69_2 C54_2 1_555 1_555
H67_2 C69_2 1_555 1_555
C70_2 C59_2 1_555 1_555
H68_2 C70_2 1_555 1_555
Zn11 O19_2 1_555 1_555
Al4_2 O6_2 1_555 1_555
O20_2 Al1_2 1_555 1_555
O21_2 Al4_2 1_555 1_555
O22_2 Al1_2 1_555 1_555
O23_2 Zn1_2 1_555 1_555
O24_2 Al4_2 1_555 1_555
O25_2 Zn11 1_555 1_555
O26_2 Al4_2 1_555 1_555
O27_2 Zn11 1_555 1_555
O28_2 Zn9 1_555 1_555
C75_2 O22_2 1_555 1_555
C76_2 O26_2 1_555 1_555
C77_2 C76_2 1_555 1_555
C78_2 O21_2 1_555 1_555
C79_2 C78_2 1_555 1_555
C80_2 O24_2 1_555 1_555
C82_2 C80_2 1_555 1_555
C83_2 C75_2 1_555 1_555
C85_2 C77_2 1_555 1_555
H81_2 C85_2 1_555 1_555
C86_2 C82_2 1_555 1_555
H82_2 C86_2 1_555 1_555
C87_2 C83_2 1_555 1_555
H83_2 C87_2 1_555 1_555
C88_2 C82_2 1_555 1_555
H84_2 C88_2 1_555 1_555
C89_2 C79_2 1_555 1_555
H85_2 C89_2 1_555 1_555
C90_2 C83_2 1_555 1_555
H86_2 C90_2 1_555 1_555
C91_2 C86_2 1_555 1_555
H87_2 C91_2 1_555 1_555
C92_2 C79_2 1_555 1_555
H88_2 C92_2 1_555 1_555
C94_2 C77_2 1_555 1_555
H90_2 C94_2 1_555 1_555
C95_2 C89_2 1_555 1_555
C96_2 C91_2 1_555 1_555
H92_2 C96_2 1_555 1_555
C97_2 H93_2 1_555 1_555
C99_2 C92_2 1_555 1_555
H95_2 C99_2 1_555 1_555
C100_2 C87_2 1_555 1_555
H96_2 C100_2 1_555 1_555
C101_2 C90_2 1_555 1_555
H97_2 C101_2 1_555 1_555
C102_2 C94_2 1_555 1_555
H98_2 C102_2 1_555 1_555
C103_2 C88_2 1_555 1_555
H99_2 C103_2 1_555 1_555
Zn5_2 N4_2 1_555 1_555
Zn9_2 O29_2 1_555 1_555
Al5_2 O29_2 1_555 1_555
Al6_2 O29_2 1_555 1_555
O29_2 Al8_2 1_555 1_555
O30_2 Al6_2 1_555 1_555
O32_2 Zn5_2 1_555 1_555
O33_2 Al6_2 1_555 1_555
O34_2 Zn5_2 1_555 1_555
O36_2 Al6_2 1_555 1_555
O37_2 Zn9_2 1_555 1_555
O38_2 C114_2 1_555 1_555
C110_2 O36_2 1_555 1_555
C111_2 C110_2 1_555 1_555
C112_2 O30_2 1_555 1_555
C113_2 C112_2 1_555 1_555
C114_2 O33_2 1_555 1_555
C115_2 C114_2 1_555 1_555
C117_2 C111_2 1_555 1_555
H109_2 C117_2 1_555 1_555
C118_2 C115_2 1_555 1_555
H110_2 C118_2 1_555 1_555
C120_2 C115_2 1_555 1_555
C121_2 C113_2 1_555 1_555
H113_2 C121_2 1_555 1_555
C123_2 C118_2 1_555 1_555
H115_2 C123_2 1_555 1_555
C124_2 C113_2 1_555 1_555
H116_2 C124_2 1_555 1_555
C126_2 C111_2 1_555 1_555
H118_2 C126_2 1_555 1_555
C127_2 C121_2 1_555 1_555
H119_2 C127_2 1_555 1_555
C130_2 C127_2 1_555 1_555
H122_2 C130_2 1_555 1_555
C131_2 C124_2 1_555 1_555
H123_2 C131_2 1_555 1_555
C134_2 C126_2 1_555 1_555
H126_2 C134_2 1_555 1_555
Zn10_2 O38_2 1_555 1_555
Al7_2 O34_2 1_555 1_555
O39_2 Al5_2 1_555 1_555
O40_2 Al7_2 1_555 1_555
O42_2 Zn5_2 1_555 1_555
O43_2 Al7_2 1_555 1_555
O45_2 Al7_2 1_555 1_555
O46_2 Zn10_2 1_555 1_555
O47_2 C142_2 1_555 1_555
C138_2 O45_2 1_555 1_555
C139_2 C138_2 1_555 1_555
C140_2 O40_2 1_555 1_555
C141_2 C140_2 1_555 1_555
C142_2 O43_2 1_555 1_555
C143_2 C142_2 1_555 1_555
C145_2 C139_2 1_555 1_555
H129_2 C145_2 1_555 1_555
C146_2 C143_2 1_555 1_555
H130_2 C146_2 1_555 1_555
C148_2 C143_2 1_555 1_555
C149_2 C141_2 1_555 1_555
H133_2 C149_2 1_555 1_555
C151_2 C146_2 1_555 1_555
H135_2 C151_2 1_555 1_555
C152_2 C141_2 1_555 1_555
H136_2 C152_2 1_555 1_555
C153_2 C145_2 1_555 1_555
H137_2 C153_2 1_555 1_555
C154_2 C139_2 1_555 1_555
H138_2 C154_2 1_555 1_555
C155_2 C149_2 1_555 1_555
C159_2 C152_2 1_555 1_555
H143_2 C159_2 1_555 1_555
C162_2 C154_2 1_555 1_555
H146_2 C162_2 1_555 1_555
C164_2 C153_2 1_555 1_555
H148_2 C164_2 1_555 1_555
Zn11_2 O47_2 1_555 1_555
Al8_2 O34_2 1_555 1_555
O48_2 Al5_2 1_555 1_555
O49_2 Al8_2 1_555 1_555
O51_2 Zn5_2 1_555 1_555
O52_2 Al8_2 1_555 1_555
O54_2 Al8_2 1_555 1_555
O55_2 Zn11_2 1_555 1_555
O56_2 Zn9_2 1_555 1_555
C166_2 O54_2 1_555 1_555
C167_2 C166_2 1_555 1_555
C168_2 O49_2 1_555 1_555
C169_2 C168_2 1_555 1_555
C170_2 O52_2 1_555 1_555
C171_2 C170_2 1_555 1_555
C173_2 C167_2 1_555 1_555
H149_2 C173_2 1_555 1_555
C174_2 C171_2 1_555 1_555
H150_2 C174_2 1_555 1_555
C176_2 C171_2 1_555 1_555
C177_2 C169_2 1_555 1_555
H153_2 C177_2 1_555 1_555
C179_2 C174_2 1_555 1_555
H155_2 C179_2 1_555 1_555
C180_2 C169_2 1_555 1_555
H156_2 C180_2 1_555 1_555
C182_2 C167_2 1_555 1_555
H158_2 C182_2 1_555 1_555
C183_2 C177_2 1_555 1_555
C187_2 C180_2 1_555 1_555
H163_2 C187_2 1_555 1_555
C190_2 C182_2 1_555 1_555
H166_2 C190_2 1_555 1_555
Al2_2 O6_2 1_555 1_555
Al2_2 O11_2 1_555 1_555
O7_2 C1_2 1_555 1_555
O9_2 C2_2 1_555 1_555
C23_2 C30_2 1_555 1_555
C24_2 C27_2 1_555 1_555
C24_2 C28_2 1_555 1_555
C25_2 C26_2 1_555 1_555
C29_2 C31_2 1_555 1_555
N4_2 C39_2 1_555 1_555
N4_2 C40_2 1_555 1_555
Zn10 O11_2 1_555 1_555
Al3_2 O11_2 1_555 1_555
Al3_2 O20_2 1_555 1_555
O14_2 C44_2 1_555 1_555
O16_2 C41_2 1_555 1_555
O18_2 C42_2 1_555 1_555
C62_2 C69_2 1_555 1_555
C63_2 C66_2 1_555 1_555
C63_2 C67_2 1_555 1_555
C68_2 C70_2 1_555 1_555
Zn11 O20_2 1_555 1_555
Al4_2 O20_2 1_555 1_555
O23_2 C78_2 1_555 1_555
O25_2 C75_2 1_555 1_555
O27_2 C76_2 1_555 1_555
O28_2 C80_2 1_555 1_555
C96_2 C103_2 1_555 1_555
C97_2 C100_2 1_555 1_555
C97_2 C101_2 1_555 1_555
C102_2 C104_2 1_555 1_555
Al6_2 O34_2 1_555 1_555
Al6_2 O39_2 1_555 1_555
O32_2 C112_2 1_555 1_555
O37_2 C110_2 1_555 1_555
C130_2 C131_2 1_555 1_555
C134_2 C136_2 1_555 1_555
Zn10_2 O39_2 1_555 1_555
Al7_2 O39_2 1_555 1_555
Al7_2 O48_2 1_555 1_555
O42_2 C140_2 1_555 1_555
O46_2 C138_2 1_555 1_555
C162_2 C164_2 1_555 1_555
Zn11_2 O48_2 1_555 1_555
Al8_2 O48_2 1_555 1_555
O51_2 C168_2 1_555 1_555
O55_2 C166_2 1_555 1_555
O56_2 C170_2 1_555 1_555
C190_2 C192_2 1_555 1_555
C109_2 O31_2 1_555 1_555
C116_2 C109_2 1_555 1_555
C119_2 C116_2 1_555 1_555
H111_2 C119_2 1_555 1_555
C122_2 C116_2 1_555 1_555
H114_2 C122_2 1_555 1_555
H120_2 C128_2 1_555 1_555
C129_2 H121_2 1_555 1_555
C132_2 C119_2 1_555 1_555
H124_2 C132_2 1_555 1_555
C133_2 C122_2 1_555 1_555
H125_2 C133_2 1_555 1_555
H127_2 C135_2 1_555 1_555
C137_2 O41_2 1_555 1_555
C144_2 C137_2 1_555 1_555
C147_2 C144_2 1_555 1_555
H131_2 C147_2 1_555 1_555
C150_2 C144_2 1_555 1_555
H134_2 C150_2 1_555 1_555
H140_2 C156_2 1_555 1_555
C157_2 H141_2 1_555 1_555
C160_2 C147_2 1_555 1_555
H144_2 C160_2 1_555 1_555
C161_2 C150_2 1_555 1_555
H145_2 C161_2 1_555 1_555
H147_2 C163_2 1_555 1_555
C165_2 O50_2 1_555 1_555
C172_2 C165_2 1_555 1_555
C175_2 C172_2 1_555 1_555
H151_2 C175_2 1_555 1_555
C178_2 C172_2 1_555 1_555
H154_2 C178_2 1_555 1_555
H160_2 C184_2 1_555 1_555
C185_2 H161_2 1_555 1_555
C188_2 C175_2 1_555 1_555
H164_2 C188_2 1_555 1_555
C189_2 C178_2 1_555 1_555
H165_2 C189_2 1_555 1_555
H167_2 C191_2 1_555 1_555
O35_2 C109_2 1_555 1_555
C128_2 C135_2 1_555 1_555
C129_2 C132_2 1_555 1_555
C129_2 C133_2 1_555 1_555
O44_2 C137_2 1_555 1_555
C156_2 C163_2 1_555 1_555
C157_2 C160_2 1_555 1_555
C157_2 C161_2 1_555 1_555
O53_2 C165_2 1_555 1_555
C184_2 C191_2 1_555 1_555
C185_2 C188_2 1_555 1_555
C185_2 C189_2 1_555 1_555
H15_2 C20_2 1_555 1_555
H94_2 C98_2 1_555 1_555
H117_2 C125_2 1_555 1_555
H162_2 C186_2 1_555 1_555

#END
