
###############################################################################
#
# This file contains modified crystal structure data generated from the
# MOF subset of the Cambridge Structural Database (CSD) v543 
# hosted by the Cambridge Crystallographic Data Centre (CCDC).
#
# This work is licensed under the Creative Commons
# Attribution-NonCommercial-ShareAlike 4.0 International License.
# To view a copy of this license, visit
# http://creativecommons.org/licenses/by-nc-sa/4.0/
# or send a letter to
# Creative Commons, PO Box 1866, Mountain View, CA 94042, USA.
#
# CIF created using the CSD Python API on 29 September 2022
# The structure has been converted into the P1 space group
# The structure has a 3D framework
# The original CSD entry NECJAK is in the hexagonal crystal system
# The framework has been calculated to contain at least 10.0% void space
# The void calculation uses a probe of radius 1.32A, grid spacing 0.4
#
###############################################################################

data_NECJAK
_chemical_formula_moiety         '(C384 H336 Al16 Fe16 N16 O112)n'
_symmetry_cell_setting           triclinic
_symmetry_space_group_name_H-M   'P 1'
_symmetry_Int_Tables_number      1
_space_group_name_Hall           'P 1'
loop_
_symmetry_equiv_pos_site_id
_symmetry_equiv_pos_as_xyz
1 x,y,z
_cell_length_a                   22.7862(8)
_cell_length_b                   22.7862(8)
_cell_length_c                   37.2553(14)
_cell_angle_alpha                90
_cell_angle_beta                 90
_cell_angle_gamma                120
_cell_volume                     16751.8
loop_
_atom_site_label
_atom_site_type_symbol
_atom_site_fract_x
_atom_site_fract_y
_atom_site_fract_z
C68 C 0.0029(19) 0.4163(26) 0.3381(11)
H67 H 0.049494 0.445675 0.338043
C91 C 0.005(3) 0.591(2) 0.3322(13)
H88 H 0.051634 0.616319 0.328010
H91 H 0.007630 0.633888 0.381001
N8 N 0.0636(15) 0.5337(11) 0.5123(4)
C106 C 0.0331(16) 0.4583(12) 0.5086(6)
H103 H 0.063726 0.449212 0.494736
H104 H 0.028921 0.438848 0.532285
C107 C 0.0566(16) 0.5508(11) 0.4752(5)
H105 H 0.074076 0.529746 0.459092
H106 H 0.083745 0.599491 0.472085
C108 C 0.0160(17) 0.5439(12) 0.5346(7)
H107 H 0.024544 0.589737 0.531401
H108 H 0.023351 0.538156 0.559728
C161 C 0.0029(19) 0.4163(26) 0.1619(11)
H145 H 0.049494 0.445675 0.161957
C178 C 0.005(3) 0.591(2) 0.1678(13)
H154 H 0.051634 0.616319 0.171990
H157 H 0.007630 0.633888 0.118999
Fe10 Fe 0.1656(3) 0.5823(2) 0.53062(7)
Fe1 Fe 0.666667 0.333333 0.34273(13)
Fe2 Fe 0.5833(2) 0.4177(2) 0.46938(7)
Al1 Al 0.666667 0.333333 0.4845(2)
Al2 Al 0.5844(2) 0.2926(4) 0.42229(14)
O1 O 0.6303(6) 0.3718(6) 0.4509(3)
O2 O 0.5409(7) 0.3312(7) 0.3946(3)
O3 O 0.7030(8) 0.2937(8) 0.5142(3)
O4 O 0.666667 0.333333 0.3970(5)
O5 O 0.5420(7) 0.2140(6) 0.3918(3)
O6 O 0.5037(5) 0.2501(7) 0.4503(3)
O7 O 0.8156(8) 0.3619(8) 0.5161(4)
O8 O 0.5179(8) 0.1265(8) 0.4269(4)
O9 O 0.5768(7) 0.3366(7) 0.3379(4)
N1 N 0.666667 0.333333 0.2841(7)
N2 N 0.5299(10) 0.4663(11) 0.4877(4)
C1 C 0.7624(17) 0.3127(16) 0.5257(6)
O10 O 0.4886(9) 0.3357(9) 0.4714(4)
C2 C 0.5401(10) 0.3414(10) 0.3644(7)
C3 C 0.5748(11) 0.5417(12) 0.4914(6)
H1 H 0.614514 0.550788 0.505264
H2 H 0.590073 0.561152 0.467715
C4 C 0.6744(9) 0.3984(10) 0.2706(5)
H3 H 0.716594 0.436026 0.279357
H4 H 0.637440 0.403988 0.279357
C5 C 0.4941(14) 0.3629(14) 0.3510(7)
C6 C 0.4014(14) 0.2223(14) 0.4789(7)
C7 C 0.5058(11) 0.4492(11) 0.5248(5)
H5 H 0.544330 0.470254 0.540908
H6 H 0.484254 0.400509 0.527915
C8 C 0.7645(14) 0.2702(16) 0.5560(8)
C9 C 0.4721(12) 0.4561(12) 0.4654(7)
H7 H 0.434807 0.410263 0.468599
H8 H 0.485195 0.461844 0.440272
C10 C 0.5126(11) 0.1471(11) 0.3986(8)
C11 C 0.770(2) 0.188(2) 0.6098(12)
H9 H 0.773267 0.157353 0.624955
C12 C 0.4925(13) 0.3868(16) 0.3178(9)
H10 H 0.521032 0.384015 0.300825
C13 C 0.4711(11) 0.2765(18) 0.4663(7)
C14 C 0.4513(14) 0.3648(11) 0.3760(10)
H11 H 0.454423 0.354389 0.399835
C15 C 0.4745(15) 0.1110(17) 0.3668(8)
C16 C 0.448(2) 0.040(2) 0.3681(7)
H12 H 0.454195 0.020529 0.388894
C17 C 0.3857(13) 0.156(2) 0.4742(9)
H13 H 0.417474 0.146294 0.464310
C18 C 0.409(2) 0.414(2) 0.3322(13)
H14 H 0.383681 0.435315 0.328010
C19 C 0.7010(13) 0.2140(14) 0.5704(7)
H15 H 0.659154 0.205041 0.561543
C20 C 0.8234(15) 0.2806(17) 0.5707(8)
H16 H 0.864530 0.314197 0.561444
C21 C 0.4021(16) 0.3827(16) 0.3659(12)
H17 H 0.366112 0.373742 0.381001
C22 C 0.7057(17) 0.1726(14) 0.5991(9)
H18 H 0.667138 0.137459 0.609659
C23 C 0.362(2) 0.237(2) 0.4995(11)
H19 H 0.378547 0.282165 0.504954
C24 C 0.452(2) 0.416(2) 0.3050(9)
H20 H 0.454170 0.433904 0.282083
C25 C 0.4702(12) 0.1347(15) 0.3347(8)
H21 H 0.491360 0.181296 0.331339
C26 C 0.296(2) 0.188(2) 0.5142(11)
H22 H 0.267614 0.199462 0.526708
C27 C 0.318(2) 0.100(2) 0.4849(11)
H23 H 0.301623 0.055103 0.478156
C28 C 0.437(2) 0.0945(18) 0.3074(8)
H24 H 0.435309 0.113306 0.285594
C30 C 0.823(2) 0.239(2) 0.6010(13)
H26 H 0.862417 0.251272 0.613553
C31 C 0.2823(19) 0.1220(19) 0.5065(9)
H27 H 0.243532 0.087626 0.517341
C32 C 0.408(2) 0.031(2) 0.3108(11)
H28 H 0.380089 0.004913 0.291988
C33 C 0.6016(10) 0.2760(13) 0.2706(5)
H29 H 0.563974 0.280568 0.279357
H30 H 0.596012 0.233452 0.279357
C34 C 0.7240(13) 0.3256(9) 0.2706(5)
H31 H 0.719432 0.283406 0.279357
H32 H 0.766548 0.362560 0.279357
N3 N 0.666667 0.333333 0.2159(7)
C35 C 0.6744(9) 0.3984(10) 0.2294(5)
H33 H 0.716594 0.436026 0.220643
H34 H 0.637440 0.403988 0.220643
C36 C 0.6016(10) 0.2760(13) 0.2294(5)
H35 H 0.563974 0.280568 0.220643
H36 H 0.596012 0.233452 0.220643
C37 C 0.7240(13) 0.3256(9) 0.2294(5)
H37 H 0.719432 0.283406 0.220643
H38 H 0.766548 0.362560 0.220643
N4 N 0.4663(11) 0.5299(10) 0.5123(4)
C38 C 0.5417(12) 0.5748(11) 0.5086(6)
H39 H 0.550788 0.614514 0.494736
H40 H 0.561152 0.590073 0.532285
C39 C 0.4492(11) 0.5058(11) 0.4752(5)
H41 H 0.470254 0.544330 0.459092
H42 H 0.400509 0.484254 0.472085
C40 C 0.4561(12) 0.4721(12) 0.5346(7)
H43 H 0.410263 0.434807 0.531401
H44 H 0.461844 0.485195 0.559728
Fe3 Fe 0.5823(2) 0.1656(3) 0.46938(7)
Al3 Al 0.7074(4) 0.2918(4) 0.42229(14)
O11 O 0.6282(6) 0.2585(8) 0.4509(3)
O12 O 0.6688(7) 0.2097(10) 0.3946(3)
O13 O 0.7063(8) 0.4093(11) 0.5142(3)
O14 O 0.7860(6) 0.3280(9) 0.3918(3)
O15 O 0.7499(7) 0.2536(9) 0.4503(3)
O16 O 0.6381(8) 0.4537(11) 0.5161(4)
O17 O 0.8735(8) 0.3914(11) 0.4269(4)
O18 O 0.6634(7) 0.2402(10) 0.3379(4)
N5 N 0.5337(11) 0.0636(15) 0.4877(4)
C41 C 0.6873(16) 0.4497(23) 0.5257(6)
O19 O 0.6643(9) 0.1529(13) 0.4714(4)
C42 C 0.6586(10) 0.1987(14) 0.3644(7)
C43 C 0.4583(12) 0.0331(16) 0.4914(6)
H45 H 0.449212 0.063726 0.505264
H46 H 0.438848 0.028921 0.467715
C44 C 0.6371(14) 0.1312(20) 0.3510(7)
C45 C 0.7777(14) 0.1791(20) 0.4789(7)
C46 C 0.5508(11) 0.0566(16) 0.5248(5)
H47 H 0.529746 0.074076 0.540908
H48 H 0.599491 0.083745 0.527915
C47 C 0.7298(16) 0.4943(21) 0.5560(8)
C48 C 0.5439(12) 0.0160(17) 0.4654(7)
H49 H 0.589737 0.024544 0.468599
H50 H 0.538156 0.023351 0.440272
C49 C 0.8529(11) 0.3655(16) 0.3986(8)
C50 C 0.812(2) 0.582(3) 0.6098(12)
H51 H 0.842647 0.615914 0.624955
C51 C 0.6132(16) 0.1057(21) 0.3178(9)
H52 H 0.615985 0.137017 0.300825
C52 C 0.7235(18) 0.1946(21) 0.4663(7)
C53 C 0.6352(11) 0.0865(18) 0.3760(10)
H53 H 0.645611 0.100034 0.399835
C54 C 0.8890(17) 0.3635(23) 0.3668(8)
C55 C 0.960(2) 0.408(3) 0.3681(7)
H54 H 0.979471 0.433666 0.388894
C56 C 0.844(2) 0.2297(24) 0.4742(9)
H55 H 0.853706 0.271180 0.464310
C58 C 0.7860(14) 0.4870(19) 0.5704(7)
H57 H 0.794959 0.454113 0.561543
C59 C 0.7194(17) 0.5428(23) 0.5707(8)
H58 H 0.685803 0.550333 0.561444
C60 C 0.6173(16) 0.0194(23) 0.3659(12)
C61 C 0.8274(14) 0.5331(22) 0.5991(9)
H60 H 0.862541 0.529679 0.609659
C62 C 0.763(2) 0.125(3) 0.4995(11)
H61 H 0.717835 0.096382 0.504954
C63 C 0.584(2) 0.036(3) 0.3050(9)
H62 H 0.566096 0.020266 0.282083
C64 C 0.8653(15) 0.3355(19) 0.3347(8)
H63 H 0.818704 0.310064 0.331339
C65 C 0.812(2) 0.108(3) 0.5142(11)
H64 H 0.800538 0.068152 0.526708
C66 C 0.900(2) 0.218(3) 0.4849(11)
H65 H 0.944897 0.246520 0.478156
C67 C 0.9055(18) 0.3425(27) 0.3074(8)
H66 H 0.886694 0.322003 0.285594
C69 C 0.761(2) 0.584(3) 0.6010(13)
H68 H 0.748728 0.611145 0.613553
C70 C 0.8780(19) 0.1603(27) 0.5065(9)
H69 H 0.912374 0.155906 0.517341
C71 C 0.969(2) 0.377(3) 0.3108(11)
H70 H 0.995087 0.375176 0.291988
Fe4 Fe 0.8344(3) 0.4167(2) 0.46938(7)
Al4 Al 0.7082(4) 0.4156(2) 0.42229(14)
O20 O 0.7415(8) 0.3697(6) 0.4509(3)
O21 O 0.7903(10) 0.4591(7) 0.3946(3)
O22 O 0.5907(11) 0.2970(8) 0.5142(3)
O23 O 0.6720(9) 0.4580(7) 0.3918(3)
O24 O 0.7464(9) 0.4963(5) 0.4503(3)
O25 O 0.5463(11) 0.1844(8) 0.5161(4)
O26 O 0.6086(11) 0.4821(8) 0.4269(4)
O27 O 0.7598(10) 0.4232(7) 0.3379(4)
N7 N 0.9364(15) 0.4701(10) 0.4877(4)
C75 C 0.5503(23) 0.2376(17) 0.5257(6)
O28 O 0.8471(13) 0.5114(9) 0.4714(4)
C76 C 0.8013(14) 0.4599(10) 0.3644(7)
C77 C 0.9669(16) 0.4252(11) 0.4914(6)
H77 H 0.936274 0.385486 0.505264
H78 H 0.971079 0.409927 0.467715
C78 C 0.8688(20) 0.5059(14) 0.3510(7)
C79 C 0.8209(20) 0.5986(14) 0.4789(7)
C80 C 0.9434(16) 0.4942(11) 0.5248(5)
H79 H 0.925924 0.455670 0.540908
H80 H 0.916255 0.515746 0.527915
C81 C 0.5057(21) 0.2355(14) 0.5560(8)
C82 C 0.9840(17) 0.5279(12) 0.4654(7)
H81 H 0.975456 0.565193 0.468599
H82 H 0.976649 0.514805 0.440272
C83 C 0.6345(16) 0.4874(11) 0.3986(8)
C84 C 0.418(3) 0.230(2) 0.6098(12)
H83 H 0.384086 0.226733 0.624955
C85 C 0.8943(21) 0.5075(13) 0.3178(9)
H84 H 0.862983 0.478968 0.300825
C86 C 0.8054(21) 0.5289(11) 0.4663(7)
C87 C 0.9135(18) 0.5487(14) 0.3760(10)
H85 H 0.899966 0.545577 0.399835
C88 C 0.6365(23) 0.5255(15) 0.3668(8)
C89 C 0.592(3) 0.552(2) 0.3681(7)
H86 H 0.566334 0.545805 0.388894
C90 C 0.7703(24) 0.6143(13) 0.4742(9)
H87 H 0.728820 0.582526 0.464310
C92 C 0.5130(19) 0.2990(13) 0.5704(7)
H89 H 0.545887 0.340846 0.561543
C93 C 0.4572(23) 0.1766(15) 0.5707(8)
H90 H 0.449667 0.135470 0.561444
C94 C 0.9806(23) 0.5979(16) 0.3659(12)
C95 C 0.4669(22) 0.2943(17) 0.5991(9)
H92 H 0.470321 0.332862 0.609659
C96 C 0.875(3) 0.638(2) 0.4995(11)
H93 H 0.903618 0.621453 0.504954
C97 C 0.964(3) 0.548(2) 0.3050(9)
H94 H 0.979734 0.545830 0.282083
C98 C 0.6645(19) 0.5298(12) 0.3347(8)
H95 H 0.689936 0.508640 0.331339
C99 C 0.892(3) 0.704(2) 0.5142(11)
H96 H 0.931848 0.732386 0.526708
C100 C 0.782(3) 0.682(2) 0.4849(11)
H97 H 0.753480 0.698377 0.478156
C101 C 0.6575(27) 0.563(2) 0.3074(8)
H98 H 0.677997 0.564691 0.285594
C102 C 0.5837(26) 0.5866(18) 0.3381(11)
H99 H 0.554325 0.603819 0.338043
C103 C 0.416(3) 0.177(2) 0.6010(13)
H100 H 0.388855 0.137583 0.613553
C104 C 0.8397(27) 0.7177(19) 0.5065(9)
H101 H 0.844094 0.756468 0.517341
C105 C 0.623(3) 0.592(2) 0.3108(11)
H102 H 0.624824 0.619911 0.291988
Fe5 Fe 0.666667 0.333333 0.15727(13)
Fe6 Fe 0.5833(2) 0.4177(2) 0.03062(7)
Al5 Al 0.666667 0.333333 0.0155(2)
Al6 Al 0.5844(2) 0.2926(4) 0.07771(14)
O29 O 0.6303(6) 0.3718(6) 0.0491(3)
O30 O 0.5409(7) 0.3312(7) 0.1054(3)
O32 O 0.666667 0.333333 0.1030(5)
O33 O 0.5420(7) 0.2140(6) 0.1082(3)
O34 O 0.5037(5) 0.2501(7) 0.0497(3)
O36 O 0.5179(8) 0.1265(8) 0.0731(4)
O37 O 0.5768(7) 0.3366(7) 0.1621(4)
O38 O 0.4886(9) 0.3357(9) 0.0286(4)
C110 C 0.5401(10) 0.3414(10) 0.1356(7)
C111 C 0.4941(14) 0.3629(14) 0.1490(7)
C112 C 0.4014(14) 0.2223(14) 0.0211(7)
C114 C 0.5126(11) 0.1471(11) 0.1014(8)
C116 C 0.4925(13) 0.3868(16) 0.1822(9)
H110 H 0.521032 0.384015 0.199175
C117 C 0.4711(11) 0.2765(18) 0.0337(7)
C118 C 0.4513(14) 0.3648(11) 0.1240(10)
H111 H 0.454423 0.354389 0.100165
C119 C 0.4745(15) 0.1110(17) 0.1332(8)
C120 C 0.448(2) 0.040(2) 0.1319(7)
H112 H 0.454195 0.020529 0.111106
C121 C 0.3857(13) 0.156(2) 0.0258(9)
H113 H 0.417474 0.146294 0.035690
C122 C 0.409(2) 0.414(2) 0.1678(13)
H114 H 0.383681 0.435315 0.171990
C125 C 0.4021(16) 0.3827(16) 0.1341(12)
H117 H 0.366112 0.373742 0.118999
C127 C 0.362(2) 0.237(2) 0.0005(11)
C128 C 0.452(2) 0.416(2) 0.1950(9)
H120 H 0.454170 0.433904 0.217917
C129 C 0.4702(12) 0.1347(15) 0.1653(8)
H121 H 0.491360 0.181296 0.168661
C131 C 0.318(2) 0.100(2) 0.0151(11)
H123 H 0.301623 0.055103 0.021844
C132 C 0.437(2) 0.0945(18) 0.1926(8)
H124 H 0.435309 0.113306 0.214406
C136 C 0.408(2) 0.031(2) 0.1892(11)
H128 H 0.380089 0.004913 0.208012
Fe7 Fe 0.5823(2) 0.1656(3) 0.03062(7)
Al7 Al 0.7074(4) 0.2918(4) 0.07771(14)
O39 O 0.6282(6) 0.2585(8) 0.0491(3)
O40 O 0.6688(7) 0.2097(10) 0.1054(3)
O42 O 0.7860(6) 0.3280(9) 0.1082(3)
O43 O 0.7499(7) 0.2536(9) 0.0497(3)
O45 O 0.8735(8) 0.3914(11) 0.0731(4)
O46 O 0.6634(7) 0.2402(10) 0.1621(4)
O47 O 0.6643(9) 0.1529(13) 0.0286(4)
C138 C 0.6586(10) 0.1987(14) 0.1356(7)
C139 C 0.6371(14) 0.1312(20) 0.1490(7)
C140 C 0.7777(14) 0.1791(20) 0.0211(7)
C142 C 0.8529(11) 0.3655(16) 0.1014(8)
C144 C 0.6132(16) 0.1057(21) 0.1822(9)
H130 H 0.615985 0.137017 0.199175
C145 C 0.7235(18) 0.1946(21) 0.0337(7)
C146 C 0.6352(11) 0.0865(18) 0.1240(10)
H131 H 0.645611 0.100034 0.100165
C147 C 0.8890(17) 0.3635(23) 0.1332(8)
C148 C 0.960(2) 0.408(3) 0.1319(7)
H132 H 0.979471 0.433666 0.111106
C149 C 0.844(2) 0.2297(24) 0.0258(9)
H133 H 0.853706 0.271180 0.035690
C153 C 0.6173(16) 0.0194(23) 0.1341(12)
C155 C 0.763(2) 0.125(3) 0.0005(11)
C156 C 0.584(2) 0.036(3) 0.1950(9)
H140 H 0.566096 0.020266 0.217917
C157 C 0.8653(15) 0.3355(19) 0.1653(8)
H141 H 0.818704 0.310064 0.168661
C159 C 0.900(2) 0.218(3) 0.0151(11)
H143 H 0.944897 0.246520 0.021844
C160 C 0.9055(18) 0.3425(27) 0.1926(8)
H144 H 0.886694 0.322003 0.214406
C164 C 0.969(2) 0.377(3) 0.1892(11)
H148 H 0.995087 0.375176 0.208012
Fe8 Fe 0.8344(3) 0.4167(2) 0.03062(7)
Al8 Al 0.7082(4) 0.4156(2) 0.07771(14)
O48 O 0.7415(8) 0.3697(6) 0.0491(3)
O49 O 0.7903(10) 0.4591(7) 0.1054(3)
O51 O 0.6720(9) 0.4580(7) 0.1082(3)
O52 O 0.7464(9) 0.4963(5) 0.0497(3)
O54 O 0.6086(11) 0.4821(8) 0.0731(4)
O55 O 0.7598(10) 0.4232(7) 0.1621(4)
O56 O 0.8471(13) 0.5114(9) 0.0286(4)
C166 C 0.8013(14) 0.4599(10) 0.1356(7)
C167 C 0.8688(20) 0.5059(14) 0.1490(7)
C168 C 0.8209(20) 0.5986(14) 0.0211(7)
C170 C 0.6345(16) 0.4874(11) 0.1014(8)
C172 C 0.8943(21) 0.5075(13) 0.1822(9)
H150 H 0.862983 0.478968 0.199175
C173 C 0.8054(21) 0.5289(11) 0.0337(7)
C174 C 0.9135(18) 0.5487(14) 0.1240(10)
H151 H 0.899966 0.545577 0.100165
C175 C 0.6365(23) 0.5255(15) 0.1332(8)
C176 C 0.592(3) 0.552(2) 0.1319(7)
H152 H 0.566334 0.545805 0.111106
C177 C 0.7703(24) 0.6143(13) 0.0258(9)
H153 H 0.728820 0.582526 0.035690
C181 C 0.9806(23) 0.5979(16) 0.1341(12)
C183 C 0.875(3) 0.638(2) 0.0005(11)
C184 C 0.964(3) 0.548(2) 0.1950(9)
H160 H 0.979734 0.545830 0.217917
C185 C 0.6645(19) 0.5298(12) 0.1653(8)
H161 H 0.689936 0.508640 0.168661
C187 C 0.782(3) 0.682(2) 0.0151(11)
H163 H 0.753480 0.698377 0.021844
C188 C 0.6575(27) 0.563(2) 0.1926(8)
H164 H 0.677997 0.564691 0.214406
C189 C 0.5837(26) 0.5866(18) 0.1619(11)
H165 H 0.554325 0.603819 0.161957
C192 C 0.623(3) 0.592(2) 0.1892(11)
H168 H 0.624824 0.619911 0.208012
Fe9 Fe 0.4177(2) 0.5833(2) 0.53062(7)
N9 N 0.5299(10) 0.4663(11) 0.0123(4)
N10 N 0.5337(11) 0.0636(15) 0.0123(4)
N11 N 0.9364(15) 0.4701(10) 0.0123(4)
O31 O 0.7030(8) 0.2937(8) 0.9858(3)
O35 O 0.8156(8) 0.3619(8) 0.9839(4)
C109 C 0.7624(17) 0.3127(16) 0.9743(6)
C113 C 0.7645(14) 0.2702(16) 0.9440(8)
C115 C 0.770(2) 0.188(2) 0.8902(12)
H109 H 0.773267 0.157353 0.875045
C123 C 0.7010(13) 0.2140(14) 0.9296(7)
H115 H 0.659154 0.205041 0.938457
C124 C 0.8234(15) 0.2806(17) 0.9293(8)
H116 H 0.864530 0.314197 0.938556
C126 C 0.7057(17) 0.1726(14) 0.9009(9)
H118 H 0.667138 0.137459 0.890341
H119 H 0.378547 0.282165 0.995046
C130 C 0.296(2) 0.188(2) 0.9858(11)
H122 H 0.267614 0.199462 0.973292
C134 C 0.823(2) 0.239(2) 0.8990(13)
H126 H 0.862417 0.251272 0.886447
C135 C 0.2823(19) 0.1220(19) 0.9935(9)
H127 H 0.243532 0.087626 0.982659
O41 O 0.7063(8) 0.4093(11) 0.9858(3)
O44 O 0.6381(8) 0.4537(11) 0.9839(4)
C137 C 0.6873(16) 0.4497(23) 0.9743(6)
C141 C 0.7298(16) 0.4943(21) 0.9440(8)
C143 C 0.812(2) 0.582(3) 0.8902(12)
H129 H 0.842647 0.615914 0.875045
C151 C 0.7860(14) 0.4870(19) 0.9296(7)
H135 H 0.794959 0.454113 0.938457
C152 C 0.7194(17) 0.5428(23) 0.9293(8)
H136 H 0.685803 0.550333 0.938556
C154 C 0.8274(14) 0.5331(22) 0.9009(9)
H138 H 0.862541 0.529679 0.890341
H139 H 0.717835 0.096382 0.995046
C158 C 0.812(2) 0.108(3) 0.9858(11)
H142 H 0.800538 0.068152 0.973292
C162 C 0.761(2) 0.584(3) 0.8990(13)
H146 H 0.748728 0.611145 0.886447
C163 C 0.8780(19) 0.1603(27) 0.9935(9)
H147 H 0.912374 0.155906 0.982659
O50 O 0.5907(11) 0.2970(8) 0.9858(3)
O53 O 0.5463(11) 0.1844(8) 0.9839(4)
C165 C 0.5503(23) 0.2376(17) 0.9743(6)
C169 C 0.5057(21) 0.2355(14) 0.9440(8)
C171 C 0.418(3) 0.230(2) 0.8902(12)
H149 H 0.384086 0.226733 0.875045
C179 C 0.5130(19) 0.2990(13) 0.9296(7)
H155 H 0.545887 0.340846 0.938457
C180 C 0.4572(23) 0.1766(15) 0.9293(8)
H156 H 0.449667 0.135470 0.938556
C182 C 0.4669(22) 0.2943(17) 0.9009(9)
H158 H 0.470321 0.332862 0.890341
H159 H 0.903618 0.621453 0.995046
C186 C 0.892(3) 0.704(2) 0.9858(11)
H162 H 0.931848 0.732386 0.973292
C190 C 0.416(3) 0.177(2) 0.8990(13)
H166 H 0.388855 0.137583 0.886447
C191 C 0.8397(27) 0.7177(19) 0.9935(9)
H167 H 0.844094 0.756468 0.982659
C29 C 0.4134(18) 0.9971(19) 0.3381(11)
H25 H 0.396181 0.950506 0.338043
C57 C 0.586(2) 0.995(3) 0.3322(13)
H56 H 0.564685 0.948366 0.328010
H59 H 0.626258 0.992370 0.381001
N6 N 0.4701(10) 0.9364(15) 0.5123(4)
C72 C 0.4252(11) 0.9669(16) 0.5086(6)
H71 H 0.385486 0.936274 0.494736
H72 H 0.409927 0.971079 0.532285
C73 C 0.4942(11) 0.9434(16) 0.4752(5)
H73 H 0.455670 0.925924 0.459092
H74 H 0.515746 0.916255 0.472085
C74 C 0.5279(12) 0.9840(17) 0.5346(7)
H75 H 0.565193 0.975456 0.531401
H76 H 0.514805 0.976649 0.559728
C133 C 0.4134(18) 0.9971(19) 0.1619(11)
H125 H 0.396181 0.950506 0.161957
C150 C 0.586(2) 0.995(3) 0.1678(13)
H134 H 0.564685 0.948366 0.171990
H137 H 0.626258 0.992370 0.118999
Fe11 Fe 0.4167(2) 0.8344(3) 0.53062(7)
H103_2 H 0.063726 0.449212 0.005264
C107_2 C 0.0566(16) 0.5508(11) 0.0248(5)
H105_2 H 0.074076 0.529746 0.040908
H106_2 H 0.083745 0.599491 0.027915
N8_2 N 0.0636(15) 0.5337(11) 0.9877(4)
C106_2 C 0.0331(16) 0.4583(12) 0.9914(6)
H104_2 H 0.028921 0.438848 0.967715
C108_2 C 0.0160(17) 0.5439(12) 0.9654(7)
H107_2 H 0.024544 0.589737 0.968599
H108_2 H 0.023351 0.538156 0.940272
Fe10_2 Fe 0.1656(3) 0.5823(2) 0.96938(7)
C3_2 C 0.5748(11) 0.5417(12) 0.0086(6)
H2_2 H 0.590073 0.561152 0.032285
C9_2 C 0.4721(12) 0.4561(12) 0.0346(7)
H7_2 H 0.434807 0.410263 0.031401
H8_2 H 0.485195 0.461844 0.059728
H39_2 H 0.550788 0.614514 0.005264
C39_2 C 0.4492(11) 0.5058(11) 0.0248(5)
H41_2 H 0.470254 0.544330 0.040908
H42_2 H 0.400509 0.484254 0.027915
C43_2 C 0.4583(12) 0.0331(16) 0.0086(6)
H46_2 H 0.438848 0.028921 0.032285
C48_2 C 0.5439(12) 0.0160(17) 0.0346(7)
H49_2 H 0.589737 0.024544 0.031401
H50_2 H 0.538156 0.023351 0.059728
C77_2 C 0.9669(16) 0.4252(11) 0.0086(6)
H78_2 H 0.971079 0.409927 0.032285
C82_2 C 0.9840(17) 0.5279(12) 0.0346(7)
H81_2 H 0.975456 0.565193 0.031401
H82_2 H 0.976649 0.514805 0.059728
H1_2 H 0.614514 0.550788 0.994736
C7_2 C 0.5058(11) 0.4492(11) 0.9752(5)
H5_2 H 0.544330 0.470254 0.959092
H6_2 H 0.484254 0.400509 0.972085
N4_2 N 0.4663(11) 0.5299(10) 0.9877(4)
C38_2 C 0.5417(12) 0.5748(11) 0.9914(6)
H40_2 H 0.561152 0.590073 0.967715
C40_2 C 0.4561(12) 0.4721(12) 0.9654(7)
H43_2 H 0.410263 0.434807 0.968599
H44_2 H 0.461844 0.485195 0.940272
H45_2 H 0.449212 0.063726 0.994736
C46_2 C 0.5508(11) 0.0566(16) 0.9752(5)
H47_2 H 0.529746 0.074076 0.959092
H48_2 H 0.599491 0.083745 0.972085
H77_2 H 0.936274 0.385486 0.994736
C80_2 C 0.9434(16) 0.4942(11) 0.9752(5)
H79_2 H 0.925924 0.455670 0.959092
H80_2 H 0.916255 0.515746 0.972085
Fe9_2 Fe 0.4177(2) 0.5833(2) 0.96938(7)
H71_2 H 0.385486 0.936274 0.005264
C73_2 C 0.4942(11) 0.9434(16) 0.0248(5)
H73_2 H 0.455670 0.925924 0.040908
H74_2 H 0.515746 0.916255 0.027915
N6_2 N 0.4701(10) 0.9364(15) 0.9877(4)
C72_2 C 0.4252(11) 0.9669(16) 0.9914(6)
H72_2 H 0.409927 0.971079 0.967715
C74_2 C 0.5279(12) 0.9840(17) 0.9654(7)
H75_2 H 0.565193 0.975456 0.968599
H76_2 H 0.514805 0.976649 0.940272
Fe11_2 Fe 0.4167(2) 0.8344(3) 0.96938(7)
C68_2 C 0.4163(26) 0.0029(19) 0.6619(11)
H67_2 H 0.445675 0.049494 0.661957
C91_2 C 0.591(2) 0.005(3) 0.6678(13)
H88_2 H 0.616319 0.051634 0.671990
H91_2 H 0.633888 0.007630 0.618999
C161_2 C 0.4163(26) 0.0029(19) 0.8381(11)
H145_2 H 0.445675 0.049494 0.838043
C178_2 C 0.591(2) 0.005(3) 0.8322(13)
H154_2 H 0.616319 0.051634 0.828010
H157_2 H 0.633888 0.007630 0.881001
O31_2 O 0.2937(8) 0.7030(8) 0.0142(3)
O35_2 O 0.3619(8) 0.8156(8) 0.0161(4)
C109_2 C 0.3127(16) 0.7624(17) 0.0257(6)
C113_2 C 0.2702(16) 0.7645(14) 0.0560(8)
C115_2 C 0.188(2) 0.770(2) 0.1098(12)
H109_2 H 0.157353 0.773267 0.124955
C123_2 C 0.2140(14) 0.7010(13) 0.0704(7)
H115_2 H 0.205041 0.659154 0.061543
C124_2 C 0.2806(17) 0.8234(15) 0.0707(8)
H116_2 H 0.314197 0.864530 0.061444
C126_2 C 0.1726(14) 0.7057(17) 0.0991(9)
H118_2 H 0.137459 0.667138 0.109659
H119_2 H 0.282165 0.378547 0.004954
C130_2 C 0.188(2) 0.296(2) 0.0142(11)
H122_2 H 0.199462 0.267614 0.026708
C134_2 C 0.239(2) 0.823(2) 0.1010(13)
H126_2 H 0.251272 0.862417 0.113553
C135_2 C 0.1220(19) 0.2823(19) 0.0065(9)
H127_2 H 0.087626 0.243532 0.017341
O41_2 O 0.4093(11) 0.7063(8) 0.0142(3)
O44_2 O 0.4537(11) 0.6381(8) 0.0161(4)
C137_2 C 0.4497(23) 0.6873(16) 0.0257(6)
C141_2 C 0.4943(21) 0.7298(16) 0.0560(8)
C143_2 C 0.582(3) 0.812(2) 0.1098(12)
H129_2 H 0.615914 0.842647 0.124955
C151_2 C 0.4870(19) 0.7860(14) 0.0704(7)
H135_2 H 0.454113 0.794959 0.061543
C152_2 C 0.5428(23) 0.7194(17) 0.0707(8)
H136_2 H 0.550333 0.685803 0.061444
C154_2 C 0.5331(22) 0.8274(14) 0.0991(9)
H138_2 H 0.529679 0.862541 0.109659
H139_2 H 0.096382 0.717835 0.004954
C158_2 C 0.108(3) 0.812(2) 0.0142(11)
H142_2 H 0.068152 0.800538 0.026708
C162_2 C 0.584(3) 0.761(2) 0.1010(13)
H146_2 H 0.611145 0.748728 0.113553
C163_2 C 0.1603(27) 0.8780(19) 0.0065(9)
H147_2 H 0.155906 0.912374 0.017341
O50_2 O 0.2970(8) 0.5907(11) 0.0142(3)
O53_2 O 0.1844(8) 0.5463(11) 0.0161(4)
C165_2 C 0.2376(17) 0.5503(23) 0.0257(6)
C169_2 C 0.2355(14) 0.5057(21) 0.0560(8)
C171_2 C 0.230(2) 0.418(3) 0.1098(12)
H149_2 H 0.226733 0.384086 0.124955
C179_2 C 0.2990(13) 0.5130(19) 0.0704(7)
H155_2 H 0.340846 0.545887 0.061543
C180_2 C 0.1766(15) 0.4572(23) 0.0707(8)
H156_2 H 0.135470 0.449667 0.061444
C182_2 C 0.2943(17) 0.4669(22) 0.0991(9)
H158_2 H 0.332862 0.470321 0.109659
H159_2 H 0.621453 0.903618 0.004954
C186_2 C 0.704(2) 0.892(3) 0.0142(11)
H162_2 H 0.732386 0.931848 0.026708
C190_2 C 0.177(2) 0.416(3) 0.1010(13)
H166_2 H 0.137583 0.388855 0.113553
C191_2 C 0.7177(19) 0.8397(27) 0.0065(9)
H167_2 H 0.756468 0.844094 0.017341
Fe1_2 Fe 0.333333 0.666667 0.65727(13)
Al1_2 Al 0.333333 0.666667 0.5155(2)
Al2_2 Al 0.2926(4) 0.5844(2) 0.57771(14)
O1_2 O 0.3718(6) 0.6303(6) 0.5491(3)
O2_2 O 0.3312(7) 0.5409(7) 0.6054(3)
O3_2 O 0.2937(8) 0.7030(8) 0.4858(3)
O4_2 O 0.333333 0.666667 0.6030(5)
O5_2 O 0.2140(6) 0.5420(7) 0.6082(3)
O6_2 O 0.2501(7) 0.5037(5) 0.5497(3)
O7_2 O 0.3619(8) 0.8156(8) 0.4839(4)
O8_2 O 0.1265(8) 0.5179(8) 0.5731(4)
O9_2 O 0.3366(7) 0.5768(7) 0.6621(4)
N1_2 N 0.333333 0.666667 0.7159(7)
C1_2 C 0.3127(16) 0.7624(17) 0.4743(6)
O10_2 O 0.3357(9) 0.4886(9) 0.5286(4)
C2_2 C 0.3414(10) 0.5401(10) 0.6356(7)
C4_2 C 0.3984(10) 0.6744(9) 0.7294(5)
H3_2 H 0.436026 0.716594 0.720643
H4_2 H 0.403988 0.637440 0.720643
C5_2 C 0.3629(14) 0.4941(14) 0.6490(7)
C6_2 C 0.2223(14) 0.4014(14) 0.5211(7)
C8_2 C 0.2702(16) 0.7645(14) 0.4440(8)
C10_2 C 0.1471(11) 0.5126(11) 0.6014(8)
C11_2 C 0.188(2) 0.770(2) 0.3902(12)
H9_2 H 0.157353 0.773267 0.375045
C12_2 C 0.3868(16) 0.4925(13) 0.6822(9)
H10_2 H 0.384015 0.521032 0.699175
C13_2 C 0.2765(18) 0.4711(11) 0.5337(7)
C14_2 C 0.3648(11) 0.4513(14) 0.6240(10)
H11_2 H 0.354389 0.454423 0.600165
C15_2 C 0.1110(17) 0.4745(15) 0.6332(8)
C16_2 C 0.040(2) 0.448(2) 0.6319(7)
H12_2 H 0.020529 0.454195 0.611106
C17_2 C 0.156(2) 0.3857(13) 0.5258(9)
H13_2 H 0.146294 0.417474 0.535690
C18_2 C 0.414(2) 0.409(2) 0.6678(13)
H14_2 H 0.435315 0.383681 0.671990
C19_2 C 0.2140(14) 0.7010(13) 0.4296(7)
H15_2 H 0.205041 0.659154 0.438457
C20_2 C 0.2806(17) 0.8234(15) 0.4293(8)
H16_2 H 0.314197 0.864530 0.438556
C21_2 C 0.3827(16) 0.4021(16) 0.6341(12)
H17_2 H 0.373742 0.366112 0.618999
C22_2 C 0.1726(14) 0.7057(17) 0.4009(9)
H18_2 H 0.137459 0.667138 0.390341
C23_2 C 0.237(2) 0.362(2) 0.5005(11)
H19_2 H 0.282165 0.378547 0.495046
C24_2 C 0.416(2) 0.452(2) 0.6950(9)
H20_2 H 0.433904 0.454170 0.717917
C25_2 C 0.1347(15) 0.4702(12) 0.6653(8)
H21_2 H 0.181296 0.491360 0.668661
C26_2 C 0.188(2) 0.296(2) 0.4858(11)
H22_2 H 0.199462 0.267614 0.473292
C27_2 C 0.100(2) 0.318(2) 0.5151(11)
H23_2 H 0.055103 0.301623 0.521844
C28_2 C 0.0945(18) 0.437(2) 0.6926(8)
H24_2 H 0.113306 0.435309 0.714406
C30_2 C 0.239(2) 0.823(2) 0.3990(13)
H26_2 H 0.251272 0.862417 0.386447
C31_2 C 0.1220(19) 0.2823(19) 0.4935(9)
H27_2 H 0.087626 0.243532 0.482659
C32_2 C 0.031(2) 0.408(2) 0.6892(11)
H28_2 H 0.004913 0.380089 0.708012
C33_2 C 0.2760(13) 0.6016(10) 0.7294(5)
H29_2 H 0.280568 0.563974 0.720643
H30_2 H 0.233452 0.596012 0.720643
C34_2 C 0.3256(9) 0.7240(13) 0.7294(5)
H31_2 H 0.283406 0.719432 0.720643
H32_2 H 0.362560 0.766548 0.720643
N3_2 N 0.333333 0.666667 0.7841(7)
C35_2 C 0.3984(10) 0.6744(9) 0.7706(5)
H33_2 H 0.436026 0.716594 0.779357
H34_2 H 0.403988 0.637440 0.779357
C36_2 C 0.2760(13) 0.6016(10) 0.7706(5)
H35_2 H 0.280568 0.563974 0.779357
H36_2 H 0.233452 0.596012 0.779357
C37_2 C 0.3256(9) 0.7240(13) 0.7706(5)
H37_2 H 0.283406 0.719432 0.779357
H38_2 H 0.362560 0.766548 0.779357
Al3_2 Al 0.2918(4) 0.7074(4) 0.57771(14)
O11_2 O 0.2585(8) 0.6282(6) 0.5491(3)
O12_2 O 0.2097(10) 0.6688(7) 0.6054(3)
O13_2 O 0.4093(11) 0.7063(8) 0.4858(3)
O14_2 O 0.3280(9) 0.7860(6) 0.6082(3)
O15_2 O 0.2536(9) 0.7499(7) 0.5497(3)
O16_2 O 0.4537(11) 0.6381(8) 0.4839(4)
O17_2 O 0.3914(11) 0.8735(8) 0.5731(4)
O18_2 O 0.2402(10) 0.6634(7) 0.6621(4)
C41_2 C 0.4497(23) 0.6873(16) 0.4743(6)
O19_2 O 0.1529(13) 0.6643(9) 0.5286(4)
C42_2 C 0.1987(14) 0.6586(10) 0.6356(7)
C44_2 C 0.1312(20) 0.6371(14) 0.6490(7)
C45_2 C 0.1791(20) 0.7777(14) 0.5211(7)
C47_2 C 0.4943(21) 0.7298(16) 0.4440(8)
C49_2 C 0.3655(16) 0.8529(11) 0.6014(8)
C50_2 C 0.582(3) 0.812(2) 0.3902(12)
H51_2 H 0.615914 0.842647 0.375045
C51_2 C 0.1057(21) 0.6132(16) 0.6822(9)
H52_2 H 0.137017 0.615985 0.699175
C52_2 C 0.1946(21) 0.7235(18) 0.5337(7)
C53_2 C 0.0865(18) 0.6352(11) 0.6240(10)
H53_2 H 0.100034 0.645611 0.600165
C54_2 C 0.3635(23) 0.8890(17) 0.6332(8)
C55_2 C 0.408(3) 0.960(2) 0.6319(7)
H54_2 H 0.433666 0.979471 0.611106
C56_2 C 0.2297(24) 0.844(2) 0.5258(9)
H55_2 H 0.271180 0.853706 0.535690
C58_2 C 0.4870(19) 0.7860(14) 0.4296(7)
H57_2 H 0.454113 0.794959 0.438457
C59_2 C 0.5428(23) 0.7194(17) 0.4293(8)
H58_2 H 0.550333 0.685803 0.438556
C60_2 C 0.0194(23) 0.6173(16) 0.6341(12)
C61_2 C 0.5331(22) 0.8274(14) 0.4009(9)
H60_2 H 0.529679 0.862541 0.390341
C62_2 C 0.125(3) 0.763(2) 0.5005(11)
H61_2 H 0.096382 0.717835 0.495046
C63_2 C 0.036(3) 0.584(2) 0.6950(9)
H62_2 H 0.020266 0.566096 0.717917
C64_2 C 0.3355(19) 0.8653(15) 0.6653(8)
H63_2 H 0.310064 0.818704 0.668661
C65_2 C 0.108(3) 0.812(2) 0.4858(11)
H64_2 H 0.068152 0.800538 0.473292
C66_2 C 0.218(3) 0.900(2) 0.5151(11)
H65_2 H 0.246520 0.944897 0.521844
C67_2 C 0.3425(27) 0.9055(18) 0.6926(8)
H66_2 H 0.322003 0.886694 0.714406
C69_2 C 0.584(3) 0.761(2) 0.3990(13)
H68_2 H 0.611145 0.748728 0.386447
C70_2 C 0.1603(27) 0.8780(19) 0.4935(9)
H69_2 H 0.155906 0.912374 0.482659
C71_2 C 0.377(3) 0.969(2) 0.6892(11)
H70_2 H 0.375176 0.995087 0.708012
Al4_2 Al 0.4156(2) 0.7082(4) 0.57771(14)
O20_2 O 0.3697(6) 0.7415(8) 0.5491(3)
O21_2 O 0.4591(7) 0.7903(10) 0.6054(3)
O22_2 O 0.2970(8) 0.5907(11) 0.4858(3)
O23_2 O 0.4580(7) 0.6720(9) 0.6082(3)
O24_2 O 0.4963(5) 0.7464(9) 0.5497(3)
O25_2 O 0.1844(8) 0.5463(11) 0.4839(4)
O26_2 O 0.4821(8) 0.6086(11) 0.5731(4)
O27_2 O 0.4232(7) 0.7598(10) 0.6621(4)
C75_2 C 0.2376(17) 0.5503(23) 0.4743(6)
O28_2 O 0.5114(9) 0.8471(13) 0.5286(4)
C76_2 C 0.4599(10) 0.8013(14) 0.6356(7)
C78_2 C 0.5059(14) 0.8688(20) 0.6490(7)
C79_2 C 0.5986(14) 0.8209(20) 0.5211(7)
C81_2 C 0.2355(14) 0.5057(21) 0.4440(8)
C83_2 C 0.4874(11) 0.6345(16) 0.6014(8)
C84_2 C 0.230(2) 0.418(3) 0.3902(12)
H83_2 H 0.226733 0.384086 0.375045
C85_2 C 0.5075(13) 0.8943(21) 0.6822(9)
H84_2 H 0.478968 0.862983 0.699175
C86_2 C 0.5289(11) 0.8054(21) 0.5337(7)
C87_2 C 0.5487(14) 0.9135(18) 0.6240(10)
H85_2 H 0.545577 0.899966 0.600165
C88_2 C 0.5255(15) 0.6365(23) 0.6332(8)
C89_2 C 0.552(2) 0.592(3) 0.6319(7)
H86_2 H 0.545805 0.566334 0.611106
C90_2 C 0.6143(13) 0.7703(24) 0.5258(9)
H87_2 H 0.582526 0.728820 0.535690
C92_2 C 0.2990(13) 0.5130(19) 0.4296(7)
H89_2 H 0.340846 0.545887 0.438457
C93_2 C 0.1766(15) 0.4572(23) 0.4293(8)
H90_2 H 0.135470 0.449667 0.438556
C94_2 C 0.5979(16) 0.9806(23) 0.6341(12)
C95_2 C 0.2943(17) 0.4669(22) 0.4009(9)
H92_2 H 0.332862 0.470321 0.390341
C96_2 C 0.638(2) 0.875(3) 0.5005(11)
H93_2 H 0.621453 0.903618 0.495046
C97_2 C 0.548(2) 0.964(3) 0.6950(9)
H94_2 H 0.545830 0.979734 0.717917
C98_2 C 0.5298(12) 0.6645(19) 0.6653(8)
H95_2 H 0.508640 0.689936 0.668661
C99_2 C 0.704(2) 0.892(3) 0.4858(11)
H96_2 H 0.732386 0.931848 0.473292
C100_2 C 0.682(2) 0.782(3) 0.5151(11)
H97_2 H 0.698377 0.753480 0.521844
C101_2 C 0.563(2) 0.6575(27) 0.6926(8)
H98_2 H 0.564691 0.677997 0.714406
C102_2 C 0.5866(18) 0.5837(26) 0.6619(11)
H99_2 H 0.603819 0.554325 0.661957
C103_2 C 0.177(2) 0.416(3) 0.3990(13)
H100_2 H 0.137583 0.388855 0.386447
C104_2 C 0.7177(19) 0.8397(27) 0.4935(9)
H101_2 H 0.756468 0.844094 0.482659
C105_2 C 0.592(2) 0.623(3) 0.6892(11)
H102_2 H 0.619911 0.624824 0.708012
Fe5_2 Fe 0.333333 0.666667 0.84273(13)
Al5_2 Al 0.333333 0.666667 0.9845(2)
Al6_2 Al 0.2926(4) 0.5844(2) 0.92229(14)
O29_2 O 0.3718(6) 0.6303(6) 0.9509(3)
O30_2 O 0.3312(7) 0.5409(7) 0.8946(3)
O32_2 O 0.333333 0.666667 0.8970(5)
O33_2 O 0.2140(6) 0.5420(7) 0.8918(3)
O34_2 O 0.2501(7) 0.5037(5) 0.9503(3)
O36_2 O 0.1265(8) 0.5179(8) 0.9269(4)
O37_2 O 0.3366(7) 0.5768(7) 0.8379(4)
O38_2 O 0.3357(9) 0.4886(9) 0.9714(4)
C110_2 C 0.3414(10) 0.5401(10) 0.8644(7)
C111_2 C 0.3629(14) 0.4941(14) 0.8510(7)
C112_2 C 0.2223(14) 0.4014(14) 0.9789(7)
C114_2 C 0.1471(11) 0.5126(11) 0.8986(8)
C116_2 C 0.3868(16) 0.4925(13) 0.8178(9)
H110_2 H 0.384015 0.521032 0.800825
C117_2 C 0.2765(18) 0.4711(11) 0.9663(7)
C118_2 C 0.3648(11) 0.4513(14) 0.8760(10)
H111_2 H 0.354389 0.454423 0.899835
C119_2 C 0.1110(17) 0.4745(15) 0.8668(8)
C120_2 C 0.040(2) 0.448(2) 0.8681(7)
H112_2 H 0.020529 0.454195 0.888894
C121_2 C 0.156(2) 0.3857(13) 0.9742(9)
H113_2 H 0.146294 0.417474 0.964310
C122_2 C 0.414(2) 0.409(2) 0.8322(13)
H114_2 H 0.435315 0.383681 0.828010
C125_2 C 0.3827(16) 0.4021(16) 0.8659(12)
H117_2 H 0.373742 0.366112 0.881001
C127_2 C 0.237(2) 0.362(2) 0.9995(11)
C128_2 C 0.416(2) 0.452(2) 0.8050(9)
H120_2 H 0.433904 0.454170 0.782083
C129_2 C 0.1347(15) 0.4702(12) 0.8347(8)
H121_2 H 0.181296 0.491360 0.831339
C131_2 C 0.100(2) 0.318(2) 0.9849(11)
H123_2 H 0.055103 0.301623 0.978156
C132_2 C 0.0945(18) 0.437(2) 0.8074(8)
H124_2 H 0.113306 0.435309 0.785594
C136_2 C 0.031(2) 0.408(2) 0.8108(11)
H128_2 H 0.004913 0.380089 0.791988
Al7_2 Al 0.2918(4) 0.7074(4) 0.92229(14)
O39_2 O 0.2585(8) 0.6282(6) 0.9509(3)
O40_2 O 0.2097(10) 0.6688(7) 0.8946(3)
O42_2 O 0.3280(9) 0.7860(6) 0.8918(3)
O43_2 O 0.2536(9) 0.7499(7) 0.9503(3)
O45_2 O 0.3914(11) 0.8735(8) 0.9269(4)
O46_2 O 0.2402(10) 0.6634(7) 0.8379(4)
O47_2 O 0.1529(13) 0.6643(9) 0.9714(4)
C138_2 C 0.1987(14) 0.6586(10) 0.8644(7)
C139_2 C 0.1312(20) 0.6371(14) 0.8510(7)
C140_2 C 0.1791(20) 0.7777(14) 0.9789(7)
C142_2 C 0.3655(16) 0.8529(11) 0.8986(8)
C144_2 C 0.1057(21) 0.6132(16) 0.8178(9)
H130_2 H 0.137017 0.615985 0.800825
C145_2 C 0.1946(21) 0.7235(18) 0.9663(7)
C146_2 C 0.0865(18) 0.6352(11) 0.8760(10)
H131_2 H 0.100034 0.645611 0.899835
C147_2 C 0.3635(23) 0.8890(17) 0.8668(8)
C148_2 C 0.408(3) 0.960(2) 0.8681(7)
H132_2 H 0.433666 0.979471 0.888894
C149_2 C 0.2297(24) 0.844(2) 0.9742(9)
H133_2 H 0.271180 0.853706 0.964310
C153_2 C 0.0194(23) 0.6173(16) 0.8659(12)
C155_2 C 0.125(3) 0.763(2) 0.9995(11)
C156_2 C 0.036(3) 0.584(2) 0.8050(9)
H140_2 H 0.020266 0.566096 0.782083
C157_2 C 0.3355(19) 0.8653(15) 0.8347(8)
H141_2 H 0.310064 0.818704 0.831339
C159_2 C 0.218(3) 0.900(2) 0.9849(11)
H143_2 H 0.246520 0.944897 0.978156
C160_2 C 0.3425(27) 0.9055(18) 0.8074(8)
H144_2 H 0.322003 0.886694 0.785594
C164_2 C 0.377(3) 0.969(2) 0.8108(11)
H148_2 H 0.375176 0.995087 0.791988
Al8_2 Al 0.4156(2) 0.7082(4) 0.92229(14)
O48_2 O 0.3697(6) 0.7415(8) 0.9509(3)
O49_2 O 0.4591(7) 0.7903(10) 0.8946(3)
O51_2 O 0.4580(7) 0.6720(9) 0.8918(3)
O52_2 O 0.4963(5) 0.7464(9) 0.9503(3)
O54_2 O 0.4821(8) 0.6086(11) 0.9269(4)
O55_2 O 0.4232(7) 0.7598(10) 0.8379(4)
O56_2 O 0.5114(9) 0.8471(13) 0.9714(4)
C166_2 C 0.4599(10) 0.8013(14) 0.8644(7)
C167_2 C 0.5059(14) 0.8688(20) 0.8510(7)
C168_2 C 0.5986(14) 0.8209(20) 0.9789(7)
C170_2 C 0.4874(11) 0.6345(16) 0.8986(8)
C172_2 C 0.5075(13) 0.8943(21) 0.8178(9)
H150_2 H 0.478968 0.862983 0.800825
C173_2 C 0.5289(11) 0.8054(21) 0.9663(7)
C174_2 C 0.5487(14) 0.9135(18) 0.8760(10)
H151_2 H 0.545577 0.899966 0.899835
C175_2 C 0.5255(15) 0.6365(23) 0.8668(8)
C176_2 C 0.552(2) 0.592(3) 0.8681(7)
H152_2 H 0.545805 0.566334 0.888894
C177_2 C 0.6143(13) 0.7703(24) 0.9742(9)
H153_2 H 0.582526 0.728820 0.964310
C181_2 C 0.5979(16) 0.9806(23) 0.8659(12)
C183_2 C 0.638(2) 0.875(3) 0.9995(11)
C184_2 C 0.548(2) 0.964(3) 0.8050(9)
H160_2 H 0.545830 0.979734 0.782083
C185_2 C 0.5298(12) 0.6645(19) 0.8347(8)
H161_2 H 0.508640 0.689936 0.831339
C187_2 C 0.682(2) 0.782(3) 0.9849(11)
H163_2 H 0.698377 0.753480 0.978156
C188_2 C 0.563(2) 0.6575(27) 0.8074(8)
H164_2 H 0.564691 0.677997 0.785594
C189_2 C 0.5866(18) 0.5837(26) 0.8381(11)
H165_2 H 0.603819 0.554325 0.838043
C192_2 C 0.592(2) 0.623(3) 0.8108(11)
H168_2 H 0.619911 0.624824 0.791988
C29_2 C 0.9971(19) 0.4134(18) 0.6619(11)
H25_2 H 0.950506 0.396181 0.661957
C57_2 C 0.995(3) 0.586(2) 0.6678(13)
H56_2 H 0.948366 0.564685 0.671990
H59_2 H 0.992370 0.626258 0.618999
C133_2 C 0.9971(19) 0.4134(18) 0.8381(11)
H125_2 H 0.950506 0.396181 0.838043
C150_2 C 0.995(3) 0.586(2) 0.8322(13)
H134_2 H 0.948366 0.564685 0.828010
H137_2 H 0.992370 0.626258 0.881001
loop_
_geom_bond_atom_site_label_1
_geom_bond_atom_site_label_2
_geom_bond_site_symmetry_1
_geom_bond_site_symmetry_2
H67 C68 1_555 1_555
C91 H88 1_555 1_555
N8 C106 1_555 1_555
H103 C106 1_555 1_555
H104 C106 1_555 1_555
H105 C107 1_555 1_555
H106 C107 1_555 1_555
H107 C108 1_555 1_555
H108 C108 1_555 1_555
H145 C161 1_555 1_555
C178 H154 1_555 1_555
Fe10 N8 1_555 1_555
N8 C107 1_555 1_555
N8 C108 1_555 1_555
Fe1 O4 1_555 1_555
Fe2 O1 1_555 1_555
Al1 O1 1_555 1_555
Al2 O1 1_555 1_555
O1 Al4 1_555 1_555
O2 Al2 1_555 1_555
O3 Al1 1_555 1_555
O4 Al2 1_555 1_555
O5 Al2 1_555 1_555
O6 Al2 1_555 1_555
O7 C1 1_555 1_555
O8 C10 1_555 1_555
O9 Fe1 1_555 1_555
N1 Fe1 1_555 1_555
N2 Fe2 1_555 1_555
C1 O3 1_555 1_555
O10 Fe2 1_555 1_555
C2 O2 1_555 1_555
C3 N2 1_555 1_555
H1 C3 1_555 1_555
H2 C3 1_555 1_555
C4 N1 1_555 1_555
H3 C4 1_555 1_555
H4 C4 1_555 1_555
C5 C2 1_555 1_555
C6 C13 1_555 1_555
C7 N2 1_555 1_555
H5 C7 1_555 1_555
H6 C7 1_555 1_555
C8 C1 1_555 1_555
C9 N2 1_555 1_555
H7 C9 1_555 1_555
H8 C9 1_555 1_555
C10 O5 1_555 1_555
C11 H9 1_555 1_555
C12 C5 1_555 1_555
H10 C12 1_555 1_555
C13 O6 1_555 1_555
C14 C5 1_555 1_555
H11 C14 1_555 1_555
C15 C10 1_555 1_555
C16 C15 1_555 1_555
H12 C16 1_555 1_555
C17 C6 1_555 1_555
H13 C17 1_555 1_555
C18 H14 1_555 1_555
C19 C8 1_555 1_555
H15 C19 1_555 1_555
C20 C8 1_555 1_555
H16 C20 1_555 1_555
C21 C14 1_555 1_555
H17 C21 1_555 1_555
C22 C11 1_555 1_555
H18 C22 1_555 1_555
C23 C6 1_555 1_555
H19 C23 1_555 1_555
C24 C12 1_555 1_555
H20 C24 1_555 1_555
C25 C15 1_555 1_555
H21 C25 1_555 1_555
C26 C23 1_555 1_555
H22 C26 1_555 1_555
C27 C17 1_555 1_555
H23 C27 1_555 1_555
C28 C25 1_555 1_555
H24 C28 1_555 1_555
C30 C11 1_555 1_555
H26 C30 1_555 1_555
C31 C26 1_555 1_555
H27 C31 1_555 1_555
C32 C28 1_555 1_555
H28 C32 1_555 1_555
C33 N1 1_555 1_555
H29 C33 1_555 1_555
H30 C33 1_555 1_555
C34 N1 1_555 1_555
H31 C34 1_555 1_555
H32 C34 1_555 1_555
N3 C35 1_555 1_555
C35 C4 1_555 1_555
H33 C35 1_555 1_555
H34 C35 1_555 1_555
C36 C33 1_555 1_555
H35 C36 1_555 1_555
H36 C36 1_555 1_555
C37 C34 1_555 1_555
H37 C37 1_555 1_555
H38 C37 1_555 1_555
N4 C38 1_555 1_555
C38 C3 1_555 1_555
H39 C38 1_555 1_555
H40 C38 1_555 1_555
C39 C9 1_555 1_555
H41 C39 1_555 1_555
H42 C39 1_555 1_555
C40 C7 1_555 1_555
H43 C40 1_555 1_555
H44 C40 1_555 1_555
Fe3 O8 1_555 1_555
Al3 O4 1_555 1_555
O11 Al1 1_555 1_555
O12 Al3 1_555 1_555
O13 Al1 1_555 1_555
O14 Al3 1_555 1_555
O15 Al3 1_555 1_555
O16 Fe2 1_555 1_555
O17 C49 1_555 1_555
O18 Fe1 1_555 1_555
N5 Fe3 1_555 1_555
C41 O13 1_555 1_555
O19 Fe3 1_555 1_555
C42 O12 1_555 1_555
C43 N5 1_555 1_555
H45 C43 1_555 1_555
H46 C43 1_555 1_555
C44 C42 1_555 1_555
C45 C52 1_555 1_555
C46 N5 1_555 1_555
H47 C46 1_555 1_555
H48 C46 1_555 1_555
C47 C41 1_555 1_555
C48 N5 1_555 1_555
H49 C48 1_555 1_555
H50 C48 1_555 1_555
C49 O14 1_555 1_555
C50 H51 1_555 1_555
C51 C44 1_555 1_555
H52 C51 1_555 1_555
C52 O15 1_555 1_555
C53 C44 1_555 1_555
H53 C53 1_555 1_555
C54 C49 1_555 1_555
C55 C54 1_555 1_555
H54 C55 1_555 1_555
C56 C45 1_555 1_555
H55 C56 1_555 1_555
C58 C47 1_555 1_555
H57 C58 1_555 1_555
C59 C47 1_555 1_555
H58 C59 1_555 1_555
C60 C53 1_555 1_555
C61 C50 1_555 1_555
H60 C61 1_555 1_555
C62 C45 1_555 1_555
H61 C62 1_555 1_555
C63 C51 1_555 1_555
H62 C63 1_555 1_555
C64 C54 1_555 1_555
H63 C64 1_555 1_555
C65 C62 1_555 1_555
H64 C65 1_555 1_555
C66 C56 1_555 1_555
H65 C66 1_555 1_555
C67 C64 1_555 1_555
H66 C67 1_555 1_555
C69 C50 1_555 1_555
H68 C69 1_555 1_555
C70 C65 1_555 1_555
H69 C70 1_555 1_555
C71 C67 1_555 1_555
H70 C71 1_555 1_555
Fe4 O7 1_555 1_555
Al4 O4 1_555 1_555
O20 Al1 1_555 1_555
O21 Al4 1_555 1_555
O22 Al1 1_555 1_555
O23 Al4 1_555 1_555
O24 Al4 1_555 1_555
O25 Fe3 1_555 1_555
O26 Fe2 1_555 1_555
O27 Fe1 1_555 1_555
N7 Fe4 1_555 1_555
C75 O22 1_555 1_555
O28 Fe4 1_555 1_555
C76 O21 1_555 1_555
C77 N7 1_555 1_555
H77 C77 1_555 1_555
H78 C77 1_555 1_555
C78 C76 1_555 1_555
C79 C86 1_555 1_555
C80 N7 1_555 1_555
H79 C80 1_555 1_555
H80 C80 1_555 1_555
C81 C75 1_555 1_555
C82 N7 1_555 1_555
H81 C82 1_555 1_555
H82 C82 1_555 1_555
C83 O23 1_555 1_555
C84 H83 1_555 1_555
C85 C78 1_555 1_555
H84 C85 1_555 1_555
C86 O24 1_555 1_555
C87 C78 1_555 1_555
H85 C87 1_555 1_555
C88 C83 1_555 1_555
C89 C88 1_555 1_555
H86 C89 1_555 1_555
C90 C79 1_555 1_555
H87 C90 1_555 1_555
C92 C81 1_555 1_555
H89 C92 1_555 1_555
C93 C81 1_555 1_555
H90 C93 1_555 1_555
C94 C87 1_555 1_555
C95 C84 1_555 1_555
H92 C95 1_555 1_555
C96 C79 1_555 1_555
H93 C96 1_555 1_555
C97 C85 1_555 1_555
H94 C97 1_555 1_555
C98 C88 1_555 1_555
H95 C98 1_555 1_555
C99 C96 1_555 1_555
H96 C99 1_555 1_555
C100 C90 1_555 1_555
H97 C100 1_555 1_555
C101 C98 1_555 1_555
H98 C101 1_555 1_555
C102 C89 1_555 1_555
H99 C102 1_555 1_555
C103 C84 1_555 1_555
H100 C103 1_555 1_555
C104 C99 1_555 1_555
H101 C104 1_555 1_555
C105 C101 1_555 1_555
H102 C105 1_555 1_555
Fe5 N3 1_555 1_555
Fe6 O29 1_555 1_555
Al5 O29 1_555 1_555
Al6 O29 1_555 1_555
O29 Al8 1_555 1_555
O30 Al6 1_555 1_555
O32 Fe5 1_555 1_555
O33 Al6 1_555 1_555
O34 Al6 1_555 1_555
O36 C114 1_555 1_555
O37 Fe5 1_555 1_555
O38 Fe6 1_555 1_555
C110 O30 1_555 1_555
C111 C110 1_555 1_555
C112 C117 1_555 1_555
C114 O33 1_555 1_555
C116 C111 1_555 1_555
H110 C116 1_555 1_555
C117 O34 1_555 1_555
C118 C111 1_555 1_555
H111 C118 1_555 1_555
C119 C114 1_555 1_555
C120 C119 1_555 1_555
H112 C120 1_555 1_555
C121 C112 1_555 1_555
H113 C121 1_555 1_555
C122 H114 1_555 1_555
C125 C118 1_555 1_555
H117 C125 1_555 1_555
C127 C112 1_555 1_555
C128 C116 1_555 1_555
H120 C128 1_555 1_555
C129 C119 1_555 1_555
H121 C129 1_555 1_555
C131 C121 1_555 1_555
H123 C131 1_555 1_555
C132 C129 1_555 1_555
H124 C132 1_555 1_555
C136 C132 1_555 1_555
H128 C136 1_555 1_555
Fe7 O36 1_555 1_555
Al7 O32 1_555 1_555
O39 Al5 1_555 1_555
O40 Al7 1_555 1_555
O42 Al7 1_555 1_555
O43 Al7 1_555 1_555
O45 C142 1_555 1_555
O46 Fe5 1_555 1_555
O47 Fe7 1_555 1_555
C138 O40 1_555 1_555
C139 C138 1_555 1_555
C140 C145 1_555 1_555
C142 O42 1_555 1_555
C144 C139 1_555 1_555
H130 C144 1_555 1_555
C145 O43 1_555 1_555
C146 C139 1_555 1_555
H131 C146 1_555 1_555
C147 C142 1_555 1_555
C148 C147 1_555 1_555
H132 C148 1_555 1_555
C149 C140 1_555 1_555
H133 C149 1_555 1_555
C153 C146 1_555 1_555
C155 C140 1_555 1_555
C156 C144 1_555 1_555
H140 C156 1_555 1_555
C157 C147 1_555 1_555
H141 C157 1_555 1_555
C159 C149 1_555 1_555
H143 C159 1_555 1_555
C160 C157 1_555 1_555
H144 C160 1_555 1_555
C164 C160 1_555 1_555
H148 C164 1_555 1_555
Al8 O32 1_555 1_555
O48 Al5 1_555 1_555
O49 Al8 1_555 1_555
O51 Al8 1_555 1_555
O52 Al8 1_555 1_555
O54 Fe6 1_555 1_555
O55 Fe5 1_555 1_555
O56 Fe8 1_555 1_555
C166 O49 1_555 1_555
C167 C166 1_555 1_555
C168 C173 1_555 1_555
C170 O51 1_555 1_555
C172 C167 1_555 1_555
H150 C172 1_555 1_555
C173 O52 1_555 1_555
C174 C167 1_555 1_555
H151 C174 1_555 1_555
C175 C170 1_555 1_555
C176 C175 1_555 1_555
H152 C176 1_555 1_555
C177 C168 1_555 1_555
H153 C177 1_555 1_555
C181 C174 1_555 1_555
C183 C168 1_555 1_555
C184 C172 1_555 1_555
H160 C184 1_555 1_555
C185 C175 1_555 1_555
H161 C185 1_555 1_555
C187 C177 1_555 1_555
H163 C187 1_555 1_555
C188 C185 1_555 1_555
H164 C188 1_555 1_555
C189 C176 1_555 1_555
H165 C189 1_555 1_555
C192 C188 1_555 1_555
H168 C192 1_555 1_555
Fe9 N4 1_555 1_555
N9 Fe6 1_555 1_555
N10 Fe7 1_555 1_555
N11 Fe8 1_555 1_555
Al2 O11 1_555 1_555
O9 C2 1_555 1_555
O10 C13 1_555 1_555
C18 C21 1_555 1_555
C18 C24 1_555 1_555
C19 C22 1_555 1_555
C20 C30 1_555 1_555
C27 C31 1_555 1_555
N3 C36 1_555 1_555
N3 C37 1_555 1_555
N4 C39 1_555 1_555
N4 C40 1_555 1_555
Fe3 O11 1_555 1_555
Al3 O11 1_555 1_555
Al3 O20 1_555 1_555
O16 C41 1_555 1_555
O17 Fe4 1_555 1_555
O18 C42 1_555 1_555
O19 C52 1_555 1_555
C58 C61 1_555 1_555
C59 C69 1_555 1_555
C66 C70 1_555 1_555
Fe4 O20 1_555 1_555
Al4 O20 1_555 1_555
O25 C75 1_555 1_555
O26 C83 1_555 1_555
O27 C76 1_555 1_555
O28 C86 1_555 1_555
C92 C95 1_555 1_555
C93 C103 1_555 1_555
C100 C104 1_555 1_555
C102 C105 1_555 1_555
Al6 O32 1_555 1_555
Al6 O39 1_555 1_555
O37 C110 1_555 1_555
O38 C117 1_555 1_555
C122 C125 1_555 1_555
C122 C128 1_555 1_555
Fe7 O39 1_555 1_555
Al7 O39 1_555 1_555
Al7 O48 1_555 1_555
O45 Fe8 1_555 1_555
O46 C138 1_555 1_555
O47 C145 1_555 1_555
Fe8 O48 1_555 1_555
Al8 O48 1_555 1_555
O54 C170 1_555 1_555
O55 C166 1_555 1_555
O56 C173 1_555 1_555
C189 C192 1_555 1_555
O35 C109 1_555 1_555
C109 O31 1_555 1_555
C113 C109 1_555 1_555
C115 H109 1_555 1_555
C123 C113 1_555 1_555
H115 C123 1_555 1_555
C124 C113 1_555 1_555
H116 C124 1_555 1_555
C126 C115 1_555 1_555
H118 C126 1_555 1_555
H122 C130 1_555 1_555
C134 C115 1_555 1_555
H126 C134 1_555 1_555
C135 C130 1_555 1_555
H127 C135 1_555 1_555
C137 O41 1_555 1_555
C141 C137 1_555 1_555
C143 H129 1_555 1_555
C151 C141 1_555 1_555
H135 C151 1_555 1_555
C152 C141 1_555 1_555
H136 C152 1_555 1_555
C154 C143 1_555 1_555
H138 C154 1_555 1_555
H142 C158 1_555 1_555
C162 C143 1_555 1_555
H146 C162 1_555 1_555
C163 C158 1_555 1_555
H147 C163 1_555 1_555
C165 O50 1_555 1_555
C169 C165 1_555 1_555
C171 H149 1_555 1_555
C179 C169 1_555 1_555
H155 C179 1_555 1_555
C180 C169 1_555 1_555
H156 C180 1_555 1_555
C182 C171 1_555 1_555
H158 C182 1_555 1_555
H162 C186 1_555 1_555
C190 C171 1_555 1_555
H166 C190 1_555 1_555
C191 C186 1_555 1_555
H167 C191 1_555 1_555
C123 C126 1_555 1_555
C124 C134 1_555 1_555
O44 C137 1_555 1_555
C151 C154 1_555 1_555
C152 C162 1_555 1_555
O53 C165 1_555 1_555
C179 C182 1_555 1_555
C180 C190 1_555 1_555
H25 C29 1_555 1_555
C57 H56 1_555 1_555
N6 C72 1_555 1_555
H71 C72 1_555 1_555
H72 C72 1_555 1_555
H73 C73 1_555 1_555
H74 C73 1_555 1_555
H75 C74 1_555 1_555
H76 C74 1_555 1_555
H125 C133 1_555 1_555
C150 H134 1_555 1_555
Fe11 N6 1_555 1_555
N6 C73 1_555 1_555
N6 C74 1_555 1_555
H105_2 C107_2 1_555 1_555
H106_2 C107_2 1_555 1_555
N8_2 C106_2 1_555 1_555
H104_2 C106_2 1_555 1_555
H107_2 C108_2 1_555 1_555
H108_2 C108_2 1_555 1_555
Fe10_2 N8_2 1_555 1_555
N8_2 C108_2 1_555 1_555
C3_2 N9 1_555 1_555
H2_2 C3_2 1_555 1_555
C9_2 N9 1_555 1_555
H7_2 C9_2 1_555 1_555
H8_2 C9_2 1_555 1_555
C39_2 C9_2 1_555 1_555
H41_2 C39_2 1_555 1_555
H42_2 C39_2 1_555 1_555
C43_2 N10 1_555 1_555
H46_2 C43_2 1_555 1_555
C48_2 N10 1_555 1_555
H49_2 C48_2 1_555 1_555
H50_2 C48_2 1_555 1_555
C77_2 N11 1_555 1_555
H78_2 C77_2 1_555 1_555
C82_2 N11 1_555 1_555
H81_2 C82_2 1_555 1_555
H82_2 C82_2 1_555 1_555
H5_2 C7_2 1_555 1_555
H6_2 C7_2 1_555 1_555
N4_2 C38_2 1_555 1_555
H40_2 C38_2 1_555 1_555
C40_2 C7_2 1_555 1_555
H43_2 C40_2 1_555 1_555
H44_2 C40_2 1_555 1_555
H47_2 C46_2 1_555 1_555
H48_2 C46_2 1_555 1_555
H79_2 C80_2 1_555 1_555
H80_2 C80_2 1_555 1_555
Fe9_2 N4_2 1_555 1_555
N4_2 C40_2 1_555 1_555
H73_2 C73_2 1_555 1_555
H74_2 C73_2 1_555 1_555
N6_2 C72_2 1_555 1_555
H72_2 C72_2 1_555 1_555
H75_2 C74_2 1_555 1_555
H76_2 C74_2 1_555 1_555
Fe11_2 N6_2 1_555 1_555
N6_2 C74_2 1_555 1_555
H67_2 C68_2 1_555 1_555
C91_2 H88_2 1_555 1_555
H145_2 C161_2 1_555 1_555
C178_2 H154_2 1_555 1_555
O35_2 C109_2 1_555 1_555
C109_2 O31_2 1_555 1_555
C113_2 C109_2 1_555 1_555
C115_2 H109_2 1_555 1_555
C123_2 C113_2 1_555 1_555
H115_2 C123_2 1_555 1_555
C124_2 C113_2 1_555 1_555
H116_2 C124_2 1_555 1_555
C126_2 C115_2 1_555 1_555
H118_2 C126_2 1_555 1_555
H122_2 C130_2 1_555 1_555
C134_2 C115_2 1_555 1_555
H126_2 C134_2 1_555 1_555
C135_2 C130_2 1_555 1_555
H127_2 C135_2 1_555 1_555
C137_2 O41_2 1_555 1_555
C141_2 C137_2 1_555 1_555
C143_2 H129_2 1_555 1_555
C151_2 C141_2 1_555 1_555
H135_2 C151_2 1_555 1_555
C152_2 C141_2 1_555 1_555
H136_2 C152_2 1_555 1_555
C154_2 C143_2 1_555 1_555
H138_2 C154_2 1_555 1_555
H142_2 C158_2 1_555 1_555
C162_2 C143_2 1_555 1_555
H146_2 C162_2 1_555 1_555
C163_2 C158_2 1_555 1_555
H147_2 C163_2 1_555 1_555
C165_2 O50_2 1_555 1_555
C169_2 C165_2 1_555 1_555
C171_2 H149_2 1_555 1_555
C179_2 C169_2 1_555 1_555
H155_2 C179_2 1_555 1_555
C180_2 C169_2 1_555 1_555
H156_2 C180_2 1_555 1_555
C182_2 C171_2 1_555 1_555
H158_2 C182_2 1_555 1_555
H162_2 C186_2 1_555 1_555
C190_2 C171_2 1_555 1_555
H166_2 C190_2 1_555 1_555
C191_2 C186_2 1_555 1_555
H167_2 C191_2 1_555 1_555
C123_2 C126_2 1_555 1_555
C124_2 C134_2 1_555 1_555
O44_2 C137_2 1_555 1_555
C151_2 C154_2 1_555 1_555
C152_2 C162_2 1_555 1_555
O53_2 C165_2 1_555 1_555
C179_2 C182_2 1_555 1_555
C180_2 C190_2 1_555 1_555
Fe1_2 O4_2 1_555 1_555
Fe9 O1_2 1_555 1_555
Al1_2 O1_2 1_555 1_555
Al2_2 O1_2 1_555 1_555
O1_2 Al4_2 1_555 1_555
O2_2 Al2_2 1_555 1_555
O3_2 Al1_2 1_555 1_555
O4_2 Al2_2 1_555 1_555
O5_2 Al2_2 1_555 1_555
O6_2 Al2_2 1_555 1_555
O7_2 C1_2 1_555 1_555
O8_2 C10_2 1_555 1_555
O9_2 Fe1_2 1_555 1_555
N1_2 Fe1_2 1_555 1_555
C1_2 O3_2 1_555 1_555
O10_2 Fe9 1_555 1_555
C2_2 O2_2 1_555 1_555
C4_2 N1_2 1_555 1_555
H3_2 C4_2 1_555 1_555
H4_2 C4_2 1_555 1_555
C5_2 C2_2 1_555 1_555
C6_2 C13_2 1_555 1_555
C8_2 C1_2 1_555 1_555
C10_2 O5_2 1_555 1_555
C11_2 H9_2 1_555 1_555
C12_2 C5_2 1_555 1_555
H10_2 C12_2 1_555 1_555
C13_2 O6_2 1_555 1_555
C14_2 C5_2 1_555 1_555
H11_2 C14_2 1_555 1_555
C15_2 C10_2 1_555 1_555
C16_2 C15_2 1_555 1_555
H12_2 C16_2 1_555 1_555
C17_2 C6_2 1_555 1_555
H13_2 C17_2 1_555 1_555
C18_2 H14_2 1_555 1_555
C19_2 C8_2 1_555 1_555
H15_2 C19_2 1_555 1_555
C20_2 C8_2 1_555 1_555
H16_2 C20_2 1_555 1_555
C21_2 C14_2 1_555 1_555
H17_2 C21_2 1_555 1_555
C22_2 C11_2 1_555 1_555
H18_2 C22_2 1_555 1_555
C23_2 C6_2 1_555 1_555
H19_2 C23_2 1_555 1_555
C24_2 C12_2 1_555 1_555
H20_2 C24_2 1_555 1_555
C25_2 C15_2 1_555 1_555
H21_2 C25_2 1_555 1_555
C26_2 C23_2 1_555 1_555
H22_2 C26_2 1_555 1_555
C27_2 C17_2 1_555 1_555
H23_2 C27_2 1_555 1_555
C28_2 C25_2 1_555 1_555
H24_2 C28_2 1_555 1_555
C30_2 C11_2 1_555 1_555
H26_2 C30_2 1_555 1_555
C31_2 C26_2 1_555 1_555
H27_2 C31_2 1_555 1_555
C32_2 C28_2 1_555 1_555
H28_2 C32_2 1_555 1_555
C33_2 N1_2 1_555 1_555
H29_2 C33_2 1_555 1_555
H30_2 C33_2 1_555 1_555
C34_2 N1_2 1_555 1_555
H31_2 C34_2 1_555 1_555
H32_2 C34_2 1_555 1_555
N3_2 C35_2 1_555 1_555
C35_2 C4_2 1_555 1_555
H33_2 C35_2 1_555 1_555
H34_2 C35_2 1_555 1_555
C36_2 C33_2 1_555 1_555
H35_2 C36_2 1_555 1_555
H36_2 C36_2 1_555 1_555
C37_2 C34_2 1_555 1_555
H37_2 C37_2 1_555 1_555
H38_2 C37_2 1_555 1_555
Fe10 O8_2 1_555 1_555
Al3_2 O4_2 1_555 1_555
O11_2 Al1_2 1_555 1_555
O12_2 Al3_2 1_555 1_555
O13_2 Al1_2 1_555 1_555
O14_2 Al3_2 1_555 1_555
O15_2 Al3_2 1_555 1_555
O16_2 Fe9 1_555 1_555
O17_2 C49_2 1_555 1_555
O18_2 Fe1_2 1_555 1_555
C41_2 O13_2 1_555 1_555
O19_2 Fe10 1_555 1_555
C42_2 O12_2 1_555 1_555
C44_2 C42_2 1_555 1_555
C45_2 C52_2 1_555 1_555
C47_2 C41_2 1_555 1_555
C49_2 O14_2 1_555 1_555
C50_2 H51_2 1_555 1_555
C51_2 C44_2 1_555 1_555
H52_2 C51_2 1_555 1_555
C52_2 O15_2 1_555 1_555
C53_2 C44_2 1_555 1_555
H53_2 C53_2 1_555 1_555
C54_2 C49_2 1_555 1_555
C55_2 C54_2 1_555 1_555
H54_2 C55_2 1_555 1_555
C56_2 C45_2 1_555 1_555
H55_2 C56_2 1_555 1_555
C58_2 C47_2 1_555 1_555
H57_2 C58_2 1_555 1_555
C59_2 C47_2 1_555 1_555
H58_2 C59_2 1_555 1_555
C60_2 C53_2 1_555 1_555
C61_2 C50_2 1_555 1_555
H60_2 C61_2 1_555 1_555
C62_2 C45_2 1_555 1_555
H61_2 C62_2 1_555 1_555
C63_2 C51_2 1_555 1_555
H62_2 C63_2 1_555 1_555
C64_2 C54_2 1_555 1_555
H63_2 C64_2 1_555 1_555
C65_2 C62_2 1_555 1_555
H64_2 C65_2 1_555 1_555
C66_2 C56_2 1_555 1_555
H65_2 C66_2 1_555 1_555
C67_2 C64_2 1_555 1_555
H66_2 C67_2 1_555 1_555
C69_2 C50_2 1_555 1_555
H68_2 C69_2 1_555 1_555
C70_2 C65_2 1_555 1_555
H69_2 C70_2 1_555 1_555
C71_2 C67_2 1_555 1_555
H70_2 C71_2 1_555 1_555
Fe11 O7_2 1_555 1_555
Al4_2 O4_2 1_555 1_555
O20_2 Al1_2 1_555 1_555
O21_2 Al4_2 1_555 1_555
O22_2 Al1_2 1_555 1_555
O23_2 Al4_2 1_555 1_555
O24_2 Al4_2 1_555 1_555
O25_2 Fe10 1_555 1_555
O26_2 Fe9 1_555 1_555
O27_2 Fe1_2 1_555 1_555
C75_2 O22_2 1_555 1_555
O28_2 Fe11 1_555 1_555
C76_2 O21_2 1_555 1_555
C78_2 C76_2 1_555 1_555
C79_2 C86_2 1_555 1_555
C81_2 C75_2 1_555 1_555
C83_2 O23_2 1_555 1_555
C84_2 H83_2 1_555 1_555
C85_2 C78_2 1_555 1_555
H84_2 C85_2 1_555 1_555
C86_2 O24_2 1_555 1_555
C87_2 C78_2 1_555 1_555
H85_2 C87_2 1_555 1_555
C88_2 C83_2 1_555 1_555
C89_2 C88_2 1_555 1_555
H86_2 C89_2 1_555 1_555
C90_2 C79_2 1_555 1_555
H87_2 C90_2 1_555 1_555
C92_2 C81_2 1_555 1_555
H89_2 C92_2 1_555 1_555
C93_2 C81_2 1_555 1_555
H90_2 C93_2 1_555 1_555
C94_2 C87_2 1_555 1_555
C95_2 C84_2 1_555 1_555
H92_2 C95_2 1_555 1_555
C96_2 C79_2 1_555 1_555
H93_2 C96_2 1_555 1_555
C97_2 C85_2 1_555 1_555
H94_2 C97_2 1_555 1_555
C98_2 C88_2 1_555 1_555
H95_2 C98_2 1_555 1_555
C99_2 C96_2 1_555 1_555
H96_2 C99_2 1_555 1_555
C100_2 C90_2 1_555 1_555
H97_2 C100_2 1_555 1_555
C101_2 C98_2 1_555 1_555
H98_2 C101_2 1_555 1_555
C102_2 C89_2 1_555 1_555
H99_2 C102_2 1_555 1_555
C103_2 C84_2 1_555 1_555
H100_2 C103_2 1_555 1_555
C104_2 C99_2 1_555 1_555
H101_2 C104_2 1_555 1_555
C105_2 C101_2 1_555 1_555
H102_2 C105_2 1_555 1_555
Fe5_2 N3_2 1_555 1_555
Fe9_2 O29_2 1_555 1_555
Al5_2 O29_2 1_555 1_555
Al6_2 O29_2 1_555 1_555
O29_2 Al8_2 1_555 1_555
O30_2 Al6_2 1_555 1_555
O32_2 Fe5_2 1_555 1_555
O33_2 Al6_2 1_555 1_555
O34_2 Al6_2 1_555 1_555
O36_2 C114_2 1_555 1_555
O37_2 Fe5_2 1_555 1_555
O38_2 Fe9_2 1_555 1_555
C110_2 O30_2 1_555 1_555
C111_2 C110_2 1_555 1_555
C112_2 C117_2 1_555 1_555
C114_2 O33_2 1_555 1_555
C116_2 C111_2 1_555 1_555
H110_2 C116_2 1_555 1_555
C117_2 O34_2 1_555 1_555
C118_2 C111_2 1_555 1_555
H111_2 C118_2 1_555 1_555
C119_2 C114_2 1_555 1_555
C120_2 C119_2 1_555 1_555
H112_2 C120_2 1_555 1_555
C121_2 C112_2 1_555 1_555
H113_2 C121_2 1_555 1_555
C122_2 H114_2 1_555 1_555
C125_2 C118_2 1_555 1_555
H117_2 C125_2 1_555 1_555
C127_2 C112_2 1_555 1_555
C128_2 C116_2 1_555 1_555
H120_2 C128_2 1_555 1_555
C129_2 C119_2 1_555 1_555
H121_2 C129_2 1_555 1_555
C131_2 C121_2 1_555 1_555
H123_2 C131_2 1_555 1_555
C132_2 C129_2 1_555 1_555
H124_2 C132_2 1_555 1_555
C136_2 C132_2 1_555 1_555
H128_2 C136_2 1_555 1_555
Fe10_2 O36_2 1_555 1_555
Al7_2 O32_2 1_555 1_555
O39_2 Al5_2 1_555 1_555
O40_2 Al7_2 1_555 1_555
O42_2 Al7_2 1_555 1_555
O43_2 Al7_2 1_555 1_555
O45_2 C142_2 1_555 1_555
O46_2 Fe5_2 1_555 1_555
O47_2 Fe10_2 1_555 1_555
C138_2 O40_2 1_555 1_555
C139_2 C138_2 1_555 1_555
C140_2 C145_2 1_555 1_555
C142_2 O42_2 1_555 1_555
C144_2 C139_2 1_555 1_555
H130_2 C144_2 1_555 1_555
C145_2 O43_2 1_555 1_555
C146_2 C139_2 1_555 1_555
H131_2 C146_2 1_555 1_555
C147_2 C142_2 1_555 1_555
C148_2 C147_2 1_555 1_555
H132_2 C148_2 1_555 1_555
C149_2 C140_2 1_555 1_555
H133_2 C149_2 1_555 1_555
C153_2 C146_2 1_555 1_555
C155_2 C140_2 1_555 1_555
C156_2 C144_2 1_555 1_555
H140_2 C156_2 1_555 1_555
C157_2 C147_2 1_555 1_555
H141_2 C157_2 1_555 1_555
C159_2 C149_2 1_555 1_555
H143_2 C159_2 1_555 1_555
C160_2 C157_2 1_555 1_555
H144_2 C160_2 1_555 1_555
C164_2 C160_2 1_555 1_555
H148_2 C164_2 1_555 1_555
Al8_2 O32_2 1_555 1_555
O48_2 Al5_2 1_555 1_555
O49_2 Al8_2 1_555 1_555
O51_2 Al8_2 1_555 1_555
O52_2 Al8_2 1_555 1_555
O54_2 Fe9_2 1_555 1_555
O55_2 Fe5_2 1_555 1_555
O56_2 Fe11_2 1_555 1_555
C166_2 O49_2 1_555 1_555
C167_2 C166_2 1_555 1_555
C168_2 C173_2 1_555 1_555
C170_2 O51_2 1_555 1_555
C172_2 C167_2 1_555 1_555
H150_2 C172_2 1_555 1_555
C173_2 O52_2 1_555 1_555
C174_2 C167_2 1_555 1_555
H151_2 C174_2 1_555 1_555
C175_2 C170_2 1_555 1_555
C176_2 C175_2 1_555 1_555
H152_2 C176_2 1_555 1_555
C177_2 C168_2 1_555 1_555
H153_2 C177_2 1_555 1_555
C181_2 C174_2 1_555 1_555
C183_2 C168_2 1_555 1_555
C184_2 C172_2 1_555 1_555
H160_2 C184_2 1_555 1_555
C185_2 C175_2 1_555 1_555
H161_2 C185_2 1_555 1_555
C187_2 C177_2 1_555 1_555
H163_2 C187_2 1_555 1_555
C188_2 C185_2 1_555 1_555
H164_2 C188_2 1_555 1_555
C189_2 C176_2 1_555 1_555
H165_2 C189_2 1_555 1_555
C192_2 C188_2 1_555 1_555
H168_2 C192_2 1_555 1_555
Al2_2 O11_2 1_555 1_555
O9_2 C2_2 1_555 1_555
O10_2 C13_2 1_555 1_555
C18_2 C21_2 1_555 1_555
C18_2 C24_2 1_555 1_555
C19_2 C22_2 1_555 1_555
C20_2 C30_2 1_555 1_555
C27_2 C31_2 1_555 1_555
N3_2 C36_2 1_555 1_555
N3_2 C37_2 1_555 1_555
Fe10 O11_2 1_555 1_555
Al3_2 O11_2 1_555 1_555
Al3_2 O20_2 1_555 1_555
O16_2 C41_2 1_555 1_555
O17_2 Fe11 1_555 1_555
O18_2 C42_2 1_555 1_555
O19_2 C52_2 1_555 1_555
C58_2 C61_2 1_555 1_555
C59_2 C69_2 1_555 1_555
C66_2 C70_2 1_555 1_555
Fe11 O20_2 1_555 1_555
Al4_2 O20_2 1_555 1_555
O25_2 C75_2 1_555 1_555
O26_2 C83_2 1_555 1_555
O27_2 C76_2 1_555 1_555
O28_2 C86_2 1_555 1_555
C92_2 C95_2 1_555 1_555
C93_2 C103_2 1_555 1_555
C100_2 C104_2 1_555 1_555
C102_2 C105_2 1_555 1_555
Al6_2 O32_2 1_555 1_555
Al6_2 O39_2 1_555 1_555
O37_2 C110_2 1_555 1_555
O38_2 C117_2 1_555 1_555
C122_2 C125_2 1_555 1_555
C122_2 C128_2 1_555 1_555
Fe10_2 O39_2 1_555 1_555
Al7_2 O39_2 1_555 1_555
Al7_2 O48_2 1_555 1_555
O45_2 Fe11_2 1_555 1_555
O46_2 C138_2 1_555 1_555
O47_2 C145_2 1_555 1_555
Fe11_2 O48_2 1_555 1_555
Al8_2 O48_2 1_555 1_555
O54_2 C170_2 1_555 1_555
O55_2 C166_2 1_555 1_555
O56_2 C173_2 1_555 1_555
C189_2 C192_2 1_555 1_555
H25_2 C29_2 1_555 1_555
C57_2 H56_2 1_555 1_555
H125_2 C133_2 1_555 1_555
C150_2 H134_2 1_555 1_555

#END
