
###############################################################################
#
# This file contains modified crystal structure data generated from the
# MOF subset of the Cambridge Structural Database (CSD) v543 
# hosted by the Cambridge Crystallographic Data Centre (CCDC).
#
# This work is licensed under the Creative Commons
# Attribution-NonCommercial-ShareAlike 4.0 International License.
# To view a copy of this license, visit
# http://creativecommons.org/licenses/by-nc-sa/4.0/
# or send a letter to
# Creative Commons, PO Box 1866, Mountain View, CA 94042, USA.
#
# CIF created using the CSD Python API on 29 September 2022
# The structure has been converted into the P1 space group
# The structure has a 3D framework
# The original CSD entry NEDJAJ is in the orthorhombic crystal system
# The framework has been calculated to contain at least 10.0% void space
# The void calculation uses a probe of radius 1.32A, grid spacing 0.4
# H atom positions have been added when not included in the experimental data
#
###############################################################################

data_NEDJAJ
_chemical_formula_moiety         '(C80 H224 Cs8 K8 Mo48 N16 O248 P32)n'
_symmetry_cell_setting           triclinic
_symmetry_space_group_name_H-M   'P 1'
_symmetry_Int_Tables_number      1
_space_group_name_Hall           'P 1'
loop_
_symmetry_equiv_pos_site_id
_symmetry_equiv_pos_as_xyz
1 x,y,z
_cell_length_a                   18.8861(4)
_cell_length_b                   17.0627(4)
_cell_length_c                   31.6438(7)
_cell_angle_alpha                90
_cell_angle_beta                 90
_cell_angle_gamma                90
_cell_volume                     10197.1
loop_
_atom_site_label
_atom_site_type_symbol
_atom_site_fract_x
_atom_site_fract_y
_atom_site_fract_z
Mo1 Mo 0.55153(2) 0.26286(2) 0.200262(11)
Mo2 Mo 0.523732(19) 0.081888(19) 0.219992(10)
Mo3 Mo 0.415063(18) 0.074555(19) 0.320222(10)
Mo4 Mo 0.278019(17) 0.130209(18) 0.393457(9)
Mo5 Mo 0.183458(17) 0.12282(2) 0.498672(10)
Mo6 Mo 0.301680(19) 0.38921(2) 0.070490(10)
P1 P 0.40105(5) 0.22941(5) 0.24975(3)
P2 P 0.53525(5) 0.22084(6) 0.30068(3)
P3 P 0.35058(5) 0.20706(5) 0.48559(3)
P4 P 0.34466(5) 0.03185(5) 0.47854(3)
O1 O 0.5147(2) 0.3089(2) 0.15791(10)
O2 O 0.63610(18) 0.2995(2) 0.20365(11)
O3 O 0.56772(16) 0.16137(17) 0.18074(9)
O4 O 0.50655(16) 0.32624(16) 0.24416(9)
O5 O 0.56589(14) 0.18347(16) 0.25948(8)
O6 O 0.44783(14) 0.19128(16) 0.21462(8)
O7 O 0.4790(2) 0.0346(2) 0.18056(10)
O8 O 0.59975(18) 0.02892(19) 0.22707(10)
O9 O 0.47183(16) 0.05479(16) 0.26641(9)
O10 O 0.46387(18) 0.01065(18) 0.35016(10)
O11 O 0.34651(17) 0.01810(18) 0.30260(10)
O12 O 0.36555(15) 0.12798(16) 0.36296(8)
O13 O 0.49790(14) 0.16086(16) 0.32824(8)
O14 O 0.37041(14) 0.16829(15) 0.27941(8)
O15 O 0.73581(15) 0.05869(17) 0.13462(8)
O16 O 0.74297(16) 0.21407(18) 0.12801(9)
O17 O 0.20998(14) 0.12752(16) 0.44255(8)
O18 O 0.32896(14) 0.04368(15) 0.43208(8)
O19 O 0.33402(14) 0.21084(15) 0.43885(8)
O20 O 0.12904(17) 0.2033(2) 0.50232(10)
O21 O 0.12554(17) 0.0458(2) 0.49802(10)
O22 O 0.20412(16) 0.38545(18) 0.06081(9)
O23 O 0.27813(14) 0.04059(16) 0.50711(8)
O24 O 0.28260(14) 0.19512(16) 0.51274(8)
O25 O 0.3153(2) 0.3159(2) 0.10552(10)
O26 O 0.3109(2) 0.4713(2) 0.10107(10)
O27 O 0.39397(15) 0.10927(17) 0.54268(8)
O28 O 0.34604(17) 0.28217(19) 0.23044(10)
O29 O 0.59132(17) 0.2678(2) 0.32255(10)
O30 O 0.39306(16) 0.27579(17) 0.50085(9)
C1 C 0.4690(2) 0.2871(2) 0.27773(11)
C2 C 0.4409(2) 0.3497(2) 0.30801(12)
H1 H 0.4809 0.3749 0.3216
H2 H 0.4163 0.3893 0.2916
C3 C 0.3908(2) 0.3194(2) 0.34215(12)
H3 H 0.3473 0.3009 0.3292
H4 H 0.4126 0.2757 0.3568
C4 C 0.3743(2) 0.3836(2) 0.37312(14)
H5 H 0.4167 0.3967 0.3889
H6 H 0.3594 0.4301 0.3579
N1 N 0.31794(18) 0.35981(19) 0.40280(10)
H7 H 0.3289 0.3124 0.4134
H8 H 0.2772 0.3549 0.3883
C5 C 0.3064(3) 0.4148(3) 0.43838(14)
H9 H 0.3485 0.4176 0.4553
H10 H 0.2677 0.3965 0.4554
H11 H 0.2954 0.4659 0.4275
C6 C 0.39756(19) 0.1163(2) 0.49722(11)
C7 C 0.47521(19) 0.1144(2) 0.48358(12)
H12 H 0.5014 0.1513 0.5009
H13 H 0.4940 0.0626 0.4893
C8 C 0.4888(2) 0.1337(3) 0.43725(13)
H14 H 0.4555 0.1046 0.4200
H15 H 0.4799 0.1891 0.4328
C9 C 0.5630(2) 0.1149(3) 0.42271(13)
H16 H 0.5698 0.0586 0.4233
H17 H 0.5688 0.1324 0.3938
N2 N 0.61746(19) 0.1528(2) 0.44956(12)
H18 H 0.6199 0.1267 0.4742
H19 H 0.6032 0.2020 0.4554
C10 C 0.6897(2) 0.1564(4) 0.43097(19)
H20 H 0.7055 0.1043 0.4243
H21 H 0.7217 0.1797 0.4509
H22 H 0.6887 0.1874 0.4057
Cs1 Cs 0.39951(2) 0.43869(2) 0.186200(12)
K1 K 0.71933(7) 0.13910(11) 0.22106(4)
O32 O 0.7297(2) 0.2068(3) 0.30933(17)
O33 O 0.2669(2) 0.4081(3) 0.25462(17)
O34 O 0.2503(11) 0.5484(12) 0.1809(8)
Mo7 Mo 0.778019(17) 0.130209(18) 0.106543(9)
Mo9 Mo 0.301680(19) 0.11079(2) 0.570490(10)
O35 O 0.40025(18) 0.52892(19) 0.27293(10)
O36 O 0.52817(16) 0.55479(16) 0.23359(9)
O37 O 0.53613(18) 0.51065(18) 0.14984(10)
O38 O 0.84651(17) 0.01810(18) 0.19740(10)
O39 O 0.87041(14) 0.16829(15) 0.22059(8)
O40 O 0.23581(15) 0.05869(17) 0.36538(8)
O41 O 0.24297(16) 0.21407(18) 0.37199(9)
O42 O 0.20412(16) 0.11455(18) 0.56081(9)
O43 O 0.27813(14) 0.45941(16) 0.00711(8)
O44 O 0.28260(14) 0.30488(16) 0.01274(8)
O45 O 0.39397(15) 0.39073(17) 0.04268(8)
K2 K 0.21933(7) 0.13910(11) 0.27894(4)
H23 H 0.286686 0.392323 0.282421
H24 H 0.239054 0.457076 0.257953
H25 H 0.208245 0.513474 0.181173
H26 H 0.248322 0.584305 0.205568
H27 H 0.681366 0.215256 0.32081
H28 H 0.755819 0.169752 0.327842
Mo8 Mo 0.183458(17) 0.37718(2) 0.998672(10)
O31 O 0.38215(15) 0.95570(16) 0.48694(9)
Cs2 Cs 0.60049(2) 0.93869(2) 0.313800(12)
O20_2 O 0.37096(17) 0.7967(2) 0.00232(10)
O23_2 O 0.22187(14) 0.95941(16) 0.00711(8)
O24_2 O 0.21740(14) 0.80488(16) 0.01274(8)
O27_2 O 0.10603(15) 0.89073(17) 0.04268(8)
O30_2 O 0.10694(16) 0.72421(17) 0.00085(9)
Mo9_2 Mo 0.198320(19) 0.88921(2) 0.070490(10)
O42_2 O 0.29588(16) 0.88545(18) 0.06081(9)
Mo3_2 Mo 0.084937(18) 0.925445(19) 0.820222(10)
Mo4_2 Mo 0.221981(17) 0.869791(18) 0.893457(9)
Mo5_2 Mo 0.316542(17) 0.87718(2) 0.998672(10)
Mo6_2 Mo 0.198320(19) 0.61079(2) 0.570490(10)
P1_2 P 0.09895(5) 0.77059(5) 0.74975(3)
P3_2 P 0.14942(5) 0.79294(5) 0.98559(3)
P4_2 P 0.15534(5) 0.96815(5) 0.97854(3)
O6_2 O 0.05217(14) 0.80872(16) 0.71462(8)
O7_2 O 0.0210(2) 0.9654(2) 0.68056(10)
O9_2 O 0.02817(16) 0.94521(16) 0.76641(9)
O10_2 O 0.03613(18) 0.98935(18) 0.85016(10)
O11_2 O 0.15349(17) 0.98190(18) 0.80260(10)
O12_2 O 0.13445(15) 0.87202(16) 0.86296(8)
O13_2 O 0.00210(14) 0.83914(16) 0.82824(8)
O14_2 O 0.12959(14) 0.83171(15) 0.77941(8)
O17_2 O 0.29002(14) 0.87248(16) 0.94255(8)
O18_2 O 0.17104(14) 0.95632(15) 0.93208(8)
O19_2 O 0.16598(14) 0.78916(15) 0.93885(8)
O21_2 O 0.37446(17) 0.9542(2) 0.99802(10)
O22_2 O 0.29588(16) 0.61455(18) 0.56081(9)
O25_2 O 0.1847(2) 0.6841(2) 0.60552(10)
O26_2 O 0.1891(2) 0.5287(2) 0.60107(10)
O28_2 O 0.15396(17) 0.71783(19) 0.73044(10)
C1_2 C 0.0310(2) 0.7129(2) 0.77773(11)
C2_2 C 0.0591(2) 0.6503(2) 0.80801(12)
H1_2 H 0.0191 0.6251 0.8216
H2_2 H 0.0837 0.6107 0.7916
C3_2 C 0.1092(2) 0.6806(2) 0.84215(12)
H3_2 H 0.1527 0.6991 0.8292
H4_2 H 0.0874 0.7243 0.8568
C4_2 C 0.1257(2) 0.6164(2) 0.87312(14)
H5_2 H 0.0833 0.6033 0.8889
H6_2 H 0.1406 0.5699 0.8579
N1_2 N 0.18206(18) 0.64019(19) 0.90280(10)
H7_2 H 0.1711 0.6876 0.9134
H8_2 H 0.2228 0.6451 0.8883
C5_2 C 0.1936(3) 0.5852(3) 0.93838(14)
H9_2 H 0.1515 0.5824 0.9553
H10_2 H 0.2323 0.6035 0.9554
H11_2 H 0.2046 0.5341 0.9275
C6_2 C 0.10244(19) 0.8837(2) 0.99722(11)
C7_2 C 0.02479(19) 0.8856(2) 0.98358(12)
H13_2 H 0.0060 0.9374 0.9893
C8_2 C 0.0112(2) 0.8663(3) 0.93725(13)
H14_2 H 0.0445 0.8954 0.9200
H15_2 H 0.0201 0.8109 0.9328
Cs1_2 Cs 0.10049(2) 0.56131(2) 0.686200(12)
O33_2 O 0.2331(2) 0.5919(3) 0.75462(17)
O34_2 O 0.2497(11) 0.4516(12) 0.6809(8)
Mo8_2 Mo 0.316542(17) 0.62282(2) 0.498672(10)
O35_2 O 0.09975(18) 0.47108(19) 0.77293(10)
O40_2 O 0.26419(15) 0.94131(17) 0.86538(8)
O41_2 O 0.25703(16) 0.78593(18) 0.87199(9)
O43_2 O 0.22187(14) 0.54059(16) 0.50711(8)
O44_2 O 0.21740(14) 0.69512(16) 0.51274(8)
O45_2 O 0.10603(15) 0.60927(17) 0.54268(8)
K2_2 K 0.28067(7) 0.86090(11) 0.77894(4)
H23_2 H 0.213314 0.607677 0.782421
H24_2 H 0.260946 0.542924 0.757953
H25_2 H 0.291755 0.486526 0.681173
H26_2 H 0.251678 0.415695 0.705568
Cs2_2 Cs 0.89951(2) 0.06131(2) 0.813800(12)
Mo1_2 Mo 0.94847(2) 0.73714(2) 0.700262(11)
Mo2_2 Mo 0.976268(19) 0.918112(19) 0.719992(10)
P2_2 P 0.96475(5) 0.77916(6) 0.80068(3)
O1_2 O 0.9853(2) 0.6911(2) 0.65791(10)
O2_2 O 0.86390(18) 0.7005(2) 0.70365(11)
O3_2 O 0.93228(16) 0.83863(17) 0.68074(9)
O4_2 O 0.99345(16) 0.67376(16) 0.74416(9)
O5_2 O 0.93411(14) 0.81653(16) 0.75948(8)
O8_2 O 0.90025(18) 0.97108(19) 0.72707(10)
O15_2 O 0.76419(15) 0.94131(17) 0.63462(8)
O16_2 O 0.75703(16) 0.78593(18) 0.62801(9)
O29_2 O 0.90868(17) 0.7322(2) 0.82255(10)
C9_2 C 0.9370(2) 0.8851(3) 0.92271(13)
H16_2 H 0.9302 0.9414 0.9233
H17_2 H 0.9312 0.8676 0.8938
N2_2 N 0.88254(19) 0.8472(2) 0.94956(12)
H18_2 H 0.8801 0.8733 0.9742
H19_2 H 0.8968 0.7980 0.9554
C10_2 C 0.8103(2) 0.8436(4) 0.93097(19)
H20_2 H 0.7945 0.8957 0.9243
H21_2 H 0.7783 0.8203 0.9509
H22_2 H 0.8113 0.8126 0.9057
K1_2 K 0.78067(7) 0.86090(11) 0.72106(4)
O32_2 O 0.7703(2) 0.7932(3) 0.80933(17)
Mo7_2 Mo 0.721981(17) 0.869791(18) 0.606543(9)
O36_2 O 0.97183(16) 0.44521(16) 0.73359(9)
O37_2 O 0.96387(18) 0.48935(18) 0.64984(10)
O38_2 O 0.65349(17) 0.98190(18) 0.69740(10)
O39_2 O 0.62959(14) 0.83171(15) 0.72059(8)
H27_2 H 0.818634 0.784744 0.82081
H28_2 H 0.744181 0.830248 0.827842
O34_3 O 0.7497(11) 0.0484(12) 0.3191(8)
H25_3 H 0.791755 0.0134736 0.318827
H26_3 H 0.751678 0.0843048 0.294432
Mo1_3 Mo 0.44847(2) 0.76286(2) 0.299738(11)
Mo2_3 Mo 0.476268(19) 0.581888(19) 0.280008(10)
Mo3_3 Mo 0.584937(18) 0.574555(19) 0.179778(10)
Mo4_3 Mo 0.721981(17) 0.630209(18) 0.106543(9)
Mo5_3 Mo 0.816542(17) 0.62282(2) 0.001328(10)
Mo6_3 Mo 0.698320(19) 0.88921(2) 0.429510(10)
P1_3 P 0.59895(5) 0.72941(5) 0.25025(3)
P2_3 P 0.46475(5) 0.72084(6) 0.19932(3)
P3_3 P 0.64942(5) 0.70706(5) 0.01441(3)
P4_3 P 0.65534(5) 0.53185(5) 0.02146(3)
O1_3 O 0.4853(2) 0.8089(2) 0.34209(10)
O2_3 O 0.36390(18) 0.7995(2) 0.29635(11)
O3_3 O 0.43228(16) 0.66137(17) 0.31926(9)
O4_3 O 0.49345(16) 0.82624(16) 0.25584(9)
O5_3 O 0.43411(14) 0.68347(16) 0.24052(8)
O6_3 O 0.55217(14) 0.69128(16) 0.28538(8)
O7_3 O 0.5210(2) 0.5346(2) 0.31944(10)
O11_3 O 0.65349(17) 0.51810(18) 0.19740(10)
O12_3 O 0.63445(15) 0.62798(16) 0.13704(8)
O13_3 O 0.50210(14) 0.66086(16) 0.17176(8)
O14_3 O 0.62959(14) 0.66829(15) 0.22059(8)
O15_3 O 0.26419(15) 0.55869(17) 0.36538(8)
O16_3 O 0.25703(16) 0.71407(18) 0.37199(9)
O17_3 O 0.79002(14) 0.62752(16) 0.05745(8)
O18_3 O 0.67104(14) 0.54368(15) 0.06792(8)
O19_3 O 0.66598(14) 0.71084(15) 0.06115(8)
O21_3 O 0.87446(17) 0.5458(2) 0.00198(10)
O22_3 O 0.79588(16) 0.88545(18) 0.43919(9)
O25_3 O 0.6847(2) 0.8159(2) 0.39448(10)
O26_3 O 0.6891(2) 0.9713(2) 0.39893(10)
O28_3 O 0.65396(17) 0.78217(19) 0.26956(10)
O29_3 O 0.40868(17) 0.7678(2) 0.17745(10)
O31_2 O 0.61785(15) 0.45570(16) 0.01306(9)
C1_3 C 0.5310(2) 0.7871(2) 0.22227(11)
C2_3 C 0.5591(2) 0.8497(2) 0.19199(12)
H1_3 H 0.5191 0.8749 0.1784
H2_3 H 0.5837 0.8893 0.2084
C3_3 C 0.6092(2) 0.8194(2) 0.15785(12)
H3_3 H 0.6527 0.8009 0.1708
H4_3 H 0.5874 0.7757 0.1432
C4_3 C 0.6257(2) 0.8836(2) 0.12688(14)
H5_3 H 0.5833 0.8967 0.1111
H6_3 H 0.6406 0.9301 0.1421
N1_3 N 0.68206(18) 0.85981(19) 0.09720(10)
H7_3 H 0.6711 0.8124 0.0866
H8_3 H 0.7228 0.8549 0.1117
C5_3 C 0.6936(3) 0.9148(3) 0.06162(14)
H9_3 H 0.6515 0.9176 0.0447
H10_3 H 0.7323 0.8965 0.0446
H11_3 H 0.7046 0.9659 0.0725
C6_3 C 0.60244(19) 0.6163(2) 0.00278(11)
C7_3 C 0.52479(19) 0.6144(2) 0.01642(12)
H13_3 H 0.5060 0.5626 0.0107
C8_3 C 0.5112(2) 0.6337(3) 0.06275(13)
H14_3 H 0.5445 0.6046 0.0800
H15_3 H 0.5201 0.6891 0.0672
C9_3 C 0.4370(2) 0.6149(3) 0.07729(13)
H16_3 H 0.4302 0.5586 0.0767
H17_3 H 0.4312 0.6324 0.1062
N2_3 N 0.38254(19) 0.6528(2) 0.05044(12)
H18_3 H 0.3801 0.6267 0.0258
H19_3 H 0.3968 0.7020 0.0446
C10_3 C 0.3103(2) 0.6564(4) 0.06903(19)
H20_3 H 0.2945 0.6043 0.0757
H21_3 H 0.2783 0.6797 0.0491
H22_3 H 0.3113 0.6874 0.0943
K1_3 K 0.28067(7) 0.63910(11) 0.27894(4)
O32_3 O 0.2703(2) 0.7068(3) 0.19067(17)
O33_3 O 0.7331(2) 0.9081(3) 0.24538(17)
Mo7_3 Mo 0.221981(17) 0.630209(18) 0.393457(9)
Mo8_3 Mo 0.816542(17) 0.87718(2) 0.501328(10)
O38_3 O 0.15349(17) 0.51810(18) 0.30260(10)
O39_3 O 0.12959(14) 0.66829(15) 0.27941(8)
O40_3 O 0.76419(15) 0.55869(17) 0.13462(8)
O41_3 O 0.75703(16) 0.71407(18) 0.12801(9)
O43_3 O 0.72187(14) 0.95941(16) 0.49289(8)
O44_3 O 0.71740(14) 0.80488(16) 0.48726(8)
O45_3 O 0.60603(15) 0.89073(17) 0.45732(8)
K2_3 K 0.78067(7) 0.63910(11) 0.22106(4)
H23_3 H 0.713314 0.892323 0.217579
H24_3 H 0.760946 0.957076 0.242047
H27_3 H 0.318634 0.715256 0.17919
H28_3 H 0.244181 0.669752 0.172158
O20_3 O 0.87096(17) 0.7033(2) 0.99768(10)
O23_3 O 0.72187(14) 0.54059(16) 0.99289(8)
O24_3 O 0.71740(14) 0.69512(16) 0.98726(8)
O27_3 O 0.60603(15) 0.60927(17) 0.95732(8)
O30_3 O 0.60694(16) 0.77579(17) 0.99915(9)
H12_2 H 0.4986 0.6513 0.9991
Mo9_3 Mo 0.698320(19) 0.61079(2) 0.929510(10)
O42_3 O 0.79588(16) 0.61455(18) 0.93919(9)
Mo1_4 Mo 0.05153(2) 0.23714(2) 0.799738(11)
Mo2_4 Mo 0.023732(19) 0.418112(19) 0.780008(10)
P2_4 P 0.03525(5) 0.27916(6) 0.69932(3)
O1_4 O 0.0147(2) 0.1911(2) 0.84209(10)
O2_4 O 0.13610(18) 0.2005(2) 0.79635(11)
O3_4 O 0.06772(16) 0.33863(17) 0.81926(9)
O4_4 O 0.00655(16) 0.17376(16) 0.75584(9)
O5_4 O 0.06589(14) 0.31653(16) 0.74052(8)
O15_4 O 0.23581(15) 0.44131(17) 0.86538(8)
O16_4 O 0.24297(16) 0.28593(18) 0.87199(9)
O29_4 O 0.09132(17) 0.2322(2) 0.67745(10)
H12_3 H 0.0014 0.3487 0.4991
C9_4 C 0.0630(2) 0.3851(3) 0.57729(13)
H16_4 H 0.0698 0.4414 0.5767
H17_4 H 0.0688 0.3676 0.6062
N2_4 N 0.11746(19) 0.3472(2) 0.55044(12)
H18_4 H 0.1199 0.3733 0.5258
H19_4 H 0.1032 0.2980 0.5446
C10_4 C 0.1897(2) 0.3436(4) 0.56903(19)
H20_4 H 0.2055 0.3957 0.5757
H21_4 H 0.2217 0.3203 0.5491
H22_4 H 0.1887 0.3126 0.5943
K1_4 K 0.21933(7) 0.36090(11) 0.77894(4)
O32_4 O 0.2297(2) 0.2932(3) 0.69067(17)
Mo7_4 Mo 0.278019(17) 0.369791(18) 0.893457(9)
O38_4 O 0.34651(17) 0.48190(18) 0.80260(10)
O39_4 O 0.37041(14) 0.33171(15) 0.77941(8)
H27_4 H 0.181366 0.284744 0.67919
H28_4 H 0.255819 0.330248 0.672158
Mo8_4 Mo 0.683458(17) 0.12282(2) 0.001328(10)
Mo3_4 Mo 0.915063(18) 0.425445(19) 0.679778(10)
Mo4_4 Mo 0.778019(17) 0.369791(18) 0.606543(9)
Mo5_4 Mo 0.683458(17) 0.37718(2) 0.501328(10)
Mo6_4 Mo 0.801680(19) 0.11079(2) 0.929510(10)
P1_4 P 0.90105(5) 0.27059(5) 0.75025(3)
P3_4 P 0.85058(5) 0.29294(5) 0.51441(3)
P4_4 P 0.84466(5) 0.46815(5) 0.52146(3)
O6_4 O 0.94783(14) 0.30872(16) 0.78538(8)
O7_4 O 0.9790(2) 0.4654(2) 0.81944(10)
O11_4 O 0.84651(17) 0.48190(18) 0.69740(10)
O12_4 O 0.86555(15) 0.37202(16) 0.63704(8)
O13_4 O 0.99790(14) 0.33914(16) 0.67176(8)
O14_4 O 0.87041(14) 0.33171(15) 0.72059(8)
O17_4 O 0.70998(14) 0.37248(16) 0.55745(8)
O18_4 O 0.82896(14) 0.45632(15) 0.56792(8)
O19_4 O 0.83402(14) 0.28916(15) 0.56115(8)
O20_4 O 0.62904(17) 0.2967(2) 0.49768(10)
O21_4 O 0.62554(17) 0.4542(2) 0.50198(10)
O22_4 O 0.70412(16) 0.11455(18) 0.93919(9)
O23_4 O 0.77813(14) 0.45941(16) 0.49289(8)
O24_4 O 0.78260(14) 0.30488(16) 0.48726(8)
O25_4 O 0.8153(2) 0.1841(2) 0.89448(10)
O26_4 O 0.8109(2) 0.0287(2) 0.89893(10)
O27_4 O 0.89397(15) 0.39073(17) 0.45732(8)
O28_4 O 0.84604(17) 0.21783(19) 0.76956(10)
O30_4 O 0.89306(16) 0.22421(17) 0.49915(9)
O31_3 O 0.88215(15) 0.54430(16) 0.51306(9)
C1_4 C 0.9690(2) 0.2129(2) 0.72227(11)
C2_4 C 0.9409(2) 0.1503(2) 0.69199(12)
H1_4 H 0.9809 0.1251 0.6784
H2_4 H 0.9163 0.1107 0.7084
C3_4 C 0.8908(2) 0.1806(2) 0.65785(12)
H3_4 H 0.8473 0.1991 0.6708
H4_4 H 0.9126 0.2243 0.6432
C4_4 C 0.8743(2) 0.1164(2) 0.62688(14)
H5_4 H 0.9167 0.1033 0.6111
H6_4 H 0.8594 0.0699 0.6421
N1_4 N 0.81794(18) 0.14019(19) 0.59720(10)
H7_4 H 0.8289 0.1876 0.5866
H8_4 H 0.7772 0.1451 0.6117
C5_4 C 0.8064(3) 0.0852(3) 0.56162(14)
H9_4 H 0.8485 0.0824 0.5447
H10_4 H 0.7677 0.1035 0.5446
H11_4 H 0.7954 0.0341 0.5725
C6_4 C 0.89756(19) 0.3837(2) 0.50278(11)
C7_4 C 0.97521(19) 0.3856(2) 0.51642(12)
H13_4 H 0.9940 0.4374 0.5107
C8_4 C 0.9888(2) 0.3663(3) 0.56275(13)
H14_4 H 0.9555 0.3954 0.5800
H15_4 H 0.9799 0.3109 0.5672
O33_4 O 0.7669(2) 0.0919(3) 0.74538(17)
Mo9_4 Mo 0.801680(19) 0.38921(2) 0.429510(10)
O40_4 O 0.73581(15) 0.44131(17) 0.63462(8)
O41_4 O 0.74297(16) 0.28593(18) 0.62801(9)
O42_4 O 0.70412(16) 0.38545(18) 0.43919(9)
O43_4 O 0.77813(14) 0.04059(16) 0.99289(8)
O44_4 O 0.78260(14) 0.19512(16) 0.98726(8)
O45_4 O 0.89397(15) 0.10927(17) 0.95732(8)
K2_4 K 0.71933(7) 0.36090(11) 0.72106(4)
H23_4 H 0.786686 0.107677 0.717579
H24_4 H 0.739054 0.0429237 0.742047
O34_4 O 0.7503(11) 0.9516(12) 0.8191(8)
H25_4 H 0.708245 0.986526 0.818827
H26_4 H 0.748322 0.915695 0.794432
O31_4 O 0.61785(15) 0.04430(16) 0.51306(9)
Cs2_3 Cs 0.39951(2) 0.06131(2) 0.686200(12)
Mo1_5 Mo 0.44847(2) 0.73714(2) 0.799738(11)
Mo2_5 Mo 0.476268(19) 0.918112(19) 0.780008(10)
Mo3_5 Mo 0.584937(18) 0.925445(19) 0.679778(10)
P1_5 P 0.59895(5) 0.77059(5) 0.75025(3)
P2_5 P 0.46475(5) 0.77916(6) 0.69932(3)
P3_5 P 0.64942(5) 0.79294(5) 0.51441(3)
P4_5 P 0.65534(5) 0.96815(5) 0.52146(3)
O1_5 O 0.4853(2) 0.6911(2) 0.84209(10)
O2_5 O 0.36390(18) 0.7005(2) 0.79635(11)
O3_5 O 0.43228(16) 0.83863(17) 0.81926(9)
O4_5 O 0.49345(16) 0.67376(16) 0.75584(9)
O5_5 O 0.43411(14) 0.81653(16) 0.74052(8)
O6_5 O 0.55217(14) 0.80872(16) 0.78538(8)
O7_5 O 0.5210(2) 0.9654(2) 0.81944(10)
O8_3 O 0.40025(18) 0.97108(19) 0.77293(10)
O9_3 O 0.52817(16) 0.94521(16) 0.73359(9)
O10_3 O 0.53613(18) 0.98935(18) 0.64984(10)
O12_5 O 0.63445(15) 0.87202(16) 0.63704(8)
O13_5 O 0.50210(14) 0.83914(16) 0.67176(8)
O17_5 O 0.79002(14) 0.87248(16) 0.55745(8)
O18_5 O 0.67104(14) 0.95632(15) 0.56792(8)
O19_5 O 0.66598(14) 0.78916(15) 0.56115(8)
O20_5 O 0.87096(17) 0.7967(2) 0.49768(10)
O21_5 O 0.87446(17) 0.9542(2) 0.50198(10)
O25_5 O 0.6847(2) 0.6841(2) 0.89448(10)
O26_5 O 0.6891(2) 0.5287(2) 0.89893(10)
O28_5 O 0.65396(17) 0.71783(19) 0.76956(10)
O29_5 O 0.40868(17) 0.7322(2) 0.67745(10)
O30_5 O 0.60694(16) 0.72421(17) 0.49915(9)
C1_5 C 0.5310(2) 0.7129(2) 0.72227(11)
C2_5 C 0.5591(2) 0.6503(2) 0.69199(12)
H1_5 H 0.5191 0.6251 0.6784
H2_5 H 0.5837 0.6107 0.7084
C3_5 C 0.6092(2) 0.6806(2) 0.65785(12)
H3_5 H 0.6527 0.6991 0.6708
H4_5 H 0.5874 0.7243 0.6432
C4_5 C 0.6257(2) 0.6164(2) 0.62688(14)
H5_5 H 0.5833 0.6033 0.6111
H6_5 H 0.6406 0.5699 0.6421
N1_5 N 0.68206(18) 0.64019(19) 0.59720(10)
H7_5 H 0.6711 0.6876 0.5866
H8_5 H 0.7228 0.6451 0.6117
C5_5 C 0.6936(3) 0.5852(3) 0.56162(14)
H9_5 H 0.6515 0.5824 0.5447
H10_5 H 0.7323 0.6035 0.5446
H11_5 H 0.7046 0.5341 0.5725
C6_5 C 0.60244(19) 0.8837(2) 0.50278(11)
C7_5 C 0.52479(19) 0.8856(2) 0.51642(12)
H12_4 H 0.4986 0.8487 0.4991
H13_5 H 0.5060 0.9374 0.5107
C8_5 C 0.5112(2) 0.8663(3) 0.56275(13)
H14_5 H 0.5445 0.8954 0.5800
H15_5 H 0.5201 0.8109 0.5672
C9_5 C 0.4370(2) 0.8851(3) 0.57729(13)
H16_5 H 0.4302 0.9414 0.5767
H17_5 H 0.4312 0.8676 0.6062
N2_5 N 0.38254(19) 0.8472(2) 0.55044(12)
H18_5 H 0.3801 0.8733 0.5258
H19_5 H 0.3968 0.7980 0.5446
C10_5 C 0.3103(2) 0.8436(4) 0.56903(19)
H20_5 H 0.2945 0.8957 0.5757
H21_5 H 0.2783 0.8203 0.5491
H22_5 H 0.3113 0.8126 0.5943
Cs1_3 Cs 0.60049(2) 0.56131(2) 0.813800(12)
O32_5 O 0.2703(2) 0.7932(3) 0.69067(17)
O33_5 O 0.7331(2) 0.5919(3) 0.74538(17)
O34_5 O 0.7497(11) 0.4516(12) 0.8191(8)
O35_3 O 0.59975(18) 0.47108(19) 0.72707(10)
O36_3 O 0.47183(16) 0.44521(16) 0.76641(9)
O37_3 O 0.46387(18) 0.48935(18) 0.85016(10)
H23_5 H 0.713314 0.607677 0.717579
H24_5 H 0.760946 0.542924 0.742047
H25_5 H 0.791755 0.486526 0.818827
H26_5 H 0.751678 0.415695 0.794432
H27_5 H 0.318634 0.784744 0.67919
H28_5 H 0.244181 0.830248 0.672158
Mo1_6 Mo 0.05153(2) 0.26286(2) 0.299738(11)
Mo2_6 Mo 0.023732(19) 0.081888(19) 0.280008(10)
P2_6 P 0.03525(5) 0.22084(6) 0.19932(3)
O1_6 O 0.0147(2) 0.3089(2) 0.34209(10)
O2_6 O 0.13610(18) 0.2995(2) 0.29635(11)
O3_6 O 0.06772(16) 0.16137(17) 0.31926(9)
O4_6 O 0.00655(16) 0.32624(16) 0.25584(9)
O5_6 O 0.06589(14) 0.18347(16) 0.24052(8)
O8_4 O 0.09975(18) 0.02892(19) 0.27293(10)
O29_6 O 0.09132(17) 0.2678(2) 0.17745(10)
C9_6 C 0.0630(2) 0.1149(3) 0.07729(13)
H16_6 H 0.0698 0.0586 0.0767
H17_6 H 0.0688 0.1324 0.1062
N2_6 N 0.11746(19) 0.1528(2) 0.05044(12)
H18_6 H 0.1199 0.1267 0.0258
H19_6 H 0.1032 0.2020 0.0446
C10_6 C 0.1897(2) 0.1564(4) 0.06903(19)
H20_6 H 0.2055 0.1043 0.0757
H21_6 H 0.2217 0.1797 0.0491
H22_6 H 0.1887 0.1874 0.0943
O32_6 O 0.2297(2) 0.2068(3) 0.19067(17)
O36_4 O 0.02817(16) 0.55479(16) 0.26641(9)
O37_4 O 0.03613(18) 0.51065(18) 0.35016(10)
H27_6 H 0.181366 0.215256 0.17919
H28_6 H 0.255819 0.169752 0.172158
Cs2_4 Cs 0.10049(2) 0.93869(2) 0.186200(12)
Mo3_6 Mo 0.915063(18) 0.074555(19) 0.179778(10)
P1_6 P 0.90105(5) 0.22941(5) 0.25025(3)
P3_6 P 0.85058(5) 0.20706(5) 0.01441(3)
P4_6 P 0.84466(5) 0.03185(5) 0.02146(3)
O6_6 O 0.94783(14) 0.19128(16) 0.28538(8)
O7_6 O 0.9790(2) 0.0346(2) 0.31944(10)
O9_4 O 0.97183(16) 0.05479(16) 0.23359(9)
O10_4 O 0.96387(18) 0.01065(18) 0.14984(10)
O12_6 O 0.86555(15) 0.12798(16) 0.13704(8)
O13_6 O 0.99790(14) 0.16086(16) 0.17176(8)
O17_6 O 0.70998(14) 0.12752(16) 0.05745(8)
O18_6 O 0.82896(14) 0.04368(15) 0.06792(8)
O19_6 O 0.83402(14) 0.21084(15) 0.06115(8)
O21_6 O 0.62554(17) 0.0458(2) 0.00198(10)
O25_6 O 0.8153(2) 0.3159(2) 0.39448(10)
O26_6 O 0.8109(2) 0.4713(2) 0.39893(10)
O28_6 O 0.84604(17) 0.28217(19) 0.26956(10)
C1_6 C 0.9690(2) 0.2871(2) 0.22227(11)
C2_6 C 0.9409(2) 0.3497(2) 0.19199(12)
H1_6 H 0.9809 0.3749 0.1784
H2_6 H 0.9163 0.3893 0.2084
C3_6 C 0.8908(2) 0.3194(2) 0.15785(12)
H3_6 H 0.8473 0.3009 0.1708
H4_6 H 0.9126 0.2757 0.1432
C4_6 C 0.8743(2) 0.3836(2) 0.12688(14)
H5_6 H 0.9167 0.3967 0.1111
H6_6 H 0.8594 0.4301 0.1421
N1_6 N 0.81794(18) 0.35981(19) 0.09720(10)
H7_6 H 0.8289 0.3124 0.0866
H8_6 H 0.7772 0.3549 0.1117
C5_6 C 0.8064(3) 0.4148(3) 0.06162(14)
H9_6 H 0.8485 0.4176 0.0447
H10_6 H 0.7677 0.3965 0.0446
H11_6 H 0.7954 0.4659 0.0725
C6_6 C 0.89756(19) 0.1163(2) 0.00278(11)
C7_6 C 0.97521(19) 0.1144(2) 0.01642(12)
H13_6 H 0.9940 0.0626 0.0107
C8_6 C 0.9888(2) 0.1337(3) 0.06275(13)
H14_6 H 0.9555 0.1046 0.0800
H15_6 H 0.9799 0.1891 0.0672
Cs1_4 Cs 0.89951(2) 0.43869(2) 0.313800(12)
O33_6 O 0.7669(2) 0.4081(3) 0.24538(17)
O34_6 O 0.7503(11) 0.5484(12) 0.3191(8)
O35_4 O 0.90025(18) 0.52892(19) 0.22707(10)
H23_6 H 0.786686 0.392323 0.217579
H24_6 H 0.739054 0.457076 0.242047
H25_6 H 0.708245 0.513474 0.318827
H26_6 H 0.748322 0.584305 0.294432
O20_6 O 0.62904(17) 0.2033(2) 0.99768(10)
O30_6 O 0.89306(16) 0.27579(17) 0.99915(9)
O20_7 O 0.12904(17) 0.2967(2) 0.00232(10)
O30_7 O 0.39306(16) 0.22421(17) 0.00085(9)
H12_5 H 0.5014 0.3487 0.0009
Mo1_7 Mo 0.55153(2) 0.23714(2) 0.700262(11)
Mo2_7 Mo 0.523732(19) 0.418112(19) 0.719992(10)
Mo3_7 Mo 0.415063(18) 0.425445(19) 0.820222(10)
P1_7 P 0.40105(5) 0.27059(5) 0.74975(3)
P2_7 P 0.53525(5) 0.27916(6) 0.80068(3)
P3_7 P 0.35058(5) 0.29294(5) 0.98559(3)
P4_7 P 0.34466(5) 0.46815(5) 0.97854(3)
O1_7 O 0.5147(2) 0.1911(2) 0.65791(10)
O2_7 O 0.63610(18) 0.2005(2) 0.70365(11)
O3_7 O 0.56772(16) 0.33863(17) 0.68074(9)
O4_7 O 0.50655(16) 0.17376(16) 0.74416(9)
O5_7 O 0.56589(14) 0.31653(16) 0.75948(8)
O6_7 O 0.44783(14) 0.30872(16) 0.71462(8)
O7_7 O 0.4790(2) 0.4654(2) 0.68056(10)
O12_7 O 0.36555(15) 0.37202(16) 0.86296(8)
O13_7 O 0.49790(14) 0.33914(16) 0.82824(8)
O17_7 O 0.20998(14) 0.37248(16) 0.94255(8)
O18_7 O 0.32896(14) 0.45632(15) 0.93208(8)
O19_7 O 0.33402(14) 0.28916(15) 0.93885(8)
O21_7 O 0.12554(17) 0.4542(2) 0.99802(10)
O25_7 O 0.3153(2) 0.1841(2) 0.60552(10)
O26_7 O 0.3109(2) 0.0287(2) 0.60107(10)
O28_7 O 0.34604(17) 0.21783(19) 0.73044(10)
O29_7 O 0.59132(17) 0.2322(2) 0.82255(10)
O31_5 O 0.38215(15) 0.54430(16) 0.98694(9)
C1_7 C 0.4690(2) 0.2129(2) 0.77773(11)
C2_7 C 0.4409(2) 0.1503(2) 0.80801(12)
H1_7 H 0.4809 0.1251 0.8216
H2_7 H 0.4163 0.1107 0.7916
C3_7 C 0.3908(2) 0.1806(2) 0.84215(12)
H3_7 H 0.3473 0.1991 0.8292
H4_7 H 0.4126 0.2243 0.8568
C4_7 C 0.3743(2) 0.1164(2) 0.87312(14)
H5_7 H 0.4167 0.1033 0.8889
H6_7 H 0.3594 0.0699 0.8579
N1_7 N 0.31794(18) 0.14019(19) 0.90280(10)
H7_7 H 0.3289 0.1876 0.9134
H8_7 H 0.2772 0.1451 0.8883
C5_7 C 0.3064(3) 0.0852(3) 0.93838(14)
H9_7 H 0.3485 0.0824 0.9553
H10_7 H 0.2677 0.1035 0.9554
H11_7 H 0.2954 0.0341 0.9275
C6_7 C 0.39756(19) 0.3837(2) 0.99722(11)
C7_7 C 0.47521(19) 0.3856(2) 0.98358(12)
H13_7 H 0.4940 0.4374 0.9893
C8_7 C 0.4888(2) 0.3663(3) 0.93725(13)
H14_7 H 0.4555 0.3954 0.9200
H15_7 H 0.4799 0.3109 0.9328
C9_7 C 0.5630(2) 0.3851(3) 0.92271(13)
H16_7 H 0.5698 0.4414 0.9233
H17_7 H 0.5688 0.3676 0.8938
N2_7 N 0.61746(19) 0.3472(2) 0.94956(12)
H18_7 H 0.6199 0.3733 0.9742
H19_7 H 0.6032 0.2980 0.9554
C10_7 C 0.6897(2) 0.3436(4) 0.93097(19)
H20_7 H 0.7055 0.3957 0.9243
H21_7 H 0.7217 0.3203 0.9509
H22_7 H 0.6887 0.3126 0.9057
O32_7 O 0.7297(2) 0.2932(3) 0.80933(17)
O33_7 O 0.2669(2) 0.0919(3) 0.75462(17)
H23_7 H 0.286686 0.107677 0.782421
H24_7 H 0.239054 0.0429237 0.757953
H27_7 H 0.681366 0.284744 0.82081
H28_7 H 0.755819 0.330248 0.827842
O34_7 O 0.2503(11) 0.9516(12) 0.6809(8)
H25_7 H 0.208245 0.986526 0.681173
H26_7 H 0.248322 0.915695 0.705568
O34_8 O 0.2497(11) 0.0484(12) 0.1809(8)
H25_8 H 0.291755 0.0134736 0.181173
H26_8 H 0.251678 0.0843048 0.205568
Mo3_8 Mo 0.084937(18) 0.574555(19) 0.320222(10)
P1_8 P 0.09895(5) 0.72941(5) 0.24975(3)
P3_8 P 0.14942(5) 0.70706(5) 0.48559(3)
P4_8 P 0.15534(5) 0.53185(5) 0.47854(3)
O6_8 O 0.05217(14) 0.69128(16) 0.21462(8)
O7_8 O 0.0210(2) 0.5346(2) 0.18056(10)
O12_8 O 0.13445(15) 0.62798(16) 0.36296(8)
O13_8 O 0.00210(14) 0.66086(16) 0.32824(8)
O17_8 O 0.29002(14) 0.62752(16) 0.44255(8)
O18_8 O 0.17104(14) 0.54368(15) 0.43208(8)
O19_8 O 0.16598(14) 0.71084(15) 0.43885(8)
O20_8 O 0.37096(17) 0.7033(2) 0.50232(10)
O21_8 O 0.37446(17) 0.5458(2) 0.49802(10)
O25_8 O 0.1847(2) 0.8159(2) 0.10552(10)
O26_8 O 0.1891(2) 0.9713(2) 0.10107(10)
O28_8 O 0.15396(17) 0.78217(19) 0.23044(10)
O30_8 O 0.10694(16) 0.77579(17) 0.50085(9)
O31_6 O 0.11785(15) 0.45570(16) 0.48694(9)
C1_8 C 0.0310(2) 0.7871(2) 0.27773(11)
C2_8 C 0.0591(2) 0.8497(2) 0.30801(12)
H1_8 H 0.0191 0.8749 0.3216
H2_8 H 0.0837 0.8893 0.2916
C3_8 C 0.1092(2) 0.8194(2) 0.34215(12)
H3_8 H 0.1527 0.8009 0.3292
H4_8 H 0.0874 0.7757 0.3568
C4_8 C 0.1257(2) 0.8836(2) 0.37312(14)
H5_8 H 0.0833 0.8967 0.3889
H6_8 H 0.1406 0.9301 0.3579
N1_8 N 0.18206(18) 0.85981(19) 0.40280(10)
H7_8 H 0.1711 0.8124 0.4134
H8_8 H 0.2228 0.8549 0.3883
C5_8 C 0.1936(3) 0.9148(3) 0.43838(14)
H9_8 H 0.1515 0.9176 0.4553
H10_8 H 0.2323 0.8965 0.4554
H11_8 H 0.2046 0.9659 0.4275
C6_8 C 0.10244(19) 0.6163(2) 0.49722(11)
C7_8 C 0.02479(19) 0.6144(2) 0.48358(12)
H13_8 H 0.0060 0.5626 0.4893
C8_8 C 0.0112(2) 0.6337(3) 0.43725(13)
H14_8 H 0.0445 0.6046 0.4200
H15_8 H 0.0201 0.6891 0.4328
O33_8 O 0.2331(2) 0.9081(3) 0.25462(17)
H23_8 H 0.213314 0.892323 0.282421
H24_8 H 0.260946 0.957076 0.257953
Mo1_8 Mo 0.94847(2) 0.76286(2) 0.200262(11)
Mo2_8 Mo 0.976268(19) 0.581888(19) 0.219992(10)
P2_8 P 0.96475(5) 0.72084(6) 0.30068(3)
O1_8 O 0.9853(2) 0.8089(2) 0.15791(10)
O2_8 O 0.86390(18) 0.7995(2) 0.20365(11)
O3_8 O 0.93228(16) 0.66137(17) 0.18074(9)
O4_8 O 0.99345(16) 0.82624(16) 0.24416(9)
O5_8 O 0.93411(14) 0.68347(16) 0.25948(8)
O29_8 O 0.90868(17) 0.7678(2) 0.32255(10)
H12_6 H 0.9986 0.6513 0.5009
C9_8 C 0.9370(2) 0.6149(3) 0.42271(13)
H16_8 H 0.9302 0.5586 0.4233
H17_8 H 0.9312 0.6324 0.3938
N2_8 N 0.88254(19) 0.6528(2) 0.44956(12)
H18_8 H 0.8801 0.6267 0.4742
H19_8 H 0.8968 0.7020 0.4554
C10_8 C 0.8103(2) 0.6564(4) 0.43097(19)
H20_8 H 0.7945 0.6043 0.4243
H21_8 H 0.7783 0.6797 0.4509
H22_8 H 0.8113 0.6874 0.4057
O32_8 O 0.7703(2) 0.7068(3) 0.30933(17)
H27_8 H 0.818634 0.715256 0.32081
H28_8 H 0.744181 0.669752 0.327842
O31_7 O 0.11785(15) 0.04430(16) 0.98694(9)
H12_7 H 0.9986 0.8487 0.0009
H12_8 H 0.0014 0.1513 0.9991
O31_8 O 0.88215(15) 0.95570(16) 0.01306(9)
loop_
_geom_bond_atom_site_label_1
_geom_bond_atom_site_label_2
_geom_bond_site_symmetry_1
_geom_bond_site_symmetry_2
Mo1 O1 1_555 1_555
Mo2 O3 1_555 1_555
Mo3 O9 1_555 1_555
Mo4 O12 1_555 1_555
Mo5 O17 1_555 1_555
Mo6 O22 1_555 1_555
P1 O6 1_555 1_555
P2 O5 1_555 1_555
P3 O19 1_555 1_555
P4 O18 1_555 1_555
O1 Cs1 1_555 1_555
O2 Mo1 1_555 1_555
O3 Mo1 1_555 1_555
O4 Mo1 1_555 1_555
O5 Mo1 1_555 1_555
O6 Mo1 1_555 1_555
O7 Mo2 1_555 1_555
O8 Mo2 1_555 1_555
O9 Mo2 1_555 1_555
O10 Mo3 1_555 1_555
O11 Mo3 1_555 1_555
O12 Mo3 1_555 1_555
O13 Mo3 1_555 1_555
O14 Mo3 1_555 1_555
O15 K1 1_555 1_555
O16 K1 1_555 1_555
O17 Mo4 1_555 1_555
O18 Mo4 1_555 1_555
O19 Mo4 1_555 1_555
O20 Mo5 1_555 1_555
O21 Mo5 1_555 1_555
O23 Mo5 1_555 1_555
O24 Mo5 1_555 1_555
O25 Mo6 1_555 1_555
O26 Mo6 1_555 1_555
O27 C6 1_555 1_555
O28 P1 1_555 1_555
O29 P2 1_555 1_555
O30 P3 1_555 1_555
C1 P1 1_555 1_555
C2 C1 1_555 1_555
H1 C2 1_555 1_555
H2 C2 1_555 1_555
C3 C2 1_555 1_555
H3 C3 1_555 1_555
H4 C3 1_555 1_555
C4 C3 1_555 1_555
H5 C4 1_555 1_555
H6 C4 1_555 1_555
N1 C4 1_555 1_555
H7 N1 1_555 1_555
H8 N1 1_555 1_555
C5 N1 1_555 1_555
H9 C5 1_555 1_555
H10 C5 1_555 1_555
H11 C5 1_555 1_555
C6 P3 1_555 1_555
C7 C6 1_555 1_555
H12 C7 1_555 1_555
H13 C7 1_555 1_555
C8 C7 1_555 1_555
H14 C8 1_555 1_555
H15 C8 1_555 1_555
C9 C8 1_555 1_555
H16 C9 1_555 1_555
H17 C9 1_555 1_555
N2 C9 1_555 1_555
H18 N2 1_555 1_555
H19 N2 1_555 1_555
C10 N2 1_555 1_555
H20 C10 1_555 1_555
H21 C10 1_555 1_555
H22 C10 1_555 1_555
Cs1 O4 1_555 1_555
K1 O2 1_555 1_555
O32 K1 1_555 1_555
O33 Cs1 1_555 1_555
O34 Cs1 1_555 1_555
Mo7 O15 1_555 1_555
Mo9 O23 1_555 1_555
O35 Cs1 1_555 1_555
O36 Cs1 1_555 1_555
O37 Cs1 1_555 1_555
O38 K1 1_555 1_555
O39 K1 1_555 1_555
O40 Mo4 1_555 1_555
O41 Mo4 1_555 1_555
O42 Mo5 1_555 1_555
O43 Mo6 1_555 1_555
O44 Mo6 1_555 1_555
O45 Mo6 1_555 1_555
K2 O11 1_555 1_555
Mo2 O5 1_555 1_555
Mo2 O6 1_555 1_555
P1 O14 1_555 1_555
P2 O13 1_555 1_555
P2 C1 1_555 1_555
P3 O24 1_555 1_555
P4 O23 1_555 1_555
P4 C6 1_555 1_555
O3 K1 1_555 1_555
O4 C1 1_555 1_555
O5 K1 1_555 1_555
O8 K1 1_555 1_555
O14 K2 1_555 1_555
O16 Mo7 1_555 1_555
O24 Mo9 1_555 1_555
O25 Cs1 1_555 1_555
O26 Cs1 1_555 1_555
O27 Mo9 1_555 1_555
O28 Cs1 1_555 1_555
Mo9 O42 1_555 1_555
O40 K2 1_555 1_555
O41 K2 1_555 1_555
O33 H23 1_555 1_555
O33 H24 1_555 1_555
O34 H25 1_555 1_555
O34 H26 1_555 1_555
O32 H27 1_555 1_555
O32 H28 1_555 1_555
Mo9_2 O23_2 1_555 1_555
O24_2 Mo9_2 1_555 1_555
O27_2 Mo9_2 1_555 1_555
Mo9_2 O42_2 1_555 1_555
Mo3_2 O9_2 1_555 1_555
Mo4_2 O12_2 1_555 1_555
Mo5_2 O17_2 1_555 1_555
Mo6_2 O22_2 1_555 1_555
P1_2 O6_2 1_555 1_555
P3_2 O19_2 1_555 1_555
P4_2 O18_2 1_555 1_555
O10_2 Mo3_2 1_555 1_555
O11_2 Mo3_2 1_555 1_555
O12_2 Mo3_2 1_555 1_555
O13_2 Mo3_2 1_555 1_555
O14_2 Mo3_2 1_555 1_555
O17_2 Mo4_2 1_555 1_555
O18_2 Mo4_2 1_555 1_555
O19_2 Mo4_2 1_555 1_555
O21_2 Mo5_2 1_555 1_555
O22_2 Mo8_2 1_555 1_555
O25_2 Mo6_2 1_555 1_555
O26_2 Mo6_2 1_555 1_555
O28_2 P1_2 1_555 1_555
C1_2 P1_2 1_555 1_555
C2_2 C1_2 1_555 1_555
H1_2 C2_2 1_555 1_555
H2_2 C2_2 1_555 1_555
C3_2 C2_2 1_555 1_555
H3_2 C3_2 1_555 1_555
H4_2 C3_2 1_555 1_555
C4_2 C3_2 1_555 1_555
H5_2 C4_2 1_555 1_555
H6_2 C4_2 1_555 1_555
N1_2 C4_2 1_555 1_555
H7_2 N1_2 1_555 1_555
H8_2 N1_2 1_555 1_555
C5_2 N1_2 1_555 1_555
H9_2 C5_2 1_555 1_555
H10_2 C5_2 1_555 1_555
H11_2 C5_2 1_555 1_555
C6_2 P3_2 1_555 1_555
C7_2 C6_2 1_555 1_555
H13_2 C7_2 1_555 1_555
C8_2 C7_2 1_555 1_555
H14_2 C8_2 1_555 1_555
H15_2 C8_2 1_555 1_555
O33_2 Cs1_2 1_555 1_555
O34_2 Cs1_2 1_555 1_555
Mo8_2 O43_2 1_555 1_555
O35_2 Cs1_2 1_555 1_555
O40_2 Mo4_2 1_555 1_555
O41_2 Mo4_2 1_555 1_555
O43_2 Mo6_2 1_555 1_555
O44_2 Mo6_2 1_555 1_555
O45_2 Mo6_2 1_555 1_555
K2_2 O11_2 1_555 1_555
P1_2 O14_2 1_555 1_555
P4_2 C6_2 1_555 1_555
O14_2 K2_2 1_555 1_555
O25_2 Cs1_2 1_555 1_555
O26_2 Cs1_2 1_555 1_555
O28_2 Cs1_2 1_555 1_555
Mo8_2 O44_2 1_555 1_555
O40_2 K2_2 1_555 1_555
O41_2 K2_2 1_555 1_555
O33_2 H23_2 1_555 1_555
O33_2 H24_2 1_555 1_555
O34_2 H25_2 1_555 1_555
O34_2 H26_2 1_555 1_555
Mo1_2 O1_2 1_555 1_555
Mo2_2 O3_2 1_555 1_555
P2_2 O5_2 1_555 1_555
O2_2 Mo1_2 1_555 1_555
O3_2 Mo1_2 1_555 1_555
O4_2 Mo1_2 1_555 1_555
O5_2 Mo1_2 1_555 1_555
O8_2 Mo2_2 1_555 1_555
O15_2 K1_2 1_555 1_555
O16_2 K1_2 1_555 1_555
O29_2 P2_2 1_555 1_555
H16_2 C9_2 1_555 1_555
H17_2 C9_2 1_555 1_555
N2_2 C9_2 1_555 1_555
H18_2 N2_2 1_555 1_555
H19_2 N2_2 1_555 1_555
C10_2 N2_2 1_555 1_555
H20_2 C10_2 1_555 1_555
H21_2 C10_2 1_555 1_555
H22_2 C10_2 1_555 1_555
K1_2 O2_2 1_555 1_555
O32_2 K1_2 1_555 1_555
Mo7_2 O15_2 1_555 1_555
O38_2 K1_2 1_555 1_555
O39_2 K1_2 1_555 1_555
Mo2_2 O5_2 1_555 1_555
O3_2 K1_2 1_555 1_555
O5_2 K1_2 1_555 1_555
O8_2 K1_2 1_555 1_555
O16_2 Mo7_2 1_555 1_555
O32_2 H27_2 1_555 1_555
O32_2 H28_2 1_555 1_555
O34_3 H25_3 1_555 1_555
O34_3 H26_3 1_555 1_555
Mo1_3 O1_3 1_555 1_555
Mo2_3 O3_3 1_555 1_555
Mo3_3 O36 1_555 1_555
Mo4_3 O12_3 1_555 1_555
Mo5_3 O17_3 1_555 1_555
Mo6_3 O22_3 1_555 1_555
P1_3 O6_3 1_555 1_555
P2_3 O5_3 1_555 1_555
P3_3 O19_3 1_555 1_555
P4_3 O18_3 1_555 1_555
O1_3 Cs2 1_555 1_555
O2_3 Mo1_3 1_555 1_555
O3_3 Mo1_3 1_555 1_555
O4_3 Mo1_3 1_555 1_555
O5_3 Mo1_3 1_555 1_555
O6_3 Mo1_3 1_555 1_555
O7_3 Mo2_3 1_555 1_555
O35 Mo2_3 1_555 1_555
O36 Mo2_3 1_555 1_555
O37 Mo3_3 1_555 1_555
O11_3 Mo3_3 1_555 1_555
O12_3 Mo3_3 1_555 1_555
O13_3 Mo3_3 1_555 1_555
O14_3 Mo3_3 1_555 1_555
O15_3 K1_3 1_555 1_555
O16_3 K1_3 1_555 1_555
O17_3 Mo4_3 1_555 1_555
O18_3 Mo4_3 1_555 1_555
O19_3 Mo4_3 1_555 1_555
O21_3 Mo5_3 1_555 1_555
O22_3 Mo8_3 1_555 1_555
O25_3 Mo6_3 1_555 1_555
O26_3 Mo6_3 1_555 1_555
O28_3 P1_3 1_555 1_555
O29_3 P2_3 1_555 1_555
O31_2 P4_3 1_555 1_555
C1_3 P1_3 1_555 1_555
C2_3 C1_3 1_555 1_555
H1_3 C2_3 1_555 1_555
H2_3 C2_3 1_555 1_555
C3_3 C2_3 1_555 1_555
H3_3 C3_3 1_555 1_555
H4_3 C3_3 1_555 1_555
C4_3 C3_3 1_555 1_555
H5_3 C4_3 1_555 1_555
H6_3 C4_3 1_555 1_555
N1_3 C4_3 1_555 1_555
H7_3 N1_3 1_555 1_555
H8_3 N1_3 1_555 1_555
C5_3 N1_3 1_555 1_555
H9_3 C5_3 1_555 1_555
H10_3 C5_3 1_555 1_555
H11_3 C5_3 1_555 1_555
C6_3 P3_3 1_555 1_555
C7_3 C6_3 1_555 1_555
H13_3 C7_3 1_555 1_555
C8_3 C7_3 1_555 1_555
H14_3 C8_3 1_555 1_555
H15_3 C8_3 1_555 1_555
C9_3 C8_3 1_555 1_555
H16_3 C9_3 1_555 1_555
H17_3 C9_3 1_555 1_555
N2_3 C9_3 1_555 1_555
H18_3 N2_3 1_555 1_555
H19_3 N2_3 1_555 1_555
C10_3 N2_3 1_555 1_555
H20_3 C10_3 1_555 1_555
H21_3 C10_3 1_555 1_555
H22_3 C10_3 1_555 1_555
Cs2 O4_3 1_555 1_555
K1_3 O2_3 1_555 1_555
O32_3 K1_3 1_555 1_555
O33_3 Cs2 1_555 1_555
Mo7_3 O15_3 1_555 1_555
Mo8_3 O43_3 1_555 1_555
O38_3 K1_3 1_555 1_555
O39_3 K1_3 1_555 1_555
O40_3 Mo4_3 1_555 1_555
O41_3 Mo4_3 1_555 1_555
O43_3 Mo6_3 1_555 1_555
O44_3 Mo6_3 1_555 1_555
O45_3 Mo6_3 1_555 1_555
K2_3 O11_3 1_555 1_555
Mo2_3 O5_3 1_555 1_555
Mo2_3 O6_3 1_555 1_555
P1_3 O14_3 1_555 1_555
P2_3 O13_3 1_555 1_555
P2_3 C1_3 1_555 1_555
P4_3 C6_3 1_555 1_555
O3_3 K1_3 1_555 1_555
O4_3 C1_3 1_555 1_555
O5_3 K1_3 1_555 1_555
O35 K1_3 1_555 1_555
O14_3 K2_3 1_555 1_555
O16_3 Mo7_3 1_555 1_555
O25_3 Cs2 1_555 1_555
O26_3 Cs2 1_555 1_555
O28_3 Cs2 1_555 1_555
Mo8_3 O44_3 1_555 1_555
O40_3 K2_3 1_555 1_555
O41_3 K2_3 1_555 1_555
O33_3 H23_3 1_555 1_555
O33_3 H24_3 1_555 1_555
O32_3 H27_3 1_555 1_555
O32_3 H28_3 1_555 1_555
Mo9_3 O23_3 1_555 1_555
O24_3 Mo9_3 1_555 1_555
O27_3 Mo9_3 1_555 1_555
Mo9_3 O42_3 1_555 1_555
Mo1_4 O1_4 1_555 1_555
Mo2_4 O3_4 1_555 1_555
P2_4 O5_4 1_555 1_555
O2_4 Mo1_4 1_555 1_555
O3_4 Mo1_4 1_555 1_555
O4_4 Mo1_4 1_555 1_555
O5_4 Mo1_4 1_555 1_555
O35_2 Mo2_4 1_555 1_555
O15_4 K1_4 1_555 1_555
O16_4 K1_4 1_555 1_555
O29_4 P2_4 1_555 1_555
H16_4 C9_4 1_555 1_555
H17_4 C9_4 1_555 1_555
N2_4 C9_4 1_555 1_555
H18_4 N2_4 1_555 1_555
H19_4 N2_4 1_555 1_555
C10_4 N2_4 1_555 1_555
H20_4 C10_4 1_555 1_555
H21_4 C10_4 1_555 1_555
H22_4 C10_4 1_555 1_555
K1_4 O2_4 1_555 1_555
O32_4 K1_4 1_555 1_555
Mo7_4 O15_4 1_555 1_555
O38_4 K1_4 1_555 1_555
O39_4 K1_4 1_555 1_555
Mo2_4 O5_4 1_555 1_555
O3_4 K1_4 1_555 1_555
O5_4 K1_4 1_555 1_555
O35_2 K1_4 1_555 1_555
O16_4 Mo7_4 1_555 1_555
O32_4 H27_4 1_555 1_555
O32_4 H28_4 1_555 1_555
Mo3_4 O36_2 1_555 1_555
Mo4_4 O12_4 1_555 1_555
Mo5_4 O17_4 1_555 1_555
Mo6_4 O22_4 1_555 1_555
P1_4 O6_4 1_555 1_555
P3_4 O19_4 1_555 1_555
P4_4 O18_4 1_555 1_555
O37_2 Mo3_4 1_555 1_555
O11_4 Mo3_4 1_555 1_555
O12_4 Mo3_4 1_555 1_555
O13_4 Mo3_4 1_555 1_555
O14_4 Mo3_4 1_555 1_555
O17_4 Mo4_4 1_555 1_555
O18_4 Mo4_4 1_555 1_555
O19_4 Mo4_4 1_555 1_555
O20_4 Mo5_4 1_555 1_555
O21_4 Mo5_4 1_555 1_555
O23_4 Mo5_4 1_555 1_555
O24_4 Mo5_4 1_555 1_555
O25_4 Mo6_4 1_555 1_555
O26_4 Mo6_4 1_555 1_555
O27_4 C6_4 1_555 1_555
O28_4 P1_4 1_555 1_555
O30_4 P3_4 1_555 1_555
O31_3 P4_4 1_555 1_555
C1_4 P1_4 1_555 1_555
C2_4 C1_4 1_555 1_555
H1_4 C2_4 1_555 1_555
H2_4 C2_4 1_555 1_555
C3_4 C2_4 1_555 1_555
H3_4 C3_4 1_555 1_555
H4_4 C3_4 1_555 1_555
C4_4 C3_4 1_555 1_555
H5_4 C4_4 1_555 1_555
H6_4 C4_4 1_555 1_555
N1_4 C4_4 1_555 1_555
H7_4 N1_4 1_555 1_555
H8_4 N1_4 1_555 1_555
C5_4 N1_4 1_555 1_555
H9_4 C5_4 1_555 1_555
H10_4 C5_4 1_555 1_555
H11_4 C5_4 1_555 1_555
C6_4 P3_4 1_555 1_555
C7_4 C6_4 1_555 1_555
H13_4 C7_4 1_555 1_555
C8_4 C7_4 1_555 1_555
H14_4 C8_4 1_555 1_555
H15_4 C8_4 1_555 1_555
O33_4 Cs2_2 1_555 1_555
Mo9_4 O23_4 1_555 1_555
O40_4 Mo4_4 1_555 1_555
O41_4 Mo4_4 1_555 1_555
O42_4 Mo5_4 1_555 1_555
O43_4 Mo6_4 1_555 1_555
O44_4 Mo6_4 1_555 1_555
O45_4 Mo6_4 1_555 1_555
K2_4 O11_4 1_555 1_555
P1_4 O14_4 1_555 1_555
P3_4 O24_4 1_555 1_555
P4_4 O23_4 1_555 1_555
P4_4 C6_4 1_555 1_555
O14_4 K2_4 1_555 1_555
O24_4 Mo9_4 1_555 1_555
O25_4 Cs2_2 1_555 1_555
O26_4 Cs2_2 1_555 1_555
O27_4 Mo9_4 1_555 1_555
O28_4 Cs2_2 1_555 1_555
Mo9_4 O42_4 1_555 1_555
O40_4 K2_4 1_555 1_555
O41_4 K2_4 1_555 1_555
O33_4 H23_4 1_555 1_555
O33_4 H24_4 1_555 1_555
O34_4 H25_4 1_555 1_555
O34_4 H26_4 1_555 1_555
Mo1_5 O1_5 1_555 1_555
Mo2_5 O3_5 1_555 1_555
Mo3_5 O9_3 1_555 1_555
Mo7_2 O12_5 1_555 1_555
Mo8_3 O17_5 1_555 1_555
P1_5 O6_5 1_555 1_555
P2_5 O5_5 1_555 1_555
P3_5 O19_5 1_555 1_555
P4_5 O18_5 1_555 1_555
O1_5 Cs1_3 1_555 1_555
O2_5 Mo1_5 1_555 1_555
O3_5 Mo1_5 1_555 1_555
O4_5 Mo1_5 1_555 1_555
O5_5 Mo1_5 1_555 1_555
O6_5 Mo1_5 1_555 1_555
O7_5 Mo2_5 1_555 1_555
O8_3 Mo2_5 1_555 1_555
O9_3 Mo2_5 1_555 1_555
O10_3 Mo3_5 1_555 1_555
O38_2 Mo3_5 1_555 1_555
O12_5 Mo3_5 1_555 1_555
O13_5 Mo3_5 1_555 1_555
O39_2 Mo3_5 1_555 1_555
O17_5 Mo7_2 1_555 1_555
O18_5 Mo7_2 1_555 1_555
O19_5 Mo7_2 1_555 1_555
O20_5 Mo8_3 1_555 1_555
O21_5 Mo8_3 1_555 1_555
O25_5 Mo9_3 1_555 1_555
O26_5 Mo9_3 1_555 1_555
O45_3 C6_5 1_555 1_555
O28_5 P1_5 1_555 1_555
O29_5 P2_5 1_555 1_555
O30_5 P3_5 1_555 1_555
C1_5 P1_5 1_555 1_555
C2_5 C1_5 1_555 1_555
H1_5 C2_5 1_555 1_555
H2_5 C2_5 1_555 1_555
C3_5 C2_5 1_555 1_555
H3_5 C3_5 1_555 1_555
H4_5 C3_5 1_555 1_555
C4_5 C3_5 1_555 1_555
H5_5 C4_5 1_555 1_555
H6_5 C4_5 1_555 1_555
N1_5 C4_5 1_555 1_555
H7_5 N1_5 1_555 1_555
H8_5 N1_5 1_555 1_555
C5_5 N1_5 1_555 1_555
H9_5 C5_5 1_555 1_555
H10_5 C5_5 1_555 1_555
H11_5 C5_5 1_555 1_555
C6_5 P3_5 1_555 1_555
C7_5 C6_5 1_555 1_555
H12_4 C7_5 1_555 1_555
H13_5 C7_5 1_555 1_555
C8_5 C7_5 1_555 1_555
H14_5 C8_5 1_555 1_555
H15_5 C8_5 1_555 1_555
C9_5 C8_5 1_555 1_555
H16_5 C9_5 1_555 1_555
H17_5 C9_5 1_555 1_555
N2_5 C9_5 1_555 1_555
H18_5 N2_5 1_555 1_555
H19_5 N2_5 1_555 1_555
C10_5 N2_5 1_555 1_555
H20_5 C10_5 1_555 1_555
H21_5 C10_5 1_555 1_555
H22_5 C10_5 1_555 1_555
Cs1_3 O4_5 1_555 1_555
K2_2 O2_5 1_555 1_555
O32_5 K2_2 1_555 1_555
O33_5 Cs1_3 1_555 1_555
O34_5 Cs1_3 1_555 1_555
O35_3 Cs1_3 1_555 1_555
O36_3 Cs1_3 1_555 1_555
O37_3 Cs1_3 1_555 1_555
Mo2_5 O5_5 1_555 1_555
Mo2_5 O6_5 1_555 1_555
P1_5 O39_2 1_555 1_555
P2_5 O13_5 1_555 1_555
P2_5 C1_5 1_555 1_555
P3_5 O44_3 1_555 1_555
P4_5 O43_3 1_555 1_555
P4_5 C6_5 1_555 1_555
O3_5 K2_2 1_555 1_555
O4_5 C1_5 1_555 1_555
O5_5 K2_2 1_555 1_555
O8_3 K2_2 1_555 1_555
O25_5 Cs1_3 1_555 1_555
O26_5 Cs1_3 1_555 1_555
O28_5 Cs1_3 1_555 1_555
O33_5 H23_5 1_555 1_555
O33_5 H24_5 1_555 1_555
O34_5 H25_5 1_555 1_555
O34_5 H26_5 1_555 1_555
O32_5 H27_5 1_555 1_555
O32_5 H28_5 1_555 1_555
Mo1_6 O1_6 1_555 1_555
Mo2_6 O3_6 1_555 1_555
P2_6 O5_6 1_555 1_555
O2_6 Mo1_6 1_555 1_555
O3_6 Mo1_6 1_555 1_555
O4_6 Mo1_6 1_555 1_555
O5_6 Mo1_6 1_555 1_555
O8_4 Mo2_6 1_555 1_555
O29_6 P2_6 1_555 1_555
H16_6 C9_6 1_555 1_555
H17_6 C9_6 1_555 1_555
N2_6 C9_6 1_555 1_555
H18_6 N2_6 1_555 1_555
H19_6 N2_6 1_555 1_555
C10_6 N2_6 1_555 1_555
H20_6 C10_6 1_555 1_555
H21_6 C10_6 1_555 1_555
H22_6 C10_6 1_555 1_555
K2 O2_6 1_555 1_555
O32_6 K2 1_555 1_555
Mo2_6 O5_6 1_555 1_555
O3_6 K2 1_555 1_555
O5_6 K2 1_555 1_555
O8_4 K2 1_555 1_555
O32_6 H27_6 1_555 1_555
O32_6 H28_6 1_555 1_555
Mo3_6 O9_4 1_555 1_555
Mo7 O12_6 1_555 1_555
Mo8_4 O17_6 1_555 1_555
P1_6 O6_6 1_555 1_555
P3_6 O19_6 1_555 1_555
P4_6 O18_6 1_555 1_555
O10_4 Mo3_6 1_555 1_555
O38 Mo3_6 1_555 1_555
O12_6 Mo3_6 1_555 1_555
O13_6 Mo3_6 1_555 1_555
O39 Mo3_6 1_555 1_555
O17_6 Mo7 1_555 1_555
O18_6 Mo7 1_555 1_555
O19_6 Mo7 1_555 1_555
O21_6 Mo8_4 1_555 1_555
O25_6 Mo9_4 1_555 1_555
O26_6 Mo9_4 1_555 1_555
O28_6 P1_6 1_555 1_555
C1_6 P1_6 1_555 1_555
C2_6 C1_6 1_555 1_555
H1_6 C2_6 1_555 1_555
H2_6 C2_6 1_555 1_555
C3_6 C2_6 1_555 1_555
H3_6 C3_6 1_555 1_555
H4_6 C3_6 1_555 1_555
C4_6 C3_6 1_555 1_555
H5_6 C4_6 1_555 1_555
H6_6 C4_6 1_555 1_555
N1_6 C4_6 1_555 1_555
H7_6 N1_6 1_555 1_555
H8_6 N1_6 1_555 1_555
C5_6 N1_6 1_555 1_555
H9_6 C5_6 1_555 1_555
H10_6 C5_6 1_555 1_555
H11_6 C5_6 1_555 1_555
C6_6 P3_6 1_555 1_555
C7_6 C6_6 1_555 1_555
H13_6 C7_6 1_555 1_555
C8_6 C7_6 1_555 1_555
H14_6 C8_6 1_555 1_555
H15_6 C8_6 1_555 1_555
O33_6 Cs1_4 1_555 1_555
O34_6 Cs1_4 1_555 1_555
O35_4 Cs1_4 1_555 1_555
P1_6 O39 1_555 1_555
P4_6 C6_6 1_555 1_555
O25_6 Cs1_4 1_555 1_555
O26_6 Cs1_4 1_555 1_555
O28_6 Cs1_4 1_555 1_555
O33_6 H23_6 1_555 1_555
O33_6 H24_6 1_555 1_555
O34_6 H25_6 1_555 1_555
O34_6 H26_6 1_555 1_555
Mo1_7 O1_7 1_555 1_555
Mo2_7 O3_7 1_555 1_555
Mo3_7 O36_3 1_555 1_555
Mo7_4 O12_7 1_555 1_555
Mo8 O17_7 1_555 1_555
P1_7 O6_7 1_555 1_555
P2_7 O5_7 1_555 1_555
P3_7 O19_7 1_555 1_555
P4_7 O18_7 1_555 1_555
O1_7 Cs2_3 1_555 1_555
O2_7 Mo1_7 1_555 1_555
O3_7 Mo1_7 1_555 1_555
O4_7 Mo1_7 1_555 1_555
O5_7 Mo1_7 1_555 1_555
O6_7 Mo1_7 1_555 1_555
O7_7 Mo2_7 1_555 1_555
O35_3 Mo2_7 1_555 1_555
O36_3 Mo2_7 1_555 1_555
O37_3 Mo3_7 1_555 1_555
O38_4 Mo3_7 1_555 1_555
O12_7 Mo3_7 1_555 1_555
O13_7 Mo3_7 1_555 1_555
O39_4 Mo3_7 1_555 1_555
O17_7 Mo7_4 1_555 1_555
O18_7 Mo7_4 1_555 1_555
O19_7 Mo7_4 1_555 1_555
O21_7 Mo8 1_555 1_555
O25_7 Mo9 1_555 1_555
O26_7 Mo9 1_555 1_555
O28_7 P1_7 1_555 1_555
O29_7 P2_7 1_555 1_555
O31_5 P4_7 1_555 1_555
C1_7 P1_7 1_555 1_555
C2_7 C1_7 1_555 1_555
H1_7 C2_7 1_555 1_555
H2_7 C2_7 1_555 1_555
C3_7 C2_7 1_555 1_555
H3_7 C3_7 1_555 1_555
H4_7 C3_7 1_555 1_555
C4_7 C3_7 1_555 1_555
H5_7 C4_7 1_555 1_555
H6_7 C4_7 1_555 1_555
N1_7 C4_7 1_555 1_555
H7_7 N1_7 1_555 1_555
H8_7 N1_7 1_555 1_555
C5_7 N1_7 1_555 1_555
H9_7 C5_7 1_555 1_555
H10_7 C5_7 1_555 1_555
H11_7 C5_7 1_555 1_555
C6_7 P3_7 1_555 1_555
C7_7 C6_7 1_555 1_555
H13_7 C7_7 1_555 1_555
C8_7 C7_7 1_555 1_555
H14_7 C8_7 1_555 1_555
H15_7 C8_7 1_555 1_555
C9_7 C8_7 1_555 1_555
H16_7 C9_7 1_555 1_555
H17_7 C9_7 1_555 1_555
N2_7 C9_7 1_555 1_555
H18_7 N2_7 1_555 1_555
H19_7 N2_7 1_555 1_555
C10_7 N2_7 1_555 1_555
H20_7 C10_7 1_555 1_555
H21_7 C10_7 1_555 1_555
H22_7 C10_7 1_555 1_555
Cs2_3 O4_7 1_555 1_555
K2_4 O2_7 1_555 1_555
O32_7 K2_4 1_555 1_555
O33_7 Cs2_3 1_555 1_555
Mo2_7 O5_7 1_555 1_555
Mo2_7 O6_7 1_555 1_555
P1_7 O39_4 1_555 1_555
P2_7 O13_7 1_555 1_555
P2_7 C1_7 1_555 1_555
P4_7 C6_7 1_555 1_555
O3_7 K2_4 1_555 1_555
O4_7 C1_7 1_555 1_555
O5_7 K2_4 1_555 1_555
O35_3 K2_4 1_555 1_555
O25_7 Cs2_3 1_555 1_555
O26_7 Cs2_3 1_555 1_555
O28_7 Cs2_3 1_555 1_555
O33_7 H23_7 1_555 1_555
O33_7 H24_7 1_555 1_555
O32_7 H27_7 1_555 1_555
O32_7 H28_7 1_555 1_555
O34_7 H25_7 1_555 1_555
O34_7 H26_7 1_555 1_555
O34_8 H25_8 1_555 1_555
O34_8 H26_8 1_555 1_555
Mo3_8 O36_4 1_555 1_555
Mo7_3 O12_8 1_555 1_555
Mo8_2 O17_8 1_555 1_555
P1_8 O6_8 1_555 1_555
P3_8 O19_8 1_555 1_555
P4_8 O18_8 1_555 1_555
O37_4 Mo3_8 1_555 1_555
O38_3 Mo3_8 1_555 1_555
O12_8 Mo3_8 1_555 1_555
O13_8 Mo3_8 1_555 1_555
O39_3 Mo3_8 1_555 1_555
O17_8 Mo7_3 1_555 1_555
O18_8 Mo7_3 1_555 1_555
O19_8 Mo7_3 1_555 1_555
O20_8 Mo8_2 1_555 1_555
O21_8 Mo8_2 1_555 1_555
O25_8 Mo9_2 1_555 1_555
O26_8 Mo9_2 1_555 1_555
O45_2 C6_8 1_555 1_555
O28_8 P1_8 1_555 1_555
O30_8 P3_8 1_555 1_555
O31_6 P4_8 1_555 1_555
C1_8 P1_8 1_555 1_555
C2_8 C1_8 1_555 1_555
H1_8 C2_8 1_555 1_555
H2_8 C2_8 1_555 1_555
C3_8 C2_8 1_555 1_555
H3_8 C3_8 1_555 1_555
H4_8 C3_8 1_555 1_555
C4_8 C3_8 1_555 1_555
H5_8 C4_8 1_555 1_555
H6_8 C4_8 1_555 1_555
N1_8 C4_8 1_555 1_555
H7_8 N1_8 1_555 1_555
H8_8 N1_8 1_555 1_555
C5_8 N1_8 1_555 1_555
H9_8 C5_8 1_555 1_555
H10_8 C5_8 1_555 1_555
H11_8 C5_8 1_555 1_555
C6_8 P3_8 1_555 1_555
C7_8 C6_8 1_555 1_555
H13_8 C7_8 1_555 1_555
C8_8 C7_8 1_555 1_555
H14_8 C8_8 1_555 1_555
H15_8 C8_8 1_555 1_555
O33_8 Cs2_4 1_555 1_555
P1_8 O39_3 1_555 1_555
P3_8 O44_2 1_555 1_555
P4_8 O43_2 1_555 1_555
P4_8 C6_8 1_555 1_555
O25_8 Cs2_4 1_555 1_555
O26_8 Cs2_4 1_555 1_555
O28_8 Cs2_4 1_555 1_555
O33_8 H23_8 1_555 1_555
O33_8 H24_8 1_555 1_555
Mo1_8 O1_8 1_555 1_555
Mo2_8 O3_8 1_555 1_555
P2_8 O5_8 1_555 1_555
O2_8 Mo1_8 1_555 1_555
O3_8 Mo1_8 1_555 1_555
O4_8 Mo1_8 1_555 1_555
O5_8 Mo1_8 1_555 1_555
O35_4 Mo2_8 1_555 1_555
O29_8 P2_8 1_555 1_555
H16_8 C9_8 1_555 1_555
H17_8 C9_8 1_555 1_555
N2_8 C9_8 1_555 1_555
H18_8 N2_8 1_555 1_555
H19_8 N2_8 1_555 1_555
C10_8 N2_8 1_555 1_555
H20_8 C10_8 1_555 1_555
H21_8 C10_8 1_555 1_555
H22_8 C10_8 1_555 1_555
K2_3 O2_8 1_555 1_555
O32_8 K2_3 1_555 1_555
Mo2_8 O5_8 1_555 1_555
O3_8 K2_3 1_555 1_555
O5_8 K2_3 1_555 1_555
O35_4 K2_3 1_555 1_555
O32_8 H27_8 1_555 1_555
O32_8 H28_8 1_555 1_555

#END
