
###############################################################################
#
# This file contains modified crystal structure data generated from the
# MOF subset of the Cambridge Structural Database (CSD) v543 
# hosted by the Cambridge Crystallographic Data Centre (CCDC).
#
# This work is licensed under the Creative Commons
# Attribution-NonCommercial-ShareAlike 4.0 International License.
# To view a copy of this license, visit
# http://creativecommons.org/licenses/by-nc-sa/4.0/
# or send a letter to
# Creative Commons, PO Box 1866, Mountain View, CA 94042, USA.
#
# CIF created using the CSD Python API on 29 September 2022
# The structure has been converted into the P1 space group
# The structure has a 3D framework
# The original CSD entry NEDVUP is in the triclinic crystal system
# The framework has been calculated to contain at least 10.0% void space
# The void calculation uses a probe of radius 1.32A, grid spacing 0.4
# H atom positions have been added when not included in the experimental data
#
###############################################################################

data_NEDVUP
_chemical_formula_moiety         '(C66 H56 Cu4 Mn1 O26)n'
_symmetry_cell_setting           triclinic
_symmetry_space_group_name_H-M   'P 1'
_symmetry_Int_Tables_number      1
_space_group_name_Hall           'P 1'
loop_
_symmetry_equiv_pos_site_id
_symmetry_equiv_pos_as_xyz
1 x,y,z
_cell_length_a                   12.6583(8)
_cell_length_b                   15.5409(10)
_cell_length_c                   16.4094(10)
_cell_angle_alpha                108.446(4)
_cell_angle_beta                 98.651(3)
_cell_angle_gamma                109.526(3)
_cell_volume                     2765.11
loop_
_atom_site_label
_atom_site_type_symbol
_atom_site_fract_x
_atom_site_fract_y
_atom_site_fract_z
Cu9 Cu 0.80860(6) 0.62928(5) 0.57839(5)
O14 O 0.6510(3) 0.4658(3) 0.5364(3)
Mn4 Mn 0.5000 0.5000 0.5000
C41 C 0.5912(6) 0.0180(5) 0.1745(4)
H29 H 0.5920 0.0551 0.1353
H30 H 0.6730 0.0320 0.2034
C43 C 0.7114(6) 0.4442(5) 0.4856(4)
O32 O 0.5349(4) 0.0468(3) 0.2407(3)
C54 C 0.7167(6) 0.3145(5) 0.3539(5)
H42 H 0.7811 0.3632 0.3480
C59 C 0.6723(4) 0.3453(4) 0.4220(4)
C60 C 0.5303(6) 0.1673(5) 0.3662(5)
H43 H 0.4660 0.1177 0.3711
O34 O 0.8052(4) 0.5064(3) 0.4862(3)
C61 C 0.5742(6) 0.2674(5) 0.4276(4)
H44 H 0.5387 0.2841 0.4739
C62 C 0.5837(6) 0.1421(5) 0.2972(5)
C64 C 0.6762(6) 0.2182(5) 0.2922(5)
H46 H 0.7118 0.2034 0.2456
O16 O 0.3428(4) 0.7833(3) 0.0177(3)
O24 O 0.5900(4) 0.5874(4) 0.4371(3)
O28 O 0.7780(4) 0.6877(3) 0.4949(3)
C38 C 0.5223(5) 0.9077(4) 0.1203(4)
C39 C 0.5918(6) 0.8708(5) 0.0616(4)
H26 H 0.5493 0.7982 0.0272
H27 H 0.6683 0.8833 0.0997
C42 C 0.5051(5) 0.8514(5) 0.1828(4)
H31 H 0.4685 0.7789 0.1471
H32 H 0.4534 0.8691 0.2185
C44 C 0.7527(6) 0.7960(6) 0.3917(5)
H33 H 0.8296 0.8136 0.4263
C45 C 0.7334(6) 0.8488(6) 0.3396(5)
H34 H 0.7978 0.9027 0.3401
C48 C 0.6250(5) 0.8242(5) 0.2887(4)
O31 O 0.6172(4) 0.8790(3) 0.2404(3)
C51 C 0.4056(6) 0.8879(5) 0.0637(4)
H38 H 0.4160 0.9196 0.0201
H39 H 0.3618 0.9157 0.1019
C55 C 0.6603(5) 0.7191(5) 0.3925(4)
C58 C 0.6771(6) 0.6612(5) 0.4466(4)
C63 C 0.5503(6) 0.6985(5) 0.3436(5)
H45 H 0.4850 0.6474 0.3458
C65 C 0.5311(6) 0.7494(5) 0.2912(4)
H47 H 0.4541 0.7328 0.2575
O37 O 0.6105(4) 0.9194(3) 0.0010(3)
Cu1 Cu 0.19140(6) 0.37072(5) 0.42161(5)
Cu2 Cu 0.0000 0.5000 0.5000
O3 O 0.0754(5) 0.3591(5) 0.3241(4)
C3 C 0.0143(11) 0.3929(6) 0.3170(6)
O18 O 0.5764(4) 0.6201(3) 0.6260(3)
O21 O 0.7688(4) 0.7161(3) 0.6700(3)
O22 O 0.2312(4) 0.2839(3) 0.3300(3)
O27 O 0.0071(4) 0.5313(4) 0.6271(4)
O29 O 0.2220(4) 0.3123(3) 0.5051(3)
C34 C 0.2157(7) 0.6458(6) 0.8891(5)
H25 H 0.2485 0.6077 0.9108
C35 C 0.6675(6) 0.6936(5) 0.6798(4)
C37 C 0.6527(6) 0.7538(5) 0.7655(4)
C40 C 0.7413(7) 0.8404(7) 0.8253(5)
H28 H 0.8144 0.8648 0.8134
C46 C 0.2520(6) 0.7451(6) 0.9404(5)
C47 C 0.1991(7) 0.8007(8) 0.9159(5)
H35 H 0.2204 0.8686 0.9522
C49 C 0.7233(8) 0.8916(7) 0.9027(6)
H36 H 0.7863 0.9511 0.9443
C50 C 0.1338(9) 0.6009(7) 0.8078(7)
H37 H 0.1139 0.5335 0.7710
C52 C 0.5347(7) 0.7771(6) 0.8627(5)
H40 H 0.4620 0.7524 0.8749
C53 C 0.5507(7) 0.7258(6) 0.7834(5)
H41 H 0.4865 0.6685 0.7400
O33 O 0.0494(5) 0.6425(4) 0.5172(4)
C56 C 0.0838(6) 0.6506(5) 0.7818(5)
C57 C 0.6228(6) 0.8633(5) 0.9234(5)
O35 O 0.1948(4) 0.4936(3) 0.5138(3)
C66 C 0.1052(6) 0.7469(6) 0.8280(5)
H48 H 0.0627 0.7788 0.8058
H49 H 0.00823759 0.332927 0.460859
H52 H 0.0618458 0.683556 0.580911
Cu2_2 Cu 1.0000 0.5000 0.5000
O4 O 0.4236(4) 0.3799(3) 0.3740(3)
O7 O 0.9929(4) 0.4687(4) 0.3729(4)
C1 C 0.7843(7) 0.3542(6) 0.1109(5)
H1 H 0.7515 0.3923 0.0892
C2 C 0.3325(6) 0.3064(5) 0.3202(4)
C4 C 0.3473(6) 0.2462(5) 0.2345(4)
C7 C 0.2587(7) 0.1596(7) 0.1747(5)
H4 H 0.1856 0.1352 0.1866
C13 C 0.7480(6) 0.2549(6) 0.0596(5)
C14 C 0.8009(7) 0.1993(8) 0.0841(5)
H11 H 0.7796 0.1314 0.0478
C16 C 0.2767(8) 0.1084(7) 0.0973(6)
H12 H 0.2137 0.0489 0.0557
C17 C 0.8662(9) 0.3991(7) 0.1922(7)
H13 H 0.8861 0.4665 0.2290
C19 C 0.4653(7) 0.2229(6) 0.1373(5)
H16 H 0.5380 0.2476 0.1251
C20 C 0.4493(7) 0.2742(6) 0.2166(5)
H17 H 0.5135 0.3315 0.2600
O11 O 0.9506(5) 0.3575(4) 0.4828(4)
C23 C 0.9162(6) 0.3494(5) 0.2182(5)
C24 C 0.3772(6) 0.1367(5) 0.0766(5)
C33 C 0.8948(6) 0.2531(6) 0.1720(5)
H24 H 0.9373 0.2212 0.1942
O17 O 0.9246(5) 0.6409(5) 0.6759(4)
C36 C 0.9857(11) 0.6071(6) 0.6830(6)
H50 H 0.946696 0.351393 0.540819
H51 H 0.987492 0.649599 0.478277
O2 O 0.6572(4) 0.2167(3) 0.9823(3)
O6 O 0.4100(4) 0.4126(4) 0.5629(3)
C5 C 0.4777(5) 0.0923(4) 0.8797(4)
C6 C 0.4082(6) 0.1292(5) 0.9384(4)
H2 H 0.4507 0.2018 0.9728
H3 H 0.3317 0.1167 0.9003
C9 C 0.4949(5) 0.1486(5) 0.8172(4)
H7 H 0.5315 0.2211 0.8529
H8 H 0.5466 0.1309 0.7815
C11 C 0.2473(6) 0.2040(6) 0.6083(5)
H9 H 0.1704 0.1864 0.5737
C12 C 0.2666(6) 0.1512(6) 0.6604(5)
H10 H 0.2022 0.0973 0.6599
C15 C 0.3750(5) 0.1758(5) 0.7113(4)
O9 O 0.3828(4) 0.1210(3) 0.7596(3)
C18 C 0.5944(6) 0.1121(5) 0.9363(4)
H14 H 0.5840 0.0804 0.9799
H15 H 0.6382 0.0843 0.8981
C22 C 0.3397(5) 0.2809(5) 0.6075(4)
C25 C 0.3229(6) 0.3388(5) 0.5534(4)
C30 C 0.4497(6) 0.3015(5) 0.6564(5)
H21 H 0.5150 0.3526 0.6542
C32 C 0.4689(6) 0.2506(5) 0.7088(4)
H23 H 0.5459 0.2672 0.7425
O13 O 0.3895(4) 0.0806(3) 0.9990(3)
O1 O 0.3490(3) 0.5342(3) 0.4636(3)
C8 C 0.4088(6) 0.9820(5) 0.8255(4)
H5 H 0.4080 0.9449 0.8647
H6 H 0.3270 0.9680 0.7966
C10 C 0.2886(6) 0.5558(5) 0.5144(4)
O10 O 0.4651(4) 0.9532(3) 0.7593(3)
C21 C 0.2833(6) 0.6855(5) 0.6461(5)
H18 H 0.2189 0.6368 0.6520
C26 C 0.3277(4) 0.6547(4) 0.5780(4)
C27 C 0.4697(6) 0.8327(5) 0.6338(5)
H19 H 0.5340 0.8823 0.6289
C28 C 0.4258(6) 0.7326(5) 0.5724(4)
H20 H 0.4613 0.7159 0.5261
C29 C 0.4163(6) 0.8579(5) 0.7028(5)
C31 C 0.3238(6) 0.7818(5) 0.7078(5)
H22 H 0.2882 0.7966 0.7544
H50_2 H 0.0533041 0.648607 0.459181
H51_2 H 0.0125084 0.350401 0.521723
H49_2 H 0.991762 0.667073 0.539141
H52_2 H 0.938154 0.316444 0.419089
loop_
_geom_bond_atom_site_label_1
_geom_bond_atom_site_label_2
_geom_bond_site_symmetry_1
_geom_bond_site_symmetry_2
Cu9 O34 1_555 1_555
O14 Mn4 1_555 1_555
H29 C41 1_555 1_555
H30 C41 1_555 1_555
C43 O14 1_555 1_555
O32 C41 1_555 1_555
C54 H42 1_555 1_555
C59 C43 1_555 1_555
C60 H43 1_555 1_555
O34 C43 1_555 1_555
C61 C59 1_555 1_555
H44 C61 1_555 1_555
C62 O32 1_555 1_555
C64 C54 1_555 1_555
H46 C64 1_555 1_555
C54 C59 1_555 1_555
C60 C61 1_555 1_555
C60 C62 1_555 1_555
C62 C64 1_555 1_555
Cu9 O28 1_555 1_555
Mn4 O24 1_555 1_555
O24 C58 1_555 1_555
O28 C58 1_555 1_555
C38 C39 1_555 1_555
C39 H26 1_555 1_555
H27 C39 1_555 1_555
C42 C38 1_555 1_555
H31 C42 1_555 1_555
H32 C42 1_555 1_555
C44 H33 1_555 1_555
C45 C44 1_555 1_555
H34 C45 1_555 1_555
C48 C45 1_555 1_555
O31 C42 1_555 1_555
C51 O16 1_555 1_555
H38 C51 1_555 1_555
H39 C51 1_555 1_555
C55 C44 1_555 1_555
C58 C55 1_555 1_555
C63 C55 1_555 1_555
H45 C63 1_555 1_555
C65 C48 1_555 1_555
H47 C65 1_555 1_555
O37 C39 1_555 1_555
C38 C51 1_555 1_555
C48 O31 1_555 1_555
C63 C65 1_555 1_555
Cu1 O3 1_555 1_555
O3 C3 1_555 1_555
Cu9 O21 1_555 1_555
Mn4 O18 1_555 1_555
O18 C35 1_555 1_555
O21 C35 1_555 1_555
O22 Cu1 1_555 1_555
O27 Cu2 1_555 1_555
O29 Cu1 1_555 1_555
C34 H25 1_555 1_555
C35 C37 1_555 1_555
C37 C40 1_555 1_555
C40 H28 1_555 1_555
C46 C34 1_555 1_555
C47 C46 1_555 1_555
H35 C47 1_555 1_555
C49 C40 1_555 1_555
H36 C49 1_555 1_555
C50 C34 1_555 1_555
H37 C50 1_555 1_555
C52 H40 1_555 1_555
C53 C37 1_555 1_555
H41 C53 1_555 1_555
O33 Cu2 1_555 1_555
C57 C49 1_555 1_555
O35 Cu1 1_555 1_555
C66 C47 1_555 1_555
H48 C66 1_555 1_555
C50 C56 1_555 1_555
C52 C53 1_555 1_555
C52 C57 1_555 1_555
C56 C66 1_555 1_555
O33 H52 1_555 1_555
Cu2_2 O7 1_555 1_555
O4 C2 1_555 1_555
O22 C2 1_555 1_555
C1 H1 1_555 1_555
C2 C4 1_555 1_555
C4 C7 1_555 1_555
C7 H4 1_555 1_555
C13 C1 1_555 1_555
C14 C13 1_555 1_555
H11 C14 1_555 1_555
C16 C7 1_555 1_555
H12 C16 1_555 1_555
C17 C1 1_555 1_555
H13 C17 1_555 1_555
C19 H16 1_555 1_555
C20 C4 1_555 1_555
H17 C20 1_555 1_555
O11 Cu2_2 1_555 1_555
C23 C17 1_555 1_555
C24 C16 1_555 1_555
C33 C14 1_555 1_555
H24 C33 1_555 1_555
Cu9 O17 1_555 1_555
Mn4 O4 1_555 1_555
O17 C36 1_555 1_555
C19 C20 1_555 1_555
C19 C24 1_555 1_555
C23 C33 1_555 1_555
O11 H50 1_555 1_555
O6 C25 1_555 1_555
O29 C25 1_555 1_555
C5 C6 1_555 1_555
C6 H2 1_555 1_555
H3 C6 1_555 1_555
C9 C5 1_555 1_555
H7 C9 1_555 1_555
H8 C9 1_555 1_555
C11 H9 1_555 1_555
C12 C11 1_555 1_555
H10 C12 1_555 1_555
C15 C12 1_555 1_555
O9 C9 1_555 1_555
C18 O2 1_555 1_555
H14 C18 1_555 1_555
H15 C18 1_555 1_555
C22 C11 1_555 1_555
C25 C22 1_555 1_555
C30 C22 1_555 1_555
H21 C30 1_555 1_555
C32 C15 1_555 1_555
H23 C32 1_555 1_555
O13 C6 1_555 1_555
Mn4 O6 1_555 1_555
C5 C18 1_555 1_555
C15 O9 1_555 1_555
C30 C32 1_555 1_555
O1 Mn4 1_555 1_555
H5 C8 1_555 1_555
H6 C8 1_555 1_555
C10 O1 1_555 1_555
O10 C8 1_555 1_555
C21 H18 1_555 1_555
C26 C10 1_555 1_555
C27 H19 1_555 1_555
O35 C10 1_555 1_555
C28 C26 1_555 1_555
H20 C28 1_555 1_555
C29 O10 1_555 1_555
C31 C21 1_555 1_555
H22 C31 1_555 1_555
C21 C26 1_555 1_555
C27 C28 1_555 1_555
C27 C29 1_555 1_555
C29 C31 1_555 1_555
O33 H50_2 1_555 1_555
O11 H52_2 1_555 1_555

#END
