
###############################################################################
#
# This file contains modified crystal structure data generated from the
# MOF subset of the Cambridge Structural Database (CSD) v543 
# hosted by the Cambridge Crystallographic Data Centre (CCDC).
#
# This work is licensed under the Creative Commons
# Attribution-NonCommercial-ShareAlike 4.0 International License.
# To view a copy of this license, visit
# http://creativecommons.org/licenses/by-nc-sa/4.0/
# or send a letter to
# Creative Commons, PO Box 1866, Mountain View, CA 94042, USA.
#
# CIF created using the CSD Python API on 29 September 2022
# The structure has been converted into the P1 space group
# The structure has a 3D framework
# The original CSD entry NEDVOJ is in the triclinic crystal system
# The framework has been calculated to contain at least 10.0% void space
# The void calculation uses a probe of radius 1.32A, grid spacing 0.4
# The framework is charged, counterions have been retained in the structure
# H atom positions have been added when not included in the experimental data
#
###############################################################################

data_NEDVOJ
_chemical_formula_moiety         '(C70 H64 Mn4 N2 O20)n'
_symmetry_cell_setting           triclinic
_symmetry_space_group_name_H-M   'P 1'
_symmetry_Int_Tables_number      1
_space_group_name_Hall           'P 1'
loop_
_symmetry_equiv_pos_site_id
_symmetry_equiv_pos_as_xyz
1 x,y,z
_cell_length_a                   11.7258(4)
_cell_length_b                   15.4489(6)
_cell_length_c                   16.7107(6)
_cell_angle_alpha                106.787(2)
_cell_angle_beta                 98.064(2)
_cell_angle_gamma                107.788(2)
_cell_volume                     2671.5
loop_
_atom_site_label
_atom_site_type_symbol
_atom_site_fract_x
_atom_site_fract_y
_atom_site_fract_z
C1 C 0.0371(5) 0.1547(5) 0.9107(4)
H1 H 0.0449 0.1776 0.8621
H2 H 0.1196 0.1673 0.9445
H56 H 0.0166991 0.0176402 0.847724
N1 N 0.9669(4) 0.0532(3) 0.8789(3)
H3 H 0.9951 0.1892 0.9475
C2 C 0.8459(6) 0.0269(4) 0.8180(3)
H4 H 0.7913 0.0513 0.8498
H6 H 0.8592 0.0561 0.7736
H55 H 0.950866 0.0320376 0.929694
H5 H 0.8077 0.9561 0.7906
H5_2 H 0.1923 0.0439 0.2094
N1_2 N 0.0331(4) 0.9468(3) 0.1211(3)
H3_2 H 0.0049 0.8108 0.0525
C2_2 C 0.1541(6) 0.9731(4) 0.1820(3)
H4_2 H 0.2087 0.9487 0.1502
H6_2 H 0.1408 0.9439 0.2264
H55_2 H 0.0491335 0.967962 0.0703056
C1_2 C 0.9629(5) 0.8453(5) 0.0893(4)
H1_2 H 0.9551 0.8224 0.1379
H2_2 H 0.8804 0.8327 0.0555
H56_2 H 0.983301 0.98236 0.152276
Mn13 Mn 0.18016(4) 0.88054(4) 0.89923(3)
O30 O 0.0657(2) 0.91797(19) 0.79845(16)
O33 O 0.0168(2) 0.76995(18) 0.80061(15)
C60 C 0.0063(3) 0.8277(3) 0.7625(2)
Mn6 Mn 0.5000 0.0000 0.0000
Mn10 Mn 0.81984(4) 0.11946(4) 0.10077(3)
Mn6_2 Mn 0.5000 0.0000 1.0000
O4 O 0.8543(2) 0.99552(18) 0.00368(15)
O5 O 0.6722(2) 0.96953(16) 0.03299(13)
O8 O 0.8171(2) 0.19120(18) 0.01034(16)
Mn6_3 Mn 0.5000 1.0000 0.0000
O1 O 0.5153(2) 0.0717(2) 0.13407(14)
C3 C 0.6080(4) 0.1363(3) 0.1918(2)
O2 O 0.7172(2) 0.15688(19) 0.18700(15)
O3 O 0.5023(4) 0.3005(4) 0.5030(2)
O6 O 0.5551(3) 0.5547(2) 0.7592(2)
O7 O 0.6146(3) 0.13307(19) 0.99440(17)
C4 C 0.5843(9) 0.1806(5) 0.2744(6)
C5 C 0.6778(10) 0.2534(8) 0.3432(8)
H7 H 0.7598 0.2738 0.3365
O9 O 0.6395(2) 0.3650(2) 0.73772(17)
C6 C 0.6551(7) 0.2977(5) 0.4217(5)
H8 H 0.7197 0.3472 0.4684
C7 C 0.5360(6) 0.2664(5) 0.4281(4)
C8 C 0.4386(7) 0.1931(5) 0.3615(4)
H9 H 0.3569 0.1731 0.3689
O12 O 0.3174(3) 0.3176(2) 0.56752(19)
C9 C 0.4643(7) 0.1498(5) 0.2838(4)
H10 H 0.3998 0.0994 0.2376
C10 C 0.5832(12) 0.3753(13) 0.5702(10)
H11 H 0.6243 0.4275 0.5492
H12 H 0.6476 0.3541 0.5941
C11 C 0.7445(3) 0.9397(3) 0.9921(2)
C12 C 0.6980(3) 0.8371(3) 0.9311(2)
C13 C 0.7721(4) 0.8045(3) 0.8817(2)
H13 H 0.8536 0.8468 0.8880
C14 C 0.7273(4) 0.7095(3) 0.8227(3)
H14 H 0.7773 0.6870 0.7880
C15 C 0.6092(4) 0.6488(3) 0.8154(3)
C16 C 0.5367(4) 0.6805(3) 0.8667(3)
H15 H 0.4567 0.6373 0.8626
C17 C 0.5804(4) 0.7750(3) 0.9238(2)
H16 H 0.5299 0.7973 0.9579
C18 C 0.6126(4) 0.5210(3) 0.6937(2)
H17 H 0.6960 0.5246 0.7197
H18 H 0.6210 0.5609 0.6564
C19 C 0.7080(3) 0.1817(3) 0.9770(2)
C20 C 0.6902(3) 0.2312(3) 0.9148(2)
C21 C 0.5713(4) 0.2215(3) 0.8786(3)
H19 H 0.5033 0.1837 0.8939
C22 C 0.5502(4) 0.2664(3) 0.8202(3)
H20 H 0.4688 0.2615 0.7972
C23 C 0.6501(4) 0.3186(3) 0.7958(2)
C24 C 0.7679(4) 0.3262(3) 0.8300(3)
H21 H 0.8357 0.3614 0.8127
C25 C 0.7878(3) 0.2830(3) 0.8888(3)
H22 H 0.8696 0.2887 0.9121
C26 C 0.5179(4) 0.3568(3) 0.7009(2)
H23 H 0.4791 0.3817 0.7469
H24 H 0.4660 0.2881 0.6672
C28 C 0.0763(3) 0.2115(3) 0.3262(2)
C29 C 0.1275(3) 0.3107(3) 0.3707(2)
H25 H 0.1086 0.3536 0.3449
C30 C 0.2057(4) 0.3478(3) 0.4522(2)
H26 H 0.2377 0.4158 0.4829
C31 C 0.2374(4) 0.2879(3) 0.4891(2)
C32 C 0.1846(4) 0.1873(3) 0.4459(3)
H27 H 0.2041 0.1449 0.4720
C33 C 0.1045(4) 0.1503(3) 0.3657(3)
H28 H 0.0680 0.0819 0.3368
C34 C 0.4022(4) 0.4141(3) 0.6043(2)
H29 H 0.3733 0.4516 0.6503
H30 H 0.4070 0.4444 0.5595
C35 C 0.5302(3) 0.4173(2) 0.64207(19)
Mn6_4 Mn 0.5000 1.0000 1.0000
O31 O 0.9343(2) 0.08203(19) 0.20155(16)
O34 O 0.9832(2) 0.23005(18) 0.19939(15)
O18 O 0.1457(2) 0.00448(18) 0.99632(15)
O21 O 0.3278(2) 0.03047(16) 0.96701(13)
O25 O 0.3854(3) 0.86693(19) 0.00560(17)
O13 O 0.4847(2) 0.9283(2) 0.86593(14)
C36 C 0.3920(4) 0.8637(3) 0.8082(2)
O14 O 0.2828(2) 0.84312(19) 0.81300(15)
O15 O 0.4977(4) 0.6995(4) 0.4970(2)
O22 O 0.4449(3) 0.4453(2) 0.2408(2)
C37 C 0.4157(9) 0.8194(5) 0.7256(6)
O28 O 0.1829(2) 0.80880(18) 0.98966(16)
C38 C 0.3222(10) 0.7466(8) 0.6568(8)
H31 H 0.2402 0.7262 0.6635
O29 O 0.3605(2) 0.6350(2) 0.26228(17)
C39 C 0.3449(7) 0.7023(5) 0.5783(5)
H32 H 0.2803 0.6528 0.5316
C40 C 0.4640(6) 0.7336(5) 0.5719(4)
C41 C 0.5614(7) 0.8069(5) 0.6385(4)
H33 H 0.6431 0.8269 0.6311
O36 O 0.6826(3) 0.6824(2) 0.43248(19)
C42 C 0.5357(7) 0.8502(5) 0.7162(4)
H34 H 0.6002 0.9006 0.7624
C43 C 0.4168(12) 0.6247(13) 0.4298(10)
H35 H 0.3757 0.5725 0.4508
H36 H 0.3524 0.6459 0.4059
C44 C 0.2555(3) 0.0603(3) 0.0079(2)
C45 C 0.3020(3) 0.1629(3) 0.0689(2)
C46 C 0.2279(4) 0.1955(3) 0.1183(2)
H37 H 0.1464 0.1532 0.1120
C47 C 0.2727(4) 0.2905(3) 0.1773(3)
H38 H 0.2227 0.3130 0.2120
C48 C 0.3908(4) 0.3512(3) 0.1846(3)
C49 C 0.4633(4) 0.3195(3) 0.1333(3)
H39 H 0.5433 0.3627 0.1374
C50 C 0.4196(4) 0.2250(3) 0.0762(2)
H40 H 0.4701 0.2027 0.0421
C51 C 0.3874(4) 0.4790(3) 0.3063(2)
H41 H 0.3040 0.4754 0.2803
H42 H 0.3790 0.4391 0.3436
C52 C 0.2920(3) 0.8183(3) 0.0230(2)
C53 C 0.3098(3) 0.7688(3) 0.0852(2)
C54 C 0.4287(4) 0.7785(3) 0.1214(3)
H43 H 0.4967 0.8163 0.1061
C55 C 0.4498(4) 0.7336(3) 0.1798(3)
H44 H 0.5312 0.7385 0.2028
C56 C 0.3499(4) 0.6814(3) 0.2042(2)
C57 C 0.2321(4) 0.6738(3) 0.1700(3)
H45 H 0.1643 0.6386 0.1873
C58 C 0.2122(3) 0.7170(3) 0.1112(3)
H46 H 0.1304 0.7113 0.0879
C59 C 0.4821(4) 0.6432(3) 0.2991(2)
H47 H 0.5209 0.6183 0.2531
H48 H 0.5340 0.7119 0.3328
C61 C 0.9237(3) 0.7885(3) 0.6738(2)
C62 C 0.8725(3) 0.6893(3) 0.6293(2)
H49 H 0.8914 0.6464 0.6551
C63 C 0.7943(4) 0.6522(3) 0.5478(2)
H50 H 0.7623 0.5842 0.5171
C64 C 0.7626(4) 0.7121(3) 0.5109(2)
C65 C 0.8154(4) 0.8127(3) 0.5541(3)
H51 H 0.7959 0.8551 0.5280
C66 C 0.8955(4) 0.8497(3) 0.6343(3)
H52 H 0.9320 0.9181 0.6632
C67 C 0.5978(4) 0.5859(3) 0.3957(2)
H53 H 0.6267 0.5484 0.3497
H54 H 0.5930 0.5556 0.4405
C68 C 0.4698(3) 0.5827(2) 0.35793(19)
C27 C 0.9937(3) 0.1723(3) 0.2375(2)
loop_
_geom_bond_atom_site_label_1
_geom_bond_atom_site_label_2
_geom_bond_site_symmetry_1
_geom_bond_site_symmetry_2
C1 H1 1_555 1_555
H2 C1 1_555 1_555
C2 N1 1_555 1_555
H4 C2 1_555 1_555
H6 C2 1_555 1_555
N1 H55 1_555 1_555
C2_2 N1_2 1_555 1_555
H4_2 C2_2 1_555 1_555
H6_2 C2_2 1_555 1_555
N1_2 H55_2 1_555 1_555
C1_2 H1_2 1_555 1_555
H2_2 C1_2 1_555 1_555
Mn13 O30 1_555 1_555
O30 C60 1_555 1_555
O33 Mn13 1_555 1_555
C60 O33 1_555 1_555
Mn6_3 O5 1_555 1_555
Mn10 O8 1_555 1_555
Mn6 O1 1_555 1_555
O1 C3 1_555 1_555
C3 O2 1_555 1_555
Mn10 O2 1_555 1_555
O3 C7 1_555 1_555
O6 C15 1_555 1_555
O7 C19 1_555 1_555
C4 C3 1_555 1_555
C5 C4 1_555 1_555
H7 C5 1_555 1_555
O9 C23 1_555 1_555
C6 C5 1_555 1_555
H8 C6 1_555 1_555
C7 C6 1_555 1_555
C8 C7 1_555 1_555
H9 C8 1_555 1_555
O12 C31 1_555 1_555
C9 C4 1_555 1_555
H10 C9 1_555 1_555
C10 O3 1_555 1_555
H11 C10 1_555 1_555
H12 C10 1_555 1_555
C11 C12 1_555 1_555
C12 C13 1_555 1_555
C13 H13 1_555 1_555
C14 C13 1_555 1_555
H14 C14 1_555 1_555
C15 C14 1_555 1_555
C16 C15 1_555 1_555
H15 C16 1_555 1_555
C17 C12 1_555 1_555
H16 C17 1_555 1_555
C18 O6 1_555 1_555
H17 C18 1_555 1_555
H18 C18 1_555 1_555
C19 C20 1_555 1_555
C20 C21 1_555 1_555
C21 H19 1_555 1_555
C22 C21 1_555 1_555
H20 C22 1_555 1_555
C23 C22 1_555 1_555
C24 C23 1_555 1_555
H21 C24 1_555 1_555
C25 C20 1_555 1_555
H22 C25 1_555 1_555
C26 O9 1_555 1_555
H23 C26 1_555 1_555
H24 C26 1_555 1_555
C28 C29 1_555 1_555
C29 H25 1_555 1_555
C30 C29 1_555 1_555
H26 C30 1_555 1_555
C31 C30 1_555 1_555
C32 C31 1_555 1_555
H27 C32 1_555 1_555
C33 C28 1_555 1_555
H28 C33 1_555 1_555
C34 O12 1_555 1_555
H29 C34 1_555 1_555
H30 C34 1_555 1_555
C35 C10 1_555 1_555
Mn6_2 O7 1_555 1_555
O31 Mn10 1_555 1_555
O34 Mn10 1_555 1_555
C8 C9 1_555 1_555
C16 C17 1_555 1_555
C18 C35 1_555 1_555
C24 C25 1_555 1_555
C26 C35 1_555 1_555
C32 C33 1_555 1_555
C34 C35 1_555 1_555
O21 Mn6_2 1_555 1_555
O25 Mn6_3 1_555 1_555
O13 Mn6_4 1_555 1_555
C36 O13 1_555 1_555
Mn13 O14 1_555 1_555
O14 C36 1_555 1_555
O15 C40 1_555 1_555
O22 C48 1_555 1_555
O25 C52 1_555 1_555
C37 C36 1_555 1_555
O28 Mn13 1_555 1_555
C38 C37 1_555 1_555
H31 C38 1_555 1_555
O29 C56 1_555 1_555
C39 C38 1_555 1_555
H32 C39 1_555 1_555
C40 C39 1_555 1_555
C41 C40 1_555 1_555
H33 C41 1_555 1_555
O36 C64 1_555 1_555
C42 C37 1_555 1_555
H34 C42 1_555 1_555
C43 O15 1_555 1_555
H35 C43 1_555 1_555
H36 C43 1_555 1_555
C45 C44 1_555 1_555
C46 C45 1_555 1_555
H37 C46 1_555 1_555
C47 C46 1_555 1_555
H38 C47 1_555 1_555
C48 C47 1_555 1_555
C49 C48 1_555 1_555
H39 C49 1_555 1_555
C50 C45 1_555 1_555
H40 C50 1_555 1_555
C51 O22 1_555 1_555
H41 C51 1_555 1_555
H42 C51 1_555 1_555
C52 C53 1_555 1_555
C53 C54 1_555 1_555
C54 H43 1_555 1_555
C55 C54 1_555 1_555
H44 C55 1_555 1_555
C56 C55 1_555 1_555
C57 C56 1_555 1_555
H45 C57 1_555 1_555
C58 C53 1_555 1_555
H46 C58 1_555 1_555
C59 O29 1_555 1_555
H47 C59 1_555 1_555
H48 C59 1_555 1_555
C62 C61 1_555 1_555
H49 C62 1_555 1_555
C63 C62 1_555 1_555
H50 C63 1_555 1_555
C64 C63 1_555 1_555
C65 C64 1_555 1_555
H51 C65 1_555 1_555
C66 C61 1_555 1_555
H52 C66 1_555 1_555
C67 O36 1_555 1_555
H53 C67 1_555 1_555
H54 C67 1_555 1_555
C68 C43 1_555 1_555
C41 C42 1_555 1_555
C49 C50 1_555 1_555
C51 C68 1_555 1_555
C57 C58 1_555 1_555
C59 C68 1_555 1_555
C65 C66 1_555 1_555
C67 C68 1_555 1_555
O31 C27 1_555 1_555
O34 C27 1_555 1_555

#END
