
###############################################################################
#
# This file contains modified crystal structure data generated from the
# MOF subset of the Cambridge Structural Database (CSD) v543 
# hosted by the Cambridge Crystallographic Data Centre (CCDC).
#
# This work is licensed under the Creative Commons
# Attribution-NonCommercial-ShareAlike 4.0 International License.
# To view a copy of this license, visit
# http://creativecommons.org/licenses/by-nc-sa/4.0/
# or send a letter to
# Creative Commons, PO Box 1866, Mountain View, CA 94042, USA.
#
# CIF created using the CSD Python API on 29 September 2022
# The structure has been converted into the P1 space group
# The structure has a 3D framework
# The original CSD entry NEDWEA is in the triclinic crystal system
# The framework has been calculated to contain at least 10.0% void space
# The void calculation uses a probe of radius 1.32A, grid spacing 0.4
# H atom positions have been added when not included in the experimental data
# Generated hydrogen atom positions removed from atoms on special positions
#
###############################################################################

data_NEDWEA
_chemical_formula_moiety         '(C66 H56 Co4 Mn1 O24)n'
_symmetry_cell_setting           triclinic
_symmetry_space_group_name_H-M   'P 1'
_symmetry_Int_Tables_number      1
_space_group_name_Hall           'P 1'
loop_
_symmetry_equiv_pos_site_id
_symmetry_equiv_pos_as_xyz
1 x,y,z
_cell_length_a                   12.6594(4)
_cell_length_b                   15.0271(5)
_cell_length_c                   17.0317(6)
_cell_angle_alpha                108.009(2)
_cell_angle_beta                 101.050(2)
_cell_angle_gamma                106.050(2)
_cell_volume                     2821.74
loop_
_atom_site_label
_atom_site_type_symbol
_atom_site_fract_x
_atom_site_fract_y
_atom_site_fract_z
Co11 Co -0.0000 0.5000 0.5000
Co3 Co 0.78491(4) 0.62755(3) 0.58522(3)
O14 O 0.67331(18) 0.48238(17) 0.52227(15)
Mn4 Mn 0.5000 0.5000 0.5000
Co11_2 Co 1.0000 0.5000 0.5000
C34 C 0.6743(3) 0.3439(3) 0.4069(2)
C35 C 0.7168(3) 0.3118(3) 0.3403(2)
H25 H 0.7825 0.3573 0.3361
C36 C 0.6672(3) 0.2145(3) 0.2780(2)
H26 H 0.6987 0.1939 0.2321
C37 C 0.5250(3) 0.1793(3) 0.3506(2)
H27 H 0.4587 0.1335 0.3539
C38 C 0.5750(3) 0.2764(3) 0.4122(2)
H28 H 0.5432 0.2976 0.4577
O24 O 0.9379(2) 0.6701(2) 0.66717(18)
O26 O 0.7750(2) 0.6985(2) 0.50406(18)
O32 O 0.7260(2) 0.69234(19) 0.67585(17)
O34 O 0.82392(19) 0.50457(18) 0.47484(17)
C62 C 0.5720(3) 0.1488(3) 0.2837(2)
O38 O 0.5150(2) 0.05193(17) 0.22698(16)
C63 C 0.5681(3) 0.0123(3) 0.1638(2)
H47 H 0.6491 0.0236 0.1926
H48 H 0.5677 0.0459 0.1221
C65 C 0.7269(3) 0.4471(3) 0.4705(2)
O15 O 0.32669(18) 0.51762(17) 0.47773(15)
O16 O 0.5873(2) 0.63249(18) 0.48221(16)
O17 O 0.4127(2) 0.36751(18) 0.51779(16)
O20 O 0.5989(2) 0.8722(2) 0.23467(18)
O21 O 0.3188(3) 0.7790(2) 0.01774(19)
O28 O 0.5472(2) 0.57878(18) 0.63518(15)
O29 O 0.4528(2) 0.42122(18) 0.36482(15)
C39 C 0.4992(3) 0.9007(3) 0.1169(2)
C40 C 0.6499(3) 0.7353(3) 0.4083(3)
C41 C 0.7413(3) 0.8015(4) 0.3965(3)
H29 H 0.8181 0.8171 0.4298
C42 C 0.7216(4) 0.8448(4) 0.3373(3)
H30 H 0.7847 0.8876 0.3280
C43 C 0.6101(3) 0.8256(3) 0.2915(3)
C44 C 0.4853(3) 0.8502(3) 0.1815(2)
H31 H 0.4396 0.8765 0.2175
H32 H 0.4452 0.7768 0.1505
C45 C 0.3801(3) 0.8861(3) 0.0635(3)
H33 H 0.3383 0.9153 0.1018
H34 H 0.3868 0.9194 0.0219
C52 C 0.5623(4) 0.8527(3) 0.0594(2)
H39 H 0.6400 0.8641 0.0952
H40 H 0.5195 0.7795 0.0309
C53 C 0.5185(3) 0.7628(3) 0.3036(2)
H41 H 0.4416 0.7507 0.2728
C54 C 0.5397(3) 0.7171(3) 0.3616(3)
H42 H 0.4764 0.6723 0.3691
C66 C 0.6718(3) 0.6855(3) 0.4687(2)
O18 O 0.0073(2) 0.5476(2) 0.63282(17)
C46 C 0.2375(4) 0.7467(3) 0.9398(3)
C47 C 0.2105(4) 0.6476(3) 0.8872(3)
H35 H 0.2439 0.6066 0.9077
C48 C 0.1348(3) 0.6090(3) 0.8047(3)
H36 H 0.1198 0.5423 0.7671
C49 C 0.0807(3) 0.6661(3) 0.7764(3)
C50 C 0.1026(3) 0.7636(3) 0.8310(3)
H37 H 0.0628 0.8021 0.8123
C51 C 0.1839(4) 0.8059(3) 0.9144(3)
H38 H 0.2012 0.8732 0.9517
O37 O 0.5731(3) 0.8941(2) 0.99539(18)
C55 C 0.6310(3) 0.6576(3) 0.6876(2)
C56 C 0.6147(3) 0.7185(3) 0.7699(2)
C57 C 0.5213(4) 0.6823(3) 0.7946(3)
H43 H 0.4651 0.6178 0.7592
C58 C 0.5071(4) 0.7389(3) 0.8716(3)
H44 H 0.4423 0.7130 0.8892
C59 C 0.5884(4) 0.8324(3) 0.9212(3)
C60 C 0.6828(4) 0.8709(3) 0.8964(3)
H45 H 0.7376 0.9363 0.9310
C61 C 0.6971(4) 0.8144(3) 0.8218(3)
H46 H 0.7628 0.8400 0.8052
C64 C 0.0009(3) 0.6237(3) 0.6842(3)
O10 O 0.0637(3) 0.6499(2) 0.5073(2)
O36 O 0.17608(19) 0.49543(18) 0.52516(17)
O19 O 0.9927(2) 0.4524(2) 0.36718(17)
O33 O 0.9363(3) 0.3501(2) 0.4927(2)
O6 O 0.0621(2) 0.3299(2) 0.33283(18)
Co4 Co 0.21509(4) 0.37245(3) 0.41478(3)
O9 O 0.2740(2) 0.30766(19) 0.32415(17)
C13 C 0.7625(4) 0.2533(3) 0.0602(3)
C14 C 0.7895(4) 0.3524(3) 0.1128(3)
H11 H 0.7561 0.3934 0.0923
C15 C 0.8652(3) 0.3910(3) 0.1953(3)
H12 H 0.8802 0.4577 0.2329
C16 C 0.9193(3) 0.3339(3) 0.2236(3)
C17 C 0.8974(3) 0.2364(3) 0.1690(3)
H13 H 0.9372 0.1979 0.1877
C18 C 0.8161(4) 0.1941(3) 0.0856(3)
H14 H 0.7988 0.1268 0.0483
O12 O 0.4269(3) 0.1059(2) 0.00461(18)
C22 C 0.3690(3) 0.3424(3) 0.3124(2)
C23 C 0.3853(3) 0.2815(3) 0.2301(2)
C24 C 0.4787(4) 0.3177(3) 0.2054(3)
H19 H 0.5349 0.3822 0.2408
C25 C 0.4929(4) 0.2611(3) 0.1284(3)
H20 H 0.5577 0.2870 0.1108
C26 C 0.4116(4) 0.1676(3) 0.0788(3)
C27 C 0.3172(4) 0.1291(3) 0.1036(3)
H21 H 0.2624 0.0637 0.0690
C28 C 0.3029(4) 0.1856(3) 0.1782(3)
H22 H 0.2372 0.1600 0.1948
C31 C 0.9991(3) 0.3763(3) 0.3158(3)
O4 O 0.4011(2) 0.1278(2) 0.76533(18)
O5 O 0.6812(3) 0.2210(2) 0.98226(19)
O7 O 0.2250(2) 0.3015(2) 0.49594(18)
C6 C 0.5008(3) 0.0993(3) 0.8831(2)
C7 C 0.3501(3) 0.2647(3) 0.5917(3)
C8 C 0.2587(3) 0.1985(4) 0.6035(3)
H5 H 0.1819 0.1829 0.5702
C9 C 0.2784(4) 0.1552(4) 0.6627(3)
H6 H 0.2153 0.1124 0.6720
C10 C 0.3899(3) 0.1744(3) 0.7085(3)
C11 C 0.5147(3) 0.1498(3) 0.8185(2)
H7 H 0.5604 0.1235 0.7825
H8 H 0.5548 0.2232 0.8495
C12 C 0.6199(3) 0.1139(3) 0.9365(3)
H9 H 0.6617 0.0847 0.8982
H10 H 0.6132 0.0806 0.9781
C19 C 0.4377(4) 0.1473(3) 0.9406(2)
H15 H 0.3600 0.1359 0.9048
H16 H 0.4805 0.2205 0.9691
C20 C 0.4815(3) 0.2372(3) 0.6964(2)
H17 H 0.5584 0.2493 0.7272
C21 C 0.4603(3) 0.2829(3) 0.6384(3)
H18 H 0.5236 0.3277 0.6309
C33 C 0.3282(3) 0.3145(3) 0.5313(2)
C1 C 0.3257(3) 0.6561(3) 0.5931(2)
C2 C 0.2832(3) 0.6882(3) 0.6597(2)
H1 H 0.2175 0.6427 0.6639
C3 C 0.3328(3) 0.7855(3) 0.7220(2)
H2 H 0.3013 0.8061 0.7679
C4 C 0.4750(3) 0.8207(3) 0.6494(2)
H3 H 0.5413 0.8665 0.6461
C5 C 0.4250(3) 0.7236(3) 0.5878(2)
H4 H 0.4568 0.7024 0.5423
C29 C 0.4280(3) 0.8512(3) 0.7163(2)
O13 O 0.4850(2) 0.94807(17) 0.77302(16)
C30 C 0.4319(3) 0.9877(3) 0.8362(2)
H23 H 0.3509 0.9764 0.8074
H24 H 0.4323 0.9541 0.8779
C32 C 0.2731(3) 0.5529(3) 0.5295(2)
loop_
_geom_bond_atom_site_label_1
_geom_bond_atom_site_label_2
_geom_bond_site_symmetry_1
_geom_bond_site_symmetry_2
Co3 O14 1_555 1_555
O14 Mn4 1_555 1_555
Co11_2 O34 1_555 1_555
C34 C35 1_555 1_555
C35 H25 1_555 1_555
C36 C35 1_555 1_555
H26 C36 1_555 1_555
C37 H27 1_555 1_555
C38 C34 1_555 1_555
H28 C38 1_555 1_555
O24 Co3 1_555 1_555
O26 Co3 1_555 1_555
O32 Co3 1_555 1_555
O34 C65 1_555 1_555
C62 C36 1_555 1_555
O38 C62 1_555 1_555
H47 C63 1_555 1_555
H48 C63 1_555 1_555
C65 O14 1_555 1_555
C34 C65 1_555 1_555
C37 C38 1_555 1_555
C37 C62 1_555 1_555
O38 C63 1_555 1_555
Mn4 O15 1_555 1_555
O16 Mn4 1_555 1_555
O17 Mn4 1_555 1_555
O20 C43 1_555 1_555
O21 C45 1_555 1_555
O28 Mn4 1_555 1_555
O29 Mn4 1_555 1_555
C39 C44 1_555 1_555
C40 C41 1_555 1_555
C41 H29 1_555 1_555
C42 C41 1_555 1_555
H30 C42 1_555 1_555
C43 C42 1_555 1_555
C44 O20 1_555 1_555
H31 C44 1_555 1_555
H32 C44 1_555 1_555
C45 C39 1_555 1_555
H33 C45 1_555 1_555
H34 C45 1_555 1_555
C52 C39 1_555 1_555
H39 C52 1_555 1_555
H40 C52 1_555 1_555
C53 C43 1_555 1_555
H41 C53 1_555 1_555
C54 C40 1_555 1_555
H42 C54 1_555 1_555
C66 O16 1_555 1_555
O26 C66 1_555 1_555
C40 C66 1_555 1_555
C53 C54 1_555 1_555
O18 Co11 1_555 1_555
O28 C55 1_555 1_555
O32 C55 1_555 1_555
C47 C46 1_555 1_555
H35 C47 1_555 1_555
C48 C47 1_555 1_555
H36 C48 1_555 1_555
C49 C48 1_555 1_555
C50 C49 1_555 1_555
H37 C50 1_555 1_555
C51 C46 1_555 1_555
H38 C51 1_555 1_555
C55 C56 1_555 1_555
C56 C57 1_555 1_555
C57 H43 1_555 1_555
C58 C57 1_555 1_555
H44 C58 1_555 1_555
C59 O37 1_555 1_555
C60 C59 1_555 1_555
H45 C60 1_555 1_555
C61 C56 1_555 1_555
H46 C61 1_555 1_555
C64 O18 1_555 1_555
C49 C64 1_555 1_555
C50 C51 1_555 1_555
C58 C59 1_555 1_555
C60 C61 1_555 1_555
Co11 O10 1_555 1_555
O36 Co11 1_555 1_555
O19 Co11_2 1_555 1_555
O33 Co11_2 1_555 1_555
Co4 O6 1_555 1_555
O29 C22 1_555 1_555
O9 C22 1_555 1_555
C14 C13 1_555 1_555
H11 C14 1_555 1_555
C15 C14 1_555 1_555
H12 C15 1_555 1_555
C16 C15 1_555 1_555
C17 C16 1_555 1_555
H13 C17 1_555 1_555
C18 C13 1_555 1_555
H14 C18 1_555 1_555
C22 C23 1_555 1_555
C23 C24 1_555 1_555
C24 H19 1_555 1_555
C25 C24 1_555 1_555
H20 C25 1_555 1_555
C26 O12 1_555 1_555
C27 C26 1_555 1_555
H21 C27 1_555 1_555
C28 C23 1_555 1_555
H22 C28 1_555 1_555
C31 O19 1_555 1_555
Co4 O9 1_555 1_555
C16 C31 1_555 1_555
C17 C18 1_555 1_555
C25 C26 1_555 1_555
C27 C28 1_555 1_555
O17 C33 1_555 1_555
O4 C10 1_555 1_555
O5 C12 1_555 1_555
O7 C33 1_555 1_555
C6 C11 1_555 1_555
C7 C8 1_555 1_555
C8 H5 1_555 1_555
C9 C8 1_555 1_555
H6 C9 1_555 1_555
C10 C9 1_555 1_555
C11 O4 1_555 1_555
H7 C11 1_555 1_555
H8 C11 1_555 1_555
C12 C6 1_555 1_555
H9 C12 1_555 1_555
H10 C12 1_555 1_555
C19 C6 1_555 1_555
H15 C19 1_555 1_555
H16 C19 1_555 1_555
C20 C10 1_555 1_555
H17 C20 1_555 1_555
C21 C7 1_555 1_555
H18 C21 1_555 1_555
C33 C7 1_555 1_555
Co4 O7 1_555 1_555
C20 C21 1_555 1_555
Co4 O15 1_555 1_555
C1 C2 1_555 1_555
C2 H1 1_555 1_555
C3 C2 1_555 1_555
H2 C3 1_555 1_555
C4 H3 1_555 1_555
C5 C1 1_555 1_555
H4 C5 1_555 1_555
O36 C32 1_555 1_555
C29 C3 1_555 1_555
O13 C29 1_555 1_555
H23 C30 1_555 1_555
H24 C30 1_555 1_555
C32 O15 1_555 1_555
C1 C32 1_555 1_555
C4 C5 1_555 1_555
C4 C29 1_555 1_555
O13 C30 1_555 1_555

#END
