
###############################################################################
#
# This file contains modified crystal structure data generated from the
# MOF subset of the Cambridge Structural Database (CSD) v543 
# hosted by the Cambridge Crystallographic Data Centre (CCDC).
#
# This work is licensed under the Creative Commons
# Attribution-NonCommercial-ShareAlike 4.0 International License.
# To view a copy of this license, visit
# http://creativecommons.org/licenses/by-nc-sa/4.0/
# or send a letter to
# Creative Commons, PO Box 1866, Mountain View, CA 94042, USA.
#
# CIF created using the CSD Python API on 29 September 2022
# The structure has been converted into the P1 space group
# The structure has a 3D framework
# The original CSD entry NEDWAW is in the triclinic crystal system
# The framework has been calculated to contain at least 10.0% void space
# The void calculation uses a probe of radius 1.32A, grid spacing 0.4
#
###############################################################################

data_NEDWAW
_chemical_formula_moiety         '(C66 H48 Mn3 O24)n'
_symmetry_cell_setting           triclinic
_symmetry_space_group_name_H-M   'P 1'
_symmetry_Int_Tables_number      1
_space_group_name_Hall           'P 1'
loop_
_symmetry_equiv_pos_site_id
_symmetry_equiv_pos_as_xyz
1 x,y,z
_cell_length_a                   13.4319(4)
_cell_length_b                   16.2160(4)
_cell_length_c                   16.2911(4)
_cell_angle_alpha                108.0990(10)
_cell_angle_beta                 102.652(2)
_cell_angle_gamma                106.188(2)
_cell_volume                     3052.14
loop_
_atom_site_label
_atom_site_type_symbol
_atom_site_fract_x
_atom_site_fract_y
_atom_site_fract_z
_atom_site_U_iso_or_equiv
_atom_site_thermal_displace_type
Mn2 Mn 0.79512(5) 0.62201(4) 0.60064(4) 0.0352 Uani
O4 O 0.5517(2) 0.06821(18) 0.25455(17) 0.0417 Uani
O6 O 0.8034(2) 0.50394(19) 0.49016(18) 0.0472 Uani
O8 O 0.6588(2) 0.47834(17) 0.53302(15) 0.0343 Uani
C10 C 0.6741(3) 0.3485(3) 0.4255(2) 0.0348 Uani
C11 C 0.7314(3) 0.3158(3) 0.3686(3) 0.0389 Uani
H7 H 0.7969 0.3584 0.3694 0.0470 Uiso
C16 C 0.6937(3) 0.2223(3) 0.3115(2) 0.0389 Uani
H13 H 0.7338 0.2007 0.2741 0.0470 Uiso
C18 C 0.5977(3) 0.1607(3) 0.3090(2) 0.0373 Uani
C19 C 0.5789(3) 0.2843(3) 0.4233(2) 0.0394 Uani
H15 H 0.5399 0.3048 0.4624 0.0470 Uiso
C20 C 0.5405(3) 0.1921(3) 0.3656(2) 0.0397 Uani
H16 H 0.4747 0.1493 0.3643 0.0480 Uiso
C25 C 0.7137(3) 0.4479(3) 0.4839(2) 0.0345 Uani
C28 C 0.6065(3) 0.0306(3) 0.1954(2) 0.0321 Uani
H18 H 0.6809 0.0394 0.2317 0.0380 Uiso
H19 H 0.6138 0.0626 0.1529 0.0380 Uiso
Mn3 Mn 0.5000 0.5000 0.5000 0.0283 Uani
O21 O 0.7241(2) 0.6686(2) 0.69599(18) 0.0573 Uani
O28 O 0.9618(2) 0.7312(2) 0.68537(19) 0.0539 Uani
O31 O 0.9158(2) 0.5972(2) 0.70162(19) 0.0561 Uani
O34 O 0.7570(2) 0.6911(2) 0.51696(19) 0.0523 Uani
O2 O 0.3652(2) 0.81839(19) 0.03119(19) 0.0521 Uani
C2 C 0.5960(3) 0.8797(3) 0.0854(2) 0.0395 Uani
H1 H 0.6702 0.8920 0.1254 0.0480 Uiso
H2 H 0.5545 0.8112 0.0569 0.0480 Uiso
O3 O 0.6059(2) 0.91491(18) 0.01401(16) 0.0455 Uani
O5 O 0.6223(2) 0.89393(19) 0.26574(17) 0.0447 Uani
O9 O 0.5743(2) 0.61737(18) 0.46817(17) 0.0391 Uani
C7 C 0.5332(3) 0.7857(3) 0.3260(3) 0.0399 Uani
H6 H 0.4621 0.7823 0.2961 0.0490 Uiso
C8 C 0.6251(3) 0.8423(3) 0.3182(3) 0.0426 Uani
C12 C 0.5371(3) 0.9272(2) 0.1420(2) 0.0308 Uani
C13 C 0.5458(3) 0.7342(3) 0.3777(3) 0.0376 Uani
H8 H 0.4823 0.6949 0.3828 0.0450 Uiso
C14 C 0.4284(3) 0.9160(3) 0.0807(3) 0.0384 Uani
H9 H 0.3890 0.9458 0.1178 0.0460 Uiso
H10 H 0.4402 0.9463 0.0376 0.0460 Uiso
C15 C 0.5173(3) 0.8786(3) 0.2062(2) 0.0372 Uani
H11 H 0.4747 0.9046 0.2425 0.0440 Uiso
H12 H 0.4750 0.8108 0.1706 0.0440 Uiso
C26 C 0.6600(3) 0.6773(3) 0.4737(2) 0.0369 Uani
C27 C 0.6476(3) 0.7379(3) 0.4221(2) 0.0360 Uani
C32 C 0.7273(3) 0.8503(3) 0.3651(3) 0.0605 Uani
H23 H 0.7905 0.8930 0.3629 0.0730 Uiso
C33 C 0.7403(3) 0.7974(3) 0.4157(3) 0.0544 Uani
H24 H 0.8117 0.8015 0.4458 0.0650 Uiso
O1 O 0.5436(2) 0.59206(18) 0.64175(16) 0.0374 Uani
C1 C 0.6311(4) 0.6549(3) 0.7003(3) 0.0431 Uani
C3 C 0.5250(4) 0.7177(3) 0.7952(3) 0.0500 Uani
H3 H 0.4595 0.6701 0.7494 0.0600 Uiso
C4 C 0.5181(4) 0.7816(3) 0.8736(3) 0.0540 Uani
H4 H 0.4486 0.7761 0.8809 0.0650 Uiso
C5 C 0.6115(4) 0.8511(3) 0.9388(3) 0.0431 Uani
C6 C 0.7101(4) 0.8570(4) 0.9274(3) 0.0822 Uani
H5 H 0.7759 0.9046 0.9728 0.0990 Uiso
C9 C 0.2745(3) 0.7913(3) 0.9576(3) 0.0433 Uani
C17 C 0.2360(3) 0.8518(3) 0.9281(2) 0.0368 Uani
H14 H 0.2731 0.9176 0.9599 0.0440 Uiso
C21 C 0.1431(3) 0.8146(3) 0.8518(3) 0.0391 Uani
H17 H 0.1177 0.8558 0.8304 0.0470 Uiso
C23 C 0.0863(3) 0.7201(3) 0.8060(3) 0.0422 Uani
C24 C 0.6219(3) 0.7231(3) 0.7843(2) 0.0409 Uani
C29 C 0.7151(4) 0.7948(4) 0.8506(3) 0.0888 Uani
H20 H 0.7845 0.8011 0.8429 0.1060 Uiso
C30 C 0.2197(4) 0.6973(3) 0.9120(3) 0.0762 Uani
H21 H 0.2474 0.6563 0.9318 0.0910 Uiso
C31 C 0.1242(4) 0.6601(3) 0.8370(3) 0.0646 Uani
H22 H 0.0852 0.5943 0.8073 0.0780 Uiso
O14 O 0.4564(2) 0.40794(18) 0.35825(16) 0.0374 Uani
O23 O 0.3412(2) 0.52166(17) 0.46698(15) 0.0343 Uani
O26 O 0.4257(2) 0.38263(18) 0.53183(17) 0.0391 Uani
C22 C 0.9823(3) 0.6800(3) 0.7252(3) 0.0459 Uani
Mn11 Mn 0.20488(5) 0.37799(4) 0.39936(4) 0.0352 Uani
O27 O 0.0382(2) 0.2688(2) 0.31463(19) 0.0539 Uani
O30 O 0.0842(2) 0.4028(2) 0.29838(19) 0.0561 Uani
C55 C 0.0177(3) 0.3200(3) 0.2748(3) 0.0459 Uani
C34 C 0.3689(4) 0.3451(3) 0.2997(3) 0.0431 Uani
C36 C 0.4750(4) 0.2823(3) 0.2048(3) 0.0500 Uani
H27 H 0.5405 0.3299 0.2506 0.0600 Uiso
C37 C 0.4819(4) 0.2184(3) 0.1264(3) 0.0540 Uani
H28 H 0.5514 0.2239 0.1191 0.0650 Uiso
C38 C 0.3885(4) 0.1489(3) 0.0612(3) 0.0431 Uani
O20 O 0.2759(2) 0.3314(2) 0.30401(18) 0.0573 Uani
C39 C 0.2899(4) 0.1430(4) 0.0726(3) 0.0822 Uani
H29 H 0.2241 0.0954 0.0272 0.0990 Uiso
C42 C 0.7255(3) 0.2087(3) 0.0424(3) 0.0433 Uani
C50 C 0.7640(3) 0.1482(3) 0.0719(2) 0.0368 Uani
H38 H 0.7269 0.0824 0.0401 0.0440 Uiso
C54 C 0.8569(3) 0.1854(3) 0.1482(3) 0.0391 Uani
H41 H 0.8823 0.1442 0.1696 0.0470 Uiso
C56 C 0.9137(3) 0.2799(3) 0.1940(3) 0.0422 Uani
C57 C 0.3781(3) 0.2769(3) 0.2157(2) 0.0409 Uani
C62 C 0.2849(4) 0.2052(4) 0.1494(3) 0.0888 Uani
H44 H 0.2155 0.1989 0.1571 0.1060 Uiso
C63 C 0.7803(4) 0.3027(3) 0.0880(3) 0.0762 Uani
H45 H 0.7526 0.3437 0.0682 0.0910 Uiso
C64 C 0.8758(4) 0.3399(3) 0.1630(3) 0.0646 Uani
H46 H 0.9148 0.4057 0.1927 0.0780 Uiso
O15 O 0.6348(2) 0.18161(19) 0.96881(19) 0.0521 Uani
C35 C 0.4040(3) 0.1203(3) 0.9146(2) 0.0395 Uani
H25 H 0.3298 0.1080 0.8746 0.0480 Uiso
H26 H 0.4455 0.1888 0.9431 0.0480 Uiso
O16 O 0.3941(2) 0.08509(18) 0.98599(16) 0.0455 Uani
O18 O 0.3777(2) 0.10607(19) 0.73426(17) 0.0447 Uani
C40 C 0.4668(3) 0.2143(3) 0.6740(3) 0.0399 Uani
H30 H 0.5379 0.2177 0.7039 0.0490 Uiso
C41 C 0.3749(3) 0.1577(3) 0.6818(3) 0.0426 Uani
C45 C 0.4629(3) 0.0728(2) 0.8580(2) 0.0308 Uani
C46 C 0.4542(3) 0.2658(3) 0.6223(3) 0.0376 Uani
H32 H 0.5177 0.3051 0.6172 0.0450 Uiso
C47 C 0.5716(3) 0.0840(3) 0.9193(3) 0.0384 Uani
H33 H 0.6110 0.0542 0.8822 0.0460 Uiso
H34 H 0.5598 0.0537 0.9624 0.0460 Uiso
C48 C 0.4827(3) 0.1214(3) 0.7938(2) 0.0372 Uani
H35 H 0.5253 0.0954 0.7575 0.0440 Uiso
H36 H 0.5250 0.1892 0.8294 0.0440 Uiso
O33 O 0.2430(2) 0.3089(2) 0.48304(19) 0.0523 Uani
C59 C 0.3400(3) 0.3227(3) 0.5263(2) 0.0369 Uani
C60 C 0.3524(3) 0.2621(3) 0.5779(2) 0.0360 Uani
C65 C 0.2727(3) 0.1497(3) 0.6349(3) 0.0605 Uani
H47 H 0.2095 0.1070 0.6371 0.0730 Uiso
C66 C 0.2597(3) 0.2026(3) 0.5843(3) 0.0544 Uani
H48 H 0.1883 0.1985 0.5542 0.0650 Uiso
O17 O 0.4483(2) 0.93179(18) 0.74545(17) 0.0417 Uani
O19 O 0.1966(2) 0.49606(19) 0.50984(18) 0.0472 Uani
C43 C 0.3259(3) 0.6515(3) 0.5745(2) 0.0348 Uani
C44 C 0.2686(3) 0.6842(3) 0.6314(3) 0.0389 Uani
H31 H 0.2031 0.6416 0.6306 0.0470 Uiso
C49 C 0.3063(3) 0.7777(3) 0.6885(2) 0.0389 Uani
H37 H 0.2662 0.7993 0.7259 0.0470 Uiso
C51 C 0.4023(3) 0.8393(3) 0.6910(2) 0.0373 Uani
C52 C 0.4211(3) 0.7157(3) 0.5767(2) 0.0394 Uani
H39 H 0.4601 0.6952 0.5376 0.0470 Uiso
C53 C 0.4595(3) 0.8079(3) 0.6344(2) 0.0397 Uani
H40 H 0.5253 0.8507 0.6357 0.0480 Uiso
C58 C 0.2863(3) 0.5521(3) 0.5161(2) 0.0345 Uani
C61 C 0.3935(3) 0.9694(3) 0.8046(2) 0.0321 Uani
H42 H 0.3191 0.9606 0.7683 0.0380 Uiso
H43 H 0.3862 0.9374 0.8471 0.0380 Uiso
loop_
_atom_site_aniso_label
_atom_site_aniso_U_11
_atom_site_aniso_U_22
_atom_site_aniso_U_33
_atom_site_aniso_U_23
_atom_site_aniso_U_13
_atom_site_aniso_U_12
Mn2 0.0467 0.0309 0.0245 0.0066 0.0064 0.0187
O4 0.0571 0.0243 0.0423 0.0052 0.0239 0.0168
O6 0.0539 0.0325 0.0455 0.0016 0.0218 0.014
O8 0.0509 0.0351 0.0197 0.0066 0.0135 0.0237
C10 0.045 0.036 0.0234 0.0089 0.0116 0.0181
C11 0.05 0.03 0.039 0.0117 0.0219 0.015
C16 0.053 0.039 0.03 0.0087 0.023 0.0232
C18 0.055 0.028 0.0264 0.0052 0.0121 0.0193
C19 0.059 0.033 0.033 0.01 0.02 0.0268
C20 0.053 0.036 0.038 0.0168 0.0243 0.0186
C25 0.052 0.03 0.0272 0.0128 0.0136 0.0216
C28 0.047 0.033 0.0217 0.0074 0.0153 0.0238
Mn3 0.0463 0.0246 0.0185 0.0089 0.0114 0.0188
O21 0.0503 0.065 0.034 -0.0083 0.0085 0.0251
O28 0.0504 0.065 0.042 0.0293 0.0033 0.0156
O31 0.0528 0.051 0.0483 0.0077 0.0036 0.0199
O34 0.0537 0.052 0.0494 0.0304 0.0066 0.0137
O2 0.061 0.0282 0.0506 0.0156 -0.0078 0.0136
C2 0.066 0.033 0.0228 0.0082 0.0128 0.028
O3 0.084 0.0316 0.0303 0.0129 0.028 0.0274
O5 0.0447 0.0475 0.0397 0.0303 0.0018 0.0089
O9 0.0581 0.0326 0.0364 0.0179 0.0208 0.0222
C7 0.043 0.045 0.039 0.023 0.0141 0.0193
C8 0.046 0.042 0.042 0.024 0.0093 0.0154
C12 0.052 0.025 0.0215 0.0116 0.0106 0.0216
C13 0.044 0.033 0.04 0.0178 0.016 0.0153
C14 0.057 0.026 0.036 0.0172 0.0111 0.0187
C15 0.046 0.035 0.0293 0.0133 0.0083 0.0159
C26 0.053 0.023 0.029 0.0063 0.0132 0.0109
C27 0.045 0.028 0.033 0.0166 0.0104 0.0078
C32 0.039 0.069 0.072 0.057 0.002 -0.002
C33 0.042 0.06 0.053 0.035 -0.003 0.008
O1 0.0528 0.0385 0.0227 0.0067 0.0134 0.025
C1 0.062 0.048 0.025 0.014 0.01 0.033
C3 0.06 0.054 0.026 0.0042 0.0105 0.023
C4 0.059 0.065 0.035 0.007 0.015 0.034
C5 0.072 0.04 0.03 0.0162 0.024 0.031
C6 0.076 0.079 0.048 -0.016 0.013 0.019
C9 0.049 0.029 0.036 0.005 -0.0035 0.0144
C17 0.047 0.032 0.0276 0.0121 0.0087 0.0118
C21 0.043 0.039 0.037 0.0173 0.0144 0.0143
C23 0.047 0.042 0.038 0.015 0.0155 0.0171
C24 0.056 0.039 0.0252 0.0035 0.0106 0.027
C29 0.07 0.097 0.053 -0.026 0.011 0.035
C30 0.08 0.034 0.077 0.008 -0.024 0.022
C31 0.072 0.04 0.057 0.005 -0.005 0.022
O14 0.0528 0.0385 0.0227 0.0067 0.0134 0.025
O23 0.0509 0.0351 0.0197 0.0066 0.0135 0.0237
O26 0.0581 0.0326 0.0364 0.0179 0.0208 0.0222
C22 0.04 0.057 0.038 0.013 0.0141 0.02
Mn11 0.0467 0.0309 0.0245 0.0066 0.0064 0.0187
O27 0.0504 0.065 0.042 0.0293 0.0033 0.0156
O30 0.0528 0.051 0.0483 0.0077 0.0036 0.0199
C55 0.04 0.057 0.038 0.013 0.0141 0.02
C34 0.062 0.048 0.025 0.014 0.01 0.033
C36 0.06 0.054 0.026 0.0042 0.0105 0.023
C37 0.059 0.065 0.035 0.007 0.015 0.034
C38 0.072 0.04 0.03 0.0162 0.024 0.031
O20 0.0503 0.065 0.034 -0.0083 0.0085 0.0251
C39 0.076 0.079 0.048 -0.016 0.013 0.019
C42 0.049 0.029 0.036 0.005 -0.0035 0.0144
C50 0.047 0.032 0.0276 0.0121 0.0087 0.0118
C54 0.043 0.039 0.037 0.0173 0.0144 0.0143
C56 0.047 0.042 0.038 0.015 0.0155 0.0171
C57 0.056 0.039 0.0252 0.0035 0.0106 0.027
C62 0.07 0.097 0.053 -0.026 0.011 0.035
C63 0.08 0.034 0.077 0.008 -0.024 0.022
C64 0.072 0.04 0.057 0.005 -0.005 0.022
O15 0.061 0.0282 0.0506 0.0156 -0.0078 0.0136
C35 0.066 0.033 0.0228 0.0082 0.0128 0.028
O16 0.084 0.0316 0.0303 0.0129 0.028 0.0274
O18 0.0447 0.0475 0.0397 0.0303 0.0018 0.0089
C40 0.043 0.045 0.039 0.023 0.0141 0.0193
C41 0.046 0.042 0.042 0.024 0.0093 0.0154
C45 0.052 0.025 0.0215 0.0116 0.0106 0.0216
C46 0.044 0.033 0.04 0.0178 0.016 0.0153
C47 0.057 0.026 0.036 0.0172 0.0111 0.0187
C48 0.046 0.035 0.0293 0.0133 0.0083 0.0159
O33 0.0537 0.052 0.0494 0.0304 0.0066 0.0137
C59 0.053 0.023 0.029 0.0063 0.0132 0.0109
C60 0.045 0.028 0.033 0.0166 0.0104 0.0078
C65 0.039 0.069 0.072 0.057 0.002 -0.002
C66 0.042 0.06 0.053 0.035 -0.003 0.008
O17 0.0571 0.0243 0.0423 0.0052 0.0239 0.0168
O19 0.0539 0.0325 0.0455 0.0016 0.0218 0.014
C43 0.045 0.036 0.0234 0.0089 0.0116 0.0181
C44 0.05 0.03 0.039 0.0117 0.0219 0.015
C49 0.053 0.039 0.03 0.0087 0.023 0.0232
C51 0.055 0.028 0.0264 0.0052 0.0121 0.0193
C52 0.059 0.033 0.033 0.01 0.02 0.0268
C53 0.053 0.036 0.038 0.0168 0.0243 0.0186
C58 0.052 0.03 0.0272 0.0128 0.0136 0.0216
C61 0.047 0.033 0.0217 0.0074 0.0153 0.0238
loop_
_geom_bond_atom_site_label_1
_geom_bond_atom_site_label_2
_geom_bond_site_symmetry_1
_geom_bond_site_symmetry_2
Mn2 O6 1_555 1_555
O4 C18 1_555 1_555
O6 C25 1_555 1_555
O8 Mn2 1_555 1_555
C10 C11 1_555 1_555
C11 H7 1_555 1_555
C16 C11 1_555 1_555
H13 C16 1_555 1_555
C18 C16 1_555 1_555
C19 C10 1_555 1_555
H15 C19 1_555 1_555
C20 C18 1_555 1_555
H16 C20 1_555 1_555
C25 O8 1_555 1_555
C28 O4 1_555 1_555
H18 C28 1_555 1_555
H19 C28 1_555 1_555
Mn3 O8 1_555 1_555
O21 Mn2 1_555 1_555
O28 Mn2 1_555 1_555
O31 Mn2 1_555 1_555
O34 Mn2 1_555 1_555
C10 C25 1_555 1_555
C19 C20 1_555 1_555
C2 H1 1_555 1_555
H2 C2 1_555 1_555
O3 C2 1_555 1_555
O5 C8 1_555 1_555
O9 C26 1_555 1_555
C7 H6 1_555 1_555
C8 C7 1_555 1_555
C12 C2 1_555 1_555
C13 C7 1_555 1_555
H8 C13 1_555 1_555
C14 O2 1_555 1_555
H9 C14 1_555 1_555
H10 C14 1_555 1_555
C15 O5 1_555 1_555
H11 C15 1_555 1_555
H12 C15 1_555 1_555
O34 C26 1_555 1_555
C26 C27 1_555 1_555
C27 C13 1_555 1_555
C32 C8 1_555 1_555
H23 C32 1_555 1_555
C33 C27 1_555 1_555
H24 C33 1_555 1_555
Mn3 O9 1_555 1_555
C12 C14 1_555 1_555
C12 C15 1_555 1_555
C32 C33 1_555 1_555
O1 C1 1_555 1_555
C1 O21 1_555 1_555
Mn3 O1 1_555 1_555
C3 H3 1_555 1_555
C4 C3 1_555 1_555
H4 C4 1_555 1_555
C6 C5 1_555 1_555
H5 C6 1_555 1_555
C9 C17 1_555 1_555
C17 H14 1_555 1_555
C21 C17 1_555 1_555
H17 C21 1_555 1_555
C23 C21 1_555 1_555
C24 C1 1_555 1_555
C29 C6 1_555 1_555
H20 C29 1_555 1_555
C30 C9 1_555 1_555
H21 C30 1_555 1_555
C31 C23 1_555 1_555
H22 C31 1_555 1_555
O14 Mn3 1_555 1_555
O23 Mn3 1_555 1_555
O26 Mn3 1_555 1_555
C3 C24 1_555 1_555
C4 C5 1_555 1_555
C24 C29 1_555 1_555
C30 C31 1_555 1_555
O28 C22 1_555 1_555
O31 C22 1_555 1_555
Mn11 O27 1_555 1_555
O27 C55 1_555 1_555
O30 Mn11 1_555 1_555
C55 O30 1_555 1_555
O14 C34 1_555 1_555
C34 O20 1_555 1_555
Mn11 O20 1_555 1_555
C36 H27 1_555 1_555
C37 C36 1_555 1_555
H28 C37 1_555 1_555
C39 C38 1_555 1_555
H29 C39 1_555 1_555
C42 C50 1_555 1_555
C50 H38 1_555 1_555
C54 C50 1_555 1_555
H41 C54 1_555 1_555
C56 C54 1_555 1_555
C57 C34 1_555 1_555
C62 C39 1_555 1_555
H44 C62 1_555 1_555
C63 C42 1_555 1_555
H45 C63 1_555 1_555
C64 C56 1_555 1_555
H46 C64 1_555 1_555
C36 C57 1_555 1_555
C37 C38 1_555 1_555
C57 C62 1_555 1_555
C63 C64 1_555 1_555
Mn11 O33 1_555 1_555
C35 H25 1_555 1_555
H26 C35 1_555 1_555
O16 C35 1_555 1_555
O18 C41 1_555 1_555
O26 C59 1_555 1_555
C40 H30 1_555 1_555
C41 C40 1_555 1_555
C45 C35 1_555 1_555
C46 C40 1_555 1_555
H32 C46 1_555 1_555
C47 O15 1_555 1_555
H33 C47 1_555 1_555
H34 C47 1_555 1_555
C48 O18 1_555 1_555
H35 C48 1_555 1_555
H36 C48 1_555 1_555
O33 C59 1_555 1_555
C59 C60 1_555 1_555
C60 C46 1_555 1_555
C65 C41 1_555 1_555
H47 C65 1_555 1_555
C66 C60 1_555 1_555
H48 C66 1_555 1_555
C45 C47 1_555 1_555
C45 C48 1_555 1_555
C65 C66 1_555 1_555
Mn11 O19 1_555 1_555
O17 C51 1_555 1_555
O19 C58 1_555 1_555
C43 C44 1_555 1_555
C44 H31 1_555 1_555
C49 C44 1_555 1_555
H37 C49 1_555 1_555
C51 C49 1_555 1_555
C52 C43 1_555 1_555
H39 C52 1_555 1_555
C53 C51 1_555 1_555
H40 C53 1_555 1_555
C58 O23 1_555 1_555
C61 O17 1_555 1_555
H42 C61 1_555 1_555
H43 C61 1_555 1_555
Mn11 O23 1_555 1_555
C43 C58 1_555 1_555
C52 C53 1_555 1_555

#END
