
###############################################################################
#
# This file contains modified crystal structure data generated from the
# MOF subset of the Cambridge Structural Database (CSD) v543 
# hosted by the Cambridge Crystallographic Data Centre (CCDC).
#
# This work is licensed under the Creative Commons
# Attribution-NonCommercial-ShareAlike 4.0 International License.
# To view a copy of this license, visit
# http://creativecommons.org/licenses/by-nc-sa/4.0/
# or send a letter to
# Creative Commons, PO Box 1866, Mountain View, CA 94042, USA.
#
# CIF created using the CSD Python API on 29 September 2022
# The structure has been converted into the P1 space group
# The structure has a 3D framework
# The original CSD entry NEDWIE is in the triclinic crystal system
# The framework has been calculated to contain at least 10.0% void space
# The void calculation uses a probe of radius 1.32A, grid spacing 0.4
# H atom positions have been added when not included in the experimental data
# Generated hydrogen atom positions removed from atoms on special positions
#
###############################################################################

data_NEDWIE
_chemical_formula_moiety         '(C66 H80 Mn1 Ni4 O32)n'
_symmetry_cell_setting           triclinic
_symmetry_space_group_name_H-M   'P 1'
_symmetry_Int_Tables_number      1
_space_group_name_Hall           'P 1'
loop_
_symmetry_equiv_pos_site_id
_symmetry_equiv_pos_as_xyz
1 x,y,z
_cell_length_a                   16.6187(7)
_cell_length_b                   15.6802(6)
_cell_length_c                   16.8631(7)
_cell_angle_alpha                109.215(2)
_cell_angle_beta                 98.782(2)
_cell_angle_gamma                114.858(2)
_cell_volume                     3541.18
loop_
_atom_site_label
_atom_site_type_symbol
_atom_site_fract_x
_atom_site_fract_y
_atom_site_fract_z
O4 O 0.5391(2) 0.0607(3) 0.2453(2)
O5 O 0.7678(2) 0.5512(3) 0.4958(2)
O6 O 0.6365(2) 0.5054(3) 0.5253(2)
C10 C 0.5871(4) 0.0336(4) 0.1874(3)
H7 H 0.6498 0.0505 0.2224
H8 H 0.5959 0.0725 0.1506
C11 C 0.5810(4) 0.1640(4) 0.3029(3)
C12 C 0.6620(4) 0.2407(4) 0.3059(3)
H9 H 0.6947 0.2238 0.2674
C13 C 0.6974(3) 0.3455(4) 0.3662(3)
H10 H 0.7541 0.3993 0.3684
C14 C 0.6500(3) 0.3706(4) 0.4224(3)
C15 C 0.5652(4) 0.2904(5) 0.4172(3)
H11 H 0.5318 0.3068 0.4551
C16 C 0.5304(4) 0.1888(4) 0.3576(4)
H12 H 0.4721 0.1351 0.3532
C17 C 0.6873(4) 0.4803(5) 0.4836(3)
Ni5 Ni 0.74939(5) 0.66744(6) 0.59364(5)
Mn6 Mn 0.5000 0.5000 0.5000
O1 O 0.5549(2) 0.6271(3) 0.4646(2)
C1 C 0.6287(4) 0.6890(4) 0.4611(3)
O2 O 0.7097(2) 0.7118(3) 0.5008(2)
C2 C 0.6187(4) 0.7414(5) 0.4026(3)
O3 O 0.5958(3) 0.8808(3) 0.2374(2)
C3 C 0.6964(4) 0.8136(5) 0.3952(4)
H1 H 0.7577 0.8322 0.4281
C4 C 0.6862(4) 0.8583(5) 0.3414(4)
H2 H 0.7407 0.9104 0.3388
C5 C 0.5978(4) 0.8296(4) 0.2898(4)
C6 C 0.5222(4) 0.7604(5) 0.2973(4)
H3 H 0.4612 0.7420 0.2638
O7 O 0.5842(3) 0.9255(3) 0.0074(2)
C7 C 0.5308(4) 0.7153(5) 0.3525(4)
H4 H 0.4759 0.6654 0.3564
C8 C 0.5058(4) 0.8553(4) 0.1839(3)
H5 H 0.4716 0.8760 0.2225
H6 H 0.4670 0.7792 0.1450
C9 C 0.5250(4) 0.9154(4) 0.1279(3)
O12 O 0.3764(3) 0.7823(3) 0.0125(2)
C18 C 0.5769(4) 0.8784(5) 0.0681(3)
H13 H 0.6405 0.9001 0.1053
H14 H 0.5412 0.8012 0.0345
C26 C 0.4317(4) 0.8921(4) 0.0712(3)
H19 H 0.3975 0.9125 0.1101
H20 H 0.4427 0.9328 0.0359
Ni2 Ni 0.0000 0.5000 0.5000
O8 O 0.7004(3) 0.7355(3) 0.6825(2)
O9 O 0.5505(2) 0.6069(3) 0.6387(2)
O10 O 0.8839(3) 0.7983(4) 0.6341(3)
O11 O 0.8055(4) 0.6291(5) 0.6896(3)
O13 O 0.0528(3) 0.6985(4) 0.6933(3)
O14 O 0.0745(2) 0.5614(3) 0.6335(2)
O15 O 0.1153(3) 0.6088(4) 0.4829(3)
O16 O 0.0487(2) 0.3969(3) 0.4764(2)
C19 C 0.5939(5) 0.8693(5) 0.9323(4)
C20 C 0.6800(5) 0.9021(5) 0.9201(4)
H15 H 0.7343 0.9643 0.9649
C21 C 0.6870(5) 0.8444(6) 0.8423(4)
H16 H 0.7468 0.8681 0.8347
C22 C 0.6125(4) 0.7559(4) 0.7771(3)
C23 C 0.5266(4) 0.7244(5) 0.7876(3)
H17 H 0.4728 0.6635 0.7410
C24 C 0.5159(4) 0.7789(5) 0.8642(4)
H18 H 0.4555 0.7548 0.8705
C25 C 0.6216(5) 0.6939(5) 0.6926(4)
C27 C 0.3031(4) 0.7506(4) 0.9401(4)
C28 C 0.2639(4) 0.6509(5) 0.8744(3)
H21 H 0.2864 0.6066 0.8822
C29 C 0.1931(4) 0.6145(5) 0.7980(4)
H22 H 0.1661 0.5447 0.7539
C30 C 0.1597(4) 0.6780(5) 0.7835(4)
C31 C 0.1965(4) 0.7758(5) 0.8522(3)
H23 H 0.1714 0.8187 0.8462
C32 C 0.2668(4) 0.8128(5) 0.9276(4)
H24 H 0.2919 0.8817 0.9727
C33 C 0.0901(4) 0.6425(5) 0.6956(4)
O19 O 0.4451(2) 0.3729(3) 0.5354(2)
O31 O 0.3635(2) 0.4946(3) 0.4747(2)
O35 O 0.4495(2) 0.3931(3) 0.3613(2)
H59 H 0.00555085 0.675774 0.551899
Ni2_2 Ni 1.0000 0.5000 0.5000
Ni3 Ni 0.25061(5) 0.33256(6) 0.40636(5)
O22 O 0.2903(2) 0.2882(3) 0.4992(2)
O27 O 0.2322(2) 0.4488(3) 0.5042(2)
O33 O 0.2996(3) 0.2645(3) 0.3175(2)
O36 O 0.1161(3) 0.2017(4) 0.3659(3)
O37 O 0.1945(4) 0.3709(5) 0.3104(3)
O39 O 0.9472(3) 0.3015(4) 0.3067(3)
O40 O 0.9255(2) 0.4386(3) 0.3665(2)
O41 O 0.8847(3) 0.3912(4) 0.5171(3)
O42 O 0.9513(2) 0.6031(3) 0.5236(2)
C52 C 0.4061(5) 0.1307(5) 0.0677(4)
C53 C 0.3200(5) 0.0979(5) 0.0799(4)
H39 H 0.2657 0.0357 0.0351
C54 C 0.3130(5) 0.1556(6) 0.1577(4)
H40 H 0.2532 0.1319 0.1653
C55 C 0.3875(4) 0.2441(4) 0.2229(3)
C56 C 0.4734(4) 0.2756(5) 0.2124(3)
H41 H 0.5272 0.3365 0.2590
C57 C 0.4841(4) 0.2211(5) 0.1358(4)
H42 H 0.5445 0.2452 0.1295
C58 C 0.3784(5) 0.3061(5) 0.3074(4)
C60 C 0.6969(4) 0.2494(4) 0.0599(4)
C61 C 0.7361(4) 0.3491(5) 0.1256(3)
H45 H 0.7136 0.3934 0.1178
C62 C 0.8069(4) 0.3855(5) 0.2020(4)
H46 H 0.8339 0.4553 0.2461
C63 C 0.8403(4) 0.3220(5) 0.2165(4)
C64 C 0.8035(4) 0.2242(5) 0.1478(3)
H47 H 0.8286 0.1813 0.1538
C65 C 0.7332(4) 0.1872(5) 0.0724(4)
H48 H 0.7081 0.1183 0.0273
C66 C 0.9099(4) 0.3575(5) 0.3044(4)
C34 C 0.3713(4) 0.3110(4) 0.5389(3)
C35 C 0.3813(4) 0.2586(5) 0.5974(3)
O23 O 0.4042(3) 0.1192(3) 0.7626(2)
C36 C 0.3036(4) 0.1864(5) 0.6048(4)
H25 H 0.2423 0.1678 0.5719
C37 C 0.3138(4) 0.1417(5) 0.6586(4)
H26 H 0.2593 0.0896 0.6612
C38 C 0.4022(4) 0.1704(4) 0.7102(4)
C39 C 0.4778(4) 0.2396(5) 0.7027(4)
H27 H 0.5388 0.2580 0.7362
O32 O 0.4158(3) 0.0745(3) 0.9926(2)
C40 C 0.4692(4) 0.2847(5) 0.6475(4)
H28 H 0.5241 0.3346 0.6436
C41 C 0.4942(4) 0.1447(4) 0.8161(3)
H29 H 0.5284 0.1240 0.7775
H30 H 0.5330 0.2208 0.8550
C42 C 0.4750(4) 0.0846(4) 0.8721(3)
O38 O 0.6236(3) 0.2177(3) 0.9875(2)
C51 C 0.4231(4) 0.1216(5) 0.9319(3)
H37 H 0.3595 0.0999 0.8947
H38 H 0.4588 0.1988 0.9655
C59 C 0.5683(4) 0.1079(4) 0.9288(3)
H43 H 0.6025 0.0875 0.8899
H44 H 0.5573 0.0672 0.9641
O24 O 0.4609(2) 0.9393(3) 0.7547(2)
C43 C 0.4129(4) 0.9664(4) 0.8126(3)
H31 H 0.3502 0.9495 0.7776
H32 H 0.4041 0.9275 0.8494
C44 C 0.4190(4) 0.8360(4) 0.6971(3)
C45 C 0.3380(4) 0.7593(4) 0.6941(3)
H33 H 0.3053 0.7762 0.7326
C46 C 0.3026(3) 0.6545(4) 0.6338(3)
H34 H 0.2459 0.6007 0.6316
C47 C 0.3500(3) 0.6294(4) 0.5776(3)
C48 C 0.4348(4) 0.7096(5) 0.5828(3)
H35 H 0.4682 0.6932 0.5449
C49 C 0.4696(4) 0.8112(4) 0.6424(4)
H36 H 0.5279 0.8649 0.6468
C50 C 0.3127(4) 0.5197(5) 0.5164(3)
H59_2 H 0.994449 0.324226 0.448101
loop_
_geom_bond_atom_site_label_1
_geom_bond_atom_site_label_2
_geom_bond_site_symmetry_1
_geom_bond_site_symmetry_2
O4 C10 1_555 1_555
O5 C17 1_555 1_555
O6 C17 1_555 1_555
H7 C10 1_555 1_555
H8 C10 1_555 1_555
C11 O4 1_555 1_555
C12 C11 1_555 1_555
H9 C12 1_555 1_555
C13 C12 1_555 1_555
H10 C13 1_555 1_555
C14 C13 1_555 1_555
C15 C14 1_555 1_555
H11 C15 1_555 1_555
C16 C11 1_555 1_555
H12 C16 1_555 1_555
C17 C14 1_555 1_555
Ni5 O5 1_555 1_555
Mn6 O6 1_555 1_555
O6 Ni5 1_555 1_555
C15 C16 1_555 1_555
O1 C1 1_555 1_555
C1 O2 1_555 1_555
O2 Ni5 1_555 1_555
C2 C1 1_555 1_555
O3 C5 1_555 1_555
C3 C2 1_555 1_555
H1 C3 1_555 1_555
C4 C3 1_555 1_555
H2 C4 1_555 1_555
C5 C4 1_555 1_555
C6 C5 1_555 1_555
H3 C6 1_555 1_555
O7 C18 1_555 1_555
C7 C2 1_555 1_555
H4 C7 1_555 1_555
C8 O3 1_555 1_555
H5 C8 1_555 1_555
H6 C8 1_555 1_555
C9 C8 1_555 1_555
O12 C26 1_555 1_555
C18 C9 1_555 1_555
H13 C18 1_555 1_555
H14 C18 1_555 1_555
C26 C9 1_555 1_555
H19 C26 1_555 1_555
H20 C26 1_555 1_555
Mn6 O1 1_555 1_555
C6 C7 1_555 1_555
Ni5 O8 1_555 1_555
Mn6 O9 1_555 1_555
Ni2 O14 1_555 1_555
O8 C25 1_555 1_555
O9 C25 1_555 1_555
O10 Ni5 1_555 1_555
O11 Ni5 1_555 1_555
O13 C33 1_555 1_555
O14 C33 1_555 1_555
O15 Ni2 1_555 1_555
O16 Ni2 1_555 1_555
C20 C19 1_555 1_555
H15 C20 1_555 1_555
C21 C20 1_555 1_555
H16 C21 1_555 1_555
C22 C21 1_555 1_555
C23 C22 1_555 1_555
H17 C23 1_555 1_555
C24 C19 1_555 1_555
H18 C24 1_555 1_555
C25 C22 1_555 1_555
C28 C27 1_555 1_555
H21 C28 1_555 1_555
C29 C28 1_555 1_555
H22 C29 1_555 1_555
C30 C29 1_555 1_555
C31 C30 1_555 1_555
H23 C31 1_555 1_555
C32 C27 1_555 1_555
H24 C32 1_555 1_555
C33 C30 1_555 1_555
O19 Mn6 1_555 1_555
O31 Mn6 1_555 1_555
O35 Mn6 1_555 1_555
C23 C24 1_555 1_555
C31 C32 1_555 1_555
Ni3 O22 1_555 1_555
O27 Ni3 1_555 1_555
O31 Ni3 1_555 1_555
O33 Ni3 1_555 1_555
O36 Ni3 1_555 1_555
O37 Ni3 1_555 1_555
O39 C66 1_555 1_555
O40 Ni2_2 1_555 1_555
O41 Ni2_2 1_555 1_555
O42 Ni2_2 1_555 1_555
C53 C52 1_555 1_555
H39 C53 1_555 1_555
C54 C53 1_555 1_555
H40 C54 1_555 1_555
C55 C54 1_555 1_555
C56 C55 1_555 1_555
H41 C56 1_555 1_555
C57 C52 1_555 1_555
H42 C57 1_555 1_555
C58 O33 1_555 1_555
C61 C60 1_555 1_555
H45 C61 1_555 1_555
C62 C61 1_555 1_555
H46 C62 1_555 1_555
C63 C62 1_555 1_555
C64 C63 1_555 1_555
H47 C64 1_555 1_555
C65 C60 1_555 1_555
H48 C65 1_555 1_555
C66 O40 1_555 1_555
O35 C58 1_555 1_555
C55 C58 1_555 1_555
C56 C57 1_555 1_555
C63 C66 1_555 1_555
C64 C65 1_555 1_555
O19 C34 1_555 1_555
C34 O22 1_555 1_555
C35 C34 1_555 1_555
O23 C38 1_555 1_555
C36 C35 1_555 1_555
H25 C36 1_555 1_555
C37 C36 1_555 1_555
H26 C37 1_555 1_555
C38 C37 1_555 1_555
C39 C38 1_555 1_555
H27 C39 1_555 1_555
O32 C51 1_555 1_555
C40 C35 1_555 1_555
H28 C40 1_555 1_555
C41 O23 1_555 1_555
H29 C41 1_555 1_555
H30 C41 1_555 1_555
C42 C41 1_555 1_555
O38 C59 1_555 1_555
C51 C42 1_555 1_555
H37 C51 1_555 1_555
H38 C51 1_555 1_555
C59 C42 1_555 1_555
H43 C59 1_555 1_555
H44 C59 1_555 1_555
C39 C40 1_555 1_555
O24 C43 1_555 1_555
O27 C50 1_555 1_555
H31 C43 1_555 1_555
H32 C43 1_555 1_555
C44 O24 1_555 1_555
C45 C44 1_555 1_555
H33 C45 1_555 1_555
C46 C45 1_555 1_555
H34 C46 1_555 1_555
C47 C46 1_555 1_555
C48 C47 1_555 1_555
H35 C48 1_555 1_555
C49 C44 1_555 1_555
H36 C49 1_555 1_555
C50 O31 1_555 1_555
C47 C50 1_555 1_555
C48 C49 1_555 1_555

#END
