
###############################################################################
#
# This file contains modified crystal structure data generated from the
# MOF subset of the Cambridge Structural Database (CSD) v543 
# hosted by the Cambridge Crystallographic Data Centre (CCDC).
#
# This work is licensed under the Creative Commons
# Attribution-NonCommercial-ShareAlike 4.0 International License.
# To view a copy of this license, visit
# http://creativecommons.org/licenses/by-nc-sa/4.0/
# or send a letter to
# Creative Commons, PO Box 1866, Mountain View, CA 94042, USA.
#
# CIF created using the CSD Python API on 29 September 2022
# The structure has been converted into the P1 space group
# The structure has a 3D framework
# The original CSD entry NEFGUD is in the orthorhombic crystal system
# The framework has been calculated to contain at least 10.0% void space
# The void calculation uses a probe of radius 1.32A, grid spacing 0.4
# H atom positions have been added when not included in the experimental data
#
###############################################################################

data_NEFGUD
_chemical_formula_moiety         '(C216 H216 Cu32 I32 N40 O84 Zn16)n'
_symmetry_cell_setting           triclinic
_symmetry_space_group_name_H-M   'P 1'
_symmetry_Int_Tables_number      1
_space_group_name_Hall           'P 1'
loop_
_symmetry_equiv_pos_site_id
_symmetry_equiv_pos_as_xyz
1 x,y,z
_cell_length_a                   17.350(5)
_cell_length_b                   27.922(9)
_cell_length_c                   28.245(9)
_cell_angle_alpha                90
_cell_angle_beta                 90
_cell_angle_gamma                90
_cell_volume                     13683.2
loop_
_atom_site_label
_atom_site_type_symbol
_atom_site_fract_x
_atom_site_fract_y
_atom_site_fract_z
Zn2 Zn 0.12856(7) 0.17679(4) 0.00614(4)
C26 C 0.3636(19) 0.2890(14) 0.0679(11)
H20 H 0.3383 0.2832 0.0976
H21 H 0.3532 0.3212 0.0578
H22 H 0.4181 0.2847 0.0716
C27 C 0.2650(10) 0.2336(7) 0.0380(6)
H23 H 0.2383 0.2369 0.0664
N5 N 0.3357(11) 0.2567(7) 0.0338(7)
O1 O 0.0168(4) 0.1398(4) 0.0001(3)
O11 O 0.2361(5) 0.2097(3) 0.0074(3)
O13 O 0.0869(5) 0.2212(3) 0.0572(3)
O15 O 0.1647(5) 0.1293(3) 0.0572(3)
O16 O 0.0766(3) 0.0986(2) 0.1043(2)
Cu1 Cu 0.01657(6) 0.03092(4) 0.77574(4)
Cu3 Cu 0.00879(7) 0.07904(5) 0.69546(5)
I2 I 0.14390(3) 0.07603(2) 0.74233(2)
I4 I 0.00689(6) 0.01838(4) 0.62113(3)
C1 C 0.0160(7) 0.0974(4) 0.8560(4)
H1 H 0.0178 0.1197 0.8316
C2 C 0.0130(6) 0.1141(4) 0.9016(4)
H2 H 0.0146 0.1468 0.9075
C3 C 0.0078(5) 0.0828(5) 0.9380(4)
C4 C 0.0071(5) 0.0342(5) 0.9268(4)
H3 H 0.0025 0.0117 0.9509
C5 C 0.0130(5) 0.0193(4) 0.8808(3)
C15 C 0.0256(6) 0.2293(4) 0.6122(4)
C16 C 0.0758(8) 0.1908(5) 0.6022(5)
H11 H 0.1146 0.1939 0.5797
C17 C 0.0654(9) 0.1473(5) 0.6273(5)
H12 H 0.0962 0.1212 0.6194
C18 C 0.0325(6) 0.2759(4) 0.5855(3)
C25 C 0.3704(15) 0.2605(10) 0.9890(7)
H17 H 0.3450 0.2394 0.9672
H18 H 0.4238 0.2519 0.9913
H19 H 0.3661 0.2929 0.9779
N1 N 0.0164(4) 0.0501(3) 0.8446(3)
N3 N 0.0140(5) 0.1422(4) 0.6614(4)
O2 O 0.0952(8) 0.2259(5) 0.9571(4)
O4 O 0.1743(6) 0.1318(3) 0.9535(4)
O7 O 0.0869(5) 0.2788(3) 0.5572(3)
Zn7 Zn 0.12856(7) 0.32321(4) 0.50614(4)
H24 H 0.0485639 0.242951 0.968555
H25 H 0.137453 0.249321 0.951973
H26 H 0.144403 0.135806 0.923784
H27 H 0.229039 0.140378 0.947715
Cu4 Cu 0.08763(6) 0.99749(5) 0.70182(5)
I1 I 0.01454(4) 0.93771(2) 0.76086(2)
H4 H 0.0146 0.9866 0.8745
C19 C 0.1596(7) 0.9274(5) 0.6413(5)
H13 H 0.1086 0.9178 0.6375
C20 C 0.2174(6) 0.9051(5) 0.6130(5)
H14 H 0.2041 0.8831 0.5897
C21 C 0.2932(6) 0.9170(4) 0.6208(4)
C22 C 0.3091(5) 0.9508(4) 0.6556(3)
H15 H 0.3600 0.9583 0.6628
C23 C 0.2516(5) 0.9726(4) 0.6791(4)
H16 H 0.2640 0.9966 0.7006
C24 C 0.3549(5) 0.8940(3) 0.5922(4)
N4 N 0.1752(5) 0.9610(3) 0.6726(4)
O9 O 0.3353(5) 0.8707(3) 0.5572(3)
O10 O 0.4234(3) 0.9014(2) 0.6043(2)
Zn4 Zn 0.51491(5) 0.87439(3) 0.57407(3)
Zn6 Zn 0.37144(7) 0.82321(4) 0.50614(4)
Zn1 Zn 0.98509(5) 0.12561(3) 0.07407(3)
O3 O 0.9756(7) 0.0689(6) 0.0191(3)
O12 O 0.9028(4) 0.0967(3) 0.1113(2)
O14 O 0.9850(4) 0.1929(2) 0.0952(2)
I3 I 0.88269(3) 0.07519(2) 0.74802(2)
C6 C 0.9981(8) 0.0962(7) 0.9895(6)
C13 C 0.9684(7) 0.1794(5) 0.6719(5)
H9 H 0.9346 0.1775 0.6974
C14 C 0.9713(6) 0.2209(4) 0.6448(5)
H10 H 0.9336 0.2441 0.6496
O8 O 0.9850(4) 0.3071(2) 0.5952(2)
Zn5 Zn 0.98509(5) 0.37439(3) 0.57407(3)
Cu2 Cu 0.93575(6) 0.99663(5) 0.70460(5)
C7 C 0.8600(8) 0.9255(5) 0.6467(6)
H5 H 0.9111 0.9169 0.6417
C8 C 0.8027(8) 0.9006(5) 0.6208(5)
H6 H 0.8149 0.8764 0.5995
C9 C 0.7267(6) 0.9147(5) 0.6293(5)
C10 C 0.7126(5) 0.9488(4) 0.6605(3)
H7 H 0.6620 0.9578 0.6665
C11 C 0.7729(5) 0.9718(3) 0.6846(3)
H8 H 0.7613 0.9958 0.7063
C12 C 0.6631(6) 0.8901(5) 0.6016(4)
N2 N 0.8462(4) 0.9600(3) 0.6773(4)
O5 O 0.6793(6) 0.8587(4) 0.5715(4)
O6 O 0.5972(4) 0.9033(3) 0.6113(2)
Cu2_2 Cu 0.56425(6) 0.00337(5) 0.20460(5)
Cu4_2 Cu 0.41237(6) 0.00251(5) 0.20182(5)
I1_2 I 0.48546(4) 0.06229(2) 0.26086(2)
H4_2 H 0.4854 0.0134 0.3745
C7_2 C 0.6400(8) 0.0745(5) 0.1467(6)
H5_2 H 0.5889 0.0831 0.1417
C8_2 C 0.6973(8) 0.0994(5) 0.1208(5)
H6_2 H 0.6851 0.1236 0.0995
C9_2 C 0.7733(6) 0.0853(5) 0.1293(5)
C10_2 C 0.7874(5) 0.0512(4) 0.1605(3)
H7_2 H 0.8380 0.0422 0.1665
C11_2 C 0.7271(5) 0.0282(3) 0.1846(3)
H8_2 H 0.7387 0.0042 0.2063
C12_2 C 0.8369(6) 0.1099(5) 0.1016(4)
C19_2 C 0.3404(7) 0.0726(5) 0.1413(5)
H13_2 H 0.3914 0.0822 0.1375
C20_2 C 0.2826(6) 0.0949(5) 0.1130(5)
H14_2 H 0.2959 0.1169 0.0897
C21_2 C 0.2068(6) 0.0830(4) 0.1208(4)
C22_2 C 0.1909(5) 0.0492(4) 0.1556(3)
H15_2 H 0.1400 0.0417 0.1628
C23_2 C 0.2484(5) 0.0274(4) 0.1791(4)
H16_2 H 0.2360 0.0034 0.2006
C24_2 C 0.1451(5) 0.1060(3) 0.0922(4)
N2_2 N 0.6538(4) 0.0400(3) 0.1773(4)
N4_2 N 0.3248(5) 0.0390(3) 0.1726(4)
O5_2 O 0.8207(6) 0.1413(4) 0.0715(4)
Cu1_2 Cu 0.48343(6) 0.96908(4) 0.27574(4)
Cu3_2 Cu 0.49121(7) 0.92096(5) 0.19546(5)
I2_2 I 0.35610(3) 0.92397(2) 0.24233(2)
I3_2 I 0.61731(3) 0.92481(2) 0.24802(2)
I4_2 I 0.49311(6) 0.98162(4) 0.12113(3)
C1_2 C 0.4840(7) 0.9026(4) 0.3560(4)
H1_2 H 0.4822 0.8803 0.3316
C2_2 C 0.4870(6) 0.8859(4) 0.4016(4)
H2_2 H 0.4854 0.8532 0.4075
C3_2 C 0.4922(5) 0.9172(5) 0.4380(4)
C4_2 C 0.4929(5) 0.9658(5) 0.4268(4)
H3_2 H 0.4975 0.9883 0.4509
C5_2 C 0.4870(5) 0.9807(4) 0.3808(3)
C6_2 C 0.5019(8) 0.9038(7) 0.4895(6)
C13_2 C 0.5316(7) 0.8206(5) 0.1719(5)
H9_2 H 0.5654 0.8225 0.1974
C14_2 C 0.5287(6) 0.7791(4) 0.1448(5)
H10_2 H 0.5664 0.7559 0.1496
C15_2 C 0.4744(6) 0.7707(4) 0.1122(4)
C16_2 C 0.4242(8) 0.8092(5) 0.1022(5)
H11_2 H 0.3854 0.8061 0.0797
C17_2 C 0.4346(9) 0.8527(5) 0.1273(5)
H12_2 H 0.4038 0.8788 0.1194
C18_2 C 0.4675(6) 0.7241(4) 0.0855(3)
C25_2 C 0.1296(15) 0.7395(10) 0.4890(7)
H17_2 H 0.1550 0.7606 0.4672
H18_2 H 0.0762 0.7481 0.4913
H19_2 H 0.1339 0.7071 0.4779
C26_2 C 0.1364(19) 0.7110(14) 0.5679(11)
H20_2 H 0.1617 0.7168 0.5976
H21_2 H 0.1468 0.6788 0.5578
H22_2 H 0.0819 0.7153 0.5716
C27_2 C 0.2350(10) 0.7664(7) 0.5380(6)
H23_2 H 0.2617 0.7631 0.5664
N1_2 N 0.4836(4) 0.9499(3) 0.3446(3)
N3_2 N 0.4860(5) 0.8578(4) 0.1614(4)
N5_2 N 0.1643(11) 0.7433(7) 0.5338(7)
O1_2 O 0.4832(4) 0.8602(4) 0.5001(3)
O2_2 O 0.4048(8) 0.7741(5) 0.4571(4)
O3_2 O 0.5244(7) 0.9311(6) 0.5191(3)
O4_2 O 0.3257(6) 0.8682(3) 0.4535(4)
O7_2 O 0.4131(5) 0.7212(3) 0.0572(3)
O8_2 O 0.5150(4) 0.6929(2) 0.0952(2)
O11_2 O 0.2639(5) 0.7903(3) 0.5074(3)
Zn5_2 Zn 0.51491(5) 0.62561(3) 0.07407(3)
Zn7_2 Zn 0.37144(7) 0.67679(4) 0.00614(4)
O13_2 O 0.4131(5) 0.7788(3) 0.5572(3)
O14_2 O 0.5150(4) 0.8071(2) 0.5952(2)
H24_2 H 0.451436 0.757049 0.468555
H25_2 H 0.362547 0.750679 0.451973
H26_2 H 0.355597 0.864194 0.423784
H27_2 H 0.270961 0.859622 0.447715
C26_3 C 0.1364(19) 0.7890(14) 0.0679(11)
H20_3 H 0.1617 0.7832 0.0976
H21_3 H 0.1468 0.8212 0.0578
H22_3 H 0.0819 0.7847 0.0716
C27_3 C 0.2350(10) 0.7336(7) 0.0380(6)
H23_3 H 0.2617 0.7369 0.0664
N5_3 N 0.1643(11) 0.7567(7) 0.0338(7)
O1_3 O 0.4832(4) 0.6398(4) 0.0001(3)
O3_3 O 0.5244(7) 0.5689(6) 0.0191(3)
O11_3 O 0.2639(5) 0.7097(3) 0.0074(3)
O12_2 O 0.5972(4) 0.5967(3) 0.1113(2)
O15_2 O 0.3353(5) 0.6293(3) 0.0572(3)
O16_2 O 0.4234(3) 0.5986(2) 0.1043(2)
Cu1_3 Cu 0.48343(6) 0.53092(4) 0.77574(4)
Cu2_3 Cu 0.56425(6) 0.49663(5) 0.70460(5)
Cu3_3 Cu 0.49121(7) 0.57904(5) 0.69546(5)
Cu4_3 Cu 0.41237(6) 0.49749(5) 0.70182(5)
I1_3 I 0.48546(4) 0.43771(2) 0.76086(2)
I2_3 I 0.35610(3) 0.57603(2) 0.74233(2)
I3_3 I 0.61731(3) 0.57519(2) 0.74802(2)
I4_3 I 0.49311(6) 0.51838(4) 0.62113(3)
C1_3 C 0.4840(7) 0.5974(4) 0.8560(4)
H1_3 H 0.4822 0.6197 0.8316
C2_3 C 0.4870(6) 0.6141(4) 0.9016(4)
H2_3 H 0.4854 0.6468 0.9075
C3_3 C 0.4922(5) 0.5828(5) 0.9380(4)
C4_3 C 0.4929(5) 0.5342(5) 0.9268(4)
H3_3 H 0.4975 0.5117 0.9509
C5_3 C 0.4870(5) 0.5193(4) 0.8808(3)
H4_3 H 0.4854 0.4866 0.8745
C6_3 C 0.5019(8) 0.5962(7) 0.9895(6)
C7_3 C 0.6400(8) 0.4255(5) 0.6467(6)
H5_3 H 0.5889 0.4169 0.6417
C8_3 C 0.6973(8) 0.4006(5) 0.6208(5)
H6_3 H 0.6851 0.3764 0.5995
C9_3 C 0.7733(6) 0.4147(5) 0.6293(5)
C10_3 C 0.7874(5) 0.4488(4) 0.6605(3)
H7_3 H 0.8380 0.4578 0.6665
C11_3 C 0.7271(5) 0.4718(3) 0.6846(3)
H8_3 H 0.7387 0.4958 0.7063
C12_3 C 0.8369(6) 0.3901(5) 0.6016(4)
C13_3 C 0.5316(7) 0.6794(5) 0.6719(5)
H9_3 H 0.5654 0.6775 0.6974
C14_3 C 0.5287(6) 0.7209(4) 0.6448(5)
H10_3 H 0.5664 0.7441 0.6496
C15_3 C 0.4744(6) 0.7293(4) 0.6122(4)
C16_3 C 0.4242(8) 0.6908(5) 0.6022(5)
H11_3 H 0.3854 0.6939 0.5797
C17_3 C 0.4346(9) 0.6473(5) 0.6273(5)
H12_3 H 0.4038 0.6212 0.6194
C18_3 C 0.4675(6) 0.7759(4) 0.5855(3)
C19_3 C 0.3404(7) 0.4274(5) 0.6413(5)
H13_3 H 0.3914 0.4178 0.6375
C20_3 C 0.2826(6) 0.4051(5) 0.6130(5)
H14_3 H 0.2959 0.3831 0.5897
C21_3 C 0.2068(6) 0.4170(4) 0.6208(4)
C22_3 C 0.1909(5) 0.4508(4) 0.6556(3)
H15_3 H 0.1400 0.4583 0.6628
C23_3 C 0.2484(5) 0.4726(4) 0.6791(4)
H16_3 H 0.2360 0.4966 0.7006
C24_3 C 0.1451(5) 0.3940(3) 0.5922(4)
C25_3 C 0.1296(15) 0.7605(10) 0.9890(7)
H17_3 H 0.1550 0.7394 0.9672
H18_3 H 0.0762 0.7519 0.9913
H19_3 H 0.1339 0.7929 0.9779
N1_3 N 0.4836(4) 0.5501(3) 0.8446(3)
N2_3 N 0.6538(4) 0.4600(3) 0.6773(4)
N3_3 N 0.4860(5) 0.6422(4) 0.6614(4)
N4_3 N 0.3248(5) 0.4610(3) 0.6726(4)
O2_3 O 0.4048(8) 0.7259(5) 0.9571(4)
O4_3 O 0.3257(6) 0.6318(3) 0.9535(4)
O5_3 O 0.8207(6) 0.3587(4) 0.5715(4)
O6_2 O 0.9028(4) 0.4033(3) 0.6113(2)
O9_2 O 0.1647(5) 0.3707(3) 0.5572(3)
O10_2 O 0.0766(3) 0.4014(2) 0.6043(2)
H24_3 H 0.451436 0.742951 0.968555
H25_3 H 0.362547 0.749321 0.951973
H26_3 H 0.355597 0.635806 0.923784
H27_3 H 0.270961 0.640378 0.947715
Cu1_4 Cu 0.01657(6) 0.46908(4) 0.27574(4)
Cu3_4 Cu 0.00879(7) 0.42096(5) 0.19546(5)
Cu4_4 Cu 0.08763(6) 0.50251(5) 0.20182(5)
I1_4 I 0.01454(4) 0.56229(2) 0.26086(2)
I2_4 I 0.14390(3) 0.42397(2) 0.24233(2)
I4_4 I 0.00689(6) 0.48162(4) 0.12113(3)
C1_4 C 0.0160(7) 0.4026(4) 0.3560(4)
H1_4 H 0.0178 0.3803 0.3316
C2_4 C 0.0130(6) 0.3859(4) 0.4016(4)
H2_4 H 0.0146 0.3532 0.4075
C3_4 C 0.0078(5) 0.4172(5) 0.4380(4)
C4_4 C 0.0071(5) 0.4658(5) 0.4268(4)
H3_4 H 0.0025 0.4883 0.4509
C5_4 C 0.0130(5) 0.4807(4) 0.3808(3)
H4_4 H 0.0146 0.5134 0.3745
C15_4 C 0.0256(6) 0.2707(4) 0.1122(4)
C16_4 C 0.0758(8) 0.3092(5) 0.1022(5)
H11_4 H 0.1146 0.3061 0.0797
C17_4 C 0.0654(9) 0.3527(5) 0.1273(5)
H12_4 H 0.0962 0.3788 0.1194
C18_4 C 0.0325(6) 0.2241(4) 0.0855(3)
C19_4 C 0.1596(7) 0.5726(5) 0.1413(5)
H13_4 H 0.1086 0.5822 0.1375
C20_4 C 0.2174(6) 0.5949(5) 0.1130(5)
H14_4 H 0.2041 0.6169 0.0897
C21_4 C 0.2932(6) 0.5830(4) 0.1208(4)
C22_4 C 0.3091(5) 0.5492(4) 0.1556(3)
H15_4 H 0.3600 0.5417 0.1628
C23_4 C 0.2516(5) 0.5274(4) 0.1791(4)
H16_4 H 0.2640 0.5034 0.2006
C24_4 C 0.3549(5) 0.6060(3) 0.0922(4)
C25_4 C 0.3704(15) 0.2395(10) 0.4890(7)
H17_4 H 0.3450 0.2606 0.4672
H18_4 H 0.4238 0.2481 0.4913
H19_4 H 0.3661 0.2071 0.4779
C26_4 C 0.3636(19) 0.2110(14) 0.5679(11)
H20_4 H 0.3383 0.2168 0.5976
H21_4 H 0.3532 0.1788 0.5578
H22_4 H 0.4181 0.2153 0.5716
C27_4 C 0.2650(10) 0.2664(7) 0.5380(6)
H23_4 H 0.2383 0.2631 0.5664
N1_4 N 0.0164(4) 0.4499(3) 0.3446(3)
N3_4 N 0.0140(5) 0.3578(4) 0.1614(4)
N4_4 N 0.1752(5) 0.5390(3) 0.1726(4)
N5_4 N 0.3357(11) 0.2433(7) 0.5338(7)
O1_4 O 0.0168(4) 0.3602(4) 0.5001(3)
O2_4 O 0.0952(8) 0.2741(5) 0.4571(4)
O4_4 O 0.1743(6) 0.3682(3) 0.4535(4)
O11_4 O 0.2361(5) 0.2903(3) 0.5074(3)
H24_4 H 0.0485639 0.257049 0.468555
H25_4 H 0.137453 0.250679 0.451973
H26_4 H 0.144403 0.364194 0.423784
H27_4 H 0.229039 0.359622 0.447715
Cu2_4 Cu 0.93575(6) 0.50337(5) 0.20460(5)
I3_4 I 0.88269(3) 0.42481(2) 0.24802(2)
C6_4 C 0.9981(8) 0.4038(7) 0.4895(6)
C7_4 C 0.8600(8) 0.5745(5) 0.1467(6)
H5_4 H 0.9111 0.5831 0.1417
C8_4 C 0.8027(8) 0.5994(5) 0.1208(5)
H6_4 H 0.8149 0.6236 0.0995
C9_4 C 0.7267(6) 0.5853(5) 0.1293(5)
C10_4 C 0.7126(5) 0.5512(4) 0.1605(3)
H7_4 H 0.6620 0.5422 0.1665
C11_4 C 0.7729(5) 0.5282(3) 0.1846(3)
H8_4 H 0.7613 0.5042 0.2063
C12_4 C 0.6631(6) 0.6099(5) 0.1016(4)
C13_4 C 0.9684(7) 0.3206(5) 0.1719(5)
H9_4 H 0.9346 0.3225 0.1974
C14_4 C 0.9713(6) 0.2791(4) 0.1448(5)
H10_4 H 0.9336 0.2559 0.1496
N2_4 N 0.8462(4) 0.5400(3) 0.1773(4)
O3_4 O 0.9756(7) 0.4311(6) 0.5191(3)
O5_4 O 0.6793(6) 0.6413(4) 0.0715(4)
Zn4_2 Zn 0.01491(5) 0.62561(3) 0.42593(3)
Cu1_5 Cu 0.51657(6) 0.46908(4) 0.22426(4)
Cu2_5 Cu 0.43575(6) 0.50337(5) 0.29540(5)
Cu3_5 Cu 0.50879(7) 0.42096(5) 0.30454(5)
Cu4_5 Cu 0.58763(6) 0.50251(5) 0.29818(5)
I1_5 I 0.51454(4) 0.56229(2) 0.23914(2)
I2_5 I 0.64390(3) 0.42397(2) 0.25767(2)
I3_5 I 0.38269(3) 0.42481(2) 0.25198(2)
I4_5 I 0.50689(6) 0.48162(4) 0.37887(3)
C1_5 C 0.5160(7) 0.4026(4) 0.1440(4)
H1_5 H 0.5178 0.3803 0.1684
C2_5 C 0.5130(6) 0.3859(4) 0.0984(4)
H2_5 H 0.5146 0.3532 0.0925
C3_5 C 0.5078(5) 0.4172(5) 0.0620(4)
C4_5 C 0.5071(5) 0.4658(5) 0.0732(4)
H3_5 H 0.5025 0.4883 0.0491
C5_5 C 0.5130(5) 0.4807(4) 0.1192(3)
H4_5 H 0.5146 0.5134 0.1255
C6_5 C 0.4981(8) 0.4038(7) 0.0105(6)
C7_5 C 0.3600(8) 0.5745(5) 0.3533(6)
H5_5 H 0.4111 0.5831 0.3583
C8_5 C 0.3027(8) 0.5994(5) 0.3792(5)
H6_5 H 0.3149 0.6236 0.4005
C9_5 C 0.2267(6) 0.5853(5) 0.3707(5)
C10_5 C 0.2126(5) 0.5512(4) 0.3395(3)
H7_5 H 0.1620 0.5422 0.3335
C11_5 C 0.2729(5) 0.5282(3) 0.3154(3)
H8_5 H 0.2613 0.5042 0.2937
C12_5 C 0.1631(6) 0.6099(5) 0.3984(4)
C13_5 C 0.4684(7) 0.3206(5) 0.3281(5)
H9_5 H 0.4346 0.3225 0.3026
C14_5 C 0.4713(6) 0.2791(4) 0.3552(5)
H10_5 H 0.4336 0.2559 0.3504
C15_5 C 0.5256(6) 0.2707(4) 0.3878(4)
C16_5 C 0.5758(8) 0.3092(5) 0.3978(5)
H11_5 H 0.6146 0.3061 0.4203
C17_5 C 0.5654(9) 0.3527(5) 0.3727(5)
H12_5 H 0.5962 0.3788 0.3806
C18_5 C 0.5325(6) 0.2241(4) 0.4145(3)
C19_5 C 0.6596(7) 0.5726(5) 0.3587(5)
H13_5 H 0.6086 0.5822 0.3625
C20_5 C 0.7174(6) 0.5949(5) 0.3870(5)
H14_5 H 0.7041 0.6169 0.4103
C21_5 C 0.7932(6) 0.5830(4) 0.3792(4)
C22_5 C 0.8091(5) 0.5492(4) 0.3444(3)
H15_5 H 0.8600 0.5417 0.3372
C23_5 C 0.7516(5) 0.5274(4) 0.3209(4)
H16_5 H 0.7640 0.5034 0.2994
C24_5 C 0.8549(5) 0.6060(3) 0.4078(4)
C25_5 C 0.8704(15) 0.2395(10) 0.0110(7)
H17_5 H 0.8450 0.2606 0.0328
H18_5 H 0.9238 0.2481 0.0087
H19_5 H 0.8661 0.2071 0.0221
N1_5 N 0.5164(4) 0.4499(3) 0.1554(3)
N2_5 N 0.3462(4) 0.5400(3) 0.3227(4)
N3_5 N 0.5140(5) 0.3578(4) 0.3386(4)
N4_5 N 0.6752(5) 0.5390(3) 0.3274(4)
O2_5 O 0.5952(8) 0.2741(5) 0.0429(4)
O4_5 O 0.6743(6) 0.3682(3) 0.0465(4)
O5_5 O 0.1793(6) 0.6413(4) 0.4285(4)
O6_3 O 0.0972(4) 0.5967(3) 0.3887(2)
O7_3 O 0.5869(5) 0.2212(3) 0.4428(3)
O8_3 O 0.4850(4) 0.1929(2) 0.4048(2)
O9_3 O 0.8353(5) 0.6293(3) 0.4428(3)
O10_3 O 0.9234(3) 0.5986(2) 0.3957(2)
Zn5_3 Zn 0.48509(5) 0.12561(3) 0.42593(3)
Zn6_2 Zn 0.87144(7) 0.67679(4) 0.49386(4)
Zn7_3 Zn 0.62856(7) 0.17679(4) 0.49386(4)
H24_5 H 0.548564 0.257049 0.0314447
H25_5 H 0.637453 0.250679 0.0480265
H26_5 H 0.644403 0.364194 0.0762162
H27_5 H 0.729039 0.359622 0.0522853
Zn1_2 Zn 0.48509(5) 0.37439(3) 0.92593(3)
Zn2_2 Zn 0.62856(7) 0.32321(4) 0.99386(4)
C26_5 C 0.8636(19) 0.2110(14) 0.9321(11)
H20_5 H 0.8383 0.2168 0.9024
H21_5 H 0.8532 0.1788 0.9422
H22_5 H 0.9181 0.2153 0.9284
C27_5 C 0.7650(10) 0.2664(7) 0.9620(6)
H23_5 H 0.7383 0.2631 0.9336
N5_5 N 0.8357(11) 0.2433(7) 0.9662(7)
O1_5 O 0.5168(4) 0.3602(4) 0.9999(3)
O3_5 O 0.4756(7) 0.4311(6) 0.9809(3)
O11_5 O 0.7361(5) 0.2903(3) 0.9926(3)
O12_3 O 0.4028(4) 0.4033(3) 0.8887(2)
O13_3 O 0.5869(5) 0.2788(3) 0.9428(3)
O14_3 O 0.4850(4) 0.3071(2) 0.9048(2)
O15_3 O 0.6647(5) 0.3707(3) 0.9428(3)
O16_3 O 0.5766(3) 0.4014(2) 0.8957(2)
Cu2_6 Cu 0.06425(6) 0.49663(5) 0.79540(5)
I3_6 I 0.11731(3) 0.57519(2) 0.75198(2)
C6_6 C 0.0019(8) 0.5962(7) 0.5105(6)
C7_6 C 0.1400(8) 0.4255(5) 0.8533(6)
H5_6 H 0.0889 0.4169 0.8583
C8_6 C 0.1973(8) 0.4006(5) 0.8792(5)
H6_6 H 0.1851 0.3764 0.9005
C9_6 C 0.2733(6) 0.4147(5) 0.8707(5)
C10_6 C 0.2874(5) 0.4488(4) 0.8395(3)
H7_6 H 0.3380 0.4578 0.8335
C11_6 C 0.2271(5) 0.4718(3) 0.8154(3)
H8_6 H 0.2387 0.4958 0.7937
C12_6 C 0.3369(6) 0.3901(5) 0.8984(4)
C13_6 C 0.0316(7) 0.6794(5) 0.8281(5)
H9_6 H 0.0654 0.6775 0.8026
C14_6 C 0.0287(6) 0.7209(4) 0.8552(5)
H10_6 H 0.0664 0.7441 0.8504
N2_6 N 0.1538(4) 0.4600(3) 0.8227(4)
O3_6 O 0.0244(7) 0.5689(6) 0.4809(3)
O5_6 O 0.3207(6) 0.3587(4) 0.9285(4)
O8_4 O 0.0150(4) 0.8071(2) 0.9048(2)
Zn5_4 Zn 0.01491(5) 0.87439(3) 0.92593(3)
O14_4 O 0.0150(4) 0.6929(2) 0.4048(2)
Cu1_6 Cu 0.98343(6) 0.53092(4) 0.72426(4)
Cu3_6 Cu 0.99121(7) 0.57904(5) 0.80454(5)
Cu4_6 Cu 0.91237(6) 0.49749(5) 0.79818(5)
I1_6 I 0.98546(4) 0.43771(2) 0.73914(2)
I2_6 I 0.85610(3) 0.57603(2) 0.75767(2)
I4_6 I 0.99311(6) 0.51838(4) 0.87887(3)
C1_6 C 0.9840(7) 0.5974(4) 0.6440(4)
H1_6 H 0.9822 0.6197 0.6684
C2_6 C 0.9870(6) 0.6141(4) 0.5984(4)
H2_6 H 0.9854 0.6468 0.5925
C3_6 C 0.9922(5) 0.5828(5) 0.5620(4)
C4_6 C 0.9929(5) 0.5342(5) 0.5732(4)
H3_6 H 0.9975 0.5117 0.5491
C5_6 C 0.9870(5) 0.5193(4) 0.6192(3)
H4_6 H 0.9854 0.4866 0.6255
C15_6 C 0.9744(6) 0.7293(4) 0.8878(4)
C16_6 C 0.9242(8) 0.6908(5) 0.8978(5)
H11_6 H 0.8854 0.6939 0.9203
C17_6 C 0.9346(9) 0.6473(5) 0.8727(5)
H12_6 H 0.9038 0.6212 0.8806
C18_6 C 0.9675(6) 0.7759(4) 0.9145(3)
C19_6 C 0.8404(7) 0.4274(5) 0.8587(5)
H13_6 H 0.8914 0.4178 0.8625
C20_6 C 0.7826(6) 0.4051(5) 0.8870(5)
H14_6 H 0.7959 0.3831 0.9103
C21_6 C 0.7068(6) 0.4170(4) 0.8792(4)
C22_6 C 0.6909(5) 0.4508(4) 0.8444(3)
H15_6 H 0.6400 0.4583 0.8372
C23_6 C 0.7484(5) 0.4726(4) 0.8209(4)
H16_6 H 0.7360 0.4966 0.7994
C24_6 C 0.6451(5) 0.3940(3) 0.9078(4)
C25_6 C 0.6296(15) 0.7605(10) 0.5110(7)
H17_6 H 0.6550 0.7394 0.5328
H18_6 H 0.5762 0.7519 0.5087
H19_6 H 0.6339 0.7929 0.5221
C26_6 C 0.6364(19) 0.7890(14) 0.4321(11)
H20_6 H 0.6617 0.7832 0.4024
H21_6 H 0.6468 0.8212 0.4422
H22_6 H 0.5819 0.7847 0.4284
C27_6 C 0.7350(10) 0.7336(7) 0.4620(6)
H23_6 H 0.7617 0.7369 0.4336
N1_6 N 0.9836(4) 0.5501(3) 0.6554(3)
N3_6 N 0.9860(5) 0.6422(4) 0.8386(4)
N4_6 N 0.8248(5) 0.4610(3) 0.8274(4)
N5_6 N 0.6643(11) 0.7567(7) 0.4662(7)
O1_6 O 0.9832(4) 0.6398(4) 0.4999(3)
O2_6 O 0.9048(8) 0.7259(5) 0.5429(4)
O4_6 O 0.8257(6) 0.6318(3) 0.5465(4)
O7_4 O 0.9131(5) 0.7788(3) 0.9428(3)
O11_6 O 0.7639(5) 0.7097(3) 0.4926(3)
Zn7_4 Zn 0.87144(7) 0.82321(4) 0.99386(4)
O13_4 O 0.9131(5) 0.7212(3) 0.4428(3)
H24_6 H 0.951436 0.742951 0.531445
H25_6 H 0.862547 0.749321 0.548027
H26_6 H 0.855597 0.635806 0.576216
H27_6 H 0.770961 0.640378 0.552285
Cu2_7 Cu 0.06425(6) 0.00337(5) 0.29540(5)
C7_7 C 0.1400(8) 0.0745(5) 0.3533(6)
H5_7 H 0.0889 0.0831 0.3583
C8_7 C 0.1973(8) 0.0994(5) 0.3792(5)
H6_7 H 0.1851 0.1236 0.4005
C9_7 C 0.2733(6) 0.0853(5) 0.3707(5)
C10_7 C 0.2874(5) 0.0512(4) 0.3395(3)
H7_7 H 0.3380 0.0422 0.3335
C11_7 C 0.2271(5) 0.0282(3) 0.3154(3)
H8_7 H 0.2387 0.0042 0.2937
C12_7 C 0.3369(6) 0.1099(5) 0.3984(4)
N2_7 N 0.1538(4) 0.0400(3) 0.3227(4)
O5_7 O 0.3207(6) 0.1413(4) 0.4285(4)
O6_4 O 0.4028(4) 0.0967(3) 0.3887(2)
I3_7 I 0.11731(3) 0.92481(2) 0.25198(2)
C6_7 C 0.0019(8) 0.9038(7) 0.0105(6)
C13_7 C 0.0316(7) 0.8206(5) 0.3281(5)
H9_7 H 0.0654 0.8225 0.3026
C14_7 C 0.0287(6) 0.7791(4) 0.3552(5)
H10_7 H 0.0664 0.7559 0.3504
O3_7 O 0.0244(7) 0.9311(6) 0.9809(3)
O12_4 O 0.0972(4) 0.9033(3) 0.8887(2)
Cu4_7 Cu 0.91237(6) 0.00251(5) 0.29818(5)
I1_7 I 0.98546(4) 0.06229(2) 0.23914(2)
H4_7 H 0.9854 0.0134 0.1255
C19_7 C 0.8404(7) 0.0726(5) 0.3587(5)
H13_7 H 0.8914 0.0822 0.3625
C20_7 C 0.7826(6) 0.0949(5) 0.3870(5)
H14_7 H 0.7959 0.1169 0.4103
C21_7 C 0.7068(6) 0.0830(4) 0.3792(4)
C22_7 C 0.6909(5) 0.0492(4) 0.3444(3)
H15_7 H 0.6400 0.0417 0.3372
C23_7 C 0.7484(5) 0.0274(4) 0.3209(4)
H16_7 H 0.7360 0.0034 0.2994
C24_7 C 0.6451(5) 0.1060(3) 0.4078(4)
N4_7 N 0.8248(5) 0.0390(3) 0.3274(4)
O9_4 O 0.6647(5) 0.1293(3) 0.4428(3)
O10_4 O 0.5766(3) 0.0986(2) 0.3957(2)
Cu1_7 Cu 0.98343(6) 0.96908(4) 0.22426(4)
Cu3_7 Cu 0.99121(7) 0.92096(5) 0.30454(5)
I2_7 I 0.85610(3) 0.92397(2) 0.25767(2)
I4_7 I 0.99311(6) 0.98162(4) 0.37887(3)
C1_7 C 0.9840(7) 0.9026(4) 0.1440(4)
H1_7 H 0.9822 0.8803 0.1684
C2_7 C 0.9870(6) 0.8859(4) 0.0984(4)
H2_7 H 0.9854 0.8532 0.0925
C3_7 C 0.9922(5) 0.9172(5) 0.0620(4)
C4_7 C 0.9929(5) 0.9658(5) 0.0732(4)
H3_7 H 0.9975 0.9883 0.0491
C5_7 C 0.9870(5) 0.9807(4) 0.1192(3)
C15_7 C 0.9744(6) 0.7707(4) 0.3878(4)
C16_7 C 0.9242(8) 0.8092(5) 0.3978(5)
H11_7 H 0.8854 0.8061 0.4203
C17_7 C 0.9346(9) 0.8527(5) 0.3727(5)
H12_7 H 0.9038 0.8788 0.3806
C18_7 C 0.9675(6) 0.7241(4) 0.4145(3)
C25_7 C 0.6296(15) 0.7395(10) 0.0110(7)
H17_7 H 0.6550 0.7606 0.0328
H18_7 H 0.5762 0.7481 0.0087
H19_7 H 0.6339 0.7071 0.0221
N1_7 N 0.9836(4) 0.9499(3) 0.1554(3)
N3_7 N 0.9860(5) 0.8578(4) 0.3386(4)
O2_7 O 0.9048(8) 0.7741(5) 0.0429(4)
O4_7 O 0.8257(6) 0.8682(3) 0.0465(4)
H24_7 H 0.951436 0.757049 0.0314447
H25_7 H 0.862547 0.750679 0.0480265
H26_7 H 0.855597 0.864194 0.0762162
H27_7 H 0.770961 0.859622 0.0522853
C26_7 C 0.6364(19) 0.7110(14) 0.9321(11)
H20_7 H 0.6617 0.7168 0.9024
H21_7 H 0.6468 0.6788 0.9422
H22_7 H 0.5819 0.7153 0.9284
C27_7 C 0.7350(10) 0.7664(7) 0.9620(6)
H23_7 H 0.7617 0.7631 0.9336
N5_7 N 0.6643(11) 0.7433(7) 0.9662(7)
O1_7 O 0.9832(4) 0.8602(4) 0.9999(3)
O11_7 O 0.7639(5) 0.7903(3) 0.9926(3)
O15_4 O 0.8353(5) 0.8707(3) 0.9428(3)
O16_4 O 0.9234(3) 0.9014(2) 0.8957(2)
Cu1_8 Cu 0.51657(6) 0.03092(4) 0.72426(4)
Cu3_8 Cu 0.50879(7) 0.07904(5) 0.80454(5)
I2_8 I 0.64390(3) 0.07603(2) 0.75767(2)
I3_8 I 0.38269(3) 0.07519(2) 0.75198(2)
I4_8 I 0.50689(6) 0.01838(4) 0.87887(3)
C1_8 C 0.5160(7) 0.0974(4) 0.6440(4)
H1_8 H 0.5178 0.1197 0.6684
C2_8 C 0.5130(6) 0.1141(4) 0.5984(4)
H2_8 H 0.5146 0.1468 0.5925
C3_8 C 0.5078(5) 0.0828(5) 0.5620(4)
C4_8 C 0.5071(5) 0.0342(5) 0.5732(4)
H3_8 H 0.5025 0.0117 0.5491
C5_8 C 0.5130(5) 0.0193(4) 0.6192(3)
C6_8 C 0.4981(8) 0.0962(7) 0.5105(6)
C13_8 C 0.4684(7) 0.1794(5) 0.8281(5)
H9_8 H 0.4346 0.1775 0.8026
C14_8 C 0.4713(6) 0.2209(4) 0.8552(5)
H10_8 H 0.4336 0.2441 0.8504
C15_8 C 0.5256(6) 0.2293(4) 0.8878(4)
C16_8 C 0.5758(8) 0.1908(5) 0.8978(5)
H11_8 H 0.6146 0.1939 0.9203
C17_8 C 0.5654(9) 0.1473(5) 0.8727(5)
H12_8 H 0.5962 0.1212 0.8806
C18_8 C 0.5325(6) 0.2759(4) 0.9145(3)
C25_8 C 0.8704(15) 0.2605(10) 0.5110(7)
H17_8 H 0.8450 0.2394 0.5328
H18_8 H 0.9238 0.2519 0.5087
H19_8 H 0.8661 0.2929 0.5221
C26_8 C 0.8636(19) 0.2890(14) 0.4321(11)
H20_8 H 0.8383 0.2832 0.4024
H21_8 H 0.8532 0.3212 0.4422
H22_8 H 0.9181 0.2847 0.4284
C27_8 C 0.7650(10) 0.2336(7) 0.4620(6)
H23_8 H 0.7383 0.2369 0.4336
N1_8 N 0.5164(4) 0.0501(3) 0.6554(3)
N3_8 N 0.5140(5) 0.1422(4) 0.8386(4)
N5_8 N 0.8357(11) 0.2567(7) 0.4662(7)
O1_8 O 0.5168(4) 0.1398(4) 0.4999(3)
O2_8 O 0.5952(8) 0.2259(5) 0.5429(4)
O3_8 O 0.4756(7) 0.0689(6) 0.4809(3)
O4_8 O 0.6743(6) 0.1318(3) 0.5465(4)
O11_8 O 0.7361(5) 0.2097(3) 0.4926(3)
H24_8 H 0.548564 0.242951 0.531445
H25_8 H 0.637453 0.249321 0.548027
H26_8 H 0.644403 0.135806 0.576216
H27_8 H 0.729039 0.140378 0.552285
Cu2_8 Cu 0.43575(6) 0.99663(5) 0.79540(5)
Cu4_8 Cu 0.58763(6) 0.99749(5) 0.79818(5)
I1_8 I 0.51454(4) 0.93771(2) 0.73914(2)
H4_8 H 0.5146 0.9866 0.6255
C7_8 C 0.3600(8) 0.9255(5) 0.8533(6)
H5_8 H 0.4111 0.9169 0.8583
C8_8 C 0.3027(8) 0.9006(5) 0.8792(5)
H6_8 H 0.3149 0.8764 0.9005
C9_8 C 0.2267(6) 0.9147(5) 0.8707(5)
C10_8 C 0.2126(5) 0.9488(4) 0.8395(3)
H7_8 H 0.1620 0.9578 0.8335
C11_8 C 0.2729(5) 0.9718(3) 0.8154(3)
H8_8 H 0.2613 0.9958 0.7937
C12_8 C 0.1631(6) 0.8901(5) 0.8984(4)
C19_8 C 0.6596(7) 0.9274(5) 0.8587(5)
H13_8 H 0.6086 0.9178 0.8625
C20_8 C 0.7174(6) 0.9051(5) 0.8870(5)
H14_8 H 0.7041 0.8831 0.9103
C21_8 C 0.7932(6) 0.9170(4) 0.8792(4)
C22_8 C 0.8091(5) 0.9508(4) 0.8444(3)
H15_8 H 0.8600 0.9583 0.8372
C23_8 C 0.7516(5) 0.9726(4) 0.8209(4)
H16_8 H 0.7640 0.9966 0.7994
C24_8 C 0.8549(5) 0.8940(3) 0.9078(4)
N2_8 N 0.3462(4) 0.9600(3) 0.8227(4)
N4_8 N 0.6752(5) 0.9610(3) 0.8274(4)
O5_8 O 0.1793(6) 0.8587(4) 0.9285(4)
loop_
_geom_bond_atom_site_label_1
_geom_bond_atom_site_label_2
_geom_bond_site_symmetry_1
_geom_bond_site_symmetry_2
Zn2 O1 1_555 1_555
C26 H20 1_555 1_555
H21 C26 1_555 1_555
H22 C26 1_555 1_555
C27 H23 1_555 1_555
O11 Zn2 1_555 1_555
O13 Zn2 1_555 1_555
O15 Zn2 1_555 1_555
C26 N5 1_555 1_555
C27 N5 1_555 1_555
C27 O11 1_555 1_555
Cu3 I2 1_555 1_555
I2 Cu1 1_555 1_555
C1 H1 1_555 1_555
C2 C1 1_555 1_555
H2 C2 1_555 1_555
C3 C2 1_555 1_555
C4 C3 1_555 1_555
H3 C4 1_555 1_555
C5 C4 1_555 1_555
C16 C15 1_555 1_555
H11 C16 1_555 1_555
C17 C16 1_555 1_555
H12 C17 1_555 1_555
C18 C15 1_555 1_555
C25 H17 1_555 1_555
H18 C25 1_555 1_555
H19 C25 1_555 1_555
N1 Cu1 1_555 1_555
N3 Cu3 1_555 1_555
O7 C18 1_555 1_555
Zn7 O7 1_555 1_555
Cu3 I4 1_555 1_555
C1 N1 1_555 1_555
C5 N1 1_555 1_555
C17 N3 1_555 1_555
O2 H24 1_555 1_555
O2 H25 1_555 1_555
O4 H26 1_555 1_555
O4 H27 1_555 1_555
Cu4 I1 1_555 1_555
C19 H13 1_555 1_555
C20 C19 1_555 1_555
H14 C20 1_555 1_555
C21 C20 1_555 1_555
C22 C21 1_555 1_555
H15 C22 1_555 1_555
C23 C22 1_555 1_555
H16 C23 1_555 1_555
C24 C21 1_555 1_555
N4 Cu4 1_555 1_555
O9 C24 1_555 1_555
O10 C24 1_555 1_555
Zn4 O10 1_555 1_555
Zn6 O9 1_555 1_555
C19 N4 1_555 1_555
C23 N4 1_555 1_555
O3 Zn1 1_555 1_555
O12 Zn1 1_555 1_555
O14 Zn1 1_555 1_555
C13 H9 1_555 1_555
C14 C13 1_555 1_555
H10 C14 1_555 1_555
Zn5 O8 1_555 1_555
C7 H5 1_555 1_555
C8 C7 1_555 1_555
H6 C8 1_555 1_555
C9 C8 1_555 1_555
C10 C9 1_555 1_555
H7 C10 1_555 1_555
C11 C10 1_555 1_555
H8 C11 1_555 1_555
C12 C9 1_555 1_555
N2 Cu2 1_555 1_555
O5 C12 1_555 1_555
O6 C12 1_555 1_555
Zn4 O6 1_555 1_555
C7 N2 1_555 1_555
C11 N2 1_555 1_555
Cu2_2 I1_2 1_555 1_555
Cu4_2 I1_2 1_555 1_555
C7_2 H5_2 1_555 1_555
C8_2 C7_2 1_555 1_555
H6_2 C8_2 1_555 1_555
C9_2 C8_2 1_555 1_555
C10_2 C9_2 1_555 1_555
H7_2 C10_2 1_555 1_555
C11_2 C10_2 1_555 1_555
H8_2 C11_2 1_555 1_555
C12_2 C9_2 1_555 1_555
C19_2 H13_2 1_555 1_555
C20_2 C19_2 1_555 1_555
H14_2 C20_2 1_555 1_555
C21_2 C20_2 1_555 1_555
C22_2 C21_2 1_555 1_555
H15_2 C22_2 1_555 1_555
C23_2 C22_2 1_555 1_555
H16_2 C23_2 1_555 1_555
C24_2 C21_2 1_555 1_555
N2_2 Cu2_2 1_555 1_555
N4_2 Cu4_2 1_555 1_555
O5_2 C12_2 1_555 1_555
O12 C12_2 1_555 1_555
O15 C24_2 1_555 1_555
O16 C24_2 1_555 1_555
C7_2 N2_2 1_555 1_555
C11_2 N2_2 1_555 1_555
C19_2 N4_2 1_555 1_555
C23_2 N4_2 1_555 1_555
Zn4 O1_2 1_555 1_555
Zn6 O1_2 1_555 1_555
Cu3_2 I2_2 1_555 1_555
I2_2 Cu1_2 1_555 1_555
I3_2 Cu1_2 1_555 1_555
C1_2 H1_2 1_555 1_555
C2_2 C1_2 1_555 1_555
H2_2 C2_2 1_555 1_555
C3_2 C2_2 1_555 1_555
C4_2 C3_2 1_555 1_555
H3_2 C4_2 1_555 1_555
C5_2 C4_2 1_555 1_555
C6_2 C3_2 1_555 1_555
C13_2 H9_2 1_555 1_555
C14_2 C13_2 1_555 1_555
H10_2 C14_2 1_555 1_555
C15_2 C14_2 1_555 1_555
C16_2 C15_2 1_555 1_555
H11_2 C16_2 1_555 1_555
C17_2 C16_2 1_555 1_555
H12_2 C17_2 1_555 1_555
C18_2 C15_2 1_555 1_555
C25_2 H17_2 1_555 1_555
H18_2 C25_2 1_555 1_555
H19_2 C25_2 1_555 1_555
C26_2 H20_2 1_555 1_555
H21_2 C26_2 1_555 1_555
H22_2 C26_2 1_555 1_555
C27_2 H23_2 1_555 1_555
N1_2 Cu1_2 1_555 1_555
N3_2 Cu3_2 1_555 1_555
N5_2 C25_2 1_555 1_555
O1_2 C6_2 1_555 1_555
O2_2 Zn6 1_555 1_555
O3_2 Zn4 1_555 1_555
O4_2 Zn6 1_555 1_555
O7_2 C18_2 1_555 1_555
O8_2 C18_2 1_555 1_555
O11_2 Zn6 1_555 1_555
Zn5_2 O8_2 1_555 1_555
Zn7_2 O7_2 1_555 1_555
O13_2 Zn6 1_555 1_555
O14_2 Zn4 1_555 1_555
Cu3_2 I3_2 1_555 1_555
Cu3_2 I4_2 1_555 1_555
C1_2 N1_2 1_555 1_555
C5_2 N1_2 1_555 1_555
C6_2 O3_2 1_555 1_555
C13_2 N3_2 1_555 1_555
C17_2 N3_2 1_555 1_555
C26_2 N5_2 1_555 1_555
C27_2 N5_2 1_555 1_555
C27_2 O11_2 1_555 1_555
O2_2 H24_2 1_555 1_555
O2_2 H25_2 1_555 1_555
O4_2 H26_2 1_555 1_555
O4_2 H27_2 1_555 1_555
Zn5_2 O1_3 1_555 1_555
Zn7_2 O1_3 1_555 1_555
C26_3 H20_3 1_555 1_555
H21_3 C26_3 1_555 1_555
H22_3 C26_3 1_555 1_555
C27_3 H23_3 1_555 1_555
O3_3 Zn5_2 1_555 1_555
O11_3 Zn7_2 1_555 1_555
O12_2 Zn5_2 1_555 1_555
O15_2 Zn7_2 1_555 1_555
O16_2 Zn5_2 1_555 1_555
C26_3 N5_3 1_555 1_555
C27_3 N5_3 1_555 1_555
C27_3 O11_3 1_555 1_555
Cu1_3 I1_3 1_555 1_555
Cu2_3 I1_3 1_555 1_555
Cu3_3 I2_3 1_555 1_555
Cu4_3 I1_3 1_555 1_555
I2_3 Cu1_3 1_555 1_555
I3_3 Cu1_3 1_555 1_555
I4_3 Cu2_3 1_555 1_555
C1_3 H1_3 1_555 1_555
C2_3 C1_3 1_555 1_555
H2_3 C2_3 1_555 1_555
C3_3 C2_3 1_555 1_555
C4_3 C3_3 1_555 1_555
H3_3 C4_3 1_555 1_555
C5_3 C4_3 1_555 1_555
H4_3 C5_3 1_555 1_555
C6_3 C3_3 1_555 1_555
C7_3 H5_3 1_555 1_555
C8_3 C7_3 1_555 1_555
H6_3 C8_3 1_555 1_555
C9_3 C8_3 1_555 1_555
C10_3 C9_3 1_555 1_555
H7_3 C10_3 1_555 1_555
C11_3 C10_3 1_555 1_555
H8_3 C11_3 1_555 1_555
C12_3 C9_3 1_555 1_555
C13_3 H9_3 1_555 1_555
C14_3 C13_3 1_555 1_555
H10_3 C14_3 1_555 1_555
C15_3 C14_3 1_555 1_555
C16_3 C15_3 1_555 1_555
H11_3 C16_3 1_555 1_555
C17_3 C16_3 1_555 1_555
H12_3 C17_3 1_555 1_555
C18_3 C15_3 1_555 1_555
C19_3 H13_3 1_555 1_555
C20_3 C19_3 1_555 1_555
H14_3 C20_3 1_555 1_555
C21_3 C20_3 1_555 1_555
C22_3 C21_3 1_555 1_555
H15_3 C22_3 1_555 1_555
C23_3 C22_3 1_555 1_555
H16_3 C23_3 1_555 1_555
C24_3 C21_3 1_555 1_555
C25_3 H17_3 1_555 1_555
H18_3 C25_3 1_555 1_555
H19_3 C25_3 1_555 1_555
N1_3 Cu1_3 1_555 1_555
N2_3 Cu2_3 1_555 1_555
N3_3 Cu3_3 1_555 1_555
N4_3 Cu4_3 1_555 1_555
O5_3 C12_3 1_555 1_555
O6_2 C12_3 1_555 1_555
O13_2 C18_3 1_555 1_555
O14_2 C18_3 1_555 1_555
O9_2 C24_3 1_555 1_555
O10_2 C24_3 1_555 1_555
Zn5 O6_2 1_555 1_555
Zn7 O9_2 1_555 1_555
Cu2_3 I3_3 1_555 1_555
Cu3_3 I3_3 1_555 1_555
Cu3_3 I4_3 1_555 1_555
Cu4_3 I2_3 1_555 1_555
Cu4_3 I4_3 1_555 1_555
C1_3 N1_3 1_555 1_555
C5_3 N1_3 1_555 1_555
C7_3 N2_3 1_555 1_555
C11_3 N2_3 1_555 1_555
C13_3 N3_3 1_555 1_555
C17_3 N3_3 1_555 1_555
C19_3 N4_3 1_555 1_555
C23_3 N4_3 1_555 1_555
O2_3 H24_3 1_555 1_555
O2_3 H25_3 1_555 1_555
O4_3 H26_3 1_555 1_555
O4_3 H27_3 1_555 1_555
Zn7 O1_4 1_555 1_555
Cu1_4 I1_4 1_555 1_555
Cu3_4 I2_4 1_555 1_555
Cu4_4 I1_4 1_555 1_555
I2_4 Cu1_4 1_555 1_555
C1_4 H1_4 1_555 1_555
C2_4 C1_4 1_555 1_555
H2_4 C2_4 1_555 1_555
C3_4 C2_4 1_555 1_555
C4_4 C3_4 1_555 1_555
H3_4 C4_4 1_555 1_555
C5_4 C4_4 1_555 1_555
H4_4 C5_4 1_555 1_555
C16_4 C15_4 1_555 1_555
H11_4 C16_4 1_555 1_555
C17_4 C16_4 1_555 1_555
H12_4 C17_4 1_555 1_555
C18_4 C15_4 1_555 1_555
C19_4 H13_4 1_555 1_555
C20_4 C19_4 1_555 1_555
H14_4 C20_4 1_555 1_555
C21_4 C20_4 1_555 1_555
C22_4 C21_4 1_555 1_555
H15_4 C22_4 1_555 1_555
C23_4 C22_4 1_555 1_555
H16_4 C23_4 1_555 1_555
C24_4 C21_4 1_555 1_555
C25_4 H17_4 1_555 1_555
H18_4 C25_4 1_555 1_555
H19_4 C25_4 1_555 1_555
C26_4 H20_4 1_555 1_555
H21_4 C26_4 1_555 1_555
H22_4 C26_4 1_555 1_555
C27_4 H23_4 1_555 1_555
N1_4 Cu1_4 1_555 1_555
N3_4 Cu3_4 1_555 1_555
N4_4 Cu4_4 1_555 1_555
N5_4 C25_4 1_555 1_555
O2_4 Zn7 1_555 1_555
O4_4 Zn7 1_555 1_555
O13 C18_4 1_555 1_555
O15_2 C24_4 1_555 1_555
O16_2 C24_4 1_555 1_555
O11_4 Zn7 1_555 1_555
Cu3_4 I4_4 1_555 1_555
Cu4_4 I2_4 1_555 1_555
Cu4_4 I4_4 1_555 1_555
C1_4 N1_4 1_555 1_555
C5_4 N1_4 1_555 1_555
C17_4 N3_4 1_555 1_555
C19_4 N4_4 1_555 1_555
C23_4 N4_4 1_555 1_555
C26_4 N5_4 1_555 1_555
C27_4 N5_4 1_555 1_555
C27_4 O11_4 1_555 1_555
O2_4 H24_4 1_555 1_555
O2_4 H25_4 1_555 1_555
O4_4 H26_4 1_555 1_555
O4_4 H27_4 1_555 1_555
C7_4 H5_4 1_555 1_555
C8_4 C7_4 1_555 1_555
H6_4 C8_4 1_555 1_555
C9_4 C8_4 1_555 1_555
C10_4 C9_4 1_555 1_555
H7_4 C10_4 1_555 1_555
C11_4 C10_4 1_555 1_555
H8_4 C11_4 1_555 1_555
C12_4 C9_4 1_555 1_555
C13_4 H9_4 1_555 1_555
C14_4 C13_4 1_555 1_555
H10_4 C14_4 1_555 1_555
N2_4 Cu2_4 1_555 1_555
O3_4 Zn5 1_555 1_555
O5_4 C12_4 1_555 1_555
O12_2 C12_4 1_555 1_555
Cu2_4 I3_4 1_555 1_555
C6_4 O3_4 1_555 1_555
C7_4 N2_4 1_555 1_555
C11_4 N2_4 1_555 1_555
Cu1_5 I1_5 1_555 1_555
Cu2_5 I1_5 1_555 1_555
Cu3_5 I2_5 1_555 1_555
Cu4_5 I1_5 1_555 1_555
I2_5 Cu1_5 1_555 1_555
I3_5 Cu1_5 1_555 1_555
I4_5 Cu2_5 1_555 1_555
C1_5 H1_5 1_555 1_555
C2_5 C1_5 1_555 1_555
H2_5 C2_5 1_555 1_555
C3_5 C2_5 1_555 1_555
C4_5 C3_5 1_555 1_555
H3_5 C4_5 1_555 1_555
C5_5 C4_5 1_555 1_555
H4_5 C5_5 1_555 1_555
C6_5 C3_5 1_555 1_555
C7_5 H5_5 1_555 1_555
C8_5 C7_5 1_555 1_555
H6_5 C8_5 1_555 1_555
C9_5 C8_5 1_555 1_555
C10_5 C9_5 1_555 1_555
H7_5 C10_5 1_555 1_555
C11_5 C10_5 1_555 1_555
H8_5 C11_5 1_555 1_555
C12_5 C9_5 1_555 1_555
C13_5 H9_5 1_555 1_555
C14_5 C13_5 1_555 1_555
H10_5 C14_5 1_555 1_555
C15_5 C14_5 1_555 1_555
C16_5 C15_5 1_555 1_555
H11_5 C16_5 1_555 1_555
C17_5 C16_5 1_555 1_555
H12_5 C17_5 1_555 1_555
C18_5 C15_5 1_555 1_555
C19_5 H13_5 1_555 1_555
C20_5 C19_5 1_555 1_555
H14_5 C20_5 1_555 1_555
C21_5 C20_5 1_555 1_555
C22_5 C21_5 1_555 1_555
H15_5 C22_5 1_555 1_555
C23_5 C22_5 1_555 1_555
H16_5 C23_5 1_555 1_555
C24_5 C21_5 1_555 1_555
C25_5 H17_5 1_555 1_555
H18_5 C25_5 1_555 1_555
H19_5 C25_5 1_555 1_555
N1_5 Cu1_5 1_555 1_555
N2_5 Cu2_5 1_555 1_555
N3_5 Cu3_5 1_555 1_555
N4_5 Cu4_5 1_555 1_555
O5_5 C12_5 1_555 1_555
O6_3 C12_5 1_555 1_555
O7_3 C18_5 1_555 1_555
O8_3 C18_5 1_555 1_555
O9_3 C24_5 1_555 1_555
O10_3 C24_5 1_555 1_555
Zn4_2 O6_3 1_555 1_555
Zn5_3 O8_3 1_555 1_555
Zn6_2 O9_3 1_555 1_555
Zn7_3 O7_3 1_555 1_555
Cu2_5 I3_5 1_555 1_555
Cu3_5 I3_5 1_555 1_555
Cu3_5 I4_5 1_555 1_555
Cu4_5 I2_5 1_555 1_555
Cu4_5 I4_5 1_555 1_555
C1_5 N1_5 1_555 1_555
C5_5 N1_5 1_555 1_555
C7_5 N2_5 1_555 1_555
C11_5 N2_5 1_555 1_555
C13_5 N3_5 1_555 1_555
C17_5 N3_5 1_555 1_555
C19_5 N4_5 1_555 1_555
C23_5 N4_5 1_555 1_555
O2_5 H24_5 1_555 1_555
O2_5 H25_5 1_555 1_555
O4_5 H26_5 1_555 1_555
O4_5 H27_5 1_555 1_555
Zn1_2 O1_5 1_555 1_555
Zn2_2 O1_5 1_555 1_555
C26_5 H20_5 1_555 1_555
H21_5 C26_5 1_555 1_555
H22_5 C26_5 1_555 1_555
C27_5 H23_5 1_555 1_555
O3_5 Zn1_2 1_555 1_555
O11_5 Zn2_2 1_555 1_555
O12_3 Zn1_2 1_555 1_555
O13_3 Zn2_2 1_555 1_555
O14_3 Zn1_2 1_555 1_555
O15_3 Zn2_2 1_555 1_555
O16_3 Zn1_2 1_555 1_555
C26_5 N5_5 1_555 1_555
C27_5 N5_5 1_555 1_555
C27_5 O11_5 1_555 1_555
C7_6 H5_6 1_555 1_555
C8_6 C7_6 1_555 1_555
H6_6 C8_6 1_555 1_555
C9_6 C8_6 1_555 1_555
C10_6 C9_6 1_555 1_555
H7_6 C10_6 1_555 1_555
C11_6 C10_6 1_555 1_555
H8_6 C11_6 1_555 1_555
C12_6 C9_6 1_555 1_555
C13_6 H9_6 1_555 1_555
C14_6 C13_6 1_555 1_555
H10_6 C14_6 1_555 1_555
N2_6 Cu2_6 1_555 1_555
O3_6 Zn4_2 1_555 1_555
O5_6 C12_6 1_555 1_555
O12_3 C12_6 1_555 1_555
Zn5_4 O8_4 1_555 1_555
O14_4 Zn4_2 1_555 1_555
Cu2_6 I3_6 1_555 1_555
C6_6 O3_6 1_555 1_555
C7_6 N2_6 1_555 1_555
C11_6 N2_6 1_555 1_555
Zn6_2 O1_6 1_555 1_555
Cu1_6 I1_6 1_555 1_555
Cu3_6 I2_6 1_555 1_555
Cu4_6 I1_6 1_555 1_555
I2_6 Cu1_6 1_555 1_555
C1_6 H1_6 1_555 1_555
C2_6 C1_6 1_555 1_555
H2_6 C2_6 1_555 1_555
C3_6 C2_6 1_555 1_555
C4_6 C3_6 1_555 1_555
H3_6 C4_6 1_555 1_555
C5_6 C4_6 1_555 1_555
H4_6 C5_6 1_555 1_555
C16_6 C15_6 1_555 1_555
H11_6 C16_6 1_555 1_555
C17_6 C16_6 1_555 1_555
H12_6 C17_6 1_555 1_555
C18_6 C15_6 1_555 1_555
C19_6 H13_6 1_555 1_555
C20_6 C19_6 1_555 1_555
H14_6 C20_6 1_555 1_555
C21_6 C20_6 1_555 1_555
C22_6 C21_6 1_555 1_555
H15_6 C22_6 1_555 1_555
C23_6 C22_6 1_555 1_555
H16_6 C23_6 1_555 1_555
C24_6 C21_6 1_555 1_555
C25_6 H17_6 1_555 1_555
H18_6 C25_6 1_555 1_555
H19_6 C25_6 1_555 1_555
C26_6 H20_6 1_555 1_555
H21_6 C26_6 1_555 1_555
H22_6 C26_6 1_555 1_555
C27_6 H23_6 1_555 1_555
N1_6 Cu1_6 1_555 1_555
N3_6 Cu3_6 1_555 1_555
N4_6 Cu4_6 1_555 1_555
N5_6 C25_6 1_555 1_555
O2_6 Zn6_2 1_555 1_555
O4_6 Zn6_2 1_555 1_555
O7_4 C18_6 1_555 1_555
O15_3 C24_6 1_555 1_555
O16_3 C24_6 1_555 1_555
O11_6 Zn6_2 1_555 1_555
Zn7_4 O7_4 1_555 1_555
O13_4 Zn6_2 1_555 1_555
Cu3_6 I4_6 1_555 1_555
Cu4_6 I2_6 1_555 1_555
Cu4_6 I4_6 1_555 1_555
C1_6 N1_6 1_555 1_555
C5_6 N1_6 1_555 1_555
C17_6 N3_6 1_555 1_555
C19_6 N4_6 1_555 1_555
C23_6 N4_6 1_555 1_555
C26_6 N5_6 1_555 1_555
C27_6 N5_6 1_555 1_555
C27_6 O11_6 1_555 1_555
O2_6 H24_6 1_555 1_555
O2_6 H25_6 1_555 1_555
O4_6 H26_6 1_555 1_555
O4_6 H27_6 1_555 1_555
C7_7 H5_7 1_555 1_555
C8_7 C7_7 1_555 1_555
H6_7 C8_7 1_555 1_555
C9_7 C8_7 1_555 1_555
C10_7 C9_7 1_555 1_555
H7_7 C10_7 1_555 1_555
C11_7 C10_7 1_555 1_555
H8_7 C11_7 1_555 1_555
C12_7 C9_7 1_555 1_555
N2_7 Cu2_7 1_555 1_555
O5_7 C12_7 1_555 1_555
O6_4 C12_7 1_555 1_555
Zn5_3 O6_4 1_555 1_555
C7_7 N2_7 1_555 1_555
C11_7 N2_7 1_555 1_555
C13_7 H9_7 1_555 1_555
C14_7 C13_7 1_555 1_555
H10_7 C14_7 1_555 1_555
O3_7 Zn5_4 1_555 1_555
O12_4 Zn5_4 1_555 1_555
Cu4_7 I1_7 1_555 1_555
C19_7 H13_7 1_555 1_555
C20_7 C19_7 1_555 1_555
H14_7 C20_7 1_555 1_555
C21_7 C20_7 1_555 1_555
C22_7 C21_7 1_555 1_555
H15_7 C22_7 1_555 1_555
C23_7 C22_7 1_555 1_555
H16_7 C23_7 1_555 1_555
C24_7 C21_7 1_555 1_555
N4_7 Cu4_7 1_555 1_555
O9_4 C24_7 1_555 1_555
O10_4 C24_7 1_555 1_555
Zn5_3 O10_4 1_555 1_555
Zn7_3 O9_4 1_555 1_555
C19_7 N4_7 1_555 1_555
C23_7 N4_7 1_555 1_555
Cu3_7 I2_7 1_555 1_555
I2_7 Cu1_7 1_555 1_555
C1_7 H1_7 1_555 1_555
C2_7 C1_7 1_555 1_555
H2_7 C2_7 1_555 1_555
C3_7 C2_7 1_555 1_555
C4_7 C3_7 1_555 1_555
H3_7 C4_7 1_555 1_555
C5_7 C4_7 1_555 1_555
C16_7 C15_7 1_555 1_555
H11_7 C16_7 1_555 1_555
C17_7 C16_7 1_555 1_555
H12_7 C17_7 1_555 1_555
C18_7 C15_7 1_555 1_555
C25_7 H17_7 1_555 1_555
H18_7 C25_7 1_555 1_555
H19_7 C25_7 1_555 1_555
N1_7 Cu1_7 1_555 1_555
N3_7 Cu3_7 1_555 1_555
O13_4 C18_7 1_555 1_555
Cu3_7 I4_7 1_555 1_555
C1_7 N1_7 1_555 1_555
C5_7 N1_7 1_555 1_555
C17_7 N3_7 1_555 1_555
O2_7 H24_7 1_555 1_555
O2_7 H25_7 1_555 1_555
O4_7 H26_7 1_555 1_555
O4_7 H27_7 1_555 1_555
Zn7_4 O1_7 1_555 1_555
C26_7 H20_7 1_555 1_555
H21_7 C26_7 1_555 1_555
H22_7 C26_7 1_555 1_555
C27_7 H23_7 1_555 1_555
O11_7 Zn7_4 1_555 1_555
O15_4 Zn7_4 1_555 1_555
C26_7 N5_7 1_555 1_555
C27_7 N5_7 1_555 1_555
C27_7 O11_7 1_555 1_555
Zn5_3 O1_8 1_555 1_555
Zn7_3 O1_8 1_555 1_555
Cu3_8 I2_8 1_555 1_555
I2_8 Cu1_8 1_555 1_555
I3_8 Cu1_8 1_555 1_555
C1_8 H1_8 1_555 1_555
C2_8 C1_8 1_555 1_555
H2_8 C2_8 1_555 1_555
C3_8 C2_8 1_555 1_555
C4_8 C3_8 1_555 1_555
H3_8 C4_8 1_555 1_555
C5_8 C4_8 1_555 1_555
C6_8 C3_8 1_555 1_555
C13_8 H9_8 1_555 1_555
C14_8 C13_8 1_555 1_555
H10_8 C14_8 1_555 1_555
C15_8 C14_8 1_555 1_555
C16_8 C15_8 1_555 1_555
H11_8 C16_8 1_555 1_555
C17_8 C16_8 1_555 1_555
H12_8 C17_8 1_555 1_555
C18_8 C15_8 1_555 1_555
C25_8 H17_8 1_555 1_555
H18_8 C25_8 1_555 1_555
H19_8 C25_8 1_555 1_555
C26_8 H20_8 1_555 1_555
H21_8 C26_8 1_555 1_555
H22_8 C26_8 1_555 1_555
C27_8 H23_8 1_555 1_555
N1_8 Cu1_8 1_555 1_555
N3_8 Cu3_8 1_555 1_555
N5_8 C25_8 1_555 1_555
O1_8 C6_8 1_555 1_555
O2_8 Zn7_3 1_555 1_555
O3_8 Zn5_3 1_555 1_555
O4_8 Zn7_3 1_555 1_555
O13_3 C18_8 1_555 1_555
O14_3 C18_8 1_555 1_555
O11_8 Zn7_3 1_555 1_555
Cu3_8 I3_8 1_555 1_555
Cu3_8 I4_8 1_555 1_555
C1_8 N1_8 1_555 1_555
C5_8 N1_8 1_555 1_555
C6_8 O3_8 1_555 1_555
C13_8 N3_8 1_555 1_555
C17_8 N3_8 1_555 1_555
C26_8 N5_8 1_555 1_555
C27_8 N5_8 1_555 1_555
C27_8 O11_8 1_555 1_555
O2_8 H24_8 1_555 1_555
O2_8 H25_8 1_555 1_555
O4_8 H26_8 1_555 1_555
O4_8 H27_8 1_555 1_555
Cu2_8 I1_8 1_555 1_555
Cu4_8 I1_8 1_555 1_555
C7_8 H5_8 1_555 1_555
C8_8 C7_8 1_555 1_555
H6_8 C8_8 1_555 1_555
C9_8 C8_8 1_555 1_555
C10_8 C9_8 1_555 1_555
H7_8 C10_8 1_555 1_555
C11_8 C10_8 1_555 1_555
H8_8 C11_8 1_555 1_555
C12_8 C9_8 1_555 1_555
C19_8 H13_8 1_555 1_555
C20_8 C19_8 1_555 1_555
H14_8 C20_8 1_555 1_555
C21_8 C20_8 1_555 1_555
C22_8 C21_8 1_555 1_555
H15_8 C22_8 1_555 1_555
C23_8 C22_8 1_555 1_555
H16_8 C23_8 1_555 1_555
C24_8 C21_8 1_555 1_555
N2_8 Cu2_8 1_555 1_555
N4_8 Cu4_8 1_555 1_555
O5_8 C12_8 1_555 1_555
O12_4 C12_8 1_555 1_555
O15_4 C24_8 1_555 1_555
O16_4 C24_8 1_555 1_555
C7_8 N2_8 1_555 1_555
C11_8 N2_8 1_555 1_555
C19_8 N4_8 1_555 1_555
C23_8 N4_8 1_555 1_555

#END
