
###############################################################################
#
# This file contains modified crystal structure data generated from the
# MOF subset of the Cambridge Structural Database (CSD) v543 
# hosted by the Cambridge Crystallographic Data Centre (CCDC).
#
# This work is licensed under the Creative Commons
# Attribution-NonCommercial-ShareAlike 4.0 International License.
# To view a copy of this license, visit
# http://creativecommons.org/licenses/by-nc-sa/4.0/
# or send a letter to
# Creative Commons, PO Box 1866, Mountain View, CA 94042, USA.
#
# CIF created using the CSD Python API on 29 September 2022
# The structure has been converted into the P1 space group
# The structure has a 3D framework
# The original CSD entry NEFTOJ is in the orthorhombic crystal system
# The framework has been calculated to contain at least 10.0% void space
# The void calculation uses a probe of radius 1.32A, grid spacing 0.4
#
###############################################################################

data_NEFTOJ
_chemical_formula_moiety         '(C80 H40 Cu8 N24 O32)n'
_symmetry_cell_setting           triclinic
_symmetry_space_group_name_H-M   'P 1'
_symmetry_Int_Tables_number      1
_space_group_name_Hall           'P 1'
loop_
_symmetry_equiv_pos_site_id
_symmetry_equiv_pos_as_xyz
1 x,y,z
_cell_length_a                   12.0546(7)
_cell_length_b                   14.5444(7)
_cell_length_c                   20.4026(11)
_cell_angle_alpha                90
_cell_angle_beta                 90
_cell_angle_gamma                90
_cell_volume                     3577.13
loop_
_atom_site_label
_atom_site_type_symbol
_atom_site_fract_x
_atom_site_fract_y
_atom_site_fract_z
N1 N 0.3206(4) 0.6315(3) 0.1171(3)
N2 N 0.2593(5) 0.6257(3) 0.0155(3)
N3 N 0.2048(5) 0.6337(4) 0.1190(3)
C9 C 0.1728(6) 0.6322(6) 0.0585(3)
H4 H 0.0989 0.6353 0.0457
C10 C 0.3501(6) 0.6253(5) 0.0556(3)
H5 H 0.4231 0.6211 0.0411
Cu5 Cu 0.42745(5) 0.63490(5) 0.20022(3)
Cu1 Cu 0.42745(5) 0.36510(5) 0.70022(3)
O1 O 0.3550(4) 0.4638(3) 0.7532(2)
O2 O 0.4722(4) 0.4572(3) 0.8381(2)
O3 O 0.1464(4) 0.7701(3) 0.7531(2)
O4 O 0.0283(4) 0.7718(3) 0.8368(2)
C1 C 0.3865(6) 0.4866(4) 0.8077(3)
C2 C 0.3196(5) 0.5554(4) 0.8454(3)
C3 C 0.1126(6) 0.7466(4) 0.8075(3)
C4 C 0.2548(6) 0.6206(4) 0.9458(3)
C5 C 0.1847(6) 0.6793(4) 0.9128(3)
H1 H 0.1384 0.7193 0.9355
C6 C 0.3221(5) 0.5579(4) 0.9124(3)
H2 H 0.3682 0.5183 0.9355
C7 C 0.2498(6) 0.6160(4) 0.8096(3)
H3 H 0.2482 0.6141 0.7640
C8 C 0.1845(5) 0.6775(4) 0.8435(3)
Cu2 Cu 0.57255(5) 0.36510(5) 0.79978(3)
Cu3 Cu 0.07255(5) 0.86510(5) 0.70022(3)
O5 O 0.5278(4) 0.4572(3) 0.6619(2)
O6 O 0.3536(4) 0.2701(3) 0.7531(2)
O7 O 0.5283(4) 0.2718(3) 0.6632(2)
N4 N 0.3206(4) 0.3685(3) 0.6171(3)
Cu4 Cu 0.92745(5) 0.86510(5) 0.79978(3)
Cu1_2 Cu 0.07255(5) 0.13490(5) 0.20022(3)
O1_2 O 0.1450(4) 0.0362(3) 0.2532(2)
O2_2 O 0.0278(4) 0.0428(3) 0.3381(2)
C1_2 C 0.1135(6) 0.0134(4) 0.3077(3)
O6_2 O 0.1464(4) 0.2299(3) 0.2531(2)
N4_2 N 0.1794(4) 0.1315(3) 0.1171(3)
O3_2 O 0.3536(4) 0.7299(3) 0.2531(2)
O4_2 O 0.4717(4) 0.7282(3) 0.3368(2)
N1_2 N 0.1794(4) 0.8685(3) 0.6171(3)
N2_2 N 0.2407(5) 0.8743(3) 0.5155(3)
N3_2 N 0.2952(5) 0.8663(4) 0.6190(3)
C2_2 C 0.1804(5) 0.9446(4) 0.3454(3)
C3_2 C 0.3874(6) 0.7534(4) 0.3075(3)
C4_2 C 0.2452(6) 0.8794(4) 0.4458(3)
C5_2 C 0.3153(6) 0.8207(4) 0.4128(3)
H1_2 H 0.3616 0.7807 0.4355
C6_2 C 0.1779(5) 0.9421(4) 0.4124(3)
H2_2 H 0.1318 0.9817 0.4355
C7_2 C 0.2502(6) 0.8840(4) 0.3096(3)
H3_2 H 0.2518 0.8859 0.2640
C8_2 C 0.3155(5) 0.8225(4) 0.3435(3)
C9_2 C 0.3272(6) 0.8678(6) 0.5585(3)
H4_2 H 0.4011 0.8647 0.5457
C10_2 C 0.1499(6) 0.8747(5) 0.5556(3)
H5_2 H 0.0769 0.8789 0.5411
Cu4_2 Cu 0.57255(5) 0.63490(5) 0.29978(3)
Cu2_2 Cu 0.92745(5) 0.13490(5) 0.29978(3)
O5_2 O 0.9722(4) 0.0428(3) 0.1619(2)
O7_2 O 0.9717(4) 0.2282(3) 0.1632(2)
O7_3 O 0.0283(4) 0.2282(3) 0.3368(2)
O1_3 O 0.8550(4) 0.0362(3) 0.2468(2)
C1_3 C 0.8865(6) 0.0134(4) 0.1923(3)
O6_3 O 0.8536(4) 0.2299(3) 0.2469(2)
N4_3 N 0.8206(4) 0.1315(3) 0.3829(3)
O3_3 O 0.6464(4) 0.7299(3) 0.2469(2)
O4_3 O 0.5283(4) 0.7282(3) 0.1632(2)
C2_3 C 0.8196(5) 0.9446(4) 0.1546(3)
C3_3 C 0.6126(6) 0.7534(4) 0.1925(3)
C4_3 C 0.7548(6) 0.8794(4) 0.0542(3)
C5_3 C 0.6847(6) 0.8207(4) 0.0872(3)
H1_3 H 0.6384 0.7807 0.0645
C6_3 C 0.8221(5) 0.9421(4) 0.0876(3)
H2_3 H 0.8682 0.9817 0.0645
C7_3 C 0.7498(6) 0.8840(4) 0.1904(3)
H3_3 H 0.7482 0.8859 0.2360
C8_3 C 0.6845(5) 0.8225(4) 0.1565(3)
N1_3 N 0.8206(4) 0.8685(3) 0.8829(3)
N2_3 N 0.7593(5) 0.8743(3) 0.9845(3)
N3_3 N 0.7048(5) 0.8663(4) 0.8810(3)
C9_3 C 0.6728(6) 0.8678(6) 0.9415(3)
H4_3 H 0.5989 0.8647 0.9543
C10_3 C 0.8501(6) 0.8747(5) 0.9444(3)
H5_3 H 0.9231 0.8789 0.9589
O1_4 O 0.6450(4) 0.4638(3) 0.7468(2)
O3_4 O 0.8536(4) 0.7701(3) 0.7469(2)
O4_4 O 0.9717(4) 0.7718(3) 0.6632(2)
N1_4 N 0.6794(4) 0.6315(3) 0.3829(3)
N2_4 N 0.7407(5) 0.6257(3) 0.4845(3)
N3_4 N 0.7952(5) 0.6337(4) 0.3810(3)
C1_4 C 0.6135(6) 0.4866(4) 0.6923(3)
C2_4 C 0.6804(5) 0.5554(4) 0.6546(3)
C3_4 C 0.8874(6) 0.7466(4) 0.6925(3)
C4_4 C 0.7452(6) 0.6206(4) 0.5542(3)
C5_4 C 0.8153(6) 0.6793(4) 0.5872(3)
H1_4 H 0.8616 0.7193 0.5645
C6_4 C 0.6779(5) 0.5579(4) 0.5876(3)
H2_4 H 0.6318 0.5183 0.5645
C7_4 C 0.7502(6) 0.6160(4) 0.6904(3)
H3_4 H 0.7518 0.6141 0.7360
C8_4 C 0.8155(5) 0.6775(4) 0.6565(3)
C9_4 C 0.8272(6) 0.6322(6) 0.4415(3)
H4_4 H 0.9011 0.6353 0.4543
C10_4 C 0.6499(6) 0.6253(5) 0.4444(3)
H5_4 H 0.5769 0.6211 0.4589
O6_4 O 0.6464(4) 0.2701(3) 0.7469(2)
O7_4 O 0.4717(4) 0.2718(3) 0.8368(2)
N4_4 N 0.6794(4) 0.3685(3) 0.8829(3)
O1_5 O 0.6450(4) 0.5362(3) 0.2468(2)
O2_3 O 0.5278(4) 0.5428(3) 0.1619(2)
C1_5 C 0.6135(6) 0.5134(4) 0.1923(3)
C2_5 C 0.6804(5) 0.4446(4) 0.1546(3)
C3_5 C 0.8874(6) 0.2534(4) 0.1925(3)
C4_5 C 0.7452(6) 0.3794(4) 0.0542(3)
C5_5 C 0.8153(6) 0.3207(4) 0.0872(3)
H1_5 H 0.8616 0.2807 0.0645
C6_5 C 0.6779(5) 0.4421(4) 0.0876(3)
H2_5 H 0.6318 0.4817 0.0645
C7_5 C 0.7502(6) 0.3840(4) 0.1904(3)
H3_5 H 0.7518 0.3859 0.2360
C8_5 C 0.8155(5) 0.3225(4) 0.1565(3)
O5_3 O 0.4722(4) 0.5428(3) 0.3381(2)
N2_5 N 0.7407(5) 0.3743(3) 0.9845(3)
N3_5 N 0.7952(5) 0.3663(4) 0.8810(3)
C9_5 C 0.8272(6) 0.3678(6) 0.9415(3)
H4_5 H 0.9011 0.3647 0.9543
C10_5 C 0.6499(6) 0.3747(5) 0.9444(3)
H5_5 H 0.5769 0.3789 0.9589
O5_4 O 0.0278(4) 0.9572(3) 0.8381(2)
N2_6 N 0.7593(5) 0.1257(3) 0.4845(3)
N3_6 N 0.7048(5) 0.1337(4) 0.3810(3)
C2_6 C 0.8196(5) 0.0554(4) 0.6546(3)
C3_6 C 0.6126(6) 0.2466(4) 0.6925(3)
C4_6 C 0.7548(6) 0.1206(4) 0.5542(3)
C5_6 C 0.6847(6) 0.1793(4) 0.5872(3)
H1_6 H 0.6384 0.2193 0.5645
C6_6 C 0.8221(5) 0.0579(4) 0.5876(3)
H2_6 H 0.8682 0.0183 0.5645
C7_6 C 0.7498(6) 0.1160(4) 0.6904(3)
H3_6 H 0.7482 0.1141 0.7360
C8_6 C 0.6845(5) 0.1775(4) 0.6565(3)
C9_6 C 0.6728(6) 0.1322(6) 0.4415(3)
H4_6 H 0.5989 0.1353 0.4543
C10_6 C 0.8501(6) 0.1253(5) 0.4444(3)
H5_6 H 0.9231 0.1211 0.4589
O1_6 O 0.8550(4) 0.9638(3) 0.7468(2)
O2_4 O 0.9722(4) 0.9572(3) 0.6619(2)
C1_6 C 0.8865(6) 0.9866(4) 0.6923(3)
N2_7 N 0.2407(5) 0.1257(3) 0.0155(3)
N3_7 N 0.2952(5) 0.1337(4) 0.1190(3)
C9_7 C 0.3272(6) 0.1322(6) 0.0585(3)
H4_7 H 0.4011 0.1353 0.0457
C10_7 C 0.1499(6) 0.1253(5) 0.0556(3)
H5_7 H 0.0769 0.1211 0.0411
C2_7 C 0.1804(5) 0.0554(4) 0.8454(3)
C3_7 C 0.3874(6) 0.2466(4) 0.8075(3)
C4_7 C 0.2452(6) 0.1206(4) 0.9458(3)
C5_7 C 0.3153(6) 0.1793(4) 0.9128(3)
H1_7 H 0.3616 0.2193 0.9355
C6_7 C 0.1779(5) 0.0579(4) 0.9124(3)
H2_7 H 0.1318 0.0183 0.9355
C7_7 C 0.2502(6) 0.1160(4) 0.8096(3)
H3_7 H 0.2518 0.1141 0.7640
C8_7 C 0.3155(5) 0.1775(4) 0.8435(3)
O1_7 O 0.1450(4) 0.9638(3) 0.7532(2)
C1_7 C 0.1135(6) 0.9866(4) 0.8077(3)
O1_8 O 0.3550(4) 0.5362(3) 0.2532(2)
N2_8 N 0.2593(5) 0.3743(3) 0.5155(3)
N3_8 N 0.2048(5) 0.3663(4) 0.6190(3)
C1_8 C 0.3865(6) 0.5134(4) 0.3077(3)
C2_8 C 0.3196(5) 0.4446(4) 0.3454(3)
C3_8 C 0.1126(6) 0.2534(4) 0.3075(3)
C4_8 C 0.2548(6) 0.3794(4) 0.4458(3)
C5_8 C 0.1847(6) 0.3207(4) 0.4128(3)
H1_8 H 0.1384 0.2807 0.4355
C6_8 C 0.3221(5) 0.4421(4) 0.4124(3)
H2_8 H 0.3682 0.4817 0.4355
C7_8 C 0.2498(6) 0.3840(4) 0.3096(3)
H3_8 H 0.2482 0.3859 0.2640
C8_8 C 0.1845(5) 0.3225(4) 0.3435(3)
C9_8 C 0.1728(6) 0.3678(6) 0.5585(3)
H4_8 H 0.0989 0.3647 0.5457
C10_8 C 0.3501(6) 0.3747(5) 0.5556(3)
H5_8 H 0.4231 0.3789 0.5411
loop_
_geom_bond_atom_site_label_1
_geom_bond_atom_site_label_2
_geom_bond_site_symmetry_1
_geom_bond_site_symmetry_2
N1 N3 1_555 1_555
N3 C9 1_555 1_555
C9 N2 1_555 1_555
H4 C9 1_555 1_555
C10 N1 1_555 1_555
H5 C10 1_555 1_555
Cu5 N1 1_555 1_555
N2 C10 1_555 1_555
Cu1 O1 1_555 1_555
O1 C1 1_555 1_555
O2 C1 1_555 1_555
O3 C3 1_555 1_555
O4 C3 1_555 1_555
C1 C2 1_555 1_555
C2 C6 1_555 1_555
C3 C8 1_555 1_555
C4 C5 1_555 1_555
C5 H1 1_555 1_555
C6 C4 1_555 1_555
H2 C6 1_555 1_555
C7 C2 1_555 1_555
H3 C7 1_555 1_555
C8 C5 1_555 1_555
Cu2 O2 1_555 1_555
Cu3 O3 1_555 1_555
O5 Cu1 1_555 1_555
O6 Cu1 1_555 1_555
O7 Cu1 1_555 1_555
N4 Cu1 1_555 1_555
C7 C8 1_555 1_555
Cu1_2 O1_2 1_555 1_555
O1_2 C1_2 1_555 1_555
O2_2 C1_2 1_555 1_555
O6_2 Cu1_2 1_555 1_555
N4_2 Cu1_2 1_555 1_555
O3_2 C3_2 1_555 1_555
O4_2 C3_2 1_555 1_555
N1_2 N3_2 1_555 1_555
N2_2 C4_2 1_555 1_555
N3_2 C9_2 1_555 1_555
C2_2 C6_2 1_555 1_555
C3_2 C8_2 1_555 1_555
C4_2 C5_2 1_555 1_555
C5_2 H1_2 1_555 1_555
C6_2 C4_2 1_555 1_555
H2_2 C6_2 1_555 1_555
C7_2 C2_2 1_555 1_555
H3_2 C7_2 1_555 1_555
C8_2 C5_2 1_555 1_555
C9_2 N2_2 1_555 1_555
H4_2 C9_2 1_555 1_555
C10_2 N1_2 1_555 1_555
H5_2 C10_2 1_555 1_555
Cu5 O3_2 1_555 1_555
Cu4_2 O4_2 1_555 1_555
Cu3 N1_2 1_555 1_555
N2_2 C10_2 1_555 1_555
C7_2 C8_2 1_555 1_555
Cu2_2 O1_3 1_555 1_555
O1_3 C1_3 1_555 1_555
O5_2 C1_3 1_555 1_555
O6_3 Cu2_2 1_555 1_555
N4_3 Cu2_2 1_555 1_555
O3_3 C3_3 1_555 1_555
O4_3 C3_3 1_555 1_555
C2_3 C6_3 1_555 1_555
C3_3 C8_3 1_555 1_555
C4_3 C5_3 1_555 1_555
C5_3 H1_3 1_555 1_555
C6_3 C4_3 1_555 1_555
H2_3 C6_3 1_555 1_555
C7_3 C2_3 1_555 1_555
H3_3 C7_3 1_555 1_555
C8_3 C5_3 1_555 1_555
Cu4_2 O3_3 1_555 1_555
Cu5 O4_3 1_555 1_555
C7_3 C8_3 1_555 1_555
N1_3 N3_3 1_555 1_555
N3_3 C9_3 1_555 1_555
C9_3 N2_3 1_555 1_555
H4_3 C9_3 1_555 1_555
C10_3 N1_3 1_555 1_555
H5_3 C10_3 1_555 1_555
Cu4 N1_3 1_555 1_555
N2_3 C10_3 1_555 1_555
Cu2 O1_4 1_555 1_555
O1_4 C1_4 1_555 1_555
O5 C1_4 1_555 1_555
O3_4 C3_4 1_555 1_555
O4_4 C3_4 1_555 1_555
N1_4 N3_4 1_555 1_555
N2_4 C4_4 1_555 1_555
N3_4 C9_4 1_555 1_555
C1_4 C2_4 1_555 1_555
C2_4 C6_4 1_555 1_555
C3_4 C8_4 1_555 1_555
C4_4 C5_4 1_555 1_555
C5_4 H1_4 1_555 1_555
C6_4 C4_4 1_555 1_555
H2_4 C6_4 1_555 1_555
C7_4 C2_4 1_555 1_555
H3_4 C7_4 1_555 1_555
C8_4 C5_4 1_555 1_555
C9_4 N2_4 1_555 1_555
H4_4 C9_4 1_555 1_555
C10_4 N1_4 1_555 1_555
H5_4 C10_4 1_555 1_555
Cu4 O3_4 1_555 1_555
Cu4_2 N1_4 1_555 1_555
O6_4 Cu2 1_555 1_555
O7_4 Cu2 1_555 1_555
N4_4 Cu2 1_555 1_555
N2_4 C10_4 1_555 1_555
C7_4 C8_4 1_555 1_555
Cu4_2 O1_5 1_555 1_555
O1_5 C1_5 1_555 1_555
O2_3 C1_5 1_555 1_555
O6_3 C3_5 1_555 1_555
O7_2 C3_5 1_555 1_555
C1_5 C2_5 1_555 1_555
C2_5 C6_5 1_555 1_555
C3_5 C8_5 1_555 1_555
C4_5 C5_5 1_555 1_555
C5_5 H1_5 1_555 1_555
C6_5 C4_5 1_555 1_555
H2_5 C6_5 1_555 1_555
C7_5 C2_5 1_555 1_555
H3_5 C7_5 1_555 1_555
C8_5 C5_5 1_555 1_555
Cu5 O2_3 1_555 1_555
O5_3 Cu4_2 1_555 1_555
C7_5 C8_5 1_555 1_555
N4_4 N3_5 1_555 1_555
N3_5 C9_5 1_555 1_555
C9_5 N2_5 1_555 1_555
H4_5 C9_5 1_555 1_555
C10_5 N4_4 1_555 1_555
H5_5 C10_5 1_555 1_555
N2_5 C10_5 1_555 1_555
O6_4 C3_6 1_555 1_555
O7 C3_6 1_555 1_555
N4_3 N3_6 1_555 1_555
N2_6 C4_6 1_555 1_555
N3_6 C9_6 1_555 1_555
C2_6 C6_6 1_555 1_555
C3_6 C8_6 1_555 1_555
C4_6 C5_6 1_555 1_555
C5_6 H1_6 1_555 1_555
C6_6 C4_6 1_555 1_555
H2_6 C6_6 1_555 1_555
C7_6 C2_6 1_555 1_555
H3_6 C7_6 1_555 1_555
C8_6 C5_6 1_555 1_555
C9_6 N2_6 1_555 1_555
H4_6 C9_6 1_555 1_555
C10_6 N4_3 1_555 1_555
H5_6 C10_6 1_555 1_555
N2_6 C10_6 1_555 1_555
C7_6 C8_6 1_555 1_555
Cu4 O1_6 1_555 1_555
O1_6 C1_6 1_555 1_555
O2_4 C1_6 1_555 1_555
N4_2 N3_7 1_555 1_555
N3_7 C9_7 1_555 1_555
C9_7 N2_7 1_555 1_555
H4_7 C9_7 1_555 1_555
C10_7 N4_2 1_555 1_555
H5_7 C10_7 1_555 1_555
N2_7 C10_7 1_555 1_555
O6 C3_7 1_555 1_555
O7_4 C3_7 1_555 1_555
C2_7 C6_7 1_555 1_555
C3_7 C8_7 1_555 1_555
C4_7 C5_7 1_555 1_555
C5_7 H1_7 1_555 1_555
C6_7 C4_7 1_555 1_555
H2_7 C6_7 1_555 1_555
C7_7 C2_7 1_555 1_555
H3_7 C7_7 1_555 1_555
C8_7 C5_7 1_555 1_555
C7_7 C8_7 1_555 1_555
Cu3 O1_7 1_555 1_555
O1_7 C1_7 1_555 1_555
O5_4 C1_7 1_555 1_555
Cu5 O1_8 1_555 1_555
O1_8 C1_8 1_555 1_555
O5_3 C1_8 1_555 1_555
O6_2 C3_8 1_555 1_555
O7_3 C3_8 1_555 1_555
N4 N3_8 1_555 1_555
N2_8 C4_8 1_555 1_555
N3_8 C9_8 1_555 1_555
C1_8 C2_8 1_555 1_555
C2_8 C6_8 1_555 1_555
C3_8 C8_8 1_555 1_555
C4_8 C5_8 1_555 1_555
C5_8 H1_8 1_555 1_555
C6_8 C4_8 1_555 1_555
H2_8 C6_8 1_555 1_555
C7_8 C2_8 1_555 1_555
H3_8 C7_8 1_555 1_555
C8_8 C5_8 1_555 1_555
C9_8 N2_8 1_555 1_555
H4_8 C9_8 1_555 1_555
C10_8 N4 1_555 1_555
H5_8 C10_8 1_555 1_555
N2_8 C10_8 1_555 1_555
C7_8 C8_8 1_555 1_555

#END
