
###############################################################################
#
# This file contains modified crystal structure data generated from the
# MOF subset of the Cambridge Structural Database (CSD) v543 
# hosted by the Cambridge Crystallographic Data Centre (CCDC).
#
# This work is licensed under the Creative Commons
# Attribution-NonCommercial-ShareAlike 4.0 International License.
# To view a copy of this license, visit
# http://creativecommons.org/licenses/by-nc-sa/4.0/
# or send a letter to
# Creative Commons, PO Box 1866, Mountain View, CA 94042, USA.
#
# CIF created using the CSD Python API on 29 September 2022
# The structure has been converted into the P1 space group
# The structure has a 3D framework
# The original CSD entry NEGHEQ is in the monoclinic crystal system
# The framework has been calculated to contain at least 10.0% void space
# The void calculation uses a probe of radius 1.32A, grid spacing 0.4
#
###############################################################################

data_NEGHEQ
_chemical_formula_moiety         '(C152 H144 Eu8 N32 O88)n'
_symmetry_cell_setting           triclinic
_symmetry_space_group_name_H-M   'P 1'
_symmetry_Int_Tables_number      1
_space_group_name_Hall           'P 1'
loop_
_symmetry_equiv_pos_site_id
_symmetry_equiv_pos_as_xyz
1 x,y,z
_cell_length_a                   29.736(8)
_cell_length_b                   12.178(4)
_cell_length_c                   15.077(4)
_cell_angle_alpha                90
_cell_angle_beta                 96.638(6)
_cell_angle_gamma                90
_cell_volume                     5423.16
loop_
_atom_site_label
_atom_site_type_symbol
_atom_site_fract_x
_atom_site_fract_y
_atom_site_fract_z
N7 N 0.6178(9) 0.111(2) 0.1200(16)
C36 C 0.6171(8) 0.022(2) 0.0632(15)
C37 C 0.6623(11) 0.160(2) 0.138(2)
H31 H 0.6836 0.1085 0.1669
H32 H 0.6719 0.1827 0.0824
H33 H 0.6608 0.2234 0.1761
C38 C 0.5758(10) 0.144(2) 0.152(2)
H34 H 0.5535 0.1593 0.1023
H35 H 0.5653 0.0851 0.1868
H36 H 0.5809 0.2081 0.1884
N3 N 0.3822(9) 0.111(2) 0.3800(16)
C17 C 0.3829(8) 0.022(2) 0.4368(15)
C18 C 0.3377(11) 0.160(2) 0.362(2)
H13 H 0.3164 0.1085 0.3331
H14 H 0.3281 0.1827 0.4176
H15 H 0.3392 0.2234 0.3239
C19 C 0.4242(10) 0.144(2) 0.348(2)
H16 H 0.4465 0.1593 0.3977
H17 H 0.4347 0.0851 0.3132
H18 H 0.4191 0.2081 0.3116
Eu2 Eu 0.68677(2) 0.81551(6) 0.00609(4)
O18 O 0.6712(4) 0.8079(9) 0.1603(8)
O19 O 0.6506(4) 0.9878(10) 0.0327(8)
O21 O 0.6111(4) 0.7263(10) 0.0171(8)
N6 N 0.6736(7) 0.7932(13) 0.3126(13)
C33 C 0.6932(7) 0.7942(14) 0.2325(12)
H23 H 0.7243 0.7834 0.2361
C34 C 0.7047(9) 0.779(2) 0.3924(15)
H24 H 0.7188 0.7091 0.3871
H25 H 0.7275 0.8356 0.3986
H26 H 0.6886 0.7796 0.4440
C35 C 0.6254(7) 0.8122(19) 0.3055(18)
H27 H 0.6192 0.8840 0.2808
H28 H 0.6092 0.7582 0.2679
H29 H 0.6160 0.8086 0.3642
H30 H 0.5902 0.9837 0.0501
O23 O 0.7440(3) 0.6939(7) 0.0788(6)
O28 O 0.7471(3) 0.9283(8) 0.0759(6)
Eu1 Eu 0.31323(2) 0.81551(6) 0.49391(4)
O1 O 0.2560(3) 0.6939(7) 0.4212(6)
O2 O 0.2037(3) 0.5719(8) 0.3765(6)
O3 O 0.2471(3) 0.4283(8) 0.0759(6)
O4 O 0.3163(3) 0.3503(8) 0.0782(6)
O5 O 0.3808(3) 0.4013(11) 0.5033(8)
O6 O 0.4385(3) 0.5812(11) 0.2768(7)
O7 O 0.3288(4) 0.8079(9) 0.3397(8)
O8 O 0.3494(4) 0.9878(10) 0.4673(8)
O9 O 0.3841(4) 0.8190(10) 0.6040(8)
O10 O 0.3889(4) 0.7263(10) 0.4829(8)
O11 O 0.4456(6) 0.7262(18) 0.5932(13)
N1 N 0.3993(4) 0.4856(11) 0.3740(7)
N2 N 0.3264(7) 0.7932(13) 0.1874(13)
N4 N 0.4056(5) 0.7575(15) 0.5591(12)
C1 C 0.2441(5) 0.6062(12) 0.3800(8)
C2 C 0.2783(4) 0.5482(11) 0.3318(8)
C3 C 0.2670(4) 0.5068(10) 0.2467(9)
H1 H 0.2374 0.5113 0.2195
C4 C 0.3002(4) 0.4584(11) 0.2022(8)
C5 C 0.3447(4) 0.4505(10) 0.2424(8)
H2 H 0.3673 0.4185 0.2133
C6 C 0.3536(5) 0.4933(12) 0.3287(9)
C7 C 0.3214(4) 0.5414(12) 0.3691(9)
H3 H 0.3290 0.5715 0.4255
C8 C 0.2870(5) 0.4056(11) 0.1111(9)
C9 C 0.4080(5) 0.4445(13) 0.4627(10)
C10 C 0.4570(4) 0.4682(13) 0.4928(9)
C11 C 0.4739(4) 0.5209(12) 0.4216(8)
C12 C 0.4387(5) 0.5344(13) 0.3466(9)
C13 C 0.4805(4) 0.4432(13) 0.5724(9)
H4 H 0.4682 0.4067 0.6181
C14 C 0.3068(7) 0.7942(14) 0.2675(12)
H5 H 0.2757 0.7834 0.2639
C15 C 0.2953(9) 0.779(2) 0.1076(15)
H6 H 0.2812 0.7091 0.1129
H7 H 0.2725 0.8356 0.1014
H8 H 0.3114 0.7796 0.0560
C16 C 0.3746(7) 0.8122(19) 0.1945(18)
H9 H 0.3808 0.8840 0.2192
H10 H 0.3908 0.7582 0.2321
H11 H 0.3840 0.8086 0.1358
H12 H 0.4098 0.9837 0.4499
O12 O 0.7440(3) 0.3061(7) 0.5788(6)
O13 O 0.7963(3) 0.4281(8) 0.6235(6)
O14 O 0.7529(3) 0.5717(8) 0.9241(6)
O15 O 0.6837(3) 0.6497(8) 0.9218(6)
O16 O 0.6192(3) 0.5987(11) 0.4967(8)
O17 O 0.5615(3) 0.4188(11) 0.7232(7)
N5 N 0.6007(4) 0.5144(11) 0.6260(7)
C20 C 0.7559(5) 0.3938(12) 0.6200(8)
C21 C 0.7217(4) 0.4518(11) 0.6682(8)
C22 C 0.7330(4) 0.4932(10) 0.7533(9)
H19 H 0.7626 0.4887 0.7805
C23 C 0.6998(4) 0.5416(11) 0.7978(8)
C24 C 0.6553(4) 0.5495(10) 0.7576(8)
H20 H 0.6327 0.5815 0.7867
C25 C 0.6464(5) 0.5067(12) 0.6713(9)
C26 C 0.6786(4) 0.4586(12) 0.6309(9)
H21 H 0.6710 0.4285 0.5745
C27 C 0.7130(5) 0.5944(11) 0.8889(9)
C28 C 0.5920(5) 0.5555(13) 0.5373(10)
C29 C 0.5430(4) 0.5318(13) 0.5072(9)
C30 C 0.5261(4) 0.4791(12) 0.5784(8)
C31 C 0.5613(5) 0.4656(13) 0.6534(9)
C32 C 0.5195(4) 0.5568(13) 0.4276(9)
H22 H 0.5318 0.5933 0.3819
O20 O 0.6159(4) 0.8190(10) 0.8960(8)
O22 O 0.5544(6) 0.7262(18) 0.9068(13)
N8 N 0.5944(5) 0.7575(15) 0.9409(12)
Eu3 Eu 0.81323(2) 0.31551(6) 0.49391(4)
Eu4 Eu 0.18677(2) 0.31551(6) 0.00609(4)
Eu5 Eu 0.68677(2) 0.18449(6) 0.50609(4)
Eu7 Eu 0.18677(2) 0.68449(6) 0.50609(4)
Eu8 Eu 0.81323(2) 0.68449(6) 0.99391(4)
O24 O 0.2440(3) 0.8061(7) 0.5788(6)
O25 O 0.7560(3) 0.8061(7) 0.9212(6)
O26 O 0.2963(3) 0.9281(8) 0.6235(6)
O27 O 0.7037(3) 0.9281(8) 0.8765(6)
O29 O 0.2529(3) 0.9283(8) 0.4241(6)
O30 O 0.3163(3) 0.6497(8) 0.5782(6)
Eu6 Eu 0.31323(2) 0.18449(6) 0.99391(4)
O2_2 O 0.7963(3) 0.5719(8) 0.1235(6)
O3_2 O 0.7529(3) 0.4283(8) 0.4241(6)
O4_2 O 0.6837(3) 0.3503(8) 0.4218(6)
O6_2 O 0.5615(3) 0.5812(11) 0.2232(7)
N1_2 N 0.6007(4) 0.4856(11) 0.1260(7)
C1_2 C 0.7559(5) 0.6062(12) 0.1200(8)
C2_2 C 0.7217(4) 0.5482(11) 0.1682(8)
C3_2 C 0.7330(4) 0.5068(10) 0.2533(9)
H1_2 H 0.7626 0.5113 0.2805
C4_2 C 0.6998(4) 0.4584(11) 0.2978(8)
C5_2 C 0.6553(4) 0.4505(10) 0.2576(8)
H2_2 H 0.6327 0.4185 0.2867
C6_2 C 0.6464(5) 0.4933(12) 0.1713(9)
C7_2 C 0.6786(4) 0.5414(12) 0.1309(9)
H3_2 H 0.6710 0.5715 0.0745
C8_2 C 0.7130(5) 0.4056(11) 0.3889(9)
C9_2 C 0.5920(5) 0.4445(13) 0.0373(10)
C10_2 C 0.5430(4) 0.4682(13) 0.0072(9)
C11_2 C 0.5261(4) 0.5209(12) 0.0784(8)
C12_2 C 0.5613(5) 0.5344(13) 0.1534(9)
O16_2 O 0.3808(3) 0.5987(11) 0.0033(8)
C32_2 C 0.4805(4) 0.5568(13) 0.0724(9)
H22_2 H 0.4682 0.5933 0.1181
O5_2 O 0.6192(3) 0.4013(11) 0.9967(8)
C13_2 C 0.5195(4) 0.4432(13) 0.9276(9)
H4_2 H 0.5318 0.4067 0.8819
O12_2 O 0.2560(3) 0.3061(7) 0.9212(6)
O13_2 O 0.2037(3) 0.4281(8) 0.8765(6)
O14_2 O 0.2471(3) 0.5717(8) 0.5759(6)
O17_2 O 0.4385(3) 0.4188(11) 0.7768(7)
N5_2 N 0.3993(4) 0.5144(11) 0.8740(7)
C20_2 C 0.2441(5) 0.3938(12) 0.8800(8)
C21_2 C 0.2783(4) 0.4518(11) 0.8318(8)
C22_2 C 0.2670(4) 0.4932(10) 0.7467(9)
H19_2 H 0.2374 0.4887 0.7195
C23_2 C 0.3002(4) 0.5416(11) 0.7022(8)
C24_2 C 0.3447(4) 0.5495(10) 0.7424(8)
H20_2 H 0.3673 0.5815 0.7133
C25_2 C 0.3536(5) 0.5067(12) 0.8287(9)
C26_2 C 0.3214(4) 0.4586(12) 0.8691(9)
H21_2 H 0.3290 0.4285 0.9255
C27_2 C 0.2870(5) 0.5944(11) 0.6111(9)
C28_2 C 0.4080(5) 0.5555(13) 0.9627(10)
C29_2 C 0.4570(4) 0.5318(13) 0.9928(9)
C30_2 C 0.4739(4) 0.4791(12) 0.9216(8)
C31_2 C 0.4387(5) 0.4656(13) 0.8466(9)
O18_2 O 0.1712(4) 0.3079(9) 0.1603(8)
O19_2 O 0.1506(4) 0.4878(10) 0.0327(8)
O21_2 O 0.1111(4) 0.2263(10) 0.0171(8)
N6_2 N 0.1736(7) 0.2932(13) 0.3126(13)
N7_2 N 0.1178(9) 0.611(2) 0.1200(16)
C33_2 C 0.1932(7) 0.2942(14) 0.2325(12)
H23_2 H 0.2243 0.2834 0.2361
C34_2 C 0.2047(9) 0.279(2) 0.3924(15)
H24_2 H 0.2188 0.2091 0.3871
H25_2 H 0.2275 0.3356 0.3986
H26_2 H 0.1886 0.2796 0.4440
C35_2 C 0.1254(7) 0.3122(19) 0.3055(18)
H27_2 H 0.1192 0.3840 0.2808
H28_2 H 0.1092 0.2582 0.2679
H29_2 H 0.1160 0.3086 0.3642
C36_2 C 0.1171(8) 0.522(2) 0.0632(15)
H30_2 H 0.0902 0.4837 0.0501
C37_2 C 0.1623(11) 0.660(2) 0.138(2)
H31_2 H 0.1836 0.6085 0.1669
H32_2 H 0.1719 0.6827 0.0824
H33_2 H 0.1608 0.7234 0.1761
C38_2 C 0.0758(10) 0.644(2) 0.152(2)
H34_2 H 0.0535 0.6593 0.1023
H35_2 H 0.0653 0.5851 0.1868
H36_2 H 0.0809 0.7081 0.1884
O23_2 O 0.2440(3) 0.1939(7) 0.0788(6)
O14_3 O 0.2529(3) 0.0717(8) 0.9241(6)
O15_2 O 0.1837(3) 0.1497(8) 0.9218(6)
O16_3 O 0.1192(3) 0.0987(11) 0.4967(8)
N5_3 N 0.1007(4) 0.0144(11) 0.6260(7)
C23_3 C 0.1998(4) 0.0416(11) 0.7978(8)
C24_3 C 0.1553(4) 0.0495(10) 0.7576(8)
H20_3 H 0.1327 0.0815 0.7867
C25_3 C 0.1464(5) 0.0067(12) 0.6713(9)
C27_3 C 0.2130(5) 0.0944(11) 0.8889(9)
C28_3 C 0.0920(5) 0.0555(13) 0.5373(10)
C29_3 C 0.0430(4) 0.0318(13) 0.5072(9)
C32_3 C 0.0195(4) 0.0568(13) 0.4276(9)
H22_3 H 0.0318 0.0933 0.3819
O20_2 O 0.1159(4) 0.3190(10) 0.8960(8)
O22_2 O 0.0544(6) 0.2262(18) 0.9068(13)
N8_2 N 0.0944(5) 0.2575(15) 0.9409(12)
O17_3 O 0.0615(3) 0.9188(11) 0.7232(7)
C20_3 C 0.2559(5) 0.8938(12) 0.6200(8)
C21_3 C 0.2217(4) 0.9518(11) 0.6682(8)
C22_3 C 0.2330(4) 0.9932(10) 0.7533(9)
H19_3 H 0.2626 0.9887 0.7805
C26_3 C 0.1786(4) 0.9586(12) 0.6309(9)
H21_3 H 0.1710 0.9285 0.5745
C30_3 C 0.0261(4) 0.9791(12) 0.5784(8)
C31_3 C 0.0613(5) 0.9656(13) 0.6534(9)
O1_2 O 0.7560(3) 0.1939(7) 0.4212(6)
O2_3 O 0.7037(3) 0.0719(8) 0.3765(6)
O6_3 O 0.9385(3) 0.0812(11) 0.2768(7)
O7_2 O 0.8288(4) 0.3079(9) 0.3397(8)
O8_2 O 0.8494(4) 0.4878(10) 0.4673(8)
O9_2 O 0.8841(4) 0.3190(10) 0.6040(8)
O10_2 O 0.8889(4) 0.2263(10) 0.4829(8)
O11_2 O 0.9456(6) 0.2262(18) 0.5932(13)
N2_2 N 0.8264(7) 0.2932(13) 0.1874(13)
N3_2 N 0.8822(9) 0.611(2) 0.3800(16)
N4_2 N 0.9056(5) 0.2575(15) 0.5591(12)
C1_3 C 0.7441(5) 0.1062(12) 0.3800(8)
C2_3 C 0.7783(4) 0.0482(11) 0.3318(8)
C3_3 C 0.7670(4) 0.0068(10) 0.2467(9)
H1_3 H 0.7374 0.0113 0.2195
C7_3 C 0.8214(4) 0.0414(12) 0.3691(9)
H3_3 H 0.8290 0.0715 0.4255
C11_3 C 0.9739(4) 0.0209(12) 0.4216(8)
C12_3 C 0.9387(5) 0.0344(13) 0.3466(9)
C14_2 C 0.8068(7) 0.2942(14) 0.2675(12)
H5_2 H 0.7757 0.2834 0.2639
C15_2 C 0.7953(9) 0.279(2) 0.1076(15)
H6_2 H 0.7812 0.2091 0.1129
H7_2 H 0.7725 0.3356 0.1014
H8_2 H 0.8114 0.2796 0.0560
C16_2 C 0.8746(7) 0.3122(19) 0.1945(18)
H9_2 H 0.8808 0.3840 0.2192
H10_2 H 0.8908 0.2582 0.2321
H11_2 H 0.8840 0.3086 0.1358
C17_2 C 0.8829(8) 0.522(2) 0.4368(15)
H12_2 H 0.9098 0.4837 0.4499
C18_2 C 0.8377(11) 0.660(2) 0.362(2)
H13_2 H 0.8164 0.6085 0.3331
H14_2 H 0.8281 0.6827 0.4176
H15_2 H 0.8392 0.7234 0.3239
C19_2 C 0.9242(10) 0.644(2) 0.348(2)
H16_2 H 0.9465 0.6593 0.3977
H17_2 H 0.9347 0.5851 0.3132
H18_2 H 0.9191 0.7081 0.3116
O30_2 O 0.8163(3) 0.1497(8) 0.5782(6)
O4_3 O 0.8163(3) 0.8503(8) 0.0782(6)
O5_3 O 0.8808(3) 0.9013(11) 0.5033(8)
N1_3 N 0.8993(4) 0.9856(11) 0.3740(7)
C4_3 C 0.8002(4) 0.9584(11) 0.2022(8)
C5_3 C 0.8447(4) 0.9505(10) 0.2424(8)
H2_3 H 0.8673 0.9185 0.2133
C6_3 C 0.8536(5) 0.9933(12) 0.3287(9)
C8_3 C 0.7870(5) 0.9056(11) 0.1111(9)
C9_3 C 0.9080(5) 0.9445(13) 0.4627(10)
C10_3 C 0.9570(4) 0.9682(13) 0.4928(9)
C13_3 C 0.9805(4) 0.9432(13) 0.5724(9)
H4_3 H 0.9682 0.9067 0.6181
O2_4 O 0.2963(3) 0.0719(8) 0.1235(6)
O6_4 O 0.0615(3) 0.0812(11) 0.2232(7)
C1_4 C 0.2559(5) 0.1062(12) 0.1200(8)
C2_4 C 0.2217(4) 0.0482(11) 0.1682(8)
C3_4 C 0.2330(4) 0.0068(10) 0.2533(9)
H1_4 H 0.2626 0.0113 0.2805
C7_4 C 0.1786(4) 0.0414(12) 0.1309(9)
H3_4 H 0.1710 0.0715 0.0745
C11_4 C 0.0261(4) 0.0209(12) 0.0784(8)
C12_4 C 0.0613(5) 0.0344(13) 0.1534(9)
O4_4 O 0.1837(3) 0.8503(8) 0.4218(6)
N1_4 N 0.1007(4) 0.9856(11) 0.1260(7)
C4_4 C 0.1998(4) 0.9584(11) 0.2978(8)
C5_4 C 0.1553(4) 0.9505(10) 0.2576(8)
H2_4 H 0.1327 0.9185 0.2867
C6_4 C 0.1464(5) 0.9933(12) 0.1713(9)
C8_4 C 0.2130(5) 0.9056(11) 0.3889(9)
C9_4 C 0.0920(5) 0.9445(13) 0.0373(10)
C10_4 C 0.0430(4) 0.9682(13) 0.0072(9)
O14_4 O 0.7471(3) 0.0717(8) 0.5759(6)
N5_4 N 0.8993(4) 0.0144(11) 0.8740(7)
C23_4 C 0.8002(4) 0.0416(11) 0.7022(8)
C24_4 C 0.8447(4) 0.0495(10) 0.7424(8)
H20_4 H 0.8673 0.0815 0.7133
C25_4 C 0.8536(5) 0.0067(12) 0.8287(9)
C27_4 C 0.7870(5) 0.0944(11) 0.6111(9)
C28_4 C 0.9080(5) 0.0555(13) 0.9627(10)
C29_4 C 0.9570(4) 0.0318(13) 0.9928(9)
O17_4 O 0.9385(3) 0.9188(11) 0.7768(7)
C20_4 C 0.7441(5) 0.8938(12) 0.8800(8)
C21_4 C 0.7783(4) 0.9518(11) 0.8318(8)
C22_4 C 0.7670(4) 0.9932(10) 0.7467(9)
H19_4 H 0.7374 0.9887 0.7195
C26_4 C 0.8214(4) 0.9586(12) 0.8691(9)
H21_4 H 0.8290 0.9285 0.9255
C30_4 C 0.9739(4) 0.9791(12) 0.9216(8)
C31_4 C 0.9387(5) 0.9656(13) 0.8466(9)
O7_3 O 0.6712(4) 0.1921(9) 0.6603(8)
O8_3 O 0.6506(4) 0.0122(10) 0.5327(8)
O9_3 O 0.6159(4) 0.1810(10) 0.3960(8)
O10_3 O 0.6111(4) 0.2737(10) 0.5171(8)
O11_3 O 0.5544(6) 0.2738(18) 0.4068(13)
N2_3 N 0.6736(7) 0.2068(13) 0.8126(13)
N4_3 N 0.5944(5) 0.2425(15) 0.4409(12)
C14_3 C 0.6932(7) 0.2058(14) 0.7325(12)
H5_3 H 0.7243 0.2166 0.7361
C15_3 C 0.7047(9) 0.221(2) 0.8924(15)
H6_3 H 0.7188 0.2909 0.8871
H7_3 H 0.7275 0.1644 0.8986
H8_3 H 0.6886 0.2204 0.9440
C16_3 C 0.6254(7) 0.1878(19) 0.8055(18)
H9_3 H 0.6192 0.1160 0.7808
H10_3 H 0.6092 0.2418 0.7679
H11_3 H 0.6160 0.1914 0.8642
H12_3 H 0.5902 0.0163 0.5501
O20_3 O 0.3841(4) 0.1810(10) 0.1040(8)
O22_3 O 0.4456(6) 0.2738(18) 0.0932(13)
N8_3 N 0.4056(5) 0.2425(15) 0.0591(12)
O18_3 O 0.3288(4) 0.1921(9) 0.8397(8)
O19_3 O 0.3494(4) 0.0122(10) 0.9673(8)
O21_3 O 0.3889(4) 0.2737(10) 0.9829(8)
N6_3 N 0.3264(7) 0.2068(13) 0.6874(13)
C33_3 C 0.3068(7) 0.2058(14) 0.7675(12)
H23_3 H 0.2757 0.2166 0.7639
C34_3 C 0.2953(9) 0.221(2) 0.6076(15)
H24_3 H 0.2812 0.2909 0.6129
H25_3 H 0.2725 0.1644 0.6014
H26_3 H 0.3114 0.2204 0.5560
C35_3 C 0.3746(7) 0.1878(19) 0.6945(18)
H27_3 H 0.3808 0.1160 0.7192
H28_3 H 0.3908 0.2418 0.7321
H29_3 H 0.3840 0.1914 0.6358
H30_3 H 0.4098 0.0163 0.9499
O7_4 O 0.1712(4) 0.6921(9) 0.6603(8)
O8_4 O 0.1506(4) 0.5122(10) 0.5327(8)
O9_4 O 0.1159(4) 0.6810(10) 0.3960(8)
O10_4 O 0.1111(4) 0.7737(10) 0.5171(8)
O11_4 O 0.0544(6) 0.7738(18) 0.4068(13)
N2_4 N 0.1736(7) 0.7068(13) 0.8126(13)
N3_3 N 0.1178(9) 0.389(2) 0.6200(16)
N4_4 N 0.0944(5) 0.7425(15) 0.4409(12)
C14_4 C 0.1932(7) 0.7058(14) 0.7325(12)
H5_4 H 0.2243 0.7166 0.7361
C15_4 C 0.2047(9) 0.721(2) 0.8924(15)
H6_4 H 0.2188 0.7909 0.8871
H7_4 H 0.2275 0.6644 0.8986
H8_4 H 0.1886 0.7204 0.9440
C16_4 C 0.1254(7) 0.6878(19) 0.8055(18)
H9_4 H 0.1192 0.6160 0.7808
H10_4 H 0.1092 0.7418 0.7679
H11_4 H 0.1160 0.6914 0.8642
C17_3 C 0.1171(8) 0.478(2) 0.5632(15)
H12_4 H 0.0902 0.5163 0.5501
C18_3 C 0.1623(11) 0.340(2) 0.638(2)
H13_3 H 0.1836 0.3915 0.6669
H14_3 H 0.1719 0.3173 0.5824
H15_3 H 0.1608 0.2766 0.6761
C19_3 C 0.0758(10) 0.356(2) 0.652(2)
H16_3 H 0.0535 0.3407 0.6023
H17_3 H 0.0653 0.4149 0.6868
H18_3 H 0.0809 0.2919 0.6884
O20_4 O 0.8841(4) 0.6810(10) 0.1040(8)
O22_4 O 0.9456(6) 0.7738(18) 0.0932(13)
N8_4 N 0.9056(5) 0.7425(15) 0.0591(12)
O18_4 O 0.8288(4) 0.6921(9) 0.8397(8)
O19_4 O 0.8494(4) 0.5122(10) 0.9673(8)
O21_4 O 0.8889(4) 0.7737(10) 0.9829(8)
N6_4 N 0.8264(7) 0.7068(13) 0.6874(13)
N7_3 N 0.8822(9) 0.389(2) 0.8800(16)
C33_4 C 0.8068(7) 0.7058(14) 0.7675(12)
H23_4 H 0.7757 0.7166 0.7639
C34_4 C 0.7953(9) 0.721(2) 0.6076(15)
H24_4 H 0.7812 0.7909 0.6129
H25_4 H 0.7725 0.6644 0.6014
H26_4 H 0.8114 0.7204 0.5560
C35_4 C 0.8746(7) 0.6878(19) 0.6945(18)
H27_4 H 0.8808 0.6160 0.7192
H28_4 H 0.8908 0.7418 0.7321
H29_4 H 0.8840 0.6914 0.6358
C36_3 C 0.8829(8) 0.478(2) 0.9368(15)
H30_4 H 0.9098 0.5163 0.9499
C37_3 C 0.8377(11) 0.340(2) 0.862(2)
H31_3 H 0.8164 0.3915 0.8331
H32_3 H 0.8281 0.3173 0.9176
H33_3 H 0.8392 0.2766 0.8239
C38_3 C 0.9242(10) 0.356(2) 0.848(2)
H34_3 H 0.9465 0.3407 0.8977
H35_3 H 0.9347 0.4149 0.8132
H36_3 H 0.9191 0.2919 0.8116
O5_4 O 0.1192(3) 0.9013(11) 0.9967(8)
C13_4 C 0.0195(4) 0.9432(13) 0.9276(9)
H4_4 H 0.0318 0.9067 0.8819
O16_4 O 0.8808(3) 0.0987(11) 0.0033(8)
C32_4 C 0.9805(4) 0.0568(13) 0.0724(9)
H22_4 H 0.9682 0.0933 0.1181
N3_4 N 0.6178(9) 0.889(2) 0.6200(16)
C17_4 C 0.6171(8) 0.978(2) 0.5632(15)
C18_4 C 0.6623(11) 0.840(2) 0.638(2)
H13_4 H 0.6836 0.8915 0.6669
H14_4 H 0.6719 0.8173 0.5824
H15_4 H 0.6608 0.7766 0.6761
C19_4 C 0.5758(10) 0.856(2) 0.652(2)
H16_4 H 0.5535 0.8407 0.6023
H17_4 H 0.5653 0.9149 0.6868
H18_4 H 0.5809 0.7919 0.6884
N7_4 N 0.3822(9) 0.889(2) 0.8800(16)
C36_4 C 0.3829(8) 0.978(2) 0.9368(15)
C37_4 C 0.3377(11) 0.840(2) 0.862(2)
H31_4 H 0.3164 0.8915 0.8331
H32_4 H 0.3281 0.8173 0.9176
H33_4 H 0.3392 0.7766 0.8239
C38_4 C 0.4242(10) 0.856(2) 0.848(2)
H34_4 H 0.4465 0.8407 0.8977
H35_4 H 0.4347 0.9149 0.8132
H36_4 H 0.4191 0.7919 0.8116
loop_
_geom_bond_atom_site_label_1
_geom_bond_atom_site_label_2
_geom_bond_site_symmetry_1
_geom_bond_site_symmetry_2
N7 C36 1_555 1_555
C37 N7 1_555 1_555
H31 C37 1_555 1_555
H32 C37 1_555 1_555
H33 C37 1_555 1_555
C38 N7 1_555 1_555
H34 C38 1_555 1_555
H35 C38 1_555 1_555
H36 C38 1_555 1_555
N3 C17 1_555 1_555
C18 N3 1_555 1_555
H13 C18 1_555 1_555
H14 C18 1_555 1_555
H15 C18 1_555 1_555
C19 N3 1_555 1_555
H16 C19 1_555 1_555
H17 C19 1_555 1_555
H18 C19 1_555 1_555
O18 Eu2 1_555 1_555
O19 Eu2 1_555 1_555
O21 Eu2 1_555 1_555
N6 C33 1_555 1_555
C33 O18 1_555 1_555
H23 C33 1_555 1_555
C34 N6 1_555 1_555
H24 C34 1_555 1_555
H25 C34 1_555 1_555
H26 C34 1_555 1_555
C35 N6 1_555 1_555
H27 C35 1_555 1_555
H28 C35 1_555 1_555
H29 C35 1_555 1_555
O23 Eu2 1_555 1_555
O28 Eu2 1_555 1_555
Eu1 O1 1_555 1_555
O1 C1 1_555 1_555
O2 C1 1_555 1_555
O3 C8 1_555 1_555
O4 C8 1_555 1_555
O5 C9 1_555 1_555
O6 C12 1_555 1_555
O7 Eu1 1_555 1_555
O8 Eu1 1_555 1_555
O9 Eu1 1_555 1_555
O10 Eu1 1_555 1_555
O11 N4 1_555 1_555
N1 C6 1_555 1_555
N2 C14 1_555 1_555
N4 O9 1_555 1_555
C1 C2 1_555 1_555
C2 C3 1_555 1_555
C3 H1 1_555 1_555
C4 C3 1_555 1_555
C5 C4 1_555 1_555
H2 C5 1_555 1_555
C6 C5 1_555 1_555
C7 C2 1_555 1_555
H3 C7 1_555 1_555
C8 C4 1_555 1_555
C9 N1 1_555 1_555
C10 C9 1_555 1_555
C11 C10 1_555 1_555
C12 N1 1_555 1_555
C13 C10 1_555 1_555
H4 C13 1_555 1_555
C14 O7 1_555 1_555
H5 C14 1_555 1_555
C15 N2 1_555 1_555
H6 C15 1_555 1_555
H7 C15 1_555 1_555
H8 C15 1_555 1_555
C16 N2 1_555 1_555
H9 C16 1_555 1_555
H10 C16 1_555 1_555
H11 C16 1_555 1_555
O12 C20 1_555 1_555
O13 C20 1_555 1_555
O14 C27 1_555 1_555
O15 C27 1_555 1_555
O16 C28 1_555 1_555
O17 C31 1_555 1_555
N5 C25 1_555 1_555
C20 C21 1_555 1_555
C21 C22 1_555 1_555
C22 H19 1_555 1_555
C23 C22 1_555 1_555
C24 C23 1_555 1_555
H20 C24 1_555 1_555
C25 C24 1_555 1_555
C26 C21 1_555 1_555
H21 C26 1_555 1_555
C27 C23 1_555 1_555
C28 N5 1_555 1_555
C29 C28 1_555 1_555
C30 C13 1_555 1_555
C31 N5 1_555 1_555
C32 C11 1_555 1_555
H22 C32 1_555 1_555
O22 N8 1_555 1_555
N8 O20 1_555 1_555
Eu3 O12 1_555 1_555
Eu4 O3 1_555 1_555
Eu5 O12 1_555 1_555
Eu7 O1 1_555 1_555
Eu8 O14 1_555 1_555
O24 Eu1 1_555 1_555
O26 Eu1 1_555 1_555
O29 Eu1 1_555 1_555
O30 Eu1 1_555 1_555
O2 Eu7 1_555 1_555
O10 N4 1_555 1_555
C6 C7 1_555 1_555
C11 C12 1_555 1_555
O13 Eu3 1_555 1_555
C25 C26 1_555 1_555
C29 C30 1_555 1_555
C29 C32 1_555 1_555
C30 C31 1_555 1_555
Eu7 O24 1_555 1_555
Eu8 O25 1_555 1_555
O23 C1_2 1_555 1_555
O2_2 C1_2 1_555 1_555
O3_2 C8_2 1_555 1_555
O4_2 C8_2 1_555 1_555
O6_2 C12_2 1_555 1_555
N1_2 C6_2 1_555 1_555
C1_2 C2_2 1_555 1_555
C2_2 C3_2 1_555 1_555
C3_2 H1_2 1_555 1_555
C4_2 C3_2 1_555 1_555
C5_2 C4_2 1_555 1_555
H2_2 C5_2 1_555 1_555
C6_2 C5_2 1_555 1_555
C7_2 C2_2 1_555 1_555
H3_2 C7_2 1_555 1_555
C8_2 C4_2 1_555 1_555
C9_2 N1_2 1_555 1_555
C10_2 C9_2 1_555 1_555
C11_2 C10_2 1_555 1_555
C12_2 N1_2 1_555 1_555
C32_2 C11_2 1_555 1_555
H22_2 C32_2 1_555 1_555
Eu3 O3_2 1_555 1_555
Eu5 O4_2 1_555 1_555
C6_2 C7_2 1_555 1_555
C11_2 C12_2 1_555 1_555
H4_2 C13_2 1_555 1_555
O12_2 C20_2 1_555 1_555
O13_2 C20_2 1_555 1_555
O14_2 C27_2 1_555 1_555
O30 C27_2 1_555 1_555
O17_2 C31_2 1_555 1_555
N5_2 C25_2 1_555 1_555
C20_2 C21_2 1_555 1_555
C21_2 C22_2 1_555 1_555
C22_2 H19_2 1_555 1_555
C23_2 C22_2 1_555 1_555
C24_2 C23_2 1_555 1_555
H20_2 C24_2 1_555 1_555
C25_2 C24_2 1_555 1_555
C26_2 C21_2 1_555 1_555
H21_2 C26_2 1_555 1_555
C27_2 C23_2 1_555 1_555
C28_2 N5_2 1_555 1_555
C29_2 C28_2 1_555 1_555
C30_2 C13_2 1_555 1_555
C31_2 N5_2 1_555 1_555
Eu6 O12_2 1_555 1_555
Eu7 O14_2 1_555 1_555
C25_2 C26_2 1_555 1_555
C29_2 C30_2 1_555 1_555
C30_2 C31_2 1_555 1_555
O18_2 Eu4 1_555 1_555
O19_2 Eu4 1_555 1_555
O21_2 Eu4 1_555 1_555
N6_2 C33_2 1_555 1_555
N7_2 C36_2 1_555 1_555
C33_2 O18_2 1_555 1_555
H23_2 C33_2 1_555 1_555
C34_2 N6_2 1_555 1_555
H24_2 C34_2 1_555 1_555
H25_2 C34_2 1_555 1_555
H26_2 C34_2 1_555 1_555
C35_2 N6_2 1_555 1_555
H27_2 C35_2 1_555 1_555
H28_2 C35_2 1_555 1_555
H29_2 C35_2 1_555 1_555
C36_2 O19_2 1_555 1_555
H30_2 C36_2 1_555 1_555
C37_2 N7_2 1_555 1_555
H31_2 C37_2 1_555 1_555
H32_2 C37_2 1_555 1_555
H33_2 C37_2 1_555 1_555
C38_2 N7_2 1_555 1_555
H34_2 C38_2 1_555 1_555
H35_2 C38_2 1_555 1_555
H36_2 C38_2 1_555 1_555
O23_2 Eu4 1_555 1_555
O14_3 C27_3 1_555 1_555
O15_2 C27_3 1_555 1_555
O16_3 C28_3 1_555 1_555
N5_3 C25_3 1_555 1_555
C24_3 C23_3 1_555 1_555
H20_3 C24_3 1_555 1_555
C25_3 C24_3 1_555 1_555
C27_3 C23_3 1_555 1_555
C28_3 N5_3 1_555 1_555
C29_3 C28_3 1_555 1_555
H22_3 C32_3 1_555 1_555
O22_2 N8_2 1_555 1_555
N8_2 O20_2 1_555 1_555
Eu6 O14_3 1_555 1_555
C29_3 C32_3 1_555 1_555
O24 C20_3 1_555 1_555
O26 C20_3 1_555 1_555
O17_3 C31_3 1_555 1_555
C20_3 C21_3 1_555 1_555
C21_3 C22_3 1_555 1_555
C22_3 H19_3 1_555 1_555
C26_3 C21_3 1_555 1_555
H21_3 C26_3 1_555 1_555
C30_3 C31_3 1_555 1_555
Eu3 O1_2 1_555 1_555
O1_2 C1_3 1_555 1_555
O2_3 C1_3 1_555 1_555
O6_3 C12_3 1_555 1_555
O7_2 Eu3 1_555 1_555
O8_2 Eu3 1_555 1_555
O9_2 Eu3 1_555 1_555
O10_2 Eu3 1_555 1_555
O11_2 N4_2 1_555 1_555
N2_2 C14_2 1_555 1_555
N3_2 C17_2 1_555 1_555
N4_2 O9_2 1_555 1_555
C1_3 C2_3 1_555 1_555
C2_3 C3_3 1_555 1_555
C3_3 H1_3 1_555 1_555
C7_3 C2_3 1_555 1_555
H3_3 C7_3 1_555 1_555
C14_2 O7_2 1_555 1_555
H5_2 C14_2 1_555 1_555
C15_2 N2_2 1_555 1_555
H6_2 C15_2 1_555 1_555
H7_2 C15_2 1_555 1_555
H8_2 C15_2 1_555 1_555
C16_2 N2_2 1_555 1_555
H9_2 C16_2 1_555 1_555
H10_2 C16_2 1_555 1_555
H11_2 C16_2 1_555 1_555
C17_2 O8_2 1_555 1_555
H12_2 C17_2 1_555 1_555
C18_2 N3_2 1_555 1_555
H13_2 C18_2 1_555 1_555
H14_2 C18_2 1_555 1_555
H15_2 C18_2 1_555 1_555
C19_2 N3_2 1_555 1_555
H16_2 C19_2 1_555 1_555
H17_2 C19_2 1_555 1_555
H18_2 C19_2 1_555 1_555
Eu5 O1_2 1_555 1_555
O30_2 Eu3 1_555 1_555
O2_3 Eu5 1_555 1_555
O10_2 N4_2 1_555 1_555
C11_3 C12_3 1_555 1_555
O28 C8_3 1_555 1_555
O4_3 C8_3 1_555 1_555
O5_3 C9_3 1_555 1_555
N1_3 C6_3 1_555 1_555
C5_3 C4_3 1_555 1_555
H2_3 C5_3 1_555 1_555
C6_3 C5_3 1_555 1_555
C8_3 C4_3 1_555 1_555
C9_3 N1_3 1_555 1_555
C10_3 C9_3 1_555 1_555
C13_3 C10_3 1_555 1_555
H4_3 C13_3 1_555 1_555
O23_2 C1_4 1_555 1_555
O2_4 C1_4 1_555 1_555
O6_4 C12_4 1_555 1_555
C1_4 C2_4 1_555 1_555
C2_4 C3_4 1_555 1_555
C3_4 H1_4 1_555 1_555
C7_4 C2_4 1_555 1_555
H3_4 C7_4 1_555 1_555
C11_4 C12_4 1_555 1_555
O29 C8_4 1_555 1_555
O4_4 C8_4 1_555 1_555
N1_4 C6_4 1_555 1_555
C5_4 C4_4 1_555 1_555
H2_4 C5_4 1_555 1_555
C6_4 C5_4 1_555 1_555
C8_4 C4_4 1_555 1_555
C9_4 N1_4 1_555 1_555
C10_4 C9_4 1_555 1_555
Eu7 O4_4 1_555 1_555
O14_4 C27_4 1_555 1_555
O30_2 C27_4 1_555 1_555
N5_4 C25_4 1_555 1_555
C24_4 C23_4 1_555 1_555
H20_4 C24_4 1_555 1_555
C25_4 C24_4 1_555 1_555
C27_4 C23_4 1_555 1_555
C28_4 N5_4 1_555 1_555
C29_4 C28_4 1_555 1_555
Eu5 O14_4 1_555 1_555
O25 C20_4 1_555 1_555
O27 C20_4 1_555 1_555
O17_4 C31_4 1_555 1_555
C20_4 C21_4 1_555 1_555
C21_4 C22_4 1_555 1_555
C22_4 H19_4 1_555 1_555
C26_4 C21_4 1_555 1_555
H21_4 C26_4 1_555 1_555
C30_4 C31_4 1_555 1_555
O7_3 Eu5 1_555 1_555
O8_3 Eu5 1_555 1_555
O9_3 Eu5 1_555 1_555
O10_3 Eu5 1_555 1_555
O11_3 N4_3 1_555 1_555
N2_3 C14_3 1_555 1_555
N4_3 O9_3 1_555 1_555
C14_3 O7_3 1_555 1_555
H5_3 C14_3 1_555 1_555
C15_3 N2_3 1_555 1_555
H6_3 C15_3 1_555 1_555
H7_3 C15_3 1_555 1_555
H8_3 C15_3 1_555 1_555
C16_3 N2_3 1_555 1_555
H9_3 C16_3 1_555 1_555
H10_3 C16_3 1_555 1_555
H11_3 C16_3 1_555 1_555
O22_3 N8_3 1_555 1_555
N8_3 O20_3 1_555 1_555
O10_3 N4_3 1_555 1_555
O18_3 Eu6 1_555 1_555
O19_3 Eu6 1_555 1_555
O21_3 Eu6 1_555 1_555
N6_3 C33_3 1_555 1_555
C33_3 O18_3 1_555 1_555
H23_3 C33_3 1_555 1_555
C34_3 N6_3 1_555 1_555
H24_3 C34_3 1_555 1_555
H25_3 C34_3 1_555 1_555
H26_3 C34_3 1_555 1_555
C35_3 N6_3 1_555 1_555
H27_3 C35_3 1_555 1_555
H28_3 C35_3 1_555 1_555
H29_3 C35_3 1_555 1_555
O7_4 Eu7 1_555 1_555
O8_4 Eu7 1_555 1_555
O9_4 Eu7 1_555 1_555
O10_4 Eu7 1_555 1_555
O11_4 N4_4 1_555 1_555
N2_4 C14_4 1_555 1_555
N3_3 C17_3 1_555 1_555
N4_4 O9_4 1_555 1_555
C14_4 O7_4 1_555 1_555
H5_4 C14_4 1_555 1_555
C15_4 N2_4 1_555 1_555
H6_4 C15_4 1_555 1_555
H7_4 C15_4 1_555 1_555
H8_4 C15_4 1_555 1_555
C16_4 N2_4 1_555 1_555
H9_4 C16_4 1_555 1_555
H10_4 C16_4 1_555 1_555
H11_4 C16_4 1_555 1_555
C17_3 O8_4 1_555 1_555
H12_4 C17_3 1_555 1_555
C18_3 N3_3 1_555 1_555
H13_3 C18_3 1_555 1_555
H14_3 C18_3 1_555 1_555
H15_3 C18_3 1_555 1_555
C19_3 N3_3 1_555 1_555
H16_3 C19_3 1_555 1_555
H17_3 C19_3 1_555 1_555
H18_3 C19_3 1_555 1_555
O10_4 N4_4 1_555 1_555
O22_4 N8_4 1_555 1_555
N8_4 O20_4 1_555 1_555
O18_4 Eu8 1_555 1_555
O19_4 Eu8 1_555 1_555
O21_4 Eu8 1_555 1_555
N6_4 C33_4 1_555 1_555
N7_3 C36_3 1_555 1_555
C33_4 O18_4 1_555 1_555
H23_4 C33_4 1_555 1_555
C34_4 N6_4 1_555 1_555
H24_4 C34_4 1_555 1_555
H25_4 C34_4 1_555 1_555
H26_4 C34_4 1_555 1_555
C35_4 N6_4 1_555 1_555
H27_4 C35_4 1_555 1_555
H28_4 C35_4 1_555 1_555
H29_4 C35_4 1_555 1_555
C36_3 O19_4 1_555 1_555
H30_4 C36_3 1_555 1_555
C37_3 N7_3 1_555 1_555
H31_3 C37_3 1_555 1_555
H32_3 C37_3 1_555 1_555
H33_3 C37_3 1_555 1_555
C38_3 N7_3 1_555 1_555
H34_3 C38_3 1_555 1_555
H35_3 C38_3 1_555 1_555
H36_3 C38_3 1_555 1_555
H4_4 C13_4 1_555 1_555
H22_4 C32_4 1_555 1_555
N3_4 C17_4 1_555 1_555
C18_4 N3_4 1_555 1_555
H13_4 C18_4 1_555 1_555
H14_4 C18_4 1_555 1_555
H15_4 C18_4 1_555 1_555
C19_4 N3_4 1_555 1_555
H16_4 C19_4 1_555 1_555
H17_4 C19_4 1_555 1_555
H18_4 C19_4 1_555 1_555
N7_4 C36_4 1_555 1_555
C37_4 N7_4 1_555 1_555
H31_4 C37_4 1_555 1_555
H32_4 C37_4 1_555 1_555
H33_4 C37_4 1_555 1_555
C38_4 N7_4 1_555 1_555
H34_4 C38_4 1_555 1_555
H35_4 C38_4 1_555 1_555
H36_4 C38_4 1_555 1_555

#END
