
###############################################################################
#
# This file contains modified crystal structure data generated from the
# MOF subset of the Cambridge Structural Database (CSD) v543 
# hosted by the Cambridge Crystallographic Data Centre (CCDC).
#
# This work is licensed under the Creative Commons
# Attribution-NonCommercial-ShareAlike 4.0 International License.
# To view a copy of this license, visit
# http://creativecommons.org/licenses/by-nc-sa/4.0/
# or send a letter to
# Creative Commons, PO Box 1866, Mountain View, CA 94042, USA.
#
# CIF created using the CSD Python API on 29 September 2022
# The structure has been converted into the P1 space group
# The structure has a 3D framework
# The original CSD entry NEGJAN is in the triclinic crystal system
# The framework has been calculated to contain at least 10.0% void space
# The void calculation uses a probe of radius 1.32A, grid spacing 0.4
#
###############################################################################

data_NEGJAN
_chemical_formula_moiety         '(C116 H96 N16 O24 Zn4)n'
_symmetry_cell_setting           triclinic
_symmetry_space_group_name_H-M   'P 1'
_symmetry_Int_Tables_number      1
_space_group_name_Hall           'P 1'
loop_
_symmetry_equiv_pos_site_id
_symmetry_equiv_pos_as_xyz
1 x,y,z
_cell_length_a                   11.761(6)
_cell_length_b                   13.052(8)
_cell_length_c                   20.459(11)
_cell_angle_alpha                83.742(11)
_cell_angle_beta                 79.489(11)
_cell_angle_gamma                73.141(10)
_cell_volume                     2949.88
loop_
_atom_site_label
_atom_site_type_symbol
_atom_site_fract_x
_atom_site_fract_y
_atom_site_fract_z
_atom_site_U_iso_or_equiv
_atom_site_thermal_displace_type
H12 H 0.0671 0.1396 0.3009 0.0610 Uiso
C23 C 0.1679(4) 0.9476(3) 0.3402(2) 0.0583 Uani
H15 H 0.2158 0.8768 0.3531 0.0690 Uiso
H16 H 0.2081 0.9991 0.3482 0.0690 Uiso
C24 C 0.1021(3) 0.8912(3) 0.2492(2) 0.0456 Uani
C25 C 0.0659(4) 0.8093(3) 0.2859(2) 0.0533 Uani
H17 H 0.0831 0.7904 0.3289 0.0640 Uiso
C26 C 0.0032(4) 0.7548(3) 0.2582(2) 0.0555 Uani
C28 C 0.0236(4) 0.8587(4) 0.1575(2) 0.0606 Uani
H19 H 0.0127 0.8740 0.1132 0.0730 Uiso
C29 C 0.0813(4) 0.9169(4) 0.1850(2) 0.0591 Uani
H20 H 0.1058 0.9731 0.1603 0.0710 Uiso
O9 O 0.0561(3) 0.9683(2) 0.37979(13) 0.0570 Uani
O10 O 0.1631(2) 0.9527(2) 0.27122(14) 0.0555 Uani
C59 C 0.4479(4) 0.3463(3) 0.54686(19) 0.0470 Uani
H49 H 0.5120 0.3569 0.5155 0.0570 Uiso
C60 C 0.3182(4) 0.3530(3) 0.6356(2) 0.0575 Uani
H50 H 0.2754 0.3696 0.6777 0.0690 Uiso
C61 C 0.2953(4) 0.2906(4) 0.5944(2) 0.0638 Uani
H51 H 0.2345 0.2564 0.6026 0.0770 Uiso
C62 C 0.3929(4) 0.2271(3) 0.4800(2) 0.0600 Uani
H52 H 0.3148 0.2385 0.4668 0.0720 Uiso
H53 H 0.4435 0.2544 0.4436 0.0720 Uiso
C63 C 0.4472(4) 0.1103(3) 0.4919(2) 0.0479 Uani
C64 C 0.5342(4) 0.0696(3) 0.5307(2) 0.0652 Uani
H54 H 0.5587 0.1164 0.5526 0.0780 Uiso
C65 C 0.4136(4) 0.0379(3) 0.4616(2) 0.0607 Uani
H55 H 0.3536 0.0626 0.4350 0.0720 Uiso
N9 N 0.4148(3) 0.3879(3) 0.60526(16) 0.0489 Uani
N10 N 0.3783(3) 0.2874(3) 0.53857(16) 0.0492 Uani
Zn6 Zn 0.49651(4) 0.48686(4) 0.63241(2) 0.0462 Uani
C66 C 0.5032(4) 0.5519(3) 0.76461(19) 0.0527 Uani
H56 H 0.4353 0.6091 0.7612 0.0630 Uiso
C67 C 0.6476(4) 0.4108(4) 0.7436(2) 0.0629 Uani
H57 H 0.6995 0.3518 0.7219 0.0760 Uiso
C68 C 0.6585(4) 0.4415(4) 0.8014(2) 0.0695 Uani
H58 H 0.7165 0.4075 0.8280 0.0830 Uiso
C69 C 0.5448(5) 0.6030(4) 0.8688(2) 0.0715 Uani
H59 H 0.6138 0.6305 0.8666 0.0860 Uiso
H60 H 0.4755 0.6637 0.8638 0.0860 Uiso
C70 C 0.5228(3) 0.5459(3) 0.93633(18) 0.0457 Uani
C71 C 0.4472(3) 0.4817(3) 0.9501(2) 0.0516 Uani
H61 H 0.4107 0.4689 0.9163 0.0620 Uiso
C72 C 0.5758(4) 0.5639(3) 0.9876(2) 0.0530 Uani
H62 H 0.6275 0.6074 0.9794 0.0640 Uiso
N11 N 0.5495(3) 0.4781(3) 0.72084(15) 0.0478 Uani
N12 N 0.5664(3) 0.5337(3) 0.81412(16) 0.0548 Uani
C73 C 0.7184(4) 0.3766(4) 0.56876(19) 0.0490 Uani
C74 C 0.8351(3) 0.3619(3) 0.52109(18) 0.0446 Uani
C75 C 0.8590(4) 0.4431(3) 0.4791(2) 0.0527 Uani
H63 H 0.8018 0.5095 0.4794 0.0640 Uiso
C76 C 0.9667(4) 0.4298(3) 0.43542(19) 0.0552 Uani
H64 H 0.9819 0.4865 0.4069 0.0660 Uiso
C79 C 0.9202(3) 0.2635(3) 0.51928(19) 0.0512 Uani
H66 H 0.9048 0.2064 0.5474 0.0610 Uiso
C88 C 0.3076(4) 0.6479(3) 0.6440(2) 0.0489 Uani
C89 C 0.2092(4) 0.7480(3) 0.63622(19) 0.0475 Uani
C90 C 0.0997(4) 0.7599(3) 0.67524(19) 0.0497 Uani
H73 H 0.0868 0.7036 0.7049 0.0600 Uiso
C91 C 0.0071(4) 0.8535(3) 0.6720(2) 0.0510 Uani
C92 C 0.0270(4) 0.9351(3) 0.6283(2) 0.0464 Uani
C93 C 0.1351(4) 0.9250(3) 0.5878(2) 0.0614 Uani
H75 H 0.1473 0.9810 0.5577 0.0740 Uiso
C94 C 0.2264(4) 0.8310(4) 0.5920(2) 0.0637 Uani
H76 H 0.3002 0.8240 0.5645 0.0770 Uiso
O13 O 0.7007(2) 0.3009(2) 0.60623(15) 0.0664 Uani
O14 O 0.6457(2) 0.4696(2) 0.56743(13) 0.0552 Uani
O19 O 0.4081(2) 0.6369(2) 0.60540(13) 0.0554 Uani
O20 O 0.2911(2) 0.5787(2) 0.68806(14) 0.0595 Uani
C1 C 0.2816(4) 0.6234(4) 0.43124(19) 0.0490 Uani
C2 C 0.1649(3) 0.6381(3) 0.47891(18) 0.0446 Uani
C3 C 0.1410(4) 0.5569(3) 0.5209(2) 0.0527 Uani
H1 H 0.1982 0.4905 0.5206 0.0640 Uiso
C4 C 0.0333(4) 0.5702(3) 0.56458(19) 0.0552 Uani
H2 H 0.0181 0.5135 0.5931 0.0660 Uiso
C7 C 0.0798(3) 0.7365(3) 0.48072(19) 0.0512 Uani
H4 H 0.0952 0.7936 0.4526 0.0610 Uiso
C16 C 0.6924(4) 0.3521(3) 0.3560(2) 0.0489 Uani
C17 C 0.7908(4) 0.2520(3) 0.36378(19) 0.0475 Uani
C18 C 0.9003(4) 0.2401(3) 0.32476(19) 0.0497 Uani
H11 H 0.9132 0.2964 0.2951 0.0600 Uiso
C19 C 0.9929(4) 0.1465(3) 0.3280(2) 0.0510 Uani
C20 C 0.9730(4) 0.0649(3) 0.3717(2) 0.0464 Uani
C21 C 0.8649(4) 0.0750(3) 0.4122(2) 0.0614 Uani
H13 H 0.8527 0.0190 0.4423 0.0740 Uiso
C22 C 0.7736(4) 0.1690(4) 0.4080(2) 0.0637 Uani
H14 H 0.6998 0.1760 0.4355 0.0770 Uiso
C31 C 0.5521(4) 0.6537(3) 0.45314(19) 0.0470 Uani
H21 H 0.4880 0.6431 0.4845 0.0570 Uiso
C32 C 0.6818(4) 0.6470(3) 0.3644(2) 0.0575 Uani
H22 H 0.7246 0.6304 0.3223 0.0690 Uiso
C33 C 0.7047(4) 0.7094(4) 0.4056(2) 0.0638 Uani
H23 H 0.7655 0.7436 0.3974 0.0770 Uiso
C34 C 0.6071(4) 0.7729(3) 0.5200(2) 0.0600 Uani
H24 H 0.6852 0.7615 0.5332 0.0720 Uiso
H25 H 0.5565 0.7456 0.5564 0.0720 Uiso
C35 C 0.5528(4) 0.8897(3) 0.5081(2) 0.0479 Uani
C36 C 0.4658(4) 0.9304(3) 0.4693(2) 0.0652 Uani
H26 H 0.4413 0.8836 0.4474 0.0780 Uiso
C37 C 0.5864(4) 0.9621(3) 0.5384(2) 0.0607 Uani
H27 H 0.6464 0.9374 0.5650 0.0720 Uiso
C38 C 0.4968(4) 0.4481(3) 0.23539(19) 0.0527 Uani
H28 H 0.5647 0.3909 0.2388 0.0630 Uiso
C39 C 0.3524(4) 0.5892(4) 0.2564(2) 0.0629 Uani
H29 H 0.3005 0.6482 0.2781 0.0760 Uiso
C40 C 0.3415(4) 0.5585(4) 0.1986(2) 0.0695 Uani
H30 H 0.2835 0.5925 0.1720 0.0830 Uiso
C41 C 0.4552(5) 0.3970(4) 0.1312(2) 0.0715 Uani
H31 H 0.3862 0.3695 0.1334 0.0860 Uiso
H32 H 0.5245 0.3363 0.1362 0.0860 Uiso
C42 C 0.4772(3) 0.4541(3) 0.06367(18) 0.0457 Uani
C43 C 0.5528(3) 0.5183(3) 0.0499(2) 0.0516 Uani
H33 H 0.5893 0.5311 0.0837 0.0620 Uiso
C44 C 0.4242(4) 0.4361(3) 0.0124(2) 0.0530 Uani
H34 H 0.3725 0.3926 0.0206 0.0640 Uiso
Zn1 Zn 0.50349(4) 0.51314(4) 0.36759(2) 0.0462 Uani
O1 O 0.2993(2) 0.6991(2) 0.39377(15) 0.0664 Uani
O2 O 0.3543(2) 0.5304(2) 0.43257(13) 0.0552 Uani
O7 O 0.5919(2) 0.3631(2) 0.39460(13) 0.0554 Uani
O8 O 0.7089(2) 0.4213(2) 0.31194(14) 0.0595 Uani
N1 N 0.5852(3) 0.6121(3) 0.39474(16) 0.0489 Uani
N2 N 0.6217(3) 0.7126(3) 0.46143(16) 0.0492 Uani
N3 N 0.4505(3) 0.5219(3) 0.27916(15) 0.0478 Uani
N4 N 0.4336(3) 0.4663(3) 0.18588(16) 0.0548 Uani
H18 H 0.9750 0.7011 0.2837 0.0670 Uiso
C27 C 0.9820(3) 0.7788(3) 0.1935(2) 0.0468 Uani
C30 C 0.9099(4) 0.7223(3) 0.1647(2) 0.0508 Uani
O11 O 0.9203(2) 0.7295(2) 0.10105(14) 0.0627 Uani
O12 O 0.8451(3) 0.6745(2) 0.20136(15) 0.0642 Uani
Zn7 Zn 0.80548(4) 0.66292(4) 0.07992(2) 0.0462 Uani
C45 C 0.8737(3) 0.4311(3) 0.0580(2) 0.0466 Uani
H35 H 0.9005 0.4438 0.0130 0.0560 Uiso
C46 C 0.8284(4) 0.3484(4) 0.1523(2) 0.0632 Uani
H36 H 0.8170 0.2952 0.1849 0.0750 Uiso
C47 C 0.8011(4) 0.4535(4) 0.1600(2) 0.0563 Uani
H37 H 0.7682 0.4860 0.2000 0.0680 Uiso
C48 C 0.9275(4) 0.2332(3) 0.0555(2) 0.0580 Uani
H38 H 0.9617 0.1794 0.0884 0.0690 Uiso
H39 H 0.9928 0.2402 0.0203 0.0690 Uiso
C49 C 0.8403(3) 0.1936(3) 0.0265(2) 0.0528 Uani
C50 C 0.8490(4) 0.0857(4) 0.0320(2) 0.0666 Uani
H40 H 0.9008 0.0398 0.0586 0.0800 Uiso
N5 N 0.8286(3) 0.5064(3) 0.10018(16) 0.0457 Uani
N6 N 0.8767(3) 0.3350(3) 0.08654(17) 0.0512 Uani
C77 C 0.0504(3) 0.3311(3) 0.43521(19) 0.0467 Uani
C78 C 0.0268(4) 0.2488(3) 0.47673(19) 0.0521 Uani
H65 H 0.0835 0.1821 0.4762 0.0630 Uiso
C80 C 0.2000(4) 0.3923(4) 0.3614(2) 0.0673 Uani
H67 H 0.1942 0.4434 0.3937 0.0810 Uiso
H68 H 0.2841 0.3656 0.3423 0.0810 Uiso
C81 C 0.1507(3) 0.3948(3) 0.25342(19) 0.0466 Uani
C82 C 0.0966(4) 0.4577(3) 0.2037(2) 0.0544 Uani
H69 H 0.0498 0.5273 0.2117 0.0660 Uiso
C83 C 0.1103(3) 0.4197(3) 0.14233(19) 0.0531 Uani
H70 H 0.0756 0.4645 0.1085 0.0640 Uiso
C84 C 0.1750(3) 0.3159(3) 0.13031(18) 0.0391 Uani
C85 C 0.2252(3) 0.2524(3) 0.1817(2) 0.0505 Uani
H71 H 0.2681 0.1814 0.1748 0.0610 Uiso
C86 C 0.2133(4) 0.2914(3) 0.24316(19) 0.0512 Uani
H72 H 0.2480 0.2473 0.2773 0.0620 Uiso
C87 C 0.1955(3) 0.2761(4) 0.0619(2) 0.0477 Uani
C109 C 0.2174(4) 0.9546(4) 0.0011(3) 0.0713 Uani
C110 C 0.2973(4) 0.8890(3) 0.0392(2) 0.0596 Uani
C111 C 0.3085(4) 0.7823(4) 0.0427(3) 0.0772 Uani
H90 H 0.3635 0.7361 0.0674 0.0930 Uiso
C112 C 0.2410(4) 0.7411(4) 0.0107(3) 0.0749 Uani
H91 H 0.2503 0.6676 0.0142 0.0900 Uiso
C113 C 0.3657(4) 0.9384(4) 0.0763(3) 0.0791 Uani
H92 H 0.4000 0.9880 0.0459 0.0950 Uiso
H93 H 0.3097 0.9794 0.1114 0.0950 Uiso
C114 C 0.5698(4) 0.8174(3) 0.0720(2) 0.0545 Uani
H94 H 0.5952 0.8360 0.0277 0.0660 Uiso
C115 C 0.5642(4) 0.7416(4) 0.1698(2) 0.0742 Uani
H95 H 0.5864 0.6974 0.2069 0.0890 Uiso
C116 C 0.4563(4) 0.8123(4) 0.1670(3) 0.0763 Uani
H96 H 0.3906 0.8253 0.2011 0.0910 Uiso
O15 O 0.1616(2) 0.3477(2) 0.01624(13) 0.0535 Uani
O16 O 0.2432(3) 0.1813(2) 0.05312(14) 0.0740 Uani
O17 O 0.1345(3) 0.4448(2) 0.31082(13) 0.0603 Uani
O18 O 0.1591(2) 0.3070(2) 0.39376(13) 0.0586 Uani
N15 N 0.6366(3) 0.7448(3) 0.10935(17) 0.0539 Uani
N16 N 0.4615(3) 0.8608(3) 0.1056(2) 0.0605 Uani
H89 H 0.2083 0.0281 0.9978 0.0850 Uiso
C5 C 0.9496(3) 0.6689(3) 0.56479(19) 0.0467 Uani
C6 C 0.9732(4) 0.7512(3) 0.52327(19) 0.0521 Uani
H3 H 0.9165 0.8179 0.5238 0.0630 Uiso
C8 C 0.8000(4) 0.6077(4) 0.6386(2) 0.0673 Uani
H5 H 0.8058 0.5566 0.6063 0.0810 Uiso
H6 H 0.7159 0.6344 0.6577 0.0810 Uiso
C9 C 0.8493(3) 0.6052(3) 0.74658(19) 0.0466 Uani
C10 C 0.9034(4) 0.5423(3) 0.7963(2) 0.0544 Uani
H7 H 0.9502 0.4727 0.7883 0.0660 Uiso
C11 C 0.8897(3) 0.5803(3) 0.85767(19) 0.0531 Uani
H8 H 0.9244 0.5355 0.8915 0.0640 Uiso
C12 C 0.8250(3) 0.6841(3) 0.86969(18) 0.0391 Uani
C13 C 0.7748(3) 0.7476(3) 0.8183(2) 0.0505 Uani
H9 H 0.7319 0.8186 0.8252 0.0610 Uiso
C14 C 0.7867(4) 0.7086(3) 0.75684(19) 0.0512 Uani
H10 H 0.7520 0.7527 0.7227 0.0620 Uiso
C15 C 0.8045(3) 0.7239(4) 0.9381(2) 0.0477 Uani
C51 C 0.7826(4) 0.0454(4) 0.9989(3) 0.0713 Uani
C52 C 0.7027(4) 0.1110(3) 0.9608(2) 0.0596 Uani
C53 C 0.6915(4) 0.2177(4) 0.9573(3) 0.0772 Uani
H42 H 0.6365 0.2639 0.9326 0.0930 Uiso
C54 C 0.7590(4) 0.2589(4) 0.9893(3) 0.0749 Uani
H43 H 0.7497 0.3324 0.9858 0.0900 Uiso
C55 C 0.6343(4) 0.0616(4) 0.9237(3) 0.0791 Uani
H44 H 0.6000 0.0120 0.9541 0.0950 Uiso
H45 H 0.6903 0.0206 0.8886 0.0950 Uiso
C56 C 0.4302(4) 0.1826(3) 0.9280(2) 0.0545 Uani
H46 H 0.4048 0.1640 0.9723 0.0660 Uiso
C57 C 0.4358(4) 0.2584(4) 0.8302(2) 0.0742 Uani
H47 H 0.4136 0.3026 0.7931 0.0890 Uiso
C58 C 0.5437(4) 0.1877(4) 0.8330(3) 0.0763 Uani
H48 H 0.6094 0.1747 0.7989 0.0910 Uiso
O3 O 0.8384(2) 0.6523(2) 0.98376(13) 0.0535 Uani
O4 O 0.7568(3) 0.8187(2) 0.94688(14) 0.0740 Uani
O5 O 0.8655(3) 0.5552(2) 0.68918(13) 0.0603 Uani
O6 O 0.8409(2) 0.6930(2) 0.60624(13) 0.0586 Uani
N7 N 0.3634(3) 0.2552(3) 0.89065(17) 0.0539 Uani
N8 N 0.5385(3) 0.1392(3) 0.8944(2) 0.0605 Uani
C103 C 0.1263(3) 0.5689(3) 0.9420(2) 0.0466 Uani
H83 H 0.0995 0.5562 0.9870 0.0560 Uiso
C104 C 0.1716(4) 0.6516(4) 0.8477(2) 0.0632 Uani
H84 H 0.1830 0.7048 0.8151 0.0750 Uiso
C105 C 0.1989(4) 0.5465(4) 0.8400(2) 0.0563 Uani
H85 H 0.2318 0.5140 0.8000 0.0680 Uiso
C106 C 0.0725(4) 0.7668(3) 0.9445(2) 0.0580 Uani
H86 H 0.0383 0.8206 0.9116 0.0690 Uiso
H87 H 0.0072 0.7598 0.9797 0.0690 Uiso
C107 C 0.1597(3) 0.8064(3) 0.9735(2) 0.0528 Uani
C108 C 0.1510(4) 0.9143(4) 0.9680(2) 0.0666 Uani
H88 H 0.0992 0.9602 0.9414 0.0800 Uiso
Zn4 Zn 0.19452(4) 0.33708(4) 0.92008(2) 0.0462 Uani
N13 N 0.1714(3) 0.4936(3) 0.89982(16) 0.0457 Uani
N14 N 0.1233(3) 0.6650(3) 0.91346(17) 0.0512 Uani
O26 O 0.0797(2) 0.2705(2) 0.89895(14) 0.0627 Uani
H80 H 0.0250 0.2989 0.7163 0.0670 Uiso
C99 C 0.0180(3) 0.2212(3) 0.8065(2) 0.0468 Uani
C102 C 0.0901(4) 0.2777(3) 0.8353(2) 0.0508 Uani
O24 O 0.1549(3) 0.3255(2) 0.79864(15) 0.0642 Uani
H41 H 0.7917 0.9719 0.0022 0.0850 Uiso
C95 C 0.8321(4) 0.0524(3) 0.6598(2) 0.0583 Uani
H77 H 0.7842 0.1232 0.6469 0.0690 Uiso
H78 H 0.7919 0.0009 0.6518 0.0690 Uiso
C96 C 0.8979(3) 0.1088(3) 0.7508(2) 0.0456 Uani
C97 C 0.9341(4) 0.1907(3) 0.7141(2) 0.0533 Uani
H79 H 0.9169 0.2096 0.6711 0.0640 Uiso
C98 C 0.9968(4) 0.2452(3) 0.7418(2) 0.0555 Uani
C100 C 0.9764(4) 0.1413(4) 0.8425(2) 0.0606 Uani
H81 H 0.9873 0.1260 0.8868 0.0730 Uiso
C101 C 0.9187(4) 0.0831(4) 0.8150(2) 0.0591 Uani
H82 H 0.8942 0.0269 0.8397 0.0710 Uiso
O21 O 0.9439(3) 0.0317(2) 0.62021(13) 0.0570 Uani
O22 O 0.8369(2) 0.0473(2) 0.72878(14) 0.0555 Uani
H74 H 0.9329 0.8604 0.6991 0.0610 Uiso
loop_
_atom_site_aniso_label
_atom_site_aniso_U_11
_atom_site_aniso_U_22
_atom_site_aniso_U_33
_atom_site_aniso_U_23
_atom_site_aniso_U_13
_atom_site_aniso_U_12
C23 0.055 0.053 0.068 -0.02 -0.024 -0.002
C24 0.041 0.046 0.05 -0.015 -0.009 -0.007
C25 0.071 0.05 0.041 -0.008 -0.024 -0.009
C26 0.066 0.051 0.051 -0.002 -0.017 -0.014
C28 0.067 0.074 0.045 -0.005 -0.018 -0.02
C29 0.063 0.064 0.057 -0.007 -0.011 -0.026
O9 0.0597 0.0448 0.057 -0.0104 -0.0127 0.0053
O10 0.0543 0.058 0.0585 -0.0179 -0.01 -0.0163
C59 0.052 0.045 0.041 -0.0071 -0.009 -0.006
C60 0.058 0.056 0.053 -0.003 0.007 -0.017
C61 0.058 0.063 0.072 -0.001 -0.004 -0.024
C62 0.072 0.05 0.062 -0.007 -0.025 -0.013
C63 0.056 0.038 0.052 -0.006 -0.016 -0.011
C64 0.08 0.046 0.079 -0.014 -0.039 -0.012
C65 0.066 0.054 0.066 -0.005 -0.037 -0.006
N9 0.051 0.051 0.041 -0.0053 -0.0057 -0.0085
N10 0.055 0.043 0.05 -0.0053 -0.0125 -0.0109
Zn6 0.0512 0.0461 0.0371 -0.0058 -0.0062 -0.0062
C66 0.054 0.063 0.04 -0.004 -0.011 -0.012
C67 0.048 0.086 0.045 -0.003 -0.005 -0.005
C68 0.056 0.099 0.051 0.012 -0.016 -0.019
C69 0.118 0.076 0.043 -0.002 -0.02 -0.058
C70 0.051 0.055 0.036 -0.0105 -0.0058 -0.02
C71 0.055 0.069 0.044 -0.008 -0.019 -0.029
C72 0.059 0.07 0.044 -0.008 -0.008 -0.038
N11 0.044 0.055 0.0402 -0.0069 -0.0023 -0.0085
N12 0.067 0.069 0.037 -0.0008 -0.0067 -0.034
C73 0.047 0.06 0.037 -0.008 -0.0019 -0.011
C74 0.047 0.049 0.033 -0.0065 -0.0055 -0.005
C75 0.053 0.053 0.044 -0.008 -0.005 -0.002
C76 0.064 0.058 0.04 0.005 -0.005 -0.016
C79 0.051 0.055 0.039 0.001 0 -0.007
C88 0.058 0.043 0.041 -0.01 -0.008 -0.004
C89 0.052 0.045 0.041 -0.009 -0.006 -0.005
C90 0.055 0.047 0.045 -0.004 -0.005 -0.012
C91 0.046 0.05 0.051 -0.013 -0.002 -0.004
C92 0.053 0.038 0.045 -0.008 -0.012 -0.003
C93 0.073 0.046 0.055 0.002 0.001 -0.009
C94 0.059 0.058 0.061 -0.003 0.007 -0.006
O13 0.0541 0.065 0.063 0.0073 0.0092 -0.0054
O14 0.0501 0.0521 0.0492 -0.0097 -0.0012 0.0061
O19 0.0475 0.0502 0.0545 -0.007 0.005 0.0019
O20 0.0627 0.0511 0.0523 0.0036 -0.0041 -0.0017
C1 0.047 0.06 0.037 -0.008 -0.0019 -0.011
C2 0.047 0.049 0.033 -0.0065 -0.0055 -0.005
C3 0.053 0.053 0.044 -0.008 -0.005 -0.002
C4 0.064 0.058 0.04 0.005 -0.005 -0.016
C7 0.051 0.055 0.039 0.001 0 -0.007
C16 0.058 0.043 0.041 -0.01 -0.008 -0.004
C17 0.052 0.045 0.041 -0.009 -0.006 -0.005
C18 0.055 0.047 0.045 -0.004 -0.005 -0.012
C19 0.046 0.05 0.051 -0.013 -0.002 -0.004
C20 0.053 0.038 0.045 -0.008 -0.012 -0.003
C21 0.073 0.046 0.055 0.002 0.001 -0.009
C22 0.059 0.058 0.061 -0.003 0.007 -0.006
C31 0.052 0.045 0.041 -0.0071 -0.009 -0.006
C32 0.058 0.056 0.053 -0.003 0.007 -0.017
C33 0.058 0.063 0.072 -0.001 -0.004 -0.024
C34 0.072 0.05 0.062 -0.007 -0.025 -0.013
C35 0.056 0.038 0.052 -0.006 -0.016 -0.011
C36 0.08 0.046 0.079 -0.014 -0.039 -0.012
C37 0.066 0.054 0.066 -0.005 -0.037 -0.006
C38 0.054 0.063 0.04 -0.004 -0.011 -0.012
C39 0.048 0.086 0.045 -0.003 -0.005 -0.005
C40 0.056 0.099 0.051 0.012 -0.016 -0.019
C41 0.118 0.076 0.043 -0.002 -0.02 -0.058
C42 0.051 0.055 0.036 -0.0105 -0.0058 -0.02
C43 0.055 0.069 0.044 -0.008 -0.019 -0.029
C44 0.059 0.07 0.044 -0.008 -0.008 -0.038
Zn1 0.0512 0.0461 0.0371 -0.0058 -0.0062 -0.0062
O1 0.0541 0.065 0.063 0.0073 0.0092 -0.0054
O2 0.0501 0.0521 0.0492 -0.0097 -0.0012 0.0061
O7 0.0475 0.0502 0.0545 -0.007 0.005 0.0019
O8 0.0627 0.0511 0.0523 0.0036 -0.0041 -0.0017
N1 0.051 0.051 0.041 -0.0053 -0.0057 -0.0085
N2 0.055 0.043 0.05 -0.0053 -0.0125 -0.0109
N3 0.044 0.055 0.0402 -0.0069 -0.0023 -0.0085
N4 0.067 0.069 0.037 -0.0008 -0.0067 -0.034
C27 0.047 0.049 0.043 -0.006 -0.0118 -0.007
C30 0.041 0.049 0.062 -0.011 -0.018 -0.003
O11 0.065 0.087 0.0498 -0.0121 -0.0158 -0.0354
O12 0.066 0.072 0.063 -0.0028 -0.0156 -0.0295
Zn7 0.0406 0.0556 0.0445 -0.009 -0.0094 -0.0126
C45 0.043 0.056 0.042 -0.002 -0.0081 -0.015
C46 0.073 0.076 0.045 0.004 -0.008 -0.031
C47 0.06 0.073 0.042 -0.012 -0.001 -0.029
C48 0.052 0.044 0.076 -0.003 -0.016 -0.007
C49 0.045 0.045 0.067 -0.01 -0.004 -0.011
C50 0.065 0.051 0.088 0.005 -0.028 -0.016
N5 0.042 0.056 0.0391 -0.0073 -0.005 -0.0126
N6 0.055 0.051 0.049 -0.005 -0.0059 -0.0173
C77 0.04 0.063 0.036 -0.006 -0.0115 -0.008
C78 0.048 0.054 0.043 0.001 -0.007 0.002
C80 0.064 0.11 0.038 -0.006 -0.012 -0.037
C81 0.052 0.054 0.035 -0.005 -0.0028 -0.018
C82 0.062 0.046 0.05 -0.013 -0.009 -0.003
C83 0.054 0.06 0.041 -0.003 -0.016 -0.004
C84 0.036 0.041 0.04 -0.0073 -0.0063 -0.0084
C85 0.052 0.045 0.051 -0.001 -0.009 -0.008
C86 0.059 0.055 0.037 0.001 -0.009 -0.012
C87 0.038 0.057 0.049 -0.011 -0.0049 -0.013
C109 0.068 0.046 0.1 -0.001 -0.015 -0.016
C110 0.042 0.045 0.092 -0.019 -0.012 -0.006
C111 0.058 0.047 0.13 -0.016 -0.044 0.002
C112 0.067 0.044 0.118 -0.013 -0.041 -0.003
C113 0.046 0.054 0.142 -0.03 -0.032 -0.002
C114 0.044 0.059 0.063 -0.015 -0.007 -0.015
C115 0.056 0.1 0.062 -0.005 -0.003 -0.018
C116 0.054 0.09 0.078 -0.017 0.013 -0.019
O15 0.0546 0.0641 0.042 -0.0069 -0.0122 -0.0128
O16 0.106 0.051 0.058 -0.0185 -0.0101 -0.0071
O17 0.078 0.069 0.0354 -0.011 -0.0011 -0.0247
O18 0.0432 0.085 0.0393 0.0007 -0.0004 -0.0102
N15 0.043 0.066 0.054 -0.0139 -0.0112 -0.0112
N16 0.035 0.061 0.087 -0.022 -0.008 -0.0104
C5 0.04 0.063 0.036 -0.006 -0.0115 -0.008
C6 0.048 0.054 0.043 0.001 -0.007 0.002
C8 0.064 0.11 0.038 -0.006 -0.012 -0.037
C9 0.052 0.054 0.035 -0.005 -0.0028 -0.018
C10 0.062 0.046 0.05 -0.013 -0.009 -0.003
C11 0.054 0.06 0.041 -0.003 -0.016 -0.004
C12 0.036 0.041 0.04 -0.0073 -0.0063 -0.0084
C13 0.052 0.045 0.051 -0.001 -0.009 -0.008
C14 0.059 0.055 0.037 0.001 -0.009 -0.012
C15 0.038 0.057 0.049 -0.011 -0.0049 -0.013
C51 0.068 0.046 0.1 -0.001 -0.015 -0.016
C52 0.042 0.045 0.092 -0.019 -0.012 -0.006
C53 0.058 0.047 0.13 -0.016 -0.044 0.002
C54 0.067 0.044 0.118 -0.013 -0.041 -0.003
C55 0.046 0.054 0.142 -0.03 -0.032 -0.002
C56 0.044 0.059 0.063 -0.015 -0.007 -0.015
C57 0.056 0.1 0.062 -0.005 -0.003 -0.018
C58 0.054 0.09 0.078 -0.017 0.013 -0.019
O3 0.0546 0.0641 0.042 -0.0069 -0.0122 -0.0128
O4 0.106 0.051 0.058 -0.0185 -0.0101 -0.0071
O5 0.078 0.069 0.0354 -0.011 -0.0011 -0.0247
O6 0.0432 0.085 0.0393 0.0007 -0.0004 -0.0102
N7 0.043 0.066 0.054 -0.0139 -0.0112 -0.0112
N8 0.035 0.061 0.087 -0.022 -0.008 -0.0104
C103 0.043 0.056 0.042 -0.002 -0.0081 -0.015
C104 0.073 0.076 0.045 0.004 -0.008 -0.031
C105 0.06 0.073 0.042 -0.012 -0.001 -0.029
C106 0.052 0.044 0.076 -0.003 -0.016 -0.007
C107 0.045 0.045 0.067 -0.01 -0.004 -0.011
C108 0.065 0.051 0.088 0.005 -0.028 -0.016
Zn4 0.0406 0.0556 0.0445 -0.009 -0.0094 -0.0126
N13 0.042 0.056 0.0391 -0.0073 -0.005 -0.0126
N14 0.055 0.051 0.049 -0.005 -0.0059 -0.0173
O26 0.065 0.087 0.0498 -0.0121 -0.0158 -0.0354
C99 0.047 0.049 0.043 -0.006 -0.0118 -0.007
C102 0.041 0.049 0.062 -0.011 -0.018 -0.003
O24 0.066 0.072 0.063 -0.0028 -0.0156 -0.0295
C95 0.055 0.053 0.068 -0.02 -0.024 -0.002
C96 0.041 0.046 0.05 -0.015 -0.009 -0.007
C97 0.071 0.05 0.041 -0.008 -0.024 -0.009
C98 0.066 0.051 0.051 -0.002 -0.017 -0.014
C100 0.067 0.074 0.045 -0.005 -0.018 -0.02
C101 0.063 0.064 0.057 -0.007 -0.011 -0.026
O21 0.0597 0.0448 0.057 -0.0104 -0.0127 0.0053
O22 0.0543 0.058 0.0585 -0.0179 -0.01 -0.0163
loop_
_geom_bond_atom_site_label_1
_geom_bond_atom_site_label_2
_geom_bond_site_symmetry_1
_geom_bond_site_symmetry_2
C23 H15 1_555 1_555
H16 C23 1_555 1_555
C24 C25 1_555 1_555
C25 H17 1_555 1_555
C26 C25 1_555 1_555
H19 C28 1_555 1_555
C29 C24 1_555 1_555
H20 C29 1_555 1_555
O10 C23 1_555 1_555
C23 O9 1_555 1_555
C24 O10 1_555 1_555
C28 C29 1_555 1_555
C59 H49 1_555 1_555
C60 H50 1_555 1_555
C61 C60 1_555 1_555
H51 C61 1_555 1_555
C62 H52 1_555 1_555
H53 C62 1_555 1_555
C63 C62 1_555 1_555
H54 C64 1_555 1_555
H55 C65 1_555 1_555
N9 C59 1_555 1_555
N10 C59 1_555 1_555
Zn6 N9 1_555 1_555
C60 N9 1_555 1_555
C61 N10 1_555 1_555
C62 N10 1_555 1_555
C63 C64 1_555 1_555
C63 C65 1_555 1_555
C66 H56 1_555 1_555
C67 H57 1_555 1_555
C68 C67 1_555 1_555
H58 C68 1_555 1_555
C69 H59 1_555 1_555
H60 C69 1_555 1_555
C70 C69 1_555 1_555
H61 C71 1_555 1_555
H62 C72 1_555 1_555
N11 C66 1_555 1_555
N12 C66 1_555 1_555
Zn6 N11 1_555 1_555
C67 N11 1_555 1_555
C68 N12 1_555 1_555
C69 N12 1_555 1_555
C70 C71 1_555 1_555
C70 C72 1_555 1_555
C73 C74 1_555 1_555
C74 C75 1_555 1_555
C75 H63 1_555 1_555
C76 C75 1_555 1_555
H64 C76 1_555 1_555
C79 C74 1_555 1_555
H66 C79 1_555 1_555
C88 C89 1_555 1_555
C89 C90 1_555 1_555
C90 H73 1_555 1_555
C91 C90 1_555 1_555
C92 C91 1_555 1_555
C93 C92 1_555 1_555
H75 C93 1_555 1_555
C94 C89 1_555 1_555
H76 C94 1_555 1_555
Zn6 O14 1_555 1_555
O13 C73 1_555 1_555
O14 C73 1_555 1_555
O19 C88 1_555 1_555
O20 C88 1_555 1_555
C93 C94 1_555 1_555
Zn6 O19 1_555 1_555
Zn6 O20 1_555 1_555
C1 C2 1_555 1_555
C2 C3 1_555 1_555
C3 H1 1_555 1_555
C4 C3 1_555 1_555
H2 C4 1_555 1_555
C7 C2 1_555 1_555
H4 C7 1_555 1_555
C16 C17 1_555 1_555
C17 C18 1_555 1_555
C18 H11 1_555 1_555
C19 C18 1_555 1_555
C20 C19 1_555 1_555
C21 C20 1_555 1_555
H13 C21 1_555 1_555
C22 C17 1_555 1_555
H14 C22 1_555 1_555
C31 H21 1_555 1_555
C32 H22 1_555 1_555
C33 C32 1_555 1_555
H23 C33 1_555 1_555
C34 H24 1_555 1_555
H25 C34 1_555 1_555
C35 C34 1_555 1_555
C36 C35 1_555 1_555
H26 C36 1_555 1_555
C37 C35 1_555 1_555
H27 C37 1_555 1_555
C38 H28 1_555 1_555
C39 H29 1_555 1_555
C40 C39 1_555 1_555
H30 C40 1_555 1_555
C41 H31 1_555 1_555
H32 C41 1_555 1_555
C42 C41 1_555 1_555
C43 C42 1_555 1_555
H33 C43 1_555 1_555
C44 C42 1_555 1_555
H34 C44 1_555 1_555
Zn1 O2 1_555 1_555
O1 C1 1_555 1_555
O2 C1 1_555 1_555
O7 C16 1_555 1_555
O8 C16 1_555 1_555
N1 C31 1_555 1_555
N2 C31 1_555 1_555
N3 C38 1_555 1_555
N4 C38 1_555 1_555
C21 C22 1_555 1_555
C32 N1 1_555 1_555
C33 N2 1_555 1_555
C34 N2 1_555 1_555
C39 N3 1_555 1_555
C40 N4 1_555 1_555
C41 N4 1_555 1_555
Zn1 O7 1_555 1_555
Zn1 O8 1_555 1_555
Zn1 N1 1_555 1_555
Zn1 N3 1_555 1_555
C30 C27 1_555 1_555
O11 C30 1_555 1_555
O12 C30 1_555 1_555
Zn7 O11 1_555 1_555
C45 H35 1_555 1_555
C46 H36 1_555 1_555
C47 C46 1_555 1_555
H37 C47 1_555 1_555
C48 H38 1_555 1_555
H39 C48 1_555 1_555
C49 C48 1_555 1_555
C50 C49 1_555 1_555
H40 C50 1_555 1_555
N5 C45 1_555 1_555
N6 C45 1_555 1_555
C78 C77 1_555 1_555
H65 C78 1_555 1_555
C80 H67 1_555 1_555
H68 C80 1_555 1_555
C81 C82 1_555 1_555
C82 H69 1_555 1_555
C83 C82 1_555 1_555
H70 C83 1_555 1_555
C84 C83 1_555 1_555
C85 C84 1_555 1_555
H71 C85 1_555 1_555
C86 C81 1_555 1_555
H72 C86 1_555 1_555
C87 C84 1_555 1_555
C110 C109 1_555 1_555
C111 C110 1_555 1_555
H90 C111 1_555 1_555
H91 C112 1_555 1_555
C113 C110 1_555 1_555
H92 C113 1_555 1_555
H93 C113 1_555 1_555
C114 H94 1_555 1_555
C115 H95 1_555 1_555
C116 C115 1_555 1_555
H96 C116 1_555 1_555
O15 C87 1_555 1_555
O16 C87 1_555 1_555
O17 C80 1_555 1_555
O18 C77 1_555 1_555
N15 Zn7 1_555 1_555
N16 C113 1_555 1_555
C46 N6 1_555 1_555
C47 N5 1_555 1_555
C48 N6 1_555 1_555
Zn7 N5 1_555 1_555
C80 O18 1_555 1_555
C81 O17 1_555 1_555
C85 C86 1_555 1_555
C111 C112 1_555 1_555
C114 N15 1_555 1_555
C114 N16 1_555 1_555
C115 N15 1_555 1_555
C116 N16 1_555 1_555
C6 C5 1_555 1_555
H3 C6 1_555 1_555
C8 H5 1_555 1_555
H6 C8 1_555 1_555
C9 C10 1_555 1_555
C10 H7 1_555 1_555
C11 C10 1_555 1_555
H8 C11 1_555 1_555
C12 C11 1_555 1_555
C13 C12 1_555 1_555
H9 C13 1_555 1_555
C14 C9 1_555 1_555
H10 C14 1_555 1_555
C15 C12 1_555 1_555
C52 C51 1_555 1_555
C53 C52 1_555 1_555
H42 C53 1_555 1_555
H43 C54 1_555 1_555
C55 C52 1_555 1_555
H44 C55 1_555 1_555
H45 C55 1_555 1_555
C56 H46 1_555 1_555
C57 H47 1_555 1_555
C58 C57 1_555 1_555
H48 C58 1_555 1_555
O3 C15 1_555 1_555
O4 C15 1_555 1_555
O5 C8 1_555 1_555
O6 C5 1_555 1_555
N7 C56 1_555 1_555
N8 C55 1_555 1_555
C103 H83 1_555 1_555
C104 H84 1_555 1_555
C105 C104 1_555 1_555
H85 C105 1_555 1_555
C106 H86 1_555 1_555
H87 C106 1_555 1_555
C107 C106 1_555 1_555
C108 C107 1_555 1_555
H88 C108 1_555 1_555
Zn4 N7 1_555 1_555
N13 C103 1_555 1_555
N14 C103 1_555 1_555
O26 Zn4 1_555 1_555
C8 O6 1_555 1_555
C9 O5 1_555 1_555
C13 C14 1_555 1_555
C53 C54 1_555 1_555
C56 N8 1_555 1_555
C57 N7 1_555 1_555
C58 N8 1_555 1_555
C104 N14 1_555 1_555
C105 N13 1_555 1_555
C106 N14 1_555 1_555
Zn4 N13 1_555 1_555
C102 C99 1_555 1_555
O26 C102 1_555 1_555
O24 C102 1_555 1_555
C95 H77 1_555 1_555
H78 C95 1_555 1_555
C96 C97 1_555 1_555
C97 H79 1_555 1_555
C98 C97 1_555 1_555
H81 C100 1_555 1_555
C101 C96 1_555 1_555
H82 C101 1_555 1_555
O22 C95 1_555 1_555
C95 O21 1_555 1_555
C96 O22 1_555 1_555
C100 C101 1_555 1_555

#END
