
###############################################################################
#
# This file contains modified crystal structure data generated from the
# MOF subset of the Cambridge Structural Database (CSD) v543 
# hosted by the Cambridge Crystallographic Data Centre (CCDC).
#
# This work is licensed under the Creative Commons
# Attribution-NonCommercial-ShareAlike 4.0 International License.
# To view a copy of this license, visit
# http://creativecommons.org/licenses/by-nc-sa/4.0/
# or send a letter to
# Creative Commons, PO Box 1866, Mountain View, CA 94042, USA.
#
# CIF created using the CSD Python API on 29 September 2022
# The structure has been converted into the P1 space group
# The structure has a 3D framework
# The original CSD entry NEGQIC is in the monoclinic crystal system
# The framework has been calculated to contain at least 10.0% void space
# The void calculation uses a probe of radius 1.32A, grid spacing 0.4
#
###############################################################################

data_NEGQIC
_chemical_formula_moiety         '(C312 H264 Co10 N16 O64)n'
_symmetry_cell_setting           triclinic
_symmetry_space_group_name_H-M   'P 1'
_symmetry_Int_Tables_number      1
_space_group_name_Hall           'P 1'
loop_
_symmetry_equiv_pos_site_id
_symmetry_equiv_pos_as_xyz
1 x,y,z
_cell_length_a                   30.220(6)
_cell_length_b                   16.499(3)
_cell_length_c                   21.605(4)
_cell_angle_alpha                90
_cell_angle_beta                 113.720(2)
_cell_angle_gamma                90
_cell_volume                     9862.23
loop_
_atom_site_label
_atom_site_type_symbol
_atom_site_fract_x
_atom_site_fract_y
_atom_site_fract_z
O1 O 0.70454(9) 0.28288(16) 0.04441(12)
N1 N 0.50530(11) 0.1300(2) 0.01998(16)
C1 C 0.66407(12) 0.3163(2) 0.01977(17)
C2 C 0.62213(13) 0.2697(2) 0.02110(17)
C3 C 0.62691(13) 0.1863(2) 0.03195(18)
H1 H 0.6562 0.1612 0.0395
C4 C 0.58852(13) 0.1406(2) 0.03165(18)
H2 H 0.5921 0.0850 0.0392
C5 C 0.54452(13) 0.1773(2) 0.02008(18)
C6 C 0.53945(14) 0.2608(3) 0.01027(19)
H3 H 0.5104 0.2859 0.0039
C7 C 0.57814(13) 0.3066(3) 0.00997(18)
H4 H 0.5745 0.3622 0.0023
C8 C 0.50740(13) 0.0742(2) 0.07009(18)
C9 C 0.54673(13) 0.0513(2) 0.12802(18)
H5 H 0.5772 0.0728 0.1376
C13 C 0.46046(13) 0.0439(2) 0.05522(18)
C21 C 0.61892(14) 0.0243(3) 0.26789(19)
H11 H 0.6187 0.0756 0.2499
C22 C 0.65765(14) 0.0013(2) 0.32701(19)
H12 H 0.6834 0.0367 0.3475
N4 N 0.6281(4) 0.6499(6) 0.0001(6)
C75 C 0.6694(4) 0.6962(7) 0.0490(6)
H55 H 0.6598 0.7221 0.0813
H56 H 0.6794 0.7365 0.0253
H57 H 0.6958 0.6599 0.0719
H60 H 0.5908 0.7433 0.0062
H62 H 0.8057 0.5812 0.0131
C78 C 0.7607(4) 0.6559(7) 0.0294(6)
H63 H 0.7787 0.7052 0.0349
H64 H 0.7687 0.6311 0.0728
H65 H 0.7267 0.6678 0.0093
Co6 Co 0.7500 0.2500 0.0000
O20 O 0.76385(10) 0.44740(17) 0.06202(14)
Co2 Co 0.292986(17) 0.45099(3) 0.52662(2)
O2 O 0.65610(9) 0.38662(17) 0.99429(14)
O5 O 0.33286(11) 0.43562(17) 0.63151(14)
O6 O 0.28010(9) 0.34336(15) 0.57748(11)
O7 O 0.32128(13) 0.55674(19) 0.5071(2)
O8 O 0.24605(14) 0.5287(2) 0.55506(19)
N2 N 0.3719(4) 0.6499(6) 0.4999(6)
C14 C 0.42878(13) 0.0826(2) 0.99347(18)
C15 C 0.37931(13) 0.0769(2) 0.95354(18)
H8 H 0.3599 0.0425 0.9658
C16 C 0.35969(13) 0.1232(2) 0.89553(18)
H9 H 0.3267 0.1203 0.8693
C17 C 0.38829(13) 0.1742(2) 0.87520(18)
C18 C 0.43787(13) 0.1792(3) 0.91356(18)
H10 H 0.4575 0.2115 0.8999
C19 C 0.45701(13) 0.1344(2) 0.97310(18)
C27 C 0.36674(13) 0.2257(2) 0.81336(18)
C28 C 0.38962(15) 0.2963(3) 0.8072(2)
H15 H 0.4178 0.3126 0.8429
C29 C 0.37143(15) 0.3431(3) 0.74911(19)
H16 H 0.3874 0.3902 0.7462
C30 C 0.32919(13) 0.3196(2) 0.69501(17)
C31 C 0.30482(13) 0.2513(2) 0.70100(17)
H17 H 0.2761 0.2362 0.6656
C32 C 0.32292(13) 0.2052(2) 0.75964(17)
H18 H 0.3058 0.1600 0.7635
C33 C 0.31312(14) 0.3686(3) 0.63114(19)
C34 C 0.4074(3) 0.5400(6) 0.5796(5)
H19 H 0.4035 0.5325 0.6213
H20 H 0.4345 0.5748 0.5872
H21 H 0.4128 0.4884 0.5633
C35 C 0.3620(3) 0.5782(5) 0.5277(5)
C36 C 0.3306(4) 0.6962(7) 0.4510(6)
H22 H 0.3402 0.7221 0.4187
H23 H 0.3206 0.7365 0.4747
H24 H 0.3042 0.6599 0.4281
C37 C 0.4153(4) 0.6928(8) 0.5179(7)
H25 H 0.4377 0.6614 0.5066
H26 H 0.4287 0.7033 0.5656
H27 H 0.4092 0.7433 0.4938
C38 C 0.2268(3) 0.5984(5) 0.5159(5)
H28 H 0.2226 0.6350 0.5483
H29 H 0.1943 0.5812 0.4869
C39 C 0.2393(4) 0.6559(7) 0.4706(6)
H30 H 0.2213 0.7052 0.4651
H31 H 0.2313 0.6311 0.4272
H32 H 0.2733 0.6678 0.4907
H33 H 0.271(3) 0.550(4) 0.602(4)
Co3 Co 0.707014(17) 0.45099(3) 0.97338(2)
O9 O 0.29546(9) 0.28288(16) 0.45559(12)
O10 O 0.34390(9) 0.38662(17) 0.50571(14)
O13 O 0.66714(11) 0.43562(17) 0.86849(14)
O14 O 0.71990(9) 0.34336(15) 0.92252(11)
O15 O 0.67872(13) 0.55674(19) 0.9929(2)
O16 O 0.75395(14) 0.5287(2) 0.94494(19)
N3 N 0.49470(11) 0.1300(2) 0.48002(16)
C40 C 0.33593(12) 0.3163(2) 0.48023(17)
C41 C 0.37787(13) 0.2697(2) 0.47890(17)
C42 C 0.37309(13) 0.1863(2) 0.46805(18)
H34 H 0.3438 0.1612 0.4605
C43 C 0.41148(13) 0.1406(2) 0.46835(18)
H35 H 0.4079 0.0850 0.4608
C44 C 0.45548(13) 0.1773(2) 0.47992(18)
C45 C 0.46055(14) 0.2608(3) 0.48973(19)
H36 H 0.4896 0.2859 0.4961
C46 C 0.42186(13) 0.3066(3) 0.49003(18)
H37 H 0.4255 0.3622 0.4977
C47 C 0.49260(13) 0.0742(2) 0.42991(18)
C48 C 0.45327(13) 0.0513(2) 0.37198(18)
H38 H 0.4228 0.0728 0.3624
C52 C 0.53954(13) 0.0439(2) 0.44478(18)
C53 C 0.57122(13) 0.0826(2) 0.50653(18)
C54 C 0.62069(13) 0.0769(2) 0.54646(18)
H41 H 0.6401 0.0425 0.5342
C55 C 0.64031(13) 0.1232(2) 0.60447(18)
H42 H 0.6733 0.1203 0.6307
C56 C 0.61171(13) 0.1742(2) 0.62480(18)
C57 C 0.56213(13) 0.1792(3) 0.58644(18)
H43 H 0.5425 0.2115 0.6001
C58 C 0.54299(13) 0.1344(2) 0.52690(18)
C60 C 0.38108(14) 0.0243(3) 0.23211(19)
H44 H 0.3813 0.0756 0.2501
C61 C 0.34235(14) 0.0013(2) 0.17299(19)
H45 H 0.3166 0.0367 0.1525
C66 C 0.63326(13) 0.2257(2) 0.68664(18)
C67 C 0.61038(15) 0.2963(3) 0.6928(2)
H48 H 0.5822 0.3126 0.6571
C68 C 0.62857(15) 0.3431(3) 0.75089(19)
H49 H 0.6126 0.3902 0.7538
C69 C 0.67081(13) 0.3196(2) 0.80499(17)
C70 C 0.69518(13) 0.2513(2) 0.79900(17)
H50 H 0.7239 0.2362 0.8344
C71 C 0.67708(13) 0.2052(2) 0.74036(17)
H51 H 0.6942 0.1600 0.7365
C72 C 0.68688(14) 0.3686(3) 0.86886(19)
C73 C 0.5926(3) 0.5400(6) 0.9204(5)
H52 H 0.5965 0.5325 0.8787
H53 H 0.5655 0.5748 0.9128
H54 H 0.5872 0.4884 0.9367
C74 C 0.6380(3) 0.5782(5) 0.9723(5)
C76 C 0.5847(4) 0.6928(8) 0.9821(7)
H58 H 0.5623 0.6614 0.9934
H59 H 0.5713 0.7033 0.9344
C77 C 0.7732(3) 0.5984(5) 0.9841(5)
H61 H 0.7774 0.6350 0.9517
H66 H 0.729(3) 0.550(4) 0.898(4)
Co5 Co 0.2500 0.2500 0.5000
Co6_2 Co 0.7500 0.2500 1.0000
O19 O 0.23615(10) 0.44740(17) 0.43798(14)
Co1 Co 0.7500 0.7500 0.5000
O3 O 0.73615(10) 0.94740(17) 0.43798(14)
O4 O 0.69835(9) 0.83116(15) 0.44165(12)
C10 C 0.53962(13) 0.9957(2) 0.17163(17)
C11 C 0.49304(13) 0.9646(2) 0.15631(18)
H6 H 0.4886 0.9266 0.1851
C12 C 0.45402(13) 0.9890(2) 0.09987(18)
H7 H 0.4234 0.9689 0.0914
C20 C 0.58089(13) 0.9719(2) 0.23563(17)
C23 C 0.65787(12) 0.9256(2) 0.35558(16)
C24 C 0.61903(12) 0.8738(2) 0.32487(17)
H13 H 0.6182 0.8238 0.3442
C25 C 0.58124(12) 0.8969(2) 0.26501(17)
H14 H 0.5556 0.8613 0.2442
C26 C 0.70126(12) 0.8992(2) 0.41731(16)
Co7 Co 0.792986(17) 0.95099(3) 0.52662(2)
O17 O 0.79546(9) 0.78288(16) 0.45559(12)
O18 O 0.70454(9) 0.71712(16) 0.54441(12)
O21 O 0.80165(9) 0.66884(15) 0.55835(12)
O22 O 0.78010(9) 0.84336(15) 0.57748(11)
O23 O 0.71990(9) 0.65664(15) 0.42252(11)
O11 O 0.26385(10) 0.94740(17) 0.06202(14)
O12 O 0.30165(9) 0.83116(15) 0.05835(12)
C49 C 0.46038(13) 0.9957(2) 0.32837(17)
C50 C 0.50696(13) 0.9646(2) 0.34369(18)
H39 H 0.5114 0.9266 0.3149
C51 C 0.54598(13) 0.9890(2) 0.40013(18)
H40 H 0.5766 0.9689 0.4086
C59 C 0.41911(13) 0.9719(2) 0.26437(17)
C62 C 0.34213(12) 0.9256(2) 0.14442(16)
C63 C 0.38097(12) 0.8738(2) 0.17513(17)
H46 H 0.3818 0.8238 0.1558
C64 C 0.41876(12) 0.8969(2) 0.23499(17)
H47 H 0.4444 0.8613 0.2558
C65 C 0.29874(12) 0.8992(2) 0.08269(16)
Co4 Co 0.2500 0.7500 0.0000
Co4_2 Co 0.2500 0.7500 1.0000
Co8 Co 0.207014(17) 0.95099(3) 0.97338(2)
O17_2 O 0.20454(9) 0.78288(16) 0.04441(12)
O23_2 O 0.28010(9) 0.65664(15) 0.07748(11)
O18_2 O 0.29546(9) 0.71712(16) 0.95559(12)
O21_2 O 0.19835(9) 0.66884(15) 0.94165(12)
O22_2 O 0.21990(9) 0.84336(15) 0.92252(11)
O4_2 O 0.19835(9) 0.33116(15) 0.44165(12)
N1_2 N 0.00530(11) 0.6300(2) 0.01998(16)
C1_2 C 0.16407(12) 0.8163(2) 0.01977(17)
C2_2 C 0.12213(13) 0.7697(2) 0.02110(17)
C3_2 C 0.12691(13) 0.6863(2) 0.03195(18)
H1_2 H 0.1562 0.6612 0.0395
C4_2 C 0.08852(13) 0.6406(2) 0.03165(18)
H2_2 H 0.0921 0.5850 0.0392
C5_2 C 0.04452(13) 0.6773(2) 0.02008(18)
C6_2 C 0.03945(14) 0.7608(3) 0.01027(19)
H3_2 H 0.0104 0.7859 0.0039
C7_2 C 0.07814(13) 0.8066(3) 0.00997(18)
H4_2 H 0.0745 0.8622 0.0023
C8_2 C 0.00740(13) 0.5742(2) 0.07009(18)
C9_2 C 0.04673(13) 0.5513(2) 0.12802(18)
H5_2 H 0.0772 0.5728 0.1376
C10_2 C 0.03962(13) 0.4957(2) 0.17163(17)
C20_2 C 0.08089(13) 0.4719(2) 0.23563(17)
C21_2 C 0.11892(14) 0.5243(3) 0.26789(19)
H11_2 H 0.1187 0.5756 0.2499
C22_2 C 0.15765(14) 0.5013(2) 0.32701(19)
H12_2 H 0.1834 0.5367 0.3475
C23_2 C 0.15787(12) 0.4256(2) 0.35558(16)
C24_2 C 0.11903(12) 0.3738(2) 0.32487(17)
H13_2 H 0.1182 0.3238 0.3442
C25_2 C 0.08124(12) 0.3969(2) 0.26501(17)
H14_2 H 0.0556 0.3613 0.2442
C26_2 C 0.20126(12) 0.3992(2) 0.41731(16)
O18_3 O 0.20454(9) 0.21712(16) 0.54441(12)
O21_3 O 0.30165(9) 0.16884(15) 0.55835(12)
O23_3 O 0.21990(9) 0.15664(15) 0.42252(11)
O2_2 O 0.15610(9) 0.88662(17) 0.99429(14)
O13_2 O 0.16714(11) 0.93562(17) 0.86849(14)
C50_2 C 0.00696(13) 0.4646(2) 0.34369(18)
H39_2 H 0.0114 0.4266 0.3149
C51_2 C 0.04598(13) 0.4890(2) 0.40013(18)
H40_2 H 0.0766 0.4689 0.4086
C52_2 C 0.03954(13) 0.5439(2) 0.44478(18)
C53_2 C 0.07122(13) 0.5826(2) 0.50653(18)
C54_2 C 0.12069(13) 0.5769(2) 0.54646(18)
H41_2 H 0.1401 0.5425 0.5342
C55_2 C 0.14031(13) 0.6232(2) 0.60447(18)
H42_2 H 0.1733 0.6203 0.6307
C56_2 C 0.11171(13) 0.6742(2) 0.62480(18)
C57_2 C 0.06213(13) 0.6792(3) 0.58644(18)
H43_2 H 0.0425 0.7115 0.6001
C58_2 C 0.04299(13) 0.6344(2) 0.52690(18)
C66_2 C 0.13326(13) 0.7257(2) 0.68664(18)
C67_2 C 0.11038(15) 0.7963(3) 0.6928(2)
H48_2 H 0.0822 0.8126 0.6571
C68_2 C 0.12857(15) 0.8431(3) 0.75089(19)
H49_2 H 0.1126 0.8902 0.7538
C69_2 C 0.17081(13) 0.8196(2) 0.80499(17)
C70_2 C 0.19518(13) 0.7513(2) 0.79900(17)
H50_2 H 0.2239 0.7362 0.8344
C71_2 C 0.17708(13) 0.7052(2) 0.74036(17)
H51_2 H 0.1942 0.6600 0.7365
C72_2 C 0.18688(14) 0.8686(3) 0.86886(19)
H54_2 H 0.0872 0.9884 0.9367
O5_2 O 0.83286(11) 0.93562(17) 0.63151(14)
C14_2 C 0.92878(13) 0.5826(2) 0.99347(18)
C15_2 C 0.87931(13) 0.5769(2) 0.95354(18)
H8_2 H 0.8599 0.5425 0.9658
C16_2 C 0.85969(13) 0.6232(2) 0.89553(18)
H9_2 H 0.8267 0.6203 0.8693
C17_2 C 0.88829(13) 0.6742(2) 0.87520(18)
C18_2 C 0.93787(13) 0.6792(3) 0.91356(18)
H10_2 H 0.9575 0.7115 0.8999
C19_2 C 0.95701(13) 0.6344(2) 0.97310(18)
C27_2 C 0.86674(13) 0.7257(2) 0.81336(18)
C28_2 C 0.88962(15) 0.7963(3) 0.8072(2)
H15_2 H 0.9178 0.8126 0.8429
C29_2 C 0.87143(15) 0.8431(3) 0.74911(19)
H16_2 H 0.8874 0.8902 0.7462
C30_2 C 0.82919(13) 0.8196(2) 0.69501(17)
C31_2 C 0.80482(13) 0.7513(2) 0.70100(17)
H17_2 H 0.7761 0.7362 0.6656
C32_2 C 0.82292(13) 0.7052(2) 0.75964(17)
H18_2 H 0.8058 0.6600 0.7635
C33_2 C 0.81312(14) 0.8686(3) 0.63114(19)
H21_2 H 0.9128 0.9884 0.5633
O10_2 O 0.84390(9) 0.88662(17) 0.50571(14)
O12_2 O 0.80165(9) 0.33116(15) 0.05835(12)
N3_2 N 0.99470(11) 0.6300(2) 0.48002(16)
C40_2 C 0.83593(12) 0.8163(2) 0.48023(17)
C41_2 C 0.87787(13) 0.7697(2) 0.47890(17)
C42_2 C 0.87309(13) 0.6863(2) 0.46805(18)
H34_2 H 0.8438 0.6612 0.4605
C43_2 C 0.91148(13) 0.6406(2) 0.46835(18)
H35_2 H 0.9079 0.5850 0.4608
C44_2 C 0.95548(13) 0.6773(2) 0.47992(18)
C45_2 C 0.96055(14) 0.7608(3) 0.48973(19)
H36_2 H 0.9896 0.7859 0.4961
C46_2 C 0.92186(13) 0.8066(3) 0.49003(18)
H37_2 H 0.9255 0.8622 0.4977
C47_2 C 0.99260(13) 0.5742(2) 0.42991(18)
C48_2 C 0.95327(13) 0.5513(2) 0.37198(18)
H38_2 H 0.9228 0.5728 0.3624
C49_2 C 0.96038(13) 0.4957(2) 0.32837(17)
C59_2 C 0.91911(13) 0.4719(2) 0.26437(17)
C60_2 C 0.88108(14) 0.5243(3) 0.23211(19)
H44_2 H 0.8813 0.5756 0.2501
C61_2 C 0.84235(14) 0.5013(2) 0.17299(19)
H45_2 H 0.8166 0.5367 0.1525
C62_2 C 0.84213(12) 0.4256(2) 0.14442(16)
C63_2 C 0.88097(12) 0.3738(2) 0.17513(17)
H46_2 H 0.8818 0.3238 0.1558
C64_2 C 0.91876(12) 0.3969(2) 0.23499(17)
H47_2 H 0.9444 0.3613 0.2558
C65_2 C 0.79874(12) 0.3992(2) 0.08269(16)
O23_4 O 0.78010(9) 0.15664(15) 0.07748(11)
O18_4 O 0.79546(9) 0.21712(16) 0.95559(12)
O21_4 O 0.69835(9) 0.16884(15) 0.94165(12)
Co8_2 Co 0.792986(17) 0.04901(3) 0.02662(2)
O11_2 O 0.73615(10) 0.05260(17) 0.93798(14)
C49_3 C 0.53962(13) 0.0043(2) 0.67163(17)
C50_3 C 0.49304(13) 0.0354(2) 0.65631(18)
H39_3 H 0.4886 0.0734 0.6851
C51_3 C 0.45402(13) 0.0110(2) 0.59987(18)
H40_3 H 0.4234 0.0311 0.5914
C59_3 C 0.58089(13) 0.0281(2) 0.73563(17)
C62_3 C 0.65787(12) 0.0744(2) 0.85558(16)
C63_3 C 0.61903(12) 0.1262(2) 0.82487(17)
H46_3 H 0.6182 0.1762 0.8442
C64_3 C 0.58124(12) 0.1031(2) 0.76501(17)
H47_3 H 0.5556 0.1387 0.7442
C65_3 C 0.70126(12) 0.1008(2) 0.91731(16)
O3_2 O 0.26385(10) 0.05260(17) 0.56202(14)
C10_3 C 0.46038(13) 0.0043(2) 0.82837(17)
C11_2 C 0.50696(13) 0.0354(2) 0.84369(18)
H6_2 H 0.5114 0.0734 0.8149
C12_2 C 0.54598(13) 0.0110(2) 0.90013(18)
H7_2 H 0.5766 0.0311 0.9086
C20_3 C 0.41911(13) 0.0281(2) 0.76437(17)
C23_3 C 0.34213(12) 0.0744(2) 0.64442(16)
C24_3 C 0.38097(12) 0.1262(2) 0.67513(17)
H13_3 H 0.3818 0.1762 0.6558
C25_3 C 0.41876(12) 0.1031(2) 0.73499(17)
H14_3 H 0.4444 0.1387 0.7558
C26_3 C 0.29874(12) 0.1008(2) 0.58269(16)
Co7_2 Co 0.207014(17) 0.04901(3) 0.47338(2)
Co2_2 Co 0.707014(17) 0.54901(3) 0.47338(2)
O2_3 O 0.34390(9) 0.61338(17) 0.00571(14)
O5_3 O 0.66714(11) 0.56438(17) 0.36849(14)
O7_2 O 0.67872(13) 0.44326(19) 0.4929(2)
O8_2 O 0.75395(14) 0.4713(2) 0.44494(19)
N2_2 N 0.6281(4) 0.3501(6) 0.5001(6)
C14_3 C 0.57122(13) 0.9174(2) 0.00653(18)
C15_3 C 0.62069(13) 0.9231(2) 0.04646(18)
H8_3 H 0.6401 0.9575 0.0342
C16_3 C 0.64031(13) 0.8768(2) 0.10447(18)
H9_3 H 0.6733 0.8797 0.1307
C17_3 C 0.61171(13) 0.8258(2) 0.12480(18)
C18_3 C 0.56213(13) 0.8208(3) 0.08644(18)
H10_3 H 0.5425 0.7885 0.1001
C19_3 C 0.54299(13) 0.8656(2) 0.02690(18)
C27_3 C 0.63326(13) 0.7743(2) 0.18664(18)
C28_3 C 0.61038(15) 0.7037(3) 0.1928(2)
H15_3 H 0.5822 0.6874 0.1571
C29_3 C 0.62857(15) 0.6569(3) 0.25089(19)
H16_3 H 0.6126 0.6098 0.2538
C30_3 C 0.67081(13) 0.6804(2) 0.30499(17)
C31_3 C 0.69518(13) 0.7487(2) 0.29900(17)
H17_3 H 0.7239 0.7638 0.3344
C32_3 C 0.67708(13) 0.7948(2) 0.24036(17)
H18_3 H 0.6942 0.8400 0.2365
C33_3 C 0.68688(14) 0.6314(3) 0.36886(19)
C34_2 C 0.5926(3) 0.4600(6) 0.4204(5)
H19_2 H 0.5965 0.4675 0.3787
H20_2 H 0.5655 0.4252 0.4128
H21_3 H 0.5872 0.5116 0.4367
C35_2 C 0.6380(3) 0.4218(5) 0.4723(5)
C36_2 C 0.6694(4) 0.3038(7) 0.5490(6)
H22_2 H 0.6598 0.2779 0.5813
H23_2 H 0.6794 0.2635 0.5253
H24_2 H 0.6958 0.3401 0.5719
C37_2 C 0.5847(4) 0.3072(8) 0.4821(7)
H25_2 H 0.5623 0.3386 0.4934
H26_2 H 0.5713 0.2967 0.4344
H27_2 H 0.5908 0.2567 0.5062
C38_2 C 0.7732(3) 0.4016(5) 0.4841(5)
H28_2 H 0.7774 0.3650 0.4517
H29_2 H 0.8057 0.4188 0.5131
C39_2 C 0.7607(4) 0.3441(7) 0.5294(6)
H30_2 H 0.7787 0.2948 0.5349
H31_2 H 0.7687 0.3689 0.5728
H32_2 H 0.7267 0.3322 0.5093
H33_2 H 0.729(3) 0.450(4) 0.398(4)
Co3_2 Co 0.292986(17) 0.54901(3) 0.02662(2)
O10_3 O 0.65610(9) 0.61338(17) 0.49429(14)
O13_3 O 0.33286(11) 0.56438(17) 0.13151(14)
O15_2 O 0.32128(13) 0.44326(19) 0.0071(2)
O16_2 O 0.24605(14) 0.4713(2) 0.05506(19)
N3_3 N 0.50530(11) 0.8700(2) 0.51998(16)
C40_3 C 0.66407(12) 0.6837(2) 0.51977(17)
C41_3 C 0.62213(13) 0.7303(2) 0.52110(17)
C42_3 C 0.62691(13) 0.8137(2) 0.53195(18)
H34_3 H 0.6562 0.8388 0.5395
C43_3 C 0.58852(13) 0.8594(2) 0.53165(18)
H35_3 H 0.5921 0.9150 0.5392
C44_3 C 0.54452(13) 0.8227(2) 0.52008(18)
C45_3 C 0.53945(14) 0.7392(3) 0.51027(19)
H36_3 H 0.5104 0.7141 0.5039
C46_3 C 0.57814(13) 0.6934(3) 0.50997(18)
H37_3 H 0.5745 0.6378 0.5023
C47_3 C 0.50740(13) 0.9258(2) 0.57009(18)
C48_3 C 0.54673(13) 0.9487(2) 0.62802(18)
H38_3 H 0.5772 0.9272 0.6376
C52_3 C 0.46046(13) 0.9561(2) 0.55522(18)
C53_3 C 0.42878(13) 0.9174(2) 0.49347(18)
C54_3 C 0.37931(13) 0.9231(2) 0.45354(18)
H41_3 H 0.3599 0.9575 0.4658
C55_3 C 0.35969(13) 0.8768(2) 0.39553(18)
H42_3 H 0.3267 0.8797 0.3693
C56_3 C 0.38829(13) 0.8258(2) 0.37520(18)
C57_3 C 0.43787(13) 0.8208(3) 0.41356(18)
H43_3 H 0.4575 0.7885 0.3999
C58_3 C 0.45701(13) 0.8656(2) 0.47310(18)
C60_3 C 0.61892(14) 0.9757(3) 0.76789(19)
H44_3 H 0.6187 0.9244 0.7499
C61_3 C 0.65765(14) 0.9987(2) 0.82701(19)
H45_3 H 0.6834 0.9633 0.8475
C66_3 C 0.36674(13) 0.7743(2) 0.31336(18)
C67_3 C 0.38962(15) 0.7037(3) 0.3072(2)
H48_3 H 0.4178 0.6874 0.3429
C68_3 C 0.37143(15) 0.6569(3) 0.24911(19)
H49_3 H 0.3874 0.6098 0.2462
C69_3 C 0.32919(13) 0.6804(2) 0.19501(17)
C70_3 C 0.30482(13) 0.7487(2) 0.20100(17)
H50_3 H 0.2761 0.7638 0.1656
C71_3 C 0.32292(13) 0.7948(2) 0.25964(17)
H51_3 H 0.3058 0.8400 0.2635
C72_3 C 0.31312(14) 0.6314(3) 0.13114(19)
C73_2 C 0.4074(3) 0.4600(6) 0.0796(5)
H52_2 H 0.4035 0.4675 0.1213
H53_2 H 0.4345 0.4252 0.0872
H54_3 H 0.4128 0.5116 0.0633
C74_2 C 0.3620(3) 0.4218(5) 0.0277(5)
C76_2 C 0.4153(4) 0.3072(8) 0.0179(7)
H58_2 H 0.4377 0.3386 0.0066
H59_2 H 0.4287 0.2967 0.0656
C77_2 C 0.2268(3) 0.4016(5) 0.0159(5)
H61_2 H 0.2226 0.3650 0.0483
H66_2 H 0.271(3) 0.450(4) 0.102(4)
O19_2 O 0.76385(10) 0.55260(17) 0.56202(14)
N1_3 N 0.49470(11) 0.8700(2) 0.98002(16)
C1_3 C 0.33593(12) 0.6837(2) 0.98023(17)
C2_3 C 0.37787(13) 0.7303(2) 0.97890(17)
C3_3 C 0.37309(13) 0.8137(2) 0.96805(18)
H1_3 H 0.3438 0.8388 0.9605
C4_3 C 0.41148(13) 0.8594(2) 0.96835(18)
H2_3 H 0.4079 0.9150 0.9608
C5_3 C 0.45548(13) 0.8227(2) 0.97992(18)
C6_3 C 0.46055(14) 0.7392(3) 0.98973(19)
H3_3 H 0.4896 0.7141 0.9961
C7_3 C 0.42186(13) 0.6934(3) 0.99003(18)
H4_3 H 0.4255 0.6378 0.9977
C8_3 C 0.49260(13) 0.9258(2) 0.92991(18)
C9_3 C 0.45327(13) 0.9487(2) 0.87198(18)
H5_3 H 0.4228 0.9272 0.8624
C13_2 C 0.53954(13) 0.9561(2) 0.94478(18)
C21_3 C 0.38108(14) 0.9757(3) 0.73211(19)
H11_3 H 0.3813 0.9244 0.7501
C22_3 C 0.34235(14) 0.9987(2) 0.67299(19)
H12_3 H 0.3166 0.9633 0.6525
N4_2 N 0.3719(4) 0.3501(6) 0.9999(6)
C75_2 C 0.3306(4) 0.3038(7) 0.9510(6)
H55_2 H 0.3402 0.2779 0.9187
H56_2 H 0.3206 0.2635 0.9747
H57_2 H 0.3042 0.3401 0.9281
H60_2 H 0.4092 0.2567 0.9938
H62_2 H 0.1943 0.4188 0.9869
C78_2 C 0.2393(4) 0.3441(7) 0.9706(6)
H63_2 H 0.2213 0.2948 0.9651
H64_2 H 0.2313 0.3689 0.9272
H65_2 H 0.2733 0.3322 0.9907
O20_2 O 0.23615(10) 0.55260(17) 0.93798(14)
O5_4 O 0.16714(11) 0.06438(17) 0.36849(14)
C14_4 C 0.07122(13) 0.4174(2) 0.00653(18)
C15_4 C 0.12069(13) 0.4231(2) 0.04646(18)
H8_4 H 0.1401 0.4575 0.0342
C16_4 C 0.14031(13) 0.3768(2) 0.10447(18)
H9_4 H 0.1733 0.3797 0.1307
C17_4 C 0.11171(13) 0.3258(2) 0.12480(18)
C18_4 C 0.06213(13) 0.3208(3) 0.08644(18)
H10_4 H 0.0425 0.2885 0.1001
C19_4 C 0.04299(13) 0.3656(2) 0.02690(18)
C27_4 C 0.13326(13) 0.2743(2) 0.18664(18)
C28_4 C 0.11038(15) 0.2037(3) 0.1928(2)
H15_4 H 0.0822 0.1874 0.1571
C29_4 C 0.12857(15) 0.1569(3) 0.25089(19)
H16_4 H 0.1126 0.1098 0.2538
C30_4 C 0.17081(13) 0.1804(2) 0.30499(17)
C31_4 C 0.19518(13) 0.2487(2) 0.29900(17)
H17_4 H 0.2239 0.2638 0.3344
C32_4 C 0.17708(13) 0.2948(2) 0.24036(17)
H18_4 H 0.1942 0.3400 0.2365
C33_4 C 0.18688(14) 0.1314(3) 0.36886(19)
H21_4 H 0.0872 0.0116 0.4367
O10_4 O 0.15610(9) 0.11338(17) 0.49429(14)
N3_4 N 0.00530(11) 0.3700(2) 0.51998(16)
C40_4 C 0.16407(12) 0.1837(2) 0.51977(17)
C41_4 C 0.12213(13) 0.2303(2) 0.52110(17)
C42_4 C 0.12691(13) 0.3137(2) 0.53195(18)
H34_4 H 0.1562 0.3388 0.5395
C43_4 C 0.08852(13) 0.3594(2) 0.53165(18)
H35_4 H 0.0921 0.4150 0.5392
C44_4 C 0.04452(13) 0.3227(2) 0.52008(18)
C45_4 C 0.03945(14) 0.2392(3) 0.51027(19)
H36_4 H 0.0104 0.2141 0.5039
C46_4 C 0.07814(13) 0.1934(3) 0.50997(18)
H37_4 H 0.0745 0.1378 0.5023
C47_4 C 0.00740(13) 0.4258(2) 0.57009(18)
C48_4 C 0.04673(13) 0.4487(2) 0.62802(18)
H38_4 H 0.0772 0.4272 0.6376
C49_4 C 0.03962(13) 0.5043(2) 0.67163(17)
C59_4 C 0.08089(13) 0.5281(2) 0.73563(17)
C60_4 C 0.11892(14) 0.4757(3) 0.76789(19)
H44_4 H 0.1187 0.4244 0.7499
C61_4 C 0.15765(14) 0.4987(2) 0.82701(19)
H45_4 H 0.1834 0.4633 0.8475
C62_4 C 0.15787(12) 0.5744(2) 0.85558(16)
C63_4 C 0.11903(12) 0.6262(2) 0.82487(17)
H46_4 H 0.1182 0.6762 0.8442
C64_4 C 0.08124(12) 0.6031(2) 0.76501(17)
H47_4 H 0.0556 0.6387 0.7442
C65_4 C 0.20126(12) 0.6008(2) 0.91731(16)
O2_4 O 0.84390(9) 0.11338(17) 0.00571(14)
O13_4 O 0.83286(11) 0.06438(17) 0.13151(14)
C50_4 C 0.99304(13) 0.5354(2) 0.65631(18)
H39_4 H 0.9886 0.5734 0.6851
C51_4 C 0.95402(13) 0.5110(2) 0.59987(18)
H40_4 H 0.9234 0.5311 0.5914
C52_4 C 0.96046(13) 0.4561(2) 0.55522(18)
C53_4 C 0.92878(13) 0.4174(2) 0.49347(18)
C54_4 C 0.87931(13) 0.4231(2) 0.45354(18)
H41_4 H 0.8599 0.4575 0.4658
C55_4 C 0.85969(13) 0.3768(2) 0.39553(18)
H42_4 H 0.8267 0.3797 0.3693
C56_4 C 0.88829(13) 0.3258(2) 0.37520(18)
C57_4 C 0.93787(13) 0.3208(3) 0.41356(18)
H43_4 H 0.9575 0.2885 0.3999
C58_4 C 0.95701(13) 0.3656(2) 0.47310(18)
C66_4 C 0.86674(13) 0.2743(2) 0.31336(18)
C67_4 C 0.88962(15) 0.2037(3) 0.3072(2)
H48_4 H 0.9178 0.1874 0.3429
C68_4 C 0.87143(15) 0.1569(3) 0.24911(19)
H49_4 H 0.8874 0.1098 0.2462
C69_4 C 0.82919(13) 0.1804(2) 0.19501(17)
C70_4 C 0.80482(13) 0.2487(2) 0.20100(17)
H50_4 H 0.7761 0.2638 0.1656
C71_4 C 0.82292(13) 0.2948(2) 0.25964(17)
H51_4 H 0.8058 0.3400 0.2635
C72_4 C 0.81312(14) 0.1314(3) 0.13114(19)
H54_4 H 0.9128 0.0116 0.0633
N1_4 N 0.99470(11) 0.3700(2) 0.98002(16)
C1_4 C 0.83593(12) 0.1837(2) 0.98023(17)
C2_4 C 0.87787(13) 0.2303(2) 0.97890(17)
C3_4 C 0.87309(13) 0.3137(2) 0.96805(18)
H1_4 H 0.8438 0.3388 0.9605
C4_4 C 0.91148(13) 0.3594(2) 0.96835(18)
H2_4 H 0.9079 0.4150 0.9608
C5_4 C 0.95548(13) 0.3227(2) 0.97992(18)
C6_4 C 0.96055(14) 0.2392(3) 0.98973(19)
H3_4 H 0.9896 0.2141 0.9961
C7_4 C 0.92186(13) 0.1934(3) 0.99003(18)
H4_4 H 0.9255 0.1378 0.9977
C8_4 C 0.99260(13) 0.4258(2) 0.92991(18)
C9_4 C 0.95327(13) 0.4487(2) 0.87198(18)
H5_4 H 0.9228 0.4272 0.8624
C10_4 C 0.96038(13) 0.5043(2) 0.82837(17)
C20_4 C 0.91911(13) 0.5281(2) 0.76437(17)
C21_4 C 0.88108(14) 0.4757(3) 0.73211(19)
H11_4 H 0.8813 0.4244 0.7501
C22_4 C 0.84235(14) 0.4987(2) 0.67299(19)
H12_4 H 0.8166 0.4633 0.6525
C23_4 C 0.84213(12) 0.5744(2) 0.64442(16)
C24_4 C 0.88097(12) 0.6262(2) 0.67513(17)
H13_4 H 0.8818 0.6762 0.6558
C25_4 C 0.91876(12) 0.6031(2) 0.73499(17)
H14_4 H 0.9444 0.6387 0.7558
C26_4 C 0.79874(12) 0.6008(2) 0.58269(16)
N4_3 N 0.1281(4) 0.1499(6) 0.0001(6)
C75_3 C 0.1694(4) 0.1962(7) 0.0490(6)
H55_3 H 0.1598 0.2221 0.0813
H56_3 H 0.1794 0.2365 0.0253
H57_3 H 0.1958 0.1599 0.0719
H60_3 H 0.0908 0.2433 0.0062
H62_3 H 0.3057 0.0812 0.0131
C78_3 C 0.2607(4) 0.1559(7) 0.0294(6)
H63_3 H 0.2787 0.2052 0.0349
H64_3 H 0.2687 0.1311 0.0728
H65_3 H 0.2267 0.1678 0.0093
O15_3 O 0.17872(13) 0.05674(19) 0.9929(2)
O16_3 O 0.25395(14) 0.0287(2) 0.94494(19)
C73_3 C 0.0926(3) 0.0400(6) 0.9204(5)
H52_3 H 0.0965 0.0325 0.8787
H53_3 H 0.0655 0.0748 0.9128
C74_3 C 0.1380(3) 0.0782(5) 0.9723(5)
C76_3 C 0.0847(4) 0.1928(8) 0.9821(7)
H58_3 H 0.0623 0.1614 0.9934
H59_3 H 0.0713 0.2033 0.9344
C77_3 C 0.2732(3) 0.0984(5) 0.9841(5)
H61_3 H 0.2774 0.1350 0.9517
H66_3 H 0.229(3) 0.050(4) 0.898(4)
O7_3 O 0.82128(13) 0.05674(19) 0.5071(2)
O8_3 O 0.74605(14) 0.0287(2) 0.55506(19)
N2_3 N 0.8719(4) 0.1499(6) 0.4999(6)
C34_3 C 0.9074(3) 0.0400(6) 0.5796(5)
H19_3 H 0.9035 0.0325 0.6213
H20_3 H 0.9345 0.0748 0.5872
C35_3 C 0.8620(3) 0.0782(5) 0.5277(5)
C36_3 C 0.8306(4) 0.1962(7) 0.4510(6)
H22_3 H 0.8402 0.2221 0.4187
H23_3 H 0.8206 0.2365 0.4747
H24_3 H 0.8042 0.1599 0.4281
C37_3 C 0.9153(4) 0.1928(8) 0.5179(7)
H25_3 H 0.9377 0.1614 0.5066
H26_3 H 0.9287 0.2033 0.5656
H27_3 H 0.9092 0.2433 0.4938
C38_3 C 0.7268(3) 0.0984(5) 0.5159(5)
H28_3 H 0.7226 0.1350 0.5483
H29_3 H 0.6943 0.0812 0.4869
C39_3 C 0.7393(4) 0.1559(7) 0.4706(6)
H30_3 H 0.7213 0.2052 0.4651
H31_3 H 0.7313 0.1311 0.4272
H32_3 H 0.7733 0.1678 0.4907
H33_3 H 0.771(3) 0.050(4) 0.602(4)
C11_3 C 0.99304(13) 0.4646(2) 0.15631(18)
H6_3 H 0.9886 0.4266 0.1851
C12_3 C 0.95402(13) 0.4890(2) 0.09987(18)
H7_3 H 0.9234 0.4689 0.0914
C13_3 C 0.96046(13) 0.5439(2) 0.05522(18)
C11_4 C 0.00696(13) 0.5354(2) 0.84369(18)
H6_4 H 0.0114 0.5734 0.8149
C12_4 C 0.04598(13) 0.5110(2) 0.90013(18)
H7_4 H 0.0766 0.5311 0.9086
C13_4 C 0.03954(13) 0.4561(2) 0.94478(18)
O7_4 O 0.17872(13) 0.94326(19) 0.4929(2)
O8_4 O 0.25395(14) 0.9713(2) 0.44494(19)
N2_4 N 0.1281(4) 0.8501(6) 0.5001(6)
C34_4 C 0.0926(3) 0.9600(6) 0.4204(5)
H19_4 H 0.0965 0.9675 0.3787
H20_4 H 0.0655 0.9252 0.4128
C35_4 C 0.1380(3) 0.9218(5) 0.4723(5)
C36_4 C 0.1694(4) 0.8038(7) 0.5490(6)
H22_4 H 0.1598 0.7779 0.5813
H23_4 H 0.1794 0.7635 0.5253
H24_4 H 0.1958 0.8401 0.5719
C37_4 C 0.0847(4) 0.8072(8) 0.4821(7)
H25_4 H 0.0623 0.8386 0.4934
H26_4 H 0.0713 0.7967 0.4344
H27_4 H 0.0908 0.7567 0.5062
C38_4 C 0.2732(3) 0.9016(5) 0.4841(5)
H28_4 H 0.2774 0.8650 0.4517
H29_4 H 0.3057 0.9188 0.5131
C39_4 C 0.2607(4) 0.8441(7) 0.5294(6)
H30_4 H 0.2787 0.7948 0.5349
H31_4 H 0.2687 0.8689 0.5728
H32_4 H 0.2267 0.8322 0.5093
H33_4 H 0.229(3) 0.950(4) 0.398(4)
O15_4 O 0.82128(13) 0.94326(19) 0.0071(2)
O16_4 O 0.74605(14) 0.9713(2) 0.05506(19)
C73_4 C 0.9074(3) 0.9600(6) 0.0796(5)
H52_4 H 0.9035 0.9675 0.1213
H53_4 H 0.9345 0.9252 0.0872
C74_4 C 0.8620(3) 0.9218(5) 0.0277(5)
C76_4 C 0.9153(4) 0.8072(8) 0.0179(7)
H58_4 H 0.9377 0.8386 0.0066
H59_4 H 0.9287 0.7967 0.0656
C77_4 C 0.7268(3) 0.9016(5) 0.0159(5)
H61_4 H 0.7226 0.8650 0.0483
H66_4 H 0.771(3) 0.950(4) 0.102(4)
N4_4 N 0.8719(4) 0.8501(6) 0.9999(6)
C75_4 C 0.8306(4) 0.8038(7) 0.9510(6)
H55_4 H 0.8402 0.7779 0.9187
H56_4 H 0.8206 0.7635 0.9747
H57_4 H 0.8042 0.8401 0.9281
H60_4 H 0.9092 0.7567 0.9938
H62_4 H 0.6943 0.9188 0.9869
C78_4 C 0.7393(4) 0.8441(7) 0.9706(6)
H63_4 H 0.7213 0.7948 0.9651
H64_4 H 0.7313 0.8689 0.9272
H65_4 H 0.7733 0.8322 0.9907
loop_
_geom_bond_atom_site_label_1
_geom_bond_atom_site_label_2
_geom_bond_site_symmetry_1
_geom_bond_site_symmetry_2
O1 C1 1_555 1_555
N1 C5 1_555 1_555
C1 C2 1_555 1_555
C2 C3 1_555 1_555
C3 H1 1_555 1_555
C4 C3 1_555 1_555
H2 C4 1_555 1_555
C5 C4 1_555 1_555
C6 C5 1_555 1_555
H3 C6 1_555 1_555
C7 C2 1_555 1_555
H4 C7 1_555 1_555
C8 N1 1_555 1_555
C9 C8 1_555 1_555
H5 C9 1_555 1_555
C13 C8 1_555 1_555
H11 C21 1_555 1_555
C22 C21 1_555 1_555
H12 C22 1_555 1_555
C75 N4 1_555 1_555
H55 C75 1_555 1_555
H56 C75 1_555 1_555
H57 C75 1_555 1_555
H63 C78 1_555 1_555
H64 C78 1_555 1_555
H65 C78 1_555 1_555
Co6 O1 1_555 1_555
C6 C7 1_555 1_555
Co2 O5 1_555 1_555
O5 C33 1_555 1_555
O6 Co2 1_555 1_555
O7 Co2 1_555 1_555
O8 Co2 1_555 1_555
N2 C35 1_555 1_555
C15 C14 1_555 1_555
H8 C15 1_555 1_555
C16 C15 1_555 1_555
H9 C16 1_555 1_555
C17 C16 1_555 1_555
C18 C17 1_555 1_555
H10 C18 1_555 1_555
C27 C17 1_555 1_555
C28 C27 1_555 1_555
H15 C28 1_555 1_555
C29 C28 1_555 1_555
H16 C29 1_555 1_555
C30 C29 1_555 1_555
C31 C30 1_555 1_555
H17 C31 1_555 1_555
C32 C27 1_555 1_555
H18 C32 1_555 1_555
C33 O6 1_555 1_555
C34 H19 1_555 1_555
H20 C34 1_555 1_555
H21 C34 1_555 1_555
C35 O7 1_555 1_555
C36 N2 1_555 1_555
H22 C36 1_555 1_555
H23 C36 1_555 1_555
H24 C36 1_555 1_555
C37 N2 1_555 1_555
H25 C37 1_555 1_555
H26 C37 1_555 1_555
H27 C37 1_555 1_555
C38 O8 1_555 1_555
H28 C38 1_555 1_555
H29 C38 1_555 1_555
C39 C38 1_555 1_555
H30 C39 1_555 1_555
H31 C39 1_555 1_555
H32 C39 1_555 1_555
H33 O8 1_555 1_555
Co3 O2 1_555 1_555
O9 C40 1_555 1_555
O10 Co2 1_555 1_555
O13 Co3 1_555 1_555
O14 Co3 1_555 1_555
O15 Co3 1_555 1_555
O16 Co3 1_555 1_555
N3 C44 1_555 1_555
C40 O10 1_555 1_555
C41 C40 1_555 1_555
C42 C41 1_555 1_555
H34 C42 1_555 1_555
C43 C42 1_555 1_555
H35 C43 1_555 1_555
C44 C43 1_555 1_555
C45 C44 1_555 1_555
H36 C45 1_555 1_555
C46 C41 1_555 1_555
H37 C46 1_555 1_555
C47 N3 1_555 1_555
C48 C47 1_555 1_555
H38 C48 1_555 1_555
C52 C47 1_555 1_555
C53 C52 1_555 1_555
C54 C53 1_555 1_555
H41 C54 1_555 1_555
C55 C54 1_555 1_555
H42 C55 1_555 1_555
C56 C55 1_555 1_555
C57 C56 1_555 1_555
H43 C57 1_555 1_555
C58 N3 1_555 1_555
H44 C60 1_555 1_555
C61 C60 1_555 1_555
H45 C61 1_555 1_555
C66 C56 1_555 1_555
C67 C66 1_555 1_555
H48 C67 1_555 1_555
C68 C67 1_555 1_555
H49 C68 1_555 1_555
C69 C68 1_555 1_555
C70 C69 1_555 1_555
H50 C70 1_555 1_555
C71 C66 1_555 1_555
H51 C71 1_555 1_555
C72 O13 1_555 1_555
C73 H52 1_555 1_555
H53 C73 1_555 1_555
H54 C73 1_555 1_555
C74 O15 1_555 1_555
H58 C76 1_555 1_555
H59 C76 1_555 1_555
C77 O16 1_555 1_555
H61 C77 1_555 1_555
H66 O16 1_555 1_555
Co5 O6 1_555 1_555
O19 Co2 1_555 1_555
C14 C19 1_555 1_555
C18 C19 1_555 1_555
C30 C33 1_555 1_555
C31 C32 1_555 1_555
C34 C35 1_555 1_555
O9 Co5 1_555 1_555
O14 C72 1_555 1_555
O14 Co6_2 1_555 1_555
C45 C46 1_555 1_555
C53 C58 1_555 1_555
C57 C58 1_555 1_555
C69 C72 1_555 1_555
C70 C71 1_555 1_555
C73 C74 1_555 1_555
Co1 O4 1_555 1_555
O3 C26 1_555 1_555
O4 C26 1_555 1_555
C11 C10 1_555 1_555
H6 C11 1_555 1_555
C12 C11 1_555 1_555
H7 C12 1_555 1_555
C20 C10 1_555 1_555
C24 C23 1_555 1_555
H13 C24 1_555 1_555
C25 C20 1_555 1_555
H14 C25 1_555 1_555
C26 C23 1_555 1_555
Co7 O3 1_555 1_555
O17 Co1 1_555 1_555
O18 Co1 1_555 1_555
O21 Co1 1_555 1_555
O22 Co1 1_555 1_555
O23 Co1 1_555 1_555
C24 C25 1_555 1_555
Co7 O22 1_555 1_555
O11 C65 1_555 1_555
O12 C65 1_555 1_555
C50 C49 1_555 1_555
H39 C50 1_555 1_555
C51 C50 1_555 1_555
H40 C51 1_555 1_555
C59 C49 1_555 1_555
C63 C62 1_555 1_555
H46 C63 1_555 1_555
C64 C59 1_555 1_555
H47 C64 1_555 1_555
C65 C62 1_555 1_555
Co4 O12 1_555 1_555
C63 C64 1_555 1_555
O17_2 Co4 1_555 1_555
O23_2 Co4 1_555 1_555
O18_2 Co4_2 1_555 1_555
O21_2 Co4_2 1_555 1_555
O22_2 Co4_2 1_555 1_555
Co8 O22_2 1_555 1_555
Co5 O4_2 1_555 1_555
O17_2 C1_2 1_555 1_555
O19 C26_2 1_555 1_555
O4_2 C26_2 1_555 1_555
N1_2 C5_2 1_555 1_555
C1_2 C2_2 1_555 1_555
C2_2 C3_2 1_555 1_555
C3_2 H1_2 1_555 1_555
C4_2 C3_2 1_555 1_555
H2_2 C4_2 1_555 1_555
C5_2 C4_2 1_555 1_555
C6_2 C5_2 1_555 1_555
H3_2 C6_2 1_555 1_555
C7_2 C2_2 1_555 1_555
H4_2 C7_2 1_555 1_555
C8_2 N1_2 1_555 1_555
C9_2 C8_2 1_555 1_555
H5_2 C9_2 1_555 1_555
C10_2 C9_2 1_555 1_555
C20_2 C10_2 1_555 1_555
C21_2 C20_2 1_555 1_555
H11_2 C21_2 1_555 1_555
C22_2 C21_2 1_555 1_555
H12_2 C22_2 1_555 1_555
C23_2 C22_2 1_555 1_555
C24_2 C23_2 1_555 1_555
H13_2 C24_2 1_555 1_555
C25_2 C20_2 1_555 1_555
H14_2 C25_2 1_555 1_555
C26_2 C23_2 1_555 1_555
O18_3 Co5 1_555 1_555
O21_3 Co5 1_555 1_555
O23_3 Co5 1_555 1_555
C6_2 C7_2 1_555 1_555
C24_2 C25_2 1_555 1_555
Co8 O2_2 1_555 1_555
O13_2 Co8 1_555 1_555
H39_2 C50_2 1_555 1_555
C51_2 C50_2 1_555 1_555
H40_2 C51_2 1_555 1_555
C53_2 C52_2 1_555 1_555
C54_2 C53_2 1_555 1_555
H41_2 C54_2 1_555 1_555
C55_2 C54_2 1_555 1_555
H42_2 C55_2 1_555 1_555
C56_2 C55_2 1_555 1_555
C57_2 C56_2 1_555 1_555
H43_2 C57_2 1_555 1_555
C66_2 C56_2 1_555 1_555
C67_2 C66_2 1_555 1_555
H48_2 C67_2 1_555 1_555
C68_2 C67_2 1_555 1_555
H49_2 C68_2 1_555 1_555
C69_2 C68_2 1_555 1_555
C70_2 C69_2 1_555 1_555
H50_2 C70_2 1_555 1_555
C71_2 C66_2 1_555 1_555
H51_2 C71_2 1_555 1_555
C72_2 O13_2 1_555 1_555
O22_2 C72_2 1_555 1_555
C51_2 C52_2 1_555 1_555
C53_2 C58_2 1_555 1_555
C57_2 C58_2 1_555 1_555
C69_2 C72_2 1_555 1_555
C70_2 C71_2 1_555 1_555
Co7 O5_2 1_555 1_555
O5_2 C33_2 1_555 1_555
C15_2 C14_2 1_555 1_555
H8_2 C15_2 1_555 1_555
C16_2 C15_2 1_555 1_555
H9_2 C16_2 1_555 1_555
C17_2 C16_2 1_555 1_555
C18_2 C17_2 1_555 1_555
H10_2 C18_2 1_555 1_555
C27_2 C17_2 1_555 1_555
C28_2 C27_2 1_555 1_555
H15_2 C28_2 1_555 1_555
C29_2 C28_2 1_555 1_555
H16_2 C29_2 1_555 1_555
C30_2 C29_2 1_555 1_555
C31_2 C30_2 1_555 1_555
H17_2 C31_2 1_555 1_555
C32_2 C27_2 1_555 1_555
H18_2 C32_2 1_555 1_555
C33_2 O22 1_555 1_555
O17 C40_2 1_555 1_555
O10_2 Co7 1_555 1_555
O20 C65_2 1_555 1_555
O12_2 C65_2 1_555 1_555
N3_2 C44_2 1_555 1_555
C40_2 O10_2 1_555 1_555
C41_2 C40_2 1_555 1_555
C42_2 C41_2 1_555 1_555
H34_2 C42_2 1_555 1_555
C43_2 C42_2 1_555 1_555
H35_2 C43_2 1_555 1_555
C44_2 C43_2 1_555 1_555
C45_2 C44_2 1_555 1_555
H36_2 C45_2 1_555 1_555
C46_2 C41_2 1_555 1_555
H37_2 C46_2 1_555 1_555
C47_2 N3_2 1_555 1_555
C48_2 C47_2 1_555 1_555
H38_2 C48_2 1_555 1_555
C49_2 C48_2 1_555 1_555
C59_2 C49_2 1_555 1_555
C60_2 C59_2 1_555 1_555
H44_2 C60_2 1_555 1_555
C61_2 C60_2 1_555 1_555
H45_2 C61_2 1_555 1_555
C62_2 C61_2 1_555 1_555
C63_2 C62_2 1_555 1_555
H46_2 C63_2 1_555 1_555
C64_2 C59_2 1_555 1_555
H47_2 C64_2 1_555 1_555
C65_2 C62_2 1_555 1_555
Co6 O12_2 1_555 1_555
C14_2 C19_2 1_555 1_555
C18_2 C19_2 1_555 1_555
C30_2 C33_2 1_555 1_555
C31_2 C32_2 1_555 1_555
C45_2 C46_2 1_555 1_555
C63_2 C64_2 1_555 1_555
O23_4 Co6 1_555 1_555
O18_4 Co6_2 1_555 1_555
O21_4 Co6_2 1_555 1_555
O11_2 C65_3 1_555 1_555
O21_4 C65_3 1_555 1_555
C50_3 C49_3 1_555 1_555
H39_3 C50_3 1_555 1_555
C51_3 C50_3 1_555 1_555
H40_3 C51_3 1_555 1_555
C59_3 C49_3 1_555 1_555
C63_3 C62_3 1_555 1_555
H46_3 C63_3 1_555 1_555
C64_3 C59_3 1_555 1_555
H47_3 C64_3 1_555 1_555
C65_3 C62_3 1_555 1_555
C63_3 C64_3 1_555 1_555
O3_2 C26_3 1_555 1_555
O21_3 C26_3 1_555 1_555
C11_2 C10_3 1_555 1_555
H6_2 C11_2 1_555 1_555
C12_2 C11_2 1_555 1_555
H7_2 C12_2 1_555 1_555
C20_3 C10_3 1_555 1_555
C24_3 C23_3 1_555 1_555
H13_3 C24_3 1_555 1_555
C25_3 C20_3 1_555 1_555
H14_3 C25_3 1_555 1_555
C26_3 C23_3 1_555 1_555
Co7_2 O3_2 1_555 1_555
C24_3 C25_3 1_555 1_555
Co7_2 O23_3 1_555 1_555
Co2_2 O5_3 1_555 1_555
O5_3 C33_3 1_555 1_555
O23 Co2_2 1_555 1_555
O7_2 Co2_2 1_555 1_555
O8_2 Co2_2 1_555 1_555
N2_2 C35_2 1_555 1_555
C15_3 C14_3 1_555 1_555
H8_3 C15_3 1_555 1_555
C16_3 C15_3 1_555 1_555
H9_3 C16_3 1_555 1_555
C17_3 C16_3 1_555 1_555
C18_3 C17_3 1_555 1_555
H10_3 C18_3 1_555 1_555
C27_3 C17_3 1_555 1_555
C28_3 C27_3 1_555 1_555
H15_3 C28_3 1_555 1_555
C29_3 C28_3 1_555 1_555
H16_3 C29_3 1_555 1_555
C30_3 C29_3 1_555 1_555
C31_3 C30_3 1_555 1_555
H17_3 C31_3 1_555 1_555
C32_3 C27_3 1_555 1_555
H18_3 C32_3 1_555 1_555
C33_3 O23 1_555 1_555
C34_2 H19_2 1_555 1_555
H20_2 C34_2 1_555 1_555
H21_3 C34_2 1_555 1_555
C35_2 O7_2 1_555 1_555
C36_2 N2_2 1_555 1_555
H22_2 C36_2 1_555 1_555
H23_2 C36_2 1_555 1_555
H24_2 C36_2 1_555 1_555
C37_2 N2_2 1_555 1_555
H25_2 C37_2 1_555 1_555
H26_2 C37_2 1_555 1_555
H27_2 C37_2 1_555 1_555
C38_2 O8_2 1_555 1_555
H28_2 C38_2 1_555 1_555
H29_2 C38_2 1_555 1_555
C39_2 C38_2 1_555 1_555
H30_2 C39_2 1_555 1_555
H31_2 C39_2 1_555 1_555
H32_2 C39_2 1_555 1_555
H33_2 O8_2 1_555 1_555
Co3_2 O2_3 1_555 1_555
O18 C40_3 1_555 1_555
O10_3 Co2_2 1_555 1_555
O13_3 Co3_2 1_555 1_555
O23_2 Co3_2 1_555 1_555
O15_2 Co3_2 1_555 1_555
O16_2 Co3_2 1_555 1_555
N3_3 C44_3 1_555 1_555
C40_3 O10_3 1_555 1_555
C41_3 C40_3 1_555 1_555
C42_3 C41_3 1_555 1_555
H34_3 C42_3 1_555 1_555
C43_3 C42_3 1_555 1_555
H35_3 C43_3 1_555 1_555
C44_3 C43_3 1_555 1_555
C45_3 C44_3 1_555 1_555
H36_3 C45_3 1_555 1_555
C46_3 C41_3 1_555 1_555
H37_3 C46_3 1_555 1_555
C47_3 N3_3 1_555 1_555
C48_3 C47_3 1_555 1_555
H38_3 C48_3 1_555 1_555
C52_3 C47_3 1_555 1_555
C53_3 C52_3 1_555 1_555
C54_3 C53_3 1_555 1_555
H41_3 C54_3 1_555 1_555
C55_3 C54_3 1_555 1_555
H42_3 C55_3 1_555 1_555
C56_3 C55_3 1_555 1_555
C57_3 C56_3 1_555 1_555
H43_3 C57_3 1_555 1_555
C58_3 N3_3 1_555 1_555
H44_3 C60_3 1_555 1_555
C61_3 C60_3 1_555 1_555
H45_3 C61_3 1_555 1_555
C66_3 C56_3 1_555 1_555
C67_3 C66_3 1_555 1_555
H48_3 C67_3 1_555 1_555
C68_3 C67_3 1_555 1_555
H49_3 C68_3 1_555 1_555
C69_3 C68_3 1_555 1_555
C70_3 C69_3 1_555 1_555
H50_3 C70_3 1_555 1_555
C71_3 C66_3 1_555 1_555
H51_3 C71_3 1_555 1_555
C72_3 O13_3 1_555 1_555
C73_2 H52_2 1_555 1_555
H53_2 C73_2 1_555 1_555
H54_3 C73_2 1_555 1_555
C74_2 O15_2 1_555 1_555
H58_2 C76_2 1_555 1_555
H59_2 C76_2 1_555 1_555
C77_2 O16_2 1_555 1_555
H61_2 C77_2 1_555 1_555
H66_2 O16_2 1_555 1_555
O19_2 Co2_2 1_555 1_555
C14_3 C19_3 1_555 1_555
C18_3 C19_3 1_555 1_555
C30_3 C33_3 1_555 1_555
C31_3 C32_3 1_555 1_555
C34_2 C35_2 1_555 1_555
O23_2 C72_3 1_555 1_555
C45_3 C46_3 1_555 1_555
C53_3 C58_3 1_555 1_555
C57_3 C58_3 1_555 1_555
C69_3 C72_3 1_555 1_555
C70_3 C71_3 1_555 1_555
C73_2 C74_2 1_555 1_555
O18_2 C1_3 1_555 1_555
N1_3 C5_3 1_555 1_555
C1_3 C2_3 1_555 1_555
C2_3 C3_3 1_555 1_555
C3_3 H1_3 1_555 1_555
C4_3 C3_3 1_555 1_555
H2_3 C4_3 1_555 1_555
C5_3 C4_3 1_555 1_555
C6_3 C5_3 1_555 1_555
H3_3 C6_3 1_555 1_555
C7_3 C2_3 1_555 1_555
H4_3 C7_3 1_555 1_555
C8_3 N1_3 1_555 1_555
C9_3 C8_3 1_555 1_555
H5_3 C9_3 1_555 1_555
C13_2 C8_3 1_555 1_555
H11_3 C21_3 1_555 1_555
C22_3 C21_3 1_555 1_555
H12_3 C22_3 1_555 1_555
C75_2 N4_2 1_555 1_555
H55_2 C75_2 1_555 1_555
H56_2 C75_2 1_555 1_555
H57_2 C75_2 1_555 1_555
H63_2 C78_2 1_555 1_555
H64_2 C78_2 1_555 1_555
H65_2 C78_2 1_555 1_555
C6_3 C7_3 1_555 1_555
Co8_2 O23_4 1_555 1_555
Co7_2 O5_4 1_555 1_555
O5_4 C33_4 1_555 1_555
C15_4 C14_4 1_555 1_555
H8_4 C15_4 1_555 1_555
C16_4 C15_4 1_555 1_555
H9_4 C16_4 1_555 1_555
C17_4 C16_4 1_555 1_555
C18_4 C17_4 1_555 1_555
H10_4 C18_4 1_555 1_555
C27_4 C17_4 1_555 1_555
C28_4 C27_4 1_555 1_555
H15_4 C28_4 1_555 1_555
C29_4 C28_4 1_555 1_555
H16_4 C29_4 1_555 1_555
C30_4 C29_4 1_555 1_555
C31_4 C30_4 1_555 1_555
H17_4 C31_4 1_555 1_555
C32_4 C27_4 1_555 1_555
H18_4 C32_4 1_555 1_555
C33_4 O23_3 1_555 1_555
O18_3 C40_4 1_555 1_555
O10_4 Co7_2 1_555 1_555
O20_2 C65_4 1_555 1_555
O21_2 C65_4 1_555 1_555
N3_4 C44_4 1_555 1_555
C40_4 O10_4 1_555 1_555
C41_4 C40_4 1_555 1_555
C42_4 C41_4 1_555 1_555
H34_4 C42_4 1_555 1_555
C43_4 C42_4 1_555 1_555
H35_4 C43_4 1_555 1_555
C44_4 C43_4 1_555 1_555
C45_4 C44_4 1_555 1_555
H36_4 C45_4 1_555 1_555
C46_4 C41_4 1_555 1_555
H37_4 C46_4 1_555 1_555
C47_4 N3_4 1_555 1_555
C48_4 C47_4 1_555 1_555
H38_4 C48_4 1_555 1_555
C49_4 C48_4 1_555 1_555
C59_4 C49_4 1_555 1_555
C60_4 C59_4 1_555 1_555
H44_4 C60_4 1_555 1_555
C61_4 C60_4 1_555 1_555
H45_4 C61_4 1_555 1_555
C62_4 C61_4 1_555 1_555
C63_4 C62_4 1_555 1_555
H46_4 C63_4 1_555 1_555
C64_4 C59_4 1_555 1_555
H47_4 C64_4 1_555 1_555
C65_4 C62_4 1_555 1_555
C14_4 C19_4 1_555 1_555
C18_4 C19_4 1_555 1_555
C30_4 C33_4 1_555 1_555
C31_4 C32_4 1_555 1_555
C45_4 C46_4 1_555 1_555
C63_4 C64_4 1_555 1_555
Co8_2 O2_4 1_555 1_555
O13_4 Co8_2 1_555 1_555
H39_4 C50_4 1_555 1_555
C51_4 C50_4 1_555 1_555
H40_4 C51_4 1_555 1_555
C53_4 C52_4 1_555 1_555
C54_4 C53_4 1_555 1_555
H41_4 C54_4 1_555 1_555
C55_4 C54_4 1_555 1_555
H42_4 C55_4 1_555 1_555
C56_4 C55_4 1_555 1_555
C57_4 C56_4 1_555 1_555
H43_4 C57_4 1_555 1_555
C66_4 C56_4 1_555 1_555
C67_4 C66_4 1_555 1_555
H48_4 C67_4 1_555 1_555
C68_4 C67_4 1_555 1_555
H49_4 C68_4 1_555 1_555
C69_4 C68_4 1_555 1_555
C70_4 C69_4 1_555 1_555
H50_4 C70_4 1_555 1_555
C71_4 C66_4 1_555 1_555
H51_4 C71_4 1_555 1_555
C72_4 O13_4 1_555 1_555
O23_4 C72_4 1_555 1_555
C51_4 C52_4 1_555 1_555
C53_4 C58_4 1_555 1_555
C57_4 C58_4 1_555 1_555
C69_4 C72_4 1_555 1_555
C70_4 C71_4 1_555 1_555
O18_4 C1_4 1_555 1_555
O19_2 C26_4 1_555 1_555
O21 C26_4 1_555 1_555
N1_4 C5_4 1_555 1_555
C1_4 C2_4 1_555 1_555
C2_4 C3_4 1_555 1_555
C3_4 H1_4 1_555 1_555
C4_4 C3_4 1_555 1_555
H2_4 C4_4 1_555 1_555
C5_4 C4_4 1_555 1_555
C6_4 C5_4 1_555 1_555
H3_4 C6_4 1_555 1_555
C7_4 C2_4 1_555 1_555
H4_4 C7_4 1_555 1_555
C8_4 N1_4 1_555 1_555
C9_4 C8_4 1_555 1_555
H5_4 C9_4 1_555 1_555
C10_4 C9_4 1_555 1_555
C20_4 C10_4 1_555 1_555
C21_4 C20_4 1_555 1_555
H11_4 C21_4 1_555 1_555
C22_4 C21_4 1_555 1_555
H12_4 C22_4 1_555 1_555
C23_4 C22_4 1_555 1_555
C24_4 C23_4 1_555 1_555
H13_4 C24_4 1_555 1_555
C25_4 C20_4 1_555 1_555
H14_4 C25_4 1_555 1_555
C26_4 C23_4 1_555 1_555
C6_4 C7_4 1_555 1_555
C24_4 C25_4 1_555 1_555
C75_3 N4_3 1_555 1_555
H55_3 C75_3 1_555 1_555
H56_3 C75_3 1_555 1_555
H57_3 C75_3 1_555 1_555
H63_3 C78_3 1_555 1_555
H64_3 C78_3 1_555 1_555
H65_3 C78_3 1_555 1_555
C73_3 H52_3 1_555 1_555
H53_3 C73_3 1_555 1_555
C74_3 O15_3 1_555 1_555
H58_3 C76_3 1_555 1_555
H59_3 C76_3 1_555 1_555
C77_3 O16_3 1_555 1_555
H61_3 C77_3 1_555 1_555
H66_3 O16_3 1_555 1_555
C73_3 C74_3 1_555 1_555
N2_3 C35_3 1_555 1_555
C34_3 H19_3 1_555 1_555
H20_3 C34_3 1_555 1_555
C35_3 O7_3 1_555 1_555
C36_3 N2_3 1_555 1_555
H22_3 C36_3 1_555 1_555
H23_3 C36_3 1_555 1_555
H24_3 C36_3 1_555 1_555
C37_3 N2_3 1_555 1_555
H25_3 C37_3 1_555 1_555
H26_3 C37_3 1_555 1_555
H27_3 C37_3 1_555 1_555
C38_3 O8_3 1_555 1_555
H28_3 C38_3 1_555 1_555
H29_3 C38_3 1_555 1_555
C39_3 C38_3 1_555 1_555
H30_3 C39_3 1_555 1_555
H31_3 C39_3 1_555 1_555
H32_3 C39_3 1_555 1_555
H33_3 O8_3 1_555 1_555
C34_3 C35_3 1_555 1_555
H6_3 C11_3 1_555 1_555
C12_3 C11_3 1_555 1_555
H7_3 C12_3 1_555 1_555
C12_3 C13_3 1_555 1_555
H6_4 C11_4 1_555 1_555
C12_4 C11_4 1_555 1_555
H7_4 C12_4 1_555 1_555
C12_4 C13_4 1_555 1_555
N2_4 C35_4 1_555 1_555
C34_4 H19_4 1_555 1_555
H20_4 C34_4 1_555 1_555
C35_4 O7_4 1_555 1_555
C36_4 N2_4 1_555 1_555
H22_4 C36_4 1_555 1_555
H23_4 C36_4 1_555 1_555
H24_4 C36_4 1_555 1_555
C37_4 N2_4 1_555 1_555
H25_4 C37_4 1_555 1_555
H26_4 C37_4 1_555 1_555
H27_4 C37_4 1_555 1_555
C38_4 O8_4 1_555 1_555
H28_4 C38_4 1_555 1_555
H29_4 C38_4 1_555 1_555
C39_4 C38_4 1_555 1_555
H30_4 C39_4 1_555 1_555
H31_4 C39_4 1_555 1_555
H32_4 C39_4 1_555 1_555
H33_4 O8_4 1_555 1_555
C34_4 C35_4 1_555 1_555
C73_4 H52_4 1_555 1_555
H53_4 C73_4 1_555 1_555
C74_4 O15_4 1_555 1_555
H58_4 C76_4 1_555 1_555
H59_4 C76_4 1_555 1_555
C77_4 O16_4 1_555 1_555
H61_4 C77_4 1_555 1_555
H66_4 O16_4 1_555 1_555
C73_4 C74_4 1_555 1_555
C75_4 N4_4 1_555 1_555
H55_4 C75_4 1_555 1_555
H56_4 C75_4 1_555 1_555
H57_4 C75_4 1_555 1_555
H63_4 C78_4 1_555 1_555
H64_4 C78_4 1_555 1_555
H65_4 C78_4 1_555 1_555

#END
