
###############################################################################
#
# This file contains modified crystal structure data generated from the
# MOF subset of the Cambridge Structural Database (CSD) v543 
# hosted by the Cambridge Crystallographic Data Centre (CCDC).
#
# This work is licensed under the Creative Commons
# Attribution-NonCommercial-ShareAlike 4.0 International License.
# To view a copy of this license, visit
# http://creativecommons.org/licenses/by-nc-sa/4.0/
# or send a letter to
# Creative Commons, PO Box 1866, Mountain View, CA 94042, USA.
#
# CIF created using the CSD Python API on 29 September 2022
# The structure has been converted into the P1 space group
# The structure has a 3D framework
# The original CSD entry NEGZUW is in the orthorhombic crystal system
# The framework has been calculated to contain at least 10.0% void space
# The void calculation uses a probe of radius 1.32A, grid spacing 0.4
# H atom positions have been added when not included in the experimental data
#
###############################################################################

data_NEGZUW
_chemical_formula_moiety         '(C72 H168 N80 O152 V44 Zn24)n'
_symmetry_cell_setting           triclinic
_symmetry_space_group_name_H-M   'P 1'
_symmetry_Int_Tables_number      1
_space_group_name_Hall           'P 1'
loop_
_symmetry_equiv_pos_site_id
_symmetry_equiv_pos_as_xyz
1 x,y,z
_cell_length_a                   24.677(3)
_cell_length_b                   18.0396(19)
_cell_length_c                   17.2999(18)
_cell_angle_alpha                90
_cell_angle_beta                 90
_cell_angle_gamma                90
_cell_volume                     7701.28
loop_
_atom_site_label
_atom_site_type_symbol
_atom_site_fract_x
_atom_site_fract_y
_atom_site_fract_z
N2 N 0.19228(15) 0.06100(19) 0.2443(2)
O15 O 0.29987(17) 0.0211(2) 0.0189(2)
C3 C 0.23761(18) 0.0483(2) 0.2027(3)
H3 H 0.2671 0.0820 0.2001
H7 H 0.3739 0.0395 0.0114
Zn5 Zn 0.167290(19) 0.15078(2) 0.30139(3)
H33 H 0.38503 0.00315547 0.127169
H34 H 0.344686 0.0102542 0.200785
Zn1 Zn 0.332710(19) 0.65078(2) 0.30139(3)
Zn2 Zn 0.167750(17) 0.84948(2) 0.14919(2)
Zn3 Zn 0.296286(18) 0.92922(2) 0.09564(2)
V1 V 0.09232(2) 0.69448(3) 0.16317(3)
V3 V 0.0000 0.60701(4) 0.2500
V4 V 0.11506(2) 0.61363(3) 0.31821(4)
V5 V 0.0000 0.78807(4) 0.2500
V6 V 0.11444(2) 0.78330(4) 0.31794(3)
O1 O 0.05039(11) 0.84487(14) 0.27948(15)
O2 O 0.02880(9) 0.76580(13) 0.14883(13)
O3 O 0.05087(10) 0.55116(14) 0.27966(15)
O4 O 0.15240(10) 0.69846(15) 0.33874(15)
O5 O 0.02876(9) 0.62897(13) 0.14835(13)
O7 O 0.05043(9) 0.69773(12) 0.27869(13)
O9 O 0.13006(9) 0.62264(14) 0.21017(15)
O10 O 0.11641(11) 0.69740(16) 0.07687(16)
O11 O 0.12860(9) 0.77336(14) 0.20939(14)
N1 N 0.30449(13) 0.73735(18) 0.24380(19)
N3 N 0.18762(15) 0.95268(18) 0.1860(2)
O12 O 0.15697(12) 0.54970(17) 0.34097(19)
O13 O 0.36155(15) 0.8716(2) 0.0371(2)
N4 N 0.19096(15) 0.8510(2) 0.03709(19)
O14 O 0.00108(13) 0.69875(18) 0.00934(16)
N5 N 0.23664(14) 0.98480(18) 0.1665(2)
C1 C 0.16314(18) 0.9995(2) 0.2311(3)
H1 H 0.1282 0.9911 0.2525
N6 N 0.29203(13) 0.83444(18) 0.16775(19)
N7 N 0.24209(13) 0.80520(17) 0.1869(2)
C2 C 0.25166(16) 0.7481(2) 0.2313(2)
H2 H 0.2240 0.7175 0.2525
N8 N 0.23863(14) 0.88416(19) 0.01585(18)
O16 O 0.35999(15) 0.9757(2) 0.1618(2)
O17 O 0.08647(14) 0.8874(2) 0.1105(2)
O18 O 0.15553(13) 0.84892(17) 0.33963(19)
C5 C 0.32800(16) 0.7923(2) 0.2029(2)
H5 H 0.3661 0.7997 0.1998
O19 O 0.4134(2) 0.6533(4) 0.3057(4)
V8 V 0.02313(2) 0.69825(4) 0.40420(3)
O25 O 0.07348(10) 0.62403(15) 0.40779(14)
O27 O 0.07320(11) 0.77281(16) 0.40751(14)
N13 N 0.30772(15) 0.56100(19) 0.2443(2)
N22 N 0.30653(16) 0.6465(2) 0.4099(2)
H27 H 0.365307 0.820935 0.0588891
H29 H 0.425364 0.699344 0.332124
H30 H 0.426794 0.609512 0.334765
H31 H 0.0646941 0.902488 0.156132
H32 H 0.0906038 0.930301 0.0750231
N9 N 0.19347(16) 0.8535(2) 0.9099(2)
C4 C 0.23871(17) 0.8847(2) 0.9399(2)
H4 H 0.2673 0.9046 0.9095
C6 C 0.16555(19) 0.8339(3) 0.9731(2)
H6 H 0.1312 0.8102 0.9716
Zn6 Zn 0.167290(19) 0.84922(2) 0.80139(3)
H28 H 0.353292 0.868214 0.981034
Zn7 Zn 0.832710(19) 0.15078(2) 0.19861(3)
N12 N 0.80772(15) 0.06100(19) 0.2557(2)
O34 O 0.70013(17) 0.0211(2) 0.4811(2)
C12 C 0.76239(18) 0.0483(2) 0.2973(3)
H16 H 0.7329 0.0820 0.2999
N24 N 0.6610(3) 0.0939(3) 0.5719(3)
C16 C 0.6604(3) 0.0499(4) 0.5112(4)
H20 H 0.6261 0.0395 0.4886
C17 C 0.7125(4) 0.1062(5) 0.6185(6)
H21 H 0.7429 0.0812 0.5930
H22 H 0.7078 0.0860 0.6706
H23 H 0.7200 0.1595 0.6218
C18 C 0.6128(5) 0.1237(6) 0.6036(6)
H24 H 0.5814 0.1040 0.5755
H25 H 0.6134 0.1778 0.5991
H26 H 0.6101 0.1097 0.6583
H37 H 0.61497 0.00315547 0.372831
H38 H 0.655314 0.0102542 0.299215
V2 V 0.97687(2) 0.69825(4) 0.09580(3)
V3_2 V 1.0000 0.60701(4) 0.2500
V5_2 V 1.0000 0.78807(4) 0.2500
O6 O 0.92652(10) 0.62403(15) 0.09221(14)
O8 O 0.92680(11) 0.77281(16) 0.09249(14)
Zn4 Zn 0.667290(19) 0.65078(2) 0.19861(3)
Zn8 Zn 0.832710(19) 0.84922(2) 0.69861(3)
Zn9 Zn 0.832250(17) 0.84948(2) 0.35081(2)
Zn10 Zn 0.703714(18) 0.92922(2) 0.40436(2)
V7 V 0.90768(2) 0.69448(3) 0.33683(3)
V9 V 0.88494(2) 0.61363(3) 0.18179(4)
V10 V 0.88556(2) 0.78330(4) 0.18206(3)
O20 O 0.94961(11) 0.84487(14) 0.22052(15)
O21 O 0.97120(9) 0.76580(13) 0.35117(13)
O22 O 0.94913(10) 0.55116(14) 0.22034(15)
O23 O 0.84760(10) 0.69846(15) 0.16126(15)
O24 O 0.97124(9) 0.62897(13) 0.35165(13)
O26 O 0.94957(9) 0.69773(12) 0.22131(13)
O28 O 0.86994(9) 0.62264(14) 0.28983(15)
O29 O 0.88359(11) 0.69740(16) 0.42313(16)
O30 O 0.87140(9) 0.77336(14) 0.29061(14)
N11 N 0.69551(13) 0.73735(18) 0.25620(19)
N14 N 0.69228(15) 0.56100(19) 0.2557(2)
N15 N 0.81238(15) 0.95268(18) 0.3140(2)
O31 O 0.84303(12) 0.54970(17) 0.15903(19)
O32 O 0.63845(15) 0.8716(2) 0.4629(2)
N16 N 0.80904(15) 0.8510(2) 0.46291(19)
O33 O 0.99892(13) 0.69875(18) 0.49066(16)
N17 N 0.76336(14) 0.98480(18) 0.3335(2)
C10 C 0.83686(18) 0.9995(2) 0.2689(3)
H14 H 0.8718 0.9911 0.2475
N18 N 0.70797(13) 0.83444(18) 0.33225(19)
N19 N 0.75791(13) 0.80520(17) 0.3131(2)
C11 C 0.74834(16) 0.7481(2) 0.2687(2)
H15 H 0.7760 0.7175 0.2475
N20 N 0.76137(14) 0.88416(19) 0.48415(18)
N21 N 0.80653(16) 0.8535(2) 0.5901(2)
N23 N 0.69347(16) 0.6465(2) 0.0901(2)
O35 O 0.64001(15) 0.9757(2) 0.3382(2)
C13 C 0.76129(17) 0.8847(2) 0.5601(2)
H17 H 0.7327 0.9046 0.5905
O36 O 0.91353(14) 0.8874(2) 0.3895(2)
O37 O 0.84447(13) 0.84892(17) 0.16037(19)
C14 C 0.67200(16) 0.7923(2) 0.2971(2)
H18 H 0.6339 0.7997 0.3002
C15 C 0.83445(19) 0.8339(3) 0.5269(2)
H19 H 0.8688 0.8102 0.5284
O38 O 0.5866(2) 0.6533(4) 0.1943(4)
H35 H 0.634693 0.820935 0.441111
H36 H 0.646708 0.868214 0.518966
H39 H 0.935306 0.902488 0.343868
H40 H 0.909396 0.930301 0.424977
H41 H 0.574636 0.699344 0.167876
H42 H 0.573206 0.609512 0.165235
C13_2 C 0.73871(17) 0.6153(2) 0.0601(2)
H17_2 H 0.7673 0.5954 0.0905
C15_2 C 0.66555(19) 0.6661(3) 0.0269(2)
H19_2 H 0.6312 0.6898 0.0284
N24_2 N 0.8390(3) 0.4061(3) 0.0719(3)
C16_2 C 0.8396(3) 0.4501(4) 0.0112(4)
C17_2 C 0.7875(4) 0.3938(5) 0.1185(6)
H21_2 H 0.7571 0.4188 0.0930
H22_2 H 0.7922 0.4140 0.1706
H23_2 H 0.7800 0.3405 0.1218
C18_2 C 0.8872(5) 0.3763(6) 0.1036(6)
H24_2 H 0.9186 0.3960 0.0755
H25_2 H 0.8866 0.3222 0.0991
H26_2 H 0.8899 0.3903 0.1583
H36_2 H 0.853292 0.631786 0.0189664
Zn2_2 Zn 0.332250(17) 0.65052(2) 0.64919(2)
Zn3_2 Zn 0.203714(18) 0.57078(2) 0.59564(2)
V1_2 V 0.40768(2) 0.80552(3) 0.66317(3)
V2_2 V 0.52313(2) 0.80175(4) 0.59580(3)
V3_3 V 0.5000 0.89299(4) 0.7500
V4_2 V 0.38494(2) 0.88637(3) 0.81821(4)
V5_3 V 0.5000 0.71193(4) 0.7500
V6_2 V 0.38556(2) 0.71670(4) 0.81794(3)
O1_2 O 0.44961(11) 0.65513(14) 0.77948(15)
O2_2 O 0.47120(9) 0.73420(13) 0.64883(13)
O3_2 O 0.44913(10) 0.94884(14) 0.77966(15)
O4_2 O 0.34760(10) 0.80154(15) 0.83874(15)
O5_2 O 0.47124(9) 0.87103(13) 0.64835(13)
O6_2 O 0.57348(10) 0.87597(15) 0.59221(14)
O7_2 O 0.44957(9) 0.80227(12) 0.77869(13)
O8_2 O 0.57320(11) 0.72719(16) 0.59249(14)
O9_2 O 0.36994(9) 0.87736(14) 0.71017(15)
O10_2 O 0.38359(11) 0.80260(16) 0.57687(16)
O11_2 O 0.37140(9) 0.72664(14) 0.70939(14)
N1_2 N 0.19551(13) 0.76265(18) 0.74380(19)
N2_2 N 0.30772(15) 0.43900(19) 0.7443(2)
N3_2 N 0.31238(15) 0.54732(18) 0.6860(2)
O12_2 O 0.34303(12) 0.95030(17) 0.84097(19)
O13_2 O 0.13845(15) 0.6284(2) 0.5371(2)
N4_2 N 0.30904(15) 0.6490(2) 0.53709(19)
O14_2 O 0.49892(13) 0.80125(18) 0.50934(16)
N5_2 N 0.26336(14) 0.51520(18) 0.6665(2)
C1_2 C 0.33686(18) 0.5005(2) 0.7311(3)
H1_2 H 0.3718 0.5089 0.7525
N6_2 N 0.20797(13) 0.66556(18) 0.66775(19)
N7_2 N 0.25791(13) 0.69480(17) 0.6869(2)
C2_2 C 0.24834(16) 0.7519(2) 0.7313(2)
H2_2 H 0.2760 0.7825 0.7525
O15_2 O 0.20013(17) 0.4789(2) 0.5189(2)
N8_2 N 0.26137(14) 0.61584(19) 0.51585(18)
O16_2 O 0.14001(15) 0.5243(2) 0.6618(2)
C3_2 C 0.26239(18) 0.4517(2) 0.7027(3)
H3_2 H 0.2329 0.4180 0.7001
C4_2 C 0.26129(17) 0.6153(2) 0.4399(2)
H4_2 H 0.2327 0.5954 0.4095
O17_2 O 0.41353(14) 0.6126(2) 0.6105(2)
O18_2 O 0.34447(13) 0.65108(17) 0.83963(19)
C5_2 C 0.17200(16) 0.7077(2) 0.7029(2)
H5_2 H 0.1339 0.7003 0.6998
C6_2 C 0.33445(19) 0.6661(3) 0.4731(2)
H6_2 H 0.3688 0.6898 0.4716
N10 N 0.1610(3) 0.4061(3) 0.4281(3)
O19_2 O 0.0866(2) 0.8467(4) 0.8057(4)
C7 C 0.1604(3) 0.4501(4) 0.4888(4)
H7_2 H 0.1261 0.4605 0.5114
C8 C 0.2125(4) 0.3938(5) 0.3815(6)
H8 H 0.2429 0.4188 0.4070
H9 H 0.2078 0.4140 0.3294
H10 H 0.2200 0.3405 0.3782
C9 C 0.1128(5) 0.3763(6) 0.3964(6)
H11 H 0.0814 0.3960 0.4245
H12 H 0.1134 0.3222 0.4009
H13 H 0.1101 0.3903 0.3417
Zn5_2 Zn 0.332710(19) 0.34922(2) 0.80139(3)
Zn7_2 Zn 0.667290(19) 0.34922(2) 0.69861(3)
Zn9_2 Zn 0.667750(17) 0.65052(2) 0.85081(2)
Zn10_2 Zn 0.796286(18) 0.57078(2) 0.90436(2)
V7_2 V 0.59232(2) 0.80552(3) 0.83683(3)
V8_2 V 0.47687(2) 0.80175(4) 0.90420(3)
V9_2 V 0.61506(2) 0.88637(3) 0.68179(4)
V10_2 V 0.61444(2) 0.71670(4) 0.68206(3)
O20_2 O 0.55039(11) 0.65513(14) 0.72052(15)
O21_2 O 0.52880(9) 0.73420(13) 0.85117(13)
O22_2 O 0.55087(10) 0.94884(14) 0.72034(15)
O23_2 O 0.65240(10) 0.80154(15) 0.66126(15)
O24_2 O 0.52876(9) 0.87103(13) 0.85165(13)
O25_2 O 0.42652(10) 0.87597(15) 0.90779(14)
O26_2 O 0.55043(9) 0.80227(12) 0.72131(13)
O27_2 O 0.42680(11) 0.72719(16) 0.90751(14)
O28_2 O 0.63006(9) 0.87736(14) 0.78983(15)
O29_2 O 0.61641(11) 0.80260(16) 0.92313(16)
O30_2 O 0.62860(9) 0.72664(14) 0.79061(14)
N11_2 N 0.80449(13) 0.76265(18) 0.75620(19)
N12_2 N 0.69228(15) 0.43900(19) 0.7557(2)
N13_2 N 0.19228(15) 0.93900(19) 0.7443(2)
N14_2 N 0.80772(15) 0.93900(19) 0.7557(2)
N15_2 N 0.68762(15) 0.54732(18) 0.8140(2)
O31_2 O 0.65697(12) 0.95030(17) 0.65903(19)
O32_2 O 0.86155(15) 0.6284(2) 0.9629(2)
N16_2 N 0.69096(15) 0.6490(2) 0.96291(19)
O33_2 O 0.50108(13) 0.80125(18) 0.99066(16)
N17_2 N 0.73664(14) 0.51520(18) 0.8335(2)
C10_2 C 0.66314(18) 0.5005(2) 0.7689(3)
H14_2 H 0.6282 0.5089 0.7475
N18_2 N 0.79203(13) 0.66556(18) 0.83225(19)
N19_2 N 0.74209(13) 0.69480(17) 0.8131(2)
C11_2 C 0.75166(16) 0.7519(2) 0.7687(2)
H15_2 H 0.7240 0.7825 0.7475
O34_2 O 0.79987(17) 0.4789(2) 0.9811(2)
N20_2 N 0.73863(14) 0.61584(19) 0.98415(18)
O35_2 O 0.85999(15) 0.5243(2) 0.8382(2)
C12_2 C 0.73761(18) 0.4517(2) 0.7973(3)
H16_2 H 0.7671 0.4180 0.7999
O36_2 O 0.58647(14) 0.6126(2) 0.8895(2)
O37_2 O 0.65553(13) 0.65108(17) 0.66037(19)
C14_2 C 0.82800(16) 0.7077(2) 0.7971(2)
H18_2 H 0.8661 0.7003 0.8002
O38_2 O 0.9134(2) 0.8467(4) 0.6943(4)
H20_2 H 0.8739 0.4605 0.9886
H27_2 H 0.134693 0.679065 0.558889
H28_2 H 0.146708 0.631786 0.481034
H29_2 H 0.0746359 0.800656 0.832124
H30_2 H 0.073206 0.890488 0.834765
H31_2 H 0.435306 0.597512 0.656132
H32_2 H 0.409396 0.569699 0.575023
H33_2 H 0.11497 0.496845 0.627169
H34_2 H 0.155314 0.489746 0.700785
H35_2 H 0.865307 0.679065 0.941111
H37_2 H 0.88503 0.496845 0.872831
H38_2 H 0.844686 0.489746 0.799215
H39_2 H 0.564694 0.597512 0.843868
H40_2 H 0.590604 0.569699 0.924977
H41_2 H 0.925364 0.800656 0.667876
H42_2 H 0.926794 0.890488 0.665235
V2_3 V 0.02313(2) 0.30175(4) 0.90420(3)
V3_4 V -0.0000 0.39299(4) 0.7500
V5_4 V 0.0000 0.21193(4) 0.7500
O6_3 O 0.07348(10) 0.37597(15) 0.90779(14)
O8_3 O 0.07320(11) 0.22719(16) 0.90751(14)
Zn9_3 Zn 0.167750(17) 0.15052(2) 0.64919(2)
Zn10_3 Zn 0.296286(18) 0.07078(2) 0.59564(2)
V7_3 V 0.09232(2) 0.30552(3) 0.66317(3)
V9_3 V 0.11506(2) 0.38637(3) 0.81821(4)
V10_3 V 0.11444(2) 0.21670(4) 0.81794(3)
O20_3 O 0.05039(11) 0.15513(14) 0.77948(15)
O21_3 O 0.02880(9) 0.23420(13) 0.64883(13)
O22_3 O 0.05087(10) 0.44884(14) 0.77966(15)
O23_3 O 0.15240(10) 0.30154(15) 0.83874(15)
O24_3 O 0.02876(9) 0.37103(13) 0.64835(13)
O26_3 O 0.05043(9) 0.30227(12) 0.77869(13)
O28_3 O 0.13006(9) 0.37736(14) 0.71017(15)
O29_3 O 0.11641(11) 0.30260(16) 0.57687(16)
O30_3 O 0.12860(9) 0.22664(14) 0.70939(14)
N11_3 N 0.30449(13) 0.26265(18) 0.74380(19)
N15_3 N 0.18762(15) 0.04732(18) 0.6860(2)
O31_3 O 0.15697(12) 0.45030(17) 0.84097(19)
O32_3 O 0.36155(15) 0.1284(2) 0.5371(2)
N16_3 N 0.19096(15) 0.1490(2) 0.53709(19)
O33_3 O 0.00108(13) 0.30125(18) 0.50934(16)
N17_3 N 0.23664(14) 0.01520(18) 0.6665(2)
C10_3 C 0.16314(18) 0.0005(2) 0.7311(3)
H14_3 H 0.1282 0.0089 0.7525
N18_3 N 0.29203(13) 0.16556(18) 0.66775(19)
N19_3 N 0.24209(13) 0.19480(17) 0.6869(2)
C11_3 C 0.25166(16) 0.2519(2) 0.7313(2)
H15_3 H 0.2240 0.2825 0.7525
N20_3 N 0.23863(14) 0.11584(19) 0.51585(18)
N21_2 N 0.19347(16) 0.1465(2) 0.4099(2)
N23_2 N 0.30653(16) 0.3535(2) 0.9099(2)
O35_3 O 0.35999(15) 0.0243(2) 0.6618(2)
C13_3 C 0.23871(17) 0.1153(2) 0.4399(2)
H17_3 H 0.2673 0.0954 0.4095
O36_3 O 0.08647(14) 0.1126(2) 0.6105(2)
O37_3 O 0.15553(13) 0.15108(17) 0.83963(19)
C14_3 C 0.32800(16) 0.2077(2) 0.7029(2)
H18_3 H 0.3661 0.2003 0.6998
C15_3 C 0.16555(19) 0.1661(3) 0.4731(2)
H19_3 H 0.1312 0.1898 0.4716
O38_3 O 0.4134(2) 0.3467(4) 0.8057(4)
H35_3 H 0.365307 0.179065 0.558889
H36_3 H 0.353292 0.131786 0.481034
H39_3 H 0.0646941 0.0975121 0.656132
H40_3 H 0.0906038 0.0696986 0.575023
H41_3 H 0.425364 0.300656 0.832124
H42_3 H 0.426794 0.390488 0.834765
O34_3 O 0.29987(17) 0.9789(2) 0.5189(2)
C12_3 C 0.23761(18) 0.9517(2) 0.7027(3)
H16_3 H 0.2671 0.9180 0.7001
N24_3 N 0.3390(3) 0.9061(3) 0.4281(3)
C16_3 C 0.3396(3) 0.9501(4) 0.4888(4)
H20_3 H 0.3739 0.9605 0.5114
C17_3 C 0.2875(4) 0.8938(5) 0.3815(6)
H21_3 H 0.2571 0.9188 0.4070
H22_3 H 0.2922 0.9140 0.3294
H23_3 H 0.2800 0.8405 0.3782
C18_3 C 0.3872(5) 0.8763(6) 0.3964(6)
H24_3 H 0.4186 0.8960 0.4245
H25_3 H 0.3866 0.8222 0.4009
H26_3 H 0.3899 0.8903 0.3417
H37_3 H 0.38503 0.996845 0.627169
H38_3 H 0.344686 0.989746 0.700785
N9_2 N 0.80653(16) 0.1465(2) 0.0901(2)
C4_3 C 0.76129(17) 0.1153(2) 0.0601(2)
H4_3 H 0.7327 0.0954 0.0905
C6_3 C 0.83445(19) 0.1661(3) 0.0269(2)
H6_3 H 0.8688 0.1898 0.0284
H28_3 H 0.646708 0.131786 0.0189664
Zn2_3 Zn 0.832250(17) 0.15052(2) 0.85081(2)
Zn3_3 Zn 0.703714(18) 0.07078(2) 0.90436(2)
V1_3 V 0.90768(2) 0.30552(3) 0.83683(3)
V3_5 V 1.0000 0.39299(4) 0.7500
V4_3 V 0.88494(2) 0.38637(3) 0.68179(4)
V5_5 V 1.0000 0.21193(4) 0.7500
V6_3 V 0.88556(2) 0.21670(4) 0.68206(3)
O1_3 O 0.94961(11) 0.15513(14) 0.72052(15)
O2_3 O 0.97120(9) 0.23420(13) 0.85117(13)
O3_3 O 0.94913(10) 0.44884(14) 0.72034(15)
O4_3 O 0.84760(10) 0.30154(15) 0.66126(15)
O5_3 O 0.97124(9) 0.37103(13) 0.85165(13)
O7_3 O 0.94957(9) 0.30227(12) 0.72131(13)
O9_3 O 0.86994(9) 0.37736(14) 0.78983(15)
O10_3 O 0.88359(11) 0.30260(16) 0.92313(16)
O11_3 O 0.87140(9) 0.22664(14) 0.79061(14)
N1_3 N 0.69551(13) 0.26265(18) 0.75620(19)
N3_3 N 0.81238(15) 0.04732(18) 0.8140(2)
O12_3 O 0.84303(12) 0.45030(17) 0.65903(19)
O13_3 O 0.63845(15) 0.1284(2) 0.9629(2)
N4_3 N 0.80904(15) 0.1490(2) 0.96291(19)
O14_3 O 0.99892(13) 0.30125(18) 0.99066(16)
N5_3 N 0.76336(14) 0.01520(18) 0.8335(2)
C1_3 C 0.83686(18) 0.0005(2) 0.7689(3)
H1_3 H 0.8718 0.0089 0.7475
N6_3 N 0.70797(13) 0.16556(18) 0.83225(19)
N7_3 N 0.75791(13) 0.19480(17) 0.8131(2)
C2_3 C 0.74834(16) 0.2519(2) 0.7687(2)
H2_3 H 0.7760 0.2825 0.7475
N8_3 N 0.76137(14) 0.11584(19) 0.98415(18)
O16_3 O 0.64001(15) 0.0243(2) 0.8382(2)
O17_3 O 0.91353(14) 0.1126(2) 0.8895(2)
O18_3 O 0.84447(13) 0.15108(17) 0.66037(19)
C5_3 C 0.67200(16) 0.2077(2) 0.7971(2)
H5_3 H 0.6339 0.2003 0.8002
O19_3 O 0.5866(2) 0.3467(4) 0.6943(4)
V8_3 V 0.97687(2) 0.30175(4) 0.59580(3)
O25_3 O 0.92652(10) 0.37597(15) 0.59221(14)
O27_3 O 0.92680(11) 0.22719(16) 0.59249(14)
N22_2 N 0.69347(16) 0.3535(2) 0.5901(2)
H27_3 H 0.634693 0.179065 0.941111
H29_3 H 0.574636 0.300656 0.667876
H30_3 H 0.573206 0.390488 0.665235
H31_3 H 0.935306 0.0975121 0.843868
H32_3 H 0.909396 0.0696986 0.924977
O15_3 O 0.70013(17) 0.9789(2) 0.9811(2)
C3_3 C 0.76239(18) 0.9517(2) 0.7973(3)
H3_3 H 0.7329 0.9180 0.7999
H7_3 H 0.6261 0.9605 0.9886
H33_3 H 0.61497 0.996845 0.872831
H34_3 H 0.655314 0.989746 0.799215
Zn2_4 Zn 0.667750(17) 0.34948(2) 0.35081(2)
Zn3_4 Zn 0.796286(18) 0.42922(2) 0.40436(2)
V1_4 V 0.59232(2) 0.19448(3) 0.33683(3)
V2_4 V 0.47687(2) 0.19825(4) 0.40420(3)
V3_6 V 0.5000 0.10701(4) 0.2500
V4_4 V 0.61506(2) 0.11363(3) 0.18179(4)
V5_6 V 0.5000 0.28807(4) 0.2500
V6_4 V 0.61444(2) 0.28330(4) 0.18206(3)
O1_4 O 0.55039(11) 0.34487(14) 0.22052(15)
O2_4 O 0.52880(9) 0.26580(13) 0.35117(13)
O3_4 O 0.55087(10) 0.05116(14) 0.22034(15)
O4_4 O 0.65240(10) 0.19846(15) 0.16126(15)
O5_4 O 0.52876(9) 0.12897(13) 0.35165(13)
O6_4 O 0.42652(10) 0.12403(15) 0.40779(14)
O7_4 O 0.55043(9) 0.19773(12) 0.22131(13)
O8_4 O 0.42680(11) 0.27281(16) 0.40751(14)
O9_4 O 0.63006(9) 0.12264(14) 0.28983(15)
O10_4 O 0.61641(11) 0.19740(16) 0.42313(16)
O11_4 O 0.62860(9) 0.27336(14) 0.29061(14)
N1_4 N 0.80449(13) 0.23735(18) 0.25620(19)
N3_4 N 0.68762(15) 0.45268(18) 0.3140(2)
O12_4 O 0.65697(12) 0.04970(17) 0.15903(19)
O13_4 O 0.86155(15) 0.3716(2) 0.4629(2)
N4_4 N 0.69096(15) 0.3510(2) 0.46291(19)
O14_4 O 0.50108(13) 0.19875(18) 0.49066(16)
N5_4 N 0.73664(14) 0.48480(18) 0.3335(2)
C1_4 C 0.66314(18) 0.4995(2) 0.2689(3)
H1_4 H 0.6282 0.4911 0.2475
N6_4 N 0.79203(13) 0.33444(18) 0.33225(19)
N7_4 N 0.74209(13) 0.30520(17) 0.3131(2)
C2_4 C 0.75166(16) 0.2481(2) 0.2687(2)
H2_4 H 0.7240 0.2175 0.2475
O15_4 O 0.79987(17) 0.5211(2) 0.4811(2)
N8_4 N 0.73863(14) 0.38416(19) 0.48415(18)
O16_4 O 0.85999(15) 0.4757(2) 0.3382(2)
C3_4 C 0.73761(18) 0.5483(2) 0.2973(3)
H3_4 H 0.7671 0.5820 0.2999
C4_4 C 0.73871(17) 0.3847(2) 0.5601(2)
H4_4 H 0.7673 0.4046 0.5905
O17_4 O 0.58647(14) 0.3874(2) 0.3895(2)
O18_4 O 0.65553(13) 0.34892(17) 0.16037(19)
C5_4 C 0.82800(16) 0.2923(2) 0.2971(2)
H5_4 H 0.8661 0.2997 0.3002
C6_4 C 0.66555(19) 0.3339(3) 0.5269(2)
H6_4 H 0.6312 0.3102 0.5284
N10_2 N 0.8390(3) 0.5939(3) 0.5719(3)
O19_4 O 0.9134(2) 0.1533(4) 0.1943(4)
C7_2 C 0.8396(3) 0.5499(4) 0.5112(4)
H7_4 H 0.8739 0.5395 0.4886
C8_2 C 0.7875(4) 0.6062(5) 0.6185(6)
H8_2 H 0.7571 0.5812 0.5930
H9_2 H 0.7922 0.5860 0.6706
H10_2 H 0.7800 0.6595 0.6218
C9_2 C 0.8872(5) 0.6237(6) 0.6036(6)
H11_2 H 0.9186 0.6040 0.5755
H12_2 H 0.8866 0.6778 0.5991
H13_2 H 0.8899 0.6097 0.6583
Zn9_4 Zn 0.332250(17) 0.34948(2) 0.14919(2)
Zn10_4 Zn 0.203714(18) 0.42922(2) 0.09564(2)
V7_4 V 0.40768(2) 0.19448(3) 0.16317(3)
V8_4 V 0.52313(2) 0.19825(4) 0.09580(3)
V9_4 V 0.38494(2) 0.11363(3) 0.31821(4)
V10_4 V 0.38556(2) 0.28330(4) 0.31794(3)
O20_4 O 0.44961(11) 0.34487(14) 0.27948(15)
O21_4 O 0.47120(9) 0.26580(13) 0.14883(13)
O22_4 O 0.44913(10) 0.05116(14) 0.27966(15)
O23_4 O 0.34760(10) 0.19846(15) 0.33874(15)
O24_4 O 0.47124(9) 0.12897(13) 0.14835(13)
O25_4 O 0.57348(10) 0.12403(15) 0.09221(14)
O26_4 O 0.44957(9) 0.19773(12) 0.27869(13)
O27_4 O 0.57320(11) 0.27281(16) 0.09249(14)
O28_4 O 0.36994(9) 0.12264(14) 0.21017(15)
O29_4 O 0.38359(11) 0.19740(16) 0.07687(16)
O30_4 O 0.37140(9) 0.27336(14) 0.20939(14)
N11_4 N 0.19551(13) 0.23735(18) 0.24380(19)
N15_4 N 0.31238(15) 0.45268(18) 0.1860(2)
O31_4 O 0.34303(12) 0.04970(17) 0.34097(19)
O32_4 O 0.13845(15) 0.3716(2) 0.0371(2)
N16_4 N 0.30904(15) 0.3510(2) 0.03709(19)
O33_4 O 0.49892(13) 0.19875(18) 0.00934(16)
N17_4 N 0.26336(14) 0.48480(18) 0.1665(2)
C10_4 C 0.33686(18) 0.4995(2) 0.2311(3)
H14_4 H 0.3718 0.4911 0.2525
N18_4 N 0.20797(13) 0.33444(18) 0.16775(19)
N19_4 N 0.25791(13) 0.30520(17) 0.1869(2)
C11_4 C 0.24834(16) 0.2481(2) 0.2313(2)
H15_4 H 0.2760 0.2175 0.2525
O34_4 O 0.20013(17) 0.5211(2) 0.0189(2)
N20_4 N 0.26137(14) 0.38416(19) 0.01585(18)
O35_4 O 0.14001(15) 0.4757(2) 0.1618(2)
C12_4 C 0.26239(18) 0.5483(2) 0.2027(3)
H16_4 H 0.2329 0.5820 0.2001
O36_4 O 0.41353(14) 0.3874(2) 0.1105(2)
O37_4 O 0.34447(13) 0.34892(17) 0.33963(19)
C14_4 C 0.17200(16) 0.2923(2) 0.2029(2)
H18_4 H 0.1339 0.2997 0.1998
O38_4 O 0.0866(2) 0.1533(4) 0.3057(4)
H20_4 H 0.1261 0.5395 0.0114
H27_4 H 0.865307 0.320935 0.441111
H28_4 H 0.853292 0.368214 0.518966
H29_4 H 0.925364 0.199344 0.167876
H30_4 H 0.926794 0.109512 0.165235
H31_4 H 0.564694 0.402488 0.343868
H32_4 H 0.590604 0.430301 0.424977
H33_4 H 0.88503 0.503155 0.372831
H34_4 H 0.844686 0.510254 0.299215
H35_4 H 0.134693 0.320935 0.0588891
H37_4 H 0.11497 0.503155 0.127169
H38_4 H 0.155314 0.510254 0.200785
H39_4 H 0.435306 0.402488 0.156132
H40_4 H 0.409396 0.430301 0.0750231
H41_4 H 0.0746359 0.199344 0.332124
H42_4 H 0.073206 0.109512 0.334765
C13_4 C 0.26129(17) 0.3847(2) 0.9399(2)
H17_4 H 0.2327 0.4046 0.9095
C15_4 C 0.33445(19) 0.3339(3) 0.9731(2)
H19_4 H 0.3688 0.3102 0.9716
N24_4 N 0.1610(3) 0.5939(3) 0.9281(3)
C16_4 C 0.1604(3) 0.5499(4) 0.9888(4)
C17_4 C 0.2125(4) 0.6062(5) 0.8815(6)
H21_4 H 0.2429 0.5812 0.9070
H22_4 H 0.2078 0.5860 0.8294
H23_4 H 0.2200 0.6595 0.8782
C18_4 C 0.1128(5) 0.6237(6) 0.8964(6)
H24_4 H 0.0814 0.6040 0.9245
H25_4 H 0.1134 0.6778 0.9009
H26_4 H 0.1101 0.6097 0.8417
H36_4 H 0.146708 0.368214 0.981034
N10_3 N 0.3390(3) 0.0939(3) 0.9281(3)
C7_3 C 0.3396(3) 0.0499(4) 0.9888(4)
C8_3 C 0.2875(4) 0.1062(5) 0.8815(6)
H8_3 H 0.2571 0.0812 0.9070
H9_3 H 0.2922 0.0860 0.8294
H10_3 H 0.2800 0.1595 0.8782
C9_3 C 0.3872(5) 0.1237(6) 0.8964(6)
H11_3 H 0.4186 0.1040 0.9245
H12_3 H 0.3866 0.1778 0.9009
H13_3 H 0.3899 0.1097 0.8417
N10_4 N 0.6610(3) 0.9061(3) 0.0719(3)
C7_4 C 0.6604(3) 0.9501(4) 0.0112(4)
C8_4 C 0.7125(4) 0.8938(5) 0.1185(6)
H8_4 H 0.7429 0.9188 0.0930
H9_4 H 0.7078 0.9140 0.1706
H10_4 H 0.7200 0.8405 0.1218
C9_4 C 0.6128(5) 0.8763(6) 0.1036(6)
H11_4 H 0.5814 0.8960 0.0755
H12_4 H 0.6134 0.8222 0.0991
H13_4 H 0.6101 0.8903 0.1583
loop_
_geom_bond_atom_site_label_1
_geom_bond_atom_site_label_2
_geom_bond_site_symmetry_1
_geom_bond_site_symmetry_2
C3 N2 1_555 1_555
H3 C3 1_555 1_555
Zn5 N2 1_555 1_555
Zn1 N1 1_555 1_555
Zn2 O11 1_555 1_555
Zn3 O13 1_555 1_555
V1 O2 1_555 1_555
V3 O3 1_555 1_555
V4 O3 1_555 1_555
V5 O1 1_555 1_555
V6 O1 1_555 1_555
O2 V5 1_555 1_555
O4 V4 1_555 1_555
O5 V1 1_555 1_555
O7 V1 1_555 1_555
O9 V1 1_555 1_555
O10 V1 1_555 1_555
O11 V1 1_555 1_555
N1 C2 1_555 1_555
N3 Zn2 1_555 1_555
O12 V4 1_555 1_555
N4 Zn2 1_555 1_555
N5 Zn3 1_555 1_555
C1 N3 1_555 1_555
H1 C1 1_555 1_555
N6 Zn3 1_555 1_555
N7 Zn2 1_555 1_555
C2 N7 1_555 1_555
H2 C2 1_555 1_555
N8 Zn3 1_555 1_555
O16 Zn3 1_555 1_555
O17 Zn2 1_555 1_555
O18 V6 1_555 1_555
C5 N1 1_555 1_555
H5 C5 1_555 1_555
O19 Zn1 1_555 1_555
V8 O7 1_555 1_555
O25 V4 1_555 1_555
O27 V6 1_555 1_555
N13 Zn1 1_555 1_555
N22 Zn1 1_555 1_555
V3 O5 1_555 1_555
V3 O7 1_555 1_555
V4 O7 1_555 1_555
V4 O9 1_555 1_555
V5 O7 1_555 1_555
V6 O4 1_555 1_555
V6 O7 1_555 1_555
V6 O11 1_555 1_555
N3 N5 1_555 1_555
N4 N8 1_555 1_555
N6 N7 1_555 1_555
N6 C5 1_555 1_555
V8 O25 1_555 1_555
V8 O27 1_555 1_555
O13 H27 1_555 1_555
O19 H29 1_555 1_555
O19 H30 1_555 1_555
O17 H31 1_555 1_555
O17 H32 1_555 1_555
N9 C4 1_555 1_555
H4 C4 1_555 1_555
H6 C6 1_555 1_555
Zn6 N9 1_555 1_555
N9 C6 1_555 1_555
Zn7 N12 1_555 1_555
C12 N12 1_555 1_555
H16 C12 1_555 1_555
N24 C16 1_555 1_555
C16 O34 1_555 1_555
H20 C16 1_555 1_555
C17 N24 1_555 1_555
H21 C17 1_555 1_555
H22 C17 1_555 1_555
H23 C17 1_555 1_555
C18 N24 1_555 1_555
H24 C18 1_555 1_555
H25 C18 1_555 1_555
H26 C18 1_555 1_555
O6 V2 1_555 1_555
O8 V2 1_555 1_555
Zn4 N11 1_555 1_555
Zn8 N21 1_555 1_555
Zn9 O30 1_555 1_555
Zn10 O32 1_555 1_555
V7 O21 1_555 1_555
V9 O6 1_555 1_555
V10 O8 1_555 1_555
O20 V5_2 1_555 1_555
O21 V5_2 1_555 1_555
O22 V3_2 1_555 1_555
O23 V9 1_555 1_555
O24 V3_2 1_555 1_555
O26 V2 1_555 1_555
O28 V7 1_555 1_555
O29 V7 1_555 1_555
O30 V7 1_555 1_555
N11 C11 1_555 1_555
N14 Zn4 1_555 1_555
N15 Zn9 1_555 1_555
O31 V9 1_555 1_555
N16 Zn9 1_555 1_555
N17 Zn10 1_555 1_555
C10 N15 1_555 1_555
H14 C10 1_555 1_555
N18 Zn10 1_555 1_555
N19 Zn9 1_555 1_555
C11 N19 1_555 1_555
H15 C11 1_555 1_555
N20 Zn10 1_555 1_555
N21 C13 1_555 1_555
N23 Zn4 1_555 1_555
O35 Zn10 1_555 1_555
C13 N20 1_555 1_555
H17 C13 1_555 1_555
O36 Zn9 1_555 1_555
O37 V10 1_555 1_555
C14 N11 1_555 1_555
H18 C14 1_555 1_555
C15 N16 1_555 1_555
H19 C15 1_555 1_555
O38 Zn4 1_555 1_555
V3_2 O26 1_555 1_555
V5_2 O26 1_555 1_555
V7 O24 1_555 1_555
V7 O26 1_555 1_555
V9 O22 1_555 1_555
V9 O26 1_555 1_555
V9 O28 1_555 1_555
V10 O20 1_555 1_555
V10 O23 1_555 1_555
V10 O26 1_555 1_555
V10 O30 1_555 1_555
N15 N17 1_555 1_555
N16 N20 1_555 1_555
N18 N19 1_555 1_555
N18 C14 1_555 1_555
N21 C15 1_555 1_555
O32 H35 1_555 1_555
O32 H36 1_555 1_555
O36 H39 1_555 1_555
O36 H40 1_555 1_555
O38 H41 1_555 1_555
O38 H42 1_555 1_555
N23 C13_2 1_555 1_555
H17_2 C13_2 1_555 1_555
H19_2 C15_2 1_555 1_555
N24_2 C16_2 1_555 1_555
C17_2 N24_2 1_555 1_555
H21_2 C17_2 1_555 1_555
H22_2 C17_2 1_555 1_555
H23_2 C17_2 1_555 1_555
C18_2 N24_2 1_555 1_555
H24_2 C18_2 1_555 1_555
H25_2 C18_2 1_555 1_555
H26_2 C18_2 1_555 1_555
N23 C15_2 1_555 1_555
Zn6 N1_2 1_555 1_555
Zn2_2 O11_2 1_555 1_555
Zn3_2 O13_2 1_555 1_555
V1_2 O2_2 1_555 1_555
V2_2 O2_2 1_555 1_555
V3_3 O3_2 1_555 1_555
V4_2 O3_2 1_555 1_555
V5_3 O1_2 1_555 1_555
V6_2 O1_2 1_555 1_555
O2_2 V5_3 1_555 1_555
O4_2 V4_2 1_555 1_555
O5_2 V1_2 1_555 1_555
O6_2 V2_2 1_555 1_555
O7_2 V1_2 1_555 1_555
O8_2 V2_2 1_555 1_555
O9_2 V1_2 1_555 1_555
O10_2 V1_2 1_555 1_555
O11_2 V1_2 1_555 1_555
N1_2 C2_2 1_555 1_555
N2_2 C1_2 1_555 1_555
N3_2 Zn2_2 1_555 1_555
O12_2 V4_2 1_555 1_555
N4_2 Zn2_2 1_555 1_555
O14_2 V2_2 1_555 1_555
N5_2 Zn3_2 1_555 1_555
C1_2 N3_2 1_555 1_555
H1_2 C1_2 1_555 1_555
N6_2 Zn3_2 1_555 1_555
N7_2 Zn2_2 1_555 1_555
C2_2 N7_2 1_555 1_555
H2_2 C2_2 1_555 1_555
O15_2 Zn3_2 1_555 1_555
N8_2 Zn3_2 1_555 1_555
N22 C4_2 1_555 1_555
O16_2 Zn3_2 1_555 1_555
C3_2 N2_2 1_555 1_555
H3_2 C3_2 1_555 1_555
C4_2 N8_2 1_555 1_555
H4_2 C4_2 1_555 1_555
O17_2 Zn2_2 1_555 1_555
O18_2 V6_2 1_555 1_555
C5_2 N1_2 1_555 1_555
H5_2 C5_2 1_555 1_555
C6_2 N4_2 1_555 1_555
H6_2 C6_2 1_555 1_555
N10 C7 1_555 1_555
O19_2 Zn6 1_555 1_555
C7 O15_2 1_555 1_555
H7_2 C7 1_555 1_555
C8 N10 1_555 1_555
H8 C8 1_555 1_555
H9 C8 1_555 1_555
H10 C8 1_555 1_555
C9 N10 1_555 1_555
H11 C9 1_555 1_555
H12 C9 1_555 1_555
H13 C9 1_555 1_555
Zn8 N11_2 1_555 1_555
Zn5_2 N2_2 1_555 1_555
Zn7_2 N12_2 1_555 1_555
Zn9_2 O30_2 1_555 1_555
Zn10_2 O32_2 1_555 1_555
V7_2 O21_2 1_555 1_555
V8_2 O7_2 1_555 1_555
V9_2 O6_2 1_555 1_555
V10_2 O8_2 1_555 1_555
O20_2 V5_3 1_555 1_555
O21_2 V5_3 1_555 1_555
O22_2 V3_3 1_555 1_555
O23_2 V9_2 1_555 1_555
O24_2 V3_3 1_555 1_555
O25_2 V4_2 1_555 1_555
O26_2 V2_2 1_555 1_555
O27_2 V6_2 1_555 1_555
O28_2 V7_2 1_555 1_555
O29_2 V7_2 1_555 1_555
O30_2 V7_2 1_555 1_555
N11_2 C11_2 1_555 1_555
N12_2 C10_2 1_555 1_555
N13_2 Zn6 1_555 1_555
N14_2 Zn8 1_555 1_555
N15_2 Zn9_2 1_555 1_555
O31_2 V9_2 1_555 1_555
N16_2 Zn9_2 1_555 1_555
O33_2 V8_2 1_555 1_555
N17_2 Zn10_2 1_555 1_555
C10_2 N15_2 1_555 1_555
H14_2 C10_2 1_555 1_555
N18_2 Zn10_2 1_555 1_555
N19_2 Zn9_2 1_555 1_555
C11_2 N19_2 1_555 1_555
H15_2 C11_2 1_555 1_555
O34_2 Zn10_2 1_555 1_555
N20_2 Zn10_2 1_555 1_555
O35_2 Zn10_2 1_555 1_555
C12_2 N12_2 1_555 1_555
H16_2 C12_2 1_555 1_555
O36_2 Zn9_2 1_555 1_555
O37_2 V10_2 1_555 1_555
C14_2 N11_2 1_555 1_555
H18_2 C14_2 1_555 1_555
O38_2 Zn8 1_555 1_555
V2_2 O5_2 1_555 1_555
V3_3 O5_2 1_555 1_555
V3_3 O7_2 1_555 1_555
V3_3 O26_2 1_555 1_555
V4_2 O7_2 1_555 1_555
V4_2 O9_2 1_555 1_555
V5_3 O7_2 1_555 1_555
V5_3 O26_2 1_555 1_555
V6_2 O4_2 1_555 1_555
V6_2 O7_2 1_555 1_555
V6_2 O11_2 1_555 1_555
N3_2 N5_2 1_555 1_555
N4_2 N8_2 1_555 1_555
N5_2 C3_2 1_555 1_555
N6_2 N7_2 1_555 1_555
N6_2 C5_2 1_555 1_555
N22 C6_2 1_555 1_555
V7_2 O24_2 1_555 1_555
V7_2 O26_2 1_555 1_555
V8_2 O21_2 1_555 1_555
V8_2 O24_2 1_555 1_555
V8_2 O25_2 1_555 1_555
V8_2 O27_2 1_555 1_555
V9_2 O22_2 1_555 1_555
V9_2 O26_2 1_555 1_555
V9_2 O28_2 1_555 1_555
V10_2 O20_2 1_555 1_555
V10_2 O23_2 1_555 1_555
V10_2 O26_2 1_555 1_555
V10_2 O30_2 1_555 1_555
N15_2 N17_2 1_555 1_555
N16_2 N20_2 1_555 1_555
N17_2 C12_2 1_555 1_555
N18_2 N19_2 1_555 1_555
N18_2 C14_2 1_555 1_555
O13_2 H27_2 1_555 1_555
O13_2 H28_2 1_555 1_555
O19_2 H29_2 1_555 1_555
O19_2 H30_2 1_555 1_555
O17_2 H31_2 1_555 1_555
O17_2 H32_2 1_555 1_555
O16_2 H33_2 1_555 1_555
O16_2 H34_2 1_555 1_555
O32_2 H35_2 1_555 1_555
O35_2 H37_2 1_555 1_555
O35_2 H38_2 1_555 1_555
O36_2 H39_2 1_555 1_555
O36_2 H40_2 1_555 1_555
O38_2 H41_2 1_555 1_555
O38_2 H42_2 1_555 1_555
O6_3 V2_3 1_555 1_555
O8_3 V2_3 1_555 1_555
Zn5_2 N11_3 1_555 1_555
Zn5 N21_2 1_555 1_555
Zn9_3 O30_3 1_555 1_555
Zn10_3 O32_3 1_555 1_555
V7_3 O21_3 1_555 1_555
V9_3 O6_3 1_555 1_555
V10_3 O8_3 1_555 1_555
O20_3 V5_4 1_555 1_555
O21_3 V5_4 1_555 1_555
O22_3 V3_4 1_555 1_555
O23_3 V9_3 1_555 1_555
O24_3 V3_4 1_555 1_555
O26_3 V2_3 1_555 1_555
O28_3 V7_3 1_555 1_555
O29_3 V7_3 1_555 1_555
O30_3 V7_3 1_555 1_555
N11_3 C11_3 1_555 1_555
N15_3 Zn9_3 1_555 1_555
O31_3 V9_3 1_555 1_555
N16_3 Zn9_3 1_555 1_555
N17_3 Zn10_3 1_555 1_555
C10_3 N15_3 1_555 1_555
H14_3 C10_3 1_555 1_555
N18_3 Zn10_3 1_555 1_555
N19_3 Zn9_3 1_555 1_555
C11_3 N19_3 1_555 1_555
H15_3 C11_3 1_555 1_555
N20_3 Zn10_3 1_555 1_555
N21_2 C13_3 1_555 1_555
N23_2 Zn5_2 1_555 1_555
O35_3 Zn10_3 1_555 1_555
C13_3 N20_3 1_555 1_555
H17_3 C13_3 1_555 1_555
O36_3 Zn9_3 1_555 1_555
O37_3 V10_3 1_555 1_555
C14_3 N11_3 1_555 1_555
H18_3 C14_3 1_555 1_555
C15_3 N16_3 1_555 1_555
H19_3 C15_3 1_555 1_555
O38_3 Zn5_2 1_555 1_555
V3_4 O26_3 1_555 1_555
V5_4 O26_3 1_555 1_555
V7_3 O24_3 1_555 1_555
V7_3 O26_3 1_555 1_555
V9_3 O22_3 1_555 1_555
V9_3 O26_3 1_555 1_555
V9_3 O28_3 1_555 1_555
V10_3 O20_3 1_555 1_555
V10_3 O23_3 1_555 1_555
V10_3 O26_3 1_555 1_555
V10_3 O30_3 1_555 1_555
N15_3 N17_3 1_555 1_555
N16_3 N20_3 1_555 1_555
N18_3 N19_3 1_555 1_555
N18_3 C14_3 1_555 1_555
N21_2 C15_3 1_555 1_555
O32_3 H35_3 1_555 1_555
O32_3 H36_3 1_555 1_555
O36_3 H39_3 1_555 1_555
O36_3 H40_3 1_555 1_555
O38_3 H41_3 1_555 1_555
O38_3 H42_3 1_555 1_555
C12_3 N13_2 1_555 1_555
H16_3 C12_3 1_555 1_555
N24_3 C16_3 1_555 1_555
C16_3 O34_3 1_555 1_555
H20_3 C16_3 1_555 1_555
C17_3 N24_3 1_555 1_555
H21_3 C17_3 1_555 1_555
H22_3 C17_3 1_555 1_555
H23_3 C17_3 1_555 1_555
C18_3 N24_3 1_555 1_555
H24_3 C18_3 1_555 1_555
H25_3 C18_3 1_555 1_555
H26_3 C18_3 1_555 1_555
N9_2 C4_3 1_555 1_555
H4_3 C4_3 1_555 1_555
H6_3 C6_3 1_555 1_555
Zn7 N9_2 1_555 1_555
N9_2 C6_3 1_555 1_555
Zn7_2 N1_3 1_555 1_555
Zn2_3 O11_3 1_555 1_555
Zn3_3 O13_3 1_555 1_555
V1_3 O2_3 1_555 1_555
V3_5 O3_3 1_555 1_555
V4_3 O3_3 1_555 1_555
V5_5 O1_3 1_555 1_555
V6_3 O1_3 1_555 1_555
O2_3 V5_5 1_555 1_555
O4_3 V4_3 1_555 1_555
O5_3 V1_3 1_555 1_555
O7_3 V1_3 1_555 1_555
O9_3 V1_3 1_555 1_555
O10_3 V1_3 1_555 1_555
O11_3 V1_3 1_555 1_555
N1_3 C2_3 1_555 1_555
N3_3 Zn2_3 1_555 1_555
O12_3 V4_3 1_555 1_555
N4_3 Zn2_3 1_555 1_555
N5_3 Zn3_3 1_555 1_555
C1_3 N3_3 1_555 1_555
H1_3 C1_3 1_555 1_555
N6_3 Zn3_3 1_555 1_555
N7_3 Zn2_3 1_555 1_555
C2_3 N7_3 1_555 1_555
H2_3 C2_3 1_555 1_555
N8_3 Zn3_3 1_555 1_555
O16_3 Zn3_3 1_555 1_555
O17_3 Zn2_3 1_555 1_555
O18_3 V6_3 1_555 1_555
C5_3 N1_3 1_555 1_555
H5_3 C5_3 1_555 1_555
O19_3 Zn7_2 1_555 1_555
V8_3 O7_3 1_555 1_555
O25_3 V4_3 1_555 1_555
O27_3 V6_3 1_555 1_555
N22_2 Zn7_2 1_555 1_555
V3_5 O5_3 1_555 1_555
V3_5 O7_3 1_555 1_555
V4_3 O7_3 1_555 1_555
V4_3 O9_3 1_555 1_555
V5_5 O7_3 1_555 1_555
V6_3 O4_3 1_555 1_555
V6_3 O7_3 1_555 1_555
V6_3 O11_3 1_555 1_555
N3_3 N5_3 1_555 1_555
N4_3 N8_3 1_555 1_555
N6_3 N7_3 1_555 1_555
N6_3 C5_3 1_555 1_555
V8_3 O25_3 1_555 1_555
V8_3 O27_3 1_555 1_555
O13_3 H27_3 1_555 1_555
O19_3 H29_3 1_555 1_555
O19_3 H30_3 1_555 1_555
O17_3 H31_3 1_555 1_555
O17_3 H32_3 1_555 1_555
C3_3 N14_2 1_555 1_555
H3_3 C3_3 1_555 1_555
Zn7 N1_4 1_555 1_555
Zn2_4 O11_4 1_555 1_555
Zn3_4 O13_4 1_555 1_555
V1_4 O2_4 1_555 1_555
V2_4 O2_4 1_555 1_555
V3_6 O3_4 1_555 1_555
V4_4 O3_4 1_555 1_555
V5_6 O1_4 1_555 1_555
V6_4 O1_4 1_555 1_555
O2_4 V5_6 1_555 1_555
O4_4 V4_4 1_555 1_555
O5_4 V1_4 1_555 1_555
O6_4 V2_4 1_555 1_555
O7_4 V1_4 1_555 1_555
O8_4 V2_4 1_555 1_555
O9_4 V1_4 1_555 1_555
O10_4 V1_4 1_555 1_555
O11_4 V1_4 1_555 1_555
N1_4 C2_4 1_555 1_555
N14 C1_4 1_555 1_555
N3_4 Zn2_4 1_555 1_555
O12_4 V4_4 1_555 1_555
N4_4 Zn2_4 1_555 1_555
O14_4 V2_4 1_555 1_555
N5_4 Zn3_4 1_555 1_555
C1_4 N3_4 1_555 1_555
H1_4 C1_4 1_555 1_555
N6_4 Zn3_4 1_555 1_555
N7_4 Zn2_4 1_555 1_555
C2_4 N7_4 1_555 1_555
H2_4 C2_4 1_555 1_555
O15_4 Zn3_4 1_555 1_555
N8_4 Zn3_4 1_555 1_555
N22_2 C4_4 1_555 1_555
O16_4 Zn3_4 1_555 1_555
C3_4 N14 1_555 1_555
H3_4 C3_4 1_555 1_555
C4_4 N8_4 1_555 1_555
H4_4 C4_4 1_555 1_555
O17_4 Zn2_4 1_555 1_555
O18_4 V6_4 1_555 1_555
C5_4 N1_4 1_555 1_555
H5_4 C5_4 1_555 1_555
C6_4 N4_4 1_555 1_555
H6_4 C6_4 1_555 1_555
N10_2 C7_2 1_555 1_555
O19_4 Zn7 1_555 1_555
C7_2 O15_4 1_555 1_555
H7_4 C7_2 1_555 1_555
C8_2 N10_2 1_555 1_555
H8_2 C8_2 1_555 1_555
H9_2 C8_2 1_555 1_555
H10_2 C8_2 1_555 1_555
C9_2 N10_2 1_555 1_555
H11_2 C9_2 1_555 1_555
H12_2 C9_2 1_555 1_555
H13_2 C9_2 1_555 1_555
Zn5 N11_4 1_555 1_555
Zn9_4 O30_4 1_555 1_555
Zn10_4 O32_4 1_555 1_555
V7_4 O21_4 1_555 1_555
V8_4 O7_4 1_555 1_555
V9_4 O6_4 1_555 1_555
V10_4 O8_4 1_555 1_555
O20_4 V5_6 1_555 1_555
O21_4 V5_6 1_555 1_555
O22_4 V3_6 1_555 1_555
O23_4 V9_4 1_555 1_555
O24_4 V3_6 1_555 1_555
O25_4 V4_4 1_555 1_555
O26_4 V2_4 1_555 1_555
O27_4 V6_4 1_555 1_555
O28_4 V7_4 1_555 1_555
O29_4 V7_4 1_555 1_555
O30_4 V7_4 1_555 1_555
N11_4 C11_4 1_555 1_555
N13 C10_4 1_555 1_555
N15_4 Zn9_4 1_555 1_555
O31_4 V9_4 1_555 1_555
N16_4 Zn9_4 1_555 1_555
O33_4 V8_4 1_555 1_555
N17_4 Zn10_4 1_555 1_555
C10_4 N15_4 1_555 1_555
H14_4 C10_4 1_555 1_555
N18_4 Zn10_4 1_555 1_555
N19_4 Zn9_4 1_555 1_555
C11_4 N19_4 1_555 1_555
H15_4 C11_4 1_555 1_555
O34_4 Zn10_4 1_555 1_555
N20_4 Zn10_4 1_555 1_555
O35_4 Zn10_4 1_555 1_555
C12_4 N13 1_555 1_555
H16_4 C12_4 1_555 1_555
O36_4 Zn9_4 1_555 1_555
O37_4 V10_4 1_555 1_555
C14_4 N11_4 1_555 1_555
H18_4 C14_4 1_555 1_555
O38_4 Zn5 1_555 1_555
V2_4 O5_4 1_555 1_555
V3_6 O5_4 1_555 1_555
V3_6 O7_4 1_555 1_555
V3_6 O26_4 1_555 1_555
V4_4 O7_4 1_555 1_555
V4_4 O9_4 1_555 1_555
V5_6 O7_4 1_555 1_555
V5_6 O26_4 1_555 1_555
V6_4 O4_4 1_555 1_555
V6_4 O7_4 1_555 1_555
V6_4 O11_4 1_555 1_555
N3_4 N5_4 1_555 1_555
N4_4 N8_4 1_555 1_555
N5_4 C3_4 1_555 1_555
N6_4 N7_4 1_555 1_555
N6_4 C5_4 1_555 1_555
N22_2 C6_4 1_555 1_555
V7_4 O24_4 1_555 1_555
V7_4 O26_4 1_555 1_555
V8_4 O21_4 1_555 1_555
V8_4 O24_4 1_555 1_555
V8_4 O25_4 1_555 1_555
V8_4 O27_4 1_555 1_555
V9_4 O22_4 1_555 1_555
V9_4 O26_4 1_555 1_555
V9_4 O28_4 1_555 1_555
V10_4 O20_4 1_555 1_555
V10_4 O23_4 1_555 1_555
V10_4 O26_4 1_555 1_555
V10_4 O30_4 1_555 1_555
N15_4 N17_4 1_555 1_555
N16_4 N20_4 1_555 1_555
N17_4 C12_4 1_555 1_555
N18_4 N19_4 1_555 1_555
N18_4 C14_4 1_555 1_555
O13_4 H27_4 1_555 1_555
O13_4 H28_4 1_555 1_555
O19_4 H29_4 1_555 1_555
O19_4 H30_4 1_555 1_555
O17_4 H31_4 1_555 1_555
O17_4 H32_4 1_555 1_555
O16_4 H33_4 1_555 1_555
O16_4 H34_4 1_555 1_555
O32_4 H35_4 1_555 1_555
O35_4 H37_4 1_555 1_555
O35_4 H38_4 1_555 1_555
O36_4 H39_4 1_555 1_555
O36_4 H40_4 1_555 1_555
O38_4 H41_4 1_555 1_555
O38_4 H42_4 1_555 1_555
N23_2 C13_4 1_555 1_555
H17_4 C13_4 1_555 1_555
H19_4 C15_4 1_555 1_555
N24_4 C16_4 1_555 1_555
C17_4 N24_4 1_555 1_555
H21_4 C17_4 1_555 1_555
H22_4 C17_4 1_555 1_555
H23_4 C17_4 1_555 1_555
C18_4 N24_4 1_555 1_555
H24_4 C18_4 1_555 1_555
H25_4 C18_4 1_555 1_555
H26_4 C18_4 1_555 1_555
N23_2 C15_4 1_555 1_555
N10_3 C7_3 1_555 1_555
C8_3 N10_3 1_555 1_555
H8_3 C8_3 1_555 1_555
H9_3 C8_3 1_555 1_555
H10_3 C8_3 1_555 1_555
C9_3 N10_3 1_555 1_555
H11_3 C9_3 1_555 1_555
H12_3 C9_3 1_555 1_555
H13_3 C9_3 1_555 1_555
N10_4 C7_4 1_555 1_555
C8_4 N10_4 1_555 1_555
H8_4 C8_4 1_555 1_555
H9_4 C8_4 1_555 1_555
H10_4 C8_4 1_555 1_555
C9_4 N10_4 1_555 1_555
H11_4 C9_4 1_555 1_555
H12_4 C9_4 1_555 1_555
H13_4 C9_4 1_555 1_555

#END
