
###############################################################################
#
# This file contains modified crystal structure data generated from the
# MOF subset of the Cambridge Structural Database (CSD) v543 
# hosted by the Cambridge Crystallographic Data Centre (CCDC).
#
# This work is licensed under the Creative Commons
# Attribution-NonCommercial-ShareAlike 4.0 International License.
# To view a copy of this license, visit
# http://creativecommons.org/licenses/by-nc-sa/4.0/
# or send a letter to
# Creative Commons, PO Box 1866, Mountain View, CA 94042, USA.
#
# CIF created using the CSD Python API on 29 September 2022
# The structure has been converted into the P1 space group
# The structure has a 3D framework
# The original CSD entry NEHGOZ is in the monoclinic crystal system
# The original CSD entry NEHGOZ is in a Sohncke space group
# The framework has been calculated to contain at least 10.0% void space
# The void calculation uses a probe of radius 1.32A, grid spacing 0.4
# The framework is charged, counterions have been retained in the structure
#
###############################################################################

data_NEHGOZ
_chemical_formula_moiety         '(C96 H76 Co2 F12 N12 O24 S4 2-)n'
_symmetry_cell_setting           triclinic
_symmetry_space_group_name_H-M   'P 1'
_symmetry_Int_Tables_number      1
_space_group_name_Hall           'P 1'
loop_
_symmetry_equiv_pos_site_id
_symmetry_equiv_pos_as_xyz
1 x,y,z
_cell_length_a                   10.2658(3)
_cell_length_b                   25.4119(6)
_cell_length_c                   11.4166(3)
_cell_angle_alpha                90
_cell_angle_beta                 91.5623(14)
_cell_angle_gamma                90
_cell_volume                     2977.18
loop_
_atom_site_label
_atom_site_type_symbol
_atom_site_fract_x
_atom_site_fract_y
_atom_site_fract_z
H1 H 0.026(3) 0.4462(17) 0.098(3)
Co1 Co 0.44444(7) 0.44185(3) 0.00452(6)
O1 O 0.7584(3) 0.39170(12) 0.0003(3)
O2 O 0.2588(3) 0.40942(12) 0.0040(3)
O3 O 0.9766(3) 0.44387(13) 0.0351(3)
O4 O 0.1383(3) 0.33628(12) 0.0179(3)
O5 O 0.6356(3) 0.46422(12) 0.0013(3)
O6 O 0.4807(3) 0.35810(13) 0.0086(3)
N5 N 0.3728(4) 0.52063(15) 0.0040(3)
C10 C 0.7433(4) 0.44042(19) 0.0065(4)
C11 C 0.2453(4) 0.35992(19) 0.0149(3)
C15 C 0.1130(5) 0.69224(19) 0.0540(4)
H12 H 0.0645 0.6659 0.0929
C18 C 0.3675(4) 0.32560(18) 0.0237(4)
C25 C 0.3041(5) 0.25105(19) 0.1569(4)
H21 H 0.2495 0.2377 0.0953
C26 C 0.2297(5) 0.67905(17) 0.0019(4)
C27 C 0.3107(6) 0.2254(2) 0.2633(5)
H22 H 0.2610 0.1943 0.2735
C30 C 0.2800(5) 0.62448(19) 0.0044(4)
C31 C 0.4543(5) 0.56220(19) 0.0051(5)
H25 H 0.5454 0.5557 0.0054
C32 C 0.8617(5) 0.47605(18) 0.0262(4)
H26 H 0.8520 0.4951 0.1022
C33 C 0.4124(5) 0.61339(19) 0.0058(4)
H27 H 0.4740 0.6413 0.0072
C34 C 0.3772(4) 0.29631(17) 0.1392(4)
C35 C 0.2448(5) 0.53121(19) 0.0034(4)
H28 H 0.1851 0.5027 0.0024
C36 C 0.3874(5) 0.2439(2) 0.3550(5)
H29 H 0.3901 0.2261 0.4282
C37 C 0.1967(5) 0.58154(19) 0.0042(4)
H30 H 0.1052 0.5871 0.0045
C38 C 0.0674(5) 0.74319(18) 0.0494(4)
C40 C 0.4555(5) 0.31445(19) 0.2324(4)
H33 H 0.5066 0.3452 0.2228
H34 H 0.8179 0.5797 0.0256
C43 C 0.4596(5) 0.2882(2) 0.3387(4)
H35 H 0.5135 0.3013 0.4012
Co5 Co 0.94713(7) 0.35974(3) 0.01296(6)
N8 N 0.4503(4) 0.44737(16) 0.1939(3)
H2 H 0.530(3) 0.3502(16) 0.949(3)
N3 N 0.4418(4) 0.44380(16) 0.8155(3)
N6 N 0.1310(4) 0.78214(15) 0.9952(3)
C2 C 0.0614(5) 0.37391(19) 0.6454(4)
H3 H 0.1373 0.3851 0.6067
C4 C 0.5604(5) 0.45589(19) 0.2595(4)
H5 H 0.6399 0.4610 0.2204
C5 C 0.5624(5) 0.45751(19) 0.3804(4)
H6 H 0.6422 0.4631 0.4226
C7 C 0.3327(5) 0.4448(2) 0.3731(4)
H8 H 0.2512 0.4419 0.4099
C8 C 0.4479(5) 0.45092(19) 0.4402(4)
C12 C 0.0587(5) 0.37487(19) 0.7652(4)
H9 H 0.1341 0.3866 0.8076
C14 C 0.0575(5) 0.3467(2) 0.2676(4)
H11 H 0.1354 0.3402 0.2270
C16 C 0.3398(5) 0.46238(19) 0.7518(4)
H13 H 0.2649 0.4735 0.7922
C17 C 0.5462(5) 0.42864(19) 0.7562(4)
H14 H 0.6198 0.4155 0.7992
H15 H 0.3632 0.2992 0.9589
C19 C 0.2444(5) 0.76946(18) 0.9468(4)
H16 H 0.2917 0.7966 0.9096
C20 C 0.4455(5) 0.45015(19) 0.5695(4)
C21 C 0.3374(5) 0.46624(19) 0.6311(4)
H17 H 0.2626 0.4798 0.5905
C22 C 0.3397(5) 0.4430(2) 0.2522(4)
H18 H 0.2609 0.4384 0.2079
C24 C 0.5521(5) 0.4312(2) 0.6346(4)
H20 H 0.6283 0.4201 0.5963
C28 C 0.0646(5) 0.34658(19) 0.3887(4)
H23 H 0.1456 0.3410 0.4290
C29 C 0.2962(5) 0.71963(18) 0.9479(4)
H24 H 0.3769 0.7129 0.9119
C39 C 0.9325(6) 0.5389(2) 0.7320(5)
H32 H 0.9610 0.5285 0.6569
C41 C 0.8751(4) 0.51642(17) 0.9297(4)
C42 C 0.8482(5) 0.56910(19) 0.9513(5)
C44 C 0.9159(5) 0.5019(2) 0.8200(5)
H36 H 0.9328 0.4659 0.8043
C45 C 0.8659(6) 0.6064(2) 0.8630(6)
H37 H 0.8492 0.6425 0.8781
C46 C 0.9069(6) 0.5913(2) 0.7559(6)
H38 H 0.9180 0.6170 0.6966
Co6 Co 0.05287(7) 0.85974(3) 0.98704(6)
H31 H 0.9878 0.7512 0.0861
N7 N 0.9488(4) 0.35516(16) 0.2040(3)
N9 N 0.8690(4) 0.28214(15) 0.0048(3)
N2 N 0.9542(4) 0.35998(16) 0.8256(3)
C1 C 0.9529(4) 0.3565(2) 0.5801(4)
C3 C 0.8393(5) 0.3629(2) 0.2641(4)
H4 H 0.7601 0.3691 0.2213
C6 C 0.8366(5) 0.36227(19) 0.3848(4)
H7 H 0.7563 0.3670 0.4229
C9 C 0.9508(5) 0.35476(19) 0.4509(4)
C13 C 0.8449(5) 0.33992(18) 0.6433(4)
H10 H 0.7691 0.3271 0.6032
C23 C 0.8496(5) 0.34242(17) 0.7635(4)
H19 H 0.7755 0.3312 0.8048
N1 N 0.0512(4) 0.85516(16) 0.7960(3)
N2_2 N 0.0458(4) 0.85998(16) 0.1744(3)
C1_2 C 0.0471(4) 0.8565(2) 0.4199(4)
C3_2 C 0.1607(5) 0.8629(2) 0.7359(4)
H4_2 H 0.2399 0.8691 0.7787
C6_2 C 0.1634(5) 0.86227(19) 0.6152(4)
H7_2 H 0.2437 0.8670 0.5771
C9_2 C 0.0492(5) 0.85476(19) 0.5491(4)
C13_2 C 0.1551(5) 0.83992(18) 0.3567(4)
H10_2 H 0.2309 0.8271 0.3968
C23_2 C 0.1504(5) 0.84242(17) 0.2365(4)
H19_2 H 0.2245 0.8312 0.1952
O7 O 0.2416(3) 0.89170(12) 0.9997(3)
O8 O 0.0234(3) 0.94387(13) 0.9649(3)
C19_2 C 0.7556(5) 0.26946(18) 0.0532(4)
H16_2 H 0.7083 0.2966 0.0904
C29_2 C 0.7038(5) 0.21963(18) 0.0521(4)
H24_2 H 0.6231 0.2129 0.0881
C39_2 C 0.0675(6) 0.0389(2) 0.2680(5)
H32_2 H 0.0390 0.0285 0.3431
C41_2 C 0.1249(4) 0.01642(17) 0.0703(4)
C42_2 C 0.1518(5) 0.06910(19) 0.0487(5)
C44_2 C 0.0841(5) 0.0019(2) 0.1800(5)
C45_2 C 0.1341(6) 0.1064(2) 0.1370(6)
H37_2 H 0.1508 0.1425 0.1219
C46_2 C 0.0931(6) 0.0913(2) 0.2441(6)
H38_2 H 0.0820 0.1170 0.3034
H2_2 H 0.470(3) 0.8502(16) 0.051(3)
N3_2 N 0.5582(4) 0.94380(16) 0.1845(3)
N4 N 0.5497(4) 0.94737(16) 0.8061(3)
C2_2 C 0.9386(5) 0.87391(19) 0.3546(4)
H3_2 H 0.8627 0.8851 0.3933
C4_2 C 0.4396(5) 0.95589(19) 0.7405(4)
H5_2 H 0.3601 0.9610 0.7796
C5_2 C 0.4376(5) 0.95751(19) 0.6196(4)
H6_2 H 0.3578 0.9631 0.5774
C7_2 C 0.6673(5) 0.9448(2) 0.6269(4)
H8_2 H 0.7488 0.9419 0.5901
C8_2 C 0.5521(5) 0.95092(19) 0.5598(4)
C12_2 C 0.9413(5) 0.87487(19) 0.2348(4)
H9_2 H 0.8659 0.8866 0.1924
C14_2 C 0.9425(5) 0.8467(2) 0.7324(4)
H11_2 H 0.8646 0.8402 0.7730
C16_2 C 0.6602(5) 0.96238(19) 0.2482(4)
H13_2 H 0.7351 0.9735 0.2078
C17_2 C 0.4538(5) 0.92864(19) 0.2438(4)
H14_2 H 0.3802 0.9155 0.2008
H15_2 H 0.6368 0.7992 0.0411
C20_2 C 0.5545(5) 0.95015(19) 0.4305(4)
C21_2 C 0.6626(5) 0.96624(19) 0.3689(4)
H17_2 H 0.7374 0.9798 0.4095
C22_2 C 0.6603(5) 0.9430(2) 0.7478(4)
H18_2 H 0.7391 0.9384 0.7921
C24_2 C 0.4479(5) 0.9312(2) 0.3654(4)
H20_2 H 0.3717 0.9201 0.4037
C28_2 C 0.9354(5) 0.84658(19) 0.6113(4)
H23_2 H 0.8544 0.8410 0.5710
H36_2 H 0.0672 0.9659 0.1957
Co3 Co 0.55556(7) 0.94185(3) 0.99548(6)
O2_2 O 0.7412(3) 0.90942(12) 0.9960(3)
O4_2 O 0.8617(3) 0.83628(12) 0.9821(3)
O5_2 O 0.3644(3) 0.96422(12) 0.9987(3)
O6_2 O 0.5193(3) 0.85810(13) 0.9914(3)
C10_2 C 0.2567(4) 0.94042(19) 0.9935(4)
C11_2 C 0.7547(4) 0.85992(19) 0.9851(3)
C18_2 C 0.6325(4) 0.82560(18) 0.9763(4)
C25_2 C 0.6959(5) 0.75105(19) 0.8431(4)
H21_2 H 0.7505 0.7377 0.9047
C27_2 C 0.6893(6) 0.7254(2) 0.7367(5)
H22_2 H 0.7390 0.6943 0.7265
C32_2 C 0.1383(5) 0.97605(18) 0.9738(4)
H26_2 H 0.1480 0.9951 0.8978
C34_2 C 0.6228(4) 0.79631(17) 0.8608(4)
C36_2 C 0.6126(5) 0.7439(2) 0.6450(5)
H29_2 H 0.6099 0.7261 0.5718
C40_2 C 0.5445(5) 0.81445(19) 0.7676(4)
H33_2 H 0.4934 0.8452 0.7772
C43_2 C 0.5404(5) 0.7882(2) 0.6613(4)
H35_2 H 0.4865 0.8013 0.5988
H31_2 H 0.0122 0.2512 0.9139
N5_2 N 0.6272(4) 0.02063(15) 0.9960(3)
C15_2 C 0.8870(5) 0.19224(19) 0.9460(4)
H12_2 H 0.9355 0.1659 0.9071
C26_2 C 0.7703(5) 0.17905(17) 0.9981(4)
C30_2 C 0.7200(5) 0.12448(19) 0.9956(4)
C31_2 C 0.5457(5) 0.06220(19) 0.9949(5)
H25_2 H 0.4546 0.0557 0.9946
C33_2 C 0.5876(5) 0.11339(19) 0.9942(4)
H27_2 H 0.5260 0.1413 0.9928
C35_2 C 0.7552(5) 0.03121(19) 0.9966(4)
H28_2 H 0.8149 0.0027 0.9976
C37_2 C 0.8033(5) 0.08154(19) 0.9958(4)
H30_2 H 0.8948 0.0871 0.9955
C38_2 C 0.9326(5) 0.24319(18) 0.9506(4)
H34_2 H 0.1821 0.0797 0.9744
H1_2 H 0.974(3) 0.9462(17) 0.902(3)
F3 F 0.1341(4) 0.58069(15) 0.3331(3)
O10 O 0.0566(3) 0.47793(14) 0.2473(3)
O11 O 0.0387(3) 0.48468(14) 0.4584(3)
C47 C 0.0086(6) 0.5684(2) 0.3340(5)
S1 S 0.98381(11) 0.49791(5) 0.34500(11)
F1 F 0.9565(3) 0.59318(12) 0.4238(3)
F2 F 0.9536(4) 0.58725(14) 0.2347(3)
O9 O 0.8449(3) 0.49222(14) 0.3311(3)
F1_2 F 0.0435(3) 0.09318(12) 0.5762(3)
F2_2 F 0.0464(4) 0.08725(14) 0.7653(3)
S1_2 S 0.01619(11) 0.99791(5) 0.65500(11)
O9_2 O 0.1551(3) 0.99222(14) 0.6689(3)
F3_2 F 0.8659(4) 0.08069(15) 0.6669(3)
C47_2 C 0.9914(6) 0.0684(2) 0.6660(5)
O10_2 O 0.9434(3) 0.97793(14) 0.7527(3)
O11_2 O 0.9613(3) 0.98468(14) 0.5416(3)
S2 S 0.48178(12) 0.28722(5) 0.72369(10)
F4 F 0.3974(3) 0.19358(12) 0.6622(3)
F5 F 0.4038(3) 0.20728(13) 0.8490(3)
F6 F 0.5813(3) 0.19264(13) 0.7580(3)
O12 O 0.3489(3) 0.30604(14) 0.7251(3)
O13 O 0.5616(3) 0.30358(14) 0.8244(3)
O14 O 0.5449(4) 0.29086(15) 0.6139(3)
C48 C 0.4647(6) 0.2166(2) 0.7491(5)
S2_2 S 0.51822(12) 0.78722(5) 0.27631(10)
F4_2 F 0.6026(3) 0.69358(12) 0.3378(3)
F5_2 F 0.5962(3) 0.70728(13) 0.1510(3)
F6_2 F 0.4187(3) 0.69264(13) 0.2420(3)
O12_2 O 0.6511(3) 0.80604(14) 0.2749(3)
O13_2 O 0.4384(3) 0.80358(14) 0.1756(3)
O14_2 O 0.4551(4) 0.79086(15) 0.3861(3)
C48_2 C 0.5353(6) 0.7166(2) 0.2509(5)
loop_
_geom_bond_atom_site_label_1
_geom_bond_atom_site_label_2
_geom_bond_site_symmetry_1
_geom_bond_site_symmetry_2
Co1 O2 1_555 1_555
O1 C10 1_555 1_555
O2 C11 1_555 1_555
O4 C11 1_555 1_555
O5 Co1 1_555 1_555
O6 Co1 1_555 1_555
N5 Co1 1_555 1_555
C10 O5 1_555 1_555
C11 C18 1_555 1_555
C15 H12 1_555 1_555
C18 O6 1_555 1_555
C25 H21 1_555 1_555
C26 C15 1_555 1_555
C27 C25 1_555 1_555
H22 C27 1_555 1_555
C30 C26 1_555 1_555
C31 N5 1_555 1_555
H25 C31 1_555 1_555
C32 O3 1_555 1_555
H26 C32 1_555 1_555
C33 C30 1_555 1_555
H27 C33 1_555 1_555
C34 C18 1_555 1_555
C35 N5 1_555 1_555
H28 C35 1_555 1_555
C36 C27 1_555 1_555
H29 C36 1_555 1_555
C37 C30 1_555 1_555
H30 C37 1_555 1_555
C40 C34 1_555 1_555
H33 C40 1_555 1_555
C43 C36 1_555 1_555
H35 C43 1_555 1_555
Co5 O1 1_555 1_555
N8 Co1 1_555 1_555
O3 Co5 1_555 1_555
C10 C32 1_555 1_555
C15 C38 1_555 1_555
C25 C34 1_555 1_555
C31 C33 1_555 1_555
C35 C37 1_555 1_555
C40 C43 1_555 1_555
N8 C4 1_555 1_555
N6 C19 1_555 1_555
C2 H3 1_555 1_555
C4 H5 1_555 1_555
C5 C4 1_555 1_555
H6 C5 1_555 1_555
C7 H8 1_555 1_555
C8 C5 1_555 1_555
H9 C12 1_555 1_555
H11 C14 1_555 1_555
C16 N3 1_555 1_555
H13 C16 1_555 1_555
C17 N3 1_555 1_555
H14 C17 1_555 1_555
C19 H16 1_555 1_555
C20 C8 1_555 1_555
C21 C16 1_555 1_555
H17 C21 1_555 1_555
C22 N8 1_555 1_555
H18 C22 1_555 1_555
C24 C17 1_555 1_555
H20 C24 1_555 1_555
H23 C28 1_555 1_555
C29 C19 1_555 1_555
H24 C29 1_555 1_555
C39 H32 1_555 1_555
C42 C41 1_555 1_555
C44 C39 1_555 1_555
H36 C44 1_555 1_555
C45 C42 1_555 1_555
H37 C45 1_555 1_555
C46 C39 1_555 1_555
H38 C46 1_555 1_555
Co6 N6 1_555 1_555
C2 C12 1_555 1_555
C7 C8 1_555 1_555
C7 C22 1_555 1_555
C14 C28 1_555 1_555
C20 C21 1_555 1_555
C20 C24 1_555 1_555
C41 C44 1_555 1_555
C45 C46 1_555 1_555
N7 Co5 1_555 1_555
N9 Co5 1_555 1_555
N7 C3 1_555 1_555
C3 H4 1_555 1_555
C6 C3 1_555 1_555
H7 C6 1_555 1_555
C9 C1 1_555 1_555
C13 C1 1_555 1_555
H10 C13 1_555 1_555
C23 N2 1_555 1_555
H19 C23 1_555 1_555
C6 C9 1_555 1_555
C13 C23 1_555 1_555
N1 C3_2 1_555 1_555
C3_2 H4_2 1_555 1_555
C6_2 C3_2 1_555 1_555
H7_2 C6_2 1_555 1_555
C9_2 C1_2 1_555 1_555
C13_2 C1_2 1_555 1_555
H10_2 C13_2 1_555 1_555
C23_2 N2_2 1_555 1_555
H19_2 C23_2 1_555 1_555
Co6 N1 1_555 1_555
C6_2 C9_2 1_555 1_555
C13_2 C23_2 1_555 1_555
O7 Co6 1_555 1_555
O8 Co6 1_555 1_555
N9 C19_2 1_555 1_555
C19_2 H16_2 1_555 1_555
C29_2 C19_2 1_555 1_555
H24_2 C29_2 1_555 1_555
C39_2 H32_2 1_555 1_555
C42_2 C41_2 1_555 1_555
C44_2 C39_2 1_555 1_555
C45_2 C42_2 1_555 1_555
H37_2 C45_2 1_555 1_555
C46_2 C39_2 1_555 1_555
H38_2 C46_2 1_555 1_555
C41_2 C44_2 1_555 1_555
C45_2 C46_2 1_555 1_555
N4 C4_2 1_555 1_555
C2_2 H3_2 1_555 1_555
C4_2 H5_2 1_555 1_555
C5_2 C4_2 1_555 1_555
H6_2 C5_2 1_555 1_555
C7_2 H8_2 1_555 1_555
C8_2 C5_2 1_555 1_555
H9_2 C12_2 1_555 1_555
H11_2 C14_2 1_555 1_555
C16_2 N3_2 1_555 1_555
H13_2 C16_2 1_555 1_555
C17_2 N3_2 1_555 1_555
H14_2 C17_2 1_555 1_555
C20_2 C8_2 1_555 1_555
C21_2 C16_2 1_555 1_555
H17_2 C21_2 1_555 1_555
C22_2 N4 1_555 1_555
H18_2 C22_2 1_555 1_555
C24_2 C17_2 1_555 1_555
H20_2 C24_2 1_555 1_555
H23_2 C28_2 1_555 1_555
Co3 N4 1_555 1_555
C2_2 C12_2 1_555 1_555
C7_2 C8_2 1_555 1_555
C7_2 C22_2 1_555 1_555
C14_2 C28_2 1_555 1_555
C20_2 C21_2 1_555 1_555
C20_2 C24_2 1_555 1_555
Co3 O2_2 1_555 1_555
O7 C10_2 1_555 1_555
O2_2 C11_2 1_555 1_555
O4_2 C11_2 1_555 1_555
O5_2 Co3 1_555 1_555
O6_2 Co3 1_555 1_555
C10_2 O5_2 1_555 1_555
C11_2 C18_2 1_555 1_555
C18_2 O6_2 1_555 1_555
C25_2 H21_2 1_555 1_555
C27_2 C25_2 1_555 1_555
H22_2 C27_2 1_555 1_555
C32_2 O8 1_555 1_555
H26_2 C32_2 1_555 1_555
C34_2 C18_2 1_555 1_555
C36_2 C27_2 1_555 1_555
H29_2 C36_2 1_555 1_555
C40_2 C34_2 1_555 1_555
H33_2 C40_2 1_555 1_555
C43_2 C36_2 1_555 1_555
H35_2 C43_2 1_555 1_555
C10_2 C32_2 1_555 1_555
C25_2 C34_2 1_555 1_555
C40_2 C43_2 1_555 1_555
C15_2 H12_2 1_555 1_555
C26_2 C15_2 1_555 1_555
C30_2 C26_2 1_555 1_555
C31_2 N5_2 1_555 1_555
H25_2 C31_2 1_555 1_555
C33_2 C30_2 1_555 1_555
H27_2 C33_2 1_555 1_555
C35_2 N5_2 1_555 1_555
H28_2 C35_2 1_555 1_555
C37_2 C30_2 1_555 1_555
H30_2 C37_2 1_555 1_555
C15_2 C38_2 1_555 1_555
C31_2 C33_2 1_555 1_555
C35_2 C37_2 1_555 1_555
F3 C47 1_555 1_555
S1 O9 1_555 1_555
S1_2 O9_2 1_555 1_555
F3_2 C47_2 1_555 1_555
S2 O12 1_555 1_555
F4 C48 1_555 1_555
F5 C48 1_555 1_555
F6 C48 1_555 1_555
O13 S2 1_555 1_555
O14 S2 1_555 1_555
C48 S2 1_555 1_555
S2_2 O12_2 1_555 1_555
F4_2 C48_2 1_555 1_555
F5_2 C48_2 1_555 1_555
F6_2 C48_2 1_555 1_555
O13_2 S2_2 1_555 1_555
O14_2 S2_2 1_555 1_555
C48_2 S2_2 1_555 1_555

#END
