
###############################################################################
#
# This file contains modified crystal structure data generated from the
# MOF subset of the Cambridge Structural Database (CSD) v543 
# hosted by the Cambridge Crystallographic Data Centre (CCDC).
#
# This work is licensed under the Creative Commons
# Attribution-NonCommercial-ShareAlike 4.0 International License.
# To view a copy of this license, visit
# http://creativecommons.org/licenses/by-nc-sa/4.0/
# or send a letter to
# Creative Commons, PO Box 1866, Mountain View, CA 94042, USA.
#
# CIF created using the CSD Python API on 29 September 2022
# The structure has been converted into the P1 space group
# The structure has a 3D framework
# The original CSD entry NEHGUF is in the monoclinic crystal system
# The original CSD entry NEHGUF is in a Sohncke space group
# The framework has been calculated to contain at least 10.0% void space
# The void calculation uses a probe of radius 1.32A, grid spacing 0.4
# The framework is charged, counterions have been retained in the structure
#
###############################################################################

data_NEHGUF
_chemical_formula_moiety         '(C192 H152 Co8 F24 N24 O48 S8)n'
_symmetry_cell_setting           triclinic
_symmetry_space_group_name_H-M   'P 1'
_symmetry_Int_Tables_number      1
_space_group_name_Hall           'P 1'
loop_
_symmetry_equiv_pos_site_id
_symmetry_equiv_pos_as_xyz
1 x,y,z
_cell_length_a                   11.4251(3)
_cell_length_b                   25.3667(8)
_cell_length_c                   20.4567(6)
_cell_angle_alpha                90
_cell_angle_beta                 91.2690(17)
_cell_angle_gamma                90
_cell_volume                     5927.25
loop_
_atom_site_label
_atom_site_type_symbol
_atom_site_fract_x
_atom_site_fract_y
_atom_site_fract_z
C3 C 0.0317(12) 0.2184(7) 0.5247(7)
N8 N 0.2774(10) 0.2173(5) 0.5234(6)
C45 C 0.0955(12) 0.2069(6) 0.5794(8)
H34 H 0.0574 0.1989 0.6190
C73 C 0.2168(14) 0.2068(6) 0.5772(9)
H57 H 0.2596 0.1987 0.6163
C81 C 0.0919(13) 0.2277(8) 0.4668(8)
H65 H 0.0507 0.2333 0.4265
C83 C 0.2147(14) 0.2285(9) 0.4702(8)
H67 H 0.2553 0.2376 0.4318
Co10 Co 0.46730(18) 0.21236(10) 0.52358(11)
Co8 Co 0.47110(18) 0.21544(10) 0.02400(11)
Co1 Co 0.47297(17) 0.13181(10) 0.77573(11)
Co2 Co 0.48244(19) 0.12993(10) 0.27417(11)
O1 O 0.4438(8) 0.1333(4) 0.0080(5)
O2 O 0.4799(8) 0.1807(4) 0.6184(5)
N3 N 0.2821(9) 0.1289(5) 0.7750(6)
N4 N 0.2813(9) 0.2238(5) 0.0248(6)
O3 O 0.4727(8) 0.1647(4) 0.8678(5)
O4 O 0.4733(8) 0.2146(4) 0.2561(5)
H2 H 0.507(7) 0.231(3) 0.2228(18)
O5 O 0.4808(8) 0.1628(4) 0.3662(5)
O6 O 0.4453(8) 0.1281(4) 0.5084(5)
H3 H 0.406(10) 0.112(4) 0.4764(17)
O7 O 0.4712(8) 0.1083(4) 0.6803(5)
O8 O 0.4863(8) 0.1817(4) 0.1192(5)
O9 O 0.4845(8) 0.1072(4) 0.1782(4)
O10 O 0.4824(8) 0.2160(4) 0.7562(5)
H4 H 0.533(9) 0.226(4) 0.726(3)
C1 C 0.2210(13) 0.2123(7) 0.0775(9)
H5 H 0.2635 0.2025 0.1160
O11 O 0.4630(8) 0.2358(4) 0.4285(5)
N6 N 0.6565(9) 0.2125(5) 0.5193(6)
N7 N 0.4751(9) 0.0531(5) 0.8105(6)
C5 C 0.2214(11) 0.1419(6) 0.8289(8)
H7 H 0.2634 0.1535 0.8668
C6 C 0.4700(10) 0.1334(6) 0.6259(7)
C7 C 0.1011(12) 0.2138(6) 0.0801(7)
H8 H 0.0629 0.2073 0.1201
C9 C 0.4671(11) 0.2137(6) 0.3724(7)
N9 N 0.4883(10) 0.0516(5) 0.3119(6)
C12 C 0.0350(11) 0.1226(6) 0.7760(7)
C13 C 0.1027(11) 0.1390(6) 0.8307(7)
H12 H 0.0644 0.1483 0.8698
N10 N 0.2940(11) 0.1233(5) 0.2723(6)
C14 C 0.9024(12) 0.2169(7) 0.5221(7)
C18 C 0.0457(12) 0.1241(6) 0.2723(7)
C19 C 0.2253(12) 0.1154(6) 0.2167(8)
H15 H 0.2626 0.1092 0.1764
C21 C 0.4529(14) 0.0961(6) 0.5671(7)
H17 H 0.3779 0.0763 0.5719
C24 C 0.0367(12) 0.2248(6) 0.0237(8)
C27 C 0.450(2) 0.0398(7) 0.8700(10)
H21 H 0.4259 0.0669 0.8990
C28 C 0.4565(11) 0.2480(6) 0.3122(7)
H22 H 0.5198 0.2753 0.3140
C32 C 0.513(3) 0.0125(8) 0.7752(11)
H24 H 0.5415 0.0199 0.7328
C36 C 0.1109(13) 0.1162(6) 0.2175(8)
H28 H 0.0698 0.1109 0.1771
C37 C 0.4829(14) 0.0081(6) 0.2718(7)
H29 H 0.4755 0.0140 0.2260
C38 C 0.4770(10) 0.1334(6) 0.1240(7)
C40 C 0.1129(13) 0.1296(7) 0.3304(8)
H30 H 0.0745 0.1334 0.3709
C41 C 0.4711(11) 0.2147(6) 0.8730(7)
C42 C 0.8387(14) 0.2056(8) 0.4629(8)
H31 H 0.8782 0.2010 0.4229
C43 C 0.8367(13) 0.2255(7) 0.5767(7)
H32 H 0.8745 0.2330 0.6175
C46 C 0.4556(14) 0.0982(6) 0.0646(7)
H35 H 0.3800 0.0790 0.0700
C47 C 0.7158(12) 0.2231(6) 0.5724(7)
H36 H 0.6734 0.2298 0.6110
C48 C 0.0987(12) 0.1097(7) 0.7224(8)
H37 H 0.0585 0.0980 0.6839
C50 C 0.2346(12) 0.1296(7) 0.3296(7)
H39 H 0.2777 0.1339 0.3695
C51 C 0.7167(13) 0.2016(8) 0.4651(7)
H40 H 0.6747 0.1908 0.4269
C53 C 0.4721(12) 0.2496(6) 0.8128(7)
H42 H 0.5433 0.2725 0.8157
C55 C 0.2156(13) 0.1129(6) 0.7223(7)
H43 H 0.2546 0.1035 0.6834
C56 C 0.4986(16) 0.0406(6) 0.3764(8)
H44 H 0.5036 0.0692 0.4064
C60 C 0.5500(15) 0.0589(6) 0.0536(8)
C61 C 0.6587(16) 0.0741(8) 0.0308(9)
H48 H 0.6740 0.1100 0.0211
C64 C 0.5527(14) 0.0572(7) 0.5626(9)
O12 O 0.4675(8) 0.2389(4) 0.9284(5)
C65 C 0.3678(12) 0.2845(5) 0.8079(6)
C66 C 0.3422(13) 0.2746(7) 0.3108(7)
C67 C 0.2478(14) 0.2561(7) 0.2754(9)
H51 H 0.2562 0.2253 0.2496
C68 C 0.6607(14) 0.0714(7) 0.5390(10)
H52 H 0.6727 0.1058 0.5219
C69 C 0.2651(13) 0.2691(7) 0.7758(9)
H53 H 0.2614 0.2354 0.7556
C70 C 0.1680(15) 0.3018(8) 0.7724(11)
H54 H 0.0979 0.2904 0.7509
C71 C 0.754(2) 0.0341(8) 0.5405(12)
H55 H 0.8278 0.0436 0.5236
C72 C 0.744(2) 0.0362(10) 0.0223(13)
H56 H 0.8204 0.0471 0.0104
C75 C 0.1745(19) 0.3504(8) 0.8006(10)
H59 H 0.1089 0.3734 0.7986
C76 C 0.5329(18) 0.0068(8) 0.0650(12)
C78 C 0.5390(17) 0.0060(7) 0.5874(10)
C82 C 0.3726(18) 0.3359(7) 0.8357(9)
H66 H 0.4415 0.3490 0.8568
C84 C 0.3282(18) 0.3206(7) 0.3496(10)
H68 H 0.3934 0.3354 0.3726
C85 C 0.272(2) 0.3653(8) 0.8304(10)
H69 H 0.2731 0.3994 0.8498
C86 C 0.125(2) 0.3237(13) 0.3181(13)
H70 H 0.0492 0.3387 0.3222
C87 C 0.2185(19) 0.3437(10) 0.3534(13)
H71 H 0.2081 0.3737 0.3806
C89 C 0.1415(18) 0.2811(11) 0.2764(11)
H73 H 0.0791 0.2693 0.2486
N13 N 0.6604(9) 0.1275(5) 0.7758(6)
N14 N 0.6602(8) 0.2173(5) 0.0205(6)
N15 N 0.6740(9) 0.1311(5) 0.2752(6)
N17 N 0.4802(10) 0.2903(5) 0.5617(6)
N18 N 0.4833(10) 0.2927(5) 0.0627(6)
H1 H 0.398(6) 0.119(3) 0.9764(18)
C11 C 0.2194(12) 0.2376(7) 0.9705(8)
H11 H 0.2614 0.2477 0.9329
C20 C 0.0970(13) 0.2379(7) 0.9663(7)
H16 H 0.0563 0.2464 0.9267
C26 C 0.4956(13) 0.8945(6) 0.8840(8)
C29 C 0.4990(12) 0.9476(5) 0.3606(7)
C31 C 0.4888(12) 0.9486(6) 0.8588(7)
C33 C 0.455(2) 0.9909(7) 0.8926(10)
H25 H 0.4330 0.9854 0.9366
C34 C 0.4875(14) 0.9570(6) 0.2931(8)
H26 H 0.4829 0.9286 0.2630
C35 C 0.516(3) 0.9607(8) 0.7954(11)
H27 H 0.5353 0.9335 0.7657
C49 C 0.4534(16) 0.8819(7) 0.9462(9)
H38 H 0.4165 0.9081 0.9718
C52 C 0.5023(15) 0.9905(6) 0.4008(8)
H41 H 0.5073 0.9854 0.4468
C54 C 0.5056(13) 0.8936(6) 0.3868(8)
C57 C 0.5527(12) 0.8522(6) 0.3508(8)
H45 H 0.5811 0.8583 0.3082
C59 C 0.5498(15) 0.8550(6) 0.8492(8)
H47 H 0.5807 0.8614 0.8072
C62 C 0.5577(12) 0.8013(6) 0.3782(7)
H49 H 0.5894 0.7735 0.3531
N11 N 0.5198(10) 0.7903(5) 0.4383(6)
C63 C 0.4657(16) 0.8810(6) 0.4479(9)
H50 H 0.4318 0.9077 0.4741
H60 H 0.4588 0.9959 0.0803
C77 C 0.4743(15) 0.8299(6) 0.4719(8)
H61 H 0.4463 0.8228 0.5144
H62 H 0.4660 0.9958 0.6048
N12 N 0.5167(10) 0.7927(5) 0.9373(6)
C79 C 0.5573(14) 0.8047(6) 0.8785(8)
H63 H 0.5939 0.7774 0.8546
C80 C 0.4658(17) 0.8316(7) 0.9695(10)
C88 C 0.630(2) 0.9702(9) 0.5868(14)
H72 H 0.6183 0.9350 0.6011
C90 C 0.739(2) 0.9856(11) 0.5655(16)
H74 H 0.8033 0.9619 0.5686
C91 C 0.724(4) 0.9863(13) 0.0300(14)
H75 H 0.7822 0.9614 0.0181
C92 C 0.618(3) 0.9684(10) 0.0556(15)
H76 H 0.6053 0.9324 0.0659
Co9 Co 0.52890(18) 0.71544(10) 0.97600(11)
Co11 Co 0.53270(18) 0.71236(10) 0.47642(11)
C4 C 0.9078(12) 0.2226(6) 0.0223(8)
C8 C 0.8421(12) 0.2334(7) 0.0766(8)
H9 H 0.8804 0.2440 0.1162
C10 C 0.7215(14) 0.2291(7) 0.0741(8)
H10 H 0.6802 0.2349 0.1132
C15 C 0.7211(11) 0.1352(7) 0.7217(8)
H13 H 0.6786 0.1427 0.6823
C16 C 0.7245(11) 0.1158(6) 0.8308(8)
H14 H 0.6839 0.1092 0.8700
C17 C 0.9164(12) 0.1262(7) 0.2751(8)
C22 C 0.7339(12) 0.1425(7) 0.2225(7)
H18 H 0.6907 0.1525 0.1843
C23 C 0.8418(14) 0.1331(8) 0.7192(8)
H19 H 0.8794 0.1389 0.6789
C30 C 0.8457(12) 0.1131(7) 0.8330(7)
H23 H 0.8861 0.1049 0.8728
C39 C 0.9088(12) 0.1225(7) 0.7754(8)
C44 C 0.8526(13) 0.1410(8) 0.2186(8)
H33 H 0.8907 0.1497 0.1793
C58 C 0.8534(11) 0.1124(7) 0.3310(7)
H46 H 0.8938 0.1012 0.3697
C74 C 0.7353(11) 0.1151(6) 0.3294(7)
H58 H 0.6937 0.1056 0.3673
N1 N 0.3396(9) 0.6275(5) 0.2242(6)
N2 N 0.3398(8) 0.7173(5) 0.9795(6)
N5 N 0.3260(9) 0.6311(5) 0.7248(6)
C4_2 C 0.0922(12) 0.7226(6) 0.9777(8)
C8_2 C 0.1579(12) 0.7334(7) 0.9234(8)
H9_2 H 0.1196 0.7440 0.8838
C10_2 C 0.2785(14) 0.7291(7) 0.9259(8)
H10_2 H 0.3198 0.7349 0.8868
C15_2 C 0.2789(11) 0.6352(7) 0.2783(8)
H13_2 H 0.3214 0.6427 0.3177
C16_2 C 0.2755(11) 0.6158(6) 0.1692(8)
H14_2 H 0.3161 0.6092 0.1300
C17_2 C 0.0836(12) 0.6262(7) 0.7249(8)
C22_2 C 0.2661(12) 0.6425(7) 0.7775(7)
H18_2 H 0.3093 0.6525 0.8157
C23_2 C 0.1582(14) 0.6331(8) 0.2808(8)
H19_2 H 0.1206 0.6389 0.3211
C30_2 C 0.1543(12) 0.6131(7) 0.1670(7)
H23_2 H 0.1139 0.6049 0.1272
C39_2 C 0.0912(12) 0.6225(7) 0.2246(8)
C44_2 C 0.1474(13) 0.6410(8) 0.7814(8)
H33_2 H 0.1093 0.6497 0.8207
C58_2 C 0.1466(11) 0.6124(7) 0.6690(7)
H46_2 H 0.1062 0.6012 0.6303
C74_2 C 0.2647(11) 0.6151(6) 0.6706(7)
H58_2 H 0.3063 0.6056 0.6327
Co5 Co 0.52703(17) 0.63181(10) 0.22427(11)
Co6 Co 0.51756(19) 0.62993(10) 0.72583(11)
H1_2 H 0.602(6) 0.619(3) 0.0236(18)
C11_2 C 0.7806(12) 0.7376(7) 0.0295(8)
H11_2 H 0.7386 0.7477 0.0671
C20_2 C 0.9030(13) 0.7379(7) 0.0337(7)
H16_2 H 0.9437 0.7464 0.0733
O13 O 0.5325(8) 0.7389(4) 0.0716(5)
O1_2 O 0.5562(8) 0.6333(4) 0.9920(5)
O2_2 O 0.5201(8) 0.6807(4) 0.3816(5)
N3_2 N 0.7179(9) 0.6289(5) 0.2250(6)
N4_2 N 0.7187(9) 0.7238(5) 0.9752(6)
O3_2 O 0.5273(8) 0.6647(4) 0.1322(5)
O4_2 O 0.5267(8) 0.7146(4) 0.7439(5)
H2_2 H 0.493(7) 0.731(3) 0.7772(18)
O5_2 O 0.5192(8) 0.6628(4) 0.6338(5)
O6_2 O 0.5547(8) 0.6281(4) 0.4916(5)
H3_2 H 0.594(10) 0.612(4) 0.5236(17)
O7_2 O 0.5288(8) 0.6083(4) 0.3197(5)
O8_2 O 0.5137(8) 0.6817(4) 0.8808(5)
O9_2 O 0.5155(8) 0.6072(4) 0.8218(4)
O10_2 O 0.5176(8) 0.7160(4) 0.2438(5)
H4_2 H 0.467(9) 0.726(4) 0.274(3)
C1_2 C 0.7790(13) 0.7123(7) 0.9225(9)
H5_2 H 0.7365 0.7025 0.8840
O11_2 O 0.5370(8) 0.7358(4) 0.5715(5)
N6_2 N 0.3435(9) 0.7125(5) 0.4807(6)
N7_2 N 0.5249(9) 0.5531(5) 0.1895(6)
C5_2 C 0.7786(11) 0.6419(6) 0.1711(8)
H7_2 H 0.7366 0.6535 0.1332
C6_2 C 0.5300(10) 0.6334(6) 0.3741(7)
C7_2 C 0.8989(12) 0.7138(6) 0.9199(7)
H8_2 H 0.9371 0.7073 0.8799
C9_2 C 0.5329(11) 0.7137(6) 0.6276(7)
N9_2 N 0.5117(10) 0.5516(5) 0.6881(6)
C12_2 C 0.9650(11) 0.6226(6) 0.2240(7)
C13_2 C 0.8973(11) 0.6390(6) 0.1693(7)
H12_2 H 0.9356 0.6483 0.1302
N10_2 N 0.7060(11) 0.6233(5) 0.7277(6)
C14_2 C 0.0976(12) 0.7169(7) 0.4779(7)
C18_2 C 0.9543(12) 0.6241(6) 0.7277(7)
C19_2 C 0.7747(12) 0.6154(6) 0.7833(8)
H15_2 H 0.7374 0.6092 0.8236
C21_2 C 0.5471(14) 0.5961(6) 0.4329(7)
H17_2 H 0.6221 0.5763 0.4281
C24_2 C 0.9633(12) 0.7248(6) 0.9763(8)
C26_2 C 0.5044(13) 0.3945(6) 0.1160(8)
C27_2 C 0.550(2) 0.5398(7) 0.1300(10)
H21_2 H 0.5741 0.5669 0.1010
C28_2 C 0.5435(11) 0.7480(6) 0.6878(7)
H22_2 H 0.4802 0.7753 0.6860
C29_2 C 0.5010(12) 0.4476(5) 0.6394(7)
C31_2 C 0.5112(12) 0.4486(6) 0.1412(7)
C32_2 C 0.487(3) 0.5125(8) 0.2248(11)
H24_2 H 0.4585 0.5199 0.2672
C33_2 C 0.545(2) 0.4909(7) 0.1074(10)
H25_2 H 0.5670 0.4854 0.0634
C34_2 C 0.5125(14) 0.4570(6) 0.7069(8)
H26_2 H 0.5171 0.4286 0.7370
C35_2 C 0.484(3) 0.4607(8) 0.2046(11)
H27_2 H 0.4647 0.4335 0.2343
C36_2 C 0.8891(13) 0.6162(6) 0.7825(8)
H28_2 H 0.9302 0.6109 0.8229
C37_2 C 0.5171(14) 0.5081(6) 0.7282(7)
H29_2 H 0.5245 0.5140 0.7740
C38_2 C 0.5230(10) 0.6334(6) 0.8760(7)
C40_2 C 0.8871(13) 0.6296(7) 0.6696(8)
H30_2 H 0.9255 0.6334 0.6291
C41_2 C 0.5289(11) 0.7147(6) 0.1270(7)
C42_2 C 0.1613(14) 0.7056(8) 0.5371(8)
H31_2 H 0.1218 0.7010 0.5771
C43_2 C 0.1633(13) 0.7255(7) 0.4233(7)
H32_2 H 0.1255 0.7330 0.3825
C46_2 C 0.5444(14) 0.5982(6) 0.9354(7)
H35_2 H 0.6200 0.5790 0.9300
C47_2 C 0.2842(12) 0.7231(6) 0.4276(7)
H36_2 H 0.3266 0.7298 0.3890
C48_2 C 0.9013(12) 0.6097(7) 0.2776(8)
H37_2 H 0.9415 0.5980 0.3161
C49_2 C 0.5466(16) 0.3819(7) 0.0538(9)
H38_2 H 0.5835 0.4081 0.0282
C50_2 C 0.7654(12) 0.6296(7) 0.6704(7)
H39_2 H 0.7223 0.6339 0.6305
C51_2 C 0.2833(13) 0.7016(8) 0.5349(7)
H40_2 H 0.3253 0.6908 0.5731
C52_2 C 0.4977(15) 0.4905(6) 0.5992(8)
H41_2 H 0.4927 0.4854 0.5532
C53_2 C 0.5279(12) 0.7496(6) 0.1872(7)
H42_2 H 0.4567 0.7725 0.1843
C54_2 C 0.4944(13) 0.3936(6) 0.6132(8)
C55_2 C 0.7844(13) 0.6129(6) 0.2777(7)
H43_2 H 0.7454 0.6035 0.3166
C56_2 C 0.5014(16) 0.5406(6) 0.6236(8)
H44_2 H 0.4964 0.5692 0.5936
C57_2 C 0.4473(12) 0.3522(6) 0.6492(8)
H45_2 H 0.4189 0.3583 0.6918
C59_2 C 0.4502(15) 0.3550(6) 0.1508(8)
H47_2 H 0.4193 0.3614 0.1928
C60_2 C 0.4500(15) 0.5589(6) 0.9464(8)
C61_2 C 0.3413(16) 0.5741(8) 0.9692(9)
H48_2 H 0.3260 0.6100 0.9789
C62_2 C 0.4423(12) 0.3013(6) 0.6218(7)
H49_2 H 0.4106 0.2735 0.6469
C63_2 C 0.5343(16) 0.3810(6) 0.5521(9)
H50_2 H 0.5682 0.4077 0.5259
C64_2 C 0.4473(14) 0.5572(7) 0.4374(9)
C65_2 C 0.6322(12) 0.7845(5) 0.1921(6)
C66_2 C 0.6578(13) 0.7746(7) 0.6892(7)
C67_2 C 0.7522(14) 0.7561(7) 0.7246(9)
H51_2 H 0.7438 0.7253 0.7504
C68_2 C 0.3393(14) 0.5714(7) 0.4610(10)
H52_2 H 0.3273 0.6058 0.4781
C69_2 C 0.7349(13) 0.7691(7) 0.2242(9)
H53_2 H 0.7386 0.7354 0.2444
C70_2 C 0.8320(15) 0.8018(8) 0.2276(11)
H54_2 H 0.9021 0.7904 0.2491
C71_2 C 0.246(2) 0.5341(8) 0.4595(12)
H55_2 H 0.1722 0.5436 0.4764
C72_2 C 0.256(2) 0.5362(10) 0.9777(13)
H56_2 H 0.1796 0.5471 0.9896
C75_2 C 0.8255(19) 0.8504(8) 0.1994(10)
H59_2 H 0.8911 0.8734 0.2014
C76_2 C 0.4671(18) 0.5068(8) 0.9350(12)
H60_2 H 0.5412 0.4959 0.9197
C77_2 C 0.5257(15) 0.3299(6) 0.5281(8)
H61_2 H 0.5537 0.3228 0.4856
C78_2 C 0.4610(17) 0.5060(7) 0.4126(10)
H62_2 H 0.5340 0.4958 0.3952
C79_2 C 0.4427(14) 0.3047(6) 0.1215(8)
H63_2 H 0.4061 0.2774 0.1454
C80_2 C 0.5342(17) 0.3316(7) 0.0305(10)
C82_2 C 0.6274(18) 0.8359(7) 0.1643(9)
H66_2 H 0.5585 0.8490 0.1432
C84_2 C 0.6718(18) 0.8206(7) 0.6504(10)
H68_2 H 0.6066 0.8354 0.6274
C85_2 C 0.728(2) 0.8653(8) 0.1696(10)
H69_2 H 0.7269 0.8994 0.1502
C86_2 C 0.875(2) 0.8237(13) 0.6819(13)
H70_2 H 0.9508 0.8387 0.6778
C87_2 C 0.7815(19) 0.8437(10) 0.6466(13)
H71_2 H 0.7919 0.8737 0.6194
C88_2 C 0.370(2) 0.4702(9) 0.4132(14)
H72_2 H 0.3817 0.4350 0.3989
C89_2 C 0.8585(18) 0.7811(11) 0.7236(11)
H73_2 H 0.9209 0.7693 0.7514
C90_2 C 0.261(2) 0.4856(11) 0.4345(16)
H74_2 H 0.1967 0.4619 0.4314
C91_2 C 0.276(4) 0.4863(13) 0.9700(14)
H75_2 H 0.2178 0.4614 0.9819
C92_2 C 0.382(3) 0.4684(10) 0.9444(15)
H76_2 H 0.3947 0.4324 0.9341
N16 N 0.7226(10) 0.7173(5) 0.4766(6)
H64 H 0.5639 0.3240 0.9885
C3_2 C 0.9683(12) 0.7184(7) 0.4753(7)
C45_2 C 0.9045(12) 0.7069(6) 0.4206(8)
H34_2 H 0.9426 0.6989 0.3810
C73_2 C 0.7832(14) 0.7068(6) 0.4228(9)
H57_2 H 0.7404 0.6987 0.3837
C81_2 C 0.9081(13) 0.7277(8) 0.5332(8)
H65_2 H 0.9493 0.7333 0.5735
C83_2 C 0.7853(14) 0.7285(9) 0.5298(8)
H67_2 H 0.7447 0.7376 0.5682
H64_2 H 0.4361 0.8240 0.0115
C2 C 0.8404(12) 0.2098(7) 0.9649(8)
H6 H 0.8794 0.2037 0.9251
C25 C 0.7217(11) 0.2060(7) 0.9659(7)
H20 H 0.6804 0.1951 0.9274
C2_2 C 0.1596(12) 0.7098(7) 0.0351(8)
H6_2 H 0.1206 0.7037 0.0749
C25_2 C 0.2783(11) 0.7060(7) 0.0341(7)
H20_2 H 0.3196 0.6951 0.0726
S1 S 0.1357(4) 0.0690(2) 0.5032(2)
O14 O 0.2312(10) 0.0952(6) 0.4712(5)
O15 O 0.0233(11) 0.0734(7) 0.4722(7)
O16 O 0.1384(11) 0.0745(5) 0.5725(5)
F1 F 0.1812(19) 0.9868(10) 0.4337(12)
F2 F 0.2784(16) 0.9888(6) 0.5238(12)
F3 F 0.0895(18) 0.9709(7) 0.5212(13)
C93 C 0.181(2) 0.9969(12) 0.4938(16)
S1_2 S 0.8643(4) 0.5690(2) 0.4968(2)
O14_2 O 0.7688(10) 0.5952(6) 0.5288(5)
O15_2 O 0.9767(11) 0.5734(7) 0.5278(7)
O16_2 O 0.8616(11) 0.5745(5) 0.4275(5)
F1_2 F 0.8188(19) 0.4868(10) 0.5663(12)
F2_2 F 0.7216(16) 0.4888(6) 0.4762(12)
F3_2 F 0.9105(18) 0.4709(7) 0.4788(13)
C93_2 C 0.819(2) 0.4969(12) 0.5062(16)
S2 S 0.1316(4) 0.07978(18) 0.0026(2)
O18 O 0.1493(11) 0.0797(5) 0.0722(5)
O17 O 0.2327(9) 0.0993(4) 0.9683(5)
F6 F 0.1251(14) 0.0049(6) 0.9172(8)
O19 O 0.0188(10) 0.0988(6) 0.9799(6)
C94 C 0.1295(18) 0.0101(10) 0.9835(14)
F4 F 0.2303(11) 0.9877(5) 0.0038(8)
F5 F 0.0376(11) 0.9880(5) 0.0087(9)
O17_2 O 0.7673(9) 0.5993(4) 0.0317(5)
F6_2 F 0.8749(14) 0.5049(6) 0.0828(8)
O19_2 O 0.9812(10) 0.5988(6) 0.0201(6)
C94_2 C 0.8705(18) 0.5101(10) 0.0165(14)
S2_2 S 0.8684(4) 0.57978(18) 0.9974(2)
O18_2 O 0.8507(11) 0.5797(5) 0.9278(5)
F4_2 F 0.7697(11) 0.4877(5) 0.9962(8)
F5_2 F 0.9624(11) 0.4880(5) 0.9913(9)
S3 S 0.7827(4) 0.2732(2) 0.7591(2)
O20 O 0.6801(9) 0.2622(5) 0.7177(6)
F7 F 0.6748(16) 0.3581(7) 0.7979(11)
O21 O 0.7736(12) 0.2566(7) 0.8262(6)
F8 F 0.8617(15) 0.3635(7) 0.8060(9)
O22 O 0.8935(9) 0.2619(7) 0.7319(7)
F9 F 0.7703(19) 0.3690(7) 0.7140(8)
C95 C 0.777(2) 0.3429(12) 0.7684(18)
S3_2 S 0.2173(4) 0.7732(2) 0.2409(2)
O20_2 O 0.3199(9) 0.7622(5) 0.2823(6)
F7_2 F 0.3252(16) 0.8581(7) 0.2021(11)
O21_2 O 0.2264(12) 0.7566(7) 0.1738(6)
F8_2 F 0.1383(15) 0.8635(7) 0.1940(9)
O22_2 O 0.1065(9) 0.7619(7) 0.2681(7)
F9_2 F 0.2297(19) 0.8690(7) 0.2860(8)
C95_2 C 0.223(2) 0.8429(12) 0.2316(18)
S4 S 0.7583(4) 0.2833(2) 0.2609(2)
O23 O 0.6580(8) 0.2717(5) 0.2185(5)
F10 F 0.7353(14) 0.3819(6) 0.2290(8)
O24 O 0.7560(12) 0.2574(5) 0.3253(6)
F11 F 0.6345(12) 0.3592(6) 0.3102(8)
F12 F 0.8189(12) 0.3691(6) 0.3236(8)
C96 C 0.7360(17) 0.3517(10) 0.2849(14)
O25 O 0.8683(10) 0.2823(7) 0.2308(7)
S4_2 S 0.2417(4) 0.7833(2) 0.7391(2)
O23_2 O 0.3420(8) 0.7717(5) 0.7815(5)
F10_2 F 0.2647(14) 0.8819(6) 0.7710(8)
O24_2 O 0.2440(12) 0.7574(5) 0.6747(6)
F11_2 F 0.3655(12) 0.8592(6) 0.6898(8)
F12_2 F 0.1811(12) 0.8691(6) 0.6764(8)
C96_2 C 0.2640(17) 0.8517(10) 0.7151(14)
O25_2 O 0.1317(10) 0.7823(7) 0.7692(7)
loop_
_geom_bond_atom_site_label_1
_geom_bond_atom_site_label_2
_geom_bond_site_symmetry_1
_geom_bond_site_symmetry_2
N8 C73 1_555 1_555
C45 C3 1_555 1_555
H34 C45 1_555 1_555
C73 C45 1_555 1_555
H57 C73 1_555 1_555
C81 C3 1_555 1_555
H65 C81 1_555 1_555
C83 N8 1_555 1_555
H67 C83 1_555 1_555
Co10 N8 1_555 1_555
C81 C83 1_555 1_555
Co1 N3 1_555 1_555
Co2 O4 1_555 1_555
Co8 O1 1_555 1_555
Co10 O2 1_555 1_555
O2 C6 1_555 1_555
N3 C5 1_555 1_555
N4 Co8 1_555 1_555
O3 Co1 1_555 1_555
O4 H2 1_555 1_555
O5 Co2 1_555 1_555
O6 Co10 1_555 1_555
H3 O6 1_555 1_555
O7 Co1 1_555 1_555
O8 Co8 1_555 1_555
O9 Co2 1_555 1_555
O10 Co1 1_555 1_555
H4 O10 1_555 1_555
C1 N4 1_555 1_555
H5 C1 1_555 1_555
O11 Co10 1_555 1_555
N6 Co10 1_555 1_555
N7 Co1 1_555 1_555
C5 H7 1_555 1_555
C6 O7 1_555 1_555
C7 C1 1_555 1_555
H8 C7 1_555 1_555
C9 O5 1_555 1_555
N9 Co2 1_555 1_555
C12 C13 1_555 1_555
C13 C5 1_555 1_555
H12 C13 1_555 1_555
N10 Co2 1_555 1_555
C14 C42 1_555 1_555
C18 C36 1_555 1_555
C19 N10 1_555 1_555
H15 C19 1_555 1_555
C21 O6 1_555 1_555
H17 C21 1_555 1_555
C27 N7 1_555 1_555
H21 C27 1_555 1_555
C28 O4 1_555 1_555
H22 C28 1_555 1_555
C32 N7 1_555 1_555
H24 C32 1_555 1_555
C36 C19 1_555 1_555
H28 C36 1_555 1_555
C37 N9 1_555 1_555
H29 C37 1_555 1_555
C38 O8 1_555 1_555
C40 C18 1_555 1_555
H30 C40 1_555 1_555
C41 O3 1_555 1_555
C42 H31 1_555 1_555
C43 C14 1_555 1_555
H32 C43 1_555 1_555
C46 O1 1_555 1_555
H35 C46 1_555 1_555
C47 N6 1_555 1_555
H36 C47 1_555 1_555
C48 C12 1_555 1_555
H37 C48 1_555 1_555
C50 N10 1_555 1_555
H39 C50 1_555 1_555
C51 N6 1_555 1_555
H40 C51 1_555 1_555
C53 O10 1_555 1_555
H42 C53 1_555 1_555
C55 N3 1_555 1_555
H43 C55 1_555 1_555
C56 N9 1_555 1_555
H44 C56 1_555 1_555
C60 C46 1_555 1_555
C61 C60 1_555 1_555
H48 C61 1_555 1_555
C64 C21 1_555 1_555
O12 C41 1_555 1_555
C65 C53 1_555 1_555
C66 C28 1_555 1_555
C67 C66 1_555 1_555
H51 C67 1_555 1_555
C68 C64 1_555 1_555
H52 C68 1_555 1_555
C69 C65 1_555 1_555
H53 C69 1_555 1_555
C70 C69 1_555 1_555
H54 C70 1_555 1_555
C71 C68 1_555 1_555
H55 C71 1_555 1_555
C72 C61 1_555 1_555
H56 C72 1_555 1_555
C75 C70 1_555 1_555
H59 C75 1_555 1_555
C76 C60 1_555 1_555
C78 C64 1_555 1_555
C82 C65 1_555 1_555
H66 C82 1_555 1_555
C84 C66 1_555 1_555
H68 C84 1_555 1_555
C85 C75 1_555 1_555
H69 C85 1_555 1_555
C86 H70 1_555 1_555
C87 C84 1_555 1_555
H71 C87 1_555 1_555
C89 C67 1_555 1_555
H73 C89 1_555 1_555
N13 Co1 1_555 1_555
N14 Co8 1_555 1_555
N15 Co2 1_555 1_555
N17 Co10 1_555 1_555
N18 Co8 1_555 1_555
O9 C38 1_555 1_555
O11 C9 1_555 1_555
C6 C21 1_555 1_555
C7 C24 1_555 1_555
C9 C28 1_555 1_555
C38 C46 1_555 1_555
C40 C50 1_555 1_555
C41 C53 1_555 1_555
C42 C51 1_555 1_555
C43 C47 1_555 1_555
C48 C55 1_555 1_555
C82 C85 1_555 1_555
C86 C87 1_555 1_555
C86 C89 1_555 1_555
H11 C11 1_555 1_555
C20 C11 1_555 1_555
H16 C20 1_555 1_555
C26 C31 1_555 1_555
C29 C34 1_555 1_555
C31 C33 1_555 1_555
H25 C33 1_555 1_555
C34 H26 1_555 1_555
C35 C31 1_555 1_555
H27 C35 1_555 1_555
C49 C26 1_555 1_555
H38 C49 1_555 1_555
C52 C29 1_555 1_555
H41 C52 1_555 1_555
C54 C29 1_555 1_555
C57 C54 1_555 1_555
H45 C57 1_555 1_555
C59 C26 1_555 1_555
H47 C59 1_555 1_555
C62 C57 1_555 1_555
H49 C62 1_555 1_555
N11 C62 1_555 1_555
C63 C54 1_555 1_555
H50 C63 1_555 1_555
C77 N11 1_555 1_555
H61 C77 1_555 1_555
N12 C79 1_555 1_555
C79 C59 1_555 1_555
H63 C79 1_555 1_555
C80 C49 1_555 1_555
H72 C88 1_555 1_555
H74 C90 1_555 1_555
H75 C91 1_555 1_555
H76 C92 1_555 1_555
Co9 N12 1_555 1_555
Co11 N11 1_555 1_555
C63 C77 1_555 1_555
N12 C80 1_555 1_555
C88 C90 1_555 1_555
C91 C92 1_555 1_555
N13 C15 1_555 1_555
N14 C10 1_555 1_555
N15 C22 1_555 1_555
C8 C4 1_555 1_555
H9 C8 1_555 1_555
C10 C8 1_555 1_555
H10 C10 1_555 1_555
C15 H13 1_555 1_555
C16 N13 1_555 1_555
H14 C16 1_555 1_555
C22 H18 1_555 1_555
C23 C15 1_555 1_555
H19 C23 1_555 1_555
C30 C16 1_555 1_555
H23 C30 1_555 1_555
C44 C17 1_555 1_555
H33 C44 1_555 1_555
C58 C17 1_555 1_555
H46 C58 1_555 1_555
C74 N15 1_555 1_555
H58 C74 1_555 1_555
C22 C44 1_555 1_555
C23 C39 1_555 1_555
C30 C39 1_555 1_555
C58 C74 1_555 1_555
N1 C15_2 1_555 1_555
N2 C10_2 1_555 1_555
N5 C22_2 1_555 1_555
C8_2 C4_2 1_555 1_555
H9_2 C8_2 1_555 1_555
C10_2 C8_2 1_555 1_555
H10_2 C10_2 1_555 1_555
C15_2 H13_2 1_555 1_555
C16_2 N1 1_555 1_555
H14_2 C16_2 1_555 1_555
C22_2 H18_2 1_555 1_555
C23_2 C15_2 1_555 1_555
H19_2 C23_2 1_555 1_555
C30_2 C16_2 1_555 1_555
H23_2 C30_2 1_555 1_555
C44_2 C17_2 1_555 1_555
H33_2 C44_2 1_555 1_555
C58_2 C17_2 1_555 1_555
H46_2 C58_2 1_555 1_555
C74_2 N5 1_555 1_555
H58_2 C74_2 1_555 1_555
Co5 N1 1_555 1_555
Co6 N5 1_555 1_555
Co9 N2 1_555 1_555
C22_2 C44_2 1_555 1_555
C23_2 C39_2 1_555 1_555
C30_2 C39_2 1_555 1_555
C58_2 C74_2 1_555 1_555
H11_2 C11_2 1_555 1_555
C20_2 C11_2 1_555 1_555
H16_2 C20_2 1_555 1_555
Co5 N3_2 1_555 1_555
Co6 O4_2 1_555 1_555
Co9 O1_2 1_555 1_555
Co11 O2_2 1_555 1_555
O2_2 C6_2 1_555 1_555
N3_2 C5_2 1_555 1_555
N4_2 Co9 1_555 1_555
O3_2 Co5 1_555 1_555
O4_2 H2_2 1_555 1_555
O5_2 Co6 1_555 1_555
O6_2 Co11 1_555 1_555
H3_2 O6_2 1_555 1_555
O7_2 Co5 1_555 1_555
O8_2 Co9 1_555 1_555
O9_2 Co6 1_555 1_555
O10_2 Co5 1_555 1_555
H4_2 O10_2 1_555 1_555
C1_2 N4_2 1_555 1_555
H5_2 C1_2 1_555 1_555
O11_2 Co11 1_555 1_555
N6_2 Co11 1_555 1_555
N7_2 Co5 1_555 1_555
C5_2 H7_2 1_555 1_555
C6_2 O7_2 1_555 1_555
C7_2 C1_2 1_555 1_555
H8_2 C7_2 1_555 1_555
C9_2 O5_2 1_555 1_555
N9_2 Co6 1_555 1_555
C12_2 C13_2 1_555 1_555
C13_2 C5_2 1_555 1_555
H12_2 C13_2 1_555 1_555
N10_2 Co6 1_555 1_555
C14_2 C42_2 1_555 1_555
C18_2 C36_2 1_555 1_555
C19_2 N10_2 1_555 1_555
H15_2 C19_2 1_555 1_555
C21_2 O6_2 1_555 1_555
H17_2 C21_2 1_555 1_555
C26_2 C31_2 1_555 1_555
C27_2 N7_2 1_555 1_555
H21_2 C27_2 1_555 1_555
C28_2 O4_2 1_555 1_555
H22_2 C28_2 1_555 1_555
C29_2 C34_2 1_555 1_555
C31_2 C33_2 1_555 1_555
C32_2 N7_2 1_555 1_555
H24_2 C32_2 1_555 1_555
C33_2 C27_2 1_555 1_555
H25_2 C33_2 1_555 1_555
C34_2 H26_2 1_555 1_555
C35_2 C31_2 1_555 1_555
H27_2 C35_2 1_555 1_555
C36_2 C19_2 1_555 1_555
H28_2 C36_2 1_555 1_555
C37_2 N9_2 1_555 1_555
H29_2 C37_2 1_555 1_555
C38_2 O8_2 1_555 1_555
C40_2 C18_2 1_555 1_555
H30_2 C40_2 1_555 1_555
C41_2 O3_2 1_555 1_555
C42_2 H31_2 1_555 1_555
C43_2 C14_2 1_555 1_555
H32_2 C43_2 1_555 1_555
C46_2 O1_2 1_555 1_555
H35_2 C46_2 1_555 1_555
C47_2 N6_2 1_555 1_555
H36_2 C47_2 1_555 1_555
C48_2 C12_2 1_555 1_555
H37_2 C48_2 1_555 1_555
C49_2 C26_2 1_555 1_555
H38_2 C49_2 1_555 1_555
C50_2 N10_2 1_555 1_555
H39_2 C50_2 1_555 1_555
C51_2 N6_2 1_555 1_555
H40_2 C51_2 1_555 1_555
C52_2 C29_2 1_555 1_555
H41_2 C52_2 1_555 1_555
C53_2 O10_2 1_555 1_555
H42_2 C53_2 1_555 1_555
C54_2 C29_2 1_555 1_555
C55_2 N3_2 1_555 1_555
H43_2 C55_2 1_555 1_555
C56_2 N9_2 1_555 1_555
H44_2 C56_2 1_555 1_555
C57_2 C54_2 1_555 1_555
H45_2 C57_2 1_555 1_555
C59_2 C26_2 1_555 1_555
H47_2 C59_2 1_555 1_555
C60_2 C46_2 1_555 1_555
C61_2 C60_2 1_555 1_555
H48_2 C61_2 1_555 1_555
C62_2 C57_2 1_555 1_555
H49_2 C62_2 1_555 1_555
N17 C62_2 1_555 1_555
C63_2 C54_2 1_555 1_555
H50_2 C63_2 1_555 1_555
C64_2 C21_2 1_555 1_555
O13 C41_2 1_555 1_555
C65_2 C53_2 1_555 1_555
C66_2 C28_2 1_555 1_555
C67_2 C66_2 1_555 1_555
H51_2 C67_2 1_555 1_555
C68_2 C64_2 1_555 1_555
H52_2 C68_2 1_555 1_555
C69_2 C65_2 1_555 1_555
H53_2 C69_2 1_555 1_555
C70_2 C69_2 1_555 1_555
H54_2 C70_2 1_555 1_555
C71_2 C68_2 1_555 1_555
H55_2 C71_2 1_555 1_555
C72_2 C61_2 1_555 1_555
H56_2 C72_2 1_555 1_555
C75_2 C70_2 1_555 1_555
H59_2 C75_2 1_555 1_555
C76_2 C60_2 1_555 1_555
H60_2 C76_2 1_555 1_555
C77_2 N17 1_555 1_555
H61_2 C77_2 1_555 1_555
C78_2 C64_2 1_555 1_555
H62_2 C78_2 1_555 1_555
N18 C79_2 1_555 1_555
C79_2 C59_2 1_555 1_555
H63_2 C79_2 1_555 1_555
C80_2 C49_2 1_555 1_555
C82_2 C65_2 1_555 1_555
H66_2 C82_2 1_555 1_555
C84_2 C66_2 1_555 1_555
H68_2 C84_2 1_555 1_555
C85_2 C75_2 1_555 1_555
H69_2 C85_2 1_555 1_555
C86_2 H70_2 1_555 1_555
C87_2 C84_2 1_555 1_555
H71_2 C87_2 1_555 1_555
C88_2 C78_2 1_555 1_555
H72_2 C88_2 1_555 1_555
C89_2 C67_2 1_555 1_555
H73_2 C89_2 1_555 1_555
C90_2 C71_2 1_555 1_555
H74_2 C90_2 1_555 1_555
C91_2 C72_2 1_555 1_555
H75_2 C91_2 1_555 1_555
C92_2 C76_2 1_555 1_555
H76_2 C92_2 1_555 1_555
N16 Co11 1_555 1_555
O9_2 C38_2 1_555 1_555
O11_2 C9_2 1_555 1_555
C6_2 C21_2 1_555 1_555
C7_2 C24_2 1_555 1_555
C9_2 C28_2 1_555 1_555
C32_2 C35_2 1_555 1_555
C34_2 C37_2 1_555 1_555
C38_2 C46_2 1_555 1_555
C40_2 C50_2 1_555 1_555
C41_2 C53_2 1_555 1_555
C42_2 C51_2 1_555 1_555
C43_2 C47_2 1_555 1_555
C48_2 C55_2 1_555 1_555
C52_2 C56_2 1_555 1_555
C63_2 C77_2 1_555 1_555
N18 C80_2 1_555 1_555
C82_2 C85_2 1_555 1_555
C86_2 C87_2 1_555 1_555
C86_2 C89_2 1_555 1_555
C88_2 C90_2 1_555 1_555
C91_2 C92_2 1_555 1_555
N16 C73_2 1_555 1_555
C45_2 C3_2 1_555 1_555
H34_2 C45_2 1_555 1_555
C73_2 C45_2 1_555 1_555
H57_2 C73_2 1_555 1_555
C81_2 C3_2 1_555 1_555
H65_2 C81_2 1_555 1_555
C83_2 N16 1_555 1_555
H67_2 C83_2 1_555 1_555
C81_2 C83_2 1_555 1_555
C2 H6 1_555 1_555
H20 C25 1_555 1_555
C2 C25 1_555 1_555
C2_2 H6_2 1_555 1_555
H20_2 C25_2 1_555 1_555
C2_2 C25_2 1_555 1_555
S1 O14 1_555 1_555
O15 S1 1_555 1_555
O16 S1 1_555 1_555
F1 C93 1_555 1_555
F2 C93 1_555 1_555
F3 C93 1_555 1_555
S1_2 O14_2 1_555 1_555
O15_2 S1_2 1_555 1_555
O16_2 S1_2 1_555 1_555
F1_2 C93_2 1_555 1_555
F2_2 C93_2 1_555 1_555
F3_2 C93_2 1_555 1_555
C93_2 S1_2 1_555 1_555
O18 S2 1_555 1_555
F6 C94 1_555 1_555
F6_2 C94_2 1_555 1_555
O18_2 S2_2 1_555 1_555
S3 O20 1_555 1_555
F7 C95 1_555 1_555
O21 S3 1_555 1_555
F8 C95 1_555 1_555
O22 S3 1_555 1_555
F9 C95 1_555 1_555
C95 S3 1_555 1_555
S3_2 O20_2 1_555 1_555
F7_2 C95_2 1_555 1_555
O21_2 S3_2 1_555 1_555
F8_2 C95_2 1_555 1_555
O22_2 S3_2 1_555 1_555
F9_2 C95_2 1_555 1_555
C95_2 S3_2 1_555 1_555
S4 O23 1_555 1_555
F10 C96 1_555 1_555
O24 S4 1_555 1_555
F11 C96 1_555 1_555
F12 C96 1_555 1_555
C96 S4 1_555 1_555
O25 S4 1_555 1_555
S4_2 O23_2 1_555 1_555
F10_2 C96_2 1_555 1_555
O24_2 S4_2 1_555 1_555
F11_2 C96_2 1_555 1_555
F12_2 C96_2 1_555 1_555
C96_2 S4_2 1_555 1_555
O25_2 S4_2 1_555 1_555

#END
