
###############################################################################
#
# This file contains modified crystal structure data generated from the
# MOF subset of the Cambridge Structural Database (CSD) v543 
# hosted by the Cambridge Crystallographic Data Centre (CCDC).
#
# This work is licensed under the Creative Commons
# Attribution-NonCommercial-ShareAlike 4.0 International License.
# To view a copy of this license, visit
# http://creativecommons.org/licenses/by-nc-sa/4.0/
# or send a letter to
# Creative Commons, PO Box 1866, Mountain View, CA 94042, USA.
#
# CIF created using the CSD Python API on 29 September 2022
# The structure has been converted into the P1 space group
# The structure has a 3D framework
# The original CSD entry NEHJES is in the monoclinic crystal system
# The original CSD entry NEHJES is in a Sohncke space group
# The framework has been calculated to contain at least 10.0% void space
# The void calculation uses a probe of radius 1.32A, grid spacing 0.4
# The framework is charged, counterions have been retained in the structure
#
###############################################################################

data_NEHJES
_chemical_formula_moiety         '(C192 H152 Co8 F24 N24 O48 S8)n'
_symmetry_cell_setting           triclinic
_symmetry_space_group_name_H-M   'P 1'
_symmetry_Int_Tables_number      1
_space_group_name_Hall           'P 1'
loop_
_symmetry_equiv_pos_site_id
_symmetry_equiv_pos_as_xyz
1 x,y,z
_cell_length_a                   11.4238(3)
_cell_length_b                   25.4376(6)
_cell_length_c                   20.5084(5)
_cell_angle_alpha                90
_cell_angle_beta                 90.9984(14)
_cell_angle_gamma                90
_cell_volume                     5958.71
loop_
_atom_site_label
_atom_site_type_symbol
_atom_site_fract_x
_atom_site_fract_y
_atom_site_fract_z
Co8 Co 0.02252(15) 0.23441(12) 0.22261(9)
Co6 Co 0.01615(16) 0.23244(12) 0.72464(9)
Co10 Co 0.02983(16) 0.31507(12) 0.47460(9)
O1 O 0.0112(7) 0.3178(3) 0.2410(4)
C2 C 0.3231(15) 0.4058(7) 0.2278(9)
H3 H 0.3936 0.3940 0.2483
C3 C 0.0249(9) 0.3174(5) 0.1239(5)
O2 O 0.0300(7) 0.3413(3) 0.0706(4)
C16 C 0.1244(12) 0.3870(5) 0.1904(6)
C21 C 0.5892(10) 0.2259(5) 0.2219(6)
C22 C 0.7715(10) 0.2186(5) 0.1673(6)
H16 H 0.8125 0.2131 0.1280
C24 C 0.3147(16) 0.4561(8) 0.2028(9)
H18 H 0.3794 0.4795 0.2061
O7 O 0.0231(7) 0.2674(3) 0.1298(4)
C29 C 0.2268(12) 0.3725(6) 0.2224(7)
H24 H 0.2316 0.3385 0.2414
H25 H 0.116(6) 0.232(4) 0.017(4)
N6 N 0.8342(8) 0.2290(4) 0.2228(4)
C33 C 0.2131(19) 0.4717(7) 0.1736(9)
H28 H 0.2071 0.5067 0.1577
C34 C 0.4598(10) 0.2266(5) 0.2229(5)
C38 C 0.2744(10) 0.2423(6) 0.1705(6)
H32 H 0.2320 0.2523 0.1322
C39 C 0.1171(15) 0.4383(6) 0.1660(8)
H33 H 0.0477 0.4501 0.1444
N12 N 0.2142(8) 0.2319(5) 0.2230(5)
C48 C 0.6527(11) 0.2364(7) 0.2794(6)
H40 H 0.6132 0.2420 0.3192
C50 C 0.6500(11) 0.2155(5) 0.1656(6)
H42 H 0.6094 0.2064 0.1264
C53 C 0.3931(10) 0.2398(6) 0.1671(6)
H46 H 0.4308 0.2469 0.1271
C54 C 0.0214(10) 0.3517(5) 0.1843(6)
C57 C 0.3961(10) 0.2149(6) 0.2772(6)
H50 H 0.4359 0.2046 0.3162
C68 C 0.2765(12) 0.2177(6) 0.2761(7)
H56 H 0.2357 0.2093 0.3147
C87 C 0.7743(11) 0.2386(7) 0.2775(6)
H71 H 0.8167 0.2472 0.3164
O13 O 0.0232(7) 0.2120(3) 0.3181(4)
N14 N 0.0228(8) 0.1560(4) 0.1893(5)
Co1 Co 0.02740(16) 0.31802(12) 0.97441(9)
C5 C 0.3913(11) 0.2190(6) 0.7838(6)
H5 H 0.4330 0.2139 0.8238
C6 C 0.2855(15) 0.4440(8) 0.6453(9)
H6 H 0.2985 0.4742 0.6191
O4 O 0.0173(7) 0.2646(3) 0.6314(4)
H8 H 0.0738 0.0105 0.5267
N4 N 0.0154(8) 0.3957(4) 0.9348(5)
C13 C 0.1578(11) 0.3763(6) 0.6860(6)
O5 O 0.0136(7) 0.2846(3) 0.8796(4)
H13 H 0.0383 0.0991 0.3920
C20 C 0.0148(12) 0.0611(5) 0.7053(6)
H15 H 0.0193 0.0327 0.7353
O6 O 0.0193(7) 0.2838(4) 0.3802(4)
N5 N 0.8272(8) 0.2329(4) 0.7246(5)
C26 C 0.2538(13) 0.3576(7) 0.7232(7)
H20 H 0.2425 0.3296 0.7532
O8 O 0.0261(7) 0.3169(4) 0.7423(4)
C28 C 0.3774(17) 0.4232(10) 0.6805(10)
H23 H 0.4517 0.4399 0.6794
O9 O 0.0128(7) 0.2104(3) 0.8209(4)
O10 O 0.0531(7) 0.2354(4) 0.9907(4)
C31 C 0.011(2) 0.6165(7) 0.7759(9)
H26 H 0.0320 0.6238 0.7323
N7 N 0.8421(9) 0.3143(4) 0.4782(5)
N8 N 0.0114(9) 0.1538(4) 0.6868(5)
C35 C 0.4014(11) 0.3107(6) 0.4177(7)
H29 H 0.4399 0.3042 0.3778
C37 C 0.3642(16) 0.3792(8) 0.7169(9)
H31 H 0.4301 0.3633 0.7378
N9 N 0.2063(9) 0.2258(5) 0.7274(5)
N10 N 0.2199(8) 0.3201(4) 0.4728(5)
C45 C 0.5954(10) 0.3173(6) 0.4761(6)
H39 H 0.0402 0.0972 0.9170
C47 C 0.5826(10) 0.2284(5) 0.7239(6)
C49 C 0.1736(13) 0.4222(6) 0.6468(8)
H41 H 0.1102 0.4373 0.6228
O11 O 0.0500(8) 0.2308(4) 0.4898(4)
H44 H 0.109(8) 0.226(6) 0.519(5)
C52 C 0.7658(11) 0.2453(6) 0.7773(6)
H45 H 0.8071 0.2561 0.8156
C55 C 0.2714(11) 0.2191(5) 0.7829(7)
H48 H 0.2319 0.2143 0.8229
C56 C 0.0555(12) 0.4078(5) 0.8762(6)
H49 H 0.0936 0.3814 0.8516
C58 C 0.4669(10) 0.3186(5) 0.4741(6)
C59 C 0.2814(10) 0.3123(6) 0.4187(6)
H51 H 0.2395 0.3075 0.3787
O12 O 0.0327(7) 0.3372(4) 0.5700(4)
C60 C 0.0035(11) 0.0510(5) 0.6384(6)
C61 C 0.0437(12) 0.4564(6) 0.8508(7)
H52 H 0.0696 0.4623 0.8076
C63 C 0.0200(9) 0.2364(6) 0.8742(5)
C64 C 0.0300(10) 0.3141(6) 0.6242(6)
C65 C 0.4517(10) 0.2263(5) 0.7273(6)
C67 C 0.0465(12) 0.2000(5) 0.4313(6)
H55 H 0.1225 0.1809 0.4273
C70 C 0.0292(9) 0.2361(5) 0.3715(6)
C71 C 0.0022(13) 0.1432(6) 0.6228(6)
C72 C 0.6447(10) 0.2154(5) 0.6688(6)
H58 H 0.6049 0.2040 0.6302
C73 C 0.6471(11) 0.2431(6) 0.7787(6)
H59 H 0.6078 0.2517 0.8177
C74 C 0.7812(9) 0.3264(6) 0.4244(6)
H60 H 0.8235 0.3347 0.3863
C75 C 0.3846(11) 0.2308(6) 0.6685(6)
H61 H 0.4223 0.2338 0.6278
C76 C 0.6581(11) 0.3051(6) 0.5331(6)
H62 H 0.6178 0.2973 0.5721
C79 C 0.7636(11) 0.2191(6) 0.6706(6)
H64 H 0.8046 0.2116 0.6318
C80 C 0.7799(12) 0.3043(6) 0.5328(7)
H65 H 0.8212 0.2965 0.5722
C81 C 0.0448(12) 0.2019(5) 0.9342(5)
H66 H 0.1209 0.1831 0.9287
C82 C 0.2638(10) 0.2309(6) 0.6714(6)
H67 H 0.2197 0.2346 0.6319
C83 C 0.2822(12) 0.3291(7) 0.5281(7)
H68 H 0.2414 0.3366 0.5670
C86 C 0.018(2) 0.5643(7) 0.7958(8)
H70 H 0.0437 0.5378 0.7667
C88 C 0.0428(12) 0.3495(5) 0.6853(5)
C89 C 0.0193(12) 0.1123(5) 0.7277(6)
H73 H 0.0281 0.1184 0.7732
C91 C 0.6621(11) 0.3277(6) 0.4204(6)
H75 H 0.6240 0.3356 0.3801
C92 C 0.4033(11) 0.3279(7) 0.5304(7)
H76 H 0.4435 0.3335 0.5707
N13 N 0.2171(9) 0.3250(4) 0.9744(5)
N18 N 0.0172(8) 0.3935(4) 0.4369(5)
H1 H 0.941(5) 0.316(4) 0.260(5)
C4 C 0.7760(11) 0.3099(6) 0.0313(6)
H4 H 0.8177 0.3019 0.0705
C19 C 0.4008(11) 0.3362(6) 0.0309(7)
H14 H 0.4414 0.3421 0.0710
C23 C 0.6551(11) 0.3120(6) 0.0336(6)
H17 H 0.6158 0.3052 0.0731
C40 C 0.2791(11) 0.3374(6) 0.0287(6)
H34 H 0.2383 0.3472 0.0668
H47 H 0.9494 0.3741 0.1812
H54 H 0.9342 0.4259 0.0104
C1 C 0.8377(15) 0.1722(7) 0.4589(9)
H2 H 0.8240 0.2068 0.4746
N2 N 0.8385(9) 0.3182(4) 0.9776(5)
C7 C 0.6563(12) 0.3350(6) 0.9202(6)
H7 H 0.6176 0.3441 0.8805
N3 N 0.9772(8) 0.6560(4) 0.8107(5)
C8 C 0.9485(13) 0.1619(6) 0.9442(6)
C10 C 0.876(2) 0.0727(7) 0.9483(12)
H9 H 0.8882 0.0362 0.9412
C11 C 0.9973(13) 0.0929(5) 0.5966(7)
H10 H 0.9899 0.0877 0.5509
C12 C 0.8404(14) 0.1777(7) 0.9701(8)
H11 H 0.8264 0.2135 0.9807
C14 C 0.9475(15) 0.1598(6) 0.4358(7)
C15 C 0.772(2) 0.0890(10) 0.9719(12)
H12 H 0.7124 0.0643 0.9823
C17 C 0.9657(19) 0.1081(7) 0.4109(9)
C18 C 0.5912(10) 0.3244(5) 0.9760(6)
C25 C 0.9585(18) 0.5935(6) 0.8978(7)
H19 H 0.9449 0.5884 0.9429
C27 C 0.771(3) 0.0872(11) 0.4400(16)
H21 H 0.7109 0.0617 0.4436
H22 H 0.948(3) 0.318(6) 0.747(7)
C30 C 0.4636(11) 0.3263(5) 0.9744(6)
C32 C 0.748(2) 0.1361(10) 0.4599(15)
H27 H 0.6718 0.1456 0.4741
C36 C 0.2765(10) 0.3159(5) 0.9204(6)
H30 H 0.2337 0.3083 0.8814
C41 C 0.754(2) 0.1395(10) 0.9801(11)
H35 H 0.6788 0.1508 0.9935
C42 C 0.7776(10) 0.3320(5) 0.9232(6)
H36 H 0.8200 0.3401 0.8850
C43 C 0.9492(18) 0.6431(7) 0.8699(9)
H37 H 0.9195 0.6704 0.8967
C44 C 0.877(2) 0.0711(8) 0.4145(12)
H38 H 0.8886 0.0360 0.4000
C46 C 0.9678(17) 0.1092(7) 0.9336(9)
C51 C 0.3972(11) 0.3169(6) 0.9179(6)
H43 H 0.4351 0.3112 0.8777
C62 C 0.9558(15) 0.4844(6) 0.9439(7)
H53 H 0.9201 0.5107 0.9697
C66 C 0.9648(15) 0.4336(6) 0.9686(7)
C69 C 0.9880(11) 0.5520(5) 0.8583(6)
H57 H 0.9987 0.1721 0.5935
C77 C 0.9960(12) 0.4977(5) 0.8844(6)
H72 H 0.9797 0.3767 0.6837
Co9 Co 0.97748(15) 0.73441(12) 0.77739(9)
N11 N 0.9828(8) 0.8935(4) 0.5631(5)
C78 C 0.9491(11) 0.9552(5) 0.6490(6)
H63 H 0.9215 0.9611 0.6918
C84 C 0.9956(11) 0.9962(6) 0.6131(7)
C85 C 0.9434(12) 0.9059(5) 0.6219(6)
H69 H 0.9089 0.8787 0.6469
Co11 Co 0.97017(16) 0.81507(12) 0.52540(9)
C25_2 C 0.0415(18) 0.0935(6) 0.1022(7)
H19_2 H 0.0551 0.0884 0.0571
C43_2 C 0.0508(18) 0.1431(7) 0.1301(9)
H37_2 H 0.0805 0.1704 0.1033
H53_2 H 0.0799 0.0107 0.0303
C69_2 C 0.0120(11) 0.0520(5) 0.1417(6)
N1 N 0.7829(9) 0.8250(4) 0.0256(5)
C1_2 C 0.1623(15) 0.6722(7) 0.5411(9)
H2_2 H 0.1760 0.7068 0.5254
N2_2 N 0.1615(9) 0.8182(4) 0.0224(5)
C7_2 C 0.3437(12) 0.8350(6) 0.0798(6)
H7_2 H 0.3824 0.8441 0.1195
C8_2 C 0.0515(13) 0.6619(6) 0.0558(6)
C10_2 C 0.124(2) 0.5727(7) 0.0517(12)
H9_2 H 0.1118 0.5362 0.0588
C11_2 C 0.0027(13) 0.5929(5) 0.4034(7)
H10_2 H 0.0101 0.5877 0.4491
C12_2 C 0.1596(14) 0.6777(7) 0.0299(8)
H11_2 H 0.1736 0.7135 0.0193
C14_2 C 0.0525(15) 0.6598(6) 0.5642(7)
C15_2 C 0.228(2) 0.5890(10) 0.0281(12)
H12_2 H 0.2876 0.5643 0.0177
C17_2 C 0.0343(19) 0.6081(7) 0.5891(9)
C18_2 C 0.4088(10) 0.8244(5) 0.0240(6)
C27_2 C 0.229(3) 0.5872(11) 0.5600(16)
H21_2 H 0.2891 0.5617 0.5564
H22_2 H 0.052(3) 0.818(6) 0.253(7)
C30_2 C 0.5364(11) 0.8263(5) 0.0256(6)
C32_2 C 0.252(2) 0.6361(10) 0.5401(15)
H27_2 H 0.3282 0.6456 0.5259
C36_2 C 0.7235(10) 0.8159(5) 0.0796(6)
H30_2 H 0.7663 0.8083 0.1186
C41_2 C 0.246(2) 0.6395(10) 0.0199(11)
H35_2 H 0.3212 0.6508 0.0065
C42_2 C 0.2224(10) 0.8320(5) 0.0768(6)
H36_2 H 0.1800 0.8401 0.1150
C44_2 C 0.123(2) 0.5711(8) 0.5855(12)
H38_2 H 0.1114 0.5360 0.6000
C46_2 C 0.0322(17) 0.6092(7) 0.0664(9)
C51_2 C 0.6028(11) 0.8169(6) 0.0821(6)
H43_2 H 0.5649 0.8112 0.1223
C62_2 C 0.0442(15) 0.9844(6) 0.0561(7)
C66_2 C 0.0352(15) 0.9336(6) 0.0314(7)
H57_2 H 0.0013 0.6721 0.4065
C77_2 C 0.0040(12) 0.9977(5) 0.1156(6)
C78_2 C 0.0509(11) 0.4552(5) 0.3510(6)
H63_2 H 0.0785 0.4611 0.3082
C84_2 C 0.0044(11) 0.4962(6) 0.3869(7)
C85_2 C 0.0566(12) 0.4059(5) 0.3781(6)
H69_2 H 0.0911 0.3787 0.3531
H72_2 H 0.0203 0.8767 0.3163
Co5 Co 0.97260(16) 0.81802(12) 0.02559(9)
N15 N 0.1728(8) 0.7329(4) 0.2754(5)
N17 N 0.1579(9) 0.8143(4) 0.5218(5)
H1_2 H 0.059(5) 0.816(4) 0.740(5)
C4_2 C 0.2240(11) 0.8099(6) 0.9687(6)
H4_2 H 0.1823 0.8019 0.9295
C19_2 C 0.5992(11) 0.8362(6) 0.9691(7)
H14_2 H 0.5586 0.8421 0.9290
C23_2 C 0.3449(11) 0.8120(6) 0.9664(6)
H17_2 H 0.3842 0.8052 0.9269
C40_2 C 0.7209(11) 0.8374(6) 0.9713(6)
H34_2 H 0.7617 0.8472 0.9332
H47_2 H 0.0506 0.8741 0.8188
H54_2 H 0.0658 0.9259 0.9896
N16 N 0.1658(8) 0.7290(4) 0.7772(4)
O3 O 0.9768(7) 0.7120(3) 0.6819(4)
C5_2 C 0.6087(11) 0.7190(6) 0.2162(6)
H5_2 H 0.5670 0.7139 0.1762
C6_2 C 0.7145(15) 0.9440(8) 0.3547(9)
H6_2 H 0.7015 0.9742 0.3809
O4_2 O 0.9827(7) 0.7646(3) 0.3686(4)
Co2 Co 0.98385(16) 0.73244(12) 0.27536(9)
C9 C 0.9613(13) 0.4838(5) 0.4477(8)
H8_2 H 0.9262 0.5105 0.4733
N4_2 N 0.9846(8) 0.8957(4) 0.0652(5)
C13_2 C 0.8422(11) 0.8763(6) 0.3140(6)
O5_2 O 0.9864(7) 0.7846(3) 0.1204(4)
H13_2 H 0.9617 0.5991 0.6080
C20_2 C 0.9852(12) 0.5611(5) 0.2947(6)
H15_2 H 0.9807 0.5327 0.2647
O6_2 O 0.9807(7) 0.7838(4) 0.6198(4)
C26_2 C 0.7462(13) 0.8576(7) 0.2768(7)
H20_2 H 0.7575 0.8296 0.2468
O8_2 O 0.9739(7) 0.8169(4) 0.2577(4)
C28_2 C 0.6226(17) 0.9232(10) 0.3195(10)
H23_2 H 0.5483 0.9399 0.3206
O9_2 O 0.9872(7) 0.7104(3) 0.1791(4)
O10_2 O 0.9469(7) 0.7354(4) 0.0093(4)
N8_2 N 0.9886(9) 0.6538(4) 0.3132(5)
C35_2 C 0.5986(11) 0.8107(6) 0.5823(7)
H29_2 H 0.5601 0.8042 0.6222
C37_2 C 0.6358(16) 0.8792(8) 0.2831(9)
H31_2 H 0.5699 0.8633 0.2622
N9_2 N 0.7937(9) 0.7258(5) 0.2726(5)
N10_2 N 0.7801(8) 0.8201(4) 0.5272(5)
C45_2 C 0.4046(10) 0.8173(6) 0.5239(6)
H39_2 H 0.9598 0.5972 0.0830
C47_2 C 0.4174(10) 0.7284(5) 0.2761(6)
C49_2 C 0.8264(13) 0.9222(6) 0.3532(8)
H41_2 H 0.8898 0.9373 0.3772
O11_2 O 0.9500(8) 0.7308(4) 0.5102(4)
H44_2 H 0.891(8) 0.726(6) 0.481(5)
C52_2 C 0.2342(11) 0.7453(6) 0.2227(6)
H45_2 H 0.1929 0.7561 0.1844
C55_2 C 0.7286(11) 0.7191(5) 0.2171(7)
H48_2 H 0.7681 0.7143 0.1771
C56_2 C 0.9445(12) 0.9078(5) 0.1238(6)
H49_2 H 0.9064 0.8814 0.1484
C58_2 C 0.5331(10) 0.8186(5) 0.5259(6)
C59_2 C 0.7186(10) 0.8123(6) 0.5813(6)
H51_2 H 0.7605 0.8075 0.6213
O12_2 O 0.9673(7) 0.8372(4) 0.4300(4)
C60_2 C 0.9965(11) 0.5510(5) 0.3616(6)
C61_2 C 0.9563(12) 0.9564(6) 0.1492(7)
H52_2 H 0.9304 0.9623 0.1924
C63_2 C 0.9800(9) 0.7364(6) 0.1258(5)
C64_2 C 0.9700(10) 0.8141(6) 0.3758(6)
C65_2 C 0.5483(10) 0.7263(5) 0.2727(6)
C67_2 C 0.9535(12) 0.7000(5) 0.5687(6)
H55_2 H 0.8775 0.6809 0.5727
C70_2 C 0.9708(9) 0.7361(5) 0.6285(6)
C71_2 C 0.9978(13) 0.6432(6) 0.3772(6)
C72_2 C 0.3553(10) 0.7154(5) 0.3312(6)
H58_2 H 0.3951 0.7040 0.3698
C73_2 C 0.3529(11) 0.7431(6) 0.2213(6)
H59_2 H 0.3922 0.7517 0.1823
C74_2 C 0.2188(9) 0.8264(6) 0.5756(6)
H60_2 H 0.1765 0.8347 0.6137
C75_2 C 0.6154(11) 0.7308(6) 0.3315(6)
H61_2 H 0.5777 0.7338 0.3722
C76_2 C 0.3419(11) 0.8051(6) 0.4669(6)
H62_2 H 0.3822 0.7973 0.4279
C79_2 C 0.2364(11) 0.7191(6) 0.3294(6)
H64_2 H 0.1954 0.7116 0.3682
C80_2 C 0.2201(12) 0.8043(6) 0.4672(7)
H65_2 H 0.1788 0.7965 0.4278
C81_2 C 0.9552(12) 0.7019(5) 0.0658(5)
H66_2 H 0.8791 0.6831 0.0713
C82_2 C 0.7362(10) 0.7309(6) 0.3286(6)
H67_2 H 0.7803 0.7346 0.3681
C83_2 C 0.7178(12) 0.8291(7) 0.4719(7)
H68_2 H 0.7586 0.8366 0.4330
C88_2 C 0.9572(12) 0.8495(5) 0.3147(5)
C89_2 C 0.9807(12) 0.6123(5) 0.2723(6)
H73_2 H 0.9719 0.6184 0.2268
C90 C 0.9690(12) 0.4324(5) 0.4718(6)
H74 H 0.9394 0.4248 0.5138
C91_2 C 0.3379(11) 0.8277(6) 0.5796(6)
H75_2 H 0.3760 0.8356 0.6199
C92_2 C 0.5967(11) 0.8279(7) 0.4696(7)
H76_2 H 0.5565 0.8335 0.4293
O1_2 O 0.9888(7) 0.8178(3) 0.7590(4)
C2_2 C 0.6769(15) 0.9058(7) 0.7722(9)
H3_2 H 0.6064 0.8940 0.7517
C3_2 C 0.9751(9) 0.8174(5) 0.8761(5)
O2_2 O 0.9700(7) 0.8413(3) 0.9294(4)
C16_2 C 0.8756(12) 0.8870(5) 0.8096(6)
C21_2 C 0.4108(10) 0.7259(5) 0.7781(6)
C22_2 C 0.2285(10) 0.7186(5) 0.8327(6)
H16_2 H 0.1875 0.7131 0.8720
C24_2 C 0.6853(16) 0.9561(8) 0.7972(9)
H18_2 H 0.6206 0.9795 0.7939
O7_2 O 0.9769(7) 0.7674(3) 0.8702(4)
C29_2 C 0.7732(12) 0.8725(6) 0.7776(7)
H24_2 H 0.7684 0.8385 0.7586
H25_2 H 0.884(6) 0.732(4) 0.983(4)
C33_2 C 0.7869(19) 0.9717(7) 0.8264(9)
C34_2 C 0.5402(10) 0.7266(5) 0.7771(5)
C38_2 C 0.7256(10) 0.7423(6) 0.8295(6)
H32_2 H 0.7680 0.7523 0.8678
C39_2 C 0.8829(15) 0.9383(6) 0.8340(8)
H33_2 H 0.9523 0.9501 0.8556
N12_2 N 0.7858(8) 0.7319(5) 0.7770(5)
C48_2 C 0.3473(11) 0.7364(7) 0.7206(6)
H40_2 H 0.3868 0.7420 0.6808
C50_2 C 0.3500(11) 0.7155(5) 0.8344(6)
H42_2 H 0.3906 0.7064 0.8736
C53_2 C 0.6069(10) 0.7398(6) 0.8329(6)
H46_2 H 0.5692 0.7469 0.8729
C54_2 C 0.9786(10) 0.8517(5) 0.8157(6)
C57_2 C 0.6039(10) 0.7149(6) 0.7228(6)
H50_2 H 0.5641 0.7046 0.6838
C68_2 C 0.7235(12) 0.7177(6) 0.7239(7)
H56_2 H 0.7643 0.7093 0.6853
C87_2 C 0.2257(11) 0.7386(7) 0.7225(6)
H71_2 H 0.1833 0.7472 0.6836
C9_2 C 0.0387(13) 0.9838(5) 0.5523(8)
C90_2 C 0.0310(12) 0.9324(5) 0.5282(6)
H74_2 H 0.0606 0.9248 0.4862
C31_2 C 0.989(2) 0.1165(7) 0.2241(9)
H26_2 H 0.9680 0.1238 0.2677
C86_2 C 0.982(2) 0.0643(7) 0.2042(8)
H70_2 H 0.9563 0.0378 0.2333
H28_2 H 0.7929 0.0067 0.8423
S1 S 0.3615(4) 0.17477(19) 0.49499(17)
F1 F 0.4099(16) 0.0762(5) 0.4811(9)
O14 O 0.4725(9) 0.1804(6) 0.5281(5)
F2 F 0.3142(17) 0.0948(7) 0.5683(10)
O15 O 0.2663(9) 0.2004(5) 0.5280(5)
O16 O 0.3584(11) 0.1806(6) 0.4266(4)
F3 F 0.2216(16) 0.0945(6) 0.4740(11)
C93 C 0.316(2) 0.1018(11) 0.5051(12)
S1_2 S 0.6385(4) 0.67477(19) 0.50501(17)
F1_2 F 0.5901(16) 0.5762(5) 0.5189(9)
O14_2 O 0.5275(9) 0.6804(6) 0.4719(5)
F2_2 F 0.6858(17) 0.5948(7) 0.4317(10)
O15_2 O 0.7337(9) 0.7004(5) 0.4720(5)
O16_2 O 0.6416(11) 0.6806(6) 0.5734(4)
F3_2 F 0.7784(16) 0.5945(6) 0.5260(11)
C93_2 C 0.684(2) 0.6018(11) 0.4949(12)
C94 C 0.7643(16) 0.4559(8) 0.7204(9)
O17 O 0.8395(7) 0.3736(4) 0.7808(4)
O18 O 0.7403(11) 0.3612(5) 0.6740(5)
F4 F 0.8654(10) 0.4619(5) 0.6904(6)
S2 S 0.7381(3) 0.38539(19) 0.73834(18)
F5 F 0.6800(10) 0.4730(5) 0.6785(5)
O19 O 0.6283(9) 0.3858(5) 0.7703(6)
F6 F 0.7643(10) 0.4825(5) 0.7752(6)
C94_2 C 0.2357(16) 0.9559(8) 0.2796(9)
O17_2 O 0.1605(7) 0.8736(4) 0.2192(4)
O18_2 O 0.2597(11) 0.8612(5) 0.3260(5)
F4_2 F 0.1346(10) 0.9619(5) 0.3096(6)
S2_2 S 0.2619(3) 0.88539(19) 0.26166(18)
F5_2 F 0.3200(10) 0.9730(5) 0.3215(5)
O19_2 O 0.3717(9) 0.8858(5) 0.2297(6)
F6_2 F 0.2357(10) 0.9825(5) 0.2248(6)
F7 F 0.1813(12) 0.9621(5) 0.7923(8)
S3 S 0.2903(3) 0.87609(19) 0.75946(16)
C95 C 0.280(2) 0.9475(9) 0.7649(13)
F8 F 0.2819(13) 0.9688(6) 0.7060(7)
F9 F 0.3715(10) 0.9673(5) 0.7983(7)
O20 O 0.2804(9) 0.8597(5) 0.8250(5)
O21 O 0.4007(9) 0.8660(5) 0.7307(5)
O22 O 0.1887(8) 0.8639(5) 0.7196(4)
F7_2 F 0.8187(12) 0.4621(5) 0.2077(8)
S3_2 S 0.7097(3) 0.37609(19) 0.24054(16)
C95_2 C 0.720(2) 0.4475(9) 0.2351(13)
F8_2 F 0.7181(13) 0.4688(6) 0.2940(7)
F9_2 F 0.6285(10) 0.4673(5) 0.2017(7)
O20_2 O 0.7196(9) 0.3597(5) 0.1750(5)
O21_2 O 0.5993(9) 0.3660(5) 0.2693(5)
O22_2 O 0.8113(8) 0.3639(5) 0.2804(4)
O23 O 0.4760(8) 0.2004(5) 0.0190(5)
O24 O 0.2654(8) 0.2012(4) 0.0309(4)
F12 F 0.3702(11) 0.1052(5) 0.0794(5)
C96 C 0.3657(16) 0.1105(8) 0.0152(9)
S4 S 0.3652(3) 0.18200(17) 0.99533(16)
F10 F 0.2696(9) 0.0890(4) 0.9916(7)
F11 F 0.4598(9) 0.0892(4) 0.9876(6)
O25 O 0.3481(9) 0.1834(5) 0.9265(4)
S4_2 S 0.6348(3) 0.68200(17) 0.00467(16)
F10_2 F 0.7304(9) 0.5890(4) 0.0084(7)
F11_2 F 0.5402(9) 0.5892(4) 0.0124(6)
O25_2 O 0.6519(9) 0.6834(5) 0.0735(4)
O23_2 O 0.5240(8) 0.7004(5) 0.9810(5)
O24_2 O 0.7346(8) 0.7012(4) 0.9691(4)
F12_2 F 0.6298(11) 0.6052(5) 0.9206(5)
C96_2 C 0.6343(16) 0.6105(8) 0.9848(9)
loop_
_geom_bond_atom_site_label_1
_geom_bond_atom_site_label_2
_geom_bond_site_symmetry_1
_geom_bond_site_symmetry_2
C2 H3 1_555 1_555
C3 O2 1_555 1_555
Co8 O1 1_555 1_555
C16 C29 1_555 1_555
C21 C34 1_555 1_555
C22 H16 1_555 1_555
C24 C2 1_555 1_555
H18 C24 1_555 1_555
O7 C3 1_555 1_555
C29 C2 1_555 1_555
H24 C29 1_555 1_555
N6 C22 1_555 1_555
C33 C24 1_555 1_555
H28 C33 1_555 1_555
C34 C53 1_555 1_555
C38 H32 1_555 1_555
C39 C16 1_555 1_555
H33 C39 1_555 1_555
N12 Co8 1_555 1_555
C48 C21 1_555 1_555
H40 C48 1_555 1_555
C50 C21 1_555 1_555
H42 C50 1_555 1_555
C53 C38 1_555 1_555
H46 C53 1_555 1_555
C54 O1 1_555 1_555
C57 C34 1_555 1_555
H50 C57 1_555 1_555
C68 N12 1_555 1_555
H56 C68 1_555 1_555
C87 N6 1_555 1_555
H71 C87 1_555 1_555
O13 Co8 1_555 1_555
N14 Co8 1_555 1_555
C3 C54 1_555 1_555
Co8 O7 1_555 1_555
C16 C54 1_555 1_555
C22 C50 1_555 1_555
C33 C39 1_555 1_555
C38 N12 1_555 1_555
C48 C87 1_555 1_555
C57 C68 1_555 1_555
O13 C70 1_555 1_555
C5 H5 1_555 1_555
C6 H6 1_555 1_555
O4 Co6 1_555 1_555
Co6 O8 1_555 1_555
N4 Co1 1_555 1_555
Co10 O6 1_555 1_555
C13 C26 1_555 1_555
O5 Co1 1_555 1_555
C20 H15 1_555 1_555
O6 C70 1_555 1_555
N5 C52 1_555 1_555
C26 H20 1_555 1_555
C28 C6 1_555 1_555
H23 C28 1_555 1_555
O9 Co6 1_555 1_555
O10 Co1 1_555 1_555
C31 H26 1_555 1_555
N7 C74 1_555 1_555
N8 Co6 1_555 1_555
C35 H29 1_555 1_555
C37 C26 1_555 1_555
H31 C37 1_555 1_555
N9 Co6 1_555 1_555
N10 Co10 1_555 1_555
C45 C58 1_555 1_555
C47 C65 1_555 1_555
C49 C6 1_555 1_555
H41 C49 1_555 1_555
O11 Co10 1_555 1_555
H44 O11 1_555 1_555
C52 H45 1_555 1_555
C55 C5 1_555 1_555
H48 C55 1_555 1_555
C56 N4 1_555 1_555
H49 C56 1_555 1_555
C58 C35 1_555 1_555
C59 C35 1_555 1_555
H51 C59 1_555 1_555
O12 Co10 1_555 1_555
C61 C56 1_555 1_555
H52 C61 1_555 1_555
C63 O5 1_555 1_555
C64 O4 1_555 1_555
C65 C5 1_555 1_555
H55 C67 1_555 1_555
C70 C67 1_555 1_555
C72 C47 1_555 1_555
H58 C72 1_555 1_555
C73 C47 1_555 1_555
H59 C73 1_555 1_555
C74 H60 1_555 1_555
C75 C65 1_555 1_555
H61 C75 1_555 1_555
C76 C45 1_555 1_555
H62 C76 1_555 1_555
C79 N5 1_555 1_555
H64 C79 1_555 1_555
C80 N7 1_555 1_555
H65 C80 1_555 1_555
H66 C81 1_555 1_555
C82 N9 1_555 1_555
H67 C82 1_555 1_555
C83 N10 1_555 1_555
H68 C83 1_555 1_555
C86 C31 1_555 1_555
H70 C86 1_555 1_555
C88 C13 1_555 1_555
C89 C20 1_555 1_555
H73 C89 1_555 1_555
C91 C45 1_555 1_555
H75 C91 1_555 1_555
C92 C58 1_555 1_555
H76 C92 1_555 1_555
N13 Co1 1_555 1_555
N18 Co10 1_555 1_555
C13 C49 1_555 1_555
C20 C60 1_555 1_555
O8 C88 1_555 1_555
C28 C37 1_555 1_555
O9 C63 1_555 1_555
O10 C81 1_555 1_555
N8 C71 1_555 1_555
N8 C89 1_555 1_555
N9 C55 1_555 1_555
N10 C59 1_555 1_555
O11 C67 1_555 1_555
C52 C73 1_555 1_555
O12 C64 1_555 1_555
C63 C81 1_555 1_555
C64 C88 1_555 1_555
C72 C79 1_555 1_555
C74 C91 1_555 1_555
C75 C82 1_555 1_555
C76 C80 1_555 1_555
C83 C92 1_555 1_555
C4 H4 1_555 1_555
C19 H14 1_555 1_555
C23 C4 1_555 1_555
H17 C23 1_555 1_555
H34 C40 1_555 1_555
C19 C40 1_555 1_555
N13 C36 1_555 1_555
C1 H2 1_555 1_555
C7 H7 1_555 1_555
C8 C12 1_555 1_555
C10 H9 1_555 1_555
C11 H10 1_555 1_555
C12 H11 1_555 1_555
C14 C1 1_555 1_555
C15 C10 1_555 1_555
H12 C15 1_555 1_555
C17 C14 1_555 1_555
C18 C7 1_555 1_555
C25 H19 1_555 1_555
C27 H21 1_555 1_555
C30 C18 1_555 1_555
C32 C1 1_555 1_555
H27 C32 1_555 1_555
C36 H30 1_555 1_555
C41 C12 1_555 1_555
H35 C41 1_555 1_555
C42 N2 1_555 1_555
H36 C42 1_555 1_555
C43 N3 1_555 1_555
H37 C43 1_555 1_555
C44 C17 1_555 1_555
H38 C44 1_555 1_555
C46 C8 1_555 1_555
C51 C30 1_555 1_555
H43 C51 1_555 1_555
C62 H53 1_555 1_555
C69 C25 1_555 1_555
Co9 N3 1_555 1_555
C7 C42 1_555 1_555
C10 C46 1_555 1_555
C15 C41 1_555 1_555
C25 C43 1_555 1_555
C27 C32 1_555 1_555
C27 C44 1_555 1_555
C36 C51 1_555 1_555
C62 C66 1_555 1_555
C62 C77 1_555 1_555
C69 C77 1_555 1_555
N11 C85 1_555 1_555
C78 H63 1_555 1_555
C85 C78 1_555 1_555
H69 C85 1_555 1_555
Co11 N11 1_555 1_555
C78 C84 1_555 1_555
C25_2 H19_2 1_555 1_555
C43_2 N14 1_555 1_555
H37_2 C43_2 1_555 1_555
C69_2 C25_2 1_555 1_555
C25_2 C43_2 1_555 1_555
N1 C36_2 1_555 1_555
C1_2 H2_2 1_555 1_555
C7_2 H7_2 1_555 1_555
C8_2 C12_2 1_555 1_555
C10_2 H9_2 1_555 1_555
C11_2 H10_2 1_555 1_555
C12_2 H11_2 1_555 1_555
C14_2 C1_2 1_555 1_555
C15_2 C10_2 1_555 1_555
H12_2 C15_2 1_555 1_555
C17_2 C14_2 1_555 1_555
C18_2 C7_2 1_555 1_555
C27_2 H21_2 1_555 1_555
C30_2 C18_2 1_555 1_555
C32_2 C1_2 1_555 1_555
H27_2 C32_2 1_555 1_555
C36_2 H30_2 1_555 1_555
N18 C85_2 1_555 1_555
C41_2 C12_2 1_555 1_555
H35_2 C41_2 1_555 1_555
C42_2 N2_2 1_555 1_555
H36_2 C42_2 1_555 1_555
C44_2 C17_2 1_555 1_555
H38_2 C44_2 1_555 1_555
C46_2 C8_2 1_555 1_555
C51_2 C30_2 1_555 1_555
H43_2 C51_2 1_555 1_555
C78_2 H63_2 1_555 1_555
C85_2 C78_2 1_555 1_555
H69_2 C85_2 1_555 1_555
Co5 N1 1_555 1_555
C7_2 C42_2 1_555 1_555
C10_2 C46_2 1_555 1_555
C15_2 C41_2 1_555 1_555
C27_2 C32_2 1_555 1_555
C27_2 C44_2 1_555 1_555
C36_2 C51_2 1_555 1_555
C62_2 C66_2 1_555 1_555
C62_2 C77_2 1_555 1_555
C78_2 C84_2 1_555 1_555
C4_2 H4_2 1_555 1_555
C19_2 H14_2 1_555 1_555
C23_2 C4_2 1_555 1_555
H17_2 C23_2 1_555 1_555
H34_2 C40_2 1_555 1_555
C19_2 C40_2 1_555 1_555
O3 C70_2 1_555 1_555
C5_2 H5_2 1_555 1_555
C6_2 H6_2 1_555 1_555
O4_2 Co2 1_555 1_555
Co2 O8_2 1_555 1_555
C9 H8_2 1_555 1_555
N4_2 Co5 1_555 1_555
Co11 O6_2 1_555 1_555
C13_2 C26_2 1_555 1_555
O5_2 Co5 1_555 1_555
C20_2 H15_2 1_555 1_555
O6_2 C70_2 1_555 1_555
N15 C52_2 1_555 1_555
C26_2 H20_2 1_555 1_555
C28_2 C6_2 1_555 1_555
H23_2 C28_2 1_555 1_555
O9_2 Co2 1_555 1_555
O10_2 Co5 1_555 1_555
N17 C74_2 1_555 1_555
N8_2 Co2 1_555 1_555
C35_2 H29_2 1_555 1_555
C37_2 C26_2 1_555 1_555
H31_2 C37_2 1_555 1_555
N9_2 Co2 1_555 1_555
N10_2 Co11 1_555 1_555
C45_2 C58_2 1_555 1_555
C47_2 C65_2 1_555 1_555
C49_2 C6_2 1_555 1_555
H41_2 C49_2 1_555 1_555
O11_2 Co11 1_555 1_555
H44_2 O11_2 1_555 1_555
C52_2 H45_2 1_555 1_555
C55_2 C5_2 1_555 1_555
H48_2 C55_2 1_555 1_555
C56_2 N4_2 1_555 1_555
H49_2 C56_2 1_555 1_555
C58_2 C35_2 1_555 1_555
C59_2 C35_2 1_555 1_555
H51_2 C59_2 1_555 1_555
O12_2 Co11 1_555 1_555
C61_2 C56_2 1_555 1_555
H52_2 C61_2 1_555 1_555
C63_2 O5_2 1_555 1_555
C64_2 O4_2 1_555 1_555
C65_2 C5_2 1_555 1_555
H55_2 C67_2 1_555 1_555
C70_2 C67_2 1_555 1_555
C72_2 C47_2 1_555 1_555
H58_2 C72_2 1_555 1_555
C73_2 C47_2 1_555 1_555
H59_2 C73_2 1_555 1_555
C74_2 H60_2 1_555 1_555
C75_2 C65_2 1_555 1_555
H61_2 C75_2 1_555 1_555
C76_2 C45_2 1_555 1_555
H62_2 C76_2 1_555 1_555
C79_2 N15 1_555 1_555
H64_2 C79_2 1_555 1_555
C80_2 N17 1_555 1_555
H65_2 C80_2 1_555 1_555
H66_2 C81_2 1_555 1_555
C82_2 N9_2 1_555 1_555
H67_2 C82_2 1_555 1_555
C83_2 N10_2 1_555 1_555
H68_2 C83_2 1_555 1_555
C88_2 C13_2 1_555 1_555
C89_2 C20_2 1_555 1_555
H73_2 C89_2 1_555 1_555
C90 C9 1_555 1_555
H74 C90 1_555 1_555
C91_2 C45_2 1_555 1_555
H75_2 C91_2 1_555 1_555
C92_2 C58_2 1_555 1_555
H76_2 C92_2 1_555 1_555
Co9 O3 1_555 1_555
C13_2 C49_2 1_555 1_555
C20_2 C60_2 1_555 1_555
O8_2 C88_2 1_555 1_555
C28_2 C37_2 1_555 1_555
O9_2 C63_2 1_555 1_555
O10_2 C81_2 1_555 1_555
N8_2 C71_2 1_555 1_555
N8_2 C89_2 1_555 1_555
N9_2 C55_2 1_555 1_555
N10_2 C59_2 1_555 1_555
O11_2 C67_2 1_555 1_555
C52_2 C73_2 1_555 1_555
O12_2 C64_2 1_555 1_555
C63_2 C81_2 1_555 1_555
C64_2 C88_2 1_555 1_555
C72_2 C79_2 1_555 1_555
C74_2 C91_2 1_555 1_555
C75_2 C82_2 1_555 1_555
C76_2 C80_2 1_555 1_555
C83_2 C92_2 1_555 1_555
C2_2 H3_2 1_555 1_555
C3_2 O2_2 1_555 1_555
Co9 O1_2 1_555 1_555
C16_2 C29_2 1_555 1_555
C21_2 C34_2 1_555 1_555
C22_2 H16_2 1_555 1_555
C24_2 C2_2 1_555 1_555
H18_2 C24_2 1_555 1_555
O7_2 C3_2 1_555 1_555
C29_2 C2_2 1_555 1_555
H24_2 C29_2 1_555 1_555
N16 C22_2 1_555 1_555
C33_2 C24_2 1_555 1_555
C34_2 C53_2 1_555 1_555
C38_2 H32_2 1_555 1_555
C39_2 C16_2 1_555 1_555
H33_2 C39_2 1_555 1_555
N12_2 Co9 1_555 1_555
C48_2 C21_2 1_555 1_555
H40_2 C48_2 1_555 1_555
C50_2 C21_2 1_555 1_555
H42_2 C50_2 1_555 1_555
C53_2 C38_2 1_555 1_555
H46_2 C53_2 1_555 1_555
C54_2 O1_2 1_555 1_555
C57_2 C34_2 1_555 1_555
H50_2 C57_2 1_555 1_555
C68_2 N12_2 1_555 1_555
H56_2 C68_2 1_555 1_555
C87_2 N16 1_555 1_555
H71_2 C87_2 1_555 1_555
C3_2 C54_2 1_555 1_555
Co9 O7_2 1_555 1_555
C16_2 C54_2 1_555 1_555
C22_2 C50_2 1_555 1_555
C33_2 C39_2 1_555 1_555
C38_2 N12_2 1_555 1_555
C48_2 C87_2 1_555 1_555
C57_2 C68_2 1_555 1_555
C90_2 C9_2 1_555 1_555
H74_2 C90_2 1_555 1_555
C31_2 H26_2 1_555 1_555
C86_2 C31_2 1_555 1_555
H70_2 C86_2 1_555 1_555
S1 O14 1_555 1_555
F1 C93 1_555 1_555
F2 C93 1_555 1_555
O15 S1 1_555 1_555
O16 S1 1_555 1_555
F3 C93 1_555 1_555
C93 S1 1_555 1_555
S1_2 O14_2 1_555 1_555
F1_2 C93_2 1_555 1_555
F2_2 C93_2 1_555 1_555
O15_2 S1_2 1_555 1_555
O16_2 S1_2 1_555 1_555
F3_2 C93_2 1_555 1_555
C93_2 S1_2 1_555 1_555
C94 F4 1_555 1_555
O17 S2 1_555 1_555
O18 S2 1_555 1_555
S2 C94 1_555 1_555
F5 C94 1_555 1_555
O19 S2 1_555 1_555
F6 C94 1_555 1_555
C94_2 F4_2 1_555 1_555
O17_2 S2_2 1_555 1_555
O18_2 S2_2 1_555 1_555
S2_2 C94_2 1_555 1_555
F5_2 C94_2 1_555 1_555
O19_2 S2_2 1_555 1_555
F6_2 C94_2 1_555 1_555
F7 C95 1_555 1_555
S3 C95 1_555 1_555
C95 F8 1_555 1_555
F9 C95 1_555 1_555
O20 S3 1_555 1_555
O21 S3 1_555 1_555
O22 S3 1_555 1_555
F7_2 C95_2 1_555 1_555
S3_2 C95_2 1_555 1_555
C95_2 F8_2 1_555 1_555
F9_2 C95_2 1_555 1_555
O20_2 S3_2 1_555 1_555
O21_2 S3_2 1_555 1_555
O22_2 S3_2 1_555 1_555
F12 C96 1_555 1_555
O25 S4 1_555 1_555
O25_2 S4_2 1_555 1_555
F12_2 C96_2 1_555 1_555

#END
