
###############################################################################
#
# This file contains modified crystal structure data generated from the
# MOF subset of the Cambridge Structural Database (CSD) v543 
# hosted by the Cambridge Crystallographic Data Centre (CCDC).
#
# This work is licensed under the Creative Commons
# Attribution-NonCommercial-ShareAlike 4.0 International License.
# To view a copy of this license, visit
# http://creativecommons.org/licenses/by-nc-sa/4.0/
# or send a letter to
# Creative Commons, PO Box 1866, Mountain View, CA 94042, USA.
#
# CIF created using the CSD Python API on 29 September 2022
# The structure has been converted into the P1 space group
# The structure has a 3D framework
# The original CSD entry NEHNEV is in the triclinic crystal system
# The framework has been calculated to contain at least 10.0% void space
# The void calculation uses a probe of radius 1.32A, grid spacing 0.4
#
###############################################################################

data_NEHNEV
_chemical_formula_moiety         '(C64 H52 N4 O16 Zn3)n'
_symmetry_cell_setting           triclinic
_symmetry_space_group_name_H-M   'P 1'
_symmetry_Int_Tables_number      1
_space_group_name_Hall           'P 1'
loop_
_symmetry_equiv_pos_site_id
_symmetry_equiv_pos_as_xyz
1 x,y,z
_cell_length_a                   10.6549(12)
_cell_length_b                   14.5638(16)
_cell_length_c                   16.0435(17)
_cell_angle_alpha                99.783(2)
_cell_angle_beta                 102.396(2)
_cell_angle_gamma                101.834(2)
_cell_volume                     2319.48
loop_
_atom_site_label
_atom_site_type_symbol
_atom_site_fract_x
_atom_site_fract_y
_atom_site_fract_z
Zn5 Zn -0.0000 0.5000 0.5000
Zn12 Zn 0.22430(8) 0.37510(5) 0.47519(5)
O26 O 0.0631(5) 0.2746(4) 0.4163(4)
O10 O 0.2614(6) 0.4591(4) 0.3985(4)
O13 O 0.3624(6) 0.4716(5) 0.5989(4)
O16 O 0.1508(5) 0.4429(3) 0.5737(3)
O20 O 0.1160(5) 0.5444(4) 0.4187(4)
O24 O 0.4074(6) 0.7517(5) 0.1713(4)
O25 O 0.5314(6) 0.9905(4) 0.1714(4)
N4 N 0.3552(6) 0.2938(4) 0.4724(4)
C33 C 0.2065(7) 0.5259(5) 0.3874(5)
C34 C 0.2555(7) 0.5874(5) 0.3280(5)
C35 C 0.1822(8) 0.6422(6) 0.2893(6)
H27 H 0.0990 0.6419 0.2988
C36 C 0.3775(8) 0.5889(6) 0.3126(5)
H28 H 0.4278 0.5503 0.3370
C50 C 0.4262(8) 0.6462(7) 0.2618(6)
H38 H 0.5111 0.6492 0.2546
H39 H 0.7765 0.9855 0.2348
C58 C 0.5486(9) 0.9100(6) 0.1237(5)
H43 H 0.6055 0.9274 0.0862
H44 H 0.5906 0.8744 0.1625
C59 C 0.4136(9) 0.8478(6) 0.0683(5)
C60 C 0.3356(9) 0.8067(6) 0.1264(5)
H45 H 0.2496 0.7667 0.0917
H46 H 0.3217 0.8581 0.1677
C61 C 0.3520(8) 0.6981(6) 0.2223(5)
C62 C 0.2290(9) 0.6975(6) 0.2366(6)
H47 H 0.1780 0.7347 0.2105
C63 C 0.4447(10) 0.7683(7) 0.0040(5)
H48 H 0.4991 0.7332 0.0358
C64 C 0.3304(12) 0.9059(7) 0.0145(7)
H50 H 0.3325 0.9653 0.0521
O18 O 0.0810(5) 0.6345(3) 0.5811(3)
O23 O 0.3181(7) 0.7059(5) 0.9557(4)
C37 C 0.2612(9) 0.4801(7) 0.6252(5)
C38 C 0.2780(8) 0.5357(5) 0.7132(5)
C39 C 0.1683(8) 0.5444(6) 0.7437(5)
H29 H 0.0838 0.5124 0.7088
C40 C 0.1835(9) 0.6009(6) 0.8266(5)
H30 H 0.1100 0.6059 0.8478
C41 C 0.3121(10) 0.6500(6) 0.8770(5)
C42 C 0.4249(10) 0.6386(7) 0.8492(6)
H31 H 0.5098 0.6663 0.8854
C43 C 0.4052(9) 0.5840(7) 0.7651(5)
H32 H 0.4783 0.5797 0.7431
H49 H 0.4912 0.7962 0.9649
H51 H 0.3677 0.9194 0.9671
H52 H 0.2402 0.8684 0.9913
N5 N 0.4592(7) 0.1815(5) 0.4823(5)
C44 C 0.4477(12) 0.0506(7) 0.5563(7)
H33 H 0.4105 0.0842 0.5950
C45 C 0.5289(13) 0.0384(8) 0.4329(8)
H34 H 0.5479 0.0636 0.3862
C46 C 0.4788(10) 0.0865(6) 0.4912(6)
C47 C 0.5436(10) 0.2553(7) 0.4667(6)
H35 H 0.6288 0.2572 0.4605
C48 C 0.3463(9) 0.2094(6) 0.4844(6)
H36 H 0.2713 0.1712 0.4935
C49 C 0.4803(9) 0.3248(6) 0.4619(6)
H37 H 0.5154 0.3851 0.4529
C19 C 0.3611(8) 0.9421(5) 0.7764(5)
C20 C 0.2402(10) 0.9552(6) 0.7468(7)
C21 C 0.3827(9) 0.8509(6) 0.7523(6)
H14 H 0.4650 0.8398 0.7746
C22 C 0.0526(7) 0.7098(5) 0.6050(4)
C23 C 0.1614(7) 0.7912(5) 0.6646(5)
C24 C 0.1406(9) 0.8825(6) 0.6898(6)
H15 H 0.0585 0.8939 0.6678
C25 C 0.2831(8) 0.7778(5) 0.6958(5)
H16 H 0.2994 0.7181 0.6786
Zn5_2 Zn 1.0000 0.5000 0.5000
O17 O 0.9190(5) 0.3655(3) 0.4189(3)
C51 C 0.6389(8) 0.0579(5) 0.2236(5)
C52 C 0.7598(10) 0.0448(6) 0.2532(7)
C53 C 0.6173(9) 0.1491(6) 0.2477(6)
H40 H 0.5350 0.1602 0.2254
C54 C 0.9474(7) 0.2902(5) 0.3950(4)
C55 C 0.8386(7) 0.2088(5) 0.3354(5)
C56 C 0.8594(9) 0.1175(6) 0.3102(6)
H41 H 0.9415 0.1061 0.3322
C57 C 0.7169(8) 0.2222(5) 0.3042(5)
H42 H 0.7006 0.2819 0.3214
O2 O 0.6376(6) 0.5284(5) 0.4011(4)
O3 O 0.8492(5) 0.5571(3) 0.4263(3)
O6 O 0.6819(7) 0.2941(5) 0.0443(4)
C5 C 0.7388(9) 0.5199(7) 0.3748(5)
C6 C 0.7220(8) 0.4643(5) 0.2868(5)
C7 C 0.8317(8) 0.4556(6) 0.2563(5)
H3 H 0.9162 0.4876 0.2912
C8 C 0.8165(9) 0.3991(6) 0.1734(5)
H4 H 0.8900 0.3941 0.1522
C9 C 0.6879(10) 0.3500(6) 0.1230(5)
C10 C 0.5751(10) 0.3614(7) 0.1508(6)
H5 H 0.4902 0.3337 0.1146
C11 C 0.5948(9) 0.4160(7) 0.2349(5)
H6 H 0.5217 0.4203 0.2569
H23 H 0.5088 0.2038 0.0351
H25 H 0.6323 0.0806 0.0329
H26 H 0.7598 0.1316 0.0087
Zn8 Zn 0.77570(8) 0.62490(5) 0.52481(5)
O21 O 0.8840(5) 0.4556(4) 0.5813(4)
O1 O 0.7386(6) 0.5409(4) 0.6015(4)
O7 O 0.5926(6) 0.2483(5) 0.8287(4)
O8 O 0.4686(6) 0.0095(4) 0.8286(4)
N1 N 0.6448(6) 0.7062(4) 0.5276(4)
N2 N 0.5408(7) 0.8185(5) 0.5177(5)
C1 C 0.7935(7) 0.4741(5) 0.6126(5)
C2 C 0.7445(7) 0.4126(5) 0.6720(5)
C3 C 0.8178(8) 0.3578(6) 0.7107(6)
H1 H 0.9010 0.3581 0.7012
C4 C 0.6225(8) 0.4111(6) 0.6874(5)
H2 H 0.5722 0.4497 0.6630
C12 C 0.5523(12) 0.9494(7) 0.4437(7)
H7 H 0.5895 0.9158 0.4050
C13 C 0.4711(13) 0.9616(8) 0.5671(8)
H8 H 0.4521 0.9364 0.6138
C14 C 0.5212(10) 0.9135(6) 0.5088(6)
C15 C 0.4564(10) 0.7447(7) 0.5333(6)
H9 H 0.3712 0.7428 0.5395
C16 C 0.6537(9) 0.7906(6) 0.5156(6)
H10 H 0.7287 0.8288 0.5065
C17 C 0.5197(9) 0.6752(6) 0.5381(6)
H11 H 0.4846 0.6149 0.5471
C18 C 0.5738(8) 0.3538(7) 0.7382(6)
H12 H 0.4889 0.3508 0.7454
H13 H 0.2235 0.0145 0.7652
C26 C 0.4514(9) 0.0900(6) 0.8763(5)
H17 H 0.3945 0.0726 0.9138
H18 H 0.4094 0.1256 0.8375
C27 C 0.5864(9) 0.1522(6) 0.9317(5)
C28 C 0.6644(9) 0.1933(6) 0.8736(5)
H19 H 0.7504 0.2333 0.9083
H20 H 0.6783 0.1419 0.8323
C29 C 0.6480(8) 0.3019(6) 0.7777(5)
C30 C 0.7710(9) 0.3025(6) 0.7634(6)
H21 H 0.8220 0.2653 0.7895
C31 C 0.5553(10) 0.2317(7) 0.9960(5)
H22 H 0.5009 0.2668 0.9642
C32 C 0.6696(12) 0.0941(7) 0.9855(7)
H24 H 0.6675 0.0347 0.9479
O27 O 0.9369(5) 0.7254(4) 0.5837(4)
loop_
_geom_bond_atom_site_label_1
_geom_bond_atom_site_label_2
_geom_bond_site_symmetry_1
_geom_bond_site_symmetry_2
Zn12 O26 1_555 1_555
Zn5 O16 1_555 1_555
Zn12 O10 1_555 1_555
O10 C33 1_555 1_555
O13 Zn12 1_555 1_555
O16 Zn12 1_555 1_555
O20 Zn5 1_555 1_555
O24 C60 1_555 1_555
N4 Zn12 1_555 1_555
C33 O20 1_555 1_555
C34 C33 1_555 1_555
C35 C34 1_555 1_555
H27 C35 1_555 1_555
C36 C34 1_555 1_555
H28 C36 1_555 1_555
C50 C36 1_555 1_555
H38 C50 1_555 1_555
C58 O25 1_555 1_555
H43 C58 1_555 1_555
H44 C58 1_555 1_555
C59 C58 1_555 1_555
C60 C59 1_555 1_555
H45 C60 1_555 1_555
H46 C60 1_555 1_555
C61 O24 1_555 1_555
C62 C35 1_555 1_555
H47 C62 1_555 1_555
H48 C63 1_555 1_555
C64 C59 1_555 1_555
H50 C64 1_555 1_555
C50 C61 1_555 1_555
C59 C63 1_555 1_555
C61 C62 1_555 1_555
O13 C37 1_555 1_555
O18 Zn5 1_555 1_555
O23 C41 1_555 1_555
C37 O16 1_555 1_555
C38 C37 1_555 1_555
C39 C38 1_555 1_555
H29 C39 1_555 1_555
C40 C39 1_555 1_555
H30 C40 1_555 1_555
C41 C40 1_555 1_555
C42 C41 1_555 1_555
H31 C42 1_555 1_555
C43 C38 1_555 1_555
H32 C43 1_555 1_555
C42 C43 1_555 1_555
N4 C48 1_555 1_555
N5 C46 1_555 1_555
H33 C44 1_555 1_555
H34 C45 1_555 1_555
C46 C44 1_555 1_555
C47 N5 1_555 1_555
H35 C47 1_555 1_555
C48 N5 1_555 1_555
H36 C48 1_555 1_555
C49 N4 1_555 1_555
H37 C49 1_555 1_555
C45 C46 1_555 1_555
C47 C49 1_555 1_555
O18 C22 1_555 1_555
C19 C20 1_555 1_555
C21 C19 1_555 1_555
H14 C21 1_555 1_555
C22 C23 1_555 1_555
C23 C24 1_555 1_555
C24 C20 1_555 1_555
H15 C24 1_555 1_555
C25 C21 1_555 1_555
H16 C25 1_555 1_555
C23 C25 1_555 1_555
Zn5_2 O17 1_555 1_555
O17 C54 1_555 1_555
C51 C52 1_555 1_555
C53 C51 1_555 1_555
H40 C53 1_555 1_555
C54 C55 1_555 1_555
C55 C56 1_555 1_555
C56 C52 1_555 1_555
H41 C56 1_555 1_555
C57 C53 1_555 1_555
H42 C57 1_555 1_555
C55 C57 1_555 1_555
Zn5_2 O3 1_555 1_555
O2 C5 1_555 1_555
O3 C5 1_555 1_555
O6 C9 1_555 1_555
C5 C6 1_555 1_555
C6 C7 1_555 1_555
C7 H3 1_555 1_555
C8 C7 1_555 1_555
H4 C8 1_555 1_555
C9 C8 1_555 1_555
C10 C9 1_555 1_555
H5 C10 1_555 1_555
C11 C6 1_555 1_555
H6 C11 1_555 1_555
Zn8 O2 1_555 1_555
O21 Zn5_2 1_555 1_555
O3 Zn8 1_555 1_555
C10 C11 1_555 1_555
Zn8 O1 1_555 1_555
O1 C1 1_555 1_555
O21 C1 1_555 1_555
O7 C28 1_555 1_555
N1 Zn8 1_555 1_555
N2 C14 1_555 1_555
C1 C2 1_555 1_555
C2 C3 1_555 1_555
C3 H1 1_555 1_555
C4 C2 1_555 1_555
H2 C4 1_555 1_555
C12 H7 1_555 1_555
C13 H8 1_555 1_555
C14 C12 1_555 1_555
C15 N2 1_555 1_555
H9 C15 1_555 1_555
C16 N1 1_555 1_555
H10 C16 1_555 1_555
C17 N1 1_555 1_555
H11 C17 1_555 1_555
C18 C4 1_555 1_555
H12 C18 1_555 1_555
C26 O8 1_555 1_555
H17 C26 1_555 1_555
H18 C26 1_555 1_555
C27 C26 1_555 1_555
C28 C27 1_555 1_555
H19 C28 1_555 1_555
H20 C28 1_555 1_555
C29 O7 1_555 1_555
C30 C3 1_555 1_555
H21 C30 1_555 1_555
H22 C31 1_555 1_555
C32 C27 1_555 1_555
H24 C32 1_555 1_555
O27 Zn8 1_555 1_555
N2 C16 1_555 1_555
C13 C14 1_555 1_555
C15 C17 1_555 1_555
C18 C29 1_555 1_555
C27 C31 1_555 1_555
C29 C30 1_555 1_555

#END
