
###############################################################################
#
# This file contains modified crystal structure data generated from the
# MOF subset of the Cambridge Structural Database (CSD) v543 
# hosted by the Cambridge Crystallographic Data Centre (CCDC).
#
# This work is licensed under the Creative Commons
# Attribution-NonCommercial-ShareAlike 4.0 International License.
# To view a copy of this license, visit
# http://creativecommons.org/licenses/by-nc-sa/4.0/
# or send a letter to
# Creative Commons, PO Box 1866, Mountain View, CA 94042, USA.
#
# CIF created using the CSD Python API on 29 September 2022
# The structure has been converted into the P1 space group
# The structure has a 3D framework
# The original CSD entry NEHNEV01 is in the triclinic crystal system
# The framework has been calculated to contain at least 10.0% void space
# The void calculation uses a probe of radius 1.32A, grid spacing 0.4
#
###############################################################################

data_NEHNEV01
_chemical_formula_moiety         '(C64 H52 N4 O18 Zn4)n'
_symmetry_cell_setting           triclinic
_symmetry_space_group_name_H-M   'P 1'
_symmetry_Int_Tables_number      1
_space_group_name_Hall           'P 1'
loop_
_symmetry_equiv_pos_site_id
_symmetry_equiv_pos_as_xyz
1 x,y,z
_cell_length_a                   8.9810(5)
_cell_length_b                   12.2471(7)
_cell_length_c                   15.8888(9)
_cell_angle_alpha                76.8270(10)
_cell_angle_beta                 75.9530(10)
_cell_angle_gamma                79.3840(10)
_cell_volume                     1635.31
loop_
_atom_site_label
_atom_site_type_symbol
_atom_site_fract_x
_atom_site_fract_y
_atom_site_fract_z
Zn4 Zn -0.0000 0.5000 0.5000
C3 C 0.0991(8) 0.7621(5) 0.1378(3)
C5 C 0.2280(8) 0.8811(5) 0.0116(3)
H4 H 0.2598 0.9209 0.0507
O8 O 0.1991(6) 0.7701(3) 0.0572(3)
C26 C 0.0222(7) 0.8553(5) 0.1743(4)
H21 H 0.0349 0.9298 0.1423
C32 C 0.0805(9) 0.6546(5) 0.1839(4)
H26 H 0.1333 0.5910 0.1589
O1 O 0.5012(5) 0.9951(3) 0.8118(3)
C1 C 0.3558(7) 0.8719(4) 0.9300(3)
O2 O 0.1669(5) 0.8464(3) 0.8543(3)
C2 C 0.3662(7) 0.9936(5) 0.8810(4)
H5 H 0.1325 0.9251 0.9940
C7 C 0.1107(6) 0.7915(4) 0.8055(3)
C14 C 0.5097(7) 0.8145(5) 0.9570(4)
H10 H 0.4992 0.7365 0.9880
H11 H 0.5349 0.8564 0.9962
H12 H 0.5927 0.8141 0.9040
C15 C 0.3178(6) 0.8016(4) 0.8726(3)
H13 H 0.3963 0.8043 0.8167
H14 H 0.3189 0.7217 0.9038
C17 C 0.1943(6) 0.7049(4) 0.7646(4)
H15 H 0.2971 0.6763 0.7719
C30 C 0.1273(6) 0.6599(4) 0.7126(3)
H24 H 0.1862 0.6020 0.6827
Zn7 Zn 0.34011(6) 0.35332(4) 0.44038(3)
N5 N 0.5218(5) 0.2319(4) 0.4259(3)
C36 C 0.0421(7) 0.1704(5) 0.2017(4)
H29 H 0.1002 0.1124 0.1717
O12 O 0.2328(4) 0.3083(3) 0.3613(2)
O15 O 0.4000(5) 0.4992(3) 0.3778(3)
O16 O 0.0041(4) 0.4106(3) 0.4042(2)
C40 C 0.0251(6) 0.3020(4) 0.2965(3)
O19 O 0.1827(4) 0.3770(3) 0.5510(2)
C41 C 0.1100(6) 0.2162(5) 0.2522(4)
H33 H 0.2144 0.1896 0.2571
O24 O 0.1688(4) 0.5955(3) 0.4237(2)
C57 C 0.0921(5) 0.3447(4) 0.3579(3)
C38 C 0.0153(8) 0.3610(5) 0.7329(4)
H32 H 0.0291 0.4355 0.7012
O20 O 0.2843(6) 0.2028(4) 0.5820(3)
C45 C 0.1929(6) 0.2846(5) 0.6055(4)
C59 C 0.0719(7) 0.1611(5) 0.7435(4)
H48 H 0.1253 0.0977 0.7184
C60 C 0.0901(7) 0.2702(5) 0.6961(3)
H27 H 0.7273 0.9758 0.1440
H28 H 0.6279 0.9586 0.0777
C42 C 0.5047(7) 0.6987(5) 0.2713(4)
H34 H 0.5711 0.6294 0.2667
C43 C 0.5547(7) 0.7992(5) 0.2227(4)
H35 H 0.6532 0.7987 0.1835
C44 C 0.4601(7) 0.9003(4) 0.2318(3)
C48 C 0.3044(6) 0.5897(4) 0.3794(3)
C50 C 0.3156(7) 0.9005(4) 0.2878(4)
H42 H 0.2516 0.9701 0.2952
C51 C 0.2652(6) 0.7996(4) 0.3327(3)
H43 H 0.1638 0.7997 0.3687
C52 C 0.3602(6) 0.6974(4) 0.3264(3)
N3 N 0.7228(5) 0.1057(4) 0.4477(3)
C53 C 0.6415(7) 0.0622(4) 0.4032(4)
C54 C 0.9651(6) 0.1168(5) 0.4856(4)
H45 H 0.9411 0.1969 0.4759
C55 C 0.8645(6) 0.0528(5) 0.4753(3)
C56 C 0.6455(6) 0.2093(5) 0.4602(3)
H46 H 0.6766 0.2580 0.4894
C61 C 0.5180(6) 0.1406(4) 0.3899(4)
H49 H 0.4410 0.1338 0.3604
H1 H 0.2727 0.0242 0.8560
H2 H 0.3721 0.0414 0.9223
O4 O 0.6000(5) 0.5008(3) 0.6222(3)
C10 C 0.4953(7) 0.3013(5) 0.7287(4)
H8 H 0.4289 0.3706 0.7333
C11 C 0.4453(7) 0.2008(5) 0.7773(4)
H9 H 0.3468 0.2013 0.8165
C12 C 0.5399(7) 0.0997(4) 0.7682(3)
O9 O 0.8312(4) 0.4045(3) 0.5763(2)
C16 C 0.6956(6) 0.4103(4) 0.6206(3)
C18 C 0.6844(7) 0.0995(4) 0.7122(4)
H16 H 0.7484 0.0299 0.7048
C19 C 0.7348(6) 0.2004(4) 0.6673(3)
H17 H 0.8362 0.2003 0.6313
C20 C 0.6398(6) 0.3026(4) 0.6736(3)
Zn4_2 Zn 1.0000 0.5000 0.5000
Zn8 Zn 0.65989(6) 0.64668(4) 0.55962(3)
C6 C 0.9847(8) 0.6390(5) 0.2671(4)
H6 H 0.9709 0.5645 0.2988
O6 O 0.8173(4) 0.6230(3) 0.4490(2)
O7 O 0.7157(6) 0.7972(4) 0.4180(3)
C13 C 0.8071(6) 0.7154(5) 0.3945(4)
C27 C 0.9281(7) 0.8389(5) 0.2565(4)
H22 H 0.8747 0.9023 0.2816
C28 C 0.9099(7) 0.7298(5) 0.3039(3)
N1 N 0.2772(5) 0.8943(4) 0.5523(3)
N2 N 0.4782(5) 0.7681(4) 0.5741(3)
C4 C 0.9579(7) 0.8296(5) 0.7983(4)
H3 H 0.8998 0.8876 0.8283
O3 O 0.7672(4) 0.6917(3) 0.6387(2)
O5 O 0.9959(4) 0.5894(3) 0.5958(2)
C8 C 0.9749(6) 0.6980(4) 0.7035(3)
C9 C 0.8900(6) 0.7838(5) 0.7478(4)
H7 H 0.7856 0.8104 0.7429
C21 C 0.3585(7) 0.9378(4) 0.5968(4)
C22 C 0.0349(6) 0.8832(5) 0.5144(4)
H19 H 0.0589 0.8031 0.5241
C23 C 0.1355(6) 0.9472(5) 0.5247(3)
C24 C 0.3545(6) 0.7907(5) 0.5398(3)
H20 H 0.3234 0.7420 0.5106
C25 C 0.9079(5) 0.6553(4) 0.6421(3)
C29 C 0.4820(6) 0.8594(4) 0.6101(4)
H23 H 0.5590 0.8662 0.6396
O10 O 0.4988(5) 0.0049(3) 0.1882(3)
C33 C 0.6442(7) 0.1281(4) 0.0700(3)
O11 O 0.8331(5) 0.1536(3) 0.1457(3)
C34 C 0.6338(7) 0.0064(5) 0.1190(4)
H31 H 0.8675 0.0749 0.0060
C39 C 0.8893(6) 0.2085(4) 0.1945(3)
C46 C 0.4903(7) 0.1855(5) 0.0430(4)
H36 H 0.5008 0.2635 0.0120
H37 H 0.4651 0.1436 0.0038
H38 H 0.4073 0.1859 0.0960
C47 C 0.6822(6) 0.1984(4) 0.1274(3)
H39 H 0.6037 0.1957 0.1833
H40 H 0.6811 0.2783 0.0962
C49 C 0.8057(6) 0.2951(4) 0.2354(4)
H41 H 0.7029 0.3237 0.2281
C62 C 0.8727(6) 0.3401(4) 0.2874(3)
H50 H 0.8138 0.3980 0.3173
C35 C 0.9009(8) 0.2379(5) 0.8622(3)
C37 C 0.7720(8) 0.1189(5) 0.9884(3)
H30 H 0.7402 0.0791 0.9493
O21 O 0.8009(6) 0.2299(3) 0.9428(3)
C58 C 0.9778(7) 0.1447(5) 0.8257(4)
H47 H 0.9651 0.0702 0.8577
C64 C 0.9195(9) 0.3454(5) 0.8161(4)
H52 H 0.8667 0.4090 0.8411
H18 H 0.3330 0.0090 0.6147
C31 C 0.1027(7) 0.0649(5) 0.5104(4)
H25 H 0.1738 0.1090 0.5176
H44 H 0.6670 0.9910 0.3853
C63 C 0.8973(7) 0.9351(5) 0.4896(4)
H51 H 0.8262 0.8910 0.4824
loop_
_geom_bond_atom_site_label_1
_geom_bond_atom_site_label_2
_geom_bond_site_symmetry_1
_geom_bond_site_symmetry_2
C3 O8 1_555 1_555
H4 C5 1_555 1_555
O8 C5 1_555 1_555
C26 C3 1_555 1_555
H21 C26 1_555 1_555
C32 C3 1_555 1_555
H26 C32 1_555 1_555
O1 C2 1_555 1_555
C1 C2 1_555 1_555
O2 C7 1_555 1_555
C14 C1 1_555 1_555
H10 C14 1_555 1_555
H11 C14 1_555 1_555
H12 C14 1_555 1_555
C15 C1 1_555 1_555
H13 C15 1_555 1_555
H14 C15 1_555 1_555
C17 C7 1_555 1_555
H15 C17 1_555 1_555
H24 C30 1_555 1_555
Zn7 N5 1_555 1_555
C36 H29 1_555 1_555
O12 Zn7 1_555 1_555
O15 Zn7 1_555 1_555
O16 Zn4 1_555 1_555
C40 C41 1_555 1_555
O19 Zn4 1_555 1_555
C41 C36 1_555 1_555
H33 C41 1_555 1_555
O24 Zn4 1_555 1_555
C57 O12 1_555 1_555
O2 C15 1_555 1_555
C17 C30 1_555 1_555
Zn7 O19 1_555 1_555
O16 C57 1_555 1_555
C40 C57 1_555 1_555
C38 H32 1_555 1_555
O19 C45 1_555 1_555
O20 C45 1_555 1_555
C45 C60 1_555 1_555
H48 C59 1_555 1_555
C60 C38 1_555 1_555
C59 C60 1_555 1_555
O15 C48 1_555 1_555
C42 H34 1_555 1_555
C43 C42 1_555 1_555
H35 C43 1_555 1_555
O24 C48 1_555 1_555
C48 C52 1_555 1_555
C50 C44 1_555 1_555
H42 C50 1_555 1_555
C51 C50 1_555 1_555
H43 C51 1_555 1_555
C52 C42 1_555 1_555
C43 C44 1_555 1_555
C51 C52 1_555 1_555
N3 C53 1_555 1_555
N5 C56 1_555 1_555
H45 C54 1_555 1_555
C55 N3 1_555 1_555
C56 N3 1_555 1_555
H46 C56 1_555 1_555
C61 N5 1_555 1_555
H49 C61 1_555 1_555
C53 C61 1_555 1_555
C54 C55 1_555 1_555
O4 C16 1_555 1_555
C10 H8 1_555 1_555
C11 C10 1_555 1_555
H9 C11 1_555 1_555
O9 C16 1_555 1_555
C16 C20 1_555 1_555
C18 C12 1_555 1_555
H16 C18 1_555 1_555
C19 C18 1_555 1_555
H17 C19 1_555 1_555
C20 C10 1_555 1_555
Zn4_2 O9 1_555 1_555
Zn8 O4 1_555 1_555
C11 C12 1_555 1_555
C19 C20 1_555 1_555
C6 H6 1_555 1_555
O6 C13 1_555 1_555
O7 C13 1_555 1_555
C13 C28 1_555 1_555
H22 C27 1_555 1_555
C28 C6 1_555 1_555
Zn4_2 O6 1_555 1_555
Zn8 O6 1_555 1_555
C27 C28 1_555 1_555
Zn4_2 O5 1_555 1_555
N1 C21 1_555 1_555
Zn8 N2 1_555 1_555
N2 C24 1_555 1_555
C4 H3 1_555 1_555
O3 Zn8 1_555 1_555
O5 C25 1_555 1_555
C8 C9 1_555 1_555
C9 C4 1_555 1_555
H7 C9 1_555 1_555
C22 H19 1_555 1_555
C23 N1 1_555 1_555
C24 N1 1_555 1_555
H20 C24 1_555 1_555
C25 O3 1_555 1_555
C29 N2 1_555 1_555
H23 C29 1_555 1_555
O10 C34 1_555 1_555
C33 C34 1_555 1_555
O11 C39 1_555 1_555
C46 C33 1_555 1_555
H36 C46 1_555 1_555
H37 C46 1_555 1_555
H38 C46 1_555 1_555
C47 C33 1_555 1_555
H39 C47 1_555 1_555
H40 C47 1_555 1_555
C49 C39 1_555 1_555
H41 C49 1_555 1_555
H50 C62 1_555 1_555
C8 C25 1_555 1_555
C21 C29 1_555 1_555
C22 C23 1_555 1_555
O11 C47 1_555 1_555
C49 C62 1_555 1_555
C35 O21 1_555 1_555
H30 C37 1_555 1_555
O21 C37 1_555 1_555
C58 C35 1_555 1_555
H47 C58 1_555 1_555
C64 C35 1_555 1_555
H52 C64 1_555 1_555
H25 C31 1_555 1_555
H51 C63 1_555 1_555

#END
