
###############################################################################
#
# This file contains modified crystal structure data generated from the
# MOF subset of the Cambridge Structural Database (CSD) v543 
# hosted by the Cambridge Crystallographic Data Centre (CCDC).
#
# This work is licensed under the Creative Commons
# Attribution-NonCommercial-ShareAlike 4.0 International License.
# To view a copy of this license, visit
# http://creativecommons.org/licenses/by-nc-sa/4.0/
# or send a letter to
# Creative Commons, PO Box 1866, Mountain View, CA 94042, USA.
#
# CIF created using the CSD Python API on 29 September 2022
# The structure has been converted into the P1 space group
# The structure has a 3D framework
# The original CSD entry NEHROK is in the monoclinic crystal system
# The framework has been calculated to contain at least 10.0% void space
# The void calculation uses a probe of radius 1.32A, grid spacing 0.4
#
###############################################################################

data_NEHROK
_chemical_formula_moiety         '(C88 H96 Cu8 N8 O32)n'
_symmetry_cell_setting           triclinic
_symmetry_space_group_name_H-M   'P 1'
_symmetry_Int_Tables_number      1
_space_group_name_Hall           'P 1'
loop_
_symmetry_equiv_pos_site_id
_symmetry_equiv_pos_as_xyz
1 x,y,z
_cell_length_a                   24.556(2)
_cell_length_b                   12.9794(12)
_cell_length_c                   8.6609(8)
_cell_angle_alpha                90
_cell_angle_beta                 91.796(2)
_cell_angle_gamma                90
_cell_volume                     2759.06
loop_
_atom_site_label
_atom_site_type_symbol
_atom_site_fract_x
_atom_site_fract_y
_atom_site_fract_z
Cu8 Cu 0.29396(2) 0.20331(2) 0.05542(3)
O6 O 0.25594(8) 0.07416(15) 0.9964(2)
O8 O 0.18080(8) 0.15464(15) 0.9076(2)
C19 C 0.20880(11) 0.0753(2) 0.9347(3)
Cu3 Cu 0.20604(2) 0.29669(2) 0.94458(3)
N2 N 0.13996(9) 0.63908(17) 0.3028(2)
C12 C 0.09884(11) 0.6981(2) 0.2497(3)
H13 H 0.095472 0.765760 0.290186
C14 C 0.10834(11) 0.5055(2) 0.1307(3)
H16 H 0.112889 0.437726 0.091729
C15 C 0.14448(11) 0.5443(2) 0.2420(3)
H17 H 0.173883 0.501951 0.277132
C16 C 0.06533(11) 0.5666(2) 0.0765(3)
C17 C 0.06093(11) 0.6653(2) 0.1386(3)
H18 H 0.032182 0.709687 0.104825
Cu2 Cu 0.20604(2) 0.70331(2) 0.44458(3)
O5 O 0.17494(9) 0.71368(16) 0.6522(2)
O7 O 0.25063(8) 0.79055(15) 0.7438(2)
C18 C 0.20254(11) 0.75969(19) 0.7568(3)
C20 C 0.19588(12) 0.8813(2) 0.9847(3)
C21 C 0.17580(12) 0.7809(2) 0.9093(3)
H21 H 0.135832 0.784792 0.891525
H22 H 0.183539 0.722874 0.980910
C22 C 0.18382(12) 0.9745(2) 0.8814(3)
H23 H 0.143814 0.983467 0.872255
H24 H 0.196851 0.959086 0.776854
Cu4 Cu 0.29396(2) 0.79669(2) 0.55542(3)
O10 O 0.24406(8) 0.57416(15) 0.5036(2)
O11 O 0.24937(8) 0.70945(15) 0.2562(2)
O13 O 0.18080(8) 0.84536(15) 0.4076(2)
O1 O 0.17494(9) 0.28632(16) 0.1522(2)
O3 O 0.25063(8) 0.20945(15) 0.2438(2)
C1 C 0.20254(11) 0.24031(19) 0.2568(3)
C4 C 0.19588(12) 0.1187(2) 0.4847(3)
H2 H 0.235641 0.123369 0.506167
H3 H 0.177899 0.109314 0.584484
C10 C 0.17580(12) 0.2191(2) 0.4093(3)
H9 H 0.135832 0.215208 0.391525
H10 H 0.183539 0.277126 0.480910
C11 C 0.18382(12) 0.0255(2) 0.3814(3)
H11 H 0.143814 0.016533 0.372255
H12 H 0.196851 0.040914 0.276854
O9 O 0.24406(8) 0.42584(15) 0.0036(2)
N1 N 0.13996(9) 0.36092(17) 0.8028(2)
C3 C 0.09884(11) 0.3019(2) 0.7497(3)
H1 H 0.095472 0.234240 0.790186
C5 C 0.02357(11) 0.4735(3) 0.4608(3)
H4 H 0.009277 0.415491 0.397263
H5 H 0.041128 0.522987 0.391027
C6 C 0.10834(11) 0.4945(2) 0.6307(3)
H6 H 0.112889 0.562274 0.591729
C7 C 0.14448(11) 0.4557(2) 0.7420(3)
H7 H 0.173883 0.498049 0.777132
C8 C 0.06533(11) 0.4334(2) 0.5765(3)
C9 C 0.06093(11) 0.3347(2) 0.6386(3)
H8 H 0.032182 0.290313 0.604825
O12 O 0.24937(8) 0.29055(15) 0.7562(2)
O2 O 0.25594(8) 0.92584(15) 0.4964(2)
C2 C 0.20880(11) 0.9247(2) 0.4347(3)
O1_2 O 0.32506(9) 0.78632(16) 0.3478(2)
N1_2 N 0.36004(9) 0.86092(17) 0.6972(2)
O4 O 0.31920(8) 0.34536(15) 0.0924(2)
C1_2 C 0.29746(11) 0.74031(19) 0.2432(3)
C2_2 C 0.29120(11) 0.4247(2) 0.0653(3)
C3_2 C 0.40116(11) 0.8019(2) 0.7503(3)
H1_2 H 0.404528 0.734240 0.709814
C4_2 C 0.30412(12) 0.6187(2) 0.0153(3)
C6_2 C 0.39166(11) 0.9945(2) 0.8693(3)
C7_2 C 0.35552(11) 0.9557(2) 0.7580(3)
H7_2 H 0.326117 0.998049 0.722868
C8_2 C 0.43467(11) 0.9334(2) 0.9235(3)
C9_2 C 0.43907(11) 0.8347(2) 0.8614(3)
H8_2 H 0.467818 0.790313 0.895175
C10_2 C 0.32420(12) 0.7191(2) 0.0907(3)
H9_2 H 0.364168 0.715208 0.108475
H10_2 H 0.316461 0.777126 0.019090
C11_2 C 0.31618(12) 0.5255(2) 0.1186(3)
H11_2 H 0.356186 0.516533 0.127745
H12_2 H 0.303149 0.540914 0.223146
H15 H 0.541128 0.977013 0.891027
O14 O 0.31920(8) 0.65464(15) 0.5924(2)
H2_2 H 0.264359 0.623369 0.993833
H3_2 H 0.322101 0.609314 0.915516
H5_2 H 0.541128 0.022987 0.391027
H6_2 H 0.612889 0.062274 0.591729
N2_2 N 0.36004(9) 0.13908(17) 0.1972(2)
C12_2 C 0.40116(11) 0.1981(2) 0.2503(3)
H13_2 H 0.404528 0.265760 0.209814
C13 C 0.47643(11) 0.0265(3) 0.5392(3)
H14 H 0.490723 0.084509 0.602737
C14_2 C 0.39166(11) 0.0055(2) 0.3693(3)
C15_2 C 0.35552(11) 0.0443(2) 0.2580(3)
H17_2 H 0.326117 0.001951 0.222868
C16_2 C 0.43467(11) 0.0666(2) 0.4235(3)
C17_2 C 0.43907(11) 0.1653(2) 0.3614(3)
H18_2 H 0.467818 0.209687 0.395175
O5_2 O 0.32506(9) 0.21368(16) 0.8478(2)
C18_2 C 0.29746(11) 0.25969(19) 0.7432(3)
C19_2 C 0.29120(11) 0.5753(2) 0.5653(3)
C20_2 C 0.30412(12) 0.3813(2) 0.5153(3)
H19 H 0.264359 0.376631 0.493833
H20 H 0.322101 0.390686 0.415516
C21_2 C 0.32420(12) 0.2809(2) 0.5907(3)
H21_2 H 0.364168 0.284792 0.608475
H22_2 H 0.316461 0.222874 0.519090
C22_2 C 0.31618(12) 0.4745(2) 0.6186(3)
H23_2 H 0.356186 0.483467 0.627745
H24_2 H 0.303149 0.459086 0.723146
H19_2 H 0.235641 0.876631 0.006167
H20_2 H 0.177899 0.890686 0.084484
C13_2 C 0.02357(11) 0.5265(3) 0.9608(3)
H14_2 H 0.009277 0.584509 0.897263
H15_2 H 0.041128 0.477013 0.891027
C5_2 C 0.97643(11) 0.4735(3) 0.0392(3)
H4_2 H 0.990723 0.415491 0.102737
H5_3 H 0.958872 0.522987 0.108973
Cu1 Cu 0.79396(2) 0.29669(2) 0.55542(3)
O1_3 O 0.82506(9) 0.28632(16) 0.3478(2)
O3_2 O 0.74937(8) 0.20945(15) 0.2562(2)
N1_3 N 0.86004(9) 0.36092(17) 0.6972(2)
C1_3 C 0.79746(11) 0.24031(19) 0.2432(3)
C3_3 C 0.90116(11) 0.3019(2) 0.7503(3)
H1_3 H 0.904528 0.234240 0.709814
C4_3 C 0.80412(12) 0.1187(2) 0.0153(3)
C6_3 C 0.89166(11) 0.4945(2) 0.8693(3)
H6_3 H 0.887111 0.562274 0.908271
C7_3 C 0.85552(11) 0.4557(2) 0.7580(3)
H7_3 H 0.826117 0.498049 0.722868
C8_3 C 0.93467(11) 0.4334(2) 0.9235(3)
C9_3 C 0.93907(11) 0.3347(2) 0.8614(3)
H8_3 H 0.967818 0.290313 0.895175
C10_3 C 0.82420(12) 0.2191(2) 0.0907(3)
H9_3 H 0.864168 0.215208 0.108475
H10_3 H 0.816461 0.277126 0.019090
C11_3 C 0.81618(12) 0.0255(2) 0.1186(3)
H11_3 H 0.856186 0.016533 0.127745
H12_3 H 0.803149 0.040914 0.223146
Cu7 Cu 0.70604(2) 0.20331(2) 0.44458(3)
O9_2 O 0.75594(8) 0.42584(15) 0.4964(2)
O12_2 O 0.75063(8) 0.29055(15) 0.7438(2)
O14_2 O 0.81920(8) 0.15464(15) 0.5924(2)
O2_2 O 0.74406(8) 0.92584(15) 0.0036(2)
O4_2 O 0.81920(8) 0.84536(15) 0.0924(2)
C2_3 C 0.79120(11) 0.9247(2) 0.0653(3)
Cu6 Cu 0.79396(2) 0.70331(2) 0.05542(3)
Cu5 Cu 0.70604(2) 0.79669(2) 0.94458(3)
O6_2 O 0.74406(8) 0.07416(15) 0.5036(2)
C19_3 C 0.79120(11) 0.0753(2) 0.5653(3)
N2_3 N 0.86004(9) 0.63908(17) 0.1972(2)
C12_3 C 0.90116(11) 0.6981(2) 0.2503(3)
H13_3 H 0.904528 0.765760 0.209814
C13_3 C 0.97643(11) 0.5265(3) 0.5392(3)
H14_3 H 0.990723 0.584509 0.602737
H15_3 H 0.958872 0.477013 0.608973
C14_3 C 0.89166(11) 0.5055(2) 0.3693(3)
H16_2 H 0.887111 0.437726 0.408271
C15_3 C 0.85552(11) 0.5443(2) 0.2580(3)
H17_3 H 0.826117 0.501951 0.222868
C16_3 C 0.93467(11) 0.5666(2) 0.4235(3)
C17_3 C 0.93907(11) 0.6653(2) 0.3614(3)
H18_3 H 0.967818 0.709687 0.395175
O11_2 O 0.75063(8) 0.70945(15) 0.2438(2)
O5_3 O 0.82506(9) 0.71368(16) 0.8478(2)
O7_2 O 0.74937(8) 0.79055(15) 0.7562(2)
C18_3 C 0.79746(11) 0.75969(19) 0.7432(3)
C20_3 C 0.80412(12) 0.8813(2) 0.5153(3)
H19_3 H 0.764359 0.876631 0.493833
H20_3 H 0.822101 0.890686 0.415516
C21_3 C 0.82420(12) 0.7809(2) 0.5907(3)
H21_3 H 0.864168 0.784792 0.608475
H22_3 H 0.816461 0.722874 0.519090
C22_3 C 0.81618(12) 0.9745(2) 0.6186(3)
H23_3 H 0.856186 0.983467 0.627745
H24_3 H 0.803149 0.959086 0.723146
O10_2 O 0.75594(8) 0.57416(15) 0.9964(2)
H19_4 H 0.735641 0.376631 0.006167
H20_4 H 0.677899 0.390686 0.084484
H5_4 H 0.458872 0.022987 0.108973
N2_4 N 0.63996(9) 0.13908(17) 0.3028(2)
C12_4 C 0.59884(11) 0.1981(2) 0.2497(3)
H13_4 H 0.595472 0.265760 0.290186
C14_4 C 0.60834(11) 0.0055(2) 0.1307(3)
C15_4 C 0.64448(11) 0.0443(2) 0.2420(3)
H17_4 H 0.673883 0.001951 0.277132
C16_4 C 0.56533(11) 0.0666(2) 0.0765(3)
C17_4 C 0.56093(11) 0.1653(2) 0.1386(3)
H18_4 H 0.532182 0.209687 0.104825
O5_4 O 0.67494(9) 0.21368(16) 0.6522(2)
O8_2 O 0.68080(8) 0.65464(15) 0.9076(2)
C18_4 C 0.70254(11) 0.25969(19) 0.7568(3)
C19_4 C 0.70880(11) 0.5753(2) 0.9347(3)
C20_4 C 0.69588(12) 0.3813(2) 0.9847(3)
C21_4 C 0.67580(12) 0.2809(2) 0.9093(3)
H21_4 H 0.635832 0.284792 0.891525
H22_4 H 0.683539 0.222874 0.980910
C22_4 C 0.68382(12) 0.4745(2) 0.8814(3)
H23_4 H 0.643814 0.483467 0.872255
H24_4 H 0.696851 0.459086 0.776854
O13_2 O 0.68080(8) 0.34536(15) 0.4076(2)
O1_4 O 0.67494(9) 0.78632(16) 0.1522(2)
C1_4 C 0.70254(11) 0.74031(19) 0.2568(3)
C2_4 C 0.70880(11) 0.4247(2) 0.4347(3)
C4_4 C 0.69588(12) 0.6187(2) 0.4847(3)
H2_3 H 0.735641 0.623369 0.506167
H3_3 H 0.677899 0.609314 0.584484
C10_4 C 0.67580(12) 0.7191(2) 0.4093(3)
H9_4 H 0.635832 0.715208 0.391525
H10_4 H 0.683539 0.777126 0.480910
C11_4 C 0.68382(12) 0.5255(2) 0.3814(3)
H11_4 H 0.643814 0.516533 0.372255
H12_4 H 0.696851 0.540914 0.276854
N1_4 N 0.63996(9) 0.86092(17) 0.8028(2)
C3_4 C 0.59884(11) 0.8019(2) 0.7497(3)
H1_4 H 0.595472 0.734240 0.790186
C5_3 C 0.52357(11) 0.9735(3) 0.4608(3)
H4_3 H 0.509277 0.915491 0.397263
C6_4 C 0.60834(11) 0.9945(2) 0.6307(3)
C7_4 C 0.64448(11) 0.9557(2) 0.7420(3)
H7_4 H 0.673883 0.998049 0.777132
C8_4 C 0.56533(11) 0.9334(2) 0.5765(3)
C9_4 C 0.56093(11) 0.8347(2) 0.6386(3)
H8_4 H 0.532182 0.790313 0.604825
H15_4 H 0.458872 0.977013 0.608973
H16_3 H 0.387111 0.937726 0.408271
H2_4 H 0.764359 0.123369 0.993833
H3_4 H 0.822101 0.109314 0.915516
H6_4 H 0.387111 0.062274 0.908271
C13_4 C 0.52357(11) 0.0265(3) 0.9608(3)
H14_4 H 0.509277 0.084509 0.897263
C5_4 C 0.47643(11) 0.9735(3) 0.0392(3)
H4_4 H 0.490723 0.915491 0.102737
H16_4 H 0.612889 0.937726 0.091729
loop_
_geom_bond_atom_site_label_1
_geom_bond_atom_site_label_2
_geom_bond_site_symmetry_1
_geom_bond_site_symmetry_2
O6 C19 1_555 1_555
O8 C19 1_555 1_555
Cu3 O8 1_555 1_555
N2 C12 1_555 1_555
C12 H13 1_555 1_555
C14 H16 1_555 1_555
C15 N2 1_555 1_555
H17 C15 1_555 1_555
C17 C12 1_555 1_555
H18 C17 1_555 1_555
Cu2 N2 1_555 1_555
O5 Cu2 1_555 1_555
O7 C18 1_555 1_555
C18 O5 1_555 1_555
C21 C18 1_555 1_555
H21 C21 1_555 1_555
H22 C21 1_555 1_555
C22 C20 1_555 1_555
H23 C22 1_555 1_555
H24 C22 1_555 1_555
Cu4 Cu2 1_555 1_555
O10 Cu2 1_555 1_555
O11 Cu2 1_555 1_555
O13 Cu2 1_555 1_555
C14 C15 1_555 1_555
C14 C16 1_555 1_555
C16 C17 1_555 1_555
O7 Cu4 1_555 1_555
C20 C21 1_555 1_555
O1 C1 1_555 1_555
O3 C1 1_555 1_555
C1 C10 1_555 1_555
C4 H2 1_555 1_555
H3 C4 1_555 1_555
C10 C4 1_555 1_555
H9 C10 1_555 1_555
H10 C10 1_555 1_555
C11 C4 1_555 1_555
H11 C11 1_555 1_555
H12 C11 1_555 1_555
O3 Cu8 1_555 1_555
N1 Cu3 1_555 1_555
C3 N1 1_555 1_555
H1 C3 1_555 1_555
C5 H4 1_555 1_555
H5 C5 1_555 1_555
C6 H6 1_555 1_555
C7 N1 1_555 1_555
H7 C7 1_555 1_555
C8 C5 1_555 1_555
C9 C3 1_555 1_555
H8 C9 1_555 1_555
O12 Cu3 1_555 1_555
C6 C7 1_555 1_555
C6 C8 1_555 1_555
C8 C9 1_555 1_555
O2 C2 1_555 1_555
O13 C2 1_555 1_555
Cu4 O2 1_555 1_555
Cu4 O1_2 1_555 1_555
O1_2 C1_2 1_555 1_555
O9 C2_2 1_555 1_555
O11 C1_2 1_555 1_555
N1_2 Cu4 1_555 1_555
O4 C2_2 1_555 1_555
C1_2 C10_2 1_555 1_555
C2_2 C11_2 1_555 1_555
C3_2 N1_2 1_555 1_555
H1_2 C3_2 1_555 1_555
C7_2 N1_2 1_555 1_555
H7_2 C7_2 1_555 1_555
C9_2 C3_2 1_555 1_555
H8_2 C9_2 1_555 1_555
C10_2 C4_2 1_555 1_555
H9_2 C10_2 1_555 1_555
H10_2 C10_2 1_555 1_555
C11_2 C4_2 1_555 1_555
H11_2 C11_2 1_555 1_555
H12_2 C11_2 1_555 1_555
Cu8 O4 1_555 1_555
O14 Cu4 1_555 1_555
C6_2 C7_2 1_555 1_555
C6_2 C8_2 1_555 1_555
C8_2 C9_2 1_555 1_555
N2_2 C12_2 1_555 1_555
C12_2 H13_2 1_555 1_555
H14 C13 1_555 1_555
C15_2 N2_2 1_555 1_555
H17_2 C15_2 1_555 1_555
C16_2 C13 1_555 1_555
C17_2 C12_2 1_555 1_555
H18_2 C17_2 1_555 1_555
Cu8 N2_2 1_555 1_555
C14_2 C15_2 1_555 1_555
C14_2 C16_2 1_555 1_555
C16_2 C17_2 1_555 1_555
O10 C19_2 1_555 1_555
O12 C18_2 1_555 1_555
O14 C19_2 1_555 1_555
C18_2 O5_2 1_555 1_555
C19_2 C22_2 1_555 1_555
C20_2 H19 1_555 1_555
H20 C20_2 1_555 1_555
C21_2 C18_2 1_555 1_555
H21_2 C21_2 1_555 1_555
H22_2 C21_2 1_555 1_555
C22_2 C20_2 1_555 1_555
H23_2 C22_2 1_555 1_555
H24_2 C22_2 1_555 1_555
C20_2 C21_2 1_555 1_555
H14_2 C13_2 1_555 1_555
H15_2 C13_2 1_555 1_555
C5_2 H4_2 1_555 1_555
H5_3 C5_2 1_555 1_555
Cu1 O1_3 1_555 1_555
O1_3 C1_3 1_555 1_555
O3_2 C1_3 1_555 1_555
N1_3 Cu1 1_555 1_555
C1_3 C10_3 1_555 1_555
C3_3 N1_3 1_555 1_555
H1_3 C3_3 1_555 1_555
C6_3 H6_3 1_555 1_555
C7_3 N1_3 1_555 1_555
H7_3 C7_3 1_555 1_555
C9_3 C3_3 1_555 1_555
H8_3 C9_3 1_555 1_555
C10_3 C4_3 1_555 1_555
H9_3 C10_3 1_555 1_555
H10_3 C10_3 1_555 1_555
C11_3 C4_3 1_555 1_555
H11_3 C11_3 1_555 1_555
H12_3 C11_3 1_555 1_555
Cu7 Cu1 1_555 1_555
O9_2 Cu1 1_555 1_555
O12_2 Cu1 1_555 1_555
O14_2 Cu1 1_555 1_555
O3_2 Cu7 1_555 1_555
C6_3 C7_3 1_555 1_555
C6_3 C8_3 1_555 1_555
C8_3 C9_3 1_555 1_555
O2_2 C2_3 1_555 1_555
O4_2 C2_3 1_555 1_555
Cu6 O4_2 1_555 1_555
O6_2 C19_3 1_555 1_555
O14_2 C19_3 1_555 1_555
Cu7 O6_2 1_555 1_555
N2_3 C12_3 1_555 1_555
C12_3 H13_3 1_555 1_555
H14_3 C13_3 1_555 1_555
H15_3 C13_3 1_555 1_555
C14_3 H16_2 1_555 1_555
C15_3 N2_3 1_555 1_555
H17_3 C15_3 1_555 1_555
C16_3 C13_3 1_555 1_555
C17_3 C12_3 1_555 1_555
H18_3 C17_3 1_555 1_555
Cu6 N2_3 1_555 1_555
O11_2 Cu6 1_555 1_555
C14_3 C15_3 1_555 1_555
C14_3 C16_3 1_555 1_555
C16_3 C17_3 1_555 1_555
O7_2 C18_3 1_555 1_555
C18_3 O5_3 1_555 1_555
C20_3 H19_3 1_555 1_555
H20_3 C20_3 1_555 1_555
C21_3 C18_3 1_555 1_555
H21_3 C21_3 1_555 1_555
H22_3 C21_3 1_555 1_555
C22_3 C20_3 1_555 1_555
H23_3 C22_3 1_555 1_555
H24_3 C22_3 1_555 1_555
O7_2 Cu5 1_555 1_555
C20_3 C21_3 1_555 1_555
N2_4 C12_4 1_555 1_555
C12_4 H13_4 1_555 1_555
C15_4 N2_4 1_555 1_555
H17_4 C15_4 1_555 1_555
C17_4 C12_4 1_555 1_555
H18_4 C17_4 1_555 1_555
Cu7 N2_4 1_555 1_555
O5_4 Cu7 1_555 1_555
O10_2 C19_4 1_555 1_555
O12_2 C18_4 1_555 1_555
O8_2 C19_4 1_555 1_555
C18_4 O5_4 1_555 1_555
C19_4 C22_4 1_555 1_555
C21_4 C18_4 1_555 1_555
H21_4 C21_4 1_555 1_555
H22_4 C21_4 1_555 1_555
C22_4 C20_4 1_555 1_555
H23_4 C22_4 1_555 1_555
H24_4 C22_4 1_555 1_555
Cu5 O8_2 1_555 1_555
O13_2 Cu7 1_555 1_555
C14_4 C15_4 1_555 1_555
C14_4 C16_4 1_555 1_555
C16_4 C17_4 1_555 1_555
C20_4 C21_4 1_555 1_555
O1_4 C1_4 1_555 1_555
O9_2 C2_4 1_555 1_555
O11_2 C1_4 1_555 1_555
O13_2 C2_4 1_555 1_555
C1_4 C10_4 1_555 1_555
C2_4 C11_4 1_555 1_555
C4_4 H2_3 1_555 1_555
H3_3 C4_4 1_555 1_555
C10_4 C4_4 1_555 1_555
H9_4 C10_4 1_555 1_555
H10_4 C10_4 1_555 1_555
C11_4 C4_4 1_555 1_555
H11_4 C11_4 1_555 1_555
H12_4 C11_4 1_555 1_555
N1_4 Cu5 1_555 1_555
C3_4 N1_4 1_555 1_555
H1_4 C3_4 1_555 1_555
C5_3 H4_3 1_555 1_555
C7_4 N1_4 1_555 1_555
H7_4 C7_4 1_555 1_555
C8_4 C5_3 1_555 1_555
C9_4 C3_4 1_555 1_555
H8_4 C9_4 1_555 1_555
C6_4 C7_4 1_555 1_555
C6_4 C8_4 1_555 1_555
C8_4 C9_4 1_555 1_555
H14_4 C13_4 1_555 1_555
C5_4 H4_4 1_555 1_555

#END
