
###############################################################################
#
# This file contains modified crystal structure data generated from the
# MOF subset of the Cambridge Structural Database (CSD) v543 
# hosted by the Cambridge Crystallographic Data Centre (CCDC).
#
# This work is licensed under the Creative Commons
# Attribution-NonCommercial-ShareAlike 4.0 International License.
# To view a copy of this license, visit
# http://creativecommons.org/licenses/by-nc-sa/4.0/
# or send a letter to
# Creative Commons, PO Box 1866, Mountain View, CA 94042, USA.
#
# CIF created using the CSD Python API on 29 September 2022
# The structure has been converted into the P1 space group
# The structure has a 3D framework
# The original CSD entry NEHZIK is in the tetragonal crystal system
# The framework has been calculated to contain at least 10.0% void space
# The void calculation uses a probe of radius 1.32A, grid spacing 0.4
#
###############################################################################

data_NEHZIK
_chemical_formula_moiety         '(C192 H160 N64 O64 Zn13)n'
_symmetry_cell_setting           triclinic
_symmetry_space_group_name_H-M   'P 1'
_symmetry_Int_Tables_number      1
_space_group_name_Hall           'P 1'
loop_
_symmetry_equiv_pos_site_id
_symmetry_equiv_pos_as_xyz
1 x,y,z
_cell_length_a                   18.3113(9)
_cell_length_b                   18.3113(9)
_cell_length_c                   22.398(2)
_cell_angle_alpha                90
_cell_angle_beta                 90
_cell_angle_gamma                90
_cell_volume                     7510.13
loop_
_atom_site_label
_atom_site_type_symbol
_atom_site_fract_x
_atom_site_fract_y
_atom_site_fract_z
Zn1 Zn 0.27719(2) 0.33832(2) 0.12519(2)
C1 C 0.3453(2) 0.3650(2) 0.24373(17)
H1 H 0.3006 0.3754 0.2615
C2 C 0.4277(2) 0.3386(2) 0.17912(19)
H2 H 0.4503 0.3273 0.1431
C3 C 0.4631(2) 0.3476(2) 0.23204(18)
C4 C 0.5389(2) 0.3409(2) 0.24722(19)
H3 H 0.5709 0.3327 0.2157
C5 C 0.5682(2) 0.3451(2) 0.30087(18)
H4 H 0.5381 0.3521 0.3338
C6 C 0.6477(2) 0.3390(2) 0.30968(17)
C7 C 0.2895(2) 0.1768(2) 0.12542(19)
H5 H 0.2914 0.1767 0.1669
C8 C 0.2867(2) 0.2123(2) 0.03436(18)
H6 H 0.2860 0.2422 0.0008
C9 C 0.2849(2) 0.1382(2) 0.03325(18)
N1 N 0.35394(18) 0.34856(18) 0.18656(15)
N2 N 0.40893(18) 0.36454(18) 0.27248(15)
H9 H 0.4152 0.3733 0.3099
N3 N 0.28960(18) 0.23652(18) 0.09255(15)
N4 N 0.2864(2) 0.11715(19) 0.09235(15)
H10 H 0.2854 0.0730 0.1054
O1 O 0.67066(15) 0.34443(17) 0.36414(12)
O2 O 0.68972(17) 0.3278(2) 0.26852(14)
Zn4 Zn 0.77719(2) 0.33832(2) 0.37481(2)
C22 C 0.0389(2) 0.3409(2) 0.25278(19)
H17 H 0.0709 0.3327 0.2843
C25 C 0.0682(2) 0.3451(2) 0.19913(18)
H20 H 0.0381 0.3521 0.1662
C28 C 0.1477(2) 0.3390(2) 0.19032(17)
C40 C 0.2821(2) 0.5883(2) 0.01663(19)
H29 H 0.2769 0.6082 0.0546
C43 C 0.2865(3) 0.5162(2) 0.01236(19)
C46 C 0.2833(2) 0.4667(2) 0.06477(18)
N8 N 0.85394(18) 0.34856(18) 0.31344(15)
N15 N 0.78960(18) 0.23652(18) 0.40745(15)
O5 O 0.17066(15) 0.34443(17) 0.13586(12)
O9 O 0.18972(17) 0.3278(2) 0.23148(14)
O12 O 0.29282(17) 0.39920(16) 0.05332(13)
O16 O 0.79282(17) 0.39920(16) 0.44668(13)
O17 O 0.27187(16) 0.49089(17) 0.11575(12)
C10 C 0.2821(2) 0.0883(2) 0.98337(19)
H7 H 0.2769 0.1082 0.9454
C11 C 0.2865(3) 0.0162(2) 0.98764(19)
Zn3 Zn 0.27719(2) 0.83832(2) 0.87481(2)
Zn9 Zn 0.77719(2) 0.83832(2) 0.62519(2)
C15 C 0.3453(2) 0.8650(2) 0.75627(17)
H13 H 0.3006 0.8754 0.7385
C18 C 0.4277(2) 0.8386(2) 0.82088(19)
H16 H 0.4503 0.8273 0.8569
C21 C 0.4631(2) 0.8476(2) 0.76796(18)
C24 C 0.5389(2) 0.8409(2) 0.75278(19)
H19 H 0.5709 0.8327 0.7843
C27 C 0.5682(2) 0.8451(2) 0.69913(18)
H22 H 0.5381 0.8521 0.6662
C30 C 0.6477(2) 0.8390(2) 0.69032(17)
C31 C 0.2895(2) 0.6768(2) 0.87458(19)
H23 H 0.2914 0.6767 0.8331
C34 C 0.2867(2) 0.7123(2) 0.96564(18)
H26 H 0.2860 0.7422 0.9992
C37 C 0.2849(2) 0.6382(2) 0.96675(18)
H32 H 0.2919 0.4957 0.9746
N7 N 0.35394(18) 0.84856(18) 0.81344(15)
N11 N 0.40893(18) 0.86454(18) 0.72752(15)
H37 H 0.4152 0.8733 0.6901
N12 N 0.28960(18) 0.73652(18) 0.90745(15)
N16 N 0.2864(2) 0.61715(19) 0.90765(15)
H38 H 0.2854 0.5730 0.8946
O7 O 0.67066(15) 0.84443(17) 0.63586(12)
O8 O 0.17066(15) 0.84443(17) 0.86414(12)
O11 O 0.68972(17) 0.8278(2) 0.73148(14)
O15 O 0.29282(17) 0.89920(16) 0.94668(13)
H8 H 0.2919 0.9957 0.0254
C12 C 0.2833(2) 0.9667(2) 0.93523(18)
O4 O 0.27187(16) 0.99089(17) 0.88425(12)
C13 C 0.8453(2) 0.3650(2) 0.25627(17)
H11 H 0.8006 0.3754 0.2385
C16 C 0.9277(2) 0.3386(2) 0.32088(19)
H14 H 0.9503 0.3273 0.3569
C19 C 0.9631(2) 0.3476(2) 0.26796(18)
C32 C 0.7895(2) 0.1768(2) 0.37458(19)
C33 C 0.7895(2) 0.6768(2) 0.62542(19)
H24 H 0.7914 0.1767 0.3331
H25 H 0.7914 0.6767 0.6669
C35 C 0.7867(2) 0.2123(2) 0.46564(18)
C36 C 0.7867(2) 0.7123(2) 0.53436(18)
H27 H 0.7860 0.2422 0.4992
H28 H 0.7860 0.7422 0.5008
C38 C 0.7849(2) 0.1382(2) 0.46675(18)
C39 C 0.7849(2) 0.6382(2) 0.53325(18)
C41 C 0.7821(2) 0.0883(2) 0.51663(19)
C42 C 0.7821(2) 0.5883(2) 0.48337(19)
H30 H 0.7769 0.1082 0.5546
H31 H 0.7769 0.6082 0.4454
C44 C 0.7865(3) 0.0162(2) 0.51236(19)
C45 C 0.7865(3) 0.5162(2) 0.48764(19)
H34 H 0.7919 0.4957 0.5254
C48 C 0.7833(2) 0.4667(2) 0.43523(18)
N9 N 0.90893(18) 0.36454(18) 0.22752(15)
H35 H 0.9152 0.3733 0.1901
N14 N 0.78960(18) 0.73652(18) 0.59255(15)
N17 N 0.7864(2) 0.11715(19) 0.40765(15)
N18 N 0.7864(2) 0.61715(19) 0.59235(15)
H39 H 0.7854 0.0730 0.3946
H40 H 0.7854 0.5730 0.6054
O19 O 0.77187(16) 0.49089(17) 0.38425(12)
H33 H 0.7919 0.9957 0.4746
C47 C 0.7833(2) 0.9667(2) 0.56477(18)
O13 O 0.79282(17) 0.89920(16) 0.55332(13)
O18 O 0.77187(16) 0.99089(17) 0.61575(12)
C4_2 C 0.0389(2) 0.8409(2) 0.74722(19)
H3_2 H 0.0709 0.8327 0.7157
C5_2 C 0.0682(2) 0.8451(2) 0.80087(18)
H4_2 H 0.0381 0.8521 0.8338
C6_2 C 0.1477(2) 0.8390(2) 0.80968(17)
O2_2 O 0.18972(17) 0.8278(2) 0.76852(14)
C1_2 C 0.8453(2) 0.8650(2) 0.74373(17)
H1_2 H 0.8006 0.8754 0.7615
C2_2 C 0.9277(2) 0.8386(2) 0.67912(19)
H2_2 H 0.9503 0.8273 0.6431
C3_2 C 0.9631(2) 0.8476(2) 0.73204(18)
N1_2 N 0.85394(18) 0.84856(18) 0.68656(15)
N2_2 N 0.90893(18) 0.86454(18) 0.77248(15)
H9_2 H 0.9152 0.8733 0.8099
Zn4_2 Zn 0.41168(2) 0.02719(2) 0.62481(2)
N8_2 N 0.40144(18) 0.10394(18) 0.56344(15)
N15_2 N 0.51348(18) 0.03960(18) 0.65745(15)
O16_2 O 0.35080(16) 0.04282(17) 0.69668(13)
Zn1_2 Zn 0.41168(2) 0.52719(2) 0.37519(2)
C1_3 C 0.3850(2) 0.5953(2) 0.49373(17)
H1_3 H 0.3746 0.5506 0.5115
C2_3 C 0.4114(2) 0.6777(2) 0.42912(19)
H2_3 H 0.4227 0.7003 0.3931
C3_3 C 0.4024(2) 0.7131(2) 0.48204(18)
C4_3 C 0.4091(2) 0.7889(2) 0.49722(19)
H3_3 H 0.4173 0.8209 0.4657
C5_3 C 0.4049(2) 0.8182(2) 0.55087(18)
H4_3 H 0.3979 0.7881 0.5838
C6_3 C 0.4110(2) 0.8977(2) 0.55968(17)
C7_2 C 0.5732(2) 0.5395(2) 0.37542(19)
H5_2 H 0.5733 0.5414 0.4169
C8_2 C 0.5377(2) 0.5367(2) 0.28436(18)
H6_2 H 0.5078 0.5360 0.2508
C9_2 C 0.6118(2) 0.5349(2) 0.28325(18)
C10_2 C 0.6617(2) 0.5321(2) 0.23337(19)
H7_2 H 0.6418 0.5269 0.1954
C11_2 C 0.7338(2) 0.5365(3) 0.23764(19)
H8_2 H 0.7543 0.5419 0.2754
C12_2 C 0.7833(2) 0.5333(2) 0.18523(18)
N1_3 N 0.40144(18) 0.60394(18) 0.43656(15)
N2_3 N 0.38546(18) 0.65893(18) 0.52248(15)
H9_3 H 0.3767 0.6652 0.5599
N3_2 N 0.51348(18) 0.53960(18) 0.34255(15)
N4_2 N 0.63285(19) 0.5364(2) 0.34235(15)
H10_2 H 0.6770 0.5354 0.3554
O1_2 O 0.40557(17) 0.92066(15) 0.61414(12)
O2_3 O 0.4222(2) 0.93972(17) 0.51852(14)
O3 O 0.85080(16) 0.54282(17) 0.19668(13)
O4_2 O 0.75911(17) 0.52187(16) 0.13425(12)
Zn5 Zn 0.91168(2) 0.52719(2) 0.12481(2)
Zn6 Zn 0.91168(2) 0.02719(2) 0.87519(2)
C13_2 C 0.3850(2) 0.0953(2) 0.50627(17)
H11_2 H 0.3746 0.0506 0.4885
C16_2 C 0.4114(2) 0.1777(2) 0.57088(19)
H14_2 H 0.4227 0.2003 0.6069
C19_2 C 0.4024(2) 0.2131(2) 0.51796(18)
C22_2 C 0.4091(2) 0.2889(2) 0.50278(19)
H17_2 H 0.4173 0.3209 0.5343
C25_2 C 0.4049(2) 0.3182(2) 0.44913(18)
H20_2 H 0.3979 0.2881 0.4162
C28_2 C 0.4110(2) 0.3977(2) 0.44032(17)
C31_2 C 0.0732(2) 0.5395(2) 0.12458(19)
C32_2 C 0.5732(2) 0.0395(2) 0.62458(19)
C33_2 C 0.0732(2) 0.0395(2) 0.87542(19)
H23_2 H 0.0733 0.5414 0.0831
H24_2 H 0.5733 0.0414 0.5831
H25_2 H 0.0733 0.0414 0.9169
C34_2 C 0.0377(2) 0.5367(2) 0.21564(18)
C35_2 C 0.5377(2) 0.0367(2) 0.71564(18)
C36_2 C 0.0377(2) 0.0367(2) 0.78436(18)
H26_2 H 0.0078 0.5360 0.2492
H27_2 H 0.5078 0.0360 0.7492
H28_2 H 0.0078 0.0360 0.7508
C37_2 C 0.1118(2) 0.5349(2) 0.21675(18)
C38_2 C 0.6118(2) 0.0349(2) 0.71675(18)
C39_2 C 0.1118(2) 0.0349(2) 0.78325(18)
C40_2 C 0.1617(2) 0.5321(2) 0.26663(19)
C41_2 C 0.6617(2) 0.0321(2) 0.76663(19)
C42_2 C 0.1617(2) 0.0321(2) 0.73337(19)
H29_2 H 0.1418 0.5269 0.3046
H30_2 H 0.6418 0.0269 0.8046
H31_2 H 0.1418 0.0269 0.6954
C43_2 C 0.2338(2) 0.5365(3) 0.26236(19)
C44_2 C 0.7338(2) 0.0365(3) 0.76236(19)
C45_2 C 0.2338(2) 0.0365(3) 0.73764(19)
H32_2 H 0.2543 0.5419 0.2246
H33_2 H 0.7543 0.0419 0.7246
H34_2 H 0.2543 0.0419 0.7754
C46_2 C 0.2833(2) 0.5333(2) 0.31477(18)
C47_2 C 0.7833(2) 0.0333(2) 0.81477(18)
C48_2 C 0.2833(2) 0.0333(2) 0.68523(18)
N9_2 N 0.38546(18) 0.15893(18) 0.47752(15)
H35_2 H 0.3767 0.1652 0.4401
N12_2 N 0.01348(18) 0.53960(18) 0.15745(15)
N14_2 N 0.01348(18) 0.03960(18) 0.84255(15)
N16_2 N 0.13285(19) 0.5364(2) 0.15765(15)
N17_2 N 0.63285(19) 0.0364(2) 0.65765(15)
N18_2 N 0.13285(19) 0.0364(2) 0.84235(15)
H38_2 H 0.1770 0.5354 0.1446
H39_2 H 0.6770 0.0354 0.6446
H40_2 H 0.1770 0.0354 0.8554
O5_2 O 0.40557(17) 0.42066(15) 0.38586(12)
O9_2 O 0.4222(2) 0.43972(17) 0.48148(14)
O12_2 O 0.35080(16) 0.54282(17) 0.30332(13)
O13_2 O 0.85080(16) 0.04282(17) 0.80332(13)
O17_2 O 0.25911(17) 0.52187(16) 0.36575(12)
O18_2 O 0.75911(17) 0.02187(16) 0.86575(12)
O19_2 O 0.25911(17) 0.02187(16) 0.63425(12)
C15_2 C 0.8850(2) 0.5953(2) 0.00627(17)
C18_2 C 0.9114(2) 0.6777(2) 0.07088(19)
H16_2 H 0.9227 0.7003 0.1069
C21_2 C 0.9024(2) 0.7131(2) 0.01796(18)
C24_2 C 0.9091(2) 0.7889(2) 0.00278(19)
H19_2 H 0.9173 0.8209 0.0343
N7_2 N 0.90144(18) 0.60394(18) 0.06344(15)
O8_2 O 0.90557(17) 0.42066(15) 0.11414(12)
H13_2 H 0.8746 0.5506 0.9885
C27_2 C 0.9049(2) 0.8182(2) 0.94913(18)
H22_2 H 0.8979 0.7881 0.9162
C30_2 C 0.9110(2) 0.8977(2) 0.94032(17)
N11_2 N 0.88546(18) 0.65893(18) 0.97752(15)
H37_2 H 0.8767 0.6652 0.9401
O7_2 O 0.90557(17) 0.92066(15) 0.88586(12)
O11_2 O 0.9222(2) 0.93972(17) 0.98148(14)
H1_4 H 0.8746 0.0506 0.0115
C5_4 C 0.9049(2) 0.3182(2) 0.05087(18)
H4_4 H 0.8979 0.2881 0.0838
C6_4 C 0.9110(2) 0.3977(2) 0.05968(17)
N2_4 N 0.88546(18) 0.15893(18) 0.02248(15)
H9_4 H 0.8767 0.1652 0.0599
O2_4 O 0.9222(2) 0.43972(17) 0.01852(14)
C1_4 C 0.8850(2) 0.0953(2) 0.99373(17)
C2_4 C 0.9114(2) 0.1777(2) 0.92912(19)
H2_4 H 0.9227 0.2003 0.8931
C3_4 C 0.9024(2) 0.2131(2) 0.98204(18)
C4_4 C 0.9091(2) 0.2889(2) 0.99722(19)
H3_4 H 0.9173 0.3209 0.9657
N1_4 N 0.90144(18) 0.10394(18) 0.93656(15)
Zn8 Zn 0.08832(2) 0.47281(2) 0.87519(2)
O8_3 O 0.09443(17) 0.07934(15) 0.11414(12)
Zn3_2 Zn 0.08832(2) 0.97281(2) 0.12481(2)
C15_3 C 0.1150(2) 0.9047(2) 0.00627(17)
C18_3 C 0.0886(2) 0.8223(2) 0.07088(19)
H16_3 H 0.0773 0.7997 0.1069
C21_3 C 0.0976(2) 0.7869(2) 0.01796(18)
C24_3 C 0.0909(2) 0.7111(2) 0.00278(19)
H19_3 H 0.0827 0.6791 0.0343
N7_3 N 0.09856(18) 0.89606(18) 0.06344(15)
O15_2 O 0.14920(16) 0.95718(17) 0.19668(13)
H13_3 H 0.1254 0.9494 0.9885
C27_3 C 0.0951(2) 0.6818(2) 0.94913(18)
H22_3 H 0.1021 0.7119 0.9162
C30_3 C 0.0890(2) 0.6023(2) 0.94032(17)
N11_3 N 0.11454(18) 0.84107(18) 0.97752(15)
H37_3 H 0.1233 0.8348 0.9401
O7_3 O 0.09443(17) 0.57934(15) 0.88586(12)
O11_3 O 0.0778(2) 0.56028(17) 0.98148(14)
Zn2 Zn 0.58832(2) 0.47281(2) 0.62481(2)
Zn7 Zn 0.58832(2) 0.97281(2) 0.37519(2)
C13_3 C 0.6150(2) 0.4047(2) 0.50627(17)
C14 C 0.6150(2) 0.9047(2) 0.49373(17)
H11_3 H 0.6254 0.4494 0.4885
H12 H 0.6254 0.9494 0.5115
C16_3 C 0.5886(2) 0.3223(2) 0.57088(19)
C17 C 0.5886(2) 0.8223(2) 0.42912(19)
H14_3 H 0.5773 0.2997 0.6069
H15 H 0.5773 0.7997 0.3931
C19_3 C 0.5976(2) 0.2869(2) 0.51796(18)
C20 C 0.5976(2) 0.7869(2) 0.48204(18)
C22_3 C 0.5909(2) 0.2111(2) 0.50278(19)
C23 C 0.5909(2) 0.7111(2) 0.49722(19)
H17_3 H 0.5827 0.1791 0.5343
H18 H 0.5827 0.6791 0.4657
C25_3 C 0.5951(2) 0.1818(2) 0.44913(18)
C26 C 0.5951(2) 0.6818(2) 0.55087(18)
H20_3 H 0.6021 0.2119 0.4162
H21 H 0.6021 0.7119 0.5838
C28_3 C 0.5890(2) 0.1023(2) 0.44032(17)
C29 C 0.5890(2) 0.6023(2) 0.55968(17)
C32_3 C 0.4268(2) 0.4605(2) 0.62458(19)
C33_3 C 0.9268(2) 0.4605(2) 0.87542(19)
H24_3 H 0.4267 0.4586 0.5831
H25_3 H 0.9267 0.4586 0.9169
C35_3 C 0.4623(2) 0.4633(2) 0.71564(18)
C36_3 C 0.9623(2) 0.4633(2) 0.78436(18)
H27_3 H 0.4922 0.4640 0.7492
H28_3 H 0.9922 0.4640 0.7508
C38_3 C 0.3882(2) 0.4651(2) 0.71675(18)
C39_3 C 0.8882(2) 0.4651(2) 0.78325(18)
C41_3 C 0.3383(2) 0.4679(2) 0.76663(19)
C42_3 C 0.8383(2) 0.4679(2) 0.73337(19)
H30_3 H 0.3582 0.4731 0.8046
H31_3 H 0.8582 0.4731 0.6954
C44_3 C 0.2662(2) 0.4635(3) 0.76236(19)
C45_3 C 0.7662(2) 0.4635(3) 0.73764(19)
H33_3 H 0.2457 0.4581 0.7246
H34_3 H 0.7457 0.4581 0.7754
C47_3 C 0.2167(2) 0.4667(2) 0.81477(18)
C48_3 C 0.7167(2) 0.4667(2) 0.68523(18)
N5 N 0.59856(18) 0.39606(18) 0.56344(15)
N6 N 0.59856(18) 0.89606(18) 0.43656(15)
N9_3 N 0.61454(18) 0.34107(18) 0.47752(15)
N10 N 0.61454(18) 0.84107(18) 0.52248(15)
H35_3 H 0.6233 0.3348 0.4401
H36 H 0.6233 0.8348 0.5599
N13 N 0.48652(18) 0.46040(18) 0.65745(15)
N14_3 N 0.98652(18) 0.46040(18) 0.84255(15)
N17_3 N 0.36715(19) 0.4636(2) 0.65765(15)
N18_3 N 0.86715(19) 0.4636(2) 0.84235(15)
H39_3 H 0.3230 0.4646 0.6446
H40_3 H 0.8230 0.4646 0.8554
O5_3 O 0.59443(17) 0.07934(15) 0.38586(12)
O6 O 0.59443(17) 0.57934(15) 0.61414(12)
O9_3 O 0.5778(2) 0.06028(17) 0.48148(14)
O10 O 0.5778(2) 0.56028(17) 0.51852(14)
O13_3 O 0.14920(16) 0.45718(17) 0.80332(13)
O14 O 0.64920(16) 0.45718(17) 0.69668(13)
O18_3 O 0.24089(17) 0.47813(16) 0.86575(12)
O19_3 O 0.74089(17) 0.47813(16) 0.63425(12)
C7_3 C 0.4268(2) 0.9605(2) 0.37542(19)
H5_3 H 0.4267 0.9586 0.4169
C8_3 C 0.4623(2) 0.9633(2) 0.28436(18)
H6_3 H 0.4922 0.9640 0.2508
C9_3 C 0.3882(2) 0.9651(2) 0.28325(18)
C10_3 C 0.3383(2) 0.9679(2) 0.23337(19)
H7_3 H 0.3582 0.9731 0.1954
C11_3 C 0.2662(2) 0.9635(3) 0.23764(19)
H8_3 H 0.2457 0.9581 0.2754
C12_3 C 0.2167(2) 0.9667(2) 0.18523(18)
N3_3 N 0.48652(18) 0.96040(18) 0.34255(15)
N4_3 N 0.36715(19) 0.9636(2) 0.34235(15)
H10_3 H 0.3230 0.9646 0.3554
O4_3 O 0.24089(17) 0.97813(16) 0.13425(12)
C31_3 C 0.9268(2) 0.9605(2) 0.12458(19)
H23_3 H 0.9267 0.9586 0.0831
C34_3 C 0.9623(2) 0.9633(2) 0.21564(18)
H26_3 H 0.9922 0.9640 0.2492
C37_3 C 0.8882(2) 0.9651(2) 0.21675(18)
C40_3 C 0.8383(2) 0.9679(2) 0.26663(19)
H29_3 H 0.8582 0.9731 0.3046
C43_3 C 0.7662(2) 0.9635(3) 0.26236(19)
H32_3 H 0.7457 0.9581 0.2246
C46_3 C 0.7167(2) 0.9667(2) 0.31477(18)
N12_3 N 0.98652(18) 0.96040(18) 0.15745(15)
N16_3 N 0.86715(19) 0.9636(2) 0.15765(15)
H38_3 H 0.8230 0.9646 0.1446
O12_3 O 0.64920(16) 0.95718(17) 0.30332(13)
O17_3 O 0.74089(17) 0.97813(16) 0.36575(12)
H12_2 H 0.1254 0.4494 0.0115
C26_2 C 0.0951(2) 0.1818(2) 0.05087(18)
H21_2 H 0.1021 0.2119 0.0838
C29_2 C 0.0890(2) 0.1023(2) 0.05968(17)
N10_2 N 0.11454(18) 0.34107(18) 0.02248(15)
H36_2 H 0.1233 0.3348 0.0599
O10_2 O 0.0778(2) 0.06028(17) 0.01852(14)
C14_2 C 0.1150(2) 0.4047(2) 0.99373(17)
C17_2 C 0.0886(2) 0.3223(2) 0.92912(19)
H15_2 H 0.0773 0.2997 0.8931
C20_2 C 0.0976(2) 0.2869(2) 0.98204(18)
C23_2 C 0.0909(2) 0.2111(2) 0.99722(19)
H18_2 H 0.0827 0.1791 0.9657
N6_2 N 0.09856(18) 0.39606(18) 0.93656(15)
Zn7_2 Zn 0.22281(2) 0.66168(2) 0.62519(2)
C14_3 C 0.1547(2) 0.6350(2) 0.74373(17)
H12_3 H 0.1994 0.6246 0.7615
C17_3 C 0.0723(2) 0.6614(2) 0.67912(19)
H15_3 H 0.0497 0.6727 0.6431
C20_3 C 0.0369(2) 0.6524(2) 0.73204(18)
N6_3 N 0.14606(18) 0.65144(18) 0.68656(15)
N10_3 N 0.09107(18) 0.63546(18) 0.77248(15)
H36_3 H 0.0848 0.6267 0.8099
Zn6_2 Zn 0.72281(2) 0.16168(2) 0.12519(2)
C47_4 C 0.7167(2) 0.0333(2) 0.06477(18)
O13_4 O 0.70718(17) 0.10080(16) 0.05332(13)
O18_4 O 0.72813(16) 0.00911(17) 0.11575(12)
H8_4 H 0.2081 0.0043 0.5254
C12_4 C 0.2167(2) 0.0333(2) 0.43523(18)
O3_2 O 0.20718(17) 0.10080(16) 0.44668(13)
O4_4 O 0.22813(16) 0.00911(17) 0.38425(12)
Zn5_2 Zn 0.22281(2) 0.16168(2) 0.37481(2)
H33_4 H 0.7081 0.0043 0.9746
C33_4 C 0.7105(2) 0.3232(2) 0.12542(19)
H25_4 H 0.7086 0.3233 0.1669
C36_4 C 0.7133(2) 0.2877(2) 0.03436(18)
H28_4 H 0.7140 0.2578 0.0008
C39_4 C 0.7151(2) 0.3618(2) 0.03325(18)
C41_4 C 0.7179(2) 0.9117(2) 0.01663(19)
H30_4 H 0.7231 0.8918 0.0546
C44_4 C 0.7135(3) 0.9838(2) 0.01236(19)
H34_4 H 0.7081 0.5043 0.0254
N14_4 N 0.71040(18) 0.26348(18) 0.09255(15)
N18_4 N 0.7136(2) 0.38285(19) 0.09235(15)
H40_4 H 0.7146 0.4270 0.1054
C7_4 C 0.2105(2) 0.8232(2) 0.62542(19)
H5_4 H 0.2086 0.8233 0.6669
C8_4 C 0.2133(2) 0.7877(2) 0.53436(18)
H6_4 H 0.2140 0.7578 0.5008
C9_4 C 0.2151(2) 0.8618(2) 0.53325(18)
C10_4 C 0.2179(2) 0.9117(2) 0.48337(19)
H7_4 H 0.2231 0.8918 0.4454
C11_4 C 0.2135(3) 0.9838(2) 0.48764(19)
N3_4 N 0.21040(18) 0.76348(18) 0.59255(15)
N4_4 N 0.2136(2) 0.88285(19) 0.59235(15)
H10_4 H 0.2146 0.9270 0.6054
Zn2_2 Zn 0.72281(2) 0.66168(2) 0.87481(2)
C13_4 C 0.6547(2) 0.6350(2) 0.75627(17)
C15_4 C 0.1547(2) 0.1350(2) 0.25627(17)
H11_4 H 0.6994 0.6246 0.7385
H13_4 H 0.1994 0.1246 0.2385
C16_4 C 0.5723(2) 0.6614(2) 0.82088(19)
C18_4 C 0.0723(2) 0.1614(2) 0.32088(19)
H14_4 H 0.5497 0.6727 0.8569
H16_4 H 0.0497 0.1727 0.3569
C19_4 C 0.5369(2) 0.6524(2) 0.76796(18)
C21_4 C 0.0369(2) 0.1524(2) 0.26796(18)
C22_4 C 0.4611(2) 0.6591(2) 0.75278(19)
C23_3 C 0.9611(2) 0.6591(2) 0.74722(19)
H17_4 H 0.4291 0.6673 0.7843
H18_3 H 0.9291 0.6673 0.7157
C25_4 C 0.4318(2) 0.6549(2) 0.69913(18)
C26_3 C 0.9318(2) 0.6549(2) 0.80087(18)
H20_4 H 0.4619 0.6479 0.6662
H21_3 H 0.9619 0.6479 0.8338
C28_4 C 0.3523(2) 0.6610(2) 0.69032(17)
C29_3 C 0.8523(2) 0.6610(2) 0.80968(17)
C31_4 C 0.2105(2) 0.3232(2) 0.37458(19)
C32_4 C 0.7105(2) 0.8232(2) 0.87458(19)
H23_4 H 0.2086 0.3233 0.3331
H24_4 H 0.7086 0.8233 0.8331
C34_4 C 0.2133(2) 0.2877(2) 0.46564(18)
C35_4 C 0.7133(2) 0.7877(2) 0.96564(18)
H26_4 H 0.2140 0.2578 0.4992
H27_4 H 0.7140 0.7578 0.9992
C37_4 C 0.2151(2) 0.3618(2) 0.46675(18)
C38_4 C 0.7151(2) 0.8618(2) 0.96675(18)
C40_4 C 0.2179(2) 0.4117(2) 0.51663(19)
C42_4 C 0.7179(2) 0.4117(2) 0.98337(19)
H29_4 H 0.2231 0.3918 0.5546
H31_4 H 0.7231 0.3918 0.9454
C43_4 C 0.2135(3) 0.4838(2) 0.51236(19)
C45_4 C 0.7135(3) 0.4838(2) 0.98764(19)
H32_4 H 0.2081 0.5043 0.4746
C46_4 C 0.2167(2) 0.5333(2) 0.56477(18)
C48_4 C 0.7167(2) 0.5333(2) 0.93523(18)
N5_2 N 0.64606(18) 0.65144(18) 0.81344(15)
N7_4 N 0.14606(18) 0.15144(18) 0.31344(15)
N9_4 N 0.59107(18) 0.63546(18) 0.72752(15)
N11_4 N 0.09107(18) 0.13546(18) 0.22752(15)
H35_4 H 0.5848 0.6267 0.6901
H37_4 H 0.0848 0.1267 0.1901
N12_4 N 0.21040(18) 0.26348(18) 0.40745(15)
N13_2 N 0.71040(18) 0.76348(18) 0.90745(15)
N16_4 N 0.2136(2) 0.38285(19) 0.40765(15)
N17_4 N 0.7136(2) 0.88285(19) 0.90765(15)
H38_4 H 0.2146 0.4270 0.3946
H39_4 H 0.7146 0.9270 0.8946
O5_4 O 0.32934(15) 0.65557(17) 0.63586(12)
O6_2 O 0.82934(15) 0.65557(17) 0.86414(12)
O8_4 O 0.32934(15) 0.15557(17) 0.36414(12)
O9_4 O 0.31028(17) 0.6722(2) 0.73148(14)
O10_3 O 0.81028(17) 0.6722(2) 0.76852(14)
O12_4 O 0.20718(17) 0.60080(16) 0.55332(13)
O14_2 O 0.70718(17) 0.60080(16) 0.94668(13)
O17_4 O 0.22813(16) 0.50911(17) 0.61575(12)
O19_4 O 0.72813(16) 0.50911(17) 0.88425(12)
C24_4 C 0.9611(2) 0.1591(2) 0.25278(19)
H19_4 H 0.9291 0.1673 0.2843
C27_4 C 0.9318(2) 0.1549(2) 0.19913(18)
H22_4 H 0.9619 0.1479 0.1662
C30_4 C 0.8523(2) 0.1610(2) 0.19032(17)
O7_4 O 0.82934(15) 0.15557(17) 0.13586(12)
O11_4 O 0.81028(17) 0.1722(2) 0.23148(14)
C14_4 C 0.6547(2) 0.1350(2) 0.24373(17)
H12_4 H 0.6994 0.1246 0.2615
C17_4 C 0.5723(2) 0.1614(2) 0.17912(19)
H15_4 H 0.5497 0.1727 0.1431
C20_4 C 0.5369(2) 0.1524(2) 0.23204(18)
C23_4 C 0.4611(2) 0.1591(2) 0.24722(19)
H18_4 H 0.4291 0.1673 0.2157
C26_4 C 0.4318(2) 0.1549(2) 0.30087(18)
H21_4 H 0.4619 0.1479 0.3338
C29_4 C 0.3523(2) 0.1610(2) 0.30968(17)
N6_4 N 0.64606(18) 0.15144(18) 0.18656(15)
N10_4 N 0.59107(18) 0.13546(18) 0.27248(15)
H36_4 H 0.5848 0.1267 0.3099
O10_4 O 0.31028(17) 0.1722(2) 0.26852(14)
loop_
_geom_bond_atom_site_label_1
_geom_bond_atom_site_label_2
_geom_bond_site_symmetry_1
_geom_bond_site_symmetry_2
Zn1 N1 1_555 1_555
C1 H1 1_555 1_555
C2 H2 1_555 1_555
C3 C2 1_555 1_555
C4 C3 1_555 1_555
H3 C4 1_555 1_555
C5 C4 1_555 1_555
H4 C5 1_555 1_555
C6 C5 1_555 1_555
C7 H5 1_555 1_555
C8 H6 1_555 1_555
C9 C8 1_555 1_555
N1 C1 1_555 1_555
N2 C1 1_555 1_555
H9 N2 1_555 1_555
N3 Zn1 1_555 1_555
N4 C7 1_555 1_555
H10 N4 1_555 1_555
O1 C6 1_555 1_555
O2 C6 1_555 1_555
Zn4 O1 1_555 1_555
H17 C22 1_555 1_555
C25 C22 1_555 1_555
H20 C25 1_555 1_555
C28 C25 1_555 1_555
H29 C40 1_555 1_555
C43 C40 1_555 1_555
C46 C43 1_555 1_555
N8 Zn4 1_555 1_555
N15 Zn4 1_555 1_555
O5 Zn1 1_555 1_555
O9 C28 1_555 1_555
O12 Zn1 1_555 1_555
O16 Zn4 1_555 1_555
O17 C46 1_555 1_555
C2 N1 1_555 1_555
C3 N2 1_555 1_555
C7 N3 1_555 1_555
C8 N3 1_555 1_555
C9 N4 1_555 1_555
C28 O5 1_555 1_555
C46 O12 1_555 1_555
H7 C10 1_555 1_555
C11 C10 1_555 1_555
Zn3 N7 1_555 1_555
Zn9 O7 1_555 1_555
C15 H13 1_555 1_555
C18 H16 1_555 1_555
C21 C18 1_555 1_555
C24 C21 1_555 1_555
H19 C24 1_555 1_555
C27 C24 1_555 1_555
H22 C27 1_555 1_555
C30 C27 1_555 1_555
C31 H23 1_555 1_555
C34 H26 1_555 1_555
C37 C34 1_555 1_555
N7 C15 1_555 1_555
N11 C15 1_555 1_555
H37 N11 1_555 1_555
N12 Zn3 1_555 1_555
N16 C31 1_555 1_555
H38 N16 1_555 1_555
O7 C30 1_555 1_555
O8 Zn3 1_555 1_555
O11 C30 1_555 1_555
O15 Zn3 1_555 1_555
C18 N7 1_555 1_555
C21 N11 1_555 1_555
C31 N12 1_555 1_555
C34 N12 1_555 1_555
C37 N16 1_555 1_555
O15 C12 1_555 1_555
O4 C12 1_555 1_555
Zn9 N14 1_555 1_555
C13 H11 1_555 1_555
C16 H14 1_555 1_555
C19 C16 1_555 1_555
C32 H24 1_555 1_555
C33 H25 1_555 1_555
C35 H27 1_555 1_555
C36 H28 1_555 1_555
C38 C35 1_555 1_555
C39 C36 1_555 1_555
C41 C38 1_555 1_555
C42 C39 1_555 1_555
H30 C41 1_555 1_555
H31 C42 1_555 1_555
C44 C41 1_555 1_555
C45 C42 1_555 1_555
H34 C45 1_555 1_555
C48 C45 1_555 1_555
N8 C13 1_555 1_555
N9 C13 1_555 1_555
H35 N9 1_555 1_555
N14 C33 1_555 1_555
N17 C32 1_555 1_555
N18 C33 1_555 1_555
H39 N17 1_555 1_555
H40 N18 1_555 1_555
O19 C48 1_555 1_555
C16 N8 1_555 1_555
C19 N9 1_555 1_555
C32 N15 1_555 1_555
C35 N15 1_555 1_555
C36 N14 1_555 1_555
C38 N17 1_555 1_555
C39 N18 1_555 1_555
C48 O16 1_555 1_555
Zn9 O13 1_555 1_555
O13 C47 1_555 1_555
O18 C47 1_555 1_555
H3_2 C4_2 1_555 1_555
C5_2 C4_2 1_555 1_555
H4_2 C5_2 1_555 1_555
C6_2 C5_2 1_555 1_555
O8 C6_2 1_555 1_555
O2_2 C6_2 1_555 1_555
Zn9 N1_2 1_555 1_555
C1_2 H1_2 1_555 1_555
C2_2 H2_2 1_555 1_555
C3_2 C2_2 1_555 1_555
N1_2 C1_2 1_555 1_555
N2_2 C1_2 1_555 1_555
H9_2 N2_2 1_555 1_555
C2_2 N1_2 1_555 1_555
C3_2 N2_2 1_555 1_555
N8_2 Zn4_2 1_555 1_555
N15_2 Zn4_2 1_555 1_555
O16_2 Zn4_2 1_555 1_555
Zn1_2 N1_3 1_555 1_555
C1_3 H1_3 1_555 1_555
C2_3 H2_3 1_555 1_555
C3_3 C2_3 1_555 1_555
C4_3 C3_3 1_555 1_555
H3_3 C4_3 1_555 1_555
C5_3 C4_3 1_555 1_555
H4_3 C5_3 1_555 1_555
C6_3 C5_3 1_555 1_555
C7_2 H5_2 1_555 1_555
C8_2 H6_2 1_555 1_555
C9_2 C8_2 1_555 1_555
C10_2 C9_2 1_555 1_555
H7_2 C10_2 1_555 1_555
C11_2 C10_2 1_555 1_555
H8_2 C11_2 1_555 1_555
C12_2 C11_2 1_555 1_555
N1_3 C1_3 1_555 1_555
N2_3 C1_3 1_555 1_555
H9_3 N2_3 1_555 1_555
N3_2 Zn1_2 1_555 1_555
N4_2 C7_2 1_555 1_555
H10_2 N4_2 1_555 1_555
O1_2 C6_3 1_555 1_555
O2_3 C6_3 1_555 1_555
O3 C12_2 1_555 1_555
O4_2 C12_2 1_555 1_555
Zn5 O3 1_555 1_555
Zn6 O13_2 1_555 1_555
C13_2 H11_2 1_555 1_555
C16_2 H14_2 1_555 1_555
C19_2 C16_2 1_555 1_555
C22_2 C19_2 1_555 1_555
H17_2 C22_2 1_555 1_555
C25_2 C22_2 1_555 1_555
H20_2 C25_2 1_555 1_555
C28_2 C25_2 1_555 1_555
C31_2 H23_2 1_555 1_555
C32_2 H24_2 1_555 1_555
C33_2 H25_2 1_555 1_555
C34_2 H26_2 1_555 1_555
C35_2 H27_2 1_555 1_555
C36_2 H28_2 1_555 1_555
C37_2 C34_2 1_555 1_555
C38_2 C35_2 1_555 1_555
C39_2 C36_2 1_555 1_555
C40_2 C37_2 1_555 1_555
C41_2 C38_2 1_555 1_555
C42_2 C39_2 1_555 1_555
H29_2 C40_2 1_555 1_555
H30_2 C41_2 1_555 1_555
H31_2 C42_2 1_555 1_555
C43_2 C40_2 1_555 1_555
C44_2 C41_2 1_555 1_555
C45_2 C42_2 1_555 1_555
H32_2 C43_2 1_555 1_555
H33_2 C44_2 1_555 1_555
H34_2 C45_2 1_555 1_555
C46_2 C43_2 1_555 1_555
C47_2 C44_2 1_555 1_555
C48_2 C45_2 1_555 1_555
N8_2 C13_2 1_555 1_555
N9_2 C13_2 1_555 1_555
H35_2 N9_2 1_555 1_555
N14_2 C33_2 1_555 1_555
N16_2 C31_2 1_555 1_555
N17_2 C32_2 1_555 1_555
N18_2 C33_2 1_555 1_555
H38_2 N16_2 1_555 1_555
H39_2 N17_2 1_555 1_555
H40_2 N18_2 1_555 1_555
O5_2 Zn1_2 1_555 1_555
O9_2 C28_2 1_555 1_555
O12_2 Zn1_2 1_555 1_555
O13_2 C47_2 1_555 1_555
O17_2 C46_2 1_555 1_555
O18_2 C47_2 1_555 1_555
O19_2 C48_2 1_555 1_555
C2_3 N1_3 1_555 1_555
C3_3 N2_3 1_555 1_555
C7_2 N3_2 1_555 1_555
C8_2 N3_2 1_555 1_555
C9_2 N4_2 1_555 1_555
C16_2 N8_2 1_555 1_555
C19_2 N9_2 1_555 1_555
C28_2 O5_2 1_555 1_555
C31_2 N12_2 1_555 1_555
C32_2 N15_2 1_555 1_555
C34_2 N12_2 1_555 1_555
C35_2 N15_2 1_555 1_555
C36_2 N14_2 1_555 1_555
C37_2 N16_2 1_555 1_555
C38_2 N17_2 1_555 1_555
C39_2 N18_2 1_555 1_555
C46_2 O12_2 1_555 1_555
C48_2 O16_2 1_555 1_555
Zn5 N7_2 1_555 1_555
C18_2 H16_2 1_555 1_555
C21_2 C18_2 1_555 1_555
C24_2 C21_2 1_555 1_555
H19_2 C24_2 1_555 1_555
N7_2 C15_2 1_555 1_555
O8_2 Zn5 1_555 1_555
C18_2 N7_2 1_555 1_555
H22_2 C27_2 1_555 1_555
C30_2 C27_2 1_555 1_555
H37_2 N11_2 1_555 1_555
O7_2 C30_2 1_555 1_555
O11_2 C30_2 1_555 1_555
H4_4 C5_4 1_555 1_555
C6_4 C5_4 1_555 1_555
H9_4 N2_4 1_555 1_555
O8_2 C6_4 1_555 1_555
O2_4 C6_4 1_555 1_555
Zn6 N1_4 1_555 1_555
C2_4 H2_4 1_555 1_555
C3_4 C2_4 1_555 1_555
C4_4 C3_4 1_555 1_555
H3_4 C4_4 1_555 1_555
N1_4 C1_4 1_555 1_555
C2_4 N1_4 1_555 1_555
Zn3_2 N7_3 1_555 1_555
C18_3 H16_3 1_555 1_555
C21_3 C18_3 1_555 1_555
C24_3 C21_3 1_555 1_555
H19_3 C24_3 1_555 1_555
N7_3 C15_3 1_555 1_555
O15_2 Zn3_2 1_555 1_555
C18_3 N7_3 1_555 1_555
Zn8 O7_3 1_555 1_555
H22_3 C27_3 1_555 1_555
C30_3 C27_3 1_555 1_555
H37_3 N11_3 1_555 1_555
O7_3 C30_3 1_555 1_555
O11_3 C30_3 1_555 1_555
Zn2 N5 1_555 1_555
Zn8 O13_3 1_555 1_555
Zn7 N6 1_555 1_555
C13_3 H11_3 1_555 1_555
C14 H12 1_555 1_555
C16_3 H14_3 1_555 1_555
C17 H15 1_555 1_555
C19_3 C16_3 1_555 1_555
C20 C17 1_555 1_555
C22_3 C19_3 1_555 1_555
C23 C20 1_555 1_555
H17_3 C22_3 1_555 1_555
H18 C23 1_555 1_555
C25_3 C22_3 1_555 1_555
C26 C23 1_555 1_555
H20_3 C25_3 1_555 1_555
H21 C26 1_555 1_555
C28_3 C25_3 1_555 1_555
C29 C26 1_555 1_555
C32_3 H24_3 1_555 1_555
C33_3 H25_3 1_555 1_555
C35_3 H27_3 1_555 1_555
C36_3 H28_3 1_555 1_555
C38_3 C35_3 1_555 1_555
C39_3 C36_3 1_555 1_555
C41_3 C38_3 1_555 1_555
C42_3 C39_3 1_555 1_555
H30_3 C41_3 1_555 1_555
H31_3 C42_3 1_555 1_555
C44_3 C41_3 1_555 1_555
C45_3 C42_3 1_555 1_555
H33_3 C44_3 1_555 1_555
H34_3 C45_3 1_555 1_555
C47_3 C44_3 1_555 1_555
C48_3 C45_3 1_555 1_555
N5 C13_3 1_555 1_555
N6 C14 1_555 1_555
N9_3 C13_3 1_555 1_555
N10 C14 1_555 1_555
H35_3 N9_3 1_555 1_555
H36 N10 1_555 1_555
N13 Zn2 1_555 1_555
N14_3 C33_3 1_555 1_555
N17_3 C32_3 1_555 1_555
N18_3 C33_3 1_555 1_555
H39_3 N17_3 1_555 1_555
H40_3 N18_3 1_555 1_555
O6 Zn2 1_555 1_555
O9_3 C28_3 1_555 1_555
O10 C29 1_555 1_555
O13_3 C47_3 1_555 1_555
O14 Zn2 1_555 1_555
O18_3 C47_3 1_555 1_555
O19_3 C48_3 1_555 1_555
C16_3 N5 1_555 1_555
C17 N6 1_555 1_555
C19_3 N9_3 1_555 1_555
C20 N10 1_555 1_555
C28_3 O5_3 1_555 1_555
C29 O6 1_555 1_555
C32_3 N13 1_555 1_555
C35_3 N13 1_555 1_555
C36_3 N14_3 1_555 1_555
C38_3 N17_3 1_555 1_555
C39_3 N18_3 1_555 1_555
C48_3 O14 1_555 1_555
C7_3 H5_3 1_555 1_555
C8_3 H6_3 1_555 1_555
C9_3 C8_3 1_555 1_555
C10_3 C9_3 1_555 1_555
H7_3 C10_3 1_555 1_555
C11_3 C10_3 1_555 1_555
H8_3 C11_3 1_555 1_555
C12_3 C11_3 1_555 1_555
N3_3 Zn7 1_555 1_555
N4_3 C7_3 1_555 1_555
H10_3 N4_3 1_555 1_555
O15_2 C12_3 1_555 1_555
O4_3 C12_3 1_555 1_555
C31_3 H23_3 1_555 1_555
C34_3 H26_3 1_555 1_555
C37_3 C34_3 1_555 1_555
C40_3 C37_3 1_555 1_555
H29_3 C40_3 1_555 1_555
C43_3 C40_3 1_555 1_555
H32_3 C43_3 1_555 1_555
C46_3 C43_3 1_555 1_555
N16_3 C31_3 1_555 1_555
H38_3 N16_3 1_555 1_555
O12_3 Zn7 1_555 1_555
O17_3 C46_3 1_555 1_555
C7_3 N3_3 1_555 1_555
C8_3 N3_3 1_555 1_555
C9_3 N4_3 1_555 1_555
C31_3 N12_3 1_555 1_555
C34_3 N12_3 1_555 1_555
C37_3 N16_3 1_555 1_555
C46_3 O12_3 1_555 1_555
H21_2 C26_2 1_555 1_555
C29_2 C26_2 1_555 1_555
H36_2 N10_2 1_555 1_555
O10_2 C29_2 1_555 1_555
C29_2 O8_3 1_555 1_555
Zn8 N6_2 1_555 1_555
C17_2 H15_2 1_555 1_555
C20_2 C17_2 1_555 1_555
C23_2 C20_2 1_555 1_555
H18_2 C23_2 1_555 1_555
N6_2 C14_2 1_555 1_555
C17_2 N6_2 1_555 1_555
Zn7_2 N6_3 1_555 1_555
C14_3 H12_3 1_555 1_555
C17_3 H15_3 1_555 1_555
C20_3 C17_3 1_555 1_555
N6_3 C14_3 1_555 1_555
N10_3 C14_3 1_555 1_555
H36_3 N10_3 1_555 1_555
C17_3 N6_3 1_555 1_555
C20_3 N10_3 1_555 1_555
Zn6_2 O13_4 1_555 1_555
O13_4 C47_4 1_555 1_555
O18_4 C47_4 1_555 1_555
O3_2 C12_4 1_555 1_555
O4_4 C12_4 1_555 1_555
Zn5_2 O3_2 1_555 1_555
Zn6_2 N14_4 1_555 1_555
C33_4 H25_4 1_555 1_555
C36_4 H28_4 1_555 1_555
C39_4 C36_4 1_555 1_555
H30_4 C41_4 1_555 1_555
C44_4 C41_4 1_555 1_555
N14_4 C33_4 1_555 1_555
N18_4 C33_4 1_555 1_555
H40_4 N18_4 1_555 1_555
C36_4 N14_4 1_555 1_555
C39_4 N18_4 1_555 1_555
C7_4 H5_4 1_555 1_555
C8_4 H6_4 1_555 1_555
C9_4 C8_4 1_555 1_555
C10_4 C9_4 1_555 1_555
H7_4 C10_4 1_555 1_555
C11_4 C10_4 1_555 1_555
N3_4 Zn7_2 1_555 1_555
N4_4 C7_4 1_555 1_555
H10_4 N4_4 1_555 1_555
Zn2_2 N5_2 1_555 1_555
Zn5_2 N7_4 1_555 1_555
C13_4 H11_4 1_555 1_555
C15_4 H13_4 1_555 1_555
C16_4 H14_4 1_555 1_555
C18_4 H16_4 1_555 1_555
C19_4 C16_4 1_555 1_555
C21_4 C18_4 1_555 1_555
C22_4 C19_4 1_555 1_555
H17_4 C22_4 1_555 1_555
H18_3 C23_3 1_555 1_555
C25_4 C22_4 1_555 1_555
C26_3 C23_3 1_555 1_555
H20_4 C25_4 1_555 1_555
H21_3 C26_3 1_555 1_555
C28_4 C25_4 1_555 1_555
C29_3 C26_3 1_555 1_555
C31_4 H23_4 1_555 1_555
C32_4 H24_4 1_555 1_555
C34_4 H26_4 1_555 1_555
C35_4 H27_4 1_555 1_555
C37_4 C34_4 1_555 1_555
C38_4 C35_4 1_555 1_555
C40_4 C37_4 1_555 1_555
H29_4 C40_4 1_555 1_555
H31_4 C42_4 1_555 1_555
C43_4 C40_4 1_555 1_555
C45_4 C42_4 1_555 1_555
H32_4 C43_4 1_555 1_555
C46_4 C43_4 1_555 1_555
C48_4 C45_4 1_555 1_555
N5_2 C13_4 1_555 1_555
N7_4 C15_4 1_555 1_555
N9_4 C13_4 1_555 1_555
N11_4 C15_4 1_555 1_555
H35_4 N9_4 1_555 1_555
H37_4 N11_4 1_555 1_555
N12_4 Zn5_2 1_555 1_555
N13_2 Zn2_2 1_555 1_555
N16_4 C31_4 1_555 1_555
N17_4 C32_4 1_555 1_555
H38_4 N16_4 1_555 1_555
H39_4 N17_4 1_555 1_555
O5_4 Zn7_2 1_555 1_555
O6_2 Zn2_2 1_555 1_555
O8_4 Zn5_2 1_555 1_555
O9_4 C28_4 1_555 1_555
O10_3 C29_3 1_555 1_555
O12_4 Zn7_2 1_555 1_555
O14_2 Zn2_2 1_555 1_555
O17_4 C46_4 1_555 1_555
O19_4 C48_4 1_555 1_555
C7_4 N3_4 1_555 1_555
C8_4 N3_4 1_555 1_555
C9_4 N4_4 1_555 1_555
C16_4 N5_2 1_555 1_555
C18_4 N7_4 1_555 1_555
C19_4 N9_4 1_555 1_555
C21_4 N11_4 1_555 1_555
C28_4 O5_4 1_555 1_555
C29_3 O6_2 1_555 1_555
C31_4 N12_4 1_555 1_555
C32_4 N13_2 1_555 1_555
C34_4 N12_4 1_555 1_555
C35_4 N13_2 1_555 1_555
C37_4 N16_4 1_555 1_555
C38_4 N17_4 1_555 1_555
C46_4 O12_4 1_555 1_555
C48_4 O14_2 1_555 1_555
Zn6_2 O7_4 1_555 1_555
H19_4 C24_4 1_555 1_555
C27_4 C24_4 1_555 1_555
H22_4 C27_4 1_555 1_555
C30_4 C27_4 1_555 1_555
O7_4 C30_4 1_555 1_555
O11_4 C30_4 1_555 1_555
Zn6_2 N6_4 1_555 1_555
C14_4 H12_4 1_555 1_555
C17_4 H15_4 1_555 1_555
C20_4 C17_4 1_555 1_555
C23_4 C20_4 1_555 1_555
H18_4 C23_4 1_555 1_555
C26_4 C23_4 1_555 1_555
H21_4 C26_4 1_555 1_555
C29_4 C26_4 1_555 1_555
N6_4 C14_4 1_555 1_555
N10_4 C14_4 1_555 1_555
H36_4 N10_4 1_555 1_555
O10_4 C29_4 1_555 1_555
C17_4 N6_4 1_555 1_555
C20_4 N10_4 1_555 1_555
C29_4 O8_4 1_555 1_555

#END
