
###############################################################################
#
# This file contains modified crystal structure data generated from the
# MOF subset of the Cambridge Structural Database (CSD) v543 
# hosted by the Cambridge Crystallographic Data Centre (CCDC).
#
# This work is licensed under the Creative Commons
# Attribution-NonCommercial-ShareAlike 4.0 International License.
# To view a copy of this license, visit
# http://creativecommons.org/licenses/by-nc-sa/4.0/
# or send a letter to
# Creative Commons, PO Box 1866, Mountain View, CA 94042, USA.
#
# CIF created using the CSD Python API on 29 September 2022
# The structure has been converted into the P1 space group
# The structure has a 3D framework
# The original CSD entry NEHZUY is in the orthorhombic crystal system
# The framework has been calculated to contain at least 10.0% void space
# The void calculation uses a probe of radius 1.32A, grid spacing 0.4
# H atom positions have been added when not included in the experimental data
#
###############################################################################

data_NEHZUY
_chemical_formula_moiety         '(C84 H28 Cu19 O56)n'
_symmetry_cell_setting           triclinic
_symmetry_space_group_name_H-M   'P 1'
_symmetry_Int_Tables_number      1
_space_group_name_Hall           'P 1'
loop_
_symmetry_equiv_pos_site_id
_symmetry_equiv_pos_as_xyz
1 x,y,z
_cell_length_a                   18.5853(24)
_cell_length_b                   18.5547(8)
_cell_length_c                   26.382(4)
_cell_angle_alpha                90
_cell_angle_beta                 90
_cell_angle_gamma                90
_cell_volume                     9097.69
loop_
_atom_site_label
_atom_site_type_symbol
_atom_site_fract_x
_atom_site_fract_y
_atom_site_fract_z
_atom_site_U_iso_or_equiv
_atom_site_thermal_displace_type
Cu1 Cu 0.2841(5) 0.78774(32) 0.19192(29) 0.0119 Uiso
Cu2 Cu 0.0677(9) 0.500 0.000 0.0361 Uiso
C1 C 0.063837 0.66080(30) 0.14505(25) 0.0276 Uiso
C2 C 0.000 0.6370(4) 0.12522(28) 0.0263 Uiso
C3 C 0.063837 0.70847(29) 0.18471(25) 0.0276 Uiso
C4 C -0.000 0.7323(4) 0.20454(28) 0.0263 Uiso
C5 C 0.000 0.5848(6) 0.0818(4) 0.0307 Uiso
O1 O 0.05777 0.5632(7) 0.0639(4) 0.0354 Uiso
C6 C 0.133735 0.7346(4) 0.20642(28) 0.0420 Uiso
O2 O 0.1567(4) 0.7087(7) 0.2466(4) 0.0920 Uiso
O3 O 0.1685(4) 0.7820(6) 0.1842(5) 0.0920 Uiso
O4 O 0.2769(5) 0.69613(34) 0.2418(5) 0.0580 Uiso
Cu4 Cu 0.2841(5) 0.21226(32) 0.19192(29) 0.0119 Uiso
C10 C 0.063837 0.33920(30) 0.14505(25) 0.0276 Uiso
C11 C -0.000 0.3630(4) 0.12522(28) 0.0263 Uiso
C12 C 0.063837 0.29153(29) 0.18471(25) 0.0276 Uiso
C13 C 0.000 0.2677(4) 0.20454(28) 0.0263 Uiso
C14 C -0.000 0.4152(6) 0.0818(4) 0.0307 Uiso
O9 O 0.05777 0.4368(7) 0.0639(4) 0.0354 Uiso
C15 C 0.133735 0.2654(4) 0.20642(28) 0.0420 Uiso
O10 O 0.1567(4) 0.2913(7) 0.2466(4) 0.0920 Uiso
O11 O 0.1685(4) 0.2180(6) 0.1842(5) 0.0920 Uiso
O12 O 0.2769(5) 0.30387(34) 0.2418(5) 0.0580 Uiso
Cu6 Cu 0.2159(5) 0.71226(32) 0.30808(29) 0.0119 Uiso
Cu8 Cu 0.2159(5) 0.28774(32) 0.30808(29) 0.0119 Uiso
O19 O 0.3433(4) 0.7913(7) 0.2534(4) 0.0920 Uiso
O21 O 0.3433(4) 0.2087(7) 0.2534(4) 0.0920 Uiso
O23 O 0.2231(5) 0.80387(34) 0.2582(5) 0.0580 Uiso
O25 O 0.2231(5) 0.19613(34) 0.2582(5) 0.0580 Uiso
H1 H 0.114578 0.641835 0.129295 . .
H2 H -5.05628e-18 0.770186 0.236066 . .
H3 H -4.24257e-19 0.229814 0.236066 . .
H6 H 0.114578 0.358165 0.129295 . .
Cu2_2 Cu 0.0677(9) 0.500 1.000 0.0361 Uiso
O17 O 0.05777 0.4368(7) 0.9361(4) 0.0354 Uiso
O18 O 0.05777 0.5632(7) 0.9361(4) 0.0354 Uiso
C2_2 C 1.000 0.6370(4) 0.12522(28) 0.0263 Uiso
C4_2 C 1.000 0.7323(4) 0.20454(28) 0.0263 Uiso
C5_2 C 1.000 0.5848(6) 0.0818(4) 0.0307 Uiso
C7 C 0.936163 0.66080(30) 0.14505(25) 0.0276 Uiso
C8 C 0.936163 0.70847(29) 0.18471(25) 0.0276 Uiso
O5 O 0.94223 0.5632(7) 0.0639(4) 0.0354 Uiso
C9 C 0.866265 0.7346(4) 0.20642(28) 0.0420 Uiso
O6 O 0.8433(4) 0.7087(7) 0.2466(4) 0.0920 Uiso
O7 O 0.8315(4) 0.7820(6) 0.1842(5) 0.0920 Uiso
Cu3 Cu 0.7159(5) 0.78774(32) 0.19192(29) 0.0119 Uiso
O8 O 0.7231(5) 0.69613(34) 0.2418(5) 0.0580 Uiso
C11_2 C 1.000 0.3630(4) 0.12522(28) 0.0263 Uiso
C13_2 C 1.000 0.2677(4) 0.20454(28) 0.0263 Uiso
C14_2 C 1.000 0.4152(6) 0.0818(4) 0.0307 Uiso
C16 C 0.936163 0.33920(30) 0.14505(25) 0.0276 Uiso
C17 C 0.936163 0.29153(29) 0.18471(25) 0.0276 Uiso
O13 O 0.94223 0.4368(7) 0.0639(4) 0.0354 Uiso
C18 C 0.866265 0.2654(4) 0.20642(28) 0.0420 Uiso
O14 O 0.8433(4) 0.2913(7) 0.2466(4) 0.0920 Uiso
O15 O 0.8315(4) 0.2180(6) 0.1842(5) 0.0920 Uiso
Cu5 Cu 0.7159(5) 0.21226(32) 0.19192(29) 0.0119 Uiso
O16 O 0.7231(5) 0.30387(34) 0.2418(5) 0.0580 Uiso
Cu7 Cu 0.7841(5) 0.71226(32) 0.30808(29) 0.0119 Uiso
Cu9 Cu 0.7841(5) 0.28774(32) 0.30808(29) 0.0119 Uiso
Cu10 Cu 0.9323(9) 0.500 0.000 0.0361 Uiso
O20 O 0.6567(4) 0.7913(7) 0.2534(4) 0.0920 Uiso
O22 O 0.6567(4) 0.2087(7) 0.2534(4) 0.0920 Uiso
O24 O 0.7769(5) 0.80387(34) 0.2582(5) 0.0580 Uiso
O26 O 0.7769(5) 0.19613(34) 0.2582(5) 0.0580 Uiso
H2_2 H 1 0.770186 0.236066 . .
H3_2 H 1 0.229814 0.236066 . .
H4 H 0.885422 0.641835 0.129295 . .
H5 H 0.885422 0.358165 0.129295 . .
Cu10_2 Cu 0.9323(9) 0.500 1.000 0.0361 Uiso
O17_2 O 0.94223 0.5632(7) 0.9361(4) 0.0354 Uiso
O18_2 O 0.94223 0.4368(7) 0.9361(4) 0.0354 Uiso
Cu1_2 Cu 0.2841(5) 0.21226(32) 0.80808(29) 0.0119 Uiso
C1_2 C 0.063837 0.33920(30) 0.85495(25) 0.0276 Uiso
C2_3 C 0.000 0.3630(4) 0.87478(28) 0.0263 Uiso
C3_2 C 0.063837 0.29153(29) 0.81529(25) 0.0276 Uiso
C4_3 C 0.000 0.2677(4) 0.79546(28) 0.0263 Uiso
C5_3 C 0.000 0.4152(6) 0.9182(4) 0.0307 Uiso
C6_2 C 0.133735 0.2654(4) 0.79358(28) 0.0420 Uiso
O2_2 O 0.1567(4) 0.2913(7) 0.7534(4) 0.0920 Uiso
O3_2 O 0.1685(4) 0.2180(6) 0.8158(5) 0.0920 Uiso
O4_2 O 0.2769(5) 0.30387(34) 0.7582(5) 0.0580 Uiso
Cu4_2 Cu 0.2841(5) 0.78774(32) 0.80808(29) 0.0119 Uiso
C10_2 C 0.063837 0.66080(30) 0.85495(25) 0.0276 Uiso
C11_3 C 0.000 0.6370(4) 0.87478(28) 0.0263 Uiso
C12_2 C 0.063837 0.70847(29) 0.81529(25) 0.0276 Uiso
C13_3 C -0.000 0.7323(4) 0.79546(28) 0.0263 Uiso
C14_3 C 0.000 0.5848(6) 0.9182(4) 0.0307 Uiso
C15_2 C 0.133735 0.7346(4) 0.79358(28) 0.0420 Uiso
O10_2 O 0.1567(4) 0.7087(7) 0.7534(4) 0.0920 Uiso
O11_2 O 0.1685(4) 0.7820(6) 0.8158(5) 0.0920 Uiso
O12_2 O 0.2769(5) 0.69613(34) 0.7582(5) 0.0580 Uiso
Cu6_2 Cu 0.2159(5) 0.28774(32) 0.69192(29) 0.0119 Uiso
Cu8_2 Cu 0.2159(5) 0.71226(32) 0.69192(29) 0.0119 Uiso
O19_2 O 0.3433(4) 0.2087(7) 0.7466(4) 0.0920 Uiso
O21_2 O 0.3433(4) 0.7913(7) 0.7466(4) 0.0920 Uiso
O23_2 O 0.2231(5) 0.19613(34) 0.7418(5) 0.0580 Uiso
O25_2 O 0.2231(5) 0.80387(34) 0.7418(5) 0.0580 Uiso
H1_2 H 0.114578 0.358165 0.870705 . .
H2_3 H -5.05628e-18 0.229814 0.763934 . .
H3_3 H -4.24257e-19 0.770186 0.763934 . .
H6_2 H 0.114578 0.641835 0.870705 . .
C2_4 C 1.000 0.3630(4) 0.87478(28) 0.0263 Uiso
C4_4 C 1.000 0.2677(4) 0.79546(28) 0.0263 Uiso
C5_4 C 1.000 0.4152(6) 0.9182(4) 0.0307 Uiso
C7_2 C 0.936163 0.33920(30) 0.85495(25) 0.0276 Uiso
C8_2 C 0.936163 0.29153(29) 0.81529(25) 0.0276 Uiso
C9_2 C 0.866265 0.2654(4) 0.79358(28) 0.0420 Uiso
O6_2 O 0.8433(4) 0.2913(7) 0.7534(4) 0.0920 Uiso
O7_2 O 0.8315(4) 0.2180(6) 0.8158(5) 0.0920 Uiso
Cu3_2 Cu 0.7159(5) 0.21226(32) 0.80808(29) 0.0119 Uiso
O8_2 O 0.7231(5) 0.30387(34) 0.7582(5) 0.0580 Uiso
C11_4 C 1.000 0.6370(4) 0.87478(28) 0.0263 Uiso
C13_4 C 1.000 0.7323(4) 0.79546(28) 0.0263 Uiso
C14_4 C 1.000 0.5848(6) 0.9182(4) 0.0307 Uiso
C16_2 C 0.936163 0.66080(30) 0.85495(25) 0.0276 Uiso
C17_2 C 0.936163 0.70847(29) 0.81529(25) 0.0276 Uiso
C18_2 C 0.866265 0.7346(4) 0.79358(28) 0.0420 Uiso
O14_2 O 0.8433(4) 0.7087(7) 0.7534(4) 0.0920 Uiso
O15_2 O 0.8315(4) 0.7820(6) 0.8158(5) 0.0920 Uiso
Cu5_2 Cu 0.7159(5) 0.78774(32) 0.80808(29) 0.0119 Uiso
O16_2 O 0.7231(5) 0.69613(34) 0.7582(5) 0.0580 Uiso
Cu7_2 Cu 0.7841(5) 0.28774(32) 0.69192(29) 0.0119 Uiso
Cu9_2 Cu 0.7841(5) 0.71226(32) 0.69192(29) 0.0119 Uiso
O20_2 O 0.6567(4) 0.2087(7) 0.7466(4) 0.0920 Uiso
O22_2 O 0.6567(4) 0.7913(7) 0.7466(4) 0.0920 Uiso
O24_2 O 0.7769(5) 0.19613(34) 0.7418(5) 0.0580 Uiso
O26_2 O 0.7769(5) 0.80387(34) 0.7418(5) 0.0580 Uiso
H2_4 H 1 0.229814 0.763934 . .
H3_4 H 1 0.770186 0.763934 . .
H4_2 H 0.885422 0.358165 0.870705 . .
H5_2 H 0.885422 0.641835 0.870705 . .
Cu2_3 Cu 0.5677(9) -0.000 0.500 0.0361 Uiso
C1_3 C 0.563837 0.16080(30) 0.64505(25) 0.0276 Uiso
C2_5 C 0.500 0.1370(4) 0.62522(28) 0.0263 Uiso
C3_3 C 0.563837 0.20847(29) 0.68471(25) 0.0276 Uiso
C4_5 C 0.500 0.2323(4) 0.70454(28) 0.0263 Uiso
C5_5 C 0.500 0.0848(6) 0.5818(4) 0.0307 Uiso
O1_2 O 0.55777 0.0632(7) 0.5639(4) 0.0354 Uiso
C6_3 C 0.633735 0.2346(4) 0.70642(28) 0.0420 Uiso
O3_3 O 0.6685(4) 0.2820(6) 0.6842(5) 0.0920 Uiso
C7_3 C 0.436163 0.16080(30) 0.64505(25) 0.0276 Uiso
C8_3 C 0.436163 0.20847(29) 0.68471(25) 0.0276 Uiso
O5_2 O 0.44223 0.0632(7) 0.5639(4) 0.0354 Uiso
C9_3 C 0.366265 0.2346(4) 0.70642(28) 0.0420 Uiso
O7_3 O 0.3315(4) 0.2820(6) 0.6842(5) 0.0920 Uiso
Cu10_3 Cu 0.4323(9) -0.000 0.500 0.0361 Uiso
O18_3 O 0.55777 0.0632(7) 0.4361(4) 0.0354 Uiso
H1_3 H 0.614578 0.141835 0.629295 . .
H2_5 H 0.5 0.270186 0.736066 . .
H4_3 H 0.385422 0.141835 0.629295 . .
Cu2_4 Cu 0.5677(9) 1.000 0.500 0.0361 Uiso
C10_3 C 0.563837 0.83920(30) 0.64505(25) 0.0276 Uiso
C11_5 C 0.500 0.8630(4) 0.62522(28) 0.0263 Uiso
C12_3 C 0.563837 0.79153(29) 0.68471(25) 0.0276 Uiso
C13_5 C 0.500 0.7677(4) 0.70454(28) 0.0263 Uiso
C14_5 C 0.500 0.9152(6) 0.5818(4) 0.0307 Uiso
O9_2 O 0.55777 0.9368(7) 0.5639(4) 0.0354 Uiso
C15_3 C 0.633735 0.7654(4) 0.70642(28) 0.0420 Uiso
O11_3 O 0.6685(4) 0.7180(6) 0.6842(5) 0.0920 Uiso
C16_3 C 0.436163 0.83920(30) 0.64505(25) 0.0276 Uiso
C17_3 C 0.436163 0.79153(29) 0.68471(25) 0.0276 Uiso
O13_2 O 0.44223 0.9368(7) 0.5639(4) 0.0354 Uiso
C18_3 C 0.366265 0.7654(4) 0.70642(28) 0.0420 Uiso
O15_3 O 0.3315(4) 0.7180(6) 0.6842(5) 0.0920 Uiso
Cu10_4 Cu 0.4323(9) 1.000 0.500 0.0361 Uiso
O17_3 O 0.55777 0.9368(7) 0.4361(4) 0.0354 Uiso
H3_5 H 0.5 0.729814 0.736066 . .
H5_3 H 0.385422 0.858165 0.629295 . .
H6_3 H 0.614578 0.858165 0.629295 . .
O17_4 O 0.44223 0.0632(7) 0.4361(4) 0.0354 Uiso
O18_4 O 0.44223 0.9368(7) 0.4361(4) 0.0354 Uiso
C10_4 C 0.563837 0.16080(30) 0.35495(25) 0.0276 Uiso
C11_6 C 0.500 0.1370(4) 0.37478(28) 0.0263 Uiso
C12_4 C 0.563837 0.20847(29) 0.31529(25) 0.0276 Uiso
C13_6 C 0.500 0.2323(4) 0.29546(28) 0.0263 Uiso
C14_6 C 0.500 0.0848(6) 0.4182(4) 0.0307 Uiso
C15_4 C 0.633735 0.2346(4) 0.29358(28) 0.0420 Uiso
O11_4 O 0.6685(4) 0.2820(6) 0.3158(5) 0.0920 Uiso
C16_4 C 0.436163 0.16080(30) 0.35495(25) 0.0276 Uiso
C17_4 C 0.436163 0.20847(29) 0.31529(25) 0.0276 Uiso
C18_4 C 0.366265 0.2346(4) 0.29358(28) 0.0420 Uiso
O15_4 O 0.3315(4) 0.2820(6) 0.3158(5) 0.0920 Uiso
H3_6 H 0.5 0.270186 0.263934 . .
H5_4 H 0.385422 0.141835 0.370705 . .
H6_4 H 0.614578 0.141835 0.370705 . .
C1_4 C 0.563837 0.83920(30) 0.35495(25) 0.0276 Uiso
C2_6 C 0.500 0.8630(4) 0.37478(28) 0.0263 Uiso
C3_4 C 0.563837 0.79153(29) 0.31529(25) 0.0276 Uiso
C4_6 C 0.500 0.7677(4) 0.29546(28) 0.0263 Uiso
C5_6 C 0.500 0.9152(6) 0.4182(4) 0.0307 Uiso
C6_4 C 0.633735 0.7654(4) 0.29358(28) 0.0420 Uiso
O3_4 O 0.6685(4) 0.7180(6) 0.3158(5) 0.0920 Uiso
C7_4 C 0.436163 0.83920(30) 0.35495(25) 0.0276 Uiso
C8_4 C 0.436163 0.79153(29) 0.31529(25) 0.0276 Uiso
C9_4 C 0.366265 0.7654(4) 0.29358(28) 0.0420 Uiso
O7_4 O 0.3315(4) 0.7180(6) 0.3158(5) 0.0920 Uiso
H1_4 H 0.614578 0.858165 0.370705 . .
H2_6 H 0.5 0.729814 0.263934 . .
H4_4 H 0.385422 0.858165 0.370705 . .
loop_
_geom_bond_atom_site_label_1
_geom_bond_atom_site_label_2
_geom_bond_site_symmetry_1
_geom_bond_site_symmetry_2
Cu1 O3 1_555 1_555
Cu2 O1 1_555 1_555
C1 C2 1_555 1_555
C2 C5 1_555 1_555
C3 C1 1_555 1_555
C4 C3 1_555 1_555
C5 O1 1_555 1_555
C6 C3 1_555 1_555
O2 C6 1_555 1_555
O3 C6 1_555 1_555
O4 Cu1 1_555 1_555
Cu4 O11 1_555 1_555
C10 C11 1_555 1_555
C11 C14 1_555 1_555
C12 C10 1_555 1_555
C13 C12 1_555 1_555
C14 O9 1_555 1_555
O9 Cu2 1_555 1_555
C15 C12 1_555 1_555
O10 C15 1_555 1_555
O11 C15 1_555 1_555
O12 Cu4 1_555 1_555
Cu6 O2 1_555 1_555
Cu8 O10 1_555 1_555
O19 Cu1 1_555 1_555
O21 Cu4 1_555 1_555
O23 Cu1 1_555 1_555
O25 Cu4 1_555 1_555
O4 Cu6 1_555 1_555
O12 Cu8 1_555 1_555
Cu6 O23 1_555 1_555
Cu8 O25 1_555 1_555
C1 H1 1_555 1_555
C4 H2 1_555 1_555
C13 H3 1_555 1_555
C10 H6 1_555 1_555
O17 Cu2_2 1_555 1_555
O18 Cu2_2 1_555 1_555
C2_2 C5_2 1_555 1_555
C7 C2_2 1_555 1_555
C8 C4_2 1_555 1_555
O5 C5_2 1_555 1_555
C9 C8 1_555 1_555
O6 C9 1_555 1_555
O7 C9 1_555 1_555
Cu3 O7 1_555 1_555
O8 Cu3 1_555 1_555
C11_2 C14_2 1_555 1_555
C16 C11_2 1_555 1_555
C17 C13_2 1_555 1_555
O13 C14_2 1_555 1_555
C18 C17 1_555 1_555
O14 C18 1_555 1_555
O15 C18 1_555 1_555
Cu5 O15 1_555 1_555
O16 Cu5 1_555 1_555
Cu7 O6 1_555 1_555
Cu9 O14 1_555 1_555
Cu10 O5 1_555 1_555
O20 Cu3 1_555 1_555
O22 Cu5 1_555 1_555
O24 Cu3 1_555 1_555
O26 Cu5 1_555 1_555
C7 C8 1_555 1_555
O8 Cu7 1_555 1_555
C16 C17 1_555 1_555
O13 Cu10 1_555 1_555
O16 Cu9 1_555 1_555
Cu7 O24 1_555 1_555
Cu9 O26 1_555 1_555
C4_2 H2_2 1_555 1_555
C13_2 H3_2 1_555 1_555
C7 H4 1_555 1_555
C16 H5 1_555 1_555
O17_2 Cu10_2 1_555 1_555
O18_2 Cu10_2 1_555 1_555
Cu1_2 O3_2 1_555 1_555
C1_2 C2_3 1_555 1_555
C2_3 C5_3 1_555 1_555
C3_2 C1_2 1_555 1_555
C4_3 C3_2 1_555 1_555
C5_3 O17 1_555 1_555
C6_2 C3_2 1_555 1_555
O2_2 C6_2 1_555 1_555
O3_2 C6_2 1_555 1_555
O4_2 Cu1_2 1_555 1_555
Cu4_2 O11_2 1_555 1_555
C10_2 C11_3 1_555 1_555
C11_3 C14_3 1_555 1_555
C12_2 C10_2 1_555 1_555
C13_3 C12_2 1_555 1_555
C14_3 O18 1_555 1_555
C15_2 C12_2 1_555 1_555
O10_2 C15_2 1_555 1_555
O11_2 C15_2 1_555 1_555
O12_2 Cu4_2 1_555 1_555
Cu6_2 O2_2 1_555 1_555
Cu8_2 O10_2 1_555 1_555
O19_2 Cu1_2 1_555 1_555
O21_2 Cu4_2 1_555 1_555
O23_2 Cu1_2 1_555 1_555
O25_2 Cu4_2 1_555 1_555
O4_2 Cu6_2 1_555 1_555
O12_2 Cu8_2 1_555 1_555
Cu6_2 O23_2 1_555 1_555
Cu8_2 O25_2 1_555 1_555
C1_2 H1_2 1_555 1_555
C4_3 H2_3 1_555 1_555
C13_3 H3_3 1_555 1_555
C10_2 H6_2 1_555 1_555
C2_4 C5_4 1_555 1_555
C7_2 C2_4 1_555 1_555
C8_2 C4_4 1_555 1_555
O18_2 C5_4 1_555 1_555
C9_2 C8_2 1_555 1_555
O6_2 C9_2 1_555 1_555
O7_2 C9_2 1_555 1_555
Cu3_2 O7_2 1_555 1_555
O8_2 Cu3_2 1_555 1_555
C11_4 C14_4 1_555 1_555
C16_2 C11_4 1_555 1_555
C17_2 C13_4 1_555 1_555
O17_2 C14_4 1_555 1_555
C18_2 C17_2 1_555 1_555
O14_2 C18_2 1_555 1_555
O15_2 C18_2 1_555 1_555
Cu5_2 O15_2 1_555 1_555
O16_2 Cu5_2 1_555 1_555
Cu7_2 O6_2 1_555 1_555
Cu9_2 O14_2 1_555 1_555
O20_2 Cu3_2 1_555 1_555
O22_2 Cu5_2 1_555 1_555
O24_2 Cu3_2 1_555 1_555
O26_2 Cu5_2 1_555 1_555
C7_2 C8_2 1_555 1_555
O8_2 Cu7_2 1_555 1_555
C16_2 C17_2 1_555 1_555
O16_2 Cu9_2 1_555 1_555
Cu7_2 O24_2 1_555 1_555
Cu9_2 O26_2 1_555 1_555
C4_4 H2_4 1_555 1_555
C13_4 H3_4 1_555 1_555
C7_2 H4_2 1_555 1_555
C16_2 H5_2 1_555 1_555
Cu7_2 O3_3 1_555 1_555
Cu2_3 O1_2 1_555 1_555
C1_3 C2_5 1_555 1_555
C2_5 C5_5 1_555 1_555
C3_3 C1_3 1_555 1_555
C4_5 C3_3 1_555 1_555
C5_5 O1_2 1_555 1_555
C6_3 C3_3 1_555 1_555
O20_2 C6_3 1_555 1_555
O3_3 C6_3 1_555 1_555
C7_3 C2_5 1_555 1_555
C8_3 C4_5 1_555 1_555
O5_2 C5_5 1_555 1_555
C9_3 C8_3 1_555 1_555
O19_2 C9_3 1_555 1_555
O7_3 C9_3 1_555 1_555
Cu6_2 O7_3 1_555 1_555
Cu10_3 O5_2 1_555 1_555
O18_3 Cu2_3 1_555 1_555
C7_3 C8_3 1_555 1_555
C1_3 H1_3 1_555 1_555
C4_5 H2_5 1_555 1_555
C7_3 H4_3 1_555 1_555
Cu9_2 O11_3 1_555 1_555
C10_3 C11_5 1_555 1_555
C11_5 C14_5 1_555 1_555
C12_3 C10_3 1_555 1_555
C13_5 C12_3 1_555 1_555
C14_5 O9_2 1_555 1_555
O9_2 Cu2_4 1_555 1_555
C15_3 C12_3 1_555 1_555
O22_2 C15_3 1_555 1_555
O11_3 C15_3 1_555 1_555
C16_3 C11_5 1_555 1_555
C17_3 C13_5 1_555 1_555
O13_2 C14_5 1_555 1_555
C18_3 C17_3 1_555 1_555
O21_2 C18_3 1_555 1_555
O15_3 C18_3 1_555 1_555
Cu8_2 O15_3 1_555 1_555
O17_3 Cu2_4 1_555 1_555
C16_3 C17_3 1_555 1_555
O13_2 Cu10_4 1_555 1_555
C13_5 H3_5 1_555 1_555
C16_3 H5_3 1_555 1_555
C10_3 H6_3 1_555 1_555
O17_4 Cu10_3 1_555 1_555
O18_4 Cu10_4 1_555 1_555
Cu9 O11_4 1_555 1_555
C10_4 C11_6 1_555 1_555
C11_6 C14_6 1_555 1_555
C12_4 C10_4 1_555 1_555
C13_6 C12_4 1_555 1_555
C14_6 O18_3 1_555 1_555
C15_4 C12_4 1_555 1_555
O22 C15_4 1_555 1_555
O11_4 C15_4 1_555 1_555
C16_4 C11_6 1_555 1_555
C17_4 C13_6 1_555 1_555
O17_4 C14_6 1_555 1_555
C18_4 C17_4 1_555 1_555
O21 C18_4 1_555 1_555
O15_4 C18_4 1_555 1_555
Cu8 O15_4 1_555 1_555
C16_4 C17_4 1_555 1_555
C13_6 H3_6 1_555 1_555
C16_4 H5_4 1_555 1_555
C10_4 H6_4 1_555 1_555
Cu7 O3_4 1_555 1_555
C1_4 C2_6 1_555 1_555
C2_6 C5_6 1_555 1_555
C3_4 C1_4 1_555 1_555
C4_6 C3_4 1_555 1_555
C5_6 O17_3 1_555 1_555
C6_4 C3_4 1_555 1_555
O20 C6_4 1_555 1_555
O3_4 C6_4 1_555 1_555
C7_4 C2_6 1_555 1_555
C8_4 C4_6 1_555 1_555
O18_4 C5_6 1_555 1_555
C9_4 C8_4 1_555 1_555
O19 C9_4 1_555 1_555
O7_4 C9_4 1_555 1_555
Cu6 O7_4 1_555 1_555
C7_4 C8_4 1_555 1_555
C1_4 H1_4 1_555 1_555
C4_6 H2_6 1_555 1_555
C7_4 H4_4 1_555 1_555

#END
