
###############################################################################
#
# This file contains modified crystal structure data generated from the
# MOF subset of the Cambridge Structural Database (CSD) v543 
# hosted by the Cambridge Crystallographic Data Centre (CCDC).
#
# This work is licensed under the Creative Commons
# Attribution-NonCommercial-ShareAlike 4.0 International License.
# To view a copy of this license, visit
# http://creativecommons.org/licenses/by-nc-sa/4.0/
# or send a letter to
# Creative Commons, PO Box 1866, Mountain View, CA 94042, USA.
#
# CIF created using the CSD Python API on 29 September 2022
# The structure has been converted into the P1 space group
# The structure has a 3D framework
# The original CSD entry NEJSIG is in the triclinic crystal system
# The framework has been calculated to contain at least 10.0% void space
# The void calculation uses a probe of radius 1.32A, grid spacing 0.4
#
###############################################################################

data_NEJSIG
_chemical_formula_moiety         '(C26 H16 Cu2 N2 O7)n'
_symmetry_cell_setting           triclinic
_symmetry_space_group_name_H-M   'P 1'
_symmetry_Int_Tables_number      1
_space_group_name_Hall           'P 1'
loop_
_symmetry_equiv_pos_site_id
_symmetry_equiv_pos_as_xyz
1 x,y,z
_cell_length_a                   7.922(11)
_cell_length_b                   8.990(11)
_cell_length_c                   10.801(14)
_cell_angle_alpha                66.89(5)
_cell_angle_beta                 79.90(8)
_cell_angle_gamma                78.52(8)
_cell_volume                     689.304
loop_
_atom_site_label
_atom_site_type_symbol
_atom_site_fract_x
_atom_site_fract_y
_atom_site_fract_z
_atom_site_U_iso_or_equiv
_atom_site_thermal_displace_type
C4 C 0.1722(9) 0.0294(9) 0.9506(8) 0.0309 Uani
H1 H 0.286 0.048 0.9193 0.0370 Uiso
C18 C 0.0412(10) 0.1609(9) 0.9542(8) 0.0322 Uani
H10 H 0.0672 0.2668 0.9231 0.0390 Uiso
C10 C 0.1968(19) 0.9876(15) 0.3793(14) 0.1138 Uani
H6 H 0.2509 0.8829 0.4258 0.1370 Uiso
C25 C 0.0308(14) 0.8002(13) 0.6489(10) 0.0684 Uani
H15 H 0.1405 0.755 0.6226 0.0820 Uiso
C9 C 0.2716(17) 0.0826(14) 0.2563(14) 0.1065 Uani
H5 H 0.3763 0.0374 0.2222 0.1280 Uiso
C11 C 0.0433(13) 0.0476(13) 0.4326(10) 0.0574 Uani
C13 C 0.0588(13) 0.2834(14) 0.2313(10) 0.0663 Uani
H8 H 0.0074 0.3871 0.18 0.0800 Uiso
N1 N 0.2091(11) 0.2296(9) 0.1837(8) 0.0570 Uani
O2 O 0.2193(7) 0.5891(7) 0.0252(6) 0.0417 Uani
Cu1 Cu 0.38182(11) 0.39797(11) 0.04572(9) 0.0341 Uani
O6 O 0.5775(7) 0.2354(6) 0.0499(6) 0.0378 Uani
O10 O 0.4373(9) 0.4097(8) 0.2145(6) 0.0504 Uani
O12 O 0.6356(8) 0.5820(8) 0.1390(6) 0.0493 Uani
C1 C 0.2679(10) 0.7346(9) 0.9889(7) 0.0340 Uani
C2 C 0.4669(12) 0.5026(10) 0.7703(8) 0.0431 Uani
C3 C 0.1298(10) 0.8721(10) 0.9940(8) 0.0363 Uani
C6 C 0.4802(12) 0.5007(11) 0.6307(9) 0.0454 Uani
C7 C 0.5999(14) 0.5915(14) 0.5284(9) 0.0624 Uani
H3 H 0.6677 0.6515 0.5476 0.0750 Uiso
C8 C 0.3863(14) 0.4109(13) 0.6002(9) 0.0564 Uani
H4 H 0.3104 0.3492 0.6679 0.0680 Uiso
O1 O 0.4225(7) 0.7646(6) 0.9501(6) 0.0378 Uani
O3 O 0.5627(9) 0.5903(8) 0.7855(6) 0.0504 Uani
O4 O 0.3644(8) 0.4180(8) 0.8610(6) 0.0493 Uani
C15 C 0.5331(12) 0.4974(10) 0.2297(8) 0.0431 Uani
C19 C 0.5198(12) 0.4993(11) 0.3693(9) 0.0454 Uani
C20 C 0.4001(14) 0.4085(14) 0.4716(9) 0.0624 Uani
H11 H 0.3323 0.3485 0.4524 0.0750 Uiso
C21 C 0.6137(14) 0.5891(13) 0.3998(9) 0.0564 Uani
H12 H 0.6896 0.6508 0.3321 0.0680 Uiso
N3 N 0.7909(11) 0.7704(9) 0.8163(8) 0.0570 Uani
O8 O 0.7807(7) 0.4109(7) 0.9748(6) 0.0417 Uani
Cu3 Cu 0.61818(11) 0.60203(11) 0.95428(9) 0.0341 Uani
C14 C 0.7321(10) 0.2654(9) 0.0111(7) 0.0340 Uani
C16 C 0.8702(10) 0.1279(10) 0.0060(8) 0.0363 Uani
C22 C 0.7284(17) 0.9174(14) 0.7437(14) 0.1065 Uani
H13 H 0.6237 0.9626 0.7778 0.1280 Uiso
C24 C 0.9567(13) 0.9524(13) 0.5674(10) 0.0574 Uani
C26 C 0.9412(13) 0.7166(14) 0.7687(10) 0.0663 Uani
H16 H 0.9926 0.6129 0.82 0.0800 Uiso
C5 C 0.9588(10) 0.8391(9) 0.0458(8) 0.0322 Uani
H2 H 0.9328 0.7332 0.0769 0.0390 Uiso
C12 C 0.9692(14) 0.1998(13) 0.3511(10) 0.0684 Uani
H7 H 0.8595 0.245 0.3774 0.0820 Uiso
C17 C 0.8278(9) 0.9706(9) 0.0494(8) 0.0309 Uani
H9 H 0.714 0.952 0.0807 0.0370 Uiso
C23 C 0.8032(19) 0.0124(15) 0.6207(14) 0.1138 Uani
H14 H 0.7491 0.1171 0.5742 0.1370 Uiso
loop_
_atom_site_aniso_label
_atom_site_aniso_U_11
_atom_site_aniso_U_22
_atom_site_aniso_U_33
_atom_site_aniso_U_23
_atom_site_aniso_U_13
_atom_site_aniso_U_12
C4 0.02 0.033 0.033 -0.011 0.006 0.001
C18 0.029 0.024 0.042 -0.014 0.001 -0.001
C10 0.103 0.049 0.111 0.007 0.067 0.018
C25 0.05 0.06 0.054 0.007 0.015 0.007
C9 0.092 0.044 0.111 0.008 0.065 0.008
C11 0.056 0.053 0.052 -0.006 0.011 -0.026
C13 0.048 0.071 0.052 -0.003 0.005 0.003
N1 0.059 0.035 0.051 -0.003 0.028 -0.006
O2 0.031 0.043 0.048 -0.02 0.004 0.001
Cu1 0.0334 0.028 0.0343 -0.0115 0.0078 0.0003
O6 0.038 0.026 0.04 -0.01 0.009 0
O10 0.066 0.061 0.025 -0.016 0.001 -0.016
O12 0.051 0.068 0.031 -0.022 0.009 -0.017
C1 0.034 0.032 0.029 -0.011 0 0.007
C2 0.053 0.039 0.031 -0.011 -0.001 0
C3 0.028 0.033 0.04 -0.014 0.006 0.006
C6 0.048 0.043 0.036 -0.012 0.003 0.002
C7 0.068 0.091 0.036 -0.029 0.009 -0.03
C8 0.074 0.075 0.027 -0.023 0.018 -0.038
O1 0.038 0.026 0.04 -0.01 0.009 0
O3 0.066 0.061 0.025 -0.016 0.001 -0.016
O4 0.051 0.068 0.031 -0.022 0.009 -0.017
C15 0.053 0.039 0.031 -0.011 -0.001 0
C19 0.048 0.043 0.036 -0.012 0.003 0.002
C20 0.068 0.091 0.036 -0.029 0.009 -0.03
C21 0.074 0.075 0.027 -0.023 0.018 -0.038
N3 0.059 0.035 0.051 -0.003 0.028 -0.006
O8 0.031 0.043 0.048 -0.02 0.004 0.001
Cu3 0.0334 0.028 0.0343 -0.0115 0.0078 0.0003
C14 0.034 0.032 0.029 -0.011 0 0.007
C16 0.028 0.033 0.04 -0.014 0.006 0.006
C22 0.092 0.044 0.111 0.008 0.065 0.008
C24 0.056 0.053 0.052 -0.006 0.011 -0.026
C26 0.048 0.071 0.052 -0.003 0.005 0.003
C5 0.029 0.024 0.042 -0.014 0.001 -0.001
C12 0.05 0.06 0.054 0.007 0.015 0.007
C17 0.02 0.033 0.033 -0.011 0.006 0.001
C23 0.103 0.049 0.111 0.007 0.067 0.018
loop_
_geom_bond_atom_site_label_1
_geom_bond_atom_site_label_2
_geom_bond_site_symmetry_1
_geom_bond_site_symmetry_2
C4 H1 1_555 1_555
C18 C4 1_555 1_555
H10 C18 1_555 1_555
H6 C10 1_555 1_555
H15 C25 1_555 1_555
C9 H5 1_555 1_555
H8 C13 1_555 1_555
N1 C9 1_555 1_555
Cu1 N1 1_555 1_555
O6 Cu1 1_555 1_555
O10 Cu1 1_555 1_555
C13 N1 1_555 1_555
O2 Cu1 1_555 1_555
C1 C3 1_555 1_555
C2 C6 1_555 1_555
C6 C7 1_555 1_555
C7 H3 1_555 1_555
C8 C6 1_555 1_555
H4 C8 1_555 1_555
O1 C1 1_555 1_555
O3 C2 1_555 1_555
O4 C2 1_555 1_555
C15 C19 1_555 1_555
C19 C20 1_555 1_555
C20 C8 1_555 1_555
H11 C20 1_555 1_555
C21 C7 1_555 1_555
H12 C21 1_555 1_555
N3 Cu3 1_555 1_555
O8 Cu3 1_555 1_555
O10 C15 1_555 1_555
O12 C15 1_555 1_555
Cu3 O1 1_555 1_555
O3 Cu3 1_555 1_555
C19 C21 1_555 1_555
C14 C16 1_555 1_555
O6 C14 1_555 1_555
C22 H13 1_555 1_555
H16 C26 1_555 1_555
N3 C22 1_555 1_555
C26 N3 1_555 1_555
H2 C5 1_555 1_555
H7 C12 1_555 1_555
C17 C5 1_555 1_555
H9 C17 1_555 1_555
H14 C23 1_555 1_555

#END
