
###############################################################################
#
# This file contains modified crystal structure data generated from the
# MOF subset of the Cambridge Structural Database (CSD) v543 
# hosted by the Cambridge Crystallographic Data Centre (CCDC).
#
# This work is licensed under the Creative Commons
# Attribution-NonCommercial-ShareAlike 4.0 International License.
# To view a copy of this license, visit
# http://creativecommons.org/licenses/by-nc-sa/4.0/
# or send a letter to
# Creative Commons, PO Box 1866, Mountain View, CA 94042, USA.
#
# CIF created using the CSD Python API on 29 September 2022
# The structure has been converted into the P1 space group
# The structure has a 3D framework
# The original CSD entry NEKBEL is in the monoclinic crystal system
# The framework has been calculated to contain at least 10.0% void space
# The void calculation uses a probe of radius 1.32A, grid spacing 0.4
# H atom positions have been added when not included in the experimental data
# Generated hydrogen atom positions removed from atoms on special positions
#
###############################################################################

data_NEKBEL
_chemical_formula_moiety         '(C44 H44 Co13 N35 O8 W4)n'
_symmetry_cell_setting           triclinic
_symmetry_space_group_name_H-M   'P 1'
_symmetry_Int_Tables_number      1
_space_group_name_Hall           'P 1'
loop_
_symmetry_equiv_pos_site_id
_symmetry_equiv_pos_as_xyz
1 x,y,z
_cell_length_a                   7.179(2)
_cell_length_b                   14.634(5)
_cell_length_c                   22.134(7)
_cell_angle_alpha                90
_cell_angle_beta                 91.121(14)
_cell_angle_gamma                90
_cell_volume                     2324.9
loop_
_atom_site_label
_atom_site_type_symbol
_atom_site_fract_x
_atom_site_fract_y
_atom_site_fract_z
N6 N 0.021(2) 0.5518(17) 0.2704(9)
N7 N 0.141(4) 0.688(2) 0.4079(14)
N8 N 0.037(2) 0.8892(15) 0.2912(9)
C7 C 0.005(3) 0.7017(16) 0.3744(12)
Co5 Co 0.2479(4) 0.4716(2) 0.23787(12)
Co6 Co 0.2521(4) 0.9716(2) 0.26213(12)
W1 W 0.75978(12) 0.71503(6) 0.32251(4)
Co2 Co 0.5000 0.5000 0.5000
O1 O 0.231(2) 0.5366(12) 0.1545(8)
O2 O 0.279(3) 0.5891(16) 0.5005(8)
N1 N 0.443(3) 0.5710(17) 0.2685(9)
N2 N 0.618(3) 0.5788(16) 0.4307(10)
N3 N 0.717(3) 0.8375(18) 0.4462(10)
N4 N 0.438(2) 0.8694(14) 0.2916(9)
N5 N 0.748(4) 0.7456(19) 0.1752(10)
N9 N 0.364(3) 0.4154(14) 0.4289(9)
N10 N 0.273(2) 0.4057(13) 0.3260(8)
C1 C 0.550(3) 0.6251(16) 0.2866(10)
C2 C 0.674(4) 0.622(2) 0.3918(12)
C3 C 0.727(3) 0.7979(15) 0.4017(10)
C4 C 0.544(3) 0.8124(18) 0.3028(11)
C5 C 0.752(3) 0.7324(14) 0.2269(12)
C6 C 0.926(3) 0.6054(17) 0.2882(11)
C8 C 0.940(3) 0.8287(19) 0.3010(11)
C9 C 0.319(3) 0.4492(19) 0.3743(11)
C10 C 0.262(3) 0.3143(18) 0.3323(12)
C11 C 0.283(4) 0.271(2) 0.3876(14)
C12 C 0.342(4) 0.324(2) 0.4347(15)
H1 H 0.3235 0.5139 0.3713
H2 H 0.2079 0.2802 0.3000
H3 H 0.2514 0.2085 0.3935
H4 H 0.3792 0.2959 0.4717
W2 W 0.24022(12) 0.28497(6) 0.67749(4)
W5 W 0.74022(12) 0.21503(6) 0.17749(4)
Co3 Co 0.7521(4) 0.5284(2) 0.76213(12)
O3 O 0.769(2) 0.4634(12) 0.8455(8)
O4 O 0.721(3) 0.4109(16) 0.4995(8)
N11 N 0.557(3) 0.4290(17) 0.7315(9)
N12 N 0.382(3) 0.4212(16) 0.5693(10)
N13 N 0.283(3) 0.1625(18) 0.5538(10)
N14 N 0.062(2) 0.3694(14) 0.2084(9)
N15 N 0.938(2) 0.6306(14) 0.7916(9)
N16 N 0.252(4) 0.2544(19) 0.8248(10)
N18 N 0.979(2) 0.4482(17) 0.7296(9)
N20 N 0.463(2) 0.3892(15) 0.2088(9)
N21 N 0.537(2) 0.6108(15) 0.7912(9)
N22 N 0.636(3) 0.5846(14) 0.5711(9)
N23 N 0.727(2) 0.5943(13) 0.6740(8)
C13 C 0.450(3) 0.3749(16) 0.7134(10)
C14 C 0.326(4) 0.378(2) 0.6082(12)
C15 C 0.273(3) 0.2021(15) 0.5983(10)
C17 C 0.456(3) 0.1876(18) 0.6972(11)
C18 C 0.248(3) 0.2676(14) 0.7731(12)
C20 C 0.074(3) 0.3946(17) 0.7118(11)
C22 C 0.560(3) 0.3287(19) 0.1990(11)
C23 C 0.060(3) 0.1713(19) 0.6990(11)
C24 C 0.681(3) 0.5508(19) 0.6257(11)
C25 C 0.738(3) 0.6857(18) 0.6677(12)
C26 C 0.717(4) 0.729(2) 0.6124(14)
C27 C 0.658(4) 0.676(2) 0.5653(15)
H5 H 0.6765 0.4861 0.6287
H6 H 0.7921 0.7198 0.7000
H7 H 0.7486 0.7915 0.6065
H8 H 0.6208 0.7041 0.5283
N19 N 0.859(4) 0.312(2) 0.5921(14)
C16 C 0.956(3) 0.3124(18) 0.1972(11)
C21 C 0.995(3) 0.2983(16) 0.6256(12)
Co2_2 Co 0.0000 -0.0000 -0.0000
O1_2 O 0.269(2) 0.0366(12) 0.3455(8)
N1_2 N 0.057(3) 0.0710(17) 0.2315(9)
H1_2 H 0.1765 0.0139 0.1287
N17 N 0.479(2) 0.0518(17) 0.2296(9)
C19 C 0.574(3) 0.1054(17) 0.2118(11)
H11 H 0.283309 0.0895046 0.0399499
Co2_3 Co -0.0000 -0.0000 1.0000
O2_2 O 0.221(3) 0.0891(16) 0.9995(8)
H12 H 0.311198 0.0693725 0.968655
Co2_4 Co -0.0000 1.0000 -0.0000
N9_2 N 0.136(3) 0.9154(14) 0.0711(9)
N10_2 N 0.227(2) 0.9057(13) 0.1740(8)
C9_2 C 0.181(3) 0.9492(19) 0.1257(11)
C10_2 C 0.238(3) 0.8143(18) 0.1677(12)
C11_2 C 0.217(4) 0.771(2) 0.1124(14)
C12_2 C 0.158(4) 0.824(2) 0.0653(15)
H2_2 H 0.2921 0.7802 0.2000
H3_2 H 0.2486 0.7085 0.1065
H4_2 H 0.1208 0.7959 0.0283
Co2_5 Co -0.0000 1.0000 1.0000
W2_2 W 0.25978(12) 0.78497(6) 0.82251(4)
N12_2 N 0.118(3) 0.9212(16) 0.9307(10)
N13_2 N 0.217(3) 0.6625(18) 0.9462(10)
N16_2 N 0.248(4) 0.7544(19) 0.6752(10)
N19_2 N 0.641(4) 0.812(2) 0.9079(14)
C13_2 C 0.050(3) 0.8749(16) 0.7866(10)
C14_2 C 0.174(4) 0.878(2) 0.8918(12)
C15_2 C 0.227(3) 0.7021(15) 0.9017(10)
C17_2 C 0.044(3) 0.6876(18) 0.8028(11)
C18_2 C 0.252(3) 0.7676(14) 0.7269(12)
C20_2 C 0.426(3) 0.8946(17) 0.7882(11)
C21_2 C 0.505(3) 0.7983(16) 0.8744(12)
C23_2 C 0.440(3) 0.6713(19) 0.8010(11)
Co2_6 Co 1.0000 -0.0000 -0.0000
N2_2 N 0.882(3) 0.0788(16) 0.0693(10)
N3_2 N 0.783(3) 0.3375(18) 0.0538(10)
N5_2 N 0.752(4) 0.2456(19) 0.3248(10)
N7_2 N 0.359(4) 0.188(2) 0.0921(14)
C1_2 C 0.950(3) 0.1251(16) 0.2134(10)
C2_2 C 0.826(4) 0.122(2) 0.1082(12)
C3_2 C 0.773(3) 0.2979(15) 0.0983(10)
C5_2 C 0.748(3) 0.2324(14) 0.2731(12)
C7_2 C 0.495(3) 0.2017(16) 0.1256(12)
Co2_7 Co 1.0000 -0.0000 1.0000
Co3_2 Co 0.7479(4) 0.0284(2) 0.73787(12)
N15_2 N 0.562(2) 0.1306(14) 0.7084(9)
N21_2 N 0.963(2) 0.1108(15) 0.7088(9)
N22_2 N 0.864(3) 0.0846(14) 0.9289(9)
N23_2 N 0.773(2) 0.0943(13) 0.8260(8)
C24_2 C 0.819(3) 0.0508(19) 0.8743(11)
C25_2 C 0.762(3) 0.1857(18) 0.8323(12)
C26_2 C 0.783(4) 0.229(2) 0.8876(14)
C27_2 C 0.842(4) 0.176(2) 0.9347(15)
H6_2 H 0.7079 0.2198 0.8000
H7_2 H 0.7514 0.2915 0.8935
H8_2 H 0.8792 0.2041 0.9717
Co2_8 Co 1.0000 1.0000 -0.0000
O4_2 O 0.779(3) 0.9109(16) 0.0005(8)
Co2_9 Co 1.0000 1.0000 1.0000
O3_2 O 0.731(2) 0.9634(12) 0.6545(8)
N11_2 N 0.943(3) 0.9290(17) 0.7685(9)
N18_2 N 0.521(2) 0.9482(17) 0.7704(9)
H5_2 H 0.8235 0.9861 0.8713
H15 H 0.662111 0.944583 0.990815
H16 H 0.797963 0.862453 0.969816
H15_2 H 0.337889 0.0554173 0.00918539
H16_2 H 0.202037 0.137547 0.0301839
H12_2 H 0.688802 0.930627 0.0313451
H11_2 H 0.716691 0.910495 0.96005
loop_
_geom_bond_atom_site_label_1
_geom_bond_atom_site_label_2
_geom_bond_site_symmetry_1
_geom_bond_site_symmetry_2
N7 C7 1_555 1_555
Co5 N6 1_555 1_555
Co6 N8 1_555 1_555
W1 C1 1_555 1_555
Co5 O1 1_555 1_555
Co2 O2 1_555 1_555
N1 Co5 1_555 1_555
N2 Co2 1_555 1_555
N3 C3 1_555 1_555
N4 C4 1_555 1_555
N5 C5 1_555 1_555
N9 Co2 1_555 1_555
N10 Co5 1_555 1_555
C1 N1 1_555 1_555
C2 W1 1_555 1_555
C3 W1 1_555 1_555
C4 W1 1_555 1_555
C5 W1 1_555 1_555
C6 W1 1_555 1_555
C8 W1 1_555 1_555
C9 N9 1_555 1_555
C10 N10 1_555 1_555
C11 C10 1_555 1_555
C12 N9 1_555 1_555
H1 C9 1_555 1_555
H2 C10 1_555 1_555
H3 C11 1_555 1_555
H4 C12 1_555 1_555
W2 C13 1_555 1_555
W5 C22 1_555 1_555
Co3 O3 1_555 1_555
Co6 N4 1_555 1_555
O4 Co2 1_555 1_555
N11 Co3 1_555 1_555
N12 Co2 1_555 1_555
N13 C15 1_555 1_555
N14 Co5 1_555 1_555
N15 Co3 1_555 1_555
N16 C18 1_555 1_555
N18 Co3 1_555 1_555
N20 Co5 1_555 1_555
N21 Co3 1_555 1_555
N22 Co2 1_555 1_555
N23 Co3 1_555 1_555
C13 N11 1_555 1_555
C14 W2 1_555 1_555
C15 W2 1_555 1_555
C17 W2 1_555 1_555
C18 W2 1_555 1_555
C20 W2 1_555 1_555
C22 N20 1_555 1_555
C23 W2 1_555 1_555
C24 N22 1_555 1_555
C25 N23 1_555 1_555
C26 C25 1_555 1_555
C27 N22 1_555 1_555
H5 C24 1_555 1_555
H6 C25 1_555 1_555
H7 C26 1_555 1_555
H8 C27 1_555 1_555
N2 C2 1_555 1_555
N10 C9 1_555 1_555
C11 C12 1_555 1_555
N12 C14 1_555 1_555
N23 C24 1_555 1_555
C26 C27 1_555 1_555
W5 C16 1_555 1_555
N19 C21 1_555 1_555
W5 C19 1_555 1_555
C19 N17 1_555 1_555
Co2_3 O2_2 1_555 1_555
O2_2 H12 1_555 1_555
N9_2 Co2_4 1_555 1_555
N10_2 Co6 1_555 1_555
C9_2 N9_2 1_555 1_555
C10_2 N10_2 1_555 1_555
C11_2 C10_2 1_555 1_555
C12_2 N9_2 1_555 1_555
H2_2 C10_2 1_555 1_555
H3_2 C11_2 1_555 1_555
H4_2 C12_2 1_555 1_555
N10_2 C9_2 1_555 1_555
C11_2 C12_2 1_555 1_555
W2_2 C13_2 1_555 1_555
N12_2 Co2_5 1_555 1_555
N13_2 C15_2 1_555 1_555
N16_2 C18_2 1_555 1_555
N19_2 C21_2 1_555 1_555
C14_2 W2_2 1_555 1_555
C15_2 W2_2 1_555 1_555
C17_2 W2_2 1_555 1_555
C18_2 W2_2 1_555 1_555
C20_2 W2_2 1_555 1_555
C21_2 W2_2 1_555 1_555
C23_2 W2_2 1_555 1_555
N12_2 C14_2 1_555 1_555
W5 C1_2 1_555 1_555
N2_2 Co2_6 1_555 1_555
N3_2 C3_2 1_555 1_555
N5_2 C5_2 1_555 1_555
N7_2 C7_2 1_555 1_555
C2_2 W5 1_555 1_555
C3_2 W5 1_555 1_555
C5_2 W5 1_555 1_555
C7_2 W5 1_555 1_555
N2_2 C2_2 1_555 1_555
N15_2 Co3_2 1_555 1_555
N21_2 Co3_2 1_555 1_555
N22_2 Co2_7 1_555 1_555
N23_2 Co3_2 1_555 1_555
C24_2 N22_2 1_555 1_555
C25_2 N23_2 1_555 1_555
C26_2 C25_2 1_555 1_555
C27_2 N22_2 1_555 1_555
H6_2 C25_2 1_555 1_555
H7_2 C26_2 1_555 1_555
H8_2 C27_2 1_555 1_555
N23_2 C24_2 1_555 1_555
C26_2 C27_2 1_555 1_555
O4_2 Co2_8 1_555 1_555
N15_2 C17 1_555 1_555
C23_2 N21 1_555 1_555
N18_2 C20_2 1_555 1_555
O4_2 H12_2 1_555 1_555

#END
