
###############################################################################
#
# This file contains modified crystal structure data generated from the
# MOF subset of the Cambridge Structural Database (CSD) v543 
# hosted by the Cambridge Crystallographic Data Centre (CCDC).
#
# This work is licensed under the Creative Commons
# Attribution-NonCommercial-ShareAlike 4.0 International License.
# To view a copy of this license, visit
# http://creativecommons.org/licenses/by-nc-sa/4.0/
# or send a letter to
# Creative Commons, PO Box 1866, Mountain View, CA 94042, USA.
#
# CIF created using the CSD Python API on 29 September 2022
# The structure has been converted into the P1 space group
# The structure has a 3D framework
# The original CSD entry NEKCIS01 is in the tetragonal crystal system
# The framework has been calculated to contain at least 10.0% void space
# The void calculation uses a probe of radius 1.32A, grid spacing 0.4
#
###############################################################################

data_NEKCIS01
_chemical_formula_moiety         '(C144 H128 N16 O64 S16 Zn16)n'
_symmetry_cell_setting           triclinic
_symmetry_space_group_name_H-M   'P 1'
_symmetry_Int_Tables_number      1
_space_group_name_Hall           'P 1'
loop_
_symmetry_equiv_pos_site_id
_symmetry_equiv_pos_as_xyz
1 x,y,z
_cell_length_a                   20.41640(14)
_cell_length_b                   20.41640(14)
_cell_length_c                   19.1259(2)
_cell_angle_alpha                90
_cell_angle_beta                 90
_cell_angle_gamma                90
_cell_volume                     7972.24
loop_
_atom_site_label
_atom_site_type_symbol
_atom_site_fract_x
_atom_site_fract_y
_atom_site_fract_z
Zn1 Zn 0.26310(2) 0.27620(2) 0.31994(2)
Zn2 Zn 0.23316(2) 0.24932(2) 0.16826(2)
O1 O 0.35335(8) 0.24058(9) 0.29394(9)
O2 O 0.33008(8) 0.22544(9) 0.18035(9)
O3 O 0.64085(8) 0.22593(9) 0.30259(8)
O4 O 0.66864(8) 0.19025(9) 0.19547(9)
C1 C 0.36809(11) 0.22760(12) 0.23138(12)
C2 C 0.43825(12) 0.21432(12) 0.21613(12)
C3 C 0.46507(12) 0.19977(14) 0.15236(13)
H1 H 0.4402 0.1949 0.1107
C4 C 0.53390(12) 0.19283(14) 0.15548(13)
H2 H 0.5605 0.1825 0.1162
C5 C 0.55797(12) 0.20270(12) 0.22152(13)
C6 C 0.62836(12) 0.20628(12) 0.24144(12)
S1 S 0.49688(3) 0.22029(3) 0.28053(3)
O5 O 0.29268(9) 0.36657(8) 0.29081(9)
O6 O 0.26186(9) 0.34587(8) 0.18013(9)
O7 O 0.28690(9) 0.65362(8) 0.30602(9)
O8 O 0.27479(10) 0.68402(8) 0.19423(9)
C7 C 0.28013(12) 0.38285(12) 0.22868(12)
C8 C 0.28632(12) 0.45322(12) 0.21155(12)
C9 C 0.28375(14) 0.48178(13) 0.14680(12)
H3 H 0.2813 0.4579 0.1042
C10 C 0.28512(14) 0.55090(13) 0.15076(13)
H4 H 0.2840 0.5788 0.1110
C11 C 0.28825(12) 0.57321(12) 0.21780(13)
C12 C 0.28339(12) 0.64237(12) 0.24138(12)
S2 S 0.29132(3) 0.51024(3) 0.27737(3)
N1 N 0.26209(9) 0.27599(9) 0.42675(9)
C13 C 0.31632(13) 0.23608(15) 0.45578(12)
H5 H 0.3586 0.2517 0.4367
H6 H 0.3106 0.1897 0.4419
C14 C 0.31715(14) 0.24137(17) 0.53588(13)
H7 H 0.3217 0.1971 0.5565
H8 H 0.3552 0.2679 0.5508
C15 C 0.19868(13) 0.24721(15) 0.45043(12)
H9 H 0.1914 0.2048 0.4266
H10 H 0.1623 0.2770 0.4378
C16 C 0.19957(14) 0.23685(17) 0.52953(12)
H11 H 0.1581 0.2532 0.5500
H12 H 0.2031 0.1895 0.5400
C17 C 0.26739(15) 0.34291(12) 0.45665(12)
H13 H 0.2352 0.3722 0.4338
H14 H 0.3117 0.3606 0.4478
C18 C 0.25437(17) 0.34071(13) 0.53605(13)
H15 H 0.2881 0.3667 0.5608
H16 H 0.2110 0.3602 0.5462
N2 N 0.25595(9) 0.27222(9) 0.56130(9)
Zn3 Zn 0.23690(2) 0.77620(2) 0.18006(2)
Zn4 Zn 0.76310(2) 0.22380(2) 0.18006(2)
Zn5 Zn 0.26684(2) 0.74932(2) 0.33174(2)
Zn6 Zn 0.73316(2) 0.25068(2) 0.33174(2)
Zn7 Zn 0.25068(2) 0.26684(2) 0.66826(2)
O9 O 0.14085(8) 0.27407(9) 0.19741(8)
O10 O 0.16864(8) 0.30975(9) 0.30453(9)
O11 O 0.21310(9) 0.15362(8) 0.19398(9)
O12 O 0.22521(10) 0.18402(8) 0.30577(9)
N3 N 0.22778(9) 0.24405(9) 0.06130(9)
Zn1_2 Zn 0.73690(2) 0.72380(2) 0.31994(2)
Zn2_2 Zn 0.76684(2) 0.75068(2) 0.16826(2)
O1_2 O 0.64665(8) 0.75942(9) 0.29394(9)
O2_2 O 0.66992(8) 0.77456(9) 0.18035(9)
O3_2 O 0.35915(8) 0.77407(9) 0.30259(8)
O4_2 O 0.33136(8) 0.80975(9) 0.19547(9)
C1_2 C 0.63191(11) 0.77240(12) 0.23138(12)
C2_2 C 0.56175(12) 0.78568(12) 0.21613(12)
C3_2 C 0.53493(12) 0.80023(14) 0.15236(13)
H1_2 H 0.5598 0.8051 0.1107
C4_2 C 0.46610(12) 0.80717(14) 0.15548(13)
H2_2 H 0.4395 0.8175 0.1162
C5_2 C 0.44203(12) 0.79730(12) 0.22152(13)
C6_2 C 0.37164(12) 0.79372(12) 0.24144(12)
S1_2 S 0.50312(3) 0.77971(3) 0.28053(3)
O5_2 O 0.70732(9) 0.63343(8) 0.29081(9)
O6_2 O 0.73814(9) 0.65413(8) 0.18013(9)
O7_2 O 0.71310(9) 0.34638(8) 0.30602(9)
O8_2 O 0.72521(10) 0.31598(8) 0.19423(9)
C7_2 C 0.71987(12) 0.61715(12) 0.22868(12)
C8_2 C 0.71368(12) 0.54678(12) 0.21155(12)
C9_2 C 0.71625(14) 0.51822(13) 0.14680(12)
H3_2 H 0.7187 0.5421 0.1042
C10_2 C 0.71488(14) 0.44910(13) 0.15076(13)
H4_2 H 0.7160 0.4212 0.1110
C11_2 C 0.71175(12) 0.42679(12) 0.21780(13)
C12_2 C 0.71661(12) 0.35763(12) 0.24138(12)
S2_2 S 0.70868(3) 0.48976(3) 0.27737(3)
N1_2 N 0.73791(9) 0.72401(9) 0.42675(9)
C13_2 C 0.68368(13) 0.76392(15) 0.45578(12)
H5_2 H 0.6414 0.7483 0.4367
H6_2 H 0.6894 0.8103 0.4419
C14_2 C 0.68285(14) 0.75863(17) 0.53588(13)
H7_2 H 0.6783 0.8029 0.5565
H8_2 H 0.6448 0.7321 0.5508
C15_2 C 0.80132(13) 0.75279(15) 0.45043(12)
H9_2 H 0.8086 0.7952 0.4266
H10_2 H 0.8377 0.7230 0.4378
C16_2 C 0.80043(14) 0.76315(17) 0.52953(12)
H11_2 H 0.8419 0.7468 0.5500
H12_2 H 0.7969 0.8105 0.5400
C17_2 C 0.73261(15) 0.65709(12) 0.45665(12)
H13_2 H 0.7648 0.6278 0.4338
H14_2 H 0.6883 0.6394 0.4478
C18_2 C 0.74563(17) 0.65929(13) 0.53605(13)
H15_2 H 0.7119 0.6333 0.5608
H16_2 H 0.7890 0.6398 0.5462
N2_2 N 0.74405(9) 0.72778(9) 0.56130(9)
Zn7_2 Zn 0.74932(2) 0.73316(2) 0.66826(2)
O9_2 O 0.85915(8) 0.72593(9) 0.19741(8)
O10_2 O 0.83136(8) 0.69025(9) 0.30453(9)
O11_2 O 0.78690(9) 0.84638(8) 0.19398(9)
O12_2 O 0.77479(10) 0.81598(8) 0.30577(9)
N3_2 N 0.77222(9) 0.75595(9) 0.06130(9)
Zn1_3 Zn 0.27620(2) 0.73690(2) 0.68006(2)
Zn2_3 Zn 0.24932(2) 0.76684(2) 0.83174(2)
O1_3 O 0.24058(9) 0.64665(8) 0.70606(9)
O2_3 O 0.22544(9) 0.66992(8) 0.81965(9)
O3_3 O 0.22593(9) 0.35915(8) 0.69741(8)
O4_3 O 0.19025(9) 0.33136(8) 0.80453(9)
C1_3 C 0.22760(12) 0.63191(11) 0.76862(12)
C2_3 C 0.21432(12) 0.56175(12) 0.78387(12)
C3_3 C 0.19977(14) 0.53493(12) 0.84764(13)
H1_3 H 0.1949 0.5598 0.8893
C4_3 C 0.19283(14) 0.46610(12) 0.84452(13)
H2_3 H 0.1825 0.4395 0.8838
C5_3 C 0.20270(12) 0.44203(12) 0.77848(13)
C6_3 C 0.20628(12) 0.37164(12) 0.75856(12)
S1_3 S 0.22029(3) 0.50312(3) 0.71947(3)
O5_3 O 0.36657(8) 0.70732(9) 0.70919(9)
O6_3 O 0.34587(8) 0.73814(9) 0.81987(9)
O7_3 O 0.65362(8) 0.71310(9) 0.69398(9)
O8_3 O 0.68402(8) 0.72521(10) 0.80577(9)
C7_3 C 0.38285(12) 0.71987(12) 0.77132(12)
C8_3 C 0.45322(12) 0.71368(12) 0.78845(12)
C9_3 C 0.48178(13) 0.71625(14) 0.85320(12)
H3_3 H 0.4579 0.7187 0.8958
C10_3 C 0.55090(13) 0.71488(14) 0.84924(13)
H4_3 H 0.5788 0.7160 0.8890
C11_3 C 0.57321(12) 0.71175(12) 0.78220(13)
C12_3 C 0.64237(12) 0.71661(12) 0.75862(12)
S2_3 S 0.51024(3) 0.70868(3) 0.72263(3)
N1_3 N 0.27599(9) 0.73791(9) 0.57325(9)
C13_3 C 0.23608(15) 0.68368(13) 0.54422(12)
H5_3 H 0.2517 0.6414 0.5633
H6_3 H 0.1897 0.6894 0.5581
C14_3 C 0.24137(17) 0.68285(14) 0.46412(13)
H7_3 H 0.1971 0.6783 0.4435
H8_3 H 0.2679 0.6448 0.4492
C15_3 C 0.24721(15) 0.80132(13) 0.54957(12)
H9_3 H 0.2048 0.8086 0.5734
H10_3 H 0.2770 0.8377 0.5622
C16_3 C 0.23685(17) 0.80043(14) 0.47047(12)
H11_3 H 0.2532 0.8419 0.4500
H12_3 H 0.1895 0.7969 0.4600
C17_3 C 0.34291(12) 0.73261(15) 0.54335(12)
H13_3 H 0.3722 0.7648 0.5662
H14_3 H 0.3606 0.6883 0.5522
C18_3 C 0.34071(13) 0.74563(17) 0.46395(13)
H15_3 H 0.3667 0.7119 0.4392
H16_3 H 0.3602 0.7890 0.4538
N2_3 N 0.27222(9) 0.74405(9) 0.43870(9)
Zn3_2 Zn 0.77620(2) 0.76310(2) 0.81994(2)
Zn4_2 Zn 0.22380(2) 0.23690(2) 0.81994(2)
O9_3 O 0.27407(9) 0.85915(8) 0.80259(8)
O10_3 O 0.30975(9) 0.83136(8) 0.69547(9)
O11_3 O 0.15362(8) 0.78690(9) 0.80602(9)
O12_3 O 0.18402(8) 0.77479(10) 0.69423(9)
N3_3 N 0.24405(9) 0.77222(9) 0.93870(9)
Zn1_4 Zn 0.72380(2) 0.26310(2) 0.68006(2)
Zn2_4 Zn 0.75068(2) 0.23316(2) 0.83174(2)
O1_4 O 0.75942(9) 0.35335(8) 0.70606(9)
O2_4 O 0.77456(9) 0.33008(8) 0.81965(9)
O3_4 O 0.77407(9) 0.64085(8) 0.69741(8)
O4_4 O 0.80975(9) 0.66864(8) 0.80453(9)
C1_4 C 0.77240(12) 0.36809(11) 0.76862(12)
C2_4 C 0.78568(12) 0.43825(12) 0.78387(12)
C3_4 C 0.80023(14) 0.46507(12) 0.84764(13)
H1_4 H 0.8051 0.4402 0.8893
C4_4 C 0.80717(14) 0.53390(12) 0.84452(13)
H2_4 H 0.8175 0.5605 0.8838
C5_4 C 0.79730(12) 0.55797(12) 0.77848(13)
C6_4 C 0.79372(12) 0.62836(12) 0.75856(12)
S1_4 S 0.77971(3) 0.49688(3) 0.71947(3)
O5_4 O 0.63343(8) 0.29268(9) 0.70919(9)
O6_4 O 0.65413(8) 0.26186(9) 0.81987(9)
O7_4 O 0.34638(8) 0.28690(9) 0.69398(9)
O8_4 O 0.31598(8) 0.27479(10) 0.80577(9)
C7_4 C 0.61715(12) 0.28013(12) 0.77132(12)
C8_4 C 0.54678(12) 0.28632(12) 0.78845(12)
C9_4 C 0.51822(13) 0.28375(14) 0.85320(12)
H3_4 H 0.5421 0.2813 0.8958
C10_4 C 0.44910(13) 0.28512(14) 0.84924(13)
H4_4 H 0.4212 0.2840 0.8890
C11_4 C 0.42679(12) 0.28825(12) 0.78220(13)
C12_4 C 0.35763(12) 0.28339(12) 0.75862(12)
S2_4 S 0.48976(3) 0.29132(3) 0.72263(3)
N1_4 N 0.72401(9) 0.26209(9) 0.57325(9)
C13_4 C 0.76392(15) 0.31632(13) 0.54422(12)
H5_4 H 0.7483 0.3586 0.5633
H6_4 H 0.8103 0.3106 0.5581
C14_4 C 0.75863(17) 0.31715(14) 0.46412(13)
H7_4 H 0.8029 0.3217 0.4435
H8_4 H 0.7321 0.3552 0.4492
C15_4 C 0.75279(15) 0.19868(13) 0.54957(12)
H9_4 H 0.7952 0.1914 0.5734
H10_4 H 0.7230 0.1623 0.5622
C16_4 C 0.76315(17) 0.19957(14) 0.47047(12)
H11_4 H 0.7468 0.1581 0.4500
H12_4 H 0.8105 0.2031 0.4600
C17_4 C 0.65709(12) 0.26739(15) 0.54335(12)
H13_4 H 0.6278 0.2352 0.5662
H14_4 H 0.6394 0.3117 0.5522
C18_4 C 0.65929(13) 0.25437(17) 0.46395(13)
H15_4 H 0.6333 0.2881 0.4392
H16_4 H 0.6398 0.2110 0.4538
N2_4 N 0.72778(9) 0.25595(9) 0.43870(9)
O9_4 O 0.72593(9) 0.14085(8) 0.80259(8)
O10_4 O 0.69025(9) 0.16864(8) 0.69547(9)
O11_4 O 0.84638(8) 0.21310(9) 0.80602(9)
O12_4 O 0.81598(8) 0.22521(10) 0.69423(9)
N3_4 N 0.75595(9) 0.22778(9) 0.93870(9)
C10_5 C 0.21488(14) 0.05090(13) 0.34924(13)
H4_5 H 0.2160 0.0788 0.3890
C11_5 C 0.21175(12) 0.07321(12) 0.28220(13)
C12_5 C 0.21661(12) 0.14237(12) 0.25862(12)
S2_5 S 0.20868(3) 0.01024(3) 0.22263(3)
O1_5 O 0.14665(8) 0.74058(9) 0.20606(9)
O2_5 O 0.16992(8) 0.72544(9) 0.31965(9)
C1_5 C 0.13191(11) 0.72760(12) 0.26862(12)
C2_5 C 0.06175(12) 0.71432(12) 0.28387(12)
C3_5 C 0.03493(12) 0.69977(14) 0.34764(13)
H1_5 H 0.0598 0.6949 0.3893
S1_5 S 0.00312(3) 0.72029(3) 0.21947(3)
O5_5 O 0.20732(9) 0.86657(8) 0.20919(9)
O6_5 O 0.23814(9) 0.84587(8) 0.31987(9)
C7_5 C 0.21987(12) 0.88285(12) 0.27132(12)
C8_5 C 0.21368(12) 0.95322(12) 0.28845(12)
C9_5 C 0.21625(14) 0.98178(13) 0.35320(12)
H3_5 H 0.2187 0.9579 0.3958
N1_5 N 0.23791(9) 0.77599(9) 0.07325(9)
C13_5 C 0.18368(13) 0.73608(15) 0.04422(12)
H5_5 H 0.1414 0.7517 0.0633
H6_5 H 0.1894 0.6897 0.0581
C15_5 C 0.30132(13) 0.74721(15) 0.04957(12)
H9_5 H 0.3086 0.7048 0.0734
H10_5 H 0.3377 0.7770 0.0622
C17_5 C 0.23261(15) 0.84291(12) 0.04335(12)
H13_5 H 0.2648 0.8722 0.0662
H14_5 H 0.1883 0.8606 0.0522
C14_5 C 0.18285(14) 0.74137(17) 0.96412(13)
H7_5 H 0.1783 0.6971 0.9435
H8_5 H 0.1448 0.7679 0.9492
C16_5 C 0.30043(14) 0.73685(17) 0.97047(12)
H11_5 H 0.3419 0.7532 0.9500
H12_5 H 0.2969 0.6895 0.9600
C18_5 C 0.24563(17) 0.84071(13) 0.96395(13)
H15_5 H 0.2119 0.8667 0.9392
H16_5 H 0.2890 0.8602 0.9538
C4_5 C 0.96610(12) 0.69283(14) 0.34452(13)
H2_5 H 0.9395 0.6825 0.3838
C5_5 C 0.94203(12) 0.70270(12) 0.27848(13)
C6_5 C 0.87164(12) 0.70628(12) 0.25856(12)
C4_6 C 0.03390(12) 0.30717(14) 0.34452(13)
H2_6 H 0.0605 0.3175 0.3838
C5_6 C 0.05797(12) 0.29730(12) 0.27848(13)
C6_6 C 0.12836(12) 0.29372(12) 0.25856(12)
O1_6 O 0.85335(8) 0.25942(9) 0.20606(9)
O2_6 O 0.83008(8) 0.27456(9) 0.31965(9)
C1_6 C 0.86809(11) 0.27240(12) 0.26862(12)
C2_6 C 0.93825(12) 0.28568(12) 0.28387(12)
C3_6 C 0.96507(12) 0.30023(14) 0.34764(13)
H1_6 H 0.9402 0.3051 0.3893
S1_6 S 0.99688(3) 0.27971(3) 0.21947(3)
O5_6 O 0.79268(9) 0.13343(8) 0.20919(9)
O6_6 O 0.76186(9) 0.15413(8) 0.31987(9)
C7_6 C 0.78013(12) 0.11715(12) 0.27132(12)
C8_6 C 0.78632(12) 0.04678(12) 0.28845(12)
C9_6 C 0.78375(14) 0.01822(13) 0.35320(12)
H3_6 H 0.7813 0.0421 0.3958
N1_6 N 0.76209(9) 0.22401(9) 0.07325(9)
C13_6 C 0.81632(13) 0.26392(15) 0.04422(12)
H5_6 H 0.8586 0.2483 0.0633
H6_6 H 0.8106 0.3103 0.0581
C15_6 C 0.69868(13) 0.25279(15) 0.04957(12)
H9_6 H 0.6914 0.2952 0.0734
H10_6 H 0.6623 0.2230 0.0622
C17_6 C 0.76739(15) 0.15709(12) 0.04335(12)
H13_6 H 0.7352 0.1278 0.0662
H14_6 H 0.8117 0.1394 0.0522
C14_6 C 0.81715(14) 0.25863(17) 0.96412(13)
H7_6 H 0.8217 0.3029 0.9435
H8_6 H 0.8552 0.2321 0.9492
C16_6 C 0.69957(14) 0.26315(17) 0.97047(12)
H11_6 H 0.6581 0.2468 0.9500
H12_6 H 0.7031 0.3105 0.9600
C18_6 C 0.75437(17) 0.15929(13) 0.96395(13)
H15_6 H 0.7881 0.1333 0.9392
H16_6 H 0.7110 0.1398 0.9538
C10_6 C 0.78512(14) 0.94910(13) 0.34924(13)
H4_6 H 0.7840 0.9212 0.3890
C11_6 C 0.78825(12) 0.92679(12) 0.28220(13)
C12_6 C 0.78339(12) 0.85763(12) 0.25862(12)
S2_6 S 0.79132(3) 0.98976(3) 0.22263(3)
C14_7 C 0.25863(17) 0.18285(14) 0.03588(13)
H7_7 H 0.3029 0.1783 0.0565
H8_7 H 0.2321 0.1448 0.0508
C16_7 C 0.26315(17) 0.30043(14) 0.02953(12)
H11_7 H 0.2468 0.3419 0.0500
H12_7 H 0.3105 0.2969 0.0400
C18_7 C 0.15929(13) 0.24563(17) 0.03605(13)
H15_7 H 0.1333 0.2119 0.0608
H16_7 H 0.1398 0.2890 0.0462
O1_7 O 0.25942(9) 0.14665(8) 0.79394(9)
O2_7 O 0.27456(9) 0.16992(8) 0.68035(9)
C1_7 C 0.27240(12) 0.13191(11) 0.73138(12)
C2_7 C 0.28568(12) 0.06175(12) 0.71613(12)
C3_7 C 0.30023(14) 0.03493(12) 0.65236(13)
H1_7 H 0.3051 0.0598 0.6107
S1_7 S 0.27971(3) 0.00312(3) 0.78053(3)
O5_7 O 0.13343(8) 0.20732(9) 0.79081(9)
O6_7 O 0.15413(8) 0.23814(9) 0.68013(9)
C7_7 C 0.11715(12) 0.21987(12) 0.72868(12)
C8_7 C 0.04678(12) 0.21368(12) 0.71155(12)
C9_7 C 0.01822(13) 0.21625(14) 0.64680(12)
H3_7 H 0.0421 0.2187 0.6042
N1_7 N 0.22401(9) 0.23791(9) 0.92675(9)
C13_7 C 0.26392(15) 0.18368(13) 0.95578(12)
H5_7 H 0.2483 0.1414 0.9367
H6_7 H 0.3103 0.1894 0.9419
C15_7 C 0.25279(15) 0.30132(13) 0.95043(12)
H9_7 H 0.2952 0.3086 0.9266
H10_7 H 0.2230 0.3377 0.9378
C17_7 C 0.15709(12) 0.23261(15) 0.95665(12)
H13_7 H 0.1278 0.2648 0.9338
H14_7 H 0.1394 0.1883 0.9478
C4_7 C 0.30717(14) 0.96610(12) 0.65548(13)
H2_7 H 0.3175 0.9395 0.6162
C5_7 C 0.29730(12) 0.94203(12) 0.72152(13)
C6_7 C 0.29372(12) 0.87164(12) 0.74144(12)
C10_7 C 0.94910(13) 0.21488(14) 0.65076(13)
H4_7 H 0.9212 0.2160 0.6110
C11_7 C 0.92679(12) 0.21175(12) 0.71780(13)
C12_7 C 0.85763(12) 0.21661(12) 0.74138(12)
S2_7 S 0.98976(3) 0.20868(3) 0.77737(3)
C10_8 C 0.05090(13) 0.78512(14) 0.65076(13)
H4_8 H 0.0788 0.7840 0.6110
C11_8 C 0.07321(12) 0.78825(12) 0.71780(13)
C12_8 C 0.14237(12) 0.78339(12) 0.74138(12)
S2_8 S 0.01024(3) 0.79132(3) 0.77737(3)
C4_8 C 0.69283(14) 0.03390(12) 0.65548(13)
H2_8 H 0.6825 0.0605 0.6162
C5_8 C 0.70270(12) 0.05797(12) 0.72152(13)
C6_8 C 0.70628(12) 0.12836(12) 0.74144(12)
C14_8 C 0.74137(17) 0.81715(14) 0.03588(13)
H7_8 H 0.6971 0.8217 0.0565
H8_8 H 0.7679 0.8552 0.0508
C16_8 C 0.73685(17) 0.69957(14) 0.02953(12)
H11_8 H 0.7532 0.6581 0.0500
H12_8 H 0.6895 0.7031 0.0400
C18_8 C 0.84071(13) 0.75437(17) 0.03605(13)
H15_8 H 0.8667 0.7881 0.0608
H16_8 H 0.8602 0.7110 0.0462
O1_8 O 0.74058(9) 0.85335(8) 0.79394(9)
O2_8 O 0.72544(9) 0.83008(8) 0.68035(9)
C1_8 C 0.72760(12) 0.86809(11) 0.73138(12)
C2_8 C 0.71432(12) 0.93825(12) 0.71613(12)
C3_8 C 0.69977(14) 0.96507(12) 0.65236(13)
H1_8 H 0.6949 0.9402 0.6107
S1_8 S 0.72029(3) 0.99688(3) 0.78053(3)
O5_8 O 0.86657(8) 0.79268(9) 0.79081(9)
O6_8 O 0.84587(8) 0.76186(9) 0.68013(9)
C7_8 C 0.88285(12) 0.78013(12) 0.72868(12)
C8_8 C 0.95322(12) 0.78632(12) 0.71155(12)
C9_8 C 0.98178(13) 0.78375(14) 0.64680(12)
H3_8 H 0.9579 0.7813 0.6042
N1_8 N 0.77599(9) 0.76209(9) 0.92675(9)
C13_8 C 0.73608(15) 0.81632(13) 0.95578(12)
H5_8 H 0.7517 0.8586 0.9367
H6_8 H 0.6897 0.8106 0.9419
C15_8 C 0.74721(15) 0.69868(13) 0.95043(12)
H9_8 H 0.7048 0.6914 0.9266
H10_8 H 0.7770 0.6623 0.9378
C17_8 C 0.84291(12) 0.76739(15) 0.95665(12)
H13_8 H 0.8722 0.7352 0.9338
H14_8 H 0.8606 0.8117 0.9478
loop_
_geom_bond_atom_site_label_1
_geom_bond_atom_site_label_2
_geom_bond_site_symmetry_1
_geom_bond_site_symmetry_2
Zn1 O1 1_555 1_555
Zn2 O2 1_555 1_555
O1 C1 1_555 1_555
O2 C1 1_555 1_555
O3 C6 1_555 1_555
O4 C6 1_555 1_555
C1 C2 1_555 1_555
C2 C3 1_555 1_555
C3 H1 1_555 1_555
C4 C3 1_555 1_555
H2 C4 1_555 1_555
C5 C4 1_555 1_555
C6 C5 1_555 1_555
S1 C2 1_555 1_555
O5 Zn1 1_555 1_555
O6 Zn2 1_555 1_555
O7 C12 1_555 1_555
O8 C12 1_555 1_555
C7 O5 1_555 1_555
C8 C7 1_555 1_555
C9 C8 1_555 1_555
H3 C9 1_555 1_555
C10 C9 1_555 1_555
H4 C10 1_555 1_555
C11 C10 1_555 1_555
C12 C11 1_555 1_555
S2 C8 1_555 1_555
N1 Zn1 1_555 1_555
C13 N1 1_555 1_555
H5 C13 1_555 1_555
H6 C13 1_555 1_555
C14 C13 1_555 1_555
H7 C14 1_555 1_555
H8 C14 1_555 1_555
C15 N1 1_555 1_555
H9 C15 1_555 1_555
H10 C15 1_555 1_555
C16 C15 1_555 1_555
H11 C16 1_555 1_555
H12 C16 1_555 1_555
C17 N1 1_555 1_555
H13 C17 1_555 1_555
H14 C17 1_555 1_555
C18 C17 1_555 1_555
H15 C18 1_555 1_555
H16 C18 1_555 1_555
N2 C14 1_555 1_555
Zn3 O8 1_555 1_555
Zn4 O4 1_555 1_555
Zn5 O7 1_555 1_555
Zn6 O3 1_555 1_555
Zn7 N2 1_555 1_555
O9 Zn2 1_555 1_555
O10 Zn1 1_555 1_555
O11 Zn2 1_555 1_555
O12 Zn1 1_555 1_555
N3 Zn2 1_555 1_555
C5 S1 1_555 1_555
O6 C7 1_555 1_555
C11 S2 1_555 1_555
C16 N2 1_555 1_555
C18 N2 1_555 1_555
Zn1_2 O1_2 1_555 1_555
Zn2_2 O2_2 1_555 1_555
O1_2 C1_2 1_555 1_555
O2_2 C1_2 1_555 1_555
O3_2 C6_2 1_555 1_555
O4_2 C6_2 1_555 1_555
C1_2 C2_2 1_555 1_555
C2_2 C3_2 1_555 1_555
C3_2 H1_2 1_555 1_555
C4_2 C3_2 1_555 1_555
H2_2 C4_2 1_555 1_555
C5_2 C4_2 1_555 1_555
C6_2 C5_2 1_555 1_555
S1_2 C2_2 1_555 1_555
O5_2 Zn1_2 1_555 1_555
O6_2 Zn2_2 1_555 1_555
O7_2 C12_2 1_555 1_555
O8_2 C12_2 1_555 1_555
C7_2 O5_2 1_555 1_555
C8_2 C7_2 1_555 1_555
C9_2 C8_2 1_555 1_555
H3_2 C9_2 1_555 1_555
C10_2 C9_2 1_555 1_555
H4_2 C10_2 1_555 1_555
C11_2 C10_2 1_555 1_555
C12_2 C11_2 1_555 1_555
S2_2 C8_2 1_555 1_555
N1_2 Zn1_2 1_555 1_555
C13_2 N1_2 1_555 1_555
H5_2 C13_2 1_555 1_555
H6_2 C13_2 1_555 1_555
C14_2 C13_2 1_555 1_555
H7_2 C14_2 1_555 1_555
H8_2 C14_2 1_555 1_555
C15_2 N1_2 1_555 1_555
H9_2 C15_2 1_555 1_555
H10_2 C15_2 1_555 1_555
C16_2 C15_2 1_555 1_555
H11_2 C16_2 1_555 1_555
H12_2 C16_2 1_555 1_555
C17_2 N1_2 1_555 1_555
H13_2 C17_2 1_555 1_555
H14_2 C17_2 1_555 1_555
C18_2 C17_2 1_555 1_555
H15_2 C18_2 1_555 1_555
H16_2 C18_2 1_555 1_555
N2_2 C14_2 1_555 1_555
Zn4 O8_2 1_555 1_555
Zn3 O4_2 1_555 1_555
Zn6 O7_2 1_555 1_555
Zn5 O3_2 1_555 1_555
Zn7_2 N2_2 1_555 1_555
O9_2 Zn2_2 1_555 1_555
O10_2 Zn1_2 1_555 1_555
O11_2 Zn2_2 1_555 1_555
O12_2 Zn1_2 1_555 1_555
N3_2 Zn2_2 1_555 1_555
C5_2 S1_2 1_555 1_555
O6_2 C7_2 1_555 1_555
C11_2 S2_2 1_555 1_555
C16_2 N2_2 1_555 1_555
C18_2 N2_2 1_555 1_555
Zn1_3 O1_3 1_555 1_555
Zn2_3 O2_3 1_555 1_555
O1_3 C1_3 1_555 1_555
O2_3 C1_3 1_555 1_555
O3_3 C6_3 1_555 1_555
O4_3 C6_3 1_555 1_555
C1_3 C2_3 1_555 1_555
C2_3 C3_3 1_555 1_555
C3_3 H1_3 1_555 1_555
C4_3 C3_3 1_555 1_555
H2_3 C4_3 1_555 1_555
C5_3 C4_3 1_555 1_555
C6_3 C5_3 1_555 1_555
S1_3 C2_3 1_555 1_555
O5_3 Zn1_3 1_555 1_555
O6_3 Zn2_3 1_555 1_555
O7_3 C12_3 1_555 1_555
O8_3 C12_3 1_555 1_555
C7_3 O5_3 1_555 1_555
C8_3 C7_3 1_555 1_555
C9_3 C8_3 1_555 1_555
H3_3 C9_3 1_555 1_555
C10_3 C9_3 1_555 1_555
H4_3 C10_3 1_555 1_555
C11_3 C10_3 1_555 1_555
C12_3 C11_3 1_555 1_555
S2_3 C8_3 1_555 1_555
N1_3 Zn1_3 1_555 1_555
C13_3 N1_3 1_555 1_555
H5_3 C13_3 1_555 1_555
H6_3 C13_3 1_555 1_555
C14_3 C13_3 1_555 1_555
H7_3 C14_3 1_555 1_555
H8_3 C14_3 1_555 1_555
C15_3 N1_3 1_555 1_555
H9_3 C15_3 1_555 1_555
H10_3 C15_3 1_555 1_555
C16_3 C15_3 1_555 1_555
H11_3 C16_3 1_555 1_555
H12_3 C16_3 1_555 1_555
C17_3 N1_3 1_555 1_555
H13_3 C17_3 1_555 1_555
H14_3 C17_3 1_555 1_555
C18_3 C17_3 1_555 1_555
H15_3 C18_3 1_555 1_555
H16_3 C18_3 1_555 1_555
N2_3 C14_3 1_555 1_555
Zn3_2 O8_3 1_555 1_555
Zn4_2 O4_3 1_555 1_555
Zn7_2 O7_3 1_555 1_555
Zn7 O3_3 1_555 1_555
Zn5 N2_3 1_555 1_555
O9_3 Zn2_3 1_555 1_555
O10_3 Zn1_3 1_555 1_555
O11_3 Zn2_3 1_555 1_555
O12_3 Zn1_3 1_555 1_555
N3_3 Zn2_3 1_555 1_555
C5_3 S1_3 1_555 1_555
O6_3 C7_3 1_555 1_555
C11_3 S2_3 1_555 1_555
C16_3 N2_3 1_555 1_555
C18_3 N2_3 1_555 1_555
Zn1_4 O1_4 1_555 1_555
Zn2_4 O2_4 1_555 1_555
O1_4 C1_4 1_555 1_555
O2_4 C1_4 1_555 1_555
O3_4 C6_4 1_555 1_555
O4_4 C6_4 1_555 1_555
C1_4 C2_4 1_555 1_555
C2_4 C3_4 1_555 1_555
C3_4 H1_4 1_555 1_555
C4_4 C3_4 1_555 1_555
H2_4 C4_4 1_555 1_555
C5_4 C4_4 1_555 1_555
C6_4 C5_4 1_555 1_555
S1_4 C2_4 1_555 1_555
O5_4 Zn1_4 1_555 1_555
O6_4 Zn2_4 1_555 1_555
O7_4 C12_4 1_555 1_555
O8_4 C12_4 1_555 1_555
C7_4 O5_4 1_555 1_555
C8_4 C7_4 1_555 1_555
C9_4 C8_4 1_555 1_555
H3_4 C9_4 1_555 1_555
C10_4 C9_4 1_555 1_555
H4_4 C10_4 1_555 1_555
C11_4 C10_4 1_555 1_555
C12_4 C11_4 1_555 1_555
S2_4 C8_4 1_555 1_555
N1_4 Zn1_4 1_555 1_555
C13_4 N1_4 1_555 1_555
H5_4 C13_4 1_555 1_555
H6_4 C13_4 1_555 1_555
C14_4 C13_4 1_555 1_555
H7_4 C14_4 1_555 1_555
H8_4 C14_4 1_555 1_555
C15_4 N1_4 1_555 1_555
H9_4 C15_4 1_555 1_555
H10_4 C15_4 1_555 1_555
C16_4 C15_4 1_555 1_555
H11_4 C16_4 1_555 1_555
H12_4 C16_4 1_555 1_555
C17_4 N1_4 1_555 1_555
H13_4 C17_4 1_555 1_555
H14_4 C17_4 1_555 1_555
C18_4 C17_4 1_555 1_555
H15_4 C18_4 1_555 1_555
H16_4 C18_4 1_555 1_555
N2_4 C14_4 1_555 1_555
Zn4_2 O8_4 1_555 1_555
Zn3_2 O4_4 1_555 1_555
Zn7 O7_4 1_555 1_555
Zn7_2 O3_4 1_555 1_555
Zn6 N2_4 1_555 1_555
O9_4 Zn2_4 1_555 1_555
O10_4 Zn1_4 1_555 1_555
O11_4 Zn2_4 1_555 1_555
O12_4 Zn1_4 1_555 1_555
N3_4 Zn2_4 1_555 1_555
C5_4 S1_4 1_555 1_555
O6_4 C7_4 1_555 1_555
C11_4 S2_4 1_555 1_555
C16_4 N2_4 1_555 1_555
C18_4 N2_4 1_555 1_555
O11 C12_5 1_555 1_555
O12 C12_5 1_555 1_555
H4_5 C10_5 1_555 1_555
C11_5 C10_5 1_555 1_555
C12_5 C11_5 1_555 1_555
C11_5 S2_5 1_555 1_555
Zn3 O1_5 1_555 1_555
Zn5 O2_5 1_555 1_555
O1_5 C1_5 1_555 1_555
O2_5 C1_5 1_555 1_555
C1_5 C2_5 1_555 1_555
C2_5 C3_5 1_555 1_555
C3_5 H1_5 1_555 1_555
S1_5 C2_5 1_555 1_555
O5_5 Zn3 1_555 1_555
O6_5 Zn5 1_555 1_555
C7_5 O5_5 1_555 1_555
C8_5 C7_5 1_555 1_555
C9_5 C8_5 1_555 1_555
H3_5 C9_5 1_555 1_555
N1_5 Zn3 1_555 1_555
C13_5 N1_5 1_555 1_555
H5_5 C13_5 1_555 1_555
H6_5 C13_5 1_555 1_555
C15_5 N1_5 1_555 1_555
H9_5 C15_5 1_555 1_555
H10_5 C15_5 1_555 1_555
C17_5 N1_5 1_555 1_555
H13_5 C17_5 1_555 1_555
H14_5 C17_5 1_555 1_555
O6_5 C7_5 1_555 1_555
H7_5 C14_5 1_555 1_555
H8_5 C14_5 1_555 1_555
H11_5 C16_5 1_555 1_555
H12_5 C16_5 1_555 1_555
H15_5 C18_5 1_555 1_555
H16_5 C18_5 1_555 1_555
N3_3 C14_5 1_555 1_555
C16_5 N3_3 1_555 1_555
C18_5 N3_3 1_555 1_555
O9_2 C6_5 1_555 1_555
O10_2 C6_5 1_555 1_555
H2_5 C4_5 1_555 1_555
C5_5 C4_5 1_555 1_555
C6_5 C5_5 1_555 1_555
O9 C6_6 1_555 1_555
O10 C6_6 1_555 1_555
H2_6 C4_6 1_555 1_555
C5_6 C4_6 1_555 1_555
C6_6 C5_6 1_555 1_555
Zn4 O1_6 1_555 1_555
Zn6 O2_6 1_555 1_555
O1_6 C1_6 1_555 1_555
O2_6 C1_6 1_555 1_555
C1_6 C2_6 1_555 1_555
C2_6 C3_6 1_555 1_555
C3_6 H1_6 1_555 1_555
S1_6 C2_6 1_555 1_555
O5_6 Zn4 1_555 1_555
O6_6 Zn6 1_555 1_555
C7_6 O5_6 1_555 1_555
C8_6 C7_6 1_555 1_555
C9_6 C8_6 1_555 1_555
H3_6 C9_6 1_555 1_555
N1_6 Zn4 1_555 1_555
C13_6 N1_6 1_555 1_555
H5_6 C13_6 1_555 1_555
H6_6 C13_6 1_555 1_555
C15_6 N1_6 1_555 1_555
H9_6 C15_6 1_555 1_555
H10_6 C15_6 1_555 1_555
C17_6 N1_6 1_555 1_555
H13_6 C17_6 1_555 1_555
H14_6 C17_6 1_555 1_555
O6_6 C7_6 1_555 1_555
H7_6 C14_6 1_555 1_555
H8_6 C14_6 1_555 1_555
H11_6 C16_6 1_555 1_555
H12_6 C16_6 1_555 1_555
H15_6 C18_6 1_555 1_555
H16_6 C18_6 1_555 1_555
N3_4 C14_6 1_555 1_555
C16_6 N3_4 1_555 1_555
C18_6 N3_4 1_555 1_555
O11_2 C12_6 1_555 1_555
O12_2 C12_6 1_555 1_555
H4_6 C10_6 1_555 1_555
C11_6 C10_6 1_555 1_555
C12_6 C11_6 1_555 1_555
C11_6 S2_6 1_555 1_555
H7_7 C14_7 1_555 1_555
H8_7 C14_7 1_555 1_555
H11_7 C16_7 1_555 1_555
H12_7 C16_7 1_555 1_555
H15_7 C18_7 1_555 1_555
H16_7 C18_7 1_555 1_555
N3 C14_7 1_555 1_555
C16_7 N3 1_555 1_555
C18_7 N3 1_555 1_555
Zn4_2 O1_7 1_555 1_555
Zn7 O2_7 1_555 1_555
O1_7 C1_7 1_555 1_555
O2_7 C1_7 1_555 1_555
C1_7 C2_7 1_555 1_555
C2_7 C3_7 1_555 1_555
C3_7 H1_7 1_555 1_555
S1_7 C2_7 1_555 1_555
O5_7 Zn4_2 1_555 1_555
O6_7 Zn7 1_555 1_555
C7_7 O5_7 1_555 1_555
C8_7 C7_7 1_555 1_555
C9_7 C8_7 1_555 1_555
H3_7 C9_7 1_555 1_555
N1_7 Zn4_2 1_555 1_555
C13_7 N1_7 1_555 1_555
H5_7 C13_7 1_555 1_555
H6_7 C13_7 1_555 1_555
C15_7 N1_7 1_555 1_555
H9_7 C15_7 1_555 1_555
H10_7 C15_7 1_555 1_555
C17_7 N1_7 1_555 1_555
H13_7 C17_7 1_555 1_555
H14_7 C17_7 1_555 1_555
O6_7 C7_7 1_555 1_555
O9_3 C6_7 1_555 1_555
O10_3 C6_7 1_555 1_555
H2_7 C4_7 1_555 1_555
C5_7 C4_7 1_555 1_555
C6_7 C5_7 1_555 1_555
O11_4 C12_7 1_555 1_555
O12_4 C12_7 1_555 1_555
H4_7 C10_7 1_555 1_555
C11_7 C10_7 1_555 1_555
C12_7 C11_7 1_555 1_555
C11_7 S2_7 1_555 1_555
O11_3 C12_8 1_555 1_555
O12_3 C12_8 1_555 1_555
H4_8 C10_8 1_555 1_555
C11_8 C10_8 1_555 1_555
C12_8 C11_8 1_555 1_555
C11_8 S2_8 1_555 1_555
O9_4 C6_8 1_555 1_555
O10_4 C6_8 1_555 1_555
H2_8 C4_8 1_555 1_555
C5_8 C4_8 1_555 1_555
C6_8 C5_8 1_555 1_555
H7_8 C14_8 1_555 1_555
H8_8 C14_8 1_555 1_555
H11_8 C16_8 1_555 1_555
H12_8 C16_8 1_555 1_555
H15_8 C18_8 1_555 1_555
H16_8 C18_8 1_555 1_555
N3_2 C14_8 1_555 1_555
C16_8 N3_2 1_555 1_555
C18_8 N3_2 1_555 1_555
Zn3_2 O1_8 1_555 1_555
Zn7_2 O2_8 1_555 1_555
O1_8 C1_8 1_555 1_555
O2_8 C1_8 1_555 1_555
C1_8 C2_8 1_555 1_555
C2_8 C3_8 1_555 1_555
C3_8 H1_8 1_555 1_555
S1_8 C2_8 1_555 1_555
O5_8 Zn3_2 1_555 1_555
O6_8 Zn7_2 1_555 1_555
C7_8 O5_8 1_555 1_555
C8_8 C7_8 1_555 1_555
C9_8 C8_8 1_555 1_555
H3_8 C9_8 1_555 1_555
N1_8 Zn3_2 1_555 1_555
C13_8 N1_8 1_555 1_555
H5_8 C13_8 1_555 1_555
H6_8 C13_8 1_555 1_555
C15_8 N1_8 1_555 1_555
H9_8 C15_8 1_555 1_555
H10_8 C15_8 1_555 1_555
C17_8 N1_8 1_555 1_555
H13_8 C17_8 1_555 1_555
H14_8 C17_8 1_555 1_555
O6_8 C7_8 1_555 1_555

#END
