
###############################################################################
#
# This file contains modified crystal structure data generated from the
# MOF subset of the Cambridge Structural Database (CSD) v543 
# hosted by the Cambridge Crystallographic Data Centre (CCDC).
#
# This work is licensed under the Creative Commons
# Attribution-NonCommercial-ShareAlike 4.0 International License.
# To view a copy of this license, visit
# http://creativecommons.org/licenses/by-nc-sa/4.0/
# or send a letter to
# Creative Commons, PO Box 1866, Mountain View, CA 94042, USA.
#
# CIF created using the CSD Python API on 29 September 2022
# The structure has been converted into the P1 space group
# The structure has a 3D framework
# The original CSD entry NEKCIS is in the tetragonal crystal system
# The framework has been calculated to contain at least 10.0% void space
# The void calculation uses a probe of radius 1.32A, grid spacing 0.4
#
###############################################################################

data_NEKCIS
_chemical_formula_moiety         '(C144 H128 N16 O64 S16 Zn16)n'
_symmetry_cell_setting           triclinic
_symmetry_space_group_name_H-M   'P 1'
_symmetry_Int_Tables_number      1
_space_group_name_Hall           'P 1'
loop_
_symmetry_equiv_pos_site_id
_symmetry_equiv_pos_as_xyz
1 x,y,z
_cell_length_a                   20.46930(10)
_cell_length_b                   20.46930(10)
_cell_length_c                   19.1467(3)
_cell_angle_alpha                90
_cell_angle_beta                 90
_cell_angle_gamma                90
_cell_volume                     8022.32
loop_
_atom_site_label
_atom_site_type_symbol
_atom_site_fract_x
_atom_site_fract_y
_atom_site_fract_z
Zn1 Zn 0.26479(2) 0.27151(2) 0.17831(2)
Zn2 Zn 0.23472(2) 0.24501(2) 0.32991(2)
N1 N 0.26444(18) 0.27201(18) 0.07144(17)
O1 O 0.26331(19) 0.34110(15) 0.31716(19)
O2 O 0.14261(16) 0.26967(19) 0.30141(17)
O3 O 0.16983(16) 0.30146(18) 0.19351(18)
C1 C 0.2796(2) 0.3788(2) 0.2688(3)
C2 C 0.0596(2) 0.2931(3) 0.2211(3)
O4 O 0.29032(18) 0.36334(17) 0.20628(19)
C5 C 0.1298(2) 0.2874(2) 0.2403(3)
C6 C 0.2657(4) 0.3389(2) 0.0429(3)
H2 H 0.3072 0.3593 0.0538
H3 H 0.2313 0.3647 0.0641
C7 C 0.2033(3) 0.2400(4) 0.0470(3)
H4 H 0.1659 0.2660 0.0609
H5 H 0.1993 0.1973 0.0683
C8 C 0.3204(3) 0.2366(3) 0.0425(3)
H6 H 0.3184 0.1911 0.0567
H7 H 0.3606 0.2550 0.0607
C9 C 0.0353(2) 0.3043(3) 0.1562(3)
H8 H 0.0612 0.3139 0.1176
S2 S 0.28924(6) 0.50666(6) 0.22212(6)
C10 C 0.2856(3) 0.4486(2) 0.2867(3)
C11 C 0.2832(3) 0.4765(3) 0.3513(3)
H9 H 0.2816 0.4528 0.3927
C13 C 0.2859(2) 0.5685(2) 0.2824(3)
C14 C 0.2804(2) 0.6376(2) 0.2605(3)
C15 C 0.2832(3) 0.5451(3) 0.3485(3)
H10 H 0.2816 0.5717 0.3878
O7 O 0.2695(2) 0.67792(16) 0.30786(19)
O8 O 0.28515(18) 0.65015(16) 0.19635(18)
Zn3 Zn 0.23521(2) 0.77151(2) 0.32169(2)
Zn5 Zn 0.26528(2) 0.74501(2) 0.17009(2)
O9 O 0.33158(15) 0.22142(19) 0.31802(19)
O10 O 0.35536(16) 0.24013(19) 0.20529(18)
O11 O 0.2305(2) 0.17792(16) 0.19214(19)
O12 O 0.21485(18) 0.15015(16) 0.30365(18)
N3 N 0.23048(18) 0.24026(18) 0.43704(16)
C16 C 0.2562(4) 0.3369(2) 0.9634(3)
H11 H 0.2141 0.3555 0.9516
H12 H 0.2898 0.3631 0.9411
C17 C 0.3208(3) 0.2407(4) 0.9625(3)
H13 H 0.3575 0.2671 0.9473
H14 H 0.3260 0.1973 0.9430
C18 C 0.2043(3) 0.2331(4) 0.9678(3)
H15 H 0.2080 0.1872 0.9556
H16 H 0.1637 0.2495 0.9487
N2 N 0.25974(18) 0.26952(18) 0.93704(16)
Zn7 Zn 0.25499(2) 0.26528(2) 0.82991(2)
S1 S 0.99872(6) 0.27727(6) 0.28011(6)
C3 C 0.9402(2) 0.2858(2) 0.2165(3)
C4 C 0.9671(3) 0.3000(3) 0.1534(3)
H1 H 0.9429 0.3061 0.1128
C12 C 0.8700(2) 0.2737(2) 0.2323(3)
O5 O 0.83158(15) 0.27858(19) 0.18198(19)
O6 O 0.85536(16) 0.25987(19) 0.29471(18)
Zn4 Zn 0.76479(2) 0.22849(2) 0.32169(2)
Zn6 Zn 0.73472(2) 0.25499(2) 0.17009(2)
S1_2 S 0.00128(6) 0.72273(6) 0.28011(6)
C3_2 C 0.0598(2) 0.7142(2) 0.2165(3)
C4_2 C 0.0329(3) 0.7000(3) 0.1534(3)
H1_2 H 0.0571 0.6939 0.1128
C12_2 C 0.1300(2) 0.7263(2) 0.2323(3)
O5_2 O 0.16842(15) 0.72142(19) 0.18198(19)
O6_2 O 0.14464(16) 0.74013(19) 0.29471(18)
Zn1_2 Zn 0.73521(2) 0.72849(2) 0.17831(2)
Zn2_2 Zn 0.76528(2) 0.75499(2) 0.32991(2)
N1_2 N 0.73556(18) 0.72799(18) 0.07144(17)
O1_2 O 0.73669(19) 0.65890(15) 0.31716(19)
O2_2 O 0.85739(16) 0.73033(19) 0.30141(17)
O3_2 O 0.83017(16) 0.69854(18) 0.19351(18)
C1_2 C 0.7204(2) 0.6212(2) 0.2688(3)
C2_2 C 0.9404(2) 0.7069(3) 0.2211(3)
O4_2 O 0.70968(18) 0.63666(17) 0.20628(19)
C5_2 C 0.8702(2) 0.7126(2) 0.2403(3)
C6_2 C 0.7343(4) 0.6611(2) 0.0429(3)
H2_2 H 0.6928 0.6407 0.0538
H3_2 H 0.7687 0.6353 0.0641
C7_2 C 0.7967(3) 0.7600(4) 0.0470(3)
H4_2 H 0.8341 0.7340 0.0609
H5_2 H 0.8007 0.8027 0.0683
C8_2 C 0.6796(3) 0.7634(3) 0.0425(3)
H6_2 H 0.6816 0.8089 0.0567
H7_2 H 0.6394 0.7450 0.0607
C9_2 C 0.9647(2) 0.6957(3) 0.1562(3)
H8_2 H 0.9388 0.6861 0.1176
S2_2 S 0.71076(6) 0.49334(6) 0.22212(6)
C10_2 C 0.7144(3) 0.5514(2) 0.2867(3)
C11_2 C 0.7168(3) 0.5235(3) 0.3513(3)
H9_2 H 0.7184 0.5472 0.3927
C13_2 C 0.7141(2) 0.4315(2) 0.2824(3)
C14_2 C 0.7196(2) 0.3624(2) 0.2605(3)
C15_2 C 0.7168(3) 0.4549(3) 0.3485(3)
H10_2 H 0.7184 0.4283 0.3878
O7_2 O 0.7305(2) 0.32208(16) 0.30786(19)
O8_2 O 0.71485(18) 0.34985(16) 0.19635(18)
O9_2 O 0.66842(15) 0.77858(19) 0.31802(19)
O10_2 O 0.64464(16) 0.75987(19) 0.20529(18)
O11_2 O 0.7695(2) 0.82208(16) 0.19214(19)
O12_2 O 0.78515(18) 0.84985(16) 0.30365(18)
N3_2 N 0.76952(18) 0.75974(18) 0.43704(16)
C16_2 C 0.7438(4) 0.6631(2) 0.9634(3)
H11_2 H 0.7859 0.6445 0.9516
H12_2 H 0.7102 0.6369 0.9411
C17_2 C 0.6792(3) 0.7593(4) 0.9625(3)
H13_2 H 0.6425 0.7329 0.9473
H14_2 H 0.6740 0.8027 0.9430
C18_2 C 0.7957(3) 0.7669(4) 0.9678(3)
H15_2 H 0.7920 0.8128 0.9556
H16_2 H 0.8363 0.7505 0.9487
N2_2 N 0.74026(18) 0.73048(18) 0.93704(16)
Zn7_2 Zn 0.74501(2) 0.73472(2) 0.82991(2)
S1_3 S 0.27727(6) 0.00128(6) 0.71989(6)
C3_3 C 0.2858(2) 0.0598(2) 0.7835(3)
C4_3 C 0.3000(3) 0.0329(3) 0.8466(3)
H1_3 H 0.3061 0.0571 0.8872
C12_3 C 0.2737(2) 0.1300(2) 0.7677(3)
O5_3 O 0.27858(19) 0.16842(15) 0.81802(19)
O6_3 O 0.25987(19) 0.14464(16) 0.70529(18)
Zn4_2 Zn 0.22849(2) 0.23521(2) 0.67831(2)
C16_3 C 0.3369(2) 0.7438(4) 0.0366(3)
H11_3 H 0.3555 0.7859 0.0484
H12_3 H 0.3631 0.7102 0.0589
C17_3 C 0.2407(4) 0.6792(3) 0.0375(3)
H13_3 H 0.2671 0.6425 0.0527
H14_3 H 0.1973 0.6740 0.0570
C18_3 C 0.2331(4) 0.7957(3) 0.0322(3)
H15_3 H 0.1872 0.7920 0.0444
H16_3 H 0.2495 0.8363 0.0513
N2_3 N 0.26952(18) 0.74026(18) 0.06296(16)
Zn1_3 Zn 0.27151(2) 0.73521(2) 0.82169(2)
Zn2_3 Zn 0.24501(2) 0.76528(2) 0.67009(2)
N1_3 N 0.27201(18) 0.73556(18) 0.92856(17)
O1_3 O 0.34110(15) 0.73669(19) 0.68284(19)
O2_3 O 0.26967(19) 0.85739(16) 0.69859(17)
O3_3 O 0.30146(18) 0.83017(16) 0.80649(18)
C1_3 C 0.3788(2) 0.7204(2) 0.7312(3)
C2_3 C 0.2931(3) 0.9404(2) 0.7789(3)
O4_3 O 0.36334(17) 0.70968(18) 0.79372(19)
C5_3 C 0.2874(2) 0.8702(2) 0.7597(3)
C6_3 C 0.3389(2) 0.7343(4) 0.9571(3)
H2_3 H 0.3593 0.6928 0.9462
H3_3 H 0.3647 0.7687 0.9359
C7_3 C 0.2400(4) 0.7967(3) 0.9530(3)
H4_3 H 0.2660 0.8341 0.9391
H5_3 H 0.1973 0.8007 0.9317
C8_3 C 0.2366(3) 0.6796(3) 0.9575(3)
H6_3 H 0.1911 0.6816 0.9433
H7_3 H 0.2550 0.6394 0.9393
C9_3 C 0.3043(3) 0.9647(2) 0.8438(3)
H8_3 H 0.3139 0.9388 0.8824
S2_3 S 0.50666(6) 0.71076(6) 0.77788(6)
C10_3 C 0.4486(2) 0.7144(3) 0.7133(3)
C11_3 C 0.4765(3) 0.7168(3) 0.6487(3)
H9_3 H 0.4528 0.7184 0.6073
C13_3 C 0.5685(2) 0.7141(2) 0.7176(3)
C14_3 C 0.6376(2) 0.7196(2) 0.7395(3)
C15_3 C 0.5451(3) 0.7168(3) 0.6515(3)
H10_3 H 0.5717 0.7184 0.6122
O7_3 O 0.67792(16) 0.7305(2) 0.69214(19)
O8_3 O 0.65015(16) 0.71485(18) 0.80365(18)
Zn3_2 Zn 0.77151(2) 0.76479(2) 0.67831(2)
O9_3 O 0.22142(19) 0.66842(15) 0.68198(19)
O10_3 O 0.24013(19) 0.64464(16) 0.79471(18)
O11_3 O 0.17792(16) 0.7695(2) 0.80786(19)
O12_3 O 0.15015(16) 0.78515(18) 0.69635(18)
N3_3 N 0.24026(18) 0.76952(18) 0.56296(16)
C16_4 C 0.6631(2) 0.2562(4) 0.0366(3)
H11_4 H 0.6445 0.2141 0.0484
H12_4 H 0.6369 0.2898 0.0589
C17_4 C 0.7593(4) 0.3208(3) 0.0375(3)
H13_4 H 0.7329 0.3575 0.0527
H14_4 H 0.8027 0.3260 0.0570
C18_4 C 0.7669(4) 0.2043(3) 0.0322(3)
H15_4 H 0.8128 0.2080 0.0444
H16_4 H 0.7505 0.1637 0.0513
N2_4 N 0.73048(18) 0.25974(18) 0.06296(16)
Zn1_4 Zn 0.72849(2) 0.26479(2) 0.82169(2)
Zn2_4 Zn 0.75499(2) 0.23472(2) 0.67009(2)
N1_4 N 0.72799(18) 0.26444(18) 0.92856(17)
O1_4 O 0.65890(15) 0.26331(19) 0.68284(19)
O2_4 O 0.73033(19) 0.14261(16) 0.69859(17)
O3_4 O 0.69854(18) 0.16983(16) 0.80649(18)
C1_4 C 0.6212(2) 0.2796(2) 0.7312(3)
C2_4 C 0.7069(3) 0.0596(2) 0.7789(3)
O4_4 O 0.63666(17) 0.29032(18) 0.79372(19)
C5_4 C 0.7126(2) 0.1298(2) 0.7597(3)
C6_4 C 0.6611(2) 0.2657(4) 0.9571(3)
H2_4 H 0.6407 0.3072 0.9462
H3_4 H 0.6353 0.2313 0.9359
C7_4 C 0.7600(4) 0.2033(3) 0.9530(3)
H4_4 H 0.7340 0.1659 0.9391
H5_4 H 0.8027 0.1993 0.9317
C8_4 C 0.7634(3) 0.3204(3) 0.9575(3)
H6_4 H 0.8089 0.3184 0.9433
H7_4 H 0.7450 0.3606 0.9393
C9_4 C 0.6957(3) 0.0353(2) 0.8438(3)
H8_4 H 0.6861 0.0612 0.8824
S2_4 S 0.49334(6) 0.28924(6) 0.77788(6)
C10_4 C 0.5514(2) 0.2856(3) 0.7133(3)
C11_4 C 0.5235(3) 0.2832(3) 0.6487(3)
H9_4 H 0.5472 0.2816 0.6073
C13_4 C 0.4315(2) 0.2859(2) 0.7176(3)
C14_4 C 0.3624(2) 0.2804(2) 0.7395(3)
C15_4 C 0.4549(3) 0.2832(3) 0.6515(3)
H10_4 H 0.4283 0.2816 0.6122
O7_4 O 0.32208(16) 0.2695(2) 0.69214(19)
O8_4 O 0.34985(16) 0.28515(18) 0.80365(18)
O9_4 O 0.77858(19) 0.33158(15) 0.68198(19)
O10_4 O 0.75987(19) 0.35536(16) 0.79471(18)
O11_4 O 0.82208(16) 0.2305(2) 0.80786(19)
O12_4 O 0.84985(16) 0.21485(18) 0.69635(18)
N3_4 N 0.75974(18) 0.23048(18) 0.56296(16)
S1_4 S 0.72273(6) 0.99872(6) 0.71989(6)
C3_4 C 0.7142(2) 0.9402(2) 0.7835(3)
C4_4 C 0.7000(3) 0.9671(3) 0.8466(3)
H1_4 H 0.6939 0.9429 0.8872
C12_4 C 0.7263(2) 0.8700(2) 0.7677(3)
O5_4 O 0.72142(19) 0.83158(15) 0.81802(19)
O6_4 O 0.74013(19) 0.85536(16) 0.70529(18)
S2_5 S 0.21076(6) 0.00666(6) 0.27788(6)
C13_5 C 0.2141(2) 0.0685(2) 0.2176(3)
C14_5 C 0.2196(2) 0.1376(2) 0.2395(3)
C15_5 C 0.2168(3) 0.0451(3) 0.1515(3)
H10_5 H 0.2184 0.0717 0.1122
S1_5 S 0.50128(6) 0.77727(6) 0.21989(6)
N1_5 N 0.23556(18) 0.77201(18) 0.42856(17)
O1_5 O 0.23669(19) 0.84110(15) 0.18284(19)
O2_5 O 0.35739(16) 0.76967(19) 0.19859(17)
O3_5 O 0.33017(16) 0.80146(18) 0.30649(18)
C1_5 C 0.2204(2) 0.8788(2) 0.2312(3)
C2_5 C 0.4404(2) 0.7931(3) 0.2789(3)
O4_5 O 0.20968(18) 0.86334(17) 0.29372(19)
C3_5 C 0.5598(2) 0.7858(2) 0.2835(3)
C4_5 C 0.5329(3) 0.8000(3) 0.3466(3)
H1_5 H 0.5571 0.8061 0.3872
C5_5 C 0.3702(2) 0.7874(2) 0.2597(3)
C6_5 C 0.2343(4) 0.8389(2) 0.4571(3)
H2_5 H 0.1928 0.8593 0.4462
H3_5 H 0.2687 0.8647 0.4359
C7_5 C 0.2967(3) 0.7400(4) 0.4530(3)
H4_5 H 0.3341 0.7660 0.4391
H5_5 H 0.3007 0.6973 0.4317
C8_5 C 0.1796(3) 0.7366(3) 0.4575(3)
H6_5 H 0.1816 0.6911 0.4433
H7_5 H 0.1394 0.7550 0.4393
C9_5 C 0.4647(2) 0.8043(3) 0.3438(3)
H8_5 H 0.4388 0.8139 0.3824
C10_5 C 0.2144(3) 0.9486(2) 0.2133(3)
C11_5 C 0.2168(3) 0.9765(3) 0.1487(3)
H9_5 H 0.2184 0.9528 0.1073
C12_5 C 0.6300(2) 0.7737(2) 0.2677(3)
C16_5 C 0.2438(4) 0.8369(2) 0.5366(3)
H11_5 H 0.2859 0.8555 0.5484
H12_5 H 0.2102 0.8631 0.5589
C17_5 C 0.1792(3) 0.7407(4) 0.5375(3)
H13_5 H 0.1425 0.7671 0.5527
H14_5 H 0.1740 0.6973 0.5570
C18_5 C 0.2957(3) 0.7331(4) 0.5322(3)
H15_5 H 0.2920 0.6872 0.5444
H16_5 H 0.3363 0.7495 0.5513
S1_6 S 0.49872(6) 0.22273(6) 0.21989(6)
N1_6 N 0.76444(18) 0.22799(18) 0.42856(17)
O1_6 O 0.76331(19) 0.15890(15) 0.18284(19)
O2_6 O 0.64261(16) 0.23033(19) 0.19859(17)
O3_6 O 0.66983(16) 0.19854(18) 0.30649(18)
C1_6 C 0.7796(2) 0.1212(2) 0.2312(3)
C2_6 C 0.5596(2) 0.2069(3) 0.2789(3)
O4_6 O 0.79032(18) 0.13666(17) 0.29372(19)
C3_6 C 0.4402(2) 0.2142(2) 0.2835(3)
C4_6 C 0.4671(3) 0.2000(3) 0.3466(3)
H1_6 H 0.4429 0.1939 0.3872
C5_6 C 0.6298(2) 0.2126(2) 0.2597(3)
C6_6 C 0.7657(4) 0.1611(2) 0.4571(3)
H2_6 H 0.8072 0.1407 0.4462
H3_6 H 0.7313 0.1353 0.4359
C7_6 C 0.7033(3) 0.2600(4) 0.4530(3)
H4_6 H 0.6659 0.2340 0.4391
H5_6 H 0.6993 0.3027 0.4317
C8_6 C 0.8204(3) 0.2634(3) 0.4575(3)
H6_6 H 0.8184 0.3089 0.4433
H7_6 H 0.8606 0.2450 0.4393
C9_6 C 0.5353(2) 0.1957(3) 0.3438(3)
H8_6 H 0.5612 0.1861 0.3824
C10_6 C 0.7856(3) 0.0514(2) 0.2133(3)
C11_6 C 0.7832(3) 0.0235(3) 0.1487(3)
H9_6 H 0.7816 0.0472 0.1073
C12_6 C 0.3700(2) 0.2263(2) 0.2677(3)
C16_6 C 0.7562(4) 0.1631(2) 0.5366(3)
H11_6 H 0.7141 0.1445 0.5484
H12_6 H 0.7898 0.1369 0.5589
C17_6 C 0.8208(3) 0.2593(4) 0.5375(3)
H13_6 H 0.8575 0.2329 0.5527
H14_6 H 0.8260 0.3027 0.5570
C18_6 C 0.7043(3) 0.2669(4) 0.5322(3)
H15_6 H 0.7080 0.3128 0.5444
H16_6 H 0.6637 0.2505 0.5513
S2_6 S 0.78924(6) 0.99334(6) 0.27788(6)
C13_6 C 0.7859(2) 0.9315(2) 0.2176(3)
C14_6 C 0.7804(2) 0.8624(2) 0.2395(3)
C15_6 C 0.7832(3) 0.9549(3) 0.1515(3)
H10_6 H 0.7816 0.9283 0.1122
S1_7 S 0.22273(6) 0.50128(6) 0.78011(6)
N1_7 N 0.22799(18) 0.23556(18) 0.57144(17)
O1_7 O 0.15890(15) 0.23669(19) 0.81716(19)
O2_7 O 0.23033(19) 0.35739(16) 0.80141(17)
O3_7 O 0.19854(18) 0.33017(16) 0.69351(18)
C1_7 C 0.1212(2) 0.2204(2) 0.7688(3)
C2_7 C 0.2069(3) 0.4404(2) 0.7211(3)
O4_7 O 0.13666(17) 0.20968(18) 0.70628(19)
C3_7 C 0.2142(2) 0.5598(2) 0.7165(3)
C4_7 C 0.2000(3) 0.5329(3) 0.6534(3)
H1_7 H 0.1939 0.5571 0.6128
C5_7 C 0.2126(2) 0.3702(2) 0.7403(3)
C6_7 C 0.1611(2) 0.2343(4) 0.5429(3)
H2_7 H 0.1407 0.1928 0.5538
H3_7 H 0.1353 0.2687 0.5641
C7_7 C 0.2600(4) 0.2967(3) 0.5470(3)
H4_7 H 0.2340 0.3341 0.5609
H5_7 H 0.3027 0.3007 0.5683
C8_7 C 0.2634(3) 0.1796(3) 0.5425(3)
H6_7 H 0.3089 0.1816 0.5567
H7_7 H 0.2450 0.1394 0.5607
C9_7 C 0.1957(3) 0.4647(2) 0.6562(3)
H8_7 H 0.1861 0.4388 0.6176
C10_7 C 0.0514(2) 0.2144(3) 0.7867(3)
C11_7 C 0.0235(3) 0.2168(3) 0.8513(3)
H9_7 H 0.0472 0.2184 0.8927
C12_7 C 0.2263(2) 0.6300(2) 0.7323(3)
C16_7 C 0.1631(2) 0.2438(4) 0.4634(3)
H11_7 H 0.1445 0.2859 0.4516
H12_7 H 0.1369 0.2102 0.4411
C17_7 C 0.2593(4) 0.1792(3) 0.4625(3)
H13_7 H 0.2329 0.1425 0.4473
H14_7 H 0.3027 0.1740 0.4430
C18_7 C 0.2669(4) 0.2957(3) 0.4678(3)
H15_7 H 0.3128 0.2920 0.4556
H16_7 H 0.2505 0.3363 0.4487
S2_7 S 0.99334(6) 0.21076(6) 0.72212(6)
C13_7 C 0.9315(2) 0.2141(2) 0.7824(3)
C14_7 C 0.8624(2) 0.2196(2) 0.7605(3)
C15_7 C 0.9549(3) 0.2168(3) 0.8485(3)
H10_7 H 0.9283 0.2184 0.8878
S2_8 S 0.00666(6) 0.78924(6) 0.72212(6)
C13_8 C 0.0685(2) 0.7859(2) 0.7824(3)
C14_8 C 0.1376(2) 0.7804(2) 0.7605(3)
C15_8 C 0.0451(3) 0.7832(3) 0.8485(3)
H10_8 H 0.0717 0.7816 0.8878
S1_8 S 0.77727(6) 0.49872(6) 0.78011(6)
N1_8 N 0.77201(18) 0.76444(18) 0.57144(17)
O1_8 O 0.84110(15) 0.76331(19) 0.81716(19)
O2_8 O 0.76967(19) 0.64261(16) 0.80141(17)
O3_8 O 0.80146(18) 0.66983(16) 0.69351(18)
C1_8 C 0.8788(2) 0.7796(2) 0.7688(3)
C2_8 C 0.7931(3) 0.5596(2) 0.7211(3)
O4_8 O 0.86334(17) 0.79032(18) 0.70628(19)
C3_8 C 0.7858(2) 0.4402(2) 0.7165(3)
C4_8 C 0.8000(3) 0.4671(3) 0.6534(3)
H1_8 H 0.8061 0.4429 0.6128
C5_8 C 0.7874(2) 0.6298(2) 0.7403(3)
C6_8 C 0.8389(2) 0.7657(4) 0.5429(3)
H2_8 H 0.8593 0.8072 0.5538
H3_8 H 0.8647 0.7313 0.5641
C7_8 C 0.7400(4) 0.7033(3) 0.5470(3)
H4_8 H 0.7660 0.6659 0.5609
H5_8 H 0.6973 0.6993 0.5683
C8_8 C 0.7366(3) 0.8204(3) 0.5425(3)
H6_8 H 0.6911 0.8184 0.5567
H7_8 H 0.7550 0.8606 0.5607
C9_8 C 0.8043(3) 0.5353(2) 0.6562(3)
H8_8 H 0.8139 0.5612 0.6176
C10_8 C 0.9486(2) 0.7856(3) 0.7867(3)
C11_8 C 0.9765(3) 0.7832(3) 0.8513(3)
H9_8 H 0.9528 0.7816 0.8927
C12_8 C 0.7737(2) 0.3700(2) 0.7323(3)
C16_8 C 0.8369(2) 0.7562(4) 0.4634(3)
H11_8 H 0.8555 0.7141 0.4516
H12_8 H 0.8631 0.7898 0.4411
C17_8 C 0.7407(4) 0.8208(3) 0.4625(3)
H13_8 H 0.7671 0.8575 0.4473
H14_8 H 0.6973 0.8260 0.4430
C18_8 C 0.7331(4) 0.7043(3) 0.4678(3)
H15_8 H 0.6872 0.7080 0.4556
H16_8 H 0.7495 0.6637 0.4487
loop_
_geom_bond_atom_site_label_1
_geom_bond_atom_site_label_2
_geom_bond_site_symmetry_1
_geom_bond_site_symmetry_2
Zn1 N1 1_555 1_555
Zn2 O1 1_555 1_555
N1 C6 1_555 1_555
O1 C1 1_555 1_555
O2 Zn2 1_555 1_555
O3 Zn1 1_555 1_555
C1 O4 1_555 1_555
C2 C5 1_555 1_555
O4 Zn1 1_555 1_555
C5 O2 1_555 1_555
C6 H2 1_555 1_555
H3 C6 1_555 1_555
C7 N1 1_555 1_555
H4 C7 1_555 1_555
H5 C7 1_555 1_555
C8 N1 1_555 1_555
H6 C8 1_555 1_555
H7 C8 1_555 1_555
C9 C2 1_555 1_555
H8 C9 1_555 1_555
S2 C10 1_555 1_555
C10 C1 1_555 1_555
C11 C10 1_555 1_555
H9 C11 1_555 1_555
C13 S2 1_555 1_555
C14 C13 1_555 1_555
C15 C11 1_555 1_555
H10 C15 1_555 1_555
O7 C14 1_555 1_555
O8 C14 1_555 1_555
Zn3 O7 1_555 1_555
Zn5 O8 1_555 1_555
O9 Zn2 1_555 1_555
O10 Zn1 1_555 1_555
O11 Zn1 1_555 1_555
O12 Zn2 1_555 1_555
N3 Zn2 1_555 1_555
O3 C5 1_555 1_555
C13 C15 1_555 1_555
H11 C16 1_555 1_555
H12 C16 1_555 1_555
H13 C17 1_555 1_555
H14 C17 1_555 1_555
H15 C18 1_555 1_555
H16 C18 1_555 1_555
N2 C16 1_555 1_555
Zn7 N2 1_555 1_555
C17 N2 1_555 1_555
C18 N2 1_555 1_555
C3 S1 1_555 1_555
C4 C3 1_555 1_555
H1 C4 1_555 1_555
C12 C3 1_555 1_555
O5 C12 1_555 1_555
O6 C12 1_555 1_555
Zn4 O6 1_555 1_555
Zn6 O5 1_555 1_555
C3_2 S1_2 1_555 1_555
C4_2 C3_2 1_555 1_555
H1_2 C4_2 1_555 1_555
C12_2 C3_2 1_555 1_555
O5_2 C12_2 1_555 1_555
O6_2 C12_2 1_555 1_555
Zn3 O6_2 1_555 1_555
Zn5 O5_2 1_555 1_555
Zn1_2 N1_2 1_555 1_555
Zn2_2 O1_2 1_555 1_555
N1_2 C6_2 1_555 1_555
O1_2 C1_2 1_555 1_555
O2_2 Zn2_2 1_555 1_555
O3_2 Zn1_2 1_555 1_555
C1_2 O4_2 1_555 1_555
C2_2 C5_2 1_555 1_555
O4_2 Zn1_2 1_555 1_555
C5_2 O2_2 1_555 1_555
C6_2 H2_2 1_555 1_555
H3_2 C6_2 1_555 1_555
C7_2 N1_2 1_555 1_555
H4_2 C7_2 1_555 1_555
H5_2 C7_2 1_555 1_555
C8_2 N1_2 1_555 1_555
H6_2 C8_2 1_555 1_555
H7_2 C8_2 1_555 1_555
C9_2 C2_2 1_555 1_555
H8_2 C9_2 1_555 1_555
S2_2 C10_2 1_555 1_555
C10_2 C1_2 1_555 1_555
C11_2 C10_2 1_555 1_555
H9_2 C11_2 1_555 1_555
C13_2 S2_2 1_555 1_555
C14_2 C13_2 1_555 1_555
C15_2 C11_2 1_555 1_555
H10_2 C15_2 1_555 1_555
O7_2 C14_2 1_555 1_555
O8_2 C14_2 1_555 1_555
Zn4 O7_2 1_555 1_555
Zn6 O8_2 1_555 1_555
O9_2 Zn2_2 1_555 1_555
O10_2 Zn1_2 1_555 1_555
O11_2 Zn1_2 1_555 1_555
O12_2 Zn2_2 1_555 1_555
N3_2 Zn2_2 1_555 1_555
O3_2 C5_2 1_555 1_555
C13_2 C15_2 1_555 1_555
H11_2 C16_2 1_555 1_555
H12_2 C16_2 1_555 1_555
H13_2 C17_2 1_555 1_555
H14_2 C17_2 1_555 1_555
H15_2 C18_2 1_555 1_555
H16_2 C18_2 1_555 1_555
N2_2 C16_2 1_555 1_555
Zn7_2 N2_2 1_555 1_555
C17_2 N2_2 1_555 1_555
C18_2 N2_2 1_555 1_555
C3_3 S1_3 1_555 1_555
C4_3 C3_3 1_555 1_555
H1_3 C4_3 1_555 1_555
C12_3 C3_3 1_555 1_555
O5_3 C12_3 1_555 1_555
O6_3 C12_3 1_555 1_555
Zn4_2 O6_3 1_555 1_555
Zn7 O5_3 1_555 1_555
H11_3 C16_3 1_555 1_555
H12_3 C16_3 1_555 1_555
H13_3 C17_3 1_555 1_555
H14_3 C17_3 1_555 1_555
H15_3 C18_3 1_555 1_555
H16_3 C18_3 1_555 1_555
N2_3 C16_3 1_555 1_555
Zn5 N2_3 1_555 1_555
C17_3 N2_3 1_555 1_555
C18_3 N2_3 1_555 1_555
Zn1_3 N1_3 1_555 1_555
Zn2_3 O1_3 1_555 1_555
N1_3 C6_3 1_555 1_555
O1_3 C1_3 1_555 1_555
O2_3 Zn2_3 1_555 1_555
O3_3 Zn1_3 1_555 1_555
C1_3 O4_3 1_555 1_555
C2_3 C5_3 1_555 1_555
O4_3 Zn1_3 1_555 1_555
C5_3 O2_3 1_555 1_555
C6_3 H2_3 1_555 1_555
H3_3 C6_3 1_555 1_555
C7_3 N1_3 1_555 1_555
H4_3 C7_3 1_555 1_555
H5_3 C7_3 1_555 1_555
C8_3 N1_3 1_555 1_555
H6_3 C8_3 1_555 1_555
H7_3 C8_3 1_555 1_555
C9_3 C2_3 1_555 1_555
H8_3 C9_3 1_555 1_555
S2_3 C10_3 1_555 1_555
C10_3 C1_3 1_555 1_555
C11_3 C10_3 1_555 1_555
H9_3 C11_3 1_555 1_555
C13_3 S2_3 1_555 1_555
C14_3 C13_3 1_555 1_555
C15_3 C11_3 1_555 1_555
H10_3 C15_3 1_555 1_555
O7_3 C14_3 1_555 1_555
O8_3 C14_3 1_555 1_555
Zn3_2 O7_3 1_555 1_555
Zn7_2 O8_3 1_555 1_555
O9_3 Zn2_3 1_555 1_555
O10_3 Zn1_3 1_555 1_555
O11_3 Zn1_3 1_555 1_555
O12_3 Zn2_3 1_555 1_555
N3_3 Zn2_3 1_555 1_555
O3_3 C5_3 1_555 1_555
C13_3 C15_3 1_555 1_555
H11_4 C16_4 1_555 1_555
H12_4 C16_4 1_555 1_555
H13_4 C17_4 1_555 1_555
H14_4 C17_4 1_555 1_555
H15_4 C18_4 1_555 1_555
H16_4 C18_4 1_555 1_555
N2_4 C16_4 1_555 1_555
Zn6 N2_4 1_555 1_555
C17_4 N2_4 1_555 1_555
C18_4 N2_4 1_555 1_555
Zn1_4 N1_4 1_555 1_555
Zn2_4 O1_4 1_555 1_555
N1_4 C6_4 1_555 1_555
O1_4 C1_4 1_555 1_555
O2_4 Zn2_4 1_555 1_555
O3_4 Zn1_4 1_555 1_555
C1_4 O4_4 1_555 1_555
C2_4 C5_4 1_555 1_555
O4_4 Zn1_4 1_555 1_555
C5_4 O2_4 1_555 1_555
C6_4 H2_4 1_555 1_555
H3_4 C6_4 1_555 1_555
C7_4 N1_4 1_555 1_555
H4_4 C7_4 1_555 1_555
H5_4 C7_4 1_555 1_555
C8_4 N1_4 1_555 1_555
H6_4 C8_4 1_555 1_555
H7_4 C8_4 1_555 1_555
C9_4 C2_4 1_555 1_555
H8_4 C9_4 1_555 1_555
S2_4 C10_4 1_555 1_555
C10_4 C1_4 1_555 1_555
C11_4 C10_4 1_555 1_555
H9_4 C11_4 1_555 1_555
C13_4 S2_4 1_555 1_555
C14_4 C13_4 1_555 1_555
C15_4 C11_4 1_555 1_555
H10_4 C15_4 1_555 1_555
O7_4 C14_4 1_555 1_555
O8_4 C14_4 1_555 1_555
Zn4_2 O7_4 1_555 1_555
Zn7 O8_4 1_555 1_555
O9_4 Zn2_4 1_555 1_555
O10_4 Zn1_4 1_555 1_555
O11_4 Zn1_4 1_555 1_555
O12_4 Zn2_4 1_555 1_555
N3_4 Zn2_4 1_555 1_555
O3_4 C5_4 1_555 1_555
C13_4 C15_4 1_555 1_555
C3_4 S1_4 1_555 1_555
C4_4 C3_4 1_555 1_555
H1_4 C4_4 1_555 1_555
C12_4 C3_4 1_555 1_555
O5_4 C12_4 1_555 1_555
O6_4 C12_4 1_555 1_555
Zn3_2 O6_4 1_555 1_555
Zn7_2 O5_4 1_555 1_555
C13_5 S2_5 1_555 1_555
C14_5 C13_5 1_555 1_555
H10_5 C15_5 1_555 1_555
O11 C14_5 1_555 1_555
O12 C14_5 1_555 1_555
C13_5 C15_5 1_555 1_555
Zn3 N1_5 1_555 1_555
Zn5 O1_5 1_555 1_555
S1_5 C2_5 1_555 1_555
N1_5 C6_5 1_555 1_555
O1_5 C1_5 1_555 1_555
O2_5 Zn5 1_555 1_555
O3_5 Zn3 1_555 1_555
C1_5 O4_5 1_555 1_555
C2_5 C5_5 1_555 1_555
O4_5 Zn3 1_555 1_555
C3_5 S1_5 1_555 1_555
C4_5 C3_5 1_555 1_555
H1_5 C4_5 1_555 1_555
C5_5 O2_5 1_555 1_555
C6_5 H2_5 1_555 1_555
H3_5 C6_5 1_555 1_555
C7_5 N1_5 1_555 1_555
H4_5 C7_5 1_555 1_555
H5_5 C7_5 1_555 1_555
C8_5 N1_5 1_555 1_555
H6_5 C8_5 1_555 1_555
H7_5 C8_5 1_555 1_555
C9_5 C2_5 1_555 1_555
H8_5 C9_5 1_555 1_555
C10_5 C1_5 1_555 1_555
C11_5 C10_5 1_555 1_555
H9_5 C11_5 1_555 1_555
C12_5 C3_5 1_555 1_555
O9_2 C12_5 1_555 1_555
O10_2 C12_5 1_555 1_555
C16_5 C6_5 1_555 1_555
H11_5 C16_5 1_555 1_555
H12_5 C16_5 1_555 1_555
C17_5 C8_5 1_555 1_555
H13_5 C17_5 1_555 1_555
H14_5 C17_5 1_555 1_555
C18_5 C7_5 1_555 1_555
H15_5 C18_5 1_555 1_555
H16_5 C18_5 1_555 1_555
N3_3 C16_5 1_555 1_555
O3_5 C5_5 1_555 1_555
C4_5 C9_5 1_555 1_555
C17_5 N3_3 1_555 1_555
C18_5 N3_3 1_555 1_555
Zn4 N1_6 1_555 1_555
Zn6 O1_6 1_555 1_555
S1_6 C2_6 1_555 1_555
N1_6 C6_6 1_555 1_555
O1_6 C1_6 1_555 1_555
O2_6 Zn6 1_555 1_555
O3_6 Zn4 1_555 1_555
C1_6 O4_6 1_555 1_555
C2_6 C5_6 1_555 1_555
O4_6 Zn4 1_555 1_555
C3_6 S1_6 1_555 1_555
C4_6 C3_6 1_555 1_555
H1_6 C4_6 1_555 1_555
C5_6 O2_6 1_555 1_555
C6_6 H2_6 1_555 1_555
H3_6 C6_6 1_555 1_555
C7_6 N1_6 1_555 1_555
H4_6 C7_6 1_555 1_555
H5_6 C7_6 1_555 1_555
C8_6 N1_6 1_555 1_555
H6_6 C8_6 1_555 1_555
H7_6 C8_6 1_555 1_555
C9_6 C2_6 1_555 1_555
H8_6 C9_6 1_555 1_555
C10_6 C1_6 1_555 1_555
C11_6 C10_6 1_555 1_555
H9_6 C11_6 1_555 1_555
C12_6 C3_6 1_555 1_555
O9 C12_6 1_555 1_555
O10 C12_6 1_555 1_555
C16_6 C6_6 1_555 1_555
H11_6 C16_6 1_555 1_555
H12_6 C16_6 1_555 1_555
C17_6 C8_6 1_555 1_555
H13_6 C17_6 1_555 1_555
H14_6 C17_6 1_555 1_555
C18_6 C7_6 1_555 1_555
H15_6 C18_6 1_555 1_555
H16_6 C18_6 1_555 1_555
N3_4 C16_6 1_555 1_555
O3_6 C5_6 1_555 1_555
C4_6 C9_6 1_555 1_555
C17_6 N3_4 1_555 1_555
C18_6 N3_4 1_555 1_555
C13_6 S2_6 1_555 1_555
C14_6 C13_6 1_555 1_555
H10_6 C15_6 1_555 1_555
O11_2 C14_6 1_555 1_555
O12_2 C14_6 1_555 1_555
C13_6 C15_6 1_555 1_555
Zn4_2 N1_7 1_555 1_555
Zn7 O1_7 1_555 1_555
S1_7 C2_7 1_555 1_555
N1_7 C6_7 1_555 1_555
O1_7 C1_7 1_555 1_555
O2_7 Zn7 1_555 1_555
O3_7 Zn4_2 1_555 1_555
C1_7 O4_7 1_555 1_555
C2_7 C5_7 1_555 1_555
O4_7 Zn4_2 1_555 1_555
C3_7 S1_7 1_555 1_555
C4_7 C3_7 1_555 1_555
H1_7 C4_7 1_555 1_555
C5_7 O2_7 1_555 1_555
C6_7 H2_7 1_555 1_555
H3_7 C6_7 1_555 1_555
C7_7 N1_7 1_555 1_555
H4_7 C7_7 1_555 1_555
H5_7 C7_7 1_555 1_555
C8_7 N1_7 1_555 1_555
H6_7 C8_7 1_555 1_555
H7_7 C8_7 1_555 1_555
C9_7 C2_7 1_555 1_555
H8_7 C9_7 1_555 1_555
C10_7 C1_7 1_555 1_555
C11_7 C10_7 1_555 1_555
H9_7 C11_7 1_555 1_555
C12_7 C3_7 1_555 1_555
O9_3 C12_7 1_555 1_555
O10_3 C12_7 1_555 1_555
C16_7 C6_7 1_555 1_555
H11_7 C16_7 1_555 1_555
H12_7 C16_7 1_555 1_555
C17_7 C8_7 1_555 1_555
H13_7 C17_7 1_555 1_555
H14_7 C17_7 1_555 1_555
C18_7 C7_7 1_555 1_555
H15_7 C18_7 1_555 1_555
H16_7 C18_7 1_555 1_555
N3 C16_7 1_555 1_555
O3_7 C5_7 1_555 1_555
C4_7 C9_7 1_555 1_555
C17_7 N3 1_555 1_555
C18_7 N3 1_555 1_555
C13_7 S2_7 1_555 1_555
C14_7 C13_7 1_555 1_555
H10_7 C15_7 1_555 1_555
O11_4 C14_7 1_555 1_555
O12_4 C14_7 1_555 1_555
C13_7 C15_7 1_555 1_555
C13_8 S2_8 1_555 1_555
C14_8 C13_8 1_555 1_555
H10_8 C15_8 1_555 1_555
O11_3 C14_8 1_555 1_555
O12_3 C14_8 1_555 1_555
C13_8 C15_8 1_555 1_555
Zn3_2 N1_8 1_555 1_555
Zn7_2 O1_8 1_555 1_555
S1_8 C2_8 1_555 1_555
N1_8 C6_8 1_555 1_555
O1_8 C1_8 1_555 1_555
O2_8 Zn7_2 1_555 1_555
O3_8 Zn3_2 1_555 1_555
C1_8 O4_8 1_555 1_555
C2_8 C5_8 1_555 1_555
O4_8 Zn3_2 1_555 1_555
C3_8 S1_8 1_555 1_555
C4_8 C3_8 1_555 1_555
H1_8 C4_8 1_555 1_555
C5_8 O2_8 1_555 1_555
C6_8 H2_8 1_555 1_555
H3_8 C6_8 1_555 1_555
C7_8 N1_8 1_555 1_555
H4_8 C7_8 1_555 1_555
H5_8 C7_8 1_555 1_555
C8_8 N1_8 1_555 1_555
H6_8 C8_8 1_555 1_555
H7_8 C8_8 1_555 1_555
C9_8 C2_8 1_555 1_555
H8_8 C9_8 1_555 1_555
C10_8 C1_8 1_555 1_555
C11_8 C10_8 1_555 1_555
H9_8 C11_8 1_555 1_555
C12_8 C3_8 1_555 1_555
O9_4 C12_8 1_555 1_555
O10_4 C12_8 1_555 1_555
C16_8 C6_8 1_555 1_555
H11_8 C16_8 1_555 1_555
H12_8 C16_8 1_555 1_555
C17_8 C8_8 1_555 1_555
H13_8 C17_8 1_555 1_555
H14_8 C17_8 1_555 1_555
C18_8 C7_8 1_555 1_555
H15_8 C18_8 1_555 1_555
H16_8 C18_8 1_555 1_555
N3_2 C16_8 1_555 1_555
O3_8 C5_8 1_555 1_555
C4_8 C9_8 1_555 1_555
C17_8 N3_2 1_555 1_555
C18_8 N3_2 1_555 1_555

#END
