
###############################################################################
#
# This file contains modified crystal structure data generated from the
# MOF subset of the Cambridge Structural Database (CSD) v543 
# hosted by the Cambridge Crystallographic Data Centre (CCDC).
#
# This work is licensed under the Creative Commons
# Attribution-NonCommercial-ShareAlike 4.0 International License.
# To view a copy of this license, visit
# http://creativecommons.org/licenses/by-nc-sa/4.0/
# or send a letter to
# Creative Commons, PO Box 1866, Mountain View, CA 94042, USA.
#
# CIF created using the CSD Python API on 29 September 2022
# The structure has been converted into the P1 space group
# The structure has a 3D framework
# The original CSD entry NEKREB is in the cubic crystal system
# The framework has been calculated to contain at least 10.0% void space
# The void calculation uses a probe of radius 1.32A, grid spacing 0.4
# The framework is charged, counterions have been retained in the structure
#
###############################################################################

data_NEKREB
_chemical_formula_moiety         '(C96 H72 N48 O24 Pd6 12-)n'
_symmetry_cell_setting           triclinic
_symmetry_space_group_name_H-M   'P 1'
_symmetry_Int_Tables_number      1
_space_group_name_Hall           'P 1'
loop_
_symmetry_equiv_pos_site_id
_symmetry_equiv_pos_as_xyz
1 x,y,z
_cell_length_a                   16.34168(95)
_cell_length_b                   16.34168(95)
_cell_length_c                   16.34168(95)
_cell_angle_alpha                90
_cell_angle_beta                 90
_cell_angle_gamma                90
_cell_volume                     4364.05
loop_
_atom_site_label
_atom_site_type_symbol
_atom_site_fract_x
_atom_site_fract_y
_atom_site_fract_z
Pd3 Pd 0.75000 0.00000 0.25000
Pd1 Pd 0.50000 0.75000 0.25000
N1 N 0.583570 0.685760 0.311710
C1 C 0.606380 0.708170 0.388410
C2 C 0.623380 0.623690 0.273130
C3 C 0.668450 0.668360 0.426990
O1 O 0.602700 0.603110 0.202420
H1 H 0.578660 0.751680 0.415190
H2 H 0.684090 0.684080 0.480730
N2 N 0.685760 0.583570 0.311710
C4 C 0.708170 0.606380 0.388410
H3 H 0.751680 0.578660 0.415190
N3 N 0.583570 0.814240 0.188290
C5 C 0.606380 0.791830 0.111590
C6 C 0.623380 0.876310 0.226870
C7 C 0.668450 0.831640 0.073010
O2 O 0.602700 0.896890 0.297580
H4 H 0.578660 0.748320 0.084810
H5 H 0.684090 0.815920 0.019270
N4 N 0.685760 0.916430 0.188290
C8 C 0.708170 0.893620 0.111590
H6 H 0.751680 0.921340 0.084810
Pd2 Pd 0.75000 0.50000 0.25000
Pd3_2 Pd 0.75000 1.00000 0.25000
N5 N 0.416430 0.811710 0.185760
N6 N 0.416430 0.688290 0.314240
Pd1_2 Pd 0.00000 0.75000 0.25000
N5_2 N 0.083570 0.688290 0.185760
N6_2 N 0.083570 0.811710 0.314240
Pd1_3 Pd 1.00000 0.75000 0.25000
N1_2 N 0.916430 0.814240 0.311710
C1_2 C 0.893620 0.791830 0.388410
C2_2 C 0.876620 0.876310 0.273130
C3_2 C 0.831550 0.831640 0.426990
O1_2 O 0.897300 0.896890 0.202420
H1_2 H 0.921340 0.748320 0.415190
H2_2 H 0.815910 0.815920 0.480730
N2_2 N 0.814240 0.916430 0.311710
C4_2 C 0.791830 0.893620 0.388410
H3_2 H 0.748320 0.921340 0.415190
N3_2 N 0.916430 0.685760 0.188290
C5_2 C 0.893620 0.708170 0.111590
C6_2 C 0.876620 0.623690 0.226870
C7_2 C 0.831550 0.668360 0.073010
O2_2 O 0.897300 0.603110 0.297580
H4_2 H 0.921340 0.751680 0.084810
H5_2 H 0.815910 0.684080 0.019270
N4_2 N 0.814240 0.583570 0.188290
C8_2 C 0.791830 0.606380 0.111590
H6_2 H 0.748320 0.578660 0.084810
Pd3_3 Pd 0.25000 0.75000 0.00000
Pd1_4 Pd 0.25000 0.50000 0.75000
N1_3 N 0.311710 0.583570 0.685760
C1_3 C 0.388410 0.606380 0.708170
C2_3 C 0.273130 0.623380 0.623690
C3_3 C 0.426990 0.668450 0.668360
O1_3 O 0.202420 0.602700 0.603110
H1_3 H 0.415190 0.578660 0.751680
H2_3 H 0.480730 0.684090 0.684080
N2_3 N 0.311710 0.685760 0.583570
C4_3 C 0.388410 0.708170 0.606380
H3_3 H 0.415190 0.751680 0.578660
N3_3 N 0.188290 0.583570 0.814240
C5_3 C 0.111590 0.606380 0.791830
C6_3 C 0.226870 0.623380 0.876310
C7_3 C 0.073010 0.668450 0.831640
O2_3 O 0.297580 0.602700 0.896890
H4_3 H 0.084810 0.578660 0.748320
H5_3 H 0.019270 0.684090 0.815920
N4_3 N 0.188290 0.685760 0.916430
C8_3 C 0.111590 0.708170 0.893620
H6_3 H 0.084810 0.751680 0.921340
Pd2_2 Pd 0.25000 0.75000 0.50000
Pd3_4 Pd 0.25000 0.75000 1.00000
N5_3 N 0.185760 0.416430 0.811710
N6_3 N 0.314240 0.416430 0.688290
Pd1_5 Pd 0.25000 0.00000 0.75000
N5_4 N 0.185760 0.083570 0.688290
N6_4 N 0.314240 0.083570 0.811710
Pd1_6 Pd 0.25000 1.00000 0.75000
N1_4 N 0.311710 0.916430 0.814240
C1_4 C 0.388410 0.893620 0.791830
C2_4 C 0.273130 0.876620 0.876310
C3_4 C 0.426990 0.831550 0.831640
O1_4 O 0.202420 0.897300 0.896890
H1_4 H 0.415190 0.921340 0.748320
H2_4 H 0.480730 0.815910 0.815920
N2_4 N 0.311710 0.814240 0.916430
C4_4 C 0.388410 0.791830 0.893620
H3_4 H 0.415190 0.748320 0.921340
N3_4 N 0.188290 0.916430 0.685760
C5_4 C 0.111590 0.893620 0.708170
C6_4 C 0.226870 0.876620 0.623690
C7_4 C 0.073010 0.831550 0.668360
O2_4 O 0.297580 0.897300 0.603110
H4_4 H 0.084810 0.921340 0.751680
H5_4 H 0.019270 0.815910 0.684080
N4_4 N 0.188290 0.814240 0.583570
C8_4 C 0.111590 0.791830 0.606380
H6_4 H 0.084810 0.748320 0.578660
Pd3_5 Pd 0.00000 0.25000 0.75000
Pd1_7 Pd 0.75000 0.25000 0.50000
N1_5 N 0.685760 0.311710 0.583570
C1_5 C 0.708170 0.388410 0.606380
C2_5 C 0.623690 0.273130 0.623380
C3_5 C 0.668360 0.426990 0.668450
O1_5 O 0.603110 0.202420 0.602700
H1_5 H 0.751680 0.415190 0.578660
H2_5 H 0.684080 0.480730 0.684090
N2_5 N 0.583570 0.311710 0.685760
C4_5 C 0.606380 0.388410 0.708170
H3_5 H 0.578660 0.415190 0.751680
N3_5 N 0.814240 0.188290 0.583570
C5_5 C 0.791830 0.111590 0.606380
C6_5 C 0.876310 0.226870 0.623380
C7_5 C 0.831640 0.073010 0.668450
O2_5 O 0.896890 0.297580 0.602700
H4_5 H 0.748320 0.084810 0.578660
H5_5 H 0.815920 0.019270 0.684090
N4_5 N 0.916430 0.188290 0.685760
C8_5 C 0.893620 0.111590 0.708170
H6_5 H 0.921340 0.084810 0.751680
Pd2_3 Pd 0.50000 0.25000 0.75000
Pd3_6 Pd 1.00000 0.25000 0.75000
N5_5 N 0.811710 0.185760 0.416430
N6_5 N 0.688290 0.314240 0.416430
Pd1_8 Pd 0.75000 0.25000 0.00000
N5_6 N 0.688290 0.185760 0.083570
N6_6 N 0.811710 0.314240 0.083570
Pd1_9 Pd 0.75000 0.25000 1.00000
N1_6 N 0.814240 0.311710 0.916430
C1_6 C 0.791830 0.388410 0.893620
C2_6 C 0.876310 0.273130 0.876620
C3_6 C 0.831640 0.426990 0.831550
O1_6 O 0.896890 0.202420 0.897300
H1_6 H 0.748320 0.415190 0.921340
H2_6 H 0.815920 0.480730 0.815910
N2_6 N 0.916430 0.311710 0.814240
C4_6 C 0.893620 0.388410 0.791830
H3_6 H 0.921340 0.415190 0.748320
N3_6 N 0.685760 0.188290 0.916430
C5_6 C 0.708170 0.111590 0.893620
C6_6 C 0.623690 0.226870 0.876620
C7_6 C 0.668360 0.073010 0.831550
O2_6 O 0.603110 0.297580 0.897300
H4_6 H 0.751680 0.084810 0.921340
H5_6 H 0.684080 0.019270 0.815910
N4_6 N 0.583570 0.188290 0.814240
C8_6 C 0.606380 0.111590 0.791830
H6_6 H 0.578660 0.084810 0.748320
C1_7 C 0.208170 0.106380 0.611590
C2_7 C 0.123690 0.123380 0.726870
C3_7 C 0.168360 0.168450 0.573010
O1_7 O 0.103110 0.102700 0.797580
H1_7 H 0.251680 0.078660 0.584810
H2_7 H 0.184080 0.184090 0.519270
N2_7 N 0.083570 0.185760 0.688290
C4_7 C 0.106380 0.208170 0.611590
H3_7 H 0.078660 0.251680 0.584810
C5_7 C 0.291830 0.106380 0.888410
C6_7 C 0.376310 0.123380 0.773130
C7_7 C 0.331640 0.168450 0.926990
O2_7 O 0.396890 0.102700 0.702420
H4_7 H 0.248320 0.078660 0.915190
H5_7 H 0.315920 0.184090 0.980730
N4_7 N 0.416430 0.185760 0.811710
C8_7 C 0.393620 0.208170 0.888410
H6_7 H 0.421340 0.251680 0.915190
C1_8 C 0.291830 0.393620 0.611590
C2_8 C 0.376310 0.376620 0.726870
C3_8 C 0.331640 0.331550 0.573010
O1_8 O 0.396890 0.397300 0.797580
H1_8 H 0.248320 0.421340 0.584810
H2_8 H 0.315920 0.315910 0.519270
N2_8 N 0.416430 0.314240 0.688290
C4_8 C 0.393620 0.291830 0.611590
H3_8 H 0.421340 0.248320 0.584810
C5_8 C 0.208170 0.393620 0.888410
C6_8 C 0.123690 0.376620 0.773130
C7_8 C 0.168360 0.331550 0.926990
O2_8 O 0.103110 0.397300 0.702420
H4_8 H 0.251680 0.421340 0.915190
H5_8 H 0.184080 0.315910 0.980730
N4_8 N 0.083570 0.314240 0.811710
C8_8 C 0.106380 0.291830 0.888410
H6_8 H 0.078660 0.248320 0.915190
C1_9 C 0.106380 0.888410 0.291830
C2_9 C 0.123380 0.773130 0.376310
C3_9 C 0.168450 0.926990 0.331640
O1_9 O 0.102700 0.702420 0.396890
H1_9 H 0.078660 0.915190 0.248320
H2_9 H 0.184090 0.980730 0.315920
N2_9 N 0.185760 0.811710 0.416430
C4_9 C 0.208170 0.888410 0.393620
H3_9 H 0.251680 0.915190 0.421340
C5_9 C 0.106380 0.611590 0.208170
C6_9 C 0.123380 0.726870 0.123690
C7_9 C 0.168450 0.573010 0.168360
O2_9 O 0.102700 0.797580 0.103110
H4_9 H 0.078660 0.584810 0.251680
H5_9 H 0.184090 0.519270 0.184080
N4_9 N 0.185760 0.688290 0.083570
C8_9 C 0.208170 0.611590 0.106380
H6_9 H 0.251680 0.584810 0.078660
C1_10 C 0.393620 0.888410 0.208170
C2_10 C 0.376620 0.773130 0.123690
C3_10 C 0.331550 0.926990 0.168360
O1_10 O 0.397300 0.702420 0.103110
H1_10 H 0.421340 0.915190 0.251680
H2_10 H 0.315910 0.980730 0.184080
N2_10 N 0.314240 0.811710 0.083570
C4_10 C 0.291830 0.888410 0.106380
H3_10 H 0.248320 0.915190 0.078660
C5_10 C 0.393620 0.611590 0.291830
C6_10 C 0.376620 0.726870 0.376310
C7_10 C 0.331550 0.573010 0.331640
O2_10 O 0.397300 0.797580 0.396890
H4_10 H 0.421340 0.584810 0.248320
H5_10 H 0.315910 0.519270 0.315920
N4_10 N 0.314240 0.688290 0.416430
C8_10 C 0.291830 0.611590 0.393620
H6_10 H 0.248320 0.584810 0.421340
C1_11 C 0.888410 0.208170 0.393620
C2_11 C 0.773130 0.123690 0.376620
C3_11 C 0.926990 0.168360 0.331550
O1_11 O 0.702420 0.103110 0.397300
H1_11 H 0.915190 0.251680 0.421340
H2_11 H 0.980730 0.184080 0.315910
N2_11 N 0.811710 0.083570 0.314240
C4_11 C 0.888410 0.106380 0.291830
H3_11 H 0.915190 0.078660 0.248320
C5_11 C 0.611590 0.291830 0.393620
C6_11 C 0.726870 0.376310 0.376620
C7_11 C 0.573010 0.331640 0.331550
O2_11 O 0.797580 0.396890 0.397300
H4_11 H 0.584810 0.248320 0.421340
H5_11 H 0.519270 0.315920 0.315910
N4_11 N 0.688290 0.416430 0.314240
C8_11 C 0.611590 0.393620 0.291830
H6_11 H 0.584810 0.421340 0.248320
C1_12 C 0.888410 0.291830 0.106380
C2_12 C 0.773130 0.376310 0.123380
C3_12 C 0.926990 0.331640 0.168450
O1_12 O 0.702420 0.396890 0.102700
H1_12 H 0.915190 0.248320 0.078660
H2_12 H 0.980730 0.315920 0.184090
N2_12 N 0.811710 0.416430 0.185760
C4_12 C 0.888410 0.393620 0.208170
H3_12 H 0.915190 0.421340 0.251680
C5_12 C 0.611590 0.208170 0.106380
C6_12 C 0.726870 0.123690 0.123380
C7_12 C 0.573010 0.168360 0.168450
O2_12 O 0.797580 0.103110 0.102700
H4_12 H 0.584810 0.251680 0.078660
H5_12 H 0.519270 0.184080 0.184090
N4_12 N 0.688290 0.083570 0.185760
C8_12 C 0.611590 0.106380 0.208170
H6_12 H 0.584810 0.078660 0.251680
loop_
_geom_bond_atom_site_label_1
_geom_bond_atom_site_label_2
_geom_bond_site_symmetry_1
_geom_bond_site_symmetry_2
Pd1 N1 1_555 1_555
N1 C1 1_555 1_555
C1 C3 1_555 1_555
C2 N1 1_555 1_555
C3 H2 1_555 1_555
O1 C2 1_555 1_555
H1 C1 1_555 1_555
N2 C2 1_555 1_555
C4 C3 1_555 1_555
H3 C4 1_555 1_555
N3 Pd1 1_555 1_555
C5 N3 1_555 1_555
C6 N3 1_555 1_555
C7 C5 1_555 1_555
O2 C6 1_555 1_555
H4 C5 1_555 1_555
H5 C7 1_555 1_555
N4 C6 1_555 1_555
C8 C7 1_555 1_555
H6 C8 1_555 1_555
Pd2 N2 1_555 1_555
Pd3_2 N4 1_555 1_555
N5 Pd1 1_555 1_555
N6 Pd1 1_555 1_555
N2 C4 1_555 1_555
N4 C8 1_555 1_555
N5_2 Pd1_2 1_555 1_555
N6_2 Pd1_2 1_555 1_555
Pd1_3 N1_2 1_555 1_555
N1_2 C1_2 1_555 1_555
C1_2 C3_2 1_555 1_555
C2_2 N1_2 1_555 1_555
C3_2 H2_2 1_555 1_555
O1_2 C2_2 1_555 1_555
H1_2 C1_2 1_555 1_555
N2_2 C2_2 1_555 1_555
C4_2 C3_2 1_555 1_555
H3_2 C4_2 1_555 1_555
N3_2 Pd1_3 1_555 1_555
C5_2 N3_2 1_555 1_555
C6_2 N3_2 1_555 1_555
C7_2 C5_2 1_555 1_555
O2_2 C6_2 1_555 1_555
H4_2 C5_2 1_555 1_555
H5_2 C7_2 1_555 1_555
N4_2 C6_2 1_555 1_555
C8_2 C7_2 1_555 1_555
H6_2 C8_2 1_555 1_555
Pd3_2 N2_2 1_555 1_555
Pd2 N4_2 1_555 1_555
N2_2 C4_2 1_555 1_555
N4_2 C8_2 1_555 1_555
Pd1_4 N1_3 1_555 1_555
N1_3 C1_3 1_555 1_555
C1_3 C3_3 1_555 1_555
C2_3 N1_3 1_555 1_555
C3_3 H2_3 1_555 1_555
O1_3 C2_3 1_555 1_555
H1_3 C1_3 1_555 1_555
N2_3 C2_3 1_555 1_555
C4_3 C3_3 1_555 1_555
H3_3 C4_3 1_555 1_555
N3_3 Pd1_4 1_555 1_555
C5_3 N3_3 1_555 1_555
C6_3 N3_3 1_555 1_555
C7_3 C5_3 1_555 1_555
O2_3 C6_3 1_555 1_555
H4_3 C5_3 1_555 1_555
H5_3 C7_3 1_555 1_555
N4_3 C6_3 1_555 1_555
C8_3 C7_3 1_555 1_555
H6_3 C8_3 1_555 1_555
Pd2_2 N2_3 1_555 1_555
Pd3_4 N4_3 1_555 1_555
N5_3 Pd1_4 1_555 1_555
N6_3 Pd1_4 1_555 1_555
N2_3 C4_3 1_555 1_555
N4_3 C8_3 1_555 1_555
N5_4 Pd1_5 1_555 1_555
N6_4 Pd1_5 1_555 1_555
Pd1_6 N1_4 1_555 1_555
N1_4 C1_4 1_555 1_555
C1_4 C3_4 1_555 1_555
C2_4 N1_4 1_555 1_555
C3_4 H2_4 1_555 1_555
O1_4 C2_4 1_555 1_555
H1_4 C1_4 1_555 1_555
N2_4 C2_4 1_555 1_555
C4_4 C3_4 1_555 1_555
H3_4 C4_4 1_555 1_555
N3_4 Pd1_6 1_555 1_555
C5_4 N3_4 1_555 1_555
C6_4 N3_4 1_555 1_555
C7_4 C5_4 1_555 1_555
O2_4 C6_4 1_555 1_555
H4_4 C5_4 1_555 1_555
H5_4 C7_4 1_555 1_555
N4_4 C6_4 1_555 1_555
C8_4 C7_4 1_555 1_555
H6_4 C8_4 1_555 1_555
Pd3_4 N2_4 1_555 1_555
Pd2_2 N4_4 1_555 1_555
N2_4 C4_4 1_555 1_555
N4_4 C8_4 1_555 1_555
Pd1_7 N1_5 1_555 1_555
N1_5 C1_5 1_555 1_555
C1_5 C3_5 1_555 1_555
C2_5 N1_5 1_555 1_555
C3_5 H2_5 1_555 1_555
O1_5 C2_5 1_555 1_555
H1_5 C1_5 1_555 1_555
N2_5 C2_5 1_555 1_555
C4_5 C3_5 1_555 1_555
H3_5 C4_5 1_555 1_555
N3_5 Pd1_7 1_555 1_555
C5_5 N3_5 1_555 1_555
C6_5 N3_5 1_555 1_555
C7_5 C5_5 1_555 1_555
O2_5 C6_5 1_555 1_555
H4_5 C5_5 1_555 1_555
H5_5 C7_5 1_555 1_555
N4_5 C6_5 1_555 1_555
C8_5 C7_5 1_555 1_555
H6_5 C8_5 1_555 1_555
Pd2_3 N2_5 1_555 1_555
Pd3_6 N4_5 1_555 1_555
N5_5 Pd1_7 1_555 1_555
N6_5 Pd1_7 1_555 1_555
N2_5 C4_5 1_555 1_555
N4_5 C8_5 1_555 1_555
N5_6 Pd1_8 1_555 1_555
N6_6 Pd1_8 1_555 1_555
Pd1_9 N1_6 1_555 1_555
N1_6 C1_6 1_555 1_555
C1_6 C3_6 1_555 1_555
C2_6 N1_6 1_555 1_555
C3_6 H2_6 1_555 1_555
O1_6 C2_6 1_555 1_555
H1_6 C1_6 1_555 1_555
N2_6 C2_6 1_555 1_555
C4_6 C3_6 1_555 1_555
H3_6 C4_6 1_555 1_555
N3_6 Pd1_9 1_555 1_555
C5_6 N3_6 1_555 1_555
C6_6 N3_6 1_555 1_555
C7_6 C5_6 1_555 1_555
O2_6 C6_6 1_555 1_555
H4_6 C5_6 1_555 1_555
H5_6 C7_6 1_555 1_555
N4_6 C6_6 1_555 1_555
C8_6 C7_6 1_555 1_555
H6_6 C8_6 1_555 1_555
Pd3_6 N2_6 1_555 1_555
Pd2_3 N4_6 1_555 1_555
N2_6 C4_6 1_555 1_555
N4_6 C8_6 1_555 1_555
N5_4 C1_7 1_555 1_555
C1_7 C3_7 1_555 1_555
C2_7 N5_4 1_555 1_555
C3_7 H2_7 1_555 1_555
O1_7 C2_7 1_555 1_555
H1_7 C1_7 1_555 1_555
N2_7 C2_7 1_555 1_555
C4_7 C3_7 1_555 1_555
H3_7 C4_7 1_555 1_555
C5_7 N6_4 1_555 1_555
C6_7 N6_4 1_555 1_555
C7_7 C5_7 1_555 1_555
O2_7 C6_7 1_555 1_555
H4_7 C5_7 1_555 1_555
H5_7 C7_7 1_555 1_555
N4_7 C6_7 1_555 1_555
C8_7 C7_7 1_555 1_555
H6_7 C8_7 1_555 1_555
Pd3_5 N2_7 1_555 1_555
Pd2_3 N4_7 1_555 1_555
N2_7 C4_7 1_555 1_555
N4_7 C8_7 1_555 1_555
N6_3 C1_8 1_555 1_555
C1_8 C3_8 1_555 1_555
C2_8 N6_3 1_555 1_555
C3_8 H2_8 1_555 1_555
O1_8 C2_8 1_555 1_555
H1_8 C1_8 1_555 1_555
N2_8 C2_8 1_555 1_555
C4_8 C3_8 1_555 1_555
H3_8 C4_8 1_555 1_555
C5_8 N5_3 1_555 1_555
C6_8 N5_3 1_555 1_555
C7_8 C5_8 1_555 1_555
O2_8 C6_8 1_555 1_555
H4_8 C5_8 1_555 1_555
H5_8 C7_8 1_555 1_555
N4_8 C6_8 1_555 1_555
C8_8 C7_8 1_555 1_555
H6_8 C8_8 1_555 1_555
Pd2_3 N2_8 1_555 1_555
Pd3_5 N4_8 1_555 1_555
N2_8 C4_8 1_555 1_555
N4_8 C8_8 1_555 1_555
N6_2 C1_9 1_555 1_555
C1_9 C3_9 1_555 1_555
C2_9 N6_2 1_555 1_555
C3_9 H2_9 1_555 1_555
O1_9 C2_9 1_555 1_555
H1_9 C1_9 1_555 1_555
N2_9 C2_9 1_555 1_555
C4_9 C3_9 1_555 1_555
H3_9 C4_9 1_555 1_555
C5_9 N5_2 1_555 1_555
C6_9 N5_2 1_555 1_555
C7_9 C5_9 1_555 1_555
O2_9 C6_9 1_555 1_555
H4_9 C5_9 1_555 1_555
H5_9 C7_9 1_555 1_555
N4_9 C6_9 1_555 1_555
C8_9 C7_9 1_555 1_555
H6_9 C8_9 1_555 1_555
Pd2_2 N2_9 1_555 1_555
Pd3_3 N4_9 1_555 1_555
N2_9 C4_9 1_555 1_555
N4_9 C8_9 1_555 1_555
N5 C1_10 1_555 1_555
C1_10 C3_10 1_555 1_555
C2_10 N5 1_555 1_555
C3_10 H2_10 1_555 1_555
O1_10 C2_10 1_555 1_555
H1_10 C1_10 1_555 1_555
N2_10 C2_10 1_555 1_555
C4_10 C3_10 1_555 1_555
H3_10 C4_10 1_555 1_555
C5_10 N6 1_555 1_555
C6_10 N6 1_555 1_555
C7_10 C5_10 1_555 1_555
O2_10 C6_10 1_555 1_555
H4_10 C5_10 1_555 1_555
H5_10 C7_10 1_555 1_555
N4_10 C6_10 1_555 1_555
C8_10 C7_10 1_555 1_555
H6_10 C8_10 1_555 1_555
Pd3_3 N2_10 1_555 1_555
Pd2_2 N4_10 1_555 1_555
N2_10 C4_10 1_555 1_555
N4_10 C8_10 1_555 1_555
N5_5 C1_11 1_555 1_555
C1_11 C3_11 1_555 1_555
C2_11 N5_5 1_555 1_555
C3_11 H2_11 1_555 1_555
O1_11 C2_11 1_555 1_555
H1_11 C1_11 1_555 1_555
N2_11 C2_11 1_555 1_555
C4_11 C3_11 1_555 1_555
H3_11 C4_11 1_555 1_555
C5_11 N6_5 1_555 1_555
C6_11 N6_5 1_555 1_555
C7_11 C5_11 1_555 1_555
O2_11 C6_11 1_555 1_555
H4_11 C5_11 1_555 1_555
H5_11 C7_11 1_555 1_555
N4_11 C6_11 1_555 1_555
C8_11 C7_11 1_555 1_555
H6_11 C8_11 1_555 1_555
Pd3 N2_11 1_555 1_555
Pd2 N4_11 1_555 1_555
N2_11 C4_11 1_555 1_555
N4_11 C8_11 1_555 1_555
N6_6 C1_12 1_555 1_555
C1_12 C3_12 1_555 1_555
C2_12 N6_6 1_555 1_555
C3_12 H2_12 1_555 1_555
O1_12 C2_12 1_555 1_555
H1_12 C1_12 1_555 1_555
N2_12 C2_12 1_555 1_555
C4_12 C3_12 1_555 1_555
H3_12 C4_12 1_555 1_555
C5_12 N5_6 1_555 1_555
C6_12 N5_6 1_555 1_555
C7_12 C5_12 1_555 1_555
O2_12 C6_12 1_555 1_555
H4_12 C5_12 1_555 1_555
H5_12 C7_12 1_555 1_555
N4_12 C6_12 1_555 1_555
C8_12 C7_12 1_555 1_555
H6_12 C8_12 1_555 1_555
Pd2 N2_12 1_555 1_555
Pd3 N4_12 1_555 1_555
N2_12 C4_12 1_555 1_555
N4_12 C8_12 1_555 1_555

#END
