
###############################################################################
#
# This file contains modified crystal structure data generated from the
# MOF subset of the Cambridge Structural Database (CSD) v543 
# hosted by the Cambridge Crystallographic Data Centre (CCDC).
#
# This work is licensed under the Creative Commons
# Attribution-NonCommercial-ShareAlike 4.0 International License.
# To view a copy of this license, visit
# http://creativecommons.org/licenses/by-nc-sa/4.0/
# or send a letter to
# Creative Commons, PO Box 1866, Mountain View, CA 94042, USA.
#
# CIF created using the CSD Python API on 29 September 2022
# The structure has been converted into the P1 space group
# The structure has a 3D framework
# The original CSD entry NELTUU is in the monoclinic crystal system
# The framework has been calculated to contain at least 10.0% void space
# The void calculation uses a probe of radius 1.32A, grid spacing 0.4
# The framework is charged, counterions have been retained in the structure
#
###############################################################################

data_NELTUU
_chemical_formula_moiety         '(C12 H28 O22 P8 Zn4 4-)n'
_symmetry_cell_setting           triclinic
_symmetry_space_group_name_H-M   'P 1'
_symmetry_Int_Tables_number      1
_space_group_name_Hall           'P 1'
loop_
_symmetry_equiv_pos_site_id
_symmetry_equiv_pos_as_xyz
1 x,y,z
_cell_length_a                   8.854(4)
_cell_length_b                   13.474(5)
_cell_length_c                   9.815(4)
_cell_angle_alpha                90
_cell_angle_beta                 98.523(8)
_cell_angle_gamma                90
_cell_volume                     1157.99
loop_
_atom_site_label
_atom_site_type_symbol
_atom_site_fract_x
_atom_site_fract_y
_atom_site_fract_z
P2 P 0.29781(6) 0.08141(4) 0.00345(5)
O6 O 0.31420(18) 0.04640(11) 0.15700(15)
H3 H 0.1289 0.2073 0.0277
Zn4 Zn 0.63701(2) 0.140375(16) 0.07574(2)
O4 O 0.42617(16) 0.15388(10) 0.99214(16)
C1 C 0.1229(2) 0.14939(15) 0.9684(2)
H2 H 0.0398 0.1081 0.9899
C2 C 0.0879(2) 0.18283(18) 0.8180(2)
H4 H 0.0600 0.1251 0.7606
H5 H 0.1799 0.2108 0.7908
Zn6 Zn 0.63701(2) 0.359625(16) 0.57574(2)
Zn7 Zn 0.36299(2) 0.640375(16) 0.42426(2)
P4 P 0.29781(6) 0.41859(4) 0.50345(5)
O11 O 0.42617(16) 0.34612(10) 0.49214(16)
O14 O 0.28963(16) 0.50523(11) 0.40466(15)
O17 O 0.31420(18) 0.45360(11) 0.65700(15)
H8 H 0.2900 0.5122 0.6596
C4 C 0.1229(2) 0.35061(15) 0.4684(2)
H9 H 0.0398 0.3919 0.4899
H10 H 0.1289 0.2927 0.5277
C5 C 0.0879(2) 0.31717(18) 0.3180(2)
H11 H 0.0600 0.3749 0.2606
H12 H 0.1799 0.2892 0.2908
O5 O 0.28963(16) 0.99477(11) 0.90466(15)
Zn5 Zn 0.36299(2) 0.859625(16) 0.92426(2)
P1 P 0.77191(5) 0.21931(4) 0.81714(5)
O1 O 0.66213(15) 0.30283(10) 0.75958(14)
O2 O 0.73505(17) 0.12103(10) 0.74268(15)
O3 O 0.77053(15) 0.21249(10) 0.97222(14)
C3 C 0.9596(2) 0.25960(16) 0.7906(2)
H6 H 0.9537 0.2820 0.6960
H7 H 0.9876 0.3165 0.8495
P3 P 0.77191(5) 0.28069(4) 0.31714(5)
O7 O 0.66213(15) 0.19717(10) 0.25958(14)
O8 O 0.73505(17) 0.37897(10) 0.24268(15)
O9 O 0.77053(15) 0.28751(10) 0.47222(14)
O15 O 0.71037(16) 0.49477(11) 0.59534(15)
O16 O 0.71037(16) 0.00523(11) 0.09534(15)
C6 C 0.9596(2) 0.24040(16) 0.2906(2)
H13 H 0.9537 0.2180 0.1960
H14 H 0.9876 0.1835 0.3495
P3_2 P 0.22809(5) 0.78069(4) 0.18286(5)
O7_2 O 0.33787(15) 0.69717(10) 0.24042(14)
O8_2 O 0.26495(17) 0.87897(10) 0.25732(15)
O9_2 O 0.22947(15) 0.78751(10) 0.02778(14)
O10 O 0.22947(15) 0.71249(10) 0.52778(14)
O12 O 0.57383(16) 0.84612(10) 0.00786(16)
O13 O 0.57383(16) 0.65388(10) 0.50786(16)
C6_2 C 0.0404(2) 0.74040(16) 0.2094(2)
H13_2 H 0.0463 0.7180 0.3040
H14_2 H 0.0124 0.6835 0.1505
P1_2 P 0.22809(5) 0.71931(4) 0.68286(5)
O1_2 O 0.33787(15) 0.80283(10) 0.74042(14)
O2_2 O 0.26495(17) 0.62103(10) 0.75732(15)
C3_2 C 0.0404(2) 0.75960(16) 0.7094(2)
H6_2 H 0.0463 0.7820 0.8040
H7_2 H 0.0124 0.8165 0.6505
C4_2 C 0.8771(2) 0.85061(15) 0.0316(2)
H9_2 H 0.9602 0.8919 0.0101
C5_2 C 0.9121(2) 0.81717(18) 0.1820(2)
H11_2 H 0.9400 0.8749 0.2394
H12_2 H 0.8201 0.7892 0.2092
P2_2 P 0.70219(6) 0.58141(4) 0.49655(5)
O6_2 O 0.68580(18) 0.54640(11) 0.34300(15)
H1 H 0.7100 0.4878 0.3404
C1_2 C 0.8771(2) 0.64939(15) 0.5316(2)
H2_2 H 0.9602 0.6081 0.5101
H3_2 H 0.8711 0.7073 0.4723
C2_2 C 0.9121(2) 0.68283(18) 0.6820(2)
H4_2 H 0.9400 0.6251 0.7394
H5_2 H 0.8201 0.7108 0.7092
P4_2 P 0.70219(6) 0.91859(4) 0.99655(5)
O17_2 O 0.68580(18) 0.95360(11) 0.84300(15)
H10_2 H 0.8711 0.7927 0.9723
H1_2 H 0.2900 0.9878 0.1596
H8_2 H 0.7100 0.0122 0.8404
loop_
_geom_bond_atom_site_label_1
_geom_bond_atom_site_label_2
_geom_bond_site_symmetry_1
_geom_bond_site_symmetry_2
O6 P2 1_555 1_555
H2 C1 1_555 1_555
C2 C1 1_555 1_555
H4 C2 1_555 1_555
H5 C2 1_555 1_555
Zn6 O11 1_555 1_555
Zn7 O14 1_555 1_555
P4 O11 1_555 1_555
O14 P4 1_555 1_555
O17 P4 1_555 1_555
H8 O17 1_555 1_555
C4 P4 1_555 1_555
H9 C4 1_555 1_555
H10 C4 1_555 1_555
C5 C4 1_555 1_555
H11 C5 1_555 1_555
H12 C5 1_555 1_555
Zn5 O5 1_555 1_555
Zn6 O1 1_555 1_555
P1 O1 1_555 1_555
O2 P1 1_555 1_555
O3 P1 1_555 1_555
C3 P1 1_555 1_555
H6 C3 1_555 1_555
H7 C3 1_555 1_555
Zn4 O7 1_555 1_555
P3 O7 1_555 1_555
O8 P3 1_555 1_555
O9 Zn6 1_555 1_555
O15 Zn6 1_555 1_555
O16 Zn4 1_555 1_555
C6 P3 1_555 1_555
H13 C6 1_555 1_555
H14 C6 1_555 1_555
P3 O9 1_555 1_555
Zn7 O7_2 1_555 1_555
P3_2 O7_2 1_555 1_555
O8_2 P3_2 1_555 1_555
O10 Zn7 1_555 1_555
O13 Zn7 1_555 1_555
C6_2 P3_2 1_555 1_555
H13_2 C6_2 1_555 1_555
H14_2 C6_2 1_555 1_555
P3_2 O9_2 1_555 1_555
Zn5 O1_2 1_555 1_555
P1_2 O1_2 1_555 1_555
O2_2 P1_2 1_555 1_555
O10 P1_2 1_555 1_555
C3_2 P1_2 1_555 1_555
H6_2 C3_2 1_555 1_555
H7_2 C3_2 1_555 1_555
H9_2 C4_2 1_555 1_555
C5_2 C4_2 1_555 1_555
H11_2 C5_2 1_555 1_555
H12_2 C5_2 1_555 1_555
P2_2 O13 1_555 1_555
O15 P2_2 1_555 1_555
O6_2 P2_2 1_555 1_555
H1 O6_2 1_555 1_555
C1_2 P2_2 1_555 1_555
H2_2 C1_2 1_555 1_555
H3_2 C1_2 1_555 1_555
C2_2 C1_2 1_555 1_555
H4_2 C2_2 1_555 1_555
H5_2 C2_2 1_555 1_555
O17_2 P4_2 1_555 1_555

#END
