
###############################################################################
#
# This file contains modified crystal structure data generated from the
# MOF subset of the Cambridge Structural Database (CSD) v543 
# hosted by the Cambridge Crystallographic Data Centre (CCDC).
#
# This work is licensed under the Creative Commons
# Attribution-NonCommercial-ShareAlike 4.0 International License.
# To view a copy of this license, visit
# http://creativecommons.org/licenses/by-nc-sa/4.0/
# or send a letter to
# Creative Commons, PO Box 1866, Mountain View, CA 94042, USA.
#
# CIF created using the CSD Python API on 29 September 2022
# The structure has been converted into the P1 space group
# The structure has a 3D framework
# The original CSD entry NELVEG is in the monoclinic crystal system
# The framework has been calculated to contain at least 10.0% void space
# The void calculation uses a probe of radius 1.32A, grid spacing 0.4
# The framework is charged, counterions have been retained in the structure
#
###############################################################################

data_NELVEG
_chemical_formula_moiety         '(C12 H28 O35 P12 Zn8 6-)n'
_symmetry_cell_setting           triclinic
_symmetry_space_group_name_H-M   'P 1'
_symmetry_Int_Tables_number      1
_space_group_name_Hall           'P 1'
loop_
_symmetry_equiv_pos_site_id
_symmetry_equiv_pos_as_xyz
1 x,y,z
_cell_length_a                   8.5989(17)
_cell_length_b                   17.044(2)
_cell_length_c                   10.165(2)
_cell_angle_alpha                90
_cell_angle_beta                 108.434(9)
_cell_angle_gamma                90
_cell_volume                     1413.34
loop_
_atom_site_label
_atom_site_type_symbol
_atom_site_fract_x
_atom_site_fract_y
_atom_site_fract_z
O22 O 0.1138(4) 0.17643(19) 0.2437(3)
Zn6 Zn 0.10572(7) 0.17166(3) 0.92118(5)
O17 O 0.1342(4) 0.81986(19) 0.1367(3)
H3 H 0.4793 0.0664 0.0778
Zn8 Zn 0.87742(7) 0.16836(3) 0.17818(6)
P4 P 0.75898(15) 0.00352(7) 0.00835(13)
O11 O 0.8122(5) 0.0621(2) 0.1240(4)
O15 O 0.8172(4) 0.17347(18) 0.3498(3)
O18 O 0.7730(4) 0.2496(2) 0.0467(3)
O26 O 0.2157(4) 0.2454(2) 0.0633(3)
O3 O 0.1245(4) 0.0638(2) 0.9754(4)
C1 C 0.4374(6) 0.0330(3) 0.9970(6)
H2 H 0.4254 0.0650 0.9154
Zn7 Zn 0.10572(7) 0.32834(3) 0.42118(5)
Zn12 Zn 0.87742(7) 0.33164(3) 0.67818(6)
P5 P 0.76414(15) 0.24774(7) 0.89456(12)
P6 P 0.22444(15) 0.26095(7) 0.71489(12)
O10 O 0.7250(4) 0.0431(2) 0.8631(4)
H8 H 0.7731 0.0853 0.8723
O13 O 0.8172(4) 0.32653(18) 0.8498(3)
O16 O 0.8658(4) 0.18014(19) 0.8633(3)
O20 O 0.1138(4) 0.32357(19) 0.7437(3)
O23 O 0.1881(4) 0.17902(19) 0.7627(3)
O25 O 0.2157(4) 0.2546(2) 0.5633(3)
C5 C 0.5558(6) 0.2288(3) 0.7913(5)
H11 H 0.5486 0.2306 0.6942
H12 H 0.5268 0.1761 0.8111
C6 C 0.4303(6) 0.2861(3) 0.8150(5)
H13 H 0.4546 0.3387 0.7902
H14 H 0.4397 0.2863 0.9126
O1 O 0.2750(4) 0.9569(2) 0.1369(4)
H1 H 0.2269 0.9147 0.1277
Zn3 Zn 0.89428(7) 0.82834(3) 0.07882(5)
O12 O 0.8755(4) 0.9362(2) 0.0246(4)
O24 O 0.8119(4) 0.82098(19) 0.2373(3)
C4 C 0.5626(6) 0.9670(3) 0.0030(6)
H9 H 0.5746 0.9350 0.0846
Zn2 Zn 0.12258(7) 0.83164(3) 0.82182(6)
P1 P 0.24102(15) 0.99648(7) 0.99165(13)
O2 O 0.1878(5) 0.9379(2) 0.8760(4)
O14 O 0.1828(4) 0.82653(18) 0.6502(3)
O19 O 0.2270(4) 0.7504(2) 0.9533(3)
O27 O 0.7843(4) 0.7546(2) 0.9367(3)
H10 H 0.5207 0.9336 0.9222
O21 O 0.8862(4) 0.82357(19) 0.7563(3)
P2 P 0.23586(15) 0.74774(7) 0.60544(12)
P3 P 0.77556(15) 0.76095(7) 0.78511(12)
O5 O 0.1342(4) 0.68014(19) 0.6367(3)
O6 O 0.2270(4) 0.7496(2) 0.4533(3)
O8 O 0.8119(4) 0.67902(19) 0.7373(3)
C2 C 0.4442(6) 0.7288(3) 0.7087(5)
H4 H 0.4514 0.7306 0.8058
H5 H 0.4732 0.6761 0.6889
C3 C 0.5697(6) 0.7861(3) 0.6850(5)
H6 H 0.5454 0.8387 0.7098
H7 H 0.5603 0.7863 0.5874
Zn4 Zn 0.89428(7) 0.67166(3) 0.57882(5)
Zn10 Zn 0.12258(7) 0.66836(3) 0.32182(6)
P1_2 P 0.75898(15) 0.49648(7) 0.50835(13)
O1_2 O 0.7250(4) 0.4569(2) 0.3631(4)
H1_2 H 0.7731 0.4147 0.3723
O2_2 O 0.8122(5) 0.4379(2) 0.6240(4)
O3_2 O 0.8755(4) 0.5638(2) 0.5246(4)
C1_2 C 0.5626(6) 0.5330(3) 0.5030(6)
H2_2 H 0.5746 0.5650 0.5846
H3_2 H 0.5207 0.5664 0.4222
P4_2 P 0.24102(15) 0.50352(7) 0.49165(13)
O10_2 O 0.2750(4) 0.5431(2) 0.6369(4)
H8_2 H 0.2269 0.5853 0.6277
O11_2 O 0.1878(5) 0.5621(2) 0.3760(4)
O12_2 O 0.1245(4) 0.4362(2) 0.4754(4)
O15_2 O 0.1828(4) 0.67347(18) 0.1502(3)
O19_2 O 0.7730(4) 0.2504(2) 0.5467(3)
O24_2 O 0.1881(4) 0.32098(19) 0.2627(3)
O26_2 O 0.7843(4) 0.7454(2) 0.4367(3)
C4_2 C 0.4374(6) 0.4670(3) 0.4970(6)
H9_2 H 0.4254 0.4350 0.4154
H10_2 H 0.4793 0.4336 0.5778
O17_2 O 0.8658(4) 0.31986(19) 0.3633(3)
O22_2 O 0.8862(4) 0.67643(19) 0.2563(3)
P2_2 P 0.23586(15) 0.75226(7) 0.10544(12)
P3_2 P 0.77556(15) 0.73905(7) 0.28511(12)
C2_2 C 0.4442(6) 0.7712(3) 0.2087(5)
H4_2 H 0.4514 0.7694 0.3058
H5_2 H 0.4732 0.8239 0.1889
C3_2 C 0.5697(6) 0.7139(3) 0.1850(5)
H6_2 H 0.5454 0.6613 0.2098
H7_2 H 0.5603 0.7137 0.0874
P5_2 P 0.76414(15) 0.25226(7) 0.39456(12)
P6_2 P 0.22444(15) 0.23905(7) 0.21489(12)
C5_2 C 0.5558(6) 0.2712(3) 0.2913(5)
H11_2 H 0.5486 0.2694 0.1942
H12_2 H 0.5268 0.3239 0.3111
C6_2 C 0.4303(6) 0.2139(3) 0.3150(5)
H13_2 H 0.4546 0.1613 0.2902
H14_2 H 0.4397 0.2137 0.4126
loop_
_geom_bond_atom_site_label_1
_geom_bond_atom_site_label_2
_geom_bond_site_symmetry_1
_geom_bond_site_symmetry_2
Zn8 O11 1_555 1_555
O11 P4 1_555 1_555
O15 Zn8 1_555 1_555
O18 Zn8 1_555 1_555
Zn6 O3 1_555 1_555
H2 C1 1_555 1_555
Zn7 O25 1_555 1_555
Zn12 O13 1_555 1_555
P5 O13 1_555 1_555
P6 O20 1_555 1_555
O10 H8 1_555 1_555
O16 P5 1_555 1_555
O23 Zn6 1_555 1_555
O25 P6 1_555 1_555
C5 P5 1_555 1_555
H11 C5 1_555 1_555
H12 C5 1_555 1_555
C6 P6 1_555 1_555
H13 C6 1_555 1_555
H14 C6 1_555 1_555
P6 O23 1_555 1_555
C5 C6 1_555 1_555
O1 H1 1_555 1_555
Zn3 O12 1_555 1_555
O24 Zn3 1_555 1_555
H9 C4 1_555 1_555
Zn2 O2 1_555 1_555
O2 P1 1_555 1_555
O14 Zn2 1_555 1_555
O19 Zn2 1_555 1_555
P2 O14 1_555 1_555
P3 O21 1_555 1_555
O6 P2 1_555 1_555
O8 P3 1_555 1_555
O27 P3 1_555 1_555
C2 P2 1_555 1_555
H4 C2 1_555 1_555
H5 C2 1_555 1_555
C3 P3 1_555 1_555
H6 C3 1_555 1_555
H7 C3 1_555 1_555
Zn4 O8 1_555 1_555
Zn10 O6 1_555 1_555
P2 O5 1_555 1_555
C2 C3 1_555 1_555
Zn4 O3_2 1_555 1_555
Zn12 O2_2 1_555 1_555
P1_2 O1_2 1_555 1_555
O1_2 H1_2 1_555 1_555
O2_2 P1_2 1_555 1_555
O3_2 P1_2 1_555 1_555
C1_2 P1_2 1_555 1_555
H2_2 C1_2 1_555 1_555
H3_2 C1_2 1_555 1_555
Zn7 O12_2 1_555 1_555
Zn10 O11_2 1_555 1_555
P4_2 O10_2 1_555 1_555
O10_2 H8_2 1_555 1_555
O11_2 P4_2 1_555 1_555
O12_2 P4_2 1_555 1_555
O15_2 Zn10 1_555 1_555
O19_2 Zn12 1_555 1_555
O24_2 Zn7 1_555 1_555
O26_2 Zn4 1_555 1_555
C4_2 C1_2 1_555 1_555
H9_2 C4_2 1_555 1_555
H10_2 C4_2 1_555 1_555
P4_2 C4_2 1_555 1_555
P2_2 O15_2 1_555 1_555
P3_2 O22_2 1_555 1_555
O24 P3_2 1_555 1_555
O26_2 P3_2 1_555 1_555
C2_2 P2_2 1_555 1_555
H4_2 C2_2 1_555 1_555
H5_2 C2_2 1_555 1_555
C3_2 P3_2 1_555 1_555
H6_2 C3_2 1_555 1_555
H7_2 C3_2 1_555 1_555
P2_2 O17 1_555 1_555
C2_2 C3_2 1_555 1_555
P5_2 O15 1_555 1_555
P6_2 O22 1_555 1_555
O17_2 P5_2 1_555 1_555
O26 P6_2 1_555 1_555
C5_2 P5_2 1_555 1_555
H11_2 C5_2 1_555 1_555
H12_2 C5_2 1_555 1_555
C6_2 P6_2 1_555 1_555
H13_2 C6_2 1_555 1_555
H14_2 C6_2 1_555 1_555
P5_2 O19_2 1_555 1_555
P6_2 O24_2 1_555 1_555
C5_2 C6_2 1_555 1_555

#END
