
###############################################################################
#
# This file contains modified crystal structure data generated from the
# MOF subset of the Cambridge Structural Database (CSD) v543 
# hosted by the Cambridge Crystallographic Data Centre (CCDC).
#
# This work is licensed under the Creative Commons
# Attribution-NonCommercial-ShareAlike 4.0 International License.
# To view a copy of this license, visit
# http://creativecommons.org/licenses/by-nc-sa/4.0/
# or send a letter to
# Creative Commons, PO Box 1866, Mountain View, CA 94042, USA.
#
# CIF created using the CSD Python API on 29 September 2022
# The structure has been converted into the P1 space group
# The structure has a 3D framework
# The original CSD entry NEMMEY is in the triclinic crystal system
# The framework has been calculated to contain at least 10.0% void space
# The void calculation uses a probe of radius 1.32A, grid spacing 0.4
# H atom positions have been added when not included in the experimental data
#
###############################################################################

data_NEMMEY
_chemical_formula_moiety         '(C24 H20 Cu4 Mo4 N4 O14)n'
_symmetry_cell_setting           triclinic
_symmetry_space_group_name_H-M   'P 1'
_symmetry_Int_Tables_number      1
_space_group_name_Hall           'P 1'
loop_
_symmetry_equiv_pos_site_id
_symmetry_equiv_pos_as_xyz
1 x,y,z
_cell_length_a                   7.4455(15)
_cell_length_b                   9.2175(18)
_cell_length_c                   15.230(3)
_cell_angle_alpha                79.32(3)
_cell_angle_beta                 87.31(3)
_cell_angle_gamma                72.85(3)
_cell_volume                     981.41
loop_
_atom_site_label
_atom_site_type_symbol
_atom_site_fract_x
_atom_site_fract_y
_atom_site_fract_z
Mo1 Mo 0.29767(7) 0.31446(6) 0.49413(3)
Cu2 Cu 0.18810(11) 0.68290(8) 0.56293(4)
O1 O 0.2833(7) 0.1775(5) 0.5918(3)
O4 O 0.5132(6) 0.2560(5) 0.4351(3)
O5 O 0.2980(7) 0.4841(5) 0.5295(3)
O6 O 0.1078(6) 0.3550(5) 0.4220(3)
Mo3 Mo 0.85327(7) 0.02697(6) 0.60104(3)
Mo4 Mo 0.14673(7) 0.97303(6) 0.39896(3)
Cu3 Cu 0.62511(10) 0.04195(8) 0.41344(4)
O9 O 0.0847(6) 0.9005(5) 0.5859(3)
O11 O 0.3214(6) 0.0224(5) 0.4536(3)
O14 O 0.1580(7) 0.7759(5) 0.4338(3)
N3 N 0.2406(7) 0.5871(6) 0.6918(3)
H3 H 0.287546 0.00747449 0.914012
H8 H 0.219066 0.0856708 0.751694
N1 N 0.7594(7) 0.4129(6) 0.3082(3)
C1 C 0.8668(11) 0.3504(9) 0.2438(4)
C2 C 0.6145(11) 0.5421(9) 0.2843(5)
C3 C 0.5750(12) 0.6137(9) 0.1952(5)
C4 C 0.6882(11) 0.5474(9) 0.1281(4)
C5 C 0.8348(12) 0.4156(9) 0.1535(4)
C12 C 0.6557(12) 0.6105(10) 0.0314(5)
Cu6 Cu 0.81190(11) 0.31710(8) 0.43707(4)
H1 H 0.458894 0.718696 0.178141
H2 H 0.45383 0.816622 0.0417696
H4 H 0.98247 0.245632 0.262484
H5 H 0.925798 0.362251 0.10305
H7 H 0.525502 0.592053 0.336364
Cu1 Cu 0.37489(10) 0.95805(8) 0.58656(4)
O3 O 0.6786(6) 0.9776(5) 0.5464(3)
N2 N 0.4278(8) 0.8975(6) 0.7166(3)
C6 C 0.5606(10) 0.7638(8) 0.7474(4)
C7 C 0.4996(11) 0.7946(9) 0.9008(4)
C8 C 0.3297(12) 0.9799(9) 0.7758(4)
C9 C 0.6016(11) 0.7105(9) 0.8385(4)
C10 C 0.5334(12) 0.7427(9) 0.9966(4)
C11 C 0.3649(13) 0.9343(9) 0.8680(4)
O12 O 0.4868(6) 0.7440(5) 0.5649(3)
H6 H 0.638614 0.694978 0.699521
H9 H 0.712615 0.603895 0.860487
H10 H 0.740089 0.541817 0.984942
O7 O 0.8420(7) 0.2241(5) 0.5662(3)
O8 O 0.8093(7) 0.0009(6) 0.7125(3)
O13 O 0.8922(6) 0.6450(5) 0.5780(3)
O8_2 O 0.1907(7) 0.9991(6) 0.2875(3)
O2 O 0.9153(6) 0.0995(5) 0.4141(3)
N2_2 N 0.5722(8) 0.1025(6) 0.2834(3)
C6_2 C 0.4394(10) 0.2362(8) 0.2526(4)
C7_2 C 0.5004(11) 0.2054(9) 0.0992(4)
C8_2 C 0.6703(12) 0.0201(9) 0.2242(4)
C9_2 C 0.3984(11) 0.2895(9) 0.1615(4)
C10_2 C 0.4666(12) 0.2573(9) 0.0034(4)
C11_2 C 0.6351(13) 0.0657(9) 0.1320(4)
H6_2 H 0.361386 0.305022 0.300479
H9_2 H 0.287385 0.396105 0.139513
H10_2 H 0.259911 0.458183 0.0150579
C1_2 C 0.1332(11) 0.6496(9) 0.7562(4)
C2_2 C 0.3855(11) 0.4579(9) 0.7157(5)
C3_2 C 0.4250(12) 0.3863(9) 0.8048(5)
C4_2 C 0.3118(11) 0.4526(9) 0.8719(4)
C5_2 C 0.1652(12) 0.5844(9) 0.8465(4)
C12_2 C 0.3443(12) 0.3895(10) 0.9686(5)
H1_2 H 0.541106 0.281304 0.821859
H2_2 H 0.54617 0.183378 0.95823
H4_2 H 0.0175296 0.754368 0.737516
H5_2 H 0.0742022 0.637749 0.89695
H7_2 H 0.474498 0.407947 0.663636
Mo1_2 Mo 0.70233(7) 0.68554(6) 0.50587(3)
O1_2 O 0.7167(7) 0.8225(5) 0.4082(3)
O5_2 O 0.7020(7) 0.5159(5) 0.4705(3)
H3_2 H 0.712454 0.992526 0.0859878
H8_2 H 0.780934 0.914329 0.248306
loop_
_geom_bond_atom_site_label_1
_geom_bond_atom_site_label_2
_geom_bond_site_symmetry_1
_geom_bond_site_symmetry_2
Mo1 O1 1_555 1_555
Cu2 O5 1_555 1_555
O4 Mo1 1_555 1_555
O5 Mo1 1_555 1_555
O6 Mo1 1_555 1_555
Mo4 O14 1_555 1_555
O9 Cu2 1_555 1_555
O14 Cu2 1_555 1_555
N3 Cu2 1_555 1_555
O4 Cu3 1_555 1_555
Cu3 O11 1_555 1_555
N1 C1 1_555 1_555
C1 C5 1_555 1_555
C2 N1 1_555 1_555
C3 C2 1_555 1_555
C4 C3 1_555 1_555
C5 C4 1_555 1_555
C12 C4 1_555 1_555
Cu6 N1 1_555 1_555
C3 H1 1_555 1_555
C1 H4 1_555 1_555
C5 H5 1_555 1_555
C2 H7 1_555 1_555
O9 Cu1 1_555 1_555
O3 Cu1 1_555 1_555
N2 Cu1 1_555 1_555
C6 N2 1_555 1_555
C7 C9 1_555 1_555
C8 N2 1_555 1_555
C9 C6 1_555 1_555
C10 C7 1_555 1_555
C11 C7 1_555 1_555
O12 Cu1 1_555 1_555
C8 C11 1_555 1_555
C6 H6 1_555 1_555
C9 H9 1_555 1_555
O7 Mo3 1_555 1_555
O8 Mo3 1_555 1_555
O7 Cu6 1_555 1_555
O8_2 Mo4 1_555 1_555
O2 Cu3 1_555 1_555
N2_2 Cu3 1_555 1_555
C6_2 N2_2 1_555 1_555
C7_2 C9_2 1_555 1_555
C8_2 N2_2 1_555 1_555
C9_2 C6_2 1_555 1_555
C10_2 C7_2 1_555 1_555
C11_2 C7_2 1_555 1_555
Cu6 O2 1_555 1_555
C8_2 C11_2 1_555 1_555
C6_2 H6_2 1_555 1_555
C9_2 H9_2 1_555 1_555
N3 C1_2 1_555 1_555
C1_2 C5_2 1_555 1_555
C2_2 N3 1_555 1_555
C3_2 C2_2 1_555 1_555
C4_2 C3_2 1_555 1_555
C5_2 C4_2 1_555 1_555
C12_2 C4_2 1_555 1_555
C3_2 H1_2 1_555 1_555
C1_2 H4_2 1_555 1_555
C5_2 H5_2 1_555 1_555
C2_2 H7_2 1_555 1_555
Mo1_2 O1_2 1_555 1_555
Cu6 O5_2 1_555 1_555
O12 Mo1_2 1_555 1_555
O5_2 Mo1_2 1_555 1_555
O13 Mo1_2 1_555 1_555

#END
