
###############################################################################
#
# This file contains modified crystal structure data generated from the
# MOF subset of the Cambridge Structural Database (CSD) v543 
# hosted by the Cambridge Crystallographic Data Centre (CCDC).
#
# This work is licensed under the Creative Commons
# Attribution-NonCommercial-ShareAlike 4.0 International License.
# To view a copy of this license, visit
# http://creativecommons.org/licenses/by-nc-sa/4.0/
# or send a letter to
# Creative Commons, PO Box 1866, Mountain View, CA 94042, USA.
#
# CIF created using the CSD Python API on 29 September 2022
# The structure has been converted into the P1 space group
# The structure has a 3D framework
# The original CSD entry NENFEU is in the monoclinic crystal system
# The framework has been calculated to contain at least 10.0% void space
# The void calculation uses a probe of radius 1.32A, grid spacing 0.4
# H atom positions have been added when not included in the experimental data
#
###############################################################################

data_NENFEU
_chemical_formula_moiety         '(C108 H68 Ho4 O26)n'
_symmetry_cell_setting           triclinic
_symmetry_space_group_name_H-M   'P 1'
_symmetry_Int_Tables_number      1
_space_group_name_Hall           'P 1'
loop_
_symmetry_equiv_pos_site_id
_symmetry_equiv_pos_as_xyz
1 x,y,z
_cell_length_a                   17.5782(4)
_cell_length_b                   28.6807(5)
_cell_length_c                   9.5889(2)
_cell_angle_alpha                90
_cell_angle_beta                 101.956(2)
_cell_angle_gamma                90
_cell_volume                     4729.42
loop_
_atom_site_label
_atom_site_type_symbol
_atom_site_fract_x
_atom_site_fract_y
_atom_site_fract_z
Ho1 Ho 0.749138(13) 0.281022(8) 0.75532(3)
O1 O 0.74766(19) 0.19961(12) 0.7558(3)
O2 O 0.6708(2) 0.27899(12) 0.5428(4)
O3 O 0.64145(17) 0.23556(12) 0.3475(4)
O6 O 0.1986(2) 0.64535(10) 0.2913(4)
O7 O 0.3033(2) 0.64477(10) 0.2020(4)
C1 C 0.1794(2) 0.34788(14) 0.2120(5)
C2 C 0.1801(2) 0.39653(14) 0.2088(6)
H1 H 0.1337 0.4126 0.1784
C3 C 0.24939(19) 0.42145(16) 0.2505(4)
C4 C 0.3186(2) 0.39649(15) 0.2922(5)
H2 H 0.3652 0.4126 0.3196
C5 C 0.3190(2) 0.34778(14) 0.2932(5)
C6 C 0.24915(18) 0.32361(16) 0.2529(4)
H3 H 0.2491 0.2912 0.2531
C7 C 0.1041(2) 0.32357(13) 0.1692(6)
C8 C 0.0851(3) 0.28564(18) 0.2492(8)
H4 H 0.1224 0.2732 0.3229
C9 C 0.0108(2) 0.26697(18) 0.2181(5)
C12 C 0.0489(3) 0.33873(15) 0.0537(5)
C14 C 0.3945(2) 0.32341(14) 0.3369(5)
C15 C 0.4506(2) 0.33891(15) 0.4533(5)
H8 H 0.4385 0.3633 0.5088
C16 C 0.5225(2) 0.31902(15) 0.4873(5)
H9 H 0.5581 0.3296 0.5666
C17 C 0.5432(3) 0.28334(12) 0.4055(6)
C18 C 0.4877(3) 0.26664(18) 0.2901(6)
H10 H 0.5006 0.2426 0.2341
C19 C 0.4143(3) 0.28547(17) 0.2589(7)
H11 H 0.3772 0.2729 0.1851
C20 C 0.6247(2) 0.26445(14) 0.4334(5)
C21 C 0.2498(2) 0.47341(16) 0.2502(5)
C22 C 0.1901(3) 0.49856(16) 0.2882(7)
H12 H 0.1495 0.4827 0.3159
C23 C 0.1896(3) 0.54638(15) 0.2857(7)
H13 H 0.1480 0.5625 0.3093
C24 C 0.25053(19) 0.57106(15) 0.2484(4)
C25 C 0.3099(3) 0.54576(15) 0.2109(7)
H14 H 0.3509 0.5615 0.1844
C26 C 0.3098(3) 0.49782(16) 0.2116(7)
H15 H 0.3506 0.4817 0.1858
C27 C 0.25092(19) 0.62330(15) 0.2475(4)
Ho3 Ho 0.250862(13) 0.718978(8) 0.24468(3)
Ho5 Ho 0.749138(13) 0.218978(8) 0.25532(3)
O8 O 0.64145(17) 0.26444(12) 0.8475(4)
O9 O 0.85646(18) 0.26386(12) 0.6645(4)
O10 O 0.82764(19) 0.27909(11) 0.9709(4)
O11 O 0.8014(2) 0.35465(10) 0.7087(4)
O12 O 0.6967(2) 0.35523(10) 0.7980(4)
H16 H 0.768255 0.187805 0.673547
H17 H 0.780614 0.187964 0.84589
O4 O 0.85646(18) 0.23614(12) 0.1645(4)
H5 H 0.9983 0.2429 0.2743
C10 C 0.9547(3) 0.28333(13) 0.1046(5)
C11 C 0.9758(2) 0.31902(16) 0.0204(5)
C13 C 0.8741(2) 0.26451(13) 0.0770(5)
H6 H 0.9401 0.3295 0.9411
O4_2 O 0.14354(18) 0.73614(12) 0.3355(4)
O5 O 0.17236(19) 0.77909(11) 0.5291(4)
H5_2 H 0.0017 0.7429 0.2257
C10_2 C 0.0453(3) 0.78333(13) 0.3954(5)
C11_2 C 0.0242(2) 0.81902(16) 0.4796(5)
H6_2 H 0.0599 0.8295 0.5589
C13_2 C 0.1259(2) 0.76451(13) 0.4230(5)
Ho2 Ho 0.250862(13) 0.781022(8) 0.74468(3)
O6_2 O 0.8014(2) 0.14535(10) 0.2087(4)
O7_2 O 0.6967(2) 0.14477(10) 0.2980(4)
C23_2 C 0.8104(3) 0.04638(15) 0.2143(7)
H13_2 H 0.8520 0.0625 0.1907
C24_2 C 0.74947(19) 0.07106(15) 0.2516(4)
C25_2 C 0.6901(3) 0.04576(15) 0.2891(7)
H14_2 H 0.6491 0.0615 0.3156
C27_2 C 0.74908(19) 0.12330(15) 0.2525(4)
O3_2 O 0.35855(17) 0.73556(12) 0.1525(4)
C1_2 C 0.8206(2) 0.84788(14) 0.2880(5)
C2_2 C 0.8199(2) 0.89653(14) 0.2912(6)
H1_2 H 0.8663 0.9126 0.3216
C3_2 C 0.75061(19) 0.92145(16) 0.2495(4)
C4_2 C 0.6814(2) 0.89649(15) 0.2078(5)
H2_2 H 0.6348 0.9126 0.1804
C5_2 C 0.6810(2) 0.84778(14) 0.2068(5)
C6_2 C 0.75085(18) 0.82361(16) 0.2471(4)
H3_2 H 0.7509 0.7912 0.2469
C7_2 C 0.8959(2) 0.82357(13) 0.3308(6)
C8_2 C 0.9149(3) 0.78564(18) 0.2508(8)
H4_2 H 0.8776 0.7732 0.1771
C9_2 C 0.9892(2) 0.76697(18) 0.2819(5)
C12_2 C 0.9511(3) 0.83873(15) 0.4463(5)
H7 H 0.9387 0.8628 0.5028
C14_2 C 0.6055(2) 0.82341(14) 0.1631(5)
C15_2 C 0.5494(2) 0.83891(15) 0.0467(5)
C16_2 C 0.4775(2) 0.81902(15) 0.0127(5)
C17_2 C 0.4568(3) 0.78334(12) 0.0945(6)
C18_2 C 0.5123(3) 0.76664(18) 0.2099(6)
H10_2 H 0.4994 0.7426 0.2659
C19_2 C 0.5857(3) 0.78547(17) 0.2411(7)
H11_2 H 0.6228 0.7729 0.3149
C20_2 C 0.3753(2) 0.76445(14) 0.0666(5)
C21_2 C 0.7502(2) 0.97341(16) 0.2498(5)
C22_2 C 0.8099(3) 0.99856(16) 0.2118(7)
H12_2 H 0.8505 0.9827 0.1841
C26_2 C 0.6902(3) 0.99782(16) 0.2884(7)
H15_2 H 0.6494 0.9817 0.3142
O1_2 O 0.25234(19) 0.69961(12) 0.7442(3)
O2_2 O 0.3292(2) 0.77899(12) 0.9572(4)
H8_2 H 0.5615 0.8633 0.9912
H9_2 H 0.4419 0.8296 0.9334
O8_2 O 0.35855(17) 0.76444(12) 0.6525(4)
O9_2 O 0.14354(18) 0.76386(12) 0.8355(4)
O11_2 O 0.1986(2) 0.85465(10) 0.7913(4)
O12_2 O 0.3033(2) 0.85523(10) 0.7020(4)
H16_2 H 0.231745 0.687805 0.826453
H17_2 H 0.219386 0.687964 0.65411
O5_2 O 0.17236(19) 0.72091(11) 0.0291(4)
H6_3 H 0.0599 0.6705 0.0589
H5_3 H 0.0017 0.7571 0.7257
C10_3 C 0.0453(3) 0.71667(13) 0.8954(5)
C11_3 C 0.0242(2) 0.68098(16) 0.9796(5)
C13_3 C 0.1259(2) 0.73549(13) 0.9230(5)
O1_3 O 0.25234(19) 0.80039(12) 0.2442(3)
O2_3 O 0.3292(2) 0.72101(12) 0.4572(4)
C1_3 C 0.8206(2) 0.65212(14) 0.7880(5)
C2_3 C 0.8199(2) 0.60347(14) 0.7912(6)
H1_3 H 0.8663 0.5874 0.8216
C3_3 C 0.75061(19) 0.57855(16) 0.7495(4)
C4_3 C 0.6814(2) 0.60351(15) 0.7078(5)
H2_3 H 0.6348 0.5874 0.6804
C5_3 C 0.6810(2) 0.65222(14) 0.7068(5)
C6_3 C 0.75085(18) 0.67639(16) 0.7471(4)
H3_3 H 0.7509 0.7088 0.7469
C7_3 C 0.8959(2) 0.67643(13) 0.8308(6)
C8_3 C 0.9149(3) 0.71436(18) 0.7508(8)
H4_3 H 0.8776 0.7268 0.6771
C9_3 C 0.9892(2) 0.73303(18) 0.7819(5)
C12_3 C 0.9511(3) 0.66127(15) 0.9463(5)
C14_3 C 0.6055(2) 0.67659(14) 0.6631(5)
C15_3 C 0.5494(2) 0.66109(15) 0.5467(5)
H8_3 H 0.5615 0.6367 0.4912
C16_3 C 0.4775(2) 0.68098(15) 0.5127(5)
H9_3 H 0.4419 0.6704 0.4334
C17_3 C 0.4568(3) 0.71666(12) 0.5945(6)
C18_3 C 0.5123(3) 0.73336(18) 0.7099(6)
H10_3 H 0.4994 0.7574 0.7659
C19_3 C 0.5857(3) 0.71453(17) 0.7411(7)
H11_3 H 0.6228 0.7271 0.8149
C20_3 C 0.3753(2) 0.73555(14) 0.5666(5)
C21_3 C 0.7502(2) 0.52659(16) 0.7498(5)
C22_3 C 0.8099(3) 0.50144(16) 0.7118(7)
H12_3 H 0.8505 0.5173 0.6841
C23_3 C 0.8104(3) 0.45362(15) 0.7143(7)
H13_3 H 0.8520 0.4375 0.6907
C24_3 C 0.74947(19) 0.42894(15) 0.7516(4)
C25_3 C 0.6901(3) 0.45424(15) 0.7891(7)
H14_3 H 0.6491 0.4385 0.8156
C26_3 C 0.6902(3) 0.50218(16) 0.7884(7)
H15_3 H 0.6494 0.5183 0.8142
C27_3 C 0.74908(19) 0.37670(15) 0.7525(4)
H16_3 H 0.231745 0.812195 0.326453
H17_3 H 0.219386 0.812036 0.15411
O1_4 O 0.74766(19) 0.30039(12) 0.2558(3)
O2_4 O 0.6708(2) 0.22101(12) 0.0428(4)
H8_4 H 0.4385 0.1367 0.0088
H9_4 H 0.5581 0.1704 0.0666
O10_2 O 0.82764(19) 0.22091(11) 0.4709(4)
H16_4 H 0.768255 0.312195 0.173547
H17_4 H 0.780614 0.312036 0.34589
C1_4 C 0.1794(2) 0.15212(14) 0.7120(5)
C2_4 C 0.1801(2) 0.10347(14) 0.7088(6)
H1_4 H 0.1337 0.0874 0.6784
C3_4 C 0.24939(19) 0.07855(16) 0.7505(4)
C4_4 C 0.3186(2) 0.10351(15) 0.7922(5)
H2_4 H 0.3652 0.0874 0.8196
C5_4 C 0.3190(2) 0.15222(14) 0.7932(5)
C6_4 C 0.24915(18) 0.17639(16) 0.7529(4)
H3_4 H 0.2491 0.2088 0.7531
C7_4 C 0.1041(2) 0.17643(13) 0.6692(6)
C8_4 C 0.0851(3) 0.21436(18) 0.7492(8)
H4_4 H 0.1224 0.2268 0.8229
C9_4 C 0.0108(2) 0.23303(18) 0.7181(5)
C12_4 C 0.0489(3) 0.16127(15) 0.5537(5)
H7_2 H 0.0613 0.1372 0.4972
C14_4 C 0.3945(2) 0.17659(14) 0.8369(5)
C15_4 C 0.4506(2) 0.16109(15) 0.9533(5)
C16_4 C 0.5225(2) 0.18098(15) 0.9873(5)
C17_4 C 0.5432(3) 0.21666(12) 0.9055(6)
C18_4 C 0.4877(3) 0.23336(18) 0.7901(6)
H10_4 H 0.5006 0.2574 0.7341
C19_4 C 0.4143(3) 0.21453(17) 0.7589(7)
H11_4 H 0.3772 0.2271 0.6851
C20_4 C 0.6247(2) 0.23555(14) 0.9334(5)
C21_4 C 0.2498(2) 0.02659(16) 0.7502(5)
C22_4 C 0.1901(3) 0.00144(16) 0.7882(7)
H12_4 H 0.1495 0.0173 0.8159
C26_4 C 0.3098(3) 0.00218(16) 0.7116(7)
H15_4 H 0.3506 0.0183 0.6858
C23_4 C 0.1896(3) 0.95362(15) 0.7857(7)
H13_4 H 0.1480 0.9375 0.8093
C24_4 C 0.25053(19) 0.92894(15) 0.7484(4)
C25_4 C 0.3099(3) 0.95424(15) 0.7109(7)
H14_4 H 0.3509 0.9385 0.6844
C27_4 C 0.25092(19) 0.87670(15) 0.7475(4)
H5_4 H 0.9983 0.2571 0.7743
C10_4 C 0.9547(3) 0.21667(13) 0.6046(5)
C11_4 C 0.9758(2) 0.18098(16) 0.5204(5)
H6_4 H 0.9401 0.1705 0.4411
C13_4 C 0.8741(2) 0.23549(13) 0.5770(5)
H7_3 H 0.0613 0.3628 0.9972
H7_4 H 0.9387 0.6372 0.0028
loop_
_geom_bond_atom_site_label_1
_geom_bond_atom_site_label_2
_geom_bond_site_symmetry_1
_geom_bond_site_symmetry_2
Ho1 O1 1_555 1_555
O2 Ho1 1_555 1_555
O3 C20 1_555 1_555
O6 C27 1_555 1_555
O7 C27 1_555 1_555
C1 C2 1_555 1_555
C2 H1 1_555 1_555
C3 C2 1_555 1_555
C4 C3 1_555 1_555
H2 C4 1_555 1_555
C5 C4 1_555 1_555
C6 C1 1_555 1_555
H3 C6 1_555 1_555
C7 C1 1_555 1_555
C8 C7 1_555 1_555
H4 C8 1_555 1_555
C9 C8 1_555 1_555
C12 C7 1_555 1_555
C14 C5 1_555 1_555
C15 C14 1_555 1_555
H8 C15 1_555 1_555
C16 C15 1_555 1_555
H9 C16 1_555 1_555
C17 C16 1_555 1_555
C18 C17 1_555 1_555
H10 C18 1_555 1_555
C19 C14 1_555 1_555
H11 C19 1_555 1_555
C20 O2 1_555 1_555
C21 C3 1_555 1_555
C22 C21 1_555 1_555
H12 C22 1_555 1_555
C23 C22 1_555 1_555
H13 C23 1_555 1_555
C24 C23 1_555 1_555
C25 C24 1_555 1_555
H14 C25 1_555 1_555
C26 C21 1_555 1_555
H15 C26 1_555 1_555
C27 C24 1_555 1_555
Ho3 O6 1_555 1_555
Ho5 O3 1_555 1_555
O8 Ho1 1_555 1_555
O9 Ho1 1_555 1_555
O10 Ho1 1_555 1_555
O11 Ho1 1_555 1_555
O12 Ho1 1_555 1_555
O7 Ho3 1_555 1_555
C5 C6 1_555 1_555
C17 C20 1_555 1_555
C18 C19 1_555 1_555
C25 C26 1_555 1_555
O1 H16 1_555 1_555
O1 H17 1_555 1_555
O4 C13 1_555 1_555
C11 C10 1_555 1_555
C13 C10 1_555 1_555
Ho5 O4 1_555 1_555
O4_2 C13_2 1_555 1_555
O5 C13_2 1_555 1_555
C11_2 C10_2 1_555 1_555
H6_2 C11_2 1_555 1_555
C13_2 C10_2 1_555 1_555
Ho2 O5 1_555 1_555
Ho3 O4_2 1_555 1_555
O6_2 C27_2 1_555 1_555
O7_2 C27_2 1_555 1_555
H13_2 C23_2 1_555 1_555
C24_2 C23_2 1_555 1_555
C25_2 C24_2 1_555 1_555
H14_2 C25_2 1_555 1_555
C27_2 C24_2 1_555 1_555
Ho5 O6_2 1_555 1_555
O7_2 Ho5 1_555 1_555
O3_2 C20_2 1_555 1_555
C1_2 C2_2 1_555 1_555
C2_2 H1_2 1_555 1_555
C3_2 C2_2 1_555 1_555
C4_2 C3_2 1_555 1_555
H2_2 C4_2 1_555 1_555
C5_2 C4_2 1_555 1_555
C6_2 C1_2 1_555 1_555
H3_2 C6_2 1_555 1_555
C7_2 C1_2 1_555 1_555
C8_2 C7_2 1_555 1_555
H4_2 C8_2 1_555 1_555
C9_2 C8_2 1_555 1_555
C12_2 C7_2 1_555 1_555
H7 C12_2 1_555 1_555
C14_2 C5_2 1_555 1_555
C15_2 C14_2 1_555 1_555
C16_2 C15_2 1_555 1_555
C17_2 C16_2 1_555 1_555
C18_2 C17_2 1_555 1_555
H10_2 C18_2 1_555 1_555
C19_2 C14_2 1_555 1_555
H11_2 C19_2 1_555 1_555
C21_2 C3_2 1_555 1_555
C22_2 C21_2 1_555 1_555
H12_2 C22_2 1_555 1_555
C26_2 C21_2 1_555 1_555
H15_2 C26_2 1_555 1_555
Ho3 O3_2 1_555 1_555
C5_2 C6_2 1_555 1_555
C17_2 C20_2 1_555 1_555
C18_2 C19_2 1_555 1_555
Ho2 O1_2 1_555 1_555
O2_2 Ho2 1_555 1_555
O8_2 Ho2 1_555 1_555
O9_2 Ho2 1_555 1_555
O11_2 Ho2 1_555 1_555
O12_2 Ho2 1_555 1_555
O1_2 H16_2 1_555 1_555
O1_2 H17_2 1_555 1_555
Ho3 O5_2 1_555 1_555
O9_2 C13_3 1_555 1_555
C11_3 C10_3 1_555 1_555
C13_3 C10_3 1_555 1_555
Ho3 O1_3 1_555 1_555
O2_3 Ho3 1_555 1_555
O8_2 C20_3 1_555 1_555
O11 C27_3 1_555 1_555
O12 C27_3 1_555 1_555
C1_3 C2_3 1_555 1_555
C2_3 H1_3 1_555 1_555
C3_3 C2_3 1_555 1_555
C4_3 C3_3 1_555 1_555
H2_3 C4_3 1_555 1_555
C5_3 C4_3 1_555 1_555
C6_3 C1_3 1_555 1_555
H3_3 C6_3 1_555 1_555
C7_3 C1_3 1_555 1_555
C8_3 C7_3 1_555 1_555
H4_3 C8_3 1_555 1_555
C9_3 C8_3 1_555 1_555
C12_3 C7_3 1_555 1_555
C14_3 C5_3 1_555 1_555
C15_3 C14_3 1_555 1_555
H8_3 C15_3 1_555 1_555
C16_3 C15_3 1_555 1_555
H9_3 C16_3 1_555 1_555
C17_3 C16_3 1_555 1_555
C18_3 C17_3 1_555 1_555
H10_3 C18_3 1_555 1_555
C19_3 C14_3 1_555 1_555
H11_3 C19_3 1_555 1_555
C20_3 O2_3 1_555 1_555
C21_3 C3_3 1_555 1_555
C22_3 C21_3 1_555 1_555
H12_3 C22_3 1_555 1_555
C23_3 C22_3 1_555 1_555
H13_3 C23_3 1_555 1_555
C24_3 C23_3 1_555 1_555
C25_3 C24_3 1_555 1_555
H14_3 C25_3 1_555 1_555
C26_3 C21_3 1_555 1_555
H15_3 C26_3 1_555 1_555
C27_3 C24_3 1_555 1_555
C5_3 C6_3 1_555 1_555
C17_3 C20_3 1_555 1_555
C18_3 C19_3 1_555 1_555
C25_3 C26_3 1_555 1_555
O1_3 H16_3 1_555 1_555
O1_3 H17_3 1_555 1_555
Ho5 O1_4 1_555 1_555
O2_4 Ho5 1_555 1_555
O10_2 Ho5 1_555 1_555
O1_4 H16_4 1_555 1_555
O1_4 H17_4 1_555 1_555
O8 C20_4 1_555 1_555
C1_4 C2_4 1_555 1_555
C2_4 H1_4 1_555 1_555
C3_4 C2_4 1_555 1_555
C4_4 C3_4 1_555 1_555
H2_4 C4_4 1_555 1_555
C5_4 C4_4 1_555 1_555
C6_4 C1_4 1_555 1_555
H3_4 C6_4 1_555 1_555
C7_4 C1_4 1_555 1_555
C8_4 C7_4 1_555 1_555
H4_4 C8_4 1_555 1_555
C9_4 C8_4 1_555 1_555
C12_4 C7_4 1_555 1_555
H7_2 C12_4 1_555 1_555
C14_4 C5_4 1_555 1_555
C15_4 C14_4 1_555 1_555
C16_4 C15_4 1_555 1_555
C17_4 C16_4 1_555 1_555
C18_4 C17_4 1_555 1_555
H10_4 C18_4 1_555 1_555
C19_4 C14_4 1_555 1_555
H11_4 C19_4 1_555 1_555
C21_4 C3_4 1_555 1_555
C22_4 C21_4 1_555 1_555
H12_4 C22_4 1_555 1_555
C26_4 C21_4 1_555 1_555
H15_4 C26_4 1_555 1_555
C5_4 C6_4 1_555 1_555
C17_4 C20_4 1_555 1_555
C18_4 C19_4 1_555 1_555
O11_2 C27_4 1_555 1_555
O12_2 C27_4 1_555 1_555
H13_4 C23_4 1_555 1_555
C24_4 C23_4 1_555 1_555
C25_4 C24_4 1_555 1_555
H14_4 C25_4 1_555 1_555
C27_4 C24_4 1_555 1_555
O9 C13_4 1_555 1_555
O10_2 C13_4 1_555 1_555
C11_4 C10_4 1_555 1_555
H6_4 C11_4 1_555 1_555
C13_4 C10_4 1_555 1_555

#END
