
###############################################################################
#
# This file contains modified crystal structure data generated from the
# MOF subset of the Cambridge Structural Database (CSD) v543 
# hosted by the Cambridge Crystallographic Data Centre (CCDC).
#
# This work is licensed under the Creative Commons
# Attribution-NonCommercial-ShareAlike 4.0 International License.
# To view a copy of this license, visit
# http://creativecommons.org/licenses/by-nc-sa/4.0/
# or send a letter to
# Creative Commons, PO Box 1866, Mountain View, CA 94042, USA.
#
# CIF created using the CSD Python API on 29 September 2022
# The structure has been converted into the P1 space group
# The structure has a 3D framework
# The original CSD entry NENLIE is in the cubic crystal system
# The framework has been calculated to contain at least 10.0% void space
# The void calculation uses a probe of radius 1.32A, grid spacing 0.4
# The framework is charged, counterions have been retained in the structure
#
###############################################################################

data_NENLIE
_chemical_formula_moiety         '(C768 H576 N384 O192 Zn36 72+)n'
_symmetry_cell_setting           triclinic
_symmetry_space_group_name_H-M   'P 1'
_symmetry_Int_Tables_number      1
_space_group_name_Hall           'P 1'
loop_
_symmetry_equiv_pos_site_id
_symmetry_equiv_pos_as_xyz
1 x,y,z
_cell_length_a                   30.4393(9)
_cell_length_b                   30.4393(9)
_cell_length_c                   30.4393(9)
_cell_angle_alpha                90
_cell_angle_beta                 90
_cell_angle_gamma                90
_cell_volume                     28203.6
loop_
_atom_site_label
_atom_site_type_symbol
_atom_site_fract_x
_atom_site_fract_y
_atom_site_fract_z
Zn1 Zn 0.5000 0.2500 0.02625(6)
N1 N 0.4725(2) 0.0934(2) 0.1052(2)
O1 O 0.5170(2) 0.0620(2) 0.0532(2)
C1 C 0.4398(2) 0.0075(3) 0.1733(2)
H1 H 0.4224 0.0180 0.1984
C2 C 0.4624(3) 0.0181(3) 0.0948(3)
H2 H 0.4456 0.0070 0.0698
C3 C 0.4886(3) 0.0585(3) 0.0799(3)
C5 C 0.4754(3) 0.1621(3) 0.0675(3)
H4 H 0.4520 0.1568 0.0487
H5 H 0.5450 0.0010 0.1545
N3 N 0.5326(3) 0.1906(3) 0.0965(3)
C7 C 0.4303(2) 0.0355(3) 0.1294(3)
H6 H 0.4000 0.0311 0.1196
N6 N 0.4995(2) 0.1969(2) 0.0668(2)
N7 N 0.4885(2) 0.1354(2) 0.0983(2)
C11 C 0.4393(3) 0.0837(3) 0.1368(3)
C12 C 0.4894(3) 0.0107(3) 0.1818(3)
H9 H 0.5002 0.0209 0.2086
O3 O 0.4202(3) 0.1082(3) 0.1589(3)
C13 C 0.5240(3) 0.1532(5) 0.1154(4)
H10 H 0.5405 0.1409 0.1380
N9 N 0.5275(2) 0.4066(2) 0.1052(2)
O5 O 0.4830(2) 0.4380(2) 0.0532(2)
C17 C 0.5602(2) 0.4925(3) 0.1733(2)
H13 H 0.5776 0.4820 0.1984
N10 N 0.5242(3) 0.5972(3) 0.1887(3)
C18 C 0.5376(3) 0.4819(3) 0.0948(3)
H14 H 0.5544 0.4930 0.0698
C19 C 0.5114(3) 0.4415(3) 0.0799(3)
O6 O 0.5787(2) 0.5705(3) 0.2354(2)
C20 C 0.5699(3) 0.5416(3) 0.1623(3)
H15 H 0.6004 0.5452 0.1525
C21 C 0.5246(3) 0.3379(3) 0.0675(3)
H16 H 0.5480 0.3432 0.0487
C22 C 0.4854(3) 0.5006(3) 0.1519(3)
H17 H 0.4550 0.4990 0.1545
N11 N 0.4674(3) 0.3094(3) 0.0965(3)
N12 N 0.5090(3) 0.6278(3) 0.2160(4)
C23 C 0.5697(2) 0.4645(3) 0.1294(3)
H18 H 0.6000 0.4689 0.1196
N13 N 0.4984(3) 0.6895(3) 0.2514(3)
N14 N 0.5005(2) 0.3031(2) 0.0668(2)
C24 C 0.5083(3) 0.5172(3) 0.1107(3)
H19 H 0.4869 0.5254 0.0881
C25 C 0.5612(4) 0.5692(3) 0.2006(3)
N15 N 0.5115(2) 0.3646(2) 0.0983(2)
C26 C 0.5365(4) 0.5575(3) 0.1245(3)
H20 H 0.5528 0.5688 0.0992
C27 C 0.5607(3) 0.4163(3) 0.1368(3)
C28 C 0.5106(3) 0.4893(3) 0.1818(3)
H21 H 0.4998 0.4791 0.2086
O7 O 0.5798(3) 0.3918(3) 0.1589(3)
O8 O 0.4821(3) 0.6152(3) 0.1284(3)
C29 C 0.4760(3) 0.3468(5) 0.1154(4)
H22 H 0.4595 0.3591 0.1380
C30 C 0.5111(3) 0.5924(4) 0.1448(4)
C31 C 0.5232(4) 0.6692(4) 0.2212(6)
H23 H 0.5466 0.6818 0.2061
N16 N 0.4680(3) 0.6573(4) 0.2671(5)
C32 C 0.4754(4) 0.6228(5) 0.2440(6)
H24 H 0.4591 0.5970 0.2465
Zn3 Zn 0.5000 0.7500 0.27625(6)
N17 N 0.4395(3) 0.2484(3) 0.0014(3)
N18 N 0.5605(3) 0.2516(3) 0.0014(3)
N2 N 0.4758(3) 0.9028(3) 0.1887(3)
O2 O 0.4213(2) 0.9295(3) 0.2354(2)
C4 C 0.4301(3) 0.9584(3) 0.1623(3)
H3 H 0.3996 0.9548 0.1525
C6 C 0.5146(3) 0.9994(3) 0.1519(3)
N4 N 0.4910(3) 0.8722(3) 0.2160(4)
N5 N 0.5016(3) 0.8105(3) 0.2514(3)
C8 C 0.4917(3) 0.9828(3) 0.1107(3)
H7 H 0.5131 0.9746 0.0881
C9 C 0.4388(4) 0.9308(3) 0.2006(3)
C10 C 0.4635(4) 0.9425(3) 0.1245(3)
H8 H 0.4472 0.9312 0.0992
O4 O 0.5179(3) 0.8848(3) 0.1284(3)
C14 C 0.4889(3) 0.9076(4) 0.1448(4)
C15 C 0.4768(4) 0.8308(4) 0.2212(6)
H11 H 0.4534 0.8182 0.2061
N8 N 0.5320(3) 0.8427(4) 0.2671(5)
C16 C 0.5246(4) 0.8772(5) 0.2440(6)
H12 H 0.5409 0.9030 0.2465
Zn2 Zn -0.0000 0.7500 0.52625(6)
N1_2 N 0.6566(2) 0.7775(2) 0.3552(2)
O1_2 O 0.6880(2) 0.7330(2) 0.3032(2)
C1_2 C 0.7425(3) 0.8102(2) 0.4233(2)
H1_2 H 0.7320 0.8276 0.4484
N2_2 N 0.8472(3) 0.7742(3) 0.4387(3)
C2_2 C 0.7319(3) 0.7876(3) 0.3448(3)
H2_2 H 0.7430 0.8044 0.3198
C3_2 C 0.6915(3) 0.7614(3) 0.3299(3)
O2_2 O 0.8205(3) 0.8287(2) 0.4854(2)
C4_2 C 0.7916(3) 0.8199(3) 0.4123(3)
H3_2 H 0.7952 0.8504 0.4025
C5_2 C 0.5879(3) 0.7746(3) 0.3175(3)
H4_2 H 0.5932 0.7980 0.2987
C6_2 C 0.7506(3) 0.7354(3) 0.4019(3)
H5_2 H 0.7490 0.7050 0.4045
N3_2 N 0.5594(3) 0.7174(3) 0.3465(3)
N4_2 N 0.8778(3) 0.7590(3) 0.4660(4)
C7_2 C 0.7145(3) 0.8197(2) 0.3794(3)
H6_2 H 0.7189 0.8500 0.3696
N5_2 N 0.9395(3) 0.7484(3) 0.5014(3)
N6_2 N 0.5531(2) 0.7505(2) 0.3168(2)
C8_2 C 0.7672(3) 0.7583(3) 0.3607(3)
H7_2 H 0.7754 0.7369 0.3381
C9_2 C 0.8192(3) 0.8112(4) 0.4506(3)
N7_2 N 0.6146(2) 0.7615(2) 0.3483(2)
C10_2 C 0.8075(3) 0.7865(4) 0.3745(3)
H8_2 H 0.8188 0.8028 0.3492
C11_2 C 0.6663(3) 0.8107(3) 0.3868(3)
C12_2 C 0.7393(3) 0.7606(3) 0.4318(3)
H9_2 H 0.7291 0.7498 0.4586
O3_2 O 0.6418(3) 0.8298(3) 0.4089(3)
O4_2 O 0.8652(3) 0.7321(3) 0.3784(3)
C13_2 C 0.5968(5) 0.7260(3) 0.3654(4)
H10_2 H 0.6091 0.7095 0.3880
C14_2 C 0.8424(4) 0.7611(3) 0.3948(4)
C15_2 C 0.9192(4) 0.7732(4) 0.4712(6)
H11_2 H 0.9318 0.7966 0.4561
N8_2 N 0.9073(4) 0.7180(3) 0.5171(5)
C16_2 C 0.8728(5) 0.7254(4) 0.4940(6)
H12_2 H 0.8470 0.7091 0.4965
N9_2 N 0.3434(2) 0.7225(2) 0.3552(2)
O5_2 O 0.3120(2) 0.7670(2) 0.3032(2)
C17_2 C 0.2575(3) 0.6898(2) 0.4233(2)
H13_2 H 0.2680 0.6724 0.4484
N10_2 N 0.1528(3) 0.7258(3) 0.4387(3)
C18_2 C 0.2681(3) 0.7124(3) 0.3448(3)
H14_2 H 0.2570 0.6956 0.3198
C19_2 C 0.3085(3) 0.7386(3) 0.3299(3)
O6_2 O 0.1795(3) 0.6713(2) 0.4854(2)
C20_2 C 0.2084(3) 0.6801(3) 0.4123(3)
H15_2 H 0.2048 0.6496 0.4025
C21_2 C 0.4121(3) 0.7254(3) 0.3175(3)
H16_2 H 0.4068 0.7020 0.2987
C22_2 C 0.2494(3) 0.7646(3) 0.4019(3)
H17_2 H 0.2510 0.7950 0.4045
N11_2 N 0.4406(3) 0.7826(3) 0.3465(3)
N12_2 N 0.1222(3) 0.7410(3) 0.4660(4)
C23_2 C 0.2855(3) 0.6803(2) 0.3794(3)
H18_2 H 0.2811 0.6500 0.3696
N13_2 N 0.0605(3) 0.7516(3) 0.5014(3)
N14_2 N 0.4469(2) 0.7495(2) 0.3168(2)
C24_2 C 0.2328(3) 0.7417(3) 0.3607(3)
H19_2 H 0.2246 0.7631 0.3381
C25_2 C 0.1808(3) 0.6888(4) 0.4506(3)
N15_2 N 0.3854(2) 0.7385(2) 0.3483(2)
C26_2 C 0.1925(3) 0.7135(4) 0.3745(3)
H20_2 H 0.1812 0.6972 0.3492
C27_2 C 0.3337(3) 0.6893(3) 0.3868(3)
C28_2 C 0.2607(3) 0.7394(3) 0.4318(3)
H21_2 H 0.2709 0.7502 0.4586
O7_2 O 0.3582(3) 0.6702(3) 0.4089(3)
O8_2 O 0.1348(3) 0.7679(3) 0.3784(3)
C29_2 C 0.4032(5) 0.7740(3) 0.3654(4)
H22_2 H 0.3909 0.7905 0.3880
C30_2 C 0.1576(4) 0.7389(3) 0.3948(4)
C31_2 C 0.0808(4) 0.7268(4) 0.4712(6)
H23_2 H 0.0682 0.7034 0.4561
N16_2 N 0.0927(4) 0.7820(3) 0.5171(5)
C32_2 C 0.1272(5) 0.7746(4) 0.4940(6)
H24_2 H 0.1530 0.7909 0.4965
Zn2_2 Zn 1.0000 0.7500 0.52625(6)
N10_3 N 0.0242(3) 0.0972(3) 0.6887(3)
O6_3 O 0.0787(2) 0.0705(3) 0.7354(2)
C20_3 C 0.0699(3) 0.0416(3) 0.6623(3)
H15_3 H 0.1004 0.0452 0.6525
N12_3 N 0.0090(3) 0.1278(3) 0.7160(4)
C24_3 C 0.0083(3) 0.0172(3) 0.6107(3)
C25_3 C 0.0612(4) 0.0692(3) 0.7006(3)
C26_3 C 0.0365(4) 0.0575(3) 0.6245(3)
H20_3 H 0.0528 0.0688 0.5992
C30_3 C 0.0111(3) 0.0924(4) 0.6448(4)
C31_3 C 0.0232(4) 0.1692(4) 0.7212(6)
H23_3 H 0.0466 0.1818 0.7061
Zn3_2 Zn -0.0000 0.2500 0.77625(6)
O1_3 O 0.0170(2) 0.5620(2) 0.5532(2)
C6_3 C 0.0146(3) 0.4994(3) 0.6519(3)
H5_3 H 0.0450 0.5010 0.6545
N3_3 N 0.0326(3) 0.6906(3) 0.5965(3)
N5_3 N 0.0016(3) 0.3105(3) 0.7514(3)
H7_3 H 0.0131 0.4746 0.5881
H9_3 H 0.0002 0.5209 0.7086
O4_3 O 0.0179(3) 0.3848(3) 0.6284(3)
C13_3 C 0.0240(3) 0.6532(5) 0.6154(4)
H10_3 H 0.0405 0.6409 0.6380
N8_3 N 0.0320(3) 0.3427(4) 0.7671(5)
C16_3 C 0.0246(4) 0.3772(5) 0.7440(6)
H12_3 H 0.0409 0.4030 0.7465
N9_3 N 0.0275(2) 0.9066(2) 0.6052(2)
C17_3 C 0.0602(2) 0.9925(3) 0.6733(2)
H13_3 H 0.0776 0.9820 0.6984
C18_3 C 0.0376(3) 0.9819(3) 0.5948(3)
H14_3 H 0.0544 0.9930 0.5698
C19_3 C 0.0114(3) 0.9415(3) 0.5799(3)
C21_3 C 0.0246(3) 0.8379(3) 0.5675(3)
H16_3 H 0.0480 0.8432 0.5487
C23_3 C 0.0697(2) 0.9645(3) 0.6294(3)
H18_3 H 0.1000 0.9689 0.6196
N14_3 N 0.0005(2) 0.8031(2) 0.5668(2)
N15_3 N 0.0115(2) 0.8646(2) 0.5983(2)
C27_3 C 0.0607(3) 0.9163(3) 0.6368(3)
C28_3 C 0.0106(3) 0.9893(3) 0.6818(3)
O7_3 O 0.0798(3) 0.8918(3) 0.6589(3)
C22_3 C 0.9854(3) 0.0006(3) 0.6519(3)
N13_3 N 0.9984(3) 0.1895(3) 0.7514(3)
H19_3 H 0.9869 0.0254 0.5881
O8_3 O 0.9821(3) 0.1152(3) 0.6284(3)
N16_3 N 0.9680(3) 0.1573(4) 0.7671(5)
C32_3 C 0.9754(4) 0.1228(5) 0.7440(6)
H24_3 H 0.9591 0.0970 0.7465
Zn3_3 Zn 1.0000 0.2500 0.77625(6)
N1_3 N 0.9725(2) 0.5934(2) 0.6052(2)
C1_3 C 0.9398(2) 0.5075(3) 0.6733(2)
H1_3 H 0.9224 0.5180 0.6984
N2_3 N 0.9758(3) 0.4028(3) 0.6887(3)
C2_3 C 0.9624(3) 0.5181(3) 0.5948(3)
H2_3 H 0.9456 0.5070 0.5698
C3_3 C 0.9886(3) 0.5585(3) 0.5799(3)
O2_3 O 0.9213(2) 0.4295(3) 0.7354(2)
C4_3 C 0.9301(3) 0.4584(3) 0.6623(3)
H3_3 H 0.8996 0.4548 0.6525
C5_3 C 0.9754(3) 0.6621(3) 0.5675(3)
H4_3 H 0.9520 0.6568 0.5487
N4_3 N 0.9910(3) 0.3722(3) 0.7160(4)
C7_3 C 0.9303(2) 0.5355(3) 0.6294(3)
H6_3 H 0.9000 0.5311 0.6196
N6_3 N 0.9995(2) 0.6969(2) 0.5668(2)
C8_3 C 0.9917(3) 0.4828(3) 0.6107(3)
C9_3 C 0.9388(4) 0.4308(3) 0.7006(3)
N7_3 N 0.9885(2) 0.6354(2) 0.5983(2)
C10_3 C 0.9635(4) 0.4425(3) 0.6245(3)
H8_3 H 0.9472 0.4312 0.5992
C11_3 C 0.9393(3) 0.5837(3) 0.6368(3)
C12_3 C 0.9894(3) 0.5107(3) 0.6818(3)
O3_3 O 0.9202(3) 0.6082(3) 0.6589(3)
C14_3 C 0.9889(3) 0.4076(4) 0.6448(4)
C15_3 C 0.9768(4) 0.3308(4) 0.7212(6)
H11_3 H 0.9534 0.3182 0.7061
O5_3 O 0.9830(2) 0.9380(2) 0.5532(2)
H17_3 H 0.9550 0.9990 0.6545
N11_3 N 0.9674(3) 0.8094(3) 0.5965(3)
H21_3 H 0.9998 0.9791 0.7086
C29_3 C 0.9760(3) 0.8468(5) 0.6154(4)
H22_3 H 0.9595 0.8591 0.6380
N8_4 N 0.4073(4) 0.2180(3) 0.0171(5)
N1_4 N 0.1566(2) 0.2775(2) 0.8552(2)
O1_4 O 0.1880(2) 0.2330(2) 0.8032(2)
C1_4 C 0.2425(3) 0.3102(2) 0.9233(2)
H1_4 H 0.2320 0.3276 0.9484
N2_4 N 0.3472(3) 0.2742(3) 0.9387(3)
C2_4 C 0.2319(3) 0.2876(3) 0.8448(3)
H2_4 H 0.2430 0.3044 0.8198
C3_4 C 0.1915(3) 0.2614(3) 0.8299(3)
O2_4 O 0.3205(3) 0.3287(2) 0.9854(2)
C4_4 C 0.2916(3) 0.3199(3) 0.9123(3)
H3_4 H 0.2952 0.3504 0.9025
C5_4 C 0.0879(3) 0.2746(3) 0.8175(3)
H4_4 H 0.0932 0.2980 0.7987
C6_4 C 0.2506(3) 0.2354(3) 0.9019(3)
H5_4 H 0.2490 0.2050 0.9045
N3_4 N 0.0594(3) 0.2174(3) 0.8465(3)
N4_4 N 0.3778(3) 0.2590(3) 0.9660(4)
C7_4 C 0.2145(3) 0.3197(2) 0.8794(3)
H6_4 H 0.2189 0.3500 0.8696
N6_4 N 0.0531(2) 0.2505(2) 0.8168(2)
C8_4 C 0.2672(3) 0.2583(3) 0.8607(3)
H7_4 H 0.2754 0.2369 0.8381
C9_4 C 0.3192(3) 0.3112(4) 0.9506(3)
N7_4 N 0.1146(2) 0.2615(2) 0.8483(2)
C10_4 C 0.3075(3) 0.2865(4) 0.8745(3)
H8_4 H 0.3188 0.3028 0.8492
C11_4 C 0.1663(3) 0.3107(3) 0.8868(3)
C12_4 C 0.2393(3) 0.2606(3) 0.9318(3)
H9_4 H 0.2291 0.2498 0.9586
O3_4 O 0.1418(3) 0.3298(3) 0.9089(3)
O4_4 O 0.3652(3) 0.2321(3) 0.8784(3)
C13_4 C 0.0968(5) 0.2260(3) 0.8654(4)
H10_4 H 0.1091 0.2095 0.8880
C14_4 C 0.3424(4) 0.2611(3) 0.8948(4)
C15_4 C 0.4192(4) 0.2732(4) 0.9712(6)
H11_4 H 0.4318 0.2966 0.9561
C16_4 C 0.3728(5) 0.2254(4) 0.9940(6)
H12_4 H 0.3470 0.2091 0.9965
N16_4 N 0.5927(4) 0.2820(3) 0.0171(5)
N9_4 N 0.8434(2) 0.2225(2) 0.8552(2)
O5_4 O 0.8120(2) 0.2670(2) 0.8032(2)
C17_4 C 0.7575(3) 0.1898(2) 0.9233(2)
H13_4 H 0.7680 0.1724 0.9484
N10_4 N 0.6528(3) 0.2258(3) 0.9387(3)
C18_4 C 0.7681(3) 0.2124(3) 0.8448(3)
H14_4 H 0.7570 0.1956 0.8198
C19_4 C 0.8085(3) 0.2386(3) 0.8299(3)
O6_4 O 0.6795(3) 0.1713(2) 0.9854(2)
C20_4 C 0.7084(3) 0.1801(3) 0.9123(3)
H15_4 H 0.7048 0.1496 0.9025
C21_4 C 0.9121(3) 0.2254(3) 0.8175(3)
H16_4 H 0.9068 0.2020 0.7987
C22_4 C 0.7494(3) 0.2646(3) 0.9019(3)
H17_4 H 0.7510 0.2950 0.9045
N11_4 N 0.9406(3) 0.2826(3) 0.8465(3)
N12_4 N 0.6222(3) 0.2410(3) 0.9660(4)
C23_4 C 0.7855(3) 0.1803(2) 0.8794(3)
H18_4 H 0.7811 0.1500 0.8696
N14_4 N 0.9469(2) 0.2495(2) 0.8168(2)
C24_4 C 0.7328(3) 0.2417(3) 0.8607(3)
H19_4 H 0.7246 0.2631 0.8381
C25_4 C 0.6808(3) 0.1888(4) 0.9506(3)
N15_4 N 0.8854(2) 0.2385(2) 0.8483(2)
C26_4 C 0.6925(3) 0.2135(4) 0.8745(3)
H20_4 H 0.6812 0.1972 0.8492
C27_4 C 0.8337(3) 0.1893(3) 0.8868(3)
C28_4 C 0.7607(3) 0.2394(3) 0.9318(3)
H21_4 H 0.7709 0.2502 0.9586
O7_4 O 0.8582(3) 0.1702(3) 0.9089(3)
O8_4 O 0.6348(3) 0.2679(3) 0.8784(3)
C29_4 C 0.9032(5) 0.2740(3) 0.8654(4)
H22_4 H 0.8909 0.2905 0.8880
C30_4 C 0.6576(4) 0.2389(3) 0.8948(4)
C31_4 C 0.5808(4) 0.2268(4) 0.9712(6)
H23_4 H 0.5682 0.2034 0.9561
C32_4 C 0.6272(5) 0.2746(4) 0.9940(6)
H24_4 H 0.6530 0.2909 0.9965
Zn3_4 Zn -0.0000 0.2500 0.97375(6)
Zn1_2 Zn 0.5000 0.2500 0.22375(6)
N1_5 N 0.3434(2) 0.2775(2) 0.1448(2)
O1_5 O 0.3120(2) 0.2330(2) 0.1968(2)
C1_5 C 0.2575(3) 0.3102(2) 0.0767(2)
H1_5 H 0.2680 0.3276 0.0516
N2_5 N 0.1528(3) 0.2742(3) 0.0613(3)
C2_5 C 0.2681(3) 0.2876(3) 0.1552(3)
H2_5 H 0.2570 0.3044 0.1802
C3_5 C 0.3085(3) 0.2614(3) 0.1701(3)
O2_5 O 0.1795(3) 0.3287(2) 0.0146(2)
C4_5 C 0.2084(3) 0.3199(3) 0.0877(3)
H3_5 H 0.2048 0.3504 0.0975
C5_5 C 0.4121(3) 0.2746(3) 0.1825(3)
H4_5 H 0.4068 0.2980 0.2013
C6_5 C 0.2494(3) 0.2354(3) 0.0981(3)
H5_5 H 0.2510 0.2050 0.0955
N3_5 N 0.4406(3) 0.2174(3) 0.1535(3)
N4_5 N 0.1222(3) 0.2590(3) 0.0340(4)
C7_5 C 0.2855(3) 0.3197(2) 0.1206(3)
H6_5 H 0.2811 0.3500 0.1304
N6_5 N 0.4469(2) 0.2505(2) 0.1832(2)
C8_5 C 0.2328(3) 0.2583(3) 0.1393(3)
H7_5 H 0.2246 0.2369 0.1619
C9_5 C 0.1808(3) 0.3112(4) 0.0494(3)
N7_5 N 0.3854(2) 0.2615(2) 0.1517(2)
C10_5 C 0.1925(3) 0.2865(4) 0.1255(3)
H8_5 H 0.1812 0.3028 0.1508
C11_5 C 0.3337(3) 0.3107(3) 0.1132(3)
C12_5 C 0.2607(3) 0.2606(3) 0.0682(3)
H9_5 H 0.2709 0.2498 0.0414
O3_5 O 0.3582(3) 0.3298(3) 0.0911(3)
O4_5 O 0.1348(3) 0.2321(3) 0.1216(3)
C13_5 C 0.4032(5) 0.2260(3) 0.1346(4)
H10_5 H 0.3909 0.2095 0.1120
C14_5 C 0.1576(4) 0.2611(3) 0.1052(4)
C15_5 C 0.0808(4) 0.2732(4) 0.0288(6)
H11_5 H 0.0682 0.2966 0.0439
C16_5 C 0.1272(5) 0.2254(4) 0.0060(6)
H12_5 H 0.1530 0.2091 0.0035
N9_5 N 0.6566(2) 0.2225(2) 0.1448(2)
O5_5 O 0.6880(2) 0.2670(2) 0.1968(2)
C17_5 C 0.7425(3) 0.1898(2) 0.0767(2)
H13_5 H 0.7320 0.1724 0.0516
N10_5 N 0.8472(3) 0.2258(3) 0.0613(3)
C18_5 C 0.7319(3) 0.2124(3) 0.1552(3)
H14_5 H 0.7430 0.1956 0.1802
C19_5 C 0.6915(3) 0.2386(3) 0.1701(3)
O6_5 O 0.8205(3) 0.1713(2) 0.0146(2)
C20_5 C 0.7916(3) 0.1801(3) 0.0877(3)
H15_5 H 0.7952 0.1496 0.0975
C21_5 C 0.5879(3) 0.2254(3) 0.1825(3)
H16_5 H 0.5932 0.2020 0.2013
C22_5 C 0.7506(3) 0.2646(3) 0.0981(3)
H17_5 H 0.7490 0.2950 0.0955
N11_5 N 0.5594(3) 0.2826(3) 0.1535(3)
N12_5 N 0.8778(3) 0.2410(3) 0.0340(4)
C23_5 C 0.7145(3) 0.1803(2) 0.1206(3)
H18_5 H 0.7189 0.1500 0.1304
N14_5 N 0.5531(2) 0.2495(2) 0.1832(2)
C24_5 C 0.7672(3) 0.2417(3) 0.1393(3)
H19_5 H 0.7754 0.2631 0.1619
C25_5 C 0.8192(3) 0.1888(4) 0.0494(3)
N15_5 N 0.6146(2) 0.2385(2) 0.1517(2)
C26_5 C 0.8075(3) 0.2135(4) 0.1255(3)
H20_5 H 0.8188 0.1972 0.1508
C27_5 C 0.6663(3) 0.1893(3) 0.1132(3)
C28_5 C 0.7393(3) 0.2394(3) 0.0682(3)
H21_5 H 0.7291 0.2502 0.0414
O7_5 O 0.6418(3) 0.1702(3) 0.0911(3)
O8_5 O 0.8652(3) 0.2679(3) 0.1216(3)
C29_5 C 0.5968(5) 0.2740(3) 0.1346(4)
H22_5 H 0.6091 0.2905 0.1120
C30_5 C 0.8424(4) 0.2389(3) 0.1052(4)
C31_5 C 0.9192(4) 0.2268(4) 0.0288(6)
H23_5 H 0.9318 0.2034 0.0439
C32_5 C 0.8728(5) 0.2746(4) 0.0060(6)
H24_5 H 0.8470 0.2909 0.0035
N17_2 N 0.4984(3) 0.3105(3) 0.2486(3)
N18_2 N 0.5016(3) 0.1895(3) 0.2486(3)
N5_4 N 0.0605(3) 0.2484(3) 0.9986(3)
N8_5 N 0.0927(4) 0.2180(3) 0.9829(5)
N13_4 N 0.9395(3) 0.2516(3) 0.9986(3)
N16_5 N 0.9073(4) 0.2820(3) 0.9829(5)
Zn3_5 Zn 1.0000 0.2500 0.97375(6)
Zn1_3 Zn 0.0000 0.7500 0.72375(6)
N1_6 N 0.1566(2) 0.7225(2) 0.6448(2)
O1_6 O 0.1880(2) 0.7670(2) 0.6968(2)
C1_6 C 0.2425(3) 0.6898(2) 0.5767(2)
H1_6 H 0.2320 0.6724 0.5516
N2_6 N 0.3472(3) 0.7258(3) 0.5613(3)
C2_6 C 0.2319(3) 0.7124(3) 0.6552(3)
H2_6 H 0.2430 0.6956 0.6802
C3_6 C 0.1915(3) 0.7386(3) 0.6701(3)
O2_6 O 0.3205(3) 0.6713(2) 0.5146(2)
C4_6 C 0.2916(3) 0.6801(3) 0.5877(3)
H3_6 H 0.2952 0.6496 0.5975
C5_6 C 0.0879(3) 0.7254(3) 0.6825(3)
H4_6 H 0.0932 0.7020 0.7013
C6_6 C 0.2506(3) 0.7646(3) 0.5981(3)
H5_6 H 0.2490 0.7950 0.5955
N3_6 N 0.0594(3) 0.7826(3) 0.6535(3)
N4_6 N 0.3778(3) 0.7410(3) 0.5340(4)
C7_6 C 0.2145(3) 0.6803(2) 0.6206(3)
H6_6 H 0.2189 0.6500 0.6304
N5_5 N 0.4395(3) 0.7516(3) 0.4986(3)
N6_6 N 0.0531(2) 0.7495(2) 0.6832(2)
C8_6 C 0.2672(3) 0.7417(3) 0.6393(3)
H7_6 H 0.2754 0.7631 0.6619
C9_6 C 0.3192(3) 0.6888(4) 0.5494(3)
N7_6 N 0.1146(2) 0.7385(2) 0.6517(2)
C10_6 C 0.3075(3) 0.7135(4) 0.6255(3)
H8_6 H 0.3188 0.6972 0.6508
C11_6 C 0.1663(3) 0.6893(3) 0.6132(3)
C12_6 C 0.2393(3) 0.7394(3) 0.5682(3)
H9_6 H 0.2291 0.7502 0.5414
O3_6 O 0.1418(3) 0.6702(3) 0.5911(3)
O4_6 O 0.3652(3) 0.7679(3) 0.6216(3)
C13_6 C 0.0968(5) 0.7740(3) 0.6346(4)
H10_6 H 0.1091 0.7905 0.6120
C14_6 C 0.3424(4) 0.7389(3) 0.6052(4)
C15_6 C 0.4192(4) 0.7268(4) 0.5288(6)
H11_6 H 0.4318 0.7034 0.5439
N8_6 N 0.4073(4) 0.7820(3) 0.4829(5)
C16_6 C 0.3728(5) 0.7746(4) 0.5060(6)
H12_6 H 0.3470 0.7909 0.5035
Zn2_3 Zn 0.5000 0.7500 0.47375(6)
N17_3 N 0.0016(3) 0.6895(3) 0.7486(3)
Zn1_4 Zn 1.0000 0.7500 0.72375(6)
N9_6 N 0.8434(2) 0.7775(2) 0.6448(2)
O5_6 O 0.8120(2) 0.7330(2) 0.6968(2)
C17_6 C 0.7575(3) 0.8102(2) 0.5767(2)
H13_6 H 0.7680 0.8276 0.5516
N10_6 N 0.6528(3) 0.7742(3) 0.5613(3)
C18_6 C 0.7681(3) 0.7876(3) 0.6552(3)
H14_6 H 0.7570 0.8044 0.6802
C19_6 C 0.8085(3) 0.7614(3) 0.6701(3)
O6_6 O 0.6795(3) 0.8287(2) 0.5146(2)
C20_6 C 0.7084(3) 0.8199(3) 0.5877(3)
H15_6 H 0.7048 0.8504 0.5975
C21_6 C 0.9121(3) 0.7746(3) 0.6825(3)
H16_6 H 0.9068 0.7980 0.7013
C22_6 C 0.7494(3) 0.7354(3) 0.5981(3)
H17_6 H 0.7510 0.7050 0.5955
N11_6 N 0.9406(3) 0.7174(3) 0.6535(3)
N12_6 N 0.6222(3) 0.7590(3) 0.5340(4)
C23_6 C 0.7855(3) 0.8197(2) 0.6206(3)
H18_6 H 0.7811 0.8500 0.6304
N13_5 N 0.5605(3) 0.7484(3) 0.4986(3)
N14_6 N 0.9469(2) 0.7505(2) 0.6832(2)
C24_6 C 0.7328(3) 0.7583(3) 0.6393(3)
H19_6 H 0.7246 0.7369 0.6619
C25_6 C 0.6808(3) 0.8112(4) 0.5494(3)
N15_6 N 0.8854(2) 0.7615(2) 0.6517(2)
C26_6 C 0.6925(3) 0.7865(4) 0.6255(3)
H20_6 H 0.6812 0.8028 0.6508
C27_6 C 0.8337(3) 0.8107(3) 0.6132(3)
C28_6 C 0.7607(3) 0.7606(3) 0.5682(3)
H21_6 H 0.7709 0.7498 0.5414
O7_6 O 0.8582(3) 0.8298(3) 0.5911(3)
O8_6 O 0.6348(3) 0.7321(3) 0.6216(3)
C29_6 C 0.9032(5) 0.7260(3) 0.6346(4)
H22_6 H 0.8909 0.7095 0.6120
C30_6 C 0.6576(4) 0.7611(3) 0.6052(4)
C31_6 C 0.5808(4) 0.7732(4) 0.5288(6)
H23_6 H 0.5682 0.7966 0.5439
N16_6 N 0.5927(4) 0.7180(3) 0.4829(5)
C32_6 C 0.6272(5) 0.7254(4) 0.5060(6)
H24_6 H 0.6530 0.7091 0.5035
N18_3 N 0.9984(3) 0.8105(3) 0.7486(3)
N2_7 N 0.4758(3) 0.0972(3) 0.3113(3)
O2_7 O 0.4213(2) 0.0705(3) 0.2646(2)
C4_7 C 0.4301(3) 0.0416(3) 0.3377(3)
H3_7 H 0.3996 0.0452 0.3475
C6_7 C 0.5146(3) 0.0006(3) 0.3481(3)
N4_7 N 0.4910(3) 0.1278(3) 0.2840(4)
C8_7 C 0.4917(3) 0.0172(3) 0.3893(3)
H7_7 H 0.5131 0.0254 0.4119
C9_7 C 0.4388(4) 0.0692(3) 0.2994(3)
C10_7 C 0.4635(4) 0.0575(3) 0.3755(3)
H8_7 H 0.4472 0.0688 0.4008
O4_7 O 0.5179(3) 0.1152(3) 0.3716(3)
C14_7 C 0.4889(3) 0.0924(4) 0.3552(4)
C15_7 C 0.4768(4) 0.1692(4) 0.2788(6)
H11_7 H 0.4534 0.1818 0.2939
N8_7 N 0.5320(3) 0.1573(4) 0.2329(5)
C16_7 C 0.5246(4) 0.1228(5) 0.2560(6)
H12_7 H 0.5409 0.0970 0.2535
N1_7 N 0.4725(2) 0.9066(2) 0.3948(2)
O1_7 O 0.5170(2) 0.9380(2) 0.4468(2)
C1_7 C 0.4398(2) 0.9925(3) 0.3267(2)
H1_7 H 0.4224 0.9820 0.3016
C2_7 C 0.4624(3) 0.9819(3) 0.4052(3)
H2_7 H 0.4456 0.9930 0.4302
C3_7 C 0.4886(3) 0.9415(3) 0.4201(3)
C5_7 C 0.4754(3) 0.8379(3) 0.4325(3)
H4_7 H 0.4520 0.8432 0.4513
H5_7 H 0.5450 0.9990 0.3455
N3_7 N 0.5326(3) 0.8094(3) 0.4035(3)
C7_7 C 0.4303(2) 0.9645(3) 0.3706(3)
H6_7 H 0.4000 0.9689 0.3804
N6_7 N 0.4995(2) 0.8031(2) 0.4332(2)
N7_7 N 0.4885(2) 0.8646(2) 0.4017(2)
C11_7 C 0.4393(3) 0.9163(3) 0.3632(3)
C12_7 C 0.4894(3) 0.9893(3) 0.3182(3)
H9_7 H 0.5002 0.9791 0.2914
O3_7 O 0.4202(3) 0.8918(3) 0.3411(3)
C13_7 C 0.5240(3) 0.8468(5) 0.3846(4)
H10_7 H 0.5405 0.8591 0.3620
N9_7 N 0.5275(2) 0.5934(2) 0.3948(2)
O5_7 O 0.4830(2) 0.5620(2) 0.4468(2)
C17_7 C 0.5602(2) 0.5075(3) 0.3267(2)
H13_7 H 0.5776 0.5180 0.3016
N10_7 N 0.5242(3) 0.4028(3) 0.3113(3)
C18_7 C 0.5376(3) 0.5181(3) 0.4052(3)
H14_7 H 0.5544 0.5070 0.4302
C19_7 C 0.5114(3) 0.5585(3) 0.4201(3)
O6_7 O 0.5787(2) 0.4295(3) 0.2646(2)
C20_7 C 0.5699(3) 0.4584(3) 0.3377(3)
H15_7 H 0.6004 0.4548 0.3475
C21_7 C 0.5246(3) 0.6621(3) 0.4325(3)
H16_7 H 0.5480 0.6568 0.4513
C22_7 C 0.4854(3) 0.4994(3) 0.3481(3)
H17_7 H 0.4550 0.5010 0.3455
N11_7 N 0.4674(3) 0.6906(3) 0.4035(3)
N12_7 N 0.5090(3) 0.3722(3) 0.2840(4)
C23_7 C 0.5697(2) 0.5355(3) 0.3706(3)
H18_7 H 0.6000 0.5311 0.3804
N14_7 N 0.5005(2) 0.6969(2) 0.4332(2)
C24_7 C 0.5083(3) 0.4828(3) 0.3893(3)
H19_7 H 0.4869 0.4746 0.4119
C25_7 C 0.5612(4) 0.4308(3) 0.2994(3)
N15_7 N 0.5115(2) 0.6354(2) 0.4017(2)
C26_7 C 0.5365(4) 0.4425(3) 0.3755(3)
H20_7 H 0.5528 0.4312 0.4008
C27_7 C 0.5607(3) 0.5837(3) 0.3632(3)
C28_7 C 0.5106(3) 0.5107(3) 0.3182(3)
H21_7 H 0.4998 0.5209 0.2914
O7_7 O 0.5798(3) 0.6082(3) 0.3411(3)
O8_7 O 0.4821(3) 0.3848(3) 0.3716(3)
C29_7 C 0.4760(3) 0.6532(5) 0.3846(4)
H22_7 H 0.4595 0.6409 0.3620
C30_7 C 0.5111(3) 0.4076(4) 0.3552(4)
C31_7 C 0.5232(4) 0.3308(4) 0.2788(6)
H23_7 H 0.5466 0.3182 0.2939
N16_7 N 0.4680(3) 0.3427(4) 0.2329(5)
C32_7 C 0.4754(4) 0.3772(5) 0.2560(6)
H24_7 H 0.4591 0.4030 0.2535
N1_8 N 0.0275(2) 0.0934(2) 0.8948(2)
C1_8 C 0.0602(2) 0.0075(3) 0.8267(2)
H1_8 H 0.0776 0.0180 0.8016
C2_8 C 0.0376(3) 0.0181(3) 0.9052(3)
H2_8 H 0.0544 0.0070 0.9302
C3_8 C 0.0114(3) 0.0585(3) 0.9201(3)
C5_8 C 0.0246(3) 0.1621(3) 0.9325(3)
H4_8 H 0.0480 0.1568 0.9513
C7_8 C 0.0697(2) 0.0355(3) 0.8706(3)
H6_8 H 0.1000 0.0311 0.8804
N6_8 N 0.0005(2) 0.1969(2) 0.9332(2)
N7_8 N 0.0115(2) 0.1354(2) 0.9017(2)
C11_8 C 0.0607(3) 0.0837(3) 0.8632(3)
C12_8 C 0.0106(3) 0.0107(3) 0.8182(3)
O3_8 O 0.0798(3) 0.1082(3) 0.8411(3)
O5_8 O 0.0170(2) 0.4380(2) 0.9468(2)
C22_8 C 0.0146(3) 0.5006(3) 0.8481(3)
H17_8 H 0.0450 0.4990 0.8455
N11_8 N 0.0326(3) 0.3094(3) 0.9035(3)
H19_8 H 0.0131 0.5254 0.9119
H21_8 H 0.0002 0.4791 0.7914
O8_8 O 0.0179(3) 0.6152(3) 0.8716(3)
C29_8 C 0.0240(3) 0.3468(5) 0.8846(4)
H22_8 H 0.0405 0.3591 0.8620
N16_8 N 0.0320(3) 0.6573(4) 0.7329(5)
C32_8 C 0.0246(4) 0.6228(5) 0.7560(6)
H24_8 H 0.0409 0.5970 0.7535
N2_8 N 0.0242(3) 0.9028(3) 0.8113(3)
O2_8 O 0.0787(2) 0.9295(3) 0.7646(2)
C4_8 C 0.0699(3) 0.9584(3) 0.8377(3)
H3_8 H 0.1004 0.9548 0.8475
N4_8 N 0.0090(3) 0.8722(3) 0.7840(4)
C8_8 C 0.0083(3) 0.9828(3) 0.8893(3)
C9_8 C 0.0612(4) 0.9308(3) 0.7994(3)
C10_8 C 0.0365(4) 0.9425(3) 0.8755(3)
H8_8 H 0.0528 0.9312 0.9008
C14_8 C 0.0111(3) 0.9076(4) 0.8552(4)
C15_8 C 0.0232(4) 0.8308(4) 0.7788(6)
H11_8 H 0.0466 0.8182 0.7939
O1_8 O 0.9830(2) 0.0620(2) 0.9468(2)
H5_8 H 0.9550 0.0010 0.8455
N3_8 N 0.9674(3) 0.1906(3) 0.9035(3)
H9_8 H 0.9998 0.0209 0.7914
C13_8 C 0.9760(3) 0.1532(5) 0.8846(4)
H10_8 H 0.9595 0.1409 0.8620
N9_8 N 0.9725(2) 0.4066(2) 0.8948(2)
C17_8 C 0.9398(2) 0.4925(3) 0.8267(2)
H13_8 H 0.9224 0.4820 0.8016
N10_8 N 0.9758(3) 0.5972(3) 0.8113(3)
C18_8 C 0.9624(3) 0.4819(3) 0.9052(3)
H14_8 H 0.9456 0.4930 0.9302
C19_8 C 0.9886(3) 0.4415(3) 0.9201(3)
O6_8 O 0.9213(2) 0.5705(3) 0.7646(2)
C20_8 C 0.9301(3) 0.5416(3) 0.8377(3)
H15_8 H 0.8996 0.5452 0.8475
C21_8 C 0.9754(3) 0.3379(3) 0.9325(3)
H16_8 H 0.9520 0.3432 0.9513
N12_8 N 0.9910(3) 0.6278(3) 0.7840(4)
C23_8 C 0.9303(2) 0.4645(3) 0.8706(3)
H18_8 H 0.9000 0.4689 0.8804
N14_8 N 0.9995(2) 0.3031(2) 0.9332(2)
C24_8 C 0.9917(3) 0.5172(3) 0.8893(3)
C25_8 C 0.9388(4) 0.5692(3) 0.7994(3)
N15_8 N 0.9885(2) 0.3646(2) 0.9017(2)
C26_8 C 0.9635(4) 0.5575(3) 0.8755(3)
H20_8 H 0.9472 0.5688 0.9008
C27_8 C 0.9393(3) 0.4163(3) 0.8632(3)
C28_8 C 0.9894(3) 0.4893(3) 0.8182(3)
O7_8 O 0.9202(3) 0.3918(3) 0.8411(3)
C30_8 C 0.9889(3) 0.5924(4) 0.8552(4)
C31_8 C 0.9768(4) 0.6692(4) 0.7788(6)
H23_8 H 0.9534 0.6818 0.7939
C6_8 C 0.9854(3) 0.9994(3) 0.8481(3)
H7_8 H 0.9869 0.9746 0.9119
O4_8 O 0.9821(3) 0.8848(3) 0.8716(3)
N8_8 N 0.9680(3) 0.8427(4) 0.7329(5)
C16_8 C 0.9754(4) 0.8772(5) 0.7560(6)
H12_8 H 0.9591 0.9030 0.7535
Zn2_4 Zn 0.7500 0.52625(6) -0.0000
Zn1_5 Zn 0.7500 0.27625(6) 0.5000
N1_9 N 0.7775(2) 0.3552(2) 0.6566(2)
O1_9 O 0.7330(2) 0.3032(2) 0.6880(2)
C1_9 C 0.8102(2) 0.4233(2) 0.7425(3)
H1_9 H 0.8276 0.4484 0.7320
N2_9 N 0.7742(3) 0.4387(3) 0.8472(3)
C2_9 C 0.7876(3) 0.3448(3) 0.7319(3)
H2_9 H 0.8044 0.3198 0.7430
C3_9 C 0.7614(3) 0.3299(3) 0.6915(3)
O2_9 O 0.8287(2) 0.4854(2) 0.8205(3)
C4_9 C 0.8199(3) 0.4123(3) 0.7916(3)
H3_9 H 0.8504 0.4025 0.7952
C5_9 C 0.7746(3) 0.3175(3) 0.5879(3)
H4_9 H 0.7980 0.2987 0.5932
C6_9 C 0.7354(3) 0.4019(3) 0.7506(3)
H5_9 H 0.7050 0.4045 0.7490
N3_9 N 0.7174(3) 0.3465(3) 0.5594(3)
N4_9 N 0.7590(3) 0.4660(4) 0.8778(3)
C7_9 C 0.8197(2) 0.3794(3) 0.7145(3)
H6_9 H 0.8500 0.3696 0.7189
N5_6 N 0.7484(3) 0.5014(3) 0.9395(3)
N6_9 N 0.7505(2) 0.3168(2) 0.5531(2)
C8_9 C 0.7583(3) 0.3607(3) 0.7672(3)
H7_9 H 0.7369 0.3381 0.7754
C9_9 C 0.8112(4) 0.4506(3) 0.8192(3)
N7_9 N 0.7615(2) 0.3483(2) 0.6146(2)
C10_9 C 0.7865(4) 0.3745(3) 0.8075(3)
H8_9 H 0.8028 0.3492 0.8188
C11_9 C 0.8107(3) 0.3868(3) 0.6663(3)
C12_9 C 0.7606(3) 0.4318(3) 0.7393(3)
H9_9 H 0.7498 0.4586 0.7291
O3_9 O 0.8298(3) 0.4089(3) 0.6418(3)
O4_9 O 0.7321(3) 0.3784(3) 0.8652(3)
C13_9 C 0.7260(3) 0.3654(4) 0.5968(5)
H10_9 H 0.7095 0.3880 0.6091
C14_9 C 0.7611(3) 0.3948(4) 0.8424(4)
C15_9 C 0.7732(4) 0.4712(6) 0.9192(4)
H11_9 H 0.7966 0.4561 0.9318
N8_9 N 0.7180(3) 0.5171(5) 0.9073(4)
C16_9 C 0.7254(4) 0.4940(6) 0.8728(5)
H12_9 H 0.7091 0.4965 0.8470
N9_9 N 0.7225(2) 0.3552(2) 0.3434(2)
O5_9 O 0.7670(2) 0.3032(2) 0.3120(2)
C17_9 C 0.6898(2) 0.4233(2) 0.2575(3)
H13_9 H 0.6724 0.4484 0.2680
N10_9 N 0.7258(3) 0.4387(3) 0.1528(3)
C18_9 C 0.7124(3) 0.3448(3) 0.2681(3)
H14_9 H 0.6956 0.3198 0.2570
C19_9 C 0.7386(3) 0.3299(3) 0.3085(3)
O6_9 O 0.6713(2) 0.4854(2) 0.1795(3)
C20_9 C 0.6801(3) 0.4123(3) 0.2084(3)
H15_9 H 0.6496 0.4025 0.2048
C21_9 C 0.7254(3) 0.3175(3) 0.4121(3)
H16_9 H 0.7020 0.2987 0.4068
C22_9 C 0.7646(3) 0.4019(3) 0.2494(3)
H17_9 H 0.7950 0.4045 0.2510
N11_9 N 0.7826(3) 0.3465(3) 0.4406(3)
N12_9 N 0.7410(3) 0.4660(4) 0.1222(3)
C23_9 C 0.6803(2) 0.3794(3) 0.2855(3)
H18_9 H 0.6500 0.3696 0.2811
N13_6 N 0.7516(3) 0.5014(3) 0.0605(3)
N14_9 N 0.7495(2) 0.3168(2) 0.4469(2)
C24_9 C 0.7417(3) 0.3607(3) 0.2328(3)
H19_9 H 0.7631 0.3381 0.2246
C25_9 C 0.6888(4) 0.4506(3) 0.1808(3)
N15_9 N 0.7385(2) 0.3483(2) 0.3854(2)
C26_9 C 0.7135(4) 0.3745(3) 0.1925(3)
H20_9 H 0.6972 0.3492 0.1812
C27_9 C 0.6893(3) 0.3868(3) 0.3337(3)
C28_9 C 0.7394(3) 0.4318(3) 0.2607(3)
H21_9 H 0.7502 0.4586 0.2709
O7_9 O 0.6702(3) 0.4089(3) 0.3582(3)
O8_9 O 0.7679(3) 0.3784(3) 0.1348(3)
C29_9 C 0.7740(3) 0.3654(4) 0.4032(5)
H22_9 H 0.7905 0.3880 0.3909
C30_9 C 0.7389(3) 0.3948(4) 0.1576(4)
C31_9 C 0.7268(4) 0.4712(6) 0.0808(4)
H23_9 H 0.7034 0.4561 0.0682
N16_9 N 0.7820(3) 0.5171(5) 0.0927(4)
C32_9 C 0.7746(4) 0.4940(6) 0.1272(5)
H24_9 H 0.7909 0.4965 0.1530
Zn2_5 Zn 0.7500 0.52625(6) 1.0000
N17_4 N 0.8105(3) 0.2514(3) 0.5016(3)
N18_4 N 0.6895(3) 0.2514(3) 0.4984(3)
Zn1_6 Zn 0.2500 0.02625(6) 0.5000
N1_10 N 0.0934(2) 0.1052(2) 0.4725(2)
O1_10 O 0.0620(2) 0.0532(2) 0.5170(2)
C1_10 C 0.0075(3) 0.1733(2) 0.4398(2)
H1_10 H 0.0180 0.1984 0.4224
C2_10 C 0.0181(3) 0.0948(3) 0.4624(3)
H2_10 H 0.0070 0.0698 0.4456
C3_10 C 0.0585(3) 0.0799(3) 0.4886(3)
C5_10 C 0.1621(3) 0.0675(3) 0.4754(3)
H4_10 H 0.1568 0.0487 0.4520
H5_10 H 0.0010 0.1545 0.5450
N3_10 N 0.1906(3) 0.0965(3) 0.5326(3)
C7_10 C 0.0355(3) 0.1294(3) 0.4303(2)
H6_10 H 0.0311 0.1196 0.4000
N6_10 N 0.1969(2) 0.0668(2) 0.4995(2)
N7_10 N 0.1354(2) 0.0983(2) 0.4885(2)
C11_10 C 0.0837(3) 0.1368(3) 0.4393(3)
C12_10 C 0.0107(3) 0.1818(3) 0.4894(3)
H9_10 H 0.0209 0.2086 0.5002
O3_10 O 0.1082(3) 0.1589(3) 0.4202(3)
C13_10 C 0.1532(5) 0.1154(4) 0.5240(3)
H10_10 H 0.1409 0.1380 0.5405
N9_10 N 0.4066(2) 0.1052(2) 0.5275(2)
O5_10 O 0.4380(2) 0.0532(2) 0.4830(2)
C17_10 C 0.4925(3) 0.1733(2) 0.5602(2)
H13_10 H 0.4820 0.1984 0.5776
N10_10 N 0.5972(3) 0.1887(3) 0.5242(3)
C18_10 C 0.4819(3) 0.0948(3) 0.5376(3)
H14_10 H 0.4930 0.0698 0.5544
C19_10 C 0.4415(3) 0.0799(3) 0.5114(3)
O6_10 O 0.5705(3) 0.2354(2) 0.5787(2)
C20_10 C 0.5416(3) 0.1623(3) 0.5699(3)
H15_10 H 0.5452 0.1525 0.6004
C21_10 C 0.3379(3) 0.0675(3) 0.5246(3)
H16_10 H 0.3432 0.0487 0.5480
C22_10 C 0.5006(3) 0.1519(3) 0.4854(3)
H17_10 H 0.4990 0.1545 0.4550
N11_10 N 0.3094(3) 0.0965(3) 0.4674(3)
N12_10 N 0.6278(3) 0.2160(4) 0.5090(3)
C23_10 C 0.4645(3) 0.1294(3) 0.5697(2)
H18_10 H 0.4689 0.1196 0.6000
N14_10 N 0.3031(2) 0.0668(2) 0.5005(2)
C24_10 C 0.5172(3) 0.1107(3) 0.5083(3)
H19_10 H 0.5254 0.0881 0.4869
C25_10 C 0.5692(3) 0.2006(3) 0.5612(4)
N15_10 N 0.3646(2) 0.0983(2) 0.5115(2)
C26_10 C 0.5575(3) 0.1245(3) 0.5365(4)
H20_10 H 0.5688 0.0992 0.5528
C27_10 C 0.4163(3) 0.1368(3) 0.5607(3)
C28_10 C 0.4893(3) 0.1818(3) 0.5106(3)
H21_10 H 0.4791 0.2086 0.4998
O7_10 O 0.3918(3) 0.1589(3) 0.5798(3)
O8_10 O 0.6152(3) 0.1284(3) 0.4821(3)
C29_10 C 0.3468(5) 0.1154(4) 0.4760(3)
H22_10 H 0.3591 0.1380 0.4595
C30_10 C 0.5924(4) 0.1448(4) 0.5111(3)
C31_10 C 0.6692(4) 0.2212(6) 0.5232(4)
H23_10 H 0.6818 0.2061 0.5466
N16_10 N 0.6573(4) 0.2671(5) 0.4680(3)
C32_10 C 0.6228(5) 0.2440(6) 0.4754(4)
H24_10 H 0.5970 0.2465 0.4591
N17_5 N 0.2484(3) 0.0014(3) 0.4395(3)
N18_5 N 0.2516(3) 0.0014(3) 0.5605(3)
N2_10 N 0.9028(3) 0.1887(3) 0.4758(3)
O2_10 O 0.9295(3) 0.2354(2) 0.4213(2)
C4_10 C 0.9584(3) 0.1623(3) 0.4301(3)
H3_10 H 0.9548 0.1525 0.3996
C6_10 C 0.9994(3) 0.1519(3) 0.5146(3)
N4_10 N 0.8722(3) 0.2160(4) 0.4910(3)
C8_10 C 0.9828(3) 0.1107(3) 0.4917(3)
H7_10 H 0.9746 0.0881 0.5131
C9_10 C 0.9308(3) 0.2006(3) 0.4388(4)
C10_10 C 0.9425(3) 0.1245(3) 0.4635(4)
H8_10 H 0.9312 0.0992 0.4472
O4_10 O 0.8848(3) 0.1284(3) 0.5179(3)
C14_10 C 0.9076(4) 0.1448(4) 0.4889(3)
C15_10 C 0.8308(4) 0.2212(6) 0.4768(4)
H11_10 H 0.8182 0.2061 0.4534
N8_10 N 0.8427(4) 0.2671(5) 0.5320(3)
C16_10 C 0.8772(5) 0.2440(6) 0.5246(4)
H12_10 H 0.9030 0.2465 0.5409
N8_11 N 0.2180(3) 0.0171(5) 0.4073(4)
N16_11 N 0.2820(3) 0.0171(5) 0.5927(4)
Zn1_7 Zn 0.2500 0.77625(6) 0.0000
N1_11 N 0.2775(2) 0.8552(2) 0.1566(2)
O1_11 O 0.2330(2) 0.8032(2) 0.1880(2)
C1_11 C 0.3102(2) 0.9233(2) 0.2425(3)
H1_11 H 0.3276 0.9484 0.2320
N2_11 N 0.2742(3) 0.9387(3) 0.3472(3)
C2_11 C 0.2876(3) 0.8448(3) 0.2319(3)
H2_11 H 0.3044 0.8198 0.2430
C3_11 C 0.2614(3) 0.8299(3) 0.1915(3)
O2_11 O 0.3287(2) 0.9854(2) 0.3205(3)
C4_11 C 0.3199(3) 0.9123(3) 0.2916(3)
H3_11 H 0.3504 0.9025 0.2952
C5_11 C 0.2746(3) 0.8175(3) 0.0879(3)
H4_11 H 0.2980 0.7987 0.0932
C6_11 C 0.2354(3) 0.9019(3) 0.2506(3)
H5_11 H 0.2050 0.9045 0.2490
N3_11 N 0.2174(3) 0.8465(3) 0.0594(3)
N4_11 N 0.2590(3) 0.9660(4) 0.3778(3)
C7_11 C 0.3197(2) 0.8794(3) 0.2145(3)
H6_11 H 0.3500 0.8696 0.2189
N6_11 N 0.2505(2) 0.8168(2) 0.0531(2)
C8_11 C 0.2583(3) 0.8607(3) 0.2672(3)
H7_11 H 0.2369 0.8381 0.2754
C9_11 C 0.3112(4) 0.9506(3) 0.3192(3)
N7_11 N 0.2615(2) 0.8483(2) 0.1146(2)
C10_11 C 0.2865(4) 0.8745(3) 0.3075(3)
H8_11 H 0.3028 0.8492 0.3188
C11_11 C 0.3107(3) 0.8868(3) 0.1663(3)
C12_11 C 0.2606(3) 0.9318(3) 0.2393(3)
H9_11 H 0.2498 0.9586 0.2291
O3_11 O 0.3298(3) 0.9089(3) 0.1418(3)
O4_11 O 0.2321(3) 0.8784(3) 0.3652(3)
C13_11 C 0.2260(3) 0.8654(4) 0.0968(5)
H10_11 H 0.2095 0.8880 0.1091
C14_11 C 0.2611(3) 0.8948(4) 0.3424(4)
C15_11 C 0.2732(4) 0.9712(6) 0.4192(4)
H11_11 H 0.2966 0.9561 0.4318
C16_11 C 0.2254(4) 0.9940(6) 0.3728(5)
H12_11 H 0.2091 0.9965 0.3470
N17_6 N 0.3105(3) 0.7514(3) 0.0016(3)
Zn1_8 Zn 0.2500 0.77625(6) 1.0000
N9_11 N 0.2225(2) 0.8552(2) 0.8434(2)
O5_11 O 0.2670(2) 0.8032(2) 0.8120(2)
C17_11 C 0.1898(2) 0.9233(2) 0.7575(3)
H13_11 H 0.1724 0.9484 0.7680
N10_11 N 0.2258(3) 0.9387(3) 0.6528(3)
C18_11 C 0.2124(3) 0.8448(3) 0.7681(3)
H14_11 H 0.1956 0.8198 0.7570
C19_11 C 0.2386(3) 0.8299(3) 0.8085(3)
O6_11 O 0.1713(2) 0.9854(2) 0.6795(3)
C20_11 C 0.1801(3) 0.9123(3) 0.7084(3)
H15_11 H 0.1496 0.9025 0.7048
C21_11 C 0.2254(3) 0.8175(3) 0.9121(3)
H16_11 H 0.2020 0.7987 0.9068
C22_11 C 0.2646(3) 0.9019(3) 0.7494(3)
H17_11 H 0.2950 0.9045 0.7510
N11_11 N 0.2826(3) 0.8465(3) 0.9406(3)
N12_11 N 0.2410(3) 0.9660(4) 0.6222(3)
C23_11 C 0.1803(2) 0.8794(3) 0.7855(3)
H18_11 H 0.1500 0.8696 0.7811
N14_11 N 0.2495(2) 0.8168(2) 0.9469(2)
C24_11 C 0.2417(3) 0.8607(3) 0.7328(3)
H19_11 H 0.2631 0.8381 0.7246
C25_11 C 0.1888(4) 0.9506(3) 0.6808(3)
N15_11 N 0.2385(2) 0.8483(2) 0.8854(2)
C26_11 C 0.2135(4) 0.8745(3) 0.6925(3)
H20_11 H 0.1972 0.8492 0.6812
C27_11 C 0.1893(3) 0.8868(3) 0.8337(3)
C28_11 C 0.2394(3) 0.9318(3) 0.7607(3)
H21_11 H 0.2502 0.9586 0.7709
O7_11 O 0.1702(3) 0.9089(3) 0.8582(3)
O8_11 O 0.2679(3) 0.8784(3) 0.6348(3)
C29_11 C 0.2740(3) 0.8654(4) 0.9032(5)
H22_11 H 0.2905 0.8880 0.8909
C30_11 C 0.2389(3) 0.8948(4) 0.6576(4)
C31_11 C 0.2268(4) 0.9712(6) 0.5808(4)
H23_11 H 0.2034 0.9561 0.5682
C32_11 C 0.2746(4) 0.9940(6) 0.6272(5)
H24_11 H 0.2909 0.9965 0.6530
N18_6 N 0.1895(3) 0.7514(3) 0.9984(3)
N10_12 N 0.0972(3) 0.6887(3) 0.0242(3)
O6_12 O 0.0705(3) 0.7354(2) 0.0787(2)
C20_12 C 0.0416(3) 0.6623(3) 0.0699(3)
H15_12 H 0.0452 0.6525 0.1004
N12_12 N 0.1278(3) 0.7160(4) 0.0090(3)
C24_12 C 0.0172(3) 0.6107(3) 0.0083(3)
C25_12 C 0.0692(3) 0.7006(3) 0.0612(4)
C26_12 C 0.0575(3) 0.6245(3) 0.0365(4)
H20_12 H 0.0688 0.5992 0.0528
C30_12 C 0.0924(4) 0.6448(4) 0.0111(3)
C31_12 C 0.1692(4) 0.7212(6) 0.0232(4)
H23_12 H 0.1818 0.7061 0.0466
C22_12 C 0.0006(3) 0.6519(3) 0.9854(3)
H19_12 H 0.0254 0.5881 0.9869
O8_12 O 0.1152(3) 0.6284(3) 0.9821(3)
N16_12 N 0.1573(4) 0.7671(5) 0.9680(3)
C32_12 C 0.1228(5) 0.7440(6) 0.9754(4)
H24_12 H 0.0970 0.7465 0.9591
O1_12 O 0.5620(2) 0.5532(2) 0.0170(2)
C6_12 C 0.4994(3) 0.6519(3) 0.0146(3)
H5_12 H 0.5010 0.6545 0.0450
N3_12 N 0.6906(3) 0.5965(3) 0.0326(3)
H7_12 H 0.4746 0.5881 0.0131
H9_12 H 0.5209 0.7086 0.0002
O4_12 O 0.3848(3) 0.6284(3) 0.0179(3)
C13_12 C 0.6532(5) 0.6154(4) 0.0240(3)
H10_12 H 0.6409 0.6380 0.0405
N8_12 N 0.3427(4) 0.7671(5) 0.0320(3)
C16_12 C 0.3772(5) 0.7440(6) 0.0246(4)
H12_12 H 0.4030 0.7465 0.0409
N9_12 N 0.9066(2) 0.6052(2) 0.0275(2)
C17_12 C 0.9925(3) 0.6733(2) 0.0602(2)
H13_12 H 0.9820 0.6984 0.0776
C18_12 C 0.9819(3) 0.5948(3) 0.0376(3)
H14_12 H 0.9930 0.5698 0.0544
C19_12 C 0.9415(3) 0.5799(3) 0.0114(3)
C21_12 C 0.8379(3) 0.5675(3) 0.0246(3)
H16_12 H 0.8432 0.5487 0.0480
C23_12 C 0.9645(3) 0.6294(3) 0.0697(2)
H18_12 H 0.9689 0.6196 0.1000
N14_12 N 0.8031(2) 0.5668(2) 0.0005(2)
N15_12 N 0.8646(2) 0.5983(2) 0.0115(2)
C27_12 C 0.9163(3) 0.6368(3) 0.0607(3)
C28_12 C 0.9893(3) 0.6818(3) 0.0106(3)
O7_12 O 0.8918(3) 0.6589(3) 0.0798(3)
N1_12 N 0.5934(2) 0.6052(2) 0.9725(2)
C1_12 C 0.5075(3) 0.6733(2) 0.9398(2)
H1_12 H 0.5180 0.6984 0.9224
N2_12 N 0.4028(3) 0.6887(3) 0.9758(3)
C2_12 C 0.5181(3) 0.5948(3) 0.9624(3)
H2_12 H 0.5070 0.5698 0.9456
C3_12 C 0.5585(3) 0.5799(3) 0.9886(3)
O2_12 O 0.4295(3) 0.7354(2) 0.9213(2)
C4_12 C 0.4584(3) 0.6623(3) 0.9301(3)
H3_12 H 0.4548 0.6525 0.8996
C5_12 C 0.6621(3) 0.5675(3) 0.9754(3)
H4_12 H 0.6568 0.5487 0.9520
N4_12 N 0.3722(3) 0.7160(4) 0.9910(3)
C7_12 C 0.5355(3) 0.6294(3) 0.9303(2)
H6_12 H 0.5311 0.6196 0.9000
N6_12 N 0.6969(2) 0.5668(2) 0.9995(2)
C8_12 C 0.4828(3) 0.6107(3) 0.9917(3)
C9_12 C 0.4308(3) 0.7006(3) 0.9388(4)
N7_12 N 0.6354(2) 0.5983(2) 0.9885(2)
C10_12 C 0.4425(3) 0.6245(3) 0.9635(4)
H8_12 H 0.4312 0.5992 0.9472
C11_12 C 0.5837(3) 0.6368(3) 0.9393(3)
C12_12 C 0.5107(3) 0.6818(3) 0.9894(3)
O3_12 O 0.6082(3) 0.6589(3) 0.9202(3)
C14_12 C 0.4076(4) 0.6448(4) 0.9889(3)
C15_12 C 0.3308(4) 0.7212(6) 0.9768(4)
H11_12 H 0.3182 0.7061 0.9534
O5_12 O 0.9380(2) 0.5532(2) 0.9830(2)
H17_12 H 0.9990 0.6545 0.9550
N11_12 N 0.8094(3) 0.5965(3) 0.9674(3)
H21_12 H 0.9791 0.7086 0.9998
C29_12 C 0.8468(5) 0.6154(4) 0.9760(3)
H22_12 H 0.8591 0.6380 0.9595
Zn1_9 Zn 0.2500 0.22375(6) 0.5000
N1_13 N 0.2775(2) 0.1448(2) 0.3434(2)
O1_13 O 0.2330(2) 0.1968(2) 0.3120(2)
C1_13 C 0.3102(2) 0.0767(2) 0.2575(3)
H1_13 H 0.3276 0.0516 0.2680
N2_13 N 0.2742(3) 0.0613(3) 0.1528(3)
C2_13 C 0.2876(3) 0.1552(3) 0.2681(3)
H2_13 H 0.3044 0.1802 0.2570
C3_13 C 0.2614(3) 0.1701(3) 0.3085(3)
O2_13 O 0.3287(2) 0.0146(2) 0.1795(3)
C4_13 C 0.3199(3) 0.0877(3) 0.2084(3)
H3_13 H 0.3504 0.0975 0.2048
C5_13 C 0.2746(3) 0.1825(3) 0.4121(3)
H4_13 H 0.2980 0.2013 0.4068
C6_13 C 0.2354(3) 0.0981(3) 0.2494(3)
H5_13 H 0.2050 0.0955 0.2510
N3_13 N 0.2174(3) 0.1535(3) 0.4406(3)
N4_13 N 0.2590(3) 0.0340(4) 0.1222(3)
C7_13 C 0.3197(2) 0.1206(3) 0.2855(3)
H6_13 H 0.3500 0.1304 0.2811
N6_13 N 0.2505(2) 0.1832(2) 0.4469(2)
C8_13 C 0.2583(3) 0.1393(3) 0.2328(3)
H7_13 H 0.2369 0.1619 0.2246
C9_13 C 0.3112(4) 0.0494(3) 0.1808(3)
N7_13 N 0.2615(2) 0.1517(2) 0.3854(2)
C10_13 C 0.2865(4) 0.1255(3) 0.1925(3)
H8_13 H 0.3028 0.1508 0.1812
C11_13 C 0.3107(3) 0.1132(3) 0.3337(3)
C12_13 C 0.2606(3) 0.0682(3) 0.2607(3)
H9_13 H 0.2498 0.0414 0.2709
O3_13 O 0.3298(3) 0.0911(3) 0.3582(3)
O4_13 O 0.2321(3) 0.1216(3) 0.1348(3)
C13_13 C 0.2260(3) 0.1346(4) 0.4032(5)
H10_13 H 0.2095 0.1120 0.3909
C14_13 C 0.2611(3) 0.1052(4) 0.1576(4)
C15_13 C 0.2732(4) 0.0288(6) 0.0808(4)
H11_13 H 0.2966 0.0439 0.0682
C16_13 C 0.2254(4) 0.0060(6) 0.1272(5)
H12_13 H 0.2091 0.0035 0.1530
N9_13 N 0.2225(2) 0.1448(2) 0.6566(2)
O5_13 O 0.2670(2) 0.1968(2) 0.6880(2)
C17_13 C 0.1898(2) 0.0767(2) 0.7425(3)
H13_13 H 0.1724 0.0516 0.7320
N10_13 N 0.2258(3) 0.0613(3) 0.8472(3)
C18_13 C 0.2124(3) 0.1552(3) 0.7319(3)
H14_13 H 0.1956 0.1802 0.7430
C19_13 C 0.2386(3) 0.1701(3) 0.6915(3)
O6_13 O 0.1713(2) 0.0146(2) 0.8205(3)
C20_13 C 0.1801(3) 0.0877(3) 0.7916(3)
H15_13 H 0.1496 0.0975 0.7952
C21_13 C 0.2254(3) 0.1825(3) 0.5879(3)
H16_13 H 0.2020 0.2013 0.5932
C22_13 C 0.2646(3) 0.0981(3) 0.7506(3)
H17_13 H 0.2950 0.0955 0.7490
N11_13 N 0.2826(3) 0.1535(3) 0.5594(3)
N12_13 N 0.2410(3) 0.0340(4) 0.8778(3)
C23_13 C 0.1803(2) 0.1206(3) 0.7145(3)
H18_13 H 0.1500 0.1304 0.7189
N14_13 N 0.2495(2) 0.1832(2) 0.5531(2)
C24_13 C 0.2417(3) 0.1393(3) 0.7672(3)
H19_13 H 0.2631 0.1619 0.7754
C25_13 C 0.1888(4) 0.0494(3) 0.8192(3)
N15_13 N 0.2385(2) 0.1517(2) 0.6146(2)
C26_13 C 0.2135(4) 0.1255(3) 0.8075(3)
H20_13 H 0.1972 0.1508 0.8188
C27_13 C 0.1893(3) 0.1132(3) 0.6663(3)
C28_13 C 0.2394(3) 0.0682(3) 0.7393(3)
H21_13 H 0.2502 0.0414 0.7291
O7_13 O 0.1702(3) 0.0911(3) 0.6418(3)
O8_13 O 0.2679(3) 0.1216(3) 0.8652(3)
C29_13 C 0.2740(3) 0.1346(4) 0.5968(5)
H22_13 H 0.2905 0.1120 0.6091
C30_13 C 0.2389(3) 0.1052(4) 0.8424(4)
C31_13 C 0.2268(4) 0.0288(6) 0.9192(4)
H23_13 H 0.2034 0.0439 0.9318
C32_13 C 0.2746(4) 0.0060(6) 0.8728(5)
H24_13 H 0.2909 0.0035 0.8470
N17_7 N 0.3105(3) 0.2486(3) 0.4984(3)
N18_7 N 0.1895(3) 0.2486(3) 0.5016(3)
Zn3_6 Zn 0.2500 0.97375(6) -0.0000
N5_7 N 0.2484(3) 0.9986(3) 0.0605(3)
N8_13 N 0.2180(3) 0.9829(5) 0.0927(4)
N13_7 N 0.2516(3) 0.9986(3) 0.9395(3)
N16_13 N 0.2820(3) 0.9829(5) 0.9073(4)
Zn3_7 Zn 0.2500 0.97375(6) 1.0000
N2_14 N 0.0972(3) 0.3113(3) 0.4758(3)
O2_14 O 0.0705(3) 0.2646(2) 0.4213(2)
C4_14 C 0.0416(3) 0.3377(3) 0.4301(3)
H3_14 H 0.0452 0.3475 0.3996
C6_14 C 0.0006(3) 0.3481(3) 0.5146(3)
N4_14 N 0.1278(3) 0.2840(4) 0.4910(3)
C8_14 C 0.0172(3) 0.3893(3) 0.4917(3)
H7_14 H 0.0254 0.4119 0.5131
C9_14 C 0.0692(3) 0.2994(3) 0.4388(4)
C10_14 C 0.0575(3) 0.3755(3) 0.4635(4)
H8_14 H 0.0688 0.4008 0.4472
O4_14 O 0.1152(3) 0.3716(3) 0.5179(3)
C14_14 C 0.0924(4) 0.3552(4) 0.4889(3)
C15_14 C 0.1692(4) 0.2788(6) 0.4768(4)
H11_14 H 0.1818 0.2939 0.4534
N8_14 N 0.1573(4) 0.2329(5) 0.5320(3)
C16_14 C 0.1228(5) 0.2560(6) 0.5246(4)
H12_14 H 0.0970 0.2535 0.5409
Zn1_10 Zn 0.7500 0.47375(6) 0.5000
N1_14 N 0.9066(2) 0.3948(2) 0.4725(2)
O1_14 O 0.9380(2) 0.4468(2) 0.5170(2)
C1_14 C 0.9925(3) 0.3267(2) 0.4398(2)
H1_14 H 0.9820 0.3016 0.4224
C2_14 C 0.9819(3) 0.4052(3) 0.4624(3)
H2_14 H 0.9930 0.4302 0.4456
C3_14 C 0.9415(3) 0.4201(3) 0.4886(3)
C5_14 C 0.8379(3) 0.4325(3) 0.4754(3)
H4_14 H 0.8432 0.4513 0.4520
H5_14 H 0.9990 0.3455 0.5450
N3_14 N 0.8094(3) 0.4035(3) 0.5326(3)
C7_14 C 0.9645(3) 0.3706(3) 0.4303(2)
H6_14 H 0.9689 0.3804 0.4000
N6_14 N 0.8031(2) 0.4332(2) 0.4995(2)
N7_14 N 0.8646(2) 0.4017(2) 0.4885(2)
C11_14 C 0.9163(3) 0.3632(3) 0.4393(3)
C12_14 C 0.9893(3) 0.3182(3) 0.4894(3)
H9_14 H 0.9791 0.2914 0.5002
O3_14 O 0.8918(3) 0.3411(3) 0.4202(3)
C13_14 C 0.8468(5) 0.3846(4) 0.5240(3)
H10_14 H 0.8591 0.3620 0.5405
N9_14 N 0.5934(2) 0.3948(2) 0.5275(2)
O5_14 O 0.5620(2) 0.4468(2) 0.4830(2)
C17_14 C 0.5075(3) 0.3267(2) 0.5602(2)
H13_14 H 0.5180 0.3016 0.5776
N10_14 N 0.4028(3) 0.3113(3) 0.5242(3)
C18_14 C 0.5181(3) 0.4052(3) 0.5376(3)
H14_14 H 0.5070 0.4302 0.5544
C19_14 C 0.5585(3) 0.4201(3) 0.5114(3)
O6_14 O 0.4295(3) 0.2646(2) 0.5787(2)
C20_14 C 0.4584(3) 0.3377(3) 0.5699(3)
H15_14 H 0.4548 0.3475 0.6004
C21_14 C 0.6621(3) 0.4325(3) 0.5246(3)
H16_14 H 0.6568 0.4513 0.5480
C22_14 C 0.4994(3) 0.3481(3) 0.4854(3)
H17_14 H 0.5010 0.3455 0.4550
N11_14 N 0.6906(3) 0.4035(3) 0.4674(3)
N12_14 N 0.3722(3) 0.2840(4) 0.5090(3)
C23_14 C 0.5355(3) 0.3706(3) 0.5697(2)
H18_14 H 0.5311 0.3804 0.6000
N14_14 N 0.6969(2) 0.4332(2) 0.5005(2)
C24_14 C 0.4828(3) 0.3893(3) 0.5083(3)
H19_14 H 0.4746 0.4119 0.4869
C25_14 C 0.4308(3) 0.2994(3) 0.5612(4)
N15_14 N 0.6354(2) 0.4017(2) 0.5115(2)
C26_14 C 0.4425(3) 0.3755(3) 0.5365(4)
H20_14 H 0.4312 0.4008 0.5528
C27_14 C 0.5837(3) 0.3632(3) 0.5607(3)
C28_14 C 0.5107(3) 0.3182(3) 0.5106(3)
H21_14 H 0.5209 0.2914 0.4998
O7_14 O 0.6082(3) 0.3411(3) 0.5798(3)
O8_14 O 0.3848(3) 0.3716(3) 0.4821(3)
C29_14 C 0.6532(5) 0.3846(4) 0.4760(3)
H22_14 H 0.6409 0.3620 0.4595
C30_14 C 0.4076(4) 0.3552(4) 0.5111(3)
C31_14 C 0.3308(4) 0.2788(6) 0.5232(4)
H23_14 H 0.3182 0.2939 0.5466
N16_14 N 0.3427(4) 0.2329(5) 0.4680(3)
C32_14 C 0.3772(5) 0.2560(6) 0.4754(4)
H24_14 H 0.4030 0.2535 0.4591
N17_8 N 0.7516(3) 0.4986(3) 0.4395(3)
N18_8 N 0.7484(3) 0.4986(3) 0.5605(3)
N1_15 N 0.0934(2) 0.8948(2) 0.0275(2)
C1_15 C 0.0075(3) 0.8267(2) 0.0602(2)
H1_15 H 0.0180 0.8016 0.0776
C2_15 C 0.0181(3) 0.9052(3) 0.0376(3)
H2_15 H 0.0070 0.9302 0.0544
C3_15 C 0.0585(3) 0.9201(3) 0.0114(3)
C5_15 C 0.1621(3) 0.9325(3) 0.0246(3)
H4_15 H 0.1568 0.9513 0.0480
C7_15 C 0.0355(3) 0.8706(3) 0.0697(2)
H6_15 H 0.0311 0.8804 0.1000
N6_15 N 0.1969(2) 0.9332(2) 0.0005(2)
N7_15 N 0.1354(2) 0.9017(2) 0.0115(2)
C11_15 C 0.0837(3) 0.8632(3) 0.0607(3)
C12_15 C 0.0107(3) 0.8182(3) 0.0106(3)
O3_15 O 0.1082(3) 0.8411(3) 0.0798(3)
O5_15 O 0.4380(2) 0.9468(2) 0.0170(2)
C22_15 C 0.5006(3) 0.8481(3) 0.0146(3)
H17_15 H 0.4990 0.8455 0.0450
N11_15 N 0.3094(3) 0.9035(3) 0.0326(3)
N13_8 N 0.6895(3) 0.7486(3) 0.0016(3)
H19_15 H 0.5254 0.9119 0.0131
H21_15 H 0.4791 0.7914 0.0002
O8_15 O 0.6152(3) 0.8716(3) 0.0179(3)
C29_15 C 0.3468(5) 0.8846(4) 0.0240(3)
H22_15 H 0.3591 0.8620 0.0405
N16_15 N 0.6573(4) 0.7329(5) 0.0320(3)
C32_15 C 0.6228(5) 0.7560(6) 0.0246(4)
H24_15 H 0.5970 0.7535 0.0409
Zn3_8 Zn 0.7500 0.72375(6) 0.0000
O1_15 O 0.0620(2) 0.9468(2) 0.9830(2)
H5_15 H 0.0010 0.8455 0.9550
N3_15 N 0.1906(3) 0.9035(3) 0.9674(3)
H9_15 H 0.0209 0.7914 0.9998
C13_15 C 0.1532(5) 0.8846(4) 0.9760(3)
H10_15 H 0.1409 0.8620 0.9595
N9_15 N 0.4066(2) 0.8948(2) 0.9725(2)
C17_15 C 0.4925(3) 0.8267(2) 0.9398(2)
H13_15 H 0.4820 0.8016 0.9224
N10_15 N 0.5972(3) 0.8113(3) 0.9758(3)
C18_15 C 0.4819(3) 0.9052(3) 0.9624(3)
H14_15 H 0.4930 0.9302 0.9456
C19_15 C 0.4415(3) 0.9201(3) 0.9886(3)
O6_15 O 0.5705(3) 0.7646(2) 0.9213(2)
C20_15 C 0.5416(3) 0.8377(3) 0.9301(3)
H15_15 H 0.5452 0.8475 0.8996
C21_15 C 0.3379(3) 0.9325(3) 0.9754(3)
H16_15 H 0.3432 0.9513 0.9520
N12_15 N 0.6278(3) 0.7840(4) 0.9910(3)
C23_15 C 0.4645(3) 0.8706(3) 0.9303(2)
H18_15 H 0.4689 0.8804 0.9000
N14_15 N 0.3031(2) 0.9332(2) 0.9995(2)
C24_15 C 0.5172(3) 0.8893(3) 0.9917(3)
C25_15 C 0.5692(3) 0.7994(3) 0.9388(4)
N15_15 N 0.3646(2) 0.9017(2) 0.9885(2)
C26_15 C 0.5575(3) 0.8755(3) 0.9635(4)
H20_15 H 0.5688 0.9008 0.9472
C27_15 C 0.4163(3) 0.8632(3) 0.9393(3)
C28_15 C 0.4893(3) 0.8182(3) 0.9894(3)
O7_15 O 0.3918(3) 0.8411(3) 0.9202(3)
C30_15 C 0.5924(4) 0.8552(4) 0.9889(3)
C31_15 C 0.6692(4) 0.7788(6) 0.9768(4)
H23_15 H 0.6818 0.7939 0.9534
Zn3_9 Zn 0.7500 0.72375(6) 1.0000
N2_15 N 0.9028(3) 0.8113(3) 0.0242(3)
O2_15 O 0.9295(3) 0.7646(2) 0.0787(2)
C4_15 C 0.9584(3) 0.8377(3) 0.0699(3)
H3_15 H 0.9548 0.8475 0.1004
N4_15 N 0.8722(3) 0.7840(4) 0.0090(3)
C8_15 C 0.9828(3) 0.8893(3) 0.0083(3)
C9_15 C 0.9308(3) 0.7994(3) 0.0612(4)
C10_15 C 0.9425(3) 0.8755(3) 0.0365(4)
H8_15 H 0.9312 0.9008 0.0528
C14_15 C 0.9076(4) 0.8552(4) 0.0111(3)
C15_15 C 0.8308(4) 0.7788(6) 0.0232(4)
H11_15 H 0.8182 0.7939 0.0466
C6_15 C 0.9994(3) 0.8481(3) 0.9854(3)
N5_8 N 0.8105(3) 0.7486(3) 0.9984(3)
H7_15 H 0.9746 0.9119 0.9869
O4_15 O 0.8848(3) 0.8716(3) 0.9821(3)
N8_15 N 0.8427(4) 0.7329(5) 0.9680(3)
C16_15 C 0.8772(5) 0.7560(6) 0.9754(4)
H12_15 H 0.9030 0.7535 0.9591
N1_16 N 0.7225(2) 0.6448(2) 0.1566(2)
O1_16 O 0.7670(2) 0.6968(2) 0.1880(2)
C1_16 C 0.6898(2) 0.5767(2) 0.2425(3)
H1_16 H 0.6724 0.5516 0.2320
N2_16 N 0.7258(3) 0.5613(3) 0.3472(3)
C2_16 C 0.7124(3) 0.6552(3) 0.2319(3)
H2_16 H 0.6956 0.6802 0.2430
C3_16 C 0.7386(3) 0.6701(3) 0.1915(3)
O2_16 O 0.6713(2) 0.5146(2) 0.3205(3)
C4_16 C 0.6801(3) 0.5877(3) 0.2916(3)
H3_16 H 0.6496 0.5975 0.2952
C5_16 C 0.7254(3) 0.6825(3) 0.0879(3)
H4_16 H 0.7020 0.7013 0.0932
C6_16 C 0.7646(3) 0.5981(3) 0.2506(3)
H5_16 H 0.7950 0.5955 0.2490
N3_16 N 0.7826(3) 0.6535(3) 0.0594(3)
N4_16 N 0.7410(3) 0.5340(4) 0.3778(3)
C7_16 C 0.6803(2) 0.6206(3) 0.2145(3)
H6_16 H 0.6500 0.6304 0.2189
N6_16 N 0.7495(2) 0.6832(2) 0.0531(2)
C8_16 C 0.7417(3) 0.6393(3) 0.2672(3)
H7_16 H 0.7631 0.6619 0.2754
C9_16 C 0.6888(4) 0.5494(3) 0.3192(3)
N7_16 N 0.7385(2) 0.6517(2) 0.1146(2)
C10_16 C 0.7135(4) 0.6255(3) 0.3075(3)
H8_16 H 0.6972 0.6508 0.3188
C11_16 C 0.6893(3) 0.6132(3) 0.1663(3)
C12_16 C 0.7394(3) 0.5682(3) 0.2393(3)
H9_16 H 0.7502 0.5414 0.2291
O3_16 O 0.6702(3) 0.5911(3) 0.1418(3)
O4_16 O 0.7679(3) 0.6216(3) 0.3652(3)
C13_16 C 0.7740(3) 0.6346(4) 0.0968(5)
H10_16 H 0.7905 0.6120 0.1091
C14_16 C 0.7389(3) 0.6052(4) 0.3424(4)
C15_16 C 0.7268(4) 0.5288(6) 0.4192(4)
H11_16 H 0.7034 0.5439 0.4318
N8_16 N 0.7820(3) 0.4829(5) 0.4073(4)
C16_16 C 0.7746(4) 0.5060(6) 0.3728(5)
H12_16 H 0.7909 0.5035 0.3470
N9_16 N 0.7775(2) 0.6448(2) 0.8434(2)
O5_16 O 0.7330(2) 0.6968(2) 0.8120(2)
C17_16 C 0.8102(2) 0.5767(2) 0.7575(3)
H13_16 H 0.8276 0.5516 0.7680
N10_16 N 0.7742(3) 0.5613(3) 0.6528(3)
C18_16 C 0.7876(3) 0.6552(3) 0.7681(3)
H14_16 H 0.8044 0.6802 0.7570
C19_16 C 0.7614(3) 0.6701(3) 0.8085(3)
O6_16 O 0.8287(2) 0.5146(2) 0.6795(3)
C20_16 C 0.8199(3) 0.5877(3) 0.7084(3)
H15_16 H 0.8504 0.5975 0.7048
C21_16 C 0.7746(3) 0.6825(3) 0.9121(3)
H16_16 H 0.7980 0.7013 0.9068
C22_16 C 0.7354(3) 0.5981(3) 0.7494(3)
H17_16 H 0.7050 0.5955 0.7510
N11_16 N 0.7174(3) 0.6535(3) 0.9406(3)
N12_16 N 0.7590(3) 0.5340(4) 0.6222(3)
C23_16 C 0.8197(2) 0.6206(3) 0.7855(3)
H18_16 H 0.8500 0.6304 0.7811
N14_16 N 0.7505(2) 0.6832(2) 0.9469(2)
C24_16 C 0.7583(3) 0.6393(3) 0.7328(3)
H19_16 H 0.7369 0.6619 0.7246
C25_16 C 0.8112(4) 0.5494(3) 0.6808(3)
N15_16 N 0.7615(2) 0.6517(2) 0.8854(2)
C26_16 C 0.7865(4) 0.6255(3) 0.6925(3)
H20_16 H 0.8028 0.6508 0.6812
C27_16 C 0.8107(3) 0.6132(3) 0.8337(3)
C28_16 C 0.7606(3) 0.5682(3) 0.7607(3)
H21_16 H 0.7498 0.5414 0.7709
O7_16 O 0.8298(3) 0.5911(3) 0.8582(3)
O8_16 O 0.7321(3) 0.6216(3) 0.6348(3)
C29_16 C 0.7260(3) 0.6346(4) 0.9032(5)
H22_16 H 0.7095 0.6120 0.8909
C30_16 C 0.7611(3) 0.6052(4) 0.6576(4)
C31_16 C 0.7732(4) 0.5288(6) 0.5808(4)
H23_16 H 0.7966 0.5439 0.5682
N16_16 N 0.7180(3) 0.4829(5) 0.5927(4)
C32_16 C 0.7254(4) 0.5060(6) 0.6272(5)
H24_16 H 0.7091 0.5035 0.6530
Zn1_11 Zn 0.72375(6) 0.0000 0.7500
N1_17 N 0.6448(2) 0.1566(2) 0.7225(2)
O1_17 O 0.6968(2) 0.1880(2) 0.7670(2)
C1_17 C 0.5767(2) 0.2425(3) 0.6898(2)
H1_17 H 0.5516 0.2320 0.6724
N2_17 N 0.5613(3) 0.3472(3) 0.7258(3)
C2_17 C 0.6552(3) 0.2319(3) 0.7124(3)
H2_17 H 0.6802 0.2430 0.6956
C3_17 C 0.6701(3) 0.1915(3) 0.7386(3)
O2_17 O 0.5146(2) 0.3205(3) 0.6713(2)
C4_17 C 0.5877(3) 0.2916(3) 0.6801(3)
H3_17 H 0.5975 0.2952 0.6496
C5_17 C 0.6825(3) 0.0879(3) 0.7254(3)
H4_17 H 0.7013 0.0932 0.7020
C6_17 C 0.5981(3) 0.2506(3) 0.7646(3)
H5_17 H 0.5955 0.2490 0.7950
N3_17 N 0.6535(3) 0.0594(3) 0.7826(3)
N4_17 N 0.5340(4) 0.3778(3) 0.7410(3)
C7_17 C 0.6206(3) 0.2145(3) 0.6803(2)
H6_17 H 0.6304 0.2189 0.6500
N5_9 N 0.4986(3) 0.4395(3) 0.7516(3)
N6_17 N 0.6832(2) 0.0531(2) 0.7495(2)
C8_17 C 0.6393(3) 0.2672(3) 0.7417(3)
H7_17 H 0.6619 0.2754 0.7631
C9_17 C 0.5494(3) 0.3192(3) 0.6888(4)
N7_17 N 0.6517(2) 0.1146(2) 0.7385(2)
C10_17 C 0.6255(3) 0.3075(3) 0.7135(4)
H8_17 H 0.6508 0.3188 0.6972
C11_17 C 0.6132(3) 0.1663(3) 0.6893(3)
C12_17 C 0.5682(3) 0.2393(3) 0.7394(3)
H9_17 H 0.5414 0.2291 0.7502
O3_17 O 0.5911(3) 0.1418(3) 0.6702(3)
O4_17 O 0.6216(3) 0.3652(3) 0.7679(3)
C13_17 C 0.6346(4) 0.0968(5) 0.7740(3)
H10_17 H 0.6120 0.1091 0.7905
C14_17 C 0.6052(4) 0.3424(4) 0.7389(3)
C15_17 C 0.5288(6) 0.4192(4) 0.7268(4)
H11_17 H 0.5439 0.4318 0.7034
N8_17 N 0.4829(5) 0.4073(4) 0.7820(3)
C16_17 C 0.5060(6) 0.3728(5) 0.7746(4)
H12_17 H 0.5035 0.3470 0.7909
Zn2_6 Zn 0.47375(6) 0.5000 0.7500
N17_9 N 0.7486(3) 0.0016(3) 0.6895(3)
Zn1_12 Zn 0.72375(6) 1.0000 0.7500
N9_17 N 0.6448(2) 0.8434(2) 0.7775(2)
O5_17 O 0.6968(2) 0.8120(2) 0.7330(2)
C17_17 C 0.5767(2) 0.7575(3) 0.8102(2)
H13_17 H 0.5516 0.7680 0.8276
N10_17 N 0.5613(3) 0.6528(3) 0.7742(3)
C18_17 C 0.6552(3) 0.7681(3) 0.7876(3)
H14_17 H 0.6802 0.7570 0.8044
C19_17 C 0.6701(3) 0.8085(3) 0.7614(3)
O6_17 O 0.5146(2) 0.6795(3) 0.8287(2)
C20_17 C 0.5877(3) 0.7084(3) 0.8199(3)
H15_17 H 0.5975 0.7048 0.8504
C21_17 C 0.6825(3) 0.9121(3) 0.7746(3)
H16_17 H 0.7013 0.9068 0.7980
C22_17 C 0.5981(3) 0.7494(3) 0.7354(3)
H17_17 H 0.5955 0.7510 0.7050
N11_17 N 0.6535(3) 0.9406(3) 0.7174(3)
N12_17 N 0.5340(4) 0.6222(3) 0.7590(3)
C23_17 C 0.6206(3) 0.7855(3) 0.8197(2)
H18_17 H 0.6304 0.7811 0.8500
N13_9 N 0.4986(3) 0.5605(3) 0.7484(3)
N14_17 N 0.6832(2) 0.9469(2) 0.7505(2)
C24_17 C 0.6393(3) 0.7328(3) 0.7583(3)
H19_17 H 0.6619 0.7246 0.7369
C25_17 C 0.5494(3) 0.6808(3) 0.8112(4)
N15_17 N 0.6517(2) 0.8854(2) 0.7615(2)
C26_17 C 0.6255(3) 0.6925(3) 0.7865(4)
H20_17 H 0.6508 0.6812 0.8028
C27_17 C 0.6132(3) 0.8337(3) 0.8107(3)
C28_17 C 0.5682(3) 0.7607(3) 0.7606(3)
H21_17 H 0.5414 0.7709 0.7498
O7_17 O 0.5911(3) 0.8582(3) 0.8298(3)
O8_17 O 0.6216(3) 0.6348(3) 0.7321(3)
C29_17 C 0.6346(4) 0.9032(5) 0.7260(3)
H22_17 H 0.6120 0.8909 0.7095
C30_17 C 0.6052(4) 0.6576(4) 0.7611(3)
C31_17 C 0.5288(6) 0.5808(4) 0.7732(4)
H23_17 H 0.5439 0.5682 0.7966
N16_17 N 0.4829(5) 0.5927(4) 0.7180(3)
C32_17 C 0.5060(6) 0.6272(5) 0.7254(4)
H24_17 H 0.5035 0.6530 0.7091
N18_9 N 0.7486(3) 0.9984(3) 0.8105(3)
Zn1_13 Zn 0.97375(6) 0.0000 0.2500
N1_18 N 0.8948(2) 0.0275(2) 0.0934(2)
C1_18 C 0.8267(2) 0.0602(2) 0.0075(3)
H1_18 H 0.8016 0.0776 0.0180
C2_18 C 0.9052(3) 0.0376(3) 0.0181(3)
H2_18 H 0.9302 0.0544 0.0070
C3_18 C 0.9201(3) 0.0114(3) 0.0585(3)
C5_18 C 0.9325(3) 0.0246(3) 0.1621(3)
H4_18 H 0.9513 0.0480 0.1568
C7_18 C 0.8706(3) 0.0697(2) 0.0355(3)
H6_18 H 0.8804 0.1000 0.0311
N6_18 N 0.9332(2) 0.0005(2) 0.1969(2)
N7_18 N 0.9017(2) 0.0115(2) 0.1354(2)
C11_18 C 0.8632(3) 0.0607(3) 0.0837(3)
C12_18 C 0.8182(3) 0.0106(3) 0.0107(3)
O3_18 O 0.8411(3) 0.0798(3) 0.1082(3)
O5_18 O 0.9468(2) 0.0170(2) 0.4380(2)
C22_18 C 0.8481(3) 0.0146(3) 0.5006(3)
H17_18 H 0.8455 0.0450 0.4990
N11_18 N 0.9035(3) 0.0326(3) 0.3094(3)
H19_18 H 0.9119 0.0131 0.5254
H21_18 H 0.7914 0.0002 0.4791
O8_18 O 0.8716(3) 0.0179(3) 0.6152(3)
C29_18 C 0.8846(4) 0.0240(3) 0.3468(5)
H22_18 H 0.8620 0.0405 0.3591
N16_18 N 0.7329(5) 0.0320(3) 0.6573(4)
C32_18 C 0.7560(6) 0.0246(4) 0.6228(5)
H24_18 H 0.7535 0.0409 0.5970
N17_10 N 0.9986(3) 0.0605(3) 0.2484(3)
N2_18 N 0.8113(3) 0.0242(3) 0.9028(3)
O2_18 O 0.7646(2) 0.0787(2) 0.9295(3)
C4_18 C 0.8377(3) 0.0699(3) 0.9584(3)
H3_18 H 0.8475 0.1004 0.9548
N4_18 N 0.7840(4) 0.0090(3) 0.8722(3)
C8_18 C 0.8893(3) 0.0083(3) 0.9828(3)
C9_18 C 0.7994(3) 0.0612(4) 0.9308(3)
C10_18 C 0.8755(3) 0.0365(4) 0.9425(3)
H8_18 H 0.9008 0.0528 0.9312
C14_18 C 0.8552(4) 0.0111(3) 0.9076(4)
C15_18 C 0.7788(6) 0.0232(4) 0.8308(4)
H11_18 H 0.7939 0.0466 0.8182
Zn1_14 Zn 0.97375(6) 1.0000 0.2500
O1_18 O 0.9468(2) 0.9830(2) 0.0620(2)
H5_18 H 0.8455 0.9550 0.0010
N3_18 N 0.9035(3) 0.9674(3) 0.1906(3)
H9_18 H 0.7914 0.9998 0.0209
C13_18 C 0.8846(4) 0.9760(3) 0.1532(5)
H10_18 H 0.8620 0.9595 0.1409
N9_18 N 0.8948(2) 0.9725(2) 0.4066(2)
C17_18 C 0.8267(2) 0.9398(2) 0.4925(3)
H13_18 H 0.8016 0.9224 0.4820
N10_18 N 0.8113(3) 0.9758(3) 0.5972(3)
C18_18 C 0.9052(3) 0.9624(3) 0.4819(3)
H14_18 H 0.9302 0.9456 0.4930
C19_18 C 0.9201(3) 0.9886(3) 0.4415(3)
O6_18 O 0.7646(2) 0.9213(2) 0.5705(3)
C20_18 C 0.8377(3) 0.9301(3) 0.5416(3)
H15_18 H 0.8475 0.8996 0.5452
C21_18 C 0.9325(3) 0.9754(3) 0.3379(3)
H16_18 H 0.9513 0.9520 0.3432
N12_18 N 0.7840(4) 0.9910(3) 0.6278(3)
C23_18 C 0.8706(3) 0.9303(2) 0.4645(3)
H18_18 H 0.8804 0.9000 0.4689
N14_18 N 0.9332(2) 0.9995(2) 0.3031(2)
C24_18 C 0.8893(3) 0.9917(3) 0.5172(3)
C25_18 C 0.7994(3) 0.9388(4) 0.5692(3)
N15_18 N 0.9017(2) 0.9885(2) 0.3646(2)
C26_18 C 0.8755(3) 0.9635(4) 0.5575(3)
H20_18 H 0.9008 0.9472 0.5688
C27_18 C 0.8632(3) 0.9393(3) 0.4163(3)
C28_18 C 0.8182(3) 0.9894(3) 0.4893(3)
O7_18 O 0.8411(3) 0.9202(3) 0.3918(3)
C30_18 C 0.8552(4) 0.9889(3) 0.5924(4)
C31_18 C 0.7788(6) 0.9768(4) 0.6692(4)
H23_18 H 0.7939 0.9534 0.6818
N18_10 N 0.9986(3) 0.9395(3) 0.2516(3)
C6_18 C 0.8481(3) 0.9854(3) 0.9994(3)
H7_18 H 0.9119 0.9869 0.9746
O4_18 O 0.8716(3) 0.9821(3) 0.8848(3)
N8_18 N 0.7329(5) 0.9680(3) 0.8427(4)
C16_18 C 0.7560(6) 0.9754(4) 0.8772(5)
H12_18 H 0.7535 0.9591 0.9030
N2_19 N 0.3113(3) 0.4758(3) 0.0972(3)
O2_19 O 0.2646(2) 0.4213(2) 0.0705(3)
C4_19 C 0.3377(3) 0.4301(3) 0.0416(3)
H3_19 H 0.3475 0.3996 0.0452
C6_19 C 0.3481(3) 0.5146(3) 0.0006(3)
N4_19 N 0.2840(4) 0.4910(3) 0.1278(3)
N5_10 N 0.2486(3) 0.5016(3) 0.1895(3)
C8_19 C 0.3893(3) 0.4917(3) 0.0172(3)
H7_19 H 0.4119 0.5131 0.0254
C9_19 C 0.2994(3) 0.4388(4) 0.0692(3)
C10_19 C 0.3755(3) 0.4635(4) 0.0575(3)
H8_19 H 0.4008 0.4472 0.0688
O4_19 O 0.3716(3) 0.5179(3) 0.1152(3)
C14_19 C 0.3552(4) 0.4889(3) 0.0924(4)
C15_19 C 0.2788(6) 0.4768(4) 0.1692(4)
H11_19 H 0.2939 0.4534 0.1818
N8_19 N 0.2329(5) 0.5320(3) 0.1573(4)
C16_19 C 0.2560(6) 0.5246(4) 0.1228(5)
H12_19 H 0.2535 0.5409 0.0970
Zn2_7 Zn 0.22375(6) 0.5000 0.2500
N1_19 N 0.3948(2) 0.4725(2) 0.9066(2)
O1_19 O 0.4468(2) 0.5170(2) 0.9380(2)
C1_19 C 0.3267(2) 0.4398(2) 0.9925(3)
H1_19 H 0.3016 0.4224 0.9820
C2_19 C 0.4052(3) 0.4624(3) 0.9819(3)
H2_19 H 0.4302 0.4456 0.9930
C3_19 C 0.4201(3) 0.4886(3) 0.9415(3)
C5_19 C 0.4325(3) 0.4754(3) 0.8379(3)
H4_19 H 0.4513 0.4520 0.8432
H5_19 H 0.3455 0.5450 0.9990
N3_19 N 0.4035(3) 0.5326(3) 0.8094(3)
C7_19 C 0.3706(3) 0.4303(2) 0.9645(3)
H6_19 H 0.3804 0.4000 0.9689
N6_19 N 0.4332(2) 0.4995(2) 0.8031(2)
N7_19 N 0.4017(2) 0.4885(2) 0.8646(2)
C11_19 C 0.3632(3) 0.4393(3) 0.9163(3)
C12_19 C 0.3182(3) 0.4894(3) 0.9893(3)
H9_19 H 0.2914 0.5002 0.9791
O3_19 O 0.3411(3) 0.4202(3) 0.8918(3)
C13_19 C 0.3846(4) 0.5240(3) 0.8468(5)
H10_19 H 0.3620 0.5405 0.8591
N9_19 N 0.3948(2) 0.5275(2) 0.5934(2)
O5_19 O 0.4468(2) 0.4830(2) 0.5620(2)
C17_19 C 0.3267(2) 0.5602(2) 0.5075(3)
H13_19 H 0.3016 0.5776 0.5180
N10_19 N 0.3113(3) 0.5242(3) 0.4028(3)
C18_19 C 0.4052(3) 0.5376(3) 0.5181(3)
H14_19 H 0.4302 0.5544 0.5070
C19_19 C 0.4201(3) 0.5114(3) 0.5585(3)
O6_19 O 0.2646(2) 0.5787(2) 0.4295(3)
C20_19 C 0.3377(3) 0.5699(3) 0.4584(3)
H15_19 H 0.3475 0.6004 0.4548
C21_19 C 0.4325(3) 0.5246(3) 0.6621(3)
H16_19 H 0.4513 0.5480 0.6568
C22_19 C 0.3481(3) 0.4854(3) 0.4994(3)
H17_19 H 0.3455 0.4550 0.5010
N11_19 N 0.4035(3) 0.4674(3) 0.6906(3)
N12_19 N 0.2840(4) 0.5090(3) 0.3722(3)
C23_19 C 0.3706(3) 0.5697(2) 0.5355(3)
H18_19 H 0.3804 0.6000 0.5311
N13_10 N 0.2486(3) 0.4984(3) 0.3105(3)
N14_19 N 0.4332(2) 0.5005(2) 0.6969(2)
C24_19 C 0.3893(3) 0.5083(3) 0.4828(3)
H19_19 H 0.4119 0.4869 0.4746
C25_19 C 0.2994(3) 0.5612(4) 0.4308(3)
N15_19 N 0.4017(2) 0.5115(2) 0.6354(2)
C26_19 C 0.3755(3) 0.5365(4) 0.4425(3)
H20_19 H 0.4008 0.5528 0.4312
C27_19 C 0.3632(3) 0.5607(3) 0.5837(3)
C28_19 C 0.3182(3) 0.5106(3) 0.5107(3)
H21_19 H 0.2914 0.4998 0.5209
O7_19 O 0.3411(3) 0.5798(3) 0.6082(3)
O8_19 O 0.3716(3) 0.4821(3) 0.3848(3)
C29_19 C 0.3846(4) 0.4760(3) 0.6532(5)
H22_19 H 0.3620 0.4595 0.6409
C30_19 C 0.3552(4) 0.5111(3) 0.4076(4)
C31_19 C 0.2788(6) 0.5232(4) 0.3308(4)
H23_19 H 0.2939 0.5466 0.3182
N16_19 N 0.2329(5) 0.4680(3) 0.3427(4)
C32_19 C 0.2560(6) 0.4754(4) 0.3772(5)
H24_19 H 0.2535 0.4591 0.4030
N1_20 N 0.1448(2) 0.3434(2) 0.2775(2)
O1_20 O 0.1968(2) 0.3120(2) 0.2330(2)
C1_20 C 0.0767(2) 0.2575(3) 0.3102(2)
H1_20 H 0.0516 0.2680 0.3276
N2_20 N 0.0613(3) 0.1528(3) 0.2742(3)
C2_20 C 0.1552(3) 0.2681(3) 0.2876(3)
H2_20 H 0.1802 0.2570 0.3044
C3_20 C 0.1701(3) 0.3085(3) 0.2614(3)
O2_20 O 0.0146(2) 0.1795(3) 0.3287(2)
C4_20 C 0.0877(3) 0.2084(3) 0.3199(3)
H3_20 H 0.0975 0.2048 0.3504
C5_20 C 0.1825(3) 0.4121(3) 0.2746(3)
H4_20 H 0.2013 0.4068 0.2980
C6_20 C 0.0981(3) 0.2494(3) 0.2354(3)
H5_20 H 0.0955 0.2510 0.2050
N3_20 N 0.1535(3) 0.4406(3) 0.2174(3)
N4_20 N 0.0340(4) 0.1222(3) 0.2590(3)
C7_20 C 0.1206(3) 0.2855(3) 0.3197(2)
H6_20 H 0.1304 0.2811 0.3500
N6_20 N 0.1832(2) 0.4469(2) 0.2505(2)
C8_20 C 0.1393(3) 0.2328(3) 0.2583(3)
H7_20 H 0.1619 0.2246 0.2369
C9_20 C 0.0494(3) 0.1808(3) 0.3112(4)
N7_20 N 0.1517(2) 0.3854(2) 0.2615(2)
C10_20 C 0.1255(3) 0.1925(3) 0.2865(4)
H8_20 H 0.1508 0.1812 0.3028
C11_20 C 0.1132(3) 0.3337(3) 0.3107(3)
C12_20 C 0.0682(3) 0.2607(3) 0.2606(3)
H9_20 H 0.0414 0.2709 0.2498
O3_20 O 0.0911(3) 0.3582(3) 0.3298(3)
O4_20 O 0.1216(3) 0.1348(3) 0.2321(3)
C13_20 C 0.1346(4) 0.4032(5) 0.2260(3)
H10_20 H 0.1120 0.3909 0.2095
C14_20 C 0.1052(4) 0.1576(4) 0.2611(3)
C15_20 C 0.0288(6) 0.0808(4) 0.2732(4)
H11_20 H 0.0439 0.0682 0.2966
C16_20 C 0.0060(6) 0.1272(5) 0.2254(4)
H12_20 H 0.0035 0.1530 0.2091
N9_20 N 0.1448(2) 0.6566(2) 0.2225(2)
O5_20 O 0.1968(2) 0.6880(2) 0.2670(2)
C17_20 C 0.0767(2) 0.7425(3) 0.1898(2)
H13_20 H 0.0516 0.7320 0.1724
N10_20 N 0.0613(3) 0.8472(3) 0.2258(3)
C18_20 C 0.1552(3) 0.7319(3) 0.2124(3)
H14_20 H 0.1802 0.7430 0.1956
C19_20 C 0.1701(3) 0.6915(3) 0.2386(3)
O6_20 O 0.0146(2) 0.8205(3) 0.1713(2)
C20_20 C 0.0877(3) 0.7916(3) 0.1801(3)
H15_20 H 0.0975 0.7952 0.1496
C21_20 C 0.1825(3) 0.5879(3) 0.2254(3)
H16_20 H 0.2013 0.5932 0.2020
C22_20 C 0.0981(3) 0.7506(3) 0.2646(3)
H17_20 H 0.0955 0.7490 0.2950
N11_20 N 0.1535(3) 0.5594(3) 0.2826(3)
N12_20 N 0.0340(4) 0.8778(3) 0.2410(3)
C23_20 C 0.1206(3) 0.7145(3) 0.1803(2)
H18_20 H 0.1304 0.7189 0.1500
N14_20 N 0.1832(2) 0.5531(2) 0.2495(2)
C24_20 C 0.1393(3) 0.7672(3) 0.2417(3)
H19_20 H 0.1619 0.7754 0.2631
C25_20 C 0.0494(3) 0.8192(3) 0.1888(4)
N15_20 N 0.1517(2) 0.6146(2) 0.2385(2)
C26_20 C 0.1255(3) 0.8075(3) 0.2135(4)
H20_20 H 0.1508 0.8188 0.1972
C27_20 C 0.1132(3) 0.6663(3) 0.1893(3)
C28_20 C 0.0682(3) 0.7393(3) 0.2394(3)
H21_20 H 0.0414 0.7291 0.2502
O7_20 O 0.0911(3) 0.6418(3) 0.1702(3)
O8_20 O 0.1216(3) 0.8652(3) 0.2679(3)
C29_20 C 0.1346(4) 0.5968(5) 0.2740(3)
H22_20 H 0.1120 0.6091 0.2905
C30_20 C 0.1052(4) 0.8424(4) 0.2389(3)
C31_20 C 0.0288(6) 0.9192(4) 0.2268(4)
H23_20 H 0.0439 0.9318 0.2034
C32_20 C 0.0060(6) 0.8728(5) 0.2746(4)
H24_20 H 0.0035 0.8470 0.2909
N8_20 N 0.9829(5) 0.0927(4) 0.2180(3)
N16_20 N 0.9829(5) 0.9073(4) 0.2820(3)
Zn2_8 Zn 0.52625(6) -0.0000 0.7500
Zn1_15 Zn 0.27625(6) 0.5000 0.7500
N1_21 N 0.3552(2) 0.6566(2) 0.7775(2)
O1_21 O 0.3032(2) 0.6880(2) 0.7330(2)
C1_21 C 0.4233(2) 0.7425(3) 0.8102(2)
H1_21 H 0.4484 0.7320 0.8276
N2_21 N 0.4387(3) 0.8472(3) 0.7742(3)
C2_21 C 0.3448(3) 0.7319(3) 0.7876(3)
H2_21 H 0.3198 0.7430 0.8044
C3_21 C 0.3299(3) 0.6915(3) 0.7614(3)
O2_21 O 0.4854(2) 0.8205(3) 0.8287(2)
C4_21 C 0.4123(3) 0.7916(3) 0.8199(3)
H3_21 H 0.4025 0.7952 0.8504
C5_21 C 0.3175(3) 0.5879(3) 0.7746(3)
H4_21 H 0.2987 0.5932 0.7980
C6_21 C 0.4019(3) 0.7506(3) 0.7354(3)
H5_21 H 0.4045 0.7490 0.7050
N3_21 N 0.3465(3) 0.5594(3) 0.7174(3)
N4_21 N 0.4660(4) 0.8778(3) 0.7590(3)
C7_21 C 0.3794(3) 0.7145(3) 0.8197(2)
H6_21 H 0.3696 0.7189 0.8500
N5_11 N 0.5014(3) 0.9395(3) 0.7484(3)
N6_21 N 0.3168(2) 0.5531(2) 0.7505(2)
C8_21 C 0.3607(3) 0.7672(3) 0.7583(3)
H7_21 H 0.3381 0.7754 0.7369
C9_21 C 0.4506(3) 0.8192(3) 0.8112(4)
N7_21 N 0.3483(2) 0.6146(2) 0.7615(2)
C10_21 C 0.3745(3) 0.8075(3) 0.7865(4)
H8_21 H 0.3492 0.8188 0.8028
C11_21 C 0.3868(3) 0.6663(3) 0.8107(3)
C12_21 C 0.4318(3) 0.7393(3) 0.7606(3)
H9_21 H 0.4586 0.7291 0.7498
O3_21 O 0.4089(3) 0.6418(3) 0.8298(3)
O4_21 O 0.3784(3) 0.8652(3) 0.7321(3)
C13_21 C 0.3654(4) 0.5968(5) 0.7260(3)
H10_21 H 0.3880 0.6091 0.7095
C14_21 C 0.3948(4) 0.8424(4) 0.7611(3)
C15_21 C 0.4712(6) 0.9192(4) 0.7732(4)
H11_21 H 0.4561 0.9318 0.7966
N8_21 N 0.5171(5) 0.9073(4) 0.7180(3)
C16_21 C 0.4940(6) 0.8728(5) 0.7254(4)
H12_21 H 0.4965 0.8470 0.7091
N9_21 N 0.3552(2) 0.3434(2) 0.7225(2)
O5_21 O 0.3032(2) 0.3120(2) 0.7670(2)
C17_21 C 0.4233(2) 0.2575(3) 0.6898(2)
H13_21 H 0.4484 0.2680 0.6724
N10_21 N 0.4387(3) 0.1528(3) 0.7258(3)
C18_21 C 0.3448(3) 0.2681(3) 0.7124(3)
H14_21 H 0.3198 0.2570 0.6956
C19_21 C 0.3299(3) 0.3085(3) 0.7386(3)
O6_21 O 0.4854(2) 0.1795(3) 0.6713(2)
C20_21 C 0.4123(3) 0.2084(3) 0.6801(3)
H15_21 H 0.4025 0.2048 0.6496
C21_21 C 0.3175(3) 0.4121(3) 0.7254(3)
H16_21 H 0.2987 0.4068 0.7020
C22_21 C 0.4019(3) 0.2494(3) 0.7646(3)
H17_21 H 0.4045 0.2510 0.7950
N11_21 N 0.3465(3) 0.4406(3) 0.7826(3)
N12_21 N 0.4660(4) 0.1222(3) 0.7410(3)
C23_21 C 0.3794(3) 0.2855(3) 0.6803(2)
H18_21 H 0.3696 0.2811 0.6500
N13_11 N 0.5014(3) 0.0605(3) 0.7516(3)
N14_21 N 0.3168(2) 0.4469(2) 0.7495(2)
C24_21 C 0.3607(3) 0.2328(3) 0.7417(3)
H19_21 H 0.3381 0.2246 0.7631
C25_21 C 0.4506(3) 0.1808(3) 0.6888(4)
N15_21 N 0.3483(2) 0.3854(2) 0.7385(2)
C26_21 C 0.3745(3) 0.1925(3) 0.7135(4)
H20_21 H 0.3492 0.1812 0.6972
C27_21 C 0.3868(3) 0.3337(3) 0.6893(3)
C28_21 C 0.4318(3) 0.2607(3) 0.7394(3)
H21_21 H 0.4586 0.2709 0.7502
O7_21 O 0.4089(3) 0.3582(3) 0.6702(3)
O8_21 O 0.3784(3) 0.1348(3) 0.7679(3)
C29_21 C 0.3654(4) 0.4032(5) 0.7740(3)
H22_21 H 0.3880 0.3909 0.7905
C30_21 C 0.3948(4) 0.1576(4) 0.7389(3)
C31_21 C 0.4712(6) 0.0808(4) 0.7268(4)
H23_21 H 0.4561 0.0682 0.7034
N16_21 N 0.5171(5) 0.0927(4) 0.7820(3)
C32_21 C 0.4940(6) 0.1272(5) 0.7746(4)
H24_21 H 0.4965 0.1530 0.7909
Zn2_9 Zn 0.52625(6) 1.0000 0.7500
N17_11 N 0.2514(3) 0.5016(3) 0.8105(3)
N18_11 N 0.2514(3) 0.4984(3) 0.6895(3)
Zn1_16 Zn 0.02625(6) 0.5000 0.2500
N1_22 N 0.1052(2) 0.4725(2) 0.0934(2)
O1_22 O 0.0532(2) 0.5170(2) 0.0620(2)
C1_22 C 0.1733(2) 0.4398(2) 0.0075(3)
H1_22 H 0.1984 0.4224 0.0180
C2_22 C 0.0948(3) 0.4624(3) 0.0181(3)
H2_22 H 0.0698 0.4456 0.0070
C3_22 C 0.0799(3) 0.4886(3) 0.0585(3)
C5_22 C 0.0675(3) 0.4754(3) 0.1621(3)
H4_22 H 0.0487 0.4520 0.1568
H5_22 H 0.1545 0.5450 0.0010
N3_22 N 0.0965(3) 0.5326(3) 0.1906(3)
C7_22 C 0.1294(3) 0.4303(2) 0.0355(3)
H6_22 H 0.1196 0.4000 0.0311
N6_22 N 0.0668(2) 0.4995(2) 0.1969(2)
N7_22 N 0.0983(2) 0.4885(2) 0.1354(2)
C11_22 C 0.1368(3) 0.4393(3) 0.0837(3)
C12_22 C 0.1818(3) 0.4894(3) 0.0107(3)
H9_22 H 0.2086 0.5002 0.0209
O3_22 O 0.1589(3) 0.4202(3) 0.1082(3)
C13_22 C 0.1154(4) 0.5240(3) 0.1532(5)
H10_22 H 0.1380 0.5405 0.1409
N9_22 N 0.1052(2) 0.5275(2) 0.4066(2)
O5_22 O 0.0532(2) 0.4830(2) 0.4380(2)
C17_22 C 0.1733(2) 0.5602(2) 0.4925(3)
H13_22 H 0.1984 0.5776 0.4820
N10_22 N 0.1887(3) 0.5242(3) 0.5972(3)
C18_22 C 0.0948(3) 0.5376(3) 0.4819(3)
H14_22 H 0.0698 0.5544 0.4930
C19_22 C 0.0799(3) 0.5114(3) 0.4415(3)
O6_22 O 0.2354(2) 0.5787(2) 0.5705(3)
C20_22 C 0.1623(3) 0.5699(3) 0.5416(3)
H15_22 H 0.1525 0.6004 0.5452
C21_22 C 0.0675(3) 0.5246(3) 0.3379(3)
H16_22 H 0.0487 0.5480 0.3432
C22_22 C 0.1519(3) 0.4854(3) 0.5006(3)
H17_22 H 0.1545 0.4550 0.4990
N11_22 N 0.0965(3) 0.4674(3) 0.3094(3)
N12_22 N 0.2160(4) 0.5090(3) 0.6278(3)
C23_22 C 0.1294(3) 0.5697(2) 0.4645(3)
H18_22 H 0.1196 0.6000 0.4689
N14_22 N 0.0668(2) 0.5005(2) 0.3031(2)
C24_22 C 0.1107(3) 0.5083(3) 0.5172(3)
H19_22 H 0.0881 0.4869 0.5254
C25_22 C 0.2006(3) 0.5612(4) 0.5692(3)
N15_22 N 0.0983(2) 0.5115(2) 0.3646(2)
C26_22 C 0.1245(3) 0.5365(4) 0.5575(3)
H20_22 H 0.0992 0.5528 0.5688
C27_22 C 0.1368(3) 0.5607(3) 0.4163(3)
C28_22 C 0.1818(3) 0.5106(3) 0.4893(3)
H21_22 H 0.2086 0.4998 0.4791
O7_22 O 0.1589(3) 0.5798(3) 0.3918(3)
O8_22 O 0.1284(3) 0.4821(3) 0.6152(3)
C29_22 C 0.1154(4) 0.4760(3) 0.3468(5)
H22_22 H 0.1380 0.4595 0.3591
C30_22 C 0.1448(4) 0.5111(3) 0.5924(4)
C31_22 C 0.2212(6) 0.5232(4) 0.6692(4)
H23_22 H 0.2061 0.5466 0.6818
N16_22 N 0.2671(5) 0.4680(3) 0.6573(4)
C32_22 C 0.2440(6) 0.4754(4) 0.6228(5)
H24_22 H 0.2465 0.4591 0.5970
N17_12 N 0.0014(3) 0.4395(3) 0.2484(3)
N18_12 N 0.0014(3) 0.5605(3) 0.2516(3)
N2_22 N 0.1887(3) 0.4758(3) 0.9028(3)
O2_22 O 0.2354(2) 0.4213(2) 0.9295(3)
C4_22 C 0.1623(3) 0.4301(3) 0.9584(3)
H3_22 H 0.1525 0.3996 0.9548
C6_22 C 0.1519(3) 0.5146(3) 0.9994(3)
N4_22 N 0.2160(4) 0.4910(3) 0.8722(3)
C8_22 C 0.1107(3) 0.4917(3) 0.9828(3)
H7_22 H 0.0881 0.5131 0.9746
C9_22 C 0.2006(3) 0.4388(4) 0.9308(3)
C10_22 C 0.1245(3) 0.4635(4) 0.9425(3)
H8_22 H 0.0992 0.4472 0.9312
O4_22 O 0.1284(3) 0.5179(3) 0.8848(3)
C14_22 C 0.1448(4) 0.4889(3) 0.9076(4)
C15_22 C 0.2212(6) 0.4768(4) 0.8308(4)
H11_22 H 0.2061 0.4534 0.8182
N8_22 N 0.2671(5) 0.5320(3) 0.8427(4)
C16_22 C 0.2440(6) 0.5246(4) 0.8772(5)
H12_22 H 0.2465 0.5409 0.9030
N8_23 N 0.0171(5) 0.4073(4) 0.2180(3)
N16_23 N 0.0171(5) 0.5927(4) 0.2820(3)
Zn1_17 Zn 0.77625(6) 0.0000 0.2500
N1_23 N 0.8552(2) 0.1566(2) 0.2775(2)
O1_23 O 0.8032(2) 0.1880(2) 0.2330(2)
C1_23 C 0.9233(2) 0.2425(3) 0.3102(2)
H1_23 H 0.9484 0.2320 0.3276
N2_23 N 0.9387(3) 0.3472(3) 0.2742(3)
C2_23 C 0.8448(3) 0.2319(3) 0.2876(3)
H2_23 H 0.8198 0.2430 0.3044
C3_23 C 0.8299(3) 0.1915(3) 0.2614(3)
O2_23 O 0.9854(2) 0.3205(3) 0.3287(2)
C4_23 C 0.9123(3) 0.2916(3) 0.3199(3)
H3_23 H 0.9025 0.2952 0.3504
C5_23 C 0.8175(3) 0.0879(3) 0.2746(3)
H4_23 H 0.7987 0.0932 0.2980
C6_23 C 0.9019(3) 0.2506(3) 0.2354(3)
H5_23 H 0.9045 0.2490 0.2050
N3_23 N 0.8465(3) 0.0594(3) 0.2174(3)
N4_23 N 0.9660(4) 0.3778(3) 0.2590(3)
C7_23 C 0.8794(3) 0.2145(3) 0.3197(2)
H6_23 H 0.8696 0.2189 0.3500
N6_23 N 0.8168(2) 0.0531(2) 0.2505(2)
C8_23 C 0.8607(3) 0.2672(3) 0.2583(3)
H7_23 H 0.8381 0.2754 0.2369
C9_23 C 0.9506(3) 0.3192(3) 0.3112(4)
N7_23 N 0.8483(2) 0.1146(2) 0.2615(2)
C10_23 C 0.8745(3) 0.3075(3) 0.2865(4)
H8_23 H 0.8492 0.3188 0.3028
C11_23 C 0.8868(3) 0.1663(3) 0.3107(3)
C12_23 C 0.9318(3) 0.2393(3) 0.2606(3)
H9_23 H 0.9586 0.2291 0.2498
O3_23 O 0.9089(3) 0.1418(3) 0.3298(3)
O4_23 O 0.8784(3) 0.3652(3) 0.2321(3)
C13_23 C 0.8654(4) 0.0968(5) 0.2260(3)
H10_23 H 0.8880 0.1091 0.2095
C14_23 C 0.8948(4) 0.3424(4) 0.2611(3)
C15_23 C 0.9712(6) 0.4192(4) 0.2732(4)
H11_23 H 0.9561 0.4318 0.2966
C16_23 C 0.9940(6) 0.3728(5) 0.2254(4)
H12_23 H 0.9965 0.3470 0.2091
N17_13 N 0.7514(3) 0.0016(3) 0.3105(3)
Zn1_18 Zn 0.77625(6) 1.0000 0.2500
N9_23 N 0.8552(2) 0.8434(2) 0.2225(2)
O5_23 O 0.8032(2) 0.8120(2) 0.2670(2)
C17_23 C 0.9233(2) 0.7575(3) 0.1898(2)
H13_23 H 0.9484 0.7680 0.1724
N10_23 N 0.9387(3) 0.6528(3) 0.2258(3)
C18_23 C 0.8448(3) 0.7681(3) 0.2124(3)
H14_23 H 0.8198 0.7570 0.1956
C19_23 C 0.8299(3) 0.8085(3) 0.2386(3)
O6_23 O 0.9854(2) 0.6795(3) 0.1713(2)
C20_23 C 0.9123(3) 0.7084(3) 0.1801(3)
H15_23 H 0.9025 0.7048 0.1496
C21_23 C 0.8175(3) 0.9121(3) 0.2254(3)
H16_23 H 0.7987 0.9068 0.2020
C22_23 C 0.9019(3) 0.7494(3) 0.2646(3)
H17_23 H 0.9045 0.7510 0.2950
N11_23 N 0.8465(3) 0.9406(3) 0.2826(3)
N12_23 N 0.9660(4) 0.6222(3) 0.2410(3)
C23_23 C 0.8794(3) 0.7855(3) 0.1803(2)
H18_23 H 0.8696 0.7811 0.1500
N14_23 N 0.8168(2) 0.9469(2) 0.2495(2)
C24_23 C 0.8607(3) 0.7328(3) 0.2417(3)
H19_23 H 0.8381 0.7246 0.2631
C25_23 C 0.9506(3) 0.6808(3) 0.1888(4)
N15_23 N 0.8483(2) 0.8854(2) 0.2385(2)
C26_23 C 0.8745(3) 0.6925(3) 0.2135(4)
H20_23 H 0.8492 0.6812 0.1972
C27_23 C 0.8868(3) 0.8337(3) 0.1893(3)
C28_23 C 0.9318(3) 0.7607(3) 0.2394(3)
H21_23 H 0.9586 0.7709 0.2502
O7_23 O 0.9089(3) 0.8582(3) 0.1702(3)
O8_23 O 0.8784(3) 0.6348(3) 0.2679(3)
C29_23 C 0.8654(4) 0.9032(5) 0.2740(3)
H22_23 H 0.8880 0.8909 0.2905
C30_23 C 0.8948(4) 0.6576(4) 0.2389(3)
C31_23 C 0.9712(6) 0.5808(4) 0.2268(4)
H23_23 H 0.9561 0.5682 0.2034
C32_23 C 0.9940(6) 0.6272(5) 0.2746(4)
H24_23 H 0.9965 0.6530 0.2909
N18_13 N 0.7514(3) 0.9984(3) 0.1895(3)
N10_24 N 0.6887(3) 0.0242(3) 0.0972(3)
O6_24 O 0.7354(2) 0.0787(2) 0.0705(3)
C20_24 C 0.6623(3) 0.0699(3) 0.0416(3)
H15_24 H 0.6525 0.1004 0.0452
N12_24 N 0.7160(4) 0.0090(3) 0.1278(3)
C24_24 C 0.6107(3) 0.0083(3) 0.0172(3)
C25_24 C 0.7006(3) 0.0612(4) 0.0692(3)
C26_24 C 0.6245(3) 0.0365(4) 0.0575(3)
H20_24 H 0.5992 0.0528 0.0688
C30_24 C 0.6448(4) 0.0111(3) 0.0924(4)
C31_24 C 0.7212(6) 0.0232(4) 0.1692(4)
H23_24 H 0.7061 0.0466 0.1818
O1_24 O 0.5532(2) 0.0170(2) 0.5620(2)
C6_24 C 0.6519(3) 0.0146(3) 0.4994(3)
H5_24 H 0.6545 0.0450 0.5010
N3_24 N 0.5965(3) 0.0326(3) 0.6906(3)
H7_24 H 0.5881 0.0131 0.4746
H9_24 H 0.7086 0.0002 0.5209
O4_24 O 0.6284(3) 0.0179(3) 0.3848(3)
C13_24 C 0.6154(4) 0.0240(3) 0.6532(5)
H10_24 H 0.6380 0.0405 0.6409
N8_24 N 0.7671(5) 0.0320(3) 0.3427(4)
C16_24 C 0.7440(6) 0.0246(4) 0.3772(5)
H12_24 H 0.7465 0.0409 0.4030
N9_24 N 0.6052(2) 0.0275(2) 0.9066(2)
C17_24 C 0.6733(2) 0.0602(2) 0.9925(3)
H13_24 H 0.6984 0.0776 0.9820
C18_24 C 0.5948(3) 0.0376(3) 0.9819(3)
H14_24 H 0.5698 0.0544 0.9930
C19_24 C 0.5799(3) 0.0114(3) 0.9415(3)
C21_24 C 0.5675(3) 0.0246(3) 0.8379(3)
H16_24 H 0.5487 0.0480 0.8432
C23_24 C 0.6294(3) 0.0697(2) 0.9645(3)
H18_24 H 0.6196 0.1000 0.9689
N14_24 N 0.5668(2) 0.0005(2) 0.8031(2)
N15_24 N 0.5983(2) 0.0115(2) 0.8646(2)
C27_24 C 0.6368(3) 0.0607(3) 0.9163(3)
C28_24 C 0.6818(3) 0.0106(3) 0.9893(3)
O7_24 O 0.6589(3) 0.0798(3) 0.8918(3)
C22_24 C 0.6519(3) 0.9854(3) 0.0006(3)
H19_24 H 0.5881 0.9869 0.0254
O8_24 O 0.6284(3) 0.9821(3) 0.1152(3)
N16_24 N 0.7671(5) 0.9680(3) 0.1573(4)
C32_24 C 0.7440(6) 0.9754(4) 0.1228(5)
H24_24 H 0.7465 0.9591 0.0970
N1_24 N 0.6052(2) 0.9725(2) 0.5934(2)
C1_24 C 0.6733(2) 0.9398(2) 0.5075(3)
H1_24 H 0.6984 0.9224 0.5180
N2_24 N 0.6887(3) 0.9758(3) 0.4028(3)
C2_24 C 0.5948(3) 0.9624(3) 0.5181(3)
H2_24 H 0.5698 0.9456 0.5070
C3_24 C 0.5799(3) 0.9886(3) 0.5585(3)
O2_24 O 0.7354(2) 0.9213(2) 0.4295(3)
C4_24 C 0.6623(3) 0.9301(3) 0.4584(3)
H3_24 H 0.6525 0.8996 0.4548
C5_24 C 0.5675(3) 0.9754(3) 0.6621(3)
H4_24 H 0.5487 0.9520 0.6568
N4_24 N 0.7160(4) 0.9910(3) 0.3722(3)
C7_24 C 0.6294(3) 0.9303(2) 0.5355(3)
H6_24 H 0.6196 0.9000 0.5311
N6_24 N 0.5668(2) 0.9995(2) 0.6969(2)
C8_24 C 0.6107(3) 0.9917(3) 0.4828(3)
C9_24 C 0.7006(3) 0.9388(4) 0.4308(3)
N7_24 N 0.5983(2) 0.9885(2) 0.6354(2)
C10_24 C 0.6245(3) 0.9635(4) 0.4425(3)
H8_24 H 0.5992 0.9472 0.4312
C11_24 C 0.6368(3) 0.9393(3) 0.5837(3)
C12_24 C 0.6818(3) 0.9894(3) 0.5107(3)
O3_24 O 0.6589(3) 0.9202(3) 0.6082(3)
C14_24 C 0.6448(4) 0.9889(3) 0.4076(4)
C15_24 C 0.7212(6) 0.9768(4) 0.3308(4)
H11_24 H 0.7061 0.9534 0.3182
O5_24 O 0.5532(2) 0.9830(2) 0.9380(2)
H17_24 H 0.6545 0.9550 0.9990
N11_24 N 0.5965(3) 0.9674(3) 0.8094(3)
H21_24 H 0.7086 0.9998 0.9791
C29_24 C 0.6154(4) 0.9760(3) 0.8468(5)
H22_24 H 0.6380 0.9595 0.8591
loop_
_geom_bond_atom_site_label_1
_geom_bond_atom_site_label_2
_geom_bond_site_symmetry_1
_geom_bond_site_symmetry_2
Zn1 N6 1_555 1_555
N1 C3 1_555 1_555
O1 C3 1_555 1_555
C1 H1 1_555 1_555
C2 H2 1_555 1_555
C3 C2 1_555 1_555
C5 H4 1_555 1_555
N3 N6 1_555 1_555
C7 C1 1_555 1_555
H6 C7 1_555 1_555
N6 C5 1_555 1_555
N7 N1 1_555 1_555
C11 N1 1_555 1_555
C12 C1 1_555 1_555
H9 C12 1_555 1_555
O3 C11 1_555 1_555
C13 N3 1_555 1_555
H10 C13 1_555 1_555
N9 C19 1_555 1_555
O5 C19 1_555 1_555
C17 H13 1_555 1_555
N10 N12 1_555 1_555
C18 H14 1_555 1_555
C19 C18 1_555 1_555
O6 C25 1_555 1_555
C20 C17 1_555 1_555
H15 C20 1_555 1_555
C21 H16 1_555 1_555
C22 H17 1_555 1_555
N11 N14 1_555 1_555
N12 C31 1_555 1_555
C23 C17 1_555 1_555
H18 C23 1_555 1_555
N13 C31 1_555 1_555
N14 Zn1 1_555 1_555
C24 C18 1_555 1_555
H19 C24 1_555 1_555
C25 N10 1_555 1_555
N15 N9 1_555 1_555
C26 C20 1_555 1_555
H20 C26 1_555 1_555
C27 N9 1_555 1_555
C28 C17 1_555 1_555
H21 C28 1_555 1_555
O7 C27 1_555 1_555
O8 C30 1_555 1_555
C29 N11 1_555 1_555
H22 C29 1_555 1_555
C30 N10 1_555 1_555
C31 H23 1_555 1_555
N16 N13 1_555 1_555
C32 N12 1_555 1_555
H24 C32 1_555 1_555
Zn3 N13 1_555 1_555
N17 Zn1 1_555 1_555
N18 Zn1 1_555 1_555
C2 C7 1_555 1_555
C5 N7 1_555 1_555
C7 C11 1_555 1_555
N7 C13 1_555 1_555
C18 C23 1_555 1_555
C20 C25 1_555 1_555
C21 N14 1_555 1_555
C21 N15 1_555 1_555
C22 C24 1_555 1_555
C22 C28 1_555 1_555
C23 C27 1_555 1_555
C24 C26 1_555 1_555
N15 C29 1_555 1_555
C26 C30 1_555 1_555
N16 C32 1_555 1_555
N2 N4 1_555 1_555
O2 C9 1_555 1_555
H3 C4 1_555 1_555
N4 C15 1_555 1_555
N5 C15 1_555 1_555
H7 C8 1_555 1_555
C9 N2 1_555 1_555
C10 C4 1_555 1_555
H8 C10 1_555 1_555
O4 C14 1_555 1_555
C14 N2 1_555 1_555
C15 H11 1_555 1_555
N8 N5 1_555 1_555
C16 N4 1_555 1_555
H12 C16 1_555 1_555
Zn3 N5 1_555 1_555
C4 C9 1_555 1_555
C6 C8 1_555 1_555
C8 C10 1_555 1_555
C10 C14 1_555 1_555
N8 C16 1_555 1_555
Zn3 N6_2 1_555 1_555
N1_2 C3_2 1_555 1_555
O1_2 C3_2 1_555 1_555
C1_2 H1_2 1_555 1_555
N2_2 N4_2 1_555 1_555
C2_2 H2_2 1_555 1_555
C3_2 C2_2 1_555 1_555
O2_2 C9_2 1_555 1_555
C4_2 C1_2 1_555 1_555
H3_2 C4_2 1_555 1_555
C5_2 H4_2 1_555 1_555
C6_2 H5_2 1_555 1_555
N3_2 N6_2 1_555 1_555
N4_2 C15_2 1_555 1_555
C7_2 C1_2 1_555 1_555
H6_2 C7_2 1_555 1_555
N5_2 C15_2 1_555 1_555
N6_2 C5_2 1_555 1_555
C8_2 C2_2 1_555 1_555
H7_2 C8_2 1_555 1_555
C9_2 N2_2 1_555 1_555
N7_2 N1_2 1_555 1_555
C10_2 C4_2 1_555 1_555
H8_2 C10_2 1_555 1_555
C11_2 N1_2 1_555 1_555
C12_2 C1_2 1_555 1_555
H9_2 C12_2 1_555 1_555
O3_2 C11_2 1_555 1_555
O4_2 C14_2 1_555 1_555
C13_2 N3_2 1_555 1_555
H10_2 C13_2 1_555 1_555
C14_2 N2_2 1_555 1_555
C15_2 H11_2 1_555 1_555
N8_2 N5_2 1_555 1_555
C16_2 N4_2 1_555 1_555
H12_2 C16_2 1_555 1_555
N9_2 C19_2 1_555 1_555
O5_2 C19_2 1_555 1_555
C17_2 H13_2 1_555 1_555
N10_2 N12_2 1_555 1_555
C18_2 H14_2 1_555 1_555
C19_2 C18_2 1_555 1_555
O6_2 C25_2 1_555 1_555
C20_2 C17_2 1_555 1_555
H15_2 C20_2 1_555 1_555
C21_2 H16_2 1_555 1_555
C22_2 H17_2 1_555 1_555
N11_2 N14_2 1_555 1_555
N12_2 C31_2 1_555 1_555
C23_2 C17_2 1_555 1_555
H18_2 C23_2 1_555 1_555
N13_2 C31_2 1_555 1_555
N14_2 Zn3 1_555 1_555
C24_2 C18_2 1_555 1_555
H19_2 C24_2 1_555 1_555
C25_2 N10_2 1_555 1_555
N15_2 N9_2 1_555 1_555
C26_2 C20_2 1_555 1_555
H20_2 C26_2 1_555 1_555
C27_2 N9_2 1_555 1_555
C28_2 C17_2 1_555 1_555
H21_2 C28_2 1_555 1_555
O7_2 C27_2 1_555 1_555
O8_2 C30_2 1_555 1_555
C29_2 N11_2 1_555 1_555
H22_2 C29_2 1_555 1_555
C30_2 N10_2 1_555 1_555
C31_2 H23_2 1_555 1_555
N16_2 N13_2 1_555 1_555
C32_2 N12_2 1_555 1_555
H24_2 C32_2 1_555 1_555
Zn2_2 N5_2 1_555 1_555
Zn2 N13_2 1_555 1_555
C2_2 C7_2 1_555 1_555
C4_2 C9_2 1_555 1_555
C5_2 N7_2 1_555 1_555
C6_2 C8_2 1_555 1_555
C6_2 C12_2 1_555 1_555
C7_2 C11_2 1_555 1_555
C8_2 C10_2 1_555 1_555
N7_2 C13_2 1_555 1_555
C10_2 C14_2 1_555 1_555
N8_2 C16_2 1_555 1_555
C18_2 C23_2 1_555 1_555
C20_2 C25_2 1_555 1_555
C21_2 N14_2 1_555 1_555
C21_2 N15_2 1_555 1_555
C22_2 C24_2 1_555 1_555
C22_2 C28_2 1_555 1_555
C23_2 C27_2 1_555 1_555
C24_2 C26_2 1_555 1_555
N15_2 C29_2 1_555 1_555
C26_2 C30_2 1_555 1_555
N16_2 C32_2 1_555 1_555
N10_3 N12_3 1_555 1_555
O6_3 C25_3 1_555 1_555
H15_3 C20_3 1_555 1_555
N12_3 C31_3 1_555 1_555
C25_3 N10_3 1_555 1_555
C26_3 C20_3 1_555 1_555
H20_3 C26_3 1_555 1_555
C30_3 N10_3 1_555 1_555
C31_3 H23_3 1_555 1_555
C20_3 C25_3 1_555 1_555
C24_3 C26_3 1_555 1_555
C26_3 C30_3 1_555 1_555
C6_3 H5_3 1_555 1_555
C13_3 N3_3 1_555 1_555
H10_3 C13_3 1_555 1_555
N8_3 N5_3 1_555 1_555
H12_3 C16_3 1_555 1_555
N9_3 C19_3 1_555 1_555
C17_3 H13_3 1_555 1_555
C18_3 H14_3 1_555 1_555
C19_3 C18_3 1_555 1_555
C21_3 H16_3 1_555 1_555
C23_3 C17_3 1_555 1_555
H18_3 C23_3 1_555 1_555
N14_3 Zn2 1_555 1_555
N15_3 N9_3 1_555 1_555
C27_3 N9_3 1_555 1_555
C28_3 C17_3 1_555 1_555
O7_3 C27_3 1_555 1_555
Zn3_2 N5_3 1_555 1_555
N8_3 C16_3 1_555 1_555
C18_3 C23_3 1_555 1_555
C21_3 N14_3 1_555 1_555
C21_3 N15_3 1_555 1_555
C23_3 C27_3 1_555 1_555
N16_3 N13_3 1_555 1_555
H24_3 C32_3 1_555 1_555
Zn3_3 N13_3 1_555 1_555
N16_3 C32_3 1_555 1_555
Zn2_2 N6_3 1_555 1_555
N1_3 C3_3 1_555 1_555
C1_3 H1_3 1_555 1_555
N2_3 N4_3 1_555 1_555
C2_3 H2_3 1_555 1_555
C3_3 C2_3 1_555 1_555
O2_3 C9_3 1_555 1_555
C4_3 C1_3 1_555 1_555
H3_3 C4_3 1_555 1_555
C5_3 H4_3 1_555 1_555
N4_3 C15_3 1_555 1_555
C7_3 C1_3 1_555 1_555
H6_3 C7_3 1_555 1_555
N6_3 C5_3 1_555 1_555
C8_3 C2_3 1_555 1_555
C9_3 N2_3 1_555 1_555
N7_3 N1_3 1_555 1_555
C10_3 C4_3 1_555 1_555
H8_3 C10_3 1_555 1_555
C11_3 N1_3 1_555 1_555
C12_3 C1_3 1_555 1_555
O3_3 C11_3 1_555 1_555
C14_3 N2_3 1_555 1_555
C15_3 H11_3 1_555 1_555
C29_3 N11_3 1_555 1_555
H22_3 C29_3 1_555 1_555
C2_3 C7_3 1_555 1_555
C4_3 C9_3 1_555 1_555
C5_3 N7_3 1_555 1_555
C7_3 C11_3 1_555 1_555
C8_3 C10_3 1_555 1_555
C10_3 C14_3 1_555 1_555
N8_4 N17 1_555 1_555
Zn3_2 N6_4 1_555 1_555
N1_4 C3_4 1_555 1_555
O1_4 C3_4 1_555 1_555
C1_4 H1_4 1_555 1_555
N2_4 N4_4 1_555 1_555
C2_4 H2_4 1_555 1_555
C3_4 C2_4 1_555 1_555
O2_4 C9_4 1_555 1_555
C4_4 C1_4 1_555 1_555
H3_4 C4_4 1_555 1_555
C5_4 H4_4 1_555 1_555
C6_4 H5_4 1_555 1_555
N3_4 N6_4 1_555 1_555
N4_4 C15_4 1_555 1_555
C7_4 C1_4 1_555 1_555
H6_4 C7_4 1_555 1_555
N6_4 C5_4 1_555 1_555
C8_4 C2_4 1_555 1_555
H7_4 C8_4 1_555 1_555
C9_4 N2_4 1_555 1_555
N7_4 N1_4 1_555 1_555
C10_4 C4_4 1_555 1_555
H8_4 C10_4 1_555 1_555
C11_4 N1_4 1_555 1_555
C12_4 C1_4 1_555 1_555
H9_4 C12_4 1_555 1_555
O3_4 C11_4 1_555 1_555
O4_4 C14_4 1_555 1_555
C13_4 N3_4 1_555 1_555
H10_4 C13_4 1_555 1_555
C14_4 N2_4 1_555 1_555
C15_4 H11_4 1_555 1_555
C16_4 N4_4 1_555 1_555
H12_4 C16_4 1_555 1_555
C2_4 C7_4 1_555 1_555
C4_4 C9_4 1_555 1_555
C5_4 N7_4 1_555 1_555
C6_4 C8_4 1_555 1_555
C6_4 C12_4 1_555 1_555
C7_4 C11_4 1_555 1_555
C8_4 C10_4 1_555 1_555
N7_4 C13_4 1_555 1_555
C10_4 C14_4 1_555 1_555
N16_4 N18 1_555 1_555
N9_4 C19_4 1_555 1_555
O5_4 C19_4 1_555 1_555
C17_4 H13_4 1_555 1_555
N10_4 N12_4 1_555 1_555
C18_4 H14_4 1_555 1_555
C19_4 C18_4 1_555 1_555
O6_4 C25_4 1_555 1_555
C20_4 C17_4 1_555 1_555
H15_4 C20_4 1_555 1_555
C21_4 H16_4 1_555 1_555
C22_4 H17_4 1_555 1_555
N11_4 N14_4 1_555 1_555
N12_4 C31_4 1_555 1_555
C23_4 C17_4 1_555 1_555
H18_4 C23_4 1_555 1_555
N14_4 Zn3_3 1_555 1_555
C24_4 C18_4 1_555 1_555
H19_4 C24_4 1_555 1_555
C25_4 N10_4 1_555 1_555
N15_4 N9_4 1_555 1_555
C26_4 C20_4 1_555 1_555
H20_4 C26_4 1_555 1_555
C27_4 N9_4 1_555 1_555
C28_4 C17_4 1_555 1_555
H21_4 C28_4 1_555 1_555
O7_4 C27_4 1_555 1_555
O8_4 C30_4 1_555 1_555
C29_4 N11_4 1_555 1_555
H22_4 C29_4 1_555 1_555
C30_4 N10_4 1_555 1_555
C31_4 H23_4 1_555 1_555
C32_4 N12_4 1_555 1_555
H24_4 C32_4 1_555 1_555
C18_4 C23_4 1_555 1_555
C20_4 C25_4 1_555 1_555
C21_4 N14_4 1_555 1_555
C21_4 N15_4 1_555 1_555
C22_4 C24_4 1_555 1_555
C22_4 C28_4 1_555 1_555
C23_4 C27_4 1_555 1_555
C24_4 C26_4 1_555 1_555
N15_4 C29_4 1_555 1_555
C26_4 C30_4 1_555 1_555
Zn1_2 N6_5 1_555 1_555
N1_5 C3_5 1_555 1_555
O1_5 C3_5 1_555 1_555
C1_5 H1_5 1_555 1_555
N2_5 N4_5 1_555 1_555
C2_5 H2_5 1_555 1_555
C3_5 C2_5 1_555 1_555
O2_5 C9_5 1_555 1_555
C4_5 C1_5 1_555 1_555
H3_5 C4_5 1_555 1_555
C5_5 H4_5 1_555 1_555
C6_5 H5_5 1_555 1_555
N3_5 N6_5 1_555 1_555
N4_5 C15_5 1_555 1_555
C7_5 C1_5 1_555 1_555
H6_5 C7_5 1_555 1_555
N6_5 C5_5 1_555 1_555
C8_5 C2_5 1_555 1_555
H7_5 C8_5 1_555 1_555
C9_5 N2_5 1_555 1_555
N7_5 N1_5 1_555 1_555
C10_5 C4_5 1_555 1_555
H8_5 C10_5 1_555 1_555
C11_5 N1_5 1_555 1_555
C12_5 C1_5 1_555 1_555
H9_5 C12_5 1_555 1_555
O3_5 C11_5 1_555 1_555
O4_5 C14_5 1_555 1_555
C13_5 N3_5 1_555 1_555
H10_5 C13_5 1_555 1_555
C14_5 N2_5 1_555 1_555
C15_5 H11_5 1_555 1_555
C16_5 N4_5 1_555 1_555
H12_5 C16_5 1_555 1_555
N9_5 C19_5 1_555 1_555
O5_5 C19_5 1_555 1_555
C17_5 H13_5 1_555 1_555
N10_5 N12_5 1_555 1_555
C18_5 H14_5 1_555 1_555
C19_5 C18_5 1_555 1_555
O6_5 C25_5 1_555 1_555
C20_5 C17_5 1_555 1_555
H15_5 C20_5 1_555 1_555
C21_5 H16_5 1_555 1_555
C22_5 H17_5 1_555 1_555
N11_5 N14_5 1_555 1_555
N12_5 C31_5 1_555 1_555
C23_5 C17_5 1_555 1_555
H18_5 C23_5 1_555 1_555
N14_5 Zn1_2 1_555 1_555
C24_5 C18_5 1_555 1_555
H19_5 C24_5 1_555 1_555
C25_5 N10_5 1_555 1_555
N15_5 N9_5 1_555 1_555
C26_5 C20_5 1_555 1_555
H20_5 C26_5 1_555 1_555
C27_5 N9_5 1_555 1_555
C28_5 C17_5 1_555 1_555
H21_5 C28_5 1_555 1_555
O7_5 C27_5 1_555 1_555
O8_5 C30_5 1_555 1_555
C29_5 N11_5 1_555 1_555
H22_5 C29_5 1_555 1_555
C30_5 N10_5 1_555 1_555
C31_5 H23_5 1_555 1_555
C32_5 N12_5 1_555 1_555
H24_5 C32_5 1_555 1_555
N17_2 Zn1_2 1_555 1_555
N18_2 Zn1_2 1_555 1_555
C2_5 C7_5 1_555 1_555
C4_5 C9_5 1_555 1_555
C5_5 N7_5 1_555 1_555
C6_5 C8_5 1_555 1_555
C6_5 C12_5 1_555 1_555
C7_5 C11_5 1_555 1_555
C8_5 C10_5 1_555 1_555
N7_5 C13_5 1_555 1_555
C10_5 C14_5 1_555 1_555
C18_5 C23_5 1_555 1_555
C20_5 C25_5 1_555 1_555
C21_5 N14_5 1_555 1_555
C21_5 N15_5 1_555 1_555
C22_5 C24_5 1_555 1_555
C22_5 C28_5 1_555 1_555
C23_5 C27_5 1_555 1_555
C24_5 C26_5 1_555 1_555
N15_5 C29_5 1_555 1_555
C26_5 C30_5 1_555 1_555
N8_5 N5_4 1_555 1_555
N16_5 N13_4 1_555 1_555
Zn3_4 N5_4 1_555 1_555
Zn3_5 N13_4 1_555 1_555
Zn1_3 N6_6 1_555 1_555
N1_6 C3_6 1_555 1_555
O1_6 C3_6 1_555 1_555
C1_6 H1_6 1_555 1_555
N2_6 N4_6 1_555 1_555
C2_6 H2_6 1_555 1_555
C3_6 C2_6 1_555 1_555
O2_6 C9_6 1_555 1_555
C4_6 C1_6 1_555 1_555
H3_6 C4_6 1_555 1_555
C5_6 H4_6 1_555 1_555
C6_6 H5_6 1_555 1_555
N3_6 N6_6 1_555 1_555
N4_6 C15_6 1_555 1_555
C7_6 C1_6 1_555 1_555
H6_6 C7_6 1_555 1_555
N5_5 C15_6 1_555 1_555
N6_6 C5_6 1_555 1_555
C8_6 C2_6 1_555 1_555
H7_6 C8_6 1_555 1_555
C9_6 N2_6 1_555 1_555
N7_6 N1_6 1_555 1_555
C10_6 C4_6 1_555 1_555
H8_6 C10_6 1_555 1_555
C11_6 N1_6 1_555 1_555
C12_6 C1_6 1_555 1_555
H9_6 C12_6 1_555 1_555
O3_6 C11_6 1_555 1_555
O4_6 C14_6 1_555 1_555
C13_6 N3_6 1_555 1_555
H10_6 C13_6 1_555 1_555
C14_6 N2_6 1_555 1_555
C15_6 H11_6 1_555 1_555
N8_6 N5_5 1_555 1_555
C16_6 N4_6 1_555 1_555
H12_6 C16_6 1_555 1_555
Zn2_3 N5_5 1_555 1_555
N17_3 Zn1_3 1_555 1_555
C2_6 C7_6 1_555 1_555
C4_6 C9_6 1_555 1_555
C5_6 N7_6 1_555 1_555
C6_6 C8_6 1_555 1_555
C6_6 C12_6 1_555 1_555
C7_6 C11_6 1_555 1_555
C8_6 C10_6 1_555 1_555
N7_6 C13_6 1_555 1_555
C10_6 C14_6 1_555 1_555
N8_6 C16_6 1_555 1_555
N9_6 C19_6 1_555 1_555
O5_6 C19_6 1_555 1_555
C17_6 H13_6 1_555 1_555
N10_6 N12_6 1_555 1_555
C18_6 H14_6 1_555 1_555
C19_6 C18_6 1_555 1_555
O6_6 C25_6 1_555 1_555
C20_6 C17_6 1_555 1_555
H15_6 C20_6 1_555 1_555
C21_6 H16_6 1_555 1_555
C22_6 H17_6 1_555 1_555
N11_6 N14_6 1_555 1_555
N12_6 C31_6 1_555 1_555
C23_6 C17_6 1_555 1_555
H18_6 C23_6 1_555 1_555
N13_5 C31_6 1_555 1_555
N14_6 Zn1_4 1_555 1_555
C24_6 C18_6 1_555 1_555
H19_6 C24_6 1_555 1_555
C25_6 N10_6 1_555 1_555
N15_6 N9_6 1_555 1_555
C26_6 C20_6 1_555 1_555
H20_6 C26_6 1_555 1_555
C27_6 N9_6 1_555 1_555
C28_6 C17_6 1_555 1_555
H21_6 C28_6 1_555 1_555
O7_6 C27_6 1_555 1_555
O8_6 C30_6 1_555 1_555
C29_6 N11_6 1_555 1_555
H22_6 C29_6 1_555 1_555
C30_6 N10_6 1_555 1_555
C31_6 H23_6 1_555 1_555
N16_6 N13_5 1_555 1_555
C32_6 N12_6 1_555 1_555
H24_6 C32_6 1_555 1_555
Zn2_3 N13_5 1_555 1_555
N18_3 Zn1_4 1_555 1_555
C18_6 C23_6 1_555 1_555
C20_6 C25_6 1_555 1_555
C21_6 N14_6 1_555 1_555
C21_6 N15_6 1_555 1_555
C22_6 C24_6 1_555 1_555
C22_6 C28_6 1_555 1_555
C23_6 C27_6 1_555 1_555
C24_6 C26_6 1_555 1_555
N15_6 C29_6 1_555 1_555
C26_6 C30_6 1_555 1_555
N16_6 C32_6 1_555 1_555
N2_7 N4_7 1_555 1_555
O2_7 C9_7 1_555 1_555
H3_7 C4_7 1_555 1_555
N4_7 C15_7 1_555 1_555
N18_2 C15_7 1_555 1_555
H7_7 C8_7 1_555 1_555
C9_7 N2_7 1_555 1_555
C10_7 C4_7 1_555 1_555
H8_7 C10_7 1_555 1_555
O4_7 C14_7 1_555 1_555
C14_7 N2_7 1_555 1_555
C15_7 H11_7 1_555 1_555
N8_7 N18_2 1_555 1_555
C16_7 N4_7 1_555 1_555
H12_7 C16_7 1_555 1_555
C4_7 C9_7 1_555 1_555
C6_7 C8_7 1_555 1_555
C8_7 C10_7 1_555 1_555
C10_7 C14_7 1_555 1_555
N8_7 C16_7 1_555 1_555
Zn2_3 N6_7 1_555 1_555
N1_7 C3_7 1_555 1_555
O1_7 C3_7 1_555 1_555
C1_7 H1_7 1_555 1_555
C2_7 H2_7 1_555 1_555
C3_7 C2_7 1_555 1_555
C5_7 H4_7 1_555 1_555
N3_7 N6_7 1_555 1_555
C7_7 C1_7 1_555 1_555
H6_7 C7_7 1_555 1_555
N6_7 C5_7 1_555 1_555
N7_7 N1_7 1_555 1_555
C11_7 N1_7 1_555 1_555
C12_7 C1_7 1_555 1_555
H9_7 C12_7 1_555 1_555
O3_7 C11_7 1_555 1_555
C13_7 N3_7 1_555 1_555
H10_7 C13_7 1_555 1_555
N9_7 C19_7 1_555 1_555
O5_7 C19_7 1_555 1_555
C17_7 H13_7 1_555 1_555
N10_7 N12_7 1_555 1_555
C18_7 H14_7 1_555 1_555
C19_7 C18_7 1_555 1_555
O6_7 C25_7 1_555 1_555
C20_7 C17_7 1_555 1_555
H15_7 C20_7 1_555 1_555
C21_7 H16_7 1_555 1_555
C22_7 H17_7 1_555 1_555
N11_7 N14_7 1_555 1_555
N12_7 C31_7 1_555 1_555
C23_7 C17_7 1_555 1_555
H18_7 C23_7 1_555 1_555
N17_2 C31_7 1_555 1_555
N14_7 Zn2_3 1_555 1_555
C24_7 C18_7 1_555 1_555
H19_7 C24_7 1_555 1_555
C25_7 N10_7 1_555 1_555
N15_7 N9_7 1_555 1_555
C26_7 C20_7 1_555 1_555
H20_7 C26_7 1_555 1_555
C27_7 N9_7 1_555 1_555
C28_7 C17_7 1_555 1_555
H21_7 C28_7 1_555 1_555
O7_7 C27_7 1_555 1_555
O8_7 C30_7 1_555 1_555
C29_7 N11_7 1_555 1_555
H22_7 C29_7 1_555 1_555
C30_7 N10_7 1_555 1_555
C31_7 H23_7 1_555 1_555
N16_7 N17_2 1_555 1_555
C32_7 N12_7 1_555 1_555
H24_7 C32_7 1_555 1_555
C2_7 C7_7 1_555 1_555
C5_7 N7_7 1_555 1_555
C7_7 C11_7 1_555 1_555
N7_7 C13_7 1_555 1_555
C18_7 C23_7 1_555 1_555
C20_7 C25_7 1_555 1_555
C21_7 N14_7 1_555 1_555
C21_7 N15_7 1_555 1_555
C22_7 C24_7 1_555 1_555
C22_7 C28_7 1_555 1_555
C23_7 C27_7 1_555 1_555
C24_7 C26_7 1_555 1_555
N15_7 C29_7 1_555 1_555
C26_7 C30_7 1_555 1_555
N16_7 C32_7 1_555 1_555
Zn3_4 N6_8 1_555 1_555
N1_8 C3_8 1_555 1_555
C1_8 H1_8 1_555 1_555
C2_8 H2_8 1_555 1_555
C3_8 C2_8 1_555 1_555
C5_8 H4_8 1_555 1_555
C7_8 C1_8 1_555 1_555
H6_8 C7_8 1_555 1_555
N6_8 C5_8 1_555 1_555
N7_8 N1_8 1_555 1_555
C11_8 N1_8 1_555 1_555
C12_8 C1_8 1_555 1_555
O3_8 C11_8 1_555 1_555
C22_8 H17_8 1_555 1_555
C29_8 N11_8 1_555 1_555
H22_8 C29_8 1_555 1_555
N16_8 N17_3 1_555 1_555
H24_8 C32_8 1_555 1_555
C2_8 C7_8 1_555 1_555
C5_8 N7_8 1_555 1_555
C7_8 C11_8 1_555 1_555
N16_8 C32_8 1_555 1_555
N2_8 N4_8 1_555 1_555
O2_8 C9_8 1_555 1_555
H3_8 C4_8 1_555 1_555
N4_8 C15_8 1_555 1_555
C9_8 N2_8 1_555 1_555
C10_8 C4_8 1_555 1_555
H8_8 C10_8 1_555 1_555
C14_8 N2_8 1_555 1_555
C15_8 H11_8 1_555 1_555
C4_8 C9_8 1_555 1_555
C8_8 C10_8 1_555 1_555
C10_8 C14_8 1_555 1_555
C13_8 N3_8 1_555 1_555
H10_8 C13_8 1_555 1_555
N9_8 C19_8 1_555 1_555
C17_8 H13_8 1_555 1_555
N10_8 N12_8 1_555 1_555
C18_8 H14_8 1_555 1_555
C19_8 C18_8 1_555 1_555
O6_8 C25_8 1_555 1_555
C20_8 C17_8 1_555 1_555
H15_8 C20_8 1_555 1_555
C21_8 H16_8 1_555 1_555
N12_8 C31_8 1_555 1_555
C23_8 C17_8 1_555 1_555
H18_8 C23_8 1_555 1_555
N14_8 Zn3_5 1_555 1_555
C24_8 C18_8 1_555 1_555
C25_8 N10_8 1_555 1_555
N15_8 N9_8 1_555 1_555
C26_8 C20_8 1_555 1_555
H20_8 C26_8 1_555 1_555
C27_8 N9_8 1_555 1_555
C28_8 C17_8 1_555 1_555
O7_8 C27_8 1_555 1_555
C30_8 N10_8 1_555 1_555
C31_8 H23_8 1_555 1_555
C18_8 C23_8 1_555 1_555
C20_8 C25_8 1_555 1_555
C21_8 N14_8 1_555 1_555
C21_8 N15_8 1_555 1_555
C23_8 C27_8 1_555 1_555
C24_8 C26_8 1_555 1_555
C26_8 C30_8 1_555 1_555
N8_8 N18_3 1_555 1_555
H12_8 C16_8 1_555 1_555
N8_8 C16_8 1_555 1_555
Zn1_5 N6_9 1_555 1_555
N1_9 C3_9 1_555 1_555
O1_9 C3_9 1_555 1_555
C1_9 H1_9 1_555 1_555
N2_9 N4_9 1_555 1_555
C2_9 H2_9 1_555 1_555
C3_9 C2_9 1_555 1_555
O2_9 C9_9 1_555 1_555
C4_9 C1_9 1_555 1_555
H3_9 C4_9 1_555 1_555
C5_9 H4_9 1_555 1_555
C6_9 H5_9 1_555 1_555
N3_9 N6_9 1_555 1_555
N4_9 C15_9 1_555 1_555
C7_9 C1_9 1_555 1_555
H6_9 C7_9 1_555 1_555
N5_6 C15_9 1_555 1_555
N6_9 C5_9 1_555 1_555
C8_9 C2_9 1_555 1_555
H7_9 C8_9 1_555 1_555
C9_9 N2_9 1_555 1_555
N7_9 N1_9 1_555 1_555
C10_9 C4_9 1_555 1_555
H8_9 C10_9 1_555 1_555
C11_9 N1_9 1_555 1_555
C12_9 C1_9 1_555 1_555
H9_9 C12_9 1_555 1_555
O3_9 C11_9 1_555 1_555
O4_9 C14_9 1_555 1_555
C13_9 N3_9 1_555 1_555
H10_9 C13_9 1_555 1_555
C14_9 N2_9 1_555 1_555
C15_9 H11_9 1_555 1_555
N8_9 N5_6 1_555 1_555
C16_9 N4_9 1_555 1_555
H12_9 C16_9 1_555 1_555
N9_9 C19_9 1_555 1_555
O5_9 C19_9 1_555 1_555
C17_9 H13_9 1_555 1_555
N10_9 N12_9 1_555 1_555
C18_9 H14_9 1_555 1_555
C19_9 C18_9 1_555 1_555
O6_9 C25_9 1_555 1_555
C20_9 C17_9 1_555 1_555
H15_9 C20_9 1_555 1_555
C21_9 H16_9 1_555 1_555
C22_9 H17_9 1_555 1_555
N11_9 N14_9 1_555 1_555
N12_9 C31_9 1_555 1_555
C23_9 C17_9 1_555 1_555
H18_9 C23_9 1_555 1_555
N13_6 C31_9 1_555 1_555
N14_9 Zn1_5 1_555 1_555
C24_9 C18_9 1_555 1_555
H19_9 C24_9 1_555 1_555
C25_9 N10_9 1_555 1_555
N15_9 N9_9 1_555 1_555
C26_9 C20_9 1_555 1_555
H20_9 C26_9 1_555 1_555
C27_9 N9_9 1_555 1_555
C28_9 C17_9 1_555 1_555
H21_9 C28_9 1_555 1_555
O7_9 C27_9 1_555 1_555
O8_9 C30_9 1_555 1_555
C29_9 N11_9 1_555 1_555
H22_9 C29_9 1_555 1_555
C30_9 N10_9 1_555 1_555
C31_9 H23_9 1_555 1_555
N16_9 N13_6 1_555 1_555
C32_9 N12_9 1_555 1_555
H24_9 C32_9 1_555 1_555
Zn2_5 N5_6 1_555 1_555
Zn2_4 N13_6 1_555 1_555
N17_4 Zn1_5 1_555 1_555
N18_4 Zn1_5 1_555 1_555
C2_9 C7_9 1_555 1_555
C4_9 C9_9 1_555 1_555
C5_9 N7_9 1_555 1_555
C6_9 C8_9 1_555 1_555
C6_9 C12_9 1_555 1_555
C7_9 C11_9 1_555 1_555
C8_9 C10_9 1_555 1_555
N7_9 C13_9 1_555 1_555
C10_9 C14_9 1_555 1_555
N8_9 C16_9 1_555 1_555
C18_9 C23_9 1_555 1_555
C20_9 C25_9 1_555 1_555
C21_9 N14_9 1_555 1_555
C21_9 N15_9 1_555 1_555
C22_9 C24_9 1_555 1_555
C22_9 C28_9 1_555 1_555
C23_9 C27_9 1_555 1_555
C24_9 C26_9 1_555 1_555
N15_9 C29_9 1_555 1_555
C26_9 C30_9 1_555 1_555
N16_9 C32_9 1_555 1_555
Zn1_6 N6_10 1_555 1_555
N1_10 C3_10 1_555 1_555
O1_10 C3_10 1_555 1_555
C1_10 H1_10 1_555 1_555
C2_10 H2_10 1_555 1_555
C3_10 C2_10 1_555 1_555
C5_10 H4_10 1_555 1_555
N3_10 N6_10 1_555 1_555
C7_10 C1_10 1_555 1_555
H6_10 C7_10 1_555 1_555
N6_10 C5_10 1_555 1_555
N7_10 N1_10 1_555 1_555
C11_10 N1_10 1_555 1_555
C12_10 C1_10 1_555 1_555
H9_10 C12_10 1_555 1_555
O3_10 C11_10 1_555 1_555
C13_10 N3_10 1_555 1_555
H10_10 C13_10 1_555 1_555
N9_10 C19_10 1_555 1_555
O5_10 C19_10 1_555 1_555
C17_10 H13_10 1_555 1_555
N10_10 N12_10 1_555 1_555
C18_10 H14_10 1_555 1_555
C19_10 C18_10 1_555 1_555
O6_10 C25_10 1_555 1_555
C20_10 C17_10 1_555 1_555
H15_10 C20_10 1_555 1_555
C21_10 H16_10 1_555 1_555
C22_10 H17_10 1_555 1_555
N11_10 N14_10 1_555 1_555
N12_10 C31_10 1_555 1_555
C23_10 C17_10 1_555 1_555
H18_10 C23_10 1_555 1_555
N18_4 C31_10 1_555 1_555
N14_10 Zn1_6 1_555 1_555
C24_10 C18_10 1_555 1_555
H19_10 C24_10 1_555 1_555
C25_10 N10_10 1_555 1_555
N15_10 N9_10 1_555 1_555
C26_10 C20_10 1_555 1_555
H20_10 C26_10 1_555 1_555
C27_10 N9_10 1_555 1_555
C28_10 C17_10 1_555 1_555
H21_10 C28_10 1_555 1_555
O7_10 C27_10 1_555 1_555
O8_10 C30_10 1_555 1_555
C29_10 N11_10 1_555 1_555
H22_10 C29_10 1_555 1_555
C30_10 N10_10 1_555 1_555
C31_10 H23_10 1_555 1_555
N16_10 N18_4 1_555 1_555
C32_10 N12_10 1_555 1_555
H24_10 C32_10 1_555 1_555
N17_5 Zn1_6 1_555 1_555
N18_5 Zn1_6 1_555 1_555
C2_10 C7_10 1_555 1_555
C5_10 N7_10 1_555 1_555
C7_10 C11_10 1_555 1_555
N7_10 C13_10 1_555 1_555
C18_10 C23_10 1_555 1_555
C20_10 C25_10 1_555 1_555
C21_10 N14_10 1_555 1_555
C21_10 N15_10 1_555 1_555
C22_10 C24_10 1_555 1_555
C22_10 C28_10 1_555 1_555
C23_10 C27_10 1_555 1_555
C24_10 C26_10 1_555 1_555
N15_10 C29_10 1_555 1_555
C26_10 C30_10 1_555 1_555
N16_10 C32_10 1_555 1_555
N2_10 N4_10 1_555 1_555
O2_10 C9_10 1_555 1_555
H3_10 C4_10 1_555 1_555
N4_10 C15_10 1_555 1_555
N17_4 C15_10 1_555 1_555
H7_10 C8_10 1_555 1_555
C9_10 N2_10 1_555 1_555
C10_10 C4_10 1_555 1_555
H8_10 C10_10 1_555 1_555
O4_10 C14_10 1_555 1_555
C14_10 N2_10 1_555 1_555
C15_10 H11_10 1_555 1_555
N8_10 N17_4 1_555 1_555
C16_10 N4_10 1_555 1_555
H12_10 C16_10 1_555 1_555
C4_10 C9_10 1_555 1_555
C6_10 C8_10 1_555 1_555
C8_10 C10_10 1_555 1_555
C10_10 C14_10 1_555 1_555
N8_10 C16_10 1_555 1_555
N8_11 N17_5 1_555 1_555
N16_11 N18_5 1_555 1_555
Zn1_7 N6_11 1_555 1_555
N1_11 C3_11 1_555 1_555
O1_11 C3_11 1_555 1_555
C1_11 H1_11 1_555 1_555
N2_11 N4_11 1_555 1_555
C2_11 H2_11 1_555 1_555
C3_11 C2_11 1_555 1_555
O2_11 C9_11 1_555 1_555
C4_11 C1_11 1_555 1_555
H3_11 C4_11 1_555 1_555
C5_11 H4_11 1_555 1_555
C6_11 H5_11 1_555 1_555
N3_11 N6_11 1_555 1_555
N4_11 C15_11 1_555 1_555
C7_11 C1_11 1_555 1_555
H6_11 C7_11 1_555 1_555
N6_11 C5_11 1_555 1_555
C8_11 C2_11 1_555 1_555
H7_11 C8_11 1_555 1_555
C9_11 N2_11 1_555 1_555
N7_11 N1_11 1_555 1_555
C10_11 C4_11 1_555 1_555
H8_11 C10_11 1_555 1_555
C11_11 N1_11 1_555 1_555
C12_11 C1_11 1_555 1_555
H9_11 C12_11 1_555 1_555
O3_11 C11_11 1_555 1_555
O4_11 C14_11 1_555 1_555
C13_11 N3_11 1_555 1_555
H10_11 C13_11 1_555 1_555
C14_11 N2_11 1_555 1_555
C15_11 H11_11 1_555 1_555
C16_11 N4_11 1_555 1_555
H12_11 C16_11 1_555 1_555
N17_6 Zn1_7 1_555 1_555
C2_11 C7_11 1_555 1_555
C4_11 C9_11 1_555 1_555
C5_11 N7_11 1_555 1_555
C6_11 C8_11 1_555 1_555
C6_11 C12_11 1_555 1_555
C7_11 C11_11 1_555 1_555
C8_11 C10_11 1_555 1_555
N7_11 C13_11 1_555 1_555
C10_11 C14_11 1_555 1_555
N9_11 C19_11 1_555 1_555
O5_11 C19_11 1_555 1_555
C17_11 H13_11 1_555 1_555
N10_11 N12_11 1_555 1_555
C18_11 H14_11 1_555 1_555
C19_11 C18_11 1_555 1_555
O6_11 C25_11 1_555 1_555
C20_11 C17_11 1_555 1_555
H15_11 C20_11 1_555 1_555
C21_11 H16_11 1_555 1_555
C22_11 H17_11 1_555 1_555
N11_11 N14_11 1_555 1_555
N12_11 C31_11 1_555 1_555
C23_11 C17_11 1_555 1_555
H18_11 C23_11 1_555 1_555
N14_11 Zn1_8 1_555 1_555
C24_11 C18_11 1_555 1_555
H19_11 C24_11 1_555 1_555
C25_11 N10_11 1_555 1_555
N15_11 N9_11 1_555 1_555
C26_11 C20_11 1_555 1_555
H20_11 C26_11 1_555 1_555
C27_11 N9_11 1_555 1_555
C28_11 C17_11 1_555 1_555
H21_11 C28_11 1_555 1_555
O7_11 C27_11 1_555 1_555
O8_11 C30_11 1_555 1_555
C29_11 N11_11 1_555 1_555
H22_11 C29_11 1_555 1_555
C30_11 N10_11 1_555 1_555
C31_11 H23_11 1_555 1_555
C32_11 N12_11 1_555 1_555
H24_11 C32_11 1_555 1_555
N18_6 Zn1_8 1_555 1_555
C18_11 C23_11 1_555 1_555
C20_11 C25_11 1_555 1_555
C21_11 N14_11 1_555 1_555
C21_11 N15_11 1_555 1_555
C22_11 C24_11 1_555 1_555
C22_11 C28_11 1_555 1_555
C23_11 C27_11 1_555 1_555
C24_11 C26_11 1_555 1_555
N15_11 C29_11 1_555 1_555
C26_11 C30_11 1_555 1_555
N10_12 N12_12 1_555 1_555
O6_12 C25_12 1_555 1_555
H15_12 C20_12 1_555 1_555
N12_12 C31_12 1_555 1_555
C25_12 N10_12 1_555 1_555
C26_12 C20_12 1_555 1_555
H20_12 C26_12 1_555 1_555
C30_12 N10_12 1_555 1_555
C31_12 H23_12 1_555 1_555
C20_12 C25_12 1_555 1_555
C24_12 C26_12 1_555 1_555
C26_12 C30_12 1_555 1_555
N16_12 N18_6 1_555 1_555
H24_12 C32_12 1_555 1_555
N16_12 C32_12 1_555 1_555
C6_12 H5_12 1_555 1_555
C13_12 N3_12 1_555 1_555
H10_12 C13_12 1_555 1_555
N8_12 N17_6 1_555 1_555
H12_12 C16_12 1_555 1_555
N9_12 C19_12 1_555 1_555
C17_12 H13_12 1_555 1_555
C18_12 H14_12 1_555 1_555
C19_12 C18_12 1_555 1_555
C21_12 H16_12 1_555 1_555
C23_12 C17_12 1_555 1_555
H18_12 C23_12 1_555 1_555
N14_12 Zn2_4 1_555 1_555
N15_12 N9_12 1_555 1_555
C27_12 N9_12 1_555 1_555
C28_12 C17_12 1_555 1_555
O7_12 C27_12 1_555 1_555
N8_12 C16_12 1_555 1_555
C18_12 C23_12 1_555 1_555
C21_12 N14_12 1_555 1_555
C21_12 N15_12 1_555 1_555
C23_12 C27_12 1_555 1_555
Zn2_5 N6_12 1_555 1_555
N1_12 C3_12 1_555 1_555
C1_12 H1_12 1_555 1_555
N2_12 N4_12 1_555 1_555
C2_12 H2_12 1_555 1_555
C3_12 C2_12 1_555 1_555
O2_12 C9_12 1_555 1_555
C4_12 C1_12 1_555 1_555
H3_12 C4_12 1_555 1_555
C5_12 H4_12 1_555 1_555
N4_12 C15_12 1_555 1_555
C7_12 C1_12 1_555 1_555
H6_12 C7_12 1_555 1_555
N6_12 C5_12 1_555 1_555
C8_12 C2_12 1_555 1_555
C9_12 N2_12 1_555 1_555
N7_12 N1_12 1_555 1_555
C10_12 C4_12 1_555 1_555
H8_12 C10_12 1_555 1_555
C11_12 N1_12 1_555 1_555
C12_12 C1_12 1_555 1_555
O3_12 C11_12 1_555 1_555
C14_12 N2_12 1_555 1_555
C15_12 H11_12 1_555 1_555
C29_12 N11_12 1_555 1_555
H22_12 C29_12 1_555 1_555
C2_12 C7_12 1_555 1_555
C4_12 C9_12 1_555 1_555
C5_12 N7_12 1_555 1_555
C7_12 C11_12 1_555 1_555
C8_12 C10_12 1_555 1_555
C10_12 C14_12 1_555 1_555
Zn1_9 N6_13 1_555 1_555
N1_13 C3_13 1_555 1_555
O1_13 C3_13 1_555 1_555
C1_13 H1_13 1_555 1_555
N2_13 N4_13 1_555 1_555
C2_13 H2_13 1_555 1_555
C3_13 C2_13 1_555 1_555
O2_13 C9_13 1_555 1_555
C4_13 C1_13 1_555 1_555
H3_13 C4_13 1_555 1_555
C5_13 H4_13 1_555 1_555
C6_13 H5_13 1_555 1_555
N3_13 N6_13 1_555 1_555
N4_13 C15_13 1_555 1_555
C7_13 C1_13 1_555 1_555
H6_13 C7_13 1_555 1_555
N6_13 C5_13 1_555 1_555
C8_13 C2_13 1_555 1_555
H7_13 C8_13 1_555 1_555
C9_13 N2_13 1_555 1_555
N7_13 N1_13 1_555 1_555
C10_13 C4_13 1_555 1_555
H8_13 C10_13 1_555 1_555
C11_13 N1_13 1_555 1_555
C12_13 C1_13 1_555 1_555
H9_13 C12_13 1_555 1_555
O3_13 C11_13 1_555 1_555
O4_13 C14_13 1_555 1_555
C13_13 N3_13 1_555 1_555
H10_13 C13_13 1_555 1_555
C14_13 N2_13 1_555 1_555
C15_13 H11_13 1_555 1_555
C16_13 N4_13 1_555 1_555
H12_13 C16_13 1_555 1_555
N9_13 C19_13 1_555 1_555
O5_13 C19_13 1_555 1_555
C17_13 H13_13 1_555 1_555
N10_13 N12_13 1_555 1_555
C18_13 H14_13 1_555 1_555
C19_13 C18_13 1_555 1_555
O6_13 C25_13 1_555 1_555
C20_13 C17_13 1_555 1_555
H15_13 C20_13 1_555 1_555
C21_13 H16_13 1_555 1_555
C22_13 H17_13 1_555 1_555
N11_13 N14_13 1_555 1_555
N12_13 C31_13 1_555 1_555
C23_13 C17_13 1_555 1_555
H18_13 C23_13 1_555 1_555
N14_13 Zn1_9 1_555 1_555
C24_13 C18_13 1_555 1_555
H19_13 C24_13 1_555 1_555
C25_13 N10_13 1_555 1_555
N15_13 N9_13 1_555 1_555
C26_13 C20_13 1_555 1_555
H20_13 C26_13 1_555 1_555
C27_13 N9_13 1_555 1_555
C28_13 C17_13 1_555 1_555
H21_13 C28_13 1_555 1_555
O7_13 C27_13 1_555 1_555
O8_13 C30_13 1_555 1_555
C29_13 N11_13 1_555 1_555
H22_13 C29_13 1_555 1_555
C30_13 N10_13 1_555 1_555
C31_13 H23_13 1_555 1_555
C32_13 N12_13 1_555 1_555
H24_13 C32_13 1_555 1_555
N17_7 Zn1_9 1_555 1_555
N18_7 Zn1_9 1_555 1_555
C2_13 C7_13 1_555 1_555
C4_13 C9_13 1_555 1_555
C5_13 N7_13 1_555 1_555
C6_13 C8_13 1_555 1_555
C6_13 C12_13 1_555 1_555
C7_13 C11_13 1_555 1_555
C8_13 C10_13 1_555 1_555
N7_13 C13_13 1_555 1_555
C10_13 C14_13 1_555 1_555
C18_13 C23_13 1_555 1_555
C20_13 C25_13 1_555 1_555
C21_13 N14_13 1_555 1_555
C21_13 N15_13 1_555 1_555
C22_13 C24_13 1_555 1_555
C22_13 C28_13 1_555 1_555
C23_13 C27_13 1_555 1_555
C24_13 C26_13 1_555 1_555
N15_13 C29_13 1_555 1_555
C26_13 C30_13 1_555 1_555
N8_13 N5_7 1_555 1_555
N16_13 N13_7 1_555 1_555
Zn3_6 N5_7 1_555 1_555
Zn3_7 N13_7 1_555 1_555
N2_14 N4_14 1_555 1_555
O2_14 C9_14 1_555 1_555
H3_14 C4_14 1_555 1_555
N4_14 C15_14 1_555 1_555
N18_7 C15_14 1_555 1_555
H7_14 C8_14 1_555 1_555
C9_14 N2_14 1_555 1_555
C10_14 C4_14 1_555 1_555
H8_14 C10_14 1_555 1_555
O4_14 C14_14 1_555 1_555
C14_14 N2_14 1_555 1_555
C15_14 H11_14 1_555 1_555
N8_14 N18_7 1_555 1_555
C16_14 N4_14 1_555 1_555
H12_14 C16_14 1_555 1_555
C4_14 C9_14 1_555 1_555
C6_14 C8_14 1_555 1_555
C8_14 C10_14 1_555 1_555
C10_14 C14_14 1_555 1_555
N8_14 C16_14 1_555 1_555
Zn1_10 N6_14 1_555 1_555
N1_14 C3_14 1_555 1_555
O1_14 C3_14 1_555 1_555
C1_14 H1_14 1_555 1_555
C2_14 H2_14 1_555 1_555
C3_14 C2_14 1_555 1_555
C5_14 H4_14 1_555 1_555
N3_14 N6_14 1_555 1_555
C7_14 C1_14 1_555 1_555
H6_14 C7_14 1_555 1_555
N6_14 C5_14 1_555 1_555
N7_14 N1_14 1_555 1_555
C11_14 N1_14 1_555 1_555
C12_14 C1_14 1_555 1_555
H9_14 C12_14 1_555 1_555
O3_14 C11_14 1_555 1_555
C13_14 N3_14 1_555 1_555
H10_14 C13_14 1_555 1_555
N9_14 C19_14 1_555 1_555
O5_14 C19_14 1_555 1_555
C17_14 H13_14 1_555 1_555
N10_14 N12_14 1_555 1_555
C18_14 H14_14 1_555 1_555
C19_14 C18_14 1_555 1_555
O6_14 C25_14 1_555 1_555
C20_14 C17_14 1_555 1_555
H15_14 C20_14 1_555 1_555
C21_14 H16_14 1_555 1_555
C22_14 H17_14 1_555 1_555
N11_14 N14_14 1_555 1_555
N12_14 C31_14 1_555 1_555
C23_14 C17_14 1_555 1_555
H18_14 C23_14 1_555 1_555
N17_7 C31_14 1_555 1_555
N14_14 Zn1_10 1_555 1_555
C24_14 C18_14 1_555 1_555
H19_14 C24_14 1_555 1_555
C25_14 N10_14 1_555 1_555
N15_14 N9_14 1_555 1_555
C26_14 C20_14 1_555 1_555
H20_14 C26_14 1_555 1_555
C27_14 N9_14 1_555 1_555
C28_14 C17_14 1_555 1_555
H21_14 C28_14 1_555 1_555
O7_14 C27_14 1_555 1_555
O8_14 C30_14 1_555 1_555
C29_14 N11_14 1_555 1_555
H22_14 C29_14 1_555 1_555
C30_14 N10_14 1_555 1_555
C31_14 H23_14 1_555 1_555
N16_14 N17_7 1_555 1_555
C32_14 N12_14 1_555 1_555
H24_14 C32_14 1_555 1_555
N17_8 Zn1_10 1_555 1_555
N18_8 Zn1_10 1_555 1_555
C2_14 C7_14 1_555 1_555
C5_14 N7_14 1_555 1_555
C7_14 C11_14 1_555 1_555
N7_14 C13_14 1_555 1_555
C18_14 C23_14 1_555 1_555
C20_14 C25_14 1_555 1_555
C21_14 N14_14 1_555 1_555
C21_14 N15_14 1_555 1_555
C22_14 C24_14 1_555 1_555
C22_14 C28_14 1_555 1_555
C23_14 C27_14 1_555 1_555
C24_14 C26_14 1_555 1_555
N15_14 C29_14 1_555 1_555
C26_14 C30_14 1_555 1_555
N16_14 C32_14 1_555 1_555
Zn3_6 N6_15 1_555 1_555
N1_15 C3_15 1_555 1_555
C1_15 H1_15 1_555 1_555
C2_15 H2_15 1_555 1_555
C3_15 C2_15 1_555 1_555
C5_15 H4_15 1_555 1_555
C7_15 C1_15 1_555 1_555
H6_15 C7_15 1_555 1_555
N6_15 C5_15 1_555 1_555
N7_15 N1_15 1_555 1_555
C11_15 N1_15 1_555 1_555
C12_15 C1_15 1_555 1_555
O3_15 C11_15 1_555 1_555
C22_15 H17_15 1_555 1_555
C29_15 N11_15 1_555 1_555
H22_15 C29_15 1_555 1_555
N16_15 N13_8 1_555 1_555
H24_15 C32_15 1_555 1_555
Zn3_8 N13_8 1_555 1_555
C2_15 C7_15 1_555 1_555
C5_15 N7_15 1_555 1_555
C7_15 C11_15 1_555 1_555
N16_15 C32_15 1_555 1_555
C13_15 N3_15 1_555 1_555
H10_15 C13_15 1_555 1_555
N9_15 C19_15 1_555 1_555
C17_15 H13_15 1_555 1_555
N10_15 N12_15 1_555 1_555
C18_15 H14_15 1_555 1_555
C19_15 C18_15 1_555 1_555
O6_15 C25_15 1_555 1_555
C20_15 C17_15 1_555 1_555
H15_15 C20_15 1_555 1_555
C21_15 H16_15 1_555 1_555
N12_15 C31_15 1_555 1_555
C23_15 C17_15 1_555 1_555
H18_15 C23_15 1_555 1_555
N14_15 Zn3_7 1_555 1_555
C24_15 C18_15 1_555 1_555
C25_15 N10_15 1_555 1_555
N15_15 N9_15 1_555 1_555
C26_15 C20_15 1_555 1_555
H20_15 C26_15 1_555 1_555
C27_15 N9_15 1_555 1_555
C28_15 C17_15 1_555 1_555
O7_15 C27_15 1_555 1_555
C30_15 N10_15 1_555 1_555
C31_15 H23_15 1_555 1_555
C18_15 C23_15 1_555 1_555
C20_15 C25_15 1_555 1_555
C21_15 N14_15 1_555 1_555
C21_15 N15_15 1_555 1_555
C23_15 C27_15 1_555 1_555
C24_15 C26_15 1_555 1_555
C26_15 C30_15 1_555 1_555
N2_15 N4_15 1_555 1_555
O2_15 C9_15 1_555 1_555
H3_15 C4_15 1_555 1_555
N4_15 C15_15 1_555 1_555
C9_15 N2_15 1_555 1_555
C10_15 C4_15 1_555 1_555
H8_15 C10_15 1_555 1_555
C14_15 N2_15 1_555 1_555
C15_15 H11_15 1_555 1_555
C4_15 C9_15 1_555 1_555
C8_15 C10_15 1_555 1_555
C10_15 C14_15 1_555 1_555
N8_15 N5_8 1_555 1_555
H12_15 C16_15 1_555 1_555
Zn3_9 N5_8 1_555 1_555
N8_15 C16_15 1_555 1_555
Zn3_8 N6_16 1_555 1_555
N1_16 C3_16 1_555 1_555
O1_16 C3_16 1_555 1_555
C1_16 H1_16 1_555 1_555
N2_16 N4_16 1_555 1_555
C2_16 H2_16 1_555 1_555
C3_16 C2_16 1_555 1_555
O2_16 C9_16 1_555 1_555
C4_16 C1_16 1_555 1_555
H3_16 C4_16 1_555 1_555
C5_16 H4_16 1_555 1_555
C6_16 H5_16 1_555 1_555
N3_16 N6_16 1_555 1_555
N4_16 C15_16 1_555 1_555
C7_16 C1_16 1_555 1_555
H6_16 C7_16 1_555 1_555
N17_8 C15_16 1_555 1_555
N6_16 C5_16 1_555 1_555
C8_16 C2_16 1_555 1_555
H7_16 C8_16 1_555 1_555
C9_16 N2_16 1_555 1_555
N7_16 N1_16 1_555 1_555
C10_16 C4_16 1_555 1_555
H8_16 C10_16 1_555 1_555
C11_16 N1_16 1_555 1_555
C12_16 C1_16 1_555 1_555
H9_16 C12_16 1_555 1_555
O3_16 C11_16 1_555 1_555
O4_16 C14_16 1_555 1_555
C13_16 N3_16 1_555 1_555
H10_16 C13_16 1_555 1_555
C14_16 N2_16 1_555 1_555
C15_16 H11_16 1_555 1_555
N8_16 N17_8 1_555 1_555
C16_16 N4_16 1_555 1_555
H12_16 C16_16 1_555 1_555
C2_16 C7_16 1_555 1_555
C4_16 C9_16 1_555 1_555
C5_16 N7_16 1_555 1_555
C6_16 C8_16 1_555 1_555
C6_16 C12_16 1_555 1_555
C7_16 C11_16 1_555 1_555
C8_16 C10_16 1_555 1_555
N7_16 C13_16 1_555 1_555
C10_16 C14_16 1_555 1_555
N8_16 C16_16 1_555 1_555
N9_16 C19_16 1_555 1_555
O5_16 C19_16 1_555 1_555
C17_16 H13_16 1_555 1_555
N10_16 N12_16 1_555 1_555
C18_16 H14_16 1_555 1_555
C19_16 C18_16 1_555 1_555
O6_16 C25_16 1_555 1_555
C20_16 C17_16 1_555 1_555
H15_16 C20_16 1_555 1_555
C21_16 H16_16 1_555 1_555
C22_16 H17_16 1_555 1_555
N11_16 N14_16 1_555 1_555
N12_16 C31_16 1_555 1_555
C23_16 C17_16 1_555 1_555
H18_16 C23_16 1_555 1_555
N18_8 C31_16 1_555 1_555
N14_16 Zn3_9 1_555 1_555
C24_16 C18_16 1_555 1_555
H19_16 C24_16 1_555 1_555
C25_16 N10_16 1_555 1_555
N15_16 N9_16 1_555 1_555
C26_16 C20_16 1_555 1_555
H20_16 C26_16 1_555 1_555
C27_16 N9_16 1_555 1_555
C28_16 C17_16 1_555 1_555
H21_16 C28_16 1_555 1_555
O7_16 C27_16 1_555 1_555
O8_16 C30_16 1_555 1_555
C29_16 N11_16 1_555 1_555
H22_16 C29_16 1_555 1_555
C30_16 N10_16 1_555 1_555
C31_16 H23_16 1_555 1_555
N16_16 N18_8 1_555 1_555
C32_16 N12_16 1_555 1_555
H24_16 C32_16 1_555 1_555
C18_16 C23_16 1_555 1_555
C20_16 C25_16 1_555 1_555
C21_16 N14_16 1_555 1_555
C21_16 N15_16 1_555 1_555
C22_16 C24_16 1_555 1_555
C22_16 C28_16 1_555 1_555
C23_16 C27_16 1_555 1_555
C24_16 C26_16 1_555 1_555
N15_16 C29_16 1_555 1_555
C26_16 C30_16 1_555 1_555
N16_16 C32_16 1_555 1_555
Zn1_11 N6_17 1_555 1_555
N1_17 C3_17 1_555 1_555
O1_17 C3_17 1_555 1_555
C1_17 H1_17 1_555 1_555
N2_17 N4_17 1_555 1_555
C2_17 H2_17 1_555 1_555
C3_17 C2_17 1_555 1_555
O2_17 C9_17 1_555 1_555
C4_17 C1_17 1_555 1_555
H3_17 C4_17 1_555 1_555
C5_17 H4_17 1_555 1_555
C6_17 H5_17 1_555 1_555
N3_17 N6_17 1_555 1_555
N4_17 C15_17 1_555 1_555
C7_17 C1_17 1_555 1_555
H6_17 C7_17 1_555 1_555
N5_9 C15_17 1_555 1_555
N6_17 C5_17 1_555 1_555
C8_17 C2_17 1_555 1_555
H7_17 C8_17 1_555 1_555
C9_17 N2_17 1_555 1_555
N7_17 N1_17 1_555 1_555
C10_17 C4_17 1_555 1_555
H8_17 C10_17 1_555 1_555
C11_17 N1_17 1_555 1_555
C12_17 C1_17 1_555 1_555
H9_17 C12_17 1_555 1_555
O3_17 C11_17 1_555 1_555
O4_17 C14_17 1_555 1_555
C13_17 N3_17 1_555 1_555
H10_17 C13_17 1_555 1_555
C14_17 N2_17 1_555 1_555
C15_17 H11_17 1_555 1_555
N8_17 N5_9 1_555 1_555
C16_17 N4_17 1_555 1_555
H12_17 C16_17 1_555 1_555
Zn2_6 N5_9 1_555 1_555
N17_9 Zn1_11 1_555 1_555
C2_17 C7_17 1_555 1_555
C4_17 C9_17 1_555 1_555
C5_17 N7_17 1_555 1_555
C6_17 C8_17 1_555 1_555
C6_17 C12_17 1_555 1_555
C7_17 C11_17 1_555 1_555
C8_17 C10_17 1_555 1_555
N7_17 C13_17 1_555 1_555
C10_17 C14_17 1_555 1_555
N8_17 C16_17 1_555 1_555
N9_17 C19_17 1_555 1_555
O5_17 C19_17 1_555 1_555
C17_17 H13_17 1_555 1_555
N10_17 N12_17 1_555 1_555
C18_17 H14_17 1_555 1_555
C19_17 C18_17 1_555 1_555
O6_17 C25_17 1_555 1_555
C20_17 C17_17 1_555 1_555
H15_17 C20_17 1_555 1_555
C21_17 H16_17 1_555 1_555
C22_17 H17_17 1_555 1_555
N11_17 N14_17 1_555 1_555
N12_17 C31_17 1_555 1_555
C23_17 C17_17 1_555 1_555
H18_17 C23_17 1_555 1_555
N13_9 C31_17 1_555 1_555
N14_17 Zn1_12 1_555 1_555
C24_17 C18_17 1_555 1_555
H19_17 C24_17 1_555 1_555
C25_17 N10_17 1_555 1_555
N15_17 N9_17 1_555 1_555
C26_17 C20_17 1_555 1_555
H20_17 C26_17 1_555 1_555
C27_17 N9_17 1_555 1_555
C28_17 C17_17 1_555 1_555
H21_17 C28_17 1_555 1_555
O7_17 C27_17 1_555 1_555
O8_17 C30_17 1_555 1_555
C29_17 N11_17 1_555 1_555
H22_17 C29_17 1_555 1_555
C30_17 N10_17 1_555 1_555
C31_17 H23_17 1_555 1_555
N16_17 N13_9 1_555 1_555
C32_17 N12_17 1_555 1_555
H24_17 C32_17 1_555 1_555
Zn2_6 N13_9 1_555 1_555
N18_9 Zn1_12 1_555 1_555
C18_17 C23_17 1_555 1_555
C20_17 C25_17 1_555 1_555
C21_17 N14_17 1_555 1_555
C21_17 N15_17 1_555 1_555
C22_17 C24_17 1_555 1_555
C22_17 C28_17 1_555 1_555
C23_17 C27_17 1_555 1_555
C24_17 C26_17 1_555 1_555
N15_17 C29_17 1_555 1_555
C26_17 C30_17 1_555 1_555
N16_17 C32_17 1_555 1_555
Zn1_13 N6_18 1_555 1_555
N1_18 C3_18 1_555 1_555
C1_18 H1_18 1_555 1_555
C2_18 H2_18 1_555 1_555
C3_18 C2_18 1_555 1_555
C5_18 H4_18 1_555 1_555
C7_18 C1_18 1_555 1_555
H6_18 C7_18 1_555 1_555
N6_18 C5_18 1_555 1_555
N7_18 N1_18 1_555 1_555
C11_18 N1_18 1_555 1_555
C12_18 C1_18 1_555 1_555
O3_18 C11_18 1_555 1_555
C22_18 H17_18 1_555 1_555
C29_18 N11_18 1_555 1_555
H22_18 C29_18 1_555 1_555
N16_18 N17_9 1_555 1_555
H24_18 C32_18 1_555 1_555
N17_10 Zn1_13 1_555 1_555
C2_18 C7_18 1_555 1_555
C5_18 N7_18 1_555 1_555
C7_18 C11_18 1_555 1_555
N16_18 C32_18 1_555 1_555
N2_18 N4_18 1_555 1_555
O2_18 C9_18 1_555 1_555
H3_18 C4_18 1_555 1_555
N4_18 C15_18 1_555 1_555
C9_18 N2_18 1_555 1_555
C10_18 C4_18 1_555 1_555
H8_18 C10_18 1_555 1_555
C14_18 N2_18 1_555 1_555
C15_18 H11_18 1_555 1_555
C4_18 C9_18 1_555 1_555
C8_18 C10_18 1_555 1_555
C10_18 C14_18 1_555 1_555
C13_18 N3_18 1_555 1_555
H10_18 C13_18 1_555 1_555
N9_18 C19_18 1_555 1_555
C17_18 H13_18 1_555 1_555
N10_18 N12_18 1_555 1_555
C18_18 H14_18 1_555 1_555
C19_18 C18_18 1_555 1_555
O6_18 C25_18 1_555 1_555
C20_18 C17_18 1_555 1_555
H15_18 C20_18 1_555 1_555
C21_18 H16_18 1_555 1_555
N12_18 C31_18 1_555 1_555
C23_18 C17_18 1_555 1_555
H18_18 C23_18 1_555 1_555
N14_18 Zn1_14 1_555 1_555
C24_18 C18_18 1_555 1_555
C25_18 N10_18 1_555 1_555
N15_18 N9_18 1_555 1_555
C26_18 C20_18 1_555 1_555
H20_18 C26_18 1_555 1_555
C27_18 N9_18 1_555 1_555
C28_18 C17_18 1_555 1_555
O7_18 C27_18 1_555 1_555
C30_18 N10_18 1_555 1_555
C31_18 H23_18 1_555 1_555
N18_10 Zn1_14 1_555 1_555
C18_18 C23_18 1_555 1_555
C20_18 C25_18 1_555 1_555
C21_18 N14_18 1_555 1_555
C21_18 N15_18 1_555 1_555
C23_18 C27_18 1_555 1_555
C24_18 C26_18 1_555 1_555
C26_18 C30_18 1_555 1_555
N8_18 N18_9 1_555 1_555
H12_18 C16_18 1_555 1_555
N8_18 C16_18 1_555 1_555
N2_19 N4_19 1_555 1_555
O2_19 C9_19 1_555 1_555
H3_19 C4_19 1_555 1_555
N4_19 C15_19 1_555 1_555
N5_10 C15_19 1_555 1_555
H7_19 C8_19 1_555 1_555
C9_19 N2_19 1_555 1_555
C10_19 C4_19 1_555 1_555
H8_19 C10_19 1_555 1_555
O4_19 C14_19 1_555 1_555
C14_19 N2_19 1_555 1_555
C15_19 H11_19 1_555 1_555
N8_19 N5_10 1_555 1_555
C16_19 N4_19 1_555 1_555
H12_19 C16_19 1_555 1_555
Zn2_7 N5_10 1_555 1_555
C4_19 C9_19 1_555 1_555
C6_19 C8_19 1_555 1_555
C8_19 C10_19 1_555 1_555
C10_19 C14_19 1_555 1_555
N8_19 C16_19 1_555 1_555
Zn2_6 N6_19 1_555 1_555
N1_19 C3_19 1_555 1_555
O1_19 C3_19 1_555 1_555
C1_19 H1_19 1_555 1_555
C2_19 H2_19 1_555 1_555
C3_19 C2_19 1_555 1_555
C5_19 H4_19 1_555 1_555
N3_19 N6_19 1_555 1_555
C7_19 C1_19 1_555 1_555
H6_19 C7_19 1_555 1_555
N6_19 C5_19 1_555 1_555
N7_19 N1_19 1_555 1_555
C11_19 N1_19 1_555 1_555
C12_19 C1_19 1_555 1_555
H9_19 C12_19 1_555 1_555
O3_19 C11_19 1_555 1_555
C13_19 N3_19 1_555 1_555
H10_19 C13_19 1_555 1_555
N9_19 C19_19 1_555 1_555
O5_19 C19_19 1_555 1_555
C17_19 H13_19 1_555 1_555
N10_19 N12_19 1_555 1_555
C18_19 H14_19 1_555 1_555
C19_19 C18_19 1_555 1_555
O6_19 C25_19 1_555 1_555
C20_19 C17_19 1_555 1_555
H15_19 C20_19 1_555 1_555
C21_19 H16_19 1_555 1_555
C22_19 H17_19 1_555 1_555
N11_19 N14_19 1_555 1_555
N12_19 C31_19 1_555 1_555
C23_19 C17_19 1_555 1_555
H18_19 C23_19 1_555 1_555
N13_10 C31_19 1_555 1_555
N14_19 Zn2_6 1_555 1_555
C24_19 C18_19 1_555 1_555
H19_19 C24_19 1_555 1_555
C25_19 N10_19 1_555 1_555
N15_19 N9_19 1_555 1_555
C26_19 C20_19 1_555 1_555
H20_19 C26_19 1_555 1_555
C27_19 N9_19 1_555 1_555
C28_19 C17_19 1_555 1_555
H21_19 C28_19 1_555 1_555
O7_19 C27_19 1_555 1_555
O8_19 C30_19 1_555 1_555
C29_19 N11_19 1_555 1_555
H22_19 C29_19 1_555 1_555
C30_19 N10_19 1_555 1_555
C31_19 H23_19 1_555 1_555
N16_19 N13_10 1_555 1_555
C32_19 N12_19 1_555 1_555
H24_19 C32_19 1_555 1_555
Zn2_7 N13_10 1_555 1_555
C2_19 C7_19 1_555 1_555
C5_19 N7_19 1_555 1_555
C7_19 C11_19 1_555 1_555
N7_19 C13_19 1_555 1_555
C18_19 C23_19 1_555 1_555
C20_19 C25_19 1_555 1_555
C21_19 N14_19 1_555 1_555
C21_19 N15_19 1_555 1_555
C22_19 C24_19 1_555 1_555
C22_19 C28_19 1_555 1_555
C23_19 C27_19 1_555 1_555
C24_19 C26_19 1_555 1_555
N15_19 C29_19 1_555 1_555
C26_19 C30_19 1_555 1_555
N16_19 C32_19 1_555 1_555
Zn2_7 N6_20 1_555 1_555
N1_20 C3_20 1_555 1_555
O1_20 C3_20 1_555 1_555
C1_20 H1_20 1_555 1_555
N2_20 N4_20 1_555 1_555
C2_20 H2_20 1_555 1_555
C3_20 C2_20 1_555 1_555
O2_20 C9_20 1_555 1_555
C4_20 C1_20 1_555 1_555
H3_20 C4_20 1_555 1_555
C5_20 H4_20 1_555 1_555
C6_20 H5_20 1_555 1_555
N3_20 N6_20 1_555 1_555
N4_20 C15_20 1_555 1_555
C7_20 C1_20 1_555 1_555
H6_20 C7_20 1_555 1_555
N6_20 C5_20 1_555 1_555
C8_20 C2_20 1_555 1_555
H7_20 C8_20 1_555 1_555
C9_20 N2_20 1_555 1_555
N7_20 N1_20 1_555 1_555
C10_20 C4_20 1_555 1_555
H8_20 C10_20 1_555 1_555
C11_20 N1_20 1_555 1_555
C12_20 C1_20 1_555 1_555
H9_20 C12_20 1_555 1_555
O3_20 C11_20 1_555 1_555
O4_20 C14_20 1_555 1_555
C13_20 N3_20 1_555 1_555
H10_20 C13_20 1_555 1_555
C14_20 N2_20 1_555 1_555
C15_20 H11_20 1_555 1_555
C16_20 N4_20 1_555 1_555
H12_20 C16_20 1_555 1_555
N9_20 C19_20 1_555 1_555
O5_20 C19_20 1_555 1_555
C17_20 H13_20 1_555 1_555
N10_20 N12_20 1_555 1_555
C18_20 H14_20 1_555 1_555
C19_20 C18_20 1_555 1_555
O6_20 C25_20 1_555 1_555
C20_20 C17_20 1_555 1_555
H15_20 C20_20 1_555 1_555
C21_20 H16_20 1_555 1_555
C22_20 H17_20 1_555 1_555
N11_20 N14_20 1_555 1_555
N12_20 C31_20 1_555 1_555
C23_20 C17_20 1_555 1_555
H18_20 C23_20 1_555 1_555
N14_20 Zn2_7 1_555 1_555
C24_20 C18_20 1_555 1_555
H19_20 C24_20 1_555 1_555
C25_20 N10_20 1_555 1_555
N15_20 N9_20 1_555 1_555
C26_20 C20_20 1_555 1_555
H20_20 C26_20 1_555 1_555
C27_20 N9_20 1_555 1_555
C28_20 C17_20 1_555 1_555
H21_20 C28_20 1_555 1_555
O7_20 C27_20 1_555 1_555
O8_20 C30_20 1_555 1_555
C29_20 N11_20 1_555 1_555
H22_20 C29_20 1_555 1_555
C30_20 N10_20 1_555 1_555
C31_20 H23_20 1_555 1_555
C32_20 N12_20 1_555 1_555
H24_20 C32_20 1_555 1_555
C2_20 C7_20 1_555 1_555
C4_20 C9_20 1_555 1_555
C5_20 N7_20 1_555 1_555
C6_20 C8_20 1_555 1_555
C6_20 C12_20 1_555 1_555
C7_20 C11_20 1_555 1_555
C8_20 C10_20 1_555 1_555
N7_20 C13_20 1_555 1_555
C10_20 C14_20 1_555 1_555
C18_20 C23_20 1_555 1_555
C20_20 C25_20 1_555 1_555
C21_20 N14_20 1_555 1_555
C21_20 N15_20 1_555 1_555
C22_20 C24_20 1_555 1_555
C22_20 C28_20 1_555 1_555
C23_20 C27_20 1_555 1_555
C24_20 C26_20 1_555 1_555
N15_20 C29_20 1_555 1_555
C26_20 C30_20 1_555 1_555
N8_20 N17_10 1_555 1_555
N16_20 N18_10 1_555 1_555
Zn1_15 N6_21 1_555 1_555
N1_21 C3_21 1_555 1_555
O1_21 C3_21 1_555 1_555
C1_21 H1_21 1_555 1_555
N2_21 N4_21 1_555 1_555
C2_21 H2_21 1_555 1_555
C3_21 C2_21 1_555 1_555
O2_21 C9_21 1_555 1_555
C4_21 C1_21 1_555 1_555
H3_21 C4_21 1_555 1_555
C5_21 H4_21 1_555 1_555
C6_21 H5_21 1_555 1_555
N3_21 N6_21 1_555 1_555
N4_21 C15_21 1_555 1_555
C7_21 C1_21 1_555 1_555
H6_21 C7_21 1_555 1_555
N5_11 C15_21 1_555 1_555
N6_21 C5_21 1_555 1_555
C8_21 C2_21 1_555 1_555
H7_21 C8_21 1_555 1_555
C9_21 N2_21 1_555 1_555
N7_21 N1_21 1_555 1_555
C10_21 C4_21 1_555 1_555
H8_21 C10_21 1_555 1_555
C11_21 N1_21 1_555 1_555
C12_21 C1_21 1_555 1_555
H9_21 C12_21 1_555 1_555
O3_21 C11_21 1_555 1_555
O4_21 C14_21 1_555 1_555
C13_21 N3_21 1_555 1_555
H10_21 C13_21 1_555 1_555
C14_21 N2_21 1_555 1_555
C15_21 H11_21 1_555 1_555
N8_21 N5_11 1_555 1_555
C16_21 N4_21 1_555 1_555
H12_21 C16_21 1_555 1_555
N9_21 C19_21 1_555 1_555
O5_21 C19_21 1_555 1_555
C17_21 H13_21 1_555 1_555
N10_21 N12_21 1_555 1_555
C18_21 H14_21 1_555 1_555
C19_21 C18_21 1_555 1_555
O6_21 C25_21 1_555 1_555
C20_21 C17_21 1_555 1_555
H15_21 C20_21 1_555 1_555
C21_21 H16_21 1_555 1_555
C22_21 H17_21 1_555 1_555
N11_21 N14_21 1_555 1_555
N12_21 C31_21 1_555 1_555
C23_21 C17_21 1_555 1_555
H18_21 C23_21 1_555 1_555
N13_11 C31_21 1_555 1_555
N14_21 Zn1_15 1_555 1_555
C24_21 C18_21 1_555 1_555
H19_21 C24_21 1_555 1_555
C25_21 N10_21 1_555 1_555
N15_21 N9_21 1_555 1_555
C26_21 C20_21 1_555 1_555
H20_21 C26_21 1_555 1_555
C27_21 N9_21 1_555 1_555
C28_21 C17_21 1_555 1_555
H21_21 C28_21 1_555 1_555
O7_21 C27_21 1_555 1_555
O8_21 C30_21 1_555 1_555
C29_21 N11_21 1_555 1_555
H22_21 C29_21 1_555 1_555
C30_21 N10_21 1_555 1_555
C31_21 H23_21 1_555 1_555
N16_21 N13_11 1_555 1_555
C32_21 N12_21 1_555 1_555
H24_21 C32_21 1_555 1_555
Zn2_9 N5_11 1_555 1_555
Zn2_8 N13_11 1_555 1_555
N17_11 Zn1_15 1_555 1_555
N18_11 Zn1_15 1_555 1_555
C2_21 C7_21 1_555 1_555
C4_21 C9_21 1_555 1_555
C5_21 N7_21 1_555 1_555
C6_21 C8_21 1_555 1_555
C6_21 C12_21 1_555 1_555
C7_21 C11_21 1_555 1_555
C8_21 C10_21 1_555 1_555
N7_21 C13_21 1_555 1_555
C10_21 C14_21 1_555 1_555
N8_21 C16_21 1_555 1_555
C18_21 C23_21 1_555 1_555
C20_21 C25_21 1_555 1_555
C21_21 N14_21 1_555 1_555
C21_21 N15_21 1_555 1_555
C22_21 C24_21 1_555 1_555
C22_21 C28_21 1_555 1_555
C23_21 C27_21 1_555 1_555
C24_21 C26_21 1_555 1_555
N15_21 C29_21 1_555 1_555
C26_21 C30_21 1_555 1_555
N16_21 C32_21 1_555 1_555
Zn1_16 N6_22 1_555 1_555
N1_22 C3_22 1_555 1_555
O1_22 C3_22 1_555 1_555
C1_22 H1_22 1_555 1_555
C2_22 H2_22 1_555 1_555
C3_22 C2_22 1_555 1_555
C5_22 H4_22 1_555 1_555
N3_22 N6_22 1_555 1_555
C7_22 C1_22 1_555 1_555
H6_22 C7_22 1_555 1_555
N6_22 C5_22 1_555 1_555
N7_22 N1_22 1_555 1_555
C11_22 N1_22 1_555 1_555
C12_22 C1_22 1_555 1_555
H9_22 C12_22 1_555 1_555
O3_22 C11_22 1_555 1_555
C13_22 N3_22 1_555 1_555
H10_22 C13_22 1_555 1_555
N9_22 C19_22 1_555 1_555
O5_22 C19_22 1_555 1_555
C17_22 H13_22 1_555 1_555
N10_22 N12_22 1_555 1_555
C18_22 H14_22 1_555 1_555
C19_22 C18_22 1_555 1_555
O6_22 C25_22 1_555 1_555
C20_22 C17_22 1_555 1_555
H15_22 C20_22 1_555 1_555
C21_22 H16_22 1_555 1_555
C22_22 H17_22 1_555 1_555
N11_22 N14_22 1_555 1_555
N12_22 C31_22 1_555 1_555
C23_22 C17_22 1_555 1_555
H18_22 C23_22 1_555 1_555
N18_11 C31_22 1_555 1_555
N14_22 Zn1_16 1_555 1_555
C24_22 C18_22 1_555 1_555
H19_22 C24_22 1_555 1_555
C25_22 N10_22 1_555 1_555
N15_22 N9_22 1_555 1_555
C26_22 C20_22 1_555 1_555
H20_22 C26_22 1_555 1_555
C27_22 N9_22 1_555 1_555
C28_22 C17_22 1_555 1_555
H21_22 C28_22 1_555 1_555
O7_22 C27_22 1_555 1_555
O8_22 C30_22 1_555 1_555
C29_22 N11_22 1_555 1_555
H22_22 C29_22 1_555 1_555
C30_22 N10_22 1_555 1_555
C31_22 H23_22 1_555 1_555
N16_22 N18_11 1_555 1_555
C32_22 N12_22 1_555 1_555
H24_22 C32_22 1_555 1_555
N17_12 Zn1_16 1_555 1_555
N18_12 Zn1_16 1_555 1_555
C2_22 C7_22 1_555 1_555
C5_22 N7_22 1_555 1_555
C7_22 C11_22 1_555 1_555
N7_22 C13_22 1_555 1_555
C18_22 C23_22 1_555 1_555
C20_22 C25_22 1_555 1_555
C21_22 N14_22 1_555 1_555
C21_22 N15_22 1_555 1_555
C22_22 C24_22 1_555 1_555
C22_22 C28_22 1_555 1_555
C23_22 C27_22 1_555 1_555
C24_22 C26_22 1_555 1_555
N15_22 C29_22 1_555 1_555
C26_22 C30_22 1_555 1_555
N16_22 C32_22 1_555 1_555
N2_22 N4_22 1_555 1_555
O2_22 C9_22 1_555 1_555
H3_22 C4_22 1_555 1_555
N4_22 C15_22 1_555 1_555
N17_11 C15_22 1_555 1_555
H7_22 C8_22 1_555 1_555
C9_22 N2_22 1_555 1_555
C10_22 C4_22 1_555 1_555
H8_22 C10_22 1_555 1_555
O4_22 C14_22 1_555 1_555
C14_22 N2_22 1_555 1_555
C15_22 H11_22 1_555 1_555
N8_22 N17_11 1_555 1_555
C16_22 N4_22 1_555 1_555
H12_22 C16_22 1_555 1_555
C4_22 C9_22 1_555 1_555
C6_22 C8_22 1_555 1_555
C8_22 C10_22 1_555 1_555
C10_22 C14_22 1_555 1_555
N8_22 C16_22 1_555 1_555
N8_23 N17_12 1_555 1_555
N16_23 N18_12 1_555 1_555
Zn1_17 N6_23 1_555 1_555
N1_23 C3_23 1_555 1_555
O1_23 C3_23 1_555 1_555
C1_23 H1_23 1_555 1_555
N2_23 N4_23 1_555 1_555
C2_23 H2_23 1_555 1_555
C3_23 C2_23 1_555 1_555
O2_23 C9_23 1_555 1_555
C4_23 C1_23 1_555 1_555
H3_23 C4_23 1_555 1_555
C5_23 H4_23 1_555 1_555
C6_23 H5_23 1_555 1_555
N3_23 N6_23 1_555 1_555
N4_23 C15_23 1_555 1_555
C7_23 C1_23 1_555 1_555
H6_23 C7_23 1_555 1_555
N6_23 C5_23 1_555 1_555
C8_23 C2_23 1_555 1_555
H7_23 C8_23 1_555 1_555
C9_23 N2_23 1_555 1_555
N7_23 N1_23 1_555 1_555
C10_23 C4_23 1_555 1_555
H8_23 C10_23 1_555 1_555
C11_23 N1_23 1_555 1_555
C12_23 C1_23 1_555 1_555
H9_23 C12_23 1_555 1_555
O3_23 C11_23 1_555 1_555
O4_23 C14_23 1_555 1_555
C13_23 N3_23 1_555 1_555
H10_23 C13_23 1_555 1_555
C14_23 N2_23 1_555 1_555
C15_23 H11_23 1_555 1_555
C16_23 N4_23 1_555 1_555
H12_23 C16_23 1_555 1_555
N17_13 Zn1_17 1_555 1_555
C2_23 C7_23 1_555 1_555
C4_23 C9_23 1_555 1_555
C5_23 N7_23 1_555 1_555
C6_23 C8_23 1_555 1_555
C6_23 C12_23 1_555 1_555
C7_23 C11_23 1_555 1_555
C8_23 C10_23 1_555 1_555
N7_23 C13_23 1_555 1_555
C10_23 C14_23 1_555 1_555
N9_23 C19_23 1_555 1_555
O5_23 C19_23 1_555 1_555
C17_23 H13_23 1_555 1_555
N10_23 N12_23 1_555 1_555
C18_23 H14_23 1_555 1_555
C19_23 C18_23 1_555 1_555
O6_23 C25_23 1_555 1_555
C20_23 C17_23 1_555 1_555
H15_23 C20_23 1_555 1_555
C21_23 H16_23 1_555 1_555
C22_23 H17_23 1_555 1_555
N11_23 N14_23 1_555 1_555
N12_23 C31_23 1_555 1_555
C23_23 C17_23 1_555 1_555
H18_23 C23_23 1_555 1_555
N14_23 Zn1_18 1_555 1_555
C24_23 C18_23 1_555 1_555
H19_23 C24_23 1_555 1_555
C25_23 N10_23 1_555 1_555
N15_23 N9_23 1_555 1_555
C26_23 C20_23 1_555 1_555
H20_23 C26_23 1_555 1_555
C27_23 N9_23 1_555 1_555
C28_23 C17_23 1_555 1_555
H21_23 C28_23 1_555 1_555
O7_23 C27_23 1_555 1_555
O8_23 C30_23 1_555 1_555
C29_23 N11_23 1_555 1_555
H22_23 C29_23 1_555 1_555
C30_23 N10_23 1_555 1_555
C31_23 H23_23 1_555 1_555
C32_23 N12_23 1_555 1_555
H24_23 C32_23 1_555 1_555
N18_13 Zn1_18 1_555 1_555
C18_23 C23_23 1_555 1_555
C20_23 C25_23 1_555 1_555
C21_23 N14_23 1_555 1_555
C21_23 N15_23 1_555 1_555
C22_23 C24_23 1_555 1_555
C22_23 C28_23 1_555 1_555
C23_23 C27_23 1_555 1_555
C24_23 C26_23 1_555 1_555
N15_23 C29_23 1_555 1_555
C26_23 C30_23 1_555 1_555
N10_24 N12_24 1_555 1_555
O6_24 C25_24 1_555 1_555
H15_24 C20_24 1_555 1_555
N12_24 C31_24 1_555 1_555
C25_24 N10_24 1_555 1_555
C26_24 C20_24 1_555 1_555
H20_24 C26_24 1_555 1_555
C30_24 N10_24 1_555 1_555
C31_24 H23_24 1_555 1_555
C20_24 C25_24 1_555 1_555
C24_24 C26_24 1_555 1_555
C26_24 C30_24 1_555 1_555
C6_24 H5_24 1_555 1_555
C13_24 N3_24 1_555 1_555
H10_24 C13_24 1_555 1_555
N8_24 N17_13 1_555 1_555
H12_24 C16_24 1_555 1_555
N9_24 C19_24 1_555 1_555
C17_24 H13_24 1_555 1_555
C18_24 H14_24 1_555 1_555
C19_24 C18_24 1_555 1_555
C21_24 H16_24 1_555 1_555
C23_24 C17_24 1_555 1_555
H18_24 C23_24 1_555 1_555
N14_24 Zn2_8 1_555 1_555
N15_24 N9_24 1_555 1_555
C27_24 N9_24 1_555 1_555
C28_24 C17_24 1_555 1_555
O7_24 C27_24 1_555 1_555
N8_24 C16_24 1_555 1_555
C18_24 C23_24 1_555 1_555
C21_24 N14_24 1_555 1_555
C21_24 N15_24 1_555 1_555
C23_24 C27_24 1_555 1_555
N16_24 N18_13 1_555 1_555
H24_24 C32_24 1_555 1_555
N16_24 C32_24 1_555 1_555
Zn2_9 N6_24 1_555 1_555
N1_24 C3_24 1_555 1_555
C1_24 H1_24 1_555 1_555
N2_24 N4_24 1_555 1_555
C2_24 H2_24 1_555 1_555
C3_24 C2_24 1_555 1_555
O2_24 C9_24 1_555 1_555
C4_24 C1_24 1_555 1_555
H3_24 C4_24 1_555 1_555
C5_24 H4_24 1_555 1_555
N4_24 C15_24 1_555 1_555
C7_24 C1_24 1_555 1_555
H6_24 C7_24 1_555 1_555
N6_24 C5_24 1_555 1_555
C8_24 C2_24 1_555 1_555
C9_24 N2_24 1_555 1_555
N7_24 N1_24 1_555 1_555
C10_24 C4_24 1_555 1_555
H8_24 C10_24 1_555 1_555
C11_24 N1_24 1_555 1_555
C12_24 C1_24 1_555 1_555
O3_24 C11_24 1_555 1_555
C14_24 N2_24 1_555 1_555
C15_24 H11_24 1_555 1_555
C29_24 N11_24 1_555 1_555
H22_24 C29_24 1_555 1_555
C2_24 C7_24 1_555 1_555
C4_24 C9_24 1_555 1_555
C5_24 N7_24 1_555 1_555
C7_24 C11_24 1_555 1_555
C8_24 C10_24 1_555 1_555
C10_24 C14_24 1_555 1_555

#END
