
###############################################################################
#
# This file contains modified crystal structure data generated from the
# MOF subset of the Cambridge Structural Database (CSD) v543 
# hosted by the Cambridge Crystallographic Data Centre (CCDC).
#
# This work is licensed under the Creative Commons
# Attribution-NonCommercial-ShareAlike 4.0 International License.
# To view a copy of this license, visit
# http://creativecommons.org/licenses/by-nc-sa/4.0/
# or send a letter to
# Creative Commons, PO Box 1866, Mountain View, CA 94042, USA.
#
# CIF created using the CSD Python API on 29 September 2022
# The structure has been converted into the P1 space group
# The structure has a 3D framework
# The original CSD entry NEPWIQ is in the orthorhombic crystal system
# The framework has been calculated to contain at least 10.0% void space
# The void calculation uses a probe of radius 1.32A, grid spacing 0.4
#
###############################################################################

data_NEPWIQ
_chemical_formula_moiety         '(C80 H96 Er14 O128)n'
_symmetry_cell_setting           triclinic
_symmetry_space_group_name_H-M   'P 1'
_symmetry_Int_Tables_number      1
_space_group_name_Hall           'P 1'
loop_
_symmetry_equiv_pos_site_id
_symmetry_equiv_pos_as_xyz
1 x,y,z
_cell_length_a                   9.6016(19)
_cell_length_b                   15.701(3)
_cell_length_c                   26.722(5)
_cell_angle_alpha                90
_cell_angle_beta                 90
_cell_angle_gamma                90
_cell_volume                     4028.47
loop_
_atom_site_label
_atom_site_type_symbol
_atom_site_fract_x
_atom_site_fract_y
_atom_site_fract_z
C2 C 0.0906(4) 0.1604(3) 0.53278(16)
H1 H 0.1407 0.2110 0.5348
O4 O 0.0243(3) 0.37733(15) 0.56467(9)
H2 H 0.1015 0.3553 0.5560
H3 H 0.0405 0.4294 0.5712
C4 C 0.3142(4) 0.0840(2) 0.52974(13)
C7 C 0.1594(4) 0.0896(3) 0.53278(16)
H4 H 0.1093 0.0390 0.5348
Er4 Er 0.6250 0.1250 0.508680(7)
Er6 Er 0.1250 0.6250 0.508680(7)
O5 O 0.3632(3) 0.01258(16) 0.51740(10)
O9 O 0.3903(3) 0.14790(16) 0.53731(11)
O13 O 0.1097(3) 0.35210(16) 0.46269(11)
Er2 Er 0.3750 0.8750 0.491320(7)
O8 O 0.3868(3) 0.73742(16) 0.51740(10)
O14 O 0.6097(3) 0.85210(16) 0.46269(11)
O15 O 0.1403(3) 0.89790(16) 0.46269(11)
O19 O 0.3664(3) 0.79009(15) 0.41668(9)
O20 O 0.3836(3) 0.95991(15) 0.41668(9)
O22 O 0.2257(3) 0.87267(15) 0.56467(9)
O23 O 0.5243(3) 0.87733(15) 0.56467(9)
H8 H 0.1485 0.8947 0.5560
H9 H 0.6015 0.8553 0.5560
H11 H 0.2095 0.8206 0.5712
H12 H 0.5405 0.9294 0.5712
C1 C 0.9358(4) 0.1660(2) 0.52974(13)
C3 C 0.8750 0.4244(3) 0.3750
Er1 Er 0.8750 0.3750 0.491320(7)
O1 O 0.8868(3) 0.23742(16) 0.51740(10)
O2 O 0.8597(3) 0.10210(16) 0.53731(11)
O3 O 0.8836(3) 0.45991(15) 0.41668(9)
C5 C 0.8142(4) 0.5840(2) 0.52974(13)
C6 C 0.4358(4) 0.6660(2) 0.52974(13)
C8 C 0.6594(4) 0.5896(3) 0.53278(16)
C9 C 0.5906(4) 0.6604(3) 0.53278(16)
H5 H 0.6093 0.5390 0.5348
H6 H 0.6407 0.7110 0.5348
C10 C 0.8750 0.3256(3) 0.3750
Er5 Er 0.8750 0.3750 0.258680(7)
O6 O 0.8632(3) 0.51258(16) 0.51740(10)
O10 O 0.8903(3) 0.64790(16) 0.53731(11)
O11 O 0.3597(3) 0.60210(16) 0.53731(11)
O12 O 0.6403(3) 0.39790(16) 0.46269(11)
O16 O 0.8836(3) 0.29009(15) 0.33332(9)
O17 O 0.8664(3) 0.29009(15) 0.41668(9)
O18 O 0.8664(3) 0.45991(15) 0.33332(9)
O21 O 0.7257(3) 0.37267(15) 0.56467(9)
H7 H 0.6485 0.3947 0.5560
H10 H 0.7095 0.3206 0.5712
C6_2 C 0.3142(4) 0.6660(2) 0.22026(13)
C8_2 C 0.0906(4) 0.5896(3) 0.21722(16)
C9_2 C 0.1594(4) 0.6604(3) 0.21722(16)
H5_2 H 0.1407 0.5390 0.2152
H6_2 H 0.1093 0.7110 0.2152
Er3 Er 0.1250 0.1250 0.241320(7)
Er7 Er 0.3750 0.8750 0.258680(7)
Er8 Er 0.6250 0.6250 0.241320(7)
O7 O 0.3632(3) 0.73742(16) 0.23260(10)
O11_2 O 0.3903(3) 0.60210(16) 0.21269(11)
O12_2 O 0.1097(3) 0.39790(16) 0.28731(11)
O21_2 O 0.0243(3) 0.37267(15) 0.18533(9)
H7_2 H 0.1015 0.3947 0.1940
H10_2 H 0.0405 0.3206 0.1788
C1_2 C 0.8142(4) 0.1660(2) 0.22026(13)
C2_2 C 0.6594(4) 0.1604(3) 0.21722(16)
H1_2 H 0.6093 0.2110 0.2152
O1_2 O 0.8632(3) 0.23742(16) 0.23260(10)
O2_2 O 0.8903(3) 0.10210(16) 0.21269(11)
O4_2 O 0.7257(3) 0.37733(15) 0.18533(9)
H2_2 H 0.6485 0.3553 0.1940
H3_2 H 0.7095 0.4294 0.1788
C4_2 C 0.4358(4) 0.0840(2) 0.22026(13)
C5_2 C 0.9358(4) 0.5840(2) 0.22026(13)
C7_2 C 0.5906(4) 0.0896(3) 0.21722(16)
H4_2 H 0.6407 0.0390 0.2152
O5_2 O 0.3868(3) 0.01258(16) 0.23260(10)
O6_2 O 0.8868(3) 0.51258(16) 0.23260(10)
O9_2 O 0.3597(3) 0.14790(16) 0.21269(11)
O10_2 O 0.8597(3) 0.64790(16) 0.21269(11)
O13_2 O 0.6403(3) 0.35210(16) 0.28731(11)
O14_2 O 0.1403(3) 0.85210(16) 0.28731(11)
O15_2 O 0.6097(3) 0.89790(16) 0.28731(11)
O19_2 O 0.3836(3) 0.79009(15) 0.33332(9)
O20_2 O 0.3664(3) 0.95991(15) 0.33332(9)
O22_2 O 0.5243(3) 0.87267(15) 0.18533(9)
O23_2 O 0.2257(3) 0.87733(15) 0.18533(9)
H8_2 H 0.6015 0.8947 0.1940
H9_2 H 0.1485 0.8553 0.1940
H11_2 H 0.5405 0.8206 0.1788
H12_2 H 0.2095 0.9294 0.1788
Er6_2 Er 0.1250 0.1250 0.008680(7)
C2_3 C 0.0906(4) 0.6604(3) 0.03278(16)
H1_3 H 0.1407 0.7110 0.0348
O4_3 O 0.0243(3) 0.87733(15) 0.06467(9)
H2_3 H 0.1015 0.8553 0.0560
H3_3 H 0.0405 0.9294 0.0712
C4_3 C 0.3142(4) 0.5840(2) 0.02974(13)
C7_3 C 0.1594(4) 0.5896(3) 0.03278(16)
H4_3 H 0.1093 0.5390 0.0348
Er4_2 Er 0.6250 0.6250 0.008680(7)
O5_3 O 0.3632(3) 0.51258(16) 0.01740(10)
O8_2 O 0.3868(3) 0.23742(16) 0.01740(10)
O9_3 O 0.3903(3) 0.64790(16) 0.03731(11)
O22_3 O 0.2257(3) 0.37267(15) 0.06467(9)
O23_3 O 0.5243(3) 0.37733(15) 0.06467(9)
H8_3 H 0.1485 0.3947 0.0560
H9_3 H 0.6015 0.3553 0.0560
H11_3 H 0.2095 0.3206 0.0712
H12_3 H 0.5405 0.4294 0.0712
Er2_2 Er 0.3750 0.3750 0.991320(7)
O13_3 O 0.1097(3) 0.85210(16) 0.96269(11)
O14_3 O 0.6097(3) 0.35210(16) 0.96269(11)
O15_3 O 0.1403(3) 0.39790(16) 0.96269(11)
O19_3 O 0.3664(3) 0.29009(15) 0.91668(9)
O20_3 O 0.3836(3) 0.45991(15) 0.91668(9)
C5_3 C 0.8142(4) 0.0840(2) 0.02974(13)
C6_3 C 0.4358(4) 0.1660(2) 0.02974(13)
C8_3 C 0.6594(4) 0.0896(3) 0.03278(16)
C9_3 C 0.5906(4) 0.1604(3) 0.03278(16)
H5_3 H 0.6093 0.0390 0.0348
H6_3 H 0.6407 0.2110 0.0348
O6_3 O 0.8632(3) 0.01258(16) 0.01740(10)
O10_3 O 0.8903(3) 0.14790(16) 0.03731(11)
O11_3 O 0.3597(3) 0.10210(16) 0.03731(11)
C1_3 C 0.9358(4) 0.6660(2) 0.02974(13)
O1_3 O 0.8868(3) 0.73742(16) 0.01740(10)
O2_3 O 0.8597(3) 0.60210(16) 0.03731(11)
O21_3 O 0.7257(3) 0.87267(15) 0.06467(9)
H7_3 H 0.6485 0.8947 0.0560
H10_3 H 0.7095 0.8206 0.0712
C3_2 C 0.8750 0.9244(3) 0.8750
Er1_2 Er 0.8750 0.8750 0.991320(7)
O3_2 O 0.8836(3) 0.95991(15) 0.91668(9)
C10_2 C 0.8750 0.8256(3) 0.8750
Er5_2 Er 0.8750 0.8750 0.758680(7)
O12_3 O 0.6403(3) 0.89790(16) 0.96269(11)
O16_2 O 0.8836(3) 0.79009(15) 0.83332(9)
O17_2 O 0.8664(3) 0.79009(15) 0.91668(9)
O18_2 O 0.8664(3) 0.95991(15) 0.83332(9)
C6_4 C 0.3142(4) 0.1660(2) 0.72026(13)
C8_4 C 0.0906(4) 0.0896(3) 0.71722(16)
C9_4 C 0.1594(4) 0.1604(3) 0.71722(16)
H5_4 H 0.1407 0.0390 0.7152
H6_4 H 0.1093 0.2110 0.7152
Er7_2 Er 0.3750 0.3750 0.758680(7)
Er8_2 Er 0.6250 0.1250 0.741320(7)
O7_2 O 0.3632(3) 0.23742(16) 0.73260(10)
O11_4 O 0.3903(3) 0.10210(16) 0.71269(11)
Er3_2 Er 0.1250 0.6250 0.741320(7)
O12_4 O 0.1097(3) 0.89790(16) 0.78731(11)
O21_4 O 0.0243(3) 0.87267(15) 0.68533(9)
H7_4 H 0.1015 0.8947 0.6940
H10_4 H 0.0405 0.8206 0.6788
C5_4 C 0.9358(4) 0.0840(2) 0.72026(13)
O6_4 O 0.8868(3) 0.01258(16) 0.73260(10)
O10_4 O 0.8597(3) 0.14790(16) 0.71269(11)
C1_4 C 0.8142(4) 0.6660(2) 0.72026(13)
C2_4 C 0.6594(4) 0.6604(3) 0.71722(16)
H1_4 H 0.6093 0.7110 0.7152
O1_4 O 0.8632(3) 0.73742(16) 0.73260(10)
O2_4 O 0.8903(3) 0.60210(16) 0.71269(11)
O4_4 O 0.7257(3) 0.87733(15) 0.68533(9)
H2_4 H 0.6485 0.8553 0.6940
H3_4 H 0.7095 0.9294 0.6788
C4_4 C 0.4358(4) 0.5840(2) 0.72026(13)
C7_4 C 0.5906(4) 0.5896(3) 0.71722(16)
H4_4 H 0.6407 0.5390 0.7152
O5_4 O 0.3868(3) 0.51258(16) 0.73260(10)
O9_4 O 0.3597(3) 0.64790(16) 0.71269(11)
O13_4 O 0.6403(3) 0.85210(16) 0.78731(11)
O14_4 O 0.1403(3) 0.35210(16) 0.78731(11)
O15_4 O 0.6097(3) 0.39790(16) 0.78731(11)
O19_4 O 0.3836(3) 0.29009(15) 0.83332(9)
O20_4 O 0.3664(3) 0.45991(15) 0.83332(9)
O22_4 O 0.5243(3) 0.37267(15) 0.68533(9)
O23_4 O 0.2257(3) 0.37733(15) 0.68533(9)
H8_4 H 0.6015 0.3947 0.6940
H9_4 H 0.1485 0.3553 0.6940
H11_4 H 0.5405 0.3206 0.6788
H12_4 H 0.2095 0.4294 0.6788
C3_3 C 0.3750 0.4244(3) 0.8750
C10_3 C 0.3750 0.3256(3) 0.8750
C3_4 C 0.3750 0.9244(3) 0.3750
C10_4 C 0.3750 0.8256(3) 0.3750
C1_5 C 0.0642(4) 0.8340(2) 0.47026(13)
C3_5 C 0.1250 0.5756(3) 0.6250
O1_5 O 0.1132(3) 0.76258(16) 0.48260(10)
O3_3 O 0.1164(3) 0.54009(15) 0.58332(9)
C5_5 C 0.1858(4) 0.4160(2) 0.47026(13)
C6_5 C 0.5642(4) 0.3340(2) 0.47026(13)
C8_5 C 0.3406(4) 0.4104(3) 0.46722(16)
C9_5 C 0.4094(4) 0.3396(3) 0.46722(16)
H5_5 H 0.3907 0.4610 0.4652
H6_5 H 0.3593 0.2890 0.4652
C10_5 C 0.1250 0.6744(3) 0.6250
O6_5 O 0.1368(3) 0.48742(16) 0.48260(10)
O7_3 O 0.6132(3) 0.26258(16) 0.48260(10)
O16_3 O 0.1164(3) 0.70991(15) 0.66668(9)
O17_3 O 0.1336(3) 0.70991(15) 0.58332(9)
O18_3 O 0.1336(3) 0.54009(15) 0.66668(9)
O21_5 O 0.2743(3) 0.62733(15) 0.43533(9)
H7_5 H 0.3515 0.6053 0.4440
H10_5 H 0.2905 0.6794 0.4288
O19_5 O 0.6336(3) 0.20991(15) 0.58332(9)
O20_5 O 0.6164(3) 0.04009(15) 0.58332(9)
O22_5 O 0.7743(3) 0.12733(15) 0.43533(9)
O23_5 O 0.4757(3) 0.12267(15) 0.43533(9)
H8_5 H 0.8515 0.1053 0.4440
H9_5 H 0.3985 0.1447 0.4440
H11_5 H 0.7905 0.1794 0.4288
H12_5 H 0.4595 0.0706 0.4288
C2_5 C 0.9094(4) 0.8396(3) 0.46722(16)
H1_5 H 0.8593 0.7890 0.4652
O4_5 O 0.9757(3) 0.62267(15) 0.43533(9)
H2_5 H 0.8985 0.6447 0.4440
H3_5 H 0.9595 0.5706 0.4288
C4_5 C 0.6858(4) 0.9160(2) 0.47026(13)
C7_5 C 0.8406(4) 0.9104(3) 0.46722(16)
H4_5 H 0.8907 0.9610 0.4652
O5_5 O 0.6368(3) 0.98742(16) 0.48260(10)
O8_3 O 0.6368(3) 0.26258(16) 0.76740(10)
O19_6 O 0.6164(3) 0.20991(15) 0.66668(9)
O20_6 O 0.6336(3) 0.04009(15) 0.66668(9)
O22_6 O 0.4757(3) 0.12733(15) 0.81467(9)
O23_6 O 0.7743(3) 0.12267(15) 0.81467(9)
H8_6 H 0.3985 0.1053 0.8060
H9_6 H 0.8515 0.1447 0.8060
H11_6 H 0.4595 0.1794 0.8212
H12_6 H 0.7905 0.0706 0.8212
C1_6 C 0.1858(4) 0.8340(2) 0.77974(13)
C2_6 C 0.3406(4) 0.8396(3) 0.78278(16)
H1_6 H 0.3907 0.7890 0.7848
O1_6 O 0.1368(3) 0.76258(16) 0.76740(10)
O4_6 O 0.2743(3) 0.62267(15) 0.81467(9)
H2_6 H 0.3515 0.6447 0.8060
H3_6 H 0.2905 0.5706 0.8212
C4_6 C 0.5642(4) 0.9160(2) 0.77974(13)
C5_6 C 0.0642(4) 0.4160(2) 0.77974(13)
C7_6 C 0.4094(4) 0.9104(3) 0.78278(16)
H4_6 H 0.3593 0.9610 0.7848
O5_6 O 0.6132(3) 0.98742(16) 0.76740(10)
O6_6 O 0.1132(3) 0.48742(16) 0.76740(10)
C6_6 C 0.6858(4) 0.3340(2) 0.77974(13)
C8_6 C 0.9094(4) 0.4104(3) 0.78278(16)
C9_6 C 0.8406(4) 0.3396(3) 0.78278(16)
H5_6 H 0.8593 0.4610 0.7848
H6_6 H 0.8907 0.2890 0.7848
O21_6 O 0.9757(3) 0.62733(15) 0.81467(9)
H7_6 H 0.8985 0.6053 0.8060
H10_6 H 0.9595 0.6794 0.8212
C3_6 C 0.1250 0.0756(3) 0.1250
O3_4 O 0.1164(3) 0.04009(15) 0.08332(9)
C10_6 C 0.1250 0.1744(3) 0.1250
O16_4 O 0.1164(3) 0.20991(15) 0.16668(9)
O17_4 O 0.1336(3) 0.20991(15) 0.08332(9)
O18_4 O 0.1336(3) 0.04009(15) 0.16668(9)
C1_7 C 0.0642(4) 0.3340(2) 0.97026(13)
O1_7 O 0.1132(3) 0.26258(16) 0.98260(10)
O21_7 O 0.2743(3) 0.12733(15) 0.93533(9)
H7_7 H 0.3515 0.1053 0.9440
H10_7 H 0.2905 0.1794 0.9288
C5_7 C 0.1858(4) 0.9160(2) 0.97026(13)
C6_7 C 0.5642(4) 0.8340(2) 0.97026(13)
C8_7 C 0.3406(4) 0.9104(3) 0.96722(16)
C9_7 C 0.4094(4) 0.8396(3) 0.96722(16)
H5_7 H 0.3907 0.9610 0.9652
H6_7 H 0.3593 0.7890 0.9652
O6_7 O 0.1368(3) 0.98742(16) 0.98260(10)
O7_4 O 0.6132(3) 0.76258(16) 0.98260(10)
O19_7 O 0.6336(3) 0.70991(15) 0.08332(9)
O20_7 O 0.6164(3) 0.54009(15) 0.08332(9)
C2_7 C 0.9094(4) 0.3396(3) 0.96722(16)
H1_7 H 0.8593 0.2890 0.9652
O4_7 O 0.9757(3) 0.12267(15) 0.93533(9)
H2_7 H 0.8985 0.1447 0.9440
H3_7 H 0.9595 0.0706 0.9288
C4_7 C 0.6858(4) 0.4160(2) 0.97026(13)
C7_7 C 0.8406(4) 0.4104(3) 0.96722(16)
H4_7 H 0.8907 0.4610 0.9652
O5_7 O 0.6368(3) 0.48742(16) 0.98260(10)
O22_7 O 0.7743(3) 0.62733(15) 0.93533(9)
O23_7 O 0.4757(3) 0.62267(15) 0.93533(9)
H8_7 H 0.8515 0.6053 0.9440
H9_7 H 0.3985 0.6447 0.9440
H11_7 H 0.7905 0.6794 0.9288
H12_7 H 0.4595 0.5706 0.9288
C1_8 C 0.1858(4) 0.3340(2) 0.27974(13)
C2_8 C 0.3406(4) 0.3396(3) 0.28278(16)
H1_8 H 0.3907 0.2890 0.2848
O1_8 O 0.1368(3) 0.26258(16) 0.26740(10)
O4_8 O 0.2743(3) 0.12267(15) 0.31467(9)
H2_8 H 0.3515 0.1447 0.3060
H3_8 H 0.2905 0.0706 0.3212
C4_8 C 0.5642(4) 0.4160(2) 0.27974(13)
C7_8 C 0.4094(4) 0.4104(3) 0.28278(16)
H4_8 H 0.3593 0.4610 0.2848
O5_8 O 0.6132(3) 0.48742(16) 0.26740(10)
O8_4 O 0.6368(3) 0.76258(16) 0.26740(10)
O19_8 O 0.6164(3) 0.70991(15) 0.16668(9)
O20_8 O 0.6336(3) 0.54009(15) 0.16668(9)
O22_8 O 0.4757(3) 0.62733(15) 0.31467(9)
O23_8 O 0.7743(3) 0.62267(15) 0.31467(9)
H8_8 H 0.3985 0.6053 0.3060
H9_8 H 0.8515 0.6447 0.3060
H11_8 H 0.4595 0.6794 0.3212
H12_8 H 0.7905 0.5706 0.3212
C5_8 C 0.0642(4) 0.9160(2) 0.27974(13)
O6_8 O 0.1132(3) 0.98742(16) 0.26740(10)
O21_8 O 0.9757(3) 0.12733(15) 0.31467(9)
H7_8 H 0.8985 0.1053 0.3060
H10_8 H 0.9595 0.1794 0.3212
C6_8 C 0.6858(4) 0.8340(2) 0.27974(13)
C8_8 C 0.9094(4) 0.9104(3) 0.28278(16)
C9_8 C 0.8406(4) 0.8396(3) 0.28278(16)
H5_8 H 0.8593 0.9610 0.2848
H6_8 H 0.8907 0.7890 0.2848
C3_7 C 0.6250 0.5756(3) 0.1250
C10_7 C 0.6250 0.6744(3) 0.1250
C3_8 C 0.6250 0.0756(3) 0.6250
C10_8 C 0.6250 0.1744(3) 0.6250
loop_
_geom_bond_atom_site_label_1
_geom_bond_atom_site_label_2
_geom_bond_site_symmetry_1
_geom_bond_site_symmetry_2
C2 H1 1_555 1_555
H2 O4 1_555 1_555
H3 O4 1_555 1_555
C4 C7 1_555 1_555
C7 C2 1_555 1_555
H4 C7 1_555 1_555
Er4 O9 1_555 1_555
O5 C4 1_555 1_555
O9 C4 1_555 1_555
O8 Er2 1_555 1_555
O14 Er2 1_555 1_555
O15 Er2 1_555 1_555
O19 Er2 1_555 1_555
O20 Er2 1_555 1_555
O22 Er2 1_555 1_555
O23 Er2 1_555 1_555
H8 O22 1_555 1_555
H9 O23 1_555 1_555
H11 O22 1_555 1_555
H12 O23 1_555 1_555
C3 O3 1_555 1_555
Er1 O1 1_555 1_555
O1 C1 1_555 1_555
O2 C1 1_555 1_555
O3 Er1 1_555 1_555
C5 C8 1_555 1_555
C6 C9 1_555 1_555
C8 C9 1_555 1_555
C9 H6 1_555 1_555
H5 C8 1_555 1_555
C10 C3 1_555 1_555
Er4 O2 1_555 1_555
Er5 O16 1_555 1_555
Er6 O11 1_555 1_555
O6 Er1 1_555 1_555
O8 C6 1_555 1_555
O10 C5 1_555 1_555
O11 C6 1_555 1_555
O12 Er1 1_555 1_555
O16 C10 1_555 1_555
O17 Er1 1_555 1_555
O18 C3 1_555 1_555
O21 Er1 1_555 1_555
H7 O21 1_555 1_555
H10 O21 1_555 1_555
C5 O6 1_555 1_555
C10 O17 1_555 1_555
Er5 O18 1_555 1_555
C6_2 C9_2 1_555 1_555
C8_2 C9_2 1_555 1_555
C9_2 H6_2 1_555 1_555
H5_2 C8_2 1_555 1_555
Er7 O7 1_555 1_555
Er8 O11_2 1_555 1_555
O7 C6_2 1_555 1_555
O11_2 C6_2 1_555 1_555
H7_2 O21_2 1_555 1_555
H10_2 O21_2 1_555 1_555
C1_2 C2_2 1_555 1_555
C2_2 H1_2 1_555 1_555
Er5 O1_2 1_555 1_555
O1_2 C1_2 1_555 1_555
O2_2 C1_2 1_555 1_555
O4_2 Er5 1_555 1_555
H2_2 O4_2 1_555 1_555
H3_2 O4_2 1_555 1_555
C4_2 C7_2 1_555 1_555
C7_2 C2_2 1_555 1_555
H4_2 C7_2 1_555 1_555
Er3 O9_2 1_555 1_555
Er8 O10_2 1_555 1_555
O5_2 C4_2 1_555 1_555
O6_2 Er5 1_555 1_555
O9_2 C4_2 1_555 1_555
O10_2 C5_2 1_555 1_555
O13_2 Er5 1_555 1_555
C5_2 O6_2 1_555 1_555
O14_2 Er7 1_555 1_555
O15_2 Er7 1_555 1_555
O19_2 Er7 1_555 1_555
O20_2 Er7 1_555 1_555
O22_2 Er7 1_555 1_555
O23_2 Er7 1_555 1_555
H8_2 O22_2 1_555 1_555
H9_2 O23_2 1_555 1_555
H11_2 O22_2 1_555 1_555
H12_2 O23_2 1_555 1_555
C2_3 H1_3 1_555 1_555
H2_3 O4_3 1_555 1_555
H3_3 O4_3 1_555 1_555
C4_3 C7_3 1_555 1_555
C7_3 C2_3 1_555 1_555
H4_3 C7_3 1_555 1_555
Er4_2 O9_3 1_555 1_555
O5_3 C4_3 1_555 1_555
O9_3 C4_3 1_555 1_555
H8_3 O22_3 1_555 1_555
H9_3 O23_3 1_555 1_555
H11_3 O22_3 1_555 1_555
H12_3 O23_3 1_555 1_555
O14_3 Er2_2 1_555 1_555
O15_3 Er2_2 1_555 1_555
O19_3 Er2_2 1_555 1_555
O20_3 Er2_2 1_555 1_555
C5_3 C8_3 1_555 1_555
C6_3 C9_3 1_555 1_555
C8_3 C9_3 1_555 1_555
C9_3 H6_3 1_555 1_555
H5_3 C8_3 1_555 1_555
Er6_2 O11_3 1_555 1_555
O8_2 C6_3 1_555 1_555
O10_3 C5_3 1_555 1_555
O11_3 C6_3 1_555 1_555
C5_3 O6_3 1_555 1_555
O1_3 C1_3 1_555 1_555
O2_3 C1_3 1_555 1_555
Er4_2 O2_3 1_555 1_555
H7_3 O21_3 1_555 1_555
H10_3 O21_3 1_555 1_555
C3_2 O3_2 1_555 1_555
O3_2 Er1_2 1_555 1_555
C10_2 C3_2 1_555 1_555
Er5_2 O16_2 1_555 1_555
O12_3 Er1_2 1_555 1_555
O16_2 C10_2 1_555 1_555
O17_2 Er1_2 1_555 1_555
O18_2 C3_2 1_555 1_555
C10_2 O17_2 1_555 1_555
Er5_2 O18_2 1_555 1_555
C6_4 C9_4 1_555 1_555
C8_4 C9_4 1_555 1_555
C9_4 H6_4 1_555 1_555
H5_4 C8_4 1_555 1_555
Er7_2 O7_2 1_555 1_555
Er8_2 O11_4 1_555 1_555
O7_2 C6_4 1_555 1_555
O11_4 C6_4 1_555 1_555
H7_4 O21_4 1_555 1_555
H10_4 O21_4 1_555 1_555
Er8_2 O10_4 1_555 1_555
O10_4 C5_4 1_555 1_555
C5_4 O6_4 1_555 1_555
C1_4 C2_4 1_555 1_555
C2_4 H1_4 1_555 1_555
Er5_2 O1_4 1_555 1_555
O1_4 C1_4 1_555 1_555
O2_4 C1_4 1_555 1_555
O4_4 Er5_2 1_555 1_555
H2_4 O4_4 1_555 1_555
H3_4 O4_4 1_555 1_555
C4_4 C7_4 1_555 1_555
C7_4 C2_4 1_555 1_555
H4_4 C7_4 1_555 1_555
Er7_2 O5_4 1_555 1_555
Er3_2 O9_4 1_555 1_555
O5_4 C4_4 1_555 1_555
O9_4 C4_4 1_555 1_555
O13_4 Er5_2 1_555 1_555
O14_4 Er7_2 1_555 1_555
O15_4 Er7_2 1_555 1_555
O19_4 Er7_2 1_555 1_555
O20_4 Er7_2 1_555 1_555
O22_4 Er7_2 1_555 1_555
O23_4 Er7_2 1_555 1_555
H8_4 O22_4 1_555 1_555
H9_4 O23_4 1_555 1_555
H11_4 O22_4 1_555 1_555
H12_4 O23_4 1_555 1_555
C3_3 O20_3 1_555 1_555
C10_3 C3_3 1_555 1_555
O19_4 C10_3 1_555 1_555
O20_4 C3_3 1_555 1_555
C10_3 O19_3 1_555 1_555
C3_4 O20 1_555 1_555
C10_4 C3_4 1_555 1_555
O19_2 C10_4 1_555 1_555
O20_2 C3_4 1_555 1_555
C10_4 O19 1_555 1_555
C3_5 O3_3 1_555 1_555
Er6 O1_5 1_555 1_555
O1_5 C1_5 1_555 1_555
O15 C1_5 1_555 1_555
O3_3 Er6 1_555 1_555
C5_5 C8_5 1_555 1_555
C6_5 C9_5 1_555 1_555
C8_5 C9_5 1_555 1_555
C9_5 H6_5 1_555 1_555
H5_5 C8_5 1_555 1_555
C10_5 C3_5 1_555 1_555
Er3_2 O16_3 1_555 1_555
Er4 O7_3 1_555 1_555
O6_5 Er6 1_555 1_555
O7_3 C6_5 1_555 1_555
O13 C5_5 1_555 1_555
O12 C6_5 1_555 1_555
O16_3 C10_5 1_555 1_555
O17_3 Er6 1_555 1_555
O18_3 C3_5 1_555 1_555
O21_5 Er6 1_555 1_555
H7_5 O21_5 1_555 1_555
H10_5 O21_5 1_555 1_555
C5_5 O6_5 1_555 1_555
C10_5 O17_3 1_555 1_555
Er3_2 O18_3 1_555 1_555
O19_5 Er4 1_555 1_555
O20_5 Er4 1_555 1_555
O22_5 Er4 1_555 1_555
O23_5 Er4 1_555 1_555
H8_5 O22_5 1_555 1_555
H9_5 O23_5 1_555 1_555
H11_5 O22_5 1_555 1_555
H12_5 O23_5 1_555 1_555
C2_5 H1_5 1_555 1_555
H2_5 O4_5 1_555 1_555
H3_5 O4_5 1_555 1_555
C4_5 C7_5 1_555 1_555
C7_5 C2_5 1_555 1_555
H4_5 C7_5 1_555 1_555
O5_5 C4_5 1_555 1_555
O14 C4_5 1_555 1_555
O8_3 Er8_2 1_555 1_555
O19_6 Er8_2 1_555 1_555
O20_6 Er8_2 1_555 1_555
O22_6 Er8_2 1_555 1_555
O23_6 Er8_2 1_555 1_555
H8_6 O22_6 1_555 1_555
H9_6 O23_6 1_555 1_555
H11_6 O22_6 1_555 1_555
H12_6 O23_6 1_555 1_555
C1_6 C2_6 1_555 1_555
C2_6 H1_6 1_555 1_555
Er3_2 O1_6 1_555 1_555
O1_6 C1_6 1_555 1_555
O12_4 C1_6 1_555 1_555
O4_6 Er3_2 1_555 1_555
H2_6 O4_6 1_555 1_555
H3_6 O4_6 1_555 1_555
C4_6 C7_6 1_555 1_555
C7_6 C2_6 1_555 1_555
H4_6 C7_6 1_555 1_555
O5_6 C4_6 1_555 1_555
O6_6 Er3_2 1_555 1_555
O13_4 C4_6 1_555 1_555
O14_4 C5_6 1_555 1_555
C5_6 O6_6 1_555 1_555
C6_6 C9_6 1_555 1_555
C8_6 C9_6 1_555 1_555
C9_6 H6_6 1_555 1_555
H5_6 C8_6 1_555 1_555
O8_3 C6_6 1_555 1_555
O15_4 C6_6 1_555 1_555
H7_6 O21_6 1_555 1_555
H10_6 O21_6 1_555 1_555
C3_6 O3_4 1_555 1_555
O3_4 Er6_2 1_555 1_555
C10_6 C3_6 1_555 1_555
Er3 O16_4 1_555 1_555
O16_4 C10_6 1_555 1_555
O17_4 Er6_2 1_555 1_555
O18_4 C3_6 1_555 1_555
C10_6 O17_4 1_555 1_555
Er3 O18_4 1_555 1_555
O1_7 C1_7 1_555 1_555
O15_3 C1_7 1_555 1_555
H7_7 O21_7 1_555 1_555
H10_7 O21_7 1_555 1_555
C5_7 C8_7 1_555 1_555
C6_7 C9_7 1_555 1_555
C8_7 C9_7 1_555 1_555
C9_7 H6_7 1_555 1_555
H5_7 C8_7 1_555 1_555
O7_4 C6_7 1_555 1_555
O13_3 C5_7 1_555 1_555
O12_3 C6_7 1_555 1_555
C5_7 O6_7 1_555 1_555
O19_7 Er4_2 1_555 1_555
O20_7 Er4_2 1_555 1_555
C2_7 H1_7 1_555 1_555
H2_7 O4_7 1_555 1_555
H3_7 O4_7 1_555 1_555
C4_7 C7_7 1_555 1_555
C7_7 C2_7 1_555 1_555
H4_7 C7_7 1_555 1_555
O5_7 C4_7 1_555 1_555
O14_3 C4_7 1_555 1_555
H8_7 O22_7 1_555 1_555
H9_7 O23_7 1_555 1_555
H11_7 O22_7 1_555 1_555
H12_7 O23_7 1_555 1_555
C1_8 C2_8 1_555 1_555
C2_8 H1_8 1_555 1_555
Er3 O1_8 1_555 1_555
O1_8 C1_8 1_555 1_555
O12_2 C1_8 1_555 1_555
O4_8 Er3 1_555 1_555
H2_8 O4_8 1_555 1_555
H3_8 O4_8 1_555 1_555
C4_8 C7_8 1_555 1_555
C7_8 C2_8 1_555 1_555
H4_8 C7_8 1_555 1_555
Er8 O5_8 1_555 1_555
O5_8 C4_8 1_555 1_555
O8_4 Er8 1_555 1_555
O13_2 C4_8 1_555 1_555
O19_8 Er8 1_555 1_555
O20_8 Er8 1_555 1_555
O22_8 Er8 1_555 1_555
O23_8 Er8 1_555 1_555
H8_8 O22_8 1_555 1_555
H9_8 O23_8 1_555 1_555
H11_8 O22_8 1_555 1_555
H12_8 O23_8 1_555 1_555
O14_2 C5_8 1_555 1_555
C5_8 O6_8 1_555 1_555
H7_8 O21_8 1_555 1_555
H10_8 O21_8 1_555 1_555
C6_8 C9_8 1_555 1_555
C8_8 C9_8 1_555 1_555
C9_8 H6_8 1_555 1_555
H5_8 C8_8 1_555 1_555
O8_4 C6_8 1_555 1_555
O15_2 C6_8 1_555 1_555
C3_7 O20_7 1_555 1_555
C10_7 C3_7 1_555 1_555
O19_8 C10_7 1_555 1_555
O20_8 C3_7 1_555 1_555
C10_7 O19_7 1_555 1_555
C3_8 O20_5 1_555 1_555
C10_8 C3_8 1_555 1_555
O19_6 C10_8 1_555 1_555
O20_6 C3_8 1_555 1_555
C10_8 O19_5 1_555 1_555

#END
