
###############################################################################
#
# This file contains modified crystal structure data generated from the
# MOF subset of the Cambridge Structural Database (CSD) v543 
# hosted by the Cambridge Crystallographic Data Centre (CCDC).
#
# This work is licensed under the Creative Commons
# Attribution-NonCommercial-ShareAlike 4.0 International License.
# To view a copy of this license, visit
# http://creativecommons.org/licenses/by-nc-sa/4.0/
# or send a letter to
# Creative Commons, PO Box 1866, Mountain View, CA 94042, USA.
#
# CIF created using the CSD Python API on 29 September 2022
# The structure has been converted into the P1 space group
# The structure has a 3D framework
# The original CSD entry NEPZIU is in the cubic crystal system
# The framework has been calculated to contain at least 10.0% void space
# The void calculation uses a probe of radius 1.32A, grid spacing 0.4
#
###############################################################################

data_NEPZIU
_chemical_formula_moiety         '(C1344 H1440 N192 Ni96 O720 S48)n'
_symmetry_cell_setting           triclinic
_symmetry_space_group_name_H-M   'P 1'
_symmetry_Int_Tables_number      1
_space_group_name_Hall           'P 1'
loop_
_symmetry_equiv_pos_site_id
_symmetry_equiv_pos_as_xyz
1 x,y,z
_cell_length_a                   39.7584(2)
_cell_length_b                   39.7584(2)
_cell_length_c                   39.7584(2)
_cell_angle_alpha                90
_cell_angle_beta                 90
_cell_angle_gamma                90
_cell_volume                     62847.3
loop_
_atom_site_label
_atom_site_type_symbol
_atom_site_fract_x
_atom_site_fract_y
_atom_site_fract_z
O6 O 0.79107(9) 0.75008(12) 0.00021(8)
H5 H 0.800414 0.759619 0.016961
C4 C 0.54089(10) 0.71189(15) 0.05174(10)
H7 H 0.544370 0.717435 0.074197
C7 C 0.56705(11) 0.71222(15) 0.02741(10)
H9 H 0.589093 0.718784 0.031691
C10 C 0.51080(10) 0.70292(15) 0.03958(9)
O9 O 0.45200(8) 0.69678(13) 0.03831(8)
N2 N 0.47641(8) 0.70612(12) 0.08883(8)
H11 H 0.495425 0.705205 0.099101
C14 C 0.47676(10) 0.70137(14) 0.05496(10)
C15 C 0.44746(9) 0.71246(13) 0.10873(10)
C16 C 0.39390(9) 0.72916(10) 0.15066(9)
H12 H 0.376216 0.735139 0.164754
C17 C 0.39147(8) 0.73441(11) 0.11638(9)
C18 C 0.44953(10) 0.70651(13) 0.14298(10)
H13 H 0.468816 0.696856 0.152034
C19 C 0.41824(9) 0.72595(13) 0.09502(9)
H14 H 0.416468 0.729317 0.071943
C20 C 0.42272(10) 0.71499(12) 0.16385(9)
C21 C 0.42464(9) 0.70887(11) 0.20096(9)
C22 C 0.36000(9) 0.74994(11) 0.10194(9)
O11 O 0.40230(7) 0.72203(7) 0.21851(6)
O12 O 0.33586(6) 0.75390(7) 0.12098(6)
O13 O 0.36147(8) 0.75811(12) 0.07150(8)
O14 O 0.44843(9) 0.69042(14) 0.21126(8)
C25 C 0.8938(3) 0.8465(2) 0.0101(5)
H18 H 0.917501 0.850276 0.007454
H19 H 0.885769 0.858726 0.029281
C26 C 0.9125(3) 0.7916(3) 0.0349(2)
H20 H 0.906420 0.792394 0.058217
H21 H 0.934193 0.801727 0.031830
H22 H 0.913194 0.768638 0.027484
C28 C 0.8570(6) 0.6332(5) 0.0069(5)
H26 H 0.837003 0.643898 0.015217
H27 H 0.875814 0.639514 0.020622
H28 H 0.854152 0.609188 0.007746
N4 N 0.88757(15) 0.81001(16) 0.01515(16)
Ni3 Ni 0.28647(2) 0.76539(2) 0.11456(2)
Ni4 Ni 0.38544(2) 0.71353(2) 0.26539(2)
Ni6 Ni 0.32538(2) 0.75709(2) 0.03637(2)
Ni7 Ni 0.46363(2) 0.67462(2) 0.25709(2)
Ni1 Ni 0.78647(2) 0.73461(2) 0.88544(2)
Ni2 Ni 0.82538(2) 0.74291(2) 0.96363(2)
S1 S 0.51299(3) 0.69224(5) 0.99762(3)
O1 O 0.79210(7) 0.71853(6) 0.93452(6)
O2 O 0.73500(6) 0.72413(7) 0.88758(6)
O3 O 0.77876(7) 0.75227(7) 0.83700(6)
H1 H 0.787407 0.770496 0.828578
H2 H 0.766356 0.742608 0.821814
O4 O 0.84422(9) 0.69712(7) 0.98095(7)
O5 O 0.72859(8) 0.72155(17) 0.94312(8)
C1 C 0.71731(9) 0.72071(14) 0.91350(10)
C2 C 0.65937(10) 0.71236(13) 0.93658(9)
H3 H 0.668351 0.714804 0.958038
H4 H 0.775386 0.762669 0.992706
N1 N 0.60489(8) 0.70561(13) 0.96220(8)
H6 H 0.614254 0.711657 0.980740
C3 C 0.68035(9) 0.71502(12) 0.90856(9)
C5 C 0.66674(8) 0.71147(11) 0.87655(8)
H8 H 0.680352 0.713807 0.857668
C6 C 0.55539(10) 0.70152(17) 0.99673(10)
O7 O 0.55545(9) 0.68661(18) 0.93972(9)
C8 C 0.62516(9) 0.70607(14) 0.93274(10)
C9 C 0.57206(11) 0.69643(18) 0.96357(11)
C11 C 0.61185(9) 0.70203(14) 0.90089(9)
H10 H 0.589029 0.697705 0.898123
C12 C 0.61644(10) 0.70157(13) 0.83873(9)
C13 C 0.63290(9) 0.70446(12) 0.87290(8)
O8 O 0.63396(5) 0.70740(6) 0.81324(5)
O10 O 0.58564(8) 0.69423(16) 0.83893(8)
O15 O 0.86080(11) 0.76432(9) 0.99591(8)
C23 C 0.86562(16) 0.79389(15) 0.99614(17)
H15 H 0.852698 0.806846 0.981560
N3 N 0.8637(3) 0.6448(2) 0.9683(4)
C24 C 0.8548(2) 0.6756(2) 0.9612(2)
H16 H 0.856771 0.682071 0.938824
H17 H 0.882184 0.853940 0.990307
C27 C 0.8779(4) 0.6242(4) 0.9392(5)
H23 H 0.860949 0.609262 0.930819
H24 H 0.896868 0.611393 0.946944
H25 H 0.884992 0.639101 0.921529
H29 H 0.7761(17) 0.7154(17) 0.9394(17)
H30 H 0.804(3) 0.7014(18) 0.940(3)
Ni5 Ni 0.61456(2) 0.71353(2) 0.76539(2)
O16 O 0.79260(6) 0.68676(5) 0.86604(5)
O17 O 0.77797(7) 0.78149(6) 0.90230(7)
O18 O 0.83586(6) 0.74610(7) 0.87902(6)
O19 O 0.86147(8) 0.74189(12) 0.92850(8)
O20 O 0.80958(14) 0.78874(8) 0.94843(9)
O9_2 O 0.04800(8) 0.30322(13) 0.53831(8)
N2_2 N 0.02359(8) 0.29388(12) 0.58883(8)
H11_2 H 0.004575 0.294795 0.599101
C14_2 C 0.02324(10) 0.29863(14) 0.55496(10)
C15_2 C 0.05254(9) 0.28754(13) 0.60873(10)
C16_2 C 0.10610(9) 0.27084(10) 0.65066(9)
H12_2 H 0.123784 0.264861 0.664754
C17_2 C 0.10853(8) 0.26559(11) 0.61638(9)
C18_2 C 0.05047(10) 0.29349(13) 0.64298(10)
H13_2 H 0.031184 0.303144 0.652034
C19_2 C 0.08176(9) 0.27405(13) 0.59502(9)
H14_2 H 0.083532 0.270683 0.571943
C20_2 C 0.07728(10) 0.28501(12) 0.66385(9)
C21_2 C 0.07536(9) 0.29113(11) 0.70096(9)
C22_2 C 0.14000(9) 0.25006(11) 0.60194(9)
O11_2 O 0.09770(7) 0.27797(7) 0.71851(6)
O12_2 O 0.16414(6) 0.24610(7) 0.62098(6)
O13_2 O 0.13853(8) 0.24189(12) 0.57150(8)
O14_2 O 0.05157(9) 0.30958(14) 0.71126(8)
Ni3_2 Ni 0.21353(2) 0.23461(2) 0.61456(2)
Ni4_2 Ni 0.11456(2) 0.28647(2) 0.76539(2)
Ni6_2 Ni 0.17462(2) 0.24291(2) 0.53637(2)
Ni7_2 Ni 0.03637(2) 0.32538(2) 0.75709(2)
Ni1_2 Ni 0.71353(2) 0.26539(2) 0.38544(2)
Ni2_2 Ni 0.67462(2) 0.25709(2) 0.46363(2)
S1_2 S 0.98701(3) 0.30776(5) 0.49762(3)
O1_2 O 0.70790(7) 0.28147(6) 0.43452(6)
O2_2 O 0.76500(6) 0.27587(7) 0.38758(6)
O3_2 O 0.72124(7) 0.24773(7) 0.33700(6)
H1_2 H 0.712593 0.229504 0.328578
H2_2 H 0.733644 0.257392 0.321814
O4_2 O 0.65578(9) 0.30288(7) 0.48095(7)
O5_2 O 0.77141(8) 0.27845(17) 0.44312(8)
C1_2 C 0.78269(9) 0.27929(14) 0.41350(10)
C2_2 C 0.84063(10) 0.28764(13) 0.43658(9)
H3_2 H 0.831649 0.285196 0.458038
O6_2 O 0.70893(9) 0.24992(12) 0.50021(8)
H4_2 H 0.724614 0.237331 0.492706
H5_2 H 0.699586 0.240381 0.516961
N1_2 N 0.89511(8) 0.29439(13) 0.46220(8)
H6_2 H 0.885746 0.288343 0.480740
C3_2 C 0.81965(9) 0.28498(12) 0.40856(9)
C4_2 C 0.95911(10) 0.28811(15) 0.55174(10)
H7_2 H 0.955630 0.282565 0.574197
C5_2 C 0.83326(8) 0.28853(11) 0.37655(8)
H8_2 H 0.819648 0.286193 0.357668
C6_2 C 0.94461(10) 0.29848(17) 0.49673(10)
C7_2 C 0.93295(11) 0.28778(15) 0.52741(10)
H9_2 H 0.910907 0.281216 0.531691
O7_2 O 0.94455(9) 0.31339(18) 0.43972(9)
C8_2 C 0.87484(9) 0.29393(14) 0.43274(10)
C9_2 C 0.92794(11) 0.30357(18) 0.46357(11)
C10_2 C 0.98920(10) 0.29708(15) 0.53958(9)
C11_2 C 0.88815(9) 0.29797(14) 0.40089(9)
H10_2 H 0.910971 0.302295 0.398123
C12_2 C 0.88356(10) 0.29843(13) 0.33873(9)
C13_2 C 0.86710(9) 0.29554(12) 0.37290(8)
O8_2 O 0.86604(5) 0.29260(6) 0.31324(5)
O10_2 O 0.91436(8) 0.30577(16) 0.33893(8)
O15_2 O 0.63920(11) 0.23568(9) 0.49591(8)
C23_2 C 0.63438(16) 0.20611(15) 0.49614(17)
H15_2 H 0.647302 0.193154 0.481560
N3_2 N 0.6363(3) 0.3552(2) 0.4683(4)
C24_2 C 0.6452(2) 0.3244(2) 0.4612(2)
H16_2 H 0.643229 0.317929 0.438824
C25_2 C 0.6062(3) 0.1535(2) 0.5101(5)
H17_2 H 0.617816 0.146060 0.490307
H18_2 H 0.582499 0.149724 0.507454
H19_2 H 0.614231 0.141274 0.529281
C26_2 C 0.5875(3) 0.2084(3) 0.5349(2)
H20_2 H 0.593580 0.207606 0.558217
H21_2 H 0.565807 0.198273 0.531830
H22_2 H 0.586806 0.231362 0.527484
C27_2 C 0.6221(4) 0.3758(4) 0.4392(5)
H23_2 H 0.639051 0.390738 0.430819
H24_2 H 0.603132 0.388607 0.446944
H25_2 H 0.615008 0.360899 0.421529
C28_2 C 0.6430(6) 0.3668(5) 0.5069(5)
H26_2 H 0.662997 0.356102 0.515217
H27_2 H 0.624186 0.360486 0.520622
H28_2 H 0.645848 0.390812 0.507746
N4_2 N 0.61243(15) 0.18999(16) 0.51515(16)
H29_2 H 0.7239(17) 0.2846(17) 0.4394(17)
H30_2 H 0.696(3) 0.2986(18) 0.440(3)
Ni5_2 Ni 0.88544(2) 0.28647(2) 0.26539(2)
O16_2 O 0.70740(6) 0.31324(5) 0.36604(5)
O17_2 O 0.72203(7) 0.21851(6) 0.40230(7)
O18_2 O 0.66414(6) 0.25390(7) 0.37902(6)
O19_2 O 0.63853(8) 0.25811(12) 0.42850(8)
O20_2 O 0.69042(14) 0.21126(8) 0.44843(9)
S1_3 S 0.48701(3) 0.19224(5) 0.50238(3)
O1_3 O 0.20790(7) 0.21853(6) 0.56548(6)
O2_3 O 0.26500(6) 0.22413(7) 0.61242(6)
O3_3 O 0.22124(7) 0.25227(7) 0.66300(6)
H1_3 H 0.212593 0.270496 0.671422
H2_3 H 0.233644 0.242608 0.678186
O4_3 O 0.15578(9) 0.19712(7) 0.51905(7)
O5_3 O 0.27141(8) 0.22155(17) 0.55688(8)
C1_3 C 0.28269(9) 0.22071(14) 0.58650(10)
C2_3 C 0.34063(10) 0.21236(13) 0.56342(9)
H3_3 H 0.331649 0.214804 0.541962
O6_3 O 0.20893(9) 0.25008(12) 0.49979(8)
H4_3 H 0.224614 0.262669 0.507294
H5_3 H 0.199586 0.259619 0.483039
N1_3 N 0.39511(8) 0.20561(13) 0.53780(8)
H6_3 H 0.385746 0.211657 0.519260
C3_3 C 0.31965(9) 0.21502(12) 0.59144(9)
C4_3 C 0.45911(10) 0.21189(15) 0.44826(10)
H7_3 H 0.455630 0.217435 0.425803
C5_3 C 0.33326(8) 0.21147(11) 0.62345(8)
H8_3 H 0.319648 0.213807 0.642332
C6_3 C 0.44461(10) 0.20152(17) 0.50327(10)
C7_3 C 0.43295(11) 0.21222(15) 0.47259(10)
H9_3 H 0.410907 0.218784 0.468309
O7_3 O 0.44455(9) 0.18661(18) 0.56028(9)
C8_3 C 0.37484(9) 0.20607(14) 0.56726(10)
C9_3 C 0.42794(11) 0.19643(18) 0.53643(11)
C10_3 C 0.48920(10) 0.20292(15) 0.46042(9)
C11_3 C 0.38815(9) 0.20203(14) 0.59911(9)
H10_3 H 0.410971 0.197705 0.601877
C12_3 C 0.38356(10) 0.20157(13) 0.66127(9)
C13_3 C 0.36710(9) 0.20446(12) 0.62710(8)
O8_3 O 0.36604(5) 0.20740(6) 0.68676(5)
O9_3 O 0.54800(8) 0.19678(13) 0.46169(8)
O10_3 O 0.41436(8) 0.19423(16) 0.66107(8)
N2_3 N 0.52359(8) 0.20612(12) 0.41117(8)
H11_3 H 0.504575 0.205205 0.400899
C14_3 C 0.52324(10) 0.20137(14) 0.44504(10)
C15_3 C 0.55254(9) 0.21246(13) 0.39127(10)
C16_3 C 0.60610(9) 0.22916(10) 0.34934(9)
H12_3 H 0.623784 0.235139 0.335246
C17_3 C 0.60853(8) 0.23441(11) 0.38362(9)
C18_3 C 0.55047(10) 0.20651(13) 0.35702(10)
H13_3 H 0.531184 0.196856 0.347966
C19_3 C 0.58176(9) 0.22595(13) 0.40498(9)
H14_3 H 0.583532 0.229317 0.428057
C20_3 C 0.57728(10) 0.21499(12) 0.33615(9)
C21_3 C 0.57536(9) 0.20887(11) 0.29904(9)
C22_3 C 0.64000(9) 0.24994(11) 0.39806(9)
O11_3 O 0.59770(7) 0.22203(7) 0.28149(6)
O14_3 O 0.55157(9) 0.19042(14) 0.28874(8)
O15_3 O 0.13920(11) 0.26432(9) 0.50409(8)
C23_3 C 0.13438(16) 0.29389(15) 0.50386(17)
H15_3 H 0.147302 0.306846 0.518440
N3_3 N 0.1363(3) 0.1448(2) 0.5317(4)
C24_3 C 0.1452(2) 0.1756(2) 0.5388(2)
H16_3 H 0.143229 0.182071 0.561176
C25_3 C 0.1062(3) 0.3465(2) 0.4899(5)
H17_3 H 0.117816 0.353940 0.509693
H18_3 H 0.082499 0.350276 0.492546
H19_3 H 0.114231 0.358726 0.470719
C26_3 C 0.0875(3) 0.2916(3) 0.4651(2)
H20_3 H 0.093580 0.292394 0.441783
H21_3 H 0.065807 0.301727 0.468170
H22_3 H 0.086806 0.268638 0.472516
C27_3 C 0.1221(4) 0.1242(4) 0.5608(5)
H23_3 H 0.139051 0.109262 0.569181
H24_3 H 0.103132 0.111393 0.553056
H25_3 H 0.115008 0.139101 0.578471
C28_3 C 0.1430(6) 0.1332(5) 0.4931(5)
H26_3 H 0.162997 0.143898 0.484783
H27_3 H 0.124186 0.139514 0.479378
H28_3 H 0.145848 0.109188 0.492254
N4_3 N 0.11243(15) 0.31001(16) 0.48485(16)
H29_3 H 0.2239(17) 0.2154(17) 0.5606(17)
H30_3 H 0.196(3) 0.2014(18) 0.560(3)
Ni4_3 Ni 0.61456(2) 0.21353(2) 0.23461(2)
Ni5_3 Ni 0.38544(2) 0.21353(2) 0.73461(2)
Ni7_3 Ni 0.53637(2) 0.17462(2) 0.24291(2)
O16_3 O 0.20740(6) 0.18676(5) 0.63396(5)
O17_3 O 0.22203(7) 0.28149(6) 0.59770(7)
O20_3 O 0.19042(14) 0.28874(8) 0.55157(9)
S1_4 S 0.01299(3) 0.80776(5) 0.00238(3)
O1_4 O 0.29210(7) 0.78147(6) 0.06548(6)
O2_4 O 0.23500(6) 0.77587(7) 0.11242(6)
O3_4 O 0.27876(7) 0.74773(7) 0.16300(6)
H1_4 H 0.287407 0.729504 0.171422
H2_4 H 0.266356 0.757392 0.178186
O4_4 O 0.34422(9) 0.80288(7) 0.01905(7)
O5_4 O 0.22859(8) 0.77845(17) 0.05688(8)
C1_4 C 0.21731(9) 0.77929(14) 0.08650(10)
C2_4 C 0.15937(10) 0.78764(13) 0.06342(9)
H3_4 H 0.168351 0.785196 0.041962
H4_4 H 0.275386 0.737331 0.007294
N1_4 N 0.10489(8) 0.79439(13) 0.03780(8)
H6_4 H 0.114254 0.788343 0.019260
C3_4 C 0.18035(9) 0.78498(12) 0.09144(9)
C5_4 C 0.16674(8) 0.78853(11) 0.12345(8)
H8_4 H 0.180352 0.786193 0.142332
C6_4 C 0.05539(10) 0.79848(17) 0.00327(10)
O7_4 O 0.05545(9) 0.81339(18) 0.06028(9)
C8_4 C 0.12516(9) 0.79393(14) 0.06726(10)
C9_4 C 0.07206(11) 0.80357(18) 0.03643(11)
C11_4 C 0.11185(9) 0.79797(14) 0.09911(9)
H10_4 H 0.089029 0.802295 0.101877
C12_4 C 0.11644(10) 0.79843(13) 0.16127(9)
C13_4 C 0.13290(9) 0.79554(12) 0.12710(8)
O8_4 O 0.13396(5) 0.79260(6) 0.18676(5)
O10_4 O 0.08564(8) 0.80577(16) 0.16107(8)
O15_4 O 0.36080(11) 0.73568(9) 0.00409(8)
C23_4 C 0.36562(16) 0.70611(15) 0.00386(17)
H15_4 H 0.352698 0.693154 0.018440
N3_4 N 0.3637(3) 0.8552(2) 0.0317(4)
C24_4 C 0.3548(2) 0.8244(2) 0.0388(2)
H16_4 H 0.356771 0.817929 0.061176
H17_4 H 0.382184 0.646060 0.009693
C27_4 C 0.3779(4) 0.8758(4) 0.0608(5)
H23_4 H 0.360949 0.890738 0.069181
H24_4 H 0.396868 0.888607 0.053056
H25_4 H 0.384992 0.860899 0.078471
H29_4 H 0.2761(17) 0.7846(17) 0.0606(17)
H30_4 H 0.304(3) 0.7986(18) 0.060(3)
Ni5_4 Ni 0.11456(2) 0.78647(2) 0.23461(2)
O16_4 O 0.29260(6) 0.81324(5) 0.13396(5)
O17_4 O 0.27797(7) 0.71851(6) 0.09770(7)
O20_4 O 0.30958(14) 0.71126(8) 0.05157(9)
O9_4 O 0.95200(8) 0.80322(13) 0.96169(8)
N2_4 N 0.97641(8) 0.79388(12) 0.91117(8)
H11_4 H 0.995425 0.794795 0.900899
C14_4 C 0.97676(10) 0.79863(14) 0.94504(10)
C15_4 C 0.94746(9) 0.78754(13) 0.89127(10)
C16_4 C 0.89390(9) 0.77084(10) 0.84934(9)
H12_4 H 0.876216 0.764861 0.835246
C17_4 C 0.89147(8) 0.76559(11) 0.88362(9)
C18_4 C 0.94953(10) 0.79349(13) 0.85702(10)
H13_4 H 0.968816 0.803144 0.847966
C19_4 C 0.91824(9) 0.77405(13) 0.90498(9)
H14_4 H 0.916468 0.770683 0.928057
C20_4 C 0.92272(10) 0.78501(12) 0.83615(9)
C21_4 C 0.92464(9) 0.79113(11) 0.79904(9)
C22_4 C 0.86000(9) 0.75006(11) 0.89806(9)
O11_4 O 0.90230(7) 0.77797(7) 0.78149(6)
O14_4 O 0.94843(9) 0.80958(14) 0.78874(8)
Ni4_4 Ni 0.88544(2) 0.78647(2) 0.73461(2)
Ni7_4 Ni 0.96363(2) 0.82538(2) 0.74291(2)
O6_4 O 0.00021(8) 0.79107(9) 0.75008(12)
H5_4 H 0.016961 0.800414 0.759619
C4_4 C 0.05174(10) 0.54089(10) 0.71189(15)
H7_4 H 0.074197 0.544370 0.717435
C7_4 C 0.02741(10) 0.56705(11) 0.71222(15)
H9_4 H 0.031691 0.589093 0.718784
C10_4 C 0.03958(9) 0.51080(10) 0.70292(15)
O9_5 O 0.03831(8) 0.45200(8) 0.69678(13)
N2_5 N 0.08883(8) 0.47641(8) 0.70612(12)
H11_5 H 0.099101 0.495425 0.705205
C14_5 C 0.05496(10) 0.47676(10) 0.70137(14)
C15_5 C 0.10873(10) 0.44746(9) 0.71246(13)
C16_5 C 0.15066(9) 0.39390(9) 0.72916(10)
H12_5 H 0.164754 0.376216 0.735139
C17_5 C 0.11638(9) 0.39147(8) 0.73441(11)
C18_5 C 0.14298(10) 0.44953(10) 0.70651(13)
H13_5 H 0.152034 0.468816 0.696856
C19_5 C 0.09502(9) 0.41824(9) 0.72595(13)
H14_5 H 0.071943 0.416468 0.729317
C20_5 C 0.16385(9) 0.42272(10) 0.71499(12)
C21_5 C 0.20096(9) 0.42464(9) 0.70887(11)
C22_5 C 0.10194(9) 0.36000(9) 0.74994(11)
O11_5 O 0.21851(6) 0.40230(7) 0.72203(7)
O12_3 O 0.12098(6) 0.33586(6) 0.75390(7)
O13_3 O 0.07150(8) 0.36147(8) 0.75811(12)
O14_5 O 0.21126(8) 0.44843(9) 0.69042(14)
C25_4 C 0.0101(5) 0.8938(3) 0.8465(2)
H18_4 H 0.007454 0.917501 0.850276
H19_4 H 0.029281 0.885769 0.858726
C26_4 C 0.0349(2) 0.9125(3) 0.7916(3)
H20_4 H 0.058217 0.906420 0.792394
H21_4 H 0.031830 0.934193 0.801727
H22_4 H 0.027484 0.913194 0.768638
C28_4 C 0.0069(5) 0.8570(6) 0.6332(5)
H26_4 H 0.015217 0.837003 0.643898
H27_4 H 0.020622 0.875814 0.639514
H28_4 H 0.007746 0.854152 0.609188
N4_4 N 0.01515(16) 0.88757(15) 0.81001(16)
Ni4_5 Ni 0.26539(2) 0.38544(2) 0.71353(2)
Ni7_5 Ni 0.25709(2) 0.46363(2) 0.67462(2)
S1_5 S 0.99762(3) 0.51299(3) 0.69224(5)
O1_5 O 0.93452(6) 0.79210(7) 0.71853(6)
O2_5 O 0.88758(6) 0.73500(6) 0.72413(7)
O3_5 O 0.83700(6) 0.77876(7) 0.75227(7)
H1_5 H 0.828578 0.787407 0.770496
H2_5 H 0.821814 0.766356 0.742608
O4_5 O 0.98095(7) 0.84422(9) 0.69712(7)
O5_5 O 0.94312(8) 0.72859(8) 0.72155(17)
C1_5 C 0.91350(10) 0.71731(9) 0.72071(14)
C2_5 C 0.93658(9) 0.65937(10) 0.71236(13)
H3_5 H 0.958038 0.668351 0.714804
H4_5 H 0.992706 0.775386 0.762669
N1_5 N 0.96220(8) 0.60489(8) 0.70561(13)
H6_5 H 0.980740 0.614254 0.711657
C3_5 C 0.90856(9) 0.68035(9) 0.71502(12)
C5_5 C 0.87655(8) 0.66674(8) 0.71147(11)
H8_5 H 0.857668 0.680352 0.713807
C6_5 C 0.99673(10) 0.55539(10) 0.70152(17)
O7_5 O 0.93972(9) 0.55545(9) 0.68661(18)
C8_5 C 0.93274(10) 0.62516(9) 0.70607(14)
C9_5 C 0.96357(11) 0.57206(11) 0.69643(18)
C11_5 C 0.90089(9) 0.61185(9) 0.70203(14)
H10_5 H 0.898123 0.589029 0.697705
C12_5 C 0.83873(9) 0.61644(10) 0.70157(13)
C13_5 C 0.87290(8) 0.63290(9) 0.70446(12)
O8_5 O 0.81324(5) 0.63396(5) 0.70740(6)
O10_5 O 0.83893(8) 0.58564(8) 0.69423(16)
O15_5 O 0.99591(8) 0.86080(11) 0.76432(9)
C23_5 C 0.99614(17) 0.86562(16) 0.79389(15)
H15_5 H 0.981560 0.852698 0.806846
N3_5 N 0.9683(4) 0.8637(3) 0.6448(2)
C24_5 C 0.9612(2) 0.8548(2) 0.6756(2)
H16_5 H 0.938824 0.856771 0.682071
H17_5 H 0.990307 0.882184 0.853940
C27_5 C 0.9392(5) 0.8779(4) 0.6242(4)
H23_5 H 0.930819 0.860949 0.609262
H24_5 H 0.946944 0.896868 0.611393
H25_5 H 0.921529 0.884992 0.639101
H29_5 H 0.9394(17) 0.7761(17) 0.7154(17)
H30_5 H 0.940(3) 0.804(3) 0.7014(18)
Ni5_5 Ni 0.76539(2) 0.61456(2) 0.71353(2)
O16_5 O 0.86604(5) 0.79260(6) 0.68676(5)
O18_3 O 0.87902(6) 0.83586(6) 0.74610(7)
O19_3 O 0.92850(8) 0.86147(8) 0.74189(12)
O9_6 O 0.53831(8) 0.04800(8) 0.30322(13)
N2_6 N 0.58883(8) 0.02359(8) 0.29388(12)
H11_6 H 0.599101 0.004575 0.294795
C14_6 C 0.55496(10) 0.02324(10) 0.29863(14)
C15_6 C 0.60873(10) 0.05254(9) 0.28754(13)
C16_6 C 0.65066(9) 0.10610(9) 0.27084(10)
H12_6 H 0.664754 0.123784 0.264861
C17_6 C 0.61638(9) 0.10853(8) 0.26559(11)
C18_6 C 0.64298(10) 0.05047(10) 0.29349(13)
H13_6 H 0.652034 0.031184 0.303144
C19_6 C 0.59502(9) 0.08176(9) 0.27405(13)
H14_6 H 0.571943 0.083532 0.270683
C20_6 C 0.66385(9) 0.07728(10) 0.28501(12)
C21_6 C 0.70096(9) 0.07536(9) 0.29113(11)
C22_6 C 0.60194(9) 0.14000(9) 0.25006(11)
O11_6 O 0.71851(6) 0.09770(7) 0.27797(7)
O12_4 O 0.62098(6) 0.16414(6) 0.24610(7)
O13_4 O 0.57150(8) 0.13853(8) 0.24189(12)
O14_6 O 0.71126(8) 0.05157(9) 0.30958(14)
Ni4_6 Ni 0.76539(2) 0.11456(2) 0.28647(2)
Ni7_6 Ni 0.75709(2) 0.03637(2) 0.32538(2)
S1_6 S 0.49762(3) 0.98701(3) 0.30776(5)
O1_6 O 0.43452(6) 0.70790(7) 0.28147(6)
O2_6 O 0.38758(6) 0.76500(6) 0.27587(7)
O3_6 O 0.33700(6) 0.72124(7) 0.24773(7)
H1_6 H 0.328578 0.712593 0.229504
H2_6 H 0.321814 0.733644 0.257392
O4_6 O 0.48095(7) 0.65578(9) 0.30288(7)
O5_6 O 0.44312(8) 0.77141(8) 0.27845(17)
C1_6 C 0.41350(10) 0.78269(9) 0.27929(14)
C2_6 C 0.43658(9) 0.84063(10) 0.28764(13)
H3_6 H 0.458038 0.831649 0.285196
O6_5 O 0.50021(8) 0.70893(9) 0.24992(12)
H4_6 H 0.492706 0.724614 0.237331
H5_5 H 0.516961 0.699586 0.240381
N1_6 N 0.46220(8) 0.89511(8) 0.29439(13)
H6_6 H 0.480740 0.885746 0.288343
C3_6 C 0.40856(9) 0.81965(9) 0.28498(12)
C4_5 C 0.55174(10) 0.95911(10) 0.28811(15)
H7_5 H 0.574197 0.955630 0.282565
C5_6 C 0.37655(8) 0.83326(8) 0.28853(11)
H8_6 H 0.357668 0.819648 0.286193
C6_6 C 0.49673(10) 0.94461(10) 0.29848(17)
C7_5 C 0.52741(10) 0.93295(11) 0.28778(15)
H9_5 H 0.531691 0.910907 0.281216
O7_6 O 0.43972(9) 0.94455(9) 0.31339(18)
C8_6 C 0.43274(10) 0.87484(9) 0.29393(14)
C9_6 C 0.46357(11) 0.92794(11) 0.30357(18)
C10_5 C 0.53958(9) 0.98920(10) 0.29708(15)
C11_6 C 0.40089(9) 0.88815(9) 0.29797(14)
H10_6 H 0.398123 0.910971 0.302295
C12_6 C 0.33873(9) 0.88356(10) 0.29843(13)
C13_6 C 0.37290(8) 0.86710(9) 0.29554(12)
O8_6 O 0.31324(5) 0.86604(5) 0.29260(6)
O10_6 O 0.33893(8) 0.91436(8) 0.30577(16)
O15_6 O 0.49591(8) 0.63920(11) 0.23568(9)
C23_6 C 0.49614(17) 0.63438(16) 0.20611(15)
H15_6 H 0.481560 0.647302 0.193154
N3_6 N 0.4683(4) 0.6363(3) 0.3552(2)
C24_6 C 0.4612(2) 0.6452(2) 0.3244(2)
H16_6 H 0.438824 0.643229 0.317929
C25_5 C 0.5101(5) 0.6062(3) 0.1535(2)
H17_6 H 0.490307 0.617816 0.146060
H18_5 H 0.507454 0.582499 0.149724
H19_5 H 0.529281 0.614231 0.141274
C26_5 C 0.5349(2) 0.5875(3) 0.2084(3)
H20_5 H 0.558217 0.593580 0.207606
H21_5 H 0.531830 0.565807 0.198273
H22_5 H 0.527484 0.586806 0.231362
C27_6 C 0.4392(5) 0.6221(4) 0.3758(4)
H23_6 H 0.430819 0.639051 0.390738
H24_6 H 0.446944 0.603132 0.388607
H25_6 H 0.421529 0.615008 0.360899
C28_5 C 0.5069(5) 0.6430(6) 0.3668(5)
H26_5 H 0.515217 0.662997 0.356102
H27_5 H 0.520622 0.624186 0.360486
H28_5 H 0.507746 0.645848 0.390812
N4_5 N 0.51515(16) 0.61243(15) 0.18999(16)
H29_6 H 0.4394(17) 0.7239(17) 0.2846(17)
H30_6 H 0.440(3) 0.696(3) 0.2986(18)
Ni5_6 Ni 0.26539(2) 0.88544(2) 0.28647(2)
O16_6 O 0.36604(5) 0.70740(6) 0.31324(5)
O18_4 O 0.37902(6) 0.66414(6) 0.25390(7)
O19_4 O 0.42850(8) 0.63853(8) 0.25811(12)
S1_7 S 0.50238(3) 0.48701(3) 0.19224(5)
O1_7 O 0.56548(6) 0.20790(7) 0.21853(6)
O2_7 O 0.61242(6) 0.26500(6) 0.22413(7)
O3_7 O 0.66300(6) 0.22124(7) 0.25227(7)
H1_7 H 0.671422 0.212593 0.270496
H2_7 H 0.678186 0.233644 0.242608
O4_7 O 0.51905(7) 0.15578(9) 0.19712(7)
O5_7 O 0.55688(8) 0.27141(8) 0.22155(17)
C1_7 C 0.58650(10) 0.28269(9) 0.22071(14)
C2_7 C 0.56342(9) 0.34063(10) 0.21236(13)
H3_7 H 0.541962 0.331649 0.214804
O6_6 O 0.49979(8) 0.20893(9) 0.25008(12)
H4_7 H 0.507294 0.224614 0.262669
H5_6 H 0.483039 0.199586 0.259619
N1_7 N 0.53780(8) 0.39511(8) 0.20561(13)
H6_7 H 0.519260 0.385746 0.211657
C3_7 C 0.59144(9) 0.31965(9) 0.21502(12)
C4_6 C 0.44826(10) 0.45911(10) 0.21189(15)
H7_6 H 0.425803 0.455630 0.217435
C5_7 C 0.62345(8) 0.33326(8) 0.21147(11)
H8_7 H 0.642332 0.319648 0.213807
C6_7 C 0.50327(10) 0.44461(10) 0.20152(17)
C7_6 C 0.47259(10) 0.43295(11) 0.21222(15)
H9_6 H 0.468309 0.410907 0.218784
O7_7 O 0.56028(9) 0.44455(9) 0.18661(18)
C8_7 C 0.56726(10) 0.37484(9) 0.20607(14)
C9_7 C 0.53643(11) 0.42794(11) 0.19643(18)
C10_6 C 0.46042(9) 0.48920(10) 0.20292(15)
C11_7 C 0.59911(9) 0.38815(9) 0.20203(14)
H10_7 H 0.601877 0.410971 0.197705
C12_7 C 0.66127(9) 0.38356(10) 0.20157(13)
C13_7 C 0.62710(8) 0.36710(9) 0.20446(12)
O8_7 O 0.68676(5) 0.36604(5) 0.20740(6)
O9_7 O 0.46169(8) 0.54800(8) 0.19678(13)
O10_7 O 0.66107(8) 0.41436(8) 0.19423(16)
N2_7 N 0.41117(8) 0.52359(8) 0.20612(12)
H11_7 H 0.400899 0.504575 0.205205
C14_7 C 0.44504(10) 0.52324(10) 0.20137(14)
C15_7 C 0.39127(10) 0.55254(9) 0.21246(13)
C16_7 C 0.34934(9) 0.60610(9) 0.22916(10)
H12_7 H 0.335246 0.623784 0.235139
C17_7 C 0.38362(9) 0.60853(8) 0.23441(11)
C18_7 C 0.35702(10) 0.55047(10) 0.20651(13)
H13_7 H 0.347966 0.531184 0.196856
C19_7 C 0.40498(9) 0.58176(9) 0.22595(13)
H14_7 H 0.428057 0.583532 0.229317
C20_7 C 0.33615(9) 0.57728(10) 0.21499(12)
C21_7 C 0.29904(9) 0.57536(9) 0.20887(11)
C22_7 C 0.39806(9) 0.64000(9) 0.24994(11)
O11_7 O 0.28149(6) 0.59770(7) 0.22203(7)
O14_7 O 0.28874(8) 0.55157(9) 0.19042(14)
O15_7 O 0.50409(8) 0.13920(11) 0.26432(9)
C23_7 C 0.50386(17) 0.13438(16) 0.29389(15)
H15_7 H 0.518440 0.147302 0.306846
N3_7 N 0.5317(4) 0.1363(3) 0.1448(2)
C24_7 C 0.5388(2) 0.1452(2) 0.1756(2)
H16_7 H 0.561176 0.143229 0.182071
C25_6 C 0.4899(5) 0.1062(3) 0.3465(2)
H17_7 H 0.509693 0.117816 0.353940
H18_6 H 0.492546 0.082499 0.350276
H19_6 H 0.470719 0.114231 0.358726
C26_6 C 0.4651(2) 0.0875(3) 0.2916(3)
H20_6 H 0.441783 0.093580 0.292394
H21_6 H 0.468170 0.065807 0.301727
H22_6 H 0.472516 0.086806 0.268638
C27_7 C 0.5608(5) 0.1221(4) 0.1242(4)
H23_7 H 0.569181 0.139051 0.109262
H24_7 H 0.553056 0.103132 0.111393
H25_7 H 0.578471 0.115008 0.139101
C28_6 C 0.4931(5) 0.1430(6) 0.1332(5)
H26_6 H 0.484783 0.162997 0.143898
H27_6 H 0.479378 0.124186 0.139514
H28_6 H 0.492254 0.145848 0.109188
N4_6 N 0.48485(16) 0.11243(15) 0.31001(16)
H29_7 H 0.5606(17) 0.2239(17) 0.2154(17)
H30_7 H 0.560(3) 0.196(3) 0.2014(18)
Ni4_7 Ni 0.23461(2) 0.61456(2) 0.21353(2)
Ni5_7 Ni 0.73461(2) 0.38544(2) 0.21353(2)
Ni7_7 Ni 0.24291(2) 0.53637(2) 0.17462(2)
O16_7 O 0.63396(5) 0.20740(6) 0.18676(5)
S1_8 S 0.00238(3) 0.01299(3) 0.80776(5)
O1_8 O 0.06548(6) 0.29210(7) 0.78147(6)
O2_8 O 0.11242(6) 0.23500(6) 0.77587(7)
O3_8 O 0.16300(6) 0.27876(7) 0.74773(7)
H1_8 H 0.171422 0.287407 0.729504
H2_8 H 0.178186 0.266356 0.757392
O4_8 O 0.01905(7) 0.34422(9) 0.80288(7)
O5_8 O 0.05688(8) 0.22859(8) 0.77845(17)
C1_8 C 0.08650(10) 0.21731(9) 0.77929(14)
C2_8 C 0.06342(9) 0.15937(10) 0.78764(13)
H3_8 H 0.041962 0.168351 0.785196
H4_8 H 0.007294 0.275386 0.737331
N1_8 N 0.03780(8) 0.10489(8) 0.79439(13)
H6_8 H 0.019260 0.114254 0.788343
C3_8 C 0.09144(9) 0.18035(9) 0.78498(12)
C5_8 C 0.12345(8) 0.16674(8) 0.78853(11)
H8_8 H 0.142332 0.180352 0.786193
C6_8 C 0.00327(10) 0.05539(10) 0.79848(17)
O7_8 O 0.06028(9) 0.05545(9) 0.81339(18)
C8_8 C 0.06726(10) 0.12516(9) 0.79393(14)
C9_8 C 0.03643(11) 0.07206(11) 0.80357(18)
C11_8 C 0.09911(9) 0.11185(9) 0.79797(14)
H10_8 H 0.101877 0.089029 0.802295
C12_8 C 0.16127(9) 0.11644(10) 0.79843(13)
C13_8 C 0.12710(8) 0.13290(9) 0.79554(12)
O8_8 O 0.18676(5) 0.13396(5) 0.79260(6)
O10_8 O 0.16107(8) 0.08564(8) 0.80577(16)
O15_8 O 0.00409(8) 0.36080(11) 0.73568(9)
C23_8 C 0.00386(17) 0.36562(16) 0.70611(15)
H15_8 H 0.018440 0.352698 0.693154
N3_8 N 0.0317(4) 0.3637(3) 0.8552(2)
C24_8 C 0.0388(2) 0.3548(2) 0.8244(2)
H16_8 H 0.061176 0.356771 0.817929
H17_8 H 0.009693 0.382184 0.646060
C27_8 C 0.0608(5) 0.3779(4) 0.8758(4)
H23_8 H 0.069181 0.360949 0.890738
H24_8 H 0.053056 0.396868 0.888607
H25_8 H 0.078471 0.384992 0.860899
H29_8 H 0.0606(17) 0.2761(17) 0.7846(17)
H30_8 H 0.060(3) 0.304(3) 0.7986(18)
Ni5_8 Ni 0.23461(2) 0.11456(2) 0.78647(2)
O16_8 O 0.13396(5) 0.29260(6) 0.81324(5)
O9_8 O 0.96169(8) 0.95200(8) 0.80322(13)
N2_8 N 0.91117(8) 0.97641(8) 0.79388(12)
H11_8 H 0.900899 0.995425 0.794795
C14_8 C 0.94504(10) 0.97676(10) 0.79863(14)
C15_8 C 0.89127(10) 0.94746(9) 0.78754(13)
C16_8 C 0.84934(9) 0.89390(9) 0.77084(10)
H12_8 H 0.835246 0.876216 0.764861
C17_8 C 0.88362(9) 0.89147(8) 0.76559(11)
C18_8 C 0.85702(10) 0.94953(10) 0.79349(13)
H13_8 H 0.847966 0.968816 0.803144
C19_8 C 0.90498(9) 0.91824(9) 0.77405(13)
H14_8 H 0.928057 0.916468 0.770683
C20_8 C 0.83615(9) 0.92272(10) 0.78501(12)
C21_8 C 0.79904(9) 0.92464(9) 0.79113(11)
C22_8 C 0.89806(9) 0.86000(9) 0.75006(11)
O11_8 O 0.78149(6) 0.90230(7) 0.77797(7)
O14_8 O 0.78874(8) 0.94843(9) 0.80958(14)
Ni4_8 Ni 0.73461(2) 0.88544(2) 0.78647(2)
Ni7_8 Ni 0.74291(2) 0.96363(2) 0.82538(2)
O6_7 O 0.75008(12) 0.00021(8) 0.79107(9)
H5_7 H 0.759619 0.016961 0.800414
C4_7 C 0.71189(15) 0.05174(10) 0.54089(10)
H7_7 H 0.717435 0.074197 0.544370
C7_7 C 0.71222(15) 0.02741(10) 0.56705(11)
H9_7 H 0.718784 0.031691 0.589093
C10_7 C 0.70292(15) 0.03958(9) 0.51080(10)
O9_9 O 0.69678(13) 0.03831(8) 0.45200(8)
N2_9 N 0.70612(12) 0.08883(8) 0.47641(8)
H11_9 H 0.705205 0.099101 0.495425
C14_9 C 0.70137(14) 0.05496(10) 0.47676(10)
C15_9 C 0.71246(13) 0.10873(10) 0.44746(9)
C16_9 C 0.72916(10) 0.15066(9) 0.39390(9)
H12_9 H 0.735139 0.164754 0.376216
C17_9 C 0.73441(11) 0.11638(9) 0.39147(8)
C18_9 C 0.70651(13) 0.14298(10) 0.44953(10)
H13_9 H 0.696856 0.152034 0.468816
C19_9 C 0.72595(13) 0.09502(9) 0.41824(9)
H14_9 H 0.729317 0.071943 0.416468
C20_9 C 0.71499(12) 0.16385(9) 0.42272(10)
C21_9 C 0.70887(11) 0.20096(9) 0.42464(9)
C22_9 C 0.74994(11) 0.10194(9) 0.36000(9)
O12_5 O 0.75390(7) 0.12098(6) 0.33586(6)
O13_5 O 0.75811(12) 0.07150(8) 0.36147(8)
C25_7 C 0.8465(2) 0.0101(5) 0.8938(3)
H18_7 H 0.850276 0.007454 0.917501
H19_7 H 0.858726 0.029281 0.885769
C26_7 C 0.7916(3) 0.0349(2) 0.9125(3)
H20_7 H 0.792394 0.058217 0.906420
H21_7 H 0.801727 0.031830 0.934193
H22_7 H 0.768638 0.027484 0.913194
C28_7 C 0.6332(5) 0.0069(5) 0.8570(6)
H26_7 H 0.643898 0.015217 0.837003
H27_7 H 0.639514 0.020622 0.875814
H28_7 H 0.609188 0.007746 0.854152
N4_7 N 0.81001(16) 0.01515(16) 0.88757(15)
S1_9 S 0.69224(5) 0.99762(3) 0.51299(3)
O1_9 O 0.71853(6) 0.93452(6) 0.79210(7)
O2_9 O 0.72413(7) 0.88758(6) 0.73500(6)
O3_9 O 0.75227(7) 0.83700(6) 0.77876(7)
H1_9 H 0.770496 0.828578 0.787407
H2_9 H 0.742608 0.821814 0.766356
O4_9 O 0.69712(7) 0.98095(7) 0.84422(9)
O5_9 O 0.72155(17) 0.94312(8) 0.72859(8)
C1_9 C 0.72071(14) 0.91350(10) 0.71731(9)
C2_9 C 0.71236(13) 0.93658(9) 0.65937(10)
H3_9 H 0.714804 0.958038 0.668351
H4_9 H 0.762669 0.992706 0.775386
N1_9 N 0.70561(13) 0.96220(8) 0.60489(8)
H6_9 H 0.711657 0.980740 0.614254
C3_9 C 0.71502(12) 0.90856(9) 0.68035(9)
C5_9 C 0.71147(11) 0.87655(8) 0.66674(8)
H8_9 H 0.713807 0.857668 0.680352
C6_9 C 0.70152(17) 0.99673(10) 0.55539(10)
O7_9 O 0.68661(18) 0.93972(9) 0.55545(9)
C8_9 C 0.70607(14) 0.93274(10) 0.62516(9)
C9_9 C 0.69643(18) 0.96357(11) 0.57206(11)
C11_9 C 0.70203(14) 0.90089(9) 0.61185(9)
H10_9 H 0.697705 0.898123 0.589029
C12_9 C 0.70157(13) 0.83873(9) 0.61644(10)
C13_9 C 0.70446(12) 0.87290(8) 0.63290(9)
O8_9 O 0.70740(6) 0.81324(5) 0.63396(5)
O10_9 O 0.69423(16) 0.83893(8) 0.58564(8)
O15_9 O 0.76432(9) 0.99591(8) 0.86080(11)
C23_9 C 0.79389(15) 0.99614(17) 0.86562(16)
H15_9 H 0.806846 0.981560 0.852698
N3_9 N 0.6448(2) 0.9683(4) 0.8637(3)
C24_9 C 0.6756(2) 0.9612(2) 0.8548(2)
H16_9 H 0.682071 0.938824 0.856771
H17_9 H 0.853940 0.990307 0.882184
C27_9 C 0.6242(4) 0.9392(5) 0.8779(4)
H23_9 H 0.609262 0.930819 0.860949
H24_9 H 0.611393 0.946944 0.896868
H25_9 H 0.639101 0.921529 0.884992
H29_9 H 0.7154(17) 0.9394(17) 0.7761(17)
H30_9 H 0.7014(18) 0.940(3) 0.804(3)
Ni5_9 Ni 0.71353(2) 0.76539(2) 0.61456(2)
O16_9 O 0.68676(5) 0.86604(5) 0.79260(6)
O18_5 O 0.74610(7) 0.87902(6) 0.83586(6)
O19_5 O 0.74189(12) 0.92850(8) 0.86147(8)
O9_10 O 0.30322(13) 0.53831(8) 0.04800(8)
N2_10 N 0.29388(12) 0.58883(8) 0.02359(8)
H11_10 H 0.294795 0.599101 0.004575
C14_10 C 0.29863(14) 0.55496(10) 0.02324(10)
C15_10 C 0.28754(13) 0.60873(10) 0.05254(9)
C16_10 C 0.27084(10) 0.65066(9) 0.10610(9)
H12_10 H 0.264861 0.664754 0.123784
C17_10 C 0.26559(11) 0.61638(9) 0.10853(8)
C18_10 C 0.29349(13) 0.64298(10) 0.05047(10)
H13_10 H 0.303144 0.652034 0.031184
C19_10 C 0.27405(13) 0.59502(9) 0.08176(9)
H14_10 H 0.270683 0.571943 0.083532
C20_10 C 0.28501(12) 0.66385(9) 0.07728(10)
C21_10 C 0.29113(11) 0.70096(9) 0.07536(9)
C22_10 C 0.25006(11) 0.60194(9) 0.14000(9)
O12_6 O 0.24610(7) 0.62098(6) 0.16414(6)
O13_6 O 0.24189(12) 0.57150(8) 0.13853(8)
S1_10 S 0.30776(5) 0.49762(3) 0.98701(3)
O1_10 O 0.28147(6) 0.43452(6) 0.70790(7)
O2_10 O 0.27587(7) 0.38758(6) 0.76500(6)
O3_10 O 0.24773(7) 0.33700(6) 0.72124(7)
H1_10 H 0.229504 0.328578 0.712593
H2_10 H 0.257392 0.321814 0.733644
O4_10 O 0.30288(7) 0.48095(7) 0.65578(9)
O5_10 O 0.27845(17) 0.44312(8) 0.77141(8)
C1_10 C 0.27929(14) 0.41350(10) 0.78269(9)
C2_10 C 0.28764(13) 0.43658(9) 0.84063(10)
H3_10 H 0.285196 0.458038 0.831649
O6_8 O 0.24992(12) 0.50021(8) 0.70893(9)
H4_10 H 0.237331 0.492706 0.724614
H5_8 H 0.240381 0.516961 0.699586
N1_10 N 0.29439(13) 0.46220(8) 0.89511(8)
H6_10 H 0.288343 0.480740 0.885746
C3_10 C 0.28498(12) 0.40856(9) 0.81965(9)
C4_8 C 0.28811(15) 0.55174(10) 0.95911(10)
H7_8 H 0.282565 0.574197 0.955630
C5_10 C 0.28853(11) 0.37655(8) 0.83326(8)
H8_10 H 0.286193 0.357668 0.819648
C6_10 C 0.29848(17) 0.49673(10) 0.94461(10)
C7_8 C 0.28778(15) 0.52741(10) 0.93295(11)
H9_8 H 0.281216 0.531691 0.910907
O7_10 O 0.31339(18) 0.43972(9) 0.94455(9)
C8_10 C 0.29393(14) 0.43274(10) 0.87484(9)
C9_10 C 0.30357(18) 0.46357(11) 0.92794(11)
C10_8 C 0.29708(15) 0.53958(9) 0.98920(10)
C11_10 C 0.29797(14) 0.40089(9) 0.88815(9)
H10_10 H 0.302295 0.398123 0.910971
C12_10 C 0.29843(13) 0.33873(9) 0.88356(10)
C13_10 C 0.29554(12) 0.37290(8) 0.86710(9)
O8_10 O 0.29260(6) 0.31324(5) 0.86604(5)
O10_10 O 0.30577(16) 0.33893(8) 0.91436(8)
O15_10 O 0.23568(9) 0.49591(8) 0.63920(11)
C23_10 C 0.20611(15) 0.49614(17) 0.63438(16)
H15_10 H 0.193154 0.481560 0.647302
N3_10 N 0.3552(2) 0.4683(4) 0.6363(3)
C24_10 C 0.3244(2) 0.4612(2) 0.6452(2)
H16_10 H 0.317929 0.438824 0.643229
C25_8 C 0.1535(2) 0.5101(5) 0.6062(3)
H17_10 H 0.146060 0.490307 0.617816
H18_8 H 0.149724 0.507454 0.582499
H19_8 H 0.141274 0.529281 0.614231
C26_8 C 0.2084(3) 0.5349(2) 0.5875(3)
H20_8 H 0.207606 0.558217 0.593580
H21_8 H 0.198273 0.531830 0.565807
H22_8 H 0.231362 0.527484 0.586806
C27_10 C 0.3758(4) 0.4392(5) 0.6221(4)
H23_10 H 0.390738 0.430819 0.639051
H24_10 H 0.388607 0.446944 0.603132
H25_10 H 0.360899 0.421529 0.615008
C28_8 C 0.3668(5) 0.5069(5) 0.6430(6)
H26_8 H 0.356102 0.515217 0.662997
H27_8 H 0.360486 0.520622 0.624186
H28_8 H 0.390812 0.507746 0.645848
N4_8 N 0.18999(16) 0.51515(16) 0.61243(15)
H29_10 H 0.2846(17) 0.4394(17) 0.7239(17)
H30_10 H 0.2986(18) 0.440(3) 0.696(3)
Ni5_10 Ni 0.28647(2) 0.26539(2) 0.88544(2)
O16_10 O 0.31324(5) 0.36604(5) 0.70740(6)
O18_6 O 0.25390(7) 0.37902(6) 0.66414(6)
O19_6 O 0.25811(12) 0.42850(8) 0.63853(8)
S1_11 S 0.19224(5) 0.50238(3) 0.48701(3)
O1_11 O 0.21853(6) 0.56548(6) 0.20790(7)
O2_11 O 0.22413(7) 0.61242(6) 0.26500(6)
O3_11 O 0.25227(7) 0.66300(6) 0.22124(7)
H1_11 H 0.270496 0.671422 0.212593
H2_11 H 0.242608 0.678186 0.233644
O4_11 O 0.19712(7) 0.51905(7) 0.15578(9)
O5_11 O 0.22155(17) 0.55688(8) 0.27141(8)
C1_11 C 0.22071(14) 0.58650(10) 0.28269(9)
C2_11 C 0.21236(13) 0.56342(9) 0.34063(10)
H3_11 H 0.214804 0.541962 0.331649
O6_9 O 0.25008(12) 0.49979(8) 0.20893(9)
H4_11 H 0.262669 0.507294 0.224614
H5_9 H 0.259619 0.483039 0.199586
N1_11 N 0.20561(13) 0.53780(8) 0.39511(8)
H6_11 H 0.211657 0.519260 0.385746
C3_11 C 0.21502(12) 0.59144(9) 0.31965(9)
C4_9 C 0.21189(15) 0.44826(10) 0.45911(10)
H7_9 H 0.217435 0.425803 0.455630
C5_11 C 0.21147(11) 0.62345(8) 0.33326(8)
H8_11 H 0.213807 0.642332 0.319648
C6_11 C 0.20152(17) 0.50327(10) 0.44461(10)
C7_9 C 0.21222(15) 0.47259(10) 0.43295(11)
H9_9 H 0.218784 0.468309 0.410907
O7_11 O 0.18661(18) 0.56028(9) 0.44455(9)
C8_11 C 0.20607(14) 0.56726(10) 0.37484(9)
C9_11 C 0.19643(18) 0.53643(11) 0.42794(11)
C10_9 C 0.20292(15) 0.46042(9) 0.48920(10)
C11_11 C 0.20203(14) 0.59911(9) 0.38815(9)
H10_11 H 0.197705 0.601877 0.410971
C12_11 C 0.20157(13) 0.66127(9) 0.38356(10)
C13_11 C 0.20446(12) 0.62710(8) 0.36710(9)
O8_11 O 0.20740(6) 0.68676(5) 0.36604(5)
O9_11 O 0.19678(13) 0.46169(8) 0.54800(8)
O10_11 O 0.19423(16) 0.66107(8) 0.41436(8)
N2_11 N 0.20612(12) 0.41117(8) 0.52359(8)
H11_11 H 0.205205 0.400899 0.504575
C14_11 C 0.20137(14) 0.44504(10) 0.52324(10)
C15_11 C 0.21246(13) 0.39127(10) 0.55254(9)
C16_11 C 0.22916(10) 0.34934(9) 0.60610(9)
H12_11 H 0.235139 0.335246 0.623784
C17_11 C 0.23441(11) 0.38362(9) 0.60853(8)
C18_11 C 0.20651(13) 0.35702(10) 0.55047(10)
H13_11 H 0.196856 0.347966 0.531184
C19_11 C 0.22595(13) 0.40498(9) 0.58176(9)
H14_11 H 0.229317 0.428057 0.583532
C20_11 C 0.21499(12) 0.33615(9) 0.57728(10)
C21_11 C 0.20887(11) 0.29904(9) 0.57536(9)
C22_11 C 0.24994(11) 0.39806(9) 0.64000(9)
O15_11 O 0.26432(9) 0.50409(8) 0.13920(11)
C23_11 C 0.29389(15) 0.50386(17) 0.13438(16)
H15_11 H 0.306846 0.518440 0.147302
N3_11 N 0.1448(2) 0.5317(4) 0.1363(3)
C24_11 C 0.1756(2) 0.5388(2) 0.1452(2)
H16_11 H 0.182071 0.561176 0.143229
C25_9 C 0.3465(2) 0.4899(5) 0.1062(3)
H17_11 H 0.353940 0.509693 0.117816
H18_9 H 0.350276 0.492546 0.082499
H19_9 H 0.358726 0.470719 0.114231
C26_9 C 0.2916(3) 0.4651(2) 0.0875(3)
H20_9 H 0.292394 0.441783 0.093580
H21_9 H 0.301727 0.468170 0.065807
H22_9 H 0.268638 0.472516 0.086806
C27_11 C 0.1242(4) 0.5608(5) 0.1221(4)
H23_11 H 0.109262 0.569181 0.139051
H24_11 H 0.111393 0.553056 0.103132
H25_11 H 0.139101 0.578471 0.115008
C28_9 C 0.1332(5) 0.4931(5) 0.1430(6)
H26_9 H 0.143898 0.484783 0.162997
H27_9 H 0.139514 0.479378 0.124186
H28_9 H 0.109188 0.492254 0.145848
N4_9 N 0.31001(16) 0.48485(16) 0.11243(15)
H29_11 H 0.2154(17) 0.5606(17) 0.2239(17)
H30_11 H 0.2014(18) 0.560(3) 0.196(3)
Ni5_11 Ni 0.21353(2) 0.73461(2) 0.38544(2)
O16_11 O 0.18676(5) 0.63396(5) 0.20740(6)
S1_12 S 0.80776(5) 0.00238(3) 0.01299(3)
O1_12 O 0.78147(6) 0.06548(6) 0.29210(7)
O2_12 O 0.77587(7) 0.11242(6) 0.23500(6)
O3_12 O 0.74773(7) 0.16300(6) 0.27876(7)
H1_12 H 0.729504 0.171422 0.287407
H2_12 H 0.757392 0.178186 0.266356
O4_12 O 0.80288(7) 0.01905(7) 0.34422(9)
O5_12 O 0.77845(17) 0.05688(8) 0.22859(8)
C1_12 C 0.77929(14) 0.08650(10) 0.21731(9)
C2_12 C 0.78764(13) 0.06342(9) 0.15937(10)
H3_12 H 0.785196 0.041962 0.168351
H4_12 H 0.737331 0.007294 0.275386
N1_12 N 0.79439(13) 0.03780(8) 0.10489(8)
H6_12 H 0.788343 0.019260 0.114254
C3_12 C 0.78498(12) 0.09144(9) 0.18035(9)
C5_12 C 0.78853(11) 0.12345(8) 0.16674(8)
H8_12 H 0.786193 0.142332 0.180352
C6_12 C 0.79848(17) 0.00327(10) 0.05539(10)
O7_12 O 0.81339(18) 0.06028(9) 0.05545(9)
C8_12 C 0.79393(14) 0.06726(10) 0.12516(9)
C9_12 C 0.80357(18) 0.03643(11) 0.07206(11)
C11_12 C 0.79797(14) 0.09911(9) 0.11185(9)
H10_12 H 0.802295 0.101877 0.089029
C12_12 C 0.79843(13) 0.16127(9) 0.11644(10)
C13_12 C 0.79554(12) 0.12710(8) 0.13290(9)
O8_12 O 0.79260(6) 0.18676(5) 0.13396(5)
O10_12 O 0.80577(16) 0.16107(8) 0.08564(8)
O15_12 O 0.73568(9) 0.00409(8) 0.36080(11)
C23_12 C 0.70611(15) 0.00386(17) 0.36562(16)
H15_12 H 0.693154 0.018440 0.352698
N3_12 N 0.8552(2) 0.0317(4) 0.3637(3)
C24_12 C 0.8244(2) 0.0388(2) 0.3548(2)
H16_12 H 0.817929 0.061176 0.356771
H17_12 H 0.646060 0.009693 0.382184
C27_12 C 0.8758(4) 0.0608(5) 0.3779(4)
H23_12 H 0.890738 0.069181 0.360949
H24_12 H 0.888607 0.053056 0.396868
H25_12 H 0.860899 0.078471 0.384992
H29_12 H 0.7846(17) 0.0606(17) 0.2761(17)
H30_12 H 0.7986(18) 0.060(3) 0.304(3)
Ni5_12 Ni 0.78647(2) 0.23461(2) 0.11456(2)
O16_12 O 0.81324(5) 0.13396(5) 0.29260(6)
O9_12 O 0.80322(13) 0.96169(8) 0.95200(8)
N2_12 N 0.79388(12) 0.91117(8) 0.97641(8)
H11_12 H 0.794795 0.900899 0.995425
C14_12 C 0.79863(14) 0.94504(10) 0.97676(10)
C15_12 C 0.78754(13) 0.89127(10) 0.94746(9)
C16_12 C 0.77084(10) 0.84934(9) 0.89390(9)
H12_12 H 0.764861 0.835246 0.876216
C17_12 C 0.76559(11) 0.88362(9) 0.89147(8)
C18_12 C 0.79349(13) 0.85702(10) 0.94953(10)
H13_12 H 0.803144 0.847966 0.968816
C19_12 C 0.77405(13) 0.90498(9) 0.91824(9)
H14_12 H 0.770683 0.928057 0.916468
C20_12 C 0.78501(12) 0.83615(9) 0.92272(10)
C21_12 C 0.79113(11) 0.79904(9) 0.92464(9)
C22_12 C 0.75006(11) 0.89806(9) 0.86000(9)
O9_13 O 0.04800(8) 0.80322(13) 0.46169(8)
N2_13 N 0.02359(8) 0.79388(12) 0.41117(8)
H11_13 H 0.004575 0.794795 0.400899
C14_13 C 0.02324(10) 0.79863(14) 0.44504(10)
C15_13 C 0.05254(9) 0.78754(13) 0.39127(10)
C16_13 C 0.10610(9) 0.77084(10) 0.34934(9)
H12_13 H 0.123784 0.764861 0.335246
C17_13 C 0.10853(8) 0.76559(11) 0.38362(9)
C18_13 C 0.05047(10) 0.79349(13) 0.35702(10)
H13_13 H 0.031184 0.803144 0.347966
C19_13 C 0.08176(9) 0.77405(13) 0.40498(9)
H14_13 H 0.083532 0.770683 0.428057
C20_13 C 0.07728(10) 0.78501(12) 0.33615(9)
C21_13 C 0.07536(9) 0.79113(11) 0.29904(9)
C22_13 C 0.14000(9) 0.75006(11) 0.39806(9)
O11_9 O 0.09770(7) 0.77797(7) 0.28149(6)
O12_7 O 0.16414(6) 0.74610(7) 0.37902(6)
O13_7 O 0.13853(8) 0.74189(12) 0.42850(8)
O14_9 O 0.05157(9) 0.80958(14) 0.28874(8)
Ni6_3 Ni 0.17462(2) 0.74291(2) 0.46363(2)
Ni7_9 Ni 0.03637(2) 0.82538(2) 0.24291(2)
Ni2_3 Ni 0.67462(2) 0.75709(2) 0.53637(2)
S1_13 S 0.98701(3) 0.80776(5) 0.50238(3)
O1_13 O 0.70790(7) 0.78147(6) 0.56548(6)
O2_13 O 0.76500(6) 0.77587(7) 0.61242(6)
O3_13 O 0.72124(7) 0.74773(7) 0.66300(6)
H1_13 H 0.712593 0.729504 0.671422
H2_13 H 0.733644 0.757392 0.678186
O4_13 O 0.65578(9) 0.80288(7) 0.51905(7)
O5_13 O 0.77141(8) 0.77845(17) 0.55688(8)
C1_13 C 0.78269(9) 0.77929(14) 0.58650(10)
C2_13 C 0.84063(10) 0.78764(13) 0.56342(9)
H3_13 H 0.831649 0.785196 0.541962
O6_10 O 0.70893(9) 0.74992(12) 0.49979(8)
H4_13 H 0.724614 0.737331 0.507294
H5_10 H 0.699586 0.740381 0.483039
N1_13 N 0.89511(8) 0.79439(13) 0.53780(8)
H6_13 H 0.885746 0.788343 0.519260
C3_13 C 0.81965(9) 0.78498(12) 0.59144(9)
C4_10 C 0.95911(10) 0.78811(15) 0.44826(10)
H7_10 H 0.955630 0.782565 0.425803
C5_13 C 0.83326(8) 0.78853(11) 0.62345(8)
H8_13 H 0.819648 0.786193 0.642332
C6_13 C 0.94461(10) 0.79848(17) 0.50327(10)
C7_10 C 0.93295(11) 0.78778(15) 0.47259(10)
H9_10 H 0.910907 0.781216 0.468309
O7_13 O 0.94455(9) 0.81339(18) 0.56028(9)
C8_13 C 0.87484(9) 0.79393(14) 0.56726(10)
C9_13 C 0.92794(11) 0.80357(18) 0.53643(11)
C10_10 C 0.98920(10) 0.79708(15) 0.46042(9)
C11_13 C 0.88815(9) 0.79797(14) 0.59911(9)
H10_13 H 0.910971 0.802295 0.601877
C12_13 C 0.88356(10) 0.79843(13) 0.66127(9)
C13_13 C 0.86710(9) 0.79554(12) 0.62710(8)
O10_13 O 0.91436(8) 0.80577(16) 0.66107(8)
O15_13 O 0.63920(11) 0.73568(9) 0.50409(8)
C23_13 C 0.63438(16) 0.70611(15) 0.50386(17)
H15_13 H 0.647302 0.693154 0.518440
N3_13 N 0.6363(3) 0.8552(2) 0.5317(4)
C24_13 C 0.6452(2) 0.8244(2) 0.5388(2)
H16_13 H 0.643229 0.817929 0.561176
C25_10 C 0.6062(3) 0.6535(2) 0.4899(5)
H17_13 H 0.617816 0.646060 0.509693
H18_10 H 0.582499 0.649724 0.492546
H19_10 H 0.614231 0.641274 0.470719
C26_10 C 0.5875(3) 0.7084(3) 0.4651(2)
H20_10 H 0.593580 0.707606 0.441783
H21_10 H 0.565807 0.698273 0.468170
H22_10 H 0.586806 0.731362 0.472516
C27_13 C 0.6221(4) 0.8758(4) 0.5608(5)
H23_13 H 0.639051 0.890738 0.569181
H24_13 H 0.603132 0.888607 0.553056
H25_13 H 0.615008 0.860899 0.578471
C28_10 C 0.6430(6) 0.8668(5) 0.4931(5)
H26_10 H 0.662997 0.856102 0.484783
H27_10 H 0.624186 0.860486 0.479378
H28_10 H 0.645848 0.890812 0.492254
N4_10 N 0.61243(15) 0.68999(16) 0.48485(16)
H29_13 H 0.7239(17) 0.7846(17) 0.5606(17)
H30_13 H 0.696(3) 0.7986(18) 0.560(3)
O17_5 O 0.72203(7) 0.71851(6) 0.59770(7)
O18_7 O 0.66414(6) 0.75390(7) 0.62098(6)
O19_7 O 0.63853(8) 0.75811(12) 0.57150(8)
O20_5 O 0.69042(14) 0.71126(8) 0.55157(9)
Ni2_4 Ni 0.82538(2) 0.24291(2) 0.03637(2)
S1_14 S 0.51299(3) 0.19224(5) 0.00238(3)
O1_14 O 0.79210(7) 0.21853(6) 0.06548(6)
O2_14 O 0.73500(6) 0.22413(7) 0.11242(6)
O3_14 O 0.77876(7) 0.25227(7) 0.16300(6)
H1_14 H 0.787407 0.270496 0.171422
H2_14 H 0.766356 0.242608 0.178186
O4_14 O 0.84422(9) 0.19712(7) 0.01905(7)
O5_14 O 0.72859(8) 0.22155(17) 0.05688(8)
C1_14 C 0.71731(9) 0.22071(14) 0.08650(10)
C2_14 C 0.65937(10) 0.21236(13) 0.06342(9)
H3_14 H 0.668351 0.214804 0.041962
H4_14 H 0.775386 0.262669 0.007294
N1_14 N 0.60489(8) 0.20561(13) 0.03780(8)
H6_14 H 0.614254 0.211657 0.019260
C3_14 C 0.68035(9) 0.21502(12) 0.09144(9)
C5_14 C 0.66674(8) 0.21147(11) 0.12345(8)
H8_14 H 0.680352 0.213807 0.142332
C6_14 C 0.55539(10) 0.20152(17) 0.00327(10)
O7_14 O 0.55545(9) 0.18661(18) 0.06028(9)
C8_14 C 0.62516(9) 0.20607(14) 0.06726(10)
C9_14 C 0.57206(11) 0.19643(18) 0.03643(11)
C11_14 C 0.61185(9) 0.20203(14) 0.09911(9)
H10_14 H 0.589029 0.197705 0.101877
C12_14 C 0.61644(10) 0.20157(13) 0.16127(9)
C13_14 C 0.63290(9) 0.20446(12) 0.12710(8)
O10_14 O 0.58564(8) 0.19423(16) 0.16107(8)
O15_14 O 0.86080(11) 0.26432(9) 0.00409(8)
C23_14 C 0.86562(16) 0.29389(15) 0.00386(17)
H15_14 H 0.852698 0.306846 0.018440
N3_14 N 0.8637(3) 0.1448(2) 0.0317(4)
C24_14 C 0.8548(2) 0.1756(2) 0.0388(2)
H16_14 H 0.856771 0.182071 0.061176
H17_14 H 0.882184 0.353940 0.009693
C27_14 C 0.8779(4) 0.1242(4) 0.0608(5)
H23_14 H 0.860949 0.109262 0.069181
H24_14 H 0.896868 0.111393 0.053056
H25_14 H 0.884992 0.139101 0.078471
H29_14 H 0.7761(17) 0.2154(17) 0.0606(17)
H30_14 H 0.804(3) 0.2014(18) 0.060(3)
O17_6 O 0.77797(7) 0.28149(6) 0.09770(7)
O18_8 O 0.83586(6) 0.24610(7) 0.12098(6)
O19_8 O 0.86147(8) 0.24189(12) 0.07150(8)
O20_6 O 0.80958(14) 0.28874(8) 0.05157(9)
O6_11 O 0.79107(9) 0.25008(12) 0.99979(8)
H5_11 H 0.800414 0.259619 0.983039
C4_11 C 0.54089(10) 0.21189(15) 0.94826(10)
H7_11 H 0.544370 0.217435 0.925803
C7_11 C 0.56705(11) 0.21222(15) 0.97259(10)
H9_11 H 0.589093 0.218784 0.968309
C10_11 C 0.51080(10) 0.20292(15) 0.96042(9)
O9_14 O 0.45200(8) 0.19678(13) 0.96169(8)
N2_14 N 0.47641(8) 0.20612(12) 0.91117(8)
H11_14 H 0.495425 0.205205 0.900899
C14_14 C 0.47676(10) 0.20137(14) 0.94504(10)
C15_14 C 0.44746(9) 0.21246(13) 0.89127(10)
C16_14 C 0.39390(9) 0.22916(10) 0.84934(9)
H12_14 H 0.376216 0.235139 0.835246
C17_14 C 0.39147(8) 0.23441(11) 0.88362(9)
C18_14 C 0.44953(10) 0.20651(13) 0.85702(10)
H13_14 H 0.468816 0.196856 0.847966
C19_14 C 0.41824(9) 0.22595(13) 0.90498(9)
H14_14 H 0.416468 0.229317 0.928057
C20_14 C 0.42272(10) 0.21499(12) 0.83615(9)
C21_14 C 0.42464(9) 0.20887(11) 0.79904(9)
C22_14 C 0.36000(9) 0.24994(11) 0.89806(9)
O11_10 O 0.40230(7) 0.22203(7) 0.78149(6)
O12_8 O 0.33586(6) 0.25390(7) 0.87902(6)
O13_8 O 0.36147(8) 0.25811(12) 0.92850(8)
O14_10 O 0.44843(9) 0.19042(14) 0.78874(8)
C25_11 C 0.8938(3) 0.3465(2) 0.9899(5)
H18_11 H 0.917501 0.350276 0.992546
H19_11 H 0.885769 0.358726 0.970719
C26_11 C 0.9125(3) 0.2916(3) 0.9651(2)
H20_11 H 0.906420 0.292394 0.941783
H21_11 H 0.934193 0.301727 0.968170
H22_11 H 0.913194 0.268638 0.972516
C28_11 C 0.8570(6) 0.1332(5) 0.9931(5)
H26_11 H 0.837003 0.143898 0.984783
H27_11 H 0.875814 0.139514 0.979378
H28_11 H 0.854152 0.109188 0.992254
N4_11 N 0.88757(15) 0.31001(16) 0.98485(16)
Ni6_4 Ni 0.32538(2) 0.25709(2) 0.96363(2)
Ni7_10 Ni 0.46363(2) 0.17462(2) 0.74291(2)
S1_15 S 0.01299(3) 0.30776(5) 0.99762(3)
O1_15 O 0.29210(7) 0.28147(6) 0.93452(6)
O2_15 O 0.23500(6) 0.27587(7) 0.88758(6)
O3_15 O 0.27876(7) 0.24773(7) 0.83700(6)
H1_15 H 0.287407 0.229504 0.828578
H2_15 H 0.266356 0.257392 0.821814
O4_15 O 0.34422(9) 0.30288(7) 0.98095(7)
O5_15 O 0.22859(8) 0.27845(17) 0.94312(8)
C1_15 C 0.21731(9) 0.27929(14) 0.91350(10)
C2_15 C 0.15937(10) 0.28764(13) 0.93658(9)
H3_15 H 0.168351 0.285196 0.958038
H4_15 H 0.275386 0.237331 0.992706
N1_15 N 0.10489(8) 0.29439(13) 0.96220(8)
H6_15 H 0.114254 0.288343 0.980740
C3_15 C 0.18035(9) 0.28498(12) 0.90856(9)
C5_15 C 0.16674(8) 0.28853(11) 0.87655(8)
H8_15 H 0.180352 0.286193 0.857668
C6_15 C 0.05539(10) 0.29848(17) 0.99673(10)
O7_15 O 0.05545(9) 0.31339(18) 0.93972(9)
C8_15 C 0.12516(9) 0.29393(14) 0.93274(10)
C9_15 C 0.07206(11) 0.30357(18) 0.96357(11)
C11_15 C 0.11185(9) 0.29797(14) 0.90089(9)
H10_15 H 0.089029 0.302295 0.898123
C12_15 C 0.11644(10) 0.29843(13) 0.83873(9)
C13_15 C 0.13290(9) 0.29554(12) 0.87290(8)
O10_15 O 0.08564(8) 0.30577(16) 0.83893(8)
O15_15 O 0.36080(11) 0.23568(9) 0.99591(8)
C23_15 C 0.36562(16) 0.20611(15) 0.99614(17)
H15_15 H 0.352698 0.193154 0.981560
N3_15 N 0.3637(3) 0.3552(2) 0.9683(4)
C24_15 C 0.3548(2) 0.3244(2) 0.9612(2)
H16_15 H 0.356771 0.317929 0.938824
H17_15 H 0.382184 0.146060 0.990307
C27_15 C 0.3779(4) 0.3758(4) 0.9392(5)
H23_15 H 0.360949 0.390738 0.930819
H24_15 H 0.396868 0.388607 0.946944
H25_15 H 0.384992 0.360899 0.921529
H29_15 H 0.2761(17) 0.2846(17) 0.9394(17)
H30_15 H 0.304(3) 0.2986(18) 0.940(3)
O17_7 O 0.27797(7) 0.21851(6) 0.90230(7)
O20_7 O 0.30958(14) 0.21126(8) 0.94843(9)
O9_15 O 0.95200(8) 0.30322(13) 0.03831(8)
N2_15 N 0.97641(8) 0.29388(12) 0.08883(8)
H11_15 H 0.995425 0.294795 0.099101
C14_15 C 0.97676(10) 0.29863(14) 0.05496(10)
C15_15 C 0.94746(9) 0.28754(13) 0.10873(10)
C16_15 C 0.89390(9) 0.27084(10) 0.15066(9)
H12_15 H 0.876216 0.264861 0.164754
C17_15 C 0.89147(8) 0.26559(11) 0.11638(9)
C18_15 C 0.94953(10) 0.29349(13) 0.14298(10)
H13_15 H 0.968816 0.303144 0.152034
C19_15 C 0.91824(9) 0.27405(13) 0.09502(9)
H14_15 H 0.916468 0.270683 0.071943
C20_15 C 0.92272(10) 0.28501(12) 0.16385(9)
C21_15 C 0.92464(9) 0.29113(11) 0.20096(9)
C22_15 C 0.86000(9) 0.25006(11) 0.10194(9)
O11_11 O 0.90230(7) 0.27797(7) 0.21851(6)
O14_11 O 0.94843(9) 0.30958(14) 0.21126(8)
Ni7_11 Ni 0.96363(2) 0.32538(2) 0.25709(2)
S1_16 S 0.48701(3) 0.69224(5) 0.49762(3)
O1_16 O 0.20790(7) 0.71853(6) 0.43452(6)
O2_16 O 0.26500(6) 0.72413(7) 0.38758(6)
O3_16 O 0.22124(7) 0.75227(7) 0.33700(6)
H1_16 H 0.212593 0.770496 0.328578
H2_16 H 0.233644 0.742608 0.321814
O4_16 O 0.15578(9) 0.69712(7) 0.48095(7)
O5_16 O 0.27141(8) 0.72155(17) 0.44312(8)
C1_16 C 0.28269(9) 0.72071(14) 0.41350(10)
C2_16 C 0.34063(10) 0.71236(13) 0.43658(9)
H3_16 H 0.331649 0.714804 0.458038
O6_12 O 0.20893(9) 0.75008(12) 0.50021(8)
H4_16 H 0.224614 0.762669 0.492706
H5_12 H 0.199586 0.759619 0.516961
N1_16 N 0.39511(8) 0.70561(13) 0.46220(8)
H6_16 H 0.385746 0.711657 0.480740
C3_16 C 0.31965(9) 0.71502(12) 0.40856(9)
C4_12 C 0.45911(10) 0.71189(15) 0.55174(10)
H7_12 H 0.455630 0.717435 0.574197
C5_16 C 0.33326(8) 0.71147(11) 0.37655(8)
H8_16 H 0.319648 0.713807 0.357668
C6_16 C 0.44461(10) 0.70152(17) 0.49673(10)
C7_12 C 0.43295(11) 0.71222(15) 0.52741(10)
H9_12 H 0.410907 0.718784 0.531691
O7_16 O 0.44455(9) 0.68661(18) 0.43972(9)
C8_16 C 0.37484(9) 0.70607(14) 0.43274(10)
C9_16 C 0.42794(11) 0.69643(18) 0.46357(11)
C10_12 C 0.48920(10) 0.70292(15) 0.53958(9)
C11_16 C 0.38815(9) 0.70203(14) 0.40089(9)
H10_16 H 0.410971 0.697705 0.398123
C12_16 C 0.38356(10) 0.70157(13) 0.33873(9)
C13_16 C 0.36710(9) 0.70446(12) 0.37290(8)
O9_16 O 0.54800(8) 0.69678(13) 0.53831(8)
O10_16 O 0.41436(8) 0.69423(16) 0.33893(8)
N2_16 N 0.52359(8) 0.70612(12) 0.58883(8)
H11_16 H 0.504575 0.705205 0.599101
C14_16 C 0.52324(10) 0.70137(14) 0.55496(10)
C15_16 C 0.55254(9) 0.71246(13) 0.60873(10)
C16_16 C 0.60610(9) 0.72916(10) 0.65066(9)
H12_16 H 0.623784 0.735139 0.664754
C17_16 C 0.60853(8) 0.73441(11) 0.61638(9)
C18_16 C 0.55047(10) 0.70651(13) 0.64298(10)
H13_16 H 0.531184 0.696856 0.652034
C19_16 C 0.58176(9) 0.72595(13) 0.59502(9)
H14_16 H 0.583532 0.729317 0.571943
C20_16 C 0.57728(10) 0.71499(12) 0.66385(9)
C21_16 C 0.57536(9) 0.70887(11) 0.70096(9)
C22_16 C 0.64000(9) 0.74994(11) 0.60194(9)
O11_12 O 0.59770(7) 0.72203(7) 0.71851(6)
O14_12 O 0.55157(9) 0.69042(14) 0.71126(8)
O15_16 O 0.13920(11) 0.76432(9) 0.49591(8)
C23_16 C 0.13438(16) 0.79389(15) 0.49614(17)
H15_16 H 0.147302 0.806846 0.481560
N3_16 N 0.1363(3) 0.6448(2) 0.4683(4)
C24_16 C 0.1452(2) 0.6756(2) 0.4612(2)
H16_16 H 0.143229 0.682071 0.438824
C25_12 C 0.1062(3) 0.8465(2) 0.5101(5)
H17_16 H 0.117816 0.853940 0.490307
H18_12 H 0.082499 0.850276 0.507454
H19_12 H 0.114231 0.858726 0.529281
C26_12 C 0.0875(3) 0.7916(3) 0.5349(2)
H20_12 H 0.093580 0.792394 0.558217
H21_12 H 0.065807 0.801727 0.531830
H22_12 H 0.086806 0.768638 0.527484
C27_16 C 0.1221(4) 0.6242(4) 0.4392(5)
H23_16 H 0.139051 0.609262 0.430819
H24_16 H 0.103132 0.611393 0.446944
H25_16 H 0.115008 0.639101 0.421529
C28_12 C 0.1430(6) 0.6332(5) 0.5069(5)
H26_12 H 0.162997 0.643898 0.515217
H27_12 H 0.124186 0.639514 0.520622
H28_12 H 0.145848 0.609188 0.507746
N4_12 N 0.11243(15) 0.81001(16) 0.51515(16)
H29_16 H 0.2239(17) 0.7154(17) 0.4394(17)
H30_16 H 0.196(3) 0.7014(18) 0.440(3)
Ni7_12 Ni 0.53637(2) 0.67462(2) 0.75709(2)
O17_8 O 0.22203(7) 0.78149(6) 0.40230(7)
O20_8 O 0.19042(14) 0.78874(8) 0.44843(9)
O9_17 O 0.46169(8) 0.04800(8) 0.80322(13)
N2_17 N 0.41117(8) 0.02359(8) 0.79388(12)
H11_17 H 0.400899 0.004575 0.794795
C14_17 C 0.44504(10) 0.02324(10) 0.79863(14)
C15_17 C 0.39127(10) 0.05254(9) 0.78754(13)
C16_17 C 0.34934(9) 0.10610(9) 0.77084(10)
H12_17 H 0.335246 0.123784 0.764861
C17_17 C 0.38362(9) 0.10853(8) 0.76559(11)
C18_17 C 0.35702(10) 0.05047(10) 0.79349(13)
H13_17 H 0.347966 0.031184 0.803144
C19_17 C 0.40498(9) 0.08176(9) 0.77405(13)
H14_17 H 0.428057 0.083532 0.770683
C20_17 C 0.33615(9) 0.07728(10) 0.78501(12)
C21_17 C 0.29904(9) 0.07536(9) 0.79113(11)
C22_17 C 0.39806(9) 0.14000(9) 0.75006(11)
O11_13 O 0.28149(6) 0.09770(7) 0.77797(7)
O12_9 O 0.37902(6) 0.16414(6) 0.74610(7)
O13_9 O 0.42850(8) 0.13853(8) 0.74189(12)
O14_13 O 0.28874(8) 0.05157(9) 0.80958(14)
Ni7_13 Ni 0.24291(2) 0.03637(2) 0.82538(2)
S1_17 S 0.50238(3) 0.98701(3) 0.80776(5)
O1_17 O 0.56548(6) 0.70790(7) 0.78147(6)
O2_17 O 0.61242(6) 0.76500(6) 0.77587(7)
O3_17 O 0.66300(6) 0.72124(7) 0.74773(7)
H1_17 H 0.671422 0.712593 0.729504
H2_17 H 0.678186 0.733644 0.757392
O4_17 O 0.51905(7) 0.65578(9) 0.80288(7)
O5_17 O 0.55688(8) 0.77141(8) 0.77845(17)
C1_17 C 0.58650(10) 0.78269(9) 0.77929(14)
C2_17 C 0.56342(9) 0.84063(10) 0.78764(13)
H3_17 H 0.541962 0.831649 0.785196
O6_13 O 0.49979(8) 0.70893(9) 0.74992(12)
H4_17 H 0.507294 0.724614 0.737331
H5_13 H 0.483039 0.699586 0.740381
N1_17 N 0.53780(8) 0.89511(8) 0.79439(13)
H6_17 H 0.519260 0.885746 0.788343
C3_17 C 0.59144(9) 0.81965(9) 0.78498(12)
C4_13 C 0.44826(10) 0.95911(10) 0.78811(15)
H7_13 H 0.425803 0.955630 0.782565
C5_17 C 0.62345(8) 0.83326(8) 0.78853(11)
H8_17 H 0.642332 0.819648 0.786193
C6_17 C 0.50327(10) 0.94461(10) 0.79848(17)
C7_13 C 0.47259(10) 0.93295(11) 0.78778(15)
H9_13 H 0.468309 0.910907 0.781216
O7_17 O 0.56028(9) 0.94455(9) 0.81339(18)
C8_17 C 0.56726(10) 0.87484(9) 0.79393(14)
C9_17 C 0.53643(11) 0.92794(11) 0.80357(18)
C10_13 C 0.46042(9) 0.98920(10) 0.79708(15)
C11_17 C 0.59911(9) 0.88815(9) 0.79797(14)
H10_17 H 0.601877 0.910971 0.802295
C12_17 C 0.66127(9) 0.88356(10) 0.79843(13)
C13_17 C 0.62710(8) 0.86710(9) 0.79554(12)
O10_17 O 0.66107(8) 0.91436(8) 0.80577(16)
O15_17 O 0.50409(8) 0.63920(11) 0.73568(9)
C23_17 C 0.50386(17) 0.63438(16) 0.70611(15)
H15_17 H 0.518440 0.647302 0.693154
N3_17 N 0.5317(4) 0.6363(3) 0.8552(2)
C24_17 C 0.5388(2) 0.6452(2) 0.8244(2)
H16_17 H 0.561176 0.643229 0.817929
C25_13 C 0.4899(5) 0.6062(3) 0.6535(2)
H17_17 H 0.509693 0.617816 0.646060
H18_13 H 0.492546 0.582499 0.649724
H19_13 H 0.470719 0.614231 0.641274
C26_13 C 0.4651(2) 0.5875(3) 0.7084(3)
H20_13 H 0.441783 0.593580 0.707606
H21_13 H 0.468170 0.565807 0.698273
H22_13 H 0.472516 0.586806 0.731362
C27_17 C 0.5608(5) 0.6221(4) 0.8758(4)
H23_17 H 0.569181 0.639051 0.890738
H24_17 H 0.553056 0.603132 0.888607
H25_17 H 0.578471 0.615008 0.860899
C28_13 C 0.4931(5) 0.6430(6) 0.8668(5)
H26_13 H 0.484783 0.662997 0.856102
H27_13 H 0.479378 0.624186 0.860486
H28_13 H 0.492254 0.645848 0.890812
N4_13 N 0.48485(16) 0.61243(15) 0.68999(16)
H29_17 H 0.5606(17) 0.7239(17) 0.7846(17)
H30_17 H 0.560(3) 0.696(3) 0.7986(18)
O18_9 O 0.62098(6) 0.66414(6) 0.75390(7)
O19_9 O 0.57150(8) 0.63853(8) 0.75811(12)
S1_18 S 0.00238(3) 0.51299(3) 0.19224(5)
O1_18 O 0.06548(6) 0.79210(7) 0.21853(6)
O2_18 O 0.11242(6) 0.73500(6) 0.22413(7)
O3_18 O 0.16300(6) 0.77876(7) 0.25227(7)
H1_18 H 0.171422 0.787407 0.270496
H2_18 H 0.178186 0.766356 0.242608
O4_18 O 0.01905(7) 0.84422(9) 0.19712(7)
O5_18 O 0.05688(8) 0.72859(8) 0.22155(17)
C1_18 C 0.08650(10) 0.71731(9) 0.22071(14)
C2_18 C 0.06342(9) 0.65937(10) 0.21236(13)
H3_18 H 0.041962 0.668351 0.214804
H4_18 H 0.007294 0.775386 0.262669
N1_18 N 0.03780(8) 0.60489(8) 0.20561(13)
H6_18 H 0.019260 0.614254 0.211657
C3_18 C 0.09144(9) 0.68035(9) 0.21502(12)
C5_18 C 0.12345(8) 0.66674(8) 0.21147(11)
H8_18 H 0.142332 0.680352 0.213807
C6_18 C 0.00327(10) 0.55539(10) 0.20152(17)
O7_18 O 0.06028(9) 0.55545(9) 0.18661(18)
C8_18 C 0.06726(10) 0.62516(9) 0.20607(14)
C9_18 C 0.03643(11) 0.57206(11) 0.19643(18)
C11_18 C 0.09911(9) 0.61185(9) 0.20203(14)
H10_18 H 0.101877 0.589029 0.197705
C12_18 C 0.16127(9) 0.61644(10) 0.20157(13)
C13_18 C 0.12710(8) 0.63290(9) 0.20446(12)
O10_18 O 0.16107(8) 0.58564(8) 0.19423(16)
O15_18 O 0.00409(8) 0.86080(11) 0.26432(9)
C23_18 C 0.00386(17) 0.86562(16) 0.29389(15)
H15_18 H 0.018440 0.852698 0.306846
N3_18 N 0.0317(4) 0.8637(3) 0.1448(2)
C24_18 C 0.0388(2) 0.8548(2) 0.1756(2)
H16_18 H 0.061176 0.856771 0.182071
H17_18 H 0.009693 0.882184 0.353940
C27_18 C 0.0608(5) 0.8779(4) 0.1242(4)
H23_18 H 0.069181 0.860949 0.109262
H24_18 H 0.053056 0.896868 0.111393
H25_18 H 0.078471 0.884992 0.139101
H29_18 H 0.0606(17) 0.7761(17) 0.2154(17)
H30_18 H 0.060(3) 0.804(3) 0.2014(18)
O18_10 O 0.12098(6) 0.83586(6) 0.24610(7)
O19_10 O 0.07150(8) 0.86147(8) 0.24189(12)
O6_14 O 0.99979(8) 0.79107(9) 0.25008(12)
H5_14 H 0.983039 0.800414 0.259619
C4_14 C 0.94826(10) 0.54089(10) 0.21189(15)
H7_14 H 0.925803 0.544370 0.217435
C7_14 C 0.97259(10) 0.56705(11) 0.21222(15)
H9_14 H 0.968309 0.589093 0.218784
C10_14 C 0.96042(9) 0.51080(10) 0.20292(15)
O9_18 O 0.96169(8) 0.45200(8) 0.19678(13)
N2_18 N 0.91117(8) 0.47641(8) 0.20612(12)
H11_18 H 0.900899 0.495425 0.205205
C14_18 C 0.94504(10) 0.47676(10) 0.20137(14)
C15_18 C 0.89127(10) 0.44746(9) 0.21246(13)
C16_18 C 0.84934(9) 0.39390(9) 0.22916(10)
H12_18 H 0.835246 0.376216 0.235139
C17_18 C 0.88362(9) 0.39147(8) 0.23441(11)
C18_18 C 0.85702(10) 0.44953(10) 0.20651(13)
H13_18 H 0.847966 0.468816 0.196856
C19_18 C 0.90498(9) 0.41824(9) 0.22595(13)
H14_18 H 0.928057 0.416468 0.229317
C20_18 C 0.83615(9) 0.42272(10) 0.21499(12)
C21_18 C 0.79904(9) 0.42464(9) 0.20887(11)
C22_18 C 0.89806(9) 0.36000(9) 0.24994(11)
O11_14 O 0.78149(6) 0.40230(7) 0.22203(7)
O12_10 O 0.87902(6) 0.33586(6) 0.25390(7)
O13_10 O 0.92850(8) 0.36147(8) 0.25811(12)
O14_14 O 0.78874(8) 0.44843(9) 0.19042(14)
C25_14 C 0.9899(5) 0.8938(3) 0.3465(2)
H18_14 H 0.992546 0.917501 0.350276
H19_14 H 0.970719 0.885769 0.358726
C26_14 C 0.9651(2) 0.9125(3) 0.2916(3)
H20_14 H 0.941783 0.906420 0.292394
H21_14 H 0.968170 0.934193 0.301727
H22_14 H 0.972516 0.913194 0.268638
C28_14 C 0.9931(5) 0.8570(6) 0.1332(5)
H26_14 H 0.984783 0.837003 0.143898
H27_14 H 0.979378 0.875814 0.139514
H28_14 H 0.992254 0.854152 0.109188
N4_14 N 0.98485(16) 0.88757(15) 0.31001(16)
Ni7_14 Ni 0.74291(2) 0.46363(2) 0.17462(2)
O9_19 O 0.03831(8) 0.95200(8) 0.30322(13)
N2_19 N 0.08883(8) 0.97641(8) 0.29388(12)
H11_19 H 0.099101 0.995425 0.294795
C14_19 C 0.05496(10) 0.97676(10) 0.29863(14)
C15_19 C 0.10873(10) 0.94746(9) 0.28754(13)
C16_19 C 0.15066(9) 0.89390(9) 0.27084(10)
H12_19 H 0.164754 0.876216 0.264861
C17_19 C 0.11638(9) 0.89147(8) 0.26559(11)
C18_19 C 0.14298(10) 0.94953(10) 0.29349(13)
H13_19 H 0.152034 0.968816 0.303144
C19_19 C 0.09502(9) 0.91824(9) 0.27405(13)
H14_19 H 0.071943 0.916468 0.270683
C20_19 C 0.16385(9) 0.92272(10) 0.28501(12)
C21_19 C 0.20096(9) 0.92464(9) 0.29113(11)
C22_19 C 0.10194(9) 0.86000(9) 0.25006(11)
O11_15 O 0.21851(6) 0.90230(7) 0.27797(7)
O14_15 O 0.21126(8) 0.94843(9) 0.30958(14)
Ni7_15 Ni 0.25709(2) 0.96363(2) 0.32538(2)
S1_19 S 0.99762(3) 0.01299(3) 0.30776(5)
O1_19 O 0.93452(6) 0.29210(7) 0.28147(6)
O2_19 O 0.88758(6) 0.23500(6) 0.27587(7)
O3_19 O 0.83700(6) 0.27876(7) 0.24773(7)
H1_19 H 0.828578 0.287407 0.229504
H2_19 H 0.821814 0.266356 0.257392
O4_19 O 0.98095(7) 0.34422(9) 0.30288(7)
O5_19 O 0.94312(8) 0.22859(8) 0.27845(17)
C1_19 C 0.91350(10) 0.21731(9) 0.27929(14)
C2_19 C 0.93658(9) 0.15937(10) 0.28764(13)
H3_19 H 0.958038 0.168351 0.285196
H4_19 H 0.992706 0.275386 0.237331
N1_19 N 0.96220(8) 0.10489(8) 0.29439(13)
H6_19 H 0.980740 0.114254 0.288343
C3_19 C 0.90856(9) 0.18035(9) 0.28498(12)
C5_19 C 0.87655(8) 0.16674(8) 0.28853(11)
H8_19 H 0.857668 0.180352 0.286193
C6_19 C 0.99673(10) 0.05539(10) 0.29848(17)
O7_19 O 0.93972(9) 0.05545(9) 0.31339(18)
C8_19 C 0.93274(10) 0.12516(9) 0.29393(14)
C9_19 C 0.96357(11) 0.07206(11) 0.30357(18)
C11_19 C 0.90089(9) 0.11185(9) 0.29797(14)
H10_19 H 0.898123 0.089029 0.302295
C12_19 C 0.83873(9) 0.11644(10) 0.29843(13)
C13_19 C 0.87290(8) 0.13290(9) 0.29554(12)
O10_19 O 0.83893(8) 0.08564(8) 0.30577(16)
O15_19 O 0.99591(8) 0.36080(11) 0.23568(9)
C23_19 C 0.99614(17) 0.36562(16) 0.20611(15)
H15_19 H 0.981560 0.352698 0.193154
N3_19 N 0.9683(4) 0.3637(3) 0.3552(2)
C24_19 C 0.9612(2) 0.3548(2) 0.3244(2)
H16_19 H 0.938824 0.356771 0.317929
H17_19 H 0.990307 0.382184 0.146060
C27_19 C 0.9392(5) 0.3779(4) 0.3758(4)
H23_19 H 0.930819 0.360949 0.390738
H24_19 H 0.946944 0.396868 0.388607
H25_19 H 0.921529 0.384992 0.360899
H29_19 H 0.9394(17) 0.2761(17) 0.2846(17)
H30_19 H 0.940(3) 0.304(3) 0.2986(18)
S1_20 S 0.49762(3) 0.48701(3) 0.69224(5)
O1_20 O 0.43452(6) 0.20790(7) 0.71853(6)
O2_20 O 0.38758(6) 0.26500(6) 0.72413(7)
O3_20 O 0.33700(6) 0.22124(7) 0.75227(7)
H1_20 H 0.328578 0.212593 0.770496
H2_20 H 0.321814 0.233644 0.742608
O4_20 O 0.48095(7) 0.15578(9) 0.69712(7)
O5_20 O 0.44312(8) 0.27141(8) 0.72155(17)
C1_20 C 0.41350(10) 0.28269(9) 0.72071(14)
C2_20 C 0.43658(9) 0.34063(10) 0.71236(13)
H3_20 H 0.458038 0.331649 0.714804
O6_15 O 0.50021(8) 0.20893(9) 0.75008(12)
H4_20 H 0.492706 0.224614 0.762669
H5_15 H 0.516961 0.199586 0.759619
N1_20 N 0.46220(8) 0.39511(8) 0.70561(13)
H6_20 H 0.480740 0.385746 0.711657
C3_20 C 0.40856(9) 0.31965(9) 0.71502(12)
C4_15 C 0.55174(10) 0.45911(10) 0.71189(15)
H7_15 H 0.574197 0.455630 0.717435
C5_20 C 0.37655(8) 0.33326(8) 0.71147(11)
H8_20 H 0.357668 0.319648 0.713807
C6_20 C 0.49673(10) 0.44461(10) 0.70152(17)
C7_15 C 0.52741(10) 0.43295(11) 0.71222(15)
H9_15 H 0.531691 0.410907 0.718784
O7_20 O 0.43972(9) 0.44455(9) 0.68661(18)
C8_20 C 0.43274(10) 0.37484(9) 0.70607(14)
C9_20 C 0.46357(11) 0.42794(11) 0.69643(18)
C10_15 C 0.53958(9) 0.48920(10) 0.70292(15)
C11_20 C 0.40089(9) 0.38815(9) 0.70203(14)
H10_20 H 0.398123 0.410971 0.697705
C12_20 C 0.33873(9) 0.38356(10) 0.70157(13)
C13_20 C 0.37290(8) 0.36710(9) 0.70446(12)
O9_20 O 0.53831(8) 0.54800(8) 0.69678(13)
O10_20 O 0.33893(8) 0.41436(8) 0.69423(16)
N2_20 N 0.58883(8) 0.52359(8) 0.70612(12)
H11_20 H 0.599101 0.504575 0.705205
C14_20 C 0.55496(10) 0.52324(10) 0.70137(14)
C15_20 C 0.60873(10) 0.55254(9) 0.71246(13)
C16_20 C 0.65066(9) 0.60610(9) 0.72916(10)
H12_20 H 0.664754 0.623784 0.735139
C17_20 C 0.61638(9) 0.60853(8) 0.73441(11)
C18_20 C 0.64298(10) 0.55047(10) 0.70651(13)
H13_20 H 0.652034 0.531184 0.696856
C19_20 C 0.59502(9) 0.58176(9) 0.72595(13)
H14_20 H 0.571943 0.583532 0.729317
C20_20 C 0.66385(9) 0.57728(10) 0.71499(12)
C21_20 C 0.70096(9) 0.57536(9) 0.70887(11)
C22_20 C 0.60194(9) 0.64000(9) 0.74994(11)
O11_16 O 0.71851(6) 0.59770(7) 0.72203(7)
O14_16 O 0.71126(8) 0.55157(9) 0.69042(14)
O15_20 O 0.49591(8) 0.13920(11) 0.76432(9)
C23_20 C 0.49614(17) 0.13438(16) 0.79389(15)
H15_20 H 0.481560 0.147302 0.806846
N3_20 N 0.4683(4) 0.1363(3) 0.6448(2)
C24_20 C 0.4612(2) 0.1452(2) 0.6756(2)
H16_20 H 0.438824 0.143229 0.682071
C25_15 C 0.5101(5) 0.1062(3) 0.8465(2)
H17_20 H 0.490307 0.117816 0.853940
H18_15 H 0.507454 0.082499 0.850276
H19_15 H 0.529281 0.114231 0.858726
C26_15 C 0.5349(2) 0.0875(3) 0.7916(3)
H20_15 H 0.558217 0.093580 0.792394
H21_15 H 0.531830 0.065807 0.801727
H22_15 H 0.527484 0.086806 0.768638
C27_20 C 0.4392(5) 0.1221(4) 0.6242(4)
H23_20 H 0.430819 0.139051 0.609262
H24_20 H 0.446944 0.103132 0.611393
H25_20 H 0.421529 0.115008 0.639101
C28_15 C 0.5069(5) 0.1430(6) 0.6332(5)
H26_15 H 0.515217 0.162997 0.643898
H27_15 H 0.520622 0.124186 0.639514
H28_15 H 0.507746 0.145848 0.609188
N4_15 N 0.51515(16) 0.11243(15) 0.81001(16)
H29_20 H 0.4394(17) 0.2239(17) 0.7154(17)
H30_20 H 0.440(3) 0.196(3) 0.7014(18)
Ni7_16 Ni 0.75709(2) 0.53637(2) 0.67462(2)
O9_21 O 0.80322(13) 0.46169(8) 0.04800(8)
N2_21 N 0.79388(12) 0.41117(8) 0.02359(8)
H11_21 H 0.794795 0.400899 0.004575
C14_21 C 0.79863(14) 0.44504(10) 0.02324(10)
C15_21 C 0.78754(13) 0.39127(10) 0.05254(9)
C16_21 C 0.77084(10) 0.34934(9) 0.10610(9)
H12_21 H 0.764861 0.335246 0.123784
C17_21 C 0.76559(11) 0.38362(9) 0.10853(8)
C18_21 C 0.79349(13) 0.35702(10) 0.05047(10)
H13_21 H 0.803144 0.347966 0.031184
C19_21 C 0.77405(13) 0.40498(9) 0.08176(9)
H14_21 H 0.770683 0.428057 0.083532
C20_21 C 0.78501(12) 0.33615(9) 0.07728(10)
C21_21 C 0.79113(11) 0.29904(9) 0.07536(9)
C22_21 C 0.75006(11) 0.39806(9) 0.14000(9)
O12_11 O 0.74610(7) 0.37902(6) 0.16414(6)
O13_11 O 0.74189(12) 0.42850(8) 0.13853(8)
S1_21 S 0.80776(5) 0.50238(3) 0.98701(3)
O1_21 O 0.78147(6) 0.56548(6) 0.70790(7)
O2_21 O 0.77587(7) 0.61242(6) 0.76500(6)
O3_21 O 0.74773(7) 0.66300(6) 0.72124(7)
H1_21 H 0.729504 0.671422 0.712593
H2_21 H 0.757392 0.678186 0.733644
O4_21 O 0.80288(7) 0.51905(7) 0.65578(9)
O5_21 O 0.77845(17) 0.55688(8) 0.77141(8)
C1_21 C 0.77929(14) 0.58650(10) 0.78269(9)
C2_21 C 0.78764(13) 0.56342(9) 0.84063(10)
H3_21 H 0.785196 0.541962 0.831649
O6_16 O 0.74992(12) 0.49979(8) 0.70893(9)
H4_21 H 0.737331 0.507294 0.724614
H5_16 H 0.740381 0.483039 0.699586
N1_21 N 0.79439(13) 0.53780(8) 0.89511(8)
H6_21 H 0.788343 0.519260 0.885746
C3_21 C 0.78498(12) 0.59144(9) 0.81965(9)
C4_16 C 0.78811(15) 0.44826(10) 0.95911(10)
H7_16 H 0.782565 0.425803 0.955630
C5_21 C 0.78853(11) 0.62345(8) 0.83326(8)
H8_21 H 0.786193 0.642332 0.819648
C6_21 C 0.79848(17) 0.50327(10) 0.94461(10)
C7_16 C 0.78778(15) 0.47259(10) 0.93295(11)
H9_16 H 0.781216 0.468309 0.910907
O7_21 O 0.81339(18) 0.56028(9) 0.94455(9)
C8_21 C 0.79393(14) 0.56726(10) 0.87484(9)
C9_21 C 0.80357(18) 0.53643(11) 0.92794(11)
C10_16 C 0.79708(15) 0.46042(9) 0.98920(10)
C11_21 C 0.79797(14) 0.59911(9) 0.88815(9)
H10_21 H 0.802295 0.601877 0.910971
C12_21 C 0.79843(13) 0.66127(9) 0.88356(10)
C13_21 C 0.79554(12) 0.62710(8) 0.86710(9)
O10_21 O 0.80577(16) 0.66107(8) 0.91436(8)
O15_21 O 0.73568(9) 0.50409(8) 0.63920(11)
C23_21 C 0.70611(15) 0.50386(17) 0.63438(16)
H15_21 H 0.693154 0.518440 0.647302
N3_21 N 0.8552(2) 0.5317(4) 0.6363(3)
C24_21 C 0.8244(2) 0.5388(2) 0.6452(2)
H16_21 H 0.817929 0.561176 0.643229
C25_16 C 0.6535(2) 0.4899(5) 0.6062(3)
H17_21 H 0.646060 0.509693 0.617816
H18_16 H 0.649724 0.492546 0.582499
H19_16 H 0.641274 0.470719 0.614231
C26_16 C 0.7084(3) 0.4651(2) 0.5875(3)
H20_16 H 0.707606 0.441783 0.593580
H21_16 H 0.698273 0.468170 0.565807
H22_16 H 0.731362 0.472516 0.586806
C27_21 C 0.8758(4) 0.5608(5) 0.6221(4)
H23_21 H 0.890738 0.569181 0.639051
H24_21 H 0.888607 0.553056 0.603132
H25_21 H 0.860899 0.578471 0.615008
C28_16 C 0.8668(5) 0.4931(5) 0.6430(6)
H26_16 H 0.856102 0.484783 0.662997
H27_16 H 0.860486 0.479378 0.624186
H28_16 H 0.890812 0.492254 0.645848
N4_16 N 0.68999(16) 0.48485(16) 0.61243(15)
H29_21 H 0.7846(17) 0.5606(17) 0.7239(17)
H30_21 H 0.7986(18) 0.560(3) 0.696(3)
O18_11 O 0.75390(7) 0.62098(6) 0.66414(6)
O19_11 O 0.75811(12) 0.57150(8) 0.63853(8)
S1_22 S 0.19224(5) 0.00238(3) 0.51299(3)
O1_22 O 0.21853(6) 0.06548(6) 0.79210(7)
O2_22 O 0.22413(7) 0.11242(6) 0.73500(6)
O3_22 O 0.25227(7) 0.16300(6) 0.77876(7)
H1_22 H 0.270496 0.171422 0.787407
H2_22 H 0.242608 0.178186 0.766356
O4_22 O 0.19712(7) 0.01905(7) 0.84422(9)
O5_22 O 0.22155(17) 0.05688(8) 0.72859(8)
C1_22 C 0.22071(14) 0.08650(10) 0.71731(9)
C2_22 C 0.21236(13) 0.06342(9) 0.65937(10)
H3_22 H 0.214804 0.041962 0.668351
H4_22 H 0.262669 0.007294 0.775386
N1_22 N 0.20561(13) 0.03780(8) 0.60489(8)
H6_22 H 0.211657 0.019260 0.614254
C3_22 C 0.21502(12) 0.09144(9) 0.68035(9)
C5_22 C 0.21147(11) 0.12345(8) 0.66674(8)
H8_22 H 0.213807 0.142332 0.680352
C6_22 C 0.20152(17) 0.00327(10) 0.55539(10)
O7_22 O 0.18661(18) 0.06028(9) 0.55545(9)
C8_22 C 0.20607(14) 0.06726(10) 0.62516(9)
C9_22 C 0.19643(18) 0.03643(11) 0.57206(11)
C11_22 C 0.20203(14) 0.09911(9) 0.61185(9)
H10_22 H 0.197705 0.101877 0.589029
C12_22 C 0.20157(13) 0.16127(9) 0.61644(10)
C13_22 C 0.20446(12) 0.12710(8) 0.63290(9)
O10_22 O 0.19423(16) 0.16107(8) 0.58564(8)
O15_22 O 0.26432(9) 0.00409(8) 0.86080(11)
C23_22 C 0.29389(15) 0.00386(17) 0.86562(16)
H15_22 H 0.306846 0.018440 0.852698
N3_22 N 0.1448(2) 0.0317(4) 0.8637(3)
C24_22 C 0.1756(2) 0.0388(2) 0.8548(2)
H16_22 H 0.182071 0.061176 0.856771
H17_22 H 0.353940 0.009693 0.882184
C27_22 C 0.1242(4) 0.0608(5) 0.8779(4)
H23_22 H 0.109262 0.069181 0.860949
H24_22 H 0.111393 0.053056 0.896868
H25_22 H 0.139101 0.078471 0.884992
H29_22 H 0.2154(17) 0.0606(17) 0.7761(17)
H30_22 H 0.2014(18) 0.060(3) 0.804(3)
O18_12 O 0.24610(7) 0.12098(6) 0.83586(6)
O19_12 O 0.24189(12) 0.07150(8) 0.86147(8)
O6_17 O 0.25008(12) 0.99979(8) 0.79107(9)
H5_17 H 0.259619 0.983039 0.800414
C4_17 C 0.21189(15) 0.94826(10) 0.54089(10)
H7_17 H 0.217435 0.925803 0.544370
C7_17 C 0.21222(15) 0.97259(10) 0.56705(11)
H9_17 H 0.218784 0.968309 0.589093
C10_17 C 0.20292(15) 0.96042(9) 0.51080(10)
O9_22 O 0.19678(13) 0.96169(8) 0.45200(8)
N2_22 N 0.20612(12) 0.91117(8) 0.47641(8)
H11_22 H 0.205205 0.900899 0.495425
C14_22 C 0.20137(14) 0.94504(10) 0.47676(10)
C15_22 C 0.21246(13) 0.89127(10) 0.44746(9)
C16_22 C 0.22916(10) 0.84934(9) 0.39390(9)
H12_22 H 0.235139 0.835246 0.376216
C17_22 C 0.23441(11) 0.88362(9) 0.39147(8)
C18_22 C 0.20651(13) 0.85702(10) 0.44953(10)
H13_22 H 0.196856 0.847966 0.468816
C19_22 C 0.22595(13) 0.90498(9) 0.41824(9)
H14_22 H 0.229317 0.928057 0.416468
C20_22 C 0.21499(12) 0.83615(9) 0.42272(10)
C21_22 C 0.20887(11) 0.79904(9) 0.42464(9)
C22_22 C 0.24994(11) 0.89806(9) 0.36000(9)
O12_12 O 0.25390(7) 0.87902(6) 0.33586(6)
O13_12 O 0.25811(12) 0.92850(8) 0.36147(8)
C25_17 C 0.3465(2) 0.9899(5) 0.8938(3)
H18_17 H 0.350276 0.992546 0.917501
H19_17 H 0.358726 0.970719 0.885769
C26_17 C 0.2916(3) 0.9651(2) 0.9125(3)
H20_17 H 0.292394 0.941783 0.906420
H21_17 H 0.301727 0.968170 0.934193
H22_17 H 0.268638 0.972516 0.913194
C28_17 C 0.1332(5) 0.9931(5) 0.8570(6)
H26_17 H 0.143898 0.984783 0.837003
H27_17 H 0.139514 0.979378 0.875814
H28_17 H 0.109188 0.992254 0.854152
N4_17 N 0.31001(16) 0.98485(16) 0.88757(15)
O9_23 O 0.30322(13) 0.03831(8) 0.95200(8)
N2_23 N 0.29388(12) 0.08883(8) 0.97641(8)
H11_23 H 0.294795 0.099101 0.995425
C14_23 C 0.29863(14) 0.05496(10) 0.97676(10)
C15_23 C 0.28754(13) 0.10873(10) 0.94746(9)
C16_23 C 0.27084(10) 0.15066(9) 0.89390(9)
H12_23 H 0.264861 0.164754 0.876216
C17_23 C 0.26559(11) 0.11638(9) 0.89147(8)
C18_23 C 0.29349(13) 0.14298(10) 0.94953(10)
H13_23 H 0.303144 0.152034 0.968816
C19_23 C 0.27405(13) 0.09502(9) 0.91824(9)
H14_23 H 0.270683 0.071943 0.916468
C20_23 C 0.28501(12) 0.16385(9) 0.92272(10)
C21_23 C 0.29113(11) 0.20096(9) 0.92464(9)
C22_23 C 0.25006(11) 0.10194(9) 0.86000(9)
S1_23 S 0.30776(5) 0.99762(3) 0.01299(3)
O1_23 O 0.28147(6) 0.93452(6) 0.29210(7)
O2_23 O 0.27587(7) 0.88758(6) 0.23500(6)
O3_23 O 0.24773(7) 0.83700(6) 0.27876(7)
H1_23 H 0.229504 0.828578 0.287407
H2_23 H 0.257392 0.821814 0.266356
O4_23 O 0.30288(7) 0.98095(7) 0.34422(9)
O5_23 O 0.27845(17) 0.94312(8) 0.22859(8)
C1_23 C 0.27929(14) 0.91350(10) 0.21731(9)
C2_23 C 0.28764(13) 0.93658(9) 0.15937(10)
H3_23 H 0.285196 0.958038 0.168351
H4_23 H 0.237331 0.992706 0.275386
N1_23 N 0.29439(13) 0.96220(8) 0.10489(8)
H6_23 H 0.288343 0.980740 0.114254
C3_23 C 0.28498(12) 0.90856(9) 0.18035(9)
C5_23 C 0.28853(11) 0.87655(8) 0.16674(8)
H8_23 H 0.286193 0.857668 0.180352
C6_23 C 0.29848(17) 0.99673(10) 0.05539(10)
O7_23 O 0.31339(18) 0.93972(9) 0.05545(9)
C8_23 C 0.29393(14) 0.93274(10) 0.12516(9)
C9_23 C 0.30357(18) 0.96357(11) 0.07206(11)
C11_23 C 0.29797(14) 0.90089(9) 0.11185(9)
H10_23 H 0.302295 0.898123 0.089029
C12_23 C 0.29843(13) 0.83873(9) 0.11644(10)
C13_23 C 0.29554(12) 0.87290(8) 0.13290(9)
O10_23 O 0.30577(16) 0.83893(8) 0.08564(8)
O15_23 O 0.23568(9) 0.99591(8) 0.36080(11)
C23_23 C 0.20611(15) 0.99614(17) 0.36562(16)
H15_23 H 0.193154 0.981560 0.352698
N3_23 N 0.3552(2) 0.9683(4) 0.3637(3)
C24_23 C 0.3244(2) 0.9612(2) 0.3548(2)
H16_23 H 0.317929 0.938824 0.356771
H17_23 H 0.146060 0.990307 0.382184
C27_23 C 0.3758(4) 0.9392(5) 0.3779(4)
H23_23 H 0.390738 0.930819 0.360949
H24_23 H 0.388607 0.946944 0.396868
H25_23 H 0.360899 0.921529 0.384992
H29_23 H 0.2846(17) 0.9394(17) 0.2761(17)
H30_23 H 0.2986(18) 0.940(3) 0.304(3)
S1_24 S 0.69224(5) 0.49762(3) 0.48701(3)
O1_24 O 0.71853(6) 0.43452(6) 0.20790(7)
O2_24 O 0.72413(7) 0.38758(6) 0.26500(6)
O3_24 O 0.75227(7) 0.33700(6) 0.22124(7)
H1_24 H 0.770496 0.328578 0.212593
H2_24 H 0.742608 0.321814 0.233644
O4_24 O 0.69712(7) 0.48095(7) 0.15578(9)
O5_24 O 0.72155(17) 0.44312(8) 0.27141(8)
C1_24 C 0.72071(14) 0.41350(10) 0.28269(9)
C2_24 C 0.71236(13) 0.43658(9) 0.34063(10)
H3_24 H 0.714804 0.458038 0.331649
O6_18 O 0.75008(12) 0.50021(8) 0.20893(9)
H4_24 H 0.762669 0.492706 0.224614
H5_18 H 0.759619 0.516961 0.199586
N1_24 N 0.70561(13) 0.46220(8) 0.39511(8)
H6_24 H 0.711657 0.480740 0.385746
C3_24 C 0.71502(12) 0.40856(9) 0.31965(9)
C4_18 C 0.71189(15) 0.55174(10) 0.45911(10)
H7_18 H 0.717435 0.574197 0.455630
C5_24 C 0.71147(11) 0.37655(8) 0.33326(8)
H8_24 H 0.713807 0.357668 0.319648
C6_24 C 0.70152(17) 0.49673(10) 0.44461(10)
C7_18 C 0.71222(15) 0.52741(10) 0.43295(11)
H9_18 H 0.718784 0.531691 0.410907
O7_24 O 0.68661(18) 0.43972(9) 0.44455(9)
C8_24 C 0.70607(14) 0.43274(10) 0.37484(9)
C9_24 C 0.69643(18) 0.46357(11) 0.42794(11)
C10_18 C 0.70292(15) 0.53958(9) 0.48920(10)
C11_24 C 0.70203(14) 0.40089(9) 0.38815(9)
H10_24 H 0.697705 0.398123 0.410971
C12_24 C 0.70157(13) 0.33873(9) 0.38356(10)
C13_24 C 0.70446(12) 0.37290(8) 0.36710(9)
O9_24 O 0.69678(13) 0.53831(8) 0.54800(8)
O10_24 O 0.69423(16) 0.33893(8) 0.41436(8)
N2_24 N 0.70612(12) 0.58883(8) 0.52359(8)
H11_24 H 0.705205 0.599101 0.504575
C14_24 C 0.70137(14) 0.55496(10) 0.52324(10)
C15_24 C 0.71246(13) 0.60873(10) 0.55254(9)
C16_24 C 0.72916(10) 0.65066(9) 0.60610(9)
H12_24 H 0.735139 0.664754 0.623784
C17_24 C 0.73441(11) 0.61638(9) 0.60853(8)
C18_24 C 0.70651(13) 0.64298(10) 0.55047(10)
H13_24 H 0.696856 0.652034 0.531184
C19_24 C 0.72595(13) 0.59502(9) 0.58176(9)
H14_24 H 0.729317 0.571943 0.583532
C20_24 C 0.71499(12) 0.66385(9) 0.57728(10)
C21_24 C 0.70887(11) 0.70096(9) 0.57536(9)
C22_24 C 0.74994(11) 0.60194(9) 0.64000(9)
O15_24 O 0.76432(9) 0.49591(8) 0.13920(11)
C23_24 C 0.79389(15) 0.49614(17) 0.13438(16)
H15_24 H 0.806846 0.481560 0.147302
N3_24 N 0.6448(2) 0.4683(4) 0.1363(3)
C24_24 C 0.6756(2) 0.4612(2) 0.1452(2)
H16_24 H 0.682071 0.438824 0.143229
C25_18 C 0.8465(2) 0.5101(5) 0.1062(3)
H17_24 H 0.853940 0.490307 0.117816
H18_18 H 0.850276 0.507454 0.082499
H19_18 H 0.858726 0.529281 0.114231
C26_18 C 0.7916(3) 0.5349(2) 0.0875(3)
H20_18 H 0.792394 0.558217 0.093580
H21_18 H 0.801727 0.531830 0.065807
H22_18 H 0.768638 0.527484 0.086806
C27_24 C 0.6242(4) 0.4392(5) 0.1221(4)
H23_24 H 0.609262 0.430819 0.139051
H24_24 H 0.611393 0.446944 0.103132
H25_24 H 0.639101 0.421529 0.115008
C28_18 C 0.6332(5) 0.5069(5) 0.1430(6)
H26_18 H 0.643898 0.515217 0.162997
H27_18 H 0.639514 0.520622 0.124186
H28_18 H 0.609188 0.507746 0.145848
N4_18 N 0.81001(16) 0.51515(16) 0.11243(15)
H29_24 H 0.7154(17) 0.4394(17) 0.2239(17)
H30_24 H 0.7014(18) 0.440(3) 0.196(3)
O6_19 O 0.29107(9) 0.74992(12) 0.99979(8)
H5_19 H 0.300414 0.740381 0.983039
C4_19 C 0.04089(10) 0.78811(15) 0.94826(10)
H7_19 H 0.044370 0.782565 0.925803
C7_19 C 0.06705(11) 0.78778(15) 0.97259(10)
H9_19 H 0.089093 0.781216 0.968309
C10_19 C 0.01080(10) 0.79708(15) 0.96042(9)
C25_19 C 0.3938(3) 0.6535(2) 0.9899(5)
H18_19 H 0.417501 0.649724 0.992546
H19_19 H 0.385769 0.641274 0.970719
C26_19 C 0.4125(3) 0.7084(3) 0.9651(2)
H20_19 H 0.406420 0.707606 0.941783
H21_19 H 0.434193 0.698273 0.968170
H22_19 H 0.413194 0.731362 0.972516
C28_19 C 0.3570(6) 0.8668(5) 0.9931(5)
H26_19 H 0.337003 0.856102 0.984783
H27_19 H 0.375814 0.860486 0.979378
H28_19 H 0.354152 0.890812 0.992254
N4_19 N 0.38757(15) 0.68999(16) 0.98485(16)
O6_20 O 0.99979(8) 0.29107(9) 0.74992(12)
H5_20 H 0.983039 0.300414 0.740381
C4_20 C 0.94826(10) 0.04089(10) 0.78811(15)
H7_20 H 0.925803 0.044370 0.782565
C7_20 C 0.97259(10) 0.06705(11) 0.78778(15)
H9_20 H 0.968309 0.089093 0.781216
C10_20 C 0.96042(9) 0.01080(10) 0.79708(15)
C25_20 C 0.9899(5) 0.3938(3) 0.6535(2)
H18_20 H 0.992546 0.417501 0.649724
H19_20 H 0.970719 0.385769 0.641274
C26_20 C 0.9651(2) 0.4125(3) 0.7084(3)
H20_20 H 0.941783 0.406420 0.707606
H21_20 H 0.968170 0.434193 0.698273
H22_20 H 0.972516 0.413194 0.731362
C28_20 C 0.9931(5) 0.3570(6) 0.8668(5)
H26_20 H 0.984783 0.337003 0.856102
H27_20 H 0.979378 0.375814 0.860486
H28_20 H 0.992254 0.354152 0.890812
N4_20 N 0.98485(16) 0.38757(15) 0.68999(16)
O6_21 O 0.74992(12) 0.99979(8) 0.29107(9)
H5_21 H 0.740381 0.983039 0.300414
C4_21 C 0.78811(15) 0.94826(10) 0.04089(10)
H7_21 H 0.782565 0.925803 0.044370
C7_21 C 0.78778(15) 0.97259(10) 0.06705(11)
H9_21 H 0.781216 0.968309 0.089093
C10_21 C 0.79708(15) 0.96042(9) 0.01080(10)
C25_21 C 0.6535(2) 0.9899(5) 0.3938(3)
H18_21 H 0.649724 0.992546 0.417501
H19_21 H 0.641274 0.970719 0.385769
C26_21 C 0.7084(3) 0.9651(2) 0.4125(3)
H20_21 H 0.707606 0.941783 0.406420
H21_21 H 0.698273 0.968170 0.434193
H22_21 H 0.731362 0.972516 0.413194
C28_21 C 0.8668(5) 0.9931(5) 0.3570(6)
H26_21 H 0.856102 0.984783 0.337003
H27_21 H 0.860486 0.979378 0.375814
H28_21 H 0.890812 0.992254 0.354152
N4_21 N 0.68999(16) 0.98485(16) 0.38757(15)
Ni1_3 Ni 0.28647(2) 0.23461(2) 0.38544(2)
Ni2_5 Ni 0.32538(2) 0.24291(2) 0.46363(2)
S1_25 S 0.01299(3) 0.19224(5) 0.49762(3)
O1_25 O 0.29210(7) 0.21853(6) 0.43452(6)
O2_25 O 0.23500(6) 0.22413(7) 0.38758(6)
O3_25 O 0.27876(7) 0.25227(7) 0.33700(6)
H1_25 H 0.287407 0.270496 0.328578
H2_25 H 0.266356 0.242608 0.321814
O4_25 O 0.34422(9) 0.19712(7) 0.48095(7)
O5_25 O 0.22859(8) 0.22155(17) 0.44312(8)
C1_25 C 0.21731(9) 0.22071(14) 0.41350(10)
C2_25 C 0.15937(10) 0.21236(13) 0.43658(9)
H3_25 H 0.168351 0.214804 0.458038
O6_22 O 0.29107(9) 0.25008(12) 0.50021(8)
H4_25 H 0.275386 0.262669 0.492706
H5_22 H 0.300414 0.259619 0.516961
N1_25 N 0.10489(8) 0.20561(13) 0.46220(8)
H6_25 H 0.114254 0.211657 0.480740
C3_25 C 0.18035(9) 0.21502(12) 0.40856(9)
C4_22 C 0.04089(10) 0.21189(15) 0.55174(10)
H7_22 H 0.044370 0.217435 0.574197
C5_25 C 0.16674(8) 0.21147(11) 0.37655(8)
H8_25 H 0.180352 0.213807 0.357668
C6_25 C 0.05539(10) 0.20152(17) 0.49673(10)
C7_22 C 0.06705(11) 0.21222(15) 0.52741(10)
H9_22 H 0.089093 0.218784 0.531691
O7_25 O 0.05545(9) 0.18661(18) 0.43972(9)
C8_25 C 0.12516(9) 0.20607(14) 0.43274(10)
C9_25 C 0.07206(11) 0.19643(18) 0.46357(11)
C10_22 C 0.01080(10) 0.20292(15) 0.53958(9)
C11_25 C 0.11185(9) 0.20203(14) 0.40089(9)
H10_25 H 0.089029 0.197705 0.398123
C12_25 C 0.11644(10) 0.20157(13) 0.33873(9)
C13_25 C 0.13290(9) 0.20446(12) 0.37290(8)
O8_13 O 0.13396(5) 0.20740(6) 0.31324(5)
O10_25 O 0.08564(8) 0.19423(16) 0.33893(8)
O15_25 O 0.36080(11) 0.26432(9) 0.49591(8)
C23_25 C 0.36562(16) 0.29389(15) 0.49614(17)
H15_25 H 0.352698 0.306846 0.481560
N3_25 N 0.3637(3) 0.1448(2) 0.4683(4)
C24_25 C 0.3548(2) 0.1756(2) 0.4612(2)
H16_25 H 0.356771 0.182071 0.438824
C25_22 C 0.3938(3) 0.3465(2) 0.5101(5)
H17_25 H 0.382184 0.353940 0.490307
H18_22 H 0.417501 0.350276 0.507454
H19_22 H 0.385769 0.358726 0.529281
C26_22 C 0.4125(3) 0.2916(3) 0.5349(2)
H20_22 H 0.406420 0.292394 0.558217
H21_22 H 0.434193 0.301727 0.531830
H22_22 H 0.413194 0.268638 0.527484
C27_25 C 0.3779(4) 0.1242(4) 0.4392(5)
H23_25 H 0.360949 0.109262 0.430819
H24_25 H 0.396868 0.111393 0.446944
H25_25 H 0.384992 0.139101 0.421529
C28_22 C 0.3570(6) 0.1332(5) 0.5069(5)
H26_22 H 0.337003 0.143898 0.515217
H27_22 H 0.375814 0.139514 0.520622
H28_22 H 0.354152 0.109188 0.507746
N4_22 N 0.38757(15) 0.31001(16) 0.51515(16)
H29_25 H 0.2761(17) 0.2154(17) 0.4394(17)
H30_25 H 0.304(3) 0.2014(18) 0.440(3)
Ni5_13 Ni 0.11456(2) 0.21353(2) 0.26539(2)
O16_13 O 0.29260(6) 0.18676(5) 0.36604(5)
O17_9 O 0.27797(7) 0.28149(6) 0.40230(7)
O18_13 O 0.33586(6) 0.24610(7) 0.37902(6)
O19_13 O 0.36147(8) 0.24189(12) 0.42850(8)
O20_9 O 0.30958(14) 0.28874(8) 0.44843(9)
O9_25 O 0.95200(8) 0.19678(13) 0.53831(8)
N2_25 N 0.97641(8) 0.20612(12) 0.58883(8)
H11_25 H 0.995425 0.205205 0.599101
C14_25 C 0.97676(10) 0.20137(14) 0.55496(10)
C15_25 C 0.94746(9) 0.21246(13) 0.60873(10)
C16_25 C 0.89390(9) 0.22916(10) 0.65066(9)
H12_25 H 0.876216 0.235139 0.664754
C17_25 C 0.89147(8) 0.23441(11) 0.61638(9)
C18_25 C 0.94953(10) 0.20651(13) 0.64298(10)
H13_25 H 0.968816 0.196856 0.652034
C19_25 C 0.91824(9) 0.22595(13) 0.59502(9)
H14_25 H 0.916468 0.229317 0.571943
C20_25 C 0.92272(10) 0.21499(12) 0.66385(9)
C21_25 C 0.92464(9) 0.20887(11) 0.70096(9)
C22_25 C 0.86000(9) 0.24994(11) 0.60194(9)
O11_17 O 0.90230(7) 0.22203(7) 0.71851(6)
O12_13 O 0.83586(6) 0.25390(7) 0.62098(6)
O13_13 O 0.86147(8) 0.25811(12) 0.57150(8)
O14_17 O 0.94843(9) 0.19042(14) 0.71126(8)
Ni3_3 Ni 0.78647(2) 0.26539(2) 0.61456(2)
Ni4_9 Ni 0.88544(2) 0.21353(2) 0.76539(2)
Ni6_5 Ni 0.82538(2) 0.25709(2) 0.53637(2)
Ni7_17 Ni 0.96363(2) 0.17462(2) 0.75709(2)
O6_23 O 0.20893(9) 0.74992(12) 0.00021(8)
H5_23 H 0.199586 0.740381 0.016961
C4_23 C 0.45911(10) 0.78811(15) 0.05174(10)
H7_23 H 0.455630 0.782565 0.074197
C7_23 C 0.43295(11) 0.78778(15) 0.02741(10)
H9_23 H 0.410907 0.781216 0.031691
C10_23 C 0.48920(10) 0.79708(15) 0.03958(9)
O9_26 O 0.54800(8) 0.80322(13) 0.03831(8)
N2_26 N 0.52359(8) 0.79388(12) 0.08883(8)
H11_26 H 0.504575 0.794795 0.099101
C14_26 C 0.52324(10) 0.79863(14) 0.05496(10)
C15_26 C 0.55254(9) 0.78754(13) 0.10873(10)
C16_26 C 0.60610(9) 0.77084(10) 0.15066(9)
H12_26 H 0.623784 0.764861 0.164754
C17_26 C 0.60853(8) 0.76559(11) 0.11638(9)
C18_26 C 0.55047(10) 0.79349(13) 0.14298(10)
H13_26 H 0.531184 0.803144 0.152034
C19_26 C 0.58176(9) 0.77405(13) 0.09502(9)
H14_26 H 0.583532 0.770683 0.071943
C20_26 C 0.57728(10) 0.78501(12) 0.16385(9)
C21_26 C 0.57536(9) 0.79113(11) 0.20096(9)
C22_26 C 0.64000(9) 0.75006(11) 0.10194(9)
O11_18 O 0.59770(7) 0.77797(7) 0.21851(6)
O12_14 O 0.66414(6) 0.74610(7) 0.12098(6)
O13_14 O 0.63853(8) 0.74189(12) 0.07150(8)
O14_18 O 0.55157(9) 0.80958(14) 0.21126(8)
C25_23 C 0.1062(3) 0.6535(2) 0.0101(5)
H18_23 H 0.082499 0.649724 0.007454
H19_23 H 0.114231 0.641274 0.029281
C26_23 C 0.0875(3) 0.7084(3) 0.0349(2)
H20_23 H 0.093580 0.707606 0.058217
H21_23 H 0.065807 0.698273 0.031830
H22_23 H 0.086806 0.731362 0.027484
C28_23 C 0.1430(6) 0.8668(5) 0.0069(5)
H26_23 H 0.162997 0.856102 0.015217
H27_23 H 0.124186 0.860486 0.020622
H28_23 H 0.145848 0.890812 0.007746
N4_23 N 0.11243(15) 0.68999(16) 0.01515(16)
Ni3_4 Ni 0.71353(2) 0.73461(2) 0.11456(2)
Ni4_10 Ni 0.61456(2) 0.78647(2) 0.26539(2)
Ni6_6 Ni 0.67462(2) 0.74291(2) 0.03637(2)
Ni7_18 Ni 0.53637(2) 0.82538(2) 0.25709(2)
Ni1_4 Ni 0.21353(2) 0.76539(2) 0.88544(2)
Ni2_6 Ni 0.17462(2) 0.75709(2) 0.96363(2)
S1_26 S 0.48701(3) 0.80776(5) 0.99762(3)
O1_26 O 0.20790(7) 0.78147(6) 0.93452(6)
O2_26 O 0.26500(6) 0.77587(7) 0.88758(6)
O3_26 O 0.22124(7) 0.74773(7) 0.83700(6)
H1_26 H 0.212593 0.729504 0.828578
H2_26 H 0.233644 0.757392 0.821814
O4_26 O 0.15578(9) 0.80288(7) 0.98095(7)
O5_26 O 0.27141(8) 0.77845(17) 0.94312(8)
C1_26 C 0.28269(9) 0.77929(14) 0.91350(10)
C2_26 C 0.34063(10) 0.78764(13) 0.93658(9)
H3_26 H 0.331649 0.785196 0.958038
H4_26 H 0.224614 0.737331 0.992706
N1_26 N 0.39511(8) 0.79439(13) 0.96220(8)
H6_26 H 0.385746 0.788343 0.980740
C3_26 C 0.31965(9) 0.78498(12) 0.90856(9)
C5_26 C 0.33326(8) 0.78853(11) 0.87655(8)
H8_26 H 0.319648 0.786193 0.857668
C6_26 C 0.44461(10) 0.79848(17) 0.99673(10)
O7_26 O 0.44455(9) 0.81339(18) 0.93972(9)
C8_26 C 0.37484(9) 0.79393(14) 0.93274(10)
C9_26 C 0.42794(11) 0.80357(18) 0.96357(11)
C11_26 C 0.38815(9) 0.79797(14) 0.90089(9)
H10_26 H 0.410971 0.802295 0.898123
C12_26 C 0.38356(10) 0.79843(13) 0.83873(9)
C13_26 C 0.36710(9) 0.79554(12) 0.87290(8)
O8_14 O 0.36604(5) 0.79260(6) 0.81324(5)
O10_26 O 0.41436(8) 0.80577(16) 0.83893(8)
O15_26 O 0.13920(11) 0.73568(9) 0.99591(8)
C23_26 C 0.13438(16) 0.70611(15) 0.99614(17)
H15_26 H 0.147302 0.693154 0.981560
N3_26 N 0.1363(3) 0.8552(2) 0.9683(4)
C24_26 C 0.1452(2) 0.8244(2) 0.9612(2)
H16_26 H 0.143229 0.817929 0.938824
H17_26 H 0.117816 0.646060 0.990307
C27_26 C 0.1221(4) 0.8758(4) 0.9392(5)
H23_26 H 0.139051 0.890738 0.930819
H24_26 H 0.103132 0.888607 0.946944
H25_26 H 0.115008 0.860899 0.921529
H29_26 H 0.2239(17) 0.7846(17) 0.9394(17)
H30_26 H 0.196(3) 0.7986(18) 0.940(3)
Ni5_14 Ni 0.38544(2) 0.78647(2) 0.76539(2)
O16_14 O 0.20740(6) 0.81324(5) 0.86604(5)
O17_10 O 0.22203(7) 0.71851(6) 0.90230(7)
O18_14 O 0.16414(6) 0.75390(7) 0.87902(6)
O19_14 O 0.13853(8) 0.75811(12) 0.92850(8)
O20_10 O 0.19042(14) 0.71126(8) 0.94843(9)
O9_27 O 0.04800(8) 0.69678(13) 0.96169(8)
N2_27 N 0.02359(8) 0.70612(12) 0.91117(8)
H11_27 H 0.004575 0.705205 0.900899
C14_27 C 0.02324(10) 0.70137(14) 0.94504(10)
C15_27 C 0.05254(9) 0.71246(13) 0.89127(10)
C16_27 C 0.10610(9) 0.72916(10) 0.84934(9)
H12_27 H 0.123784 0.735139 0.835246
C17_27 C 0.10853(8) 0.73441(11) 0.88362(9)
C18_27 C 0.05047(10) 0.70651(13) 0.85702(10)
H13_27 H 0.031184 0.696856 0.847966
C19_27 C 0.08176(9) 0.72595(13) 0.90498(9)
H14_27 H 0.083532 0.729317 0.928057
C20_27 C 0.07728(10) 0.71499(12) 0.83615(9)
C21_27 C 0.07536(9) 0.70887(11) 0.79904(9)
C22_27 C 0.14000(9) 0.74994(11) 0.89806(9)
O11_19 O 0.09770(7) 0.72203(7) 0.78149(6)
O14_19 O 0.05157(9) 0.69042(14) 0.78874(8)
Ni4_11 Ni 0.11456(2) 0.71353(2) 0.73461(2)
Ni7_19 Ni 0.03637(2) 0.67462(2) 0.74291(2)
S1_27 S 0.98701(3) 0.69224(5) 0.00238(3)
O1_27 O 0.70790(7) 0.71853(6) 0.06548(6)
O2_27 O 0.76500(6) 0.72413(7) 0.11242(6)
O3_27 O 0.72124(7) 0.75227(7) 0.16300(6)
H1_27 H 0.712593 0.770496 0.171422
H2_27 H 0.733644 0.742608 0.178186
O4_27 O 0.65578(9) 0.69712(7) 0.01905(7)
O5_27 O 0.77141(8) 0.72155(17) 0.05688(8)
C1_27 C 0.78269(9) 0.72071(14) 0.08650(10)
C2_27 C 0.84063(10) 0.71236(13) 0.06342(9)
H3_27 H 0.831649 0.714804 0.041962
H4_27 H 0.724614 0.762669 0.007294
N1_27 N 0.89511(8) 0.70561(13) 0.03780(8)
H6_27 H 0.885746 0.711657 0.019260
C3_27 C 0.81965(9) 0.71502(12) 0.09144(9)
C5_27 C 0.83326(8) 0.71147(11) 0.12345(8)
H8_27 H 0.819648 0.713807 0.142332
C6_27 C 0.94461(10) 0.70152(17) 0.00327(10)
O7_27 O 0.94455(9) 0.68661(18) 0.06028(9)
C8_27 C 0.87484(9) 0.70607(14) 0.06726(10)
C9_27 C 0.92794(11) 0.69643(18) 0.03643(11)
C11_27 C 0.88815(9) 0.70203(14) 0.09911(9)
H10_27 H 0.910971 0.697705 0.101877
C12_27 C 0.88356(10) 0.70157(13) 0.16127(9)
C13_27 C 0.86710(9) 0.70446(12) 0.12710(8)
O8_15 O 0.86604(5) 0.70740(6) 0.18676(5)
O10_27 O 0.91436(8) 0.69423(16) 0.16107(8)
O15_27 O 0.63920(11) 0.76432(9) 0.00409(8)
C23_27 C 0.63438(16) 0.79389(15) 0.00386(17)
H15_27 H 0.647302 0.806846 0.018440
N3_27 N 0.6363(3) 0.6448(2) 0.0317(4)
C24_27 C 0.6452(2) 0.6756(2) 0.0388(2)
H16_27 H 0.643229 0.682071 0.061176
H17_27 H 0.617816 0.853940 0.009693
C27_27 C 0.6221(4) 0.6242(4) 0.0608(5)
H23_27 H 0.639051 0.609262 0.069181
H24_27 H 0.603132 0.611393 0.053056
H25_27 H 0.615008 0.639101 0.078471
H29_27 H 0.7239(17) 0.7154(17) 0.0606(17)
H30_27 H 0.696(3) 0.7014(18) 0.060(3)
Ni5_15 Ni 0.88544(2) 0.71353(2) 0.23461(2)
O16_15 O 0.70740(6) 0.68676(5) 0.13396(5)
O17_11 O 0.72203(7) 0.78149(6) 0.09770(7)
O20_11 O 0.69042(14) 0.78874(8) 0.05157(9)
S1_28 S 0.51299(3) 0.30776(5) 0.50238(3)
O1_28 O 0.79210(7) 0.28147(6) 0.56548(6)
O2_28 O 0.73500(6) 0.27587(7) 0.61242(6)
O3_28 O 0.77876(7) 0.24773(7) 0.66300(6)
H1_28 H 0.787407 0.229504 0.671422
H2_28 H 0.766356 0.257392 0.678186
O4_28 O 0.84422(9) 0.30288(7) 0.51905(7)
O5_28 O 0.72859(8) 0.27845(17) 0.55688(8)
C1_28 C 0.71731(9) 0.27929(14) 0.58650(10)
C2_28 C 0.65937(10) 0.28764(13) 0.56342(9)
H3_28 H 0.668351 0.285196 0.541962
O6_24 O 0.79107(9) 0.24992(12) 0.49979(8)
H4_28 H 0.775386 0.237331 0.507294
H5_24 H 0.800414 0.240381 0.483039
N1_28 N 0.60489(8) 0.29439(13) 0.53780(8)
H6_28 H 0.614254 0.288343 0.519260
C3_28 C 0.68035(9) 0.28498(12) 0.59144(9)
C4_24 C 0.54089(10) 0.28811(15) 0.44826(10)
H7_24 H 0.544370 0.282565 0.425803
C5_28 C 0.66674(8) 0.28853(11) 0.62345(8)
H8_28 H 0.680352 0.286193 0.642332
C6_28 C 0.55539(10) 0.29848(17) 0.50327(10)
C7_24 C 0.56705(11) 0.28778(15) 0.47259(10)
H9_24 H 0.589093 0.281216 0.468309
O7_28 O 0.55545(9) 0.31339(18) 0.56028(9)
C8_28 C 0.62516(9) 0.29393(14) 0.56726(10)
C9_28 C 0.57206(11) 0.30357(18) 0.53643(11)
C10_24 C 0.51080(10) 0.29708(15) 0.46042(9)
C11_28 C 0.61185(9) 0.29797(14) 0.59911(9)
H10_28 H 0.589029 0.302295 0.601877
C12_28 C 0.61644(10) 0.29843(13) 0.66127(9)
C13_28 C 0.63290(9) 0.29554(12) 0.62710(8)
O8_16 O 0.63396(5) 0.29260(6) 0.68676(5)
O9_28 O 0.45200(8) 0.30322(13) 0.46169(8)
O10_28 O 0.58564(8) 0.30577(16) 0.66107(8)
N2_28 N 0.47641(8) 0.29388(12) 0.41117(8)
H11_28 H 0.495425 0.294795 0.400899
C14_28 C 0.47676(10) 0.29863(14) 0.44504(10)
C15_28 C 0.44746(9) 0.28754(13) 0.39127(10)
C16_28 C 0.39390(9) 0.27084(10) 0.34934(9)
H12_28 H 0.376216 0.264861 0.335246
C17_28 C 0.39147(8) 0.26559(11) 0.38362(9)
C18_28 C 0.44953(10) 0.29349(13) 0.35702(10)
H13_28 H 0.468816 0.303144 0.347966
C19_28 C 0.41824(9) 0.27405(13) 0.40498(9)
H14_28 H 0.416468 0.270683 0.428057
C20_28 C 0.42272(10) 0.28501(12) 0.33615(9)
C21_28 C 0.42464(9) 0.29113(11) 0.29904(9)
C22_28 C 0.36000(9) 0.25006(11) 0.39806(9)
O11_20 O 0.40230(7) 0.27797(7) 0.28149(6)
O14_20 O 0.44843(9) 0.30958(14) 0.28874(8)
O15_28 O 0.86080(11) 0.23568(9) 0.50409(8)
C23_28 C 0.86562(16) 0.20611(15) 0.50386(17)
H15_28 H 0.852698 0.193154 0.518440
N3_28 N 0.8637(3) 0.3552(2) 0.5317(4)
C24_28 C 0.8548(2) 0.3244(2) 0.5388(2)
H16_28 H 0.856771 0.317929 0.561176
C25_24 C 0.8938(3) 0.1535(2) 0.4899(5)
H17_28 H 0.882184 0.146060 0.509693
H18_24 H 0.917501 0.149724 0.492546
H19_24 H 0.885769 0.141274 0.470719
C26_24 C 0.9125(3) 0.2084(3) 0.4651(2)
H20_24 H 0.906420 0.207606 0.441783
H21_24 H 0.934193 0.198273 0.468170
H22_24 H 0.913194 0.231362 0.472516
C27_28 C 0.8779(4) 0.3758(4) 0.5608(5)
H23_28 H 0.860949 0.390738 0.569181
H24_28 H 0.896868 0.388607 0.553056
H25_28 H 0.884992 0.360899 0.578471
C28_24 C 0.8570(6) 0.3668(5) 0.4931(5)
H26_24 H 0.837003 0.356102 0.484783
H27_24 H 0.875814 0.360486 0.479378
H28_24 H 0.854152 0.390812 0.492254
N4_24 N 0.88757(15) 0.18999(16) 0.48485(16)
H29_28 H 0.7761(17) 0.2846(17) 0.5606(17)
H30_28 H 0.804(3) 0.2986(18) 0.560(3)
Ni4_12 Ni 0.38544(2) 0.28647(2) 0.23461(2)
Ni5_16 Ni 0.61456(2) 0.28647(2) 0.73461(2)
Ni7_20 Ni 0.46363(2) 0.32538(2) 0.24291(2)
O16_16 O 0.79260(6) 0.31324(5) 0.63396(5)
O17_12 O 0.77797(7) 0.21851(6) 0.59770(7)
O20_12 O 0.80958(14) 0.21126(8) 0.55157(9)
S1_29 S 0.49762(3) 0.01299(3) 0.19224(5)
O1_29 O 0.43452(6) 0.29210(7) 0.21853(6)
O2_29 O 0.38758(6) 0.23500(6) 0.22413(7)
O3_29 O 0.33700(6) 0.27876(7) 0.25227(7)
H1_29 H 0.328578 0.287407 0.270496
H2_29 H 0.321814 0.266356 0.242608
O4_29 O 0.48095(7) 0.34422(9) 0.19712(7)
O5_29 O 0.44312(8) 0.22859(8) 0.22155(17)
C1_29 C 0.41350(10) 0.21731(9) 0.22071(14)
C2_29 C 0.43658(9) 0.15937(10) 0.21236(13)
H3_29 H 0.458038 0.168351 0.214804
O6_25 O 0.50021(8) 0.29107(9) 0.25008(12)
H4_29 H 0.492706 0.275386 0.262669
H5_25 H 0.516961 0.300414 0.259619
N1_29 N 0.46220(8) 0.10489(8) 0.20561(13)
H6_29 H 0.480740 0.114254 0.211657
C3_29 C 0.40856(9) 0.18035(9) 0.21502(12)
C4_25 C 0.55174(10) 0.04089(10) 0.21189(15)
H7_25 H 0.574197 0.044370 0.217435
C5_29 C 0.37655(8) 0.16674(8) 0.21147(11)
H8_29 H 0.357668 0.180352 0.213807
C6_29 C 0.49673(10) 0.05539(10) 0.20152(17)
C7_25 C 0.52741(10) 0.06705(11) 0.21222(15)
H9_25 H 0.531691 0.089093 0.218784
O7_29 O 0.43972(9) 0.05545(9) 0.18661(18)
C8_29 C 0.43274(10) 0.12516(9) 0.20607(14)
C9_29 C 0.46357(11) 0.07206(11) 0.19643(18)
C10_25 C 0.53958(9) 0.01080(10) 0.20292(15)
C11_29 C 0.40089(9) 0.11185(9) 0.20203(14)
H10_29 H 0.398123 0.089029 0.197705
C12_29 C 0.33873(9) 0.11644(10) 0.20157(13)
C13_29 C 0.37290(8) 0.13290(9) 0.20446(12)
O8_17 O 0.31324(5) 0.13396(5) 0.20740(6)
O10_29 O 0.33893(8) 0.08564(8) 0.19423(16)
O15_29 O 0.49591(8) 0.36080(11) 0.26432(9)
C23_29 C 0.49614(17) 0.36562(16) 0.29389(15)
H15_29 H 0.481560 0.352698 0.306846
N3_29 N 0.4683(4) 0.3637(3) 0.1448(2)
C24_29 C 0.4612(2) 0.3548(2) 0.1756(2)
H16_29 H 0.438824 0.356771 0.182071
C25_25 C 0.5101(5) 0.3938(3) 0.3465(2)
H17_29 H 0.490307 0.382184 0.353940
H18_25 H 0.507454 0.417501 0.350276
H19_25 H 0.529281 0.385769 0.358726
C26_25 C 0.5349(2) 0.4125(3) 0.2916(3)
H20_25 H 0.558217 0.406420 0.292394
H21_25 H 0.531830 0.434193 0.301727
H22_25 H 0.527484 0.413194 0.268638
C27_29 C 0.4392(5) 0.3779(4) 0.1242(4)
H23_29 H 0.430819 0.360949 0.109262
H24_29 H 0.446944 0.396868 0.111393
H25_29 H 0.421529 0.384992 0.139101
C28_25 C 0.5069(5) 0.3570(6) 0.1332(5)
H26_25 H 0.515217 0.337003 0.143898
H27_25 H 0.520622 0.375814 0.139514
H28_25 H 0.507746 0.354152 0.109188
N4_25 N 0.51515(16) 0.38757(15) 0.31001(16)
H29_29 H 0.4394(17) 0.2761(17) 0.2154(17)
H30_29 H 0.440(3) 0.304(3) 0.2014(18)
Ni5_17 Ni 0.26539(2) 0.11456(2) 0.21353(2)
O16_17 O 0.36604(5) 0.29260(6) 0.18676(5)
O18_15 O 0.37902(6) 0.33586(6) 0.24610(7)
O19_15 O 0.42850(8) 0.36147(8) 0.24189(12)
O9_29 O 0.53831(8) 0.95200(8) 0.19678(13)
N2_29 N 0.58883(8) 0.97641(8) 0.20612(12)
H11_29 H 0.599101 0.995425 0.205205
C14_29 C 0.55496(10) 0.97676(10) 0.20137(14)
C15_29 C 0.60873(10) 0.94746(9) 0.21246(13)
C16_29 C 0.65066(9) 0.89390(9) 0.22916(10)
H12_29 H 0.664754 0.876216 0.235139
C17_29 C 0.61638(9) 0.89147(8) 0.23441(11)
C18_29 C 0.64298(10) 0.94953(10) 0.20651(13)
H13_29 H 0.652034 0.968816 0.196856
C19_29 C 0.59502(9) 0.91824(9) 0.22595(13)
H14_29 H 0.571943 0.916468 0.229317
C20_29 C 0.66385(9) 0.92272(10) 0.21499(12)
C21_29 C 0.70096(9) 0.92464(9) 0.20887(11)
C22_29 C 0.60194(9) 0.86000(9) 0.24994(11)
O11_21 O 0.71851(6) 0.90230(7) 0.22203(7)
O12_15 O 0.62098(6) 0.83586(6) 0.25390(7)
O13_15 O 0.57150(8) 0.86147(8) 0.25811(12)
O14_21 O 0.71126(8) 0.94843(9) 0.19042(14)
Ni4_13 Ni 0.76539(2) 0.88544(2) 0.21353(2)
Ni7_21 Ni 0.75709(2) 0.96363(2) 0.17462(2)
O6_26 O 0.00021(8) 0.20893(9) 0.74992(12)
H5_26 H 0.016961 0.199586 0.740381
C4_26 C 0.05174(10) 0.45911(10) 0.78811(15)
H7_26 H 0.074197 0.455630 0.782565
C7_26 C 0.02741(10) 0.43295(11) 0.78778(15)
H9_26 H 0.031691 0.410907 0.781216
C10_26 C 0.03958(9) 0.48920(10) 0.79708(15)
O9_30 O 0.03831(8) 0.54800(8) 0.80322(13)
N2_30 N 0.08883(8) 0.52359(8) 0.79388(12)
H11_30 H 0.099101 0.504575 0.794795
C14_30 C 0.05496(10) 0.52324(10) 0.79863(14)
C15_30 C 0.10873(10) 0.55254(9) 0.78754(13)
C16_30 C 0.15066(9) 0.60610(9) 0.77084(10)
H12_30 H 0.164754 0.623784 0.764861
C17_30 C 0.11638(9) 0.60853(8) 0.76559(11)
C18_30 C 0.14298(10) 0.55047(10) 0.79349(13)
H13_30 H 0.152034 0.531184 0.803144
C19_30 C 0.09502(9) 0.58176(9) 0.77405(13)
H14_30 H 0.071943 0.583532 0.770683
C20_30 C 0.16385(9) 0.57728(10) 0.78501(12)
C21_30 C 0.20096(9) 0.57536(9) 0.79113(11)
C22_30 C 0.10194(9) 0.64000(9) 0.75006(11)
O11_22 O 0.21851(6) 0.59770(7) 0.77797(7)
O12_16 O 0.12098(6) 0.66414(6) 0.74610(7)
O13_16 O 0.07150(8) 0.63853(8) 0.74189(12)
O14_22 O 0.21126(8) 0.55157(9) 0.80958(14)
C25_26 C 0.0101(5) 0.1062(3) 0.6535(2)
H18_26 H 0.007454 0.082499 0.649724
H19_26 H 0.029281 0.114231 0.641274
C26_26 C 0.0349(2) 0.0875(3) 0.7084(3)
H20_26 H 0.058217 0.093580 0.707606
H21_26 H 0.031830 0.065807 0.698273
H22_26 H 0.027484 0.086806 0.731362
C28_26 C 0.0069(5) 0.1430(6) 0.8668(5)
H26_26 H 0.015217 0.162997 0.856102
H27_26 H 0.020622 0.124186 0.860486
H28_26 H 0.007746 0.145848 0.890812
N4_26 N 0.01515(16) 0.11243(15) 0.68999(16)
Ni4_14 Ni 0.26539(2) 0.61456(2) 0.78647(2)
Ni7_22 Ni 0.25709(2) 0.53637(2) 0.82538(2)
S1_30 S 0.99762(3) 0.48701(3) 0.80776(5)
O1_30 O 0.93452(6) 0.20790(7) 0.78147(6)
O2_30 O 0.88758(6) 0.26500(6) 0.77587(7)
O3_30 O 0.83700(6) 0.22124(7) 0.74773(7)
H1_30 H 0.828578 0.212593 0.729504
H2_30 H 0.821814 0.233644 0.757392
O4_30 O 0.98095(7) 0.15578(9) 0.80288(7)
O5_30 O 0.94312(8) 0.27141(8) 0.77845(17)
C1_30 C 0.91350(10) 0.28269(9) 0.77929(14)
C2_30 C 0.93658(9) 0.34063(10) 0.78764(13)
H3_30 H 0.958038 0.331649 0.785196
H4_30 H 0.992706 0.224614 0.737331
N1_30 N 0.96220(8) 0.39511(8) 0.79439(13)
H6_30 H 0.980740 0.385746 0.788343
C3_30 C 0.90856(9) 0.31965(9) 0.78498(12)
C5_30 C 0.87655(8) 0.33326(8) 0.78853(11)
H8_30 H 0.857668 0.319648 0.786193
C6_30 C 0.99673(10) 0.44461(10) 0.79848(17)
O7_30 O 0.93972(9) 0.44455(9) 0.81339(18)
C8_30 C 0.93274(10) 0.37484(9) 0.79393(14)
C9_30 C 0.96357(11) 0.42794(11) 0.80357(18)
C11_30 C 0.90089(9) 0.38815(9) 0.79797(14)
H10_30 H 0.898123 0.410971 0.802295
C12_30 C 0.83873(9) 0.38356(10) 0.79843(13)
C13_30 C 0.87290(8) 0.36710(9) 0.79554(12)
O8_18 O 0.81324(5) 0.36604(5) 0.79260(6)
O10_30 O 0.83893(8) 0.41436(8) 0.80577(16)
O15_30 O 0.99591(8) 0.13920(11) 0.73568(9)
C23_30 C 0.99614(17) 0.13438(16) 0.70611(15)
H15_30 H 0.981560 0.147302 0.693154
N3_30 N 0.9683(4) 0.1363(3) 0.8552(2)
C24_30 C 0.9612(2) 0.1452(2) 0.8244(2)
H16_30 H 0.938824 0.143229 0.817929
H17_30 H 0.990307 0.117816 0.646060
C27_30 C 0.9392(5) 0.1221(4) 0.8758(4)
H23_30 H 0.930819 0.139051 0.890738
H24_30 H 0.946944 0.103132 0.888607
H25_30 H 0.921529 0.115008 0.860899
H29_30 H 0.9394(17) 0.2239(17) 0.7846(17)
H30_30 H 0.940(3) 0.196(3) 0.7986(18)
Ni5_18 Ni 0.76539(2) 0.38544(2) 0.78647(2)
O16_18 O 0.86604(5) 0.20740(6) 0.81324(5)
O18_16 O 0.87902(6) 0.16414(6) 0.75390(7)
O19_16 O 0.92850(8) 0.13853(8) 0.75811(12)
S1_31 S 0.00238(3) 0.98701(3) 0.69224(5)
O1_31 O 0.06548(6) 0.70790(7) 0.71853(6)
O2_31 O 0.11242(6) 0.76500(6) 0.72413(7)
O3_31 O 0.16300(6) 0.72124(7) 0.75227(7)
H1_31 H 0.171422 0.712593 0.770496
H2_31 H 0.178186 0.733644 0.742608
O4_31 O 0.01905(7) 0.65578(9) 0.69712(7)
O5_31 O 0.05688(8) 0.77141(8) 0.72155(17)
C1_31 C 0.08650(10) 0.78269(9) 0.72071(14)
C2_31 C 0.06342(9) 0.84063(10) 0.71236(13)
H3_31 H 0.041962 0.831649 0.714804
H4_31 H 0.007294 0.724614 0.762669
N1_31 N 0.03780(8) 0.89511(8) 0.70561(13)
H6_31 H 0.019260 0.885746 0.711657
C3_31 C 0.09144(9) 0.81965(9) 0.71502(12)
C5_31 C 0.12345(8) 0.83326(8) 0.71147(11)
H8_31 H 0.142332 0.819648 0.713807
C6_31 C 0.00327(10) 0.94461(10) 0.70152(17)
O7_31 O 0.06028(9) 0.94455(9) 0.68661(18)
C8_31 C 0.06726(10) 0.87484(9) 0.70607(14)
C9_31 C 0.03643(11) 0.92794(11) 0.69643(18)
C11_31 C 0.09911(9) 0.88815(9) 0.70203(14)
H10_31 H 0.101877 0.910971 0.697705
C12_31 C 0.16127(9) 0.88356(10) 0.70157(13)
C13_31 C 0.12710(8) 0.86710(9) 0.70446(12)
O8_19 O 0.18676(5) 0.86604(5) 0.70740(6)
O10_31 O 0.16107(8) 0.91436(8) 0.69423(16)
O15_31 O 0.00409(8) 0.63920(11) 0.76432(9)
C23_31 C 0.00386(17) 0.63438(16) 0.79389(15)
H15_31 H 0.018440 0.647302 0.806846
N3_31 N 0.0317(4) 0.6363(3) 0.6448(2)
C24_31 C 0.0388(2) 0.6452(2) 0.6756(2)
H16_31 H 0.061176 0.643229 0.682071
H17_31 H 0.009693 0.617816 0.853940
C27_31 C 0.0608(5) 0.6221(4) 0.6242(4)
H23_31 H 0.069181 0.639051 0.609262
H24_31 H 0.053056 0.603132 0.611393
H25_31 H 0.078471 0.615008 0.639101
H29_31 H 0.0606(17) 0.7239(17) 0.7154(17)
H30_31 H 0.060(3) 0.696(3) 0.7014(18)
Ni5_19 Ni 0.23461(2) 0.88544(2) 0.71353(2)
O16_19 O 0.13396(5) 0.70740(6) 0.68676(5)
O9_31 O 0.96169(8) 0.04800(8) 0.69678(13)
N2_31 N 0.91117(8) 0.02359(8) 0.70612(12)
H11_31 H 0.900899 0.004575 0.705205
C14_31 C 0.94504(10) 0.02324(10) 0.70137(14)
C15_31 C 0.89127(10) 0.05254(9) 0.71246(13)
C16_31 C 0.84934(9) 0.10610(9) 0.72916(10)
H12_31 H 0.835246 0.123784 0.735139
C17_31 C 0.88362(9) 0.10853(8) 0.73441(11)
C18_31 C 0.85702(10) 0.05047(10) 0.70651(13)
H13_31 H 0.847966 0.031184 0.696856
C19_31 C 0.90498(9) 0.08176(9) 0.72595(13)
H14_31 H 0.928057 0.083532 0.729317
C20_31 C 0.83615(9) 0.07728(10) 0.71499(12)
C21_31 C 0.79904(9) 0.07536(9) 0.70887(11)
C22_31 C 0.89806(9) 0.14000(9) 0.74994(11)
O11_23 O 0.78149(6) 0.09770(7) 0.72203(7)
O14_23 O 0.78874(8) 0.05157(9) 0.69042(14)
Ni4_15 Ni 0.73461(2) 0.11456(2) 0.71353(2)
Ni7_23 Ni 0.74291(2) 0.03637(2) 0.67462(2)
S1_32 S 0.50238(3) 0.51299(3) 0.30776(5)
O1_32 O 0.56548(6) 0.79210(7) 0.28147(6)
O2_32 O 0.61242(6) 0.73500(6) 0.27587(7)
O3_32 O 0.66300(6) 0.77876(7) 0.24773(7)
H1_32 H 0.671422 0.787407 0.229504
H2_32 H 0.678186 0.766356 0.257392
O4_32 O 0.51905(7) 0.84422(9) 0.30288(7)
O5_32 O 0.55688(8) 0.72859(8) 0.27845(17)
C1_32 C 0.58650(10) 0.71731(9) 0.27929(14)
C2_32 C 0.56342(9) 0.65937(10) 0.28764(13)
H3_32 H 0.541962 0.668351 0.285196
O6_27 O 0.49979(8) 0.79107(9) 0.24992(12)
H4_32 H 0.507294 0.775386 0.237331
H5_27 H 0.483039 0.800414 0.240381
N1_32 N 0.53780(8) 0.60489(8) 0.29439(13)
H6_32 H 0.519260 0.614254 0.288343
C3_32 C 0.59144(9) 0.68035(9) 0.28498(12)
C4_27 C 0.44826(10) 0.54089(10) 0.28811(15)
H7_27 H 0.425803 0.544370 0.282565
C5_32 C 0.62345(8) 0.66674(8) 0.28853(11)
H8_32 H 0.642332 0.680352 0.286193
C6_32 C 0.50327(10) 0.55539(10) 0.29848(17)
C7_27 C 0.47259(10) 0.56705(11) 0.28778(15)
H9_27 H 0.468309 0.589093 0.281216
O7_32 O 0.56028(9) 0.55545(9) 0.31339(18)
C8_32 C 0.56726(10) 0.62516(9) 0.29393(14)
C9_32 C 0.53643(11) 0.57206(11) 0.30357(18)
C10_27 C 0.46042(9) 0.51080(10) 0.29708(15)
C11_32 C 0.59911(9) 0.61185(9) 0.29797(14)
H10_32 H 0.601877 0.589029 0.302295
C12_32 C 0.66127(9) 0.61644(10) 0.29843(13)
C13_32 C 0.62710(8) 0.63290(9) 0.29554(12)
O8_20 O 0.68676(5) 0.63396(5) 0.29260(6)
O9_32 O 0.46169(8) 0.45200(8) 0.30322(13)
O10_32 O 0.66107(8) 0.58564(8) 0.30577(16)
N2_32 N 0.41117(8) 0.47641(8) 0.29388(12)
H11_32 H 0.400899 0.495425 0.294795
C14_32 C 0.44504(10) 0.47676(10) 0.29863(14)
C15_32 C 0.39127(10) 0.44746(9) 0.28754(13)
C16_32 C 0.34934(9) 0.39390(9) 0.27084(10)
H12_32 H 0.335246 0.376216 0.264861
C17_32 C 0.38362(9) 0.39147(8) 0.26559(11)
C18_32 C 0.35702(10) 0.44953(10) 0.29349(13)
H13_32 H 0.347966 0.468816 0.303144
C19_32 C 0.40498(9) 0.41824(9) 0.27405(13)
H14_32 H 0.428057 0.416468 0.270683
C20_32 C 0.33615(9) 0.42272(10) 0.28501(12)
C21_32 C 0.29904(9) 0.42464(9) 0.29113(11)
C22_32 C 0.39806(9) 0.36000(9) 0.25006(11)
O11_24 O 0.28149(6) 0.40230(7) 0.27797(7)
O14_24 O 0.28874(8) 0.44843(9) 0.30958(14)
O15_32 O 0.50409(8) 0.86080(11) 0.23568(9)
C23_32 C 0.50386(17) 0.86562(16) 0.20611(15)
H15_32 H 0.518440 0.852698 0.193154
N3_32 N 0.5317(4) 0.8637(3) 0.3552(2)
C24_32 C 0.5388(2) 0.8548(2) 0.3244(2)
H16_32 H 0.561176 0.856771 0.317929
C25_27 C 0.4899(5) 0.8938(3) 0.1535(2)
H17_32 H 0.509693 0.882184 0.146060
H18_27 H 0.492546 0.917501 0.149724
H19_27 H 0.470719 0.885769 0.141274
C26_27 C 0.4651(2) 0.9125(3) 0.2084(3)
H20_27 H 0.441783 0.906420 0.207606
H21_27 H 0.468170 0.934193 0.198273
H22_27 H 0.472516 0.913194 0.231362
C27_32 C 0.5608(5) 0.8779(4) 0.3758(4)
H23_32 H 0.569181 0.860949 0.390738
H24_32 H 0.553056 0.896868 0.388607
H25_32 H 0.578471 0.884992 0.360899
C28_27 C 0.4931(5) 0.8570(6) 0.3668(5)
H26_27 H 0.484783 0.837003 0.356102
H27_27 H 0.479378 0.875814 0.360486
H28_27 H 0.492254 0.854152 0.390812
N4_27 N 0.48485(16) 0.88757(15) 0.18999(16)
H29_32 H 0.5606(17) 0.7761(17) 0.2846(17)
H30_32 H 0.560(3) 0.804(3) 0.2986(18)
Ni4_16 Ni 0.23461(2) 0.38544(2) 0.28647(2)
Ni5_20 Ni 0.73461(2) 0.61456(2) 0.28647(2)
Ni7_24 Ni 0.24291(2) 0.46363(2) 0.32538(2)
O16_20 O 0.63396(5) 0.79260(6) 0.31324(5)
S1_33 S 0.19224(5) 0.49762(3) 0.01299(3)
O1_33 O 0.21853(6) 0.43452(6) 0.29210(7)
O2_33 O 0.22413(7) 0.38758(6) 0.23500(6)
O3_33 O 0.25227(7) 0.33700(6) 0.27876(7)
H1_33 H 0.270496 0.328578 0.287407
H2_33 H 0.242608 0.321814 0.266356
O4_33 O 0.19712(7) 0.48095(7) 0.34422(9)
O5_33 O 0.22155(17) 0.44312(8) 0.22859(8)
C1_33 C 0.22071(14) 0.41350(10) 0.21731(9)
C2_33 C 0.21236(13) 0.43658(9) 0.15937(10)
H3_33 H 0.214804 0.458038 0.168351
O6_28 O 0.25008(12) 0.50021(8) 0.29107(9)
H4_33 H 0.262669 0.492706 0.275386
H5_28 H 0.259619 0.516961 0.300414
N1_33 N 0.20561(13) 0.46220(8) 0.10489(8)
H6_33 H 0.211657 0.480740 0.114254
C3_33 C 0.21502(12) 0.40856(9) 0.18035(9)
C4_28 C 0.21189(15) 0.55174(10) 0.04089(10)
H7_28 H 0.217435 0.574197 0.044370
C5_33 C 0.21147(11) 0.37655(8) 0.16674(8)
H8_33 H 0.213807 0.357668 0.180352
C6_33 C 0.20152(17) 0.49673(10) 0.05539(10)
C7_28 C 0.21222(15) 0.52741(10) 0.06705(11)
H9_28 H 0.218784 0.531691 0.089093
O7_33 O 0.18661(18) 0.43972(9) 0.05545(9)
C8_33 C 0.20607(14) 0.43274(10) 0.12516(9)
C9_33 C 0.19643(18) 0.46357(11) 0.07206(11)
C10_28 C 0.20292(15) 0.53958(9) 0.01080(10)
C11_33 C 0.20203(14) 0.40089(9) 0.11185(9)
H10_33 H 0.197705 0.398123 0.089029
C12_33 C 0.20157(13) 0.33873(9) 0.11644(10)
C13_33 C 0.20446(12) 0.37290(8) 0.13290(9)
O8_21 O 0.20740(6) 0.31324(5) 0.13396(5)
O10_33 O 0.19423(16) 0.33893(8) 0.08564(8)
O15_33 O 0.26432(9) 0.49591(8) 0.36080(11)
C23_33 C 0.29389(15) 0.49614(17) 0.36562(16)
H15_33 H 0.306846 0.481560 0.352698
N3_33 N 0.1448(2) 0.4683(4) 0.3637(3)
C24_33 C 0.1756(2) 0.4612(2) 0.3548(2)
H16_33 H 0.182071 0.438824 0.356771
C25_28 C 0.3465(2) 0.5101(5) 0.3938(3)
H17_33 H 0.353940 0.490307 0.382184
H18_28 H 0.350276 0.507454 0.417501
H19_28 H 0.358726 0.529281 0.385769
C26_28 C 0.2916(3) 0.5349(2) 0.4125(3)
H20_28 H 0.292394 0.558217 0.406420
H21_28 H 0.301727 0.531830 0.434193
H22_28 H 0.268638 0.527484 0.413194
C27_33 C 0.1242(4) 0.4392(5) 0.3779(4)
H23_33 H 0.109262 0.430819 0.360949
H24_33 H 0.111393 0.446944 0.396868
H25_33 H 0.139101 0.421529 0.384992
C28_28 C 0.1332(5) 0.5069(5) 0.3570(6)
H26_28 H 0.143898 0.515217 0.337003
H27_28 H 0.139514 0.520622 0.375814
H28_28 H 0.109188 0.507746 0.354152
N4_28 N 0.31001(16) 0.51515(16) 0.38757(15)
H29_33 H 0.2154(17) 0.4394(17) 0.2761(17)
H30_33 H 0.2014(18) 0.440(3) 0.304(3)
Ni5_21 Ni 0.21353(2) 0.26539(2) 0.11456(2)
O16_21 O 0.18676(5) 0.36604(5) 0.29260(6)
O18_17 O 0.24610(7) 0.37902(6) 0.33586(6)
O19_17 O 0.24189(12) 0.42850(8) 0.36147(8)
O9_33 O 0.19678(13) 0.53831(8) 0.95200(8)
N2_33 N 0.20612(12) 0.58883(8) 0.97641(8)
H11_33 H 0.205205 0.599101 0.995425
C14_33 C 0.20137(14) 0.55496(10) 0.97676(10)
C15_33 C 0.21246(13) 0.60873(10) 0.94746(9)
C16_33 C 0.22916(10) 0.65066(9) 0.89390(9)
H12_33 H 0.235139 0.664754 0.876216
C17_33 C 0.23441(11) 0.61638(9) 0.89147(8)
C18_33 C 0.20651(13) 0.64298(10) 0.94953(10)
H13_33 H 0.196856 0.652034 0.968816
C19_33 C 0.22595(13) 0.59502(9) 0.91824(9)
H14_33 H 0.229317 0.571943 0.916468
C20_33 C 0.21499(12) 0.66385(9) 0.92272(10)
C21_33 C 0.20887(11) 0.70096(9) 0.92464(9)
C22_33 C 0.24994(11) 0.60194(9) 0.86000(9)
O12_17 O 0.25390(7) 0.62098(6) 0.83586(6)
O13_17 O 0.25811(12) 0.57150(8) 0.86147(8)
O6_29 O 0.74992(12) 0.00021(8) 0.20893(9)
H5_29 H 0.740381 0.016961 0.199586
C4_29 C 0.78811(15) 0.05174(10) 0.45911(10)
H7_29 H 0.782565 0.074197 0.455630
C7_29 C 0.78778(15) 0.02741(10) 0.43295(11)
H9_29 H 0.781216 0.031691 0.410907
C10_29 C 0.79708(15) 0.03958(9) 0.48920(10)
O9_34 O 0.80322(13) 0.03831(8) 0.54800(8)
N2_34 N 0.79388(12) 0.08883(8) 0.52359(8)
H11_34 H 0.794795 0.099101 0.504575
C14_34 C 0.79863(14) 0.05496(10) 0.52324(10)
C15_34 C 0.78754(13) 0.10873(10) 0.55254(9)
C16_34 C 0.77084(10) 0.15066(9) 0.60610(9)
H12_34 H 0.764861 0.164754 0.623784
C17_34 C 0.76559(11) 0.11638(9) 0.60853(8)
C18_34 C 0.79349(13) 0.14298(10) 0.55047(10)
H13_34 H 0.803144 0.152034 0.531184
C19_34 C 0.77405(13) 0.09502(9) 0.58176(9)
H14_34 H 0.770683 0.071943 0.583532
C20_34 C 0.78501(12) 0.16385(9) 0.57728(10)
C21_34 C 0.79113(11) 0.20096(9) 0.57536(9)
C22_34 C 0.75006(11) 0.10194(9) 0.64000(9)
O12_18 O 0.74610(7) 0.12098(6) 0.66414(6)
O13_18 O 0.74189(12) 0.07150(8) 0.63853(8)
C25_29 C 0.6535(2) 0.0101(5) 0.1062(3)
H18_29 H 0.649724 0.007454 0.082499
H19_29 H 0.641274 0.029281 0.114231
C26_29 C 0.7084(3) 0.0349(2) 0.0875(3)
H20_29 H 0.707606 0.058217 0.093580
H21_29 H 0.698273 0.031830 0.065807
H22_29 H 0.731362 0.027484 0.086806
C28_29 C 0.8668(5) 0.0069(5) 0.1430(6)
H26_29 H 0.856102 0.015217 0.162997
H27_29 H 0.860486 0.020622 0.124186
H28_29 H 0.890812 0.007746 0.145848
N4_29 N 0.68999(16) 0.01515(16) 0.11243(15)
S1_34 S 0.80776(5) 0.99762(3) 0.48701(3)
O1_34 O 0.78147(6) 0.93452(6) 0.20790(7)
O2_34 O 0.77587(7) 0.88758(6) 0.26500(6)
O3_34 O 0.74773(7) 0.83700(6) 0.22124(7)
H1_34 H 0.729504 0.828578 0.212593
H2_34 H 0.757392 0.821814 0.233644
O4_34 O 0.80288(7) 0.98095(7) 0.15578(9)
O5_34 O 0.77845(17) 0.94312(8) 0.27141(8)
C1_34 C 0.77929(14) 0.91350(10) 0.28269(9)
C2_34 C 0.78764(13) 0.93658(9) 0.34063(10)
H3_34 H 0.785196 0.958038 0.331649
H4_34 H 0.737331 0.992706 0.224614
N1_34 N 0.79439(13) 0.96220(8) 0.39511(8)
H6_34 H 0.788343 0.980740 0.385746
C3_34 C 0.78498(12) 0.90856(9) 0.31965(9)
C5_34 C 0.78853(11) 0.87655(8) 0.33326(8)
H8_34 H 0.786193 0.857668 0.319648
C6_34 C 0.79848(17) 0.99673(10) 0.44461(10)
O7_34 O 0.81339(18) 0.93972(9) 0.44455(9)
C8_34 C 0.79393(14) 0.93274(10) 0.37484(9)
C9_34 C 0.80357(18) 0.96357(11) 0.42794(11)
C11_34 C 0.79797(14) 0.90089(9) 0.38815(9)
H10_34 H 0.802295 0.898123 0.410971
C12_34 C 0.79843(13) 0.83873(9) 0.38356(10)
C13_34 C 0.79554(12) 0.87290(8) 0.36710(9)
O8_22 O 0.79260(6) 0.81324(5) 0.36604(5)
O10_34 O 0.80577(16) 0.83893(8) 0.41436(8)
O15_34 O 0.73568(9) 0.99591(8) 0.13920(11)
C23_34 C 0.70611(15) 0.99614(17) 0.13438(16)
H15_34 H 0.693154 0.981560 0.147302
N3_34 N 0.8552(2) 0.9683(4) 0.1363(3)
C24_34 C 0.8244(2) 0.9612(2) 0.1452(2)
H16_34 H 0.817929 0.938824 0.143229
H17_34 H 0.646060 0.990307 0.117816
C27_34 C 0.8758(4) 0.9392(5) 0.1221(4)
H23_34 H 0.890738 0.930819 0.139051
H24_34 H 0.888607 0.946944 0.103132
H25_34 H 0.860899 0.921529 0.115008
H29_34 H 0.7846(17) 0.9394(17) 0.2239(17)
H30_34 H 0.7986(18) 0.940(3) 0.196(3)
Ni5_22 Ni 0.78647(2) 0.76539(2) 0.38544(2)
O16_22 O 0.81324(5) 0.86604(5) 0.20740(6)
O18_18 O 0.75390(7) 0.87902(6) 0.16414(6)
O19_18 O 0.75811(12) 0.92850(8) 0.13853(8)
S1_35 S 0.69224(5) 0.00238(3) 0.98701(3)
O1_35 O 0.71853(6) 0.06548(6) 0.70790(7)
O2_35 O 0.72413(7) 0.11242(6) 0.76500(6)
O3_35 O 0.75227(7) 0.16300(6) 0.72124(7)
H1_35 H 0.770496 0.171422 0.712593
H2_35 H 0.742608 0.178186 0.733644
O4_35 O 0.69712(7) 0.01905(7) 0.65578(9)
O5_35 O 0.72155(17) 0.05688(8) 0.77141(8)
C1_35 C 0.72071(14) 0.08650(10) 0.78269(9)
C2_35 C 0.71236(13) 0.06342(9) 0.84063(10)
H3_35 H 0.714804 0.041962 0.831649
H4_35 H 0.762669 0.007294 0.724614
N1_35 N 0.70561(13) 0.03780(8) 0.89511(8)
H6_35 H 0.711657 0.019260 0.885746
C3_35 C 0.71502(12) 0.09144(9) 0.81965(9)
C5_35 C 0.71147(11) 0.12345(8) 0.83326(8)
H8_35 H 0.713807 0.142332 0.819648
C6_35 C 0.70152(17) 0.00327(10) 0.94461(10)
O7_35 O 0.68661(18) 0.06028(9) 0.94455(9)
C8_35 C 0.70607(14) 0.06726(10) 0.87484(9)
C9_35 C 0.69643(18) 0.03643(11) 0.92794(11)
C11_35 C 0.70203(14) 0.09911(9) 0.88815(9)
H10_35 H 0.697705 0.101877 0.910971
C12_35 C 0.70157(13) 0.16127(9) 0.88356(10)
C13_35 C 0.70446(12) 0.12710(8) 0.86710(9)
O8_23 O 0.70740(6) 0.18676(5) 0.86604(5)
O10_35 O 0.69423(16) 0.16107(8) 0.91436(8)
O15_35 O 0.76432(9) 0.00409(8) 0.63920(11)
C23_35 C 0.79389(15) 0.00386(17) 0.63438(16)
H15_35 H 0.806846 0.018440 0.647302
N3_35 N 0.6448(2) 0.0317(4) 0.6363(3)
C24_35 C 0.6756(2) 0.0388(2) 0.6452(2)
H16_35 H 0.682071 0.061176 0.643229
H17_35 H 0.853940 0.009693 0.617816
C27_35 C 0.6242(4) 0.0608(5) 0.6221(4)
H23_35 H 0.609262 0.069181 0.639051
H24_35 H 0.611393 0.053056 0.603132
H25_35 H 0.639101 0.078471 0.615008
H29_35 H 0.7154(17) 0.0606(17) 0.7239(17)
H30_35 H 0.7014(18) 0.060(3) 0.696(3)
Ni5_23 Ni 0.71353(2) 0.23461(2) 0.88544(2)
O16_23 O 0.68676(5) 0.13396(5) 0.70740(6)
O9_35 O 0.69678(13) 0.96169(8) 0.04800(8)
N2_35 N 0.70612(12) 0.91117(8) 0.02359(8)
H11_35 H 0.705205 0.900899 0.004575
C14_35 C 0.70137(14) 0.94504(10) 0.02324(10)
C15_35 C 0.71246(13) 0.89127(10) 0.05254(9)
C16_35 C 0.72916(10) 0.84934(9) 0.10610(9)
H12_35 H 0.735139 0.835246 0.123784
C17_35 C 0.73441(11) 0.88362(9) 0.10853(8)
C18_35 C 0.70651(13) 0.85702(10) 0.05047(10)
H13_35 H 0.696856 0.847966 0.031184
C19_35 C 0.72595(13) 0.90498(9) 0.08176(9)
H14_35 H 0.729317 0.928057 0.083532
C20_35 C 0.71499(12) 0.83615(9) 0.07728(10)
C21_35 C 0.70887(11) 0.79904(9) 0.07536(9)
C22_35 C 0.74994(11) 0.89806(9) 0.14000(9)
S1_36 S 0.30776(5) 0.50238(3) 0.51299(3)
O1_36 O 0.28147(6) 0.56548(6) 0.79210(7)
O2_36 O 0.27587(7) 0.61242(6) 0.73500(6)
O3_36 O 0.24773(7) 0.66300(6) 0.77876(7)
H1_36 H 0.229504 0.671422 0.787407
H2_36 H 0.257392 0.678186 0.766356
O4_36 O 0.30288(7) 0.51905(7) 0.84422(9)
O5_36 O 0.27845(17) 0.55688(8) 0.72859(8)
C1_36 C 0.27929(14) 0.58650(10) 0.71731(9)
C2_36 C 0.28764(13) 0.56342(9) 0.65937(10)
H3_36 H 0.285196 0.541962 0.668351
O6_30 O 0.24992(12) 0.49979(8) 0.79107(9)
H4_36 H 0.237331 0.507294 0.775386
H5_30 H 0.240381 0.483039 0.800414
N1_36 N 0.29439(13) 0.53780(8) 0.60489(8)
H6_36 H 0.288343 0.519260 0.614254
C3_36 C 0.28498(12) 0.59144(9) 0.68035(9)
C4_30 C 0.28811(15) 0.44826(10) 0.54089(10)
H7_30 H 0.282565 0.425803 0.544370
C5_36 C 0.28853(11) 0.62345(8) 0.66674(8)
H8_36 H 0.286193 0.642332 0.680352
C6_36 C 0.29848(17) 0.50327(10) 0.55539(10)
C7_30 C 0.28778(15) 0.47259(10) 0.56705(11)
H9_30 H 0.281216 0.468309 0.589093
O7_36 O 0.31339(18) 0.56028(9) 0.55545(9)
C8_36 C 0.29393(14) 0.56726(10) 0.62516(9)
C9_36 C 0.30357(18) 0.53643(11) 0.57206(11)
C10_30 C 0.29708(15) 0.46042(9) 0.51080(10)
C11_36 C 0.29797(14) 0.59911(9) 0.61185(9)
H10_36 H 0.302295 0.601877 0.589029
C12_36 C 0.29843(13) 0.66127(9) 0.61644(10)
C13_36 C 0.29554(12) 0.62710(8) 0.63290(9)
O8_24 O 0.29260(6) 0.68676(5) 0.63396(5)
O9_36 O 0.30322(13) 0.46169(8) 0.45200(8)
O10_36 O 0.30577(16) 0.66107(8) 0.58564(8)
N2_36 N 0.29388(12) 0.41117(8) 0.47641(8)
H11_36 H 0.294795 0.400899 0.495425
C14_36 C 0.29863(14) 0.44504(10) 0.47676(10)
C15_36 C 0.28754(13) 0.39127(10) 0.44746(9)
C16_36 C 0.27084(10) 0.34934(9) 0.39390(9)
H12_36 H 0.264861 0.335246 0.376216
C17_36 C 0.26559(11) 0.38362(9) 0.39147(8)
C18_36 C 0.29349(13) 0.35702(10) 0.44953(10)
H13_36 H 0.303144 0.347966 0.468816
C19_36 C 0.27405(13) 0.40498(9) 0.41824(9)
H14_36 H 0.270683 0.428057 0.416468
C20_36 C 0.28501(12) 0.33615(9) 0.42272(10)
C21_36 C 0.29113(11) 0.29904(9) 0.42464(9)
C22_36 C 0.25006(11) 0.39806(9) 0.36000(9)
O15_36 O 0.23568(9) 0.50409(8) 0.86080(11)
C23_36 C 0.20611(15) 0.50386(17) 0.86562(16)
H15_36 H 0.193154 0.518440 0.852698
N3_36 N 0.3552(2) 0.5317(4) 0.8637(3)
C24_36 C 0.3244(2) 0.5388(2) 0.8548(2)
H16_36 H 0.317929 0.561176 0.856771
C25_30 C 0.1535(2) 0.4899(5) 0.8938(3)
H17_36 H 0.146060 0.509693 0.882184
H18_30 H 0.149724 0.492546 0.917501
H19_30 H 0.141274 0.470719 0.885769
C26_30 C 0.2084(3) 0.4651(2) 0.9125(3)
H20_30 H 0.207606 0.441783 0.906420
H21_30 H 0.198273 0.468170 0.934193
H22_30 H 0.231362 0.472516 0.913194
C27_36 C 0.3758(4) 0.5608(5) 0.8779(4)
H23_36 H 0.390738 0.569181 0.860949
H24_36 H 0.388607 0.553056 0.896868
H25_36 H 0.360899 0.578471 0.884992
C28_30 C 0.3668(5) 0.4931(5) 0.8570(6)
H26_30 H 0.356102 0.484783 0.837003
H27_30 H 0.360486 0.479378 0.875814
H28_30 H 0.390812 0.492254 0.854152
N4_30 N 0.18999(16) 0.48485(16) 0.88757(15)
H29_36 H 0.2846(17) 0.5606(17) 0.7761(17)
H30_36 H 0.2986(18) 0.560(3) 0.804(3)
Ni5_24 Ni 0.28647(2) 0.73461(2) 0.61456(2)
O16_24 O 0.31324(5) 0.63396(5) 0.79260(6)
Ni2_7 Ni 0.17462(2) 0.25709(2) 0.03637(2)
S1_37 S 0.48701(3) 0.30776(5) 0.00238(3)
O1_37 O 0.20790(7) 0.28147(6) 0.06548(6)
O2_37 O 0.26500(6) 0.27587(7) 0.11242(6)
O3_37 O 0.22124(7) 0.24773(7) 0.16300(6)
H1_37 H 0.212593 0.229504 0.171422
H2_37 H 0.233644 0.257392 0.178186
O4_37 O 0.15578(9) 0.30288(7) 0.01905(7)
O5_37 O 0.27141(8) 0.27845(17) 0.05688(8)
C1_37 C 0.28269(9) 0.27929(14) 0.08650(10)
C2_37 C 0.34063(10) 0.28764(13) 0.06342(9)
H3_37 H 0.331649 0.285196 0.041962
H4_37 H 0.224614 0.237331 0.007294
N1_37 N 0.39511(8) 0.29439(13) 0.03780(8)
H6_37 H 0.385746 0.288343 0.019260
C3_37 C 0.31965(9) 0.28498(12) 0.09144(9)
C5_37 C 0.33326(8) 0.28853(11) 0.12345(8)
H8_37 H 0.319648 0.286193 0.142332
C6_37 C 0.44461(10) 0.29848(17) 0.00327(10)
O7_37 O 0.44455(9) 0.31339(18) 0.06028(9)
C8_37 C 0.37484(9) 0.29393(14) 0.06726(10)
C9_37 C 0.42794(11) 0.30357(18) 0.03643(11)
C11_37 C 0.38815(9) 0.29797(14) 0.09911(9)
H10_37 H 0.410971 0.302295 0.101877
C12_37 C 0.38356(10) 0.29843(13) 0.16127(9)
C13_37 C 0.36710(9) 0.29554(12) 0.12710(8)
O10_37 O 0.41436(8) 0.30577(16) 0.16107(8)
O15_37 O 0.13920(11) 0.23568(9) 0.00409(8)
C23_37 C 0.13438(16) 0.20611(15) 0.00386(17)
H15_37 H 0.147302 0.193154 0.018440
N3_37 N 0.1363(3) 0.3552(2) 0.0317(4)
C24_37 C 0.1452(2) 0.3244(2) 0.0388(2)
H16_37 H 0.143229 0.317929 0.061176
H17_37 H 0.117816 0.146060 0.009693
C27_37 C 0.1221(4) 0.3758(4) 0.0608(5)
H23_37 H 0.139051 0.390738 0.069181
H24_37 H 0.103132 0.388607 0.053056
H25_37 H 0.115008 0.360899 0.078471
H29_37 H 0.2239(17) 0.2846(17) 0.0606(17)
H30_37 H 0.196(3) 0.2986(18) 0.060(3)
O17_13 O 0.22203(7) 0.21851(6) 0.09770(7)
O18_19 O 0.16414(6) 0.25390(7) 0.12098(6)
O19_19 O 0.13853(8) 0.25811(12) 0.07150(8)
O20_13 O 0.19042(14) 0.21126(8) 0.05157(9)
O6_31 O 0.20893(9) 0.24992(12) 0.99979(8)
H5_31 H 0.199586 0.240381 0.983039
C4_31 C 0.45911(10) 0.28811(15) 0.94826(10)
H7_31 H 0.455630 0.282565 0.925803
C7_31 C 0.43295(11) 0.28778(15) 0.97259(10)
H9_31 H 0.410907 0.281216 0.968309
C10_31 C 0.48920(10) 0.29708(15) 0.96042(9)
O9_37 O 0.54800(8) 0.30322(13) 0.96169(8)
N2_37 N 0.52359(8) 0.29388(12) 0.91117(8)
H11_37 H 0.504575 0.294795 0.900899
C14_37 C 0.52324(10) 0.29863(14) 0.94504(10)
C15_37 C 0.55254(9) 0.28754(13) 0.89127(10)
C16_37 C 0.60610(9) 0.27084(10) 0.84934(9)
H12_37 H 0.623784 0.264861 0.835246
C17_37 C 0.60853(8) 0.26559(11) 0.88362(9)
C18_37 C 0.55047(10) 0.29349(13) 0.85702(10)
H13_37 H 0.531184 0.303144 0.847966
C19_37 C 0.58176(9) 0.27405(13) 0.90498(9)
H14_37 H 0.583532 0.270683 0.928057
C20_37 C 0.57728(10) 0.28501(12) 0.83615(9)
C21_37 C 0.57536(9) 0.29113(11) 0.79904(9)
C22_37 C 0.64000(9) 0.25006(11) 0.89806(9)
O11_25 O 0.59770(7) 0.27797(7) 0.78149(6)
O12_19 O 0.66414(6) 0.24610(7) 0.87902(6)
O13_19 O 0.63853(8) 0.24189(12) 0.92850(8)
O14_25 O 0.55157(9) 0.30958(14) 0.78874(8)
C25_31 C 0.1062(3) 0.1535(2) 0.9899(5)
H18_31 H 0.082499 0.149724 0.992546
H19_31 H 0.114231 0.141274 0.970719
C26_31 C 0.0875(3) 0.2084(3) 0.9651(2)
H20_31 H 0.093580 0.207606 0.941783
H21_31 H 0.065807 0.198273 0.968170
H22_31 H 0.086806 0.231362 0.972516
C28_31 C 0.1430(6) 0.3668(5) 0.9931(5)
H26_31 H 0.162997 0.356102 0.984783
H27_31 H 0.124186 0.360486 0.979378
H28_31 H 0.145848 0.390812 0.992254
N4_31 N 0.11243(15) 0.18999(16) 0.98485(16)
Ni6_7 Ni 0.67462(2) 0.24291(2) 0.96363(2)
Ni7_25 Ni 0.53637(2) 0.32538(2) 0.74291(2)
Ni2_8 Ni 0.32538(2) 0.74291(2) 0.53637(2)
S1_38 S 0.01299(3) 0.69224(5) 0.50238(3)
O1_38 O 0.29210(7) 0.71853(6) 0.56548(6)
O2_38 O 0.23500(6) 0.72413(7) 0.61242(6)
O3_38 O 0.27876(7) 0.75227(7) 0.66300(6)
H1_38 H 0.287407 0.770496 0.671422
H2_38 H 0.266356 0.742608 0.678186
O4_38 O 0.34422(9) 0.69712(7) 0.51905(7)
O5_38 O 0.22859(8) 0.72155(17) 0.55688(8)
C1_38 C 0.21731(9) 0.72071(14) 0.58650(10)
C2_38 C 0.15937(10) 0.71236(13) 0.56342(9)
H3_38 H 0.168351 0.714804 0.541962
O6_32 O 0.29107(9) 0.75008(12) 0.49979(8)
H4_38 H 0.275386 0.762669 0.507294
H5_32 H 0.300414 0.759619 0.483039
N1_38 N 0.10489(8) 0.70561(13) 0.53780(8)
H6_38 H 0.114254 0.711657 0.519260
C3_38 C 0.18035(9) 0.71502(12) 0.59144(9)
C4_32 C 0.04089(10) 0.71189(15) 0.44826(10)
H7_32 H 0.044370 0.717435 0.425803
C5_38 C 0.16674(8) 0.71147(11) 0.62345(8)
H8_38 H 0.180352 0.713807 0.642332
C6_38 C 0.05539(10) 0.70152(17) 0.50327(10)
C7_32 C 0.06705(11) 0.71222(15) 0.47259(10)
H9_32 H 0.089093 0.718784 0.468309
O7_38 O 0.05545(9) 0.68661(18) 0.56028(9)
C8_38 C 0.12516(9) 0.70607(14) 0.56726(10)
C9_38 C 0.07206(11) 0.69643(18) 0.53643(11)
C10_32 C 0.01080(10) 0.70292(15) 0.46042(9)
C11_38 C 0.11185(9) 0.70203(14) 0.59911(9)
H10_38 H 0.089029 0.697705 0.601877
C12_38 C 0.11644(10) 0.70157(13) 0.66127(9)
C13_38 C 0.13290(9) 0.70446(12) 0.62710(8)
O10_38 O 0.08564(8) 0.69423(16) 0.66107(8)
O15_38 O 0.36080(11) 0.76432(9) 0.50409(8)
C23_38 C 0.36562(16) 0.79389(15) 0.50386(17)
H15_38 H 0.352698 0.806846 0.518440
N3_38 N 0.3637(3) 0.6448(2) 0.5317(4)
C24_38 C 0.3548(2) 0.6756(2) 0.5388(2)
H16_38 H 0.356771 0.682071 0.561176
C25_32 C 0.3938(3) 0.8465(2) 0.4899(5)
H17_38 H 0.382184 0.853940 0.509693
H18_32 H 0.417501 0.850276 0.492546
H19_32 H 0.385769 0.858726 0.470719
C26_32 C 0.4125(3) 0.7916(3) 0.4651(2)
H20_32 H 0.406420 0.792394 0.441783
H21_32 H 0.434193 0.801727 0.468170
H22_32 H 0.413194 0.768638 0.472516
C27_38 C 0.3779(4) 0.6242(4) 0.5608(5)
H23_38 H 0.360949 0.609262 0.569181
H24_38 H 0.396868 0.611393 0.553056
H25_38 H 0.384992 0.639101 0.578471
C28_32 C 0.3570(6) 0.6332(5) 0.4931(5)
H26_32 H 0.337003 0.643898 0.484783
H27_32 H 0.375814 0.639514 0.479378
H28_32 H 0.354152 0.609188 0.492254
N4_32 N 0.38757(15) 0.81001(16) 0.48485(16)
H29_38 H 0.2761(17) 0.7154(17) 0.5606(17)
H30_38 H 0.304(3) 0.7014(18) 0.560(3)
O17_14 O 0.27797(7) 0.78149(6) 0.59770(7)
O18_20 O 0.33586(6) 0.74610(7) 0.62098(6)
O19_20 O 0.36147(8) 0.74189(12) 0.57150(8)
O20_14 O 0.30958(14) 0.78874(8) 0.55157(9)
O9_38 O 0.95200(8) 0.69678(13) 0.46169(8)
N2_38 N 0.97641(8) 0.70612(12) 0.41117(8)
H11_38 H 0.995425 0.705205 0.400899
C14_38 C 0.97676(10) 0.70137(14) 0.44504(10)
C15_38 C 0.94746(9) 0.71246(13) 0.39127(10)
C16_38 C 0.89390(9) 0.72916(10) 0.34934(9)
H12_38 H 0.876216 0.735139 0.335246
C17_38 C 0.89147(8) 0.73441(11) 0.38362(9)
C18_38 C 0.94953(10) 0.70651(13) 0.35702(10)
H13_38 H 0.968816 0.696856 0.347966
C19_38 C 0.91824(9) 0.72595(13) 0.40498(9)
H14_38 H 0.916468 0.729317 0.428057
C20_38 C 0.92272(10) 0.71499(12) 0.33615(9)
C21_38 C 0.92464(9) 0.70887(11) 0.29904(9)
C22_38 C 0.86000(9) 0.74994(11) 0.39806(9)
O11_26 O 0.90230(7) 0.72203(7) 0.28149(6)
O12_20 O 0.83586(6) 0.75390(7) 0.37902(6)
O13_20 O 0.86147(8) 0.75811(12) 0.42850(8)
O14_26 O 0.94843(9) 0.69042(14) 0.28874(8)
Ni6_8 Ni 0.82538(2) 0.75709(2) 0.46363(2)
Ni7_26 Ni 0.96363(2) 0.67462(2) 0.24291(2)
S1_39 S 0.51299(3) 0.80776(5) 0.49762(3)
O1_39 O 0.79210(7) 0.78147(6) 0.43452(6)
O2_39 O 0.73500(6) 0.77587(7) 0.38758(6)
O3_39 O 0.77876(7) 0.74773(7) 0.33700(6)
H1_39 H 0.787407 0.729504 0.328578
H2_39 H 0.766356 0.757392 0.321814
O4_39 O 0.84422(9) 0.80288(7) 0.48095(7)
O5_39 O 0.72859(8) 0.77845(17) 0.44312(8)
C1_39 C 0.71731(9) 0.77929(14) 0.41350(10)
C2_39 C 0.65937(10) 0.78764(13) 0.43658(9)
H3_39 H 0.668351 0.785196 0.458038
O6_33 O 0.79107(9) 0.74992(12) 0.50021(8)
H4_39 H 0.775386 0.737331 0.492706
H5_33 H 0.800414 0.740381 0.516961
N1_39 N 0.60489(8) 0.79439(13) 0.46220(8)
H6_39 H 0.614254 0.788343 0.480740
C3_39 C 0.68035(9) 0.78498(12) 0.40856(9)
C4_33 C 0.54089(10) 0.78811(15) 0.55174(10)
H7_33 H 0.544370 0.782565 0.574197
C5_39 C 0.66674(8) 0.78853(11) 0.37655(8)
H8_39 H 0.680352 0.786193 0.357668
C6_39 C 0.55539(10) 0.79848(17) 0.49673(10)
C7_33 C 0.56705(11) 0.78778(15) 0.52741(10)
H9_33 H 0.589093 0.781216 0.531691
O7_39 O 0.55545(9) 0.81339(18) 0.43972(9)
C8_39 C 0.62516(9) 0.79393(14) 0.43274(10)
C9_39 C 0.57206(11) 0.80357(18) 0.46357(11)
C10_33 C 0.51080(10) 0.79708(15) 0.53958(9)
C11_39 C 0.61185(9) 0.79797(14) 0.40089(9)
H10_39 H 0.589029 0.802295 0.398123
C12_39 C 0.61644(10) 0.79843(13) 0.33873(9)
C13_39 C 0.63290(9) 0.79554(12) 0.37290(8)
O9_39 O 0.45200(8) 0.80322(13) 0.53831(8)
O10_39 O 0.58564(8) 0.80577(16) 0.33893(8)
N2_39 N 0.47641(8) 0.79388(12) 0.58883(8)
H11_39 H 0.495425 0.794795 0.599101
C14_39 C 0.47676(10) 0.79863(14) 0.55496(10)
C15_39 C 0.44746(9) 0.78754(13) 0.60873(10)
C16_39 C 0.39390(9) 0.77084(10) 0.65066(9)
H12_39 H 0.376216 0.764861 0.664754
C17_39 C 0.39147(8) 0.76559(11) 0.61638(9)
C18_39 C 0.44953(10) 0.79349(13) 0.64298(10)
H13_39 H 0.468816 0.803144 0.652034
C19_39 C 0.41824(9) 0.77405(13) 0.59502(9)
H14_39 H 0.416468 0.770683 0.571943
C20_39 C 0.42272(10) 0.78501(12) 0.66385(9)
C21_39 C 0.42464(9) 0.79113(11) 0.70096(9)
C22_39 C 0.36000(9) 0.75006(11) 0.60194(9)
O11_27 O 0.40230(7) 0.77797(7) 0.71851(6)
O14_27 O 0.44843(9) 0.80958(14) 0.71126(8)
O15_39 O 0.86080(11) 0.73568(9) 0.49591(8)
C23_39 C 0.86562(16) 0.70611(15) 0.49614(17)
H15_39 H 0.852698 0.693154 0.481560
N3_39 N 0.8637(3) 0.8552(2) 0.4683(4)
C24_39 C 0.8548(2) 0.8244(2) 0.4612(2)
H16_39 H 0.856771 0.817929 0.438824
C25_33 C 0.8938(3) 0.6535(2) 0.5101(5)
H17_39 H 0.882184 0.646060 0.490307
H18_33 H 0.917501 0.649724 0.507454
H19_33 H 0.885769 0.641274 0.529281
C26_33 C 0.9125(3) 0.7084(3) 0.5349(2)
H20_33 H 0.906420 0.707606 0.558217
H21_33 H 0.934193 0.698273 0.531830
H22_33 H 0.913194 0.731362 0.527484
C27_39 C 0.8779(4) 0.8758(4) 0.4392(5)
H23_39 H 0.860949 0.890738 0.430819
H24_39 H 0.896868 0.888607 0.446944
H25_39 H 0.884992 0.860899 0.421529
C28_33 C 0.8570(6) 0.8668(5) 0.5069(5)
H26_33 H 0.837003 0.856102 0.515217
H27_33 H 0.875814 0.860486 0.520622
H28_33 H 0.854152 0.890812 0.507746
N4_33 N 0.88757(15) 0.68999(16) 0.51515(16)
H29_39 H 0.7761(17) 0.7846(17) 0.4394(17)
H30_39 H 0.804(3) 0.7986(18) 0.440(3)
Ni7_27 Ni 0.46363(2) 0.82538(2) 0.75709(2)
O17_15 O 0.77797(7) 0.71851(6) 0.40230(7)
O20_15 O 0.80958(14) 0.71126(8) 0.44843(9)
O9_40 O 0.04800(8) 0.19678(13) 0.03831(8)
N2_40 N 0.02359(8) 0.20612(12) 0.08883(8)
H11_40 H 0.004575 0.205205 0.099101
C14_40 C 0.02324(10) 0.20137(14) 0.05496(10)
C15_40 C 0.05254(9) 0.21246(13) 0.10873(10)
C16_40 C 0.10610(9) 0.22916(10) 0.15066(9)
H12_40 H 0.123784 0.235139 0.164754
C17_40 C 0.10853(8) 0.23441(11) 0.11638(9)
C18_40 C 0.05047(10) 0.20651(13) 0.14298(10)
H13_40 H 0.031184 0.196856 0.152034
C19_40 C 0.08176(9) 0.22595(13) 0.09502(9)
H14_40 H 0.083532 0.229317 0.071943
C20_40 C 0.07728(10) 0.21499(12) 0.16385(9)
C21_40 C 0.07536(9) 0.20887(11) 0.20096(9)
C22_40 C 0.14000(9) 0.24994(11) 0.10194(9)
O11_28 O 0.09770(7) 0.22203(7) 0.21851(6)
O14_28 O 0.05157(9) 0.19042(14) 0.21126(8)
Ni7_28 Ni 0.03637(2) 0.17462(2) 0.25709(2)
S1_40 S 0.98701(3) 0.19224(5) 0.99762(3)
O1_40 O 0.70790(7) 0.21853(6) 0.93452(6)
O2_40 O 0.76500(6) 0.22413(7) 0.88758(6)
O3_40 O 0.72124(7) 0.25227(7) 0.83700(6)
H1_40 H 0.712593 0.270496 0.828578
H2_40 H 0.733644 0.242608 0.821814
O4_40 O 0.65578(9) 0.19712(7) 0.98095(7)
O5_40 O 0.77141(8) 0.22155(17) 0.94312(8)
C1_40 C 0.78269(9) 0.22071(14) 0.91350(10)
C2_40 C 0.84063(10) 0.21236(13) 0.93658(9)
H3_40 H 0.831649 0.214804 0.958038
H4_40 H 0.724614 0.262669 0.992706
N1_40 N 0.89511(8) 0.20561(13) 0.96220(8)
H6_40 H 0.885746 0.211657 0.980740
C3_40 C 0.81965(9) 0.21502(12) 0.90856(9)
C5_40 C 0.83326(8) 0.21147(11) 0.87655(8)
H8_40 H 0.819648 0.213807 0.857668
C6_40 C 0.94461(10) 0.20152(17) 0.99673(10)
O7_40 O 0.94455(9) 0.18661(18) 0.93972(9)
C8_40 C 0.87484(9) 0.20607(14) 0.93274(10)
C9_40 C 0.92794(11) 0.19643(18) 0.96357(11)
C11_40 C 0.88815(9) 0.20203(14) 0.90089(9)
H10_40 H 0.910971 0.197705 0.898123
C12_40 C 0.88356(10) 0.20157(13) 0.83873(9)
C13_40 C 0.86710(9) 0.20446(12) 0.87290(8)
O10_40 O 0.91436(8) 0.19423(16) 0.83893(8)
O15_40 O 0.63920(11) 0.26432(9) 0.99591(8)
C23_40 C 0.63438(16) 0.29389(15) 0.99614(17)
H15_40 H 0.647302 0.306846 0.981560
N3_40 N 0.6363(3) 0.1448(2) 0.9683(4)
C24_40 C 0.6452(2) 0.1756(2) 0.9612(2)
H16_40 H 0.643229 0.182071 0.938824
H17_40 H 0.617816 0.353940 0.990307
C27_40 C 0.6221(4) 0.1242(4) 0.9392(5)
H23_40 H 0.639051 0.109262 0.930819
H24_40 H 0.603132 0.111393 0.946944
H25_40 H 0.615008 0.139101 0.921529
H29_40 H 0.7239(17) 0.2154(17) 0.9394(17)
H30_40 H 0.696(3) 0.2014(18) 0.940(3)
O17_16 O 0.72203(7) 0.28149(6) 0.90230(7)
O20_16 O 0.69042(14) 0.28874(8) 0.94843(9)
S1_41 S 0.00238(3) 0.48701(3) 0.30776(5)
O1_41 O 0.06548(6) 0.20790(7) 0.28147(6)
O2_41 O 0.11242(6) 0.26500(6) 0.27587(7)
O3_41 O 0.16300(6) 0.22124(7) 0.24773(7)
H1_41 H 0.171422 0.212593 0.229504
H2_41 H 0.178186 0.233644 0.257392
O4_41 O 0.01905(7) 0.15578(9) 0.30288(7)
O5_41 O 0.05688(8) 0.27141(8) 0.27845(17)
C1_41 C 0.08650(10) 0.28269(9) 0.27929(14)
C2_41 C 0.06342(9) 0.34063(10) 0.28764(13)
H3_41 H 0.041962 0.331649 0.285196
H4_41 H 0.007294 0.224614 0.237331
N1_41 N 0.03780(8) 0.39511(8) 0.29439(13)
H6_41 H 0.019260 0.385746 0.288343
C3_41 C 0.09144(9) 0.31965(9) 0.28498(12)
C5_41 C 0.12345(8) 0.33326(8) 0.28853(11)
H8_41 H 0.142332 0.319648 0.286193
C6_41 C 0.00327(10) 0.44461(10) 0.29848(17)
O7_41 O 0.06028(9) 0.44455(9) 0.31339(18)
C8_41 C 0.06726(10) 0.37484(9) 0.29393(14)
C9_41 C 0.03643(11) 0.42794(11) 0.30357(18)
C11_41 C 0.09911(9) 0.38815(9) 0.29797(14)
H10_41 H 0.101877 0.410971 0.302295
C12_41 C 0.16127(9) 0.38356(10) 0.29843(13)
C13_41 C 0.12710(8) 0.36710(9) 0.29554(12)
O10_41 O 0.16107(8) 0.41436(8) 0.30577(16)
O15_41 O 0.00409(8) 0.13920(11) 0.23568(9)
C23_41 C 0.00386(17) 0.13438(16) 0.20611(15)
H15_41 H 0.018440 0.147302 0.193154
N3_41 N 0.0317(4) 0.1363(3) 0.3552(2)
C24_41 C 0.0388(2) 0.1452(2) 0.3244(2)
H16_41 H 0.061176 0.143229 0.317929
H17_41 H 0.009693 0.117816 0.146060
C27_41 C 0.0608(5) 0.1221(4) 0.3758(4)
H23_41 H 0.069181 0.139051 0.390738
H24_41 H 0.053056 0.103132 0.388607
H25_41 H 0.078471 0.115008 0.360899
H29_41 H 0.0606(17) 0.2239(17) 0.2846(17)
H30_41 H 0.060(3) 0.196(3) 0.2986(18)
O18_21 O 0.12098(6) 0.16414(6) 0.25390(7)
O19_21 O 0.07150(8) 0.13853(8) 0.25811(12)
O6_34 O 0.99979(8) 0.20893(9) 0.24992(12)
H5_34 H 0.983039 0.199586 0.240381
C4_34 C 0.94826(10) 0.45911(10) 0.28811(15)
H7_34 H 0.925803 0.455630 0.282565
C7_34 C 0.97259(10) 0.43295(11) 0.28778(15)
H9_34 H 0.968309 0.410907 0.281216
C10_34 C 0.96042(9) 0.48920(10) 0.29708(15)
O9_41 O 0.96169(8) 0.54800(8) 0.30322(13)
N2_41 N 0.91117(8) 0.52359(8) 0.29388(12)
H11_41 H 0.900899 0.504575 0.294795
C14_41 C 0.94504(10) 0.52324(10) 0.29863(14)
C15_41 C 0.89127(10) 0.55254(9) 0.28754(13)
C16_41 C 0.84934(9) 0.60610(9) 0.27084(10)
H12_41 H 0.835246 0.623784 0.264861
C17_41 C 0.88362(9) 0.60853(8) 0.26559(11)
C18_41 C 0.85702(10) 0.55047(10) 0.29349(13)
H13_41 H 0.847966 0.531184 0.303144
C19_41 C 0.90498(9) 0.58176(9) 0.27405(13)
H14_41 H 0.928057 0.583532 0.270683
C20_41 C 0.83615(9) 0.57728(10) 0.28501(12)
C21_41 C 0.79904(9) 0.57536(9) 0.29113(11)
C22_41 C 0.89806(9) 0.64000(9) 0.25006(11)
O11_29 O 0.78149(6) 0.59770(7) 0.27797(7)
O12_21 O 0.87902(6) 0.66414(6) 0.24610(7)
O13_21 O 0.92850(8) 0.63853(8) 0.24189(12)
O14_29 O 0.78874(8) 0.55157(9) 0.30958(14)
C25_34 C 0.9899(5) 0.1062(3) 0.1535(2)
H18_34 H 0.992546 0.082499 0.149724
H19_34 H 0.970719 0.114231 0.141274
C26_34 C 0.9651(2) 0.0875(3) 0.2084(3)
H20_34 H 0.941783 0.093580 0.207606
H21_34 H 0.968170 0.065807 0.198273
H22_34 H 0.972516 0.086806 0.231362
C28_34 C 0.9931(5) 0.1430(6) 0.3668(5)
H26_34 H 0.984783 0.162997 0.356102
H27_34 H 0.979378 0.124186 0.360486
H28_34 H 0.992254 0.145848 0.390812
N4_34 N 0.98485(16) 0.11243(15) 0.18999(16)
Ni7_29 Ni 0.74291(2) 0.53637(2) 0.32538(2)
S1_42 S 0.50238(3) 0.01299(3) 0.69224(5)
O1_42 O 0.56548(6) 0.29210(7) 0.71853(6)
O2_42 O 0.61242(6) 0.23500(6) 0.72413(7)
O3_42 O 0.66300(6) 0.27876(7) 0.75227(7)
H1_42 H 0.671422 0.287407 0.770496
H2_42 H 0.678186 0.266356 0.742608
O4_42 O 0.51905(7) 0.34422(9) 0.69712(7)
O5_42 O 0.55688(8) 0.22859(8) 0.72155(17)
C1_42 C 0.58650(10) 0.21731(9) 0.72071(14)
C2_42 C 0.56342(9) 0.15937(10) 0.71236(13)
H3_42 H 0.541962 0.168351 0.714804
O6_35 O 0.49979(8) 0.29107(9) 0.75008(12)
H4_42 H 0.507294 0.275386 0.762669
H5_35 H 0.483039 0.300414 0.759619
N1_42 N 0.53780(8) 0.10489(8) 0.70561(13)
H6_42 H 0.519260 0.114254 0.711657
C3_42 C 0.59144(9) 0.18035(9) 0.71502(12)
C4_35 C 0.44826(10) 0.04089(10) 0.71189(15)
H7_35 H 0.425803 0.044370 0.717435
C5_42 C 0.62345(8) 0.16674(8) 0.71147(11)
H8_42 H 0.642332 0.180352 0.713807
C6_42 C 0.50327(10) 0.05539(10) 0.70152(17)
C7_35 C 0.47259(10) 0.06705(11) 0.71222(15)
H9_35 H 0.468309 0.089093 0.718784
O7_42 O 0.56028(9) 0.05545(9) 0.68661(18)
C8_42 C 0.56726(10) 0.12516(9) 0.70607(14)
C9_42 C 0.53643(11) 0.07206(11) 0.69643(18)
C10_35 C 0.46042(9) 0.01080(10) 0.70292(15)
C11_42 C 0.59911(9) 0.11185(9) 0.70203(14)
H10_42 H 0.601877 0.089029 0.697705
C12_42 C 0.66127(9) 0.11644(10) 0.70157(13)
C13_42 C 0.62710(8) 0.13290(9) 0.70446(12)
O10_42 O 0.66107(8) 0.08564(8) 0.69423(16)
O15_42 O 0.50409(8) 0.36080(11) 0.76432(9)
C23_42 C 0.50386(17) 0.36562(16) 0.79389(15)
H15_42 H 0.518440 0.352698 0.806846
N3_42 N 0.5317(4) 0.3637(3) 0.6448(2)
C24_42 C 0.5388(2) 0.3548(2) 0.6756(2)
H16_42 H 0.561176 0.356771 0.682071
C25_35 C 0.4899(5) 0.3938(3) 0.8465(2)
H17_42 H 0.509693 0.382184 0.853940
H18_35 H 0.492546 0.417501 0.850276
H19_35 H 0.470719 0.385769 0.858726
C26_35 C 0.4651(2) 0.4125(3) 0.7916(3)
H20_35 H 0.441783 0.406420 0.792394
H21_35 H 0.468170 0.434193 0.801727
H22_35 H 0.472516 0.413194 0.768638
C27_42 C 0.5608(5) 0.3779(4) 0.6242(4)
H23_42 H 0.569181 0.360949 0.609262
H24_42 H 0.553056 0.396868 0.611393
H25_42 H 0.578471 0.384992 0.639101
C28_35 C 0.4931(5) 0.3570(6) 0.6332(5)
H26_35 H 0.484783 0.337003 0.643898
H27_35 H 0.479378 0.375814 0.639514
H28_35 H 0.492254 0.354152 0.609188
N4_35 N 0.48485(16) 0.38757(15) 0.81001(16)
H29_42 H 0.5606(17) 0.2761(17) 0.7154(17)
H30_42 H 0.560(3) 0.304(3) 0.7014(18)
O18_22 O 0.62098(6) 0.33586(6) 0.74610(7)
O19_22 O 0.57150(8) 0.36147(8) 0.74189(12)
O9_42 O 0.46169(8) 0.95200(8) 0.69678(13)
N2_42 N 0.41117(8) 0.97641(8) 0.70612(12)
H11_42 H 0.400899 0.995425 0.705205
C14_42 C 0.44504(10) 0.97676(10) 0.70137(14)
C15_42 C 0.39127(10) 0.94746(9) 0.71246(13)
C16_42 C 0.34934(9) 0.89390(9) 0.72916(10)
H12_42 H 0.335246 0.876216 0.735139
C17_42 C 0.38362(9) 0.89147(8) 0.73441(11)
C18_42 C 0.35702(10) 0.94953(10) 0.70651(13)
H13_42 H 0.347966 0.968816 0.696856
C19_42 C 0.40498(9) 0.91824(9) 0.72595(13)
H14_42 H 0.428057 0.916468 0.729317
C20_42 C 0.33615(9) 0.92272(10) 0.71499(12)
C21_42 C 0.29904(9) 0.92464(9) 0.70887(11)
C22_42 C 0.39806(9) 0.86000(9) 0.74994(11)
O11_30 O 0.28149(6) 0.90230(7) 0.72203(7)
O12_22 O 0.37902(6) 0.83586(6) 0.75390(7)
O13_22 O 0.42850(8) 0.86147(8) 0.75811(12)
O14_30 O 0.28874(8) 0.94843(9) 0.69042(14)
Ni7_30 Ni 0.24291(2) 0.96363(2) 0.67462(2)
S1_43 S 0.49762(3) 0.51299(3) 0.80776(5)
O1_43 O 0.43452(6) 0.79210(7) 0.78147(6)
O2_43 O 0.38758(6) 0.73500(6) 0.77587(7)
O3_43 O 0.33700(6) 0.77876(7) 0.74773(7)
H1_43 H 0.328578 0.787407 0.729504
H2_43 H 0.321814 0.766356 0.757392
O4_43 O 0.48095(7) 0.84422(9) 0.80288(7)
O5_43 O 0.44312(8) 0.72859(8) 0.77845(17)
C1_43 C 0.41350(10) 0.71731(9) 0.77929(14)
C2_43 C 0.43658(9) 0.65937(10) 0.78764(13)
H3_43 H 0.458038 0.668351 0.785196
O6_36 O 0.50021(8) 0.79107(9) 0.74992(12)
H4_43 H 0.492706 0.775386 0.737331
H5_36 H 0.516961 0.800414 0.740381
N1_43 N 0.46220(8) 0.60489(8) 0.79439(13)
H6_43 H 0.480740 0.614254 0.788343
C3_43 C 0.40856(9) 0.68035(9) 0.78498(12)
C4_36 C 0.55174(10) 0.54089(10) 0.78811(15)
H7_36 H 0.574197 0.544370 0.782565
C5_43 C 0.37655(8) 0.66674(8) 0.78853(11)
H8_43 H 0.357668 0.680352 0.786193
C6_43 C 0.49673(10) 0.55539(10) 0.79848(17)
C7_36 C 0.52741(10) 0.56705(11) 0.78778(15)
H9_36 H 0.531691 0.589093 0.781216
O7_43 O 0.43972(9) 0.55545(9) 0.81339(18)
C8_43 C 0.43274(10) 0.62516(9) 0.79393(14)
C9_43 C 0.46357(11) 0.57206(11) 0.80357(18)
C10_36 C 0.53958(9) 0.51080(10) 0.79708(15)
C11_43 C 0.40089(9) 0.61185(9) 0.79797(14)
H10_43 H 0.398123 0.589029 0.802295
C12_43 C 0.33873(9) 0.61644(10) 0.79843(13)
C13_43 C 0.37290(8) 0.63290(9) 0.79554(12)
O9_43 O 0.53831(8) 0.45200(8) 0.80322(13)
O10_43 O 0.33893(8) 0.58564(8) 0.80577(16)
N2_43 N 0.58883(8) 0.47641(8) 0.79388(12)
H11_43 H 0.599101 0.495425 0.794795
C14_43 C 0.55496(10) 0.47676(10) 0.79863(14)
C15_43 C 0.60873(10) 0.44746(9) 0.78754(13)
C16_43 C 0.65066(9) 0.39390(9) 0.77084(10)
H12_43 H 0.664754 0.376216 0.764861
C17_43 C 0.61638(9) 0.39147(8) 0.76559(11)
C18_43 C 0.64298(10) 0.44953(10) 0.79349(13)
H13_43 H 0.652034 0.468816 0.803144
C19_43 C 0.59502(9) 0.41824(9) 0.77405(13)
H14_43 H 0.571943 0.416468 0.770683
C20_43 C 0.66385(9) 0.42272(10) 0.78501(12)
C21_43 C 0.70096(9) 0.42464(9) 0.79113(11)
C22_43 C 0.60194(9) 0.36000(9) 0.75006(11)
O11_31 O 0.71851(6) 0.40230(7) 0.77797(7)
O14_31 O 0.71126(8) 0.44843(9) 0.80958(14)
O15_43 O 0.49591(8) 0.86080(11) 0.73568(9)
C23_43 C 0.49614(17) 0.86562(16) 0.70611(15)
H15_43 H 0.481560 0.852698 0.693154
N3_43 N 0.4683(4) 0.8637(3) 0.8552(2)
C24_43 C 0.4612(2) 0.8548(2) 0.8244(2)
H16_43 H 0.438824 0.856771 0.817929
C25_36 C 0.5101(5) 0.8938(3) 0.6535(2)
H17_43 H 0.490307 0.882184 0.646060
H18_36 H 0.507454 0.917501 0.649724
H19_36 H 0.529281 0.885769 0.641274
C26_36 C 0.5349(2) 0.9125(3) 0.7084(3)
H20_36 H 0.558217 0.906420 0.707606
H21_36 H 0.531830 0.934193 0.698273
H22_36 H 0.527484 0.913194 0.731362
C27_43 C 0.4392(5) 0.8779(4) 0.8758(4)
H23_43 H 0.430819 0.860949 0.890738
H24_43 H 0.446944 0.896868 0.888607
H25_43 H 0.421529 0.884992 0.860899
C28_36 C 0.5069(5) 0.8570(6) 0.8668(5)
H26_36 H 0.515217 0.837003 0.856102
H27_36 H 0.520622 0.875814 0.860486
H28_36 H 0.507746 0.854152 0.890812
N4_36 N 0.51515(16) 0.88757(15) 0.68999(16)
H29_43 H 0.4394(17) 0.7761(17) 0.7846(17)
H30_43 H 0.440(3) 0.804(3) 0.7986(18)
Ni7_31 Ni 0.75709(2) 0.46363(2) 0.82538(2)
O9_44 O 0.03831(8) 0.04800(8) 0.19678(13)
N2_44 N 0.08883(8) 0.02359(8) 0.20612(12)
H11_44 H 0.099101 0.004575 0.205205
C14_44 C 0.05496(10) 0.02324(10) 0.20137(14)
C15_44 C 0.10873(10) 0.05254(9) 0.21246(13)
C16_44 C 0.15066(9) 0.10610(9) 0.22916(10)
H12_44 H 0.164754 0.123784 0.235139
C17_44 C 0.11638(9) 0.10853(8) 0.23441(11)
C18_44 C 0.14298(10) 0.05047(10) 0.20651(13)
H13_44 H 0.152034 0.031184 0.196856
C19_44 C 0.09502(9) 0.08176(9) 0.22595(13)
H14_44 H 0.071943 0.083532 0.229317
C20_44 C 0.16385(9) 0.07728(10) 0.21499(12)
C21_44 C 0.20096(9) 0.07536(9) 0.20887(11)
C22_44 C 0.10194(9) 0.14000(9) 0.24994(11)
O11_32 O 0.21851(6) 0.09770(7) 0.22203(7)
O14_32 O 0.21126(8) 0.05157(9) 0.19042(14)
Ni7_32 Ni 0.25709(2) 0.03637(2) 0.17462(2)
S1_44 S 0.99762(3) 0.98701(3) 0.19224(5)
O1_44 O 0.93452(6) 0.70790(7) 0.21853(6)
O2_44 O 0.88758(6) 0.76500(6) 0.22413(7)
O3_44 O 0.83700(6) 0.72124(7) 0.25227(7)
H1_44 H 0.828578 0.712593 0.270496
H2_44 H 0.821814 0.733644 0.242608
O4_44 O 0.98095(7) 0.65578(9) 0.19712(7)
O5_44 O 0.94312(8) 0.77141(8) 0.22155(17)
C1_44 C 0.91350(10) 0.78269(9) 0.22071(14)
C2_44 C 0.93658(9) 0.84063(10) 0.21236(13)
H3_44 H 0.958038 0.831649 0.214804
H4_44 H 0.992706 0.724614 0.262669
N1_44 N 0.96220(8) 0.89511(8) 0.20561(13)
H6_44 H 0.980740 0.885746 0.211657
C3_44 C 0.90856(9) 0.81965(9) 0.21502(12)
C5_44 C 0.87655(8) 0.83326(8) 0.21147(11)
H8_44 H 0.857668 0.819648 0.213807
C6_44 C 0.99673(10) 0.94461(10) 0.20152(17)
O7_44 O 0.93972(9) 0.94455(9) 0.18661(18)
C8_44 C 0.93274(10) 0.87484(9) 0.20607(14)
C9_44 C 0.96357(11) 0.92794(11) 0.19643(18)
C11_44 C 0.90089(9) 0.88815(9) 0.20203(14)
H10_44 H 0.898123 0.910971 0.197705
C12_44 C 0.83873(9) 0.88356(10) 0.20157(13)
C13_44 C 0.87290(8) 0.86710(9) 0.20446(12)
O10_44 O 0.83893(8) 0.91436(8) 0.19423(16)
O15_44 O 0.99591(8) 0.63920(11) 0.26432(9)
C23_44 C 0.99614(17) 0.63438(16) 0.29389(15)
H15_44 H 0.981560 0.647302 0.306846
N3_44 N 0.9683(4) 0.6363(3) 0.1448(2)
C24_44 C 0.9612(2) 0.6452(2) 0.1756(2)
H16_44 H 0.938824 0.643229 0.182071
H17_44 H 0.990307 0.617816 0.353940
C27_44 C 0.9392(5) 0.6221(4) 0.1242(4)
H23_44 H 0.930819 0.639051 0.109262
H24_44 H 0.946944 0.603132 0.111393
H25_44 H 0.921529 0.615008 0.139101
H29_44 H 0.9394(17) 0.7239(17) 0.2154(17)
H30_44 H 0.940(3) 0.696(3) 0.2014(18)
S1_45 S 0.30776(5) 0.00238(3) 0.48701(3)
O1_45 O 0.28147(6) 0.06548(6) 0.20790(7)
O2_45 O 0.27587(7) 0.11242(6) 0.26500(6)
O3_45 O 0.24773(7) 0.16300(6) 0.22124(7)
H1_45 H 0.229504 0.171422 0.212593
H2_45 H 0.257392 0.178186 0.233644
O4_45 O 0.30288(7) 0.01905(7) 0.15578(9)
O5_45 O 0.27845(17) 0.05688(8) 0.27141(8)
C1_45 C 0.27929(14) 0.08650(10) 0.28269(9)
C2_45 C 0.28764(13) 0.06342(9) 0.34063(10)
H3_45 H 0.285196 0.041962 0.331649
H4_45 H 0.237331 0.007294 0.224614
N1_45 N 0.29439(13) 0.03780(8) 0.39511(8)
H6_45 H 0.288343 0.019260 0.385746
C3_45 C 0.28498(12) 0.09144(9) 0.31965(9)
C5_45 C 0.28853(11) 0.12345(8) 0.33326(8)
H8_45 H 0.286193 0.142332 0.319648
C6_45 C 0.29848(17) 0.00327(10) 0.44461(10)
O7_45 O 0.31339(18) 0.06028(9) 0.44455(9)
C8_45 C 0.29393(14) 0.06726(10) 0.37484(9)
C9_45 C 0.30357(18) 0.03643(11) 0.42794(11)
C11_45 C 0.29797(14) 0.09911(9) 0.38815(9)
H10_45 H 0.302295 0.101877 0.410971
C12_45 C 0.29843(13) 0.16127(9) 0.38356(10)
C13_45 C 0.29554(12) 0.12710(8) 0.36710(9)
O10_45 O 0.30577(16) 0.16107(8) 0.41436(8)
O15_45 O 0.23568(9) 0.00409(8) 0.13920(11)
C23_45 C 0.20611(15) 0.00386(17) 0.13438(16)
H15_45 H 0.193154 0.018440 0.147302
N3_45 N 0.3552(2) 0.0317(4) 0.1363(3)
C24_45 C 0.3244(2) 0.0388(2) 0.1452(2)
H16_45 H 0.317929 0.061176 0.143229
H17_45 H 0.146060 0.009693 0.117816
C27_45 C 0.3758(4) 0.0608(5) 0.1221(4)
H23_45 H 0.390738 0.069181 0.139051
H24_45 H 0.388607 0.053056 0.103132
H25_45 H 0.360899 0.078471 0.115008
H29_45 H 0.2846(17) 0.0606(17) 0.2239(17)
H30_45 H 0.2986(18) 0.060(3) 0.196(3)
O18_23 O 0.25390(7) 0.12098(6) 0.16414(6)
O19_23 O 0.25811(12) 0.07150(8) 0.13853(8)
O6_37 O 0.24992(12) 0.99979(8) 0.20893(9)
H5_37 H 0.240381 0.983039 0.199586
C4_37 C 0.28811(15) 0.94826(10) 0.45911(10)
H7_37 H 0.282565 0.925803 0.455630
C7_37 C 0.28778(15) 0.97259(10) 0.43295(11)
H9_37 H 0.281216 0.968309 0.410907
C10_37 C 0.29708(15) 0.96042(9) 0.48920(10)
O9_45 O 0.30322(13) 0.96169(8) 0.54800(8)
N2_45 N 0.29388(12) 0.91117(8) 0.52359(8)
H11_45 H 0.294795 0.900899 0.504575
C14_45 C 0.29863(14) 0.94504(10) 0.52324(10)
C15_45 C 0.28754(13) 0.89127(10) 0.55254(9)
C16_45 C 0.27084(10) 0.84934(9) 0.60610(9)
H12_45 H 0.264861 0.835246 0.623784
C17_45 C 0.26559(11) 0.88362(9) 0.60853(8)
C18_45 C 0.29349(13) 0.85702(10) 0.55047(10)
H13_45 H 0.303144 0.847966 0.531184
C19_45 C 0.27405(13) 0.90498(9) 0.58176(9)
H14_45 H 0.270683 0.928057 0.583532
C20_45 C 0.28501(12) 0.83615(9) 0.57728(10)
C21_45 C 0.29113(11) 0.79904(9) 0.57536(9)
C22_45 C 0.25006(11) 0.89806(9) 0.64000(9)
O12_23 O 0.24610(7) 0.87902(6) 0.66414(6)
O13_23 O 0.24189(12) 0.92850(8) 0.63853(8)
C25_37 C 0.1535(2) 0.9899(5) 0.1062(3)
H18_37 H 0.149724 0.992546 0.082499
H19_37 H 0.141274 0.970719 0.114231
C26_37 C 0.2084(3) 0.9651(2) 0.0875(3)
H20_37 H 0.207606 0.941783 0.093580
H21_37 H 0.198273 0.968170 0.065807
H22_37 H 0.231362 0.972516 0.086806
C28_37 C 0.3668(5) 0.9931(5) 0.1430(6)
H26_37 H 0.356102 0.984783 0.162997
H27_37 H 0.360486 0.979378 0.124186
H28_37 H 0.390812 0.992254 0.145848
N4_37 N 0.18999(16) 0.98485(16) 0.11243(15)
S1_46 S 0.69224(5) 0.50238(3) 0.01299(3)
O1_46 O 0.71853(6) 0.56548(6) 0.29210(7)
O2_46 O 0.72413(7) 0.61242(6) 0.23500(6)
O3_46 O 0.75227(7) 0.66300(6) 0.27876(7)
H1_46 H 0.770496 0.671422 0.287407
H2_46 H 0.742608 0.678186 0.266356
O4_46 O 0.69712(7) 0.51905(7) 0.34422(9)
O5_46 O 0.72155(17) 0.55688(8) 0.22859(8)
C1_46 C 0.72071(14) 0.58650(10) 0.21731(9)
C2_46 C 0.71236(13) 0.56342(9) 0.15937(10)
H3_46 H 0.714804 0.541962 0.168351
O6_38 O 0.75008(12) 0.49979(8) 0.29107(9)
H4_46 H 0.762669 0.507294 0.275386
H5_38 H 0.759619 0.483039 0.300414
N1_46 N 0.70561(13) 0.53780(8) 0.10489(8)
H6_46 H 0.711657 0.519260 0.114254
C3_46 C 0.71502(12) 0.59144(9) 0.18035(9)
C4_38 C 0.71189(15) 0.44826(10) 0.04089(10)
H7_38 H 0.717435 0.425803 0.044370
C5_46 C 0.71147(11) 0.62345(8) 0.16674(8)
H8_46 H 0.713807 0.642332 0.180352
C6_46 C 0.70152(17) 0.50327(10) 0.05539(10)
C7_38 C 0.71222(15) 0.47259(10) 0.06705(11)
H9_38 H 0.718784 0.468309 0.089093
O7_46 O 0.68661(18) 0.56028(9) 0.05545(9)
C8_46 C 0.70607(14) 0.56726(10) 0.12516(9)
C9_46 C 0.69643(18) 0.53643(11) 0.07206(11)
C10_38 C 0.70292(15) 0.46042(9) 0.01080(10)
C11_46 C 0.70203(14) 0.59911(9) 0.11185(9)
H10_46 H 0.697705 0.601877 0.089029
C12_46 C 0.70157(13) 0.66127(9) 0.11644(10)
C13_46 C 0.70446(12) 0.62710(8) 0.13290(9)
O10_46 O 0.69423(16) 0.66107(8) 0.08564(8)
O15_46 O 0.76432(9) 0.50409(8) 0.36080(11)
C23_46 C 0.79389(15) 0.50386(17) 0.36562(16)
H15_46 H 0.806846 0.518440 0.352698
N3_46 N 0.6448(2) 0.5317(4) 0.3637(3)
C24_46 C 0.6756(2) 0.5388(2) 0.3548(2)
H16_46 H 0.682071 0.561176 0.356771
C25_38 C 0.8465(2) 0.4899(5) 0.3938(3)
H17_46 H 0.853940 0.509693 0.382184
H18_38 H 0.850276 0.492546 0.417501
H19_38 H 0.858726 0.470719 0.385769
C26_38 C 0.7916(3) 0.4651(2) 0.4125(3)
H20_38 H 0.792394 0.441783 0.406420
H21_38 H 0.801727 0.468170 0.434193
H22_38 H 0.768638 0.472516 0.413194
C27_46 C 0.6242(4) 0.5608(5) 0.3779(4)
H23_46 H 0.609262 0.569181 0.360949
H24_46 H 0.611393 0.553056 0.396868
H25_46 H 0.639101 0.578471 0.384992
C28_38 C 0.6332(5) 0.4931(5) 0.3570(6)
H26_38 H 0.643898 0.484783 0.337003
H27_38 H 0.639514 0.479378 0.375814
H28_38 H 0.609188 0.492254 0.354152
N4_38 N 0.81001(16) 0.48485(16) 0.38757(15)
H29_46 H 0.7154(17) 0.5606(17) 0.2761(17)
H30_46 H 0.7014(18) 0.560(3) 0.304(3)
O18_24 O 0.74610(7) 0.62098(6) 0.33586(6)
O19_24 O 0.74189(12) 0.57150(8) 0.36147(8)
O9_46 O 0.69678(13) 0.46169(8) 0.95200(8)
N2_46 N 0.70612(12) 0.41117(8) 0.97641(8)
H11_46 H 0.705205 0.400899 0.995425
C14_46 C 0.70137(14) 0.44504(10) 0.97676(10)
C15_46 C 0.71246(13) 0.39127(10) 0.94746(9)
C16_46 C 0.72916(10) 0.34934(9) 0.89390(9)
H12_46 H 0.735139 0.335246 0.876216
C17_46 C 0.73441(11) 0.38362(9) 0.89147(8)
C18_46 C 0.70651(13) 0.35702(10) 0.94953(10)
H13_46 H 0.696856 0.347966 0.968816
C19_46 C 0.72595(13) 0.40498(9) 0.91824(9)
H14_46 H 0.729317 0.428057 0.916468
C20_46 C 0.71499(12) 0.33615(9) 0.92272(10)
C21_46 C 0.70887(11) 0.29904(9) 0.92464(9)
C22_46 C 0.74994(11) 0.39806(9) 0.86000(9)
O12_24 O 0.75390(7) 0.37902(6) 0.83586(6)
O13_24 O 0.75811(12) 0.42850(8) 0.86147(8)
S1_47 S 0.80776(5) 0.49762(3) 0.51299(3)
O1_47 O 0.78147(6) 0.43452(6) 0.79210(7)
O2_47 O 0.77587(7) 0.38758(6) 0.73500(6)
O3_47 O 0.74773(7) 0.33700(6) 0.77876(7)
H1_47 H 0.729504 0.328578 0.787407
H2_47 H 0.757392 0.321814 0.766356
O4_47 O 0.80288(7) 0.48095(7) 0.84422(9)
O5_47 O 0.77845(17) 0.44312(8) 0.72859(8)
C1_47 C 0.77929(14) 0.41350(10) 0.71731(9)
C2_47 C 0.78764(13) 0.43658(9) 0.65937(10)
H3_47 H 0.785196 0.458038 0.668351
O6_39 O 0.74992(12) 0.50021(8) 0.79107(9)
H4_47 H 0.737331 0.492706 0.775386
H5_39 H 0.740381 0.516961 0.800414
N1_47 N 0.79439(13) 0.46220(8) 0.60489(8)
H6_47 H 0.788343 0.480740 0.614254
C3_47 C 0.78498(12) 0.40856(9) 0.68035(9)
C4_39 C 0.78811(15) 0.55174(10) 0.54089(10)
H7_39 H 0.782565 0.574197 0.544370
C5_47 C 0.78853(11) 0.37655(8) 0.66674(8)
H8_47 H 0.786193 0.357668 0.680352
C6_47 C 0.79848(17) 0.49673(10) 0.55539(10)
C7_39 C 0.78778(15) 0.52741(10) 0.56705(11)
H9_39 H 0.781216 0.531691 0.589093
O7_47 O 0.81339(18) 0.43972(9) 0.55545(9)
C8_47 C 0.79393(14) 0.43274(10) 0.62516(9)
C9_47 C 0.80357(18) 0.46357(11) 0.57206(11)
C10_39 C 0.79708(15) 0.53958(9) 0.51080(10)
C11_47 C 0.79797(14) 0.40089(9) 0.61185(9)
H10_47 H 0.802295 0.398123 0.589029
C12_47 C 0.79843(13) 0.33873(9) 0.61644(10)
C13_47 C 0.79554(12) 0.37290(8) 0.63290(9)
O9_47 O 0.80322(13) 0.53831(8) 0.45200(8)
O10_47 O 0.80577(16) 0.33893(8) 0.58564(8)
N2_47 N 0.79388(12) 0.58883(8) 0.47641(8)
H11_47 H 0.794795 0.599101 0.495425
C14_47 C 0.79863(14) 0.55496(10) 0.47676(10)
C15_47 C 0.78754(13) 0.60873(10) 0.44746(9)
C16_47 C 0.77084(10) 0.65066(9) 0.39390(9)
H12_47 H 0.764861 0.664754 0.376216
C17_47 C 0.76559(11) 0.61638(9) 0.39147(8)
C18_47 C 0.79349(13) 0.64298(10) 0.44953(10)
H13_47 H 0.803144 0.652034 0.468816
C19_47 C 0.77405(13) 0.59502(9) 0.41824(9)
H14_47 H 0.770683 0.571943 0.416468
C20_47 C 0.78501(12) 0.66385(9) 0.42272(10)
C21_47 C 0.79113(11) 0.70096(9) 0.42464(9)
C22_47 C 0.75006(11) 0.60194(9) 0.36000(9)
O15_47 O 0.73568(9) 0.49591(8) 0.86080(11)
C23_47 C 0.70611(15) 0.49614(17) 0.86562(16)
H15_47 H 0.693154 0.481560 0.852698
N3_47 N 0.8552(2) 0.4683(4) 0.8637(3)
C24_47 C 0.8244(2) 0.4612(2) 0.8548(2)
H16_47 H 0.817929 0.438824 0.856771
C25_39 C 0.6535(2) 0.5101(5) 0.8938(3)
H17_47 H 0.646060 0.490307 0.882184
H18_39 H 0.649724 0.507454 0.917501
H19_39 H 0.641274 0.529281 0.885769
C26_39 C 0.7084(3) 0.5349(2) 0.9125(3)
H20_39 H 0.707606 0.558217 0.906420
H21_39 H 0.698273 0.531830 0.934193
H22_39 H 0.731362 0.527484 0.913194
C27_47 C 0.8758(4) 0.4392(5) 0.8779(4)
H23_47 H 0.890738 0.430819 0.860949
H24_47 H 0.888607 0.446944 0.896868
H25_47 H 0.860899 0.421529 0.884992
C28_39 C 0.8668(5) 0.5069(5) 0.8570(6)
H26_39 H 0.856102 0.515217 0.837003
H27_39 H 0.860486 0.520622 0.875814
H28_39 H 0.890812 0.507746 0.854152
N4_39 N 0.68999(16) 0.51515(16) 0.88757(15)
H29_47 H 0.7846(17) 0.4394(17) 0.7761(17)
H30_47 H 0.7986(18) 0.440(3) 0.804(3)
O9_48 O 0.19678(13) 0.03831(8) 0.04800(8)
N2_48 N 0.20612(12) 0.08883(8) 0.02359(8)
H11_48 H 0.205205 0.099101 0.004575
C14_48 C 0.20137(14) 0.05496(10) 0.02324(10)
C15_48 C 0.21246(13) 0.10873(10) 0.05254(9)
C16_48 C 0.22916(10) 0.15066(9) 0.10610(9)
H12_48 H 0.235139 0.164754 0.123784
C17_48 C 0.23441(11) 0.11638(9) 0.10853(8)
C18_48 C 0.20651(13) 0.14298(10) 0.05047(10)
H13_48 H 0.196856 0.152034 0.031184
C19_48 C 0.22595(13) 0.09502(9) 0.08176(9)
H14_48 H 0.229317 0.071943 0.083532
C20_48 C 0.21499(12) 0.16385(9) 0.07728(10)
C21_48 C 0.20887(11) 0.20096(9) 0.07536(9)
C22_48 C 0.24994(11) 0.10194(9) 0.14000(9)
S1_48 S 0.19224(5) 0.99762(3) 0.98701(3)
O1_48 O 0.21853(6) 0.93452(6) 0.70790(7)
O2_48 O 0.22413(7) 0.88758(6) 0.76500(6)
O3_48 O 0.25227(7) 0.83700(6) 0.72124(7)
H1_48 H 0.270496 0.828578 0.712593
H2_48 H 0.242608 0.821814 0.733644
O4_48 O 0.19712(7) 0.98095(7) 0.65578(9)
O5_48 O 0.22155(17) 0.94312(8) 0.77141(8)
C1_48 C 0.22071(14) 0.91350(10) 0.78269(9)
C2_48 C 0.21236(13) 0.93658(9) 0.84063(10)
H3_48 H 0.214804 0.958038 0.831649
H4_48 H 0.262669 0.992706 0.724614
N1_48 N 0.20561(13) 0.96220(8) 0.89511(8)
H6_48 H 0.211657 0.980740 0.885746
C3_48 C 0.21502(12) 0.90856(9) 0.81965(9)
C5_48 C 0.21147(11) 0.87655(8) 0.83326(8)
H8_48 H 0.213807 0.857668 0.819648
C6_48 C 0.20152(17) 0.99673(10) 0.94461(10)
O7_48 O 0.18661(18) 0.93972(9) 0.94455(9)
C8_48 C 0.20607(14) 0.93274(10) 0.87484(9)
C9_48 C 0.19643(18) 0.96357(11) 0.92794(11)
C11_48 C 0.20203(14) 0.90089(9) 0.88815(9)
H10_48 H 0.197705 0.898123 0.910971
C12_48 C 0.20157(13) 0.83873(9) 0.88356(10)
C13_48 C 0.20446(12) 0.87290(8) 0.86710(9)
O10_48 O 0.19423(16) 0.83893(8) 0.91436(8)
O15_48 O 0.26432(9) 0.99591(8) 0.63920(11)
C23_48 C 0.29389(15) 0.99614(17) 0.63438(16)
H15_48 H 0.306846 0.981560 0.647302
N3_48 N 0.1448(2) 0.9683(4) 0.6363(3)
C24_48 C 0.1756(2) 0.9612(2) 0.6452(2)
H16_48 H 0.182071 0.938824 0.643229
H17_48 H 0.353940 0.990307 0.617816
C27_48 C 0.1242(4) 0.9392(5) 0.6221(4)
H23_48 H 0.109262 0.930819 0.639051
H24_48 H 0.111393 0.946944 0.603132
H25_48 H 0.139101 0.921529 0.615008
H29_48 H 0.2154(17) 0.9394(17) 0.7239(17)
H30_48 H 0.2014(18) 0.940(3) 0.696(3)
O6_40 O 0.70893(9) 0.75008(12) 0.99979(8)
H5_40 H 0.699586 0.759619 0.983039
C4_40 C 0.95911(10) 0.71189(15) 0.94826(10)
H7_40 H 0.955630 0.717435 0.925803
C7_40 C 0.93295(11) 0.71222(15) 0.97259(10)
H9_40 H 0.910907 0.718784 0.968309
C10_40 C 0.98920(10) 0.70292(15) 0.96042(9)
C25_40 C 0.6062(3) 0.8465(2) 0.9899(5)
H18_40 H 0.582499 0.850276 0.992546
H19_40 H 0.614231 0.858726 0.970719
C26_40 C 0.5875(3) 0.7916(3) 0.9651(2)
H20_40 H 0.593580 0.792394 0.941783
H21_40 H 0.565807 0.801727 0.968170
H22_40 H 0.586806 0.768638 0.972516
C28_40 C 0.6430(6) 0.6332(5) 0.9931(5)
H26_40 H 0.662997 0.643898 0.984783
H27_40 H 0.624186 0.639514 0.979378
H28_40 H 0.645848 0.609188 0.992254
N4_40 N 0.61243(15) 0.81001(16) 0.98485(16)
O6_41 O 0.99979(8) 0.70893(9) 0.75008(12)
H5_41 H 0.983039 0.699586 0.759619
C4_41 C 0.94826(10) 0.95911(10) 0.71189(15)
H7_41 H 0.925803 0.955630 0.717435
C7_41 C 0.97259(10) 0.93295(11) 0.71222(15)
H9_41 H 0.968309 0.910907 0.718784
C10_41 C 0.96042(9) 0.98920(10) 0.70292(15)
C25_41 C 0.9899(5) 0.6062(3) 0.8465(2)
H18_41 H 0.992546 0.582499 0.850276
H19_41 H 0.970719 0.614231 0.858726
C26_41 C 0.9651(2) 0.5875(3) 0.7916(3)
H20_41 H 0.941783 0.593580 0.792394
H21_41 H 0.968170 0.565807 0.801727
H22_41 H 0.972516 0.586806 0.768638
C28_41 C 0.9931(5) 0.6430(6) 0.6332(5)
H26_41 H 0.984783 0.662997 0.643898
H27_41 H 0.979378 0.624186 0.639514
H28_41 H 0.992254 0.645848 0.609188
N4_41 N 0.98485(16) 0.61243(15) 0.81001(16)
O6_42 O 0.75008(12) 0.99979(8) 0.70893(9)
H5_42 H 0.759619 0.983039 0.699586
C4_42 C 0.71189(15) 0.94826(10) 0.95911(10)
H7_42 H 0.717435 0.925803 0.955630
C7_42 C 0.71222(15) 0.97259(10) 0.93295(11)
H9_42 H 0.718784 0.968309 0.910907
C10_42 C 0.70292(15) 0.96042(9) 0.98920(10)
C25_42 C 0.8465(2) 0.9899(5) 0.6062(3)
H18_42 H 0.850276 0.992546 0.582499
H19_42 H 0.858726 0.970719 0.614231
C26_42 C 0.7916(3) 0.9651(2) 0.5875(3)
H20_42 H 0.792394 0.941783 0.593580
H21_42 H 0.801727 0.968170 0.565807
H22_42 H 0.768638 0.972516 0.586806
C28_42 C 0.6332(5) 0.9931(5) 0.6430(6)
H26_42 H 0.643898 0.984783 0.662997
H27_42 H 0.639514 0.979378 0.624186
H28_42 H 0.609188 0.992254 0.645848
N4_42 N 0.81001(16) 0.98485(16) 0.61243(15)
O6_43 O 0.70893(9) 0.25008(12) 0.00021(8)
H5_43 H 0.699586 0.259619 0.016961
C4_43 C 0.95911(10) 0.21189(15) 0.05174(10)
H7_43 H 0.955630 0.217435 0.074197
C7_43 C 0.93295(11) 0.21222(15) 0.02741(10)
H9_43 H 0.910907 0.218784 0.031691
C10_43 C 0.98920(10) 0.20292(15) 0.03958(9)
C25_43 C 0.6062(3) 0.3465(2) 0.0101(5)
H18_43 H 0.582499 0.350276 0.007454
H19_43 H 0.614231 0.358726 0.029281
C26_43 C 0.5875(3) 0.2916(3) 0.0349(2)
H20_43 H 0.593580 0.292394 0.058217
H21_43 H 0.565807 0.301727 0.031830
H22_43 H 0.586806 0.268638 0.027484
C28_43 C 0.6430(6) 0.1332(5) 0.0069(5)
H26_43 H 0.662997 0.143898 0.015217
H27_43 H 0.624186 0.139514 0.020622
H28_43 H 0.645848 0.109188 0.007746
N4_43 N 0.61243(15) 0.31001(16) 0.01515(16)
O6_44 O 0.00021(8) 0.70893(9) 0.25008(12)
H5_44 H 0.016961 0.699586 0.259619
C4_44 C 0.05174(10) 0.95911(10) 0.21189(15)
H7_44 H 0.074197 0.955630 0.217435
C7_44 C 0.02741(10) 0.93295(11) 0.21222(15)
H9_44 H 0.031691 0.910907 0.218784
C10_44 C 0.03958(9) 0.98920(10) 0.20292(15)
C25_44 C 0.0101(5) 0.6062(3) 0.3465(2)
H18_44 H 0.007454 0.582499 0.350276
H19_44 H 0.029281 0.614231 0.358726
C26_44 C 0.0349(2) 0.5875(3) 0.2916(3)
H20_44 H 0.058217 0.593580 0.292394
H21_44 H 0.031830 0.565807 0.301727
H22_44 H 0.027484 0.586806 0.268638
C28_44 C 0.0069(5) 0.6430(6) 0.1332(5)
H26_44 H 0.015217 0.662997 0.143898
H27_44 H 0.020622 0.624186 0.139514
H28_44 H 0.007746 0.645848 0.109188
N4_44 N 0.01515(16) 0.61243(15) 0.31001(16)
O6_45 O 0.25008(12) 0.00021(8) 0.70893(9)
H5_45 H 0.259619 0.016961 0.699586
C4_45 C 0.21189(15) 0.05174(10) 0.95911(10)
H7_45 H 0.217435 0.074197 0.955630
C7_45 C 0.21222(15) 0.02741(10) 0.93295(11)
H9_45 H 0.218784 0.031691 0.910907
C10_45 C 0.20292(15) 0.03958(9) 0.98920(10)
C25_45 C 0.3465(2) 0.0101(5) 0.6062(3)
H18_45 H 0.350276 0.007454 0.582499
H19_45 H 0.358726 0.029281 0.614231
C26_45 C 0.2916(3) 0.0349(2) 0.5875(3)
H20_45 H 0.292394 0.058217 0.593580
H21_45 H 0.301727 0.031830 0.565807
H22_45 H 0.268638 0.027484 0.586806
C28_45 C 0.1332(5) 0.0069(5) 0.6430(6)
H26_45 H 0.143898 0.015217 0.662997
H27_45 H 0.139514 0.020622 0.624186
H28_45 H 0.109188 0.007746 0.645848
N4_45 N 0.31001(16) 0.01515(16) 0.61243(15)
O6_46 O 0.29107(9) 0.24992(12) 0.00021(8)
H5_46 H 0.300414 0.240381 0.016961
C4_46 C 0.04089(10) 0.28811(15) 0.05174(10)
H7_46 H 0.044370 0.282565 0.074197
C7_46 C 0.06705(11) 0.28778(15) 0.02741(10)
H9_46 H 0.089093 0.281216 0.031691
C10_46 C 0.01080(10) 0.29708(15) 0.03958(9)
C25_46 C 0.3938(3) 0.1535(2) 0.0101(5)
H18_46 H 0.417501 0.149724 0.007454
H19_46 H 0.385769 0.141274 0.029281
C26_46 C 0.4125(3) 0.2084(3) 0.0349(2)
H20_46 H 0.406420 0.207606 0.058217
H21_46 H 0.434193 0.198273 0.031830
H22_46 H 0.413194 0.231362 0.027484
C28_46 C 0.3570(6) 0.3668(5) 0.0069(5)
H26_46 H 0.337003 0.356102 0.015217
H27_46 H 0.375814 0.360486 0.020622
H28_46 H 0.354152 0.390812 0.007746
N4_46 N 0.38757(15) 0.18999(16) 0.01515(16)
O6_47 O 0.00021(8) 0.29107(9) 0.24992(12)
H5_47 H 0.016961 0.300414 0.240381
C4_47 C 0.05174(10) 0.04089(10) 0.28811(15)
H7_47 H 0.074197 0.044370 0.282565
C7_47 C 0.02741(10) 0.06705(11) 0.28778(15)
H9_47 H 0.031691 0.089093 0.281216
C10_47 C 0.03958(9) 0.01080(10) 0.29708(15)
C25_47 C 0.0101(5) 0.3938(3) 0.1535(2)
H18_47 H 0.007454 0.417501 0.149724
H19_47 H 0.029281 0.385769 0.141274
C26_47 C 0.0349(2) 0.4125(3) 0.2084(3)
H20_47 H 0.058217 0.406420 0.207606
H21_47 H 0.031830 0.434193 0.198273
H22_47 H 0.027484 0.413194 0.231362
C28_47 C 0.0069(5) 0.3570(6) 0.3668(5)
H26_47 H 0.015217 0.337003 0.356102
H27_47 H 0.020622 0.375814 0.360486
H28_47 H 0.007746 0.354152 0.390812
N4_47 N 0.01515(16) 0.38757(15) 0.18999(16)
O6_48 O 0.24992(12) 0.00021(8) 0.29107(9)
H5_48 H 0.240381 0.016961 0.300414
C4_48 C 0.28811(15) 0.05174(10) 0.04089(10)
H7_48 H 0.282565 0.074197 0.044370
C7_48 C 0.28778(15) 0.02741(10) 0.06705(11)
H9_48 H 0.281216 0.031691 0.089093
C10_48 C 0.29708(15) 0.03958(9) 0.01080(10)
C25_48 C 0.1535(2) 0.0101(5) 0.3938(3)
H18_48 H 0.149724 0.007454 0.417501
H19_48 H 0.141274 0.029281 0.385769
C26_48 C 0.2084(3) 0.0349(2) 0.4125(3)
H20_48 H 0.207606 0.058217 0.406420
H21_48 H 0.198273 0.031830 0.434193
H22_48 H 0.231362 0.027484 0.413194
C28_48 C 0.3668(5) 0.0069(5) 0.3570(6)
H26_48 H 0.356102 0.015217 0.337003
H27_48 H 0.360486 0.020622 0.375814
H28_48 H 0.390812 0.007746 0.354152
N4_48 N 0.18999(16) 0.01515(16) 0.38757(15)
loop_
_geom_bond_atom_site_label_1
_geom_bond_atom_site_label_2
_geom_bond_site_symmetry_1
_geom_bond_site_symmetry_2
H5 O6 1_555 1_555
C4 H7 1_555 1_555
C7 C4 1_555 1_555
H9 C7 1_555 1_555
O9 C14 1_555 1_555
N2 H11 1_555 1_555
C14 C10 1_555 1_555
C15 N2 1_555 1_555
C16 H12 1_555 1_555
C17 C16 1_555 1_555
C18 C15 1_555 1_555
H13 C18 1_555 1_555
C19 C15 1_555 1_555
H14 C19 1_555 1_555
C20 C16 1_555 1_555
C21 C20 1_555 1_555
C22 C17 1_555 1_555
O11 C21 1_555 1_555
O12 C22 1_555 1_555
O13 C22 1_555 1_555
O14 C21 1_555 1_555
H18 C25 1_555 1_555
H19 C25 1_555 1_555
C26 H20 1_555 1_555
H21 C26 1_555 1_555
H22 C26 1_555 1_555
H26 C28 1_555 1_555
H27 C28 1_555 1_555
H28 C28 1_555 1_555
Ni3 O12 1_555 1_555
Ni4 O11 1_555 1_555
Ni6 O13 1_555 1_555
Ni7 O14 1_555 1_555
C4 C10 1_555 1_555
N2 C14 1_555 1_555
C17 C19 1_555 1_555
C18 C20 1_555 1_555
C25 N4 1_555 1_555
C26 N4 1_555 1_555
Ni1 O1 1_555 1_555
Ni2 O1 1_555 1_555
S1 C6 1_555 1_555
O1 H29 1_555 1_555
O2 Ni1 1_555 1_555
O3 Ni1 1_555 1_555
H1 O3 1_555 1_555
H2 O3 1_555 1_555
O4 Ni2 1_555 1_555
O5 C1 1_555 1_555
C1 O2 1_555 1_555
C2 H3 1_555 1_555
N1 H6 1_555 1_555
C3 C1 1_555 1_555
C5 C3 1_555 1_555
H8 C5 1_555 1_555
O7 C9 1_555 1_555
C8 C2 1_555 1_555
C9 N1 1_555 1_555
C11 C8 1_555 1_555
H10 C11 1_555 1_555
C12 C13 1_555 1_555
C13 C5 1_555 1_555
O8 C12 1_555 1_555
O10 C12 1_555 1_555
O15 Ni2 1_555 1_555
C23 O15 1_555 1_555
H15 C23 1_555 1_555
N3 C24 1_555 1_555
C24 O4 1_555 1_555
H16 C24 1_555 1_555
C27 N3 1_555 1_555
H23 C27 1_555 1_555
H24 C27 1_555 1_555
H25 C27 1_555 1_555
H30 O1 1_555 1_555
Ni5 O8 1_555 1_555
O16 Ni1 1_555 1_555
O17 Ni1 1_555 1_555
O18 Ni1 1_555 1_555
O19 Ni2 1_555 1_555
O20 Ni2 1_555 1_555
C2 C3 1_555 1_555
N1 C8 1_555 1_555
C6 C9 1_555 1_555
C11 C13 1_555 1_555
O9_2 C14_2 1_555 1_555
N2_2 H11_2 1_555 1_555
C15_2 N2_2 1_555 1_555
C16_2 H12_2 1_555 1_555
C17_2 C16_2 1_555 1_555
C18_2 C15_2 1_555 1_555
H13_2 C18_2 1_555 1_555
C19_2 C15_2 1_555 1_555
H14_2 C19_2 1_555 1_555
C20_2 C16_2 1_555 1_555
C21_2 C20_2 1_555 1_555
C22_2 C17_2 1_555 1_555
O11_2 C21_2 1_555 1_555
O12_2 C22_2 1_555 1_555
O13_2 C22_2 1_555 1_555
O14_2 C21_2 1_555 1_555
Ni3_2 O12_2 1_555 1_555
Ni4_2 O11_2 1_555 1_555
Ni6_2 O13_2 1_555 1_555
Ni7_2 O14_2 1_555 1_555
N2_2 C14_2 1_555 1_555
C17_2 C19_2 1_555 1_555
C18_2 C20_2 1_555 1_555
Ni1_2 O1_2 1_555 1_555
Ni2_2 O1_2 1_555 1_555
S1_2 C6_2 1_555 1_555
O1_2 H29_2 1_555 1_555
O2_2 Ni1_2 1_555 1_555
O3_2 Ni1_2 1_555 1_555
H1_2 O3_2 1_555 1_555
H2_2 O3_2 1_555 1_555
O4_2 Ni2_2 1_555 1_555
O5_2 C1_2 1_555 1_555
C1_2 O2_2 1_555 1_555
C2_2 H3_2 1_555 1_555
O6_2 Ni2_2 1_555 1_555
H4_2 O6_2 1_555 1_555
H5_2 O6_2 1_555 1_555
N1_2 H6_2 1_555 1_555
C3_2 C1_2 1_555 1_555
C4_2 H7_2 1_555 1_555
C5_2 C3_2 1_555 1_555
H8_2 C5_2 1_555 1_555
C6_2 C7_2 1_555 1_555
C7_2 C4_2 1_555 1_555
H9_2 C7_2 1_555 1_555
O7_2 C9_2 1_555 1_555
C8_2 C2_2 1_555 1_555
C9_2 N1_2 1_555 1_555
C10_2 S1_2 1_555 1_555
C11_2 C8_2 1_555 1_555
H10_2 C11_2 1_555 1_555
C12_2 C13_2 1_555 1_555
C13_2 C5_2 1_555 1_555
O8_2 C12_2 1_555 1_555
O10_2 C12_2 1_555 1_555
O15_2 Ni2_2 1_555 1_555
C23_2 O15_2 1_555 1_555
H15_2 C23_2 1_555 1_555
N3_2 C24_2 1_555 1_555
C24_2 O4_2 1_555 1_555
H16_2 C24_2 1_555 1_555
C25_2 H17_2 1_555 1_555
H18_2 C25_2 1_555 1_555
H19_2 C25_2 1_555 1_555
C26_2 H20_2 1_555 1_555
H21_2 C26_2 1_555 1_555
H22_2 C26_2 1_555 1_555
C27_2 N3_2 1_555 1_555
H23_2 C27_2 1_555 1_555
H24_2 C27_2 1_555 1_555
H25_2 C27_2 1_555 1_555
C28_2 N3_2 1_555 1_555
H26_2 C28_2 1_555 1_555
H27_2 C28_2 1_555 1_555
H28_2 C28_2 1_555 1_555
N4_2 C23_2 1_555 1_555
H30_2 O1_2 1_555 1_555
Ni5_2 O8_2 1_555 1_555
O16_2 Ni1_2 1_555 1_555
O17_2 Ni1_2 1_555 1_555
O18_2 Ni1_2 1_555 1_555
O19_2 Ni2_2 1_555 1_555
O20_2 Ni2_2 1_555 1_555
C2_2 C3_2 1_555 1_555
N1_2 C8_2 1_555 1_555
C4_2 C10_2 1_555 1_555
C6_2 C9_2 1_555 1_555
C11_2 C13_2 1_555 1_555
C25_2 N4_2 1_555 1_555
C26_2 N4_2 1_555 1_555
Ni3_2 O1_3 1_555 1_555
Ni6_2 O1_3 1_555 1_555
S1_3 C6_3 1_555 1_555
O1_3 H29_3 1_555 1_555
O2_3 Ni3_2 1_555 1_555
O3_3 Ni3_2 1_555 1_555
H1_3 O3_3 1_555 1_555
H2_3 O3_3 1_555 1_555
O4_3 Ni6_2 1_555 1_555
O5_3 C1_3 1_555 1_555
C1_3 O2_3 1_555 1_555
C2_3 H3_3 1_555 1_555
O6_3 Ni6_2 1_555 1_555
H4_3 O6_3 1_555 1_555
H5_3 O6_3 1_555 1_555
N1_3 H6_3 1_555 1_555
C3_3 C1_3 1_555 1_555
C4_3 H7_3 1_555 1_555
C5_3 C3_3 1_555 1_555
H8_3 C5_3 1_555 1_555
C6_3 C7_3 1_555 1_555
C7_3 C4_3 1_555 1_555
H9_3 C7_3 1_555 1_555
O7_3 C9_3 1_555 1_555
C8_3 C2_3 1_555 1_555
C9_3 N1_3 1_555 1_555
C10_3 S1_3 1_555 1_555
C11_3 C8_3 1_555 1_555
H10_3 C11_3 1_555 1_555
C12_3 C13_3 1_555 1_555
C13_3 C5_3 1_555 1_555
O8_3 C12_3 1_555 1_555
O9_3 C14_3 1_555 1_555
O10_3 C12_3 1_555 1_555
N2_3 H11_3 1_555 1_555
C14_3 C10_3 1_555 1_555
C15_3 N2_3 1_555 1_555
C16_3 H12_3 1_555 1_555
C17_3 C16_3 1_555 1_555
C18_3 C15_3 1_555 1_555
H13_3 C18_3 1_555 1_555
C19_3 C15_3 1_555 1_555
H14_3 C19_3 1_555 1_555
C20_3 C16_3 1_555 1_555
C21_3 C20_3 1_555 1_555
C22_3 C17_3 1_555 1_555
O11_3 C21_3 1_555 1_555
O18_2 C22_3 1_555 1_555
O19_2 C22_3 1_555 1_555
O14_3 C21_3 1_555 1_555
O15_3 Ni6_2 1_555 1_555
C23_3 O15_3 1_555 1_555
H15_3 C23_3 1_555 1_555
N3_3 C24_3 1_555 1_555
C24_3 O4_3 1_555 1_555
H16_3 C24_3 1_555 1_555
C25_3 H17_3 1_555 1_555
H18_3 C25_3 1_555 1_555
H19_3 C25_3 1_555 1_555
C26_3 H20_3 1_555 1_555
H21_3 C26_3 1_555 1_555
H22_3 C26_3 1_555 1_555
C27_3 N3_3 1_555 1_555
H23_3 C27_3 1_555 1_555
H24_3 C27_3 1_555 1_555
H25_3 C27_3 1_555 1_555
C28_3 N3_3 1_555 1_555
H26_3 C28_3 1_555 1_555
H27_3 C28_3 1_555 1_555
H28_3 C28_3 1_555 1_555
N4_3 C23_3 1_555 1_555
H30_3 O1_3 1_555 1_555
Ni4_3 O11_3 1_555 1_555
Ni5_3 O8_3 1_555 1_555
Ni7_3 O14_3 1_555 1_555
O16_3 Ni3_2 1_555 1_555
O17_3 Ni3_2 1_555 1_555
O20_3 Ni6_2 1_555 1_555
C2_3 C3_3 1_555 1_555
N1_3 C8_3 1_555 1_555
C4_3 C10_3 1_555 1_555
C6_3 C9_3 1_555 1_555
C11_3 C13_3 1_555 1_555
N2_3 C14_3 1_555 1_555
C17_3 C19_3 1_555 1_555
C18_3 C20_3 1_555 1_555
C25_3 N4_3 1_555 1_555
C26_3 N4_3 1_555 1_555
Ni3 O1_4 1_555 1_555
Ni6 O1_4 1_555 1_555
S1_4 C6_4 1_555 1_555
O1_4 H29_4 1_555 1_555
O2_4 Ni3 1_555 1_555
O3_4 Ni3 1_555 1_555
H1_4 O3_4 1_555 1_555
H2_4 O3_4 1_555 1_555
O4_4 Ni6 1_555 1_555
O5_4 C1_4 1_555 1_555
C1_4 O2_4 1_555 1_555
C2_4 H3_4 1_555 1_555
N1_4 H6_4 1_555 1_555
C3_4 C1_4 1_555 1_555
C5_4 C3_4 1_555 1_555
H8_4 C5_4 1_555 1_555
O7_4 C9_4 1_555 1_555
C8_4 C2_4 1_555 1_555
C9_4 N1_4 1_555 1_555
C11_4 C8_4 1_555 1_555
H10_4 C11_4 1_555 1_555
C12_4 C13_4 1_555 1_555
C13_4 C5_4 1_555 1_555
O8_4 C12_4 1_555 1_555
O10_4 C12_4 1_555 1_555
O15_4 Ni6 1_555 1_555
C23_4 O15_4 1_555 1_555
H15_4 C23_4 1_555 1_555
N3_4 C24_4 1_555 1_555
C24_4 O4_4 1_555 1_555
H16_4 C24_4 1_555 1_555
C27_4 N3_4 1_555 1_555
H23_4 C27_4 1_555 1_555
H24_4 C27_4 1_555 1_555
H25_4 C27_4 1_555 1_555
H30_4 O1_4 1_555 1_555
Ni5_4 O8_4 1_555 1_555
O16_4 Ni3 1_555 1_555
O17_4 Ni3 1_555 1_555
O20_4 Ni6 1_555 1_555
C2_4 C3_4 1_555 1_555
N1_4 C8_4 1_555 1_555
C6_4 C9_4 1_555 1_555
C11_4 C13_4 1_555 1_555
O9_4 C14_4 1_555 1_555
N2_4 H11_4 1_555 1_555
C15_4 N2_4 1_555 1_555
C16_4 H12_4 1_555 1_555
C17_4 C16_4 1_555 1_555
C18_4 C15_4 1_555 1_555
H13_4 C18_4 1_555 1_555
C19_4 C15_4 1_555 1_555
H14_4 C19_4 1_555 1_555
C20_4 C16_4 1_555 1_555
C21_4 C20_4 1_555 1_555
C22_4 C17_4 1_555 1_555
O11_4 C21_4 1_555 1_555
O18 C22_4 1_555 1_555
O19 C22_4 1_555 1_555
O14_4 C21_4 1_555 1_555
Ni4_4 O11_4 1_555 1_555
Ni7_4 O14_4 1_555 1_555
N2_4 C14_4 1_555 1_555
C17_4 C19_4 1_555 1_555
C18_4 C20_4 1_555 1_555
H5_4 O6_4 1_555 1_555
C4_4 H7_4 1_555 1_555
C7_4 C4_4 1_555 1_555
H9_4 C7_4 1_555 1_555
O9_5 C14_5 1_555 1_555
N2_5 H11_5 1_555 1_555
C14_5 C10_4 1_555 1_555
C15_5 N2_5 1_555 1_555
C16_5 H12_5 1_555 1_555
C17_5 C16_5 1_555 1_555
C18_5 C15_5 1_555 1_555
H13_5 C18_5 1_555 1_555
C19_5 C15_5 1_555 1_555
H14_5 C19_5 1_555 1_555
C20_5 C16_5 1_555 1_555
C21_5 C20_5 1_555 1_555
C22_5 C17_5 1_555 1_555
O11_5 C21_5 1_555 1_555
O12_3 C22_5 1_555 1_555
O13_3 C22_5 1_555 1_555
O14_5 C21_5 1_555 1_555
H18_4 C25_4 1_555 1_555
H19_4 C25_4 1_555 1_555
C26_4 H20_4 1_555 1_555
H21_4 C26_4 1_555 1_555
H22_4 C26_4 1_555 1_555
H26_4 C28_4 1_555 1_555
H27_4 C28_4 1_555 1_555
H28_4 C28_4 1_555 1_555
Ni4_2 O12_3 1_555 1_555
Ni4_5 O11_5 1_555 1_555
Ni7_2 O13_3 1_555 1_555
Ni7_5 O14_5 1_555 1_555
C4_4 C10_4 1_555 1_555
N2_5 C14_5 1_555 1_555
C17_5 C19_5 1_555 1_555
C18_5 C20_5 1_555 1_555
C25_4 N4_4 1_555 1_555
C26_4 N4_4 1_555 1_555
Ni4_4 O1_5 1_555 1_555
Ni7_4 O1_5 1_555 1_555
S1_5 C6_5 1_555 1_555
O1_5 H29_5 1_555 1_555
O2_5 Ni4_4 1_555 1_555
O3_5 Ni4_4 1_555 1_555
H1_5 O3_5 1_555 1_555
H2_5 O3_5 1_555 1_555
O4_5 Ni7_4 1_555 1_555
O5_5 C1_5 1_555 1_555
C1_5 O2_5 1_555 1_555
C2_5 H3_5 1_555 1_555
N1_5 H6_5 1_555 1_555
C3_5 C1_5 1_555 1_555
C5_5 C3_5 1_555 1_555
H8_5 C5_5 1_555 1_555
O7_5 C9_5 1_555 1_555
C8_5 C2_5 1_555 1_555
C9_5 N1_5 1_555 1_555
C11_5 C8_5 1_555 1_555
H10_5 C11_5 1_555 1_555
C12_5 C13_5 1_555 1_555
C13_5 C5_5 1_555 1_555
O8_5 C12_5 1_555 1_555
O10_5 C12_5 1_555 1_555
O15_5 Ni7_4 1_555 1_555
C23_5 O15_5 1_555 1_555
H15_5 C23_5 1_555 1_555
N3_5 C24_5 1_555 1_555
C24_5 O4_5 1_555 1_555
H16_5 C24_5 1_555 1_555
C27_5 N3_5 1_555 1_555
H23_5 C27_5 1_555 1_555
H24_5 C27_5 1_555 1_555
H25_5 C27_5 1_555 1_555
H30_5 O1_5 1_555 1_555
Ni5_5 O8_5 1_555 1_555
O16_5 Ni4_4 1_555 1_555
O18_3 Ni4_4 1_555 1_555
O19_3 Ni7_4 1_555 1_555
C2_5 C3_5 1_555 1_555
N1_5 C8_5 1_555 1_555
C6_5 C9_5 1_555 1_555
C11_5 C13_5 1_555 1_555
O9_6 C14_6 1_555 1_555
N2_6 H11_6 1_555 1_555
C15_6 N2_6 1_555 1_555
C16_6 H12_6 1_555 1_555
C17_6 C16_6 1_555 1_555
C18_6 C15_6 1_555 1_555
H13_6 C18_6 1_555 1_555
C19_6 C15_6 1_555 1_555
H14_6 C19_6 1_555 1_555
C20_6 C16_6 1_555 1_555
C21_6 C20_6 1_555 1_555
C22_6 C17_6 1_555 1_555
O11_6 C21_6 1_555 1_555
O12_4 C22_6 1_555 1_555
O13_4 C22_6 1_555 1_555
O14_6 C21_6 1_555 1_555
Ni4_3 O12_4 1_555 1_555
Ni4_6 O11_6 1_555 1_555
Ni7_3 O13_4 1_555 1_555
Ni7_6 O14_6 1_555 1_555
N2_6 C14_6 1_555 1_555
C17_6 C19_6 1_555 1_555
C18_6 C20_6 1_555 1_555
Ni4 O1_6 1_555 1_555
Ni7 O1_6 1_555 1_555
S1_6 C6_6 1_555 1_555
O1_6 H29_6 1_555 1_555
O2_6 Ni4 1_555 1_555
O3_6 Ni4 1_555 1_555
H1_6 O3_6 1_555 1_555
H2_6 O3_6 1_555 1_555
O4_6 Ni7 1_555 1_555
O5_6 C1_6 1_555 1_555
C1_6 O2_6 1_555 1_555
C2_6 H3_6 1_555 1_555
O6_5 Ni7 1_555 1_555
H4_6 O6_5 1_555 1_555
H5_5 O6_5 1_555 1_555
N1_6 H6_6 1_555 1_555
C3_6 C1_6 1_555 1_555
C4_5 H7_5 1_555 1_555
C5_6 C3_6 1_555 1_555
H8_6 C5_6 1_555 1_555
C6_6 C7_5 1_555 1_555
C7_5 C4_5 1_555 1_555
H9_5 C7_5 1_555 1_555
O7_6 C9_6 1_555 1_555
C8_6 C2_6 1_555 1_555
C9_6 N1_6 1_555 1_555
C10_5 S1_6 1_555 1_555
C11_6 C8_6 1_555 1_555
H10_6 C11_6 1_555 1_555
C12_6 C13_6 1_555 1_555
C13_6 C5_6 1_555 1_555
O8_6 C12_6 1_555 1_555
O10_6 C12_6 1_555 1_555
O15_6 Ni7 1_555 1_555
C23_6 O15_6 1_555 1_555
H15_6 C23_6 1_555 1_555
N3_6 C24_6 1_555 1_555
C24_6 O4_6 1_555 1_555
H16_6 C24_6 1_555 1_555
C25_5 H17_6 1_555 1_555
H18_5 C25_5 1_555 1_555
H19_5 C25_5 1_555 1_555
C26_5 H20_5 1_555 1_555
H21_5 C26_5 1_555 1_555
H22_5 C26_5 1_555 1_555
C27_6 N3_6 1_555 1_555
H23_6 C27_6 1_555 1_555
H24_6 C27_6 1_555 1_555
H25_6 C27_6 1_555 1_555
C28_5 N3_6 1_555 1_555
H26_5 C28_5 1_555 1_555
H27_5 C28_5 1_555 1_555
H28_5 C28_5 1_555 1_555
N4_5 C23_6 1_555 1_555
H30_6 O1_6 1_555 1_555
Ni5_6 O8_6 1_555 1_555
O16_6 Ni4 1_555 1_555
O18_4 Ni4 1_555 1_555
O19_4 Ni7 1_555 1_555
C2_6 C3_6 1_555 1_555
N1_6 C8_6 1_555 1_555
C4_5 C10_5 1_555 1_555
C6_6 C9_6 1_555 1_555
C11_6 C13_6 1_555 1_555
C25_5 N4_5 1_555 1_555
C26_5 N4_5 1_555 1_555
Ni4_3 O1_7 1_555 1_555
Ni7_3 O1_7 1_555 1_555
S1_7 C6_7 1_555 1_555
O1_7 H29_7 1_555 1_555
O2_7 Ni4_3 1_555 1_555
O3_7 Ni4_3 1_555 1_555
H1_7 O3_7 1_555 1_555
H2_7 O3_7 1_555 1_555
O4_7 Ni7_3 1_555 1_555
O5_7 C1_7 1_555 1_555
C1_7 O2_7 1_555 1_555
C2_7 H3_7 1_555 1_555
O6_6 Ni7_3 1_555 1_555
H4_7 O6_6 1_555 1_555
H5_6 O6_6 1_555 1_555
N1_7 H6_7 1_555 1_555
C3_7 C1_7 1_555 1_555
C4_6 H7_6 1_555 1_555
C5_7 C3_7 1_555 1_555
H8_7 C5_7 1_555 1_555
C6_7 C7_6 1_555 1_555
C7_6 C4_6 1_555 1_555
H9_6 C7_6 1_555 1_555
O7_7 C9_7 1_555 1_555
C8_7 C2_7 1_555 1_555
C9_7 N1_7 1_555 1_555
C10_6 S1_7 1_555 1_555
C11_7 C8_7 1_555 1_555
H10_7 C11_7 1_555 1_555
C12_7 C13_7 1_555 1_555
C13_7 C5_7 1_555 1_555
O8_7 C12_7 1_555 1_555
O9_7 C14_7 1_555 1_555
O10_7 C12_7 1_555 1_555
N2_7 H11_7 1_555 1_555
C14_7 C10_6 1_555 1_555
C15_7 N2_7 1_555 1_555
C16_7 H12_7 1_555 1_555
C17_7 C16_7 1_555 1_555
C18_7 C15_7 1_555 1_555
H13_7 C18_7 1_555 1_555
C19_7 C15_7 1_555 1_555
H14_7 C19_7 1_555 1_555
C20_7 C16_7 1_555 1_555
C21_7 C20_7 1_555 1_555
C22_7 C17_7 1_555 1_555
O11_7 C21_7 1_555 1_555
O18_4 C22_7 1_555 1_555
O19_4 C22_7 1_555 1_555
O14_7 C21_7 1_555 1_555
O15_7 Ni7_3 1_555 1_555
C23_7 O15_7 1_555 1_555
H15_7 C23_7 1_555 1_555
N3_7 C24_7 1_555 1_555
C24_7 O4_7 1_555 1_555
H16_7 C24_7 1_555 1_555
C25_6 H17_7 1_555 1_555
H18_6 C25_6 1_555 1_555
H19_6 C25_6 1_555 1_555
C26_6 H20_6 1_555 1_555
H21_6 C26_6 1_555 1_555
H22_6 C26_6 1_555 1_555
C27_7 N3_7 1_555 1_555
H23_7 C27_7 1_555 1_555
H24_7 C27_7 1_555 1_555
H25_7 C27_7 1_555 1_555
C28_6 N3_7 1_555 1_555
H26_6 C28_6 1_555 1_555
H27_6 C28_6 1_555 1_555
H28_6 C28_6 1_555 1_555
N4_6 C23_7 1_555 1_555
H30_7 O1_7 1_555 1_555
Ni4_7 O11_7 1_555 1_555
Ni5_7 O8_7 1_555 1_555
Ni7_7 O14_7 1_555 1_555
O16_7 Ni4_3 1_555 1_555
C2_7 C3_7 1_555 1_555
N1_7 C8_7 1_555 1_555
C4_6 C10_6 1_555 1_555
C6_7 C9_7 1_555 1_555
C11_7 C13_7 1_555 1_555
N2_7 C14_7 1_555 1_555
C17_7 C19_7 1_555 1_555
C18_7 C20_7 1_555 1_555
C25_6 N4_6 1_555 1_555
C26_6 N4_6 1_555 1_555
Ni4_2 O1_8 1_555 1_555
Ni7_2 O1_8 1_555 1_555
S1_8 C6_8 1_555 1_555
O1_8 H29_8 1_555 1_555
O2_8 Ni4_2 1_555 1_555
O3_8 Ni4_2 1_555 1_555
H1_8 O3_8 1_555 1_555
H2_8 O3_8 1_555 1_555
O4_8 Ni7_2 1_555 1_555
O5_8 C1_8 1_555 1_555
C1_8 O2_8 1_555 1_555
C2_8 H3_8 1_555 1_555
N1_8 H6_8 1_555 1_555
C3_8 C1_8 1_555 1_555
C5_8 C3_8 1_555 1_555
H8_8 C5_8 1_555 1_555
O7_8 C9_8 1_555 1_555
C8_8 C2_8 1_555 1_555
C9_8 N1_8 1_555 1_555
C11_8 C8_8 1_555 1_555
H10_8 C11_8 1_555 1_555
C12_8 C13_8 1_555 1_555
C13_8 C5_8 1_555 1_555
O8_8 C12_8 1_555 1_555
O10_8 C12_8 1_555 1_555
O15_8 Ni7_2 1_555 1_555
C23_8 O15_8 1_555 1_555
H15_8 C23_8 1_555 1_555
N3_8 C24_8 1_555 1_555
C24_8 O4_8 1_555 1_555
H16_8 C24_8 1_555 1_555
C27_8 N3_8 1_555 1_555
H23_8 C27_8 1_555 1_555
H24_8 C27_8 1_555 1_555
H25_8 C27_8 1_555 1_555
H30_8 O1_8 1_555 1_555
Ni5_8 O8_8 1_555 1_555
O16_8 Ni4_2 1_555 1_555
C2_8 C3_8 1_555 1_555
N1_8 C8_8 1_555 1_555
C6_8 C9_8 1_555 1_555
C11_8 C13_8 1_555 1_555
O9_8 C14_8 1_555 1_555
N2_8 H11_8 1_555 1_555
C15_8 N2_8 1_555 1_555
C16_8 H12_8 1_555 1_555
C17_8 C16_8 1_555 1_555
C18_8 C15_8 1_555 1_555
H13_8 C18_8 1_555 1_555
C19_8 C15_8 1_555 1_555
H14_8 C19_8 1_555 1_555
C20_8 C16_8 1_555 1_555
C21_8 C20_8 1_555 1_555
C22_8 C17_8 1_555 1_555
O11_8 C21_8 1_555 1_555
O18_3 C22_8 1_555 1_555
O19_3 C22_8 1_555 1_555
O14_8 C21_8 1_555 1_555
Ni4_8 O11_8 1_555 1_555
Ni7_8 O14_8 1_555 1_555
N2_8 C14_8 1_555 1_555
C17_8 C19_8 1_555 1_555
C18_8 C20_8 1_555 1_555
H5_7 O6_7 1_555 1_555
C4_7 H7_7 1_555 1_555
C7_7 C4_7 1_555 1_555
H9_7 C7_7 1_555 1_555
O9_9 C14_9 1_555 1_555
N2_9 H11_9 1_555 1_555
C14_9 C10_7 1_555 1_555
C15_9 N2_9 1_555 1_555
C16_9 H12_9 1_555 1_555
C17_9 C16_9 1_555 1_555
C18_9 C15_9 1_555 1_555
H13_9 C18_9 1_555 1_555
C19_9 C15_9 1_555 1_555
H14_9 C19_9 1_555 1_555
C20_9 C16_9 1_555 1_555
C21_9 C20_9 1_555 1_555
C22_9 C17_9 1_555 1_555
O17_2 C21_9 1_555 1_555
O12_5 C22_9 1_555 1_555
O13_5 C22_9 1_555 1_555
O20_2 C21_9 1_555 1_555
H18_7 C25_7 1_555 1_555
H19_7 C25_7 1_555 1_555
C26_7 H20_7 1_555 1_555
H21_7 C26_7 1_555 1_555
H22_7 C26_7 1_555 1_555
H26_7 C28_7 1_555 1_555
H27_7 C28_7 1_555 1_555
H28_7 C28_7 1_555 1_555
Ni4_6 O12_5 1_555 1_555
Ni7_6 O13_5 1_555 1_555
C4_7 C10_7 1_555 1_555
N2_9 C14_9 1_555 1_555
C17_9 C19_9 1_555 1_555
C18_9 C20_9 1_555 1_555
C25_7 N4_7 1_555 1_555
C26_7 N4_7 1_555 1_555
Ni4_8 O1_9 1_555 1_555
Ni7_8 O1_9 1_555 1_555
S1_9 C6_9 1_555 1_555
O1_9 H29_9 1_555 1_555
O2_9 Ni4_8 1_555 1_555
O3_9 Ni4_8 1_555 1_555
H1_9 O3_9 1_555 1_555
H2_9 O3_9 1_555 1_555
O4_9 Ni7_8 1_555 1_555
O5_9 C1_9 1_555 1_555
C1_9 O2_9 1_555 1_555
C2_9 H3_9 1_555 1_555
N1_9 H6_9 1_555 1_555
C3_9 C1_9 1_555 1_555
C5_9 C3_9 1_555 1_555
H8_9 C5_9 1_555 1_555
O7_9 C9_9 1_555 1_555
C8_9 C2_9 1_555 1_555
C9_9 N1_9 1_555 1_555
C11_9 C8_9 1_555 1_555
H10_9 C11_9 1_555 1_555
C12_9 C13_9 1_555 1_555
C13_9 C5_9 1_555 1_555
O8_9 C12_9 1_555 1_555
O10_9 C12_9 1_555 1_555
O15_9 Ni7_8 1_555 1_555
C23_9 O15_9 1_555 1_555
H15_9 C23_9 1_555 1_555
N3_9 C24_9 1_555 1_555
C24_9 O4_9 1_555 1_555
H16_9 C24_9 1_555 1_555
C27_9 N3_9 1_555 1_555
H23_9 C27_9 1_555 1_555
H24_9 C27_9 1_555 1_555
H25_9 C27_9 1_555 1_555
H30_9 O1_9 1_555 1_555
Ni5_9 O8_9 1_555 1_555
O16_9 Ni4_8 1_555 1_555
O18_5 Ni4_8 1_555 1_555
O19_5 Ni7_8 1_555 1_555
C2_9 C3_9 1_555 1_555
N1_9 C8_9 1_555 1_555
C6_9 C9_9 1_555 1_555
C11_9 C13_9 1_555 1_555
O9_10 C14_10 1_555 1_555
N2_10 H11_10 1_555 1_555
C15_10 N2_10 1_555 1_555
C16_10 H12_10 1_555 1_555
C17_10 C16_10 1_555 1_555
C18_10 C15_10 1_555 1_555
H13_10 C18_10 1_555 1_555
C19_10 C15_10 1_555 1_555
H14_10 C19_10 1_555 1_555
C20_10 C16_10 1_555 1_555
C21_10 C20_10 1_555 1_555
C22_10 C17_10 1_555 1_555
O17_4 C21_10 1_555 1_555
O12_6 C22_10 1_555 1_555
O13_6 C22_10 1_555 1_555
O20_4 C21_10 1_555 1_555
Ni4_7 O12_6 1_555 1_555
Ni7_7 O13_6 1_555 1_555
N2_10 C14_10 1_555 1_555
C17_10 C19_10 1_555 1_555
C18_10 C20_10 1_555 1_555
Ni4_5 O1_10 1_555 1_555
Ni7_5 O1_10 1_555 1_555
S1_10 C6_10 1_555 1_555
O1_10 H29_10 1_555 1_555
O2_10 Ni4_5 1_555 1_555
O3_10 Ni4_5 1_555 1_555
H1_10 O3_10 1_555 1_555
H2_10 O3_10 1_555 1_555
O4_10 Ni7_5 1_555 1_555
O5_10 C1_10 1_555 1_555
C1_10 O2_10 1_555 1_555
C2_10 H3_10 1_555 1_555
O6_8 Ni7_5 1_555 1_555
H4_10 O6_8 1_555 1_555
H5_8 O6_8 1_555 1_555
N1_10 H6_10 1_555 1_555
C3_10 C1_10 1_555 1_555
C4_8 H7_8 1_555 1_555
C5_10 C3_10 1_555 1_555
H8_10 C5_10 1_555 1_555
C6_10 C7_8 1_555 1_555
C7_8 C4_8 1_555 1_555
H9_8 C7_8 1_555 1_555
O7_10 C9_10 1_555 1_555
C8_10 C2_10 1_555 1_555
C9_10 N1_10 1_555 1_555
C10_8 S1_10 1_555 1_555
C11_10 C8_10 1_555 1_555
H10_10 C11_10 1_555 1_555
C12_10 C13_10 1_555 1_555
C13_10 C5_10 1_555 1_555
O8_10 C12_10 1_555 1_555
O10_10 C12_10 1_555 1_555
O15_10 Ni7_5 1_555 1_555
C23_10 O15_10 1_555 1_555
H15_10 C23_10 1_555 1_555
N3_10 C24_10 1_555 1_555
C24_10 O4_10 1_555 1_555
H16_10 C24_10 1_555 1_555
C25_8 H17_10 1_555 1_555
H18_8 C25_8 1_555 1_555
H19_8 C25_8 1_555 1_555
C26_8 H20_8 1_555 1_555
H21_8 C26_8 1_555 1_555
H22_8 C26_8 1_555 1_555
C27_10 N3_10 1_555 1_555
H23_10 C27_10 1_555 1_555
H24_10 C27_10 1_555 1_555
H25_10 C27_10 1_555 1_555
C28_8 N3_10 1_555 1_555
H26_8 C28_8 1_555 1_555
H27_8 C28_8 1_555 1_555
H28_8 C28_8 1_555 1_555
N4_8 C23_10 1_555 1_555
H30_10 O1_10 1_555 1_555
Ni5_10 O8_10 1_555 1_555
O16_10 Ni4_5 1_555 1_555
O18_6 Ni4_5 1_555 1_555
O19_6 Ni7_5 1_555 1_555
C2_10 C3_10 1_555 1_555
N1_10 C8_10 1_555 1_555
C4_8 C10_8 1_555 1_555
C6_10 C9_10 1_555 1_555
C11_10 C13_10 1_555 1_555
C25_8 N4_8 1_555 1_555
C26_8 N4_8 1_555 1_555
Ni4_7 O1_11 1_555 1_555
Ni7_7 O1_11 1_555 1_555
S1_11 C6_11 1_555 1_555
O1_11 H29_11 1_555 1_555
O2_11 Ni4_7 1_555 1_555
O3_11 Ni4_7 1_555 1_555
H1_11 O3_11 1_555 1_555
H2_11 O3_11 1_555 1_555
O4_11 Ni7_7 1_555 1_555
O5_11 C1_11 1_555 1_555
C1_11 O2_11 1_555 1_555
C2_11 H3_11 1_555 1_555
O6_9 Ni7_7 1_555 1_555
H4_11 O6_9 1_555 1_555
H5_9 O6_9 1_555 1_555
N1_11 H6_11 1_555 1_555
C3_11 C1_11 1_555 1_555
C4_9 H7_9 1_555 1_555
C5_11 C3_11 1_555 1_555
H8_11 C5_11 1_555 1_555
C6_11 C7_9 1_555 1_555
C7_9 C4_9 1_555 1_555
H9_9 C7_9 1_555 1_555
O7_11 C9_11 1_555 1_555
C8_11 C2_11 1_555 1_555
C9_11 N1_11 1_555 1_555
C10_9 S1_11 1_555 1_555
C11_11 C8_11 1_555 1_555
H10_11 C11_11 1_555 1_555
C12_11 C13_11 1_555 1_555
C13_11 C5_11 1_555 1_555
O8_11 C12_11 1_555 1_555
O9_11 C14_11 1_555 1_555
O10_11 C12_11 1_555 1_555
N2_11 H11_11 1_555 1_555
C14_11 C10_9 1_555 1_555
C15_11 N2_11 1_555 1_555
C16_11 H12_11 1_555 1_555
C17_11 C16_11 1_555 1_555
C18_11 C15_11 1_555 1_555
H13_11 C18_11 1_555 1_555
C19_11 C15_11 1_555 1_555
H14_11 C19_11 1_555 1_555
C20_11 C16_11 1_555 1_555
C21_11 C20_11 1_555 1_555
C22_11 C17_11 1_555 1_555
O17_3 C21_11 1_555 1_555
O18_6 C22_11 1_555 1_555
O19_6 C22_11 1_555 1_555
O20_3 C21_11 1_555 1_555
O15_11 Ni7_7 1_555 1_555
C23_11 O15_11 1_555 1_555
H15_11 C23_11 1_555 1_555
N3_11 C24_11 1_555 1_555
C24_11 O4_11 1_555 1_555
H16_11 C24_11 1_555 1_555
C25_9 H17_11 1_555 1_555
H18_9 C25_9 1_555 1_555
H19_9 C25_9 1_555 1_555
C26_9 H20_9 1_555 1_555
H21_9 C26_9 1_555 1_555
H22_9 C26_9 1_555 1_555
C27_11 N3_11 1_555 1_555
H23_11 C27_11 1_555 1_555
H24_11 C27_11 1_555 1_555
H25_11 C27_11 1_555 1_555
C28_9 N3_11 1_555 1_555
H26_9 C28_9 1_555 1_555
H27_9 C28_9 1_555 1_555
H28_9 C28_9 1_555 1_555
N4_9 C23_11 1_555 1_555
H30_11 O1_11 1_555 1_555
Ni5_11 O8_11 1_555 1_555
O16_11 Ni4_7 1_555 1_555
C2_11 C3_11 1_555 1_555
N1_11 C8_11 1_555 1_555
C4_9 C10_9 1_555 1_555
C6_11 C9_11 1_555 1_555
C11_11 C13_11 1_555 1_555
N2_11 C14_11 1_555 1_555
C17_11 C19_11 1_555 1_555
C18_11 C20_11 1_555 1_555
C25_9 N4_9 1_555 1_555
C26_9 N4_9 1_555 1_555
Ni4_6 O1_12 1_555 1_555
Ni7_6 O1_12 1_555 1_555
S1_12 C6_12 1_555 1_555
O1_12 H29_12 1_555 1_555
O2_12 Ni4_6 1_555 1_555
O3_12 Ni4_6 1_555 1_555
H1_12 O3_12 1_555 1_555
H2_12 O3_12 1_555 1_555
O4_12 Ni7_6 1_555 1_555
O5_12 C1_12 1_555 1_555
C1_12 O2_12 1_555 1_555
C2_12 H3_12 1_555 1_555
N1_12 H6_12 1_555 1_555
C3_12 C1_12 1_555 1_555
C5_12 C3_12 1_555 1_555
H8_12 C5_12 1_555 1_555
O7_12 C9_12 1_555 1_555
C8_12 C2_12 1_555 1_555
C9_12 N1_12 1_555 1_555
C11_12 C8_12 1_555 1_555
H10_12 C11_12 1_555 1_555
C12_12 C13_12 1_555 1_555
C13_12 C5_12 1_555 1_555
O8_12 C12_12 1_555 1_555
O10_12 C12_12 1_555 1_555
O15_12 Ni7_6 1_555 1_555
C23_12 O15_12 1_555 1_555
H15_12 C23_12 1_555 1_555
N3_12 C24_12 1_555 1_555
C24_12 O4_12 1_555 1_555
H16_12 C24_12 1_555 1_555
C27_12 N3_12 1_555 1_555
H23_12 C27_12 1_555 1_555
H24_12 C27_12 1_555 1_555
H25_12 C27_12 1_555 1_555
H30_12 O1_12 1_555 1_555
Ni5_12 O8_12 1_555 1_555
O16_12 Ni4_6 1_555 1_555
C2_12 C3_12 1_555 1_555
N1_12 C8_12 1_555 1_555
C6_12 C9_12 1_555 1_555
C11_12 C13_12 1_555 1_555
O9_12 C14_12 1_555 1_555
N2_12 H11_12 1_555 1_555
C15_12 N2_12 1_555 1_555
C16_12 H12_12 1_555 1_555
C17_12 C16_12 1_555 1_555
C18_12 C15_12 1_555 1_555
H13_12 C18_12 1_555 1_555
C19_12 C15_12 1_555 1_555
H14_12 C19_12 1_555 1_555
C20_12 C16_12 1_555 1_555
C21_12 C20_12 1_555 1_555
C22_12 C17_12 1_555 1_555
O17 C21_12 1_555 1_555
O18_5 C22_12 1_555 1_555
O19_5 C22_12 1_555 1_555
O20 C21_12 1_555 1_555
N2_12 C14_12 1_555 1_555
C17_12 C19_12 1_555 1_555
C18_12 C20_12 1_555 1_555
O9_13 C14_13 1_555 1_555
N2_13 H11_13 1_555 1_555
C15_13 N2_13 1_555 1_555
C16_13 H12_13 1_555 1_555
C17_13 C16_13 1_555 1_555
C18_13 C15_13 1_555 1_555
H13_13 C18_13 1_555 1_555
C19_13 C15_13 1_555 1_555
H14_13 C19_13 1_555 1_555
C20_13 C16_13 1_555 1_555
C21_13 C20_13 1_555 1_555
C22_13 C17_13 1_555 1_555
O11_9 C21_13 1_555 1_555
O12_7 C22_13 1_555 1_555
O13_7 C22_13 1_555 1_555
O14_9 C21_13 1_555 1_555
Ni5_11 O12_7 1_555 1_555
Ni5_4 O11_9 1_555 1_555
Ni6_3 O13_7 1_555 1_555
Ni7_9 O14_9 1_555 1_555
N2_13 C14_13 1_555 1_555
C17_13 C19_13 1_555 1_555
C18_13 C20_13 1_555 1_555
Ni5_9 O1_13 1_555 1_555
Ni2_3 O1_13 1_555 1_555
S1_13 C6_13 1_555 1_555
O1_13 H29_13 1_555 1_555
O2_13 Ni5_9 1_555 1_555
O3_13 Ni5_9 1_555 1_555
H1_13 O3_13 1_555 1_555
H2_13 O3_13 1_555 1_555
O4_13 Ni2_3 1_555 1_555
O5_13 C1_13 1_555 1_555
C1_13 O2_13 1_555 1_555
C2_13 H3_13 1_555 1_555
O6_10 Ni2_3 1_555 1_555
H4_13 O6_10 1_555 1_555
H5_10 O6_10 1_555 1_555
N1_13 H6_13 1_555 1_555
C3_13 C1_13 1_555 1_555
C4_10 H7_10 1_555 1_555
C5_13 C3_13 1_555 1_555
H8_13 C5_13 1_555 1_555
C6_13 C7_10 1_555 1_555
C7_10 C4_10 1_555 1_555
H9_10 C7_10 1_555 1_555
O7_13 C9_13 1_555 1_555
C8_13 C2_13 1_555 1_555
C9_13 N1_13 1_555 1_555
C10_10 S1_13 1_555 1_555
C11_13 C8_13 1_555 1_555
H10_13 C11_13 1_555 1_555
C12_13 C13_13 1_555 1_555
C13_13 C5_13 1_555 1_555
O16_5 C12_13 1_555 1_555
O10_13 C12_13 1_555 1_555
O15_13 Ni2_3 1_555 1_555
C23_13 O15_13 1_555 1_555
H15_13 C23_13 1_555 1_555
N3_13 C24_13 1_555 1_555
C24_13 O4_13 1_555 1_555
H16_13 C24_13 1_555 1_555
C25_10 H17_13 1_555 1_555
H18_10 C25_10 1_555 1_555
H19_10 C25_10 1_555 1_555
C26_10 H20_10 1_555 1_555
H21_10 C26_10 1_555 1_555
H22_10 C26_10 1_555 1_555
C27_13 N3_13 1_555 1_555
H23_13 C27_13 1_555 1_555
H24_13 C27_13 1_555 1_555
H25_13 C27_13 1_555 1_555
C28_10 N3_13 1_555 1_555
H26_10 C28_10 1_555 1_555
H27_10 C28_10 1_555 1_555
H28_10 C28_10 1_555 1_555
N4_10 C23_13 1_555 1_555
H30_13 O1_13 1_555 1_555
O17_5 Ni5_9 1_555 1_555
O18_7 Ni5_9 1_555 1_555
O19_7 Ni2_3 1_555 1_555
O20_5 Ni2_3 1_555 1_555
C2_13 C3_13 1_555 1_555
N1_13 C8_13 1_555 1_555
C4_10 C10_10 1_555 1_555
C6_13 C9_13 1_555 1_555
C11_13 C13_13 1_555 1_555
C25_10 N4_10 1_555 1_555
C26_10 N4_10 1_555 1_555
Ni5_12 O1_14 1_555 1_555
Ni2_4 O1_14 1_555 1_555
S1_14 C6_14 1_555 1_555
O1_14 H29_14 1_555 1_555
O2_14 Ni5_12 1_555 1_555
O3_14 Ni5_12 1_555 1_555
H1_14 O3_14 1_555 1_555
H2_14 O3_14 1_555 1_555
O4_14 Ni2_4 1_555 1_555
O5_14 C1_14 1_555 1_555
C1_14 O2_14 1_555 1_555
C2_14 H3_14 1_555 1_555
N1_14 H6_14 1_555 1_555
C3_14 C1_14 1_555 1_555
C5_14 C3_14 1_555 1_555
H8_14 C5_14 1_555 1_555
O7_14 C9_14 1_555 1_555
C8_14 C2_14 1_555 1_555
C9_14 N1_14 1_555 1_555
C11_14 C8_14 1_555 1_555
H10_14 C11_14 1_555 1_555
C12_14 C13_14 1_555 1_555
C13_14 C5_14 1_555 1_555
O16_7 C12_14 1_555 1_555
O10_14 C12_14 1_555 1_555
O15_14 Ni2_4 1_555 1_555
C23_14 O15_14 1_555 1_555
H15_14 C23_14 1_555 1_555
N3_14 C24_14 1_555 1_555
C24_14 O4_14 1_555 1_555
H16_14 C24_14 1_555 1_555
C27_14 N3_14 1_555 1_555
H23_14 C27_14 1_555 1_555
H24_14 C27_14 1_555 1_555
H25_14 C27_14 1_555 1_555
H30_14 O1_14 1_555 1_555
O17_6 Ni5_12 1_555 1_555
O18_8 Ni5_12 1_555 1_555
O19_8 Ni2_4 1_555 1_555
O20_6 Ni2_4 1_555 1_555
C2_14 C3_14 1_555 1_555
N1_14 C8_14 1_555 1_555
C6_14 C9_14 1_555 1_555
C11_14 C13_14 1_555 1_555
H5_11 O6_11 1_555 1_555
C4_11 H7_11 1_555 1_555
C7_11 C4_11 1_555 1_555
H9_11 C7_11 1_555 1_555
O9_14 C14_14 1_555 1_555
N2_14 H11_14 1_555 1_555
C14_14 C10_11 1_555 1_555
C15_14 N2_14 1_555 1_555
C16_14 H12_14 1_555 1_555
C17_14 C16_14 1_555 1_555
C18_14 C15_14 1_555 1_555
H13_14 C18_14 1_555 1_555
C19_14 C15_14 1_555 1_555
H14_14 C19_14 1_555 1_555
C20_14 C16_14 1_555 1_555
C21_14 C20_14 1_555 1_555
C22_14 C17_14 1_555 1_555
O11_10 C21_14 1_555 1_555
O12_8 C22_14 1_555 1_555
O13_8 C22_14 1_555 1_555
O14_10 C21_14 1_555 1_555
H18_11 C25_11 1_555 1_555
H19_11 C25_11 1_555 1_555
C26_11 H20_11 1_555 1_555
H21_11 C26_11 1_555 1_555
H22_11 C26_11 1_555 1_555
H26_11 C28_11 1_555 1_555
H27_11 C28_11 1_555 1_555
H28_11 C28_11 1_555 1_555
Ni5_10 O12_8 1_555 1_555
Ni5_3 O11_10 1_555 1_555
Ni6_4 O13_8 1_555 1_555
Ni7_10 O14_10 1_555 1_555
C4_11 C10_11 1_555 1_555
N2_14 C14_14 1_555 1_555
C17_14 C19_14 1_555 1_555
C18_14 C20_14 1_555 1_555
C25_11 N4_11 1_555 1_555
C26_11 N4_11 1_555 1_555
Ni5_10 O1_15 1_555 1_555
Ni6_4 O1_15 1_555 1_555
S1_15 C6_15 1_555 1_555
O1_15 H29_15 1_555 1_555
O2_15 Ni5_10 1_555 1_555
O3_15 Ni5_10 1_555 1_555
H1_15 O3_15 1_555 1_555
H2_15 O3_15 1_555 1_555
O4_15 Ni6_4 1_555 1_555
O5_15 C1_15 1_555 1_555
C1_15 O2_15 1_555 1_555
C2_15 H3_15 1_555 1_555
N1_15 H6_15 1_555 1_555
C3_15 C1_15 1_555 1_555
C5_15 C3_15 1_555 1_555
H8_15 C5_15 1_555 1_555
O7_15 C9_15 1_555 1_555
C8_15 C2_15 1_555 1_555
C9_15 N1_15 1_555 1_555
C11_15 C8_15 1_555 1_555
H10_15 C11_15 1_555 1_555
C12_15 C13_15 1_555 1_555
C13_15 C5_15 1_555 1_555
O16_8 C12_15 1_555 1_555
O10_15 C12_15 1_555 1_555
O15_15 Ni6_4 1_555 1_555
C23_15 O15_15 1_555 1_555
H15_15 C23_15 1_555 1_555
N3_15 C24_15 1_555 1_555
C24_15 O4_15 1_555 1_555
H16_15 C24_15 1_555 1_555
C27_15 N3_15 1_555 1_555
H23_15 C27_15 1_555 1_555
H24_15 C27_15 1_555 1_555
H25_15 C27_15 1_555 1_555
H30_15 O1_15 1_555 1_555
O17_7 Ni5_10 1_555 1_555
O20_7 Ni6_4 1_555 1_555
C2_15 C3_15 1_555 1_555
N1_15 C8_15 1_555 1_555
C6_15 C9_15 1_555 1_555
C11_15 C13_15 1_555 1_555
O9_15 C14_15 1_555 1_555
N2_15 H11_15 1_555 1_555
C15_15 N2_15 1_555 1_555
C16_15 H12_15 1_555 1_555
C17_15 C16_15 1_555 1_555
C18_15 C15_15 1_555 1_555
H13_15 C18_15 1_555 1_555
C19_15 C15_15 1_555 1_555
H14_15 C19_15 1_555 1_555
C20_15 C16_15 1_555 1_555
C21_15 C20_15 1_555 1_555
C22_15 C17_15 1_555 1_555
O11_11 C21_15 1_555 1_555
O18_8 C22_15 1_555 1_555
O19_8 C22_15 1_555 1_555
O14_11 C21_15 1_555 1_555
Ni5_2 O11_11 1_555 1_555
Ni7_11 O14_11 1_555 1_555
N2_15 C14_15 1_555 1_555
C17_15 C19_15 1_555 1_555
C18_15 C20_15 1_555 1_555
Ni5_11 O1_16 1_555 1_555
Ni6_3 O1_16 1_555 1_555
S1_16 C6_16 1_555 1_555
O1_16 H29_16 1_555 1_555
O2_16 Ni5_11 1_555 1_555
O3_16 Ni5_11 1_555 1_555
H1_16 O3_16 1_555 1_555
H2_16 O3_16 1_555 1_555
O4_16 Ni6_3 1_555 1_555
O5_16 C1_16 1_555 1_555
C1_16 O2_16 1_555 1_555
C2_16 H3_16 1_555 1_555
O6_12 Ni6_3 1_555 1_555
H4_16 O6_12 1_555 1_555
H5_12 O6_12 1_555 1_555
N1_16 H6_16 1_555 1_555
C3_16 C1_16 1_555 1_555
C4_12 H7_12 1_555 1_555
C5_16 C3_16 1_555 1_555
H8_16 C5_16 1_555 1_555
C6_16 C7_12 1_555 1_555
C7_12 C4_12 1_555 1_555
H9_12 C7_12 1_555 1_555
O7_16 C9_16 1_555 1_555
C8_16 C2_16 1_555 1_555
C9_16 N1_16 1_555 1_555
C10_12 S1_16 1_555 1_555
C11_16 C8_16 1_555 1_555
H10_16 C11_16 1_555 1_555
C12_16 C13_16 1_555 1_555
C13_16 C5_16 1_555 1_555
O16_6 C12_16 1_555 1_555
O9_16 C14_16 1_555 1_555
O10_16 C12_16 1_555 1_555
N2_16 H11_16 1_555 1_555
C14_16 C10_12 1_555 1_555
C15_16 N2_16 1_555 1_555
C16_16 H12_16 1_555 1_555
C17_16 C16_16 1_555 1_555
C18_16 C15_16 1_555 1_555
H13_16 C18_16 1_555 1_555
C19_16 C15_16 1_555 1_555
H14_16 C19_16 1_555 1_555
C20_16 C16_16 1_555 1_555
C21_16 C20_16 1_555 1_555
C22_16 C17_16 1_555 1_555
O11_12 C21_16 1_555 1_555
O18_7 C22_16 1_555 1_555
O19_7 C22_16 1_555 1_555
O14_12 C21_16 1_555 1_555
O15_16 Ni6_3 1_555 1_555
C23_16 O15_16 1_555 1_555
H15_16 C23_16 1_555 1_555
N3_16 C24_16 1_555 1_555
C24_16 O4_16 1_555 1_555
H16_16 C24_16 1_555 1_555
C25_12 H17_16 1_555 1_555
H18_12 C25_12 1_555 1_555
H19_12 C25_12 1_555 1_555
C26_12 H20_12 1_555 1_555
H21_12 C26_12 1_555 1_555
H22_12 C26_12 1_555 1_555
C27_16 N3_16 1_555 1_555
H23_16 C27_16 1_555 1_555
H24_16 C27_16 1_555 1_555
H25_16 C27_16 1_555 1_555
C28_12 N3_16 1_555 1_555
H26_12 C28_12 1_555 1_555
H27_12 C28_12 1_555 1_555
H28_12 C28_12 1_555 1_555
N4_12 C23_16 1_555 1_555
H30_16 O1_16 1_555 1_555
Ni5 O11_12 1_555 1_555
Ni7_12 O14_12 1_555 1_555
O17_8 Ni5_11 1_555 1_555
O20_8 Ni6_3 1_555 1_555
C2_16 C3_16 1_555 1_555
N1_16 C8_16 1_555 1_555
C4_12 C10_12 1_555 1_555
C6_16 C9_16 1_555 1_555
C11_16 C13_16 1_555 1_555
N2_16 C14_16 1_555 1_555
C17_16 C19_16 1_555 1_555
C18_16 C20_16 1_555 1_555
C25_12 N4_12 1_555 1_555
C26_12 N4_12 1_555 1_555
O9_17 C14_17 1_555 1_555
N2_17 H11_17 1_555 1_555
C15_17 N2_17 1_555 1_555
C16_17 H12_17 1_555 1_555
C17_17 C16_17 1_555 1_555
C18_17 C15_17 1_555 1_555
H13_17 C18_17 1_555 1_555
C19_17 C15_17 1_555 1_555
H14_17 C19_17 1_555 1_555
C20_17 C16_17 1_555 1_555
C21_17 C20_17 1_555 1_555
C22_17 C17_17 1_555 1_555
O11_13 C21_17 1_555 1_555
O12_9 C22_17 1_555 1_555
O13_9 C22_17 1_555 1_555
O14_13 C21_17 1_555 1_555
Ni5_3 O12_9 1_555 1_555
Ni5_8 O11_13 1_555 1_555
Ni7_10 O13_9 1_555 1_555
Ni7_13 O14_13 1_555 1_555
N2_17 C14_17 1_555 1_555
C17_17 C19_17 1_555 1_555
C18_17 C20_17 1_555 1_555
Ni5 O1_17 1_555 1_555
Ni7_12 O1_17 1_555 1_555
S1_17 C6_17 1_555 1_555
O1_17 H29_17 1_555 1_555
O2_17 Ni5 1_555 1_555
O3_17 Ni5 1_555 1_555
H1_17 O3_17 1_555 1_555
H2_17 O3_17 1_555 1_555
O4_17 Ni7_12 1_555 1_555
O5_17 C1_17 1_555 1_555
C1_17 O2_17 1_555 1_555
C2_17 H3_17 1_555 1_555
O6_13 Ni7_12 1_555 1_555
H4_17 O6_13 1_555 1_555
H5_13 O6_13 1_555 1_555
N1_17 H6_17 1_555 1_555
C3_17 C1_17 1_555 1_555
C4_13 H7_13 1_555 1_555
C5_17 C3_17 1_555 1_555
H8_17 C5_17 1_555 1_555
C6_17 C7_13 1_555 1_555
C7_13 C4_13 1_555 1_555
H9_13 C7_13 1_555 1_555
O7_17 C9_17 1_555 1_555
C8_17 C2_17 1_555 1_555
C9_17 N1_17 1_555 1_555
C10_13 S1_17 1_555 1_555
C11_17 C8_17 1_555 1_555
H10_17 C11_17 1_555 1_555
C12_17 C13_17 1_555 1_555
C13_17 C5_17 1_555 1_555
O16_9 C12_17 1_555 1_555
O10_17 C12_17 1_555 1_555
O15_17 Ni7_12 1_555 1_555
C23_17 O15_17 1_555 1_555
H15_17 C23_17 1_555 1_555
N3_17 C24_17 1_555 1_555
C24_17 O4_17 1_555 1_555
H16_17 C24_17 1_555 1_555
C25_13 H17_17 1_555 1_555
H18_13 C25_13 1_555 1_555
H19_13 C25_13 1_555 1_555
C26_13 H20_13 1_555 1_555
H21_13 C26_13 1_555 1_555
H22_13 C26_13 1_555 1_555
C27_17 N3_17 1_555 1_555
H23_17 C27_17 1_555 1_555
H24_17 C27_17 1_555 1_555
H25_17 C27_17 1_555 1_555
C28_13 N3_17 1_555 1_555
H26_13 C28_13 1_555 1_555
H27_13 C28_13 1_555 1_555
H28_13 C28_13 1_555 1_555
N4_13 C23_17 1_555 1_555
H30_17 O1_17 1_555 1_555
O18_9 Ni5 1_555 1_555
O19_9 Ni7_12 1_555 1_555
C2_17 C3_17 1_555 1_555
N1_17 C8_17 1_555 1_555
C4_13 C10_13 1_555 1_555
C6_17 C9_17 1_555 1_555
C11_17 C13_17 1_555 1_555
C25_13 N4_13 1_555 1_555
C26_13 N4_13 1_555 1_555
Ni5_4 O1_18 1_555 1_555
Ni7_9 O1_18 1_555 1_555
S1_18 C6_18 1_555 1_555
O1_18 H29_18 1_555 1_555
O2_18 Ni5_4 1_555 1_555
O3_18 Ni5_4 1_555 1_555
H1_18 O3_18 1_555 1_555
H2_18 O3_18 1_555 1_555
O4_18 Ni7_9 1_555 1_555
O5_18 C1_18 1_555 1_555
C1_18 O2_18 1_555 1_555
C2_18 H3_18 1_555 1_555
N1_18 H6_18 1_555 1_555
C3_18 C1_18 1_555 1_555
C5_18 C3_18 1_555 1_555
H8_18 C5_18 1_555 1_555
O7_18 C9_18 1_555 1_555
C8_18 C2_18 1_555 1_555
C9_18 N1_18 1_555 1_555
C11_18 C8_18 1_555 1_555
H10_18 C11_18 1_555 1_555
C12_18 C13_18 1_555 1_555
C13_18 C5_18 1_555 1_555
O16_11 C12_18 1_555 1_555
O10_18 C12_18 1_555 1_555
O15_18 Ni7_9 1_555 1_555
C23_18 O15_18 1_555 1_555
H15_18 C23_18 1_555 1_555
N3_18 C24_18 1_555 1_555
C24_18 O4_18 1_555 1_555
H16_18 C24_18 1_555 1_555
C27_18 N3_18 1_555 1_555
H23_18 C27_18 1_555 1_555
H24_18 C27_18 1_555 1_555
H25_18 C27_18 1_555 1_555
H30_18 O1_18 1_555 1_555
O18_10 Ni5_4 1_555 1_555
O19_10 Ni7_9 1_555 1_555
C2_18 C3_18 1_555 1_555
N1_18 C8_18 1_555 1_555
C6_18 C9_18 1_555 1_555
C11_18 C13_18 1_555 1_555
H5_14 O6_14 1_555 1_555
C4_14 H7_14 1_555 1_555
C7_14 C4_14 1_555 1_555
H9_14 C7_14 1_555 1_555
O9_18 C14_18 1_555 1_555
N2_18 H11_18 1_555 1_555
C14_18 C10_14 1_555 1_555
C15_18 N2_18 1_555 1_555
C16_18 H12_18 1_555 1_555
C17_18 C16_18 1_555 1_555
C18_18 C15_18 1_555 1_555
H13_18 C18_18 1_555 1_555
C19_18 C15_18 1_555 1_555
H14_18 C19_18 1_555 1_555
C20_18 C16_18 1_555 1_555
C21_18 C20_18 1_555 1_555
C22_18 C17_18 1_555 1_555
O11_14 C21_18 1_555 1_555
O12_10 C22_18 1_555 1_555
O13_10 C22_18 1_555 1_555
O14_14 C21_18 1_555 1_555
H18_14 C25_14 1_555 1_555
H19_14 C25_14 1_555 1_555
C26_14 H20_14 1_555 1_555
H21_14 C26_14 1_555 1_555
H22_14 C26_14 1_555 1_555
H26_14 C28_14 1_555 1_555
H27_14 C28_14 1_555 1_555
H28_14 C28_14 1_555 1_555
Ni5_2 O12_10 1_555 1_555
Ni5_7 O11_14 1_555 1_555
Ni7_11 O13_10 1_555 1_555
Ni7_14 O14_14 1_555 1_555
C4_14 C10_14 1_555 1_555
N2_18 C14_18 1_555 1_555
C17_18 C19_18 1_555 1_555
C18_18 C20_18 1_555 1_555
C25_14 N4_14 1_555 1_555
C26_14 N4_14 1_555 1_555
O9_19 C14_19 1_555 1_555
N2_19 H11_19 1_555 1_555
C15_19 N2_19 1_555 1_555
C16_19 H12_19 1_555 1_555
C17_19 C16_19 1_555 1_555
C18_19 C15_19 1_555 1_555
H13_19 C18_19 1_555 1_555
C19_19 C15_19 1_555 1_555
H14_19 C19_19 1_555 1_555
C20_19 C16_19 1_555 1_555
C21_19 C20_19 1_555 1_555
C22_19 C17_19 1_555 1_555
O11_15 C21_19 1_555 1_555
O18_10 C22_19 1_555 1_555
O19_10 C22_19 1_555 1_555
O14_15 C21_19 1_555 1_555
Ni5_6 O11_15 1_555 1_555
Ni7_15 O14_15 1_555 1_555
N2_19 C14_19 1_555 1_555
C17_19 C19_19 1_555 1_555
C18_19 C20_19 1_555 1_555
Ni5_2 O1_19 1_555 1_555
Ni7_11 O1_19 1_555 1_555
S1_19 C6_19 1_555 1_555
O1_19 H29_19 1_555 1_555
O2_19 Ni5_2 1_555 1_555
O3_19 Ni5_2 1_555 1_555
H1_19 O3_19 1_555 1_555
H2_19 O3_19 1_555 1_555
O4_19 Ni7_11 1_555 1_555
O5_19 C1_19 1_555 1_555
C1_19 O2_19 1_555 1_555
C2_19 H3_19 1_555 1_555
N1_19 H6_19 1_555 1_555
C3_19 C1_19 1_555 1_555
C5_19 C3_19 1_555 1_555
H8_19 C5_19 1_555 1_555
O7_19 C9_19 1_555 1_555
C8_19 C2_19 1_555 1_555
C9_19 N1_19 1_555 1_555
C11_19 C8_19 1_555 1_555
H10_19 C11_19 1_555 1_555
C12_19 C13_19 1_555 1_555
C13_19 C5_19 1_555 1_555
O16_12 C12_19 1_555 1_555
O10_19 C12_19 1_555 1_555
O15_19 Ni7_11 1_555 1_555
C23_19 O15_19 1_555 1_555
H15_19 C23_19 1_555 1_555
N3_19 C24_19 1_555 1_555
C24_19 O4_19 1_555 1_555
H16_19 C24_19 1_555 1_555
C27_19 N3_19 1_555 1_555
H23_19 C27_19 1_555 1_555
H24_19 C27_19 1_555 1_555
H25_19 C27_19 1_555 1_555
H30_19 O1_19 1_555 1_555
C2_19 C3_19 1_555 1_555
N1_19 C8_19 1_555 1_555
C6_19 C9_19 1_555 1_555
C11_19 C13_19 1_555 1_555
Ni5_3 O1_20 1_555 1_555
Ni7_10 O1_20 1_555 1_555
S1_20 C6_20 1_555 1_555
O1_20 H29_20 1_555 1_555
O2_20 Ni5_3 1_555 1_555
O3_20 Ni5_3 1_555 1_555
H1_20 O3_20 1_555 1_555
H2_20 O3_20 1_555 1_555
O4_20 Ni7_10 1_555 1_555
O5_20 C1_20 1_555 1_555
C1_20 O2_20 1_555 1_555
C2_20 H3_20 1_555 1_555
O6_15 Ni7_10 1_555 1_555
H4_20 O6_15 1_555 1_555
H5_15 O6_15 1_555 1_555
N1_20 H6_20 1_555 1_555
C3_20 C1_20 1_555 1_555
C4_15 H7_15 1_555 1_555
C5_20 C3_20 1_555 1_555
H8_20 C5_20 1_555 1_555
C6_20 C7_15 1_555 1_555
C7_15 C4_15 1_555 1_555
H9_15 C7_15 1_555 1_555
O7_20 C9_20 1_555 1_555
C8_20 C2_20 1_555 1_555
C9_20 N1_20 1_555 1_555
C10_15 S1_20 1_555 1_555
C11_20 C8_20 1_555 1_555
H10_20 C11_20 1_555 1_555
C12_20 C13_20 1_555 1_555
C13_20 C5_20 1_555 1_555
O16_10 C12_20 1_555 1_555
O9_20 C14_20 1_555 1_555
O10_20 C12_20 1_555 1_555
N2_20 H11_20 1_555 1_555
C14_20 C10_15 1_555 1_555
C15_20 N2_20 1_555 1_555
C16_20 H12_20 1_555 1_555
C17_20 C16_20 1_555 1_555
C18_20 C15_20 1_555 1_555
H13_20 C18_20 1_555 1_555
C19_20 C15_20 1_555 1_555
H14_20 C19_20 1_555 1_555
C20_20 C16_20 1_555 1_555
C21_20 C20_20 1_555 1_555
C22_20 C17_20 1_555 1_555
O11_16 C21_20 1_555 1_555
O18_9 C22_20 1_555 1_555
O19_9 C22_20 1_555 1_555
O14_16 C21_20 1_555 1_555
O15_20 Ni7_10 1_555 1_555
C23_20 O15_20 1_555 1_555
H15_20 C23_20 1_555 1_555
N3_20 C24_20 1_555 1_555
C24_20 O4_20 1_555 1_555
H16_20 C24_20 1_555 1_555
C25_15 H17_20 1_555 1_555
H18_15 C25_15 1_555 1_555
H19_15 C25_15 1_555 1_555
C26_15 H20_15 1_555 1_555
H21_15 C26_15 1_555 1_555
H22_15 C26_15 1_555 1_555
C27_20 N3_20 1_555 1_555
H23_20 C27_20 1_555 1_555
H24_20 C27_20 1_555 1_555
H25_20 C27_20 1_555 1_555
C28_15 N3_20 1_555 1_555
H26_15 C28_15 1_555 1_555
H27_15 C28_15 1_555 1_555
H28_15 C28_15 1_555 1_555
N4_15 C23_20 1_555 1_555
H30_20 O1_20 1_555 1_555
Ni5_5 O11_16 1_555 1_555
Ni7_16 O14_16 1_555 1_555
C2_20 C3_20 1_555 1_555
N1_20 C8_20 1_555 1_555
C4_15 C10_15 1_555 1_555
C6_20 C9_20 1_555 1_555
C11_20 C13_20 1_555 1_555
N2_20 C14_20 1_555 1_555
C17_20 C19_20 1_555 1_555
C18_20 C20_20 1_555 1_555
C25_15 N4_15 1_555 1_555
C26_15 N4_15 1_555 1_555
O9_21 C14_21 1_555 1_555
N2_21 H11_21 1_555 1_555
C15_21 N2_21 1_555 1_555
C16_21 H12_21 1_555 1_555
C17_21 C16_21 1_555 1_555
C18_21 C15_21 1_555 1_555
H13_21 C18_21 1_555 1_555
C19_21 C15_21 1_555 1_555
H14_21 C19_21 1_555 1_555
C20_21 C16_21 1_555 1_555
C21_21 C20_21 1_555 1_555
C22_21 C17_21 1_555 1_555
O17_6 C21_21 1_555 1_555
O12_11 C22_21 1_555 1_555
O13_11 C22_21 1_555 1_555
O20_6 C21_21 1_555 1_555
Ni5_7 O12_11 1_555 1_555
Ni7_14 O13_11 1_555 1_555
N2_21 C14_21 1_555 1_555
C17_21 C19_21 1_555 1_555
C18_21 C20_21 1_555 1_555
Ni5_5 O1_21 1_555 1_555
Ni7_16 O1_21 1_555 1_555
S1_21 C6_21 1_555 1_555
O1_21 H29_21 1_555 1_555
O2_21 Ni5_5 1_555 1_555
O3_21 Ni5_5 1_555 1_555
H1_21 O3_21 1_555 1_555
H2_21 O3_21 1_555 1_555
O4_21 Ni7_16 1_555 1_555
O5_21 C1_21 1_555 1_555
C1_21 O2_21 1_555 1_555
C2_21 H3_21 1_555 1_555
O6_16 Ni7_16 1_555 1_555
H4_21 O6_16 1_555 1_555
H5_16 O6_16 1_555 1_555
N1_21 H6_21 1_555 1_555
C3_21 C1_21 1_555 1_555
C4_16 H7_16 1_555 1_555
C5_21 C3_21 1_555 1_555
H8_21 C5_21 1_555 1_555
C6_21 C7_16 1_555 1_555
C7_16 C4_16 1_555 1_555
H9_16 C7_16 1_555 1_555
O7_21 C9_21 1_555 1_555
C8_21 C2_21 1_555 1_555
C9_21 N1_21 1_555 1_555
C10_16 S1_21 1_555 1_555
C11_21 C8_21 1_555 1_555
H10_21 C11_21 1_555 1_555
C12_21 C13_21 1_555 1_555
C13_21 C5_21 1_555 1_555
O16 C12_21 1_555 1_555
O10_21 C12_21 1_555 1_555
O15_21 Ni7_16 1_555 1_555
C23_21 O15_21 1_555 1_555
H15_21 C23_21 1_555 1_555
N3_21 C24_21 1_555 1_555
C24_21 O4_21 1_555 1_555
H16_21 C24_21 1_555 1_555
C25_16 H17_21 1_555 1_555
H18_16 C25_16 1_555 1_555
H19_16 C25_16 1_555 1_555
C26_16 H20_16 1_555 1_555
H21_16 C26_16 1_555 1_555
H22_16 C26_16 1_555 1_555
C27_21 N3_21 1_555 1_555
H23_21 C27_21 1_555 1_555
H24_21 C27_21 1_555 1_555
H25_21 C27_21 1_555 1_555
C28_16 N3_21 1_555 1_555
H26_16 C28_16 1_555 1_555
H27_16 C28_16 1_555 1_555
H28_16 C28_16 1_555 1_555
N4_16 C23_21 1_555 1_555
H30_21 O1_21 1_555 1_555
O18_11 Ni5_5 1_555 1_555
O19_11 Ni7_16 1_555 1_555
C2_21 C3_21 1_555 1_555
N1_21 C8_21 1_555 1_555
C4_16 C10_16 1_555 1_555
C6_21 C9_21 1_555 1_555
C11_21 C13_21 1_555 1_555
C25_16 N4_16 1_555 1_555
C26_16 N4_16 1_555 1_555
Ni5_8 O1_22 1_555 1_555
Ni7_13 O1_22 1_555 1_555
S1_22 C6_22 1_555 1_555
O1_22 H29_22 1_555 1_555
O2_22 Ni5_8 1_555 1_555
O3_22 Ni5_8 1_555 1_555
H1_22 O3_22 1_555 1_555
H2_22 O3_22 1_555 1_555
O4_22 Ni7_13 1_555 1_555
O5_22 C1_22 1_555 1_555
C1_22 O2_22 1_555 1_555
C2_22 H3_22 1_555 1_555
N1_22 H6_22 1_555 1_555
C3_22 C1_22 1_555 1_555
C5_22 C3_22 1_555 1_555
H8_22 C5_22 1_555 1_555
O7_22 C9_22 1_555 1_555
C8_22 C2_22 1_555 1_555
C9_22 N1_22 1_555 1_555
C11_22 C8_22 1_555 1_555
H10_22 C11_22 1_555 1_555
C12_22 C13_22 1_555 1_555
C13_22 C5_22 1_555 1_555
O16_3 C12_22 1_555 1_555
O10_22 C12_22 1_555 1_555
O15_22 Ni7_13 1_555 1_555
C23_22 O15_22 1_555 1_555
H15_22 C23_22 1_555 1_555
N3_22 C24_22 1_555 1_555
C24_22 O4_22 1_555 1_555
H16_22 C24_22 1_555 1_555
C27_22 N3_22 1_555 1_555
H23_22 C27_22 1_555 1_555
H24_22 C27_22 1_555 1_555
H25_22 C27_22 1_555 1_555
H30_22 O1_22 1_555 1_555
O18_12 Ni5_8 1_555 1_555
O19_12 Ni7_13 1_555 1_555
C2_22 C3_22 1_555 1_555
N1_22 C8_22 1_555 1_555
C6_22 C9_22 1_555 1_555
C11_22 C13_22 1_555 1_555
H5_17 O6_17 1_555 1_555
C4_17 H7_17 1_555 1_555
C7_17 C4_17 1_555 1_555
H9_17 C7_17 1_555 1_555
O9_22 C14_22 1_555 1_555
N2_22 H11_22 1_555 1_555
C14_22 C10_17 1_555 1_555
C15_22 N2_22 1_555 1_555
C16_22 H12_22 1_555 1_555
C17_22 C16_22 1_555 1_555
C18_22 C15_22 1_555 1_555
H13_22 C18_22 1_555 1_555
C19_22 C15_22 1_555 1_555
H14_22 C19_22 1_555 1_555
C20_22 C16_22 1_555 1_555
C21_22 C20_22 1_555 1_555
C22_22 C17_22 1_555 1_555
O17_8 C21_22 1_555 1_555
O12_12 C22_22 1_555 1_555
O13_12 C22_22 1_555 1_555
O20_8 C21_22 1_555 1_555
H18_17 C25_17 1_555 1_555
H19_17 C25_17 1_555 1_555
C26_17 H20_17 1_555 1_555
H21_17 C26_17 1_555 1_555
H22_17 C26_17 1_555 1_555
H26_17 C28_17 1_555 1_555
H27_17 C28_17 1_555 1_555
H28_17 C28_17 1_555 1_555
Ni5_6 O12_12 1_555 1_555
Ni7_15 O13_12 1_555 1_555
C4_17 C10_17 1_555 1_555
N2_22 C14_22 1_555 1_555
C17_22 C19_22 1_555 1_555
C18_22 C20_22 1_555 1_555
C25_17 N4_17 1_555 1_555
C26_17 N4_17 1_555 1_555
O9_23 C14_23 1_555 1_555
N2_23 H11_23 1_555 1_555
C15_23 N2_23 1_555 1_555
C16_23 H12_23 1_555 1_555
C17_23 C16_23 1_555 1_555
C18_23 C15_23 1_555 1_555
H13_23 C18_23 1_555 1_555
C19_23 C15_23 1_555 1_555
H14_23 C19_23 1_555 1_555
C20_23 C16_23 1_555 1_555
C21_23 C20_23 1_555 1_555
C22_23 C17_23 1_555 1_555
O17_7 C21_23 1_555 1_555
O18_12 C22_23 1_555 1_555
O19_12 C22_23 1_555 1_555
O20_7 C21_23 1_555 1_555
N2_23 C14_23 1_555 1_555
C17_23 C19_23 1_555 1_555
C18_23 C20_23 1_555 1_555
Ni5_6 O1_23 1_555 1_555
Ni7_15 O1_23 1_555 1_555
S1_23 C6_23 1_555 1_555
O1_23 H29_23 1_555 1_555
O2_23 Ni5_6 1_555 1_555
O3_23 Ni5_6 1_555 1_555
H1_23 O3_23 1_555 1_555
H2_23 O3_23 1_555 1_555
O4_23 Ni7_15 1_555 1_555
O5_23 C1_23 1_555 1_555
C1_23 O2_23 1_555 1_555
C2_23 H3_23 1_555 1_555
N1_23 H6_23 1_555 1_555
C3_23 C1_23 1_555 1_555
C5_23 C3_23 1_555 1_555
H8_23 C5_23 1_555 1_555
O7_23 C9_23 1_555 1_555
C8_23 C2_23 1_555 1_555
C9_23 N1_23 1_555 1_555
C11_23 C8_23 1_555 1_555
H10_23 C11_23 1_555 1_555
C12_23 C13_23 1_555 1_555
C13_23 C5_23 1_555 1_555
O16_4 C12_23 1_555 1_555
O10_23 C12_23 1_555 1_555
O15_23 Ni7_15 1_555 1_555
C23_23 O15_23 1_555 1_555
H15_23 C23_23 1_555 1_555
N3_23 C24_23 1_555 1_555
C24_23 O4_23 1_555 1_555
H16_23 C24_23 1_555 1_555
C27_23 N3_23 1_555 1_555
H23_23 C27_23 1_555 1_555
H24_23 C27_23 1_555 1_555
H25_23 C27_23 1_555 1_555
H30_23 O1_23 1_555 1_555
C2_23 C3_23 1_555 1_555
N1_23 C8_23 1_555 1_555
C6_23 C9_23 1_555 1_555
C11_23 C13_23 1_555 1_555
Ni5_7 O1_24 1_555 1_555
Ni7_14 O1_24 1_555 1_555
S1_24 C6_24 1_555 1_555
O1_24 H29_24 1_555 1_555
O2_24 Ni5_7 1_555 1_555
O3_24 Ni5_7 1_555 1_555
H1_24 O3_24 1_555 1_555
H2_24 O3_24 1_555 1_555
O4_24 Ni7_14 1_555 1_555
O5_24 C1_24 1_555 1_555
C1_24 O2_24 1_555 1_555
C2_24 H3_24 1_555 1_555
O6_18 Ni7_14 1_555 1_555
H4_24 O6_18 1_555 1_555
H5_18 O6_18 1_555 1_555
N1_24 H6_24 1_555 1_555
C3_24 C1_24 1_555 1_555
C4_18 H7_18 1_555 1_555
C5_24 C3_24 1_555 1_555
H8_24 C5_24 1_555 1_555
C6_24 C7_18 1_555 1_555
C7_18 C4_18 1_555 1_555
H9_18 C7_18 1_555 1_555
O7_24 C9_24 1_555 1_555
C8_24 C2_24 1_555 1_555
C9_24 N1_24 1_555 1_555
C10_18 S1_24 1_555 1_555
C11_24 C8_24 1_555 1_555
H10_24 C11_24 1_555 1_555
C12_24 C13_24 1_555 1_555
C13_24 C5_24 1_555 1_555
O16_2 C12_24 1_555 1_555
O9_24 C14_24 1_555 1_555
O10_24 C12_24 1_555 1_555
N2_24 H11_24 1_555 1_555
C14_24 C10_18 1_555 1_555
C15_24 N2_24 1_555 1_555
C16_24 H12_24 1_555 1_555
C17_24 C16_24 1_555 1_555
C18_24 C15_24 1_555 1_555
H13_24 C18_24 1_555 1_555
C19_24 C15_24 1_555 1_555
H14_24 C19_24 1_555 1_555
C20_24 C16_24 1_555 1_555
C21_24 C20_24 1_555 1_555
C22_24 C17_24 1_555 1_555
O17_5 C21_24 1_555 1_555
O18_11 C22_24 1_555 1_555
O19_11 C22_24 1_555 1_555
O20_5 C21_24 1_555 1_555
O15_24 Ni7_14 1_555 1_555
C23_24 O15_24 1_555 1_555
H15_24 C23_24 1_555 1_555
N3_24 C24_24 1_555 1_555
C24_24 O4_24 1_555 1_555
H16_24 C24_24 1_555 1_555
C25_18 H17_24 1_555 1_555
H18_18 C25_18 1_555 1_555
H19_18 C25_18 1_555 1_555
C26_18 H20_18 1_555 1_555
H21_18 C26_18 1_555 1_555
H22_18 C26_18 1_555 1_555
C27_24 N3_24 1_555 1_555
H23_24 C27_24 1_555 1_555
H24_24 C27_24 1_555 1_555
H25_24 C27_24 1_555 1_555
C28_18 N3_24 1_555 1_555
H26_18 C28_18 1_555 1_555
H27_18 C28_18 1_555 1_555
H28_18 C28_18 1_555 1_555
N4_18 C23_24 1_555 1_555
H30_24 O1_24 1_555 1_555
C2_24 C3_24 1_555 1_555
N1_24 C8_24 1_555 1_555
C4_18 C10_18 1_555 1_555
C6_24 C9_24 1_555 1_555
C11_24 C13_24 1_555 1_555
N2_24 C14_24 1_555 1_555
C17_24 C19_24 1_555 1_555
C18_24 C20_24 1_555 1_555
C25_18 N4_18 1_555 1_555
C26_18 N4_18 1_555 1_555
H5_19 O6_19 1_555 1_555
C4_19 H7_19 1_555 1_555
C7_19 C4_19 1_555 1_555
H9_19 C7_19 1_555 1_555
H18_19 C25_19 1_555 1_555
H19_19 C25_19 1_555 1_555
C26_19 H20_19 1_555 1_555
H21_19 C26_19 1_555 1_555
H22_19 C26_19 1_555 1_555
H26_19 C28_19 1_555 1_555
H27_19 C28_19 1_555 1_555
H28_19 C28_19 1_555 1_555
C4_19 C10_19 1_555 1_555
C25_19 N4_19 1_555 1_555
C26_19 N4_19 1_555 1_555
H5_20 O6_20 1_555 1_555
C4_20 H7_20 1_555 1_555
C7_20 C4_20 1_555 1_555
H9_20 C7_20 1_555 1_555
H18_20 C25_20 1_555 1_555
H19_20 C25_20 1_555 1_555
C26_20 H20_20 1_555 1_555
H21_20 C26_20 1_555 1_555
H22_20 C26_20 1_555 1_555
H26_20 C28_20 1_555 1_555
H27_20 C28_20 1_555 1_555
H28_20 C28_20 1_555 1_555
C4_20 C10_20 1_555 1_555
C25_20 N4_20 1_555 1_555
C26_20 N4_20 1_555 1_555
H5_21 O6_21 1_555 1_555
C4_21 H7_21 1_555 1_555
C7_21 C4_21 1_555 1_555
H9_21 C7_21 1_555 1_555
H18_21 C25_21 1_555 1_555
H19_21 C25_21 1_555 1_555
C26_21 H20_21 1_555 1_555
H21_21 C26_21 1_555 1_555
H22_21 C26_21 1_555 1_555
H26_21 C28_21 1_555 1_555
H27_21 C28_21 1_555 1_555
H28_21 C28_21 1_555 1_555
C4_21 C10_21 1_555 1_555
C25_21 N4_21 1_555 1_555
C26_21 N4_21 1_555 1_555
Ni1_3 O1_25 1_555 1_555
Ni2_5 O1_25 1_555 1_555
S1_25 C6_25 1_555 1_555
O1_25 H29_25 1_555 1_555
O2_25 Ni1_3 1_555 1_555
O3_25 Ni1_3 1_555 1_555
H1_25 O3_25 1_555 1_555
H2_25 O3_25 1_555 1_555
O4_25 Ni2_5 1_555 1_555
O5_25 C1_25 1_555 1_555
C1_25 O2_25 1_555 1_555
C2_25 H3_25 1_555 1_555
O6_22 Ni2_5 1_555 1_555
H4_25 O6_22 1_555 1_555
H5_22 O6_22 1_555 1_555
N1_25 H6_25 1_555 1_555
C3_25 C1_25 1_555 1_555
C4_22 H7_22 1_555 1_555
C5_25 C3_25 1_555 1_555
H8_25 C5_25 1_555 1_555
C6_25 C7_22 1_555 1_555
C7_22 C4_22 1_555 1_555
H9_22 C7_22 1_555 1_555
O7_25 C9_25 1_555 1_555
C8_25 C2_25 1_555 1_555
C9_25 N1_25 1_555 1_555
C10_22 S1_25 1_555 1_555
C11_25 C8_25 1_555 1_555
H10_25 C11_25 1_555 1_555
C12_25 C13_25 1_555 1_555
C13_25 C5_25 1_555 1_555
O8_13 C12_25 1_555 1_555
O10_25 C12_25 1_555 1_555
O15_25 Ni2_5 1_555 1_555
C23_25 O15_25 1_555 1_555
H15_25 C23_25 1_555 1_555
N3_25 C24_25 1_555 1_555
C24_25 O4_25 1_555 1_555
H16_25 C24_25 1_555 1_555
C25_22 H17_25 1_555 1_555
H18_22 C25_22 1_555 1_555
H19_22 C25_22 1_555 1_555
C26_22 H20_22 1_555 1_555
H21_22 C26_22 1_555 1_555
H22_22 C26_22 1_555 1_555
C27_25 N3_25 1_555 1_555
H23_25 C27_25 1_555 1_555
H24_25 C27_25 1_555 1_555
H25_25 C27_25 1_555 1_555
C28_22 N3_25 1_555 1_555
H26_22 C28_22 1_555 1_555
H27_22 C28_22 1_555 1_555
H28_22 C28_22 1_555 1_555
N4_22 C23_25 1_555 1_555
H30_25 O1_25 1_555 1_555
Ni5_13 O8_13 1_555 1_555
O16_13 Ni1_3 1_555 1_555
O17_9 Ni1_3 1_555 1_555
O18_13 Ni1_3 1_555 1_555
O19_13 Ni2_5 1_555 1_555
O20_9 Ni2_5 1_555 1_555
C2_25 C3_25 1_555 1_555
N1_25 C8_25 1_555 1_555
C4_22 C10_22 1_555 1_555
C6_25 C9_25 1_555 1_555
C11_25 C13_25 1_555 1_555
C25_22 N4_22 1_555 1_555
C26_22 N4_22 1_555 1_555
O9_25 C14_25 1_555 1_555
N2_25 H11_25 1_555 1_555
C15_25 N2_25 1_555 1_555
C16_25 H12_25 1_555 1_555
C17_25 C16_25 1_555 1_555
C18_25 C15_25 1_555 1_555
H13_25 C18_25 1_555 1_555
C19_25 C15_25 1_555 1_555
H14_25 C19_25 1_555 1_555
C20_25 C16_25 1_555 1_555
C21_25 C20_25 1_555 1_555
C22_25 C17_25 1_555 1_555
O11_17 C21_25 1_555 1_555
O12_13 C22_25 1_555 1_555
O13_13 C22_25 1_555 1_555
O14_17 C21_25 1_555 1_555
Ni3_3 O12_13 1_555 1_555
Ni4_9 O11_17 1_555 1_555
Ni6_5 O13_13 1_555 1_555
Ni7_17 O14_17 1_555 1_555
N2_25 C14_25 1_555 1_555
C17_25 C19_25 1_555 1_555
C18_25 C20_25 1_555 1_555
H5_23 O6_23 1_555 1_555
C4_23 H7_23 1_555 1_555
C7_23 C4_23 1_555 1_555
H9_23 C7_23 1_555 1_555
O9_26 C14_26 1_555 1_555
N2_26 H11_26 1_555 1_555
C14_26 C10_23 1_555 1_555
C15_26 N2_26 1_555 1_555
C16_26 H12_26 1_555 1_555
C17_26 C16_26 1_555 1_555
C18_26 C15_26 1_555 1_555
H13_26 C18_26 1_555 1_555
C19_26 C15_26 1_555 1_555
H14_26 C19_26 1_555 1_555
C20_26 C16_26 1_555 1_555
C21_26 C20_26 1_555 1_555
C22_26 C17_26 1_555 1_555
O11_18 C21_26 1_555 1_555
O12_14 C22_26 1_555 1_555
O13_14 C22_26 1_555 1_555
O14_18 C21_26 1_555 1_555
H18_23 C25_23 1_555 1_555
H19_23 C25_23 1_555 1_555
C26_23 H20_23 1_555 1_555
H21_23 C26_23 1_555 1_555
H22_23 C26_23 1_555 1_555
H26_23 C28_23 1_555 1_555
H27_23 C28_23 1_555 1_555
H28_23 C28_23 1_555 1_555
Ni3_4 O12_14 1_555 1_555
Ni4_10 O11_18 1_555 1_555
Ni6_6 O13_14 1_555 1_555
Ni7_18 O14_18 1_555 1_555
C4_23 C10_23 1_555 1_555
N2_26 C14_26 1_555 1_555
C17_26 C19_26 1_555 1_555
C18_26 C20_26 1_555 1_555
C25_23 N4_23 1_555 1_555
C26_23 N4_23 1_555 1_555
Ni1_4 O1_26 1_555 1_555
Ni2_6 O1_26 1_555 1_555
S1_26 C6_26 1_555 1_555
O1_26 H29_26 1_555 1_555
O2_26 Ni1_4 1_555 1_555
O3_26 Ni1_4 1_555 1_555
H1_26 O3_26 1_555 1_555
H2_26 O3_26 1_555 1_555
O4_26 Ni2_6 1_555 1_555
O5_26 C1_26 1_555 1_555
C1_26 O2_26 1_555 1_555
C2_26 H3_26 1_555 1_555
N1_26 H6_26 1_555 1_555
C3_26 C1_26 1_555 1_555
C5_26 C3_26 1_555 1_555
H8_26 C5_26 1_555 1_555
O7_26 C9_26 1_555 1_555
C8_26 C2_26 1_555 1_555
C9_26 N1_26 1_555 1_555
C11_26 C8_26 1_555 1_555
H10_26 C11_26 1_555 1_555
C12_26 C13_26 1_555 1_555
C13_26 C5_26 1_555 1_555
O8_14 C12_26 1_555 1_555
O10_26 C12_26 1_555 1_555
O15_26 Ni2_6 1_555 1_555
C23_26 O15_26 1_555 1_555
H15_26 C23_26 1_555 1_555
N3_26 C24_26 1_555 1_555
C24_26 O4_26 1_555 1_555
H16_26 C24_26 1_555 1_555
C27_26 N3_26 1_555 1_555
H23_26 C27_26 1_555 1_555
H24_26 C27_26 1_555 1_555
H25_26 C27_26 1_555 1_555
H30_26 O1_26 1_555 1_555
Ni5_14 O8_14 1_555 1_555
O16_14 Ni1_4 1_555 1_555
O17_10 Ni1_4 1_555 1_555
O18_14 Ni1_4 1_555 1_555
O19_14 Ni2_6 1_555 1_555
O20_10 Ni2_6 1_555 1_555
C2_26 C3_26 1_555 1_555
N1_26 C8_26 1_555 1_555
C6_26 C9_26 1_555 1_555
C11_26 C13_26 1_555 1_555
O9_27 C14_27 1_555 1_555
N2_27 H11_27 1_555 1_555
C15_27 N2_27 1_555 1_555
C16_27 H12_27 1_555 1_555
C17_27 C16_27 1_555 1_555
C18_27 C15_27 1_555 1_555
H13_27 C18_27 1_555 1_555
C19_27 C15_27 1_555 1_555
H14_27 C19_27 1_555 1_555
C20_27 C16_27 1_555 1_555
C21_27 C20_27 1_555 1_555
C22_27 C17_27 1_555 1_555
O11_19 C21_27 1_555 1_555
O18_14 C22_27 1_555 1_555
O19_14 C22_27 1_555 1_555
O14_19 C21_27 1_555 1_555
Ni4_11 O11_19 1_555 1_555
Ni7_19 O14_19 1_555 1_555
N2_27 C14_27 1_555 1_555
C17_27 C19_27 1_555 1_555
C18_27 C20_27 1_555 1_555
Ni3_4 O1_27 1_555 1_555
Ni6_6 O1_27 1_555 1_555
S1_27 C6_27 1_555 1_555
O1_27 H29_27 1_555 1_555
O2_27 Ni3_4 1_555 1_555
O3_27 Ni3_4 1_555 1_555
H1_27 O3_27 1_555 1_555
H2_27 O3_27 1_555 1_555
O4_27 Ni6_6 1_555 1_555
O5_27 C1_27 1_555 1_555
C1_27 O2_27 1_555 1_555
C2_27 H3_27 1_555 1_555
N1_27 H6_27 1_555 1_555
C3_27 C1_27 1_555 1_555
C5_27 C3_27 1_555 1_555
H8_27 C5_27 1_555 1_555
O7_27 C9_27 1_555 1_555
C8_27 C2_27 1_555 1_555
C9_27 N1_27 1_555 1_555
C11_27 C8_27 1_555 1_555
H10_27 C11_27 1_555 1_555
C12_27 C13_27 1_555 1_555
C13_27 C5_27 1_555 1_555
O8_15 C12_27 1_555 1_555
O10_27 C12_27 1_555 1_555
O15_27 Ni6_6 1_555 1_555
C23_27 O15_27 1_555 1_555
H15_27 C23_27 1_555 1_555
N3_27 C24_27 1_555 1_555
C24_27 O4_27 1_555 1_555
H16_27 C24_27 1_555 1_555
C27_27 N3_27 1_555 1_555
H23_27 C27_27 1_555 1_555
H24_27 C27_27 1_555 1_555
H25_27 C27_27 1_555 1_555
H30_27 O1_27 1_555 1_555
Ni5_15 O8_15 1_555 1_555
O16_15 Ni3_4 1_555 1_555
O17_11 Ni3_4 1_555 1_555
O20_11 Ni6_6 1_555 1_555
C2_27 C3_27 1_555 1_555
N1_27 C8_27 1_555 1_555
C6_27 C9_27 1_555 1_555
C11_27 C13_27 1_555 1_555
Ni3_3 O1_28 1_555 1_555
Ni6_5 O1_28 1_555 1_555
S1_28 C6_28 1_555 1_555
O1_28 H29_28 1_555 1_555
O2_28 Ni3_3 1_555 1_555
O3_28 Ni3_3 1_555 1_555
H1_28 O3_28 1_555 1_555
H2_28 O3_28 1_555 1_555
O4_28 Ni6_5 1_555 1_555
O5_28 C1_28 1_555 1_555
C1_28 O2_28 1_555 1_555
C2_28 H3_28 1_555 1_555
O6_24 Ni6_5 1_555 1_555
H4_28 O6_24 1_555 1_555
H5_24 O6_24 1_555 1_555
N1_28 H6_28 1_555 1_555
C3_28 C1_28 1_555 1_555
C4_24 H7_24 1_555 1_555
C5_28 C3_28 1_555 1_555
H8_28 C5_28 1_555 1_555
C6_28 C7_24 1_555 1_555
C7_24 C4_24 1_555 1_555
H9_24 C7_24 1_555 1_555
O7_28 C9_28 1_555 1_555
C8_28 C2_28 1_555 1_555
C9_28 N1_28 1_555 1_555
C10_24 S1_28 1_555 1_555
C11_28 C8_28 1_555 1_555
H10_28 C11_28 1_555 1_555
C12_28 C13_28 1_555 1_555
C13_28 C5_28 1_555 1_555
O8_16 C12_28 1_555 1_555
O9_28 C14_28 1_555 1_555
O10_28 C12_28 1_555 1_555
N2_28 H11_28 1_555 1_555
C14_28 C10_24 1_555 1_555
C15_28 N2_28 1_555 1_555
C16_28 H12_28 1_555 1_555
C17_28 C16_28 1_555 1_555
C18_28 C15_28 1_555 1_555
H13_28 C18_28 1_555 1_555
C19_28 C15_28 1_555 1_555
H14_28 C19_28 1_555 1_555
C20_28 C16_28 1_555 1_555
C21_28 C20_28 1_555 1_555
C22_28 C17_28 1_555 1_555
O11_20 C21_28 1_555 1_555
O18_13 C22_28 1_555 1_555
O19_13 C22_28 1_555 1_555
O14_20 C21_28 1_555 1_555
O15_28 Ni6_5 1_555 1_555
C23_28 O15_28 1_555 1_555
H15_28 C23_28 1_555 1_555
N3_28 C24_28 1_555 1_555
C24_28 O4_28 1_555 1_555
H16_28 C24_28 1_555 1_555
C25_24 H17_28 1_555 1_555
H18_24 C25_24 1_555 1_555
H19_24 C25_24 1_555 1_555
C26_24 H20_24 1_555 1_555
H21_24 C26_24 1_555 1_555
H22_24 C26_24 1_555 1_555
C27_28 N3_28 1_555 1_555
H23_28 C27_28 1_555 1_555
H24_28 C27_28 1_555 1_555
H25_28 C27_28 1_555 1_555
C28_24 N3_28 1_555 1_555
H26_24 C28_24 1_555 1_555
H27_24 C28_24 1_555 1_555
H28_24 C28_24 1_555 1_555
N4_24 C23_28 1_555 1_555
H30_28 O1_28 1_555 1_555
Ni4_12 O11_20 1_555 1_555
Ni5_16 O8_16 1_555 1_555
Ni7_20 O14_20 1_555 1_555
O16_16 Ni3_3 1_555 1_555
O17_12 Ni3_3 1_555 1_555
O20_12 Ni6_5 1_555 1_555
C2_28 C3_28 1_555 1_555
N1_28 C8_28 1_555 1_555
C4_24 C10_24 1_555 1_555
C6_28 C9_28 1_555 1_555
C11_28 C13_28 1_555 1_555
N2_28 C14_28 1_555 1_555
C17_28 C19_28 1_555 1_555
C18_28 C20_28 1_555 1_555
C25_24 N4_24 1_555 1_555
C26_24 N4_24 1_555 1_555
Ni4_12 O1_29 1_555 1_555
Ni7_20 O1_29 1_555 1_555
S1_29 C6_29 1_555 1_555
O1_29 H29_29 1_555 1_555
O2_29 Ni4_12 1_555 1_555
O3_29 Ni4_12 1_555 1_555
H1_29 O3_29 1_555 1_555
H2_29 O3_29 1_555 1_555
O4_29 Ni7_20 1_555 1_555
O5_29 C1_29 1_555 1_555
C1_29 O2_29 1_555 1_555
C2_29 H3_29 1_555 1_555
O6_25 Ni7_20 1_555 1_555
H4_29 O6_25 1_555 1_555
H5_25 O6_25 1_555 1_555
N1_29 H6_29 1_555 1_555
C3_29 C1_29 1_555 1_555
C4_25 H7_25 1_555 1_555
C5_29 C3_29 1_555 1_555
H8_29 C5_29 1_555 1_555
C6_29 C7_25 1_555 1_555
C7_25 C4_25 1_555 1_555
H9_25 C7_25 1_555 1_555
O7_29 C9_29 1_555 1_555
C8_29 C2_29 1_555 1_555
C9_29 N1_29 1_555 1_555
C10_25 S1_29 1_555 1_555
C11_29 C8_29 1_555 1_555
H10_29 C11_29 1_555 1_555
C12_29 C13_29 1_555 1_555
C13_29 C5_29 1_555 1_555
O8_17 C12_29 1_555 1_555
O10_29 C12_29 1_555 1_555
O15_29 Ni7_20 1_555 1_555
C23_29 O15_29 1_555 1_555
H15_29 C23_29 1_555 1_555
N3_29 C24_29 1_555 1_555
C24_29 O4_29 1_555 1_555
H16_29 C24_29 1_555 1_555
C25_25 H17_29 1_555 1_555
H18_25 C25_25 1_555 1_555
H19_25 C25_25 1_555 1_555
C26_25 H20_25 1_555 1_555
H21_25 C26_25 1_555 1_555
H22_25 C26_25 1_555 1_555
C27_29 N3_29 1_555 1_555
H23_29 C27_29 1_555 1_555
H24_29 C27_29 1_555 1_555
H25_29 C27_29 1_555 1_555
C28_25 N3_29 1_555 1_555
H26_25 C28_25 1_555 1_555
H27_25 C28_25 1_555 1_555
H28_25 C28_25 1_555 1_555
N4_25 C23_29 1_555 1_555
H30_29 O1_29 1_555 1_555
Ni5_17 O8_17 1_555 1_555
O16_17 Ni4_12 1_555 1_555
O18_15 Ni4_12 1_555 1_555
O19_15 Ni7_20 1_555 1_555
C2_29 C3_29 1_555 1_555
N1_29 C8_29 1_555 1_555
C4_25 C10_25 1_555 1_555
C6_29 C9_29 1_555 1_555
C11_29 C13_29 1_555 1_555
C25_25 N4_25 1_555 1_555
C26_25 N4_25 1_555 1_555
O9_29 C14_29 1_555 1_555
N2_29 H11_29 1_555 1_555
C15_29 N2_29 1_555 1_555
C16_29 H12_29 1_555 1_555
C17_29 C16_29 1_555 1_555
C18_29 C15_29 1_555 1_555
H13_29 C18_29 1_555 1_555
C19_29 C15_29 1_555 1_555
H14_29 C19_29 1_555 1_555
C20_29 C16_29 1_555 1_555
C21_29 C20_29 1_555 1_555
C22_29 C17_29 1_555 1_555
O11_21 C21_29 1_555 1_555
O12_15 C22_29 1_555 1_555
O13_15 C22_29 1_555 1_555
O14_21 C21_29 1_555 1_555
Ni4_10 O12_15 1_555 1_555
Ni4_13 O11_21 1_555 1_555
Ni7_18 O13_15 1_555 1_555
Ni7_21 O14_21 1_555 1_555
N2_29 C14_29 1_555 1_555
C17_29 C19_29 1_555 1_555
C18_29 C20_29 1_555 1_555
H5_26 O6_26 1_555 1_555
C4_26 H7_26 1_555 1_555
C7_26 C4_26 1_555 1_555
H9_26 C7_26 1_555 1_555
O9_30 C14_30 1_555 1_555
N2_30 H11_30 1_555 1_555
C14_30 C10_26 1_555 1_555
C15_30 N2_30 1_555 1_555
C16_30 H12_30 1_555 1_555
C17_30 C16_30 1_555 1_555
C18_30 C15_30 1_555 1_555
H13_30 C18_30 1_555 1_555
C19_30 C15_30 1_555 1_555
H14_30 C19_30 1_555 1_555
C20_30 C16_30 1_555 1_555
C21_30 C20_30 1_555 1_555
C22_30 C17_30 1_555 1_555
O11_22 C21_30 1_555 1_555
O12_16 C22_30 1_555 1_555
O13_16 C22_30 1_555 1_555
O14_22 C21_30 1_555 1_555
H18_26 C25_26 1_555 1_555
H19_26 C25_26 1_555 1_555
C26_26 H20_26 1_555 1_555
H21_26 C26_26 1_555 1_555
H22_26 C26_26 1_555 1_555
H26_26 C28_26 1_555 1_555
H27_26 C28_26 1_555 1_555
H28_26 C28_26 1_555 1_555
Ni4_11 O12_16 1_555 1_555
Ni4_14 O11_22 1_555 1_555
Ni7_19 O13_16 1_555 1_555
Ni7_22 O14_22 1_555 1_555
C4_26 C10_26 1_555 1_555
N2_30 C14_30 1_555 1_555
C17_30 C19_30 1_555 1_555
C18_30 C20_30 1_555 1_555
C25_26 N4_26 1_555 1_555
C26_26 N4_26 1_555 1_555
Ni4_9 O1_30 1_555 1_555
Ni7_17 O1_30 1_555 1_555
S1_30 C6_30 1_555 1_555
O1_30 H29_30 1_555 1_555
O2_30 Ni4_9 1_555 1_555
O3_30 Ni4_9 1_555 1_555
H1_30 O3_30 1_555 1_555
H2_30 O3_30 1_555 1_555
O4_30 Ni7_17 1_555 1_555
O5_30 C1_30 1_555 1_555
C1_30 O2_30 1_555 1_555
C2_30 H3_30 1_555 1_555
N1_30 H6_30 1_555 1_555
C3_30 C1_30 1_555 1_555
C5_30 C3_30 1_555 1_555
H8_30 C5_30 1_555 1_555
O7_30 C9_30 1_555 1_555
C8_30 C2_30 1_555 1_555
C9_30 N1_30 1_555 1_555
C11_30 C8_30 1_555 1_555
H10_30 C11_30 1_555 1_555
C12_30 C13_30 1_555 1_555
C13_30 C5_30 1_555 1_555
O8_18 C12_30 1_555 1_555
O10_30 C12_30 1_555 1_555
O15_30 Ni7_17 1_555 1_555
C23_30 O15_30 1_555 1_555
H15_30 C23_30 1_555 1_555
N3_30 C24_30 1_555 1_555
C24_30 O4_30 1_555 1_555
H16_30 C24_30 1_555 1_555
C27_30 N3_30 1_555 1_555
H23_30 C27_30 1_555 1_555
H24_30 C27_30 1_555 1_555
H25_30 C27_30 1_555 1_555
H30_30 O1_30 1_555 1_555
Ni5_18 O8_18 1_555 1_555
O16_18 Ni4_9 1_555 1_555
O18_16 Ni4_9 1_555 1_555
O19_16 Ni7_17 1_555 1_555
C2_30 C3_30 1_555 1_555
N1_30 C8_30 1_555 1_555
C6_30 C9_30 1_555 1_555
C11_30 C13_30 1_555 1_555
Ni4_11 O1_31 1_555 1_555
Ni7_19 O1_31 1_555 1_555
S1_31 C6_31 1_555 1_555
O1_31 H29_31 1_555 1_555
O2_31 Ni4_11 1_555 1_555
O3_31 Ni4_11 1_555 1_555
H1_31 O3_31 1_555 1_555
H2_31 O3_31 1_555 1_555
O4_31 Ni7_19 1_555 1_555
O5_31 C1_31 1_555 1_555
C1_31 O2_31 1_555 1_555
C2_31 H3_31 1_555 1_555
N1_31 H6_31 1_555 1_555
C3_31 C1_31 1_555 1_555
C5_31 C3_31 1_555 1_555
H8_31 C5_31 1_555 1_555
O7_31 C9_31 1_555 1_555
C8_31 C2_31 1_555 1_555
C9_31 N1_31 1_555 1_555
C11_31 C8_31 1_555 1_555
H10_31 C11_31 1_555 1_555
C12_31 C13_31 1_555 1_555
C13_31 C5_31 1_555 1_555
O8_19 C12_31 1_555 1_555
O10_31 C12_31 1_555 1_555
O15_31 Ni7_19 1_555 1_555
C23_31 O15_31 1_555 1_555
H15_31 C23_31 1_555 1_555
N3_31 C24_31 1_555 1_555
C24_31 O4_31 1_555 1_555
H16_31 C24_31 1_555 1_555
C27_31 N3_31 1_555 1_555
H23_31 C27_31 1_555 1_555
H24_31 C27_31 1_555 1_555
H25_31 C27_31 1_555 1_555
H30_31 O1_31 1_555 1_555
Ni5_19 O8_19 1_555 1_555
O16_19 Ni4_11 1_555 1_555
C2_31 C3_31 1_555 1_555
N1_31 C8_31 1_555 1_555
C6_31 C9_31 1_555 1_555
C11_31 C13_31 1_555 1_555
O9_31 C14_31 1_555 1_555
N2_31 H11_31 1_555 1_555
C15_31 N2_31 1_555 1_555
C16_31 H12_31 1_555 1_555
C17_31 C16_31 1_555 1_555
C18_31 C15_31 1_555 1_555
H13_31 C18_31 1_555 1_555
C19_31 C15_31 1_555 1_555
H14_31 C19_31 1_555 1_555
C20_31 C16_31 1_555 1_555
C21_31 C20_31 1_555 1_555
C22_31 C17_31 1_555 1_555
O11_23 C21_31 1_555 1_555
O18_16 C22_31 1_555 1_555
O19_16 C22_31 1_555 1_555
O14_23 C21_31 1_555 1_555
Ni4_15 O11_23 1_555 1_555
Ni7_23 O14_23 1_555 1_555
N2_31 C14_31 1_555 1_555
C17_31 C19_31 1_555 1_555
C18_31 C20_31 1_555 1_555
Ni4_10 O1_32 1_555 1_555
Ni7_18 O1_32 1_555 1_555
S1_32 C6_32 1_555 1_555
O1_32 H29_32 1_555 1_555
O2_32 Ni4_10 1_555 1_555
O3_32 Ni4_10 1_555 1_555
H1_32 O3_32 1_555 1_555
H2_32 O3_32 1_555 1_555
O4_32 Ni7_18 1_555 1_555
O5_32 C1_32 1_555 1_555
C1_32 O2_32 1_555 1_555
C2_32 H3_32 1_555 1_555
O6_27 Ni7_18 1_555 1_555
H4_32 O6_27 1_555 1_555
H5_27 O6_27 1_555 1_555
N1_32 H6_32 1_555 1_555
C3_32 C1_32 1_555 1_555
C4_27 H7_27 1_555 1_555
C5_32 C3_32 1_555 1_555
H8_32 C5_32 1_555 1_555
C6_32 C7_27 1_555 1_555
C7_27 C4_27 1_555 1_555
H9_27 C7_27 1_555 1_555
O7_32 C9_32 1_555 1_555
C8_32 C2_32 1_555 1_555
C9_32 N1_32 1_555 1_555
C10_27 S1_32 1_555 1_555
C11_32 C8_32 1_555 1_555
H10_32 C11_32 1_555 1_555
C12_32 C13_32 1_555 1_555
C13_32 C5_32 1_555 1_555
O8_20 C12_32 1_555 1_555
O9_32 C14_32 1_555 1_555
O10_32 C12_32 1_555 1_555
N2_32 H11_32 1_555 1_555
C14_32 C10_27 1_555 1_555
C15_32 N2_32 1_555 1_555
C16_32 H12_32 1_555 1_555
C17_32 C16_32 1_555 1_555
C18_32 C15_32 1_555 1_555
H13_32 C18_32 1_555 1_555
C19_32 C15_32 1_555 1_555
H14_32 C19_32 1_555 1_555
C20_32 C16_32 1_555 1_555
C21_32 C20_32 1_555 1_555
C22_32 C17_32 1_555 1_555
O11_24 C21_32 1_555 1_555
O18_15 C22_32 1_555 1_555
O19_15 C22_32 1_555 1_555
O14_24 C21_32 1_555 1_555
O15_32 Ni7_18 1_555 1_555
C23_32 O15_32 1_555 1_555
H15_32 C23_32 1_555 1_555
N3_32 C24_32 1_555 1_555
C24_32 O4_32 1_555 1_555
H16_32 C24_32 1_555 1_555
C25_27 H17_32 1_555 1_555
H18_27 C25_27 1_555 1_555
H19_27 C25_27 1_555 1_555
C26_27 H20_27 1_555 1_555
H21_27 C26_27 1_555 1_555
H22_27 C26_27 1_555 1_555
C27_32 N3_32 1_555 1_555
H23_32 C27_32 1_555 1_555
H24_32 C27_32 1_555 1_555
H25_32 C27_32 1_555 1_555
C28_27 N3_32 1_555 1_555
H26_27 C28_27 1_555 1_555
H27_27 C28_27 1_555 1_555
H28_27 C28_27 1_555 1_555
N4_27 C23_32 1_555 1_555
H30_32 O1_32 1_555 1_555
Ni4_16 O11_24 1_555 1_555
Ni5_20 O8_20 1_555 1_555
Ni7_24 O14_24 1_555 1_555
O16_20 Ni4_10 1_555 1_555
C2_32 C3_32 1_555 1_555
N1_32 C8_32 1_555 1_555
C4_27 C10_27 1_555 1_555
C6_32 C9_32 1_555 1_555
C11_32 C13_32 1_555 1_555
N2_32 C14_32 1_555 1_555
C17_32 C19_32 1_555 1_555
C18_32 C20_32 1_555 1_555
C25_27 N4_27 1_555 1_555
C26_27 N4_27 1_555 1_555
Ni4_16 O1_33 1_555 1_555
Ni7_24 O1_33 1_555 1_555
S1_33 C6_33 1_555 1_555
O1_33 H29_33 1_555 1_555
O2_33 Ni4_16 1_555 1_555
O3_33 Ni4_16 1_555 1_555
H1_33 O3_33 1_555 1_555
H2_33 O3_33 1_555 1_555
O4_33 Ni7_24 1_555 1_555
O5_33 C1_33 1_555 1_555
C1_33 O2_33 1_555 1_555
C2_33 H3_33 1_555 1_555
O6_28 Ni7_24 1_555 1_555
H4_33 O6_28 1_555 1_555
H5_28 O6_28 1_555 1_555
N1_33 H6_33 1_555 1_555
C3_33 C1_33 1_555 1_555
C4_28 H7_28 1_555 1_555
C5_33 C3_33 1_555 1_555
H8_33 C5_33 1_555 1_555
C6_33 C7_28 1_555 1_555
C7_28 C4_28 1_555 1_555
H9_28 C7_28 1_555 1_555
O7_33 C9_33 1_555 1_555
C8_33 C2_33 1_555 1_555
C9_33 N1_33 1_555 1_555
C10_28 S1_33 1_555 1_555
C11_33 C8_33 1_555 1_555
H10_33 C11_33 1_555 1_555
C12_33 C13_33 1_555 1_555
C13_33 C5_33 1_555 1_555
O8_21 C12_33 1_555 1_555
O10_33 C12_33 1_555 1_555
O15_33 Ni7_24 1_555 1_555
C23_33 O15_33 1_555 1_555
H15_33 C23_33 1_555 1_555
N3_33 C24_33 1_555 1_555
C24_33 O4_33 1_555 1_555
H16_33 C24_33 1_555 1_555
C25_28 H17_33 1_555 1_555
H18_28 C25_28 1_555 1_555
H19_28 C25_28 1_555 1_555
C26_28 H20_28 1_555 1_555
H21_28 C26_28 1_555 1_555
H22_28 C26_28 1_555 1_555
C27_33 N3_33 1_555 1_555
H23_33 C27_33 1_555 1_555
H24_33 C27_33 1_555 1_555
H25_33 C27_33 1_555 1_555
C28_28 N3_33 1_555 1_555
H26_28 C28_28 1_555 1_555
H27_28 C28_28 1_555 1_555
H28_28 C28_28 1_555 1_555
N4_28 C23_33 1_555 1_555
H30_33 O1_33 1_555 1_555
Ni5_21 O8_21 1_555 1_555
O16_21 Ni4_16 1_555 1_555
O18_17 Ni4_16 1_555 1_555
O19_17 Ni7_24 1_555 1_555
C2_33 C3_33 1_555 1_555
N1_33 C8_33 1_555 1_555
C4_28 C10_28 1_555 1_555
C6_33 C9_33 1_555 1_555
C11_33 C13_33 1_555 1_555
C25_28 N4_28 1_555 1_555
C26_28 N4_28 1_555 1_555
O9_33 C14_33 1_555 1_555
N2_33 H11_33 1_555 1_555
C15_33 N2_33 1_555 1_555
C16_33 H12_33 1_555 1_555
C17_33 C16_33 1_555 1_555
C18_33 C15_33 1_555 1_555
H13_33 C18_33 1_555 1_555
C19_33 C15_33 1_555 1_555
H14_33 C19_33 1_555 1_555
C20_33 C16_33 1_555 1_555
C21_33 C20_33 1_555 1_555
C22_33 C17_33 1_555 1_555
O17_10 C21_33 1_555 1_555
O12_17 C22_33 1_555 1_555
O13_17 C22_33 1_555 1_555
O20_10 C21_33 1_555 1_555
Ni4_14 O12_17 1_555 1_555
Ni7_22 O13_17 1_555 1_555
N2_33 C14_33 1_555 1_555
C17_33 C19_33 1_555 1_555
C18_33 C20_33 1_555 1_555
H5_29 O6_29 1_555 1_555
C4_29 H7_29 1_555 1_555
C7_29 C4_29 1_555 1_555
H9_29 C7_29 1_555 1_555
O9_34 C14_34 1_555 1_555
N2_34 H11_34 1_555 1_555
C14_34 C10_29 1_555 1_555
C15_34 N2_34 1_555 1_555
C16_34 H12_34 1_555 1_555
C17_34 C16_34 1_555 1_555
C18_34 C15_34 1_555 1_555
H13_34 C18_34 1_555 1_555
C19_34 C15_34 1_555 1_555
H14_34 C19_34 1_555 1_555
C20_34 C16_34 1_555 1_555
C21_34 C20_34 1_555 1_555
C22_34 C17_34 1_555 1_555
O17_12 C21_34 1_555 1_555
O12_18 C22_34 1_555 1_555
O13_18 C22_34 1_555 1_555
O20_12 C21_34 1_555 1_555
H18_29 C25_29 1_555 1_555
H19_29 C25_29 1_555 1_555
C26_29 H20_29 1_555 1_555
H21_29 C26_29 1_555 1_555
H22_29 C26_29 1_555 1_555
H26_29 C28_29 1_555 1_555
H27_29 C28_29 1_555 1_555
H28_29 C28_29 1_555 1_555
Ni4_15 O12_18 1_555 1_555
Ni7_23 O13_18 1_555 1_555
C4_29 C10_29 1_555 1_555
N2_34 C14_34 1_555 1_555
C17_34 C19_34 1_555 1_555
C18_34 C20_34 1_555 1_555
C25_29 N4_29 1_555 1_555
C26_29 N4_29 1_555 1_555
Ni4_13 O1_34 1_555 1_555
Ni7_21 O1_34 1_555 1_555
S1_34 C6_34 1_555 1_555
O1_34 H29_34 1_555 1_555
O2_34 Ni4_13 1_555 1_555
O3_34 Ni4_13 1_555 1_555
H1_34 O3_34 1_555 1_555
H2_34 O3_34 1_555 1_555
O4_34 Ni7_21 1_555 1_555
O5_34 C1_34 1_555 1_555
C1_34 O2_34 1_555 1_555
C2_34 H3_34 1_555 1_555
N1_34 H6_34 1_555 1_555
C3_34 C1_34 1_555 1_555
C5_34 C3_34 1_555 1_555
H8_34 C5_34 1_555 1_555
O7_34 C9_34 1_555 1_555
C8_34 C2_34 1_555 1_555
C9_34 N1_34 1_555 1_555
C11_34 C8_34 1_555 1_555
H10_34 C11_34 1_555 1_555
C12_34 C13_34 1_555 1_555
C13_34 C5_34 1_555 1_555
O8_22 C12_34 1_555 1_555
O10_34 C12_34 1_555 1_555
O15_34 Ni7_21 1_555 1_555
C23_34 O15_34 1_555 1_555
H15_34 C23_34 1_555 1_555
N3_34 C24_34 1_555 1_555
C24_34 O4_34 1_555 1_555
H16_34 C24_34 1_555 1_555
C27_34 N3_34 1_555 1_555
H23_34 C27_34 1_555 1_555
H24_34 C27_34 1_555 1_555
H25_34 C27_34 1_555 1_555
H30_34 O1_34 1_555 1_555
Ni5_22 O8_22 1_555 1_555
O16_22 Ni4_13 1_555 1_555
O18_18 Ni4_13 1_555 1_555
O19_18 Ni7_21 1_555 1_555
C2_34 C3_34 1_555 1_555
N1_34 C8_34 1_555 1_555
C6_34 C9_34 1_555 1_555
C11_34 C13_34 1_555 1_555
Ni4_15 O1_35 1_555 1_555
Ni7_23 O1_35 1_555 1_555
S1_35 C6_35 1_555 1_555
O1_35 H29_35 1_555 1_555
O2_35 Ni4_15 1_555 1_555
O3_35 Ni4_15 1_555 1_555
H1_35 O3_35 1_555 1_555
H2_35 O3_35 1_555 1_555
O4_35 Ni7_23 1_555 1_555
O5_35 C1_35 1_555 1_555
C1_35 O2_35 1_555 1_555
C2_35 H3_35 1_555 1_555
N1_35 H6_35 1_555 1_555
C3_35 C1_35 1_555 1_555
C5_35 C3_35 1_555 1_555
H8_35 C5_35 1_555 1_555
O7_35 C9_35 1_555 1_555
C8_35 C2_35 1_555 1_555
C9_35 N1_35 1_555 1_555
C11_35 C8_35 1_555 1_555
H10_35 C11_35 1_555 1_555
C12_35 C13_35 1_555 1_555
C13_35 C5_35 1_555 1_555
O8_23 C12_35 1_555 1_555
O10_35 C12_35 1_555 1_555
O15_35 Ni7_23 1_555 1_555
C23_35 O15_35 1_555 1_555
H15_35 C23_35 1_555 1_555
N3_35 C24_35 1_555 1_555
C24_35 O4_35 1_555 1_555
H16_35 C24_35 1_555 1_555
C27_35 N3_35 1_555 1_555
H23_35 C27_35 1_555 1_555
H24_35 C27_35 1_555 1_555
H25_35 C27_35 1_555 1_555
H30_35 O1_35 1_555 1_555
Ni5_23 O8_23 1_555 1_555
O16_23 Ni4_15 1_555 1_555
C2_35 C3_35 1_555 1_555
N1_35 C8_35 1_555 1_555
C6_35 C9_35 1_555 1_555
C11_35 C13_35 1_555 1_555
O9_35 C14_35 1_555 1_555
N2_35 H11_35 1_555 1_555
C15_35 N2_35 1_555 1_555
C16_35 H12_35 1_555 1_555
C17_35 C16_35 1_555 1_555
C18_35 C15_35 1_555 1_555
H13_35 C18_35 1_555 1_555
C19_35 C15_35 1_555 1_555
H14_35 C19_35 1_555 1_555
C20_35 C16_35 1_555 1_555
C21_35 C20_35 1_555 1_555
C22_35 C17_35 1_555 1_555
O17_11 C21_35 1_555 1_555
O18_18 C22_35 1_555 1_555
O19_18 C22_35 1_555 1_555
O20_11 C21_35 1_555 1_555
N2_35 C14_35 1_555 1_555
C17_35 C19_35 1_555 1_555
C18_35 C20_35 1_555 1_555
Ni4_14 O1_36 1_555 1_555
Ni7_22 O1_36 1_555 1_555
S1_36 C6_36 1_555 1_555
O1_36 H29_36 1_555 1_555
O2_36 Ni4_14 1_555 1_555
O3_36 Ni4_14 1_555 1_555
H1_36 O3_36 1_555 1_555
H2_36 O3_36 1_555 1_555
O4_36 Ni7_22 1_555 1_555
O5_36 C1_36 1_555 1_555
C1_36 O2_36 1_555 1_555
C2_36 H3_36 1_555 1_555
O6_30 Ni7_22 1_555 1_555
H4_36 O6_30 1_555 1_555
H5_30 O6_30 1_555 1_555
N1_36 H6_36 1_555 1_555
C3_36 C1_36 1_555 1_555
C4_30 H7_30 1_555 1_555
C5_36 C3_36 1_555 1_555
H8_36 C5_36 1_555 1_555
C6_36 C7_30 1_555 1_555
C7_30 C4_30 1_555 1_555
H9_30 C7_30 1_555 1_555
O7_36 C9_36 1_555 1_555
C8_36 C2_36 1_555 1_555
C9_36 N1_36 1_555 1_555
C10_30 S1_36 1_555 1_555
C11_36 C8_36 1_555 1_555
H10_36 C11_36 1_555 1_555
C12_36 C13_36 1_555 1_555
C13_36 C5_36 1_555 1_555
O8_24 C12_36 1_555 1_555
O9_36 C14_36 1_555 1_555
O10_36 C12_36 1_555 1_555
N2_36 H11_36 1_555 1_555
C14_36 C10_30 1_555 1_555
C15_36 N2_36 1_555 1_555
C16_36 H12_36 1_555 1_555
C17_36 C16_36 1_555 1_555
C18_36 C15_36 1_555 1_555
H13_36 C18_36 1_555 1_555
C19_36 C15_36 1_555 1_555
H14_36 C19_36 1_555 1_555
C20_36 C16_36 1_555 1_555
C21_36 C20_36 1_555 1_555
C22_36 C17_36 1_555 1_555
O17_9 C21_36 1_555 1_555
O18_17 C22_36 1_555 1_555
O19_17 C22_36 1_555 1_555
O20_9 C21_36 1_555 1_555
O15_36 Ni7_22 1_555 1_555
C23_36 O15_36 1_555 1_555
H15_36 C23_36 1_555 1_555
N3_36 C24_36 1_555 1_555
C24_36 O4_36 1_555 1_555
H16_36 C24_36 1_555 1_555
C25_30 H17_36 1_555 1_555
H18_30 C25_30 1_555 1_555
H19_30 C25_30 1_555 1_555
C26_30 H20_30 1_555 1_555
H21_30 C26_30 1_555 1_555
H22_30 C26_30 1_555 1_555
C27_36 N3_36 1_555 1_555
H23_36 C27_36 1_555 1_555
H24_36 C27_36 1_555 1_555
H25_36 C27_36 1_555 1_555
C28_30 N3_36 1_555 1_555
H26_30 C28_30 1_555 1_555
H27_30 C28_30 1_555 1_555
H28_30 C28_30 1_555 1_555
N4_30 C23_36 1_555 1_555
H30_36 O1_36 1_555 1_555
Ni5_24 O8_24 1_555 1_555
O16_24 Ni4_14 1_555 1_555
C2_36 C3_36 1_555 1_555
N1_36 C8_36 1_555 1_555
C4_30 C10_30 1_555 1_555
C6_36 C9_36 1_555 1_555
C11_36 C13_36 1_555 1_555
N2_36 C14_36 1_555 1_555
C17_36 C19_36 1_555 1_555
C18_36 C20_36 1_555 1_555
C25_30 N4_30 1_555 1_555
C26_30 N4_30 1_555 1_555
Ni5_21 O1_37 1_555 1_555
Ni2_7 O1_37 1_555 1_555
S1_37 C6_37 1_555 1_555
O1_37 H29_37 1_555 1_555
O2_37 Ni5_21 1_555 1_555
O3_37 Ni5_21 1_555 1_555
H1_37 O3_37 1_555 1_555
H2_37 O3_37 1_555 1_555
O4_37 Ni2_7 1_555 1_555
O5_37 C1_37 1_555 1_555
C1_37 O2_37 1_555 1_555
C2_37 H3_37 1_555 1_555
N1_37 H6_37 1_555 1_555
C3_37 C1_37 1_555 1_555
C5_37 C3_37 1_555 1_555
H8_37 C5_37 1_555 1_555
O7_37 C9_37 1_555 1_555
C8_37 C2_37 1_555 1_555
C9_37 N1_37 1_555 1_555
C11_37 C8_37 1_555 1_555
H10_37 C11_37 1_555 1_555
C12_37 C13_37 1_555 1_555
C13_37 C5_37 1_555 1_555
O16_17 C12_37 1_555 1_555
O10_37 C12_37 1_555 1_555
O15_37 Ni2_7 1_555 1_555
C23_37 O15_37 1_555 1_555
H15_37 C23_37 1_555 1_555
N3_37 C24_37 1_555 1_555
C24_37 O4_37 1_555 1_555
H16_37 C24_37 1_555 1_555
C27_37 N3_37 1_555 1_555
H23_37 C27_37 1_555 1_555
H24_37 C27_37 1_555 1_555
H25_37 C27_37 1_555 1_555
H30_37 O1_37 1_555 1_555
O17_13 Ni5_21 1_555 1_555
O18_19 Ni5_21 1_555 1_555
O19_19 Ni2_7 1_555 1_555
O20_13 Ni2_7 1_555 1_555
C2_37 C3_37 1_555 1_555
N1_37 C8_37 1_555 1_555
C6_37 C9_37 1_555 1_555
C11_37 C13_37 1_555 1_555
H5_31 O6_31 1_555 1_555
C4_31 H7_31 1_555 1_555
C7_31 C4_31 1_555 1_555
H9_31 C7_31 1_555 1_555
O9_37 C14_37 1_555 1_555
N2_37 H11_37 1_555 1_555
C14_37 C10_31 1_555 1_555
C15_37 N2_37 1_555 1_555
C16_37 H12_37 1_555 1_555
C17_37 C16_37 1_555 1_555
C18_37 C15_37 1_555 1_555
H13_37 C18_37 1_555 1_555
C19_37 C15_37 1_555 1_555
H14_37 C19_37 1_555 1_555
C20_37 C16_37 1_555 1_555
C21_37 C20_37 1_555 1_555
C22_37 C17_37 1_555 1_555
O11_25 C21_37 1_555 1_555
O12_19 C22_37 1_555 1_555
O13_19 C22_37 1_555 1_555
O14_25 C21_37 1_555 1_555
H18_31 C25_31 1_555 1_555
H19_31 C25_31 1_555 1_555
C26_31 H20_31 1_555 1_555
H21_31 C26_31 1_555 1_555
H22_31 C26_31 1_555 1_555
H26_31 C28_31 1_555 1_555
H27_31 C28_31 1_555 1_555
H28_31 C28_31 1_555 1_555
Ni5_23 O12_19 1_555 1_555
Ni5_16 O11_25 1_555 1_555
Ni6_7 O13_19 1_555 1_555
Ni7_25 O14_25 1_555 1_555
C4_31 C10_31 1_555 1_555
N2_37 C14_37 1_555 1_555
C17_37 C19_37 1_555 1_555
C18_37 C20_37 1_555 1_555
C25_31 N4_31 1_555 1_555
C26_31 N4_31 1_555 1_555
Ni5_24 O1_38 1_555 1_555
Ni2_8 O1_38 1_555 1_555
S1_38 C6_38 1_555 1_555
O1_38 H29_38 1_555 1_555
O2_38 Ni5_24 1_555 1_555
O3_38 Ni5_24 1_555 1_555
H1_38 O3_38 1_555 1_555
H2_38 O3_38 1_555 1_555
O4_38 Ni2_8 1_555 1_555
O5_38 C1_38 1_555 1_555
C1_38 O2_38 1_555 1_555
C2_38 H3_38 1_555 1_555
O6_32 Ni2_8 1_555 1_555
H4_38 O6_32 1_555 1_555
H5_32 O6_32 1_555 1_555
N1_38 H6_38 1_555 1_555
C3_38 C1_38 1_555 1_555
C4_32 H7_32 1_555 1_555
C5_38 C3_38 1_555 1_555
H8_38 C5_38 1_555 1_555
C6_38 C7_32 1_555 1_555
C7_32 C4_32 1_555 1_555
H9_32 C7_32 1_555 1_555
O7_38 C9_38 1_555 1_555
C8_38 C2_38 1_555 1_555
C9_38 N1_38 1_555 1_555
C10_32 S1_38 1_555 1_555
C11_38 C8_38 1_555 1_555
H10_38 C11_38 1_555 1_555
C12_38 C13_38 1_555 1_555
C13_38 C5_38 1_555 1_555
O16_19 C12_38 1_555 1_555
O10_38 C12_38 1_555 1_555
O15_38 Ni2_8 1_555 1_555
C23_38 O15_38 1_555 1_555
H15_38 C23_38 1_555 1_555
N3_38 C24_38 1_555 1_555
C24_38 O4_38 1_555 1_555
H16_38 C24_38 1_555 1_555
C25_32 H17_38 1_555 1_555
H18_32 C25_32 1_555 1_555
H19_32 C25_32 1_555 1_555
C26_32 H20_32 1_555 1_555
H21_32 C26_32 1_555 1_555
H22_32 C26_32 1_555 1_555
C27_38 N3_38 1_555 1_555
H23_38 C27_38 1_555 1_555
H24_38 C27_38 1_555 1_555
H25_38 C27_38 1_555 1_555
C28_32 N3_38 1_555 1_555
H26_32 C28_32 1_555 1_555
H27_32 C28_32 1_555 1_555
H28_32 C28_32 1_555 1_555
N4_32 C23_38 1_555 1_555
H30_38 O1_38 1_555 1_555
O17_14 Ni5_24 1_555 1_555
O18_20 Ni5_24 1_555 1_555
O19_20 Ni2_8 1_555 1_555
O20_14 Ni2_8 1_555 1_555
C2_38 C3_38 1_555 1_555
N1_38 C8_38 1_555 1_555
C4_32 C10_32 1_555 1_555
C6_38 C9_38 1_555 1_555
C11_38 C13_38 1_555 1_555
C25_32 N4_32 1_555 1_555
C26_32 N4_32 1_555 1_555
O9_38 C14_38 1_555 1_555
N2_38 H11_38 1_555 1_555
C15_38 N2_38 1_555 1_555
C16_38 H12_38 1_555 1_555
C17_38 C16_38 1_555 1_555
C18_38 C15_38 1_555 1_555
H13_38 C18_38 1_555 1_555
C19_38 C15_38 1_555 1_555
H14_38 C19_38 1_555 1_555
C20_38 C16_38 1_555 1_555
C21_38 C20_38 1_555 1_555
C22_38 C17_38 1_555 1_555
O11_26 C21_38 1_555 1_555
O12_20 C22_38 1_555 1_555
O13_20 C22_38 1_555 1_555
O14_26 C21_38 1_555 1_555
Ni5_22 O12_20 1_555 1_555
Ni5_15 O11_26 1_555 1_555
Ni6_8 O13_20 1_555 1_555
Ni7_26 O14_26 1_555 1_555
N2_38 C14_38 1_555 1_555
C17_38 C19_38 1_555 1_555
C18_38 C20_38 1_555 1_555
Ni5_22 O1_39 1_555 1_555
Ni6_8 O1_39 1_555 1_555
S1_39 C6_39 1_555 1_555
O1_39 H29_39 1_555 1_555
O2_39 Ni5_22 1_555 1_555
O3_39 Ni5_22 1_555 1_555
H1_39 O3_39 1_555 1_555
H2_39 O3_39 1_555 1_555
O4_39 Ni6_8 1_555 1_555
O5_39 C1_39 1_555 1_555
C1_39 O2_39 1_555 1_555
C2_39 H3_39 1_555 1_555
O6_33 Ni6_8 1_555 1_555
H4_39 O6_33 1_555 1_555
H5_33 O6_33 1_555 1_555
N1_39 H6_39 1_555 1_555
C3_39 C1_39 1_555 1_555
C4_33 H7_33 1_555 1_555
C5_39 C3_39 1_555 1_555
H8_39 C5_39 1_555 1_555
C6_39 C7_33 1_555 1_555
C7_33 C4_33 1_555 1_555
H9_33 C7_33 1_555 1_555
O7_39 C9_39 1_555 1_555
C8_39 C2_39 1_555 1_555
C9_39 N1_39 1_555 1_555
C10_33 S1_39 1_555 1_555
C11_39 C8_39 1_555 1_555
H10_39 C11_39 1_555 1_555
C12_39 C13_39 1_555 1_555
C13_39 C5_39 1_555 1_555
O16_20 C12_39 1_555 1_555
O9_39 C14_39 1_555 1_555
O10_39 C12_39 1_555 1_555
N2_39 H11_39 1_555 1_555
C14_39 C10_33 1_555 1_555
C15_39 N2_39 1_555 1_555
C16_39 H12_39 1_555 1_555
C17_39 C16_39 1_555 1_555
C18_39 C15_39 1_555 1_555
H13_39 C18_39 1_555 1_555
C19_39 C15_39 1_555 1_555
H14_39 C19_39 1_555 1_555
C20_39 C16_39 1_555 1_555
C21_39 C20_39 1_555 1_555
C22_39 C17_39 1_555 1_555
O11_27 C21_39 1_555 1_555
O18_20 C22_39 1_555 1_555
O19_20 C22_39 1_555 1_555
O14_27 C21_39 1_555 1_555
O15_39 Ni6_8 1_555 1_555
C23_39 O15_39 1_555 1_555
H15_39 C23_39 1_555 1_555
N3_39 C24_39 1_555 1_555
C24_39 O4_39 1_555 1_555
H16_39 C24_39 1_555 1_555
C25_33 H17_39 1_555 1_555
H18_33 C25_33 1_555 1_555
H19_33 C25_33 1_555 1_555
C26_33 H20_33 1_555 1_555
H21_33 C26_33 1_555 1_555
H22_33 C26_33 1_555 1_555
C27_39 N3_39 1_555 1_555
H23_39 C27_39 1_555 1_555
H24_39 C27_39 1_555 1_555
H25_39 C27_39 1_555 1_555
C28_33 N3_39 1_555 1_555
H26_33 C28_33 1_555 1_555
H27_33 C28_33 1_555 1_555
H28_33 C28_33 1_555 1_555
N4_33 C23_39 1_555 1_555
H30_39 O1_39 1_555 1_555
Ni5_14 O11_27 1_555 1_555
Ni7_27 O14_27 1_555 1_555
O17_15 Ni5_22 1_555 1_555
O20_15 Ni6_8 1_555 1_555
C2_39 C3_39 1_555 1_555
N1_39 C8_39 1_555 1_555
C4_33 C10_33 1_555 1_555
C6_39 C9_39 1_555 1_555
C11_39 C13_39 1_555 1_555
N2_39 C14_39 1_555 1_555
C17_39 C19_39 1_555 1_555
C18_39 C20_39 1_555 1_555
C25_33 N4_33 1_555 1_555
C26_33 N4_33 1_555 1_555
O9_40 C14_40 1_555 1_555
N2_40 H11_40 1_555 1_555
C15_40 N2_40 1_555 1_555
C16_40 H12_40 1_555 1_555
C17_40 C16_40 1_555 1_555
C18_40 C15_40 1_555 1_555
H13_40 C18_40 1_555 1_555
C19_40 C15_40 1_555 1_555
H14_40 C19_40 1_555 1_555
C20_40 C16_40 1_555 1_555
C21_40 C20_40 1_555 1_555
C22_40 C17_40 1_555 1_555
O11_28 C21_40 1_555 1_555
O18_19 C22_40 1_555 1_555
O19_19 C22_40 1_555 1_555
O14_28 C21_40 1_555 1_555
Ni5_13 O11_28 1_555 1_555
Ni7_28 O14_28 1_555 1_555
N2_40 C14_40 1_555 1_555
C17_40 C19_40 1_555 1_555
C18_40 C20_40 1_555 1_555
Ni5_23 O1_40 1_555 1_555
Ni6_7 O1_40 1_555 1_555
S1_40 C6_40 1_555 1_555
O1_40 H29_40 1_555 1_555
O2_40 Ni5_23 1_555 1_555
O3_40 Ni5_23 1_555 1_555
H1_40 O3_40 1_555 1_555
H2_40 O3_40 1_555 1_555
O4_40 Ni6_7 1_555 1_555
O5_40 C1_40 1_555 1_555
C1_40 O2_40 1_555 1_555
C2_40 H3_40 1_555 1_555
N1_40 H6_40 1_555 1_555
C3_40 C1_40 1_555 1_555
C5_40 C3_40 1_555 1_555
H8_40 C5_40 1_555 1_555
O7_40 C9_40 1_555 1_555
C8_40 C2_40 1_555 1_555
C9_40 N1_40 1_555 1_555
C11_40 C8_40 1_555 1_555
H10_40 C11_40 1_555 1_555
C12_40 C13_40 1_555 1_555
C13_40 C5_40 1_555 1_555
O16_18 C12_40 1_555 1_555
O10_40 C12_40 1_555 1_555
O15_40 Ni6_7 1_555 1_555
C23_40 O15_40 1_555 1_555
H15_40 C23_40 1_555 1_555
N3_40 C24_40 1_555 1_555
C24_40 O4_40 1_555 1_555
H16_40 C24_40 1_555 1_555
C27_40 N3_40 1_555 1_555
H23_40 C27_40 1_555 1_555
H24_40 C27_40 1_555 1_555
H25_40 C27_40 1_555 1_555
H30_40 O1_40 1_555 1_555
O17_16 Ni5_23 1_555 1_555
O20_16 Ni6_7 1_555 1_555
C2_40 C3_40 1_555 1_555
N1_40 C8_40 1_555 1_555
C6_40 C9_40 1_555 1_555
C11_40 C13_40 1_555 1_555
Ni5_13 O1_41 1_555 1_555
Ni7_28 O1_41 1_555 1_555
S1_41 C6_41 1_555 1_555
O1_41 H29_41 1_555 1_555
O2_41 Ni5_13 1_555 1_555
O3_41 Ni5_13 1_555 1_555
H1_41 O3_41 1_555 1_555
H2_41 O3_41 1_555 1_555
O4_41 Ni7_28 1_555 1_555
O5_41 C1_41 1_555 1_555
C1_41 O2_41 1_555 1_555
C2_41 H3_41 1_555 1_555
N1_41 H6_41 1_555 1_555
C3_41 C1_41 1_555 1_555
C5_41 C3_41 1_555 1_555
H8_41 C5_41 1_555 1_555
O7_41 C9_41 1_555 1_555
C8_41 C2_41 1_555 1_555
C9_41 N1_41 1_555 1_555
C11_41 C8_41 1_555 1_555
H10_41 C11_41 1_555 1_555
C12_41 C13_41 1_555 1_555
C13_41 C5_41 1_555 1_555
O16_21 C12_41 1_555 1_555
O10_41 C12_41 1_555 1_555
O15_41 Ni7_28 1_555 1_555
C23_41 O15_41 1_555 1_555
H15_41 C23_41 1_555 1_555
N3_41 C24_41 1_555 1_555
C24_41 O4_41 1_555 1_555
H16_41 C24_41 1_555 1_555
C27_41 N3_41 1_555 1_555
H23_41 C27_41 1_555 1_555
H24_41 C27_41 1_555 1_555
H25_41 C27_41 1_555 1_555
H30_41 O1_41 1_555 1_555
O18_21 Ni5_13 1_555 1_555
O19_21 Ni7_28 1_555 1_555
C2_41 C3_41 1_555 1_555
N1_41 C8_41 1_555 1_555
C6_41 C9_41 1_555 1_555
C11_41 C13_41 1_555 1_555
H5_34 O6_34 1_555 1_555
C4_34 H7_34 1_555 1_555
C7_34 C4_34 1_555 1_555
H9_34 C7_34 1_555 1_555
O9_41 C14_41 1_555 1_555
N2_41 H11_41 1_555 1_555
C14_41 C10_34 1_555 1_555
C15_41 N2_41 1_555 1_555
C16_41 H12_41 1_555 1_555
C17_41 C16_41 1_555 1_555
C18_41 C15_41 1_555 1_555
H13_41 C18_41 1_555 1_555
C19_41 C15_41 1_555 1_555
H14_41 C19_41 1_555 1_555
C20_41 C16_41 1_555 1_555
C21_41 C20_41 1_555 1_555
C22_41 C17_41 1_555 1_555
O11_29 C21_41 1_555 1_555
O12_21 C22_41 1_555 1_555
O13_21 C22_41 1_555 1_555
O14_29 C21_41 1_555 1_555
H18_34 C25_34 1_555 1_555
H19_34 C25_34 1_555 1_555
C26_34 H20_34 1_555 1_555
H21_34 C26_34 1_555 1_555
H22_34 C26_34 1_555 1_555
H26_34 C28_34 1_555 1_555
H27_34 C28_34 1_555 1_555
H28_34 C28_34 1_555 1_555
Ni5_15 O12_21 1_555 1_555
Ni5_20 O11_29 1_555 1_555
Ni7_26 O13_21 1_555 1_555
Ni7_29 O14_29 1_555 1_555
C4_34 C10_34 1_555 1_555
N2_41 C14_41 1_555 1_555
C17_41 C19_41 1_555 1_555
C18_41 C20_41 1_555 1_555
C25_34 N4_34 1_555 1_555
C26_34 N4_34 1_555 1_555
Ni5_16 O1_42 1_555 1_555
Ni7_25 O1_42 1_555 1_555
S1_42 C6_42 1_555 1_555
O1_42 H29_42 1_555 1_555
O2_42 Ni5_16 1_555 1_555
O3_42 Ni5_16 1_555 1_555
H1_42 O3_42 1_555 1_555
H2_42 O3_42 1_555 1_555
O4_42 Ni7_25 1_555 1_555
O5_42 C1_42 1_555 1_555
C1_42 O2_42 1_555 1_555
C2_42 H3_42 1_555 1_555
O6_35 Ni7_25 1_555 1_555
H4_42 O6_35 1_555 1_555
H5_35 O6_35 1_555 1_555
N1_42 H6_42 1_555 1_555
C3_42 C1_42 1_555 1_555
C4_35 H7_35 1_555 1_555
C5_42 C3_42 1_555 1_555
H8_42 C5_42 1_555 1_555
C6_42 C7_35 1_555 1_555
C7_35 C4_35 1_555 1_555
H9_35 C7_35 1_555 1_555
O7_42 C9_42 1_555 1_555
C8_42 C2_42 1_555 1_555
C9_42 N1_42 1_555 1_555
C10_35 S1_42 1_555 1_555
C11_42 C8_42 1_555 1_555
H10_42 C11_42 1_555 1_555
C12_42 C13_42 1_555 1_555
C13_42 C5_42 1_555 1_555
O16_23 C12_42 1_555 1_555
O10_42 C12_42 1_555 1_555
O15_42 Ni7_25 1_555 1_555
C23_42 O15_42 1_555 1_555
H15_42 C23_42 1_555 1_555
N3_42 C24_42 1_555 1_555
C24_42 O4_42 1_555 1_555
H16_42 C24_42 1_555 1_555
C25_35 H17_42 1_555 1_555
H18_35 C25_35 1_555 1_555
H19_35 C25_35 1_555 1_555
C26_35 H20_35 1_555 1_555
H21_35 C26_35 1_555 1_555
H22_35 C26_35 1_555 1_555
C27_42 N3_42 1_555 1_555
H23_42 C27_42 1_555 1_555
H24_42 C27_42 1_555 1_555
H25_42 C27_42 1_555 1_555
C28_35 N3_42 1_555 1_555
H26_35 C28_35 1_555 1_555
H27_35 C28_35 1_555 1_555
H28_35 C28_35 1_555 1_555
N4_35 C23_42 1_555 1_555
H30_42 O1_42 1_555 1_555
O18_22 Ni5_16 1_555 1_555
O19_22 Ni7_25 1_555 1_555
C2_42 C3_42 1_555 1_555
N1_42 C8_42 1_555 1_555
C4_35 C10_35 1_555 1_555
C6_42 C9_42 1_555 1_555
C11_42 C13_42 1_555 1_555
C25_35 N4_35 1_555 1_555
C26_35 N4_35 1_555 1_555
O9_42 C14_42 1_555 1_555
N2_42 H11_42 1_555 1_555
C15_42 N2_42 1_555 1_555
C16_42 H12_42 1_555 1_555
C17_42 C16_42 1_555 1_555
C18_42 C15_42 1_555 1_555
H13_42 C18_42 1_555 1_555
C19_42 C15_42 1_555 1_555
H14_42 C19_42 1_555 1_555
C20_42 C16_42 1_555 1_555
C21_42 C20_42 1_555 1_555
C22_42 C17_42 1_555 1_555
O11_30 C21_42 1_555 1_555
O12_22 C22_42 1_555 1_555
O13_22 C22_42 1_555 1_555
O14_30 C21_42 1_555 1_555
Ni5_14 O12_22 1_555 1_555
Ni5_19 O11_30 1_555 1_555
Ni7_27 O13_22 1_555 1_555
Ni7_30 O14_30 1_555 1_555
N2_42 C14_42 1_555 1_555
C17_42 C19_42 1_555 1_555
C18_42 C20_42 1_555 1_555
Ni5_14 O1_43 1_555 1_555
Ni7_27 O1_43 1_555 1_555
S1_43 C6_43 1_555 1_555
O1_43 H29_43 1_555 1_555
O2_43 Ni5_14 1_555 1_555
O3_43 Ni5_14 1_555 1_555
H1_43 O3_43 1_555 1_555
H2_43 O3_43 1_555 1_555
O4_43 Ni7_27 1_555 1_555
O5_43 C1_43 1_555 1_555
C1_43 O2_43 1_555 1_555
C2_43 H3_43 1_555 1_555
O6_36 Ni7_27 1_555 1_555
H4_43 O6_36 1_555 1_555
H5_36 O6_36 1_555 1_555
N1_43 H6_43 1_555 1_555
C3_43 C1_43 1_555 1_555
C4_36 H7_36 1_555 1_555
C5_43 C3_43 1_555 1_555
H8_43 C5_43 1_555 1_555
C6_43 C7_36 1_555 1_555
C7_36 C4_36 1_555 1_555
H9_36 C7_36 1_555 1_555
O7_43 C9_43 1_555 1_555
C8_43 C2_43 1_555 1_555
C9_43 N1_43 1_555 1_555
C10_36 S1_43 1_555 1_555
C11_43 C8_43 1_555 1_555
H10_43 C11_43 1_555 1_555
C12_43 C13_43 1_555 1_555
C13_43 C5_43 1_555 1_555
O16_24 C12_43 1_555 1_555
O9_43 C14_43 1_555 1_555
O10_43 C12_43 1_555 1_555
N2_43 H11_43 1_555 1_555
C14_43 C10_36 1_555 1_555
C15_43 N2_43 1_555 1_555
C16_43 H12_43 1_555 1_555
C17_43 C16_43 1_555 1_555
C18_43 C15_43 1_555 1_555
H13_43 C18_43 1_555 1_555
C19_43 C15_43 1_555 1_555
H14_43 C19_43 1_555 1_555
C20_43 C16_43 1_555 1_555
C21_43 C20_43 1_555 1_555
C22_43 C17_43 1_555 1_555
O11_31 C21_43 1_555 1_555
O18_22 C22_43 1_555 1_555
O19_22 C22_43 1_555 1_555
O14_31 C21_43 1_555 1_555
O15_43 Ni7_27 1_555 1_555
C23_43 O15_43 1_555 1_555
H15_43 C23_43 1_555 1_555
N3_43 C24_43 1_555 1_555
C24_43 O4_43 1_555 1_555
H16_43 C24_43 1_555 1_555
C25_36 H17_43 1_555 1_555
H18_36 C25_36 1_555 1_555
H19_36 C25_36 1_555 1_555
C26_36 H20_36 1_555 1_555
H21_36 C26_36 1_555 1_555
H22_36 C26_36 1_555 1_555
C27_43 N3_43 1_555 1_555
H23_43 C27_43 1_555 1_555
H24_43 C27_43 1_555 1_555
H25_43 C27_43 1_555 1_555
C28_36 N3_43 1_555 1_555
H26_36 C28_36 1_555 1_555
H27_36 C28_36 1_555 1_555
H28_36 C28_36 1_555 1_555
N4_36 C23_43 1_555 1_555
H30_43 O1_43 1_555 1_555
Ni5_18 O11_31 1_555 1_555
Ni7_31 O14_31 1_555 1_555
C2_43 C3_43 1_555 1_555
N1_43 C8_43 1_555 1_555
C4_36 C10_36 1_555 1_555
C6_43 C9_43 1_555 1_555
C11_43 C13_43 1_555 1_555
N2_43 C14_43 1_555 1_555
C17_43 C19_43 1_555 1_555
C18_43 C20_43 1_555 1_555
C25_36 N4_36 1_555 1_555
C26_36 N4_36 1_555 1_555
O9_44 C14_44 1_555 1_555
N2_44 H11_44 1_555 1_555
C15_44 N2_44 1_555 1_555
C16_44 H12_44 1_555 1_555
C17_44 C16_44 1_555 1_555
C18_44 C15_44 1_555 1_555
H13_44 C18_44 1_555 1_555
C19_44 C15_44 1_555 1_555
H14_44 C19_44 1_555 1_555
C20_44 C16_44 1_555 1_555
C21_44 C20_44 1_555 1_555
C22_44 C17_44 1_555 1_555
O11_32 C21_44 1_555 1_555
O18_21 C22_44 1_555 1_555
O19_21 C22_44 1_555 1_555
O14_32 C21_44 1_555 1_555
Ni5_17 O11_32 1_555 1_555
Ni7_32 O14_32 1_555 1_555
N2_44 C14_44 1_555 1_555
C17_44 C19_44 1_555 1_555
C18_44 C20_44 1_555 1_555
Ni5_15 O1_44 1_555 1_555
Ni7_26 O1_44 1_555 1_555
S1_44 C6_44 1_555 1_555
O1_44 H29_44 1_555 1_555
O2_44 Ni5_15 1_555 1_555
O3_44 Ni5_15 1_555 1_555
H1_44 O3_44 1_555 1_555
H2_44 O3_44 1_555 1_555
O4_44 Ni7_26 1_555 1_555
O5_44 C1_44 1_555 1_555
C1_44 O2_44 1_555 1_555
C2_44 H3_44 1_555 1_555
N1_44 H6_44 1_555 1_555
C3_44 C1_44 1_555 1_555
C5_44 C3_44 1_555 1_555
H8_44 C5_44 1_555 1_555
O7_44 C9_44 1_555 1_555
C8_44 C2_44 1_555 1_555
C9_44 N1_44 1_555 1_555
C11_44 C8_44 1_555 1_555
H10_44 C11_44 1_555 1_555
C12_44 C13_44 1_555 1_555
C13_44 C5_44 1_555 1_555
O16_22 C12_44 1_555 1_555
O10_44 C12_44 1_555 1_555
O15_44 Ni7_26 1_555 1_555
C23_44 O15_44 1_555 1_555
H15_44 C23_44 1_555 1_555
N3_44 C24_44 1_555 1_555
C24_44 O4_44 1_555 1_555
H16_44 C24_44 1_555 1_555
C27_44 N3_44 1_555 1_555
H23_44 C27_44 1_555 1_555
H24_44 C27_44 1_555 1_555
H25_44 C27_44 1_555 1_555
H30_44 O1_44 1_555 1_555
C2_44 C3_44 1_555 1_555
N1_44 C8_44 1_555 1_555
C6_44 C9_44 1_555 1_555
C11_44 C13_44 1_555 1_555
Ni5_17 O1_45 1_555 1_555
Ni7_32 O1_45 1_555 1_555
S1_45 C6_45 1_555 1_555
O1_45 H29_45 1_555 1_555
O2_45 Ni5_17 1_555 1_555
O3_45 Ni5_17 1_555 1_555
H1_45 O3_45 1_555 1_555
H2_45 O3_45 1_555 1_555
O4_45 Ni7_32 1_555 1_555
O5_45 C1_45 1_555 1_555
C1_45 O2_45 1_555 1_555
C2_45 H3_45 1_555 1_555
N1_45 H6_45 1_555 1_555
C3_45 C1_45 1_555 1_555
C5_45 C3_45 1_555 1_555
H8_45 C5_45 1_555 1_555
O7_45 C9_45 1_555 1_555
C8_45 C2_45 1_555 1_555
C9_45 N1_45 1_555 1_555
C11_45 C8_45 1_555 1_555
H10_45 C11_45 1_555 1_555
C12_45 C13_45 1_555 1_555
C13_45 C5_45 1_555 1_555
O16_13 C12_45 1_555 1_555
O10_45 C12_45 1_555 1_555
O15_45 Ni7_32 1_555 1_555
C23_45 O15_45 1_555 1_555
H15_45 C23_45 1_555 1_555
N3_45 C24_45 1_555 1_555
C24_45 O4_45 1_555 1_555
H16_45 C24_45 1_555 1_555
C27_45 N3_45 1_555 1_555
H23_45 C27_45 1_555 1_555
H24_45 C27_45 1_555 1_555
H25_45 C27_45 1_555 1_555
H30_45 O1_45 1_555 1_555
O18_23 Ni5_17 1_555 1_555
O19_23 Ni7_32 1_555 1_555
C2_45 C3_45 1_555 1_555
N1_45 C8_45 1_555 1_555
C6_45 C9_45 1_555 1_555
C11_45 C13_45 1_555 1_555
H5_37 O6_37 1_555 1_555
C4_37 H7_37 1_555 1_555
C7_37 C4_37 1_555 1_555
H9_37 C7_37 1_555 1_555
O9_45 C14_45 1_555 1_555
N2_45 H11_45 1_555 1_555
C14_45 C10_37 1_555 1_555
C15_45 N2_45 1_555 1_555
C16_45 H12_45 1_555 1_555
C17_45 C16_45 1_555 1_555
C18_45 C15_45 1_555 1_555
H13_45 C18_45 1_555 1_555
C19_45 C15_45 1_555 1_555
H14_45 C19_45 1_555 1_555
C20_45 C16_45 1_555 1_555
C21_45 C20_45 1_555 1_555
C22_45 C17_45 1_555 1_555
O17_14 C21_45 1_555 1_555
O12_23 C22_45 1_555 1_555
O13_23 C22_45 1_555 1_555
O20_14 C21_45 1_555 1_555
H18_37 C25_37 1_555 1_555
H19_37 C25_37 1_555 1_555
C26_37 H20_37 1_555 1_555
H21_37 C26_37 1_555 1_555
H22_37 C26_37 1_555 1_555
H26_37 C28_37 1_555 1_555
H27_37 C28_37 1_555 1_555
H28_37 C28_37 1_555 1_555
Ni5_19 O12_23 1_555 1_555
Ni7_30 O13_23 1_555 1_555
C4_37 C10_37 1_555 1_555
N2_45 C14_45 1_555 1_555
C17_45 C19_45 1_555 1_555
C18_45 C20_45 1_555 1_555
C25_37 N4_37 1_555 1_555
C26_37 N4_37 1_555 1_555
Ni5_20 O1_46 1_555 1_555
Ni7_29 O1_46 1_555 1_555
S1_46 C6_46 1_555 1_555
O1_46 H29_46 1_555 1_555
O2_46 Ni5_20 1_555 1_555
O3_46 Ni5_20 1_555 1_555
H1_46 O3_46 1_555 1_555
H2_46 O3_46 1_555 1_555
O4_46 Ni7_29 1_555 1_555
O5_46 C1_46 1_555 1_555
C1_46 O2_46 1_555 1_555
C2_46 H3_46 1_555 1_555
O6_38 Ni7_29 1_555 1_555
H4_46 O6_38 1_555 1_555
H5_38 O6_38 1_555 1_555
N1_46 H6_46 1_555 1_555
C3_46 C1_46 1_555 1_555
C4_38 H7_38 1_555 1_555
C5_46 C3_46 1_555 1_555
H8_46 C5_46 1_555 1_555
C6_46 C7_38 1_555 1_555
C7_38 C4_38 1_555 1_555
H9_38 C7_38 1_555 1_555
O7_46 C9_46 1_555 1_555
C8_46 C2_46 1_555 1_555
C9_46 N1_46 1_555 1_555
C10_38 S1_46 1_555 1_555
C11_46 C8_46 1_555 1_555
H10_46 C11_46 1_555 1_555
C12_46 C13_46 1_555 1_555
C13_46 C5_46 1_555 1_555
O16_15 C12_46 1_555 1_555
O10_46 C12_46 1_555 1_555
O15_46 Ni7_29 1_555 1_555
C23_46 O15_46 1_555 1_555
H15_46 C23_46 1_555 1_555
N3_46 C24_46 1_555 1_555
C24_46 O4_46 1_555 1_555
H16_46 C24_46 1_555 1_555
C25_38 H17_46 1_555 1_555
H18_38 C25_38 1_555 1_555
H19_38 C25_38 1_555 1_555
C26_38 H20_38 1_555 1_555
H21_38 C26_38 1_555 1_555
H22_38 C26_38 1_555 1_555
C27_46 N3_46 1_555 1_555
H23_46 C27_46 1_555 1_555
H24_46 C27_46 1_555 1_555
H25_46 C27_46 1_555 1_555
C28_38 N3_46 1_555 1_555
H26_38 C28_38 1_555 1_555
H27_38 C28_38 1_555 1_555
H28_38 C28_38 1_555 1_555
N4_38 C23_46 1_555 1_555
H30_46 O1_46 1_555 1_555
O18_24 Ni5_20 1_555 1_555
O19_24 Ni7_29 1_555 1_555
C2_46 C3_46 1_555 1_555
N1_46 C8_46 1_555 1_555
C4_38 C10_38 1_555 1_555
C6_46 C9_46 1_555 1_555
C11_46 C13_46 1_555 1_555
C25_38 N4_38 1_555 1_555
C26_38 N4_38 1_555 1_555
O9_46 C14_46 1_555 1_555
N2_46 H11_46 1_555 1_555
C15_46 N2_46 1_555 1_555
C16_46 H12_46 1_555 1_555
C17_46 C16_46 1_555 1_555
C18_46 C15_46 1_555 1_555
H13_46 C18_46 1_555 1_555
C19_46 C15_46 1_555 1_555
H14_46 C19_46 1_555 1_555
C20_46 C16_46 1_555 1_555
C21_46 C20_46 1_555 1_555
C22_46 C17_46 1_555 1_555
O17_16 C21_46 1_555 1_555
O12_24 C22_46 1_555 1_555
O13_24 C22_46 1_555 1_555
O20_16 C21_46 1_555 1_555
Ni5_18 O12_24 1_555 1_555
Ni7_31 O13_24 1_555 1_555
N2_46 C14_46 1_555 1_555
C17_46 C19_46 1_555 1_555
C18_46 C20_46 1_555 1_555
Ni5_18 O1_47 1_555 1_555
Ni7_31 O1_47 1_555 1_555
S1_47 C6_47 1_555 1_555
O1_47 H29_47 1_555 1_555
O2_47 Ni5_18 1_555 1_555
O3_47 Ni5_18 1_555 1_555
H1_47 O3_47 1_555 1_555
H2_47 O3_47 1_555 1_555
O4_47 Ni7_31 1_555 1_555
O5_47 C1_47 1_555 1_555
C1_47 O2_47 1_555 1_555
C2_47 H3_47 1_555 1_555
O6_39 Ni7_31 1_555 1_555
H4_47 O6_39 1_555 1_555
H5_39 O6_39 1_555 1_555
N1_47 H6_47 1_555 1_555
C3_47 C1_47 1_555 1_555
C4_39 H7_39 1_555 1_555
C5_47 C3_47 1_555 1_555
H8_47 C5_47 1_555 1_555
C6_47 C7_39 1_555 1_555
C7_39 C4_39 1_555 1_555
H9_39 C7_39 1_555 1_555
O7_47 C9_47 1_555 1_555
C8_47 C2_47 1_555 1_555
C9_47 N1_47 1_555 1_555
C10_39 S1_47 1_555 1_555
C11_47 C8_47 1_555 1_555
H10_47 C11_47 1_555 1_555
C12_47 C13_47 1_555 1_555
C13_47 C5_47 1_555 1_555
O16_16 C12_47 1_555 1_555
O9_47 C14_47 1_555 1_555
O10_47 C12_47 1_555 1_555
N2_47 H11_47 1_555 1_555
C14_47 C10_39 1_555 1_555
C15_47 N2_47 1_555 1_555
C16_47 H12_47 1_555 1_555
C17_47 C16_47 1_555 1_555
C18_47 C15_47 1_555 1_555
H13_47 C18_47 1_555 1_555
C19_47 C15_47 1_555 1_555
H14_47 C19_47 1_555 1_555
C20_47 C16_47 1_555 1_555
C21_47 C20_47 1_555 1_555
C22_47 C17_47 1_555 1_555
O17_15 C21_47 1_555 1_555
O18_24 C22_47 1_555 1_555
O19_24 C22_47 1_555 1_555
O20_15 C21_47 1_555 1_555
O15_47 Ni7_31 1_555 1_555
C23_47 O15_47 1_555 1_555
H15_47 C23_47 1_555 1_555
N3_47 C24_47 1_555 1_555
C24_47 O4_47 1_555 1_555
H16_47 C24_47 1_555 1_555
C25_39 H17_47 1_555 1_555
H18_39 C25_39 1_555 1_555
H19_39 C25_39 1_555 1_555
C26_39 H20_39 1_555 1_555
H21_39 C26_39 1_555 1_555
H22_39 C26_39 1_555 1_555
C27_47 N3_47 1_555 1_555
H23_47 C27_47 1_555 1_555
H24_47 C27_47 1_555 1_555
H25_47 C27_47 1_555 1_555
C28_39 N3_47 1_555 1_555
H26_39 C28_39 1_555 1_555
H27_39 C28_39 1_555 1_555
H28_39 C28_39 1_555 1_555
N4_39 C23_47 1_555 1_555
H30_47 O1_47 1_555 1_555
C2_47 C3_47 1_555 1_555
N1_47 C8_47 1_555 1_555
C4_39 C10_39 1_555 1_555
C6_47 C9_47 1_555 1_555
C11_47 C13_47 1_555 1_555
N2_47 C14_47 1_555 1_555
C17_47 C19_47 1_555 1_555
C18_47 C20_47 1_555 1_555
C25_39 N4_39 1_555 1_555
C26_39 N4_39 1_555 1_555
O9_48 C14_48 1_555 1_555
N2_48 H11_48 1_555 1_555
C15_48 N2_48 1_555 1_555
C16_48 H12_48 1_555 1_555
C17_48 C16_48 1_555 1_555
C18_48 C15_48 1_555 1_555
H13_48 C18_48 1_555 1_555
C19_48 C15_48 1_555 1_555
H14_48 C19_48 1_555 1_555
C20_48 C16_48 1_555 1_555
C21_48 C20_48 1_555 1_555
C22_48 C17_48 1_555 1_555
O17_13 C21_48 1_555 1_555
O18_23 C22_48 1_555 1_555
O19_23 C22_48 1_555 1_555
O20_13 C21_48 1_555 1_555
N2_48 C14_48 1_555 1_555
C17_48 C19_48 1_555 1_555
C18_48 C20_48 1_555 1_555
Ni5_19 O1_48 1_555 1_555
Ni7_30 O1_48 1_555 1_555
S1_48 C6_48 1_555 1_555
O1_48 H29_48 1_555 1_555
O2_48 Ni5_19 1_555 1_555
O3_48 Ni5_19 1_555 1_555
H1_48 O3_48 1_555 1_555
H2_48 O3_48 1_555 1_555
O4_48 Ni7_30 1_555 1_555
O5_48 C1_48 1_555 1_555
C1_48 O2_48 1_555 1_555
C2_48 H3_48 1_555 1_555
N1_48 H6_48 1_555 1_555
C3_48 C1_48 1_555 1_555
C5_48 C3_48 1_555 1_555
H8_48 C5_48 1_555 1_555
O7_48 C9_48 1_555 1_555
C8_48 C2_48 1_555 1_555
C9_48 N1_48 1_555 1_555
C11_48 C8_48 1_555 1_555
H10_48 C11_48 1_555 1_555
C12_48 C13_48 1_555 1_555
C13_48 C5_48 1_555 1_555
O16_14 C12_48 1_555 1_555
O10_48 C12_48 1_555 1_555
O15_48 Ni7_30 1_555 1_555
C23_48 O15_48 1_555 1_555
H15_48 C23_48 1_555 1_555
N3_48 C24_48 1_555 1_555
C24_48 O4_48 1_555 1_555
H16_48 C24_48 1_555 1_555
C27_48 N3_48 1_555 1_555
H23_48 C27_48 1_555 1_555
H24_48 C27_48 1_555 1_555
H25_48 C27_48 1_555 1_555
H30_48 O1_48 1_555 1_555
C2_48 C3_48 1_555 1_555
N1_48 C8_48 1_555 1_555
C6_48 C9_48 1_555 1_555
C11_48 C13_48 1_555 1_555
H5_40 O6_40 1_555 1_555
C4_40 H7_40 1_555 1_555
C7_40 C4_40 1_555 1_555
H9_40 C7_40 1_555 1_555
H18_40 C25_40 1_555 1_555
H19_40 C25_40 1_555 1_555
C26_40 H20_40 1_555 1_555
H21_40 C26_40 1_555 1_555
H22_40 C26_40 1_555 1_555
H26_40 C28_40 1_555 1_555
H27_40 C28_40 1_555 1_555
H28_40 C28_40 1_555 1_555
C4_40 C10_40 1_555 1_555
C25_40 N4_40 1_555 1_555
C26_40 N4_40 1_555 1_555
H5_41 O6_41 1_555 1_555
C4_41 H7_41 1_555 1_555
C7_41 C4_41 1_555 1_555
H9_41 C7_41 1_555 1_555
H18_41 C25_41 1_555 1_555
H19_41 C25_41 1_555 1_555
C26_41 H20_41 1_555 1_555
H21_41 C26_41 1_555 1_555
H22_41 C26_41 1_555 1_555
H26_41 C28_41 1_555 1_555
H27_41 C28_41 1_555 1_555
H28_41 C28_41 1_555 1_555
C4_41 C10_41 1_555 1_555
C25_41 N4_41 1_555 1_555
C26_41 N4_41 1_555 1_555
H5_42 O6_42 1_555 1_555
C4_42 H7_42 1_555 1_555
C7_42 C4_42 1_555 1_555
H9_42 C7_42 1_555 1_555
H18_42 C25_42 1_555 1_555
H19_42 C25_42 1_555 1_555
C26_42 H20_42 1_555 1_555
H21_42 C26_42 1_555 1_555
H22_42 C26_42 1_555 1_555
H26_42 C28_42 1_555 1_555
H27_42 C28_42 1_555 1_555
H28_42 C28_42 1_555 1_555
C4_42 C10_42 1_555 1_555
C25_42 N4_42 1_555 1_555
C26_42 N4_42 1_555 1_555
H5_43 O6_43 1_555 1_555
C4_43 H7_43 1_555 1_555
C7_43 C4_43 1_555 1_555
H9_43 C7_43 1_555 1_555
H18_43 C25_43 1_555 1_555
H19_43 C25_43 1_555 1_555
C26_43 H20_43 1_555 1_555
H21_43 C26_43 1_555 1_555
H22_43 C26_43 1_555 1_555
H26_43 C28_43 1_555 1_555
H27_43 C28_43 1_555 1_555
H28_43 C28_43 1_555 1_555
C4_43 C10_43 1_555 1_555
C25_43 N4_43 1_555 1_555
C26_43 N4_43 1_555 1_555
H5_44 O6_44 1_555 1_555
C4_44 H7_44 1_555 1_555
C7_44 C4_44 1_555 1_555
H9_44 C7_44 1_555 1_555
H18_44 C25_44 1_555 1_555
H19_44 C25_44 1_555 1_555
C26_44 H20_44 1_555 1_555
H21_44 C26_44 1_555 1_555
H22_44 C26_44 1_555 1_555
H26_44 C28_44 1_555 1_555
H27_44 C28_44 1_555 1_555
H28_44 C28_44 1_555 1_555
C4_44 C10_44 1_555 1_555
C25_44 N4_44 1_555 1_555
C26_44 N4_44 1_555 1_555
H5_45 O6_45 1_555 1_555
C4_45 H7_45 1_555 1_555
C7_45 C4_45 1_555 1_555
H9_45 C7_45 1_555 1_555
H18_45 C25_45 1_555 1_555
H19_45 C25_45 1_555 1_555
C26_45 H20_45 1_555 1_555
H21_45 C26_45 1_555 1_555
H22_45 C26_45 1_555 1_555
H26_45 C28_45 1_555 1_555
H27_45 C28_45 1_555 1_555
H28_45 C28_45 1_555 1_555
C4_45 C10_45 1_555 1_555
C25_45 N4_45 1_555 1_555
C26_45 N4_45 1_555 1_555
H5_46 O6_46 1_555 1_555
C4_46 H7_46 1_555 1_555
C7_46 C4_46 1_555 1_555
H9_46 C7_46 1_555 1_555
H18_46 C25_46 1_555 1_555
H19_46 C25_46 1_555 1_555
C26_46 H20_46 1_555 1_555
H21_46 C26_46 1_555 1_555
H22_46 C26_46 1_555 1_555
H26_46 C28_46 1_555 1_555
H27_46 C28_46 1_555 1_555
H28_46 C28_46 1_555 1_555
C4_46 C10_46 1_555 1_555
C25_46 N4_46 1_555 1_555
C26_46 N4_46 1_555 1_555
H5_47 O6_47 1_555 1_555
C4_47 H7_47 1_555 1_555
C7_47 C4_47 1_555 1_555
H9_47 C7_47 1_555 1_555
H18_47 C25_47 1_555 1_555
H19_47 C25_47 1_555 1_555
C26_47 H20_47 1_555 1_555
H21_47 C26_47 1_555 1_555
H22_47 C26_47 1_555 1_555
H26_47 C28_47 1_555 1_555
H27_47 C28_47 1_555 1_555
H28_47 C28_47 1_555 1_555
C4_47 C10_47 1_555 1_555
C25_47 N4_47 1_555 1_555
C26_47 N4_47 1_555 1_555
H5_48 O6_48 1_555 1_555
C4_48 H7_48 1_555 1_555
C7_48 C4_48 1_555 1_555
H9_48 C7_48 1_555 1_555
H18_48 C25_48 1_555 1_555
H19_48 C25_48 1_555 1_555
C26_48 H20_48 1_555 1_555
H21_48 C26_48 1_555 1_555
H22_48 C26_48 1_555 1_555
H26_48 C28_48 1_555 1_555
H27_48 C28_48 1_555 1_555
H28_48 C28_48 1_555 1_555
C4_48 C10_48 1_555 1_555
C25_48 N4_48 1_555 1_555
C26_48 N4_48 1_555 1_555

#END
