
###############################################################################
#
# This file contains modified crystal structure data generated from the
# MOF subset of the Cambridge Structural Database (CSD) v543 
# hosted by the Cambridge Crystallographic Data Centre (CCDC).
#
# This work is licensed under the Creative Commons
# Attribution-NonCommercial-ShareAlike 4.0 International License.
# To view a copy of this license, visit
# http://creativecommons.org/licenses/by-nc-sa/4.0/
# or send a letter to
# Creative Commons, PO Box 1866, Mountain View, CA 94042, USA.
#
# CIF created using the CSD Python API on 29 September 2022
# The structure has been converted into the P1 space group
# The structure has a 3D framework
# The original CSD entry NERCEU is in the triclinic crystal system
# The framework has been calculated to contain at least 10.0% void space
# The void calculation uses a probe of radius 1.32A, grid spacing 0.4
#
###############################################################################

data_NERCEU
_chemical_formula_moiety         '(C130 H92 Cd6 N10 O30)n'
_symmetry_cell_setting           triclinic
_symmetry_space_group_name_H-M   'P 1'
_symmetry_Int_Tables_number      1
_space_group_name_Hall           'P 1'
loop_
_symmetry_equiv_pos_site_id
_symmetry_equiv_pos_as_xyz
1 x,y,z
_cell_length_a                   14.4840(5)
_cell_length_b                   15.2760(6)
_cell_length_c                   17.6280(7)
_cell_angle_alpha                112.514(4)
_cell_angle_beta                 105.357(3)
_cell_angle_gamma                93.378(3)
_cell_volume                     3417.68
loop_
_atom_site_label
_atom_site_type_symbol
_atom_site_fract_x
_atom_site_fract_y
_atom_site_fract_z
_atom_site_U_iso_or_equiv
_atom_site_thermal_displace_type
Cd5 Cd 0.05183(3) 0.78693(3) 0.33414(3) 0.0452 Uani
Cd12 Cd 0.26787(4) 0.88338(4) 0.24554(3) 0.0544 Uani
C86 C 0.0757(5) 0.8946(5) 0.2141(4) 0.0493 Uani
O23 O 0.1261(4) 0.9320(4) 0.1812(4) 0.0748 Uani
O25 O 0.1167(3) 0.8593(3) 0.2640(3) 0.0502 Uani
C109 C 0.4320(5) 0.0706(5) 0.6204(4) 0.0544 Uani
H74 H 0.4600 0.0874 0.6792 0.0660 Uiso
C110 C 0.4064(4) 0.1395(5) 0.5925(4) 0.0481 Uani
H75 H 0.4139 0.2029 0.6320 0.0580 Uiso
C111 C 0.3579(4) 0.0218(4) 0.4432(4) 0.0454 Uani
C112 C 0.3356(5) 0.1882(4) 0.4752(5) 0.0532 Uani
H76 H 0.3607 0.2517 0.5220 0.0640 Uiso
H77 H 0.3616 0.1852 0.4291 0.0640 Uiso
C113 C 0.2263(5) 0.1747(4) 0.4424(4) 0.0448 Uani
C114 C 0.1648(5) 0.1108(4) 0.4531(4) 0.0434 Uani
H78 H 0.1909 0.0712 0.4790 0.0520 Uiso
C115 C 0.0658(5) 0.1049(4) 0.4260(4) 0.0430 Uani
H79 H 0.0263 0.0619 0.4349 0.0510 Uiso
C116 C 0.0226(5) 0.1612(5) 0.3857(4) 0.0463 Uani
C117 C 0.0868(6) 0.2227(5) 0.3729(5) 0.0588 Uani
H80 H 0.0613 0.2606 0.3449 0.0710 Uiso
C118 C 0.1850(6) 0.2288(5) 0.4001(5) 0.0603 Uani
H81 H 0.2248 0.2703 0.3899 0.0730 Uiso
N8 N 0.3695(4) 0.1153(4) 0.5060(4) 0.0475 Uani
O37 O 0.3284(3) 0.0128(3) 0.3668(3) 0.0547 Uani
Cd2 Cd 0.33349(4) 0.64478(3) 0.32208(3) 0.0503 Uani
C1 C 0.1506(5) 0.6434(4) 0.2111(4) 0.0468 Uani
C2 C 0.0702(5) 0.6410(4) 0.1363(4) 0.0438 Uani
C3 C 0.0904(5) 0.6255(5) 0.0617(4) 0.0565 Uani
H1 H 0.1539 0.6223 0.0606 0.0670 Uiso
C54 C 0.0834(5) 0.8466(4) 0.6464(4) 0.0419 Uani
C55 C 0.1433(5) 0.8462(4) 0.5958(4) 0.0417 Uani
C56 C 0.2438(5) 0.8599(4) 0.6313(5) 0.0544 Uani
H36 H 0.2835 0.8605 0.5978 0.0650 Uiso
C57 C 0.2849(6) 0.8725(5) 0.7148(5) 0.0644 Uani
H37 H 0.3522 0.8815 0.7375 0.0770 Uiso
C58 C 0.2280(6) 0.8720(5) 0.7648(5) 0.0694 Uani
H38 H 0.2556 0.8794 0.8214 0.0830 Uiso
C59 C 0.1279(6) 0.8602(5) 0.7297(5) 0.0603 Uani
H39 H 0.0892 0.8616 0.7646 0.0730 Uiso
C60 C 0.1053(5) 0.8274(5) 0.5013(4) 0.0422 Uani
C61 C 0.3190(7) 0.5150(6) 0.4347(6) 0.0868 Uani
H40 H 0.3722 0.4859 0.4263 0.1040 Uiso
C62 C 0.2646(8) 0.5048(7) 0.4839(6) 0.0940 Uani
H41 H 0.2730 0.4660 0.5142 0.1120 Uiso
C63 C 0.2093(6) 0.6023(6) 0.4302(5) 0.0694 Uani
H42 H 0.1716 0.6452 0.4175 0.0830 Uiso
C64 C 0.1185(7) 0.5742(7) 0.5223(6) 0.0915 Uani
H43 H 0.0915 0.6302 0.5203 0.1100 Uiso
H44 H 0.1462 0.5859 0.5826 0.1100 Uiso
C65 C 0.0429(8) 0.4917(7) 0.4803(7) 0.1040 Uani
H45 H 0.0186 0.4773 0.4192 0.1250 Uiso
H46 H 0.0690 0.4368 0.4861 0.1250 Uiso
N4 N 0.2808(5) 0.5766(4) 0.3995(4) 0.0631 Uani
N5 N 0.1959(5) 0.5612(5) 0.4811(5) 0.0764 Uani
O1 O 0.2231(4) 0.6121(4) 0.1957(3) 0.0669 Uani
O2 O 0.1442(3) 0.6772(3) 0.2873(3) 0.0529 Uani
O14 O 0.0386(3) 0.7579(3) 0.4504(3) 0.0519 Uani
O15 O 0.1463(4) 0.8796(4) 0.4755(3) 0.0652 Uani
C87 C 0.9683(5) 0.8930(4) 0.1882(4) 0.0494 Uani
C88 C 0.9203(6) 0.8938(5) 0.1109(5) 0.0654 Uani
H60 H 0.9555 0.8975 0.0747 0.0780 Uiso
C89 C 0.8193(6) 0.8892(5) 0.0842(5) 0.0696 Uani
H61 H 0.7870 0.8879 0.0305 0.0830 Uiso
C90 C 0.7712(6) 0.8869(5) 0.1380(6) 0.0645 Uani
H62 H 0.7043 0.8846 0.1213 0.0780 Uiso
C91 C 0.9146(5) 0.8885(4) 0.2451(5) 0.0459 Uani
C92 C 0.7585(5) 0.8876(5) 0.2752(5) 0.0517 Uani
H63 H 0.6990 0.9113 0.2591 0.0620 Uiso
H64 H 0.7959 0.9319 0.3337 0.0620 Uiso
C93 C 0.7324(4) 0.7897(4) 0.2742(4) 0.0431 Uani
C94 C 0.6487(5) 0.7262(5) 0.2146(4) 0.0515 Uani
H65 H 0.6100 0.7421 0.1721 0.0620 Uiso
C95 C 0.6221(5) 0.6390(5) 0.2178(4) 0.0490 Uani
H66 H 0.5670 0.5961 0.1763 0.0590 Uiso
C96 C 0.6772(5) 0.6154(4) 0.2824(4) 0.0452 Uani
C97 C 0.7623(5) 0.6779(5) 0.3398(4) 0.0478 Uani
H67 H 0.8022 0.6617 0.3814 0.0580 Uiso
C98 C 0.7884(5) 0.7645(5) 0.3358(4) 0.0472 Uani
H68 H 0.8451 0.8063 0.3758 0.0570 Uiso
C99 C 0.6505(5) 0.5208(4) 0.2844(4) 0.0446 Uani
C100 C 0.5580(5) 0.4865(4) 0.2833(4) 0.0472 Uani
C101 C 0.5380(6) 0.3937(5) 0.2781(5) 0.0591 Uani
H69 H 0.4763 0.3703 0.2762 0.0710 Uiso
C102 C 0.6064(7) 0.3362(5) 0.2757(5) 0.0731 Uani
H70 H 0.5915 0.2746 0.2725 0.0880 Uiso
C103 C 0.6966(7) 0.3693(6) 0.2779(5) 0.0742 Uani
H71 H 0.7437 0.3303 0.2763 0.0890 Uiso
C104 C 0.7186(6) 0.4603(5) 0.2825(5) 0.0597 Uani
H72 H 0.7808 0.4821 0.2844 0.0710 Uiso
C105 C 0.4803(5) 0.5461(5) 0.2930(4) 0.0478 Uani
C106 C 0.3650(5) 0.8449(5) 0.4138(5) 0.0518 Uani
C107 C 0.3800(4) 0.9494(4) 0.4737(4) 0.0445 Uani
C108 C 0.4171(4) 0.9755(5) 0.5623(4) 0.0500 Uani
H73 H 0.4319 0.9284 0.5826 0.0600 Uiso
N7 N 0.8156(4) 0.8876(4) 0.2162(4) 0.0496 Uani
O20 O 0.3952(4) 0.9225(3) 0.2007(3) 0.0717 Uani
O22 O 0.2925(4) 0.7894(4) 0.1191(3) 0.0739 Uani
O28 O 0.9482(3) 0.8867(3) 0.3174(3) 0.0468 Uani
O30 O 0.5002(4) 0.6332(3) 0.3419(4) 0.0694 Uani
O31 O 0.3936(4) 0.5055(4) 0.2518(4) 0.0747 Uani
O32 O 0.3841(4) 0.7871(3) 0.4492(3) 0.0697 Uani
O34 O 0.3356(3) 0.8160(3) 0.3333(3) 0.0563 Uani
C4 C 0.0171(6) 0.6139(5) 0.9859(5) 0.0629 Uani
H2 H 0.0317 0.6041 0.9353 0.0760 Uiso
C41 C 0.6350(5) 0.1551(5) 0.5862(5) 0.0518 Uani
C42 C 0.6200(4) 0.0506(4) 0.5263(4) 0.0445 Uani
C43 C 0.5829(4) 0.0245(5) 0.4377(4) 0.0500 Uani
H27 H 0.5681 0.0716 0.4174 0.0600 Uiso
O11 O 0.6159(4) 0.2129(3) 0.5508(3) 0.0697 Uani
O12 O 0.6644(3) 0.1840(3) 0.6667(3) 0.0563 Uani
Cd6 Cd 0.94817(3) 0.21307(3) 0.66586(3) 0.0452 Uani
Cd8 Cd 0.66651(4) 0.35522(3) 0.67792(3) 0.0503 Uani
Cd11 Cd 0.73213(4) 0.11662(4) 0.75446(3) 0.0544 Uani
C119 C 0.9166(5) 0.1534(4) 0.3536(4) 0.0419 Uani
C120 C 0.8567(5) 0.1538(4) 0.4042(4) 0.0417 Uani
C121 C 0.7562(5) 0.1401(4) 0.3687(5) 0.0544 Uani
H82 H 0.7165 0.1395 0.4022 0.0650 Uiso
C122 C 0.7151(6) 0.1275(5) 0.2852(5) 0.0644 Uani
H83 H 0.6478 0.1185 0.2625 0.0770 Uiso
C123 C 0.7720(6) 0.1280(5) 0.2352(5) 0.0694 Uani
H84 H 0.7444 0.1206 0.1786 0.0830 Uiso
C124 C 0.8721(6) 0.1398(5) 0.2703(5) 0.0603 Uani
H85 H 0.9108 0.1384 0.2354 0.0730 Uiso
C125 C 0.8947(5) 0.1726(5) 0.4987(4) 0.0422 Uani
O39 O 0.9614(3) 0.2421(3) 0.5496(3) 0.0519 Uani
O41 O 0.8537(4) 0.1204(4) 0.5245(3) 0.0652 Uani
C6 C 0.9747(5) 0.6503(4) 0.1404(4) 0.0454 Uani
C7 C 0.8007(5) 0.6362(5) 0.0610(5) 0.0562 Uani
H4 H 0.7989 0.6816 0.1167 0.0670 Uiso
H5 H 0.7683 0.6585 0.0178 0.0670 Uiso
C8 C 0.7459(5) 0.5365(5) 0.0400(4) 0.0475 Uani
C11 C 0.6405(5) 0.3576(5) 0.0037(4) 0.0504 Uani
C12 C 0.7148(6) 0.4047(6) 0.0767(5) 0.0802 Uani
H8 H 0.7325 0.3765 0.1154 0.0970 Uiso
C13 C 0.7669(6) 0.4953(6) 0.0965(5) 0.0744 Uani
H9 H 0.8162 0.5270 0.1489 0.0890 Uiso
C18 C 0.4690(6) 0.2007(7) 0.0428(6) 0.0867 Uani
H12 H 0.4340 0.2098 0.0817 0.1040 Uiso
C19 C 0.5239(6) 0.2782(6) 0.0457(5) 0.0793 Uani
H13 H 0.5240 0.3395 0.0855 0.0950 Uiso
C44 C 0.5680(5) 0.9294(5) 0.3796(4) 0.0544 Uani
H28 H 0.5400 0.9126 0.3208 0.0660 Uiso
C45 C 0.5936(4) 0.8605(5) 0.4075(4) 0.0481 Uani
H29 H 0.5861 0.7971 0.3680 0.0580 Uiso
C46 C 0.6421(4) 0.9782(4) 0.5568(4) 0.0454 Uani
C47 C 0.6644(5) 0.8118(4) 0.5248(5) 0.0532 Uani
H30 H 0.6393 0.7483 0.4780 0.0640 Uiso
H31 H 0.6384 0.8148 0.5709 0.0640 Uiso
C48 C 0.7737(5) 0.8253(4) 0.5576(4) 0.0448 Uani
C49 C 0.8352(5) 0.8892(4) 0.5469(4) 0.0434 Uani
H32 H 0.8091 0.9288 0.5210 0.0520 Uiso
C50 C 0.9342(5) 0.8951(4) 0.5740(4) 0.0430 Uani
H33 H 0.9737 0.9381 0.5651 0.0510 Uiso
C51 C 0.9774(5) 0.8388(5) 0.6143(4) 0.0463 Uani
C52 C 0.9132(6) 0.7773(5) 0.6271(5) 0.0588 Uani
H34 H 0.9387 0.7394 0.6551 0.0710 Uiso
C53 C 0.8150(6) 0.7712(5) 0.5999(5) 0.0603 Uani
H35 H 0.7752 0.7297 0.6101 0.0730 Uiso
N1 N 0.9039(4) 0.6339(4) 0.0627(4) 0.0496 Uani
N3 N 0.6305(4) 0.8847(4) 0.4940(4) 0.0475 Uani
O3 O 0.9474(3) 0.6728(3) 0.2070(3) 0.0522 Uani
O13 O 0.6716(3) 0.9872(3) 0.6332(3) 0.0547 Uani
C126 C 0.6810(7) 0.4850(6) 0.5653(6) 0.0868 Uani
H86 H 0.6278 0.5141 0.5737 0.1040 Uiso
C127 C 0.7354(8) 0.4952(7) 0.5161(6) 0.0940 Uani
H87 H 0.7270 0.5340 0.4858 0.1120 Uiso
C128 C 0.7907(6) 0.3977(6) 0.5698(5) 0.0694 Uani
H88 H 0.8284 0.3548 0.5825 0.0830 Uiso
C129 C 0.8815(7) 0.4258(7) 0.4777(6) 0.0915 Uani
H89 H 0.9085 0.3698 0.4797 0.1100 Uiso
H90 H 0.8538 0.4141 0.4174 0.1100 Uiso
C130 C 0.9571(8) 0.5083(7) 0.5197(7) 0.1040 Uani
H91 H 0.9814 0.5227 0.5808 0.1250 Uiso
H92 H 0.9310 0.5632 0.5139 0.1250 Uiso
N9 N 0.7192(5) 0.4234(4) 0.6005(4) 0.0631 Uani
N11 N 0.8041(5) 0.4388(5) 0.5189(5) 0.0764 Uani
C5 C 0.9259(6) 0.6176(5) 0.9890(5) 0.0613 Uani
H3 H 0.8764 0.6087 0.9393 0.0740 Uiso
C9 C 0.6769(6) 0.4849(6) 0.9583(5) 0.0733 Uani
H6 H 0.6653 0.5094 0.9164 0.0880 Uiso
C10 C 0.6260(6) 0.3948(6) 0.9418(6) 0.0786 Uani
H7 H 0.5810 0.3589 0.8876 0.0950 Uiso
C14 C 0.5803(5) 0.2681(5) 0.9904(4) 0.0503 Uani
C15 C 0.5756(5) 0.1753(5) 0.9294(4) 0.0467 Uani
C16 C 0.5169(5) 0.0965(5) 0.9265(5) 0.0602 Uani
H10 H 0.5135 0.0349 0.8855 0.0720 Uiso
C17 C 0.4646(5) 0.1095(6) 0.9833(5) 0.0676 Uani
H11 H 0.4266 0.0570 0.9814 0.0810 Uiso
C20 C 0.6338(6) 0.1533(5) 0.8677(5) 0.0686 Uani
O4 O 0.6048(4) 0.0775(3) 0.7993(3) 0.0717 Uani
O5 O 0.7075(4) 0.2106(4) 0.8809(3) 0.0739 Uani
O24 O 0.8739(4) 0.0680(4) 0.8188(4) 0.0748 Uani
O26 O 0.8833(3) 0.1407(3) 0.7360(3) 0.0502 Uani
C70 C 0.0741(6) 0.3824(5) 0.0110(5) 0.0613 Uani
H49 H 0.1236 0.3913 0.0607 0.0740 Uiso
C74 C 0.3231(6) 0.5151(6) 0.0417(5) 0.0733 Uani
H52 H 0.3347 0.4906 0.0836 0.0880 Uiso
C75 C 0.3740(6) 0.6052(6) 0.0582(6) 0.0786 Uani
H53 H 0.4190 0.6411 0.1124 0.0950 Uiso
C79 C 0.4197(5) 0.7319(5) 0.0096(4) 0.0503 Uani
C80 C 0.4244(5) 0.8247(5) 0.0706(4) 0.0467 Uani
C81 C 0.4831(5) 0.9035(5) 0.0735(5) 0.0602 Uani
H56 H 0.4865 0.9651 0.1145 0.0720 Uiso
C82 C 0.5354(5) 0.8905(6) 0.0167(5) 0.0676 Uani
H57 H 0.5734 0.9430 0.0186 0.0810 Uiso
C85 C 0.3662(6) 0.8467(5) 0.1323(5) 0.0686 Uani
C71 C 0.0253(5) 0.3497(4) 0.8596(4) 0.0454 Uani
C72 C 0.1993(5) 0.3638(5) 0.9390(5) 0.0562 Uani
H50 H 0.2011 0.3184 0.8833 0.0670 Uiso
H51 H 0.2317 0.3415 0.9822 0.0670 Uiso
C73 C 0.2541(5) 0.4635(5) 0.9600(4) 0.0475 Uani
C76 C 0.3595(5) 0.6424(5) 0.9963(4) 0.0504 Uani
C77 C 0.2852(6) 0.5953(6) 0.9233(5) 0.0802 Uani
H54 H 0.2675 0.6235 0.8846 0.0970 Uiso
C78 C 0.2331(6) 0.5047(6) 0.9035(5) 0.0744 Uani
H55 H 0.1838 0.4730 0.8511 0.0890 Uiso
C83 C 0.5310(6) 0.7993(7) 0.9572(6) 0.0867 Uani
H58 H 0.5660 0.7902 0.9183 0.1040 Uiso
C84 C 0.4761(6) 0.7218(6) 0.9543(5) 0.0793 Uani
H59 H 0.4760 0.6605 0.9145 0.0950 Uiso
N6 N 0.0961(4) 0.3661(4) 0.9373(4) 0.0496 Uani
O18 O 0.0526(3) 0.3272(3) 0.7930(3) 0.0522 Uani
O29 O 0.0518(3) 0.1133(3) 0.6826(3) 0.0468 Uani
C69 C 0.9829(6) 0.3861(5) 0.0141(5) 0.0629 Uani
H48 H 0.9683 0.3959 0.0647 0.0760 Uiso
C22 C 0.0317(5) 0.1070(4) 0.8118(4) 0.0494 Uani
C23 C 0.0797(6) 0.1062(5) 0.8891(5) 0.0654 Uani
H14 H 0.0445 0.1025 0.9253 0.0780 Uiso
C24 C 0.1807(6) 0.1108(5) 0.9158(5) 0.0696 Uani
H15 H 0.2130 0.1121 0.9695 0.0830 Uiso
C25 C 0.2288(6) 0.1131(5) 0.8620(6) 0.0645 Uani
H16 H 0.2957 0.1154 0.8787 0.0780 Uiso
C26 C 0.0854(5) 0.1115(4) 0.7549(5) 0.0459 Uani
C27 C 0.2415(5) 0.1124(5) 0.7248(5) 0.0517 Uani
H17 H 0.3010 0.0887 0.7409 0.0620 Uiso
H18 H 0.2041 0.0681 0.6663 0.0620 Uiso
C28 C 0.2676(4) 0.2103(4) 0.7258(4) 0.0431 Uani
C29 C 0.3513(5) 0.2738(5) 0.7854(4) 0.0515 Uani
H19 H 0.3900 0.2579 0.8279 0.0620 Uiso
C30 C 0.3779(5) 0.3610(5) 0.7822(4) 0.0490 Uani
H20 H 0.4330 0.4039 0.8237 0.0590 Uiso
C31 C 0.3228(5) 0.3846(4) 0.7176(4) 0.0452 Uani
C32 C 0.2377(5) 0.3221(5) 0.6602(4) 0.0478 Uani
H21 H 0.1978 0.3383 0.6186 0.0580 Uiso
C33 C 0.2116(5) 0.2355(5) 0.6642(4) 0.0472 Uani
H22 H 0.1549 0.1937 0.6242 0.0570 Uiso
C34 C 0.3495(5) 0.4792(4) 0.7156(4) 0.0446 Uani
C35 C 0.4420(5) 0.5135(4) 0.7167(4) 0.0472 Uani
C36 C 0.4620(6) 0.6063(5) 0.7219(5) 0.0591 Uani
H23 H 0.5237 0.6297 0.7238 0.0710 Uiso
C37 C 0.3936(7) 0.6638(5) 0.7243(5) 0.0731 Uani
H24 H 0.4085 0.7254 0.7275 0.0880 Uiso
C38 C 0.3034(7) 0.6307(6) 0.7221(5) 0.0742 Uani
H25 H 0.2563 0.6697 0.7237 0.0890 Uiso
C39 C 0.2814(6) 0.5397(5) 0.7175(5) 0.0597 Uani
H26 H 0.2192 0.5179 0.7156 0.0710 Uiso
C40 C 0.5197(5) 0.4539(5) 0.7070(4) 0.0478 Uani
N2 N 0.1844(4) 0.1124(4) 0.7838(4) 0.0496 Uani
O9 O 0.4998(4) 0.3668(3) 0.6581(4) 0.0694 Uani
O10 O 0.6064(4) 0.4945(4) 0.7482(4) 0.0747 Uani
C66 C 0.8494(5) 0.3566(4) 0.7889(4) 0.0468 Uani
C67 C 0.9298(5) 0.3590(4) 0.8637(4) 0.0438 Uani
C68 C 0.9096(5) 0.3745(5) 0.9383(4) 0.0565 Uani
H47 H 0.8461 0.3777 0.9394 0.0670 Uiso
O16 O 0.7769(4) 0.3879(4) 0.8043(3) 0.0669 Uani
O17 O 0.8558(3) 0.3228(3) 0.7127(3) 0.0529 Uani
C21 C 0.9243(5) 0.1054(5) 0.7859(4) 0.0493 Uani
loop_
_atom_site_aniso_label
_atom_site_aniso_U_11
_atom_site_aniso_U_22
_atom_site_aniso_U_33
_atom_site_aniso_U_23
_atom_site_aniso_U_13
_atom_site_aniso_U_12
Cd5 0.0441 0.0471 0.0429 0.0147 0.0173 0.0083
Cd12 0.0459 0.0546 0.0544 0.0098 0.0238 0.0003
C86 0.054 0.039 0.055 0.012 0.03 0
O23 0.061 0.098 0.097 0.061 0.041 0.024
O25 0.043 0.057 0.06 0.03 0.022 0.009
C109 0.038 0.065 0.044 0.006 0.014 0.001
C110 0.034 0.044 0.056 0.008 0.018 0.003
C111 0.027 0.042 0.058 0.008 0.019 0.002
C112 0.053 0.034 0.067 0.011 0.026 0.003
C113 0.043 0.035 0.047 0.006 0.016 0.006
C114 0.041 0.043 0.048 0.018 0.017 0.011
C115 0.042 0.04 0.044 0.013 0.015 0.008
C116 0.05 0.043 0.046 0.016 0.018 0.013
C117 0.066 0.06 0.072 0.044 0.027 0.026
C118 0.062 0.052 0.082 0.035 0.035 0.011
N8 0.037 0.037 0.062 0.009 0.023 0.005
O37 0.058 0.044 0.052 0.01 0.017 0.006
Cd2 0.0467 0.0433 0.0565 0.0159 0.0163 0.0084
C1 0.048 0.033 0.055 0.014 0.017 0.001
C2 0.043 0.044 0.042 0.014 0.017 -0.001
C3 0.051 0.05 0.061 0.013 0.022 0.004
C54 0.046 0.037 0.04 0.016 0.008 0.012
C55 0.039 0.032 0.045 0.01 0.007 0.01
C56 0.05 0.039 0.065 0.016 0.011 0.012
C57 0.053 0.055 0.076 0.029 0.001 0.018
C58 0.078 0.064 0.055 0.025 0.001 0.021
C59 0.065 0.061 0.052 0.021 0.016 0.018
C60 0.042 0.043 0.048 0.019 0.022 0.016
C61 0.094 0.087 0.115 0.055 0.062 0.047
C62 0.095 0.094 0.094 0.0399 0.0296 0.017
C63 0.067 0.077 0.083 0.046 0.032 0.019
C64 0.096 0.098 0.084 0.029 0.047 0.015
C65 0.128 0.097 0.112 0.05 0.07 0.003
N4 0.063 0.054 0.082 0.032 0.031 0.015
N5 0.064 0.095 0.088 0.047 0.037 0.019
O1 0.051 0.085 0.057 0.015 0.023 0.028
O2 0.053 0.059 0.048 0.021 0.018 0.018
O14 0.054 0.048 0.042 0.01 0.012 -0.001
O15 0.065 0.071 0.058 0.031 0.014 -0.006
C87 0.051 0.038 0.061 0.022 0.019 0.004
C88 0.064 0.072 0.071 0.041 0.022 0.006
C89 0.077 0.065 0.068 0.037 0.011 0.01
C90 0.052 0.051 0.092 0.039 0.011 0.008
C91 0.041 0.029 0.063 0.014 0.017 0.003
C92 0.04 0.045 0.073 0.022 0.025 0.011
C93 0.035 0.037 0.053 0.011 0.018 0.008
C94 0.048 0.051 0.059 0.026 0.016 0.015
C95 0.037 0.048 0.056 0.02 0.009 0.001
C96 0.044 0.039 0.047 0.01 0.017 0.008
C97 0.046 0.058 0.043 0.023 0.016 0.011
C98 0.038 0.05 0.041 0.008 0.011 -0.001
C99 0.05 0.04 0.044 0.018 0.013 0.013
C100 0.058 0.037 0.049 0.017 0.021 0.011
C101 0.062 0.042 0.075 0.026 0.021 0.01
C102 0.089 0.046 0.097 0.041 0.03 0.02
C103 0.079 0.056 0.09 0.033 0.022 0.03
C104 0.056 0.056 0.068 0.025 0.02 0.019
C105 0.053 0.039 0.054 0.018 0.023 0.007
C106 0.027 0.048 0.078 0.016 0.028 0.005
C107 0.027 0.045 0.062 0.015 0.025 0.008
C108 0.032 0.057 0.063 0.022 0.022 0.01
N7 0.041 0.036 0.072 0.023 0.017 0.007
O20 0.079 0.058 0.063 0.004 0.035 -0.011
O22 0.069 0.065 0.066 -0.005 0.041 -0.014
O28 0.042 0.044 0.051 0.015 0.016 0.008
O30 0.046 0.042 0.095 0.003 0.021 0.006
O31 0.048 0.051 0.095 0.008 0.009 0.006
O32 0.08 0.047 0.08 0.024 0.024 0.016
O34 0.057 0.04 0.063 0.008 0.025 0.007
C4 0.067 0.069 0.049 0.02 0.021 0.002
C41 0.027 0.048 0.078 0.016 0.028 0.005
C42 0.027 0.045 0.062 0.015 0.025 0.008
C43 0.032 0.057 0.063 0.022 0.022 0.01
O11 0.08 0.047 0.08 0.024 0.024 0.016
O12 0.057 0.04 0.063 0.008 0.025 0.007
Cd6 0.0441 0.0471 0.0429 0.0147 0.0173 0.0083
Cd8 0.0467 0.0433 0.0565 0.0159 0.0163 0.0084
Cd11 0.0459 0.0546 0.0544 0.0098 0.0238 0.0003
C119 0.046 0.037 0.04 0.016 0.008 0.012
C120 0.039 0.032 0.045 0.01 0.007 0.01
C121 0.05 0.039 0.065 0.016 0.011 0.012
C122 0.053 0.055 0.076 0.029 0.001 0.018
C123 0.078 0.064 0.055 0.025 0.001 0.021
C124 0.065 0.061 0.052 0.021 0.016 0.018
C125 0.042 0.043 0.048 0.019 0.022 0.016
O39 0.054 0.048 0.042 0.01 0.012 -0.001
O41 0.065 0.071 0.058 0.031 0.014 -0.006
C6 0.044 0.034 0.045 0.008 0.008 -0.003
C7 0.043 0.047 0.06 0.006 0.011 0.008
C8 0.037 0.043 0.051 0.007 0.014 0.01
C11 0.051 0.058 0.036 0.01 0.019 0.005
C12 0.077 0.088 0.06 0.037 -0.005 -0.021
C13 0.071 0.078 0.052 0.028 -0.01 -0.021
C18 0.076 0.109 0.076 0.026 0.049 -0.008
C19 0.086 0.078 0.062 0.004 0.046 -0.003
C44 0.038 0.065 0.044 0.006 0.014 0.001
C45 0.034 0.044 0.056 0.008 0.018 0.003
C46 0.027 0.042 0.058 0.008 0.019 0.002
C47 0.053 0.034 0.067 0.011 0.026 0.003
C48 0.043 0.035 0.047 0.006 0.016 0.006
C49 0.041 0.043 0.048 0.018 0.017 0.011
C50 0.042 0.04 0.044 0.013 0.015 0.008
C51 0.05 0.043 0.046 0.016 0.018 0.013
C52 0.066 0.06 0.072 0.044 0.027 0.026
C53 0.062 0.052 0.082 0.035 0.035 0.011
N1 0.046 0.039 0.057 0.014 0.015 0.004
N3 0.037 0.037 0.062 0.009 0.023 0.005
O3 0.038 0.055 0.051 0.009 0.015 0.001
O13 0.058 0.044 0.052 0.01 0.017 0.006
C126 0.094 0.087 0.115 0.055 0.062 0.047
C127 0.095 0.094 0.094 0.0399 0.0296 0.017
C128 0.067 0.077 0.083 0.046 0.032 0.019
C129 0.096 0.098 0.084 0.029 0.047 0.015
C130 0.128 0.097 0.112 0.05 0.07 0.003
N9 0.063 0.054 0.082 0.032 0.031 0.015
N11 0.064 0.095 0.088 0.047 0.037 0.019
C5 0.062 0.062 0.046 0.018 0.004 0
C9 0.057 0.072 0.076 0.032 -0.002 -0.001
C10 0.056 0.079 0.076 0.029 -0.009 -0.009
C14 0.048 0.059 0.035 0.011 0.014 0
C15 0.038 0.054 0.048 0.021 0.014 0.005
C16 0.055 0.062 0.062 0.022 0.024 -0.003
C17 0.052 0.082 0.07 0.035 0.019 -0.004
C20 0.077 0.056 0.061 0.006 0.035 -0.01
O4 0.079 0.058 0.063 0.004 0.035 -0.011
O5 0.069 0.065 0.066 -0.005 0.041 -0.014
O24 0.061 0.098 0.097 0.061 0.041 0.024
O26 0.043 0.057 0.06 0.03 0.022 0.009
C70 0.062 0.062 0.046 0.018 0.004 0
C74 0.057 0.072 0.076 0.032 -0.002 -0.001
C75 0.056 0.079 0.076 0.029 -0.009 -0.009
C79 0.048 0.059 0.035 0.011 0.014 0
C80 0.038 0.054 0.048 0.021 0.014 0.005
C81 0.055 0.062 0.062 0.022 0.024 -0.003
C82 0.052 0.082 0.07 0.035 0.019 -0.004
C85 0.077 0.056 0.061 0.006 0.035 -0.01
C71 0.044 0.034 0.045 0.008 0.008 -0.003
C72 0.043 0.047 0.06 0.006 0.011 0.008
C73 0.037 0.043 0.051 0.007 0.014 0.01
C76 0.051 0.058 0.036 0.01 0.019 0.005
C77 0.077 0.088 0.06 0.037 -0.005 -0.021
C78 0.071 0.078 0.052 0.028 -0.01 -0.021
C83 0.076 0.109 0.076 0.026 0.049 -0.008
C84 0.086 0.078 0.062 0.004 0.046 -0.003
N6 0.046 0.039 0.057 0.014 0.015 0.004
O18 0.038 0.055 0.051 0.009 0.015 0.001
O29 0.042 0.044 0.051 0.015 0.016 0.008
C69 0.067 0.069 0.049 0.02 0.021 0.002
C22 0.051 0.038 0.061 0.022 0.019 0.004
C23 0.064 0.072 0.071 0.041 0.022 0.006
C24 0.077 0.065 0.068 0.037 0.011 0.01
C25 0.052 0.051 0.092 0.039 0.011 0.008
C26 0.041 0.029 0.063 0.014 0.017 0.003
C27 0.04 0.045 0.073 0.022 0.025 0.011
C28 0.035 0.037 0.053 0.011 0.018 0.008
C29 0.048 0.051 0.059 0.026 0.016 0.015
C30 0.037 0.048 0.056 0.02 0.009 0.001
C31 0.044 0.039 0.047 0.01 0.017 0.008
C32 0.046 0.058 0.043 0.023 0.016 0.011
C33 0.038 0.05 0.041 0.008 0.011 -0.001
C34 0.05 0.04 0.044 0.018 0.013 0.013
C35 0.058 0.037 0.049 0.017 0.021 0.011
C36 0.062 0.042 0.075 0.026 0.021 0.01
C37 0.089 0.046 0.097 0.041 0.03 0.02
C38 0.079 0.056 0.09 0.033 0.022 0.03
C39 0.056 0.056 0.068 0.025 0.02 0.019
C40 0.053 0.039 0.054 0.018 0.023 0.007
N2 0.041 0.036 0.072 0.023 0.017 0.007
O9 0.046 0.042 0.095 0.003 0.021 0.006
O10 0.048 0.051 0.095 0.008 0.009 0.006
C66 0.048 0.033 0.055 0.014 0.017 0.001
C67 0.043 0.044 0.042 0.014 0.017 -0.001
C68 0.051 0.05 0.061 0.013 0.022 0.004
O16 0.051 0.085 0.057 0.015 0.023 0.028
O17 0.053 0.059 0.048 0.021 0.018 0.018
C21 0.054 0.039 0.055 0.012 0.03 0
loop_
_geom_bond_atom_site_label_1
_geom_bond_atom_site_label_2
_geom_bond_site_symmetry_1
_geom_bond_site_symmetry_2
Cd5 O25 1_555 1_555
Cd12 O23 1_555 1_555
O23 C86 1_555 1_555
O25 Cd12 1_555 1_555
C86 O25 1_555 1_555
H74 C109 1_555 1_555
C110 C109 1_555 1_555
H75 C110 1_555 1_555
C112 H76 1_555 1_555
H77 C112 1_555 1_555
C113 C112 1_555 1_555
C114 C113 1_555 1_555
H78 C114 1_555 1_555
C115 C114 1_555 1_555
H79 C115 1_555 1_555
C116 C115 1_555 1_555
C117 C116 1_555 1_555
H80 C117 1_555 1_555
C118 C113 1_555 1_555
H81 C118 1_555 1_555
N8 C110 1_555 1_555
C111 N8 1_555 1_555
C111 O37 1_555 1_555
C112 N8 1_555 1_555
C117 C118 1_555 1_555
Cd5 O2 1_555 1_555
Cd2 N4 1_555 1_555
C1 C2 1_555 1_555
C2 C3 1_555 1_555
C3 H1 1_555 1_555
C55 C54 1_555 1_555
C56 C55 1_555 1_555
H36 C56 1_555 1_555
C57 C56 1_555 1_555
H37 C57 1_555 1_555
C58 C57 1_555 1_555
H38 C58 1_555 1_555
C59 C54 1_555 1_555
H39 C59 1_555 1_555
C60 C55 1_555 1_555
C61 H40 1_555 1_555
C62 C61 1_555 1_555
H41 C62 1_555 1_555
C63 H42 1_555 1_555
C64 H43 1_555 1_555
H44 C64 1_555 1_555
C65 C64 1_555 1_555
H45 C65 1_555 1_555
H46 C65 1_555 1_555
N4 C61 1_555 1_555
N5 C62 1_555 1_555
O1 Cd2 1_555 1_555
O2 C1 1_555 1_555
O14 Cd5 1_555 1_555
O15 Cd5 1_555 1_555
C87 C88 1_555 1_555
C88 H60 1_555 1_555
C89 C88 1_555 1_555
H61 C89 1_555 1_555
C90 C89 1_555 1_555
H62 C90 1_555 1_555
C91 C87 1_555 1_555
C92 H63 1_555 1_555
H64 C92 1_555 1_555
C93 C92 1_555 1_555
C94 C93 1_555 1_555
H65 C94 1_555 1_555
C95 C94 1_555 1_555
H66 C95 1_555 1_555
C96 C95 1_555 1_555
C97 C96 1_555 1_555
H67 C97 1_555 1_555
C98 C93 1_555 1_555
H68 C98 1_555 1_555
C99 C96 1_555 1_555
C100 C99 1_555 1_555
C101 C100 1_555 1_555
H69 C101 1_555 1_555
C102 C101 1_555 1_555
H70 C102 1_555 1_555
C103 C102 1_555 1_555
H71 C103 1_555 1_555
C104 C99 1_555 1_555
H72 C104 1_555 1_555
C105 C100 1_555 1_555
C106 C107 1_555 1_555
C107 C108 1_555 1_555
C108 H73 1_555 1_555
N7 C90 1_555 1_555
O20 Cd12 1_555 1_555
O22 Cd12 1_555 1_555
O30 Cd2 1_555 1_555
O31 Cd2 1_555 1_555
O32 Cd2 1_555 1_555
O34 Cd2 1_555 1_555
C1 O1 1_555 1_555
C58 C59 1_555 1_555
C60 O14 1_555 1_555
C60 O15 1_555 1_555
C63 N4 1_555 1_555
C63 N5 1_555 1_555
C64 N5 1_555 1_555
Cd12 O34 1_555 1_555
C91 N7 1_555 1_555
C91 O28 1_555 1_555
C92 N7 1_555 1_555
C97 C98 1_555 1_555
C103 C104 1_555 1_555
C105 O30 1_555 1_555
C105 O31 1_555 1_555
C106 O32 1_555 1_555
C106 O34 1_555 1_555
H2 C4 1_555 1_555
C41 C42 1_555 1_555
C42 C43 1_555 1_555
C43 H27 1_555 1_555
O11 C41 1_555 1_555
O12 C41 1_555 1_555
Cd6 O39 1_555 1_555
Cd8 O11 1_555 1_555
Cd11 O12 1_555 1_555
C120 C119 1_555 1_555
C121 C120 1_555 1_555
H82 C121 1_555 1_555
C122 C121 1_555 1_555
H83 C122 1_555 1_555
C123 C122 1_555 1_555
H84 C123 1_555 1_555
C124 C119 1_555 1_555
H85 C124 1_555 1_555
C125 C120 1_555 1_555
O39 C125 1_555 1_555
O41 Cd6 1_555 1_555
O12 Cd8 1_555 1_555
C123 C124 1_555 1_555
C125 O41 1_555 1_555
C7 H4 1_555 1_555
H5 C7 1_555 1_555
C8 C7 1_555 1_555
C12 C11 1_555 1_555
H8 C12 1_555 1_555
C13 C8 1_555 1_555
H9 C13 1_555 1_555
H12 C18 1_555 1_555
H13 C19 1_555 1_555
H28 C44 1_555 1_555
C45 C44 1_555 1_555
H29 C45 1_555 1_555
C47 H30 1_555 1_555
H31 C47 1_555 1_555
C48 C47 1_555 1_555
C49 C48 1_555 1_555
H32 C49 1_555 1_555
C50 C49 1_555 1_555
H33 C50 1_555 1_555
C51 C50 1_555 1_555
C52 C51 1_555 1_555
H34 C52 1_555 1_555
C53 C48 1_555 1_555
H35 C53 1_555 1_555
N3 C45 1_555 1_555
O13 C46 1_555 1_555
Cd8 N9 1_555 1_555
C126 H86 1_555 1_555
C127 C126 1_555 1_555
H87 C127 1_555 1_555
C128 H88 1_555 1_555
C129 H89 1_555 1_555
H90 C129 1_555 1_555
H91 C130 1_555 1_555
H92 C130 1_555 1_555
N9 C126 1_555 1_555
N11 C127 1_555 1_555
C6 N1 1_555 1_555
C6 O3 1_555 1_555
C7 N1 1_555 1_555
C12 C13 1_555 1_555
C18 C19 1_555 1_555
C46 N3 1_555 1_555
C47 N3 1_555 1_555
C52 C53 1_555 1_555
C128 N9 1_555 1_555
C128 N11 1_555 1_555
C129 C130 1_555 1_555
C129 N11 1_555 1_555
Cd11 O4 1_555 1_555
H3 C5 1_555 1_555
H6 C9 1_555 1_555
C10 C9 1_555 1_555
H7 C10 1_555 1_555
C15 C14 1_555 1_555
C16 C15 1_555 1_555
H10 C16 1_555 1_555
C17 C16 1_555 1_555
H11 C17 1_555 1_555
C20 C15 1_555 1_555
O4 C20 1_555 1_555
O5 Cd11 1_555 1_555
O24 Cd11 1_555 1_555
O26 Cd11 1_555 1_555
C20 O5 1_555 1_555
H49 C70 1_555 1_555
H52 C74 1_555 1_555
C75 C74 1_555 1_555
H53 C75 1_555 1_555
C80 C79 1_555 1_555
C81 C80 1_555 1_555
H56 C81 1_555 1_555
C82 C81 1_555 1_555
H57 C82 1_555 1_555
C85 C80 1_555 1_555
O20 C85 1_555 1_555
C85 O22 1_555 1_555
C72 H50 1_555 1_555
H51 C72 1_555 1_555
C73 C72 1_555 1_555
C77 C76 1_555 1_555
H54 C77 1_555 1_555
C78 C73 1_555 1_555
H55 C78 1_555 1_555
H58 C83 1_555 1_555
H59 C84 1_555 1_555
C71 N6 1_555 1_555
C71 O18 1_555 1_555
C72 N6 1_555 1_555
C77 C78 1_555 1_555
C83 C84 1_555 1_555
H48 C69 1_555 1_555
C22 C23 1_555 1_555
C23 H14 1_555 1_555
C24 C23 1_555 1_555
H15 C24 1_555 1_555
C25 C24 1_555 1_555
H16 C25 1_555 1_555
C26 C22 1_555 1_555
C27 H17 1_555 1_555
H18 C27 1_555 1_555
C28 C27 1_555 1_555
C29 C28 1_555 1_555
H19 C29 1_555 1_555
C30 C29 1_555 1_555
H20 C30 1_555 1_555
C31 C30 1_555 1_555
C32 C31 1_555 1_555
H21 C32 1_555 1_555
C33 C28 1_555 1_555
H22 C33 1_555 1_555
C34 C31 1_555 1_555
C35 C34 1_555 1_555
C36 C35 1_555 1_555
H23 C36 1_555 1_555
C37 C36 1_555 1_555
H24 C37 1_555 1_555
C38 C37 1_555 1_555
H25 C38 1_555 1_555
C39 C34 1_555 1_555
H26 C39 1_555 1_555
C40 C35 1_555 1_555
N2 C25 1_555 1_555
O9 C40 1_555 1_555
O10 C40 1_555 1_555
Cd6 O17 1_555 1_555
Cd8 O9 1_555 1_555
C66 C67 1_555 1_555
C67 C68 1_555 1_555
C68 H47 1_555 1_555
O16 Cd8 1_555 1_555
O17 C66 1_555 1_555
O26 Cd6 1_555 1_555
C26 N2 1_555 1_555
C26 O29 1_555 1_555
C27 N2 1_555 1_555
C32 C33 1_555 1_555
C38 C39 1_555 1_555
O10 Cd8 1_555 1_555
C66 O16 1_555 1_555
O24 C21 1_555 1_555
C21 O26 1_555 1_555

#END
