
###############################################################################
#
# This file contains modified crystal structure data generated from the
# MOF subset of the Cambridge Structural Database (CSD) v543 
# hosted by the Cambridge Crystallographic Data Centre (CCDC).
#
# This work is licensed under the Creative Commons
# Attribution-NonCommercial-ShareAlike 4.0 International License.
# To view a copy of this license, visit
# http://creativecommons.org/licenses/by-nc-sa/4.0/
# or send a letter to
# Creative Commons, PO Box 1866, Mountain View, CA 94042, USA.
#
# CIF created using the CSD Python API on 29 September 2022
# The structure has been converted into the P1 space group
# The structure has a 3D framework
# The original CSD entry NERMON is in the monoclinic crystal system
# The framework has been calculated to contain at least 10.0% void space
# The void calculation uses a probe of radius 1.32A, grid spacing 0.4
# H atom positions have been added when not included in the experimental data
# Generated hydrogen atom positions removed from atoms on special positions
#
###############################################################################

data_NERMON
_chemical_formula_moiety         '(C96 H120 Er8 O69)n'
_symmetry_cell_setting           triclinic
_symmetry_space_group_name_H-M   'P 1'
_symmetry_Int_Tables_number      1
_space_group_name_Hall           'P 1'
loop_
_symmetry_equiv_pos_site_id
_symmetry_equiv_pos_as_xyz
1 x,y,z
_cell_length_a                   38.5123(13)
_cell_length_b                   11.1241(4)
_cell_length_c                   7.0122(2)
_cell_angle_alpha                90.00
_cell_angle_beta                 98.634(2)
_cell_angle_gamma                90.00
_cell_volume                     2970.09
loop_
_atom_site_label
_atom_site_type_symbol
_atom_site_fract_x
_atom_site_fract_y
_atom_site_fract_z
O7 O 0.6144(3) 0.6592(9) 0.1633(12)
Er4 Er 0.870315(12) 0.79986(4) 0.14666(6)
Er5 Er 0.629685(12) 0.29986(4) 0.35334(6)
Er6 Er 0.870315(12) 0.20014(4) 0.64666(6)
O12 O 0.6480(2) 0.3633(8) 0.0778(11)
O16 O 0.8252(2) 0.2818(8) 0.4439(12)
O17 O 0.6748(2) 0.7818(8) 0.0561(12)
O19 O 0.8420(2) 0.3866(9) 0.2019(12)
C17 C 0.6713(3) 0.4366(10) 0.0330(15)
C18 C 0.7090(3) 0.4064(11) 0.0853(13)
C19 C 0.7345(3) 0.4855(11) 0.0435(15)
C20 C 0.7706(3) 0.4648(10) 0.1058(15)
H10 H 0.7873 0.5193 0.0763
C21 C 0.7807(3) 0.3626(10) 0.2109(14)
C22 C 0.7553(3) 0.2803(10) 0.2455(16)
H11 H 0.7623 0.2105 0.3137
C23 C 0.7198(3) 0.2983(10) 0.1821(14)
H12 H 0.7034 0.2403 0.2029
C24 C 0.8187(3) 0.3423(10) 0.2882(16)
H17 H 0.590067 0.849565 0.0824513
Er1 Er 0.629685(12) 0.70014(4) 0.85334(6)
O1 O 0.5874(2) 0.5463(8) 0.7860(11)
O2 O 0.5723(3) 0.7159(9) 0.6454(16)
O3 O 0.6480(2) 0.6367(8) 0.5778(11)
O4 O 0.6638(2) 0.4671(7) 0.4428(12)
O5 O 0.8252(2) 0.7182(8) 0.9439(12)
O6 O 0.8420(2) 0.6134(9) 0.7019(12)
O8 O 0.6422(3) 0.8740(8) 0.6744(13)
O9 O 0.6000(3) 0.8717(9) 0.9645(15)
C1 C 0.5655(3) 0.6079(12) 0.6725(17)
C2 C 0.5316(3) 0.5523(11) 0.5836(16)
C3 C 0.5029(4) 0.6249(12) 0.5005(18)
H1 H 0.5049 0.7082 0.5024
C4 C 0.5273(3) 0.4272(12) 0.5808(17)
H2 H 0.5457 0.3788 0.6366
C5 C 0.6713(3) 0.5634(10) 0.5330(15)
C6 C 0.7090(3) 0.5936(11) 0.5853(13)
C7 C 0.7345(3) 0.5145(11) 0.5435(15)
H3 H 0.7276 0.4457 0.4724
C8 C 0.7706(3) 0.5352(10) 0.6058(15)
H4 H 0.7873 0.4807 0.5763
C9 C 0.7807(3) 0.6374(10) 0.7109(14)
C10 C 0.7553(3) 0.7197(10) 0.7455(16)
H5 H 0.7623 0.7895 0.8137
C11 C 0.7198(3) 0.7017(10) 0.6821(14)
H6 H 0.7034 0.7597 0.7029
C12 C 0.8187(3) 0.6577(10) 0.7882(16)
Er2 Er 0.370315(12) 0.29986(4) 0.14666(6)
O10 O 0.4126(2) 0.4537(8) 0.2140(11)
O11 O 0.4277(3) 0.2841(9) 0.3546(16)
O13 O 0.3520(2) 0.3633(8) 0.4222(11)
O14 O 0.6638(2) 0.5329(7) 0.9428(12)
O15 O 0.3362(2) 0.4671(7) 0.0572(12)
O21 O 0.3578(3) 0.1260(8) 0.3256(13)
O22 O 0.4000(3) 0.1283(9) 0.0355(15)
C13 C 0.4345(3) 0.3921(12) 0.3275(17)
C14 C 0.4684(3) 0.4477(11) 0.4164(16)
C15 C 0.4971(4) 0.3751(12) 0.4995(18)
H7 H 0.4951 0.2918 0.4976
C16 C 0.4727(3) 0.5728(12) 0.4192(17)
H8 H 0.4543 0.6212 0.3634
H9 H 0.7276 0.5543 0.9724
H18 H 0.616976 0.93871 0.994509
H21 H 0.419257 0.102585 0.137723
H22 H 0.383024 0.0612903 0.00549085
O18 O 0.3252(2) 0.2182(8) 0.9439(12)
O20 O 0.3856(3) 0.3408(9) 0.8367(12)
O7_2 O 0.1144(3) 0.1592(9) 0.1633(12)
O17_2 O 0.1748(2) 0.2818(8) 0.0561(12)
H10_2 H 0.2873 0.0193 0.0763
H17_2 H 0.0900672 0.349565 0.0824513
Er1_2 Er 0.129685(12) 0.20014(4) 0.85334(6)
O1_2 O 0.0874(2) 0.0463(8) 0.7860(11)
O2_2 O 0.0723(3) 0.2159(9) 0.6454(16)
O3_2 O 0.1480(2) 0.1367(8) 0.5778(11)
O6_2 O 0.3420(2) 0.1134(9) 0.7019(12)
O8_2 O 0.1422(3) 0.3740(8) 0.6744(13)
O9_2 O 0.1000(3) 0.3717(9) 0.9645(15)
C1_2 C 0.0655(3) 0.1079(12) 0.6725(17)
C2_2 C 0.0316(3) 0.0523(11) 0.5836(16)
C3_2 C 0.0029(4) 0.1249(12) 0.5005(18)
H1_2 H 0.0049 0.2082 0.5024
C5_2 C 0.1713(3) 0.0634(10) 0.5330(15)
C6_2 C 0.2090(3) 0.0936(11) 0.5853(13)
C7_2 C 0.2345(3) 0.0145(11) 0.5435(15)
C8_2 C 0.2706(3) 0.0352(10) 0.6058(15)
C9_2 C 0.2807(3) 0.1374(10) 0.7109(14)
C10_2 C 0.2553(3) 0.2197(10) 0.7455(16)
H5_2 H 0.2623 0.2895 0.8137
C11_2 C 0.2198(3) 0.2017(10) 0.6821(14)
H6_2 H 0.2034 0.2597 0.7029
C12_2 C 0.3187(3) 0.1577(10) 0.7882(16)
O14_2 O 0.1638(2) 0.0329(7) 0.9428(12)
H9_2 H 0.2276 0.0543 0.9724
H18_2 H 0.116976 0.43871 0.994509
Er5_2 Er 0.129685(12) 0.79986(4) 0.35334(6)
Er6_2 Er 0.370315(12) 0.70014(4) 0.64666(6)
O12_2 O 0.1480(2) 0.8633(8) 0.0778(11)
O16_2 O 0.3252(2) 0.7818(8) 0.4439(12)
O19_2 O 0.3420(2) 0.8866(9) 0.2019(12)
C17_2 C 0.1713(3) 0.9366(10) 0.0330(15)
C18_2 C 0.2090(3) 0.9064(11) 0.0853(13)
C19_2 C 0.2345(3) 0.9855(11) 0.0435(15)
C20_2 C 0.2706(3) 0.9648(10) 0.1058(15)
C21_2 C 0.2807(3) 0.8626(10) 0.2109(14)
C22_2 C 0.2553(3) 0.7803(10) 0.2455(16)
H11_2 H 0.2623 0.7105 0.3137
C23_2 C 0.2198(3) 0.7983(10) 0.1821(14)
H12_2 H 0.2034 0.7403 0.2029
C24_2 C 0.3187(3) 0.8423(10) 0.2882(16)
O4_2 O 0.1638(2) 0.9671(7) 0.4428(12)
C4_2 C 0.0273(3) 0.9272(12) 0.5808(17)
H2_2 H 0.0457 0.8788 0.6366
H3_2 H 0.2276 0.9457 0.4724
H4_2 H 0.2873 0.9807 0.5763
C16_2 C 0.9727(3) 0.0728(12) 0.4192(17)
H8_2 H 0.9543 0.1212 0.3634
O10_2 O 0.9126(2) 0.9537(8) 0.2140(11)
O11_2 O 0.9277(3) 0.7841(9) 0.3546(16)
O13_2 O 0.8520(2) 0.8633(8) 0.4222(11)
O15_2 O 0.8362(2) 0.9671(7) 0.0572(12)
O21_2 O 0.8578(3) 0.6260(8) 0.3256(13)
O22_2 O 0.9000(3) 0.6283(9) 0.0355(15)
C13_2 C 0.9345(3) 0.8921(12) 0.3275(17)
C14_2 C 0.9684(3) 0.9477(11) 0.4164(16)
C15_2 C 0.9971(4) 0.8751(12) 0.4995(18)
H7_2 H 0.9951 0.7918 0.4976
H21_2 H 0.919257 0.602585 0.137723
H22_2 H 0.883024 0.56129 0.00549085
O20_2 O 0.8856(3) 0.8408(9) 0.8367(12)
H3_3 H 0.2724 0.4457 0.0276
O10_3 O 0.5874(2) 0.4537(8) 0.2860(11)
O11_3 O 0.5723(3) 0.2841(9) 0.1454(16)
O18_2 O 0.6748(2) 0.2182(8) 0.5561(12)
O20_3 O 0.6144(3) 0.3408(9) 0.6633(12)
O21_3 O 0.6422(3) 0.1260(8) 0.1744(13)
O22_3 O 0.6000(3) 0.1283(9) 0.4645(15)
C13_3 C 0.5655(3) 0.3921(12) 0.1725(17)
C14_3 C 0.5316(3) 0.4477(11) 0.0836(16)
C15_3 C 0.5029(4) 0.3751(12) 0.0005(18)
H7_3 H 0.5049 0.2918 0.0024
C16_3 C 0.5273(3) 0.5728(12) 0.0808(17)
H8_3 H 0.5457 0.6212 0.1366
O1_3 O 0.4126(2) 0.5463(8) 0.7140(11)
O2_3 O 0.4277(3) 0.7159(9) 0.8546(16)
O3_3 O 0.3520(2) 0.6367(8) 0.9222(11)
O5_2 O 0.1748(2) 0.7182(8) 0.5561(12)
O6_3 O 0.1580(2) 0.6134(9) 0.7981(12)
O7_3 O 0.3856(3) 0.6592(9) 0.3367(12)
O8_3 O 0.3578(3) 0.8740(8) 0.8256(13)
O9_3 O 0.4000(3) 0.8717(9) 0.5355(15)
C1_3 C 0.4345(3) 0.6079(12) 0.8275(17)
C2_3 C 0.4684(3) 0.5523(11) 0.9164(16)
C3_3 C 0.4971(4) 0.6249(12) 0.9995(18)
H1_3 H 0.4951 0.7082 0.9976
C4_3 C 0.4727(3) 0.4272(12) 0.9192(17)
H2_3 H 0.4543 0.3788 0.8634
C5_3 C 0.3287(3) 0.5634(10) 0.9670(15)
C6_3 C 0.2910(3) 0.5936(11) 0.9147(13)
C7_3 C 0.2655(3) 0.5145(11) 0.9565(15)
C8_3 C 0.2294(3) 0.5352(10) 0.8942(15)
H4_3 H 0.2127 0.4807 0.9237
C9_3 C 0.2193(3) 0.6374(10) 0.7891(14)
C10_3 C 0.2447(3) 0.7197(10) 0.7545(16)
H5_3 H 0.2377 0.7895 0.6863
C11_3 C 0.2802(3) 0.7017(10) 0.8179(14)
H6_3 H 0.2966 0.7597 0.7971
C12_3 C 0.1813(3) 0.6577(10) 0.7118(16)
O14_3 O 0.3362(2) 0.5329(7) 0.5572(12)
O19_3 O 0.1580(2) 0.3866(9) 0.2981(12)
C17_3 C 0.3287(3) 0.4366(10) 0.4670(15)
C18_3 C 0.2910(3) 0.4064(11) 0.4147(13)
C19_3 C 0.2655(3) 0.4855(11) 0.4565(15)
H9_3 H 0.2724 0.5543 0.5276
C20_3 C 0.2294(3) 0.4648(10) 0.3942(15)
H10_3 H 0.2127 0.5193 0.4237
C21_3 C 0.2193(3) 0.3626(10) 0.2891(14)
C22_3 C 0.2447(3) 0.2803(10) 0.2545(16)
H11_3 H 0.2377 0.2105 0.1863
C23_3 C 0.2802(3) 0.2983(10) 0.3179(14)
H12_3 H 0.2966 0.2403 0.2971
C24_3 C 0.1813(3) 0.3423(10) 0.2118(16)
C16_4 C 0.0273(3) 0.0728(12) 0.0808(17)
H8_4 H 0.0457 0.1212 0.1366
O10_4 O 0.0874(2) 0.9537(8) 0.2860(11)
O11_4 O 0.0723(3) 0.7841(9) 0.1454(16)
O20_4 O 0.1144(3) 0.8408(9) 0.6633(12)
O21_4 O 0.1422(3) 0.6260(8) 0.1744(13)
O22_4 O 0.1000(3) 0.6283(9) 0.4645(15)
C13_4 C 0.0655(3) 0.8921(12) 0.1725(17)
C14_4 C 0.0316(3) 0.9477(11) 0.0836(16)
C15_4 C 0.0029(4) 0.8751(12) 0.0005(18)
H7_4 H 0.0049 0.7918 0.0024
O1_4 O 0.9126(2) 0.0463(8) 0.7140(11)
O2_4 O 0.9277(3) 0.2159(9) 0.8546(16)
O3_4 O 0.8520(2) 0.1367(8) 0.9222(11)
O6_4 O 0.6580(2) 0.1134(9) 0.7981(12)
O7_4 O 0.8856(3) 0.1592(9) 0.3367(12)
O8_4 O 0.8578(3) 0.3740(8) 0.8256(13)
O9_4 O 0.9000(3) 0.3717(9) 0.5355(15)
C1_4 C 0.9345(3) 0.1079(12) 0.8275(17)
C2_4 C 0.9684(3) 0.0523(11) 0.9164(16)
C3_4 C 0.9971(4) 0.1249(12) 0.9995(18)
H1_4 H 0.9951 0.2082 0.9976
C5_4 C 0.8287(3) 0.0634(10) 0.9670(15)
C6_4 C 0.7910(3) 0.0936(11) 0.9147(13)
C7_4 C 0.7655(3) 0.0145(11) 0.9565(15)
C8_4 C 0.7294(3) 0.0352(10) 0.8942(15)
C9_4 C 0.7193(3) 0.1374(10) 0.7891(14)
C10_4 C 0.7447(3) 0.2197(10) 0.7545(16)
H5_4 H 0.7377 0.2895 0.6863
C11_4 C 0.7802(3) 0.2017(10) 0.8179(14)
H6_4 H 0.7966 0.2597 0.7971
C12_4 C 0.6813(3) 0.1577(10) 0.7118(16)
O14_4 O 0.8362(2) 0.0329(7) 0.5572(12)
H9_4 H 0.7724 0.0543 0.5276
H10_4 H 0.7127 0.0193 0.4237
H3_4 H 0.7724 0.9457 0.0276
C4_4 C 0.9727(3) 0.9272(12) 0.9192(17)
H2_4 H 0.9543 0.8788 0.8634
H4_4 H 0.7127 0.9807 0.9237
O19_4 O 0.6580(2) 0.8866(9) 0.2981(12)
C17_4 C 0.8287(3) 0.9366(10) 0.4670(15)
C18_4 C 0.7910(3) 0.9064(11) 0.4147(13)
C19_4 C 0.7655(3) 0.9855(11) 0.4565(15)
C20_4 C 0.7294(3) 0.9648(10) 0.3942(15)
C21_4 C 0.7193(3) 0.8626(10) 0.2891(14)
C22_4 C 0.7447(3) 0.7803(10) 0.2545(16)
H11_4 H 0.7377 0.7105 0.1863
C23_4 C 0.7802(3) 0.7983(10) 0.3179(14)
H12_4 H 0.7966 0.7403 0.2971
C24_4 C 0.6813(3) 0.8423(10) 0.2118(16)
H21_3 H 0.580743 0.897415 0.862277
H17_3 H 0.409933 0.150435 0.917549
H21_4 H 0.0807429 0.397415 0.862277
H17_4 H 0.909933 0.650435 0.917549
loop_
_geom_bond_atom_site_label_1
_geom_bond_atom_site_label_2
_geom_bond_site_symmetry_1
_geom_bond_site_symmetry_2
Er5 O12 1_555 1_555
Er6 O16 1_555 1_555
O12 C17 1_555 1_555
O16 C24 1_555 1_555
O19 C24 1_555 1_555
C18 C17 1_555 1_555
C19 C18 1_555 1_555
C20 C19 1_555 1_555
H10 C20 1_555 1_555
C21 C20 1_555 1_555
C22 C21 1_555 1_555
H11 C22 1_555 1_555
C23 C18 1_555 1_555
H12 C23 1_555 1_555
C24 C21 1_555 1_555
C22 C23 1_555 1_555
Er1 O1 1_555 1_555
O1 C1 1_555 1_555
O2 Er1 1_555 1_555
O3 Er1 1_555 1_555
O4 C5 1_555 1_555
O5 C12 1_555 1_555
O6 C12 1_555 1_555
O8 Er1 1_555 1_555
O9 Er1 1_555 1_555
C1 O2 1_555 1_555
C2 C1 1_555 1_555
C3 C2 1_555 1_555
H1 C3 1_555 1_555
C4 C2 1_555 1_555
H2 C4 1_555 1_555
C5 O3 1_555 1_555
C6 C5 1_555 1_555
C7 C6 1_555 1_555
H3 C7 1_555 1_555
C8 C7 1_555 1_555
H4 C8 1_555 1_555
C9 C8 1_555 1_555
C10 C9 1_555 1_555
H5 C10 1_555 1_555
C11 C6 1_555 1_555
H6 C11 1_555 1_555
C12 C9 1_555 1_555
Er2 O10 1_555 1_555
Er5 O4 1_555 1_555
O10 C13 1_555 1_555
O11 Er2 1_555 1_555
O13 Er2 1_555 1_555
O14 Er1 1_555 1_555
O15 Er2 1_555 1_555
O21 Er2 1_555 1_555
O22 Er2 1_555 1_555
C13 O11 1_555 1_555
C14 C13 1_555 1_555
C15 C4 1_555 1_555
H7 C15 1_555 1_555
C16 C3 1_555 1_555
H8 C16 1_555 1_555
C10 C11 1_555 1_555
C14 C15 1_555 1_555
C14 C16 1_555 1_555
O9 H18 1_555 1_555
O22 H21 1_555 1_555
O22 H22 1_555 1_555
Er1_2 O1_2 1_555 1_555
O1_2 C1_2 1_555 1_555
O2_2 Er1_2 1_555 1_555
O3_2 Er1_2 1_555 1_555
O18 C12_2 1_555 1_555
O6_2 C12_2 1_555 1_555
O8_2 Er1_2 1_555 1_555
O9_2 Er1_2 1_555 1_555
C1_2 O2_2 1_555 1_555
C2_2 C1_2 1_555 1_555
C3_2 C2_2 1_555 1_555
H1_2 C3_2 1_555 1_555
C5_2 O3_2 1_555 1_555
C6_2 C5_2 1_555 1_555
C7_2 C6_2 1_555 1_555
C8_2 C7_2 1_555 1_555
C9_2 C8_2 1_555 1_555
C10_2 C9_2 1_555 1_555
H5_2 C10_2 1_555 1_555
C11_2 C6_2 1_555 1_555
H6_2 C11_2 1_555 1_555
C12_2 C9_2 1_555 1_555
O14_2 Er1_2 1_555 1_555
C10_2 C11_2 1_555 1_555
O9_2 H18_2 1_555 1_555
Er5_2 O12_2 1_555 1_555
Er6_2 O16_2 1_555 1_555
O12_2 C17_2 1_555 1_555
O16_2 C24_2 1_555 1_555
O19_2 C24_2 1_555 1_555
C18_2 C17_2 1_555 1_555
C19_2 C18_2 1_555 1_555
C20_2 C19_2 1_555 1_555
C21_2 C20_2 1_555 1_555
C22_2 C21_2 1_555 1_555
H11_2 C22_2 1_555 1_555
C23_2 C18_2 1_555 1_555
H12_2 C23_2 1_555 1_555
C24_2 C21_2 1_555 1_555
C22_2 C23_2 1_555 1_555
H2_2 C4_2 1_555 1_555
Er5_2 O4_2 1_555 1_555
H8_2 C16_2 1_555 1_555
Er4 O10_2 1_555 1_555
O10_2 C13_2 1_555 1_555
O11_2 Er4 1_555 1_555
O13_2 Er4 1_555 1_555
O15_2 Er4 1_555 1_555
O21_2 Er4 1_555 1_555
O22_2 Er4 1_555 1_555
C13_2 O11_2 1_555 1_555
C14_2 C13_2 1_555 1_555
H7_2 C15_2 1_555 1_555
C14_2 C15_2 1_555 1_555
O22_2 H21_2 1_555 1_555
O22_2 H22_2 1_555 1_555
Er5 O10_3 1_555 1_555
O10_3 C13_3 1_555 1_555
O11_3 Er5 1_555 1_555
O18_2 Er5 1_555 1_555
O20_3 Er5 1_555 1_555
O21_3 Er5 1_555 1_555
O22_3 Er5 1_555 1_555
C13_3 O11_3 1_555 1_555
C14_3 C13_3 1_555 1_555
H7_3 C15_3 1_555 1_555
H8_3 C16_3 1_555 1_555
C14_3 C15_3 1_555 1_555
C14_3 C16_3 1_555 1_555
Er6_2 O1_3 1_555 1_555
O1_3 C1_3 1_555 1_555
O2_3 Er6_2 1_555 1_555
O3_3 Er6_2 1_555 1_555
O5_2 C12_3 1_555 1_555
O6_3 C12_3 1_555 1_555
O7_3 Er6_2 1_555 1_555
O8_3 Er6_2 1_555 1_555
O9_3 Er6_2 1_555 1_555
C1_3 O2_3 1_555 1_555
C2_3 C1_3 1_555 1_555
C3_3 C2_3 1_555 1_555
H1_3 C3_3 1_555 1_555
C4_3 C2_3 1_555 1_555
H2_3 C4_3 1_555 1_555
C5_3 O3_3 1_555 1_555
C6_3 C5_3 1_555 1_555
C7_3 C6_3 1_555 1_555
C8_3 C7_3 1_555 1_555
H4_3 C8_3 1_555 1_555
C9_3 C8_3 1_555 1_555
C10_3 C9_3 1_555 1_555
H5_3 C10_3 1_555 1_555
C11_3 C6_3 1_555 1_555
H6_3 C11_3 1_555 1_555
C12_3 C9_3 1_555 1_555
Er5_2 O5_2 1_555 1_555
O13 C17_3 1_555 1_555
O14_3 Er6_2 1_555 1_555
O17_2 C24_3 1_555 1_555
O19_3 C24_3 1_555 1_555
C17_3 O14_3 1_555 1_555
C18_3 C17_3 1_555 1_555
C19_3 C18_3 1_555 1_555
H9_3 C19_3 1_555 1_555
C20_3 C19_3 1_555 1_555
H10_3 C20_3 1_555 1_555
C21_3 C20_3 1_555 1_555
C22_3 C21_3 1_555 1_555
H11_3 C22_3 1_555 1_555
C23_3 C18_3 1_555 1_555
H12_3 C23_3 1_555 1_555
C24_3 C21_3 1_555 1_555
C10_3 C11_3 1_555 1_555
C22_3 C23_3 1_555 1_555
H8_4 C16_4 1_555 1_555
Er5_2 O10_4 1_555 1_555
O10_4 C13_4 1_555 1_555
O11_4 Er5_2 1_555 1_555
O20_4 Er5_2 1_555 1_555
O21_4 Er5_2 1_555 1_555
O22_4 Er5_2 1_555 1_555
C13_4 O11_4 1_555 1_555
C14_4 C13_4 1_555 1_555
H7_4 C15_4 1_555 1_555
C14_4 C15_4 1_555 1_555
Er6 O1_4 1_555 1_555
O1_4 C1_4 1_555 1_555
O2_4 Er6 1_555 1_555
O3_4 Er6 1_555 1_555
O18_2 C12_4 1_555 1_555
O6_4 C12_4 1_555 1_555
O7_4 Er6 1_555 1_555
O8_4 Er6 1_555 1_555
O9_4 Er6 1_555 1_555
C1_4 O2_4 1_555 1_555
C2_4 C1_4 1_555 1_555
C3_4 C2_4 1_555 1_555
H1_4 C3_4 1_555 1_555
C5_4 O3_4 1_555 1_555
C6_4 C5_4 1_555 1_555
C7_4 C6_4 1_555 1_555
C8_4 C7_4 1_555 1_555
C9_4 C8_4 1_555 1_555
C10_4 C9_4 1_555 1_555
H5_4 C10_4 1_555 1_555
C11_4 C6_4 1_555 1_555
H6_4 C11_4 1_555 1_555
C12_4 C9_4 1_555 1_555
O14_4 Er6 1_555 1_555
C10_4 C11_4 1_555 1_555
H2_4 C4_4 1_555 1_555
O13_2 C17_4 1_555 1_555
O17 C24_4 1_555 1_555
O19_4 C24_4 1_555 1_555
C18_4 C17_4 1_555 1_555
C19_4 C18_4 1_555 1_555
C20_4 C19_4 1_555 1_555
C21_4 C20_4 1_555 1_555
C22_4 C21_4 1_555 1_555
H11_4 C22_4 1_555 1_555
C23_4 C18_4 1_555 1_555
H12_4 C23_4 1_555 1_555
C24_4 C21_4 1_555 1_555
C22_4 C23_4 1_555 1_555
O9 H21_3 1_555 1_555
O9_2 H21_4 1_555 1_555

#END
