
###############################################################################
#
# This file contains modified crystal structure data generated from the
# MOF subset of the Cambridge Structural Database (CSD) v543 
# hosted by the Cambridge Crystallographic Data Centre (CCDC).
#
# This work is licensed under the Creative Commons
# Attribution-NonCommercial-ShareAlike 4.0 International License.
# To view a copy of this license, visit
# http://creativecommons.org/licenses/by-nc-sa/4.0/
# or send a letter to
# Creative Commons, PO Box 1866, Mountain View, CA 94042, USA.
#
# CIF created using the CSD Python API on 29 September 2022
# The structure has been converted into the P1 space group
# The structure has a 3D framework
# The original CSD entry NERSUA is in the monoclinic crystal system
# The framework has been calculated to contain at least 10.0% void space
# The void calculation uses a probe of radius 1.32A, grid spacing 0.4
# The framework is charged, counterions have been retained in the structure
# H atom positions have been added when not included in the experimental data
#
###############################################################################

data_NERSUA
_chemical_formula_moiety         '(C68 H88 Cu10 N12 O23 P8 3+)n'
_symmetry_cell_setting           triclinic
_symmetry_space_group_name_H-M   'P 1'
_symmetry_Int_Tables_number      1
_space_group_name_Hall           'P 1'
loop_
_symmetry_equiv_pos_site_id
_symmetry_equiv_pos_as_xyz
1 x,y,z
_cell_length_a                   13.9010(4)
_cell_length_b                   9.5384(3)
_cell_length_c                   26.6923(12)
_cell_angle_alpha                90
_cell_angle_beta                 96.326(3)
_cell_angle_gamma                90
_cell_volume                     3517.67
loop_
_atom_site_label
_atom_site_type_symbol
_atom_site_fract_x
_atom_site_fract_y
_atom_site_fract_z
H1 H 0.0344 0.2863 0.3331
Cu4 Cu 0.07832(6) 0.12301(9) 0.42554(4)
C1 C 0.9855(14) 0.2194(13) 0.3292(6)
C2 C 0.9212(16) 0.2289(16) 0.2863(7)
H2 H 0.9258 0.3053 0.2651
C3 C 0.8482(15) 0.052(2) 0.3111(7)
C4 C 0.9062(10) 0.0592(18) 0.3555(7)
H4 H 0.8860 0.0090 0.3823
Cu2 Cu 0.5000 0.0000 0.0000
N1 N 0.9847(4) 0.1272(6) 0.3644(2)
O5 O 0.3727(3) 0.0048(4) 0.02737(19)
N3 N 0.5714(5) 0.0167(6) 0.0696(2)
C10 C 0.8566(8) 0.1392(14) 0.2746(4)
C11 C 0.7197(11) 0.0389(16) 0.2239(6)
H13 H 0.6733 0.0541 0.2479
C12 C 0.5377(6) 0.1000(9) 0.1065(3)
H15 H 0.4816 0.1516 0.0978
C13 C 0.7833(13) 0.1522(17) 0.2230(7)
H16 H 0.7483 0.2403 0.2222
H17 H 0.8187 0.1472 0.1937
C14 C 0.6667(10) 0.0374(15) 0.1659(5)
C16 C 0.5792(9) 0.1108(13) 0.1522(4)
H19 H 0.5519 0.1659 0.1757
Cu2_2 Cu 0.5000 0.0000 1.0000
H23 H 0.1987 0.0181 0.6932
H34 H 0.2456 0.0478 0.7680
C32 C 0.3490(7) 0.0474(10) 0.9179(4)
H38 H 0.3248 0.1055 0.9415
C34 C 0.2977(10) 0.0346(16) 0.8714(5)
H40 H 0.2371 0.0765 0.8653
H3 H 0.8013 0.9819 0.3068
Cu1 Cu 0.42168(6) 0.62301(9) 0.07446(4)
Cu2_3 Cu 0.5000 1.0000 0.0000
P1 P 0.40144(12) 0.35908(16) 0.01348(8)
P2 P 0.31482(12) 0.88331(17) 0.04526(8)
O1 O 0.3157(3) 0.2596(5) 0.0242(2)
O3 O 0.4464(3) 0.4237(5) 0.0629(2)
O4 O 0.2187(4) 0.9341(6) 0.0565(2)
N2 N 0.3126(4) 0.6102(5) 0.0163(2)
O6 O 0.3710(3) 0.8063(4) 0.08944(18)
C5 C 0.2193(4) 0.5667(7) 0.0372(3)
H5 H 0.2028 0.6365 0.0612
H6 H 0.2297 0.4783 0.0549
C8 C 0.0426(4) 0.5074(8) 0.0199(3)
H9 H 0.0542 0.4190 0.0375
H10 H 0.0284 0.5778 0.0443
H14 H 0.7544 0.9522 0.2320
C15 C 0.6510(7) 0.9526(10) 0.0821(4)
H18 H 0.6752 0.8945 0.0585
C17 C 0.7023(10) 0.9654(16) 0.1286(5)
H20 H 0.7629 0.9235 0.1347
N5 N 0.5153(4) 0.6272(6) 0.1356(2)
Cu2_4 Cu 0.5000 1.0000 1.0000
O2 O 0.4705(3) 0.2850(5) 0.9839(2)
C6 C 0.3052(5) 0.7534(6) 0.9943(3)
H7 H 0.2437 0.7640 0.9736
H8 H 0.3567 0.7679 0.9731
C7 C 0.3443(5) 0.5061(7) 0.9793(3)
C9 C 0.1337(5) 0.5506(10) 0.9954(4)
H11 H 0.1222 0.6386 0.9776
H12 H 0.1488 0.4797 0.9714
C18 C 0.0145(14) 0.7806(13) 0.6708(6)
C19 C 0.0788(16) 0.7711(16) 0.7137(7)
H22 H 0.0742 0.6947 0.7349
C20 C 0.1518(15) 0.948(2) 0.6889(7)
C21 C 0.0938(10) 0.9408(18) 0.6445(7)
H24 H 0.1140 0.9910 0.6177
N4 N 0.0153(4) 0.8728(6) 0.6356(2)
O12 O 0.6273(3) 0.9952(4) 0.97263(19)
N8 N 0.4286(5) 0.9833(6) 0.9304(2)
C27 C 0.1434(8) 0.8608(14) 0.7254(4)
C28 C 0.2803(11) 0.9611(16) 0.7761(6)
H33 H 0.3267 0.9459 0.7521
C29 C 0.4623(6) 0.9000(9) 0.8935(3)
H35 H 0.5184 0.8484 0.9022
C30 C 0.2167(13) 0.8478(17) 0.7770(7)
H36 H 0.2517 0.7597 0.7778
H37 H 0.1813 0.8528 0.8063
C31 C 0.3333(10) 0.9626(15) 0.8341(5)
C33 C 0.4208(9) 0.8892(13) 0.8478(4)
H39 H 0.4481 0.8341 0.8243
H41 H 0.281636 0.469705 0.95465
H42 H 0.395626 0.555405 0.956784
O8 O 0.5295(3) 0.7150(5) 0.0161(2)
C23 C 0.6948(5) 0.2466(6) 0.0057(3)
H27 H 0.7563 0.2360 0.0264
H28 H 0.6433 0.2321 0.0269
C24 C 0.6557(5) 0.4939(7) 0.0207(3)
C26 C 0.8663(5) 0.4494(10) 0.0046(4)
H31 H 0.8778 0.3614 0.0224
H32 H 0.8512 0.5203 0.0286
H43 H 0.604374 0.444595 0.0432156
H44 H 0.718364 0.530295 0.0453496
H21 H 0.9656 0.7137 0.6669
Cu3 Cu 0.92168(6) 0.87699(9) 0.57446(4)
Cu5 Cu 0.57832(6) 0.37699(9) 0.92554(4)
P3 P 0.59856(12) 0.64092(16) 0.98652(8)
P4 P 0.68518(12) 0.11669(17) 0.95474(8)
N6 N 0.4847(4) 0.3728(6) 0.8644(2)
O7 O 0.6843(3) 0.7404(5) 0.9758(2)
O9 O 0.5536(3) 0.5763(5) 0.9371(2)
O10 O 0.7813(4) 0.0659(6) 0.9435(2)
N7 N 0.6874(4) 0.3898(5) 0.9837(2)
O13 O 0.6290(3) 0.1937(4) 0.91056(18)
C22 C 0.7807(4) 0.4333(7) 0.9628(3)
H25 H 0.7972 0.3635 0.9388
H26 H 0.7703 0.5217 0.9451
C25 C 0.9574(4) 0.4926(8) 0.9801(3)
H29 H 0.9458 0.5810 0.9625
H30 H 0.9716 0.4222 0.9557
Cu6 Cu 0.0000 0.5000 0.5000
P2_2 P 0.18518(12) 0.38331(17) 0.45474(8)
O4_2 O 0.2813(4) 0.4341(6) 0.4435(2)
N2_2 N 0.1874(4) 0.1102(5) 0.4837(2)
O5_2 O 0.1273(3) 0.5048(4) 0.47263(19)
O6_2 O 0.1290(3) 0.3063(4) 0.41056(18)
C5_2 C 0.2807(4) 0.0667(7) 0.4628(3)
H5_2 H 0.2972 0.1365 0.4388
C6_2 C 0.1948(5) 0.2534(6) 0.5057(3)
H7_2 H 0.2563 0.2640 0.5264
H8_2 H 0.1433 0.2679 0.5269
C7_2 C 0.1557(5) 0.0061(7) 0.5207(3)
C8_2 C 0.4574(4) 0.0074(8) 0.4801(3)
H10_2 H 0.4716 0.0778 0.4557
C9_2 C 0.3663(5) 0.0506(10) 0.5046(4)
H11_2 H 0.3778 0.1386 0.5224
H15_2 H 0.0184 0.6516 0.4022
C18_2 C 0.4855(14) 0.2806(13) 0.8292(6)
H21_2 H 0.5344 0.2137 0.8331
C19_2 C 0.4212(16) 0.2711(16) 0.7863(7)
H22_2 H 0.4258 0.1947 0.7651
C20_2 C 0.3482(15) 0.448(2) 0.8111(7)
H23_2 H 0.3013 0.5181 0.8068
C21_2 C 0.4062(10) 0.4408(18) 0.8555(7)
H24_2 H 0.3860 0.4910 0.8823
P3_2 P 0.90144(12) 0.14092(16) 0.51348(8)
O7_2 O 0.8157(3) 0.2404(5) 0.5242(2)
O8_2 O 0.9705(3) 0.2150(5) 0.4839(2)
O9_2 O 0.9464(3) 0.0763(5) 0.5629(2)
N8_2 N 0.0714(5) 0.4833(6) 0.5696(2)
H26_2 H 0.7297 0.0217 0.5549
H29_2 H 0.5542 0.0810 0.5375
H32_2 H 0.6488 0.0203 0.4714
C27_2 C 0.3566(8) 0.3608(14) 0.7746(4)
C28_2 C 0.2197(11) 0.4611(16) 0.7239(6)
H33_2 H 0.1733 0.4459 0.7479
H34_2 H 0.2544 0.5478 0.7320
C29_2 C 0.0377(6) 0.4000(9) 0.6065(3)
C30_2 C 0.2833(13) 0.3478(17) 0.7230(7)
H36_2 H 0.2483 0.2597 0.7222
H37_2 H 0.3187 0.3528 0.6937
C31_2 C 0.1667(10) 0.4626(15) 0.6659(5)
C32_2 C 0.1510(7) 0.5474(10) 0.5821(4)
H38_2 H 0.1752 0.6055 0.5585
C33_2 C 0.0792(9) 0.3892(13) 0.6522(4)
H39_2 H 0.0519 0.3341 0.6757
C34_2 C 0.2023(10) 0.5346(16) 0.6286(5)
H40_2 H 0.2629 0.5765 0.6347
H42_2 H 0.104374 0.0554046 0.543216
H44_2 H 0.781636 0.0302954 0.45465
P1_2 P 0.09856(12) 0.85908(16) 0.48652(8)
O1_2 O 0.1843(3) 0.7596(5) 0.4758(2)
O2_2 O 0.0295(3) 0.7850(5) 0.5161(2)
O3_2 O 0.0536(3) 0.9237(5) 0.4371(2)
H6_2 H 0.2703 0.9783 0.4451
H9_2 H 0.4458 0.9190 0.4625
H12_2 H 0.3512 0.9797 0.5286
Cu6_2 Cu 1.0000 0.5000 0.5000
P4_2 P 0.81482(12) 0.61669(17) 0.54526(8)
O10_2 O 0.7187(4) 0.5659(6) 0.5565(2)
N7_2 N 0.8126(4) 0.8898(5) 0.5163(2)
O11 O 0.8727(3) 0.4952(4) 0.52737(19)
O13_2 O 0.8710(3) 0.6937(4) 0.58944(18)
C22_2 C 0.7193(4) 0.9333(7) 0.5372(3)
H25_2 H 0.7028 0.8635 0.5612
C23_2 C 0.8052(5) 0.7466(6) 0.4943(3)
H27_2 H 0.7437 0.7360 0.4736
H28_2 H 0.8567 0.7321 0.4731
C24_2 C 0.8443(5) 0.9939(7) 0.4793(3)
C25_2 C 0.5426(4) 0.9926(8) 0.5199(3)
H30_2 H 0.5284 0.9222 0.5443
C26_2 C 0.6337(5) 0.9494(10) 0.4954(4)
H31_2 H 0.6222 0.8614 0.4776
H41_2 H 0.218364 0.969705 0.54535
H43_2 H 0.895626 0.944595 0.456784
C1_2 C 0.5145(14) 0.7194(13) 0.1708(6)
H1_2 H 0.4656 0.7863 0.1669
C2_2 C 0.5788(16) 0.7289(16) 0.2137(7)
H2_2 H 0.5742 0.8053 0.2349
C3_2 C 0.6518(15) 0.552(2) 0.1889(7)
H3_2 H 0.6987 0.4819 0.1932
C4_2 C 0.5938(10) 0.5592(18) 0.1445(7)
H4_2 H 0.6140 0.5090 0.1177
N3_2 N 0.9286(5) 0.5167(6) 0.4304(2)
C10_2 C 0.6434(8) 0.6392(14) 0.2254(4)
C11_2 C 0.7803(11) 0.5389(16) 0.2761(6)
H13_2 H 0.8267 0.5541 0.2521
H14_2 H 0.7456 0.4522 0.2680
C12_2 C 0.9623(6) 0.6000(9) 0.3935(3)
C13_2 C 0.7167(13) 0.6522(17) 0.2770(7)
H16_2 H 0.7517 0.7403 0.2778
H17_2 H 0.6813 0.6472 0.3063
C14_2 C 0.8333(10) 0.5374(15) 0.3341(5)
C15_2 C 0.8490(7) 0.4526(10) 0.4179(4)
H18_2 H 0.8248 0.3945 0.4415
C16_2 C 0.9208(9) 0.6108(13) 0.3478(4)
H19_2 H 0.9481 0.6659 0.3243
C17_2 C 0.7977(10) 0.4654(16) 0.3714(5)
H20_2 H 0.7371 0.4235 0.3653
H35_2 H 0.9816 0.3484 0.5978
loop_
_geom_bond_atom_site_label_1
_geom_bond_atom_site_label_2
_geom_bond_site_symmetry_1
_geom_bond_site_symmetry_2
C2 C1 1_555 1_555
H2 C2 1_555 1_555
C4 C3 1_555 1_555
H4 C4 1_555 1_555
Cu2 O5 1_555 1_555
N1 C1 1_555 1_555
N3 Cu2 1_555 1_555
C10 C2 1_555 1_555
C11 H13 1_555 1_555
C12 N3 1_555 1_555
H15 C12 1_555 1_555
C13 C10 1_555 1_555
H16 C13 1_555 1_555
H17 C13 1_555 1_555
C14 C11 1_555 1_555
C16 C12 1_555 1_555
H19 C16 1_555 1_555
C3 C10 1_555 1_555
C4 N1 1_555 1_555
C11 C13 1_555 1_555
C14 C16 1_555 1_555
H38 C32 1_555 1_555
H40 C34 1_555 1_555
C32 C34 1_555 1_555
Cu1 O3 1_555 1_555
P1 O1 1_555 1_555
P2 O4 1_555 1_555
O3 P1 1_555 1_555
N2 Cu1 1_555 1_555
O6 Cu1 1_555 1_555
C5 N2 1_555 1_555
H5 C5 1_555 1_555
H6 C5 1_555 1_555
C8 H9 1_555 1_555
H10 C8 1_555 1_555
H18 C15 1_555 1_555
H20 C17 1_555 1_555
N5 Cu1 1_555 1_555
P2 O6 1_555 1_555
C15 C17 1_555 1_555
H7 C6 1_555 1_555
H8 C6 1_555 1_555
H11 C9 1_555 1_555
H12 C9 1_555 1_555
C19 C18 1_555 1_555
H22 C19 1_555 1_555
C21 C20 1_555 1_555
H24 C21 1_555 1_555
N4 C18 1_555 1_555
O12 Cu2_4 1_555 1_555
N8 Cu2_4 1_555 1_555
C27 C19 1_555 1_555
C28 H33 1_555 1_555
C29 N8 1_555 1_555
H35 C29 1_555 1_555
C30 C27 1_555 1_555
H36 C30 1_555 1_555
H37 C30 1_555 1_555
C31 C28 1_555 1_555
C33 C29 1_555 1_555
H39 C33 1_555 1_555
C20 C27 1_555 1_555
C21 N4 1_555 1_555
C28 C30 1_555 1_555
C31 C33 1_555 1_555
C7 H41 1_555 1_555
C7 H42 1_555 1_555
H27 C23 1_555 1_555
H28 C23 1_555 1_555
H31 C26 1_555 1_555
H32 C26 1_555 1_555
C24 H43 1_555 1_555
C24 H44 1_555 1_555
Cu5 N6 1_555 1_555
P3 O7 1_555 1_555
P4 O10 1_555 1_555
O9 Cu5 1_555 1_555
N7 Cu5 1_555 1_555
O13 Cu5 1_555 1_555
C22 N7 1_555 1_555
H25 C22 1_555 1_555
H26 C22 1_555 1_555
H29 C25 1_555 1_555
H30 C25 1_555 1_555
P3 O9 1_555 1_555
P4 O13 1_555 1_555
Cu6 O5_2 1_555 1_555
P2_2 O4_2 1_555 1_555
N2_2 Cu4 1_555 1_555
O5_2 P2_2 1_555 1_555
O6_2 Cu4 1_555 1_555
C5_2 N2_2 1_555 1_555
H5_2 C5_2 1_555 1_555
C6_2 P2_2 1_555 1_555
H7_2 C6_2 1_555 1_555
H8_2 C6_2 1_555 1_555
H10_2 C8_2 1_555 1_555
C9_2 C5_2 1_555 1_555
H11_2 C9_2 1_555 1_555
C18_2 H21_2 1_555 1_555
C19_2 C18_2 1_555 1_555
H22_2 C19_2 1_555 1_555
C20_2 H23_2 1_555 1_555
C21_2 C20_2 1_555 1_555
H24_2 C21_2 1_555 1_555
P3_2 O7_2 1_555 1_555
N6 C18_2 1_555 1_555
O8_2 P3_2 1_555 1_555
N8_2 Cu6 1_555 1_555
C27_2 C19_2 1_555 1_555
C28_2 H33_2 1_555 1_555
H34_2 C28_2 1_555 1_555
C29_2 N8_2 1_555 1_555
C30_2 C27_2 1_555 1_555
H36_2 C30_2 1_555 1_555
H37_2 C30_2 1_555 1_555
C31_2 C28_2 1_555 1_555
C32_2 N8_2 1_555 1_555
H38_2 C32_2 1_555 1_555
C33_2 C29_2 1_555 1_555
H39_2 C33_2 1_555 1_555
C34_2 C31_2 1_555 1_555
H40_2 C34_2 1_555 1_555
P2_2 O6_2 1_555 1_555
N2_2 C6_2 1_555 1_555
N2_2 C7_2 1_555 1_555
C8_2 C9_2 1_555 1_555
C20_2 C27_2 1_555 1_555
C21_2 N6 1_555 1_555
P3_2 O9_2 1_555 1_555
C28_2 C30_2 1_555 1_555
C31_2 C33_2 1_555 1_555
C32_2 C34_2 1_555 1_555
C7_2 H42_2 1_555 1_555
P1_2 O1_2 1_555 1_555
O2_2 P1_2 1_555 1_555
O3_2 P1_2 1_555 1_555
Cu6_2 O11 1_555 1_555
P4_2 O10_2 1_555 1_555
N7_2 Cu3 1_555 1_555
O11 P4_2 1_555 1_555
O13_2 Cu3 1_555 1_555
C22_2 N7_2 1_555 1_555
H25_2 C22_2 1_555 1_555
C23_2 P4_2 1_555 1_555
H27_2 C23_2 1_555 1_555
H28_2 C23_2 1_555 1_555
H30_2 C25_2 1_555 1_555
C26_2 C22_2 1_555 1_555
H31_2 C26_2 1_555 1_555
P4_2 O13_2 1_555 1_555
N7_2 C23_2 1_555 1_555
N7_2 C24_2 1_555 1_555
C25_2 C26_2 1_555 1_555
C24_2 H43_2 1_555 1_555
C1_2 H1_2 1_555 1_555
C2_2 C1_2 1_555 1_555
H2_2 C2_2 1_555 1_555
C3_2 H3_2 1_555 1_555
C4_2 C3_2 1_555 1_555
H4_2 C4_2 1_555 1_555
N5 C1_2 1_555 1_555
N3_2 Cu6_2 1_555 1_555
C10_2 C2_2 1_555 1_555
C11_2 H13_2 1_555 1_555
H14_2 C11_2 1_555 1_555
C12_2 N3_2 1_555 1_555
C13_2 C10_2 1_555 1_555
H16_2 C13_2 1_555 1_555
H17_2 C13_2 1_555 1_555
C14_2 C11_2 1_555 1_555
C15_2 N3_2 1_555 1_555
H18_2 C15_2 1_555 1_555
C16_2 C12_2 1_555 1_555
H19_2 C16_2 1_555 1_555
C17_2 C14_2 1_555 1_555
H20_2 C17_2 1_555 1_555
C3_2 C10_2 1_555 1_555
C4_2 N5 1_555 1_555
C11_2 C13_2 1_555 1_555
C14_2 C16_2 1_555 1_555
C15_2 C17_2 1_555 1_555

#END
