
###############################################################################
#
# This file contains modified crystal structure data generated from the
# MOF subset of the Cambridge Structural Database (CSD) v543 
# hosted by the Cambridge Crystallographic Data Centre (CCDC).
#
# This work is licensed under the Creative Commons
# Attribution-NonCommercial-ShareAlike 4.0 International License.
# To view a copy of this license, visit
# http://creativecommons.org/licenses/by-nc-sa/4.0/
# or send a letter to
# Creative Commons, PO Box 1866, Mountain View, CA 94042, USA.
#
# CIF created using the CSD Python API on 29 September 2022
# The structure has been converted into the P1 space group
# The structure has a 3D framework
# The original CSD entry NERTAH is in the monoclinic crystal system
# The framework has been calculated to contain at least 10.0% void space
# The void calculation uses a probe of radius 1.32A, grid spacing 0.4
# H atom positions have been added when not included in the experimental data
# Generated hydrogen atom positions removed from atoms on special positions
#
###############################################################################

data_NERTAH
_chemical_formula_moiety         '(C136 H188 Cu11 N24 O49 P16)n'
_symmetry_cell_setting           triclinic
_symmetry_space_group_name_H-M   'P 1'
_symmetry_Int_Tables_number      1
_space_group_name_Hall           'P 1'
loop_
_symmetry_equiv_pos_site_id
_symmetry_equiv_pos_as_xyz
1 x,y,z
_cell_length_a                   23.288(2)
_cell_length_b                   9.5700(7)
_cell_length_c                   24.207(2)
_cell_angle_alpha                90
_cell_angle_beta                 105.705(9)
_cell_angle_gamma                90
_cell_volume                     5193.52
loop_
_atom_site_label
_atom_site_type_symbol
_atom_site_fract_x
_atom_site_fract_y
_atom_site_fract_z
Cu5 Cu 0.26226(5) 0.04275(13) 0.48279(5)
Cu8 Cu 0.73774(5) 0.54275(13) 0.01721(5)
Cu2 Cu 0.26191(5) 0.43648(13) 0.57542(5)
P1 P 0.18923(10) 0.1807(3) 0.56402(10)
P2 P 0.21636(10) 0.7059(3) 0.51479(9)
N1 N 0.1734(3) 0.4494(7) 0.5306(3)
N3 N 0.3341(3) 0.0212(7) 0.5533(3)
N5 N 0.1909(3) 0.0755(7) 0.4149(3)
O1 O 0.2420(2) 0.2607(6) 0.6037(2)
O2 O 0.2093(3) 0.0565(6) 0.5336(2)
O3 O 0.1454(3) 0.1302(6) 0.5944(3)
O4 O 0.2670(2) 0.6354(6) 0.5627(2)
O5 O 0.2368(2) 0.7870(6) 0.4712(2)
O6 O 0.1788(2) 0.8012(6) 0.5457(3)
O8 O 0.3166(2) 0.0441(6) 0.4335(2)
C1 C 0.1573(4) 0.3082(10) 0.5070(4)
H1 H 0.1734 0.2923 0.4737
H2 H 0.1134 0.2981 0.4942
C2 C 0.1698(4) 0.5576(10) 0.4839(4)
H3 H 0.128 0.5883 0.4681
H4 H 0.1838 0.5166 0.4523
C3 C 0.1384(4) 0.4959(10) 0.5736(4)
H5 H 0.1349 0.4146 0.5978
H6 H 0.1622 0.5679 0.5992
C4 C 0.0766(4) 0.5540(11) 0.5475(4)
H7 H 0.06 0.5806 0.5795
H8 H 0.0814 0.6415 0.5273
C5 C 0.0306(4) 0.4679(10) 0.5067(4)
H9 H 0.0293 0.374 0.5235
H10 H 0.0423 0.4562 0.4706
C11 C 0.3884(4) 0.0612(9) 0.5541(4)
H21 H 0.3936 0.1045 0.5204
C12 C 0.4378(4) 0.0454(9) 0.5990(4)
H22 H 0.4754 0.0774 0.5958
C19 C 0.5599(4) 0.0538(9) 0.8349(4)
H27 H 0.5362 0.1352 0.8334
C20 C 0.6162(4) 0.0470(9) 0.8693(4)
H28 H 0.6304 0.1263 0.8926
H29 H 0.5125 0.05 0.7019
H31 H 0.4529 0.016 0.7686
C23 C 0.1936(4) 0.1407(9) 0.3657(4)
H33 H 0.2318 0.1667 0.3621
C24 C 0.1450(4) 0.1715(11) 0.3209(4)
H34 H 0.1502 0.2076 0.286
C25 C 0.0877(4) 0.1490(10) 0.3273(4)
C26 C 0.0843(4) 0.0781(11) 0.3771(4)
H35 H 0.0462 0.0558 0.382
C27 C 0.1347(4) 0.0400(10) 0.4191(4)
H41 H 0.0136 0.011 0.2342
C34 C 0.0309(4) 0.1933(11) 0.2826(4)
H43 H 0.0412 0.2431 0.2507
H44 H 0.0075 0.2573 0.3001
N9 N 0.6659(3) 0.5212(7) 0.9467(3)
N11 N 0.3465(3) 0.4402(7) 0.6263(3)
O29 O 0.2865(2) 0.3296(6) 0.4998(2)
C45 C 0.6116(4) 0.5612(9) 0.9459(4)
H65 H 0.6064 0.6045 0.9796
C46 C 0.5622(4) 0.5454(9) 0.9010(4)
H66 H 0.5246 0.5774 0.9042
C47 C 0.5663(4) 0.4837(10) 0.8509(4)
C48 C 0.6247(4) 0.4392(10) 0.8507(4)
H67 H 0.631 0.396 0.8174
C49 C 0.6717(4) 0.4584(10) 0.8981(4)
H68 H 0.7101 0.4266 0.8971
C50 C 0.3678(4) 0.3251(10) 0.6581(4)
H69 H 0.3435 0.2445 0.656
C51 C 0.4260(4) 0.3264(10) 0.6942(4)
H70 H 0.4404 0.2458 0.7165
C52 C 0.4619(4) 0.4361(9) 0.6984(4)
C53 C 0.4401(4) 0.5538(9) 0.6651(4)
H71 H 0.4638 0.6352 0.6666
C54 C 0.3838(4) 0.5470(9) 0.6307(4)
H72 H 0.3696 0.6263 0.6074
C55 C 0.5125(4) 0.4654(10) 0.8007(4)
H73 H 0.4875 0.55 0.7981
H74 H 0.4892 0.3858 0.8093
C56 C 0.5226(4) 0.4399(10) 0.7411(4)
H75 H 0.5471 0.516 0.7314
H76 H 0.5437 0.3502 0.7407
Cu3 Cu 0.27396(5) 0.64638(14) 0.37970(5)
P3 P 0.33838(10) 0.9185(2) 0.40345(9)
P4 P 0.31044(9) 0.3970(2) 0.45502(9)
N2 N 0.3595(3) 0.6482(8) 0.4388(3)
N4 N 0.6535(3) 0.9402(7) 0.8737(3)
O7 O 0.2847(2) 0.8377(6) 0.3633(2)
O9 O 0.3846(3) 0.9612(6) 0.3750(3)
O10 O 0.2634(2) 0.4572(6) 0.4032(2)
O11 O 0.3534(3) 0.2936(6) 0.4340(2)
O13 O 0.3021(3) 0.5871(8) 0.2940(3)
C6 C 0.3674(4) 0.7921(8) 0.4614(4)
H11 H 0.4103 0.8103 0.4791
H12 H 0.3461 0.8031 0.4913
C7 C 0.3555(4) 0.5468(9) 0.4844(4)
H13 H 0.338 0.5941 0.5124
H14 H 0.3961 0.5152 0.5051
C8 C 0.4061(3) 0.6090(8) 0.4082(3)
H15 H 0.3966 0.6585 0.3709
H16 H 0.4027 0.5076 0.3999
C9 C 0.4708(4) 0.6410(10) 0.4404(4)
H17 H 0.4958 0.6111 0.4153
H18 H 0.4745 0.7439 0.4439
C10 C 0.4987(4) 0.5802(9) 0.4996(4)
H19 H 0.4754 0.6118 0.526
H20 H 0.5397 0.6174 0.5142
C13 C 0.4337(4) 0.9837(10) 0.6491(4)
C14 C 0.3753(4) 0.9392(10) 0.6493(4)
H23 H 0.369 0.896 0.6826
C15 C 0.3283(4) 0.9584(10) 0.6019(4)
H24 H 0.2899 0.9266 0.6029
C16 C 0.6322(4) 0.8251(10) 0.8419(4)
H25 H 0.6565 0.7445 0.844
C17 C 0.5740(4) 0.8264(10) 0.8058(4)
H26 H 0.5596 0.7458 0.7835
C18 C 0.5381(4) 0.9361(9) 0.8016(4)
C21 C 0.4875(4) 0.9654(10) 0.6993(4)
H30 H 0.5108 0.8858 0.6907
C22 C 0.4774(4) 0.9399(10) 0.7589(4)
H32 H 0.4563 0.8502 0.7593
H36 H 0.1308 0.9885 0.4514
Cu11 Cu 0.73809(5) 0.93648(13) 0.92458(5)
Cu13 Cu 0.73809(5) 0.56352(13) 0.42458(5)
Cu14 Cu 0.72604(5) 0.35362(14) 0.62030(5)
P7 P 0.66162(10) 0.0815(2) 0.59655(9)
P8 P 0.68956(9) 0.6030(2) 0.54498(9)
N8 N 0.6405(3) 0.3518(8) 0.5612(3)
N15 N 0.1893(3) 0.6401(8) 0.3342(3)
N16 N 0.8107(3) 0.3599(8) 0.6658(3)
O22 O 0.7153(2) 0.1623(6) 0.6367(2)
O25 O 0.6154(3) 0.0388(6) 0.6250(3)
O26 O 0.7366(2) 0.5428(6) 0.5968(2)
O27 O 0.6466(3) 0.7064(6) 0.5660(2)
O28 O 0.7135(2) 0.6704(6) 0.5002(2)
O31 O 0.6979(3) 0.4129(8) 0.7060(3)
C40 C 0.6326(4) 0.2079(8) 0.5386(4)
H55 H 0.5897 0.1897 0.5209
H56 H 0.6539 0.1969 0.5087
C41 C 0.6445(4) 0.4532(9) 0.5156(4)
H57 H 0.662 0.4059 0.4876
H58 H 0.6039 0.4848 0.4949
C42 C 0.5939(3) 0.3910(8) 0.5918(3)
H59 H 0.6034 0.3415 0.6291
H60 H 0.5973 0.4924 0.6001
C43 C 0.5292(4) 0.3590(10) 0.5596(4)
H61 H 0.5042 0.3889 0.5847
H62 H 0.5255 0.2561 0.5561
C44 C 0.5013(4) 0.4198(9) 0.5004(4)
H63 H 0.5246 0.3882 0.474
H64 H 0.4603 0.3826 0.4858
C62 C 0.1474(5) 0.7311(11) 0.3385(4)
H81 H 0.1582 0.812 0.3618
C63 C 0.0875(4) 0.7084(11) 0.3093(5)
H82 H 0.0582 0.7722 0.3145
C64 C 0.0702(4) 0.5976(11) 0.2736(4)
C65 C 0.1141(4) 0.5088(10) 0.2691(4)
H83 H 0.1045 0.4313 0.2437
C66 C 0.1711(4) 0.5281(10) 0.2999(4)
H84 H 0.1999 0.4598 0.2974
C67 C 0.0058(4) 0.5625(11) 0.2403(4)
H86 H 0.0064 0.5007 0.2076
Cu7 Cu 0.73774(5) 0.95725(13) 0.51721(5)
O23 O 0.6834(2) 0.9559(6) 0.5665(2)
O20 O 0.7632(2) 0.2130(6) 0.5288(2)
N6 N 0.8107(3) 0.1401(8) 0.1658(3)
C28 C 0.8526(5) 0.2311(11) 0.1615(4)
H37 H 0.8418 0.312 0.1382
C29 C 0.9125(4) 0.2084(11) 0.1907(5)
H38 H 0.9418 0.2722 0.1855
C30 C 0.9298(4) 0.0976(11) 0.2264(4)
C31 C 0.8859(4) 0.0088(10) 0.2309(4)
C32 C 0.8289(4) 0.0281(10) 0.2001(4)
C33 C 0.9942(4) 0.0625(11) 0.2597(4)
H42 H 0.9936 0.0007 0.2924
Cu15 Cu 0.72604(5) 0.14638(14) 0.12030(5)
P5 P 0.81077(10) 0.8193(3) 0.43598(10)
P6 P 0.78364(10) 0.2941(3) 0.48521(9)
N7 N 0.8266(3) 0.5506(7) 0.4694(3)
N10 N 0.6659(3) 0.9788(7) 0.4467(3)
N12 N 0.6535(3) 0.5598(7) 0.3737(3)
N14 N 0.8091(3) 0.9245(7) 0.5851(3)
O14 O 0.7580(2) 0.7393(6) 0.3963(2)
O15 O 0.7907(3) 0.9435(6) 0.4664(2)
O16 O 0.8546(3) 0.8698(6) 0.4056(3)
O17 O 0.7330(2) 0.3646(6) 0.4373(2)
O21 O 0.8212(2) 0.1988(6) 0.4543(3)
C35 C 0.8427(4) 0.6918(10) 0.4930(4)
H45 H 0.8266 0.7077 0.5263
H46 H 0.8866 0.7019 0.5058
C36 C 0.8302(4) 0.4424(10) 0.5161(4)
H47 H 0.872 0.4117 0.5319
H48 H 0.8162 0.4834 0.5477
C37 C 0.8616(4) 0.5041(10) 0.4264(4)
H49 H 0.8651 0.5854 0.4022
H50 H 0.8378 0.4321 0.4008
C38 C 0.9234(4) 0.4460(11) 0.4525(4)
H51 H 0.94 0.4194 0.4205
H52 H 0.9186 0.3585 0.4727
C39 C 0.9694(4) 0.5321(10) 0.4933(4)
H53 H 0.9707 0.626 0.4765
H54 H 0.9577 0.5438 0.5294
H39 H 0.8955 0.9313 0.2563
H40 H 0.8001 0.9598 0.2026
N13 N 0.8091(3) 0.5755(7) 0.0851(3)
C57 C 0.8064(4) 0.6407(9) 0.1343(4)
H77 H 0.7682 0.6667 0.1379
C58 C 0.8550(4) 0.6715(11) 0.1791(4)
H78 H 0.8498 0.7076 0.214
C59 C 0.9123(4) 0.6490(10) 0.1727(4)
C60 C 0.9157(4) 0.5781(11) 0.1229(4)
H79 H 0.9538 0.5558 0.118
C61 C 0.8653(4) 0.5400(10) 0.0809(4)
H80 H 0.8692 0.4885 0.0486
H85 H 0.9864 0.511 0.2658
C68 C 0.9691(4) 0.6933(11) 0.2174(4)
H87 H 0.9588 0.7431 0.2493
H88 H 0.9925 0.7573 0.1999
Cu10 Cu 0.26191(5) 0.06352(13) 0.07542(5)
P5_2 P 0.18923(10) 0.3193(3) 0.06402(10)
N7_2 N 0.1734(3) 0.0506(7) 0.0306(3)
N10_2 N 0.3341(3) 0.4788(7) 0.0533(3)
N12_2 N 0.3465(3) 0.0598(7) 0.1263(3)
O14_2 O 0.2420(2) 0.2393(6) 0.1037(2)
O15_2 O 0.2093(3) 0.4435(6) 0.0336(2)
O16_2 O 0.1454(3) 0.3698(6) 0.0944(3)
C35_2 C 0.1573(4) 0.1918(10) 0.0070(4)
C37_2 C 0.1384(4) 0.0041(10) 0.0736(4)
H49_2 H 0.1349 0.0854 0.0978
C39_2 C 0.0306(4) 0.0321(10) 0.0067(4)
H53_2 H 0.0293 0.126 0.0235
Cu4 Cu 0.26226(5) 0.45725(13) 0.98279(5)
N14_2 N 0.1909(3) 0.4245(7) 0.9149(3)
O20_2 O 0.2368(2) 0.7130(6) 0.9712(2)
O24 O 0.3166(2) 0.4559(6) 0.9335(2)
O30 O 0.2865(2) 0.1704(6) 0.9998(2)
H45_2 H 0.1734 0.2077 0.9737
H46_2 H 0.1134 0.2019 0.9942
H54_2 H 0.0423 0.0438 0.9706
P6_2 P 0.21636(10) 0.7941(3) 0.01479(9)
O17_2 O 0.2670(2) 0.8646(6) 0.0627(2)
O21_2 O 0.1788(2) 0.6988(6) 0.0457(3)
H50_2 H 0.1622 0.9321 0.0992
C38_2 C 0.0766(4) 0.9460(11) 0.0475(4)
H51_2 H 0.06 0.9194 0.0795
H52_2 H 0.0814 0.8585 0.0273
C36_2 C 0.1698(4) 0.9424(10) 0.9839(4)
H47_2 H 0.128 0.9117 0.9681
H48_2 H 0.1838 0.9834 0.9523
O5_2 O 0.7632(2) 0.2870(6) 0.0288(2)
C2_2 C 0.8302(4) 0.0576(10) 0.0161(4)
H3_2 H 0.872 0.0883 0.0319
H4_2 H 0.8162 0.0166 0.0477
P2_2 P 0.78364(10) 0.2059(3) 0.98521(9)
O4_2 O 0.7330(2) 0.1354(6) 0.9373(2)
O6_2 O 0.8212(2) 0.3012(6) 0.9543(3)
H6_2 H 0.8378 0.0679 0.9008
C4_2 C 0.9234(4) 0.0540(11) 0.9525(4)
H7_2 H 0.94 0.0806 0.9205
H8_2 H 0.9186 0.1415 0.9727
P3_2 P 0.66162(10) 0.4185(2) 0.09655(9)
N2_2 N 0.6405(3) 0.1482(8) 0.0612(3)
O7_2 O 0.7153(2) 0.3377(6) 0.1367(2)
O8_2 O 0.6834(2) 0.5441(6) 0.0665(2)
O9_2 O 0.6154(3) 0.4612(6) 0.1250(3)
O13_2 O 0.6979(3) 0.0871(8) 0.2060(3)
H1_2 H 0.8266 0.7923 0.0263
H2_2 H 0.8866 0.7981 0.0058
H10_2 H 0.9577 0.9562 0.0294
C6_2 C 0.6326(4) 0.2921(8) 0.0386(4)
H11_2 H 0.5897 0.3103 0.0209
H12_2 H 0.6539 0.3031 0.0087
C7_2 C 0.6445(4) 0.0468(9) 0.0156(4)
C8_2 C 0.5939(3) 0.1090(8) 0.0918(3)
H15_2 H 0.6034 0.1585 0.1291
H16_2 H 0.5973 0.0076 0.1001
C9_2 C 0.5292(4) 0.1410(10) 0.0596(4)
H17_2 H 0.5042 0.1111 0.0847
H18_2 H 0.5255 0.2439 0.0561
C10_2 C 0.5013(4) 0.0802(9) 0.0004(4)
O29_2 O 0.7135(2) 0.8296(6) 0.0002(2)
H90 H 0.734142 0.0818364 0.238928
P1_2 P 0.81077(10) 0.6807(3) 0.93598(10)
N1_2 N 0.8266(3) 0.9494(7) 0.9694(3)
O1_2 O 0.7580(2) 0.7607(6) 0.8963(2)
O2_2 O 0.7907(3) 0.5565(6) 0.9664(2)
O3_2 O 0.8546(3) 0.6302(6) 0.9056(3)
C1_2 C 0.8427(4) 0.8082(10) 0.9930(4)
C3_2 C 0.8616(4) 0.9959(10) 0.9264(4)
H5_2 H 0.8651 0.9146 0.9022
C5_2 C 0.9694(4) 0.9679(10) 0.9933(4)
H9_2 H 0.9707 0.874 0.9765
H13_2 H 0.662 0.0941 0.9876
H14_2 H 0.6039 0.0152 0.9949
H19_2 H 0.5246 0.1118 0.974
H20_2 H 0.4603 0.1174 0.9858
P8_2 P 0.31044(9) 0.1030(2) 0.95502(9)
O26_2 O 0.2634(2) 0.0428(6) 0.9032(2)
O27_2 O 0.3534(3) 0.2064(6) 0.9340(2)
P4_2 P 0.68956(9) 0.8970(2) 0.04498(9)
O10_2 O 0.7366(2) 0.9572(6) 0.0968(2)
O11_2 O 0.6466(3) 0.7936(6) 0.0660(2)
H57_2 H 0.338 0.9059 0.0124
H58_2 H 0.3961 0.9848 0.0051
H63_2 H 0.4754 0.8882 0.026
H64_2 H 0.5397 0.8826 0.0142
H89 H 0.677331 0.995206 0.200767
Cu14_2 Cu 0.27396(5) 0.85362(14) 0.87970(5)
P7_2 P 0.33838(10) 0.5815(2) 0.90345(9)
N8_2 N 0.3595(3) 0.8518(8) 0.9388(3)
N16_2 N 0.1893(3) 0.8599(8) 0.8342(3)
O22_2 O 0.2847(2) 0.6623(6) 0.8633(2)
O25_2 O 0.3846(3) 0.5388(6) 0.8750(3)
O31_2 O 0.3021(3) 0.9129(8) 0.7940(3)
C40_2 C 0.3674(4) 0.7079(8) 0.9614(4)
H55_2 H 0.4103 0.6897 0.9791
H56_2 H 0.3461 0.6969 0.9913
C41_2 C 0.3555(4) 0.9532(9) 0.9844(4)
C42_2 C 0.4061(3) 0.8910(8) 0.9082(3)
H59_2 H 0.3966 0.8415 0.8709
H60_2 H 0.4027 0.9924 0.8999
C43_2 C 0.4708(4) 0.8590(10) 0.9404(4)
H61_2 H 0.4958 0.8889 0.9153
H62_2 H 0.4745 0.7561 0.9439
C44_2 C 0.4987(4) 0.9198(9) 0.9996(4)
H91 H 0.329385 0.840204 0.786332
H92 H 0.265858 0.918164 0.761072
H39_2 H 0.1045 0.0687 0.7437
H40_2 H 0.1999 0.0402 0.7974
C57_2 C 0.1936(4) 0.3593(9) 0.8657(4)
H77_2 H 0.2318 0.3333 0.8621
C58_2 C 0.1450(4) 0.3285(11) 0.8209(4)
H78_2 H 0.1502 0.2924 0.786
C59_2 C 0.0877(4) 0.3510(10) 0.8273(4)
C60_2 C 0.0843(4) 0.4219(11) 0.8771(4)
H79_2 H 0.0462 0.4442 0.882
C61_2 C 0.1347(4) 0.4600(10) 0.9191(4)
H80_2 H 0.1308 0.5115 0.9514
H85_2 H 0.0136 0.489 0.7342
C68_2 C 0.0309(4) 0.3067(11) 0.7826(4)
H87_2 H 0.0412 0.2569 0.7507
H88_2 H 0.0075 0.2427 0.8001
C28_2 C 0.1474(5) 0.7689(11) 0.8385(4)
H37_2 H 0.1582 0.688 0.8618
C29_2 C 0.0875(4) 0.7916(11) 0.8093(5)
H38_2 H 0.0582 0.7278 0.8145
C30_2 C 0.0702(4) 0.9024(11) 0.7736(4)
C31_2 C 0.1141(4) 0.9912(10) 0.7691(4)
C32_2 C 0.1711(4) 0.9719(10) 0.7999(4)
C33_2 C 0.0058(4) 0.9375(11) 0.7403(4)
H42_2 H 0.0064 0.9993 0.7076
C13_2 C 0.5663(4) 0.0163(10) 0.3509(4)
C14_2 C 0.6247(4) 0.0608(10) 0.3507(4)
H23_2 H 0.631 0.104 0.3174
C15_2 C 0.6717(4) 0.0416(10) 0.3981(4)
H24_2 H 0.7101 0.0734 0.3971
C16_2 C 0.3678(4) 0.1749(10) 0.1581(4)
H25_2 H 0.3435 0.2555 0.156
C17_2 C 0.4260(4) 0.1736(10) 0.1942(4)
H26_2 H 0.4404 0.2542 0.2165
C18_2 C 0.4619(4) 0.0639(9) 0.1984(4)
C21_2 C 0.5125(4) 0.0346(10) 0.3007(4)
H30_2 H 0.4892 0.1142 0.3093
C22_2 C 0.5226(4) 0.0601(10) 0.2411(4)
H32_2 H 0.5437 0.1498 0.2407
H36_2 H 0.8692 0.0115 0.5486
C62_2 C 0.8526(5) 0.2689(11) 0.6615(4)
H81_2 H 0.8418 0.188 0.6382
C63_2 C 0.9125(4) 0.2916(11) 0.6907(5)
H82_2 H 0.9418 0.2278 0.6855
C64_2 C 0.9298(4) 0.4024(11) 0.7264(4)
C65_2 C 0.8859(4) 0.4912(10) 0.7309(4)
H83_2 H 0.8955 0.5687 0.7563
C66_2 C 0.8289(4) 0.4719(10) 0.7001(4)
H84_2 H 0.8001 0.5402 0.7026
C67_2 C 0.9942(4) 0.4375(11) 0.7597(4)
H86_2 H 0.9936 0.4993 0.7924
C11_2 C 0.6116(4) 0.9388(9) 0.4459(4)
H21_2 H 0.6064 0.8955 0.4796
C12_2 C 0.5622(4) 0.9546(9) 0.4010(4)
H22_2 H 0.5246 0.9226 0.4042
C19_2 C 0.4401(4) 0.9462(9) 0.1651(4)
H27_2 H 0.4638 0.8648 0.1666
C20_2 C 0.3838(4) 0.9530(9) 0.1307(4)
H28_2 H 0.3696 0.8737 0.1074
H29_2 H 0.4875 0.95 0.2981
H31_2 H 0.5471 0.984 0.2314
C23_2 C 0.8064(4) 0.8593(9) 0.6343(4)
H33_2 H 0.7682 0.8333 0.6379
C24_2 C 0.8550(4) 0.8285(11) 0.6791(4)
H34_2 H 0.8498 0.7924 0.714
C25_2 C 0.9123(4) 0.8510(10) 0.6727(4)
C26_2 C 0.9157(4) 0.9219(11) 0.6229(4)
H35_2 H 0.9538 0.9442 0.618
C27_2 C 0.8653(4) 0.9600(10) 0.5809(4)
H41_2 H 0.9864 0.989 0.7658
C34_2 C 0.9691(4) 0.8067(11) 0.7174(4)
H43_2 H 0.9588 0.7569 0.7493
H44_2 H 0.9925 0.7427 0.6999
C45_2 C 0.3884(4) 0.4388(9) 0.0541(4)
H65_2 H 0.3936 0.3955 0.0204
C46_2 C 0.4378(4) 0.4546(9) 0.0990(4)
H66_2 H 0.4754 0.4226 0.0958
C47_2 C 0.4337(4) 0.5163(10) 0.1491(4)
C48_2 C 0.3753(4) 0.5608(10) 0.1493(4)
H67_2 H 0.369 0.604 0.1826
C49_2 C 0.3283(4) 0.5416(10) 0.1019(4)
H68_2 H 0.2899 0.5734 0.1029
C50_2 C 0.6322(4) 0.6749(10) 0.3419(4)
H69_2 H 0.6565 0.7555 0.344
C51_2 C 0.5740(4) 0.6736(10) 0.3058(4)
H70_2 H 0.5596 0.7542 0.2835
C52_2 C 0.5381(4) 0.5639(9) 0.3016(4)
C53_2 C 0.5599(4) 0.4462(9) 0.3349(4)
H71_2 H 0.5362 0.3648 0.3334
C54_2 C 0.6162(4) 0.4530(9) 0.3693(4)
H72_2 H 0.6304 0.3737 0.3926
C55_2 C 0.4875(4) 0.5346(10) 0.1993(4)
H73_2 H 0.5125 0.45 0.2019
H74_2 H 0.5108 0.6142 0.1907
C56_2 C 0.4774(4) 0.5601(10) 0.2589(4)
H75_2 H 0.4529 0.484 0.2686
H76_2 H 0.4563 0.6498 0.2593
H91_2 H 0.670615 0.159796 0.213668
H89_2 H 0.322669 0.00479406 0.799233
loop_
_geom_bond_atom_site_label_1
_geom_bond_atom_site_label_2
_geom_bond_site_symmetry_1
_geom_bond_site_symmetry_2
Cu5 N3 1_555 1_555
Cu2 N1 1_555 1_555
P1 O1 1_555 1_555
P2 O4 1_555 1_555
N1 C1 1_555 1_555
N3 C11 1_555 1_555
N5 Cu5 1_555 1_555
O1 Cu2 1_555 1_555
O2 Cu5 1_555 1_555
O3 P1 1_555 1_555
O4 Cu2 1_555 1_555
O5 P2 1_555 1_555
O6 P2 1_555 1_555
O8 Cu5 1_555 1_555
C1 P1 1_555 1_555
H1 C1 1_555 1_555
H2 C1 1_555 1_555
C2 P2 1_555 1_555
H3 C2 1_555 1_555
H4 C2 1_555 1_555
C3 N1 1_555 1_555
H5 C3 1_555 1_555
H6 C3 1_555 1_555
C4 C3 1_555 1_555
H7 C4 1_555 1_555
H8 C4 1_555 1_555
C5 C4 1_555 1_555
H9 C5 1_555 1_555
H10 C5 1_555 1_555
C11 H21 1_555 1_555
C12 C11 1_555 1_555
H22 C12 1_555 1_555
H27 C19 1_555 1_555
H28 C20 1_555 1_555
C23 N5 1_555 1_555
H33 C23 1_555 1_555
C24 C23 1_555 1_555
H34 C24 1_555 1_555
C25 C24 1_555 1_555
C26 C25 1_555 1_555
H35 C26 1_555 1_555
C27 N5 1_555 1_555
C34 C25 1_555 1_555
H43 C34 1_555 1_555
H44 C34 1_555 1_555
N9 C45 1_555 1_555
N11 Cu2 1_555 1_555
O29 Cu2 1_555 1_555
C45 H65 1_555 1_555
C46 C45 1_555 1_555
H66 C46 1_555 1_555
C47 C46 1_555 1_555
C48 C47 1_555 1_555
H67 C48 1_555 1_555
C49 N9 1_555 1_555
H68 C49 1_555 1_555
C50 N11 1_555 1_555
H69 C50 1_555 1_555
C51 C50 1_555 1_555
H70 C51 1_555 1_555
C52 C51 1_555 1_555
C53 C52 1_555 1_555
H71 C53 1_555 1_555
C54 N11 1_555 1_555
H72 C54 1_555 1_555
C55 C47 1_555 1_555
H73 C55 1_555 1_555
H74 C55 1_555 1_555
C56 C52 1_555 1_555
H75 C56 1_555 1_555
H76 C56 1_555 1_555
P1 O2 1_555 1_555
N1 C2 1_555 1_555
C19 C20 1_555 1_555
C26 C27 1_555 1_555
C48 C49 1_555 1_555
C53 C54 1_555 1_555
C55 C56 1_555 1_555
Cu3 N2 1_555 1_555
P3 O7 1_555 1_555
P4 O10 1_555 1_555
N2 C6 1_555 1_555
N4 C16 1_555 1_555
O7 Cu3 1_555 1_555
O9 P3 1_555 1_555
O10 Cu3 1_555 1_555
O11 P4 1_555 1_555
O29 P4 1_555 1_555
O13 Cu3 1_555 1_555
C6 P3 1_555 1_555
H11 C6 1_555 1_555
H12 C6 1_555 1_555
C7 P4 1_555 1_555
H13 C7 1_555 1_555
H14 C7 1_555 1_555
C8 N2 1_555 1_555
H15 C8 1_555 1_555
H16 C8 1_555 1_555
C9 C8 1_555 1_555
H17 C9 1_555 1_555
H18 C9 1_555 1_555
C10 C9 1_555 1_555
H19 C10 1_555 1_555
H20 C10 1_555 1_555
C14 C13 1_555 1_555
H23 C14 1_555 1_555
H24 C15 1_555 1_555
C16 H25 1_555 1_555
C17 C16 1_555 1_555
H26 C17 1_555 1_555
C18 C17 1_555 1_555
C21 C13 1_555 1_555
H30 C21 1_555 1_555
C22 C18 1_555 1_555
H32 C22 1_555 1_555
Cu11 N4 1_555 1_555
Cu13 O28 1_555 1_555
Cu14 N8 1_555 1_555
P7 O22 1_555 1_555
P8 O26 1_555 1_555
N8 C40 1_555 1_555
N15 Cu3 1_555 1_555
N16 Cu14 1_555 1_555
O22 Cu14 1_555 1_555
O25 P7 1_555 1_555
O26 Cu14 1_555 1_555
O27 P8 1_555 1_555
O28 P8 1_555 1_555
O31 Cu14 1_555 1_555
C40 P7 1_555 1_555
H55 C40 1_555 1_555
H56 C40 1_555 1_555
C41 P8 1_555 1_555
H57 C41 1_555 1_555
H58 C41 1_555 1_555
C42 N8 1_555 1_555
H59 C42 1_555 1_555
H60 C42 1_555 1_555
C43 C42 1_555 1_555
H61 C43 1_555 1_555
H62 C43 1_555 1_555
C44 C10 1_555 1_555
H63 C44 1_555 1_555
H64 C44 1_555 1_555
C62 N15 1_555 1_555
H81 C62 1_555 1_555
C63 C62 1_555 1_555
H82 C63 1_555 1_555
C64 C63 1_555 1_555
C65 C64 1_555 1_555
H83 C65 1_555 1_555
C66 N15 1_555 1_555
H84 C66 1_555 1_555
C67 C64 1_555 1_555
H86 C67 1_555 1_555
N2 C7 1_555 1_555
C14 C15 1_555 1_555
C21 C22 1_555 1_555
N8 C41 1_555 1_555
C43 C44 1_555 1_555
C65 C66 1_555 1_555
Cu7 O23 1_555 1_555
N6 C28 1_555 1_555
C28 H37 1_555 1_555
C29 C28 1_555 1_555
H38 C29 1_555 1_555
C30 C29 1_555 1_555
C31 C30 1_555 1_555
C32 N6 1_555 1_555
C33 C30 1_555 1_555
H42 C33 1_555 1_555
Cu7 N10 1_555 1_555
Cu13 N7 1_555 1_555
Cu15 N6 1_555 1_555
P5 O14 1_555 1_555
P6 O17 1_555 1_555
N7 C35 1_555 1_555
N12 Cu13 1_555 1_555
N14 Cu7 1_555 1_555
O14 Cu13 1_555 1_555
O15 Cu7 1_555 1_555
O16 P5 1_555 1_555
O17 Cu13 1_555 1_555
O20 P6 1_555 1_555
O21 P6 1_555 1_555
C35 P5 1_555 1_555
H45 C35 1_555 1_555
H46 C35 1_555 1_555
C36 P6 1_555 1_555
H47 C36 1_555 1_555
H48 C36 1_555 1_555
C37 N7 1_555 1_555
H49 C37 1_555 1_555
H50 C37 1_555 1_555
C38 C37 1_555 1_555
H51 C38 1_555 1_555
H52 C38 1_555 1_555
H53 C39 1_555 1_555
H54 C39 1_555 1_555
C31 C32 1_555 1_555
P5 O15 1_555 1_555
N7 C36 1_555 1_555
C38 C39 1_555 1_555
Cu8 N13 1_555 1_555
N13 C57 1_555 1_555
C57 H77 1_555 1_555
C58 C57 1_555 1_555
H78 C58 1_555 1_555
C59 C58 1_555 1_555
C60 C59 1_555 1_555
H79 C60 1_555 1_555
C61 N13 1_555 1_555
H80 C61 1_555 1_555
C68 C59 1_555 1_555
H87 C68 1_555 1_555
H88 C68 1_555 1_555
C60 C61 1_555 1_555
Cu10 N7_2 1_555 1_555
P5_2 O14_2 1_555 1_555
N7_2 C35_2 1_555 1_555
N12_2 Cu10 1_555 1_555
O14_2 Cu10 1_555 1_555
O16_2 P5_2 1_555 1_555
C35_2 P5_2 1_555 1_555
C37_2 N7_2 1_555 1_555
H49_2 C37_2 1_555 1_555
H53_2 C39_2 1_555 1_555
P5_2 O15_2 1_555 1_555
N14_2 Cu4 1_555 1_555
O20_2 Cu4 1_555 1_555
O24 Cu4 1_555 1_555
P6_2 O17_2 1_555 1_555
O21_2 P6_2 1_555 1_555
H51_2 C38_2 1_555 1_555
H52_2 C38_2 1_555 1_555
H47_2 C36_2 1_555 1_555
H48_2 C36_2 1_555 1_555
H3_2 C2_2 1_555 1_555
H4_2 C2_2 1_555 1_555
Cu8 O5_2 1_555 1_555
P2_2 O4_2 1_555 1_555
O6_2 P2_2 1_555 1_555
H7_2 C4_2 1_555 1_555
H8_2 C4_2 1_555 1_555
Cu15 N2_2 1_555 1_555
P3_2 O7_2 1_555 1_555
N2_2 C6_2 1_555 1_555
O7_2 Cu15 1_555 1_555
O8_2 Cu8 1_555 1_555
O9_2 P3_2 1_555 1_555
O13_2 Cu15 1_555 1_555
C6_2 P3_2 1_555 1_555
H11_2 C6_2 1_555 1_555
H12_2 C6_2 1_555 1_555
C8_2 N2_2 1_555 1_555
H15_2 C8_2 1_555 1_555
H16_2 C8_2 1_555 1_555
C9_2 C8_2 1_555 1_555
H17_2 C9_2 1_555 1_555
H18_2 C9_2 1_555 1_555
C10_2 C9_2 1_555 1_555
P3_2 O8_2 1_555 1_555
N2_2 C7_2 1_555 1_555
O13_2 H90 1_555 1_555
Cu11 N1_2 1_555 1_555
P1_2 O1_2 1_555 1_555
N1_2 C1_2 1_555 1_555
O1_2 Cu11 1_555 1_555
O3_2 P1_2 1_555 1_555
C1_2 P1_2 1_555 1_555
C3_2 N1_2 1_555 1_555
H5_2 C3_2 1_555 1_555
H9_2 C5_2 1_555 1_555
P8_2 O26_2 1_555 1_555
O27_2 P8_2 1_555 1_555
O30 P8_2 1_555 1_555
P1_2 O2_2 1_555 1_555
P4_2 O10_2 1_555 1_555
O11_2 P4_2 1_555 1_555
O29_2 P4_2 1_555 1_555
Cu14_2 N8_2 1_555 1_555
P7_2 O22_2 1_555 1_555
N8_2 C40_2 1_555 1_555
N16_2 Cu14_2 1_555 1_555
O22_2 Cu14_2 1_555 1_555
O24 P7_2 1_555 1_555
O25_2 P7_2 1_555 1_555
O31_2 Cu14_2 1_555 1_555
C40_2 P7_2 1_555 1_555
H55_2 C40_2 1_555 1_555
H56_2 C40_2 1_555 1_555
C42_2 N8_2 1_555 1_555
H59_2 C42_2 1_555 1_555
H60_2 C42_2 1_555 1_555
C43_2 C42_2 1_555 1_555
H61_2 C43_2 1_555 1_555
H62_2 C43_2 1_555 1_555
N8_2 C41_2 1_555 1_555
C43_2 C44_2 1_555 1_555
O31_2 H91 1_555 1_555
O31_2 H92 1_555 1_555
N14_2 C57_2 1_555 1_555
C57_2 H77_2 1_555 1_555
C58_2 C57_2 1_555 1_555
H78_2 C58_2 1_555 1_555
C59_2 C58_2 1_555 1_555
C60_2 C59_2 1_555 1_555
H79_2 C60_2 1_555 1_555
C61_2 N14_2 1_555 1_555
H80_2 C61_2 1_555 1_555
C68_2 C59_2 1_555 1_555
H87_2 C68_2 1_555 1_555
H88_2 C68_2 1_555 1_555
C60_2 C61_2 1_555 1_555
N16_2 C28_2 1_555 1_555
C28_2 H37_2 1_555 1_555
C29_2 C28_2 1_555 1_555
H38_2 C29_2 1_555 1_555
C30_2 C29_2 1_555 1_555
C31_2 C30_2 1_555 1_555
C32_2 N16_2 1_555 1_555
C33_2 C30_2 1_555 1_555
H42_2 C33_2 1_555 1_555
C31_2 C32_2 1_555 1_555
N12_2 C16_2 1_555 1_555
C14_2 C13_2 1_555 1_555
H23_2 C14_2 1_555 1_555
H24_2 C15_2 1_555 1_555
C16_2 H25_2 1_555 1_555
C17_2 C16_2 1_555 1_555
H26_2 C17_2 1_555 1_555
C18_2 C17_2 1_555 1_555
C21_2 C13_2 1_555 1_555
H30_2 C21_2 1_555 1_555
C22_2 C18_2 1_555 1_555
H32_2 C22_2 1_555 1_555
C62_2 N16 1_555 1_555
H81_2 C62_2 1_555 1_555
C63_2 C62_2 1_555 1_555
H82_2 C63_2 1_555 1_555
C64_2 C63_2 1_555 1_555
C65_2 C64_2 1_555 1_555
H83_2 C65_2 1_555 1_555
C66_2 N16 1_555 1_555
H84_2 C66_2 1_555 1_555
C67_2 C64_2 1_555 1_555
H86_2 C67_2 1_555 1_555
C14_2 C15_2 1_555 1_555
C21_2 C22_2 1_555 1_555
C65_2 C66_2 1_555 1_555
N10 C11_2 1_555 1_555
C11_2 H21_2 1_555 1_555
C12_2 C11_2 1_555 1_555
H22_2 C12_2 1_555 1_555
H27_2 C19_2 1_555 1_555
H28_2 C20_2 1_555 1_555
C23_2 N14 1_555 1_555
H33_2 C23_2 1_555 1_555
C24_2 C23_2 1_555 1_555
H34_2 C24_2 1_555 1_555
C25_2 C24_2 1_555 1_555
C26_2 C25_2 1_555 1_555
H35_2 C26_2 1_555 1_555
C27_2 N14 1_555 1_555
C34_2 C25_2 1_555 1_555
H43_2 C34_2 1_555 1_555
H44_2 C34_2 1_555 1_555
N10_2 C45_2 1_555 1_555
C45_2 H65_2 1_555 1_555
C46_2 C45_2 1_555 1_555
H66_2 C46_2 1_555 1_555
C47_2 C46_2 1_555 1_555
C48_2 C47_2 1_555 1_555
H67_2 C48_2 1_555 1_555
C49_2 N10_2 1_555 1_555
H68_2 C49_2 1_555 1_555
C50_2 N12 1_555 1_555
H69_2 C50_2 1_555 1_555
C51_2 C50_2 1_555 1_555
H70_2 C51_2 1_555 1_555
C52_2 C51_2 1_555 1_555
C53_2 C52_2 1_555 1_555
H71_2 C53_2 1_555 1_555
C54_2 N12 1_555 1_555
H72_2 C54_2 1_555 1_555
C55_2 C47_2 1_555 1_555
H73_2 C55_2 1_555 1_555
H74_2 C55_2 1_555 1_555
C56_2 C52_2 1_555 1_555
H75_2 C56_2 1_555 1_555
H76_2 C56_2 1_555 1_555
C19_2 C20_2 1_555 1_555
C26_2 C27_2 1_555 1_555
C48_2 C49_2 1_555 1_555
C53_2 C54_2 1_555 1_555
C55_2 C56_2 1_555 1_555
O13_2 H91_2 1_555 1_555

#END
