
###############################################################################
#
# This file contains modified crystal structure data generated from the
# MOF subset of the Cambridge Structural Database (CSD) v543 
# hosted by the Cambridge Crystallographic Data Centre (CCDC).
#
# This work is licensed under the Creative Commons
# Attribution-NonCommercial-ShareAlike 4.0 International License.
# To view a copy of this license, visit
# http://creativecommons.org/licenses/by-nc-sa/4.0/
# or send a letter to
# Creative Commons, PO Box 1866, Mountain View, CA 94042, USA.
#
# CIF created using the CSD Python API on 29 September 2022
# The structure has been converted into the P1 space group
# The structure has a 3D framework
# The original CSD entry NERVIP01 is in the monoclinic crystal system
# The framework has been calculated to contain at least 10.0% void space
# The void calculation uses a probe of radius 1.32A, grid spacing 0.4
#
###############################################################################

data_NERVIP01
_chemical_formula_moiety         '(C96 H72 Co8 N16 O34)n'
_symmetry_cell_setting           triclinic
_symmetry_space_group_name_H-M   'P 1'
_symmetry_Int_Tables_number      1
_space_group_name_Hall           'P 1'
loop_
_symmetry_equiv_pos_site_id
_symmetry_equiv_pos_as_xyz
1 x,y,z
_cell_length_a                   10.743(2)
_cell_length_b                   19.374(4)
_cell_length_c                   13.978(3)
_cell_angle_alpha                90
_cell_angle_beta                 104.42(3)
_cell_angle_gamma                90
_cell_volume                     2817.66
loop_
_atom_site_label
_atom_site_type_symbol
_atom_site_fract_x
_atom_site_fract_y
_atom_site_fract_z
Co1 Co 0.09080(4) 0.11763(2) 0.35889(3)
Co2 Co 0.25450(4) 0.02405(2) 0.20390(3)
O1 O 0.2608(2) 0.11052(13) 0.30203(18)
C2 C 0.3655(3) 0.04366(17) 0.6227(2)
C3 C 0.4924(3) 0.02515(18) 0.6571(2)
H1 H 0.5489 0.0369 0.6190
N4 N 0.1219(3) 0.22727(15) 0.3756(2)
H2 H 0.0083 0.0608 0.5286
C5 C 0.1977(4) 0.32268(18) 0.4820(3)
C10 C 0.1707(3) 0.25367(17) 0.4650(2)
H6 H 0.1875 0.2239 0.5189
C11 C 0.2802(4) 0.0237(2) 0.6773(3)
H7 H 0.1934 0.0345 0.6560
C18 C 0.0955(6) 0.2708(2) 0.3003(3)
H14 H 0.0625 0.2530 0.2373
C19 C 0.1680(7) 0.3672(2) 0.4021(4)
H15 H 0.1841 0.4143 0.4105
C20 C 0.1140(8) 0.3403(3) 0.3101(4)
H16 H 0.0906 0.3691 0.2553
O4 O 0.0564(2) 0.04755(14) 0.14277(19)
C23 C 0.2532(4) 0.3490(2) 0.5850(3)
O6 O 0.2833(3) 0.41166(14) 0.59327(19)
O7 O 0.2620(4) 0.30699(15) 0.6547(2)
C24 C 0.3239(3) 0.08148(18) 0.5269(2)
O8 O 0.2052(2) 0.09604(14) 0.49871(18)
O9 O 0.4056(3) 0.0951(2) 0.4806(2)
H17 H 0.276(7) 0.131(3) 0.257(3)
H18 H 0.301(7) 0.114(4) 0.358(2)
Co7 Co 0.25450(4) 0.47595(2) 0.70390(3)
N5 N 0.4601(3) 0.00861(16) 0.2580(2)
O11 O 0.0621(2) 0.00907(12) 0.35079(19)
O12 O 0.2833(3) 0.08834(14) 0.09327(19)
N1 N 0.5399(3) 0.99139(16) 0.7420(2)
C6 C 0.4572(4) 0.9728(2) 0.7943(3)
H3 H 0.4880 0.9492 0.8534
C12 C 0.3267(4) 0.9875(3) 0.7638(3)
H8 H 0.2712 0.9731 0.8014
Co4 Co 0.74550(4) 0.97595(2) 0.79610(3)
N6 N 0.2452(3) 0.94132(15) 0.1003(2)
O10 O 0.2290(2) 0.95777(13) 0.31121(19)
N2 N 0.9303(3) 0.12402(14) 0.4223(2)
C1 C 0.8644(3) 0.10068(18) 0.0602(3)
C4 C 0.9345(3) 0.08651(16) 0.5027(2)
C7 C 0.8363(3) 0.08316(17) 0.5505(3)
C8 C 0.7253(4) 0.1203(2) 0.5113(4)
H4 H 0.6578 0.1205 0.5420
C13 C 0.7173(5) 0.1571(3) 0.4252(4)
H9 H 0.6422 0.1806 0.3952
C14 C 0.7759(6) 0.1532(3) 0.0526(4)
H10 H 0.7826 0.1852 0.1032
C15 C 0.8215(4) 0.1588(2) 0.3840(3)
H11 H 0.8160 0.1852 0.3275
C21 C 0.8497(3) 0.03540(16) 0.6370(2)
O2 O 0.7710(2) 0.04223(13) 0.68879(19)
C22 C 0.9754(3) 0.09203(17) 0.1490(2)
O5 O 0.9758(2) 0.13101(13) 0.22057(17)
N3 N 0.7548(3) 0.05868(15) 0.8997(2)
C9 C 0.8471(3) 0.05526(18) 0.9831(2)
H5 H 0.9050 0.0188 0.9894
C16 C 0.6781(7) 0.1570(3) 0.9688(5)
H12 H 0.6169 0.1917 0.9625
C17 C 0.6693(6) 0.1098(2) 0.8936(4)
H13 H 0.6022 0.1135 0.8371
O3 O 0.9379(2) 0.99093(12) 0.64921(19)
Co3 Co 0.90920(4) 0.88237(2) 0.64111(3)
N2_2 N 0.0697(3) 0.62402(14) 0.0777(2)
N3_2 N 0.2452(3) 0.55868(15) 0.6003(2)
C1_2 C 0.1356(3) 0.60068(18) 0.4398(3)
C9_2 C 0.1529(3) 0.55526(18) 0.5169(2)
H5_2 H 0.0950 0.5188 0.5106
C13_2 C 0.2827(5) 0.6571(3) 0.0748(4)
H9_2 H 0.3578 0.6806 0.1048
C14_2 C 0.2241(6) 0.6532(3) 0.4474(4)
H10_2 H 0.2174 0.6852 0.3968
C15_2 C 0.1785(4) 0.6588(2) 0.1160(3)
H11_2 H 0.1840 0.6852 0.1725
C16_2 C 0.3219(7) 0.6570(3) 0.5312(5)
H12_2 H 0.3831 0.6917 0.5375
C17_2 C 0.3307(6) 0.6098(2) 0.6064(4)
H13_2 H 0.3978 0.6135 0.6629
C22_2 C 0.0246(3) 0.59203(17) 0.3510(2)
O5_2 O 0.0242(2) 0.63101(13) 0.27943(17)
C4_2 C 0.0655(3) 0.58651(16) 0.9973(2)
C7_2 C 0.1637(3) 0.58316(17) 0.9495(3)
C8_2 C 0.2747(4) 0.6203(2) 0.9887(4)
H4_2 H 0.3422 0.6205 0.9580
C21_2 C 0.1503(3) 0.53540(16) 0.8630(2)
O2_2 O 0.2290(2) 0.54223(13) 0.81121(19)
O3_2 O 0.0621(2) 0.49093(12) 0.85079(19)
Co3_2 Co 0.09080(4) 0.38237(2) 0.85889(3)
Co1_2 Co 0.90920(4) 0.61763(2) 0.14111(3)
Co2_2 Co 0.74550(4) 0.52405(2) 0.29610(3)
O1_2 O 0.7392(2) 0.61052(13) 0.19797(18)
N4_2 N 0.8781(3) 0.72727(15) 0.1244(2)
C5_2 C 0.8023(4) 0.82268(18) 0.0180(3)
C10_2 C 0.8293(3) 0.75367(17) 0.0350(2)
C18_2 C 0.9045(6) 0.7708(2) 0.1997(3)
H14_2 H 0.9375 0.7530 0.2627
C19_2 C 0.8320(7) 0.8672(2) 0.0979(4)
H15_2 H 0.8159 0.9143 0.0895
C20_2 C 0.8860(8) 0.8403(3) 0.1899(4)
H16_2 H 0.9094 0.8691 0.2447
O4_2 O 0.9436(2) 0.54755(14) 0.35723(19)
O8_2 O 0.7948(2) 0.59604(14) 0.00129(18)
O9_2 O 0.5944(3) 0.5951(2) 0.0194(2)
H17_2 H 0.724(7) 0.631(3) 0.243(3)
H18_2 H 0.699(7) 0.614(4) 0.142(2)
N5_2 N 0.5399(3) 0.50861(16) 0.2420(2)
N6_2 N 0.7548(3) 0.44132(15) 0.3997(2)
O10_2 O 0.7710(2) 0.45777(13) 0.18879(19)
O11_2 O 0.9379(2) 0.50907(12) 0.14921(19)
O12_2 O 0.7167(3) 0.58834(14) 0.40673(19)
N1_2 N 0.4601(3) 0.49139(16) 0.7580(2)
C2_2 C 0.6345(3) 0.54366(17) 0.8773(2)
C3_2 C 0.5076(3) 0.52515(18) 0.8429(2)
H1_2 H 0.4511 0.5369 0.8810
H2_2 H 0.9917 0.5608 0.9714
C6_2 C 0.5428(4) 0.4728(2) 0.7057(3)
H3_2 H 0.5120 0.4492 0.6466
H6_2 H 0.8125 0.7239 0.9811
C11_2 C 0.7198(4) 0.5237(2) 0.8227(3)
H7_2 H 0.8066 0.5345 0.8440
C12_2 C 0.6733(4) 0.4875(3) 0.7362(3)
H8_2 H 0.7288 0.4731 0.6986
C23_2 C 0.7468(4) 0.8490(2) 0.9150(3)
O6_2 O 0.7167(3) 0.91166(14) 0.90673(19)
O7_2 O 0.7380(4) 0.80699(15) 0.8453(2)
C24_2 C 0.6761(3) 0.58148(18) 0.9731(2)
C9_3 C 0.1529(3) 0.94474(18) 0.0169(2)
H5_3 H 0.0950 0.9812 0.0106
C16_3 C 0.3219(7) 0.8430(3) 0.0312(5)
H12_3 H 0.3831 0.8083 0.0375
C17_3 C 0.3307(6) 0.8902(2) 0.1064(4)
H13_3 H 0.3978 0.8865 0.1629
N2_3 N 0.0697(3) 0.87598(14) 0.5777(2)
C1_3 C 0.1356(3) 0.89932(18) 0.9398(3)
C4_3 C 0.0655(3) 0.91349(16) 0.4973(2)
C7_3 C 0.1637(3) 0.91684(17) 0.4495(3)
C8_3 C 0.2747(4) 0.8797(2) 0.4887(4)
H4_3 H 0.3422 0.8795 0.4580
C13_3 C 0.2827(5) 0.8429(3) 0.5748(4)
H9_3 H 0.3578 0.8194 0.6048
C14_3 C 0.2241(6) 0.8468(3) 0.9474(4)
H10_3 H 0.2174 0.8148 0.8968
C15_3 C 0.1785(4) 0.8412(2) 0.6160(3)
H11_3 H 0.1840 0.8148 0.6725
C21_3 C 0.1503(3) 0.96460(16) 0.3630(2)
C22_3 C 0.0246(3) 0.90797(17) 0.8510(2)
O5_3 O 0.0242(2) 0.86899(13) 0.77943(17)
C6_3 C 0.5428(4) 0.0272(2) 0.2057(3)
H3_3 H 0.5120 0.0508 0.1466
C12_3 C 0.6733(4) 0.0125(3) 0.2362(3)
H8_3 H 0.7288 0.0269 0.1986
O1_3 O 0.7392(2) 0.88948(13) 0.69797(18)
C2_3 C 0.6345(3) 0.95634(17) 0.3773(2)
C3_3 C 0.5076(3) 0.97485(18) 0.3429(2)
H1_3 H 0.4511 0.9631 0.3810
N4_3 N 0.8781(3) 0.77273(15) 0.6244(2)
H2_3 H 0.9917 0.9392 0.4714
C5_3 C 0.8023(4) 0.67732(18) 0.5180(3)
C10_3 C 0.8293(3) 0.74633(17) 0.5350(2)
H6_3 H 0.8125 0.7761 0.4811
C11_3 C 0.7198(4) 0.9763(2) 0.3227(3)
H7_3 H 0.8066 0.9655 0.3440
C18_3 C 0.9045(6) 0.7292(2) 0.6997(3)
H14_3 H 0.9375 0.7470 0.7627
C19_3 C 0.8320(7) 0.6328(2) 0.5979(4)
H15_3 H 0.8159 0.5857 0.5895
C20_3 C 0.8860(8) 0.6597(3) 0.6899(4)
H16_3 H 0.9094 0.6309 0.7447
O4_3 O 0.9436(2) 0.95245(14) 0.85723(19)
C23_3 C 0.7468(4) 0.6510(2) 0.4150(3)
O7_3 O 0.7380(4) 0.69301(15) 0.3453(2)
C24_3 C 0.6761(3) 0.91852(18) 0.4731(2)
O8_3 O 0.7948(2) 0.90396(14) 0.50129(18)
O9_3 O 0.5944(3) 0.9049(2) 0.5194(2)
H17_3 H 0.724(7) 0.869(3) 0.743(3)
H18_3 H 0.699(7) 0.886(4) 0.642(2)
C2_4 C 0.3655(3) 0.45634(17) 0.1227(2)
C3_4 C 0.4924(3) 0.47485(18) 0.1571(2)
H1_4 H 0.5489 0.4631 0.1190
H2_4 H 0.0083 0.4392 0.0286
C6_4 C 0.4572(4) 0.5272(2) 0.2943(3)
H3_4 H 0.4880 0.5508 0.3534
H6_4 H 0.1875 0.2761 0.0189
C11_4 C 0.2802(4) 0.4763(2) 0.1773(3)
H7_4 H 0.1934 0.4655 0.1560
C12_4 C 0.3267(4) 0.5125(3) 0.2638(3)
H8_4 H 0.2712 0.5269 0.3014
C23_4 C 0.2532(4) 0.1510(2) 0.0850(3)
O7_4 O 0.2620(4) 0.19301(15) 0.1547(2)
C24_4 C 0.3239(3) 0.41852(18) 0.0269(2)
O1_4 O 0.2608(2) 0.38948(13) 0.80203(18)
N4_4 N 0.1219(3) 0.27273(15) 0.8756(2)
C5_4 C 0.1977(4) 0.17732(18) 0.9820(3)
C10_4 C 0.1707(3) 0.24633(17) 0.9650(2)
C18_4 C 0.0955(6) 0.2292(2) 0.8003(3)
H14_4 H 0.0625 0.2470 0.7373
C19_4 C 0.1680(7) 0.1328(2) 0.9021(4)
H15_4 H 0.1841 0.0857 0.9105
C20_4 C 0.1140(8) 0.1597(3) 0.8101(4)
H16_4 H 0.0906 0.1309 0.7553
O4_4 O 0.0564(2) 0.45245(14) 0.64277(19)
O8_4 O 0.2052(2) 0.40396(14) 0.99871(18)
O9_4 O 0.4056(3) 0.4049(2) 0.9806(2)
H17_4 H 0.276(7) 0.369(3) 0.757(3)
H18_4 H 0.301(7) 0.386(4) 0.858(2)
C4_4 C 0.9345(3) 0.41349(16) 0.0027(2)
C7_4 C 0.8363(3) 0.41684(17) 0.0505(3)
C8_4 C 0.7253(4) 0.3797(2) 0.0113(4)
H4_4 H 0.6578 0.3795 0.0420
C21_4 C 0.8497(3) 0.46460(16) 0.1370(2)
N2_4 N 0.9303(3) 0.37598(14) 0.9223(2)
C1_4 C 0.8644(3) 0.39932(18) 0.5602(3)
C9_4 C 0.8471(3) 0.44474(18) 0.4831(2)
H5_4 H 0.9050 0.4812 0.4894
C13_4 C 0.7173(5) 0.3429(3) 0.9252(4)
H9_4 H 0.6422 0.3194 0.8952
C14_4 C 0.7759(6) 0.3468(3) 0.5526(4)
H10_4 H 0.7826 0.3148 0.6032
C15_4 C 0.8215(4) 0.3412(2) 0.8840(3)
H11_4 H 0.8160 0.3148 0.8275
C16_4 C 0.6781(7) 0.3430(3) 0.4688(5)
H12_4 H 0.6169 0.3083 0.4625
C17_4 C 0.6693(6) 0.3902(2) 0.3936(4)
H13_4 H 0.6022 0.3865 0.3371
C22_4 C 0.9754(3) 0.40797(17) 0.6490(2)
O5_4 O 0.9758(2) 0.36899(13) 0.72057(17)
loop_
_geom_bond_atom_site_label_1
_geom_bond_atom_site_label_2
_geom_bond_site_symmetry_1
_geom_bond_site_symmetry_2
Co1 O1 1_555 1_555
Co2 O1 1_555 1_555
O1 H17 1_555 1_555
C2 C3 1_555 1_555
C3 H1 1_555 1_555
N4 Co1 1_555 1_555
C5 C10 1_555 1_555
C10 N4 1_555 1_555
H6 C10 1_555 1_555
C11 C2 1_555 1_555
H7 C11 1_555 1_555
C18 N4 1_555 1_555
H14 C18 1_555 1_555
C19 C5 1_555 1_555
H15 C19 1_555 1_555
C20 C18 1_555 1_555
H16 C20 1_555 1_555
O4 Co2 1_555 1_555
C23 C5 1_555 1_555
O6 C23 1_555 1_555
O7 C23 1_555 1_555
C24 C2 1_555 1_555
O8 Co1 1_555 1_555
O9 C24 1_555 1_555
H18 O1 1_555 1_555
Co7 O6 1_555 1_555
N5 Co2 1_555 1_555
O11 Co1 1_555 1_555
O12 Co2 1_555 1_555
C19 C20 1_555 1_555
C24 O8 1_555 1_555
C6 N1 1_555 1_555
H3 C6 1_555 1_555
C12 C6 1_555 1_555
H8 C12 1_555 1_555
Co4 N1 1_555 1_555
C4 N2 1_555 1_555
C7 C4 1_555 1_555
C8 C7 1_555 1_555
H4 C8 1_555 1_555
C13 C8 1_555 1_555
H9 C13 1_555 1_555
C14 C1 1_555 1_555
H10 C14 1_555 1_555
C15 N2 1_555 1_555
H11 C15 1_555 1_555
C21 C7 1_555 1_555
O2 C21 1_555 1_555
C22 C1 1_555 1_555
C13 C15 1_555 1_555
C22 O5 1_555 1_555
N3 C9 1_555 1_555
C9 H5 1_555 1_555
H12 C16 1_555 1_555
C17 N3 1_555 1_555
H13 C17 1_555 1_555
C16 C17 1_555 1_555
Co3 O3 1_555 1_555
N3_2 C9_2 1_555 1_555
C1_2 C9_2 1_555 1_555
C9_2 H5_2 1_555 1_555
H9_2 C13_2 1_555 1_555
C14_2 C1_2 1_555 1_555
H10_2 C14_2 1_555 1_555
C15_2 N2_2 1_555 1_555
H11_2 C15_2 1_555 1_555
C16_2 C14_2 1_555 1_555
H12_2 C16_2 1_555 1_555
C17_2 N3_2 1_555 1_555
H13_2 C17_2 1_555 1_555
C22_2 C1_2 1_555 1_555
Co7 N3_2 1_555 1_555
C13_2 C15_2 1_555 1_555
C16_2 C17_2 1_555 1_555
C22_2 O5_2 1_555 1_555
C7_2 C4_2 1_555 1_555
C8_2 C7_2 1_555 1_555
H4_2 C8_2 1_555 1_555
C21_2 C7_2 1_555 1_555
O2_2 C21_2 1_555 1_555
O3_2 C21_2 1_555 1_555
Co3_2 O3_2 1_555 1_555
Co7 O2_2 1_555 1_555
Co1_2 O1_2 1_555 1_555
Co2_2 O1_2 1_555 1_555
O1_2 H17_2 1_555 1_555
N4_2 Co1_2 1_555 1_555
C5_2 C10_2 1_555 1_555
C10_2 N4_2 1_555 1_555
C18_2 N4_2 1_555 1_555
H14_2 C18_2 1_555 1_555
C19_2 C5_2 1_555 1_555
H15_2 C19_2 1_555 1_555
C20_2 C18_2 1_555 1_555
H16_2 C20_2 1_555 1_555
O4_2 Co2_2 1_555 1_555
O8_2 Co1_2 1_555 1_555
H18_2 O1_2 1_555 1_555
N5_2 Co2_2 1_555 1_555
N6_2 Co2_2 1_555 1_555
O10_2 Co2_2 1_555 1_555
O11_2 Co1_2 1_555 1_555
O12_2 Co2_2 1_555 1_555
C19_2 C20_2 1_555 1_555
N1_2 C3_2 1_555 1_555
C2_2 C3_2 1_555 1_555
C3_2 H1_2 1_555 1_555
C6_2 N1_2 1_555 1_555
H3_2 C6_2 1_555 1_555
C11_2 C2_2 1_555 1_555
H7_2 C11_2 1_555 1_555
C12_2 C6_2 1_555 1_555
H8_2 C12_2 1_555 1_555
O6_2 C23_2 1_555 1_555
O7_2 C23_2 1_555 1_555
C24_2 C2_2 1_555 1_555
Co7 N1_2 1_555 1_555
Co4 O6_2 1_555 1_555
C11_2 C12_2 1_555 1_555
N6 C9_3 1_555 1_555
C9_3 H5_3 1_555 1_555
H12_3 C16_3 1_555 1_555
C17_3 N6 1_555 1_555
H13_3 C17_3 1_555 1_555
C16_3 C17_3 1_555 1_555
C4_3 N2_3 1_555 1_555
C7_3 C4_3 1_555 1_555
C8_3 C7_3 1_555 1_555
H4_3 C8_3 1_555 1_555
C13_3 C8_3 1_555 1_555
H9_3 C13_3 1_555 1_555
C14_3 C1_3 1_555 1_555
H10_3 C14_3 1_555 1_555
C15_3 N2_3 1_555 1_555
H11_3 C15_3 1_555 1_555
C21_3 C7_3 1_555 1_555
O10 C21_3 1_555 1_555
C22_3 C1_3 1_555 1_555
C13_3 C15_3 1_555 1_555
C22_3 O5_3 1_555 1_555
C6_3 N5 1_555 1_555
H3_3 C6_3 1_555 1_555
C12_3 C6_3 1_555 1_555
H8_3 C12_3 1_555 1_555
Co3 O1_3 1_555 1_555
Co4 O1_3 1_555 1_555
O1_3 H17_3 1_555 1_555
C2_3 C3_3 1_555 1_555
C3_3 H1_3 1_555 1_555
N4_3 Co3 1_555 1_555
C5_3 C10_3 1_555 1_555
C10_3 N4_3 1_555 1_555
H6_3 C10_3 1_555 1_555
C11_3 C2_3 1_555 1_555
H7_3 C11_3 1_555 1_555
C18_3 N4_3 1_555 1_555
H14_3 C18_3 1_555 1_555
C19_3 C5_3 1_555 1_555
H15_3 C19_3 1_555 1_555
C20_3 C18_3 1_555 1_555
H16_3 C20_3 1_555 1_555
O4_3 Co4 1_555 1_555
C23_3 C5_3 1_555 1_555
O12_2 C23_3 1_555 1_555
O7_3 C23_3 1_555 1_555
C24_3 C2_3 1_555 1_555
O8_3 Co3 1_555 1_555
O9_3 C24_3 1_555 1_555
H18_3 O1_3 1_555 1_555
C19_3 C20_3 1_555 1_555
C24_3 O8_3 1_555 1_555
N5_2 C3_4 1_555 1_555
C2_4 C3_4 1_555 1_555
C3_4 H1_4 1_555 1_555
C6_4 N5_2 1_555 1_555
H3_4 C6_4 1_555 1_555
C11_4 C2_4 1_555 1_555
H7_4 C11_4 1_555 1_555
C12_4 C6_4 1_555 1_555
H8_4 C12_4 1_555 1_555
O12 C23_4 1_555 1_555
O7_4 C23_4 1_555 1_555
C24_4 C2_4 1_555 1_555
C11_4 C12_4 1_555 1_555
Co3_2 O1_4 1_555 1_555
Co7 O1_4 1_555 1_555
O1_4 H17_4 1_555 1_555
N4_4 Co3_2 1_555 1_555
C5_4 C10_4 1_555 1_555
C10_4 N4_4 1_555 1_555
C18_4 N4_4 1_555 1_555
H14_4 C18_4 1_555 1_555
C19_4 C5_4 1_555 1_555
H15_4 C19_4 1_555 1_555
C20_4 C18_4 1_555 1_555
H16_4 C20_4 1_555 1_555
O4_4 Co7 1_555 1_555
O8_4 Co3_2 1_555 1_555
H18_4 O1_4 1_555 1_555
C19_4 C20_4 1_555 1_555
C7_4 C4_4 1_555 1_555
C8_4 C7_4 1_555 1_555
H4_4 C8_4 1_555 1_555
C21_4 C7_4 1_555 1_555
O10_2 C21_4 1_555 1_555
O11_2 C21_4 1_555 1_555
N6_2 C9_4 1_555 1_555
C1_4 C9_4 1_555 1_555
C9_4 H5_4 1_555 1_555
H9_4 C13_4 1_555 1_555
C14_4 C1_4 1_555 1_555
H10_4 C14_4 1_555 1_555
C15_4 N2_4 1_555 1_555
H11_4 C15_4 1_555 1_555
C16_4 C14_4 1_555 1_555
H12_4 C16_4 1_555 1_555
C17_4 N6_2 1_555 1_555
H13_4 C17_4 1_555 1_555
C22_4 C1_4 1_555 1_555
C13_4 C15_4 1_555 1_555
C16_4 C17_4 1_555 1_555
C22_4 O5_4 1_555 1_555

#END
