
###############################################################################
#
# This file contains modified crystal structure data generated from the
# MOF subset of the Cambridge Structural Database (CSD) v543 
# hosted by the Cambridge Crystallographic Data Centre (CCDC).
#
# This work is licensed under the Creative Commons
# Attribution-NonCommercial-ShareAlike 4.0 International License.
# To view a copy of this license, visit
# http://creativecommons.org/licenses/by-nc-sa/4.0/
# or send a letter to
# Creative Commons, PO Box 1866, Mountain View, CA 94042, USA.
#
# CIF created using the CSD Python API on 29 September 2022
# The structure has been converted into the P1 space group
# The structure has a 3D framework
# The original CSD entry NERVOV is in the triclinic crystal system
# The framework has been calculated to contain at least 10.0% void space
# The void calculation uses a probe of radius 1.32A, grid spacing 0.4
#
###############################################################################

data_NERVOV
_chemical_formula_moiety         '(C48 H36 Co4 N6 O18)n'
_symmetry_cell_setting           triclinic
_symmetry_space_group_name_H-M   'P 1'
_symmetry_Int_Tables_number      1
_space_group_name_Hall           'P 1'
loop_
_symmetry_equiv_pos_site_id
_symmetry_equiv_pos_as_xyz
1 x,y,z
_cell_length_a                   10.6671(6)
_cell_length_b                   12.0063(7)
_cell_length_c                   14.0658(8)
_cell_angle_alpha                106.7180
_cell_angle_beta                 102.2790
_cell_angle_gamma                111.1900
_cell_volume                     1504.11
loop_
_atom_site_label
_atom_site_type_symbol
_atom_site_fract_x
_atom_site_fract_y
_atom_site_fract_z
N2 N 0.3351(2) 0.0228(2) 0.63134(16)
H8 H 0.2713 0.0112 0.7507
Co3 Co 0.45213(3) 0.23171(3) 0.69025(2)
Co1 Co 0.19349(3) 0.49579(3) 0.21403(2)
N3 N 0.1661(2) 0.3467(2) 0.27369(16)
O1 O 0.16333(18) 0.36934(18) 0.06080(13)
O2 O 0.39056(19) 0.4246(2) 0.06981(14)
O3 O 0.21659(19) 0.61851(16) 0.35963(13)
O4 O 0.40297(18) 0.80232(16) 0.38268(13)
O5 O 0.3346(2) 0.22509(17) 0.54799(13)
O6 O 0.4026(3) 0.4364(2) 0.58297(16)
O9 O 0.42395(18) 0.56144(17) 0.25822(15)
H1 H 0.477(4) 0.554(4) 0.314(3)
H2 H 0.425(3) 0.524(3) 0.207(3)
C1 C 0.0777(3) 0.2216(3) 0.2109(2)
H3 H 0.0254 0.2007 0.141
C7 C 0.2582(3) 0.3722(2) 0.02006(19)
C8 C 0.2713(4) 0.9614(3) 0.6864(2)
C9 C 0.2054(5) 0.8273(3) 0.6516(3)
H9 H 0.1599 0.7881 0.6911
C10 C 0.2079(4) 0.7523(3) 0.5577(3)
H10 H 0.1634 0.6618 0.5328
C11 C 0.2776(3) 0.8136(2) 0.50112(19)
C12 C 0.3369(2) 0.9485(2) 0.54031(18)
H11 H 0.3805 0.99 0.5012
C13 C 0.3002(2) 0.7387(2) 0.40570(18)
C14 C 0.2416(3) 0.3752(2) 0.37441(19)
H12 H 0.3023 0.4621 0.4193
C15 C 0.0604(3) 0.1221(3) 0.2449(2)
C16 C 0.1393(3) 0.1521(3) 0.3477(2)
H14 H 0.1297 0.0864 0.3723
C17 C 0.2326(3) 0.2804(3) 0.4142(2)
C18 C 0.3308(3) 0.3180(3) 0.52440(19)
O10 O 0.21720(18) 0.63790(18) 0.15104(14)
Co4 Co 0.54787(3) 0.76829(3) 0.30975(2)
N1 N 0.2825(2) 0.2514(2) 0.75056(15)
C2 C 0.1457(3) 0.2043(3) 0.6871(2)
H4 H 0.1223 0.1668 0.6141
C3 C 0.0384(3) 0.2093(3) 0.7255(2)
C4 C 0.0691(3) 0.2613(3) 0.8338(2)
C5 C 0.2099(3) 0.3104(2) 0.90050(18)
C6 C 0.3117(3) 0.3045(2) 0.85529(18)
H7 H 0.4063 0.3396 0.9004
O11 O 0.59703(18) 0.19768(16) 0.61732(13)
O13 O 0.55848(17) 0.25347(17) 0.84328(13)
O14 O 0.57605(18) 0.43856(17) 0.74178(15)
H19 H 0.523(4) 0.446(4) 0.686(3)
H20 H 0.575(3) 0.476(3) 0.793(3)
O7 O 0.78280(18) 0.36210(18) 0.84896(14)
H5 H 0.9456 0.1776 0.6787
H6 H 0.9975 0.2634 0.8611
C24 C 0.6930(2) 0.3214(2) 0.89086(18)
Co6 Co 0.80651(3) 0.50421(3) 0.78597(2)
O8 O 0.44152(17) 0.74653(17) 0.15672(13)
H5_2 H 0.0544 0.8224 0.3213
H6_2 H 0.0025 0.7366 0.1389
C24_2 C 0.3070(2) 0.6786(2) 0.10914(18)
N1_2 N 0.7175(2) 0.7486(2) 0.24944(15)
C2_2 C 0.8543(3) 0.7957(3) 0.3129(2)
H4_2 H 0.8777 0.8332 0.3859
C3_2 C 0.9616(3) 0.7907(3) 0.2745(2)
C4_2 C 0.9309(3) 0.7387(3) 0.1662(2)
C5_2 C 0.7901(3) 0.6896(2) 0.09950(18)
C6_2 C 0.6883(3) 0.6955(2) 0.14471(18)
H7_2 H 0.5937 0.6604 0.0996
N5 N 0.6649(2) 0.9772(2) 0.36866(16)
O12 O 0.6654(2) 0.77491(17) 0.45201(13)
N3_2 N 0.8339(2) 0.6533(2) 0.72631(16)
O1_2 O 0.83667(18) 0.63066(18) 0.93920(13)
O2_2 O 0.60944(19) 0.5754(2) 0.93019(14)
O3_2 O 0.78341(19) 0.38149(16) 0.64037(13)
O6_2 O 0.5974(3) 0.5636(2) 0.41703(16)
C1_2 C 0.9223(3) 0.7784(3) 0.7891(2)
H3_2 H 0.9746 0.7993 0.859
C7_2 C 0.7418(3) 0.6278(2) 0.97994(19)
C8_2 C 0.7287(4) 0.0386(3) 0.3136(2)
C9_2 C 0.7946(5) 0.1727(3) 0.3484(3)
H9_2 H 0.8401 0.2119 0.3089
C10_2 C 0.7921(4) 0.2477(3) 0.4423(3)
H10_2 H 0.8366 0.3382 0.4672
C11_2 C 0.7224(3) 0.1864(2) 0.49888(19)
C12_2 C 0.6631(2) 0.0515(2) 0.45969(18)
H11_2 H 0.6195 0.01 0.4988
C13_2 C 0.6998(2) 0.2613(2) 0.59430(18)
C14_2 C 0.7584(3) 0.6248(2) 0.62559(19)
H12_2 H 0.6977 0.5379 0.5807
C15_2 C 0.9396(3) 0.8779(3) 0.7551(2)
C16_2 C 0.8607(3) 0.8479(3) 0.6523(2)
H14_2 H 0.8703 0.9136 0.6277
C17_2 C 0.7674(3) 0.7196(3) 0.5858(2)
C18_2 C 0.6692(3) 0.6820(3) 0.47560(19)
H8_2 H 0.7287 0.9888 0.2493
N4 N 0.9658(2) 0.4349(2) 0.15862(15)
H13 H 0.9966 0.0362 0.1992
C19 C 0.8880(3) 0.4398(3) 0.2215(2)
H15 H 0.9333 0.4667 0.294
C20 C 0.7439(3) 0.4068(4) 0.1835(2)
H16 H 0.6938 0.4135 0.2299
C21 C 0.6739(3) 0.3630(3) 0.0747(2)
H17 H 0.576 0.3377 0.047
C22 C 0.7531(2) 0.3578(2) 0.00881(18)
C23 C 0.8984(3) 0.3963(2) 0.05472(19)
H18 H 0.9523 0.3951 0.0108
N4_2 N 0.0342(2) 0.5651(2) 0.84138(15)
H13_2 H 0.0034 0.9638 0.8008
C19_2 C 0.1120(3) 0.5602(3) 0.7785(2)
H15_2 H 0.0667 0.5333 0.706
C20_2 C 0.2561(3) 0.5932(4) 0.8165(2)
H16_2 H 0.3062 0.5865 0.7701
C21_2 C 0.3261(3) 0.6370(3) 0.9253(2)
H17_2 H 0.424 0.6623 0.953
C22_2 C 0.2469(2) 0.6422(2) 0.99119(18)
C23_2 C 0.1016(3) 0.6037(2) 0.94528(19)
H18_2 H 0.0477 0.6049 0.9892
loop_
_geom_bond_atom_site_label_1
_geom_bond_atom_site_label_2
_geom_bond_site_symmetry_1
_geom_bond_site_symmetry_2
Co3 N2 1_555 1_555
Co1 N3 1_555 1_555
N3 C1 1_555 1_555
O1 Co1 1_555 1_555
O2 C7 1_555 1_555
O3 Co1 1_555 1_555
O4 C13 1_555 1_555
O5 C18 1_555 1_555
O6 C18 1_555 1_555
O9 Co1 1_555 1_555
H1 O9 1_555 1_555
H2 O9 1_555 1_555
C1 H3 1_555 1_555
C7 O1 1_555 1_555
C9 C8 1_555 1_555
H9 C9 1_555 1_555
C10 C9 1_555 1_555
H10 C10 1_555 1_555
C11 C10 1_555 1_555
H11 C12 1_555 1_555
C13 O3 1_555 1_555
C14 N3 1_555 1_555
H12 C14 1_555 1_555
C15 C1 1_555 1_555
C16 C15 1_555 1_555
H14 C16 1_555 1_555
C17 C14 1_555 1_555
C18 C17 1_555 1_555
O10 Co1 1_555 1_555
Co4 O4 1_555 1_555
Co3 O5 1_555 1_555
O9 Co4 1_555 1_555
C11 C12 1_555 1_555
C11 C13 1_555 1_555
C16 C17 1_555 1_555
Co3 N1 1_555 1_555
N1 C2 1_555 1_555
C2 H4 1_555 1_555
C3 C2 1_555 1_555
C4 C3 1_555 1_555
C5 C4 1_555 1_555
C6 N1 1_555 1_555
H7 C6 1_555 1_555
O11 Co3 1_555 1_555
O13 Co3 1_555 1_555
O14 Co3 1_555 1_555
H19 O14 1_555 1_555
H20 O14 1_555 1_555
C5 C6 1_555 1_555
O7 C24 1_555 1_555
O13 C24 1_555 1_555
Co6 O7 1_555 1_555
O10 C24_2 1_555 1_555
O8 C24_2 1_555 1_555
Co4 O8 1_555 1_555
Co4 N1_2 1_555 1_555
N1_2 C2_2 1_555 1_555
C2_2 H4_2 1_555 1_555
C3_2 C2_2 1_555 1_555
C4_2 C3_2 1_555 1_555
C5_2 C4_2 1_555 1_555
C6_2 N1_2 1_555 1_555
H7_2 C6_2 1_555 1_555
N5 Co4 1_555 1_555
O12 Co4 1_555 1_555
C5_2 C6_2 1_555 1_555
Co6 N3_2 1_555 1_555
N3_2 C1_2 1_555 1_555
O1_2 Co6 1_555 1_555
O2_2 C7_2 1_555 1_555
O3_2 Co6 1_555 1_555
O11 C13_2 1_555 1_555
O12 C18_2 1_555 1_555
O6_2 C18_2 1_555 1_555
O14 Co6 1_555 1_555
C1_2 H3_2 1_555 1_555
C7_2 O1_2 1_555 1_555
C9_2 C8_2 1_555 1_555
H9_2 C9_2 1_555 1_555
C10_2 C9_2 1_555 1_555
H10_2 C10_2 1_555 1_555
C11_2 C10_2 1_555 1_555
H11_2 C12_2 1_555 1_555
C13_2 O3_2 1_555 1_555
C14_2 N3_2 1_555 1_555
H12_2 C14_2 1_555 1_555
C15_2 C1_2 1_555 1_555
C16_2 C15_2 1_555 1_555
H14_2 C16_2 1_555 1_555
C17_2 C14_2 1_555 1_555
C18_2 C17_2 1_555 1_555
C11_2 C12_2 1_555 1_555
C11_2 C13_2 1_555 1_555
C16_2 C17_2 1_555 1_555
C19 N4 1_555 1_555
H15 C19 1_555 1_555
C20 C19 1_555 1_555
H16 C20 1_555 1_555
C21 C20 1_555 1_555
H17 C21 1_555 1_555
C22 C21 1_555 1_555
C23 N4 1_555 1_555
H18 C23 1_555 1_555
C22 C23 1_555 1_555
C19_2 N4_2 1_555 1_555
H15_2 C19_2 1_555 1_555
C20_2 C19_2 1_555 1_555
H16_2 C20_2 1_555 1_555
C21_2 C20_2 1_555 1_555
H17_2 C21_2 1_555 1_555
C22_2 C21_2 1_555 1_555
C23_2 N4_2 1_555 1_555
H18_2 C23_2 1_555 1_555
C22_2 C23_2 1_555 1_555

#END
