
###############################################################################
#
# This file contains modified crystal structure data generated from the
# MOF subset of the Cambridge Structural Database (CSD) v543 
# hosted by the Cambridge Crystallographic Data Centre (CCDC).
#
# This work is licensed under the Creative Commons
# Attribution-NonCommercial-ShareAlike 4.0 International License.
# To view a copy of this license, visit
# http://creativecommons.org/licenses/by-nc-sa/4.0/
# or send a letter to
# Creative Commons, PO Box 1866, Mountain View, CA 94042, USA.
#
# CIF created using the CSD Python API on 29 September 2022
# The structure has been converted into the P1 space group
# The structure has a 3D framework
# The original CSD entry NERVIP is in the triclinic crystal system
# The framework has been calculated to contain at least 10.0% void space
# The void calculation uses a probe of radius 1.32A, grid spacing 0.4
#
###############################################################################

data_NERVIP
_chemical_formula_moiety         '(C48 H36 Co4 N6 O18)n'
_symmetry_cell_setting           triclinic
_symmetry_space_group_name_H-M   'P 1'
_symmetry_Int_Tables_number      1
_space_group_name_Hall           'P 1'
loop_
_symmetry_equiv_pos_site_id
_symmetry_equiv_pos_as_xyz
1 x,y,z
_cell_length_a                   10.507(3)
_cell_length_b                   11.824(2)
_cell_length_c                   14.113(3)
_cell_angle_alpha                107.06(2)
_cell_angle_beta                 102.39(2)
_cell_angle_gamma                111.105(16)
_cell_volume                     1459.48
loop_
_atom_site_label
_atom_site_type_symbol
_atom_site_fract_x
_atom_site_fract_y
_atom_site_fract_z
N2 N 0.3333(4) 0.0184(3) 0.6320(3)
H5 H 0.2637 0.0058 0.748
Co4 Co 0.44993(6) 0.23073(5) 0.68902(4)
Co1 Co 0.19323(6) 0.49038(5) 0.21212(4)
N3 N 0.1673(4) 0.3359(3) 0.2669(3)
O1 O 0.1630(3) 0.3643(3) 0.0596(2)
O2 O 0.3904(4) 0.4128(4) 0.0696(3)
O3 O 0.2167(3) 0.6109(3) 0.3589(2)
O4 O 0.4009(3) 0.7992(3) 0.3810(2)
O5 O 0.3325(4) 0.2157(3) 0.5438(2)
O6 O 0.4039(4) 0.4302(3) 0.5760(3)
C6 C 0.2573(4) 0.3663(4) 0.0195(3)
C7 C 0.2655(7) 0.9556(5) 0.6842(4)
C8 C 0.1984(10) 0.8211(6) 0.6482(6)
H6 H 0.1485 0.7809 0.6856
C9 C 0.2045(8) 0.7440(5) 0.5555(5)
H7 H 0.1592 0.6519 0.53
C10 C 0.2793(5) 0.8070(4) 0.5023(3)
C11 C 0.3382(4) 0.9442(4) 0.5423(3)
H8 H 0.3837 0.987 0.5045
C12 C 0.3006(4) 0.7330(4) 0.4057(3)
C13 C 0.0801(6) 0.2089(5) 0.2026(4)
H9 H 0.025 0.188 0.1333
C14 C 0.0678(7) 0.1071(5) 0.2343(4)
H10 H 0.0058 0.0194 0.1873
C15 C 0.1494(6) 0.1375(5) 0.3371(4)
H11 H 0.1437 0.0705 0.3603
C16 C 0.2389(5) 0.2683(4) 0.4047(3)
C17 C 0.2442(4) 0.3642(4) 0.3668(3)
H12 H 0.304 0.4528 0.4128
C18 C 0.3333(5) 0.3088(4) 0.5176(3)
O9 O 0.4263(3) 0.5580(3) 0.2576(2)
H17 H 0.4189 0.518 0.2117
H18 H 0.4739 0.5511 0.3101
Co5 Co 0.55007(6) 0.76927(5) 0.31098(4)
O12 O 0.2150(3) 0.6345(3) 0.1501(2)
N1 N 0.2807(4) 0.2535(3) 0.7494(3)
C1 C 0.1438(5) 0.2133(5) 0.6868(3)
H1 H 0.1198 0.178 0.6136
C2 C 0.0372(5) 0.2220(5) 0.7260(4)
C3 C 0.0689(5) 0.2679(5) 0.8342(4)
C4 C 0.2091(4) 0.3099(4) 0.8999(3)
C5 C 0.3109(4) 0.3017(4) 0.8536(3)
H4 H 0.4061 0.3316 0.8981
O10 O 0.5991(3) 0.2008(3) 0.6190(2)
O13 O 0.5571(3) 0.2477(3) 0.8381(2)
O14 O 0.5737(3) 0.4420(3) 0.7424(2)
H19 H 0.5811 0.482 0.7883
H20 H 0.5261 0.4489 0.6899
O7 O 0.7850(3) 0.3655(3) 0.8499(2)
H2 H 0.9446 0.1971 0.68
H3 H 0.9969 0.2704 0.8621
C24 C 0.6927(4) 0.3178(4) 0.8880(3)
Co3 Co 0.80677(6) 0.50962(5) 0.78788(4)
O8 O 0.4429(3) 0.7523(3) 0.1619(2)
H2_2 H 0.0554 0.8029 0.32
H3_2 H 0.0031 0.7296 0.1379
C24_2 C 0.3073(4) 0.6822(4) 0.1120(3)
N1_2 N 0.7193(4) 0.7465(3) 0.2506(3)
C1_2 C 0.8562(5) 0.7867(5) 0.3132(3)
H1_2 H 0.8802 0.822 0.3864
C2_2 C 0.9628(5) 0.7780(5) 0.2740(4)
C3_2 C 0.9311(5) 0.7321(5) 0.1658(4)
C4_2 C 0.7909(4) 0.6901(4) 0.1001(3)
C5_2 C 0.6891(4) 0.6983(4) 0.1464(3)
H4_2 H 0.5939 0.6684 0.1019
N5 N 0.6667(4) 0.9816(3) 0.3680(3)
O11 O 0.6675(4) 0.7843(3) 0.4562(2)
N3_2 N 0.8327(4) 0.6641(3) 0.7331(3)
O1_2 O 0.8370(3) 0.6357(3) 0.9404(2)
O2_2 O 0.6096(4) 0.5872(4) 0.9304(3)
O3_2 O 0.7833(3) 0.3891(3) 0.6411(2)
O6_2 O 0.5961(4) 0.5698(3) 0.4240(3)
C6_2 C 0.7427(4) 0.6337(4) 0.9805(3)
C7_2 C 0.7345(7) 0.0444(5) 0.3158(4)
C8_2 C 0.8016(10) 0.1789(6) 0.3518(6)
H6_2 H 0.8515 0.2191 0.3144
C9_2 C 0.7955(8) 0.2560(5) 0.4445(5)
H7_2 H 0.8408 0.3481 0.47
C10_2 C 0.7207(5) 0.1930(4) 0.4977(3)
C11_2 C 0.6618(4) 0.0558(4) 0.4577(3)
H8_2 H 0.6163 0.013 0.4955
C12_2 C 0.6994(4) 0.2670(4) 0.5943(3)
C13_2 C 0.9199(6) 0.7911(5) 0.7974(4)
H9_2 H 0.975 0.812 0.8667
C14_2 C 0.9322(7) 0.8929(5) 0.7657(4)
H10_2 H 0.9942 0.9806 0.8127
C15_2 C 0.8506(6) 0.8625(5) 0.6629(4)
H11_2 H 0.8563 0.9295 0.6397
C16_2 C 0.7611(5) 0.7317(4) 0.5953(3)
C17_2 C 0.7558(4) 0.6358(4) 0.6332(3)
H12_2 H 0.696 0.5472 0.5872
C18_2 C 0.6667(5) 0.6912(4) 0.4824(3)
H5_2 H 0.7363 0.9942 0.252
N4 N 0.9628(4) 0.4276(3) 0.1566(3)
C19 C 0.8796(5) 0.4269(5) 0.2167(4)
H13 H 0.9234 0.4538 0.2894
C20 C 0.7334(5) 0.3885(6) 0.1757(4)
H14 H 0.6797 0.3908 0.2201
C21 C 0.6656(5) 0.3458(5) 0.0671(4)
H15 H 0.5654 0.3161 0.0374
C22 C 0.7494(4) 0.3484(4) 0.0043(3)
C23 C 0.8971(4) 0.3913(4) 0.0532(3)
H16 H 0.9544 0.3951 0.0112
N4_2 N 0.0372(4) 0.5724(3) 0.8434(3)
C19_2 C 0.1204(5) 0.5731(5) 0.7833(4)
H13_2 H 0.0766 0.5462 0.7106
C20_2 C 0.2666(5) 0.6115(6) 0.8243(4)
H14_2 H 0.3203 0.6092 0.7799
C21_2 C 0.3344(5) 0.6542(5) 0.9329(4)
H15_2 H 0.4346 0.6839 0.9626
C22_2 C 0.2506(4) 0.6516(4) 0.9957(3)
C23_2 C 0.1029(4) 0.6087(4) 0.9468(3)
H16_2 H 0.0456 0.6049 0.9888
loop_
_geom_bond_atom_site_label_1
_geom_bond_atom_site_label_2
_geom_bond_site_symmetry_1
_geom_bond_site_symmetry_2
Co4 N2 1_555 1_555
Co1 N3 1_555 1_555
N3 C13 1_555 1_555
O1 Co1 1_555 1_555
O2 C6 1_555 1_555
O3 Co1 1_555 1_555
O4 C12 1_555 1_555
O5 C18 1_555 1_555
O6 C18 1_555 1_555
C6 O1 1_555 1_555
C8 C7 1_555 1_555
H6 C8 1_555 1_555
C9 C8 1_555 1_555
H7 C9 1_555 1_555
C10 C9 1_555 1_555
H8 C11 1_555 1_555
C12 O3 1_555 1_555
C13 H9 1_555 1_555
C14 C13 1_555 1_555
H10 C14 1_555 1_555
C15 C14 1_555 1_555
H11 C15 1_555 1_555
C16 C15 1_555 1_555
C17 N3 1_555 1_555
H12 C17 1_555 1_555
C18 C16 1_555 1_555
O9 Co1 1_555 1_555
H17 O9 1_555 1_555
H18 O9 1_555 1_555
Co5 O4 1_555 1_555
Co4 O5 1_555 1_555
O12 Co1 1_555 1_555
C10 C11 1_555 1_555
C10 C12 1_555 1_555
C16 C17 1_555 1_555
O9 Co5 1_555 1_555
Co4 N1 1_555 1_555
N1 C1 1_555 1_555
C1 H1 1_555 1_555
C2 C1 1_555 1_555
C3 C2 1_555 1_555
C4 C3 1_555 1_555
C5 N1 1_555 1_555
H4 C5 1_555 1_555
O10 Co4 1_555 1_555
O13 Co4 1_555 1_555
O14 Co4 1_555 1_555
H19 O14 1_555 1_555
H20 O14 1_555 1_555
C4 C5 1_555 1_555
O7 C24 1_555 1_555
O13 C24 1_555 1_555
Co3 O7 1_555 1_555
O12 C24_2 1_555 1_555
O8 C24_2 1_555 1_555
Co5 O8 1_555 1_555
Co5 N1_2 1_555 1_555
N1_2 C1_2 1_555 1_555
C1_2 H1_2 1_555 1_555
C2_2 C1_2 1_555 1_555
C3_2 C2_2 1_555 1_555
C4_2 C3_2 1_555 1_555
C5_2 N1_2 1_555 1_555
H4_2 C5_2 1_555 1_555
N5 Co5 1_555 1_555
O11 Co5 1_555 1_555
C4_2 C5_2 1_555 1_555
Co3 N3_2 1_555 1_555
N3_2 C13_2 1_555 1_555
O1_2 Co3 1_555 1_555
O2_2 C6_2 1_555 1_555
O3_2 Co3 1_555 1_555
O10 C12_2 1_555 1_555
O11 C18_2 1_555 1_555
O6_2 C18_2 1_555 1_555
C6_2 O1_2 1_555 1_555
C8_2 C7_2 1_555 1_555
H6_2 C8_2 1_555 1_555
C9_2 C8_2 1_555 1_555
H7_2 C9_2 1_555 1_555
C10_2 C9_2 1_555 1_555
H8_2 C11_2 1_555 1_555
C12_2 O3_2 1_555 1_555
C13_2 H9_2 1_555 1_555
C14_2 C13_2 1_555 1_555
H10_2 C14_2 1_555 1_555
C15_2 C14_2 1_555 1_555
H11_2 C15_2 1_555 1_555
C16_2 C15_2 1_555 1_555
C17_2 N3_2 1_555 1_555
H12_2 C17_2 1_555 1_555
C18_2 C16_2 1_555 1_555
O14 Co3 1_555 1_555
C10_2 C11_2 1_555 1_555
C10_2 C12_2 1_555 1_555
C16_2 C17_2 1_555 1_555
C19 N4 1_555 1_555
H13 C19 1_555 1_555
C20 C19 1_555 1_555
H14 C20 1_555 1_555
C21 C20 1_555 1_555
H15 C21 1_555 1_555
C22 C21 1_555 1_555
C23 N4 1_555 1_555
H16 C23 1_555 1_555
C22 C23 1_555 1_555
C19_2 N4_2 1_555 1_555
H13_2 C19_2 1_555 1_555
C20_2 C19_2 1_555 1_555
H14_2 C20_2 1_555 1_555
C21_2 C20_2 1_555 1_555
H15_2 C21_2 1_555 1_555
C22_2 C21_2 1_555 1_555
C23_2 N4_2 1_555 1_555
H16_2 C23_2 1_555 1_555
C22_2 C23_2 1_555 1_555

#END
