
###############################################################################
#
# This file contains modified crystal structure data generated from the
# MOF subset of the Cambridge Structural Database (CSD) v543 
# hosted by the Cambridge Crystallographic Data Centre (CCDC).
#
# This work is licensed under the Creative Commons
# Attribution-NonCommercial-ShareAlike 4.0 International License.
# To view a copy of this license, visit
# http://creativecommons.org/licenses/by-nc-sa/4.0/
# or send a letter to
# Creative Commons, PO Box 1866, Mountain View, CA 94042, USA.
#
# CIF created using the CSD Python API on 29 September 2022
# The structure has been converted into the P1 space group
# The structure has a 3D framework
# The original CSD entry NERVEL is in the triclinic crystal system
# The framework has been calculated to contain at least 10.0% void space
# The void calculation uses a probe of radius 1.32A, grid spacing 0.4
#
###############################################################################

data_NERVEL
_chemical_formula_moiety         '(C48 H36 Co4 N6 O18)n'
_symmetry_cell_setting           triclinic
_symmetry_space_group_name_H-M   'P 1'
_symmetry_Int_Tables_number      1
_space_group_name_Hall           'P 1'
loop_
_symmetry_equiv_pos_site_id
_symmetry_equiv_pos_as_xyz
1 x,y,z
_cell_length_a                   10.5407(2)
_cell_length_b                   11.8266(3)
_cell_length_c                   14.1122(2)
_cell_angle_alpha                106.878(4)
_cell_angle_beta                 102.411(2)
_cell_angle_gamma                111.011(3)
_cell_volume                     1467.89
loop_
_atom_site_label
_atom_site_type_symbol
_atom_site_fract_x
_atom_site_fract_y
_atom_site_fract_z
N2 N 0.3352(3) 0.0188(2) 0.63313(19)
H5 H 0.2674 0.006 0.7499
Co3 Co 0.45120(4) 0.23082(4) 0.69007(3)
Co1 Co 0.19330(4) 0.49141(4) 0.21267(3)
N3 N 0.1675(3) 0.3376(3) 0.2683(2)
O1 O 0.1630(2) 0.3647(2) 0.06026(16)
O2 O 0.3904(3) 0.4133(3) 0.07013(19)
O3 O 0.2173(2) 0.6124(2) 0.35927(16)
O4 O 0.3998(2) 0.7999(2) 0.38042(17)
O5 O 0.3335(3) 0.2169(2) 0.54515(16)
O6 O 0.4040(3) 0.4298(3) 0.5765(2)
C6 C 0.2579(3) 0.3662(3) 0.0199(2)
C7 C 0.2690(5) 0.9563(4) 0.6860(3)
C8 C 0.2027(7) 0.8204(4) 0.6495(4)
H6 H 0.1536 0.7796 0.6869
C9 C 0.2093(6) 0.7455(4) 0.5579(4)
H7 H 0.1665 0.6537 0.5332
C10 C 0.2805(3) 0.8085(3) 0.5032(2)
C11 C 0.3394(3) 0.9451(3) 0.5433(2)
H8 H 0.3846 0.988 0.5053
C12 C 0.3011(3) 0.7342(3) 0.4059(2)
C13 C 0.0784(4) 0.2109(3) 0.2051(3)
H9 H 0.0238 0.19 0.1358
C14 C 0.0638(5) 0.1095(4) 0.2383(3)
C15 C 0.1462(4) 0.1390(4) 0.3400(3)
H11 H 0.1398 0.0721 0.3635
C16 C 0.2386(3) 0.2699(3) 0.4065(2)
C17 C 0.2452(3) 0.3656(3) 0.3679(2)
H12 H 0.3066 0.4537 0.4131
C18 C 0.3336(4) 0.3096(3) 0.5191(2)
O9 O 0.4260(2) 0.5586(2) 0.25748(17)
H17 H 0.4186 0.5186 0.2116
H18 H 0.4735 0.5517 0.31
O10 O 0.2148(2) 0.6349(2) 0.14962(17)
Co4 Co 0.54880(4) 0.76918(4) 0.30993(3)
N1 N 0.2814(3) 0.2529(3) 0.74993(19)
C1 C 0.1454(4) 0.2126(3) 0.6874(2)
H1 H 0.122 0.1779 0.6143
C2 C 0.0380(4) 0.2203(4) 0.7266(3)
C3 C 0.0692(3) 0.2674(3) 0.8345(3)
C4 C 0.2094(3) 0.3096(3) 0.9006(2)
C5 C 0.3116(3) 0.3019(3) 0.8546(2)
H4 H 0.4066 0.3327 0.8992
O11 O 0.6002(2) 0.2001(2) 0.61958(17)
O13 O 0.5586(2) 0.2484(2) 0.83967(16)
O14 O 0.5740(2) 0.4414(2) 0.74252(17)
H19 H 0.5814 0.4814 0.7884
H20 H 0.5265 0.4483 0.69
O7 O 0.7852(2) 0.3651(2) 0.85038(17)
H2 H 0.9454 0.1938 0.6805
H3 H 0.9975 0.2707 0.8623
C24 C 0.6935(3) 0.3182(3) 0.8891(2)
Co6 Co 0.80670(4) 0.50859(4) 0.78733(3)
O8 O 0.4414(2) 0.7516(2) 0.16033(16)
H2_2 H 0.0546 0.8062 0.3195
H3_2 H 0.0025 0.7293 0.1377
C24_2 C 0.3065(3) 0.6818(3) 0.1109(2)
N1_2 N 0.7186(3) 0.7471(3) 0.25007(19)
C1_2 C 0.8546(4) 0.7874(3) 0.3126(2)
H1_2 H 0.878 0.8221 0.3857
C2_2 C 0.9620(4) 0.7797(4) 0.2734(3)
C3_2 C 0.9308(3) 0.7326(3) 0.1655(3)
C4_2 C 0.7906(3) 0.6904(3) 0.0994(2)
C5_2 C 0.6884(3) 0.6981(3) 0.1454(2)
H4_2 H 0.5934 0.6673 0.1008
N5 N 0.6648(3) 0.9812(2) 0.36687(19)
O12 O 0.6665(3) 0.7831(2) 0.45485(16)
N3_2 N 0.8325(3) 0.6624(3) 0.7317(2)
O1_2 O 0.8370(2) 0.6353(2) 0.93974(16)
O2_2 O 0.6096(3) 0.5867(3) 0.92987(19)
O3_2 O 0.7827(2) 0.3876(2) 0.64073(16)
O6_2 O 0.5960(3) 0.5702(3) 0.4235(2)
C6_2 C 0.7421(3) 0.6338(3) 0.9801(2)
C7_2 C 0.7310(5) 0.0437(4) 0.3140(3)
C8_2 C 0.7973(7) 0.1796(4) 0.3505(4)
H6_2 H 0.8464 0.2204 0.3131
C9_2 C 0.7907(6) 0.2545(4) 0.4421(4)
H7_2 H 0.8335 0.3463 0.4668
C10_2 C 0.7195(3) 0.1915(3) 0.4968(2)
C11_2 C 0.6606(3) 0.0549(3) 0.4567(2)
H8_2 H 0.6154 0.012 0.4947
C12_2 C 0.6989(3) 0.2658(3) 0.5941(2)
C13_2 C 0.9216(4) 0.7891(3) 0.7949(3)
H9_2 H 0.9762 0.81 0.8642
C14_2 C 0.9362(5) 0.8905(4) 0.7617(3)
C15_2 C 0.8538(4) 0.8610(4) 0.6600(3)
H11_2 H 0.8602 0.9279 0.6365
C16_2 C 0.7614(3) 0.7301(3) 0.5935(2)
C17_2 C 0.7548(3) 0.6344(3) 0.6321(2)
H12_2 H 0.6934 0.5463 0.5869
C18_2 C 0.6664(4) 0.6904(3) 0.4809(2)
H5_2 H 0.7326 0.994 0.2501
N4 N 0.9634(3) 0.4297(2) 0.15750(19)
H10 H 0.999 0.0224 0.1925
C19 C 0.8814(4) 0.4303(4) 0.2184(3)
H13 H 0.9255 0.4577 0.291
C20 C 0.7355(4) 0.3920(4) 0.1776(3)
H14 H 0.6824 0.3946 0.2223
C21 C 0.6670(4) 0.3491(4) 0.0692(3)
H15 H 0.5673 0.3202 0.0401
C22 C 0.7505(3) 0.3505(3) 0.0057(2)
C23 C 0.8978(3) 0.3929(3) 0.0543(2)
H16 H 0.9546 0.396 0.0121
N4_2 N 0.0366(3) 0.5703(2) 0.84250(19)
H10_2 H 0.001 0.9776 0.8075
C19_2 C 0.1186(4) 0.5697(4) 0.7816(3)
H13_2 H 0.0745 0.5423 0.709
C20_2 C 0.2645(4) 0.6080(4) 0.8224(3)
H14_2 H 0.3176 0.6054 0.7777
C21_2 C 0.3330(4) 0.6509(4) 0.9308(3)
H15_2 H 0.4327 0.6798 0.9599
C22_2 C 0.2495(3) 0.6495(3) 0.9943(2)
C23_2 C 0.1022(3) 0.6071(3) 0.9457(2)
H16_2 H 0.0454 0.604 0.9879
loop_
_geom_bond_atom_site_label_1
_geom_bond_atom_site_label_2
_geom_bond_site_symmetry_1
_geom_bond_site_symmetry_2
Co3 N2 1_555 1_555
Co1 N3 1_555 1_555
N3 C13 1_555 1_555
O1 Co1 1_555 1_555
O2 C6 1_555 1_555
O3 Co1 1_555 1_555
O4 C12 1_555 1_555
O5 C18 1_555 1_555
O6 C18 1_555 1_555
C6 O1 1_555 1_555
C8 C7 1_555 1_555
H6 C8 1_555 1_555
C9 C8 1_555 1_555
H7 C9 1_555 1_555
C10 C9 1_555 1_555
H8 C11 1_555 1_555
C12 O3 1_555 1_555
C13 H9 1_555 1_555
C14 C13 1_555 1_555
C15 C14 1_555 1_555
H11 C15 1_555 1_555
C16 C15 1_555 1_555
C17 N3 1_555 1_555
H12 C17 1_555 1_555
C18 C16 1_555 1_555
O9 Co1 1_555 1_555
H17 O9 1_555 1_555
H18 O9 1_555 1_555
O10 Co1 1_555 1_555
Co4 O4 1_555 1_555
Co3 O5 1_555 1_555
C10 C11 1_555 1_555
C10 C12 1_555 1_555
C16 C17 1_555 1_555
O9 Co4 1_555 1_555
Co3 N1 1_555 1_555
N1 C1 1_555 1_555
C1 H1 1_555 1_555
C2 C1 1_555 1_555
C3 C2 1_555 1_555
C4 C3 1_555 1_555
C5 N1 1_555 1_555
H4 C5 1_555 1_555
O11 Co3 1_555 1_555
O13 Co3 1_555 1_555
O14 Co3 1_555 1_555
H19 O14 1_555 1_555
H20 O14 1_555 1_555
C4 C5 1_555 1_555
O7 C24 1_555 1_555
O13 C24 1_555 1_555
Co6 O7 1_555 1_555
O10 C24_2 1_555 1_555
O8 C24_2 1_555 1_555
Co4 O8 1_555 1_555
Co4 N1_2 1_555 1_555
N1_2 C1_2 1_555 1_555
C1_2 H1_2 1_555 1_555
C2_2 C1_2 1_555 1_555
C3_2 C2_2 1_555 1_555
C4_2 C3_2 1_555 1_555
C5_2 N1_2 1_555 1_555
H4_2 C5_2 1_555 1_555
N5 Co4 1_555 1_555
O12 Co4 1_555 1_555
C4_2 C5_2 1_555 1_555
Co6 N3_2 1_555 1_555
N3_2 C13_2 1_555 1_555
O1_2 Co6 1_555 1_555
O2_2 C6_2 1_555 1_555
O3_2 Co6 1_555 1_555
O11 C12_2 1_555 1_555
O12 C18_2 1_555 1_555
O6_2 C18_2 1_555 1_555
C6_2 O1_2 1_555 1_555
C8_2 C7_2 1_555 1_555
H6_2 C8_2 1_555 1_555
C9_2 C8_2 1_555 1_555
H7_2 C9_2 1_555 1_555
C10_2 C9_2 1_555 1_555
H8_2 C11_2 1_555 1_555
C12_2 O3_2 1_555 1_555
C13_2 H9_2 1_555 1_555
C14_2 C13_2 1_555 1_555
C15_2 C14_2 1_555 1_555
H11_2 C15_2 1_555 1_555
C16_2 C15_2 1_555 1_555
C17_2 N3_2 1_555 1_555
H12_2 C17_2 1_555 1_555
C18_2 C16_2 1_555 1_555
O14 Co6 1_555 1_555
C10_2 C11_2 1_555 1_555
C10_2 C12_2 1_555 1_555
C16_2 C17_2 1_555 1_555
C19 N4 1_555 1_555
H13 C19 1_555 1_555
C20 C19 1_555 1_555
H14 C20 1_555 1_555
C21 C20 1_555 1_555
H15 C21 1_555 1_555
C22 C21 1_555 1_555
C23 N4 1_555 1_555
H16 C23 1_555 1_555
C22 C23 1_555 1_555
C19_2 N4_2 1_555 1_555
H13_2 C19_2 1_555 1_555
C20_2 C19_2 1_555 1_555
H14_2 C20_2 1_555 1_555
C21_2 C20_2 1_555 1_555
H15_2 C21_2 1_555 1_555
C22_2 C21_2 1_555 1_555
C23_2 N4_2 1_555 1_555
H16_2 C23_2 1_555 1_555
C22_2 C23_2 1_555 1_555

#END
