
###############################################################################
#
# This file contains modified crystal structure data generated from the
# MOF subset of the Cambridge Structural Database (CSD) v543 
# hosted by the Cambridge Crystallographic Data Centre (CCDC).
#
# This work is licensed under the Creative Commons
# Attribution-NonCommercial-ShareAlike 4.0 International License.
# To view a copy of this license, visit
# http://creativecommons.org/licenses/by-nc-sa/4.0/
# or send a letter to
# Creative Commons, PO Box 1866, Mountain View, CA 94042, USA.
#
# CIF created using the CSD Python API on 29 September 2022
# The structure has been converted into the P1 space group
# The structure has a 3D framework
# The original CSD entry NESGAV is in the orthorhombic crystal system
# The framework has been calculated to contain at least 10.0% void space
# The void calculation uses a probe of radius 1.32A, grid spacing 0.4
#
###############################################################################

data_NESGAV
_chemical_formula_moiety         '(C320 H192 Cd12 N160)n'
_symmetry_cell_setting           triclinic
_symmetry_space_group_name_H-M   'P 1'
_symmetry_Int_Tables_number      1
_space_group_name_Hall           'P 1'
loop_
_symmetry_equiv_pos_site_id
_symmetry_equiv_pos_as_xyz
1 x,y,z
_cell_length_a                   15.1007(10)
_cell_length_b                   17.2538(11)
_cell_length_c                   31.509(2)
_cell_angle_alpha                90
_cell_angle_beta                 90
_cell_angle_gamma                90
_cell_volume                     8209.5
loop_
_atom_site_label
_atom_site_type_symbol
_atom_site_fract_x
_atom_site_fract_y
_atom_site_fract_z
C1 C 0.21906(13) 0.33944(11) 0.05576(6)
H1 H 0.1946 0.2999 0.0394
C2 C 0.25949(13) 0.40208(11) 0.03455(6)
C3 C 0.29665(14) 0.45971(12) 0.05837(6)
H2 H 0.3244 0.5013 0.0452
C4 C 0.29273(14) 0.45589(12) 0.10313(6)
C5 C 0.25065(13) 0.39136(11) 0.12208(6)
C6 C 0.24703(15) 0.38605(12) 0.16679(7)
H3 H 0.2207 0.3434 0.1797
C7 C 0.28235(17) 0.44391(15) 0.19095(7)
H4 H 0.2786 0.4407 0.2204
C8 C 0.32401(19) 0.50794(15) 0.17256(8)
H5 H 0.3473 0.5468 0.1897
C9 C 0.33062(19) 0.51355(13) 0.12959(7)
H6 H 0.3601 0.5554 0.1175
Cd1 Cd 0.1250 0.237189(10) 0.1250
N1 N 0.21392(11) 0.33370(9) 0.09742(5)
C11 C 0.03094(13) 0.33944(11) 0.19424(6)
H7 H 0.0554 0.2999 0.2106
C16 C 0.00297(15) 0.38605(12) 0.08321(7)
H9 H 0.0293 0.3434 0.0703
N6 N 0.03608(11) 0.33370(9) 0.15258(5)
N7 N 0.01601(12) 0.34384(10) 0.28638(5)
N10 N 0.04748(11) 0.18081(9) 0.07440(5)
N11 N 0.20252(11) 0.18081(9) 0.17560(5)
C10 C 0.26390(12) 0.40150(11) 0.98801(6)
N2 N 0.23399(12) 0.34384(10) 0.96362(5)
N3 N 0.30393(11) 0.45687(9) 0.96548(5)
N4 N 0.29748(11) 0.43081(9) 0.92560(5)
N5 N 0.25646(13) 0.36336(10) 0.92414(5)
Cd2 Cd 0.3750 0.487189(10) 0.8750
C12 C 0.99051(13) 0.40208(11) 0.21545(6)
C13 C 0.95335(14) 0.45971(12) 0.19163(6)
H8 H 0.9256 0.5013 0.2048
C14 C 0.95727(14) 0.45589(12) 0.14687(6)
C15 C 0.99935(13) 0.39136(11) 0.12792(6)
C17 C 0.96765(17) 0.44391(15) 0.05905(7)
H10 H 0.9714 0.4407 0.0296
C18 C 0.92599(19) 0.50794(15) 0.07744(8)
H11 H 0.9027 0.5468 0.0603
C19 C 0.91938(19) 0.51355(13) 0.12041(7)
H12 H 0.8899 0.5554 0.1325
C20 C 0.98610(12) 0.40150(11) 0.26199(6)
Cd3 Cd 0.8750 0.487189(10) 0.3750
N8 N 0.94607(11) 0.45687(9) 0.28452(5)
N9 N 0.95252(11) 0.43081(9) 0.32440(5)
N12 N 0.99354(13) 0.36336(10) 0.32586(5)
C1_2 C 0.53094(13) 0.33944(11) 0.69424(6)
H1_2 H 0.5554 0.2999 0.7106
C2_2 C 0.49051(13) 0.40208(11) 0.71545(6)
C3_2 C 0.45335(14) 0.45971(12) 0.69163(6)
H2_2 H 0.4256 0.5013 0.7048
C4_2 C 0.45727(14) 0.45589(12) 0.64687(6)
C5_2 C 0.49935(13) 0.39136(11) 0.62792(6)
C6_2 C 0.50297(15) 0.38605(12) 0.58321(7)
H3_2 H 0.5293 0.3434 0.5703
C7_2 C 0.46765(17) 0.44391(15) 0.55905(7)
H4_2 H 0.4714 0.4407 0.5296
C8_2 C 0.42599(19) 0.50794(15) 0.57744(8)
H5_2 H 0.4027 0.5468 0.5603
C9_2 C 0.41938(19) 0.51355(13) 0.62041(7)
H6_2 H 0.3899 0.5554 0.6325
C10_2 C 0.48610(12) 0.40150(11) 0.76199(6)
Cd1_2 Cd 0.6250 0.237189(10) 0.6250
N1_2 N 0.53608(11) 0.33370(9) 0.65258(5)
N2_2 N 0.51601(12) 0.34384(10) 0.78638(5)
N3_2 N 0.44607(11) 0.45687(9) 0.78452(5)
N4_2 N 0.45252(11) 0.43081(9) 0.82440(5)
N5_2 N 0.49354(13) 0.36336(10) 0.82586(5)
C11_2 C 0.71906(13) 0.33944(11) 0.55576(6)
H7_2 H 0.6946 0.2999 0.5394
C12_2 C 0.75949(13) 0.40208(11) 0.53455(6)
C13_2 C 0.79665(14) 0.45971(12) 0.55837(6)
H8_2 H 0.8244 0.5013 0.5452
C14_2 C 0.79273(14) 0.45589(12) 0.60313(6)
C15_2 C 0.75065(13) 0.39136(11) 0.62208(6)
C16_2 C 0.74703(15) 0.38605(12) 0.66679(7)
H9_2 H 0.7207 0.3434 0.6797
C17_2 C 0.78235(17) 0.44391(15) 0.69095(7)
H10_2 H 0.7786 0.4407 0.7204
C18_2 C 0.82401(19) 0.50794(15) 0.67256(8)
H11_2 H 0.8473 0.5468 0.6897
C19_2 C 0.83062(19) 0.51355(13) 0.62959(7)
H12_2 H 0.8601 0.5554 0.6175
C20_2 C 0.76390(12) 0.40150(11) 0.48801(6)
N6_2 N 0.71392(11) 0.33370(9) 0.59742(5)
N7_2 N 0.73399(12) 0.34384(10) 0.46362(5)
N8_2 N 0.80393(11) 0.45687(9) 0.46548(5)
N9_2 N 0.79748(11) 0.43081(9) 0.42560(5)
N10_2 N 0.70252(11) 0.18081(9) 0.67560(5)
N11_2 N 0.54748(11) 0.18081(9) 0.57440(5)
N12_2 N 0.75646(13) 0.36336(10) 0.42414(5)
C1_3 C 0.21906(13) 0.83944(11) 0.55576(6)
H1_3 H 0.1946 0.7999 0.5394
C2_3 C 0.25949(13) 0.90208(11) 0.53455(6)
C3_3 C 0.29665(14) 0.95971(12) 0.55837(6)
C4_3 C 0.29273(14) 0.95589(12) 0.60313(6)
C5_3 C 0.25065(13) 0.89136(11) 0.62208(6)
C6_3 C 0.24703(15) 0.88605(12) 0.66679(7)
H3_3 H 0.2207 0.8434 0.6797
C7_3 C 0.28235(17) 0.94391(15) 0.69095(7)
H4_3 H 0.2786 0.9407 0.7204
C10_3 C 0.26390(12) 0.90150(11) 0.48801(6)
Cd1_3 Cd 0.1250 0.737189(10) 0.6250
N1_3 N 0.21392(11) 0.83370(9) 0.59742(5)
N2_3 N 0.23399(12) 0.84384(10) 0.46362(5)
N3_3 N 0.30393(11) 0.95687(9) 0.46548(5)
N4_3 N 0.29748(11) 0.93081(9) 0.42560(5)
N5_3 N 0.25646(13) 0.86336(10) 0.42414(5)
C11_3 C 0.03094(13) 0.83944(11) 0.69424(6)
H7_3 H 0.0554 0.7999 0.7106
C16_3 C 0.00297(15) 0.88605(12) 0.58321(7)
H9_3 H 0.0293 0.8434 0.5703
Cd2_2 Cd 0.3750 0.987189(10) 0.3750
N6_3 N 0.03608(11) 0.83370(9) 0.65258(5)
N7_3 N 0.01601(12) 0.84384(10) 0.78638(5)
N10_3 N 0.04748(11) 0.68081(9) 0.57440(5)
N11_3 N 0.20252(11) 0.68081(9) 0.67560(5)
C1_4 C 0.53094(13) 0.83944(11) 0.19424(6)
H1_4 H 0.5554 0.7999 0.2106
C2_4 C 0.49051(13) 0.90208(11) 0.21545(6)
C3_4 C 0.45335(14) 0.95971(12) 0.19163(6)
C4_4 C 0.45727(14) 0.95589(12) 0.14687(6)
C5_4 C 0.49935(13) 0.89136(11) 0.12792(6)
C6_4 C 0.50297(15) 0.88605(12) 0.08321(7)
H3_4 H 0.5293 0.8434 0.0703
C7_4 C 0.46765(17) 0.94391(15) 0.05905(7)
H4_4 H 0.4714 0.9407 0.0296
C10_4 C 0.48610(12) 0.90150(11) 0.26199(6)
Cd1_4 Cd 0.6250 0.737189(10) 0.1250
N1_4 N 0.53608(11) 0.83370(9) 0.15258(5)
N2_4 N 0.51601(12) 0.84384(10) 0.28638(5)
N3_4 N 0.44607(11) 0.95687(9) 0.28452(5)
N4_4 N 0.45252(11) 0.93081(9) 0.32440(5)
N5_4 N 0.49354(13) 0.86336(10) 0.32586(5)
C11_4 C 0.71906(13) 0.83944(11) 0.05576(6)
H7_4 H 0.6946 0.7999 0.0394
C12_3 C 0.75949(13) 0.90208(11) 0.03455(6)
C13_3 C 0.79665(14) 0.95971(12) 0.05837(6)
C14_3 C 0.79273(14) 0.95589(12) 0.10313(6)
C15_3 C 0.75065(13) 0.89136(11) 0.12208(6)
C16_4 C 0.74703(15) 0.88605(12) 0.16679(7)
H9_4 H 0.7207 0.8434 0.1797
C17_3 C 0.78235(17) 0.94391(15) 0.19095(7)
H10_3 H 0.7786 0.9407 0.2204
N6_4 N 0.71392(11) 0.83370(9) 0.09742(5)
N10_4 N 0.70252(11) 0.68081(9) 0.17560(5)
N11_4 N 0.54748(11) 0.68081(9) 0.07440(5)
C10_5 C 0.51390(12) 0.65150(11) 0.01199(6)
N2_5 N 0.48399(12) 0.59384(10) 0.03638(5)
N3_5 N 0.55393(11) 0.70687(9) 0.03452(5)
N5_5 N 0.50646(13) 0.61336(10) 0.07586(5)
C1_5 C 0.46906(13) 0.58944(11) 0.94424(6)
H1_5 H 0.4446 0.5499 0.9606
C2_5 C 0.50949(13) 0.65208(11) 0.96545(6)
C3_5 C 0.54665(14) 0.70971(12) 0.94163(6)
H2_3 H 0.5744 0.7513 0.9548
C4_5 C 0.54273(14) 0.70589(12) 0.89687(6)
C5_5 C 0.50065(13) 0.64136(11) 0.87792(6)
C6_5 C 0.49703(15) 0.63605(12) 0.83321(7)
H3_5 H 0.4707 0.5934 0.8203
C7_5 C 0.53235(17) 0.69391(15) 0.80905(7)
H4_5 H 0.5286 0.6907 0.7796
C8_3 C 0.57401(19) 0.75794(15) 0.82744(8)
H5_3 H 0.5973 0.7968 0.8103
C9_3 C 0.58062(19) 0.76355(13) 0.87041(7)
H6_3 H 0.6101 0.8054 0.8825
N1_5 N 0.46392(11) 0.58370(9) 0.90258(5)
C11_5 C 0.28094(13) 0.58944(11) 0.80576(6)
H7_5 H 0.3054 0.5499 0.7894
C12_4 C 0.24051(13) 0.65208(11) 0.78455(6)
C13_4 C 0.20335(14) 0.70971(12) 0.80837(6)
H8_3 H 0.1756 0.7513 0.7952
C14_4 C 0.20727(14) 0.70589(12) 0.85313(6)
C15_4 C 0.24935(13) 0.64136(11) 0.87208(6)
C16_5 C 0.25297(15) 0.63605(12) 0.91679(7)
H9_5 H 0.2793 0.5934 0.9297
C17_4 C 0.21765(17) 0.69391(15) 0.94095(7)
H10_4 H 0.2214 0.6907 0.9704
C18_3 C 0.17599(19) 0.75794(15) 0.92256(8)
H11_3 H 0.1527 0.7968 0.9397
C19_3 C 0.16938(19) 0.76355(13) 0.87959(7)
H12_3 H 0.1399 0.8054 0.8675
C20_3 C 0.23610(12) 0.65150(11) 0.73801(6)
N6_5 N 0.28608(11) 0.58370(9) 0.84742(5)
N7_4 N 0.26601(12) 0.59384(10) 0.71362(5)
N8_3 N 0.19607(11) 0.70687(9) 0.71548(5)
N12_3 N 0.24354(13) 0.61336(10) 0.67414(5)
C12_5 C 0.00949(13) 0.65208(11) 0.46545(6)
C13_5 C 0.04665(14) 0.70971(12) 0.44163(6)
H8_4 H 0.0744 0.7513 0.4548
C14_5 C 0.04273(14) 0.70589(12) 0.39687(6)
C15_5 C 0.00065(13) 0.64136(11) 0.37792(6)
C17_5 C 0.03235(17) 0.69391(15) 0.30905(7)
H10_5 H 0.0286 0.6907 0.2796
C18_4 C 0.07401(19) 0.75794(15) 0.32744(8)
H11_4 H 0.0973 0.7968 0.3103
C19_4 C 0.08062(19) 0.76355(13) 0.37041(7)
H12_4 H 0.1101 0.8054 0.3825
C20_4 C 0.01390(12) 0.65150(11) 0.51199(6)
N8_4 N 0.05393(11) 0.70687(9) 0.53452(5)
N12_4 N 0.00646(13) 0.61336(10) 0.57586(5)
C1_6 C 0.78094(13) 0.58944(11) 0.30576(6)
H1_6 H 0.8054 0.5499 0.2894
C2_6 C 0.74051(13) 0.65208(11) 0.28455(6)
C3_6 C 0.70335(14) 0.70971(12) 0.30837(6)
H2_4 H 0.6756 0.7513 0.2952
C4_6 C 0.70727(14) 0.70589(12) 0.35313(6)
C5_6 C 0.74935(13) 0.64136(11) 0.37208(6)
C6_6 C 0.75297(15) 0.63605(12) 0.41679(7)
H3_6 H 0.7793 0.5934 0.4297
C7_6 C 0.71765(17) 0.69391(15) 0.44095(7)
H4_6 H 0.7214 0.6907 0.4704
C8_4 C 0.67599(19) 0.75794(15) 0.42256(8)
H5_4 H 0.6527 0.7968 0.4397
C9_4 C 0.66938(19) 0.76355(13) 0.37959(7)
H6_4 H 0.6399 0.8054 0.3675
C10_6 C 0.73610(12) 0.65150(11) 0.23801(6)
N1_6 N 0.78608(11) 0.58370(9) 0.34742(5)
N2_6 N 0.76601(12) 0.59384(10) 0.21362(5)
N3_6 N 0.69607(11) 0.70687(9) 0.21548(5)
N5_6 N 0.74354(13) 0.61336(10) 0.17414(5)
C11_6 C 0.96906(13) 0.58944(11) 0.44424(6)
H7_6 H 0.9446 0.5499 0.4606
C16_6 C 0.99703(15) 0.63605(12) 0.33321(7)
H9_6 H 0.9707 0.5934 0.3203
N6_6 N 0.96392(11) 0.58370(9) 0.40258(5)
N7_5 N 0.98399(12) 0.59384(10) 0.53638(5)
C1_7 C 0.46906(13) 0.08944(11) 0.44424(6)
H1_7 H 0.4446 0.0499 0.4606
C2_7 C 0.50949(13) 0.15208(11) 0.46545(6)
C3_7 C 0.54665(14) 0.20971(12) 0.44163(6)
H2_5 H 0.5744 0.2513 0.4548
C4_7 C 0.54273(14) 0.20589(12) 0.39687(6)
C5_7 C 0.50065(13) 0.14136(11) 0.37792(6)
C6_7 C 0.49703(15) 0.13605(12) 0.33321(7)
H3_7 H 0.4707 0.0934 0.3203
C7_7 C 0.53235(17) 0.19391(15) 0.30905(7)
H4_7 H 0.5286 0.1907 0.2796
C8_5 C 0.57401(19) 0.25794(15) 0.32744(8)
H5_5 H 0.5973 0.2968 0.3103
C9_5 C 0.58062(19) 0.26355(13) 0.37041(7)
H6_5 H 0.6101 0.3054 0.3825
C10_7 C 0.51390(12) 0.15150(11) 0.51199(6)
N1_7 N 0.46392(11) 0.08370(9) 0.40258(5)
N2_7 N 0.48399(12) 0.09384(10) 0.53638(5)
N3_7 N 0.55393(11) 0.20687(9) 0.53452(5)
N5_7 N 0.50646(13) 0.11336(10) 0.57586(5)
C11_7 C 0.28094(13) 0.08944(11) 0.30576(6)
H7_7 H 0.3054 0.0499 0.2894
C12_6 C 0.24051(13) 0.15208(11) 0.28455(6)
C13_6 C 0.20335(14) 0.20971(12) 0.30837(6)
H8_5 H 0.1756 0.2513 0.2952
C14_6 C 0.20727(14) 0.20589(12) 0.35313(6)
C15_6 C 0.24935(13) 0.14136(11) 0.37208(6)
C16_7 C 0.25297(15) 0.13605(12) 0.41679(7)
H9_7 H 0.2793 0.0934 0.4297
C17_6 C 0.21765(17) 0.19391(15) 0.44095(7)
H10_6 H 0.2214 0.1907 0.4704
C18_5 C 0.17599(19) 0.25794(15) 0.42256(8)
H11_5 H 0.1527 0.2968 0.4397
C19_5 C 0.16938(19) 0.26355(13) 0.37959(7)
H12_5 H 0.1399 0.3054 0.3675
C20_5 C 0.23610(12) 0.15150(11) 0.23801(6)
N6_7 N 0.28608(11) 0.08370(9) 0.34742(5)
N7_6 N 0.26601(12) 0.09384(10) 0.21362(5)
N8_5 N 0.19607(11) 0.20687(9) 0.21548(5)
N12_5 N 0.24354(13) 0.11336(10) 0.17414(5)
C20_6 C 0.01390(12) 0.15150(11) 0.01199(6)
N8_6 N 0.05393(11) 0.20687(9) 0.03452(5)
N12_6 N 0.00646(13) 0.11336(10) 0.07586(5)
C1_8 C 0.78094(13) 0.08944(11) 0.80576(6)
H1_8 H 0.8054 0.0499 0.7894
C2_8 C 0.74051(13) 0.15208(11) 0.78455(6)
C3_8 C 0.70335(14) 0.20971(12) 0.80837(6)
H2_6 H 0.6756 0.2513 0.7952
C4_8 C 0.70727(14) 0.20589(12) 0.85313(6)
C5_8 C 0.74935(13) 0.14136(11) 0.87208(6)
C6_8 C 0.75297(15) 0.13605(12) 0.91679(7)
H3_8 H 0.7793 0.0934 0.9297
C7_8 C 0.71765(17) 0.19391(15) 0.94095(7)
H4_8 H 0.7214 0.1907 0.9704
C8_6 C 0.67599(19) 0.25794(15) 0.92256(8)
H5_6 H 0.6527 0.2968 0.9397
C9_6 C 0.66938(19) 0.26355(13) 0.87959(7)
H6_6 H 0.6399 0.3054 0.8675
C10_8 C 0.73610(12) 0.15150(11) 0.73801(6)
N1_8 N 0.78608(11) 0.08370(9) 0.84742(5)
N2_8 N 0.76601(12) 0.09384(10) 0.71362(5)
N3_8 N 0.69607(11) 0.20687(9) 0.71548(5)
N5_8 N 0.74354(13) 0.11336(10) 0.67414(5)
C11_8 C 0.96906(13) 0.08944(11) 0.94424(6)
H7_8 H 0.9446 0.0499 0.9606
C16_8 C 0.99703(15) 0.13605(12) 0.83321(7)
H9_8 H 0.9707 0.0934 0.8203
N6_8 N 0.96392(11) 0.08370(9) 0.90258(5)
C1_9 C 0.53094(13) 0.41056(11) 0.05576(6)
H1_9 H 0.5554 0.4501 0.0394
C2_9 C 0.49051(13) 0.34792(11) 0.03455(6)
C3_9 C 0.45335(14) 0.29029(12) 0.05837(6)
H2_7 H 0.4256 0.2487 0.0452
C4_9 C 0.45727(14) 0.29411(12) 0.10313(6)
C5_9 C 0.49935(13) 0.35864(11) 0.12208(6)
C6_9 C 0.50297(15) 0.36395(12) 0.16679(7)
H3_9 H 0.5293 0.4066 0.1797
C7_9 C 0.46765(17) 0.30609(15) 0.19095(7)
H4_9 H 0.4714 0.3093 0.2204
C8_7 C 0.42599(19) 0.24206(15) 0.17256(8)
H5_7 H 0.4027 0.2032 0.1897
C9_7 C 0.41938(19) 0.23645(13) 0.12959(7)
H6_7 H 0.3899 0.1946 0.1175
Cd1_5 Cd 0.6250 0.512811(10) 0.1250
N1_9 N 0.53608(11) 0.41630(9) 0.09742(5)
C11_9 C 0.71906(13) 0.41056(11) 0.19424(6)
H7_9 H 0.6946 0.4501 0.2106
C12_7 C 0.75949(13) 0.34792(11) 0.21545(6)
C13_7 C 0.79665(14) 0.29029(12) 0.19163(6)
H8_6 H 0.8244 0.2487 0.2048
C14_7 C 0.79273(14) 0.29411(12) 0.14687(6)
C15_7 C 0.75065(13) 0.35864(11) 0.12792(6)
C16_9 C 0.74703(15) 0.36395(12) 0.08321(7)
H9_9 H 0.7207 0.4066 0.0703
C17_7 C 0.78235(17) 0.30609(15) 0.05905(7)
H10_7 H 0.7786 0.3093 0.0296
C18_6 C 0.82401(19) 0.24206(15) 0.07744(8)
H11_6 H 0.8473 0.2032 0.0603
C19_6 C 0.83062(19) 0.23645(13) 0.12041(7)
H12_6 H 0.8601 0.1946 0.1325
C20_7 C 0.76390(12) 0.34850(11) 0.26199(6)
Cd3_2 Cd 0.8750 0.262811(10) 0.3750
N6_9 N 0.71392(11) 0.41630(9) 0.15258(5)
N7_7 N 0.73399(12) 0.40616(10) 0.28638(5)
N8_7 N 0.80393(11) 0.29313(9) 0.28452(5)
N9_3 N 0.79748(11) 0.31919(9) 0.32440(5)
N10_5 N 0.70252(11) 0.56919(9) 0.07440(5)
N11_5 N 0.54748(11) 0.56919(9) 0.17560(5)
N12_7 N 0.75646(13) 0.38664(10) 0.32586(5)
C10_9 C 0.48610(12) 0.34850(11) 0.98801(6)
N2_9 N 0.51601(12) 0.40616(10) 0.96362(5)
N3_9 N 0.44607(11) 0.29313(9) 0.96548(5)
N4_5 N 0.45252(11) 0.31919(9) 0.92560(5)
N5_9 N 0.49354(13) 0.38664(10) 0.92414(5)
Cd2_3 Cd 0.3750 0.262811(10) 0.8750
C1_10 C 0.21906(13) 0.41056(11) 0.69424(6)
H1_10 H 0.1946 0.4501 0.7106
C2_10 C 0.25949(13) 0.34792(11) 0.71545(6)
C3_10 C 0.29665(14) 0.29029(12) 0.69163(6)
H2_8 H 0.3244 0.2487 0.7048
C4_10 C 0.29273(14) 0.29411(12) 0.64687(6)
C5_10 C 0.25065(13) 0.35864(11) 0.62792(6)
C6_10 C 0.24703(15) 0.36395(12) 0.58321(7)
H3_10 H 0.2207 0.4066 0.5703
C7_10 C 0.28235(17) 0.30609(15) 0.55905(7)
H4_10 H 0.2786 0.3093 0.5296
C8_8 C 0.32401(19) 0.24206(15) 0.57744(8)
H5_8 H 0.3473 0.2032 0.5603
C9_8 C 0.33062(19) 0.23645(13) 0.62041(7)
H6_8 H 0.3601 0.1946 0.6325
C10_10 C 0.26390(12) 0.34850(11) 0.76199(6)
Cd1_6 Cd 0.1250 0.512811(10) 0.6250
N1_10 N 0.21392(11) 0.41630(9) 0.65258(5)
N2_10 N 0.23399(12) 0.40616(10) 0.78638(5)
N3_10 N 0.30393(11) 0.29313(9) 0.78452(5)
N4_6 N 0.29748(11) 0.31919(9) 0.82440(5)
N5_10 N 0.25646(13) 0.38664(10) 0.82586(5)
C11_10 C 0.03094(13) 0.41056(11) 0.55576(6)
H7_10 H 0.0554 0.4501 0.5394
C16_10 C 0.00297(15) 0.36395(12) 0.66679(7)
H9_10 H 0.0293 0.4066 0.6797
N6_10 N 0.03608(11) 0.41630(9) 0.59742(5)
N7_8 N 0.01601(12) 0.40616(10) 0.46362(5)
N10_6 N 0.04748(11) 0.56919(9) 0.67560(5)
N11_6 N 0.20252(11) 0.56919(9) 0.57440(5)
C12_8 C 0.99051(13) 0.34792(11) 0.53455(6)
C13_8 C 0.95335(14) 0.29029(12) 0.55837(6)
H8_7 H 0.9256 0.2487 0.5452
C14_8 C 0.95727(14) 0.29411(12) 0.60313(6)
C15_8 C 0.99935(13) 0.35864(11) 0.62208(6)
C17_8 C 0.96765(17) 0.30609(15) 0.69095(7)
H10_8 H 0.9714 0.3093 0.7204
C18_7 C 0.92599(19) 0.24206(15) 0.67256(8)
H11_7 H 0.9027 0.2032 0.6897
C19_7 C 0.91938(19) 0.23645(13) 0.62959(7)
H12_7 H 0.8899 0.1946 0.6175
C20_8 C 0.98610(12) 0.34850(11) 0.48801(6)
N8_8 N 0.94607(11) 0.29313(9) 0.46548(5)
N9_4 N 0.95252(11) 0.31919(9) 0.42560(5)
N12_8 N 0.99354(13) 0.38664(10) 0.42414(5)
Cd1_7 Cd 0.6250 0.012811(10) 0.6250
N10_7 N 0.70252(11) 0.06919(9) 0.57440(5)
N11_7 N 0.54748(11) 0.06919(9) 0.67560(5)
C1_11 C 0.53094(13) 0.91056(11) 0.55576(6)
H1_11 H 0.5554 0.9501 0.5394
C2_11 C 0.49051(13) 0.84792(11) 0.53455(6)
C3_11 C 0.45335(14) 0.79029(12) 0.55837(6)
H2_9 H 0.4256 0.7487 0.5452
C4_11 C 0.45727(14) 0.79411(12) 0.60313(6)
C5_11 C 0.49935(13) 0.85864(11) 0.62208(6)
C6_11 C 0.50297(15) 0.86395(12) 0.66679(7)
H3_11 H 0.5293 0.9066 0.6797
C7_11 C 0.46765(17) 0.80609(15) 0.69095(7)
H4_11 H 0.4714 0.8093 0.7204
C8_9 C 0.42599(19) 0.74206(15) 0.67256(8)
H5_9 H 0.4027 0.7032 0.6897
C9_9 C 0.41938(19) 0.73645(13) 0.62959(7)
H6_9 H 0.3899 0.6946 0.6175
C10_11 C 0.48610(12) 0.84850(11) 0.48801(6)
N1_11 N 0.53608(11) 0.91630(9) 0.59742(5)
N2_11 N 0.51601(12) 0.90616(10) 0.46362(5)
N3_11 N 0.44607(11) 0.79313(9) 0.46548(5)
N4_7 N 0.45252(11) 0.81919(9) 0.42560(5)
N5_11 N 0.49354(13) 0.88664(10) 0.42414(5)
C11_11 C 0.71906(13) 0.91056(11) 0.69424(6)
H7_11 H 0.6946 0.9501 0.7106
C12_9 C 0.75949(13) 0.84792(11) 0.71545(6)
C13_9 C 0.79665(14) 0.79029(12) 0.69163(6)
H8_8 H 0.8244 0.7487 0.7048
C14_9 C 0.79273(14) 0.79411(12) 0.64687(6)
C15_9 C 0.75065(13) 0.85864(11) 0.62792(6)
C16_11 C 0.74703(15) 0.86395(12) 0.58321(7)
H9_11 H 0.7207 0.9066 0.5703
C17_9 C 0.78235(17) 0.80609(15) 0.55905(7)
H10_9 H 0.7786 0.8093 0.5296
C18_8 C 0.82401(19) 0.74206(15) 0.57744(8)
H11_8 H 0.8473 0.7032 0.5603
C19_8 C 0.83062(19) 0.73645(13) 0.62041(7)
H12_8 H 0.8601 0.6946 0.6325
C20_9 C 0.76390(12) 0.84850(11) 0.76199(6)
Cd2_4 Cd 0.3750 0.762811(10) 0.3750
Cd3_3 Cd 0.8750 0.762811(10) 0.8750
N6_11 N 0.71392(11) 0.91630(9) 0.65258(5)
N7_9 N 0.73399(12) 0.90616(10) 0.78638(5)
N8_9 N 0.80393(11) 0.79313(9) 0.78452(5)
N9_5 N 0.79748(11) 0.81919(9) 0.82440(5)
N12_9 N 0.75646(13) 0.88664(10) 0.82586(5)
C1_12 C 0.21906(13) 0.91056(11) 0.19424(6)
H1_12 H 0.1946 0.9501 0.2106
C2_12 C 0.25949(13) 0.84792(11) 0.21545(6)
C3_12 C 0.29665(14) 0.79029(12) 0.19163(6)
H2_10 H 0.3244 0.7487 0.2048
C4_12 C 0.29273(14) 0.79411(12) 0.14687(6)
C5_12 C 0.25065(13) 0.85864(11) 0.12792(6)
C6_12 C 0.24703(15) 0.86395(12) 0.08321(7)
H3_12 H 0.2207 0.9066 0.0703
C7_12 C 0.28235(17) 0.80609(15) 0.05905(7)
H4_12 H 0.2786 0.8093 0.0296
C8_10 C 0.32401(19) 0.74206(15) 0.07744(8)
H5_10 H 0.3473 0.7032 0.0603
C9_10 C 0.33062(19) 0.73645(13) 0.12041(7)
H6_10 H 0.3601 0.6946 0.1325
C10_12 C 0.26390(12) 0.84850(11) 0.26199(6)
N1_12 N 0.21392(11) 0.91630(9) 0.15258(5)
N2_12 N 0.23399(12) 0.90616(10) 0.28638(5)
N3_12 N 0.30393(11) 0.79313(9) 0.28452(5)
N4_8 N 0.29748(11) 0.81919(9) 0.32440(5)
N5_12 N 0.25646(13) 0.88664(10) 0.32586(5)
C11_12 C 0.03094(13) 0.91056(11) 0.05576(6)
H7_12 H 0.0554 0.9501 0.0394
C16_12 C 0.00297(15) 0.86395(12) 0.16679(7)
H9_12 H 0.0293 0.9066 0.1797
N6_12 N 0.03608(11) 0.91630(9) 0.09742(5)
C20_10 C 0.98610(12) 0.84850(11) 0.98801(6)
N8_10 N 0.94607(11) 0.79313(9) 0.96548(5)
N9_6 N 0.95252(11) 0.81919(9) 0.92560(5)
N12_10 N 0.99354(13) 0.88664(10) 0.92414(5)
C12_10 C 0.00949(13) 0.59792(11) 0.78455(6)
C13_10 C 0.04665(14) 0.54029(12) 0.80837(6)
H8_9 H 0.0744 0.4987 0.7952
C14_10 C 0.04273(14) 0.54411(12) 0.85313(6)
C15_10 C 0.00065(13) 0.60864(11) 0.87208(6)
C17_10 C 0.03235(17) 0.55609(15) 0.94095(7)
H10_10 H 0.0286 0.5593 0.9704
C18_9 C 0.07401(19) 0.49206(15) 0.92256(8)
H11_9 H 0.0973 0.4532 0.9397
C19_9 C 0.08062(19) 0.48645(13) 0.87959(7)
H12_9 H 0.1101 0.4446 0.8675
C20_11 C 0.01390(12) 0.59850(11) 0.73801(6)
N8_11 N 0.05393(11) 0.54313(9) 0.71548(5)
N12_11 N 0.00646(13) 0.63664(10) 0.67414(5)
C10_13 C 0.73610(12) 0.59850(11) 0.01199(6)
N2_13 N 0.76601(12) 0.65616(10) 0.03638(5)
N3_13 N 0.69607(11) 0.54313(9) 0.03452(5)
N5_13 N 0.74354(13) 0.63664(10) 0.07586(5)
C1_13 C 0.78094(13) 0.66056(11) 0.94424(6)
H1_13 H 0.8054 0.7001 0.9606
C2_13 C 0.74051(13) 0.59792(11) 0.96545(6)
C3_13 C 0.70335(14) 0.54029(12) 0.94163(6)
H2_11 H 0.6756 0.4987 0.9548
C4_13 C 0.70727(14) 0.54411(12) 0.89687(6)
C5_13 C 0.74935(13) 0.60864(11) 0.87792(6)
C6_13 C 0.75297(15) 0.61395(12) 0.83321(7)
H3_13 H 0.7793 0.6566 0.8203
C7_13 C 0.71765(17) 0.55609(15) 0.80905(7)
H4_13 H 0.7214 0.5593 0.7796
C8_11 C 0.67599(19) 0.49206(15) 0.82744(8)
H5_11 H 0.6527 0.4532 0.8103
C9_11 C 0.66938(19) 0.48645(13) 0.87041(7)
H6_11 H 0.6399 0.4446 0.8825
N1_13 N 0.78608(11) 0.66630(9) 0.90258(5)
C11_13 C 0.96906(13) 0.66056(11) 0.80576(6)
H7_13 H 0.9446 0.7001 0.7894
C16_13 C 0.99703(15) 0.61395(12) 0.91679(7)
H9_13 H 0.9707 0.6566 0.9297
N6_13 N 0.96392(11) 0.66630(9) 0.84742(5)
N7_10 N 0.98399(12) 0.65616(10) 0.71362(5)
C1_14 C 0.46906(13) 0.66056(11) 0.30576(6)
H1_14 H 0.4446 0.7001 0.2894
C2_14 C 0.50949(13) 0.59792(11) 0.28455(6)
C3_14 C 0.54665(14) 0.54029(12) 0.30837(6)
H2_12 H 0.5744 0.4987 0.2952
C4_14 C 0.54273(14) 0.54411(12) 0.35313(6)
C5_14 C 0.50065(13) 0.60864(11) 0.37208(6)
C6_14 C 0.49703(15) 0.61395(12) 0.41679(7)
H3_14 H 0.4707 0.6566 0.4297
C7_14 C 0.53235(17) 0.55609(15) 0.44095(7)
H4_14 H 0.5286 0.5593 0.4704
C8_12 C 0.57401(19) 0.49206(15) 0.42256(8)
H5_12 H 0.5973 0.4532 0.4397
C9_12 C 0.58062(19) 0.48645(13) 0.37959(7)
H6_12 H 0.6101 0.4446 0.3675
C10_14 C 0.51390(12) 0.59850(11) 0.23801(6)
N1_14 N 0.46392(11) 0.66630(9) 0.34742(5)
N2_14 N 0.48399(12) 0.65616(10) 0.21362(5)
N3_14 N 0.55393(11) 0.54313(9) 0.21548(5)
N5_14 N 0.50646(13) 0.63664(10) 0.17414(5)
C11_14 C 0.28094(13) 0.66056(11) 0.44424(6)
H7_14 H 0.3054 0.7001 0.4606
C12_11 C 0.24051(13) 0.59792(11) 0.46545(6)
C13_11 C 0.20335(14) 0.54029(12) 0.44163(6)
H8_10 H 0.1756 0.4987 0.4548
C14_11 C 0.20727(14) 0.54411(12) 0.39687(6)
C15_11 C 0.24935(13) 0.60864(11) 0.37792(6)
C16_14 C 0.25297(15) 0.61395(12) 0.33321(7)
H9_14 H 0.2793 0.6566 0.3203
C17_11 C 0.21765(17) 0.55609(15) 0.30905(7)
H10_11 H 0.2214 0.5593 0.2796
C18_10 C 0.17599(19) 0.49206(15) 0.32744(8)
H11_10 H 0.1527 0.4532 0.3103
C19_10 C 0.16938(19) 0.48645(13) 0.37041(7)
H12_10 H 0.1399 0.4446 0.3825
C20_12 C 0.23610(12) 0.59850(11) 0.51199(6)
N6_14 N 0.28608(11) 0.66630(9) 0.40258(5)
N7_11 N 0.26601(12) 0.65616(10) 0.53638(5)
N8_12 N 0.19607(11) 0.54313(9) 0.53452(5)
N12_12 N 0.24354(13) 0.63664(10) 0.57586(5)
C1_15 C 0.78094(13) 0.16056(11) 0.44424(6)
H1_15 H 0.8054 0.2001 0.4606
C2_15 C 0.74051(13) 0.09792(11) 0.46545(6)
C3_15 C 0.70335(14) 0.04029(12) 0.44163(6)
C4_15 C 0.70727(14) 0.04411(12) 0.39687(6)
C5_15 C 0.74935(13) 0.10864(11) 0.37792(6)
C6_15 C 0.75297(15) 0.11395(12) 0.33321(7)
H3_15 H 0.7793 0.1566 0.3203
C7_15 C 0.71765(17) 0.05609(15) 0.30905(7)
H4_15 H 0.7214 0.0593 0.2796
C10_15 C 0.73610(12) 0.09850(11) 0.51199(6)
N1_15 N 0.78608(11) 0.16630(9) 0.40258(5)
N2_15 N 0.76601(12) 0.15616(10) 0.53638(5)
N3_15 N 0.69607(11) 0.04313(9) 0.53452(5)
N5_15 N 0.74354(13) 0.13664(10) 0.57586(5)
C11_15 C 0.96906(13) 0.16056(11) 0.30576(6)
H7_15 H 0.9446 0.2001 0.2894
C16_15 C 0.99703(15) 0.11395(12) 0.41679(7)
H9_15 H 0.9707 0.1566 0.4297
N6_15 N 0.96392(11) 0.16630(9) 0.34742(5)
N7_12 N 0.98399(12) 0.15616(10) 0.21362(5)
C1_16 C 0.46906(13) 0.16056(11) 0.80576(6)
H1_16 H 0.4446 0.2001 0.7894
C2_16 C 0.50949(13) 0.09792(11) 0.78455(6)
C3_16 C 0.54665(14) 0.04029(12) 0.80837(6)
C4_16 C 0.54273(14) 0.04411(12) 0.85313(6)
C5_16 C 0.50065(13) 0.10864(11) 0.87208(6)
C6_16 C 0.49703(15) 0.11395(12) 0.91679(7)
H3_16 H 0.4707 0.1566 0.9297
C7_16 C 0.53235(17) 0.05609(15) 0.94095(7)
H4_16 H 0.5286 0.0593 0.9704
C10_16 C 0.51390(12) 0.09850(11) 0.73801(6)
N1_16 N 0.46392(11) 0.16630(9) 0.84742(5)
N2_16 N 0.48399(12) 0.15616(10) 0.71362(5)
N3_16 N 0.55393(11) 0.04313(9) 0.71548(5)
N5_16 N 0.50646(13) 0.13664(10) 0.67414(5)
C11_16 C 0.28094(13) 0.16056(11) 0.94424(6)
H7_16 H 0.3054 0.2001 0.9606
C12_12 C 0.24051(13) 0.09792(11) 0.96545(6)
C13_12 C 0.20335(14) 0.04029(12) 0.94163(6)
C14_12 C 0.20727(14) 0.04411(12) 0.89687(6)
C15_12 C 0.24935(13) 0.10864(11) 0.87792(6)
C16_16 C 0.25297(15) 0.11395(12) 0.83321(7)
H9_16 H 0.2793 0.1566 0.8203
C17_12 C 0.21765(17) 0.05609(15) 0.80905(7)
H10_12 H 0.2214 0.0593 0.7796
N6_16 N 0.28608(11) 0.16630(9) 0.90258(5)
H2_13 H 0.3244 0.0013 0.5452
C8_13 C 0.32401(19) 0.00794(15) 0.67256(8)
H5_13 H 0.3473 0.0468 0.6897
C9_13 C 0.33062(19) 0.01355(13) 0.62959(7)
H6_13 H 0.3601 0.0554 0.6175
H8_11 H 0.9256 0.0013 0.7048
C18_11 C 0.92599(19) 0.00794(15) 0.57744(8)
H11_11 H 0.9027 0.0468 0.5603
C19_11 C 0.91938(19) 0.01355(13) 0.62041(7)
H12_11 H 0.8899 0.0554 0.6325
C12_13 C 0.99051(13) 0.90208(11) 0.71545(6)
C13_13 C 0.95335(14) 0.95971(12) 0.69163(6)
C14_13 C 0.95727(14) 0.95589(12) 0.64687(6)
C15_13 C 0.99935(13) 0.89136(11) 0.62792(6)
C17_13 C 0.96765(17) 0.94391(15) 0.55905(7)
H10_13 H 0.9714 0.9407 0.5296
C20_13 C 0.98610(12) 0.90150(11) 0.76199(6)
Cd3_4 Cd 0.8750 0.987189(10) 0.8750
N8_13 N 0.94607(11) 0.95687(9) 0.78452(5)
N9_7 N 0.95252(11) 0.93081(9) 0.82440(5)
N12_13 N 0.99354(13) 0.86336(10) 0.82586(5)
C20_14 C 0.76390(12) 0.90150(11) 0.98801(6)
N7_13 N 0.73399(12) 0.84384(10) 0.96362(5)
N8_14 N 0.80393(11) 0.95687(9) 0.96548(5)
N9_8 N 0.79748(11) 0.93081(9) 0.92560(5)
N12_14 N 0.75646(13) 0.86336(10) 0.92414(5)
H2_14 H 0.4256 0.0013 0.2048
C8_14 C 0.42599(19) 0.00794(15) 0.07744(8)
H5_14 H 0.4027 0.0468 0.0603
C9_14 C 0.41938(19) 0.01355(13) 0.12041(7)
H6_14 H 0.3899 0.0554 0.1325
H8_12 H 0.8244 0.0013 0.0452
C18_12 C 0.82401(19) 0.00794(15) 0.17256(8)
H11_12 H 0.8473 0.0468 0.1897
C19_12 C 0.83062(19) 0.01355(13) 0.12959(7)
H12_12 H 0.8601 0.0554 0.1175
Cd1_8 Cd 0.1250 0.012811(10) 0.1250
N10_8 N 0.04748(11) 0.06919(9) 0.17560(5)
N11_8 N 0.20252(11) 0.06919(9) 0.07440(5)
C12_14 C 0.00949(13) 0.09792(11) 0.28455(6)
C13_14 C 0.04665(14) 0.04029(12) 0.30837(6)
C14_14 C 0.04273(14) 0.04411(12) 0.35313(6)
C15_14 C 0.00065(13) 0.10864(11) 0.37208(6)
C17_14 C 0.03235(17) 0.05609(15) 0.44095(7)
H10_14 H 0.0286 0.0593 0.4704
C20_15 C 0.01390(12) 0.09850(11) 0.23801(6)
N8_15 N 0.05393(11) 0.04313(9) 0.21548(5)
N12_15 N 0.00646(13) 0.13664(10) 0.17414(5)
C20_16 C 0.23610(12) 0.09850(11) 0.01199(6)
N7_14 N 0.26601(12) 0.15616(10) 0.03638(5)
N8_16 N 0.19607(11) 0.04313(9) 0.03452(5)
N12_16 N 0.24354(13) 0.13664(10) 0.07586(5)
N7_15 N 0.01601(12) 0.90616(10) 0.96362(5)
C12_15 C 0.99051(13) 0.84792(11) 0.03455(6)
C13_15 C 0.95335(14) 0.79029(12) 0.05837(6)
H8_13 H 0.9256 0.7487 0.0452
C14_15 C 0.95727(14) 0.79411(12) 0.10313(6)
C15_15 C 0.99935(13) 0.85864(11) 0.12208(6)
C17_15 C 0.96765(17) 0.80609(15) 0.19095(7)
H10_15 H 0.9714 0.8093 0.2204
C18_13 C 0.92599(19) 0.74206(15) 0.17256(8)
H11_13 H 0.9027 0.7032 0.1897
C19_13 C 0.91938(19) 0.73645(13) 0.12959(7)
H12_13 H 0.8899 0.6946 0.1175
H8_14 H 0.0744 0.9987 0.2952
C18_14 C 0.07401(19) 0.99206(15) 0.42256(8)
H11_14 H 0.0973 0.9532 0.4397
C19_14 C 0.08062(19) 0.98645(13) 0.37959(7)
H12_14 H 0.1101 0.9446 0.3675
H2_15 H 0.6756 0.9987 0.4548
C8_15 C 0.67599(19) 0.99206(15) 0.32744(8)
H5_15 H 0.6527 0.9532 0.3103
C9_15 C 0.66938(19) 0.98645(13) 0.37041(7)
H6_15 H 0.6399 0.9446 0.3825
H2_16 H 0.5744 0.9987 0.7952
C8_16 C 0.57401(19) 0.99206(15) 0.92256(8)
H5_16 H 0.5973 0.9532 0.9397
C9_16 C 0.58062(19) 0.98645(13) 0.87959(7)
H6_16 H 0.6101 0.9446 0.8675
H8_15 H 0.1756 0.9987 0.9548
C18_15 C 0.17599(19) 0.99206(15) 0.82744(8)
H11_15 H 0.1527 0.9532 0.8103
C19_15 C 0.16938(19) 0.98645(13) 0.87041(7)
H12_15 H 0.1399 0.9446 0.8825
C12_16 C 0.00949(13) 0.15208(11) 0.96545(6)
C13_16 C 0.04665(14) 0.20971(12) 0.94163(6)
H8_16 H 0.0744 0.2513 0.9548
C14_16 C 0.04273(14) 0.20589(12) 0.89687(6)
C15_16 C 0.00065(13) 0.14136(11) 0.87792(6)
C17_16 C 0.03235(17) 0.19391(15) 0.80905(7)
H10_16 H 0.0286 0.1907 0.7796
C18_16 C 0.07401(19) 0.25794(15) 0.82744(8)
H11_16 H 0.0973 0.2968 0.8103
C19_16 C 0.08062(19) 0.26355(13) 0.87041(7)
H12_16 H 0.1101 0.3054 0.8825
N7_16 N 0.98399(12) 0.09384(10) 0.03638(5)
loop_
_geom_bond_atom_site_label_1
_geom_bond_atom_site_label_2
_geom_bond_site_symmetry_1
_geom_bond_site_symmetry_2
C1 H1 1_555 1_555
C2 C1 1_555 1_555
C3 C2 1_555 1_555
H2 C3 1_555 1_555
C4 C3 1_555 1_555
C5 C4 1_555 1_555
C6 C5 1_555 1_555
H3 C6 1_555 1_555
C7 C6 1_555 1_555
H4 C7 1_555 1_555
C8 C7 1_555 1_555
H5 C8 1_555 1_555
C9 C4 1_555 1_555
H6 C9 1_555 1_555
Cd1 N1 1_555 1_555
N1 C1 1_555 1_555
C11 H7 1_555 1_555
H9 C16 1_555 1_555
N6 Cd1 1_555 1_555
N10 Cd1 1_555 1_555
N11 Cd1 1_555 1_555
C5 N1 1_555 1_555
C8 C9 1_555 1_555
C11 N6 1_555 1_555
N2 C10 1_555 1_555
N3 C10 1_555 1_555
N4 N3 1_555 1_555
N5 N2 1_555 1_555
Cd2 N4 1_555 1_555
N4 N5 1_555 1_555
C13 C12 1_555 1_555
H8 C13 1_555 1_555
C14 C13 1_555 1_555
C15 C14 1_555 1_555
H10 C17 1_555 1_555
C18 C17 1_555 1_555
H11 C18 1_555 1_555
C19 C14 1_555 1_555
H12 C19 1_555 1_555
C20 C12 1_555 1_555
Cd3 N9 1_555 1_555
N8 C20 1_555 1_555
N9 N8 1_555 1_555
C18 C19 1_555 1_555
N9 N12 1_555 1_555
C1_2 H1_2 1_555 1_555
C2_2 C1_2 1_555 1_555
C3_2 C2_2 1_555 1_555
H2_2 C3_2 1_555 1_555
C4_2 C3_2 1_555 1_555
C5_2 C4_2 1_555 1_555
C6_2 C5_2 1_555 1_555
H3_2 C6_2 1_555 1_555
C7_2 C6_2 1_555 1_555
H4_2 C7_2 1_555 1_555
C8_2 C7_2 1_555 1_555
H5_2 C8_2 1_555 1_555
C9_2 C4_2 1_555 1_555
H6_2 C9_2 1_555 1_555
C10_2 C2_2 1_555 1_555
Cd1_2 N1_2 1_555 1_555
N1_2 C1_2 1_555 1_555
N2_2 C10_2 1_555 1_555
N3_2 C10_2 1_555 1_555
N4_2 N3_2 1_555 1_555
N5_2 N2_2 1_555 1_555
C11_2 H7_2 1_555 1_555
C12_2 C11_2 1_555 1_555
C13_2 C12_2 1_555 1_555
H8_2 C13_2 1_555 1_555
C14_2 C13_2 1_555 1_555
C15_2 C14_2 1_555 1_555
C16_2 C15_2 1_555 1_555
H9_2 C16_2 1_555 1_555
C17_2 C16_2 1_555 1_555
H10_2 C17_2 1_555 1_555
C18_2 C17_2 1_555 1_555
H11_2 C18_2 1_555 1_555
C19_2 C14_2 1_555 1_555
H12_2 C19_2 1_555 1_555
C20_2 C12_2 1_555 1_555
Cd2 N4_2 1_555 1_555
Cd3 N9_2 1_555 1_555
N6_2 Cd1_2 1_555 1_555
N7_2 C20_2 1_555 1_555
N8_2 C20_2 1_555 1_555
N9_2 N8_2 1_555 1_555
N10_2 Cd1_2 1_555 1_555
N11_2 Cd1_2 1_555 1_555
N12_2 N7_2 1_555 1_555
C5_2 N1_2 1_555 1_555
C8_2 C9_2 1_555 1_555
N4_2 N5_2 1_555 1_555
C11_2 N6_2 1_555 1_555
C15_2 N6_2 1_555 1_555
C18_2 C19_2 1_555 1_555
N9_2 N12_2 1_555 1_555
C1_3 H1_3 1_555 1_555
C2_3 C1_3 1_555 1_555
C3_3 C2_3 1_555 1_555
C4_3 C3_3 1_555 1_555
C5_3 C4_3 1_555 1_555
C6_3 C5_3 1_555 1_555
H3_3 C6_3 1_555 1_555
C7_3 C6_3 1_555 1_555
H4_3 C7_3 1_555 1_555
C10_3 C2_3 1_555 1_555
Cd1_3 N1_3 1_555 1_555
N1_3 C1_3 1_555 1_555
N2_3 C10_3 1_555 1_555
N3_3 C10_3 1_555 1_555
N4_3 N3_3 1_555 1_555
N5_3 N2_3 1_555 1_555
C11_3 H7_3 1_555 1_555
H9_3 C16_3 1_555 1_555
Cd2_2 N4_3 1_555 1_555
N6_3 Cd1_3 1_555 1_555
N10_3 Cd1_3 1_555 1_555
N11_3 Cd1_3 1_555 1_555
C5_3 N1_3 1_555 1_555
N4_3 N5_3 1_555 1_555
C11_3 N6_3 1_555 1_555
C1_4 H1_4 1_555 1_555
C2_4 C1_4 1_555 1_555
C3_4 C2_4 1_555 1_555
C4_4 C3_4 1_555 1_555
C5_4 C4_4 1_555 1_555
C6_4 C5_4 1_555 1_555
H3_4 C6_4 1_555 1_555
C7_4 C6_4 1_555 1_555
H4_4 C7_4 1_555 1_555
C10_4 C2_4 1_555 1_555
Cd1_4 N1_4 1_555 1_555
N1_4 C1_4 1_555 1_555
N2_4 C10_4 1_555 1_555
N3_4 C10_4 1_555 1_555
N4_4 N3_4 1_555 1_555
N5_4 N2_4 1_555 1_555
C11_4 H7_4 1_555 1_555
C12_3 C11_4 1_555 1_555
C13_3 C12_3 1_555 1_555
C14_3 C13_3 1_555 1_555
C15_3 C14_3 1_555 1_555
C16_4 C15_3 1_555 1_555
H9_4 C16_4 1_555 1_555
C17_3 C16_4 1_555 1_555
H10_3 C17_3 1_555 1_555
Cd2_2 N4_4 1_555 1_555
N6_4 Cd1_4 1_555 1_555
N10_4 Cd1_4 1_555 1_555
N11_4 Cd1_4 1_555 1_555
C5_4 N1_4 1_555 1_555
N4_4 N5_4 1_555 1_555
C11_4 N6_4 1_555 1_555
C15_3 N6_4 1_555 1_555
N2_5 C10_5 1_555 1_555
N3_5 C10_5 1_555 1_555
N11_4 N3_5 1_555 1_555
N5_5 N2_5 1_555 1_555
N11_4 N5_5 1_555 1_555
C1_5 H1_5 1_555 1_555
C2_5 C1_5 1_555 1_555
C3_5 C2_5 1_555 1_555
H2_3 C3_5 1_555 1_555
C4_5 C3_5 1_555 1_555
C5_5 C4_5 1_555 1_555
C6_5 C5_5 1_555 1_555
H3_5 C6_5 1_555 1_555
C7_5 C6_5 1_555 1_555
H4_5 C7_5 1_555 1_555
C8_3 C7_5 1_555 1_555
H5_3 C8_3 1_555 1_555
C9_3 C4_5 1_555 1_555
H6_3 C9_3 1_555 1_555
Cd2 N1_5 1_555 1_555
N1_5 C1_5 1_555 1_555
C11_5 H7_5 1_555 1_555
C12_4 C11_5 1_555 1_555
C13_4 C12_4 1_555 1_555
H8_3 C13_4 1_555 1_555
C14_4 C13_4 1_555 1_555
C15_4 C14_4 1_555 1_555
C16_5 C15_4 1_555 1_555
H9_5 C16_5 1_555 1_555
C17_4 C16_5 1_555 1_555
H10_4 C17_4 1_555 1_555
C18_3 C17_4 1_555 1_555
H11_3 C18_3 1_555 1_555
C19_3 C14_4 1_555 1_555
H12_3 C19_3 1_555 1_555
C20_3 C12_4 1_555 1_555
N6_5 Cd2 1_555 1_555
N7_4 C20_3 1_555 1_555
N8_3 C20_3 1_555 1_555
N11_3 N8_3 1_555 1_555
N12_3 N7_4 1_555 1_555
C5_5 N1_5 1_555 1_555
C8_3 C9_3 1_555 1_555
C11_5 N6_5 1_555 1_555
C15_4 N6_5 1_555 1_555
C18_3 C19_3 1_555 1_555
N11_3 N12_3 1_555 1_555
C13_5 C12_5 1_555 1_555
H8_4 C13_5 1_555 1_555
C14_5 C13_5 1_555 1_555
C15_5 C14_5 1_555 1_555
H10_5 C17_5 1_555 1_555
C18_4 C17_5 1_555 1_555
H11_4 C18_4 1_555 1_555
C19_4 C14_5 1_555 1_555
H12_4 C19_4 1_555 1_555
C20_4 C12_5 1_555 1_555
N8_4 C20_4 1_555 1_555
N10_3 N8_4 1_555 1_555
C18_4 C19_4 1_555 1_555
N10_3 N12_4 1_555 1_555
C1_6 H1_6 1_555 1_555
C2_6 C1_6 1_555 1_555
C3_6 C2_6 1_555 1_555
H2_4 C3_6 1_555 1_555
C4_6 C3_6 1_555 1_555
C5_6 C4_6 1_555 1_555
C6_6 C5_6 1_555 1_555
H3_6 C6_6 1_555 1_555
C7_6 C6_6 1_555 1_555
H4_6 C7_6 1_555 1_555
C8_4 C7_6 1_555 1_555
H5_4 C8_4 1_555 1_555
C9_4 C4_6 1_555 1_555
H6_4 C9_4 1_555 1_555
C10_6 C2_6 1_555 1_555
Cd3 N1_6 1_555 1_555
N1_6 C1_6 1_555 1_555
N2_6 C10_6 1_555 1_555
N3_6 C10_6 1_555 1_555
N10_4 N3_6 1_555 1_555
N5_6 N2_6 1_555 1_555
C11_6 H7_6 1_555 1_555
H9_6 C16_6 1_555 1_555
N6_6 Cd3 1_555 1_555
C5_6 N1_6 1_555 1_555
C8_4 C9_4 1_555 1_555
N10_4 N5_6 1_555 1_555
C11_6 N6_6 1_555 1_555
C1_7 H1_7 1_555 1_555
C2_7 C1_7 1_555 1_555
C3_7 C2_7 1_555 1_555
H2_5 C3_7 1_555 1_555
C4_7 C3_7 1_555 1_555
C5_7 C4_7 1_555 1_555
C6_7 C5_7 1_555 1_555
H3_7 C6_7 1_555 1_555
C7_7 C6_7 1_555 1_555
H4_7 C7_7 1_555 1_555
C8_5 C7_7 1_555 1_555
H5_5 C8_5 1_555 1_555
C9_5 C4_7 1_555 1_555
H6_5 C9_5 1_555 1_555
C10_7 C2_7 1_555 1_555
N1_7 C1_7 1_555 1_555
N2_7 C10_7 1_555 1_555
N3_7 C10_7 1_555 1_555
N11_2 N3_7 1_555 1_555
N5_7 N2_7 1_555 1_555
C11_7 H7_7 1_555 1_555
C12_6 C11_7 1_555 1_555
C13_6 C12_6 1_555 1_555
H8_5 C13_6 1_555 1_555
C14_6 C13_6 1_555 1_555
C15_6 C14_6 1_555 1_555
C16_7 C15_6 1_555 1_555
H9_7 C16_7 1_555 1_555
C17_6 C16_7 1_555 1_555
H10_6 C17_6 1_555 1_555
C18_5 C17_6 1_555 1_555
H11_5 C18_5 1_555 1_555
C19_5 C14_6 1_555 1_555
H12_5 C19_5 1_555 1_555
C20_5 C12_6 1_555 1_555
N7_6 C20_5 1_555 1_555
N8_5 C20_5 1_555 1_555
N11 N8_5 1_555 1_555
N12_5 N7_6 1_555 1_555
C5_7 N1_7 1_555 1_555
C8_5 C9_5 1_555 1_555
N11_2 N5_7 1_555 1_555
C11_7 N6_7 1_555 1_555
C15_6 N6_7 1_555 1_555
C18_5 C19_5 1_555 1_555
N11 N12_5 1_555 1_555
N8_6 C20_6 1_555 1_555
N10 N8_6 1_555 1_555
N10 N12_6 1_555 1_555
C1_8 H1_8 1_555 1_555
C2_8 C1_8 1_555 1_555
C3_8 C2_8 1_555 1_555
H2_6 C3_8 1_555 1_555
C4_8 C3_8 1_555 1_555
C5_8 C4_8 1_555 1_555
C6_8 C5_8 1_555 1_555
H3_8 C6_8 1_555 1_555
C7_8 C6_8 1_555 1_555
H4_8 C7_8 1_555 1_555
C8_6 C7_8 1_555 1_555
H5_6 C8_6 1_555 1_555
C9_6 C4_8 1_555 1_555
H6_6 C9_6 1_555 1_555
C10_8 C2_8 1_555 1_555
N1_8 C1_8 1_555 1_555
N2_8 C10_8 1_555 1_555
N3_8 C10_8 1_555 1_555
N10_2 N3_8 1_555 1_555
N5_8 N2_8 1_555 1_555
C11_8 H7_8 1_555 1_555
H9_8 C16_8 1_555 1_555
C5_8 N1_8 1_555 1_555
C8_6 C9_6 1_555 1_555
N10_2 N5_8 1_555 1_555
C11_8 N6_8 1_555 1_555
C1_9 H1_9 1_555 1_555
C2_9 C1_9 1_555 1_555
C3_9 C2_9 1_555 1_555
H2_7 C3_9 1_555 1_555
C4_9 C3_9 1_555 1_555
C5_9 C4_9 1_555 1_555
C6_9 C5_9 1_555 1_555
H3_9 C6_9 1_555 1_555
C7_9 C6_9 1_555 1_555
H4_9 C7_9 1_555 1_555
C8_7 C7_9 1_555 1_555
H5_7 C8_7 1_555 1_555
C9_7 C4_9 1_555 1_555
H6_7 C9_7 1_555 1_555
Cd1_5 N1_9 1_555 1_555
N1_9 C1_9 1_555 1_555
C11_9 H7_9 1_555 1_555
C12_7 C11_9 1_555 1_555
C13_7 C12_7 1_555 1_555
H8_6 C13_7 1_555 1_555
C14_7 C13_7 1_555 1_555
C15_7 C14_7 1_555 1_555
C16_9 C15_7 1_555 1_555
H9_9 C16_9 1_555 1_555
C17_7 C16_9 1_555 1_555
H10_7 C17_7 1_555 1_555
C18_6 C17_7 1_555 1_555
H11_6 C18_6 1_555 1_555
C19_6 C14_7 1_555 1_555
H12_6 C19_6 1_555 1_555
C20_7 C12_7 1_555 1_555
Cd3_2 N9_3 1_555 1_555
N6_9 Cd1_5 1_555 1_555
N7_7 C20_7 1_555 1_555
N8_7 C20_7 1_555 1_555
N9_3 N8_7 1_555 1_555
N10_5 Cd1_5 1_555 1_555
N11_5 Cd1_5 1_555 1_555
N12_7 N7_7 1_555 1_555
C5_9 N1_9 1_555 1_555
C8_7 C9_7 1_555 1_555
C11_9 N6_9 1_555 1_555
C15_7 N6_9 1_555 1_555
C18_6 C19_6 1_555 1_555
N9_3 N12_7 1_555 1_555
N2_9 C10_9 1_555 1_555
N3_9 C10_9 1_555 1_555
N4_5 N3_9 1_555 1_555
N5_9 N2_9 1_555 1_555
Cd2_3 N4_5 1_555 1_555
N4_5 N5_9 1_555 1_555
C1_10 H1_10 1_555 1_555
C2_10 C1_10 1_555 1_555
C3_10 C2_10 1_555 1_555
H2_8 C3_10 1_555 1_555
C4_10 C3_10 1_555 1_555
C5_10 C4_10 1_555 1_555
C6_10 C5_10 1_555 1_555
H3_10 C6_10 1_555 1_555
C7_10 C6_10 1_555 1_555
H4_10 C7_10 1_555 1_555
C8_8 C7_10 1_555 1_555
H5_8 C8_8 1_555 1_555
C9_8 C4_10 1_555 1_555
H6_8 C9_8 1_555 1_555
C10_10 C2_10 1_555 1_555
Cd1_6 N1_10 1_555 1_555
N1_10 C1_10 1_555 1_555
N2_10 C10_10 1_555 1_555
N3_10 C10_10 1_555 1_555
N4_6 N3_10 1_555 1_555
N5_10 N2_10 1_555 1_555
C11_10 H7_10 1_555 1_555
H9_10 C16_10 1_555 1_555
Cd2_3 N4_6 1_555 1_555
N6_10 Cd1_6 1_555 1_555
N10_6 Cd1_6 1_555 1_555
N11_6 Cd1_6 1_555 1_555
C5_10 N1_10 1_555 1_555
C8_8 C9_8 1_555 1_555
N4_6 N5_10 1_555 1_555
C11_10 N6_10 1_555 1_555
C13_8 C12_8 1_555 1_555
H8_7 C13_8 1_555 1_555
C14_8 C13_8 1_555 1_555
C15_8 C14_8 1_555 1_555
H10_8 C17_8 1_555 1_555
C18_7 C17_8 1_555 1_555
H11_7 C18_7 1_555 1_555
C19_7 C14_8 1_555 1_555
H12_7 C19_7 1_555 1_555
C20_8 C12_8 1_555 1_555
Cd3_2 N9_4 1_555 1_555
N8_8 C20_8 1_555 1_555
N9_4 N8_8 1_555 1_555
C18_7 C19_7 1_555 1_555
N9_4 N12_8 1_555 1_555
N10_7 Cd1_7 1_555 1_555
N11_7 Cd1_7 1_555 1_555
C1_11 H1_11 1_555 1_555
C2_11 C1_11 1_555 1_555
C3_11 C2_11 1_555 1_555
H2_9 C3_11 1_555 1_555
C4_11 C3_11 1_555 1_555
C5_11 C4_11 1_555 1_555
C6_11 C5_11 1_555 1_555
H3_11 C6_11 1_555 1_555
C7_11 C6_11 1_555 1_555
H4_11 C7_11 1_555 1_555
C8_9 C7_11 1_555 1_555
H5_9 C8_9 1_555 1_555
C9_9 C4_11 1_555 1_555
H6_9 C9_9 1_555 1_555
C10_11 C2_11 1_555 1_555
N1_11 C1_11 1_555 1_555
N2_11 C10_11 1_555 1_555
N3_11 C10_11 1_555 1_555
N4_7 N3_11 1_555 1_555
N5_11 N2_11 1_555 1_555
C11_11 H7_11 1_555 1_555
C12_9 C11_11 1_555 1_555
C13_9 C12_9 1_555 1_555
H8_8 C13_9 1_555 1_555
C14_9 C13_9 1_555 1_555
C15_9 C14_9 1_555 1_555
C16_11 C15_9 1_555 1_555
H9_11 C16_11 1_555 1_555
C17_9 C16_11 1_555 1_555
H10_9 C17_9 1_555 1_555
C18_8 C17_9 1_555 1_555
H11_8 C18_8 1_555 1_555
C19_8 C14_9 1_555 1_555
H12_8 C19_8 1_555 1_555
C20_9 C12_9 1_555 1_555
Cd2_4 N4_7 1_555 1_555
Cd3_3 N9_5 1_555 1_555
N7_9 C20_9 1_555 1_555
N8_9 C20_9 1_555 1_555
N9_5 N8_9 1_555 1_555
N12_9 N7_9 1_555 1_555
C5_11 N1_11 1_555 1_555
C8_9 C9_9 1_555 1_555
N4_7 N5_11 1_555 1_555
C11_11 N6_11 1_555 1_555
C15_9 N6_11 1_555 1_555
C18_8 C19_8 1_555 1_555
N9_5 N12_9 1_555 1_555
C1_12 H1_12 1_555 1_555
C2_12 C1_12 1_555 1_555
C3_12 C2_12 1_555 1_555
H2_10 C3_12 1_555 1_555
C4_12 C3_12 1_555 1_555
C5_12 C4_12 1_555 1_555
C6_12 C5_12 1_555 1_555
H3_12 C6_12 1_555 1_555
C7_12 C6_12 1_555 1_555
H4_12 C7_12 1_555 1_555
C8_10 C7_12 1_555 1_555
H5_10 C8_10 1_555 1_555
C9_10 C4_12 1_555 1_555
H6_10 C9_10 1_555 1_555
C10_12 C2_12 1_555 1_555
N1_12 C1_12 1_555 1_555
N2_12 C10_12 1_555 1_555
N3_12 C10_12 1_555 1_555
N4_8 N3_12 1_555 1_555
N5_12 N2_12 1_555 1_555
C11_12 H7_12 1_555 1_555
H9_12 C16_12 1_555 1_555
Cd2_4 N4_8 1_555 1_555
C5_12 N1_12 1_555 1_555
C8_10 C9_10 1_555 1_555
N4_8 N5_12 1_555 1_555
C11_12 N6_12 1_555 1_555
Cd3_3 N9_6 1_555 1_555
N8_10 C20_10 1_555 1_555
N9_6 N8_10 1_555 1_555
N9_6 N12_10 1_555 1_555
C13_10 C12_10 1_555 1_555
H8_9 C13_10 1_555 1_555
C14_10 C13_10 1_555 1_555
C15_10 C14_10 1_555 1_555
H10_10 C17_10 1_555 1_555
C18_9 C17_10 1_555 1_555
H11_9 C18_9 1_555 1_555
C19_9 C14_10 1_555 1_555
H12_9 C19_9 1_555 1_555
C20_11 C12_10 1_555 1_555
N8_11 C20_11 1_555 1_555
N10_6 N8_11 1_555 1_555
C18_9 C19_9 1_555 1_555
N10_6 N12_11 1_555 1_555
N2_13 C10_13 1_555 1_555
N3_13 C10_13 1_555 1_555
N10_5 N3_13 1_555 1_555
N5_13 N2_13 1_555 1_555
N10_5 N5_13 1_555 1_555
C1_13 H1_13 1_555 1_555
C2_13 C1_13 1_555 1_555
C3_13 C2_13 1_555 1_555
H2_11 C3_13 1_555 1_555
C4_13 C3_13 1_555 1_555
C5_13 C4_13 1_555 1_555
C6_13 C5_13 1_555 1_555
H3_13 C6_13 1_555 1_555
C7_13 C6_13 1_555 1_555
H4_13 C7_13 1_555 1_555
C8_11 C7_13 1_555 1_555
H5_11 C8_11 1_555 1_555
C9_11 C4_13 1_555 1_555
H6_11 C9_11 1_555 1_555
Cd3_3 N1_13 1_555 1_555
N1_13 C1_13 1_555 1_555
C11_13 H7_13 1_555 1_555
H9_13 C16_13 1_555 1_555
N6_13 Cd3_3 1_555 1_555
C5_13 N1_13 1_555 1_555
C8_11 C9_11 1_555 1_555
C11_13 N6_13 1_555 1_555
C1_14 H1_14 1_555 1_555
C2_14 C1_14 1_555 1_555
C3_14 C2_14 1_555 1_555
H2_12 C3_14 1_555 1_555
C4_14 C3_14 1_555 1_555
C5_14 C4_14 1_555 1_555
C6_14 C5_14 1_555 1_555
H3_14 C6_14 1_555 1_555
C7_14 C6_14 1_555 1_555
H4_14 C7_14 1_555 1_555
C8_12 C7_14 1_555 1_555
H5_12 C8_12 1_555 1_555
C9_12 C4_14 1_555 1_555
H6_12 C9_12 1_555 1_555
C10_14 C2_14 1_555 1_555
Cd2_4 N1_14 1_555 1_555
N1_14 C1_14 1_555 1_555
N2_14 C10_14 1_555 1_555
N3_14 C10_14 1_555 1_555
N11_5 N3_14 1_555 1_555
N5_14 N2_14 1_555 1_555
C11_14 H7_14 1_555 1_555
C12_11 C11_14 1_555 1_555
C13_11 C12_11 1_555 1_555
H8_10 C13_11 1_555 1_555
C14_11 C13_11 1_555 1_555
C15_11 C14_11 1_555 1_555
C16_14 C15_11 1_555 1_555
H9_14 C16_14 1_555 1_555
C17_11 C16_14 1_555 1_555
H10_11 C17_11 1_555 1_555
C18_10 C17_11 1_555 1_555
H11_10 C18_10 1_555 1_555
C19_10 C14_11 1_555 1_555
H12_10 C19_10 1_555 1_555
C20_12 C12_11 1_555 1_555
N6_14 Cd2_4 1_555 1_555
N7_11 C20_12 1_555 1_555
N8_12 C20_12 1_555 1_555
N11_6 N8_12 1_555 1_555
N12_12 N7_11 1_555 1_555
C5_14 N1_14 1_555 1_555
C8_12 C9_12 1_555 1_555
N11_5 N5_14 1_555 1_555
C11_14 N6_14 1_555 1_555
C15_11 N6_14 1_555 1_555
C18_10 C19_10 1_555 1_555
N11_6 N12_12 1_555 1_555
C1_15 H1_15 1_555 1_555
C2_15 C1_15 1_555 1_555
C3_15 C2_15 1_555 1_555
C4_15 C3_15 1_555 1_555
C5_15 C4_15 1_555 1_555
C6_15 C5_15 1_555 1_555
H3_15 C6_15 1_555 1_555
C7_15 C6_15 1_555 1_555
H4_15 C7_15 1_555 1_555
C10_15 C2_15 1_555 1_555
Cd3_2 N1_15 1_555 1_555
N1_15 C1_15 1_555 1_555
N2_15 C10_15 1_555 1_555
N3_15 C10_15 1_555 1_555
N10_7 N3_15 1_555 1_555
N5_15 N2_15 1_555 1_555
C11_15 H7_15 1_555 1_555
H9_15 C16_15 1_555 1_555
N6_15 Cd3_2 1_555 1_555
C5_15 N1_15 1_555 1_555
N10_7 N5_15 1_555 1_555
C11_15 N6_15 1_555 1_555
C1_16 H1_16 1_555 1_555
C2_16 C1_16 1_555 1_555
C3_16 C2_16 1_555 1_555
C4_16 C3_16 1_555 1_555
C5_16 C4_16 1_555 1_555
C6_16 C5_16 1_555 1_555
H3_16 C6_16 1_555 1_555
C7_16 C6_16 1_555 1_555
H4_16 C7_16 1_555 1_555
C10_16 C2_16 1_555 1_555
Cd2_3 N1_16 1_555 1_555
N1_16 C1_16 1_555 1_555
N2_16 C10_16 1_555 1_555
N3_16 C10_16 1_555 1_555
N11_7 N3_16 1_555 1_555
N5_16 N2_16 1_555 1_555
C11_16 H7_16 1_555 1_555
C12_12 C11_16 1_555 1_555
C13_12 C12_12 1_555 1_555
C14_12 C13_12 1_555 1_555
C15_12 C14_12 1_555 1_555
C16_16 C15_12 1_555 1_555
H9_16 C16_16 1_555 1_555
C17_12 C16_16 1_555 1_555
H10_12 C17_12 1_555 1_555
N6_16 Cd2_3 1_555 1_555
C5_16 N1_16 1_555 1_555
N11_7 N5_16 1_555 1_555
C11_16 N6_16 1_555 1_555
C15_12 N6_16 1_555 1_555
H5_13 C8_13 1_555 1_555
H6_13 C9_13 1_555 1_555
C8_13 C9_13 1_555 1_555
H11_11 C18_11 1_555 1_555
H12_11 C19_11 1_555 1_555
C18_11 C19_11 1_555 1_555
C13_13 C12_13 1_555 1_555
C14_13 C13_13 1_555 1_555
C15_13 C14_13 1_555 1_555
H10_13 C17_13 1_555 1_555
C20_13 C12_13 1_555 1_555
Cd3_4 N9_7 1_555 1_555
N8_13 C20_13 1_555 1_555
N9_7 N8_13 1_555 1_555
N9_7 N12_13 1_555 1_555
Cd3_4 N9_8 1_555 1_555
N7_13 C20_14 1_555 1_555
N8_14 C20_14 1_555 1_555
N9_8 N8_14 1_555 1_555
N12_14 N7_13 1_555 1_555
N9_8 N12_14 1_555 1_555
H5_14 C8_14 1_555 1_555
H6_14 C9_14 1_555 1_555
H11_12 C18_12 1_555 1_555
H12_12 C19_12 1_555 1_555
C8_14 C9_14 1_555 1_555
C18_12 C19_12 1_555 1_555
N10_8 Cd1_8 1_555 1_555
N11_8 Cd1_8 1_555 1_555
C13_14 C12_14 1_555 1_555
C14_14 C13_14 1_555 1_555
C15_14 C14_14 1_555 1_555
H10_14 C17_14 1_555 1_555
C20_15 C12_14 1_555 1_555
N8_15 C20_15 1_555 1_555
N10_8 N8_15 1_555 1_555
N10_8 N12_15 1_555 1_555
N7_14 C20_16 1_555 1_555
N8_16 C20_16 1_555 1_555
N11_8 N8_16 1_555 1_555
N12_16 N7_14 1_555 1_555
N11_8 N12_16 1_555 1_555
C13_15 C12_15 1_555 1_555
H8_13 C13_15 1_555 1_555
C14_15 C13_15 1_555 1_555
C15_15 C14_15 1_555 1_555
H10_15 C17_15 1_555 1_555
C18_13 C17_15 1_555 1_555
H11_13 C18_13 1_555 1_555
C19_13 C14_15 1_555 1_555
H12_13 C19_13 1_555 1_555
C18_13 C19_13 1_555 1_555
H11_14 C18_14 1_555 1_555
H12_14 C19_14 1_555 1_555
C18_14 C19_14 1_555 1_555
H5_15 C8_15 1_555 1_555
H6_15 C9_15 1_555 1_555
C8_15 C9_15 1_555 1_555
H5_16 C8_16 1_555 1_555
H6_16 C9_16 1_555 1_555
H11_15 C18_15 1_555 1_555
H12_15 C19_15 1_555 1_555
C8_16 C9_16 1_555 1_555
C18_15 C19_15 1_555 1_555
C13_16 C12_16 1_555 1_555
H8_16 C13_16 1_555 1_555
C14_16 C13_16 1_555 1_555
C15_16 C14_16 1_555 1_555
H10_16 C17_16 1_555 1_555
C18_16 C17_16 1_555 1_555
H11_16 C18_16 1_555 1_555
C19_16 C14_16 1_555 1_555
H12_16 C19_16 1_555 1_555
C18_16 C19_16 1_555 1_555

#END
