
###############################################################################
#
# This file contains modified crystal structure data generated from the
# MOF subset of the Cambridge Structural Database (CSD) v543 
# hosted by the Cambridge Crystallographic Data Centre (CCDC).
#
# This work is licensed under the Creative Commons
# Attribution-NonCommercial-ShareAlike 4.0 International License.
# To view a copy of this license, visit
# http://creativecommons.org/licenses/by-nc-sa/4.0/
# or send a letter to
# Creative Commons, PO Box 1866, Mountain View, CA 94042, USA.
#
# CIF created using the CSD Python API on 29 September 2022
# The structure has been converted into the P1 space group
# The structure has a 3D framework
# The original CSD entry NESKUU is in the monoclinic crystal system
# The framework has been calculated to contain at least 10.0% void space
# The void calculation uses a probe of radius 1.32A, grid spacing 0.4
#
###############################################################################

data_NESKUU
_chemical_formula_moiety         '(C264 H152 Cd14 N24 O56)n'
_symmetry_cell_setting           triclinic
_symmetry_space_group_name_H-M   'P 1'
_symmetry_Int_Tables_number      1
_space_group_name_Hall           'P 1'
loop_
_symmetry_equiv_pos_site_id
_symmetry_equiv_pos_as_xyz
1 x,y,z
_cell_length_a                   16.6470(11)
_cell_length_b                   22.5429(15)
_cell_length_c                   17.8939(11)
_cell_angle_alpha                90
_cell_angle_beta                 90.444(2)
_cell_angle_gamma                90
_cell_volume                     6714.87
loop_
_atom_site_label
_atom_site_type_symbol
_atom_site_fract_x
_atom_site_fract_y
_atom_site_fract_z
Cd1 Cd 0.28062(2) 0.30803(2) 0.26824(2)
Cd2 Cd 0.5000 0.38808(2) 0.2500
C8 C 0.3803(2) 0.33040(16) 0.00503(18)
C9 C 0.39123(19) 0.29242(14) 0.06546(16)
C10 C 0.4246(2) 0.31478(15) 0.13942(17)
C11 C 0.3738(2) 0.23337(15) 0.05632(18)
H5 H 0.3807 0.2076 0.0964
C16 C 0.4038(4) 0.2103(2) 0.3405(3)
H8 H 0.4404 0.2274 0.3079
C17 C 0.4280(5) 0.1607(3) 0.3828(5)
H9 H 0.4788 0.1442 0.3779
C18 C 0.3724(7) 0.1379(3) 0.4321(4)
H10 H 0.3866 0.1054 0.4612
C19 C 0.2971(6) 0.1615(3) 0.4397(3)
C20 C 0.2781(4) 0.2099(2) 0.3939(2)
C21 C 0.2372(7) 0.1393(4) 0.4916(4)
H11 H 0.2492 0.1072 0.5222
C22 C 0.2006(4) 0.2349(3) 0.3994(2)
C23 C 0.1660(7) 0.1646(5) 0.4953(5)
H12 H 0.1285 0.1501 0.5290
C24 C 0.1463(6) 0.2117(4) 0.4506(3)
C25 C 0.0734(7) 0.2362(5) 0.4543(5)
H13 H 0.0364 0.2210 0.4878
C26 C 0.0528(5) 0.2811(5) 0.4122(6)
H14 H 0.0020 0.2979 0.4157
C27 C 0.1110(4) 0.3041(3) 0.3601(4)
H15 H 0.0972 0.3358 0.3294
C28 C 0.4624(3) 0.52703(19) 0.2306(2)
C29 C 0.3608(3) 0.4733(2) 0.1738(3)
H16 H 0.3398 0.4369 0.1589
C30 C 0.3180(4) 0.5252(4) 0.1564(4)
H17 H 0.2690 0.5238 0.1310
C31 C 0.3513(5) 0.5778(4) 0.1782(4)
H18 H 0.3235 0.6127 0.1685
C32 C 0.4241(4) 0.5810(2) 0.2139(3)
C33 C 0.4632(5) 0.6352(3) 0.2345(5)
H19 H 0.4371 0.6711 0.2261
N1 N 0.1828(2) 0.2807(2) 0.3554(2)
N2 N 0.3320(2) 0.23321(16) 0.34499(18)
N3 N 0.4297(2) 0.47444(15) 0.21042(17)
O1 O 0.39857(17) 0.29554(16) 0.19827(13)
O2 O 0.4810(2) 0.35049(13) 0.13711(15)
O5 O 0.4001(2) 0.38897(12) 0.01575(17)
C34 C 0.5376(3) 0.52703(19) 0.2694(2)
C35 C 0.6392(3) 0.4733(2) 0.3262(3)
H20 H 0.6602 0.4369 0.3411
C36 C 0.6820(4) 0.5252(4) 0.3436(4)
H21 H 0.7310 0.5238 0.3690
C37 C 0.6487(5) 0.5778(4) 0.3218(4)
H22 H 0.6765 0.6127 0.3315
C38 C 0.5759(4) 0.5810(2) 0.2861(3)
C39 C 0.5368(5) 0.6352(3) 0.2655(5)
H23 H 0.5629 0.6711 0.2739
N4 N 0.5703(2) 0.47444(15) 0.28958(17)
Cd3 Cd 0.71938(2) 0.30803(2) 0.23176(2)
C40 C 0.6988(3) 0.5796(2) 0.6683(2)
C41 C 0.6741(3) 0.52700(17) 0.6207(2)
C42 C 0.5965(3) 0.51911(18) 0.6004(2)
H24 H 0.5584 0.5468 0.6153
C43 C 0.7303(3) 0.4879(2) 0.5950(3)
H25 H 0.7841 0.4926 0.6080
C44 C 0.7065(3) 0.4405(2) 0.5489(3)
H26 H 0.7446 0.4146 0.5297
C45 C 0.5723(3) 0.47125(18) 0.5583(2)
H27 H 0.5181 0.4655 0.5475
C46 C 0.6278(3) 0.43262(17) 0.5328(2)
C47 C 0.6197(2) 0.33040(16) 0.49497(18)
C48 C 0.60877(19) 0.29242(14) 0.43454(16)
C49 C 0.5754(2) 0.31478(15) 0.36058(17)
C50 C 0.6262(2) 0.23337(15) 0.44368(18)
H28 H 0.6193 0.2076 0.4036
C51 C 0.6538(2) 0.21135(15) 0.51167(19)
H29 H 0.6644 0.1711 0.5172
C52 C 0.6653(2) 0.24952(16) 0.57091(18)
C53 C 0.6473(2) 0.30885(16) 0.56269(18)
H30 H 0.6537 0.3345 0.6030
C54 C 0.7004(2) 0.2290(2) 0.6446(2)
C55 C 0.5962(4) 0.2103(2) 0.1595(3)
H31 H 0.5596 0.2274 0.1921
C56 C 0.5720(5) 0.1607(3) 0.1172(5)
H32 H 0.5212 0.1442 0.1221
C57 C 0.6276(7) 0.1379(3) 0.0679(4)
H33 H 0.6134 0.1054 0.0388
C58 C 0.7029(6) 0.1615(3) 0.0603(3)
C59 C 0.7219(4) 0.2099(2) 0.1061(2)
C60 C 0.7628(7) 0.1393(4) 0.0084(4)
C61 C 0.7994(4) 0.2349(3) 0.1006(2)
C62 C 0.8340(7) 0.1646(5) 0.0047(5)
C63 C 0.8537(6) 0.2117(4) 0.0494(3)
C64 C 0.9266(7) 0.2362(5) 0.0457(5)
H36 H 0.9636 0.2210 0.0122
C65 C 0.9472(5) 0.2811(5) 0.0878(6)
H37 H 0.9980 0.2979 0.0843
C66 C 0.8890(4) 0.3041(3) 0.1399(4)
H38 H 0.9028 0.3358 0.1706
N5 N 0.8172(2) 0.2807(2) 0.1446(2)
N6 N 0.6680(2) 0.23321(16) 0.15501(18)
O8 O 0.60143(17) 0.29554(16) 0.30173(13)
O9 O 0.5190(2) 0.35049(13) 0.36289(15)
O10 O 0.71077(18) 0.17442(14) 0.65528(16)
O11 O 0.72079(19) 0.26750(14) 0.69140(15)
O12 O 0.5999(2) 0.38897(12) 0.48425(17)
O13 O 0.7693(2) 0.58629(17) 0.6860(2)
O14 O 0.6446(2) 0.61581(12) 0.68631(16)
Cd4 Cd 0.71938(2) 0.69197(2) 0.73176(2)
Cd7 Cd 0.78062(2) 0.19197(2) 0.76824(2)
Cd9 Cd 0.5000 0.61192(2) 0.7500
O15 O 0.21077(18) 0.32558(14) 0.15528(16)
O16 O 0.78923(18) 0.32558(14) 0.34472(16)
O17 O 0.22079(19) 0.23250(14) 0.19140(15)
O18 O 0.77921(19) 0.23250(14) 0.30860(15)
O19 O 0.7693(2) 0.41371(17) 0.1860(2)
O20 O 0.2307(2) 0.41371(17) 0.3140(2)
O21 O 0.6446(2) 0.38419(12) 0.18631(16)
O22 O 0.3554(2) 0.38419(12) 0.31369(16)
C1 C 0.3012(3) 0.5796(2) 0.8317(2)
C2 C 0.3259(3) 0.52700(17) 0.8793(2)
C3 C 0.4035(3) 0.51911(18) 0.8996(2)
H1 H 0.4416 0.5468 0.8847
C4 C 0.2697(3) 0.4879(2) 0.9050(3)
H2 H 0.2159 0.4926 0.8920
C5 C 0.2935(3) 0.4405(2) 0.9511(3)
H3 H 0.2554 0.4146 0.9703
C6 C 0.4277(3) 0.47125(18) 0.9417(2)
H4 H 0.4819 0.4655 0.9525
C7 C 0.3722(3) 0.43262(17) 0.9672(2)
C12 C 0.3462(2) 0.21135(15) 0.98833(19)
H6 H 0.3356 0.1711 0.9828
C13 C 0.3347(2) 0.24952(16) 0.92909(18)
C14 C 0.3527(2) 0.30885(16) 0.93731(18)
H7 H 0.3463 0.3345 0.8970
C15 C 0.2996(2) 0.2290(2) 0.8554(2)
O3 O 0.28923(18) 0.17442(14) 0.84472(16)
O4 O 0.27921(19) 0.26750(14) 0.80860(15)
O6 O 0.2307(2) 0.58629(17) 0.8140(2)
O7 O 0.3554(2) 0.61581(12) 0.81369(16)
H34 H 0.7508 0.1072 0.9778
H35 H 0.8715 0.1501 0.9710
Cd5 Cd 0.28062(2) 0.69197(2) 0.76824(2)
Cd6 Cd 0.21938(2) 0.19197(2) 0.73176(2)
C34_2 C 0.0376(3) 0.02703(19) 0.2694(2)
C36_2 C 0.1820(4) 0.0252(4) 0.3436(4)
H21_2 H 0.2310 0.0238 0.3690
C37_2 C 0.1487(5) 0.0778(4) 0.3218(4)
H22_2 H 0.1765 0.1127 0.3315
C38_2 C 0.0759(4) 0.0810(2) 0.2861(3)
C39_2 C 0.0368(5) 0.1352(3) 0.2655(5)
H23_2 H 0.0629 0.1711 0.2739
C40_2 C 0.1988(3) 0.0796(2) 0.6683(2)
C41_2 C 0.1741(3) 0.02700(17) 0.6207(2)
C42_2 C 0.0965(3) 0.01911(18) 0.6004(2)
H24_2 H 0.0584 0.0468 0.6153
O13_2 O 0.2693(2) 0.08629(17) 0.6860(2)
O14_2 O 0.1446(2) 0.11581(12) 0.68631(16)
Cd9_2 Cd 0.0000 0.11192(2) 0.7500
Cd2_2 Cd -0.0000 0.88808(2) 0.2500
C35_2 C 0.1392(3) 0.9733(2) 0.3262(3)
H20_2 H 0.1602 0.9369 0.3411
N4_2 N 0.0703(2) 0.97444(15) 0.28958(17)
Cd3_2 Cd 0.21938(2) 0.80803(2) 0.23176(2)
C43_2 C 0.2303(3) 0.9879(2) 0.5950(3)
H25_2 H 0.2841 0.9926 0.6080
C44_2 C 0.2065(3) 0.9405(2) 0.5489(3)
H26_2 H 0.2446 0.9146 0.5297
C45_2 C 0.0723(3) 0.97125(18) 0.5583(2)
H27_2 H 0.0181 0.9655 0.5475
C46_2 C 0.1278(3) 0.93262(17) 0.5328(2)
C47_2 C 0.1197(2) 0.83040(16) 0.49497(18)
C48_2 C 0.10877(19) 0.79242(14) 0.43454(16)
C49_2 C 0.0754(2) 0.81478(15) 0.36058(17)
C50_2 C 0.1262(2) 0.73337(15) 0.44368(18)
H28_2 H 0.1193 0.7076 0.4036
C51_2 C 0.1538(2) 0.71135(15) 0.51167(19)
H29_2 H 0.1644 0.6711 0.5172
C52_2 C 0.1653(2) 0.74952(16) 0.57091(18)
C53_2 C 0.1473(2) 0.80885(16) 0.56269(18)
H30_2 H 0.1537 0.8345 0.6030
C54_2 C 0.2004(2) 0.7290(2) 0.6446(2)
C55_2 C 0.0962(4) 0.7103(2) 0.1595(3)
H31_2 H 0.0596 0.7274 0.1921
C56_2 C 0.0720(5) 0.6607(3) 0.1172(5)
H32_2 H 0.0212 0.6442 0.1221
C57_2 C 0.1276(7) 0.6379(3) 0.0679(4)
H33_2 H 0.1134 0.6054 0.0388
C58_2 C 0.2029(6) 0.6615(3) 0.0603(3)
C59_2 C 0.2219(4) 0.7099(2) 0.1061(2)
C60_2 C 0.2628(7) 0.6393(4) 0.0084(4)
C61_2 C 0.2994(4) 0.7349(3) 0.1006(2)
C62_2 C 0.3340(7) 0.6646(5) 0.0047(5)
C63_2 C 0.3537(6) 0.7117(4) 0.0494(3)
C64_2 C 0.4266(7) 0.7362(5) 0.0457(5)
H36_2 H 0.4636 0.7210 0.0122
C65_2 C 0.4472(5) 0.7811(5) 0.0878(6)
H37_2 H 0.4980 0.7979 0.0843
C66_2 C 0.3890(4) 0.8041(3) 0.1399(4)
H38_2 H 0.4028 0.8358 0.1706
N5_2 N 0.3172(2) 0.7807(2) 0.1446(2)
N6_2 N 0.1680(2) 0.73321(16) 0.15501(18)
O8_2 O 0.10143(17) 0.79554(16) 0.30173(13)
O9_2 O 0.0190(2) 0.85049(13) 0.36289(15)
O10_2 O 0.21077(18) 0.67442(14) 0.65528(16)
O11_2 O 0.22079(19) 0.76750(14) 0.69140(15)
O12_2 O 0.0999(2) 0.88897(12) 0.48425(17)
O16_2 O 0.28923(18) 0.82558(14) 0.34472(16)
O18_2 O 0.27921(19) 0.73250(14) 0.30860(15)
O19_2 O 0.2693(2) 0.91371(17) 0.1860(2)
O21_2 O 0.1446(2) 0.88419(12) 0.18631(16)
C28_2 C 0.9624(3) 0.02703(19) 0.2306(2)
C30_2 C 0.8180(4) 0.0252(4) 0.1564(4)
H17_2 H 0.7690 0.0238 0.1310
C31_2 C 0.8513(5) 0.0778(4) 0.1782(4)
H18_2 H 0.8235 0.1127 0.1685
C32_2 C 0.9241(4) 0.0810(2) 0.2139(3)
C33_2 C 0.9632(5) 0.1352(3) 0.2345(5)
H19_2 H 0.9371 0.1711 0.2261
Cd9_3 Cd 1.0000 0.11192(2) 0.7500
C1_2 C 0.8012(3) 0.0796(2) 0.8317(2)
C2_2 C 0.8259(3) 0.02700(17) 0.8793(2)
C3_2 C 0.9035(3) 0.01911(18) 0.8996(2)
H1_2 H 0.9416 0.0468 0.8847
O6_2 O 0.7307(2) 0.08629(17) 0.8140(2)
O7_2 O 0.8554(2) 0.11581(12) 0.81369(16)
Cd1_2 Cd 0.78062(2) 0.80803(2) 0.26824(2)
Cd2_3 Cd 1.0000 0.88808(2) 0.2500
C8_2 C 0.8803(2) 0.83040(16) 0.00503(18)
C9_2 C 0.89123(19) 0.79242(14) 0.06546(16)
C10_2 C 0.9246(2) 0.81478(15) 0.13942(17)
C11_2 C 0.8738(2) 0.73337(15) 0.05632(18)
H5_2 H 0.8807 0.7076 0.0964
C16_2 C 0.9038(4) 0.7103(2) 0.3405(3)
H8_2 H 0.9404 0.7274 0.3079
C17_2 C 0.9280(5) 0.6607(3) 0.3828(5)
H9_2 H 0.9788 0.6442 0.3779
C18_2 C 0.8724(7) 0.6379(3) 0.4321(4)
H10_2 H 0.8866 0.6054 0.4612
C19_2 C 0.7971(6) 0.6615(3) 0.4397(3)
C20_2 C 0.7781(4) 0.7099(2) 0.3939(2)
C21_2 C 0.7372(7) 0.6393(4) 0.4916(4)
H11_2 H 0.7492 0.6072 0.5222
C22_2 C 0.7006(4) 0.7349(3) 0.3994(2)
C23_2 C 0.6660(7) 0.6646(5) 0.4953(5)
H12_2 H 0.6285 0.6501 0.5290
C24_2 C 0.6463(6) 0.7117(4) 0.4506(3)
C25_2 C 0.5734(7) 0.7362(5) 0.4543(5)
H13_2 H 0.5364 0.7210 0.4878
C26_2 C 0.5528(5) 0.7811(5) 0.4122(6)
H14_2 H 0.5020 0.7979 0.4157
C27_2 C 0.6110(4) 0.8041(3) 0.3601(4)
H15_2 H 0.5972 0.8358 0.3294
C29_2 C 0.8608(3) 0.9733(2) 0.1738(3)
H16_2 H 0.8398 0.9369 0.1589
N1_2 N 0.6828(2) 0.7807(2) 0.3554(2)
N2_2 N 0.8320(2) 0.73321(16) 0.34499(18)
N3_2 N 0.9297(2) 0.97444(15) 0.21042(17)
O1_2 O 0.89857(17) 0.79554(16) 0.19827(13)
O2_2 O 0.9810(2) 0.85049(13) 0.13711(15)
O5_2 O 0.9001(2) 0.88897(12) 0.01575(17)
O15_2 O 0.71077(18) 0.82558(14) 0.15528(16)
O17_2 O 0.72079(19) 0.73250(14) 0.19140(15)
O20_2 O 0.7307(2) 0.91371(17) 0.3140(2)
O22_2 O 0.8554(2) 0.88419(12) 0.31369(16)
C4_2 C 0.7697(3) 0.9879(2) 0.9050(3)
H2_2 H 0.7159 0.9926 0.8920
C5_2 C 0.7935(3) 0.9405(2) 0.9511(3)
H3_2 H 0.7554 0.9146 0.9703
C6_2 C 0.9277(3) 0.97125(18) 0.9417(2)
H4_2 H 0.9819 0.9655 0.9525
C7_2 C 0.8722(3) 0.93262(17) 0.9672(2)
C12_2 C 0.8462(2) 0.71135(15) 0.98833(19)
H6_2 H 0.8356 0.6711 0.9828
C13_2 C 0.8347(2) 0.74952(16) 0.92909(18)
C14_2 C 0.8527(2) 0.80885(16) 0.93731(18)
H7_2 H 0.8463 0.8345 0.8970
C15_2 C 0.7996(2) 0.7290(2) 0.8554(2)
O3_2 O 0.78923(18) 0.67442(14) 0.84472(16)
O4_2 O 0.77921(19) 0.76750(14) 0.80860(15)
C1_3 C 0.6988(3) 0.4204(2) 0.1683(2)
C2_3 C 0.6741(3) 0.47300(17) 0.1207(2)
C3_3 C 0.5965(3) 0.48089(18) 0.1004(2)
H1_3 H 0.5584 0.4532 0.1153
C4_3 C 0.7303(3) 0.5121(2) 0.0950(3)
H2_3 H 0.7841 0.5074 0.1080
C5_3 C 0.7065(3) 0.5595(2) 0.0489(3)
H3_3 H 0.7446 0.5854 0.0297
C6_3 C 0.5723(3) 0.52875(18) 0.0583(2)
H4_3 H 0.5181 0.5345 0.0475
C7_3 C 0.6278(3) 0.56738(17) 0.0328(2)
C12_3 C 0.6538(2) 0.78865(15) 0.01167(19)
H6_3 H 0.6644 0.8289 0.0172
C13_3 C 0.6653(2) 0.75048(16) 0.07091(18)
C14_3 C 0.6473(2) 0.69115(16) 0.06269(18)
H7_3 H 0.6537 0.6655 0.1030
C15_3 C 0.7004(2) 0.7710(2) 0.1446(2)
H34_2 H 0.2492 0.8928 0.0222
H35_2 H 0.1285 0.8499 0.0290
C8_3 C 0.6197(2) 0.66960(16) 0.99497(18)
C9_3 C 0.60877(19) 0.70758(14) 0.93454(16)
C10_3 C 0.5754(2) 0.68522(15) 0.86058(17)
C11_3 C 0.6262(2) 0.76663(15) 0.94368(18)
H5_3 H 0.6193 0.7924 0.9036
C16_3 C 0.5962(4) 0.7897(2) 0.6595(3)
H8_3 H 0.5596 0.7726 0.6921
C17_3 C 0.5720(5) 0.8393(3) 0.6172(5)
H9_3 H 0.5212 0.8558 0.6221
C18_3 C 0.6276(7) 0.8621(3) 0.5679(4)
H10_3 H 0.6134 0.8946 0.5388
C19_3 C 0.7029(6) 0.8385(3) 0.5603(3)
C20_3 C 0.7219(4) 0.7901(2) 0.6061(2)
C21_3 C 0.7628(7) 0.8607(4) 0.5084(4)
H11_3 H 0.7508 0.8928 0.4778
C22_3 C 0.7994(4) 0.7651(3) 0.6006(2)
C23_3 C 0.8340(7) 0.8354(5) 0.5047(5)
H12_3 H 0.8715 0.8499 0.4710
C24_3 C 0.8537(6) 0.7883(4) 0.5494(3)
C25_3 C 0.9266(7) 0.7638(5) 0.5457(5)
H13_3 H 0.9636 0.7790 0.5122
C26_3 C 0.9472(5) 0.7189(5) 0.5878(6)
H14_3 H 0.9980 0.7021 0.5843
C27_3 C 0.8890(4) 0.6959(3) 0.6399(4)
H15_3 H 0.9028 0.6642 0.6706
C28_3 C 0.5376(3) 0.47297(19) 0.7694(2)
C29_3 C 0.6392(3) 0.5267(2) 0.8262(3)
H16_3 H 0.6602 0.5631 0.8411
C30_3 C 0.6820(4) 0.4748(4) 0.8436(4)
H17_3 H 0.7310 0.4762 0.8690
C31_3 C 0.6487(5) 0.4222(4) 0.8218(4)
H18_3 H 0.6765 0.3873 0.8315
C32_3 C 0.5759(4) 0.4190(2) 0.7861(3)
C33_3 C 0.5368(5) 0.3648(3) 0.7655(5)
H19_3 H 0.5629 0.3289 0.7739
N1_3 N 0.8172(2) 0.7193(2) 0.6446(2)
N2_3 N 0.6680(2) 0.76679(16) 0.65501(18)
N3_3 N 0.5703(2) 0.52556(15) 0.78958(17)
O1_3 O 0.60143(17) 0.70446(16) 0.80173(13)
O2_3 O 0.5190(2) 0.64951(13) 0.86289(15)
O5_3 O 0.5999(2) 0.61103(12) 0.98425(17)
C34_3 C 0.4624(3) 0.47297(19) 0.7306(2)
C35_3 C 0.3608(3) 0.5267(2) 0.6738(3)
H20_3 H 0.3398 0.5631 0.6589
C36_3 C 0.3180(4) 0.4748(4) 0.6564(4)
H21_3 H 0.2690 0.4762 0.6310
C37_3 C 0.3513(5) 0.4222(4) 0.6782(4)
H22_3 H 0.3235 0.3873 0.6685
C38_3 C 0.4241(4) 0.4190(2) 0.7139(3)
C39_3 C 0.4632(5) 0.3648(3) 0.7345(5)
H23_3 H 0.4371 0.3289 0.7261
N4_3 N 0.4297(2) 0.52556(15) 0.71042(17)
C40_3 C 0.3012(3) 0.4204(2) 0.3317(2)
C41_3 C 0.3259(3) 0.47300(17) 0.3793(2)
C42_3 C 0.4035(3) 0.48089(18) 0.3996(2)
H24_3 H 0.4416 0.4532 0.3847
C43_3 C 0.2697(3) 0.5121(2) 0.4050(3)
H25_3 H 0.2159 0.5074 0.3920
C44_3 C 0.2935(3) 0.5595(2) 0.4511(3)
H26_3 H 0.2554 0.5854 0.4703
C45_3 C 0.4277(3) 0.52875(18) 0.4417(2)
H27_3 H 0.4819 0.5345 0.4525
C46_3 C 0.3722(3) 0.56738(17) 0.4672(2)
C47_3 C 0.3803(2) 0.66960(16) 0.50503(18)
C48_3 C 0.39123(19) 0.70758(14) 0.56546(16)
C49_3 C 0.4246(2) 0.68522(15) 0.63942(17)
C50_3 C 0.3738(2) 0.76663(15) 0.55632(18)
H28_3 H 0.3807 0.7924 0.5964
C51_3 C 0.3462(2) 0.78865(15) 0.48833(19)
H29_3 H 0.3356 0.8289 0.4828
C52_3 C 0.3347(2) 0.75048(16) 0.42909(18)
C53_3 C 0.3527(2) 0.69115(16) 0.43731(18)
H30_3 H 0.3463 0.6655 0.3970
C54_3 C 0.2996(2) 0.7710(2) 0.3554(2)
C55_3 C 0.4038(4) 0.7897(2) 0.8405(3)
H31_3 H 0.4404 0.7726 0.8079
C56_3 C 0.4280(5) 0.8393(3) 0.8828(5)
H32_3 H 0.4788 0.8558 0.8779
C57_3 C 0.3724(7) 0.8621(3) 0.9321(4)
H33_3 H 0.3866 0.8946 0.9612
C58_3 C 0.2971(6) 0.8385(3) 0.9397(3)
C59_3 C 0.2781(4) 0.7901(2) 0.8939(2)
C60_3 C 0.2372(7) 0.8607(4) 0.9916(4)
C61_3 C 0.2006(4) 0.7651(3) 0.8994(2)
C62_3 C 0.1660(7) 0.8354(5) 0.9953(5)
C63_3 C 0.1463(6) 0.7883(4) 0.9506(3)
C64_3 C 0.0734(7) 0.7638(5) 0.9543(5)
H36_3 H 0.0364 0.7790 0.9878
C65_3 C 0.0528(5) 0.7189(5) 0.9122(6)
H37_3 H 0.0020 0.7021 0.9157
C66_3 C 0.1110(4) 0.6959(3) 0.8601(4)
H38_3 H 0.0972 0.6642 0.8294
N5_3 N 0.1828(2) 0.7193(2) 0.8554(2)
N6_3 N 0.3320(2) 0.76679(16) 0.84499(18)
O8_3 O 0.39857(17) 0.70446(16) 0.69827(13)
O9_3 O 0.4810(2) 0.64951(13) 0.63711(15)
O12_3 O 0.4001(2) 0.61103(12) 0.51575(17)
C4_4 C 0.2303(3) 0.0121(2) 0.0950(3)
H2_4 H 0.2841 0.0074 0.1080
C5_4 C 0.2065(3) 0.0595(2) 0.0489(3)
H3_4 H 0.2446 0.0854 0.0297
C6_4 C 0.0723(3) 0.02875(18) 0.0583(2)
H4_4 H 0.0181 0.0345 0.0475
C7_4 C 0.1278(3) 0.06738(17) 0.0328(2)
C12_4 C 0.1538(2) 0.28865(15) 0.01167(19)
H6_4 H 0.1644 0.3289 0.0172
C13_4 C 0.1653(2) 0.25048(16) 0.07091(18)
C14_4 C 0.1473(2) 0.19115(16) 0.06269(18)
H7_4 H 0.1537 0.1655 0.1030
C15_4 C 0.2004(2) 0.2710(2) 0.1446(2)
C8_4 C 0.1197(2) 0.16960(16) 0.99497(18)
C9_4 C 0.10877(19) 0.20758(14) 0.93454(16)
C10_4 C 0.0754(2) 0.18522(15) 0.86058(17)
C11_4 C 0.1262(2) 0.26663(15) 0.94368(18)
H5_4 H 0.1193 0.2924 0.9036
C16_4 C 0.0962(4) 0.2897(2) 0.6595(3)
H8_4 H 0.0596 0.2726 0.6921
C17_4 C 0.0720(5) 0.3393(3) 0.6172(5)
H9_4 H 0.0212 0.3558 0.6221
C18_4 C 0.1276(7) 0.3621(3) 0.5679(4)
H10_4 H 0.1134 0.3946 0.5388
C19_4 C 0.2029(6) 0.3385(3) 0.5603(3)
C20_4 C 0.2219(4) 0.2901(2) 0.6061(2)
C21_4 C 0.2628(7) 0.3607(4) 0.5084(4)
H11_4 H 0.2508 0.3928 0.4778
C22_4 C 0.2994(4) 0.2651(3) 0.6006(2)
C23_4 C 0.3340(7) 0.3354(5) 0.5047(5)
H12_4 H 0.3715 0.3499 0.4710
C24_4 C 0.3537(6) 0.2883(4) 0.5494(3)
C25_4 C 0.4266(7) 0.2638(5) 0.5457(5)
H13_4 H 0.4636 0.2790 0.5122
C26_4 C 0.4472(5) 0.2189(5) 0.5878(6)
H14_4 H 0.4980 0.2021 0.5843
C27_4 C 0.3890(4) 0.1959(3) 0.6399(4)
H15_4 H 0.4028 0.1642 0.6706
C29_4 C 0.1392(3) 0.0267(2) 0.8262(3)
H16_4 H 0.1602 0.0631 0.8411
N1_4 N 0.3172(2) 0.2193(2) 0.6446(2)
N2_4 N 0.1680(2) 0.26679(16) 0.65501(18)
N3_4 N 0.0703(2) 0.02556(15) 0.78958(17)
O1_4 O 0.10143(17) 0.20446(16) 0.80173(13)
O2_4 O 0.0190(2) 0.14951(13) 0.86289(15)
O5_4 O 0.0999(2) 0.11103(12) 0.98425(17)
C1_4 C 0.1988(3) 0.9204(2) 0.1683(2)
C2_4 C 0.1741(3) 0.97300(17) 0.1207(2)
C3_4 C 0.0965(3) 0.98089(18) 0.1004(2)
H1_4 H 0.0584 0.9532 0.1153
C28_4 C 0.0376(3) 0.97297(19) 0.7694(2)
C30_4 C 0.1820(4) 0.9748(4) 0.8436(4)
H17_4 H 0.2310 0.9762 0.8690
C31_4 C 0.1487(5) 0.9222(4) 0.8218(4)
H18_4 H 0.1765 0.8873 0.8315
C32_4 C 0.0759(4) 0.9190(2) 0.7861(3)
C33_4 C 0.0368(5) 0.8648(3) 0.7655(5)
H19_4 H 0.0629 0.8289 0.7739
C35_4 C 0.8608(3) 0.0267(2) 0.6738(3)
H20_4 H 0.8398 0.0631 0.6589
N4_4 N 0.9297(2) 0.02556(15) 0.71042(17)
C43_4 C 0.7697(3) 0.0121(2) 0.4050(3)
H25_4 H 0.7159 0.0074 0.3920
C44_4 C 0.7935(3) 0.0595(2) 0.4511(3)
H26_4 H 0.7554 0.0854 0.4703
C45_4 C 0.9277(3) 0.02875(18) 0.4417(2)
H27_4 H 0.9819 0.0345 0.4525
C46_4 C 0.8722(3) 0.06738(17) 0.4672(2)
C47_4 C 0.8803(2) 0.16960(16) 0.50503(18)
C48_4 C 0.89123(19) 0.20758(14) 0.56546(16)
C49_4 C 0.9246(2) 0.18522(15) 0.63942(17)
C50_4 C 0.8738(2) 0.26663(15) 0.55632(18)
H28_4 H 0.8807 0.2924 0.5964
C51_4 C 0.8462(2) 0.28865(15) 0.48833(19)
H29_4 H 0.8356 0.3289 0.4828
C52_4 C 0.8347(2) 0.25048(16) 0.42909(18)
C53_4 C 0.8527(2) 0.19115(16) 0.43731(18)
H30_4 H 0.8463 0.1655 0.3970
C54_4 C 0.7996(2) 0.2710(2) 0.3554(2)
C55_4 C 0.9038(4) 0.2897(2) 0.8405(3)
H31_4 H 0.9404 0.2726 0.8079
C56_4 C 0.9280(5) 0.3393(3) 0.8828(5)
H32_4 H 0.9788 0.3558 0.8779
C57_4 C 0.8724(7) 0.3621(3) 0.9321(4)
H33_4 H 0.8866 0.3946 0.9612
C58_4 C 0.7971(6) 0.3385(3) 0.9397(3)
C59_4 C 0.7781(4) 0.2901(2) 0.8939(2)
C60_4 C 0.7372(7) 0.3607(4) 0.9916(4)
C61_4 C 0.7006(4) 0.2651(3) 0.8994(2)
C62_4 C 0.6660(7) 0.3354(5) 0.9953(5)
C63_4 C 0.6463(6) 0.2883(4) 0.9506(3)
C64_4 C 0.5734(7) 0.2638(5) 0.9543(5)
H36_4 H 0.5364 0.2790 0.9878
C65_4 C 0.5528(5) 0.2189(5) 0.9122(6)
H37_4 H 0.5020 0.2021 0.9157
C66_4 C 0.6110(4) 0.1959(3) 0.8601(4)
H38_4 H 0.5972 0.1642 0.8294
N5_4 N 0.6828(2) 0.2193(2) 0.8554(2)
N6_4 N 0.8320(2) 0.26679(16) 0.84499(18)
O8_4 O 0.89857(17) 0.20446(16) 0.69827(13)
O9_4 O 0.9810(2) 0.14951(13) 0.63711(15)
O12_4 O 0.9001(2) 0.11103(12) 0.51575(17)
C34_4 C 0.9624(3) 0.97297(19) 0.7306(2)
C36_4 C 0.8180(4) 0.9748(4) 0.6564(4)
H21_4 H 0.7690 0.9762 0.6310
C37_4 C 0.8513(5) 0.9222(4) 0.6782(4)
H22_4 H 0.8235 0.8873 0.6685
C38_4 C 0.9241(4) 0.9190(2) 0.7139(3)
C39_4 C 0.9632(5) 0.8648(3) 0.7345(5)
H23_4 H 0.9371 0.8289 0.7261
C40_4 C 0.8012(3) 0.9204(2) 0.3317(2)
C41_4 C 0.8259(3) 0.97300(17) 0.3793(2)
C42_4 C 0.9035(3) 0.98089(18) 0.3996(2)
H24_4 H 0.9416 0.9532 0.3847
H34_3 H 0.2508 0.6072 0.9778
H35_3 H 0.3715 0.6501 0.9710
H34_4 H 0.7492 0.3928 0.0222
H35_4 H 0.6285 0.3499 0.0290
loop_
_geom_bond_atom_site_label_1
_geom_bond_atom_site_label_2
_geom_bond_site_symmetry_1
_geom_bond_site_symmetry_2
Cd1 N1 1_555 1_555
Cd2 N3 1_555 1_555
C8 C9 1_555 1_555
C9 C10 1_555 1_555
C10 O1 1_555 1_555
C11 C9 1_555 1_555
H5 C11 1_555 1_555
C16 H8 1_555 1_555
C17 C16 1_555 1_555
H9 C17 1_555 1_555
C18 C17 1_555 1_555
H10 C18 1_555 1_555
C19 C18 1_555 1_555
C20 C19 1_555 1_555
C21 C19 1_555 1_555
H11 C21 1_555 1_555
C22 C20 1_555 1_555
C23 C21 1_555 1_555
H12 C23 1_555 1_555
C24 C22 1_555 1_555
C25 C24 1_555 1_555
H13 C25 1_555 1_555
C26 C25 1_555 1_555
H14 C26 1_555 1_555
C27 C26 1_555 1_555
H15 C27 1_555 1_555
C28 C32 1_555 1_555
C29 H16 1_555 1_555
C30 C29 1_555 1_555
H17 C30 1_555 1_555
C31 C30 1_555 1_555
H18 C31 1_555 1_555
C32 C31 1_555 1_555
C33 C32 1_555 1_555
H19 C33 1_555 1_555
N1 C22 1_555 1_555
N2 Cd1 1_555 1_555
N3 C28 1_555 1_555
O1 Cd1 1_555 1_555
O2 Cd2 1_555 1_555
C34 C28 1_555 1_555
C35 H20 1_555 1_555
C36 C35 1_555 1_555
H21 C36 1_555 1_555
C37 C36 1_555 1_555
H22 C37 1_555 1_555
C38 C34 1_555 1_555
C39 C33 1_555 1_555
H23 C39 1_555 1_555
N4 Cd2 1_555 1_555
Cd3 N5 1_555 1_555
C40 C41 1_555 1_555
C41 C42 1_555 1_555
C42 H24 1_555 1_555
C43 C41 1_555 1_555
H25 C43 1_555 1_555
C44 C43 1_555 1_555
H26 C44 1_555 1_555
C45 C42 1_555 1_555
H27 C45 1_555 1_555
C46 C44 1_555 1_555
C47 C48 1_555 1_555
C48 C49 1_555 1_555
C49 O8 1_555 1_555
C50 C48 1_555 1_555
H28 C50 1_555 1_555
C51 C50 1_555 1_555
H29 C51 1_555 1_555
C52 C51 1_555 1_555
C53 C47 1_555 1_555
H30 C53 1_555 1_555
C54 C52 1_555 1_555
C55 H31 1_555 1_555
C56 C55 1_555 1_555
H32 C56 1_555 1_555
C57 C56 1_555 1_555
H33 C57 1_555 1_555
C58 C57 1_555 1_555
C59 C58 1_555 1_555
C60 C58 1_555 1_555
C61 C59 1_555 1_555
C62 C60 1_555 1_555
C63 C61 1_555 1_555
C64 C63 1_555 1_555
H36 C64 1_555 1_555
C65 C64 1_555 1_555
H37 C65 1_555 1_555
C66 C65 1_555 1_555
H38 C66 1_555 1_555
N5 C61 1_555 1_555
N6 Cd3 1_555 1_555
O8 Cd3 1_555 1_555
O9 Cd2 1_555 1_555
O10 C54 1_555 1_555
O11 C54 1_555 1_555
O12 C46 1_555 1_555
O13 C40 1_555 1_555
O14 C40 1_555 1_555
Cd4 O13 1_555 1_555
Cd7 O10 1_555 1_555
Cd9 O14 1_555 1_555
O15 Cd1 1_555 1_555
O16 Cd3 1_555 1_555
O17 Cd1 1_555 1_555
O18 Cd3 1_555 1_555
O19 Cd3 1_555 1_555
O20 Cd1 1_555 1_555
O21 Cd2 1_555 1_555
O22 Cd1 1_555 1_555
Cd2 O22 1_555 1_555
C8 O5 1_555 1_555
C10 O2 1_555 1_555
C16 N2 1_555 1_555
C20 N2 1_555 1_555
C23 C24 1_555 1_555
C27 N1 1_555 1_555
C29 N3 1_555 1_555
C34 N4 1_555 1_555
C35 N4 1_555 1_555
C37 C38 1_555 1_555
C38 C39 1_555 1_555
Cd3 O21 1_555 1_555
C45 C46 1_555 1_555
C47 O12 1_555 1_555
C49 O9 1_555 1_555
C52 C53 1_555 1_555
C55 N6 1_555 1_555
C59 N6 1_555 1_555
C62 C63 1_555 1_555
C66 N5 1_555 1_555
O11 Cd7 1_555 1_555
O14 Cd4 1_555 1_555
C1 C2 1_555 1_555
C2 C3 1_555 1_555
C3 H1 1_555 1_555
C4 C2 1_555 1_555
H2 C4 1_555 1_555
C5 C4 1_555 1_555
H3 C5 1_555 1_555
C6 C3 1_555 1_555
H4 C6 1_555 1_555
C7 C5 1_555 1_555
H6 C12 1_555 1_555
C13 C12 1_555 1_555
H7 C14 1_555 1_555
C15 C13 1_555 1_555
O3 C15 1_555 1_555
O4 C15 1_555 1_555
O6 C1 1_555 1_555
O7 C1 1_555 1_555
Cd5 O6 1_555 1_555
Cd6 O3 1_555 1_555
Cd9 O7 1_555 1_555
C6 C7 1_555 1_555
C13 C14 1_555 1_555
O4 Cd6 1_555 1_555
O7 Cd5 1_555 1_555
H21_2 C36_2 1_555 1_555
C37_2 C36_2 1_555 1_555
H22_2 C37_2 1_555 1_555
C38_2 C34_2 1_555 1_555
H23_2 C39_2 1_555 1_555
C40_2 C41_2 1_555 1_555
C41_2 C42_2 1_555 1_555
C42_2 H24_2 1_555 1_555
O13_2 C40_2 1_555 1_555
O14_2 C40_2 1_555 1_555
Cd6 O13_2 1_555 1_555
Cd9_2 O14_2 1_555 1_555
C37_2 C38_2 1_555 1_555
C38_2 C39_2 1_555 1_555
O14_2 Cd6 1_555 1_555
C35_2 H20_2 1_555 1_555
N4_2 Cd2_2 1_555 1_555
Cd3_2 N5_2 1_555 1_555
H25_2 C43_2 1_555 1_555
C44_2 C43_2 1_555 1_555
H26_2 C44_2 1_555 1_555
H27_2 C45_2 1_555 1_555
C46_2 C44_2 1_555 1_555
C47_2 C48_2 1_555 1_555
C48_2 C49_2 1_555 1_555
C49_2 O8_2 1_555 1_555
C50_2 C48_2 1_555 1_555
H28_2 C50_2 1_555 1_555
C51_2 C50_2 1_555 1_555
H29_2 C51_2 1_555 1_555
C52_2 C51_2 1_555 1_555
C53_2 C47_2 1_555 1_555
H30_2 C53_2 1_555 1_555
C54_2 C52_2 1_555 1_555
C55_2 H31_2 1_555 1_555
C56_2 C55_2 1_555 1_555
H32_2 C56_2 1_555 1_555
C57_2 C56_2 1_555 1_555
H33_2 C57_2 1_555 1_555
C58_2 C57_2 1_555 1_555
C59_2 C58_2 1_555 1_555
C60_2 C58_2 1_555 1_555
C61_2 C59_2 1_555 1_555
C62_2 C60_2 1_555 1_555
C63_2 C61_2 1_555 1_555
C64_2 C63_2 1_555 1_555
H36_2 C64_2 1_555 1_555
C65_2 C64_2 1_555 1_555
H37_2 C65_2 1_555 1_555
C66_2 C65_2 1_555 1_555
H38_2 C66_2 1_555 1_555
N5_2 C61_2 1_555 1_555
N6_2 Cd3_2 1_555 1_555
O8_2 Cd3_2 1_555 1_555
O9_2 Cd2_2 1_555 1_555
O10_2 C54_2 1_555 1_555
O11_2 C54_2 1_555 1_555
O12_2 C46_2 1_555 1_555
Cd5 O10_2 1_555 1_555
O16_2 Cd3_2 1_555 1_555
O18_2 Cd3_2 1_555 1_555
O19_2 Cd3_2 1_555 1_555
O21_2 Cd2_2 1_555 1_555
C35_2 N4_2 1_555 1_555
Cd3_2 O21_2 1_555 1_555
C45_2 C46_2 1_555 1_555
C47_2 O12_2 1_555 1_555
C49_2 O9_2 1_555 1_555
C52_2 C53_2 1_555 1_555
C55_2 N6_2 1_555 1_555
C59_2 N6_2 1_555 1_555
C62_2 C63_2 1_555 1_555
C66_2 N5_2 1_555 1_555
O11_2 Cd5 1_555 1_555
C28_2 C32_2 1_555 1_555
H17_2 C30_2 1_555 1_555
C31_2 C30_2 1_555 1_555
H18_2 C31_2 1_555 1_555
C32_2 C31_2 1_555 1_555
C33_2 C32_2 1_555 1_555
H19_2 C33_2 1_555 1_555
C1_2 C2_2 1_555 1_555
C2_2 C3_2 1_555 1_555
C3_2 H1_2 1_555 1_555
O6_2 C1_2 1_555 1_555
O7_2 C1_2 1_555 1_555
Cd7 O6_2 1_555 1_555
Cd9_3 O7_2 1_555 1_555
O7_2 Cd7 1_555 1_555
Cd1_2 N1_2 1_555 1_555
Cd2_3 N3_2 1_555 1_555
C8_2 C9_2 1_555 1_555
C9_2 C10_2 1_555 1_555
C10_2 O1_2 1_555 1_555
C11_2 C9_2 1_555 1_555
H5_2 C11_2 1_555 1_555
C16_2 H8_2 1_555 1_555
C17_2 C16_2 1_555 1_555
H9_2 C17_2 1_555 1_555
C18_2 C17_2 1_555 1_555
H10_2 C18_2 1_555 1_555
C19_2 C18_2 1_555 1_555
C20_2 C19_2 1_555 1_555
C21_2 C19_2 1_555 1_555
H11_2 C21_2 1_555 1_555
C22_2 C20_2 1_555 1_555
C23_2 C21_2 1_555 1_555
H12_2 C23_2 1_555 1_555
C24_2 C22_2 1_555 1_555
C25_2 C24_2 1_555 1_555
H13_2 C25_2 1_555 1_555
C26_2 C25_2 1_555 1_555
H14_2 C26_2 1_555 1_555
C27_2 C26_2 1_555 1_555
H15_2 C27_2 1_555 1_555
C29_2 H16_2 1_555 1_555
N1_2 C22_2 1_555 1_555
N2_2 Cd1_2 1_555 1_555
O1_2 Cd1_2 1_555 1_555
O2_2 Cd2_3 1_555 1_555
O15_2 Cd1_2 1_555 1_555
O17_2 Cd1_2 1_555 1_555
O20_2 Cd1_2 1_555 1_555
O22_2 Cd1_2 1_555 1_555
Cd2_3 O22_2 1_555 1_555
C8_2 O5_2 1_555 1_555
C10_2 O2_2 1_555 1_555
C16_2 N2_2 1_555 1_555
C20_2 N2_2 1_555 1_555
C23_2 C24_2 1_555 1_555
C27_2 N1_2 1_555 1_555
C29_2 N3_2 1_555 1_555
H2_2 C4_2 1_555 1_555
C5_2 C4_2 1_555 1_555
H3_2 C5_2 1_555 1_555
H4_2 C6_2 1_555 1_555
C7_2 C5_2 1_555 1_555
H6_2 C12_2 1_555 1_555
C13_2 C12_2 1_555 1_555
H7_2 C14_2 1_555 1_555
C15_2 C13_2 1_555 1_555
O3_2 C15_2 1_555 1_555
O4_2 C15_2 1_555 1_555
Cd4 O3_2 1_555 1_555
C6_2 C7_2 1_555 1_555
C13_2 C14_2 1_555 1_555
O4_2 Cd4 1_555 1_555
C1_3 C2_3 1_555 1_555
C2_3 C3_3 1_555 1_555
C3_3 H1_3 1_555 1_555
C4_3 C2_3 1_555 1_555
H2_3 C4_3 1_555 1_555
C5_3 C4_3 1_555 1_555
H3_3 C5_3 1_555 1_555
C6_3 C3_3 1_555 1_555
H4_3 C6_3 1_555 1_555
C7_3 C5_3 1_555 1_555
H6_3 C12_3 1_555 1_555
C13_3 C12_3 1_555 1_555
H7_3 C14_3 1_555 1_555
C15_3 C13_3 1_555 1_555
O15_2 C15_3 1_555 1_555
O17_2 C15_3 1_555 1_555
O19 C1_3 1_555 1_555
O21 C1_3 1_555 1_555
C6_3 C7_3 1_555 1_555
C13_3 C14_3 1_555 1_555
Cd4 N1_3 1_555 1_555
Cd9 N3_3 1_555 1_555
C8_3 C9_3 1_555 1_555
C9_3 C10_3 1_555 1_555
C10_3 O1_3 1_555 1_555
C11_3 C9_3 1_555 1_555
H5_3 C11_3 1_555 1_555
C16_3 H8_3 1_555 1_555
C17_3 C16_3 1_555 1_555
H9_3 C17_3 1_555 1_555
C18_3 C17_3 1_555 1_555
H10_3 C18_3 1_555 1_555
C19_3 C18_3 1_555 1_555
C20_3 C19_3 1_555 1_555
C21_3 C19_3 1_555 1_555
H11_3 C21_3 1_555 1_555
C22_3 C20_3 1_555 1_555
C23_3 C21_3 1_555 1_555
H12_3 C23_3 1_555 1_555
C24_3 C22_3 1_555 1_555
C25_3 C24_3 1_555 1_555
H13_3 C25_3 1_555 1_555
C26_3 C25_3 1_555 1_555
H14_3 C26_3 1_555 1_555
C27_3 C26_3 1_555 1_555
H15_3 C27_3 1_555 1_555
C28_3 C32_3 1_555 1_555
C29_3 H16_3 1_555 1_555
C30_3 C29_3 1_555 1_555
H17_3 C30_3 1_555 1_555
C31_3 C30_3 1_555 1_555
H18_3 C31_3 1_555 1_555
C32_3 C31_3 1_555 1_555
C33_3 C32_3 1_555 1_555
H19_3 C33_3 1_555 1_555
N1_3 C22_3 1_555 1_555
N2_3 Cd4 1_555 1_555
N3_3 C28_3 1_555 1_555
O1_3 Cd4 1_555 1_555
O2_3 Cd9 1_555 1_555
C34_3 C28_3 1_555 1_555
C35_3 H20_3 1_555 1_555
C36_3 C35_3 1_555 1_555
H21_3 C36_3 1_555 1_555
C37_3 C36_3 1_555 1_555
H22_3 C37_3 1_555 1_555
C38_3 C34_3 1_555 1_555
C39_3 C33_3 1_555 1_555
H23_3 C39_3 1_555 1_555
N4_3 Cd9 1_555 1_555
Cd5 N5_3 1_555 1_555
C40_3 C41_3 1_555 1_555
C41_3 C42_3 1_555 1_555
C42_3 H24_3 1_555 1_555
C43_3 C41_3 1_555 1_555
H25_3 C43_3 1_555 1_555
C44_3 C43_3 1_555 1_555
H26_3 C44_3 1_555 1_555
C45_3 C42_3 1_555 1_555
H27_3 C45_3 1_555 1_555
C46_3 C44_3 1_555 1_555
C47_3 C48_3 1_555 1_555
C48_3 C49_3 1_555 1_555
C49_3 O8_3 1_555 1_555
C50_3 C48_3 1_555 1_555
H28_3 C50_3 1_555 1_555
C51_3 C50_3 1_555 1_555
H29_3 C51_3 1_555 1_555
C52_3 C51_3 1_555 1_555
C53_3 C47_3 1_555 1_555
H30_3 C53_3 1_555 1_555
C54_3 C52_3 1_555 1_555
C55_3 H31_3 1_555 1_555
C56_3 C55_3 1_555 1_555
H32_3 C56_3 1_555 1_555
C57_3 C56_3 1_555 1_555
H33_3 C57_3 1_555 1_555
C58_3 C57_3 1_555 1_555
C59_3 C58_3 1_555 1_555
C60_3 C58_3 1_555 1_555
C61_3 C59_3 1_555 1_555
C62_3 C60_3 1_555 1_555
C63_3 C61_3 1_555 1_555
C64_3 C63_3 1_555 1_555
H36_3 C64_3 1_555 1_555
C65_3 C64_3 1_555 1_555
H37_3 C65_3 1_555 1_555
C66_3 C65_3 1_555 1_555
H38_3 C66_3 1_555 1_555
N5_3 C61_3 1_555 1_555
N6_3 Cd5 1_555 1_555
O8_3 Cd5 1_555 1_555
O9_3 Cd9 1_555 1_555
O16_2 C54_3 1_555 1_555
O18_2 C54_3 1_555 1_555
O12_3 C46_3 1_555 1_555
O20 C40_3 1_555 1_555
O22 C40_3 1_555 1_555
C8_3 O5_3 1_555 1_555
C10_3 O2_3 1_555 1_555
C16_3 N2_3 1_555 1_555
C20_3 N2_3 1_555 1_555
C23_3 C24_3 1_555 1_555
C27_3 N1_3 1_555 1_555
C29_3 N3_3 1_555 1_555
C34_3 N4_3 1_555 1_555
C35_3 N4_3 1_555 1_555
C37_3 C38_3 1_555 1_555
C38_3 C39_3 1_555 1_555
C45_3 C46_3 1_555 1_555
C47_3 O12_3 1_555 1_555
C49_3 O9_3 1_555 1_555
C52_3 C53_3 1_555 1_555
C55_3 N6_3 1_555 1_555
C59_3 N6_3 1_555 1_555
C62_3 C63_3 1_555 1_555
C66_3 N5_3 1_555 1_555
H2_4 C4_4 1_555 1_555
C5_4 C4_4 1_555 1_555
H3_4 C5_4 1_555 1_555
H4_4 C6_4 1_555 1_555
C7_4 C5_4 1_555 1_555
H6_4 C12_4 1_555 1_555
C13_4 C12_4 1_555 1_555
H7_4 C14_4 1_555 1_555
C15_4 C13_4 1_555 1_555
O15 C15_4 1_555 1_555
O17 C15_4 1_555 1_555
C6_4 C7_4 1_555 1_555
C13_4 C14_4 1_555 1_555
Cd6 N1_4 1_555 1_555
Cd9_2 N3_4 1_555 1_555
C8_4 C9_4 1_555 1_555
C9_4 C10_4 1_555 1_555
C10_4 O1_4 1_555 1_555
C11_4 C9_4 1_555 1_555
H5_4 C11_4 1_555 1_555
C16_4 H8_4 1_555 1_555
C17_4 C16_4 1_555 1_555
H9_4 C17_4 1_555 1_555
C18_4 C17_4 1_555 1_555
H10_4 C18_4 1_555 1_555
C19_4 C18_4 1_555 1_555
C20_4 C19_4 1_555 1_555
C21_4 C19_4 1_555 1_555
H11_4 C21_4 1_555 1_555
C22_4 C20_4 1_555 1_555
C23_4 C21_4 1_555 1_555
H12_4 C23_4 1_555 1_555
C24_4 C22_4 1_555 1_555
C25_4 C24_4 1_555 1_555
H13_4 C25_4 1_555 1_555
C26_4 C25_4 1_555 1_555
H14_4 C26_4 1_555 1_555
C27_4 C26_4 1_555 1_555
H15_4 C27_4 1_555 1_555
C29_4 H16_4 1_555 1_555
N1_4 C22_4 1_555 1_555
N2_4 Cd6 1_555 1_555
O1_4 Cd6 1_555 1_555
O2_4 Cd9_2 1_555 1_555
C8_4 O5_4 1_555 1_555
C10_4 O2_4 1_555 1_555
C16_4 N2_4 1_555 1_555
C20_4 N2_4 1_555 1_555
C23_4 C24_4 1_555 1_555
C27_4 N1_4 1_555 1_555
C29_4 N3_4 1_555 1_555
C1_4 C2_4 1_555 1_555
C2_4 C3_4 1_555 1_555
C3_4 H1_4 1_555 1_555
O19_2 C1_4 1_555 1_555
O21_2 C1_4 1_555 1_555
C28_4 C32_4 1_555 1_555
H17_4 C30_4 1_555 1_555
C31_4 C30_4 1_555 1_555
H18_4 C31_4 1_555 1_555
C32_4 C31_4 1_555 1_555
C33_4 C32_4 1_555 1_555
H19_4 C33_4 1_555 1_555
C35_4 H20_4 1_555 1_555
N4_4 Cd9_3 1_555 1_555
Cd7 N5_4 1_555 1_555
H25_4 C43_4 1_555 1_555
C44_4 C43_4 1_555 1_555
H26_4 C44_4 1_555 1_555
H27_4 C45_4 1_555 1_555
C46_4 C44_4 1_555 1_555
C47_4 C48_4 1_555 1_555
C48_4 C49_4 1_555 1_555
C49_4 O8_4 1_555 1_555
C50_4 C48_4 1_555 1_555
H28_4 C50_4 1_555 1_555
C51_4 C50_4 1_555 1_555
H29_4 C51_4 1_555 1_555
C52_4 C51_4 1_555 1_555
C53_4 C47_4 1_555 1_555
H30_4 C53_4 1_555 1_555
C54_4 C52_4 1_555 1_555
C55_4 H31_4 1_555 1_555
C56_4 C55_4 1_555 1_555
H32_4 C56_4 1_555 1_555
C57_4 C56_4 1_555 1_555
H33_4 C57_4 1_555 1_555
C58_4 C57_4 1_555 1_555
C59_4 C58_4 1_555 1_555
C60_4 C58_4 1_555 1_555
C61_4 C59_4 1_555 1_555
C62_4 C60_4 1_555 1_555
C63_4 C61_4 1_555 1_555
C64_4 C63_4 1_555 1_555
H36_4 C64_4 1_555 1_555
C65_4 C64_4 1_555 1_555
H37_4 C65_4 1_555 1_555
C66_4 C65_4 1_555 1_555
H38_4 C66_4 1_555 1_555
N5_4 C61_4 1_555 1_555
N6_4 Cd7 1_555 1_555
O8_4 Cd7 1_555 1_555
O9_4 Cd9_3 1_555 1_555
O16 C54_4 1_555 1_555
O18 C54_4 1_555 1_555
O12_4 C46_4 1_555 1_555
C35_4 N4_4 1_555 1_555
C45_4 C46_4 1_555 1_555
C47_4 O12_4 1_555 1_555
C49_4 O9_4 1_555 1_555
C52_4 C53_4 1_555 1_555
C55_4 N6_4 1_555 1_555
C59_4 N6_4 1_555 1_555
C62_4 C63_4 1_555 1_555
C66_4 N5_4 1_555 1_555
H21_4 C36_4 1_555 1_555
C37_4 C36_4 1_555 1_555
H22_4 C37_4 1_555 1_555
C38_4 C34_4 1_555 1_555
H23_4 C39_4 1_555 1_555
C40_4 C41_4 1_555 1_555
C41_4 C42_4 1_555 1_555
C42_4 H24_4 1_555 1_555
O20_2 C40_4 1_555 1_555
O22_2 C40_4 1_555 1_555
C37_4 C38_4 1_555 1_555
C38_4 C39_4 1_555 1_555

#END
