
###############################################################################
#
# This file contains modified crystal structure data generated from the
# MOF subset of the Cambridge Structural Database (CSD) v543 
# hosted by the Cambridge Crystallographic Data Centre (CCDC).
#
# This work is licensed under the Creative Commons
# Attribution-NonCommercial-ShareAlike 4.0 International License.
# To view a copy of this license, visit
# http://creativecommons.org/licenses/by-nc-sa/4.0/
# or send a letter to
# Creative Commons, PO Box 1866, Mountain View, CA 94042, USA.
#
# CIF created using the CSD Python API on 29 September 2022
# The structure has been converted into the P1 space group
# The structure has a 3D framework
# The original CSD entry NESQIN is in the orthorhombic crystal system
# The framework has been calculated to contain at least 10.0% void space
# The void calculation uses a probe of radius 1.32A, grid spacing 0.4
#
###############################################################################

data_NESQIN
_chemical_formula_moiety         '(C256 H176 N32 O56 Zn8)n'
_symmetry_cell_setting           triclinic
_symmetry_space_group_name_H-M   'P 1'
_symmetry_Int_Tables_number      1
_space_group_name_Hall           'P 1'
loop_
_symmetry_equiv_pos_site_id
_symmetry_equiv_pos_as_xyz
1 x,y,z
_cell_length_a                   15.8517(5)
_cell_length_b                   11.2658(4)
_cell_length_c                   34.8339(9)
_cell_angle_alpha                90
_cell_angle_beta                 90
_cell_angle_gamma                90
_cell_volume                     6220.71
loop_
_atom_site_label
_atom_site_type_symbol
_atom_site_fract_x
_atom_site_fract_y
_atom_site_fract_z
C3 C 0.2558(5) 0.1406(6) 0.8356(2)
H3 H 0.2758 0.1598 0.8599
C5 C 0.6729(4) 0.5648(6) 0.4080(2)
C7 C 0.2145(5) 0.1647(6) 0.5635(3)
C12 C 0.5695(5) 0.4551(6) 0.4490(2)
H8 H 0.5965 0.3848 0.4423
C14 C 0.3362(5) 0.3049(6) 0.5654(2)
H10 H 0.3552 0.2649 0.5871
C15 C 0.5988(5) 0.5609(6) 0.4349(2)
C16 C 0.3105(5) 0.1316(7) 0.8043(2)
C23 C 0.5541(6) 0.1278(7) 0.8669(3)
H15 H 0.5301 0.0525 0.8658
C24 C 0.5118(5) 0.2248(6) 0.8527(2)
C26 C 0.2638(4) 0.2678(6) 0.54807(19)
C29 C 0.3536(5) 0.4604(7) 0.5205(2)
C30 C 0.5600(5) 0.6666(7) 0.4454(2)
H19 H 0.5798 0.7384 0.4358
C33 C 0.1926(5) 0.0999(8) 0.7627(3)
C34 C 0.0683(5) 0.0575(8) 0.6473(2)
H21 H 0.1253 0.0746 0.6442
C40 C 0.1705(5) 0.1198(7) 0.8291(2)
H25 H 0.1336 0.1215 0.8499
C41 C 0.6667(5) 0.2555(7) 0.8835(2)
H26 H 0.7202 0.2644 0.8941
C42 C 0.4987(5) 0.4516(6) 0.4736(2)
H27 H 0.4777 0.3796 0.4826
C43 C 0.4621(4) 0.5551(6) 0.4839(2)
C45 C 0.2784(5) 0.1142(8) 0.7679(3)
H29 H 0.3145 0.1121 0.7469
C46 C 0.4919(5) 0.6645(6) 0.4701(2)
H30 H 0.4661 0.7349 0.4776
C48 C 0.5501(5) 0.3367(7) 0.8546(2)
H31 H 0.5214 0.4023 0.8451
C51 C 0.2373(5) 0.3305(6) 0.5154(2)
H33 H 0.1883 0.3075 0.5027
C53 C 0.4020(5) 0.1472(8) 0.8096(2)
C54 C 0.1386(5) 0.0969(8) 0.7932(2)
H35 H 0.0817 0.0798 0.7897
C55 C 0.3823(5) 0.4008(6) 0.5516(2)
H36 H 0.4323 0.4235 0.5635
C57 C 0.0324(6) 0.0645(8) 0.6829(2)
C58 C 0.6307(6) 0.1441(7) 0.8823(3)
H38 H 0.6600 0.0795 0.8923
C60 C 0.2836(6) 0.4264(7) 0.5017(2)
H40 H 0.2664 0.4666 0.4797
C63 C 0.1605(6) 0.0744(10) 0.7232(3)
N5 N 0.4267(4) 0.2147(5) 0.84008(19)
H43 H 0.3886 0.2534 0.8524
N6 N 0.0783(5) 0.0988(8) 0.7165(2)
H44 H 0.0515 0.1379 0.7338
N7 N 0.0217(4) 0.0261(5) 0.61695(18)
N8 N 0.6268(4) 0.3515(5) 0.86969(17)
O1 O 0.7188(3) 0.4717(4) 0.40512(16)
O2 O 0.6873(4) 0.6565(5) 0.38985(15)
O3 O 0.2380(4) 0.1133(5) 0.59276(19)
O4 O 0.1476(3) 0.1385(4) 0.54497(16)
O5 O 0.3919(4) 0.5637(4) 0.50820(17)
O11 O 0.4558(4) 0.0948(9) 0.7894(2)
O12 O 0.2071(5) 0.0330(11) 0.6968(2)
Zn1 Zn 0.07286(5) 0.01470(7) 0.56262(2)
Zn2 Zn 0.68917(6) 0.51091(7) 0.86834(2)
N9 N 0.7398(5) 0.5214(5) 0.81617(17)
O15 O 0.7812(3) 0.4717(4) 0.90512(16)
O16 O 0.6119(3) 0.6300(5) 0.88439(17)
Zn4 Zn 0.81083(6) 0.51091(7) 0.36834(2)
C1 C 0.8183(6) 0.5456(11) 0.7452(3)
H1 H 0.8442 0.5548 0.7215
C2 C 0.8256(5) 0.5032(6) 0.8110(3)
H2 H 0.8577 0.4812 0.8321
C4 C 0.2115(5) 0.8338(6) 0.5785(2)
H4 H 0.2426 0.8999 0.5861
C8 C 0.6944(5) 0.5500(7) 0.7848(2)
H6 H 0.6366 0.5622 0.7870
C9 C 0.2007(5) 0.6276(7) 0.5717(3)
H7 H 0.2229 0.5516 0.5746
C13 C 0.0892(5) 0.7563(6) 0.5534(3)
H9 H 0.0355 0.7665 0.5431
C17 C 0.2467(5) 0.7261(6) 0.5823(2)
C20 C 0.8652(5) 0.5160(8) 0.7766(3)
H13 H 0.9231 0.5046 0.7745
C25 C 0.5041(5) 0.6483(6) 0.5985(2)
H16 H 0.4825 0.6726 0.5749
C28 C 0.5904(5) 0.6282(6) 0.6027(2)
H18 H 0.6264 0.6333 0.5817
C31 C 0.5714(5) 0.5964(10) 0.6705(2)
C37 C 0.7335(6) 0.5619(9) 0.7487(2)
C38 C 0.4508(5) 0.6321(6) 0.6294(2)
C39 C 0.4837(5) 0.6111(8) 0.6650(2)
H24 H 0.4478 0.6064 0.6861
C44 C 0.1207(5) 0.6444(6) 0.5567(3)
H28 H 0.0886 0.5795 0.5490
C47 C 0.3561(5) 0.6442(8) 0.6241(2)
C59 C 0.6215(5) 0.6006(8) 0.6388(2)
H39 H 0.6788 0.5844 0.6414
C62 C 0.6010(7) 0.5709(10) 0.7096(3)
N1 N 0.1324(3) 0.8513(5) 0.5642(2)
N2 N 0.3304(4) 0.7153(5) 0.5953(2)
H41 H 0.3681 0.7575 0.5840
N3 N 0.6854(5) 0.5917(8) 0.7160(2)
H42 H 0.7121 0.6273 0.6978
O13 O 0.3072(4) 0.5928(8) 0.6453(2)
O14 O 0.5563(5) 0.5290(12) 0.7344(3)
C6 C 0.2011(4) 0.8750(6) 0.98996(19)
C10 C 0.5477(5) 0.6585(6) 0.8644(2)
C11 C 0.1457(5) 0.9663(6) 0.99839(19)
C21 C 0.4935(4) 0.7568(6) 0.8808(2)
C22 C 0.4212(5) 0.7935(6) 0.8620(2)
H14 H 0.4061 0.7575 0.8390
C36 C 0.3714(5) 0.8820(6) 0.8767(2)
H23 H 0.3221 0.9048 0.8642
C49 C 0.3955(5) 0.9364(6) 0.9103(2)
C50 C 0.4666(5) 0.9008(7) 0.9288(2)
H32 H 0.4816 0.9367 0.9519
C52 C 0.2686(5) 0.8928(6) 0.96533(19)
H34 H 0.3057 0.8310 0.9600
C56 C 0.5158(5) 0.8137(6) 0.9142(2)
H37 H 0.5651 0.7922 0.9268
O7 O 0.5270(4) 0.6104(4) 0.83394(17)
C23_2 C 0.9459(6) 0.1278(7) 0.3669(3)
H15_2 H 0.9699 0.0525 0.3658
C24_2 C 0.9882(5) 0.2248(6) 0.3527(2)
C41_2 C 0.8333(5) 0.2555(7) 0.3835(2)
H26_2 H 0.7798 0.2644 0.3941
C48_2 C 0.9499(5) 0.3367(7) 0.3546(2)
H31_2 H 0.9786 0.4023 0.3451
C58_2 C 0.8693(6) 0.1441(7) 0.3823(3)
H38_2 H 0.8400 0.0795 0.3923
N8_2 N 0.8732(4) 0.3515(5) 0.36969(17)
N9_2 N 0.7602(5) 0.5214(5) 0.31617(17)
O16_2 O 0.8881(3) 0.6300(5) 0.38439(17)
C5_2 C 0.8271(4) 0.5648(6) 0.9080(2)
C12_2 C 0.9305(5) 0.4551(6) 0.9490(2)
H8_2 H 0.9035 0.3848 0.9423
C15_2 C 0.9012(5) 0.5609(6) 0.9349(2)
C30_2 C 0.9400(5) 0.6666(7) 0.9454(2)
H19_2 H 0.9202 0.7384 0.9358
O2_2 O 0.8127(4) 0.6565(5) 0.88985(15)
C1_2 C 0.6817(6) 0.5456(11) 0.2452(3)
H1_2 H 0.6558 0.5548 0.2215
C2_2 C 0.6744(5) 0.5032(6) 0.3110(3)
H2_2 H 0.6423 0.4812 0.3321
C8_2 C 0.8056(5) 0.5500(7) 0.2848(2)
H6_2 H 0.8634 0.5622 0.2870
C20_2 C 0.6348(5) 0.5160(8) 0.2766(3)
H13_2 H 0.5769 0.5046 0.2745
C25_2 C 0.9959(5) 0.6483(6) 0.0985(2)
C28_2 C 0.9096(5) 0.6282(6) 0.1027(2)
H18_2 H 0.8736 0.6333 0.0817
C31_2 C 0.9286(5) 0.5964(10) 0.1705(2)
C37_2 C 0.7665(6) 0.5619(9) 0.2487(2)
C59_2 C 0.8785(5) 0.6006(8) 0.1388(2)
H39_2 H 0.8212 0.5844 0.1414
C62_2 C 0.8990(7) 0.5709(10) 0.2096(3)
N3_2 N 0.8146(5) 0.5917(8) 0.2160(2)
H42_2 H 0.7879 0.6273 0.1978
O14_2 O 0.9437(5) 0.5290(12) 0.2344(3)
C10_2 C 0.9523(5) 0.6585(6) 0.3644(2)
C56_2 C 0.9842(5) 0.8137(6) 0.4142(2)
H37_2 H 0.9349 0.7922 0.4268
O7_2 O 0.9730(4) 0.6104(4) 0.33394(17)
C6_2 C 0.7989(4) 0.1250(6) 0.48996(19)
H5 H 0.8070 0.1993 0.5010
C10_3 C 0.4523(5) 0.3415(6) 0.3644(2)
C11_2 C 0.8543(5) 0.0337(6) 0.49839(19)
C18 C 0.9395(6) 0.0038(7) 0.6220(3)
C21_2 C 0.5065(4) 0.2432(6) 0.3808(2)
C22_2 C 0.5788(5) 0.2065(6) 0.3620(2)
H14_2 H 0.5939 0.2425 0.3390
C27 C 0.8980(7) 0.0161(9) 0.6561(3)
H17 H 0.8401 0.0042 0.6580
C32 C 0.9452(6) 0.0467(10) 0.6872(3)
H20 H 0.9199 0.0558 0.7111
C36_2 C 0.6286(5) 0.1180(6) 0.3767(2)
H23_2 H 0.6779 0.0952 0.3642
C49_2 C 0.6045(5) 0.0636(6) 0.4103(2)
C50_2 C 0.5334(5) 0.0992(7) 0.4288(2)
H32_2 H 0.5184 0.0633 0.4519
C52_2 C 0.7314(5) 0.1072(6) 0.46533(19)
H34_2 H 0.6943 0.1690 0.4600
C56_3 C 0.4842(5) 0.1863(6) 0.4142(2)
H37_3 H 0.4349 0.2078 0.4268
C64 C 0.9273(5) 0.0521(6) 0.5249(2)
O6 O 0.3881(3) 0.3700(5) 0.38439(17)
O7_3 O 0.4730(4) 0.3896(4) 0.33394(17)
O9 O 0.9321(3) 0.1464(5) 0.54364(15)
Zn5 Zn 0.31083(6) 0.48909(7) 0.36834(2)
C1_3 C 0.1817(6) 0.4544(11) 0.2452(3)
H1_3 H 0.1558 0.4452 0.2215
C2_3 C 0.1744(5) 0.4968(6) 0.3110(3)
H2_3 H 0.1423 0.5188 0.3321
C4_2 C 0.7885(5) 0.1662(6) 0.0785(2)
H4_2 H 0.7574 0.1001 0.0861
C8_3 C 0.3056(5) 0.4500(7) 0.2848(2)
H6_3 H 0.3634 0.4378 0.2870
C9_2 C 0.7993(5) 0.3724(7) 0.0717(3)
H7_2 H 0.7771 0.4484 0.0746
C13_2 C 0.9108(5) 0.2437(6) 0.0534(3)
H9_2 H 0.9645 0.2335 0.0431
C17_2 C 0.7533(5) 0.2739(6) 0.0823(2)
C20_3 C 0.1348(5) 0.4840(8) 0.2766(3)
H13_3 H 0.0769 0.4954 0.2745
C25_3 C 0.4959(5) 0.3517(6) 0.0985(2)
H16_2 H 0.5175 0.3274 0.0749
C28_3 C 0.4096(5) 0.3718(6) 0.1027(2)
H18_3 H 0.3736 0.3667 0.0817
C31_3 C 0.4286(5) 0.4036(10) 0.1705(2)
C37_3 C 0.2665(6) 0.4381(9) 0.2487(2)
C38_2 C 0.5492(5) 0.3679(6) 0.1294(2)
C39_2 C 0.5163(5) 0.3889(8) 0.1650(2)
H24_2 H 0.5522 0.3936 0.1861
C44_2 C 0.8793(5) 0.3556(6) 0.0567(3)
H28_2 H 0.9114 0.4205 0.0490
C47_2 C 0.6439(5) 0.3558(8) 0.1241(2)
C59_3 C 0.3785(5) 0.3994(8) 0.1388(2)
H39_3 H 0.3212 0.4156 0.1414
C62_3 C 0.3990(7) 0.4291(10) 0.2096(3)
N1_2 N 0.8676(3) 0.1487(5) 0.0642(2)
N2_2 N 0.6696(4) 0.2847(5) 0.0953(2)
H41_2 H 0.6319 0.2425 0.0840
N3_3 N 0.3146(5) 0.4083(8) 0.2160(2)
H42_3 H 0.2879 0.3727 0.1978
N4 N 0.2602(5) 0.4786(5) 0.31617(17)
O13_2 O 0.6928(4) 0.4072(8) 0.1453(2)
O14_3 O 0.4437(5) 0.4710(12) 0.2344(3)
C3_2 C 0.7442(5) 0.8594(6) 0.3356(2)
H3_2 H 0.7242 0.8402 0.3599
C7_2 C 0.7855(5) 0.8353(6) 0.0635(3)
C14_2 C 0.6638(5) 0.6951(6) 0.0654(2)
H10_2 H 0.6448 0.7351 0.0871
C16_2 C 0.6895(5) 0.8684(7) 0.3043(2)
C23_3 C 0.4459(6) 0.8722(7) 0.3669(3)
H15_3 H 0.4699 0.9475 0.3658
C24_3 C 0.4882(5) 0.7752(6) 0.3527(2)
C26_2 C 0.7362(4) 0.7322(6) 0.04807(19)
C29_2 C 0.6464(5) 0.5396(7) 0.0205(2)
C33_2 C 0.8074(5) 0.9001(8) 0.2627(3)
C34_2 C 0.9317(5) 0.9425(8) 0.1473(2)
H21_2 H 0.8747 0.9254 0.1442
C40_2 C 0.8295(5) 0.8802(7) 0.3291(2)
H25_2 H 0.8664 0.8785 0.3499
C41_3 C 0.3333(5) 0.7445(7) 0.3835(2)
H26_3 H 0.2798 0.7356 0.3941
C45_2 C 0.7216(5) 0.8858(8) 0.2679(3)
H29_2 H 0.6855 0.8879 0.2469
C48_3 C 0.4499(5) 0.6633(7) 0.3546(2)
H31_3 H 0.4786 0.5977 0.3451
C51_2 C 0.7627(5) 0.6695(6) 0.0154(2)
H33_2 H 0.8117 0.6925 0.0027
C53_2 C 0.5980(5) 0.8528(8) 0.3096(2)
C54_2 C 0.8614(5) 0.9031(8) 0.2932(2)
H35_2 H 0.9183 0.9202 0.2897
C55_2 C 0.6177(5) 0.5992(6) 0.0516(2)
H36_2 H 0.5677 0.5765 0.0635
C57_2 C 0.9676(6) 0.9355(8) 0.1829(2)
C58_3 C 0.3693(6) 0.8559(7) 0.3823(3)
H38_3 H 0.3400 0.9205 0.3923
C60_2 C 0.7164(6) 0.5736(7) 0.0017(2)
C63_2 C 0.8395(6) 0.9256(10) 0.2232(3)
N5_2 N 0.5733(4) 0.7853(5) 0.34008(19)
H43_2 H 0.6114 0.7466 0.3524
N6_2 N 0.9217(5) 0.9012(8) 0.2165(2)
H44_2 H 0.9485 0.8621 0.2338
N7_2 N 0.9783(4) 0.9739(5) 0.11695(18)
N8_3 N 0.3732(4) 0.6485(5) 0.36969(17)
O3_2 O 0.7620(4) 0.8867(5) 0.09276(19)
O4_2 O 0.8524(3) 0.8615(4) 0.04497(16)
O5_2 O 0.6081(4) 0.4363(4) 0.00820(17)
O11_2 O 0.5442(4) 0.9052(9) 0.2894(2)
O12_2 O 0.7929(5) 0.9670(11) 0.1968(2)
Zn1_2 Zn 0.92714(5) 0.98530(7) 0.06262(2)
O15_2 O 0.2188(3) 0.5283(4) 0.40512(16)
C5_3 C 0.3271(4) 0.4352(6) 0.9080(2)
C12_3 C 0.4305(5) 0.5449(6) 0.9490(2)
H8_3 H 0.4035 0.6152 0.9423
C15_3 C 0.4012(5) 0.4391(6) 0.9349(2)
C30_3 C 0.4400(5) 0.3334(7) 0.9454(2)
H19_3 H 0.4202 0.2616 0.9358
C42_2 C 0.5013(5) 0.5484(6) 0.9736(2)
H27_2 H 0.5223 0.6204 0.9826
C43_2 C 0.5379(4) 0.4449(6) 0.9839(2)
C46_2 C 0.5081(5) 0.3355(6) 0.9701(2)
H30_2 H 0.5339 0.2651 0.9776
H40_2 H 0.7336 0.5334 0.9797
O1_2 O 0.2812(3) 0.5283(4) 0.90512(16)
O2_3 O 0.3127(4) 0.3435(5) 0.88985(15)
Zn4_2 Zn 0.18917(6) 0.48909(7) 0.86834(2)
C10_4 C 0.0477(5) 0.3415(6) 0.8644(2)
C56_4 C 0.0158(5) 0.1863(6) 0.9142(2)
H37_4 H 0.0651 0.2078 0.9268
O6_2 O 0.1119(3) 0.3700(5) 0.88439(17)
O7_4 O 0.0270(4) 0.3896(4) 0.83394(17)
C1_4 C 0.3183(6) 0.4544(11) 0.7452(3)
H1_4 H 0.3442 0.4452 0.7215
C2_4 C 0.3256(5) 0.4968(6) 0.8110(3)
H2_4 H 0.3577 0.5188 0.8321
C8_4 C 0.1944(5) 0.4500(7) 0.7848(2)
H6_4 H 0.1366 0.4378 0.7870
C20_4 C 0.3652(5) 0.4840(8) 0.7766(3)
H13_4 H 0.4231 0.4954 0.7745
C25_4 C 0.0041(5) 0.3517(6) 0.5985(2)
C28_4 C 0.0904(5) 0.3718(6) 0.6027(2)
H18_4 H 0.1264 0.3667 0.5817
C31_4 C 0.0714(5) 0.4036(10) 0.6705(2)
C37_4 C 0.2335(6) 0.4381(9) 0.7487(2)
C59_4 C 0.1215(5) 0.3994(8) 0.6388(2)
H39_4 H 0.1788 0.4156 0.6414
C62_4 C 0.1010(7) 0.4291(10) 0.7096(3)
N3_4 N 0.1854(5) 0.4083(8) 0.7160(2)
H42_4 H 0.2121 0.3727 0.6978
N4_2 N 0.2398(5) 0.4786(5) 0.81617(17)
O14_4 O 0.0563(5) 0.4710(12) 0.7344(3)
C5_4 C 0.1729(4) 0.4352(6) 0.4080(2)
C12_4 C 0.0695(5) 0.5449(6) 0.4490(2)
H8_4 H 0.0965 0.6152 0.4423
C15_4 C 0.0988(5) 0.4391(6) 0.4349(2)
C23_4 C 0.0541(6) 0.8722(7) 0.8669(3)
H15_4 H 0.0301 0.9475 0.8658
C24_4 C 0.0118(5) 0.7752(6) 0.8527(2)
C30_4 C 0.0600(5) 0.3334(7) 0.4454(2)
H19_4 H 0.0798 0.2616 0.4358
C41_4 C 0.1667(5) 0.7445(7) 0.8835(2)
H26_4 H 0.2202 0.7356 0.8941
C48_4 C 0.0501(5) 0.6633(7) 0.8546(2)
H31_4 H 0.0214 0.5977 0.8451
C58_4 C 0.1307(6) 0.8559(7) 0.8823(3)
H38_4 H 0.1600 0.9205 0.8923
N8_4 N 0.1268(4) 0.6485(5) 0.86969(17)
O2_4 O 0.1873(4) 0.3435(5) 0.38985(15)
H11 H 0.9086 0.9782 0.6008
C19 C 0.7721(5) 0.9052(6) 0.45691(18)
H12 H 0.7629 0.8313 0.4458
C35 C 0.8399(5) 0.9223(6) 0.4822(2)
H22 H 0.8754 0.8592 0.4881
C61 C 0.7198(5) 0.9974(5) 0.4489(2)
O8 O 0.6529(4) 0.9695(4) 0.42373(16)
O10 O 0.9827(3) 0.9716(4) 0.52642(14)
H11_2 H 0.0914 0.0218 0.1008
O10_2 O 0.0173(3) 0.0284(4) 0.02642(14)
C19_2 C 0.2279(5) 0.0948(6) 0.95691(18)
H12_2 H 0.2371 0.1687 0.9458
C35_2 C 0.1601(5) 0.0777(6) 0.9822(2)
H22_2 H 0.1246 0.1408 0.9881
C61_2 C 0.2802(5) 0.0026(5) 0.9489(2)
O8_2 O 0.3471(4) 0.0305(4) 0.92373(16)
H5_2 H 0.1930 0.8007 0.0010
C18_2 C 0.0605(6) 0.9962(7) 0.1220(3)
C27_2 C 0.1020(7) 0.9839(9) 0.1561(3)
H17_2 H 0.1599 0.9958 0.1580
C32_2 C 0.0548(6) 0.9533(10) 0.1872(3)
H20_2 H 0.0801 0.9442 0.2111
C64_2 C 0.0727(5) 0.9479(6) 0.0249(2)
O9_2 O 0.0679(3) 0.8536(5) 0.04364(15)
C3_3 C 0.2442(5) 0.1406(6) 0.3356(2)
H3_3 H 0.2242 0.1598 0.3599
H5_3 H 0.6930 0.1993 0.0010
C7_3 C 0.2855(5) 0.1647(6) 0.0635(3)
C14_3 C 0.1638(5) 0.3049(6) 0.0654(2)
H10_3 H 0.1448 0.2649 0.0871
C16_3 C 0.1895(5) 0.1316(7) 0.3043(2)
C18_3 C 0.5605(6) 0.0038(7) 0.1220(3)
C26_3 C 0.2362(4) 0.2678(6) 0.04807(19)
C27_3 C 0.6020(7) 0.0161(9) 0.1561(3)
H17_3 H 0.6599 0.0042 0.1580
C29_3 C 0.1464(5) 0.4604(7) 0.0205(2)
C32_3 C 0.5548(6) 0.0467(10) 0.1872(3)
H20_3 H 0.5801 0.0558 0.2111
C33_3 C 0.3074(5) 0.0999(8) 0.2627(3)
C34_3 C 0.4317(5) 0.0575(8) 0.1473(2)
H21_3 H 0.3747 0.0746 0.1442
C40_3 C 0.3295(5) 0.1198(7) 0.3291(2)
H25_3 H 0.3664 0.1215 0.3499
C45_3 C 0.2216(5) 0.1142(8) 0.2679(3)
H29_3 H 0.1855 0.1121 0.2469
C51_3 C 0.2627(5) 0.3305(6) 0.0154(2)
H33_3 H 0.3117 0.3075 0.0027
C53_3 C 0.0980(5) 0.1472(8) 0.3096(2)
C54_3 C 0.3614(5) 0.0969(8) 0.2932(2)
H35_3 H 0.4183 0.0798 0.2897
C55_3 C 0.1177(5) 0.4008(6) 0.0516(2)
H36_3 H 0.0677 0.4235 0.0635
C57_3 C 0.4676(6) 0.0645(8) 0.1829(2)
C60_3 C 0.2164(6) 0.4264(7) 0.0017(2)
C63_3 C 0.3395(6) 0.0744(10) 0.2232(3)
C64_3 C 0.5727(5) 0.0521(6) 0.0249(2)
N5_3 N 0.0733(4) 0.2147(5) 0.34008(19)
H43_3 H 0.1114 0.2534 0.3524
N6_3 N 0.4217(5) 0.0988(8) 0.2165(2)
H44_3 H 0.4485 0.1379 0.2338
N7_3 N 0.4783(4) 0.0261(5) 0.11695(18)
O3_3 O 0.2620(4) 0.1133(5) 0.09276(19)
O4_3 O 0.3524(3) 0.1385(4) 0.04497(16)
O5_3 O 0.1081(4) 0.5637(4) 0.00820(17)
O9_3 O 0.5679(3) 0.1464(5) 0.04364(15)
O11_3 O 0.0442(4) 0.0948(9) 0.2894(2)
O12_3 O 0.2929(5) 0.0330(11) 0.1968(2)
Zn1_3 Zn 0.42714(5) 0.01470(7) 0.06262(2)
C6_3 C 0.7011(4) 0.1250(6) 0.98996(19)
C11_3 C 0.6457(5) 0.0337(6) 0.99839(19)
C21_3 C 0.9935(4) 0.2432(6) 0.8808(2)
C22_3 C 0.9212(5) 0.2065(6) 0.8620(2)
H14_3 H 0.9061 0.2425 0.8390
C36_3 C 0.8714(5) 0.1180(6) 0.8767(2)
H23_3 H 0.8221 0.0952 0.8642
C42_3 C 0.0013(5) 0.4516(6) 0.9736(2)
H27_3 H 0.0223 0.3796 0.9826
C43_3 C 0.0379(4) 0.5551(6) 0.9839(2)
C46_3 C 0.0081(5) 0.6645(6) 0.9701(2)
H30_3 H 0.0339 0.7349 0.9776
C49_3 C 0.8955(5) 0.0636(6) 0.9103(2)
C50_3 C 0.9666(5) 0.0992(7) 0.9288(2)
H32_3 H 0.9816 0.0633 0.9519
C52_3 C 0.7686(5) 0.1072(6) 0.96533(19)
H34_3 H 0.8057 0.1690 0.9600
H40_3 H 0.2336 0.4666 0.9797
C4_3 C 0.2885(5) 0.8338(6) 0.0785(2)
H4_3 H 0.2574 0.8999 0.0861
C9_3 C 0.2993(5) 0.6276(7) 0.0717(3)
H7_3 H 0.2771 0.5516 0.0746
C13_3 C 0.4108(5) 0.7563(6) 0.0534(3)
H9_3 H 0.4645 0.7665 0.0431
C17_3 C 0.2533(5) 0.7261(6) 0.0823(2)
H11_3 H 0.5914 0.9782 0.1008
H16_3 H 0.0175 0.6726 0.0749
C38_3 C 0.0492(5) 0.6321(6) 0.1294(2)
C39_3 C 0.0163(5) 0.6111(8) 0.1650(2)
H24_3 H 0.0522 0.6064 0.1861
C44_3 C 0.3793(5) 0.6444(6) 0.0567(3)
H28_3 H 0.4114 0.5795 0.0490
C47_3 C 0.1439(5) 0.6442(8) 0.1241(2)
N1_3 N 0.3676(3) 0.8513(5) 0.0642(2)
N2_3 N 0.1696(4) 0.7153(5) 0.0953(2)
H41_3 H 0.1319 0.7575 0.0840
O10_3 O 0.5173(3) 0.9716(4) 0.02642(14)
O13_3 O 0.1928(4) 0.5928(8) 0.1453(2)
C19_3 C 0.7279(5) 0.9052(6) 0.95691(18)
H12_3 H 0.7371 0.8313 0.9458
C35_3 C 0.6601(5) 0.9223(6) 0.9822(2)
H22_3 H 0.6246 0.8592 0.9881
C61_3 C 0.7802(5) 0.9974(5) 0.9489(2)
O8_3 O 0.8471(4) 0.9695(4) 0.92373(16)
C4_4 C 0.7115(5) 0.1662(6) 0.5785(2)
H4_4 H 0.7426 0.1001 0.5861
C9_4 C 0.7007(5) 0.3724(7) 0.5717(3)
H7_4 H 0.7229 0.4484 0.5746
C13_4 C 0.5892(5) 0.2437(6) 0.5534(3)
H9_4 H 0.5355 0.2335 0.5431
C17_4 C 0.7467(5) 0.2739(6) 0.5823(2)
H11_4 H 0.4086 0.0218 0.6008
C19_4 C 0.2721(5) 0.0948(6) 0.45691(18)
H12_4 H 0.2629 0.1687 0.4458
H16_4 H 0.9825 0.3274 0.5749
C35_4 C 0.3399(5) 0.0777(6) 0.4822(2)
H22_4 H 0.3754 0.1408 0.4881
C38_4 C 0.9508(5) 0.3679(6) 0.6294(2)
C39_4 C 0.9837(5) 0.3889(8) 0.6650(2)
H24_4 H 0.9478 0.3936 0.6861
C44_4 C 0.6207(5) 0.3556(6) 0.5567(3)
H28_4 H 0.5886 0.4205 0.5490
C47_4 C 0.8561(5) 0.3558(8) 0.6241(2)
C61_4 C 0.2198(5) 0.0026(5) 0.4489(2)
N1_4 N 0.6324(3) 0.1487(5) 0.5642(2)
N2_4 N 0.8304(4) 0.2847(5) 0.5953(2)
H41_4 H 0.8681 0.2425 0.5840
O8_4 O 0.1529(4) 0.0305(4) 0.42373(16)
O10_4 O 0.4827(3) 0.0284(4) 0.52642(14)
O13_4 O 0.8072(4) 0.4072(8) 0.6453(2)
C3_4 C 0.7558(5) 0.8594(6) 0.8356(2)
H3_4 H 0.7758 0.8402 0.8599
C6_4 C 0.2989(4) 0.8750(6) 0.48996(19)
H5_4 H 0.3070 0.8007 0.5010
C7_4 C 0.7145(5) 0.8353(6) 0.5635(3)
C11_4 C 0.3543(5) 0.9663(6) 0.49839(19)
C14_4 C 0.8362(5) 0.6951(6) 0.5654(2)
H10_4 H 0.8552 0.7351 0.5871
C16_4 C 0.8105(5) 0.8684(7) 0.8043(2)
C18_4 C 0.4395(6) 0.9962(7) 0.6220(3)
C21_4 C 0.0065(4) 0.7568(6) 0.3808(2)
C22_4 C 0.0788(5) 0.7935(6) 0.3620(2)
H14_4 H 0.0939 0.7575 0.3390
C26_4 C 0.7638(4) 0.7322(6) 0.54807(19)
C27_4 C 0.3980(7) 0.9839(9) 0.6561(3)
H17_4 H 0.3401 0.9958 0.6580
C29_4 C 0.8536(5) 0.5396(7) 0.5205(2)
C32_4 C 0.4452(6) 0.9533(10) 0.6872(3)
H20_4 H 0.4199 0.9442 0.7111
C33_4 C 0.6926(5) 0.9001(8) 0.7627(3)
C34_4 C 0.5683(5) 0.9425(8) 0.6473(2)
H21_4 H 0.6253 0.9254 0.6442
C36_4 C 0.1286(5) 0.8820(6) 0.3767(2)
H23_4 H 0.1779 0.9048 0.3642
C40_4 C 0.6705(5) 0.8802(7) 0.8291(2)
H25_4 H 0.6336 0.8785 0.8499
C42_4 C 0.9987(5) 0.5484(6) 0.4736(2)
H27_4 H 0.9777 0.6204 0.4826
C43_4 C 0.9621(4) 0.4449(6) 0.4839(2)
C45_4 C 0.7784(5) 0.8858(8) 0.7679(3)
H29_4 H 0.8145 0.8879 0.7469
C46_4 C 0.9919(5) 0.3355(6) 0.4701(2)
H30_4 H 0.9661 0.2651 0.4776
C49_4 C 0.1045(5) 0.9364(6) 0.4103(2)
C50_4 C 0.0334(5) 0.9008(7) 0.4288(2)
H32_4 H 0.0184 0.9367 0.4519
C51_4 C 0.7373(5) 0.6695(6) 0.5154(2)
H33_4 H 0.6883 0.6925 0.5027
C52_4 C 0.2314(5) 0.8928(6) 0.46533(19)
H34_4 H 0.1943 0.8310 0.4600
C53_4 C 0.9020(5) 0.8528(8) 0.8096(2)
C54_4 C 0.6386(5) 0.9031(8) 0.7932(2)
H35_4 H 0.5817 0.9202 0.7897
C55_4 C 0.8823(5) 0.5992(6) 0.5516(2)
H36_4 H 0.9323 0.5765 0.5635
C57_4 C 0.5324(6) 0.9355(8) 0.6829(2)
C60_4 C 0.7836(6) 0.5736(7) 0.5017(2)
H40_4 H 0.7664 0.5334 0.4797
C63_4 C 0.6605(6) 0.9256(10) 0.7232(3)
C64_4 C 0.4273(5) 0.9479(6) 0.5249(2)
N5_4 N 0.9267(4) 0.7853(5) 0.84008(19)
H43_4 H 0.8886 0.7466 0.8524
N6_4 N 0.5783(5) 0.9012(8) 0.7165(2)
H44_4 H 0.5515 0.8621 0.7338
N7_4 N 0.5217(4) 0.9739(5) 0.61695(18)
O3_4 O 0.7380(4) 0.8867(5) 0.59276(19)
O4_4 O 0.6476(3) 0.8615(4) 0.54497(16)
O5_4 O 0.8919(4) 0.4363(4) 0.50820(17)
O9_4 O 0.4321(3) 0.8536(5) 0.54364(15)
O11_4 O 0.9558(4) 0.9052(9) 0.7894(2)
O12_4 O 0.7071(5) 0.9670(11) 0.6968(2)
Zn1_4 Zn 0.57286(5) 0.98530(7) 0.56262(2)
loop_
_geom_bond_atom_site_label_1
_geom_bond_atom_site_label_2
_geom_bond_site_symmetry_1
_geom_bond_site_symmetry_2
C3 H3 1_555 1_555
C5 C15 1_555 1_555
C7 C26 1_555 1_555
C12 H8 1_555 1_555
C14 H10 1_555 1_555
C15 C12 1_555 1_555
C16 C3 1_555 1_555
C23 H15 1_555 1_555
C24 C23 1_555 1_555
C26 C14 1_555 1_555
C29 C55 1_555 1_555
C30 C15 1_555 1_555
H19 C30 1_555 1_555
C33 C45 1_555 1_555
C34 H21 1_555 1_555
C40 C3 1_555 1_555
H25 C40 1_555 1_555
C41 H26 1_555 1_555
C42 C12 1_555 1_555
H27 C42 1_555 1_555
C43 C42 1_555 1_555
C45 C16 1_555 1_555
H29 C45 1_555 1_555
C46 C30 1_555 1_555
H30 C46 1_555 1_555
C48 C24 1_555 1_555
H31 C48 1_555 1_555
C51 C26 1_555 1_555
H33 C51 1_555 1_555
C53 C16 1_555 1_555
C54 C33 1_555 1_555
H35 C54 1_555 1_555
C55 C14 1_555 1_555
H36 C55 1_555 1_555
C58 C23 1_555 1_555
H38 C58 1_555 1_555
C60 C29 1_555 1_555
H40 C60 1_555 1_555
C63 C33 1_555 1_555
N5 C24 1_555 1_555
H43 N5 1_555 1_555
N6 C57 1_555 1_555
H44 N6 1_555 1_555
N8 C41 1_555 1_555
O1 C5 1_555 1_555
O2 C5 1_555 1_555
O3 C7 1_555 1_555
O4 C7 1_555 1_555
O5 C29 1_555 1_555
O11 C53 1_555 1_555
O12 C63 1_555 1_555
Zn2 N8 1_555 1_555
N9 Zn2 1_555 1_555
O15 Zn2 1_555 1_555
O16 Zn2 1_555 1_555
Zn4 O1 1_555 1_555
C34 C57 1_555 1_555
C34 N7 1_555 1_555
C40 C54 1_555 1_555
C41 C58 1_555 1_555
C43 C46 1_555 1_555
C43 O5 1_555 1_555
C48 N8 1_555 1_555
C51 C60 1_555 1_555
C53 N5 1_555 1_555
C63 N6 1_555 1_555
N7 Zn1 1_555 1_555
O4 Zn1 1_555 1_555
C1 H1 1_555 1_555
C2 H2 1_555 1_555
C4 H4 1_555 1_555
C8 H6 1_555 1_555
C9 H7 1_555 1_555
C13 H9 1_555 1_555
C17 C4 1_555 1_555
C20 C1 1_555 1_555
H13 C20 1_555 1_555
C25 H16 1_555 1_555
C28 C25 1_555 1_555
H18 C28 1_555 1_555
C31 C39 1_555 1_555
C37 C1 1_555 1_555
C38 C25 1_555 1_555
C39 C38 1_555 1_555
H24 C39 1_555 1_555
C44 C9 1_555 1_555
H28 C44 1_555 1_555
C47 C38 1_555 1_555
C59 C28 1_555 1_555
H39 C59 1_555 1_555
C62 C31 1_555 1_555
N1 C4 1_555 1_555
N2 C17 1_555 1_555
H41 N2 1_555 1_555
N3 C37 1_555 1_555
H42 N3 1_555 1_555
N9 C2 1_555 1_555
O13 C47 1_555 1_555
O14 C62 1_555 1_555
C2 C20 1_555 1_555
C8 C37 1_555 1_555
C8 N9 1_555 1_555
C9 C17 1_555 1_555
C13 C44 1_555 1_555
C13 N1 1_555 1_555
C31 C59 1_555 1_555
C47 N2 1_555 1_555
C62 N3 1_555 1_555
C10 C21 1_555 1_555
C11 C6 1_555 1_555
C21 C22 1_555 1_555
C22 H14 1_555 1_555
C36 C22 1_555 1_555
H23 C36 1_555 1_555
C49 C36 1_555 1_555
C50 C49 1_555 1_555
H32 C50 1_555 1_555
C52 C6 1_555 1_555
H34 C52 1_555 1_555
C56 C21 1_555 1_555
H37 C56 1_555 1_555
O16 C10 1_555 1_555
O7 C10 1_555 1_555
C50 C56 1_555 1_555
C23_2 H15_2 1_555 1_555
C24_2 C23_2 1_555 1_555
C41_2 H26_2 1_555 1_555
C48_2 C24_2 1_555 1_555
H31_2 C48_2 1_555 1_555
C58_2 C23_2 1_555 1_555
H38_2 C58_2 1_555 1_555
N8_2 C41_2 1_555 1_555
Zn4 N8_2 1_555 1_555
N9_2 Zn4 1_555 1_555
O16_2 Zn4 1_555 1_555
C41_2 C58_2 1_555 1_555
C48_2 N8_2 1_555 1_555
C5_2 C15_2 1_555 1_555
C12_2 H8_2 1_555 1_555
C15_2 C12_2 1_555 1_555
C30_2 C15_2 1_555 1_555
H19_2 C30_2 1_555 1_555
O15 C5_2 1_555 1_555
O2_2 C5_2 1_555 1_555
C1_2 H1_2 1_555 1_555
C2_2 H2_2 1_555 1_555
C8_2 H6_2 1_555 1_555
C20_2 C1_2 1_555 1_555
H13_2 C20_2 1_555 1_555
C28_2 C25_2 1_555 1_555
H18_2 C28_2 1_555 1_555
C37_2 C1_2 1_555 1_555
C59_2 C28_2 1_555 1_555
H39_2 C59_2 1_555 1_555
C62_2 C31_2 1_555 1_555
N3_2 C37_2 1_555 1_555
H42_2 N3_2 1_555 1_555
N9_2 C2_2 1_555 1_555
O14_2 C62_2 1_555 1_555
C2_2 C20_2 1_555 1_555
C8_2 C37_2 1_555 1_555
C8_2 N9_2 1_555 1_555
C31_2 C59_2 1_555 1_555
C62_2 N3_2 1_555 1_555
H37_2 C56_2 1_555 1_555
O16_2 C10_2 1_555 1_555
O7_2 C10_2 1_555 1_555
C6_2 H5 1_555 1_555
C10_3 C21_2 1_555 1_555
C11_2 C6_2 1_555 1_555
C21_2 C22_2 1_555 1_555
C22_2 H14_2 1_555 1_555
C27 C18 1_555 1_555
H17 C27 1_555 1_555
C32 C27 1_555 1_555
H20 C32 1_555 1_555
C36_2 C22_2 1_555 1_555
H23_2 C36_2 1_555 1_555
C49_2 C36_2 1_555 1_555
C50_2 C49_2 1_555 1_555
H32_2 C50_2 1_555 1_555
C52_2 C6_2 1_555 1_555
H34_2 C52_2 1_555 1_555
C56_3 C21_2 1_555 1_555
H37_3 C56_3 1_555 1_555
C64 C11_2 1_555 1_555
O6 C10_3 1_555 1_555
O7_3 C10_3 1_555 1_555
O9 C64 1_555 1_555
Zn5 O6 1_555 1_555
C50_2 C56_3 1_555 1_555
C1_3 H1_3 1_555 1_555
C2_3 H2_3 1_555 1_555
C4_2 H4_2 1_555 1_555
C8_3 H6_3 1_555 1_555
C9_2 H7_2 1_555 1_555
C13_2 H9_2 1_555 1_555
C17_2 C4_2 1_555 1_555
C20_3 C1_3 1_555 1_555
H13_3 C20_3 1_555 1_555
C25_3 H16_2 1_555 1_555
C28_3 C25_3 1_555 1_555
H18_3 C28_3 1_555 1_555
C31_3 C39_2 1_555 1_555
C37_3 C1_3 1_555 1_555
C38_2 C25_3 1_555 1_555
C39_2 C38_2 1_555 1_555
H24_2 C39_2 1_555 1_555
C44_2 C9_2 1_555 1_555
H28_2 C44_2 1_555 1_555
C47_2 C38_2 1_555 1_555
C59_3 C28_3 1_555 1_555
H39_3 C59_3 1_555 1_555
C62_3 C31_3 1_555 1_555
N1_2 C4_2 1_555 1_555
N2_2 C17_2 1_555 1_555
H41_2 N2_2 1_555 1_555
N3_3 C37_3 1_555 1_555
H42_3 N3_3 1_555 1_555
N4 C2_3 1_555 1_555
O13_2 C47_2 1_555 1_555
O14_3 C62_3 1_555 1_555
Zn5 N4 1_555 1_555
C2_3 C20_3 1_555 1_555
C8_3 C37_3 1_555 1_555
C8_3 N4 1_555 1_555
C9_2 C17_2 1_555 1_555
C13_2 C44_2 1_555 1_555
C13_2 N1_2 1_555 1_555
C31_3 C59_3 1_555 1_555
C47_2 N2_2 1_555 1_555
C62_3 N3_3 1_555 1_555
C3_2 H3_2 1_555 1_555
C7_2 C26_2 1_555 1_555
C14_2 H10_2 1_555 1_555
C16_2 C3_2 1_555 1_555
C23_3 H15_3 1_555 1_555
C24_3 C23_3 1_555 1_555
C26_2 C14_2 1_555 1_555
C29_2 C55_2 1_555 1_555
C33_2 C45_2 1_555 1_555
C34_2 H21_2 1_555 1_555
C40_2 C3_2 1_555 1_555
H25_2 C40_2 1_555 1_555
C41_3 H26_3 1_555 1_555
C45_2 C16_2 1_555 1_555
H29_2 C45_2 1_555 1_555
C48_3 C24_3 1_555 1_555
H31_3 C48_3 1_555 1_555
C51_2 C26_2 1_555 1_555
H33_2 C51_2 1_555 1_555
C53_2 C16_2 1_555 1_555
C54_2 C33_2 1_555 1_555
H35_2 C54_2 1_555 1_555
C55_2 C14_2 1_555 1_555
H36_2 C55_2 1_555 1_555
C58_3 C23_3 1_555 1_555
H38_3 C58_3 1_555 1_555
C60_2 C29_2 1_555 1_555
C63_2 C33_2 1_555 1_555
N5_2 C24_3 1_555 1_555
H43_2 N5_2 1_555 1_555
N6_2 C57_2 1_555 1_555
H44_2 N6_2 1_555 1_555
N8_3 C41_3 1_555 1_555
O3_2 C7_2 1_555 1_555
O4_2 C7_2 1_555 1_555
O5_2 C29_2 1_555 1_555
O11_2 C53_2 1_555 1_555
O12_2 C63_2 1_555 1_555
Zn5 N8_3 1_555 1_555
O15_2 Zn5 1_555 1_555
C34_2 C57_2 1_555 1_555
C34_2 N7_2 1_555 1_555
C40_2 C54_2 1_555 1_555
C41_3 C58_3 1_555 1_555
C48_3 N8_3 1_555 1_555
C51_2 C60_2 1_555 1_555
C53_2 N5_2 1_555 1_555
C63_2 N6_2 1_555 1_555
N7_2 Zn1_2 1_555 1_555
O4_2 Zn1_2 1_555 1_555
C5_3 C15_3 1_555 1_555
C12_3 H8_3 1_555 1_555
C15_3 C12_3 1_555 1_555
C30_3 C15_3 1_555 1_555
H19_3 C30_3 1_555 1_555
C42_2 C12_3 1_555 1_555
H27_2 C42_2 1_555 1_555
C43_2 C42_2 1_555 1_555
C46_2 C30_3 1_555 1_555
H30_2 C46_2 1_555 1_555
O1_2 C5_3 1_555 1_555
O2_3 C5_3 1_555 1_555
Zn4_2 O1_2 1_555 1_555
C43_2 C46_2 1_555 1_555
H37_4 C56_4 1_555 1_555
O6_2 C10_4 1_555 1_555
O7_4 C10_4 1_555 1_555
Zn4_2 O6_2 1_555 1_555
C1_4 H1_4 1_555 1_555
C2_4 H2_4 1_555 1_555
C8_4 H6_4 1_555 1_555
C20_4 C1_4 1_555 1_555
H13_4 C20_4 1_555 1_555
C28_4 C25_4 1_555 1_555
H18_4 C28_4 1_555 1_555
C37_4 C1_4 1_555 1_555
C59_4 C28_4 1_555 1_555
H39_4 C59_4 1_555 1_555
C62_4 C31_4 1_555 1_555
N3_4 C37_4 1_555 1_555
H42_4 N3_4 1_555 1_555
N4_2 C2_4 1_555 1_555
O14_4 C62_4 1_555 1_555
Zn4_2 N4_2 1_555 1_555
C2_4 C20_4 1_555 1_555
C8_4 C37_4 1_555 1_555
C8_4 N4_2 1_555 1_555
C31_4 C59_4 1_555 1_555
C62_4 N3_4 1_555 1_555
C5_4 C15_4 1_555 1_555
C12_4 H8_4 1_555 1_555
C15_4 C12_4 1_555 1_555
C23_4 H15_4 1_555 1_555
C24_4 C23_4 1_555 1_555
C30_4 C15_4 1_555 1_555
H19_4 C30_4 1_555 1_555
C41_4 H26_4 1_555 1_555
C48_4 C24_4 1_555 1_555
H31_4 C48_4 1_555 1_555
C58_4 C23_4 1_555 1_555
H38_4 C58_4 1_555 1_555
N8_4 C41_4 1_555 1_555
O15_2 C5_4 1_555 1_555
O2_4 C5_4 1_555 1_555
Zn4_2 N8_4 1_555 1_555
C41_4 C58_4 1_555 1_555
C48_4 N8_4 1_555 1_555
C19 H12 1_555 1_555
H22 C35 1_555 1_555
C61 C19 1_555 1_555
C19 C35 1_555 1_555
C61 O8 1_555 1_555
C19_2 H12_2 1_555 1_555
H22_2 C35_2 1_555 1_555
C61_2 C19_2 1_555 1_555
C19_2 C35_2 1_555 1_555
C61_2 O8_2 1_555 1_555
C27_2 C18_2 1_555 1_555
H17_2 C27_2 1_555 1_555
C32_2 C27_2 1_555 1_555
H20_2 C32_2 1_555 1_555
O9_2 C64_2 1_555 1_555
C3_3 H3_3 1_555 1_555
C7_3 C26_3 1_555 1_555
C14_3 H10_3 1_555 1_555
C16_3 C3_3 1_555 1_555
C26_3 C14_3 1_555 1_555
C27_3 C18_3 1_555 1_555
H17_3 C27_3 1_555 1_555
C29_3 C55_3 1_555 1_555
C32_3 C27_3 1_555 1_555
H20_3 C32_3 1_555 1_555
C33_3 C45_3 1_555 1_555
C34_3 H21_3 1_555 1_555
C40_3 C3_3 1_555 1_555
H25_3 C40_3 1_555 1_555
C45_3 C16_3 1_555 1_555
H29_3 C45_3 1_555 1_555
C51_3 C26_3 1_555 1_555
H33_3 C51_3 1_555 1_555
C53_3 C16_3 1_555 1_555
C54_3 C33_3 1_555 1_555
H35_3 C54_3 1_555 1_555
C55_3 C14_3 1_555 1_555
H36_3 C55_3 1_555 1_555
C57_3 C32_3 1_555 1_555
C60_3 C29_3 1_555 1_555
C63_3 C33_3 1_555 1_555
H43_3 N5_3 1_555 1_555
N6_3 C57_3 1_555 1_555
H44_3 N6_3 1_555 1_555
N7_3 C18_3 1_555 1_555
O3_3 C7_3 1_555 1_555
O4_3 C7_3 1_555 1_555
O5_3 C29_3 1_555 1_555
O9_3 C64_3 1_555 1_555
O11_3 C53_3 1_555 1_555
O12_3 C63_3 1_555 1_555
C34_3 C57_3 1_555 1_555
C34_3 N7_3 1_555 1_555
C40_3 C54_3 1_555 1_555
C51_3 C60_3 1_555 1_555
C53_3 N5_3 1_555 1_555
C63_3 N6_3 1_555 1_555
N7_3 Zn1_3 1_555 1_555
O4_3 Zn1_3 1_555 1_555
C11_3 C6_3 1_555 1_555
C21_3 C22_3 1_555 1_555
C22_3 H14_3 1_555 1_555
C36_3 C22_3 1_555 1_555
H23_3 C36_3 1_555 1_555
H27_3 C42_3 1_555 1_555
C43_3 C42_3 1_555 1_555
H30_3 C46_3 1_555 1_555
C49_3 C36_3 1_555 1_555
C50_3 C49_3 1_555 1_555
H32_3 C50_3 1_555 1_555
C52_3 C6_3 1_555 1_555
H34_3 C52_3 1_555 1_555
C43_3 C46_3 1_555 1_555
C4_3 H4_3 1_555 1_555
C9_3 H7_3 1_555 1_555
C13_3 H9_3 1_555 1_555
C17_3 C4_3 1_555 1_555
C39_3 C38_3 1_555 1_555
H24_3 C39_3 1_555 1_555
C44_3 C9_3 1_555 1_555
H28_3 C44_3 1_555 1_555
C47_3 C38_3 1_555 1_555
N1_3 C4_3 1_555 1_555
N2_3 C17_3 1_555 1_555
H41_3 N2_3 1_555 1_555
O13_3 C47_3 1_555 1_555
C9_3 C17_3 1_555 1_555
C13_3 C44_3 1_555 1_555
C13_3 N1_3 1_555 1_555
C47_3 N2_3 1_555 1_555
C19_3 H12_3 1_555 1_555
H22_3 C35_3 1_555 1_555
C61_3 C19_3 1_555 1_555
C19_3 C35_3 1_555 1_555
C61_3 O8_3 1_555 1_555
C4_4 H4_4 1_555 1_555
C9_4 H7_4 1_555 1_555
C13_4 H9_4 1_555 1_555
C17_4 C4_4 1_555 1_555
C19_4 H12_4 1_555 1_555
H22_4 C35_4 1_555 1_555
C39_4 C38_4 1_555 1_555
H24_4 C39_4 1_555 1_555
C44_4 C9_4 1_555 1_555
H28_4 C44_4 1_555 1_555
C47_4 C38_4 1_555 1_555
C61_4 C19_4 1_555 1_555
N1_4 C4_4 1_555 1_555
N2_4 C17_4 1_555 1_555
H41_4 N2_4 1_555 1_555
O13_4 C47_4 1_555 1_555
C9_4 C17_4 1_555 1_555
C13_4 C44_4 1_555 1_555
C13_4 N1_4 1_555 1_555
C19_4 C35_4 1_555 1_555
C47_4 N2_4 1_555 1_555
C61_4 O8_4 1_555 1_555
C3_4 H3_4 1_555 1_555
C6_4 H5_4 1_555 1_555
C7_4 C26_4 1_555 1_555
C11_4 C6_4 1_555 1_555
C14_4 H10_4 1_555 1_555
C16_4 C3_4 1_555 1_555
C21_4 C22_4 1_555 1_555
C22_4 H14_4 1_555 1_555
C26_4 C14_4 1_555 1_555
C27_4 C18_4 1_555 1_555
H17_4 C27_4 1_555 1_555
C29_4 C55_4 1_555 1_555
C32_4 C27_4 1_555 1_555
H20_4 C32_4 1_555 1_555
C33_4 C45_4 1_555 1_555
C34_4 H21_4 1_555 1_555
C36_4 C22_4 1_555 1_555
H23_4 C36_4 1_555 1_555
C40_4 C3_4 1_555 1_555
H25_4 C40_4 1_555 1_555
H27_4 C42_4 1_555 1_555
C43_4 C42_4 1_555 1_555
C45_4 C16_4 1_555 1_555
H29_4 C45_4 1_555 1_555
H30_4 C46_4 1_555 1_555
C49_4 C36_4 1_555 1_555
C50_4 C49_4 1_555 1_555
H32_4 C50_4 1_555 1_555
C51_4 C26_4 1_555 1_555
H33_4 C51_4 1_555 1_555
C52_4 C6_4 1_555 1_555
H34_4 C52_4 1_555 1_555
C53_4 C16_4 1_555 1_555
C54_4 C33_4 1_555 1_555
H35_4 C54_4 1_555 1_555
C55_4 C14_4 1_555 1_555
H36_4 C55_4 1_555 1_555
C57_4 C32_4 1_555 1_555
C60_4 C29_4 1_555 1_555
H40_4 C60_4 1_555 1_555
C63_4 C33_4 1_555 1_555
C64_4 C11_4 1_555 1_555
H43_4 N5_4 1_555 1_555
N6_4 C57_4 1_555 1_555
H44_4 N6_4 1_555 1_555
N7_4 C18_4 1_555 1_555
O3_4 C7_4 1_555 1_555
O4_4 C7_4 1_555 1_555
O5_4 C29_4 1_555 1_555
O9_4 C64_4 1_555 1_555
O11_4 C53_4 1_555 1_555
O12_4 C63_4 1_555 1_555
C34_4 C57_4 1_555 1_555
C34_4 N7_4 1_555 1_555
C40_4 C54_4 1_555 1_555
C43_4 C46_4 1_555 1_555
C43_4 O5_4 1_555 1_555
C51_4 C60_4 1_555 1_555
C53_4 N5_4 1_555 1_555
C63_4 N6_4 1_555 1_555
N7_4 Zn1_4 1_555 1_555
O4_4 Zn1_4 1_555 1_555

#END
