
###############################################################################
#
# This file contains modified crystal structure data generated from the
# MOF subset of the Cambridge Structural Database (CSD) v543 
# hosted by the Cambridge Crystallographic Data Centre (CCDC).
#
# This work is licensed under the Creative Commons
# Attribution-NonCommercial-ShareAlike 4.0 International License.
# To view a copy of this license, visit
# http://creativecommons.org/licenses/by-nc-sa/4.0/
# or send a letter to
# Creative Commons, PO Box 1866, Mountain View, CA 94042, USA.
#
# CIF created using the CSD Python API on 29 September 2022
# The structure has been converted into the P1 space group
# The structure has a 3D framework
# The original CSD entry NESSOV is in the monoclinic crystal system
# The framework has been calculated to contain at least 10.0% void space
# The void calculation uses a probe of radius 1.32A, grid spacing 0.4
#
###############################################################################

data_NESSOV
_chemical_formula_moiety         '(C168 H120 Co5 N16 O32)n'
_symmetry_cell_setting           triclinic
_symmetry_space_group_name_H-M   'P 1'
_symmetry_Int_Tables_number      1
_space_group_name_Hall           'P 1'
loop_
_symmetry_equiv_pos_site_id
_symmetry_equiv_pos_as_xyz
1 x,y,z
_cell_length_a                   19.420(5)
_cell_length_b                   23.558(5)
_cell_length_c                   14.760(5)
_cell_angle_alpha                90
_cell_angle_beta                 127.075(5)
_cell_angle_gamma                90
_cell_volume                     5387.58
loop_
_atom_site_label
_atom_site_type_symbol
_atom_site_fract_x
_atom_site_fract_y
_atom_site_fract_z
C1 C 0.41284(12) 0.64209(8) 0.75693(17)
C2 C 0.36674(13) 0.59171(8) 0.75877(17)
C3 C 0.29159(14) 0.57121(9) 0.65959(18)
H1 H 0.2685 0.5899 0.5914
C4 C 0.25112(14) 0.52417(10) 0.66052(18)
H2 H 0.2005 0.5119 0.5928
C5 C 0.28337(13) 0.49387(8) 0.76004(17)
C6 C 0.35859(15) 0.51454(10) 0.85807(19)
H3 H 0.3828 0.4954 0.9262
C7 C 0.39853(15) 0.56258(10) 0.85741(19)
H4 H 0.4482 0.5757 0.9253
C8 C 0.23872(13) 0.44296(9) 0.76011(17)
C9 C 0.17816(16) 0.41361(10) 0.66016(19)
H5 H 0.1680 0.4250 0.5927
C10 C 0.13312(15) 0.36819(10) 0.65884(18)
H6 H 0.0928 0.3497 0.5907
C11 C 0.14690(12) 0.34960(8) 0.75716(16)
C12 C 0.21108(16) 0.37599(10) 0.85738(18)
H7 H 0.2249 0.3624 0.9257
C13 C 0.25480(16) 0.42176(10) 0.85823(18)
H8 H 0.2966 0.4391 0.9271
C14 C 0.09599(12) 0.30191(8) 0.75597(16)
O1 O 0.47794(9) 0.65930(6) 0.85145(12)
O2 O 0.38393(9) 0.66374(6) 0.66206(12)
O3 O 0.03754(9) 0.27987(5) 0.66194(11)
O4 O 0.11522(9) 0.28611(5) 0.85045(11)
C22 C 0.08716(12) 0.14209(8) 0.74307(17)
C23 C 0.13326(13) 0.09171(8) 0.74123(17)
C24 C 0.20841(14) 0.07121(9) 0.84041(18)
H16 H 0.2315 0.0899 0.9086
C25 C 0.24888(14) 0.02417(10) 0.83948(18)
H17 H 0.2995 0.0119 0.9072
C27 C 0.14141(15) 0.01454(10) 0.64193(19)
C28 C 0.10147(15) 0.06258(10) 0.64259(19)
H19 H 0.0518 0.0757 0.5747
O5 O 0.02206(9) 0.15930(6) 0.64855(12)
O7 O 0.11607(9) 0.16374(6) 0.83794(12)
Co3 Co 0.554804(15) 0.723092(9) 0.868791(19)
Co4 Co 0.445196(15) 0.723092(9) 0.631209(19)
Co5 Co 0.054804(15) 0.223092(9) 0.868791(19)
C26 C 0.21663(13) 0.99387(8) 0.73996(17)
H18 H 0.1172 0.9954 0.5738
C29 C 0.26128(13) 0.94296(9) 0.73989(17)
C30 C 0.32184(16) 0.91361(10) 0.83984(19)
H20 H 0.3320 0.9250 0.9073
C31 C 0.36688(15) 0.86819(10) 0.84116(18)
H21 H 0.4072 0.8497 0.9093
C32 C 0.35310(12) 0.84960(8) 0.74284(16)
C33 C 0.28892(16) 0.87599(10) 0.64262(18)
H22 H 0.2751 0.8624 0.5743
C34 C 0.24520(16) 0.92176(10) 0.64177(18)
H23 H 0.2034 0.9391 0.5729
C35 C 0.40401(12) 0.80191(8) 0.74403(16)
O9 O 0.61607(9) 0.66374(6) 0.83794(12)
O10 O 0.46246(9) 0.77987(5) 0.83806(11)
O11 O 0.38478(9) 0.78611(5) 0.64955(11)
O13 O 0.61522(9) 0.78611(5) 0.85045(11)
C15 C 0.89939(14) 0.20883(10) 0.39943(17)
H9 H 0.9484 0.1861 0.4384
C16 C 0.85704(15) 0.21725(11) 0.28480(18)
H10 H 0.8781 0.2009 0.2486
C17 C 0.78354(13) 0.24999(10) 0.22424(15)
C18 C 0.75647(14) 0.27295(9) 0.28325(17)
H11 H 0.7067 0.2950 0.2455
C19 C 0.80276(13) 0.26353(9) 0.39846(16)
H12 H 0.7835 0.2802 0.4365
C20 C 0.73458(14) 0.25924(11) 0.09936(17)
C21 C 0.64552(16) 0.28269(14) 0.0355(2)
H14 H 0.6481 0.3210 0.0594
H15 H 0.6122 0.2600 0.0502
N1 N 0.87364(10) 0.23171(6) 0.45760(12)
N2 N 0.77339(13) 0.24498(11) 0.05817(14)
Co1 Co 0.945196(15) 0.223092(9) 0.631209(19)
H28 H 0.8811 0.2178 0.0444
O8 O 0.88393(9) 0.16374(6) 0.66206(12)
O12 O 0.88478(9) 0.28611(5) 0.64955(11)
C1_2 C 0.58716(12) 0.64209(8) 0.74307(17)
C2_2 C 0.63326(13) 0.59171(8) 0.74123(17)
C3_2 C 0.70841(14) 0.57121(9) 0.84041(18)
H1_2 H 0.7315 0.5899 0.9086
C4_2 C 0.74888(14) 0.52417(10) 0.83948(18)
H2_2 H 0.7995 0.5119 0.9072
C5_2 C 0.71663(13) 0.49387(8) 0.73996(17)
C6_2 C 0.64141(15) 0.51454(10) 0.64193(19)
H3_2 H 0.6172 0.4954 0.5738
C7_2 C 0.60147(15) 0.56258(10) 0.64259(19)
H4_2 H 0.5518 0.5757 0.5747
C8_2 C 0.76128(13) 0.44296(9) 0.73989(17)
C9_2 C 0.82184(16) 0.41361(10) 0.83984(19)
H5_2 H 0.8320 0.4250 0.9073
C10_2 C 0.86688(15) 0.36819(10) 0.84116(18)
H6_2 H 0.9072 0.3497 0.9093
C11_2 C 0.85310(12) 0.34960(8) 0.74284(16)
C12_2 C 0.78892(16) 0.37599(10) 0.64262(18)
H7_2 H 0.7751 0.3624 0.5743
C13_2 C 0.74520(16) 0.42176(10) 0.64177(18)
H8_2 H 0.7034 0.4391 0.5729
C14_2 C 0.90401(12) 0.30191(8) 0.74403(16)
O1_2 O 0.52206(9) 0.65930(6) 0.64855(12)
O3_2 O 0.96246(9) 0.27987(5) 0.83806(11)
C22_2 C 0.91284(12) 0.14209(8) 0.75693(17)
C23_2 C 0.86674(13) 0.09171(8) 0.75877(17)
C24_2 C 0.79159(14) 0.07121(9) 0.65959(18)
H16_2 H 0.7685 0.0899 0.5914
C25_2 C 0.75112(14) 0.02417(10) 0.66052(18)
H17_2 H 0.7005 0.0119 0.5928
C27_2 C 0.85859(15) 0.01454(10) 0.85807(19)
C28_2 C 0.89853(15) 0.06258(10) 0.85741(19)
H19_2 H 0.9482 0.0757 0.9253
O5_2 O 0.97794(9) 0.15930(6) 0.85145(12)
C26_2 C 0.78337(13) 0.99387(8) 0.76004(17)
H18_2 H 0.8828 0.9954 0.9262
C29_2 C 0.73872(13) 0.94296(9) 0.76011(17)
C30_2 C 0.67816(16) 0.91361(10) 0.66016(19)
H20_2 H 0.6680 0.9250 0.5927
C31_2 C 0.63312(15) 0.86819(10) 0.65884(18)
H21_2 H 0.5928 0.8497 0.5907
C32_2 C 0.64690(12) 0.84960(8) 0.75716(16)
C33_2 C 0.71108(16) 0.87599(10) 0.85738(18)
H22_2 H 0.7249 0.8624 0.9257
C34_2 C 0.75480(16) 0.92176(10) 0.85823(18)
H23_2 H 0.7966 0.9391 0.9271
C35_2 C 0.59599(12) 0.80191(8) 0.75597(16)
N4 N 0.37364(10) 0.73171(6) 0.45760(12)
O10_2 O 0.53754(9) 0.77987(5) 0.66194(11)
C15_2 C 0.39939(14) 0.70883(10) 0.39943(17)
H9_2 H 0.4484 0.6861 0.4384
C16_2 C 0.35704(15) 0.71725(11) 0.28480(18)
H10_2 H 0.3781 0.7009 0.2486
C17_2 C 0.28354(13) 0.74999(10) 0.22424(15)
C18_2 C 0.25647(14) 0.77295(9) 0.28325(17)
H11_2 H 0.2067 0.7950 0.2455
C19_2 C 0.30276(13) 0.76353(9) 0.39846(16)
H12_2 H 0.2835 0.7802 0.4365
C20_2 C 0.23458(14) 0.75924(11) 0.09936(17)
C21_2 C 0.14552(16) 0.78269(14) 0.0355(2)
H14_2 H 0.1481 0.8210 0.0594
H15_2 H 0.1122 0.7600 0.0502
N2_2 N 0.27339(13) 0.74498(11) 0.05817(14)
H28_2 H 0.3811 0.7178 0.0444
N4_2 N 0.62636(10) 0.73171(6) 0.04240(12)
C15_3 C 0.60061(14) 0.70883(10) 0.10057(17)
H9_3 H 0.5516 0.6861 0.0616
C16_3 C 0.64296(15) 0.71725(11) 0.21520(18)
H10_3 H 0.6219 0.7009 0.2514
C17_3 C 0.71646(13) 0.74999(10) 0.27576(15)
C18_3 C 0.74353(14) 0.77295(9) 0.21675(17)
H11_3 H 0.7933 0.7950 0.2545
C19_3 C 0.69724(13) 0.76353(9) 0.10154(16)
H12_3 H 0.7165 0.7802 0.0635
C20_3 C 0.76542(14) 0.75924(11) 0.40064(17)
C21_3 C 0.85448(16) 0.78269(14) 0.4645(2)
H13 H 0.8811 0.7822 0.5444
H14_3 H 0.8519 0.8210 0.4406
H15_3 H 0.8878 0.7600 0.4498
N2_3 N 0.72661(13) 0.74498(11) 0.44183(14)
C36 C 0.89939(14) 0.79117(10) 0.89943(17)
H24 H 0.9484 0.8139 0.9384
C37 C 0.85704(15) 0.78275(11) 0.78480(18)
H25 H 0.8781 0.7991 0.7486
C38 C 0.78354(13) 0.75001(10) 0.72424(15)
C39 C 0.75647(14) 0.72705(9) 0.78325(17)
H26 H 0.7067 0.7050 0.7455
C40 C 0.80276(13) 0.73647(9) 0.89846(16)
H27 H 0.7835 0.7198 0.9365
C41 C 0.73458(14) 0.74076(11) 0.59936(17)
C42 C 0.64552(16) 0.71731(14) 0.5355(2)
H28_3 H 0.6189 0.7178 0.4556
H29 H 0.6481 0.6790 0.5594
H30 H 0.6122 0.7400 0.5502
N3 N 0.87364(10) 0.76829(6) 0.95760(12)
N5 N 0.77339(13) 0.75502(11) 0.55817(14)
H13_2 H 0.6189 0.2822 0.9556
C36_2 C 0.60061(14) 0.29117(10) 0.60057(17)
H24_2 H 0.5516 0.3139 0.5616
C37_2 C 0.64296(15) 0.28275(11) 0.71520(18)
H25_2 H 0.6219 0.2991 0.7514
C38_2 C 0.71646(13) 0.25001(10) 0.77576(15)
C39_2 C 0.74353(14) 0.22705(9) 0.71675(17)
H26_2 H 0.7933 0.2050 0.7545
C40_2 C 0.69724(13) 0.23647(9) 0.60154(16)
H27_2 H 0.7165 0.2198 0.5635
C41_2 C 0.76542(14) 0.24076(11) 0.90064(17)
C42_2 C 0.85448(16) 0.21731(14) 0.9645(2)
H29_2 H 0.8519 0.1790 0.9406
H30_2 H 0.8878 0.2400 0.9498
N3_2 N 0.62636(10) 0.26829(6) 0.54240(12)
N5_2 N 0.72661(13) 0.25502(11) 0.94183(14)
Co6 Co 0.554804(15) 0.276908(9) 0.368791(19)
Co6_2 Co 0.445196(15) 0.276908(9) 0.131209(19)
H13_3 H 0.1189 0.7822 0.9556
C36_3 C 0.10061(14) 0.79117(10) 0.60057(17)
H24_3 H 0.0516 0.8139 0.5616
C37_3 C 0.14296(15) 0.78275(11) 0.71520(18)
H25_3 H 0.1219 0.7991 0.7514
C38_3 C 0.21646(13) 0.75001(10) 0.77576(15)
C39_3 C 0.24353(14) 0.72705(9) 0.71675(17)
H26_3 H 0.2933 0.7050 0.7545
C40_3 C 0.19724(13) 0.73647(9) 0.60154(16)
H27_3 H 0.2165 0.7198 0.5635
C41_3 C 0.26542(14) 0.74076(11) 0.90064(17)
C42_3 C 0.35448(16) 0.71731(14) 0.9645(2)
H29_3 H 0.3519 0.6790 0.9406
H30_3 H 0.3878 0.7400 0.9498
N3_3 N 0.12636(10) 0.76829(6) 0.54240(12)
N5_3 N 0.22661(13) 0.75502(11) 0.94183(14)
Co6_3 Co 0.054804(15) 0.776908(9) 0.368791(19)
Co6_4 Co 0.945196(15) 0.776908(9) 0.131209(19)
O8_2 O 0.11607(9) 0.83626(6) 0.33794(12)
O12_2 O 0.11522(9) 0.71389(5) 0.35045(11)
C26_3 C 0.78337(13) 0.00613(8) 0.26004(17)
H18_3 H 0.8828 0.0046 0.4262
C29_3 C 0.73872(13) 0.05704(9) 0.26011(17)
C30_3 C 0.67816(16) 0.08639(10) 0.16016(19)
H20_3 H 0.6680 0.0750 0.0927
C31_3 C 0.63312(15) 0.13181(10) 0.15884(18)
H21_3 H 0.5928 0.1503 0.0907
C32_3 C 0.64690(12) 0.15040(8) 0.25716(16)
C33_3 C 0.71108(16) 0.12401(10) 0.35738(18)
H22_3 H 0.7249 0.1376 0.4257
C34_3 C 0.75480(16) 0.07824(10) 0.35823(18)
H23_3 H 0.7966 0.0609 0.4271
C35_3 C 0.59599(12) 0.19809(8) 0.25597(16)
O6 O 0.52206(9) 0.34070(6) 0.14855(12)
O9_2 O 0.38393(9) 0.33626(6) 0.16206(12)
O10_3 O 0.53754(9) 0.22013(5) 0.16194(11)
O11_2 O 0.61522(9) 0.21389(5) 0.35045(11)
O13_2 O 0.38478(9) 0.21389(5) 0.14955(11)
C1_3 C 0.58716(12) 0.35791(8) 0.24307(17)
C2_3 C 0.63326(13) 0.40829(8) 0.24123(17)
C3_3 C 0.70841(14) 0.42879(9) 0.34041(18)
H1_3 H 0.7315 0.4101 0.4086
C4_3 C 0.74888(14) 0.47583(10) 0.33948(18)
H2_3 H 0.7995 0.4881 0.4072
C5_3 C 0.71663(13) 0.50613(8) 0.23996(17)
C6_3 C 0.64141(15) 0.48546(10) 0.14193(19)
H3_3 H 0.6172 0.5046 0.0738
C7_3 C 0.60147(15) 0.43742(10) 0.14259(19)
H4_3 H 0.5518 0.4243 0.0747
C8_3 C 0.76128(13) 0.55704(9) 0.23989(17)
C9_3 C 0.82184(16) 0.58639(10) 0.33984(19)
H5_3 H 0.8320 0.5750 0.4073
C10_3 C 0.86688(15) 0.63181(10) 0.34116(18)
H6_3 H 0.9072 0.6503 0.4093
C11_3 C 0.85310(12) 0.65040(8) 0.24284(16)
C12_3 C 0.78892(16) 0.62401(10) 0.14262(18)
H7_3 H 0.7751 0.6376 0.0743
C13_3 C 0.74520(16) 0.57824(10) 0.14177(18)
H8_3 H 0.7034 0.5609 0.0729
C14_3 C 0.90401(12) 0.69809(8) 0.24403(16)
O2_2 O 0.61607(9) 0.33626(6) 0.33794(12)
O3_3 O 0.96246(9) 0.72013(5) 0.33806(11)
O4_2 O 0.88478(9) 0.71389(5) 0.14955(11)
C22_3 C 0.91284(12) 0.85791(8) 0.25693(17)
C23_3 C 0.86674(13) 0.90829(8) 0.25877(17)
C24_3 C 0.79159(14) 0.92879(9) 0.15959(18)
H16_3 H 0.7685 0.9101 0.0914
C25_3 C 0.75112(14) 0.97583(10) 0.16052(18)
H17_3 H 0.7005 0.9881 0.0928
C27_3 C 0.85859(15) 0.98546(10) 0.35807(19)
C28_3 C 0.89853(15) 0.93742(10) 0.35741(19)
H19_3 H 0.9482 0.9243 0.4253
O5_3 O 0.97794(9) 0.84070(6) 0.35145(12)
O7_2 O 0.88393(9) 0.83626(6) 0.16206(12)
C26_4 C 0.21663(13) 0.00613(8) 0.23996(17)
H18_4 H 0.1172 0.0046 0.0738
C29_4 C 0.26128(13) 0.05704(9) 0.23989(17)
C30_4 C 0.32184(16) 0.08639(10) 0.33984(19)
H20_4 H 0.3320 0.0750 0.4073
C31_4 C 0.36688(15) 0.13181(10) 0.34116(18)
H21_4 H 0.4072 0.1503 0.4093
C32_4 C 0.35310(12) 0.15040(8) 0.24284(16)
C33_4 C 0.28892(16) 0.12401(10) 0.14262(18)
H22_4 H 0.2751 0.1376 0.0743
C34_4 C 0.24520(16) 0.07824(10) 0.14177(18)
H23_4 H 0.2034 0.0609 0.0729
C35_4 C 0.40401(12) 0.19809(8) 0.24403(16)
O6_2 O 0.47794(9) 0.34070(6) 0.35145(12)
O10_4 O 0.46246(9) 0.22013(5) 0.33806(11)
C1_4 C 0.41284(12) 0.35791(8) 0.25693(17)
C2_4 C 0.36674(13) 0.40829(8) 0.25877(17)
C3_4 C 0.29159(14) 0.42879(9) 0.15959(18)
H1_4 H 0.2685 0.4101 0.0914
C4_4 C 0.25112(14) 0.47583(10) 0.16052(18)
H2_4 H 0.2005 0.4881 0.0928
C5_4 C 0.28337(13) 0.50613(8) 0.26004(17)
C6_4 C 0.35859(15) 0.48546(10) 0.35807(19)
H3_4 H 0.3828 0.5046 0.4262
C7_4 C 0.39853(15) 0.43742(10) 0.35741(19)
H4_4 H 0.4482 0.4243 0.4253
C8_4 C 0.23872(13) 0.55704(9) 0.26011(17)
C9_4 C 0.17816(16) 0.58639(10) 0.16016(19)
H5_4 H 0.1680 0.5750 0.0927
C10_4 C 0.13312(15) 0.63181(10) 0.15884(18)
H6_4 H 0.0928 0.6503 0.0907
C11_4 C 0.14690(12) 0.65040(8) 0.25716(16)
C12_4 C 0.21108(16) 0.62401(10) 0.35738(18)
H7_4 H 0.2249 0.6376 0.4257
C13_4 C 0.25480(16) 0.57824(10) 0.35823(18)
H8_4 H 0.2966 0.5609 0.4271
C14_4 C 0.09599(12) 0.69809(8) 0.25597(16)
O3_4 O 0.03754(9) 0.72013(5) 0.16194(11)
C22_4 C 0.08716(12) 0.85791(8) 0.24307(17)
C23_4 C 0.13326(13) 0.90829(8) 0.24123(17)
C24_4 C 0.20841(14) 0.92879(9) 0.34041(18)
H16_4 H 0.2315 0.9101 0.4086
C25_4 C 0.24888(14) 0.97583(10) 0.33948(18)
H17_4 H 0.2995 0.9881 0.4072
C27_4 C 0.14141(15) 0.98546(10) 0.14193(19)
C28_4 C 0.10147(15) 0.93742(10) 0.14259(19)
H19_4 H 0.0518 0.9243 0.0747
O5_4 O 0.02206(9) 0.84070(6) 0.14855(12)
C15_4 C 0.10061(14) 0.20883(10) 0.10057(17)
H9_4 H 0.0516 0.1861 0.0616
C16_4 C 0.14296(15) 0.21725(11) 0.21520(18)
H10_4 H 0.1219 0.2009 0.2514
C17_4 C 0.21646(13) 0.24999(10) 0.27576(15)
C18_4 C 0.24353(14) 0.27295(9) 0.21675(17)
H11_4 H 0.2933 0.2950 0.2545
C19_4 C 0.19724(13) 0.26353(9) 0.10154(16)
H12_4 H 0.2165 0.2802 0.0635
C20_4 C 0.26542(14) 0.25924(11) 0.40064(17)
C21_4 C 0.35448(16) 0.28269(14) 0.4645(2)
H13_4 H 0.3811 0.2822 0.5444
H14_4 H 0.3519 0.3210 0.4406
H15_4 H 0.3878 0.2600 0.4498
N1_2 N 0.12636(10) 0.23171(6) 0.04240(12)
N2_4 N 0.22661(13) 0.24498(11) 0.44183(14)
C36_4 C 0.39939(14) 0.29117(10) 0.89943(17)
H24_4 H 0.4484 0.3139 0.9384
C37_4 C 0.35704(15) 0.28275(11) 0.78480(18)
H25_4 H 0.3781 0.2991 0.7486
C38_4 C 0.28354(13) 0.25001(10) 0.72424(15)
C39_4 C 0.25647(14) 0.22705(9) 0.78325(17)
H26_4 H 0.2067 0.2050 0.7455
C40_4 C 0.30276(13) 0.23647(9) 0.89846(16)
H27_4 H 0.2835 0.2198 0.9365
C41_4 C 0.23458(14) 0.24076(11) 0.59936(17)
C42_4 C 0.14552(16) 0.21731(14) 0.5355(2)
H28_4 H 0.1189 0.2178 0.4556
H29_4 H 0.1481 0.1790 0.5594
H30_4 H 0.1122 0.2400 0.5502
N3_4 N 0.37364(10) 0.26829(6) 0.95760(12)
N5_4 N 0.27339(13) 0.25502(11) 0.55817(14)
loop_
_geom_bond_atom_site_label_1
_geom_bond_atom_site_label_2
_geom_bond_site_symmetry_1
_geom_bond_site_symmetry_2
C1 C2 1_555 1_555
C2 C3 1_555 1_555
C3 H1 1_555 1_555
C4 C3 1_555 1_555
H2 C4 1_555 1_555
C5 C4 1_555 1_555
C6 C5 1_555 1_555
H3 C6 1_555 1_555
C7 C2 1_555 1_555
H4 C7 1_555 1_555
C8 C5 1_555 1_555
C9 C8 1_555 1_555
H5 C9 1_555 1_555
C10 C9 1_555 1_555
H6 C10 1_555 1_555
C11 C10 1_555 1_555
C12 C11 1_555 1_555
H7 C12 1_555 1_555
C13 C8 1_555 1_555
H8 C13 1_555 1_555
C14 C11 1_555 1_555
O1 C1 1_555 1_555
O2 C1 1_555 1_555
O3 C14 1_555 1_555
O4 C14 1_555 1_555
C22 C23 1_555 1_555
C23 C24 1_555 1_555
C24 H16 1_555 1_555
C25 C24 1_555 1_555
H17 C25 1_555 1_555
C28 C23 1_555 1_555
H19 C28 1_555 1_555
O7 C22 1_555 1_555
Co3 O1 1_555 1_555
Co4 O2 1_555 1_555
Co5 O4 1_555 1_555
C6 C7 1_555 1_555
C12 C13 1_555 1_555
C22 O5 1_555 1_555
C27 C28 1_555 1_555
O7 Co5 1_555 1_555
Co3 Co4 1_555 1_555
C29 C26 1_555 1_555
C30 C29 1_555 1_555
H20 C30 1_555 1_555
C31 C30 1_555 1_555
H21 C31 1_555 1_555
C32 C31 1_555 1_555
C33 C32 1_555 1_555
H22 C33 1_555 1_555
C34 C29 1_555 1_555
H23 C34 1_555 1_555
C35 C32 1_555 1_555
O9 Co3 1_555 1_555
O10 C35 1_555 1_555
O11 C35 1_555 1_555
O13 Co3 1_555 1_555
Co3 O10 1_555 1_555
Co4 O11 1_555 1_555
C33 C34 1_555 1_555
C15 H9 1_555 1_555
C16 C15 1_555 1_555
H10 C16 1_555 1_555
C17 C16 1_555 1_555
C18 C17 1_555 1_555
H11 C18 1_555 1_555
C19 C18 1_555 1_555
H12 C19 1_555 1_555
C20 C17 1_555 1_555
C21 C20 1_555 1_555
H14 C21 1_555 1_555
H15 C21 1_555 1_555
N1 C15 1_555 1_555
N2 C20 1_555 1_555
Co1 N1 1_555 1_555
O8 Co1 1_555 1_555
O12 Co1 1_555 1_555
C19 N1 1_555 1_555
C1_2 C2_2 1_555 1_555
C2_2 C3_2 1_555 1_555
C3_2 H1_2 1_555 1_555
C4_2 C3_2 1_555 1_555
H2_2 C4_2 1_555 1_555
C5_2 C4_2 1_555 1_555
C6_2 C5_2 1_555 1_555
H3_2 C6_2 1_555 1_555
C7_2 C2_2 1_555 1_555
H4_2 C7_2 1_555 1_555
C8_2 C5_2 1_555 1_555
C9_2 C8_2 1_555 1_555
H5_2 C9_2 1_555 1_555
C10_2 C9_2 1_555 1_555
H6_2 C10_2 1_555 1_555
C11_2 C10_2 1_555 1_555
C12_2 C11_2 1_555 1_555
H7_2 C12_2 1_555 1_555
C13_2 C8_2 1_555 1_555
H8_2 C13_2 1_555 1_555
C14_2 C11_2 1_555 1_555
O1_2 C1_2 1_555 1_555
O9 C1_2 1_555 1_555
O3_2 C14_2 1_555 1_555
O12 C14_2 1_555 1_555
C22_2 C23_2 1_555 1_555
C23_2 C24_2 1_555 1_555
C24_2 H16_2 1_555 1_555
C25_2 C24_2 1_555 1_555
H17_2 C25_2 1_555 1_555
C28_2 C23_2 1_555 1_555
H19_2 C28_2 1_555 1_555
O8 C22_2 1_555 1_555
Co4 O1_2 1_555 1_555
C6_2 C7_2 1_555 1_555
C12_2 C13_2 1_555 1_555
C22_2 O5_2 1_555 1_555
C27_2 C28_2 1_555 1_555
C29_2 C26_2 1_555 1_555
C30_2 C29_2 1_555 1_555
H20_2 C30_2 1_555 1_555
C31_2 C30_2 1_555 1_555
H21_2 C31_2 1_555 1_555
C32_2 C31_2 1_555 1_555
C33_2 C32_2 1_555 1_555
H22_2 C33_2 1_555 1_555
C34_2 C29_2 1_555 1_555
H23_2 C34_2 1_555 1_555
C35_2 C32_2 1_555 1_555
N4 Co4 1_555 1_555
O10_2 C35_2 1_555 1_555
O13 C35_2 1_555 1_555
Co4 O10_2 1_555 1_555
C33_2 C34_2 1_555 1_555
C15_2 H9_2 1_555 1_555
C16_2 C15_2 1_555 1_555
H10_2 C16_2 1_555 1_555
C17_2 C16_2 1_555 1_555
C18_2 C17_2 1_555 1_555
H11_2 C18_2 1_555 1_555
C19_2 C18_2 1_555 1_555
H12_2 C19_2 1_555 1_555
C20_2 C17_2 1_555 1_555
C21_2 C20_2 1_555 1_555
H14_2 C21_2 1_555 1_555
H15_2 C21_2 1_555 1_555
N4 C15_2 1_555 1_555
N2_2 C20_2 1_555 1_555
C19_2 N4 1_555 1_555
C15_3 H9_3 1_555 1_555
C16_3 C15_3 1_555 1_555
H10_3 C16_3 1_555 1_555
C17_3 C16_3 1_555 1_555
C18_3 C17_3 1_555 1_555
H11_3 C18_3 1_555 1_555
C19_3 C18_3 1_555 1_555
H12_3 C19_3 1_555 1_555
C20_3 C17_3 1_555 1_555
C21_3 C20_3 1_555 1_555
H13 C21_3 1_555 1_555
H14_3 C21_3 1_555 1_555
H15_3 C21_3 1_555 1_555
N4_2 C15_3 1_555 1_555
N2_3 C20_3 1_555 1_555
C36 H24 1_555 1_555
C37 C36 1_555 1_555
H25 C37 1_555 1_555
C38 C37 1_555 1_555
C39 C38 1_555 1_555
H26 C39 1_555 1_555
C40 C39 1_555 1_555
H27 C40 1_555 1_555
C41 C38 1_555 1_555
C42 C41 1_555 1_555
H28_3 C42 1_555 1_555
H29 C42 1_555 1_555
H30 C42 1_555 1_555
N3 C36 1_555 1_555
N5 N2_3 1_555 1_555
C19_3 N4_2 1_555 1_555
C40 N3 1_555 1_555
C41 N5 1_555 1_555
C36_2 H24_2 1_555 1_555
C37_2 C36_2 1_555 1_555
H25_2 C37_2 1_555 1_555
C38_2 C37_2 1_555 1_555
C39_2 C38_2 1_555 1_555
H26_2 C39_2 1_555 1_555
C40_2 C39_2 1_555 1_555
H27_2 C40_2 1_555 1_555
C41_2 C38_2 1_555 1_555
C42_2 C41_2 1_555 1_555
H29_2 C42_2 1_555 1_555
H30_2 C42_2 1_555 1_555
N3_2 C36_2 1_555 1_555
Co6 N3_2 1_555 1_555
C40_2 N3_2 1_555 1_555
C41_2 N5_2 1_555 1_555
C36_3 H24_3 1_555 1_555
C37_3 C36_3 1_555 1_555
H25_3 C37_3 1_555 1_555
C38_3 C37_3 1_555 1_555
C39_3 C38_3 1_555 1_555
H26_3 C39_3 1_555 1_555
C40_3 C39_3 1_555 1_555
H27_3 C40_3 1_555 1_555
C41_3 C38_3 1_555 1_555
C42_3 C41_3 1_555 1_555
H29_3 C42_3 1_555 1_555
H30_3 C42_3 1_555 1_555
N3_3 C36_3 1_555 1_555
Co6_3 N3_3 1_555 1_555
C40_3 N3_3 1_555 1_555
C41_3 N5_3 1_555 1_555
O8_2 Co6_3 1_555 1_555
O12_2 Co6_3 1_555 1_555
C29_3 C26_3 1_555 1_555
C30_3 C29_3 1_555 1_555
H20_3 C30_3 1_555 1_555
C31_3 C30_3 1_555 1_555
H21_3 C31_3 1_555 1_555
C32_3 C31_3 1_555 1_555
C33_3 C32_3 1_555 1_555
H22_3 C33_3 1_555 1_555
C34_3 C29_3 1_555 1_555
H23_3 C34_3 1_555 1_555
C35_3 C32_3 1_555 1_555
O6 Co6_2 1_555 1_555
O9_2 Co6_2 1_555 1_555
O10_3 C35_3 1_555 1_555
O11_2 C35_3 1_555 1_555
O13_2 Co6_2 1_555 1_555
Co6_2 O10_3 1_555 1_555
Co6 O11_2 1_555 1_555
C33_3 C34_3 1_555 1_555
Co6_2 Co6 1_555 1_555
C1_3 C2_3 1_555 1_555
C2_3 C3_3 1_555 1_555
C3_3 H1_3 1_555 1_555
C4_3 C3_3 1_555 1_555
H2_3 C4_3 1_555 1_555
C5_3 C4_3 1_555 1_555
C6_3 C5_3 1_555 1_555
H3_3 C6_3 1_555 1_555
C7_3 C2_3 1_555 1_555
H4_3 C7_3 1_555 1_555
C8_3 C5_3 1_555 1_555
C9_3 C8_3 1_555 1_555
H5_3 C9_3 1_555 1_555
C10_3 C9_3 1_555 1_555
H6_3 C10_3 1_555 1_555
C11_3 C10_3 1_555 1_555
C12_3 C11_3 1_555 1_555
H7_3 C12_3 1_555 1_555
C13_3 C8_3 1_555 1_555
H8_3 C13_3 1_555 1_555
C14_3 C11_3 1_555 1_555
O6 C1_3 1_555 1_555
O2_2 C1_3 1_555 1_555
O3_3 C14_3 1_555 1_555
O4_2 C14_3 1_555 1_555
C22_3 C23_3 1_555 1_555
C23_3 C24_3 1_555 1_555
C24_3 H16_3 1_555 1_555
C25_3 C24_3 1_555 1_555
H17_3 C25_3 1_555 1_555
C28_3 C23_3 1_555 1_555
H19_3 C28_3 1_555 1_555
O7_2 C22_3 1_555 1_555
Co6 O2_2 1_555 1_555
Co6_4 O4_2 1_555 1_555
C6_3 C7_3 1_555 1_555
C12_3 C13_3 1_555 1_555
C22_3 O5_3 1_555 1_555
C27_3 C28_3 1_555 1_555
O7_2 Co6_4 1_555 1_555
C29_4 C26_4 1_555 1_555
C30_4 C29_4 1_555 1_555
H20_4 C30_4 1_555 1_555
C31_4 C30_4 1_555 1_555
H21_4 C31_4 1_555 1_555
C32_4 C31_4 1_555 1_555
C33_4 C32_4 1_555 1_555
H22_4 C33_4 1_555 1_555
C34_4 C29_4 1_555 1_555
H23_4 C34_4 1_555 1_555
C35_4 C32_4 1_555 1_555
O6_2 Co6 1_555 1_555
O10_4 C35_4 1_555 1_555
O13_2 C35_4 1_555 1_555
Co6 O10_4 1_555 1_555
C33_4 C34_4 1_555 1_555
C1_4 C2_4 1_555 1_555
C2_4 C3_4 1_555 1_555
C3_4 H1_4 1_555 1_555
C4_4 C3_4 1_555 1_555
H2_4 C4_4 1_555 1_555
C5_4 C4_4 1_555 1_555
C6_4 C5_4 1_555 1_555
H3_4 C6_4 1_555 1_555
C7_4 C2_4 1_555 1_555
H4_4 C7_4 1_555 1_555
C8_4 C5_4 1_555 1_555
C9_4 C8_4 1_555 1_555
H5_4 C9_4 1_555 1_555
C10_4 C9_4 1_555 1_555
H6_4 C10_4 1_555 1_555
C11_4 C10_4 1_555 1_555
C12_4 C11_4 1_555 1_555
H7_4 C12_4 1_555 1_555
C13_4 C8_4 1_555 1_555
H8_4 C13_4 1_555 1_555
C14_4 C11_4 1_555 1_555
O6_2 C1_4 1_555 1_555
O9_2 C1_4 1_555 1_555
O3_4 C14_4 1_555 1_555
O12_2 C14_4 1_555 1_555
C22_4 C23_4 1_555 1_555
C23_4 C24_4 1_555 1_555
C24_4 H16_4 1_555 1_555
C25_4 C24_4 1_555 1_555
H17_4 C25_4 1_555 1_555
C28_4 C23_4 1_555 1_555
H19_4 C28_4 1_555 1_555
O8_2 C22_4 1_555 1_555
C6_4 C7_4 1_555 1_555
C12_4 C13_4 1_555 1_555
C22_4 O5_4 1_555 1_555
C27_4 C28_4 1_555 1_555
C15_4 H9_4 1_555 1_555
C16_4 C15_4 1_555 1_555
H10_4 C16_4 1_555 1_555
C17_4 C16_4 1_555 1_555
C18_4 C17_4 1_555 1_555
H11_4 C18_4 1_555 1_555
C19_4 C18_4 1_555 1_555
H12_4 C19_4 1_555 1_555
C20_4 C17_4 1_555 1_555
C21_4 C20_4 1_555 1_555
H13_4 C21_4 1_555 1_555
H14_4 C21_4 1_555 1_555
H15_4 C21_4 1_555 1_555
N1_2 C15_4 1_555 1_555
N2_4 C20_4 1_555 1_555
C36_4 H24_4 1_555 1_555
C37_4 C36_4 1_555 1_555
H25_4 C37_4 1_555 1_555
C38_4 C37_4 1_555 1_555
C39_4 C38_4 1_555 1_555
H26_4 C39_4 1_555 1_555
C40_4 C39_4 1_555 1_555
H27_4 C40_4 1_555 1_555
C41_4 C38_4 1_555 1_555
C42_4 C41_4 1_555 1_555
H28_4 C42_4 1_555 1_555
H29_4 C42_4 1_555 1_555
H30_4 C42_4 1_555 1_555
N3_4 C36_4 1_555 1_555
N5_4 N2_4 1_555 1_555
C19_4 N1_2 1_555 1_555
C40_4 N3_4 1_555 1_555
C41_4 N5_4 1_555 1_555

#END
