
###############################################################################
#
# This file contains modified crystal structure data generated from the
# MOF subset of the Cambridge Structural Database (CSD) v543 
# hosted by the Cambridge Crystallographic Data Centre (CCDC).
#
# This work is licensed under the Creative Commons
# Attribution-NonCommercial-ShareAlike 4.0 International License.
# To view a copy of this license, visit
# http://creativecommons.org/licenses/by-nc-sa/4.0/
# or send a letter to
# Creative Commons, PO Box 1866, Mountain View, CA 94042, USA.
#
# CIF created using the CSD Python API on 29 September 2022
# The structure has been converted into the P1 space group
# The structure has a 3D framework
# The original CSD entry NESTAI is in the monoclinic crystal system
# The framework has been calculated to contain at least 10.0% void space
# The void calculation uses a probe of radius 1.32A, grid spacing 0.4
#
###############################################################################

data_NESTAI
_chemical_formula_moiety         '(C176 H139 N32 Ni8 O30)n'
_symmetry_cell_setting           triclinic
_symmetry_space_group_name_H-M   'P 1'
_symmetry_Int_Tables_number      1
_space_group_name_Hall           'P 1'
loop_
_symmetry_equiv_pos_site_id
_symmetry_equiv_pos_as_xyz
1 x,y,z
_cell_length_a                   14.786(5)
_cell_length_b                   26.371(5)
_cell_length_c                   17.835(5)
_cell_angle_alpha                90
_cell_angle_beta                 97.791(5)
_cell_angle_gamma                90
_cell_volume                     6890.06
loop_
_atom_site_label
_atom_site_type_symbol
_atom_site_fract_x
_atom_site_fract_y
_atom_site_fract_z
Ni1 Ni 0.378423(15) 0.112280(9) 0.736453(13)
O1 O 0.32106(10) 0.15980(6) 0.65187(9)
O2 O 0.44307(12) 0.20386(8) 0.63045(12)
O3 O 0.42191(10) 0.06685(6) 0.82473(9)
O4 O 0.57448(10) 0.06890(6) 0.84336(8)
O5 O 0.5000 0.15405(7) 0.7500
H1 H 0.5170 0.1761 0.7871
N1 N 0.25868(11) 0.06728(7) 0.71575(10)
N2 N 0.31784(13) 0.15751(9) 0.81409(12)
N3 N 0.02041(16) 0.00216(11) 0.53794(12)
N4 N 0.04827(19) 0.18562(16) 0.7603(3)
C1 C 0.36041(15) 0.19266(9) 0.61728(14)
C2 C 0.30273(15) 0.22219(9) 0.55599(13)
C3 C 0.21005(17) 0.21521(11) 0.54234(16)
H2 H 0.1824 0.1919 0.5710
C4 C 0.34254(17) 0.25751(11) 0.51354(16)
H3 H 0.4052 0.2629 0.5227
C5 C 0.49890(14) 0.05684(8) 0.86056(11)
C6 C 0.49900(14) 0.02678(8) 0.93231(11)
C7 C 0.57887(16) 0.00687(12) 0.96918(14)
H4 H 0.6331 0.0113 0.9489
C8 C 0.42077(16) 0.01964(12) 0.96388(15)
H5 H 0.3661 0.0329 0.9398
C9 C 0.21585(15) 0.06171(9) 0.64504(13)
H6 H 0.2389 0.0789 0.6063
C10 C 0.13904(17) 0.03167(11) 0.62650(14)
C11 C 0.1069(2) 0.00621(14) 0.68469(17)
C12 C 0.1497(2) 0.01208(16) 0.75717(16)
C13 C 0.22470(18) 0.04319(12) 0.77032(15)
H9 H 0.2527 0.0474 0.8199
C14 C 0.09453(19) 0.02631(13) 0.54711(16)
C15 C 0.1371(3) 0.0496(2) 0.48559(19)
H10 H 0.1888 0.0297 0.4763
H11 H 0.1566 0.0834 0.4999
H12 H 0.0935 0.0509 0.4405
C16 C 0.2306(2) 0.17056(14) 0.7960(2)
H13 H 0.2029 0.1645 0.7468
C17 C 0.1788(3) 0.1926(3) 0.8462(3)
C18 C 0.2220(3) 0.2029(4) 0.9172(4)
H14 H 0.1901 0.2187 0.9522
C19 C 0.3137(3) 0.1902(3) 0.9376(3)
H15 H 0.3438 0.1974 0.9856
C20 C 0.3578(2) 0.16661(16) 0.8846(2)
H16 H 0.4180 0.1565 0.8982
C21 C 0.0791(3) 0.1971(3) 0.8273(4)
C22 C 0.0215(4) 0.2138(7) 0.8843(6)
H18 H 0.0482 0.2217 0.9331
Ni2 Ni 0.121577(15) 0.387720(9) 0.263547(13)
Ni3 Ni 0.621577(15) 0.112280(9) 0.763547(13)
O6 O 0.17894(10) 0.34020(6) 0.34813(9)
O7 O 0.05693(12) 0.29614(8) 0.36955(12)
O9 O 0.07809(10) 0.43315(6) 0.17527(9)
O11 O 0.42552(10) 0.06890(6) 0.65664(8)
O12 O 0.07448(10) 0.43110(6) 0.34336(8)
O13 O 0.0000 0.34595(7) 0.2500
H19 H 0.4830 0.1761 0.7129
H21 H 0.0170 0.3239 0.2871
N6 N 0.24132(11) 0.43272(7) 0.28425(10)
N8 N 0.18216(13) 0.34249(9) 0.18591(12)
C23 C 0.13959(15) 0.30734(9) 0.38272(14)
C24 C 0.19727(15) 0.27781(9) 0.44401(13)
C25 C 0.28995(17) 0.28479(11) 0.45766(16)
H22 H 0.3176 0.3081 0.4290
C26 C 0.15746(17) 0.24249(11) 0.48646(16)
H23 H 0.0948 0.2371 0.4773
H37 H 0.0414 0.2163 0.6287
Ni4 Ni 0.621577(15) 0.887720(9) 0.263547(13)
Ni5 Ni 0.378423(15) 0.887720(9) 0.236453(13)
O8 O 0.57809(10) 0.93315(6) 0.17527(9)
O10 O 0.42552(10) 0.93110(6) 0.15664(8)
C27 C 0.50110(14) 0.94316(8) 0.13944(11)
C28 C 0.50100(14) 0.97322(8) 0.06769(11)
C29 C 0.42113(16) 0.99313(12) 0.03082(14)
H24 H 0.3669 0.9887 0.0511
C30 C 0.57923(16) 0.98036(12) 0.03612(15)
H25 H 0.6339 0.9671 0.0602
H7 H 0.0563 0.9851 0.6749
H8 H 0.1283 0.9952 0.7970
H17 H 0.9586 0.2163 0.8713
O13_2 O 1.0000 0.34595(7) 0.2500
H20 H 0.9830 0.3239 0.2129
N7 N 0.68216(13) 0.15751(9) 0.68591(12)
N10 N 0.95173(19) 0.18562(16) 0.7397(3)
H27 H 0.9437 0.0149 0.3251
H28 H 0.8717 0.0048 0.2030
C38 C 0.7694(2) 0.17056(14) 0.7040(2)
H33 H 0.7971 0.1645 0.7532
C39 C 0.8212(3) 0.1926(3) 0.6538(3)
C40 C 0.7780(3) 0.2029(4) 0.5828(4)
H34 H 0.8099 0.2187 0.5478
C41 C 0.6863(3) 0.1902(3) 0.5624(3)
H35 H 0.6562 0.1974 0.5144
C42 C 0.6422(2) 0.16661(16) 0.6154(2)
H36 H 0.5820 0.1565 0.6018
C43 C 0.9209(3) 0.1971(3) 0.6727(4)
C44 C 0.9785(4) 0.2138(7) 0.6157(6)
H38 H 0.9518 0.2217 0.5669
N5 N 0.74132(11) 0.93272(7) 0.28425(10)
N9 N 0.97959(16) 0.99784(11) 0.46206(12)
C31 C 0.78415(15) 0.93829(9) 0.35496(13)
H26 H 0.7611 0.9211 0.3937
C32 C 0.86096(17) 0.96833(11) 0.37350(14)
C33 C 0.8931(2) 0.99379(14) 0.31531(17)
C34 C 0.8503(2) 0.98792(16) 0.24283(16)
C35 C 0.77530(18) 0.95681(12) 0.22968(15)
H29 H 0.7473 0.9526 0.1801
C36 C 0.90547(19) 0.97369(13) 0.45289(16)
C37 C 0.8629(3) 0.9504(2) 0.51441(19)
H30 H 0.8112 0.9703 0.5237
H31 H 0.8434 0.9166 0.5001
H32 H 0.9065 0.9491 0.5595
H27_2 H 0.0563 0.0149 0.1749
H28_2 H 0.1283 0.0048 0.2970
N5_2 N 0.25868(11) 0.93272(7) 0.21575(10)
N9_2 N 0.02041(16) 0.99784(11) 0.03794(12)
C31_2 C 0.21585(15) 0.93829(9) 0.14504(13)
H26_2 H 0.2389 0.9211 0.1063
C32_2 C 0.13904(17) 0.96833(11) 0.12650(14)
C33_2 C 0.1069(2) 0.99379(14) 0.18469(17)
C34_2 C 0.1497(2) 0.98792(16) 0.25717(16)
C35_2 C 0.22470(18) 0.95681(12) 0.27032(15)
H29_2 H 0.2527 0.9526 0.3199
C36_2 C 0.09453(19) 0.97369(13) 0.04711(16)
C37_2 C 0.1371(3) 0.9504(2) 0.98559(19)
H30_2 H 0.1888 0.9703 0.9763
H31_2 H 0.1566 0.9166 0.9999
H32_2 H 0.0935 0.9491 0.9405
C15_2 C 0.8629(3) 0.0496(2) 0.01441(19)
H10_2 H 0.8112 0.0297 0.0237
H11_2 H 0.8434 0.0834 0.0001
H12_2 H 0.9065 0.0509 0.0595
Ni2_2 Ni 0.878423(15) 0.387720(9) 0.236453(13)
O6_2 O 0.82106(10) 0.34020(6) 0.15187(9)
O7_2 O 0.94307(12) 0.29614(8) 0.13045(12)
O9_2 O 0.92191(10) 0.43315(6) 0.32473(9)
O12_2 O 0.92552(10) 0.43110(6) 0.15664(8)
N6_2 N 0.75868(11) 0.43272(7) 0.21575(10)
N8_2 N 0.81784(13) 0.34249(9) 0.31409(12)
C23_2 C 0.86041(15) 0.30734(9) 0.11728(14)
C24_2 C 0.80273(15) 0.27781(9) 0.05599(13)
C25_2 C 0.71005(17) 0.28479(11) 0.04234(16)
H22_2 H 0.6824 0.3081 0.0710
C26_2 C 0.84254(17) 0.24249(11) 0.01354(16)
H23_2 H 0.9052 0.2371 0.0227
O1_2 O 0.67894(10) 0.15980(6) 0.84813(9)
O2_2 O 0.55693(12) 0.20386(8) 0.86955(12)
O3_2 O 0.57809(10) 0.06685(6) 0.67527(9)
N1_2 N 0.74132(11) 0.06728(7) 0.78425(10)
N3_2 N 0.97959(16) 0.00216(11) 0.96206(12)
C1_2 C 0.63959(15) 0.19266(9) 0.88272(14)
C2_2 C 0.69727(15) 0.22219(9) 0.94401(13)
C3_2 C 0.78995(17) 0.21521(11) 0.95766(16)
H2_2 H 0.8176 0.1919 0.9290
C4_2 C 0.65746(17) 0.25751(11) 0.98646(16)
H3_2 H 0.5948 0.2629 0.9773
C5_2 C 0.50110(14) 0.05684(8) 0.63944(11)
C6_2 C 0.50100(14) 0.02678(8) 0.56769(11)
C7_2 C 0.42113(16) 0.00687(12) 0.53082(14)
H4_2 H 0.3669 0.0113 0.5511
C8_2 C 0.57923(16) 0.01964(12) 0.53612(15)
H5_2 H 0.6339 0.0329 0.5602
C9_2 C 0.78415(15) 0.06171(9) 0.85496(13)
H6_2 H 0.7611 0.0789 0.8937
C10_2 C 0.86096(17) 0.03167(11) 0.87350(14)
C11_2 C 0.8931(2) 0.00621(14) 0.81531(17)
C12_2 C 0.8503(2) 0.01208(16) 0.74283(16)
C13_2 C 0.77530(18) 0.04319(12) 0.72968(15)
H9_2 H 0.7473 0.0474 0.6801
C14_2 C 0.90547(19) 0.02631(13) 0.95289(16)
H7_2 H 0.9437 0.9851 0.8251
H8_2 H 0.8717 0.9952 0.7030
O8_2 O 0.42191(10) 0.93315(6) 0.32473(9)
O10_2 O 0.57448(10) 0.93110(6) 0.34336(8)
C27_2 C 0.49890(14) 0.94316(8) 0.36056(11)
C28_2 C 0.49900(14) 0.97322(8) 0.43231(11)
C29_2 C 0.57887(16) 0.99313(12) 0.46918(14)
H24_2 H 0.6331 0.9887 0.4489
C30_2 C 0.42077(16) 0.98036(12) 0.46388(15)
H25_2 H 0.3661 0.9671 0.4398
C27_3 C 0.00110(14) 0.44316(8) 0.13944(11)
C28_3 C 0.00100(14) 0.47322(8) 0.06769(11)
C30_3 C 0.07923(16) 0.48036(12) 0.03612(15)
H25_3 H 0.1339 0.4671 0.0602
O4_2 O 0.07448(10) 0.56890(6) 0.84336(8)
O5_2 O 0.0000 0.65405(7) 0.7500
H1_2 H 0.0170 0.6761 0.7871
C7_3 C 0.07887(16) 0.50687(12) 0.96918(14)
H4_3 H 0.1331 0.5113 0.9489
Ni3_2 Ni 0.121577(15) 0.612280(9) 0.763547(13)
C29_3 C 0.92113(16) 0.49313(12) 0.03082(14)
H24_3 H 0.8669 0.4887 0.0511
Ni1_2 Ni 0.878423(15) 0.612280(9) 0.736453(13)
O1_3 O 0.82106(10) 0.65980(6) 0.65187(9)
O2_3 O 0.94307(12) 0.70386(8) 0.63045(12)
O3_3 O 0.92191(10) 0.56685(6) 0.82473(9)
O5_3 O 1.0000 0.65405(7) 0.7500
N1_3 N 0.75868(11) 0.56728(7) 0.71575(10)
N2_2 N 0.81784(13) 0.65751(9) 0.81409(12)
N3_3 N 0.52041(16) 0.50216(11) 0.53794(12)
N4_2 N 0.54827(19) 0.68562(16) 0.7603(3)
C1_3 C 0.86041(15) 0.69266(9) 0.61728(14)
C2_3 C 0.80273(15) 0.72219(9) 0.55599(13)
C3_3 C 0.71005(17) 0.71521(11) 0.54234(16)
H2_3 H 0.6824 0.6919 0.5710
C4_3 C 0.84254(17) 0.75751(11) 0.51354(16)
H3_3 H 0.9052 0.7629 0.5227
C5_3 C 0.99890(14) 0.55684(8) 0.86056(11)
C6_3 C 0.99900(14) 0.52678(8) 0.93231(11)
C8_3 C 0.92077(16) 0.51964(12) 0.96388(15)
H5_3 H 0.8661 0.5329 0.9398
C9_3 C 0.71585(15) 0.56171(9) 0.64504(13)
H6_3 H 0.7389 0.5789 0.6063
C10_3 C 0.63904(17) 0.53167(11) 0.62650(14)
C11_3 C 0.6069(2) 0.50621(14) 0.68469(17)
H7_3 H 0.5563 0.4851 0.6749
C12_3 C 0.6497(2) 0.51208(16) 0.75717(16)
H8_3 H 0.6283 0.4952 0.7970
C13_3 C 0.72470(18) 0.54319(12) 0.77032(15)
H9_3 H 0.7527 0.5474 0.8199
C14_3 C 0.59453(19) 0.52631(13) 0.54711(16)
C15_3 C 0.6371(3) 0.5496(2) 0.48559(19)
H10_3 H 0.6888 0.5297 0.4763
H11_3 H 0.6566 0.5834 0.4999
H12_3 H 0.5935 0.5509 0.4405
C16_2 C 0.7306(2) 0.67056(14) 0.7960(2)
H13_2 H 0.7029 0.6645 0.7468
C17_2 C 0.6788(3) 0.6926(3) 0.8462(3)
C18_2 C 0.7220(3) 0.7029(4) 0.9172(4)
H14_2 H 0.6901 0.7187 0.9522
C19_2 C 0.8137(3) 0.6902(3) 0.9376(3)
H15_2 H 0.8438 0.6974 0.9856
C20_2 C 0.8578(2) 0.66661(16) 0.8846(2)
H16_2 H 0.9180 0.6565 0.8982
C21_2 C 0.5791(3) 0.6971(3) 0.8273(4)
C22_2 C 0.5215(4) 0.7138(7) 0.8843(6)
H17_2 H 0.4586 0.7163 0.8713
H18_2 H 0.5482 0.7217 0.9331
O6_3 O 0.67894(10) 0.84020(6) 0.34813(9)
O7_3 O 0.55693(12) 0.79614(8) 0.36955(12)
O11_2 O 0.92552(10) 0.56890(6) 0.65664(8)
O13_3 O 0.5000 0.84595(7) 0.2500
H19_2 H 0.9830 0.6761 0.7129
H20_2 H 0.4830 0.8239 0.2129
H21_2 H 0.5170 0.8239 0.2871
N7_2 N 0.18216(13) 0.65751(9) 0.68591(12)
N8_3 N 0.68216(13) 0.84249(9) 0.18591(12)
N9_3 N 0.47959(16) 0.49784(11) 0.46206(12)
N10_2 N 0.45173(19) 0.68562(16) 0.7397(3)
C23_3 C 0.63959(15) 0.80734(9) 0.38272(14)
C24_3 C 0.69727(15) 0.77781(9) 0.44401(13)
C25_3 C 0.78995(17) 0.78479(11) 0.45766(16)
H22_3 H 0.8176 0.8081 0.4290
C26_3 C 0.65746(17) 0.74249(11) 0.48646(16)
H23_3 H 0.5948 0.7371 0.4773
C31_3 C 0.28415(15) 0.43829(9) 0.35496(13)
H26_3 H 0.2611 0.4211 0.3937
C32_3 C 0.36096(17) 0.46833(11) 0.37350(14)
C33_3 C 0.3931(2) 0.49379(14) 0.31531(17)
H27_3 H 0.4437 0.5149 0.3251
C34_3 C 0.3503(2) 0.48792(16) 0.24283(16)
H28_3 H 0.3717 0.5048 0.2030
C35_3 C 0.27530(18) 0.45681(12) 0.22968(15)
H29_3 H 0.2473 0.4526 0.1801
C36_3 C 0.40547(19) 0.47369(13) 0.45289(16)
C37_3 C 0.3629(3) 0.4504(2) 0.51441(19)
H30_3 H 0.3112 0.4703 0.5237
H31_3 H 0.3434 0.4166 0.5001
H32_3 H 0.4065 0.4491 0.5595
C38_2 C 0.2694(2) 0.67056(14) 0.7040(2)
H33_2 H 0.2971 0.6645 0.7532
C39_2 C 0.3212(3) 0.6926(3) 0.6538(3)
C40_2 C 0.2780(3) 0.7029(4) 0.5828(4)
H34_2 H 0.3099 0.7187 0.5478
C41_2 C 0.1863(3) 0.6902(3) 0.5624(3)
H35_2 H 0.1562 0.6974 0.5144
C42_2 C 0.1422(2) 0.66661(16) 0.6154(2)
H36_2 H 0.0820 0.6565 0.6018
C43_2 C 0.4209(3) 0.6971(3) 0.6727(4)
C44_2 C 0.4785(4) 0.7138(7) 0.6157(6)
H37_2 H 0.5414 0.7163 0.6287
H38_2 H 0.4518 0.7217 0.5669
C15_4 C 0.3629(3) 0.5496(2) 0.01441(19)
H10_4 H 0.3112 0.5297 0.0237
H11_4 H 0.3434 0.5834 0.0001
H12_4 H 0.4065 0.5509 0.0595
O6_4 O 0.32106(10) 0.84020(6) 0.15187(9)
O7_4 O 0.44307(12) 0.79614(8) 0.13045(12)
N8_4 N 0.31784(13) 0.84249(9) 0.31409(12)
N9_4 N 0.52041(16) 0.49784(11) 0.03794(12)
C23_4 C 0.36041(15) 0.80734(9) 0.11728(14)
C24_4 C 0.30273(15) 0.77781(9) 0.05599(13)
C25_4 C 0.21005(17) 0.78479(11) 0.04234(16)
H22_4 H 0.1824 0.8081 0.0710
C26_4 C 0.34254(17) 0.74249(11) 0.01354(16)
H23_4 H 0.4052 0.7371 0.0227
C31_4 C 0.71585(15) 0.43829(9) 0.14504(13)
H26_4 H 0.7389 0.4211 0.1063
C32_4 C 0.63904(17) 0.46833(11) 0.12650(14)
C33_4 C 0.6069(2) 0.49379(14) 0.18469(17)
H27_4 H 0.5563 0.5149 0.1749
C34_4 C 0.6497(2) 0.48792(16) 0.25717(16)
H28_4 H 0.6283 0.5048 0.2970
C35_4 C 0.72470(18) 0.45681(12) 0.27032(15)
H29_4 H 0.7527 0.4526 0.3199
C36_4 C 0.59453(19) 0.47369(13) 0.04711(16)
O1_4 O 0.17894(10) 0.65980(6) 0.84813(9)
O2_4 O 0.05693(12) 0.70386(8) 0.86955(12)
O3_4 O 0.07809(10) 0.56685(6) 0.67527(9)
N1_4 N 0.24132(11) 0.56728(7) 0.78425(10)
N3_4 N 0.47959(16) 0.50216(11) 0.96206(12)
C1_4 C 0.13959(15) 0.69266(9) 0.88272(14)
C2_4 C 0.19727(15) 0.72219(9) 0.94401(13)
C3_4 C 0.28995(17) 0.71521(11) 0.95766(16)
H2_4 H 0.3176 0.6919 0.9290
C4_4 C 0.15746(17) 0.75751(11) 0.98646(16)
H3_4 H 0.0948 0.7629 0.9773
C5_4 C 0.00110(14) 0.55684(8) 0.63944(11)
C6_4 C 0.00100(14) 0.52678(8) 0.56769(11)
C8_4 C 0.07923(16) 0.51964(12) 0.53612(15)
H5_4 H 0.1339 0.5329 0.5602
C9_4 C 0.28415(15) 0.56171(9) 0.85496(13)
H6_4 H 0.2611 0.5789 0.8937
C10_4 C 0.36096(17) 0.53167(11) 0.87350(14)
C11_4 C 0.3931(2) 0.50621(14) 0.81531(17)
H7_4 H 0.4437 0.4851 0.8251
C12_4 C 0.3503(2) 0.51208(16) 0.74283(16)
H8_4 H 0.3717 0.4952 0.7030
C13_4 C 0.27530(18) 0.54319(12) 0.72968(15)
H9_4 H 0.2473 0.5474 0.6801
C14_4 C 0.40547(19) 0.52631(13) 0.95289(16)
C29_4 C 0.07887(16) 0.49313(12) 0.46918(14)
H24_4 H 0.1331 0.4887 0.4489
C37_4 C 0.6371(3) 0.4504(2) 0.98559(19)
H30_4 H 0.6888 0.4703 0.9763
H31_4 H 0.6566 0.4166 0.9999
H32_4 H 0.5935 0.4491 0.9405
C7_4 C 0.92113(16) 0.50687(12) 0.53082(14)
H4_4 H 0.8669 0.5113 0.5511
C27_4 C 0.99890(14) 0.44316(8) 0.36056(11)
C28_4 C 0.99900(14) 0.47322(8) 0.43231(11)
C30_4 C 0.92077(16) 0.48036(12) 0.46388(15)
H25_4 H 0.8661 0.4671 0.4398
H17_3 H 0.0414 0.7837 0.1287
N10_3 N 0.04827(19) 0.81438(16) 0.2603(3)
C38_3 C 0.2306(2) 0.82944(14) 0.2960(2)
H33_3 H 0.2029 0.8355 0.2468
C39_3 C 0.1788(3) 0.8074(3) 0.3462(3)
C40_3 C 0.2220(3) 0.7971(4) 0.4172(4)
H34_3 H 0.1901 0.7813 0.4522
C41_3 C 0.3137(3) 0.8098(3) 0.4376(3)
H35_3 H 0.3438 0.8026 0.4856
C42_3 C 0.3578(2) 0.83339(16) 0.3846(2)
H36_3 H 0.4180 0.8435 0.3982
C43_3 C 0.0791(3) 0.8029(3) 0.3273(4)
C44_3 C 0.0215(4) 0.7862(7) 0.3843(6)
H38_3 H 0.0482 0.7783 0.4331
N4_3 N 0.95173(19) 0.81438(16) 0.2397(3)
C16_3 C 0.7694(2) 0.82944(14) 0.2040(2)
H13_3 H 0.7971 0.8355 0.2532
C17_3 C 0.8212(3) 0.8074(3) 0.1538(3)
C18_3 C 0.7780(3) 0.7971(4) 0.0828(4)
H14_3 H 0.8099 0.7813 0.0478
C19_3 C 0.6863(3) 0.8098(3) 0.0624(3)
H15_3 H 0.6562 0.8026 0.0144
C20_3 C 0.6422(2) 0.83339(16) 0.1154(2)
H16_3 H 0.5820 0.8435 0.1018
C21_3 C 0.9209(3) 0.8029(3) 0.1727(4)
C22_3 C 0.9785(4) 0.7862(7) 0.1157(6)
H18_3 H 0.9518 0.7783 0.0669
H37_3 H 0.9586 0.7837 0.3713
N4_4 N 0.45173(19) 0.31438(16) 0.2397(3)
C16_4 C 0.2694(2) 0.32944(14) 0.2040(2)
H13_4 H 0.2971 0.3355 0.2532
C17_4 C 0.3212(3) 0.3074(3) 0.1538(3)
C18_4 C 0.2780(3) 0.2971(4) 0.0828(4)
H14_4 H 0.3099 0.2813 0.0478
C19_4 C 0.1863(3) 0.3098(3) 0.0624(3)
H15_4 H 0.1562 0.3026 0.0144
C20_4 C 0.1422(2) 0.33339(16) 0.1154(2)
H16_4 H 0.0820 0.3435 0.1018
C21_4 C 0.4209(3) 0.3029(3) 0.1727(4)
C22_4 C 0.4785(4) 0.2862(7) 0.1157(6)
H17_4 H 0.5414 0.2837 0.1287
H18_4 H 0.4518 0.2783 0.0669
N10_4 N 0.54827(19) 0.31438(16) 0.2603(3)
C38_4 C 0.7306(2) 0.32944(14) 0.2960(2)
H33_4 H 0.7029 0.3355 0.2468
C39_4 C 0.6788(3) 0.3074(3) 0.3462(3)
C40_4 C 0.7220(3) 0.2971(4) 0.4172(4)
H34_4 H 0.6901 0.2813 0.4522
C41_4 C 0.8137(3) 0.3098(3) 0.4376(3)
H35_4 H 0.8438 0.3026 0.4856
C42_4 C 0.8578(2) 0.33339(16) 0.3846(2)
H36_4 H 0.9180 0.3435 0.3982
C43_4 C 0.5791(3) 0.3029(3) 0.3273(4)
C44_4 C 0.5215(4) 0.2862(7) 0.3843(6)
H37_4 H 0.4586 0.2837 0.3713
H38_4 H 0.5482 0.2783 0.4331
loop_
_geom_bond_atom_site_label_1
_geom_bond_atom_site_label_2
_geom_bond_site_symmetry_1
_geom_bond_site_symmetry_2
Ni1 O1 1_555 1_555
O1 C1 1_555 1_555
O2 C1 1_555 1_555
O3 Ni1 1_555 1_555
O4 C5 1_555 1_555
O5 Ni1 1_555 1_555
H1 O5 1_555 1_555
N1 Ni1 1_555 1_555
N2 Ni1 1_555 1_555
N3 C14 1_555 1_555
N4 C21 1_555 1_555
C1 C2 1_555 1_555
C2 C3 1_555 1_555
C3 H2 1_555 1_555
C4 C2 1_555 1_555
H3 C4 1_555 1_555
C5 O3 1_555 1_555
C6 C5 1_555 1_555
C7 C6 1_555 1_555
H4 C7 1_555 1_555
C8 C6 1_555 1_555
H5 C8 1_555 1_555
C9 N1 1_555 1_555
H6 C9 1_555 1_555
C10 C9 1_555 1_555
C11 C10 1_555 1_555
C12 C11 1_555 1_555
C13 N1 1_555 1_555
H9 C13 1_555 1_555
C14 C10 1_555 1_555
C15 C14 1_555 1_555
H10 C15 1_555 1_555
H11 C15 1_555 1_555
H12 C15 1_555 1_555
C16 N2 1_555 1_555
H13 C16 1_555 1_555
C17 C16 1_555 1_555
C18 C17 1_555 1_555
H14 C18 1_555 1_555
C19 C18 1_555 1_555
H15 C19 1_555 1_555
C20 N2 1_555 1_555
H16 C20 1_555 1_555
C21 C17 1_555 1_555
C22 C21 1_555 1_555
H18 C22 1_555 1_555
Ni2 O6 1_555 1_555
Ni3 O4 1_555 1_555
O6 C23 1_555 1_555
O7 C23 1_555 1_555
O9 Ni2 1_555 1_555
O11 Ni1 1_555 1_555
O12 Ni2 1_555 1_555
O13 Ni2 1_555 1_555
H19 O5 1_555 1_555
H21 O13 1_555 1_555
N6 Ni2 1_555 1_555
N8 Ni2 1_555 1_555
C23 C24 1_555 1_555
C24 C25 1_555 1_555
C25 C4 1_555 1_555
H22 C25 1_555 1_555
C26 C3 1_555 1_555
H23 C26 1_555 1_555
O5 Ni3 1_555 1_555
C12 C13 1_555 1_555
C19 C20 1_555 1_555
C24 C26 1_555 1_555
Ni4 O8 1_555 1_555
Ni5 O10 1_555 1_555
O8 C27 1_555 1_555
O10 C27 1_555 1_555
C27 C28 1_555 1_555
C28 C29 1_555 1_555
H24 C29 1_555 1_555
H25 C30 1_555 1_555
C28 C30 1_555 1_555
Ni3 N7 1_555 1_555
H20 O13_2 1_555 1_555
N7 C38 1_555 1_555
C38 H33 1_555 1_555
C39 C38 1_555 1_555
C40 C39 1_555 1_555
H34 C40 1_555 1_555
C41 C40 1_555 1_555
H35 C41 1_555 1_555
C42 N7 1_555 1_555
H36 C42 1_555 1_555
C43 N10 1_555 1_555
C44 C43 1_555 1_555
H38 C44 1_555 1_555
C39 C43 1_555 1_555
C41 C42 1_555 1_555
Ni4 N5 1_555 1_555
N5 C31 1_555 1_555
C31 H26 1_555 1_555
C32 C31 1_555 1_555
C33 C32 1_555 1_555
C34 C33 1_555 1_555
C35 N5 1_555 1_555
H29 C35 1_555 1_555
C36 N9 1_555 1_555
C37 C36 1_555 1_555
H30 C37 1_555 1_555
H31 C37 1_555 1_555
H32 C37 1_555 1_555
C32 C36 1_555 1_555
C34 C35 1_555 1_555
Ni5 N5_2 1_555 1_555
N5_2 C31_2 1_555 1_555
C31_2 H26_2 1_555 1_555
C32_2 C31_2 1_555 1_555
C33_2 C32_2 1_555 1_555
C34_2 C33_2 1_555 1_555
C35_2 N5_2 1_555 1_555
H29_2 C35_2 1_555 1_555
C36_2 N9_2 1_555 1_555
C32_2 C36_2 1_555 1_555
C34_2 C35_2 1_555 1_555
H30_2 C37_2 1_555 1_555
H31_2 C37_2 1_555 1_555
H32_2 C37_2 1_555 1_555
H10_2 C15_2 1_555 1_555
H11_2 C15_2 1_555 1_555
H12_2 C15_2 1_555 1_555
Ni2_2 O6_2 1_555 1_555
O6_2 C23_2 1_555 1_555
O7_2 C23_2 1_555 1_555
O9_2 Ni2_2 1_555 1_555
O12_2 Ni2_2 1_555 1_555
O13_2 Ni2_2 1_555 1_555
N6_2 Ni2_2 1_555 1_555
N8_2 Ni2_2 1_555 1_555
C23_2 C24_2 1_555 1_555
C24_2 C25_2 1_555 1_555
H22_2 C25_2 1_555 1_555
H23_2 C26_2 1_555 1_555
C24_2 C26_2 1_555 1_555
Ni3 O1_2 1_555 1_555
O1_2 C1_2 1_555 1_555
O2_2 C1_2 1_555 1_555
O3_2 Ni3 1_555 1_555
O11 C5_2 1_555 1_555
N1_2 Ni3 1_555 1_555
N3_2 C14_2 1_555 1_555
C1_2 C2_2 1_555 1_555
C2_2 C3_2 1_555 1_555
C3_2 H2_2 1_555 1_555
C4_2 C2_2 1_555 1_555
H3_2 C4_2 1_555 1_555
C5_2 O3_2 1_555 1_555
C6_2 C5_2 1_555 1_555
C7_2 C6_2 1_555 1_555
H4_2 C7_2 1_555 1_555
C8_2 C6_2 1_555 1_555
H5_2 C8_2 1_555 1_555
C9_2 N1_2 1_555 1_555
H6_2 C9_2 1_555 1_555
C10_2 C9_2 1_555 1_555
C11_2 C10_2 1_555 1_555
C12_2 C11_2 1_555 1_555
C13_2 N1_2 1_555 1_555
H9_2 C13_2 1_555 1_555
C14_2 C10_2 1_555 1_555
C12_2 C13_2 1_555 1_555
Ni5 O8_2 1_555 1_555
Ni4 O10_2 1_555 1_555
O8_2 C27_2 1_555 1_555
O10_2 C27_2 1_555 1_555
C27_2 C28_2 1_555 1_555
C28_2 C29_2 1_555 1_555
H24_2 C29_2 1_555 1_555
H25_2 C30_2 1_555 1_555
C28_2 C30_2 1_555 1_555
O9 C27_3 1_555 1_555
C27_3 C28_3 1_555 1_555
H25_3 C30_3 1_555 1_555
C28_3 C30_3 1_555 1_555
H1_2 O5_2 1_555 1_555
H4_3 C7_3 1_555 1_555
Ni3_2 O4_2 1_555 1_555
O5_2 Ni3_2 1_555 1_555
H24_3 C29_3 1_555 1_555
Ni1_2 O1_3 1_555 1_555
O1_3 C1_3 1_555 1_555
O2_3 C1_3 1_555 1_555
O3_3 Ni1_2 1_555 1_555
O5_3 Ni1_2 1_555 1_555
N1_3 Ni1_2 1_555 1_555
N2_2 Ni1_2 1_555 1_555
N3_3 C14_3 1_555 1_555
N4_2 C21_2 1_555 1_555
C1_3 C2_3 1_555 1_555
C2_3 C3_3 1_555 1_555
C3_3 H2_3 1_555 1_555
C4_3 C2_3 1_555 1_555
H3_3 C4_3 1_555 1_555
C5_3 O3_3 1_555 1_555
C6_3 C5_3 1_555 1_555
C8_3 C6_3 1_555 1_555
H5_3 C8_3 1_555 1_555
C9_3 N1_3 1_555 1_555
H6_3 C9_3 1_555 1_555
C10_3 C9_3 1_555 1_555
C11_3 C10_3 1_555 1_555
H7_3 C11_3 1_555 1_555
C12_3 C11_3 1_555 1_555
H8_3 C12_3 1_555 1_555
C13_3 N1_3 1_555 1_555
H9_3 C13_3 1_555 1_555
C14_3 C10_3 1_555 1_555
C15_3 C14_3 1_555 1_555
H10_3 C15_3 1_555 1_555
H11_3 C15_3 1_555 1_555
H12_3 C15_3 1_555 1_555
C16_2 N2_2 1_555 1_555
H13_2 C16_2 1_555 1_555
C17_2 C16_2 1_555 1_555
C18_2 C17_2 1_555 1_555
H14_2 C18_2 1_555 1_555
C19_2 C18_2 1_555 1_555
H15_2 C19_2 1_555 1_555
C20_2 N2_2 1_555 1_555
H16_2 C20_2 1_555 1_555
C21_2 C17_2 1_555 1_555
C22_2 C21_2 1_555 1_555
H17_2 C22_2 1_555 1_555
H18_2 C22_2 1_555 1_555
Ni4 O6_3 1_555 1_555
Ni3_2 N7_2 1_555 1_555
O6_3 C23_3 1_555 1_555
O7_3 C23_3 1_555 1_555
O11_2 Ni1_2 1_555 1_555
O13_3 Ni4 1_555 1_555
H19_2 O5_3 1_555 1_555
H20_2 O13_3 1_555 1_555
H21_2 O13_3 1_555 1_555
N6 C31_3 1_555 1_555
N7_2 C38_2 1_555 1_555
N8_3 Ni4 1_555 1_555
N9_3 N3_3 1_555 1_555
N10_2 N4_2 1_555 1_555
C23_3 C24_3 1_555 1_555
C24_3 C25_3 1_555 1_555
C25_3 C4_3 1_555 1_555
H22_3 C25_3 1_555 1_555
C26_3 C3_3 1_555 1_555
H23_3 C26_3 1_555 1_555
C31_3 H26_3 1_555 1_555
C32_3 C31_3 1_555 1_555
C33_3 C32_3 1_555 1_555
H27_3 C33_3 1_555 1_555
C34_3 C33_3 1_555 1_555
H28_3 C34_3 1_555 1_555
C35_3 N6 1_555 1_555
H29_3 C35_3 1_555 1_555
C36_3 N9_3 1_555 1_555
C37_3 C36_3 1_555 1_555
H30_3 C37_3 1_555 1_555
H31_3 C37_3 1_555 1_555
H32_3 C37_3 1_555 1_555
C38_2 H33_2 1_555 1_555
C39_2 C38_2 1_555 1_555
C40_2 C39_2 1_555 1_555
H34_2 C40_2 1_555 1_555
C41_2 C40_2 1_555 1_555
H35_2 C41_2 1_555 1_555
C42_2 N7_2 1_555 1_555
H36_2 C42_2 1_555 1_555
C43_2 N10_2 1_555 1_555
C44_2 C43_2 1_555 1_555
H37_2 C44_2 1_555 1_555
H38_2 C44_2 1_555 1_555
C12_3 C13_3 1_555 1_555
C19_2 C20_2 1_555 1_555
C24_3 C26_3 1_555 1_555
C32_3 C36_3 1_555 1_555
C34_3 C35_3 1_555 1_555
C39_2 C43_2 1_555 1_555
C41_2 C42_2 1_555 1_555
H10_4 C15_4 1_555 1_555
H11_4 C15_4 1_555 1_555
H12_4 C15_4 1_555 1_555
Ni5 O6_4 1_555 1_555
O6_4 C23_4 1_555 1_555
O7_4 C23_4 1_555 1_555
O13_3 Ni5 1_555 1_555
N6_2 C31_4 1_555 1_555
N8_4 Ni5 1_555 1_555
C23_4 C24_4 1_555 1_555
C24_4 C25_4 1_555 1_555
H22_4 C25_4 1_555 1_555
H23_4 C26_4 1_555 1_555
C31_4 H26_4 1_555 1_555
C32_4 C31_4 1_555 1_555
C33_4 C32_4 1_555 1_555
H27_4 C33_4 1_555 1_555
C34_4 C33_4 1_555 1_555
H28_4 C34_4 1_555 1_555
C35_4 N6_2 1_555 1_555
H29_4 C35_4 1_555 1_555
C36_4 N9_4 1_555 1_555
C24_4 C26_4 1_555 1_555
C32_4 C36_4 1_555 1_555
C34_4 C35_4 1_555 1_555
Ni3_2 O1_4 1_555 1_555
O1_4 C1_4 1_555 1_555
O2_4 C1_4 1_555 1_555
O3_4 Ni3_2 1_555 1_555
N1_4 Ni3_2 1_555 1_555
N3_4 C14_4 1_555 1_555
C1_4 C2_4 1_555 1_555
C2_4 C3_4 1_555 1_555
C3_4 H2_4 1_555 1_555
C4_4 C2_4 1_555 1_555
H3_4 C4_4 1_555 1_555
C5_4 O3_4 1_555 1_555
C6_4 C5_4 1_555 1_555
C8_4 C6_4 1_555 1_555
H5_4 C8_4 1_555 1_555
C9_4 N1_4 1_555 1_555
H6_4 C9_4 1_555 1_555
C10_4 C9_4 1_555 1_555
C11_4 C10_4 1_555 1_555
H7_4 C11_4 1_555 1_555
C12_4 C11_4 1_555 1_555
H8_4 C12_4 1_555 1_555
C13_4 N1_4 1_555 1_555
H9_4 C13_4 1_555 1_555
C14_4 C10_4 1_555 1_555
C29_4 C8_4 1_555 1_555
H24_4 C29_4 1_555 1_555
H30_4 C37_4 1_555 1_555
H31_4 C37_4 1_555 1_555
H32_4 C37_4 1_555 1_555
C12_4 C13_4 1_555 1_555
H4_4 C7_4 1_555 1_555
O9_2 C27_4 1_555 1_555
C27_4 C28_4 1_555 1_555
C30_4 C7_4 1_555 1_555
H25_4 C30_4 1_555 1_555
C28_4 C30_4 1_555 1_555
N8_4 C38_3 1_555 1_555
C38_3 H33_3 1_555 1_555
C39_3 C38_3 1_555 1_555
C40_3 C39_3 1_555 1_555
H34_3 C40_3 1_555 1_555
C41_3 C40_3 1_555 1_555
H35_3 C41_3 1_555 1_555
C42_3 N8_4 1_555 1_555
H36_3 C42_3 1_555 1_555
C43_3 N10_3 1_555 1_555
C44_3 C43_3 1_555 1_555
H38_3 C44_3 1_555 1_555
C39_3 C43_3 1_555 1_555
C41_3 C42_3 1_555 1_555
N4_3 C21_3 1_555 1_555
C16_3 N8_3 1_555 1_555
H13_3 C16_3 1_555 1_555
C17_3 C16_3 1_555 1_555
C18_3 C17_3 1_555 1_555
H14_3 C18_3 1_555 1_555
C19_3 C18_3 1_555 1_555
H15_3 C19_3 1_555 1_555
C20_3 N8_3 1_555 1_555
H16_3 C20_3 1_555 1_555
C21_3 C17_3 1_555 1_555
C22_3 C21_3 1_555 1_555
H18_3 C22_3 1_555 1_555
C19_3 C20_3 1_555 1_555
N4_4 C21_4 1_555 1_555
C16_4 N8 1_555 1_555
H13_4 C16_4 1_555 1_555
C17_4 C16_4 1_555 1_555
C18_4 C17_4 1_555 1_555
H14_4 C18_4 1_555 1_555
C19_4 C18_4 1_555 1_555
H15_4 C19_4 1_555 1_555
C20_4 N8 1_555 1_555
H16_4 C20_4 1_555 1_555
C21_4 C17_4 1_555 1_555
C22_4 C21_4 1_555 1_555
H17_4 C22_4 1_555 1_555
H18_4 C22_4 1_555 1_555
N8_2 C38_4 1_555 1_555
N10_4 N4_4 1_555 1_555
C38_4 H33_4 1_555 1_555
C39_4 C38_4 1_555 1_555
C40_4 C39_4 1_555 1_555
H34_4 C40_4 1_555 1_555
C41_4 C40_4 1_555 1_555
H35_4 C41_4 1_555 1_555
C42_4 N8_2 1_555 1_555
H36_4 C42_4 1_555 1_555
C43_4 N10_4 1_555 1_555
C44_4 C43_4 1_555 1_555
H37_4 C44_4 1_555 1_555
H38_4 C44_4 1_555 1_555
C19_4 C20_4 1_555 1_555
C39_4 C43_4 1_555 1_555
C41_4 C42_4 1_555 1_555

#END
