
###############################################################################
#
# This file contains modified crystal structure data generated from the
# MOF subset of the Cambridge Structural Database (CSD) v543 
# hosted by the Cambridge Crystallographic Data Centre (CCDC).
#
# This work is licensed under the Creative Commons
# Attribution-NonCommercial-ShareAlike 4.0 International License.
# To view a copy of this license, visit
# http://creativecommons.org/licenses/by-nc-sa/4.0/
# or send a letter to
# Creative Commons, PO Box 1866, Mountain View, CA 94042, USA.
#
# CIF created using the CSD Python API on 29 September 2022
# The structure has been converted into the P1 space group
# The structure has a 3D framework
# The original CSD entry NESVAK is in the rhombohedral crystal system
# The framework has been calculated to contain at least 10.0% void space
# The void calculation uses a probe of radius 1.32A, grid spacing 0.4
# The framework is charged, counterions have been retained in the structure
# H atom positions have been added when not included in the experimental data
#
###############################################################################

data_NESVAK
_chemical_formula_moiety         '(C432 H216 Cd54 N54 O234 18-)n'
_symmetry_cell_setting           triclinic
_symmetry_space_group_name_H-M   'P 1'
_symmetry_Int_Tables_number      1
_space_group_name_Hall           'P 1'
loop_
_symmetry_equiv_pos_site_id
_symmetry_equiv_pos_as_xyz
1 x,y,z
_cell_length_a                   21.5221(15)
_cell_length_b                   21.5221(15)
_cell_length_c                   66.232(8)
_cell_angle_alpha                90
_cell_angle_beta                 90
_cell_angle_gamma                120
_cell_volume                     26568.5
loop_
_atom_site_label
_atom_site_type_symbol
_atom_site_fract_x
_atom_site_fract_y
_atom_site_fract_z
Cd1 Cd 0.65336(2) 0.52449(2) 0.862178(6)
Cd2 Cd 0.63383(2) 0.59825(3) 0.815669(6)
Cd3 Cd 0.33525(2) 0.37355(2) 0.741487(6)
O1 O 0.5599(2) 0.4935(2) 0.83250(6)
O2 O 0.5813(3) 0.4160(2) 0.84839(6)
O3 O 0.4060(2) 0.4065(2) 0.76997(7)
O4 O 0.3861(3) 0.3053(3) 0.75663(7)
O5 O 0.3997(4) 0.1292(3) 0.80265(10)
O6 O 0.4380(4) 0.1579(3) 0.83307(8)
O7 O 0.7259(3) 0.4909(3) 0.87608(7)
O8 O 0.7455(2) 0.5912(2) 0.89054(7)
O9 O 0.9204(2) 0.4203(2) 0.88935(7)
O10 O 0.9072(3) 0.3894(3) 0.92174(7)
O11 O 0.8920(3) 0.6588(3) 0.95518(9)
O12 O 0.9527(3) 0.6090(3) 0.96227(8)
N1 N 0.6481(4) 0.6594(3) 0.84452(8)
N2 N 0.6563(3) 0.6306(2) 0.86090(8)
N3 N 0.6651(4) 0.6713(3) 0.87756(8)
C1 C 0.5513(4) 0.4322(3) 0.83503(9)
C2 C 0.5009(3) 0.3736(3) 0.82059(9)
C3 C 0.4778(3) 0.3885(3) 0.80284(9)
H1 H 0.4904 0.4366 0.7999
C4 C 0.4373(3) 0.3358(3) 0.78954(9)
C5 C 0.4184(4) 0.2653(3) 0.79404(9)
H2 H 0.3885 0.2284 0.7849
C6 C 0.4417(4) 0.2466(3) 0.81159(10)
C7 C 0.4820(3) 0.3037(3) 0.82521(9)
H3 H 0.4963 0.2937 0.8378
C8 C 0.4082(3) 0.3507(3) 0.77071(9)
C9 C 0.4246(4) 0.1752(3) 0.81621(10)
C10 C 0.7552(3) 0.5388(4) 0.88917(9)
C11 C 0.8090(3) 0.5330(4) 0.90291(10)
C12 C 0.8342(3) 0.4859(4) 0.89801(10)
H4 H 0.8218 0.4610 0.8855
C13 C 0.8777(3) 0.4759(3) 0.91175(10)
C14 C 0.9000(4) 0.5157(4) 0.92932(9)
H5 H 0.9298 0.5084 0.9384
C15 C 0.8798(4) 0.5665(4) 0.93406(10)
C16 C 0.8319(3) 0.5751(4) 0.92125(8)
H6 H 0.8153 0.6073 0.9246
C17 C 0.9058(4) 0.6108(4) 0.95240(10)
C18 C 0.9041(3) 0.4244(4) 0.90685(11)
C19 C 0.6369(5) 0.7153(4) 0.85055(11)
C20 C 0.6438(5) 0.7200(4) 0.87141(11)
C21 C 0.6392(5) 0.7737(5) 0.88170(12)
H7 H 0.6439 0.7769 0.8960
C22 C 0.6278(5) 0.8228(5) 0.87113(14)
H8 H 0.6246 0.8596 0.8782
C23 C 0.6209(5) 0.8181(5) 0.85027(15)
H9 H 0.6131 0.8517 0.8430
C24 C 0.6255(5) 0.7644(5) 0.83998(12)
H10 H 0.6208 0.7612 0.8257
O13 O 0.2301(4) 0.2686(4) 0.75067(11)
Cd4 Cd 0.47551(2) 0.12887(3) 0.862178(6)
Cd5 Cd 0.87113(3) 0.34664(2) 0.862178(6)
Cd6 Cd 0.40175(3) 0.03558(4) 0.815669(6)
Cd7 Cd 0.96716(2) 0.70225(4) 0.982336(6)
Cd8 Cd 0.66858(2) 0.62837(3) 0.908154(6)
Cd9 Cd 0.95978(2) 0.33142(2) 0.908154(6)
O14 O 0.7295(5) 0.6003(4) 0.80265(10)
O15 O 0.7199(5) 0.5620(4) 0.83307(8)
O16 O 0.4122(2) 0.4876(3) 0.72387(7)
O17 O 0.5797(2) 0.5001(3) 0.88935(7)
O18 O 0.2773(3) 0.4261(3) 0.75507(7)
O19 O 0.5587(3) 0.5665(4) 0.78851(9)
O20 O 0.6194(3) 0.6770(4) 0.79560(8)
N4 N 0.3318(4) 0.3271(5) 0.71089(8)
H11 H 0.207068 0.278926 0.762176
H12 H 0.196595 0.251002 0.739016
O1_2 O 0.5065(2) 0.0664(3) 0.83250(6)
O2_2 O 0.5840(2) 0.1653(4) 0.84839(6)
O4_2 O 0.6947(3) 0.0808(4) 0.75663(7)
O5_2 O 0.8708(3) 0.2705(5) 0.80265(10)
O6_2 O 0.8421(3) 0.2801(5) 0.83307(8)
O7_2 O 0.5091(3) 0.2350(4) 0.87608(7)
O8_2 O 0.4088(2) 0.1543(3) 0.89054(7)
O10_2 O 0.6106(3) 0.5178(4) 0.92174(7)
O11_2 O 0.3412(3) 0.2332(4) 0.95518(9)
O12_2 O 0.3910(3) 0.3437(4) 0.96227(8)
N2_2 N 0.3694(2) 0.0257(4) 0.86090(8)
C1_2 C 0.5678(3) 0.1191(5) 0.83503(9)
C2_2 C 0.6264(3) 0.1273(4) 0.82059(9)
C3_2 C 0.6115(3) 0.0893(4) 0.80284(9)
H1_2 H 0.5634 0.0538 0.7999
C4_2 C 0.6642(3) 0.1015(4) 0.78954(9)
C5_2 C 0.7347(3) 0.1531(5) 0.79404(9)
H2_2 H 0.7716 0.1601 0.7849
C6_2 C 0.7534(3) 0.1951(5) 0.81159(10)
C7_2 C 0.6963(3) 0.1783(4) 0.82521(9)
H3_2 H 0.7063 0.2026 0.8378
C8_2 C 0.6493(3) 0.0575(4) 0.77071(9)
C9_2 C 0.8248(3) 0.2494(5) 0.81621(10)
C10_2 C 0.4612(4) 0.2164(5) 0.88917(9)
C11_2 C 0.4670(4) 0.2760(5) 0.90291(10)
C12_2 C 0.5141(4) 0.3483(5) 0.89801(10)
H4_2 H 0.5390 0.3608 0.8855
C13_2 C 0.5241(3) 0.4018(4) 0.91175(10)
C14_2 C 0.4843(4) 0.3843(6) 0.92932(9)
H5_2 H 0.4916 0.4214 0.9384
C15_2 C 0.4335(4) 0.3133(6) 0.93406(10)
C16_2 C 0.4249(4) 0.2568(5) 0.92125(8)
H6_2 H 0.3927 0.2080 0.9246
C17_2 C 0.3892(4) 0.2950(6) 0.95240(10)
C18_2 C 0.5756(4) 0.4797(5) 0.90685(11)
Cd6_2 Cd 0.96442(4) 0.36617(5) 0.815669(6)
Cd7_2 Cd 0.29775(4) 0.26492(4) 0.982336(6)
Cd8_2 Cd 0.37163(3) 0.04022(4) 0.908154(6)
O17_2 O 0.4999(3) 0.0796(4) 0.88935(7)
N4_2 N 0.6729(5) 0.0046(6) 0.71089(8)
Cd3_2 Cd 0.62645(2) 0.96170(3) 0.741487(6)
O3_2 O 0.5935(2) 0.9995(3) 0.76997(7)
N1_2 N 0.3406(3) 0.9887(5) 0.84452(8)
N3_2 N 0.3287(3) 0.9938(5) 0.87756(8)
C19_2 C 0.2847(4) 0.9216(6) 0.85055(11)
C20_2 C 0.2800(4) 0.9238(6) 0.87141(11)
C21_2 C 0.2263(5) 0.8655(7) 0.88170(12)
H7_2 H 0.2231 0.8670 0.8960
C22_2 C 0.1772(5) 0.8050(7) 0.87113(14)
H8_2 H 0.1404 0.7650 0.8782
C23_2 C 0.1819(5) 0.8028(7) 0.85027(15)
H9_2 H 0.1483 0.7614 0.8430
C24_2 C 0.2356(5) 0.8611(7) 0.83998(12)
H10_2 H 0.2388 0.8596 0.8257
O13_2 O 0.7314(4) 0.9615(6) 0.75067(11)
O16_2 O 0.5124(3) 0.9245(4) 0.72387(7)
O18_2 O 0.5739(3) 0.8511(4) 0.75507(7)
O19_2 O 0.4335(4) 0.9921(5) 0.78851(9)
O20_2 O 0.3230(4) 0.9423(5) 0.79560(8)
H11_2 H 0.721074 0.928142 0.762176
H12_2 H 0.748998 0.945593 0.739016
Cd3_3 Cd 0.03830(3) 0.66475(2) 0.741487(6)
O3_3 O 0.0005(3) 0.5940(2) 0.76997(7)
N1_3 N 0.0113(5) 0.3519(4) 0.84452(8)
N3_3 N 0.0062(5) 0.3349(4) 0.87756(8)
C19_3 C 0.0784(6) 0.3631(5) 0.85055(11)
C20_3 C 0.0762(6) 0.3562(5) 0.87141(11)
C21_3 C 0.1345(7) 0.3608(5) 0.88170(12)
H7_3 H 0.1330 0.3561 0.8960
C22_3 C 0.1950(7) 0.3722(5) 0.87113(14)
H8_3 H 0.2350 0.3754 0.8782
C23_3 C 0.1972(7) 0.3791(5) 0.85027(15)
H9_3 H 0.2386 0.3869 0.8430
C24_3 C 0.1389(7) 0.3745(5) 0.83998(12)
H10_3 H 0.1404 0.3792 0.8257
O13_3 O 0.0385(6) 0.7699(4) 0.75067(11)
O16_3 O 0.0755(4) 0.5878(2) 0.72387(7)
O18_3 O 0.1489(4) 0.7227(3) 0.75507(7)
O19_3 O 0.0079(5) 0.4413(3) 0.78851(9)
O20_3 O 0.0577(5) 0.3806(3) 0.79560(8)
H11_3 H 0.0718581 0.792932 0.762176
H12_3 H 0.0544068 0.803405 0.739016
O1_3 O 0.9336(3) 0.4401(2) 0.83250(6)
O2_3 O 0.8347(4) 0.4187(3) 0.84839(6)
O4_3 O 0.9192(4) 0.6139(3) 0.75663(7)
O7_3 O 0.7650(4) 0.2741(3) 0.87608(7)
O8_3 O 0.8457(3) 0.2545(2) 0.89054(7)
O10_3 O 0.4822(4) 0.0928(3) 0.92174(7)
O11_3 O 0.7668(4) 0.1080(3) 0.95518(9)
O12_3 O 0.6563(4) 0.0473(3) 0.96227(8)
N2_3 N 0.9743(4) 0.3437(3) 0.86090(8)
C1_3 C 0.8809(5) 0.4487(4) 0.83503(9)
C2_3 C 0.8727(4) 0.4991(3) 0.82059(9)
C3_3 C 0.9107(4) 0.5222(3) 0.80284(9)
H1_3 H 0.9462 0.5096 0.7999
C4_3 C 0.8985(4) 0.5627(3) 0.78954(9)
C5_3 C 0.8469(5) 0.5816(4) 0.79404(9)
H2_3 H 0.8399 0.6115 0.7849
C6_3 C 0.8049(5) 0.5583(4) 0.81159(10)
C7_3 C 0.8217(4) 0.5180(3) 0.82521(9)
H3_3 H 0.7974 0.5037 0.8378
C8_3 C 0.9425(4) 0.5918(3) 0.77071(9)
C9_3 C 0.7506(5) 0.5754(4) 0.81621(10)
C10_3 C 0.7836(5) 0.2448(3) 0.88917(9)
C11_3 C 0.7240(5) 0.1910(3) 0.90291(10)
C12_3 C 0.6517(5) 0.1658(3) 0.89801(10)
H4_3 H 0.6392 0.1782 0.8855
C13_3 C 0.5982(4) 0.1223(3) 0.91175(10)
C14_3 C 0.6157(6) 0.1000(4) 0.92932(9)
H5_3 H 0.5786 0.0702 0.9384
C15_3 C 0.6867(6) 0.1202(4) 0.93406(10)
C16_3 C 0.7432(5) 0.1681(3) 0.92125(8)
H6_3 H 0.7920 0.1847 0.9246
C17_3 C 0.7050(6) 0.0942(4) 0.95240(10)
C18_3 C 0.5203(5) 0.0959(3) 0.90685(11)
Cd7_3 Cd 0.73508(4) 0.03284(2) 0.982336(6)
N4_3 N 0.9954(6) 0.6682(4) 0.71089(8)
Cd1_2 Cd 0.47551(2) 0.34664(2) 0.362178(6)
Cd2_2 Cd 0.40175(3) 0.36617(2) 0.315669(6)
Cd3_4 Cd 0.62645(2) 0.66475(2) 0.241487(6)
O1_4 O 0.5065(2) 0.4401(2) 0.33250(6)
O2_4 O 0.5840(2) 0.4187(3) 0.34839(6)
O3_4 O 0.5935(2) 0.5940(2) 0.26997(7)
O4_4 O 0.6947(3) 0.6139(3) 0.25663(7)
O5_3 O 0.8708(3) 0.6003(4) 0.30265(10)
O6_3 O 0.8421(3) 0.5620(4) 0.33307(8)
O7_4 O 0.5091(3) 0.2741(3) 0.37608(7)
O8_4 O 0.4088(2) 0.2545(2) 0.39054(7)
O9_2 O 0.5797(2) 0.0796(2) 0.38935(7)
O10_4 O 0.6106(3) 0.0928(3) 0.42174(7)
O11_4 O 0.3412(3) 0.1080(3) 0.45518(9)
O12_4 O 0.3910(3) 0.0473(3) 0.46227(8)
N1_4 N 0.3406(3) 0.3519(4) 0.34452(8)
N2_4 N 0.3694(2) 0.3437(3) 0.36090(8)
N3_4 N 0.3287(3) 0.3349(4) 0.37756(8)
C1_4 C 0.5678(3) 0.4487(4) 0.33503(9)
C2_4 C 0.6264(3) 0.4991(3) 0.32059(9)
C3_4 C 0.6115(3) 0.5222(3) 0.30284(9)
H1_4 H 0.5634 0.5096 0.2999
C4_4 C 0.6642(3) 0.5627(3) 0.28954(9)
C5_4 C 0.7347(3) 0.5816(4) 0.29404(9)
H2_4 H 0.7716 0.6115 0.2849
C6_4 C 0.7534(3) 0.5583(4) 0.31159(10)
C7_4 C 0.6963(3) 0.5180(3) 0.32521(9)
H3_4 H 0.7063 0.5037 0.3378
C8_4 C 0.6493(3) 0.5918(3) 0.27071(9)
C9_4 C 0.8248(3) 0.5754(4) 0.31621(10)
C10_4 C 0.4612(4) 0.2448(3) 0.38917(9)
C11_4 C 0.4670(4) 0.1910(3) 0.40291(10)
C12_4 C 0.5141(4) 0.1658(3) 0.39801(10)
H4_4 H 0.5390 0.1782 0.3855
C13_4 C 0.5241(3) 0.1223(3) 0.41175(10)
C14_4 C 0.4843(4) 0.1000(4) 0.42932(9)
H5_4 H 0.4916 0.0702 0.4384
C15_4 C 0.4335(4) 0.1202(4) 0.43406(10)
C16_4 C 0.4249(4) 0.1681(3) 0.42125(8)
H6_4 H 0.3927 0.1847 0.4246
C17_4 C 0.3892(4) 0.0942(4) 0.45240(10)
C18_4 C 0.5756(4) 0.0959(3) 0.40685(11)
C19_4 C 0.2847(4) 0.3631(5) 0.35055(11)
C20_4 C 0.2800(4) 0.3562(5) 0.37141(11)
C21_4 C 0.2263(5) 0.3608(5) 0.38170(12)
H7_4 H 0.2231 0.3561 0.3960
C22_4 C 0.1772(5) 0.3722(5) 0.37113(14)
H8_4 H 0.1404 0.3754 0.3782
C23_4 C 0.1819(5) 0.3791(5) 0.35027(15)
H9_4 H 0.1483 0.3869 0.3430
C24_4 C 0.2356(5) 0.3745(5) 0.33998(12)
H10_4 H 0.2388 0.3792 0.3257
O13_4 O 0.7314(4) 0.7699(4) 0.25067(11)
Cd4_2 Cd 0.87113(3) 0.52449(2) 0.362178(6)
Cd5_2 Cd 0.65336(2) 0.12887(3) 0.362178(6)
Cd6_3 Cd 0.96442(4) 0.59825(3) 0.315669(6)
Cd7_4 Cd 0.29775(4) 0.03284(2) 0.482336(6)
Cd8_3 Cd 0.37163(3) 0.33142(2) 0.408154(6)
Cd9_2 Cd 0.66858(2) 0.04022(2) 0.408154(6)
O14_2 O 0.3997(4) 0.2705(5) 0.30265(10)
O15_2 O 0.4380(4) 0.2801(5) 0.33307(8)
O16_4 O 0.5124(3) 0.5878(2) 0.22387(7)
O17_3 O 0.4999(3) 0.4203(2) 0.38935(7)
O18_4 O 0.5739(3) 0.7227(3) 0.25507(7)
O19_4 O 0.4335(4) 0.4413(3) 0.28851(9)
O20_4 O 0.3230(4) 0.3806(3) 0.29560(8)
N4_4 N 0.6729(5) 0.6682(4) 0.21089(8)
H11_4 H 0.721074 0.792932 0.262176
H12_4 H 0.748998 0.803405 0.239016
Cd2_3 Cd 0.63383(2) 0.03558(4) 0.315669(6)
O1_5 O 0.5599(2) 0.0664(3) 0.33250(6)
O2_5 O 0.5813(3) 0.1653(4) 0.34839(6)
O4_5 O 0.3861(3) 0.0808(4) 0.25663(7)
O7_5 O 0.7259(3) 0.2350(4) 0.37608(7)
O8_5 O 0.7455(2) 0.1543(3) 0.39054(7)
O9_3 O 0.9204(2) 0.5001(3) 0.38935(7)
O10_5 O 0.9072(3) 0.5178(4) 0.42174(7)
O11_5 O 0.8920(3) 0.2332(4) 0.45518(9)
O12_5 O 0.9527(3) 0.3437(4) 0.46227(8)
N2_5 N 0.6563(3) 0.0257(4) 0.36090(8)
C1_5 C 0.5513(4) 0.1191(5) 0.33503(9)
C2_5 C 0.5009(3) 0.1273(4) 0.32059(9)
C3_5 C 0.4778(3) 0.0893(4) 0.30284(9)
H1_5 H 0.4904 0.0538 0.2999
C4_5 C 0.4373(3) 0.1015(4) 0.28954(9)
C5_5 C 0.4184(4) 0.1531(5) 0.29404(9)
H2_5 H 0.3885 0.1601 0.2849
C6_5 C 0.4417(4) 0.1951(5) 0.31159(10)
C7_5 C 0.4820(3) 0.1783(4) 0.32521(9)
H3_5 H 0.4963 0.2026 0.3378
C8_5 C 0.4082(3) 0.0575(4) 0.27071(9)
C9_5 C 0.4246(4) 0.2494(5) 0.31621(10)
C10_5 C 0.7552(3) 0.2164(5) 0.38917(9)
C11_5 C 0.8090(3) 0.2760(5) 0.40291(10)
C12_5 C 0.8342(3) 0.3483(5) 0.39801(10)
H4_5 H 0.8218 0.3608 0.3855
C13_5 C 0.8777(3) 0.4018(4) 0.41175(10)
C14_5 C 0.9000(4) 0.3843(6) 0.42932(9)
H5_5 H 0.9298 0.4214 0.4384
C15_5 C 0.8798(4) 0.3133(6) 0.43406(10)
C16_5 C 0.8319(3) 0.2568(5) 0.42125(8)
H6_5 H 0.8153 0.2080 0.4246
C17_5 C 0.9058(4) 0.2950(6) 0.45240(10)
C18_5 C 0.9041(3) 0.4797(5) 0.40685(11)
Cd7_5 Cd 0.96716(2) 0.26492(4) 0.482336(6)
Cd9_3 Cd 0.95978(2) 0.62837(3) 0.408154(6)
O14_3 O 0.7295(5) 0.1292(6) 0.30265(10)
O15_3 O 0.7199(5) 0.1579(6) 0.33307(8)
N4_5 N 0.3318(4) 0.0046(6) 0.21089(8)
Cd3_5 Cd 0.33525(2) 0.96170(3) 0.241487(6)
O3_5 O 0.4060(2) 0.9995(3) 0.26997(7)
N1_5 N 0.6481(4) 0.9887(5) 0.34452(8)
N3_5 N 0.6651(4) 0.9938(5) 0.37756(8)
C19_5 C 0.6369(5) 0.9216(6) 0.35055(11)
C20_5 C 0.6438(5) 0.9238(6) 0.37141(11)
C21_5 C 0.6392(5) 0.8655(7) 0.38170(12)
H7_5 H 0.6439 0.8670 0.3960
C22_5 C 0.6278(5) 0.8050(7) 0.37113(14)
H8_5 H 0.6246 0.7650 0.3782
C23_5 C 0.6209(5) 0.8028(7) 0.35027(15)
H9_5 H 0.6131 0.7614 0.3430
C24_5 C 0.6255(5) 0.8611(7) 0.33998(12)
H10_5 H 0.6208 0.8596 0.3257
O13_5 O 0.2301(4) 0.9615(6) 0.25067(11)
O16_5 O 0.4122(2) 0.9245(4) 0.22387(7)
O18_5 O 0.2773(3) 0.8511(4) 0.25507(7)
O19_5 O 0.5587(3) 0.9921(5) 0.28851(9)
O20_5 O 0.6194(3) 0.9423(5) 0.29560(8)
H11_5 H 0.207068 0.928142 0.262176
H12_5 H 0.196595 0.945593 0.239016
Cd3_6 Cd 0.03830(3) 0.37355(2) 0.241487(6)
O3_6 O 0.0005(3) 0.4065(2) 0.26997(7)
N1_6 N 0.0113(5) 0.6594(3) 0.34452(8)
N3_6 N 0.0062(5) 0.6713(3) 0.37756(8)
C19_6 C 0.0784(6) 0.7153(4) 0.35055(11)
C20_6 C 0.0762(6) 0.7200(4) 0.37141(11)
C21_6 C 0.1345(7) 0.7737(5) 0.38170(12)
H7_6 H 0.1330 0.7769 0.3960
C22_6 C 0.1950(7) 0.8228(5) 0.37113(14)
H8_6 H 0.2350 0.8596 0.3782
C23_6 C 0.1972(7) 0.8181(5) 0.35027(15)
H9_6 H 0.2386 0.8517 0.3430
C24_6 C 0.1389(7) 0.7644(5) 0.33998(12)
H10_6 H 0.1404 0.7612 0.3257
O13_6 O 0.0385(6) 0.2686(4) 0.25067(11)
O16_6 O 0.0755(4) 0.4876(3) 0.22387(7)
O18_6 O 0.1489(4) 0.4261(3) 0.25507(7)
O19_6 O 0.0079(5) 0.5665(4) 0.28851(9)
O20_6 O 0.0577(5) 0.6770(4) 0.29560(8)
H11_6 H 0.0718581 0.278926 0.262176
H12_6 H 0.0544068 0.251002 0.239016
O1_6 O 0.9336(3) 0.4935(2) 0.33250(6)
O2_6 O 0.8347(4) 0.4160(2) 0.34839(6)
O4_6 O 0.9192(4) 0.3053(3) 0.25663(7)
O7_6 O 0.7650(4) 0.4909(3) 0.37608(7)
O8_6 O 0.8457(3) 0.5912(2) 0.39054(7)
O10_6 O 0.4822(4) 0.3894(3) 0.42174(7)
O11_6 O 0.7668(4) 0.6588(3) 0.45518(9)
O12_6 O 0.6563(4) 0.6090(3) 0.46227(8)
N2_6 N 0.9743(4) 0.6306(2) 0.36090(8)
C1_6 C 0.8809(5) 0.4322(3) 0.33503(9)
C2_6 C 0.8727(4) 0.3736(3) 0.32059(9)
C3_6 C 0.9107(4) 0.3885(3) 0.30284(9)
H1_6 H 0.9462 0.4366 0.2999
C4_6 C 0.8985(4) 0.3358(3) 0.28954(9)
C5_6 C 0.8469(5) 0.2653(3) 0.29404(9)
H2_6 H 0.8399 0.2284 0.2849
C6_6 C 0.8049(5) 0.2466(3) 0.31159(10)
C7_6 C 0.8217(4) 0.3037(3) 0.32521(9)
H3_6 H 0.7974 0.2937 0.3378
C8_6 C 0.9425(4) 0.3507(3) 0.27071(9)
C9_6 C 0.7506(5) 0.1752(3) 0.31621(10)
C10_6 C 0.7836(5) 0.5388(4) 0.38917(9)
C11_6 C 0.7240(5) 0.5330(4) 0.40291(10)
C12_6 C 0.6517(5) 0.4859(4) 0.39801(10)
H4_6 H 0.6392 0.4610 0.3855
C13_6 C 0.5982(4) 0.4759(3) 0.41175(10)
C14_6 C 0.6157(6) 0.5157(4) 0.42932(9)
H5_6 H 0.5786 0.5084 0.4384
C15_6 C 0.6867(6) 0.5665(4) 0.43406(10)
C16_6 C 0.7432(5) 0.5751(4) 0.42125(8)
H6_6 H 0.7920 0.6073 0.4246
C17_6 C 0.7050(6) 0.6108(4) 0.45240(10)
C18_6 C 0.5203(5) 0.4244(4) 0.40685(11)
Cd7_6 Cd 0.73508(4) 0.70225(4) 0.482336(6)
N4_6 N 0.9954(6) 0.3271(5) 0.21089(8)
C19_7 C 0.3036(5) 0.0486(4) 0.18388(11)
C20_7 C 0.3105(5) 0.0533(4) 0.20474(11)
C21_7 C 0.3059(5) 0.1070(5) 0.21503(12)
H7_7 H 0.3106 0.1102 0.2293
C22_7 C 0.2945(5) 0.1561(5) 0.20446(14)
H8_7 H 0.2913 0.1929 0.2115
C23_7 C 0.2876(5) 0.1514(5) 0.18360(15)
H9_7 H 0.2798 0.1850 0.1763
C24_7 C 0.2922(5) 0.0977(5) 0.17331(12)
H10_7 H 0.2875 0.0945 0.1590
O20_7 O 0.2860(3) 0.0104(4) 0.12894(8)
Cd1_3 Cd 0.32003(2) 0.85782(2) 0.195511(6)
Cd2_4 Cd 0.30050(2) 0.93158(3) 0.149002(6)
Cd3_7 Cd 0.00192(2) 0.70688(2) 0.074820(6)
O1_7 O 0.2266(2) 0.8268(2) 0.16583(6)
O2_7 O 0.2480(3) 0.7493(2) 0.18172(6)
O3_7 O 0.0727(2) 0.7398(2) 0.10330(7)
O4_7 O 0.0528(3) 0.6386(3) 0.08996(7)
O5_4 O 0.0664(4) 0.4625(3) 0.13598(10)
O6_4 O 0.1047(4) 0.4912(3) 0.16640(8)
O7_7 O 0.3926(3) 0.8242(3) 0.20941(7)
O9_4 O 0.5871(2) 0.7536(2) 0.22268(7)
N1_7 N 0.3148(4) 0.9927(3) 0.17785(8)
N2_7 N 0.3230(3) 0.9639(2) 0.19423(8)
C1_7 C 0.2180(4) 0.7655(3) 0.16836(9)
C2_7 C 0.1676(3) 0.7069(3) 0.15392(9)
C3_7 C 0.1445(3) 0.7218(3) 0.13617(9)
H1_7 H 0.1571 0.7699 0.1332
C4_7 C 0.1040(3) 0.6691(3) 0.12287(9)
C5_7 C 0.0851(4) 0.5986(3) 0.12737(9)
H2_7 H 0.0552 0.5617 0.1182
C6_7 C 0.1084(4) 0.5799(3) 0.14492(10)
C7_7 C 0.1487(3) 0.6370(3) 0.15854(9)
H3_7 H 0.1630 0.6270 0.1711
C8_7 C 0.0749(3) 0.6840(3) 0.10404(9)
C9_7 C 0.0913(4) 0.5085(3) 0.14954(10)
C10_7 C 0.4219(3) 0.8721(4) 0.22250(9)
C11_7 C 0.4757(3) 0.8663(4) 0.23624(10)
C12_7 C 0.5009(3) 0.8192(4) 0.23134(10)
H4_7 H 0.4885 0.7943 0.2188
C13_7 C 0.5444(3) 0.8092(3) 0.24508(10)
C14_7 C 0.5667(4) 0.8490(4) 0.26265(9)
H5_7 H 0.5965 0.8417 0.2717
C15_7 C 0.5465(4) 0.8998(4) 0.26739(10)
C16_7 C 0.4986(3) 0.9084(4) 0.25458(8)
H6_7 H 0.4820 0.9406 0.2579
C17_7 C 0.5725(4) 0.9441(4) 0.28573(10)
C18_7 C 0.5708(3) 0.7577(4) 0.24018(11)
Cd4_3 Cd 0.14218(2) 0.46220(3) 0.195511(6)
Cd5_3 Cd 0.53780(3) 0.67997(2) 0.195511(6)
Cd6_4 Cd 0.06842(3) 0.36891(4) 0.149002(6)
O14_4 O 0.3962(5) 0.9336(4) 0.13598(10)
O15_4 O 0.3866(5) 0.8953(4) 0.16640(8)
O16_7 O 0.0788(2) 0.8210(3) 0.05721(7)
O17_4 O 0.2464(2) 0.8334(3) 0.22268(7)
O19_7 O 0.2253(3) 0.8999(4) 0.12185(9)
O13_7 O 0.8968(4) 0.6019(4) 0.08400(11)
O18_7 O 0.9439(3) 0.7595(3) 0.08841(7)
N4_7 N 0.9984(4) 0.6605(5) 0.04423(8)
H11_7 H 0.873734 0.612259 0.0955097
H12_7 H 0.863262 0.584336 0.0723497
Cd3_8 Cd 0.29312(2) 0.29503(3) 0.074820(6)
O1_8 O 0.1732(2) 0.3997(3) 0.16583(6)
O2_8 O 0.2507(2) 0.4986(4) 0.18172(6)
O3_8 O 0.2602(2) 0.3328(3) 0.10330(7)
O4_8 O 0.3614(3) 0.4141(4) 0.08996(7)
O5_5 O 0.5375(3) 0.6038(5) 0.13598(10)
O6_5 O 0.5088(3) 0.6134(5) 0.16640(8)
O7_8 O 0.1758(3) 0.5683(4) 0.20941(7)
N1_8 N 0.0073(3) 0.3220(5) 0.17785(8)
N2_8 N 0.0361(2) 0.3590(4) 0.19423(8)
C1_8 C 0.2345(3) 0.4524(5) 0.16836(9)
C2_8 C 0.2931(3) 0.4606(4) 0.15392(9)
C3_8 C 0.2782(3) 0.4226(4) 0.13617(9)
H1_8 H 0.2301 0.3871 0.1332
C4_8 C 0.3309(3) 0.4348(4) 0.12287(9)
C5_8 C 0.4014(3) 0.4864(5) 0.12737(9)
H2_8 H 0.4383 0.4934 0.1182
C6_8 C 0.4201(3) 0.5284(5) 0.14492(10)
C7_8 C 0.3630(3) 0.5116(4) 0.15854(9)
H3_8 H 0.3730 0.5359 0.1711
C8_8 C 0.3160(3) 0.3908(4) 0.10404(9)
C9_8 C 0.4915(3) 0.5827(5) 0.14954(10)
C10_8 C 0.1279(4) 0.5497(5) 0.22250(9)
C11_8 C 0.1337(4) 0.6093(5) 0.23624(10)
C12_8 C 0.1808(4) 0.6816(5) 0.23134(10)
H4_8 H 0.2057 0.6941 0.2188
C13_8 C 0.1908(3) 0.7351(4) 0.24508(10)
C14_8 C 0.1510(4) 0.7176(6) 0.26265(9)
H5_8 H 0.1583 0.7547 0.2717
C15_8 C 0.1002(4) 0.6466(6) 0.26739(10)
C16_8 C 0.0916(4) 0.5901(5) 0.25458(8)
H6_8 H 0.0594 0.5413 0.2579
C17_8 C 0.0559(4) 0.6283(6) 0.28573(10)
C18_8 C 0.2423(4) 0.8130(5) 0.24018(11)
O13_8 O 0.3981(4) 0.2948(6) 0.08400(11)
Cd6_5 Cd 0.63109(4) 0.69950(5) 0.149002(6)
O16_8 O 0.1790(3) 0.2579(4) 0.05721(7)
O17_5 O 0.1666(3) 0.4129(4) 0.22268(7)
O18_8 O 0.2405(3) 0.1845(4) 0.08841(7)
O19_8 O 0.1001(4) 0.3255(5) 0.12185(9)
N4_8 N 0.3395(5) 0.3380(6) 0.04423(8)
H11_8 H 0.387741 0.261475 0.0955097
H12_8 H 0.415664 0.278927 0.0723497
C19_8 C 0.9514(4) 0.2549(6) 0.18388(11)
C20_8 C 0.9467(4) 0.2571(6) 0.20474(11)
C21_8 C 0.8930(5) 0.1988(7) 0.21503(12)
H7_8 H 0.8898 0.2003 0.2293
C22_8 C 0.8439(5) 0.1383(7) 0.20446(14)
H8_8 H 0.8071 0.0983 0.2115
C23_8 C 0.8486(5) 0.1361(7) 0.18360(15)
H9_8 H 0.8150 0.0947 0.1763
C24_8 C 0.9023(5) 0.1944(7) 0.17331(12)
H10_8 H 0.9055 0.1929 0.1590
O20_8 O 0.9896(4) 0.2757(5) 0.12894(8)
O13_9 O 0.7052(6) 0.1032(4) 0.08400(11)
O18_9 O 0.8155(4) 0.0561(3) 0.08841(7)
N4_9 N 0.6620(6) 0.0016(4) 0.04423(8)
H11_9 H 0.738525 0.126266 0.0955097
H12_9 H 0.721073 0.136738 0.0723497
Cd3_9 Cd 0.70497(3) 0.99808(2) 0.074820(6)
O1_9 O 0.6003(3) 0.7734(2) 0.16583(6)
O2_9 O 0.5014(4) 0.7520(3) 0.18172(6)
O3_9 O 0.6672(3) 0.9273(2) 0.10330(7)
O4_9 O 0.5859(4) 0.9472(3) 0.08996(7)
O7_9 O 0.4317(4) 0.6074(3) 0.20941(7)
N1_9 N 0.6780(5) 0.6852(4) 0.17785(8)
N2_9 N 0.6410(4) 0.6770(3) 0.19423(8)
C1_9 C 0.5476(5) 0.7820(4) 0.16836(9)
C2_9 C 0.5394(4) 0.8324(3) 0.15392(9)
C3_9 C 0.5774(4) 0.8555(3) 0.13617(9)
H1_9 H 0.6129 0.8429 0.1332
C4_9 C 0.5652(4) 0.8960(3) 0.12287(9)
C5_9 C 0.5136(5) 0.9149(4) 0.12737(9)
H2_9 H 0.5066 0.9448 0.1182
C6_9 C 0.4716(5) 0.8916(4) 0.14492(10)
C7_9 C 0.4884(4) 0.8513(3) 0.15854(9)
H3_9 H 0.4641 0.8370 0.1711
C8_9 C 0.6092(4) 0.9251(3) 0.10404(9)
C9_9 C 0.4173(5) 0.9087(4) 0.14954(10)
C10_9 C 0.4503(5) 0.5781(3) 0.22250(9)
C11_9 C 0.3907(5) 0.5243(3) 0.23624(10)
C12_9 C 0.3184(5) 0.4991(3) 0.23134(10)
H4_9 H 0.3059 0.5115 0.2188
C13_9 C 0.2649(4) 0.4556(3) 0.24508(10)
C14_9 C 0.2824(6) 0.4333(4) 0.26265(9)
H5_9 H 0.2453 0.4035 0.2717
C15_9 C 0.3534(6) 0.4535(4) 0.26739(10)
C16_9 C 0.4099(5) 0.5014(3) 0.25458(8)
H6_9 H 0.4587 0.5180 0.2579
C17_9 C 0.3717(6) 0.4275(4) 0.28573(10)
C18_9 C 0.1870(5) 0.4292(3) 0.24018(11)
C19_9 C 0.7451(6) 0.6964(5) 0.18388(11)
C20_9 C 0.7429(6) 0.6895(5) 0.20474(11)
C21_9 C 0.8012(7) 0.6941(5) 0.21503(12)
H7_9 H 0.7997 0.6894 0.2293
C22_9 C 0.8617(7) 0.7055(5) 0.20446(14)
H8_9 H 0.9017 0.7087 0.2115
C23_9 C 0.8639(7) 0.7124(5) 0.18360(15)
H9_9 H 0.9053 0.7202 0.1763
C24_9 C 0.8056(7) 0.7078(5) 0.17331(12)
H10_9 H 0.8071 0.7125 0.1590
O16_9 O 0.7421(4) 0.9212(2) 0.05721(7)
O19_9 O 0.6745(5) 0.7747(3) 0.12185(9)
O20_9 O 0.7243(5) 0.7140(3) 0.12894(8)
O13_10 O 0.3981(4) 0.1032(4) 0.58400(11)
O18_10 O 0.2405(3) 0.0561(3) 0.58841(7)
N4_10 N 0.3395(5) 0.0016(4) 0.54423(8)
H11_10 H 0.387741 0.126266 0.59551
H12_10 H 0.415664 0.136738 0.57235
Cd1_4 Cd 0.14218(2) 0.67997(2) 0.695511(6)
Cd2_5 Cd 0.06842(3) 0.69950(2) 0.649002(6)
Cd3_10 Cd 0.29312(2) 0.99808(2) 0.574820(6)
O1_10 O 0.1732(2) 0.7734(2) 0.66583(6)
O2_10 O 0.2507(2) 0.7520(3) 0.68172(6)
O3_10 O 0.2602(2) 0.9273(2) 0.60330(7)
O4_10 O 0.3614(3) 0.9472(3) 0.58996(7)
O5_6 O 0.5375(3) 0.9336(4) 0.63598(10)
O6_6 O 0.5088(3) 0.8953(4) 0.66640(8)
O7_10 O 0.1758(3) 0.6074(3) 0.70941(7)
O9_5 O 0.2464(2) 0.4129(2) 0.72268(7)
N1_10 N 0.0073(3) 0.6852(4) 0.67785(8)
N2_10 N 0.0361(2) 0.6770(3) 0.69423(8)
C1_10 C 0.2345(3) 0.7820(4) 0.66836(9)
C2_10 C 0.2931(3) 0.8324(3) 0.65392(9)
C3_10 C 0.2782(3) 0.8555(3) 0.63617(9)
H1_10 H 0.2301 0.8429 0.6332
C4_10 C 0.3309(3) 0.8960(3) 0.62287(9)
C5_10 C 0.4014(3) 0.9149(4) 0.62737(9)
H2_10 H 0.4383 0.9448 0.6182
C6_10 C 0.4201(3) 0.8916(4) 0.64492(10)
C7_10 C 0.3630(3) 0.8513(3) 0.65854(9)
H3_10 H 0.3730 0.8370 0.6711
C8_10 C 0.3160(3) 0.9251(3) 0.60404(9)
C9_10 C 0.4915(3) 0.9087(4) 0.64954(10)
C10_10 C 0.1279(4) 0.5781(3) 0.72250(9)
C11_10 C 0.1337(4) 0.5243(3) 0.73624(10)
C12_10 C 0.1808(4) 0.4991(3) 0.73134(10)
H4_10 H 0.2057 0.5115 0.7188
C13_10 C 0.1908(3) 0.4556(3) 0.74508(10)
C14_10 C 0.1510(4) 0.4333(4) 0.76265(9)
H5_10 H 0.1583 0.4035 0.7717
C15_10 C 0.1002(4) 0.4535(4) 0.76739(10)
C16_10 C 0.0916(4) 0.5014(3) 0.75458(8)
H6_10 H 0.0594 0.5180 0.7579
C17_10 C 0.0559(4) 0.4275(4) 0.78573(10)
C18_10 C 0.2423(4) 0.4292(3) 0.74018(11)
Cd4_4 Cd 0.53780(3) 0.85782(2) 0.695511(6)
Cd5_4 Cd 0.32003(2) 0.46220(3) 0.695511(6)
Cd6_6 Cd 0.63109(4) 0.93158(3) 0.649002(6)
O14_5 O 0.0664(4) 0.6038(5) 0.63598(10)
O15_5 O 0.1047(4) 0.6134(5) 0.66640(8)
O16_10 O 0.1790(3) 0.9212(2) 0.55721(7)
O17_6 O 0.1666(3) 0.7536(2) 0.72268(7)
O19_10 O 0.1001(4) 0.7747(3) 0.62185(9)
C19_10 C 0.9514(4) 0.6964(5) 0.68388(11)
C20_10 C 0.9467(4) 0.6895(5) 0.70474(11)
C21_10 C 0.8930(5) 0.6941(5) 0.71503(12)
H7_10 H 0.8898 0.6894 0.7293
C22_10 C 0.8439(5) 0.7055(5) 0.70446(14)
H8_10 H 0.8071 0.7087 0.7115
C23_10 C 0.8486(5) 0.7124(5) 0.68360(15)
H9_10 H 0.8150 0.7202 0.6763
C24_10 C 0.9023(5) 0.7078(5) 0.67331(12)
H10_10 H 0.9055 0.7125 0.6590
O20_10 O 0.9896(4) 0.7140(3) 0.62894(8)
Cd2_6 Cd 0.30050(2) 0.36891(4) 0.649002(6)
Cd3_11 Cd 0.00192(2) 0.29503(3) 0.574820(6)
O1_11 O 0.2266(2) 0.3997(3) 0.66583(6)
O2_11 O 0.2480(3) 0.4986(4) 0.68172(6)
O3_11 O 0.0727(2) 0.3328(3) 0.60330(7)
O4_11 O 0.0528(3) 0.4141(4) 0.58996(7)
O7_11 O 0.3926(3) 0.5683(4) 0.70941(7)
O9_6 O 0.5871(2) 0.8334(3) 0.72268(7)
N1_11 N 0.3148(4) 0.3220(5) 0.67785(8)
N2_11 N 0.3230(3) 0.3590(4) 0.69423(8)
C1_11 C 0.2180(4) 0.4524(5) 0.66836(9)
C2_11 C 0.1676(3) 0.4606(4) 0.65392(9)
C3_11 C 0.1445(3) 0.4226(4) 0.63617(9)
H1_11 H 0.1571 0.3871 0.6332
C4_11 C 0.1040(3) 0.4348(4) 0.62287(9)
C5_11 C 0.0851(4) 0.4864(5) 0.62737(9)
H2_11 H 0.0552 0.4934 0.6182
C6_11 C 0.1084(4) 0.5284(5) 0.64492(10)
C7_11 C 0.1487(3) 0.5116(4) 0.65854(9)
H3_11 H 0.1630 0.5359 0.6711
C8_11 C 0.0749(3) 0.3908(4) 0.60404(9)
C9_11 C 0.0913(4) 0.5827(5) 0.64954(10)
C10_11 C 0.4219(3) 0.5497(5) 0.72250(9)
C11_11 C 0.4757(3) 0.6093(5) 0.73624(10)
C12_11 C 0.5009(3) 0.6816(5) 0.73134(10)
H4_11 H 0.4885 0.6941 0.7188
C13_11 C 0.5444(3) 0.7351(4) 0.74508(10)
C14_11 C 0.5667(4) 0.7176(6) 0.76265(9)
H5_11 H 0.5965 0.7547 0.7717
C15_11 C 0.5465(4) 0.6466(6) 0.76739(10)
C16_11 C 0.4986(3) 0.5901(5) 0.75458(8)
H6_11 H 0.4820 0.5413 0.7579
C17_11 C 0.5725(4) 0.6283(6) 0.78573(10)
C18_11 C 0.5708(3) 0.8130(5) 0.74018(11)
C19_11 C 0.3036(5) 0.2549(6) 0.68388(11)
C20_11 C 0.3105(5) 0.2571(6) 0.70474(11)
C21_11 C 0.3059(5) 0.1988(7) 0.71503(12)
H7_11 H 0.3106 0.2003 0.7293
C22_11 C 0.2945(5) 0.1383(7) 0.70446(14)
H8_11 H 0.2913 0.0983 0.7115
C23_11 C 0.2876(5) 0.1361(7) 0.68360(15)
H9_11 H 0.2798 0.0947 0.6763
C24_11 C 0.2922(5) 0.1944(7) 0.67331(12)
H10_11 H 0.2875 0.1929 0.6590
O14_6 O 0.3962(5) 0.4625(6) 0.63598(10)
O15_6 O 0.3866(5) 0.4912(6) 0.66640(8)
O16_11 O 0.0788(2) 0.2579(4) 0.55721(7)
O19_11 O 0.2253(3) 0.3255(5) 0.62185(9)
O20_11 O 0.2860(3) 0.2757(5) 0.62894(8)
O13_11 O 0.8968(4) 0.2948(6) 0.58400(11)
O18_11 O 0.9439(3) 0.1845(4) 0.58841(7)
N4_11 N 0.9984(4) 0.3380(6) 0.54423(8)
H11_11 H 0.873734 0.261475 0.59551
H12_11 H 0.863262 0.278927 0.57235
C19_12 C 0.7451(6) 0.0486(4) 0.68388(11)
C20_12 C 0.7429(6) 0.0533(4) 0.70474(11)
C21_12 C 0.8012(7) 0.1070(5) 0.71503(12)
H7_12 H 0.7997 0.1102 0.7293
C22_12 C 0.8617(7) 0.1561(5) 0.70446(14)
H8_12 H 0.9017 0.1929 0.7115
C23_12 C 0.8639(7) 0.1514(5) 0.68360(15)
H9_12 H 0.9053 0.1850 0.6763
C24_12 C 0.8056(7) 0.0977(5) 0.67331(12)
H10_12 H 0.8071 0.0945 0.6590
O20_12 O 0.7243(5) 0.0104(4) 0.62894(8)
Cd3_12 Cd 0.70497(3) 0.70688(2) 0.574820(6)
O1_12 O 0.6003(3) 0.8268(2) 0.66583(6)
O2_12 O 0.5014(4) 0.7493(2) 0.68172(6)
O3_12 O 0.6672(3) 0.7398(2) 0.60330(7)
O4_12 O 0.5859(4) 0.6386(3) 0.58996(7)
O7_12 O 0.4317(4) 0.8242(3) 0.70941(7)
N1_12 N 0.6780(5) 0.9927(3) 0.67785(8)
N2_12 N 0.6410(4) 0.9639(2) 0.69423(8)
C1_12 C 0.5476(5) 0.7655(3) 0.66836(9)
C2_12 C 0.5394(4) 0.7069(3) 0.65392(9)
C3_12 C 0.5774(4) 0.7218(3) 0.63617(9)
H1_12 H 0.6129 0.7699 0.6332
C4_12 C 0.5652(4) 0.6691(3) 0.62287(9)
C5_12 C 0.5136(5) 0.5986(3) 0.62737(9)
H2_12 H 0.5066 0.5617 0.6182
C6_12 C 0.4716(5) 0.5799(3) 0.64492(10)
C7_12 C 0.4884(4) 0.6370(3) 0.65854(9)
H3_12 H 0.4641 0.6270 0.6711
C8_12 C 0.6092(4) 0.6840(3) 0.60404(9)
C9_12 C 0.4173(5) 0.5085(3) 0.64954(10)
C10_12 C 0.4503(5) 0.8721(4) 0.72250(9)
C11_12 C 0.3907(5) 0.8663(4) 0.73624(10)
C12_12 C 0.3184(5) 0.8192(4) 0.73134(10)
H4_12 H 0.3059 0.7943 0.7188
C13_12 C 0.2649(4) 0.8092(3) 0.74508(10)
C14_12 C 0.2824(6) 0.8490(4) 0.76265(9)
H5_12 H 0.2453 0.8417 0.7717
C15_12 C 0.3534(6) 0.8998(4) 0.76739(10)
C16_12 C 0.4099(5) 0.9084(4) 0.75458(8)
H6_12 H 0.4587 0.9406 0.7579
C17_12 C 0.3717(6) 0.9441(4) 0.78573(10)
C18_12 C 0.1870(5) 0.7577(4) 0.74018(11)
O13_12 O 0.7052(6) 0.6019(4) 0.58400(11)
O16_12 O 0.7421(4) 0.8210(3) 0.55721(7)
O18_12 O 0.8155(4) 0.7595(3) 0.58841(7)
O19_12 O 0.6745(5) 0.8999(4) 0.62185(9)
N4_12 N 0.6620(6) 0.6605(5) 0.54423(8)
H11_12 H 0.738525 0.612259 0.59551
H12_12 H 0.721073 0.584336 0.57235
O7_13 O 0.0592(3) 0.1576(3) 0.54275(7)
O9_7 O 0.2537(2) 0.0870(2) 0.55602(7)
C10_13 C 0.0885(3) 0.2055(4) 0.55584(9)
C11_13 C 0.1423(3) 0.1997(4) 0.56958(10)
C12_13 C 0.1675(3) 0.1526(4) 0.56468(10)
H4_13 H 0.1551 0.1277 0.5522
C13_13 C 0.2110(3) 0.1426(3) 0.57842(10)
C14_13 C 0.2333(4) 0.1824(4) 0.59599(9)
H5_13 H 0.2631 0.1751 0.6051
C15_13 C 0.2131(4) 0.2332(4) 0.60073(10)
C16_13 C 0.1652(3) 0.2418(4) 0.58792(8)
H6_13 H 0.1486 0.2740 0.5913
C17_13 C 0.2391(4) 0.2775(4) 0.61907(10)
C18_13 C 0.2374(3) 0.0911(4) 0.57352(11)
Cd5_5 Cd 0.20446(3) 0.01331(2) 0.528845(6)
O14_7 O 0.0628(5) 0.2670(4) 0.46932(10)
O15_7 O 0.0532(5) 0.2287(4) 0.49974(8)
Cd1_5 Cd 0.98669(2) 0.19116(2) 0.528845(6)
O1_13 O 0.8932(2) 0.1602(2) 0.49917(6)
O2_13 O 0.9146(3) 0.0827(2) 0.51506(6)
O3_13 O 0.7393(2) 0.0732(2) 0.43664(7)
N1_13 N 0.9814(4) 0.3261(3) 0.51119(8)
N2_13 N 0.9896(3) 0.2973(2) 0.52757(8)
C1_13 C 0.8846(4) 0.0989(3) 0.50170(9)
C2_13 C 0.8342(3) 0.0403(3) 0.48726(9)
C3_13 C 0.8111(3) 0.0552(3) 0.46951(9)
H1_13 H 0.8237 0.1033 0.4666
C4_13 C 0.7706(3) 0.0025(3) 0.45621(9)
C8_13 C 0.7415(3) 0.0174(3) 0.43738(9)
C19_13 C 0.9702(5) 0.3820(4) 0.51722(11)
C20_13 C 0.9771(5) 0.3867(4) 0.53808(11)
C21_13 C 0.9725(5) 0.4404(5) 0.54837(12)
H7_13 H 0.9772 0.4436 0.5627
C22_13 C 0.9611(5) 0.4895(5) 0.53780(14)
H8_13 H 0.9579 0.5263 0.5449
C23_13 C 0.9542(5) 0.4848(5) 0.51694(15)
H9_13 H 0.9464 0.5184 0.5097
C24_13 C 0.9588(5) 0.4311(5) 0.50665(12)
H10_13 H 0.9541 0.4279 0.4924
O17_7 O 0.9130(2) 0.1668(3) 0.55602(7)
O4_13 O 0.7194(3) 0.9720(3) 0.42330(7)
O5_7 O 0.7330(4) 0.7959(3) 0.46932(10)
O6_7 O 0.7713(4) 0.8246(3) 0.49974(8)
C5_13 C 0.7517(4) 0.9320(3) 0.46071(9)
H2_13 H 0.7218 0.8951 0.4516
C6_13 C 0.7750(4) 0.9133(3) 0.47826(10)
C7_13 C 0.8153(3) 0.9704(3) 0.49188(9)
H3_13 H 0.8296 0.9604 0.5045
C9_13 C 0.7579(4) 0.8419(3) 0.48288(10)
O13_13 O 0.5634(4) 0.9353(4) 0.41734(11)
Cd4_5 Cd 0.80884(2) 0.79554(3) 0.528845(6)
H11_13 H 0.540401 0.945593 0.428843
H12_13 H 0.529929 0.917669 0.405683
O4_14 O 0.0280(3) 0.7475(4) 0.42330(7)
O5_8 O 0.2041(3) 0.9372(5) 0.46932(10)
O6_8 O 0.1754(3) 0.9468(5) 0.49974(8)
C5_14 C 0.0680(3) 0.8198(5) 0.46071(9)
H2_14 H 0.1049 0.8268 0.4516
C6_14 C 0.0867(3) 0.8618(5) 0.47826(10)
C7_14 C 0.0296(3) 0.8450(4) 0.49188(9)
H3_14 H 0.0396 0.8693 0.5045
C9_14 C 0.1581(3) 0.9161(5) 0.48288(10)
O13_14 O 0.0647(4) 0.6282(6) 0.41734(11)
H11_14 H 0.0544074 0.594809 0.428843
H12_14 H 0.0823311 0.61226 0.405683
C12_14 C 0.8474(4) 0.0150(5) 0.56468(10)
H4_14 H 0.8723 0.0275 0.5522
C13_14 C 0.8574(3) 0.0685(4) 0.57842(10)
C14_14 C 0.8176(4) 0.0510(6) 0.59599(9)
H5_14 H 0.8249 0.0881 0.6051
C18_14 C 0.9089(4) 0.1464(5) 0.57352(11)
O1_14 O 0.8398(2) 0.7331(3) 0.49917(6)
O2_14 O 0.9173(2) 0.8320(4) 0.51506(6)
O3_14 O 0.9268(2) 0.6662(3) 0.43664(7)
O7_14 O 0.8424(3) 0.9017(4) 0.54275(7)
N1_14 N 0.6739(3) 0.6554(5) 0.51119(8)
N2_14 N 0.7027(2) 0.6924(4) 0.52757(8)
C1_14 C 0.9011(3) 0.7858(5) 0.50170(9)
C2_14 C 0.9597(3) 0.7940(4) 0.48726(9)
C3_14 C 0.9448(3) 0.7560(4) 0.46951(9)
H1_14 H 0.8967 0.7205 0.4666
C4_14 C 0.9975(3) 0.7682(4) 0.45621(9)
C8_14 C 0.9826(3) 0.7242(4) 0.43738(9)
C10_14 C 0.7945(4) 0.8831(5) 0.55584(9)
C11_14 C 0.8003(4) 0.9427(5) 0.56958(10)
C15_14 C 0.7668(4) 0.9800(6) 0.60073(10)
C16_14 C 0.7582(4) 0.9235(5) 0.58792(8)
H6_14 H 0.7260 0.8747 0.5913
C17_14 C 0.7225(4) 0.9617(6) 0.61907(10)
C19_14 C 0.6180(4) 0.5883(6) 0.51722(11)
C20_14 C 0.6133(4) 0.5905(6) 0.53808(11)
C21_14 C 0.5596(5) 0.5322(7) 0.54837(12)
H7_14 H 0.5564 0.5337 0.5627
C22_14 C 0.5105(5) 0.4717(7) 0.53780(14)
H8_14 H 0.4737 0.4317 0.5449
C23_14 C 0.5152(5) 0.4695(7) 0.51694(15)
H9_14 H 0.4816 0.4281 0.5097
C24_14 C 0.5689(5) 0.5278(7) 0.50665(12)
H10_14 H 0.5721 0.5263 0.4924
O17_8 O 0.8332(3) 0.7463(4) 0.55602(7)
O1_15 O 0.2669(3) 0.1068(2) 0.49917(6)
O2_15 O 0.1680(4) 0.0854(3) 0.51506(6)
O3_15 O 0.3338(3) 0.2607(2) 0.43664(7)
O4_15 O 0.2525(4) 0.2806(3) 0.42330(7)
N1_15 N 0.3446(5) 0.0186(4) 0.51119(8)
N2_15 N 0.3076(4) 0.0104(3) 0.52757(8)
C1_15 C 0.2142(5) 0.1154(4) 0.50170(9)
C2_15 C 0.2060(4) 0.1658(3) 0.48726(9)
C3_15 C 0.2440(4) 0.1889(3) 0.46951(9)
H1_15 H 0.2795 0.1763 0.4666
C4_15 C 0.2318(4) 0.2294(3) 0.45621(9)
C5_15 C 0.1802(5) 0.2483(4) 0.46071(9)
H2_15 H 0.1732 0.2782 0.4516
C6_15 C 0.1382(5) 0.2250(4) 0.47826(10)
C7_15 C 0.1550(4) 0.1847(3) 0.49188(9)
H3_15 H 0.1307 0.1704 0.5045
C8_15 C 0.2758(4) 0.2585(3) 0.43738(9)
C9_15 C 0.0839(5) 0.2421(4) 0.48288(10)
C19_15 C 0.4117(6) 0.0298(5) 0.51722(11)
C20_15 C 0.4095(6) 0.0229(5) 0.53808(11)
C21_15 C 0.4678(7) 0.0275(5) 0.54837(12)
H7_15 H 0.4663 0.0228 0.5627
C22_15 C 0.5283(7) 0.0389(5) 0.53780(14)
H8_15 H 0.5683 0.0421 0.5449
C23_15 C 0.5305(7) 0.0458(5) 0.51694(15)
H9_15 H 0.5719 0.0536 0.5097
C24_15 C 0.4722(7) 0.0412(5) 0.50665(12)
H10_15 H 0.4737 0.0459 0.4924
O13_15 O 0.3718(6) 0.4366(4) 0.41734(11)
H11_15 H 0.405191 0.459599 0.428843
H12_15 H 0.38774 0.470071 0.405683
O7_15 O 0.0983(4) 0.9408(3) 0.54275(7)
C10_15 C 0.1169(5) 0.9115(3) 0.55584(9)
C11_15 C 0.0573(5) 0.8577(3) 0.56958(10)
C15_15 C 0.0200(6) 0.7869(4) 0.60073(10)
C16_15 C 0.0765(5) 0.8348(3) 0.58792(8)
H6_15 H 0.1253 0.8514 0.5913
C17_15 C 0.0383(6) 0.7609(4) 0.61907(10)
C12_15 C 0.9850(5) 0.8325(3) 0.56468(10)
H4_15 H 0.9725 0.8449 0.5522
C13_15 C 0.9315(4) 0.7890(3) 0.57842(10)
C14_15 C 0.9490(6) 0.7667(4) 0.59599(9)
H5_15 H 0.9119 0.7369 0.6051
C18_15 C 0.8536(5) 0.7626(3) 0.57352(11)
H3_16 H 0.0396 0.1704 0.0045
Cd4_6 Cd 0.20446(3) 0.19116(2) 0.028845(6)
O4_16 O 0.0280(3) 0.2806(3) 0.92330(7)
O5_9 O 0.2041(3) 0.2670(4) 0.96932(10)
O6_9 O 0.1754(3) 0.2287(4) 0.99974(8)
C5_16 C 0.0680(3) 0.2483(4) 0.96071(9)
H2_16 H 0.1049 0.2782 0.9516
C6_16 C 0.0867(3) 0.2250(4) 0.97826(10)
C7_16 C 0.0296(3) 0.1847(3) 0.99188(9)
C9_16 C 0.1581(3) 0.2421(4) 0.98288(10)
O13_16 O 0.0647(4) 0.4366(4) 0.91734(11)
H11_16 H 0.0544074 0.459599 0.928843
H12_16 H 0.0823311 0.470071 0.905683
Cd1_6 Cd 0.80884(2) 0.01331(2) 0.028845(6)
O2_16 O 0.9173(2) 0.0854(3) 0.01506(6)
N1_16 N 0.6739(3) 0.0186(4) 0.01119(8)
N2_16 N 0.7027(2) 0.0104(3) 0.02757(8)
C1_16 C 0.9011(3) 0.1154(4) 0.00170(9)
C19_16 C 0.6180(4) 0.0298(5) 0.01722(11)
C20_16 C 0.6133(4) 0.0229(5) 0.03808(11)
C21_16 C 0.5596(5) 0.0275(5) 0.04837(12)
H7_16 H 0.5564 0.0228 0.0627
C22_16 C 0.5105(5) 0.0389(5) 0.03780(14)
H8_16 H 0.4737 0.0421 0.0449
C23_16 C 0.5152(5) 0.0458(5) 0.01694(15)
H9_16 H 0.4816 0.0536 0.0097
C24_16 C 0.5689(5) 0.0412(5) 0.00665(12)
O17_9 O 0.8332(3) 0.0870(2) 0.05602(7)
O1_16 O 0.8398(2) 0.1068(2) 0.99917(6)
O3_16 O 0.9268(2) 0.2607(2) 0.93664(7)
C2_16 C 0.9597(3) 0.1658(3) 0.98726(9)
C3_16 C 0.9448(3) 0.1889(3) 0.96951(9)
H1_16 H 0.8967 0.1763 0.9666
C4_16 C 0.9975(3) 0.2294(3) 0.95621(9)
C8_16 C 0.9826(3) 0.2585(3) 0.93738(9)
H10_16 H 0.5721 0.0459 0.9924
O7_16 O 0.8424(3) 0.9408(3) 0.04275(7)
O9_8 O 0.9130(2) 0.7463(2) 0.05602(7)
C10_16 C 0.7945(4) 0.9115(3) 0.05584(9)
C11_16 C 0.8003(4) 0.8577(3) 0.06958(10)
C12_16 C 0.8474(4) 0.8325(3) 0.06468(10)
H4_16 H 0.8723 0.8449 0.0522
C13_16 C 0.8574(3) 0.7890(3) 0.07842(10)
C14_16 C 0.8176(4) 0.7667(4) 0.09599(9)
H5_16 H 0.8249 0.7369 0.1051
C15_16 C 0.7668(4) 0.7869(4) 0.10073(10)
C16_16 C 0.7582(4) 0.8348(3) 0.08792(8)
H6_16 H 0.7260 0.8514 0.0913
C17_16 C 0.7225(4) 0.7609(4) 0.11907(10)
C18_16 C 0.9089(4) 0.7626(3) 0.07352(11)
Cd5_6 Cd 0.98669(2) 0.79554(3) 0.028845(6)
O14_8 O 0.7330(4) 0.9372(5) 0.96932(10)
O15_8 O 0.7713(4) 0.9468(5) 0.99974(8)
O9_9 O 0.2537(2) 0.1668(3) 0.05602(7)
C12_17 C 0.1675(3) 0.0150(5) 0.06468(10)
H4_17 H 0.1551 0.0275 0.0522
C13_17 C 0.2110(3) 0.0685(4) 0.07842(10)
C14_17 C 0.2333(4) 0.0510(6) 0.09599(9)
H5_17 H 0.2631 0.0881 0.1051
C18_17 C 0.2374(3) 0.1464(5) 0.07352(11)
O7_17 O 0.0592(3) 0.9017(4) 0.04275(7)
C10_17 C 0.0885(3) 0.8831(5) 0.05584(9)
C11_17 C 0.1423(3) 0.9427(5) 0.06958(10)
C15_17 C 0.2131(4) 0.9800(6) 0.10073(10)
C16_17 C 0.1652(3) 0.9235(5) 0.08792(8)
H6_17 H 0.1486 0.8747 0.0913
C17_17 C 0.2391(4) 0.9617(6) 0.11907(10)
O14_9 O 0.0628(5) 0.7959(6) 0.96932(10)
O15_9 O 0.0532(5) 0.8246(6) 0.99974(8)
O2_17 O 0.9146(3) 0.8320(4) 0.01506(6)
N1_17 N 0.9814(4) 0.6554(5) 0.01119(8)
N2_17 N 0.9896(3) 0.6924(4) 0.02757(8)
C1_17 C 0.8846(4) 0.7858(5) 0.00170(9)
H3_17 H 0.8296 0.8693 0.0045
C19_17 C 0.9702(5) 0.5883(6) 0.01722(11)
C20_17 C 0.9771(5) 0.5905(6) 0.03808(11)
C21_17 C 0.9725(5) 0.5322(7) 0.04837(12)
H7_17 H 0.9772 0.5337 0.0627
C22_17 C 0.9611(5) 0.4717(7) 0.03780(14)
H8_17 H 0.9579 0.4317 0.0449
C23_17 C 0.9542(5) 0.4695(7) 0.01694(15)
H9_17 H 0.9464 0.4281 0.0097
C24_17 C 0.9588(5) 0.5278(7) 0.00665(12)
O1_17 O 0.8932(2) 0.7331(3) 0.99917(6)
O3_17 O 0.7393(2) 0.6662(3) 0.93664(7)
O4_17 O 0.7194(3) 0.7475(4) 0.92330(7)
C2_17 C 0.8342(3) 0.7940(4) 0.98726(9)
C3_17 C 0.8111(3) 0.7560(4) 0.96951(9)
H1_17 H 0.8237 0.7205 0.9666
C4_17 C 0.7706(3) 0.7682(4) 0.95621(9)
C5_17 C 0.7517(4) 0.8198(5) 0.96071(9)
H2_17 H 0.7218 0.8268 0.9516
C6_17 C 0.7750(4) 0.8618(5) 0.97826(10)
C7_17 C 0.8153(3) 0.8450(4) 0.99188(9)
C8_17 C 0.7415(3) 0.7242(4) 0.93738(9)
C9_17 C 0.7579(4) 0.9161(5) 0.98288(10)
H10_17 H 0.9541 0.5263 0.9924
O13_17 O 0.5634(4) 0.6282(6) 0.91734(11)
H11_17 H 0.540401 0.594809 0.928843
H12_17 H 0.529929 0.61226 0.905683
O2_18 O 0.1680(4) 0.0827(2) 0.01506(6)
O7_18 O 0.0983(4) 0.1576(3) 0.04275(7)
N1_18 N 0.3446(5) 0.3261(3) 0.01119(8)
N2_18 N 0.3076(4) 0.2973(2) 0.02757(8)
C1_18 C 0.2142(5) 0.0989(3) 0.00170(9)
C10_18 C 0.1169(5) 0.2055(4) 0.05584(9)
C11_18 C 0.0573(5) 0.1997(4) 0.06958(10)
C15_18 C 0.0200(6) 0.2332(4) 0.10073(10)
C16_18 C 0.0765(5) 0.2418(4) 0.08792(8)
H6_18 H 0.1253 0.2740 0.0913
C17_18 C 0.0383(6) 0.2775(4) 0.11907(10)
C19_18 C 0.4117(6) 0.3820(4) 0.01722(11)
C20_18 C 0.4095(6) 0.3867(4) 0.03808(11)
C21_18 C 0.4678(7) 0.4404(5) 0.04837(12)
H7_18 H 0.4663 0.4436 0.0627
C22_18 C 0.5283(7) 0.4895(5) 0.03780(14)
H8_18 H 0.5683 0.5263 0.0449
C23_18 C 0.5305(7) 0.4848(5) 0.01694(15)
H9_18 H 0.5719 0.5184 0.0097
C24_18 C 0.4722(7) 0.4311(5) 0.00665(12)
O1_18 O 0.2669(3) 0.1602(2) 0.99917(6)
O3_18 O 0.3338(3) 0.0732(2) 0.93664(7)
C2_18 C 0.2060(4) 0.0403(3) 0.98726(9)
C3_18 C 0.2440(4) 0.0552(3) 0.96951(9)
H1_18 H 0.2795 0.1033 0.9666
C4_18 C 0.2318(4) 0.0025(3) 0.95621(9)
C8_18 C 0.2758(4) 0.0174(3) 0.93738(9)
H10_18 H 0.4737 0.4279 0.9924
O4_18 O 0.2525(4) 0.9720(3) 0.92330(7)
C5_18 C 0.1802(5) 0.9320(3) 0.96071(9)
H2_18 H 0.1732 0.8951 0.9516
C6_18 C 0.1382(5) 0.9133(3) 0.97826(10)
C7_18 C 0.1550(4) 0.9704(3) 0.99188(9)
C9_18 C 0.0839(5) 0.8419(3) 0.98288(10)
O13_18 O 0.3718(6) 0.9353(4) 0.91734(11)
H11_18 H 0.405191 0.945593 0.928843
H12_18 H 0.38774 0.917669 0.905683
C12_18 C 0.9850(5) 0.1526(4) 0.06468(10)
H4_18 H 0.9725 0.1277 0.0522
C13_18 C 0.9315(4) 0.1426(3) 0.07842(10)
C14_18 C 0.9490(6) 0.1824(4) 0.09599(9)
H5_18 H 0.9119 0.1751 0.1051
C18_18 C 0.8536(5) 0.0911(4) 0.07352(11)
H3_18 H 0.1307 0.9604 0.0045
loop_
_geom_bond_atom_site_label_1
_geom_bond_atom_site_label_2
_geom_bond_site_symmetry_1
_geom_bond_site_symmetry_2
Cd1 O1 1_555 1_555
Cd2 O1 1_555 1_555
Cd3 O3 1_555 1_555
O1 C1 1_555 1_555
O2 Cd1 1_555 1_555
O3 C8 1_555 1_555
O4 Cd3 1_555 1_555
O5 C9 1_555 1_555
O6 C9 1_555 1_555
O7 Cd1 1_555 1_555
O8 Cd1 1_555 1_555
O9 C18 1_555 1_555
O10 C18 1_555 1_555
O11 C17 1_555 1_555
O12 C17 1_555 1_555
N1 Cd2 1_555 1_555
N2 Cd1 1_555 1_555
N3 N2 1_555 1_555
C1 O2 1_555 1_555
C2 C1 1_555 1_555
C3 C2 1_555 1_555
H1 C3 1_555 1_555
C4 C3 1_555 1_555
C5 C4 1_555 1_555
H2 C5 1_555 1_555
C6 C5 1_555 1_555
C7 C2 1_555 1_555
H3 C7 1_555 1_555
C8 O4 1_555 1_555
C9 C6 1_555 1_555
C10 O7 1_555 1_555
C11 C10 1_555 1_555
C12 C11 1_555 1_555
H4 C12 1_555 1_555
C13 C12 1_555 1_555
C14 C13 1_555 1_555
H5 C14 1_555 1_555
C15 C14 1_555 1_555
C16 C11 1_555 1_555
H6 C16 1_555 1_555
C17 C15 1_555 1_555
C18 C13 1_555 1_555
C19 N1 1_555 1_555
C20 N3 1_555 1_555
C21 C20 1_555 1_555
H7 C21 1_555 1_555
C22 C21 1_555 1_555
H8 C22 1_555 1_555
C23 C22 1_555 1_555
H9 C23 1_555 1_555
C24 C19 1_555 1_555
H10 C24 1_555 1_555
O13 Cd3 1_555 1_555
Cd4 O6 1_555 1_555
Cd5 O9 1_555 1_555
Cd6 O5 1_555 1_555
Cd7 O11 1_555 1_555
Cd8 O8 1_555 1_555
Cd9 O10 1_555 1_555
O14 Cd2 1_555 1_555
O15 Cd1 1_555 1_555
O16 Cd3 1_555 1_555
O17 Cd1 1_555 1_555
O18 Cd3 1_555 1_555
O19 Cd2 1_555 1_555
O20 Cd2 1_555 1_555
N4 Cd3 1_555 1_555
Cd2 O15 1_555 1_555
O6 Cd6 1_555 1_555
O8 C10 1_555 1_555
O12 Cd7 1_555 1_555
N1 N2 1_555 1_555
N3 Cd8 1_555 1_555
C4 C8 1_555 1_555
C6 C7 1_555 1_555
C15 C16 1_555 1_555
C19 C20 1_555 1_555
C23 C24 1_555 1_555
O13 H11 1_555 1_555
O13 H12 1_555 1_555
Cd4 O1_2 1_555 1_555
Cd6 O1_2 1_555 1_555
O1_2 C1_2 1_555 1_555
O2_2 Cd4 1_555 1_555
O5_2 C9_2 1_555 1_555
O6_2 C9_2 1_555 1_555
O7_2 Cd4 1_555 1_555
O8_2 Cd4 1_555 1_555
O17 C18_2 1_555 1_555
O10_2 C18_2 1_555 1_555
O11_2 C17_2 1_555 1_555
O12_2 C17_2 1_555 1_555
N2_2 Cd4 1_555 1_555
C1_2 O2_2 1_555 1_555
C2_2 C1_2 1_555 1_555
C3_2 C2_2 1_555 1_555
H1_2 C3_2 1_555 1_555
C4_2 C3_2 1_555 1_555
C5_2 C4_2 1_555 1_555
H2_2 C5_2 1_555 1_555
C6_2 C5_2 1_555 1_555
C7_2 C2_2 1_555 1_555
H3_2 C7_2 1_555 1_555
C8_2 O4_2 1_555 1_555
C9_2 C6_2 1_555 1_555
C10_2 O7_2 1_555 1_555
C11_2 C10_2 1_555 1_555
C12_2 C11_2 1_555 1_555
H4_2 C12_2 1_555 1_555
C13_2 C12_2 1_555 1_555
C14_2 C13_2 1_555 1_555
H5_2 C14_2 1_555 1_555
C15_2 C14_2 1_555 1_555
C16_2 C11_2 1_555 1_555
H6_2 C16_2 1_555 1_555
C17_2 C15_2 1_555 1_555
C18_2 C13_2 1_555 1_555
Cd5 O6_2 1_555 1_555
Cd6_2 O5_2 1_555 1_555
Cd7_2 O11_2 1_555 1_555
Cd8_2 O8_2 1_555 1_555
Cd8 O10_2 1_555 1_555
O17_2 Cd4 1_555 1_555
O6_2 Cd6_2 1_555 1_555
O8_2 C10_2 1_555 1_555
O12_2 Cd7_2 1_555 1_555
C4_2 C8_2 1_555 1_555
C6_2 C7_2 1_555 1_555
C15_2 C16_2 1_555 1_555
Cd3_2 O3_2 1_555 1_555
C19_2 N1_2 1_555 1_555
C20_2 N3_2 1_555 1_555
C21_2 C20_2 1_555 1_555
H7_2 C21_2 1_555 1_555
C22_2 C21_2 1_555 1_555
H8_2 C22_2 1_555 1_555
C23_2 C22_2 1_555 1_555
H9_2 C23_2 1_555 1_555
C24_2 C19_2 1_555 1_555
H10_2 C24_2 1_555 1_555
O13_2 Cd3_2 1_555 1_555
O16_2 Cd3_2 1_555 1_555
O18_2 Cd3_2 1_555 1_555
C19_2 C20_2 1_555 1_555
C23_2 C24_2 1_555 1_555
O13_2 H11_2 1_555 1_555
O13_2 H12_2 1_555 1_555
Cd3_3 O3_3 1_555 1_555
C19_3 N1_3 1_555 1_555
C20_3 N3_3 1_555 1_555
C21_3 C20_3 1_555 1_555
H7_3 C21_3 1_555 1_555
C22_3 C21_3 1_555 1_555
H8_3 C22_3 1_555 1_555
C23_3 C22_3 1_555 1_555
H9_3 C23_3 1_555 1_555
C24_3 C19_3 1_555 1_555
H10_3 C24_3 1_555 1_555
O13_3 Cd3_3 1_555 1_555
O16_3 Cd3_3 1_555 1_555
O18_3 Cd3_3 1_555 1_555
C19_3 C20_3 1_555 1_555
C23_3 C24_3 1_555 1_555
O13_3 H11_3 1_555 1_555
O13_3 H12_3 1_555 1_555
Cd5 O1_3 1_555 1_555
Cd6_2 O1_3 1_555 1_555
O1_3 C1_3 1_555 1_555
O2_3 Cd5 1_555 1_555
O14 C9_3 1_555 1_555
O15 C9_3 1_555 1_555
O7_3 Cd5 1_555 1_555
O8_3 Cd5 1_555 1_555
O17_2 C18_3 1_555 1_555
O10_3 C18_3 1_555 1_555
O11_3 C17_3 1_555 1_555
O12_3 C17_3 1_555 1_555
N2_3 Cd5 1_555 1_555
C1_3 O2_3 1_555 1_555
C2_3 C1_3 1_555 1_555
C3_3 C2_3 1_555 1_555
H1_3 C3_3 1_555 1_555
C4_3 C3_3 1_555 1_555
C5_3 C4_3 1_555 1_555
H2_3 C5_3 1_555 1_555
C6_3 C5_3 1_555 1_555
C7_3 C2_3 1_555 1_555
H3_3 C7_3 1_555 1_555
C8_3 O4_3 1_555 1_555
C9_3 C6_3 1_555 1_555
C10_3 O7_3 1_555 1_555
C11_3 C10_3 1_555 1_555
C12_3 C11_3 1_555 1_555
H4_3 C12_3 1_555 1_555
C13_3 C12_3 1_555 1_555
C14_3 C13_3 1_555 1_555
H5_3 C14_3 1_555 1_555
C15_3 C14_3 1_555 1_555
C16_3 C11_3 1_555 1_555
H6_3 C16_3 1_555 1_555
C17_3 C15_3 1_555 1_555
C18_3 C13_3 1_555 1_555
Cd7_3 O11_3 1_555 1_555
Cd9 O8_3 1_555 1_555
Cd8_2 O10_3 1_555 1_555
O8_3 C10_3 1_555 1_555
O12_3 Cd7_3 1_555 1_555
C4_3 C8_3 1_555 1_555
C6_3 C7_3 1_555 1_555
C15_3 C16_3 1_555 1_555
Cd1_2 O1_4 1_555 1_555
Cd2_2 O1_4 1_555 1_555
Cd3_4 O3_4 1_555 1_555
O1_4 C1_4 1_555 1_555
O2_4 Cd1_2 1_555 1_555
O3_4 C8_4 1_555 1_555
O4_4 Cd3_4 1_555 1_555
O5_3 C9_4 1_555 1_555
O6_3 C9_4 1_555 1_555
O7_4 Cd1_2 1_555 1_555
O8_4 Cd1_2 1_555 1_555
O9_2 C18_4 1_555 1_555
O10_4 C18_4 1_555 1_555
O11_4 C17_4 1_555 1_555
O12_4 C17_4 1_555 1_555
N1_4 Cd2_2 1_555 1_555
N2_4 Cd1_2 1_555 1_555
N3_4 N2_4 1_555 1_555
C1_4 O2_4 1_555 1_555
C2_4 C1_4 1_555 1_555
C3_4 C2_4 1_555 1_555
H1_4 C3_4 1_555 1_555
C4_4 C3_4 1_555 1_555
C5_4 C4_4 1_555 1_555
H2_4 C5_4 1_555 1_555
C6_4 C5_4 1_555 1_555
C7_4 C2_4 1_555 1_555
H3_4 C7_4 1_555 1_555
C8_4 O4_4 1_555 1_555
C9_4 C6_4 1_555 1_555
C10_4 O7_4 1_555 1_555
C11_4 C10_4 1_555 1_555
C12_4 C11_4 1_555 1_555
H4_4 C12_4 1_555 1_555
C13_4 C12_4 1_555 1_555
C14_4 C13_4 1_555 1_555
H5_4 C14_4 1_555 1_555
C15_4 C14_4 1_555 1_555
C16_4 C11_4 1_555 1_555
H6_4 C16_4 1_555 1_555
C17_4 C15_4 1_555 1_555
C18_4 C13_4 1_555 1_555
C19_4 N1_4 1_555 1_555
C20_4 N3_4 1_555 1_555
C21_4 C20_4 1_555 1_555
H7_4 C21_4 1_555 1_555
C22_4 C21_4 1_555 1_555
H8_4 C22_4 1_555 1_555
C23_4 C22_4 1_555 1_555
H9_4 C23_4 1_555 1_555
C24_4 C19_4 1_555 1_555
H10_4 C24_4 1_555 1_555
O13_4 Cd3_4 1_555 1_555
Cd4_2 O6_3 1_555 1_555
Cd5_2 O9_2 1_555 1_555
Cd6_3 O5_3 1_555 1_555
Cd7_4 O11_4 1_555 1_555
Cd8_3 O8_4 1_555 1_555
Cd9_2 O10_4 1_555 1_555
O14_2 Cd2_2 1_555 1_555
O15_2 Cd1_2 1_555 1_555
O16_4 Cd3_4 1_555 1_555
O17_3 Cd1_2 1_555 1_555
O18_4 Cd3_4 1_555 1_555
O19_4 Cd2_2 1_555 1_555
O20_4 Cd2_2 1_555 1_555
N4_4 Cd3_4 1_555 1_555
Cd2_2 O15_2 1_555 1_555
O6_3 Cd6_3 1_555 1_555
O8_4 C10_4 1_555 1_555
O12_4 Cd7_4 1_555 1_555
N1_4 N2_4 1_555 1_555
N3_4 Cd8_3 1_555 1_555
C4_4 C8_4 1_555 1_555
C6_4 C7_4 1_555 1_555
C15_4 C16_4 1_555 1_555
C19_4 C20_4 1_555 1_555
C23_4 C24_4 1_555 1_555
O13_4 H11_4 1_555 1_555
O13_4 H12_4 1_555 1_555
Cd5_2 O1_5 1_555 1_555
Cd2_3 O1_5 1_555 1_555
O1_5 C1_5 1_555 1_555
O2_5 Cd5_2 1_555 1_555
O14_2 C9_5 1_555 1_555
O15_2 C9_5 1_555 1_555
O7_5 Cd5_2 1_555 1_555
O8_5 Cd5_2 1_555 1_555
O9_3 C18_5 1_555 1_555
O10_5 C18_5 1_555 1_555
O11_5 C17_5 1_555 1_555
O12_5 C17_5 1_555 1_555
N2_5 Cd5_2 1_555 1_555
C1_5 O2_5 1_555 1_555
C2_5 C1_5 1_555 1_555
C3_5 C2_5 1_555 1_555
H1_5 C3_5 1_555 1_555
C4_5 C3_5 1_555 1_555
C5_5 C4_5 1_555 1_555
H2_5 C5_5 1_555 1_555
C6_5 C5_5 1_555 1_555
C7_5 C2_5 1_555 1_555
H3_5 C7_5 1_555 1_555
C8_5 O4_5 1_555 1_555
C9_5 C6_5 1_555 1_555
C10_5 O7_5 1_555 1_555
C11_5 C10_5 1_555 1_555
C12_5 C11_5 1_555 1_555
H4_5 C12_5 1_555 1_555
C13_5 C12_5 1_555 1_555
C14_5 C13_5 1_555 1_555
H5_5 C14_5 1_555 1_555
C15_5 C14_5 1_555 1_555
C16_5 C11_5 1_555 1_555
H6_5 C16_5 1_555 1_555
C17_5 C15_5 1_555 1_555
C18_5 C13_5 1_555 1_555
Cd4_2 O9_3 1_555 1_555
Cd7_5 O11_5 1_555 1_555
Cd9_2 O8_5 1_555 1_555
Cd9_3 O10_5 1_555 1_555
O14_3 Cd2_3 1_555 1_555
O15_3 Cd5_2 1_555 1_555
Cd2_3 O15_3 1_555 1_555
O8_5 C10_5 1_555 1_555
O12_5 Cd7_5 1_555 1_555
C4_5 C8_5 1_555 1_555
C6_5 C7_5 1_555 1_555
C15_5 C16_5 1_555 1_555
Cd3_5 O3_5 1_555 1_555
C19_5 N1_5 1_555 1_555
C20_5 N3_5 1_555 1_555
C21_5 C20_5 1_555 1_555
H7_5 C21_5 1_555 1_555
C22_5 C21_5 1_555 1_555
H8_5 C22_5 1_555 1_555
C23_5 C22_5 1_555 1_555
H9_5 C23_5 1_555 1_555
C24_5 C19_5 1_555 1_555
H10_5 C24_5 1_555 1_555
O13_5 Cd3_5 1_555 1_555
O16_5 Cd3_5 1_555 1_555
O18_5 Cd3_5 1_555 1_555
C19_5 C20_5 1_555 1_555
C23_5 C24_5 1_555 1_555
O13_5 H11_5 1_555 1_555
O13_5 H12_5 1_555 1_555
Cd3_6 O3_6 1_555 1_555
C19_6 N1_6 1_555 1_555
C20_6 N3_6 1_555 1_555
C21_6 C20_6 1_555 1_555
H7_6 C21_6 1_555 1_555
C22_6 C21_6 1_555 1_555
H8_6 C22_6 1_555 1_555
C23_6 C22_6 1_555 1_555
H9_6 C23_6 1_555 1_555
C24_6 C19_6 1_555 1_555
H10_6 C24_6 1_555 1_555
O13_6 Cd3_6 1_555 1_555
O16_6 Cd3_6 1_555 1_555
O18_6 Cd3_6 1_555 1_555
C19_6 C20_6 1_555 1_555
C23_6 C24_6 1_555 1_555
O13_6 H11_6 1_555 1_555
O13_6 H12_6 1_555 1_555
Cd4_2 O1_6 1_555 1_555
Cd6_3 O1_6 1_555 1_555
O1_6 C1_6 1_555 1_555
O2_6 Cd4_2 1_555 1_555
O14_3 C9_6 1_555 1_555
O15_3 C9_6 1_555 1_555
O7_6 Cd4_2 1_555 1_555
O8_6 Cd4_2 1_555 1_555
O17_3 C18_6 1_555 1_555
O10_6 C18_6 1_555 1_555
O11_6 C17_6 1_555 1_555
O12_6 C17_6 1_555 1_555
N2_6 Cd4_2 1_555 1_555
C1_6 O2_6 1_555 1_555
C2_6 C1_6 1_555 1_555
C3_6 C2_6 1_555 1_555
H1_6 C3_6 1_555 1_555
C4_6 C3_6 1_555 1_555
C5_6 C4_6 1_555 1_555
H2_6 C5_6 1_555 1_555
C6_6 C5_6 1_555 1_555
C7_6 C2_6 1_555 1_555
H3_6 C7_6 1_555 1_555
C8_6 O4_6 1_555 1_555
C9_6 C6_6 1_555 1_555
C10_6 O7_6 1_555 1_555
C11_6 C10_6 1_555 1_555
C12_6 C11_6 1_555 1_555
H4_6 C12_6 1_555 1_555
C13_6 C12_6 1_555 1_555
C14_6 C13_6 1_555 1_555
H5_6 C14_6 1_555 1_555
C15_6 C14_6 1_555 1_555
C16_6 C11_6 1_555 1_555
H6_6 C16_6 1_555 1_555
C17_6 C15_6 1_555 1_555
C18_6 C13_6 1_555 1_555
Cd7_6 O11_6 1_555 1_555
Cd9_3 O8_6 1_555 1_555
Cd8_3 O10_6 1_555 1_555
O8_6 C10_6 1_555 1_555
O12_6 Cd7_6 1_555 1_555
C4_6 C8_6 1_555 1_555
C6_6 C7_6 1_555 1_555
C15_6 C16_6 1_555 1_555
C20_7 N4_5 1_555 1_555
C21_7 C20_7 1_555 1_555
H7_7 C21_7 1_555 1_555
C22_7 C21_7 1_555 1_555
H8_7 C22_7 1_555 1_555
C23_7 C22_7 1_555 1_555
H9_7 C23_7 1_555 1_555
C24_7 C19_7 1_555 1_555
H10_7 C24_7 1_555 1_555
C19_7 C20_7 1_555 1_555
C23_7 C24_7 1_555 1_555
Cd1_3 O1_7 1_555 1_555
Cd2_4 O1_7 1_555 1_555
Cd3_7 O3_7 1_555 1_555
O1_7 C1_7 1_555 1_555
O2_7 Cd1_3 1_555 1_555
O3_7 C8_7 1_555 1_555
O4_7 Cd3_7 1_555 1_555
O5_4 C9_7 1_555 1_555
O6_4 C9_7 1_555 1_555
O7_7 Cd1_3 1_555 1_555
O16_5 Cd1_3 1_555 1_555
O9_4 C18_7 1_555 1_555
O18_4 C18_7 1_555 1_555
O19_5 C17_7 1_555 1_555
O20_5 C17_7 1_555 1_555
N1_7 Cd2_4 1_555 1_555
N2_7 Cd1_3 1_555 1_555
C1_7 O2_7 1_555 1_555
C2_7 C1_7 1_555 1_555
C3_7 C2_7 1_555 1_555
H1_7 C3_7 1_555 1_555
C4_7 C3_7 1_555 1_555
C5_7 C4_7 1_555 1_555
H2_7 C5_7 1_555 1_555
C6_7 C5_7 1_555 1_555
C7_7 C2_7 1_555 1_555
H3_7 C7_7 1_555 1_555
C8_7 O4_7 1_555 1_555
C9_7 C6_7 1_555 1_555
C10_7 O7_7 1_555 1_555
C11_7 C10_7 1_555 1_555
C12_7 C11_7 1_555 1_555
H4_7 C12_7 1_555 1_555
C13_7 C12_7 1_555 1_555
C14_7 C13_7 1_555 1_555
H5_7 C14_7 1_555 1_555
C15_7 C14_7 1_555 1_555
C16_7 C11_7 1_555 1_555
H6_7 C16_7 1_555 1_555
C17_7 C15_7 1_555 1_555
C18_7 C13_7 1_555 1_555
Cd4_3 O6_4 1_555 1_555
Cd5_3 O9_4 1_555 1_555
Cd6_4 O5_4 1_555 1_555
O14_4 Cd2_4 1_555 1_555
O15_4 Cd1_3 1_555 1_555
O16_7 Cd3_7 1_555 1_555
O17_4 Cd1_3 1_555 1_555
O19_7 Cd2_4 1_555 1_555
Cd2_4 O15_4 1_555 1_555
O6_4 Cd6_4 1_555 1_555
O16_5 C10_7 1_555 1_555
N1_7 N2_7 1_555 1_555
C4_7 C8_7 1_555 1_555
C6_7 C7_7 1_555 1_555
C15_7 C16_7 1_555 1_555
O13_7 H11_7 1_555 1_555
O13_7 H12_7 1_555 1_555
Cd4_3 O1_8 1_555 1_555
Cd6_4 O1_8 1_555 1_555
Cd3_8 O3_8 1_555 1_555
O1_8 C1_8 1_555 1_555
O2_8 Cd4_3 1_555 1_555
O3_8 C8_8 1_555 1_555
O4_8 Cd3_8 1_555 1_555
O5_5 C9_8 1_555 1_555
O6_5 C9_8 1_555 1_555
O7_8 Cd4_3 1_555 1_555
O16_6 Cd4_3 1_555 1_555
O17_4 C18_8 1_555 1_555
O18_5 C18_8 1_555 1_555
O19_6 C17_8 1_555 1_555
O20_6 C17_8 1_555 1_555
N1_8 Cd6_4 1_555 1_555
N2_8 Cd4_3 1_555 1_555
C1_8 O2_8 1_555 1_555
C2_8 C1_8 1_555 1_555
C3_8 C2_8 1_555 1_555
H1_8 C3_8 1_555 1_555
C4_8 C3_8 1_555 1_555
C5_8 C4_8 1_555 1_555
H2_8 C5_8 1_555 1_555
C6_8 C5_8 1_555 1_555
C7_8 C2_8 1_555 1_555
H3_8 C7_8 1_555 1_555
C8_8 O4_8 1_555 1_555
C9_8 C6_8 1_555 1_555
C10_8 O7_8 1_555 1_555
C11_8 C10_8 1_555 1_555
C12_8 C11_8 1_555 1_555
H4_8 C12_8 1_555 1_555
C13_8 C12_8 1_555 1_555
C14_8 C13_8 1_555 1_555
H5_8 C14_8 1_555 1_555
C15_8 C14_8 1_555 1_555
C16_8 C11_8 1_555 1_555
H6_8 C16_8 1_555 1_555
C17_8 C15_8 1_555 1_555
C18_8 C13_8 1_555 1_555
O13_8 Cd3_8 1_555 1_555
Cd5_3 O6_5 1_555 1_555
Cd6_5 O5_5 1_555 1_555
O16_8 Cd3_8 1_555 1_555
O17_5 Cd4_3 1_555 1_555
O18_8 Cd3_8 1_555 1_555
O19_8 Cd6_4 1_555 1_555
N4_8 Cd3_8 1_555 1_555
O6_5 Cd6_5 1_555 1_555
O16_6 C10_8 1_555 1_555
N1_8 N2_8 1_555 1_555
C4_8 C8_8 1_555 1_555
C6_8 C7_8 1_555 1_555
C15_8 C16_8 1_555 1_555
O13_8 H11_8 1_555 1_555
O13_8 H12_8 1_555 1_555
C20_8 N4_6 1_555 1_555
C21_8 C20_8 1_555 1_555
H7_8 C21_8 1_555 1_555
C22_8 C21_8 1_555 1_555
H8_8 C22_8 1_555 1_555
C23_8 C22_8 1_555 1_555
H9_8 C23_8 1_555 1_555
C24_8 C19_8 1_555 1_555
H10_8 C24_8 1_555 1_555
C19_8 C20_8 1_555 1_555
C23_8 C24_8 1_555 1_555
O13_9 H11_9 1_555 1_555
O13_9 H12_9 1_555 1_555
Cd5_3 O1_9 1_555 1_555
Cd6_5 O1_9 1_555 1_555
Cd3_9 O3_9 1_555 1_555
O1_9 C1_9 1_555 1_555
O2_9 Cd5_3 1_555 1_555
O3_9 C8_9 1_555 1_555
O4_9 Cd3_9 1_555 1_555
O14_4 C9_9 1_555 1_555
O15_4 C9_9 1_555 1_555
O7_9 Cd5_3 1_555 1_555
O16_4 Cd5_3 1_555 1_555
O17_5 C18_9 1_555 1_555
O18_6 C18_9 1_555 1_555
O19_4 C17_9 1_555 1_555
O20_4 C17_9 1_555 1_555
N1_9 Cd6_5 1_555 1_555
N2_9 Cd5_3 1_555 1_555
N4_4 N2_9 1_555 1_555
C1_9 O2_9 1_555 1_555
C2_9 C1_9 1_555 1_555
C3_9 C2_9 1_555 1_555
H1_9 C3_9 1_555 1_555
C4_9 C3_9 1_555 1_555
C5_9 C4_9 1_555 1_555
H2_9 C5_9 1_555 1_555
C6_9 C5_9 1_555 1_555
C7_9 C2_9 1_555 1_555
H3_9 C7_9 1_555 1_555
C8_9 O4_9 1_555 1_555
C9_9 C6_9 1_555 1_555
C10_9 O7_9 1_555 1_555
C11_9 C10_9 1_555 1_555
C12_9 C11_9 1_555 1_555
H4_9 C12_9 1_555 1_555
C13_9 C12_9 1_555 1_555
C14_9 C13_9 1_555 1_555
H5_9 C14_9 1_555 1_555
C15_9 C14_9 1_555 1_555
C16_9 C11_9 1_555 1_555
H6_9 C16_9 1_555 1_555
C17_9 C15_9 1_555 1_555
C18_9 C13_9 1_555 1_555
C19_9 N1_9 1_555 1_555
C20_9 N4_4 1_555 1_555
C21_9 C20_9 1_555 1_555
H7_9 C21_9 1_555 1_555
C22_9 C21_9 1_555 1_555
H8_9 C22_9 1_555 1_555
C23_9 C22_9 1_555 1_555
H9_9 C23_9 1_555 1_555
C24_9 C19_9 1_555 1_555
H10_9 C24_9 1_555 1_555
O16_9 Cd3_9 1_555 1_555
O19_9 Cd6_5 1_555 1_555
O20_9 Cd6_5 1_555 1_555
O16_4 C10_9 1_555 1_555
N1_9 N2_9 1_555 1_555
C4_9 C8_9 1_555 1_555
C6_9 C7_9 1_555 1_555
C15_9 C16_9 1_555 1_555
C19_9 C20_9 1_555 1_555
C23_9 C24_9 1_555 1_555
O13_10 H11_10 1_555 1_555
O13_10 H12_10 1_555 1_555
Cd1_4 O1_10 1_555 1_555
Cd2_5 O1_10 1_555 1_555
Cd3_10 O3_10 1_555 1_555
O1_10 C1_10 1_555 1_555
O2_10 Cd1_4 1_555 1_555
O3_10 C8_10 1_555 1_555
O4_10 Cd3_10 1_555 1_555
O5_6 C9_10 1_555 1_555
O6_6 C9_10 1_555 1_555
O7_10 Cd1_4 1_555 1_555
O16_3 Cd1_4 1_555 1_555
O9_5 C18_10 1_555 1_555
O18 C18_10 1_555 1_555
O19_3 C17_10 1_555 1_555
O20_3 C17_10 1_555 1_555
N1_10 Cd2_5 1_555 1_555
N2_10 Cd1_4 1_555 1_555
C1_10 O2_10 1_555 1_555
C2_10 C1_10 1_555 1_555
C3_10 C2_10 1_555 1_555
H1_10 C3_10 1_555 1_555
C4_10 C3_10 1_555 1_555
C5_10 C4_10 1_555 1_555
H2_10 C5_10 1_555 1_555
C6_10 C5_10 1_555 1_555
C7_10 C2_10 1_555 1_555
H3_10 C7_10 1_555 1_555
C8_10 O4_10 1_555 1_555
C9_10 C6_10 1_555 1_555
C10_10 O7_10 1_555 1_555
C11_10 C10_10 1_555 1_555
C12_10 C11_10 1_555 1_555
H4_10 C12_10 1_555 1_555
C13_10 C12_10 1_555 1_555
C14_10 C13_10 1_555 1_555
H5_10 C14_10 1_555 1_555
C15_10 C14_10 1_555 1_555
C16_10 C11_10 1_555 1_555
H6_10 C16_10 1_555 1_555
C17_10 C15_10 1_555 1_555
C18_10 C13_10 1_555 1_555
Cd4_4 O6_6 1_555 1_555
Cd5_4 O9_5 1_555 1_555
Cd6_6 O5_6 1_555 1_555
O14_5 Cd2_5 1_555 1_555
O15_5 Cd1_4 1_555 1_555
O16_10 Cd3_10 1_555 1_555
O17_6 Cd1_4 1_555 1_555
O19_10 Cd2_5 1_555 1_555
Cd2_5 O15_5 1_555 1_555
O6_6 Cd6_6 1_555 1_555
O16_3 C10_10 1_555 1_555
N1_10 N2_10 1_555 1_555
C4_10 C8_10 1_555 1_555
C6_10 C7_10 1_555 1_555
C15_10 C16_10 1_555 1_555
C20_10 N4_3 1_555 1_555
C21_10 C20_10 1_555 1_555
H7_10 C21_10 1_555 1_555
C22_10 C21_10 1_555 1_555
H8_10 C22_10 1_555 1_555
C23_10 C22_10 1_555 1_555
H9_10 C23_10 1_555 1_555
C24_10 C19_10 1_555 1_555
H10_10 C24_10 1_555 1_555
C19_10 C20_10 1_555 1_555
C23_10 C24_10 1_555 1_555
Cd5_4 O1_11 1_555 1_555
Cd2_6 O1_11 1_555 1_555
Cd3_11 O3_11 1_555 1_555
O1_11 C1_11 1_555 1_555
O2_11 Cd5_4 1_555 1_555
O3_11 C8_11 1_555 1_555
O4_11 Cd3_11 1_555 1_555
O14_5 C9_11 1_555 1_555
O15_5 C9_11 1_555 1_555
O7_11 Cd5_4 1_555 1_555
O16 Cd5_4 1_555 1_555
O9_6 C18_11 1_555 1_555
O18_2 C18_11 1_555 1_555
O19 C17_11 1_555 1_555
O20 C17_11 1_555 1_555
N1_11 Cd2_6 1_555 1_555
N2_11 Cd5_4 1_555 1_555
N4 N2_11 1_555 1_555
C1_11 O2_11 1_555 1_555
C2_11 C1_11 1_555 1_555
C3_11 C2_11 1_555 1_555
H1_11 C3_11 1_555 1_555
C4_11 C3_11 1_555 1_555
C5_11 C4_11 1_555 1_555
H2_11 C5_11 1_555 1_555
C6_11 C5_11 1_555 1_555
C7_11 C2_11 1_555 1_555
H3_11 C7_11 1_555 1_555
C8_11 O4_11 1_555 1_555
C9_11 C6_11 1_555 1_555
C10_11 O7_11 1_555 1_555
C11_11 C10_11 1_555 1_555
C12_11 C11_11 1_555 1_555
H4_11 C12_11 1_555 1_555
C13_11 C12_11 1_555 1_555
C14_11 C13_11 1_555 1_555
H5_11 C14_11 1_555 1_555
C15_11 C14_11 1_555 1_555
C16_11 C11_11 1_555 1_555
H6_11 C16_11 1_555 1_555
C17_11 C15_11 1_555 1_555
C18_11 C13_11 1_555 1_555
C19_11 N1_11 1_555 1_555
C20_11 N4 1_555 1_555
C21_11 C20_11 1_555 1_555
H7_11 C21_11 1_555 1_555
C22_11 C21_11 1_555 1_555
H8_11 C22_11 1_555 1_555
C23_11 C22_11 1_555 1_555
H9_11 C23_11 1_555 1_555
C24_11 C19_11 1_555 1_555
H10_11 C24_11 1_555 1_555
Cd4_4 O9_6 1_555 1_555
O14_6 Cd2_6 1_555 1_555
O15_6 Cd5_4 1_555 1_555
O16_11 Cd3_11 1_555 1_555
O19_11 Cd2_6 1_555 1_555
O20_11 Cd2_6 1_555 1_555
Cd2_6 O15_6 1_555 1_555
O16 C10_11 1_555 1_555
N1_11 N2_11 1_555 1_555
C4_11 C8_11 1_555 1_555
C6_11 C7_11 1_555 1_555
C15_11 C16_11 1_555 1_555
C19_11 C20_11 1_555 1_555
C23_11 C24_11 1_555 1_555
O13_11 H11_11 1_555 1_555
O13_11 H12_11 1_555 1_555
C20_12 N4_2 1_555 1_555
C21_12 C20_12 1_555 1_555
H7_12 C21_12 1_555 1_555
C22_12 C21_12 1_555 1_555
H8_12 C22_12 1_555 1_555
C23_12 C22_12 1_555 1_555
H9_12 C23_12 1_555 1_555
C24_12 C19_12 1_555 1_555
H10_12 C24_12 1_555 1_555
C19_12 C20_12 1_555 1_555
C23_12 C24_12 1_555 1_555
Cd4_4 O1_12 1_555 1_555
Cd6_6 O1_12 1_555 1_555
Cd3_12 O3_12 1_555 1_555
O1_12 C1_12 1_555 1_555
O2_12 Cd4_4 1_555 1_555
O3_12 C8_12 1_555 1_555
O4_12 Cd3_12 1_555 1_555
O14_6 C9_12 1_555 1_555
O15_6 C9_12 1_555 1_555
O7_12 Cd4_4 1_555 1_555
O16_2 Cd4_4 1_555 1_555
O17_6 C18_12 1_555 1_555
O18_3 C18_12 1_555 1_555
O19_2 C17_12 1_555 1_555
O20_2 C17_12 1_555 1_555
N1_12 Cd6_6 1_555 1_555
N2_12 Cd4_4 1_555 1_555
C1_12 O2_12 1_555 1_555
C2_12 C1_12 1_555 1_555
C3_12 C2_12 1_555 1_555
H1_12 C3_12 1_555 1_555
C4_12 C3_12 1_555 1_555
C5_12 C4_12 1_555 1_555
H2_12 C5_12 1_555 1_555
C6_12 C5_12 1_555 1_555
C7_12 C2_12 1_555 1_555
H3_12 C7_12 1_555 1_555
C8_12 O4_12 1_555 1_555
C9_12 C6_12 1_555 1_555
C10_12 O7_12 1_555 1_555
C11_12 C10_12 1_555 1_555
C12_12 C11_12 1_555 1_555
H4_12 C12_12 1_555 1_555
C13_12 C12_12 1_555 1_555
C14_12 C13_12 1_555 1_555
H5_12 C14_12 1_555 1_555
C15_12 C14_12 1_555 1_555
C16_12 C11_12 1_555 1_555
H6_12 C16_12 1_555 1_555
C17_12 C15_12 1_555 1_555
C18_12 C13_12 1_555 1_555
O13_12 Cd3_12 1_555 1_555
O16_12 Cd3_12 1_555 1_555
O18_12 Cd3_12 1_555 1_555
O19_12 Cd6_6 1_555 1_555
N4_12 Cd3_12 1_555 1_555
O16_2 C10_12 1_555 1_555
N1_12 N2_12 1_555 1_555
C4_12 C8_12 1_555 1_555
C6_12 C7_12 1_555 1_555
C15_12 C16_12 1_555 1_555
O13_12 H11_12 1_555 1_555
O13_12 H12_12 1_555 1_555
O9_7 C18_13 1_555 1_555
O18_10 C18_13 1_555 1_555
O19_11 C17_13 1_555 1_555
O20_11 C17_13 1_555 1_555
C10_13 O7_13 1_555 1_555
C11_13 C10_13 1_555 1_555
C12_13 C11_13 1_555 1_555
H4_13 C12_13 1_555 1_555
C13_13 C12_13 1_555 1_555
C14_13 C13_13 1_555 1_555
H5_13 C14_13 1_555 1_555
C15_13 C14_13 1_555 1_555
C16_13 C11_13 1_555 1_555
H6_13 C16_13 1_555 1_555
C17_13 C15_13 1_555 1_555
C18_13 C13_13 1_555 1_555
Cd5_5 O9_7 1_555 1_555
O16_11 C10_13 1_555 1_555
C15_13 C16_13 1_555 1_555
Cd1_5 O1_13 1_555 1_555
Cd7_5 O1_13 1_555 1_555
Cd9_2 O3_13 1_555 1_555
O1_13 C1_13 1_555 1_555
O2_13 Cd1_5 1_555 1_555
O3_13 C8_13 1_555 1_555
N1_13 Cd7_5 1_555 1_555
N2_13 Cd1_5 1_555 1_555
N4_11 N2_13 1_555 1_555
C1_13 O2_13 1_555 1_555
C2_13 C1_13 1_555 1_555
C3_13 C2_13 1_555 1_555
H1_13 C3_13 1_555 1_555
C4_13 C3_13 1_555 1_555
C19_13 N1_13 1_555 1_555
C20_13 N4_11 1_555 1_555
C21_13 C20_13 1_555 1_555
H7_13 C21_13 1_555 1_555
C22_13 C21_13 1_555 1_555
H8_13 C22_13 1_555 1_555
C23_13 C22_13 1_555 1_555
H9_13 C23_13 1_555 1_555
C24_13 C19_13 1_555 1_555
H10_13 C24_13 1_555 1_555
O17_7 Cd1_5 1_555 1_555
N1_13 N2_13 1_555 1_555
C4_13 C8_13 1_555 1_555
C19_13 C20_13 1_555 1_555
C23_13 C24_13 1_555 1_555
O5_7 C9_13 1_555 1_555
O6_7 C9_13 1_555 1_555
H2_13 C5_13 1_555 1_555
C6_13 C5_13 1_555 1_555
H3_13 C7_13 1_555 1_555
C9_13 C6_13 1_555 1_555
Cd4_5 O6_7 1_555 1_555
Cd7_6 O5_7 1_555 1_555
O6_7 Cd7_6 1_555 1_555
C6_13 C7_13 1_555 1_555
O13_13 H11_13 1_555 1_555
O13_13 H12_13 1_555 1_555
O5_8 C9_14 1_555 1_555
O6_8 C9_14 1_555 1_555
H2_14 C5_14 1_555 1_555
C6_14 C5_14 1_555 1_555
H3_14 C7_14 1_555 1_555
C9_14 C6_14 1_555 1_555
C6_14 C7_14 1_555 1_555
O13_14 H11_14 1_555 1_555
O13_14 H12_14 1_555 1_555
O17_7 C18_14 1_555 1_555
O18_11 C18_14 1_555 1_555
H4_14 C12_14 1_555 1_555
C13_14 C12_14 1_555 1_555
C14_14 C13_14 1_555 1_555
H5_14 C14_14 1_555 1_555
C18_14 C13_14 1_555 1_555
Cd4_5 O1_14 1_555 1_555
Cd7_6 O1_14 1_555 1_555
Cd9_3 O3_14 1_555 1_555
O1_14 C1_14 1_555 1_555
O2_14 Cd4_5 1_555 1_555
O3_14 C8_14 1_555 1_555
O7_14 Cd4_5 1_555 1_555
O16_12 Cd4_5 1_555 1_555
O19_12 C17_14 1_555 1_555
N1_14 Cd7_6 1_555 1_555
N2_14 Cd4_5 1_555 1_555
N4_12 N2_14 1_555 1_555
C1_14 O2_14 1_555 1_555
C2_14 C1_14 1_555 1_555
C3_14 C2_14 1_555 1_555
H1_14 C3_14 1_555 1_555
C4_14 C3_14 1_555 1_555
C10_14 O7_14 1_555 1_555
C11_14 C10_14 1_555 1_555
C16_14 C11_14 1_555 1_555
H6_14 C16_14 1_555 1_555
C17_14 C15_14 1_555 1_555
C19_14 N1_14 1_555 1_555
C20_14 N4_12 1_555 1_555
C21_14 C20_14 1_555 1_555
H7_14 C21_14 1_555 1_555
C22_14 C21_14 1_555 1_555
H8_14 C22_14 1_555 1_555
C23_14 C22_14 1_555 1_555
H9_14 C23_14 1_555 1_555
C24_14 C19_14 1_555 1_555
H10_14 C24_14 1_555 1_555
O17_8 Cd4_5 1_555 1_555
O16_12 C10_14 1_555 1_555
N1_14 N2_14 1_555 1_555
C4_14 C8_14 1_555 1_555
C15_14 C16_14 1_555 1_555
C19_14 C20_14 1_555 1_555
C23_14 C24_14 1_555 1_555
Cd5_5 O1_15 1_555 1_555
Cd7_4 O1_15 1_555 1_555
Cd8_3 O3_15 1_555 1_555
O1_15 C1_15 1_555 1_555
O2_15 Cd5_5 1_555 1_555
O3_15 C8_15 1_555 1_555
O4_15 Cd8_3 1_555 1_555
O14_7 C9_15 1_555 1_555
O15_7 C9_15 1_555 1_555
N1_15 Cd7_4 1_555 1_555
N2_15 Cd5_5 1_555 1_555
N4_10 N2_15 1_555 1_555
C1_15 O2_15 1_555 1_555
C2_15 C1_15 1_555 1_555
C3_15 C2_15 1_555 1_555
H1_15 C3_15 1_555 1_555
C4_15 C3_15 1_555 1_555
C5_15 C4_15 1_555 1_555
H2_15 C5_15 1_555 1_555
C6_15 C5_15 1_555 1_555
C7_15 C2_15 1_555 1_555
H3_15 C7_15 1_555 1_555
C8_15 O4_15 1_555 1_555
C9_15 C6_15 1_555 1_555
C19_15 N1_15 1_555 1_555
C20_15 N4_10 1_555 1_555
C21_15 C20_15 1_555 1_555
H7_15 C21_15 1_555 1_555
C22_15 C21_15 1_555 1_555
H8_15 C22_15 1_555 1_555
C23_15 C22_15 1_555 1_555
H9_15 C23_15 1_555 1_555
C24_15 C19_15 1_555 1_555
H10_15 C24_15 1_555 1_555
O13_15 Cd8_3 1_555 1_555
N1_15 N2_15 1_555 1_555
C4_15 C8_15 1_555 1_555
C6_15 C7_15 1_555 1_555
C19_15 C20_15 1_555 1_555
C23_15 C24_15 1_555 1_555
O13_15 H11_15 1_555 1_555
O13_15 H12_15 1_555 1_555
O19_10 C17_15 1_555 1_555
C10_15 O7_15 1_555 1_555
C11_15 C10_15 1_555 1_555
C16_15 C11_15 1_555 1_555
H6_15 C16_15 1_555 1_555
C17_15 C15_15 1_555 1_555
O16_10 C10_15 1_555 1_555
C15_15 C16_15 1_555 1_555
O17_8 C18_15 1_555 1_555
O18_12 C18_15 1_555 1_555
H4_15 C12_15 1_555 1_555
C13_15 C12_15 1_555 1_555
C14_15 C13_15 1_555 1_555
H5_15 C14_15 1_555 1_555
C18_15 C13_15 1_555 1_555
O5_9 C9_16 1_555 1_555
O6_9 C9_16 1_555 1_555
H2_16 C5_16 1_555 1_555
C6_16 C5_16 1_555 1_555
C9_16 C6_16 1_555 1_555
Cd7_2 O5_9 1_555 1_555
O6_9 Cd7_2 1_555 1_555
C6_16 C7_16 1_555 1_555
O13_16 H11_16 1_555 1_555
O13_16 H12_16 1_555 1_555
O2_16 Cd1_6 1_555 1_555
N2_16 Cd1_6 1_555 1_555
N4_9 N2_16 1_555 1_555
C1_16 O2_16 1_555 1_555
C19_16 N1_16 1_555 1_555
C20_16 N4_9 1_555 1_555
C21_16 C20_16 1_555 1_555
H7_16 C21_16 1_555 1_555
C22_16 C21_16 1_555 1_555
H8_16 C22_16 1_555 1_555
C23_16 C22_16 1_555 1_555
H9_16 C23_16 1_555 1_555
C24_16 C19_16 1_555 1_555
O17_9 Cd1_6 1_555 1_555
N1_16 N2_16 1_555 1_555
C19_16 C20_16 1_555 1_555
C23_16 C24_16 1_555 1_555
Cd7_3 O1_16 1_555 1_555
Cd9 O3_16 1_555 1_555
O3_16 C8_16 1_555 1_555
C3_16 C2_16 1_555 1_555
H1_16 C3_16 1_555 1_555
C4_16 C3_16 1_555 1_555
C4_16 C8_16 1_555 1_555
O9_8 C18_16 1_555 1_555
O18_7 C18_16 1_555 1_555
O19_9 C17_16 1_555 1_555
O20_9 C17_16 1_555 1_555
C10_16 O7_16 1_555 1_555
C11_16 C10_16 1_555 1_555
C12_16 C11_16 1_555 1_555
H4_16 C12_16 1_555 1_555
C13_16 C12_16 1_555 1_555
C14_16 C13_16 1_555 1_555
H5_16 C14_16 1_555 1_555
C15_16 C14_16 1_555 1_555
C16_16 C11_16 1_555 1_555
H6_16 C16_16 1_555 1_555
C17_16 C15_16 1_555 1_555
C18_16 C13_16 1_555 1_555
Cd5_6 O9_8 1_555 1_555
O16_9 C10_16 1_555 1_555
C15_16 C16_16 1_555 1_555
O9_9 C18_17 1_555 1_555
O18_8 C18_17 1_555 1_555
H4_17 C12_17 1_555 1_555
C13_17 C12_17 1_555 1_555
C14_17 C13_17 1_555 1_555
H5_17 C14_17 1_555 1_555
C18_17 C13_17 1_555 1_555
Cd4_6 O9_9 1_555 1_555
O19_7 C17_17 1_555 1_555
C10_17 O7_17 1_555 1_555
C11_17 C10_17 1_555 1_555
C16_17 C11_17 1_555 1_555
H6_17 C16_17 1_555 1_555
C17_17 C15_17 1_555 1_555
O16_7 C10_17 1_555 1_555
C15_17 C16_17 1_555 1_555
O2_17 Cd5_6 1_555 1_555
N2_17 Cd5_6 1_555 1_555
N4_7 N2_17 1_555 1_555
C1_17 O2_17 1_555 1_555
C19_17 N1_17 1_555 1_555
C20_17 N4_7 1_555 1_555
C21_17 C20_17 1_555 1_555
H7_17 C21_17 1_555 1_555
C22_17 C21_17 1_555 1_555
H8_17 C22_17 1_555 1_555
C23_17 C22_17 1_555 1_555
H9_17 C23_17 1_555 1_555
C24_17 C19_17 1_555 1_555
N1_17 N2_17 1_555 1_555
C19_17 C20_17 1_555 1_555
C23_17 C24_17 1_555 1_555
Cd7 O1_17 1_555 1_555
Cd8 O3_17 1_555 1_555
O3_17 C8_17 1_555 1_555
O4_17 Cd8 1_555 1_555
O14_8 C9_17 1_555 1_555
O15_8 C9_17 1_555 1_555
C3_17 C2_17 1_555 1_555
H1_17 C3_17 1_555 1_555
C4_17 C3_17 1_555 1_555
C5_17 C4_17 1_555 1_555
H2_17 C5_17 1_555 1_555
C6_17 C5_17 1_555 1_555
C7_17 C2_17 1_555 1_555
C8_17 O4_17 1_555 1_555
C9_17 C6_17 1_555 1_555
O13_17 Cd8 1_555 1_555
C4_17 C8_17 1_555 1_555
C6_17 C7_17 1_555 1_555
O13_17 H11_17 1_555 1_555
O13_17 H12_17 1_555 1_555
O2_18 Cd4_6 1_555 1_555
O7_18 Cd4_6 1_555 1_555
O16_8 Cd4_6 1_555 1_555
O19_8 C17_18 1_555 1_555
N2_18 Cd4_6 1_555 1_555
N4_8 N2_18 1_555 1_555
C1_18 O2_18 1_555 1_555
C10_18 O7_18 1_555 1_555
C11_18 C10_18 1_555 1_555
C16_18 C11_18 1_555 1_555
H6_18 C16_18 1_555 1_555
C17_18 C15_18 1_555 1_555
C19_18 N1_18 1_555 1_555
C20_18 N4_8 1_555 1_555
C21_18 C20_18 1_555 1_555
H7_18 C21_18 1_555 1_555
C22_18 C21_18 1_555 1_555
H8_18 C22_18 1_555 1_555
C23_18 C22_18 1_555 1_555
H9_18 C23_18 1_555 1_555
C24_18 C19_18 1_555 1_555
O16_8 C10_18 1_555 1_555
N1_18 N2_18 1_555 1_555
C15_18 C16_18 1_555 1_555
C19_18 C20_18 1_555 1_555
C23_18 C24_18 1_555 1_555
Cd7_2 O1_18 1_555 1_555
Cd8_2 O3_18 1_555 1_555
O3_18 C8_18 1_555 1_555
C3_18 C2_18 1_555 1_555
H1_18 C3_18 1_555 1_555
C4_18 C3_18 1_555 1_555
C4_18 C8_18 1_555 1_555
O14_9 C9_18 1_555 1_555
O15_9 C9_18 1_555 1_555
H2_18 C5_18 1_555 1_555
C6_18 C5_18 1_555 1_555
C9_18 C6_18 1_555 1_555
C6_18 C7_18 1_555 1_555
O13_18 H11_18 1_555 1_555
O13_18 H12_18 1_555 1_555
O17_9 C18_18 1_555 1_555
O18_9 C18_18 1_555 1_555
H4_18 C12_18 1_555 1_555
C13_18 C12_18 1_555 1_555
C14_18 C13_18 1_555 1_555
H5_18 C14_18 1_555 1_555
C18_18 C13_18 1_555 1_555

#END
