
###############################################################################
#
# This file contains modified crystal structure data generated from the
# MOF subset of the Cambridge Structural Database (CSD) v543 
# hosted by the Cambridge Crystallographic Data Centre (CCDC).
#
# This work is licensed under the Creative Commons
# Attribution-NonCommercial-ShareAlike 4.0 International License.
# To view a copy of this license, visit
# http://creativecommons.org/licenses/by-nc-sa/4.0/
# or send a letter to
# Creative Commons, PO Box 1866, Mountain View, CA 94042, USA.
#
# CIF created using the CSD Python API on 29 September 2022
# The structure has been converted into the P1 space group
# The structure has a 3D framework
# The original CSD entry NETFAU is in the monoclinic crystal system
# The framework has been calculated to contain at least 10.0% void space
# The void calculation uses a probe of radius 1.32A, grid spacing 0.4
# H atom positions have been added when not included in the experimental data
#
###############################################################################

data_NETFAU
_chemical_formula_moiety         '(C82 H108 Eu8 N48 O48 W4)n'
_symmetry_cell_setting           triclinic
_symmetry_space_group_name_H-M   'P 1'
_symmetry_Int_Tables_number      1
_space_group_name_Hall           'P 1'
loop_
_symmetry_equiv_pos_site_id
_symmetry_equiv_pos_as_xyz
1 x,y,z
_cell_length_a                   10.8755(5)
_cell_length_b                   19.129(2)
_cell_length_c                   19.3765(18)
_cell_angle_alpha                90
_cell_angle_beta                 98.745(5)
_cell_angle_gamma                90
_cell_volume                     3984.18
loop_
_atom_site_label
_atom_site_type_symbol
_atom_site_fract_x
_atom_site_fract_y
_atom_site_fract_z
H2 H 0.0149 0.5259 0.8842
Eu2 Eu 0.048450(16) 0.371350(9) 0.702230(8)
O8 O 0.1949(3) 0.46284(15) 0.75250(15)
H17 H 0.256(5) 0.446(3) 0.772(2)
H18 H 0.190(5) 0.497(3) 0.771(3)
O10 O 0.2055(3) 0.38710(17) 0.63096(18)
H21 H 0.231(5) 0.360(3) 0.612(3)
H22 H 0.232(5) 0.430(3) 0.621(3)
O11 O 0.0839(3) 0.25553(15) 0.65376(16)
H23 H 0.143(5) 0.231(3) 0.666(3)
H24 H 0.033(6) 0.242(3) 0.622(3)
O13 O 0.1877(2) 0.30902(13) 0.78397(14)
C5 C 0.8065(4) 0.6137(2) 0.0426(2)
H3 H 0.8824 0.6195 0.0754
H4 H 0.7408 0.5970 0.0671
H5 H 0.7824 0.6582 0.0205
H8 H 0.4531 0.0858 0.0236
H9 H 0.5879 0.1041 0.0075
C15 C 0.5373(3) 0.36366(16) 0.03761(16)
W2 W 0.536980(12) 0.337440(6) 0.145450(6)
Eu1 Eu 0.585796(15) 0.374832(8) 0.857459(8)
N1 N 0.7570(3) 0.46261(15) 0.91761(14)
C1 C 0.7437(3) 0.50754(19) 0.96865(18)
H1 H 0.6752 0.5025 0.9925
C2 C 0.8279(3) 0.56158(18) 0.98791(18)
N2 N 0.9294(3) 0.56861(16) 0.95653(15)
C3 C 0.9443(3) 0.52248(18) 0.90660(18)
C4 C 0.8589(3) 0.46989(17) 0.88695(16)
C6 C 0.8718(3) 0.41956(17) 0.82882(16)
O1 O 0.9728(2) 0.41757(14) 0.80532(13)
O2 O 0.7778(2) 0.38261(13) 0.80785(12)
N3 N 0.4708(3) 0.25998(14) 0.88759(14)
C7 C 0.5188(3) 0.20775(18) 0.92780(18)
H6 H 0.6018 0.2109 0.9499
C8 C 0.4502(4) 0.14815(18) 0.93843(18)
N4 N 0.3343(3) 0.14022(15) 0.90586(16)
C9 C 0.2854(4) 0.19276(19) 0.86444(19)
H7 H 0.2040 0.1884 0.8403
C10 C 0.3520(3) 0.25293(17) 0.85645(17)
C11 C 0.5038(4) 0.0916(2) 0.9869(2)
H10 H 0.5052 0.0482 0.9613
C12 C 0.2978(3) 0.31408(17) 0.81448(17)
O4 O 0.3655(2) 0.36740(12) 0.81430(13)
N5 N 0.4926(3) 0.49161(15) 0.87357(14)
N6 N 0.5463(3) 0.37634(15) 0.98043(15)
N7 N 0.5753(3) 0.28757(15) 0.76332(15)
O5 O 0.7459(2) 0.29808(14) 0.92115(13)
H11 H 0.7625 0.3113 0.9623
O6 O 0.5534(3) 0.44764(14) 0.74816(13)
C13 C 0.5842(6) 0.4364(3) 0.6802(2)
H12 H 0.6430 0.4717 0.6703
H13 H 0.5094 0.4393 0.6460
H14 H 0.6211 0.3904 0.6781
O7 O 0.9305(3) 0.35967(15) 0.58483(14)
H15 H 0.984(6) 0.351(3) 0.554(3)
H16 H 0.862(6) 0.341(3) 0.579(3)
O9 O 0.8782(3) 0.29851(17) 0.72418(16)
H19 H 0.830(5) 0.317(3) 0.747(3)
H20 H 0.843(6) 0.275(3) 0.698(3)
O12 O 0.9410(3) 0.47608(16) 0.66877(16)
H25 H 0.939(5) 0.518(3) 0.692(3)
H26 H 0.904(6) 0.484(3) 0.630(3)
W1 W 0.463020(12) 0.662560(6) 0.854550(6)
C14 C 0.4838(3) 0.55153(17) 0.86908(16)
C16 C 0.5575(3) 0.24400(17) 0.72194(17)
C17 C 0.6461(3) 0.64370(18) 0.82856(18)
N8 N 0.7432(3) 0.63494(18) 0.81271(19)
C18 C 0.2733(3) 0.62779(18) 0.83699(18)
N9 N 0.1719(3) 0.6074(2) 0.82722(19)
C19 C 0.4330(3) 0.61413(17) 0.75127(17)
N10 N 0.4181(4) 0.58577(18) 0.69835(16)
C20 C 0.3519(3) 0.74331(17) 0.89462(16)
N11 N 0.2904(3) 0.78497(16) 0.91488(16)
C21 C 0.5952(3) 0.73765(19) 0.90827(18)
N12 N 0.6670(3) 0.77761(19) 0.93378(19)
W3 W 0.536980(12) 0.162560(6) 0.645450(6)
C22 C 0.4627(3) 0.63634(16) 0.96239(16)
C23 C 0.4425(3) 0.74400(17) 0.77806(17)
H27 H 0.822178 0.30004 0.898815
C1_2 C 0.2563(3) 0.00754(19) 0.53135(18)
H1_2 H 0.3248 0.0025 0.5075
C2_2 C 0.1721(3) 0.06158(18) 0.51209(18)
N2_2 N 0.0706(3) 0.06861(16) 0.54347(15)
C3_2 C 0.0557(3) 0.02248(18) 0.59340(18)
C5_2 C 0.1935(4) 0.1137(2) 0.4574(2)
H3_2 H 0.1176 0.1195 0.4246
H4_2 H 0.2592 0.0970 0.4329
H5_2 H 0.2176 0.1582 0.4795
H25_2 H 0.061(5) 0.018(3) 0.808(3)
C14_2 C 0.5162(3) 0.05153(17) 0.63092(16)
C17_2 C 0.3539(3) 0.14370(18) 0.67144(18)
N8_2 N 0.2568(3) 0.13494(18) 0.68729(19)
C18_2 C 0.7267(3) 0.12779(18) 0.66301(18)
N9_2 N 0.8281(3) 0.1074(2) 0.67278(19)
C19_2 C 0.5670(3) 0.11413(17) 0.74873(17)
N10_2 N 0.5819(4) 0.08577(18) 0.80165(16)
C20_2 C 0.6481(3) 0.24331(17) 0.60538(16)
N11_2 N 0.7096(3) 0.28497(16) 0.58512(16)
C21_2 C 0.4048(3) 0.23765(19) 0.59173(18)
N12_2 N 0.3330(3) 0.27761(19) 0.56622(19)
C22_2 C 0.5373(3) 0.13634(16) 0.53761(16)
Eu1_2 Eu 0.414204(15) 0.874832(8) 0.642541(8)
N1_2 N 0.2430(3) 0.96261(15) 0.58239(14)
C4_2 C 0.1411(3) 0.96989(17) 0.61305(16)
C6_2 C 0.1282(3) 0.91956(17) 0.67118(16)
O1_2 O 0.0272(2) 0.91757(14) 0.69468(13)
O2_2 O 0.2222(2) 0.88261(13) 0.69215(12)
N3_2 N 0.5292(3) 0.75998(14) 0.61241(14)
C7_2 C 0.4812(3) 0.70775(18) 0.57220(18)
H6_2 H 0.3982 0.7109 0.5501
C8_2 C 0.5498(4) 0.64815(18) 0.56157(18)
N4_2 N 0.6657(3) 0.64022(15) 0.59414(16)
C9_2 C 0.7146(4) 0.69276(19) 0.63556(19)
H7_2 H 0.7960 0.6884 0.6597
C10_2 C 0.6480(3) 0.75293(17) 0.64355(17)
C11_2 C 0.4962(4) 0.5916(2) 0.5131(2)
H8_2 H 0.5469 0.5858 0.4764
H9_2 H 0.4121 0.6041 0.4925
H10_2 H 0.4948 0.5482 0.5387
C12_2 C 0.7022(3) 0.81408(17) 0.68552(17)
O3 O 0.8123(2) 0.80902(13) 0.71603(14)
O4_2 O 0.6345(2) 0.86740(12) 0.68570(13)
N5_2 N 0.5074(3) 0.99161(15) 0.62643(14)
N6_2 N 0.4537(3) 0.87634(15) 0.51957(15)
N7_2 N 0.4247(3) 0.78757(15) 0.73668(15)
O5_2 O 0.2541(2) 0.79808(14) 0.57885(13)
H11_2 H 0.2375 0.8113 0.5377
O6_2 O 0.4466(3) 0.94764(14) 0.75184(13)
C13_2 C 0.4158(6) 0.9364(3) 0.8198(2)
H12_2 H 0.3570 0.9717 0.8297
H13_2 H 0.4906 0.9393 0.8540
H14_2 H 0.3789 0.8904 0.8219
O7_2 O 0.0695(3) 0.85967(15) 0.91517(14)
H15_2 H 0.016(6) 0.851(3) 0.946(3)
H16_2 H 0.138(6) 0.841(3) 0.921(3)
O9_2 O 0.1218(3) 0.79851(17) 0.77582(16)
H19_2 H 0.170(5) 0.817(3) 0.753(3)
H20_2 H 0.157(6) 0.775(3) 0.802(3)
O12_2 O 0.0590(3) 0.97608(16) 0.83123(16)
H26_2 H 0.096(6) 0.984(3) 0.870(3)
C15_2 C 0.4627(3) 0.86366(16) 0.46239(16)
Eu3 Eu 0.951550(16) 0.871350(9) 0.797770(8)
W2_2 W 0.463020(12) 0.837440(6) 0.354550(6)
H27_2 H 0.177822 0.80004 0.601185
O8_2 O 0.8051(3) 0.96284(15) 0.74750(15)
H17_2 H 0.744(5) 0.946(3) 0.728(2)
H18_2 H 0.810(5) 0.997(3) 0.729(3)
O10_2 O 0.7945(3) 0.88710(17) 0.86904(18)
H21_2 H 0.769(5) 0.860(3) 0.888(3)
H22_2 H 0.768(5) 0.930(3) 0.879(3)
O11_2 O 0.9161(3) 0.75553(15) 0.84624(16)
H23_2 H 0.857(5) 0.731(3) 0.834(3)
H24_2 H 0.967(6) 0.742(3) 0.878(3)
Eu1_3 Eu 0.414204(15) 0.625168(8) 0.142541(8)
N1_3 N 0.2430(3) 0.53739(15) 0.08239(14)
C1_3 C 0.2563(3) 0.49246(19) 0.03135(18)
H1_3 H 0.3248 0.4975 0.0075
C2_3 C 0.1721(3) 0.43842(18) 0.01209(18)
N2_3 N 0.0706(3) 0.43139(16) 0.04347(15)
C3_3 C 0.0557(3) 0.47752(18) 0.09340(18)
C4_3 C 0.1411(3) 0.53011(17) 0.11305(16)
C6_3 C 0.1282(3) 0.58044(17) 0.17118(16)
O1_3 O 0.0272(2) 0.58243(14) 0.19468(13)
O2_3 O 0.2222(2) 0.61739(13) 0.19215(12)
N3_3 N 0.5292(3) 0.74002(14) 0.11241(14)
C7_3 C 0.4812(3) 0.79225(18) 0.07220(18)
H6_3 H 0.3982 0.7891 0.0501
C8_3 C 0.5498(4) 0.85185(18) 0.06157(18)
N4_3 N 0.6657(3) 0.85978(15) 0.09414(16)
C9_3 C 0.7146(4) 0.80724(19) 0.13556(19)
H7_3 H 0.7960 0.8116 0.1597
C10_3 C 0.6480(3) 0.74707(17) 0.14355(17)
C11_3 C 0.4962(4) 0.9084(2) 0.0131(2)
H10_3 H 0.4948 0.9518 0.0387
C12_3 C 0.7022(3) 0.68592(17) 0.18552(17)
O3_2 O 0.8123(2) 0.69098(13) 0.21603(14)
O4_3 O 0.6345(2) 0.63260(12) 0.18570(13)
N5_3 N 0.5074(3) 0.50839(15) 0.12643(14)
N6_3 N 0.4537(3) 0.62366(15) 0.01957(15)
N7_3 N 0.4247(3) 0.71243(15) 0.23668(15)
O5_3 O 0.2541(2) 0.70192(14) 0.07885(13)
H11_3 H 0.2375 0.6887 0.0377
O6_3 O 0.4466(3) 0.55236(14) 0.25184(13)
C13_3 C 0.4158(6) 0.5636(3) 0.3198(2)
H12_3 H 0.3570 0.5283 0.3297
H13_3 H 0.4906 0.5607 0.3540
H14_3 H 0.3789 0.6096 0.3219
O7_3 O 0.0695(3) 0.64033(15) 0.41517(14)
H15_3 H 0.016(6) 0.649(3) 0.446(3)
H16_3 H 0.138(6) 0.659(3) 0.421(3)
O9_3 O 0.1218(3) 0.70149(17) 0.27582(16)
H19_3 H 0.170(5) 0.683(3) 0.253(3)
H20_3 H 0.157(6) 0.725(3) 0.302(3)
O12_3 O 0.0590(3) 0.52392(16) 0.33123(16)
H25_3 H 0.061(5) 0.482(3) 0.308(3)
H26_3 H 0.096(6) 0.516(3) 0.370(3)
C14_3 C 0.5162(3) 0.44847(17) 0.13092(16)
C16_2 C 0.4425(3) 0.75600(17) 0.27806(17)
C17_3 C 0.3539(3) 0.35630(18) 0.17144(18)
N8_3 N 0.2568(3) 0.36506(18) 0.18729(19)
C18_3 C 0.7267(3) 0.37221(18) 0.16301(18)
N9_3 N 0.8281(3) 0.3926(2) 0.17278(19)
C19_3 C 0.5670(3) 0.38587(17) 0.24873(17)
N10_3 N 0.5819(4) 0.41423(18) 0.30165(16)
C20_3 C 0.6481(3) 0.25669(17) 0.10538(16)
N11_3 N 0.7096(3) 0.21503(16) 0.08512(16)
C21_3 C 0.4048(3) 0.26235(19) 0.09173(18)
N12_3 N 0.3330(3) 0.22239(19) 0.06622(19)
Eu3_2 Eu 0.951550(16) 0.628650(9) 0.297770(8)
C23_2 C 0.5575(3) 0.25600(17) 0.22194(17)
H27_3 H 0.177822 0.69996 0.101185
C5_3 C 0.1935(4) 0.3863(2) 0.9574(2)
H3_3 H 0.1176 0.3805 0.9246
H4_3 H 0.2592 0.4030 0.9329
H5_3 H 0.2176 0.3418 0.9795
H8_3 H 0.5469 0.9142 0.9764
H9_3 H 0.4121 0.8959 0.9925
H2_2 H 0.9851 0.4741 0.1158
O8_3 O 0.8051(3) 0.53716(15) 0.24750(15)
H17_3 H 0.744(5) 0.554(3) 0.228(2)
H18_3 H 0.810(5) 0.503(3) 0.229(3)
O10_3 O 0.7945(3) 0.61290(17) 0.36904(18)
H21_3 H 0.769(5) 0.640(3) 0.388(3)
H22_3 H 0.768(5) 0.570(3) 0.379(3)
O11_3 O 0.9161(3) 0.74447(15) 0.34624(16)
H23_3 H 0.857(5) 0.769(3) 0.334(3)
H24_3 H 0.967(6) 0.758(3) 0.378(3)
Eu2_2 Eu 0.048450(16) 0.128650(9) 0.202230(8)
O8_4 O 0.1949(3) 0.03716(15) 0.25250(15)
H17_4 H 0.256(5) 0.054(3) 0.272(2)
H18_4 H 0.190(5) 0.003(3) 0.271(3)
O10_4 O 0.2055(3) 0.11290(17) 0.13096(18)
H21_4 H 0.231(5) 0.140(3) 0.112(3)
H22_4 H 0.232(5) 0.070(3) 0.121(3)
O11_4 O 0.0839(3) 0.24447(15) 0.15376(16)
H23_4 H 0.143(5) 0.269(3) 0.166(3)
H24_4 H 0.033(6) 0.258(3) 0.122(3)
O13_2 O 0.1877(2) 0.19098(13) 0.28397(14)
Eu1_4 Eu 0.585796(15) 0.125168(8) 0.357459(8)
N1_4 N 0.7570(3) 0.03739(15) 0.41761(14)
C4_4 C 0.8589(3) 0.03011(17) 0.38695(16)
C6_4 C 0.8718(3) 0.08044(17) 0.32882(16)
O1_4 O 0.9728(2) 0.08243(14) 0.30532(13)
O2_4 O 0.7778(2) 0.11739(13) 0.30785(12)
N3_4 N 0.4708(3) 0.24002(14) 0.38759(14)
C7_4 C 0.5188(3) 0.29225(18) 0.42780(18)
H6_4 H 0.6018 0.2891 0.4499
C8_4 C 0.4502(4) 0.35185(18) 0.43843(18)
N4_4 N 0.3343(3) 0.35978(15) 0.40586(16)
C9_4 C 0.2854(4) 0.30724(19) 0.36444(19)
H7_4 H 0.2040 0.3116 0.3403
C10_4 C 0.3520(3) 0.24707(17) 0.35645(17)
C11_4 C 0.5038(4) 0.4084(2) 0.4869(2)
H8_4 H 0.4531 0.4142 0.5236
H9_4 H 0.5879 0.3959 0.5075
H10_4 H 0.5052 0.4518 0.4613
C12_4 C 0.2978(3) 0.18592(17) 0.31448(17)
O4_4 O 0.3655(2) 0.13260(12) 0.31430(13)
N5_4 N 0.4926(3) 0.00839(15) 0.37357(14)
N6_4 N 0.5463(3) 0.12366(15) 0.48043(15)
N7_4 N 0.5753(3) 0.21243(15) 0.26332(15)
O5_4 O 0.7459(2) 0.20192(14) 0.42115(13)
H11_4 H 0.7625 0.1887 0.4623
O6_4 O 0.5534(3) 0.05236(14) 0.24816(13)
C13_4 C 0.5842(6) 0.0636(3) 0.1802(2)
H12_4 H 0.6430 0.0283 0.1703
H13_4 H 0.5094 0.0607 0.1460
H14_4 H 0.6211 0.1096 0.1781
O7_4 O 0.9305(3) 0.14033(15) 0.08483(14)
H15_4 H 0.984(6) 0.149(3) 0.054(3)
H16_4 H 0.862(6) 0.159(3) 0.079(3)
O9_4 O 0.8782(3) 0.20149(17) 0.22418(16)
H19_4 H 0.830(5) 0.183(3) 0.247(3)
H20_4 H 0.843(6) 0.225(3) 0.198(3)
O12_4 O 0.9410(3) 0.02392(16) 0.16877(16)
H26_4 H 0.904(6) 0.016(3) 0.130(3)
H27_4 H 0.822178 0.19996 0.398815
C1_4 C 0.7437(3) 0.99246(19) 0.46865(18)
H1_4 H 0.6752 0.9975 0.4925
C2_4 C 0.8279(3) 0.93842(18) 0.48791(18)
N2_4 N 0.9294(3) 0.93139(16) 0.45653(15)
C3_4 C 0.9443(3) 0.97752(18) 0.40660(18)
C5_4 C 0.8065(4) 0.8863(2) 0.5426(2)
H3_4 H 0.8824 0.8805 0.5754
H4_4 H 0.7408 0.9030 0.5671
H5_4 H 0.7824 0.8418 0.5205
H25_4 H 0.939(5) 0.982(3) 0.192(3)
C14_4 C 0.4838(3) 0.94847(17) 0.36908(16)
C17_4 C 0.6461(3) 0.85630(18) 0.32856(18)
N8_4 N 0.7432(3) 0.86506(18) 0.31271(19)
C18_4 C 0.2733(3) 0.87221(18) 0.33699(18)
N9_4 N 0.1719(3) 0.8926(2) 0.32722(19)
C19_4 C 0.4330(3) 0.88587(17) 0.25127(17)
N10_4 N 0.4181(4) 0.91423(18) 0.19835(16)
C20_4 C 0.3519(3) 0.75669(17) 0.39462(16)
N11_4 N 0.2904(3) 0.71503(16) 0.41488(16)
C21_4 C 0.5952(3) 0.76235(19) 0.40827(18)
N12_4 N 0.6670(3) 0.72239(19) 0.43378(19)
H2_3 H 0.9851 0.0259 0.6158
H2_4 H 0.0149 0.9741 0.3842
loop_
_geom_bond_atom_site_label_1
_geom_bond_atom_site_label_2
_geom_bond_site_symmetry_1
_geom_bond_site_symmetry_2
O8 Eu2 1_555 1_555
H17 O8 1_555 1_555
H18 O8 1_555 1_555
O10 Eu2 1_555 1_555
H21 O10 1_555 1_555
H22 O10 1_555 1_555
O11 Eu2 1_555 1_555
H23 O11 1_555 1_555
H24 O11 1_555 1_555
O13 Eu2 1_555 1_555
H3 C5 1_555 1_555
H4 C5 1_555 1_555
H5 C5 1_555 1_555
W2 C15 1_555 1_555
Eu1 N1 1_555 1_555
N1 C1 1_555 1_555
C1 H1 1_555 1_555
C2 C1 1_555 1_555
N2 C2 1_555 1_555
C3 N2 1_555 1_555
C4 N1 1_555 1_555
C6 C4 1_555 1_555
O1 C6 1_555 1_555
O2 Eu1 1_555 1_555
N3 Eu1 1_555 1_555
C7 N3 1_555 1_555
H6 C7 1_555 1_555
C8 C7 1_555 1_555
N4 C8 1_555 1_555
C9 N4 1_555 1_555
H7 C9 1_555 1_555
C10 N3 1_555 1_555
C11 C8 1_555 1_555
H10 C11 1_555 1_555
C12 C10 1_555 1_555
O13 C12 1_555 1_555
O4 Eu1 1_555 1_555
N5 Eu1 1_555 1_555
N6 Eu1 1_555 1_555
N7 Eu1 1_555 1_555
O5 Eu1 1_555 1_555
H11 O5 1_555 1_555
O6 Eu1 1_555 1_555
C13 O6 1_555 1_555
H12 C13 1_555 1_555
H13 C13 1_555 1_555
H14 C13 1_555 1_555
H15 O7 1_555 1_555
H16 O7 1_555 1_555
H19 O9 1_555 1_555
H20 O9 1_555 1_555
H25 O12 1_555 1_555
H26 O12 1_555 1_555
W1 C14 1_555 1_555
C14 N5 1_555 1_555
C16 N7 1_555 1_555
C17 W1 1_555 1_555
N8 C17 1_555 1_555
C18 W1 1_555 1_555
N9 C18 1_555 1_555
C19 W1 1_555 1_555
N10 C19 1_555 1_555
C20 W1 1_555 1_555
N11 C20 1_555 1_555
C21 W1 1_555 1_555
N12 C21 1_555 1_555
W3 C16 1_555 1_555
C22 W1 1_555 1_555
C23 W1 1_555 1_555
C3 C4 1_555 1_555
C6 O2 1_555 1_555
C9 C10 1_555 1_555
C12 O4 1_555 1_555
O5 H27 1_555 1_555
C1_2 H1_2 1_555 1_555
C2_2 C1_2 1_555 1_555
N2_2 C2_2 1_555 1_555
C3_2 N2_2 1_555 1_555
C5_2 C2_2 1_555 1_555
H3_2 C5_2 1_555 1_555
H4_2 C5_2 1_555 1_555
H5_2 C5_2 1_555 1_555
W3 C14_2 1_555 1_555
C17_2 W3 1_555 1_555
N8_2 C17_2 1_555 1_555
C18_2 W3 1_555 1_555
N9_2 C18_2 1_555 1_555
C19_2 W3 1_555 1_555
N10_2 C19_2 1_555 1_555
C20_2 W3 1_555 1_555
N11_2 C20_2 1_555 1_555
C21_2 W3 1_555 1_555
N12_2 C21_2 1_555 1_555
C22_2 W3 1_555 1_555
Eu1_2 N1_2 1_555 1_555
C4_2 N1_2 1_555 1_555
C6_2 C4_2 1_555 1_555
O1_2 C6_2 1_555 1_555
O2_2 Eu1_2 1_555 1_555
N3_2 Eu1_2 1_555 1_555
C7_2 N3_2 1_555 1_555
H6_2 C7_2 1_555 1_555
C8_2 C7_2 1_555 1_555
N4_2 C8_2 1_555 1_555
C9_2 N4_2 1_555 1_555
H7_2 C9_2 1_555 1_555
C10_2 N3_2 1_555 1_555
C11_2 C8_2 1_555 1_555
H8_2 C11_2 1_555 1_555
H9_2 C11_2 1_555 1_555
H10_2 C11_2 1_555 1_555
C12_2 C10_2 1_555 1_555
O3 C12_2 1_555 1_555
O4_2 Eu1_2 1_555 1_555
N5_2 Eu1_2 1_555 1_555
N6_2 Eu1_2 1_555 1_555
N7_2 Eu1_2 1_555 1_555
O5_2 Eu1_2 1_555 1_555
H11_2 O5_2 1_555 1_555
O6_2 Eu1_2 1_555 1_555
C13_2 O6_2 1_555 1_555
H12_2 C13_2 1_555 1_555
H13_2 C13_2 1_555 1_555
H14_2 C13_2 1_555 1_555
H15_2 O7_2 1_555 1_555
H16_2 O7_2 1_555 1_555
H19_2 O9_2 1_555 1_555
H20_2 O9_2 1_555 1_555
H26_2 O12_2 1_555 1_555
C15_2 N6_2 1_555 1_555
C23 N7_2 1_555 1_555
Eu3 O3 1_555 1_555
W2_2 C15_2 1_555 1_555
C6_2 O2_2 1_555 1_555
C9_2 C10_2 1_555 1_555
C12_2 O4_2 1_555 1_555
O5_2 H27_2 1_555 1_555
O8_2 Eu3 1_555 1_555
H17_2 O8_2 1_555 1_555
H18_2 O8_2 1_555 1_555
O10_2 Eu3 1_555 1_555
H21_2 O10_2 1_555 1_555
H22_2 O10_2 1_555 1_555
O11_2 Eu3 1_555 1_555
H23_2 O11_2 1_555 1_555
H24_2 O11_2 1_555 1_555
Eu1_3 N1_3 1_555 1_555
N1_3 C1_3 1_555 1_555
C1_3 H1_3 1_555 1_555
C2_3 C1_3 1_555 1_555
N2_3 C2_3 1_555 1_555
C3_3 N2_3 1_555 1_555
C4_3 N1_3 1_555 1_555
C6_3 C4_3 1_555 1_555
O1_3 C6_3 1_555 1_555
O2_3 Eu1_3 1_555 1_555
N3_3 Eu1_3 1_555 1_555
C7_3 N3_3 1_555 1_555
H6_3 C7_3 1_555 1_555
C8_3 C7_3 1_555 1_555
N4_3 C8_3 1_555 1_555
C9_3 N4_3 1_555 1_555
H7_3 C9_3 1_555 1_555
C10_3 N3_3 1_555 1_555
C11_3 C8_3 1_555 1_555
H10_3 C11_3 1_555 1_555
C12_3 C10_3 1_555 1_555
O3_2 C12_3 1_555 1_555
O4_3 Eu1_3 1_555 1_555
N5_3 Eu1_3 1_555 1_555
N6_3 Eu1_3 1_555 1_555
N7_3 Eu1_3 1_555 1_555
O5_3 Eu1_3 1_555 1_555
H11_3 O5_3 1_555 1_555
O6_3 Eu1_3 1_555 1_555
C13_3 O6_3 1_555 1_555
H12_3 C13_3 1_555 1_555
H13_3 C13_3 1_555 1_555
H14_3 C13_3 1_555 1_555
H15_3 O7_3 1_555 1_555
H16_3 O7_3 1_555 1_555
H19_3 O9_3 1_555 1_555
H20_3 O9_3 1_555 1_555
H25_3 O12_3 1_555 1_555
H26_3 O12_3 1_555 1_555
W2 C14_3 1_555 1_555
C14_3 N5_3 1_555 1_555
C16_2 N7_3 1_555 1_555
C17_3 W2 1_555 1_555
N8_3 C17_3 1_555 1_555
C18_3 W2 1_555 1_555
N9_3 C18_3 1_555 1_555
C19_3 W2 1_555 1_555
N10_3 C19_3 1_555 1_555
C20_3 W2 1_555 1_555
N11_3 C20_3 1_555 1_555
C21_3 W2 1_555 1_555
N12_3 C21_3 1_555 1_555
Eu3_2 O3_2 1_555 1_555
W2_2 C16_2 1_555 1_555
C23_2 W2 1_555 1_555
C3_3 C4_3 1_555 1_555
C6_3 O2_3 1_555 1_555
C9_3 C10_3 1_555 1_555
C12_3 O4_3 1_555 1_555
O5_3 H27_3 1_555 1_555
H3_3 C5_3 1_555 1_555
H4_3 C5_3 1_555 1_555
H5_3 C5_3 1_555 1_555
O8_3 Eu3_2 1_555 1_555
H17_3 O8_3 1_555 1_555
H18_3 O8_3 1_555 1_555
O10_3 Eu3_2 1_555 1_555
H21_3 O10_3 1_555 1_555
H22_3 O10_3 1_555 1_555
O11_3 Eu3_2 1_555 1_555
H23_3 O11_3 1_555 1_555
H24_3 O11_3 1_555 1_555
O8_4 Eu2_2 1_555 1_555
H17_4 O8_4 1_555 1_555
H18_4 O8_4 1_555 1_555
O10_4 Eu2_2 1_555 1_555
H21_4 O10_4 1_555 1_555
H22_4 O10_4 1_555 1_555
O11_4 Eu2_2 1_555 1_555
H23_4 O11_4 1_555 1_555
H24_4 O11_4 1_555 1_555
O13_2 Eu2_2 1_555 1_555
Eu1_4 N1_4 1_555 1_555
C4_4 N1_4 1_555 1_555
C6_4 C4_4 1_555 1_555
O1_4 C6_4 1_555 1_555
O2_4 Eu1_4 1_555 1_555
N3_4 Eu1_4 1_555 1_555
C7_4 N3_4 1_555 1_555
H6_4 C7_4 1_555 1_555
C8_4 C7_4 1_555 1_555
N4_4 C8_4 1_555 1_555
C9_4 N4_4 1_555 1_555
H7_4 C9_4 1_555 1_555
C10_4 N3_4 1_555 1_555
C11_4 C8_4 1_555 1_555
H8_4 C11_4 1_555 1_555
H9_4 C11_4 1_555 1_555
H10_4 C11_4 1_555 1_555
C12_4 C10_4 1_555 1_555
O13_2 C12_4 1_555 1_555
O4_4 Eu1_4 1_555 1_555
N5_4 Eu1_4 1_555 1_555
N6_4 Eu1_4 1_555 1_555
N7_4 Eu1_4 1_555 1_555
O5_4 Eu1_4 1_555 1_555
H11_4 O5_4 1_555 1_555
O6_4 Eu1_4 1_555 1_555
C13_4 O6_4 1_555 1_555
H12_4 C13_4 1_555 1_555
H13_4 C13_4 1_555 1_555
H14_4 C13_4 1_555 1_555
H15_4 O7_4 1_555 1_555
H16_4 O7_4 1_555 1_555
H19_4 O9_4 1_555 1_555
H20_4 O9_4 1_555 1_555
H26_4 O12_4 1_555 1_555
C22_2 N6_4 1_555 1_555
C23_2 N7_4 1_555 1_555
C6_4 O2_4 1_555 1_555
C9_4 C10_4 1_555 1_555
C12_4 O4_4 1_555 1_555
O5_4 H27_4 1_555 1_555
C1_4 H1_4 1_555 1_555
C2_4 C1_4 1_555 1_555
N2_4 C2_4 1_555 1_555
C3_4 N2_4 1_555 1_555
C5_4 C2_4 1_555 1_555
H3_4 C5_4 1_555 1_555
H4_4 C5_4 1_555 1_555
H5_4 C5_4 1_555 1_555
W2_2 C14_4 1_555 1_555
C17_4 W2_2 1_555 1_555
N8_4 C17_4 1_555 1_555
C18_4 W2_2 1_555 1_555
N9_4 C18_4 1_555 1_555
C19_4 W2_2 1_555 1_555
N10_4 C19_4 1_555 1_555
C20_4 W2_2 1_555 1_555
N11_4 C20_4 1_555 1_555
C21_4 W2_2 1_555 1_555
N12_4 C21_4 1_555 1_555

#END
