
###############################################################################
#
# This file contains modified crystal structure data generated from the
# MOF subset of the Cambridge Structural Database (CSD) v543 
# hosted by the Cambridge Crystallographic Data Centre (CCDC).
#
# This work is licensed under the Creative Commons
# Attribution-NonCommercial-ShareAlike 4.0 International License.
# To view a copy of this license, visit
# http://creativecommons.org/licenses/by-nc-sa/4.0/
# or send a letter to
# Creative Commons, PO Box 1866, Mountain View, CA 94042, USA.
#
# CIF created using the CSD Python API on 29 September 2022
# The structure has been converted into the P1 space group
# The structure has a 3D framework
# The original CSD entry NETTUE is in the cubic crystal system
# The original CSD entry NETTUE is in a Sohncke space group
# The framework has been calculated to contain at least 10.0% void space
# The void calculation uses a probe of radius 1.32A, grid spacing 0.4
# The framework is charged, counterions have been retained in the structure
# H atom positions have been added when not included in the experimental data
#
###############################################################################

data_NETTUE
_chemical_formula_moiety         '(C120 H120 In36 N48 O144 Zn8 12+)n'
_symmetry_cell_setting           triclinic
_symmetry_space_group_name_H-M   'P 1'
_symmetry_Int_Tables_number      1
_space_group_name_Hall           'P 1'
loop_
_symmetry_equiv_pos_site_id
_symmetry_equiv_pos_as_xyz
1 x,y,z
_cell_length_a                   25.0177(5)
_cell_length_b                   25.0177(5)
_cell_length_c                   25.0177(5)
_cell_angle_alpha                90
_cell_angle_beta                 90
_cell_angle_gamma                90
_cell_volume                     15658.2
loop_
_atom_site_label
_atom_site_type_symbol
_atom_site_fract_x
_atom_site_fract_y
_atom_site_fract_z
Zn1 Zn 0.1250 0.1250 0.1250
O1 O 0.0124(3) 0.1880(3) 0.0144(3)
C1 C 0.0987(2) 0.2221(2) 0.0164(2)
O2 O 0.06742(18) 0.1518(2) 0.0730(3)
C2 C 0.0572(2) 0.1839(3) 0.0383(3)
O4 O 0.2376(3) 0.2356(3) 0.0620(3)
C4 C 0.1513(2) 0.2336(2) 0.0279(2)
O5 O 0.18258(18) 0.1770(3) 0.0982(2)
C5 C 0.1928(2) 0.2117(3) 0.0661(3)
O6 O 0.0144(3) 0.0124(3) 0.1880(3)
C6 C 0.0164(2) 0.0987(2) 0.2221(2)
O7 O 0.0730(3) 0.06742(18) 0.1518(2)
C7 C 0.0383(3) 0.0572(2) 0.1839(3)
O9 O 0.0620(3) 0.2376(3) 0.2356(3)
C9 C 0.0279(2) 0.1513(2) 0.2336(2)
O10 O 0.0982(2) 0.18258(18) 0.1770(3)
C10 C 0.0661(3) 0.1928(2) 0.2117(3)
O11 O 0.1880(3) 0.0144(3) 0.0124(3)
C11 C 0.2221(2) 0.0164(2) 0.0987(2)
O12 O 0.1518(2) 0.0730(3) 0.06742(18)
C12 C 0.1839(3) 0.0383(3) 0.0572(2)
O13 O 0.2356(3) 0.0620(3) 0.2376(3)
C14 C 0.2336(2) 0.0279(2) 0.1513(2)
O14 O 0.1770(3) 0.0982(2) 0.18258(18)
C15 C 0.2117(3) 0.0661(3) 0.1928(2)
In3 In 0.0000 0.2500 0.29842(3)
O18 O 0.0590(3) 0.2553(3) 0.3584(3)
H9 H 0.0536 0.2820 0.3767
In5 In 0.2500 0.29842(3) 0.0000
In6 In 0.29842(3) 0.0000 0.2500
N7 N 0.0042(3) 0.33380(18) 0.2729(2)
H13 H 0.094837 0.257843 0.341527
In1 In 0.0000 0.2500 0.95158(3)
N1 N 0.08380(18) 0.2542(3) 0.9771(2)
O3 O 0.0053(3) 0.3090(3) 0.8916(3)
H1 H 0.0320 0.3036 0.8733
C3 C 0.1250 0.2844(3) 0.9656(3)
H2 H 0.1250 0.3106 0.9394
N2 N 0.16620(18) 0.2729(2) 0.9958(3)
In5_2 In 0.2500 0.29842(3) 1.0000
H14 H 0.00784349 0.344837 0.908473
N5 N 0.2542(3) 0.9771(2) 0.08380(18)
C13 C 0.2844(3) 0.9656(3) 0.1250
H5 H 0.3106 0.9394 0.1250
N6 N 0.2729(2) 0.9958(3) 0.16620(18)
In4 In 0.2500 0.95158(3) 0.0000
In6_2 In 0.29842(3) 1.0000 0.2500
O21 O 0.0144(3) 0.9876(3) 0.3120(3)
In4_2 In 0.2500 0.95158(3) 1.0000
In2 In 0.95158(3) 0.0000 0.2500
N3 N 0.9771(2) 0.08380(18) 0.2542(3)
O8 O 0.8916(3) 0.0053(3) 0.3090(3)
H3 H 0.8733 0.0320 0.3036
C8 C 0.9656(3) 0.1250 0.2844(3)
H4 H 0.9394 0.1250 0.3106
N4 N 0.9958(3) 0.16620(18) 0.2729(2)
In3_2 In 1.0000 0.2500 0.29842(3)
O15 O 0.9410(3) 0.2447(3) 0.3584(3)
H6 H 0.9464 0.2180 0.3767
O19 O 0.9380(3) 0.2624(3) 0.2356(3)
O20 O 0.9876(3) 0.3120(3) 0.0144(3)
H11 H 0.905163 0.242157 0.341527
H15 H 0.908473 0.00784349 0.344837
In1_2 In 1.0000 0.2500 0.95158(3)
O16 O 0.9947(3) 0.1910(3) 0.8916(3)
H7 H 0.9680 0.1964 0.8733
N8 N 0.91620(18) 0.2458(3) 0.9771(2)
H10 H 0.992157 0.155163 0.908473
In2_2 In 0.95158(3) 1.0000 0.2500
O17 O 0.8916(3) 0.9947(3) 0.1910(3)
H8 H 0.8733 0.9680 0.1964
N9 N 0.9771(2) 0.91620(18) 0.2458(3)
H12 H 0.908473 0.992157 0.155163
In2_3 In 0.54842(3) 0.0000 0.7500
N5_2 N 0.2458(3) 0.0229(2) 0.58380(18)
C13_2 C 0.2156(3) 0.0344(3) 0.6250
H5_2 H 0.1894 0.0606 0.6250
N6_2 N 0.2271(2) 0.0042(3) 0.66620(18)
O17_2 O 0.6084(3) 0.0053(3) 0.6910(3)
H8_2 H 0.6267 0.0320 0.6964
In4_3 In 0.2500 0.04842(3) 0.5000
In6_3 In 0.20158(3) 0.0000 0.7500
O21_2 O 0.4856(3) 0.0124(3) 0.8120(3)
N9_2 N 0.5229(2) 0.08380(18) 0.7458(3)
H12_2 H 0.591527 0.00784349 0.655163
In1_3 In 0.5000 0.7500 0.45158(3)
Zn1_2 Zn 0.3750 0.8750 0.6250
O1_2 O 0.4876(3) 0.8120(3) 0.5144(3)
N1_2 N 0.41620(18) 0.7458(3) 0.4771(2)
C1_2 C 0.4013(2) 0.7779(2) 0.5164(2)
O2_2 O 0.43258(18) 0.8482(2) 0.5730(3)
C2_2 C 0.4428(2) 0.8161(3) 0.5383(3)
O3_2 O 0.4947(3) 0.6910(3) 0.3916(3)
H1_2 H 0.4680 0.6964 0.3733
C3_2 C 0.3750 0.7156(3) 0.4656(3)
H2_2 H 0.3750 0.6894 0.4394
O4_2 O 0.2624(3) 0.7644(3) 0.5620(3)
N2_2 N 0.33380(18) 0.7271(2) 0.4958(3)
C4_2 C 0.3487(2) 0.7664(2) 0.5279(2)
O5_2 O 0.31742(18) 0.8230(3) 0.5982(2)
C5_2 C 0.3072(2) 0.7883(3) 0.5661(3)
In2_4 In 0.54842(3) 1.0000 0.7500
O6_2 O 0.4856(3) 0.9876(3) 0.6880(3)
N3_2 N 0.5229(2) 0.91620(18) 0.7542(3)
C6_2 C 0.4836(2) 0.9013(2) 0.7221(2)
O7_2 O 0.4270(3) 0.93258(18) 0.6518(2)
C7_2 C 0.4617(3) 0.9428(2) 0.6839(3)
O8_2 O 0.6084(3) 0.9947(3) 0.8090(3)
H3_2 H 0.6267 0.9680 0.8036
C8_2 C 0.5344(3) 0.8750 0.7844(3)
H4_2 H 0.5606 0.8750 0.8106
O9_2 O 0.4380(3) 0.7624(3) 0.7356(3)
N4_2 N 0.5042(3) 0.83380(18) 0.7729(2)
C9_2 C 0.4721(2) 0.8487(2) 0.7336(2)
O10_2 O 0.4018(2) 0.81742(18) 0.6770(3)
C10_2 C 0.4339(3) 0.8072(2) 0.7117(3)
O11_2 O 0.3120(3) 0.9856(3) 0.5124(3)
C11_2 C 0.2779(2) 0.9836(2) 0.5987(2)
O12_2 O 0.3482(2) 0.9270(3) 0.56742(18)
C12_2 C 0.3161(3) 0.9617(3) 0.5572(2)
O13_2 O 0.2644(3) 0.9380(3) 0.7376(3)
C14_2 C 0.2664(2) 0.9721(2) 0.6513(2)
O14_2 O 0.3230(3) 0.9018(2) 0.68258(18)
C15_2 C 0.2883(3) 0.9339(3) 0.6928(2)
In3_3 In 0.5000 0.7500 0.79842(3)
O15_2 O 0.5590(3) 0.7553(3) 0.8584(3)
H6_2 H 0.5536 0.7820 0.8767
O16_2 O 0.5053(3) 0.8090(3) 0.3916(3)
H7_2 H 0.5320 0.8036 0.3733
O18_2 O 0.4410(3) 0.7447(3) 0.8584(3)
H9_2 H 0.4464 0.7180 0.8767
In5_3 In 0.2500 0.70158(3) 0.5000
In6_4 In 0.20158(3) 1.0000 0.7500
O19_2 O 0.5620(3) 0.7376(3) 0.7356(3)
O20_2 O 0.5124(3) 0.6880(3) 0.5144(3)
N7_2 N 0.4958(3) 0.66620(18) 0.7729(2)
N8_2 N 0.58380(18) 0.7542(3) 0.4771(2)
H10_2 H 0.507843 0.844837 0.408473
H11_2 H 0.594837 0.757843 0.841527
H13_2 H 0.405163 0.742157 0.841527
H14_2 H 0.492157 0.655163 0.408473
H15_2 H 0.591527 0.992157 0.844837
In1_4 In -0.0000 0.7500 0.54842(3)
In2_5 In 0.04842(3) 0.5000 0.2500
N3_3 N 0.0229(2) 0.58380(18) 0.2458(3)
O8_3 O 0.1084(3) 0.5053(3) 0.1910(3)
H3_3 H 0.1267 0.5320 0.1964
C8_3 C 0.0344(3) 0.6250 0.2156(3)
H4_3 H 0.0606 0.6250 0.1894
N4_3 N 0.0042(3) 0.66620(18) 0.2271(2)
In3_4 In 0.0000 0.7500 0.20158(3)
O15_3 O 0.0590(3) 0.7447(3) 0.1416(3)
H6_3 H 0.0536 0.7180 0.1233
O16_3 O 0.0053(3) 0.6910(3) 0.6084(3)
H7_3 H 0.0320 0.6964 0.6267
O17_3 O 0.1084(3) 0.4947(3) 0.3090(3)
H8_3 H 0.1267 0.4680 0.3036
O19_3 O 0.0620(3) 0.7624(3) 0.2644(3)
O20_3 O 0.0124(3) 0.8120(3) 0.4856(3)
N8_3 N 0.08380(18) 0.7458(3) 0.5229(2)
N9_3 N 0.0229(2) 0.41620(18) 0.2542(3)
H10_3 H 0.00784349 0.655163 0.591527
H11_3 H 0.094837 0.742157 0.158473
H12_3 H 0.0915274 0.492157 0.344837
H15_3 H 0.0915274 0.507843 0.155163
In1_5 In 1.0000 0.7500 0.54842(3)
Zn1_3 Zn 0.8750 0.6250 0.3750
O1_3 O 0.9876(3) 0.6880(3) 0.4856(3)
N1_3 N 0.91620(18) 0.7542(3) 0.5229(2)
C1_3 C 0.9013(2) 0.7221(2) 0.4836(2)
O2_3 O 0.93258(18) 0.6518(2) 0.4270(3)
C2_3 C 0.9428(2) 0.6839(3) 0.4617(3)
O3_3 O 0.9947(3) 0.8090(3) 0.6084(3)
H1_3 H 0.9680 0.8036 0.6267
C3_3 C 0.8750 0.7844(3) 0.5344(3)
H2_3 H 0.8750 0.8106 0.5606
O4_3 O 0.7624(3) 0.7356(3) 0.4380(3)
N2_3 N 0.83380(18) 0.7729(2) 0.5042(3)
C4_3 C 0.8487(2) 0.7336(2) 0.4721(2)
O5_3 O 0.81742(18) 0.6770(3) 0.4018(2)
C5_3 C 0.8072(2) 0.7117(3) 0.4339(3)
O6_3 O 0.9856(3) 0.5124(3) 0.3120(3)
C6_3 C 0.9836(2) 0.5987(2) 0.2779(2)
O7_3 O 0.9270(3) 0.56742(18) 0.3482(2)
C7_3 C 0.9617(3) 0.5572(2) 0.3161(3)
O9_3 O 0.9380(3) 0.7376(3) 0.2644(3)
C9_3 C 0.9721(2) 0.6513(2) 0.2664(2)
O10_3 O 0.9018(2) 0.68258(18) 0.3230(3)
C10_3 C 0.9339(3) 0.6928(2) 0.2883(3)
O11_3 O 0.8120(3) 0.5144(3) 0.4876(3)
N5_3 N 0.7458(3) 0.4771(2) 0.41620(18)
C11_3 C 0.7779(2) 0.5164(2) 0.4013(2)
O12_3 O 0.8482(2) 0.5730(3) 0.43258(18)
C12_3 C 0.8161(3) 0.5383(3) 0.4428(2)
C13_3 C 0.7156(3) 0.4656(3) 0.3750
H5_3 H 0.6894 0.4394 0.3750
O13_3 O 0.7644(3) 0.5620(3) 0.2624(3)
N6_3 N 0.7271(2) 0.4958(3) 0.33380(18)
C14_3 C 0.7664(2) 0.5279(2) 0.3487(2)
O14_3 O 0.8230(3) 0.5982(2) 0.31742(18)
C15_3 C 0.7883(3) 0.5661(3) 0.3072(2)
In3_5 In 1.0000 0.7500 0.20158(3)
O18_3 O 0.9410(3) 0.7553(3) 0.1416(3)
H9_3 H 0.9464 0.7820 0.1233
In4_4 In 0.7500 0.45158(3) 0.5000
In5_4 In 0.7500 0.79842(3) 0.5000
In6_5 In 0.70158(3) 0.5000 0.2500
O21_3 O 0.9856(3) 0.4876(3) 0.1880(3)
N7_3 N 0.9958(3) 0.83380(18) 0.2271(2)
H13_3 H 0.905163 0.757843 0.158473
H14_3 H 0.992157 0.844837 0.591527
In1_6 In 0.5000 0.2500 0.04842(3)
N1_4 N 0.58380(18) 0.2458(3) 0.0229(2)
O3_4 O 0.5053(3) 0.1910(3) 0.1084(3)
H1_4 H 0.5320 0.1964 0.1267
C3_4 C 0.6250 0.2156(3) 0.0344(3)
H2_4 H 0.6250 0.1894 0.0606
N2_4 N 0.66620(18) 0.2271(2) 0.0042(3)
O16_4 O 0.4947(3) 0.3090(3) 0.1084(3)
H7_4 H 0.4680 0.3036 0.1267
In4_5 In 0.7500 0.54842(3) 0.0000
In5_5 In 0.7500 0.20158(3) 0.0000
N8_4 N 0.41620(18) 0.2542(3) 0.0229(2)
H10_4 H 0.492157 0.344837 0.0915274
H14_4 H 0.507843 0.155163 0.0915274
Zn1_4 Zn 0.6250 0.3750 0.8750
O1_4 O 0.5124(3) 0.3120(3) 0.9856(3)
C1_4 C 0.5987(2) 0.2779(2) 0.9836(2)
O2_4 O 0.56742(18) 0.3482(2) 0.9270(3)
C2_4 C 0.5572(2) 0.3161(3) 0.9617(3)
O4_4 O 0.7376(3) 0.2644(3) 0.9380(3)
C4_4 C 0.6513(2) 0.2664(2) 0.9721(2)
O5_4 O 0.68258(18) 0.3230(3) 0.9018(2)
C5_4 C 0.6928(2) 0.2883(3) 0.9339(3)
In2_6 In 0.45158(3) 0.5000 0.7500
O6_4 O 0.5144(3) 0.4876(3) 0.8120(3)
N3_4 N 0.4771(2) 0.41620(18) 0.7458(3)
C6_4 C 0.5164(2) 0.4013(2) 0.7779(2)
O7_4 O 0.5730(3) 0.43258(18) 0.8482(2)
C7_4 C 0.5383(3) 0.4428(2) 0.8161(3)
O8_4 O 0.3916(3) 0.4947(3) 0.6910(3)
H3_4 H 0.3733 0.4680 0.6964
C8_4 C 0.4656(3) 0.3750 0.7156(3)
H4_4 H 0.4394 0.3750 0.6894
O9_4 O 0.5620(3) 0.2624(3) 0.7644(3)
N4_4 N 0.4958(3) 0.33380(18) 0.7271(2)
C9_4 C 0.5279(2) 0.3487(2) 0.7664(2)
O10_4 O 0.5982(2) 0.31742(18) 0.8230(3)
C10_4 C 0.5661(3) 0.3072(2) 0.7883(3)
O11_4 O 0.6880(3) 0.4856(3) 0.9876(3)
N5_4 N 0.7542(3) 0.5229(2) 0.91620(18)
C11_4 C 0.7221(2) 0.4836(2) 0.9013(2)
O12_4 O 0.6518(2) 0.4270(3) 0.93258(18)
C12_4 C 0.6839(3) 0.4617(3) 0.9428(2)
C13_4 C 0.7844(3) 0.5344(3) 0.8750
H5_4 H 0.8106 0.5606 0.8750
O13_4 O 0.7356(3) 0.4380(3) 0.7624(3)
N6_4 N 0.7729(2) 0.5042(3) 0.83380(18)
C14_4 C 0.7336(2) 0.4721(2) 0.8487(2)
O14_4 O 0.6770(3) 0.4018(2) 0.81742(18)
C15_4 C 0.7117(3) 0.4339(3) 0.8072(2)
In3_6 In 0.5000 0.2500 0.70158(3)
O15_4 O 0.4410(3) 0.2553(3) 0.6416(3)
H6_4 H 0.4464 0.2820 0.6233
O17_4 O 0.3916(3) 0.5053(3) 0.8090(3)
H8_4 H 0.3733 0.5320 0.8036
O18_4 O 0.5590(3) 0.2447(3) 0.6416(3)
H9_4 H 0.5536 0.2180 0.6233
In4_6 In 0.7500 0.54842(3) 1.0000
In5_6 In 0.7500 0.20158(3) 1.0000
In6_6 In 0.79842(3) 0.5000 0.7500
O19_4 O 0.4380(3) 0.2376(3) 0.7644(3)
O20_4 O 0.4876(3) 0.1880(3) 0.9856(3)
O21_4 O 0.5144(3) 0.5124(3) 0.6880(3)
N7_4 N 0.5042(3) 0.16620(18) 0.7271(2)
N9_4 N 0.4771(2) 0.58380(18) 0.7542(3)
H11_4 H 0.405163 0.257843 0.658473
H12_4 H 0.408473 0.507843 0.844837
H13_4 H 0.594837 0.242157 0.658473
H15_4 H 0.408473 0.492157 0.655163
O18_5 O 0.3584(3) 0.0590(3) 0.2553(3)
H9_5 H 0.3767 0.0536 0.2820
N7_5 N 0.2729(2) 0.0042(3) 0.33380(18)
H13_5 H 0.341527 0.094837 0.257843
O21_5 O 0.3120(3) 0.0144(3) 0.9876(3)
O8_5 O 0.3090(3) 0.8916(3) 0.0053(3)
H3_5 H 0.3036 0.8733 0.0320
O15_5 O 0.3584(3) 0.9410(3) 0.2447(3)
H6_5 H 0.3767 0.9464 0.2180
O19_5 O 0.2356(3) 0.9380(3) 0.2624(3)
H11_5 H 0.341527 0.905163 0.242157
H15_5 H 0.344837 0.908473 0.00784349
O17_5 O 0.1910(3) 0.8916(3) 0.9947(3)
H8_5 H 0.1964 0.8733 0.9680
N9_5 N 0.2458(3) 0.9771(2) 0.91620(18)
H12_5 H 0.155163 0.908473 0.992157
O17_6 O 0.6910(3) 0.6084(3) 0.0053(3)
H8_6 H 0.6964 0.6267 0.0320
O21_6 O 0.8120(3) 0.4856(3) 0.0124(3)
N9_6 N 0.7458(3) 0.5229(2) 0.08380(18)
H12_6 H 0.655163 0.591527 0.00784349
O8_6 O 0.8090(3) 0.6084(3) 0.9947(3)
H3_6 H 0.8036 0.6267 0.9680
O15_6 O 0.8584(3) 0.5590(3) 0.7553(3)
H6_6 H 0.8767 0.5536 0.7820
O18_6 O 0.8584(3) 0.4410(3) 0.7447(3)
H9_6 H 0.8767 0.4464 0.7180
O19_6 O 0.7356(3) 0.5620(3) 0.7376(3)
N7_6 N 0.7729(2) 0.4958(3) 0.66620(18)
H11_6 H 0.841527 0.594837 0.757843
H13_6 H 0.841527 0.405163 0.742157
H15_6 H 0.844837 0.591527 0.992157
O8_7 O 0.1910(3) 0.1084(3) 0.5053(3)
H3_7 H 0.1964 0.1267 0.5320
O15_7 O 0.1416(3) 0.0590(3) 0.7447(3)
H6_7 H 0.1233 0.0536 0.7180
O17_7 O 0.3090(3) 0.1084(3) 0.4947(3)
H8_7 H 0.3036 0.1267 0.4680
O19_7 O 0.2644(3) 0.0620(3) 0.7624(3)
N9_7 N 0.2542(3) 0.0229(2) 0.41620(18)
H11_7 H 0.158473 0.094837 0.742157
H12_7 H 0.344837 0.0915274 0.492157
H15_7 H 0.155163 0.0915274 0.507843
O18_7 O 0.1416(3) 0.9410(3) 0.7553(3)
H9_7 H 0.1233 0.9464 0.7820
O21_7 O 0.1880(3) 0.9856(3) 0.4876(3)
N7_7 N 0.2271(2) 0.9958(3) 0.83380(18)
H13_7 H 0.158473 0.905163 0.757843
O8_8 O 0.6910(3) 0.3916(3) 0.4947(3)
H3_8 H 0.6964 0.3733 0.4680
O15_8 O 0.6416(3) 0.4410(3) 0.2553(3)
H6_8 H 0.6233 0.4464 0.2820
O17_8 O 0.8090(3) 0.3916(3) 0.5053(3)
H8_8 H 0.8036 0.3733 0.5320
O18_8 O 0.6416(3) 0.5590(3) 0.2447(3)
H9_8 H 0.6233 0.5536 0.2180
O19_8 O 0.7644(3) 0.4380(3) 0.2376(3)
O21_8 O 0.6880(3) 0.5144(3) 0.5124(3)
N7_8 N 0.7271(2) 0.5042(3) 0.16620(18)
N9_8 N 0.7542(3) 0.4771(2) 0.58380(18)
H11_8 H 0.658473 0.405163 0.257843
H12_8 H 0.844837 0.408473 0.507843
H13_8 H 0.658473 0.594837 0.242157
H15_8 H 0.655163 0.408473 0.492157
O18_9 O 0.2553(3) 0.3584(3) 0.0590(3)
H9_9 H 0.2820 0.3767 0.0536
N7_9 N 0.33380(18) 0.2729(2) 0.0042(3)
H13_9 H 0.257843 0.341527 0.094837
O15_9 O 0.2447(3) 0.3584(3) 0.9410(3)
H6_9 H 0.2180 0.3767 0.9464
O19_9 O 0.2624(3) 0.2356(3) 0.9380(3)
H11_9 H 0.242157 0.341527 0.905163
O15_10 O 0.7553(3) 0.8584(3) 0.5590(3)
H6_10 H 0.7820 0.8767 0.5536
O18_10 O 0.7447(3) 0.8584(3) 0.4410(3)
H9_10 H 0.7180 0.8767 0.4464
O19_10 O 0.7376(3) 0.7356(3) 0.5620(3)
N7_10 N 0.66620(18) 0.7729(2) 0.4958(3)
H11_10 H 0.757843 0.841527 0.594837
H13_10 H 0.742157 0.841527 0.405163
O15_11 O 0.7447(3) 0.1416(3) 0.0590(3)
H6_11 H 0.7180 0.1233 0.0536
O19_11 O 0.7624(3) 0.2644(3) 0.0620(3)
H11_11 H 0.742157 0.158473 0.094837
O18_11 O 0.7553(3) 0.1416(3) 0.9410(3)
H9_11 H 0.7820 0.1233 0.9464
N7_11 N 0.83380(18) 0.2271(2) 0.9958(3)
H13_11 H 0.757843 0.158473 0.905163
O15_12 O 0.2553(3) 0.6416(3) 0.4410(3)
H6_12 H 0.2820 0.6233 0.4464
O18_12 O 0.2447(3) 0.6416(3) 0.5590(3)
H9_12 H 0.2180 0.6233 0.5536
O19_12 O 0.2376(3) 0.7644(3) 0.4380(3)
N7_12 N 0.16620(18) 0.7271(2) 0.5042(3)
H11_12 H 0.257843 0.658473 0.405163
H13_12 H 0.242157 0.658473 0.594837
C3_5 C 0.0344(3) 0.3750 0.2844(3)
H2_5 H 0.0606 0.3750 0.3106
Zn1_5 Zn 0.8750 0.3750 0.1250
C1_5 C 0.9721(2) 0.3487(2) 0.2336(2)
O2_5 O 0.9018(2) 0.31742(18) 0.1770(3)
C2_5 C 0.9339(3) 0.3072(2) 0.2117(3)
C4_5 C 0.9836(2) 0.4013(2) 0.2221(2)
O5_5 O 0.9270(3) 0.43258(18) 0.1518(2)
C5_5 C 0.9617(3) 0.4428(2) 0.1839(3)
C6_5 C 0.8487(2) 0.2664(2) 0.0279(2)
O7_5 O 0.81742(18) 0.3230(3) 0.0982(2)
C7_5 C 0.8072(2) 0.2883(3) 0.0661(3)
C9_5 C 0.9013(2) 0.2779(2) 0.0164(2)
O10_5 O 0.93258(18) 0.3482(2) 0.0730(3)
C10_5 C 0.9428(2) 0.3161(3) 0.0383(3)
C11_5 C 0.7664(2) 0.4721(2) 0.1513(2)
O12_5 O 0.8230(3) 0.4018(2) 0.18258(18)
C12_5 C 0.7883(3) 0.4339(3) 0.1928(2)
C13_5 C 0.7156(3) 0.5344(3) 0.1250
H5_5 H 0.6894 0.5606 0.1250
C14_5 C 0.7779(2) 0.4836(2) 0.0987(2)
O14_5 O 0.8482(2) 0.4270(3) 0.06742(18)
C15_5 C 0.8161(3) 0.4617(3) 0.0572(2)
C8_5 C 0.8750 0.2156(3) 0.9656(3)
H4_5 H 0.8750 0.1894 0.9394
Zn1_6 Zn 0.6250 0.6250 0.6250
C1_6 C 0.5279(2) 0.6513(2) 0.7336(2)
O2_6 O 0.5982(2) 0.68258(18) 0.6770(3)
C2_6 C 0.5661(3) 0.6928(2) 0.7117(3)
C3_6 C 0.4656(3) 0.6250 0.7844(3)
H2_6 H 0.4394 0.6250 0.8106
C4_6 C 0.5164(2) 0.5987(2) 0.7221(2)
O5_6 O 0.5730(3) 0.56742(18) 0.6518(2)
C5_6 C 0.5383(3) 0.5572(2) 0.6839(3)
C6_6 C 0.6513(2) 0.7336(2) 0.5279(2)
O7_6 O 0.68258(18) 0.6770(3) 0.5982(2)
C7_6 C 0.6928(2) 0.7117(3) 0.5661(3)
C8_6 C 0.6250 0.7844(3) 0.4656(3)
H4_6 H 0.6250 0.8106 0.4394
C9_6 C 0.5987(2) 0.7221(2) 0.5164(2)
O10_6 O 0.56742(18) 0.6518(2) 0.5730(3)
C10_6 C 0.5572(2) 0.6839(3) 0.5383(3)
C11_6 C 0.7336(2) 0.5279(2) 0.6513(2)
O12_6 O 0.6770(3) 0.5982(2) 0.68258(18)
C12_6 C 0.7117(3) 0.5661(3) 0.6928(2)
C13_6 C 0.7844(3) 0.4656(3) 0.6250
H5_6 H 0.8106 0.4394 0.6250
C14_6 C 0.7221(2) 0.5164(2) 0.5987(2)
O14_6 O 0.6518(2) 0.5730(3) 0.56742(18)
C15_6 C 0.6839(3) 0.5383(3) 0.5572(2)
C8_7 C 0.3750 0.2844(3) 0.0344(3)
H4_7 H 0.3750 0.3106 0.0606
Zn1_7 Zn 0.3750 0.1250 0.8750
C1_7 C 0.4721(2) 0.1513(2) 0.7664(2)
O2_7 O 0.4018(2) 0.18258(18) 0.8230(3)
C2_7 C 0.4339(3) 0.1928(2) 0.7883(3)
C3_7 C 0.5344(3) 0.1250 0.7156(3)
H2_7 H 0.5606 0.1250 0.6894
C4_7 C 0.4836(2) 0.0987(2) 0.7779(2)
O5_7 O 0.4270(3) 0.06742(18) 0.8482(2)
C5_7 C 0.4617(3) 0.0572(2) 0.8161(3)
C6_7 C 0.3487(2) 0.2336(2) 0.9721(2)
O7_7 O 0.31742(18) 0.1770(3) 0.9018(2)
C7_7 C 0.3072(2) 0.2117(3) 0.9339(3)
C9_7 C 0.4013(2) 0.2221(2) 0.9836(2)
O10_7 O 0.43258(18) 0.1518(2) 0.9270(3)
C10_7 C 0.4428(2) 0.1839(3) 0.9617(3)
C11_7 C 0.2664(2) 0.0279(2) 0.8487(2)
O12_7 O 0.3230(3) 0.0982(2) 0.81742(18)
C12_7 C 0.2883(3) 0.0661(3) 0.8072(2)
C14_7 C 0.2779(2) 0.0164(2) 0.9013(2)
O14_7 O 0.3482(2) 0.0730(3) 0.93258(18)
C15_7 C 0.3161(3) 0.0383(3) 0.9428(2)
C13_7 C 0.2156(3) 0.9656(3) 0.8750
H5_7 H 0.1894 0.9394 0.8750
C13_8 C 0.2844(3) 0.0344(3) 0.3750
H5_8 H 0.3106 0.0606 0.3750
Zn1_8 Zn 0.1250 0.8750 0.3750
C1_8 C 0.0279(2) 0.8487(2) 0.2664(2)
O2_8 O 0.0982(2) 0.81742(18) 0.3230(3)
C2_8 C 0.0661(3) 0.8072(2) 0.2883(3)
C4_8 C 0.0164(2) 0.9013(2) 0.2779(2)
O5_8 O 0.0730(3) 0.93258(18) 0.3482(2)
C5_8 C 0.0383(3) 0.9428(2) 0.3161(3)
C6_8 C 0.1513(2) 0.7664(2) 0.4721(2)
O7_8 O 0.18258(18) 0.8230(3) 0.4018(2)
C7_8 C 0.1928(2) 0.7883(3) 0.4339(3)
C8_8 C 0.1250 0.7156(3) 0.5344(3)
H4_8 H 0.1250 0.6894 0.5606
C9_8 C 0.0987(2) 0.7779(2) 0.4836(2)
O10_8 O 0.06742(18) 0.8482(2) 0.4270(3)
C10_8 C 0.0572(2) 0.8161(3) 0.4617(3)
C11_8 C 0.2336(2) 0.9721(2) 0.3487(2)
O12_8 O 0.1770(3) 0.9018(2) 0.31742(18)
C12_8 C 0.2117(3) 0.9339(3) 0.3072(2)
C14_8 C 0.2221(2) 0.9836(2) 0.4013(2)
O14_8 O 0.1518(2) 0.9270(3) 0.43258(18)
C15_8 C 0.1839(3) 0.9617(3) 0.4428(2)
C3_8 C 0.9656(3) 0.8750 0.2156(3)
H2_8 H 0.9394 0.8750 0.1894
loop_
_geom_bond_atom_site_label_1
_geom_bond_atom_site_label_2
_geom_bond_site_symmetry_1
_geom_bond_site_symmetry_2
Zn1 O2 1_555 1_555
O1 C2 1_555 1_555
O2 C2 1_555 1_555
C2 C1 1_555 1_555
O4 C5 1_555 1_555
C4 C1 1_555 1_555
O5 Zn1 1_555 1_555
C5 C4 1_555 1_555
O6 C7 1_555 1_555
O7 Zn1 1_555 1_555
C7 C6 1_555 1_555
O9 C10 1_555 1_555
C9 C6 1_555 1_555
O10 Zn1 1_555 1_555
C10 C9 1_555 1_555
O11 C12 1_555 1_555
C11 C12 1_555 1_555
O12 Zn1 1_555 1_555
C12 O12 1_555 1_555
O13 C15 1_555 1_555
C14 C11 1_555 1_555
O14 Zn1 1_555 1_555
C15 C14 1_555 1_555
In3 O9 1_555 1_555
O18 In3 1_555 1_555
H9 O18 1_555 1_555
In5 O4 1_555 1_555
In6 O13 1_555 1_555
N7 In3 1_555 1_555
O5 C5 1_555 1_555
O7 C7 1_555 1_555
O10 C10 1_555 1_555
O14 C15 1_555 1_555
O18 H13 1_555 1_555
N1 In1 1_555 1_555
O3 In1 1_555 1_555
H1 O3 1_555 1_555
C3 N1 1_555 1_555
H2 C3 1_555 1_555
N2 C3 1_555 1_555
N2 In5_2 1_555 1_555
O3 H14 1_555 1_555
C13 N5 1_555 1_555
H5 C13 1_555 1_555
N6 C13 1_555 1_555
N5 In4 1_555 1_555
N6 In6_2 1_555 1_555
N3 In2 1_555 1_555
O8 In2 1_555 1_555
H3 O8 1_555 1_555
C8 N3 1_555 1_555
H4 C8 1_555 1_555
N4 C8 1_555 1_555
O15 In3_2 1_555 1_555
H6 O15 1_555 1_555
O19 In3_2 1_555 1_555
N4 In3_2 1_555 1_555
O15 H11 1_555 1_555
O8 H15 1_555 1_555
O16 In1_2 1_555 1_555
H7 O16 1_555 1_555
N8 In1_2 1_555 1_555
O16 H10 1_555 1_555
O17 In2_2 1_555 1_555
H8 O17 1_555 1_555
N9 In2_2 1_555 1_555
O17 H12 1_555 1_555
C13_2 N5_2 1_555 1_555
H5_2 C13_2 1_555 1_555
N6_2 C13_2 1_555 1_555
O17_2 In2_3 1_555 1_555
H8_2 O17_2 1_555 1_555
O21_2 In2_3 1_555 1_555
N9_2 In2_3 1_555 1_555
N5_2 In4_3 1_555 1_555
N6_2 In6_3 1_555 1_555
O17_2 H12_2 1_555 1_555
In1_3 O1_2 1_555 1_555
Zn1_2 O2_2 1_555 1_555
O1_2 C2_2 1_555 1_555
N1_2 In1_3 1_555 1_555
C1_2 N1_2 1_555 1_555
O2_2 C2_2 1_555 1_555
C2_2 C1_2 1_555 1_555
O3_2 In1_3 1_555 1_555
H1_2 O3_2 1_555 1_555
C3_2 N1_2 1_555 1_555
H2_2 C3_2 1_555 1_555
O4_2 C5_2 1_555 1_555
N2_2 C3_2 1_555 1_555
C4_2 C1_2 1_555 1_555
O5_2 Zn1_2 1_555 1_555
C5_2 C4_2 1_555 1_555
In2_4 O6_2 1_555 1_555
O6_2 C7_2 1_555 1_555
N3_2 In2_4 1_555 1_555
C6_2 N3_2 1_555 1_555
O7_2 Zn1_2 1_555 1_555
C7_2 C6_2 1_555 1_555
O8_2 In2_4 1_555 1_555
H3_2 O8_2 1_555 1_555
C8_2 N3_2 1_555 1_555
H4_2 C8_2 1_555 1_555
O9_2 C10_2 1_555 1_555
N4_2 C8_2 1_555 1_555
C9_2 C6_2 1_555 1_555
O10_2 Zn1_2 1_555 1_555
C10_2 C9_2 1_555 1_555
O11_2 C12_2 1_555 1_555
C11_2 C12_2 1_555 1_555
O12_2 Zn1_2 1_555 1_555
C12_2 O12_2 1_555 1_555
O13_2 C15_2 1_555 1_555
C14_2 C11_2 1_555 1_555
O14_2 Zn1_2 1_555 1_555
C15_2 C14_2 1_555 1_555
In3_3 O9_2 1_555 1_555
O15_2 In3_3 1_555 1_555
H6_2 O15_2 1_555 1_555
O16_2 In1_3 1_555 1_555
H7_2 O16_2 1_555 1_555
O18_2 In3_3 1_555 1_555
H9_2 O18_2 1_555 1_555
In5_3 O4_2 1_555 1_555
In6_4 O13_2 1_555 1_555
O19_2 In3_3 1_555 1_555
O20_2 In1_3 1_555 1_555
N7_2 In3_3 1_555 1_555
N8_2 In1_3 1_555 1_555
N2_2 C4_2 1_555 1_555
N2_2 In5_3 1_555 1_555
O5_2 C5_2 1_555 1_555
O7_2 C7_2 1_555 1_555
N4_2 C9_2 1_555 1_555
N4_2 In3_3 1_555 1_555
O10_2 C10_2 1_555 1_555
O14_2 C15_2 1_555 1_555
O16_2 H10_2 1_555 1_555
O15_2 H11_2 1_555 1_555
O18_2 H13_2 1_555 1_555
O3_2 H14_2 1_555 1_555
O8_2 H15_2 1_555 1_555
N3_3 In2_5 1_555 1_555
O8_3 In2_5 1_555 1_555
H3_3 O8_3 1_555 1_555
C8_3 N3_3 1_555 1_555
H4_3 C8_3 1_555 1_555
N4_3 C8_3 1_555 1_555
O15_3 In3_4 1_555 1_555
H6_3 O15_3 1_555 1_555
O16_3 In1_4 1_555 1_555
H7_3 O16_3 1_555 1_555
O17_3 In2_5 1_555 1_555
H8_3 O17_3 1_555 1_555
O19_3 In3_4 1_555 1_555
O20_3 In1_4 1_555 1_555
N8_3 In1_4 1_555 1_555
N9_3 In2_5 1_555 1_555
N4_3 In3_4 1_555 1_555
O16_3 H10_3 1_555 1_555
O15_3 H11_3 1_555 1_555
O17_3 H12_3 1_555 1_555
O8_3 H15_3 1_555 1_555
In1_5 O1_3 1_555 1_555
Zn1_3 O2_3 1_555 1_555
O1_3 C2_3 1_555 1_555
N1_3 In1_5 1_555 1_555
C1_3 N1_3 1_555 1_555
O2_3 C2_3 1_555 1_555
C2_3 C1_3 1_555 1_555
O3_3 In1_5 1_555 1_555
H1_3 O3_3 1_555 1_555
C3_3 N1_3 1_555 1_555
H2_3 C3_3 1_555 1_555
O4_3 C5_3 1_555 1_555
N2_3 C3_3 1_555 1_555
C4_3 C1_3 1_555 1_555
O5_3 Zn1_3 1_555 1_555
C5_3 C4_3 1_555 1_555
O6_3 C7_3 1_555 1_555
O7_3 Zn1_3 1_555 1_555
C7_3 C6_3 1_555 1_555
O9_3 C10_3 1_555 1_555
C9_3 C6_3 1_555 1_555
O10_3 Zn1_3 1_555 1_555
C10_3 C9_3 1_555 1_555
O11_3 C12_3 1_555 1_555
N5_3 C11_3 1_555 1_555
C11_3 C12_3 1_555 1_555
O12_3 Zn1_3 1_555 1_555
C12_3 O12_3 1_555 1_555
C13_3 N5_3 1_555 1_555
H5_3 C13_3 1_555 1_555
O13_3 C15_3 1_555 1_555
N6_3 C13_3 1_555 1_555
C14_3 C11_3 1_555 1_555
O14_3 Zn1_3 1_555 1_555
C15_3 C14_3 1_555 1_555
In3_5 O9_3 1_555 1_555
O18_3 In3_5 1_555 1_555
H9_3 O18_3 1_555 1_555
In4_4 O11_3 1_555 1_555
In5_4 O4_3 1_555 1_555
In6_5 O13_3 1_555 1_555
N7_3 In3_5 1_555 1_555
N2_3 C4_3 1_555 1_555
N2_3 In5_4 1_555 1_555
O5_3 C5_3 1_555 1_555
O7_3 C7_3 1_555 1_555
O10_3 C10_3 1_555 1_555
N5_3 In4_4 1_555 1_555
N6_3 C14_3 1_555 1_555
N6_3 In6_5 1_555 1_555
O14_3 C15_3 1_555 1_555
O18_3 H13_3 1_555 1_555
O3_3 H14_3 1_555 1_555
N1_4 In1_6 1_555 1_555
O3_4 In1_6 1_555 1_555
H1_4 O3_4 1_555 1_555
C3_4 N1_4 1_555 1_555
H2_4 C3_4 1_555 1_555
N2_4 C3_4 1_555 1_555
O16_4 In1_6 1_555 1_555
H7_4 O16_4 1_555 1_555
N8_4 In1_6 1_555 1_555
N2_4 In5_5 1_555 1_555
O16_4 H10_4 1_555 1_555
O3_4 H14_4 1_555 1_555
Zn1_4 O2_4 1_555 1_555
O1_4 C2_4 1_555 1_555
O2_4 C2_4 1_555 1_555
C2_4 C1_4 1_555 1_555
O4_4 C5_4 1_555 1_555
C4_4 C1_4 1_555 1_555
O5_4 Zn1_4 1_555 1_555
C5_4 C4_4 1_555 1_555
In2_6 O6_4 1_555 1_555
O6_4 C7_4 1_555 1_555
N3_4 In2_6 1_555 1_555
C6_4 N3_4 1_555 1_555
O7_4 Zn1_4 1_555 1_555
C7_4 C6_4 1_555 1_555
O8_4 In2_6 1_555 1_555
H3_4 O8_4 1_555 1_555
C8_4 N3_4 1_555 1_555
H4_4 C8_4 1_555 1_555
O9_4 C10_4 1_555 1_555
N4_4 C8_4 1_555 1_555
C9_4 C6_4 1_555 1_555
O10_4 Zn1_4 1_555 1_555
C10_4 C9_4 1_555 1_555
O11_4 C12_4 1_555 1_555
N5_4 C11_4 1_555 1_555
C11_4 C12_4 1_555 1_555
O12_4 Zn1_4 1_555 1_555
C12_4 O12_4 1_555 1_555
C13_4 N5_4 1_555 1_555
H5_4 C13_4 1_555 1_555
O13_4 C15_4 1_555 1_555
N6_4 C13_4 1_555 1_555
C14_4 C11_4 1_555 1_555
O14_4 Zn1_4 1_555 1_555
C15_4 C14_4 1_555 1_555
In3_6 O9_4 1_555 1_555
O15_4 In3_6 1_555 1_555
H6_4 O15_4 1_555 1_555
O17_4 In2_6 1_555 1_555
H8_4 O17_4 1_555 1_555
O18_4 In3_6 1_555 1_555
H9_4 O18_4 1_555 1_555
In4_6 O11_4 1_555 1_555
In5_6 O4_4 1_555 1_555
In6_6 O13_4 1_555 1_555
O19_4 In3_6 1_555 1_555
O21_4 In2_6 1_555 1_555
N7_4 In3_6 1_555 1_555
N9_4 In2_6 1_555 1_555
O5_4 C5_4 1_555 1_555
O7_4 C7_4 1_555 1_555
N4_4 C9_4 1_555 1_555
N4_4 In3_6 1_555 1_555
O10_4 C10_4 1_555 1_555
N5_4 In4_6 1_555 1_555
N6_4 C14_4 1_555 1_555
N6_4 In6_6 1_555 1_555
O14_4 C15_4 1_555 1_555
O15_4 H11_4 1_555 1_555
O17_4 H12_4 1_555 1_555
O18_4 H13_4 1_555 1_555
O8_4 H15_4 1_555 1_555
O18_5 In6 1_555 1_555
H9_5 O18_5 1_555 1_555
N7_5 In6 1_555 1_555
O18_5 H13_5 1_555 1_555
O8_5 In4 1_555 1_555
H3_5 O8_5 1_555 1_555
O15_5 In6_2 1_555 1_555
H6_5 O15_5 1_555 1_555
O19_5 In6_2 1_555 1_555
O15_5 H11_5 1_555 1_555
O8_5 H15_5 1_555 1_555
O17_5 In4_2 1_555 1_555
H8_5 O17_5 1_555 1_555
N9_5 In4_2 1_555 1_555
O17_5 H12_5 1_555 1_555
O17_6 In4_5 1_555 1_555
H8_6 O17_6 1_555 1_555
O21_6 In4_5 1_555 1_555
N9_6 In4_5 1_555 1_555
O17_6 H12_6 1_555 1_555
O8_6 In4_6 1_555 1_555
H3_6 O8_6 1_555 1_555
O15_6 In6_6 1_555 1_555
H6_6 O15_6 1_555 1_555
O18_6 In6_6 1_555 1_555
H9_6 O18_6 1_555 1_555
O19_6 In6_6 1_555 1_555
N7_6 In6_6 1_555 1_555
O15_6 H11_6 1_555 1_555
O18_6 H13_6 1_555 1_555
O8_6 H15_6 1_555 1_555
O8_7 In4_3 1_555 1_555
H3_7 O8_7 1_555 1_555
O15_7 In6_3 1_555 1_555
H6_7 O15_7 1_555 1_555
O17_7 In4_3 1_555 1_555
H8_7 O17_7 1_555 1_555
O19_7 In6_3 1_555 1_555
N9_7 In4_3 1_555 1_555
O15_7 H11_7 1_555 1_555
O17_7 H12_7 1_555 1_555
O8_7 H15_7 1_555 1_555
O18_7 In6_4 1_555 1_555
H9_7 O18_7 1_555 1_555
N7_7 In6_4 1_555 1_555
O18_7 H13_7 1_555 1_555
O8_8 In4_4 1_555 1_555
H3_8 O8_8 1_555 1_555
O15_8 In6_5 1_555 1_555
H6_8 O15_8 1_555 1_555
O17_8 In4_4 1_555 1_555
H8_8 O17_8 1_555 1_555
O18_8 In6_5 1_555 1_555
H9_8 O18_8 1_555 1_555
O19_8 In6_5 1_555 1_555
O21_8 In4_4 1_555 1_555
N7_8 In6_5 1_555 1_555
N9_8 In4_4 1_555 1_555
O15_8 H11_8 1_555 1_555
O17_8 H12_8 1_555 1_555
O18_8 H13_8 1_555 1_555
O8_8 H15_8 1_555 1_555
O18_9 In5 1_555 1_555
H9_9 O18_9 1_555 1_555
N7_9 In5 1_555 1_555
O18_9 H13_9 1_555 1_555
O15_9 In5_2 1_555 1_555
H6_9 O15_9 1_555 1_555
O19_9 In5_2 1_555 1_555
O15_9 H11_9 1_555 1_555
O15_10 In5_4 1_555 1_555
H6_10 O15_10 1_555 1_555
O18_10 In5_4 1_555 1_555
H9_10 O18_10 1_555 1_555
O19_10 In5_4 1_555 1_555
N7_10 In5_4 1_555 1_555
O15_10 H11_10 1_555 1_555
O18_10 H13_10 1_555 1_555
O15_11 In5_5 1_555 1_555
H6_11 O15_11 1_555 1_555
O19_11 In5_5 1_555 1_555
O15_11 H11_11 1_555 1_555
O18_11 In5_6 1_555 1_555
H9_11 O18_11 1_555 1_555
N7_11 In5_6 1_555 1_555
O18_11 H13_11 1_555 1_555
O15_12 In5_3 1_555 1_555
H6_12 O15_12 1_555 1_555
O18_12 In5_3 1_555 1_555
H9_12 O18_12 1_555 1_555
O19_12 In5_3 1_555 1_555
N7_12 In5_3 1_555 1_555
O15_12 H11_12 1_555 1_555
O18_12 H13_12 1_555 1_555
C3_5 N7 1_555 1_555
H2_5 C3_5 1_555 1_555
N9_3 C3_5 1_555 1_555
Zn1_5 O2_5 1_555 1_555
O19 C2_5 1_555 1_555
O2_5 C2_5 1_555 1_555
C2_5 C1_5 1_555 1_555
O21_3 C5_5 1_555 1_555
C4_5 C1_5 1_555 1_555
O5_5 Zn1_5 1_555 1_555
C5_5 C4_5 1_555 1_555
O19_11 C7_5 1_555 1_555
O7_5 Zn1_5 1_555 1_555
C7_5 C6_5 1_555 1_555
O20 C10_5 1_555 1_555
C9_5 C6_5 1_555 1_555
O10_5 Zn1_5 1_555 1_555
C10_5 C9_5 1_555 1_555
O19_8 C12_5 1_555 1_555
N7_8 C11_5 1_555 1_555
C11_5 C12_5 1_555 1_555
O12_5 Zn1_5 1_555 1_555
C12_5 O12_5 1_555 1_555
C13_5 N7_8 1_555 1_555
H5_5 C13_5 1_555 1_555
O21_6 C15_5 1_555 1_555
N9_6 C13_5 1_555 1_555
C14_5 C11_5 1_555 1_555
O14_5 Zn1_5 1_555 1_555
C15_5 C14_5 1_555 1_555
O5_5 C5_5 1_555 1_555
O7_5 C7_5 1_555 1_555
O10_5 C10_5 1_555 1_555
N9_6 C14_5 1_555 1_555
O14_5 C15_5 1_555 1_555
C8_5 N7_11 1_555 1_555
H4_5 C8_5 1_555 1_555
N8 C8_5 1_555 1_555
Zn1_6 O2_6 1_555 1_555
O19_2 C2_6 1_555 1_555
C1_6 N7_2 1_555 1_555
O2_6 C2_6 1_555 1_555
C2_6 C1_6 1_555 1_555
C3_6 N7_2 1_555 1_555
H2_6 C3_6 1_555 1_555
O21_4 C5_6 1_555 1_555
N9_4 C3_6 1_555 1_555
C4_6 C1_6 1_555 1_555
O5_6 Zn1_6 1_555 1_555
C5_6 C4_6 1_555 1_555
O19_10 C7_6 1_555 1_555
C6_6 N7_10 1_555 1_555
O7_6 Zn1_6 1_555 1_555
C7_6 C6_6 1_555 1_555
C8_6 N7_10 1_555 1_555
H4_6 C8_6 1_555 1_555
O20_2 C10_6 1_555 1_555
N8_2 C8_6 1_555 1_555
C9_6 C6_6 1_555 1_555
O10_6 Zn1_6 1_555 1_555
C10_6 C9_6 1_555 1_555
O19_6 C12_6 1_555 1_555
N7_6 C11_6 1_555 1_555
C11_6 C12_6 1_555 1_555
O12_6 Zn1_6 1_555 1_555
C12_6 O12_6 1_555 1_555
C13_6 N7_6 1_555 1_555
H5_6 C13_6 1_555 1_555
O21_8 C15_6 1_555 1_555
N9_8 C13_6 1_555 1_555
C14_6 C11_6 1_555 1_555
O14_6 Zn1_6 1_555 1_555
C15_6 C14_6 1_555 1_555
N9_4 C4_6 1_555 1_555
O5_6 C5_6 1_555 1_555
O7_6 C7_6 1_555 1_555
N8_2 C9_6 1_555 1_555
O10_6 C10_6 1_555 1_555
N9_8 C14_6 1_555 1_555
O14_6 C15_6 1_555 1_555
C8_7 N7_9 1_555 1_555
H4_7 C8_7 1_555 1_555
N8_4 C8_7 1_555 1_555
Zn1_7 O2_7 1_555 1_555
O19_4 C2_7 1_555 1_555
C1_7 N7_4 1_555 1_555
O2_7 C2_7 1_555 1_555
C2_7 C1_7 1_555 1_555
C3_7 N7_4 1_555 1_555
H2_7 C3_7 1_555 1_555
O21_2 C5_7 1_555 1_555
N9_2 C3_7 1_555 1_555
C4_7 C1_7 1_555 1_555
O5_7 Zn1_7 1_555 1_555
C5_7 C4_7 1_555 1_555
O19_9 C7_7 1_555 1_555
O7_7 Zn1_7 1_555 1_555
C7_7 C6_7 1_555 1_555
O20_4 C10_7 1_555 1_555
C9_7 C6_7 1_555 1_555
O10_7 Zn1_7 1_555 1_555
C10_7 C9_7 1_555 1_555
O19_7 C12_7 1_555 1_555
C11_7 C12_7 1_555 1_555
O12_7 Zn1_7 1_555 1_555
C12_7 O12_7 1_555 1_555
O21_5 C15_7 1_555 1_555
C14_7 C11_7 1_555 1_555
O14_7 Zn1_7 1_555 1_555
C15_7 C14_7 1_555 1_555
N9_2 C4_7 1_555 1_555
O5_7 C5_7 1_555 1_555
O7_7 C7_7 1_555 1_555
O10_7 C10_7 1_555 1_555
O14_7 C15_7 1_555 1_555
C13_7 N7_7 1_555 1_555
H5_7 C13_7 1_555 1_555
N9_5 C13_7 1_555 1_555
C13_8 N7_5 1_555 1_555
H5_8 C13_8 1_555 1_555
N9_7 C13_8 1_555 1_555
Zn1_8 O2_8 1_555 1_555
O19_3 C2_8 1_555 1_555
O2_8 C2_8 1_555 1_555
C2_8 C1_8 1_555 1_555
O21 C5_8 1_555 1_555
C4_8 C1_8 1_555 1_555
O5_8 Zn1_8 1_555 1_555
C5_8 C4_8 1_555 1_555
O19_12 C7_8 1_555 1_555
C6_8 N7_12 1_555 1_555
O7_8 Zn1_8 1_555 1_555
C7_8 C6_8 1_555 1_555
C8_8 N7_12 1_555 1_555
H4_8 C8_8 1_555 1_555
O20_3 C10_8 1_555 1_555
N8_3 C8_8 1_555 1_555
C9_8 C6_8 1_555 1_555
O10_8 Zn1_8 1_555 1_555
C10_8 C9_8 1_555 1_555
O19_5 C12_8 1_555 1_555
C11_8 C12_8 1_555 1_555
O12_8 Zn1_8 1_555 1_555
C12_8 O12_8 1_555 1_555
O21_7 C15_8 1_555 1_555
C14_8 C11_8 1_555 1_555
O14_8 Zn1_8 1_555 1_555
C15_8 C14_8 1_555 1_555
O5_8 C5_8 1_555 1_555
O7_8 C7_8 1_555 1_555
N8_3 C9_8 1_555 1_555
O10_8 C10_8 1_555 1_555
O14_8 C15_8 1_555 1_555
C3_8 N7_3 1_555 1_555
H2_8 C3_8 1_555 1_555
N9 C3_8 1_555 1_555

#END
