
###############################################################################
#
# This file contains modified crystal structure data generated from the
# MOF subset of the Cambridge Structural Database (CSD) v543 
# hosted by the Cambridge Crystallographic Data Centre (CCDC).
#
# This work is licensed under the Creative Commons
# Attribution-NonCommercial-ShareAlike 4.0 International License.
# To view a copy of this license, visit
# http://creativecommons.org/licenses/by-nc-sa/4.0/
# or send a letter to
# Creative Commons, PO Box 1866, Mountain View, CA 94042, USA.
#
# CIF created using the CSD Python API on 29 September 2022
# The structure has been converted into the P1 space group
# The structure has a 3D framework
# The original CSD entry NETTOY is in the cubic crystal system
# The original CSD entry NETTOY is in a Sohncke space group
# The framework has been calculated to contain at least 10.0% void space
# The void calculation uses a probe of radius 1.32A, grid spacing 0.4
# The framework is charged, counterions have been retained in the structure
# H atom positions have been added when not included in the experimental data
#
###############################################################################

data_NETTOY
_chemical_formula_moiety         '(C120 H120 In36 Mn8 N48 O144 30+)n'
_symmetry_cell_setting           triclinic
_symmetry_space_group_name_H-M   'P 1'
_symmetry_Int_Tables_number      1
_space_group_name_Hall           'P 1'
loop_
_symmetry_equiv_pos_site_id
_symmetry_equiv_pos_as_xyz
1 x,y,z
_cell_length_a                   25.219(3)
_cell_length_b                   25.219(3)
_cell_length_c                   25.219(3)
_cell_angle_alpha                90
_cell_angle_beta                 90
_cell_angle_gamma                90
_cell_volume                     16039.2
loop_
_atom_site_label
_atom_site_type_symbol
_atom_site_fract_x
_atom_site_fract_y
_atom_site_fract_z
Mn1 Mn 0.1250 0.1250 0.1250
O1 O 0.15393(14) 0.07030(14) 0.06797(13)
C1 C 0.22293(15) 0.01501(15) 0.10046(16)
C2 C 0.18664(17) 0.03562(17) 0.05816(16)
O3 O 0.18868(12) 0.01321(12) 0.01234(11)
O4 O 0.17970(14) 0.09607(14) 0.18203(13)
C4 C 0.23499(15) 0.02707(15) 0.14954(16)
C5 C 0.21438(17) 0.06336(17) 0.19184(16)
O5 O 0.23679(12) 0.06132(12) 0.23766(11)
O6 O 0.06797(13) 0.15393(14) 0.07030(14)
C6 C 0.10046(16) 0.22293(15) 0.01501(15)
C7 C 0.05816(16) 0.18664(17) 0.03562(17)
O8 O 0.01234(11) 0.18868(12) 0.01321(12)
O9 O 0.18203(13) 0.17970(14) 0.09607(14)
C9 C 0.14954(16) 0.23499(15) 0.02707(15)
C10 C 0.19184(16) 0.21438(17) 0.06336(17)
O10 O 0.23766(11) 0.23679(12) 0.06132(12)
O11 O 0.07030(14) 0.06797(13) 0.15393(14)
C11 C 0.01501(15) 0.10046(16) 0.22293(15)
C12 C 0.03562(17) 0.05816(16) 0.18664(17)
O12 O 0.01321(12) 0.01234(11) 0.18868(12)
O13 O 0.09607(14) 0.18203(13) 0.17970(14)
C14 C 0.02707(15) 0.14954(16) 0.23499(15)
C15 C 0.06336(17) 0.19184(16) 0.21438(17)
O14 O 0.06132(12) 0.23766(11) 0.23679(12)
In3 In 0.2500 0.299634(16) 0.0000
O18 O 0.2478(3) 0.35691(19) 0.0593(2)
H9 H 0.2674 0.3816 0.0513
In5 In 0.299634(16) 0.0000 0.2500
In6 In 0.0000 0.2500 0.299634(16)
N7 N 0.33298(12) 0.27540(13) 0.00712(14)
H12 H 0.259848 0.341078 0.0932793
In2 In -0.0000 0.2500 0.950366(16)
N3 N 0.08298(12) 0.25712(14) 0.97460(13)
C8 C 0.1250 0.28650(19) 0.96350(19)
H3 H 0.1250 0.3126 0.9374
H4 H 0.0174 0.3013 0.8684
N4 N 0.16702(12) 0.27540(13) 0.99288(14)
In3_2 In 0.2500 0.299634(16) 1.0000
O15 O 0.2522(3) 0.35691(19) 0.9407(2)
H6 H 0.2326 0.3816 0.9487
O17 O 0.0022(3) 0.1907(2) 0.89309(19)
O19 O 0.26234(11) 0.23679(12) 0.93868(12)
O20 O 0.31132(12) 0.01321(12) 0.98766(11)
H11 H 0.00984842 0.343279 0.908922
H15 H 0.240152 0.341078 0.906721
In1 In 0.2500 0.950366(16) 0.0000
N1 N 0.25712(14) 0.97460(13) 0.08298(12)
C3 C 0.28650(19) 0.96350(19) 0.1250
H1 H 0.3126 0.9374 0.1250
H2 H 0.3013 0.8684 0.0174
N2 N 0.27540(13) 0.99288(14) 0.16702(12)
O16 O 0.1907(2) 0.89309(19) 0.0022(3)
In5_2 In 0.299634(16) 1.0000 0.2500
H10 H 0.343279 0.908922 0.00984842
In1_2 In 0.2500 0.950366(16) 1.0000
O2 O 0.3093(2) 0.89309(19) 0.9978(3)
H7 H 0.1987 0.8684 0.9826
N8 N 0.24288(14) 0.97460(13) 0.91702(12)
H13 H 0.156721 0.908922 0.990152
N5 N 0.97460(13) 0.08298(12) 0.25712(14)
C13 C 0.96350(19) 0.1250 0.28650(19)
H5 H 0.9374 0.1250 0.3126
N6 N 0.99288(14) 0.16702(12) 0.27540(13)
In4 In 0.950366(16) 0.0000 0.2500
In6_2 In 1.0000 0.2500 0.299634(16)
O21 O 0.98766(11) 0.31132(12) 0.01321(12)
In2_2 In 1.0000 0.2500 0.950366(16)
O7 O 0.9978(3) 0.3093(2) 0.89309(19)
H8 H 0.9826 0.1987 0.8684
N9 N 0.91702(12) 0.24288(14) 0.97460(13)
H14 H 0.990152 0.156721 0.908922
In4_2 In 0.950366(16) 1.0000 0.2500
In1_3 In 0.2500 0.049634(16) 0.5000
N1_2 N 0.24288(14) 0.02540(13) 0.58298(12)
C3_2 C 0.21350(19) 0.03650(19) 0.6250
H1_2 H 0.1874 0.0626 0.6250
O2_2 O 0.1907(2) 0.10691(19) 0.4978(3)
H2_2 H 0.1987 0.1316 0.5174
N2_2 N 0.22460(13) 0.00712(14) 0.66702(12)
O16_2 O 0.3093(2) 0.10691(19) 0.5022(3)
H7_2 H 0.3013 0.1316 0.4826
In4_3 In 0.549634(16) 0.0000 0.7500
In5_3 In 0.200366(16) 0.0000 0.7500
N8_2 N 0.25712(14) 0.02540(13) 0.41702(12)
H10_2 H 0.156721 0.0910785 0.509848
H13_2 H 0.343279 0.0910785 0.490152
Mn1_2 Mn 0.3750 0.8750 0.6250
O1_2 O 0.34607(14) 0.92970(14) 0.56797(13)
C1_2 C 0.27707(15) 0.98499(15) 0.60046(16)
C2_2 C 0.31336(17) 0.96438(17) 0.55816(16)
O3_2 O 0.31132(12) 0.98679(12) 0.51234(11)
O4_2 O 0.32030(14) 0.90393(14) 0.68203(13)
C4_2 C 0.26501(15) 0.97293(15) 0.64954(16)
C5_2 C 0.28562(17) 0.93664(17) 0.69184(16)
O5_2 O 0.26321(12) 0.93868(12) 0.73766(11)
In2_3 In 0.5000 0.7500 0.450366(16)
N3_2 N 0.41702(12) 0.74288(14) 0.47460(13)
O6_2 O 0.43203(13) 0.84607(14) 0.57030(14)
C6_2 C 0.39954(16) 0.77707(15) 0.51501(15)
C7_2 C 0.44184(16) 0.81336(17) 0.53562(17)
C8_2 C 0.3750 0.71350(19) 0.46350(19)
H3_2 H 0.3750 0.6874 0.4374
O7_2 O 0.5022(3) 0.6907(2) 0.39309(19)
H4_2 H 0.4826 0.6987 0.3684
O8_2 O 0.48766(11) 0.81132(12) 0.51321(12)
N4_2 N 0.33298(12) 0.72460(13) 0.49288(14)
O9_2 O 0.31797(13) 0.82030(14) 0.59607(14)
C9_2 C 0.35046(16) 0.76501(15) 0.52707(15)
C10_2 C 0.30816(16) 0.78562(17) 0.56336(17)
O10_2 O 0.26234(11) 0.76321(12) 0.56132(12)
N5_2 N 0.52540(13) 0.91702(12) 0.75712(14)
O11_2 O 0.42970(14) 0.93203(13) 0.65393(14)
C11_2 C 0.48499(15) 0.89954(16) 0.72293(15)
C12_2 C 0.46438(17) 0.94184(16) 0.68664(17)
C13_2 C 0.53650(19) 0.8750 0.78650(19)
H5_2 H 0.5626 0.8750 0.8126
O12_2 O 0.48679(12) 0.98766(11) 0.68868(12)
N6_2 N 0.50712(14) 0.83298(12) 0.77540(13)
O13_2 O 0.40393(14) 0.81797(13) 0.67970(14)
C14_2 C 0.47293(15) 0.85046(16) 0.73499(15)
C15_2 C 0.43664(17) 0.80816(16) 0.71438(17)
O14_2 O 0.43868(12) 0.76234(11) 0.73679(12)
In3_3 In 0.2500 0.700366(16) 0.5000
O15_2 O 0.2478(3) 0.64309(19) 0.4407(2)
H6_2 H 0.2674 0.6184 0.4487
O17_2 O 0.4978(3) 0.8093(2) 0.39309(19)
H8_2 H 0.5174 0.8013 0.3684
O18_2 O 0.2522(3) 0.64309(19) 0.5593(2)
H9_2 H 0.2326 0.6184 0.5513
In4_4 In 0.549634(16) 1.0000 0.7500
In5_4 In 0.200366(16) 1.0000 0.7500
In6_3 In 0.5000 0.7500 0.799634(16)
N7_2 N 0.16702(12) 0.72460(13) 0.50712(14)
N9_2 N 0.58298(12) 0.75712(14) 0.47460(13)
O19_2 O 0.23766(11) 0.76321(12) 0.43868(12)
O20_2 O 0.18868(12) 0.98679(12) 0.48766(11)
O21_2 O 0.51234(11) 0.68868(12) 0.51321(12)
H11_2 H 0.490152 0.656721 0.408922
H12_2 H 0.240152 0.658922 0.593279
H14_2 H 0.509848 0.843279 0.408922
H15_2 H 0.259848 0.658922 0.406721
In2_4 In 0.0000 0.7500 0.549634(16)
O7_3 O 0.0022(3) 0.8093(2) 0.60691(19)
N5_3 N 0.02540(13) 0.58298(12) 0.24288(14)
C13_3 C 0.03650(19) 0.6250 0.21350(19)
H5_3 H 0.0626 0.6250 0.1874
N6_3 N 0.00712(14) 0.66702(12) 0.22460(13)
H8_3 H 0.0174 0.6987 0.6316
In4_5 In 0.049634(16) 0.5000 0.2500
In6_4 In -0.0000 0.7500 0.200366(16)
N9_3 N 0.08298(12) 0.74288(14) 0.52540(13)
O21_3 O 0.01234(11) 0.81132(12) 0.48679(12)
H14_3 H 0.00984842 0.656721 0.591078
In1_4 In 0.7500 0.450366(16) 0.5000
Mn1_3 Mn 0.8750 0.6250 0.3750
N1_3 N 0.74288(14) 0.47460(13) 0.41702(12)
O1_3 O 0.84607(14) 0.57030(14) 0.43203(13)
C1_3 C 0.77707(15) 0.51501(15) 0.39954(16)
C2_3 C 0.81336(17) 0.53562(17) 0.44184(16)
C3_3 C 0.71350(19) 0.46350(19) 0.3750
H1_3 H 0.6874 0.4374 0.3750
O2_3 O 0.6907(2) 0.39309(19) 0.5022(3)
H2_3 H 0.6987 0.3684 0.4826
O3_3 O 0.81132(12) 0.51321(12) 0.48766(11)
N2_3 N 0.72460(13) 0.49288(14) 0.33298(12)
O4_3 O 0.82030(14) 0.59607(14) 0.31797(13)
C4_3 C 0.76501(15) 0.52707(15) 0.35046(16)
C5_3 C 0.78562(17) 0.56336(17) 0.30816(16)
O5_3 O 0.76321(12) 0.56132(12) 0.26234(11)
In2_5 In 1.0000 0.7500 0.549634(16)
N3_3 N 0.91702(12) 0.75712(14) 0.52540(13)
O6_3 O 0.93203(13) 0.65393(14) 0.42970(14)
C6_3 C 0.89954(16) 0.72293(15) 0.48499(15)
C7_3 C 0.94184(16) 0.68664(17) 0.46438(17)
C8_3 C 0.8750 0.78650(19) 0.53650(19)
H3_3 H 0.8750 0.8126 0.5626
H4_3 H 0.9826 0.8013 0.6316
O8_3 O 0.98766(11) 0.68868(12) 0.48679(12)
N4_3 N 0.83298(12) 0.77540(13) 0.50712(14)
O9_3 O 0.81797(13) 0.67970(14) 0.40393(14)
C9_3 C 0.85046(16) 0.73499(15) 0.47293(15)
C10_3 C 0.80816(16) 0.71438(17) 0.43664(17)
O10_3 O 0.76234(11) 0.73679(12) 0.43868(12)
O11_3 O 0.92970(14) 0.56797(13) 0.34607(14)
C11_3 C 0.98499(15) 0.60046(16) 0.27707(15)
C12_3 C 0.96438(17) 0.55816(16) 0.31336(17)
O12_3 O 0.98679(12) 0.51234(11) 0.31132(12)
O13_3 O 0.90393(14) 0.68203(13) 0.32030(14)
C14_3 C 0.97293(15) 0.64954(16) 0.26501(15)
C15_3 C 0.93664(17) 0.69184(16) 0.28562(17)
O14_3 O 0.93868(12) 0.73766(11) 0.26321(12)
In3_4 In 0.7500 0.799634(16) 0.5000
O15_3 O 0.7478(3) 0.85691(19) 0.5593(2)
H6_3 H 0.7674 0.8816 0.5513
O16_3 O 0.8093(2) 0.39309(19) 0.4978(3)
H7_3 H 0.8013 0.3684 0.5174
O17_3 O 0.9978(3) 0.6907(2) 0.60691(19)
O18_3 O 0.7522(3) 0.85691(19) 0.4407(2)
H9_3 H 0.7326 0.8816 0.4487
In5_5 In 0.700366(16) 0.5000 0.2500
In6_5 In 1.0000 0.7500 0.200366(16)
N7_3 N 0.66702(12) 0.77540(13) 0.49288(14)
N8_3 N 0.75712(14) 0.47460(13) 0.58298(12)
O19_3 O 0.73766(11) 0.73679(12) 0.56132(12)
O20_3 O 0.68868(12) 0.51321(12) 0.51234(11)
H10_3 H 0.656721 0.408922 0.490152
H11_3 H 0.990152 0.843279 0.591078
H12_3 H 0.740152 0.841078 0.406721
H13_3 H 0.843279 0.408922 0.509848
H15_3 H 0.759848 0.841078 0.593279
In1_5 In 0.7500 0.549634(16) 0.0000
O2_4 O 0.8093(2) 0.60691(19) 0.0022(3)
In2_6 In 0.5000 0.2500 0.049634(16)
N3_4 N 0.58298(12) 0.24288(14) 0.02540(13)
C8_4 C 0.6250 0.21350(19) 0.03650(19)
H3_4 H 0.6250 0.1874 0.0626
O7_4 O 0.4978(3) 0.1907(2) 0.10691(19)
H4_4 H 0.5174 0.1987 0.1316
N4_4 N 0.66702(12) 0.22460(13) 0.00712(14)
In3_5 In 0.7500 0.200366(16) 0.0000
O15_4 O 0.7522(3) 0.14309(19) 0.0593(2)
H6_4 H 0.7326 0.1184 0.0513
H7_4 H 0.6987 0.6316 0.0174
O17_4 O 0.5022(3) 0.3093(2) 0.10691(19)
H8_4 H 0.4826 0.3013 0.1316
N8_4 N 0.74288(14) 0.52540(13) 0.08298(12)
N9_4 N 0.41702(12) 0.25712(14) 0.02540(13)
O19_4 O 0.76234(11) 0.26321(12) 0.06132(12)
O20_4 O 0.81132(12) 0.48679(12) 0.01234(11)
H11_4 H 0.509848 0.156721 0.0910785
H13_4 H 0.656721 0.591078 0.00984842
H14_4 H 0.490152 0.343279 0.0910785
H15_4 H 0.740152 0.158922 0.0932793
In1_6 In 0.7500 0.549634(16) 1.0000
Mn1_4 Mn 0.6250 0.3750 0.8750
N1_4 N 0.75712(14) 0.52540(13) 0.91702(12)
O1_4 O 0.65393(14) 0.42970(14) 0.93203(13)
C1_4 C 0.72293(15) 0.48499(15) 0.89954(16)
C2_4 C 0.68664(17) 0.46438(17) 0.94184(16)
C3_4 C 0.78650(19) 0.53650(19) 0.8750
H1_4 H 0.8126 0.5626 0.8750
H2_4 H 0.8013 0.6316 0.9826
O3_4 O 0.68868(12) 0.48679(12) 0.98766(11)
N2_4 N 0.77540(13) 0.50712(14) 0.83298(12)
O4_4 O 0.67970(14) 0.40393(14) 0.81797(13)
C4_4 C 0.73499(15) 0.47293(15) 0.85046(16)
C5_4 C 0.71438(17) 0.43664(17) 0.80816(16)
O5_4 O 0.73679(12) 0.43868(12) 0.76234(11)
O6_4 O 0.56797(13) 0.34607(14) 0.92970(14)
C6_4 C 0.60046(16) 0.27707(15) 0.98499(15)
C7_4 C 0.55816(16) 0.31336(17) 0.96438(17)
O8_4 O 0.51234(11) 0.31132(12) 0.98679(12)
O9_4 O 0.68203(13) 0.32030(14) 0.90393(14)
C9_4 C 0.64954(16) 0.26501(15) 0.97293(15)
C10_4 C 0.69184(16) 0.28562(17) 0.93664(17)
O10_4 O 0.73766(11) 0.26321(12) 0.93868(12)
N5_4 N 0.47460(13) 0.41702(12) 0.74288(14)
O11_4 O 0.57030(14) 0.43203(13) 0.84607(14)
C11_4 C 0.51501(15) 0.39954(16) 0.77707(15)
C12_4 C 0.53562(17) 0.44184(16) 0.81336(17)
C13_4 C 0.46350(19) 0.3750 0.71350(19)
H5_4 H 0.4374 0.3750 0.6874
O12_4 O 0.51321(12) 0.48766(11) 0.81132(12)
N6_4 N 0.49288(14) 0.33298(12) 0.72460(13)
O13_4 O 0.59607(14) 0.31797(13) 0.82030(14)
C14_4 C 0.52707(15) 0.35046(16) 0.76501(15)
C15_4 C 0.56336(17) 0.30816(16) 0.78562(17)
O14_4 O 0.56132(12) 0.26234(11) 0.76321(12)
In3_6 In 0.7500 0.200366(16) 1.0000
O16_4 O 0.6907(2) 0.60691(19) 0.9978(3)
O18_4 O 0.7478(3) 0.14309(19) 0.9407(2)
H9_4 H 0.7674 0.1184 0.9487
In4_6 In 0.450366(16) 0.5000 0.7500
In5_6 In 0.799634(16) 0.5000 0.7500
In6_6 In 0.5000 0.2500 0.700366(16)
N7_4 N 0.83298(12) 0.22460(13) 0.99288(14)
O21_4 O 0.48766(11) 0.18868(12) 0.98679(12)
H10_4 H 0.843279 0.591078 0.990152
H12_4 H 0.759848 0.158922 0.906721
O18_5 O 0.0593(2) 0.2478(3) 0.35691(19)
H9_5 H 0.0513 0.2674 0.3816
N7_5 N 0.00712(14) 0.33298(12) 0.27540(13)
H12_5 H 0.0932793 0.259848 0.341078
O21_5 O 0.01321(12) 0.98766(11) 0.31132(12)
H4_5 H 0.8684 0.0174 0.3013
O15_5 O 0.9407(2) 0.2522(3) 0.35691(19)
H6_5 H 0.9487 0.2326 0.3816
O17_5 O 0.89309(19) 0.0022(3) 0.1907(2)
O19_5 O 0.93868(12) 0.26234(11) 0.23679(12)
H11_5 H 0.908922 0.00984842 0.343279
H15_5 H 0.906721 0.240152 0.341078
O7_5 O 0.89309(19) 0.9978(3) 0.3093(2)
H8_5 H 0.8684 0.9826 0.1987
N9_5 N 0.97460(13) 0.91702(12) 0.24288(14)
H14_5 H 0.908922 0.990152 0.156721
O7_6 O 0.39309(19) 0.5022(3) 0.6907(2)
H4_6 H 0.3684 0.4826 0.6987
O15_6 O 0.4407(2) 0.2478(3) 0.64309(19)
H6_6 H 0.4487 0.2674 0.6184
O17_6 O 0.39309(19) 0.4978(3) 0.8093(2)
H8_6 H 0.3684 0.5174 0.8013
O18_6 O 0.5593(2) 0.2522(3) 0.64309(19)
H9_6 H 0.5513 0.2326 0.6184
N7_6 N 0.50712(14) 0.16702(12) 0.72460(13)
N9_6 N 0.47460(13) 0.58298(12) 0.75712(14)
O19_6 O 0.43868(12) 0.23766(11) 0.76321(12)
O21_6 O 0.51321(12) 0.51234(11) 0.68868(12)
H11_6 H 0.408922 0.490152 0.656721
H12_6 H 0.593279 0.240152 0.658922
H14_6 H 0.408922 0.509848 0.843279
H15_6 H 0.406721 0.259848 0.658922
O7_7 O 0.60691(19) 0.0022(3) 0.8093(2)
H8_7 H 0.6316 0.0174 0.6987
N9_7 N 0.52540(13) 0.08298(12) 0.74288(14)
O21_7 O 0.48679(12) 0.01234(11) 0.81132(12)
H14_7 H 0.591078 0.00984842 0.656721
H4_7 H 0.6316 0.9826 0.8013
O15_7 O 0.5593(2) 0.7478(3) 0.85691(19)
H6_7 H 0.5513 0.7674 0.8816
O17_7 O 0.60691(19) 0.9978(3) 0.6907(2)
O18_7 O 0.4407(2) 0.7522(3) 0.85691(19)
H9_7 H 0.4487 0.7326 0.8816
N7_7 N 0.49288(14) 0.66702(12) 0.77540(13)
O19_7 O 0.56132(12) 0.73766(11) 0.73679(12)
H11_7 H 0.591078 0.990152 0.843279
H12_7 H 0.406721 0.740152 0.841078
H15_7 H 0.593279 0.759848 0.841078
O7_8 O 0.10691(19) 0.4978(3) 0.1907(2)
H4_8 H 0.1316 0.5174 0.1987
O15_8 O 0.0593(2) 0.7522(3) 0.14309(19)
H6_8 H 0.0513 0.7326 0.1184
O17_8 O 0.10691(19) 0.5022(3) 0.3093(2)
H8_8 H 0.1316 0.4826 0.3013
N9_8 N 0.02540(13) 0.41702(12) 0.25712(14)
O19_8 O 0.06132(12) 0.76234(11) 0.26321(12)
H11_8 H 0.0910785 0.509848 0.156721
H14_8 H 0.0910785 0.490152 0.343279
H15_8 H 0.0932793 0.740152 0.158922
O18_8 O 0.9407(2) 0.7478(3) 0.14309(19)
H9_8 H 0.9487 0.7674 0.1184
N7_8 N 0.99288(14) 0.83298(12) 0.22460(13)
O21_8 O 0.98679(12) 0.48766(11) 0.18868(12)
H12_8 H 0.906721 0.759848 0.158922
O18_9 O 0.35691(19) 0.0593(2) 0.2478(3)
H9_9 H 0.3816 0.0513 0.2674
N7_9 N 0.27540(13) 0.00712(14) 0.33298(12)
H12_9 H 0.341078 0.0932793 0.259848
O15_9 O 0.35691(19) 0.9407(2) 0.2522(3)
H6_9 H 0.3816 0.9487 0.2326
O19_9 O 0.23679(12) 0.93868(12) 0.26234(11)
H15_9 H 0.341078 0.906721 0.240152
O15_10 O 0.64309(19) 0.4407(2) 0.2478(3)
H6_10 H 0.6184 0.4487 0.2674
O18_10 O 0.64309(19) 0.5593(2) 0.2522(3)
H9_10 H 0.6184 0.5513 0.2326
N7_10 N 0.72460(13) 0.50712(14) 0.16702(12)
O19_10 O 0.76321(12) 0.43868(12) 0.23766(11)
H12_10 H 0.658922 0.593279 0.240152
H15_10 H 0.658922 0.406721 0.259848
O15_11 O 0.85691(19) 0.5593(2) 0.7478(3)
H6_11 H 0.8816 0.5513 0.7674
O18_11 O 0.85691(19) 0.4407(2) 0.7522(3)
H9_11 H 0.8816 0.4487 0.7326
N7_11 N 0.77540(13) 0.49288(14) 0.66702(12)
O19_11 O 0.73679(12) 0.56132(12) 0.73766(11)
H12_11 H 0.841078 0.406721 0.740152
H15_11 H 0.841078 0.593279 0.759848
O15_12 O 0.14309(19) 0.0593(2) 0.7522(3)
H6_12 H 0.1184 0.0513 0.7326
O19_12 O 0.26321(12) 0.06132(12) 0.76234(11)
H15_12 H 0.158922 0.0932793 0.740152
O18_12 O 0.14309(19) 0.9407(2) 0.7478(3)
H9_12 H 0.1184 0.9487 0.7674
N7_12 N 0.22460(13) 0.99288(14) 0.83298(12)
H12_12 H 0.158922 0.906721 0.759848
C8_5 C 0.03650(19) 0.3750 0.28650(19)
H3_5 H 0.0626 0.3750 0.3126
Mn1_5 Mn 0.8750 0.3750 0.1250
O1_5 O 0.82030(14) 0.40393(14) 0.18203(13)
C1_5 C 0.76501(15) 0.47293(15) 0.14954(16)
C2_5 C 0.78562(17) 0.43664(17) 0.19184(16)
C3_5 C 0.71350(19) 0.53650(19) 0.1250
H1_5 H 0.6874 0.5626 0.1250
O4_5 O 0.84607(14) 0.42970(14) 0.06797(13)
C4_5 C 0.77707(15) 0.48499(15) 0.10046(16)
C5_5 C 0.81336(17) 0.46438(17) 0.05816(16)
O6_5 O 0.90393(14) 0.31797(13) 0.17970(14)
C6_5 C 0.97293(15) 0.35046(16) 0.23499(15)
C7_5 C 0.93664(17) 0.30816(16) 0.21438(17)
O9_5 O 0.92970(14) 0.43203(13) 0.15393(14)
C9_5 C 0.98499(15) 0.39954(16) 0.22293(15)
C10_5 C 0.96438(17) 0.44184(16) 0.18664(17)
O11_5 O 0.81797(13) 0.32030(14) 0.09607(14)
C11_5 C 0.85046(16) 0.26501(15) 0.02707(15)
C12_5 C 0.80816(16) 0.28562(17) 0.06336(17)
O13_5 O 0.93203(13) 0.34607(14) 0.07030(14)
C14_5 C 0.89954(16) 0.27707(15) 0.01501(15)
C15_5 C 0.94184(16) 0.31336(17) 0.03562(17)
C13_5 C 0.8750 0.21350(19) 0.96350(19)
H5_5 H 0.8750 0.1874 0.9374
Mn1_6 Mn 0.6250 0.6250 0.6250
O1_6 O 0.67970(14) 0.59607(14) 0.68203(13)
C1_6 C 0.73499(15) 0.52707(15) 0.64954(16)
C2_6 C 0.71438(17) 0.56336(17) 0.69184(16)
C3_6 C 0.78650(19) 0.46350(19) 0.6250
H1_6 H 0.8126 0.4374 0.6250
O4_6 O 0.65393(14) 0.57030(14) 0.56797(13)
C4_6 C 0.72293(15) 0.51501(15) 0.60046(16)
C5_6 C 0.68664(17) 0.53562(17) 0.55816(16)
O6_6 O 0.59607(14) 0.68203(13) 0.67970(14)
C6_6 C 0.52707(15) 0.64954(16) 0.73499(15)
C7_6 C 0.56336(17) 0.69184(16) 0.71438(17)
C8_6 C 0.46350(19) 0.6250 0.78650(19)
H3_6 H 0.4374 0.6250 0.8126
O9_6 O 0.57030(14) 0.56797(13) 0.65393(14)
C9_6 C 0.51501(15) 0.60046(16) 0.72293(15)
C10_6 C 0.53562(17) 0.55816(16) 0.68664(17)
O11_6 O 0.68203(13) 0.67970(14) 0.59607(14)
C11_6 C 0.64954(16) 0.73499(15) 0.52707(15)
C12_6 C 0.69184(16) 0.71438(17) 0.56336(17)
C13_6 C 0.6250 0.78650(19) 0.46350(19)
H5_6 H 0.6250 0.8126 0.4374
O13_6 O 0.56797(13) 0.65393(14) 0.57030(14)
C14_6 C 0.60046(16) 0.72293(15) 0.51501(15)
C15_6 C 0.55816(16) 0.68664(17) 0.53562(17)
C13_7 C 0.3750 0.28650(19) 0.03650(19)
H5_7 H 0.3750 0.3126 0.0626
Mn1_7 Mn 0.3750 0.1250 0.8750
O1_7 O 0.32030(14) 0.09607(14) 0.81797(13)
C1_7 C 0.26501(15) 0.02707(15) 0.85046(16)
C2_7 C 0.28562(17) 0.06336(17) 0.80816(16)
O4_7 O 0.34607(14) 0.07030(14) 0.93203(13)
C4_7 C 0.27707(15) 0.01501(15) 0.89954(16)
C5_7 C 0.31336(17) 0.03562(17) 0.94184(16)
O6_7 O 0.40393(14) 0.18203(13) 0.82030(14)
C6_7 C 0.47293(15) 0.14954(16) 0.76501(15)
C7_7 C 0.43664(17) 0.19184(16) 0.78562(17)
C8_7 C 0.53650(19) 0.1250 0.71350(19)
H3_7 H 0.5626 0.1250 0.6874
O9_7 O 0.42970(14) 0.06797(13) 0.84607(14)
C9_7 C 0.48499(15) 0.10046(16) 0.77707(15)
C10_7 C 0.46438(17) 0.05816(16) 0.81336(17)
O11_7 O 0.31797(13) 0.17970(14) 0.90393(14)
C11_7 C 0.35046(16) 0.23499(15) 0.97293(15)
C12_7 C 0.30816(16) 0.21438(17) 0.93664(17)
O13_7 O 0.43203(13) 0.15393(14) 0.92970(14)
C14_7 C 0.39954(16) 0.22293(15) 0.98499(15)
C15_7 C 0.44184(16) 0.18664(17) 0.96438(17)
C3_7 C 0.21350(19) 0.96350(19) 0.8750
H1_7 H 0.1874 0.9374 0.8750
C3_8 C 0.28650(19) 0.03650(19) 0.3750
H1_8 H 0.3126 0.0626 0.3750
Mn1_8 Mn 0.1250 0.8750 0.3750
O1_8 O 0.17970(14) 0.90393(14) 0.31797(13)
C1_8 C 0.23499(15) 0.97293(15) 0.35046(16)
C2_8 C 0.21438(17) 0.93664(17) 0.30816(16)
O4_8 O 0.15393(14) 0.92970(14) 0.43203(13)
C4_8 C 0.22293(15) 0.98499(15) 0.39954(16)
C5_8 C 0.18664(17) 0.96438(17) 0.44184(16)
O6_8 O 0.09607(14) 0.81797(13) 0.32030(14)
C6_8 C 0.02707(15) 0.85046(16) 0.26501(15)
C7_8 C 0.06336(17) 0.80816(16) 0.28562(17)
O9_8 O 0.07030(14) 0.93203(13) 0.34607(14)
C9_8 C 0.01501(15) 0.89954(16) 0.27707(15)
C10_8 C 0.03562(17) 0.94184(16) 0.31336(17)
O11_8 O 0.18203(13) 0.82030(14) 0.40393(14)
C11_8 C 0.14954(16) 0.76501(15) 0.47293(15)
C12_8 C 0.19184(16) 0.78562(17) 0.43664(17)
C13_8 C 0.1250 0.71350(19) 0.53650(19)
H5_8 H 0.1250 0.6874 0.5626
O13_8 O 0.06797(13) 0.84607(14) 0.42970(14)
C14_8 C 0.10046(16) 0.77707(15) 0.48499(15)
C15_8 C 0.05816(16) 0.81336(17) 0.46438(17)
C8_8 C 0.96350(19) 0.8750 0.21350(19)
H3_8 H 0.9374 0.8750 0.1874
loop_
_geom_bond_atom_site_label_1
_geom_bond_atom_site_label_2
_geom_bond_site_symmetry_1
_geom_bond_site_symmetry_2
Mn1 O1 1_555 1_555
O1 C2 1_555 1_555
C1 C2 1_555 1_555
C2 O3 1_555 1_555
O4 Mn1 1_555 1_555
C4 C1 1_555 1_555
C5 O4 1_555 1_555
O5 C5 1_555 1_555
O6 Mn1 1_555 1_555
C6 C7 1_555 1_555
C7 O6 1_555 1_555
O9 Mn1 1_555 1_555
C9 C6 1_555 1_555
C10 O9 1_555 1_555
O10 C10 1_555 1_555
O11 Mn1 1_555 1_555
C11 C12 1_555 1_555
C12 O11 1_555 1_555
O12 C12 1_555 1_555
O13 Mn1 1_555 1_555
C14 C11 1_555 1_555
C15 O13 1_555 1_555
O14 C15 1_555 1_555
O18 In3 1_555 1_555
H9 O18 1_555 1_555
N7 In3 1_555 1_555
C4 C5 1_555 1_555
O5 In5 1_555 1_555
C7 O8 1_555 1_555
C9 C10 1_555 1_555
O10 In3 1_555 1_555
C14 C15 1_555 1_555
O14 In6 1_555 1_555
O18 H12 1_555 1_555
In2 N3 1_555 1_555
C8 N3 1_555 1_555
H3 C8 1_555 1_555
N4 C8 1_555 1_555
In3_2 N4 1_555 1_555
O15 In3_2 1_555 1_555
H6 O15 1_555 1_555
O17 In2 1_555 1_555
O19 In3_2 1_555 1_555
O15 H15 1_555 1_555
In1 N1 1_555 1_555
C3 N1 1_555 1_555
H1 C3 1_555 1_555
N2 C3 1_555 1_555
O16 In1 1_555 1_555
In5_2 N2 1_555 1_555
O2 In1_2 1_555 1_555
N8 In1_2 1_555 1_555
C13 N5 1_555 1_555
H5 C13 1_555 1_555
N6 C13 1_555 1_555
In4 N5 1_555 1_555
In6_2 N6 1_555 1_555
O7 In2_2 1_555 1_555
N9 In2_2 1_555 1_555
In1_3 N1_2 1_555 1_555
C3_2 N1_2 1_555 1_555
H1_2 C3_2 1_555 1_555
O2_2 In1_3 1_555 1_555
H2_2 O2_2 1_555 1_555
N2_2 C3_2 1_555 1_555
O16_2 In1_3 1_555 1_555
H7_2 O16_2 1_555 1_555
In5_3 N2_2 1_555 1_555
N8_2 In1_3 1_555 1_555
O2_2 H10_2 1_555 1_555
O16_2 H13_2 1_555 1_555
Mn1_2 O1_2 1_555 1_555
O1_2 C2_2 1_555 1_555
C1_2 C2_2 1_555 1_555
C2_2 O3_2 1_555 1_555
O4_2 Mn1_2 1_555 1_555
C4_2 C1_2 1_555 1_555
C5_2 O4_2 1_555 1_555
O5_2 C5_2 1_555 1_555
In2_3 N3_2 1_555 1_555
N3_2 C6_2 1_555 1_555
O6_2 Mn1_2 1_555 1_555
C6_2 C7_2 1_555 1_555
C7_2 O6_2 1_555 1_555
C8_2 N3_2 1_555 1_555
H3_2 C8_2 1_555 1_555
O7_2 In2_3 1_555 1_555
H4_2 O7_2 1_555 1_555
O8_2 In2_3 1_555 1_555
N4_2 C8_2 1_555 1_555
O9_2 Mn1_2 1_555 1_555
C9_2 C6_2 1_555 1_555
C10_2 O9_2 1_555 1_555
O10_2 C10_2 1_555 1_555
N5_2 C11_2 1_555 1_555
O11_2 Mn1_2 1_555 1_555
C11_2 C12_2 1_555 1_555
C12_2 O11_2 1_555 1_555
C13_2 N5_2 1_555 1_555
H5_2 C13_2 1_555 1_555
O12_2 C12_2 1_555 1_555
N6_2 C13_2 1_555 1_555
O13_2 Mn1_2 1_555 1_555
C14_2 C11_2 1_555 1_555
C15_2 O13_2 1_555 1_555
O14_2 C15_2 1_555 1_555
In3_3 N4_2 1_555 1_555
O15_2 In3_3 1_555 1_555
H6_2 O15_2 1_555 1_555
O17_2 In2_3 1_555 1_555
H8_2 O17_2 1_555 1_555
O18_2 In3_3 1_555 1_555
H9_2 O18_2 1_555 1_555
In4_4 N5_2 1_555 1_555
In6_3 N6_2 1_555 1_555
N7_2 In3_3 1_555 1_555
N9_2 In2_3 1_555 1_555
O19_2 In3_3 1_555 1_555
O21_2 In2_3 1_555 1_555
C4_2 C5_2 1_555 1_555
O5_2 In5_4 1_555 1_555
C7_2 O8_2 1_555 1_555
N4_2 C9_2 1_555 1_555
C9_2 C10_2 1_555 1_555
O10_2 In3_3 1_555 1_555
O12_2 In4_4 1_555 1_555
N6_2 C14_2 1_555 1_555
C14_2 C15_2 1_555 1_555
O14_2 In6_3 1_555 1_555
O7_2 H11_2 1_555 1_555
O18_2 H12_2 1_555 1_555
O17_2 H14_2 1_555 1_555
O15_2 H15_2 1_555 1_555
O7_3 In2_4 1_555 1_555
C13_3 N5_3 1_555 1_555
H5_3 C13_3 1_555 1_555
N6_3 C13_3 1_555 1_555
In4_5 N5_3 1_555 1_555
In6_4 N6_3 1_555 1_555
N9_3 In2_4 1_555 1_555
O21_3 In2_4 1_555 1_555
In1_4 N1_3 1_555 1_555
Mn1_3 O1_3 1_555 1_555
N1_3 C1_3 1_555 1_555
O1_3 C2_3 1_555 1_555
C1_3 C2_3 1_555 1_555
C2_3 O3_3 1_555 1_555
C3_3 N1_3 1_555 1_555
H1_3 C3_3 1_555 1_555
O2_3 In1_4 1_555 1_555
H2_3 O2_3 1_555 1_555
O3_3 In1_4 1_555 1_555
N2_3 C3_3 1_555 1_555
O4_3 Mn1_3 1_555 1_555
C4_3 C1_3 1_555 1_555
C5_3 O4_3 1_555 1_555
O5_3 C5_3 1_555 1_555
In2_5 N3_3 1_555 1_555
N3_3 C6_3 1_555 1_555
O6_3 Mn1_3 1_555 1_555
C6_3 C7_3 1_555 1_555
C7_3 O6_3 1_555 1_555
C8_3 N3_3 1_555 1_555
H3_3 C8_3 1_555 1_555
O8_3 In2_5 1_555 1_555
N4_3 C8_3 1_555 1_555
O9_3 Mn1_3 1_555 1_555
C9_3 C6_3 1_555 1_555
C10_3 O9_3 1_555 1_555
O10_3 C10_3 1_555 1_555
O11_3 Mn1_3 1_555 1_555
C11_3 C12_3 1_555 1_555
C12_3 O11_3 1_555 1_555
O12_3 C12_3 1_555 1_555
O13_3 Mn1_3 1_555 1_555
C14_3 C11_3 1_555 1_555
C15_3 O13_3 1_555 1_555
O14_3 C15_3 1_555 1_555
In3_4 N4_3 1_555 1_555
O15_3 In3_4 1_555 1_555
H6_3 O15_3 1_555 1_555
O16_3 In1_4 1_555 1_555
H7_3 O16_3 1_555 1_555
O17_3 In2_5 1_555 1_555
O18_3 In3_4 1_555 1_555
H9_3 O18_3 1_555 1_555
In5_5 N2_3 1_555 1_555
N7_3 In3_4 1_555 1_555
N8_3 In1_4 1_555 1_555
O19_3 In3_4 1_555 1_555
O20_3 In1_4 1_555 1_555
N2_3 C4_3 1_555 1_555
C4_3 C5_3 1_555 1_555
O5_3 In5_5 1_555 1_555
C7_3 O8_3 1_555 1_555
N4_3 C9_3 1_555 1_555
C9_3 C10_3 1_555 1_555
O10_3 In3_4 1_555 1_555
C14_3 C15_3 1_555 1_555
O14_3 In6_5 1_555 1_555
O2_3 H10_3 1_555 1_555
O18_3 H12_3 1_555 1_555
O16_3 H13_3 1_555 1_555
O15_3 H15_3 1_555 1_555
O2_4 In1_5 1_555 1_555
In2_6 N3_4 1_555 1_555
C8_4 N3_4 1_555 1_555
H3_4 C8_4 1_555 1_555
O7_4 In2_6 1_555 1_555
H4_4 O7_4 1_555 1_555
N4_4 C8_4 1_555 1_555
In3_5 N4_4 1_555 1_555
O15_4 In3_5 1_555 1_555
H6_4 O15_4 1_555 1_555
O17_4 In2_6 1_555 1_555
H8_4 O17_4 1_555 1_555
N8_4 In1_5 1_555 1_555
N9_4 In2_6 1_555 1_555
O19_4 In3_5 1_555 1_555
O20_4 In1_5 1_555 1_555
O7_4 H11_4 1_555 1_555
O17_4 H14_4 1_555 1_555
O15_4 H15_4 1_555 1_555
In1_6 N1_4 1_555 1_555
Mn1_4 O1_4 1_555 1_555
N1_4 C1_4 1_555 1_555
O1_4 C2_4 1_555 1_555
C1_4 C2_4 1_555 1_555
C2_4 O3_4 1_555 1_555
C3_4 N1_4 1_555 1_555
H1_4 C3_4 1_555 1_555
O3_4 In1_6 1_555 1_555
N2_4 C3_4 1_555 1_555
O4_4 Mn1_4 1_555 1_555
C4_4 C1_4 1_555 1_555
C5_4 O4_4 1_555 1_555
O5_4 C5_4 1_555 1_555
O6_4 Mn1_4 1_555 1_555
C6_4 C7_4 1_555 1_555
C7_4 O6_4 1_555 1_555
O9_4 Mn1_4 1_555 1_555
C9_4 C6_4 1_555 1_555
C10_4 O9_4 1_555 1_555
O10_4 C10_4 1_555 1_555
N5_4 C11_4 1_555 1_555
O11_4 Mn1_4 1_555 1_555
C11_4 C12_4 1_555 1_555
C12_4 O11_4 1_555 1_555
C13_4 N5_4 1_555 1_555
H5_4 C13_4 1_555 1_555
O12_4 C12_4 1_555 1_555
N6_4 C13_4 1_555 1_555
O13_4 Mn1_4 1_555 1_555
C14_4 C11_4 1_555 1_555
C15_4 O13_4 1_555 1_555
O14_4 C15_4 1_555 1_555
O16_4 In1_6 1_555 1_555
O18_4 In3_6 1_555 1_555
H9_4 O18_4 1_555 1_555
In4_6 N5_4 1_555 1_555
In5_6 N2_4 1_555 1_555
In6_6 N6_4 1_555 1_555
N7_4 In3_6 1_555 1_555
N2_4 C4_4 1_555 1_555
C4_4 C5_4 1_555 1_555
O5_4 In5_6 1_555 1_555
C7_4 O8_4 1_555 1_555
C9_4 C10_4 1_555 1_555
O10_4 In3_6 1_555 1_555
O12_4 In4_6 1_555 1_555
N6_4 C14_4 1_555 1_555
C14_4 C15_4 1_555 1_555
O14_4 In6_6 1_555 1_555
O18_4 H12_4 1_555 1_555
O18_5 In6 1_555 1_555
H9_5 O18_5 1_555 1_555
N7_5 In6 1_555 1_555
O18_5 H12_5 1_555 1_555
O15_5 In6_2 1_555 1_555
H6_5 O15_5 1_555 1_555
O17_5 In4 1_555 1_555
O19_5 In6_2 1_555 1_555
O15_5 H15_5 1_555 1_555
O7_5 In4_2 1_555 1_555
N9_5 In4_2 1_555 1_555
O7_6 In4_6 1_555 1_555
H4_6 O7_6 1_555 1_555
O15_6 In6_6 1_555 1_555
H6_6 O15_6 1_555 1_555
O17_6 In4_6 1_555 1_555
H8_6 O17_6 1_555 1_555
O18_6 In6_6 1_555 1_555
H9_6 O18_6 1_555 1_555
N7_6 In6_6 1_555 1_555
N9_6 In4_6 1_555 1_555
O19_6 In6_6 1_555 1_555
O21_6 In4_6 1_555 1_555
O7_6 H11_6 1_555 1_555
O18_6 H12_6 1_555 1_555
O17_6 H14_6 1_555 1_555
O15_6 H15_6 1_555 1_555
O7_7 In4_3 1_555 1_555
N9_7 In4_3 1_555 1_555
O21_7 In4_3 1_555 1_555
O15_7 In6_3 1_555 1_555
H6_7 O15_7 1_555 1_555
O17_7 In4_4 1_555 1_555
O18_7 In6_3 1_555 1_555
H9_7 O18_7 1_555 1_555
N7_7 In6_3 1_555 1_555
O19_7 In6_3 1_555 1_555
O18_7 H12_7 1_555 1_555
O15_7 H15_7 1_555 1_555
O7_8 In4_5 1_555 1_555
H4_8 O7_8 1_555 1_555
O15_8 In6_4 1_555 1_555
H6_8 O15_8 1_555 1_555
O17_8 In4_5 1_555 1_555
H8_8 O17_8 1_555 1_555
N9_8 In4_5 1_555 1_555
O19_8 In6_4 1_555 1_555
O7_8 H11_8 1_555 1_555
O17_8 H14_8 1_555 1_555
O15_8 H15_8 1_555 1_555
O18_8 In6_5 1_555 1_555
H9_8 O18_8 1_555 1_555
N7_8 In6_5 1_555 1_555
O18_8 H12_8 1_555 1_555
O18_9 In5 1_555 1_555
H9_9 O18_9 1_555 1_555
N7_9 In5 1_555 1_555
O18_9 H12_9 1_555 1_555
O15_9 In5_2 1_555 1_555
H6_9 O15_9 1_555 1_555
O19_9 In5_2 1_555 1_555
O15_9 H15_9 1_555 1_555
O15_10 In5_5 1_555 1_555
H6_10 O15_10 1_555 1_555
O18_10 In5_5 1_555 1_555
H9_10 O18_10 1_555 1_555
N7_10 In5_5 1_555 1_555
O19_10 In5_5 1_555 1_555
O18_10 H12_10 1_555 1_555
O15_10 H15_10 1_555 1_555
O15_11 In5_6 1_555 1_555
H6_11 O15_11 1_555 1_555
O18_11 In5_6 1_555 1_555
H9_11 O18_11 1_555 1_555
N7_11 In5_6 1_555 1_555
O19_11 In5_6 1_555 1_555
O18_11 H12_11 1_555 1_555
O15_11 H15_11 1_555 1_555
O15_12 In5_3 1_555 1_555
H6_12 O15_12 1_555 1_555
O19_12 In5_3 1_555 1_555
O15_12 H15_12 1_555 1_555
O18_12 In5_4 1_555 1_555
H9_12 O18_12 1_555 1_555
N7_12 In5_4 1_555 1_555
O18_12 H12_12 1_555 1_555
C8_5 N7_5 1_555 1_555
H3_5 C8_5 1_555 1_555
N9_8 C8_5 1_555 1_555
Mn1_5 O1_5 1_555 1_555
N7_10 C1_5 1_555 1_555
O1_5 C2_5 1_555 1_555
C1_5 C2_5 1_555 1_555
C2_5 O19_10 1_555 1_555
C3_5 N7_10 1_555 1_555
H1_5 C3_5 1_555 1_555
N8_4 C3_5 1_555 1_555
O4_5 Mn1_5 1_555 1_555
C4_5 C1_5 1_555 1_555
C5_5 O4_5 1_555 1_555
O20_4 C5_5 1_555 1_555
O6_5 Mn1_5 1_555 1_555
C6_5 C7_5 1_555 1_555
C7_5 O6_5 1_555 1_555
O9_5 Mn1_5 1_555 1_555
C9_5 C6_5 1_555 1_555
C10_5 O9_5 1_555 1_555
O21_8 C10_5 1_555 1_555
O11_5 Mn1_5 1_555 1_555
C11_5 C12_5 1_555 1_555
C12_5 O11_5 1_555 1_555
O19_4 C12_5 1_555 1_555
O13_5 Mn1_5 1_555 1_555
C14_5 C11_5 1_555 1_555
C15_5 O13_5 1_555 1_555
O21 C15_5 1_555 1_555
N8_4 C4_5 1_555 1_555
C4_5 C5_5 1_555 1_555
C7_5 O19_5 1_555 1_555
C9_5 C10_5 1_555 1_555
C14_5 C15_5 1_555 1_555
C13_5 N7_4 1_555 1_555
H5_5 C13_5 1_555 1_555
N9 C13_5 1_555 1_555
Mn1_6 O1_6 1_555 1_555
N7_11 C1_6 1_555 1_555
O1_6 C2_6 1_555 1_555
C1_6 C2_6 1_555 1_555
C2_6 O19_11 1_555 1_555
C3_6 N7_11 1_555 1_555
H1_6 C3_6 1_555 1_555
N8_3 C3_6 1_555 1_555
O4_6 Mn1_6 1_555 1_555
C4_6 C1_6 1_555 1_555
C5_6 O4_6 1_555 1_555
O20_3 C5_6 1_555 1_555
N7_7 C6_6 1_555 1_555
O6_6 Mn1_6 1_555 1_555
C6_6 C7_6 1_555 1_555
C7_6 O6_6 1_555 1_555
C8_6 N7_7 1_555 1_555
H3_6 C8_6 1_555 1_555
N9_6 C8_6 1_555 1_555
O9_6 Mn1_6 1_555 1_555
C9_6 C6_6 1_555 1_555
C10_6 O9_6 1_555 1_555
O21_6 C10_6 1_555 1_555
N7_3 C11_6 1_555 1_555
O11_6 Mn1_6 1_555 1_555
C11_6 C12_6 1_555 1_555
C12_6 O11_6 1_555 1_555
C13_6 N7_3 1_555 1_555
H5_6 C13_6 1_555 1_555
O19_3 C12_6 1_555 1_555
N9_2 C13_6 1_555 1_555
O13_6 Mn1_6 1_555 1_555
C14_6 C11_6 1_555 1_555
C15_6 O13_6 1_555 1_555
O21_2 C15_6 1_555 1_555
N8_3 C4_6 1_555 1_555
C4_6 C5_6 1_555 1_555
C7_6 O19_7 1_555 1_555
N9_6 C9_6 1_555 1_555
C9_6 C10_6 1_555 1_555
N9_2 C14_6 1_555 1_555
C14_6 C15_6 1_555 1_555
C13_7 N7 1_555 1_555
H5_7 C13_7 1_555 1_555
N9_4 C13_7 1_555 1_555
Mn1_7 O1_7 1_555 1_555
O1_7 C2_7 1_555 1_555
C1_7 C2_7 1_555 1_555
C2_7 O19_12 1_555 1_555
O4_7 Mn1_7 1_555 1_555
C4_7 C1_7 1_555 1_555
C5_7 O4_7 1_555 1_555
O20 C5_7 1_555 1_555
N7_6 C6_7 1_555 1_555
O6_7 Mn1_7 1_555 1_555
C6_7 C7_7 1_555 1_555
C7_7 O6_7 1_555 1_555
C8_7 N7_6 1_555 1_555
H3_7 C8_7 1_555 1_555
N9_7 C8_7 1_555 1_555
O9_7 Mn1_7 1_555 1_555
C9_7 C6_7 1_555 1_555
C10_7 O9_7 1_555 1_555
O21_7 C10_7 1_555 1_555
O11_7 Mn1_7 1_555 1_555
C11_7 C12_7 1_555 1_555
C12_7 O11_7 1_555 1_555
O19 C12_7 1_555 1_555
O13_7 Mn1_7 1_555 1_555
C14_7 C11_7 1_555 1_555
C15_7 O13_7 1_555 1_555
O21_4 C15_7 1_555 1_555
C4_7 C5_7 1_555 1_555
C7_7 O19_6 1_555 1_555
N9_7 C9_7 1_555 1_555
C9_7 C10_7 1_555 1_555
C14_7 C15_7 1_555 1_555
C3_7 N7_12 1_555 1_555
H1_7 C3_7 1_555 1_555
N8 C3_7 1_555 1_555
C3_8 N7_9 1_555 1_555
H1_8 C3_8 1_555 1_555
N8_2 C3_8 1_555 1_555
Mn1_8 O1_8 1_555 1_555
O1_8 C2_8 1_555 1_555
C1_8 C2_8 1_555 1_555
C2_8 O19_9 1_555 1_555
O4_8 Mn1_8 1_555 1_555
C4_8 C1_8 1_555 1_555
C5_8 O4_8 1_555 1_555
O20_2 C5_8 1_555 1_555
O6_8 Mn1_8 1_555 1_555
C6_8 C7_8 1_555 1_555
C7_8 O6_8 1_555 1_555
O9_8 Mn1_8 1_555 1_555
C9_8 C6_8 1_555 1_555
C10_8 O9_8 1_555 1_555
O21_5 C10_8 1_555 1_555
N7_2 C11_8 1_555 1_555
O11_8 Mn1_8 1_555 1_555
C11_8 C12_8 1_555 1_555
C12_8 O11_8 1_555 1_555
C13_8 N7_2 1_555 1_555
H5_8 C13_8 1_555 1_555
O19_2 C12_8 1_555 1_555
N9_3 C13_8 1_555 1_555
O13_8 Mn1_8 1_555 1_555
C14_8 C11_8 1_555 1_555
C15_8 O13_8 1_555 1_555
O21_3 C15_8 1_555 1_555
C4_8 C5_8 1_555 1_555
C7_8 O19_8 1_555 1_555
C9_8 C10_8 1_555 1_555
N9_3 C14_8 1_555 1_555
C14_8 C15_8 1_555 1_555
C8_8 N7_8 1_555 1_555
H3_8 C8_8 1_555 1_555
N9_5 C8_8 1_555 1_555

#END
