
###############################################################################
#
# This file contains modified crystal structure data generated from the
# MOF subset of the Cambridge Structural Database (CSD) v543 
# hosted by the Cambridge Crystallographic Data Centre (CCDC).
#
# This work is licensed under the Creative Commons
# Attribution-NonCommercial-ShareAlike 4.0 International License.
# To view a copy of this license, visit
# http://creativecommons.org/licenses/by-nc-sa/4.0/
# or send a letter to
# Creative Commons, PO Box 1866, Mountain View, CA 94042, USA.
#
# CIF created using the CSD Python API on 29 September 2022
# The structure has been converted into the P1 space group
# The structure has a 3D framework
# The original CSD entry NETVAM is in the cubic crystal system
# The original CSD entry NETVAM is in a Sohncke space group
# The framework has been calculated to contain at least 10.0% void space
# The void calculation uses a probe of radius 1.32A, grid spacing 0.4
# The framework is charged, counterions have been retained in the structure
# H atom positions have been added when not included in the experimental data
#
###############################################################################

data_NETVAM
_chemical_formula_moiety         '(C120 H120 Co8 In36 N48 O144 30+)n'
_symmetry_cell_setting           triclinic
_symmetry_space_group_name_H-M   'P 1'
_symmetry_Int_Tables_number      1
_space_group_name_Hall           'P 1'
loop_
_symmetry_equiv_pos_site_id
_symmetry_equiv_pos_as_xyz
1 x,y,z
_cell_length_a                   24.9564(2)
_cell_length_b                   24.9564(2)
_cell_length_c                   24.9564(2)
_cell_angle_alpha                90
_cell_angle_beta                 90
_cell_angle_gamma                90
_cell_volume                     15543.4
loop_
_atom_site_label
_atom_site_type_symbol
_atom_site_fract_x
_atom_site_fract_y
_atom_site_fract_z
Co1 Co 0.1250 0.1250 0.1250
O1 O 0.1516(3) 0.0736(3) 0.0670(2)
C1 C 0.2220(3) 0.0174(3) 0.0981(2)
C2 C 0.1832(3) 0.0368(3) 0.0565(2)
O3 O 0.1878(2) 0.0144(3) 0.0125(2)
N2 N 0.2772(3) 0.0017(3) 0.17327(19)
O4 O 0.1764(3) 0.0984(3) 0.1830(2)
C4 C 0.2326(3) 0.0280(3) 0.1519(2)
C5 C 0.2132(3) 0.0668(3) 0.1935(2)
O5 O 0.2356(3) 0.0622(2) 0.2375(2)
O6 O 0.0670(2) 0.1516(3) 0.0736(3)
C6 C 0.0981(2) 0.2220(3) 0.0174(3)
C7 C 0.0565(2) 0.1832(3) 0.0368(3)
O8 O 0.0125(2) 0.1878(2) 0.0144(3)
N4 N 0.17327(19) 0.2772(3) 0.0017(3)
O9 O 0.1830(2) 0.1764(3) 0.0984(3)
C9 C 0.1519(2) 0.2326(3) 0.0280(3)
C10 C 0.1935(2) 0.2132(3) 0.0668(3)
O10 O 0.2375(2) 0.2356(3) 0.0622(2)
O11 O 0.0736(3) 0.0670(2) 0.1516(3)
C11 C 0.0174(3) 0.0981(2) 0.2220(3)
C12 C 0.0368(3) 0.0565(2) 0.1832(3)
O12 O 0.0144(3) 0.0125(2) 0.1878(2)
N6 N 0.0017(3) 0.17327(19) 0.2772(3)
O13 O 0.0984(3) 0.1830(2) 0.1764(3)
C14 C 0.0280(3) 0.1519(2) 0.2326(3)
C15 C 0.0668(3) 0.1935(2) 0.2132(3)
O14 O 0.0622(2) 0.2375(2) 0.2356(3)
In3 In 0.2500 0.29878(3) 0.0000
O18 O 0.2586(6) 0.3604(5) 0.0575(5)
H9 H 0.2299 0.3759 0.0612
In5 In 0.29878(3) 0.0000 0.2500
In6 In -0.0000 0.2500 0.29878(3)
H15 H 0.286193 0.386293 0.0451974
In2 In -0.0000 0.2500 0.95122(3)
N3 N 0.07673(19) 0.2483(3) 0.9728(3)
C8 C 0.1250 0.2847(3) 0.9653(3)
H3 H 0.1250 0.3111 0.9389
O7 O 0.0086(6) 0.3075(5) 0.8896(5)
In3_2 In 0.2500 0.29878(3) 1.0000
O15 O 0.2414(6) 0.3604(5) 0.9425(5)
H6 H 0.2701 0.3759 0.9388
H8 H 0.0201 0.1888 0.8741
N7 N 0.32673(19) 0.2772(3) 0.9983(3)
O19 O 0.2625(2) 0.2356(3) 0.9378(2)
O20 O 0.3122(2) 0.0144(3) 0.9875(2)
H11 H 0.0361931 0.295197 0.863707
H14 H 0.213807 0.386293 0.954803
In1 In 0.2500 0.95122(3) 0.0000
N1 N 0.2483(3) 0.9728(3) 0.07673(19)
C3 C 0.2847(3) 0.9653(3) 0.1250
H1 H 0.3111 0.9389 0.1250
O2 O 0.3075(5) 0.8896(5) 0.0086(6)
H7 H 0.1888 0.8741 0.0201
In5_2 In 0.29878(3) 1.0000 0.2500
H10 H 0.295197 0.863707 0.0361931
In1_2 In 0.2500 0.95122(3) 1.0000
H2 H 0.3112 0.8741 0.9799
O16 O 0.1925(5) 0.8896(5) 0.9914(6)
N8 N 0.2517(3) 0.9728(3) 0.92327(19)
H12 H 0.204803 0.863707 0.963807
N5 N 0.9728(3) 0.07673(19) 0.2483(3)
C13 C 0.9653(3) 0.1250 0.2847(3)
H5 H 0.9389 0.1250 0.3111
In4 In 0.95122(3) 0.0000 0.2500
In6_2 In 1.0000 0.2500 0.29878(3)
O21 O 0.9875(2) 0.3122(2) 0.0144(3)
In2_2 In 1.0000 0.2500 0.95122(3)
H4 H 0.9799 0.3112 0.8741
O17 O 0.9914(6) 0.1925(5) 0.8896(5)
N9 N 0.92327(19) 0.2517(3) 0.9728(3)
H13 H 0.963807 0.204803 0.863707
In4_2 In 0.95122(3) 1.0000 0.2500
In1_3 In 0.2500 0.04878(3) 0.5000
N1_2 N 0.2517(3) 0.0272(3) 0.57673(19)
C3_2 C 0.2153(3) 0.0347(3) 0.6250
H1_2 H 0.1889 0.0611 0.6250
O2_2 O 0.1925(5) 0.1104(5) 0.5086(6)
H2_2 H 0.1888 0.1259 0.4799
O16_2 O 0.3075(5) 0.1104(5) 0.4914(6)
H7_2 H 0.3112 0.1259 0.5201
In4_3 In 0.54878(3) 0.0000 0.7500
In5_3 In 0.20122(3) 0.0000 0.7500
N8_2 N 0.2483(3) 0.0272(3) 0.42327(19)
H10_2 H 0.204803 0.136293 0.536193
H12_2 H 0.295197 0.136293 0.463807
Co1_2 Co 0.3750 0.8750 0.6250
O1_2 O 0.3484(3) 0.9264(3) 0.5670(2)
C1_2 C 0.2780(3) 0.9826(3) 0.5981(2)
C2_2 C 0.3168(3) 0.9632(3) 0.5565(2)
O3_2 O 0.3122(2) 0.9856(3) 0.5125(2)
N2_2 N 0.2228(3) 0.9983(3) 0.67327(19)
O4_2 O 0.3236(3) 0.9016(3) 0.6830(2)
C4_2 C 0.2674(3) 0.9720(3) 0.6519(2)
C5_2 C 0.2868(3) 0.9332(3) 0.6935(2)
O5_2 O 0.2644(3) 0.9378(2) 0.7375(2)
In2_3 In 0.5000 0.7500 0.45122(3)
N3_2 N 0.42327(19) 0.7517(3) 0.4728(3)
O6_2 O 0.4330(2) 0.8484(3) 0.5736(3)
C6_2 C 0.4019(2) 0.7780(3) 0.5174(3)
C7_2 C 0.4435(2) 0.8168(3) 0.5368(3)
C8_2 C 0.3750 0.7153(3) 0.4653(3)
H3_2 H 0.3750 0.6889 0.4389
O7_2 O 0.4914(6) 0.6925(5) 0.3896(5)
H4_2 H 0.5201 0.6888 0.3741
O8_2 O 0.4875(2) 0.8122(2) 0.5144(3)
N4_2 N 0.32673(19) 0.7228(3) 0.5017(3)
O9_2 O 0.3170(2) 0.8236(3) 0.5984(3)
C9_2 C 0.3481(2) 0.7674(3) 0.5280(3)
C10_2 C 0.3065(2) 0.7868(3) 0.5668(3)
O10_2 O 0.2625(2) 0.7644(3) 0.5622(2)
N5_2 N 0.5272(3) 0.92327(19) 0.7483(3)
O11_2 O 0.4264(3) 0.9330(2) 0.6516(3)
C11_2 C 0.4826(3) 0.9019(2) 0.7220(3)
C12_2 C 0.4632(3) 0.9435(2) 0.6832(3)
C13_2 C 0.5347(3) 0.8750 0.7847(3)
H5_2 H 0.5611 0.8750 0.8111
O12_2 O 0.4856(3) 0.9875(2) 0.6878(2)
N6_2 N 0.4983(3) 0.82673(19) 0.7772(3)
O13_2 O 0.4016(3) 0.8170(2) 0.6764(3)
C14_2 C 0.4720(3) 0.8481(2) 0.7326(3)
C15_2 C 0.4332(3) 0.8065(2) 0.7132(3)
O14_2 O 0.4378(2) 0.7625(2) 0.7356(3)
In3_3 In 0.2500 0.70122(3) 0.5000
O15_2 O 0.2586(6) 0.6396(5) 0.4425(5)
H6_2 H 0.2299 0.6241 0.4388
O17_2 O 0.5086(6) 0.8075(5) 0.3896(5)
H8_2 H 0.4799 0.8112 0.3741
O18_2 O 0.2414(6) 0.6396(5) 0.5575(5)
H9_2 H 0.2701 0.6241 0.5612
In4_4 In 0.54878(3) 1.0000 0.7500
In5_4 In 0.20122(3) 1.0000 0.7500
In6_3 In 0.5000 0.7500 0.79878(3)
N7_2 N 0.17327(19) 0.7228(3) 0.4983(3)
N9_2 N 0.57673(19) 0.7483(3) 0.4728(3)
O19_2 O 0.2375(2) 0.7644(3) 0.4378(2)
O20_2 O 0.1878(2) 0.9856(3) 0.4875(2)
O21_2 O 0.5125(2) 0.6878(2) 0.5144(3)
H11_2 H 0.463807 0.704803 0.363707
H13_2 H 0.536193 0.795197 0.363707
H14_2 H 0.286193 0.613707 0.454803
H15_2 H 0.213807 0.613707 0.545197
In2_4 In 0.0000 0.7500 0.54878(3)
H4_3 H 0.0201 0.8112 0.6259
N5_3 N 0.0272(3) 0.57673(19) 0.2517(3)
C13_3 C 0.0347(3) 0.6250 0.2153(3)
H5_3 H 0.0611 0.6250 0.1889
O17_3 O 0.0086(6) 0.6925(5) 0.6104(5)
In4_5 In 0.04878(3) 0.5000 0.2500
In6_4 In 0.0000 0.7500 0.20122(3)
N9_3 N 0.07673(19) 0.7517(3) 0.5272(3)
O21_3 O 0.0125(2) 0.8122(2) 0.4856(3)
H13_3 H 0.0361931 0.704803 0.636293
In1_4 In 0.7500 0.45122(3) 0.5000
Co1_3 Co 0.8750 0.6250 0.3750
N1_3 N 0.7517(3) 0.4728(3) 0.42327(19)
O1_3 O 0.8484(3) 0.5736(3) 0.4330(2)
C1_3 C 0.7780(3) 0.5174(3) 0.4019(2)
C2_3 C 0.8168(3) 0.5368(3) 0.4435(2)
C3_3 C 0.7153(3) 0.4653(3) 0.3750
H1_3 H 0.6889 0.4389 0.3750
O2_3 O 0.6925(5) 0.3896(5) 0.4914(6)
H2_3 H 0.6888 0.3741 0.5201
O3_3 O 0.8122(2) 0.5144(3) 0.4875(2)
N2_3 N 0.7228(3) 0.5017(3) 0.32673(19)
O4_3 O 0.8236(3) 0.5984(3) 0.3170(2)
C4_3 C 0.7674(3) 0.5280(3) 0.3481(2)
C5_3 C 0.7868(3) 0.5668(3) 0.3065(2)
O5_3 O 0.7644(3) 0.5622(2) 0.2625(2)
In2_5 In 1.0000 0.7500 0.54878(3)
N3_3 N 0.92327(19) 0.7483(3) 0.5272(3)
O6_3 O 0.9330(2) 0.6516(3) 0.4264(3)
C6_3 C 0.9019(2) 0.7220(3) 0.4826(3)
C7_3 C 0.9435(2) 0.6832(3) 0.4632(3)
C8_3 C 0.8750 0.7847(3) 0.5347(3)
H3_3 H 0.8750 0.8111 0.5611
O7_3 O 0.9914(6) 0.8075(5) 0.6104(5)
O8_3 O 0.9875(2) 0.6878(2) 0.4856(3)
N4_3 N 0.82673(19) 0.7772(3) 0.4983(3)
O9_3 O 0.8170(2) 0.6764(3) 0.4016(3)
C9_3 C 0.8481(2) 0.7326(3) 0.4720(3)
C10_3 C 0.8065(2) 0.7132(3) 0.4332(3)
O10_3 O 0.7625(2) 0.7356(3) 0.4378(2)
O11_3 O 0.9264(3) 0.5670(2) 0.3484(3)
C11_3 C 0.9826(3) 0.5981(2) 0.2780(3)
C12_3 C 0.9632(3) 0.5565(2) 0.3168(3)
O12_3 O 0.9856(3) 0.5125(2) 0.3122(2)
N6_3 N 0.9983(3) 0.67327(19) 0.2228(3)
O13_3 O 0.9016(3) 0.6830(2) 0.3236(3)
C14_3 C 0.9720(3) 0.6519(2) 0.2674(3)
C15_3 C 0.9332(3) 0.6935(2) 0.2868(3)
O14_3 O 0.9378(2) 0.7375(2) 0.2644(3)
In3_4 In 0.7500 0.79878(3) 0.5000
O15_3 O 0.7586(6) 0.8604(5) 0.5575(5)
H6_3 H 0.7299 0.8759 0.5612
O16_3 O 0.8075(5) 0.3896(5) 0.5086(6)
H7_3 H 0.8112 0.3741 0.4799
H8_3 H 0.9799 0.6888 0.6259
O18_3 O 0.7414(6) 0.8604(5) 0.4425(5)
H9_3 H 0.7701 0.8759 0.4388
In5_5 In 0.70122(3) 0.5000 0.2500
In6_5 In 1.0000 0.7500 0.20122(3)
N7_3 N 0.67327(19) 0.7772(3) 0.5017(3)
N8_3 N 0.7483(3) 0.4728(3) 0.57673(19)
O19_3 O 0.7375(2) 0.7356(3) 0.5622(2)
O20_3 O 0.6878(2) 0.5144(3) 0.5125(2)
H10_3 H 0.704803 0.363707 0.463807
H11_3 H 0.963807 0.795197 0.636293
H12_3 H 0.795197 0.363707 0.536193
H14_3 H 0.786193 0.886293 0.545197
H15_3 H 0.713807 0.886293 0.454803
In1_5 In 0.7500 0.54878(3) 0.0000
H2_4 H 0.8112 0.6259 0.0201
In2_6 In 0.5000 0.2500 0.04878(3)
N3_4 N 0.57673(19) 0.2517(3) 0.0272(3)
C8_4 C 0.6250 0.2153(3) 0.0347(3)
H3_4 H 0.6250 0.1889 0.0611
O7_4 O 0.5086(6) 0.1925(5) 0.1104(5)
H4_4 H 0.4799 0.1888 0.1259
In3_5 In 0.7500 0.20122(3) 0.0000
O15_4 O 0.7414(6) 0.1396(5) 0.0575(5)
H6_4 H 0.7701 0.1241 0.0612
O16_4 O 0.6925(5) 0.6104(5) 0.0086(6)
O17_4 O 0.4914(6) 0.3075(5) 0.1104(5)
H8_4 H 0.5201 0.3112 0.1259
N7_4 N 0.82673(19) 0.2228(3) 0.0017(3)
N8_4 N 0.7517(3) 0.5272(3) 0.07673(19)
N9_4 N 0.42327(19) 0.2483(3) 0.0272(3)
O19_4 O 0.7625(2) 0.2644(3) 0.0622(2)
O20_4 O 0.8122(2) 0.4856(3) 0.0125(2)
H11_4 H 0.536193 0.204803 0.136293
H12_4 H 0.704803 0.636293 0.0361931
H13_4 H 0.463807 0.295197 0.136293
H14_4 H 0.713807 0.113707 0.0451974
In1_6 In 0.7500 0.54878(3) 1.0000
Co1_4 Co 0.6250 0.3750 0.8750
N1_4 N 0.7483(3) 0.5272(3) 0.92327(19)
O1_4 O 0.6516(3) 0.4264(3) 0.9330(2)
C1_4 C 0.7220(3) 0.4826(3) 0.9019(2)
C2_4 C 0.6832(3) 0.4632(3) 0.9435(2)
C3_4 C 0.7847(3) 0.5347(3) 0.8750
H1_4 H 0.8111 0.5611 0.8750
O2_4 O 0.8075(5) 0.6104(5) 0.9914(6)
O3_4 O 0.6878(2) 0.4856(3) 0.9875(2)
N2_4 N 0.7772(3) 0.4983(3) 0.82673(19)
O4_4 O 0.6764(3) 0.4016(3) 0.8170(2)
C4_4 C 0.7326(3) 0.4720(3) 0.8481(2)
C5_4 C 0.7132(3) 0.4332(3) 0.8065(2)
O5_4 O 0.7356(3) 0.4378(2) 0.7625(2)
O6_4 O 0.5670(2) 0.3484(3) 0.9264(3)
C6_4 C 0.5981(2) 0.2780(3) 0.9826(3)
C7_4 C 0.5565(2) 0.3168(3) 0.9632(3)
O8_4 O 0.5125(2) 0.3122(2) 0.9856(3)
N4_4 N 0.67327(19) 0.2228(3) 0.9983(3)
O9_4 O 0.6830(2) 0.3236(3) 0.9016(3)
C9_4 C 0.6519(2) 0.2674(3) 0.9720(3)
C10_4 C 0.6935(2) 0.2868(3) 0.9332(3)
O10_4 O 0.7375(2) 0.2644(3) 0.9378(2)
N5_4 N 0.4728(3) 0.42327(19) 0.7517(3)
O11_4 O 0.5736(3) 0.4330(2) 0.8484(3)
C11_4 C 0.5174(3) 0.4019(2) 0.7780(3)
C12_4 C 0.5368(3) 0.4435(2) 0.8168(3)
C13_4 C 0.4653(3) 0.3750 0.7153(3)
H5_4 H 0.4389 0.3750 0.6889
O12_4 O 0.5144(3) 0.4875(2) 0.8122(2)
N6_4 N 0.5017(3) 0.32673(19) 0.7228(3)
O13_4 O 0.5984(3) 0.3170(2) 0.8236(3)
C14_4 C 0.5280(3) 0.3481(2) 0.7674(3)
C15_4 C 0.5668(3) 0.3065(2) 0.7868(3)
O14_4 O 0.5622(2) 0.2625(2) 0.7644(3)
In3_6 In 0.7500 0.20122(3) 1.0000
H7_4 H 0.6888 0.6259 0.9799
O18_4 O 0.7586(6) 0.1396(5) 0.9425(5)
H9_4 H 0.7299 0.1241 0.9388
In4_6 In 0.45122(3) 0.5000 0.7500
In5_6 In 0.79878(3) 0.5000 0.7500
In6_6 In 0.5000 0.2500 0.70122(3)
O21_4 O 0.4875(2) 0.1878(2) 0.9856(3)
H10_4 H 0.795197 0.636293 0.963807
H15_4 H 0.786193 0.113707 0.954803
O18_5 O 0.0575(5) 0.2586(6) 0.3604(5)
H9_5 H 0.0612 0.2299 0.3759
H15_5 H 0.0451974 0.286193 0.386293
O21_5 O 0.0144(3) 0.9875(2) 0.3122(2)
O7_5 O 0.8896(5) 0.0086(6) 0.3075(5)
O15_5 O 0.9425(5) 0.2414(6) 0.3604(5)
H6_5 H 0.9388 0.2701 0.3759
H8_5 H 0.8741 0.0201 0.1888
N7_5 N 0.9983(3) 0.32673(19) 0.2772(3)
O19_5 O 0.9378(2) 0.2625(2) 0.2356(3)
H11_5 H 0.863707 0.0361931 0.295197
H14_5 H 0.954803 0.213807 0.386293
H4_5 H 0.8741 0.9799 0.3112
O17_5 O 0.8896(5) 0.9914(6) 0.1925(5)
N9_5 N 0.9728(3) 0.92327(19) 0.2517(3)
H13_5 H 0.863707 0.963807 0.204803
O7_6 O 0.3896(5) 0.4914(6) 0.6925(5)
H4_6 H 0.3741 0.5201 0.6888
O15_6 O 0.4425(5) 0.2586(6) 0.6396(5)
H6_6 H 0.4388 0.2299 0.6241
O17_6 O 0.3896(5) 0.5086(6) 0.8075(5)
H8_6 H 0.3741 0.4799 0.8112
O18_6 O 0.5575(5) 0.2414(6) 0.6396(5)
H9_6 H 0.5612 0.2701 0.6241
N7_6 N 0.4983(3) 0.17327(19) 0.7228(3)
N9_6 N 0.4728(3) 0.57673(19) 0.7483(3)
O19_6 O 0.4378(2) 0.2375(2) 0.7644(3)
O21_6 O 0.5144(3) 0.5125(2) 0.6878(2)
H11_6 H 0.363707 0.463807 0.704803
H13_6 H 0.363707 0.536193 0.795197
H14_6 H 0.454803 0.286193 0.613707
H15_6 H 0.545197 0.213807 0.613707
H4_7 H 0.6259 0.0201 0.8112
O17_7 O 0.6104(5) 0.0086(6) 0.6925(5)
N9_7 N 0.5272(3) 0.07673(19) 0.7517(3)
O21_7 O 0.4856(3) 0.0125(2) 0.8122(2)
H13_7 H 0.636293 0.0361931 0.704803
O7_7 O 0.6104(5) 0.9914(6) 0.8075(5)
O15_7 O 0.5575(5) 0.7586(6) 0.8604(5)
H6_7 H 0.5612 0.7299 0.8759
H8_7 H 0.6259 0.9799 0.6888
O18_7 O 0.4425(5) 0.7414(6) 0.8604(5)
H9_7 H 0.4388 0.7701 0.8759
N7_7 N 0.5017(3) 0.67327(19) 0.7772(3)
O19_7 O 0.5622(2) 0.7375(2) 0.7356(3)
H11_7 H 0.636293 0.963807 0.795197
H14_7 H 0.545197 0.786193 0.886293
H15_7 H 0.454803 0.713807 0.886293
O7_8 O 0.1104(5) 0.5086(6) 0.1925(5)
H4_8 H 0.1259 0.4799 0.1888
O15_8 O 0.0575(5) 0.7414(6) 0.1396(5)
H6_8 H 0.0612 0.7701 0.1241
O17_8 O 0.1104(5) 0.4914(6) 0.3075(5)
H8_8 H 0.1259 0.5201 0.3112
N7_8 N 0.0017(3) 0.82673(19) 0.2228(3)
N9_8 N 0.0272(3) 0.42327(19) 0.2483(3)
O19_8 O 0.0622(2) 0.7625(2) 0.2644(3)
H11_8 H 0.136293 0.536193 0.204803
H13_8 H 0.136293 0.463807 0.295197
H14_8 H 0.0451974 0.713807 0.113707
O18_8 O 0.9425(5) 0.7586(6) 0.1396(5)
H9_8 H 0.9388 0.7299 0.1241
O21_8 O 0.9856(3) 0.4875(2) 0.1878(2)
H15_8 H 0.954803 0.786193 0.113707
O18_9 O 0.3604(5) 0.0575(5) 0.2586(6)
H9_9 H 0.3759 0.0612 0.2299
H15_9 H 0.386293 0.0451974 0.286193
O15_9 O 0.3604(5) 0.9425(5) 0.2414(6)
H6_9 H 0.3759 0.9388 0.2701
N7_9 N 0.2772(3) 0.9983(3) 0.32673(19)
O19_9 O 0.2356(3) 0.9378(2) 0.2625(2)
H14_9 H 0.386293 0.954803 0.213807
O15_10 O 0.6396(5) 0.4425(5) 0.2586(6)
H6_10 H 0.6241 0.4388 0.2299
O18_10 O 0.6396(5) 0.5575(5) 0.2414(6)
H9_10 H 0.6241 0.5612 0.2701
N7_10 N 0.7228(3) 0.4983(3) 0.17327(19)
O19_10 O 0.7644(3) 0.4378(2) 0.2375(2)
H14_10 H 0.613707 0.454803 0.286193
H15_10 H 0.613707 0.545197 0.213807
O15_11 O 0.8604(5) 0.5575(5) 0.7586(6)
H6_11 H 0.8759 0.5612 0.7299
O18_11 O 0.8604(5) 0.4425(5) 0.7414(6)
H9_11 H 0.8759 0.4388 0.7701
N7_11 N 0.7772(3) 0.5017(3) 0.67327(19)
O19_11 O 0.7356(3) 0.5622(2) 0.7375(2)
H14_11 H 0.886293 0.545197 0.786193
H15_11 H 0.886293 0.454803 0.713807
O15_12 O 0.1396(5) 0.0575(5) 0.7414(6)
H6_12 H 0.1241 0.0612 0.7701
N7_12 N 0.2228(3) 0.0017(3) 0.82673(19)
O19_12 O 0.2644(3) 0.0622(2) 0.7625(2)
H14_12 H 0.113707 0.0451974 0.713807
O18_12 O 0.1396(5) 0.9425(5) 0.7586(6)
H9_12 H 0.1241 0.9388 0.7299
H15_12 H 0.113707 0.954803 0.786193
C8_5 C 0.0347(3) 0.3750 0.2847(3)
H3_5 H 0.0611 0.3750 0.3111
Co1_5 Co 0.8750 0.3750 0.1250
O1_5 O 0.8236(3) 0.4016(3) 0.1830(2)
C1_5 C 0.7674(3) 0.4720(3) 0.1519(2)
C2_5 C 0.7868(3) 0.4332(3) 0.1935(2)
C3_5 C 0.7153(3) 0.5347(3) 0.1250
H1_5 H 0.6889 0.5611 0.1250
O4_5 O 0.8484(3) 0.4264(3) 0.0670(2)
C4_5 C 0.7780(3) 0.4826(3) 0.0981(2)
C5_5 C 0.8168(3) 0.4632(3) 0.0565(2)
O6_5 O 0.9016(3) 0.3170(2) 0.1764(3)
C6_5 C 0.9720(3) 0.3481(2) 0.2326(3)
C7_5 C 0.9332(3) 0.3065(2) 0.2132(3)
O9_5 O 0.9264(3) 0.4330(2) 0.1516(3)
C9_5 C 0.9826(3) 0.4019(2) 0.2220(3)
C10_5 C 0.9632(3) 0.4435(2) 0.1832(3)
O11_5 O 0.8170(2) 0.3236(3) 0.0984(3)
C11_5 C 0.8481(2) 0.2674(3) 0.0280(3)
C12_5 C 0.8065(2) 0.2868(3) 0.0668(3)
O13_5 O 0.9330(2) 0.3484(3) 0.0736(3)
C14_5 C 0.9019(2) 0.2780(3) 0.0174(3)
C15_5 C 0.9435(2) 0.3168(3) 0.0368(3)
C13_5 C 0.8750 0.2153(3) 0.9653(3)
H5_5 H 0.8750 0.1889 0.9389
Co1_6 Co 0.6250 0.6250 0.6250
O1_6 O 0.6764(3) 0.5984(3) 0.6830(2)
C1_6 C 0.7326(3) 0.5280(3) 0.6519(2)
C2_6 C 0.7132(3) 0.5668(3) 0.6935(2)
C3_6 C 0.7847(3) 0.4653(3) 0.6250
H1_6 H 0.8111 0.4389 0.6250
O4_6 O 0.6516(3) 0.5736(3) 0.5670(2)
C4_6 C 0.7220(3) 0.5174(3) 0.5981(2)
C5_6 C 0.6832(3) 0.5368(3) 0.5565(2)
O6_6 O 0.5984(3) 0.6830(2) 0.6764(3)
C6_6 C 0.5280(3) 0.6519(2) 0.7326(3)
C7_6 C 0.5668(3) 0.6935(2) 0.7132(3)
C8_6 C 0.4653(3) 0.6250 0.7847(3)
H3_6 H 0.4389 0.6250 0.8111
O9_6 O 0.5736(3) 0.5670(2) 0.6516(3)
C9_6 C 0.5174(3) 0.5981(2) 0.7220(3)
C10_6 C 0.5368(3) 0.5565(2) 0.6832(3)
O11_6 O 0.6830(2) 0.6764(3) 0.5984(3)
C11_6 C 0.6519(2) 0.7326(3) 0.5280(3)
C12_6 C 0.6935(2) 0.7132(3) 0.5668(3)
C13_6 C 0.6250 0.7847(3) 0.4653(3)
H5_6 H 0.6250 0.8111 0.4389
O13_6 O 0.5670(2) 0.6516(3) 0.5736(3)
C14_6 C 0.5981(2) 0.7220(3) 0.5174(3)
C15_6 C 0.5565(2) 0.6832(3) 0.5368(3)
C13_7 C 0.3750 0.2847(3) 0.0347(3)
H5_7 H 0.3750 0.3111 0.0611
Co1_7 Co 0.3750 0.1250 0.8750
O1_7 O 0.3236(3) 0.0984(3) 0.8170(2)
C1_7 C 0.2674(3) 0.0280(3) 0.8481(2)
C2_7 C 0.2868(3) 0.0668(3) 0.8065(2)
O4_7 O 0.3484(3) 0.0736(3) 0.9330(2)
C4_7 C 0.2780(3) 0.0174(3) 0.9019(2)
C5_7 C 0.3168(3) 0.0368(3) 0.9435(2)
O6_7 O 0.4016(3) 0.1830(2) 0.8236(3)
C6_7 C 0.4720(3) 0.1519(2) 0.7674(3)
C7_7 C 0.4332(3) 0.1935(2) 0.7868(3)
C8_7 C 0.5347(3) 0.1250 0.7153(3)
H3_7 H 0.5611 0.1250 0.6889
O9_7 O 0.4264(3) 0.0670(2) 0.8484(3)
C9_7 C 0.4826(3) 0.0981(2) 0.7780(3)
C10_7 C 0.4632(3) 0.0565(2) 0.8168(3)
O11_7 O 0.3170(2) 0.1764(3) 0.9016(3)
C11_7 C 0.3481(2) 0.2326(3) 0.9720(3)
C12_7 C 0.3065(2) 0.2132(3) 0.9332(3)
O13_7 O 0.4330(2) 0.1516(3) 0.9264(3)
C14_7 C 0.4019(2) 0.2220(3) 0.9826(3)
C15_7 C 0.4435(2) 0.1832(3) 0.9632(3)
C3_7 C 0.2153(3) 0.9653(3) 0.8750
H1_7 H 0.1889 0.9389 0.8750
C3_8 C 0.2847(3) 0.0347(3) 0.3750
H1_8 H 0.3111 0.0611 0.3750
Co1_8 Co 0.1250 0.8750 0.3750
O1_8 O 0.1764(3) 0.9016(3) 0.3170(2)
C1_8 C 0.2326(3) 0.9720(3) 0.3481(2)
C2_8 C 0.2132(3) 0.9332(3) 0.3065(2)
O4_8 O 0.1516(3) 0.9264(3) 0.4330(2)
C4_8 C 0.2220(3) 0.9826(3) 0.4019(2)
C5_8 C 0.1832(3) 0.9632(3) 0.4435(2)
O6_8 O 0.0984(3) 0.8170(2) 0.3236(3)
C6_8 C 0.0280(3) 0.8481(2) 0.2674(3)
C7_8 C 0.0668(3) 0.8065(2) 0.2868(3)
O9_8 O 0.0736(3) 0.9330(2) 0.3484(3)
C9_8 C 0.0174(3) 0.9019(2) 0.2780(3)
C10_8 C 0.0368(3) 0.9435(2) 0.3168(3)
O11_8 O 0.1830(2) 0.8236(3) 0.4016(3)
C11_8 C 0.1519(2) 0.7674(3) 0.4720(3)
C12_8 C 0.1935(2) 0.7868(3) 0.4332(3)
C13_8 C 0.1250 0.7153(3) 0.5347(3)
H5_8 H 0.1250 0.6889 0.5611
O13_8 O 0.0670(2) 0.8484(3) 0.4264(3)
C14_8 C 0.0981(2) 0.7780(3) 0.4826(3)
C15_8 C 0.0565(2) 0.8168(3) 0.4632(3)
C8_8 C 0.9653(3) 0.8750 0.2153(3)
H3_8 H 0.9389 0.8750 0.1889
loop_
_geom_bond_atom_site_label_1
_geom_bond_atom_site_label_2
_geom_bond_site_symmetry_1
_geom_bond_site_symmetry_2
Co1 O1 1_555 1_555
O1 C2 1_555 1_555
C1 C2 1_555 1_555
C2 O3 1_555 1_555
O4 Co1 1_555 1_555
C4 C1 1_555 1_555
C5 O4 1_555 1_555
O5 C5 1_555 1_555
O6 Co1 1_555 1_555
C6 C7 1_555 1_555
C7 O6 1_555 1_555
O9 Co1 1_555 1_555
C9 C6 1_555 1_555
C10 O9 1_555 1_555
O10 C10 1_555 1_555
O11 Co1 1_555 1_555
C11 C12 1_555 1_555
C12 O11 1_555 1_555
O12 C12 1_555 1_555
O13 Co1 1_555 1_555
C14 C11 1_555 1_555
C15 O13 1_555 1_555
O14 C15 1_555 1_555
In3 N4 1_555 1_555
O18 In3 1_555 1_555
H9 O18 1_555 1_555
In5 N2 1_555 1_555
In6 N6 1_555 1_555
N2 C4 1_555 1_555
C4 C5 1_555 1_555
O5 In5 1_555 1_555
C7 O8 1_555 1_555
N4 C9 1_555 1_555
C9 C10 1_555 1_555
O10 In3 1_555 1_555
N6 C14 1_555 1_555
C14 C15 1_555 1_555
O14 In6 1_555 1_555
O18 H15 1_555 1_555
In2 N3 1_555 1_555
C8 N3 1_555 1_555
H3 C8 1_555 1_555
O7 In2 1_555 1_555
O15 In3_2 1_555 1_555
H6 O15 1_555 1_555
N7 In3_2 1_555 1_555
O19 In3_2 1_555 1_555
O7 H11 1_555 1_555
O15 H14 1_555 1_555
In1 N1 1_555 1_555
C3 N1 1_555 1_555
H1 C3 1_555 1_555
O2 In1 1_555 1_555
O2 H10 1_555 1_555
O16 In1_2 1_555 1_555
N8 In1_2 1_555 1_555
O16 H12 1_555 1_555
C13 N5 1_555 1_555
H5 C13 1_555 1_555
In4 N5 1_555 1_555
O17 In2_2 1_555 1_555
N9 In2_2 1_555 1_555
O17 H13 1_555 1_555
In1_3 N1_2 1_555 1_555
C3_2 N1_2 1_555 1_555
H1_2 C3_2 1_555 1_555
O2_2 In1_3 1_555 1_555
H2_2 O2_2 1_555 1_555
O16_2 In1_3 1_555 1_555
H7_2 O16_2 1_555 1_555
N8_2 In1_3 1_555 1_555
O2_2 H10_2 1_555 1_555
O16_2 H12_2 1_555 1_555
Co1_2 O1_2 1_555 1_555
O1_2 C2_2 1_555 1_555
C1_2 C2_2 1_555 1_555
C2_2 O3_2 1_555 1_555
O4_2 Co1_2 1_555 1_555
C4_2 C1_2 1_555 1_555
C5_2 O4_2 1_555 1_555
O5_2 C5_2 1_555 1_555
In2_3 N3_2 1_555 1_555
N3_2 C6_2 1_555 1_555
O6_2 Co1_2 1_555 1_555
C6_2 C7_2 1_555 1_555
C7_2 O6_2 1_555 1_555
C8_2 N3_2 1_555 1_555
H3_2 C8_2 1_555 1_555
O7_2 In2_3 1_555 1_555
H4_2 O7_2 1_555 1_555
O8_2 In2_3 1_555 1_555
N4_2 C8_2 1_555 1_555
O9_2 Co1_2 1_555 1_555
C9_2 C6_2 1_555 1_555
C10_2 O9_2 1_555 1_555
O10_2 C10_2 1_555 1_555
N5_2 C11_2 1_555 1_555
O11_2 Co1_2 1_555 1_555
C11_2 C12_2 1_555 1_555
C12_2 O11_2 1_555 1_555
C13_2 N5_2 1_555 1_555
H5_2 C13_2 1_555 1_555
O12_2 C12_2 1_555 1_555
N6_2 C13_2 1_555 1_555
O13_2 Co1_2 1_555 1_555
C14_2 C11_2 1_555 1_555
C15_2 O13_2 1_555 1_555
O14_2 C15_2 1_555 1_555
In3_3 N4_2 1_555 1_555
O15_2 In3_3 1_555 1_555
H6_2 O15_2 1_555 1_555
O17_2 In2_3 1_555 1_555
H8_2 O17_2 1_555 1_555
O18_2 In3_3 1_555 1_555
H9_2 O18_2 1_555 1_555
In4_4 N5_2 1_555 1_555
In5_4 N2_2 1_555 1_555
In6_3 N6_2 1_555 1_555
N7_2 In3_3 1_555 1_555
N9_2 In2_3 1_555 1_555
O19_2 In3_3 1_555 1_555
O21_2 In2_3 1_555 1_555
N2_2 C4_2 1_555 1_555
C4_2 C5_2 1_555 1_555
O5_2 In5_4 1_555 1_555
C7_2 O8_2 1_555 1_555
N4_2 C9_2 1_555 1_555
C9_2 C10_2 1_555 1_555
O10_2 In3_3 1_555 1_555
O12_2 In4_4 1_555 1_555
N6_2 C14_2 1_555 1_555
C14_2 C15_2 1_555 1_555
O14_2 In6_3 1_555 1_555
O7_2 H11_2 1_555 1_555
O17_2 H13_2 1_555 1_555
O15_2 H14_2 1_555 1_555
O18_2 H15_2 1_555 1_555
C13_3 N5_3 1_555 1_555
H5_3 C13_3 1_555 1_555
O17_3 In2_4 1_555 1_555
In4_5 N5_3 1_555 1_555
N9_3 In2_4 1_555 1_555
O21_3 In2_4 1_555 1_555
O17_3 H13_3 1_555 1_555
In1_4 N1_3 1_555 1_555
Co1_3 O1_3 1_555 1_555
N1_3 C1_3 1_555 1_555
O1_3 C2_3 1_555 1_555
C1_3 C2_3 1_555 1_555
C2_3 O3_3 1_555 1_555
C3_3 N1_3 1_555 1_555
H1_3 C3_3 1_555 1_555
O2_3 In1_4 1_555 1_555
H2_3 O2_3 1_555 1_555
O3_3 In1_4 1_555 1_555
N2_3 C3_3 1_555 1_555
O4_3 Co1_3 1_555 1_555
C4_3 C1_3 1_555 1_555
C5_3 O4_3 1_555 1_555
O5_3 C5_3 1_555 1_555
In2_5 N3_3 1_555 1_555
N3_3 C6_3 1_555 1_555
O6_3 Co1_3 1_555 1_555
C6_3 C7_3 1_555 1_555
C7_3 O6_3 1_555 1_555
C8_3 N3_3 1_555 1_555
H3_3 C8_3 1_555 1_555
O7_3 In2_5 1_555 1_555
O8_3 In2_5 1_555 1_555
N4_3 C8_3 1_555 1_555
O9_3 Co1_3 1_555 1_555
C9_3 C6_3 1_555 1_555
C10_3 O9_3 1_555 1_555
O10_3 C10_3 1_555 1_555
O11_3 Co1_3 1_555 1_555
C11_3 C12_3 1_555 1_555
C12_3 O11_3 1_555 1_555
O12_3 C12_3 1_555 1_555
O13_3 Co1_3 1_555 1_555
C14_3 C11_3 1_555 1_555
C15_3 O13_3 1_555 1_555
O14_3 C15_3 1_555 1_555
In3_4 N4_3 1_555 1_555
O15_3 In3_4 1_555 1_555
H6_3 O15_3 1_555 1_555
O16_3 In1_4 1_555 1_555
H7_3 O16_3 1_555 1_555
O18_3 In3_4 1_555 1_555
H9_3 O18_3 1_555 1_555
In5_5 N2_3 1_555 1_555
In6_5 N6_3 1_555 1_555
N7_3 In3_4 1_555 1_555
N8_3 In1_4 1_555 1_555
O19_3 In3_4 1_555 1_555
O20_3 In1_4 1_555 1_555
N2_3 C4_3 1_555 1_555
C4_3 C5_3 1_555 1_555
O5_3 In5_5 1_555 1_555
C7_3 O8_3 1_555 1_555
N4_3 C9_3 1_555 1_555
C9_3 C10_3 1_555 1_555
O10_3 In3_4 1_555 1_555
N6_3 C14_3 1_555 1_555
C14_3 C15_3 1_555 1_555
O14_3 In6_5 1_555 1_555
O2_3 H10_3 1_555 1_555
O7_3 H11_3 1_555 1_555
O16_3 H12_3 1_555 1_555
O15_3 H14_3 1_555 1_555
O18_3 H15_3 1_555 1_555
In2_6 N3_4 1_555 1_555
C8_4 N3_4 1_555 1_555
H3_4 C8_4 1_555 1_555
O7_4 In2_6 1_555 1_555
H4_4 O7_4 1_555 1_555
O15_4 In3_5 1_555 1_555
H6_4 O15_4 1_555 1_555
O16_4 In1_5 1_555 1_555
O17_4 In2_6 1_555 1_555
H8_4 O17_4 1_555 1_555
N7_4 In3_5 1_555 1_555
N8_4 In1_5 1_555 1_555
N9_4 In2_6 1_555 1_555
O19_4 In3_5 1_555 1_555
O20_4 In1_5 1_555 1_555
O7_4 H11_4 1_555 1_555
O16_4 H12_4 1_555 1_555
O17_4 H13_4 1_555 1_555
O15_4 H14_4 1_555 1_555
In1_6 N1_4 1_555 1_555
Co1_4 O1_4 1_555 1_555
N1_4 C1_4 1_555 1_555
O1_4 C2_4 1_555 1_555
C1_4 C2_4 1_555 1_555
C2_4 O3_4 1_555 1_555
C3_4 N1_4 1_555 1_555
H1_4 C3_4 1_555 1_555
O2_4 In1_6 1_555 1_555
O3_4 In1_6 1_555 1_555
N2_4 C3_4 1_555 1_555
O4_4 Co1_4 1_555 1_555
C4_4 C1_4 1_555 1_555
C5_4 O4_4 1_555 1_555
O5_4 C5_4 1_555 1_555
O6_4 Co1_4 1_555 1_555
C6_4 C7_4 1_555 1_555
C7_4 O6_4 1_555 1_555
O9_4 Co1_4 1_555 1_555
C9_4 C6_4 1_555 1_555
C10_4 O9_4 1_555 1_555
O10_4 C10_4 1_555 1_555
N5_4 C11_4 1_555 1_555
O11_4 Co1_4 1_555 1_555
C11_4 C12_4 1_555 1_555
C12_4 O11_4 1_555 1_555
C13_4 N5_4 1_555 1_555
H5_4 C13_4 1_555 1_555
O12_4 C12_4 1_555 1_555
N6_4 C13_4 1_555 1_555
O13_4 Co1_4 1_555 1_555
C14_4 C11_4 1_555 1_555
C15_4 O13_4 1_555 1_555
O14_4 C15_4 1_555 1_555
In3_6 N4_4 1_555 1_555
O18_4 In3_6 1_555 1_555
H9_4 O18_4 1_555 1_555
In4_6 N5_4 1_555 1_555
In5_6 N2_4 1_555 1_555
In6_6 N6_4 1_555 1_555
N2_4 C4_4 1_555 1_555
C4_4 C5_4 1_555 1_555
O5_4 In5_6 1_555 1_555
C7_4 O8_4 1_555 1_555
N4_4 C9_4 1_555 1_555
C9_4 C10_4 1_555 1_555
O10_4 In3_6 1_555 1_555
O12_4 In4_6 1_555 1_555
N6_4 C14_4 1_555 1_555
C14_4 C15_4 1_555 1_555
O14_4 In6_6 1_555 1_555
O2_4 H10_4 1_555 1_555
O18_4 H15_4 1_555 1_555
O18_5 In6 1_555 1_555
H9_5 O18_5 1_555 1_555
O18_5 H15_5 1_555 1_555
O7_5 In4 1_555 1_555
O15_5 In6_2 1_555 1_555
H6_5 O15_5 1_555 1_555
N7_5 In6_2 1_555 1_555
O19_5 In6_2 1_555 1_555
O7_5 H11_5 1_555 1_555
O15_5 H14_5 1_555 1_555
O17_5 In4_2 1_555 1_555
N9_5 In4_2 1_555 1_555
O17_5 H13_5 1_555 1_555
O7_6 In4_6 1_555 1_555
H4_6 O7_6 1_555 1_555
O15_6 In6_6 1_555 1_555
H6_6 O15_6 1_555 1_555
O17_6 In4_6 1_555 1_555
H8_6 O17_6 1_555 1_555
O18_6 In6_6 1_555 1_555
H9_6 O18_6 1_555 1_555
N7_6 In6_6 1_555 1_555
N9_6 In4_6 1_555 1_555
O19_6 In6_6 1_555 1_555
O21_6 In4_6 1_555 1_555
O7_6 H11_6 1_555 1_555
O17_6 H13_6 1_555 1_555
O15_6 H14_6 1_555 1_555
O18_6 H15_6 1_555 1_555
O17_7 In4_3 1_555 1_555
N9_7 In4_3 1_555 1_555
O21_7 In4_3 1_555 1_555
O17_7 H13_7 1_555 1_555
O7_7 In4_4 1_555 1_555
O15_7 In6_3 1_555 1_555
H6_7 O15_7 1_555 1_555
O18_7 In6_3 1_555 1_555
H9_7 O18_7 1_555 1_555
N7_7 In6_3 1_555 1_555
O19_7 In6_3 1_555 1_555
O7_7 H11_7 1_555 1_555
O15_7 H14_7 1_555 1_555
O18_7 H15_7 1_555 1_555
O7_8 In4_5 1_555 1_555
H4_8 O7_8 1_555 1_555
O15_8 In6_4 1_555 1_555
H6_8 O15_8 1_555 1_555
O17_8 In4_5 1_555 1_555
H8_8 O17_8 1_555 1_555
N7_8 In6_4 1_555 1_555
N9_8 In4_5 1_555 1_555
O19_8 In6_4 1_555 1_555
O7_8 H11_8 1_555 1_555
O17_8 H13_8 1_555 1_555
O15_8 H14_8 1_555 1_555
O18_8 In6_5 1_555 1_555
H9_8 O18_8 1_555 1_555
O18_8 H15_8 1_555 1_555
O18_9 In5 1_555 1_555
H9_9 O18_9 1_555 1_555
O18_9 H15_9 1_555 1_555
O15_9 In5_2 1_555 1_555
H6_9 O15_9 1_555 1_555
N7_9 In5_2 1_555 1_555
O19_9 In5_2 1_555 1_555
O15_9 H14_9 1_555 1_555
O15_10 In5_5 1_555 1_555
H6_10 O15_10 1_555 1_555
O18_10 In5_5 1_555 1_555
H9_10 O18_10 1_555 1_555
N7_10 In5_5 1_555 1_555
O19_10 In5_5 1_555 1_555
O15_10 H14_10 1_555 1_555
O18_10 H15_10 1_555 1_555
O15_11 In5_6 1_555 1_555
H6_11 O15_11 1_555 1_555
O18_11 In5_6 1_555 1_555
H9_11 O18_11 1_555 1_555
N7_11 In5_6 1_555 1_555
O19_11 In5_6 1_555 1_555
O15_11 H14_11 1_555 1_555
O18_11 H15_11 1_555 1_555
O15_12 In5_3 1_555 1_555
H6_12 O15_12 1_555 1_555
N7_12 In5_3 1_555 1_555
O19_12 In5_3 1_555 1_555
O15_12 H14_12 1_555 1_555
O18_12 In5_4 1_555 1_555
H9_12 O18_12 1_555 1_555
O18_12 H15_12 1_555 1_555
H3_5 C8_5 1_555 1_555
N9_8 C8_5 1_555 1_555
Co1_5 O1_5 1_555 1_555
N7_10 C1_5 1_555 1_555
O1_5 C2_5 1_555 1_555
C1_5 C2_5 1_555 1_555
C2_5 O19_10 1_555 1_555
C3_5 N7_10 1_555 1_555
H1_5 C3_5 1_555 1_555
N8_4 C3_5 1_555 1_555
O4_5 Co1_5 1_555 1_555
C4_5 C1_5 1_555 1_555
C5_5 O4_5 1_555 1_555
O20_4 C5_5 1_555 1_555
N7_5 C6_5 1_555 1_555
O6_5 Co1_5 1_555 1_555
C6_5 C7_5 1_555 1_555
C7_5 O6_5 1_555 1_555
O9_5 Co1_5 1_555 1_555
C9_5 C6_5 1_555 1_555
C10_5 O9_5 1_555 1_555
O21_8 C10_5 1_555 1_555
N7_4 C11_5 1_555 1_555
O11_5 Co1_5 1_555 1_555
C11_5 C12_5 1_555 1_555
C12_5 O11_5 1_555 1_555
O19_4 C12_5 1_555 1_555
O13_5 Co1_5 1_555 1_555
C14_5 C11_5 1_555 1_555
C15_5 O13_5 1_555 1_555
O21 C15_5 1_555 1_555
N8_4 C4_5 1_555 1_555
C4_5 C5_5 1_555 1_555
C7_5 O19_5 1_555 1_555
C9_5 C10_5 1_555 1_555
C14_5 C15_5 1_555 1_555
H5_5 C13_5 1_555 1_555
N9 C13_5 1_555 1_555
Co1_6 O1_6 1_555 1_555
N7_11 C1_6 1_555 1_555
O1_6 C2_6 1_555 1_555
C1_6 C2_6 1_555 1_555
C2_6 O19_11 1_555 1_555
C3_6 N7_11 1_555 1_555
H1_6 C3_6 1_555 1_555
N8_3 C3_6 1_555 1_555
O4_6 Co1_6 1_555 1_555
C4_6 C1_6 1_555 1_555
C5_6 O4_6 1_555 1_555
O20_3 C5_6 1_555 1_555
N7_7 C6_6 1_555 1_555
O6_6 Co1_6 1_555 1_555
C6_6 C7_6 1_555 1_555
C7_6 O6_6 1_555 1_555
C8_6 N7_7 1_555 1_555
H3_6 C8_6 1_555 1_555
N9_6 C8_6 1_555 1_555
O9_6 Co1_6 1_555 1_555
C9_6 C6_6 1_555 1_555
C10_6 O9_6 1_555 1_555
O21_6 C10_6 1_555 1_555
N7_3 C11_6 1_555 1_555
O11_6 Co1_6 1_555 1_555
C11_6 C12_6 1_555 1_555
C12_6 O11_6 1_555 1_555
C13_6 N7_3 1_555 1_555
H5_6 C13_6 1_555 1_555
O19_3 C12_6 1_555 1_555
N9_2 C13_6 1_555 1_555
O13_6 Co1_6 1_555 1_555
C14_6 C11_6 1_555 1_555
C15_6 O13_6 1_555 1_555
O21_2 C15_6 1_555 1_555
N8_3 C4_6 1_555 1_555
C4_6 C5_6 1_555 1_555
C7_6 O19_7 1_555 1_555
N9_6 C9_6 1_555 1_555
C9_6 C10_6 1_555 1_555
N9_2 C14_6 1_555 1_555
C14_6 C15_6 1_555 1_555
H5_7 C13_7 1_555 1_555
N9_4 C13_7 1_555 1_555
Co1_7 O1_7 1_555 1_555
N7_12 C1_7 1_555 1_555
O1_7 C2_7 1_555 1_555
C1_7 C2_7 1_555 1_555
C2_7 O19_12 1_555 1_555
O4_7 Co1_7 1_555 1_555
C4_7 C1_7 1_555 1_555
C5_7 O4_7 1_555 1_555
O20 C5_7 1_555 1_555
N7_6 C6_7 1_555 1_555
O6_7 Co1_7 1_555 1_555
C6_7 C7_7 1_555 1_555
C7_7 O6_7 1_555 1_555
C8_7 N7_6 1_555 1_555
H3_7 C8_7 1_555 1_555
N9_7 C8_7 1_555 1_555
O9_7 Co1_7 1_555 1_555
C9_7 C6_7 1_555 1_555
C10_7 O9_7 1_555 1_555
O21_7 C10_7 1_555 1_555
N7 C11_7 1_555 1_555
O11_7 Co1_7 1_555 1_555
C11_7 C12_7 1_555 1_555
C12_7 O11_7 1_555 1_555
O19 C12_7 1_555 1_555
O13_7 Co1_7 1_555 1_555
C14_7 C11_7 1_555 1_555
C15_7 O13_7 1_555 1_555
O21_4 C15_7 1_555 1_555
C4_7 C5_7 1_555 1_555
C7_7 O19_6 1_555 1_555
N9_7 C9_7 1_555 1_555
C9_7 C10_7 1_555 1_555
C14_7 C15_7 1_555 1_555
H1_7 C3_7 1_555 1_555
N8 C3_7 1_555 1_555
H1_8 C3_8 1_555 1_555
N8_2 C3_8 1_555 1_555
Co1_8 O1_8 1_555 1_555
N7_9 C1_8 1_555 1_555
O1_8 C2_8 1_555 1_555
C1_8 C2_8 1_555 1_555
C2_8 O19_9 1_555 1_555
O4_8 Co1_8 1_555 1_555
C4_8 C1_8 1_555 1_555
C5_8 O4_8 1_555 1_555
O20_2 C5_8 1_555 1_555
N7_8 C6_8 1_555 1_555
O6_8 Co1_8 1_555 1_555
C6_8 C7_8 1_555 1_555
C7_8 O6_8 1_555 1_555
O9_8 Co1_8 1_555 1_555
C9_8 C6_8 1_555 1_555
C10_8 O9_8 1_555 1_555
O21_5 C10_8 1_555 1_555
N7_2 C11_8 1_555 1_555
O11_8 Co1_8 1_555 1_555
C11_8 C12_8 1_555 1_555
C12_8 O11_8 1_555 1_555
C13_8 N7_2 1_555 1_555
H5_8 C13_8 1_555 1_555
O19_2 C12_8 1_555 1_555
N9_3 C13_8 1_555 1_555
O13_8 Co1_8 1_555 1_555
C14_8 C11_8 1_555 1_555
C15_8 O13_8 1_555 1_555
O21_3 C15_8 1_555 1_555
C4_8 C5_8 1_555 1_555
C7_8 O19_8 1_555 1_555
C9_8 C10_8 1_555 1_555
N9_3 C14_8 1_555 1_555
C14_8 C15_8 1_555 1_555
H3_8 C8_8 1_555 1_555
N9_5 C8_8 1_555 1_555

#END
