
###############################################################################
#
# This file contains modified crystal structure data generated from the
# MOF subset of the Cambridge Structural Database (CSD) v543 
# hosted by the Cambridge Crystallographic Data Centre (CCDC).
#
# This work is licensed under the Creative Commons
# Attribution-NonCommercial-ShareAlike 4.0 International License.
# To view a copy of this license, visit
# http://creativecommons.org/licenses/by-nc-sa/4.0/
# or send a letter to
# Creative Commons, PO Box 1866, Mountain View, CA 94042, USA.
#
# CIF created using the CSD Python API on 29 September 2022
# The structure has been converted into the P1 space group
# The structure has a 3D framework
# The original CSD entry NETVEQ is in the cubic crystal system
# The original CSD entry NETVEQ is in a Sohncke space group
# The framework has been calculated to contain at least 10.0% void space
# The void calculation uses a probe of radius 1.32A, grid spacing 0.4
# The framework is charged, counterions have been retained in the structure
# H atom positions have been added when not included in the experimental data
#
###############################################################################

data_NETVEQ
_chemical_formula_moiety         '(C120 H120 In36 Mg8 N48 O144 31+)n'
_symmetry_cell_setting           triclinic
_symmetry_space_group_name_H-M   'P 1'
_symmetry_Int_Tables_number      1
_space_group_name_Hall           'P 1'
loop_
_symmetry_equiv_pos_site_id
_symmetry_equiv_pos_as_xyz
1 x,y,z
_cell_length_a                   25.1884(3)
_cell_length_b                   25.1884(3)
_cell_length_c                   25.1884(3)
_cell_angle_alpha                90
_cell_angle_beta                 90
_cell_angle_gamma                90
_cell_volume                     15980.9
loop_
_atom_site_label
_atom_site_type_symbol
_atom_site_fract_x
_atom_site_fract_y
_atom_site_fract_z
In1 In 0.5000 0.2500 0.203453(19)
Mg1 Mg 0.3750 0.3750 0.3750
O1 O 0.40120(13) 0.31874(12) 0.32293(13)
O2 O 0.43913(14) 0.26254(12) 0.26736(14)
O3 O 0.4384(3) 0.2509(4) 0.1440(3)
H1 H 0.4439 0.2272 0.1224
N1 N 0.50642(17) 0.33257(15) 0.22650(16)
C1 C 0.47185(17) 0.34777(17) 0.26702(16)
C2 C 0.53537(18) 0.3750 0.21463(18)
H2 H 0.5615 0.3750 0.1885
C3 C 0.43462(17) 0.30727(16) 0.28632(17)
O4 O 0.42707(13) 0.43126(12) 0.34880(13)
O5 O 0.48264(14) 0.48746(12) 0.31087(14)
N2 N 0.52350(16) 0.41743(15) 0.24358(17)
C4 C 0.48298(16) 0.40223(17) 0.27815(17)
C5 C 0.46368(17) 0.44273(16) 0.31538(17)
In2 In 0.203453(19) 0.5000 0.2500
O6 O 0.32293(13) 0.40120(13) 0.31874(12)
O7 O 0.26736(14) 0.43913(14) 0.26254(12)
O8 O 0.1440(3) 0.4384(3) 0.2509(4)
H3 H 0.1224 0.4439 0.2272
N3 N 0.22650(16) 0.50642(17) 0.33257(15)
C6 C 0.26702(16) 0.47185(17) 0.34777(17)
C7 C 0.21463(18) 0.53537(18) 0.3750
H4 H 0.1885 0.5615 0.3750
C8 C 0.28632(17) 0.43462(17) 0.30727(16)
O9 O 0.34880(13) 0.42707(13) 0.43126(12)
O10 O 0.31087(14) 0.48264(14) 0.48746(12)
N4 N 0.24358(17) 0.52350(16) 0.41743(15)
C9 C 0.27815(17) 0.48298(16) 0.40223(17)
C10 C 0.31538(17) 0.46368(17) 0.44273(16)
O11 O 0.31874(12) 0.32293(13) 0.40120(13)
O12 O 0.26254(12) 0.26736(14) 0.43913(14)
N5 N 0.33257(15) 0.22650(16) 0.50642(17)
C11 C 0.34777(17) 0.26702(16) 0.47185(17)
C12 C 0.3750 0.21463(18) 0.53537(18)
H5 H 0.3750 0.1885 0.5615
C13 C 0.30727(16) 0.28632(17) 0.43462(17)
O13 O 0.43126(12) 0.34880(13) 0.42707(13)
O14 O 0.48746(12) 0.31087(14) 0.48264(14)
N6 N 0.41743(15) 0.24358(17) 0.52350(16)
C14 C 0.40223(17) 0.27815(17) 0.48298(16)
C15 C 0.44273(16) 0.31538(17) 0.46368(17)
In3 In 0.5000 0.2500 0.546547(19)
O15 O 0.4991(4) 0.3116(3) 0.6060(3)
H6 H 0.5228 0.3061 0.6276
O16 O 0.5616(3) 0.2491(4) 0.1440(3)
H7 H 0.5561 0.2728 0.1224
O17 O 0.1440(3) 0.5616(3) 0.2491(4)
H8 H 0.1224 0.5561 0.2728
O18 O 0.5009(4) 0.1884(3) 0.6060(3)
H9 H 0.4772 0.1939 0.6276
In4 In 0.2500 0.203453(19) 0.5000
In5 In 0.546547(19) 0.5000 0.2500
In6 In 0.2500 0.546547(19) 0.5000
O19 O 0.51254(12) 0.18913(14) 0.48264(14)
O20 O 0.26736(14) 0.56087(14) 0.23746(12)
O21 O 0.56087(14) 0.23746(12) 0.26736(14)
N7 N 0.58257(15) 0.25642(17) 0.52350(16)
N8 N 0.22650(16) 0.49358(17) 0.16743(15)
N9 N 0.49358(17) 0.16743(15) 0.22650(16)
H10 H 0.438405 0.285753 0.125577
H11 H 0.464247 0.311595 0.624423
H12 H 0.125577 0.561595 0.214247
H13 H 0.561595 0.214247 0.125577
H14 H 0.125577 0.438405 0.285753
H15 H 0.535753 0.188405 0.624423
In1_2 In 0.0000 0.2500 0.453453(19)
H1_2 H 0.0228 0.1939 0.3724
N5_2 N 0.02350(16) 0.08257(15) 0.75642(17)
C12_2 C 0.03537(18) 0.1250 0.78537(18)
H5_2 H 0.0615 0.1250 0.8115
N6_2 N 0.00642(17) 0.16743(15) 0.77350(16)
In3_2 In 0.0000 0.2500 0.796547(19)
O16_2 O 0.0009(4) 0.3116(3) 0.3940(3)
O18_2 O 0.0616(3) 0.2509(4) 0.8560(3)
H9_2 H 0.0561 0.2272 0.8776
In4_2 In 0.046547(19) 0.0000 0.7500
O19_2 O 0.06087(14) 0.26254(12) 0.73264(14)
O21_2 O 0.01254(12) 0.31087(14) 0.51736(14)
N9_2 N 0.08257(15) 0.24358(17) 0.47650(16)
H13_2 H 0.0357531 0.311595 0.375577
H15_2 H 0.0615954 0.285753 0.874423
In4_3 In 0.046547(19) 1.0000 0.7500
In1_3 In 1.0000 0.2500 0.453453(19)
Mg1_2 Mg 0.8750 0.1250 0.6250
O1_2 O 0.93126(12) 0.15120(13) 0.57293(13)
O2_2 O 0.98746(12) 0.18913(14) 0.51736(14)
O3_2 O 0.9991(4) 0.1884(3) 0.3940(3)
N1_2 N 0.91743(15) 0.25642(17) 0.47650(16)
C1_2 C 0.90223(17) 0.22185(17) 0.51702(16)
C2_2 C 0.8750 0.28537(18) 0.46463(18)
H2_2 H 0.8750 0.3115 0.4385
C3_2 C 0.94273(16) 0.18462(17) 0.53632(17)
O4_2 O 0.81874(12) 0.17707(13) 0.59880(13)
O5_2 O 0.76254(12) 0.23264(14) 0.56087(14)
N2_2 N 0.83257(15) 0.27350(16) 0.49358(17)
C4_2 C 0.84777(17) 0.23298(16) 0.52815(17)
C5_2 C 0.80727(16) 0.21368(17) 0.56538(17)
O6_2 O 0.84880(13) 0.07293(13) 0.56874(12)
O7_2 O 0.81087(14) 0.01736(14) 0.51254(12)
C6_2 C 0.77815(17) 0.01702(16) 0.59777(17)
C8_2 C 0.81538(17) 0.03632(17) 0.55727(16)
O9_2 O 0.82293(13) 0.09880(13) 0.68126(12)
O10_2 O 0.76736(14) 0.06087(14) 0.73746(12)
C9_2 C 0.76702(16) 0.02815(17) 0.65223(17)
C10_2 C 0.78632(17) 0.06538(17) 0.69273(16)
O11_2 O 0.92707(13) 0.06874(12) 0.65120(13)
O12_2 O 0.98264(14) 0.01254(12) 0.68913(14)
C11_2 C 0.98298(16) 0.09777(17) 0.72185(17)
C13_2 C 0.96368(17) 0.05727(16) 0.68462(17)
O13_2 O 0.90120(13) 0.18126(12) 0.67707(13)
O14_2 O 0.93913(14) 0.23746(12) 0.73264(14)
C14_2 C 0.97185(17) 0.15223(17) 0.73298(16)
C15_2 C 0.93462(17) 0.19273(16) 0.71368(17)
In3_3 In 1.0000 0.2500 0.796547(19)
O15_2 O 0.9384(3) 0.2491(4) 0.8560(3)
H6_2 H 0.9439 0.2728 0.8776
H7_2 H 0.9772 0.3061 0.3724
In5_2 In 0.7500 0.296547(19) 0.5000
In6_2 In 0.703453(19) 0.0000 0.7500
O20_2 O 0.68913(14) 0.01736(14) 0.48746(12)
N7_2 N 0.99358(17) 0.33257(15) 0.77350(16)
H10_2 H 0.964247 0.188405 0.375577
H11_2 H 0.938405 0.214247 0.874423
In2_2 In 0.7500 0.953453(19) 0.5000
O8_2 O 0.8116(3) 0.8940(3) 0.5009(4)
H3_2 H 0.8061 0.8724 0.4772
N3_2 N 0.74358(17) 0.97650(16) 0.58257(15)
C7_2 C 0.71463(18) 0.96463(18) 0.6250
H4_2 H 0.6885 0.9385 0.6250
N4_2 N 0.72650(16) 0.99358(17) 0.66743(15)
O17_2 O 0.6884(3) 0.8940(3) 0.4991(4)
H8_2 H 0.6939 0.8724 0.5228
In6_3 In 0.703453(19) 1.0000 0.7500
N8_2 N 0.75642(17) 0.97650(16) 0.41743(15)
H12_2 H 0.688405 0.875577 0.464247
H14_2 H 0.811595 0.875577 0.535753
N5_3 N 0.16743(15) 0.77350(16) 0.00642(17)
C12_3 C 0.1250 0.78537(18) 0.03537(18)
H5_3 H 0.1250 0.8115 0.0615
N6_3 N 0.08257(15) 0.75642(17) 0.02350(16)
In3_4 In 0.0000 0.7500 0.046547(19)
O15_3 O 0.0009(4) 0.6884(3) 0.1060(3)
H9_3 H 0.0228 0.8061 0.1276
In4_4 In 0.2500 0.796547(19) 0.0000
In6_4 In 0.2500 0.453453(19) 0.0000
H11_3 H 0.0357531 0.688405 0.124423
In1_4 In 0.0000 0.7500 0.703453(19)
Mg1_3 Mg 0.1250 0.6250 0.8750
O1_3 O 0.09880(13) 0.68126(12) 0.82293(13)
O2_3 O 0.06087(14) 0.73746(12) 0.76736(14)
O3_3 O 0.0616(3) 0.7491(4) 0.6440(3)
H1_3 H 0.0561 0.7728 0.6224
C1_3 C 0.02815(17) 0.65223(17) 0.76702(16)
C3_3 C 0.06538(17) 0.69273(16) 0.78632(17)
O4_3 O 0.07293(13) 0.56874(12) 0.84880(13)
O5_3 O 0.01736(14) 0.51254(12) 0.81087(14)
C4_3 C 0.01702(16) 0.59777(17) 0.77815(17)
C5_3 C 0.03632(17) 0.55727(16) 0.81538(17)
In2_3 In 0.296547(19) 0.5000 0.7500
O6_3 O 0.17707(13) 0.59880(13) 0.81874(12)
O7_3 O 0.23264(14) 0.56087(14) 0.76254(12)
O8_3 O 0.3560(3) 0.5616(3) 0.7509(4)
H3_3 H 0.3776 0.5561 0.7272
N3_3 N 0.27350(16) 0.49358(17) 0.83257(15)
C6_3 C 0.23298(16) 0.52815(17) 0.84777(17)
C7_3 C 0.28537(18) 0.46463(18) 0.8750
H4_3 H 0.3115 0.4385 0.8750
C8_3 C 0.21368(17) 0.56538(17) 0.80727(16)
O9_3 O 0.15120(13) 0.57293(13) 0.93126(12)
O10_3 O 0.18913(14) 0.51736(14) 0.98746(12)
N4_3 N 0.25642(17) 0.47650(16) 0.91743(15)
C9_3 C 0.22185(17) 0.51702(16) 0.90223(17)
C10_3 C 0.18462(17) 0.53632(17) 0.94273(16)
O11_3 O 0.18126(12) 0.67707(13) 0.90120(13)
O12_3 O 0.23746(12) 0.73264(14) 0.93913(14)
C11_3 C 0.15223(17) 0.73298(16) 0.97185(17)
C13_3 C 0.19273(16) 0.71368(17) 0.93462(17)
O13_3 O 0.06874(12) 0.65120(13) 0.92707(13)
O14_3 O 0.01254(12) 0.68913(14) 0.98264(14)
C14_3 C 0.09777(17) 0.72185(17) 0.98298(16)
C15_3 C 0.05727(16) 0.68462(17) 0.96368(17)
O17_3 O 0.3560(3) 0.4384(3) 0.7491(4)
H8_3 H 0.3776 0.4439 0.7728
In4_5 In 0.2500 0.796547(19) 1.0000
In6_5 In 0.2500 0.453453(19) 1.0000
O20_3 O 0.23264(14) 0.43913(14) 0.73746(12)
N8_3 N 0.27350(16) 0.50642(17) 0.66743(15)
N9_3 N 0.00642(17) 0.83257(15) 0.72650(16)
H10_3 H 0.0615954 0.714247 0.625577
H12_3 H 0.374423 0.438405 0.714247
H14_3 H 0.374423 0.561595 0.785753
In3_5 In 1.0000 0.7500 0.046547(19)
H6_3 H 0.9772 0.6939 0.1276
O18_3 O 0.9991(4) 0.8116(3) 0.1060(3)
N7_3 N 0.91743(15) 0.74358(17) 0.02350(16)
H15_3 H 0.964247 0.811595 0.124423
In1_5 In 1.0000 0.7500 0.703453(19)
N1_3 N 0.99358(17) 0.66743(15) 0.72650(16)
C2_3 C 0.96463(18) 0.6250 0.71463(18)
H2_3 H 0.9385 0.6250 0.6885
N2_3 N 0.97650(16) 0.58257(15) 0.74358(17)
O16_3 O 0.9384(3) 0.7509(4) 0.6440(3)
H7_3 H 0.9439 0.7272 0.6224
In5_3 In 0.953453(19) 0.5000 0.7500
O19_3 O 0.98746(12) 0.81087(14) 0.98264(14)
O21_3 O 0.93913(14) 0.76254(12) 0.76736(14)
H13_3 H 0.938405 0.785753 0.625577
In2_4 In 0.7500 0.046547(19) 0.0000
O8_4 O 0.6884(3) 0.1060(3) 0.0009(4)
N3_4 N 0.75642(17) 0.02350(16) 0.08257(15)
C7_4 C 0.78537(18) 0.03537(18) 0.1250
H4_4 H 0.8115 0.0615 0.1250
N4_4 N 0.77350(16) 0.00642(17) 0.16743(15)
H8_4 H 0.8061 0.1276 0.0228
In4_6 In 0.453453(19) 0.0000 0.2500
In6_6 In 0.796547(19) 0.0000 0.2500
H14_4 H 0.688405 0.124423 0.0357531
In2_5 In 0.7500 0.046547(19) 1.0000
H3_4 H 0.6939 0.1276 0.9772
O17_4 O 0.8116(3) 0.1060(3) 0.9991(4)
N8_4 N 0.74358(17) 0.02350(16) 0.91743(15)
H12_4 H 0.811595 0.124423 0.964247
Mg1_4 Mg 0.6250 0.8750 0.1250
O1_4 O 0.56874(12) 0.84880(13) 0.07293(13)
O2_4 O 0.51254(12) 0.81087(14) 0.01736(14)
C1_4 C 0.59777(17) 0.77815(17) 0.01702(16)
C3_4 C 0.55727(16) 0.81538(17) 0.03632(17)
O4_4 O 0.68126(12) 0.82293(13) 0.09880(13)
O5_4 O 0.73746(12) 0.76736(14) 0.06087(14)
C4_4 C 0.65223(17) 0.76702(16) 0.02815(17)
C5_4 C 0.69273(16) 0.78632(17) 0.06538(17)
O6_4 O 0.65120(13) 0.92707(13) 0.06874(12)
O7_4 O 0.68913(14) 0.98264(14) 0.01254(12)
C6_4 C 0.72185(17) 0.98298(16) 0.09777(17)
C8_4 C 0.68462(17) 0.96368(17) 0.05727(16)
O9_4 O 0.67707(13) 0.90120(13) 0.18126(12)
O10_4 O 0.73264(14) 0.93913(14) 0.23746(12)
C9_4 C 0.73298(16) 0.97185(17) 0.15223(17)
C10_4 C 0.71368(17) 0.93462(17) 0.19273(16)
O11_4 O 0.57293(13) 0.93126(12) 0.15120(13)
O12_4 O 0.51736(14) 0.98746(12) 0.18913(14)
N5_4 N 0.47650(16) 0.91743(15) 0.25642(17)
C11_4 C 0.51702(16) 0.90223(17) 0.22185(17)
C12_4 C 0.46463(18) 0.8750 0.28537(18)
H5_4 H 0.4385 0.8750 0.3115
C13_4 C 0.53632(17) 0.94273(16) 0.18462(17)
O13_4 O 0.59880(13) 0.81874(12) 0.17707(13)
O14_4 O 0.56087(14) 0.76254(12) 0.23264(14)
N6_4 N 0.49358(17) 0.83257(15) 0.27350(16)
C14_4 C 0.52815(17) 0.84777(17) 0.23298(16)
C15_4 C 0.56538(17) 0.80727(16) 0.21368(17)
In3_6 In 0.5000 0.7500 0.296547(19)
O15_4 O 0.5616(3) 0.7509(4) 0.3560(3)
H6_4 H 0.5561 0.7272 0.3776
O18_4 O 0.4384(3) 0.7491(4) 0.3560(3)
H9_4 H 0.4439 0.7728 0.3776
In4_7 In 0.453453(19) 1.0000 0.2500
In5_4 In 0.7500 0.703453(19) 0.0000
In6_7 In 0.796547(19) 1.0000 0.2500
O19_4 O 0.43913(14) 0.73746(12) 0.23264(14)
O21_4 O 0.48746(12) 0.68913(14) 0.01736(14)
N7_4 N 0.50642(17) 0.66743(15) 0.27350(16)
H11_4 H 0.561595 0.785753 0.374423
H15_4 H 0.438405 0.714247 0.374423
In1_6 In 0.5000 0.7500 0.953453(19)
O3_4 O 0.5009(4) 0.8116(3) 0.8940(3)
H1_4 H 0.4772 0.8061 0.8724
N1_4 N 0.58257(15) 0.74358(17) 0.97650(16)
C2_4 C 0.6250 0.71463(18) 0.96463(18)
H2_4 H 0.6250 0.6885 0.9385
N2_4 N 0.66743(15) 0.72650(16) 0.99358(17)
O16_4 O 0.4991(4) 0.6884(3) 0.8940(3)
H7_4 H 0.5228 0.6939 0.8724
In5_5 In 0.7500 0.703453(19) 1.0000
O20_4 O 0.81087(14) 0.98264(14) 0.98746(12)
N9_4 N 0.41743(15) 0.75642(17) 0.97650(16)
H10_4 H 0.535753 0.811595 0.875577
H13_4 H 0.464247 0.688405 0.875577
Mg1_5 Mg 0.3750 0.6250 0.1250
O1_5 O 0.40120(13) 0.68126(12) 0.17707(13)
C1_5 C 0.47185(17) 0.65223(17) 0.23298(16)
C2_5 C 0.53537(18) 0.6250 0.28537(18)
H2_5 H 0.5615 0.6250 0.3115
C3_5 C 0.43462(17) 0.69273(16) 0.21368(17)
O4_5 O 0.42707(13) 0.56874(12) 0.15120(13)
O5_5 O 0.48264(14) 0.51254(12) 0.18913(14)
N2_5 N 0.52350(16) 0.58257(15) 0.25642(17)
C4_5 C 0.48298(16) 0.59777(17) 0.22185(17)
C5_5 C 0.46368(17) 0.55727(16) 0.18462(17)
O6_5 O 0.32293(13) 0.59880(13) 0.18126(12)
C6_5 C 0.26702(16) 0.52815(17) 0.15223(17)
C7_5 C 0.21463(18) 0.46463(18) 0.1250
H4_5 H 0.1885 0.4385 0.1250
C8_5 C 0.28632(17) 0.56538(17) 0.19273(16)
O9_5 O 0.34880(13) 0.57293(13) 0.06874(12)
O10_5 O 0.31087(14) 0.51736(14) 0.01254(12)
N4_5 N 0.24358(17) 0.47650(16) 0.08257(15)
C9_5 C 0.27815(17) 0.51702(16) 0.09777(17)
C10_5 C 0.31538(17) 0.53632(17) 0.05727(16)
O11_5 O 0.31874(12) 0.67707(13) 0.09880(13)
O12_5 O 0.26254(12) 0.73264(14) 0.06087(14)
C11_5 C 0.34777(17) 0.73298(16) 0.02815(17)
C13_5 C 0.30727(16) 0.71368(17) 0.06538(17)
O13_5 O 0.43126(12) 0.65120(13) 0.07293(13)
C14_5 C 0.40223(17) 0.72185(17) 0.01702(16)
C15_5 C 0.44273(16) 0.68462(17) 0.03632(17)
N5_5 N 0.33257(15) 0.77350(16) 0.99358(17)
C12_5 C 0.3750 0.78537(18) 0.96463(18)
H5_5 H 0.3750 0.8115 0.9385
Mg1_6 Mg 0.6250 0.1250 0.3750
O1_6 O 0.56874(12) 0.15120(13) 0.42707(13)
C1_6 C 0.59777(17) 0.22185(17) 0.48298(16)
C2_6 C 0.6250 0.28537(18) 0.53537(18)
H2_6 H 0.6250 0.3115 0.5615
C3_6 C 0.55727(16) 0.18462(17) 0.46368(17)
O4_6 O 0.68126(12) 0.17707(13) 0.40120(13)
O5_6 O 0.73746(12) 0.23264(14) 0.43913(14)
N2_6 N 0.66743(15) 0.27350(16) 0.50642(17)
C4_6 C 0.65223(17) 0.23298(16) 0.47185(17)
C5_6 C 0.69273(16) 0.21368(17) 0.43462(17)
O6_6 O 0.65120(13) 0.07293(13) 0.43126(12)
C6_6 C 0.72185(17) 0.01702(16) 0.40223(17)
C8_6 C 0.68462(17) 0.03632(17) 0.44273(16)
O9_6 O 0.67707(13) 0.09880(13) 0.31874(12)
O10_6 O 0.73264(14) 0.06087(14) 0.26254(12)
C9_6 C 0.73298(16) 0.02815(17) 0.34777(17)
C10_6 C 0.71368(17) 0.06538(17) 0.30727(16)
O11_6 O 0.57293(13) 0.06874(12) 0.34880(13)
O12_6 O 0.51736(14) 0.01254(12) 0.31087(14)
N5_6 N 0.47650(16) 0.08257(15) 0.24358(17)
C11_6 C 0.51702(16) 0.09777(17) 0.27815(17)
C12_6 C 0.46463(18) 0.1250 0.21463(18)
H5_6 H 0.4385 0.1250 0.1885
C13_6 C 0.53632(17) 0.05727(16) 0.31538(17)
O13_6 O 0.59880(13) 0.18126(12) 0.32293(13)
C14_6 C 0.52815(17) 0.15223(17) 0.26702(16)
C15_6 C 0.56538(17) 0.19273(16) 0.28632(17)
C7_6 C 0.78537(18) 0.96463(18) 0.3750
H4_6 H 0.8115 0.9385 0.3750
N4_6 N 0.77350(16) 0.99358(17) 0.33257(15)
Mg1_7 Mg 0.1250 0.3750 0.6250
O1_7 O 0.09880(13) 0.31874(12) 0.67707(13)
C1_7 C 0.02815(17) 0.34777(17) 0.73298(16)
C3_7 C 0.06538(17) 0.30727(16) 0.71368(17)
O4_7 O 0.07293(13) 0.43126(12) 0.65120(13)
O5_7 O 0.01736(14) 0.48746(12) 0.68913(14)
C4_7 C 0.01702(16) 0.40223(17) 0.72185(17)
C5_7 C 0.03632(17) 0.44273(16) 0.68462(17)
O6_7 O 0.17707(13) 0.40120(13) 0.68126(12)
C6_7 C 0.23298(16) 0.47185(17) 0.65223(17)
C7_7 C 0.28537(18) 0.53537(18) 0.6250
H4_7 H 0.3115 0.5615 0.6250
C8_7 C 0.21368(17) 0.43462(17) 0.69273(16)
O9_7 O 0.15120(13) 0.42707(13) 0.56874(12)
O10_7 O 0.18913(14) 0.48264(14) 0.51254(12)
N4_7 N 0.25642(17) 0.52350(16) 0.58257(15)
C9_7 C 0.22185(17) 0.48298(16) 0.59777(17)
C10_7 C 0.18462(17) 0.46368(17) 0.55727(16)
O11_7 O 0.18126(12) 0.32293(13) 0.59880(13)
O12_7 O 0.23746(12) 0.26736(14) 0.56087(14)
N5_7 N 0.16743(15) 0.22650(16) 0.49358(17)
C11_7 C 0.15223(17) 0.26702(16) 0.52815(17)
C12_7 C 0.1250 0.21463(18) 0.46463(18)
H5_7 H 0.1250 0.1885 0.4385
C13_7 C 0.19273(16) 0.28632(17) 0.56538(17)
O13_7 O 0.06874(12) 0.34880(13) 0.57293(13)
C14_7 C 0.09777(17) 0.27815(17) 0.51702(16)
C15_7 C 0.05727(16) 0.31538(17) 0.53632(17)
C2_7 C 0.96463(18) 0.3750 0.78537(18)
H2_7 H 0.9385 0.3750 0.8115
N2_7 N 0.97650(16) 0.41743(15) 0.75642(17)
N5_8 N 0.02350(16) 0.91743(15) 0.74358(17)
C12_8 C 0.03537(18) 0.8750 0.71463(18)
H5_8 H 0.0615 0.8750 0.6885
C7_8 C 0.71463(18) 0.03537(18) 0.8750
H4_8 H 0.6885 0.0615 0.8750
N4_8 N 0.72650(16) 0.00642(17) 0.83257(15)
C2_8 C 0.8750 0.71463(18) 0.03537(18)
H2_8 H 0.8750 0.6885 0.0615
N2_8 N 0.83257(15) 0.72650(16) 0.00642(17)
Mg1_8 Mg 0.8750 0.8750 0.8750
O1_8 O 0.93126(12) 0.84880(13) 0.92707(13)
C1_8 C 0.90223(17) 0.77815(17) 0.98298(16)
C3_8 C 0.94273(16) 0.81538(17) 0.96368(17)
O4_8 O 0.81874(12) 0.82293(13) 0.90120(13)
O5_8 O 0.76254(12) 0.76736(14) 0.93913(14)
C4_8 C 0.84777(17) 0.76702(16) 0.97185(17)
C5_8 C 0.80727(16) 0.78632(17) 0.93462(17)
O6_8 O 0.84880(13) 0.92707(13) 0.93126(12)
C6_8 C 0.77815(17) 0.98298(16) 0.90223(17)
C8_8 C 0.81538(17) 0.96368(17) 0.94273(16)
O9_8 O 0.82293(13) 0.90120(13) 0.81874(12)
O10_8 O 0.76736(14) 0.93913(14) 0.76254(12)
C9_8 C 0.76702(16) 0.97185(17) 0.84777(17)
C10_8 C 0.78632(17) 0.93462(17) 0.80727(16)
O11_8 O 0.92707(13) 0.93126(12) 0.84880(13)
O12_8 O 0.98264(14) 0.98746(12) 0.81087(14)
C11_8 C 0.98298(16) 0.90223(17) 0.77815(17)
C13_8 C 0.96368(17) 0.94273(16) 0.81538(17)
O13_8 O 0.90120(13) 0.81874(12) 0.82293(13)
C14_8 C 0.97185(17) 0.84777(17) 0.76702(16)
C15_8 C 0.93462(17) 0.80727(16) 0.78632(17)
O8_5 O 0.2509(4) 0.1440(3) 0.4384(3)
H3_5 H 0.2272 0.1224 0.4439
O15_5 O 0.6060(3) 0.4991(4) 0.3116(3)
H6_5 H 0.6276 0.5228 0.3061
O17_5 O 0.2491(4) 0.1440(3) 0.5616(3)
H8_5 H 0.2728 0.1224 0.5561
O18_5 O 0.6060(3) 0.5009(4) 0.1884(3)
H9_5 H 0.6276 0.4772 0.1939
H11_5 H 0.624423 0.464247 0.311595
H12_5 H 0.214247 0.125577 0.561595
H14_5 H 0.285753 0.125577 0.438405
H15_5 H 0.624423 0.535753 0.188405
O8_6 O 0.1060(3) 0.0009(4) 0.6884(3)
H8_6 H 0.1276 0.0228 0.8061
H14_6 H 0.124423 0.0357531 0.688405
H3_6 H 0.1276 0.9772 0.6939
O17_6 O 0.1060(3) 0.9991(4) 0.8116(3)
H12_6 H 0.124423 0.964247 0.811595
O15_6 O 0.7509(4) 0.3560(3) 0.5616(3)
H6_6 H 0.7272 0.3776 0.5561
O18_6 O 0.7491(4) 0.3560(3) 0.4384(3)
H9_6 H 0.7728 0.3776 0.4439
H11_6 H 0.785753 0.374423 0.561595
H15_6 H 0.714247 0.374423 0.438405
O17_7 O 0.2509(4) 0.8560(3) 0.0616(3)
H8_7 H 0.2272 0.8776 0.0561
H12_7 H 0.285753 0.874423 0.0615954
O8_7 O 0.2491(4) 0.8560(3) 0.9384(3)
H3_7 H 0.2728 0.8776 0.9439
H14_7 H 0.214247 0.874423 0.938405
O15_7 O 0.8940(3) 0.5009(4) 0.8116(3)
H6_7 H 0.8724 0.4772 0.8061
O18_7 O 0.8940(3) 0.4991(4) 0.6884(3)
H9_7 H 0.8724 0.5228 0.6939
H11_7 H 0.875577 0.535753 0.811595
H15_7 H 0.875577 0.464247 0.688405
H3_8 H 0.3724 0.0228 0.1939
O17_8 O 0.3940(3) 0.0009(4) 0.3116(3)
H12_8 H 0.375577 0.0357531 0.311595
O8_8 O 0.3940(3) 0.9991(4) 0.1884(3)
O15_8 O 0.7491(4) 0.6440(3) 0.0616(3)
H6_8 H 0.7728 0.6224 0.0561
H8_8 H 0.3724 0.9772 0.3061
H11_8 H 0.714247 0.625577 0.0615954
H14_8 H 0.375577 0.964247 0.188405
O18_8 O 0.7509(4) 0.6440(3) 0.9384(3)
H9_8 H 0.7272 0.6224 0.9439
H15_8 H 0.785753 0.625577 0.938405
O15_9 O 0.3116(3) 0.6060(3) 0.4991(4)
H6_9 H 0.3061 0.6276 0.5228
O18_9 O 0.1884(3) 0.6060(3) 0.5009(4)
H9_9 H 0.1939 0.6276 0.4772
H11_9 H 0.311595 0.624423 0.464247
H15_9 H 0.188405 0.624423 0.535753
O18_10 O 0.6440(3) 0.0616(3) 0.7491(4)
H9_10 H 0.6224 0.0561 0.7728
H15_10 H 0.625577 0.0615954 0.714247
O15_10 O 0.6440(3) 0.9384(3) 0.7509(4)
H6_10 H 0.6224 0.9439 0.7272
H11_10 H 0.625577 0.938405 0.785753
O18_11 O 0.8560(3) 0.0616(3) 0.2509(4)
H9_11 H 0.8776 0.0561 0.2272
H15_11 H 0.874423 0.0615954 0.285753
O15_11 O 0.8560(3) 0.9384(3) 0.2491(4)
H6_11 H 0.8776 0.9439 0.2728
H11_11 H 0.874423 0.938405 0.214247
O15_12 O 0.3116(3) 0.3940(3) 0.0009(4)
H9_12 H 0.1939 0.3724 0.0228
H11_12 H 0.311595 0.375577 0.0357531
H6_12 H 0.3061 0.3724 0.9772
O18_12 O 0.1884(3) 0.3940(3) 0.9991(4)
H15_12 H 0.188405 0.375577 0.964247
loop_
_geom_bond_atom_site_label_1
_geom_bond_atom_site_label_2
_geom_bond_site_symmetry_1
_geom_bond_site_symmetry_2
In1 O2 1_555 1_555
Mg1 O1 1_555 1_555
O1 C3 1_555 1_555
O2 C3 1_555 1_555
O3 In1 1_555 1_555
H1 O3 1_555 1_555
N1 In1 1_555 1_555
C1 N1 1_555 1_555
C2 N1 1_555 1_555
H2 C2 1_555 1_555
C3 C1 1_555 1_555
O4 Mg1 1_555 1_555
O5 C5 1_555 1_555
N2 C2 1_555 1_555
C4 C1 1_555 1_555
C5 O4 1_555 1_555
In2 O7 1_555 1_555
O6 Mg1 1_555 1_555
O7 C8 1_555 1_555
O8 In2 1_555 1_555
H3 O8 1_555 1_555
N3 In2 1_555 1_555
C6 N3 1_555 1_555
C7 N3 1_555 1_555
H4 C7 1_555 1_555
C8 O6 1_555 1_555
O9 Mg1 1_555 1_555
O10 C10 1_555 1_555
N4 C7 1_555 1_555
C9 C6 1_555 1_555
C10 O9 1_555 1_555
O11 Mg1 1_555 1_555
O12 C13 1_555 1_555
N5 C11 1_555 1_555
C11 C13 1_555 1_555
C12 N5 1_555 1_555
H5 C12 1_555 1_555
C13 O11 1_555 1_555
O13 Mg1 1_555 1_555
O14 C15 1_555 1_555
N6 C12 1_555 1_555
C14 C11 1_555 1_555
C15 O13 1_555 1_555
In3 O14 1_555 1_555
O15 In3 1_555 1_555
H6 O15 1_555 1_555
O16 In1 1_555 1_555
H7 O16 1_555 1_555
O17 In2 1_555 1_555
H8 O17 1_555 1_555
O18 In3 1_555 1_555
H9 O18 1_555 1_555
In4 O12 1_555 1_555
In5 O5 1_555 1_555
In6 O10 1_555 1_555
O19 In3 1_555 1_555
O20 In2 1_555 1_555
O21 In1 1_555 1_555
N7 In3 1_555 1_555
N8 In2 1_555 1_555
N9 In1 1_555 1_555
N2 C4 1_555 1_555
N2 In5 1_555 1_555
C4 C5 1_555 1_555
C6 C8 1_555 1_555
N4 C9 1_555 1_555
N4 In6 1_555 1_555
C9 C10 1_555 1_555
N5 In4 1_555 1_555
N6 C14 1_555 1_555
N6 In3 1_555 1_555
C14 C15 1_555 1_555
O3 H10 1_555 1_555
O15 H11 1_555 1_555
O17 H12 1_555 1_555
O16 H13 1_555 1_555
O8 H14 1_555 1_555
O18 H15 1_555 1_555
C12_2 N5_2 1_555 1_555
H5_2 C12_2 1_555 1_555
N6_2 C12_2 1_555 1_555
O16_2 In1_2 1_555 1_555
O18_2 In3_2 1_555 1_555
H9_2 O18_2 1_555 1_555
O19_2 In3_2 1_555 1_555
O21_2 In1_2 1_555 1_555
N9_2 In1_2 1_555 1_555
N5_2 In4_2 1_555 1_555
N6_2 In3_2 1_555 1_555
O16_2 H13_2 1_555 1_555
O18_2 H15_2 1_555 1_555
In1_3 O2_2 1_555 1_555
Mg1_2 O1_2 1_555 1_555
O1_2 C3_2 1_555 1_555
O2_2 C3_2 1_555 1_555
O3_2 In1_3 1_555 1_555
N1_2 In1_3 1_555 1_555
C1_2 N1_2 1_555 1_555
C2_2 N1_2 1_555 1_555
H2_2 C2_2 1_555 1_555
C3_2 C1_2 1_555 1_555
O4_2 Mg1_2 1_555 1_555
O5_2 C5_2 1_555 1_555
N2_2 C2_2 1_555 1_555
C4_2 C1_2 1_555 1_555
C5_2 O4_2 1_555 1_555
O6_2 Mg1_2 1_555 1_555
O7_2 C8_2 1_555 1_555
C8_2 O6_2 1_555 1_555
O9_2 Mg1_2 1_555 1_555
O10_2 C10_2 1_555 1_555
C9_2 C6_2 1_555 1_555
C10_2 O9_2 1_555 1_555
O11_2 Mg1_2 1_555 1_555
O12_2 C13_2 1_555 1_555
C11_2 C13_2 1_555 1_555
C13_2 O11_2 1_555 1_555
O13_2 Mg1_2 1_555 1_555
O14_2 C15_2 1_555 1_555
C14_2 C11_2 1_555 1_555
C15_2 O13_2 1_555 1_555
In3_3 O14_2 1_555 1_555
O15_2 In3_3 1_555 1_555
H6_2 O15_2 1_555 1_555
In5_2 O5_2 1_555 1_555
In6_2 O10_2 1_555 1_555
N7_2 In3_3 1_555 1_555
N2_2 C4_2 1_555 1_555
N2_2 In5_2 1_555 1_555
C4_2 C5_2 1_555 1_555
C6_2 C8_2 1_555 1_555
C9_2 C10_2 1_555 1_555
C14_2 C15_2 1_555 1_555
O3_2 H10_2 1_555 1_555
O15_2 H11_2 1_555 1_555
O8_2 In2_2 1_555 1_555
H3_2 O8_2 1_555 1_555
N3_2 In2_2 1_555 1_555
C7_2 N3_2 1_555 1_555
H4_2 C7_2 1_555 1_555
N4_2 C7_2 1_555 1_555
O17_2 In2_2 1_555 1_555
H8_2 O17_2 1_555 1_555
N8_2 In2_2 1_555 1_555
N4_2 In6_3 1_555 1_555
O17_2 H12_2 1_555 1_555
O8_2 H14_2 1_555 1_555
C12_3 N5_3 1_555 1_555
H5_3 C12_3 1_555 1_555
N6_3 C12_3 1_555 1_555
O15_3 In3_4 1_555 1_555
N5_3 In4_4 1_555 1_555
N6_3 In3_4 1_555 1_555
O15_3 H11_3 1_555 1_555
In1_4 O2_3 1_555 1_555
Mg1_3 O1_3 1_555 1_555
O1_3 C3_3 1_555 1_555
O2_3 C3_3 1_555 1_555
O3_3 In1_4 1_555 1_555
H1_3 O3_3 1_555 1_555
C3_3 C1_3 1_555 1_555
O4_3 Mg1_3 1_555 1_555
O5_3 C5_3 1_555 1_555
C4_3 C1_3 1_555 1_555
C5_3 O4_3 1_555 1_555
In2_3 O7_3 1_555 1_555
O6_3 Mg1_3 1_555 1_555
O7_3 C8_3 1_555 1_555
O8_3 In2_3 1_555 1_555
H3_3 O8_3 1_555 1_555
N3_3 In2_3 1_555 1_555
C6_3 N3_3 1_555 1_555
C7_3 N3_3 1_555 1_555
H4_3 C7_3 1_555 1_555
C8_3 O6_3 1_555 1_555
O9_3 Mg1_3 1_555 1_555
O10_3 C10_3 1_555 1_555
N4_3 C7_3 1_555 1_555
C9_3 C6_3 1_555 1_555
C10_3 O9_3 1_555 1_555
O11_3 Mg1_3 1_555 1_555
O12_3 C13_3 1_555 1_555
C11_3 C13_3 1_555 1_555
C13_3 O11_3 1_555 1_555
O13_3 Mg1_3 1_555 1_555
O14_3 C15_3 1_555 1_555
C14_3 C11_3 1_555 1_555
C15_3 O13_3 1_555 1_555
O17_3 In2_3 1_555 1_555
H8_3 O17_3 1_555 1_555
In4_5 O12_3 1_555 1_555
In6_5 O10_3 1_555 1_555
O20_3 In2_3 1_555 1_555
N8_3 In2_3 1_555 1_555
N9_3 In1_4 1_555 1_555
C4_3 C5_3 1_555 1_555
C6_3 C8_3 1_555 1_555
N4_3 C9_3 1_555 1_555
N4_3 In6_5 1_555 1_555
C9_3 C10_3 1_555 1_555
C14_3 C15_3 1_555 1_555
O3_3 H10_3 1_555 1_555
O17_3 H12_3 1_555 1_555
O8_3 H14_3 1_555 1_555
O18_3 In3_5 1_555 1_555
N7_3 In3_5 1_555 1_555
O18_3 H15_3 1_555 1_555
N1_3 In1_5 1_555 1_555
C2_3 N1_3 1_555 1_555
H2_3 C2_3 1_555 1_555
N2_3 C2_3 1_555 1_555
O16_3 In1_5 1_555 1_555
H7_3 O16_3 1_555 1_555
O21_3 In1_5 1_555 1_555
N2_3 In5_3 1_555 1_555
O16_3 H13_3 1_555 1_555
O8_4 In2_4 1_555 1_555
N3_4 In2_4 1_555 1_555
C7_4 N3_4 1_555 1_555
H4_4 C7_4 1_555 1_555
N4_4 C7_4 1_555 1_555
N4_4 In6_6 1_555 1_555
O8_4 H14_4 1_555 1_555
O17_4 In2_5 1_555 1_555
N8_4 In2_5 1_555 1_555
O17_4 H12_4 1_555 1_555
Mg1_4 O1_4 1_555 1_555
O1_4 C3_4 1_555 1_555
O2_4 C3_4 1_555 1_555
C3_4 C1_4 1_555 1_555
O4_4 Mg1_4 1_555 1_555
O5_4 C5_4 1_555 1_555
C4_4 C1_4 1_555 1_555
C5_4 O4_4 1_555 1_555
O6_4 Mg1_4 1_555 1_555
O7_4 C8_4 1_555 1_555
C8_4 O6_4 1_555 1_555
O9_4 Mg1_4 1_555 1_555
O10_4 C10_4 1_555 1_555
C9_4 C6_4 1_555 1_555
C10_4 O9_4 1_555 1_555
O11_4 Mg1_4 1_555 1_555
O12_4 C13_4 1_555 1_555
N5_4 C11_4 1_555 1_555
C11_4 C13_4 1_555 1_555
C12_4 N5_4 1_555 1_555
H5_4 C12_4 1_555 1_555
C13_4 O11_4 1_555 1_555
O13_4 Mg1_4 1_555 1_555
O14_4 C15_4 1_555 1_555
N6_4 C12_4 1_555 1_555
C14_4 C11_4 1_555 1_555
C15_4 O13_4 1_555 1_555
In3_6 O14_4 1_555 1_555
O15_4 In3_6 1_555 1_555
H6_4 O15_4 1_555 1_555
O18_4 In3_6 1_555 1_555
H9_4 O18_4 1_555 1_555
In4_7 O12_4 1_555 1_555
In5_4 O5_4 1_555 1_555
In6_7 O10_4 1_555 1_555
O19_4 In3_6 1_555 1_555
N7_4 In3_6 1_555 1_555
C4_4 C5_4 1_555 1_555
C6_4 C8_4 1_555 1_555
C9_4 C10_4 1_555 1_555
N5_4 In4_7 1_555 1_555
N6_4 C14_4 1_555 1_555
N6_4 In3_6 1_555 1_555
C14_4 C15_4 1_555 1_555
O15_4 H11_4 1_555 1_555
O18_4 H15_4 1_555 1_555
O3_4 In1_6 1_555 1_555
H1_4 O3_4 1_555 1_555
N1_4 In1_6 1_555 1_555
C2_4 N1_4 1_555 1_555
H2_4 C2_4 1_555 1_555
N2_4 C2_4 1_555 1_555
O16_4 In1_6 1_555 1_555
H7_4 O16_4 1_555 1_555
N9_4 In1_6 1_555 1_555
N2_4 In5_5 1_555 1_555
O3_4 H10_4 1_555 1_555
O16_4 H13_4 1_555 1_555
Mg1_5 O1_5 1_555 1_555
O1_5 C3_5 1_555 1_555
O19_4 C3_5 1_555 1_555
C1_5 N7_4 1_555 1_555
C2_5 N7_4 1_555 1_555
H2_5 C2_5 1_555 1_555
C3_5 C1_5 1_555 1_555
O4_5 Mg1_5 1_555 1_555
O5_5 C5_5 1_555 1_555
N2_5 C2_5 1_555 1_555
C4_5 C1_5 1_555 1_555
C5_5 O4_5 1_555 1_555
O6_5 Mg1_5 1_555 1_555
O20 C8_5 1_555 1_555
C6_5 N8 1_555 1_555
C7_5 N8 1_555 1_555
H4_5 C7_5 1_555 1_555
C8_5 O6_5 1_555 1_555
O9_5 Mg1_5 1_555 1_555
O10_5 C10_5 1_555 1_555
N4_5 C7_5 1_555 1_555
C9_5 C6_5 1_555 1_555
C10_5 O9_5 1_555 1_555
O11_5 Mg1_5 1_555 1_555
O12_5 C13_5 1_555 1_555
C11_5 C13_5 1_555 1_555
C13_5 O11_5 1_555 1_555
O13_5 Mg1_5 1_555 1_555
O21_4 C15_5 1_555 1_555
C14_5 C11_5 1_555 1_555
C15_5 O13_5 1_555 1_555
In4_4 O12_5 1_555 1_555
In5 O5_5 1_555 1_555
In6_4 O10_5 1_555 1_555
N2_5 C4_5 1_555 1_555
N2_5 In5 1_555 1_555
C4_5 C5_5 1_555 1_555
C6_5 C8_5 1_555 1_555
N4_5 C9_5 1_555 1_555
N4_5 In6_4 1_555 1_555
C9_5 C10_5 1_555 1_555
C14_5 C15_5 1_555 1_555
C12_5 N5_5 1_555 1_555
H5_5 C12_5 1_555 1_555
N9_4 C12_5 1_555 1_555
N5_5 In4_5 1_555 1_555
Mg1_6 O1_6 1_555 1_555
O1_6 C3_6 1_555 1_555
O19 C3_6 1_555 1_555
C1_6 N7 1_555 1_555
C2_6 N7 1_555 1_555
H2_6 C2_6 1_555 1_555
C3_6 C1_6 1_555 1_555
O4_6 Mg1_6 1_555 1_555
O5_6 C5_6 1_555 1_555
N2_6 C2_6 1_555 1_555
C4_6 C1_6 1_555 1_555
C5_6 O4_6 1_555 1_555
O6_6 Mg1_6 1_555 1_555
O20_2 C8_6 1_555 1_555
C8_6 O6_6 1_555 1_555
O9_6 Mg1_6 1_555 1_555
O10_6 C10_6 1_555 1_555
C9_6 C6_6 1_555 1_555
C10_6 O9_6 1_555 1_555
O11_6 Mg1_6 1_555 1_555
O12_6 C13_6 1_555 1_555
N5_6 C11_6 1_555 1_555
C11_6 C13_6 1_555 1_555
C12_6 N5_6 1_555 1_555
H5_6 C12_6 1_555 1_555
C13_6 O11_6 1_555 1_555
O13_6 Mg1_6 1_555 1_555
O21 C15_6 1_555 1_555
N9 C12_6 1_555 1_555
C14_6 C11_6 1_555 1_555
C15_6 O13_6 1_555 1_555
In4_6 O12_6 1_555 1_555
In5_2 O5_6 1_555 1_555
In6_6 O10_6 1_555 1_555
N2_6 C4_6 1_555 1_555
N2_6 In5_2 1_555 1_555
C4_6 C5_6 1_555 1_555
C6_6 C8_6 1_555 1_555
C9_6 C10_6 1_555 1_555
N5_6 In4_6 1_555 1_555
N9 C14_6 1_555 1_555
C14_6 C15_6 1_555 1_555
C7_6 N8_2 1_555 1_555
H4_6 C7_6 1_555 1_555
N4_6 C7_6 1_555 1_555
N4_6 In6_7 1_555 1_555
Mg1_7 O1_7 1_555 1_555
O1_7 C3_7 1_555 1_555
O19_2 C3_7 1_555 1_555
C3_7 C1_7 1_555 1_555
O4_7 Mg1_7 1_555 1_555
O5_7 C5_7 1_555 1_555
C4_7 C1_7 1_555 1_555
C5_7 O4_7 1_555 1_555
O6_7 Mg1_7 1_555 1_555
O20_3 C8_7 1_555 1_555
C6_7 N8_3 1_555 1_555
C7_7 N8_3 1_555 1_555
H4_7 C7_7 1_555 1_555
C8_7 O6_7 1_555 1_555
O9_7 Mg1_7 1_555 1_555
O10_7 C10_7 1_555 1_555
N4_7 C7_7 1_555 1_555
C9_7 C6_7 1_555 1_555
C10_7 O9_7 1_555 1_555
O11_7 Mg1_7 1_555 1_555
O12_7 C13_7 1_555 1_555
N5_7 C11_7 1_555 1_555
C11_7 C13_7 1_555 1_555
C12_7 N5_7 1_555 1_555
H5_7 C12_7 1_555 1_555
C13_7 O11_7 1_555 1_555
O13_7 Mg1_7 1_555 1_555
O21_2 C15_7 1_555 1_555
N9_2 C12_7 1_555 1_555
C14_7 C11_7 1_555 1_555
C15_7 O13_7 1_555 1_555
In4 O12_7 1_555 1_555
In6 O10_7 1_555 1_555
C4_7 C5_7 1_555 1_555
C6_7 C8_7 1_555 1_555
N4_7 C9_7 1_555 1_555
N4_7 In6 1_555 1_555
C9_7 C10_7 1_555 1_555
N5_7 In4 1_555 1_555
N9_2 C14_7 1_555 1_555
C14_7 C15_7 1_555 1_555
C2_7 N7_2 1_555 1_555
H2_7 C2_7 1_555 1_555
N2_7 C2_7 1_555 1_555
N2_7 In5_3 1_555 1_555
C12_8 N5_8 1_555 1_555
H5_8 C12_8 1_555 1_555
N9_3 C12_8 1_555 1_555
N5_8 In4_3 1_555 1_555
C7_8 N8_4 1_555 1_555
H4_8 C7_8 1_555 1_555
N4_8 C7_8 1_555 1_555
N4_8 In6_2 1_555 1_555
C2_8 N7_3 1_555 1_555
H2_8 C2_8 1_555 1_555
N2_8 C2_8 1_555 1_555
N2_8 In5_4 1_555 1_555
Mg1_8 O1_8 1_555 1_555
O1_8 C3_8 1_555 1_555
O19_3 C3_8 1_555 1_555
C3_8 C1_8 1_555 1_555
O4_8 Mg1_8 1_555 1_555
O5_8 C5_8 1_555 1_555
C4_8 C1_8 1_555 1_555
C5_8 O4_8 1_555 1_555
O6_8 Mg1_8 1_555 1_555
O20_4 C8_8 1_555 1_555
C8_8 O6_8 1_555 1_555
O9_8 Mg1_8 1_555 1_555
O10_8 C10_8 1_555 1_555
C9_8 C6_8 1_555 1_555
C10_8 O9_8 1_555 1_555
O11_8 Mg1_8 1_555 1_555
O12_8 C13_8 1_555 1_555
C11_8 C13_8 1_555 1_555
C13_8 O11_8 1_555 1_555
O13_8 Mg1_8 1_555 1_555
O21_3 C15_8 1_555 1_555
C14_8 C11_8 1_555 1_555
C15_8 O13_8 1_555 1_555
In5_5 O5_8 1_555 1_555
In6_3 O10_8 1_555 1_555
C4_8 C5_8 1_555 1_555
C6_8 C8_8 1_555 1_555
C9_8 C10_8 1_555 1_555
C14_8 C15_8 1_555 1_555
O8_5 In4 1_555 1_555
H3_5 O8_5 1_555 1_555
O15_5 In5 1_555 1_555
H6_5 O15_5 1_555 1_555
O17_5 In4 1_555 1_555
H8_5 O17_5 1_555 1_555
O18_5 In5 1_555 1_555
H9_5 O18_5 1_555 1_555
O15_5 H11_5 1_555 1_555
O17_5 H12_5 1_555 1_555
O8_5 H14_5 1_555 1_555
O18_5 H15_5 1_555 1_555
O8_6 In4_2 1_555 1_555
O8_6 H14_6 1_555 1_555
O17_6 In4_3 1_555 1_555
O17_6 H12_6 1_555 1_555
O15_6 In5_2 1_555 1_555
H6_6 O15_6 1_555 1_555
O18_6 In5_2 1_555 1_555
H9_6 O18_6 1_555 1_555
O15_6 H11_6 1_555 1_555
O18_6 H15_6 1_555 1_555
O17_7 In4_4 1_555 1_555
H8_7 O17_7 1_555 1_555
O17_7 H12_7 1_555 1_555
O8_7 In4_5 1_555 1_555
H3_7 O8_7 1_555 1_555
O8_7 H14_7 1_555 1_555
O15_7 In5_3 1_555 1_555
H6_7 O15_7 1_555 1_555
O18_7 In5_3 1_555 1_555
H9_7 O18_7 1_555 1_555
O15_7 H11_7 1_555 1_555
O18_7 H15_7 1_555 1_555
O17_8 In4_6 1_555 1_555
O17_8 H12_8 1_555 1_555
O8_8 In4_7 1_555 1_555
O15_8 In5_4 1_555 1_555
H6_8 O15_8 1_555 1_555
O15_8 H11_8 1_555 1_555
O8_8 H14_8 1_555 1_555
O18_8 In5_5 1_555 1_555
H9_8 O18_8 1_555 1_555
O18_8 H15_8 1_555 1_555
O15_9 In6 1_555 1_555
H6_9 O15_9 1_555 1_555
O18_9 In6 1_555 1_555
H9_9 O18_9 1_555 1_555
O15_9 H11_9 1_555 1_555
O18_9 H15_9 1_555 1_555
O18_10 In6_2 1_555 1_555
H9_10 O18_10 1_555 1_555
O18_10 H15_10 1_555 1_555
O15_10 In6_3 1_555 1_555
H6_10 O15_10 1_555 1_555
O15_10 H11_10 1_555 1_555
O18_11 In6_6 1_555 1_555
H9_11 O18_11 1_555 1_555
O18_11 H15_11 1_555 1_555
O15_11 In6_7 1_555 1_555
H6_11 O15_11 1_555 1_555
O15_11 H11_11 1_555 1_555
O15_12 In6_4 1_555 1_555
O15_12 H11_12 1_555 1_555
O18_12 In6_5 1_555 1_555
O18_12 H15_12 1_555 1_555

#END
