
###############################################################################
#
# This file contains modified crystal structure data generated from the
# MOF subset of the Cambridge Structural Database (CSD) v543 
# hosted by the Cambridge Crystallographic Data Centre (CCDC).
#
# This work is licensed under the Creative Commons
# Attribution-NonCommercial-ShareAlike 4.0 International License.
# To view a copy of this license, visit
# http://creativecommons.org/licenses/by-nc-sa/4.0/
# or send a letter to
# Creative Commons, PO Box 1866, Mountain View, CA 94042, USA.
#
# CIF created using the CSD Python API on 29 September 2022
# The structure has been converted into the P1 space group
# The structure has a 3D framework
# The original CSD entry NETYET is in the orthorhombic crystal system
# The framework has been calculated to contain at least 10.0% void space
# The void calculation uses a probe of radius 1.32A, grid spacing 0.4
#
###############################################################################

data_NETYET
_chemical_formula_moiety         '(C384 H416 Cd26 N32 O176)n'
_symmetry_cell_setting           triclinic
_symmetry_space_group_name_H-M   'P 1'
_symmetry_Int_Tables_number      1
_space_group_name_Hall           'P 1'
loop_
_symmetry_equiv_pos_site_id
_symmetry_equiv_pos_as_xyz
1 x,y,z
_cell_length_a                   27.0301(10)
_cell_length_b                   19.4983(5)
_cell_length_c                   28.5432(8)
_cell_angle_alpha                90
_cell_angle_beta                 90
_cell_angle_gamma                90
_cell_volume                     15043.4
loop_
_atom_site_label
_atom_site_type_symbol
_atom_site_fract_x
_atom_site_fract_y
_atom_site_fract_z
N3 N 0.6176(4) 0.0928(5) 0.7058(4)
O13 O 0.6934(2) 0.2481(2) 0.7909(2)
O14 O 0.7224(2) 0.1481(2) 0.77109(18)
O15 O 0.5529(3) 0.2593(3) 0.9035(2)
O16 O 0.5255(2) 0.1647(2) 0.93628(18)
C25 C 0.6930(3) 0.1840(3) 0.7940(3)
C26 C 0.5524(3) 0.1969(3) 0.9085(3)
C27 C 0.6559(3) 0.1497(3) 0.8257(3)
C28 C 0.6219(3) 0.1883(3) 0.8499(2)
H14 H 0.6210 0.2357 0.8461
C29 C 0.5888(3) 0.1558(3) 0.8803(3)
C30 C 0.5897(3) 0.0851(3) 0.8845(3)
H15 H 0.5670 0.0637 0.9042
C31 C 0.6237(3) 0.0452(3) 0.8600(2)
C32 C 0.6566(3) 0.0791(3) 0.8302(3)
H16 H 0.6794 0.0537 0.8130
C40 C 0.5540(7) 0.0198(9) 0.5917(6)
H32 H 0.5531 0.0137 0.6251
H33 H 0.5209 0.0196 0.5796
H34 H 0.5695 0.0627 0.5844
C41 C 0.6487(4) 0.0449(5) 0.7032(4)
C42 C 0.6958(5) 0.0635(6) 0.6675(4)
H35 H 0.7056 0.1104 0.6722
H36 H 0.6857 0.0572 0.6356
H37 H 0.7232 0.0338 0.6743
C43 C 0.6227(5) 0.1608(5) 0.6827(5)
H38 H 0.6473 0.1580 0.6586
H39 H 0.6325 0.1943 0.7055
H40 H 0.5916 0.1739 0.6692
C44 C 0.5752(5) 0.0714(7) 0.7344(5)
H41 H 0.5828 0.0290 0.7500
H42 H 0.5468 0.0651 0.7147
H43 H 0.5682 0.1061 0.7574
Cd7 Cd 0.479764(17) 0.22604(2) 0.983770(15)
Cd9 Cd 0.52768(2) 0.36613(2) 0.916056(18)
Cd12 Cd 0.764486(17) 0.24322(2) 0.743455(15)
Cd5 Cd 0.520236(17) 0.77396(2) 0.016230(15)
Cd1 Cd 0.479764(17) 0.77396(2) 0.483770(15)
Cd2 Cd 0.52768(2) 0.63387(2) 0.416056(18)
Cd3 Cd 0.652918(19) 0.87748(2) 0.699728(18)
Cd4 Cd 0.735514(17) 0.74322(2) 0.743455(15)
N1 N 0.5232(6) 0.4222(7) 0.3865(7)
N2 N 0.5810(5) 0.9660(6) 0.5713(4)
N4 N 0.5263(4) 0.8485(6) 0.8055(4)
O1 O 0.5400(2) 0.7255(2) 0.52623(19)
O2 O 0.5512(2) 0.6254(3) 0.4899(2)
O3 O 0.6405(2) 0.7715(2) 0.66927(19)
O4 O 0.6833(2) 0.6853(2) 0.70095(17)
O5 O 0.77180(19) 0.3927(2) 0.66876(18)
O6 O 0.73196(19) 0.2942(2) 0.68145(18)
O7 O 0.5932(2) 0.2409(2) 0.5704(2)
O8 O 0.54504(17) 0.3267(2) 0.55059(15)
O9 O 0.69319(17) 0.8419(2) 0.76682(14)
O10 O 0.6842(2) 0.7518(2) 0.81195(18)
O11 O 0.5765(2) 0.7707(2) 0.95395(18)
O12 O 0.5488(2) 0.8708(2) 0.97563(18)
O17 O 0.5044(3) 0.5247(3) 0.4072(3)
O18 O 0.6089(3) 0.9263(3) 0.6394(2)
O19 O 0.6502(2) 0.9908(3) 0.7233(2)
O20 O 0.5807(3) 0.8652(4) 0.7440(3)
O21 O 0.6032(4) 0.5998(5) 0.3953(4)
H1 H 0.6161 0.6296 0.3774
H2 H 0.6010 0.5623 0.3802
O22 O 0.4891(4) 0.6315(5) 0.3438(3)
H3 H 0.4896 0.5915 0.3319
H4 H 0.5023 0.6598 0.3248
C1 C 0.5578(3) 0.6658(3) 0.5238(3)
C2 C 0.6545(3) 0.7103(3) 0.6713(3)
C3 C 0.5886(3) 0.6410(3) 0.5643(3)
C4 C 0.6037(3) 0.6855(3) 0.5993(3)
H5 H 0.5935 0.7310 0.5989
C5 C 0.6342(3) 0.6617(3) 0.6351(2)
C6 C 0.6474(3) 0.5929(3) 0.6367(3)
H6 H 0.6678 0.5773 0.6606
C7 C 0.6303(3) 0.5470(3) 0.6027(3)
C8 C 0.6025(3) 0.5723(3) 0.5659(3)
H7 H 0.5929 0.5430 0.5418
C9 C 0.7359(3) 0.3526(3) 0.6641(2)
C10 C 0.5838(3) 0.3030(3) 0.5706(2)
C11 C 0.6931(3) 0.3775(3) 0.6355(2)
C12 C 0.6599(3) 0.3312(3) 0.6162(3)
H8 H 0.6658 0.2844 0.6193
C13 C 0.6181(3) 0.3533(3) 0.5923(2)
C14 C 0.6093(3) 0.4241(3) 0.5874(3)
H9 H 0.5813 0.4394 0.5716
C15 C 0.6428(3) 0.4719(3) 0.6064(3)
C16 C 0.6845(3) 0.4476(3) 0.6294(3)
H10 H 0.7074 0.4788 0.6411
C17 C 0.6773(3) 0.8139(3) 0.8041(2)
C18 C 0.5744(3) 0.8341(3) 0.9493(2)
C19 C 0.6501(3) 0.8573(3) 0.8392(3)
C20 C 0.6271(3) 0.8267(4) 0.8774(3)
H11 H 0.6285 0.7794 0.8812
C21 C 0.6024(3) 0.8666(3) 0.9096(2)
C22 C 0.6027(3) 0.9375(3) 0.9044(2)
H12 H 0.5874 0.9645 0.9270
C23 C 0.6253(3) 0.9694(3) 0.8661(2)
C24 C 0.6483(3) 0.9272(3) 0.8339(3)
H13 H 0.6631 0.9469 0.8077
C33 C 0.5268(6) 0.4707(8) 0.4193(6)
C34 C 0.5563(6) 0.4491(7) 0.4622(5)
H17 H 0.5712 0.4888 0.4762
H18 H 0.5817 0.4174 0.4530
H19 H 0.5347 0.4276 0.4845
C35 C 0.5485(6) 0.3569(6) 0.3909(6)
H20 H 0.5491 0.3433 0.4232
H21 H 0.5818 0.3613 0.3795
H22 H 0.5313 0.3228 0.3728
C36 C 0.4950(8) 0.4399(10) 0.3434(7)
H23 H 0.4641 0.4156 0.3434
H24 H 0.5139 0.4272 0.3163
H25 H 0.4887 0.4884 0.3428
C37 C 0.6096(5) 0.9213(6) 0.5970(4)
C38 C 0.6421(6) 0.8699(7) 0.5720(5)
H26 H 0.6685 0.8935 0.5563
H27 H 0.6228 0.8451 0.5495
H28 H 0.6558 0.8384 0.5944
C39 C 0.5722(7) 0.9571(9) 0.5214(5)
H29 H 0.5787 0.9995 0.5054
H30 H 0.5383 0.9441 0.5164
H31 H 0.5936 0.9220 0.5094
C45 C 0.5593(4) 0.8293(6) 0.7751(4)
C46 C 0.5654(6) 0.7510(6) 0.7728(5)
H44 H 0.5686 0.7370 0.7407
H45 H 0.5370 0.7293 0.7865
H46 H 0.5945 0.7378 0.7898
C47 C 0.5169(5) 0.9202(7) 0.8119(5)
H47 H 0.5085 0.9288 0.8441
H48 H 0.4900 0.9341 0.7921
H49 H 0.5460 0.9459 0.8038
C48 C 0.4979(5) 0.8052(8) 0.8396(5)
H50 H 0.4753 0.7762 0.8228
H51 H 0.4797 0.8343 0.8605
H52 H 0.5205 0.7774 0.8572
Cd6 Cd 0.520236(17) 0.22604(2) 0.516230(15)
Cd8 Cd 0.47232(2) 0.36613(2) 0.583944(18)
Cd10 Cd 0.847082(19) 0.37748(2) 0.699728(18)
O23 O 0.72820(19) 0.8927(2) 0.66876(18)
O24 O 0.76804(19) 0.7942(2) 0.68145(18)
O25 O 0.4068(2) 0.7591(2) 0.4296(2)
O26 O 0.45496(17) 0.6733(2) 0.44941(15)
O27 O 0.4235(2) 0.7707(2) 0.54605(18)
O28 O 0.4512(2) 0.8708(2) 0.52437(18)
O29 O 0.8066(2) 0.7481(2) 0.7909(2)
O30 O 0.7776(2) 0.6481(2) 0.77109(18)
O31 O 0.5529(3) 0.7407(3) 0.4035(2)
O32 O 0.5255(2) 0.8353(2) 0.43628(18)
Cd8_2 Cd 0.02768(2) 0.13387(2) 0.083944(18)
H48_2 H 0.0100 0.5659 0.2921
C48_2 C 0.0021(5) 0.6948(8) 0.3396(5)
H50_2 H 0.0247 0.7238 0.3228
H51_2 H 0.0203 0.6657 0.3605
Cd7_2 Cd 0.020236(17) 0.27396(2) 0.483770(15)
O27_2 O 0.0765(2) 0.7293(2) 0.04605(18)
O28_2 O 0.0488(2) 0.6292(2) 0.02437(18)
Cd1_2 Cd 0.020236(17) 0.72604(2) 0.983770(15)
O22_2 O 0.0109(4) 0.8685(5) 0.8438(3)
H3_2 H 0.0104 0.9085 0.8319
O25_2 O 0.0932(2) 0.7409(2) 0.9296(2)
O26_2 O 0.04504(17) 0.8267(2) 0.94941(15)
O5_2 O 0.72820(19) 0.1073(2) 0.16876(18)
O6_2 O 0.76804(19) 0.2058(2) 0.18145(18)
O7_2 O 0.9068(2) 0.2591(2) 0.0704(2)
O8_2 O 0.95496(17) 0.1733(2) 0.05059(15)
C9_2 C 0.7641(3) 0.1474(3) 0.1641(2)
C10_2 C 0.9162(3) 0.1970(3) 0.0706(2)
C11_2 C 0.8069(3) 0.1225(3) 0.1355(2)
C12_2 C 0.8401(3) 0.1688(3) 0.1162(3)
H8_2 H 0.8342 0.2156 0.1193
C13_2 C 0.8819(3) 0.1467(3) 0.0923(2)
C14_2 C 0.8907(3) 0.0759(3) 0.0874(3)
H9_2 H 0.9187 0.0606 0.0716
C15_2 C 0.8572(3) 0.0281(3) 0.1064(3)
C16_2 C 0.8155(3) 0.0524(3) 0.1294(3)
H10_2 H 0.7926 0.0212 0.1411
Cd6_2 Cd 0.979764(17) 0.27396(2) 0.016230(15)
Cd10_2 Cd 0.652918(19) 0.12252(2) 0.199728(18)
Cd11 Cd 0.735514(17) 0.25678(2) 0.243455(15)
Cd3_2 Cd 0.847082(19) 0.62252(2) 0.199728(18)
Cd4_2 Cd 0.764486(17) 0.75678(2) 0.243455(15)
N2_2 N 0.9190(5) 0.5340(6) 0.0713(4)
N3_2 N 0.8824(4) 0.4072(5) 0.2058(4)
N4_2 N 0.9737(4) 0.6515(6) 0.3055(4)
O1_2 O 0.9600(2) 0.7745(2) 0.02623(19)
O3_2 O 0.8595(2) 0.7285(2) 0.16927(19)
O4_2 O 0.8167(2) 0.8147(2) 0.20095(17)
O9_2 O 0.80681(17) 0.6581(2) 0.26682(14)
O10_2 O 0.8158(2) 0.7482(2) 0.31195(18)
O11_2 O 0.9235(2) 0.7293(2) 0.45395(18)
O12_2 O 0.9512(2) 0.6292(2) 0.47563(18)
O13_2 O 0.8066(2) 0.2519(2) 0.2909(2)
O14_2 O 0.7776(2) 0.3519(2) 0.27109(18)
O15_2 O 0.9471(3) 0.2407(3) 0.4035(2)
O16_2 O 0.9745(2) 0.3353(2) 0.43628(18)
O18_2 O 0.8911(3) 0.5737(3) 0.1394(2)
O19_2 O 0.8498(2) 0.5092(3) 0.2233(2)
O20_2 O 0.9193(3) 0.6348(4) 0.2440(3)
C1_2 C 0.9422(3) 0.8342(3) 0.0238(3)
C2_2 C 0.8455(3) 0.7897(3) 0.1713(3)
C3_2 C 0.9114(3) 0.8590(3) 0.0643(3)
C4_2 C 0.8963(3) 0.8145(3) 0.0993(3)
H5_2 H 0.9065 0.7690 0.0989
C5_2 C 0.8658(3) 0.8383(3) 0.1351(2)
C6_2 C 0.8526(3) 0.9071(3) 0.1367(3)
H6_2 H 0.8322 0.9227 0.1606
C7_2 C 0.8697(3) 0.9530(3) 0.1027(3)
C8_2 C 0.8975(3) 0.9277(3) 0.0659(3)
H7_2 H 0.9071 0.9570 0.0418
C17_2 C 0.8227(3) 0.6861(3) 0.3041(2)
C18_2 C 0.9256(3) 0.6659(3) 0.4493(2)
C19_2 C 0.8499(3) 0.6427(3) 0.3392(3)
C20_2 C 0.8729(3) 0.6733(4) 0.3774(3)
H11_2 H 0.8715 0.7206 0.3812
C21_2 C 0.8976(3) 0.6334(3) 0.4096(2)
C22_2 C 0.8973(3) 0.5625(3) 0.4044(2)
H12_2 H 0.9126 0.5355 0.4270
C23_2 C 0.8747(3) 0.5306(3) 0.3661(2)
C24_2 C 0.8517(3) 0.5728(3) 0.3339(3)
H13_2 H 0.8369 0.5531 0.3077
C25_2 C 0.8070(3) 0.3160(3) 0.2940(3)
C26_2 C 0.9476(3) 0.3031(3) 0.4085(3)
C27_2 C 0.8441(3) 0.3503(3) 0.3257(3)
C28_2 C 0.8781(3) 0.3117(3) 0.3499(2)
H14_2 H 0.8790 0.2643 0.3461
C29_2 C 0.9112(3) 0.3442(3) 0.3803(3)
C30_2 C 0.9103(3) 0.4149(3) 0.3845(3)
H15_2 H 0.9330 0.4363 0.4042
C31_2 C 0.8763(3) 0.4548(3) 0.3600(2)
C32_2 C 0.8434(3) 0.4209(3) 0.3302(3)
H16_2 H 0.8206 0.4463 0.3130
C37_2 C 0.8904(5) 0.5787(6) 0.0970(4)
C38_2 C 0.8579(6) 0.6301(7) 0.0720(5)
H26_2 H 0.8315 0.6065 0.0563
H27_2 H 0.8772 0.6549 0.0495
H28_2 H 0.8442 0.6616 0.0944
C39_2 C 0.9278(7) 0.5429(9) 0.0214(5)
H29_2 H 0.9213 0.5005 0.0054
H30_2 H 0.9617 0.5559 0.0164
H31_2 H 0.9064 0.5780 0.0094
C40_2 C 0.9460(7) 0.4802(9) 0.0917(6)
H32_2 H 0.9469 0.4863 0.1251
H33_2 H 0.9791 0.4804 0.0796
H34_2 H 0.9305 0.4373 0.0844
C41_2 C 0.8513(4) 0.4551(5) 0.2032(4)
C42_2 C 0.8042(5) 0.4365(6) 0.1675(4)
H35_2 H 0.7944 0.3896 0.1722
H36_2 H 0.8143 0.4428 0.1356
H37_2 H 0.7768 0.4662 0.1743
C43_2 C 0.8773(5) 0.3392(5) 0.1827(5)
H38_2 H 0.8527 0.3420 0.1586
H39_2 H 0.8675 0.3057 0.2055
H40_2 H 0.9084 0.3261 0.1692
C44_2 C 0.9248(5) 0.4286(7) 0.2344(5)
H41_2 H 0.9172 0.4710 0.2500
H42_2 H 0.9532 0.4349 0.2147
H43_2 H 0.9318 0.3939 0.2574
C45_2 C 0.9407(4) 0.6707(6) 0.2751(4)
C46_2 C 0.9346(6) 0.7490(6) 0.2728(5)
H44_2 H 0.9314 0.7630 0.2407
H45_2 H 0.9630 0.7707 0.2865
H46_2 H 0.9055 0.7622 0.2898
C47_2 C 0.9831(5) 0.5798(7) 0.3119(5)
H47_2 H 0.9915 0.5712 0.3441
H49_2 H 0.9540 0.5541 0.3038
H52_2 H 0.9795 0.7226 0.3572
Cd5_2 Cd 0.979764(17) 0.72604(2) 0.516230(15)
Cd9_2 Cd 0.97232(2) 0.13387(2) 0.416056(18)
O23_2 O 0.77180(19) 0.6073(2) 0.16876(18)
O24_2 O 0.73196(19) 0.7058(2) 0.18145(18)
O29_2 O 0.6934(2) 0.7519(2) 0.2909(2)
O30_2 O 0.7224(2) 0.8519(2) 0.27109(18)
Cd2_2 Cd 0.97232(2) 0.86613(2) 0.916056(18)
O2_2 O 0.9488(2) 0.8746(3) 0.9899(2)
O17_2 O 0.9956(3) 0.9753(3) 0.9072(3)
O21_2 O 0.8968(4) 0.9002(5) 0.8953(4)
H1_2 H 0.8839 0.8704 0.8774
H2_2 H 0.8990 0.9377 0.8802
H4_2 H 0.9977 0.8402 0.8248
O31_2 O 0.9471(3) 0.7593(3) 0.9035(2)
O32_2 O 0.9745(2) 0.6647(2) 0.93628(18)
N3_3 N 0.3824(4) 0.0928(5) 0.7942(4)
O13_3 O 0.3066(2) 0.2481(2) 0.7091(2)
O14_3 O 0.2776(2) 0.1481(2) 0.72891(18)
O15_3 O 0.4471(3) 0.2593(3) 0.5965(2)
O16_3 O 0.4745(2) 0.1647(2) 0.56372(18)
C25_3 C 0.3070(3) 0.1840(3) 0.7060(3)
C26_3 C 0.4476(3) 0.1969(3) 0.5915(3)
C27_3 C 0.3441(3) 0.1497(3) 0.6743(3)
C28_3 C 0.3781(3) 0.1883(3) 0.6501(2)
H14_3 H 0.3790 0.2357 0.6539
C29_3 C 0.4112(3) 0.1558(3) 0.6197(3)
C30_3 C 0.4103(3) 0.0851(3) 0.6155(3)
H15_3 H 0.4330 0.0637 0.5958
C31_3 C 0.3763(3) 0.0452(3) 0.6400(2)
C32_3 C 0.3434(3) 0.0791(3) 0.6698(3)
H16_3 H 0.3206 0.0537 0.6870
C40_3 C 0.4460(7) 0.0198(9) 0.9083(6)
H32_3 H 0.4469 0.0137 0.8749
H33_3 H 0.4791 0.0196 0.9204
H34_3 H 0.4305 0.0627 0.9156
C41_3 C 0.3513(4) 0.0449(5) 0.7968(4)
C42_3 C 0.3042(5) 0.0635(6) 0.8325(4)
H35_3 H 0.2944 0.1104 0.8278
H36_3 H 0.3143 0.0572 0.8644
H37_3 H 0.2768 0.0338 0.8257
C43_3 C 0.3773(5) 0.1608(5) 0.8173(5)
H38_3 H 0.3527 0.1580 0.8414
H39_3 H 0.3675 0.1943 0.7945
H40_3 H 0.4084 0.1739 0.8308
C44_3 C 0.4248(5) 0.0714(7) 0.7656(5)
H41_3 H 0.4172 0.0290 0.7500
H42_3 H 0.4532 0.0651 0.7853
H43_3 H 0.4318 0.1061 0.7426
Cd12_2 Cd 0.235514(17) 0.24322(2) 0.756545(15)
Cd2_3 Cd 0.47232(2) 0.63387(2) 0.083944(18)
N1_2 N 0.4768(6) 0.4222(7) 0.1135(7)
O2_3 O 0.4488(2) 0.6254(3) 0.0101(2)
O17_3 O 0.4956(3) 0.5247(3) 0.0928(3)
O21_3 O 0.3968(4) 0.5998(5) 0.1047(4)
H1_3 H 0.3839 0.6296 0.1226
H2_3 H 0.3990 0.5623 0.1198
O22_3 O 0.5109(4) 0.6315(5) 0.1562(3)
H3_3 H 0.5104 0.5915 0.1681
H4_3 H 0.4977 0.6598 0.1752
C33_2 C 0.4732(6) 0.4707(8) 0.0807(6)
C34_2 C 0.4437(6) 0.4491(7) 0.0378(5)
H17_2 H 0.4288 0.4888 0.0238
H18_2 H 0.4183 0.4174 0.0470
H19_2 H 0.4653 0.4276 0.0155
C35_2 C 0.4515(6) 0.3569(6) 0.1091(6)
H20_2 H 0.4509 0.3433 0.0768
H21_2 H 0.4182 0.3613 0.1205
H22_2 H 0.4687 0.3228 0.1272
C36_2 C 0.5050(8) 0.4399(10) 0.1566(7)
H23_2 H 0.5359 0.4156 0.1566
H24_2 H 0.4861 0.4272 0.1837
H25_2 H 0.5113 0.4884 0.1572
O25_3 O 0.5932(2) 0.7591(2) 0.0704(2)
O26_3 O 0.54504(17) 0.6733(2) 0.05059(15)
O31_3 O 0.4471(3) 0.7407(3) 0.0965(2)
O32_3 O 0.4745(2) 0.8353(2) 0.06372(18)
Cd3_3 Cd 0.347082(19) 0.87748(2) 0.800272(18)
Cd4_3 Cd 0.264486(17) 0.74322(2) 0.756545(15)
N2_3 N 0.4190(5) 0.9660(6) 0.9287(4)
N4_3 N 0.4737(4) 0.8485(6) 0.6945(4)
O1_3 O 0.4600(2) 0.7255(2) 0.97377(19)
O3_3 O 0.3595(2) 0.7715(2) 0.83073(19)
O4_3 O 0.3167(2) 0.6853(2) 0.79905(17)
O5_3 O 0.22820(19) 0.3927(2) 0.83124(18)
O6_3 O 0.26804(19) 0.2942(2) 0.81855(18)
O7_3 O 0.4068(2) 0.2409(2) 0.9296(2)
O8_3 O 0.45496(17) 0.3267(2) 0.94941(15)
O9_3 O 0.30681(17) 0.8419(2) 0.73318(14)
O10_3 O 0.3158(2) 0.7518(2) 0.68805(18)
O18_3 O 0.3911(3) 0.9263(3) 0.8606(2)
O19_3 O 0.3498(2) 0.9908(3) 0.7767(2)
O20_3 O 0.4193(3) 0.8652(4) 0.7560(3)
C1_3 C 0.4422(3) 0.6658(3) 0.9762(3)
C2_3 C 0.3455(3) 0.7103(3) 0.8287(3)
C3_3 C 0.4114(3) 0.6410(3) 0.9357(3)
C4_3 C 0.3963(3) 0.6855(3) 0.9007(3)
H5_3 H 0.4065 0.7310 0.9011
C5_3 C 0.3658(3) 0.6617(3) 0.8649(2)
C6_3 C 0.3526(3) 0.5929(3) 0.8633(3)
H6_3 H 0.3322 0.5773 0.8394
C7_3 C 0.3697(3) 0.5470(3) 0.8973(3)
C8_3 C 0.3975(3) 0.5723(3) 0.9341(3)
H7_3 H 0.4071 0.5430 0.9582
C9_3 C 0.2641(3) 0.3526(3) 0.8359(2)
C10_3 C 0.4162(3) 0.3030(3) 0.9294(2)
C11_3 C 0.3069(3) 0.3775(3) 0.8645(2)
C12_3 C 0.3401(3) 0.3312(3) 0.8838(3)
H8_3 H 0.3342 0.2844 0.8807
C13_3 C 0.3819(3) 0.3533(3) 0.9077(2)
C14_3 C 0.3907(3) 0.4241(3) 0.9126(3)
H9_3 H 0.4187 0.4394 0.9284
C15_3 C 0.3572(3) 0.4719(3) 0.8936(3)
C16_3 C 0.3155(3) 0.4476(3) 0.8706(3)
H10_3 H 0.2926 0.4788 0.8589
C17_3 C 0.3227(3) 0.8139(3) 0.6959(2)
C18_3 C 0.4256(3) 0.8341(3) 0.5507(2)
C19_3 C 0.3499(3) 0.8573(3) 0.6608(3)
C20_3 C 0.3729(3) 0.8267(4) 0.6226(3)
H11_3 H 0.3715 0.7794 0.6188
C21_3 C 0.3976(3) 0.8666(3) 0.5904(2)
C22_3 C 0.3973(3) 0.9375(3) 0.5956(2)
H12_3 H 0.4126 0.9645 0.5730
C23_3 C 0.3747(3) 0.9694(3) 0.6339(2)
C24_3 C 0.3517(3) 0.9272(3) 0.6661(3)
H13_3 H 0.3369 0.9469 0.6923
C37_3 C 0.3904(5) 0.9213(6) 0.9030(4)
C38_3 C 0.3579(6) 0.8699(7) 0.9280(5)
H26_3 H 0.3315 0.8935 0.9437
H27_3 H 0.3772 0.8451 0.9505
H28_3 H 0.3442 0.8384 0.9056
C39_3 C 0.4278(7) 0.9571(9) 0.9786(5)
H29_3 H 0.4213 0.9995 0.9946
H30_3 H 0.4617 0.9441 0.9836
H31_3 H 0.4064 0.9220 0.9906
C45_3 C 0.4407(4) 0.8293(6) 0.7249(4)
C46_3 C 0.4346(6) 0.7510(6) 0.7272(5)
H44_3 H 0.4314 0.7370 0.7593
H45_3 H 0.4630 0.7293 0.7135
H46_3 H 0.4055 0.7378 0.7102
C47_3 C 0.4831(5) 0.9202(7) 0.6881(5)
H47_3 H 0.4915 0.9288 0.6559
H48_3 H 0.5100 0.9341 0.7079
H49_3 H 0.4540 0.9459 0.6962
C48_3 C 0.5021(5) 0.8052(8) 0.6604(5)
H50_3 H 0.5247 0.7762 0.6772
H51_3 H 0.5203 0.8343 0.6395
H52_3 H 0.4795 0.7774 0.6428
Cd10_3 Cd 0.152918(19) 0.37748(2) 0.800272(18)
O23_3 O 0.27180(19) 0.8927(2) 0.83124(18)
O24_3 O 0.23196(19) 0.7942(2) 0.81855(18)
O29_3 O 0.1934(2) 0.7481(2) 0.7091(2)
O30_3 O 0.2224(2) 0.6481(2) 0.72891(18)
N1_3 N 0.0232(6) 0.0778(7) 0.6135(7)
O5_4 O 0.27180(19) 0.1073(2) 0.33124(18)
O6_4 O 0.23196(19) 0.2058(2) 0.31855(18)
O7_4 O 0.0932(2) 0.2591(2) 0.4296(2)
O8_4 O 0.04504(17) 0.1733(2) 0.44941(15)
C9_4 C 0.2359(3) 0.1474(3) 0.3359(2)
C10_4 C 0.0838(3) 0.1970(3) 0.4294(2)
C11_4 C 0.1931(3) 0.1225(3) 0.3645(2)
C12_4 C 0.1599(3) 0.1688(3) 0.3838(3)
H8_4 H 0.1658 0.2156 0.3807
C13_4 C 0.1181(3) 0.1467(3) 0.4077(2)
C14_4 C 0.1093(3) 0.0759(3) 0.4126(3)
H9_4 H 0.0813 0.0606 0.4284
C15_4 C 0.1428(3) 0.0281(3) 0.3936(3)
C16_4 C 0.1845(3) 0.0524(3) 0.3706(3)
H10_4 H 0.2074 0.0212 0.3589
C33_3 C 0.0268(6) 0.0293(8) 0.5807(6)
C34_3 C 0.0563(6) 0.0509(7) 0.5378(5)
H17_3 H 0.0712 0.0112 0.5238
H18_3 H 0.0817 0.0826 0.5470
H19_3 H 0.0347 0.0724 0.5155
C35_3 C 0.0485(6) 0.1431(6) 0.6091(6)
H20_3 H 0.0491 0.1567 0.5768
H21_3 H 0.0818 0.1387 0.6205
H22_3 H 0.0313 0.1772 0.6272
H24_3 H 0.0139 0.0728 0.6837
Cd10_4 Cd 0.347082(19) 0.12252(2) 0.300272(18)
Cd11_2 Cd 0.264486(17) 0.25678(2) 0.256545(15)
Cd2_4 Cd 0.02768(2) 0.86613(2) 0.583944(18)
Cd3_4 Cd 0.152918(19) 0.62252(2) 0.300272(18)
Cd4_4 Cd 0.235514(17) 0.75678(2) 0.256545(15)
N2_4 N 0.0810(5) 0.5340(6) 0.4287(4)
N3_4 N 0.1176(4) 0.4072(5) 0.2942(4)
N4_4 N 0.0263(4) 0.6515(6) 0.1945(4)
O1_4 O 0.0400(2) 0.7745(2) 0.47377(19)
O2_4 O 0.0512(2) 0.8746(3) 0.5101(2)
O3_4 O 0.1405(2) 0.7285(2) 0.33073(19)
O4_4 O 0.1833(2) 0.8147(2) 0.29905(17)
O9_4 O 0.19319(17) 0.6581(2) 0.23318(14)
O10_4 O 0.1842(2) 0.7482(2) 0.18805(18)
O13_4 O 0.1934(2) 0.2519(2) 0.2091(2)
O14_4 O 0.2224(2) 0.3519(2) 0.22891(18)
O15_4 O 0.0529(3) 0.2407(3) 0.0965(2)
O16_4 O 0.0255(2) 0.3353(2) 0.06372(18)
O17_4 O 0.0044(3) 0.9753(3) 0.5928(3)
O18_4 O 0.1089(3) 0.5737(3) 0.3606(2)
O19_4 O 0.1502(2) 0.5092(3) 0.2767(2)
O20_4 O 0.0807(3) 0.6348(4) 0.2560(3)
O21_4 O 0.1032(4) 0.9002(5) 0.6047(4)
H1_4 H 0.1161 0.8704 0.6226
H2_4 H 0.1010 0.9377 0.6198
H4_4 H 0.0023 0.8402 0.6752
C1_4 C 0.0578(3) 0.8342(3) 0.4762(3)
C2_4 C 0.1545(3) 0.7897(3) 0.3287(3)
C3_4 C 0.0886(3) 0.8590(3) 0.4357(3)
C4_4 C 0.1037(3) 0.8145(3) 0.4007(3)
H5_4 H 0.0935 0.7690 0.4011
C5_4 C 0.1342(3) 0.8383(3) 0.3649(2)
C6_4 C 0.1474(3) 0.9071(3) 0.3633(3)
H6_4 H 0.1678 0.9227 0.3394
C7_4 C 0.1303(3) 0.9530(3) 0.3973(3)
C8_4 C 0.1025(3) 0.9277(3) 0.4341(3)
H7_4 H 0.0929 0.9570 0.4582
C17_4 C 0.1773(3) 0.6861(3) 0.1959(2)
C18_4 C 0.0744(3) 0.6659(3) 0.0507(2)
C19_4 C 0.1501(3) 0.6427(3) 0.1608(3)
C20_4 C 0.1271(3) 0.6733(4) 0.1226(3)
H11_4 H 0.1285 0.7206 0.1188
C21_4 C 0.1024(3) 0.6334(3) 0.0904(2)
C22_4 C 0.1027(3) 0.5625(3) 0.0956(2)
H12_4 H 0.0874 0.5355 0.0730
C23_4 C 0.1253(3) 0.5306(3) 0.1339(2)
C24_4 C 0.1483(3) 0.5728(3) 0.1661(3)
H13_4 H 0.1631 0.5531 0.1923
C25_4 C 0.1930(3) 0.3160(3) 0.2060(3)
C26_4 C 0.0524(3) 0.3031(3) 0.0915(3)
C27_4 C 0.1559(3) 0.3503(3) 0.1743(3)
C28_4 C 0.1219(3) 0.3117(3) 0.1501(2)
H14_4 H 0.1210 0.2643 0.1539
C29_4 C 0.0888(3) 0.3442(3) 0.1197(3)
C30_4 C 0.0897(3) 0.4149(3) 0.1155(3)
H15_4 H 0.0670 0.4363 0.0958
C31_4 C 0.1237(3) 0.4548(3) 0.1400(2)
C32_4 C 0.1566(3) 0.4209(3) 0.1698(3)
H16_4 H 0.1794 0.4463 0.1870
C37_4 C 0.1096(5) 0.5787(6) 0.4030(4)
C38_4 C 0.1421(6) 0.6301(7) 0.4280(5)
H26_4 H 0.1685 0.6065 0.4437
H27_4 H 0.1228 0.6549 0.4505
H28_4 H 0.1558 0.6616 0.4056
C39_4 C 0.0722(7) 0.5429(9) 0.4786(5)
H29_4 H 0.0787 0.5005 0.4946
H30_4 H 0.0383 0.5559 0.4836
H31_4 H 0.0936 0.5780 0.4906
C40_4 C 0.0540(7) 0.4802(9) 0.4083(6)
H32_4 H 0.0531 0.4863 0.3749
H33_4 H 0.0209 0.4804 0.4204
H34_4 H 0.0695 0.4373 0.4156
C41_4 C 0.1487(4) 0.4551(5) 0.2968(4)
C42_4 C 0.1958(5) 0.4365(6) 0.3325(4)
H35_4 H 0.2056 0.3896 0.3278
H36_4 H 0.1857 0.4428 0.3644
H37_4 H 0.2232 0.4662 0.3257
C43_4 C 0.1227(5) 0.3392(5) 0.3173(5)
H38_4 H 0.1473 0.3420 0.3414
H39_4 H 0.1325 0.3057 0.2945
H40_4 H 0.0916 0.3261 0.3308
C44_4 C 0.0752(5) 0.4286(7) 0.2656(5)
H41_4 H 0.0828 0.4710 0.2500
H42_4 H 0.0468 0.4349 0.2853
H43_4 H 0.0682 0.3939 0.2426
C45_4 C 0.0593(4) 0.6707(6) 0.2249(4)
C46_4 C 0.0654(6) 0.7490(6) 0.2272(5)
H44_4 H 0.0686 0.7630 0.2593
H45_4 H 0.0370 0.7707 0.2135
H46_4 H 0.0945 0.7622 0.2102
C47_4 C 0.0169(5) 0.5798(7) 0.1881(5)
H47_4 H 0.0085 0.5712 0.1559
H49_4 H 0.0460 0.5541 0.1962
H52_4 H 0.0205 0.7226 0.1428
O23_4 O 0.22820(19) 0.6073(2) 0.33124(18)
O24_4 O 0.26804(19) 0.7058(2) 0.31855(18)
O29_4 O 0.3066(2) 0.7519(2) 0.2091(2)
O30_4 O 0.2776(2) 0.8519(2) 0.22891(18)
O31_4 O 0.0529(3) 0.7593(3) 0.5965(2)
O32_4 O 0.0255(2) 0.6647(2) 0.56372(18)
C36_3 C 0.9950(8) 0.0601(10) 0.6566(7)
H23_3 H 0.9641 0.0844 0.6566
H25_3 H 0.9887 0.0116 0.6572
O22_4 O 0.9891(4) 0.8685(5) 0.6562(3)
H3_4 H 0.9896 0.9085 0.6681
H48_4 H 0.9900 0.5659 0.2079
C48_4 C 0.9979(5) 0.6948(8) 0.1604(5)
H50_4 H 0.9753 0.7238 0.1772
H51_4 H 0.9797 0.6657 0.1395
O25_4 O 0.9068(2) 0.7409(2) 0.5704(2)
O26_4 O 0.95496(17) 0.8267(2) 0.55059(15)
N1_4 N 0.4768(6) 0.5778(7) 0.6135(7)
N2_5 N 0.4190(5) 0.0340(6) 0.4287(4)
N4_5 N 0.4737(4) 0.1515(6) 0.1945(4)
O1_5 O 0.4600(2) 0.2745(2) 0.47377(19)
O2_5 O 0.4488(2) 0.3746(3) 0.5101(2)
O3_5 O 0.3595(2) 0.2285(2) 0.33073(19)
O4_5 O 0.3167(2) 0.3147(2) 0.29905(17)
O9_5 O 0.30681(17) 0.1581(2) 0.23318(14)
O10_5 O 0.3158(2) 0.2482(2) 0.18805(18)
O11_3 O 0.4235(2) 0.2293(2) 0.04605(18)
O12_3 O 0.4512(2) 0.1292(2) 0.02437(18)
O17_5 O 0.4956(3) 0.4753(3) 0.5928(3)
O18_5 O 0.3911(3) 0.0737(3) 0.3606(2)
O19_5 O 0.3498(2) 0.0092(3) 0.2767(2)
O20_5 O 0.4193(3) 0.1348(4) 0.2560(3)
O21_5 O 0.3968(4) 0.4002(5) 0.6047(4)
H1_5 H 0.3839 0.3704 0.6226
H2_5 H 0.3990 0.4377 0.6198
O22_5 O 0.5109(4) 0.3685(5) 0.6562(3)
H3_5 H 0.5104 0.4085 0.6681
H4_5 H 0.4977 0.3402 0.6752
C1_5 C 0.4422(3) 0.3342(3) 0.4762(3)
C2_5 C 0.3455(3) 0.2897(3) 0.3287(3)
C3_5 C 0.4114(3) 0.3590(3) 0.4357(3)
C4_5 C 0.3963(3) 0.3145(3) 0.4007(3)
H5_5 H 0.4065 0.2690 0.4011
C5_5 C 0.3658(3) 0.3383(3) 0.3649(2)
C6_5 C 0.3526(3) 0.4071(3) 0.3633(3)
H6_5 H 0.3322 0.4227 0.3394
C7_5 C 0.3697(3) 0.4530(3) 0.3973(3)
C8_5 C 0.3975(3) 0.4277(3) 0.4341(3)
H7_5 H 0.4071 0.4570 0.4582
C9_5 C 0.2641(3) 0.6474(3) 0.3359(2)
C10_5 C 0.4162(3) 0.6970(3) 0.4294(2)
C11_5 C 0.3069(3) 0.6225(3) 0.3645(2)
C12_5 C 0.3401(3) 0.6688(3) 0.3838(3)
H8_5 H 0.3342 0.7156 0.3807
C13_5 C 0.3819(3) 0.6467(3) 0.4077(2)
C14_5 C 0.3907(3) 0.5759(3) 0.4126(3)
H9_5 H 0.4187 0.5606 0.4284
C15_5 C 0.3572(3) 0.5281(3) 0.3936(3)
C16_5 C 0.3155(3) 0.5524(3) 0.3706(3)
H10_5 H 0.2926 0.5212 0.3589
C17_5 C 0.3227(3) 0.1861(3) 0.1959(2)
C18_5 C 0.4256(3) 0.1659(3) 0.0507(2)
C19_5 C 0.3499(3) 0.1427(3) 0.1608(3)
C20_5 C 0.3729(3) 0.1733(4) 0.1226(3)
H11_5 H 0.3715 0.2206 0.1188
C21_5 C 0.3976(3) 0.1334(3) 0.0904(2)
C22_5 C 0.3973(3) 0.0625(3) 0.0956(2)
H12_5 H 0.4126 0.0355 0.0730
C23_5 C 0.3747(3) 0.0306(3) 0.1339(2)
C24_5 C 0.3517(3) 0.0728(3) 0.1661(3)
H13_5 H 0.3369 0.0531 0.1923
C33_4 C 0.4732(6) 0.5293(8) 0.5807(6)
C34_4 C 0.4437(6) 0.5509(7) 0.5378(5)
H17_4 H 0.4288 0.5112 0.5238
H18_4 H 0.4183 0.5826 0.5470
H19_4 H 0.4653 0.5724 0.5155
C35_4 C 0.4515(6) 0.6431(6) 0.6091(6)
H20_4 H 0.4509 0.6567 0.5768
H21_4 H 0.4182 0.6387 0.6205
H22_4 H 0.4687 0.6772 0.6272
C36_4 C 0.5050(8) 0.5601(10) 0.6566(7)
H23_4 H 0.5359 0.5844 0.6566
H24_4 H 0.4861 0.5728 0.6837
H25_4 H 0.5113 0.5116 0.6572
C37_5 C 0.3904(5) 0.0787(6) 0.4030(4)
C38_5 C 0.3579(6) 0.1301(7) 0.4280(5)
H26_5 H 0.3315 0.1065 0.4437
H27_5 H 0.3772 0.1549 0.4505
H28_5 H 0.3442 0.1616 0.4056
C39_5 C 0.4278(7) 0.0429(9) 0.4786(5)
H29_5 H 0.4213 0.0005 0.4946
H30_5 H 0.4617 0.0559 0.4836
H31_5 H 0.4064 0.0780 0.4906
C45_5 C 0.4407(4) 0.1707(6) 0.2249(4)
C46_5 C 0.4346(6) 0.2490(6) 0.2272(5)
H44_5 H 0.4314 0.2630 0.2593
H45_5 H 0.4630 0.2707 0.2135
H46_5 H 0.4055 0.2622 0.2102
C47_5 C 0.4831(5) 0.0798(7) 0.1881(5)
H47_5 H 0.4915 0.0712 0.1559
H48_5 H 0.5100 0.0659 0.2079
H49_5 H 0.4540 0.0541 0.1962
C48_5 C 0.5021(5) 0.1948(8) 0.1604(5)
H50_5 H 0.5247 0.2238 0.1772
H51_5 H 0.5203 0.1657 0.1395
H52_5 H 0.4795 0.2226 0.1428
O27_3 O 0.5765(2) 0.2293(2) 0.45395(18)
O28_3 O 0.5488(2) 0.1292(2) 0.47563(18)
N3_5 N 0.3824(4) 0.9072(5) 0.2942(4)
C25_5 C 0.3070(3) 0.8160(3) 0.2060(3)
C26_5 C 0.4476(3) 0.8031(3) 0.0915(3)
C27_5 C 0.3441(3) 0.8503(3) 0.1743(3)
C28_5 C 0.3781(3) 0.8117(3) 0.1501(2)
H14_5 H 0.3790 0.7643 0.1539
C29_5 C 0.4112(3) 0.8442(3) 0.1197(3)
C30_5 C 0.4103(3) 0.9149(3) 0.1155(3)
H15_5 H 0.4330 0.9363 0.0958
C31_5 C 0.3763(3) 0.9548(3) 0.1400(2)
C32_5 C 0.3434(3) 0.9209(3) 0.1698(3)
H16_5 H 0.3206 0.9463 0.1870
C40_5 C 0.4460(7) 0.9802(9) 0.4083(6)
H32_5 H 0.4469 0.9863 0.3749
H33_5 H 0.4791 0.9804 0.4204
H34_5 H 0.4305 0.9373 0.4156
C41_5 C 0.3513(4) 0.9551(5) 0.2968(4)
C42_5 C 0.3042(5) 0.9365(6) 0.3325(4)
H35_5 H 0.2944 0.8896 0.3278
H36_5 H 0.3143 0.9428 0.3644
H37_5 H 0.2768 0.9662 0.3257
C43_5 C 0.3773(5) 0.8392(5) 0.3173(5)
H38_5 H 0.3527 0.8420 0.3414
H39_5 H 0.3675 0.8057 0.2945
H40_5 H 0.4084 0.8261 0.3308
C44_5 C 0.4248(5) 0.9286(7) 0.2656(5)
H41_5 H 0.4172 0.9710 0.2500
H42_5 H 0.4532 0.9349 0.2853
H43_5 H 0.4318 0.8939 0.2426
O2_6 O 0.0512(2) 0.1254(3) 0.0101(2)
O17_6 O 0.0044(3) 0.0247(3) 0.0928(3)
O21_6 O 0.1032(4) 0.0998(5) 0.1047(4)
H1_6 H 0.1161 0.1296 0.1226
H2_6 H 0.1010 0.0623 0.1198
H4_6 H 0.0023 0.1598 0.1752
N2_6 N 0.0810(5) 0.4660(6) 0.9287(4)
N3_6 N 0.1176(4) 0.5928(5) 0.7942(4)
N4_6 N 0.0263(4) 0.3485(6) 0.6945(4)
O1_6 O 0.0400(2) 0.2255(2) 0.97377(19)
O3_6 O 0.1405(2) 0.2715(2) 0.83073(19)
O4_6 O 0.1833(2) 0.1853(2) 0.79905(17)
O9_6 O 0.19319(17) 0.3419(2) 0.73318(14)
O10_6 O 0.1842(2) 0.2518(2) 0.68805(18)
O11_4 O 0.0765(2) 0.2707(2) 0.54605(18)
O12_4 O 0.0488(2) 0.3708(2) 0.52437(18)
O18_6 O 0.1089(3) 0.4263(3) 0.8606(2)
O19_6 O 0.1502(2) 0.4908(3) 0.7767(2)
O20_6 O 0.0807(3) 0.3652(4) 0.7560(3)
C1_6 C 0.0578(3) 0.1658(3) 0.9762(3)
C2_6 C 0.1545(3) 0.2103(3) 0.8287(3)
C3_6 C 0.0886(3) 0.1410(3) 0.9357(3)
C4_6 C 0.1037(3) 0.1855(3) 0.9007(3)
H5_6 H 0.0935 0.2310 0.9011
C5_6 C 0.1342(3) 0.1617(3) 0.8649(2)
C6_6 C 0.1474(3) 0.0929(3) 0.8633(3)
H6_6 H 0.1678 0.0773 0.8394
C7_6 C 0.1303(3) 0.0470(3) 0.8973(3)
C8_6 C 0.1025(3) 0.0723(3) 0.9341(3)
H7_6 H 0.0929 0.0430 0.9582
C17_6 C 0.1773(3) 0.3139(3) 0.6959(2)
C18_6 C 0.0744(3) 0.3341(3) 0.5507(2)
C19_6 C 0.1501(3) 0.3573(3) 0.6608(3)
C20_6 C 0.1271(3) 0.3267(4) 0.6226(3)
H11_6 H 0.1285 0.2794 0.6188
C21_6 C 0.1024(3) 0.3666(3) 0.5904(2)
C22_6 C 0.1027(3) 0.4375(3) 0.5956(2)
H12_6 H 0.0874 0.4645 0.5730
C23_6 C 0.1253(3) 0.4694(3) 0.6339(2)
C24_6 C 0.1483(3) 0.4272(3) 0.6661(3)
H13_6 H 0.1631 0.4469 0.6923
C25_6 C 0.1930(3) 0.6840(3) 0.7060(3)
C26_6 C 0.0524(3) 0.6969(3) 0.5915(3)
C27_6 C 0.1559(3) 0.6497(3) 0.6743(3)
C28_6 C 0.1219(3) 0.6883(3) 0.6501(2)
H14_6 H 0.1210 0.7357 0.6539
C29_6 C 0.0888(3) 0.6558(3) 0.6197(3)
C30_6 C 0.0897(3) 0.5851(3) 0.6155(3)
H15_6 H 0.0670 0.5637 0.5958
C31_6 C 0.1237(3) 0.5452(3) 0.6400(2)
C32_6 C 0.1566(3) 0.5791(3) 0.6698(3)
H16_6 H 0.1794 0.5537 0.6870
C37_6 C 0.1096(5) 0.4213(6) 0.9030(4)
C38_6 C 0.1421(6) 0.3699(7) 0.9280(5)
H26_6 H 0.1685 0.3935 0.9437
H27_6 H 0.1228 0.3451 0.9505
H28_6 H 0.1558 0.3384 0.9056
C39_6 C 0.0722(7) 0.4571(9) 0.9786(5)
H29_6 H 0.0787 0.4995 0.9946
H30_6 H 0.0383 0.4441 0.9836
H31_6 H 0.0936 0.4220 0.9906
C40_6 C 0.0540(7) 0.5198(9) 0.9083(6)
H32_6 H 0.0531 0.5137 0.8749
H33_6 H 0.0209 0.5196 0.9204
H34_6 H 0.0695 0.5627 0.9156
C41_6 C 0.1487(4) 0.5449(5) 0.7968(4)
C42_6 C 0.1958(5) 0.5635(6) 0.8325(4)
H35_6 H 0.2056 0.6104 0.8278
H36_6 H 0.1857 0.5572 0.8644
H37_6 H 0.2232 0.5338 0.8257
C43_6 C 0.1227(5) 0.6608(5) 0.8173(5)
H38_6 H 0.1473 0.6580 0.8414
H39_6 H 0.1325 0.6943 0.7945
H40_6 H 0.0916 0.6739 0.8308
C44_6 C 0.0752(5) 0.5714(7) 0.7656(5)
H41_6 H 0.0828 0.5290 0.7500
H42_6 H 0.0468 0.5651 0.7853
H43_6 H 0.0682 0.6061 0.7426
C45_6 C 0.0593(4) 0.3293(6) 0.7249(4)
C46_6 C 0.0654(6) 0.2510(6) 0.7272(5)
H44_6 H 0.0686 0.2370 0.7593
H45_6 H 0.0370 0.2293 0.7135
H46_6 H 0.0945 0.2378 0.7102
C47_6 C 0.0169(5) 0.4202(7) 0.6881(5)
H47_6 H 0.0085 0.4288 0.6559
H49_6 H 0.0460 0.4459 0.6962
H52_6 H 0.0205 0.2774 0.6428
C9_6 C 0.2359(3) 0.8526(3) 0.8359(2)
C10_6 C 0.0838(3) 0.8030(3) 0.9294(2)
C11_6 C 0.1931(3) 0.8775(3) 0.8645(2)
C12_6 C 0.1599(3) 0.8312(3) 0.8838(3)
H8_6 H 0.1658 0.7844 0.8807
C13_6 C 0.1181(3) 0.8533(3) 0.9077(2)
C14_6 C 0.1093(3) 0.9241(3) 0.9126(3)
H9_6 H 0.0813 0.9394 0.9284
C15_6 C 0.1428(3) 0.9719(3) 0.8936(3)
C16_6 C 0.1845(3) 0.9476(3) 0.8706(3)
H10_6 H 0.2074 0.9788 0.8589
O22_6 O 0.9891(4) 0.1315(5) 0.1562(3)
H3_6 H 0.9896 0.0915 0.1681
H48_6 H 0.9900 0.4341 0.7079
C48_6 C 0.9979(5) 0.3052(8) 0.6604(5)
H50_6 H 0.9753 0.2762 0.6772
H51_6 H 0.9797 0.3343 0.6395
O27_4 O 0.9235(2) 0.2707(2) 0.95395(18)
O28_4 O 0.9512(2) 0.3708(2) 0.97563(18)
N2_7 N 0.5810(5) 0.0340(6) 0.0713(4)
N4_7 N 0.5263(4) 0.1515(6) 0.3055(4)
O1_7 O 0.5400(2) 0.2745(2) 0.02623(19)
O3_7 O 0.6405(2) 0.2285(2) 0.16927(19)
O4_7 O 0.6833(2) 0.3147(2) 0.20095(17)
O9_7 O 0.69319(17) 0.1581(2) 0.26682(14)
O10_7 O 0.6842(2) 0.2482(2) 0.31195(18)
O18_7 O 0.6089(3) 0.0737(3) 0.1394(2)
O19_7 O 0.6502(2) 0.0092(3) 0.2233(2)
O20_7 O 0.5807(3) 0.1348(4) 0.2440(3)
C1_7 C 0.5578(3) 0.3342(3) 0.0238(3)
C2_7 C 0.6545(3) 0.2897(3) 0.1713(3)
C3_7 C 0.5886(3) 0.3590(3) 0.0643(3)
C4_7 C 0.6037(3) 0.3145(3) 0.0993(3)
H5_7 H 0.5935 0.2690 0.0989
C5_7 C 0.6342(3) 0.3383(3) 0.1351(2)
C6_7 C 0.6474(3) 0.4071(3) 0.1367(3)
H6_7 H 0.6678 0.4227 0.1606
C7_7 C 0.6303(3) 0.4530(3) 0.1027(3)
C8_7 C 0.6025(3) 0.4277(3) 0.0659(3)
H7_7 H 0.5929 0.4570 0.0418
C9_7 C 0.7359(3) 0.6474(3) 0.1641(2)
C10_7 C 0.5838(3) 0.6970(3) 0.0706(2)
C11_7 C 0.6931(3) 0.6225(3) 0.1355(2)
C12_7 C 0.6599(3) 0.6688(3) 0.1162(3)
H8_7 H 0.6658 0.7156 0.1193
C13_7 C 0.6181(3) 0.6467(3) 0.0923(2)
C14_7 C 0.6093(3) 0.5759(3) 0.0874(3)
H9_7 H 0.5813 0.5606 0.0716
C15_7 C 0.6428(3) 0.5281(3) 0.1064(3)
C16_7 C 0.6845(3) 0.5524(3) 0.1294(3)
H10_7 H 0.7074 0.5212 0.1411
C17_7 C 0.6773(3) 0.1861(3) 0.3041(2)
C18_7 C 0.5744(3) 0.1659(3) 0.4493(2)
C19_7 C 0.6501(3) 0.1427(3) 0.3392(3)
C20_7 C 0.6271(3) 0.1733(4) 0.3774(3)
H11_7 H 0.6285 0.2206 0.3812
C21_7 C 0.6024(3) 0.1334(3) 0.4096(2)
C22_7 C 0.6027(3) 0.0625(3) 0.4044(2)
H12_7 H 0.5874 0.0355 0.4270
C23_7 C 0.6253(3) 0.0306(3) 0.3661(2)
C24_7 C 0.6483(3) 0.0728(3) 0.3339(3)
H13_7 H 0.6631 0.0531 0.3077
C37_7 C 0.6096(5) 0.0787(6) 0.0970(4)
C38_7 C 0.6421(6) 0.1301(7) 0.0720(5)
H26_7 H 0.6685 0.1065 0.0563
H27_7 H 0.6228 0.1549 0.0495
H28_7 H 0.6558 0.1616 0.0944
C39_7 C 0.5722(7) 0.0429(9) 0.0214(5)
H29_7 H 0.5787 0.0005 0.0054
H30_7 H 0.5383 0.0559 0.0164
H31_7 H 0.5936 0.0780 0.0094
C45_7 C 0.5593(4) 0.1707(6) 0.2751(4)
C46_7 C 0.5654(6) 0.2490(6) 0.2728(5)
H44_7 H 0.5686 0.2630 0.2407
H45_7 H 0.5370 0.2707 0.2865
H46_7 H 0.5945 0.2622 0.2898
C47_7 C 0.5169(5) 0.0798(7) 0.3119(5)
H47_7 H 0.5085 0.0712 0.3441
H48_7 H 0.4900 0.0659 0.2921
H49_7 H 0.5460 0.0541 0.3038
C48_7 C 0.4979(5) 0.1948(8) 0.3396(5)
H50_7 H 0.4753 0.2238 0.3228
H51_7 H 0.4797 0.1657 0.3605
H52_7 H 0.5205 0.2226 0.3572
N1_5 N 0.5232(6) 0.5778(7) 0.8865(7)
O2_7 O 0.5512(2) 0.3746(3) 0.9899(2)
O17_7 O 0.5044(3) 0.4753(3) 0.9072(3)
O21_7 O 0.6032(4) 0.4002(5) 0.8953(4)
H1_7 H 0.6161 0.3704 0.8774
H2_7 H 0.6010 0.4377 0.8802
O22_7 O 0.4891(4) 0.3685(5) 0.8438(3)
H3_7 H 0.4896 0.4085 0.8319
H4_7 H 0.5023 0.3402 0.8248
C33_5 C 0.5268(6) 0.5293(8) 0.9193(6)
C34_5 C 0.5563(6) 0.5509(7) 0.9622(5)
H17_5 H 0.5712 0.5112 0.9762
H18_5 H 0.5817 0.5826 0.9530
H19_5 H 0.5347 0.5724 0.9845
C35_5 C 0.5485(6) 0.6431(6) 0.8909(6)
H20_5 H 0.5491 0.6567 0.9232
H21_5 H 0.5818 0.6387 0.8795
H22_5 H 0.5313 0.6772 0.8728
C36_5 C 0.4950(8) 0.5601(10) 0.8434(7)
H23_5 H 0.4641 0.5844 0.8434
H24_5 H 0.5139 0.5728 0.8163
H25_5 H 0.4887 0.5116 0.8428
N3_7 N 0.6176(4) 0.9072(5) 0.2058(4)
C25_7 C 0.6930(3) 0.8160(3) 0.2940(3)
C26_7 C 0.5524(3) 0.8031(3) 0.4085(3)
C27_7 C 0.6559(3) 0.8503(3) 0.3257(3)
C28_7 C 0.6219(3) 0.8117(3) 0.3499(2)
H14_7 H 0.6210 0.7643 0.3461
C29_7 C 0.5888(3) 0.8442(3) 0.3803(3)
C30_7 C 0.5897(3) 0.9149(3) 0.3845(3)
H15_7 H 0.5670 0.9363 0.4042
C31_7 C 0.6237(3) 0.9548(3) 0.3600(2)
C32_7 C 0.6566(3) 0.9209(3) 0.3302(3)
H16_7 H 0.6794 0.9463 0.3130
C40_7 C 0.5540(7) 0.9802(9) 0.0917(6)
H32_7 H 0.5531 0.9863 0.1251
H33_7 H 0.5209 0.9804 0.0796
H34_7 H 0.5695 0.9373 0.0844
C41_7 C 0.6487(4) 0.9551(5) 0.2032(4)
C42_7 C 0.6958(5) 0.9365(6) 0.1675(4)
H35_7 H 0.7056 0.8896 0.1722
H36_7 H 0.6857 0.9428 0.1356
H37_7 H 0.7232 0.9662 0.1743
C43_7 C 0.6227(5) 0.8392(5) 0.1827(5)
H38_7 H 0.6473 0.8420 0.1586
H39_7 H 0.6325 0.8057 0.2055
H40_7 H 0.5916 0.8261 0.1692
C44_7 C 0.5752(5) 0.9286(7) 0.2344(5)
H41_7 H 0.5828 0.9710 0.2500
H42_7 H 0.5468 0.9349 0.2147
H43_7 H 0.5682 0.8939 0.2574
O22_8 O 0.0109(4) 0.1315(5) 0.3438(3)
H3_8 H 0.0104 0.0915 0.3319
H48_8 H 0.0100 0.4341 0.7921
C48_8 C 0.0021(5) 0.3052(8) 0.8396(5)
H50_8 H 0.0247 0.2762 0.8228
H51_8 H 0.0203 0.3343 0.8605
C36_6 C 0.0050(8) 0.9399(10) 0.3434(7)
H23_6 H 0.0359 0.9156 0.3434
H25_6 H 0.0113 0.9884 0.3428
N2_8 N 0.9190(5) 0.4660(6) 0.5713(4)
N3_8 N 0.8824(4) 0.5928(5) 0.7058(4)
N4_8 N 0.9737(4) 0.3485(6) 0.8055(4)
O1_8 O 0.9600(2) 0.2255(2) 0.52623(19)
O2_8 O 0.9488(2) 0.1254(3) 0.4899(2)
O3_8 O 0.8595(2) 0.2715(2) 0.66927(19)
O4_8 O 0.8167(2) 0.1853(2) 0.70095(17)
O9_8 O 0.80681(17) 0.3419(2) 0.76682(14)
O10_8 O 0.8158(2) 0.2518(2) 0.81195(18)
O17_8 O 0.9956(3) 0.0247(3) 0.4072(3)
O18_8 O 0.8911(3) 0.4263(3) 0.6394(2)
O19_8 O 0.8498(2) 0.4908(3) 0.7233(2)
O20_8 O 0.9193(3) 0.3652(4) 0.7440(3)
O21_8 O 0.8968(4) 0.0998(5) 0.3953(4)
H1_8 H 0.8839 0.1296 0.3774
H2_8 H 0.8990 0.0623 0.3802
H4_8 H 0.9977 0.1598 0.3248
C1_8 C 0.9422(3) 0.1658(3) 0.5238(3)
C2_8 C 0.8455(3) 0.2103(3) 0.6713(3)
C3_8 C 0.9114(3) 0.1410(3) 0.5643(3)
C4_8 C 0.8963(3) 0.1855(3) 0.5993(3)
H5_8 H 0.9065 0.2310 0.5989
C5_8 C 0.8658(3) 0.1617(3) 0.6351(2)
C6_8 C 0.8526(3) 0.0929(3) 0.6367(3)
H6_8 H 0.8322 0.0773 0.6606
C7_8 C 0.8697(3) 0.0470(3) 0.6027(3)
C8_8 C 0.8975(3) 0.0723(3) 0.5659(3)
H7_8 H 0.9071 0.0430 0.5418
C17_8 C 0.8227(3) 0.3139(3) 0.8041(2)
C18_8 C 0.9256(3) 0.3341(3) 0.9493(2)
C19_8 C 0.8499(3) 0.3573(3) 0.8392(3)
C20_8 C 0.8729(3) 0.3267(4) 0.8774(3)
H11_8 H 0.8715 0.2794 0.8812
C21_8 C 0.8976(3) 0.3666(3) 0.9096(2)
C22_8 C 0.8973(3) 0.4375(3) 0.9044(2)
H12_8 H 0.9126 0.4645 0.9270
C23_8 C 0.8747(3) 0.4694(3) 0.8661(2)
C24_8 C 0.8517(3) 0.4272(3) 0.8339(3)
H13_8 H 0.8369 0.4469 0.8077
C25_8 C 0.8070(3) 0.6840(3) 0.7940(3)
C26_8 C 0.9476(3) 0.6969(3) 0.9085(3)
C27_8 C 0.8441(3) 0.6497(3) 0.8257(3)
C28_8 C 0.8781(3) 0.6883(3) 0.8499(2)
H14_8 H 0.8790 0.7357 0.8461
C29_8 C 0.9112(3) 0.6558(3) 0.8803(3)
C30_8 C 0.9103(3) 0.5851(3) 0.8845(3)
H15_8 H 0.9330 0.5637 0.9042
C31_8 C 0.8763(3) 0.5452(3) 0.8600(2)
C32_8 C 0.8434(3) 0.5791(3) 0.8302(3)
H16_8 H 0.8206 0.5537 0.8130
C37_8 C 0.8904(5) 0.4213(6) 0.5970(4)
C38_8 C 0.8579(6) 0.3699(7) 0.5720(5)
H26_8 H 0.8315 0.3935 0.5563
H27_8 H 0.8772 0.3451 0.5495
H28_8 H 0.8442 0.3384 0.5944
C39_8 C 0.9278(7) 0.4571(9) 0.5214(5)
H29_8 H 0.9213 0.4995 0.5054
H30_8 H 0.9617 0.4441 0.5164
H31_8 H 0.9064 0.4220 0.5094
C40_8 C 0.9460(7) 0.5198(9) 0.5917(6)
H32_8 H 0.9469 0.5137 0.6251
H33_8 H 0.9791 0.5196 0.5796
H34_8 H 0.9305 0.5627 0.5844
C41_8 C 0.8513(4) 0.5449(5) 0.7032(4)
C42_8 C 0.8042(5) 0.5635(6) 0.6675(4)
H35_8 H 0.7944 0.6104 0.6722
H36_8 H 0.8143 0.5572 0.6356
H37_8 H 0.7768 0.5338 0.6743
C43_8 C 0.8773(5) 0.6608(5) 0.6827(5)
H38_8 H 0.8527 0.6580 0.6586
H39_8 H 0.8675 0.6943 0.7055
H40_8 H 0.9084 0.6739 0.6692
C44_8 C 0.9248(5) 0.5714(7) 0.7344(5)
H41_8 H 0.9172 0.5290 0.7500
H42_8 H 0.9532 0.5651 0.7147
H43_8 H 0.9318 0.6061 0.7574
C45_8 C 0.9407(4) 0.3293(6) 0.7751(4)
C46_8 C 0.9346(6) 0.2510(6) 0.7728(5)
H44_8 H 0.9314 0.2370 0.7407
H45_8 H 0.9630 0.2293 0.7865
H46_8 H 0.9055 0.2378 0.7898
C47_8 C 0.9831(5) 0.4202(7) 0.8119(5)
H47_8 H 0.9915 0.4288 0.8441
H49_8 H 0.9540 0.4459 0.8038
H52_8 H 0.9795 0.2774 0.8572
N1_6 N 0.9768(6) 0.9222(7) 0.3865(7)
C9_8 C 0.7641(3) 0.8526(3) 0.6641(2)
C10_8 C 0.9162(3) 0.8030(3) 0.5706(2)
C11_8 C 0.8069(3) 0.8775(3) 0.6355(2)
C12_8 C 0.8401(3) 0.8312(3) 0.6162(3)
H8_8 H 0.8342 0.7844 0.6193
C13_8 C 0.8819(3) 0.8533(3) 0.5923(2)
C14_8 C 0.8907(3) 0.9241(3) 0.5874(3)
H9_8 H 0.9187 0.9394 0.5716
C15_8 C 0.8572(3) 0.9719(3) 0.6064(3)
C16_8 C 0.8155(3) 0.9476(3) 0.6294(3)
H10_8 H 0.7926 0.9788 0.6411
C33_6 C 0.9732(6) 0.9707(8) 0.4193(6)
C34_6 C 0.9437(6) 0.9491(7) 0.4622(5)
H17_6 H 0.9288 0.9888 0.4762
H18_6 H 0.9183 0.9174 0.4530
H19_6 H 0.9653 0.9276 0.4845
C35_6 C 0.9515(6) 0.8569(6) 0.3909(6)
H20_6 H 0.9509 0.8433 0.4232
H21_6 H 0.9182 0.8613 0.3795
H22_6 H 0.9687 0.8228 0.3728
H24_6 H 0.9861 0.9272 0.3163
C36_7 C 0.0050(8) 0.0601(10) 0.8434(7)
H23_7 H 0.0359 0.0844 0.8434
H25_7 H 0.0113 0.0116 0.8428
N1_7 N 0.9768(6) 0.0778(7) 0.8865(7)
C33_7 C 0.9732(6) 0.0293(8) 0.9193(6)
C34_7 C 0.9437(6) 0.0509(7) 0.9622(5)
H17_7 H 0.9288 0.0112 0.9762
H18_7 H 0.9183 0.0826 0.9530
H19_7 H 0.9653 0.0724 0.9845
C35_7 C 0.9515(6) 0.1431(6) 0.8909(6)
H20_7 H 0.9509 0.1567 0.9232
H21_7 H 0.9182 0.1387 0.8795
H22_7 H 0.9687 0.1772 0.8728
H24_7 H 0.9861 0.0728 0.8163
N1_8 N 0.0232(6) 0.9222(7) 0.1135(7)
C33_8 C 0.0268(6) 0.9707(8) 0.0807(6)
C34_8 C 0.0563(6) 0.9491(7) 0.0378(5)
H17_8 H 0.0712 0.9888 0.0238
H18_8 H 0.0817 0.9174 0.0470
H19_8 H 0.0347 0.9276 0.0155
C35_8 C 0.0485(6) 0.8569(6) 0.1091(6)
H20_8 H 0.0491 0.8433 0.0768
H21_8 H 0.0818 0.8613 0.1205
H22_8 H 0.0313 0.8228 0.1272
H24_8 H 0.0139 0.9272 0.1837
C36_8 C 0.9950(8) 0.9399(10) 0.1566(7)
H23_8 H 0.9641 0.9156 0.1566
H25_8 H 0.9887 0.9884 0.1572
loop_
_geom_bond_atom_site_label_1
_geom_bond_atom_site_label_2
_geom_bond_site_symmetry_1
_geom_bond_site_symmetry_2
N3 C41 1_555 1_555
O13 C25 1_555 1_555
O14 C25 1_555 1_555
O15 C26 1_555 1_555
O16 C26 1_555 1_555
C25 C27 1_555 1_555
C26 C29 1_555 1_555
C27 C28 1_555 1_555
C28 H14 1_555 1_555
C29 C28 1_555 1_555
C30 C29 1_555 1_555
H15 C30 1_555 1_555
C32 C27 1_555 1_555
H16 C32 1_555 1_555
H32 C40 1_555 1_555
H33 C40 1_555 1_555
H34 C40 1_555 1_555
C42 C41 1_555 1_555
H35 C42 1_555 1_555
H36 C42 1_555 1_555
H37 C42 1_555 1_555
C43 N3 1_555 1_555
H38 C43 1_555 1_555
H39 C43 1_555 1_555
H40 C43 1_555 1_555
C44 N3 1_555 1_555
H41 C44 1_555 1_555
H42 C44 1_555 1_555
H43 C44 1_555 1_555
Cd7 O16 1_555 1_555
Cd9 O15 1_555 1_555
Cd12 O13 1_555 1_555
O14 Cd12 1_555 1_555
C30 C31 1_555 1_555
C31 C32 1_555 1_555
Cd1 O1 1_555 1_555
Cd2 O2 1_555 1_555
Cd3 O3 1_555 1_555
Cd4 O4 1_555 1_555
N1 C33 1_555 1_555
N2 C37 1_555 1_555
N4 C45 1_555 1_555
O1 C1 1_555 1_555
O2 C1 1_555 1_555
O3 C2 1_555 1_555
O4 C2 1_555 1_555
O5 C9 1_555 1_555
O6 C9 1_555 1_555
O7 C10 1_555 1_555
O8 C10 1_555 1_555
O9 Cd3 1_555 1_555
O10 Cd4 1_555 1_555
O11 C18 1_555 1_555
O12 C18 1_555 1_555
O17 Cd2 1_555 1_555
O18 Cd3 1_555 1_555
O19 Cd3 1_555 1_555
O20 Cd3 1_555 1_555
O21 Cd2 1_555 1_555
H1 O21 1_555 1_555
H2 O21 1_555 1_555
O22 Cd2 1_555 1_555
H3 O22 1_555 1_555
H4 O22 1_555 1_555
C1 C3 1_555 1_555
C2 C5 1_555 1_555
C3 C4 1_555 1_555
C4 H5 1_555 1_555
C5 C4 1_555 1_555
C6 C5 1_555 1_555
H6 C6 1_555 1_555
C7 C6 1_555 1_555
C8 C3 1_555 1_555
H7 C8 1_555 1_555
C9 C11 1_555 1_555
C10 C13 1_555 1_555
C11 C12 1_555 1_555
C12 H8 1_555 1_555
C13 C12 1_555 1_555
C14 C13 1_555 1_555
H9 C14 1_555 1_555
C15 C7 1_555 1_555
C16 C11 1_555 1_555
H10 C16 1_555 1_555
C17 O9 1_555 1_555
C18 C21 1_555 1_555
C19 C17 1_555 1_555
C20 C19 1_555 1_555
H11 C20 1_555 1_555
C21 C20 1_555 1_555
C22 C21 1_555 1_555
H12 C22 1_555 1_555
C23 C22 1_555 1_555
C24 C19 1_555 1_555
H13 C24 1_555 1_555
C33 O17 1_555 1_555
C34 C33 1_555 1_555
H17 C34 1_555 1_555
H18 C34 1_555 1_555
H19 C34 1_555 1_555
C35 N1 1_555 1_555
H20 C35 1_555 1_555
H21 C35 1_555 1_555
H22 C35 1_555 1_555
C36 N1 1_555 1_555
H23 C36 1_555 1_555
H24 C36 1_555 1_555
H25 C36 1_555 1_555
C37 O18 1_555 1_555
C38 C37 1_555 1_555
H26 C38 1_555 1_555
H27 C38 1_555 1_555
H28 C38 1_555 1_555
C39 N2 1_555 1_555
H29 C39 1_555 1_555
H30 C39 1_555 1_555
H31 C39 1_555 1_555
C45 O20 1_555 1_555
C46 C45 1_555 1_555
H44 C46 1_555 1_555
H45 C46 1_555 1_555
H46 C46 1_555 1_555
C47 N4 1_555 1_555
H47 C47 1_555 1_555
H48 C47 1_555 1_555
H49 C47 1_555 1_555
C48 N4 1_555 1_555
H50 C48 1_555 1_555
H51 C48 1_555 1_555
H52 C48 1_555 1_555
Cd6 O7 1_555 1_555
Cd8 O8 1_555 1_555
Cd10 O5 1_555 1_555
Cd12 O6 1_555 1_555
O23 Cd3 1_555 1_555
O24 Cd4 1_555 1_555
O25 Cd1 1_555 1_555
O26 Cd1 1_555 1_555
O27 Cd1 1_555 1_555
O28 Cd1 1_555 1_555
O29 Cd4 1_555 1_555
O30 Cd4 1_555 1_555
O31 Cd2 1_555 1_555
O32 Cd1 1_555 1_555
Cd2 O26 1_555 1_555
Cd4 O9 1_555 1_555
O8 Cd6 1_555 1_555
O10 C17 1_555 1_555
C7 C8 1_555 1_555
C14 C15 1_555 1_555
C15 C16 1_555 1_555
C23 C24 1_555 1_555
H50_2 C48_2 1_555 1_555
H51_2 C48_2 1_555 1_555
H3_2 O22_2 1_555 1_555
O25_2 Cd1_2 1_555 1_555
O26_2 Cd1_2 1_555 1_555
O5_2 C9_2 1_555 1_555
O6_2 C9_2 1_555 1_555
O7_2 C10_2 1_555 1_555
O8_2 C10_2 1_555 1_555
C9_2 C11_2 1_555 1_555
C10_2 C13_2 1_555 1_555
C11_2 C12_2 1_555 1_555
C12_2 H8_2 1_555 1_555
C13_2 C12_2 1_555 1_555
C14_2 C13_2 1_555 1_555
H9_2 C14_2 1_555 1_555
C16_2 C11_2 1_555 1_555
H10_2 C16_2 1_555 1_555
Cd6_2 O7_2 1_555 1_555
Cd10_2 O5_2 1_555 1_555
Cd11 O6_2 1_555 1_555
O8_2 Cd6_2 1_555 1_555
C14_2 C15_2 1_555 1_555
C15_2 C16_2 1_555 1_555
Cd3_2 O3_2 1_555 1_555
Cd4_2 O4_2 1_555 1_555
N2_2 C37_2 1_555 1_555
N3_2 C41_2 1_555 1_555
N4_2 C45_2 1_555 1_555
O1_2 C1_2 1_555 1_555
O3_2 C2_2 1_555 1_555
O4_2 C2_2 1_555 1_555
O9_2 Cd3_2 1_555 1_555
O10_2 Cd4_2 1_555 1_555
O11_2 C18_2 1_555 1_555
O12_2 C18_2 1_555 1_555
O13_2 C25_2 1_555 1_555
O14_2 C25_2 1_555 1_555
O15_2 C26_2 1_555 1_555
O16_2 C26_2 1_555 1_555
O18_2 Cd3_2 1_555 1_555
O19_2 Cd3_2 1_555 1_555
O20_2 Cd3_2 1_555 1_555
C1_2 C3_2 1_555 1_555
C2_2 C5_2 1_555 1_555
C3_2 C4_2 1_555 1_555
C4_2 H5_2 1_555 1_555
C5_2 C4_2 1_555 1_555
C6_2 C5_2 1_555 1_555
H6_2 C6_2 1_555 1_555
C7_2 C6_2 1_555 1_555
C8_2 C3_2 1_555 1_555
H7_2 C8_2 1_555 1_555
C17_2 O9_2 1_555 1_555
C18_2 C21_2 1_555 1_555
C19_2 C17_2 1_555 1_555
C20_2 C19_2 1_555 1_555
H11_2 C20_2 1_555 1_555
C21_2 C20_2 1_555 1_555
C22_2 C21_2 1_555 1_555
H12_2 C22_2 1_555 1_555
C23_2 C22_2 1_555 1_555
C24_2 C19_2 1_555 1_555
H13_2 C24_2 1_555 1_555
C25_2 C27_2 1_555 1_555
C26_2 C29_2 1_555 1_555
C27_2 C28_2 1_555 1_555
C28_2 H14_2 1_555 1_555
C29_2 C28_2 1_555 1_555
C30_2 C29_2 1_555 1_555
H15_2 C30_2 1_555 1_555
C31_2 C23_2 1_555 1_555
C32_2 C27_2 1_555 1_555
H16_2 C32_2 1_555 1_555
C37_2 O18_2 1_555 1_555
C38_2 C37_2 1_555 1_555
H26_2 C38_2 1_555 1_555
H27_2 C38_2 1_555 1_555
H28_2 C38_2 1_555 1_555
C39_2 N2_2 1_555 1_555
H29_2 C39_2 1_555 1_555
H30_2 C39_2 1_555 1_555
H31_2 C39_2 1_555 1_555
C40_2 N2_2 1_555 1_555
H32_2 C40_2 1_555 1_555
H33_2 C40_2 1_555 1_555
H34_2 C40_2 1_555 1_555
C41_2 O19_2 1_555 1_555
C42_2 C41_2 1_555 1_555
H35_2 C42_2 1_555 1_555
H36_2 C42_2 1_555 1_555
H37_2 C42_2 1_555 1_555
C43_2 N3_2 1_555 1_555
H38_2 C43_2 1_555 1_555
H39_2 C43_2 1_555 1_555
H40_2 C43_2 1_555 1_555
C44_2 N3_2 1_555 1_555
H41_2 C44_2 1_555 1_555
H42_2 C44_2 1_555 1_555
H43_2 C44_2 1_555 1_555
C45_2 O20_2 1_555 1_555
C46_2 C45_2 1_555 1_555
H44_2 C46_2 1_555 1_555
H45_2 C46_2 1_555 1_555
H46_2 C46_2 1_555 1_555
C47_2 N4_2 1_555 1_555
H47_2 C47_2 1_555 1_555
H49_2 C47_2 1_555 1_555
Cd5_2 O11_2 1_555 1_555
Cd9_2 O15_2 1_555 1_555
Cd11 O13_2 1_555 1_555
O23_2 Cd3_2 1_555 1_555
O24_2 Cd4_2 1_555 1_555
O29_2 Cd4_2 1_555 1_555
O30_2 Cd4_2 1_555 1_555
Cd4_2 O9_2 1_555 1_555
O10_2 C17_2 1_555 1_555
O12_2 Cd5_2 1_555 1_555
O14_2 Cd11 1_555 1_555
C7_2 C8_2 1_555 1_555
C23_2 C24_2 1_555 1_555
C30_2 C31_2 1_555 1_555
C31_2 C32_2 1_555 1_555
Cd2_2 O2_2 1_555 1_555
O17_2 Cd2_2 1_555 1_555
O21_2 Cd2_2 1_555 1_555
H1_2 O21_2 1_555 1_555
H2_2 O21_2 1_555 1_555
O31_2 Cd2_2 1_555 1_555
N3_3 C41_3 1_555 1_555
O13_3 C25_3 1_555 1_555
O14_3 C25_3 1_555 1_555
O15_3 C26_3 1_555 1_555
O16_3 C26_3 1_555 1_555
C25_3 C27_3 1_555 1_555
C26_3 C29_3 1_555 1_555
C27_3 C28_3 1_555 1_555
C28_3 H14_3 1_555 1_555
C29_3 C28_3 1_555 1_555
C30_3 C29_3 1_555 1_555
H15_3 C30_3 1_555 1_555
C32_3 C27_3 1_555 1_555
H16_3 C32_3 1_555 1_555
H32_3 C40_3 1_555 1_555
H33_3 C40_3 1_555 1_555
H34_3 C40_3 1_555 1_555
C42_3 C41_3 1_555 1_555
H35_3 C42_3 1_555 1_555
H36_3 C42_3 1_555 1_555
H37_3 C42_3 1_555 1_555
C43_3 N3_3 1_555 1_555
H38_3 C43_3 1_555 1_555
H39_3 C43_3 1_555 1_555
H40_3 C43_3 1_555 1_555
C44_3 N3_3 1_555 1_555
H41_3 C44_3 1_555 1_555
H42_3 C44_3 1_555 1_555
H43_3 C44_3 1_555 1_555
Cd6 O16_3 1_555 1_555
Cd8 O15_3 1_555 1_555
Cd12_2 O13_3 1_555 1_555
O14_3 Cd12_2 1_555 1_555
C30_3 C31_3 1_555 1_555
C31_3 C32_3 1_555 1_555
Cd2_3 O2_3 1_555 1_555
N1_2 C33_2 1_555 1_555
O17_3 Cd2_3 1_555 1_555
O21_3 Cd2_3 1_555 1_555
H1_3 O21_3 1_555 1_555
H2_3 O21_3 1_555 1_555
O22_3 Cd2_3 1_555 1_555
H3_3 O22_3 1_555 1_555
H4_3 O22_3 1_555 1_555
C33_2 O17_3 1_555 1_555
C34_2 C33_2 1_555 1_555
H17_2 C34_2 1_555 1_555
H18_2 C34_2 1_555 1_555
H19_2 C34_2 1_555 1_555
C35_2 N1_2 1_555 1_555
H20_2 C35_2 1_555 1_555
H21_2 C35_2 1_555 1_555
H22_2 C35_2 1_555 1_555
C36_2 N1_2 1_555 1_555
H23_2 C36_2 1_555 1_555
H24_2 C36_2 1_555 1_555
H25_2 C36_2 1_555 1_555
O25_3 Cd5 1_555 1_555
O26_3 Cd5 1_555 1_555
O31_3 Cd2_3 1_555 1_555
O32_3 Cd5 1_555 1_555
Cd2_3 O26_3 1_555 1_555
Cd3_3 O3_3 1_555 1_555
Cd4_3 O4_3 1_555 1_555
N2_3 C37_3 1_555 1_555
N4_3 C45_3 1_555 1_555
O1_3 C1_3 1_555 1_555
O3_3 C2_3 1_555 1_555
O4_3 C2_3 1_555 1_555
O5_3 C9_3 1_555 1_555
O6_3 C9_3 1_555 1_555
O7_3 C10_3 1_555 1_555
O8_3 C10_3 1_555 1_555
O9_3 Cd3_3 1_555 1_555
O10_3 Cd4_3 1_555 1_555
O27 C18_3 1_555 1_555
O28 C18_3 1_555 1_555
O18_3 Cd3_3 1_555 1_555
O19_3 Cd3_3 1_555 1_555
O20_3 Cd3_3 1_555 1_555
C1_3 C3_3 1_555 1_555
C2_3 C5_3 1_555 1_555
C3_3 C4_3 1_555 1_555
C4_3 H5_3 1_555 1_555
C5_3 C4_3 1_555 1_555
C6_3 C5_3 1_555 1_555
H6_3 C6_3 1_555 1_555
C7_3 C6_3 1_555 1_555
C8_3 C3_3 1_555 1_555
H7_3 C8_3 1_555 1_555
C9_3 C11_3 1_555 1_555
C10_3 C13_3 1_555 1_555
C11_3 C12_3 1_555 1_555
C12_3 H8_3 1_555 1_555
C13_3 C12_3 1_555 1_555
C14_3 C13_3 1_555 1_555
H9_3 C14_3 1_555 1_555
C15_3 C7_3 1_555 1_555
C16_3 C11_3 1_555 1_555
H10_3 C16_3 1_555 1_555
C17_3 O9_3 1_555 1_555
C18_3 C21_3 1_555 1_555
C19_3 C17_3 1_555 1_555
C20_3 C19_3 1_555 1_555
H11_3 C20_3 1_555 1_555
C21_3 C20_3 1_555 1_555
C22_3 C21_3 1_555 1_555
H12_3 C22_3 1_555 1_555
C23_3 C22_3 1_555 1_555
C24_3 C19_3 1_555 1_555
H13_3 C24_3 1_555 1_555
C37_3 O18_3 1_555 1_555
C38_3 C37_3 1_555 1_555
H26_3 C38_3 1_555 1_555
H27_3 C38_3 1_555 1_555
H28_3 C38_3 1_555 1_555
C39_3 N2_3 1_555 1_555
H29_3 C39_3 1_555 1_555
H30_3 C39_3 1_555 1_555
H31_3 C39_3 1_555 1_555
C45_3 O20_3 1_555 1_555
C46_3 C45_3 1_555 1_555
H44_3 C46_3 1_555 1_555
H45_3 C46_3 1_555 1_555
H46_3 C46_3 1_555 1_555
C47_3 N4_3 1_555 1_555
H47_3 C47_3 1_555 1_555
H48_3 C47_3 1_555 1_555
H49_3 C47_3 1_555 1_555
C48_3 N4_3 1_555 1_555
H50_3 C48_3 1_555 1_555
H51_3 C48_3 1_555 1_555
H52_3 C48_3 1_555 1_555
Cd7 O7_3 1_555 1_555
Cd9 O8_3 1_555 1_555
Cd10_3 O5_3 1_555 1_555
Cd12_2 O6_3 1_555 1_555
O23_3 Cd3_3 1_555 1_555
O24_3 Cd4_3 1_555 1_555
O29_3 Cd4_3 1_555 1_555
O30_3 Cd4_3 1_555 1_555
Cd4_3 O9_3 1_555 1_555
O8_3 Cd7 1_555 1_555
O10_3 C17_3 1_555 1_555
C7_3 C8_3 1_555 1_555
C14_3 C15_3 1_555 1_555
C15_3 C16_3 1_555 1_555
C23_3 C24_3 1_555 1_555
N1_3 C33_3 1_555 1_555
O5_4 C9_4 1_555 1_555
O6_4 C9_4 1_555 1_555
O7_4 C10_4 1_555 1_555
O8_4 C10_4 1_555 1_555
C9_4 C11_4 1_555 1_555
C10_4 C13_4 1_555 1_555
C11_4 C12_4 1_555 1_555
C12_4 H8_4 1_555 1_555
C13_4 C12_4 1_555 1_555
C14_4 C13_4 1_555 1_555
H9_4 C14_4 1_555 1_555
C16_4 C11_4 1_555 1_555
H10_4 C16_4 1_555 1_555
C34_3 C33_3 1_555 1_555
H17_3 C34_3 1_555 1_555
H18_3 C34_3 1_555 1_555
H19_3 C34_3 1_555 1_555
C35_3 N1_3 1_555 1_555
H20_3 C35_3 1_555 1_555
H21_3 C35_3 1_555 1_555
H22_3 C35_3 1_555 1_555
Cd7_2 O7_4 1_555 1_555
Cd10_4 O5_4 1_555 1_555
Cd11_2 O6_4 1_555 1_555
O8_4 Cd7_2 1_555 1_555
C14_4 C15_4 1_555 1_555
C15_4 C16_4 1_555 1_555
Cd2_4 O2_4 1_555 1_555
Cd3_4 O3_4 1_555 1_555
Cd4_4 O4_4 1_555 1_555
N2_4 C37_4 1_555 1_555
N3_4 C41_4 1_555 1_555
N4_4 C45_4 1_555 1_555
O1_4 C1_4 1_555 1_555
O2_4 C1_4 1_555 1_555
O3_4 C2_4 1_555 1_555
O4_4 C2_4 1_555 1_555
O9_4 Cd3_4 1_555 1_555
O10_4 Cd4_4 1_555 1_555
O27_2 C18_4 1_555 1_555
O28_2 C18_4 1_555 1_555
O13_4 C25_4 1_555 1_555
O14_4 C25_4 1_555 1_555
O15_4 C26_4 1_555 1_555
O16_4 C26_4 1_555 1_555
O17_4 Cd2_4 1_555 1_555
O18_4 Cd3_4 1_555 1_555
O19_4 Cd3_4 1_555 1_555
O20_4 Cd3_4 1_555 1_555
O21_4 Cd2_4 1_555 1_555
H1_4 O21_4 1_555 1_555
H2_4 O21_4 1_555 1_555
C1_4 C3_4 1_555 1_555
C2_4 C5_4 1_555 1_555
C3_4 C4_4 1_555 1_555
C4_4 H5_4 1_555 1_555
C5_4 C4_4 1_555 1_555
C6_4 C5_4 1_555 1_555
H6_4 C6_4 1_555 1_555
C7_4 C6_4 1_555 1_555
C8_4 C3_4 1_555 1_555
H7_4 C8_4 1_555 1_555
C17_4 O9_4 1_555 1_555
C18_4 C21_4 1_555 1_555
C19_4 C17_4 1_555 1_555
C20_4 C19_4 1_555 1_555
H11_4 C20_4 1_555 1_555
C21_4 C20_4 1_555 1_555
C22_4 C21_4 1_555 1_555
H12_4 C22_4 1_555 1_555
C23_4 C22_4 1_555 1_555
C24_4 C19_4 1_555 1_555
H13_4 C24_4 1_555 1_555
C25_4 C27_4 1_555 1_555
C26_4 C29_4 1_555 1_555
C27_4 C28_4 1_555 1_555
C28_4 H14_4 1_555 1_555
C29_4 C28_4 1_555 1_555
C30_4 C29_4 1_555 1_555
H15_4 C30_4 1_555 1_555
C31_4 C23_4 1_555 1_555
C32_4 C27_4 1_555 1_555
H16_4 C32_4 1_555 1_555
C37_4 O18_4 1_555 1_555
C38_4 C37_4 1_555 1_555
H26_4 C38_4 1_555 1_555
H27_4 C38_4 1_555 1_555
H28_4 C38_4 1_555 1_555
C39_4 N2_4 1_555 1_555
H29_4 C39_4 1_555 1_555
H30_4 C39_4 1_555 1_555
H31_4 C39_4 1_555 1_555
C40_4 N2_4 1_555 1_555
H32_4 C40_4 1_555 1_555
H33_4 C40_4 1_555 1_555
H34_4 C40_4 1_555 1_555
C41_4 O19_4 1_555 1_555
C42_4 C41_4 1_555 1_555
H35_4 C42_4 1_555 1_555
H36_4 C42_4 1_555 1_555
H37_4 C42_4 1_555 1_555
C43_4 N3_4 1_555 1_555
H38_4 C43_4 1_555 1_555
H39_4 C43_4 1_555 1_555
H40_4 C43_4 1_555 1_555
C44_4 N3_4 1_555 1_555
H41_4 C44_4 1_555 1_555
H42_4 C44_4 1_555 1_555
H43_4 C44_4 1_555 1_555
C45_4 O20_4 1_555 1_555
C46_4 C45_4 1_555 1_555
H44_4 C46_4 1_555 1_555
H45_4 C46_4 1_555 1_555
H46_4 C46_4 1_555 1_555
C47_4 N4_4 1_555 1_555
H47_4 C47_4 1_555 1_555
H49_4 C47_4 1_555 1_555
Cd8_2 O15_4 1_555 1_555
Cd11_2 O13_4 1_555 1_555
O23_4 Cd3_4 1_555 1_555
O24_4 Cd4_4 1_555 1_555
O29_4 Cd4_4 1_555 1_555
O30_4 Cd4_4 1_555 1_555
O31_4 Cd2_4 1_555 1_555
Cd4_4 O9_4 1_555 1_555
O10_4 C17_4 1_555 1_555
O14_4 Cd11_2 1_555 1_555
C7_4 C8_4 1_555 1_555
C23_4 C24_4 1_555 1_555
C30_4 C31_4 1_555 1_555
C31_4 C32_4 1_555 1_555
H23_3 C36_3 1_555 1_555
H25_3 C36_3 1_555 1_555
H3_4 O22_4 1_555 1_555
H50_4 C48_4 1_555 1_555
H51_4 C48_4 1_555 1_555
O25_4 Cd5_2 1_555 1_555
O26_4 Cd5_2 1_555 1_555
Cd6 O1_5 1_555 1_555
Cd8 O2_5 1_555 1_555
Cd10_4 O3_5 1_555 1_555
Cd11_2 O4_5 1_555 1_555
N1_4 C33_4 1_555 1_555
N2_5 C37_5 1_555 1_555
N4_5 C45_5 1_555 1_555
O1_5 C1_5 1_555 1_555
O2_5 C1_5 1_555 1_555
O3_5 C2_5 1_555 1_555
O4_5 C2_5 1_555 1_555
O23_4 C9_5 1_555 1_555
O24_4 C9_5 1_555 1_555
O25 C10_5 1_555 1_555
O26 C10_5 1_555 1_555
O9_5 Cd10_4 1_555 1_555
O10_5 Cd11_2 1_555 1_555
O11_3 C18_5 1_555 1_555
O12_3 C18_5 1_555 1_555
O17_5 Cd8 1_555 1_555
O18_5 Cd10_4 1_555 1_555
O19_5 Cd10_4 1_555 1_555
O20_5 Cd10_4 1_555 1_555
O21_5 Cd8 1_555 1_555
H1_5 O21_5 1_555 1_555
H2_5 O21_5 1_555 1_555
O22_5 Cd8 1_555 1_555
H3_5 O22_5 1_555 1_555
H4_5 O22_5 1_555 1_555
C1_5 C3_5 1_555 1_555
C2_5 C5_5 1_555 1_555
C3_5 C4_5 1_555 1_555
C4_5 H5_5 1_555 1_555
C5_5 C4_5 1_555 1_555
C6_5 C5_5 1_555 1_555
H6_5 C6_5 1_555 1_555
C7_5 C6_5 1_555 1_555
C8_5 C3_5 1_555 1_555
H7_5 C8_5 1_555 1_555
C9_5 C11_5 1_555 1_555
C10_5 C13_5 1_555 1_555
C11_5 C12_5 1_555 1_555
C12_5 H8_5 1_555 1_555
C13_5 C12_5 1_555 1_555
C14_5 C13_5 1_555 1_555
H9_5 C14_5 1_555 1_555
C15_5 C7_5 1_555 1_555
C16_5 C11_5 1_555 1_555
H10_5 C16_5 1_555 1_555
C17_5 O9_5 1_555 1_555
C18_5 C21_5 1_555 1_555
C19_5 C17_5 1_555 1_555
C20_5 C19_5 1_555 1_555
H11_5 C20_5 1_555 1_555
C21_5 C20_5 1_555 1_555
C22_5 C21_5 1_555 1_555
H12_5 C22_5 1_555 1_555
C23_5 C22_5 1_555 1_555
C24_5 C19_5 1_555 1_555
H13_5 C24_5 1_555 1_555
C33_4 O17_5 1_555 1_555
C34_4 C33_4 1_555 1_555
H17_4 C34_4 1_555 1_555
H18_4 C34_4 1_555 1_555
H19_4 C34_4 1_555 1_555
C35_4 N1_4 1_555 1_555
H20_4 C35_4 1_555 1_555
H21_4 C35_4 1_555 1_555
H22_4 C35_4 1_555 1_555
C36_4 N1_4 1_555 1_555
H23_4 C36_4 1_555 1_555
H24_4 C36_4 1_555 1_555
H25_4 C36_4 1_555 1_555
C37_5 O18_5 1_555 1_555
C38_5 C37_5 1_555 1_555
H26_5 C38_5 1_555 1_555
H27_5 C38_5 1_555 1_555
H28_5 C38_5 1_555 1_555
C39_5 N2_5 1_555 1_555
H29_5 C39_5 1_555 1_555
H30_5 C39_5 1_555 1_555
H31_5 C39_5 1_555 1_555
C45_5 O20_5 1_555 1_555
C46_5 C45_5 1_555 1_555
H44_5 C46_5 1_555 1_555
H45_5 C46_5 1_555 1_555
H46_5 C46_5 1_555 1_555
C47_5 N4_5 1_555 1_555
H47_5 C47_5 1_555 1_555
H48_5 C47_5 1_555 1_555
H49_5 C47_5 1_555 1_555
C48_5 N4_5 1_555 1_555
H50_5 C48_5 1_555 1_555
H51_5 C48_5 1_555 1_555
H52_5 C48_5 1_555 1_555
O27_3 Cd6 1_555 1_555
O28_3 Cd6 1_555 1_555
Cd11_2 O9_5 1_555 1_555
O10_5 C17_5 1_555 1_555
C7_5 C8_5 1_555 1_555
C14_5 C15_5 1_555 1_555
C15_5 C16_5 1_555 1_555
C23_5 C24_5 1_555 1_555
N3_5 C41_5 1_555 1_555
O29_4 C25_5 1_555 1_555
O30_4 C25_5 1_555 1_555
O31_3 C26_5 1_555 1_555
O32_3 C26_5 1_555 1_555
C25_5 C27_5 1_555 1_555
C26_5 C29_5 1_555 1_555
C27_5 C28_5 1_555 1_555
C28_5 H14_5 1_555 1_555
C29_5 C28_5 1_555 1_555
C30_5 C29_5 1_555 1_555
H15_5 C30_5 1_555 1_555
C32_5 C27_5 1_555 1_555
H16_5 C32_5 1_555 1_555
H32_5 C40_5 1_555 1_555
H33_5 C40_5 1_555 1_555
H34_5 C40_5 1_555 1_555
C42_5 C41_5 1_555 1_555
H35_5 C42_5 1_555 1_555
H36_5 C42_5 1_555 1_555
H37_5 C42_5 1_555 1_555
C43_5 N3_5 1_555 1_555
H38_5 C43_5 1_555 1_555
H39_5 C43_5 1_555 1_555
H40_5 C43_5 1_555 1_555
C44_5 N3_5 1_555 1_555
H41_5 C44_5 1_555 1_555
H42_5 C44_5 1_555 1_555
H43_5 C44_5 1_555 1_555
C30_5 C31_5 1_555 1_555
C31_5 C32_5 1_555 1_555
Cd8_2 O2_6 1_555 1_555
O17_6 Cd8_2 1_555 1_555
O21_6 Cd8_2 1_555 1_555
H1_6 O21_6 1_555 1_555
H2_6 O21_6 1_555 1_555
Cd10_3 O3_6 1_555 1_555
Cd12_2 O4_6 1_555 1_555
N2_6 C37_6 1_555 1_555
N3_6 C41_6 1_555 1_555
N4_6 C45_6 1_555 1_555
O1_6 C1_6 1_555 1_555
O3_6 C2_6 1_555 1_555
O4_6 C2_6 1_555 1_555
O9_6 Cd10_3 1_555 1_555
O10_6 Cd12_2 1_555 1_555
O11_4 C18_6 1_555 1_555
O12_4 C18_6 1_555 1_555
O29_3 C25_6 1_555 1_555
O30_3 C25_6 1_555 1_555
O31_4 C26_6 1_555 1_555
O32_4 C26_6 1_555 1_555
O18_6 Cd10_3 1_555 1_555
O19_6 Cd10_3 1_555 1_555
O20_6 Cd10_3 1_555 1_555
C1_6 C3_6 1_555 1_555
C2_6 C5_6 1_555 1_555
C3_6 C4_6 1_555 1_555
C4_6 H5_6 1_555 1_555
C5_6 C4_6 1_555 1_555
C6_6 C5_6 1_555 1_555
H6_6 C6_6 1_555 1_555
C7_6 C6_6 1_555 1_555
C8_6 C3_6 1_555 1_555
H7_6 C8_6 1_555 1_555
C17_6 O9_6 1_555 1_555
C18_6 C21_6 1_555 1_555
C19_6 C17_6 1_555 1_555
C20_6 C19_6 1_555 1_555
H11_6 C20_6 1_555 1_555
C21_6 C20_6 1_555 1_555
C22_6 C21_6 1_555 1_555
H12_6 C22_6 1_555 1_555
C23_6 C22_6 1_555 1_555
C24_6 C19_6 1_555 1_555
H13_6 C24_6 1_555 1_555
C25_6 C27_6 1_555 1_555
C26_6 C29_6 1_555 1_555
C27_6 C28_6 1_555 1_555
C28_6 H14_6 1_555 1_555
C29_6 C28_6 1_555 1_555
C30_6 C29_6 1_555 1_555
H15_6 C30_6 1_555 1_555
C31_6 C23_6 1_555 1_555
C32_6 C27_6 1_555 1_555
H16_6 C32_6 1_555 1_555
C37_6 O18_6 1_555 1_555
C38_6 C37_6 1_555 1_555
H26_6 C38_6 1_555 1_555
H27_6 C38_6 1_555 1_555
H28_6 C38_6 1_555 1_555
C39_6 N2_6 1_555 1_555
H29_6 C39_6 1_555 1_555
H30_6 C39_6 1_555 1_555
H31_6 C39_6 1_555 1_555
C40_6 N2_6 1_555 1_555
H32_6 C40_6 1_555 1_555
H33_6 C40_6 1_555 1_555
H34_6 C40_6 1_555 1_555
C41_6 O19_6 1_555 1_555
C42_6 C41_6 1_555 1_555
H35_6 C42_6 1_555 1_555
H36_6 C42_6 1_555 1_555
H37_6 C42_6 1_555 1_555
C43_6 N3_6 1_555 1_555
H38_6 C43_6 1_555 1_555
H39_6 C43_6 1_555 1_555
H40_6 C43_6 1_555 1_555
C44_6 N3_6 1_555 1_555
H41_6 C44_6 1_555 1_555
H42_6 C44_6 1_555 1_555
H43_6 C44_6 1_555 1_555
C45_6 O20_6 1_555 1_555
C46_6 C45_6 1_555 1_555
H44_6 C46_6 1_555 1_555
H45_6 C46_6 1_555 1_555
H46_6 C46_6 1_555 1_555
C47_6 N4_6 1_555 1_555
H47_6 C47_6 1_555 1_555
H49_6 C47_6 1_555 1_555
Cd7_2 O11_4 1_555 1_555
Cd12_2 O9_6 1_555 1_555
O10_6 C17_6 1_555 1_555
O12_4 Cd7_2 1_555 1_555
C7_6 C8_6 1_555 1_555
C23_6 C24_6 1_555 1_555
C30_6 C31_6 1_555 1_555
C31_6 C32_6 1_555 1_555
O23_3 C9_6 1_555 1_555
O24_3 C9_6 1_555 1_555
O25_2 C10_6 1_555 1_555
O26_2 C10_6 1_555 1_555
C9_6 C11_6 1_555 1_555
C10_6 C13_6 1_555 1_555
C11_6 C12_6 1_555 1_555
C12_6 H8_6 1_555 1_555
C13_6 C12_6 1_555 1_555
C14_6 C13_6 1_555 1_555
H9_6 C14_6 1_555 1_555
C16_6 C11_6 1_555 1_555
H10_6 C16_6 1_555 1_555
C14_6 C15_6 1_555 1_555
C15_6 C16_6 1_555 1_555
H3_6 O22_6 1_555 1_555
H50_6 C48_6 1_555 1_555
H51_6 C48_6 1_555 1_555
Cd10_2 O3_7 1_555 1_555
Cd11 O4_7 1_555 1_555
N2_7 C37_7 1_555 1_555
N4_7 C45_7 1_555 1_555
O1_7 C1_7 1_555 1_555
O3_7 C2_7 1_555 1_555
O4_7 C2_7 1_555 1_555
O23_2 C9_7 1_555 1_555
O24_2 C9_7 1_555 1_555
O25_3 C10_7 1_555 1_555
O26_3 C10_7 1_555 1_555
O9_7 Cd10_2 1_555 1_555
O10_7 Cd11 1_555 1_555
O27_3 C18_7 1_555 1_555
O28_3 C18_7 1_555 1_555
O18_7 Cd10_2 1_555 1_555
O19_7 Cd10_2 1_555 1_555
O20_7 Cd10_2 1_555 1_555
C1_7 C3_7 1_555 1_555
C2_7 C5_7 1_555 1_555
C3_7 C4_7 1_555 1_555
C4_7 H5_7 1_555 1_555
C5_7 C4_7 1_555 1_555
C6_7 C5_7 1_555 1_555
H6_7 C6_7 1_555 1_555
C7_7 C6_7 1_555 1_555
C8_7 C3_7 1_555 1_555
H7_7 C8_7 1_555 1_555
C9_7 C11_7 1_555 1_555
C10_7 C13_7 1_555 1_555
C11_7 C12_7 1_555 1_555
C12_7 H8_7 1_555 1_555
C13_7 C12_7 1_555 1_555
C14_7 C13_7 1_555 1_555
H9_7 C14_7 1_555 1_555
C15_7 C7_7 1_555 1_555
C16_7 C11_7 1_555 1_555
H10_7 C16_7 1_555 1_555
C17_7 O9_7 1_555 1_555
C18_7 C21_7 1_555 1_555
C19_7 C17_7 1_555 1_555
C20_7 C19_7 1_555 1_555
H11_7 C20_7 1_555 1_555
C21_7 C20_7 1_555 1_555
C22_7 C21_7 1_555 1_555
H12_7 C22_7 1_555 1_555
C23_7 C22_7 1_555 1_555
C24_7 C19_7 1_555 1_555
H13_7 C24_7 1_555 1_555
C37_7 O18_7 1_555 1_555
C38_7 C37_7 1_555 1_555
H26_7 C38_7 1_555 1_555
H27_7 C38_7 1_555 1_555
H28_7 C38_7 1_555 1_555
C39_7 N2_7 1_555 1_555
H29_7 C39_7 1_555 1_555
H30_7 C39_7 1_555 1_555
H31_7 C39_7 1_555 1_555
C45_7 O20_7 1_555 1_555
C46_7 C45_7 1_555 1_555
H44_7 C46_7 1_555 1_555
H45_7 C46_7 1_555 1_555
H46_7 C46_7 1_555 1_555
C47_7 N4_7 1_555 1_555
H47_7 C47_7 1_555 1_555
H48_7 C47_7 1_555 1_555
H49_7 C47_7 1_555 1_555
C48_7 N4_7 1_555 1_555
H50_7 C48_7 1_555 1_555
H51_7 C48_7 1_555 1_555
H52_7 C48_7 1_555 1_555
Cd11 O9_7 1_555 1_555
O10_7 C17_7 1_555 1_555
C7_7 C8_7 1_555 1_555
C14_7 C15_7 1_555 1_555
C15_7 C16_7 1_555 1_555
C23_7 C24_7 1_555 1_555
Cd9 O2_7 1_555 1_555
N1_5 C33_5 1_555 1_555
O17_7 Cd9 1_555 1_555
O21_7 Cd9 1_555 1_555
H1_7 O21_7 1_555 1_555
H2_7 O21_7 1_555 1_555
O22_7 Cd9 1_555 1_555
H3_7 O22_7 1_555 1_555
H4_7 O22_7 1_555 1_555
C33_5 O17_7 1_555 1_555
C34_5 C33_5 1_555 1_555
H17_5 C34_5 1_555 1_555
H18_5 C34_5 1_555 1_555
H19_5 C34_5 1_555 1_555
C35_5 N1_5 1_555 1_555
H20_5 C35_5 1_555 1_555
H21_5 C35_5 1_555 1_555
H22_5 C35_5 1_555 1_555
C36_5 N1_5 1_555 1_555
H23_5 C36_5 1_555 1_555
H24_5 C36_5 1_555 1_555
H25_5 C36_5 1_555 1_555
N3_7 C41_7 1_555 1_555
O29_2 C25_7 1_555 1_555
O30_2 C25_7 1_555 1_555
O31 C26_7 1_555 1_555
O32 C26_7 1_555 1_555
C25_7 C27_7 1_555 1_555
C26_7 C29_7 1_555 1_555
C27_7 C28_7 1_555 1_555
C28_7 H14_7 1_555 1_555
C29_7 C28_7 1_555 1_555
C30_7 C29_7 1_555 1_555
H15_7 C30_7 1_555 1_555
C32_7 C27_7 1_555 1_555
H16_7 C32_7 1_555 1_555
H32_7 C40_7 1_555 1_555
H33_7 C40_7 1_555 1_555
H34_7 C40_7 1_555 1_555
C42_7 C41_7 1_555 1_555
H35_7 C42_7 1_555 1_555
H36_7 C42_7 1_555 1_555
H37_7 C42_7 1_555 1_555
C43_7 N3_7 1_555 1_555
H38_7 C43_7 1_555 1_555
H39_7 C43_7 1_555 1_555
H40_7 C43_7 1_555 1_555
C44_7 N3_7 1_555 1_555
H41_7 C44_7 1_555 1_555
H42_7 C44_7 1_555 1_555
H43_7 C44_7 1_555 1_555
C30_7 C31_7 1_555 1_555
C31_7 C32_7 1_555 1_555
H3_8 O22_8 1_555 1_555
H50_8 C48_8 1_555 1_555
H51_8 C48_8 1_555 1_555
H23_6 C36_6 1_555 1_555
H25_6 C36_6 1_555 1_555
Cd9_2 O2_8 1_555 1_555
Cd10 O3_8 1_555 1_555
Cd12 O4_8 1_555 1_555
N2_8 C37_8 1_555 1_555
N3_8 C41_8 1_555 1_555
N4_8 C45_8 1_555 1_555
O1_8 C1_8 1_555 1_555
O2_8 C1_8 1_555 1_555
O3_8 C2_8 1_555 1_555
O4_8 C2_8 1_555 1_555
O9_8 Cd10 1_555 1_555
O10_8 Cd12 1_555 1_555
O27_4 C18_8 1_555 1_555
O28_4 C18_8 1_555 1_555
O29 C25_8 1_555 1_555
O30 C25_8 1_555 1_555
O31_2 C26_8 1_555 1_555
O32_2 C26_8 1_555 1_555
O17_8 Cd9_2 1_555 1_555
O18_8 Cd10 1_555 1_555
O19_8 Cd10 1_555 1_555
O20_8 Cd10 1_555 1_555
O21_8 Cd9_2 1_555 1_555
H1_8 O21_8 1_555 1_555
H2_8 O21_8 1_555 1_555
C1_8 C3_8 1_555 1_555
C2_8 C5_8 1_555 1_555
C3_8 C4_8 1_555 1_555
C4_8 H5_8 1_555 1_555
C5_8 C4_8 1_555 1_555
C6_8 C5_8 1_555 1_555
H6_8 C6_8 1_555 1_555
C7_8 C6_8 1_555 1_555
C8_8 C3_8 1_555 1_555
H7_8 C8_8 1_555 1_555
C17_8 O9_8 1_555 1_555
C18_8 C21_8 1_555 1_555
C19_8 C17_8 1_555 1_555
C20_8 C19_8 1_555 1_555
H11_8 C20_8 1_555 1_555
C21_8 C20_8 1_555 1_555
C22_8 C21_8 1_555 1_555
H12_8 C22_8 1_555 1_555
C23_8 C22_8 1_555 1_555
C24_8 C19_8 1_555 1_555
H13_8 C24_8 1_555 1_555
C25_8 C27_8 1_555 1_555
C26_8 C29_8 1_555 1_555
C27_8 C28_8 1_555 1_555
C28_8 H14_8 1_555 1_555
C29_8 C28_8 1_555 1_555
C30_8 C29_8 1_555 1_555
H15_8 C30_8 1_555 1_555
C31_8 C23_8 1_555 1_555
C32_8 C27_8 1_555 1_555
H16_8 C32_8 1_555 1_555
C37_8 O18_8 1_555 1_555
C38_8 C37_8 1_555 1_555
H26_8 C38_8 1_555 1_555
H27_8 C38_8 1_555 1_555
H28_8 C38_8 1_555 1_555
C39_8 N2_8 1_555 1_555
H29_8 C39_8 1_555 1_555
H30_8 C39_8 1_555 1_555
H31_8 C39_8 1_555 1_555
C40_8 N2_8 1_555 1_555
H32_8 C40_8 1_555 1_555
H33_8 C40_8 1_555 1_555
H34_8 C40_8 1_555 1_555
C41_8 O19_8 1_555 1_555
C42_8 C41_8 1_555 1_555
H35_8 C42_8 1_555 1_555
H36_8 C42_8 1_555 1_555
H37_8 C42_8 1_555 1_555
C43_8 N3_8 1_555 1_555
H38_8 C43_8 1_555 1_555
H39_8 C43_8 1_555 1_555
H40_8 C43_8 1_555 1_555
C44_8 N3_8 1_555 1_555
H41_8 C44_8 1_555 1_555
H42_8 C44_8 1_555 1_555
H43_8 C44_8 1_555 1_555
C45_8 O20_8 1_555 1_555
C46_8 C45_8 1_555 1_555
H44_8 C46_8 1_555 1_555
H45_8 C46_8 1_555 1_555
H46_8 C46_8 1_555 1_555
C47_8 N4_8 1_555 1_555
H47_8 C47_8 1_555 1_555
H49_8 C47_8 1_555 1_555
Cd12 O9_8 1_555 1_555
O10_8 C17_8 1_555 1_555
C7_8 C8_8 1_555 1_555
C23_8 C24_8 1_555 1_555
C30_8 C31_8 1_555 1_555
C31_8 C32_8 1_555 1_555
N1_6 C33_6 1_555 1_555
O23 C9_8 1_555 1_555
O24 C9_8 1_555 1_555
O25_4 C10_8 1_555 1_555
O26_4 C10_8 1_555 1_555
C9_8 C11_8 1_555 1_555
C10_8 C13_8 1_555 1_555
C11_8 C12_8 1_555 1_555
C12_8 H8_8 1_555 1_555
C13_8 C12_8 1_555 1_555
C14_8 C13_8 1_555 1_555
H9_8 C14_8 1_555 1_555
C16_8 C11_8 1_555 1_555
H10_8 C16_8 1_555 1_555
C34_6 C33_6 1_555 1_555
H17_6 C34_6 1_555 1_555
H18_6 C34_6 1_555 1_555
H19_6 C34_6 1_555 1_555
C35_6 N1_6 1_555 1_555
H20_6 C35_6 1_555 1_555
H21_6 C35_6 1_555 1_555
H22_6 C35_6 1_555 1_555
C14_8 C15_8 1_555 1_555
C15_8 C16_8 1_555 1_555
H23_7 C36_7 1_555 1_555
H25_7 C36_7 1_555 1_555
N1_7 C33_7 1_555 1_555
C34_7 C33_7 1_555 1_555
H17_7 C34_7 1_555 1_555
H18_7 C34_7 1_555 1_555
H19_7 C34_7 1_555 1_555
C35_7 N1_7 1_555 1_555
H20_7 C35_7 1_555 1_555
H21_7 C35_7 1_555 1_555
H22_7 C35_7 1_555 1_555
N1_8 C33_8 1_555 1_555
C34_8 C33_8 1_555 1_555
H17_8 C34_8 1_555 1_555
H18_8 C34_8 1_555 1_555
H19_8 C34_8 1_555 1_555
C35_8 N1_8 1_555 1_555
H20_8 C35_8 1_555 1_555
H21_8 C35_8 1_555 1_555
H22_8 C35_8 1_555 1_555
H23_8 C36_8 1_555 1_555
H25_8 C36_8 1_555 1_555

#END
