
###############################################################################
#
# This file contains modified crystal structure data generated from the
# MOF subset of the Cambridge Structural Database (CSD) v543 
# hosted by the Cambridge Crystallographic Data Centre (CCDC).
#
# This work is licensed under the Creative Commons
# Attribution-NonCommercial-ShareAlike 4.0 International License.
# To view a copy of this license, visit
# http://creativecommons.org/licenses/by-nc-sa/4.0/
# or send a letter to
# Creative Commons, PO Box 1866, Mountain View, CA 94042, USA.
#
# CIF created using the CSD Python API on 29 September 2022
# The structure has been converted into the P1 space group
# The structure has a 3D framework
# The original CSD entry NEVDUQ is in the tetragonal crystal system
# The framework has been calculated to contain at least 10.0% void space
# The void calculation uses a probe of radius 1.32A, grid spacing 0.4
# H atom positions have been added when not included in the experimental data
# Generated hydrogen atom positions removed from atoms on special positions
#
###############################################################################

data_NEVDUQ
_chemical_formula_moiety         '(C184 H272 Hf22 O72)n'
_symmetry_cell_setting           triclinic
_symmetry_space_group_name_H-M   'P 1'
_symmetry_Int_Tables_number      1
_space_group_name_Hall           'P 1'
loop_
_symmetry_equiv_pos_site_id
_symmetry_equiv_pos_as_xyz
1 x,y,z
_cell_length_a                   19.5041(13)
_cell_length_b                   19.5041(13)
_cell_length_c                   32.072(3)
_cell_angle_alpha                90
_cell_angle_beta                 90
_cell_angle_gamma                90
_cell_volume                     12200.5
loop_
_atom_site_label
_atom_site_type_symbol
_atom_site_fract_x
_atom_site_fract_y
_atom_site_fract_z
Hf9 Hf 0.0000 0.0000 0.07658(15)
O5 O 0.020(3) 0.218(3) 0.0000
C13 C 0.0330(12) 0.4181(18) 0.1970(11)
O6 O 0.0269(15) 0.9116(11) 0.1111(9)
O7 O 0.0595(15) 0.8316(14) 0.0592(7)
C14 C 0.0658(8) 0.6893(16) 0.1933(11)
C15 C 0.0808(14) 0.6718(14) 0.1489(15)
C16 C 0.0755(15) 0.726(2) 0.1207(9)
C17 C 0.0585(9) 0.7909(18) 0.1299(12)
C18 C 0.0436(15) 0.8085(15) 0.1743(15)
C19 C 0.0488(14) 0.755(2) 0.2025(8)
C20 C 0.0715(9) 0.6336(11) 0.2212(6)
C21 C 0.0204(13) 0.5839(15) 0.2201(10)
C22 C 0.025(3) 0.525(3) 0.2500
C23 C 0.1264(12) 0.6264(12) 0.2500
C24 C 0.1761(8) 0.6761(8) 0.2500
C25 C 0.0529(11) 0.8463(14) 0.1019(8)
O10 O 0.4116(11) 0.5269(15) 0.3889(9)
O11 O 0.3316(14) 0.5595(15) 0.4408(7)
C37 C 0.1893(16) 0.5658(8) 0.3067(11)
C38 C 0.1718(14) 0.5808(14) 0.3511(15)
C39 C 0.226(2) 0.5755(15) 0.3793(9)
C40 C 0.2909(18) 0.5585(9) 0.3701(12)
C41 C 0.3085(15) 0.5436(15) 0.3257(15)
C42 C 0.255(2) 0.5488(14) 0.2975(8)
C43 C 0.1336(11) 0.5715(9) 0.2788(6)
C44 C 0.0839(15) 0.5204(13) 0.2799(10)
C45 C 0.3463(14) 0.5529(11) 0.3981(8)
C46 C 0.0819(18) 0.4670(12) 0.3030(11)
O16 O 0.0417(17) 0.0778(16) 0.0358(11)
Hf4 Hf 0.0411(2) 0.87921(18) 0.0000
Hf6 Hf 0.12079(18) 0.0411(2) 0.0000
Hf8 Hf 0.37921(18) 0.5411(2) 0.5000
Hf9_2 Hf 0.0000 1.0000 0.07658(15)
Hf11 Hf 0.5000 0.5000 0.42342(15)
O19 O 0.0884(11) 0.0269(15) 0.1111(9)
H4 H 0.0673631 0.208275 0.00969663
H6 H 0.0949266 0.620198 0.139187
H7 H 0.0861826 0.714526 0.088111
H9 H 0.0295262 0.860175 0.183897
H16 H 0.0382678 0.766765 0.235069
H21 H 0.0176416 0.418844 0.164358
H22 H 0.0623729 0.464147 0.204051
H23 H 0.0644622 0.373012 0.202919
H24 H 0.152968 0.725553 0.257113
H25 H 0.214569 0.663952 0.273475
H26 H 0.200244 0.678276 0.219413
H30 H 0.120198 0.594927 0.360813
H31 H 0.266765 0.538268 0.264931
H37 H 0.0831659 0.421301 0.283507
H38 H 0.125955 0.4669 0.32386
H39 H 0.0348757 0.467323 0.321306
H40 H 0.214526 0.586183 0.411889
H41 H 0.360175 0.529526 0.316103
O5_2 O 0.020(3) 0.218(3) 1.0000
Hf4_2 Hf 0.0411(2) 0.87921(18) 1.0000
Hf6_2 Hf 0.12079(18) 0.0411(2) 1.0000
O22 O 0.0417(17) 0.0778(16) 0.9642(11)
H5 H 0.0215561 0.237067 0.971307
O12 O 0.0778(16) 0.9583(17) 0.0358(11)
O13 O 0.145(2) 0.837(2) 0.0000
H35 H 0.159444 0.827466 0.0291177
O13_2 O 0.145(2) 0.837(2) 1.0000
O20 O 0.0778(16) 0.9583(17) 0.9642(11)
O25 O 0.0595(15) 0.8316(14) 0.9408(7)
H36 H 0.145755 0.793769 0.983652
Hf9_3 Hf 1.0000 0.0000 0.07658(15)
Hf1 Hf 0.9589(2) 0.12079(18) 0.0000
O1 O 0.9731(15) 0.0884(11) 0.1111(9)
O2 O 0.9222(16) 0.0417(17) 0.0358(11)
O3 O 0.9405(15) 0.1684(14) 0.0592(7)
O4 O 0.855(2) 0.163(2) 0.0000
C1 C 0.9342(8) 0.3107(16) 0.1933(11)
C2 C 0.9192(14) 0.3282(14) 0.1489(15)
C3 C 0.9245(15) 0.274(2) 0.1207(9)
C4 C 0.9415(9) 0.2091(18) 0.1299(12)
C5 C 0.9564(15) 0.1915(15) 0.1743(15)
C6 C 0.9512(14) 0.245(2) 0.2025(8)
C7 C 0.9285(9) 0.3664(11) 0.2212(6)
C8 C 0.9796(13) 0.4161(15) 0.2201(10)
C9 C 0.975(3) 0.475(3) 0.2500
C10 C 0.8736(12) 0.3736(12) 0.2500
C11 C 0.8239(8) 0.3239(8) 0.2500
C12 C 0.9471(11) 0.1537(14) 0.1019(8)
C26 C 0.9670(12) 0.5819(18) 0.1970(11)
O8 O 0.5884(11) 0.4731(15) 0.3889(9)
O9 O 0.6684(14) 0.4405(15) 0.4408(7)
C27 C 0.8107(16) 0.4342(8) 0.3067(11)
C28 C 0.8282(14) 0.4192(14) 0.3511(15)
C29 C 0.774(2) 0.4245(15) 0.3793(9)
C30 C 0.7091(18) 0.4415(9) 0.3701(12)
C31 C 0.6915(15) 0.4564(15) 0.3257(15)
C32 C 0.745(2) 0.4512(14) 0.2975(8)
C33 C 0.8664(11) 0.4285(9) 0.2788(6)
C34 C 0.9161(15) 0.4796(13) 0.2799(10)
C35 C 0.6537(14) 0.4471(11) 0.3981(8)
C36 C 0.9181(18) 0.5330(12) 0.3030(11)
Hf7 Hf 0.62079(18) 0.4589(2) 0.5000
Hf9_4 Hf 1.0000 1.0000 0.07658(15)
H1 H 0.840556 0.172534 0.0291177
H3 H 0.905073 0.379802 0.139187
H8 H 0.961732 0.233235 0.235069
H10 H 0.982358 0.581156 0.164358
H11 H 0.937627 0.535853 0.204051
H12 H 0.935538 0.626988 0.202919
H13 H 0.847032 0.274447 0.257113
H14 H 0.785431 0.336048 0.273475
H15 H 0.799756 0.321724 0.219413
H17 H 0.785474 0.413817 0.411889
H18 H 0.639825 0.470474 0.316103
H19 H 0.913817 0.285474 0.088111
H20 H 0.970474 0.139825 0.183897
H27 H 0.879802 0.405073 0.360813
H32 H 0.916834 0.578699 0.283507
H33 H 0.874045 0.5331 0.32386
H34 H 0.965124 0.532677 0.321306
H42 H 0.733235 0.461732 0.264931
Hf1_2 Hf 0.9589(2) 0.12079(18) 1.0000
O4_2 O 0.855(2) 0.163(2) 1.0000
O21 O 0.9222(16) 0.0417(17) 0.9642(11)
O26 O 0.9405(15) 0.1684(14) 0.9408(7)
H2 H 0.854245 0.206231 0.983652
O14 O 0.980(3) 0.782(3) 0.0000
O15 O 0.9583(17) 0.9222(16) 0.0358(11)
Hf5 Hf 0.87921(18) 0.9589(2) 0.0000
O18 O 0.9116(11) 0.9731(15) 0.1111(9)
H28 H 0.932637 0.791725 0.00969663
O14_2 O 0.980(3) 0.782(3) 1.0000
Hf5_2 Hf 0.87921(18) 0.9589(2) 1.0000
O23 O 0.9583(17) 0.9222(16) 0.9642(11)
H29 H 0.978444 0.762933 0.971307
O13_3 O 0.163(2) 0.145(2) 0.0000
O24 O 0.1684(14) 0.0595(15) 0.0592(7)
H35_2 H 0.172534 0.159444 0.0291177
O13_4 O 0.163(2) 0.145(2) 1.0000
O25_2 O 0.1684(14) 0.0595(15) 0.9408(7)
H36_2 H 0.206231 0.145755 0.983652
O14_3 O 0.218(3) 0.980(3) 0.0000
H28_2 H 0.208275 0.932637 0.00969663
O14_4 O 0.218(3) 0.980(3) 1.0000
H29_2 H 0.237067 0.978444 0.971307
O5_3 O 0.782(3) 0.020(3) 0.0000
C13_2 C 0.5819(18) 0.0330(12) 0.1970(11)
C14_2 C 0.3107(16) 0.0658(8) 0.1933(11)
C15_2 C 0.3282(14) 0.0808(14) 0.1489(15)
C16_2 C 0.274(2) 0.0755(15) 0.1207(9)
C17_2 C 0.2091(18) 0.0585(9) 0.1299(12)
C18_2 C 0.1915(15) 0.0436(15) 0.1743(15)
C19_2 C 0.245(2) 0.0488(14) 0.2025(8)
C20_2 C 0.3664(11) 0.0715(9) 0.2212(6)
C21_2 C 0.4161(15) 0.0204(13) 0.2201(10)
C22_2 C 0.475(3) 0.025(3) 0.2500
C23_2 C 0.3736(12) 0.1264(12) 0.2500
C24_2 C 0.3239(8) 0.1761(8) 0.2500
C25_2 C 0.1537(14) 0.0529(11) 0.1019(8)
O10_2 O 0.4731(15) 0.4116(11) 0.3889(9)
O11_2 O 0.4405(15) 0.3316(14) 0.4408(7)
C37_2 C 0.4342(8) 0.1893(16) 0.3067(11)
C38_2 C 0.4192(14) 0.1718(14) 0.3511(15)
C39_2 C 0.4245(15) 0.226(2) 0.3793(9)
C40_2 C 0.4415(9) 0.2909(18) 0.3701(12)
C41_2 C 0.4564(15) 0.3085(15) 0.3257(15)
C42_2 C 0.4512(14) 0.255(2) 0.2975(8)
C43_2 C 0.4285(9) 0.1336(11) 0.2788(6)
C44_2 C 0.4796(13) 0.0839(15) 0.2799(10)
C45_2 C 0.4471(11) 0.3463(14) 0.3981(8)
C46_2 C 0.5330(12) 0.0819(18) 0.3030(11)
Hf8_2 Hf 0.4589(2) 0.37921(18) 0.5000
H4_2 H 0.791725 0.0673631 0.00969663
H6_2 H 0.379802 0.0949266 0.139187
H7_2 H 0.285474 0.0861826 0.088111
H9_2 H 0.139825 0.0295262 0.183897
H16_2 H 0.233235 0.0382678 0.235069
H21_2 H 0.581156 0.0176416 0.164358
H22_2 H 0.535853 0.0623729 0.204051
H23_2 H 0.626988 0.0644622 0.202919
H24_2 H 0.274447 0.152968 0.257113
H25_2 H 0.336048 0.214569 0.273475
H26_2 H 0.321724 0.200244 0.219413
H30_2 H 0.405073 0.120198 0.360813
H31_2 H 0.461732 0.266765 0.264931
H37_2 H 0.578699 0.0831659 0.283507
H38_2 H 0.5331 0.125955 0.32386
H39_2 H 0.532677 0.0348757 0.321306
H40_2 H 0.413817 0.214526 0.411889
H41_2 H 0.470474 0.360175 0.316103
O5_4 O 0.782(3) 0.020(3) 1.0000
H5_2 H 0.762933 0.0215561 0.971307
O3_2 O 0.8316(14) 0.9405(15) 0.0592(7)
O4_3 O 0.837(2) 0.855(2) 0.0000
C1_2 C 0.6893(16) 0.9342(8) 0.1933(11)
C2_2 C 0.6718(14) 0.9192(14) 0.1489(15)
C3_2 C 0.726(2) 0.9245(15) 0.1207(9)
C4_2 C 0.7909(18) 0.9415(9) 0.1299(12)
C5_2 C 0.8085(15) 0.9564(15) 0.1743(15)
C6_2 C 0.755(2) 0.9512(14) 0.2025(8)
C7_2 C 0.6336(11) 0.9285(9) 0.2212(6)
C8_2 C 0.5839(15) 0.9796(13) 0.2201(10)
C9_2 C 0.525(3) 0.975(3) 0.2500
C10_2 C 0.6264(12) 0.8736(12) 0.2500
C11_2 C 0.6761(8) 0.8239(8) 0.2500
C12_2 C 0.8463(14) 0.9471(11) 0.1019(8)
C26_2 C 0.4181(18) 0.9670(12) 0.1970(11)
O8_2 O 0.5269(15) 0.5884(11) 0.3889(9)
O9_2 O 0.5595(15) 0.6684(14) 0.4408(7)
C27_2 C 0.5658(8) 0.8107(16) 0.3067(11)
C28_2 C 0.5808(14) 0.8282(14) 0.3511(15)
C29_2 C 0.5755(15) 0.774(2) 0.3793(9)
C30_2 C 0.5585(9) 0.7091(18) 0.3701(12)
C31_2 C 0.5436(15) 0.6915(15) 0.3257(15)
C32_2 C 0.5488(14) 0.745(2) 0.2975(8)
C33_2 C 0.5715(9) 0.8664(11) 0.2788(6)
C34_2 C 0.5204(13) 0.9161(15) 0.2799(10)
C35_2 C 0.5529(11) 0.6537(14) 0.3981(8)
C36_2 C 0.4670(12) 0.9181(18) 0.3030(11)
Hf7_2 Hf 0.5411(2) 0.62079(18) 0.5000
H1_2 H 0.827466 0.840556 0.0291177
H3_2 H 0.620198 0.905073 0.139187
H8_2 H 0.766765 0.961732 0.235069
H10_2 H 0.418844 0.982358 0.164358
H11_2 H 0.464147 0.937627 0.204051
H12_2 H 0.373012 0.935538 0.202919
H13_2 H 0.725553 0.847032 0.257113
H14_2 H 0.663952 0.785431 0.273475
H15_2 H 0.678276 0.799756 0.219413
H17_2 H 0.586183 0.785474 0.411889
H18_2 H 0.529526 0.639825 0.316103
H19_2 H 0.714526 0.913817 0.088111
H20_2 H 0.860175 0.970474 0.183897
H27_2 H 0.594927 0.879802 0.360813
H32_2 H 0.421301 0.916834 0.283507
H33_2 H 0.4669 0.874045 0.32386
H34_2 H 0.467323 0.965124 0.321306
H42_2 H 0.538268 0.733235 0.264931
O4_4 O 0.837(2) 0.855(2) 1.0000
O26_2 O 0.8316(14) 0.9405(15) 0.9408(7)
H2_2 H 0.793769 0.854245 0.983652
H10_3 H 0.517642 0.0811559 0.335642
H11_3 H 0.562373 0.0358533 0.295949
H12_3 H 0.564462 0.126988 0.297081
H24_3 H 0.347032 0.225553 0.242887
H25_3 H 0.285431 0.163952 0.226525
H26_3 H 0.299756 0.178276 0.280587
H32_3 H 0.583166 0.078699 0.216493
H33_3 H 0.625955 0.0331005 0.17614
H34_3 H 0.534876 0.0326772 0.178694
O2_2 O 0.5778(16) 0.5417(17) 0.4642(11)
O4_5 O 0.645(2) 0.663(2) 0.5000
O5_5 O 0.480(3) 0.718(3) 0.5000
O12_2 O 0.4222(16) 0.4583(17) 0.4642(11)
O13_5 O 0.355(2) 0.337(2) 0.5000
O14_5 O 0.520(3) 0.282(3) 0.5000
O15_2 O 0.5417(17) 0.4222(16) 0.4642(11)
O16_2 O 0.4583(17) 0.5778(16) 0.4642(11)
O20_2 O 0.4222(16) 0.4583(17) 0.5358(11)
O21_2 O 0.5778(16) 0.5417(17) 0.5358(11)
O22_2 O 0.4583(17) 0.5778(16) 0.5358(11)
O23_2 O 0.5417(17) 0.4222(16) 0.5358(11)
O25_3 O 0.4405(15) 0.3316(14) 0.5592(7)
O26_3 O 0.5595(15) 0.6684(14) 0.5592(7)
H13_3 H 0.652968 0.774447 0.242887
H14_3 H 0.714569 0.836048 0.226525
H15_3 H 0.700244 0.821724 0.280587
H21_3 H 0.482358 0.918844 0.335642
H22_3 H 0.437627 0.964147 0.295949
H23_3 H 0.435538 0.873012 0.297081
H37_3 H 0.416834 0.921301 0.216493
H38_3 H 0.374045 0.9669 0.17614
H39_3 H 0.465124 0.967323 0.178694
H10_4 H 0.0811559 0.482358 0.335642
H11_4 H 0.0358533 0.437627 0.295949
H12_4 H 0.126988 0.435538 0.297081
H24_4 H 0.225553 0.652968 0.242887
H25_4 H 0.163952 0.714569 0.226525
H26_4 H 0.178276 0.700244 0.280587
H32_4 H 0.078699 0.416834 0.216493
H33_4 H 0.0331005 0.374045 0.17614
H34_4 H 0.0326772 0.465124 0.178694
O4_6 O 0.663(2) 0.355(2) 0.5000
O5_6 O 0.718(3) 0.520(3) 0.5000
O13_6 O 0.337(2) 0.645(2) 0.5000
O14_6 O 0.282(3) 0.480(3) 0.5000
O25_4 O 0.3316(14) 0.5595(15) 0.5592(7)
O26_4 O 0.6684(14) 0.4405(15) 0.5592(7)
H13_4 H 0.774447 0.347032 0.242887
H14_4 H 0.836048 0.285431 0.226525
H15_4 H 0.821724 0.299756 0.280587
H21_4 H 0.918844 0.517642 0.335642
H22_4 H 0.964147 0.562373 0.295949
H23_4 H 0.873012 0.564462 0.297081
H37_4 H 0.921301 0.583166 0.216493
H38_4 H 0.9669 0.625955 0.17614
H39_4 H 0.967323 0.534876 0.178694
H29_3 H 0.0215561 0.237067 0.0286928
Hf2 Hf 0.0000 0.0000 0.92342(15)
O18_2 O 0.0884(11) 0.0269(15) 0.8889(9)
H28_3 H 0.0673631 0.208275 0.990303
H2_3 H 0.145755 0.793769 0.0163476
Hf2_2 Hf 0.0000 1.0000 0.92342(15)
O1_2 O 0.0269(15) 0.9116(11) 0.8889(9)
C1_3 C 0.0658(8) 0.6893(16) 0.8067(11)
C2_3 C 0.0808(14) 0.6718(14) 0.8511(15)
C3_3 C 0.0755(15) 0.726(2) 0.8793(9)
C4_3 C 0.0585(9) 0.7909(18) 0.8701(12)
C5_3 C 0.0436(15) 0.8085(15) 0.8257(15)
C6_3 C 0.0488(14) 0.755(2) 0.7975(8)
C7_3 C 0.0715(9) 0.6336(11) 0.7788(6)
C8_3 C 0.0204(13) 0.5839(15) 0.7799(10)
C9_3 C 0.025(3) 0.525(3) 0.7500
C10_3 C 0.1264(12) 0.6264(12) 0.7500
C11_3 C 0.1761(8) 0.6761(8) 0.7500
C12_3 C 0.0529(11) 0.8463(14) 0.8981(8)
C26_3 C 0.0330(12) 0.4181(18) 0.8030(11)
O8_3 O 0.4116(11) 0.5269(15) 0.6111(9)
C27_3 C 0.1893(16) 0.5658(8) 0.6933(11)
C28_3 C 0.1718(14) 0.5808(14) 0.6489(15)
C29_3 C 0.226(2) 0.5755(15) 0.6207(9)
C30_3 C 0.2909(18) 0.5585(9) 0.6299(12)
C31_3 C 0.3085(15) 0.5436(15) 0.6743(15)
C32_3 C 0.255(2) 0.5488(14) 0.7025(8)
C33_3 C 0.1336(11) 0.5715(9) 0.7212(6)
C34_3 C 0.0839(15) 0.5204(13) 0.7201(10)
C35_3 C 0.3463(14) 0.5529(11) 0.6019(8)
C36_3 C 0.0819(18) 0.4670(12) 0.6970(11)
Hf10 Hf 0.5000 0.5000 0.57658(15)
H1_3 H 0.159444 0.827466 0.970882
H3_3 H 0.0949266 0.620198 0.860813
H8_3 H 0.0382678 0.766765 0.764931
H10_5 H 0.0176416 0.418844 0.835642
H11_5 H 0.0623729 0.464147 0.795949
H12_5 H 0.0644622 0.373012 0.797081
H13_5 H 0.152968 0.725553 0.742887
H14_5 H 0.214569 0.663952 0.726525
H15_5 H 0.200244 0.678276 0.780587
H17_3 H 0.214526 0.586183 0.588111
H18_3 H 0.360175 0.529526 0.683897
H19_3 H 0.0861826 0.714526 0.911889
H20_3 H 0.0295262 0.860175 0.816103
H27_3 H 0.120198 0.594927 0.639187
H32_5 H 0.0831659 0.421301 0.716493
H33_5 H 0.125955 0.4669 0.67614
H34_5 H 0.0348757 0.467323 0.678694
H42_3 H 0.266765 0.538268 0.735069
H36_3 H 0.854245 0.206231 0.0163476
Hf2_3 Hf 1.0000 0.0000 0.92342(15)
O17 O 0.9731(15) 0.0884(11) 0.8889(9)
H35_3 H 0.840556 0.172534 0.970882
H5_3 H 0.978444 0.762933 0.0286928
Hf2_4 Hf 1.0000 1.0000 0.92342(15)
C13_3 C 0.9670(12) 0.5819(18) 0.8030(11)
C14_3 C 0.9342(8) 0.3107(16) 0.8067(11)
C15_3 C 0.9192(14) 0.3282(14) 0.8511(15)
C16_3 C 0.9245(15) 0.274(2) 0.8793(9)
C17_3 C 0.9415(9) 0.2091(18) 0.8701(12)
C18_3 C 0.9564(15) 0.1915(15) 0.8257(15)
C19_3 C 0.9512(14) 0.245(2) 0.7975(8)
C20_3 C 0.9285(9) 0.3664(11) 0.7788(6)
C21_3 C 0.9796(13) 0.4161(15) 0.7799(10)
C22_3 C 0.975(3) 0.475(3) 0.7500
C23_3 C 0.8736(12) 0.3736(12) 0.7500
C24_3 C 0.8239(8) 0.3239(8) 0.7500
C25_3 C 0.9471(11) 0.1537(14) 0.8981(8)
O10_3 O 0.5884(11) 0.4731(15) 0.6111(9)
C37_3 C 0.8107(16) 0.4342(8) 0.6933(11)
C38_3 C 0.8282(14) 0.4192(14) 0.6489(15)
C39_3 C 0.774(2) 0.4245(15) 0.6207(9)
C40_3 C 0.7091(18) 0.4415(9) 0.6299(12)
C41_3 C 0.6915(15) 0.4564(15) 0.6743(15)
C42_3 C 0.745(2) 0.4512(14) 0.7025(8)
C43_3 C 0.8664(11) 0.4285(9) 0.7212(6)
C44_3 C 0.9161(15) 0.4796(13) 0.7201(10)
C45_3 C 0.6537(14) 0.4471(11) 0.6019(8)
C46_3 C 0.9181(18) 0.5330(12) 0.6970(11)
O19_2 O 0.9116(11) 0.9731(15) 0.8889(9)
H4_3 H 0.932637 0.791725 0.990303
H6_3 H 0.905073 0.379802 0.860813
H7_3 H 0.913817 0.285474 0.911889
H9_3 H 0.970474 0.139825 0.816103
H16_3 H 0.961732 0.233235 0.764931
H21_5 H 0.982358 0.581156 0.835642
H22_5 H 0.937627 0.535853 0.795949
H23_5 H 0.935538 0.626988 0.797081
H24_5 H 0.847032 0.274447 0.742887
H25_5 H 0.785431 0.336048 0.726525
H26_5 H 0.799756 0.321724 0.780587
H30_3 H 0.879802 0.405073 0.639187
H31_3 H 0.733235 0.461732 0.735069
H37_5 H 0.916834 0.578699 0.716493
H38_5 H 0.874045 0.5331 0.67614
H39_5 H 0.965124 0.532677 0.678694
H40_3 H 0.785474 0.413817 0.588111
H41_3 H 0.639825 0.470474 0.683897
H2_4 H 0.206231 0.145755 0.0163476
C1_4 C 0.3107(16) 0.0658(8) 0.8067(11)
C2_4 C 0.3282(14) 0.0808(14) 0.8511(15)
C3_4 C 0.274(2) 0.0755(15) 0.8793(9)
C4_4 C 0.2091(18) 0.0585(9) 0.8701(12)
C5_4 C 0.1915(15) 0.0436(15) 0.8257(15)
C6_4 C 0.245(2) 0.0488(14) 0.7975(8)
C7_4 C 0.3664(11) 0.0715(9) 0.7788(6)
C8_4 C 0.4161(15) 0.0204(13) 0.7799(10)
C9_4 C 0.475(3) 0.025(3) 0.7500
C10_4 C 0.3736(12) 0.1264(12) 0.7500
C11_4 C 0.3239(8) 0.1761(8) 0.7500
C12_4 C 0.1537(14) 0.0529(11) 0.8981(8)
C26_4 C 0.5819(18) 0.0330(12) 0.8030(11)
O8_4 O 0.4731(15) 0.4116(11) 0.6111(9)
C27_4 C 0.4342(8) 0.1893(16) 0.6933(11)
C28_4 C 0.4192(14) 0.1718(14) 0.6489(15)
C29_4 C 0.4245(15) 0.226(2) 0.6207(9)
C30_4 C 0.4415(9) 0.2909(18) 0.6299(12)
C31_4 C 0.4564(15) 0.3085(15) 0.6743(15)
C32_4 C 0.4512(14) 0.255(2) 0.7025(8)
C33_4 C 0.4285(9) 0.1336(11) 0.7212(6)
C34_4 C 0.4796(13) 0.0839(15) 0.7201(10)
C35_4 C 0.4471(11) 0.3463(14) 0.6019(8)
C36_4 C 0.5330(12) 0.0819(18) 0.6970(11)
H1_4 H 0.172534 0.159444 0.970882
H3_4 H 0.379802 0.0949266 0.860813
H8_4 H 0.233235 0.0382678 0.764931
H10_6 H 0.581156 0.0176416 0.835642
H11_6 H 0.535853 0.0623729 0.795949
H12_6 H 0.626988 0.0644622 0.797081
H13_6 H 0.274447 0.152968 0.742887
H14_6 H 0.336048 0.214569 0.726525
H15_6 H 0.321724 0.200244 0.780587
H17_4 H 0.413817 0.214526 0.588111
H18_4 H 0.470474 0.360175 0.683897
H19_4 H 0.285474 0.0861826 0.911889
H20_4 H 0.139825 0.0295262 0.816103
H27_4 H 0.405073 0.120198 0.639187
H32_6 H 0.578699 0.0831659 0.716493
H33_6 H 0.5331 0.125955 0.67614
H34_6 H 0.532677 0.0348757 0.678694
H42_4 H 0.461732 0.266765 0.735069
H5_4 H 0.237067 0.978444 0.0286928
C13_4 C 0.4181(18) 0.9670(12) 0.8030(11)
C14_4 C 0.6893(16) 0.9342(8) 0.8067(11)
C15_4 C 0.6718(14) 0.9192(14) 0.8511(15)
C16_4 C 0.726(2) 0.9245(15) 0.8793(9)
C17_4 C 0.7909(18) 0.9415(9) 0.8701(12)
C18_4 C 0.8085(15) 0.9564(15) 0.8257(15)
C19_4 C 0.755(2) 0.9512(14) 0.7975(8)
C20_4 C 0.6336(11) 0.9285(9) 0.7788(6)
C21_4 C 0.5839(15) 0.9796(13) 0.7799(10)
C22_4 C 0.525(3) 0.975(3) 0.7500
C23_4 C 0.6264(12) 0.8736(12) 0.7500
C24_4 C 0.6761(8) 0.8239(8) 0.7500
C25_4 C 0.8463(14) 0.9471(11) 0.8981(8)
O10_4 O 0.5269(15) 0.5884(11) 0.6111(9)
C37_4 C 0.5658(8) 0.8107(16) 0.6933(11)
C38_4 C 0.5808(14) 0.8282(14) 0.6489(15)
C39_4 C 0.5755(15) 0.774(2) 0.6207(9)
C40_4 C 0.5585(9) 0.7091(18) 0.6299(12)
C41_4 C 0.5436(15) 0.6915(15) 0.6743(15)
C42_4 C 0.5488(14) 0.745(2) 0.7025(8)
C43_4 C 0.5715(9) 0.8664(11) 0.7212(6)
C44_4 C 0.5204(13) 0.9161(15) 0.7201(10)
C45_4 C 0.5529(11) 0.6537(14) 0.6019(8)
C46_4 C 0.4670(12) 0.9181(18) 0.6970(11)
H4_4 H 0.208275 0.932637 0.990303
H6_4 H 0.620198 0.905073 0.860813
H7_4 H 0.714526 0.913817 0.911889
H9_4 H 0.860175 0.970474 0.816103
H16_4 H 0.766765 0.961732 0.764931
H21_6 H 0.418844 0.982358 0.835642
H22_6 H 0.464147 0.937627 0.795949
H23_6 H 0.373012 0.935538 0.797081
H24_6 H 0.725553 0.847032 0.742887
H25_6 H 0.663952 0.785431 0.726525
H26_6 H 0.678276 0.799756 0.780587
H30_4 H 0.594927 0.879802 0.639187
H31_4 H 0.538268 0.733235 0.735069
H37_6 H 0.421301 0.916834 0.716493
H38_6 H 0.4669 0.874045 0.67614
H39_6 H 0.467323 0.965124 0.678694
H40_4 H 0.586183 0.785474 0.588111
H41_4 H 0.529526 0.639825 0.683897
H29_4 H 0.762933 0.0215561 0.0286928
H28_4 H 0.791725 0.0673631 0.990303
H36_4 H 0.793769 0.854245 0.0163476
H35_4 H 0.827466 0.840556 0.970882
H13_7 H 0.347032 0.225553 0.757113
H14_7 H 0.285431 0.163952 0.773475
H15_7 H 0.299756 0.178276 0.719413
H21_7 H 0.517642 0.0811559 0.664358
H22_7 H 0.562373 0.0358533 0.704051
H23_7 H 0.564462 0.126988 0.702919
H37_7 H 0.583166 0.078699 0.783507
H38_7 H 0.625955 0.0331005 0.82386
H39_7 H 0.534876 0.0326772 0.821306
H10_7 H 0.482358 0.918844 0.664358
H11_7 H 0.437627 0.964147 0.704051
H12_7 H 0.435538 0.873012 0.702919
H24_7 H 0.652968 0.774447 0.757113
H25_7 H 0.714569 0.836048 0.773475
H26_7 H 0.700244 0.821724 0.719413
H32_7 H 0.416834 0.921301 0.783507
H33_7 H 0.374045 0.9669 0.82386
H34_7 H 0.465124 0.967323 0.821306
H13_8 H 0.225553 0.652968 0.757113
H14_8 H 0.163952 0.714569 0.773475
H15_8 H 0.178276 0.700244 0.719413
H21_8 H 0.0811559 0.482358 0.664358
H22_8 H 0.0358533 0.437627 0.704051
H23_8 H 0.126988 0.435538 0.702919
H37_8 H 0.078699 0.416834 0.783507
H38_8 H 0.0331005 0.374045 0.82386
H39_8 H 0.0326772 0.465124 0.821306
H10_8 H 0.918844 0.517642 0.664358
H11_8 H 0.964147 0.562373 0.704051
H12_8 H 0.873012 0.564462 0.702919
H24_8 H 0.774447 0.347032 0.757113
H25_8 H 0.836048 0.285431 0.773475
H26_8 H 0.821724 0.299756 0.719413
H32_8 H 0.921301 0.583166 0.783507
H33_8 H 0.9669 0.625955 0.82386
H34_8 H 0.967323 0.534876 0.821306
loop_
_geom_bond_atom_site_label_1
_geom_bond_atom_site_label_2
_geom_bond_site_symmetry_1
_geom_bond_site_symmetry_2
O6 C25 1_555 1_555
O7 C25 1_555 1_555
C14 C15 1_555 1_555
C15 C16 1_555 1_555
C16 C17 1_555 1_555
C17 C18 1_555 1_555
C18 C19 1_555 1_555
C19 C14 1_555 1_555
C20 C14 1_555 1_555
C21 C20 1_555 1_555
C23 C20 1_555 1_555
C24 C23 1_555 1_555
C25 C17 1_555 1_555
O10 C45 1_555 1_555
O11 C45 1_555 1_555
C37 C38 1_555 1_555
C38 C39 1_555 1_555
C39 C40 1_555 1_555
C40 C41 1_555 1_555
C41 C42 1_555 1_555
C42 C37 1_555 1_555
C43 C23 1_555 1_555
C44 C22 1_555 1_555
C45 C40 1_555 1_555
C46 C44 1_555 1_555
Hf4 O7 1_555 1_555
Hf8 O11 1_555 1_555
Hf9_2 O6 1_555 1_555
Hf11 O10 1_555 1_555
O19 Hf9 1_555 1_555
Hf9 O16 1_555 1_555
C21 C22 1_555 1_555
C37 C43 1_555 1_555
C43 C44 1_555 1_555
O16 Hf6 1_555 1_555
O5 H4 1_555 1_555
C15 H6 1_555 1_555
C16 H7 1_555 1_555
C18 H9 1_555 1_555
C19 H16 1_555 1_555
C13 H21 1_555 1_555
C13 H22 1_555 1_555
C13 H23 1_555 1_555
C24 H24 1_555 1_555
C24 H25 1_555 1_555
C24 H26 1_555 1_555
C38 H30 1_555 1_555
C42 H31 1_555 1_555
C46 H37 1_555 1_555
C46 H38 1_555 1_555
C46 H39 1_555 1_555
C39 H40 1_555 1_555
C41 H41 1_555 1_555
Hf6_2 O22 1_555 1_555
O5_2 H5 1_555 1_555
Hf4 O12 1_555 1_555
O12 Hf9_2 1_555 1_555
O13 Hf4 1_555 1_555
O13 H35 1_555 1_555
O13_2 Hf4_2 1_555 1_555
O20 Hf4_2 1_555 1_555
O25 Hf4_2 1_555 1_555
O13_2 H36 1_555 1_555
Hf1 O2 1_555 1_555
Hf9_3 O1 1_555 1_555
O1 C12 1_555 1_555
O2 Hf9_3 1_555 1_555
O3 Hf1 1_555 1_555
O4 Hf1 1_555 1_555
C1 C2 1_555 1_555
C2 C3 1_555 1_555
C3 C4 1_555 1_555
C4 C5 1_555 1_555
C5 C6 1_555 1_555
C6 C1 1_555 1_555
C7 C1 1_555 1_555
C8 C7 1_555 1_555
C9 C8 1_555 1_555
C10 C7 1_555 1_555
C11 C10 1_555 1_555
C12 O3 1_555 1_555
O8 C35 1_555 1_555
O9 C35 1_555 1_555
C27 C28 1_555 1_555
C28 C29 1_555 1_555
C29 C30 1_555 1_555
C30 C31 1_555 1_555
C31 C32 1_555 1_555
C32 C27 1_555 1_555
C33 C10 1_555 1_555
C34 C9 1_555 1_555
C35 C30 1_555 1_555
C36 C34 1_555 1_555
Hf7 O9 1_555 1_555
Hf11 O8 1_555 1_555
C4 C12 1_555 1_555
C27 C33 1_555 1_555
C33 C34 1_555 1_555
O4 H1 1_555 1_555
C2 H3 1_555 1_555
C6 H8 1_555 1_555
C26 H10 1_555 1_555
C26 H11 1_555 1_555
C26 H12 1_555 1_555
C11 H13 1_555 1_555
C11 H14 1_555 1_555
C11 H15 1_555 1_555
C29 H17 1_555 1_555
C31 H18 1_555 1_555
C3 H19 1_555 1_555
C5 H20 1_555 1_555
C28 H27 1_555 1_555
C36 H32 1_555 1_555
C36 H33 1_555 1_555
C36 H34 1_555 1_555
C32 H42 1_555 1_555
O4_2 Hf1_2 1_555 1_555
O21 Hf1_2 1_555 1_555
O26 Hf1_2 1_555 1_555
O4_2 H2 1_555 1_555
O15 Hf9_4 1_555 1_555
O18 Hf9_4 1_555 1_555
O15 Hf5 1_555 1_555
O14 H28 1_555 1_555
Hf5_2 O23 1_555 1_555
O14_2 H29 1_555 1_555
O13_3 Hf6 1_555 1_555
O24 Hf6 1_555 1_555
O13_3 H35_2 1_555 1_555
O13_4 Hf6_2 1_555 1_555
O25_2 Hf6_2 1_555 1_555
O13_4 H36_2 1_555 1_555
O14_3 H28_2 1_555 1_555
O14_4 H29_2 1_555 1_555
O19 C25_2 1_555 1_555
O24 C25_2 1_555 1_555
C14_2 C15_2 1_555 1_555
C15_2 C16_2 1_555 1_555
C16_2 C17_2 1_555 1_555
C17_2 C18_2 1_555 1_555
C18_2 C19_2 1_555 1_555
C19_2 C14_2 1_555 1_555
C20_2 C14_2 1_555 1_555
C21_2 C20_2 1_555 1_555
C23_2 C20_2 1_555 1_555
C24_2 C23_2 1_555 1_555
C25_2 C17_2 1_555 1_555
O10_2 C45_2 1_555 1_555
O11_2 C45_2 1_555 1_555
C37_2 C38_2 1_555 1_555
C38_2 C39_2 1_555 1_555
C39_2 C40_2 1_555 1_555
C40_2 C41_2 1_555 1_555
C41_2 C42_2 1_555 1_555
C42_2 C37_2 1_555 1_555
C43_2 C23_2 1_555 1_555
C44_2 C22_2 1_555 1_555
C45_2 C40_2 1_555 1_555
C46_2 C44_2 1_555 1_555
Hf8_2 O11_2 1_555 1_555
Hf11 O10_2 1_555 1_555
C21_2 C22_2 1_555 1_555
C37_2 C43_2 1_555 1_555
C43_2 C44_2 1_555 1_555
O5_3 H4_2 1_555 1_555
C15_2 H6_2 1_555 1_555
C16_2 H7_2 1_555 1_555
C18_2 H9_2 1_555 1_555
C19_2 H16_2 1_555 1_555
C13_2 H21_2 1_555 1_555
C13_2 H22_2 1_555 1_555
C13_2 H23_2 1_555 1_555
C24_2 H24_2 1_555 1_555
C24_2 H25_2 1_555 1_555
C24_2 H26_2 1_555 1_555
C38_2 H30_2 1_555 1_555
C42_2 H31_2 1_555 1_555
C46_2 H37_2 1_555 1_555
C46_2 H38_2 1_555 1_555
C46_2 H39_2 1_555 1_555
C39_2 H40_2 1_555 1_555
C41_2 H41_2 1_555 1_555
O5_4 H5_2 1_555 1_555
O18 C12_2 1_555 1_555
O3_2 Hf5 1_555 1_555
O4_3 Hf5 1_555 1_555
C1_2 C2_2 1_555 1_555
C2_2 C3_2 1_555 1_555
C3_2 C4_2 1_555 1_555
C4_2 C5_2 1_555 1_555
C5_2 C6_2 1_555 1_555
C6_2 C1_2 1_555 1_555
C7_2 C1_2 1_555 1_555
C8_2 C7_2 1_555 1_555
C9_2 C8_2 1_555 1_555
C10_2 C7_2 1_555 1_555
C11_2 C10_2 1_555 1_555
C12_2 O3_2 1_555 1_555
O8_2 C35_2 1_555 1_555
O9_2 C35_2 1_555 1_555
C27_2 C28_2 1_555 1_555
C28_2 C29_2 1_555 1_555
C29_2 C30_2 1_555 1_555
C30_2 C31_2 1_555 1_555
C31_2 C32_2 1_555 1_555
C32_2 C27_2 1_555 1_555
C33_2 C10_2 1_555 1_555
C34_2 C9_2 1_555 1_555
C35_2 C30_2 1_555 1_555
C36_2 C34_2 1_555 1_555
Hf7_2 O9_2 1_555 1_555
Hf11 O8_2 1_555 1_555
C4_2 C12_2 1_555 1_555
C27_2 C33_2 1_555 1_555
C33_2 C34_2 1_555 1_555
O4_3 H1_2 1_555 1_555
C2_2 H3_2 1_555 1_555
C6_2 H8_2 1_555 1_555
C26_2 H10_2 1_555 1_555
C26_2 H11_2 1_555 1_555
C26_2 H12_2 1_555 1_555
C11_2 H13_2 1_555 1_555
C11_2 H14_2 1_555 1_555
C11_2 H15_2 1_555 1_555
C29_2 H17_2 1_555 1_555
C31_2 H18_2 1_555 1_555
C3_2 H19_2 1_555 1_555
C5_2 H20_2 1_555 1_555
C28_2 H27_2 1_555 1_555
C36_2 H32_2 1_555 1_555
C36_2 H33_2 1_555 1_555
C36_2 H34_2 1_555 1_555
C32_2 H42_2 1_555 1_555
O4_4 Hf5_2 1_555 1_555
O26_2 Hf5_2 1_555 1_555
O4_4 H2_2 1_555 1_555
C46_2 H10_3 1_555 1_555
C46_2 H11_3 1_555 1_555
C46_2 H12_3 1_555 1_555
C24_2 H24_3 1_555 1_555
C24_2 H25_3 1_555 1_555
C24_2 H26_3 1_555 1_555
C13_2 H32_3 1_555 1_555
C13_2 H33_3 1_555 1_555
C13_2 H34_3 1_555 1_555
Hf7_2 O2_2 1_555 1_555
O2_2 Hf11 1_555 1_555
O4_5 Hf7_2 1_555 1_555
O5_5 Hf7_2 1_555 1_555
Hf8_2 O12_2 1_555 1_555
O12_2 Hf11 1_555 1_555
O13_5 Hf8_2 1_555 1_555
O14_5 Hf8_2 1_555 1_555
O15_2 Hf11 1_555 1_555
O16_2 Hf7_2 1_555 1_555
Hf7 O2_2 1_555 1_555
Hf8 O12_2 1_555 1_555
O20_2 Hf8_2 1_555 1_555
O21_2 Hf7_2 1_555 1_555
O22_2 Hf7_2 1_555 1_555
O23_2 Hf8_2 1_555 1_555
O25_3 Hf8_2 1_555 1_555
O26_3 Hf7_2 1_555 1_555
Hf11 O16_2 1_555 1_555
Hf8_2 O15_2 1_555 1_555
O15_2 Hf7 1_555 1_555
O16_2 Hf8 1_555 1_555
Hf7 O21_2 1_555 1_555
Hf7 O23_2 1_555 1_555
Hf8 O20_2 1_555 1_555
Hf8 O22_2 1_555 1_555
C11_2 H13_3 1_555 1_555
C11_2 H14_3 1_555 1_555
C11_2 H15_3 1_555 1_555
C36_2 H21_3 1_555 1_555
C36_2 H22_3 1_555 1_555
C36_2 H23_3 1_555 1_555
C26_2 H37_3 1_555 1_555
C26_2 H38_3 1_555 1_555
C26_2 H39_3 1_555 1_555
C46 H10_4 1_555 1_555
C46 H11_4 1_555 1_555
C46 H12_4 1_555 1_555
C24 H24_4 1_555 1_555
C24 H25_4 1_555 1_555
C24 H26_4 1_555 1_555
C13 H32_4 1_555 1_555
C13 H33_4 1_555 1_555
C13 H34_4 1_555 1_555
O4_6 Hf7 1_555 1_555
O5_6 Hf7 1_555 1_555
O13_6 Hf8 1_555 1_555
O14_6 Hf8 1_555 1_555
O25_4 Hf8 1_555 1_555
O26_4 Hf7 1_555 1_555
C11 H13_4 1_555 1_555
C11 H14_4 1_555 1_555
C11 H15_4 1_555 1_555
C36 H21_4 1_555 1_555
C36 H22_4 1_555 1_555
C36 H23_4 1_555 1_555
C26 H37_4 1_555 1_555
C26 H38_4 1_555 1_555
C26 H39_4 1_555 1_555
O5 H29_3 1_555 1_555
O22 Hf2 1_555 1_555
O18_2 Hf2 1_555 1_555
O5_2 H28_3 1_555 1_555
O13 H2_3 1_555 1_555
Hf2_2 O1_2 1_555 1_555
O1_2 C12_3 1_555 1_555
O20 Hf2_2 1_555 1_555
C1_3 C2_3 1_555 1_555
C2_3 C3_3 1_555 1_555
C3_3 C4_3 1_555 1_555
C4_3 C5_3 1_555 1_555
C5_3 C6_3 1_555 1_555
C6_3 C1_3 1_555 1_555
C7_3 C1_3 1_555 1_555
C8_3 C7_3 1_555 1_555
C9_3 C8_3 1_555 1_555
C10_3 C7_3 1_555 1_555
C11_3 C10_3 1_555 1_555
C12_3 O25 1_555 1_555
O8_3 C35_3 1_555 1_555
O25_4 C35_3 1_555 1_555
C27_3 C28_3 1_555 1_555
C28_3 C29_3 1_555 1_555
C29_3 C30_3 1_555 1_555
C30_3 C31_3 1_555 1_555
C31_3 C32_3 1_555 1_555
C32_3 C27_3 1_555 1_555
C33_3 C10_3 1_555 1_555
C34_3 C9_3 1_555 1_555
C35_3 C30_3 1_555 1_555
C36_3 C34_3 1_555 1_555
Hf10 O8_3 1_555 1_555
C4_3 C12_3 1_555 1_555
C27_3 C33_3 1_555 1_555
C33_3 C34_3 1_555 1_555
O13_2 H1_3 1_555 1_555
C2_3 H3_3 1_555 1_555
C6_3 H8_3 1_555 1_555
C26_3 H10_5 1_555 1_555
C26_3 H11_5 1_555 1_555
C26_3 H12_5 1_555 1_555
C11_3 H13_5 1_555 1_555
C11_3 H14_5 1_555 1_555
C11_3 H15_5 1_555 1_555
C29_3 H17_3 1_555 1_555
C31_3 H18_3 1_555 1_555
C3_3 H19_3 1_555 1_555
C5_3 H20_3 1_555 1_555
C28_3 H27_3 1_555 1_555
C36_3 H32_5 1_555 1_555
C36_3 H33_5 1_555 1_555
C36_3 H34_5 1_555 1_555
C32_3 H42_3 1_555 1_555
O4 H36_3 1_555 1_555
O21 Hf2_3 1_555 1_555
O17 Hf2_3 1_555 1_555
O4_2 H35_3 1_555 1_555
O14 H5_3 1_555 1_555
O17 C25_3 1_555 1_555
O26 C25_3 1_555 1_555
C14_3 C15_3 1_555 1_555
C15_3 C16_3 1_555 1_555
C16_3 C17_3 1_555 1_555
C17_3 C18_3 1_555 1_555
C18_3 C19_3 1_555 1_555
C19_3 C14_3 1_555 1_555
C20_3 C14_3 1_555 1_555
C21_3 C20_3 1_555 1_555
C23_3 C20_3 1_555 1_555
C24_3 C23_3 1_555 1_555
C25_3 C17_3 1_555 1_555
O10_3 C45_3 1_555 1_555
O26_4 C45_3 1_555 1_555
C37_3 C38_3 1_555 1_555
C38_3 C39_3 1_555 1_555
C39_3 C40_3 1_555 1_555
C40_3 C41_3 1_555 1_555
C41_3 C42_3 1_555 1_555
C42_3 C37_3 1_555 1_555
C43_3 C23_3 1_555 1_555
C44_3 C22_3 1_555 1_555
C45_3 C40_3 1_555 1_555
C46_3 C44_3 1_555 1_555
Hf10 O10_3 1_555 1_555
O19_2 Hf2_4 1_555 1_555
Hf2_4 O23 1_555 1_555
C21_3 C22_3 1_555 1_555
C37_3 C43_3 1_555 1_555
C43_3 C44_3 1_555 1_555
O14_2 H4_3 1_555 1_555
C15_3 H6_3 1_555 1_555
C16_3 H7_3 1_555 1_555
C18_3 H9_3 1_555 1_555
C19_3 H16_3 1_555 1_555
C13_3 H21_5 1_555 1_555
C13_3 H22_5 1_555 1_555
C13_3 H23_5 1_555 1_555
C24_3 H24_5 1_555 1_555
C24_3 H25_5 1_555 1_555
C24_3 H26_5 1_555 1_555
C38_3 H30_3 1_555 1_555
C42_3 H31_3 1_555 1_555
C46_3 H37_5 1_555 1_555
C46_3 H38_5 1_555 1_555
C46_3 H39_5 1_555 1_555
C39_3 H40_3 1_555 1_555
C41_3 H41_3 1_555 1_555
O13_3 H2_4 1_555 1_555
O18_2 C12_4 1_555 1_555
C1_4 C2_4 1_555 1_555
C2_4 C3_4 1_555 1_555
C3_4 C4_4 1_555 1_555
C4_4 C5_4 1_555 1_555
C5_4 C6_4 1_555 1_555
C6_4 C1_4 1_555 1_555
C7_4 C1_4 1_555 1_555
C8_4 C7_4 1_555 1_555
C9_4 C8_4 1_555 1_555
C10_4 C7_4 1_555 1_555
C11_4 C10_4 1_555 1_555
C12_4 O25_2 1_555 1_555
O8_4 C35_4 1_555 1_555
O25_3 C35_4 1_555 1_555
C27_4 C28_4 1_555 1_555
C28_4 C29_4 1_555 1_555
C29_4 C30_4 1_555 1_555
C30_4 C31_4 1_555 1_555
C31_4 C32_4 1_555 1_555
C32_4 C27_4 1_555 1_555
C33_4 C10_4 1_555 1_555
C34_4 C9_4 1_555 1_555
C35_4 C30_4 1_555 1_555
C36_4 C34_4 1_555 1_555
Hf10 O8_4 1_555 1_555
C4_4 C12_4 1_555 1_555
C27_4 C33_4 1_555 1_555
C33_4 C34_4 1_555 1_555
O13_4 H1_4 1_555 1_555
C2_4 H3_4 1_555 1_555
C6_4 H8_4 1_555 1_555
C26_4 H10_6 1_555 1_555
C26_4 H11_6 1_555 1_555
C26_4 H12_6 1_555 1_555
C11_4 H13_6 1_555 1_555
C11_4 H14_6 1_555 1_555
C11_4 H15_6 1_555 1_555
C29_4 H17_4 1_555 1_555
C31_4 H18_4 1_555 1_555
C3_4 H19_4 1_555 1_555
C5_4 H20_4 1_555 1_555
C28_4 H27_4 1_555 1_555
C36_4 H32_6 1_555 1_555
C36_4 H33_6 1_555 1_555
C36_4 H34_6 1_555 1_555
C32_4 H42_4 1_555 1_555
O14_3 H5_4 1_555 1_555
O19_2 C25_4 1_555 1_555
O26_2 C25_4 1_555 1_555
C14_4 C15_4 1_555 1_555
C15_4 C16_4 1_555 1_555
C16_4 C17_4 1_555 1_555
C17_4 C18_4 1_555 1_555
C18_4 C19_4 1_555 1_555
C19_4 C14_4 1_555 1_555
C20_4 C14_4 1_555 1_555
C21_4 C20_4 1_555 1_555
C23_4 C20_4 1_555 1_555
C24_4 C23_4 1_555 1_555
C25_4 C17_4 1_555 1_555
O10_4 C45_4 1_555 1_555
O26_3 C45_4 1_555 1_555
C37_4 C38_4 1_555 1_555
C38_4 C39_4 1_555 1_555
C39_4 C40_4 1_555 1_555
C40_4 C41_4 1_555 1_555
C41_4 C42_4 1_555 1_555
C42_4 C37_4 1_555 1_555
C43_4 C23_4 1_555 1_555
C44_4 C22_4 1_555 1_555
C45_4 C40_4 1_555 1_555
C46_4 C44_4 1_555 1_555
Hf10 O10_4 1_555 1_555
C21_4 C22_4 1_555 1_555
C37_4 C43_4 1_555 1_555
C43_4 C44_4 1_555 1_555
O14_4 H4_4 1_555 1_555
C15_4 H6_4 1_555 1_555
C16_4 H7_4 1_555 1_555
C18_4 H9_4 1_555 1_555
C19_4 H16_4 1_555 1_555
C13_4 H21_6 1_555 1_555
C13_4 H22_6 1_555 1_555
C13_4 H23_6 1_555 1_555
C24_4 H24_6 1_555 1_555
C24_4 H25_6 1_555 1_555
C24_4 H26_6 1_555 1_555
C38_4 H30_4 1_555 1_555
C42_4 H31_4 1_555 1_555
C46_4 H37_6 1_555 1_555
C46_4 H38_6 1_555 1_555
C46_4 H39_6 1_555 1_555
C39_4 H40_4 1_555 1_555
C41_4 H41_4 1_555 1_555
O5_3 H29_4 1_555 1_555
O5_4 H28_4 1_555 1_555
O4_3 H36_4 1_555 1_555
O4_4 H35_4 1_555 1_555
O20_2 Hf10 1_555 1_555
O21_2 Hf10 1_555 1_555
O22_2 Hf10 1_555 1_555
Hf10 O23_2 1_555 1_555
C11_4 H13_7 1_555 1_555
C11_4 H14_7 1_555 1_555
C11_4 H15_7 1_555 1_555
C36_4 H21_7 1_555 1_555
C36_4 H22_7 1_555 1_555
C36_4 H23_7 1_555 1_555
C26_4 H37_7 1_555 1_555
C26_4 H38_7 1_555 1_555
C26_4 H39_7 1_555 1_555
C46_4 H10_7 1_555 1_555
C46_4 H11_7 1_555 1_555
C46_4 H12_7 1_555 1_555
C24_4 H24_7 1_555 1_555
C24_4 H25_7 1_555 1_555
C24_4 H26_7 1_555 1_555
C13_4 H32_7 1_555 1_555
C13_4 H33_7 1_555 1_555
C13_4 H34_7 1_555 1_555
C11_3 H13_8 1_555 1_555
C11_3 H14_8 1_555 1_555
C11_3 H15_8 1_555 1_555
C36_3 H21_8 1_555 1_555
C36_3 H22_8 1_555 1_555
C36_3 H23_8 1_555 1_555
C26_3 H37_8 1_555 1_555
C26_3 H38_8 1_555 1_555
C26_3 H39_8 1_555 1_555
C46_3 H10_8 1_555 1_555
C46_3 H11_8 1_555 1_555
C46_3 H12_8 1_555 1_555
C24_3 H24_8 1_555 1_555
C24_3 H25_8 1_555 1_555
C24_3 H26_8 1_555 1_555
C13_3 H32_8 1_555 1_555
C13_3 H33_8 1_555 1_555
C13_3 H34_8 1_555 1_555

#END
