
###############################################################################
#
# This file contains modified crystal structure data generated from the
# MOF subset of the Cambridge Structural Database (CSD) v543 
# hosted by the Cambridge Crystallographic Data Centre (CCDC).
#
# This work is licensed under the Creative Commons
# Attribution-NonCommercial-ShareAlike 4.0 International License.
# To view a copy of this license, visit
# http://creativecommons.org/licenses/by-nc-sa/4.0/
# or send a letter to
# Creative Commons, PO Box 1866, Mountain View, CA 94042, USA.
#
# CIF created using the CSD Python API on 29 September 2022
# The structure has been converted into the P1 space group
# The structure has a 3D framework
# The original CSD entry NEVJOP is in the monoclinic crystal system
# The framework has been calculated to contain at least 10.0% void space
# The void calculation uses a probe of radius 1.32A, grid spacing 0.4
# The framework is charged, counterions have been retained in the structure
# H atom positions have been added when not included in the experimental data
#
###############################################################################

data_NEVJOP
_chemical_formula_moiety         '(C108 H84 N16 O38 Zn12 4+)n'
_symmetry_cell_setting           triclinic
_symmetry_space_group_name_H-M   'P 1'
_symmetry_Int_Tables_number      1
_space_group_name_Hall           'P 1'
loop_
_symmetry_equiv_pos_site_id
_symmetry_equiv_pos_as_xyz
1 x,y,z
_cell_length_a                   15.7991(12)
_cell_length_b                   11.4257(6)
_cell_length_c                   18.7582(12)
_cell_angle_alpha                90
_cell_angle_beta                 103.367(4)
_cell_angle_gamma                90
_cell_volume                     3294.42
loop_
_atom_site_label
_atom_site_type_symbol
_atom_site_fract_x
_atom_site_fract_y
_atom_site_fract_z
H8 H 0.1362 0.0429 0.0609
H9 H 0.2700 0.0571 0.0327
H13 H 0.0504 0.0076 0.1383
N2 N 0.29582(16) 0.8878(2) 0.03091(13)
C13 C 0.2611(2) 0.7831(3) 0.03943(18)
H6 H 0.2941 0.7154 0.0343
C14 C 0.1818(2) 0.7674(3) 0.05493(18)
H7 H 0.1603 0.6908 0.0597
C15 C 0.1322(2) 0.8662(3) 0.06372(17)
C16 C 0.1674(2) 0.9737(3) 0.0553(2)
C17 C 0.2476(2) 0.9815(3) 0.03882(19)
C18 C 0.04709(19) 0.8531(3) 0.08440(18)
H10 H 0.0105 0.6966 0.0352
C22 C 0.0180(2) 0.9376(3) 0.1255(2)
Zn16 Zn 0.417044(18) 0.90912(3) 0.000345(15)
O1 O 0.4350(2) 0.0683(3) 0.15127(14)
O4 O 0.64041(12) 0.01903(16) 0.09969(10)
O6 O 0.87804(13) 0.55106(18) 0.24218(11)
O7 O 0.76215(13) 0.62597(17) 0.16366(11)
N1 N 0.58381(14) 0.25067(19) 0.07509(11)
C1 C 0.71241(16) 0.0564(2) 0.13721(12)
C2 C 0.73172(17) 0.1861(2) 0.14186(14)
C3 C 0.81675(18) 0.2161(2) 0.17775(15)
H1 H 0.8579 0.1553 0.1932
C4 C 0.84304(18) 0.3309(2) 0.19149(16)
H2 H 0.9012 0.3488 0.2161
C5 C 0.78297(17) 0.4194(2) 0.16865(13)
C6 C 0.69947(17) 0.3932(2) 0.12995(13)
H3 H 0.6596 0.4550 0.1133
C7 C 0.67270(16) 0.2778(2) 0.11497(12)
C8 C 0.80908(16) 0.5427(2) 0.19198(13)
C9 C 0.53107(18) 0.2132(3) 0.12761(15)
H4 H 0.4952 0.2806 0.1361
H5 H 0.5715 0.1946 0.1750
C10 C 0.47107(18) 0.1088(2) 0.10530(15)
C11 C 0.54125(19) 0.3457(2) 0.02571(15)
H18 H 0.4993 0.3794 0.0519
H19 H 0.5819 0.4016 0.0243
O10 O 0.46111(8) 0.07168(10) 0.03900(7)
O11 O 0.0650(2) 0.0683(3) 0.34873(14)
O13 O 0.04549(13) 0.38014(17) 0.59296(10)
H27 H 0.0048 0.2806 0.3639
C42 C 0.02893(18) 0.1088(2) 0.39470(15)
H37 H 0.0007 0.3794 0.4481
O20 O 0.03889(8) 0.07168(10) 0.46100(7)
Zn8 Zn 0.921018(19) 0.68356(3) 0.306035(16)
Zn10 Zn 0.078982(19) 0.31644(3) 0.693965(16)
Zn12 Zn 0.773749(19) 0.80838(3) 0.170126(16)
Zn3 Zn 0.582956(18) 0.09088(3) 0.999655(15)
O2 O 0.51453(13) 0.20479(16) 0.92611(10)
O3 O 0.45451(13) 0.38014(17) 0.90704(10)
C12 C 0.50007(17) 0.3052(2) 0.94836(15)
Zn9 Zn 0.421018(19) 0.31644(3) 0.806035(16)
N9 N 0.70418(16) 0.1122(2) 0.96909(13)
Zn1 Zn 0.578982(19) 0.68356(3) 0.193965(16)
O5 O 0.77018(12) 0.99103(17) 0.17200(10)
O8 O 0.69669(15) 0.79786(19) 0.06180(11)
N3 N 0.89142(15) 0.8248(2) 0.13143(14)
N4 N 0.46241(16) 0.7020(2) 0.22267(14)
C19 C 0.9946(2) 0.7559(4) 0.0651(2)
C20 C 0.9182(2) 0.7454(3) 0.0899(2)
H11 H 0.8835 0.6775 0.0764
C21 C 0.9421(2) 0.9202(3) 0.1479(2)
H12 H 0.9242 0.9793 0.1769
C23 C 0.4144(2) 0.8002(3) 0.21059(17)
H14 H 0.4387 0.8678 0.1937
C24 C 0.3320(2) 0.8065(3) 0.22169(18)
H15 H 0.3003 0.8778 0.2132
C25 C 0.29515(19) 0.7085(3) 0.24533(18)
C26 C 0.3453(2) 0.6075(4) 0.2594(3)
H16 H 0.3212 0.5383 0.2746
C27 C 0.42860(8) 0.60713(10) 0.25147(7)
H17 H 0.4640 0.5402 0.2661
O9 O 0.66100(8) 0.81008(10) 0.21680(7)
N5 N 0.03759(16) 0.7020(2) 0.27733(14)
C28 C 0.0856(2) 0.8002(3) 0.28941(17)
H20 H 0.0613 0.8678 0.3063
C29 C 0.1680(2) 0.8065(3) 0.27831(18)
H21 H 0.1997 0.8778 0.2868
C30 C 0.20485(19) 0.7085(3) 0.25467(18)
C31 C 0.1547(2) 0.6075(4) 0.2406(3)
H22 H 0.1788 0.5383 0.2254
C32 C 0.07140(8) 0.60713(10) 0.24853(7)
H23 H 0.0360 0.5402 0.2339
Zn14 Zn 0.726251(19) 0.80838(3) 0.329874(16)
Zn18 Zn 0.082956(18) 0.90912(3) 0.499655(15)
O21 O 0.54549(13) 0.61986(17) 0.09296(10)
O24 O 0.62196(13) 0.55106(18) 0.25782(11)
O28 O 0.83900(8) 0.81008(10) 0.28320(7)
H39 H 0.726398 0.839556 0.0280289
H40 H 0.688332 0.714458 0.046955
O29 O 0.53889(8) 0.92832(10) 0.96100(7)
Zn6 Zn 0.917044(18) 0.09088(3) 0.500345(15)
O12 O 0.98547(13) 0.20479(16) 0.57389(10)
O14 O 0.85959(12) 0.01903(16) 0.40031(10)
O17 O 0.73785(13) 0.62597(17) 0.33634(11)
N6 N 0.91619(14) 0.25067(19) 0.42491(11)
C33 C 0.78759(16) 0.0564(2) 0.36279(12)
C34 C 0.76828(17) 0.1861(2) 0.35814(14)
C35 C 0.68325(18) 0.2161(2) 0.32225(15)
H24 H 0.6421 0.1553 0.3068
C36 C 0.65696(18) 0.3309(2) 0.30851(16)
H25 H 0.5988 0.3488 0.2839
C37 C 0.71703(17) 0.4194(2) 0.33135(13)
C38 C 0.80053(17) 0.3932(2) 0.37005(13)
H26 H 0.8404 0.4550 0.3867
C39 C 0.82730(16) 0.2778(2) 0.38503(12)
C40 C 0.69092(16) 0.5427(2) 0.30802(13)
C41 C 0.96893(18) 0.2132(3) 0.37239(15)
H28 H 0.9285 0.1946 0.3250
C43 C 0.95875(19) 0.3457(2) 0.47429(15)
C44 C 0.99993(17) 0.3052(2) 0.55164(15)
H31 H 0.3638 0.0429 0.4391
H32 H 0.2300 0.0571 0.4673
H36 H 0.4496 0.0076 0.3617
H38 H 0.9181 0.4016 0.4757
N10 N 0.79582(16) 0.1122(2) 0.53091(13)
O15 O 0.72982(12) 0.99103(17) 0.32800(10)
O18 O 0.80331(15) 0.79786(19) 0.43820(11)
N7 N 0.20418(16) 0.8878(2) 0.46909(13)
N8 N 0.60858(15) 0.8248(2) 0.36857(14)
C45 C 0.2389(2) 0.7831(3) 0.46057(18)
H29 H 0.2059 0.7154 0.4657
C46 C 0.3182(2) 0.7674(3) 0.44507(18)
H30 H 0.3397 0.6908 0.4403
C47 C 0.3678(2) 0.8662(3) 0.43628(17)
C48 C 0.3326(2) 0.9737(3) 0.4447(2)
C49 C 0.2524(2) 0.9815(3) 0.46118(19)
C50 C 0.45291(19) 0.8531(3) 0.41560(18)
C51 C 0.5054(2) 0.7559(4) 0.4349(2)
H33 H 0.4895 0.6966 0.4648
C52 C 0.5818(2) 0.7454(3) 0.4101(2)
H34 H 0.6165 0.6775 0.4236
C53 C 0.5579(2) 0.9202(3) 0.3521(2)
H35 H 0.5758 0.9793 0.3231
C54 C 0.4820(2) 0.9376(3) 0.3745(2)
O22 O 0.95451(13) 0.61986(17) 0.40704(10)
O30 O 0.96111(8) 0.92832(10) 0.53900(7)
H41 H 0.773602 0.839556 0.471971
H42 H 0.811668 0.714458 0.453045
Zn5 Zn 0.273749(19) 0.19162(3) 0.670126(16)
O15_2 O 0.27018(12) 0.00897(17) 0.67200(10)
O18_2 O 0.19669(15) 0.20214(19) 0.56180(11)
N8_2 N 0.39142(15) 0.1752(2) 0.63143(14)
C45_2 C 0.7611(2) 0.2169(3) 0.53943(18)
H29_2 H 0.7941 0.2846 0.5343
C46_2 C 0.6818(2) 0.2326(3) 0.55493(18)
H30_2 H 0.6603 0.3092 0.5597
C47_2 C 0.6322(2) 0.1338(3) 0.56372(17)
C48_2 C 0.6674(2) 0.0263(3) 0.5553(2)
C49_2 C 0.7476(2) 0.0185(3) 0.53882(19)
C50_2 C 0.54709(19) 0.1469(3) 0.58440(18)
C51_2 C 0.4946(2) 0.2441(4) 0.5651(2)
H33_2 H 0.5105 0.3034 0.5352
C52_2 C 0.4182(2) 0.2546(3) 0.5899(2)
H34_2 H 0.3835 0.3225 0.5764
C53_2 C 0.4421(2) 0.0798(3) 0.6479(2)
H35_2 H 0.4242 0.0207 0.6769
C54_2 C 0.5180(2) 0.0624(3) 0.6255(2)
O19 O 0.16100(8) 0.18992(10) 0.71680(7)
Zn11 Zn 0.226251(19) 0.19162(3) 0.829874(16)
O23 O 0.12196(13) 0.44894(18) 0.75782(11)
O26 O 0.26215(13) 0.37403(17) 0.66366(11)
O27 O 0.33900(8) 0.18992(10) 0.78320(7)
H41_2 H 0.226398 0.160444 0.528029
H42_2 H 0.188332 0.285542 0.546955
O12_2 O 0.01453(13) 0.79521(16) 0.42611(10)
O14_2 O 0.14041(12) 0.98097(16) 0.59969(10)
O16 O 0.37804(13) 0.44894(18) 0.74218(11)
N6_2 N 0.08381(14) 0.74933(19) 0.57509(11)
C33_2 C 0.21241(16) 0.9436(2) 0.63721(12)
C34_2 C 0.23172(17) 0.8139(2) 0.64186(14)
C35_2 C 0.31675(18) 0.7839(2) 0.67775(15)
H24_2 H 0.3579 0.8447 0.6932
C36_2 C 0.34304(18) 0.6691(2) 0.69149(16)
H25_2 H 0.4012 0.6512 0.7161
C37_2 C 0.28297(17) 0.5806(2) 0.66865(13)
C38_2 C 0.19947(17) 0.6068(2) 0.62995(13)
H26_2 H 0.1596 0.5450 0.6133
C39_2 C 0.17270(16) 0.7222(2) 0.61497(12)
C40_2 C 0.30908(16) 0.4573(2) 0.69198(13)
C41_2 C 0.03107(18) 0.7868(3) 0.62761(15)
H28_2 H 0.0715 0.8054 0.6750
C43_2 C 0.04125(19) 0.6543(2) 0.52571(15)
C44_2 C 0.00007(17) 0.6948(2) 0.44836(15)
H31_2 H 0.6362 0.9571 0.5609
H32_2 H 0.7700 0.9429 0.5327
H36_2 H 0.5504 0.9924 0.6383
H38_2 H 0.0819 0.5984 0.5243
O5_2 O 0.22982(12) 0.00897(17) 0.82800(10)
O8_2 O 0.30331(15) 0.20214(19) 0.93820(11)
N3_2 N 0.10858(15) 0.1752(2) 0.86857(14)
N4_2 N 0.53759(16) 0.2980(2) 0.77733(14)
C19_2 C 0.0054(2) 0.2441(4) 0.9349(2)
C20_2 C 0.0818(2) 0.2546(3) 0.9101(2)
H11_2 H 0.1165 0.3225 0.9236
C21_2 C 0.0579(2) 0.0798(3) 0.8521(2)
H12_2 H 0.0758 0.0207 0.8231
C23_2 C 0.5856(2) 0.1998(3) 0.78941(17)
H14_2 H 0.5613 0.1322 0.8063
C24_2 C 0.6680(2) 0.1935(3) 0.77831(18)
H15_2 H 0.6997 0.1222 0.7868
C25_2 C 0.70485(19) 0.2915(3) 0.75467(18)
C26_2 C 0.6547(2) 0.3925(4) 0.7406(3)
H16_2 H 0.6788 0.4617 0.7254
C27_2 C 0.57140(8) 0.39287(10) 0.74853(7)
H17_2 H 0.5360 0.4598 0.7339
N5_2 N 0.96241(16) 0.2980(2) 0.72267(14)
C28_2 C 0.9144(2) 0.1998(3) 0.71059(17)
H20_2 H 0.9387 0.1322 0.6937
C29_2 C 0.8320(2) 0.1935(3) 0.72169(18)
H21_2 H 0.8003 0.1222 0.7132
C30_2 C 0.79515(19) 0.2915(3) 0.74533(18)
C31_2 C 0.8453(2) 0.3925(4) 0.7594(3)
H22_2 H 0.8212 0.4617 0.7746
C32_2 C 0.92860(8) 0.39287(10) 0.75147(7)
H23_2 H 0.9640 0.4598 0.7661
O25 O 0.23785(13) 0.37403(17) 0.83634(11)
H39_2 H 0.273602 0.160444 0.971971
H40_2 H 0.311668 0.285542 0.953045
O2_2 O 0.48547(13) 0.79521(16) 0.07389(10)
C12_2 C 0.49993(17) 0.6948(2) 0.05164(15)
O1_2 O 0.5650(2) 0.9317(3) 0.84873(14)
O4_2 O 0.35959(12) 0.98097(16) 0.90031(10)
N1_2 N 0.41619(14) 0.74933(19) 0.92491(11)
C1_2 C 0.28759(16) 0.9436(2) 0.86279(12)
C2_2 C 0.26828(17) 0.8139(2) 0.85814(14)
C3_2 C 0.18325(18) 0.7839(2) 0.82225(15)
H1_2 H 0.1421 0.8447 0.8068
C4_2 C 0.15696(18) 0.6691(2) 0.80851(16)
H2_2 H 0.0988 0.6512 0.7839
C5_2 C 0.21703(17) 0.5806(2) 0.83135(13)
C6_2 C 0.30053(17) 0.6068(2) 0.87005(13)
H3_2 H 0.3404 0.5450 0.8867
C7_2 C 0.32730(16) 0.7222(2) 0.88503(12)
C8_2 C 0.19092(16) 0.4573(2) 0.80802(13)
C9_2 C 0.46893(18) 0.7868(3) 0.87239(15)
H4_2 H 0.5048 0.7194 0.8639
H5_2 H 0.4285 0.8054 0.8250
C10_2 C 0.52893(18) 0.8912(2) 0.89470(15)
C11_2 C 0.45875(19) 0.6543(2) 0.97429(15)
H18_2 H 0.5007 0.6206 0.9481
H19_2 H 0.4181 0.5984 0.9757
O11_2 O 0.9350(2) 0.9317(3) 0.65127(14)
H27_2 H 0.9952 0.7194 0.6361
C42_2 C 0.97107(18) 0.8912(2) 0.60530(15)
H37_2 H 0.9993 0.6206 0.5519
C13_2 C 0.7389(2) 0.2169(3) 0.96057(18)
H6_2 H 0.7059 0.2846 0.9657
C14_2 C 0.8182(2) 0.2326(3) 0.94507(18)
H7_2 H 0.8397 0.3092 0.9403
C15_2 C 0.8678(2) 0.1338(3) 0.93628(17)
C16_2 C 0.8326(2) 0.0263(3) 0.9447(2)
C17_2 C 0.7524(2) 0.0185(3) 0.96118(19)
C18_2 C 0.95291(19) 0.1469(3) 0.91560(18)
H10_2 H 0.9895 0.3034 0.9648
C22_2 C 0.9820(2) 0.0624(3) 0.8745(2)
H8_2 H 0.8638 0.9571 0.9391
H9_2 H 0.7300 0.9429 0.9673
H13_2 H 0.9496 0.9924 0.8617
loop_
_geom_bond_atom_site_label_1
_geom_bond_atom_site_label_2
_geom_bond_site_symmetry_1
_geom_bond_site_symmetry_2
N2 C13 1_555 1_555
C13 H6 1_555 1_555
C14 C13 1_555 1_555
H7 C14 1_555 1_555
C15 C14 1_555 1_555
C16 C15 1_555 1_555
C17 N2 1_555 1_555
C18 C15 1_555 1_555
C22 C18 1_555 1_555
Zn16 N2 1_555 1_555
C16 C17 1_555 1_555
O1 C10 1_555 1_555
O6 C8 1_555 1_555
O7 C8 1_555 1_555
C1 O4 1_555 1_555
C2 C1 1_555 1_555
C3 C2 1_555 1_555
H1 C3 1_555 1_555
C4 C3 1_555 1_555
H2 C4 1_555 1_555
C5 C4 1_555 1_555
C6 C5 1_555 1_555
H3 C6 1_555 1_555
C7 N1 1_555 1_555
C8 C5 1_555 1_555
C9 N1 1_555 1_555
H4 C9 1_555 1_555
H5 C9 1_555 1_555
C10 C9 1_555 1_555
C11 N1 1_555 1_555
H18 C11 1_555 1_555
H19 C11 1_555 1_555
O11 C42 1_555 1_555
Zn8 O6 1_555 1_555
Zn10 O13 1_555 1_555
Zn12 O7 1_555 1_555
C2 C7 1_555 1_555
C6 C7 1_555 1_555
C10 O10 1_555 1_555
C42 O20 1_555 1_555
Zn3 O2 1_555 1_555
O2 C12 1_555 1_555
O3 C12 1_555 1_555
Zn9 O3 1_555 1_555
N9 Zn3 1_555 1_555
Zn1 N4 1_555 1_555
Zn12 O5 1_555 1_555
O8 Zn12 1_555 1_555
N3 Zn12 1_555 1_555
N4 C23 1_555 1_555
C20 N3 1_555 1_555
H11 C20 1_555 1_555
C21 N3 1_555 1_555
H12 C21 1_555 1_555
C23 H14 1_555 1_555
C24 C23 1_555 1_555
H15 C24 1_555 1_555
C25 C24 1_555 1_555
C26 C25 1_555 1_555
H16 C26 1_555 1_555
C27 N4 1_555 1_555
H17 C27 1_555 1_555
O9 Zn1 1_555 1_555
N5 C28 1_555 1_555
C28 H20 1_555 1_555
C29 C28 1_555 1_555
H21 C29 1_555 1_555
C30 C25 1_555 1_555
C31 C30 1_555 1_555
H22 C31 1_555 1_555
C32 N5 1_555 1_555
H23 C32 1_555 1_555
Zn14 O9 1_555 1_555
O21 Zn1 1_555 1_555
O24 Zn1 1_555 1_555
O28 Zn12 1_555 1_555
Zn12 O9 1_555 1_555
C19 C20 1_555 1_555
C26 C27 1_555 1_555
C29 C30 1_555 1_555
C31 C32 1_555 1_555
Zn14 O28 1_555 1_555
O8 H39 1_555 1_555
O8 H40 1_555 1_555
Zn6 O12 1_555 1_555
O12 C44 1_555 1_555
O14 Zn6 1_555 1_555
O24 C40 1_555 1_555
O17 C40 1_555 1_555
N6 Zn6 1_555 1_555
C33 O14 1_555 1_555
C34 C33 1_555 1_555
C35 C34 1_555 1_555
H24 C35 1_555 1_555
C36 C35 1_555 1_555
H25 C36 1_555 1_555
C37 C36 1_555 1_555
C38 C37 1_555 1_555
H26 C38 1_555 1_555
C39 N6 1_555 1_555
C40 C37 1_555 1_555
C41 N6 1_555 1_555
H28 C41 1_555 1_555
C43 N6 1_555 1_555
C44 C43 1_555 1_555
H38 C43 1_555 1_555
Zn14 O17 1_555 1_555
N10 Zn6 1_555 1_555
C34 C39 1_555 1_555
C38 C39 1_555 1_555
Zn14 O15 1_555 1_555
O18 Zn14 1_555 1_555
N7 C45 1_555 1_555
N8 Zn14 1_555 1_555
C45 H29 1_555 1_555
C46 C45 1_555 1_555
H30 C46 1_555 1_555
C47 C46 1_555 1_555
C48 C47 1_555 1_555
C49 N7 1_555 1_555
C50 C47 1_555 1_555
C51 C50 1_555 1_555
H33 C51 1_555 1_555
C52 N8 1_555 1_555
H34 C52 1_555 1_555
C53 N8 1_555 1_555
H35 C53 1_555 1_555
C54 C50 1_555 1_555
O28 Zn8 1_555 1_555
Zn18 N7 1_555 1_555
O22 Zn8 1_555 1_555
C48 C49 1_555 1_555
C51 C52 1_555 1_555
C53 C54 1_555 1_555
O18 H41 1_555 1_555
O18 H42 1_555 1_555
Zn5 O15_2 1_555 1_555
O18_2 Zn5 1_555 1_555
N10 C45_2 1_555 1_555
N8_2 Zn5 1_555 1_555
C45_2 H29_2 1_555 1_555
C46_2 C45_2 1_555 1_555
H30_2 C46_2 1_555 1_555
C47_2 C46_2 1_555 1_555
C48_2 C47_2 1_555 1_555
C49_2 N10 1_555 1_555
C50_2 C47_2 1_555 1_555
C51_2 C50_2 1_555 1_555
H33_2 C51_2 1_555 1_555
C52_2 N8_2 1_555 1_555
H34_2 C52_2 1_555 1_555
C53_2 N8_2 1_555 1_555
H35_2 C53_2 1_555 1_555
C54_2 C50_2 1_555 1_555
O19 Zn10 1_555 1_555
Zn11 O19 1_555 1_555
O23 Zn10 1_555 1_555
O26 Zn5 1_555 1_555
O27 Zn5 1_555 1_555
Zn5 O19 1_555 1_555
C48_2 C49_2 1_555 1_555
C51_2 C52_2 1_555 1_555
C53_2 C54_2 1_555 1_555
Zn11 O27 1_555 1_555
O18_2 H41_2 1_555 1_555
O18_2 H42_2 1_555 1_555
Zn18 O12_2 1_555 1_555
O12_2 C44_2 1_555 1_555
O14_2 Zn18 1_555 1_555
O16 C40_2 1_555 1_555
O26 C40_2 1_555 1_555
N6_2 Zn18 1_555 1_555
C33_2 O14_2 1_555 1_555
C34_2 C33_2 1_555 1_555
C35_2 C34_2 1_555 1_555
H24_2 C35_2 1_555 1_555
C36_2 C35_2 1_555 1_555
H25_2 C36_2 1_555 1_555
C37_2 C36_2 1_555 1_555
C38_2 C37_2 1_555 1_555
H26_2 C38_2 1_555 1_555
C39_2 N6_2 1_555 1_555
C40_2 C37_2 1_555 1_555
C41_2 N6_2 1_555 1_555
H28_2 C41_2 1_555 1_555
C43_2 N6_2 1_555 1_555
C44_2 C43_2 1_555 1_555
H38_2 C43_2 1_555 1_555
Zn9 O16 1_555 1_555
C34_2 C39_2 1_555 1_555
C38_2 C39_2 1_555 1_555
Zn9 N4_2 1_555 1_555
Zn11 O5_2 1_555 1_555
O8_2 Zn11 1_555 1_555
N3_2 Zn11 1_555 1_555
N4_2 C23_2 1_555 1_555
C20_2 N3_2 1_555 1_555
H11_2 C20_2 1_555 1_555
C21_2 N3_2 1_555 1_555
H12_2 C21_2 1_555 1_555
C23_2 H14_2 1_555 1_555
C24_2 C23_2 1_555 1_555
H15_2 C24_2 1_555 1_555
C25_2 C24_2 1_555 1_555
C26_2 C25_2 1_555 1_555
H16_2 C26_2 1_555 1_555
C27_2 N4_2 1_555 1_555
H17_2 C27_2 1_555 1_555
O27 Zn9 1_555 1_555
N5_2 C28_2 1_555 1_555
C28_2 H20_2 1_555 1_555
C29_2 C28_2 1_555 1_555
H21_2 C29_2 1_555 1_555
C30_2 C25_2 1_555 1_555
C31_2 C30_2 1_555 1_555
H22_2 C31_2 1_555 1_555
C32_2 N5_2 1_555 1_555
H23_2 C32_2 1_555 1_555
O25 Zn11 1_555 1_555
C19_2 C20_2 1_555 1_555
C26_2 C27_2 1_555 1_555
C29_2 C30_2 1_555 1_555
C31_2 C32_2 1_555 1_555
O8_2 H39_2 1_555 1_555
O8_2 H40_2 1_555 1_555
Zn16 O2_2 1_555 1_555
O2_2 C12_2 1_555 1_555
O21 C12_2 1_555 1_555
O1_2 C10_2 1_555 1_555
O23 C8_2 1_555 1_555
O25 C8_2 1_555 1_555
C1_2 O4_2 1_555 1_555
C2_2 C1_2 1_555 1_555
C3_2 C2_2 1_555 1_555
H1_2 C3_2 1_555 1_555
C4_2 C3_2 1_555 1_555
H2_2 C4_2 1_555 1_555
C5_2 C4_2 1_555 1_555
C6_2 C5_2 1_555 1_555
H3_2 C6_2 1_555 1_555
C7_2 N1_2 1_555 1_555
C8_2 C5_2 1_555 1_555
C9_2 N1_2 1_555 1_555
H4_2 C9_2 1_555 1_555
H5_2 C9_2 1_555 1_555
C10_2 C9_2 1_555 1_555
C11_2 N1_2 1_555 1_555
H18_2 C11_2 1_555 1_555
H19_2 C11_2 1_555 1_555
O11_2 C42_2 1_555 1_555
C2_2 C7_2 1_555 1_555
C6_2 C7_2 1_555 1_555
C10_2 O29 1_555 1_555
C42_2 O30 1_555 1_555
N9 C13_2 1_555 1_555
C13_2 H6_2 1_555 1_555
C14_2 C13_2 1_555 1_555
H7_2 C14_2 1_555 1_555
C15_2 C14_2 1_555 1_555
C16_2 C15_2 1_555 1_555
C17_2 N9 1_555 1_555
C18_2 C15_2 1_555 1_555
C22_2 C18_2 1_555 1_555
C16_2 C17_2 1_555 1_555

#END
