
###############################################################################
#
# This file contains modified crystal structure data generated from the
# MOF subset of the Cambridge Structural Database (CSD) v543 
# hosted by the Cambridge Crystallographic Data Centre (CCDC).
#
# This work is licensed under the Creative Commons
# Attribution-NonCommercial-ShareAlike 4.0 International License.
# To view a copy of this license, visit
# http://creativecommons.org/licenses/by-nc-sa/4.0/
# or send a letter to
# Creative Commons, PO Box 1866, Mountain View, CA 94042, USA.
#
# CIF created using the CSD Python API on 29 September 2022
# The structure has been converted into the P1 space group
# The structure has a 3D framework
# The original CSD entry NEVJEF is in the monoclinic crystal system
# The framework has been calculated to contain at least 10.0% void space
# The void calculation uses a probe of radius 1.32A, grid spacing 0.4
# H atom positions have been added when not included in the experimental data
#
###############################################################################

data_NEVJEF
_chemical_formula_moiety         '(C136 H120 Cd16 N14 O76)n'
_symmetry_cell_setting           triclinic
_symmetry_space_group_name_H-M   'P 1'
_symmetry_Int_Tables_number      1
_space_group_name_Hall           'P 1'
loop_
_symmetry_equiv_pos_site_id
_symmetry_equiv_pos_as_xyz
1 x,y,z
_cell_length_a                   18.0861(6)
_cell_length_b                   14.2083(3)
_cell_length_c                   19.2980(5)
_cell_angle_alpha                90
_cell_angle_beta                 97.836(2)
_cell_angle_gamma                90
_cell_volume                     4912.75
loop_
_atom_site_label
_atom_site_type_symbol
_atom_site_fract_x
_atom_site_fract_y
_atom_site_fract_z
O3 O 0.0954(3) 0.1080(6) 0.8337(3)
O4 O 0.2156(3) 0.1218(4) 0.8559(3)
C4 C 0.1053(4) 0.0231(5) 0.7024(3)
H2 H 0.0565 0.0361 0.7128
C5 C 0.1677(4) 0.0442(4) 0.7502(3)
O6 O 0.4179(2) 0.0187(3) 0.50077(18)
C6 C 0.1582(5) 0.0945(5) 0.8185(3)
C7 C 0.2390(3) 0.0267(4) 0.7345(3)
H3 H 0.2810 0.0413 0.7680
C9 C 0.3396(3) 0.0261(3) 0.5905(2)
H4 H 0.3616 0.0874 0.6065
H5 H 0.2924 0.0386 0.5595
H6 H 0.3787 0.0411 0.7348
Cd7 Cd 0.16340(2) 0.20498(3) 0.937160(19)
Cd10 Cd 0.51193(2) 0.13352(3) 0.52204(2)
O24 O 0.5821(2) 0.0187(3) 0.99923(18)
Cd3 Cd 0.51193(2) 0.86648(3) 0.02204(2)
O9 O 0.4235(3) 0.7526(3) 0.0634(2)
O11 O 0.1923(3) 0.3654(4) 0.0135(3)
C13 C 0.4145(3) 0.7174(4) 0.0039(3)
C15 C 0.3192(4) 0.6099(4) 0.0357(3)
H8 H 0.3134 0.6540 0.0716
C16 C 0.2748(4) 0.5308(4) 0.0285(3)
H9 H 0.2384 0.5209 0.0589
O19 O 0.5921(3) 0.7501(4) 0.0649(3)
O20 O 0.5237(3) 0.9213(3) 0.1323(2)
C30 C 0.0680(4) 0.8394(6) 0.0082(4)
H19 H 0.1061 0.8833 0.0242
C31 C 0.0023(4) 0.8379(7) 0.0380(5)
O25 O 0.4179(2) 0.9813(3) 0.00077(18)
H25 H 0.54255 0.870327 0.165254
H26 H 0.559417 0.974736 0.137307
H29 H 0.578314 0.690602 0.0393699
H30 H 0.64383 0.767958 0.0585457
Cd1 Cd 0.16340(2) 0.79502(3) 0.437160(19)
O1 O 0.2333(2) 0.8484(3) 0.54851(19)
N1 N 0.3234(2) 0.9709(3) 0.6520(2)
C1 C 0.1905(3) 0.9191(4) 0.5528(3)
Cd2 Cd 0.32912(2) 0.79813(3) 0.624455(19)
O2 O 0.1485(2) 0.9485(3) 0.50154(19)
N2 N 0.4376(2) 0.5740(3) 0.8929(2)
C2 C 0.1867(3) 0.9650(3) 0.6227(2)
N3 N 0.2815(2) 0.7578(3) 0.8673(3)
C3 C 0.1159(3) 0.9828(4) 0.6395(3)
H1 H 0.0736 0.9667 0.6069
Cd4 Cd 0.400257(19) 0.72986(2) 0.835553(18)
O5 O 0.4098(2) 0.8908(3) 0.5632(2)
O7 O 0.3652(2) 0.8214(2) 0.73912(18)
O8 O 0.4185(2) 0.9114(3) 0.82254(19)
C8 C 0.2499(3) 0.9885(3) 0.6710(2)
O10 O 0.4402(2) 0.7585(2) 0.95331(18)
C10 C 0.3931(3) 0.9747(3) 0.5493(2)
C11 C 0.3852(3) 0.9814(3) 0.7098(3)
H7 H 0.4329 0.9852 0.6903
O12 O 0.2510(3) 0.3170(3) 0.9294(3)
C12 C 0.3890(3) 0.9011(4) 0.7612(3)
O13 O 0.5277(2) 0.7077(3) 0.8424(2)
O14 O 0.6208(2) 0.6807(3) 0.9261(2)
C14 C 0.3724(3) 0.6264(3) 0.9913(3)
O15 O 0.3457(2) 0.6104(3) 0.7678(2)
O16 O 0.3509(4) 0.4624(4) 0.7357(4)
O17 O 0.2487(3) 0.6864(3) 0.6608(2)
C17 C 0.2834(3) 0.4664(4) 0.9775(3)
O18 O 0.1007(6) 0.6782(8) 0.3483(6)
C18 C 0.2379(3) 0.3769(4) 0.9720(3)
C19 C 0.3360(3) 0.4815(3) 0.9326(3)
H10 H 0.3406 0.4371 0.8966
C20 C 0.3824(3) 0.5602(3) 0.9391(3)
C21 C 0.5145(3) 0.5874(4) 0.9278(3)
H11 H 0.5423 0.5277 0.9258
H12 H 0.5131 0.6024 0.9777
C22 C 0.5559(3) 0.6650(3) 0.8953(3)
C23 C 0.4361(3) 0.5094(4) 0.8329(3)
H13 H 0.4325 0.4439 0.8497
H14 H 0.4837 0.5153 0.8133
C24 C 0.3719(4) 0.5272(4) 0.7749(3)
C25 C 0.2637(3) 0.8365(4) 0.8995(3)
H15 H 0.2986 0.8868 0.9040
C26 C 0.1976(4) 0.8484(5) 0.9264(4)
H16 H 0.1863 0.9068 0.9466
C27 C 0.1474(3) 0.7733(4) 0.9236(4)
C28 C 0.1663(3) 0.6917(5) 0.8914(4)
H17 H 0.1337 0.6390 0.8881
C29 C 0.2327(3) 0.6871(4) 0.8639(4)
H18 H 0.2443 0.6305 0.8415
C33 C 0.0156(5) 0.7257(8) 0.9304(6)
H22 H 0.0162 0.6879 0.8898
C34 C 0.0777(3) 0.7780(4) 0.9561(4)
Cd8 Cd 0.67088(2) 0.79813(3) 0.875545(19)
Cd9 Cd 0.48807(2) 0.86648(3) 0.47796(2)
O21 O 0.0954(3) 0.8920(6) 0.3337(3)
O22 O 0.2156(3) 0.8782(4) 0.3559(3)
N5 N 0.0531(3) 0.7809(3) 0.4812(3)
O23 O 0.5902(2) 0.8908(3) 0.9368(2)
O26 O 0.1923(3) 0.6346(4) 0.5135(3)
O27 O 0.2510(3) 0.6830(3) 0.4294(3)
O28 O 0.3792(2) 0.6807(3) 0.5739(2)
H23 H 0.0605214 0.644516 0.368487
H24 H 0.0788893 0.712333 0.305437
H27 H 0.22928 0.64553 0.620673
H28 H 0.276073 0.647326 0.698565
N4 N 0.9469(3) 0.7809(3) 0.0188(3)
H20 H 0.9974 0.8811 0.0747
Cd5 Cd 0.83660(2) 0.79502(3) 0.062840(19)
H20_2 H 0.0026 0.8811 0.4253
C32 C 0.0466(5) 0.7282(7) 0.5368(6)
H21 H 0.0878 0.6899 0.5548
O3_2 O 0.9046(3) 0.1080(6) 0.6663(3)
O4_2 O 0.7844(3) 0.1218(4) 0.6441(3)
C4_2 C 0.8947(4) 0.0231(5) 0.7976(3)
H2_2 H 0.9435 0.0361 0.7872
C5_2 C 0.8323(4) 0.0442(4) 0.7498(3)
C6_2 C 0.8418(5) 0.0945(5) 0.6815(3)
C7_2 C 0.7610(3) 0.0267(4) 0.7655(3)
H3_2 H 0.7190 0.0413 0.7320
C9_2 C 0.6604(3) 0.0261(3) 0.9095(2)
H4_2 H 0.6384 0.0874 0.8935
H5_2 H 0.7076 0.0386 0.9405
H6_2 H 0.6213 0.0411 0.7652
Cd7_2 Cd 0.83660(2) 0.20498(3) 0.562840(19)
Cd10_2 Cd 0.48807(2) 0.13352(3) 0.97796(2)
O18_2 O 0.8993(6) 0.6782(8) 0.1517(6)
O21_2 O 0.9046(3) 0.8920(6) 0.1663(3)
O22_2 O 0.7844(3) 0.8782(4) 0.1441(3)
O27_2 O 0.7490(3) 0.6830(3) 0.0706(3)
H23_2 H 0.939479 0.644516 0.131513
H24_2 H 0.921111 0.712333 0.194563
O1_2 O 0.7667(2) 0.8484(3) 0.95149(19)
N1_2 N 0.6766(2) 0.9709(3) 0.8480(2)
C1_2 C 0.8095(3) 0.9191(4) 0.9472(3)
O2_2 O 0.8515(2) 0.9485(3) 0.99846(19)
N2_2 N 0.5624(2) 0.5740(3) 0.6071(2)
C2_2 C 0.8133(3) 0.9650(3) 0.8773(2)
N3_2 N 0.7185(2) 0.7578(3) 0.6327(3)
C3_2 C 0.8841(3) 0.9828(4) 0.8605(3)
H1_2 H 0.9264 0.9667 0.8931
Cd4_2 Cd 0.599743(19) 0.72986(2) 0.664447(18)
O7_2 O 0.6348(2) 0.8214(2) 0.76088(18)
O8_2 O 0.5815(2) 0.9114(3) 0.67746(19)
C8_2 C 0.7501(3) 0.9885(3) 0.8290(2)
O9_2 O 0.5765(3) 0.7526(3) 0.4366(2)
O10_2 O 0.5598(2) 0.7585(2) 0.54669(18)
C10_2 C 0.6069(3) 0.9747(3) 0.9507(2)
O11_2 O 0.8077(3) 0.3654(4) 0.4865(3)
C11_2 C 0.6148(3) 0.9814(3) 0.7902(3)
H7_2 H 0.5671 0.9852 0.8097
O12_2 O 0.7490(3) 0.3170(3) 0.5706(3)
C12_2 C 0.6110(3) 0.9011(4) 0.7388(3)
O13_2 O 0.4723(2) 0.7077(3) 0.6576(2)
C13_2 C 0.5855(3) 0.7174(4) 0.4961(3)
C14_2 C 0.6276(3) 0.6264(3) 0.5087(3)
O15_2 O 0.6543(2) 0.6104(3) 0.7322(2)
C15_2 C 0.6808(4) 0.6099(4) 0.4643(3)
H8_2 H 0.6866 0.6540 0.4284
O16_2 O 0.6491(4) 0.4624(4) 0.7643(4)
C16_2 C 0.7252(4) 0.5308(4) 0.4715(3)
H9_2 H 0.7616 0.5209 0.4411
O17_2 O 0.7513(3) 0.6864(3) 0.8392(2)
C17_2 C 0.7166(3) 0.4664(4) 0.5225(3)
C18_2 C 0.7621(3) 0.3769(4) 0.5280(3)
O19_2 O 0.4079(3) 0.7501(4) 0.4351(3)
C19_2 C 0.6640(3) 0.4815(3) 0.5674(3)
H10_2 H 0.6594 0.4371 0.6034
O20_2 O 0.4763(3) 0.9213(3) 0.3677(2)
C20_2 C 0.6176(3) 0.5602(3) 0.5609(3)
C21_2 C 0.4855(3) 0.5874(4) 0.5722(3)
H11_2 H 0.4577 0.5277 0.5742
H12_2 H 0.4869 0.6024 0.5223
C22_2 C 0.4441(3) 0.6650(3) 0.6047(3)
C23_2 C 0.5639(3) 0.5094(4) 0.6671(3)
H13_2 H 0.5675 0.4439 0.6503
H14_2 H 0.5163 0.5153 0.6867
C24_2 C 0.6281(4) 0.5272(4) 0.7251(3)
C25_2 C 0.7363(3) 0.8365(4) 0.6005(3)
H15_2 H 0.7014 0.8868 0.5960
C26_2 C 0.8024(4) 0.8484(5) 0.5736(4)
H16_2 H 0.8137 0.9068 0.5534
C27_2 C 0.8526(3) 0.7733(4) 0.5764(4)
C28_2 C 0.8337(3) 0.6917(5) 0.6086(4)
H17_2 H 0.8663 0.6390 0.6119
C29_2 C 0.7673(3) 0.6871(4) 0.6361(4)
H18_2 H 0.7557 0.6305 0.6585
C30_2 C 0.9320(4) 0.8394(6) 0.4918(4)
H19_2 H 0.8939 0.8833 0.4758
C31_2 C 0.9977(4) 0.8379(7) 0.4620(5)
C33_2 C 0.9844(5) 0.7257(8) 0.5696(6)
H22_2 H 0.9838 0.6879 0.6102
C34_2 C 0.9223(3) 0.7780(4) 0.5439(4)
O25_2 O 0.5821(2) 0.9813(3) 0.49923(18)
O26_2 O 0.8077(3) 0.6346(4) 0.9865(3)
H25_2 H 0.45745 0.870327 0.334746
H26_2 H 0.440583 0.974736 0.362693
H27_2 H 0.77072 0.64553 0.879327
H28_2 H 0.723927 0.647326 0.801435
H29_2 H 0.421686 0.690602 0.46063
H30_2 H 0.35617 0.767958 0.441454
N4_2 N 0.0531(3) 0.2191(3) 0.9812(3)
H20_3 H 0.0026 0.1189 0.9253
O1_3 O 0.7667(2) 0.1516(3) 0.45149(19)
N1_3 N 0.6766(2) 0.0291(3) 0.3480(2)
C1_3 C 0.8095(3) 0.0809(4) 0.4472(3)
Cd2_2 Cd 0.67088(2) 0.20187(3) 0.375545(19)
O2_3 O 0.8515(2) 0.0515(3) 0.49846(19)
N2_3 N 0.5624(2) 0.4260(3) 0.1071(2)
C2_3 C 0.8133(3) 0.0350(3) 0.3773(2)
N3_3 N 0.7185(2) 0.2422(3) 0.1327(3)
C3_3 C 0.8841(3) 0.0172(4) 0.3605(3)
H1_3 H 0.9264 0.0333 0.3931
Cd4_3 Cd 0.599743(19) 0.27014(2) 0.164447(18)
O5_2 O 0.5902(2) 0.1092(3) 0.4368(2)
O7_3 O 0.6348(2) 0.1786(2) 0.26088(18)
O8_3 O 0.5815(2) 0.0886(3) 0.17746(19)
C8_3 C 0.7501(3) 0.0115(3) 0.3290(2)
O10_3 O 0.5598(2) 0.2415(2) 0.04669(18)
C10_3 C 0.6069(3) 0.0253(3) 0.4507(2)
C11_3 C 0.6148(3) 0.0186(3) 0.2902(3)
H7_3 H 0.5671 0.0148 0.3097
C12_3 C 0.6110(3) 0.0989(4) 0.2388(3)
O13_3 O 0.4723(2) 0.2923(3) 0.1576(2)
O14_2 O 0.3792(2) 0.3193(3) 0.0739(2)
C14_3 C 0.6276(3) 0.3736(3) 0.0087(3)
O15_3 O 0.6543(2) 0.3896(3) 0.2322(2)
O16_3 O 0.6491(4) 0.5376(4) 0.2643(4)
O17_3 O 0.7513(3) 0.3136(3) 0.3392(2)
C17_3 C 0.7166(3) 0.5336(4) 0.0225(3)
O18_3 O 0.8993(6) 0.3218(8) 0.6517(6)
C18_3 C 0.7621(3) 0.6231(4) 0.0280(3)
C19_3 C 0.6640(3) 0.5185(3) 0.0674(3)
H10_3 H 0.6594 0.5629 0.1034
C20_3 C 0.6176(3) 0.4398(3) 0.0609(3)
C21_3 C 0.4855(3) 0.4126(4) 0.0722(3)
H11_3 H 0.4577 0.4723 0.0742
H12_3 H 0.4869 0.3976 0.0223
C22_3 C 0.4441(3) 0.3350(3) 0.1047(3)
C23_3 C 0.5639(3) 0.4906(4) 0.1671(3)
H13_3 H 0.5675 0.5561 0.1503
H14_3 H 0.5163 0.4847 0.1867
C24_3 C 0.6281(4) 0.4728(4) 0.2251(3)
C25_3 C 0.7363(3) 0.1635(4) 0.1005(3)
H15_3 H 0.7014 0.1132 0.0960
C26_3 C 0.8024(4) 0.1516(5) 0.0736(4)
H16_3 H 0.8137 0.0932 0.0534
C27_3 C 0.8526(3) 0.2267(4) 0.0764(4)
C28_3 C 0.8337(3) 0.3083(5) 0.1086(4)
H17_3 H 0.8663 0.3610 0.1119
C29_3 C 0.7673(3) 0.3129(4) 0.1361(4)
H18_3 H 0.7557 0.3695 0.1585
C33_3 C 0.9844(5) 0.2743(8) 0.0696(6)
H22_3 H 0.9838 0.3121 0.1102
C34_3 C 0.9223(3) 0.2220(4) 0.0439(4)
Cd8_2 Cd 0.32912(2) 0.20187(3) 0.124455(19)
N5_2 N 0.9469(3) 0.2191(3) 0.5188(3)
O23_2 O 0.4098(2) 0.1092(3) 0.0632(2)
O28_2 O 0.6208(2) 0.3193(3) 0.4261(2)
H23_3 H 0.939479 0.355484 0.631513
H24_3 H 0.921111 0.287667 0.694563
H27_3 H 0.77072 0.35447 0.379327
H28_3 H 0.723927 0.352674 0.301435
O9_3 O 0.5765(3) 0.2474(3) 0.9366(2)
C13_3 C 0.5855(3) 0.2826(4) 0.9961(3)
C15_3 C 0.6808(4) 0.3901(4) 0.9643(3)
H8_3 H 0.6866 0.3460 0.9284
C16_3 C 0.7252(4) 0.4692(4) 0.9715(3)
H9_3 H 0.7616 0.4791 0.9411
O19_3 O 0.4079(3) 0.2499(4) 0.9351(3)
O20_3 O 0.4763(3) 0.0787(3) 0.8677(2)
C30_3 C 0.9320(4) 0.1606(6) 0.9918(4)
H19_3 H 0.8939 0.1167 0.9758
C31_3 C 0.9977(4) 0.1621(7) 0.9620(5)
H25_3 H 0.45745 0.129673 0.834746
H26_3 H 0.440583 0.0252642 0.862693
H29_3 H 0.421686 0.309398 0.96063
H30_3 H 0.35617 0.232042 0.941454
C4_3 C 0.8947(4) 0.9769(5) 0.2976(3)
H2_3 H 0.9435 0.9639 0.2872
C5_3 C 0.8323(4) 0.9558(4) 0.2498(3)
C6_3 C 0.8418(5) 0.9055(5) 0.1815(3)
C7_3 C 0.7610(3) 0.9733(4) 0.2655(3)
H3_3 H 0.7190 0.9587 0.2320
C9_3 C 0.6604(3) 0.9739(3) 0.4095(2)
H4_3 H 0.6384 0.9126 0.3935
H5_3 H 0.7076 0.9614 0.4405
H6_3 H 0.6213 0.9589 0.2652
O1_4 O 0.2333(2) 0.1516(3) 0.04851(19)
N1_4 N 0.3234(2) 0.0291(3) 0.1520(2)
C1_4 C 0.1905(3) 0.0809(4) 0.0528(3)
O2_4 O 0.1485(2) 0.0515(3) 0.00154(19)
N2_4 N 0.4376(2) 0.4260(3) 0.3929(2)
C2_4 C 0.1867(3) 0.0350(3) 0.1227(2)
N3_4 N 0.2815(2) 0.2422(3) 0.3673(3)
C3_4 C 0.1159(3) 0.0172(4) 0.1395(3)
H1_4 H 0.0736 0.0333 0.1069
Cd4_4 Cd 0.400257(19) 0.27014(2) 0.335553(18)
O7_4 O 0.3652(2) 0.1786(2) 0.23912(18)
O8_4 O 0.4185(2) 0.0886(3) 0.32254(19)
C8_4 C 0.2499(3) 0.0115(3) 0.1710(2)
O9_4 O 0.4235(3) 0.2474(3) 0.5634(2)
O10_4 O 0.4402(2) 0.2415(2) 0.45331(18)
C10_4 C 0.3931(3) 0.0253(3) 0.0493(2)
C11_4 C 0.3852(3) 0.0186(3) 0.2098(3)
H7_4 H 0.4329 0.0148 0.1903
C12_4 C 0.3890(3) 0.0989(4) 0.2612(3)
O13_4 O 0.5277(2) 0.2923(3) 0.3424(2)
C13_4 C 0.4145(3) 0.2826(4) 0.5039(3)
C14_4 C 0.3724(3) 0.3736(3) 0.4913(3)
O15_4 O 0.3457(2) 0.3896(3) 0.2678(2)
C15_4 C 0.3192(4) 0.3901(4) 0.5357(3)
H8_4 H 0.3134 0.3460 0.5716
O16_4 O 0.3509(4) 0.5376(4) 0.2357(4)
C16_4 C 0.2748(4) 0.4692(4) 0.5285(3)
H9_4 H 0.2384 0.4791 0.5589
O17_4 O 0.2487(3) 0.3136(3) 0.1608(2)
C17_4 C 0.2834(3) 0.5336(4) 0.4775(3)
C18_4 C 0.2379(3) 0.6231(4) 0.4720(3)
O19_4 O 0.5921(3) 0.2499(4) 0.5649(3)
C19_4 C 0.3360(3) 0.5185(3) 0.4326(3)
H10_4 H 0.3406 0.5629 0.3966
O20_4 O 0.5237(3) 0.0787(3) 0.6323(2)
C20_4 C 0.3824(3) 0.4398(3) 0.4391(3)
C21_4 C 0.5145(3) 0.4126(4) 0.4278(3)
H11_4 H 0.5423 0.4723 0.4258
H12_4 H 0.5131 0.3976 0.4777
C22_4 C 0.5559(3) 0.3350(3) 0.3953(3)
C23_4 C 0.4361(3) 0.4906(4) 0.3329(3)
H13_4 H 0.4325 0.5561 0.3497
H14_4 H 0.4837 0.4847 0.3133
C24_4 C 0.3719(4) 0.4728(4) 0.2749(3)
C25_4 C 0.2637(3) 0.1635(4) 0.3995(3)
H15_4 H 0.2986 0.1132 0.4040
C26_4 C 0.1976(4) 0.1516(5) 0.4264(4)
H16_4 H 0.1863 0.0932 0.4466
C27_4 C 0.1474(3) 0.2267(4) 0.4236(4)
C28_4 C 0.1663(3) 0.3083(5) 0.3914(4)
H17_4 H 0.1337 0.3610 0.3881
C29_4 C 0.2327(3) 0.3129(4) 0.3639(4)
H18_4 H 0.2443 0.3695 0.3415
C30_4 C 0.0680(4) 0.1606(6) 0.5082(4)
H19_4 H 0.1061 0.1167 0.5242
C31_4 C 0.0023(4) 0.1621(7) 0.5380(5)
C33_4 C 0.0156(5) 0.2743(8) 0.4304(6)
H22_4 H 0.0162 0.3121 0.3898
C34_4 C 0.0777(3) 0.2220(4) 0.4561(4)
H25_4 H 0.54255 0.129673 0.665254
H26_4 H 0.559417 0.0252642 0.637307
H27_4 H 0.22928 0.35447 0.120673
H28_4 H 0.276073 0.352674 0.198565
H29_4 H 0.578314 0.309398 0.53937
H30_4 H 0.64383 0.232042 0.558546
O18_4 O 0.1007(6) 0.3218(8) 0.8483(6)
H23_4 H 0.0605214 0.355484 0.868487
H24_4 H 0.0788893 0.287667 0.805437
C4_4 C 0.1053(4) 0.9769(5) 0.2024(3)
H2_4 H 0.0565 0.9639 0.2128
C5_4 C 0.1677(4) 0.9558(4) 0.2502(3)
C6_4 C 0.1582(5) 0.9055(5) 0.3185(3)
C7_4 C 0.2390(3) 0.9733(4) 0.2345(3)
H3_4 H 0.2810 0.9587 0.2680
C9_4 C 0.3396(3) 0.9739(3) 0.0905(2)
H4_4 H 0.3616 0.9126 0.1065
H5_4 H 0.2924 0.9614 0.0595
H6_4 H 0.3787 0.9589 0.2348
H20_4 H 0.9974 0.1189 0.5747
C32_2 C 0.9534(5) 0.2718(7) 0.4632(6)
H21_2 H 0.9122 0.3101 0.4452
C32_3 C 0.9534(5) 0.7282(7) 0.9632(6)
H21_3 H 0.9122 0.6899 0.9452
C32_4 C 0.0466(5) 0.2718(7) 0.0368(6)
H21_4 H 0.0878 0.3101 0.0548
loop_
_geom_bond_atom_site_label_1
_geom_bond_atom_site_label_2
_geom_bond_site_symmetry_1
_geom_bond_site_symmetry_2
O3 C6 1_555 1_555
O4 C6 1_555 1_555
H2 C4 1_555 1_555
C5 C4 1_555 1_555
C6 C5 1_555 1_555
C7 C5 1_555 1_555
H3 C7 1_555 1_555
H4 C9 1_555 1_555
H5 C9 1_555 1_555
Cd7 O3 1_555 1_555
Cd10 O6 1_555 1_555
O4 Cd7 1_555 1_555
Cd3 O9 1_555 1_555
O9 C13 1_555 1_555
H8 C15 1_555 1_555
C16 C15 1_555 1_555
H9 C16 1_555 1_555
O19 Cd3 1_555 1_555
O20 Cd3 1_555 1_555
C30 H19 1_555 1_555
C31 C30 1_555 1_555
O25 Cd3 1_555 1_555
O20 H25 1_555 1_555
O20 H26 1_555 1_555
O19 H29 1_555 1_555
O19 H30 1_555 1_555
Cd1 O1 1_555 1_555
O1 C1 1_555 1_555
N1 Cd2 1_555 1_555
C1 O2 1_555 1_555
Cd2 O1 1_555 1_555
O2 Cd1 1_555 1_555
N2 Cd4 1_555 1_555
C2 C1 1_555 1_555
N3 Cd4 1_555 1_555
C3 C2 1_555 1_555
H1 C3 1_555 1_555
Cd4 O7 1_555 1_555
O5 Cd2 1_555 1_555
O7 Cd2 1_555 1_555
O8 Cd4 1_555 1_555
C8 N1 1_555 1_555
C10 O5 1_555 1_555
C11 N1 1_555 1_555
H7 C11 1_555 1_555
O12 C18 1_555 1_555
C12 O7 1_555 1_555
O13 Cd4 1_555 1_555
O14 C22 1_555 1_555
O15 Cd4 1_555 1_555
O16 C24 1_555 1_555
O17 Cd2 1_555 1_555
O18 Cd1 1_555 1_555
C18 C17 1_555 1_555
C19 C17 1_555 1_555
H10 C19 1_555 1_555
C20 N2 1_555 1_555
C21 N2 1_555 1_555
H11 C21 1_555 1_555
H12 C21 1_555 1_555
C22 O13 1_555 1_555
C23 N2 1_555 1_555
H13 C23 1_555 1_555
H14 C23 1_555 1_555
C24 O15 1_555 1_555
C25 N3 1_555 1_555
H15 C25 1_555 1_555
C26 C25 1_555 1_555
H16 C26 1_555 1_555
C27 C26 1_555 1_555
C28 C27 1_555 1_555
H17 C28 1_555 1_555
C29 N3 1_555 1_555
H18 C29 1_555 1_555
H22 C33 1_555 1_555
C34 C27 1_555 1_555
Cd8 O14 1_555 1_555
Cd9 O5 1_555 1_555
O21 Cd1 1_555 1_555
O22 Cd1 1_555 1_555
N5 Cd1 1_555 1_555
O26 Cd1 1_555 1_555
O27 Cd1 1_555 1_555
O28 Cd2 1_555 1_555
C2 C8 1_555 1_555
Cd4 O10 1_555 1_555
O8 C12 1_555 1_555
C11 C12 1_555 1_555
O12 Cd7 1_555 1_555
C14 C20 1_555 1_555
C19 C20 1_555 1_555
C21 C22 1_555 1_555
C23 C24 1_555 1_555
C28 C29 1_555 1_555
C33 C34 1_555 1_555
Cd8 O23 1_555 1_555
O18 H23 1_555 1_555
O18 H24 1_555 1_555
O17 H27 1_555 1_555
O17 H28 1_555 1_555
Cd5 N4 1_555 1_555
C32 N5 1_555 1_555
H21 C32 1_555 1_555
O3_2 C6_2 1_555 1_555
O4_2 C6_2 1_555 1_555
H2_2 C4_2 1_555 1_555
C5_2 C4_2 1_555 1_555
C6_2 C5_2 1_555 1_555
C7_2 C5_2 1_555 1_555
H3_2 C7_2 1_555 1_555
H4_2 C9_2 1_555 1_555
H5_2 C9_2 1_555 1_555
Cd7_2 O3_2 1_555 1_555
Cd10_2 O24 1_555 1_555
O4_2 Cd7_2 1_555 1_555
O18_2 Cd5 1_555 1_555
O21_2 Cd5 1_555 1_555
O22_2 Cd5 1_555 1_555
O27_2 Cd5 1_555 1_555
O18_2 H23_2 1_555 1_555
O18_2 H24_2 1_555 1_555
O1_2 C1_2 1_555 1_555
N1_2 Cd8 1_555 1_555
C1_2 O2_2 1_555 1_555
Cd8 O1_2 1_555 1_555
N2_2 Cd4_2 1_555 1_555
C2_2 C1_2 1_555 1_555
Cd9 O9_2 1_555 1_555
N3_2 Cd4_2 1_555 1_555
C3_2 C2_2 1_555 1_555
H1_2 C3_2 1_555 1_555
Cd4_2 O7_2 1_555 1_555
O7_2 Cd8 1_555 1_555
O8_2 Cd4_2 1_555 1_555
C8_2 N1_2 1_555 1_555
O9_2 C13_2 1_555 1_555
O10_2 Cd9 1_555 1_555
C10_2 O23 1_555 1_555
O11_2 C18_2 1_555 1_555
C11_2 N1_2 1_555 1_555
H7_2 C11_2 1_555 1_555
O12_2 C18_2 1_555 1_555
C12_2 O7_2 1_555 1_555
O13_2 Cd4_2 1_555 1_555
C13_2 O10_2 1_555 1_555
O28 C22_2 1_555 1_555
C14_2 C13_2 1_555 1_555
O15_2 Cd4_2 1_555 1_555
C15_2 C14_2 1_555 1_555
H8_2 C15_2 1_555 1_555
O16_2 C24_2 1_555 1_555
C16_2 C15_2 1_555 1_555
H9_2 C16_2 1_555 1_555
O17_2 Cd8 1_555 1_555
C17_2 C16_2 1_555 1_555
C18_2 C17_2 1_555 1_555
O19_2 Cd9 1_555 1_555
C19_2 C17_2 1_555 1_555
H10_2 C19_2 1_555 1_555
O20_2 Cd9 1_555 1_555
C20_2 N2_2 1_555 1_555
C21_2 N2_2 1_555 1_555
H11_2 C21_2 1_555 1_555
H12_2 C21_2 1_555 1_555
C22_2 O13_2 1_555 1_555
C23_2 N2_2 1_555 1_555
H13_2 C23_2 1_555 1_555
H14_2 C23_2 1_555 1_555
C24_2 O15_2 1_555 1_555
C25_2 N3_2 1_555 1_555
H15_2 C25_2 1_555 1_555
C26_2 C25_2 1_555 1_555
H16_2 C26_2 1_555 1_555
C27_2 C26_2 1_555 1_555
C28_2 C27_2 1_555 1_555
H17_2 C28_2 1_555 1_555
C29_2 N3_2 1_555 1_555
H18_2 C29_2 1_555 1_555
C30_2 H19_2 1_555 1_555
C31_2 C30_2 1_555 1_555
H22_2 C33_2 1_555 1_555
C34_2 C27_2 1_555 1_555
Cd7_2 O11_2 1_555 1_555
O25_2 Cd9 1_555 1_555
C2_2 C8_2 1_555 1_555
Cd4_2 O10_2 1_555 1_555
O8_2 C12_2 1_555 1_555
C11_2 C12_2 1_555 1_555
O12_2 Cd7_2 1_555 1_555
C14_2 C20_2 1_555 1_555
C19_2 C20_2 1_555 1_555
C21_2 C22_2 1_555 1_555
C23_2 C24_2 1_555 1_555
C28_2 C29_2 1_555 1_555
C30_2 C34_2 1_555 1_555
C33_2 C34_2 1_555 1_555
O20_2 H25_2 1_555 1_555
O20_2 H26_2 1_555 1_555
O17_2 H27_2 1_555 1_555
O17_2 H28_2 1_555 1_555
O19_2 H29_2 1_555 1_555
O19_2 H30_2 1_555 1_555
Cd7 N4_2 1_555 1_555
Cd7_2 O1_3 1_555 1_555
O1_3 C1_3 1_555 1_555
N1_3 Cd2_2 1_555 1_555
C1_3 O2_3 1_555 1_555
Cd2_2 O1_3 1_555 1_555
O2_3 Cd7_2 1_555 1_555
N2_3 Cd4_3 1_555 1_555
C2_3 C1_3 1_555 1_555
N3_3 Cd4_3 1_555 1_555
C3_3 C2_3 1_555 1_555
H1_3 C3_3 1_555 1_555
Cd4_3 O7_3 1_555 1_555
O5_2 Cd2_2 1_555 1_555
O7_3 Cd2_2 1_555 1_555
O8_3 Cd4_3 1_555 1_555
C8_3 N1_3 1_555 1_555
C10_3 O5_2 1_555 1_555
C11_3 N1_3 1_555 1_555
H7_3 C11_3 1_555 1_555
O27_2 C18_3 1_555 1_555
C12_3 O7_3 1_555 1_555
O13_3 Cd4_3 1_555 1_555
O14_2 C22_3 1_555 1_555
O15_3 Cd4_3 1_555 1_555
O16_3 C24_3 1_555 1_555
O17_3 Cd2_2 1_555 1_555
O18_3 Cd7_2 1_555 1_555
C18_3 C17_3 1_555 1_555
C19_3 C17_3 1_555 1_555
H10_3 C19_3 1_555 1_555
C20_3 N2_3 1_555 1_555
C21_3 N2_3 1_555 1_555
H11_3 C21_3 1_555 1_555
H12_3 C21_3 1_555 1_555
C22_3 O13_3 1_555 1_555
C23_3 N2_3 1_555 1_555
H13_3 C23_3 1_555 1_555
H14_3 C23_3 1_555 1_555
C24_3 O15_3 1_555 1_555
C25_3 N3_3 1_555 1_555
H15_3 C25_3 1_555 1_555
C26_3 C25_3 1_555 1_555
H16_3 C26_3 1_555 1_555
C27_3 C26_3 1_555 1_555
C28_3 C27_3 1_555 1_555
H17_3 C28_3 1_555 1_555
C29_3 N3_3 1_555 1_555
H18_3 C29_3 1_555 1_555
H22_3 C33_3 1_555 1_555
C34_3 C27_3 1_555 1_555
Cd8_2 O14_2 1_555 1_555
Cd10 O5_2 1_555 1_555
N5_2 Cd7_2 1_555 1_555
O28_2 Cd2_2 1_555 1_555
C2_3 C8_3 1_555 1_555
Cd4_3 O10_3 1_555 1_555
O8_3 C12_3 1_555 1_555
C11_3 C12_3 1_555 1_555
C14_3 C20_3 1_555 1_555
C19_3 C20_3 1_555 1_555
C21_3 C22_3 1_555 1_555
C23_3 C24_3 1_555 1_555
C28_3 C29_3 1_555 1_555
C33_3 C34_3 1_555 1_555
Cd8_2 O23_2 1_555 1_555
O18_3 H23_3 1_555 1_555
O18_3 H24_3 1_555 1_555
O17_3 H27_3 1_555 1_555
O17_3 H28_3 1_555 1_555
Cd10_2 O9_3 1_555 1_555
O9_3 C13_3 1_555 1_555
H8_3 C15_3 1_555 1_555
C16_3 C15_3 1_555 1_555
H9_3 C16_3 1_555 1_555
O19_3 Cd10_2 1_555 1_555
O20_3 Cd10_2 1_555 1_555
C30_3 H19_3 1_555 1_555
C31_3 C30_3 1_555 1_555
O20_3 H25_3 1_555 1_555
O20_3 H26_3 1_555 1_555
O19_3 H29_3 1_555 1_555
O19_3 H30_3 1_555 1_555
O21_2 C6_3 1_555 1_555
O22_2 C6_3 1_555 1_555
H2_3 C4_3 1_555 1_555
C5_3 C4_3 1_555 1_555
C6_3 C5_3 1_555 1_555
C7_3 C5_3 1_555 1_555
H3_3 C7_3 1_555 1_555
H4_3 C9_3 1_555 1_555
H5_3 C9_3 1_555 1_555
O1_4 C1_4 1_555 1_555
N1_4 Cd8_2 1_555 1_555
C1_4 O2_4 1_555 1_555
Cd8_2 O1_4 1_555 1_555
N2_4 Cd4_4 1_555 1_555
C2_4 C1_4 1_555 1_555
Cd10 O9_4 1_555 1_555
N3_4 Cd4_4 1_555 1_555
C3_4 C2_4 1_555 1_555
H1_4 C3_4 1_555 1_555
Cd4_4 O7_4 1_555 1_555
O7_4 Cd8_2 1_555 1_555
O8_4 Cd4_4 1_555 1_555
C8_4 N1_4 1_555 1_555
O9_4 C13_4 1_555 1_555
O10_4 Cd10 1_555 1_555
C10_4 O23_2 1_555 1_555
O26 C18_4 1_555 1_555
C11_4 N1_4 1_555 1_555
H7_4 C11_4 1_555 1_555
O27 C18_4 1_555 1_555
C12_4 O7_4 1_555 1_555
O13_4 Cd4_4 1_555 1_555
C13_4 O10_4 1_555 1_555
O28_2 C22_4 1_555 1_555
C14_4 C13_4 1_555 1_555
O15_4 Cd4_4 1_555 1_555
C15_4 C14_4 1_555 1_555
H8_4 C15_4 1_555 1_555
O16_4 C24_4 1_555 1_555
C16_4 C15_4 1_555 1_555
H9_4 C16_4 1_555 1_555
O17_4 Cd8_2 1_555 1_555
C17_4 C16_4 1_555 1_555
C18_4 C17_4 1_555 1_555
O19_4 Cd10 1_555 1_555
C19_4 C17_4 1_555 1_555
H10_4 C19_4 1_555 1_555
O20_4 Cd10 1_555 1_555
C20_4 N2_4 1_555 1_555
C21_4 N2_4 1_555 1_555
H11_4 C21_4 1_555 1_555
H12_4 C21_4 1_555 1_555
C22_4 O13_4 1_555 1_555
C23_4 N2_4 1_555 1_555
H13_4 C23_4 1_555 1_555
H14_4 C23_4 1_555 1_555
C24_4 O15_4 1_555 1_555
C25_4 N3_4 1_555 1_555
H15_4 C25_4 1_555 1_555
C26_4 C25_4 1_555 1_555
H16_4 C26_4 1_555 1_555
C27_4 C26_4 1_555 1_555
C28_4 C27_4 1_555 1_555
H17_4 C28_4 1_555 1_555
C29_4 N3_4 1_555 1_555
H18_4 C29_4 1_555 1_555
C30_4 H19_4 1_555 1_555
C31_4 C30_4 1_555 1_555
H22_4 C33_4 1_555 1_555
C34_4 C27_4 1_555 1_555
C2_4 C8_4 1_555 1_555
Cd4_4 O10_4 1_555 1_555
O8_4 C12_4 1_555 1_555
C11_4 C12_4 1_555 1_555
C14_4 C20_4 1_555 1_555
C19_4 C20_4 1_555 1_555
C21_4 C22_4 1_555 1_555
C23_4 C24_4 1_555 1_555
C28_4 C29_4 1_555 1_555
C30_4 C34_4 1_555 1_555
C33_4 C34_4 1_555 1_555
O20_4 H25_4 1_555 1_555
O20_4 H26_4 1_555 1_555
O17_4 H27_4 1_555 1_555
O17_4 H28_4 1_555 1_555
O19_4 H29_4 1_555 1_555
O19_4 H30_4 1_555 1_555
O18_4 Cd7 1_555 1_555
O18_4 H23_4 1_555 1_555
O18_4 H24_4 1_555 1_555
O21 C6_4 1_555 1_555
O22 C6_4 1_555 1_555
H2_4 C4_4 1_555 1_555
C5_4 C4_4 1_555 1_555
C6_4 C5_4 1_555 1_555
C7_4 C5_4 1_555 1_555
H3_4 C7_4 1_555 1_555
H4_4 C9_4 1_555 1_555
H5_4 C9_4 1_555 1_555
C32_2 N5_2 1_555 1_555
H21_2 C32_2 1_555 1_555
H21_3 C32_3 1_555 1_555
H21_4 C32_4 1_555 1_555

#END
