
###############################################################################
#
# This file contains modified crystal structure data generated from the
# MOF subset of the Cambridge Structural Database (CSD) v543 
# hosted by the Cambridge Crystallographic Data Centre (CCDC).
#
# This work is licensed under the Creative Commons
# Attribution-NonCommercial-ShareAlike 4.0 International License.
# To view a copy of this license, visit
# http://creativecommons.org/licenses/by-nc-sa/4.0/
# or send a letter to
# Creative Commons, PO Box 1866, Mountain View, CA 94042, USA.
#
# CIF created using the CSD Python API on 29 September 2022
# The structure has been converted into the P1 space group
# The structure has a 3D framework
# The original CSD entry NEVPUA is in the tetragonal crystal system
# The framework has been calculated to contain at least 10.0% void space
# The void calculation uses a probe of radius 1.32A, grid spacing 0.4
# The framework is charged, counterions have been retained in the structure
#
###############################################################################

data_NEVPUA
_chemical_formula_moiety         '(C64 H80 Cd4 Cl24 Cu22 N96 O8 28+)n'
_symmetry_cell_setting           triclinic
_symmetry_space_group_name_H-M   'P 1'
_symmetry_Int_Tables_number      1
_space_group_name_Hall           'P 1'
loop_
_symmetry_equiv_pos_site_id
_symmetry_equiv_pos_as_xyz
1 x,y,z
_cell_length_a                   18.193(2)
_cell_length_b                   18.193(2)
_cell_length_c                   13.256(2)
_cell_angle_alpha                90
_cell_angle_beta                 90
_cell_angle_gamma                90
_cell_volume                     4387.54
loop_
_atom_site_label
_atom_site_type_symbol
_atom_site_fract_x
_atom_site_fract_y
_atom_site_fract_z
Cd1 Cd 0.2500 0.7500 0.2500
Cl1 Cl 0.14455(6) 0.78633(6) 0.14165(8)
Cl2 Cl 0.28633(6) 0.85545(6) 0.35835(8)
Cl3 Cl 0.21367(6) 0.64455(6) 0.35835(8)
Cl4 Cl 0.35545(6) 0.71367(6) 0.14165(8)
Cd1_2 Cd 0.7500 0.2500 0.7500
Cl1_2 Cl 0.71367(6) 0.14455(6) 0.64165(8)
Cl2_2 Cl 0.64455(6) 0.28633(6) 0.85835(8)
Cl3_2 Cl 0.85545(6) 0.21367(6) 0.85835(8)
Cl4_2 Cl 0.78633(6) 0.35545(6) 0.64165(8)
Cd1_3 Cd 0.2500 0.7500 0.7500
Cl1_3 Cl 0.28633(6) 0.64455(6) 0.85835(8)
Cl2_3 Cl 0.35545(6) 0.78633(6) 0.64165(8)
Cl3_3 Cl 0.14455(6) 0.71367(6) 0.64165(8)
Cl4_3 Cl 0.21367(6) 0.85545(6) 0.85835(8)
Cd1_4 Cd 0.7500 0.2500 0.2500
Cl1_4 Cl 0.85545(6) 0.28633(6) 0.35835(8)
Cl2_4 Cl 0.71367(6) 0.35545(6) 0.14165(8)
Cl3_4 Cl 0.78633(6) 0.14455(6) 0.14165(8)
Cl4_4 Cl 0.64455(6) 0.21367(6) 0.35835(8)
Cu1 Cu 0.01167(3) 0.48833(3) 0.23272(5)
Cu2 Cu 0.0000 0.5000 0.5000
Cl5 Cl 0.07996(6) 0.42004(6) 0.37694(11)
N1 N 0.01855(19) 0.58955(19) 0.4147(3)
N2 N 0.02294(19) 0.58768(19) 0.3105(3)
N3 N 0.0278(2) 0.70033(19) 0.3607(3)
N4 N 0.0767(3) 0.8850(2) 0.3891(3)
N5 N 0.0117(2) 0.8902(2) 0.3333(3)
N6 N 0.0338(2) 0.77596(19) 0.3601(3)
C1 C 0.0214(2) 0.6577(2) 0.4437(3)
H1 H 0.0197 0.6749 0.5121
C2 C 0.0295(3) 0.6548(2) 0.2787(3)
H2 H 0.0343 0.6698 0.2096
C3 C 0.0885(3) 0.8154(3) 0.4037(4)
H3 H 0.1293 0.7950 0.4402
Cu5 Cu 0.48833(3) 0.48833(3) 0.73272(5)
Cu6 Cu 0.01167(3) 0.01167(3) 0.73272(5)
O2 O 0.0430(2) 0.4570(2) 0.9128(4)
N7 N 0.08955(19) 0.51855(19) 0.5853(3)
N10 N 0.08768(19) 0.52294(19) 0.6895(3)
N13 N 0.20033(19) 0.5278(2) 0.6393(3)
N16 N 0.3850(2) 0.5767(3) 0.6109(3)
N19 N 0.3902(2) 0.5117(2) 0.6667(3)
N22 N 0.1098(2) 0.5117(2) 0.1667(3)
N25 N 0.0117(2) 0.6098(2) 0.8333(3)
N26 N 0.27596(19) 0.5338(2) 0.6399(3)
C5 C 0.1577(2) 0.5214(2) 0.5563(3)
H6 H 0.1749 0.5197 0.4879
C8 C 0.1548(2) 0.5295(3) 0.7213(3)
H9 H 0.1698 0.5343 0.7904
C11 C 0.3154(3) 0.5885(3) 0.5963(4)
H12 H 0.2950 0.6293 0.5598
C14 C 0.3242(3) 0.4869(3) 0.6841(4)
C15 C 0.0131(3) 0.1758(3) 0.6841(4)
H15 H 0.3119 0.4433 0.7212
H16 H 0.0567 0.1881 0.7212
H19 H 0.0899 0.4611 0.9108
H20 H 0.0389 0.4101 0.9108
Cu2_2 Cu 1.0000 0.5000 0.5000
O1 O 0.9570(2) 0.5430(2) 0.0872(4)
C4 C 0.9869(3) 0.8242(3) 0.3159(4)
H4 H 0.9433 0.8119 0.2788
H5 H 0.9611 0.5899 0.0892
Cu3 Cu 0.98833(3) 0.51167(3) 0.76728(5)
Cu4 Cu 0.98833(3) 0.98833(3) 0.26728(5)
Cu7 Cu 0.51167(3) 0.51167(3) 0.26728(5)
Cl6 Cl 0.92004(6) 0.57996(6) 0.62306(11)
N8 N 0.98145(19) 0.41045(19) 0.5853(3)
N9 N 0.91045(19) 0.48145(19) 0.4147(3)
N11 N 0.97706(19) 0.41232(19) 0.6895(3)
N12 N 0.91232(19) 0.47706(19) 0.3105(3)
N14 N 0.9722(2) 0.29967(19) 0.6393(3)
N15 N 0.79967(19) 0.4722(2) 0.3607(3)
N17 N 0.9233(3) 0.1150(2) 0.6109(3)
N18 N 0.6150(2) 0.4233(3) 0.3891(3)
N20 N 0.9883(2) 0.1098(2) 0.6667(3)
N21 N 0.6098(2) 0.4883(2) 0.3333(3)
N23 N 0.9883(2) 0.3902(2) 0.1667(3)
N24 N 0.8902(2) 0.4883(2) 0.8333(3)
N27 N 0.9662(2) 0.22404(19) 0.6399(3)
N28 N 0.72404(19) 0.4662(2) 0.3601(3)
C6 C 0.9786(2) 0.3423(2) 0.5563(3)
C7 C 0.8423(2) 0.4786(2) 0.4437(3)
H7 H 0.9803 0.3251 0.4879
H8 H 0.8251 0.4803 0.5121
C9 C 0.9705(3) 0.3452(2) 0.7213(3)
C10 C 0.8452(2) 0.4705(3) 0.2787(3)
H10 H 0.9657 0.3302 0.7904
H11 H 0.8302 0.4657 0.2096
C12 C 0.9115(3) 0.1846(3) 0.5963(4)
C13 C 0.6846(3) 0.4115(3) 0.4037(4)
H13 H 0.8707 0.2050 0.5598
H14 H 0.7050 0.3707 0.4402
C16 C 0.6758(3) 0.5131(3) 0.3159(4)
H17 H 0.6881 0.5567 0.2788
H18 H 0.9101 0.5389 0.0892
Cu2_3 Cu 0.0000 0.0000 0.0000
Cu6_2 Cu 0.48833(3) 0.01167(3) 0.23272(5)
O2_2 O 0.0430(2) 0.0430(2) 0.4128(4)
C14_2 C 0.0131(3) 0.3242(3) 0.1841(4)
C15_2 C 0.3242(3) 0.0131(3) 0.1841(4)
H15_2 H 0.0567 0.3119 0.2212
H16_2 H 0.3119 0.0567 0.2212
H19_2 H 0.0389 0.0899 0.4108
H20_2 H 0.0899 0.0389 0.4108
Cu2_4 Cu 0.0000 0.0000 1.0000
Cl5_2 Cl 0.07996(6) 0.07996(6) 0.87694(11)
Cu2_5 Cu 0.0000 1.0000 0.0000
N8_2 N 0.08955(19) 0.98145(19) 0.0853(3)
N11_2 N 0.08768(19) 0.97706(19) 0.1895(3)
N14_2 N 0.20033(19) 0.9722(2) 0.1393(3)
N17_2 N 0.3850(2) 0.9233(3) 0.1109(3)
N20_2 N 0.3902(2) 0.9883(2) 0.1667(3)
N27_2 N 0.27596(19) 0.9662(2) 0.1399(3)
C6_2 C 0.1577(2) 0.9786(2) 0.0563(3)
H8_2 H 0.0197 0.8251 0.0121
C9_2 C 0.1548(2) 0.9705(3) 0.2213(3)
H10_2 H 0.1698 0.9657 0.2904
C12_2 C 0.3154(3) 0.9115(3) 0.0963(4)
H13_2 H 0.2950 0.8707 0.0598
Cu2_6 Cu 0.0000 1.0000 1.0000
N9_2 N 0.01855(19) 0.91045(19) 0.9147(3)
N12_2 N 0.02294(19) 0.91232(19) 0.8105(3)
N15_2 N 0.0278(2) 0.79967(19) 0.8607(3)
N18_2 N 0.0767(3) 0.6150(2) 0.8891(3)
N23_2 N 0.1098(2) 0.9883(2) 0.6667(3)
N28_2 N 0.0338(2) 0.72404(19) 0.8601(3)
C7_2 C 0.0214(2) 0.8423(2) 0.9437(3)
H7_2 H 0.1749 0.9803 0.9879
C10_2 C 0.0295(3) 0.8452(2) 0.7787(3)
H11_2 H 0.0343 0.8302 0.7096
C13_2 C 0.0885(3) 0.6846(3) 0.9037(4)
H14_2 H 0.1293 0.7050 0.9402
Cu2_7 Cu 1.0000 0.0000 0.0000
H1_2 H 0.8251 0.0197 0.0121
N7_2 N 0.98145(19) 0.08955(19) 0.0853(3)
N10_2 N 0.97706(19) 0.08768(19) 0.1895(3)
N13_2 N 0.9722(2) 0.20033(19) 0.1393(3)
N16_2 N 0.9233(3) 0.3850(2) 0.1109(3)
N25_2 N 0.8902(2) 0.0117(2) 0.3333(3)
N26_2 N 0.9662(2) 0.27596(19) 0.1399(3)
C5_2 C 0.9786(2) 0.1577(2) 0.0563(3)
C8_2 C 0.9705(3) 0.1548(2) 0.2213(3)
H9_2 H 0.9657 0.1698 0.2904
C11_2 C 0.9115(3) 0.3154(3) 0.0963(4)
H12_2 H 0.8707 0.2950 0.0598
Cu2_8 Cu 1.0000 0.0000 1.0000
N1_2 N 0.91045(19) 0.01855(19) 0.9147(3)
N2_2 N 0.91232(19) 0.02294(19) 0.8105(3)
N3_2 N 0.79967(19) 0.0278(2) 0.8607(3)
N4_2 N 0.6150(2) 0.0767(3) 0.8891(3)
N5_2 N 0.6098(2) 0.0117(2) 0.8333(3)
N6_2 N 0.72404(19) 0.0338(2) 0.8601(3)
C1_2 C 0.8423(2) 0.0214(2) 0.9437(3)
C2_2 C 0.8452(2) 0.0295(3) 0.7787(3)
H2_2 H 0.8302 0.0343 0.7096
C3_2 C 0.6846(3) 0.0885(3) 0.9037(4)
H3_2 H 0.7050 0.1293 0.9402
H6_2 H 0.9803 0.1749 0.9879
Cu2_9 Cu 1.0000 1.0000 0.0000
Cl6_2 Cl 0.92004(6) 0.92004(6) 0.12306(11)
Cu2_10 Cu 1.0000 1.0000 1.0000
O1_2 O 0.9570(2) 0.9570(2) 0.5872(4)
C4_2 C 0.6758(3) 0.9869(3) 0.8159(4)
H4_2 H 0.6881 0.9433 0.7788
H5_2 H 0.9101 0.9611 0.5892
Cu4_2 Cu 0.51167(3) 0.98833(3) 0.76728(5)
C16_2 C 0.9869(3) 0.6758(3) 0.8159(4)
H17_2 H 0.9433 0.6881 0.7788
H18_2 H 0.9611 0.9101 0.5892
Cu2_11 Cu 0.5000 0.5000 0.0000
H1_3 H 0.6749 0.4803 0.0121
Cl6_3 Cl 0.57996(6) 0.57996(6) 0.12306(11)
O2_3 O 0.4570(2) 0.4570(2) 0.4128(4)
N7_3 N 0.51855(19) 0.41045(19) 0.0853(3)
N8_3 N 0.41045(19) 0.51855(19) 0.0853(3)
N10_3 N 0.52294(19) 0.41232(19) 0.1895(3)
N11_3 N 0.41232(19) 0.52294(19) 0.1895(3)
N13_3 N 0.5278(2) 0.29967(19) 0.1393(3)
N14_3 N 0.29967(19) 0.5278(2) 0.1393(3)
N16_3 N 0.5767(3) 0.1150(2) 0.1109(3)
N17_3 N 0.1150(2) 0.5767(3) 0.1109(3)
N19_2 N 0.5117(2) 0.1098(2) 0.1667(3)
N24_2 N 0.4883(2) 0.6098(2) 0.3333(3)
N26_3 N 0.5338(2) 0.22404(19) 0.1399(3)
N27_3 N 0.22404(19) 0.5338(2) 0.1399(3)
C5_3 C 0.5214(2) 0.3423(2) 0.0563(3)
C6_3 C 0.3423(2) 0.5214(2) 0.0563(3)
H8_3 H 0.4803 0.6749 0.0121
C8_3 C 0.5295(3) 0.3452(2) 0.2213(3)
C9_3 C 0.3452(2) 0.5295(3) 0.2213(3)
H9_3 H 0.5343 0.3302 0.2904
H10_3 H 0.3302 0.5343 0.2904
C11_3 C 0.5885(3) 0.1846(3) 0.0963(4)
C12_3 C 0.1846(3) 0.5885(3) 0.0963(4)
H12_3 H 0.6293 0.2050 0.0598
H13_3 H 0.2050 0.6293 0.0598
C14_3 C 0.4869(3) 0.1758(3) 0.1841(4)
C15_3 C 0.1758(3) 0.4869(3) 0.1841(4)
H15_3 H 0.4433 0.1881 0.2212
H16_3 H 0.1881 0.4433 0.2212
H19_3 H 0.4611 0.4101 0.4108
H20_3 H 0.4101 0.4611 0.4108
Cu2_12 Cu 0.5000 0.5000 1.0000
Cl5_3 Cl 0.42004(6) 0.42004(6) 0.87694(11)
O1_3 O 0.5430(2) 0.5430(2) 0.5872(4)
N1_3 N 0.58955(19) 0.48145(19) 0.9147(3)
N2_3 N 0.58768(19) 0.47706(19) 0.8105(3)
N3_3 N 0.70033(19) 0.4722(2) 0.8607(3)
N4_3 N 0.8850(2) 0.4233(3) 0.8891(3)
N6_3 N 0.77596(19) 0.4662(2) 0.8601(3)
C1_3 C 0.6577(2) 0.4786(2) 0.9437(3)
C2_3 C 0.6548(2) 0.4705(3) 0.7787(3)
H2_3 H 0.6698 0.4657 0.7096
C3_3 C 0.8154(3) 0.4115(3) 0.9037(4)
H3_3 H 0.7950 0.3707 0.9402
C4_3 C 0.8242(3) 0.5131(3) 0.8159(4)
H4_3 H 0.8119 0.5567 0.7788
H5_3 H 0.5899 0.5389 0.5892
N9_3 N 0.48145(19) 0.58955(19) 0.9147(3)
N12_3 N 0.47706(19) 0.58768(19) 0.8105(3)
N15_3 N 0.4722(2) 0.70033(19) 0.8607(3)
N18_3 N 0.4233(3) 0.8850(2) 0.8891(3)
N21_2 N 0.4883(2) 0.8902(2) 0.8333(3)
N22_2 N 0.5117(2) 0.3902(2) 0.6667(3)
N28_3 N 0.4662(2) 0.77596(19) 0.8601(3)
C7_3 C 0.4786(2) 0.6577(2) 0.9437(3)
H6_3 H 0.5197 0.3251 0.9879
H7_3 H 0.3251 0.5197 0.9879
C10_3 C 0.4705(3) 0.6548(2) 0.7787(3)
H11_3 H 0.4657 0.6698 0.7096
C13_3 C 0.4115(3) 0.8154(3) 0.9037(4)
H14_3 H 0.3707 0.7950 0.9402
C16_3 C 0.5131(3) 0.8242(3) 0.8159(4)
H17_3 H 0.5567 0.8119 0.7788
H18_3 H 0.5389 0.5899 0.5892
Cu2_13 Cu 0.5000 0.0000 0.5000
Cl5_4 Cl 0.42004(6) 0.07996(6) 0.37694(11)
O2_4 O 0.4570(2) 0.0430(2) 0.9128(4)
N8_4 N 0.51855(19) 0.08955(19) 0.5853(3)
N9_4 N 0.58955(19) 0.01855(19) 0.4147(3)
N11_4 N 0.52294(19) 0.08768(19) 0.6895(3)
N12_4 N 0.58768(19) 0.02294(19) 0.3105(3)
N14_4 N 0.5278(2) 0.20033(19) 0.6393(3)
N15_4 N 0.70033(19) 0.0278(2) 0.3607(3)
N17_4 N 0.5767(3) 0.3850(2) 0.6109(3)
N18_4 N 0.8850(2) 0.0767(3) 0.3891(3)
N27_4 N 0.5338(2) 0.27596(19) 0.6399(3)
N28_4 N 0.77596(19) 0.0338(2) 0.3601(3)
C6_4 C 0.5214(2) 0.1577(2) 0.5563(3)
C7_4 C 0.6577(2) 0.0214(2) 0.4437(3)
H7_4 H 0.5197 0.1749 0.4879
H8_4 H 0.6749 0.0197 0.5121
C9_4 C 0.5295(3) 0.1548(2) 0.7213(3)
C10_4 C 0.6548(2) 0.0295(3) 0.2787(3)
H10_4 H 0.5343 0.1698 0.7904
H11_4 H 0.6698 0.0343 0.2096
C12_4 C 0.5885(3) 0.3154(3) 0.5963(4)
C13_4 C 0.8154(3) 0.0885(3) 0.4037(4)
H13_4 H 0.6293 0.2950 0.5598
H14_4 H 0.7950 0.1293 0.4402
C14_4 C 0.1758(3) 0.0131(3) 0.6841(4)
C15_4 C 0.4869(3) 0.3242(3) 0.6841(4)
H15_4 H 0.1881 0.0567 0.7212
H16_4 H 0.4433 0.3119 0.7212
H19_4 H 0.4101 0.0389 0.9108
H20_4 H 0.4611 0.0899 0.9108
Cu2_14 Cu 0.5000 1.0000 0.5000
O1_4 O 0.5430(2) 0.9570(2) 0.0872(4)
N1_4 N 0.48145(19) 0.91045(19) 0.4147(3)
N2_4 N 0.47706(19) 0.91232(19) 0.3105(3)
N3_4 N 0.4722(2) 0.79967(19) 0.3607(3)
N4_4 N 0.4233(3) 0.6150(2) 0.3891(3)
N6_4 N 0.4662(2) 0.72404(19) 0.3601(3)
C1_4 C 0.4786(2) 0.8423(2) 0.4437(3)
H1_4 H 0.4803 0.8251 0.5121
C2_4 C 0.4705(3) 0.8452(2) 0.2787(3)
H2_4 H 0.4657 0.8302 0.2096
C3_4 C 0.4115(3) 0.6846(3) 0.4037(4)
H3_4 H 0.3707 0.7050 0.4402
C4_4 C 0.5131(3) 0.6758(3) 0.3159(4)
H4_4 H 0.5567 0.6881 0.2788
H5_4 H 0.5389 0.9101 0.0892
Cl6_4 Cl 0.57996(6) 0.92004(6) 0.62306(11)
N7_4 N 0.41045(19) 0.98145(19) 0.5853(3)
N10_4 N 0.41232(19) 0.97706(19) 0.6895(3)
N13_4 N 0.29967(19) 0.9722(2) 0.6393(3)
N16_4 N 0.1150(2) 0.9233(3) 0.6109(3)
N26_4 N 0.22404(19) 0.9662(2) 0.6399(3)
C5_4 C 0.3423(2) 0.9786(2) 0.5563(3)
H6_4 H 0.3251 0.9803 0.4879
C8_4 C 0.3452(2) 0.9705(3) 0.7213(3)
H9_4 H 0.3302 0.9657 0.7904
C11_4 C 0.1846(3) 0.9115(3) 0.5963(4)
H12_4 H 0.2050 0.8707 0.5598
C16_4 C 0.8242(3) 0.9869(3) 0.3159(4)
H17_4 H 0.8119 0.9433 0.2788
H18_4 H 0.5899 0.9611 0.0892
loop_
_geom_bond_atom_site_label_1
_geom_bond_atom_site_label_2
_geom_bond_site_symmetry_1
_geom_bond_site_symmetry_2
Cd1 Cl1 1_555 1_555
Cl2 Cd1 1_555 1_555
Cl3 Cd1 1_555 1_555
Cl4 Cd1 1_555 1_555
Cd1_2 Cl1_2 1_555 1_555
Cl2_2 Cd1_2 1_555 1_555
Cl3_2 Cd1_2 1_555 1_555
Cl4_2 Cd1_2 1_555 1_555
Cd1_3 Cl1_3 1_555 1_555
Cl2_3 Cd1_3 1_555 1_555
Cl3_3 Cd1_3 1_555 1_555
Cl4_3 Cd1_3 1_555 1_555
Cd1_4 Cl1_4 1_555 1_555
Cl2_4 Cd1_4 1_555 1_555
Cl3_4 Cd1_4 1_555 1_555
Cl4_4 Cd1_4 1_555 1_555
Cu1 Cl5 1_555 1_555
Cu2 Cl5 1_555 1_555
N1 Cu2 1_555 1_555
N2 Cu1 1_555 1_555
N3 N6 1_555 1_555
N4 N5 1_555 1_555
N6 C3 1_555 1_555
C1 N1 1_555 1_555
H1 C1 1_555 1_555
C2 N2 1_555 1_555
H2 C2 1_555 1_555
C3 N4 1_555 1_555
H3 C3 1_555 1_555
Cu5 N19 1_555 1_555
N7 Cu2 1_555 1_555
N13 N26 1_555 1_555
N16 N19 1_555 1_555
N19 C14 1_555 1_555
N22 Cu1 1_555 1_555
N26 C11 1_555 1_555
C5 N7 1_555 1_555
H6 C5 1_555 1_555
C8 N10 1_555 1_555
H9 C8 1_555 1_555
C11 N16 1_555 1_555
H12 C11 1_555 1_555
C14 N26 1_555 1_555
H15 C14 1_555 1_555
H16 C15 1_555 1_555
H19 O2 1_555 1_555
H20 O2 1_555 1_555
N1 N2 1_555 1_555
N3 C1 1_555 1_555
N3 C2 1_555 1_555
N7 N10 1_555 1_555
N13 C5 1_555 1_555
N13 C8 1_555 1_555
H4 C4 1_555 1_555
H5 O1 1_555 1_555
Cu3 Cl6 1_555 1_555
Cu7 N21 1_555 1_555
Cl6 Cu2_2 1_555 1_555
N8 Cu2_2 1_555 1_555
N9 Cu2_2 1_555 1_555
N11 Cu3 1_555 1_555
N14 N27 1_555 1_555
N15 N28 1_555 1_555
N17 N20 1_555 1_555
N18 N21 1_555 1_555
N21 C16 1_555 1_555
N24 Cu3 1_555 1_555
N27 C12 1_555 1_555
N28 C13 1_555 1_555
C6 N8 1_555 1_555
C7 N9 1_555 1_555
H7 C6 1_555 1_555
H8 C7 1_555 1_555
C9 N11 1_555 1_555
C10 N12 1_555 1_555
H10 C9 1_555 1_555
H11 C10 1_555 1_555
C12 N17 1_555 1_555
C13 N18 1_555 1_555
H13 C12 1_555 1_555
H14 C13 1_555 1_555
C16 N28 1_555 1_555
H17 C16 1_555 1_555
H18 O1 1_555 1_555
N8 N11 1_555 1_555
N9 N12 1_555 1_555
N14 C6 1_555 1_555
N14 C9 1_555 1_555
N15 C7 1_555 1_555
N15 C10 1_555 1_555
H15_2 C14_2 1_555 1_555
H16_2 C15_2 1_555 1_555
H19_2 O2_2 1_555 1_555
H20_2 O2_2 1_555 1_555
Cu6 Cl5_2 1_555 1_555
Cu2_4 Cl5_2 1_555 1_555
N8_2 Cu2_5 1_555 1_555
N14_2 N27_2 1_555 1_555
N17_2 N20_2 1_555 1_555
N27_2 C12_2 1_555 1_555
C6_2 N8_2 1_555 1_555
C9_2 N11_2 1_555 1_555
H10_2 C9_2 1_555 1_555
C12_2 N17_2 1_555 1_555
H13_2 C12_2 1_555 1_555
N8_2 N11_2 1_555 1_555
N14_2 C6_2 1_555 1_555
N14_2 C9_2 1_555 1_555
N9_2 Cu2_6 1_555 1_555
N15_2 N28_2 1_555 1_555
N18_2 N25 1_555 1_555
N28_2 C13_2 1_555 1_555
C7_2 N9_2 1_555 1_555
C10_2 N12_2 1_555 1_555
H11_2 C10_2 1_555 1_555
C13_2 N18_2 1_555 1_555
H14_2 C13_2 1_555 1_555
N9_2 N12_2 1_555 1_555
N15_2 C7_2 1_555 1_555
N15_2 C10_2 1_555 1_555
N7_2 Cu2_7 1_555 1_555
N13_2 N26_2 1_555 1_555
N16_2 N23 1_555 1_555
N26_2 C11_2 1_555 1_555
C5_2 N7_2 1_555 1_555
C8_2 N10_2 1_555 1_555
H9_2 C8_2 1_555 1_555
C11_2 N16_2 1_555 1_555
H12_2 C11_2 1_555 1_555
N7_2 N10_2 1_555 1_555
N13_2 C5_2 1_555 1_555
N13_2 C8_2 1_555 1_555
N1_2 Cu2_8 1_555 1_555
N3_2 N6_2 1_555 1_555
N4_2 N5_2 1_555 1_555
N6_2 C3_2 1_555 1_555
C1_2 N1_2 1_555 1_555
C2_2 N2_2 1_555 1_555
H2_2 C2_2 1_555 1_555
C3_2 N4_2 1_555 1_555
H3_2 C3_2 1_555 1_555
N1_2 N2_2 1_555 1_555
N3_2 C1_2 1_555 1_555
N3_2 C2_2 1_555 1_555
Cu4 Cl6_2 1_555 1_555
Cl6_2 Cu2_9 1_555 1_555
H4_2 C4_2 1_555 1_555
H5_2 O1_2 1_555 1_555
H17_2 C16_2 1_555 1_555
H18_2 O1_2 1_555 1_555
Cu7 Cl6_3 1_555 1_555
Cu6_2 N19_2 1_555 1_555
Cl6_3 Cu2_11 1_555 1_555
O2_3 Cu7 1_555 1_555
N7_3 Cu2_11 1_555 1_555
N8_3 Cu2_11 1_555 1_555
N10_3 Cu7 1_555 1_555
N11_3 Cu7 1_555 1_555
N13_3 N26_3 1_555 1_555
N14_3 N27_3 1_555 1_555
N16_3 N19_2 1_555 1_555
N17_3 N22 1_555 1_555
N19_2 C14_3 1_555 1_555
N22 C15_3 1_555 1_555
N24_2 Cu7 1_555 1_555
N26_3 C11_3 1_555 1_555
N27_3 C12_3 1_555 1_555
C5_3 N7_3 1_555 1_555
C6_3 N8_3 1_555 1_555
C8_3 N10_3 1_555 1_555
C9_3 N11_3 1_555 1_555
H9_3 C8_3 1_555 1_555
H10_3 C9_3 1_555 1_555
C11_3 N16_3 1_555 1_555
C12_3 N17_3 1_555 1_555
H12_3 C11_3 1_555 1_555
H13_3 C12_3 1_555 1_555
C14_3 N26_3 1_555 1_555
C15_3 N27_3 1_555 1_555
H15_3 C14_3 1_555 1_555
H16_3 C15_3 1_555 1_555
H19_3 O2_3 1_555 1_555
H20_3 O2_3 1_555 1_555
N7_3 N10_3 1_555 1_555
N8_3 N11_3 1_555 1_555
N13_3 C5_3 1_555 1_555
N13_3 C8_3 1_555 1_555
N14_3 C6_3 1_555 1_555
N14_3 C9_3 1_555 1_555
Cu5 Cl5_3 1_555 1_555
Cu2_12 Cl5_3 1_555 1_555
O1_3 Cu5 1_555 1_555
N1_3 Cu2_12 1_555 1_555
N2_3 Cu5 1_555 1_555
N3_3 N6_3 1_555 1_555
N4_3 N24 1_555 1_555
N24 C4_3 1_555 1_555
N6_3 C3_3 1_555 1_555
C1_3 N1_3 1_555 1_555
C2_3 N2_3 1_555 1_555
H2_3 C2_3 1_555 1_555
C3_3 N4_3 1_555 1_555
H3_3 C3_3 1_555 1_555
C4_3 N6_3 1_555 1_555
H4_3 C4_3 1_555 1_555
H5_3 O1_3 1_555 1_555
Cu4_2 N21_2 1_555 1_555
N9_3 Cu2_12 1_555 1_555
N12_3 Cu5 1_555 1_555
N15_3 N28_3 1_555 1_555
N18_3 N21_2 1_555 1_555
N21_2 C16_3 1_555 1_555
N22_2 Cu5 1_555 1_555
N28_3 C13_3 1_555 1_555
C7_3 N9_3 1_555 1_555
C10_3 N12_3 1_555 1_555
H11_3 C10_3 1_555 1_555
C13_3 N18_3 1_555 1_555
H14_3 C13_3 1_555 1_555
C16_3 N28_3 1_555 1_555
H17_3 C16_3 1_555 1_555
H18_3 O1_3 1_555 1_555
N1_3 N2_3 1_555 1_555
N3_3 C1_3 1_555 1_555
N3_3 C2_3 1_555 1_555
N9_3 N12_3 1_555 1_555
N15_3 C7_3 1_555 1_555
N15_3 C10_3 1_555 1_555
Cu6_2 Cl5_4 1_555 1_555
Cu2_13 Cl5_4 1_555 1_555
N8_4 Cu2_13 1_555 1_555
N9_4 Cu2_13 1_555 1_555
N12_4 Cu6_2 1_555 1_555
N14_4 N27_4 1_555 1_555
N15_4 N28_4 1_555 1_555
N17_4 N22_2 1_555 1_555
N18_4 N25_2 1_555 1_555
N22_2 C15_4 1_555 1_555
N27_4 C12_4 1_555 1_555
N28_4 C13_4 1_555 1_555
C6_4 N8_4 1_555 1_555
C7_4 N9_4 1_555 1_555
H7_4 C6_4 1_555 1_555
H8_4 C7_4 1_555 1_555
C9_4 N11_4 1_555 1_555
C10_4 N12_4 1_555 1_555
H10_4 C9_4 1_555 1_555
H11_4 C10_4 1_555 1_555
C12_4 N17_4 1_555 1_555
C13_4 N18_4 1_555 1_555
H13_4 C12_4 1_555 1_555
H14_4 C13_4 1_555 1_555
C15_4 N27_4 1_555 1_555
H15_4 C14_4 1_555 1_555
H16_4 C15_4 1_555 1_555
H19_4 O2_4 1_555 1_555
H20_4 O2_4 1_555 1_555
N8_4 N11_4 1_555 1_555
N9_4 N12_4 1_555 1_555
N14_4 C6_4 1_555 1_555
N14_4 C9_4 1_555 1_555
N15_4 C7_4 1_555 1_555
N15_4 C10_4 1_555 1_555
N1_4 Cu2_14 1_555 1_555
N3_4 N6_4 1_555 1_555
N4_4 N24_2 1_555 1_555
N24_2 C4_4 1_555 1_555
N6_4 C3_4 1_555 1_555
C1_4 N1_4 1_555 1_555
H1_4 C1_4 1_555 1_555
C2_4 N2_4 1_555 1_555
H2_4 C2_4 1_555 1_555
C3_4 N4_4 1_555 1_555
H3_4 C3_4 1_555 1_555
C4_4 N6_4 1_555 1_555
H4_4 C4_4 1_555 1_555
H5_4 O1_4 1_555 1_555
Cu4_2 Cl6_4 1_555 1_555
Cl6_4 Cu2_14 1_555 1_555
N7_4 Cu2_14 1_555 1_555
N10_4 Cu4_2 1_555 1_555
N13_4 N26_4 1_555 1_555
N16_4 N23_2 1_555 1_555
N26_4 C11_4 1_555 1_555
C5_4 N7_4 1_555 1_555
H6_4 C5_4 1_555 1_555
C8_4 N10_4 1_555 1_555
H9_4 C8_4 1_555 1_555
C11_4 N16_4 1_555 1_555
H12_4 C11_4 1_555 1_555
H17_4 C16_4 1_555 1_555
H18_4 O1_4 1_555 1_555
N1_4 N2_4 1_555 1_555
N3_4 C1_4 1_555 1_555
N3_4 C2_4 1_555 1_555
N7_4 N10_4 1_555 1_555
N13_4 C5_4 1_555 1_555
N13_4 C8_4 1_555 1_555

#END
