
###############################################################################
#
# This file contains modified crystal structure data generated from the
# MOF subset of the Cambridge Structural Database (CSD) v543 
# hosted by the Cambridge Crystallographic Data Centre (CCDC).
#
# This work is licensed under the Creative Commons
# Attribution-NonCommercial-ShareAlike 4.0 International License.
# To view a copy of this license, visit
# http://creativecommons.org/licenses/by-nc-sa/4.0/
# or send a letter to
# Creative Commons, PO Box 1866, Mountain View, CA 94042, USA.
#
# CIF created using the CSD Python API on 29 September 2022
# The structure has been converted into the P1 space group
# The structure has a 3D framework
# The original CSD entry NEVQAH is in the tetragonal crystal system
# The framework has been calculated to contain at least 10.0% void space
# The void calculation uses a probe of radius 1.32A, grid spacing 0.4
# The framework is charged, counterions have been retained in the structure
#
###############################################################################

data_NEVQAH
_chemical_formula_moiety         '(C64 H80 Cl24 Cu22 Hg4 N96 O8 28+)n'
_symmetry_cell_setting           triclinic
_symmetry_space_group_name_H-M   'P 1'
_symmetry_Int_Tables_number      1
_space_group_name_Hall           'P 1'
loop_
_symmetry_equiv_pos_site_id
_symmetry_equiv_pos_as_xyz
1 x,y,z
_cell_length_a                   18.0808(13)
_cell_length_b                   18.0808(13)
_cell_length_c                   13.2342(13)
_cell_angle_alpha                90
_cell_angle_beta                 90
_cell_angle_gamma                90
_cell_volume                     4326.46
loop_
_atom_site_label
_atom_site_type_symbol
_atom_site_fract_x
_atom_site_fract_y
_atom_site_fract_z
Hg1 Hg 0.2500 0.7500 0.2500
Cl1 Cl 0.14360(13) 0.78656(13) 0.14119(17)
Cl2 Cl 0.28656(13) 0.85640(13) 0.35881(17)
Cl3 Cl 0.21344(13) 0.64360(13) 0.35881(17)
Cl4 Cl 0.35640(13) 0.71344(13) 0.14119(17)
Hg1_2 Hg 0.7500 0.2500 0.7500
Cl1_2 Cl 0.71344(13) 0.14360(13) 0.64119(17)
Cl2_2 Cl 0.64360(13) 0.28656(13) 0.85881(17)
Cl3_2 Cl 0.85640(13) 0.21344(13) 0.85881(17)
Cl4_2 Cl 0.78656(13) 0.35640(13) 0.64119(17)
Hg1_3 Hg 0.2500 0.7500 0.7500
Cl1_3 Cl 0.28656(13) 0.64360(13) 0.85881(17)
Cl2_3 Cl 0.35640(13) 0.78656(13) 0.64119(17)
Cl3_3 Cl 0.14360(13) 0.71344(13) 0.64119(17)
Cl4_3 Cl 0.21344(13) 0.85640(13) 0.85881(17)
Hg1_4 Hg 0.7500 0.2500 0.2500
Cl1_4 Cl 0.85640(13) 0.28656(13) 0.35881(17)
Cl2_4 Cl 0.71344(13) 0.35640(13) 0.14119(17)
Cl3_4 Cl 0.78656(13) 0.14360(13) 0.14119(17)
Cl4_4 Cl 0.64360(13) 0.21344(13) 0.35881(17)
Cu1 Cu 0.01156(5) 0.48844(5) 0.23499(9)
Cu2 Cu -0.0000 0.5000 0.5000
Cl5 Cl 0.08000(11) 0.42000(11) 0.3768(2)
N1 N 0.0194(4) 0.5896(4) 0.4145(5)
N2 N 0.0227(4) 0.5872(3) 0.3101(5)
N3 N 0.0283(3) 0.7008(3) 0.3605(5)
N4 N 0.0775(4) 0.8863(4) 0.3871(5)
N5 N 0.0120(4) 0.8909(4) 0.3318(5)
N6 N 0.0342(4) 0.7767(4) 0.3601(5)
C1 C 0.0216(5) 0.6577(4) 0.4431(6)
H1 H 0.0199 0.6749 0.5116
C2 C 0.0290(5) 0.6550(5) 0.2782(6)
H2 H 0.0338 0.6701 0.2091
C3 C 0.0885(5) 0.8165(5) 0.4026(7)
H3 H 0.1293 0.7961 0.4391
Cu5 Cu 0.48844(5) 0.48844(5) 0.73499(9)
Cu6 Cu 0.01156(5) 0.01156(5) 0.73499(9)
O2 O 0.0419(5) 0.4581(5) 0.9126(8)
N7 N 0.0896(4) 0.5194(4) 0.5855(5)
N10 N 0.0872(3) 0.5227(4) 0.6899(5)
N13 N 0.2008(3) 0.5283(3) 0.6395(5)
N16 N 0.3863(4) 0.5775(4) 0.6129(5)
N19 N 0.3909(4) 0.5120(4) 0.6682(5)
N22 N 0.1091(4) 0.5120(4) 0.1682(5)
N25 N 0.0120(4) 0.6091(4) 0.8318(5)
N26 N 0.2767(4) 0.5342(4) 0.6399(5)
C5 C 0.1577(4) 0.5216(5) 0.5569(6)
H6 H 0.1749 0.5199 0.4884
C8 C 0.1550(5) 0.5290(5) 0.7218(6)
H9 H 0.1701 0.5338 0.7909
C11 C 0.3165(5) 0.5885(5) 0.5974(7)
H12 H 0.2961 0.6293 0.5609
C14 C 0.3249(5) 0.4870(5) 0.6842(7)
C15 C 0.0130(5) 0.1751(5) 0.6842(7)
H15 H 0.3127 0.4434 0.7213
H16 H 0.0566 0.1873 0.7213
H19 H 0.0906 0.4612 0.9109
H20 H 0.0388 0.4094 0.9109
Cu2_2 Cu 1.0000 0.5000 0.5000
O1 O 0.9581(5) 0.5419(5) 0.0874(8)
C4 C 0.9870(5) 0.8249(5) 0.3158(7)
H4 H 0.9434 0.8127 0.2787
H5 H 0.9612 0.5906 0.0891
Cu3 Cu 0.98844(5) 0.51156(5) 0.76501(9)
Cu4 Cu 0.98844(5) 0.98844(5) 0.26501(9)
Cu7 Cu 0.51156(5) 0.51156(5) 0.26501(9)
Cl6 Cl 0.92000(11) 0.58000(11) 0.6232(2)
N8 N 0.9806(4) 0.4104(4) 0.5855(5)
N9 N 0.9104(4) 0.4806(4) 0.4145(5)
N11 N 0.9773(4) 0.4128(3) 0.6899(5)
N12 N 0.9128(3) 0.4773(4) 0.3101(5)
N14 N 0.9717(3) 0.2992(3) 0.6395(5)
N15 N 0.7992(3) 0.4717(3) 0.3605(5)
N17 N 0.9225(4) 0.1137(4) 0.6129(5)
N18 N 0.6137(4) 0.4225(4) 0.3871(5)
N20 N 0.9880(4) 0.1091(4) 0.6682(5)
N21 N 0.6091(4) 0.4880(4) 0.3318(5)
N23 N 0.9880(4) 0.3909(4) 0.1682(5)
N24 N 0.8909(4) 0.4880(4) 0.8318(5)
N27 N 0.9658(4) 0.2233(4) 0.6399(5)
N28 N 0.7233(4) 0.4658(4) 0.3601(5)
C6 C 0.9784(5) 0.3423(4) 0.5569(6)
C7 C 0.8423(4) 0.4784(5) 0.4431(6)
H7 H 0.9801 0.3251 0.4884
H8 H 0.8251 0.4801 0.5116
C9 C 0.9710(5) 0.3450(5) 0.7218(6)
C10 C 0.8450(5) 0.4710(5) 0.2782(6)
H10 H 0.9662 0.3299 0.7909
H11 H 0.8299 0.4662 0.2091
C12 C 0.9115(5) 0.1835(5) 0.5974(7)
C13 C 0.6835(5) 0.4115(5) 0.4026(7)
H13 H 0.8707 0.2039 0.5609
H14 H 0.7039 0.3707 0.4391
C16 C 0.6751(5) 0.5130(5) 0.3158(7)
H17 H 0.6873 0.5566 0.2787
H18 H 0.9094 0.5388 0.0891
Cu2_3 Cu 0.0000 -0.0000 0.0000
Cu6_2 Cu 0.48844(5) 0.01156(5) 0.23499(9)
O2_2 O 0.0419(5) 0.0419(5) 0.4126(8)
C14_2 C 0.0130(5) 0.3249(5) 0.1842(7)
C15_2 C 0.3249(5) 0.0130(5) 0.1842(7)
H15_2 H 0.0566 0.3127 0.2213
H16_2 H 0.3127 0.0566 0.2213
H19_2 H 0.0388 0.0906 0.4109
H20_2 H 0.0906 0.0388 0.4109
Cu2_4 Cu 0.0000 0.0000 1.0000
Cl5_2 Cl 0.08000(11) 0.08000(11) 0.8768(2)
Cu2_5 Cu 0.0000 1.0000 0.0000
N8_2 N 0.0896(4) 0.9806(4) 0.0855(5)
N11_2 N 0.0872(3) 0.9773(4) 0.1899(5)
N14_2 N 0.2008(3) 0.9717(3) 0.1395(5)
N17_2 N 0.3863(4) 0.9225(4) 0.1129(5)
N20_2 N 0.3909(4) 0.9880(4) 0.1682(5)
N27_2 N 0.2767(4) 0.9658(4) 0.1399(5)
C6_2 C 0.1577(4) 0.9784(5) 0.0569(6)
H8_2 H 0.0199 0.8251 0.0116
C9_2 C 0.1550(5) 0.9710(5) 0.2218(6)
H10_2 H 0.1701 0.9662 0.2909
C12_2 C 0.3165(5) 0.9115(5) 0.0974(7)
H13_2 H 0.2961 0.8707 0.0609
Cu2_6 Cu 0.0000 1.0000 1.0000
N9_2 N 0.0194(4) 0.9104(4) 0.9145(5)
N12_2 N 0.0227(4) 0.9128(3) 0.8101(5)
N15_2 N 0.0283(3) 0.7992(3) 0.8605(5)
N18_2 N 0.0775(4) 0.6137(4) 0.8871(5)
N23_2 N 0.1091(4) 0.9880(4) 0.6682(5)
N28_2 N 0.0342(4) 0.7233(4) 0.8601(5)
C7_2 C 0.0216(5) 0.8423(4) 0.9431(6)
H7_2 H 0.1749 0.9801 0.9884
C10_2 C 0.0290(5) 0.8450(5) 0.7782(6)
H11_2 H 0.0338 0.8299 0.7091
C13_2 C 0.0885(5) 0.6835(5) 0.9026(7)
H14_2 H 0.1293 0.7039 0.9391
Cu2_7 Cu 1.0000 -0.0000 0.0000
H1_2 H 0.8251 0.0199 0.0116
N7_2 N 0.9806(4) 0.0896(4) 0.0855(5)
N10_2 N 0.9773(4) 0.0872(3) 0.1899(5)
N13_2 N 0.9717(3) 0.2008(3) 0.1395(5)
N16_2 N 0.9225(4) 0.3863(4) 0.1129(5)
N25_2 N 0.8909(4) 0.0120(4) 0.3318(5)
N26_2 N 0.9658(4) 0.2767(4) 0.1399(5)
C5_2 C 0.9784(5) 0.1577(4) 0.0569(6)
C8_2 C 0.9710(5) 0.1550(5) 0.2218(6)
H9_2 H 0.9662 0.1701 0.2909
C11_2 C 0.9115(5) 0.3165(5) 0.0974(7)
H12_2 H 0.8707 0.2961 0.0609
Cu2_8 Cu 1.0000 0.0000 1.0000
N1_2 N 0.9104(4) 0.0194(4) 0.9145(5)
N2_2 N 0.9128(3) 0.0227(4) 0.8101(5)
N3_2 N 0.7992(3) 0.0283(3) 0.8605(5)
N4_2 N 0.6137(4) 0.0775(4) 0.8871(5)
N5_2 N 0.6091(4) 0.0120(4) 0.8318(5)
N6_2 N 0.7233(4) 0.0342(4) 0.8601(5)
C1_2 C 0.8423(4) 0.0216(5) 0.9431(6)
C2_2 C 0.8450(5) 0.0290(5) 0.7782(6)
H2_2 H 0.8299 0.0338 0.7091
C3_2 C 0.6835(5) 0.0885(5) 0.9026(7)
H3_2 H 0.7039 0.1293 0.9391
H6_2 H 0.9801 0.1749 0.9884
Cu2_9 Cu 1.0000 1.0000 0.0000
Cl6_2 Cl 0.92000(11) 0.92000(11) 0.1232(2)
Cu2_10 Cu 1.0000 1.0000 1.0000
O1_2 O 0.9581(5) 0.9581(5) 0.5874(8)
C4_2 C 0.6751(5) 0.9870(5) 0.8158(7)
H4_2 H 0.6873 0.9434 0.7787
H5_2 H 0.9094 0.9612 0.5891
Cu4_2 Cu 0.51156(5) 0.98844(5) 0.76501(9)
C16_2 C 0.9870(5) 0.6751(5) 0.8158(7)
H17_2 H 0.9434 0.6873 0.7787
H18_2 H 0.9612 0.9094 0.5891
Cu2_11 Cu 0.5000 0.5000 0.0000
H1_3 H 0.6749 0.4801 0.0116
Cl6_3 Cl 0.58000(11) 0.58000(11) 0.1232(2)
O2_3 O 0.4581(5) 0.4581(5) 0.4126(8)
N7_3 N 0.5194(4) 0.4104(4) 0.0855(5)
N8_3 N 0.4104(4) 0.5194(4) 0.0855(5)
N10_3 N 0.5227(4) 0.4128(3) 0.1899(5)
N11_3 N 0.4128(3) 0.5227(4) 0.1899(5)
N13_3 N 0.5283(3) 0.2992(3) 0.1395(5)
N14_3 N 0.2992(3) 0.5283(3) 0.1395(5)
N16_3 N 0.5775(4) 0.1137(4) 0.1129(5)
N17_3 N 0.1137(4) 0.5775(4) 0.1129(5)
N19_2 N 0.5120(4) 0.1091(4) 0.1682(5)
N24_2 N 0.4880(4) 0.6091(4) 0.3318(5)
N26_3 N 0.5342(4) 0.2233(4) 0.1399(5)
N27_3 N 0.2233(4) 0.5342(4) 0.1399(5)
C5_3 C 0.5216(5) 0.3423(4) 0.0569(6)
C6_3 C 0.3423(4) 0.5216(5) 0.0569(6)
H8_3 H 0.4801 0.6749 0.0116
C8_3 C 0.5290(5) 0.3450(5) 0.2218(6)
C9_3 C 0.3450(5) 0.5290(5) 0.2218(6)
H9_3 H 0.5338 0.3299 0.2909
H10_3 H 0.3299 0.5338 0.2909
C11_3 C 0.5885(5) 0.1835(5) 0.0974(7)
C12_3 C 0.1835(5) 0.5885(5) 0.0974(7)
H12_3 H 0.6293 0.2039 0.0609
H13_3 H 0.2039 0.6293 0.0609
C14_3 C 0.4870(5) 0.1751(5) 0.1842(7)
C15_3 C 0.1751(5) 0.4870(5) 0.1842(7)
H15_3 H 0.4434 0.1873 0.2213
H16_3 H 0.1873 0.4434 0.2213
H19_3 H 0.4612 0.4094 0.4109
H20_3 H 0.4094 0.4612 0.4109
Cu2_12 Cu 0.5000 0.5000 1.0000
Cl5_3 Cl 0.42000(11) 0.42000(11) 0.8768(2)
O1_3 O 0.5419(5) 0.5419(5) 0.5874(8)
N1_3 N 0.5896(4) 0.4806(4) 0.9145(5)
N2_3 N 0.5872(3) 0.4773(4) 0.8101(5)
N3_3 N 0.7008(3) 0.4717(3) 0.8605(5)
N4_3 N 0.8863(4) 0.4225(4) 0.8871(5)
N6_3 N 0.7767(4) 0.4658(4) 0.8601(5)
C1_3 C 0.6577(4) 0.4784(5) 0.9431(6)
C2_3 C 0.6550(5) 0.4710(5) 0.7782(6)
H2_3 H 0.6701 0.4662 0.7091
C3_3 C 0.8165(5) 0.4115(5) 0.9026(7)
H3_3 H 0.7961 0.3707 0.9391
C4_3 C 0.8249(5) 0.5130(5) 0.8158(7)
H4_3 H 0.8127 0.5566 0.7787
H5_3 H 0.5906 0.5388 0.5891
N9_3 N 0.4806(4) 0.5896(4) 0.9145(5)
N12_3 N 0.4773(4) 0.5872(3) 0.8101(5)
N15_3 N 0.4717(3) 0.7008(3) 0.8605(5)
N18_3 N 0.4225(4) 0.8863(4) 0.8871(5)
N21_2 N 0.4880(4) 0.8909(4) 0.8318(5)
N22_2 N 0.5120(4) 0.3909(4) 0.6682(5)
N28_3 N 0.4658(4) 0.7767(4) 0.8601(5)
C7_3 C 0.4784(5) 0.6577(4) 0.9431(6)
H6_3 H 0.5199 0.3251 0.9884
H7_3 H 0.3251 0.5199 0.9884
C10_3 C 0.4710(5) 0.6550(5) 0.7782(6)
H11_3 H 0.4662 0.6701 0.7091
C13_3 C 0.4115(5) 0.8165(5) 0.9026(7)
H14_3 H 0.3707 0.7961 0.9391
C16_3 C 0.5130(5) 0.8249(5) 0.8158(7)
H17_3 H 0.5566 0.8127 0.7787
H18_3 H 0.5388 0.5906 0.5891
Cu2_13 Cu 0.5000 0.0000 0.5000
Cl5_4 Cl 0.42000(11) 0.08000(11) 0.3768(2)
O2_4 O 0.4581(5) 0.0419(5) 0.9126(8)
N8_4 N 0.5194(4) 0.0896(4) 0.5855(5)
N9_4 N 0.5896(4) 0.0194(4) 0.4145(5)
N11_4 N 0.5227(4) 0.0872(3) 0.6899(5)
N12_4 N 0.5872(3) 0.0227(4) 0.3101(5)
N14_4 N 0.5283(3) 0.2008(3) 0.6395(5)
N15_4 N 0.7008(3) 0.0283(3) 0.3605(5)
N17_4 N 0.5775(4) 0.3863(4) 0.6129(5)
N18_4 N 0.8863(4) 0.0775(4) 0.3871(5)
N27_4 N 0.5342(4) 0.2767(4) 0.6399(5)
N28_4 N 0.7767(4) 0.0342(4) 0.3601(5)
C6_4 C 0.5216(5) 0.1577(4) 0.5569(6)
C7_4 C 0.6577(4) 0.0216(5) 0.4431(6)
H7_4 H 0.5199 0.1749 0.4884
H8_4 H 0.6749 0.0199 0.5116
C9_4 C 0.5290(5) 0.1550(5) 0.7218(6)
C10_4 C 0.6550(5) 0.0290(5) 0.2782(6)
H10_4 H 0.5338 0.1701 0.7909
H11_4 H 0.6701 0.0338 0.2091
C12_4 C 0.5885(5) 0.3165(5) 0.5974(7)
C13_4 C 0.8165(5) 0.0885(5) 0.4026(7)
H13_4 H 0.6293 0.2961 0.5609
H14_4 H 0.7961 0.1293 0.4391
C14_4 C 0.1751(5) 0.0130(5) 0.6842(7)
C15_4 C 0.4870(5) 0.3249(5) 0.6842(7)
H15_4 H 0.1873 0.0566 0.7213
H16_4 H 0.4434 0.3127 0.7213
H19_4 H 0.4094 0.0388 0.9109
H20_4 H 0.4612 0.0906 0.9109
Cu2_14 Cu 0.5000 1.0000 0.5000
O1_4 O 0.5419(5) 0.9581(5) 0.0874(8)
N1_4 N 0.4806(4) 0.9104(4) 0.4145(5)
N2_4 N 0.4773(4) 0.9128(3) 0.3101(5)
N3_4 N 0.4717(3) 0.7992(3) 0.3605(5)
N4_4 N 0.4225(4) 0.6137(4) 0.3871(5)
N6_4 N 0.4658(4) 0.7233(4) 0.3601(5)
C1_4 C 0.4784(5) 0.8423(4) 0.4431(6)
H1_4 H 0.4801 0.8251 0.5116
C2_4 C 0.4710(5) 0.8450(5) 0.2782(6)
H2_4 H 0.4662 0.8299 0.2091
C3_4 C 0.4115(5) 0.6835(5) 0.4026(7)
H3_4 H 0.3707 0.7039 0.4391
C4_4 C 0.5130(5) 0.6751(5) 0.3158(7)
H4_4 H 0.5566 0.6873 0.2787
H5_4 H 0.5388 0.9094 0.0891
Cl6_4 Cl 0.58000(11) 0.92000(11) 0.6232(2)
N7_4 N 0.4104(4) 0.9806(4) 0.5855(5)
N10_4 N 0.4128(3) 0.9773(4) 0.6899(5)
N13_4 N 0.2992(3) 0.9717(3) 0.6395(5)
N16_4 N 0.1137(4) 0.9225(4) 0.6129(5)
N26_4 N 0.2233(4) 0.9658(4) 0.6399(5)
C5_4 C 0.3423(4) 0.9784(5) 0.5569(6)
H6_4 H 0.3251 0.9801 0.4884
C8_4 C 0.3450(5) 0.9710(5) 0.7218(6)
H9_4 H 0.3299 0.9662 0.7909
C11_4 C 0.1835(5) 0.9115(5) 0.5974(7)
H12_4 H 0.2039 0.8707 0.5609
C16_4 C 0.8249(5) 0.9870(5) 0.3158(7)
H17_4 H 0.8127 0.9434 0.2787
H18_4 H 0.5906 0.9612 0.0891
loop_
_geom_bond_atom_site_label_1
_geom_bond_atom_site_label_2
_geom_bond_site_symmetry_1
_geom_bond_site_symmetry_2
Hg1 Cl1 1_555 1_555
Cl2 Hg1 1_555 1_555
Cl3 Hg1 1_555 1_555
Cl4 Hg1 1_555 1_555
Hg1_2 Cl1_2 1_555 1_555
Cl2_2 Hg1_2 1_555 1_555
Cl3_2 Hg1_2 1_555 1_555
Cl4_2 Hg1_2 1_555 1_555
Hg1_3 Cl1_3 1_555 1_555
Cl2_3 Hg1_3 1_555 1_555
Cl3_3 Hg1_3 1_555 1_555
Cl4_3 Hg1_3 1_555 1_555
Hg1_4 Cl1_4 1_555 1_555
Cl2_4 Hg1_4 1_555 1_555
Cl3_4 Hg1_4 1_555 1_555
Cl4_4 Hg1_4 1_555 1_555
Cu1 Cl5 1_555 1_555
Cu2 Cl5 1_555 1_555
N1 Cu2 1_555 1_555
N2 Cu1 1_555 1_555
N3 N6 1_555 1_555
N4 N5 1_555 1_555
N6 C3 1_555 1_555
C1 N1 1_555 1_555
H1 C1 1_555 1_555
C2 N2 1_555 1_555
H2 C2 1_555 1_555
C3 N4 1_555 1_555
H3 C3 1_555 1_555
Cu5 N19 1_555 1_555
N7 Cu2 1_555 1_555
N13 N26 1_555 1_555
N16 N19 1_555 1_555
N19 C14 1_555 1_555
N22 Cu1 1_555 1_555
N26 C11 1_555 1_555
C5 N7 1_555 1_555
H6 C5 1_555 1_555
C8 N10 1_555 1_555
H9 C8 1_555 1_555
C11 N16 1_555 1_555
H12 C11 1_555 1_555
C14 N26 1_555 1_555
H15 C14 1_555 1_555
H16 C15 1_555 1_555
H19 O2 1_555 1_555
H20 O2 1_555 1_555
N1 N2 1_555 1_555
N3 C1 1_555 1_555
N3 C2 1_555 1_555
N7 N10 1_555 1_555
N13 C5 1_555 1_555
N13 C8 1_555 1_555
H4 C4 1_555 1_555
H5 O1 1_555 1_555
Cu3 Cl6 1_555 1_555
Cu7 N21 1_555 1_555
Cl6 Cu2_2 1_555 1_555
N8 Cu2_2 1_555 1_555
N9 Cu2_2 1_555 1_555
N11 Cu3 1_555 1_555
N14 N27 1_555 1_555
N15 N28 1_555 1_555
N17 N20 1_555 1_555
N18 N21 1_555 1_555
N21 C16 1_555 1_555
N24 Cu3 1_555 1_555
N27 C12 1_555 1_555
N28 C13 1_555 1_555
C6 N8 1_555 1_555
C7 N9 1_555 1_555
H7 C6 1_555 1_555
H8 C7 1_555 1_555
C9 N11 1_555 1_555
C10 N12 1_555 1_555
H10 C9 1_555 1_555
H11 C10 1_555 1_555
C12 N17 1_555 1_555
C13 N18 1_555 1_555
H13 C12 1_555 1_555
H14 C13 1_555 1_555
C16 N28 1_555 1_555
H17 C16 1_555 1_555
H18 O1 1_555 1_555
N8 N11 1_555 1_555
N9 N12 1_555 1_555
N14 C6 1_555 1_555
N14 C9 1_555 1_555
N15 C7 1_555 1_555
N15 C10 1_555 1_555
H15_2 C14_2 1_555 1_555
H16_2 C15_2 1_555 1_555
H19_2 O2_2 1_555 1_555
H20_2 O2_2 1_555 1_555
Cu6 Cl5_2 1_555 1_555
Cu2_4 Cl5_2 1_555 1_555
N8_2 Cu2_5 1_555 1_555
N14_2 N27_2 1_555 1_555
N17_2 N20_2 1_555 1_555
N27_2 C12_2 1_555 1_555
C6_2 N8_2 1_555 1_555
C9_2 N11_2 1_555 1_555
H10_2 C9_2 1_555 1_555
C12_2 N17_2 1_555 1_555
H13_2 C12_2 1_555 1_555
N8_2 N11_2 1_555 1_555
N14_2 C6_2 1_555 1_555
N14_2 C9_2 1_555 1_555
N9_2 Cu2_6 1_555 1_555
N15_2 N28_2 1_555 1_555
N18_2 N25 1_555 1_555
N28_2 C13_2 1_555 1_555
C7_2 N9_2 1_555 1_555
C10_2 N12_2 1_555 1_555
H11_2 C10_2 1_555 1_555
C13_2 N18_2 1_555 1_555
H14_2 C13_2 1_555 1_555
N9_2 N12_2 1_555 1_555
N15_2 C7_2 1_555 1_555
N15_2 C10_2 1_555 1_555
N7_2 Cu2_7 1_555 1_555
N13_2 N26_2 1_555 1_555
N16_2 N23 1_555 1_555
N26_2 C11_2 1_555 1_555
C5_2 N7_2 1_555 1_555
C8_2 N10_2 1_555 1_555
H9_2 C8_2 1_555 1_555
C11_2 N16_2 1_555 1_555
H12_2 C11_2 1_555 1_555
N7_2 N10_2 1_555 1_555
N13_2 C5_2 1_555 1_555
N13_2 C8_2 1_555 1_555
N1_2 Cu2_8 1_555 1_555
N3_2 N6_2 1_555 1_555
N4_2 N5_2 1_555 1_555
N6_2 C3_2 1_555 1_555
C1_2 N1_2 1_555 1_555
C2_2 N2_2 1_555 1_555
H2_2 C2_2 1_555 1_555
C3_2 N4_2 1_555 1_555
H3_2 C3_2 1_555 1_555
N1_2 N2_2 1_555 1_555
N3_2 C1_2 1_555 1_555
N3_2 C2_2 1_555 1_555
Cu4 Cl6_2 1_555 1_555
Cl6_2 Cu2_9 1_555 1_555
H4_2 C4_2 1_555 1_555
H5_2 O1_2 1_555 1_555
H17_2 C16_2 1_555 1_555
H18_2 O1_2 1_555 1_555
Cu7 Cl6_3 1_555 1_555
Cu6_2 N19_2 1_555 1_555
Cl6_3 Cu2_11 1_555 1_555
O2_3 Cu7 1_555 1_555
N7_3 Cu2_11 1_555 1_555
N8_3 Cu2_11 1_555 1_555
N10_3 Cu7 1_555 1_555
N11_3 Cu7 1_555 1_555
N13_3 N26_3 1_555 1_555
N14_3 N27_3 1_555 1_555
N16_3 N19_2 1_555 1_555
N17_3 N22 1_555 1_555
N19_2 C14_3 1_555 1_555
N22 C15_3 1_555 1_555
N24_2 Cu7 1_555 1_555
N26_3 C11_3 1_555 1_555
N27_3 C12_3 1_555 1_555
C5_3 N7_3 1_555 1_555
C6_3 N8_3 1_555 1_555
C8_3 N10_3 1_555 1_555
C9_3 N11_3 1_555 1_555
H9_3 C8_3 1_555 1_555
H10_3 C9_3 1_555 1_555
C11_3 N16_3 1_555 1_555
C12_3 N17_3 1_555 1_555
H12_3 C11_3 1_555 1_555
H13_3 C12_3 1_555 1_555
C14_3 N26_3 1_555 1_555
C15_3 N27_3 1_555 1_555
H15_3 C14_3 1_555 1_555
H16_3 C15_3 1_555 1_555
H19_3 O2_3 1_555 1_555
H20_3 O2_3 1_555 1_555
N7_3 N10_3 1_555 1_555
N8_3 N11_3 1_555 1_555
N13_3 C5_3 1_555 1_555
N13_3 C8_3 1_555 1_555
N14_3 C6_3 1_555 1_555
N14_3 C9_3 1_555 1_555
Cu5 Cl5_3 1_555 1_555
Cu2_12 Cl5_3 1_555 1_555
O1_3 Cu5 1_555 1_555
N1_3 Cu2_12 1_555 1_555
N2_3 Cu5 1_555 1_555
N3_3 N6_3 1_555 1_555
N4_3 N24 1_555 1_555
N24 C4_3 1_555 1_555
N6_3 C3_3 1_555 1_555
C1_3 N1_3 1_555 1_555
C2_3 N2_3 1_555 1_555
H2_3 C2_3 1_555 1_555
C3_3 N4_3 1_555 1_555
H3_3 C3_3 1_555 1_555
C4_3 N6_3 1_555 1_555
H4_3 C4_3 1_555 1_555
H5_3 O1_3 1_555 1_555
Cu4_2 N21_2 1_555 1_555
N9_3 Cu2_12 1_555 1_555
N12_3 Cu5 1_555 1_555
N15_3 N28_3 1_555 1_555
N18_3 N21_2 1_555 1_555
N21_2 C16_3 1_555 1_555
N22_2 Cu5 1_555 1_555
N28_3 C13_3 1_555 1_555
C7_3 N9_3 1_555 1_555
C10_3 N12_3 1_555 1_555
H11_3 C10_3 1_555 1_555
C13_3 N18_3 1_555 1_555
H14_3 C13_3 1_555 1_555
C16_3 N28_3 1_555 1_555
H17_3 C16_3 1_555 1_555
H18_3 O1_3 1_555 1_555
N1_3 N2_3 1_555 1_555
N3_3 C1_3 1_555 1_555
N3_3 C2_3 1_555 1_555
N9_3 N12_3 1_555 1_555
N15_3 C7_3 1_555 1_555
N15_3 C10_3 1_555 1_555
Cu6_2 Cl5_4 1_555 1_555
Cu2_13 Cl5_4 1_555 1_555
N8_4 Cu2_13 1_555 1_555
N9_4 Cu2_13 1_555 1_555
N12_4 Cu6_2 1_555 1_555
N14_4 N27_4 1_555 1_555
N15_4 N28_4 1_555 1_555
N17_4 N22_2 1_555 1_555
N18_4 N25_2 1_555 1_555
N22_2 C15_4 1_555 1_555
N27_4 C12_4 1_555 1_555
N28_4 C13_4 1_555 1_555
C6_4 N8_4 1_555 1_555
C7_4 N9_4 1_555 1_555
H7_4 C6_4 1_555 1_555
H8_4 C7_4 1_555 1_555
C9_4 N11_4 1_555 1_555
C10_4 N12_4 1_555 1_555
H10_4 C9_4 1_555 1_555
H11_4 C10_4 1_555 1_555
C12_4 N17_4 1_555 1_555
C13_4 N18_4 1_555 1_555
H13_4 C12_4 1_555 1_555
H14_4 C13_4 1_555 1_555
C15_4 N27_4 1_555 1_555
H15_4 C14_4 1_555 1_555
H16_4 C15_4 1_555 1_555
H19_4 O2_4 1_555 1_555
H20_4 O2_4 1_555 1_555
N8_4 N11_4 1_555 1_555
N9_4 N12_4 1_555 1_555
N14_4 C6_4 1_555 1_555
N14_4 C9_4 1_555 1_555
N15_4 C7_4 1_555 1_555
N15_4 C10_4 1_555 1_555
N1_4 Cu2_14 1_555 1_555
N3_4 N6_4 1_555 1_555
N4_4 N24_2 1_555 1_555
N24_2 C4_4 1_555 1_555
N6_4 C3_4 1_555 1_555
C1_4 N1_4 1_555 1_555
H1_4 C1_4 1_555 1_555
C2_4 N2_4 1_555 1_555
H2_4 C2_4 1_555 1_555
C3_4 N4_4 1_555 1_555
H3_4 C3_4 1_555 1_555
C4_4 N6_4 1_555 1_555
H4_4 C4_4 1_555 1_555
H5_4 O1_4 1_555 1_555
Cu4_2 Cl6_4 1_555 1_555
Cl6_4 Cu2_14 1_555 1_555
N7_4 Cu2_14 1_555 1_555
N10_4 Cu4_2 1_555 1_555
N13_4 N26_4 1_555 1_555
N16_4 N23_2 1_555 1_555
N26_4 C11_4 1_555 1_555
C5_4 N7_4 1_555 1_555
H6_4 C5_4 1_555 1_555
C8_4 N10_4 1_555 1_555
H9_4 C8_4 1_555 1_555
C11_4 N16_4 1_555 1_555
H12_4 C11_4 1_555 1_555
H17_4 C16_4 1_555 1_555
H18_4 O1_4 1_555 1_555
N1_4 N2_4 1_555 1_555
N3_4 C1_4 1_555 1_555
N3_4 C2_4 1_555 1_555
N7_4 N10_4 1_555 1_555
N13_4 C5_4 1_555 1_555
N13_4 C8_4 1_555 1_555

#END
