
###############################################################################
#
# This file contains modified crystal structure data generated from the
# MOF subset of the Cambridge Structural Database (CSD) v543 
# hosted by the Cambridge Crystallographic Data Centre (CCDC).
#
# This work is licensed under the Creative Commons
# Attribution-NonCommercial-ShareAlike 4.0 International License.
# To view a copy of this license, visit
# http://creativecommons.org/licenses/by-nc-sa/4.0/
# or send a letter to
# Creative Commons, PO Box 1866, Mountain View, CA 94042, USA.
#
# CIF created using the CSD Python API on 29 September 2022
# The structure has been converted into the P1 space group
# The structure has a 3D framework
# The original CSD entry NEVTIU03 is in the tetragonal crystal system
# The framework has been calculated to contain at least 10.0% void space
# The void calculation uses a probe of radius 1.32A, grid spacing 0.4
# H atom positions have been added when not included in the experimental data
# Generated hydrogen atom positions removed from atoms on special positions
#
###############################################################################

data_NEVTIU03
_chemical_formula_moiety         '(C184 H224 Hf22 O72)n'
_symmetry_cell_setting           triclinic
_symmetry_space_group_name_H-M   'P 1'
_symmetry_Int_Tables_number      1
_space_group_name_Hall           'P 1'
loop_
_symmetry_equiv_pos_site_id
_symmetry_equiv_pos_as_xyz
1 x,y,z
_cell_length_a                   19.3430(8)
_cell_length_b                   19.3430(8)
_cell_length_c                   32.3072(19)
_cell_angle_alpha                90
_cell_angle_beta                 90
_cell_angle_gamma                90
_cell_volume                     12087.8
loop_
_atom_site_label
_atom_site_type_symbol
_atom_site_fract_x
_atom_site_fract_y
_atom_site_fract_z
Hf9 Hf -0.0000 0.0000 0.07572(5)
O5 O 0.0158(8) 0.2212(8) 0.0000
C13 C 0.03086(5) 0.42187(5) 0.19624(3)
H5 H 0.0606 0.3830 0.2012
H6 H 0.0558 0.4639 0.2014
H7 H 0.0154 0.4212 0.1680
O6 O 0.0256(3) 0.90959(18) 0.1100(3)
O7 O 0.0584(6) 0.8317(5) 0.05996(10)
C14 C 0.06875(2) 0.68745(5) 0.19309(4)
C15 C 0.08798(8) 0.67248(12) 0.15113(9)
H8 H 0.1036 0.6288 0.1435
C16 C 0.08241(6) 0.72565(13) 0.12233(7)
H9 H 0.0947 0.7166 0.0950
C17 C 0.06001(2) 0.78988(5) 0.13209(4)
C18 C 0.04069(9) 0.80509(12) 0.17423(9)
H10 H 0.0251 0.8488 0.1819
C19 C 0.04621(6) 0.75210(13) 0.20291(7)
H11 H 0.0339 0.7611 0.2302
C20 C 0.07493(2) 0.63235(4) 0.22169(2)
C21 C 0.02410(3) 0.58155(4) 0.22166(3)
C22 C 0.02734(5) 0.52737(5) 0.24998(5)
C23 C 0.12900(3) 0.62901(5) 0.24999(3)
C24 C 0.18161(4) 0.68161(4) 0.2500
C25 C 0.05434(3) 0.84394(8) 0.10287(6)
O10 O 0.40959(18) 0.5256(3) 0.3900(3)
O11 O 0.3317(5) 0.5584(6) 0.44004(10)
C37 C 0.18745(5) 0.56875(2) 0.30691(4)
C38 C 0.17248(12) 0.58798(8) 0.34887(9)
H22 H 0.1288 0.6036 0.3565
C39 C 0.22565(13) 0.58241(6) 0.37767(7)
H23 H 0.2166 0.5947 0.4050
C40 C 0.28988(5) 0.56001(2) 0.36791(4)
C41 C 0.30509(12) 0.54069(9) 0.32577(9)
H24 H 0.3488 0.5251 0.3181
C42 C 0.25210(13) 0.54621(6) 0.29709(7)
H25 H 0.2611 0.5339 0.2698
C43 C 0.13235(4) 0.57493(2) 0.27831(2)
C44 C 0.08155(4) 0.52410(3) 0.27834(3)
C45 C 0.34394(8) 0.55434(3) 0.39713(6)
C46 C 0.07813(5) 0.46914(5) 0.30376(3)
H26 H 0.1170 0.4394 0.2988
H27 H 0.0361 0.4442 0.2986
H28 H 0.0788 0.4846 0.3320
O16 O 0.0390(7) 0.0788(7) 0.0367(5)
Hf4 Hf 0.04144(7) 0.87822(6) 0.0000
Hf6 Hf 0.12178(6) 0.04144(7) 0.0000
Hf8 Hf 0.37822(6) 0.54144(7) 0.5000
Hf9_2 Hf -0.0000 1.0000 0.07572(5)
Hf11 Hf 0.5000 0.5000 0.42428(5)
O19 O 0.09041(18) 0.0256(3) 0.1100(3)
H29 H 0.0633068 0.213594 0.0107217
H33 H 0.157998 0.731766 0.255881
H34 H 0.219328 0.670415 0.274111
H35 H 0.207318 0.682455 0.220016
O5_2 O 0.0158(8) 0.2212(8) 1.0000
Hf4_2 Hf 0.04144(7) 0.87822(6) 1.0000
Hf6_2 Hf 0.12178(6) 0.04144(7) 1.0000
O22 O 0.0390(7) 0.0788(7) 0.9633(5)
H30 H 0.0182939 0.23951 0.971324
O12 O 0.0788(7) 0.9610(7) 0.0367(5)
O13 O 0.1457(8) 0.8403(8) 0.0000
H41 H 0.160601 0.831206 0.0289045
O13_2 O 0.1457(8) 0.8403(8) 1.0000
O20 O 0.0788(7) 0.9610(7) 0.9633(5)
O25 O 0.0584(6) 0.8317(5) 0.94004(10)
H42 H 0.148081 0.796783 0.983757
Hf9_3 Hf 1.0000 0.0000 0.07572(5)
Hf1 Hf 0.95856(7) 0.12178(6) 0.0000
O1 O 0.9744(3) 0.09041(18) 0.1100(3)
O2 O 0.9212(7) 0.0390(7) 0.0367(5)
O3 O 0.9416(6) 0.1683(5) 0.05996(10)
O4 O 0.8543(8) 0.1597(8) 0.0000
C1 C 0.93125(2) 0.31255(5) 0.19309(4)
C2 C 0.91202(8) 0.32752(12) 0.15113(9)
H1 H 0.8964 0.3712 0.1435
C3 C 0.91759(6) 0.27435(13) 0.12233(7)
H2 H 0.9053 0.2834 0.0950
C4 C 0.93999(2) 0.21012(5) 0.13209(4)
C5 C 0.95931(9) 0.19491(12) 0.17423(9)
H3 H 0.9749 0.1512 0.1819
C6 C 0.95379(6) 0.24790(13) 0.20291(7)
H4 H 0.9661 0.2389 0.2302
C7 C 0.92507(2) 0.36765(4) 0.22169(2)
C8 C 0.97590(3) 0.41845(4) 0.22166(3)
C9 C 0.97266(5) 0.47263(5) 0.24998(5)
C10 C 0.87100(3) 0.37099(5) 0.24999(3)
C11 C 0.81839(4) 0.31839(4) 0.2500
C12 C 0.94566(3) 0.15606(8) 0.10287(6)
C26 C 0.96914(5) 0.57813(5) 0.19624(3)
H12 H 0.9394 0.6170 0.2012
H13 H 0.9442 0.5361 0.2014
H14 H 0.9846 0.5788 0.1680
O8 O 0.59041(18) 0.4744(3) 0.3900(3)
O9 O 0.6683(5) 0.4416(6) 0.44004(10)
C27 C 0.81255(5) 0.43125(2) 0.30691(4)
C28 C 0.82752(12) 0.41202(8) 0.34887(9)
H15 H 0.8712 0.3964 0.3565
C29 C 0.77435(13) 0.41759(6) 0.37767(7)
H16 H 0.7834 0.4053 0.4050
C30 C 0.71012(5) 0.43999(2) 0.36791(4)
C31 C 0.69491(12) 0.45931(9) 0.32577(9)
H17 H 0.6512 0.4749 0.3181
C32 C 0.74790(13) 0.45379(6) 0.29709(7)
H18 H 0.7389 0.4661 0.2698
C33 C 0.86765(4) 0.42507(2) 0.27831(2)
C34 C 0.91845(4) 0.47590(3) 0.27834(3)
C35 C 0.65606(8) 0.44566(3) 0.39713(6)
C36 C 0.92187(5) 0.53086(5) 0.30376(3)
H19 H 0.8830 0.5606 0.2988
H20 H 0.9639 0.5558 0.2986
H21 H 0.9212 0.5154 0.3320
Hf7 Hf 0.62178(6) 0.45856(7) 0.5000
Hf9_4 Hf 1.0000 1.0000 0.07572(5)
H31 H 0.839399 0.168794 0.0289045
H36 H 0.842002 0.268234 0.255881
H37 H 0.780672 0.329585 0.274111
H38 H 0.792682 0.317545 0.220016
Hf1_2 Hf 0.95856(7) 0.12178(6) 1.0000
O4_2 O 0.8543(8) 0.1597(8) 1.0000
O21 O 0.9212(7) 0.0390(7) 0.9633(5)
O26 O 0.9416(6) 0.1683(5) 0.94004(10)
H32 H 0.851919 0.203217 0.983757
O14 O 0.9842(8) 0.7788(8) 0.0000
O15 O 0.9610(7) 0.9212(7) 0.0367(5)
Hf5 Hf 0.87822(6) 0.95856(7) 0.0000
O18 O 0.90959(18) 0.9744(3) 0.1100(3)
H39 H 0.936693 0.786406 0.0107217
O14_2 O 0.9842(8) 0.7788(8) 1.0000
Hf5_2 Hf 0.87822(6) 0.95856(7) 1.0000
O23 O 0.9610(7) 0.9212(7) 0.9633(5)
H40 H 0.981706 0.76049 0.971324
O13_3 O 0.1597(8) 0.1457(8) 0.0000
O24 O 0.1683(5) 0.0584(6) 0.05996(10)
H41_2 H 0.168794 0.160601 0.0289045
O13_4 O 0.1597(8) 0.1457(8) 1.0000
O25_2 O 0.1683(5) 0.0584(6) 0.94004(10)
H42_2 H 0.203217 0.148081 0.983757
O14_3 O 0.2212(8) 0.9842(8) 0.0000
H39_2 H 0.213594 0.936693 0.0107217
O14_4 O 0.2212(8) 0.9842(8) 1.0000
H40_2 H 0.23951 0.981706 0.971324
O5_3 O 0.7788(8) 0.0158(8) 0.0000
C13_2 C 0.57813(5) 0.03086(5) 0.19624(3)
H5_2 H 0.6170 0.0606 0.2012
H6_2 H 0.5361 0.0558 0.2014
H7_2 H 0.5788 0.0154 0.1680
C14_2 C 0.31255(5) 0.06875(2) 0.19309(4)
C15_2 C 0.32752(12) 0.08798(8) 0.15113(9)
H8_2 H 0.3712 0.1036 0.1435
C16_2 C 0.27435(13) 0.08241(6) 0.12233(7)
H9_2 H 0.2834 0.0947 0.0950
C17_2 C 0.21012(5) 0.06001(2) 0.13209(4)
C18_2 C 0.19491(12) 0.04069(9) 0.17423(9)
H10_2 H 0.1512 0.0251 0.1819
C19_2 C 0.24790(13) 0.04621(6) 0.20291(7)
H11_2 H 0.2389 0.0339 0.2302
C20_2 C 0.36765(4) 0.07493(2) 0.22169(2)
C21_2 C 0.41845(4) 0.02410(3) 0.22166(3)
C22_2 C 0.47263(5) 0.02734(5) 0.24998(5)
C23_2 C 0.37099(5) 0.12900(3) 0.24999(3)
C24_2 C 0.31839(4) 0.18161(4) 0.2500
C25_2 C 0.15606(8) 0.05434(3) 0.10287(6)
O10_2 O 0.4744(3) 0.40959(18) 0.3900(3)
O11_2 O 0.4416(6) 0.3317(5) 0.44004(10)
C37_2 C 0.43125(2) 0.18745(5) 0.30691(4)
C38_2 C 0.41202(8) 0.17248(12) 0.34887(9)
H22_2 H 0.3964 0.1288 0.3565
C39_2 C 0.41759(6) 0.22565(13) 0.37767(7)
H23_2 H 0.4053 0.2166 0.4050
C40_2 C 0.43999(2) 0.28988(5) 0.36791(4)
C41_2 C 0.45931(9) 0.30509(12) 0.32577(9)
H24_2 H 0.4749 0.3488 0.3181
C42_2 C 0.45379(6) 0.25210(13) 0.29709(7)
H25_2 H 0.4661 0.2611 0.2698
C43_2 C 0.42507(2) 0.13235(4) 0.27831(2)
C44_2 C 0.47590(3) 0.08155(4) 0.27834(3)
C45_2 C 0.44566(3) 0.34394(8) 0.39713(6)
C46_2 C 0.53086(5) 0.07813(5) 0.30376(3)
H26_2 H 0.5606 0.1170 0.2988
H27_2 H 0.5558 0.0361 0.2986
H28_2 H 0.5154 0.0788 0.3320
Hf8_2 Hf 0.45856(7) 0.37822(6) 0.5000
H29_2 H 0.786406 0.0633068 0.0107217
H33_2 H 0.268234 0.157998 0.255881
H34_2 H 0.329585 0.219328 0.274111
H35_2 H 0.317545 0.207318 0.220016
O5_4 O 0.7788(8) 0.0158(8) 1.0000
H30_2 H 0.76049 0.0182939 0.971324
O3_2 O 0.8317(5) 0.9416(6) 0.05996(10)
O4_3 O 0.8403(8) 0.8543(8) 0.0000
C1_2 C 0.68745(5) 0.93125(2) 0.19309(4)
C2_2 C 0.67248(12) 0.91202(8) 0.15113(9)
H1_2 H 0.6288 0.8964 0.1435
C3_2 C 0.72565(13) 0.91759(6) 0.12233(7)
H2_2 H 0.7166 0.9053 0.0950
C4_2 C 0.78988(5) 0.93999(2) 0.13209(4)
C5_2 C 0.80509(12) 0.95931(9) 0.17423(9)
H3_2 H 0.8488 0.9749 0.1819
C6_2 C 0.75210(13) 0.95379(6) 0.20291(7)
H4_2 H 0.7611 0.9661 0.2302
C7_2 C 0.63235(4) 0.92507(2) 0.22169(2)
C8_2 C 0.58155(4) 0.97590(3) 0.22166(3)
C9_2 C 0.52737(5) 0.97266(5) 0.24998(5)
C10_2 C 0.62901(5) 0.87100(3) 0.24999(3)
C11_2 C 0.68161(4) 0.81839(4) 0.2500
C12_2 C 0.84394(8) 0.94566(3) 0.10287(6)
C26_2 C 0.42187(5) 0.96914(5) 0.19624(3)
H12_2 H 0.3830 0.9394 0.2012
H13_2 H 0.4639 0.9442 0.2014
H14_2 H 0.4212 0.9846 0.1680
O8_2 O 0.5256(3) 0.59041(18) 0.3900(3)
O9_2 O 0.5584(6) 0.6683(5) 0.44004(10)
C27_2 C 0.56875(2) 0.81255(5) 0.30691(4)
C28_2 C 0.58798(8) 0.82752(12) 0.34887(9)
H15_2 H 0.6036 0.8712 0.3565
C29_2 C 0.58241(6) 0.77435(13) 0.37767(7)
H16_2 H 0.5947 0.7834 0.4050
C30_2 C 0.56001(2) 0.71012(5) 0.36791(4)
C31_2 C 0.54069(9) 0.69491(12) 0.32577(9)
H17_2 H 0.5251 0.6512 0.3181
C32_2 C 0.54621(6) 0.74790(13) 0.29709(7)
H18_2 H 0.5339 0.7389 0.2698
C33_2 C 0.57493(2) 0.86765(4) 0.27831(2)
C34_2 C 0.52410(3) 0.91845(4) 0.27834(3)
C35_2 C 0.55434(3) 0.65606(8) 0.39713(6)
C36_2 C 0.46914(5) 0.92187(5) 0.30376(3)
H19_2 H 0.4394 0.8830 0.2988
H20_2 H 0.4442 0.9639 0.2986
H21_2 H 0.4846 0.9212 0.3320
Hf7_2 Hf 0.54144(7) 0.62178(6) 0.5000
H31_2 H 0.831206 0.839399 0.0289045
H36_2 H 0.731766 0.842002 0.255881
H37_2 H 0.670415 0.780672 0.274111
H38_2 H 0.682455 0.792682 0.220016
O4_4 O 0.8403(8) 0.8543(8) 1.0000
O26_2 O 0.8317(5) 0.9416(6) 0.94004(10)
H32_2 H 0.796783 0.851919 0.983757
H33_3 H 0.342002 0.231766 0.244119
H34_3 H 0.280672 0.170415 0.225889
H35_3 H 0.292682 0.182455 0.279984
O2_2 O 0.5788(7) 0.5390(7) 0.4633(5)
O4_5 O 0.6457(8) 0.6597(8) 0.5000
O5_5 O 0.4842(8) 0.7212(8) 0.5000
O12_2 O 0.4212(7) 0.4610(7) 0.4633(5)
O13_5 O 0.3543(8) 0.3403(8) 0.5000
O14_5 O 0.5158(8) 0.2788(8) 0.5000
O15_2 O 0.5390(7) 0.4212(7) 0.4633(5)
O16_2 O 0.4610(7) 0.5788(7) 0.4633(5)
O20_2 O 0.4212(7) 0.4610(7) 0.5367(5)
O21_2 O 0.5788(7) 0.5390(7) 0.5367(5)
O22_2 O 0.4610(7) 0.5788(7) 0.5367(5)
O23_2 O 0.5390(7) 0.4212(7) 0.5367(5)
O25_3 O 0.4416(6) 0.3317(5) 0.55996(10)
O26_3 O 0.5584(6) 0.6683(5) 0.55996(10)
H36_3 H 0.657998 0.768234 0.244119
H37_3 H 0.719328 0.829585 0.225889
H38_3 H 0.707318 0.817545 0.279984
H33_4 H 0.231766 0.657998 0.244119
H34_4 H 0.170415 0.719328 0.225889
H35_4 H 0.182455 0.707318 0.279984
O4_6 O 0.6597(8) 0.3543(8) 0.5000
O5_6 O 0.7212(8) 0.5158(8) 0.5000
O13_6 O 0.3403(8) 0.6457(8) 0.5000
O14_6 O 0.2788(8) 0.4842(8) 0.5000
O25_4 O 0.3317(5) 0.5584(6) 0.55996(10)
O26_4 O 0.6683(5) 0.4416(6) 0.55996(10)
H36_4 H 0.768234 0.342002 0.244119
H37_4 H 0.829585 0.280672 0.225889
H38_4 H 0.817545 0.292682 0.279984
H40_3 H 0.0182939 0.23951 0.0286759
Hf2 Hf -0.0000 -0.0000 0.92428(5)
O18_2 O 0.09041(18) 0.0256(3) 0.8900(3)
H39_3 H 0.0633068 0.213594 0.989278
H32_3 H 0.148081 0.796783 0.0162429
Hf2_2 Hf -0.0000 1.0000 0.92428(5)
O1_2 O 0.0256(3) 0.90959(18) 0.8900(3)
C1_3 C 0.06875(2) 0.68745(5) 0.80691(4)
C2_3 C 0.08798(8) 0.67248(12) 0.84887(9)
H1_3 H 0.1036 0.6288 0.8565
C3_3 C 0.08241(6) 0.72565(13) 0.87767(7)
H2_3 H 0.0947 0.7166 0.9050
C4_3 C 0.06001(2) 0.78988(5) 0.86791(4)
C5_3 C 0.04069(9) 0.80509(12) 0.82577(9)
H3_3 H 0.0251 0.8488 0.8181
C6_3 C 0.04621(6) 0.75210(13) 0.79709(7)
H4_3 H 0.0339 0.7611 0.7698
C7_3 C 0.07493(2) 0.63235(4) 0.77831(2)
C8_3 C 0.02410(3) 0.58155(4) 0.77834(3)
C9_3 C 0.02734(5) 0.52737(5) 0.75002(5)
C10_3 C 0.12900(3) 0.62901(5) 0.75001(3)
C11_3 C 0.18161(4) 0.68161(4) 0.7500
C12_3 C 0.05434(3) 0.84394(8) 0.89713(6)
C26_3 C 0.03086(5) 0.42187(5) 0.80376(3)
H12_3 H 0.0606 0.3830 0.7988
H13_3 H 0.0558 0.4639 0.7986
H14_3 H 0.0154 0.4212 0.8320
O8_3 O 0.40959(18) 0.5256(3) 0.6100(3)
C27_3 C 0.18745(5) 0.56875(2) 0.69309(4)
C28_3 C 0.17248(12) 0.58798(8) 0.65113(9)
H15_3 H 0.1288 0.6036 0.6435
C29_3 C 0.22565(13) 0.58241(6) 0.62233(7)
H16_3 H 0.2166 0.5947 0.5950
C30_3 C 0.28988(5) 0.56001(2) 0.63209(4)
C31_3 C 0.30509(12) 0.54069(9) 0.67423(9)
H17_3 H 0.3488 0.5251 0.6819
C32_3 C 0.25210(13) 0.54621(6) 0.70291(7)
H18_3 H 0.2611 0.5339 0.7302
C33_3 C 0.13235(4) 0.57493(2) 0.72169(2)
C34_3 C 0.08155(4) 0.52410(3) 0.72166(3)
C35_3 C 0.34394(8) 0.55434(3) 0.60287(6)
C36_3 C 0.07813(5) 0.46914(5) 0.69624(3)
H19_3 H 0.1170 0.4394 0.7012
H20_3 H 0.0361 0.4442 0.7014
H21_3 H 0.0788 0.4846 0.6680
Hf10 Hf 0.5000 0.5000 0.57572(5)
H31_3 H 0.160601 0.831206 0.971096
H36_5 H 0.157998 0.731766 0.744119
H37_5 H 0.219328 0.670415 0.725889
H38_5 H 0.207318 0.682455 0.779984
H42_3 H 0.851919 0.203217 0.0162429
Hf2_3 Hf 1.0000 -0.0000 0.92428(5)
O17 O 0.9744(3) 0.09041(18) 0.8900(3)
H41_3 H 0.839399 0.168794 0.971096
H30_3 H 0.981706 0.76049 0.0286759
Hf2_4 Hf 1.0000 1.0000 0.92428(5)
C13_3 C 0.96914(5) 0.57813(5) 0.80376(3)
H5_3 H 0.9394 0.6170 0.7988
H6_3 H 0.9442 0.5361 0.7986
H7_3 H 0.9846 0.5788 0.8320
C14_3 C 0.93125(2) 0.31255(5) 0.80691(4)
C15_3 C 0.91202(8) 0.32752(12) 0.84887(9)
H8_3 H 0.8964 0.3712 0.8565
C16_3 C 0.91759(6) 0.27435(13) 0.87767(7)
H9_3 H 0.9053 0.2834 0.9050
C17_3 C 0.93999(2) 0.21012(5) 0.86791(4)
C18_3 C 0.95931(9) 0.19491(12) 0.82577(9)
H10_3 H 0.9749 0.1512 0.8181
C19_3 C 0.95379(6) 0.24790(13) 0.79709(7)
H11_3 H 0.9661 0.2389 0.7698
C20_3 C 0.92507(2) 0.36765(4) 0.77831(2)
C21_3 C 0.97590(3) 0.41845(4) 0.77834(3)
C22_3 C 0.97266(5) 0.47263(5) 0.75002(5)
C23_3 C 0.87100(3) 0.37099(5) 0.75001(3)
C24_3 C 0.81839(4) 0.31839(4) 0.7500
C25_3 C 0.94566(3) 0.15606(8) 0.89713(6)
O10_3 O 0.59041(18) 0.4744(3) 0.6100(3)
C37_3 C 0.81255(5) 0.43125(2) 0.69309(4)
C38_3 C 0.82752(12) 0.41202(8) 0.65113(9)
H22_3 H 0.8712 0.3964 0.6435
C39_3 C 0.77435(13) 0.41759(6) 0.62233(7)
H23_3 H 0.7834 0.4053 0.5950
C40_3 C 0.71012(5) 0.43999(2) 0.63209(4)
C41_3 C 0.69491(12) 0.45931(9) 0.67423(9)
H24_3 H 0.6512 0.4749 0.6819
C42_3 C 0.74790(13) 0.45379(6) 0.70291(7)
H25_3 H 0.7389 0.4661 0.7302
C43_3 C 0.86765(4) 0.42507(2) 0.72169(2)
C44_3 C 0.91845(4) 0.47590(3) 0.72166(3)
C45_3 C 0.65606(8) 0.44566(3) 0.60287(6)
C46_3 C 0.92187(5) 0.53086(5) 0.69624(3)
H26_3 H 0.8830 0.5606 0.7012
H27_3 H 0.9639 0.5558 0.7014
H28_3 H 0.9212 0.5154 0.6680
O19_2 O 0.90959(18) 0.9744(3) 0.8900(3)
H29_3 H 0.936693 0.786406 0.989278
H33_5 H 0.842002 0.268234 0.744119
H34_5 H 0.780672 0.329585 0.725889
H35_5 H 0.792682 0.317545 0.779984
H32_4 H 0.203217 0.148081 0.0162429
C1_4 C 0.31255(5) 0.06875(2) 0.80691(4)
C2_4 C 0.32752(12) 0.08798(8) 0.84887(9)
H1_4 H 0.3712 0.1036 0.8565
C3_4 C 0.27435(13) 0.08241(6) 0.87767(7)
H2_4 H 0.2834 0.0947 0.9050
C4_4 C 0.21012(5) 0.06001(2) 0.86791(4)
C5_4 C 0.19491(12) 0.04069(9) 0.82577(9)
H3_4 H 0.1512 0.0251 0.8181
C6_4 C 0.24790(13) 0.04621(6) 0.79709(7)
H4_4 H 0.2389 0.0339 0.7698
C7_4 C 0.36765(4) 0.07493(2) 0.77831(2)
C8_4 C 0.41845(4) 0.02410(3) 0.77834(3)
C9_4 C 0.47263(5) 0.02734(5) 0.75002(5)
C10_4 C 0.37099(5) 0.12900(3) 0.75001(3)
C11_4 C 0.31839(4) 0.18161(4) 0.7500
C12_4 C 0.15606(8) 0.05434(3) 0.89713(6)
C26_4 C 0.57813(5) 0.03086(5) 0.80376(3)
H12_4 H 0.6170 0.0606 0.7988
H13_4 H 0.5361 0.0558 0.7986
H14_4 H 0.5788 0.0154 0.8320
O8_4 O 0.4744(3) 0.40959(18) 0.6100(3)
C27_4 C 0.43125(2) 0.18745(5) 0.69309(4)
C28_4 C 0.41202(8) 0.17248(12) 0.65113(9)
H15_4 H 0.3964 0.1288 0.6435
C29_4 C 0.41759(6) 0.22565(13) 0.62233(7)
H16_4 H 0.4053 0.2166 0.5950
C30_4 C 0.43999(2) 0.28988(5) 0.63209(4)
C31_4 C 0.45931(9) 0.30509(12) 0.67423(9)
H17_4 H 0.4749 0.3488 0.6819
C32_4 C 0.45379(6) 0.25210(13) 0.70291(7)
H18_4 H 0.4661 0.2611 0.7302
C33_4 C 0.42507(2) 0.13235(4) 0.72169(2)
C34_4 C 0.47590(3) 0.08155(4) 0.72166(3)
C35_4 C 0.44566(3) 0.34394(8) 0.60287(6)
C36_4 C 0.53086(5) 0.07813(5) 0.69624(3)
H19_4 H 0.5606 0.1170 0.7012
H20_4 H 0.5558 0.0361 0.7014
H21_4 H 0.5154 0.0788 0.6680
H31_4 H 0.168794 0.160601 0.971096
H36_6 H 0.268234 0.157998 0.744119
H37_6 H 0.329585 0.219328 0.725889
H38_6 H 0.317545 0.207318 0.779984
H30_4 H 0.23951 0.981706 0.0286759
C13_4 C 0.42187(5) 0.96914(5) 0.80376(3)
H5_4 H 0.3830 0.9394 0.7988
H6_4 H 0.4639 0.9442 0.7986
H7_4 H 0.4212 0.9846 0.8320
C14_4 C 0.68745(5) 0.93125(2) 0.80691(4)
C15_4 C 0.67248(12) 0.91202(8) 0.84887(9)
H8_4 H 0.6288 0.8964 0.8565
C16_4 C 0.72565(13) 0.91759(6) 0.87767(7)
H9_4 H 0.7166 0.9053 0.9050
C17_4 C 0.78988(5) 0.93999(2) 0.86791(4)
C18_4 C 0.80509(12) 0.95931(9) 0.82577(9)
H10_4 H 0.8488 0.9749 0.8181
C19_4 C 0.75210(13) 0.95379(6) 0.79709(7)
H11_4 H 0.7611 0.9661 0.7698
C20_4 C 0.63235(4) 0.92507(2) 0.77831(2)
C21_4 C 0.58155(4) 0.97590(3) 0.77834(3)
C22_4 C 0.52737(5) 0.97266(5) 0.75002(5)
C23_4 C 0.62901(5) 0.87100(3) 0.75001(3)
C24_4 C 0.68161(4) 0.81839(4) 0.7500
C25_4 C 0.84394(8) 0.94566(3) 0.89713(6)
O10_4 O 0.5256(3) 0.59041(18) 0.6100(3)
C37_4 C 0.56875(2) 0.81255(5) 0.69309(4)
C38_4 C 0.58798(8) 0.82752(12) 0.65113(9)
H22_4 H 0.6036 0.8712 0.6435
C39_4 C 0.58241(6) 0.77435(13) 0.62233(7)
H23_4 H 0.5947 0.7834 0.5950
C40_4 C 0.56001(2) 0.71012(5) 0.63209(4)
C41_4 C 0.54069(9) 0.69491(12) 0.67423(9)
H24_4 H 0.5251 0.6512 0.6819
C42_4 C 0.54621(6) 0.74790(13) 0.70291(7)
H25_4 H 0.5339 0.7389 0.7302
C43_4 C 0.57493(2) 0.86765(4) 0.72169(2)
C44_4 C 0.52410(3) 0.91845(4) 0.72166(3)
C45_4 C 0.55434(3) 0.65606(8) 0.60287(6)
C46_4 C 0.46914(5) 0.92187(5) 0.69624(3)
H26_4 H 0.4394 0.8830 0.7012
H27_4 H 0.4442 0.9639 0.7014
H28_4 H 0.4846 0.9212 0.6680
H29_4 H 0.213594 0.936693 0.989278
H33_6 H 0.731766 0.842002 0.744119
H34_6 H 0.670415 0.780672 0.725889
H35_6 H 0.682455 0.792682 0.779984
H40_4 H 0.76049 0.0182939 0.0286759
H39_4 H 0.786406 0.0633068 0.989278
H42_4 H 0.796783 0.851919 0.0162429
H41_4 H 0.831206 0.839399 0.971096
H36_7 H 0.342002 0.231766 0.755881
H37_7 H 0.280672 0.170415 0.774111
H38_7 H 0.292682 0.182455 0.720016
H33_7 H 0.657998 0.768234 0.755881
H34_7 H 0.719328 0.829585 0.774111
H35_7 H 0.707318 0.817545 0.720016
H36_8 H 0.231766 0.657998 0.755881
H37_8 H 0.170415 0.719328 0.774111
H38_8 H 0.182455 0.707318 0.720016
H33_8 H 0.768234 0.342002 0.755881
H34_8 H 0.829585 0.280672 0.774111
H35_8 H 0.817545 0.292682 0.720016
loop_
_geom_bond_atom_site_label_1
_geom_bond_atom_site_label_2
_geom_bond_site_symmetry_1
_geom_bond_site_symmetry_2
H5 C13 1_555 1_555
H6 C13 1_555 1_555
H7 C13 1_555 1_555
O6 C25 1_555 1_555
O7 C25 1_555 1_555
C14 C15 1_555 1_555
C15 H8 1_555 1_555
C16 C15 1_555 1_555
H9 C16 1_555 1_555
C17 C16 1_555 1_555
C18 C17 1_555 1_555
H10 C18 1_555 1_555
C19 C14 1_555 1_555
H11 C19 1_555 1_555
C20 C14 1_555 1_555
C21 C20 1_555 1_555
C23 C20 1_555 1_555
C24 C23 1_555 1_555
C25 C17 1_555 1_555
O10 C45 1_555 1_555
O11 C45 1_555 1_555
C37 C38 1_555 1_555
C38 H22 1_555 1_555
C39 C38 1_555 1_555
H23 C39 1_555 1_555
C40 C39 1_555 1_555
C41 C40 1_555 1_555
H24 C41 1_555 1_555
C42 C37 1_555 1_555
H25 C42 1_555 1_555
C43 C23 1_555 1_555
C44 C22 1_555 1_555
C45 C40 1_555 1_555
C46 C44 1_555 1_555
H26 C46 1_555 1_555
H27 C46 1_555 1_555
H28 C46 1_555 1_555
Hf4 O7 1_555 1_555
Hf8 O11 1_555 1_555
Hf9_2 O6 1_555 1_555
Hf11 O10 1_555 1_555
O19 Hf9 1_555 1_555
Hf9 O16 1_555 1_555
C18 C19 1_555 1_555
C21 C22 1_555 1_555
C37 C43 1_555 1_555
C41 C42 1_555 1_555
C43 C44 1_555 1_555
O16 Hf6 1_555 1_555
O5 H29 1_555 1_555
C24 H33 1_555 1_555
C24 H34 1_555 1_555
C24 H35 1_555 1_555
Hf6_2 O22 1_555 1_555
O5_2 H30 1_555 1_555
Hf4 O12 1_555 1_555
O12 Hf9_2 1_555 1_555
O13 Hf4 1_555 1_555
O13 H41 1_555 1_555
O13_2 Hf4_2 1_555 1_555
O20 Hf4_2 1_555 1_555
O25 Hf4_2 1_555 1_555
O13_2 H42 1_555 1_555
Hf1 O2 1_555 1_555
Hf9_3 O1 1_555 1_555
O1 C12 1_555 1_555
O2 Hf9_3 1_555 1_555
O3 Hf1 1_555 1_555
O4 Hf1 1_555 1_555
C1 C2 1_555 1_555
C2 H1 1_555 1_555
C3 C2 1_555 1_555
H2 C3 1_555 1_555
C4 C3 1_555 1_555
C5 C4 1_555 1_555
H3 C5 1_555 1_555
C6 C1 1_555 1_555
H4 C6 1_555 1_555
C7 C1 1_555 1_555
C8 C7 1_555 1_555
C9 C8 1_555 1_555
C10 C7 1_555 1_555
C11 C10 1_555 1_555
C12 O3 1_555 1_555
H12 C26 1_555 1_555
H13 C26 1_555 1_555
H14 C26 1_555 1_555
O8 C35 1_555 1_555
O9 C35 1_555 1_555
C27 C28 1_555 1_555
C28 H15 1_555 1_555
C29 C28 1_555 1_555
H16 C29 1_555 1_555
C30 C29 1_555 1_555
C31 C30 1_555 1_555
H17 C31 1_555 1_555
C32 C27 1_555 1_555
H18 C32 1_555 1_555
C33 C10 1_555 1_555
C34 C9 1_555 1_555
C35 C30 1_555 1_555
C36 C34 1_555 1_555
H19 C36 1_555 1_555
H20 C36 1_555 1_555
H21 C36 1_555 1_555
Hf7 O9 1_555 1_555
Hf11 O8 1_555 1_555
C4 C12 1_555 1_555
C5 C6 1_555 1_555
C27 C33 1_555 1_555
C31 C32 1_555 1_555
C33 C34 1_555 1_555
O4 H31 1_555 1_555
C11 H36 1_555 1_555
C11 H37 1_555 1_555
C11 H38 1_555 1_555
O4_2 Hf1_2 1_555 1_555
O21 Hf1_2 1_555 1_555
O26 Hf1_2 1_555 1_555
O4_2 H32 1_555 1_555
O15 Hf9_4 1_555 1_555
O18 Hf9_4 1_555 1_555
O15 Hf5 1_555 1_555
O14 H39 1_555 1_555
Hf5_2 O23 1_555 1_555
O14_2 H40 1_555 1_555
O13_3 Hf6 1_555 1_555
O24 Hf6 1_555 1_555
O13_3 H41_2 1_555 1_555
O13_4 Hf6_2 1_555 1_555
O25_2 Hf6_2 1_555 1_555
O13_4 H42_2 1_555 1_555
O14_3 H39_2 1_555 1_555
O14_4 H40_2 1_555 1_555
H5_2 C13_2 1_555 1_555
H6_2 C13_2 1_555 1_555
H7_2 C13_2 1_555 1_555
O19 C25_2 1_555 1_555
O24 C25_2 1_555 1_555
C14_2 C15_2 1_555 1_555
C15_2 H8_2 1_555 1_555
C16_2 C15_2 1_555 1_555
H9_2 C16_2 1_555 1_555
C17_2 C16_2 1_555 1_555
C18_2 C17_2 1_555 1_555
H10_2 C18_2 1_555 1_555
C19_2 C14_2 1_555 1_555
H11_2 C19_2 1_555 1_555
C20_2 C14_2 1_555 1_555
C21_2 C20_2 1_555 1_555
C23_2 C20_2 1_555 1_555
C24_2 C23_2 1_555 1_555
C25_2 C17_2 1_555 1_555
O10_2 C45_2 1_555 1_555
O11_2 C45_2 1_555 1_555
C37_2 C38_2 1_555 1_555
C38_2 H22_2 1_555 1_555
C39_2 C38_2 1_555 1_555
H23_2 C39_2 1_555 1_555
C40_2 C39_2 1_555 1_555
C41_2 C40_2 1_555 1_555
H24_2 C41_2 1_555 1_555
C42_2 C37_2 1_555 1_555
H25_2 C42_2 1_555 1_555
C43_2 C23_2 1_555 1_555
C44_2 C22_2 1_555 1_555
C45_2 C40_2 1_555 1_555
C46_2 C44_2 1_555 1_555
H26_2 C46_2 1_555 1_555
H27_2 C46_2 1_555 1_555
H28_2 C46_2 1_555 1_555
Hf8_2 O11_2 1_555 1_555
Hf11 O10_2 1_555 1_555
C18_2 C19_2 1_555 1_555
C21_2 C22_2 1_555 1_555
C37_2 C43_2 1_555 1_555
C41_2 C42_2 1_555 1_555
C43_2 C44_2 1_555 1_555
O5_3 H29_2 1_555 1_555
C24_2 H33_2 1_555 1_555
C24_2 H34_2 1_555 1_555
C24_2 H35_2 1_555 1_555
O5_4 H30_2 1_555 1_555
O18 C12_2 1_555 1_555
O3_2 Hf5 1_555 1_555
O4_3 Hf5 1_555 1_555
C1_2 C2_2 1_555 1_555
C2_2 H1_2 1_555 1_555
C3_2 C2_2 1_555 1_555
H2_2 C3_2 1_555 1_555
C4_2 C3_2 1_555 1_555
C5_2 C4_2 1_555 1_555
H3_2 C5_2 1_555 1_555
C6_2 C1_2 1_555 1_555
H4_2 C6_2 1_555 1_555
C7_2 C1_2 1_555 1_555
C8_2 C7_2 1_555 1_555
C9_2 C8_2 1_555 1_555
C10_2 C7_2 1_555 1_555
C11_2 C10_2 1_555 1_555
C12_2 O3_2 1_555 1_555
H12_2 C26_2 1_555 1_555
H13_2 C26_2 1_555 1_555
H14_2 C26_2 1_555 1_555
O8_2 C35_2 1_555 1_555
O9_2 C35_2 1_555 1_555
C27_2 C28_2 1_555 1_555
C28_2 H15_2 1_555 1_555
C29_2 C28_2 1_555 1_555
H16_2 C29_2 1_555 1_555
C30_2 C29_2 1_555 1_555
C31_2 C30_2 1_555 1_555
H17_2 C31_2 1_555 1_555
C32_2 C27_2 1_555 1_555
H18_2 C32_2 1_555 1_555
C33_2 C10_2 1_555 1_555
C34_2 C9_2 1_555 1_555
C35_2 C30_2 1_555 1_555
C36_2 C34_2 1_555 1_555
H19_2 C36_2 1_555 1_555
H20_2 C36_2 1_555 1_555
H21_2 C36_2 1_555 1_555
Hf7_2 O9_2 1_555 1_555
Hf11 O8_2 1_555 1_555
C4_2 C12_2 1_555 1_555
C5_2 C6_2 1_555 1_555
C27_2 C33_2 1_555 1_555
C31_2 C32_2 1_555 1_555
C33_2 C34_2 1_555 1_555
O4_3 H31_2 1_555 1_555
C11_2 H36_2 1_555 1_555
C11_2 H37_2 1_555 1_555
C11_2 H38_2 1_555 1_555
O4_4 Hf5_2 1_555 1_555
O26_2 Hf5_2 1_555 1_555
O4_4 H32_2 1_555 1_555
C24_2 H33_3 1_555 1_555
C24_2 H34_3 1_555 1_555
C24_2 H35_3 1_555 1_555
Hf7_2 O2_2 1_555 1_555
O2_2 Hf11 1_555 1_555
O4_5 Hf7_2 1_555 1_555
O5_5 Hf7_2 1_555 1_555
Hf8_2 O12_2 1_555 1_555
O12_2 Hf11 1_555 1_555
O13_5 Hf8_2 1_555 1_555
O14_5 Hf8_2 1_555 1_555
O15_2 Hf11 1_555 1_555
O16_2 Hf7_2 1_555 1_555
Hf7 O2_2 1_555 1_555
Hf8 O12_2 1_555 1_555
O20_2 Hf8_2 1_555 1_555
O21_2 Hf7_2 1_555 1_555
O22_2 Hf7_2 1_555 1_555
O23_2 Hf8_2 1_555 1_555
O25_3 Hf8_2 1_555 1_555
O26_3 Hf7_2 1_555 1_555
Hf11 O16_2 1_555 1_555
Hf8_2 O15_2 1_555 1_555
O15_2 Hf7 1_555 1_555
O16_2 Hf8 1_555 1_555
Hf7 O21_2 1_555 1_555
Hf7 O23_2 1_555 1_555
Hf8 O20_2 1_555 1_555
Hf8 O22_2 1_555 1_555
C11_2 H36_3 1_555 1_555
C11_2 H37_3 1_555 1_555
C11_2 H38_3 1_555 1_555
C24 H33_4 1_555 1_555
C24 H34_4 1_555 1_555
C24 H35_4 1_555 1_555
O4_6 Hf7 1_555 1_555
O5_6 Hf7 1_555 1_555
O13_6 Hf8 1_555 1_555
O14_6 Hf8 1_555 1_555
O25_4 Hf8 1_555 1_555
O26_4 Hf7 1_555 1_555
C11 H36_4 1_555 1_555
C11 H37_4 1_555 1_555
C11 H38_4 1_555 1_555
O5 H40_3 1_555 1_555
O22 Hf2 1_555 1_555
O18_2 Hf2 1_555 1_555
O5_2 H39_3 1_555 1_555
O13 H32_3 1_555 1_555
Hf2_2 O1_2 1_555 1_555
O1_2 C12_3 1_555 1_555
O20 Hf2_2 1_555 1_555
C1_3 C2_3 1_555 1_555
C2_3 H1_3 1_555 1_555
C3_3 C2_3 1_555 1_555
H2_3 C3_3 1_555 1_555
C4_3 C3_3 1_555 1_555
C5_3 C4_3 1_555 1_555
H3_3 C5_3 1_555 1_555
C6_3 C1_3 1_555 1_555
H4_3 C6_3 1_555 1_555
C7_3 C1_3 1_555 1_555
C8_3 C7_3 1_555 1_555
C9_3 C8_3 1_555 1_555
C10_3 C7_3 1_555 1_555
C11_3 C10_3 1_555 1_555
C12_3 O25 1_555 1_555
H12_3 C26_3 1_555 1_555
H13_3 C26_3 1_555 1_555
H14_3 C26_3 1_555 1_555
O8_3 C35_3 1_555 1_555
O25_4 C35_3 1_555 1_555
C27_3 C28_3 1_555 1_555
C28_3 H15_3 1_555 1_555
C29_3 C28_3 1_555 1_555
H16_3 C29_3 1_555 1_555
C30_3 C29_3 1_555 1_555
C31_3 C30_3 1_555 1_555
H17_3 C31_3 1_555 1_555
C32_3 C27_3 1_555 1_555
H18_3 C32_3 1_555 1_555
C33_3 C10_3 1_555 1_555
C34_3 C9_3 1_555 1_555
C35_3 C30_3 1_555 1_555
C36_3 C34_3 1_555 1_555
H19_3 C36_3 1_555 1_555
H20_3 C36_3 1_555 1_555
H21_3 C36_3 1_555 1_555
Hf10 O8_3 1_555 1_555
C4_3 C12_3 1_555 1_555
C5_3 C6_3 1_555 1_555
C27_3 C33_3 1_555 1_555
C31_3 C32_3 1_555 1_555
C33_3 C34_3 1_555 1_555
O13_2 H31_3 1_555 1_555
C11_3 H36_5 1_555 1_555
C11_3 H37_5 1_555 1_555
C11_3 H38_5 1_555 1_555
O4 H42_3 1_555 1_555
O21 Hf2_3 1_555 1_555
O17 Hf2_3 1_555 1_555
O4_2 H41_3 1_555 1_555
O14 H30_3 1_555 1_555
H5_3 C13_3 1_555 1_555
H6_3 C13_3 1_555 1_555
H7_3 C13_3 1_555 1_555
O17 C25_3 1_555 1_555
O26 C25_3 1_555 1_555
C14_3 C15_3 1_555 1_555
C15_3 H8_3 1_555 1_555
C16_3 C15_3 1_555 1_555
H9_3 C16_3 1_555 1_555
C17_3 C16_3 1_555 1_555
C18_3 C17_3 1_555 1_555
H10_3 C18_3 1_555 1_555
C19_3 C14_3 1_555 1_555
H11_3 C19_3 1_555 1_555
C20_3 C14_3 1_555 1_555
C21_3 C20_3 1_555 1_555
C23_3 C20_3 1_555 1_555
C24_3 C23_3 1_555 1_555
C25_3 C17_3 1_555 1_555
O10_3 C45_3 1_555 1_555
O26_4 C45_3 1_555 1_555
C37_3 C38_3 1_555 1_555
C38_3 H22_3 1_555 1_555
C39_3 C38_3 1_555 1_555
H23_3 C39_3 1_555 1_555
C40_3 C39_3 1_555 1_555
C41_3 C40_3 1_555 1_555
H24_3 C41_3 1_555 1_555
C42_3 C37_3 1_555 1_555
H25_3 C42_3 1_555 1_555
C43_3 C23_3 1_555 1_555
C44_3 C22_3 1_555 1_555
C45_3 C40_3 1_555 1_555
C46_3 C44_3 1_555 1_555
H26_3 C46_3 1_555 1_555
H27_3 C46_3 1_555 1_555
H28_3 C46_3 1_555 1_555
Hf10 O10_3 1_555 1_555
O19_2 Hf2_4 1_555 1_555
Hf2_4 O23 1_555 1_555
C18_3 C19_3 1_555 1_555
C21_3 C22_3 1_555 1_555
C37_3 C43_3 1_555 1_555
C41_3 C42_3 1_555 1_555
C43_3 C44_3 1_555 1_555
O14_2 H29_3 1_555 1_555
C24_3 H33_5 1_555 1_555
C24_3 H34_5 1_555 1_555
C24_3 H35_5 1_555 1_555
O13_3 H32_4 1_555 1_555
O18_2 C12_4 1_555 1_555
C1_4 C2_4 1_555 1_555
C2_4 H1_4 1_555 1_555
C3_4 C2_4 1_555 1_555
H2_4 C3_4 1_555 1_555
C4_4 C3_4 1_555 1_555
C5_4 C4_4 1_555 1_555
H3_4 C5_4 1_555 1_555
C6_4 C1_4 1_555 1_555
H4_4 C6_4 1_555 1_555
C7_4 C1_4 1_555 1_555
C8_4 C7_4 1_555 1_555
C9_4 C8_4 1_555 1_555
C10_4 C7_4 1_555 1_555
C11_4 C10_4 1_555 1_555
C12_4 O25_2 1_555 1_555
H12_4 C26_4 1_555 1_555
H13_4 C26_4 1_555 1_555
H14_4 C26_4 1_555 1_555
O8_4 C35_4 1_555 1_555
O25_3 C35_4 1_555 1_555
C27_4 C28_4 1_555 1_555
C28_4 H15_4 1_555 1_555
C29_4 C28_4 1_555 1_555
H16_4 C29_4 1_555 1_555
C30_4 C29_4 1_555 1_555
C31_4 C30_4 1_555 1_555
H17_4 C31_4 1_555 1_555
C32_4 C27_4 1_555 1_555
H18_4 C32_4 1_555 1_555
C33_4 C10_4 1_555 1_555
C34_4 C9_4 1_555 1_555
C35_4 C30_4 1_555 1_555
C36_4 C34_4 1_555 1_555
H19_4 C36_4 1_555 1_555
H20_4 C36_4 1_555 1_555
H21_4 C36_4 1_555 1_555
Hf10 O8_4 1_555 1_555
C4_4 C12_4 1_555 1_555
C5_4 C6_4 1_555 1_555
C27_4 C33_4 1_555 1_555
C31_4 C32_4 1_555 1_555
C33_4 C34_4 1_555 1_555
O13_4 H31_4 1_555 1_555
C11_4 H36_6 1_555 1_555
C11_4 H37_6 1_555 1_555
C11_4 H38_6 1_555 1_555
O14_3 H30_4 1_555 1_555
H5_4 C13_4 1_555 1_555
H6_4 C13_4 1_555 1_555
H7_4 C13_4 1_555 1_555
O19_2 C25_4 1_555 1_555
O26_2 C25_4 1_555 1_555
C14_4 C15_4 1_555 1_555
C15_4 H8_4 1_555 1_555
C16_4 C15_4 1_555 1_555
H9_4 C16_4 1_555 1_555
C17_4 C16_4 1_555 1_555
C18_4 C17_4 1_555 1_555
H10_4 C18_4 1_555 1_555
C19_4 C14_4 1_555 1_555
H11_4 C19_4 1_555 1_555
C20_4 C14_4 1_555 1_555
C21_4 C20_4 1_555 1_555
C23_4 C20_4 1_555 1_555
C24_4 C23_4 1_555 1_555
C25_4 C17_4 1_555 1_555
O10_4 C45_4 1_555 1_555
O26_3 C45_4 1_555 1_555
C37_4 C38_4 1_555 1_555
C38_4 H22_4 1_555 1_555
C39_4 C38_4 1_555 1_555
H23_4 C39_4 1_555 1_555
C40_4 C39_4 1_555 1_555
C41_4 C40_4 1_555 1_555
H24_4 C41_4 1_555 1_555
C42_4 C37_4 1_555 1_555
H25_4 C42_4 1_555 1_555
C43_4 C23_4 1_555 1_555
C44_4 C22_4 1_555 1_555
C45_4 C40_4 1_555 1_555
C46_4 C44_4 1_555 1_555
H26_4 C46_4 1_555 1_555
H27_4 C46_4 1_555 1_555
H28_4 C46_4 1_555 1_555
Hf10 O10_4 1_555 1_555
C18_4 C19_4 1_555 1_555
C21_4 C22_4 1_555 1_555
C37_4 C43_4 1_555 1_555
C41_4 C42_4 1_555 1_555
C43_4 C44_4 1_555 1_555
O14_4 H29_4 1_555 1_555
C24_4 H33_6 1_555 1_555
C24_4 H34_6 1_555 1_555
C24_4 H35_6 1_555 1_555
O5_3 H40_4 1_555 1_555
O5_4 H39_4 1_555 1_555
O4_3 H42_4 1_555 1_555
O4_4 H41_4 1_555 1_555
O20_2 Hf10 1_555 1_555
O21_2 Hf10 1_555 1_555
O22_2 Hf10 1_555 1_555
Hf10 O23_2 1_555 1_555
C11_4 H36_7 1_555 1_555
C11_4 H37_7 1_555 1_555
C11_4 H38_7 1_555 1_555
C24_4 H33_7 1_555 1_555
C24_4 H34_7 1_555 1_555
C24_4 H35_7 1_555 1_555
C11_3 H36_8 1_555 1_555
C11_3 H37_8 1_555 1_555
C11_3 H38_8 1_555 1_555
C24_3 H33_8 1_555 1_555
C24_3 H34_8 1_555 1_555
C24_3 H35_8 1_555 1_555

#END
