
###############################################################################
#
# This file contains modified crystal structure data generated from the
# MOF subset of the Cambridge Structural Database (CSD) v543 
# hosted by the Cambridge Crystallographic Data Centre (CCDC).
#
# This work is licensed under the Creative Commons
# Attribution-NonCommercial-ShareAlike 4.0 International License.
# To view a copy of this license, visit
# http://creativecommons.org/licenses/by-nc-sa/4.0/
# or send a letter to
# Creative Commons, PO Box 1866, Mountain View, CA 94042, USA.
#
# CIF created using the CSD Python API on 29 September 2022
# The structure has been converted into the P1 space group
# The structure has a 3D framework
# The original CSD entry NEVVAM01 is in the monoclinic crystal system
# The framework has been calculated to contain at least 10.0% void space
# The void calculation uses a probe of radius 1.32A, grid spacing 0.4
#
###############################################################################

data_NEVVAM01
_chemical_formula_moiety         '(C56 H32 Co12 N8 O40)n'
_symmetry_cell_setting           triclinic
_symmetry_space_group_name_H-M   'P 1'
_symmetry_Int_Tables_number      1
_space_group_name_Hall           'P 1'
loop_
_symmetry_equiv_pos_site_id
_symmetry_equiv_pos_as_xyz
1 x,y,z
_cell_length_a                   10.767(3)
_cell_length_b                   14.345(3)
_cell_length_c                   17.049(4)
_cell_angle_alpha                90
_cell_angle_beta                 106.518(6)
_cell_angle_gamma                90
_cell_volume                     2524.59
loop_
_atom_site_label
_atom_site_type_symbol
_atom_site_fract_x
_atom_site_fract_y
_atom_site_fract_z
Co1 Co 0.44691(3) 0.473481(19) 0.405502(16)
Co2 Co 0.25086(2) 0.40868(2) 0.500744(13)
Co3 Co 0.05183(3) 0.471584(19) 0.592992(16)
O1 O 0.23413(14) 0.01110(11) 0.08429(9)
O2 O 0.41524(15) 0.09059(11) 0.14037(10)
O3 O 0.34754(15) 0.35337(11) 0.33672(10)
O4 O 0.23413(15) 0.29946(10) 0.41941(9)
O5 O 0.26453(15) 0.01263(11) 0.91543(9)
O6 O 0.07877(14) 0.08160(11) 0.84986(10)
O7 O 0.15616(15) 0.35589(11) 0.66550(10)
O8 O 0.27904(15) 0.30556(10) 0.58678(9)
O9 O 0.45299(14) 0.41870(10) 0.52097(9)
O10 O 0.05211(14) 0.41967(10) 0.47915(9)
N1 N 0.12389(17) 0.06841(12) 0.19418(11)
N2 N 0.38146(17) 0.07012(12) 0.80843(11)
C1 C 0.2365(2) 0.10928(15) 0.19412(12)
C2 C 0.2894(2) 0.18318(15) 0.24565(13)
C3 C 0.2247(2) 0.21409(15) 0.30049(13)
C4 C 0.1120(2) 0.16915(16) 0.30383(13)
C5 C 0.0638(2) 0.09705(15) 0.24873(13)
C6 C 0.3020(2) 0.06847(14) 0.13481(13)
C7 C 0.2736(2) 0.29591(15) 0.35707(13)
C8 C 0.2636(2) 0.10619(15) 0.80329(12)
C9 C 0.2104(2) 0.18012(15) 0.75157(13)
C10 C 0.2820(2) 0.21760(15) 0.70294(13)
C11 C 0.4017(2) 0.17865(15) 0.70609(13)
C12 C 0.4480(2) 0.10537(15) 0.76022(13)
C13 C 0.1959(2) 0.06373(14) 0.86052(12)
C14 C 0.2339(2) 0.30052(15) 0.64701(13)
H1 H 0.3670 0.2105 0.2435
H2 H 0.0700 0.1871 0.3428
H4 H 0.1300 0.2048 0.7483
H5 H 0.4504 0.2014 0.6727
H6 H 0.5294 0.0802 0.7633
H7 H 0.4848 0.3668 0.5325
H8 H 0.0230 0.3679 0.4687
Co5 Co 0.55309(3) 0.526519(19) 0.594498(16)
Co11 Co 0.55183(3) 0.028416(19) 0.092992(16)
O11 O 0.26587(14) 0.51110(11) 0.41571(9)
O13 O 0.23547(15) 0.51263(11) 0.58457(9)
O14 O 0.57877(14) 0.41840(11) 0.34986(10)
O15 O 0.54701(14) 0.58130(10) 0.47903(9)
N3 N 0.37611(17) 0.56841(12) 0.30582(11)
N4 N 0.11854(17) 0.57012(12) 0.69157(11)
Co4 Co 0.05309(3) 0.973481(19) 0.094498(16)
Co8 Co 0.24914(2) 0.90868(2) 0.999256(13)
Co9 Co 0.44817(3) 0.971584(19) 0.907008(16)
H3 H 0.9859 0.0681 0.2485
Co6 Co 0.94691(3) 0.026519(19) 0.905502(16)
Co10 Co 0.94817(3) 0.528416(19) 0.407008(16)
O12 O 0.91524(15) 0.40941(11) 0.64037(10)
O16 O 0.94789(14) 0.58033(10) 0.52085(9)
O16_2 O 0.55211(14) 0.08033(10) 0.97915(9)
O2_2 O 0.08476(15) 0.59059(11) 0.35963(10)
O3_2 O 0.15246(15) 0.85337(11) 0.16328(10)
O4_2 O 0.26587(15) 0.79946(10) 0.08059(9)
O10_2 O 0.44789(14) 0.91967(10) 0.02085(9)
C1_2 C 0.2635(2) 0.60928(15) 0.30588(12)
C2_2 C 0.2106(2) 0.68318(15) 0.25435(13)
C3_2 C 0.2753(2) 0.71409(15) 0.19951(13)
C4_2 C 0.3880(2) 0.66915(16) 0.19617(13)
C5_2 C 0.4362(2) 0.59705(15) 0.25127(13)
C6_2 C 0.1980(2) 0.56847(14) 0.36519(13)
C7_2 C 0.2264(2) 0.79591(15) 0.14293(13)
H1_2 H 0.1330 0.7105 0.2565
H2_2 H 0.4300 0.6871 0.1572
H3_2 H 0.5141 0.5681 0.2515
H8_2 H 0.4770 0.8679 0.0313
O6_2 O 0.42123(14) 0.58160(11) 0.65014(10)
O7_2 O 0.34384(15) 0.85589(11) 0.83450(10)
O8_2 O 0.22096(15) 0.80556(10) 0.91322(9)
O9_2 O 0.04701(14) 0.91870(10) 0.97903(9)
C8_2 C 0.2364(2) 0.60619(15) 0.69671(12)
C9_2 C 0.2896(2) 0.68012(15) 0.74843(13)
C10_2 C 0.2180(2) 0.71760(15) 0.79706(13)
C11_2 C 0.0983(2) 0.67865(15) 0.79391(13)
C12_2 C 0.0520(2) 0.60537(15) 0.73978(13)
C13_2 C 0.3041(2) 0.56373(14) 0.63948(12)
C14_2 C 0.2661(2) 0.80052(15) 0.85299(13)
H4_2 H 0.3700 0.7048 0.7517
H5_2 H 0.0496 0.7014 0.8273
H7_2 H 0.0152 0.8668 0.9675
O12_2 O 0.58476(15) 0.90941(11) 0.85963(10)
O15_2 O 0.95299(14) 0.08130(10) 0.02097(9)
O14_2 O 0.92123(14) 0.91840(11) 0.15014(10)
H3_3 H 0.0141 0.9319 0.7515
Co7 Co 0.75086(2) 0.09132(2) 0.000744(13)
Co2_2 Co 0.74914(2) 0.59132(2) 0.499256(13)
O1_2 O 0.76587(14) 0.98890(11) 0.91571(9)
O3_3 O 0.65246(15) 0.64663(11) 0.66328(10)
O4_3 O 0.76587(15) 0.70054(10) 0.58059(9)
O5_2 O 0.73547(15) 0.98737(11) 0.08457(9)
O7_3 O 0.84384(15) 0.64411(11) 0.33450(10)
O8_3 O 0.72096(15) 0.69444(10) 0.41322(9)
N1_2 N 0.87611(17) 0.93159(12) 0.80582(11)
N2_2 N 0.61854(17) 0.92988(12) 0.19157(11)
C1_3 C 0.7635(2) 0.89072(15) 0.80588(12)
C2_3 C 0.7106(2) 0.81682(15) 0.75435(13)
C3_3 C 0.7753(2) 0.78591(15) 0.69951(13)
C4_3 C 0.8880(2) 0.83085(16) 0.69617(13)
C5_3 C 0.9362(2) 0.90295(15) 0.75127(13)
C6_3 C 0.6980(2) 0.93153(14) 0.86519(13)
C7_3 C 0.7264(2) 0.70409(15) 0.64293(13)
C8_3 C 0.7364(2) 0.89381(15) 0.19671(12)
C9_3 C 0.7896(2) 0.81988(15) 0.24843(13)
C10_3 C 0.7180(2) 0.78240(15) 0.29706(13)
C11_3 C 0.5983(2) 0.82135(15) 0.29391(13)
C12_3 C 0.5520(2) 0.89463(15) 0.23978(13)
C13_3 C 0.8041(2) 0.93627(14) 0.13948(12)
C14_3 C 0.7661(2) 0.69948(15) 0.35299(13)
H1_3 H 0.6330 0.7895 0.7565
H2_3 H 0.9300 0.8129 0.6572
H4_3 H 0.8700 0.7952 0.2517
H5_3 H 0.5496 0.7986 0.3273
H6_2 H 0.4706 0.9198 0.2367
H7_3 H 0.5152 0.6332 0.4675
H8_3 H 0.9770 0.6321 0.5313
O11_2 O 0.73413(14) 0.48890(11) 0.58429(9)
O13_2 O 0.76453(15) 0.48737(11) 0.41543(9)
N3_2 N 0.62389(17) 0.43159(12) 0.69418(11)
N4_2 N 0.88146(17) 0.42988(12) 0.30843(11)
O7_4 O 0.65616(15) 0.14411(11) 0.16550(10)
O8_4 O 0.77904(15) 0.19444(10) 0.08678(9)
C8_4 C 0.7636(2) 0.39381(15) 0.30329(12)
C9_4 C 0.7104(2) 0.31988(15) 0.25157(13)
C10_4 C 0.7820(2) 0.28240(15) 0.20294(13)
C11_4 C 0.9017(2) 0.32135(15) 0.20609(13)
C12_4 C 0.9480(2) 0.39463(15) 0.26022(13)
C13_4 C 0.6959(2) 0.43627(14) 0.36052(12)
C14_4 C 0.7339(2) 0.19948(15) 0.14701(13)
H4_4 H 0.6300 0.2952 0.2483
H5_4 H 0.9504 0.2986 0.1727
H7_4 H 0.9848 0.1332 0.0325
O3_4 O 0.84754(15) 0.14663(11) 0.83672(10)
O4_4 O 0.73413(15) 0.20054(10) 0.91941(9)
C1_4 C 0.7365(2) 0.39072(15) 0.69412(12)
C2_4 C 0.7894(2) 0.31682(15) 0.74565(13)
C3_4 C 0.7247(2) 0.28591(15) 0.80049(13)
C4_4 C 0.6120(2) 0.33085(16) 0.80383(13)
C5_4 C 0.5638(2) 0.40295(15) 0.74873(13)
C6_4 C 0.8020(2) 0.43153(14) 0.63481(13)
C7_4 C 0.7736(2) 0.20409(15) 0.85707(13)
H1_4 H 0.8670 0.2895 0.7435
H2_4 H 0.5700 0.3129 0.8428
H3_4 H 0.4859 0.4319 0.7485
H8_4 H 0.5230 0.1321 0.9687
H6_3 H 0.9706 0.5802 0.7367
H6_4 H 0.0294 0.4198 0.2633
loop_
_geom_bond_atom_site_label_1
_geom_bond_atom_site_label_2
_geom_bond_site_symmetry_1
_geom_bond_site_symmetry_2
Co1 O3 1_555 1_555
Co2 O4 1_555 1_555
Co3 O7 1_555 1_555
O1 C6 1_555 1_555
O2 C6 1_555 1_555
O3 C7 1_555 1_555
O4 C7 1_555 1_555
O5 C13 1_555 1_555
O6 C13 1_555 1_555
O7 C14 1_555 1_555
O8 Co2 1_555 1_555
O9 Co1 1_555 1_555
O10 Co2 1_555 1_555
N1 C1 1_555 1_555
N2 C8 1_555 1_555
C1 C2 1_555 1_555
C2 C3 1_555 1_555
C3 C4 1_555 1_555
C4 C5 1_555 1_555
C5 N1 1_555 1_555
C6 C1 1_555 1_555
C7 C3 1_555 1_555
C8 C9 1_555 1_555
C9 C10 1_555 1_555
C10 C11 1_555 1_555
C11 C12 1_555 1_555
C12 N2 1_555 1_555
C13 C8 1_555 1_555
C14 O8 1_555 1_555
H1 C2 1_555 1_555
H2 C4 1_555 1_555
H4 C9 1_555 1_555
H5 C11 1_555 1_555
H6 C12 1_555 1_555
H7 O9 1_555 1_555
H8 O10 1_555 1_555
Co5 O9 1_555 1_555
Co11 O2 1_555 1_555
O11 Co1 1_555 1_555
O13 Co2 1_555 1_555
O14 Co1 1_555 1_555
O15 Co1 1_555 1_555
N3 Co1 1_555 1_555
N4 Co3 1_555 1_555
Co2 O9 1_555 1_555
Co2 O11 1_555 1_555
Co3 O10 1_555 1_555
Co3 O13 1_555 1_555
C10 C14 1_555 1_555
Co5 O15 1_555 1_555
Co10 O16 1_555 1_555
Co4 O3_2 1_555 1_555
O11 C6_2 1_555 1_555
O2_2 C6_2 1_555 1_555
O3_2 C7_2 1_555 1_555
O4_2 C7_2 1_555 1_555
N3 C1_2 1_555 1_555
C1_2 C2_2 1_555 1_555
C2_2 C3_2 1_555 1_555
C3_2 C4_2 1_555 1_555
C4_2 C5_2 1_555 1_555
C5_2 N3 1_555 1_555
C6_2 C1_2 1_555 1_555
C7_2 C3_2 1_555 1_555
H1_2 C2_2 1_555 1_555
H2_2 C4_2 1_555 1_555
H3_2 C5_2 1_555 1_555
H8_2 O10_2 1_555 1_555
Co9 O7_2 1_555 1_555
O13 C13_2 1_555 1_555
O6_2 C13_2 1_555 1_555
O7_2 C14_2 1_555 1_555
O8_2 Co8 1_555 1_555
N4 C8_2 1_555 1_555
C8_2 C9_2 1_555 1_555
C9_2 C10_2 1_555 1_555
C10_2 C11_2 1_555 1_555
C11_2 C12_2 1_555 1_555
C12_2 N4 1_555 1_555
C13_2 C8_2 1_555 1_555
C14_2 O8_2 1_555 1_555
H4_2 C9_2 1_555 1_555
H5_2 C11_2 1_555 1_555
H7_2 O9_2 1_555 1_555
Co5 O6_2 1_555 1_555
O12_2 Co9 1_555 1_555
Co8 O9_2 1_555 1_555
C10_2 C14_2 1_555 1_555
Co5 O3_3 1_555 1_555
Co2_2 O4_3 1_555 1_555
Co10 O7_3 1_555 1_555
O1_2 C6_3 1_555 1_555
O12_2 C6_3 1_555 1_555
O3_3 C7_3 1_555 1_555
O4_3 C7_3 1_555 1_555
O5_2 C13_3 1_555 1_555
O14_2 C13_3 1_555 1_555
O7_3 C14_3 1_555 1_555
O8_3 Co2_2 1_555 1_555
O16 Co2_2 1_555 1_555
N1_2 C1_3 1_555 1_555
N2_2 C8_3 1_555 1_555
C1_3 C2_3 1_555 1_555
C2_3 C3_3 1_555 1_555
C3_3 C4_3 1_555 1_555
C4_3 C5_3 1_555 1_555
C5_3 N1_2 1_555 1_555
C6_3 C1_3 1_555 1_555
C7_3 C3_3 1_555 1_555
C8_3 C9_3 1_555 1_555
C9_3 C10_3 1_555 1_555
C10_3 C11_3 1_555 1_555
C11_3 C12_3 1_555 1_555
C12_3 N2_2 1_555 1_555
C13_3 C8_3 1_555 1_555
C14_3 O8_3 1_555 1_555
H1_3 C2_3 1_555 1_555
H2_3 C4_3 1_555 1_555
H4_3 C9_3 1_555 1_555
H5_3 C11_3 1_555 1_555
H6_2 C12_3 1_555 1_555
H7_3 O15 1_555 1_555
H8_3 O16 1_555 1_555
O11_2 Co5 1_555 1_555
O13_2 Co2_2 1_555 1_555
N3_2 Co5 1_555 1_555
N4_2 Co10 1_555 1_555
Co2_2 O15 1_555 1_555
Co2_2 O11_2 1_555 1_555
Co10 O13_2 1_555 1_555
C10_3 C14_3 1_555 1_555
Co11 O7_4 1_555 1_555
O13_2 C13_4 1_555 1_555
O14 C13_4 1_555 1_555
O7_4 C14_4 1_555 1_555
O8_4 Co7 1_555 1_555
N4_2 C8_4 1_555 1_555
C8_4 C9_4 1_555 1_555
C9_4 C10_4 1_555 1_555
C10_4 C11_4 1_555 1_555
C11_4 C12_4 1_555 1_555
C12_4 N4_2 1_555 1_555
C13_4 C8_4 1_555 1_555
C14_4 O8_4 1_555 1_555
H4_4 C9_4 1_555 1_555
H5_4 C11_4 1_555 1_555
H7_4 O15_2 1_555 1_555
Co7 O15_2 1_555 1_555
C10_4 C14_4 1_555 1_555
Co6 O3_4 1_555 1_555
O11_2 C6_4 1_555 1_555
O12 C6_4 1_555 1_555
O3_4 C7_4 1_555 1_555
O4_4 C7_4 1_555 1_555
N3_2 C1_4 1_555 1_555
C1_4 C2_4 1_555 1_555
C2_4 C3_4 1_555 1_555
C3_4 C4_4 1_555 1_555
C4_4 C5_4 1_555 1_555
C5_4 N3_2 1_555 1_555
C6_4 C1_4 1_555 1_555
C7_4 C3_4 1_555 1_555
H1_4 C2_4 1_555 1_555
H2_4 C4_4 1_555 1_555
H3_4 C5_4 1_555 1_555
H8_4 O16_2 1_555 1_555

#END
