
###############################################################################
#
# This file contains modified crystal structure data generated from the
# MOF subset of the Cambridge Structural Database (CSD) v543 
# hosted by the Cambridge Crystallographic Data Centre (CCDC).
#
# This work is licensed under the Creative Commons
# Attribution-NonCommercial-ShareAlike 4.0 International License.
# To view a copy of this license, visit
# http://creativecommons.org/licenses/by-nc-sa/4.0/
# or send a letter to
# Creative Commons, PO Box 1866, Mountain View, CA 94042, USA.
#
# CIF created using the CSD Python API on 29 September 2022
# The structure has been converted into the P1 space group
# The structure has a 3D framework
# The original CSD entry NEVVAM is in the monoclinic crystal system
# The framework has been calculated to contain at least 10.0% void space
# The void calculation uses a probe of radius 1.32A, grid spacing 0.4
#
###############################################################################

data_NEVVAM
_chemical_formula_moiety         '(C56 H32 Co10 N8 O40)n'
_symmetry_cell_setting           triclinic
_symmetry_space_group_name_H-M   'P 1'
_symmetry_Int_Tables_number      1
_space_group_name_Hall           'P 1'
loop_
_symmetry_equiv_pos_site_id
_symmetry_equiv_pos_as_xyz
1 x,y,z
_cell_length_a                   17.0783(5)
_cell_length_b                   14.3338(4)
_cell_length_c                   10.7738(4)
_cell_angle_alpha                90
_cell_angle_beta                 106.3970(11)
_cell_angle_gamma                90
_cell_volume                     2530.13
loop_
_atom_site_label
_atom_site_type_symbol
_atom_site_fract_x
_atom_site_fract_y
_atom_site_fract_z
Co2 Co 0.0000 0.09148(3) 0.7500
O5 O 0.02076(10) 0.08061(13) 0.94983(17)
H1 H 0.034(2) 0.132(2) 0.981(3)
Co3 Co 0.093593(19) 0.02748(2) 0.55241(3)
O9 O 0.14539(12) 0.08559(13) 0.41813(18)
O12 O 0.16410(11) 0.14587(13) 0.65444(18)
O14 O 0.08372(11) 0.19782(13) 0.77230(19)
Co6 Co 0.093593(19) 0.97252(2) 0.05241(3)
Co7 Co 0.406407(19) 0.52748(2) 0.94759(3)
Co9 Co 0.5000 0.59148(3) 0.7500
N2 N 0.19266(13) 0.93071(15) 0.6215(2)
O6 O 0.08423(11) 0.98802(13) 0.73473(17)
O7 O 0.14539(12) 0.91441(13) 0.91813(18)
O10 O 0.33590(11) 0.64587(13) 0.84556(18)
O13 O 0.41628(11) 0.69782(13) 0.72770(19)
O18 O 0.02076(10) 0.91939(13) 0.44983(17)
H7 H 0.034(2) 0.868(2) 0.481(3)
C8 C 0.19568(15) 0.89239(17) 0.7367(2)
C9 C 0.24704(16) 0.81882(19) 0.7894(3)
H8 H 0.2462(19) 0.794(2) 0.861(3)
C10 C 0.29854(15) 0.78422(18) 0.7212(3)
C11 C 0.29823(18) 0.8264(2) 0.6052(3)
H9 H 0.332(2) 0.805(2) 0.561(3)
C12 C 0.24399(17) 0.8986(2) 0.5583(3)
H10 H 0.244(2) 0.930(2) 0.479(3)
C13 C 0.13728(15) 0.93389(18) 0.8030(2)
C14 C 0.35527(16) 0.70236(18) 0.7698(3)
O8 O 0.85461(12) 0.08559(13) 0.08187(18)
Co1 Co 0.906407(19) 0.02748(2) 0.94759(3)
Co2_2 Co 1.0000 0.09148(3) 0.7500
O11 O 0.83590(11) 0.14587(13) 0.84556(18)
O15 O 0.91628(11) 0.19782(13) 0.72770(19)
O16 O 0.97924(10) 0.08061(13) 0.55017(17)
H5 H 0.966(2) 0.132(2) 0.519(3)
H4 H 0.756(2) 0.930(2) 0.021(3)
O17 O 0.97924(10) 0.91939(13) 0.05017(17)
H6 H 0.966(2) 0.868(2) 0.019(3)
N1 N 0.80734(13) 0.93071(15) 0.8785(2)
O1 O 0.91577(11) 0.98802(13) 0.76527(17)
O2 O 0.85461(12) 0.91441(13) 0.58187(18)
O3 O 0.66410(11) 0.64587(13) 0.65444(18)
O4 O 0.58372(11) 0.69782(13) 0.77230(19)
C1 C 0.80432(15) 0.89239(17) 0.7633(2)
C2 C 0.75296(16) 0.81882(19) 0.7106(3)
H2 H 0.7538(19) 0.794(2) 0.639(3)
C3 C 0.70146(15) 0.78422(18) 0.7788(3)
C4 C 0.70177(18) 0.8264(2) 0.8948(3)
H3 H 0.668(2) 0.805(2) 0.939(3)
C5 C 0.75601(17) 0.8986(2) 0.9417(3)
C6 C 0.86272(15) 0.93389(18) 0.6970(2)
C7 C 0.64473(16) 0.70236(18) 0.7302(3)
Co4 Co 0.906407(19) 0.97252(2) 0.44759(3)
Co5 Co 0.593593(19) 0.52748(2) 0.55241(3)
H4_2 H 0.256(2) 0.430(2) 0.021(3)
Co6_2 Co 0.593593(19) 0.47252(2) 0.05241(3)
O8_2 O 0.35461(12) 0.58559(13) 0.08187(18)
O17_2 O 0.47924(10) 0.41939(13) 0.05017(17)
H6_2 H 0.466(2) 0.368(2) 0.019(3)
N1_2 N 0.30734(13) 0.43071(15) 0.8785(2)
O1_2 O 0.41577(11) 0.48802(13) 0.76527(17)
O2_2 O 0.35461(12) 0.41441(13) 0.58187(18)
O5_2 O 0.52076(10) 0.58061(13) 0.94983(17)
H1_2 H 0.534(2) 0.632(2) 0.981(3)
C1_2 C 0.30432(15) 0.39239(17) 0.7633(2)
C2_2 C 0.25296(16) 0.31882(19) 0.7106(3)
H2_2 H 0.2538(19) 0.294(2) 0.639(3)
C3_2 C 0.20146(15) 0.28422(18) 0.7788(3)
C4_2 C 0.20177(18) 0.3264(2) 0.8948(3)
H3_2 H 0.168(2) 0.305(2) 0.939(3)
C5_2 C 0.25601(17) 0.3986(2) 0.9417(3)
C6_2 C 0.36272(15) 0.43389(18) 0.6970(2)
C7_2 C 0.14473(16) 0.20236(18) 0.7302(3)
Co4_2 Co 0.406407(19) 0.47252(2) 0.44759(3)
N2_2 N 0.69266(13) 0.43071(15) 0.6215(2)
O6_2 O 0.58423(11) 0.48802(13) 0.73473(17)
O7_2 O 0.64539(12) 0.41441(13) 0.91813(18)
O9_2 O 0.64539(12) 0.58559(13) 0.41813(18)
O16_2 O 0.47924(10) 0.58061(13) 0.55017(17)
O18_2 O 0.52076(10) 0.41939(13) 0.44983(17)
H5_2 H 0.466(2) 0.632(2) 0.519(3)
H7_2 H 0.534(2) 0.368(2) 0.481(3)
C8_2 C 0.69568(15) 0.39239(17) 0.7367(2)
C9_2 C 0.74704(16) 0.31882(19) 0.7894(3)
H8_2 H 0.7462(19) 0.294(2) 0.861(3)
C10_2 C 0.79854(15) 0.28422(18) 0.7212(3)
C11_2 C 0.79823(18) 0.3264(2) 0.6052(3)
H9_2 H 0.832(2) 0.305(2) 0.561(3)
C12_2 C 0.74399(17) 0.3986(2) 0.5583(3)
H10_2 H 0.744(2) 0.430(2) 0.479(3)
C13_2 C 0.63728(15) 0.43389(18) 0.8030(2)
C14_2 C 0.85527(16) 0.20236(18) 0.7698(3)
N1_3 N 0.19266(13) 0.06929(15) 0.1215(2)
O1_3 O 0.08423(11) 0.01198(13) 0.23473(17)
O3_2 O 0.33590(11) 0.35413(13) 0.34556(18)
O4_2 O 0.41628(11) 0.30218(13) 0.22770(19)
C1_3 C 0.19568(15) 0.10761(17) 0.2367(2)
C2_3 C 0.24704(16) 0.18118(19) 0.2894(3)
H2_3 H 0.2462(19) 0.206(2) 0.361(3)
C3_3 C 0.29854(15) 0.21578(18) 0.2212(3)
C4_3 C 0.29823(18) 0.1736(2) 0.1052(3)
H3_3 H 0.332(2) 0.195(2) 0.061(3)
C5_3 C 0.24399(17) 0.1014(2) 0.0583(3)
C6_3 C 0.13728(15) 0.06611(18) 0.3030(2)
C7_3 C 0.35527(16) 0.29764(18) 0.2698(3)
Co8 Co 0.5000 0.40852(3) 0.2500
H4_3 H 0.244(2) 0.070(2) 0.979(3)
Co2_3 Co -0.0000 0.90852(3) 0.2500
O11_2 O 0.16410(11) 0.85413(13) 0.15444(18)
O15_2 O 0.08372(11) 0.80218(13) 0.27230(19)
N2_3 N 0.80734(13) 0.06929(15) 0.3785(2)
O6_3 O 0.91577(11) 0.01198(13) 0.26527(17)
O10_2 O 0.66410(11) 0.35413(13) 0.15444(18)
O13_2 O 0.58372(11) 0.30218(13) 0.27230(19)
C8_3 C 0.80432(15) 0.10761(17) 0.2633(2)
C9_3 C 0.75296(16) 0.18118(19) 0.2106(3)
H8_3 H 0.7538(19) 0.206(2) 0.139(3)
C10_3 C 0.70146(15) 0.21578(18) 0.2788(3)
C11_3 C 0.70177(18) 0.1736(2) 0.3948(3)
H9_3 H 0.668(2) 0.195(2) 0.439(3)
C12_3 C 0.75601(17) 0.1014(2) 0.4417(3)
H10_3 H 0.756(2) 0.070(2) 0.521(3)
C13_3 C 0.86272(15) 0.06611(18) 0.1970(2)
C14_3 C 0.64473(16) 0.29764(18) 0.2302(3)
Co2_4 Co 1.0000 0.90852(3) 0.2500
O12_2 O 0.83590(11) 0.85413(13) 0.34556(18)
O14_2 O 0.91628(11) 0.80218(13) 0.22770(19)
N1_4 N 0.69266(13) 0.56929(15) 0.1215(2)
O1_4 O 0.58423(11) 0.51198(13) 0.23473(17)
C1_4 C 0.69568(15) 0.60761(17) 0.2367(2)
C2_4 C 0.74704(16) 0.68118(19) 0.2894(3)
H2_4 H 0.7462(19) 0.706(2) 0.361(3)
C3_4 C 0.79854(15) 0.71578(18) 0.2212(3)
C4_4 C 0.79823(18) 0.6736(2) 0.1052(3)
H3_4 H 0.832(2) 0.695(2) 0.061(3)
C5_4 C 0.74399(17) 0.6014(2) 0.0583(3)
C6_4 C 0.63728(15) 0.56611(18) 0.3030(2)
C7_4 C 0.85527(16) 0.79764(18) 0.2698(3)
N2_4 N 0.30734(13) 0.56929(15) 0.3785(2)
O6_4 O 0.41577(11) 0.51198(13) 0.26527(17)
C8_4 C 0.30432(15) 0.60761(17) 0.2633(2)
C9_4 C 0.25296(16) 0.68118(19) 0.2106(3)
H8_4 H 0.2538(19) 0.706(2) 0.139(3)
C10_4 C 0.20146(15) 0.71578(18) 0.2788(3)
C11_4 C 0.20177(18) 0.6736(2) 0.3948(3)
H9_4 H 0.168(2) 0.695(2) 0.439(3)
C12_4 C 0.25601(17) 0.6014(2) 0.4417(3)
H10_4 H 0.256(2) 0.570(2) 0.521(3)
C13_4 C 0.36272(15) 0.56611(18) 0.1970(2)
C14_4 C 0.14473(16) 0.79764(18) 0.2302(3)
H4_4 H 0.744(2) 0.570(2) 0.979(3)
loop_
_geom_bond_atom_site_label_1
_geom_bond_atom_site_label_2
_geom_bond_site_symmetry_1
_geom_bond_site_symmetry_2
H1 O5 1_555 1_555
O9 Co3 1_555 1_555
O12 Co3 1_555 1_555
O14 Co2 1_555 1_555
Co2 O5 1_555 1_555
Co7 O10 1_555 1_555
Co9 O13 1_555 1_555
N2 C8 1_555 1_555
O10 C14 1_555 1_555
O13 C14 1_555 1_555
H7 O18 1_555 1_555
C8 C9 1_555 1_555
C9 H8 1_555 1_555
C10 C9 1_555 1_555
C11 C10 1_555 1_555
H9 C11 1_555 1_555
C12 N2 1_555 1_555
H10 C12 1_555 1_555
C13 O6 1_555 1_555
C14 C10 1_555 1_555
O7 C13 1_555 1_555
C8 C13 1_555 1_555
C11 C12 1_555 1_555
O11 Co1 1_555 1_555
O15 Co2_2 1_555 1_555
O16 Co2_2 1_555 1_555
H5 O16 1_555 1_555
H6 O17 1_555 1_555
N1 C1 1_555 1_555
O2 C6 1_555 1_555
O3 C7 1_555 1_555
O4 C7 1_555 1_555
C1 C2 1_555 1_555
C2 H2 1_555 1_555
C3 C2 1_555 1_555
C4 C3 1_555 1_555
H3 C4 1_555 1_555
C5 N1 1_555 1_555
C6 O1 1_555 1_555
C7 C3 1_555 1_555
Co4 O2 1_555 1_555
Co5 O3 1_555 1_555
Co9 O4 1_555 1_555
C1 C6 1_555 1_555
C4 C5 1_555 1_555
H6_2 O17_2 1_555 1_555
Co6_2 O17_2 1_555 1_555
Co7 N1_2 1_555 1_555
Co9 O1_2 1_555 1_555
N1_2 C1_2 1_555 1_555
O1_2 Co7 1_555 1_555
O2_2 C6_2 1_555 1_555
O12 C7_2 1_555 1_555
O14 C7_2 1_555 1_555
O5_2 Co7 1_555 1_555
H1_2 O5_2 1_555 1_555
C1_2 C2_2 1_555 1_555
C2_2 H2_2 1_555 1_555
C3_2 C2_2 1_555 1_555
C4_2 C3_2 1_555 1_555
H3_2 C4_2 1_555 1_555
C5_2 N1_2 1_555 1_555
C6_2 O1_2 1_555 1_555
C7_2 C3_2 1_555 1_555
Co5 N2_2 1_555 1_555
Co4_2 O2_2 1_555 1_555
N2_2 C8_2 1_555 1_555
O6_2 Co9 1_555 1_555
O9_2 Co5 1_555 1_555
O11 C14_2 1_555 1_555
O15 C14_2 1_555 1_555
O16_2 Co9 1_555 1_555
O18_2 Co5 1_555 1_555
H5_2 O16_2 1_555 1_555
H7_2 O18_2 1_555 1_555
C8_2 C9_2 1_555 1_555
C9_2 H8_2 1_555 1_555
C10_2 C9_2 1_555 1_555
C11_2 C10_2 1_555 1_555
H9_2 C11_2 1_555 1_555
C12_2 N2_2 1_555 1_555
H10_2 C12_2 1_555 1_555
C13_2 O6_2 1_555 1_555
C14_2 C10_2 1_555 1_555
Co9 O5_2 1_555 1_555
C1_2 C6_2 1_555 1_555
C4_2 C5_2 1_555 1_555
Co5 O6_2 1_555 1_555
Co5 O16_2 1_555 1_555
Co4_2 O16_2 1_555 1_555
Co4_2 O18_2 1_555 1_555
O7_2 C13_2 1_555 1_555
C8_2 C13_2 1_555 1_555
C11_2 C12_2 1_555 1_555
N1_3 C1_3 1_555 1_555
O9 C6_3 1_555 1_555
O3_2 C7_3 1_555 1_555
O4_2 C7_3 1_555 1_555
C1_3 C2_3 1_555 1_555
C2_3 H2_3 1_555 1_555
C3_3 C2_3 1_555 1_555
C4_3 C3_3 1_555 1_555
H3_3 C4_3 1_555 1_555
C5_3 N1_3 1_555 1_555
C6_3 O1_3 1_555 1_555
C7_3 C3_3 1_555 1_555
Co4_2 O3_2 1_555 1_555
Co8 O4_2 1_555 1_555
C1_3 C6_3 1_555 1_555
C4_3 C5_3 1_555 1_555
O11_2 Co6 1_555 1_555
O15_2 Co2_3 1_555 1_555
O18 Co2_3 1_555 1_555
Co6_2 O10_2 1_555 1_555
Co8 O13_2 1_555 1_555
N2_3 C8_3 1_555 1_555
O10_2 C14_3 1_555 1_555
O13_2 C14_3 1_555 1_555
C8_3 C9_3 1_555 1_555
C9_3 H8_3 1_555 1_555
C10_3 C9_3 1_555 1_555
C11_3 C10_3 1_555 1_555
H9_3 C11_3 1_555 1_555
C12_3 N2_3 1_555 1_555
H10_3 C12_3 1_555 1_555
C13_3 O6_3 1_555 1_555
C14_3 C10_3 1_555 1_555
O8 C13_3 1_555 1_555
C8_3 C13_3 1_555 1_555
C11_3 C12_3 1_555 1_555
O12_2 Co4 1_555 1_555
O14_2 Co2_4 1_555 1_555
Co2_4 O17 1_555 1_555
Co6_2 N1_4 1_555 1_555
Co8 O1_4 1_555 1_555
N1_4 C1_4 1_555 1_555
O1_4 Co6_2 1_555 1_555
O9_2 C6_4 1_555 1_555
O12_2 C7_4 1_555 1_555
O14_2 C7_4 1_555 1_555
C1_4 C2_4 1_555 1_555
C2_4 H2_4 1_555 1_555
C3_4 C2_4 1_555 1_555
C4_4 C3_4 1_555 1_555
H3_4 C4_4 1_555 1_555
C5_4 N1_4 1_555 1_555
C6_4 O1_4 1_555 1_555
C7_4 C3_4 1_555 1_555
Co4_2 N2_4 1_555 1_555
N2_4 C8_4 1_555 1_555
O6_4 Co8 1_555 1_555
O11_2 C14_4 1_555 1_555
O15_2 C14_4 1_555 1_555
O18_2 Co8 1_555 1_555
C8_4 C9_4 1_555 1_555
C9_4 H8_4 1_555 1_555
C10_4 C9_4 1_555 1_555
C11_4 C10_4 1_555 1_555
H9_4 C11_4 1_555 1_555
C12_4 N2_4 1_555 1_555
H10_4 C12_4 1_555 1_555
C13_4 O6_4 1_555 1_555
C14_4 C10_4 1_555 1_555
Co8 O17_2 1_555 1_555
C1_4 C6_4 1_555 1_555
C4_4 C5_4 1_555 1_555
Co4_2 O6_4 1_555 1_555
O8_2 C13_4 1_555 1_555
C8_4 C13_4 1_555 1_555
C11_4 C12_4 1_555 1_555

#END
