
###############################################################################
#
# This file contains modified crystal structure data generated from the
# MOF subset of the Cambridge Structural Database (CSD) v543 
# hosted by the Cambridge Crystallographic Data Centre (CCDC).
#
# This work is licensed under the Creative Commons
# Attribution-NonCommercial-ShareAlike 4.0 International License.
# To view a copy of this license, visit
# http://creativecommons.org/licenses/by-nc-sa/4.0/
# or send a letter to
# Creative Commons, PO Box 1866, Mountain View, CA 94042, USA.
#
# CIF created using the CSD Python API on 29 September 2022
# The structure has been converted into the P1 space group
# The structure has a 3D framework
# The original CSD entry NEVVAM02 is in the monoclinic crystal system
# The framework has been calculated to contain at least 10.0% void space
# The void calculation uses a probe of radius 1.32A, grid spacing 0.4
#
###############################################################################

data_NEVVAM02
_chemical_formula_moiety         '(C56 H32 Co14 N8 O40)n'
_symmetry_cell_setting           triclinic
_symmetry_space_group_name_H-M   'P 1'
_symmetry_Int_Tables_number      1
_space_group_name_Hall           'P 1'
loop_
_symmetry_equiv_pos_site_id
_symmetry_equiv_pos_as_xyz
1 x,y,z
_cell_length_a                   17.452(4)
_cell_length_b                   13.881(3)
_cell_length_c                   10.825(2)
_cell_angle_alpha                90
_cell_angle_beta                 105.777(3)
_cell_angle_gamma                90
_cell_volume                     2523.58
loop_
_atom_site_label
_atom_site_type_symbol
_atom_site_fract_x
_atom_site_fract_y
_atom_site_fract_z
Co1 Co 0.090985(16) 0.03011(2) 0.05012(3)
Co2 Co 0.0000 0.09516(3) 0.2500
O1 O 0.41824(10) 0.48799(13) 0.26758(16)
O2 O 0.36053(12) 0.40866(13) 0.08789(17)
O3 O 0.15890(11) 0.15095(14) 0.15064(18)
O4 O 0.08332(11) 0.20463(13) 0.27303(19)
N1 N 0.31137(11) 0.43217(15) 0.38129(18)
C1 C 0.30744(13) 0.39262(16) 0.2662(3)
C2 C 0.25347(14) 0.32099(17) 0.2124(3)
C3 C 0.20063(13) 0.28900(17) 0.2795(3)
C4 C 0.20247(16) 0.3325(2) 0.3956(3)
C5 C 0.25921(16) 0.40282(19) 0.4437(3)
C6 C 0.36668(13) 0.43188(16) 0.2006(2)
C7 C 0.14211(14) 0.20815(16) 0.2293(3)
H1 H 0.2546 0.2952 0.1343
H2 H 0.1696 0.3147 0.4542
H3 H 0.2611 0.4242 0.5220
O10 O 0.02083(9) 0.08266(11) 0.44815(15)
H8 H 0.0348 0.1330 0.4798
Co7 Co 0.409015(16) 0.53011(2) 0.44988(3)
Co11 Co 0.5000 0.59516(3) 0.2500
Co8 Co 0.409015(16) 0.46989(2) 0.94988(3)
O13 O 0.13947(12) 0.09134(13) 0.91211(17)
Co5 Co 0.090985(16) 0.96989(2) 0.55012(3)
O12 O 0.08176(10) 0.98799(13) 0.23242(16)
N4 N 0.18863(11) 0.93217(15) 0.11871(18)
O15 O 0.02083(9) 0.91734(11) 0.94815(15)
Co2_2 Co 1.0000 0.09516(3) 0.2500
O5 O 0.97917(9) 0.08266(11) 0.05185(15)
H4 H 0.9652 0.1330 0.0202
Co3 Co 0.909015(16) 0.03011(2) 0.44988(3)
O6 O 0.58176(10) 0.48799(13) 0.23242(16)
O7 O 0.63947(12) 0.40866(13) 0.41211(17)
O8 O 0.84110(11) 0.15095(14) 0.34936(18)
O9 O 0.91668(11) 0.20463(13) 0.22697(19)
N2 N 0.68863(11) 0.43217(15) 0.11871(18)
C8 C 0.69256(13) 0.39262(16) 0.2338(3)
C9 C 0.74653(14) 0.32099(17) 0.2876(3)
C10 C 0.79937(13) 0.28900(17) 0.2205(3)
C11 C 0.79753(16) 0.3325(2) 0.1044(3)
C12 C 0.74079(16) 0.40282(19) 0.0563(3)
C13 C 0.63332(13) 0.43188(16) 0.2994(2)
C14 C 0.85789(14) 0.20815(16) 0.2707(3)
H5 H 0.7454 0.2952 0.3657
H6 H 0.8304 0.3147 0.0458
Co6 Co 0.590985(16) 0.53011(2) 0.05012(3)
Co9 Co 0.590985(16) 0.46989(2) 0.55012(3)
O14 O 0.86053(12) 0.09134(13) 0.58789(17)
O11 O 0.91824(10) 0.98799(13) 0.26758(16)
O16 O 0.97917(9) 0.91734(11) 0.55185(15)
N3 N 0.81137(11) 0.93217(15) 0.38129(18)
Co4 Co 0.909015(16) 0.96989(2) 0.94988(3)
O2_2 O 0.86053(12) 0.90866(13) 0.08789(17)
O3_2 O 0.65890(11) 0.65095(14) 0.15064(18)
O4_2 O 0.58332(11) 0.70463(13) 0.27303(19)
O5_2 O 0.47917(9) 0.58266(11) 0.05185(15)
C1_2 C 0.80744(13) 0.89262(16) 0.2662(3)
C2_2 C 0.75347(14) 0.82099(17) 0.2124(3)
C3_2 C 0.70063(13) 0.78900(17) 0.2795(3)
C4_2 C 0.70247(16) 0.8325(2) 0.3956(3)
C5_2 C 0.75921(16) 0.90282(19) 0.4437(3)
C6_2 C 0.86668(13) 0.93188(16) 0.2006(2)
C7_2 C 0.64211(14) 0.70815(16) 0.2293(3)
H1_2 H 0.7546 0.7952 0.1343
H2_2 H 0.6696 0.8147 0.4542
H3_2 H 0.7611 0.9242 0.5220
H4_2 H 0.4652 0.6330 0.0202
O7_2 O 0.13947(12) 0.90866(13) 0.41211(17)
O8_2 O 0.34110(11) 0.65095(14) 0.34936(18)
O9_2 O 0.41668(11) 0.70463(13) 0.22697(19)
O10_2 O 0.52083(9) 0.58266(11) 0.44815(15)
C8_2 C 0.19256(13) 0.89262(16) 0.2338(3)
C9_2 C 0.24653(14) 0.82099(17) 0.2876(3)
C10_2 C 0.29937(13) 0.78900(17) 0.2205(3)
C11_2 C 0.29753(16) 0.8325(2) 0.1044(3)
C12_2 C 0.24079(16) 0.90282(19) 0.0563(3)
C13_2 C 0.13332(13) 0.93188(16) 0.2994(2)
C14_2 C 0.35789(14) 0.70815(16) 0.2707(3)
H5_2 H 0.2454 0.7952 0.3657
H6_2 H 0.3304 0.8147 0.0458
H8_2 H 0.5348 0.6330 0.4798
O14_2 O 0.36053(12) 0.59134(13) 0.58789(17)
O16_2 O 0.47917(9) 0.41734(11) 0.55185(15)
H7 H 0.2389 0.9242 0.9780
O13_2 O 0.63947(12) 0.59134(13) 0.91211(17)
O15_2 O 0.52083(9) 0.41734(11) 0.94815(15)
O11_2 O 0.08176(10) 0.01201(13) 0.73242(16)
N3_2 N 0.18863(11) 0.06783(15) 0.61871(18)
Co2_3 Co -0.0000 0.90484(3) 0.7500
H4_3 H 0.0348 0.8670 0.9798
O6_2 O 0.41824(10) 0.51201(13) 0.76758(16)
O8_3 O 0.15890(11) 0.84905(14) 0.65064(18)
O9_3 O 0.08332(11) 0.79537(13) 0.77303(19)
N2_2 N 0.31137(11) 0.56783(15) 0.88129(18)
C8_3 C 0.30744(13) 0.60738(16) 0.7662(3)
C9_3 C 0.25347(14) 0.67901(17) 0.7124(3)
C10_3 C 0.20063(13) 0.71100(17) 0.7795(3)
C11_3 C 0.20247(16) 0.6675(2) 0.8956(3)
C12_3 C 0.25921(16) 0.59718(19) 0.9437(3)
C13_3 C 0.36668(13) 0.56812(16) 0.7006(2)
C14_3 C 0.14211(14) 0.79185(16) 0.7293(3)
H5_3 H 0.2546 0.7048 0.6343
H6_3 H 0.1696 0.6853 0.9542
Co10 Co 0.5000 0.40484(3) 0.7500
O12_2 O 0.91824(10) 0.01201(13) 0.76758(16)
N4_2 N 0.81137(11) 0.06783(15) 0.88129(18)
Co2_4 Co 1.0000 0.90484(3) 0.7500
O1_2 O 0.58176(10) 0.51201(13) 0.73242(16)
O3_3 O 0.84110(11) 0.84905(14) 0.84936(18)
O4_3 O 0.91668(11) 0.79537(13) 0.72697(19)
N1_2 N 0.68863(11) 0.56783(15) 0.61871(18)
C1_3 C 0.69256(13) 0.60738(16) 0.7338(3)
C2_3 C 0.74653(14) 0.67901(17) 0.7876(3)
C3_3 C 0.79937(13) 0.71100(17) 0.7205(3)
C4_3 C 0.79753(16) 0.6675(2) 0.6044(3)
C5_3 C 0.74079(16) 0.59718(19) 0.5563(3)
C6_3 C 0.63332(13) 0.56812(16) 0.7994(2)
C7_3 C 0.85789(14) 0.79185(16) 0.7707(3)
H1_3 H 0.7454 0.7048 0.8657
H2_3 H 0.8304 0.6853 0.5458
H3_3 H 0.7389 0.5758 0.4780
H8_3 H 0.9652 0.8670 0.5202
H7_2 H 0.7611 0.0758 0.0220
O3_4 O 0.34110(11) 0.34905(14) 0.84936(18)
O4_4 O 0.41668(11) 0.29537(13) 0.72697(19)
C1_4 C 0.19256(13) 0.10738(16) 0.7338(3)
C2_4 C 0.24653(14) 0.17901(17) 0.7876(3)
C3_4 C 0.29937(13) 0.21100(17) 0.7205(3)
C4_4 C 0.29753(16) 0.1675(2) 0.6044(3)
C5_4 C 0.24079(16) 0.09718(19) 0.5563(3)
C6_4 C 0.13332(13) 0.06812(16) 0.7994(2)
C7_4 C 0.35789(14) 0.29185(16) 0.7707(3)
H1_4 H 0.2454 0.2048 0.8657
H2_4 H 0.3304 0.1853 0.5458
H3_4 H 0.2389 0.0758 0.4780
H4_4 H 0.5348 0.3670 0.9798
O8_4 O 0.65890(11) 0.34905(14) 0.65064(18)
O9_4 O 0.58332(11) 0.29537(13) 0.77303(19)
C8_4 C 0.80744(13) 0.10738(16) 0.7662(3)
C9_4 C 0.75347(14) 0.17901(17) 0.7124(3)
C10_4 C 0.70063(13) 0.21100(17) 0.7795(3)
C11_4 C 0.70247(16) 0.1675(2) 0.8956(3)
C12_4 C 0.75921(16) 0.09718(19) 0.9437(3)
C13_4 C 0.86668(13) 0.06812(16) 0.7006(2)
C14_4 C 0.64211(14) 0.29185(16) 0.7293(3)
H5_4 H 0.7546 0.2048 0.6343
H6_4 H 0.6696 0.1853 0.9542
H8_4 H 0.4652 0.3670 0.5202
H7_3 H 0.7389 0.4242 0.9780
H7_4 H 0.2611 0.5758 0.0220
loop_
_geom_bond_atom_site_label_1
_geom_bond_atom_site_label_2
_geom_bond_site_symmetry_1
_geom_bond_site_symmetry_2
Co1 O3 1_555 1_555
Co2 O4 1_555 1_555
O1 C6 1_555 1_555
O2 C6 1_555 1_555
O3 C7 1_555 1_555
O4 C7 1_555 1_555
N1 C1 1_555 1_555
C1 C2 1_555 1_555
C2 C3 1_555 1_555
C3 C4 1_555 1_555
C4 C5 1_555 1_555
C5 N1 1_555 1_555
C6 C1 1_555 1_555
C7 C3 1_555 1_555
H1 C2 1_555 1_555
H2 C4 1_555 1_555
H3 C5 1_555 1_555
O10 Co2 1_555 1_555
H8 O10 1_555 1_555
Co7 O1 1_555 1_555
Co11 O1 1_555 1_555
N1 Co7 1_555 1_555
H4 O5 1_555 1_555
Co3 O8 1_555 1_555
O6 C13 1_555 1_555
O7 C13 1_555 1_555
O8 C14 1_555 1_555
O9 Co2_2 1_555 1_555
N2 C8 1_555 1_555
C8 C9 1_555 1_555
C9 C10 1_555 1_555
C10 C11 1_555 1_555
C11 C12 1_555 1_555
C12 N2 1_555 1_555
C13 C8 1_555 1_555
C14 O9 1_555 1_555
H5 C9 1_555 1_555
H6 C11 1_555 1_555
Co6 O6 1_555 1_555
Co9 O7 1_555 1_555
Co11 O6 1_555 1_555
O14 Co3 1_555 1_555
Co2_2 O5 1_555 1_555
N2 Co6 1_555 1_555
C10 C14 1_555 1_555
Co6 O3_2 1_555 1_555
Co11 O4_2 1_555 1_555
O11 C6_2 1_555 1_555
O2_2 C6_2 1_555 1_555
O3_2 C7_2 1_555 1_555
O4_2 C7_2 1_555 1_555
O5_2 Co6 1_555 1_555
N3 C1_2 1_555 1_555
C1_2 C2_2 1_555 1_555
C2_2 C3_2 1_555 1_555
C3_2 C4_2 1_555 1_555
C4_2 C5_2 1_555 1_555
C5_2 N3 1_555 1_555
C6_2 C1_2 1_555 1_555
C7_2 C3_2 1_555 1_555
H1_2 C2_2 1_555 1_555
H2_2 C4_2 1_555 1_555
H3_2 C5_2 1_555 1_555
H4_2 O5_2 1_555 1_555
Co7 O8_2 1_555 1_555
O12 C13_2 1_555 1_555
O7_2 C13_2 1_555 1_555
O8_2 C14_2 1_555 1_555
O9_2 Co11 1_555 1_555
O10_2 Co11 1_555 1_555
N4 C8_2 1_555 1_555
C8_2 C9_2 1_555 1_555
C9_2 C10_2 1_555 1_555
C10_2 C11_2 1_555 1_555
C11_2 C12_2 1_555 1_555
C12_2 N4 1_555 1_555
C13_2 C8_2 1_555 1_555
C14_2 O9_2 1_555 1_555
H5_2 C9_2 1_555 1_555
H6_2 C11_2 1_555 1_555
H8_2 O10_2 1_555 1_555
Co9 O10_2 1_555 1_555
Co5 O7_2 1_555 1_555
O14_2 Co7 1_555 1_555
O16_2 Co7 1_555 1_555
Co11 O5_2 1_555 1_555
Co7 O10_2 1_555 1_555
C10_2 C14_2 1_555 1_555
Co9 O16_2 1_555 1_555
Co8 O15_2 1_555 1_555
H4_3 O15 1_555 1_555
Co5 O8_3 1_555 1_555
O6_2 C13_3 1_555 1_555
O14_2 C13_3 1_555 1_555
O8_3 C14_3 1_555 1_555
O9_3 Co2_3 1_555 1_555
N2_2 C8_3 1_555 1_555
C8_3 C9_3 1_555 1_555
C9_3 C10_3 1_555 1_555
C10_3 C11_3 1_555 1_555
C11_3 C12_3 1_555 1_555
C12_3 N2_2 1_555 1_555
C13_3 C8_3 1_555 1_555
C14_3 O9_3 1_555 1_555
H5_3 C9_3 1_555 1_555
H6_3 C11_3 1_555 1_555
Co8 O6_2 1_555 1_555
Co10 O6_2 1_555 1_555
Co2_3 O15 1_555 1_555
N2_2 Co8 1_555 1_555
C10_3 C14_3 1_555 1_555
Co4 O3_3 1_555 1_555
Co2_4 O4_3 1_555 1_555
O1_2 C6_3 1_555 1_555
O13_2 C6_3 1_555 1_555
O3_3 C7_3 1_555 1_555
O4_3 C7_3 1_555 1_555
N1_2 C1_3 1_555 1_555
C1_3 C2_3 1_555 1_555
C2_3 C3_3 1_555 1_555
C3_3 C4_3 1_555 1_555
C4_3 C5_3 1_555 1_555
C5_3 N1_2 1_555 1_555
C6_3 C1_3 1_555 1_555
C7_3 C3_3 1_555 1_555
H1_3 C2_3 1_555 1_555
H2_3 C4_3 1_555 1_555
H3_3 C5_3 1_555 1_555
O16 Co2_4 1_555 1_555
H8_3 O16 1_555 1_555
Co9 O1_2 1_555 1_555
Co10 O1_2 1_555 1_555
N1_2 Co9 1_555 1_555
Co8 O3_4 1_555 1_555
Co10 O4_4 1_555 1_555
O11_2 C6_4 1_555 1_555
O13 C6_4 1_555 1_555
O3_4 C7_4 1_555 1_555
O4_4 C7_4 1_555 1_555
N3_2 C1_4 1_555 1_555
C1_4 C2_4 1_555 1_555
C2_4 C3_4 1_555 1_555
C3_4 C4_4 1_555 1_555
C4_4 C5_4 1_555 1_555
C5_4 N3_2 1_555 1_555
C6_4 C1_4 1_555 1_555
C7_4 C3_4 1_555 1_555
H1_4 C2_4 1_555 1_555
H2_4 C4_4 1_555 1_555
H3_4 C5_4 1_555 1_555
H4_4 O15_2 1_555 1_555
Co9 O8_4 1_555 1_555
O12_2 C13_4 1_555 1_555
O14 C13_4 1_555 1_555
O8_4 C14_4 1_555 1_555
O9_4 Co10 1_555 1_555
O16_2 Co10 1_555 1_555
N4_2 C8_4 1_555 1_555
C8_4 C9_4 1_555 1_555
C9_4 C10_4 1_555 1_555
C10_4 C11_4 1_555 1_555
C11_4 C12_4 1_555 1_555
C12_4 N4_2 1_555 1_555
C13_4 C8_4 1_555 1_555
C14_4 O9_4 1_555 1_555
H5_4 C9_4 1_555 1_555
H6_4 C11_4 1_555 1_555
H8_4 O16_2 1_555 1_555
Co10 O15_2 1_555 1_555
C10_4 C14_4 1_555 1_555

#END
