
###############################################################################
#
# This file contains modified crystal structure data generated from the
# MOF subset of the Cambridge Structural Database (CSD) v543 
# hosted by the Cambridge Crystallographic Data Centre (CCDC).
#
# This work is licensed under the Creative Commons
# Attribution-NonCommercial-ShareAlike 4.0 International License.
# To view a copy of this license, visit
# http://creativecommons.org/licenses/by-nc-sa/4.0/
# or send a letter to
# Creative Commons, PO Box 1866, Mountain View, CA 94042, USA.
#
# CIF created using the CSD Python API on 29 September 2022
# The structure has been converted into the P1 space group
# The structure has a 3D framework
# The original CSD entry NEXXEV is in the orthorhombic crystal system
# The framework has been calculated to contain at least 10.0% void space
# The void calculation uses a probe of radius 1.32A, grid spacing 0.4
# H atom positions have been added when not included in the experimental data
#
###############################################################################

data_NEXXEV
_chemical_formula_moiety         '(C288 H248 Li28 N24 O96)n'
_symmetry_cell_setting           triclinic
_symmetry_space_group_name_H-M   'P 1'
_symmetry_Int_Tables_number      1
_space_group_name_Hall           'P 1'
loop_
_symmetry_equiv_pos_site_id
_symmetry_equiv_pos_as_xyz
1 x,y,z
_cell_length_a                   28.643(6)
_cell_length_b                   28.661(6)
_cell_length_c                   12.915(3)
_cell_angle_alpha                90
_cell_angle_beta                 90
_cell_angle_gamma                90
_cell_volume                     10602.4
loop_
_atom_site_label
_atom_site_type_symbol
_atom_site_fract_x
_atom_site_fract_y
_atom_site_fract_z
Li2 Li 0.2658(2) 0.21665(19) 0.4547(5)
Li3 Li 0.2833(2) 0.23887(19) 0.6509(5)
Li4 Li 0.3423(6) 0.3518(5) 0.3016(13)
O1 O 0.3940(4) 0.3659(4) 0.2138(8)
O2 O 0.3449(6) 0.4059(5) 0.3923(16)
O3 O 0.31405(8) 0.25479(9) 0.5209(2)
O4 O 0.33663(9) 0.29439(11) 0.3821(2)
O5 O 0.72697(8) 0.23520(8) 0.3975(2)
O6 O 0.67787(10) 0.22317(13) 0.2648(2)
N1 N 0.53133(14) 0.2716(5) 0.6232(4)
C1 C 0.34492(11) 0.27571(13) 0.4687(3)
C2 C 0.39344(13) 0.27727(19) 0.5108(3)
C3 C 0.40521(16) 0.2473(3) 0.5906(4)
H1 H 0.3815 0.2287 0.6214
C4 C 0.45135(19) 0.2436(4) 0.6274(5)
H2 H 0.4590 0.2222 0.6809
C5 C 0.48470(17) 0.2715(4) 0.5847(4)
C6 C 0.47277(15) 0.3040(3) 0.5070(4)
H3 H 0.4961 0.3241 0.4798
C7 C 0.42710(15) 0.3070(2) 0.4696(4)
H4 H 0.4192 0.3289 0.4172
C8 C 0.68617(12) 0.23250(13) 0.3579(3)
C9 C 0.64614(12) 0.24213(18) 0.4286(3)
C10 C 0.65166(12) 0.2528(2) 0.5332(3)
H5 H 0.6823 0.2531 0.5616
C11 C 0.61446(16) 0.2629(3) 0.5972(4)
H6 H 0.6198 0.2708 0.6676
C12 C 0.56848(15) 0.2615(4) 0.5582(4)
C13 C 0.56277(16) 0.2494(4) 0.4536(4)
H7 H 0.5322 0.2472 0.4256
C14 C 0.60033(14) 0.2407(3) 0.3916(3)
H8 H 0.5952 0.2334 0.3207
C15 C 0.5390(2) 0.2749(9) 0.7335(6)
O9 O 0.25455(10) 0.18522(8) 0.5835(2)
O10 O 0.21775(13) 0.15804(9) 0.7224(2)
C23 C 0.23761(17) 0.15244(12) 0.6362(3)
C24 C 0.2419(3) 0.10437(13) 0.5931(3)
C25 C 0.2737(3) 0.09529(16) 0.5131(4)
H13 H 0.2911 0.1202 0.4840
C26 C 0.2799(5) 0.05076(18) 0.4763(5)
H14 H 0.3015 0.0456 0.4217
C27 C 0.2555(5) 0.01332(15) 0.5168(4)
C28 C 0.2255(4) 0.02121(18) 0.5968(5)
C29 C 0.2182(3) 0.06661(16) 0.6351(4)
H16 H 0.1969 0.0715 0.6904
O11 O 0.1817(10) 0.1921(9) 0.2315(19)
O12 O 0.2198(9) 0.1709(13) 0.354(3)
N3 N 0.1823(6) 0.1648(5) 0.3064(15)
C31 C 0.1415(6) 0.1260(5) 0.3171(15)
C32 C 0.1351(6) 0.1001(5) 0.4070(15)
H17 H 0.1552 0.1047 0.4645
C33 C 0.0992(6) 0.0676(5) 0.4127(15)
H18 H 0.0948 0.0499 0.4741
C34 C 0.0697(6) 0.0609(5) 0.3285(15)
H19 H 0.0452 0.0387 0.3324
C35 C 0.0761(6) 0.0868(5) 0.2386(15)
H20 H 0.0560 0.0822 0.1810
C36 C 0.1120(6) 0.1193(5) 0.2329(15)
H21 H 0.1164 0.1370 0.1714
Li5 Li 0.27885(19) 0.2829(2) 0.3019(5)
Li6 Li 0.77885(19) 0.2171(2) 0.3019(5)
Li7 Li 0.22115(19) 0.2171(2) 0.8019(5)
Li9 Li 0.7658(2) 0.28335(19) 0.4547(5)
Li10 Li 0.7167(2) 0.23887(19) 0.1509(5)
Li11 Li 0.2167(2) 0.26113(19) 0.1509(5)
Li13 Li 0.1577(6) 0.1482(5) 0.8016(13)
O15 O 0.22697(8) 0.26480(8) 0.3975(2)
O16 O 0.32213(10) 0.22317(13) 0.7648(2)
O17 O 0.23068(8) 0.27083(8) 0.70762(19)
O18 O 0.28901(13) 0.18224(9) 0.3390(2)
O19 O 0.28225(13) 0.34196(9) 0.2224(2)
O21 O 0.3183(10) 0.3079(9) 0.7315(19)
H22 H 0.422889 0.368049 0.256037
H23 H 0.397605 0.340848 0.161295
H24 H 0.522477 0.245403 0.771998
H25 H 0.576346 0.274505 0.749285
H26 H 0.52396 0.30728 0.762373
H27 H 0.341048 0.434758 0.35062
H28 H 0.31945 0.403898 0.444319
Li1 Li 0.27885(19) 0.7171(2) 0.8019(5)
O7 O 0.26932(8) 0.77083(8) 0.70762(19)
O8 O 0.28901(13) 0.81776(9) 0.8390(2)
N2 N 0.2629(5) 0.96842(15) 0.4769(4)
C16 C 0.27784(14) 0.81028(11) 0.7452(3)
C17 C 0.27619(18) 0.85175(12) 0.6750(3)
C18 C 0.2857(3) 0.89593(15) 0.7117(4)
H9 H 0.2962 0.9000 0.7809
C19 C 0.2800(5) 0.93504(16) 0.6467(4)
H10 H 0.2849 0.9655 0.6739
C20 C 0.2674(4) 0.92971(16) 0.5438(4)
C21 C 0.2600(3) 0.88477(15) 0.5066(3)
H11 H 0.2527 0.8804 0.4354
C22 C 0.2629(2) 0.84620(12) 0.5709(3)
H12 H 0.2560 0.8160 0.5447
H15 H 0.2093 0.9957 0.6272
C30 C 0.2686(8) 0.9623(2) 0.3666(5)
Li8 Li 0.2658(2) 0.78335(19) 0.9547(5)
Li12 Li 0.2167(2) 0.73887(19) 0.6509(5)
O13 O 0.33663(9) 0.70561(11) 0.8821(2)
O14 O 0.22697(8) 0.73520(8) 0.8975(2)
O20 O 0.28225(13) 0.65804(9) 0.7224(2)
H29 H 0.242692 0.937597 0.338263
H30 H 0.263936 0.995707 0.327784
H31 H 0.30347 0.948983 0.350601
Li1_2 Li 0.72115(19) 0.2829(2) 0.8019(5)
O7_2 O 0.73068(8) 0.22917(8) 0.70762(19)
O8_2 O 0.71099(13) 0.18224(9) 0.8390(2)
N2_2 N 0.7371(5) 0.03158(15) 0.4769(4)
C16_2 C 0.72216(14) 0.18972(11) 0.7452(3)
C17_2 C 0.72381(18) 0.14825(12) 0.6750(3)
C18_2 C 0.7143(3) 0.10407(15) 0.7117(4)
H9_2 H 0.7038 0.1000 0.7809
C19_2 C 0.7200(5) 0.06496(16) 0.6467(4)
H10_2 H 0.7151 0.0345 0.6739
C20_2 C 0.7326(4) 0.07029(16) 0.5438(4)
C21_2 C 0.7400(3) 0.11523(15) 0.5066(3)
H11_2 H 0.7473 0.1196 0.4354
C22_2 C 0.7371(2) 0.15380(12) 0.5709(3)
H12_2 H 0.7440 0.1840 0.5447
H15_2 H 0.7907 0.0043 0.6272
C30_2 C 0.7314(8) 0.0377(2) 0.3666(5)
Li8_2 Li 0.7342(2) 0.21665(19) 0.9547(5)
Li12_2 Li 0.7833(2) 0.26113(19) 0.6509(5)
O13_2 O 0.66337(9) 0.29439(11) 0.8821(2)
O14_2 O 0.77303(8) 0.26480(8) 0.8975(2)
O20_2 O 0.71775(13) 0.34196(9) 0.7224(2)
H29_2 H 0.757308 0.0624033 0.338263
H30_2 H 0.736064 0.00429304 0.327784
H31_2 H 0.69653 0.0510174 0.350601
Li2_2 Li 0.7342(2) 0.78335(19) 0.4547(5)
Li3_2 Li 0.7167(2) 0.76113(19) 0.6509(5)
Li4_2 Li 0.6577(6) 0.6482(5) 0.3016(13)
O1_2 O 0.6060(4) 0.6341(4) 0.2138(8)
O2_2 O 0.6551(6) 0.5941(5) 0.3923(16)
O3_2 O 0.68595(8) 0.74521(9) 0.5209(2)
O4_2 O 0.66337(9) 0.70561(11) 0.3821(2)
O5_2 O 0.27303(8) 0.76480(8) 0.3975(2)
O6_2 O 0.32213(10) 0.77683(13) 0.2648(2)
N1_2 N 0.46867(14) 0.7284(5) 0.6232(4)
C1_2 C 0.65508(11) 0.72429(13) 0.4687(3)
C2_2 C 0.60656(13) 0.72273(19) 0.5108(3)
C3_2 C 0.59479(16) 0.7527(3) 0.5906(4)
H1_2 H 0.6185 0.7713 0.6214
C4_2 C 0.54865(19) 0.7564(4) 0.6274(5)
H2_2 H 0.5410 0.7778 0.6809
C5_2 C 0.51530(17) 0.7285(4) 0.5847(4)
C6_2 C 0.52723(15) 0.6960(3) 0.5070(4)
H3_2 H 0.5039 0.6759 0.4798
C7_2 C 0.57290(15) 0.6930(2) 0.4696(4)
H4_2 H 0.5808 0.6711 0.4172
C8_2 C 0.31383(12) 0.76750(13) 0.3579(3)
C9_2 C 0.35386(12) 0.75787(18) 0.4286(3)
C10_2 C 0.34834(12) 0.7472(2) 0.5332(3)
H5_2 H 0.3177 0.7469 0.5616
C11_2 C 0.38554(16) 0.7371(3) 0.5972(4)
H6_2 H 0.3802 0.7292 0.6676
C12_2 C 0.43152(15) 0.7385(4) 0.5582(4)
C13_2 C 0.43723(16) 0.7506(4) 0.4536(4)
H7_2 H 0.4678 0.7528 0.4256
C14_2 C 0.39967(14) 0.7593(3) 0.3916(3)
H8_2 H 0.4048 0.7666 0.3207
C15_2 C 0.4610(2) 0.7251(9) 0.7335(6)
O9_2 O 0.74545(10) 0.81478(8) 0.5835(2)
O10_2 O 0.78225(13) 0.84196(9) 0.7224(2)
C23_2 C 0.76239(17) 0.84756(12) 0.6362(3)
C24_2 C 0.7581(3) 0.89563(13) 0.5931(3)
C25_2 C 0.7263(3) 0.90471(16) 0.5131(4)
H13_2 H 0.7089 0.8798 0.4840
C26_2 C 0.7201(5) 0.94924(18) 0.4763(5)
H14_2 H 0.6985 0.9544 0.4217
C27_2 C 0.7445(5) 0.98668(15) 0.5168(4)
C28_2 C 0.7745(4) 0.97879(18) 0.5968(5)
C29_2 C 0.7818(3) 0.93339(16) 0.6351(4)
H16_2 H 0.8031 0.9285 0.6904
O11_2 O 0.8183(10) 0.8079(9) 0.2315(19)
O12_2 O 0.7802(9) 0.8291(13) 0.354(3)
N3_2 N 0.8177(6) 0.8352(5) 0.3064(15)
C31_2 C 0.8585(6) 0.8740(5) 0.3171(15)
C32_2 C 0.8649(6) 0.8999(5) 0.4070(15)
H17_2 H 0.8448 0.8953 0.4645
C33_2 C 0.9008(6) 0.9324(5) 0.4127(15)
H18_2 H 0.9052 0.9501 0.4741
C34_2 C 0.9303(6) 0.9391(5) 0.3285(15)
H19_2 H 0.9548 0.9613 0.3324
C35_2 C 0.9239(6) 0.9132(5) 0.2386(15)
H20_2 H 0.9440 0.9178 0.1810
C36_2 C 0.8880(6) 0.8807(5) 0.2329(15)
H21_2 H 0.8836 0.8630 0.1714
Li5_2 Li 0.72115(19) 0.7171(2) 0.3019(5)
Li6_2 Li 0.22115(19) 0.7829(2) 0.3019(5)
Li7_2 Li 0.77885(19) 0.7829(2) 0.8019(5)
Li9_2 Li 0.2342(2) 0.71665(19) 0.4547(5)
Li10_2 Li 0.2833(2) 0.76113(19) 0.1509(5)
Li11_2 Li 0.7833(2) 0.73887(19) 0.1509(5)
Li13_2 Li 0.8423(6) 0.8518(5) 0.8016(13)
O15_2 O 0.77303(8) 0.73520(8) 0.3975(2)
O16_2 O 0.67787(10) 0.77683(13) 0.7648(2)
O17_2 O 0.76932(8) 0.72917(8) 0.70762(19)
O18_2 O 0.71099(13) 0.81776(9) 0.3390(2)
O19_2 O 0.71775(13) 0.65804(9) 0.2224(2)
O21_2 O 0.6817(10) 0.6921(9) 0.7315(19)
H22_2 H 0.577111 0.631951 0.256037
H23_2 H 0.602395 0.659152 0.161295
H24_2 H 0.477523 0.754597 0.771998
H25_2 H 0.423654 0.725495 0.749285
H26_2 H 0.47604 0.69272 0.762373
H27_2 H 0.658952 0.565242 0.35062
H28_2 H 0.68055 0.596102 0.444319
O3_3 O 0.68595(8) 0.25479(9) 0.0209(2)
N1_3 N 0.46867(14) 0.2716(5) 0.1232(4)
C2_3 C 0.60656(13) 0.27727(19) 0.0108(3)
C3_3 C 0.59479(16) 0.2473(3) 0.0906(4)
H1_3 H 0.6185 0.2287 0.1214
C4_3 C 0.54865(19) 0.2436(4) 0.1274(5)
H2_3 H 0.5410 0.2222 0.1809
C5_3 C 0.51530(17) 0.2715(4) 0.0847(4)
C6_3 C 0.52723(15) 0.3040(3) 0.0070(4)
C10_3 C 0.34834(12) 0.2528(2) 0.0332(3)
H5_3 H 0.3177 0.2531 0.0616
C11_3 C 0.38554(16) 0.2629(3) 0.0972(4)
H6_3 H 0.3802 0.2708 0.1676
C12_3 C 0.43152(15) 0.2615(4) 0.0582(4)
C15_3 C 0.4610(2) 0.2749(9) 0.2335(6)
O9_3 O 0.74545(10) 0.18522(8) 0.0835(2)
O10_3 O 0.78225(13) 0.15804(9) 0.2224(2)
C23_3 C 0.76239(17) 0.15244(12) 0.1362(3)
C24_3 C 0.7581(3) 0.10437(13) 0.0931(3)
C25_3 C 0.7263(3) 0.09529(16) 0.0131(4)
C27_3 C 0.7445(5) 0.01332(15) 0.0168(4)
C28_3 C 0.7745(4) 0.02121(18) 0.0968(5)
C29_3 C 0.7818(3) 0.06661(16) 0.1351(4)
H16_3 H 0.8031 0.0715 0.1904
Li13_3 Li 0.8423(6) 0.1482(5) 0.3016(13)
O17_3 O 0.76932(8) 0.27083(8) 0.20762(19)
O21_3 O 0.6817(10) 0.3079(9) 0.2315(19)
H24_3 H 0.477523 0.245403 0.271998
H25_3 H 0.423654 0.274505 0.249285
H26_3 H 0.47604 0.30728 0.262373
Li4_3 Li 0.6577(6) 0.3518(5) 0.8016(13)
O1_3 O 0.6060(4) 0.3659(4) 0.7138(8)
O2_3 O 0.6551(6) 0.4059(5) 0.8923(16)
O5_3 O 0.27303(8) 0.23520(8) 0.8975(2)
C1_3 C 0.65508(11) 0.27571(13) 0.9687(3)
H3_3 H 0.5039 0.3241 0.9798
C7_3 C 0.57290(15) 0.3070(2) 0.9696(4)
H4_3 H 0.5808 0.3289 0.9172
C8_3 C 0.31383(12) 0.23250(13) 0.8579(3)
C9_3 C 0.35386(12) 0.24213(18) 0.9286(3)
C13_3 C 0.43723(16) 0.2494(4) 0.9536(4)
H7_3 H 0.4678 0.2472 0.9256
C14_3 C 0.39967(14) 0.2407(3) 0.8916(3)
H8_3 H 0.4048 0.2334 0.8207
H13_3 H 0.7089 0.1202 0.9840
C26_3 C 0.7201(5) 0.05076(18) 0.9763(5)
H14_3 H 0.6985 0.0456 0.9217
O11_3 O 0.8183(10) 0.1921(9) 0.7315(19)
O12_3 O 0.7802(9) 0.1709(13) 0.854(3)
N3_3 N 0.8177(6) 0.1648(5) 0.8064(15)
C31_3 C 0.8585(6) 0.1260(5) 0.8171(15)
C32_3 C 0.8649(6) 0.1001(5) 0.9070(15)
H17_3 H 0.8448 0.1047 0.9645
C33_3 C 0.9008(6) 0.0676(5) 0.9127(15)
H18_3 H 0.9052 0.0499 0.9741
C34_3 C 0.9303(6) 0.0609(5) 0.8285(15)
H19_3 H 0.9548 0.0387 0.8324
C35_3 C 0.9239(6) 0.0868(5) 0.7386(15)
H20_3 H 0.9440 0.0822 0.6810
C36_3 C 0.8880(6) 0.1193(5) 0.7329(15)
H21_3 H 0.8836 0.1370 0.6714
Li9_3 Li 0.2342(2) 0.28335(19) 0.9547(5)
H22_3 H 0.577111 0.368049 0.756037
H23_3 H 0.602395 0.340848 0.661295
H27_3 H 0.658952 0.434758 0.85062
H28_3 H 0.68055 0.403898 0.944319
O7_3 O 0.73068(8) 0.77083(8) 0.20762(19)
C16_3 C 0.72216(14) 0.81028(11) 0.2452(3)
C17_3 C 0.72381(18) 0.85175(12) 0.1750(3)
C18_3 C 0.7143(3) 0.89593(15) 0.2117(4)
H9_3 H 0.7038 0.9000 0.2809
C19_3 C 0.7200(5) 0.93504(16) 0.1467(4)
H10_3 H 0.7151 0.9655 0.1739
C20_3 C 0.7326(4) 0.92971(16) 0.0438(4)
C21_3 C 0.7400(3) 0.88477(15) 0.0066(3)
C22_3 C 0.7371(2) 0.84620(12) 0.0709(3)
H12_3 H 0.7440 0.8160 0.0447
H15_3 H 0.7907 0.9957 0.1272
O7_4 O 0.26932(8) 0.22917(8) 0.20762(19)
C16_4 C 0.27784(14) 0.18972(11) 0.2452(3)
C17_4 C 0.27619(18) 0.14825(12) 0.1750(3)
C18_4 C 0.2857(3) 0.10407(15) 0.2117(4)
H9_4 H 0.2962 0.1000 0.2809
C19_4 C 0.2800(5) 0.06496(16) 0.1467(4)
H10_4 H 0.2849 0.0345 0.1739
C20_4 C 0.2674(4) 0.07029(16) 0.0438(4)
C21_4 C 0.2600(3) 0.11523(15) 0.0066(3)
C22_4 C 0.2629(2) 0.15380(12) 0.0709(3)
H12_4 H 0.2560 0.1840 0.0447
H15_4 H 0.2093 0.0043 0.1272
O3_4 O 0.31405(8) 0.74521(9) 0.0209(2)
N1_4 N 0.53133(14) 0.7284(5) 0.1232(4)
C2_4 C 0.39344(13) 0.72273(19) 0.0108(3)
C3_4 C 0.40521(16) 0.7527(3) 0.0906(4)
H1_4 H 0.3815 0.7713 0.1214
C4_4 C 0.45135(19) 0.7564(4) 0.1274(5)
H2_4 H 0.4590 0.7778 0.1809
C5_4 C 0.48470(17) 0.7285(4) 0.0847(4)
C6_4 C 0.47277(15) 0.6960(3) 0.0070(4)
C10_4 C 0.65166(12) 0.7472(2) 0.0332(3)
H5_4 H 0.6823 0.7469 0.0616
C11_4 C 0.61446(16) 0.7371(3) 0.0972(4)
H6_4 H 0.6198 0.7292 0.1676
C12_4 C 0.56848(15) 0.7385(4) 0.0582(4)
C15_4 C 0.5390(2) 0.7251(9) 0.2335(6)
O9_4 O 0.25455(10) 0.81478(8) 0.0835(2)
O10_4 O 0.21775(13) 0.84196(9) 0.2224(2)
C23_4 C 0.23761(17) 0.84756(12) 0.1362(3)
C24_4 C 0.2419(3) 0.89563(13) 0.0931(3)
C25_4 C 0.2737(3) 0.90471(16) 0.0131(4)
C27_4 C 0.2555(5) 0.98668(15) 0.0168(4)
C28_4 C 0.2255(4) 0.97879(18) 0.0968(5)
C29_4 C 0.2182(3) 0.93339(16) 0.1351(4)
H16_4 H 0.1969 0.9285 0.1904
Li13_4 Li 0.1577(6) 0.8518(5) 0.3016(13)
O17_4 O 0.23068(8) 0.72917(8) 0.20762(19)
O21_4 O 0.3183(10) 0.6921(9) 0.2315(19)
H24_4 H 0.522477 0.754597 0.271998
H25_4 H 0.576346 0.725495 0.249285
H26_4 H 0.52396 0.69272 0.262373
Li4_4 Li 0.3423(6) 0.6482(5) 0.8016(13)
O1_4 O 0.3940(4) 0.6341(4) 0.7138(8)
O2_4 O 0.3449(6) 0.5941(5) 0.8923(16)
O5_4 O 0.72697(8) 0.76480(8) 0.8975(2)
C1_4 C 0.34492(11) 0.72429(13) 0.9687(3)
H3_4 H 0.4961 0.6759 0.9798
C7_4 C 0.42710(15) 0.6930(2) 0.9696(4)
H4_4 H 0.4192 0.6711 0.9172
C8_4 C 0.68617(12) 0.76750(13) 0.8579(3)
C9_4 C 0.64614(12) 0.75787(18) 0.9286(3)
C13_4 C 0.56277(16) 0.7506(4) 0.9536(4)
H7_4 H 0.5322 0.7528 0.9256
C14_4 C 0.60033(14) 0.7593(3) 0.8916(3)
H8_4 H 0.5952 0.7666 0.8207
H13_4 H 0.2911 0.8798 0.9840
C26_4 C 0.2799(5) 0.94924(18) 0.9763(5)
H14_4 H 0.3015 0.9544 0.9217
O11_4 O 0.1817(10) 0.8079(9) 0.7315(19)
O12_4 O 0.2198(9) 0.8291(13) 0.854(3)
N3_4 N 0.1823(6) 0.8352(5) 0.8064(15)
C31_4 C 0.1415(6) 0.8740(5) 0.8171(15)
C32_4 C 0.1351(6) 0.8999(5) 0.9070(15)
H17_4 H 0.1552 0.8953 0.9645
C33_4 C 0.0992(6) 0.9324(5) 0.9127(15)
H18_4 H 0.0948 0.9501 0.9741
C34_4 C 0.0697(6) 0.9391(5) 0.8285(15)
H19_4 H 0.0452 0.9613 0.8324
C35_4 C 0.0761(6) 0.9132(5) 0.7386(15)
H20_4 H 0.0560 0.9178 0.6810
C36_4 C 0.1120(6) 0.8807(5) 0.7329(15)
H21_4 H 0.1164 0.8630 0.6714
Li9_4 Li 0.7658(2) 0.71665(19) 0.9547(5)
H22_4 H 0.422889 0.631951 0.756037
H23_4 H 0.397605 0.659152 0.661295
H27_4 H 0.341048 0.565242 0.85062
H28_4 H 0.31945 0.596102 0.944319
O6_3 O 0.17787(10) 0.72317(13) 0.7648(2)
C8_5 C 0.18617(12) 0.73250(13) 0.8579(3)
C9_5 C 0.14614(12) 0.74213(18) 0.9286(3)
C13_5 C 0.06277(16) 0.7494(4) 0.9536(4)
H7_5 H 0.0322 0.7472 0.9256
C14_5 C 0.10033(14) 0.7407(3) 0.8916(3)
H8_5 H 0.0952 0.7334 0.8207
O3_5 O 0.81405(8) 0.75479(9) 0.0209(2)
C2_5 C 0.89344(13) 0.77727(19) 0.0108(3)
C3_5 C 0.90521(16) 0.7473(3) 0.0906(4)
H1_5 H 0.8815 0.7287 0.1214
C4_5 C 0.95135(19) 0.7436(4) 0.1274(5)
H2_5 H 0.9590 0.7222 0.1809
C5_5 C 0.98470(17) 0.7715(4) 0.0847(4)
C6_5 C 0.97277(15) 0.8040(3) 0.0070(4)
O8_3 O 0.78901(13) 0.31776(9) 0.3390(2)
O9_5 O 0.75455(10) 0.68522(8) 0.0835(2)
C16_5 C 0.77784(14) 0.31028(11) 0.2452(3)
C17_5 C 0.77619(18) 0.35175(12) 0.1750(3)
C18_5 C 0.7857(3) 0.39593(15) 0.2117(4)
H9_5 H 0.7962 0.4000 0.2809
C19_5 C 0.7800(5) 0.43504(16) 0.1467(4)
H10_5 H 0.7849 0.4655 0.1739
C20_5 C 0.7674(4) 0.42971(16) 0.0438(4)
C21_5 C 0.7600(3) 0.38477(15) 0.0066(3)
C22_5 C 0.7629(2) 0.34620(12) 0.0709(3)
H12_5 H 0.7560 0.3160 0.0447
C23_5 C 0.73761(17) 0.65244(12) 0.1362(3)
C24_5 C 0.7419(3) 0.60437(13) 0.0931(3)
C25_5 C 0.7737(3) 0.59529(16) 0.0131(4)
C27_5 C 0.7555(5) 0.51332(15) 0.0168(4)
C28_5 C 0.7255(4) 0.52121(18) 0.0968(5)
H15_5 H 0.7093 0.4957 0.1272
C29_5 C 0.7182(3) 0.56661(16) 0.1351(4)
H16_5 H 0.6969 0.5715 0.1904
O13_3 O 0.83663(9) 0.20561(11) 0.3821(2)
O16_3 O 0.82213(10) 0.72317(13) 0.2648(2)
O1_5 O 0.8940(4) 0.8659(4) 0.7138(8)
O2_5 O 0.8449(6) 0.9059(5) 0.8923(16)
O4_3 O 0.83663(9) 0.79439(11) 0.8821(2)
C1_5 C 0.84492(11) 0.77571(13) 0.9687(3)
H3_5 H 0.9961 0.8241 0.9798
C7_5 C 0.92710(15) 0.8070(2) 0.9696(4)
H4_5 H 0.9192 0.8289 0.9172
N2_3 N 0.7629(5) 0.46842(15) 0.9769(4)
H11_3 H 0.7527 0.3804 0.9354
H13_5 H 0.7911 0.6202 0.9840
C26_5 C 0.7799(5) 0.55076(18) 0.9763(5)
H14_5 H 0.8015 0.5456 0.9217
C30_3 C 0.7686(8) 0.4623(2) 0.8666(5)
O12_5 O 0.7198(9) 0.6709(13) 0.854(3)
N3_5 N 0.6823(6) 0.6648(5) 0.8064(15)
C31_5 C 0.6415(6) 0.6260(5) 0.8171(15)
C32_5 C 0.6351(6) 0.6001(5) 0.9070(15)
H17_5 H 0.6552 0.6047 0.9645
C33_5 C 0.5992(6) 0.5676(5) 0.9127(15)
H18_5 H 0.5948 0.5499 0.9741
C34_5 C 0.5697(6) 0.5609(5) 0.8285(15)
H19_5 H 0.5452 0.5387 0.8324
C35_5 C 0.5761(6) 0.5868(5) 0.7386(15)
H20_5 H 0.5560 0.5822 0.6810
C36_5 C 0.6120(6) 0.6193(5) 0.7329(15)
H21_5 H 0.6164 0.6370 0.6714
O18_3 O 0.78901(13) 0.68224(9) 0.8390(2)
H22_5 H 0.922889 0.868049 0.756037
H23_5 H 0.897605 0.840848 0.661295
H27_5 H 0.841048 0.934758 0.85062
H28_5 H 0.81945 0.903898 0.944319
H29_3 H 0.742692 0.437597 0.838263
H30_3 H 0.763936 0.495707 0.827784
H31_3 H 0.80347 0.448983 0.850601
O3_6 O 0.18595(8) 0.24521(9) 0.0209(2)
C2_6 C 0.10656(13) 0.22273(19) 0.0108(3)
C3_6 C 0.09479(16) 0.2527(3) 0.0906(4)
H1_6 H 0.1185 0.2713 0.1214
C4_6 C 0.04865(19) 0.2564(4) 0.1274(5)
H2_6 H 0.0410 0.2778 0.1809
C5_6 C 0.01530(17) 0.2285(4) 0.0847(4)
C6_6 C 0.02723(15) 0.1960(3) 0.0070(4)
O8_4 O 0.21099(13) 0.68224(9) 0.3390(2)
O9_6 O 0.24545(10) 0.31478(8) 0.0835(2)
C16_6 C 0.22216(14) 0.68972(11) 0.2452(3)
C17_6 C 0.22381(18) 0.64825(12) 0.1750(3)
C18_6 C 0.2143(3) 0.60407(15) 0.2117(4)
H9_6 H 0.2038 0.6000 0.2809
C19_6 C 0.2200(5) 0.56496(16) 0.1467(4)
H10_6 H 0.2151 0.5345 0.1739
C20_6 C 0.2326(4) 0.57029(16) 0.0438(4)
C21_6 C 0.2400(3) 0.61523(15) 0.0066(3)
C22_6 C 0.2371(2) 0.65380(12) 0.0709(3)
H12_6 H 0.2440 0.6840 0.0447
C23_6 C 0.26239(17) 0.34756(12) 0.1362(3)
C24_6 C 0.2581(3) 0.39563(13) 0.0931(3)
C25_6 C 0.2263(3) 0.40471(16) 0.0131(4)
C27_6 C 0.2445(5) 0.48668(15) 0.0168(4)
C28_6 C 0.2745(4) 0.47879(18) 0.0968(5)
H15_6 H 0.2907 0.5043 0.1272
C29_6 C 0.2818(3) 0.43339(16) 0.1351(4)
H16_6 H 0.3031 0.4285 0.1904
O13_4 O 0.16337(9) 0.79439(11) 0.3821(2)
O16_4 O 0.17787(10) 0.27683(13) 0.2648(2)
O1_6 O 0.1060(4) 0.1341(4) 0.7138(8)
O2_6 O 0.1551(6) 0.0941(5) 0.8923(16)
O4_4 O 0.16337(9) 0.20561(11) 0.8821(2)
C1_6 C 0.15508(11) 0.22429(13) 0.9687(3)
H3_6 H 0.0039 0.1759 0.9798
C7_6 C 0.07290(15) 0.1930(2) 0.9696(4)
H4_6 H 0.0808 0.1711 0.9172
N2_4 N 0.2371(5) 0.53158(15) 0.9769(4)
H11_4 H 0.2473 0.6196 0.9354
H13_6 H 0.2089 0.3798 0.9840
C26_6 C 0.2201(5) 0.44924(18) 0.9763(5)
H14_6 H 0.1985 0.4544 0.9217
C30_4 C 0.2314(8) 0.5377(2) 0.8666(5)
O12_6 O 0.2802(9) 0.3291(13) 0.854(3)
N3_6 N 0.3177(6) 0.3352(5) 0.8064(15)
C31_6 C 0.3585(6) 0.3740(5) 0.8171(15)
C32_6 C 0.3649(6) 0.3999(5) 0.9070(15)
H17_6 H 0.3448 0.3953 0.9645
C33_6 C 0.4008(6) 0.4324(5) 0.9127(15)
H18_6 H 0.4052 0.4501 0.9741
C34_6 C 0.4303(6) 0.4391(5) 0.8285(15)
H19_6 H 0.4548 0.4613 0.8324
C35_6 C 0.4239(6) 0.4132(5) 0.7386(15)
H20_6 H 0.4440 0.4178 0.6810
C36_6 C 0.3880(6) 0.3807(5) 0.7329(15)
H21_6 H 0.3836 0.3630 0.6714
O18_4 O 0.21099(13) 0.31776(9) 0.8390(2)
H22_6 H 0.0771112 0.131951 0.756037
H23_6 H 0.102395 0.159152 0.661295
H27_6 H 0.158952 0.0652417 0.85062
H28_6 H 0.18055 0.0961023 0.944319
H29_4 H 0.257308 0.562403 0.838263
H30_4 H 0.236064 0.504293 0.827784
H31_4 H 0.19653 0.551017 0.850601
O6_4 O 0.82213(10) 0.27683(13) 0.7648(2)
C8_6 C 0.81383(12) 0.26750(13) 0.8579(3)
C9_6 C 0.85386(12) 0.25787(18) 0.9286(3)
C13_6 C 0.93723(16) 0.2506(4) 0.9536(4)
H7_6 H 0.9678 0.2528 0.9256
C14_6 C 0.89967(14) 0.2593(3) 0.8916(3)
H8_6 H 0.9048 0.2666 0.8207
O1_7 O 0.1060(4) 0.8659(4) 0.2138(8)
O2_7 O 0.1551(6) 0.9059(5) 0.3923(16)
O3_7 O 0.18595(8) 0.75479(9) 0.5209(2)
C1_7 C 0.15508(11) 0.77571(13) 0.4687(3)
C2_7 C 0.10656(13) 0.77727(19) 0.5108(3)
C3_7 C 0.09479(16) 0.7473(3) 0.5906(4)
H1_7 H 0.1185 0.7287 0.6214
C4_7 C 0.04865(19) 0.7436(4) 0.6274(5)
H2_7 H 0.0410 0.7222 0.6809
C5_7 C 0.01530(17) 0.7715(4) 0.5847(4)
C6_7 C 0.02723(15) 0.8040(3) 0.5070(4)
H3_7 H 0.0039 0.8241 0.4798
C7_7 C 0.07290(15) 0.8070(2) 0.4696(4)
H4_7 H 0.0808 0.8289 0.4172
O9_7 O 0.24545(10) 0.68522(8) 0.5835(2)
N2_5 N 0.2371(5) 0.46842(15) 0.4769(4)
C16_7 C 0.22216(14) 0.31028(11) 0.7452(3)
C17_7 C 0.22381(18) 0.35175(12) 0.6750(3)
C18_7 C 0.2143(3) 0.39593(15) 0.7117(4)
H9_7 H 0.2038 0.4000 0.7809
C19_7 C 0.2200(5) 0.43504(16) 0.6467(4)
H10_7 H 0.2151 0.4655 0.6739
C20_7 C 0.2326(4) 0.42971(16) 0.5438(4)
C21_7 C 0.2400(3) 0.38477(15) 0.5066(3)
H11_5 H 0.2473 0.3804 0.4354
C22_7 C 0.2371(2) 0.34620(12) 0.5709(3)
H12_7 H 0.2440 0.3160 0.5447
C23_7 C 0.26239(17) 0.65244(12) 0.6362(3)
C24_7 C 0.2581(3) 0.60437(13) 0.5931(3)
C25_7 C 0.2263(3) 0.59529(16) 0.5131(4)
H13_7 H 0.2089 0.6202 0.4840
C26_7 C 0.2201(5) 0.55076(18) 0.4763(5)
H14_7 H 0.1985 0.5456 0.4217
C27_7 C 0.2445(5) 0.51332(15) 0.5168(4)
C28_7 C 0.2745(4) 0.52121(18) 0.5968(5)
H15_7 H 0.2907 0.4957 0.6272
C29_7 C 0.2818(3) 0.56661(16) 0.6351(4)
H16_7 H 0.3031 0.5715 0.6904
C30_5 C 0.2314(8) 0.4623(2) 0.3666(5)
O12_7 O 0.2802(9) 0.6709(13) 0.354(3)
N3_7 N 0.3177(6) 0.6648(5) 0.3064(15)
C31_7 C 0.3585(6) 0.6260(5) 0.3171(15)
C32_7 C 0.3649(6) 0.6001(5) 0.4070(15)
H17_7 H 0.3448 0.6047 0.4645
C33_7 C 0.4008(6) 0.5676(5) 0.4127(15)
H18_7 H 0.4052 0.5499 0.4741
C34_7 C 0.4303(6) 0.5609(5) 0.3285(15)
H19_7 H 0.4548 0.5387 0.3324
C35_7 C 0.4239(6) 0.5868(5) 0.2386(15)
H20_7 H 0.4440 0.5822 0.1810
C36_7 C 0.3880(6) 0.6193(5) 0.2329(15)
H21_7 H 0.3836 0.6370 0.1714
H22_7 H 0.0771112 0.868049 0.256037
H23_7 H 0.102395 0.840848 0.161295
H27_7 H 0.158952 0.934758 0.35062
H28_7 H 0.18055 0.903898 0.444319
H29_5 H 0.257308 0.437597 0.338263
H30_5 H 0.236064 0.495707 0.327784
H31_5 H 0.19653 0.448983 0.350601
N1_5 N 0.96867(14) 0.7716(5) 0.6232(4)
C8_7 C 0.81383(12) 0.73250(13) 0.3579(3)
C9_7 C 0.85386(12) 0.74213(18) 0.4286(3)
C10_5 C 0.84834(12) 0.7528(2) 0.5332(3)
H5_5 H 0.8177 0.7531 0.5616
C11_5 C 0.88554(16) 0.7629(3) 0.5972(4)
H6_5 H 0.8802 0.7708 0.6676
C12_5 C 0.93152(15) 0.7615(4) 0.5582(4)
C13_7 C 0.93723(16) 0.7494(4) 0.4536(4)
H7_7 H 0.9678 0.7472 0.4256
C14_7 C 0.89967(14) 0.7407(3) 0.3916(3)
H8_7 H 0.9048 0.7334 0.3207
C15_5 C 0.9610(2) 0.7749(9) 0.7335(6)
H24_5 H 0.977523 0.745403 0.771998
H25_5 H 0.923654 0.774505 0.749285
H26_5 H 0.97604 0.80728 0.762373
N1_6 N 0.03133(14) 0.2284(5) 0.6232(4)
C8_8 C 0.18617(12) 0.26750(13) 0.3579(3)
C9_8 C 0.14614(12) 0.25787(18) 0.4286(3)
C10_6 C 0.15166(12) 0.2472(2) 0.5332(3)
H5_6 H 0.1823 0.2469 0.5616
C11_6 C 0.11446(16) 0.2371(3) 0.5972(4)
H6_6 H 0.1198 0.2292 0.6676
C12_6 C 0.06848(15) 0.2385(4) 0.5582(4)
C13_8 C 0.06277(16) 0.2506(4) 0.4536(4)
H7_8 H 0.0322 0.2528 0.4256
C14_8 C 0.10033(14) 0.2593(3) 0.3916(3)
H8_8 H 0.0952 0.2666 0.3207
C15_6 C 0.0390(2) 0.2251(9) 0.7335(6)
H24_6 H 0.0224772 0.254597 0.771998
H25_6 H 0.0763455 0.225495 0.749285
H26_6 H 0.0239598 0.19272 0.762373
O1_8 O 0.8940(4) 0.1341(4) 0.2138(8)
O2_8 O 0.8449(6) 0.0941(5) 0.3923(16)
O3_8 O 0.81405(8) 0.24521(9) 0.5209(2)
C1_8 C 0.84492(11) 0.22429(13) 0.4687(3)
C2_8 C 0.89344(13) 0.22273(19) 0.5108(3)
C3_8 C 0.90521(16) 0.2527(3) 0.5906(4)
H1_8 H 0.8815 0.2713 0.6214
C4_8 C 0.95135(19) 0.2564(4) 0.6274(5)
H2_8 H 0.9590 0.2778 0.6809
C5_8 C 0.98470(17) 0.2285(4) 0.5847(4)
C6_8 C 0.97277(15) 0.1960(3) 0.5070(4)
H3_8 H 0.9961 0.1759 0.4798
C7_8 C 0.92710(15) 0.1930(2) 0.4696(4)
H4_8 H 0.9192 0.1711 0.4172
O9_8 O 0.75455(10) 0.31478(8) 0.5835(2)
N2_6 N 0.7629(5) 0.53158(15) 0.4769(4)
C16_8 C 0.77784(14) 0.68972(11) 0.7452(3)
C17_8 C 0.77619(18) 0.64825(12) 0.6750(3)
C18_8 C 0.7857(3) 0.60407(15) 0.7117(4)
H9_8 H 0.7962 0.6000 0.7809
C19_8 C 0.7800(5) 0.56496(16) 0.6467(4)
H10_8 H 0.7849 0.5345 0.6739
C20_8 C 0.7674(4) 0.57029(16) 0.5438(4)
C21_8 C 0.7600(3) 0.61523(15) 0.5066(3)
H11_6 H 0.7527 0.6196 0.4354
C22_8 C 0.7629(2) 0.65380(12) 0.5709(3)
H12_8 H 0.7560 0.6840 0.5447
C23_8 C 0.73761(17) 0.34756(12) 0.6362(3)
C24_8 C 0.7419(3) 0.39563(13) 0.5931(3)
C25_8 C 0.7737(3) 0.40471(16) 0.5131(4)
H13_8 H 0.7911 0.3798 0.4840
C26_8 C 0.7799(5) 0.44924(18) 0.4763(5)
H14_8 H 0.8015 0.4544 0.4217
C27_8 C 0.7555(5) 0.48668(15) 0.5168(4)
C28_8 C 0.7255(4) 0.47879(18) 0.5968(5)
H15_8 H 0.7093 0.5043 0.6272
C29_8 C 0.7182(3) 0.43339(16) 0.6351(4)
H16_8 H 0.6969 0.4285 0.6904
C30_6 C 0.7686(8) 0.5377(2) 0.3666(5)
O12_8 O 0.7198(9) 0.3291(13) 0.354(3)
N3_8 N 0.6823(6) 0.3352(5) 0.3064(15)
C31_8 C 0.6415(6) 0.3740(5) 0.3171(15)
C32_8 C 0.6351(6) 0.3999(5) 0.4070(15)
H17_8 H 0.6552 0.3953 0.4645
C33_8 C 0.5992(6) 0.4324(5) 0.4127(15)
H18_8 H 0.5948 0.4501 0.4741
C34_8 C 0.5697(6) 0.4391(5) 0.3285(15)
H19_8 H 0.5452 0.4613 0.3324
C35_8 C 0.5761(6) 0.4132(5) 0.2386(15)
H20_8 H 0.5560 0.4178 0.1810
C36_8 C 0.6120(6) 0.3807(5) 0.2329(15)
H21_8 H 0.6164 0.3630 0.1714
H22_8 H 0.922889 0.131951 0.256037
H23_8 H 0.897605 0.159152 0.161295
H27_8 H 0.841048 0.0652417 0.35062
H28_8 H 0.81945 0.0961023 0.444319
H29_6 H 0.742692 0.562403 0.338263
H30_6 H 0.763936 0.504293 0.327784
H31_6 H 0.80347 0.551017 0.350601
N2_7 N 0.7371(5) 0.96842(15) 0.9769(4)
H11_7 H 0.7473 0.8804 0.9354
C30_7 C 0.7314(8) 0.9623(2) 0.8666(5)
H29_7 H 0.757308 0.937597 0.838263
H30_7 H 0.736064 0.995707 0.827784
H31_7 H 0.69653 0.948983 0.850601
N2_8 N 0.2629(5) 0.03158(15) 0.9769(4)
H11_8 H 0.2527 0.1196 0.9354
C30_8 C 0.2686(8) 0.0377(2) 0.8666(5)
H29_8 H 0.242692 0.0624033 0.838263
H30_8 H 0.263936 0.00429304 0.827784
H31_8 H 0.30347 0.0510174 0.850601
N1_7 N 0.03133(14) 0.7716(5) 0.1232(4)
C10_7 C 0.15166(12) 0.7528(2) 0.0332(3)
H5_7 H 0.1823 0.7531 0.0616
C11_7 C 0.11446(16) 0.7629(3) 0.0972(4)
H6_7 H 0.1198 0.7708 0.1676
C12_7 C 0.06848(15) 0.7615(4) 0.0582(4)
C15_7 C 0.0390(2) 0.7749(9) 0.2335(6)
H24_7 H 0.0224772 0.745403 0.271998
H25_7 H 0.0763455 0.774505 0.249285
H26_7 H 0.0239598 0.80728 0.262373
N1_8 N 0.96867(14) 0.2284(5) 0.1232(4)
C10_8 C 0.84834(12) 0.2472(2) 0.0332(3)
H5_8 H 0.8177 0.2469 0.0616
C11_8 C 0.88554(16) 0.2371(3) 0.0972(4)
H6_8 H 0.8802 0.2292 0.1676
C12_8 C 0.93152(15) 0.2385(4) 0.0582(4)
C15_8 C 0.9610(2) 0.2251(9) 0.2335(6)
H24_8 H 0.977523 0.254597 0.271998
H25_8 H 0.923654 0.225495 0.249285
H26_8 H 0.97604 0.19272 0.262373
loop_
_geom_bond_atom_site_label_1
_geom_bond_atom_site_label_2
_geom_bond_site_symmetry_1
_geom_bond_site_symmetry_2
Li2 O3 1_555 1_555
Li3 O3 1_555 1_555
Li4 O1 1_555 1_555
O2 Li4 1_555 1_555
O3 C1 1_555 1_555
O4 Li4 1_555 1_555
O5 C8 1_555 1_555
O6 C8 1_555 1_555
N1 C5 1_555 1_555
C1 O4 1_555 1_555
C2 C1 1_555 1_555
C3 C2 1_555 1_555
H1 C3 1_555 1_555
C4 C3 1_555 1_555
H2 C4 1_555 1_555
C5 C4 1_555 1_555
C6 C5 1_555 1_555
H3 C6 1_555 1_555
C7 C2 1_555 1_555
H4 C7 1_555 1_555
C8 C9 1_555 1_555
C9 C10 1_555 1_555
C10 H5 1_555 1_555
C11 C10 1_555 1_555
H6 C11 1_555 1_555
C12 N1 1_555 1_555
C13 C12 1_555 1_555
H7 C13 1_555 1_555
C14 C9 1_555 1_555
H8 C14 1_555 1_555
C15 N1 1_555 1_555
O9 Li2 1_555 1_555
O10 C23 1_555 1_555
C23 O9 1_555 1_555
C24 C23 1_555 1_555
C25 C24 1_555 1_555
H13 C25 1_555 1_555
C26 C25 1_555 1_555
H14 C26 1_555 1_555
C28 C27 1_555 1_555
C29 C24 1_555 1_555
H16 C29 1_555 1_555
O11 N3 1_555 1_555
O12 Li2 1_555 1_555
N3 O12 1_555 1_555
C31 N3 1_555 1_555
C32 C31 1_555 1_555
H17 C32 1_555 1_555
C33 C32 1_555 1_555
H18 C33 1_555 1_555
C34 C33 1_555 1_555
H19 C34 1_555 1_555
C35 C34 1_555 1_555
H20 C35 1_555 1_555
C36 C31 1_555 1_555
H21 C36 1_555 1_555
Li5 O4 1_555 1_555
Li6 O5 1_555 1_555
Li7 O10 1_555 1_555
Li9 O5 1_555 1_555
Li10 O6 1_555 1_555
Li11 O11 1_555 1_555
Li13 O10 1_555 1_555
O15 Li2 1_555 1_555
O16 Li3 1_555 1_555
O17 Li3 1_555 1_555
O18 Li2 1_555 1_555
O19 Li4 1_555 1_555
O21 Li3 1_555 1_555
Li3 O9 1_555 1_555
C6 C7 1_555 1_555
C11 C12 1_555 1_555
C13 C14 1_555 1_555
C26 C27 1_555 1_555
C28 C29 1_555 1_555
C35 C36 1_555 1_555
Li5 O15 1_555 1_555
Li5 O19 1_555 1_555
Li7 O17 1_555 1_555
O1 H22 1_555 1_555
O1 H23 1_555 1_555
C15 H24 1_555 1_555
C15 H25 1_555 1_555
C15 H26 1_555 1_555
O2 H27 1_555 1_555
O2 H28 1_555 1_555
Li1 O7 1_555 1_555
O7 C16 1_555 1_555
O8 C16 1_555 1_555
N2 C20 1_555 1_555
C16 C17 1_555 1_555
C17 C18 1_555 1_555
C18 H9 1_555 1_555
C19 C18 1_555 1_555
H10 C19 1_555 1_555
C20 C19 1_555 1_555
C21 C20 1_555 1_555
H11 C21 1_555 1_555
C22 C17 1_555 1_555
H12 C22 1_555 1_555
C30 N2 1_555 1_555
Li8 O8 1_555 1_555
Li12 O7 1_555 1_555
O13 Li1 1_555 1_555
O14 Li1 1_555 1_555
O20 Li1 1_555 1_555
C21 C22 1_555 1_555
Li8 O14 1_555 1_555
C30 H29 1_555 1_555
C30 H30 1_555 1_555
C30 H31 1_555 1_555
Li1_2 O7_2 1_555 1_555
O7_2 C16_2 1_555 1_555
O8_2 C16_2 1_555 1_555
N2_2 C20_2 1_555 1_555
C16_2 C17_2 1_555 1_555
C17_2 C18_2 1_555 1_555
C18_2 H9_2 1_555 1_555
C19_2 C18_2 1_555 1_555
H10_2 C19_2 1_555 1_555
C20_2 C19_2 1_555 1_555
C21_2 C20_2 1_555 1_555
H11_2 C21_2 1_555 1_555
C22_2 C17_2 1_555 1_555
H12_2 C22_2 1_555 1_555
C30_2 N2_2 1_555 1_555
Li8_2 O8_2 1_555 1_555
Li12_2 O7_2 1_555 1_555
O13_2 Li1_2 1_555 1_555
O14_2 Li1_2 1_555 1_555
O20_2 Li1_2 1_555 1_555
C21_2 C22_2 1_555 1_555
Li8_2 O14_2 1_555 1_555
C30_2 H29_2 1_555 1_555
C30_2 H30_2 1_555 1_555
C30_2 H31_2 1_555 1_555
Li2_2 O3_2 1_555 1_555
Li3_2 O3_2 1_555 1_555
Li4_2 O1_2 1_555 1_555
O2_2 Li4_2 1_555 1_555
O3_2 C1_2 1_555 1_555
O4_2 Li4_2 1_555 1_555
O5_2 C8_2 1_555 1_555
O6_2 C8_2 1_555 1_555
N1_2 C5_2 1_555 1_555
C1_2 O4_2 1_555 1_555
C2_2 C1_2 1_555 1_555
C3_2 C2_2 1_555 1_555
H1_2 C3_2 1_555 1_555
C4_2 C3_2 1_555 1_555
H2_2 C4_2 1_555 1_555
C5_2 C4_2 1_555 1_555
C6_2 C5_2 1_555 1_555
H3_2 C6_2 1_555 1_555
C7_2 C2_2 1_555 1_555
H4_2 C7_2 1_555 1_555
C8_2 C9_2 1_555 1_555
C9_2 C10_2 1_555 1_555
C10_2 H5_2 1_555 1_555
C11_2 C10_2 1_555 1_555
H6_2 C11_2 1_555 1_555
C12_2 N1_2 1_555 1_555
C13_2 C12_2 1_555 1_555
H7_2 C13_2 1_555 1_555
C14_2 C9_2 1_555 1_555
H8_2 C14_2 1_555 1_555
C15_2 N1_2 1_555 1_555
O9_2 Li2_2 1_555 1_555
O10_2 C23_2 1_555 1_555
C23_2 O9_2 1_555 1_555
C24_2 C23_2 1_555 1_555
C25_2 C24_2 1_555 1_555
H13_2 C25_2 1_555 1_555
C26_2 C25_2 1_555 1_555
H14_2 C26_2 1_555 1_555
C28_2 C27_2 1_555 1_555
C29_2 C24_2 1_555 1_555
H16_2 C29_2 1_555 1_555
O11_2 N3_2 1_555 1_555
O12_2 Li2_2 1_555 1_555
N3_2 O12_2 1_555 1_555
C31_2 N3_2 1_555 1_555
C32_2 C31_2 1_555 1_555
H17_2 C32_2 1_555 1_555
C33_2 C32_2 1_555 1_555
H18_2 C33_2 1_555 1_555
C34_2 C33_2 1_555 1_555
H19_2 C34_2 1_555 1_555
C35_2 C34_2 1_555 1_555
H20_2 C35_2 1_555 1_555
C36_2 C31_2 1_555 1_555
H21_2 C36_2 1_555 1_555
Li5_2 O4_2 1_555 1_555
Li6_2 O5_2 1_555 1_555
Li7_2 O10_2 1_555 1_555
Li9_2 O5_2 1_555 1_555
Li10_2 O6_2 1_555 1_555
Li11_2 O11_2 1_555 1_555
Li13_2 O10_2 1_555 1_555
O15_2 Li2_2 1_555 1_555
O16_2 Li3_2 1_555 1_555
O17_2 Li3_2 1_555 1_555
O18_2 Li2_2 1_555 1_555
O19_2 Li4_2 1_555 1_555
O21_2 Li3_2 1_555 1_555
Li3_2 O9_2 1_555 1_555
C6_2 C7_2 1_555 1_555
C11_2 C12_2 1_555 1_555
C13_2 C14_2 1_555 1_555
C26_2 C27_2 1_555 1_555
C28_2 C29_2 1_555 1_555
C35_2 C36_2 1_555 1_555
Li5_2 O15_2 1_555 1_555
Li5_2 O19_2 1_555 1_555
Li7_2 O17_2 1_555 1_555
O1_2 H22_2 1_555 1_555
O1_2 H23_2 1_555 1_555
C15_2 H24_2 1_555 1_555
C15_2 H25_2 1_555 1_555
C15_2 H26_2 1_555 1_555
O2_2 H27_2 1_555 1_555
O2_2 H28_2 1_555 1_555
Li10 O3_3 1_555 1_555
N1_3 C5_3 1_555 1_555
C3_3 C2_3 1_555 1_555
H1_3 C3_3 1_555 1_555
C4_3 C3_3 1_555 1_555
H2_3 C4_3 1_555 1_555
C5_3 C4_3 1_555 1_555
C6_3 C5_3 1_555 1_555
C10_3 H5_3 1_555 1_555
C11_3 C10_3 1_555 1_555
H6_3 C11_3 1_555 1_555
C12_3 N1_3 1_555 1_555
C15_3 N1_3 1_555 1_555
O10_3 C23_3 1_555 1_555
C23_3 O9_3 1_555 1_555
C24_3 C23_3 1_555 1_555
C25_3 C24_3 1_555 1_555
C28_3 C27_3 1_555 1_555
C29_3 C24_3 1_555 1_555
H16_3 C29_3 1_555 1_555
Li6 O10_3 1_555 1_555
Li13_3 O10_3 1_555 1_555
O17_3 Li10 1_555 1_555
O21_3 Li10 1_555 1_555
Li10 O9_3 1_555 1_555
C11_3 C12_3 1_555 1_555
C28_3 C29_3 1_555 1_555
Li6 O17_3 1_555 1_555
C15_3 H24_3 1_555 1_555
C15_3 H25_3 1_555 1_555
C15_3 H26_3 1_555 1_555
Li4_3 O1_3 1_555 1_555
O2_3 Li4_3 1_555 1_555
O13_2 Li4_3 1_555 1_555
O5_3 C8_3 1_555 1_555
O16 C8_3 1_555 1_555
C1_3 O13_2 1_555 1_555
H4_3 C7_3 1_555 1_555
C8_3 C9_3 1_555 1_555
H7_3 C13_3 1_555 1_555
C14_3 C9_3 1_555 1_555
H8_3 C14_3 1_555 1_555
H14_3 C26_3 1_555 1_555
O11_3 N3_3 1_555 1_555
O12_3 Li8_2 1_555 1_555
N3_3 O12_3 1_555 1_555
C31_3 N3_3 1_555 1_555
C32_3 C31_3 1_555 1_555
H17_3 C32_3 1_555 1_555
C33_3 C32_3 1_555 1_555
H18_3 C33_3 1_555 1_555
C34_3 C33_3 1_555 1_555
H19_3 C34_3 1_555 1_555
C35_3 C34_3 1_555 1_555
H20_3 C35_3 1_555 1_555
C36_3 C31_3 1_555 1_555
H21_3 C36_3 1_555 1_555
Li7 O5_3 1_555 1_555
Li9_3 O5_3 1_555 1_555
Li12_2 O11_3 1_555 1_555
O20_2 Li4_3 1_555 1_555
C13_3 C14_3 1_555 1_555
C35_3 C36_3 1_555 1_555
O1_3 H22_3 1_555 1_555
O1_3 H23_3 1_555 1_555
O2_3 H27_3 1_555 1_555
O2_3 H28_3 1_555 1_555
Li5_2 O7_3 1_555 1_555
O7_3 C16_3 1_555 1_555
O18_2 C16_3 1_555 1_555
C16_3 C17_3 1_555 1_555
C17_3 C18_3 1_555 1_555
C18_3 H9_3 1_555 1_555
C19_3 C18_3 1_555 1_555
H10_3 C19_3 1_555 1_555
C20_3 C19_3 1_555 1_555
C21_3 C20_3 1_555 1_555
C22_3 C17_3 1_555 1_555
H12_3 C22_3 1_555 1_555
Li11_2 O7_3 1_555 1_555
C21_3 C22_3 1_555 1_555
Li5 O7_4 1_555 1_555
O7_4 C16_4 1_555 1_555
O18 C16_4 1_555 1_555
C16_4 C17_4 1_555 1_555
C17_4 C18_4 1_555 1_555
C18_4 H9_4 1_555 1_555
C19_4 C18_4 1_555 1_555
H10_4 C19_4 1_555 1_555
C20_4 C19_4 1_555 1_555
C21_4 C20_4 1_555 1_555
C22_4 C17_4 1_555 1_555
H12_4 C22_4 1_555 1_555
Li11 O7_4 1_555 1_555
C21_4 C22_4 1_555 1_555
Li10_2 O3_4 1_555 1_555
N1_4 C5_4 1_555 1_555
C3_4 C2_4 1_555 1_555
H1_4 C3_4 1_555 1_555
C4_4 C3_4 1_555 1_555
H2_4 C4_4 1_555 1_555
C5_4 C4_4 1_555 1_555
C6_4 C5_4 1_555 1_555
C10_4 H5_4 1_555 1_555
C11_4 C10_4 1_555 1_555
H6_4 C11_4 1_555 1_555
C12_4 N1_4 1_555 1_555
C15_4 N1_4 1_555 1_555
O10_4 C23_4 1_555 1_555
C23_4 O9_4 1_555 1_555
C24_4 C23_4 1_555 1_555
C25_4 C24_4 1_555 1_555
C28_4 C27_4 1_555 1_555
C29_4 C24_4 1_555 1_555
H16_4 C29_4 1_555 1_555
Li6_2 O10_4 1_555 1_555
Li13_4 O10_4 1_555 1_555
O17_4 Li10_2 1_555 1_555
O21_4 Li10_2 1_555 1_555
Li10_2 O9_4 1_555 1_555
C11_4 C12_4 1_555 1_555
C28_4 C29_4 1_555 1_555
Li6_2 O17_4 1_555 1_555
C15_4 H24_4 1_555 1_555
C15_4 H25_4 1_555 1_555
C15_4 H26_4 1_555 1_555
Li4_4 O1_4 1_555 1_555
O2_4 Li4_4 1_555 1_555
O13 Li4_4 1_555 1_555
O5_4 C8_4 1_555 1_555
O16_2 C8_4 1_555 1_555
C1_4 O13 1_555 1_555
H4_4 C7_4 1_555 1_555
C8_4 C9_4 1_555 1_555
H7_4 C13_4 1_555 1_555
C14_4 C9_4 1_555 1_555
H8_4 C14_4 1_555 1_555
H14_4 C26_4 1_555 1_555
O11_4 N3_4 1_555 1_555
O12_4 Li8 1_555 1_555
N3_4 O12_4 1_555 1_555
C31_4 N3_4 1_555 1_555
C32_4 C31_4 1_555 1_555
H17_4 C32_4 1_555 1_555
C33_4 C32_4 1_555 1_555
H18_4 C33_4 1_555 1_555
C34_4 C33_4 1_555 1_555
H19_4 C34_4 1_555 1_555
C35_4 C34_4 1_555 1_555
H20_4 C35_4 1_555 1_555
C36_4 C31_4 1_555 1_555
H21_4 C36_4 1_555 1_555
Li7_2 O5_4 1_555 1_555
Li9_4 O5_4 1_555 1_555
Li12 O11_4 1_555 1_555
O20 Li4_4 1_555 1_555
C13_4 C14_4 1_555 1_555
C35_4 C36_4 1_555 1_555
O1_4 H22_4 1_555 1_555
O1_4 H23_4 1_555 1_555
O2_4 H27_4 1_555 1_555
O2_4 H28_4 1_555 1_555
O14 C8_5 1_555 1_555
O6_3 C8_5 1_555 1_555
C8_5 C9_5 1_555 1_555
H7_5 C13_5 1_555 1_555
C14_5 C9_5 1_555 1_555
H8_5 C14_5 1_555 1_555
Li12 O6_3 1_555 1_555
C13_5 C14_5 1_555 1_555
Li11_2 O3_5 1_555 1_555
C3_5 C2_5 1_555 1_555
H1_5 C3_5 1_555 1_555
C4_5 C3_5 1_555 1_555
H2_5 C4_5 1_555 1_555
C5_5 C4_5 1_555 1_555
C6_5 C5_5 1_555 1_555
O17_3 C16_5 1_555 1_555
O8_3 C16_5 1_555 1_555
O19_2 C23_5 1_555 1_555
C16_5 C17_5 1_555 1_555
C17_5 C18_5 1_555 1_555
C18_5 H9_5 1_555 1_555
C19_5 C18_5 1_555 1_555
H10_5 C19_5 1_555 1_555
C20_5 C19_5 1_555 1_555
C21_5 C20_5 1_555 1_555
C22_5 C17_5 1_555 1_555
H12_5 C22_5 1_555 1_555
C23_5 O9_5 1_555 1_555
C24_5 C23_5 1_555 1_555
C25_5 C24_5 1_555 1_555
C28_5 C27_5 1_555 1_555
H15_5 C28_5 1_555 1_555
C29_5 C24_5 1_555 1_555
H16_5 C29_5 1_555 1_555
Li9 O8_3 1_555 1_555
O13_3 Li6 1_555 1_555
O16_3 Li11_2 1_555 1_555
Li11_2 O9_5 1_555 1_555
C21_5 C22_5 1_555 1_555
C28_5 C29_5 1_555 1_555
Li13_2 O1_5 1_555 1_555
O2_5 Li13_2 1_555 1_555
O4_3 Li13_2 1_555 1_555
C1_5 O4_3 1_555 1_555
H4_5 C7_5 1_555 1_555
H14_5 C26_5 1_555 1_555
C30_3 N2_3 1_555 1_555
O21_2 N3_5 1_555 1_555
O12_5 Li9_4 1_555 1_555
N3_5 O12_5 1_555 1_555
C31_5 N3_5 1_555 1_555
C32_5 C31_5 1_555 1_555
H17_5 C32_5 1_555 1_555
C33_5 C32_5 1_555 1_555
H18_5 C33_5 1_555 1_555
C34_5 C33_5 1_555 1_555
H19_5 C34_5 1_555 1_555
C35_5 C34_5 1_555 1_555
H20_5 C35_5 1_555 1_555
C36_5 C31_5 1_555 1_555
H21_5 C36_5 1_555 1_555
Li7_2 O4_3 1_555 1_555
O18_3 Li9_4 1_555 1_555
C35_5 C36_5 1_555 1_555
O1_5 H22_5 1_555 1_555
O1_5 H23_5 1_555 1_555
O2_5 H27_5 1_555 1_555
O2_5 H28_5 1_555 1_555
C30_3 H29_3 1_555 1_555
C30_3 H30_3 1_555 1_555
C30_3 H31_3 1_555 1_555
Li11 O3_6 1_555 1_555
C3_6 C2_6 1_555 1_555
H1_6 C3_6 1_555 1_555
C4_6 C3_6 1_555 1_555
H2_6 C4_6 1_555 1_555
C5_6 C4_6 1_555 1_555
C6_6 C5_6 1_555 1_555
O17_4 C16_6 1_555 1_555
O8_4 C16_6 1_555 1_555
O19 C23_6 1_555 1_555
C16_6 C17_6 1_555 1_555
C17_6 C18_6 1_555 1_555
C18_6 H9_6 1_555 1_555
C19_6 C18_6 1_555 1_555
H10_6 C19_6 1_555 1_555
C20_6 C19_6 1_555 1_555
C21_6 C20_6 1_555 1_555
C22_6 C17_6 1_555 1_555
H12_6 C22_6 1_555 1_555
C23_6 O9_6 1_555 1_555
C24_6 C23_6 1_555 1_555
C25_6 C24_6 1_555 1_555
C28_6 C27_6 1_555 1_555
H15_6 C28_6 1_555 1_555
C29_6 C24_6 1_555 1_555
H16_6 C29_6 1_555 1_555
Li9_2 O8_4 1_555 1_555
O13_4 Li6_2 1_555 1_555
O16_4 Li11 1_555 1_555
Li11 O9_6 1_555 1_555
C21_6 C22_6 1_555 1_555
C28_6 C29_6 1_555 1_555
Li13 O1_6 1_555 1_555
O2_6 Li13 1_555 1_555
O4_4 Li13 1_555 1_555
C1_6 O4_4 1_555 1_555
H4_6 C7_6 1_555 1_555
H14_6 C26_6 1_555 1_555
C30_4 N2_4 1_555 1_555
O21 N3_6 1_555 1_555
O12_6 Li9_3 1_555 1_555
N3_6 O12_6 1_555 1_555
C31_6 N3_6 1_555 1_555
C32_6 C31_6 1_555 1_555
H17_6 C32_6 1_555 1_555
C33_6 C32_6 1_555 1_555
H18_6 C33_6 1_555 1_555
C34_6 C33_6 1_555 1_555
H19_6 C34_6 1_555 1_555
C35_6 C34_6 1_555 1_555
H20_6 C35_6 1_555 1_555
C36_6 C31_6 1_555 1_555
H21_6 C36_6 1_555 1_555
Li7 O4_4 1_555 1_555
O18_4 Li9_3 1_555 1_555
C35_6 C36_6 1_555 1_555
O1_6 H22_6 1_555 1_555
O1_6 H23_6 1_555 1_555
O2_6 H27_6 1_555 1_555
O2_6 H28_6 1_555 1_555
C30_4 H29_4 1_555 1_555
C30_4 H30_4 1_555 1_555
C30_4 H31_4 1_555 1_555
O14_2 C8_6 1_555 1_555
O6_4 C8_6 1_555 1_555
C8_6 C9_6 1_555 1_555
H7_6 C13_6 1_555 1_555
C14_6 C9_6 1_555 1_555
H8_6 C14_6 1_555 1_555
Li12_2 O6_4 1_555 1_555
C13_6 C14_6 1_555 1_555
Li9_2 O3_7 1_555 1_555
Li12 O3_7 1_555 1_555
Li13_4 O1_7 1_555 1_555
O2_7 Li13_4 1_555 1_555
O3_7 C1_7 1_555 1_555
O13_4 Li13_4 1_555 1_555
C1_7 O13_4 1_555 1_555
C2_7 C1_7 1_555 1_555
C3_7 C2_7 1_555 1_555
H1_7 C3_7 1_555 1_555
C4_7 C3_7 1_555 1_555
H2_7 C4_7 1_555 1_555
C5_7 C4_7 1_555 1_555
C6_7 C5_7 1_555 1_555
H3_7 C6_7 1_555 1_555
C7_7 C2_7 1_555 1_555
H4_7 C7_7 1_555 1_555
O17 C16_7 1_555 1_555
O18_4 C16_7 1_555 1_555
O9_7 Li9_2 1_555 1_555
O20 C23_7 1_555 1_555
N2_5 C20_7 1_555 1_555
C16_7 C17_7 1_555 1_555
C17_7 C18_7 1_555 1_555
C18_7 H9_7 1_555 1_555
C19_7 C18_7 1_555 1_555
H10_7 C19_7 1_555 1_555
C20_7 C19_7 1_555 1_555
C21_7 C20_7 1_555 1_555
H11_5 C21_7 1_555 1_555
C22_7 C17_7 1_555 1_555
H12_7 C22_7 1_555 1_555
C23_7 O9_7 1_555 1_555
C24_7 C23_7 1_555 1_555
C25_7 C24_7 1_555 1_555
H13_7 C25_7 1_555 1_555
C26_7 C25_7 1_555 1_555
H14_7 C26_7 1_555 1_555
C27_7 N2_5 1_555 1_555
C28_7 C27_7 1_555 1_555
H15_7 C28_7 1_555 1_555
C29_7 C24_7 1_555 1_555
H16_7 C29_7 1_555 1_555
C30_5 N2_5 1_555 1_555
O21_4 N3_7 1_555 1_555
O12_7 Li9_2 1_555 1_555
N3_7 O12_7 1_555 1_555
C31_7 N3_7 1_555 1_555
C32_7 C31_7 1_555 1_555
H17_7 C32_7 1_555 1_555
C33_7 C32_7 1_555 1_555
H18_7 C33_7 1_555 1_555
C34_7 C33_7 1_555 1_555
H19_7 C34_7 1_555 1_555
C35_7 C34_7 1_555 1_555
H20_7 C35_7 1_555 1_555
C36_7 C31_7 1_555 1_555
H21_7 C36_7 1_555 1_555
Li12 O9_7 1_555 1_555
C6_7 C7_7 1_555 1_555
C21_7 C22_7 1_555 1_555
C26_7 C27_7 1_555 1_555
C28_7 C29_7 1_555 1_555
C35_7 C36_7 1_555 1_555
O1_7 H22_7 1_555 1_555
O1_7 H23_7 1_555 1_555
O2_7 H27_7 1_555 1_555
O2_7 H28_7 1_555 1_555
C30_5 H29_5 1_555 1_555
C30_5 H30_5 1_555 1_555
C30_5 H31_5 1_555 1_555
O15_2 C8_7 1_555 1_555
O16_3 C8_7 1_555 1_555
C8_7 C9_7 1_555 1_555
C9_7 C10_5 1_555 1_555
C10_5 H5_5 1_555 1_555
C11_5 C10_5 1_555 1_555
H6_5 C11_5 1_555 1_555
C12_5 N1_5 1_555 1_555
C13_7 C12_5 1_555 1_555
H7_7 C13_7 1_555 1_555
C14_7 C9_7 1_555 1_555
H8_7 C14_7 1_555 1_555
C15_5 N1_5 1_555 1_555
C11_5 C12_5 1_555 1_555
C13_7 C14_7 1_555 1_555
C15_5 H24_5 1_555 1_555
C15_5 H25_5 1_555 1_555
C15_5 H26_5 1_555 1_555
O15 C8_8 1_555 1_555
O16_4 C8_8 1_555 1_555
C8_8 C9_8 1_555 1_555
C9_8 C10_6 1_555 1_555
C10_6 H5_6 1_555 1_555
C11_6 C10_6 1_555 1_555
H6_6 C11_6 1_555 1_555
C12_6 N1_6 1_555 1_555
C13_8 C12_6 1_555 1_555
H7_8 C13_8 1_555 1_555
C14_8 C9_8 1_555 1_555
H8_8 C14_8 1_555 1_555
C15_6 N1_6 1_555 1_555
C11_6 C12_6 1_555 1_555
C13_8 C14_8 1_555 1_555
C15_6 H24_6 1_555 1_555
C15_6 H25_6 1_555 1_555
C15_6 H26_6 1_555 1_555
Li9 O3_8 1_555 1_555
Li12_2 O3_8 1_555 1_555
Li13_3 O1_8 1_555 1_555
O2_8 Li13_3 1_555 1_555
O3_8 C1_8 1_555 1_555
O13_3 Li13_3 1_555 1_555
C1_8 O13_3 1_555 1_555
C2_8 C1_8 1_555 1_555
C3_8 C2_8 1_555 1_555
H1_8 C3_8 1_555 1_555
C4_8 C3_8 1_555 1_555
H2_8 C4_8 1_555 1_555
C5_8 C4_8 1_555 1_555
C6_8 C5_8 1_555 1_555
H3_8 C6_8 1_555 1_555
C7_8 C2_8 1_555 1_555
H4_8 C7_8 1_555 1_555
O17_2 C16_8 1_555 1_555
O18_3 C16_8 1_555 1_555
O9_8 Li9 1_555 1_555
O20_2 C23_8 1_555 1_555
N2_6 C20_8 1_555 1_555
C16_8 C17_8 1_555 1_555
C17_8 C18_8 1_555 1_555
C18_8 H9_8 1_555 1_555
C19_8 C18_8 1_555 1_555
H10_8 C19_8 1_555 1_555
C20_8 C19_8 1_555 1_555
C21_8 C20_8 1_555 1_555
H11_6 C21_8 1_555 1_555
C22_8 C17_8 1_555 1_555
H12_8 C22_8 1_555 1_555
C23_8 O9_8 1_555 1_555
C24_8 C23_8 1_555 1_555
C25_8 C24_8 1_555 1_555
H13_8 C25_8 1_555 1_555
C26_8 C25_8 1_555 1_555
H14_8 C26_8 1_555 1_555
C27_8 N2_6 1_555 1_555
C28_8 C27_8 1_555 1_555
H15_8 C28_8 1_555 1_555
C29_8 C24_8 1_555 1_555
H16_8 C29_8 1_555 1_555
C30_6 N2_6 1_555 1_555
O21_3 N3_8 1_555 1_555
O12_8 Li9 1_555 1_555
N3_8 O12_8 1_555 1_555
C31_8 N3_8 1_555 1_555
C32_8 C31_8 1_555 1_555
H17_8 C32_8 1_555 1_555
C33_8 C32_8 1_555 1_555
H18_8 C33_8 1_555 1_555
C34_8 C33_8 1_555 1_555
H19_8 C34_8 1_555 1_555
C35_8 C34_8 1_555 1_555
H20_8 C35_8 1_555 1_555
C36_8 C31_8 1_555 1_555
H21_8 C36_8 1_555 1_555
Li12_2 O9_8 1_555 1_555
C6_8 C7_8 1_555 1_555
C21_8 C22_8 1_555 1_555
C26_8 C27_8 1_555 1_555
C28_8 C29_8 1_555 1_555
C35_8 C36_8 1_555 1_555
O1_8 H22_8 1_555 1_555
O1_8 H23_8 1_555 1_555
O2_8 H27_8 1_555 1_555
O2_8 H28_8 1_555 1_555
C30_6 H29_6 1_555 1_555
C30_6 H30_6 1_555 1_555
C30_6 H31_6 1_555 1_555
C30_7 N2_7 1_555 1_555
C30_7 H29_7 1_555 1_555
C30_7 H30_7 1_555 1_555
C30_7 H31_7 1_555 1_555
C30_8 N2_8 1_555 1_555
C30_8 H29_8 1_555 1_555
C30_8 H30_8 1_555 1_555
C30_8 H31_8 1_555 1_555
C10_7 H5_7 1_555 1_555
C11_7 C10_7 1_555 1_555
H6_7 C11_7 1_555 1_555
C12_7 N1_7 1_555 1_555
C15_7 N1_7 1_555 1_555
C11_7 C12_7 1_555 1_555
C15_7 H24_7 1_555 1_555
C15_7 H25_7 1_555 1_555
C15_7 H26_7 1_555 1_555
C10_8 H5_8 1_555 1_555
C11_8 C10_8 1_555 1_555
H6_8 C11_8 1_555 1_555
C12_8 N1_8 1_555 1_555
C15_8 N1_8 1_555 1_555
C11_8 C12_8 1_555 1_555
C15_8 H24_8 1_555 1_555
C15_8 H25_8 1_555 1_555
C15_8 H26_8 1_555 1_555

#END
