
###############################################################################
#
# This file contains modified crystal structure data generated from the
# MOF subset of the Cambridge Structural Database (CSD) v543 
# hosted by the Cambridge Crystallographic Data Centre (CCDC).
#
# This work is licensed under the Creative Commons
# Attribution-NonCommercial-ShareAlike 4.0 International License.
# To view a copy of this license, visit
# http://creativecommons.org/licenses/by-nc-sa/4.0/
# or send a letter to
# Creative Commons, PO Box 1866, Mountain View, CA 94042, USA.
#
# CIF created using the CSD Python API on 29 September 2022
# The structure has been converted into the P1 space group
# The structure has a 3D framework
# The original CSD entry NEXXIZ is in the orthorhombic crystal system
# The framework has been calculated to contain at least 10.0% void space
# The void calculation uses a probe of radius 1.32A, grid spacing 0.4
# H atom positions have been added when not included in the experimental data
#
###############################################################################

data_NEXXIZ
_chemical_formula_moiety         '(C288 H288 Li24 N32 O78)n'
_symmetry_cell_setting           triclinic
_symmetry_space_group_name_H-M   'P 1'
_symmetry_Int_Tables_number      1
_space_group_name_Hall           'P 1'
loop_
_symmetry_equiv_pos_site_id
_symmetry_equiv_pos_as_xyz
1 x,y,z
_cell_length_a                   28.467(6)
_cell_length_b                   28.594(6)
_cell_length_c                   12.960(3)
_cell_angle_alpha                90
_cell_angle_beta                 90
_cell_angle_gamma                90
_cell_volume                     10549.3
loop_
_atom_site_label
_atom_site_type_symbol
_atom_site_fract_x
_atom_site_fract_y
_atom_site_fract_z
Li1 Li 0.26735(14) 0.21850(12) 0.2654(3)
O3 O 0.22692(5) 0.26569(5) 0.32404(11)
O4 O 0.17698(6) 0.27767(6) 0.45366(11)
N3 N 0.03227(8) 0.21726(17) 0.09848(18)
C7 C 0.18572(7) 0.26755(7) 0.36117(15)
C8 C 0.14539(7) 0.25651(9) 0.29098(16)
C9 C 0.15321(7) 0.24428(10) 0.18898(17)
H9 H 0.1844 0.2436 0.1629
C10 C 0.11577(9) 0.23297(14) 0.12411(17)
H10 H 0.1214 0.2265 0.0533
C11 C 0.06984(8) 0.23118(15) 0.16321(18)
C12 C 0.06214(8) 0.24489(15) 0.26472(19)
H11 H 0.0310 0.2466 0.2909
C13 C 0.09952(8) 0.25603(12) 0.32741(17)
H12 H 0.0938 0.2636 0.3976
Li8 Li 0.21581(13) 0.26177(12) 0.5686(3)
Li12 Li 0.27847(13) 0.28484(12) 0.4172(3)
O13 O 0.31457(5) 0.25644(6) 0.19728(11)
O16 O 0.29106(7) 0.18380(6) 0.38135(12)
O18 O 0.25554(6) 0.18460(5) 0.13843(11)
Li2 Li 0.78419(13) 0.26177(12) 0.0686(3)
Li3 Li 0.77847(13) 0.21516(12) 0.4172(3)
O5 O 0.81457(5) 0.24356(6) 0.19728(11)
O6 O 0.83538(5) 0.20153(6) 0.33477(12)
C14 C 0.84394(7) 0.22074(8) 0.24962(16)
C15 C 0.89293(8) 0.21765(10) 0.20634(17)
C16 C 0.92613(8) 0.18724(12) 0.2505(2)
H13 H 0.9173 0.1671 0.3055
C17 C 0.97199(9) 0.18682(14) 0.2131(2)
H14 H 0.9942 0.1654 0.2407
C18 C 0.98538(9) 0.21775(17) 0.1352(2)
C19 C 0.95238(10) 0.24829(17) 0.0899(2)
H15 H 0.9612 0.2688 0.0357
C20 C 0.90671(9) 0.24749(13) 0.1267(2)
H16 H 0.8841 0.2679 0.0969
O7 O 0.73012(5) 0.23077(4) 0.01123(11)
N4 N 0.7333(3) 0.03278(9) 0.2409(2)
C23 C 0.72294(11) 0.14993(7) 0.04516(16)
C24 C 0.73721(11) 0.15504(7) 0.14644(16)
H20 H 0.7439 0.1854 0.1725
C25 C 0.74187(16) 0.11629(8) 0.21090(18)
H21 H 0.7527 0.1203 0.2797
C26 C 0.7308(2) 0.07195(10) 0.1750(2)
C27 C 0.7160(2) 0.06692(10) 0.0732(2)
H22 H 0.7084 0.0367 0.0476
C28 C 0.71215(19) 0.10565(9) 0.0084(2)
H25 H 0.7863 0.0049 0.0901
C36 C 0.7168(5) 0.03840(13) 0.3491(3)
Li7 Li 0.76735(14) 0.28150(12) 0.2654(3)
Li13 Li 0.8369(3) 0.1418(2) 0.4113(6)
O11 O 0.72692(5) 0.23431(5) 0.32404(11)
O15 O 0.76988(5) 0.26923(4) 0.51123(11)
O17 O 0.78078(7) 0.15757(5) 0.49940(13)
O19 O 0.75554(6) 0.31540(5) 0.13843(11)
H28 H 0.679926 0.0485387 0.349119
H29 H 0.720884 0.00542045 0.390156
H30 H 0.737511 0.0653551 0.387235
C2 C 0.8878(6) 0.0077(5) 0.6928(10)
C3 C 0.8506(9) 0.0102(5) 0.8853(10)
O8 O 0.70894(7) 0.18380(6) 0.88135(12)
C22 C 0.72053(8) 0.19102(7) 0.97371(15)
H23 H 0.7021 0.1017 0.9390
Li6 Li 0.73265(14) 0.21850(12) 0.7654(3)
Li11 Li 0.72153(13) 0.28484(12) 0.9172(3)
O12 O 0.82302(6) 0.27767(6) 0.95366(11)
H32 H 0.860644 0.0468918 0.880789
H33 H 0.813082 0.00759072 0.900673
H34 H 0.868122 0.00555124 0.620898
H35 H 0.891902 0.0442285 0.714803
N2 N 0.9575(2) 0.9159(3) 0.0298(8)
C4 C 0.9226(2) 0.8861(2) 0.0498(8)
H2 H 0.9203 0.8746 0.1184
C5 C 0.9902(4) 0.9292(3) 0.1026(9)
H3 H 0.9966 0.9030 0.1491
H4 H 0.9780 0.9557 0.1425
O10 O 0.74446(6) 0.81540(5) 0.13843(11)
C29 C 0.76153(8) 0.84794(7) 0.08573(16)
C30 C 0.75747(12) 0.89663(7) 0.12955(18)
C31 C 0.77824(19) 0.93439(10) 0.0824(3)
H24 H 0.7977 0.9300 0.0236
C32 C 0.7706(3) 0.97928(11) 0.1216(3)
C33 C 0.7413(3) 0.98801(9) 0.2037(2)
C34 C 0.7211(2) 0.94984(10) 0.2516(2)
H26 H 0.7014 0.9543 0.3098
C35 C 0.72975(15) 0.90484(9) 0.2149(2)
H27 H 0.7161 0.8790 0.2498
Li5 Li 0.73265(14) 0.78150(12) 0.2654(3)
Li9 Li 0.71581(13) 0.76177(12) 0.0686(3)
Li4 Li 0.8369(3) 0.8582(2) 0.9113(6)
O1 O 0.8345(2) 0.91475(14) 0.8383(3)
N1 N 0.8631(4) 0.9834(4) 0.7717(11)
C1 C 0.8521(3) 0.9395(3) 0.7711(6)
H1 H 0.8586 0.9238 0.7081
O2 O 0.89370(17) 0.8724(2) 0.9893(4)
C6 C 0.9582(6) 0.9446(8) 0.9194(9)
H6 H 0.9902 0.9448 0.8915
H7 H 0.9477 0.9768 0.9307
H8 H 0.9371 0.9292 0.8702
O9 O 0.78078(7) 0.84243(5) 0.99940(13)
Li10 Li 0.77847(13) 0.78484(12) 0.9172(3)
O14 O 0.83538(5) 0.79847(6) 0.83477(12)
H31 H 0.870054 0.993311 0.947317
H36 H 0.922289 0.991926 0.682286
N2_2 N 0.0425(2) 0.0841(3) 0.0298(8)
C4_2 C 0.0774(2) 0.1139(2) 0.0498(8)
H2_2 H 0.0797 0.1254 0.1184
C5_2 C 0.0098(4) 0.0708(3) 0.1026(9)
H3_2 H 0.0034 0.0970 0.1491
H4_2 H 0.0220 0.0443 0.1425
C29_2 C 0.23847(8) 0.15206(7) 0.08573(16)
C30_2 C 0.24253(12) 0.10337(7) 0.12955(18)
C31_2 C 0.22176(19) 0.06561(10) 0.0824(3)
H24_2 H 0.2023 0.0700 0.0236
C32_2 C 0.2294(3) 0.02072(11) 0.1216(3)
C33_2 C 0.2587(3) 0.01199(9) 0.2037(2)
C34_2 C 0.2789(2) 0.05016(10) 0.2516(2)
H26_2 H 0.2986 0.0457 0.3098
C35_2 C 0.27025(15) 0.09516(9) 0.2149(2)
H27_2 H 0.2839 0.1210 0.2498
Li9_2 Li 0.28419(13) 0.23823(12) 0.0686(3)
Li4_2 Li 0.1631(3) 0.1418(2) 0.9113(6)
O1_2 O 0.1655(2) 0.08525(14) 0.8383(3)
N1_2 N 0.1369(4) 0.0166(4) 0.7717(11)
C1_2 C 0.1479(3) 0.0605(3) 0.7711(6)
H1_2 H 0.1414 0.0762 0.7081
O2_2 O 0.10630(17) 0.1276(2) 0.9893(4)
C6_2 C 0.0418(6) 0.0554(8) 0.9194(9)
H6_2 H 0.0098 0.0552 0.8915
H7_2 H 0.0523 0.0232 0.9307
H8_2 H 0.0629 0.0708 0.8702
O9_2 O 0.21922(7) 0.15757(5) 0.99940(13)
Li10_2 Li 0.22153(13) 0.21516(12) 0.9172(3)
O14_2 O 0.16462(5) 0.20153(6) 0.83477(12)
H31_2 H 0.129946 0.00668912 0.947317
H36_2 H 0.077711 0.00807353 0.682286
Li2_2 Li 0.21581(13) 0.73823(12) 0.0686(3)
Li3_2 Li 0.22153(13) 0.78484(12) 0.4172(3)
O5_2 O 0.18543(5) 0.75644(6) 0.19728(11)
O6_2 O 0.16462(5) 0.79847(6) 0.33477(12)
C14_2 C 0.15606(7) 0.77926(8) 0.24962(16)
C15_2 C 0.10707(8) 0.78235(10) 0.20634(17)
C16_2 C 0.07387(8) 0.81276(12) 0.2505(2)
H13_2 H 0.0827 0.8329 0.3055
C17_2 C 0.02801(9) 0.81318(14) 0.2131(2)
H14_2 H 0.0058 0.8346 0.2407
C18_2 C 0.01462(9) 0.78225(17) 0.1352(2)
C19_2 C 0.04762(10) 0.75171(17) 0.0899(2)
H15_2 H 0.0388 0.7312 0.0357
C20_2 C 0.09329(9) 0.75251(13) 0.1267(2)
H16_2 H 0.1159 0.7321 0.0969
O7_2 O 0.26988(5) 0.76923(4) 0.01123(11)
N4_2 N 0.2667(3) 0.96722(9) 0.2409(2)
C23_2 C 0.27706(11) 0.85007(7) 0.04516(16)
C24_2 C 0.26279(11) 0.84496(7) 0.14644(16)
H20_2 H 0.2561 0.8146 0.1725
C25_2 C 0.25813(16) 0.88371(8) 0.21090(18)
H21_2 H 0.2473 0.8797 0.2797
C26_2 C 0.2692(2) 0.92805(10) 0.1750(2)
C27_2 C 0.2840(2) 0.93308(10) 0.0732(2)
H22_2 H 0.2916 0.9633 0.0476
C28_2 C 0.28785(19) 0.89435(9) 0.0084(2)
H25_2 H 0.2137 0.9951 0.0901
C36_2 C 0.2832(5) 0.96160(13) 0.3491(3)
Li7_2 Li 0.23265(14) 0.71850(12) 0.2654(3)
Li13_2 Li 0.1631(3) 0.8582(2) 0.4113(6)
O11_2 O 0.27308(5) 0.76569(5) 0.32404(11)
O15_2 O 0.23012(5) 0.73077(4) 0.51123(11)
O17_2 O 0.21922(7) 0.84243(5) 0.49940(13)
O19_2 O 0.24446(6) 0.68460(5) 0.13843(11)
H28_2 H 0.320074 0.951461 0.349119
H29_2 H 0.279116 0.99458 0.390156
H30_2 H 0.262489 0.934645 0.387235
C2_2 C 0.1122(6) 0.9923(5) 0.6928(10)
C3_2 C 0.1494(9) 0.9898(5) 0.8853(10)
O8_2 O 0.29106(7) 0.81620(6) 0.88135(12)
C22_2 C 0.27947(8) 0.80898(7) 0.97371(15)
H23_2 H 0.2979 0.8983 0.9390
Li6_2 Li 0.26735(14) 0.78150(12) 0.7654(3)
Li11_2 Li 0.27847(13) 0.71516(12) 0.9172(3)
O12_2 O 0.17698(6) 0.72233(6) 0.95366(11)
H32_2 H 0.139356 0.953108 0.880789
H33_2 H 0.186918 0.992409 0.900673
H34_2 H 0.131878 0.994449 0.620898
H35_2 H 0.108098 0.955771 0.714803
O3_2 O 0.77308(5) 0.73431(5) 0.32404(11)
O4_2 O 0.82302(6) 0.72233(6) 0.45366(11)
N3_2 N 0.96773(8) 0.78274(17) 0.09848(18)
C7_2 C 0.81428(7) 0.73245(7) 0.36117(15)
C8_2 C 0.85461(7) 0.74349(9) 0.29098(16)
C9_2 C 0.84679(7) 0.75572(10) 0.18898(17)
H9_2 H 0.8156 0.7564 0.1629
C10_2 C 0.88423(9) 0.76703(14) 0.12411(17)
H10_2 H 0.8786 0.7735 0.0533
C11_2 C 0.93016(8) 0.76882(15) 0.16321(18)
C12_2 C 0.93786(8) 0.75511(15) 0.26472(19)
H11_2 H 0.9690 0.7534 0.2909
C13_2 C 0.90048(8) 0.74397(12) 0.32741(17)
H12_2 H 0.9062 0.7364 0.3976
Li8_2 Li 0.78419(13) 0.73823(12) 0.5686(3)
Li12_2 Li 0.72153(13) 0.71516(12) 0.4172(3)
O13_2 O 0.68543(5) 0.74356(6) 0.19728(11)
O16_2 O 0.70894(7) 0.81620(6) 0.38135(12)
O15_3 O 0.23012(5) 0.26923(4) 0.01123(11)
C2_3 C 0.1122(6) 0.0077(5) 0.1928(10)
C3_3 C 0.1494(9) 0.0102(5) 0.3853(10)
O5_3 O 0.18543(5) 0.24356(6) 0.69728(11)
C14_3 C 0.15606(7) 0.22074(8) 0.74962(16)
C15_3 C 0.10707(8) 0.21765(10) 0.70634(17)
C16_3 C 0.07387(8) 0.18724(12) 0.7505(2)
H13_3 H 0.0827 0.1671 0.8055
C17_3 C 0.02801(9) 0.18682(14) 0.7131(2)
H14_3 H 0.0058 0.1654 0.7407
C18_3 C 0.01462(9) 0.21775(17) 0.6352(2)
C19_3 C 0.04762(10) 0.24829(17) 0.5899(2)
H15_3 H 0.0388 0.2688 0.5357
C20_3 C 0.09329(9) 0.24749(13) 0.6267(2)
H16_3 H 0.1159 0.2679 0.5969
O7_3 O 0.26988(5) 0.23077(4) 0.51123(11)
N4_3 N 0.2667(3) 0.03278(9) 0.7409(2)
C22_3 C 0.27947(8) 0.19102(7) 0.47371(15)
C23_3 C 0.27706(11) 0.14993(7) 0.54516(16)
C24_3 C 0.26279(11) 0.15504(7) 0.64644(16)
H20_3 H 0.2561 0.1854 0.6725
C25_3 C 0.25813(16) 0.11629(8) 0.71090(18)
H21_3 H 0.2473 0.1203 0.7797
C26_3 C 0.2692(2) 0.07195(10) 0.6750(2)
C27_3 C 0.2840(2) 0.06692(10) 0.5732(2)
H22_3 H 0.2916 0.0367 0.5476
C28_3 C 0.28785(19) 0.10565(9) 0.5084(2)
H23_3 H 0.2979 0.1017 0.4390
H25_3 H 0.2137 0.0049 0.5901
C36_3 C 0.2832(5) 0.03840(13) 0.8491(3)
Li7_3 Li 0.23265(14) 0.28150(12) 0.7654(3)
O11_3 O 0.27308(5) 0.23431(5) 0.82404(11)
O19_3 O 0.24446(6) 0.31540(5) 0.63843(11)
H28_3 H 0.320074 0.0485387 0.849119
H29_3 H 0.279116 0.00542045 0.890156
H30_3 H 0.262489 0.0653551 0.887235
H32_3 H 0.139356 0.0468918 0.380789
H33_3 H 0.186918 0.00759072 0.400673
H34_3 H 0.131878 0.00555124 0.120898
H35_3 H 0.108098 0.0442285 0.214803
O1_3 O 0.1655(2) 0.91475(14) 0.3383(3)
N1_3 N 0.1369(4) 0.9834(4) 0.2717(11)
C1_3 C 0.1479(3) 0.9395(3) 0.2711(6)
H1_3 H 0.1414 0.9238 0.2081
O2_3 O 0.10630(17) 0.8724(2) 0.4893(4)
N2_3 N 0.0425(2) 0.9159(3) 0.5298(8)
C4_3 C 0.0774(2) 0.8861(2) 0.5498(8)
H2_3 H 0.0797 0.8746 0.6184
C5_3 C 0.0098(4) 0.9292(3) 0.6026(9)
H3_3 H 0.0034 0.9030 0.6491
H4_3 H 0.0220 0.9557 0.6425
C6_3 C 0.0418(6) 0.9446(8) 0.4194(9)
H6_3 H 0.0098 0.9448 0.3915
H7_3 H 0.0523 0.9768 0.4307
H8_3 H 0.0629 0.9292 0.3702
O10_2 O 0.25554(6) 0.81540(5) 0.63843(11)
C29_3 C 0.23847(8) 0.84794(7) 0.58573(16)
C30_3 C 0.24253(12) 0.89663(7) 0.62955(18)
C31_3 C 0.22176(19) 0.93439(10) 0.5824(3)
H24_3 H 0.2023 0.9300 0.5236
C32_3 C 0.2294(3) 0.97928(11) 0.6216(3)
C33_3 C 0.2587(3) 0.98801(9) 0.7037(2)
C34_3 C 0.2789(2) 0.94984(10) 0.7516(2)
H26_3 H 0.2986 0.9543 0.8098
C35_3 C 0.27025(15) 0.90484(9) 0.7149(2)
H27_3 H 0.2839 0.8790 0.7498
Li9_3 Li 0.28419(13) 0.76177(12) 0.5686(3)
H31_3 H 0.129946 0.993311 0.447317
H36_3 H 0.077711 0.991926 0.182286
O3_3 O 0.77308(5) 0.26569(5) 0.82404(11)
N3_3 N 0.96773(8) 0.21726(17) 0.59848(18)
C7_3 C 0.81428(7) 0.26755(7) 0.86117(15)
C8_3 C 0.85461(7) 0.25651(9) 0.79098(16)
C9_3 C 0.84679(7) 0.24428(10) 0.68898(17)
H9_3 H 0.8156 0.2436 0.6629
C10_3 C 0.88423(9) 0.23297(14) 0.62411(17)
H10_3 H 0.8786 0.2265 0.5533
C11_3 C 0.93016(8) 0.23118(15) 0.66321(18)
C12_3 C 0.93786(8) 0.24489(15) 0.76472(19)
H11_3 H 0.9690 0.2466 0.7909
C13_3 C 0.90048(8) 0.25603(12) 0.82741(17)
H12_3 H 0.9062 0.2636 0.8976
C21 C 0.96131(12) 0.2222(3) 0.4857(2)
H17 H 0.9916 0.2182 0.4510
H18 H 0.9392 0.1984 0.4611
H19 H 0.9488 0.2534 0.4703
O13_3 O 0.68543(5) 0.25644(6) 0.69728(11)
O18_2 O 0.74446(6) 0.18460(5) 0.63843(11)
O3_4 O 0.22692(5) 0.73431(5) 0.82404(11)
N3_4 N 0.03227(8) 0.78274(17) 0.59848(18)
C7_4 C 0.18572(7) 0.73245(7) 0.86117(15)
C8_4 C 0.14539(7) 0.74349(9) 0.79098(16)
C9_4 C 0.15321(7) 0.75572(10) 0.68898(17)
H9_4 H 0.1844 0.7564 0.6629
C10_4 C 0.11577(9) 0.76703(14) 0.62411(17)
H10_4 H 0.1214 0.7735 0.5533
C11_4 C 0.06984(8) 0.76882(15) 0.66321(18)
C12_4 C 0.06214(8) 0.75511(15) 0.76472(19)
H11_4 H 0.0310 0.7534 0.7909
C13_4 C 0.09952(8) 0.74397(12) 0.82741(17)
H12_4 H 0.0938 0.7364 0.8976
C21_2 C 0.03869(12) 0.7778(3) 0.4857(2)
H17_2 H 0.0084 0.7818 0.4510
H18_2 H 0.0608 0.8016 0.4611
H19_2 H 0.0512 0.7466 0.4703
O13_4 O 0.31457(5) 0.74356(6) 0.69728(11)
O1_4 O 0.8345(2) 0.08525(14) 0.3383(3)
N1_4 N 0.8631(4) 0.0166(4) 0.2717(11)
C1_4 C 0.8521(3) 0.0605(3) 0.2711(6)
H1_4 H 0.8586 0.0762 0.2081
O2_4 O 0.89370(17) 0.1276(2) 0.4893(4)
N2_4 N 0.9575(2) 0.0841(3) 0.5298(8)
C4_4 C 0.9226(2) 0.1139(2) 0.5498(8)
H2_4 H 0.9203 0.1254 0.6184
C5_4 C 0.9902(4) 0.0708(3) 0.6026(9)
H3_4 H 0.9966 0.0970 0.6491
H4_4 H 0.9780 0.0443 0.6425
C6_4 C 0.9582(6) 0.0554(8) 0.4194(9)
H6_4 H 0.9902 0.0552 0.3915
H7_4 H 0.9477 0.0232 0.4307
H8_4 H 0.9371 0.0708 0.3702
C29_4 C 0.76153(8) 0.15206(7) 0.58573(16)
C30_4 C 0.75747(12) 0.10337(7) 0.62955(18)
C31_4 C 0.77824(19) 0.06561(10) 0.5824(3)
H24_4 H 0.7977 0.0700 0.5236
C32_4 C 0.7706(3) 0.02072(11) 0.6216(3)
C33_4 C 0.7413(3) 0.01199(9) 0.7037(2)
C34_4 C 0.7211(2) 0.05016(10) 0.7516(2)
H26_4 H 0.7014 0.0457 0.8098
C35_4 C 0.72975(15) 0.09516(9) 0.7149(2)
H27_4 H 0.7161 0.1210 0.7498
Li9_4 Li 0.71581(13) 0.23823(12) 0.5686(3)
H31_4 H 0.870054 0.00668912 0.447317
H36_4 H 0.922289 0.00807353 0.182286
O15_4 O 0.76988(5) 0.73077(4) 0.01123(11)
C2_4 C 0.8878(6) 0.9923(5) 0.1928(10)
C3_4 C 0.8506(9) 0.9898(5) 0.3853(10)
O5_4 O 0.81457(5) 0.75644(6) 0.69728(11)
C14_4 C 0.84394(7) 0.77926(8) 0.74962(16)
C15_4 C 0.89293(8) 0.78235(10) 0.70634(17)
C16_4 C 0.92613(8) 0.81276(12) 0.7505(2)
H13_4 H 0.9173 0.8329 0.8055
C17_4 C 0.97199(9) 0.81318(14) 0.7131(2)
H14_4 H 0.9942 0.8346 0.7407
C18_4 C 0.98538(9) 0.78225(17) 0.6352(2)
C19_4 C 0.95238(10) 0.75171(17) 0.5899(2)
H15_4 H 0.9612 0.7312 0.5357
C20_4 C 0.90671(9) 0.75251(13) 0.6267(2)
H16_4 H 0.8841 0.7321 0.5969
O7_4 O 0.73012(5) 0.76923(4) 0.51123(11)
N4_4 N 0.7333(3) 0.96722(9) 0.7409(2)
C22_4 C 0.72053(8) 0.80898(7) 0.47371(15)
C23_4 C 0.72294(11) 0.85007(7) 0.54516(16)
C24_4 C 0.73721(11) 0.84496(7) 0.64644(16)
H20_4 H 0.7439 0.8146 0.6725
C25_4 C 0.74187(16) 0.88371(8) 0.71090(18)
H21_4 H 0.7527 0.8797 0.7797
C26_4 C 0.7308(2) 0.92805(10) 0.6750(2)
C27_4 C 0.7160(2) 0.93308(10) 0.5732(2)
H22_4 H 0.7084 0.9633 0.5476
C28_4 C 0.71215(19) 0.89435(9) 0.5084(2)
H23_4 H 0.7021 0.8983 0.4390
H25_4 H 0.7863 0.9951 0.5901
C36_4 C 0.7168(5) 0.96160(13) 0.8491(3)
Li7_4 Li 0.76735(14) 0.71850(12) 0.7654(3)
O11_4 O 0.72692(5) 0.76569(5) 0.82404(11)
O19_4 O 0.75554(6) 0.68460(5) 0.63843(11)
H28_4 H 0.679926 0.951461 0.849119
H29_4 H 0.720884 0.99458 0.890156
H30_4 H 0.737511 0.934645 0.887235
H32_4 H 0.860644 0.953108 0.380789
H33_4 H 0.813082 0.992409 0.400673
H34_4 H 0.868122 0.994449 0.120898
H35_4 H 0.891902 0.955771 0.214803
Li4_3 Li 0.3369(3) 0.3582(2) 0.4113(6)
O1_5 O 0.3345(2) 0.41475(14) 0.3383(3)
N1_5 N 0.3631(4) 0.4834(4) 0.2717(11)
C1_5 C 0.3521(3) 0.4395(3) 0.2711(6)
H1_5 H 0.3586 0.4238 0.2081
C2_5 C 0.3878(6) 0.5077(5) 0.1928(10)
C3_5 C 0.3506(9) 0.5102(5) 0.3853(10)
O2_5 O 0.39370(17) 0.3724(2) 0.4893(4)
N2_5 N 0.4575(2) 0.4159(3) 0.5298(8)
C4_5 C 0.4226(2) 0.3861(2) 0.5498(8)
H2_5 H 0.4203 0.3746 0.6184
C5_5 C 0.4902(4) 0.4292(3) 0.6026(9)
H3_5 H 0.4966 0.4030 0.6491
H4_5 H 0.4780 0.4557 0.6425
H5 H 0.5194 0.4386 0.5680
C6_5 C 0.4582(6) 0.4446(8) 0.4194(9)
H6_5 H 0.4902 0.4448 0.3915
H7_5 H 0.4477 0.4768 0.4307
H8_5 H 0.4371 0.4292 0.3702
O4_3 O 0.67698(6) 0.77767(6) 0.95366(11)
O6_3 O 0.33538(5) 0.70153(6) 0.83477(12)
N3_5 N 0.53227(8) 0.71726(17) 0.59848(18)
C7_5 C 0.68572(7) 0.76755(7) 0.86117(15)
C8_5 C 0.64539(7) 0.75651(9) 0.79098(16)
C9_5 C 0.65321(7) 0.74428(10) 0.68898(17)
H9_5 H 0.6844 0.7436 0.6629
C10_5 C 0.61577(9) 0.73297(14) 0.62411(17)
H10_5 H 0.6214 0.7265 0.5533
C11_5 C 0.56984(8) 0.73118(15) 0.66321(18)
C12_5 C 0.56214(8) 0.74489(15) 0.76472(19)
H11_5 H 0.5310 0.7466 0.7909
C13_5 C 0.59952(8) 0.75603(12) 0.82741(17)
H12_5 H 0.5938 0.7636 0.8976
C14_5 C 0.34394(7) 0.72074(8) 0.74962(16)
C15_5 C 0.39293(8) 0.71765(10) 0.70634(17)
C16_5 C 0.42613(8) 0.68724(12) 0.7505(2)
H13_5 H 0.4173 0.6671 0.8055
C17_5 C 0.47199(9) 0.68682(14) 0.7131(2)
H14_5 H 0.4942 0.6654 0.7407
C18_5 C 0.48538(9) 0.71775(17) 0.6352(2)
C19_5 C 0.45238(10) 0.74829(17) 0.5899(2)
H15_5 H 0.4612 0.7688 0.5357
C20_5 C 0.40671(9) 0.74749(13) 0.6267(2)
H16_5 H 0.3841 0.7679 0.5969
C21_3 C 0.53869(12) 0.7222(3) 0.4857(2)
H17_3 H 0.5084 0.7182 0.4510
H18_3 H 0.5608 0.6984 0.4611
H19_3 H 0.5512 0.7534 0.4703
O8_3 O 0.20894(7) 0.68380(6) 0.38135(12)
O9_3 O 0.28078(7) 0.34243(5) 0.49940(13)
N4_5 N 0.2333(3) 0.53278(9) 0.7409(2)
C22_5 C 0.22053(8) 0.69102(7) 0.47371(15)
C23_5 C 0.22294(11) 0.64993(7) 0.54516(16)
C24_5 C 0.23721(11) 0.65504(7) 0.64644(16)
H20_5 H 0.2439 0.6854 0.6725
C25_5 C 0.24187(16) 0.61629(8) 0.71090(18)
H21_5 H 0.2527 0.6203 0.7797
C26_5 C 0.2308(2) 0.57195(10) 0.6750(2)
C27_5 C 0.2160(2) 0.56692(10) 0.5732(2)
H22_5 H 0.2084 0.5367 0.5476
C28_5 C 0.21215(19) 0.60565(9) 0.5084(2)
H23_5 H 0.2021 0.6017 0.4390
C29_5 C 0.26153(8) 0.34794(7) 0.58573(16)
C30_5 C 0.25747(12) 0.39663(7) 0.62955(18)
C31_5 C 0.27824(19) 0.43439(10) 0.5824(3)
H24_5 H 0.2977 0.4300 0.5236
C32_5 C 0.2706(3) 0.47928(11) 0.6216(3)
H25_5 H 0.2863 0.5049 0.5901
C33_5 C 0.2413(3) 0.48801(9) 0.7037(2)
C34_5 C 0.2211(2) 0.44984(10) 0.7516(2)
H26_5 H 0.2014 0.4543 0.8098
C35_5 C 0.22975(15) 0.40484(9) 0.7149(2)
H27_5 H 0.2161 0.3790 0.7498
C36_5 C 0.2168(5) 0.53840(13) 0.8491(3)
Li13_3 Li 0.3369(3) 0.6418(2) 0.9113(6)
O12_3 O 0.32302(6) 0.77767(6) 0.45366(11)
O14_3 O 0.33538(5) 0.29847(6) 0.33477(12)
O16_3 O 0.79106(7) 0.68380(6) 0.88135(12)
O17_3 O 0.28078(7) 0.65757(5) 0.99940(13)
H28_5 H 0.179926 0.548539 0.849119
H29_5 H 0.220884 0.50542 0.890156
H30_5 H 0.237511 0.565355 0.887235
H31_5 H 0.370054 0.493311 0.447317
H32_5 H 0.360644 0.546892 0.380789
H33_5 H 0.313082 0.507591 0.400673
H34_5 H 0.368122 0.505551 0.120898
H35_5 H 0.391902 0.544229 0.214803
H36_5 H 0.422289 0.491926 0.182286
Li4_4 Li 0.6631(3) 0.6418(2) 0.4113(6)
O1_6 O 0.6655(2) 0.58525(14) 0.3383(3)
N1_6 N 0.6369(4) 0.5166(4) 0.2717(11)
C1_6 C 0.6479(3) 0.5605(3) 0.2711(6)
H1_6 H 0.6414 0.5762 0.2081
C2_6 C 0.6122(6) 0.4923(5) 0.1928(10)
C3_6 C 0.6494(9) 0.4898(5) 0.3853(10)
O2_6 O 0.60630(17) 0.6276(2) 0.4893(4)
N2_6 N 0.5425(2) 0.5841(3) 0.5298(8)
C4_6 C 0.5774(2) 0.6139(2) 0.5498(8)
H2_6 H 0.5797 0.6254 0.6184
C5_6 C 0.5098(4) 0.5708(3) 0.6026(9)
H3_6 H 0.5034 0.5970 0.6491
H4_6 H 0.5220 0.5443 0.6425
H5_2 H 0.4806 0.5614 0.5680
C6_6 C 0.5418(6) 0.5554(8) 0.4194(9)
H6_6 H 0.5098 0.5552 0.3915
H7_6 H 0.5523 0.5232 0.4307
H8_6 H 0.5629 0.5708 0.3702
O4_4 O 0.32302(6) 0.22233(6) 0.95366(11)
O6_4 O 0.66462(5) 0.29847(6) 0.83477(12)
N3_6 N 0.46773(8) 0.28274(17) 0.59848(18)
C7_6 C 0.31428(7) 0.23245(7) 0.86117(15)
C8_6 C 0.35461(7) 0.24349(9) 0.79098(16)
C9_6 C 0.34679(7) 0.25572(10) 0.68898(17)
H9_6 H 0.3156 0.2564 0.6629
C10_6 C 0.38423(9) 0.26703(14) 0.62411(17)
H10_6 H 0.3786 0.2735 0.5533
C11_6 C 0.43016(8) 0.26882(15) 0.66321(18)
C12_6 C 0.43786(8) 0.25511(15) 0.76472(19)
H11_6 H 0.4690 0.2534 0.7909
C13_6 C 0.40048(8) 0.24397(12) 0.82741(17)
H12_6 H 0.4062 0.2364 0.8976
C14_6 C 0.65606(7) 0.27926(8) 0.74962(16)
C15_6 C 0.60707(8) 0.28235(10) 0.70634(17)
C16_6 C 0.57387(8) 0.31276(12) 0.7505(2)
H13_6 H 0.5827 0.3329 0.8055
C17_6 C 0.52801(9) 0.31318(14) 0.7131(2)
H14_6 H 0.5058 0.3346 0.7407
C18_6 C 0.51462(9) 0.28225(17) 0.6352(2)
C19_6 C 0.54762(10) 0.25171(17) 0.5899(2)
H15_6 H 0.5388 0.2312 0.5357
C20_6 C 0.59329(9) 0.25251(13) 0.6267(2)
H16_6 H 0.6159 0.2321 0.5969
C21_4 C 0.46131(12) 0.2778(3) 0.4857(2)
H17_4 H 0.4916 0.2818 0.4510
H18_4 H 0.4392 0.3016 0.4611
H19_4 H 0.4488 0.2466 0.4703
O8_4 O 0.79106(7) 0.31620(6) 0.38135(12)
O9_4 O 0.71922(7) 0.65757(5) 0.49940(13)
N4_6 N 0.7667(3) 0.46722(9) 0.7409(2)
C22_6 C 0.77947(8) 0.30898(7) 0.47371(15)
C23_6 C 0.77706(11) 0.35007(7) 0.54516(16)
C24_6 C 0.76279(11) 0.34496(7) 0.64644(16)
H20_6 H 0.7561 0.3146 0.6725
C25_6 C 0.75813(16) 0.38371(8) 0.71090(18)
H21_6 H 0.7473 0.3797 0.7797
C26_6 C 0.7692(2) 0.42805(10) 0.6750(2)
C27_6 C 0.7840(2) 0.43308(10) 0.5732(2)
H22_6 H 0.7916 0.4633 0.5476
C28_6 C 0.78785(19) 0.39435(9) 0.5084(2)
H23_6 H 0.7979 0.3983 0.4390
C29_6 C 0.73847(8) 0.65206(7) 0.58573(16)
C30_6 C 0.74253(12) 0.60337(7) 0.62955(18)
C31_6 C 0.72176(19) 0.56561(10) 0.5824(3)
H24_6 H 0.7023 0.5700 0.5236
C32_6 C 0.7294(3) 0.52072(11) 0.6216(3)
H25_6 H 0.7137 0.4951 0.5901
C33_6 C 0.7587(3) 0.51199(9) 0.7037(2)
C34_6 C 0.7789(2) 0.55016(10) 0.7516(2)
H26_6 H 0.7986 0.5457 0.8098
C35_6 C 0.77025(15) 0.59516(9) 0.7149(2)
H27_6 H 0.7839 0.6210 0.7498
C36_6 C 0.7832(5) 0.46160(13) 0.8491(3)
Li13_4 Li 0.6631(3) 0.3582(2) 0.9113(6)
O12_4 O 0.67698(6) 0.22233(6) 0.45366(11)
O14_4 O 0.66462(5) 0.70153(6) 0.33477(12)
O16_4 O 0.20894(7) 0.31620(6) 0.88135(12)
O17_4 O 0.71922(7) 0.34243(5) 0.99940(13)
H28_6 H 0.820074 0.451461 0.849119
H29_6 H 0.779116 0.49458 0.890156
H30_6 H 0.762489 0.434645 0.887235
H31_6 H 0.629946 0.506689 0.447317
H32_6 H 0.639356 0.453108 0.380789
H33_6 H 0.686918 0.492409 0.400673
H34_6 H 0.631878 0.494449 0.120898
H35_6 H 0.608098 0.455771 0.214803
H36_6 H 0.577711 0.508074 0.182286
N2_7 N 0.5425(2) 0.4159(3) 0.0298(8)
C4_7 C 0.5774(2) 0.3861(2) 0.0498(8)
H2_7 H 0.5797 0.3746 0.1184
C5_7 C 0.5098(4) 0.4292(3) 0.1026(9)
H3_7 H 0.5034 0.4030 0.1491
H4_7 H 0.5220 0.4557 0.1425
H5_3 H 0.4806 0.4386 0.0680
N3_7 N 0.46773(8) 0.71726(17) 0.09848(18)
C7_7 C 0.31428(7) 0.76755(7) 0.36117(15)
C8_7 C 0.35461(7) 0.75651(9) 0.29098(16)
C9_7 C 0.34679(7) 0.74428(10) 0.18898(17)
H9_7 H 0.3156 0.7436 0.1629
C10_7 C 0.38423(9) 0.73297(14) 0.12411(17)
H10_7 H 0.3786 0.7265 0.0533
C11_7 C 0.43016(8) 0.73118(15) 0.16321(18)
C12_7 C 0.43786(8) 0.74489(15) 0.26472(19)
H11_7 H 0.4690 0.7466 0.2909
C13_7 C 0.40048(8) 0.75603(12) 0.32741(17)
H12_7 H 0.4062 0.7636 0.3976
C14_7 C 0.65606(7) 0.72074(8) 0.24962(16)
C15_7 C 0.60707(8) 0.71765(10) 0.20634(17)
C16_7 C 0.57387(8) 0.68724(12) 0.2505(2)
H13_7 H 0.5827 0.6671 0.3055
C17_7 C 0.52801(9) 0.68682(14) 0.2131(2)
H14_7 H 0.5058 0.6654 0.2407
C18_7 C 0.51462(9) 0.71775(17) 0.1352(2)
C19_7 C 0.54762(10) 0.74829(17) 0.0899(2)
H15_7 H 0.5388 0.7688 0.0357
C20_7 C 0.59329(9) 0.74749(13) 0.1267(2)
H16_7 H 0.6159 0.7679 0.0969
N4_7 N 0.7667(3) 0.53278(9) 0.2409(2)
C23_7 C 0.77706(11) 0.64993(7) 0.04516(16)
C24_7 C 0.76279(11) 0.65504(7) 0.14644(16)
H20_7 H 0.7561 0.6854 0.1725
C25_7 C 0.75813(16) 0.61629(8) 0.21090(18)
H21_7 H 0.7473 0.6203 0.2797
C26_7 C 0.7692(2) 0.57195(10) 0.1750(2)
C27_7 C 0.7840(2) 0.56692(10) 0.0732(2)
H22_7 H 0.7916 0.5367 0.0476
C28_7 C 0.78785(19) 0.60565(9) 0.0084(2)
C29_7 C 0.73847(8) 0.34794(7) 0.08573(16)
C30_7 C 0.74253(12) 0.39663(7) 0.12955(18)
C31_7 C 0.72176(19) 0.43439(10) 0.0824(3)
H24_7 H 0.7023 0.4300 0.0236
C32_7 C 0.7294(3) 0.47928(11) 0.1216(3)
H25_7 H 0.7137 0.5049 0.0901
C33_7 C 0.7587(3) 0.48801(9) 0.2037(2)
C34_7 C 0.7789(2) 0.44984(10) 0.2516(2)
H26_7 H 0.7986 0.4543 0.3098
C35_7 C 0.77025(15) 0.40484(9) 0.2149(2)
H27_7 H 0.7839 0.3790 0.2498
C36_7 C 0.7832(5) 0.53840(13) 0.3491(3)
H28_7 H 0.820074 0.548539 0.349119
H29_7 H 0.779116 0.50542 0.390156
H30_7 H 0.762489 0.565355 0.387235
O1_7 O 0.6655(2) 0.41475(14) 0.8383(3)
N1_7 N 0.6369(4) 0.4834(4) 0.7717(11)
C1_7 C 0.6479(3) 0.4395(3) 0.7711(6)
H1_7 H 0.6414 0.4238 0.7081
C2_7 C 0.6122(6) 0.5077(5) 0.6928(10)
C3_7 C 0.6494(9) 0.5102(5) 0.8853(10)
O2_7 O 0.60630(17) 0.3724(2) 0.9893(4)
C6_7 C 0.5418(6) 0.4446(8) 0.9194(9)
H6_7 H 0.5098 0.4448 0.8915
H7_7 H 0.5523 0.4768 0.9307
H8_7 H 0.5629 0.4292 0.8702
C21_5 C 0.46131(12) 0.7222(3) 0.9857(2)
H17_5 H 0.4916 0.7182 0.9510
H18_5 H 0.4392 0.6984 0.9611
H19_5 H 0.4488 0.7534 0.9703
C22_7 C 0.77947(8) 0.69102(7) 0.97371(15)
H23_7 H 0.7979 0.6017 0.9390
H31_7 H 0.629946 0.493311 0.947317
H32_7 H 0.639356 0.546892 0.880789
H33_7 H 0.686918 0.507591 0.900673
H34_7 H 0.631878 0.505551 0.620898
H35_7 H 0.608098 0.544229 0.714803
H36_7 H 0.577711 0.491926 0.682286
N2_8 N 0.4575(2) 0.5841(3) 0.0298(8)
C4_8 C 0.4226(2) 0.6139(2) 0.0498(8)
H2_8 H 0.4203 0.6254 0.1184
C5_8 C 0.4902(4) 0.5708(3) 0.1026(9)
H3_8 H 0.4966 0.5970 0.1491
H4_8 H 0.4780 0.5443 0.1425
H5_4 H 0.5194 0.5614 0.0680
N3_8 N 0.53227(8) 0.28274(17) 0.09848(18)
C7_8 C 0.68572(7) 0.23245(7) 0.36117(15)
C8_8 C 0.64539(7) 0.24349(9) 0.29098(16)
C9_8 C 0.65321(7) 0.25572(10) 0.18898(17)
H9_8 H 0.6844 0.2564 0.1629
C10_8 C 0.61577(9) 0.26703(14) 0.12411(17)
H10_8 H 0.6214 0.2735 0.0533
C11_8 C 0.56984(8) 0.26882(15) 0.16321(18)
C12_8 C 0.56214(8) 0.25511(15) 0.26472(19)
H11_8 H 0.5310 0.2534 0.2909
C13_8 C 0.59952(8) 0.24397(12) 0.32741(17)
H12_8 H 0.5938 0.2364 0.3976
C14_8 C 0.34394(7) 0.27926(8) 0.24962(16)
C15_8 C 0.39293(8) 0.28235(10) 0.20634(17)
C16_8 C 0.42613(8) 0.31276(12) 0.2505(2)
H13_8 H 0.4173 0.3329 0.3055
C17_8 C 0.47199(9) 0.31318(14) 0.2131(2)
H14_8 H 0.4942 0.3346 0.2407
C18_8 C 0.48538(9) 0.28225(17) 0.1352(2)
C19_8 C 0.45238(10) 0.25171(17) 0.0899(2)
H15_8 H 0.4612 0.2312 0.0357
C20_8 C 0.40671(9) 0.25251(13) 0.1267(2)
H16_8 H 0.3841 0.2321 0.0969
N4_8 N 0.2333(3) 0.46722(9) 0.2409(2)
C23_8 C 0.22294(11) 0.35007(7) 0.04516(16)
C24_8 C 0.23721(11) 0.34496(7) 0.14644(16)
H20_8 H 0.2439 0.3146 0.1725
C25_8 C 0.24187(16) 0.38371(8) 0.21090(18)
H21_8 H 0.2527 0.3797 0.2797
C26_8 C 0.2308(2) 0.42805(10) 0.1750(2)
C27_8 C 0.2160(2) 0.43308(10) 0.0732(2)
H22_8 H 0.2084 0.4633 0.0476
C28_8 C 0.21215(19) 0.39435(9) 0.0084(2)
C29_8 C 0.26153(8) 0.65206(7) 0.08573(16)
C30_8 C 0.25747(12) 0.60337(7) 0.12955(18)
C31_8 C 0.27824(19) 0.56561(10) 0.0824(3)
H24_8 H 0.2977 0.5700 0.0236
C32_8 C 0.2706(3) 0.52072(11) 0.1216(3)
H25_8 H 0.2863 0.4951 0.0901
C33_8 C 0.2413(3) 0.51199(9) 0.2037(2)
C34_8 C 0.2211(2) 0.55016(10) 0.2516(2)
H26_8 H 0.2014 0.5457 0.3098
C35_8 C 0.22975(15) 0.59516(9) 0.2149(2)
H27_8 H 0.2161 0.6210 0.2498
C36_8 C 0.2168(5) 0.46160(13) 0.3491(3)
H28_8 H 0.179926 0.451461 0.349119
H29_8 H 0.220884 0.49458 0.390156
H30_8 H 0.237511 0.434645 0.387235
O1_8 O 0.3345(2) 0.58525(14) 0.8383(3)
N1_8 N 0.3631(4) 0.5166(4) 0.7717(11)
C1_8 C 0.3521(3) 0.5605(3) 0.7711(6)
H1_8 H 0.3586 0.5762 0.7081
C2_8 C 0.3878(6) 0.4923(5) 0.6928(10)
C3_8 C 0.3506(9) 0.4898(5) 0.8853(10)
O2_8 O 0.39370(17) 0.6276(2) 0.9893(4)
C6_8 C 0.4582(6) 0.5554(8) 0.9194(9)
H6_8 H 0.4902 0.5552 0.8915
H7_8 H 0.4477 0.5232 0.9307
H8_8 H 0.4371 0.5708 0.8702
C21_6 C 0.53869(12) 0.2778(3) 0.9857(2)
H17_6 H 0.5084 0.2818 0.9510
H18_6 H 0.5608 0.3016 0.9611
H19_6 H 0.5512 0.2466 0.9703
C22_8 C 0.22053(8) 0.30898(7) 0.97371(15)
H23_8 H 0.2021 0.3983 0.9390
H31_8 H 0.370054 0.506689 0.947317
H32_8 H 0.360644 0.453108 0.880789
H33_8 H 0.313082 0.492409 0.900673
H34_8 H 0.368122 0.494449 0.620898
H35_8 H 0.391902 0.455771 0.714803
H36_8 H 0.422289 0.508074 0.682286
C21_7 C 0.03869(12) 0.2222(3) 0.9857(2)
H17_7 H 0.0084 0.2182 0.9510
H18_7 H 0.0608 0.1984 0.9611
H19_7 H 0.0512 0.2534 0.9703
H5_5 H 0.0194 0.9386 0.0680
H5_6 H 0.9806 0.0614 0.0680
C21_8 C 0.96131(12) 0.7778(3) 0.9857(2)
H17_8 H 0.9916 0.7818 0.9510
H18_8 H 0.9392 0.8016 0.9611
H19_8 H 0.9488 0.7466 0.9703
H5_7 H 0.9806 0.9386 0.5680
H5_8 H 0.0194 0.0614 0.5680
loop_
_geom_bond_atom_site_label_1
_geom_bond_atom_site_label_2
_geom_bond_site_symmetry_1
_geom_bond_site_symmetry_2
Li1 O3 1_555 1_555
O3 C7 1_555 1_555
O4 C7 1_555 1_555
N3 C11 1_555 1_555
C7 C8 1_555 1_555
C8 C9 1_555 1_555
C9 H9 1_555 1_555
C10 C9 1_555 1_555
H10 C10 1_555 1_555
C11 C10 1_555 1_555
C12 C11 1_555 1_555
H11 C12 1_555 1_555
C13 C8 1_555 1_555
H12 C13 1_555 1_555
Li8 O4 1_555 1_555
Li12 O3 1_555 1_555
O13 Li1 1_555 1_555
O16 Li1 1_555 1_555
O18 Li1 1_555 1_555
C12 C13 1_555 1_555
Li2 O5 1_555 1_555
Li3 O6 1_555 1_555
O5 C14 1_555 1_555
O6 C14 1_555 1_555
C14 C15 1_555 1_555
C15 C16 1_555 1_555
C16 H13 1_555 1_555
C17 C16 1_555 1_555
H14 C17 1_555 1_555
C19 C18 1_555 1_555
H15 C19 1_555 1_555
C20 C15 1_555 1_555
H16 C20 1_555 1_555
O7 Li2 1_555 1_555
N4 C26 1_555 1_555
C24 C23 1_555 1_555
H20 C24 1_555 1_555
C25 C24 1_555 1_555
H21 C25 1_555 1_555
C26 C25 1_555 1_555
C27 C26 1_555 1_555
H22 C27 1_555 1_555
C28 C23 1_555 1_555
C36 N4 1_555 1_555
Li7 O5 1_555 1_555
Li13 O6 1_555 1_555
O11 Li3 1_555 1_555
O15 Li3 1_555 1_555
O17 Li3 1_555 1_555
O19 Li2 1_555 1_555
C17 C18 1_555 1_555
C19 C20 1_555 1_555
C27 C28 1_555 1_555
Li7 O11 1_555 1_555
Li7 O19 1_555 1_555
Li13 O17 1_555 1_555
C36 H28 1_555 1_555
C36 H29 1_555 1_555
C36 H30 1_555 1_555
O8 C22 1_555 1_555
Li6 O8 1_555 1_555
C3 H32 1_555 1_555
C3 H33 1_555 1_555
C2 H34 1_555 1_555
C2 H35 1_555 1_555
N2 C4 1_555 1_555
H2 C4 1_555 1_555
C5 N2 1_555 1_555
H3 C5 1_555 1_555
H4 C5 1_555 1_555
O10 C29 1_555 1_555
C30 C29 1_555 1_555
C31 C30 1_555 1_555
H24 C31 1_555 1_555
C32 C31 1_555 1_555
C34 C33 1_555 1_555
H26 C34 1_555 1_555
C35 C30 1_555 1_555
H27 C35 1_555 1_555
Li5 O10 1_555 1_555
Li9 O10 1_555 1_555
C32 C33 1_555 1_555
C34 C35 1_555 1_555
Li4 O1 1_555 1_555
O1 C1 1_555 1_555
N1 C1 1_555 1_555
C1 H1 1_555 1_555
O2 Li4 1_555 1_555
H6 C6 1_555 1_555
H7 C6 1_555 1_555
H8 C6 1_555 1_555
O9 Li4 1_555 1_555
Li10 O9 1_555 1_555
O14 Li4 1_555 1_555
Li10 O14 1_555 1_555
N2_2 C4_2 1_555 1_555
H2_2 C4_2 1_555 1_555
C5_2 N2_2 1_555 1_555
H3_2 C5_2 1_555 1_555
H4_2 C5_2 1_555 1_555
O18 C29_2 1_555 1_555
C30_2 C29_2 1_555 1_555
C31_2 C30_2 1_555 1_555
H24_2 C31_2 1_555 1_555
C32_2 C31_2 1_555 1_555
C34_2 C33_2 1_555 1_555
H26_2 C34_2 1_555 1_555
C35_2 C30_2 1_555 1_555
H27_2 C35_2 1_555 1_555
Li9_2 O18 1_555 1_555
C32_2 C33_2 1_555 1_555
C34_2 C35_2 1_555 1_555
Li4_2 O1_2 1_555 1_555
O1_2 C1_2 1_555 1_555
N1_2 C1_2 1_555 1_555
C1_2 H1_2 1_555 1_555
O2_2 Li4_2 1_555 1_555
H6_2 C6_2 1_555 1_555
H7_2 C6_2 1_555 1_555
H8_2 C6_2 1_555 1_555
O9_2 Li4_2 1_555 1_555
Li10_2 O9_2 1_555 1_555
O14_2 Li4_2 1_555 1_555
Li10_2 O14_2 1_555 1_555
Li2_2 O5_2 1_555 1_555
Li3_2 O6_2 1_555 1_555
O5_2 C14_2 1_555 1_555
O6_2 C14_2 1_555 1_555
C14_2 C15_2 1_555 1_555
C15_2 C16_2 1_555 1_555
C16_2 H13_2 1_555 1_555
C17_2 C16_2 1_555 1_555
H14_2 C17_2 1_555 1_555
C19_2 C18_2 1_555 1_555
H15_2 C19_2 1_555 1_555
C20_2 C15_2 1_555 1_555
H16_2 C20_2 1_555 1_555
O7_2 Li2_2 1_555 1_555
N4_2 C26_2 1_555 1_555
C24_2 C23_2 1_555 1_555
H20_2 C24_2 1_555 1_555
C25_2 C24_2 1_555 1_555
H21_2 C25_2 1_555 1_555
C26_2 C25_2 1_555 1_555
C27_2 C26_2 1_555 1_555
H22_2 C27_2 1_555 1_555
C28_2 C23_2 1_555 1_555
C36_2 N4_2 1_555 1_555
Li7_2 O5_2 1_555 1_555
Li13_2 O6_2 1_555 1_555
O11_2 Li3_2 1_555 1_555
O15_2 Li3_2 1_555 1_555
O17_2 Li3_2 1_555 1_555
O19_2 Li2_2 1_555 1_555
C17_2 C18_2 1_555 1_555
C19_2 C20_2 1_555 1_555
C27_2 C28_2 1_555 1_555
Li7_2 O11_2 1_555 1_555
Li7_2 O19_2 1_555 1_555
Li13_2 O17_2 1_555 1_555
C36_2 H28_2 1_555 1_555
C36_2 H29_2 1_555 1_555
C36_2 H30_2 1_555 1_555
O8_2 C22_2 1_555 1_555
Li6_2 O8_2 1_555 1_555
C3_2 H32_2 1_555 1_555
C3_2 H33_2 1_555 1_555
C2_2 H34_2 1_555 1_555
C2_2 H35_2 1_555 1_555
Li5 O3_2 1_555 1_555
O3_2 C7_2 1_555 1_555
O4_2 C7_2 1_555 1_555
N3_2 C11_2 1_555 1_555
C7_2 C8_2 1_555 1_555
C8_2 C9_2 1_555 1_555
C9_2 H9_2 1_555 1_555
C10_2 C9_2 1_555 1_555
H10_2 C10_2 1_555 1_555
C11_2 C10_2 1_555 1_555
C12_2 C11_2 1_555 1_555
H11_2 C12_2 1_555 1_555
C13_2 C8_2 1_555 1_555
H12_2 C13_2 1_555 1_555
Li8_2 O4_2 1_555 1_555
Li12_2 O3_2 1_555 1_555
O13_2 Li5 1_555 1_555
O16_2 Li5 1_555 1_555
C12_2 C13_2 1_555 1_555
Li8 O5_3 1_555 1_555
O5_3 C14_3 1_555 1_555
O14_2 C14_3 1_555 1_555
C14_3 C15_3 1_555 1_555
C15_3 C16_3 1_555 1_555
C16_3 H13_3 1_555 1_555
C17_3 C16_3 1_555 1_555
H14_3 C17_3 1_555 1_555
C19_3 C18_3 1_555 1_555
H15_3 C19_3 1_555 1_555
C20_3 C15_3 1_555 1_555
H16_3 C20_3 1_555 1_555
O7_3 Li8 1_555 1_555
O16 C22_3 1_555 1_555
N4_3 C26_3 1_555 1_555
C22_3 O7_3 1_555 1_555
C23_3 C22_3 1_555 1_555
C24_3 C23_3 1_555 1_555
H20_3 C24_3 1_555 1_555
C25_3 C24_3 1_555 1_555
H21_3 C25_3 1_555 1_555
C26_3 C25_3 1_555 1_555
C27_3 C26_3 1_555 1_555
H22_3 C27_3 1_555 1_555
C28_3 C23_3 1_555 1_555
H23_3 C28_3 1_555 1_555
C36_3 N4_3 1_555 1_555
Li7_3 O5_3 1_555 1_555
Li12 O7_3 1_555 1_555
O11_3 Li10_2 1_555 1_555
O19_3 Li8 1_555 1_555
C17_3 C18_3 1_555 1_555
C19_3 C20_3 1_555 1_555
C27_3 C28_3 1_555 1_555
Li7_3 O11_3 1_555 1_555
Li7_3 O19_3 1_555 1_555
C36_3 H28_3 1_555 1_555
C36_3 H29_3 1_555 1_555
C36_3 H30_3 1_555 1_555
C3_3 H32_3 1_555 1_555
C3_3 H33_3 1_555 1_555
C2_3 H34_3 1_555 1_555
C2_3 H35_3 1_555 1_555
Li13_2 O1_3 1_555 1_555
O1_3 C1_3 1_555 1_555
N1_3 C1_3 1_555 1_555
C1_3 H1_3 1_555 1_555
O2_3 Li13_2 1_555 1_555
N2_3 C4_3 1_555 1_555
C4_3 O2_3 1_555 1_555
H2_3 C4_3 1_555 1_555
C5_3 N2_3 1_555 1_555
H3_3 C5_3 1_555 1_555
H4_3 C5_3 1_555 1_555
C6_3 N2_3 1_555 1_555
H6_3 C6_3 1_555 1_555
H7_3 C6_3 1_555 1_555
H8_3 C6_3 1_555 1_555
O10_2 C29_3 1_555 1_555
C29_3 O17_2 1_555 1_555
C30_3 C29_3 1_555 1_555
C31_3 C30_3 1_555 1_555
H24_3 C31_3 1_555 1_555
C32_3 C31_3 1_555 1_555
C34_3 C33_3 1_555 1_555
H26_3 C34_3 1_555 1_555
C35_3 C30_3 1_555 1_555
H27_3 C35_3 1_555 1_555
Li6_2 O10_2 1_555 1_555
Li9_3 O10_2 1_555 1_555
C32_3 C33_3 1_555 1_555
C34_3 C35_3 1_555 1_555
Li6 O3_3 1_555 1_555
O3_3 C7_3 1_555 1_555
O12 C7_3 1_555 1_555
N3_3 C11_3 1_555 1_555
C7_3 C8_3 1_555 1_555
C8_3 C9_3 1_555 1_555
C9_3 H9_3 1_555 1_555
C10_3 C9_3 1_555 1_555
H10_3 C10_3 1_555 1_555
C11_3 C10_3 1_555 1_555
C12_3 C11_3 1_555 1_555
H11_3 C12_3 1_555 1_555
C13_3 C8_3 1_555 1_555
H12_3 C13_3 1_555 1_555
C21 N3_3 1_555 1_555
H17 C21 1_555 1_555
H18 C21 1_555 1_555
H19 C21 1_555 1_555
Li11 O3_3 1_555 1_555
O13_3 Li6 1_555 1_555
O18_2 Li6 1_555 1_555
C12_3 C13_3 1_555 1_555
Li6_2 O3_4 1_555 1_555
O3_4 C7_4 1_555 1_555
O12_2 C7_4 1_555 1_555
N3_4 C11_4 1_555 1_555
C7_4 C8_4 1_555 1_555
C8_4 C9_4 1_555 1_555
C9_4 H9_4 1_555 1_555
C10_4 C9_4 1_555 1_555
H10_4 C10_4 1_555 1_555
C11_4 C10_4 1_555 1_555
C12_4 C11_4 1_555 1_555
H11_4 C12_4 1_555 1_555
C13_4 C8_4 1_555 1_555
H12_4 C13_4 1_555 1_555
C21_2 N3_4 1_555 1_555
H17_2 C21_2 1_555 1_555
H18_2 C21_2 1_555 1_555
H19_2 C21_2 1_555 1_555
Li11_2 O3_4 1_555 1_555
O13_4 Li6_2 1_555 1_555
C12_4 C13_4 1_555 1_555
Li13 O1_4 1_555 1_555
O1_4 C1_4 1_555 1_555
N1_4 C1_4 1_555 1_555
C1_4 H1_4 1_555 1_555
O2_4 Li13 1_555 1_555
N2_4 C4_4 1_555 1_555
C4_4 O2_4 1_555 1_555
H2_4 C4_4 1_555 1_555
C5_4 N2_4 1_555 1_555
H3_4 C5_4 1_555 1_555
H4_4 C5_4 1_555 1_555
C6_4 N2_4 1_555 1_555
H6_4 C6_4 1_555 1_555
H7_4 C6_4 1_555 1_555
H8_4 C6_4 1_555 1_555
O18_2 C29_4 1_555 1_555
C29_4 O17 1_555 1_555
C30_4 C29_4 1_555 1_555
C31_4 C30_4 1_555 1_555
H24_4 C31_4 1_555 1_555
C32_4 C31_4 1_555 1_555
C34_4 C33_4 1_555 1_555
H26_4 C34_4 1_555 1_555
C35_4 C30_4 1_555 1_555
H27_4 C35_4 1_555 1_555
Li9_4 O18_2 1_555 1_555
C32_4 C33_4 1_555 1_555
C34_4 C35_4 1_555 1_555
Li8_2 O5_4 1_555 1_555
O5_4 C14_4 1_555 1_555
O14 C14_4 1_555 1_555
C14_4 C15_4 1_555 1_555
C15_4 C16_4 1_555 1_555
C16_4 H13_4 1_555 1_555
C17_4 C16_4 1_555 1_555
H14_4 C17_4 1_555 1_555
C19_4 C18_4 1_555 1_555
H15_4 C19_4 1_555 1_555
C20_4 C15_4 1_555 1_555
H16_4 C20_4 1_555 1_555
O7_4 Li8_2 1_555 1_555
O16_2 C22_4 1_555 1_555
N4_4 C26_4 1_555 1_555
C22_4 O7_4 1_555 1_555
C23_4 C22_4 1_555 1_555
C24_4 C23_4 1_555 1_555
H20_4 C24_4 1_555 1_555
C25_4 C24_4 1_555 1_555
H21_4 C25_4 1_555 1_555
C26_4 C25_4 1_555 1_555
C27_4 C26_4 1_555 1_555
H22_4 C27_4 1_555 1_555
C28_4 C23_4 1_555 1_555
H23_4 C28_4 1_555 1_555
C36_4 N4_4 1_555 1_555
Li7_4 O5_4 1_555 1_555
Li12_2 O7_4 1_555 1_555
O11_4 Li10 1_555 1_555
O19_4 Li8_2 1_555 1_555
C17_4 C18_4 1_555 1_555
C19_4 C20_4 1_555 1_555
C27_4 C28_4 1_555 1_555
Li7_4 O11_4 1_555 1_555
Li7_4 O19_4 1_555 1_555
C36_4 H28_4 1_555 1_555
C36_4 H29_4 1_555 1_555
C36_4 H30_4 1_555 1_555
C3_4 H32_4 1_555 1_555
C3_4 H33_4 1_555 1_555
C2_4 H34_4 1_555 1_555
C2_4 H35_4 1_555 1_555
Li9_3 O13_4 1_555 1_555
Li11_2 O6_3 1_555 1_555
Li4_3 O1_5 1_555 1_555
O1_5 C1_5 1_555 1_555
N1_5 C1_5 1_555 1_555
C1_5 H1_5 1_555 1_555
C2_5 N1_5 1_555 1_555
C3_5 N1_5 1_555 1_555
O2_5 Li4_3 1_555 1_555
N2_5 C4_5 1_555 1_555
C4_5 O2_5 1_555 1_555
H2_5 C4_5 1_555 1_555
C5_5 N2_5 1_555 1_555
H3_5 C5_5 1_555 1_555
H4_5 C5_5 1_555 1_555
H5 C5_5 1_555 1_555
C6_5 N2_5 1_555 1_555
H6_5 C6_5 1_555 1_555
H7_5 C6_5 1_555 1_555
H8_5 C6_5 1_555 1_555
O11_4 C7_5 1_555 1_555
O4_3 C7_5 1_555 1_555
O13_4 C14_5 1_555 1_555
O6_3 C14_5 1_555 1_555
N3_5 C11_5 1_555 1_555
C7_5 C8_5 1_555 1_555
C8_5 C9_5 1_555 1_555
C9_5 H9_5 1_555 1_555
C10_5 C9_5 1_555 1_555
H10_5 C10_5 1_555 1_555
C11_5 C10_5 1_555 1_555
C12_5 C11_5 1_555 1_555
H11_5 C12_5 1_555 1_555
C13_5 C8_5 1_555 1_555
H12_5 C13_5 1_555 1_555
C14_5 C15_5 1_555 1_555
C15_5 C16_5 1_555 1_555
C16_5 H13_5 1_555 1_555
C17_5 C16_5 1_555 1_555
H14_5 C17_5 1_555 1_555
C18_5 N3_5 1_555 1_555
C19_5 C18_5 1_555 1_555
H15_5 C19_5 1_555 1_555
C20_5 C15_5 1_555 1_555
H16_5 C20_5 1_555 1_555
C21_3 N3_5 1_555 1_555
H17_3 C21_3 1_555 1_555
H18_3 C21_3 1_555 1_555
H19_3 C21_3 1_555 1_555
O15_2 Li9_3 1_555 1_555
O8_3 C22_5 1_555 1_555
O9_3 Li4_3 1_555 1_555
O19_3 C29_5 1_555 1_555
N4_5 C26_5 1_555 1_555
C22_5 O15_2 1_555 1_555
C23_5 C22_5 1_555 1_555
C24_5 C23_5 1_555 1_555
H20_5 C24_5 1_555 1_555
C25_5 C24_5 1_555 1_555
H21_5 C25_5 1_555 1_555
C26_5 C25_5 1_555 1_555
C27_5 C26_5 1_555 1_555
H22_5 C27_5 1_555 1_555
C28_5 C23_5 1_555 1_555
H23_5 C28_5 1_555 1_555
C29_5 O9_3 1_555 1_555
C30_5 C29_5 1_555 1_555
C31_5 C30_5 1_555 1_555
H24_5 C31_5 1_555 1_555
C32_5 C31_5 1_555 1_555
H25_5 C32_5 1_555 1_555
C33_5 N4_5 1_555 1_555
C34_5 C33_5 1_555 1_555
H26_5 C34_5 1_555 1_555
C35_5 C30_5 1_555 1_555
H27_5 C35_5 1_555 1_555
C36_5 N4_5 1_555 1_555
Li7_2 O8_3 1_555 1_555
Li12 O9_3 1_555 1_555
Li13_3 O6_3 1_555 1_555
O12_3 Li9_3 1_555 1_555
O14_3 Li4_3 1_555 1_555
O16_3 Li7_4 1_555 1_555
O17_3 Li11_2 1_555 1_555
C12_5 C13_5 1_555 1_555
C17_5 C18_5 1_555 1_555
C19_5 C20_5 1_555 1_555
C27_5 C28_5 1_555 1_555
C32_5 C33_5 1_555 1_555
C34_5 C35_5 1_555 1_555
Li12 O14_3 1_555 1_555
Li13_3 O17_3 1_555 1_555
C36_5 H28_5 1_555 1_555
C36_5 H29_5 1_555 1_555
C36_5 H30_5 1_555 1_555
C3_5 H31_5 1_555 1_555
C3_5 H32_5 1_555 1_555
C3_5 H33_5 1_555 1_555
C2_5 H34_5 1_555 1_555
C2_5 H35_5 1_555 1_555
C2_5 H36_5 1_555 1_555
Li9_4 O13_3 1_555 1_555
Li11 O6_4 1_555 1_555
Li4_4 O1_6 1_555 1_555
O1_6 C1_6 1_555 1_555
N1_6 C1_6 1_555 1_555
C1_6 H1_6 1_555 1_555
C2_6 N1_6 1_555 1_555
C3_6 N1_6 1_555 1_555
O2_6 Li4_4 1_555 1_555
N2_6 C4_6 1_555 1_555
C4_6 O2_6 1_555 1_555
H2_6 C4_6 1_555 1_555
C5_6 N2_6 1_555 1_555
H3_6 C5_6 1_555 1_555
H4_6 C5_6 1_555 1_555
H5_2 C5_6 1_555 1_555
C6_6 N2_6 1_555 1_555
H6_6 C6_6 1_555 1_555
H7_6 C6_6 1_555 1_555
H8_6 C6_6 1_555 1_555
O11_3 C7_6 1_555 1_555
O4_4 C7_6 1_555 1_555
O13_3 C14_6 1_555 1_555
O6_4 C14_6 1_555 1_555
N3_6 C11_6 1_555 1_555
C7_6 C8_6 1_555 1_555
C8_6 C9_6 1_555 1_555
C9_6 H9_6 1_555 1_555
C10_6 C9_6 1_555 1_555
H10_6 C10_6 1_555 1_555
C11_6 C10_6 1_555 1_555
C12_6 C11_6 1_555 1_555
H11_6 C12_6 1_555 1_555
C13_6 C8_6 1_555 1_555
H12_6 C13_6 1_555 1_555
C14_6 C15_6 1_555 1_555
C15_6 C16_6 1_555 1_555
C16_6 H13_6 1_555 1_555
C17_6 C16_6 1_555 1_555
H14_6 C17_6 1_555 1_555
C18_6 N3_6 1_555 1_555
C19_6 C18_6 1_555 1_555
H15_6 C19_6 1_555 1_555
C20_6 C15_6 1_555 1_555
H16_6 C20_6 1_555 1_555
C21_4 N3_6 1_555 1_555
H17_4 C21_4 1_555 1_555
H18_4 C21_4 1_555 1_555
H19_4 C21_4 1_555 1_555
O15 Li9_4 1_555 1_555
O8_4 C22_6 1_555 1_555
O9_4 Li4_4 1_555 1_555
O19_4 C29_6 1_555 1_555
N4_6 C26_6 1_555 1_555
C22_6 O15 1_555 1_555
C23_6 C22_6 1_555 1_555
C24_6 C23_6 1_555 1_555
H20_6 C24_6 1_555 1_555
C25_6 C24_6 1_555 1_555
H21_6 C25_6 1_555 1_555
C26_6 C25_6 1_555 1_555
C27_6 C26_6 1_555 1_555
H22_6 C27_6 1_555 1_555
C28_6 C23_6 1_555 1_555
H23_6 C28_6 1_555 1_555
C29_6 O9_4 1_555 1_555
C30_6 C29_6 1_555 1_555
C31_6 C30_6 1_555 1_555
H24_6 C31_6 1_555 1_555
C32_6 C31_6 1_555 1_555
H25_6 C32_6 1_555 1_555
C33_6 N4_6 1_555 1_555
C34_6 C33_6 1_555 1_555
H26_6 C34_6 1_555 1_555
C35_6 C30_6 1_555 1_555
H27_6 C35_6 1_555 1_555
C36_6 N4_6 1_555 1_555
Li7 O8_4 1_555 1_555
Li12_2 O9_4 1_555 1_555
Li13_4 O6_4 1_555 1_555
O12_4 Li9_4 1_555 1_555
O14_4 Li4_4 1_555 1_555
O16_4 Li7_3 1_555 1_555
O17_4 Li11 1_555 1_555
C12_6 C13_6 1_555 1_555
C17_6 C18_6 1_555 1_555
C19_6 C20_6 1_555 1_555
C27_6 C28_6 1_555 1_555
C32_6 C33_6 1_555 1_555
C34_6 C35_6 1_555 1_555
Li12_2 O14_4 1_555 1_555
Li13_4 O17_4 1_555 1_555
C36_6 H28_6 1_555 1_555
C36_6 H29_6 1_555 1_555
C36_6 H30_6 1_555 1_555
C3_6 H31_6 1_555 1_555
C3_6 H32_6 1_555 1_555
C3_6 H33_6 1_555 1_555
C2_6 H34_6 1_555 1_555
C2_6 H35_6 1_555 1_555
C2_6 H36_6 1_555 1_555
Li9 O13_2 1_555 1_555
N2_7 C4_7 1_555 1_555
H2_7 C4_7 1_555 1_555
C5_7 N2_7 1_555 1_555
H3_7 C5_7 1_555 1_555
H4_7 C5_7 1_555 1_555
H5_3 C5_7 1_555 1_555
O11_2 C7_7 1_555 1_555
O12_3 C7_7 1_555 1_555
O13_2 C14_7 1_555 1_555
O14_4 C14_7 1_555 1_555
N3_7 C11_7 1_555 1_555
C7_7 C8_7 1_555 1_555
C8_7 C9_7 1_555 1_555
C9_7 H9_7 1_555 1_555
C10_7 C9_7 1_555 1_555
H10_7 C10_7 1_555 1_555
C11_7 C10_7 1_555 1_555
C12_7 C11_7 1_555 1_555
H11_7 C12_7 1_555 1_555
C13_7 C8_7 1_555 1_555
H12_7 C13_7 1_555 1_555
C14_7 C15_7 1_555 1_555
C15_7 C16_7 1_555 1_555
C16_7 H13_7 1_555 1_555
C17_7 C16_7 1_555 1_555
H14_7 C17_7 1_555 1_555
C18_7 N3_7 1_555 1_555
C19_7 C18_7 1_555 1_555
H15_7 C19_7 1_555 1_555
C20_7 C15_7 1_555 1_555
H16_7 C20_7 1_555 1_555
O15_4 Li9 1_555 1_555
O19 C29_7 1_555 1_555
N4_7 C26_7 1_555 1_555
C24_7 C23_7 1_555 1_555
H20_7 C24_7 1_555 1_555
C25_7 C24_7 1_555 1_555
H21_7 C25_7 1_555 1_555
C26_7 C25_7 1_555 1_555
C27_7 C26_7 1_555 1_555
H22_7 C27_7 1_555 1_555
C28_7 C23_7 1_555 1_555
C30_7 C29_7 1_555 1_555
C31_7 C30_7 1_555 1_555
H24_7 C31_7 1_555 1_555
C32_7 C31_7 1_555 1_555
H25_7 C32_7 1_555 1_555
C33_7 N4_7 1_555 1_555
C34_7 C33_7 1_555 1_555
H26_7 C34_7 1_555 1_555
C35_7 C30_7 1_555 1_555
H27_7 C35_7 1_555 1_555
C36_7 N4_7 1_555 1_555
C12_7 C13_7 1_555 1_555
C17_7 C18_7 1_555 1_555
C19_7 C20_7 1_555 1_555
C27_7 C28_7 1_555 1_555
C32_7 C33_7 1_555 1_555
C34_7 C35_7 1_555 1_555
C36_7 H28_7 1_555 1_555
C36_7 H29_7 1_555 1_555
C36_7 H30_7 1_555 1_555
Li13_4 O1_7 1_555 1_555
O1_7 C1_7 1_555 1_555
N1_7 C1_7 1_555 1_555
C1_7 H1_7 1_555 1_555
C2_7 N1_7 1_555 1_555
C3_7 N1_7 1_555 1_555
O2_7 Li13_4 1_555 1_555
H6_7 C6_7 1_555 1_555
H7_7 C6_7 1_555 1_555
H8_7 C6_7 1_555 1_555
H17_5 C21_5 1_555 1_555
H18_5 C21_5 1_555 1_555
H19_5 C21_5 1_555 1_555
O16_3 C22_7 1_555 1_555
C3_7 H31_7 1_555 1_555
C3_7 H32_7 1_555 1_555
C3_7 H33_7 1_555 1_555
C2_7 H34_7 1_555 1_555
C2_7 H35_7 1_555 1_555
C2_7 H36_7 1_555 1_555
Li9_2 O13 1_555 1_555
N2_8 C4_8 1_555 1_555
H2_8 C4_8 1_555 1_555
C5_8 N2_8 1_555 1_555
H3_8 C5_8 1_555 1_555
H4_8 C5_8 1_555 1_555
H5_4 C5_8 1_555 1_555
O11 C7_8 1_555 1_555
O12_4 C7_8 1_555 1_555
O13 C14_8 1_555 1_555
O14_3 C14_8 1_555 1_555
N3_8 C11_8 1_555 1_555
C7_8 C8_8 1_555 1_555
C8_8 C9_8 1_555 1_555
C9_8 H9_8 1_555 1_555
C10_8 C9_8 1_555 1_555
H10_8 C10_8 1_555 1_555
C11_8 C10_8 1_555 1_555
C12_8 C11_8 1_555 1_555
H11_8 C12_8 1_555 1_555
C13_8 C8_8 1_555 1_555
H12_8 C13_8 1_555 1_555
C14_8 C15_8 1_555 1_555
C15_8 C16_8 1_555 1_555
C16_8 H13_8 1_555 1_555
C17_8 C16_8 1_555 1_555
H14_8 C17_8 1_555 1_555
C18_8 N3_8 1_555 1_555
C19_8 C18_8 1_555 1_555
H15_8 C19_8 1_555 1_555
C20_8 C15_8 1_555 1_555
H16_8 C20_8 1_555 1_555
O15_3 Li9_2 1_555 1_555
O19_2 C29_8 1_555 1_555
N4_8 C26_8 1_555 1_555
C24_8 C23_8 1_555 1_555
H20_8 C24_8 1_555 1_555
C25_8 C24_8 1_555 1_555
H21_8 C25_8 1_555 1_555
C26_8 C25_8 1_555 1_555
C27_8 C26_8 1_555 1_555
H22_8 C27_8 1_555 1_555
C28_8 C23_8 1_555 1_555
C30_8 C29_8 1_555 1_555
C31_8 C30_8 1_555 1_555
H24_8 C31_8 1_555 1_555
C32_8 C31_8 1_555 1_555
H25_8 C32_8 1_555 1_555
C33_8 N4_8 1_555 1_555
C34_8 C33_8 1_555 1_555
H26_8 C34_8 1_555 1_555
C35_8 C30_8 1_555 1_555
H27_8 C35_8 1_555 1_555
C36_8 N4_8 1_555 1_555
C12_8 C13_8 1_555 1_555
C17_8 C18_8 1_555 1_555
C19_8 C20_8 1_555 1_555
C27_8 C28_8 1_555 1_555
C32_8 C33_8 1_555 1_555
C34_8 C35_8 1_555 1_555
C36_8 H28_8 1_555 1_555
C36_8 H29_8 1_555 1_555
C36_8 H30_8 1_555 1_555
Li13_3 O1_8 1_555 1_555
O1_8 C1_8 1_555 1_555
N1_8 C1_8 1_555 1_555
C1_8 H1_8 1_555 1_555
C2_8 N1_8 1_555 1_555
C3_8 N1_8 1_555 1_555
O2_8 Li13_3 1_555 1_555
H6_8 C6_8 1_555 1_555
H7_8 C6_8 1_555 1_555
H8_8 C6_8 1_555 1_555
H17_6 C21_6 1_555 1_555
H18_6 C21_6 1_555 1_555
H19_6 C21_6 1_555 1_555
O16_4 C22_8 1_555 1_555
C3_8 H31_8 1_555 1_555
C3_8 H32_8 1_555 1_555
C3_8 H33_8 1_555 1_555
C2_8 H34_8 1_555 1_555
C2_8 H35_8 1_555 1_555
C2_8 H36_8 1_555 1_555
H17_7 C21_7 1_555 1_555
H18_7 C21_7 1_555 1_555
H19_7 C21_7 1_555 1_555
H17_8 C21_8 1_555 1_555
H18_8 C21_8 1_555 1_555
H19_8 C21_8 1_555 1_555

#END
