
###############################################################################
#
# This file contains modified crystal structure data generated from the
# MOF subset of the Cambridge Structural Database (CSD) v543 
# hosted by the Cambridge Crystallographic Data Centre (CCDC).
#
# This work is licensed under the Creative Commons
# Attribution-NonCommercial-ShareAlike 4.0 International License.
# To view a copy of this license, visit
# http://creativecommons.org/licenses/by-nc-sa/4.0/
# or send a letter to
# Creative Commons, PO Box 1866, Mountain View, CA 94042, USA.
#
# CIF created using the CSD Python API on 29 September 2022
# The structure has been converted into the P1 space group
# The structure has a 3D framework
# The original CSD entry NEYBEZ is in the orthorhombic crystal system
# The original CSD entry NEYBEZ is in a Sohncke space group
# The framework has been calculated to contain at least 10.0% void space
# The void calculation uses a probe of radius 1.32A, grid spacing 0.4
#
###############################################################################

data_NEYBEZ
_chemical_formula_moiety         '(C48 H24 Co11 N8 O14 S8)n'
_symmetry_cell_setting           triclinic
_symmetry_space_group_name_H-M   'P 1'
_symmetry_Int_Tables_number      1
_space_group_name_Hall           'P 1'
loop_
_symmetry_equiv_pos_site_id
_symmetry_equiv_pos_as_xyz
1 x,y,z
_cell_length_a                   11.1223(3)
_cell_length_b                   13.5606(4)
_cell_length_c                   12.1518(3)
_cell_angle_alpha                90
_cell_angle_beta                 90
_cell_angle_gamma                90
_cell_volume                     1832.8
loop_
_atom_site_label
_atom_site_type_symbol
_atom_site_fract_x
_atom_site_fract_y
_atom_site_fract_z
Co2 Co 0.0000 0.60654(3) 0.7500
Co6 Co 0.0000 0.39346(3) 0.2500
S3 S 0.16550(5) 0.51127(5) 0.79238(5)
O4 O 0.00698(17) 0.39207(12) 0.52156(14)
O5 O 0.00698(17) 0.60793(12) 0.47844(14)
O8 O 0.04582(17) 0.69407(13) 0.63132(13)
Co3 Co 0.38122(3) -0.0000 0.5000
Co1 Co 0.88122(3) 0.5000 0.5000
Co2_2 Co 1.0000 0.60654(3) 0.7500
S1 S 0.83450(5) 0.51127(5) 0.70762(5)
N1 N 0.75045(16) 0.60709(15) 0.53940(14)
O1 O 0.50698(17) 0.89207(12) 0.52156(14)
O2 O 0.54582(17) 0.80593(13) 0.36868(13)
C1 C 0.74867(19) 0.60794(18) 0.65021(19)
C2 C 0.6865(3) 0.6794(2) 0.7085(2)
H1 H 0.690(3) 0.680(2) 0.796(2)
C3 C 0.6246(2) 0.7506(2) 0.6502(2)
H2 H 0.582(2) 0.800(2) 0.684(2)
C4 C 0.6224(2) 0.74747(17) 0.53593(19)
C5 C 0.6870(2) 0.67489(16) 0.4841(2)
H3 H 0.686(2) 0.6705(19) 0.402(2)
C6 C 0.5522(2) 0.82236(17) 0.47085(19)
Co3_2 Co 0.38122(3) 1.0000 0.5000
Co5 Co 0.5000 0.89346(3) 0.2500
Co6_2 Co 1.0000 0.39346(3) 0.2500
Co7 Co 0.5000 0.10654(3) 0.7500
S2 S 0.83450(5) 0.48873(5) 0.29238(5)
N2 N 0.75045(16) 0.39291(15) 0.46060(14)
O3 O 0.50698(17) 0.10793(12) 0.47844(14)
O6 O 0.54582(17) 0.19407(13) 0.63132(13)
O7 O 0.95418(17) 0.69407(13) 0.86868(13)
C7 C 0.74867(19) 0.39206(18) 0.34979(19)
C8 C 0.6865(3) 0.3206(2) 0.2915(2)
H4 H 0.690(3) 0.320(2) 0.204(2)
C9 C 0.6246(2) 0.2494(2) 0.3498(2)
H5 H 0.582(2) 0.200(2) 0.316(2)
C10 C 0.6224(2) 0.25253(17) 0.46407(19)
C11 C 0.6870(2) 0.32511(16) 0.5159(2)
H6 H 0.686(2) 0.3295(19) 0.598(2)
C12 C 0.5522(2) 0.17764(17) 0.52915(19)
Co4 Co 0.61878(3) 0.0000 -0.0000
Co4_2 Co 0.61878(3) 0.0000 1.0000
Co1_2 Co 0.11878(3) 0.5000 -0.0000
S1_2 S 0.16550(5) 0.48873(5) 0.20762(5)
N1_2 N 0.24955(16) 0.39291(15) 0.03940(14)
O1_2 O 0.49302(17) 0.10793(12) 0.02156(14)
C1_2 C 0.25133(19) 0.39206(18) 0.15021(19)
C2_2 C 0.3135(3) 0.3206(2) 0.2085(2)
H1_2 H 0.310(3) 0.320(2) 0.296(2)
C3_2 C 0.3754(2) 0.2494(2) 0.1502(2)
H2_2 H 0.418(2) 0.200(2) 0.184(2)
C4_2 C 0.3776(2) 0.25253(17) 0.03593(19)
Co4_3 Co 0.61878(3) 1.0000 -0.0000
O6_2 O 0.45418(17) 0.80593(13) 0.13132(13)
O7_2 O 0.04582(17) 0.30593(13) 0.36868(13)
C11_2 C 0.3130(2) 0.67489(16) 0.0159(2)
H6_2 H 0.314(2) 0.6705(19) 0.098(2)
C12_2 C 0.4478(2) 0.82236(17) 0.02915(19)
Co1_3 Co 0.11878(3) 0.5000 1.0000
O2_2 O 0.45418(17) 0.19407(13) 0.86868(13)
C5_2 C 0.3130(2) 0.32511(16) 0.9841(2)
H3_2 H 0.314(2) 0.3295(19) 0.902(2)
C6_2 C 0.4478(2) 0.17764(17) 0.97085(19)
Co4_4 Co 0.61878(3) 1.0000 1.0000
N2_2 N 0.24955(16) 0.60709(15) 0.96060(14)
O3_2 O 0.49302(17) 0.89207(12) 0.97844(14)
C7_2 C 0.25133(19) 0.60794(18) 0.84979(19)
C8_2 C 0.3135(3) 0.6794(2) 0.7915(2)
H4_2 H 0.310(3) 0.680(2) 0.704(2)
C9_2 C 0.3754(2) 0.7506(2) 0.8498(2)
H5_2 H 0.418(2) 0.800(2) 0.816(2)
C10_2 C 0.3776(2) 0.74747(17) 0.96407(19)
O4_2 O 0.99302(17) 0.60793(12) 0.02156(14)
O8_2 O 0.95418(17) 0.30593(13) 0.13132(13)
O5_2 O 0.99302(17) 0.39207(12) 0.97844(14)
S1_3 S 0.33450(5) 0.01127(5) 0.70762(5)
N1_3 N 0.25045(16) 0.10709(15) 0.53940(14)
C1_3 C 0.24867(19) 0.10794(18) 0.65021(19)
C2_3 C 0.1865(3) 0.1794(2) 0.7085(2)
H1_3 H 0.190(3) 0.180(2) 0.796(2)
C3_3 C 0.1246(2) 0.2506(2) 0.6502(2)
H2_3 H 0.082(2) 0.300(2) 0.684(2)
C4_3 C 0.1224(2) 0.24747(17) 0.53593(19)
C5_3 C 0.1870(2) 0.17489(16) 0.4841(2)
H3_3 H 0.186(2) 0.1705(19) 0.402(2)
C6_3 C 0.0522(2) 0.32236(17) 0.47085(19)
S3_2 S 0.66550(5) 0.01127(5) 0.79238(5)
S2_2 S 0.33450(5) 0.98873(5) 0.29238(5)
N2_3 N 0.25045(16) 0.89291(15) 0.46060(14)
C7_3 C 0.24867(19) 0.89206(18) 0.34979(19)
C8_3 C 0.1865(3) 0.8206(2) 0.2915(2)
H4_3 H 0.190(3) 0.820(2) 0.204(2)
C9_3 C 0.1246(2) 0.7494(2) 0.3498(2)
H5_3 H 0.082(2) 0.700(2) 0.316(2)
C10_3 C 0.1224(2) 0.75253(17) 0.46407(19)
C11_3 C 0.1870(2) 0.82511(16) 0.5159(2)
H6_3 H 0.186(2) 0.8295(19) 0.598(2)
C12_3 C 0.0522(2) 0.67764(17) 0.52915(19)
C11_4 C 0.8130(2) 0.17489(16) 0.0159(2)
H6_4 H 0.814(2) 0.1705(19) 0.098(2)
C12_4 C 0.9478(2) 0.32236(17) 0.02915(19)
N2_4 N 0.74955(16) 0.10709(15) 0.96060(14)
C7_4 C 0.75133(19) 0.10794(18) 0.84979(19)
C8_4 C 0.8135(3) 0.1794(2) 0.7915(2)
H4_4 H 0.810(3) 0.180(2) 0.704(2)
C9_4 C 0.8754(2) 0.2506(2) 0.8498(2)
H5_4 H 0.918(2) 0.300(2) 0.816(2)
C10_4 C 0.8776(2) 0.24747(17) 0.96407(19)
S1_4 S 0.66550(5) 0.98873(5) 0.20762(5)
N1_4 N 0.74955(16) 0.89291(15) 0.03940(14)
C1_4 C 0.75133(19) 0.89206(18) 0.15021(19)
C2_4 C 0.8135(3) 0.8206(2) 0.2085(2)
H1_4 H 0.810(3) 0.820(2) 0.296(2)
C3_4 C 0.8754(2) 0.7494(2) 0.1502(2)
H2_4 H 0.918(2) 0.700(2) 0.184(2)
C4_4 C 0.8776(2) 0.75253(17) 0.03593(19)
C5_4 C 0.8130(2) 0.82511(16) 0.9841(2)
H3_4 H 0.814(2) 0.8295(19) 0.902(2)
C6_4 C 0.9478(2) 0.67764(17) 0.97085(19)
loop_
_geom_bond_atom_site_label_1
_geom_bond_atom_site_label_2
_geom_bond_site_symmetry_1
_geom_bond_site_symmetry_2
S3 Co2 1_555 1_555
O8 Co2 1_555 1_555
Co1 S1 1_555 1_555
Co2_2 S1 1_555 1_555
S1 C1 1_555 1_555
N1 Co1 1_555 1_555
O1 C6 1_555 1_555
O2 C6 1_555 1_555
C1 N1 1_555 1_555
C2 C1 1_555 1_555
H1 C2 1_555 1_555
C3 C2 1_555 1_555
H2 C3 1_555 1_555
C4 C3 1_555 1_555
C5 N1 1_555 1_555
H3 C5 1_555 1_555
C6 C4 1_555 1_555
Co3_2 O1 1_555 1_555
Co3 O3 1_555 1_555
Co5 O2 1_555 1_555
Co6_2 S2 1_555 1_555
Co7 O6 1_555 1_555
S2 Co1 1_555 1_555
N2 Co1 1_555 1_555
O3 C12 1_555 1_555
O6 C12 1_555 1_555
O7 Co2_2 1_555 1_555
C7 S2 1_555 1_555
C8 C7 1_555 1_555
H4 C8 1_555 1_555
C9 C8 1_555 1_555
H5 C9 1_555 1_555
C10 C9 1_555 1_555
C11 N2 1_555 1_555
H6 C11 1_555 1_555
C12 C10 1_555 1_555
C4 C5 1_555 1_555
N2 C7 1_555 1_555
C10 C11 1_555 1_555
Co1_2 S1_2 1_555 1_555
Co6 S1_2 1_555 1_555
S1_2 C1_2 1_555 1_555
N1_2 Co1_2 1_555 1_555
C1_2 N1_2 1_555 1_555
C2_2 C1_2 1_555 1_555
H1_2 C2_2 1_555 1_555
C3_2 C2_2 1_555 1_555
H2_2 C3_2 1_555 1_555
C4_2 C3_2 1_555 1_555
Co4 O1_2 1_555 1_555
Co5 O6_2 1_555 1_555
O6_2 C12_2 1_555 1_555
O7_2 Co6 1_555 1_555
H6_2 C11_2 1_555 1_555
O2_2 C6_2 1_555 1_555
H3_2 C5_2 1_555 1_555
Co4_4 O3_2 1_555 1_555
Co7 O2_2 1_555 1_555
S3 Co1_3 1_555 1_555
N2_2 Co1_3 1_555 1_555
C7_2 S3 1_555 1_555
C8_2 C7_2 1_555 1_555
H4_2 C8_2 1_555 1_555
C9_2 C8_2 1_555 1_555
H5_2 C9_2 1_555 1_555
C10_2 C9_2 1_555 1_555
N2_2 C7_2 1_555 1_555
O8_2 Co6_2 1_555 1_555
Co3 S1_3 1_555 1_555
Co7 S1_3 1_555 1_555
S1_3 C1_3 1_555 1_555
N1_3 Co3 1_555 1_555
O4 C6_3 1_555 1_555
O7_2 C6_3 1_555 1_555
C1_3 N1_3 1_555 1_555
C2_3 C1_3 1_555 1_555
H1_3 C2_3 1_555 1_555
C3_3 C2_3 1_555 1_555
H2_3 C3_3 1_555 1_555
C4_3 C3_3 1_555 1_555
C5_3 N1_3 1_555 1_555
H3_3 C5_3 1_555 1_555
C6_3 C4_3 1_555 1_555
S3_2 Co7 1_555 1_555
C4_3 C5_3 1_555 1_555
Co5 S2_2 1_555 1_555
S2_2 Co3_2 1_555 1_555
N2_3 Co3_2 1_555 1_555
O5 C12_3 1_555 1_555
O8 C12_3 1_555 1_555
C7_3 S2_2 1_555 1_555
C8_3 C7_3 1_555 1_555
H4_3 C8_3 1_555 1_555
C9_3 C8_3 1_555 1_555
H5_3 C9_3 1_555 1_555
C10_3 C9_3 1_555 1_555
C11_3 N2_3 1_555 1_555
H6_3 C11_3 1_555 1_555
C12_3 C10_3 1_555 1_555
N2_3 C7_3 1_555 1_555
C10_3 C11_3 1_555 1_555
O8_2 C12_4 1_555 1_555
H6_4 C11_4 1_555 1_555
S3_2 Co4_2 1_555 1_555
N2_4 Co4_2 1_555 1_555
C7_4 S3_2 1_555 1_555
C8_4 C7_4 1_555 1_555
H4_4 C8_4 1_555 1_555
C9_4 C8_4 1_555 1_555
H5_4 C9_4 1_555 1_555
C10_4 C9_4 1_555 1_555
N2_4 C7_4 1_555 1_555
Co4_3 S1_4 1_555 1_555
Co5 S1_4 1_555 1_555
S1_4 C1_4 1_555 1_555
N1_4 Co4_3 1_555 1_555
C1_4 N1_4 1_555 1_555
C2_4 C1_4 1_555 1_555
H1_4 C2_4 1_555 1_555
C3_4 C2_4 1_555 1_555
H2_4 C3_4 1_555 1_555
C4_4 C3_4 1_555 1_555
O7 C6_4 1_555 1_555
H3_4 C5_4 1_555 1_555

#END
