
###############################################################################
#
# This file contains modified crystal structure data generated from the
# MOF subset of the Cambridge Structural Database (CSD) v543 
# hosted by the Cambridge Crystallographic Data Centre (CCDC).
#
# This work is licensed under the Creative Commons
# Attribution-NonCommercial-ShareAlike 4.0 International License.
# To view a copy of this license, visit
# http://creativecommons.org/licenses/by-nc-sa/4.0/
# or send a letter to
# Creative Commons, PO Box 1866, Mountain View, CA 94042, USA.
#
# CIF created using the CSD Python API on 29 September 2022
# The structure has been converted into the P1 space group
# The structure has a 3D framework
# The original CSD entry NEZKUA is in the orthorhombic crystal system
# The framework has been calculated to contain at least 10.0% void space
# The void calculation uses a probe of radius 1.32A, grid spacing 0.4
#
###############################################################################

data_NEZKUA
_chemical_formula_moiety         '(C152 H120 Cd8 N16 O32)n'
_symmetry_cell_setting           triclinic
_symmetry_space_group_name_H-M   'P 1'
_symmetry_Int_Tables_number      1
_space_group_name_Hall           'P 1'
loop_
_symmetry_equiv_pos_site_id
_symmetry_equiv_pos_as_xyz
1 x,y,z
_cell_length_a                   14.1825(8)
_cell_length_b                   17.9582(8)
_cell_length_c                   14.9933(5)
_cell_angle_alpha                90
_cell_angle_beta                 90
_cell_angle_gamma                90
_cell_volume                     3818.68
loop_
_atom_site_label
_atom_site_type_symbol
_atom_site_fract_x
_atom_site_fract_y
_atom_site_fract_z
Cd1 Cd 0.2500 0.2500 0.15990(3)
O1 O 0.1652(3) 0.2909(2) 0.2850(2)
O2 O 0.1684(3) 0.2962(2) 0.0352(2)
N1 N 0.3327(3) 0.3541(3) 0.1622(3)
C1 C 0.1641(4) 0.3576(3) 0.3116(3)
Cd2 Cd 0.2500 0.2500 0.41473(3)
C2 C 0.0824(5) 0.2991(4) 0.0147(4)
C3 C 0.3244(4) 0.4065(3) 0.1010(3)
C4 C 0.3922(4) 0.3831(4) 0.2253(4)
O3 O 0.1921(4) 0.3743(2) 0.3880(3)
C5 C 0.1344(4) 0.4177(3) 0.2477(3)
C6 C 0.0112(4) 0.2930(3) 0.0888(4)
N2 N 0.3756(4) 0.4665(3) 0.1212(3)
H1 H 0.2875 0.4021 0.0500
H2 H 0.4105 0.3589 0.2774
C7 C 0.4202(5) 0.4515(4) 0.2009(4)
C8 C 0.0739(4) 0.4046(3) 0.1758(3)
C9 C 0.1763(5) 0.4869(3) 0.2572(4)
C11 C 0.0131(4) 0.3366(4) 0.1661(4)
C12 C 0.3882(5) 0.5313(4) 0.0640(5)
H3 H 0.4614 0.4826 0.2316
C13 C 0.0592(5) 0.4611(4) 0.1148(4)
C14 C 0.1610(5) 0.5424(4) 0.1961(4)
H4 H 0.2154 0.4959 0.3058
H6 H 0.3800 0.5762 0.0991
H7 H 0.3403 0.5310 0.0179
C17 C 0.4832(7) 0.5325(4) 0.0215(6)
H8 H 0.0190 0.4531 0.0667
C18 C 0.1034(6) 0.5291(4) 0.1239(4)
H9 H 0.1894 0.5887 0.2033
H13 H 0.5285 0.5459 0.0671
H14 H 0.0943 0.5660 0.0813
O5 O 0.3348(3) 0.2091(2) 0.2850(2)
O6 O 0.3316(3) 0.2038(2) 0.0352(2)
N3 N 0.1673(3) 0.1459(3) 0.1622(3)
C20 C 0.3359(4) 0.1424(3) 0.3116(3)
C21 C 0.4176(5) 0.2009(4) 0.0147(4)
O7 O 0.3079(4) 0.1257(2) 0.3880(3)
O8 O 0.3316(3) 0.2962(2) 0.5352(2)
O9 O 0.1684(3) 0.2038(2) 0.5352(2)
C22 C 0.3656(4) 0.0823(3) 0.2477(3)
C23 C 0.4888(4) 0.2070(3) 0.0888(4)
C24 C 0.4261(4) 0.0954(3) 0.1758(3)
C25 C 0.3237(5) 0.0131(3) 0.2572(4)
C26 C 0.5566(5) 0.2620(5) 0.0813(5)
C27 C 0.4869(4) 0.1634(4) 0.1661(4)
C28 C 0.4408(5) 0.0389(4) 0.1148(4)
H16 H 0.2846 0.0041 0.3058
H17 H 0.5610 0.2882 0.0280
C30 C 0.6164(6) 0.2790(5) 0.1480(7)
C31 C 0.5473(5) 0.1819(4) 0.2362(5)
H18 H 0.4810 0.0469 0.0667
H20 H 0.6606 0.3168 0.1407
C34 C 0.6115(7) 0.2389(6) 0.2295(7)
H21 H 0.5440 0.1548 0.2889
H22 H 0.5167 0.4276 0.0222
H25 H 0.6508 0.2509 0.2771
O4 O 0.0546(5) 0.3016(4) 0.9369(4)
H12 H 0.4833 0.5724 0.9778
Cd3 Cd 0.2500 0.2500 0.91473(3)
O10 O 0.4454(5) 0.1984(4) 0.9369(4)
C32 C 0.5168(7) 0.4675(4) 0.9785(6)
C35 C 0.6118(5) 0.4687(4) 0.9360(5)
H23 H 0.4715 0.4541 0.9329
N4 N 0.6244(4) 0.5335(3) 0.8788(3)
H26 H 0.6200 0.4238 0.9009
H27 H 0.6597 0.4690 0.9821
C36 C 0.6756(4) 0.5935(3) 0.8990(3)
C37 C 0.5798(5) 0.5485(4) 0.7991(4)
N5 N 0.6673(3) 0.6459(3) 0.8378(3)
H28 H 0.7125 0.5979 0.9500
C38 C 0.6078(4) 0.6169(4) 0.7747(4)
H29 H 0.5386 0.5174 0.7684
Cd4 Cd 0.7500 0.7500 0.84010(3)
H30 H 0.5895 0.6411 0.7226
C3_2 C 0.1756(4) 0.0935(3) 0.1010(3)
C4_2 C 0.1078(4) 0.1169(4) 0.2253(4)
N2_2 N 0.1244(4) 0.0335(3) 0.1212(3)
H1_2 H 0.2125 0.0979 0.0500
H2_2 H 0.0895 0.1411 0.2774
C7_2 C 0.0798(5) 0.0485(4) 0.2009(4)
H3_2 H 0.0386 0.0174 0.2316
H23_2 H 0.0285 0.0459 0.9329
H13_2 H 0.9715 0.9541 0.0671
N4_2 N 0.8756(4) 0.9665(3) 0.8788(3)
C36_2 C 0.8244(4) 0.9065(3) 0.8990(3)
C37_2 C 0.9202(5) 0.9515(4) 0.7991(4)
N5_2 N 0.8327(3) 0.8541(3) 0.8378(3)
H28_2 H 0.7875 0.9021 0.9500
C38_2 C 0.8922(4) 0.8831(4) 0.7747(4)
H29_2 H 0.9614 0.9826 0.7684
H30_2 H 0.9105 0.8589 0.7226
H13_3 H 0.0285 0.4541 0.4329
C26_2 C 0.0566(5) 0.7380(5) 0.4187(5)
H17_2 H 0.0610 0.7118 0.4720
C30_2 C 0.1164(6) 0.7210(5) 0.3520(7)
C31_2 C 0.0473(5) 0.8181(4) 0.2638(5)
C32_2 C 0.0168(7) 0.5325(4) 0.5215(6)
H20_2 H 0.1606 0.6832 0.3593
C34_2 C 0.1115(7) 0.7611(6) 0.2705(7)
H21_2 H 0.0440 0.8452 0.2111
C35_2 C 0.1118(5) 0.5313(4) 0.5640(5)
H22_2 H 0.0167 0.5724 0.4778
H25_2 H 0.1508 0.7491 0.2229
N4_3 N 0.1244(4) 0.4665(3) 0.6212(3)
H26_2 H 0.1200 0.5762 0.5991
H27_2 H 0.1597 0.5310 0.5179
C36_3 C 0.1756(4) 0.4065(3) 0.6010(3)
C37_3 C 0.0798(5) 0.4515(4) 0.7009(4)
N5_3 N 0.1673(3) 0.3541(3) 0.6622(3)
H28_3 H 0.2125 0.4021 0.5500
C38_3 C 0.1078(4) 0.3831(4) 0.7253(4)
H29_3 H 0.0386 0.4826 0.7316
Cd4_2 Cd 0.2500 0.2500 0.65990(3)
H30_3 H 0.0895 0.3589 0.7774
C29 C 0.8390(5) 0.0424(4) 0.3039(4)
C33 C 0.8966(6) 0.0291(4) 0.3761(4)
H19 H 0.8106 0.0887 0.2967
H24 H 0.9057 0.0660 0.4187
Cd1_2 Cd 0.7500 0.7500 0.34010(3)
O1_2 O 0.6652(3) 0.7091(2) 0.2150(2)
O2_2 O 0.6684(3) 0.7038(2) 0.4648(2)
N1_2 N 0.8327(3) 0.6459(3) 0.3378(3)
C1_2 C 0.6641(4) 0.6424(3) 0.1884(3)
Cd2_2 Cd 0.7500 0.7500 0.08527(3)
C2_2 C 0.5824(5) 0.7009(4) 0.4853(4)
C3_3 C 0.8244(4) 0.5935(3) 0.3990(3)
C4_3 C 0.8922(4) 0.6169(4) 0.2747(4)
O3_2 O 0.6921(4) 0.6257(2) 0.1120(3)
C5_2 C 0.6344(4) 0.5823(3) 0.2523(3)
O4_2 O 0.5546(5) 0.6984(4) 0.5631(4)
C6_2 C 0.5112(4) 0.7070(3) 0.4112(4)
N2_3 N 0.8756(4) 0.5335(3) 0.3788(3)
H1_3 H 0.7875 0.5979 0.4500
H2_3 H 0.9105 0.6411 0.2226
C7_3 C 0.9202(5) 0.5485(4) 0.2991(4)
C8_2 C 0.5739(4) 0.5954(3) 0.3242(3)
C9_2 C 0.6763(5) 0.5131(3) 0.2428(4)
C10 C 0.4434(5) 0.7620(5) 0.4187(5)
C11_2 C 0.5131(4) 0.6634(4) 0.3339(4)
C12_2 C 0.8882(5) 0.4687(4) 0.4360(5)
H3_3 H 0.9614 0.5174 0.2684
C13_2 C 0.5592(5) 0.5389(4) 0.3852(4)
C14_2 C 0.6610(5) 0.4576(4) 0.3039(4)
H4_2 H 0.7154 0.5041 0.1942
H5 H 0.4390 0.7882 0.4720
C15 C 0.3836(6) 0.7790(5) 0.3520(7)
C16 C 0.4527(5) 0.6819(4) 0.2638(5)
H6_2 H 0.8800 0.4238 0.4009
H7_2 H 0.8403 0.4690 0.4821
C17_2 C 0.9832(7) 0.4675(4) 0.4785(6)
H8_2 H 0.5190 0.5469 0.4333
C18_2 C 0.6034(6) 0.4709(4) 0.3761(4)
H9_2 H 0.6894 0.4113 0.2967
H10 H 0.3394 0.8168 0.3593
C19 C 0.3885(7) 0.7389(6) 0.2705(7)
H11 H 0.4560 0.6548 0.2111
H12_2 H 0.9833 0.4276 0.5222
H14_2 H 0.5943 0.4340 0.4187
H15 H 0.3492 0.7509 0.2229
O5_2 O 0.8348(3) 0.7909(2) 0.2150(2)
O6_2 O 0.8316(3) 0.7962(2) 0.4648(2)
N3_2 N 0.6673(3) 0.8541(3) 0.3378(3)
Cd3_2 Cd 0.7500 0.7500 0.58527(3)
C20_2 C 0.8359(4) 0.8576(3) 0.1884(3)
C21_2 C 0.9176(5) 0.7991(4) 0.4853(4)
O7_2 O 0.8079(4) 0.8743(2) 0.1120(3)
C22_2 C 0.8656(4) 0.9177(3) 0.2523(3)
O10_2 O 0.9454(5) 0.8016(4) 0.5631(4)
C23_2 C 0.9888(4) 0.7930(3) 0.4112(4)
C24_2 C 0.9261(4) 0.9046(3) 0.3242(3)
C25_2 C 0.8237(5) 0.9869(3) 0.2428(4)
C27_2 C 0.9869(4) 0.8366(4) 0.3339(4)
C28_2 C 0.9408(5) 0.9611(4) 0.3852(4)
H16_2 H 0.7846 0.9959 0.1942
H18_2 H 0.9810 0.9531 0.4333
H23_3 H 0.9715 0.5459 0.5671
O8_2 O 0.8316(3) 0.7038(2) 0.9648(2)
O9_2 O 0.6684(3) 0.7962(2) 0.9648(2)
C12_3 C 0.6118(5) 0.0313(4) 0.4360(5)
H6_3 H 0.6200 0.0762 0.4009
H7_3 H 0.6597 0.0310 0.4821
C17_3 C 0.5168(7) 0.0325(4) 0.4785(6)
H12_3 H 0.5167 0.0724 0.5222
H13_4 H 0.4715 0.0459 0.4329
N4_4 N 0.3756(4) 0.0335(3) 0.6212(3)
C36_4 C 0.3244(4) 0.0935(3) 0.6010(3)
C37_4 C 0.4202(5) 0.0485(4) 0.7009(4)
N5_4 N 0.3327(3) 0.1459(3) 0.6622(3)
H28_4 H 0.2875 0.0979 0.5500
C38_4 C 0.3922(4) 0.1169(4) 0.7253(4)
H29_4 H 0.4614 0.0174 0.7316
H30_4 H 0.4105 0.1411 0.7774
C3_4 C 0.6756(4) 0.9065(3) 0.3990(3)
C4_4 C 0.6078(4) 0.8831(4) 0.2747(4)
N2_4 N 0.6244(4) 0.9665(3) 0.3788(3)
H1_4 H 0.7125 0.9021 0.4500
H2_4 H 0.5895 0.8589 0.2226
C7_4 C 0.5798(5) 0.9515(4) 0.2991(4)
H3_4 H 0.5386 0.9826 0.2684
C32_3 C 0.4832(7) 0.9675(4) 0.5215(6)
C35_3 C 0.3882(5) 0.9687(4) 0.5640(5)
H22_3 H 0.4833 0.9276 0.4778
H23_4 H 0.5285 0.9541 0.5671
H26_3 H 0.3800 0.9238 0.5991
H27_3 H 0.3403 0.9690 0.5179
O4_3 O 0.9454(5) 0.6984(4) 0.0631(4)
O10_3 O 0.5546(5) 0.8016(4) 0.0631(4)
O1_3 O 0.8348(3) 0.7091(2) 0.7150(2)
C1_3 C 0.8359(4) 0.6424(3) 0.6884(3)
C2_3 C 0.9176(5) 0.7009(4) 0.9853(4)
O3_3 O 0.8079(4) 0.6257(2) 0.6120(3)
C5_3 C 0.8656(4) 0.5823(3) 0.7523(3)
C6_3 C 0.9888(4) 0.7070(3) 0.9112(4)
C8_3 C 0.9261(4) 0.5954(3) 0.8242(3)
C9_3 C 0.8237(5) 0.5131(3) 0.7428(4)
C11_3 C 0.9869(4) 0.6634(4) 0.8339(4)
C13_3 C 0.9408(5) 0.5389(4) 0.8852(4)
C14_3 C 0.8390(5) 0.4576(4) 0.8039(4)
H4_3 H 0.7846 0.5041 0.6942
H8_3 H 0.9810 0.5469 0.9333
C18_3 C 0.8966(6) 0.4709(4) 0.8761(4)
H9_3 H 0.8106 0.4113 0.7967
H14_3 H 0.9057 0.4340 0.9187
O5_3 O 0.6652(3) 0.7909(2) 0.7150(2)
C20_3 C 0.6641(4) 0.8576(3) 0.6884(3)
C21_3 C 0.5824(5) 0.7991(4) 0.9853(4)
O7_3 O 0.6921(4) 0.8743(2) 0.6120(3)
C22_3 C 0.6344(4) 0.9177(3) 0.7523(3)
C23_3 C 0.5112(4) 0.7930(3) 0.9112(4)
C24_3 C 0.5739(4) 0.9046(3) 0.8242(3)
C25_3 C 0.6763(5) 0.9869(3) 0.7428(4)
C26_3 C 0.4434(5) 0.7380(5) 0.9187(5)
C27_3 C 0.5131(4) 0.8366(4) 0.8339(4)
C28_3 C 0.5592(5) 0.9611(4) 0.8852(4)
H16_3 H 0.7154 0.9959 0.6942
H17_3 H 0.4390 0.7118 0.9720
C30_3 C 0.3836(6) 0.7210(5) 0.8520(7)
C31_3 C 0.4527(5) 0.8181(4) 0.7638(5)
H18_3 H 0.5190 0.9531 0.9333
H20_3 H 0.3394 0.6832 0.8593
C34_3 C 0.3885(7) 0.7611(6) 0.7705(7)
H21_3 H 0.4560 0.8452 0.7111
H25_3 H 0.3492 0.7491 0.7229
O1_4 O 0.3348(3) 0.2909(2) 0.7850(2)
C1_4 C 0.3359(4) 0.3576(3) 0.8116(3)
C2_4 C 0.4176(5) 0.2991(4) 0.5147(4)
O3_4 O 0.3079(4) 0.3743(2) 0.8880(3)
C5_4 C 0.3656(4) 0.4177(3) 0.7477(3)
O4_4 O 0.4454(5) 0.3016(4) 0.4369(4)
C6_4 C 0.4888(4) 0.2930(3) 0.5888(4)
C8_4 C 0.4261(4) 0.4046(3) 0.6758(3)
C9_4 C 0.3237(5) 0.4869(3) 0.7572(4)
C10_2 C 0.5566(5) 0.2380(5) 0.5813(5)
C11_4 C 0.4869(4) 0.3366(4) 0.6661(4)
C13_4 C 0.4408(5) 0.4611(4) 0.6148(4)
C14_4 C 0.3390(5) 0.5424(4) 0.6961(4)
H4_4 H 0.2846 0.4959 0.8058
H5_2 H 0.5610 0.2118 0.5280
C15_2 C 0.6164(6) 0.2210(5) 0.6480(7)
C16_2 C 0.5473(5) 0.3181(4) 0.7362(5)
H8_4 H 0.4810 0.4531 0.5667
C18_4 C 0.3966(6) 0.5291(4) 0.6239(4)
H9_4 H 0.3106 0.5887 0.7033
H10_2 H 0.6606 0.1832 0.6407
C19_2 C 0.6115(7) 0.2611(6) 0.7295(7)
H11_2 H 0.5440 0.3452 0.7889
H14_4 H 0.4057 0.5660 0.5813
H15_2 H 0.6508 0.2491 0.7771
O5_4 O 0.1652(3) 0.2091(2) 0.7850(2)
C20_4 C 0.1641(4) 0.1424(3) 0.8116(3)
C21_4 C 0.0824(5) 0.2009(4) 0.5147(4)
O7_4 O 0.1921(4) 0.1257(2) 0.8880(3)
C22_4 C 0.1344(4) 0.0823(3) 0.7477(3)
O10_4 O 0.0546(5) 0.1984(4) 0.4369(4)
C23_4 C 0.0112(4) 0.2070(3) 0.5888(4)
C24_4 C 0.0739(4) 0.0954(3) 0.6758(3)
C25_4 C 0.1763(5) 0.0131(3) 0.7572(4)
C27_4 C 0.0131(4) 0.1634(4) 0.6661(4)
C28_4 C 0.0592(5) 0.0389(4) 0.6148(4)
H16_4 H 0.2154 0.0041 0.8058
H18_4 H 0.0190 0.0469 0.5667
C29_2 C 0.1610(5) 0.9576(4) 0.6961(4)
C33_2 C 0.1034(6) 0.9709(4) 0.6239(4)
H19_2 H 0.1894 0.9113 0.7033
H24_2 H 0.0943 0.9340 0.5813
C26_4 C 0.9434(5) 0.2620(5) 0.5813(5)
H17_4 H 0.9390 0.2882 0.5280
C30_4 C 0.8836(6) 0.2790(5) 0.6480(7)
C31_4 C 0.9527(5) 0.1819(4) 0.7362(5)
H20_4 H 0.8394 0.3168 0.6407
C34_4 C 0.8885(7) 0.2389(6) 0.7295(7)
H21_4 H 0.9560 0.1548 0.7889
H25_4 H 0.8492 0.2509 0.7771
C29_3 C 0.3390(5) 0.9576(4) 0.1961(4)
C33_3 C 0.3966(6) 0.9709(4) 0.1239(4)
H19_3 H 0.3106 0.9113 0.2033
H24_3 H 0.4057 0.9340 0.0813
C12_4 C 0.1118(5) 0.9687(4) 0.0640(5)
H6_4 H 0.1200 0.9238 0.0991
H7_4 H 0.1597 0.9690 0.0179
C17_4 C 0.0168(7) 0.9675(4) 0.0215(6)
C10_3 C 0.9434(5) 0.2380(5) 0.0813(5)
H5_3 H 0.9390 0.2118 0.0280
C15_3 C 0.8836(6) 0.2210(5) 0.1480(7)
C16_3 C 0.9527(5) 0.3181(4) 0.2362(5)
H10_3 H 0.8394 0.1832 0.1407
C19_3 C 0.8885(7) 0.2611(6) 0.2295(7)
H11_3 H 0.9560 0.3452 0.2889
H15_3 H 0.8492 0.2491 0.2771
H22_4 H 0.9833 0.0724 0.0222
H12_4 H 0.0167 0.9276 0.9778
C10_4 C 0.0566(5) 0.7620(5) 0.9187(5)
H5_4 H 0.0610 0.7882 0.9720
C15_4 C 0.1164(6) 0.7790(5) 0.8520(7)
C16_4 C 0.0473(5) 0.6819(4) 0.7638(5)
H10_4 H 0.1606 0.8168 0.8593
C19_4 C 0.1115(7) 0.7389(6) 0.7705(7)
H11_4 H 0.0440 0.6548 0.7111
H15_4 H 0.1508 0.7509 0.7229
C32_4 C 0.9832(7) 0.0325(4) 0.9785(6)
C35_4 C 0.8882(5) 0.0313(4) 0.9360(5)
H26_4 H 0.8800 0.0762 0.9009
H27_4 H 0.8403 0.0310 0.9821
C29_4 C 0.6610(5) 0.0424(4) 0.8039(4)
C33_4 C 0.6034(6) 0.0291(4) 0.8761(4)
H19_4 H 0.6894 0.0887 0.7967
H24_4 H 0.5943 0.0660 0.9187
loop_
_geom_bond_atom_site_label_1
_geom_bond_atom_site_label_2
_geom_bond_site_symmetry_1
_geom_bond_site_symmetry_2
Cd1 O1 1_555 1_555
O1 C1 1_555 1_555
O2 Cd1 1_555 1_555
N1 Cd1 1_555 1_555
C1 O3 1_555 1_555
Cd2 O1 1_555 1_555
C2 O2 1_555 1_555
C3 N1 1_555 1_555
C4 N1 1_555 1_555
O3 Cd2 1_555 1_555
C5 C1 1_555 1_555
C6 C2 1_555 1_555
N2 C3 1_555 1_555
H1 C3 1_555 1_555
H2 C4 1_555 1_555
C7 C4 1_555 1_555
C8 C5 1_555 1_555
C9 C5 1_555 1_555
C11 C6 1_555 1_555
C12 N2 1_555 1_555
H3 C7 1_555 1_555
C13 C8 1_555 1_555
C14 C9 1_555 1_555
H4 C9 1_555 1_555
H6 C12 1_555 1_555
H7 C12 1_555 1_555
C17 C12 1_555 1_555
H8 C13 1_555 1_555
C18 C13 1_555 1_555
H9 C14 1_555 1_555
H13 C17 1_555 1_555
H14 C18 1_555 1_555
O5 Cd1 1_555 1_555
O6 Cd1 1_555 1_555
N3 Cd1 1_555 1_555
C20 O5 1_555 1_555
C21 O6 1_555 1_555
O7 Cd2 1_555 1_555
O8 Cd2 1_555 1_555
O9 Cd2 1_555 1_555
C22 C20 1_555 1_555
C23 C21 1_555 1_555
C24 C22 1_555 1_555
C25 C22 1_555 1_555
C26 C23 1_555 1_555
C27 C23 1_555 1_555
C28 C24 1_555 1_555
H16 C25 1_555 1_555
H17 C26 1_555 1_555
C30 C26 1_555 1_555
C31 C27 1_555 1_555
H18 C28 1_555 1_555
H20 C30 1_555 1_555
C34 C30 1_555 1_555
H21 C31 1_555 1_555
H25 C34 1_555 1_555
Cd2 O5 1_555 1_555
N2 C7 1_555 1_555
C8 C11 1_555 1_555
C14 C18 1_555 1_555
C20 O7 1_555 1_555
C24 C27 1_555 1_555
C31 C34 1_555 1_555
C35 C32 1_555 1_555
H23 C32 1_555 1_555
N4 C35 1_555 1_555
H26 C35 1_555 1_555
H27 C35 1_555 1_555
C36 N4 1_555 1_555
C37 N4 1_555 1_555
N5 C36 1_555 1_555
H28 C36 1_555 1_555
C38 C37 1_555 1_555
H29 C37 1_555 1_555
Cd4 N5 1_555 1_555
H30 C38 1_555 1_555
N5 C38 1_555 1_555
C3_2 N3 1_555 1_555
C4_2 N3 1_555 1_555
N2_2 C3_2 1_555 1_555
H1_2 C3_2 1_555 1_555
H2_2 C4_2 1_555 1_555
C7_2 C4_2 1_555 1_555
H3_2 C7_2 1_555 1_555
N2_2 C7_2 1_555 1_555
C36_2 N4_2 1_555 1_555
C37_2 N4_2 1_555 1_555
N5_2 C36_2 1_555 1_555
H28_2 C36_2 1_555 1_555
C38_2 C37_2 1_555 1_555
H29_2 C37_2 1_555 1_555
Cd4 N5_2 1_555 1_555
H30_2 C38_2 1_555 1_555
N5_2 C38_2 1_555 1_555
H17_2 C26_2 1_555 1_555
C30_2 C26_2 1_555 1_555
H20_2 C30_2 1_555 1_555
C34_2 C30_2 1_555 1_555
H21_2 C31_2 1_555 1_555
C35_2 C32_2 1_555 1_555
H22_2 C32_2 1_555 1_555
H25_2 C34_2 1_555 1_555
N4_3 C35_2 1_555 1_555
H26_2 C35_2 1_555 1_555
H27_2 C35_2 1_555 1_555
C36_3 N4_3 1_555 1_555
C37_3 N4_3 1_555 1_555
N5_3 C36_3 1_555 1_555
H28_3 C36_3 1_555 1_555
C38_3 C37_3 1_555 1_555
H29_3 C37_3 1_555 1_555
Cd4_2 N5_3 1_555 1_555
H30_3 C38_3 1_555 1_555
C31_2 C34_2 1_555 1_555
N5_3 C38_3 1_555 1_555
H19 C29 1_555 1_555
H24 C33 1_555 1_555
C29 C33 1_555 1_555
Cd1_2 O1_2 1_555 1_555
O1_2 C1_2 1_555 1_555
O2_2 Cd1_2 1_555 1_555
N1_2 Cd1_2 1_555 1_555
C1_2 O3_2 1_555 1_555
Cd2_2 O1_2 1_555 1_555
C2_2 O2_2 1_555 1_555
C3_3 N1_2 1_555 1_555
C4_3 N1_2 1_555 1_555
O3_2 Cd2_2 1_555 1_555
C5_2 C1_2 1_555 1_555
O4_2 C2_2 1_555 1_555
C6_2 C2_2 1_555 1_555
N2_3 C3_3 1_555 1_555
H1_3 C3_3 1_555 1_555
H2_3 C4_3 1_555 1_555
C7_3 C4_3 1_555 1_555
C8_2 C5_2 1_555 1_555
C9_2 C5_2 1_555 1_555
C10 C6_2 1_555 1_555
C11_2 C6_2 1_555 1_555
C12_2 N2_3 1_555 1_555
H3_3 C7_3 1_555 1_555
C13_2 C8_2 1_555 1_555
C14_2 C9_2 1_555 1_555
H4_2 C9_2 1_555 1_555
H5 C10 1_555 1_555
C15 C10 1_555 1_555
C16 C11_2 1_555 1_555
H6_2 C12_2 1_555 1_555
H7_2 C12_2 1_555 1_555
C17_2 C12_2 1_555 1_555
H8_2 C13_2 1_555 1_555
C18_2 C13_2 1_555 1_555
H9_2 C14_2 1_555 1_555
H10 C15 1_555 1_555
C19 C15 1_555 1_555
H11 C16 1_555 1_555
H12_2 C17_2 1_555 1_555
H14_2 C18_2 1_555 1_555
H15 C19 1_555 1_555
O5_2 Cd1_2 1_555 1_555
O6_2 Cd1_2 1_555 1_555
N3_2 Cd1_2 1_555 1_555
Cd3_2 O2_2 1_555 1_555
C20_2 O5_2 1_555 1_555
C21_2 O6_2 1_555 1_555
O7_2 Cd2_2 1_555 1_555
C22_2 C20_2 1_555 1_555
O10_2 C21_2 1_555 1_555
C23_2 C21_2 1_555 1_555
C24_2 C22_2 1_555 1_555
C25_2 C22_2 1_555 1_555
C27_2 C23_2 1_555 1_555
C28_2 C24_2 1_555 1_555
H16_2 C25_2 1_555 1_555
H18_2 C28_2 1_555 1_555
Cd2_2 O5_2 1_555 1_555
N2_3 C7_3 1_555 1_555
C8_2 C11_2 1_555 1_555
C14_2 C18_2 1_555 1_555
C16 C19 1_555 1_555
O6_2 Cd3_2 1_555 1_555
C20_2 O7_2 1_555 1_555
C24_2 C27_2 1_555 1_555
H6_3 C12_3 1_555 1_555
H7_3 C12_3 1_555 1_555
C17_3 C12_3 1_555 1_555
H12_3 C17_3 1_555 1_555
H13_4 C17_3 1_555 1_555
C36_4 N4_4 1_555 1_555
C37_4 N4_4 1_555 1_555
N5_4 C36_4 1_555 1_555
H28_4 C36_4 1_555 1_555
C38_4 C37_4 1_555 1_555
H29_4 C37_4 1_555 1_555
Cd4_2 N5_4 1_555 1_555
H30_4 C38_4 1_555 1_555
N5_4 C38_4 1_555 1_555
C3_4 N3_2 1_555 1_555
C4_4 N3_2 1_555 1_555
N2_4 C3_4 1_555 1_555
H1_4 C3_4 1_555 1_555
H2_4 C4_4 1_555 1_555
C7_4 C4_4 1_555 1_555
H3_4 C7_4 1_555 1_555
C35_3 C32_3 1_555 1_555
H22_3 C32_3 1_555 1_555
H23_4 C32_3 1_555 1_555
H26_3 C35_3 1_555 1_555
H27_3 C35_3 1_555 1_555
N2_4 C7_4 1_555 1_555
Cd4 O1_3 1_555 1_555
O1_3 C1_3 1_555 1_555
O8_2 Cd4 1_555 1_555
C1_3 O3_3 1_555 1_555
Cd3_2 O1_3 1_555 1_555
C2_3 O8_2 1_555 1_555
O3_3 Cd3_2 1_555 1_555
C5_3 C1_3 1_555 1_555
C6_3 C2_3 1_555 1_555
C8_3 C5_3 1_555 1_555
C9_3 C5_3 1_555 1_555
C11_3 C6_3 1_555 1_555
C13_3 C8_3 1_555 1_555
C14_3 C9_3 1_555 1_555
H4_3 C9_3 1_555 1_555
H8_3 C13_3 1_555 1_555
C18_3 C13_3 1_555 1_555
H9_3 C14_3 1_555 1_555
H14_3 C18_3 1_555 1_555
O5_3 Cd4 1_555 1_555
O9_2 Cd4 1_555 1_555
C20_3 O5_3 1_555 1_555
C21_3 O9_2 1_555 1_555
O7_3 Cd3_2 1_555 1_555
C22_3 C20_3 1_555 1_555
C23_3 C21_3 1_555 1_555
C24_3 C22_3 1_555 1_555
C25_3 C22_3 1_555 1_555
C26_3 C23_3 1_555 1_555
C27_3 C23_3 1_555 1_555
C28_3 C24_3 1_555 1_555
H16_3 C25_3 1_555 1_555
H17_3 C26_3 1_555 1_555
C30_3 C26_3 1_555 1_555
C31_3 C27_3 1_555 1_555
H18_3 C28_3 1_555 1_555
H20_3 C30_3 1_555 1_555
C34_3 C30_3 1_555 1_555
H21_3 C31_3 1_555 1_555
H25_3 C34_3 1_555 1_555
Cd3_2 O5_3 1_555 1_555
C8_3 C11_3 1_555 1_555
C14_3 C18_3 1_555 1_555
C20_3 O7_3 1_555 1_555
C24_3 C27_3 1_555 1_555
C31_3 C34_3 1_555 1_555
Cd4_2 O1_4 1_555 1_555
O1_4 C1_4 1_555 1_555
O8 Cd4_2 1_555 1_555
C1_4 O3_4 1_555 1_555
Cd3 O1_4 1_555 1_555
C2_4 O8 1_555 1_555
O3_4 Cd3 1_555 1_555
C5_4 C1_4 1_555 1_555
O4_4 C2_4 1_555 1_555
C6_4 C2_4 1_555 1_555
C8_4 C5_4 1_555 1_555
C9_4 C5_4 1_555 1_555
C10_2 C6_4 1_555 1_555
C11_4 C6_4 1_555 1_555
C13_4 C8_4 1_555 1_555
C14_4 C9_4 1_555 1_555
H4_4 C9_4 1_555 1_555
H5_2 C10_2 1_555 1_555
C15_2 C10_2 1_555 1_555
C16_2 C11_4 1_555 1_555
H8_4 C13_4 1_555 1_555
C18_4 C13_4 1_555 1_555
H9_4 C14_4 1_555 1_555
H10_2 C15_2 1_555 1_555
C19_2 C15_2 1_555 1_555
H11_2 C16_2 1_555 1_555
H14_4 C18_4 1_555 1_555
H15_2 C19_2 1_555 1_555
O5_4 Cd4_2 1_555 1_555
O9 Cd4_2 1_555 1_555
C20_4 O5_4 1_555 1_555
C21_4 O9 1_555 1_555
O7_4 Cd3 1_555 1_555
C22_4 C20_4 1_555 1_555
O10_4 C21_4 1_555 1_555
C23_4 C21_4 1_555 1_555
C24_4 C22_4 1_555 1_555
C25_4 C22_4 1_555 1_555
C27_4 C23_4 1_555 1_555
C28_4 C24_4 1_555 1_555
H16_4 C25_4 1_555 1_555
H18_4 C28_4 1_555 1_555
Cd3 O5_4 1_555 1_555
C8_4 C11_4 1_555 1_555
C14_4 C18_4 1_555 1_555
C16_2 C19_2 1_555 1_555
C20_4 O7_4 1_555 1_555
C24_4 C27_4 1_555 1_555
H19_2 C29_2 1_555 1_555
H24_2 C33_2 1_555 1_555
C29_2 C33_2 1_555 1_555
H17_4 C26_4 1_555 1_555
C30_4 C26_4 1_555 1_555
H20_4 C30_4 1_555 1_555
C34_4 C30_4 1_555 1_555
H21_4 C31_4 1_555 1_555
H25_4 C34_4 1_555 1_555
C31_4 C34_4 1_555 1_555
H19_3 C29_3 1_555 1_555
H24_3 C33_3 1_555 1_555
C29_3 C33_3 1_555 1_555
H6_4 C12_4 1_555 1_555
H7_4 C12_4 1_555 1_555
C17_4 C12_4 1_555 1_555
H5_3 C10_3 1_555 1_555
C15_3 C10_3 1_555 1_555
H10_3 C15_3 1_555 1_555
C19_3 C15_3 1_555 1_555
H11_3 C16_3 1_555 1_555
H15_3 C19_3 1_555 1_555
C16_3 C19_3 1_555 1_555
H5_4 C10_4 1_555 1_555
C15_4 C10_4 1_555 1_555
H10_4 C15_4 1_555 1_555
C19_4 C15_4 1_555 1_555
H11_4 C16_4 1_555 1_555
H15_4 C19_4 1_555 1_555
C16_4 C19_4 1_555 1_555
C35_4 C32_4 1_555 1_555
H26_4 C35_4 1_555 1_555
H27_4 C35_4 1_555 1_555
H19_4 C29_4 1_555 1_555
H24_4 C33_4 1_555 1_555
C29_4 C33_4 1_555 1_555

#END
