
###############################################################################
#
# This file contains modified crystal structure data generated from the
# MOF subset of the Cambridge Structural Database (CSD) v543 
# hosted by the Cambridge Crystallographic Data Centre (CCDC).
#
# This work is licensed under the Creative Commons
# Attribution-NonCommercial-ShareAlike 4.0 International License.
# To view a copy of this license, visit
# http://creativecommons.org/licenses/by-nc-sa/4.0/
# or send a letter to
# Creative Commons, PO Box 1866, Mountain View, CA 94042, USA.
#
# CIF created using the CSD Python API on 29 September 2022
# The structure has been converted into the P1 space group
# The structure has a 3D framework
# The original CSD entry NEZWOG is in the orthorhombic crystal system
# The framework has been calculated to contain at least 10.0% void space
# The void calculation uses a probe of radius 1.32A, grid spacing 0.4
# H atom positions have been added when not included in the experimental data
# Generated hydrogen atom positions removed from atoms on special positions
#
###############################################################################

data_NEZWOG
_chemical_formula_moiety         '(C32 H120 La14 O128 P16)n'
_symmetry_cell_setting           triclinic
_symmetry_space_group_name_H-M   'P 1'
_symmetry_Int_Tables_number      1
_space_group_name_Hall           'P 1'
loop_
_symmetry_equiv_pos_site_id
_symmetry_equiv_pos_as_xyz
1 x,y,z
_cell_length_a                   13.36042(33)
_cell_length_b                   26.2820(8)
_cell_length_c                   11.26679(32)
_cell_angle_alpha                90
_cell_angle_beta                 90
_cell_angle_gamma                90
_cell_volume                     3956.2
loop_
_atom_site_label
_atom_site_type_symbol
_atom_site_fract_x
_atom_site_fract_y
_atom_site_fract_z
_atom_site_U_iso_or_equiv
_atom_site_thermal_displace_type
La2 La 0.5113(4) 0.0 0.750 0.0100 Uiso
La3 La 0.34141(23) 0.21852(11) 0.47221(27) 0.0100 Uiso
P3 P 0.1837(7) 0.31108(33) 0.6399(8) 0.0100 Uiso
O17 O 0.2840(9) 0.2829(7) 0.6308(15) 0.0100 Uiso
O18 O 0.1883(16) 0.3643(4) 0.5830(14) 0.0100 Uiso
O19 O 0.1487(12) 0.3153(6) 0.7696(8) 0.0100 Uiso
C5 C 0.0894(11) 0.2746(7) 0.5610(11) 0.0100 Uiso
O20 O 0.0031(10) 0.2697(9) 0.6310(19) 0.0100 Uiso
C6 C 0.0938(13) 0.2765(15) 0.4273(11) 0.0100 Uiso
O21 O 0.1762(12) 0.2696(10) 0.3796(15) 0.0100 Uiso
O22 O 0.0174(13) 0.2897(10) 0.3735(15) 0.0100 Uiso
P4 P 0.2925(8) 0.08599(34) 0.7946(8) 0.0100 Uiso
O23 O 0.3748(12) 0.0520(6) 0.8483(17) 0.0100 Uiso
O24 O 0.2212(14) 0.0548(6) 0.7157(15) 0.0100 Uiso
O25 O 0.2338(13) 0.1140(6) 0.8930(12) 0.0100 Uiso
C7 C 0.3521(14) 0.1336(5) 0.7024(14) 0.0100 Uiso
O26 O 0.3018(17) 0.1803(5) 0.7061(20) 0.0100 Uiso
C8 C 0.3996(23) 0.1091(9) 0.5953(14) 0.0100 Uiso
O27 O 0.4544(18) 0.0719(8) 0.6138(19) 0.0100 Uiso
O28 O 0.3889(16) 0.1312(7) 0.4992(13) 0.0100 Uiso
O29 O 0.3860(19) 0.3104(9) 0.3659(21) 0.0100 Uiso
O30 O 0.1729(19) 0.1588(8) 0.4558(19) 0.0100 Uiso
O31 O 0.5784(18) 0.0969(10) 0.7911(23) 0.0100 Uiso
O32 O 0.6387(17) 0.0143(8) 0.5642(20) 0.0100 Uiso
La6 La 0.15859(23) 0.28148(11) 0.97221(27) 0.0100 Uiso
O34 O 0.3513(12) 0.1847(6) 0.2696(8) 0.0100 Uiso
O36 O 0.5031(10) 0.2303(9) 0.6310(19) 0.0100 Uiso
O38 O 0.5174(13) 0.2103(10) 0.3735(15) 0.0100 Uiso
H10 H 0.434373 0.329393 0.416044 . .
H11 H 0.415906 0.304171 0.286534 . .
H12 H 0.280394 0.135691 0.939421 . .
H14 H 0.681627 0.0162653 0.94544 . .
H17 H 0.120418 0.236703 0.574212 . .
H18 H 0.115182 0.180073 0.430883 . .
H19 H 0.184162 0.131521 0.396301 . .
H20 H 0.418097 0.142335 0.755337 . .
La1 La 0.34141(23) 0.78148(11) 0.02779(27) 0.0100 Uiso
C2 C 0.0938(13) 0.7235(15) 0.0727(11) 0.0100 Uiso
O5 O 0.1762(12) 0.7304(10) 0.1204(15) 0.0100 Uiso
O6 O 0.0174(13) 0.7103(10) 0.1265(15) 0.0100 Uiso
O12 O 0.3889(16) 0.8688(7) 0.0008(13) 0.0100 Uiso
O13 O 0.3860(19) 0.6896(9) 0.1341(21) 0.0100 Uiso
O14 O 0.1729(19) 0.8412(8) 0.0442(19) 0.0100 Uiso
O33 O 0.3513(12) 0.8153(6) 0.2304(8) 0.0100 Uiso
O37 O 0.5174(13) 0.7897(10) 0.1265(15) 0.0100 Uiso
H2 H 0.115182 0.819927 0.069117 . .
H3 H 0.184162 0.868479 0.103699 . .
H7 H 0.434373 0.670607 0.0839563 . .
H8 H 0.415906 0.695829 0.213466 . .
P1 P 0.1837(7) 0.68892(33) 0.8601(8) 0.0100 Uiso
O1 O 0.2840(9) 0.7171(7) 0.8692(15) 0.0100 Uiso
O2 O 0.1883(16) 0.6357(4) 0.9170(14) 0.0100 Uiso
O3 O 0.1487(12) 0.6847(6) 0.7304(8) 0.0100 Uiso
C1 C 0.0894(11) 0.7254(7) 0.9390(11) 0.0100 Uiso
O4 O 0.0031(10) 0.7303(9) 0.8690(19) 0.0100 Uiso
La2_2 La 0.5113(4) 1.0 0.750 0.0100 Uiso
P2 P 0.2925(8) 0.91401(34) 0.7054(8) 0.0100 Uiso
O7 O 0.3748(12) 0.9480(6) 0.6517(17) 0.0100 Uiso
O8 O 0.2212(14) 0.9452(6) 0.7843(15) 0.0100 Uiso
O9 O 0.2338(13) 0.8860(6) 0.6070(12) 0.0100 Uiso
C3 C 0.3521(14) 0.8664(5) 0.7976(14) 0.0100 Uiso
O10 O 0.3018(17) 0.8197(5) 0.7939(20) 0.0100 Uiso
C4 C 0.3996(23) 0.8909(9) 0.9047(14) 0.0100 Uiso
O11 O 0.4544(18) 0.9281(8) 0.8862(19) 0.0100 Uiso
O15 O 0.5784(18) 0.9031(10) 0.7089(23) 0.0100 Uiso
O16 O 0.6387(17) 0.9857(8) 0.9358(20) 0.0100 Uiso
La5 La 0.15859(23) 0.71852(11) 0.52779(27) 0.0100 Uiso
O35 O 0.5031(10) 0.7697(9) 0.8690(19) 0.0100 Uiso
H1 H 0.120418 0.763297 0.925788 . .
H6 H 0.280394 0.864309 0.560579 . .
H9 H 0.418097 0.857665 0.744663 . .
H13 H 0.681443 0.955525 0.92018 . .
La7 La 0.84141(23) 0.28148(11) 0.47221(27) 0.0100 Uiso
La4 La 0.84141(23) 0.71852(11) 0.02779(27) 0.0100 Uiso
P1_2 P 0.3163(7) 0.81108(33) 0.3601(8) 0.0100 Uiso
O1_2 O 0.2160(9) 0.7829(7) 0.3692(15) 0.0100 Uiso
O2_2 O 0.3117(16) 0.8643(4) 0.4170(14) 0.0100 Uiso
C1_2 C 0.4106(11) 0.7746(7) 0.4390(11) 0.0100 Uiso
O4_2 O 0.4969(10) 0.7697(9) 0.3690(19) 0.0100 Uiso
C2_2 C 0.4062(13) 0.7765(15) 0.5727(11) 0.0100 Uiso
O5_2 O 0.3238(12) 0.7696(10) 0.6204(15) 0.0100 Uiso
O6_2 O 0.4826(13) 0.7897(10) 0.6265(15) 0.0100 Uiso
P2_2 P 0.2075(8) 0.58599(34) 0.2054(8) 0.0100 Uiso
O7_2 O 0.1252(12) 0.5520(6) 0.1517(17) 0.0100 Uiso
O8_2 O 0.2788(14) 0.5548(6) 0.2843(15) 0.0100 Uiso
O9_2 O 0.2662(13) 0.6140(6) 0.1070(12) 0.0100 Uiso
C3_2 C 0.1479(14) 0.6336(5) 0.2976(14) 0.0100 Uiso
O10_2 O 0.1982(17) 0.6803(5) 0.2939(20) 0.0100 Uiso
C4_2 C 0.1004(23) 0.6091(9) 0.4047(14) 0.0100 Uiso
O11_2 O 0.0456(18) 0.5719(8) 0.3862(19) 0.0100 Uiso
O12_2 O 0.1111(16) 0.6312(7) 0.5008(13) 0.0100 Uiso
O13_2 O 0.1140(19) 0.8104(9) 0.6341(21) 0.0100 Uiso
O14_2 O 0.3271(19) 0.6588(8) 0.5442(19) 0.0100 Uiso
P3_2 P 0.3163(7) 0.18892(33) 0.1399(8) 0.0100 Uiso
O17_2 O 0.2160(9) 0.2171(7) 0.1308(15) 0.0100 Uiso
O18_2 O 0.3117(16) 0.1357(4) 0.0830(14) 0.0100 Uiso
C5_2 C 0.4106(11) 0.2254(7) 0.0610(11) 0.0100 Uiso
O20_2 O 0.4969(10) 0.2303(9) 0.1310(19) 0.0100 Uiso
P4_2 P 0.2075(8) 0.41401(34) 0.2946(8) 0.0100 Uiso
O23_2 O 0.1252(12) 0.4480(6) 0.3483(17) 0.0100 Uiso
O24_2 O 0.2788(14) 0.4452(6) 0.2157(15) 0.0100 Uiso
O25_2 O 0.2662(13) 0.3860(6) 0.3930(12) 0.0100 Uiso
C7_2 C 0.1479(14) 0.3664(5) 0.2024(14) 0.0100 Uiso
O26_2 O 0.1982(17) 0.3197(5) 0.2061(20) 0.0100 Uiso
C8_2 C 0.1004(23) 0.3909(9) 0.0953(14) 0.0100 Uiso
O27_2 O 0.0456(18) 0.4281(8) 0.1138(19) 0.0100 Uiso
La4_2 La 0.65859(23) 0.78148(11) 0.52779(27) 0.0100 Uiso
H1_2 H 0.379582 0.736703 0.425788 . .
H2_2 H 0.384818 0.680073 0.569117 . .
H3_2 H 0.315838 0.631521 0.603699 . .
H6_2 H 0.219606 0.635691 0.0605794 . .
H7_2 H 0.0656267 0.829393 0.583956 . .
H8_2 H 0.0840941 0.804171 0.713466 . .
H9_2 H 0.0819027 0.642335 0.244663 . .
H12_2 H 0.219606 0.364309 0.439421 . .
H17_2 H 0.379582 0.263297 0.0742124 . .
H20_2 H 0.0819027 0.357665 0.255337 . .
C6_2 C 0.4062(13) 0.2235(15) 0.9273(11) 0.0100 Uiso
O21_2 O 0.3238(12) 0.2304(10) 0.8796(15) 0.0100 Uiso
O22_2 O 0.4826(13) 0.2103(10) 0.8735(15) 0.0100 Uiso
O28_2 O 0.1111(16) 0.3688(7) 0.9992(13) 0.0100 Uiso
O29_2 O 0.1140(19) 0.1896(9) 0.8659(21) 0.0100 Uiso
O30_2 O 0.3271(19) 0.3412(8) 0.9558(19) 0.0100 Uiso
La7_2 La 0.65859(23) 0.21852(11) 0.97221(27) 0.0100 Uiso
H10_2 H 0.0656267 0.170607 0.916044 . .
H11_2 H 0.0840941 0.195829 0.786534 . .
H18_2 H 0.384818 0.319927 0.930883 . .
H19_2 H 0.315838 0.368479 0.896301 . .
La2_3 La 0.9887(4) 0.5 0.250 0.0100 Uiso
O15_2 O 0.9216(18) 0.5969(10) 0.2089(23) 0.0100 Uiso
O16_2 O 0.8613(17) 0.5143(8) 0.4358(20) 0.0100 Uiso
O31_2 O 0.9216(18) 0.4031(10) 0.2911(23) 0.0100 Uiso
O32_2 O 0.8613(17) 0.4857(8) 0.0642(20) 0.0100 Uiso
O35_2 O 0.9969(10) 0.7303(9) 0.3690(19) 0.0100 Uiso
O36_2 O 0.9969(10) 0.2697(9) 0.1310(19) 0.0100 Uiso
O37_2 O 0.9826(13) 0.7103(10) 0.6265(15) 0.0100 Uiso
O38_2 O 0.9826(13) 0.2897(10) 0.8735(15) 0.0100 Uiso
H21 H 0.896637 0.467321 0.999595 . .
H21_2 H 0.603363 0.967321 0.00040476 . .
H14_2 H 0.681627 0.983735 0.55456 . .
H22 H 0.697141 0.965341 0.909156 . .
P1_3 P 0.8163(7) 0.31108(33) 0.1399(8) 0.0100 Uiso
O1_3 O 0.7160(9) 0.2829(7) 0.1308(15) 0.0100 Uiso
O2_3 O 0.8117(16) 0.3643(4) 0.0830(14) 0.0100 Uiso
O3_2 O 0.8513(12) 0.3153(6) 0.2696(8) 0.0100 Uiso
C1_3 C 0.9106(11) 0.2746(7) 0.0610(11) 0.0100 Uiso
La2_4 La 0.4887(4) 0.0 0.250 0.0100 Uiso
P2_3 P 0.7075(8) 0.08599(34) 0.2946(8) 0.0100 Uiso
O7_3 O 0.6252(12) 0.0520(6) 0.3483(17) 0.0100 Uiso
O8_3 O 0.7788(14) 0.0548(6) 0.2157(15) 0.0100 Uiso
O9_3 O 0.7662(13) 0.1140(6) 0.3930(12) 0.0100 Uiso
C3_3 C 0.6479(14) 0.1336(5) 0.2024(14) 0.0100 Uiso
O10_3 O 0.6982(17) 0.1803(5) 0.2061(20) 0.0100 Uiso
C4_3 C 0.6004(23) 0.1091(9) 0.0953(14) 0.0100 Uiso
O11_3 O 0.5456(18) 0.0719(8) 0.1138(19) 0.0100 Uiso
O15_3 O 0.4216(18) 0.0969(10) 0.2911(23) 0.0100 Uiso
O16_3 O 0.3613(17) 0.0143(8) 0.0642(20) 0.0100 Uiso
H1_3 H 0.879582 0.236703 0.0742124 . .
H6_3 H 0.719606 0.135691 0.439421 . .
H9_3 H 0.581903 0.142335 0.255337 . .
H13_2 H 0.318557 0.0444755 0.07982 . .
C2_3 C 0.9062(13) 0.2765(15) 0.9273(11) 0.0100 Uiso
O5_3 O 0.8238(12) 0.2696(10) 0.8796(15) 0.0100 Uiso
O12_3 O 0.6111(16) 0.1312(7) 0.9992(13) 0.0100 Uiso
O13_3 O 0.6140(19) 0.3104(9) 0.8659(21) 0.0100 Uiso
O14_3 O 0.8271(19) 0.1588(8) 0.9558(19) 0.0100 Uiso
O33_2 O 0.6487(12) 0.1847(6) 0.7696(8) 0.0100 Uiso
H2_3 H 0.884818 0.180073 0.930883 . .
H3_3 H 0.815838 0.131521 0.896301 . .
H7_3 H 0.565627 0.329393 0.916044 . .
H8_3 H 0.584094 0.304171 0.786534 . .
La2_5 La 0.4887(4) 1.0 0.250 0.0100 Uiso
P3_3 P 0.8163(7) 0.68892(33) 0.3601(8) 0.0100 Uiso
O17_3 O 0.7160(9) 0.7171(7) 0.3692(15) 0.0100 Uiso
O18_3 O 0.8117(16) 0.6357(4) 0.4170(14) 0.0100 Uiso
O19_2 O 0.8513(12) 0.6847(6) 0.2304(8) 0.0100 Uiso
C5_3 C 0.9106(11) 0.7254(7) 0.4390(11) 0.0100 Uiso
C6_3 C 0.9062(13) 0.7235(15) 0.5727(11) 0.0100 Uiso
O21_3 O 0.8238(12) 0.7304(10) 0.6204(15) 0.0100 Uiso
P4_3 P 0.7075(8) 0.91401(34) 0.2054(8) 0.0100 Uiso
O23_3 O 0.6252(12) 0.9480(6) 0.1517(17) 0.0100 Uiso
O24_3 O 0.7788(14) 0.9452(6) 0.2843(15) 0.0100 Uiso
O25_3 O 0.7662(13) 0.8860(6) 0.1070(12) 0.0100 Uiso
C7_3 C 0.6479(14) 0.8664(5) 0.2976(14) 0.0100 Uiso
O26_3 O 0.6982(17) 0.8197(5) 0.2939(20) 0.0100 Uiso
C8_3 C 0.6004(23) 0.8909(9) 0.4047(14) 0.0100 Uiso
O27_3 O 0.5456(18) 0.9281(8) 0.3862(19) 0.0100 Uiso
O28_3 O 0.6111(16) 0.8688(7) 0.5008(13) 0.0100 Uiso
O29_3 O 0.6140(19) 0.6896(9) 0.6341(21) 0.0100 Uiso
O30_3 O 0.8271(19) 0.8412(8) 0.5442(19) 0.0100 Uiso
O31_3 O 0.4216(18) 0.9031(10) 0.2089(23) 0.0100 Uiso
O32_3 O 0.3613(17) 0.9857(8) 0.4358(20) 0.0100 Uiso
O34_2 O 0.6487(12) 0.8153(6) 0.7304(8) 0.0100 Uiso
H10_3 H 0.565627 0.670607 0.583956 . .
H11_3 H 0.584094 0.695829 0.713466 . .
H12_3 H 0.719606 0.864309 0.0605794 . .
H14_3 H 0.318373 0.983735 0.0545596 . .
H17_3 H 0.879582 0.763297 0.425788 . .
H18_3 H 0.884818 0.819927 0.569117 . .
H19_3 H 0.815838 0.868479 0.603699 . .
H20_3 H 0.581903 0.857665 0.244663 . .
H21_3 H 0.103363 0.532679 0.00040476 . .
La2_6 La 0.0113(4) 0.5 0.750 0.0100 Uiso
O15_4 O 0.0784(18) 0.4031(10) 0.7911(23) 0.0100 Uiso
O16_4 O 0.1387(17) 0.4857(8) 0.5642(20) 0.0100 Uiso
O31_4 O 0.0784(18) 0.5969(10) 0.7089(23) 0.0100 Uiso
O32_4 O 0.1387(17) 0.5143(8) 0.9358(20) 0.0100 Uiso
C6_4 C 0.5938(13) 0.7765(15) 0.0727(11) 0.0100 Uiso
O21_4 O 0.6762(12) 0.7696(10) 0.1204(15) 0.0100 Uiso
O28_4 O 0.8889(16) 0.6312(7) 0.0008(13) 0.0100 Uiso
O29_4 O 0.8860(19) 0.8104(9) 0.1341(21) 0.0100 Uiso
O30_4 O 0.6729(19) 0.6588(8) 0.0442(19) 0.0100 Uiso
H10_4 H 0.934373 0.829393 0.0839563 . .
H11_4 H 0.915906 0.804171 0.213466 . .
H18_4 H 0.615182 0.680073 0.069117 . .
H19_4 H 0.684162 0.631521 0.103699 . .
P1_4 P 0.6837(7) 0.18892(33) 0.6399(8) 0.0100 Uiso
O1_4 O 0.7840(9) 0.2171(7) 0.6308(15) 0.0100 Uiso
O2_4 O 0.6883(16) 0.1357(4) 0.5830(14) 0.0100 Uiso
C1_4 C 0.5894(11) 0.2254(7) 0.5610(11) 0.0100 Uiso
C2_4 C 0.5938(13) 0.2235(15) 0.4273(11) 0.0100 Uiso
O5_4 O 0.6762(12) 0.2304(10) 0.3796(15) 0.0100 Uiso
P2_4 P 0.7925(8) 0.41401(34) 0.7946(8) 0.0100 Uiso
O7_4 O 0.8748(12) 0.4480(6) 0.8483(17) 0.0100 Uiso
O8_4 O 0.7212(14) 0.4452(6) 0.7157(15) 0.0100 Uiso
O9_4 O 0.7338(13) 0.3860(6) 0.8930(12) 0.0100 Uiso
C3_4 C 0.8521(14) 0.3664(5) 0.7024(14) 0.0100 Uiso
O10_4 O 0.8018(17) 0.3197(5) 0.7061(20) 0.0100 Uiso
C4_4 C 0.8996(23) 0.3909(9) 0.5953(14) 0.0100 Uiso
O11_4 O 0.9544(18) 0.4281(8) 0.6138(19) 0.0100 Uiso
O12_4 O 0.8889(16) 0.3688(7) 0.4992(13) 0.0100 Uiso
O13_4 O 0.8860(19) 0.1896(9) 0.3659(21) 0.0100 Uiso
O14_4 O 0.6729(19) 0.3412(8) 0.4558(19) 0.0100 Uiso
P3_4 P 0.6837(7) 0.81108(33) 0.8601(8) 0.0100 Uiso
O17_4 O 0.7840(9) 0.7829(7) 0.8692(15) 0.0100 Uiso
O18_4 O 0.6883(16) 0.8643(4) 0.9170(14) 0.0100 Uiso
C5_4 C 0.5894(11) 0.7746(7) 0.9390(11) 0.0100 Uiso
P4_4 P 0.7925(8) 0.58599(34) 0.7054(8) 0.0100 Uiso
O23_4 O 0.8748(12) 0.5520(6) 0.6517(17) 0.0100 Uiso
O24_4 O 0.7212(14) 0.5548(6) 0.7843(15) 0.0100 Uiso
O25_4 O 0.7338(13) 0.6140(6) 0.6070(12) 0.0100 Uiso
C7_4 C 0.8521(14) 0.6336(5) 0.7976(14) 0.0100 Uiso
O26_4 O 0.8018(17) 0.6803(5) 0.7939(20) 0.0100 Uiso
C8_4 C 0.8996(23) 0.6091(9) 0.9047(14) 0.0100 Uiso
O27_4 O 0.9544(18) 0.5719(8) 0.8862(19) 0.0100 Uiso
H1_4 H 0.620418 0.263297 0.574212 . .
H2_4 H 0.615182 0.319927 0.430883 . .
H3_4 H 0.684162 0.368479 0.396301 . .
H6_4 H 0.780394 0.364309 0.939421 . .
H7_4 H 0.934373 0.170607 0.416044 . .
H8_4 H 0.915906 0.195829 0.286534 . .
H9_4 H 0.918097 0.357665 0.755337 . .
H12_4 H 0.780394 0.635691 0.560579 . .
H17_4 H 0.620418 0.736703 0.925788 . .
H20_4 H 0.918097 0.642335 0.744663 . .
H14_4 H 0.318373 0.0162653 0.44544 . .
H22_2 H 0.302859 0.0346586 0.0908444 . .
H21_4 H 0.396637 0.0326791 0.999595 . .
loop_
_geom_bond_atom_site_label_1
_geom_bond_atom_site_label_2
_geom_bond_site_symmetry_1
_geom_bond_site_symmetry_2
La3 O17 1_555 1_555
P3 O17 1_555 1_555
O18 P3 1_555 1_555
O19 P3 1_555 1_555
C5 P3 1_555 1_555
O20 C5 1_555 1_555
C6 C5 1_555 1_555
O21 La3 1_555 1_555
O22 C6 1_555 1_555
P4 O23 1_555 1_555
O23 La2 1_555 1_555
O24 P4 1_555 1_555
O25 P4 1_555 1_555
C7 P4 1_555 1_555
O26 La3 1_555 1_555
C8 C7 1_555 1_555
O27 La2 1_555 1_555
O28 La3 1_555 1_555
O29 La3 1_555 1_555
O30 La3 1_555 1_555
O31 La2 1_555 1_555
O32 La2 1_555 1_555
La6 O19 1_555 1_555
O34 La3 1_555 1_555
O36 La3 1_555 1_555
O38 La3 1_555 1_555
C6 O21 1_555 1_555
C7 O26 1_555 1_555
C8 O27 1_555 1_555
C8 O28 1_555 1_555
O29 H10 1_555 1_555
O29 H11 1_555 1_555
O25 H12 1_555 1_555
C5 H17 1_555 1_555
O30 H18 1_555 1_555
O30 H19 1_555 1_555
C7 H20 1_555 1_555
O5 La1 1_555 1_555
O6 C2 1_555 1_555
O12 La1 1_555 1_555
O13 La1 1_555 1_555
O14 La1 1_555 1_555
O33 La1 1_555 1_555
O37 La1 1_555 1_555
C2 O5 1_555 1_555
O14 H2 1_555 1_555
O14 H3 1_555 1_555
O13 H7 1_555 1_555
O13 H8 1_555 1_555
P1 O1 1_555 1_555
O2 P1 1_555 1_555
O3 P1 1_555 1_555
C1 P1 1_555 1_555
O4 C1 1_555 1_555
La2_2 O7 1_555 1_555
P2 O7 1_555 1_555
O8 P2 1_555 1_555
O9 P2 1_555 1_555
C3 P2 1_555 1_555
C4 C3 1_555 1_555
O11 La2_2 1_555 1_555
O15 La2_2 1_555 1_555
O16 La2_2 1_555 1_555
La5 O3 1_555 1_555
C3 O10 1_555 1_555
C4 O11 1_555 1_555
C1 H1 1_555 1_555
O9 H6 1_555 1_555
C3 H9 1_555 1_555
O16 H13 1_555 1_555
La5 O1_2 1_555 1_555
P1_2 O1_2 1_555 1_555
O2_2 P1_2 1_555 1_555
O33 P1_2 1_555 1_555
C1_2 P1_2 1_555 1_555
O4_2 C1_2 1_555 1_555
C2_2 C1_2 1_555 1_555
O5_2 La5 1_555 1_555
O6_2 C2_2 1_555 1_555
P2_2 O7_2 1_555 1_555
O8_2 P2_2 1_555 1_555
O9_2 P2_2 1_555 1_555
C3_2 P2_2 1_555 1_555
O10_2 La5 1_555 1_555
C4_2 C3_2 1_555 1_555
O12_2 La5 1_555 1_555
O13_2 La5 1_555 1_555
O14_2 La5 1_555 1_555
P3_2 O17_2 1_555 1_555
O18_2 P3_2 1_555 1_555
O34 P3_2 1_555 1_555
C5_2 P3_2 1_555 1_555
O20_2 C5_2 1_555 1_555
P4_2 O23_2 1_555 1_555
O24_2 P4_2 1_555 1_555
O25_2 P4_2 1_555 1_555
C7_2 P4_2 1_555 1_555
C8_2 C7_2 1_555 1_555
La4_2 O4_2 1_555 1_555
C2_2 O5_2 1_555 1_555
O6_2 La4_2 1_555 1_555
C3_2 O10_2 1_555 1_555
C4_2 O11_2 1_555 1_555
C4_2 O12_2 1_555 1_555
C7_2 O26_2 1_555 1_555
C8_2 O27_2 1_555 1_555
C1_2 H1_2 1_555 1_555
O14_2 H2_2 1_555 1_555
O14_2 H3_2 1_555 1_555
O9_2 H6_2 1_555 1_555
O13_2 H7_2 1_555 1_555
O13_2 H8_2 1_555 1_555
C3_2 H9_2 1_555 1_555
O25_2 H12_2 1_555 1_555
C5_2 H17_2 1_555 1_555
C7_2 H20_2 1_555 1_555
O21_2 La6 1_555 1_555
O22_2 C6_2 1_555 1_555
O28_2 La6 1_555 1_555
O29_2 La6 1_555 1_555
O30_2 La6 1_555 1_555
C6_2 O21_2 1_555 1_555
O22_2 La7_2 1_555 1_555
O29_2 H10_2 1_555 1_555
O29_2 H11_2 1_555 1_555
O30_2 H18_2 1_555 1_555
O30_2 H19_2 1_555 1_555
O15_2 La2_3 1_555 1_555
O16_2 La2_3 1_555 1_555
O31_2 La2_3 1_555 1_555
O32_2 La2_3 1_555 1_555
O16 H22 1_555 1_555
P1_3 O1_3 1_555 1_555
O2_3 P1_3 1_555 1_555
O3_2 P1_3 1_555 1_555
C1_3 P1_3 1_555 1_555
O36_2 C1_3 1_555 1_555
La2_4 O7_3 1_555 1_555
P2_3 O7_3 1_555 1_555
O8_3 P2_3 1_555 1_555
O9_3 P2_3 1_555 1_555
C3_3 P2_3 1_555 1_555
C4_3 C3_3 1_555 1_555
O11_3 La2_4 1_555 1_555
O15_3 La2_4 1_555 1_555
O16_3 La2_4 1_555 1_555
La7 O3_2 1_555 1_555
C3_3 O10_3 1_555 1_555
C4_3 O11_3 1_555 1_555
C1_3 H1_3 1_555 1_555
O9_3 H6_3 1_555 1_555
C3_3 H9_3 1_555 1_555
O16_3 H13_2 1_555 1_555
O5_3 La7_2 1_555 1_555
O38_2 C2_3 1_555 1_555
O12_3 La7_2 1_555 1_555
O13_3 La7_2 1_555 1_555
O14_3 La7_2 1_555 1_555
O33_2 La7_2 1_555 1_555
C2_3 O5_3 1_555 1_555
O14_3 H2_3 1_555 1_555
O14_3 H3_3 1_555 1_555
O13_3 H7_3 1_555 1_555
O13_3 H8_3 1_555 1_555
La4_2 O17_3 1_555 1_555
P3_3 O17_3 1_555 1_555
O18_3 P3_3 1_555 1_555
O19_2 P3_3 1_555 1_555
C5_3 P3_3 1_555 1_555
O35_2 C5_3 1_555 1_555
C6_3 C5_3 1_555 1_555
O21_3 La4_2 1_555 1_555
O37_2 C6_3 1_555 1_555
P4_3 O23_3 1_555 1_555
O23_3 La2_5 1_555 1_555
O24_3 P4_3 1_555 1_555
O25_3 P4_3 1_555 1_555
C7_3 P4_3 1_555 1_555
O26_3 La4_2 1_555 1_555
C8_3 C7_3 1_555 1_555
O27_3 La2_5 1_555 1_555
O28_3 La4_2 1_555 1_555
O29_3 La4_2 1_555 1_555
O30_3 La4_2 1_555 1_555
O31_3 La2_5 1_555 1_555
O32_3 La2_5 1_555 1_555
La4 O19_2 1_555 1_555
O34_2 La4_2 1_555 1_555
C6_3 O21_3 1_555 1_555
C7_3 O26_3 1_555 1_555
C8_3 O27_3 1_555 1_555
C8_3 O28_3 1_555 1_555
O29_3 H10_3 1_555 1_555
O29_3 H11_3 1_555 1_555
O25_3 H12_3 1_555 1_555
C5_3 H17_3 1_555 1_555
O30_3 H18_3 1_555 1_555
O30_3 H19_3 1_555 1_555
C7_3 H20_3 1_555 1_555
O15_4 La2_6 1_555 1_555
O16_4 La2_6 1_555 1_555
O31_4 La2_6 1_555 1_555
O32_4 La2_6 1_555 1_555
O21_4 La4 1_555 1_555
O37 C6_4 1_555 1_555
O28_4 La4 1_555 1_555
O29_4 La4 1_555 1_555
O30_4 La4 1_555 1_555
C6_4 O21_4 1_555 1_555
O29_4 H10_4 1_555 1_555
O29_4 H11_4 1_555 1_555
O30_4 H18_4 1_555 1_555
O30_4 H19_4 1_555 1_555
La7 O1_4 1_555 1_555
P1_4 O1_4 1_555 1_555
O2_4 P1_4 1_555 1_555
O33_2 P1_4 1_555 1_555
C1_4 P1_4 1_555 1_555
O36 C1_4 1_555 1_555
C2_4 C1_4 1_555 1_555
O5_4 La7 1_555 1_555
O38 C2_4 1_555 1_555
P2_4 O7_4 1_555 1_555
O8_4 P2_4 1_555 1_555
O9_4 P2_4 1_555 1_555
C3_4 P2_4 1_555 1_555
O10_4 La7 1_555 1_555
C4_4 C3_4 1_555 1_555
O12_4 La7 1_555 1_555
O13_4 La7 1_555 1_555
O14_4 La7 1_555 1_555
P3_4 O17_4 1_555 1_555
O18_4 P3_4 1_555 1_555
O34_2 P3_4 1_555 1_555
C5_4 P3_4 1_555 1_555
O35 C5_4 1_555 1_555
P4_4 O23_4 1_555 1_555
O24_4 P4_4 1_555 1_555
O25_4 P4_4 1_555 1_555
C7_4 P4_4 1_555 1_555
C8_4 C7_4 1_555 1_555
C2_4 O5_4 1_555 1_555
C3_4 O10_4 1_555 1_555
C4_4 O11_4 1_555 1_555
C4_4 O12_4 1_555 1_555
C7_4 O26_4 1_555 1_555
C8_4 O27_4 1_555 1_555
C1_4 H1_4 1_555 1_555
O14_4 H2_4 1_555 1_555
O14_4 H3_4 1_555 1_555
O9_4 H6_4 1_555 1_555
O13_4 H7_4 1_555 1_555
O13_4 H8_4 1_555 1_555
C3_4 H9_4 1_555 1_555
O25_4 H12_4 1_555 1_555
C5_4 H17_4 1_555 1_555
C7_4 H20_4 1_555 1_555
O16_3 H22_2 1_555 1_555

#END
