
###############################################################################
#
# This file contains modified crystal structure data generated from the
# MOF subset of the Cambridge Structural Database (CSD) v543 
# hosted by the Cambridge Crystallographic Data Centre (CCDC).
#
# This work is licensed under the Creative Commons
# Attribution-NonCommercial-ShareAlike 4.0 International License.
# To view a copy of this license, visit
# http://creativecommons.org/licenses/by-nc-sa/4.0/
# or send a letter to
# Creative Commons, PO Box 1866, Mountain View, CA 94042, USA.
#
# CIF created using the CSD Python API on 29 September 2022
# The structure has been converted into the P1 space group
# The structure has a 3D framework
# The original CSD entry NHBZZN10 is in the orthorhombic crystal system
# The original CSD entry NHBZZN10 is in a Sohncke space group
# The framework has been calculated to contain at least 10.0% void space
# The void calculation uses a probe of radius 1.32A, grid spacing 0.4
# H atom positions have been added when not included in the experimental data
#
###############################################################################

data_NHBZZN10
_chemical_formula_moiety         '(C56 H40 N8 O16 Zn4)n'
_symmetry_cell_setting           triclinic
_symmetry_space_group_name_H-M   'P 1'
_symmetry_Int_Tables_number      1
_space_group_name_Hall           'P 1'
loop_
_symmetry_equiv_pos_site_id
_symmetry_equiv_pos_as_xyz
1 x,y,z
_cell_length_a                   7.623(1)
_cell_length_b                   11.189(3)
_cell_length_c                   16.873(5)
_cell_angle_alpha                90
_cell_angle_beta                 90
_cell_angle_gamma                90
_cell_volume                     1439.16
loop_
_atom_site_label
_atom_site_type_symbol
_atom_site_fract_x
_atom_site_fract_y
_atom_site_fract_z
O3 O 0.17730 0.72360 0.60290
O4 O 0.08010 0.55540 0.54600
N2 N 0.14130 0.39110 0.91320
C8 C 0.12640 0.61570 0.60470
C9 C 0.12940 0.55840 0.68600
C10 C 0.19870 0.61800 0.75140
C11 C 0.20240 0.56910 0.82520
C12 C 0.13490 0.44460 0.83540
C13 C 0.06080 0.39000 0.77040
C14 C 0.05880 0.44220 0.69760
Zn3 Zn 0.10140 0.85820 0.53870
H2 H 0.253179 0.61931 0.875505
H3 H 0.00233601 0.394288 0.647547
H5 H 0.252096 0.707401 0.743097
H7 H 0.255225 0.371552 0.94151
H9 H 0.0017729 0.302019 0.777507
O5 O 0.98180 0.51170 0.06170
O6 O 0.86520 0.33130 0.07620
Zn1 Zn 0.89860 0.35820 0.96130
O1 O 0.51820 0.48830 0.56170
O2 O 0.63480 0.66870 0.57620
N1 N 0.70350 0.47950 0.93580
C1 C 0.58260 0.56620 0.60410
C2 C 0.60960 0.54550 0.69300
C3 C 0.55890 0.43560 0.72490
C4 C 0.58660 0.41540 0.80470
C5 C 0.66540 0.50440 0.85020
C6 C 0.71460 0.61260 0.81940
C7 C 0.68330 0.63490 0.73890
Zn2 Zn 0.60140 0.64180 0.46130
O7 O 0.82270 0.22360 0.89710
H1 H 0.716393 0.721084 0.712905
H4 H 0.498887 0.367376 0.687703
H6 H 0.635534 0.520964 0.979615
H8 H 0.547403 0.331105 0.831668
H10 H 0.77671 0.679855 0.856671
Zn1_2 Zn 0.39860 0.14180 0.03870
O1_2 O 0.01820 0.01170 0.43830
N1_2 N 0.20350 0.02050 0.06420
N2_2 N 0.64130 0.10890 0.08680
C3_2 C 0.05890 0.06440 0.27510
C4_2 C 0.08660 0.08460 0.19530
C12_2 C 0.63490 0.05540 0.16460
C13_2 C 0.56080 0.11000 0.22960
C14_2 C 0.55880 0.05780 0.30240
O7_2 O 0.32270 0.27640 0.10290
H3_2 H 0.502336 0.105712 0.352453
H7_2 H 0.755225 0.128448 0.0584897
H8_2 H 0.0474026 0.168895 0.168332
H9_2 H 0.501773 0.197981 0.222493
O6_2 O 0.36520 0.16870 0.92380
O2_2 O 0.13480 0.83130 0.42380
O3_2 O 0.67730 0.77640 0.39710
O4_2 O 0.58010 0.94460 0.45400
C1_2 C 0.08260 0.93380 0.39590
C2_2 C 0.10960 0.95450 0.30700
C5_2 C 0.16540 0.99560 0.14980
C6_2 C 0.21460 0.88740 0.18060
C7_2 C 0.18330 0.86510 0.26110
C8_2 C 0.62640 0.88430 0.39530
C9_2 C 0.62940 0.94160 0.31400
C10_2 C 0.69870 0.88200 0.24860
C11_2 C 0.70240 0.93090 0.17480
H1_2 H 0.216393 0.778916 0.287095
H2_2 H 0.753179 0.88069 0.124495
H5_2 H 0.752096 0.792599 0.256903
H6_2 H 0.135534 0.979036 0.0203851
H10_2 H 0.27671 0.820145 0.143329
O5_2 O 0.48180 0.98830 0.93830
C1_3 C 0.41740 0.06620 0.89590
C2_3 C 0.39040 0.04550 0.80700
C5_3 C 0.33460 0.00440 0.64980
C6_3 C 0.28540 0.11260 0.68060
C7_3 C 0.31670 0.13490 0.76110
H1_3 H 0.283607 0.221084 0.787095
H6_3 H 0.364466 0.0209643 0.520385
H10_3 H 0.22329 0.179855 0.643329
N1_3 N 0.29650 0.97950 0.56420
C3_3 C 0.44110 0.93560 0.77510
C4_3 C 0.41340 0.91540 0.69530
H4_2 H 0.501113 0.867376 0.812297
H8_3 H 0.452597 0.831105 0.668332
O4_3 O 0.91990 0.05540 0.95400
C8_3 C 0.87360 0.11570 0.89530
C9_3 C 0.87060 0.05840 0.81400
C10_3 C 0.80130 0.11800 0.74860
C11_3 C 0.79760 0.06910 0.67480
H2_3 H 0.746821 0.11931 0.624495
H5_3 H 0.747904 0.207401 0.756903
O4_4 O 0.41990 0.44460 0.04600
N1_4 N 0.79650 0.52050 0.43580
N2_3 N 0.35870 0.60890 0.41320
C1_4 C 0.91740 0.43380 0.10410
C2_4 C 0.89040 0.45450 0.19300
C3_4 C 0.94110 0.56440 0.22490
C4_4 C 0.91340 0.58460 0.30470
C5_4 C 0.83460 0.49560 0.35020
C6_4 C 0.78540 0.38740 0.31940
C7_4 C 0.81670 0.36510 0.23890
C8_4 C 0.37360 0.38430 0.10470
C9_4 C 0.37060 0.44160 0.18600
C10_4 C 0.30130 0.38200 0.25140
C11_4 C 0.29760 0.43090 0.32520
C12_3 C 0.36510 0.55540 0.33540
C13_3 C 0.43920 0.61000 0.27040
C14_3 C 0.44120 0.55780 0.19760
H1_4 H 0.783607 0.278916 0.212905
H2_4 H 0.246821 0.38069 0.375505
H3_3 H 0.497664 0.605712 0.147547
H5_4 H 0.247904 0.292599 0.243097
H6_4 H 0.864466 0.479036 0.479615
H7_3 H 0.244775 0.628448 0.44151
H8_4 H 0.952597 0.668895 0.331668
H9_3 H 0.498227 0.697981 0.277507
H10_4 H 0.72329 0.320145 0.356671
H4_3 H 0.998887 0.132624 0.312297
N2_4 N 0.85870 0.89110 0.58680
C12_4 C 0.86510 0.94460 0.66460
C13_4 C 0.93920 0.89000 0.72960
C14_4 C 0.94120 0.94220 0.80240
H3_4 H 0.997664 0.894288 0.852453
H7_4 H 0.744775 0.871552 0.55849
H9_4 H 0.998227 0.802019 0.722493
H4_4 H 0.00111276 0.632624 0.187703
loop_
_geom_bond_atom_site_label_1
_geom_bond_atom_site_label_2
_geom_bond_site_symmetry_1
_geom_bond_site_symmetry_2
O3 C8 1_555 1_555
O4 C8 1_555 1_555
C8 C9 1_555 1_555
C9 C10 1_555 1_555
C10 C11 1_555 1_555
C11 C12 1_555 1_555
C12 N2 1_555 1_555
C13 C12 1_555 1_555
C14 C9 1_555 1_555
Zn3 O3 1_555 1_555
C13 C14 1_555 1_555
C11 H2 1_555 1_555
C14 H3 1_555 1_555
C10 H5 1_555 1_555
N2 H7 1_555 1_555
C13 H9 1_555 1_555
Zn1 N1 1_555 1_555
O1 C1 1_555 1_555
O2 C1 1_555 1_555
N1 C5 1_555 1_555
C1 C2 1_555 1_555
C2 C3 1_555 1_555
C3 C4 1_555 1_555
C4 C5 1_555 1_555
C5 C6 1_555 1_555
C6 C7 1_555 1_555
C7 C2 1_555 1_555
Zn2 O1 1_555 1_555
O7 Zn1 1_555 1_555
O2 Zn2 1_555 1_555
C7 H1 1_555 1_555
C3 H4 1_555 1_555
N1 H6 1_555 1_555
C4 H8 1_555 1_555
C6 H10 1_555 1_555
Zn1_2 N1_2 1_555 1_555
N2_2 Zn1_2 1_555 1_555
C3_2 C4_2 1_555 1_555
C12_2 N2_2 1_555 1_555
C13_2 C12_2 1_555 1_555
O7_2 Zn1_2 1_555 1_555
C13_2 C14_2 1_555 1_555
C14_2 H3_2 1_555 1_555
N2_2 H7_2 1_555 1_555
C4_2 H8_2 1_555 1_555
C13_2 H9_2 1_555 1_555
O2_2 C1_2 1_555 1_555
O3_2 C8_2 1_555 1_555
O4_2 C8_2 1_555 1_555
C1_2 C2_2 1_555 1_555
C5_2 C6_2 1_555 1_555
C6_2 C7_2 1_555 1_555
C7_2 C2_2 1_555 1_555
C8_2 C9_2 1_555 1_555
C9_2 C10_2 1_555 1_555
C10_2 C11_2 1_555 1_555
Zn2 O3_2 1_555 1_555
O2_2 Zn3 1_555 1_555
C7_2 H1_2 1_555 1_555
C11_2 H2_2 1_555 1_555
C10_2 H5_2 1_555 1_555
C6_2 H10_2 1_555 1_555
O6_2 C1_3 1_555 1_555
C1_3 C2_3 1_555 1_555
C5_3 C6_3 1_555 1_555
C6_3 C7_3 1_555 1_555
C7_3 C2_3 1_555 1_555
C7_3 H1_3 1_555 1_555
C6_3 H10_3 1_555 1_555
Zn3 N1_3 1_555 1_555
C3_3 C4_3 1_555 1_555
C3_3 H4_2 1_555 1_555
C4_3 H8_3 1_555 1_555
O7 C8_3 1_555 1_555
O4_3 C8_3 1_555 1_555
C8_3 C9_3 1_555 1_555
C9_3 C10_3 1_555 1_555
C10_3 C11_3 1_555 1_555
C11_3 H2_3 1_555 1_555
C10_3 H5_3 1_555 1_555
Zn2 N1_4 1_555 1_555
O5 C1_4 1_555 1_555
O6 C1_4 1_555 1_555
O7_2 C8_4 1_555 1_555
O4_4 C8_4 1_555 1_555
N1_4 C5_4 1_555 1_555
N2_3 Zn2 1_555 1_555
C1_4 C2_4 1_555 1_555
C2_4 C3_4 1_555 1_555
C3_4 C4_4 1_555 1_555
C4_4 C5_4 1_555 1_555
C5_4 C6_4 1_555 1_555
C6_4 C7_4 1_555 1_555
C7_4 C2_4 1_555 1_555
C8_4 C9_4 1_555 1_555
C9_4 C10_4 1_555 1_555
C10_4 C11_4 1_555 1_555
C11_4 C12_3 1_555 1_555
C12_3 N2_3 1_555 1_555
C13_3 C12_3 1_555 1_555
C14_3 C9_4 1_555 1_555
C13_3 C14_3 1_555 1_555
C7_4 H1_4 1_555 1_555
C11_4 H2_4 1_555 1_555
C14_3 H3_3 1_555 1_555
C10_4 H5_4 1_555 1_555
N1_4 H6_4 1_555 1_555
N2_3 H7_3 1_555 1_555
C4_4 H8_4 1_555 1_555
C13_3 H9_3 1_555 1_555
C6_4 H10_4 1_555 1_555
C12_4 N2_4 1_555 1_555
C13_4 C12_4 1_555 1_555
C13_4 C14_4 1_555 1_555
C14_4 H3_4 1_555 1_555
N2_4 H7_4 1_555 1_555
C13_4 H9_4 1_555 1_555

#END
