
###############################################################################
#
# This file contains modified crystal structure data generated from the
# MOF subset of the Cambridge Structural Database (CSD) v543 
# hosted by the Cambridge Crystallographic Data Centre (CCDC).
#
# This work is licensed under the Creative Commons
# Attribution-NonCommercial-ShareAlike 4.0 International License.
# To view a copy of this license, visit
# http://creativecommons.org/licenses/by-nc-sa/4.0/
# or send a letter to
# Creative Commons, PO Box 1866, Mountain View, CA 94042, USA.
#
# CIF created using the CSD Python API on 29 September 2022
# The structure has been converted into the P1 space group
# The structure has a 3D framework
# The original CSD entry NIBHUC is in the rhombohedral crystal system
# The framework has been calculated to contain at least 10.0% void space
# The void calculation uses a probe of radius 1.32A, grid spacing 0.4
# H atom positions have been added when not included in the experimental data
# Generated hydrogen atom positions removed from atoms on special positions
#
###############################################################################

data_NIBHUC
_chemical_formula_moiety         '(C1296 H1350 Cu68 N344 O360)n'
_symmetry_cell_setting           triclinic
_symmetry_space_group_name_H-M   'P 1'
_symmetry_Int_Tables_number      1
_space_group_name_Hall           'P 1'
loop_
_symmetry_equiv_pos_site_id
_symmetry_equiv_pos_as_xyz
1 x,y,z
_cell_length_a                   37.291(2)
_cell_length_b                   37.291(2)
_cell_length_c                   92.159(3)
_cell_angle_alpha                90
_cell_angle_beta                 90
_cell_angle_gamma                120
_cell_volume                     110988
loop_
_atom_site_label
_atom_site_type_symbol
_atom_site_fract_x
_atom_site_fract_y
_atom_site_fract_z
Cu9 Cu 0.00004(16) 0.53532(21) 0.90801(4)
Cu24 Cu 0.00004(16) 0.46472(14) 0.90801(4)
O73 O 0.0540(8) 0.5582(11) 0.9112(2)
O78 O 0.0055(7) 0.5342(9) 0.8865(3)
H114 H 0.0250813 0.623802 0.914729
Cu1 Cu 0.31000(16) 0.15500(8) 0.06333(6)
Cu2 Cu 0.35841(14) 0.17921(7) 0.08628(5)
O1 O 0.2788(6) 0.1763(6) 0.0734(2)
O2 O 0.3197(6) 0.1968(5) 0.09384(19)
O3 O 0.3876(5) 0.1573(5) 0.0753(2)
O4 O 0.3469(7) 0.1366(6) 0.0559(2)
O5 O 0.2701(7) 0.1350(3) 0.0440(2)
O6 O 0.4031(6) 0.2016(3) 0.1042(2)
O9 O 0.1953(6) 0.3278(7) 0.2198(3)
C1 C 0.2868(10) 0.1898(6) 0.0851(4)
C2 C 0.2631(12) 0.2026(11) 0.0937(5)
C3 C 0.2285(11) 0.1988(10) 0.0867(3)
H1 H 0.2227 0.1891 0.0772
C4 C 0.2007(10) 0.2105(11) 0.0944(4)
H2 H 0.1771 0.2063 0.0895
C5 C 0.2066(14) 0.2266(11) 0.1079(5)
C6 C 0.2420(11) 0.2303(10) 0.1137(3)
H3 H 0.2499 0.2428 0.1227
C7 C 0.2681(10) 0.2172(10) 0.1073(4)
H4 H 0.2897 0.2187 0.1129
C8 C 0.1788(17) 0.2364(11) 0.1126(6)
N1 N 0.1449(13) 0.2298(7) 0.1066(3)
C9 C 0.1178(6) 0.2357(12) 0.1141(9)
N2 N 0.1238(6) 0.2476(13) 0.1283(6)
C10 C 0.1621(13) 0.2534(10) 0.1333(5)
N3 N 0.1920(9) 0.2510(10) 0.1260(4)
C11 C 0.3773(11) 0.1419(6) 0.0633(4)
C12 C 0.4061(11) 0.1258(9) 0.0562(4)
C13 C 0.3980(10) 0.1118(10) 0.0421(4)
H5 H 0.3768 0.1120 0.0369
C14 C 0.4223(10) 0.0972(9) 0.0361(3)
H6 H 0.4173 0.0868 0.0267
C15 C 0.4530(12) 0.0985(10) 0.0439(5)
C16 C 0.4661(10) 0.1188(10) 0.0581(4)
H7 H 0.4903 0.1233 0.0626
C17 C 0.4410(10) 0.1302(9) 0.0639(3)
H8 H 0.4463 0.1413 0.0732
C18 C 0.4787(14) 0.0880(9) 0.0362(6)
N4 N 0.4749(9) 0.0747(7) 0.0220(4)
C19 C 0.5041(14) 0.0689(7) 0.0171(5)
N5 N 0.5371(7) 0.0743(14) 0.0226(7)
C20 C 0.5426(8) 0.0851(16) 0.0371(9)
N6 N 0.5157(12) 0.0941(6) 0.0434(2)
N7 N 0.4958(7) 0.0546(7) 0.0029(3)
C34 C 0.1554(8) 0.3108(16) 0.2188(7)
C35 C 0.1578(7) 0.3156(14) 0.1999(7)
C36 C 0.1851(11) 0.3072(9) 0.1918(4)
H13 H 0.2097 0.3129 0.1963
C37 C 0.1785(10) 0.2895(10) 0.1760(4)
H14 H 0.1974 0.2846 0.1711
C38 C 0.1411(8) 0.2821(15) 0.1702(7)
C39 C 0.1383(9) 0.2765(19) 0.1562(7)
N10 N 0.1671(9) 0.2708(10) 0.1487(3)
O14 O 0.1325(9) 0.3278(7) 0.2198(3)
C50 C 0.0098(15) 0.2105(11) 0.0944(4)
H18 H 0.0292 0.2063 0.0895
C51 C 0.0200(18) 0.2266(11) 0.1079(5)
C54 C 0.0576(20) 0.2364(11) 0.1126(6)
N13 N 0.0849(15) 0.2298(7) 0.1066(3)
C55 C 0.0913(16) 0.2534(10) 0.1333(5)
N14 N 0.0590(13) 0.2510(10) 0.1260(4)
C56 C 0.1221(14) 0.3072(9) 0.1918(4)
H21 H 0.1032 0.3129 0.1963
C57 C 0.1110(14) 0.2895(10) 0.1760(4)
H22 H 0.0872 0.2846 0.1711
N15 N 0.1037(13) 0.2708(10) 0.1487(3)
O15 O 0.7697(7) 0.1573(5) 0.0753(2)
O16 O 0.7897(9) 0.1366(6) 0.0559(2)
C58 C 0.7646(13) 0.1419(6) 0.0633(4)
C59 C 0.7197(14) 0.1258(9) 0.0562(4)
C60 C 0.7138(14) 0.1118(10) 0.0421(4)
H23 H 0.7352 0.1120 0.0369
C61 C 0.6749(13) 0.0972(9) 0.0361(3)
H24 H 0.6695 0.0868 0.0267
C62 C 0.6455(16) 0.0985(10) 0.0439(5)
C63 C 0.6527(14) 0.1188(10) 0.0581(4)
H25 H 0.6330 0.1233 0.0626
C64 C 0.6892(13) 0.1302(9) 0.0639(3)
H26 H 0.6950 0.1413 0.0732
C65 C 0.6093(17) 0.0880(9) 0.0362(6)
N16 N 0.5998(11) 0.0747(7) 0.0220(4)
C66 C 0.5648(16) 0.0689(7) 0.0171(5)
N17 N 0.5784(13) 0.0941(6) 0.0434(2)
N18 N 0.5588(10) 0.0546(7) 0.0029(3)
Cu7 Cu 0.84500(8) 0.15500(18) 0.06333(6)
Cu8 Cu 0.82079(7) 0.17920(16) 0.08628(5)
O43 O 0.8427(5) 0.2303(7) 0.0753(2)
O44 O 0.8634(6) 0.2103(9) 0.0559(2)
O45 O 0.8650(3) 0.1351(8) 0.0440(2)
O46 O 0.7984(3) 0.2015(7) 0.1042(2)
C163 C 0.8581(6) 0.2354(13) 0.0633(4)
C164 C 0.8742(9) 0.2803(14) 0.0562(4)
C165 C 0.8882(10) 0.2862(14) 0.0421(4)
H73 H 0.8880 0.2648 0.0369
C166 C 0.9028(9) 0.3251(13) 0.0361(3)
H74 H 0.9132 0.3305 0.0267
C167 C 0.9015(10) 0.3545(16) 0.0439(5)
C168 C 0.8812(10) 0.3473(14) 0.0581(4)
H75 H 0.8767 0.3670 0.0626
C169 C 0.8698(9) 0.3108(13) 0.0639(3)
H76 H 0.8587 0.3050 0.0732
C170 C 0.9120(9) 0.3907(17) 0.0362(6)
N43 N 0.9253(7) 0.4002(11) 0.0220(4)
C171 C 0.9311(7) 0.4352(16) 0.0171(5)
N44 N 0.9257(14) 0.4628(16) 0.0226(7)
C172 C 0.9149(16) 0.4575(18) 0.0371(9)
N45 N 0.9059(6) 0.4216(13) 0.0434(2)
N46 N 0.9454(7) 0.4412(10) 0.0029(3)
O49 O 0.8427(5) 0.6124(5) 0.0753(2)
O50 O 0.8634(6) 0.6531(7) 0.0559(2)
C179 C 0.8581(6) 0.6227(11) 0.0633(4)
C180 C 0.8742(9) 0.5939(11) 0.0562(4)
C181 C 0.8882(10) 0.6020(10) 0.0421(4)
H79 H 0.8880 0.6232 0.0369
C182 C 0.9028(9) 0.5777(10) 0.0361(3)
H80 H 0.9132 0.5827 0.0267
C183 C 0.9015(10) 0.5470(12) 0.0439(5)
C184 C 0.8812(10) 0.5339(10) 0.0581(4)
H81 H 0.8767 0.5097 0.0626
C185 C 0.8698(9) 0.5590(10) 0.0639(3)
H82 H 0.8587 0.5537 0.0732
C186 C 0.9120(9) 0.5213(14) 0.0362(6)
N47 N 0.9253(7) 0.5251(9) 0.0220(4)
C187 C 0.9311(7) 0.4959(14) 0.0171(5)
N48 N 0.9059(6) 0.4843(12) 0.0434(2)
N49 N 0.9454(7) 0.5042(7) 0.0029(3)
O52 O 0.2788(6) 0.1025(8) 0.0734(2)
O53 O 0.3197(6) 0.1229(8) 0.09384(19)
C190 C 0.2868(10) 0.0970(12) 0.0851(4)
C191 C 0.2631(12) 0.0605(16) 0.0937(5)
C192 C 0.2285(11) 0.0297(15) 0.0867(3)
H85 H 0.2227 0.0336 0.0772
C195 C 0.2420(11) 0.0117(15) 0.1137(3)
H87 H 0.2499 0.0071 0.1227
C196 C 0.2681(10) 0.0509(14) 0.1073(4)
H88 H 0.2897 0.0710 0.1129
Cu11 Cu 0.20195(14) 0.33329(16) 0.24134(4)
O59 O 0.2703(6) 0.3366(6) 0.2463(2)
Cu12 Cu 0.13135(21) 0.33329(16) 0.24134(4)
O60 O 0.0664(8) 0.3366(6) 0.2463(2)
Cu15 Cu 0.84500(18) 0.69000(16) 0.06333(6)
Cu18 Cu 0.82080(16) 0.64159(14) 0.08628(5)
O61 O 0.8237(6) 0.1025(8) 0.0734(2)
O62 O 0.8975(8) 0.1763(6) 0.0734(2)
O63 O 0.8032(5) 0.1229(8) 0.09384(19)
O64 O 0.8771(8) 0.1968(5) 0.09384(19)
O66 O 0.3876(5) 0.2303(7) 0.0753(2)
O69 O 0.3469(7) 0.2103(9) 0.0559(2)
O71 O 0.2002(6) 0.3417(7) 0.2625(2)
O72 O 0.1416(9) 0.3417(7) 0.2625(2)
O74 O 0.1709(8) 0.2793(8) 0.2445(2)
O75 O 0.1085(11) 0.2793(8) 0.2445(2)
O81 O 0.2247(7) 0.3920(7) 0.2387(2)
O82 O 0.1674(10) 0.3920(7) 0.2387(2)
O7 O 0.5335(6) 0.0084(7) 0.9292(2)
O10 O 0.5580(7) 0.0587(7) 0.9054(2)
O11 O 0.6036(6) 0.0033(6) 0.9130(2)
C21 C 0.5241(7) 0.0482(13) 0.9968(7)
C22 C 0.5199(6) 0.0399(12) 0.9799(7)
C23 C 0.4851(9) 0.0361(7) 0.9731(3)
H9 H 0.4655 0.0396 0.9781
C24 C 0.4812(9) 0.0271(7) 0.9587(3)
H10 H 0.4585 0.0236 0.9533
C25 C 0.5119(6) 0.0237(12) 0.9528(6)
C26 C 0.5044(7) 0.0088(15) 0.9354(6)
C40 C 0.5410(11) 0.082(2) 0.9038(7)
C41 C 0.5626(12) 0.125(2) 0.9018(5)
C42 C 0.6031(10) 0.1395(11) 0.9024(2)
H15 H 0.6159 0.1236 0.9032
C43 C 0.6221(13) 0.1810(11) 0.9015(2)
H16 H 0.6509 0.1948 0.9015
C44 C 0.6035(11) 0.207(2) 0.9004(4)
C45 C 0.623(3) 0.246(5) 0.8984(7)
N11 N 0.6613(16) 0.2688(14) 0.8992(3)
C46 C 0.6888(9) 0.3112(9) 0.8987(5)
N12 N 0.6667 0.3333 0.8983(4)
O17 O 0.4749(9) 0.0084(7) 0.9292(2)
C67 C 0.5510(11) 0.0361(7) 0.9731(3)
H27 H 0.5741 0.0396 0.9781
C68 C 0.5459(11) 0.0271(7) 0.9587(3)
H28 H 0.5651 0.0236 0.9533
O23 O 0.9413(7) 0.4993(10) 0.9054(2)
C89 C 0.918(2) 0.4590(23) 0.9038(7)
C90 C 0.875(2) 0.4376(23) 0.9018(5)
C91 C 0.8605(11) 0.4636(15) 0.9024(2)
H39 H 0.8764 0.4923 0.9032
C92 C 0.8190(11) 0.4411(17) 0.9015(2)
H40 H 0.8052 0.4561 0.9015
C93 C 0.793(2) 0.3965(23) 0.9004(4)
C94 C 0.754(5) 0.377(6) 0.8984(7)
N24 N 0.7312(14) 0.3925(21) 0.8992(3)
C95 C 0.6888(9) 0.3776(13) 0.8987(5)
O24 O 0.5007(10) 0.4420(7) 0.9054(2)
C96 C 0.5410(23) 0.4590(11) 0.9038(7)
C97 C 0.5624(23) 0.4374(12) 0.9018(5)
C98 C 0.5364(15) 0.3969(10) 0.9024(2)
H41 H 0.5077 0.3841 0.9032
C99 C 0.5589(17) 0.3779(13) 0.9015(2)
H42 H 0.5439 0.3491 0.9015
C100 C 0.6035(23) 0.3965(11) 0.9004(4)
C101 C 0.623(6) 0.377(3) 0.8984(7)
N25 N 0.6075(21) 0.3387(16) 0.8992(3)
C102 C 0.6224(13) 0.3112(9) 0.8987(5)
O25 O 0.9413(7) 0.4420(7) 0.9054(2)
C103 C 0.8605(11) 0.3969(10) 0.9024(2)
H43 H 0.8764 0.3841 0.9032
C104 C 0.8190(11) 0.3779(13) 0.9015(2)
H44 H 0.8052 0.3491 0.9015
N26 N 0.7312(14) 0.3387(16) 0.8992(3)
O26 O 0.5580(7) 0.4993(10) 0.9054(2)
C105 C 0.6031(10) 0.4636(15) 0.9024(2)
H45 H 0.6159 0.4923 0.9032
C106 C 0.6221(13) 0.4411(17) 0.9015(2)
H46 H 0.6509 0.4561 0.9015
N27 N 0.6613(16) 0.3925(21) 0.8992(3)
O27 O 0.5007(10) 0.0587(7) 0.9054(2)
C107 C 0.5364(15) 0.1395(11) 0.9024(2)
H47 H 0.5077 0.1236 0.9032
C108 C 0.5589(17) 0.1810(11) 0.9015(2)
H48 H 0.5439 0.1948 0.9015
N28 N 0.6075(21) 0.2688(14) 0.8992(3)
O47 O 0.9916(7) 0.5251(9) 0.9292(2)
O48 O 0.9967(6) 0.6003(8) 0.9130(2)
C173 C 0.9518(13) 0.4759(15) 0.9968(7)
C174 C 0.9601(12) 0.4800(13) 0.9799(7)
C175 C 0.9639(7) 0.4490(11) 0.9731(3)
H77 H 0.9604 0.4259 0.9781
C176 C 0.9729(7) 0.4541(11) 0.9587(3)
H78 H 0.9764 0.4349 0.9533
C177 C 0.9763(12) 0.4882(13) 0.9528(6)
C178 C 0.9912(15) 0.4956(17) 0.9354(6)
O51 O 0.9916(7) 0.4665(6) 0.9292(2)
C188 C 0.9639(7) 0.5149(9) 0.9731(3)
H83 H 0.9604 0.5345 0.9781
C189 C 0.9729(7) 0.5188(9) 0.9587(3)
H84 H 0.9764 0.5415 0.9533
O58 O 0.3997(8) 0.0033(6) 0.9130(2)
Cu20 Cu 0.46468(21) 0.46472(14) 0.90801(4)
Cu27 Cu 0.53528(14) 0.53532(21) 0.90801(4)
O54 O 0.1953(6) 0.8675(9) 0.2198(3)
C193 C 0.2007(10) 0.9902(15) 0.0944(4)
H86 H 0.1771 0.9708 0.0895
C194 C 0.2066(14) 0.9800(18) 0.1079(5)
C197 C 0.1788(17) 0.9424(20) 0.1126(6)
N50 N 0.1449(13) 0.9151(15) 0.1066(3)
C198 C 0.1179(13) 0.8822(6) 0.1141(9)
N51 N 0.1238(14) 0.8762(6) 0.1283(6)
C199 C 0.1621(13) 0.9087(16) 0.1333(5)
N52 N 0.1920(9) 0.9410(13) 0.1260(4)
C200 C 0.1554(18) 0.8446(8) 0.2188(7)
C201 C 0.1578(16) 0.8422(7) 0.1999(7)
C202 C 0.1851(11) 0.8779(14) 0.1918(4)
H89 H 0.2097 0.8968 0.1963
C203 C 0.1785(10) 0.8890(14) 0.1760(4)
H90 H 0.1974 0.9128 0.1711
C204 C 0.1410(17) 0.8589(8) 0.1702(7)
C205 C 0.1382(21) 0.8617(9) 0.1562(7)
N53 N 0.1671(9) 0.8963(13) 0.1487(3)
O57 O 0.1325(9) 0.8047(6) 0.2198(3)
C209 C 0.0098(15) 0.7993(10) 0.0944(4)
H92 H 0.0292 0.8229 0.0895
C210 C 0.0200(18) 0.7934(14) 0.1079(5)
C213 C 0.0576(20) 0.8212(17) 0.1126(6)
N54 N 0.0849(15) 0.8551(13) 0.1066(3)
C214 C 0.0913(16) 0.8379(13) 0.1333(5)
N55 N 0.0590(13) 0.8080(9) 0.1260(4)
C215 C 0.1221(14) 0.8149(11) 0.1918(4)
H95 H 0.1032 0.7903 0.1963
C216 C 0.1110(14) 0.8215(10) 0.1760(4)
H96 H 0.0872 0.8026 0.1711
N56 N 0.1037(13) 0.8329(9) 0.1487(3)
Cu22 Cu 0.13135(21) 0.79805(14) 0.24134(4)
Cu28 Cu 0.20195(14) 0.86865(21) 0.24134(4)
Cu3 Cu 0.53528(14) 0.99996(16) 0.90801(4)
O8 O 0.5042(8) 0.9460(8) 0.9112(2)
C27 C 0.4589(11) 0.918(2) 0.9131(6)
C28 C 0.4368(13) 0.874(3) 0.9147(7)
C29 C 0.4613(12) 0.8585(11) 0.9129(3)
H11 H 0.4899 0.8741 0.9117
C30 C 0.4392(11) 0.8171(12) 0.9130(4)
H12 H 0.4532 0.8025 0.9117
C31 C 0.3976(11) 0.795(2) 0.9149(6)
C32 C 0.3721(10) 0.744(2) 0.9157(5)
N8 N 0.3962(10) 0.7268(8) 0.9159(3)
C33 C 0.3753(16) 0.6877(8) 0.9159(4)
N9 N 0.3333 0.6667 0.9158(7)
C69 C 0.082(2) 0.5409(23) 0.9131(6)
C70 C 0.126(3) 0.5628(33) 0.9147(7)
C71 C 0.1415(11) 0.6028(16) 0.9129(3)
H29 H 0.1259 0.6158 0.9117
C72 C 0.1829(12) 0.6221(16) 0.9130(4)
H30 H 0.1975 0.6507 0.9117
C73 C 0.205(2) 0.6026(23) 0.9149(6)
C74 C 0.256(2) 0.6281(22) 0.9157(5)
N19 N 0.2732(8) 0.6694(13) 0.9159(3)
C75 C 0.3123(8) 0.6876(18) 0.9159(4)
O19 O 0.4418(11) 0.4958(8) 0.9112(2)
C76 C 0.4591(23) 0.5411(11) 0.9131(6)
C77 C 0.4372(33) 0.5632(13) 0.9147(7)
C78 C 0.3972(16) 0.5387(12) 0.9129(3)
H31 H 0.3842 0.5101 0.9117
C79 C 0.3779(16) 0.5608(11) 0.9130(4)
H32 H 0.3493 0.5468 0.9117
C80 C 0.3974(23) 0.6024(11) 0.9149(6)
C81 C 0.3719(22) 0.6279(10) 0.9157(5)
N20 N 0.3306(13) 0.6038(10) 0.9159(3)
C82 C 0.3124(18) 0.6247(16) 0.9159(4)
O20 O 0.0540(8) 0.4958(8) 0.9112(2)
C83 C 0.1415(11) 0.5387(12) 0.9129(3)
H33 H 0.1259 0.5101 0.9117
C84 C 0.1829(12) 0.5608(11) 0.9130(4)
H34 H 0.1975 0.5468 0.9117
N21 N 0.2732(8) 0.6038(10) 0.9159(3)
O21 O 0.5042(8) 0.5582(11) 0.9112(2)
C85 C 0.4613(12) 0.6028(16) 0.9129(3)
H35 H 0.4899 0.6158 0.9117
C86 C 0.4392(11) 0.6221(16) 0.9130(4)
H36 H 0.4532 0.6507 0.9117
N22 N 0.3962(10) 0.6694(13) 0.9159(3)
O22 O 0.4418(11) 0.9460(8) 0.9112(2)
C87 C 0.3972(16) 0.8585(11) 0.9129(3)
H37 H 0.3842 0.8741 0.9117
C88 C 0.3779(16) 0.8171(12) 0.9130(4)
H38 H 0.3493 0.8025 0.9117
N23 N 0.3306(13) 0.7268(8) 0.9159(3)
Cu10 Cu 0.46468(21) 0.99996(16) 0.90801(4)
O76 O 0.5286(6) 0.9945(7) 0.8865(3)
O79 O 0.4658(9) 0.9945(7) 0.8865(3)
H99 H 0.599123 0.980833 0.919829
H100 H 0.615256 0.999836 0.903765
H103 H 0.0150113 0.622339 0.90609
H118 H 0.383259 0.997233 0.903937
C47 C 0.9030(12) 0.1898(6) 0.0851(4)
C48 C 0.9395(16) 0.2026(11) 0.0937(5)
C49 C 0.9703(15) 0.1988(10) 0.0867(3)
H17 H 0.9664 0.1891 0.0772
C52 C 0.9883(15) 0.2303(10) 0.1137(3)
H19 H 0.9929 0.2428 0.1227
C53 C 0.9491(14) 0.2172(10) 0.1073(4)
H20 H 0.9290 0.2187 0.1129
C136 C 0.8102(6) 0.0970(12) 0.0851(4)
C137 C 0.7974(11) 0.0605(16) 0.0937(5)
C138 C 0.8012(10) 0.0297(15) 0.0867(3)
H61 H 0.8109 0.0336 0.0772
C141 C 0.7697(10) 0.0117(15) 0.1137(3)
H63 H 0.7572 0.0071 0.1227
C142 C 0.7828(10) 0.0509(14) 0.1073(4)
H64 H 0.7813 0.0710 0.1129
O39 O 0.6722(7) 0.8675(9) 0.2198(3)
C139 C 0.7895(11) 0.9902(15) 0.0944(4)
H62 H 0.7937 0.9708 0.0895
C140 C 0.7734(11) 0.9800(18) 0.1079(5)
C143 C 0.7636(11) 0.9424(20) 0.1126(6)
N36 N 0.7702(7) 0.9151(15) 0.1066(3)
C144 C 0.7643(12) 0.8821(13) 0.1141(9)
N37 N 0.7524(13) 0.8762(14) 0.1283(6)
C145 C 0.7466(10) 0.9087(16) 0.1333(5)
N38 N 0.7490(10) 0.9410(13) 0.1260(4)
C146 C 0.6892(16) 0.8446(18) 0.2188(7)
C147 C 0.6844(14) 0.8422(16) 0.1999(7)
C148 C 0.6928(9) 0.8779(14) 0.1918(4)
H65 H 0.6871 0.8968 0.1963
C149 C 0.7105(10) 0.8890(14) 0.1760(4)
H66 H 0.7154 0.9128 0.1711
C150 C 0.7179(15) 0.8590(17) 0.1702(7)
C151 C 0.7235(19) 0.8618(21) 0.1562(7)
N39 N 0.7292(10) 0.8963(13) 0.1487(3)
O40 O 0.8237(6) 0.7212(6) 0.0734(2)
O41 O 0.8032(5) 0.6803(6) 0.09384(19)
O42 O 0.6722(7) 0.8047(6) 0.2198(3)
C152 C 0.8102(6) 0.7132(10) 0.0851(4)
C153 C 0.7974(11) 0.7369(12) 0.0937(5)
C154 C 0.8012(10) 0.7715(11) 0.0867(3)
H67 H 0.8109 0.7773 0.0772
C155 C 0.7895(11) 0.7993(10) 0.0944(4)
H68 H 0.7937 0.8229 0.0895
C156 C 0.7734(11) 0.7934(14) 0.1079(5)
C157 C 0.7697(10) 0.7580(11) 0.1137(3)
H69 H 0.7572 0.7501 0.1227
C158 C 0.7828(10) 0.7319(10) 0.1073(4)
H70 H 0.7813 0.7103 0.1129
C159 C 0.7636(11) 0.8212(17) 0.1126(6)
N40 N 0.7702(7) 0.8551(13) 0.1066(3)
C160 C 0.7466(10) 0.8379(13) 0.1333(5)
N41 N 0.7490(10) 0.8080(9) 0.1260(4)
C161 C 0.6928(9) 0.8149(11) 0.1918(4)
H71 H 0.6871 0.7903 0.1963
C162 C 0.7105(10) 0.8215(10) 0.1760(4)
H72 H 0.7154 0.8026 0.1711
N42 N 0.7292(10) 0.8329(9) 0.1487(3)
O55 O 0.8975(8) 0.7212(6) 0.0734(2)
O56 O 0.8771(8) 0.6803(6) 0.09384(19)
C206 C 0.9030(12) 0.7132(10) 0.0851(4)
C207 C 0.9395(16) 0.7369(12) 0.0937(5)
C208 C 0.9703(15) 0.7715(11) 0.0867(3)
H91 H 0.9664 0.7773 0.0772
C211 C 0.9883(15) 0.7580(11) 0.1137(3)
H93 H 0.9929 0.7501 0.1227
C212 C 0.9491(14) 0.7319(10) 0.1073(4)
H94 H 0.9290 0.7103 0.1129
Cu21 Cu 0.66671(16) 0.86865(21) 0.24134(4)
Cu25 Cu 0.66671(16) 0.79805(14) 0.24134(4)
O28 O 0.7697(7) 0.6124(9) 0.0753(2)
O29 O 0.7897(9) 0.6531(11) 0.0559(2)
C109 C 0.7646(13) 0.6227(14) 0.0633(4)
C110 C 0.7197(14) 0.5939(17) 0.0562(4)
C111 C 0.7138(14) 0.6020(17) 0.0421(4)
H49 H 0.7352 0.6232 0.0369
C112 C 0.6749(13) 0.5777(16) 0.0361(3)
H50 H 0.6695 0.5827 0.0267
C113 C 0.6455(16) 0.5470(19) 0.0439(5)
C114 C 0.6527(14) 0.5339(17) 0.0581(4)
H51 H 0.6330 0.5097 0.0626
C115 C 0.6892(13) 0.5590(16) 0.0639(3)
H52 H 0.6950 0.5537 0.0732
C116 C 0.6093(17) 0.5213(19) 0.0362(6)
N29 N 0.5998(11) 0.5251(13) 0.0220(4)
C117 C 0.5648(16) 0.4959(17) 0.0171(5)
N30 N 0.5372(16) 0.4629(21) 0.0226(7)
C118 C 0.5425(18) 0.4574(24) 0.0371(9)
N31 N 0.5784(13) 0.4843(14) 0.0434(2)
N32 N 0.5588(10) 0.5042(12) 0.0029(3)
C125 C 0.3773(11) 0.2354(13) 0.0633(4)
C126 C 0.4061(11) 0.2803(14) 0.0562(4)
C127 C 0.3980(10) 0.2862(14) 0.0421(4)
H55 H 0.3768 0.2648 0.0369
C128 C 0.4223(10) 0.3251(13) 0.0361(3)
H56 H 0.4173 0.3305 0.0267
C129 C 0.4530(12) 0.3545(16) 0.0439(5)
C130 C 0.4661(10) 0.3473(14) 0.0581(4)
H57 H 0.4903 0.3670 0.0626
C131 C 0.4410(10) 0.3108(13) 0.0639(3)
H58 H 0.4463 0.3050 0.0732
C132 C 0.4787(14) 0.3907(17) 0.0362(6)
N33 N 0.4749(9) 0.4002(11) 0.0220(4)
C133 C 0.5041(14) 0.4352(16) 0.0171(5)
N34 N 0.5157(12) 0.4216(13) 0.0434(2)
N35 N 0.4958(7) 0.4412(10) 0.0029(3)
O30 O 0.4749(9) 0.4665(11) 0.9292(2)
O31 O 0.3997(8) 0.3964(10) 0.9130(2)
C119 C 0.5241(15) 0.4759(20) 0.9968(7)
C120 C 0.5200(13) 0.4801(18) 0.9799(7)
C121 C 0.5510(11) 0.5149(13) 0.9731(3)
H53 H 0.5741 0.5345 0.9781
C122 C 0.5459(11) 0.5188(13) 0.9587(3)
H54 H 0.5651 0.5415 0.9533
C123 C 0.5118(13) 0.4881(18) 0.9528(6)
C124 C 0.5044(17) 0.4956(23) 0.9354(6)
O34 O 0.5335(6) 0.5251(9) 0.9292(2)
C134 C 0.4851(9) 0.4490(11) 0.9731(3)
H59 H 0.4655 0.4259 0.9781
C135 C 0.4812(9) 0.4541(11) 0.9587(3)
H60 H 0.4585 0.4349 0.9533
O77 O 0.4658(9) 0.4714(11) 0.8865(3)
O79_2 O 0.0055(7) 0.4714(11) 0.8865(3)
H99_2 H 0.0191666 0.61829 0.919829
H100_2 H 0.000164074 0.61542 0.903765
H118_2 H 0.00276651 0.386026 0.903937
O45_2 O 0.8649(8) 0.7299(9) 0.0440(2)
O46_2 O 0.7985(7) 0.5969(8) 0.1042(2)
O58_2 O 0.9967(6) 0.3964(10) 0.9130(2)
O59_2 O 0.6634(6) 0.9336(8) 0.2463(2)
O60_2 O 0.6634(6) 0.7297(10) 0.2463(2)
O71_2 O 0.6583(7) 0.8584(9) 0.2625(2)
O72_2 O 0.6583(7) 0.7998(11) 0.2625(2)
O74_2 O 0.7207(8) 0.8915(11) 0.2445(2)
O75_2 O 0.7207(8) 0.8291(14) 0.2445(2)
O81_2 O 0.6080(7) 0.8326(10) 0.2387(2)
O82_2 O 0.6080(7) 0.7753(12) 0.2387(2)
O59_3 O 0.0664(8) 0.7297(6) 0.2463(2)
O60_3 O 0.2703(10) 0.9336(8) 0.2463(2)
O71_3 O 0.1416(9) 0.7998(6) 0.2625(2)
O72_3 O 0.2002(11) 0.8584(9) 0.2625(2)
O74_3 O 0.1085(11) 0.8291(8) 0.2445(2)
O75_3 O 0.1709(14) 0.8915(11) 0.2445(2)
O81_3 O 0.1674(10) 0.7753(7) 0.2387(2)
O82_3 O 0.2247(12) 0.8326(10) 0.2387(2)
O58_3 O 0.6036(10) 0.6003(8) 0.9130(2)
O79_3 O 0.5286(11) 0.5342(9) 0.8865(3)
H103_2 H 0.607327 0.984989 0.90609
H114_2 H 0.598721 0.974919 0.914729
Cu15_2 Cu 0.51167(18) 0.02333(16) 0.39666(6)
Cu2_2 Cu 0.02508(14) 0.51254(7) 0.41961(5)
O3_2 O 0.0543(5) 0.4906(5) 0.4086(2)
O4_2 O 0.0136(7) 0.4699(6) 0.3892(2)
O6_2 O 0.0698(6) 0.5349(3) 0.4375(2)
C11_2 C 0.0440(11) 0.4752(6) 0.3966(4)
C12_2 C 0.0728(11) 0.4591(9) 0.3895(4)
C13_2 C 0.0647(10) 0.4451(10) 0.3754(4)
H5_2 H 0.0435 0.4453 0.3702
C14_2 C 0.0890(10) 0.4305(9) 0.3694(3)
H6_2 H 0.0840 0.4201 0.3600
C15_2 C 0.1197(12) 0.4318(10) 0.3772(5)
C16_2 C 0.1328(10) 0.4521(10) 0.3914(4)
H7_2 H 0.1570 0.4566 0.3959
C17_2 C 0.1077(10) 0.4635(9) 0.3972(3)
H8_2 H 0.1130 0.4746 0.4065
C18_2 C 0.1454(14) 0.4213(9) 0.3695(6)
N4_2 N 0.1416(9) 0.4080(7) 0.3553(4)
C19_2 C 0.1708(14) 0.4022(7) 0.3504(5)
N5_2 N 0.2038(7) 0.4076(14) 0.3559(7)
C20_2 C 0.2093(8) 0.4184(16) 0.3704(9)
N6_2 N 0.1824(12) 0.4274(6) 0.3767(2)
N7_2 N 0.1625(7) 0.3879(7) 0.3362(3)
C21_2 C 0.1908(7) 0.3815(13) 0.3301(7)
C22_2 C 0.1866(6) 0.3732(12) 0.3132(7)
C23_2 C 0.1518(9) 0.3694(7) 0.3064(3)
H9_2 H 0.1322 0.3729 0.3114
C24_2 C 0.1479(9) 0.3604(7) 0.2920(3)
H10_2 H 0.1252 0.3569 0.2866
C25_2 C 0.1786(6) 0.3570(12) 0.2861(6)
C26_2 C 0.1711(7) 0.3421(15) 0.2687(6)
C27_2 C 0.1256(11) 0.251(2) 0.2464(6)
C28_2 C 0.1035(13) 0.207(3) 0.2480(7)
C29_2 C 0.1280(12) 0.1918(11) 0.2462(3)
H11_2 H 0.1566 0.2074 0.2450
C30_2 C 0.1059(11) 0.1504(12) 0.2463(4)
H12_2 H 0.1199 0.1358 0.2450
C31_2 C 0.0643(11) 0.128(2) 0.2482(6)
C32_2 C 0.0388(10) 0.077(2) 0.2490(5)
N8_2 N 0.0629(10) 0.0601(8) 0.2492(3)
C33_2 C 0.0420(16) 0.0210(8) 0.2492(4)
C40_2 C 0.2077(11) 0.415(2) 0.2371(7)
C41_2 C 0.2293(12) 0.458(2) 0.2351(5)
C42_2 C 0.2698(10) 0.4728(11) 0.2357(2)
H15_2 H 0.2826 0.4569 0.2365
C43_2 C 0.2888(13) 0.5143(11) 0.2348(2)
H16_2 H 0.3176 0.5281 0.2348
C44_2 C 0.2702(11) 0.540(2) 0.2337(4)
C45_2 C 0.290(3) 0.579(5) 0.2317(7)
N11_2 N 0.3280(16) 0.6021(14) 0.2325(3)
C46_2 C 0.3555(9) 0.6445(9) 0.2320(5)
N12_2 N 0.3334 0.6666 0.2316(4)
O15_2 O 0.4364(7) 0.4906(5) 0.4086(2)
O16_2 O 0.4564(9) 0.4699(6) 0.3892(2)
C58_2 C 0.4313(13) 0.4752(6) 0.3966(4)
C59_2 C 0.3864(14) 0.4591(9) 0.3895(4)
C60_2 C 0.3805(14) 0.4451(10) 0.3754(4)
H23_2 H 0.4019 0.4453 0.3702
C61_2 C 0.3416(13) 0.4305(9) 0.3694(3)
H24_2 H 0.3362 0.4201 0.3600
C62_2 C 0.3122(16) 0.4318(10) 0.3772(5)
C63_2 C 0.3194(14) 0.4521(10) 0.3914(4)
H25_2 H 0.2997 0.4566 0.3959
C64_2 C 0.3559(13) 0.4635(9) 0.3972(3)
H26_2 H 0.3617 0.4746 0.4065
C65_2 C 0.2760(17) 0.4213(9) 0.3695(6)
N16_2 N 0.2665(11) 0.4080(7) 0.3553(4)
C66_2 C 0.2315(16) 0.4022(7) 0.3504(5)
N17_2 N 0.2451(13) 0.4274(6) 0.3767(2)
N18_2 N 0.2255(10) 0.3879(7) 0.3362(3)
C67_2 C 0.2177(11) 0.3694(7) 0.3064(3)
H27_2 H 0.2408 0.3729 0.3114
C68_2 C 0.2126(11) 0.3604(7) 0.2920(3)
H28_2 H 0.2318 0.3569 0.2866
N22_2 N 0.0629(10) 0.0027(13) 0.2492(3)
C87_2 C 0.0639(16) 0.1918(11) 0.2462(3)
H37_2 H 0.0509 0.2074 0.2450
C88_2 C 0.0446(16) 0.1504(12) 0.2463(4)
H38_2 H 0.0160 0.1358 0.2450
C89_2 C 0.585(2) 0.7923(23) 0.2371(7)
C90_2 C 0.542(2) 0.7709(23) 0.2351(5)
C91_2 C 0.5272(11) 0.7969(15) 0.2357(2)
H39_2 H 0.5431 0.8256 0.2365
C92_2 C 0.4857(11) 0.7744(17) 0.2348(2)
H40_2 H 0.4719 0.7894 0.2348
C93_2 C 0.460(2) 0.7298(23) 0.2337(4)
C94_2 C 0.421(5) 0.710(6) 0.2317(7)
N24_2 N 0.3979(14) 0.7258(21) 0.2325(3)
C95_2 C 0.3555(9) 0.7109(13) 0.2320(5)
C96_2 C 0.2077(23) 0.7923(11) 0.2371(7)
C97_2 C 0.2291(23) 0.7707(12) 0.2351(5)
C98_2 C 0.2031(15) 0.7302(10) 0.2357(2)
H41_2 H 0.1744 0.7174 0.2365
C99_2 C 0.2256(17) 0.7112(13) 0.2348(2)
H42_2 H 0.2106 0.6824 0.2348
C100_2 C 0.2702(23) 0.7298(11) 0.2337(4)
C101_2 C 0.290(6) 0.710(3) 0.2317(7)
N25_2 N 0.2742(21) 0.6720(16) 0.2325(3)
C102_2 C 0.2891(13) 0.6445(9) 0.2320(5)
C103_2 C 0.5272(11) 0.7302(10) 0.2357(2)
H43_2 H 0.5431 0.7174 0.2365
C104_2 C 0.4857(11) 0.7112(13) 0.2348(2)
H44_2 H 0.4719 0.6824 0.2348
N26_2 N 0.3979(14) 0.6720(16) 0.2325(3)
C105_2 C 0.2698(10) 0.7969(15) 0.2357(2)
H45_2 H 0.2826 0.8256 0.2365
C106_2 C 0.2888(13) 0.7744(17) 0.2348(2)
H46_2 H 0.3176 0.7894 0.2348
N27_2 N 0.3280(16) 0.7258(21) 0.2325(3)
C107_2 C 0.2031(15) 0.4728(11) 0.2357(2)
H47_2 H 0.1744 0.4569 0.2365
C108_2 C 0.2256(17) 0.5143(11) 0.2348(2)
H48_2 H 0.2106 0.5281 0.2348
N28_2 N 0.2742(21) 0.6021(14) 0.2325(3)
Cu7_2 Cu 0.51167(8) 0.48833(18) 0.39666(6)
Cu8_2 Cu 0.48746(7) 0.51253(16) 0.41961(5)
O43_2 O 0.5094(5) 0.5636(7) 0.4086(2)
O44_2 O 0.5301(6) 0.5436(9) 0.3892(2)
O45_3 O 0.5317(3) 0.4684(8) 0.3773(2)
O46_3 O 0.4651(3) 0.5348(7) 0.4375(2)
C163_2 C 0.5248(6) 0.5687(13) 0.3966(4)
C164_2 C 0.5409(9) 0.6136(14) 0.3895(4)
C165_2 C 0.5549(10) 0.6195(14) 0.3754(4)
H73_2 H 0.5547 0.5981 0.3702
C166_2 C 0.5695(9) 0.6584(13) 0.3694(3)
H74_2 H 0.5799 0.6638 0.3600
C167_2 C 0.5682(10) 0.6878(16) 0.3772(5)
C168_2 C 0.5479(10) 0.6806(14) 0.3914(4)
H75_2 H 0.5434 0.7003 0.3959
C169_2 C 0.5365(9) 0.6441(13) 0.3972(3)
H76_2 H 0.5254 0.6383 0.4065
C170_2 C 0.5787(9) 0.7240(17) 0.3695(6)
N43_2 N 0.5920(7) 0.7335(11) 0.3553(4)
C171_2 C 0.5978(7) 0.7685(16) 0.3504(5)
N44_2 N 0.5924(14) 0.7961(16) 0.3559(7)
C172_2 C 0.5816(16) 0.7908(18) 0.3704(9)
N45_2 N 0.5726(6) 0.7549(13) 0.3767(2)
N46_2 N 0.6121(7) 0.7745(10) 0.3362(3)
C173_2 C 0.6185(13) 0.8092(15) 0.3301(7)
C174_2 C 0.6268(12) 0.8133(13) 0.3132(7)
C175_2 C 0.6306(7) 0.7823(11) 0.3064(3)
H77_2 H 0.6271 0.7592 0.3114
C176_2 C 0.6396(7) 0.7874(11) 0.2920(3)
H78_2 H 0.6431 0.7682 0.2866
C177_2 C 0.6430(12) 0.8215(13) 0.2861(6)
C178_2 C 0.6579(15) 0.8289(17) 0.2687(6)
O49_2 O 0.5094(5) 0.9457(5) 0.4086(2)
O50_2 O 0.5301(6) 0.9864(7) 0.3892(2)
C179_2 C 0.5248(6) 0.9560(11) 0.3966(4)
C180_2 C 0.5409(9) 0.9272(11) 0.3895(4)
C181_2 C 0.5549(10) 0.9353(10) 0.3754(4)
H79_2 H 0.5547 0.9565 0.3702
C182_2 C 0.5695(9) 0.9110(10) 0.3694(3)
H80_2 H 0.5799 0.9160 0.3600
C183_2 C 0.5682(10) 0.8803(12) 0.3772(5)
C184_2 C 0.5479(10) 0.8672(10) 0.3914(4)
H81_2 H 0.5434 0.8430 0.3959
C185_2 C 0.5365(9) 0.8923(10) 0.3972(3)
H82_2 H 0.5254 0.8870 0.4065
C186_2 C 0.5787(9) 0.8546(14) 0.3695(6)
N47_2 N 0.5920(7) 0.8584(9) 0.3553(4)
C187_2 C 0.5978(7) 0.8292(14) 0.3504(5)
N48_2 N 0.5726(6) 0.8176(12) 0.3767(2)
N49_2 N 0.6121(7) 0.8375(7) 0.3362(3)
C188_2 C 0.6306(7) 0.8482(9) 0.3064(3)
H83_2 H 0.6271 0.8678 0.3114
C189_2 C 0.6396(7) 0.8521(9) 0.2920(3)
H84_2 H 0.6431 0.8748 0.2866
Cu18_2 Cu 0.48747(16) 0.97492(14) 0.41961(5)
O61_2 O 0.4904(6) 0.4358(8) 0.4067(2)
O62_2 O 0.5642(8) 0.5096(6) 0.4067(2)
O63_2 O 0.4699(5) 0.4562(8) 0.42717(19)
O64_2 O 0.5438(8) 0.5301(5) 0.42717(19)
O66_2 O 0.0543(5) 0.5636(7) 0.4086(2)
O69_2 O 0.0136(7) 0.5436(9) 0.3892(2)
C76_2 C 0.1258(23) 0.8744(11) 0.2464(6)
C77_2 C 0.1039(33) 0.8965(13) 0.2480(7)
C78_2 C 0.0639(16) 0.8720(12) 0.2462(3)
H31_2 H 0.0509 0.8434 0.2450
C79_2 C 0.0446(16) 0.8941(11) 0.2463(4)
H32_2 H 0.0160 0.8801 0.2450
C80_2 C 0.0641(23) 0.9357(11) 0.2482(6)
C81_2 C 0.0386(22) 0.9612(10) 0.2490(5)
C85_2 C 0.1280(12) 0.9361(16) 0.2462(3)
H35_2 H 0.1566 0.9491 0.2450
C86_2 C 0.1059(11) 0.9554(16) 0.2463(4)
H36_2 H 0.1199 0.9840 0.2450
Cu1_2 Cu 0.97667(16) 0.48833(8) 0.39666(6)
O1_2 O 0.9455(6) 0.5096(6) 0.4067(2)
O2_2 O 0.9864(6) 0.5301(5) 0.42717(19)
O5_2 O 0.9368(7) 0.4683(3) 0.3773(2)
O9_2 O 0.8620(6) 0.6611(7) 0.5531(3)
C1_2 C 0.9535(10) 0.5231(6) 0.4184(4)
C2_2 C 0.9298(12) 0.5359(11) 0.4270(5)
C3_2 C 0.8952(11) 0.5321(10) 0.4200(3)
H1_2 H 0.8894 0.5224 0.4105
C4_2 C 0.8674(10) 0.5438(11) 0.4277(4)
H2_2 H 0.8438 0.5396 0.4228
C5_2 C 0.8733(14) 0.5599(11) 0.4412(5)
C6_2 C 0.9087(11) 0.5636(10) 0.4470(3)
H3_2 H 0.9166 0.5761 0.4560
C7_2 C 0.9348(10) 0.5505(10) 0.4406(4)
H4_2 H 0.9564 0.5520 0.4462
C8_2 C 0.8455(17) 0.5697(11) 0.4459(6)
N1_2 N 0.8116(13) 0.5631(7) 0.4399(3)
C9_2 C 0.7845(6) 0.5690(12) 0.4474(9)
N2_2 N 0.7905(6) 0.5809(13) 0.4616(6)
C10_2 C 0.8288(13) 0.5867(10) 0.4666(5)
N3_2 N 0.8587(9) 0.5843(10) 0.4593(4)
N9_2 N 1.0000 0.0000 0.2491(7)
C34_2 C 0.8221(8) 0.6441(16) 0.5521(7)
C35_2 C 0.8245(7) 0.6489(14) 0.5332(7)
C36_2 C 0.8518(11) 0.6405(9) 0.5251(4)
H13_2 H 0.8764 0.6462 0.5296
C37_2 C 0.8452(10) 0.6228(10) 0.5093(4)
H14_2 H 0.8641 0.6179 0.5044
C38_2 C 0.8078(8) 0.6154(15) 0.5035(7)
C39_2 C 0.8050(9) 0.6098(19) 0.4895(7)
N10_2 N 0.8338(9) 0.6041(10) 0.4820(3)
O14_2 O 0.7992(9) 0.6611(7) 0.5531(3)
C47_2 C 0.5697(12) 0.5231(6) 0.4184(4)
C48_2 C 0.6062(16) 0.5359(11) 0.4270(5)
C49_2 C 0.6370(15) 0.5321(10) 0.4200(3)
H17_2 H 0.6331 0.5224 0.4105
C50_2 C 0.6765(15) 0.5438(11) 0.4277(4)
H18_2 H 0.6959 0.5396 0.4228
C51_2 C 0.6867(18) 0.5599(11) 0.4412(5)
C52_2 C 0.6550(15) 0.5636(10) 0.4470(3)
H19_2 H 0.6596 0.5761 0.4560
C53_2 C 0.6158(14) 0.5505(10) 0.4406(4)
H20_2 H 0.5957 0.5520 0.4462
C54_2 C 0.7243(20) 0.5697(11) 0.4459(6)
N13_2 N 0.7516(15) 0.5631(7) 0.4399(3)
C55_2 C 0.7580(16) 0.5867(10) 0.4666(5)
N14_2 N 0.7257(13) 0.5843(10) 0.4593(4)
C56_2 C 0.7888(14) 0.6405(9) 0.5251(4)
H21_2 H 0.7699 0.6462 0.5296
C57_2 C 0.7777(14) 0.6228(10) 0.5093(4)
H22_2 H 0.7539 0.6179 0.5044
N15_2 N 0.7704(13) 0.6041(10) 0.4820(3)
N19_2 N 0.9399(8) 0.0027(13) 0.2492(3)
C75_2 C 0.9790(8) 0.0209(18) 0.2492(4)
N23_2 N 0.9973(13) 0.0601(8) 0.2492(3)
O39_2 O 0.3389(7) 0.2008(9) 0.5531(3)
C136_2 C 0.4769(6) 0.4303(12) 0.4184(4)
C137_2 C 0.4641(11) 0.3938(16) 0.4270(5)
C138_2 C 0.4679(10) 0.3630(15) 0.4200(3)
H61_2 H 0.4776 0.3669 0.4105
C139_2 C 0.4562(11) 0.3235(15) 0.4277(4)
H62_2 H 0.4604 0.3041 0.4228
C140_2 C 0.4401(11) 0.3133(18) 0.4412(5)
C141_2 C 0.4364(10) 0.3450(15) 0.4470(3)
H63_2 H 0.4239 0.3404 0.4560
C142_2 C 0.4495(10) 0.3842(14) 0.4406(4)
H64_2 H 0.4480 0.4043 0.4462
C143_2 C 0.4303(11) 0.2757(20) 0.4459(6)
N36_2 N 0.4369(7) 0.2484(15) 0.4399(3)
C144_2 C 0.4310(12) 0.2154(13) 0.4474(9)
N37_2 N 0.4191(13) 0.2095(14) 0.4616(6)
C145_2 C 0.4133(10) 0.2420(16) 0.4666(5)
N38_2 N 0.4157(10) 0.2743(13) 0.4593(4)
C146_2 C 0.3559(16) 0.1779(18) 0.5521(7)
C147_2 C 0.3511(14) 0.1755(16) 0.5332(7)
C148_2 C 0.3595(9) 0.2112(14) 0.5251(4)
H65_2 H 0.3538 0.2301 0.5296
C149_2 C 0.3772(10) 0.2223(14) 0.5093(4)
H66_2 H 0.3821 0.2461 0.5044
C150_2 C 0.3846(15) 0.1923(17) 0.5035(7)
C151_2 C 0.3902(19) 0.1951(21) 0.4895(7)
N39_2 N 0.3959(10) 0.2296(13) 0.4820(3)
O40_2 O 0.4904(6) 0.0545(6) 0.4067(2)
O41_2 O 0.4699(5) 0.0136(6) 0.42717(19)
O42_2 O 0.3389(7) 0.1380(6) 0.5531(3)
C152_2 C 0.4769(6) 0.0465(10) 0.4184(4)
C153_2 C 0.4641(11) 0.0702(12) 0.4270(5)
C154_2 C 0.4679(10) 0.1048(11) 0.4200(3)
H67_2 H 0.4776 0.1106 0.4105
C155_2 C 0.4562(11) 0.1326(10) 0.4277(4)
H68_2 H 0.4604 0.1562 0.4228
C156_2 C 0.4401(11) 0.1267(14) 0.4412(5)
C157_2 C 0.4364(10) 0.0913(11) 0.4470(3)
H69_2 H 0.4239 0.0834 0.4560
C158_2 C 0.4495(10) 0.0652(10) 0.4406(4)
H70_2 H 0.4480 0.0436 0.4462
C159_2 C 0.4303(11) 0.1545(17) 0.4459(6)
N40_2 N 0.4369(7) 0.1884(13) 0.4399(3)
C160_2 C 0.4133(10) 0.1712(13) 0.4666(5)
N41_2 N 0.4157(10) 0.1413(9) 0.4593(4)
C161_2 C 0.3595(9) 0.1482(11) 0.5251(4)
H71_2 H 0.3538 0.1236 0.5296
C162_2 C 0.3772(10) 0.1548(10) 0.5093(4)
H72_2 H 0.3821 0.1359 0.5044
N42_2 N 0.3959(10) 0.1662(9) 0.4820(3)
O52_2 O 0.9455(6) 0.4358(8) 0.4067(2)
O53_2 O 0.9864(6) 0.4562(8) 0.42717(19)
O54_2 O 0.8620(6) 0.2008(9) 0.5531(3)
C190_2 C 0.9535(10) 0.4303(12) 0.4184(4)
C191_2 C 0.9298(12) 0.3938(16) 0.4270(5)
C192_2 C 0.8952(11) 0.3630(15) 0.4200(3)
H85_2 H 0.8894 0.3669 0.4105
C193_2 C 0.8674(10) 0.3235(15) 0.4277(4)
H86_2 H 0.8438 0.3041 0.4228
C194_2 C 0.8733(14) 0.3133(18) 0.4412(5)
C195_2 C 0.9087(11) 0.3450(15) 0.4470(3)
H87_2 H 0.9166 0.3404 0.4560
C196_2 C 0.9348(10) 0.3842(14) 0.4406(4)
H88_2 H 0.9564 0.4043 0.4462
C197_2 C 0.8455(17) 0.2757(20) 0.4459(6)
N50_2 N 0.8116(13) 0.2484(15) 0.4399(3)
C198_2 C 0.7846(13) 0.2155(6) 0.4474(9)
N51_2 N 0.7905(14) 0.2095(6) 0.4616(6)
C199_2 C 0.8288(13) 0.2420(16) 0.4666(5)
N52_2 N 0.8587(9) 0.2743(13) 0.4593(4)
C200_2 C 0.8221(18) 0.1779(8) 0.5521(7)
C201_2 C 0.8245(16) 0.1755(7) 0.5332(7)
C202_2 C 0.8518(11) 0.2112(14) 0.5251(4)
H89_2 H 0.8764 0.2301 0.5296
C203_2 C 0.8452(10) 0.2223(14) 0.5093(4)
H90_2 H 0.8641 0.2461 0.5044
C204_2 C 0.8077(17) 0.1922(8) 0.5035(7)
C205_2 C 0.8049(21) 0.1950(9) 0.4895(7)
N53_2 N 0.8338(9) 0.2296(13) 0.4820(3)
O55_2 O 0.5642(8) 0.0545(6) 0.4067(2)
O56_2 O 0.5438(8) 0.0136(6) 0.42717(19)
O57_2 O 0.7992(9) 0.1380(6) 0.5531(3)
C206_2 C 0.5697(12) 0.0465(10) 0.4184(4)
C207_2 C 0.6062(16) 0.0702(12) 0.4270(5)
C208_2 C 0.6370(15) 0.1048(11) 0.4200(3)
H91_2 H 0.6331 0.1106 0.4105
C209_2 C 0.6765(15) 0.1326(10) 0.4277(4)
H92_2 H 0.6959 0.1562 0.4228
C210_2 C 0.6867(18) 0.1267(14) 0.4412(5)
C211_2 C 0.6550(15) 0.0913(11) 0.4470(3)
H93_2 H 0.6596 0.0834 0.4560
C212_2 C 0.6158(14) 0.0652(10) 0.4406(4)
H94_2 H 0.5957 0.0436 0.4462
C213_2 C 0.7243(20) 0.1545(17) 0.4459(6)
N54_2 N 0.7516(15) 0.1884(13) 0.4399(3)
C214_2 C 0.7580(16) 0.1712(13) 0.4666(5)
N55_2 N 0.7257(13) 0.1413(9) 0.4593(4)
C215_2 C 0.7888(14) 0.1482(11) 0.5251(4)
H95_2 H 0.7699 0.1236 0.5296
C216_2 C 0.7777(14) 0.1548(10) 0.5093(4)
H96_2 H 0.7539 0.1359 0.5044
N56_2 N 0.7704(13) 0.1662(9) 0.4820(3)
Cu11_2 Cu 0.86861(14) 0.66663(16) 0.57468(4)
O59_4 O 0.9369(6) 0.6700(6) 0.5797(2)
Cu12_2 Cu 0.79801(21) 0.66663(16) 0.57468(4)
O60_4 O 0.7330(8) 0.6700(6) 0.5797(2)
Cu21_2 Cu 0.33337(16) 0.20199(21) 0.57468(4)
Cu22_2 Cu 0.79801(21) 0.13139(14) 0.57468(4)
Cu25_2 Cu 0.33337(16) 0.13139(14) 0.57468(4)
Cu28_2 Cu 0.86861(14) 0.20199(21) 0.57468(4)
O71_4 O 0.8668(6) 0.6751(7) 0.5959(2)
O72_4 O 0.8082(9) 0.6751(7) 0.5959(2)
O74_4 O 0.8375(8) 0.6127(8) 0.5779(2)
O75_4 O 0.7751(11) 0.6127(8) 0.5779(2)
O81_4 O 0.8913(7) 0.7254(7) 0.5721(2)
O82_4 O 0.8340(10) 0.7254(7) 0.5721(2)
C69_2 C 0.749(2) 0.8742(23) 0.2464(6)
C70_2 C 0.793(3) 0.8961(33) 0.2480(7)
C71_2 C 0.8082(11) 0.9361(16) 0.2462(3)
H29_2 H 0.7926 0.9491 0.2450
C72_2 C 0.8496(12) 0.9554(16) 0.2463(4)
H30_2 H 0.8642 0.9840 0.2450
C73_2 C 0.872(2) 0.9359(23) 0.2482(6)
C74_2 C 0.923(2) 0.9614(22) 0.2490(5)
N20_2 N 0.9973(13) 0.9371(10) 0.2492(3)
C82_2 C 0.9791(18) 0.9580(16) 0.2492(4)
C83_2 C 0.8082(11) 0.8720(12) 0.2462(3)
H33_2 H 0.7926 0.8434 0.2450
C84_2 C 0.8496(12) 0.8941(11) 0.2463(4)
H34_2 H 0.8642 0.8801 0.2450
N21_2 N 0.9399(8) 0.9371(10) 0.2492(3)
O28_2 O 0.4364(7) 0.9457(9) 0.4086(2)
O29_2 O 0.4564(9) 0.9864(11) 0.3892(2)
C109_2 C 0.4313(13) 0.9560(14) 0.3966(4)
C110_2 C 0.3864(14) 0.9272(17) 0.3895(4)
C111_2 C 0.3805(14) 0.9353(17) 0.3754(4)
H49_2 H 0.4019 0.9565 0.3702
C112_2 C 0.3416(13) 0.9110(16) 0.3694(3)
H50_2 H 0.3362 0.9160 0.3600
C113_2 C 0.3122(16) 0.8803(19) 0.3772(5)
C114_2 C 0.3194(14) 0.8672(17) 0.3914(4)
H51_2 H 0.2997 0.8430 0.3959
C115_2 C 0.3559(13) 0.8923(16) 0.3972(3)
H52_2 H 0.3617 0.8870 0.4065
C116_2 C 0.2760(17) 0.8546(19) 0.3695(6)
N29_2 N 0.2665(11) 0.8584(13) 0.3553(4)
C117_2 C 0.2315(16) 0.8292(17) 0.3504(5)
N30_2 N 0.2039(16) 0.7962(21) 0.3559(7)
C118_2 C 0.2092(18) 0.7907(24) 0.3704(9)
N31_2 N 0.2451(13) 0.8176(14) 0.3767(2)
N32_2 N 0.2255(10) 0.8375(12) 0.3362(3)
C119_2 C 0.1908(15) 0.8092(20) 0.3301(7)
C120_2 C 0.1867(13) 0.8134(18) 0.3132(7)
C121_2 C 0.2177(11) 0.8482(13) 0.3064(3)
H53_2 H 0.2408 0.8678 0.3114
C122_2 C 0.2126(11) 0.8521(13) 0.2920(3)
H54_2 H 0.2318 0.8748 0.2866
C123_2 C 0.1785(13) 0.8214(18) 0.2861(6)
C124_2 C 0.1711(17) 0.8289(23) 0.2687(6)
C125_2 C 0.0440(11) 0.5687(13) 0.3966(4)
C126_2 C 0.0728(11) 0.6136(14) 0.3895(4)
C127_2 C 0.0647(10) 0.6195(14) 0.3754(4)
H55_2 H 0.0435 0.5981 0.3702
C128_2 C 0.0890(10) 0.6584(13) 0.3694(3)
H56_2 H 0.0840 0.6638 0.3600
C129_2 C 0.1197(12) 0.6878(16) 0.3772(5)
C130_2 C 0.1328(10) 0.6806(14) 0.3914(4)
H57_2 H 0.1570 0.7003 0.3959
C131_2 C 0.1077(10) 0.6441(13) 0.3972(3)
H58_2 H 0.1130 0.6383 0.4065
C132_2 C 0.1454(14) 0.7240(17) 0.3695(6)
N33_2 N 0.1416(9) 0.7335(11) 0.3553(4)
C133_2 C 0.1708(14) 0.7685(16) 0.3504(5)
N34_2 N 0.1824(12) 0.7549(13) 0.3767(2)
N35_2 N 0.1625(7) 0.7745(10) 0.3362(3)
C134_2 C 0.1518(9) 0.7823(11) 0.3064(3)
H59_2 H 0.1322 0.7592 0.3114
C135_2 C 0.1479(9) 0.7874(11) 0.2920(3)
H60_2 H 0.1252 0.7682 0.2866
O45_4 O 0.5316(8) 0.0632(9) 0.3773(2)
N9_3 N 1.0000 0.9999 0.2491(7)
O46_4 O 0.4652(7) 0.9302(8) 0.4375(2)
O59_5 O 0.3300(6) 0.2670(8) 0.5797(2)
O60_5 O 0.3300(6) 0.0631(10) 0.5797(2)
O71_5 O 0.3249(7) 0.1918(9) 0.5959(2)
O72_5 O 0.3249(7) 0.1332(11) 0.5959(2)
O74_5 O 0.3873(8) 0.2249(11) 0.5779(2)
O75_5 O 0.3873(8) 0.1625(14) 0.5779(2)
O81_5 O 0.2746(7) 0.1660(10) 0.5721(2)
O82_5 O 0.2746(7) 0.1087(12) 0.5721(2)
N9_4 N 0.0001 0.0000 0.2491(7)
O59_6 O 0.7330(8) 0.0631(6) 0.5797(2)
O60_6 O 0.9369(10) 0.2670(8) 0.5797(2)
O71_6 O 0.8082(9) 0.1332(6) 0.5959(2)
O72_6 O 0.8668(11) 0.1918(9) 0.5959(2)
O74_6 O 0.7751(11) 0.1625(8) 0.5779(2)
O75_6 O 0.8375(14) 0.2249(11) 0.5779(2)
O81_6 O 0.8340(10) 0.1087(7) 0.5721(2)
O82_6 O 0.8913(12) 0.1660(10) 0.5721(2)
C89_3 C 0.251(2) 0.1257(23) 0.5705(7)
C90_3 C 0.208(2) 0.1043(23) 0.5685(5)
C91_3 C 0.1938(11) 0.1303(15) 0.5691(2)
H39_3 H 0.2097 0.1590 0.5699
C92_3 C 0.1523(11) 0.1078(17) 0.5682(2)
H40_3 H 0.1385 0.1228 0.5682
C93_3 C 0.126(2) 0.0632(23) 0.5671(4)
C94_3 C 0.087(5) 0.044(6) 0.5651(7)
N24_3 N 0.0645(14) 0.0592(21) 0.5659(3)
C95_3 C 0.0221(9) 0.0443(13) 0.5654(5)
C103_3 C 0.1938(11) 0.0636(10) 0.5691(2)
H43_3 H 0.2097 0.0508 0.5699
C104_3 C 0.1523(11) 0.0446(13) 0.5682(2)
H44_3 H 0.1385 0.0158 0.5682
N26_3 N 0.0645(14) 0.0054(16) 0.5659(3)
C167_3 C 0.2348(10) 0.0212(16) 0.7106(5)
C168_3 C 0.2145(10) 0.0140(14) 0.7248(4)
H75_3 H 0.2100 0.0337 0.7293
C170_3 C 0.2453(9) 0.0574(17) 0.7029(6)
N43_3 N 0.2586(7) 0.0669(11) 0.6887(4)
C171_3 C 0.2644(7) 0.1019(16) 0.6838(5)
N44_3 N 0.2590(14) 0.1295(16) 0.6893(7)
C172_3 C 0.2482(16) 0.1242(18) 0.7038(9)
N45_3 N 0.2392(6) 0.0883(13) 0.7101(2)
N46_3 N 0.2787(7) 0.1079(10) 0.6696(3)
C173_3 C 0.2851(13) 0.1426(15) 0.6635(7)
C174_3 C 0.2934(12) 0.1467(13) 0.6466(7)
C175_3 C 0.2972(7) 0.1157(11) 0.6398(3)
H77_3 H 0.2937 0.0926 0.6448
C176_3 C 0.3062(7) 0.1208(11) 0.6254(3)
H78_3 H 0.3097 0.1016 0.6200
C177_3 C 0.3096(12) 0.1549(13) 0.6195(6)
C178_3 C 0.3245(15) 0.1623(17) 0.6021(6)
O49_3 O 0.1760(5) 0.2791(5) 0.7420(2)
O50_3 O 0.1967(6) 0.3198(7) 0.7226(2)
C179_3 C 0.1914(6) 0.2894(11) 0.7300(4)
C180_3 C 0.2075(9) 0.2606(11) 0.7229(4)
C181_3 C 0.2215(10) 0.2687(10) 0.7088(4)
H79_3 H 0.2213 0.2899 0.7036
C182_3 C 0.2361(9) 0.2444(10) 0.7028(3)
H80_3 H 0.2465 0.2494 0.6934
C183_3 C 0.2348(10) 0.2137(12) 0.7106(5)
C184_3 C 0.2145(10) 0.2006(10) 0.7248(4)
H81_3 H 0.2100 0.1764 0.7293
C185_3 C 0.2031(9) 0.2257(10) 0.7306(3)
H82_3 H 0.1920 0.2204 0.7399
C186_3 C 0.2453(9) 0.1880(14) 0.7029(6)
N47_3 N 0.2586(7) 0.1918(9) 0.6887(4)
C187_3 C 0.2644(7) 0.1626(14) 0.6838(5)
N48_3 N 0.2392(6) 0.1510(12) 0.7101(2)
N49_3 N 0.2787(7) 0.1709(7) 0.6696(3)
C188_3 C 0.2972(7) 0.1816(9) 0.6398(3)
H83_3 H 0.2937 0.2012 0.6448
C189_3 C 0.3062(7) 0.1855(9) 0.6254(3)
H84_3 H 0.3097 0.2082 0.6200
Cu15_3 Cu 0.17833(18) 0.35667(16) 0.73000(6)
Cu18_3 Cu 0.15413(16) 0.30826(14) 0.75295(5)
C46_3 C 0.0221(9) 0.9779(9) 0.5654(5)
N12_3 N 0.0000 1.0000 0.5650(4)
O15_3 O 0.1030(7) 0.8240(5) 0.7420(2)
O16_3 O 0.1230(9) 0.8033(6) 0.7226(2)
C58_3 C 0.0979(13) 0.8086(6) 0.7300(4)
C59_3 C 0.0530(14) 0.7925(9) 0.7229(4)
C60_3 C 0.0471(14) 0.7785(10) 0.7088(4)
H23_3 H 0.0685 0.7787 0.7036
C61_3 C 0.0082(13) 0.7639(9) 0.7028(3)
H24_3 H 0.0028 0.7535 0.6934
C64_3 C 0.0225(13) 0.7969(9) 0.7306(3)
H26_3 H 0.0283 0.8080 0.7399
Cu7_3 Cu 0.17833(8) 0.82167(18) 0.73000(6)
Cu8_3 Cu 0.15412(7) 0.84587(16) 0.75295(5)
O43_3 O 0.1760(5) 0.8970(7) 0.7420(2)
O44_3 O 0.1967(6) 0.8770(9) 0.7226(2)
O45_5 O 0.1983(3) 0.8018(8) 0.7107(2)
O46_5 O 0.1317(3) 0.8682(7) 0.7709(2)
C163_3 C 0.1914(6) 0.9021(13) 0.7300(4)
C164_3 C 0.2075(9) 0.9470(14) 0.7229(4)
C165_3 C 0.2215(10) 0.9529(14) 0.7088(4)
H73_3 H 0.2213 0.9315 0.7036
C166_3 C 0.2361(9) 0.9918(13) 0.7028(3)
H74_3 H 0.2465 0.9972 0.6934
C169_3 C 0.2031(9) 0.9775(13) 0.7306(3)
H76_3 H 0.1920 0.9717 0.7399
O61_3 O 0.1570(6) 0.7692(8) 0.7401(2)
O62_3 O 0.2308(8) 0.8430(6) 0.7401(2)
O63_3 O 0.1365(5) 0.7896(8) 0.76051(19)
O64_3 O 0.2104(8) 0.8635(5) 0.76051(19)
C96_3 C 0.8743(23) 0.1257(11) 0.5705(7)
C97_3 C 0.8957(23) 0.1041(12) 0.5685(5)
C98_3 C 0.8697(15) 0.0636(10) 0.5691(2)
H41_3 H 0.8410 0.0508 0.5699
C99_3 C 0.8922(17) 0.0446(13) 0.5682(2)
H42_3 H 0.8772 0.0158 0.5682
C100_3 C 0.9368(23) 0.0632(11) 0.5671(4)
C101_3 C 0.956(6) 0.044(3) 0.5651(7)
N25_3 N 0.9408(21) 0.0054(16) 0.5659(3)
C105_3 C 0.9364(10) 0.1303(15) 0.5691(2)
H45_3 H 0.9492 0.1590 0.5699
C106_3 C 0.9554(13) 0.1078(17) 0.5682(2)
H46_3 H 0.9842 0.1228 0.5682
N27_3 N 0.9946(16) 0.0592(21) 0.5659(3)
Cu1_3 Cu 0.64333(16) 0.82167(8) 0.73000(6)
Cu2_3 Cu 0.69174(14) 0.84588(7) 0.75295(5)
O1_3 O 0.6121(6) 0.8430(6) 0.7401(2)
O2_3 O 0.6530(6) 0.8635(5) 0.76051(19)
O3_3 O 0.7209(5) 0.8240(5) 0.7420(2)
O4_3 O 0.6802(7) 0.8033(6) 0.7226(2)
O5_3 O 0.6034(7) 0.8017(3) 0.7107(2)
O6_3 O 0.7364(6) 0.8683(3) 0.7709(2)
C1_3 C 0.6201(10) 0.8565(6) 0.7518(4)
C2_3 C 0.5964(12) 0.8693(11) 0.7604(5)
C3_3 C 0.5618(11) 0.8655(10) 0.7534(3)
H1_3 H 0.5560 0.8558 0.7439
C4_3 C 0.5340(10) 0.8772(11) 0.7611(4)
H2_3 H 0.5104 0.8730 0.7562
C5_3 C 0.5399(14) 0.8933(11) 0.7746(5)
C6_3 C 0.5753(11) 0.8970(10) 0.7804(3)
H3_3 H 0.5832 0.9095 0.7894
C7_3 C 0.6014(10) 0.8839(10) 0.7740(4)
H4_3 H 0.6230 0.8854 0.7796
C8_3 C 0.5121(17) 0.9031(11) 0.7793(6)
N1_3 N 0.4782(13) 0.8965(7) 0.7733(3)
C9_3 C 0.4511(6) 0.9024(12) 0.7808(9)
N2_3 N 0.4571(6) 0.9143(13) 0.7950(6)
C10_3 C 0.4954(13) 0.9201(10) 0.8000(5)
N3_3 N 0.5253(9) 0.9177(10) 0.7927(4)
C11_3 C 0.7106(11) 0.8086(6) 0.7300(4)
C12_3 C 0.7394(11) 0.7925(9) 0.7229(4)
C13_3 C 0.7313(10) 0.7785(10) 0.7088(4)
H5_3 H 0.7101 0.7787 0.7036
C14_3 C 0.7556(10) 0.7639(9) 0.7028(3)
H6_3 H 0.7506 0.7535 0.6934
C15_3 C 0.7863(12) 0.7652(10) 0.7106(5)
C16_3 C 0.7994(10) 0.7855(10) 0.7248(4)
H7_3 H 0.8236 0.7900 0.7293
C17_3 C 0.7743(10) 0.7969(9) 0.7306(3)
H8_3 H 0.7796 0.8080 0.7399
C18_3 C 0.8120(14) 0.7547(9) 0.7029(6)
N4_3 N 0.8082(9) 0.7414(7) 0.6887(4)
C19_3 C 0.8374(14) 0.7356(7) 0.6838(5)
N5_3 N 0.8704(7) 0.7410(14) 0.6893(7)
C20_3 C 0.8759(8) 0.7518(16) 0.7038(9)
N6_3 N 0.8490(12) 0.7608(6) 0.7101(2)
N7_3 N 0.8291(7) 0.7213(7) 0.6696(3)
C21_3 C 0.8574(7) 0.7149(13) 0.6635(7)
C22_3 C 0.8532(6) 0.7066(12) 0.6466(7)
C23_3 C 0.8184(9) 0.7028(7) 0.6398(3)
H9_3 H 0.7988 0.7063 0.6448
C24_3 C 0.8145(9) 0.6938(7) 0.6254(3)
H10_3 H 0.7918 0.6903 0.6200
C25_3 C 0.8452(6) 0.6904(12) 0.6195(6)
C26_3 C 0.8377(7) 0.6755(15) 0.6021(6)
C27_3 C 0.7922(11) 0.585(2) 0.5798(6)
C28_3 C 0.7701(13) 0.541(3) 0.5814(7)
C29_3 C 0.7946(12) 0.5252(11) 0.5796(3)
H11_3 H 0.8232 0.5408 0.5784
C30_3 C 0.7725(11) 0.4838(12) 0.5797(4)
H12_3 H 0.7865 0.4692 0.5784
C31_3 C 0.7309(11) 0.462(2) 0.5816(6)
C32_3 C 0.7054(10) 0.411(2) 0.5824(5)
N8_3 N 0.7295(10) 0.3935(8) 0.5826(3)
C33_3 C 0.7086(16) 0.3544(8) 0.5826(4)
N9_5 N 0.6666 0.3334 0.5825(7)
C34_3 C 0.4887(8) 0.9775(16) 0.8855(7)
C35_3 C 0.4911(7) 0.9823(14) 0.8666(7)
C36_3 C 0.5184(11) 0.9739(9) 0.8585(4)
H13_3 H 0.5430 0.9796 0.8630
C37_3 C 0.5118(10) 0.9562(10) 0.8427(4)
H14_3 H 0.5307 0.9513 0.8378
C38_3 C 0.4744(8) 0.9488(15) 0.8369(7)
C39_3 C 0.4716(9) 0.9432(19) 0.8229(7)
N10_3 N 0.5004(9) 0.9375(10) 0.8154(3)
C40_3 C 0.8743(11) 0.749(2) 0.5705(7)
C41_3 C 0.8959(12) 0.792(2) 0.5685(5)
C42_3 C 0.9364(10) 0.8062(11) 0.5691(2)
H15_3 H 0.9492 0.7903 0.5699
C43_3 C 0.9554(13) 0.8477(11) 0.5682(2)
H16_3 H 0.9842 0.8615 0.5682
C44_3 C 0.9368(11) 0.874(2) 0.5671(4)
C45_3 C 0.956(3) 0.913(5) 0.5651(7)
N11_3 N 0.9946(16) 0.9355(14) 0.5659(3)
C47_3 C 0.2363(12) 0.8565(6) 0.7518(4)
C48_3 C 0.2728(16) 0.8693(11) 0.7604(5)
C49_3 C 0.3036(15) 0.8655(10) 0.7534(3)
H17_3 H 0.2997 0.8558 0.7439
C50_3 C 0.3431(15) 0.8772(11) 0.7611(4)
H18_3 H 0.3625 0.8730 0.7562
C51_3 C 0.3533(18) 0.8933(11) 0.7746(5)
C52_3 C 0.3216(15) 0.8970(10) 0.7804(3)
H19_3 H 0.3262 0.9095 0.7894
C53_3 C 0.2824(14) 0.8839(10) 0.7740(4)
H20_3 H 0.2623 0.8854 0.7796
C54_3 C 0.3909(20) 0.9031(11) 0.7793(6)
N13_3 N 0.4182(15) 0.8965(7) 0.7733(3)
C55_3 C 0.4246(16) 0.9201(10) 0.8000(5)
N14_3 N 0.3923(13) 0.9177(10) 0.7927(4)
C56_3 C 0.4554(14) 0.9739(9) 0.8585(4)
H21_3 H 0.4365 0.9796 0.8630
C57_3 C 0.4443(14) 0.9562(10) 0.8427(4)
H22_3 H 0.4205 0.9513 0.8378
N15_3 N 0.4370(13) 0.9375(10) 0.8154(3)
C62_3 C 0.9788(16) 0.7652(10) 0.7106(5)
C63_3 C 0.9860(14) 0.7855(10) 0.7248(4)
H25_3 H 0.9663 0.7900 0.7293
C65_3 C 0.9426(17) 0.7547(9) 0.7029(6)
N16_3 N 0.9331(11) 0.7414(7) 0.6887(4)
C66_3 C 0.8981(16) 0.7356(7) 0.6838(5)
N17_3 N 0.9117(13) 0.7608(6) 0.7101(2)
N18_3 N 0.8921(10) 0.7213(7) 0.6696(3)
C67_3 C 0.8843(11) 0.7028(7) 0.6398(3)
H27_3 H 0.9074 0.7063 0.6448
C68_3 C 0.8792(11) 0.6938(7) 0.6254(3)
H28_3 H 0.8984 0.6903 0.6200
C69_3 C 0.415(2) 0.2076(23) 0.5798(6)
C70_3 C 0.459(3) 0.2295(33) 0.5814(7)
C71_3 C 0.4748(11) 0.2695(16) 0.5796(3)
H29_3 H 0.4592 0.2825 0.5784
C72_3 C 0.5162(12) 0.2888(16) 0.5797(4)
H30_3 H 0.5308 0.3174 0.5784
C73_3 C 0.538(2) 0.2693(23) 0.5816(6)
C74_3 C 0.589(2) 0.2948(22) 0.5824(5)
N19_3 N 0.6065(8) 0.3361(13) 0.5826(3)
C75_3 C 0.6456(8) 0.3543(18) 0.5826(4)
C76_3 C 0.7924(23) 0.2078(11) 0.5798(6)
C77_3 C 0.7705(33) 0.2299(13) 0.5814(7)
C78_3 C 0.7305(16) 0.2054(12) 0.5796(3)
H31_3 H 0.7175 0.1768 0.5784
C79_3 C 0.7112(16) 0.2275(11) 0.5797(4)
H32_3 H 0.6826 0.2135 0.5784
C80_3 C 0.7307(23) 0.2691(11) 0.5816(6)
C81_3 C 0.7052(22) 0.2946(10) 0.5824(5)
N20_3 N 0.6639(13) 0.2705(10) 0.5826(3)
C82_3 C 0.6457(18) 0.2914(16) 0.5826(4)
C83_3 C 0.4748(11) 0.2054(12) 0.5796(3)
H33_3 H 0.4592 0.1768 0.5784
C84_3 C 0.5162(12) 0.2275(11) 0.5797(4)
H34_3 H 0.5308 0.2135 0.5784
N21_3 N 0.6065(8) 0.2705(10) 0.5826(3)
C85_3 C 0.7946(12) 0.2695(16) 0.5796(3)
H35_3 H 0.8232 0.2825 0.5784
C86_3 C 0.7725(11) 0.2888(16) 0.5797(4)
H36_3 H 0.7865 0.3174 0.5784
N22_3 N 0.7295(10) 0.3361(13) 0.5826(3)
C87_3 C 0.7305(16) 0.5252(11) 0.5796(3)
H37_3 H 0.7175 0.5408 0.5784
C88_3 C 0.7112(16) 0.4838(12) 0.5797(4)
H38_3 H 0.6826 0.4692 0.5784
N23_3 N 0.6639(13) 0.3935(8) 0.5826(3)
C102_3 C 0.9557(13) 0.9779(9) 0.5654(5)
C107_3 C 0.8697(15) 0.8062(11) 0.5691(2)
H47_3 H 0.8410 0.7903 0.5699
C108_3 C 0.8922(17) 0.8477(11) 0.5682(2)
H48_3 H 0.8772 0.8615 0.5682
N28_3 N 0.9408(21) 0.9355(14) 0.5659(3)
C136_3 C 0.1435(6) 0.7637(12) 0.7518(4)
C137_3 C 0.1307(11) 0.7272(16) 0.7604(5)
C138_3 C 0.1345(10) 0.6964(15) 0.7534(3)
H61_3 H 0.1442 0.7003 0.7439
C139_3 C 0.1228(11) 0.6569(15) 0.7611(4)
H62_3 H 0.1270 0.6375 0.7562
C140_3 C 0.1067(11) 0.6467(18) 0.7746(5)
C141_3 C 0.1030(10) 0.6784(15) 0.7804(3)
H63_3 H 0.0905 0.6738 0.7894
C142_3 C 0.1161(10) 0.7176(14) 0.7740(4)
H64_3 H 0.1146 0.7377 0.7796
C143_3 C 0.0969(11) 0.6091(20) 0.7793(6)
N36_3 N 0.1035(7) 0.5818(15) 0.7733(3)
C144_3 C 0.0976(12) 0.5488(13) 0.7808(9)
N37_3 N 0.0857(13) 0.5429(14) 0.7950(6)
C145_3 C 0.0799(10) 0.5754(16) 0.8000(5)
N38_3 N 0.0823(10) 0.6077(13) 0.7927(4)
C146_3 C 0.0225(16) 0.5113(18) 0.8855(7)
C147_3 C 0.0177(14) 0.5089(16) 0.8666(7)
C148_3 C 0.0261(9) 0.5446(14) 0.8585(4)
H65_3 H 0.0204 0.5635 0.8630
C149_3 C 0.0438(10) 0.5557(14) 0.8427(4)
H66_3 H 0.0487 0.5795 0.8378
C150_3 C 0.0512(15) 0.5257(17) 0.8369(7)
C151_3 C 0.0568(19) 0.5285(21) 0.8229(7)
N39_3 N 0.0625(10) 0.5630(13) 0.8154(3)
O40_3 O 0.1570(6) 0.3879(6) 0.7401(2)
O41_3 O 0.1365(5) 0.3470(6) 0.76051(19)
C152_3 C 0.1435(6) 0.3799(10) 0.7518(4)
C153_3 C 0.1307(11) 0.4036(12) 0.7604(5)
C154_3 C 0.1345(10) 0.4382(11) 0.7534(3)
H67_3 H 0.1442 0.4440 0.7439
C155_3 C 0.1228(11) 0.4660(10) 0.7611(4)
H68_3 H 0.1270 0.4896 0.7562
C156_3 C 0.1067(11) 0.4601(14) 0.7746(5)
C157_3 C 0.1030(10) 0.4247(11) 0.7804(3)
H69_3 H 0.0905 0.4168 0.7894
C158_3 C 0.1161(10) 0.3986(10) 0.7740(4)
H70_3 H 0.1146 0.3770 0.7796
C159_3 C 0.0969(11) 0.4879(17) 0.7793(6)
N40_3 N 0.1035(7) 0.5218(13) 0.7733(3)
C160_3 C 0.0799(10) 0.5046(13) 0.8000(5)
N41_3 N 0.0823(10) 0.4747(9) 0.7927(4)
C161_3 C 0.0261(9) 0.4816(11) 0.8585(4)
H71_3 H 0.0204 0.4570 0.8630
C162_3 C 0.0438(10) 0.4882(10) 0.8427(4)
H72_3 H 0.0487 0.4693 0.8378
N42_3 N 0.0625(10) 0.4996(9) 0.8154(3)
O52_3 O 0.6121(6) 0.7692(8) 0.7401(2)
O53_3 O 0.6530(6) 0.7896(8) 0.76051(19)
C190_3 C 0.6201(10) 0.7637(12) 0.7518(4)
C191_3 C 0.5964(12) 0.7272(16) 0.7604(5)
C192_3 C 0.5618(11) 0.6964(15) 0.7534(3)
H85_3 H 0.5560 0.7003 0.7439
C193_3 C 0.5340(10) 0.6569(15) 0.7611(4)
H86_3 H 0.5104 0.6375 0.7562
C194_3 C 0.5399(14) 0.6467(18) 0.7746(5)
C195_3 C 0.5753(11) 0.6784(15) 0.7804(3)
H87_3 H 0.5832 0.6738 0.7894
C196_3 C 0.6014(10) 0.7176(14) 0.7740(4)
H88_3 H 0.6230 0.7377 0.7796
C197_3 C 0.5121(17) 0.6091(20) 0.7793(6)
N50_3 N 0.4782(13) 0.5818(15) 0.7733(3)
C198_3 C 0.4512(13) 0.5489(6) 0.7808(9)
N51_3 N 0.4571(14) 0.5429(6) 0.7950(6)
C199_3 C 0.4954(13) 0.5754(16) 0.8000(5)
N52_3 N 0.5253(9) 0.6077(13) 0.7927(4)
C200_3 C 0.4887(18) 0.5113(8) 0.8855(7)
C201_3 C 0.4911(16) 0.5089(7) 0.8666(7)
C202_3 C 0.5184(11) 0.5446(14) 0.8585(4)
H89_3 H 0.5430 0.5635 0.8630
C203_3 C 0.5118(10) 0.5557(14) 0.8427(4)
H90_3 H 0.5307 0.5795 0.8378
C204_3 C 0.4743(17) 0.5256(8) 0.8369(7)
C205_3 C 0.4715(21) 0.5284(9) 0.8229(7)
N53_3 N 0.5004(9) 0.5630(13) 0.8154(3)
O55_3 O 0.2308(8) 0.3879(6) 0.7401(2)
O56_3 O 0.2104(8) 0.3470(6) 0.76051(19)
C206_3 C 0.2363(12) 0.3799(10) 0.7518(4)
C207_3 C 0.2728(16) 0.4036(12) 0.7604(5)
C208_3 C 0.3036(15) 0.4382(11) 0.7534(3)
H91_3 H 0.2997 0.4440 0.7439
C209_3 C 0.3431(15) 0.4660(10) 0.7611(4)
H92_3 H 0.3625 0.4896 0.7562
C210_3 C 0.3533(18) 0.4601(14) 0.7746(5)
C211_3 C 0.3216(15) 0.4247(11) 0.7804(3)
H93_3 H 0.3262 0.4168 0.7894
C212_3 C 0.2824(14) 0.3986(10) 0.7740(4)
H94_3 H 0.2623 0.3770 0.7796
C213_3 C 0.3909(20) 0.4879(17) 0.7793(6)
N54_3 N 0.4182(15) 0.5218(13) 0.7733(3)
C214_3 C 0.4246(16) 0.5046(13) 0.8000(5)
N55_3 N 0.3923(13) 0.4747(9) 0.7927(4)
C215_3 C 0.4554(14) 0.4816(11) 0.8585(4)
H95_3 H 0.4365 0.4570 0.8630
C216_3 C 0.4443(14) 0.4882(10) 0.8427(4)
H96_3 H 0.4205 0.4693 0.8378
N56_3 N 0.4370(13) 0.4996(9) 0.8154(3)
O66_3 O 0.7209(5) 0.8970(7) 0.7420(2)
O69_3 O 0.6802(7) 0.8770(9) 0.7226(2)
H119 H 0.375206 0.977569 0.909443
O28_3 O 0.1030(7) 0.2791(9) 0.7420(2)
O29_3 O 0.1230(9) 0.3198(11) 0.7226(2)
C109_3 C 0.0979(13) 0.2894(14) 0.7300(4)
C110_3 C 0.0530(14) 0.2606(17) 0.7229(4)
C111_3 C 0.0471(14) 0.2687(17) 0.7088(4)
H49_3 H 0.0685 0.2899 0.7036
C112_3 C 0.0082(13) 0.2444(16) 0.7028(3)
H50_3 H 0.0028 0.2494 0.6934
C115_3 C 0.0225(13) 0.2257(16) 0.7306(3)
H52_3 H 0.0283 0.2204 0.7399
N12_4 N 0.0000 0.0001 0.5650(4)
C113_3 C 0.9788(16) 0.2137(19) 0.7106(5)
C114_3 C 0.9860(14) 0.2006(17) 0.7248(4)
H51_3 H 0.9663 0.1764 0.7293
C116_3 C 0.9426(17) 0.1880(19) 0.7029(6)
N29_3 N 0.9331(11) 0.1918(13) 0.6887(4)
C117_3 C 0.8981(16) 0.1626(17) 0.6838(5)
N30_3 N 0.8705(16) 0.1296(21) 0.6893(7)
C118_3 C 0.8758(18) 0.1241(24) 0.7038(9)
N31_3 N 0.9117(13) 0.1510(14) 0.7101(2)
N32_3 N 0.8921(10) 0.1709(12) 0.6696(3)
C119_3 C 0.8574(15) 0.1426(20) 0.6635(7)
C120_3 C 0.8533(13) 0.1468(18) 0.6466(7)
C121_3 C 0.8843(11) 0.1816(13) 0.6398(3)
H53_3 H 0.9074 0.2012 0.6448
C122_3 C 0.8792(11) 0.1855(13) 0.6254(3)
H54_3 H 0.8984 0.2082 0.6200
C123_3 C 0.8451(13) 0.1548(18) 0.6195(6)
C124_3 C 0.8377(17) 0.1623(23) 0.6021(6)
C129_3 C 0.7863(12) 0.0212(16) 0.7106(5)
C130_3 C 0.7994(10) 0.0140(14) 0.7248(4)
H57_3 H 0.8236 0.0337 0.7293
C132_3 C 0.8120(14) 0.0574(17) 0.7029(6)
N33_3 N 0.8082(9) 0.0669(11) 0.6887(4)
C133_3 C 0.8374(14) 0.1019(16) 0.6838(5)
N34_3 N 0.8490(12) 0.0883(13) 0.7101(2)
N35_3 N 0.8291(7) 0.1079(10) 0.6696(3)
C134_3 C 0.8184(9) 0.1157(11) 0.6398(3)
H59_3 H 0.7988 0.0926 0.6448
C135_3 C 0.8145(9) 0.1208(11) 0.6254(3)
H60_3 H 0.7918 0.1016 0.6200
O45_6 O 0.1982(8) 0.3966(9) 0.7107(2)
O46_6 O 0.1318(7) 0.2636(8) 0.7709(2)
C125_3 C 0.7106(11) 0.9021(13) 0.7300(4)
C126_3 C 0.7394(11) 0.9470(14) 0.7229(4)
C127_3 C 0.7313(10) 0.9529(14) 0.7088(4)
H55_3 H 0.7101 0.9315 0.7036
C128_3 C 0.7556(10) 0.9918(13) 0.7028(3)
H56_3 H 0.7506 0.9972 0.6934
C131_3 C 0.7743(10) 0.9775(13) 0.7306(3)
H58_3 H 0.7796 0.9717 0.7399
H119_2 H 0.0224314 0.397637 0.909443
N12_5 N 0.9999 1.0000 0.5650(4)
H99_3 H 0.0191666 0.400877 0.919829
H100_3 H 0.000164074 0.384744 0.903765
H103_3 H 0.377661 0.984989 0.90609
H118_3 H 0.00276651 0.616741 0.903937
H114_3 H 0.376198 0.974919 0.914729
H119_3 H 0.0224314 0.624794 0.909443
H114_4 H 0.0250813 0.401279 0.914729
H103_4 H 0.0150113 0.392673 0.90609
H99_4 H 0.38171 0.980833 0.919829
H100_4 H 0.38458 0.999836 0.903765
H118_4 H 0.613974 0.997233 0.903937
H119_4 H 0.602363 0.977569 0.909443
Cu9_2 Cu 0.53532(21) 0.00004(16) 0.09199(4)
Cu24_2 Cu 0.46472(14) 0.00004(16) 0.09199(4)
O73_2 O 0.5582(11) 0.0540(8) 0.0888(2)
O78_2 O 0.5342(9) 0.0055(7) 0.1135(3)
H114_5 H 0.623802 0.0250813 0.0852714
O7_2 O 0.0084(7) 0.5335(6) 0.0708(2)
O10_2 O 0.0587(7) 0.5580(7) 0.0946(2)
O11_2 O 0.0033(6) 0.6036(6) 0.0870(2)
C21_4 C 0.0482(13) 0.5241(7) 0.0032(7)
C22_4 C 0.0399(12) 0.5199(6) 0.0201(7)
C23_4 C 0.0361(7) 0.4851(9) 0.0269(3)
H9_4 H 0.0396 0.4655 0.0219
C24_4 C 0.0271(7) 0.4812(9) 0.0413(3)
H10_4 H 0.0236 0.4585 0.0467
C25_4 C 0.0237(12) 0.5119(6) 0.0472(6)
C26_4 C 0.0088(15) 0.5044(7) 0.0646(6)
C40_4 C 0.082(2) 0.5410(11) 0.0962(7)
C41_4 C 0.125(2) 0.5626(12) 0.0982(5)
C42_4 C 0.1395(11) 0.6031(10) 0.0976(2)
H15_4 H 0.1236 0.6159 0.0968
C43_4 C 0.1810(11) 0.6221(13) 0.0985(2)
H16_4 H 0.1948 0.6509 0.0985
C44_4 C 0.207(2) 0.6035(11) 0.0996(4)
C45_4 C 0.246(5) 0.623(3) 0.1016(7)
N11_4 N 0.2688(14) 0.6613(16) 0.1008(3)
C46_4 C 0.3112(9) 0.6888(9) 0.1013(5)
N12_6 N 0.3333 0.6667 0.1017(4)
O17_2 O 0.0084(7) 0.4749(9) 0.0708(2)
C67_4 C 0.0361(7) 0.5510(11) 0.0269(3)
H27_4 H 0.0396 0.5741 0.0219
C68_4 C 0.0271(7) 0.5459(11) 0.0413(3)
H28_4 H 0.0236 0.5651 0.0467
O23_2 O 0.4993(10) 0.9413(7) 0.0946(2)
C89_4 C 0.4590(23) 0.918(2) 0.0962(7)
C90_4 C 0.4376(23) 0.875(2) 0.0982(5)
C91_4 C 0.4636(15) 0.8605(11) 0.0976(2)
H39_4 H 0.4923 0.8764 0.0968
C92_4 C 0.4411(17) 0.8190(11) 0.0985(2)
H40_4 H 0.4561 0.8052 0.0985
C93_4 C 0.3965(23) 0.793(2) 0.0996(4)
C94_4 C 0.377(6) 0.754(5) 0.1016(7)
N24_4 N 0.3925(21) 0.7312(14) 0.1008(3)
C95_4 C 0.3776(13) 0.6888(9) 0.1013(5)
O24_2 O 0.4420(7) 0.5007(10) 0.0946(2)
C96_4 C 0.4590(11) 0.5410(23) 0.0962(7)
C97_4 C 0.4374(12) 0.5624(23) 0.0982(5)
C98_4 C 0.3969(10) 0.5364(15) 0.0976(2)
H41_4 H 0.3841 0.5077 0.0968
C99_4 C 0.3779(13) 0.5589(17) 0.0985(2)
H42_4 H 0.3491 0.5439 0.0985
C100_4 C 0.3965(11) 0.6035(23) 0.0996(4)
C101_4 C 0.377(3) 0.623(6) 0.1016(7)
N25_4 N 0.3387(16) 0.6075(21) 0.1008(3)
C102_4 C 0.3112(9) 0.6224(13) 0.1013(5)
O25_2 O 0.4420(7) 0.9413(7) 0.0946(2)
C103_4 C 0.3969(10) 0.8605(11) 0.0976(2)
H43_4 H 0.3841 0.8764 0.0968
C104_4 C 0.3779(13) 0.8190(11) 0.0985(2)
H44_4 H 0.3491 0.8052 0.0985
N26_4 N 0.3387(16) 0.7312(14) 0.1008(3)
O26_2 O 0.4993(10) 0.5580(7) 0.0946(2)
C105_4 C 0.4636(15) 0.6031(10) 0.0976(2)
H45_4 H 0.4923 0.6159 0.0968
C106_4 C 0.4411(17) 0.6221(13) 0.0985(2)
H46_4 H 0.4561 0.6509 0.0985
N27_4 N 0.3925(21) 0.6613(16) 0.1008(3)
O27_2 O 0.0587(7) 0.5007(10) 0.0946(2)
C107_4 C 0.1395(11) 0.5364(15) 0.0976(2)
H47_4 H 0.1236 0.5077 0.0968
C108_4 C 0.1810(11) 0.5589(17) 0.0985(2)
H48_4 H 0.1948 0.5439 0.0985
N28_4 N 0.2688(14) 0.6075(21) 0.1008(3)
O47_2 O 0.5251(9) 0.9916(7) 0.0708(2)
O48_2 O 0.6003(8) 0.9967(6) 0.0870(2)
C173_4 C 0.4759(15) 0.9518(13) 0.0032(7)
C174_4 C 0.4800(13) 0.9601(12) 0.0201(7)
C175_4 C 0.4490(11) 0.9639(7) 0.0269(3)
H77_4 H 0.4259 0.9604 0.0219
C176_4 C 0.4541(11) 0.9729(7) 0.0413(3)
H78_4 H 0.4349 0.9764 0.0467
C177_4 C 0.4882(13) 0.9763(12) 0.0472(6)
C178_4 C 0.4956(17) 0.9912(15) 0.0646(6)
O51_2 O 0.4665(6) 0.9916(7) 0.0708(2)
C188_4 C 0.5149(9) 0.9639(7) 0.0269(3)
H83_4 H 0.5345 0.9604 0.0219
C189_4 C 0.5188(9) 0.9729(7) 0.0413(3)
H84_4 H 0.5415 0.9764 0.0467
O58_4 O 0.0033(6) 0.3997(8) 0.0870(2)
Cu20_2 Cu 0.46472(14) 0.46468(21) 0.09199(4)
Cu27_2 Cu 0.53532(21) 0.53528(14) 0.09199(4)
Cu1_4 Cu 0.15500(8) 0.31000(16) 0.93667(6)
Cu2_4 Cu 0.17921(7) 0.35841(14) 0.91372(5)
O1_4 O 0.1763(6) 0.2788(6) 0.9266(2)
O2_4 O 0.1968(5) 0.3197(6) 0.90616(19)
O3_4 O 0.1573(5) 0.3876(5) 0.9247(2)
O4_4 O 0.1366(6) 0.3469(7) 0.9441(2)
O5_4 O 0.1350(3) 0.2701(7) 0.9560(2)
O6_4 O 0.2016(3) 0.4031(6) 0.8958(2)
O9_3 O 0.3278(7) 0.1953(6) 0.7802(3)
C1_4 C 0.1898(6) 0.2868(10) 0.9149(4)
C2_4 C 0.2026(11) 0.2631(12) 0.9063(5)
C3_4 C 0.1988(10) 0.2285(11) 0.9133(3)
H1_4 H 0.1891 0.2227 0.9228
C4_4 C 0.2105(11) 0.2007(10) 0.9056(4)
H2_4 H 0.2063 0.1771 0.9105
C5_4 C 0.2266(11) 0.2066(14) 0.8921(5)
C6_4 C 0.2303(10) 0.2420(11) 0.8863(3)
H3_4 H 0.2428 0.2499 0.8773
C7_4 C 0.2172(10) 0.2681(10) 0.8927(4)
H4_4 H 0.2187 0.2897 0.8871
C8_4 C 0.2364(11) 0.1788(17) 0.8874(6)
N1_4 N 0.2298(7) 0.1449(13) 0.8934(3)
C9_4 C 0.2357(12) 0.1178(6) 0.8859(9)
N2_4 N 0.2476(13) 0.1238(6) 0.8717(6)
C10_4 C 0.2534(10) 0.1621(13) 0.8667(5)
N3_4 N 0.2510(10) 0.1920(9) 0.8740(4)
C11_4 C 0.1419(6) 0.3773(11) 0.9367(4)
C12_4 C 0.1258(9) 0.4061(11) 0.9438(4)
C13_4 C 0.1118(10) 0.3980(10) 0.9579(4)
H5_4 H 0.1120 0.3768 0.9631
C14_4 C 0.0972(9) 0.4223(10) 0.9639(3)
H6_4 H 0.0868 0.4173 0.9733
C15_4 C 0.0985(10) 0.4530(12) 0.9561(5)
C16_4 C 0.1188(10) 0.4661(10) 0.9419(4)
H7_4 H 0.1233 0.4903 0.9374
C17_4 C 0.1302(9) 0.4410(10) 0.9361(3)
H8_4 H 0.1413 0.4463 0.9268
C18_4 C 0.0880(9) 0.4787(14) 0.9638(6)
N4_4 N 0.0747(7) 0.4749(9) 0.9780(4)
C19_4 C 0.0689(7) 0.5041(14) 0.9829(5)
N5_4 N 0.0743(14) 0.5371(7) 0.9774(7)
C20_4 C 0.0851(16) 0.5426(8) 0.9629(9)
N6_4 N 0.0941(6) 0.5157(12) 0.9566(2)
N7_4 N 0.0546(7) 0.4958(7) 0.9971(3)
C34_4 C 0.3108(16) 0.1554(8) 0.7812(7)
C35_4 C 0.3156(14) 0.1578(7) 0.8001(7)
C36_4 C 0.3072(9) 0.1851(11) 0.8082(4)
H13_4 H 0.3129 0.2097 0.8037
C37_4 C 0.2895(10) 0.1785(10) 0.8240(4)
H14_4 H 0.2846 0.1974 0.8289
C38_4 C 0.2821(15) 0.1411(8) 0.8298(7)
C39_4 C 0.2765(19) 0.1383(9) 0.8438(7)
N10_4 N 0.2708(10) 0.1671(9) 0.8513(3)
O14_3 O 0.3278(7) 0.1325(9) 0.7802(3)
C50_4 C 0.2105(11) 0.0098(15) 0.9056(4)
H18_4 H 0.2063 0.0292 0.9105
C51_4 C 0.2266(11) 0.0200(18) 0.8921(5)
C54_4 C 0.2364(11) 0.0576(20) 0.8874(6)
N13_4 N 0.2298(7) 0.0849(15) 0.8934(3)
C55_4 C 0.2534(10) 0.0913(16) 0.8667(5)
N14_4 N 0.2510(10) 0.0590(13) 0.8740(4)
C56_4 C 0.3072(9) 0.1221(14) 0.8082(4)
H21_4 H 0.3129 0.1032 0.8037
C57_4 C 0.2895(10) 0.1110(14) 0.8240(4)
H22_4 H 0.2846 0.0872 0.8289
N15_4 N 0.2708(10) 0.1037(13) 0.8513(3)
O15_4 O 0.1573(5) 0.7697(7) 0.9247(2)
O16_4 O 0.1366(6) 0.7897(9) 0.9441(2)
C58_4 C 0.1419(6) 0.7646(13) 0.9367(4)
C59_4 C 0.1258(9) 0.7197(14) 0.9438(4)
C60_4 C 0.1118(10) 0.7138(14) 0.9579(4)
H23_4 H 0.1120 0.7352 0.9631
C61_4 C 0.0972(9) 0.6749(13) 0.9639(3)
H24_4 H 0.0868 0.6695 0.9733
C62_4 C 0.0985(10) 0.6455(16) 0.9561(5)
C63_4 C 0.1188(10) 0.6527(14) 0.9419(4)
H25_4 H 0.1233 0.6330 0.9374
C64_4 C 0.1302(9) 0.6892(13) 0.9361(3)
H26_4 H 0.1413 0.6950 0.9268
C65_4 C 0.0880(9) 0.6093(17) 0.9638(6)
N16_4 N 0.0747(7) 0.5998(11) 0.9780(4)
C66_4 C 0.0689(7) 0.5648(16) 0.9829(5)
N17_4 N 0.0941(6) 0.5784(13) 0.9566(2)
N18_4 N 0.0546(7) 0.5588(10) 0.9971(3)
Cu7_4 Cu 0.15500(18) 0.84500(8) 0.93667(6)
Cu8_4 Cu 0.17920(16) 0.82079(7) 0.91372(5)
O43_4 O 0.2303(7) 0.8427(5) 0.9247(2)
O44_4 O 0.2103(9) 0.8634(6) 0.9441(2)
O45_7 O 0.1351(8) 0.8650(3) 0.9560(2)
O46_7 O 0.2015(7) 0.7984(3) 0.8958(2)
C163_4 C 0.2354(13) 0.8581(6) 0.9367(4)
C164_4 C 0.2803(14) 0.8742(9) 0.9438(4)
C165_4 C 0.2862(14) 0.8882(10) 0.9579(4)
H73_4 H 0.2648 0.8880 0.9631
C166_4 C 0.3251(13) 0.9028(9) 0.9639(3)
H74_4 H 0.3305 0.9132 0.9733
C167_4 C 0.3545(16) 0.9015(10) 0.9561(5)
C168_4 C 0.3473(14) 0.8812(10) 0.9419(4)
H75_4 H 0.3670 0.8767 0.9374
C169_4 C 0.3108(13) 0.8698(9) 0.9361(3)
H76_4 H 0.3050 0.8587 0.9268
C170_4 C 0.3907(17) 0.9120(9) 0.9638(6)
N43_4 N 0.4002(11) 0.9253(7) 0.9780(4)
C171_4 C 0.4352(16) 0.9311(7) 0.9829(5)
N44_4 N 0.4628(16) 0.9257(14) 0.9774(7)
C172_4 C 0.4575(18) 0.9149(16) 0.9629(9)
N45_4 N 0.4216(13) 0.9059(6) 0.9566(2)
N46_4 N 0.4412(10) 0.9454(7) 0.9971(3)
O49_4 O 0.6124(5) 0.8427(5) 0.9247(2)
O50_4 O 0.6531(7) 0.8634(6) 0.9441(2)
C179_4 C 0.6227(11) 0.8581(6) 0.9367(4)
C180_4 C 0.5939(11) 0.8742(9) 0.9438(4)
C181_4 C 0.6020(10) 0.8882(10) 0.9579(4)
H79_4 H 0.6232 0.8880 0.9631
C182_4 C 0.5777(10) 0.9028(9) 0.9639(3)
H80_4 H 0.5827 0.9132 0.9733
C183_4 C 0.5470(12) 0.9015(10) 0.9561(5)
C184_4 C 0.5339(10) 0.8812(10) 0.9419(4)
H81_4 H 0.5097 0.8767 0.9374
C185_4 C 0.5590(10) 0.8698(9) 0.9361(3)
H82_4 H 0.5537 0.8587 0.9268
C186_4 C 0.5213(14) 0.9120(9) 0.9638(6)
N47_4 N 0.5251(9) 0.9253(7) 0.9780(4)
C187_4 C 0.4959(14) 0.9311(7) 0.9829(5)
N48_4 N 0.4843(12) 0.9059(6) 0.9566(2)
N49_4 N 0.5042(7) 0.9454(7) 0.9971(3)
O52_4 O 0.1025(8) 0.2788(6) 0.9266(2)
O53_4 O 0.1229(8) 0.3197(6) 0.90616(19)
C190_4 C 0.0970(12) 0.2868(10) 0.9149(4)
C191_4 C 0.0605(16) 0.2631(12) 0.9063(5)
C192_4 C 0.0297(15) 0.2285(11) 0.9133(3)
H85_4 H 0.0336 0.2227 0.9228
C195_4 C 0.0117(15) 0.2420(11) 0.8863(3)
H87_4 H 0.0071 0.2499 0.8773
C196_4 C 0.0509(14) 0.2681(10) 0.8927(4)
H88_4 H 0.0710 0.2897 0.8871
Cu11_3 Cu 0.33329(16) 0.20195(14) 0.75866(4)
O59_7 O 0.3366(6) 0.2703(6) 0.7537(2)
Cu12_3 Cu 0.33329(16) 0.13135(21) 0.75866(4)
O60_7 O 0.3366(6) 0.0664(8) 0.7537(2)
Cu15_4 Cu 0.69000(16) 0.84500(18) 0.93667(6)
Cu18_4 Cu 0.64159(14) 0.82080(16) 0.91372(5)
O61_4 O 0.1025(8) 0.8237(6) 0.9266(2)
O62_4 O 0.1763(6) 0.8975(8) 0.9266(2)
O63_4 O 0.1229(8) 0.8032(5) 0.90616(19)
O64_4 O 0.1968(5) 0.8771(8) 0.90616(19)
O66_4 O 0.2303(7) 0.3876(5) 0.9247(2)
O69_4 O 0.2103(9) 0.3469(7) 0.9441(2)
O71_7 O 0.3417(7) 0.2002(6) 0.7375(2)
O72_7 O 0.3417(7) 0.1416(9) 0.7375(2)
O74_7 O 0.2793(8) 0.1709(8) 0.7555(2)
O75_7 O 0.2793(8) 0.1085(11) 0.7555(2)
O81_7 O 0.3920(7) 0.2247(7) 0.7613(2)
O82_7 O 0.3920(7) 0.1674(10) 0.7613(2)
C47_4 C 0.1898(6) 0.9030(12) 0.9149(4)
C48_4 C 0.2026(11) 0.9395(16) 0.9063(5)
C49_4 C 0.1988(10) 0.9703(15) 0.9133(3)
H17_4 H 0.1891 0.9664 0.9228
C52_4 C 0.2303(10) 0.9883(15) 0.8863(3)
H19_4 H 0.2428 0.9929 0.8773
C53_4 C 0.2172(10) 0.9491(14) 0.8927(4)
H20_4 H 0.2187 0.9290 0.8871
C136_4 C 0.0970(12) 0.8102(6) 0.9149(4)
C137_4 C 0.0605(16) 0.7974(11) 0.9063(5)
C138_4 C 0.0297(15) 0.8012(10) 0.9133(3)
H61_4 H 0.0336 0.8109 0.9228
C141_4 C 0.0117(15) 0.7697(10) 0.8863(3)
H63_4 H 0.0071 0.7572 0.8773
C142_4 C 0.0509(14) 0.7828(10) 0.8927(4)
H64_4 H 0.0710 0.7813 0.8871
Cu3_2 Cu 0.99996(16) 0.53528(14) 0.09199(4)
O8_2 O 0.9460(8) 0.5042(8) 0.0888(2)
C27_4 C 0.918(2) 0.4589(11) 0.0869(6)
C28_4 C 0.874(3) 0.4368(13) 0.0853(7)
C29_4 C 0.8585(11) 0.4613(12) 0.0871(3)
H11_4 H 0.8741 0.4899 0.0883
C30_4 C 0.8171(12) 0.4392(11) 0.0870(4)
H12_4 H 0.8025 0.4532 0.0883
C31_4 C 0.795(2) 0.3976(11) 0.0851(6)
C32_4 C 0.744(2) 0.3721(10) 0.0843(5)
N8_4 N 0.7268(8) 0.3962(10) 0.0841(3)
C33_4 C 0.6877(8) 0.3753(16) 0.0841(4)
N9_6 N 0.6667 0.3333 0.0842(7)
C69_4 C 0.5409(23) 0.082(2) 0.0869(6)
C70_4 C 0.5628(33) 0.126(3) 0.0853(7)
C71_4 C 0.6028(16) 0.1415(11) 0.0871(3)
H29_4 H 0.6158 0.1259 0.0883
C72_4 C 0.6221(16) 0.1829(12) 0.0870(4)
H30_4 H 0.6507 0.1975 0.0883
C73_4 C 0.6026(23) 0.205(2) 0.0851(6)
C74_4 C 0.6281(22) 0.256(2) 0.0843(5)
N19_4 N 0.6694(13) 0.2732(8) 0.0841(3)
C75_4 C 0.6876(18) 0.3123(8) 0.0841(4)
O19_2 O 0.4958(8) 0.4418(11) 0.0888(2)
C76_4 C 0.5411(11) 0.4591(23) 0.0869(6)
C77_4 C 0.5632(13) 0.4372(33) 0.0853(7)
C78_4 C 0.5387(12) 0.3972(16) 0.0871(3)
H31_4 H 0.5101 0.3842 0.0883
C79_4 C 0.5608(11) 0.3779(16) 0.0870(4)
H32_4 H 0.5468 0.3493 0.0883
C80_4 C 0.6024(11) 0.3974(23) 0.0851(6)
C81_4 C 0.6279(10) 0.3719(22) 0.0843(5)
N20_4 N 0.6038(10) 0.3306(13) 0.0841(3)
C82_4 C 0.6247(16) 0.3124(18) 0.0841(4)
O20_2 O 0.4958(8) 0.0540(8) 0.0888(2)
C83_4 C 0.5387(12) 0.1415(11) 0.0871(3)
H33_4 H 0.5101 0.1259 0.0883
C84_4 C 0.5608(11) 0.1829(12) 0.0870(4)
H34_4 H 0.5468 0.1975 0.0883
N21_4 N 0.6038(10) 0.2732(8) 0.0841(3)
O21_2 O 0.5582(11) 0.5042(8) 0.0888(2)
C85_4 C 0.6028(16) 0.4613(12) 0.0871(3)
H35_4 H 0.6158 0.4899 0.0883
C86_4 C 0.6221(16) 0.4392(11) 0.0870(4)
H36_4 H 0.6507 0.4532 0.0883
N22_4 N 0.6694(13) 0.3962(10) 0.0841(3)
O22_2 O 0.9460(8) 0.4418(11) 0.0888(2)
C87_4 C 0.8585(11) 0.3972(16) 0.0871(3)
H37_4 H 0.8741 0.3842 0.0883
C88_4 C 0.8171(12) 0.3779(16) 0.0870(4)
H38_4 H 0.8025 0.3493 0.0883
N23_4 N 0.7268(8) 0.3306(13) 0.0841(3)
Cu10_2 Cu 0.99996(16) 0.46468(21) 0.09199(4)
O76_2 O 0.9945(7) 0.5286(6) 0.1135(3)
O79_4 O 0.9945(7) 0.4658(9) 0.1135(3)
H99_5 H 0.980833 0.599123 0.0801706
H100_5 H 0.999836 0.615256 0.0962346
H103_5 H 0.622339 0.0150113 0.09391
H118_5 H 0.997233 0.383259 0.0960634
O54_3 O 0.8675(9) 0.1953(6) 0.7802(3)
C193_4 C 0.9902(15) 0.2007(10) 0.9056(4)
H86_4 H 0.9708 0.1771 0.9105
C194_4 C 0.9800(18) 0.2066(14) 0.8921(5)
C197_4 C 0.9424(20) 0.1788(17) 0.8874(6)
N50_4 N 0.9151(15) 0.1449(13) 0.8934(3)
C198_4 C 0.8822(6) 0.1179(13) 0.8859(9)
N51_4 N 0.8762(6) 0.1238(14) 0.8717(6)
C199_4 C 0.9087(16) 0.1621(13) 0.8667(5)
N52_4 N 0.9410(13) 0.1920(9) 0.8740(4)
C200_4 C 0.8446(8) 0.1554(18) 0.7812(7)
C201_4 C 0.8422(7) 0.1578(16) 0.8001(7)
C202_4 C 0.8779(14) 0.1851(11) 0.8082(4)
H89_4 H 0.8968 0.2097 0.8037
C203_4 C 0.8890(14) 0.1785(10) 0.8240(4)
H90_4 H 0.9128 0.1974 0.8289
C204_4 C 0.8589(8) 0.1410(17) 0.8298(7)
C205_4 C 0.8617(9) 0.1382(21) 0.8438(7)
N53_4 N 0.8963(13) 0.1671(9) 0.8513(3)
O57_3 O 0.8047(6) 0.1325(9) 0.7802(3)
C209_4 C 0.7993(10) 0.0098(15) 0.9056(4)
H92_4 H 0.8229 0.0292 0.9105
C210_4 C 0.7934(14) 0.0200(18) 0.8921(5)
C213_4 C 0.8212(17) 0.0576(20) 0.8874(6)
N54_4 N 0.8551(13) 0.0849(15) 0.8934(3)
C214_4 C 0.8379(13) 0.0913(16) 0.8667(5)
N55_4 N 0.8080(9) 0.0590(13) 0.8740(4)
C215_4 C 0.8149(11) 0.1221(14) 0.8082(4)
H95_4 H 0.7903 0.1032 0.8037
C216_4 C 0.8215(10) 0.1110(14) 0.8240(4)
H96_4 H 0.8026 0.0872 0.8289
N56_4 N 0.8329(9) 0.1037(13) 0.8513(3)
Cu22_3 Cu 0.79805(14) 0.13135(21) 0.75866(4)
Cu28_3 Cu 0.86865(21) 0.20195(14) 0.75866(4)
O39_3 O 0.8675(9) 0.6722(7) 0.7802(3)
C139_4 C 0.9902(15) 0.7895(11) 0.9056(4)
H62_4 H 0.9708 0.7937 0.9105
C140_4 C 0.9800(18) 0.7734(11) 0.8921(5)
C143_4 C 0.9424(20) 0.7636(11) 0.8874(6)
N36_4 N 0.9151(15) 0.7702(7) 0.8934(3)
C144_4 C 0.8821(13) 0.7643(12) 0.8859(9)
N37_4 N 0.8762(14) 0.7524(13) 0.8717(6)
C145_4 C 0.9087(16) 0.7466(10) 0.8667(5)
N38_4 N 0.9410(13) 0.7490(10) 0.8740(4)
C146_4 C 0.8446(18) 0.6892(16) 0.7812(7)
C147_4 C 0.8422(16) 0.6844(14) 0.8001(7)
C148_4 C 0.8779(14) 0.6928(9) 0.8082(4)
H65_4 H 0.8968 0.6871 0.8037
C149_4 C 0.8890(14) 0.7105(10) 0.8240(4)
H66_4 H 0.9128 0.7154 0.8289
C150_4 C 0.8590(17) 0.7179(15) 0.8298(7)
C151_4 C 0.8618(21) 0.7235(19) 0.8438(7)
N39_4 N 0.8963(13) 0.7292(10) 0.8513(3)
O40_4 O 0.7212(6) 0.8237(6) 0.9266(2)
O41_4 O 0.6803(6) 0.8032(5) 0.90616(19)
O42_3 O 0.8047(6) 0.6722(7) 0.7802(3)
C152_4 C 0.7132(10) 0.8102(6) 0.9149(4)
C153_4 C 0.7369(12) 0.7974(11) 0.9063(5)
C154_4 C 0.7715(11) 0.8012(10) 0.9133(3)
H67_4 H 0.7773 0.8109 0.9228
C155_4 C 0.7993(10) 0.7895(11) 0.9056(4)
H68_4 H 0.8229 0.7937 0.9105
C156_4 C 0.7934(14) 0.7734(11) 0.8921(5)
C157_4 C 0.7580(11) 0.7697(10) 0.8863(3)
H69_4 H 0.7501 0.7572 0.8773
C158_4 C 0.7319(10) 0.7828(10) 0.8927(4)
H70_4 H 0.7103 0.7813 0.8871
C159_4 C 0.8212(17) 0.7636(11) 0.8874(6)
N40_4 N 0.8551(13) 0.7702(7) 0.8934(3)
C160_4 C 0.8379(13) 0.7466(10) 0.8667(5)
N41_4 N 0.8080(9) 0.7490(10) 0.8740(4)
C161_4 C 0.8149(11) 0.6928(9) 0.8082(4)
H71_4 H 0.7903 0.6871 0.8037
C162_4 C 0.8215(10) 0.7105(10) 0.8240(4)
H72_4 H 0.8026 0.7154 0.8289
N42_4 N 0.8329(9) 0.7292(10) 0.8513(3)
O55_4 O 0.7212(6) 0.8975(8) 0.9266(2)
O56_4 O 0.6803(6) 0.8771(8) 0.90616(19)
C206_4 C 0.7132(10) 0.9030(12) 0.9149(4)
C207_4 C 0.7369(12) 0.9395(16) 0.9063(5)
C208_4 C 0.7715(11) 0.9703(15) 0.9133(3)
H91_4 H 0.7773 0.9664 0.9228
C211_4 C 0.7580(11) 0.9883(15) 0.8863(3)
H93_4 H 0.7501 0.9929 0.8773
C212_4 C 0.7319(10) 0.9491(14) 0.8927(4)
H94_4 H 0.7103 0.9290 0.8871
Cu21_3 Cu 0.86865(21) 0.66671(16) 0.75866(4)
Cu25_3 Cu 0.79805(14) 0.66671(16) 0.75866(4)
O23_3 O 0.1660(10) 0.2746(7) 0.4279(2)
C89_5 C 0.1257(23) 0.251(2) 0.4295(7)
C90_5 C 0.1043(23) 0.208(2) 0.4315(5)
C91_5 C 0.1303(15) 0.1938(11) 0.4309(2)
H39_5 H 0.1590 0.2097 0.4301
C92_5 C 0.1078(17) 0.1523(11) 0.4318(2)
H40_5 H 0.1228 0.1385 0.4318
C93_5 C 0.0632(23) 0.126(2) 0.4329(4)
C94_5 C 0.044(6) 0.087(5) 0.4349(7)
N24_5 N 0.0592(21) 0.0645(14) 0.4341(3)
C95_5 C 0.0443(13) 0.0221(9) 0.4346(5)
O25_3 O 0.1087(7) 0.2746(7) 0.4279(2)
C103_5 C 0.0636(10) 0.1938(11) 0.4309(2)
H43_5 H 0.0508 0.2097 0.4301
C104_5 C 0.0446(13) 0.1523(11) 0.4318(2)
H44_5 H 0.0158 0.1385 0.4318
N26_5 N 0.0054(16) 0.0645(14) 0.4341(3)
Cu9_3 Cu 0.20199(21) 0.33337(16) 0.42532(4)
O47_3 O 0.1918(9) 0.3249(7) 0.4041(2)
O48_3 O 0.2670(8) 0.3300(6) 0.4203(2)
C167_5 C 0.0212(16) 0.2348(10) 0.2894(5)
C168_5 C 0.0140(14) 0.2145(10) 0.2752(4)
H75_5 H 0.0337 0.2100 0.2707
C170_5 C 0.0574(17) 0.2453(9) 0.2971(6)
N43_5 N 0.0669(11) 0.2586(7) 0.3113(4)
C171_5 C 0.1019(16) 0.2644(7) 0.3162(5)
N44_5 N 0.1295(16) 0.2590(14) 0.3107(7)
C172_5 C 0.1242(18) 0.2482(16) 0.2962(9)
N45_5 N 0.0883(13) 0.2392(6) 0.2899(2)
N46_5 N 0.1079(10) 0.2787(7) 0.3304(3)
C173_5 C 0.1426(15) 0.2851(13) 0.3365(7)
C174_5 C 0.1467(13) 0.2934(12) 0.3534(7)
C175_5 C 0.1157(11) 0.2972(7) 0.3602(3)
H77_5 H 0.0926 0.2937 0.3552
C176_5 C 0.1208(11) 0.3062(7) 0.3746(3)
H78_5 H 0.1016 0.3097 0.3800
C177_5 C 0.1549(13) 0.3096(12) 0.3805(6)
C178_5 C 0.1623(17) 0.3245(15) 0.3979(6)
O49_5 O 0.2791(5) 0.1760(5) 0.2580(2)
O50_5 O 0.3198(7) 0.1967(6) 0.2774(2)
O51_3 O 0.1332(6) 0.3249(7) 0.4041(2)
C179_5 C 0.2894(11) 0.1914(6) 0.2700(4)
C180_5 C 0.2606(11) 0.2075(9) 0.2771(4)
C181_5 C 0.2687(10) 0.2215(10) 0.2912(4)
H79_5 H 0.2899 0.2213 0.2964
C182_5 C 0.2444(10) 0.2361(9) 0.2972(3)
H80_5 H 0.2494 0.2465 0.3066
C183_5 C 0.2137(12) 0.2348(10) 0.2894(5)
C184_5 C 0.2006(10) 0.2145(10) 0.2752(4)
H81_5 H 0.1764 0.2100 0.2707
C185_5 C 0.2257(10) 0.2031(9) 0.2694(3)
H82_5 H 0.2204 0.1920 0.2601
C186_5 C 0.1880(14) 0.2453(9) 0.2971(6)
N47_5 N 0.1918(9) 0.2586(7) 0.3113(4)
C187_5 C 0.1626(14) 0.2644(7) 0.3162(5)
N48_5 N 0.1510(12) 0.2392(6) 0.2899(2)
N49_5 N 0.1709(7) 0.2787(7) 0.3304(3)
C188_5 C 0.1816(9) 0.2972(7) 0.3602(3)
H83_5 H 0.2012 0.2937 0.3552
C189_5 C 0.1855(9) 0.3062(7) 0.3746(3)
H84_5 H 0.2082 0.3097 0.3800
Cu15_5 Cu 0.35667(16) 0.17833(18) 0.27000(6)
Cu18_5 Cu 0.30826(14) 0.15413(16) 0.24705(5)
Cu24_3 Cu 0.13139(14) 0.33337(16) 0.42532(4)
O73_3 O 0.2249(11) 0.3873(8) 0.4221(2)
O78_3 O 0.2008(9) 0.3389(7) 0.4469(3)
O24_3 O 0.1087(7) 0.8340(10) 0.4279(2)
C96_5 C 0.1257(11) 0.8743(23) 0.4295(7)
C97_5 C 0.1041(12) 0.8957(23) 0.4315(5)
C98_5 C 0.0636(10) 0.8697(15) 0.4309(2)
H41_5 H 0.0508 0.8410 0.4301
C99_5 C 0.0446(13) 0.8922(17) 0.4318(2)
H42_5 H 0.0158 0.8772 0.4318
C100_5 C 0.0632(11) 0.9368(23) 0.4329(4)
C101_5 C 0.044(3) 0.956(6) 0.4349(7)
N25_5 N 0.0054(16) 0.9408(21) 0.4341(3)
O26_3 O 0.1660(10) 0.8913(7) 0.4279(2)
C105_5 C 0.1303(15) 0.9364(10) 0.4309(2)
H45_5 H 0.1590 0.9492 0.4301
C106_5 C 0.1078(17) 0.9554(13) 0.4318(2)
H46_5 H 0.1228 0.9842 0.4318
N27_5 N 0.0592(21) 0.9946(16) 0.4341(3)
Cu20_3 Cu 0.13139(14) 0.79801(21) 0.42532(4)
Cu27_3 Cu 0.20199(21) 0.86861(14) 0.42532(4)
C46_5 C 0.9779(9) 0.0221(9) 0.4346(5)
N12_7 N 1.0000 0.0000 0.4350(4)
O15_5 O 0.8240(5) 0.1030(7) 0.2580(2)
O16_5 O 0.8033(6) 0.1230(9) 0.2774(2)
C58_5 C 0.8086(6) 0.0979(13) 0.2700(4)
C59_5 C 0.7925(9) 0.0530(14) 0.2771(4)
C60_5 C 0.7785(10) 0.0471(14) 0.2912(4)
H23_5 H 0.7787 0.0685 0.2964
C61_5 C 0.7639(9) 0.0082(13) 0.2972(3)
H24_5 H 0.7535 0.0028 0.3066
C64_5 C 0.7969(9) 0.0225(13) 0.2694(3)
H26_5 H 0.8080 0.0283 0.2601
Cu7_5 Cu 0.82167(18) 0.17833(8) 0.27000(6)
Cu8_5 Cu 0.84587(16) 0.15412(7) 0.24705(5)
O43_5 O 0.8970(7) 0.1760(5) 0.2580(2)
O44_5 O 0.8770(9) 0.1967(6) 0.2774(2)
O45_8 O 0.8018(8) 0.1983(3) 0.2893(2)
O46_8 O 0.8682(7) 0.1317(3) 0.2291(2)
C163_5 C 0.9021(13) 0.1914(6) 0.2700(4)
C164_5 C 0.9470(14) 0.2075(9) 0.2771(4)
C165_5 C 0.9529(14) 0.2215(10) 0.2912(4)
H73_5 H 0.9315 0.2213 0.2964
C166_5 C 0.9918(13) 0.2361(9) 0.2972(3)
H74_5 H 0.9972 0.2465 0.3066
C169_5 C 0.9775(13) 0.2031(9) 0.2694(3)
H76_5 H 0.9717 0.1920 0.2601
O61_5 O 0.7692(8) 0.1570(6) 0.2599(2)
O62_5 O 0.8430(6) 0.2308(8) 0.2599(2)
O63_5 O 0.7896(8) 0.1365(5) 0.23949(19)
O64_5 O 0.8635(5) 0.2104(8) 0.23949(19)
Cu1_5 Cu 0.82167(8) 0.64333(16) 0.27000(6)
Cu2_5 Cu 0.84588(7) 0.69174(14) 0.24705(5)
O1_5 O 0.8430(6) 0.6121(6) 0.2599(2)
O2_5 O 0.8635(5) 0.6530(6) 0.23949(19)
O3_5 O 0.8240(5) 0.7209(5) 0.2580(2)
O4_5 O 0.8033(6) 0.6802(7) 0.2774(2)
O5_5 O 0.8017(3) 0.6034(7) 0.2893(2)
O6_5 O 0.8683(3) 0.7364(6) 0.2291(2)
Cu3_3 Cu 0.66663(16) 0.86861(14) 0.42532(4)
O7_3 O 0.6751(7) 0.8668(6) 0.4041(2)
O8_3 O 0.6127(8) 0.8375(8) 0.4221(2)
O10_3 O 0.7254(7) 0.8913(7) 0.4279(2)
O11_3 O 0.6700(6) 0.9369(6) 0.4203(2)
C1_5 C 0.8565(6) 0.6201(10) 0.2482(4)
C2_5 C 0.8693(11) 0.5964(12) 0.2396(5)
C3_5 C 0.8655(10) 0.5618(11) 0.2466(3)
H1_5 H 0.8558 0.5560 0.2561
C4_5 C 0.8772(11) 0.5340(10) 0.2389(4)
H2_5 H 0.8730 0.5104 0.2438
C5_5 C 0.8933(11) 0.5399(14) 0.2254(5)
C6_5 C 0.8970(10) 0.5753(11) 0.2196(3)
H3_5 H 0.9095 0.5832 0.2106
C7_5 C 0.8839(10) 0.6014(10) 0.2260(4)
H4_5 H 0.8854 0.6230 0.2204
C8_5 C 0.9031(11) 0.5121(17) 0.2207(6)
N1_5 N 0.8965(7) 0.4782(13) 0.2267(3)
C9_5 C 0.9024(12) 0.4511(6) 0.2192(9)
N2_5 N 0.9143(13) 0.4571(6) 0.2050(6)
C10_5 C 0.9201(10) 0.4954(13) 0.2000(5)
N3_5 N 0.9177(10) 0.5253(9) 0.2073(4)
C11_5 C 0.8086(6) 0.7106(11) 0.2700(4)
C12_5 C 0.7925(9) 0.7394(11) 0.2771(4)
C13_5 C 0.7785(10) 0.7313(10) 0.2912(4)
H5_5 H 0.7787 0.7101 0.2964
C14_5 C 0.7639(9) 0.7556(10) 0.2972(3)
H6_5 H 0.7535 0.7506 0.3066
C15_5 C 0.7652(10) 0.7863(12) 0.2894(5)
C16_5 C 0.7855(10) 0.7994(10) 0.2752(4)
H7_5 H 0.7900 0.8236 0.2707
C17_5 C 0.7969(9) 0.7743(10) 0.2694(3)
H8_5 H 0.8080 0.7796 0.2601
C18_5 C 0.7547(9) 0.8120(14) 0.2971(6)
N4_5 N 0.7414(7) 0.8082(9) 0.3113(4)
C19_5 C 0.7356(7) 0.8374(14) 0.3162(5)
N5_5 N 0.7410(14) 0.8704(7) 0.3107(7)
C20_5 C 0.7518(16) 0.8759(8) 0.2962(9)
N6_5 N 0.7608(6) 0.8490(12) 0.2899(2)
N7_5 N 0.7213(7) 0.8291(7) 0.3304(3)
C21_5 C 0.7149(13) 0.8574(7) 0.3365(7)
C22_5 C 0.7066(12) 0.8532(6) 0.3534(7)
C23_5 C 0.7028(7) 0.8184(9) 0.3602(3)
H9_5 H 0.7063 0.7988 0.3552
C24_5 C 0.6938(7) 0.8145(9) 0.3746(3)
H10_5 H 0.6903 0.7918 0.3800
C25_5 C 0.6904(12) 0.8452(6) 0.3805(6)
C26_5 C 0.6755(15) 0.8377(7) 0.3979(6)
C27_5 C 0.585(2) 0.7922(11) 0.4202(6)
C28_5 C 0.541(3) 0.7701(13) 0.4186(7)
C29_5 C 0.5252(11) 0.7946(12) 0.4204(3)
H11_5 H 0.5408 0.8232 0.4216
C30_5 C 0.4838(12) 0.7725(11) 0.4203(4)
H12_5 H 0.4692 0.7865 0.4216
C31_5 C 0.462(2) 0.7309(11) 0.4184(6)
C32_5 C 0.411(2) 0.7054(10) 0.4176(5)
N8_5 N 0.3935(8) 0.7295(10) 0.4174(3)
C33_5 C 0.3544(8) 0.7086(16) 0.4174(4)
N9_7 N 0.3334 0.6666 0.4175(7)
C34_5 C 0.9775(16) 0.4887(8) 0.1145(7)
C35_5 C 0.9823(14) 0.4911(7) 0.1334(7)
C36_5 C 0.9739(9) 0.5184(11) 0.1415(4)
H13_5 H 0.9796 0.5430 0.1370
C37_5 C 0.9562(10) 0.5118(10) 0.1573(4)
H14_5 H 0.9513 0.5307 0.1622
C38_5 C 0.9488(15) 0.4744(8) 0.1631(7)
C39_5 C 0.9432(19) 0.4716(9) 0.1771(7)
N10_5 N 0.9375(10) 0.5004(9) 0.1846(3)
C40_5 C 0.749(2) 0.8743(11) 0.4295(7)
C41_5 C 0.792(2) 0.8959(12) 0.4315(5)
C42_5 C 0.8062(11) 0.9364(10) 0.4309(2)
H15_5 H 0.7903 0.9492 0.4301
C43_5 C 0.8477(11) 0.9554(13) 0.4318(2)
H16_5 H 0.8615 0.9842 0.4318
C44_5 C 0.874(2) 0.9368(11) 0.4329(4)
C45_5 C 0.913(5) 0.956(3) 0.4349(7)
N11_5 N 0.9355(14) 0.9946(16) 0.4341(3)
C47_5 C 0.8565(6) 0.2363(12) 0.2482(4)
C48_5 C 0.8693(11) 0.2728(16) 0.2396(5)
C49_5 C 0.8655(10) 0.3036(15) 0.2466(3)
H17_5 H 0.8558 0.2997 0.2561
C50_5 C 0.8772(11) 0.3431(15) 0.2389(4)
H18_5 H 0.8730 0.3625 0.2438
C51_5 C 0.8933(11) 0.3533(18) 0.2254(5)
C52_5 C 0.8970(10) 0.3216(15) 0.2196(3)
H19_5 H 0.9095 0.3262 0.2106
C53_5 C 0.8839(10) 0.2824(14) 0.2260(4)
H20_5 H 0.8854 0.2623 0.2204
C54_5 C 0.9031(11) 0.3909(20) 0.2207(6)
N13_5 N 0.8965(7) 0.4182(15) 0.2267(3)
C55_5 C 0.9201(10) 0.4246(16) 0.2000(5)
N14_5 N 0.9177(10) 0.3923(13) 0.2073(4)
C56_5 C 0.9739(9) 0.4554(14) 0.1415(4)
H21_5 H 0.9796 0.4365 0.1370
C57_5 C 0.9562(10) 0.4443(14) 0.1573(4)
H22_5 H 0.9513 0.4205 0.1622
N15_5 N 0.9375(10) 0.4370(13) 0.1846(3)
O17_3 O 0.6751(7) 0.8082(9) 0.4041(2)
C62_5 C 0.7652(10) 0.9788(16) 0.2894(5)
C63_5 C 0.7855(10) 0.9860(14) 0.2752(4)
H25_5 H 0.7900 0.9663 0.2707
C65_5 C 0.7547(9) 0.9426(17) 0.2971(6)
N16_5 N 0.7414(7) 0.9331(11) 0.3113(4)
C66_5 C 0.7356(7) 0.8981(16) 0.3162(5)
N17_5 N 0.7608(6) 0.9117(13) 0.2899(2)
N18_5 N 0.7213(7) 0.8921(10) 0.3304(3)
C67_5 C 0.7028(7) 0.8843(11) 0.3602(3)
H27_5 H 0.7063 0.9074 0.3552
C68_5 C 0.6938(7) 0.8792(11) 0.3746(3)
H28_5 H 0.6903 0.8984 0.3800
C69_5 C 0.2076(23) 0.415(2) 0.4202(6)
C70_5 C 0.2295(33) 0.459(3) 0.4186(7)
C71_5 C 0.2695(16) 0.4748(11) 0.4204(3)
H29_5 H 0.2825 0.4592 0.4216
C72_5 C 0.2888(16) 0.5162(12) 0.4203(4)
H30_5 H 0.3174 0.5308 0.4216
C73_5 C 0.2693(23) 0.538(2) 0.4184(6)
C74_5 C 0.2948(22) 0.589(2) 0.4176(5)
N19_5 N 0.3361(13) 0.6065(8) 0.4174(3)
C75_5 C 0.3543(18) 0.6456(8) 0.4174(4)
O19_3 O 0.1625(8) 0.7751(11) 0.4221(2)
C76_5 C 0.2078(11) 0.7924(23) 0.4202(6)
C77_5 C 0.2299(13) 0.7705(33) 0.4186(7)
C78_5 C 0.2054(12) 0.7305(16) 0.4204(3)
H31_5 H 0.1768 0.7175 0.4216
C79_5 C 0.2275(11) 0.7112(16) 0.4203(4)
H32_5 H 0.2135 0.6826 0.4216
C80_5 C 0.2691(11) 0.7307(23) 0.4184(6)
C81_5 C 0.2946(10) 0.7052(22) 0.4176(5)
N20_5 N 0.2705(10) 0.6639(13) 0.4174(3)
C82_5 C 0.2914(16) 0.6457(18) 0.4174(4)
O20_3 O 0.1625(8) 0.3873(8) 0.4221(2)
C83_5 C 0.2054(12) 0.4748(11) 0.4204(3)
H33_5 H 0.1768 0.4592 0.4216
C84_5 C 0.2275(11) 0.5162(12) 0.4203(4)
H34_5 H 0.2135 0.5308 0.4216
N21_5 N 0.2705(10) 0.6065(8) 0.4174(3)
O21_3 O 0.2249(11) 0.8375(8) 0.4221(2)
C85_5 C 0.2695(16) 0.7946(12) 0.4204(3)
H35_5 H 0.2825 0.8232 0.4216
C86_5 C 0.2888(16) 0.7725(11) 0.4203(4)
H36_5 H 0.3174 0.7865 0.4216
N22_5 N 0.3361(13) 0.7295(10) 0.4174(3)
O22_3 O 0.6127(8) 0.7751(11) 0.4221(2)
C87_5 C 0.5252(11) 0.7305(16) 0.4204(3)
H37_5 H 0.5408 0.7175 0.4216
C88_5 C 0.4838(12) 0.7112(16) 0.4203(4)
H38_5 H 0.4692 0.6826 0.4216
N23_5 N 0.3935(8) 0.6639(13) 0.4174(3)
C102_5 C 0.9779(9) 0.9557(13) 0.4346(5)
O27_3 O 0.7254(7) 0.8340(10) 0.4279(2)
C107_5 C 0.8062(11) 0.8697(15) 0.4309(2)
H47_5 H 0.7903 0.8410 0.4301
C108_5 C 0.8477(11) 0.8922(17) 0.4318(2)
H48_5 H 0.8615 0.8772 0.4318
N28_5 N 0.9355(14) 0.9408(21) 0.4341(3)
C136_5 C 0.7637(12) 0.1435(6) 0.2482(4)
C137_5 C 0.7272(16) 0.1307(11) 0.2396(5)
C138_5 C 0.6964(15) 0.1345(10) 0.2466(3)
H61_5 H 0.7003 0.1442 0.2561
C139_5 C 0.6569(15) 0.1228(11) 0.2389(4)
H62_5 H 0.6375 0.1270 0.2438
C140_5 C 0.6467(18) 0.1067(11) 0.2254(5)
C141_5 C 0.6784(15) 0.1030(10) 0.2196(3)
H63_5 H 0.6738 0.0905 0.2106
C142_5 C 0.7176(14) 0.1161(10) 0.2260(4)
H64_5 H 0.7377 0.1146 0.2204
C143_5 C 0.6091(20) 0.0969(11) 0.2207(6)
N36_5 N 0.5818(15) 0.1035(7) 0.2267(3)
C144_5 C 0.5488(13) 0.0976(12) 0.2192(9)
N37_5 N 0.5429(14) 0.0857(13) 0.2050(6)
C145_5 C 0.5754(16) 0.0799(10) 0.2000(5)
N38_5 N 0.6077(13) 0.0823(10) 0.2073(4)
C146_5 C 0.5113(18) 0.0225(16) 0.1145(7)
C147_5 C 0.5089(16) 0.0177(14) 0.1334(7)
C148_5 C 0.5446(14) 0.0261(9) 0.1415(4)
H65_5 H 0.5635 0.0204 0.1370
C149_5 C 0.5557(14) 0.0438(10) 0.1573(4)
H66_5 H 0.5795 0.0487 0.1622
C150_5 C 0.5257(17) 0.0512(15) 0.1631(7)
C151_5 C 0.5285(21) 0.0568(19) 0.1771(7)
N39_5 N 0.5630(13) 0.0625(10) 0.1846(3)
O40_5 O 0.3879(6) 0.1570(6) 0.2599(2)
O41_5 O 0.3470(6) 0.1365(5) 0.23949(19)
O42_4 O 0.4714(6) 0.0055(7) 0.1135(3)
C152_5 C 0.3799(10) 0.1435(6) 0.2482(4)
C153_5 C 0.4036(12) 0.1307(11) 0.2396(5)
C154_5 C 0.4382(11) 0.1345(10) 0.2466(3)
H67_5 H 0.4440 0.1442 0.2561
C155_5 C 0.4660(10) 0.1228(11) 0.2389(4)
H68_5 H 0.4896 0.1270 0.2438
C156_5 C 0.4601(14) 0.1067(11) 0.2254(5)
C157_5 C 0.4247(11) 0.1030(10) 0.2196(3)
H69_5 H 0.4168 0.0905 0.2106
C158_5 C 0.3986(10) 0.1161(10) 0.2260(4)
H70_5 H 0.3770 0.1146 0.2204
C159_5 C 0.4879(17) 0.0969(11) 0.2207(6)
N40_5 N 0.5218(13) 0.1035(7) 0.2267(3)
C160_5 C 0.5046(13) 0.0799(10) 0.2000(5)
N41_5 N 0.4747(9) 0.0823(10) 0.2073(4)
C161_5 C 0.4816(11) 0.0261(9) 0.1415(4)
H71_5 H 0.4570 0.0204 0.1370
C162_5 C 0.4882(10) 0.0438(10) 0.1573(4)
H72_5 H 0.4693 0.0487 0.1622
N42_5 N 0.4996(9) 0.0625(10) 0.1846(3)
O52_5 O 0.7692(8) 0.6121(6) 0.2599(2)
O53_5 O 0.7896(8) 0.6530(6) 0.23949(19)
O54_4 O 0.5342(9) 0.5286(6) 0.1135(3)
C190_5 C 0.7637(12) 0.6201(10) 0.2482(4)
C191_5 C 0.7272(16) 0.5964(12) 0.2396(5)
C192_5 C 0.6964(15) 0.5618(11) 0.2466(3)
H85_5 H 0.7003 0.5560 0.2561
C193_5 C 0.6569(15) 0.5340(10) 0.2389(4)
H86_5 H 0.6375 0.5104 0.2438
C194_5 C 0.6467(18) 0.5399(14) 0.2254(5)
C195_5 C 0.6784(15) 0.5753(11) 0.2196(3)
H87_5 H 0.6738 0.5832 0.2106
C196_5 C 0.7176(14) 0.6014(10) 0.2260(4)
H88_5 H 0.7377 0.6230 0.2204
C197_5 C 0.6091(20) 0.5121(17) 0.2207(6)
N50_5 N 0.5818(15) 0.4782(13) 0.2267(3)
C198_5 C 0.5489(6) 0.4512(13) 0.2192(9)
N51_5 N 0.5429(6) 0.4571(14) 0.2050(6)
C199_5 C 0.5754(16) 0.4954(13) 0.2000(5)
N52_5 N 0.6077(13) 0.5253(9) 0.2073(4)
C200_5 C 0.5113(8) 0.4887(18) 0.1145(7)
C201_5 C 0.5089(7) 0.4911(16) 0.1334(7)
C202_5 C 0.5446(14) 0.5184(11) 0.1415(4)
H89_5 H 0.5635 0.5430 0.1370
C203_5 C 0.5557(14) 0.5118(10) 0.1573(4)
H90_5 H 0.5795 0.5307 0.1622
C204_5 C 0.5256(8) 0.4743(17) 0.1631(7)
C205_5 C 0.5284(9) 0.4715(21) 0.1771(7)
N53_5 N 0.5630(13) 0.5004(9) 0.1846(3)
O55_5 O 0.3879(6) 0.2308(8) 0.2599(2)
O56_5 O 0.3470(6) 0.2104(8) 0.23949(19)
O57_4 O 0.4714(6) 0.4658(9) 0.1135(3)
C206_5 C 0.3799(10) 0.2363(12) 0.2482(4)
C207_5 C 0.4036(12) 0.2728(16) 0.2396(5)
C208_5 C 0.4382(11) 0.3036(15) 0.2466(3)
H91_5 H 0.4440 0.2997 0.2561
C209_5 C 0.4660(10) 0.3431(15) 0.2389(4)
H92_5 H 0.4896 0.3625 0.2438
C210_5 C 0.4601(14) 0.3533(18) 0.2254(5)
C211_5 C 0.4247(11) 0.3216(15) 0.2196(3)
H93_5 H 0.4168 0.3262 0.2106
C212_5 C 0.3986(10) 0.2824(14) 0.2260(4)
H94_5 H 0.3770 0.2623 0.2204
C213_5 C 0.4879(17) 0.3909(20) 0.2207(6)
N54_5 N 0.5218(13) 0.4182(15) 0.2267(3)
C214_5 C 0.5046(13) 0.4246(16) 0.2000(5)
N55_5 N 0.4747(9) 0.3923(13) 0.2073(4)
C215_5 C 0.4816(11) 0.4554(14) 0.1415(4)
H95_5 H 0.4570 0.4365 0.1370
C216_5 C 0.4882(10) 0.4443(14) 0.1573(4)
H96_5 H 0.4693 0.4205 0.1622
N56_5 N 0.4996(9) 0.4370(13) 0.1846(3)
Cu10_3 Cu 0.66663(16) 0.79801(21) 0.42532(4)
O58_5 O 0.6700(6) 0.7330(8) 0.4203(2)
O66_5 O 0.8970(7) 0.7209(5) 0.2580(2)
O69_5 O 0.8770(9) 0.6802(7) 0.2774(2)
O76_3 O 0.6611(7) 0.8620(6) 0.4469(3)
O79_5 O 0.6611(7) 0.7992(9) 0.4469(3)
H119_5 H 0.977569 0.375206 0.0905569
Cu15_6 Cu 0.02333(16) 0.51167(18) 0.60334(6)
Cu2_6 Cu 0.51254(7) 0.02508(14) 0.58039(5)
O3_6 O 0.4906(5) 0.0543(5) 0.5914(2)
O4_6 O 0.4699(6) 0.0136(7) 0.6108(2)
O6_6 O 0.5349(3) 0.0698(6) 0.5625(2)
C11_6 C 0.4752(6) 0.0440(11) 0.6034(4)
C12_6 C 0.4591(9) 0.0728(11) 0.6105(4)
C13_6 C 0.4451(10) 0.0647(10) 0.6246(4)
H5_6 H 0.4453 0.0435 0.6298
C14_6 C 0.4305(9) 0.0890(10) 0.6306(3)
H6_6 H 0.4201 0.0840 0.6400
C15_6 C 0.4318(10) 0.1197(12) 0.6228(5)
C16_6 C 0.4521(10) 0.1328(10) 0.6086(4)
H7_6 H 0.4566 0.1570 0.6041
C17_6 C 0.4635(9) 0.1077(10) 0.6028(3)
H8_6 H 0.4746 0.1130 0.5935
C18_6 C 0.4213(9) 0.1454(14) 0.6305(6)
N4_6 N 0.4080(7) 0.1416(9) 0.6447(4)
C19_6 C 0.4022(7) 0.1708(14) 0.6496(5)
N5_6 N 0.4076(14) 0.2038(7) 0.6441(7)
C20_6 C 0.4184(16) 0.2093(8) 0.6296(9)
N6_6 N 0.4274(6) 0.1824(12) 0.6233(2)
N7_6 N 0.3879(7) 0.1625(7) 0.6638(3)
C21_6 C 0.3815(13) 0.1908(7) 0.6699(7)
C22_6 C 0.3732(12) 0.1866(6) 0.6868(7)
C23_6 C 0.3694(7) 0.1518(9) 0.6936(3)
H9_6 H 0.3729 0.1322 0.6886
C24_6 C 0.3604(7) 0.1479(9) 0.7080(3)
H10_6 H 0.3569 0.1252 0.7134
C25_6 C 0.3570(12) 0.1786(6) 0.7139(6)
C26_6 C 0.3421(15) 0.1711(7) 0.7313(6)
C27_6 C 0.251(2) 0.1256(11) 0.7536(6)
C28_6 C 0.207(3) 0.1035(13) 0.7520(7)
C29_6 C 0.1918(11) 0.1280(12) 0.7538(3)
H11_6 H 0.2074 0.1566 0.7550
C30_6 C 0.1504(12) 0.1059(11) 0.7537(4)
H12_6 H 0.1358 0.1199 0.7550
C31_6 C 0.128(2) 0.0643(11) 0.7518(6)
C32_6 C 0.077(2) 0.0388(10) 0.7510(5)
N8_6 N 0.0601(8) 0.0629(10) 0.7508(3)
C33_6 C 0.0210(8) 0.0420(16) 0.7508(4)
C40_6 C 0.415(2) 0.2077(11) 0.7629(7)
C41_6 C 0.458(2) 0.2293(12) 0.7649(5)
C42_6 C 0.4728(11) 0.2698(10) 0.7643(2)
H15_6 H 0.4569 0.2826 0.7635
C43_6 C 0.5143(11) 0.2888(13) 0.7652(2)
H16_6 H 0.5281 0.3176 0.7652
C44_6 C 0.540(2) 0.2702(11) 0.7663(4)
C45_6 C 0.579(5) 0.290(3) 0.7683(7)
N11_6 N 0.6021(14) 0.3280(16) 0.7675(3)
C46_6 C 0.6445(9) 0.3555(9) 0.7680(5)
N12_8 N 0.6666 0.3334 0.7684(4)
O15_6 O 0.4906(5) 0.4364(7) 0.5914(2)
O16_6 O 0.4699(6) 0.4564(9) 0.6108(2)
C58_6 C 0.4752(6) 0.4313(13) 0.6034(4)
C59_6 C 0.4591(9) 0.3864(14) 0.6105(4)
C60_6 C 0.4451(10) 0.3805(14) 0.6246(4)
H23_6 H 0.4453 0.4019 0.6298
C61_6 C 0.4305(9) 0.3416(13) 0.6306(3)
H24_6 H 0.4201 0.3362 0.6400
C62_6 C 0.4318(10) 0.3122(16) 0.6228(5)
C63_6 C 0.4521(10) 0.3194(14) 0.6086(4)
H25_6 H 0.4566 0.2997 0.6041
C64_6 C 0.4635(9) 0.3559(13) 0.6028(3)
H26_6 H 0.4746 0.3617 0.5935
C65_6 C 0.4213(9) 0.2760(17) 0.6305(6)
N16_6 N 0.4080(7) 0.2665(11) 0.6447(4)
C66_6 C 0.4022(7) 0.2315(16) 0.6496(5)
N17_6 N 0.4274(6) 0.2451(13) 0.6233(2)
N18_6 N 0.3879(7) 0.2255(10) 0.6638(3)
C67_6 C 0.3694(7) 0.2177(11) 0.6936(3)
H27_6 H 0.3729 0.2408 0.6886
C68_6 C 0.3604(7) 0.2126(11) 0.7080(3)
H28_6 H 0.3569 0.2318 0.7134
N22_6 N 0.0027(13) 0.0629(10) 0.7508(3)
C87_6 C 0.1918(11) 0.0639(16) 0.7538(3)
H37_6 H 0.2074 0.0509 0.7550
C88_6 C 0.1504(12) 0.0446(16) 0.7537(4)
H38_6 H 0.1358 0.0160 0.7550
O23_4 O 0.8326(10) 0.6080(7) 0.7613(2)
C89_6 C 0.7923(23) 0.585(2) 0.7629(7)
C90_6 C 0.7709(23) 0.542(2) 0.7649(5)
C91_6 C 0.7969(15) 0.5272(11) 0.7643(2)
H39_6 H 0.8256 0.5431 0.7635
C92_6 C 0.7744(17) 0.4857(11) 0.7652(2)
H40_6 H 0.7894 0.4719 0.7652
C93_6 C 0.7298(23) 0.460(2) 0.7663(4)
C94_6 C 0.710(6) 0.421(5) 0.7683(7)
N24_6 N 0.7258(21) 0.3979(14) 0.7675(3)
C95_6 C 0.7109(13) 0.3555(9) 0.7680(5)
O24_4 O 0.7753(7) 0.1674(10) 0.7613(2)
C96_6 C 0.7923(11) 0.2077(23) 0.7629(7)
C97_6 C 0.7707(12) 0.2291(23) 0.7649(5)
C98_6 C 0.7302(10) 0.2031(15) 0.7643(2)
H41_6 H 0.7174 0.1744 0.7635
C99_6 C 0.7112(13) 0.2256(17) 0.7652(2)
H42_6 H 0.6824 0.2106 0.7652
C100_6 C 0.7298(11) 0.2702(23) 0.7663(4)
C101_6 C 0.710(3) 0.290(6) 0.7683(7)
N25_6 N 0.6720(16) 0.2742(21) 0.7675(3)
C102_6 C 0.6445(9) 0.2891(13) 0.7680(5)
O25_4 O 0.7753(7) 0.6080(7) 0.7613(2)
C103_6 C 0.7302(10) 0.5272(11) 0.7643(2)
H43_6 H 0.7174 0.5431 0.7635
C104_6 C 0.7112(13) 0.4857(11) 0.7652(2)
H44_6 H 0.6824 0.4719 0.7652
N26_6 N 0.6720(16) 0.3979(14) 0.7675(3)
O26_4 O 0.8326(10) 0.2247(7) 0.7613(2)
C105_6 C 0.7969(15) 0.2698(10) 0.7643(2)
H45_6 H 0.8256 0.2826 0.7635
C106_6 C 0.7744(17) 0.2888(13) 0.7652(2)
H46_6 H 0.7894 0.3176 0.7652
N27_6 N 0.7258(21) 0.3280(16) 0.7675(3)
C107_6 C 0.4728(11) 0.2031(15) 0.7643(2)
H47_6 H 0.4569 0.1744 0.7635
C108_6 C 0.5143(11) 0.2256(17) 0.7652(2)
H48_6 H 0.5281 0.2106 0.7652
N28_6 N 0.6021(14) 0.2742(21) 0.7675(3)
Cu7_6 Cu 0.48833(18) 0.51167(8) 0.60334(6)
Cu8_6 Cu 0.51253(16) 0.48746(7) 0.58039(5)
O43_6 O 0.5636(7) 0.5094(5) 0.5914(2)
O44_6 O 0.5436(9) 0.5301(6) 0.6108(2)
O45_9 O 0.4684(8) 0.5317(3) 0.6227(2)
O46_9 O 0.5348(7) 0.4651(3) 0.5625(2)
O47_4 O 0.8584(9) 0.6583(7) 0.7375(2)
O48_4 O 0.9336(8) 0.6634(6) 0.7537(2)
C163_6 C 0.5687(13) 0.5248(6) 0.6034(4)
C164_6 C 0.6136(14) 0.5409(9) 0.6105(4)
C165_6 C 0.6195(14) 0.5549(10) 0.6246(4)
H73_6 H 0.5981 0.5547 0.6298
C166_6 C 0.6584(13) 0.5695(9) 0.6306(3)
H74_6 H 0.6638 0.5799 0.6400
C167_6 C 0.6878(16) 0.5682(10) 0.6228(5)
C168_6 C 0.6806(14) 0.5479(10) 0.6086(4)
H75_6 H 0.7003 0.5434 0.6041
C169_6 C 0.6441(13) 0.5365(9) 0.6028(3)
H76_6 H 0.6383 0.5254 0.5935
C170_6 C 0.7240(17) 0.5787(9) 0.6305(6)
N43_6 N 0.7335(11) 0.5920(7) 0.6447(4)
C171_6 C 0.7685(16) 0.5978(7) 0.6496(5)
N44_6 N 0.7961(16) 0.5924(14) 0.6441(7)
C172_6 C 0.7908(18) 0.5816(16) 0.6296(9)
N45_6 N 0.7549(13) 0.5726(6) 0.6233(2)
N46_6 N 0.7745(10) 0.6121(7) 0.6638(3)
C173_6 C 0.8092(15) 0.6185(13) 0.6699(7)
C174_6 C 0.8133(13) 0.6268(12) 0.6868(7)
C175_6 C 0.7823(11) 0.6306(7) 0.6936(3)
H77_6 H 0.7592 0.6271 0.6886
C176_6 C 0.7874(11) 0.6396(7) 0.7080(3)
H78_6 H 0.7682 0.6431 0.7134
C177_6 C 0.8215(13) 0.6430(12) 0.7139(6)
C178_6 C 0.8289(17) 0.6579(15) 0.7313(6)
O49_6 O 0.9457(5) 0.5094(5) 0.5914(2)
O50_6 O 0.9864(7) 0.5301(6) 0.6108(2)
O51_4 O 0.7998(6) 0.6583(7) 0.7375(2)
C179_6 C 0.9560(11) 0.5248(6) 0.6034(4)
C180_6 C 0.9272(11) 0.5409(9) 0.6105(4)
C181_6 C 0.9353(10) 0.5549(10) 0.6246(4)
H79_6 H 0.9565 0.5547 0.6298
C182_6 C 0.9110(10) 0.5695(9) 0.6306(3)
H80_6 H 0.9160 0.5799 0.6400
C183_6 C 0.8803(12) 0.5682(10) 0.6228(5)
C184_6 C 0.8672(10) 0.5479(10) 0.6086(4)
H81_6 H 0.8430 0.5434 0.6041
C185_6 C 0.8923(10) 0.5365(9) 0.6028(3)
H82_6 H 0.8870 0.5254 0.5935
C186_6 C 0.8546(14) 0.5787(9) 0.6305(6)
N47_6 N 0.8584(9) 0.5920(7) 0.6447(4)
C187_6 C 0.8292(14) 0.5978(7) 0.6496(5)
N48_6 N 0.8176(12) 0.5726(6) 0.6233(2)
N49_6 N 0.8375(7) 0.6121(7) 0.6638(3)
C188_6 C 0.8482(9) 0.6306(7) 0.6936(3)
H83_6 H 0.8678 0.6271 0.6886
C189_6 C 0.8521(9) 0.6396(7) 0.7080(3)
H84_6 H 0.8748 0.6431 0.7134
Cu18_6 Cu 0.97492(14) 0.48747(16) 0.58039(5)
O61_6 O 0.4358(8) 0.4904(6) 0.5933(2)
O62_6 O 0.5096(6) 0.5642(8) 0.5933(2)
O63_6 O 0.4562(8) 0.4699(5) 0.57283(19)
O64_6 O 0.5301(5) 0.5438(8) 0.57283(19)
O66_6 O 0.5636(7) 0.0543(5) 0.5914(2)
O69_6 O 0.5436(9) 0.0136(7) 0.6108(2)
O73_4 O 0.8915(11) 0.7207(8) 0.7555(2)
Cu1_6 Cu 0.48833(8) 0.97667(16) 0.60334(6)
O1_6 O 0.5096(6) 0.9455(6) 0.5933(2)
O2_6 O 0.5301(5) 0.9864(6) 0.57283(19)
O5_6 O 0.4683(3) 0.9368(7) 0.6227(2)
C1_6 C 0.5231(6) 0.9535(10) 0.5816(4)
C2_6 C 0.5359(11) 0.9298(12) 0.5730(5)
C3_6 C 0.5321(10) 0.8952(11) 0.5800(3)
H1_6 H 0.5224 0.8894 0.5895
C4_6 C 0.5438(11) 0.8674(10) 0.5723(4)
H2_6 H 0.5396 0.8438 0.5772
C5_6 C 0.5599(11) 0.8733(14) 0.5588(5)
C6_6 C 0.5636(10) 0.9087(11) 0.5530(3)
H3_6 H 0.5761 0.9166 0.5440
C7_6 C 0.5505(10) 0.9348(10) 0.5594(4)
H4_6 H 0.5520 0.9564 0.5538
C8_6 C 0.5697(11) 0.8455(17) 0.5541(6)
N1_6 N 0.5631(7) 0.8116(13) 0.5601(3)
C9_6 C 0.5690(12) 0.7845(6) 0.5526(9)
N2_6 N 0.5809(13) 0.7905(6) 0.5384(6)
C10_6 C 0.5867(10) 0.8288(13) 0.5334(5)
N3_6 N 0.5843(10) 0.8587(9) 0.5407(4)
N9_8 N 0.0000 1.0000 0.7509(7)
C34_6 C 0.6441(16) 0.8221(8) 0.4479(7)
C35_6 C 0.6489(14) 0.8245(7) 0.4668(7)
C36_6 C 0.6405(9) 0.8518(11) 0.4749(4)
H13_6 H 0.6462 0.8764 0.4704
C37_6 C 0.6228(10) 0.8452(10) 0.4907(4)
H14_6 H 0.6179 0.8641 0.4956
C38_6 C 0.6154(15) 0.8078(8) 0.4965(7)
C39_6 C 0.6098(19) 0.8050(9) 0.5105(7)
N10_6 N 0.6041(10) 0.8338(9) 0.5180(3)
C47_6 C 0.5231(6) 0.5697(12) 0.5816(4)
C48_6 C 0.5359(11) 0.6062(16) 0.5730(5)
C49_6 C 0.5321(10) 0.6370(15) 0.5800(3)
H17_6 H 0.5224 0.6331 0.5895
C50_6 C 0.5438(11) 0.6765(15) 0.5723(4)
H18_6 H 0.5396 0.6959 0.5772
C51_6 C 0.5599(11) 0.6867(18) 0.5588(5)
C52_6 C 0.5636(10) 0.6550(15) 0.5530(3)
H19_6 H 0.5761 0.6596 0.5440
C53_6 C 0.5505(10) 0.6158(14) 0.5594(4)
H20_6 H 0.5520 0.5957 0.5538
C54_6 C 0.5697(11) 0.7243(20) 0.5541(6)
N13_6 N 0.5631(7) 0.7516(15) 0.5601(3)
C55_6 C 0.5867(10) 0.7580(16) 0.5334(5)
N14_6 N 0.5843(10) 0.7257(13) 0.5407(4)
C56_6 C 0.6405(9) 0.7888(14) 0.4749(4)
H21_6 H 0.6462 0.7699 0.4704
C57_6 C 0.6228(10) 0.7777(14) 0.4907(4)
H22_6 H 0.6179 0.7539 0.4956
N15_6 N 0.6041(10) 0.7704(13) 0.5180(3)
N19_6 N 0.0027(13) 0.9399(8) 0.7508(3)
C75_6 C 0.0209(18) 0.9790(8) 0.7508(4)
N23_6 N 0.0601(8) 0.9973(13) 0.7508(3)
C136_6 C 0.4303(12) 0.4769(6) 0.5816(4)
C137_6 C 0.3938(16) 0.4641(11) 0.5730(5)
C138_6 C 0.3630(15) 0.4679(10) 0.5800(3)
H61_6 H 0.3669 0.4776 0.5895
C139_6 C 0.3235(15) 0.4562(11) 0.5723(4)
H62_6 H 0.3041 0.4604 0.5772
C140_6 C 0.3133(18) 0.4401(11) 0.5588(5)
C141_6 C 0.3450(15) 0.4364(10) 0.5530(3)
H63_6 H 0.3404 0.4239 0.5440
C142_6 C 0.3842(14) 0.4495(10) 0.5594(4)
H64_6 H 0.4043 0.4480 0.5538
C143_6 C 0.2757(20) 0.4303(11) 0.5541(6)
N36_6 N 0.2484(15) 0.4369(7) 0.5601(3)
C144_6 C 0.2154(13) 0.4310(12) 0.5526(9)
N37_6 N 0.2095(14) 0.4191(13) 0.5384(6)
C145_6 C 0.2420(16) 0.4133(10) 0.5334(5)
N38_6 N 0.2743(13) 0.4157(10) 0.5407(4)
C146_6 C 0.1779(18) 0.3559(16) 0.4479(7)
C147_6 C 0.1755(16) 0.3511(14) 0.4668(7)
C148_6 C 0.2112(14) 0.3595(9) 0.4749(4)
H65_6 H 0.2301 0.3538 0.4704
C149_6 C 0.2223(14) 0.3772(10) 0.4907(4)
H66_6 H 0.2461 0.3821 0.4956
C150_6 C 0.1923(17) 0.3846(15) 0.4965(7)
C151_6 C 0.1951(21) 0.3902(19) 0.5105(7)
N39_6 N 0.2296(13) 0.3959(10) 0.5180(3)
O40_6 O 0.0545(6) 0.4904(6) 0.5933(2)
O41_6 O 0.0136(6) 0.4699(5) 0.57283(19)
O42_5 O 0.1380(6) 0.3389(7) 0.4469(3)
C152_6 C 0.0465(10) 0.4769(6) 0.5816(4)
C153_6 C 0.0702(12) 0.4641(11) 0.5730(5)
C154_6 C 0.1048(11) 0.4679(10) 0.5800(3)
H67_6 H 0.1106 0.4776 0.5895
C155_6 C 0.1326(10) 0.4562(11) 0.5723(4)
H68_6 H 0.1562 0.4604 0.5772
C156_6 C 0.1267(14) 0.4401(11) 0.5588(5)
C157_6 C 0.0913(11) 0.4364(10) 0.5530(3)
H69_6 H 0.0834 0.4239 0.5440
C158_6 C 0.0652(10) 0.4495(10) 0.5594(4)
H70_6 H 0.0436 0.4480 0.5538
C159_6 C 0.1545(17) 0.4303(11) 0.5541(6)
N40_6 N 0.1884(13) 0.4369(7) 0.5601(3)
C160_6 C 0.1712(13) 0.4133(10) 0.5334(5)
N41_6 N 0.1413(9) 0.4157(10) 0.5407(4)
C161_6 C 0.1482(11) 0.3595(9) 0.4749(4)
H71_6 H 0.1236 0.3538 0.4704
C162_6 C 0.1548(10) 0.3772(10) 0.4907(4)
H72_6 H 0.1359 0.3821 0.4956
N42_6 N 0.1662(9) 0.3959(10) 0.5180(3)
O52_6 O 0.4358(8) 0.9455(6) 0.5933(2)
O53_6 O 0.4562(8) 0.9864(6) 0.57283(19)
O54_5 O 0.2008(9) 0.8620(6) 0.4469(3)
C190_6 C 0.4303(12) 0.9535(10) 0.5816(4)
C191_6 C 0.3938(16) 0.9298(12) 0.5730(5)
C192_6 C 0.3630(15) 0.8952(11) 0.5800(3)
H85_6 H 0.3669 0.8894 0.5895
C193_6 C 0.3235(15) 0.8674(10) 0.5723(4)
H86_6 H 0.3041 0.8438 0.5772
C194_6 C 0.3133(18) 0.8733(14) 0.5588(5)
C195_6 C 0.3450(15) 0.9087(11) 0.5530(3)
H87_6 H 0.3404 0.9166 0.5440
C196_6 C 0.3842(14) 0.9348(10) 0.5594(4)
H88_6 H 0.4043 0.9564 0.5538
C197_6 C 0.2757(20) 0.8455(17) 0.5541(6)
N50_6 N 0.2484(15) 0.8116(13) 0.5601(3)
C198_6 C 0.2155(6) 0.7846(13) 0.5526(9)
N51_6 N 0.2095(6) 0.7905(14) 0.5384(6)
C199_6 C 0.2420(16) 0.8288(13) 0.5334(5)
N52_6 N 0.2743(13) 0.8587(9) 0.5407(4)
C200_6 C 0.1779(8) 0.8221(18) 0.4479(7)
C201_6 C 0.1755(7) 0.8245(16) 0.4668(7)
C202_6 C 0.2112(14) 0.8518(11) 0.4749(4)
H89_6 H 0.2301 0.8764 0.4704
C203_6 C 0.2223(14) 0.8452(10) 0.4907(4)
H90_6 H 0.2461 0.8641 0.4956
C204_6 C 0.1922(8) 0.8077(17) 0.4965(7)
C205_6 C 0.1950(9) 0.8049(21) 0.5105(7)
N53_6 N 0.2296(13) 0.8338(9) 0.5180(3)
O55_6 O 0.0545(6) 0.5642(8) 0.5933(2)
O56_6 O 0.0136(6) 0.5438(8) 0.57283(19)
O57_5 O 0.1380(6) 0.7992(9) 0.4469(3)
C206_6 C 0.0465(10) 0.5697(12) 0.5816(4)
C207_6 C 0.0702(12) 0.6062(16) 0.5730(5)
C208_6 C 0.1048(11) 0.6370(15) 0.5800(3)
H91_6 H 0.1106 0.6331 0.5895
C209_6 C 0.1326(10) 0.6765(15) 0.5723(4)
H92_6 H 0.1562 0.6959 0.5772
C210_6 C 0.1267(14) 0.6867(18) 0.5588(5)
C211_6 C 0.0913(11) 0.6550(15) 0.5530(3)
H93_6 H 0.0834 0.6596 0.5440
C212_6 C 0.0652(10) 0.6158(14) 0.5594(4)
H94_6 H 0.0436 0.5957 0.5538
C213_6 C 0.1545(17) 0.7243(20) 0.5541(6)
N54_6 N 0.1884(13) 0.7516(15) 0.5601(3)
C214_6 C 0.1712(13) 0.7580(16) 0.5334(5)
N55_6 N 0.1413(9) 0.7257(13) 0.5407(4)
C215_6 C 0.1482(11) 0.7888(14) 0.4749(4)
H95_6 H 0.1236 0.7699 0.4704
C216_6 C 0.1548(10) 0.7777(14) 0.4907(4)
H96_6 H 0.1359 0.7539 0.4956
N56_6 N 0.1662(9) 0.7704(13) 0.5180(3)
O19_4 O 0.8291(8) 0.1085(11) 0.7555(2)
C76_6 C 0.8744(11) 0.1258(23) 0.7536(6)
C77_6 C 0.8965(13) 0.1039(33) 0.7520(7)
C78_6 C 0.8720(12) 0.0639(16) 0.7538(3)
H31_6 H 0.8434 0.0509 0.7550
C79_6 C 0.8941(11) 0.0446(16) 0.7537(4)
H32_6 H 0.8801 0.0160 0.7550
C80_6 C 0.9357(11) 0.0641(23) 0.7518(6)
C81_6 C 0.9612(10) 0.0386(22) 0.7510(5)
O21_4 O 0.8915(11) 0.1709(8) 0.7555(2)
C85_6 C 0.9361(16) 0.1280(12) 0.7538(3)
H35_6 H 0.9491 0.1566 0.7550
C86_6 C 0.9554(16) 0.1059(11) 0.7537(4)
H36_6 H 0.9840 0.1199 0.7550
C69_6 C 0.8742(23) 0.749(2) 0.7536(6)
C70_6 C 0.8961(33) 0.793(3) 0.7520(7)
C71_6 C 0.9361(16) 0.8082(11) 0.7538(3)
H29_6 H 0.9491 0.7926 0.7550
C72_6 C 0.9554(16) 0.8496(12) 0.7537(4)
H30_6 H 0.9840 0.8642 0.7550
C73_6 C 0.9359(23) 0.872(2) 0.7518(6)
C74_6 C 0.9614(22) 0.923(2) 0.7510(5)
N20_6 N 0.9371(10) 0.9973(13) 0.7508(3)
C82_6 C 0.9580(16) 0.9791(18) 0.7508(4)
O20_4 O 0.8291(8) 0.7207(8) 0.7555(2)
C83_6 C 0.8720(12) 0.8082(11) 0.7538(3)
H33_6 H 0.8434 0.7926 0.7550
C84_6 C 0.8941(11) 0.8496(12) 0.7537(4)
H34_6 H 0.8801 0.8642 0.7550
N21_6 N 0.9371(10) 0.9399(8) 0.7508(3)
O59_8 O 0.7297(6) 0.0664(8) 0.7537(2)
O60_8 O 0.9336(8) 0.2703(10) 0.7537(2)
O71_8 O 0.7998(6) 0.1416(9) 0.7375(2)
O72_8 O 0.8584(9) 0.2002(11) 0.7375(2)
O7_4 O 0.4665(6) 0.4749(9) 0.0708(2)
O11_4 O 0.3964(6) 0.3997(8) 0.0870(2)
C21_7 C 0.4759(7) 0.5241(15) 0.0032(7)
C22_7 C 0.4801(6) 0.5200(13) 0.0201(7)
C23_7 C 0.5149(9) 0.5510(11) 0.0269(3)
H9_7 H 0.5345 0.5741 0.0219
C24_7 C 0.5188(9) 0.5459(11) 0.0413(3)
H10_7 H 0.5415 0.5651 0.0467
C25_7 C 0.4881(6) 0.5118(13) 0.0472(6)
C26_7 C 0.4956(7) 0.5044(17) 0.0646(6)
O17_4 O 0.5251(9) 0.5335(11) 0.0708(2)
C67_7 C 0.4490(11) 0.4851(13) 0.0269(3)
H27_7 H 0.4259 0.4655 0.0219
C68_7 C 0.4541(11) 0.4812(13) 0.0413(3)
H28_7 H 0.4349 0.4585 0.0467
O58_6 O 0.6003(8) 0.6036(10) 0.0870(2)
H103_6 H 0.984989 0.607327 0.09391
O3_7 O 0.6124(5) 0.7697(7) 0.9247(2)
O4_7 O 0.6531(7) 0.7897(9) 0.9441(2)
O5_7 O 0.7299(7) 0.8649(8) 0.9560(2)
O6_7 O 0.5969(6) 0.7985(7) 0.8958(2)
C11_7 C 0.6227(11) 0.7646(13) 0.9367(4)
C12_7 C 0.5939(11) 0.7197(14) 0.9438(4)
C13_7 C 0.6020(10) 0.7138(14) 0.9579(4)
H5_7 H 0.6232 0.7352 0.9631
C14_7 C 0.5777(10) 0.6749(13) 0.9639(3)
H6_7 H 0.5827 0.6695 0.9733
C15_7 C 0.5470(12) 0.6455(16) 0.9561(5)
C16_7 C 0.5339(10) 0.6527(14) 0.9419(4)
H7_7 H 0.5097 0.6330 0.9374
C17_7 C 0.5590(10) 0.6892(13) 0.9361(3)
H8_7 H 0.5537 0.6950 0.9268
C18_7 C 0.5213(14) 0.6093(17) 0.9638(6)
N4_7 N 0.5251(9) 0.5998(11) 0.9780(4)
C19_7 C 0.4959(14) 0.5648(16) 0.9829(5)
N5_7 N 0.4629(7) 0.5372(16) 0.9774(7)
C20_7 C 0.4574(8) 0.5425(18) 0.9629(9)
N6_7 N 0.4843(12) 0.5784(13) 0.9566(2)
N7_7 N 0.5042(7) 0.5588(10) 0.9971(3)
C58_7 C 0.2354(13) 0.3773(14) 0.9367(4)
C59_7 C 0.2803(14) 0.4061(17) 0.9438(4)
C60_7 C 0.2862(14) 0.3980(17) 0.9579(4)
H23_7 H 0.2648 0.3768 0.9631
C61_7 C 0.3251(13) 0.4223(16) 0.9639(3)
H24_7 H 0.3305 0.4173 0.9733
C62_7 C 0.3545(16) 0.4530(19) 0.9561(5)
C63_7 C 0.3473(14) 0.4661(17) 0.9419(4)
H25_7 H 0.3670 0.4903 0.9374
C64_7 C 0.3108(13) 0.4410(16) 0.9361(3)
H26_7 H 0.3050 0.4463 0.9268
C65_7 C 0.3907(17) 0.4787(19) 0.9638(6)
N16_7 N 0.4002(11) 0.4749(13) 0.9780(4)
C66_7 C 0.4352(16) 0.5041(17) 0.9829(5)
N17_7 N 0.4216(13) 0.5157(14) 0.9566(2)
N18_7 N 0.4412(10) 0.4958(12) 0.9971(3)
H114_6 H 0.974919 0.598721 0.0852714
H99_6 H 0.61829 0.0191666 0.0801706
H100_6 H 0.61542 0.000164074 0.0962346
H118_6 H 0.386026 0.00276651 0.0960634
O58_7 O 0.3964(10) 0.9967(6) 0.0870(2)
O60_9 O 0.7297(10) 0.6634(6) 0.7537(2)
O5_8 O 0.0632(7) 0.5316(8) 0.6227(2)
N9_9 N 0.0000 0.0001 0.7509(7)
O59_9 O 0.0631(6) 0.7330(8) 0.4203(2)
O60_10 O 0.2670(8) 0.9369(10) 0.4203(2)
O71_9 O 0.1332(6) 0.8082(9) 0.4041(2)
O72_9 O 0.1918(9) 0.8668(11) 0.4041(2)
O3_8 O 0.9457(5) 0.4364(7) 0.5914(2)
O4_8 O 0.9864(7) 0.4564(9) 0.6108(2)
O6_8 O 0.9302(6) 0.4652(7) 0.5625(2)
C11_8 C 0.9560(11) 0.4313(13) 0.6034(4)
C12_8 C 0.9272(11) 0.3864(14) 0.6105(4)
C13_8 C 0.9353(10) 0.3805(14) 0.6246(4)
H5_8 H 0.9565 0.4019 0.6298
C14_8 C 0.9110(10) 0.3416(13) 0.6306(3)
H6_8 H 0.9160 0.3362 0.6400
C15_8 C 0.8803(12) 0.3122(16) 0.6228(5)
C16_8 C 0.8672(10) 0.3194(14) 0.6086(4)
H7_8 H 0.8430 0.2997 0.6041
C17_8 C 0.8923(10) 0.3559(13) 0.6028(3)
H8_8 H 0.8870 0.3617 0.5935
C18_8 C 0.8546(14) 0.2760(17) 0.6305(6)
N4_8 N 0.8584(9) 0.2665(11) 0.6447(4)
C19_8 C 0.8292(14) 0.2315(16) 0.6496(5)
N5_8 N 0.7962(7) 0.2039(16) 0.6441(7)
C20_8 C 0.7907(8) 0.2092(18) 0.6296(9)
N6_8 N 0.8176(12) 0.2451(13) 0.6233(2)
N7_8 N 0.8375(7) 0.2255(10) 0.6638(3)
C21_8 C 0.8092(7) 0.1908(15) 0.6699(7)
C22_8 C 0.8134(6) 0.1867(13) 0.6868(7)
C23_8 C 0.8482(9) 0.2177(11) 0.6936(3)
H9_8 H 0.8678 0.2408 0.6886
C24_8 C 0.8521(9) 0.2126(11) 0.7080(3)
H10_8 H 0.8748 0.2318 0.7134
C25_8 C 0.8214(6) 0.1785(13) 0.7139(6)
C26_8 C 0.8289(7) 0.1711(17) 0.7313(6)
C58_8 C 0.5687(13) 0.0440(14) 0.6034(4)
C59_8 C 0.6136(14) 0.0728(17) 0.6105(4)
C60_8 C 0.6195(14) 0.0647(17) 0.6246(4)
H23_8 H 0.5981 0.0435 0.6298
C61_8 C 0.6584(13) 0.0890(16) 0.6306(3)
H24_8 H 0.6638 0.0840 0.6400
C62_8 C 0.6878(16) 0.1197(19) 0.6228(5)
C63_8 C 0.6806(14) 0.1328(17) 0.6086(4)
H25_8 H 0.7003 0.1570 0.6041
C64_8 C 0.6441(13) 0.1077(16) 0.6028(3)
H26_8 H 0.6383 0.1130 0.5935
C65_8 C 0.7240(17) 0.1454(19) 0.6305(6)
N16_8 N 0.7335(11) 0.1416(13) 0.6447(4)
C66_8 C 0.7685(16) 0.1708(17) 0.6496(5)
N17_8 N 0.7549(13) 0.1824(14) 0.6233(2)
N18_8 N 0.7745(10) 0.1625(12) 0.6638(3)
C67_8 C 0.7823(11) 0.1518(13) 0.6936(3)
H27_8 H 0.7592 0.1322 0.6886
C68_8 C 0.7874(11) 0.1479(13) 0.7080(3)
H28_8 H 0.7682 0.1252 0.7134
N9_10 N 0.9999 1.0000 0.7509(7)
O60_11 O 0.0631(10) 0.3300(6) 0.4203(2)
O3_9 O 0.2791(5) 0.1030(7) 0.2580(2)
O4_9 O 0.3198(7) 0.1230(9) 0.2774(2)
O5_9 O 0.3966(7) 0.1982(8) 0.2893(2)
O6_9 O 0.2636(6) 0.1318(7) 0.2291(2)
C11_9 C 0.2894(11) 0.0979(13) 0.2700(4)
C12_9 C 0.2606(11) 0.0530(14) 0.2771(4)
C13_9 C 0.2687(10) 0.0471(14) 0.2912(4)
H5_9 H 0.2899 0.0685 0.2964
C14_9 C 0.2444(10) 0.0082(13) 0.2972(3)
H6_9 H 0.2494 0.0028 0.3066
C17_9 C 0.2257(10) 0.0225(13) 0.2694(3)
H8_9 H 0.2204 0.0283 0.2601
C15_9 C 0.2137(12) 0.9788(16) 0.2894(5)
C16_9 C 0.2006(10) 0.9860(14) 0.2752(4)
H7_9 H 0.1764 0.9663 0.2707
C18_9 C 0.1880(14) 0.9426(17) 0.2971(6)
N4_9 N 0.1918(9) 0.9331(11) 0.3113(4)
C19_9 C 0.1626(14) 0.8981(16) 0.3162(5)
N5_9 N 0.1296(7) 0.8705(16) 0.3107(7)
C20_9 C 0.1241(8) 0.8758(18) 0.2962(9)
N6_9 N 0.1510(12) 0.9117(13) 0.2899(2)
N7_9 N 0.1709(7) 0.8921(10) 0.3304(3)
C21_9 C 0.1426(7) 0.8574(15) 0.3365(7)
C22_9 C 0.1468(6) 0.8533(13) 0.3534(7)
C23_9 C 0.1816(9) 0.8843(11) 0.3602(3)
H9_9 H 0.2012 0.9074 0.3552
C24_9 C 0.1855(9) 0.8792(11) 0.3746(3)
H10_9 H 0.2082 0.8984 0.3800
C25_9 C 0.1548(6) 0.8451(13) 0.3805(6)
C26_9 C 0.1623(7) 0.8377(17) 0.3979(6)
C62_9 C 0.0212(16) 0.7863(19) 0.2894(5)
C63_9 C 0.0140(14) 0.7994(17) 0.2752(4)
H25_9 H 0.0337 0.8236 0.2707
C65_9 C 0.0574(17) 0.8120(19) 0.2971(6)
N16_9 N 0.0669(11) 0.8082(13) 0.3113(4)
C66_9 C 0.1019(16) 0.8374(17) 0.3162(5)
N17_9 N 0.0883(13) 0.8490(14) 0.2899(2)
N18_9 N 0.1079(10) 0.8291(12) 0.3304(3)
C67_9 C 0.1157(11) 0.8184(13) 0.3602(3)
H27_9 H 0.0926 0.7988 0.3552
C68_9 C 0.1208(11) 0.8145(13) 0.3746(3)
H28_9 H 0.1016 0.7918 0.3800
N12_9 N 1.0000 0.9999 0.4350(4)
C58_9 C 0.9021(13) 0.7106(14) 0.2700(4)
C59_9 C 0.9470(14) 0.7394(17) 0.2771(4)
C60_9 C 0.9529(14) 0.7313(17) 0.2912(4)
H23_9 H 0.9315 0.7101 0.2964
C61_9 C 0.9918(13) 0.7556(16) 0.2972(3)
H24_9 H 0.9972 0.7506 0.3066
C64_9 C 0.9775(13) 0.7743(16) 0.2694(3)
H26_9 H 0.9717 0.7796 0.2601
N12_10 N 0.0001 0.0000 0.4350(4)
H119_6 H 0.397637 0.0224314 0.0905569
H99_7 H 0.400877 0.0191666 0.0801706
H100_7 H 0.384744 0.000164074 0.0962346
H103_7 H 0.984989 0.377661 0.09391
H118_7 H 0.616741 0.00276651 0.0960634
H114_7 H 0.974919 0.376198 0.0852714
H99_8 H 0.980833 0.38171 0.0801706
H100_8 H 0.999836 0.38458 0.0962346
H118_8 H 0.997233 0.613974 0.0960634
H114_8 H 0.401279 0.0250813 0.0852714
H103_8 H 0.392673 0.0150113 0.09391
H119_7 H 0.624794 0.0224314 0.0905569
H119_8 H 0.977569 0.602363 0.0905569
loop_
_geom_bond_atom_site_label_1
_geom_bond_atom_site_label_2
_geom_bond_site_symmetry_1
_geom_bond_site_symmetry_2
O73 Cu9 1_555 1_555
O78 Cu9 1_555 1_555
Cu9 Cu24 1_555 1_555
Cu1 Cu2 1_555 1_555
Cu2 O2 1_555 1_555
O1 Cu1 1_555 1_555
O2 C1 1_555 1_555
O3 Cu2 1_555 1_555
O4 Cu1 1_555 1_555
O5 Cu1 1_555 1_555
O6 Cu2 1_555 1_555
O9 C34 1_555 1_555
C1 O1 1_555 1_555
C2 C1 1_555 1_555
C3 C2 1_555 1_555
H1 C3 1_555 1_555
C4 C3 1_555 1_555
H2 C4 1_555 1_555
C5 C4 1_555 1_555
C6 C5 1_555 1_555
H3 C6 1_555 1_555
C7 C2 1_555 1_555
H4 C7 1_555 1_555
C8 C5 1_555 1_555
N1 C8 1_555 1_555
C9 N1 1_555 1_555
N2 C9 1_555 1_555
C10 N2 1_555 1_555
N3 C8 1_555 1_555
C11 O3 1_555 1_555
C12 C11 1_555 1_555
C13 C12 1_555 1_555
H5 C13 1_555 1_555
C14 C13 1_555 1_555
H6 C14 1_555 1_555
C15 C14 1_555 1_555
C16 C15 1_555 1_555
H7 C16 1_555 1_555
C17 C12 1_555 1_555
H8 C17 1_555 1_555
C18 C15 1_555 1_555
N4 C18 1_555 1_555
C19 N4 1_555 1_555
N5 C19 1_555 1_555
C20 N5 1_555 1_555
N6 C18 1_555 1_555
N7 C19 1_555 1_555
C34 C35 1_555 1_555
C35 C36 1_555 1_555
C36 H13 1_555 1_555
C37 C36 1_555 1_555
H14 C37 1_555 1_555
C38 C37 1_555 1_555
C39 C38 1_555 1_555
N10 C10 1_555 1_555
O14 C34 1_555 1_555
H18 C50 1_555 1_555
C51 C50 1_555 1_555
C54 C51 1_555 1_555
N13 C9 1_555 1_555
C55 N2 1_555 1_555
N14 C54 1_555 1_555
C56 C35 1_555 1_555
H21 C56 1_555 1_555
C57 C38 1_555 1_555
H22 C57 1_555 1_555
N15 C39 1_555 1_555
O15 C58 1_555 1_555
O16 C58 1_555 1_555
C58 C59 1_555 1_555
C59 C60 1_555 1_555
C60 H23 1_555 1_555
C61 C60 1_555 1_555
H24 C61 1_555 1_555
C62 C61 1_555 1_555
C63 C62 1_555 1_555
H25 C63 1_555 1_555
C64 C59 1_555 1_555
H26 C64 1_555 1_555
C65 C62 1_555 1_555
N16 C65 1_555 1_555
C66 N5 1_555 1_555
N17 C20 1_555 1_555
Cu7 O16 1_555 1_555
Cu8 O15 1_555 1_555
O43 Cu8 1_555 1_555
O44 Cu7 1_555 1_555
O45 Cu7 1_555 1_555
O46 Cu8 1_555 1_555
C163 O43 1_555 1_555
C164 C163 1_555 1_555
C165 C164 1_555 1_555
H73 C165 1_555 1_555
C166 C165 1_555 1_555
H74 C166 1_555 1_555
C167 C166 1_555 1_555
C168 C167 1_555 1_555
H75 C168 1_555 1_555
C169 C164 1_555 1_555
H76 C169 1_555 1_555
C170 C167 1_555 1_555
N43 C170 1_555 1_555
C171 N43 1_555 1_555
N44 C171 1_555 1_555
C172 N44 1_555 1_555
N45 C170 1_555 1_555
N46 C171 1_555 1_555
O49 C179 1_555 1_555
O50 C179 1_555 1_555
C179 C180 1_555 1_555
C180 C181 1_555 1_555
C181 H79 1_555 1_555
C182 C181 1_555 1_555
H80 C182 1_555 1_555
C183 C182 1_555 1_555
C184 C183 1_555 1_555
H81 C184 1_555 1_555
C185 C180 1_555 1_555
H82 C185 1_555 1_555
C186 C183 1_555 1_555
N47 C186 1_555 1_555
C187 N44 1_555 1_555
N48 C172 1_555 1_555
O52 Cu1 1_555 1_555
O53 Cu2 1_555 1_555
C190 O52 1_555 1_555
C191 C190 1_555 1_555
C192 C191 1_555 1_555
H85 C192 1_555 1_555
H87 C195 1_555 1_555
C196 C191 1_555 1_555
H88 C196 1_555 1_555
Cu11 O9 1_555 1_555
O59 Cu11 1_555 1_555
Cu12 O14 1_555 1_555
O60 Cu12 1_555 1_555
Cu15 O50 1_555 1_555
Cu18 O49 1_555 1_555
O61 Cu7 1_555 1_555
O62 Cu7 1_555 1_555
O63 Cu8 1_555 1_555
O64 Cu8 1_555 1_555
O66 Cu2 1_555 1_555
O69 Cu1 1_555 1_555
O71 Cu11 1_555 1_555
O72 Cu12 1_555 1_555
O74 Cu11 1_555 1_555
O75 Cu12 1_555 1_555
O81 Cu11 1_555 1_555
O82 Cu12 1_555 1_555
O4 C11 1_555 1_555
C6 C7 1_555 1_555
C10 N3 1_555 1_555
C16 C17 1_555 1_555
C20 N6 1_555 1_555
C39 N10 1_555 1_555
C54 N13 1_555 1_555
C55 N14 1_555 1_555
C55 N15 1_555 1_555
C56 C57 1_555 1_555
C63 C64 1_555 1_555
C65 N17 1_555 1_555
N16 C66 1_555 1_555
C66 N18 1_555 1_555
Cu7 Cu8 1_555 1_555
O44 C163 1_555 1_555
C168 C169 1_555 1_555
C172 N45 1_555 1_555
C184 C185 1_555 1_555
C186 N48 1_555 1_555
N47 C187 1_555 1_555
C187 N49 1_555 1_555
O53 C190 1_555 1_555
C195 C196 1_555 1_555
Cu11 Cu12 1_555 1_555
Cu15 Cu18 1_555 1_555
O7 C26 1_555 1_555
C22 C21 1_555 1_555
C23 C22 1_555 1_555
H9 C23 1_555 1_555
C24 C23 1_555 1_555
H10 C24 1_555 1_555
C25 C24 1_555 1_555
C26 C25 1_555 1_555
C40 O10 1_555 1_555
C41 C40 1_555 1_555
C42 C41 1_555 1_555
H15 C42 1_555 1_555
C43 C42 1_555 1_555
H16 C43 1_555 1_555
C44 C43 1_555 1_555
C45 C44 1_555 1_555
N11 C45 1_555 1_555
C46 N11 1_555 1_555
N12 C46 1_555 1_555
O17 C26 1_555 1_555
C67 C22 1_555 1_555
H27 C67 1_555 1_555
C68 C25 1_555 1_555
H28 C68 1_555 1_555
O23 C89 1_555 1_555
C89 C90 1_555 1_555
C90 C91 1_555 1_555
C91 H39 1_555 1_555
C92 C91 1_555 1_555
H40 C92 1_555 1_555
C93 C92 1_555 1_555
C94 C93 1_555 1_555
N24 C94 1_555 1_555
C95 N12 1_555 1_555
O24 C96 1_555 1_555
C96 C97 1_555 1_555
C97 C98 1_555 1_555
C98 H41 1_555 1_555
C99 C98 1_555 1_555
H42 C99 1_555 1_555
C100 C99 1_555 1_555
C101 C100 1_555 1_555
N25 C101 1_555 1_555
C102 N12 1_555 1_555
O25 C89 1_555 1_555
C103 C90 1_555 1_555
H43 C103 1_555 1_555
C104 C93 1_555 1_555
H44 C104 1_555 1_555
N26 C46 1_555 1_555
O26 C96 1_555 1_555
C105 C97 1_555 1_555
H45 C105 1_555 1_555
C106 C100 1_555 1_555
H46 C106 1_555 1_555
N27 C95 1_555 1_555
O27 C40 1_555 1_555
C107 C41 1_555 1_555
H47 C107 1_555 1_555
C108 C44 1_555 1_555
H48 C108 1_555 1_555
N28 C45 1_555 1_555
C174 C173 1_555 1_555
C175 C174 1_555 1_555
H77 C175 1_555 1_555
C176 C175 1_555 1_555
H78 C176 1_555 1_555
C177 C176 1_555 1_555
C178 O47 1_555 1_555
O51 C178 1_555 1_555
C188 C174 1_555 1_555
H83 C188 1_555 1_555
C189 C177 1_555 1_555
H84 C189 1_555 1_555
Cu20 O24 1_555 1_555
Cu27 O26 1_555 1_555
C67 C68 1_555 1_555
C94 N26 1_555 1_555
N24 C95 1_555 1_555
C101 N27 1_555 1_555
N25 C102 1_555 1_555
C102 N28 1_555 1_555
C103 C104 1_555 1_555
C105 C106 1_555 1_555
C107 C108 1_555 1_555
C177 C178 1_555 1_555
C188 C189 1_555 1_555
Cu20 Cu27 1_555 1_555
O54 C200 1_555 1_555
H86 C193 1_555 1_555
C194 C193 1_555 1_555
C197 C194 1_555 1_555
N50 C197 1_555 1_555
C198 N50 1_555 1_555
N51 C198 1_555 1_555
C199 N51 1_555 1_555
N52 C197 1_555 1_555
C200 C201 1_555 1_555
C201 C202 1_555 1_555
C202 H89 1_555 1_555
C203 C202 1_555 1_555
H90 C203 1_555 1_555
C204 C203 1_555 1_555
C205 C204 1_555 1_555
N53 C199 1_555 1_555
O57 C200 1_555 1_555
H92 C209 1_555 1_555
C210 C209 1_555 1_555
C213 C210 1_555 1_555
N54 C198 1_555 1_555
C214 N51 1_555 1_555
N55 C213 1_555 1_555
C215 C201 1_555 1_555
H95 C215 1_555 1_555
C216 C204 1_555 1_555
H96 C216 1_555 1_555
N56 C205 1_555 1_555
Cu22 O57 1_555 1_555
Cu28 O54 1_555 1_555
C199 N52 1_555 1_555
C205 N53 1_555 1_555
C213 N54 1_555 1_555
C214 N55 1_555 1_555
C214 N56 1_555 1_555
C215 C216 1_555 1_555
Cu22 Cu28 1_555 1_555
O8 Cu3 1_555 1_555
C27 O8 1_555 1_555
C28 C27 1_555 1_555
C29 C28 1_555 1_555
H11 C29 1_555 1_555
C30 C29 1_555 1_555
H12 C30 1_555 1_555
C31 C30 1_555 1_555
C32 C31 1_555 1_555
N8 C32 1_555 1_555
C33 N8 1_555 1_555
N9 C33 1_555 1_555
O73 C69 1_555 1_555
C69 C70 1_555 1_555
C70 C71 1_555 1_555
C71 H29 1_555 1_555
C72 C71 1_555 1_555
H30 C72 1_555 1_555
C73 C72 1_555 1_555
C74 C73 1_555 1_555
N19 C74 1_555 1_555
C75 N9 1_555 1_555
O19 C76 1_555 1_555
C76 C77 1_555 1_555
C77 C78 1_555 1_555
C78 H31 1_555 1_555
C79 C78 1_555 1_555
H32 C79 1_555 1_555
C80 C79 1_555 1_555
C81 C80 1_555 1_555
N20 C81 1_555 1_555
C82 N9 1_555 1_555
O20 C69 1_555 1_555
C83 C70 1_555 1_555
H33 C83 1_555 1_555
C84 C73 1_555 1_555
H34 C84 1_555 1_555
N21 C74 1_555 1_555
O21 C76 1_555 1_555
C85 C77 1_555 1_555
H35 C85 1_555 1_555
C86 C80 1_555 1_555
H36 C86 1_555 1_555
N22 C33 1_555 1_555
O22 C27 1_555 1_555
C87 C28 1_555 1_555
H37 C87 1_555 1_555
C88 C31 1_555 1_555
H38 C88 1_555 1_555
N23 C32 1_555 1_555
Cu10 Cu3 1_555 1_555
Cu20 O19 1_555 1_555
Cu24 O20 1_555 1_555
Cu27 O21 1_555 1_555
O76 Cu3 1_555 1_555
O79 Cu10 1_555 1_555
N19 C75 1_555 1_555
C75 N23 1_555 1_555
C81 N22 1_555 1_555
N20 C82 1_555 1_555
C82 N21 1_555 1_555
C83 C84 1_555 1_555
C85 C86 1_555 1_555
O22 Cu10 1_555 1_555
C87 C88 1_555 1_555
O62 C47 1_555 1_555
O64 C47 1_555 1_555
C47 C48 1_555 1_555
C48 C49 1_555 1_555
C49 H17 1_555 1_555
H19 C52 1_555 1_555
C53 C48 1_555 1_555
H20 C53 1_555 1_555
C136 O61 1_555 1_555
C137 C136 1_555 1_555
C138 C137 1_555 1_555
H61 C138 1_555 1_555
H63 C141 1_555 1_555
C142 C137 1_555 1_555
H64 C142 1_555 1_555
C52 C53 1_555 1_555
O63 C136 1_555 1_555
C141 C142 1_555 1_555
O39 C146 1_555 1_555
H62 C139 1_555 1_555
C140 C139 1_555 1_555
C143 C140 1_555 1_555
N36 C143 1_555 1_555
C144 N36 1_555 1_555
N37 C144 1_555 1_555
C145 N37 1_555 1_555
N38 C143 1_555 1_555
C146 C147 1_555 1_555
C147 C148 1_555 1_555
C148 H65 1_555 1_555
C149 C148 1_555 1_555
H66 C149 1_555 1_555
C150 C149 1_555 1_555
C151 C150 1_555 1_555
N39 C145 1_555 1_555
O40 C152 1_555 1_555
O41 C152 1_555 1_555
O42 C146 1_555 1_555
C152 C153 1_555 1_555
C153 C154 1_555 1_555
C154 H67 1_555 1_555
C155 C154 1_555 1_555
H68 C155 1_555 1_555
C156 C155 1_555 1_555
C157 C156 1_555 1_555
H69 C157 1_555 1_555
C158 C153 1_555 1_555
H70 C158 1_555 1_555
C159 C156 1_555 1_555
N40 C144 1_555 1_555
C160 N37 1_555 1_555
N41 C159 1_555 1_555
C161 C147 1_555 1_555
H71 C161 1_555 1_555
C162 C150 1_555 1_555
H72 C162 1_555 1_555
N42 C151 1_555 1_555
O55 C206 1_555 1_555
O56 C206 1_555 1_555
C206 C207 1_555 1_555
C207 C208 1_555 1_555
C208 H91 1_555 1_555
H93 C211 1_555 1_555
C212 C207 1_555 1_555
H94 C212 1_555 1_555
Cu21 O39 1_555 1_555
Cu25 O42 1_555 1_555
C145 N38 1_555 1_555
C151 N39 1_555 1_555
O40 Cu15 1_555 1_555
O41 Cu18 1_555 1_555
C157 C158 1_555 1_555
C159 N40 1_555 1_555
C160 N41 1_555 1_555
C160 N42 1_555 1_555
C161 C162 1_555 1_555
O55 Cu15 1_555 1_555
O56 Cu18 1_555 1_555
C211 C212 1_555 1_555
Cu21 Cu25 1_555 1_555
O28 C109 1_555 1_555
O29 C109 1_555 1_555
C109 C110 1_555 1_555
C110 C111 1_555 1_555
C111 H49 1_555 1_555
C112 C111 1_555 1_555
H50 C112 1_555 1_555
C113 C112 1_555 1_555
C114 C113 1_555 1_555
H51 C114 1_555 1_555
C115 C110 1_555 1_555
H52 C115 1_555 1_555
C116 C113 1_555 1_555
N29 C116 1_555 1_555
C117 N29 1_555 1_555
N30 C117 1_555 1_555
C118 N30 1_555 1_555
N31 C116 1_555 1_555
N32 C117 1_555 1_555
O66 C125 1_555 1_555
O69 C125 1_555 1_555
C125 C126 1_555 1_555
C126 C127 1_555 1_555
C127 H55 1_555 1_555
C128 C127 1_555 1_555
H56 C128 1_555 1_555
C129 C128 1_555 1_555
C130 C129 1_555 1_555
H57 C130 1_555 1_555
C131 C126 1_555 1_555
H58 C131 1_555 1_555
C132 C129 1_555 1_555
N33 C132 1_555 1_555
C133 N30 1_555 1_555
N34 C118 1_555 1_555
Cu15 O29 1_555 1_555
Cu18 O28 1_555 1_555
C114 C115 1_555 1_555
C118 N31 1_555 1_555
C130 C131 1_555 1_555
C132 N34 1_555 1_555
N33 C133 1_555 1_555
C133 N35 1_555 1_555
O30 Cu20 1_555 1_555
O31 Cu20 1_555 1_555
C120 C119 1_555 1_555
C121 C120 1_555 1_555
H53 C121 1_555 1_555
C122 C121 1_555 1_555
H54 C122 1_555 1_555
C123 C122 1_555 1_555
C124 O30 1_555 1_555
O34 C124 1_555 1_555
C134 C120 1_555 1_555
H59 C134 1_555 1_555
C135 C123 1_555 1_555
H60 C135 1_555 1_555
O77 Cu20 1_555 1_555
O79_2 Cu24 1_555 1_555
C123 C124 1_555 1_555
O34 Cu27 1_555 1_555
C134 C135 1_555 1_555
O45_2 Cu15 1_555 1_555
O46_2 Cu18 1_555 1_555
O59_2 Cu21 1_555 1_555
O60_2 Cu25 1_555 1_555
O71_2 Cu21 1_555 1_555
O72_2 Cu25 1_555 1_555
O74_2 Cu21 1_555 1_555
O75_2 Cu25 1_555 1_555
O81_2 Cu21 1_555 1_555
O82_2 Cu25 1_555 1_555
O59_3 Cu22 1_555 1_555
O60_3 Cu28 1_555 1_555
O71_3 Cu22 1_555 1_555
O72_3 Cu28 1_555 1_555
O74_3 Cu22 1_555 1_555
O75_3 Cu28 1_555 1_555
O81_3 Cu22 1_555 1_555
O82_3 Cu28 1_555 1_555
O58_3 Cu27 1_555 1_555
O79_3 Cu27 1_555 1_555
O3_2 Cu2_2 1_555 1_555
O6_2 Cu2_2 1_555 1_555
O71 C26_2 1_555 1_555
C11_2 O3_2 1_555 1_555
C12_2 C11_2 1_555 1_555
C13_2 C12_2 1_555 1_555
H5_2 C13_2 1_555 1_555
C14_2 C13_2 1_555 1_555
H6_2 C14_2 1_555 1_555
C15_2 C14_2 1_555 1_555
C16_2 C15_2 1_555 1_555
H7_2 C16_2 1_555 1_555
C17_2 C12_2 1_555 1_555
H8_2 C17_2 1_555 1_555
C18_2 C15_2 1_555 1_555
N4_2 C18_2 1_555 1_555
C19_2 N4_2 1_555 1_555
N5_2 C19_2 1_555 1_555
C20_2 N5_2 1_555 1_555
N6_2 C18_2 1_555 1_555
N7_2 C19_2 1_555 1_555
C21_2 N7_2 1_555 1_555
C22_2 C21_2 1_555 1_555
C23_2 C22_2 1_555 1_555
H9_2 C23_2 1_555 1_555
C24_2 C23_2 1_555 1_555
H10_2 C24_2 1_555 1_555
C25_2 C24_2 1_555 1_555
C26_2 C25_2 1_555 1_555
C27_2 O74 1_555 1_555
C28_2 C27_2 1_555 1_555
C29_2 C28_2 1_555 1_555
H11_2 C29_2 1_555 1_555
C30_2 C29_2 1_555 1_555
H12_2 C30_2 1_555 1_555
C31_2 C30_2 1_555 1_555
C32_2 C31_2 1_555 1_555
N8_2 C32_2 1_555 1_555
C33_2 N8_2 1_555 1_555
C40_2 O81 1_555 1_555
C41_2 C40_2 1_555 1_555
C42_2 C41_2 1_555 1_555
H15_2 C42_2 1_555 1_555
C43_2 C42_2 1_555 1_555
H16_2 C43_2 1_555 1_555
C44_2 C43_2 1_555 1_555
C45_2 C44_2 1_555 1_555
N11_2 C45_2 1_555 1_555
C46_2 N11_2 1_555 1_555
N12_2 C46_2 1_555 1_555
O15_2 C58_2 1_555 1_555
O16_2 C58_2 1_555 1_555
O72 C26_2 1_555 1_555
C58_2 C59_2 1_555 1_555
C59_2 C60_2 1_555 1_555
C60_2 H23_2 1_555 1_555
C61_2 C60_2 1_555 1_555
H24_2 C61_2 1_555 1_555
C62_2 C61_2 1_555 1_555
C63_2 C62_2 1_555 1_555
H25_2 C63_2 1_555 1_555
C64_2 C59_2 1_555 1_555
H26_2 C64_2 1_555 1_555
C65_2 C62_2 1_555 1_555
N16_2 C65_2 1_555 1_555
C66_2 N5_2 1_555 1_555
N17_2 C20_2 1_555 1_555
N18_2 C21_2 1_555 1_555
C67_2 C22_2 1_555 1_555
H27_2 C67_2 1_555 1_555
C68_2 C25_2 1_555 1_555
H28_2 C68_2 1_555 1_555
N22_2 C33_2 1_555 1_555
O75 C27_2 1_555 1_555
C87_2 C28_2 1_555 1_555
H37_2 C87_2 1_555 1_555
C88_2 C31_2 1_555 1_555
H38_2 C88_2 1_555 1_555
O81_2 C89_2 1_555 1_555
C89_2 C90_2 1_555 1_555
C90_2 C91_2 1_555 1_555
C91_2 H39_2 1_555 1_555
C92_2 C91_2 1_555 1_555
H40_2 C92_2 1_555 1_555
C93_2 C92_2 1_555 1_555
C94_2 C93_2 1_555 1_555
N24_2 C94_2 1_555 1_555
C95_2 N12_2 1_555 1_555
O81_3 C96_2 1_555 1_555
C96_2 C97_2 1_555 1_555
C97_2 C98_2 1_555 1_555
C98_2 H41_2 1_555 1_555
C99_2 C98_2 1_555 1_555
H42_2 C99_2 1_555 1_555
C100_2 C99_2 1_555 1_555
C101_2 C100_2 1_555 1_555
N25_2 C101_2 1_555 1_555
C102_2 N12_2 1_555 1_555
O82_2 C89_2 1_555 1_555
C103_2 C90_2 1_555 1_555
H43_2 C103_2 1_555 1_555
C104_2 C93_2 1_555 1_555
H44_2 C104_2 1_555 1_555
N26_2 C46_2 1_555 1_555
O82_3 C96_2 1_555 1_555
C105_2 C97_2 1_555 1_555
H45_2 C105_2 1_555 1_555
C106_2 C100_2 1_555 1_555
H46_2 C106_2 1_555 1_555
N27_2 C95_2 1_555 1_555
O82 C40_2 1_555 1_555
C107_2 C41_2 1_555 1_555
H47_2 C107_2 1_555 1_555
C108_2 C44_2 1_555 1_555
H48_2 C108_2 1_555 1_555
N28_2 C45_2 1_555 1_555
Cu7_2 O16_2 1_555 1_555
Cu8_2 O15_2 1_555 1_555
O43_2 Cu8_2 1_555 1_555
O44_2 Cu7_2 1_555 1_555
O45_3 Cu7_2 1_555 1_555
O46_3 Cu8_2 1_555 1_555
C163_2 O43_2 1_555 1_555
C164_2 C163_2 1_555 1_555
C165_2 C164_2 1_555 1_555
H73_2 C165_2 1_555 1_555
C166_2 C165_2 1_555 1_555
H74_2 C166_2 1_555 1_555
C167_2 C166_2 1_555 1_555
C168_2 C167_2 1_555 1_555
H75_2 C168_2 1_555 1_555
C169_2 C164_2 1_555 1_555
H76_2 C169_2 1_555 1_555
C170_2 C167_2 1_555 1_555
N43_2 C170_2 1_555 1_555
C171_2 N43_2 1_555 1_555
N44_2 C171_2 1_555 1_555
C172_2 N44_2 1_555 1_555
N45_2 C170_2 1_555 1_555
N46_2 C171_2 1_555 1_555
C173_2 N46_2 1_555 1_555
C174_2 C173_2 1_555 1_555
C175_2 C174_2 1_555 1_555
H77_2 C175_2 1_555 1_555
C176_2 C175_2 1_555 1_555
H78_2 C176_2 1_555 1_555
C177_2 C176_2 1_555 1_555
C178_2 O71_2 1_555 1_555
O49_2 C179_2 1_555 1_555
O50_2 C179_2 1_555 1_555
O72_2 C178_2 1_555 1_555
C179_2 C180_2 1_555 1_555
C180_2 C181_2 1_555 1_555
C181_2 H79_2 1_555 1_555
C182_2 C181_2 1_555 1_555
H80_2 C182_2 1_555 1_555
C183_2 C182_2 1_555 1_555
C184_2 C183_2 1_555 1_555
H81_2 C184_2 1_555 1_555
C185_2 C180_2 1_555 1_555
H82_2 C185_2 1_555 1_555
C186_2 C183_2 1_555 1_555
N47_2 C186_2 1_555 1_555
C187_2 N44_2 1_555 1_555
N48_2 C172_2 1_555 1_555
N49_2 C173_2 1_555 1_555
C188_2 C174_2 1_555 1_555
H83_2 C188_2 1_555 1_555
C189_2 C177_2 1_555 1_555
H84_2 C189_2 1_555 1_555
Cu18_2 O49_2 1_555 1_555
O61_2 Cu7_2 1_555 1_555
O62_2 Cu7_2 1_555 1_555
O63_2 Cu8_2 1_555 1_555
O64_2 Cu8_2 1_555 1_555
O66_2 Cu2_2 1_555 1_555
O4_2 C11_2 1_555 1_555
C16_2 C17_2 1_555 1_555
C20_2 N6_2 1_555 1_555
C63_2 C64_2 1_555 1_555
C65_2 N17_2 1_555 1_555
N16_2 C66_2 1_555 1_555
C66_2 N18_2 1_555 1_555
C67_2 C68_2 1_555 1_555
C87_2 C88_2 1_555 1_555
C94_2 N26_2 1_555 1_555
N24_2 C95_2 1_555 1_555
C101_2 N27_2 1_555 1_555
N25_2 C102_2 1_555 1_555
C102_2 N28_2 1_555 1_555
C103_2 C104_2 1_555 1_555
C105_2 C106_2 1_555 1_555
C107_2 C108_2 1_555 1_555
Cu7_2 Cu8_2 1_555 1_555
O44_2 C163_2 1_555 1_555
C168_2 C169_2 1_555 1_555
C172_2 N45_2 1_555 1_555
C177_2 C178_2 1_555 1_555
C184_2 C185_2 1_555 1_555
C186_2 N48_2 1_555 1_555
N47_2 C187_2 1_555 1_555
C187_2 N49_2 1_555 1_555
C188_2 C189_2 1_555 1_555
O74_3 C76_2 1_555 1_555
C76_2 C77_2 1_555 1_555
C77_2 C78_2 1_555 1_555
C78_2 H31_2 1_555 1_555
C79_2 C78_2 1_555 1_555
H32_2 C79_2 1_555 1_555
C80_2 C79_2 1_555 1_555
C81_2 C80_2 1_555 1_555
O75_3 C76_2 1_555 1_555
C85_2 C77_2 1_555 1_555
H35_2 C85_2 1_555 1_555
C86_2 C80_2 1_555 1_555
H36_2 C86_2 1_555 1_555
C85_2 C86_2 1_555 1_555
O1_2 Cu1_2 1_555 1_555
O2_2 C1_2 1_555 1_555
O5_2 Cu1_2 1_555 1_555
O9_2 C34_2 1_555 1_555
C1_2 O1_2 1_555 1_555
C2_2 C1_2 1_555 1_555
C3_2 C2_2 1_555 1_555
H1_2 C3_2 1_555 1_555
C4_2 C3_2 1_555 1_555
H2_2 C4_2 1_555 1_555
C5_2 C4_2 1_555 1_555
C6_2 C5_2 1_555 1_555
H3_2 C6_2 1_555 1_555
C7_2 C2_2 1_555 1_555
H4_2 C7_2 1_555 1_555
C8_2 C5_2 1_555 1_555
N1_2 C8_2 1_555 1_555
C9_2 N1_2 1_555 1_555
N2_2 C9_2 1_555 1_555
C10_2 N2_2 1_555 1_555
N3_2 C8_2 1_555 1_555
C34_2 C35_2 1_555 1_555
C35_2 C36_2 1_555 1_555
C36_2 H13_2 1_555 1_555
C37_2 C36_2 1_555 1_555
H14_2 C37_2 1_555 1_555
C38_2 C37_2 1_555 1_555
C39_2 C38_2 1_555 1_555
N10_2 C10_2 1_555 1_555
O62_2 C47_2 1_555 1_555
O64_2 C47_2 1_555 1_555
O14_2 C34_2 1_555 1_555
C47_2 C48_2 1_555 1_555
C48_2 C49_2 1_555 1_555
C49_2 H17_2 1_555 1_555
C50_2 C49_2 1_555 1_555
H18_2 C50_2 1_555 1_555
C51_2 C50_2 1_555 1_555
C52_2 C51_2 1_555 1_555
H19_2 C52_2 1_555 1_555
C53_2 C48_2 1_555 1_555
H20_2 C53_2 1_555 1_555
C54_2 C51_2 1_555 1_555
N13_2 C9_2 1_555 1_555
C55_2 N2_2 1_555 1_555
N14_2 C54_2 1_555 1_555
C56_2 C35_2 1_555 1_555
H21_2 C56_2 1_555 1_555
C57_2 C38_2 1_555 1_555
H22_2 C57_2 1_555 1_555
N15_2 C39_2 1_555 1_555
C75_2 N9_2 1_555 1_555
O39_2 C146_2 1_555 1_555
C136_2 O61_2 1_555 1_555
C137_2 C136_2 1_555 1_555
C138_2 C137_2 1_555 1_555
H61_2 C138_2 1_555 1_555
C139_2 C138_2 1_555 1_555
H62_2 C139_2 1_555 1_555
C140_2 C139_2 1_555 1_555
C141_2 C140_2 1_555 1_555
H63_2 C141_2 1_555 1_555
C142_2 C137_2 1_555 1_555
H64_2 C142_2 1_555 1_555
C143_2 C140_2 1_555 1_555
N36_2 C143_2 1_555 1_555
C144_2 N36_2 1_555 1_555
N37_2 C144_2 1_555 1_555
C145_2 N37_2 1_555 1_555
N38_2 C143_2 1_555 1_555
C146_2 C147_2 1_555 1_555
C147_2 C148_2 1_555 1_555
C148_2 H65_2 1_555 1_555
C149_2 C148_2 1_555 1_555
H66_2 C149_2 1_555 1_555
C150_2 C149_2 1_555 1_555
C151_2 C150_2 1_555 1_555
N39_2 C145_2 1_555 1_555
O40_2 C152_2 1_555 1_555
O41_2 C152_2 1_555 1_555
O42_2 C146_2 1_555 1_555
C152_2 C153_2 1_555 1_555
C153_2 C154_2 1_555 1_555
C154_2 H67_2 1_555 1_555
C155_2 C154_2 1_555 1_555
H68_2 C155_2 1_555 1_555
C156_2 C155_2 1_555 1_555
C157_2 C156_2 1_555 1_555
H69_2 C157_2 1_555 1_555
C158_2 C153_2 1_555 1_555
H70_2 C158_2 1_555 1_555
C159_2 C156_2 1_555 1_555
N40_2 C144_2 1_555 1_555
C160_2 N37_2 1_555 1_555
N41_2 C159_2 1_555 1_555
C161_2 C147_2 1_555 1_555
H71_2 C161_2 1_555 1_555
C162_2 C150_2 1_555 1_555
H72_2 C162_2 1_555 1_555
N42_2 C151_2 1_555 1_555
O52_2 Cu1_2 1_555 1_555
O54_2 C200_2 1_555 1_555
C190_2 O52_2 1_555 1_555
C191_2 C190_2 1_555 1_555
C192_2 C191_2 1_555 1_555
H85_2 C192_2 1_555 1_555
C193_2 C192_2 1_555 1_555
H86_2 C193_2 1_555 1_555
C194_2 C193_2 1_555 1_555
C195_2 C194_2 1_555 1_555
H87_2 C195_2 1_555 1_555
C196_2 C191_2 1_555 1_555
H88_2 C196_2 1_555 1_555
C197_2 C194_2 1_555 1_555
N50_2 C197_2 1_555 1_555
C198_2 N50_2 1_555 1_555
N51_2 C198_2 1_555 1_555
C199_2 N51_2 1_555 1_555
N52_2 C197_2 1_555 1_555
C200_2 C201_2 1_555 1_555
C201_2 C202_2 1_555 1_555
C202_2 H89_2 1_555 1_555
C203_2 C202_2 1_555 1_555
H90_2 C203_2 1_555 1_555
C204_2 C203_2 1_555 1_555
C205_2 C204_2 1_555 1_555
N53_2 C199_2 1_555 1_555
O55_2 C206_2 1_555 1_555
O56_2 C206_2 1_555 1_555
O57_2 C200_2 1_555 1_555
C206_2 C207_2 1_555 1_555
C207_2 C208_2 1_555 1_555
C208_2 H91_2 1_555 1_555
C209_2 C208_2 1_555 1_555
H92_2 C209_2 1_555 1_555
C210_2 C209_2 1_555 1_555
C211_2 C210_2 1_555 1_555
H93_2 C211_2 1_555 1_555
C212_2 C207_2 1_555 1_555
H94_2 C212_2 1_555 1_555
C213_2 C210_2 1_555 1_555
N54_2 C198_2 1_555 1_555
C214_2 N51_2 1_555 1_555
N55_2 C213_2 1_555 1_555
C215_2 C201_2 1_555 1_555
H95_2 C215_2 1_555 1_555
C216_2 C204_2 1_555 1_555
H96_2 C216_2 1_555 1_555
N56_2 C205_2 1_555 1_555
Cu11_2 O9_2 1_555 1_555
O59_4 Cu11_2 1_555 1_555
Cu12_2 O14_2 1_555 1_555
O60_4 Cu12_2 1_555 1_555
Cu21_2 O39_2 1_555 1_555
Cu22_2 O57_2 1_555 1_555
Cu25_2 O42_2 1_555 1_555
Cu28_2 O54_2 1_555 1_555
O71_4 Cu11_2 1_555 1_555
O72_4 Cu12_2 1_555 1_555
O74_4 Cu11_2 1_555 1_555
O75_4 Cu12_2 1_555 1_555
O81_4 Cu11_2 1_555 1_555
O82_4 Cu12_2 1_555 1_555
C6_2 C7_2 1_555 1_555
C10_2 N3_2 1_555 1_555
C39_2 N10_2 1_555 1_555
C52_2 C53_2 1_555 1_555
C54_2 N13_2 1_555 1_555
C55_2 N14_2 1_555 1_555
C55_2 N15_2 1_555 1_555
C56_2 C57_2 1_555 1_555
N19_2 C75_2 1_555 1_555
C75_2 N23_2 1_555 1_555
O63_2 C136_2 1_555 1_555
C141_2 C142_2 1_555 1_555
C145_2 N38_2 1_555 1_555
C151_2 N39_2 1_555 1_555
O40_2 Cu15_2 1_555 1_555
C157_2 C158_2 1_555 1_555
C159_2 N40_2 1_555 1_555
C160_2 N41_2 1_555 1_555
C160_2 N42_2 1_555 1_555
C161_2 C162_2 1_555 1_555
O53_2 C190_2 1_555 1_555
C195_2 C196_2 1_555 1_555
C199_2 N52_2 1_555 1_555
C205_2 N53_2 1_555 1_555
O55_2 Cu15_2 1_555 1_555
C211_2 C212_2 1_555 1_555
C213_2 N54_2 1_555 1_555
C214_2 N55_2 1_555 1_555
C214_2 N56_2 1_555 1_555
C215_2 C216_2 1_555 1_555
Cu11_2 Cu12_2 1_555 1_555
Cu21_2 Cu25_2 1_555 1_555
Cu22_2 Cu28_2 1_555 1_555
O74_2 C69_2 1_555 1_555
C69_2 C70_2 1_555 1_555
C70_2 C71_2 1_555 1_555
C71_2 H29_2 1_555 1_555
C72_2 C71_2 1_555 1_555
H30_2 C72_2 1_555 1_555
C73_2 C72_2 1_555 1_555
C74_2 C73_2 1_555 1_555
O75_2 C69_2 1_555 1_555
C83_2 C70_2 1_555 1_555
H33_2 C83_2 1_555 1_555
C84_2 C73_2 1_555 1_555
H34_2 C84_2 1_555 1_555
N21_2 C74_2 1_555 1_555
N20_2 C82_2 1_555 1_555
C82_2 N21_2 1_555 1_555
C83_2 C84_2 1_555 1_555
O28_2 C109_2 1_555 1_555
O29_2 C109_2 1_555 1_555
C109_2 C110_2 1_555 1_555
C110_2 C111_2 1_555 1_555
C111_2 H49_2 1_555 1_555
C112_2 C111_2 1_555 1_555
H50_2 C112_2 1_555 1_555
C113_2 C112_2 1_555 1_555
C114_2 C113_2 1_555 1_555
H51_2 C114_2 1_555 1_555
C115_2 C110_2 1_555 1_555
H52_2 C115_2 1_555 1_555
C116_2 C113_2 1_555 1_555
N29_2 C116_2 1_555 1_555
C117_2 N29_2 1_555 1_555
N30_2 C117_2 1_555 1_555
C118_2 N30_2 1_555 1_555
N31_2 C116_2 1_555 1_555
N32_2 C117_2 1_555 1_555
C119_2 N32_2 1_555 1_555
C120_2 C119_2 1_555 1_555
C121_2 C120_2 1_555 1_555
H53_2 C121_2 1_555 1_555
C122_2 C121_2 1_555 1_555
H54_2 C122_2 1_555 1_555
C123_2 C122_2 1_555 1_555
C124_2 O71_3 1_555 1_555
O66_2 C125_2 1_555 1_555
O69_2 C125_2 1_555 1_555
O72_3 C124_2 1_555 1_555
C125_2 C126_2 1_555 1_555
C126_2 C127_2 1_555 1_555
C127_2 H55_2 1_555 1_555
C128_2 C127_2 1_555 1_555
H56_2 C128_2 1_555 1_555
C129_2 C128_2 1_555 1_555
C130_2 C129_2 1_555 1_555
H57_2 C130_2 1_555 1_555
C131_2 C126_2 1_555 1_555
H58_2 C131_2 1_555 1_555
C132_2 C129_2 1_555 1_555
N33_2 C132_2 1_555 1_555
C133_2 N30_2 1_555 1_555
N34_2 C118_2 1_555 1_555
N35_2 C119_2 1_555 1_555
C134_2 C120_2 1_555 1_555
H59_2 C134_2 1_555 1_555
C135_2 C123_2 1_555 1_555
H60_2 C135_2 1_555 1_555
Cu18_2 O28_2 1_555 1_555
C114_2 C115_2 1_555 1_555
C118_2 N31_2 1_555 1_555
C123_2 C124_2 1_555 1_555
C130_2 C131_2 1_555 1_555
C132_2 N34_2 1_555 1_555
N33_2 C133_2 1_555 1_555
C133_2 N35_2 1_555 1_555
C134_2 C135_2 1_555 1_555
O45_4 Cu15_2 1_555 1_555
C82_2 N9_3 1_555 1_555
O46_4 Cu18_2 1_555 1_555
O59_5 Cu21_2 1_555 1_555
O60_5 Cu25_2 1_555 1_555
O71_5 Cu21_2 1_555 1_555
O72_5 Cu25_2 1_555 1_555
O74_5 Cu21_2 1_555 1_555
O75_5 Cu25_2 1_555 1_555
O81_5 Cu21_2 1_555 1_555
O82_5 Cu25_2 1_555 1_555
C33_2 N9_4 1_555 1_555
O59_6 Cu22_2 1_555 1_555
O60_6 Cu28_2 1_555 1_555
O71_6 Cu22_2 1_555 1_555
O72_6 Cu28_2 1_555 1_555
O74_6 Cu22_2 1_555 1_555
O75_6 Cu28_2 1_555 1_555
O81_6 Cu22_2 1_555 1_555
O82_6 Cu28_2 1_555 1_555
O81_5 C89_3 1_555 1_555
C89_3 C90_3 1_555 1_555
C90_3 C91_3 1_555 1_555
C91_3 H39_3 1_555 1_555
C92_3 C91_3 1_555 1_555
H40_3 C92_3 1_555 1_555
C93_3 C92_3 1_555 1_555
C94_3 C93_3 1_555 1_555
N24_3 C94_3 1_555 1_555
O82_5 C89_3 1_555 1_555
C103_3 C90_3 1_555 1_555
H43_3 C103_3 1_555 1_555
C104_3 C93_3 1_555 1_555
H44_3 C104_3 1_555 1_555
C168_3 C167_3 1_555 1_555
H75_3 C168_3 1_555 1_555
C170_3 C167_3 1_555 1_555
N43_3 C170_3 1_555 1_555
C171_3 N43_3 1_555 1_555
N44_3 C171_3 1_555 1_555
C172_3 N44_3 1_555 1_555
N45_3 C170_3 1_555 1_555
N46_3 C171_3 1_555 1_555
C173_3 N46_3 1_555 1_555
C174_3 C173_3 1_555 1_555
C175_3 C174_3 1_555 1_555
H77_3 C175_3 1_555 1_555
C176_3 C175_3 1_555 1_555
H78_3 C176_3 1_555 1_555
C177_3 C176_3 1_555 1_555
C178_3 O71_5 1_555 1_555
O49_3 C179_3 1_555 1_555
O50_3 C179_3 1_555 1_555
O72_5 C178_3 1_555 1_555
C179_3 C180_3 1_555 1_555
C180_3 C181_3 1_555 1_555
C181_3 H79_3 1_555 1_555
C182_3 C181_3 1_555 1_555
H80_3 C182_3 1_555 1_555
C183_3 C182_3 1_555 1_555
C184_3 C183_3 1_555 1_555
H81_3 C184_3 1_555 1_555
C185_3 C180_3 1_555 1_555
H82_3 C185_3 1_555 1_555
C186_3 C183_3 1_555 1_555
N47_3 C186_3 1_555 1_555
C187_3 N44_3 1_555 1_555
N48_3 C172_3 1_555 1_555
N49_3 C173_3 1_555 1_555
C188_3 C174_3 1_555 1_555
H83_3 C188_3 1_555 1_555
C189_3 C177_3 1_555 1_555
H84_3 C189_3 1_555 1_555
Cu15_3 O50_3 1_555 1_555
Cu18_3 O49_3 1_555 1_555
C94_3 N26_3 1_555 1_555
N24_3 C95_3 1_555 1_555
C103_3 C104_3 1_555 1_555
C172_3 N45_3 1_555 1_555
C177_3 C178_3 1_555 1_555
C184_3 C185_3 1_555 1_555
C186_3 N48_3 1_555 1_555
N47_3 C187_3 1_555 1_555
C187_3 N49_3 1_555 1_555
C188_3 C189_3 1_555 1_555
Cu15_3 Cu18_3 1_555 1_555
N12_3 C46_3 1_555 1_555
O15_3 C58_3 1_555 1_555
O16_3 C58_3 1_555 1_555
C58_3 C59_3 1_555 1_555
C59_3 C60_3 1_555 1_555
C60_3 H23_3 1_555 1_555
C61_3 C60_3 1_555 1_555
H24_3 C61_3 1_555 1_555
C64_3 C59_3 1_555 1_555
H26_3 C64_3 1_555 1_555
Cu7_3 O16_3 1_555 1_555
Cu8_3 O15_3 1_555 1_555
O43_3 Cu8_3 1_555 1_555
O44_3 Cu7_3 1_555 1_555
O45_5 Cu7_3 1_555 1_555
O46_5 Cu8_3 1_555 1_555
C163_3 O43_3 1_555 1_555
C164_3 C163_3 1_555 1_555
C165_3 C164_3 1_555 1_555
H73_3 C165_3 1_555 1_555
C166_3 C165_3 1_555 1_555
H74_3 C166_3 1_555 1_555
C169_3 C164_3 1_555 1_555
H76_3 C169_3 1_555 1_555
O61_3 Cu7_3 1_555 1_555
O62_3 Cu7_3 1_555 1_555
O63_3 Cu8_3 1_555 1_555
O64_3 Cu8_3 1_555 1_555
Cu7_3 Cu8_3 1_555 1_555
O44_3 C163_3 1_555 1_555
O81_6 C96_3 1_555 1_555
C96_3 C97_3 1_555 1_555
C97_3 C98_3 1_555 1_555
C98_3 H41_3 1_555 1_555
C99_3 C98_3 1_555 1_555
H42_3 C99_3 1_555 1_555
C100_3 C99_3 1_555 1_555
C101_3 C100_3 1_555 1_555
N25_3 C101_3 1_555 1_555
O82_6 C96_3 1_555 1_555
C105_3 C97_3 1_555 1_555
H45_3 C105_3 1_555 1_555
C106_3 C100_3 1_555 1_555
H46_3 C106_3 1_555 1_555
C101_3 N27_3 1_555 1_555
C105_3 C106_3 1_555 1_555
Cu1_3 Cu2_3 1_555 1_555
Cu2_3 O2_3 1_555 1_555
O1_3 Cu1_3 1_555 1_555
O2_3 C1_3 1_555 1_555
O3_3 Cu2_3 1_555 1_555
O4_3 Cu1_3 1_555 1_555
O5_3 Cu1_3 1_555 1_555
O6_3 Cu2_3 1_555 1_555
O71_4 C26_3 1_555 1_555
O76 C34_3 1_555 1_555
C1_3 O1_3 1_555 1_555
C2_3 C1_3 1_555 1_555
C3_3 C2_3 1_555 1_555
H1_3 C3_3 1_555 1_555
C4_3 C3_3 1_555 1_555
H2_3 C4_3 1_555 1_555
C5_3 C4_3 1_555 1_555
C6_3 C5_3 1_555 1_555
H3_3 C6_3 1_555 1_555
C7_3 C2_3 1_555 1_555
H4_3 C7_3 1_555 1_555
C8_3 C5_3 1_555 1_555
N1_3 C8_3 1_555 1_555
C9_3 N1_3 1_555 1_555
N2_3 C9_3 1_555 1_555
C10_3 N2_3 1_555 1_555
N3_3 C8_3 1_555 1_555
C11_3 O3_3 1_555 1_555
C12_3 C11_3 1_555 1_555
C13_3 C12_3 1_555 1_555
H5_3 C13_3 1_555 1_555
C14_3 C13_3 1_555 1_555
H6_3 C14_3 1_555 1_555
C15_3 C14_3 1_555 1_555
C16_3 C15_3 1_555 1_555
H7_3 C16_3 1_555 1_555
C17_3 C12_3 1_555 1_555
H8_3 C17_3 1_555 1_555
C18_3 C15_3 1_555 1_555
N4_3 C18_3 1_555 1_555
C19_3 N4_3 1_555 1_555
N5_3 C19_3 1_555 1_555
C20_3 N5_3 1_555 1_555
N6_3 C18_3 1_555 1_555
N7_3 C19_3 1_555 1_555
C21_3 N7_3 1_555 1_555
C22_3 C21_3 1_555 1_555
C23_3 C22_3 1_555 1_555
H9_3 C23_3 1_555 1_555
C24_3 C23_3 1_555 1_555
H10_3 C24_3 1_555 1_555
C25_3 C24_3 1_555 1_555
C26_3 C25_3 1_555 1_555
C27_3 O74_4 1_555 1_555
C28_3 C27_3 1_555 1_555
C29_3 C28_3 1_555 1_555
H11_3 C29_3 1_555 1_555
C30_3 C29_3 1_555 1_555
H12_3 C30_3 1_555 1_555
C31_3 C30_3 1_555 1_555
C32_3 C31_3 1_555 1_555
N8_3 C32_3 1_555 1_555
C33_3 N8_3 1_555 1_555
N9_5 C33_3 1_555 1_555
C34_3 C35_3 1_555 1_555
C35_3 C36_3 1_555 1_555
C36_3 H13_3 1_555 1_555
C37_3 C36_3 1_555 1_555
H14_3 C37_3 1_555 1_555
C38_3 C37_3 1_555 1_555
C39_3 C38_3 1_555 1_555
N10_3 C10_3 1_555 1_555
C40_3 O81_4 1_555 1_555
C41_3 C40_3 1_555 1_555
C42_3 C41_3 1_555 1_555
H15_3 C42_3 1_555 1_555
C43_3 C42_3 1_555 1_555
H16_3 C43_3 1_555 1_555
C44_3 C43_3 1_555 1_555
C45_3 C44_3 1_555 1_555
N11_3 C45_3 1_555 1_555
O62_3 C47_3 1_555 1_555
O64_3 C47_3 1_555 1_555
O79 C34_3 1_555 1_555
C47_3 C48_3 1_555 1_555
C48_3 C49_3 1_555 1_555
C49_3 H17_3 1_555 1_555
C50_3 C49_3 1_555 1_555
H18_3 C50_3 1_555 1_555
C51_3 C50_3 1_555 1_555
C52_3 C51_3 1_555 1_555
H19_3 C52_3 1_555 1_555
C53_3 C48_3 1_555 1_555
H20_3 C53_3 1_555 1_555
C54_3 C51_3 1_555 1_555
N13_3 C9_3 1_555 1_555
C55_3 N2_3 1_555 1_555
N14_3 C54_3 1_555 1_555
C56_3 C35_3 1_555 1_555
H21_3 C56_3 1_555 1_555
C57_3 C38_3 1_555 1_555
H22_3 C57_3 1_555 1_555
N15_3 C39_3 1_555 1_555
O72_4 C26_3 1_555 1_555
C63_3 C62_3 1_555 1_555
H25_3 C63_3 1_555 1_555
C65_3 C62_3 1_555 1_555
N16_3 C65_3 1_555 1_555
C66_3 N5_3 1_555 1_555
N17_3 C20_3 1_555 1_555
N18_3 C21_3 1_555 1_555
C67_3 C22_3 1_555 1_555
H27_3 C67_3 1_555 1_555
C68_3 C25_3 1_555 1_555
H28_3 C68_3 1_555 1_555
O74_5 C69_3 1_555 1_555
C69_3 C70_3 1_555 1_555
C70_3 C71_3 1_555 1_555
C71_3 H29_3 1_555 1_555
C72_3 C71_3 1_555 1_555
H30_3 C72_3 1_555 1_555
C73_3 C72_3 1_555 1_555
C74_3 C73_3 1_555 1_555
N19_3 C74_3 1_555 1_555
C75_3 N9_5 1_555 1_555
O74_6 C76_3 1_555 1_555
C76_3 C77_3 1_555 1_555
C77_3 C78_3 1_555 1_555
C78_3 H31_3 1_555 1_555
C79_3 C78_3 1_555 1_555
H32_3 C79_3 1_555 1_555
C80_3 C79_3 1_555 1_555
C81_3 C80_3 1_555 1_555
N20_3 C81_3 1_555 1_555
C82_3 N9_5 1_555 1_555
O75_5 C69_3 1_555 1_555
C83_3 C70_3 1_555 1_555
H33_3 C83_3 1_555 1_555
C84_3 C73_3 1_555 1_555
H34_3 C84_3 1_555 1_555
N21_3 C74_3 1_555 1_555
O75_6 C76_3 1_555 1_555
C85_3 C77_3 1_555 1_555
H35_3 C85_3 1_555 1_555
C86_3 C80_3 1_555 1_555
H36_3 C86_3 1_555 1_555
N22_3 C33_3 1_555 1_555
O75_4 C27_3 1_555 1_555
C87_3 C28_3 1_555 1_555
H37_3 C87_3 1_555 1_555
C88_3 C31_3 1_555 1_555
H38_3 C88_3 1_555 1_555
N23_3 C32_3 1_555 1_555
O82_4 C40_3 1_555 1_555
C107_3 C41_3 1_555 1_555
H47_3 C107_3 1_555 1_555
C108_3 C44_3 1_555 1_555
H48_3 C108_3 1_555 1_555
N28_3 C45_3 1_555 1_555
O78 C146_3 1_555 1_555
C136_3 O61_3 1_555 1_555
C137_3 C136_3 1_555 1_555
C138_3 C137_3 1_555 1_555
H61_3 C138_3 1_555 1_555
C139_3 C138_3 1_555 1_555
H62_3 C139_3 1_555 1_555
C140_3 C139_3 1_555 1_555
C141_3 C140_3 1_555 1_555
H63_3 C141_3 1_555 1_555
C142_3 C137_3 1_555 1_555
H64_3 C142_3 1_555 1_555
C143_3 C140_3 1_555 1_555
N36_3 C143_3 1_555 1_555
C144_3 N36_3 1_555 1_555
N37_3 C144_3 1_555 1_555
C145_3 N37_3 1_555 1_555
N38_3 C143_3 1_555 1_555
C146_3 C147_3 1_555 1_555
C147_3 C148_3 1_555 1_555
C148_3 H65_3 1_555 1_555
C149_3 C148_3 1_555 1_555
H66_3 C149_3 1_555 1_555
C150_3 C149_3 1_555 1_555
C151_3 C150_3 1_555 1_555
N39_3 C145_3 1_555 1_555
O40_3 C152_3 1_555 1_555
O41_3 C152_3 1_555 1_555
O79_2 C146_3 1_555 1_555
C152_3 C153_3 1_555 1_555
C153_3 C154_3 1_555 1_555
C154_3 H67_3 1_555 1_555
C155_3 C154_3 1_555 1_555
H68_3 C155_3 1_555 1_555
C156_3 C155_3 1_555 1_555
C157_3 C156_3 1_555 1_555
H69_3 C157_3 1_555 1_555
C158_3 C153_3 1_555 1_555
H70_3 C158_3 1_555 1_555
C159_3 C156_3 1_555 1_555
N40_3 C144_3 1_555 1_555
C160_3 N37_3 1_555 1_555
N41_3 C159_3 1_555 1_555
C161_3 C147_3 1_555 1_555
H71_3 C161_3 1_555 1_555
C162_3 C150_3 1_555 1_555
H72_3 C162_3 1_555 1_555
N42_3 C151_3 1_555 1_555
O52_3 Cu1_3 1_555 1_555
O53_3 Cu2_3 1_555 1_555
O79_3 C200_3 1_555 1_555
C190_3 O52_3 1_555 1_555
C191_3 C190_3 1_555 1_555
C192_3 C191_3 1_555 1_555
H85_3 C192_3 1_555 1_555
C193_3 C192_3 1_555 1_555
H86_3 C193_3 1_555 1_555
C194_3 C193_3 1_555 1_555
C195_3 C194_3 1_555 1_555
H87_3 C195_3 1_555 1_555
C196_3 C191_3 1_555 1_555
H88_3 C196_3 1_555 1_555
C197_3 C194_3 1_555 1_555
N50_3 C197_3 1_555 1_555
C198_3 N50_3 1_555 1_555
N51_3 C198_3 1_555 1_555
C199_3 N51_3 1_555 1_555
N52_3 C197_3 1_555 1_555
C200_3 C201_3 1_555 1_555
C201_3 C202_3 1_555 1_555
C202_3 H89_3 1_555 1_555
C203_3 C202_3 1_555 1_555
H90_3 C203_3 1_555 1_555
C204_3 C203_3 1_555 1_555
C205_3 C204_3 1_555 1_555
N53_3 C199_3 1_555 1_555
O55_3 C206_3 1_555 1_555
O56_3 C206_3 1_555 1_555
O77 C200_3 1_555 1_555
C206_3 C207_3 1_555 1_555
C207_3 C208_3 1_555 1_555
C208_3 H91_3 1_555 1_555
C209_3 C208_3 1_555 1_555
H92_3 C209_3 1_555 1_555
C210_3 C209_3 1_555 1_555
C211_3 C210_3 1_555 1_555
H93_3 C211_3 1_555 1_555
C212_3 C207_3 1_555 1_555
H94_3 C212_3 1_555 1_555
C213_3 C210_3 1_555 1_555
N54_3 C198_3 1_555 1_555
C214_3 N51_3 1_555 1_555
N55_3 C213_3 1_555 1_555
C215_3 C201_3 1_555 1_555
H95_3 C215_3 1_555 1_555
C216_3 C204_3 1_555 1_555
H96_3 C216_3 1_555 1_555
N56_3 C205_3 1_555 1_555
O66_3 Cu2_3 1_555 1_555
O69_3 Cu1_3 1_555 1_555
O4_3 C11_3 1_555 1_555
C6_3 C7_3 1_555 1_555
C10_3 N3_3 1_555 1_555
C16_3 C17_3 1_555 1_555
C20_3 N6_3 1_555 1_555
C39_3 N10_3 1_555 1_555
C52_3 C53_3 1_555 1_555
C54_3 N13_3 1_555 1_555
C55_3 N14_3 1_555 1_555
C55_3 N15_3 1_555 1_555
C56_3 C57_3 1_555 1_555
C65_3 N17_3 1_555 1_555
N16_3 C66_3 1_555 1_555
C66_3 N18_3 1_555 1_555
C67_3 C68_3 1_555 1_555
N19_3 C75_3 1_555 1_555
C75_3 N23_3 1_555 1_555
C81_3 N22_3 1_555 1_555
N20_3 C82_3 1_555 1_555
C82_3 N21_3 1_555 1_555
C83_3 C84_3 1_555 1_555
C85_3 C86_3 1_555 1_555
C87_3 C88_3 1_555 1_555
C102_3 N28_3 1_555 1_555
C107_3 C108_3 1_555 1_555
O63_3 C136_3 1_555 1_555
C141_3 C142_3 1_555 1_555
C145_3 N38_3 1_555 1_555
C151_3 N39_3 1_555 1_555
O40_3 Cu15_3 1_555 1_555
O41_3 Cu18_3 1_555 1_555
C157_3 C158_3 1_555 1_555
C159_3 N40_3 1_555 1_555
C160_3 N41_3 1_555 1_555
C160_3 N42_3 1_555 1_555
C161_3 C162_3 1_555 1_555
O53_3 C190_3 1_555 1_555
C195_3 C196_3 1_555 1_555
C199_3 N52_3 1_555 1_555
C205_3 N53_3 1_555 1_555
O55_3 Cu15_3 1_555 1_555
O56_3 Cu18_3 1_555 1_555
C211_3 C212_3 1_555 1_555
C213_3 N54_3 1_555 1_555
C214_3 N55_3 1_555 1_555
C214_3 N56_3 1_555 1_555
C215_3 C216_3 1_555 1_555
O28_3 C109_3 1_555 1_555
O29_3 C109_3 1_555 1_555
C109_3 C110_3 1_555 1_555
C110_3 C111_3 1_555 1_555
C111_3 H49_3 1_555 1_555
C112_3 C111_3 1_555 1_555
H50_3 C112_3 1_555 1_555
C115_3 C110_3 1_555 1_555
H52_3 C115_3 1_555 1_555
Cu15_3 O29_3 1_555 1_555
Cu18_3 O28_3 1_555 1_555
N12_4 C95_3 1_555 1_555
C114_3 C113_3 1_555 1_555
H51_3 C114_3 1_555 1_555
C116_3 C113_3 1_555 1_555
N29_3 C116_3 1_555 1_555
C117_3 N29_3 1_555 1_555
N30_3 C117_3 1_555 1_555
C118_3 N30_3 1_555 1_555
N31_3 C116_3 1_555 1_555
N32_3 C117_3 1_555 1_555
C119_3 N32_3 1_555 1_555
C120_3 C119_3 1_555 1_555
C121_3 C120_3 1_555 1_555
H53_3 C121_3 1_555 1_555
C122_3 C121_3 1_555 1_555
H54_3 C122_3 1_555 1_555
C123_3 C122_3 1_555 1_555
C124_3 O71_6 1_555 1_555
O72_6 C124_3 1_555 1_555
C130_3 C129_3 1_555 1_555
H57_3 C130_3 1_555 1_555
C132_3 C129_3 1_555 1_555
N33_3 C132_3 1_555 1_555
C133_3 N30_3 1_555 1_555
N34_3 C118_3 1_555 1_555
N35_3 C119_3 1_555 1_555
C134_3 C120_3 1_555 1_555
H59_3 C134_3 1_555 1_555
C135_3 C123_3 1_555 1_555
H60_3 C135_3 1_555 1_555
O45_6 Cu15_3 1_555 1_555
O46_6 Cu18_3 1_555 1_555
C118_3 N31_3 1_555 1_555
C123_3 C124_3 1_555 1_555
C132_3 N34_3 1_555 1_555
N33_3 C133_3 1_555 1_555
C133_3 N35_3 1_555 1_555
C134_3 C135_3 1_555 1_555
O66_3 C125_3 1_555 1_555
O69_3 C125_3 1_555 1_555
C125_3 C126_3 1_555 1_555
C126_3 C127_3 1_555 1_555
C127_3 H55_3 1_555 1_555
C128_3 C127_3 1_555 1_555
H56_3 C128_3 1_555 1_555
C131_3 C126_3 1_555 1_555
H58_3 C131_3 1_555 1_555
N12_5 C102_3 1_555 1_555
O73_2 Cu9_2 1_555 1_555
O78_2 Cu9_2 1_555 1_555
Cu9_2 Cu24_2 1_555 1_555
O7_2 C26_4 1_555 1_555
C22_4 C21_4 1_555 1_555
C23_4 C22_4 1_555 1_555
H9_4 C23_4 1_555 1_555
C24_4 C23_4 1_555 1_555
H10_4 C24_4 1_555 1_555
C25_4 C24_4 1_555 1_555
C26_4 C25_4 1_555 1_555
C40_4 O10_2 1_555 1_555
C41_4 C40_4 1_555 1_555
C42_4 C41_4 1_555 1_555
H15_4 C42_4 1_555 1_555
C43_4 C42_4 1_555 1_555
H16_4 C43_4 1_555 1_555
C44_4 C43_4 1_555 1_555
C45_4 C44_4 1_555 1_555
N11_4 C45_4 1_555 1_555
C46_4 N11_4 1_555 1_555
N12_6 C46_4 1_555 1_555
O17_2 C26_4 1_555 1_555
C67_4 C22_4 1_555 1_555
H27_4 C67_4 1_555 1_555
C68_4 C25_4 1_555 1_555
H28_4 C68_4 1_555 1_555
O23_2 C89_4 1_555 1_555
C89_4 C90_4 1_555 1_555
C90_4 C91_4 1_555 1_555
C91_4 H39_4 1_555 1_555
C92_4 C91_4 1_555 1_555
H40_4 C92_4 1_555 1_555
C93_4 C92_4 1_555 1_555
C94_4 C93_4 1_555 1_555
N24_4 C94_4 1_555 1_555
C95_4 N12_6 1_555 1_555
O24_2 C96_4 1_555 1_555
C96_4 C97_4 1_555 1_555
C97_4 C98_4 1_555 1_555
C98_4 H41_4 1_555 1_555
C99_4 C98_4 1_555 1_555
H42_4 C99_4 1_555 1_555
C100_4 C99_4 1_555 1_555
C101_4 C100_4 1_555 1_555
N25_4 C101_4 1_555 1_555
C102_4 N12_6 1_555 1_555
O25_2 C89_4 1_555 1_555
C103_4 C90_4 1_555 1_555
H43_4 C103_4 1_555 1_555
C104_4 C93_4 1_555 1_555
H44_4 C104_4 1_555 1_555
N26_4 C46_4 1_555 1_555
O26_2 C96_4 1_555 1_555
C105_4 C97_4 1_555 1_555
H45_4 C105_4 1_555 1_555
C106_4 C100_4 1_555 1_555
H46_4 C106_4 1_555 1_555
N27_4 C95_4 1_555 1_555
O27_2 C40_4 1_555 1_555
C107_4 C41_4 1_555 1_555
H47_4 C107_4 1_555 1_555
C108_4 C44_4 1_555 1_555
H48_4 C108_4 1_555 1_555
N28_4 C45_4 1_555 1_555
C174_4 C173_4 1_555 1_555
C175_4 C174_4 1_555 1_555
H77_4 C175_4 1_555 1_555
C176_4 C175_4 1_555 1_555
H78_4 C176_4 1_555 1_555
C177_4 C176_4 1_555 1_555
C178_4 O47_2 1_555 1_555
O51_2 C178_4 1_555 1_555
C188_4 C174_4 1_555 1_555
H83_4 C188_4 1_555 1_555
C189_4 C177_4 1_555 1_555
H84_4 C189_4 1_555 1_555
Cu20_2 O24_2 1_555 1_555
Cu27_2 O26_2 1_555 1_555
C67_4 C68_4 1_555 1_555
C94_4 N26_4 1_555 1_555
N24_4 C95_4 1_555 1_555
C101_4 N27_4 1_555 1_555
N25_4 C102_4 1_555 1_555
C102_4 N28_4 1_555 1_555
C103_4 C104_4 1_555 1_555
C105_4 C106_4 1_555 1_555
C107_4 C108_4 1_555 1_555
C177_4 C178_4 1_555 1_555
C188_4 C189_4 1_555 1_555
Cu20_2 Cu27_2 1_555 1_555
Cu1_4 Cu2_4 1_555 1_555
Cu2_4 O2_4 1_555 1_555
O1_4 Cu1_4 1_555 1_555
O2_4 C1_4 1_555 1_555
O3_4 Cu2_4 1_555 1_555
O4_4 Cu1_4 1_555 1_555
O5_4 Cu1_4 1_555 1_555
O6_4 Cu2_4 1_555 1_555
O9_3 C34_4 1_555 1_555
C1_4 O1_4 1_555 1_555
C2_4 C1_4 1_555 1_555
C3_4 C2_4 1_555 1_555
H1_4 C3_4 1_555 1_555
C4_4 C3_4 1_555 1_555
H2_4 C4_4 1_555 1_555
C5_4 C4_4 1_555 1_555
C6_4 C5_4 1_555 1_555
H3_4 C6_4 1_555 1_555
C7_4 C2_4 1_555 1_555
H4_4 C7_4 1_555 1_555
C8_4 C5_4 1_555 1_555
N1_4 C8_4 1_555 1_555
C9_4 N1_4 1_555 1_555
N2_4 C9_4 1_555 1_555
C10_4 N2_4 1_555 1_555
N3_4 C8_4 1_555 1_555
C11_4 O3_4 1_555 1_555
C12_4 C11_4 1_555 1_555
C13_4 C12_4 1_555 1_555
H5_4 C13_4 1_555 1_555
C14_4 C13_4 1_555 1_555
H6_4 C14_4 1_555 1_555
C15_4 C14_4 1_555 1_555
C16_4 C15_4 1_555 1_555
H7_4 C16_4 1_555 1_555
C17_4 C12_4 1_555 1_555
H8_4 C17_4 1_555 1_555
C18_4 C15_4 1_555 1_555
N4_4 C18_4 1_555 1_555
C19_4 N4_4 1_555 1_555
N5_4 C19_4 1_555 1_555
C20_4 N5_4 1_555 1_555
N6_4 C18_4 1_555 1_555
N7_4 C19_4 1_555 1_555
C34_4 C35_4 1_555 1_555
C35_4 C36_4 1_555 1_555
C36_4 H13_4 1_555 1_555
C37_4 C36_4 1_555 1_555
H14_4 C37_4 1_555 1_555
C38_4 C37_4 1_555 1_555
C39_4 C38_4 1_555 1_555
N10_4 C10_4 1_555 1_555
O14_3 C34_4 1_555 1_555
H18_4 C50_4 1_555 1_555
C51_4 C50_4 1_555 1_555
C54_4 C51_4 1_555 1_555
N13_4 C9_4 1_555 1_555
C55_4 N2_4 1_555 1_555
N14_4 C54_4 1_555 1_555
C56_4 C35_4 1_555 1_555
H21_4 C56_4 1_555 1_555
C57_4 C38_4 1_555 1_555
H22_4 C57_4 1_555 1_555
N15_4 C39_4 1_555 1_555
O15_4 C58_4 1_555 1_555
O16_4 C58_4 1_555 1_555
C58_4 C59_4 1_555 1_555
C59_4 C60_4 1_555 1_555
C60_4 H23_4 1_555 1_555
C61_4 C60_4 1_555 1_555
H24_4 C61_4 1_555 1_555
C62_4 C61_4 1_555 1_555
C63_4 C62_4 1_555 1_555
H25_4 C63_4 1_555 1_555
C64_4 C59_4 1_555 1_555
H26_4 C64_4 1_555 1_555
C65_4 C62_4 1_555 1_555
N16_4 C65_4 1_555 1_555
C66_4 N5_4 1_555 1_555
N17_4 C20_4 1_555 1_555
Cu7_4 O16_4 1_555 1_555
Cu8_4 O15_4 1_555 1_555
O43_4 Cu8_4 1_555 1_555
O44_4 Cu7_4 1_555 1_555
O45_7 Cu7_4 1_555 1_555
O46_7 Cu8_4 1_555 1_555
C163_4 O43_4 1_555 1_555
C164_4 C163_4 1_555 1_555
C165_4 C164_4 1_555 1_555
H73_4 C165_4 1_555 1_555
C166_4 C165_4 1_555 1_555
H74_4 C166_4 1_555 1_555
C167_4 C166_4 1_555 1_555
C168_4 C167_4 1_555 1_555
H75_4 C168_4 1_555 1_555
C169_4 C164_4 1_555 1_555
H76_4 C169_4 1_555 1_555
C170_4 C167_4 1_555 1_555
N43_4 C170_4 1_555 1_555
C171_4 N43_4 1_555 1_555
N44_4 C171_4 1_555 1_555
C172_4 N44_4 1_555 1_555
N45_4 C170_4 1_555 1_555
N46_4 C171_4 1_555 1_555
O49_4 C179_4 1_555 1_555
O50_4 C179_4 1_555 1_555
C179_4 C180_4 1_555 1_555
C180_4 C181_4 1_555 1_555
C181_4 H79_4 1_555 1_555
C182_4 C181_4 1_555 1_555
H80_4 C182_4 1_555 1_555
C183_4 C182_4 1_555 1_555
C184_4 C183_4 1_555 1_555
H81_4 C184_4 1_555 1_555
C185_4 C180_4 1_555 1_555
H82_4 C185_4 1_555 1_555
C186_4 C183_4 1_555 1_555
N47_4 C186_4 1_555 1_555
C187_4 N44_4 1_555 1_555
N48_4 C172_4 1_555 1_555
O52_4 Cu1_4 1_555 1_555
O53_4 Cu2_4 1_555 1_555
C190_4 O52_4 1_555 1_555
C191_4 C190_4 1_555 1_555
C192_4 C191_4 1_555 1_555
H85_4 C192_4 1_555 1_555
H87_4 C195_4 1_555 1_555
C196_4 C191_4 1_555 1_555
H88_4 C196_4 1_555 1_555
Cu11_3 O9_3 1_555 1_555
O59_7 Cu11_3 1_555 1_555
Cu12_3 O14_3 1_555 1_555
O60_7 Cu12_3 1_555 1_555
Cu15_4 O50_4 1_555 1_555
Cu18_4 O49_4 1_555 1_555
O61_4 Cu7_4 1_555 1_555
O62_4 Cu7_4 1_555 1_555
O63_4 Cu8_4 1_555 1_555
O64_4 Cu8_4 1_555 1_555
O66_4 Cu2_4 1_555 1_555
O69_4 Cu1_4 1_555 1_555
O71_7 Cu11_3 1_555 1_555
O72_7 Cu12_3 1_555 1_555
O74_7 Cu11_3 1_555 1_555
O75_7 Cu12_3 1_555 1_555
O81_7 Cu11_3 1_555 1_555
O82_7 Cu12_3 1_555 1_555
O4_4 C11_4 1_555 1_555
C6_4 C7_4 1_555 1_555
C10_4 N3_4 1_555 1_555
C16_4 C17_4 1_555 1_555
C20_4 N6_4 1_555 1_555
C39_4 N10_4 1_555 1_555
C54_4 N13_4 1_555 1_555
C55_4 N14_4 1_555 1_555
C55_4 N15_4 1_555 1_555
C56_4 C57_4 1_555 1_555
C63_4 C64_4 1_555 1_555
C65_4 N17_4 1_555 1_555
N16_4 C66_4 1_555 1_555
C66_4 N18_4 1_555 1_555
Cu7_4 Cu8_4 1_555 1_555
O44_4 C163_4 1_555 1_555
C168_4 C169_4 1_555 1_555
C172_4 N45_4 1_555 1_555
C184_4 C185_4 1_555 1_555
C186_4 N48_4 1_555 1_555
N47_4 C187_4 1_555 1_555
C187_4 N49_4 1_555 1_555
O53_4 C190_4 1_555 1_555
C195_4 C196_4 1_555 1_555
Cu11_3 Cu12_3 1_555 1_555
Cu15_4 Cu18_4 1_555 1_555
O62_4 C47_4 1_555 1_555
O64_4 C47_4 1_555 1_555
C47_4 C48_4 1_555 1_555
C48_4 C49_4 1_555 1_555
C49_4 H17_4 1_555 1_555
H19_4 C52_4 1_555 1_555
C53_4 C48_4 1_555 1_555
H20_4 C53_4 1_555 1_555
C136_4 O61_4 1_555 1_555
C137_4 C136_4 1_555 1_555
C138_4 C137_4 1_555 1_555
H61_4 C138_4 1_555 1_555
H63_4 C141_4 1_555 1_555
C142_4 C137_4 1_555 1_555
H64_4 C142_4 1_555 1_555
C52_4 C53_4 1_555 1_555
O63_4 C136_4 1_555 1_555
C141_4 C142_4 1_555 1_555
O8_2 Cu3_2 1_555 1_555
C27_4 O8_2 1_555 1_555
C28_4 C27_4 1_555 1_555
C29_4 C28_4 1_555 1_555
H11_4 C29_4 1_555 1_555
C30_4 C29_4 1_555 1_555
H12_4 C30_4 1_555 1_555
C31_4 C30_4 1_555 1_555
C32_4 C31_4 1_555 1_555
N8_4 C32_4 1_555 1_555
C33_4 N8_4 1_555 1_555
N9_6 C33_4 1_555 1_555
O73_2 C69_4 1_555 1_555
C69_4 C70_4 1_555 1_555
C70_4 C71_4 1_555 1_555
C71_4 H29_4 1_555 1_555
C72_4 C71_4 1_555 1_555
H30_4 C72_4 1_555 1_555
C73_4 C72_4 1_555 1_555
C74_4 C73_4 1_555 1_555
N19_4 C74_4 1_555 1_555
C75_4 N9_6 1_555 1_555
O19_2 C76_4 1_555 1_555
C76_4 C77_4 1_555 1_555
C77_4 C78_4 1_555 1_555
C78_4 H31_4 1_555 1_555
C79_4 C78_4 1_555 1_555
H32_4 C79_4 1_555 1_555
C80_4 C79_4 1_555 1_555
C81_4 C80_4 1_555 1_555
N20_4 C81_4 1_555 1_555
C82_4 N9_6 1_555 1_555
O20_2 C69_4 1_555 1_555
C83_4 C70_4 1_555 1_555
H33_4 C83_4 1_555 1_555
C84_4 C73_4 1_555 1_555
H34_4 C84_4 1_555 1_555
N21_4 C74_4 1_555 1_555
O21_2 C76_4 1_555 1_555
C85_4 C77_4 1_555 1_555
H35_4 C85_4 1_555 1_555
C86_4 C80_4 1_555 1_555
H36_4 C86_4 1_555 1_555
N22_4 C33_4 1_555 1_555
O22_2 C27_4 1_555 1_555
C87_4 C28_4 1_555 1_555
H37_4 C87_4 1_555 1_555
C88_4 C31_4 1_555 1_555
H38_4 C88_4 1_555 1_555
N23_4 C32_4 1_555 1_555
Cu10_2 Cu3_2 1_555 1_555
Cu20_2 O19_2 1_555 1_555
Cu24_2 O20_2 1_555 1_555
Cu27_2 O21_2 1_555 1_555
O76_2 Cu3_2 1_555 1_555
O79_4 Cu10_2 1_555 1_555
N19_4 C75_4 1_555 1_555
C75_4 N23_4 1_555 1_555
C81_4 N22_4 1_555 1_555
N20_4 C82_4 1_555 1_555
C82_4 N21_4 1_555 1_555
C83_4 C84_4 1_555 1_555
C85_4 C86_4 1_555 1_555
O22_2 Cu10_2 1_555 1_555
C87_4 C88_4 1_555 1_555
O54_3 C200_4 1_555 1_555
H86_4 C193_4 1_555 1_555
C194_4 C193_4 1_555 1_555
C197_4 C194_4 1_555 1_555
N50_4 C197_4 1_555 1_555
C198_4 N50_4 1_555 1_555
N51_4 C198_4 1_555 1_555
C199_4 N51_4 1_555 1_555
N52_4 C197_4 1_555 1_555
C200_4 C201_4 1_555 1_555
C201_4 C202_4 1_555 1_555
C202_4 H89_4 1_555 1_555
C203_4 C202_4 1_555 1_555
H90_4 C203_4 1_555 1_555
C204_4 C203_4 1_555 1_555
C205_4 C204_4 1_555 1_555
N53_4 C199_4 1_555 1_555
O57_3 C200_4 1_555 1_555
H92_4 C209_4 1_555 1_555
C210_4 C209_4 1_555 1_555
C213_4 C210_4 1_555 1_555
N54_4 C198_4 1_555 1_555
C214_4 N51_4 1_555 1_555
N55_4 C213_4 1_555 1_555
C215_4 C201_4 1_555 1_555
H95_4 C215_4 1_555 1_555
C216_4 C204_4 1_555 1_555
H96_4 C216_4 1_555 1_555
N56_4 C205_4 1_555 1_555
Cu22_3 O57_3 1_555 1_555
Cu28_3 O54_3 1_555 1_555
C199_4 N52_4 1_555 1_555
C205_4 N53_4 1_555 1_555
C213_4 N54_4 1_555 1_555
C214_4 N55_4 1_555 1_555
C214_4 N56_4 1_555 1_555
C215_4 C216_4 1_555 1_555
Cu22_3 Cu28_3 1_555 1_555
O39_3 C146_4 1_555 1_555
H62_4 C139_4 1_555 1_555
C140_4 C139_4 1_555 1_555
C143_4 C140_4 1_555 1_555
N36_4 C143_4 1_555 1_555
C144_4 N36_4 1_555 1_555
N37_4 C144_4 1_555 1_555
C145_4 N37_4 1_555 1_555
N38_4 C143_4 1_555 1_555
C146_4 C147_4 1_555 1_555
C147_4 C148_4 1_555 1_555
C148_4 H65_4 1_555 1_555
C149_4 C148_4 1_555 1_555
H66_4 C149_4 1_555 1_555
C150_4 C149_4 1_555 1_555
C151_4 C150_4 1_555 1_555
N39_4 C145_4 1_555 1_555
O40_4 C152_4 1_555 1_555
O41_4 C152_4 1_555 1_555
O42_3 C146_4 1_555 1_555
C152_4 C153_4 1_555 1_555
C153_4 C154_4 1_555 1_555
C154_4 H67_4 1_555 1_555
C155_4 C154_4 1_555 1_555
H68_4 C155_4 1_555 1_555
C156_4 C155_4 1_555 1_555
C157_4 C156_4 1_555 1_555
H69_4 C157_4 1_555 1_555
C158_4 C153_4 1_555 1_555
H70_4 C158_4 1_555 1_555
C159_4 C156_4 1_555 1_555
N40_4 C144_4 1_555 1_555
C160_4 N37_4 1_555 1_555
N41_4 C159_4 1_555 1_555
C161_4 C147_4 1_555 1_555
H71_4 C161_4 1_555 1_555
C162_4 C150_4 1_555 1_555
H72_4 C162_4 1_555 1_555
N42_4 C151_4 1_555 1_555
O55_4 C206_4 1_555 1_555
O56_4 C206_4 1_555 1_555
C206_4 C207_4 1_555 1_555
C207_4 C208_4 1_555 1_555
C208_4 H91_4 1_555 1_555
H93_4 C211_4 1_555 1_555
C212_4 C207_4 1_555 1_555
H94_4 C212_4 1_555 1_555
Cu21_3 O39_3 1_555 1_555
Cu25_3 O42_3 1_555 1_555
C145_4 N38_4 1_555 1_555
C151_4 N39_4 1_555 1_555
O40_4 Cu15_4 1_555 1_555
O41_4 Cu18_4 1_555 1_555
C157_4 C158_4 1_555 1_555
C159_4 N40_4 1_555 1_555
C160_4 N41_4 1_555 1_555
C160_4 N42_4 1_555 1_555
C161_4 C162_4 1_555 1_555
O55_4 Cu15_4 1_555 1_555
O56_4 Cu18_4 1_555 1_555
C211_4 C212_4 1_555 1_555
Cu21_3 Cu25_3 1_555 1_555
O23_3 C89_5 1_555 1_555
C89_5 C90_5 1_555 1_555
C90_5 C91_5 1_555 1_555
C91_5 H39_5 1_555 1_555
C92_5 C91_5 1_555 1_555
H40_5 C92_5 1_555 1_555
C93_5 C92_5 1_555 1_555
C94_5 C93_5 1_555 1_555
N24_5 C94_5 1_555 1_555
O25_3 C89_5 1_555 1_555
C103_5 C90_5 1_555 1_555
H43_5 C103_5 1_555 1_555
C104_5 C93_5 1_555 1_555
H44_5 C104_5 1_555 1_555
Cu9_3 O23_3 1_555 1_555
O47_3 Cu9_3 1_555 1_555
O48_3 Cu9_3 1_555 1_555
C168_5 C167_5 1_555 1_555
H75_5 C168_5 1_555 1_555
C170_5 C167_5 1_555 1_555
N43_5 C170_5 1_555 1_555
C171_5 N43_5 1_555 1_555
N44_5 C171_5 1_555 1_555
C172_5 N44_5 1_555 1_555
N45_5 C170_5 1_555 1_555
N46_5 C171_5 1_555 1_555
C173_5 N46_5 1_555 1_555
C174_5 C173_5 1_555 1_555
C175_5 C174_5 1_555 1_555
H77_5 C175_5 1_555 1_555
C176_5 C175_5 1_555 1_555
H78_5 C176_5 1_555 1_555
C177_5 C176_5 1_555 1_555
C178_5 O47_3 1_555 1_555
O49_5 C179_5 1_555 1_555
O50_5 C179_5 1_555 1_555
O51_3 C178_5 1_555 1_555
C179_5 C180_5 1_555 1_555
C180_5 C181_5 1_555 1_555
C181_5 H79_5 1_555 1_555
C182_5 C181_5 1_555 1_555
H80_5 C182_5 1_555 1_555
C183_5 C182_5 1_555 1_555
C184_5 C183_5 1_555 1_555
H81_5 C184_5 1_555 1_555
C185_5 C180_5 1_555 1_555
H82_5 C185_5 1_555 1_555
C186_5 C183_5 1_555 1_555
N47_5 C186_5 1_555 1_555
C187_5 N44_5 1_555 1_555
N48_5 C172_5 1_555 1_555
N49_5 C173_5 1_555 1_555
C188_5 C174_5 1_555 1_555
H83_5 C188_5 1_555 1_555
C189_5 C177_5 1_555 1_555
H84_5 C189_5 1_555 1_555
Cu15_5 O50_5 1_555 1_555
Cu18_5 O49_5 1_555 1_555
Cu24_3 O25_3 1_555 1_555
O73_3 Cu9_3 1_555 1_555
O78_3 Cu9_3 1_555 1_555
C94_5 N26_5 1_555 1_555
N24_5 C95_5 1_555 1_555
C103_5 C104_5 1_555 1_555
Cu9_3 Cu24_3 1_555 1_555
C172_5 N45_5 1_555 1_555
C177_5 C178_5 1_555 1_555
O51_3 Cu24_3 1_555 1_555
C184_5 C185_5 1_555 1_555
C186_5 N48_5 1_555 1_555
N47_5 C187_5 1_555 1_555
C187_5 N49_5 1_555 1_555
C188_5 C189_5 1_555 1_555
Cu15_5 Cu18_5 1_555 1_555
O24_3 C96_5 1_555 1_555
C96_5 C97_5 1_555 1_555
C97_5 C98_5 1_555 1_555
C98_5 H41_5 1_555 1_555
C99_5 C98_5 1_555 1_555
H42_5 C99_5 1_555 1_555
C100_5 C99_5 1_555 1_555
C101_5 C100_5 1_555 1_555
N25_5 C101_5 1_555 1_555
O26_3 C96_5 1_555 1_555
C105_5 C97_5 1_555 1_555
H45_5 C105_5 1_555 1_555
C106_5 C100_5 1_555 1_555
H46_5 C106_5 1_555 1_555
Cu20_3 O24_3 1_555 1_555
Cu27_3 O26_3 1_555 1_555
C101_5 N27_5 1_555 1_555
C105_5 C106_5 1_555 1_555
Cu20_3 Cu27_3 1_555 1_555
N12_7 C46_5 1_555 1_555
O15_5 C58_5 1_555 1_555
O16_5 C58_5 1_555 1_555
C58_5 C59_5 1_555 1_555
C59_5 C60_5 1_555 1_555
C60_5 H23_5 1_555 1_555
C61_5 C60_5 1_555 1_555
H24_5 C61_5 1_555 1_555
C64_5 C59_5 1_555 1_555
H26_5 C64_5 1_555 1_555
Cu7_5 O16_5 1_555 1_555
Cu8_5 O15_5 1_555 1_555
O43_5 Cu8_5 1_555 1_555
O44_5 Cu7_5 1_555 1_555
O45_8 Cu7_5 1_555 1_555
O46_8 Cu8_5 1_555 1_555
C163_5 O43_5 1_555 1_555
C164_5 C163_5 1_555 1_555
C165_5 C164_5 1_555 1_555
H73_5 C165_5 1_555 1_555
C166_5 C165_5 1_555 1_555
H74_5 C166_5 1_555 1_555
C169_5 C164_5 1_555 1_555
H76_5 C169_5 1_555 1_555
O61_5 Cu7_5 1_555 1_555
O62_5 Cu7_5 1_555 1_555
O63_5 Cu8_5 1_555 1_555
O64_5 Cu8_5 1_555 1_555
Cu7_5 Cu8_5 1_555 1_555
O44_5 C163_5 1_555 1_555
Cu1_5 Cu2_5 1_555 1_555
Cu2_5 O2_5 1_555 1_555
O1_5 Cu1_5 1_555 1_555
O2_5 C1_5 1_555 1_555
O3_5 Cu2_5 1_555 1_555
O4_5 Cu1_5 1_555 1_555
O5_5 Cu1_5 1_555 1_555
O6_5 Cu2_5 1_555 1_555
Cu3_3 O7_3 1_555 1_555
O7_3 C26_5 1_555 1_555
O8_3 Cu3_3 1_555 1_555
O76_2 C34_5 1_555 1_555
O10_3 Cu3_3 1_555 1_555
O11_3 Cu3_3 1_555 1_555
C1_5 O1_5 1_555 1_555
C2_5 C1_5 1_555 1_555
C3_5 C2_5 1_555 1_555
H1_5 C3_5 1_555 1_555
C4_5 C3_5 1_555 1_555
H2_5 C4_5 1_555 1_555
C5_5 C4_5 1_555 1_555
C6_5 C5_5 1_555 1_555
H3_5 C6_5 1_555 1_555
C7_5 C2_5 1_555 1_555
H4_5 C7_5 1_555 1_555
C8_5 C5_5 1_555 1_555
N1_5 C8_5 1_555 1_555
C9_5 N1_5 1_555 1_555
N2_5 C9_5 1_555 1_555
C10_5 N2_5 1_555 1_555
N3_5 C8_5 1_555 1_555
C11_5 O3_5 1_555 1_555
C12_5 C11_5 1_555 1_555
C13_5 C12_5 1_555 1_555
H5_5 C13_5 1_555 1_555
C14_5 C13_5 1_555 1_555
H6_5 C14_5 1_555 1_555
C15_5 C14_5 1_555 1_555
C16_5 C15_5 1_555 1_555
H7_5 C16_5 1_555 1_555
C17_5 C12_5 1_555 1_555
H8_5 C17_5 1_555 1_555
C18_5 C15_5 1_555 1_555
N4_5 C18_5 1_555 1_555
C19_5 N4_5 1_555 1_555
N5_5 C19_5 1_555 1_555
C20_5 N5_5 1_555 1_555
N6_5 C18_5 1_555 1_555
N7_5 C19_5 1_555 1_555
C21_5 N7_5 1_555 1_555
C22_5 C21_5 1_555 1_555
C23_5 C22_5 1_555 1_555
H9_5 C23_5 1_555 1_555
C24_5 C23_5 1_555 1_555
H10_5 C24_5 1_555 1_555
C25_5 C24_5 1_555 1_555
C26_5 C25_5 1_555 1_555
C27_5 O8_3 1_555 1_555
C28_5 C27_5 1_555 1_555
C29_5 C28_5 1_555 1_555
H11_5 C29_5 1_555 1_555
C30_5 C29_5 1_555 1_555
H12_5 C30_5 1_555 1_555
C31_5 C30_5 1_555 1_555
C32_5 C31_5 1_555 1_555
N8_5 C32_5 1_555 1_555
C33_5 N8_5 1_555 1_555
N9_7 C33_5 1_555 1_555
C34_5 C35_5 1_555 1_555
C35_5 C36_5 1_555 1_555
C36_5 H13_5 1_555 1_555
C37_5 C36_5 1_555 1_555
H14_5 C37_5 1_555 1_555
C38_5 C37_5 1_555 1_555
C39_5 C38_5 1_555 1_555
N10_5 C10_5 1_555 1_555
C40_5 O10_3 1_555 1_555
C41_5 C40_5 1_555 1_555
C42_5 C41_5 1_555 1_555
H15_5 C42_5 1_555 1_555
C43_5 C42_5 1_555 1_555
H16_5 C43_5 1_555 1_555
C44_5 C43_5 1_555 1_555
C45_5 C44_5 1_555 1_555
N11_5 C45_5 1_555 1_555
O62_5 C47_5 1_555 1_555
O64_5 C47_5 1_555 1_555
O79_4 C34_5 1_555 1_555
C47_5 C48_5 1_555 1_555
C48_5 C49_5 1_555 1_555
C49_5 H17_5 1_555 1_555
C50_5 C49_5 1_555 1_555
H18_5 C50_5 1_555 1_555
C51_5 C50_5 1_555 1_555
C52_5 C51_5 1_555 1_555
H19_5 C52_5 1_555 1_555
C53_5 C48_5 1_555 1_555
H20_5 C53_5 1_555 1_555
C54_5 C51_5 1_555 1_555
N13_5 C9_5 1_555 1_555
C55_5 N2_5 1_555 1_555
N14_5 C54_5 1_555 1_555
C56_5 C35_5 1_555 1_555
H21_5 C56_5 1_555 1_555
C57_5 C38_5 1_555 1_555
H22_5 C57_5 1_555 1_555
N15_5 C39_5 1_555 1_555
O17_3 C26_5 1_555 1_555
C63_5 C62_5 1_555 1_555
H25_5 C63_5 1_555 1_555
C65_5 C62_5 1_555 1_555
N16_5 C65_5 1_555 1_555
C66_5 N5_5 1_555 1_555
N17_5 C20_5 1_555 1_555
N18_5 C21_5 1_555 1_555
C67_5 C22_5 1_555 1_555
H27_5 C67_5 1_555 1_555
C68_5 C25_5 1_555 1_555
H28_5 C68_5 1_555 1_555
O73_3 C69_5 1_555 1_555
C69_5 C70_5 1_555 1_555
C70_5 C71_5 1_555 1_555
C71_5 H29_5 1_555 1_555
C72_5 C71_5 1_555 1_555
H30_5 C72_5 1_555 1_555
C73_5 C72_5 1_555 1_555
C74_5 C73_5 1_555 1_555
N19_5 C74_5 1_555 1_555
C75_5 N9_7 1_555 1_555
O19_3 C76_5 1_555 1_555
C76_5 C77_5 1_555 1_555
C77_5 C78_5 1_555 1_555
C78_5 H31_5 1_555 1_555
C79_5 C78_5 1_555 1_555
H32_5 C79_5 1_555 1_555
C80_5 C79_5 1_555 1_555
C81_5 C80_5 1_555 1_555
N20_5 C81_5 1_555 1_555
C82_5 N9_7 1_555 1_555
O20_3 C69_5 1_555 1_555
C83_5 C70_5 1_555 1_555
H33_5 C83_5 1_555 1_555
C84_5 C73_5 1_555 1_555
H34_5 C84_5 1_555 1_555
N21_5 C74_5 1_555 1_555
O21_3 C76_5 1_555 1_555
C85_5 C77_5 1_555 1_555
H35_5 C85_5 1_555 1_555
C86_5 C80_5 1_555 1_555
H36_5 C86_5 1_555 1_555
N22_5 C33_5 1_555 1_555
O22_3 C27_5 1_555 1_555
C87_5 C28_5 1_555 1_555
H37_5 C87_5 1_555 1_555
C88_5 C31_5 1_555 1_555
H38_5 C88_5 1_555 1_555
N23_5 C32_5 1_555 1_555
O27_3 C40_5 1_555 1_555
C107_5 C41_5 1_555 1_555
H47_5 C107_5 1_555 1_555
C108_5 C44_5 1_555 1_555
H48_5 C108_5 1_555 1_555
N28_5 C45_5 1_555 1_555
O78_2 C146_5 1_555 1_555
C136_5 O61_5 1_555 1_555
C137_5 C136_5 1_555 1_555
C138_5 C137_5 1_555 1_555
H61_5 C138_5 1_555 1_555
C139_5 C138_5 1_555 1_555
H62_5 C139_5 1_555 1_555
C140_5 C139_5 1_555 1_555
C141_5 C140_5 1_555 1_555
H63_5 C141_5 1_555 1_555
C142_5 C137_5 1_555 1_555
H64_5 C142_5 1_555 1_555
C143_5 C140_5 1_555 1_555
N36_5 C143_5 1_555 1_555
C144_5 N36_5 1_555 1_555
N37_5 C144_5 1_555 1_555
C145_5 N37_5 1_555 1_555
N38_5 C143_5 1_555 1_555
C146_5 C147_5 1_555 1_555
C147_5 C148_5 1_555 1_555
C148_5 H65_5 1_555 1_555
C149_5 C148_5 1_555 1_555
H66_5 C149_5 1_555 1_555
C150_5 C149_5 1_555 1_555
C151_5 C150_5 1_555 1_555
N39_5 C145_5 1_555 1_555
O40_5 C152_5 1_555 1_555
O41_5 C152_5 1_555 1_555
O42_4 C146_5 1_555 1_555
C152_5 C153_5 1_555 1_555
C153_5 C154_5 1_555 1_555
C154_5 H67_5 1_555 1_555
C155_5 C154_5 1_555 1_555
H68_5 C155_5 1_555 1_555
C156_5 C155_5 1_555 1_555
C157_5 C156_5 1_555 1_555
H69_5 C157_5 1_555 1_555
C158_5 C153_5 1_555 1_555
H70_5 C158_5 1_555 1_555
C159_5 C156_5 1_555 1_555
N40_5 C144_5 1_555 1_555
C160_5 N37_5 1_555 1_555
N41_5 C159_5 1_555 1_555
C161_5 C147_5 1_555 1_555
H71_5 C161_5 1_555 1_555
C162_5 C150_5 1_555 1_555
H72_5 C162_5 1_555 1_555
N42_5 C151_5 1_555 1_555
O52_5 Cu1_5 1_555 1_555
O53_5 Cu2_5 1_555 1_555
O54_4 C200_5 1_555 1_555
C190_5 O52_5 1_555 1_555
C191_5 C190_5 1_555 1_555
C192_5 C191_5 1_555 1_555
H85_5 C192_5 1_555 1_555
C193_5 C192_5 1_555 1_555
H86_5 C193_5 1_555 1_555
C194_5 C193_5 1_555 1_555
C195_5 C194_5 1_555 1_555
H87_5 C195_5 1_555 1_555
C196_5 C191_5 1_555 1_555
H88_5 C196_5 1_555 1_555
C197_5 C194_5 1_555 1_555
N50_5 C197_5 1_555 1_555
C198_5 N50_5 1_555 1_555
N51_5 C198_5 1_555 1_555
C199_5 N51_5 1_555 1_555
N52_5 C197_5 1_555 1_555
C200_5 C201_5 1_555 1_555
C201_5 C202_5 1_555 1_555
C202_5 H89_5 1_555 1_555
C203_5 C202_5 1_555 1_555
H90_5 C203_5 1_555 1_555
C204_5 C203_5 1_555 1_555
C205_5 C204_5 1_555 1_555
N53_5 C199_5 1_555 1_555
O55_5 C206_5 1_555 1_555
O56_5 C206_5 1_555 1_555
O57_4 C200_5 1_555 1_555
C206_5 C207_5 1_555 1_555
C207_5 C208_5 1_555 1_555
C208_5 H91_5 1_555 1_555
C209_5 C208_5 1_555 1_555
H92_5 C209_5 1_555 1_555
C210_5 C209_5 1_555 1_555
C211_5 C210_5 1_555 1_555
H93_5 C211_5 1_555 1_555
C212_5 C207_5 1_555 1_555
H94_5 C212_5 1_555 1_555
C213_5 C210_5 1_555 1_555
N54_5 C198_5 1_555 1_555
C214_5 N51_5 1_555 1_555
N55_5 C213_5 1_555 1_555
C215_5 C201_5 1_555 1_555
H95_5 C215_5 1_555 1_555
C216_5 C204_5 1_555 1_555
H96_5 C216_5 1_555 1_555
N56_5 C205_5 1_555 1_555
Cu10_3 Cu3_3 1_555 1_555
O58_5 Cu10_3 1_555 1_555
O66_5 Cu2_5 1_555 1_555
O69_5 Cu1_5 1_555 1_555
Cu20_3 O19_3 1_555 1_555
Cu20_2 O57_4 1_555 1_555
Cu24_3 O20_3 1_555 1_555
Cu24_2 O42_4 1_555 1_555
Cu27_3 O21_3 1_555 1_555
Cu27_2 O54_4 1_555 1_555
O76_3 Cu3_3 1_555 1_555
O79_5 Cu10_3 1_555 1_555
O4_5 C11_5 1_555 1_555
C6_5 C7_5 1_555 1_555
C10_5 N3_5 1_555 1_555
C16_5 C17_5 1_555 1_555
C20_5 N6_5 1_555 1_555
C39_5 N10_5 1_555 1_555
C52_5 C53_5 1_555 1_555
C54_5 N13_5 1_555 1_555
C55_5 N14_5 1_555 1_555
C55_5 N15_5 1_555 1_555
C56_5 C57_5 1_555 1_555
O17_3 Cu10_3 1_555 1_555
C65_5 N17_5 1_555 1_555
N16_5 C66_5 1_555 1_555
C66_5 N18_5 1_555 1_555
C67_5 C68_5 1_555 1_555
N19_5 C75_5 1_555 1_555
C75_5 N23_5 1_555 1_555
C81_5 N22_5 1_555 1_555
N20_5 C82_5 1_555 1_555
C82_5 N21_5 1_555 1_555
C83_5 C84_5 1_555 1_555
C85_5 C86_5 1_555 1_555
O22_3 Cu10_3 1_555 1_555
C87_5 C88_5 1_555 1_555
C102_5 N28_5 1_555 1_555
O27_3 Cu10_3 1_555 1_555
C107_5 C108_5 1_555 1_555
O63_5 C136_5 1_555 1_555
C141_5 C142_5 1_555 1_555
C145_5 N38_5 1_555 1_555
C151_5 N39_5 1_555 1_555
O40_5 Cu15_5 1_555 1_555
O41_5 Cu18_5 1_555 1_555
C157_5 C158_5 1_555 1_555
C159_5 N40_5 1_555 1_555
C160_5 N41_5 1_555 1_555
C160_5 N42_5 1_555 1_555
C161_5 C162_5 1_555 1_555
O53_5 C190_5 1_555 1_555
C195_5 C196_5 1_555 1_555
C199_5 N52_5 1_555 1_555
C205_5 N53_5 1_555 1_555
O55_5 Cu15_5 1_555 1_555
O56_5 Cu18_5 1_555 1_555
C211_5 C212_5 1_555 1_555
C213_5 N54_5 1_555 1_555
C214_5 N55_5 1_555 1_555
C214_5 N56_5 1_555 1_555
C215_5 C216_5 1_555 1_555
O3_6 Cu2_6 1_555 1_555
O6_6 Cu2_6 1_555 1_555
O71_7 C26_6 1_555 1_555
C11_6 O3_6 1_555 1_555
C12_6 C11_6 1_555 1_555
C13_6 C12_6 1_555 1_555
H5_6 C13_6 1_555 1_555
C14_6 C13_6 1_555 1_555
H6_6 C14_6 1_555 1_555
C15_6 C14_6 1_555 1_555
C16_6 C15_6 1_555 1_555
H7_6 C16_6 1_555 1_555
C17_6 C12_6 1_555 1_555
H8_6 C17_6 1_555 1_555
C18_6 C15_6 1_555 1_555
N4_6 C18_6 1_555 1_555
C19_6 N4_6 1_555 1_555
N5_6 C19_6 1_555 1_555
C20_6 N5_6 1_555 1_555
N6_6 C18_6 1_555 1_555
N7_6 C19_6 1_555 1_555
C21_6 N7_6 1_555 1_555
C22_6 C21_6 1_555 1_555
C23_6 C22_6 1_555 1_555
H9_6 C23_6 1_555 1_555
C24_6 C23_6 1_555 1_555
H10_6 C24_6 1_555 1_555
C25_6 C24_6 1_555 1_555
C26_6 C25_6 1_555 1_555
C27_6 O74_7 1_555 1_555
C28_6 C27_6 1_555 1_555
C29_6 C28_6 1_555 1_555
H11_6 C29_6 1_555 1_555
C30_6 C29_6 1_555 1_555
H12_6 C30_6 1_555 1_555
C31_6 C30_6 1_555 1_555
C32_6 C31_6 1_555 1_555
N8_6 C32_6 1_555 1_555
C33_6 N8_6 1_555 1_555
C40_6 O81_7 1_555 1_555
C41_6 C40_6 1_555 1_555
C42_6 C41_6 1_555 1_555
H15_6 C42_6 1_555 1_555
C43_6 C42_6 1_555 1_555
H16_6 C43_6 1_555 1_555
C44_6 C43_6 1_555 1_555
C45_6 C44_6 1_555 1_555
N11_6 C45_6 1_555 1_555
C46_6 N11_6 1_555 1_555
N12_8 C46_6 1_555 1_555
O15_6 C58_6 1_555 1_555
O16_6 C58_6 1_555 1_555
O72_7 C26_6 1_555 1_555
C58_6 C59_6 1_555 1_555
C59_6 C60_6 1_555 1_555
C60_6 H23_6 1_555 1_555
C61_6 C60_6 1_555 1_555
H24_6 C61_6 1_555 1_555
C62_6 C61_6 1_555 1_555
C63_6 C62_6 1_555 1_555
H25_6 C63_6 1_555 1_555
C64_6 C59_6 1_555 1_555
H26_6 C64_6 1_555 1_555
C65_6 C62_6 1_555 1_555
N16_6 C65_6 1_555 1_555
C66_6 N5_6 1_555 1_555
N17_6 C20_6 1_555 1_555
N18_6 C21_6 1_555 1_555
C67_6 C22_6 1_555 1_555
H27_6 C67_6 1_555 1_555
C68_6 C25_6 1_555 1_555
H28_6 C68_6 1_555 1_555
N22_6 C33_6 1_555 1_555
O75_7 C27_6 1_555 1_555
C87_6 C28_6 1_555 1_555
H37_6 C87_6 1_555 1_555
C88_6 C31_6 1_555 1_555
H38_6 C88_6 1_555 1_555
O23_4 C89_6 1_555 1_555
C89_6 C90_6 1_555 1_555
C90_6 C91_6 1_555 1_555
C91_6 H39_6 1_555 1_555
C92_6 C91_6 1_555 1_555
H40_6 C92_6 1_555 1_555
C93_6 C92_6 1_555 1_555
C94_6 C93_6 1_555 1_555
N24_6 C94_6 1_555 1_555
C95_6 N12_8 1_555 1_555
O24_4 C96_6 1_555 1_555
C96_6 C97_6 1_555 1_555
C97_6 C98_6 1_555 1_555
C98_6 H41_6 1_555 1_555
C99_6 C98_6 1_555 1_555
H42_6 C99_6 1_555 1_555
C100_6 C99_6 1_555 1_555
C101_6 C100_6 1_555 1_555
N25_6 C101_6 1_555 1_555
C102_6 N12_8 1_555 1_555
O25_4 C89_6 1_555 1_555
C103_6 C90_6 1_555 1_555
H43_6 C103_6 1_555 1_555
C104_6 C93_6 1_555 1_555
H44_6 C104_6 1_555 1_555
N26_6 C46_6 1_555 1_555
O26_4 C96_6 1_555 1_555
C105_6 C97_6 1_555 1_555
H45_6 C105_6 1_555 1_555
C106_6 C100_6 1_555 1_555
H46_6 C106_6 1_555 1_555
N27_6 C95_6 1_555 1_555
O82_7 C40_6 1_555 1_555
C107_6 C41_6 1_555 1_555
H47_6 C107_6 1_555 1_555
C108_6 C44_6 1_555 1_555
H48_6 C108_6 1_555 1_555
N28_6 C45_6 1_555 1_555
Cu7_6 O16_6 1_555 1_555
Cu8_6 O15_6 1_555 1_555
O43_6 Cu8_6 1_555 1_555
O44_6 Cu7_6 1_555 1_555
O45_9 Cu7_6 1_555 1_555
O46_9 Cu8_6 1_555 1_555
Cu21_3 O23_4 1_555 1_555
O47_4 Cu21_3 1_555 1_555
O48_4 Cu21_3 1_555 1_555
C163_6 O43_6 1_555 1_555
C164_6 C163_6 1_555 1_555
C165_6 C164_6 1_555 1_555
H73_6 C165_6 1_555 1_555
C166_6 C165_6 1_555 1_555
H74_6 C166_6 1_555 1_555
C167_6 C166_6 1_555 1_555
C168_6 C167_6 1_555 1_555
H75_6 C168_6 1_555 1_555
C169_6 C164_6 1_555 1_555
H76_6 C169_6 1_555 1_555
C170_6 C167_6 1_555 1_555
N43_6 C170_6 1_555 1_555
C171_6 N43_6 1_555 1_555
N44_6 C171_6 1_555 1_555
C172_6 N44_6 1_555 1_555
N45_6 C170_6 1_555 1_555
N46_6 C171_6 1_555 1_555
C173_6 N46_6 1_555 1_555
C174_6 C173_6 1_555 1_555
C175_6 C174_6 1_555 1_555
H77_6 C175_6 1_555 1_555
C176_6 C175_6 1_555 1_555
H78_6 C176_6 1_555 1_555
C177_6 C176_6 1_555 1_555
C178_6 O47_4 1_555 1_555
O49_6 C179_6 1_555 1_555
O50_6 C179_6 1_555 1_555
O51_4 C178_6 1_555 1_555
C179_6 C180_6 1_555 1_555
C180_6 C181_6 1_555 1_555
C181_6 H79_6 1_555 1_555
C182_6 C181_6 1_555 1_555
H80_6 C182_6 1_555 1_555
C183_6 C182_6 1_555 1_555
C184_6 C183_6 1_555 1_555
H81_6 C184_6 1_555 1_555
C185_6 C180_6 1_555 1_555
H82_6 C185_6 1_555 1_555
C186_6 C183_6 1_555 1_555
N47_6 C186_6 1_555 1_555
C187_6 N44_6 1_555 1_555
N48_6 C172_6 1_555 1_555
N49_6 C173_6 1_555 1_555
C188_6 C174_6 1_555 1_555
H83_6 C188_6 1_555 1_555
C189_6 C177_6 1_555 1_555
H84_6 C189_6 1_555 1_555
Cu18_6 O49_6 1_555 1_555
O61_6 Cu7_6 1_555 1_555
O62_6 Cu7_6 1_555 1_555
O63_6 Cu8_6 1_555 1_555
O64_6 Cu8_6 1_555 1_555
O66_6 Cu2_6 1_555 1_555
Cu22_3 O24_4 1_555 1_555
Cu25_3 O25_4 1_555 1_555
Cu28_3 O26_4 1_555 1_555
O73_4 Cu21_3 1_555 1_555
O4_6 C11_6 1_555 1_555
C16_6 C17_6 1_555 1_555
C20_6 N6_6 1_555 1_555
C63_6 C64_6 1_555 1_555
C65_6 N17_6 1_555 1_555
N16_6 C66_6 1_555 1_555
C66_6 N18_6 1_555 1_555
C67_6 C68_6 1_555 1_555
C87_6 C88_6 1_555 1_555
C94_6 N26_6 1_555 1_555
N24_6 C95_6 1_555 1_555
C101_6 N27_6 1_555 1_555
N25_6 C102_6 1_555 1_555
C102_6 N28_6 1_555 1_555
C103_6 C104_6 1_555 1_555
C105_6 C106_6 1_555 1_555
C107_6 C108_6 1_555 1_555
Cu7_6 Cu8_6 1_555 1_555
O44_6 C163_6 1_555 1_555
C168_6 C169_6 1_555 1_555
C172_6 N45_6 1_555 1_555
C177_6 C178_6 1_555 1_555
O51_4 Cu25_3 1_555 1_555
C184_6 C185_6 1_555 1_555
C186_6 N48_6 1_555 1_555
N47_6 C187_6 1_555 1_555
C187_6 N49_6 1_555 1_555
C188_6 C189_6 1_555 1_555
O1_6 Cu1_6 1_555 1_555
O2_6 C1_6 1_555 1_555
O5_6 Cu1_6 1_555 1_555
O76_3 C34_6 1_555 1_555
C1_6 O1_6 1_555 1_555
C2_6 C1_6 1_555 1_555
C3_6 C2_6 1_555 1_555
H1_6 C3_6 1_555 1_555
C4_6 C3_6 1_555 1_555
H2_6 C4_6 1_555 1_555
C5_6 C4_6 1_555 1_555
C6_6 C5_6 1_555 1_555
H3_6 C6_6 1_555 1_555
C7_6 C2_6 1_555 1_555
H4_6 C7_6 1_555 1_555
C8_6 C5_6 1_555 1_555
N1_6 C8_6 1_555 1_555
C9_6 N1_6 1_555 1_555
N2_6 C9_6 1_555 1_555
C10_6 N2_6 1_555 1_555
N3_6 C8_6 1_555 1_555
C34_6 C35_6 1_555 1_555
C35_6 C36_6 1_555 1_555
C36_6 H13_6 1_555 1_555
C37_6 C36_6 1_555 1_555
H14_6 C37_6 1_555 1_555
C38_6 C37_6 1_555 1_555
C39_6 C38_6 1_555 1_555
N10_6 C10_6 1_555 1_555
O62_6 C47_6 1_555 1_555
O64_6 C47_6 1_555 1_555
O79_5 C34_6 1_555 1_555
C47_6 C48_6 1_555 1_555
C48_6 C49_6 1_555 1_555
C49_6 H17_6 1_555 1_555
C50_6 C49_6 1_555 1_555
H18_6 C50_6 1_555 1_555
C51_6 C50_6 1_555 1_555
C52_6 C51_6 1_555 1_555
H19_6 C52_6 1_555 1_555
C53_6 C48_6 1_555 1_555
H20_6 C53_6 1_555 1_555
C54_6 C51_6 1_555 1_555
N13_6 C9_6 1_555 1_555
C55_6 N2_6 1_555 1_555
N14_6 C54_6 1_555 1_555
C56_6 C35_6 1_555 1_555
H21_6 C56_6 1_555 1_555
C57_6 C38_6 1_555 1_555
H22_6 C57_6 1_555 1_555
N15_6 C39_6 1_555 1_555
C75_6 N9_8 1_555 1_555
O78_3 C146_6 1_555 1_555
C136_6 O61_6 1_555 1_555
C137_6 C136_6 1_555 1_555
C138_6 C137_6 1_555 1_555
H61_6 C138_6 1_555 1_555
C139_6 C138_6 1_555 1_555
H62_6 C139_6 1_555 1_555
C140_6 C139_6 1_555 1_555
C141_6 C140_6 1_555 1_555
H63_6 C141_6 1_555 1_555
C142_6 C137_6 1_555 1_555
H64_6 C142_6 1_555 1_555
C143_6 C140_6 1_555 1_555
N36_6 C143_6 1_555 1_555
C144_6 N36_6 1_555 1_555
N37_6 C144_6 1_555 1_555
C145_6 N37_6 1_555 1_555
N38_6 C143_6 1_555 1_555
C146_6 C147_6 1_555 1_555
C147_6 C148_6 1_555 1_555
C148_6 H65_6 1_555 1_555
C149_6 C148_6 1_555 1_555
H66_6 C149_6 1_555 1_555
C150_6 C149_6 1_555 1_555
C151_6 C150_6 1_555 1_555
N39_6 C145_6 1_555 1_555
O40_6 C152_6 1_555 1_555
O41_6 C152_6 1_555 1_555
O42_5 C146_6 1_555 1_555
C152_6 C153_6 1_555 1_555
C153_6 C154_6 1_555 1_555
C154_6 H67_6 1_555 1_555
C155_6 C154_6 1_555 1_555
H68_6 C155_6 1_555 1_555
C156_6 C155_6 1_555 1_555
C157_6 C156_6 1_555 1_555
H69_6 C157_6 1_555 1_555
C158_6 C153_6 1_555 1_555
H70_6 C158_6 1_555 1_555
C159_6 C156_6 1_555 1_555
N40_6 C144_6 1_555 1_555
C160_6 N37_6 1_555 1_555
N41_6 C159_6 1_555 1_555
C161_6 C147_6 1_555 1_555
H71_6 C161_6 1_555 1_555
C162_6 C150_6 1_555 1_555
H72_6 C162_6 1_555 1_555
N42_6 C151_6 1_555 1_555
O52_6 Cu1_6 1_555 1_555
O54_5 C200_6 1_555 1_555
C190_6 O52_6 1_555 1_555
C191_6 C190_6 1_555 1_555
C192_6 C191_6 1_555 1_555
H85_6 C192_6 1_555 1_555
C193_6 C192_6 1_555 1_555
H86_6 C193_6 1_555 1_555
C194_6 C193_6 1_555 1_555
C195_6 C194_6 1_555 1_555
H87_6 C195_6 1_555 1_555
C196_6 C191_6 1_555 1_555
H88_6 C196_6 1_555 1_555
C197_6 C194_6 1_555 1_555
N50_6 C197_6 1_555 1_555
C198_6 N50_6 1_555 1_555
N51_6 C198_6 1_555 1_555
C199_6 N51_6 1_555 1_555
N52_6 C197_6 1_555 1_555
C200_6 C201_6 1_555 1_555
C201_6 C202_6 1_555 1_555
C202_6 H89_6 1_555 1_555
C203_6 C202_6 1_555 1_555
H90_6 C203_6 1_555 1_555
C204_6 C203_6 1_555 1_555
C205_6 C204_6 1_555 1_555
N53_6 C199_6 1_555 1_555
O55_6 C206_6 1_555 1_555
O56_6 C206_6 1_555 1_555
O57_5 C200_6 1_555 1_555
C206_6 C207_6 1_555 1_555
C207_6 C208_6 1_555 1_555
C208_6 H91_6 1_555 1_555
C209_6 C208_6 1_555 1_555
H92_6 C209_6 1_555 1_555
C210_6 C209_6 1_555 1_555
C211_6 C210_6 1_555 1_555
H93_6 C211_6 1_555 1_555
C212_6 C207_6 1_555 1_555
H94_6 C212_6 1_555 1_555
C213_6 C210_6 1_555 1_555
N54_6 C198_6 1_555 1_555
C214_6 N51_6 1_555 1_555
N55_6 C213_6 1_555 1_555
C215_6 C201_6 1_555 1_555
H95_6 C215_6 1_555 1_555
C216_6 C204_6 1_555 1_555
H96_6 C216_6 1_555 1_555
N56_6 C205_6 1_555 1_555
Cu20_3 O57_5 1_555 1_555
Cu24_3 O42_5 1_555 1_555
Cu27_3 O54_5 1_555 1_555
C6_6 C7_6 1_555 1_555
C10_6 N3_6 1_555 1_555
C39_6 N10_6 1_555 1_555
C52_6 C53_6 1_555 1_555
C54_6 N13_6 1_555 1_555
C55_6 N14_6 1_555 1_555
C55_6 N15_6 1_555 1_555
C56_6 C57_6 1_555 1_555
N19_6 C75_6 1_555 1_555
C75_6 N23_6 1_555 1_555
O63_6 C136_6 1_555 1_555
C141_6 C142_6 1_555 1_555
C145_6 N38_6 1_555 1_555
C151_6 N39_6 1_555 1_555
O40_6 Cu15_6 1_555 1_555
C157_6 C158_6 1_555 1_555
C159_6 N40_6 1_555 1_555
C160_6 N41_6 1_555 1_555
C160_6 N42_6 1_555 1_555
C161_6 C162_6 1_555 1_555
O53_6 C190_6 1_555 1_555
C195_6 C196_6 1_555 1_555
C199_6 N52_6 1_555 1_555
C205_6 N53_6 1_555 1_555
O55_6 Cu15_6 1_555 1_555
C211_6 C212_6 1_555 1_555
C213_6 N54_6 1_555 1_555
C214_6 N55_6 1_555 1_555
C214_6 N56_6 1_555 1_555
C215_6 C216_6 1_555 1_555
O19_4 C76_6 1_555 1_555
C76_6 C77_6 1_555 1_555
C77_6 C78_6 1_555 1_555
C78_6 H31_6 1_555 1_555
C79_6 C78_6 1_555 1_555
H32_6 C79_6 1_555 1_555
C80_6 C79_6 1_555 1_555
C81_6 C80_6 1_555 1_555
O21_4 C76_6 1_555 1_555
C85_6 C77_6 1_555 1_555
H35_6 C85_6 1_555 1_555
C86_6 C80_6 1_555 1_555
H36_6 C86_6 1_555 1_555
Cu22_3 O19_4 1_555 1_555
Cu28_3 O21_4 1_555 1_555
C85_6 C86_6 1_555 1_555
O73_4 C69_6 1_555 1_555
C69_6 C70_6 1_555 1_555
C70_6 C71_6 1_555 1_555
C71_6 H29_6 1_555 1_555
C72_6 C71_6 1_555 1_555
H30_6 C72_6 1_555 1_555
C73_6 C72_6 1_555 1_555
C74_6 C73_6 1_555 1_555
O20_4 C69_6 1_555 1_555
C83_6 C70_6 1_555 1_555
H33_6 C83_6 1_555 1_555
C84_6 C73_6 1_555 1_555
H34_6 C84_6 1_555 1_555
N21_6 C74_6 1_555 1_555
Cu25_3 O20_4 1_555 1_555
N20_6 C82_6 1_555 1_555
C82_6 N21_6 1_555 1_555
C83_6 C84_6 1_555 1_555
O59_8 Cu22_3 1_555 1_555
O60_8 Cu28_3 1_555 1_555
O71_8 Cu22_3 1_555 1_555
O72_8 Cu28_3 1_555 1_555
Cu20_2 O7_4 1_555 1_555
O7_4 C26_7 1_555 1_555
O11_4 Cu20_2 1_555 1_555
C22_7 C21_7 1_555 1_555
C23_7 C22_7 1_555 1_555
H9_7 C23_7 1_555 1_555
C24_7 C23_7 1_555 1_555
H10_7 C24_7 1_555 1_555
C25_7 C24_7 1_555 1_555
C26_7 C25_7 1_555 1_555
O17_4 C26_7 1_555 1_555
C67_7 C22_7 1_555 1_555
H27_7 C67_7 1_555 1_555
C68_7 C25_7 1_555 1_555
H28_7 C68_7 1_555 1_555
O58_6 Cu27_2 1_555 1_555
O17_4 Cu27_2 1_555 1_555
C67_7 C68_7 1_555 1_555
O3_7 Cu18_4 1_555 1_555
O4_7 Cu15_4 1_555 1_555
O5_7 Cu15_4 1_555 1_555
O6_7 Cu18_4 1_555 1_555
C11_7 O3_7 1_555 1_555
C12_7 C11_7 1_555 1_555
C13_7 C12_7 1_555 1_555
H5_7 C13_7 1_555 1_555
C14_7 C13_7 1_555 1_555
H6_7 C14_7 1_555 1_555
C15_7 C14_7 1_555 1_555
C16_7 C15_7 1_555 1_555
H7_7 C16_7 1_555 1_555
C17_7 C12_7 1_555 1_555
H8_7 C17_7 1_555 1_555
C18_7 C15_7 1_555 1_555
N4_7 C18_7 1_555 1_555
C19_7 N4_7 1_555 1_555
N5_7 C19_7 1_555 1_555
C20_7 N5_7 1_555 1_555
N6_7 C18_7 1_555 1_555
N7_7 C19_7 1_555 1_555
O66_4 C58_7 1_555 1_555
O69_4 C58_7 1_555 1_555
C58_7 C59_7 1_555 1_555
C59_7 C60_7 1_555 1_555
C60_7 H23_7 1_555 1_555
C61_7 C60_7 1_555 1_555
H24_7 C61_7 1_555 1_555
C62_7 C61_7 1_555 1_555
C63_7 C62_7 1_555 1_555
H25_7 C63_7 1_555 1_555
C64_7 C59_7 1_555 1_555
H26_7 C64_7 1_555 1_555
C65_7 C62_7 1_555 1_555
N16_7 C65_7 1_555 1_555
C66_7 N5_7 1_555 1_555
N17_7 C20_7 1_555 1_555
O4_7 C11_7 1_555 1_555
C16_7 C17_7 1_555 1_555
C20_7 N6_7 1_555 1_555
C63_7 C64_7 1_555 1_555
C65_7 N17_7 1_555 1_555
N16_7 C66_7 1_555 1_555
C66_7 N18_7 1_555 1_555
O60_9 Cu25_3 1_555 1_555
O5_8 Cu15_6 1_555 1_555
C33_6 N9_9 1_555 1_555
O59_9 Cu20_3 1_555 1_555
O60_10 Cu27_3 1_555 1_555
O71_9 Cu20_3 1_555 1_555
O72_9 Cu27_3 1_555 1_555
O3_8 Cu18_6 1_555 1_555
O6_8 Cu18_6 1_555 1_555
O71_8 C26_8 1_555 1_555
C11_8 O3_8 1_555 1_555
C12_8 C11_8 1_555 1_555
C13_8 C12_8 1_555 1_555
H5_8 C13_8 1_555 1_555
C14_8 C13_8 1_555 1_555
H6_8 C14_8 1_555 1_555
C15_8 C14_8 1_555 1_555
C16_8 C15_8 1_555 1_555
H7_8 C16_8 1_555 1_555
C17_8 C12_8 1_555 1_555
H8_8 C17_8 1_555 1_555
C18_8 C15_8 1_555 1_555
N4_8 C18_8 1_555 1_555
C19_8 N4_8 1_555 1_555
N5_8 C19_8 1_555 1_555
C20_8 N5_8 1_555 1_555
N6_8 C18_8 1_555 1_555
N7_8 C19_8 1_555 1_555
C21_8 N7_8 1_555 1_555
C22_8 C21_8 1_555 1_555
C23_8 C22_8 1_555 1_555
H9_8 C23_8 1_555 1_555
C24_8 C23_8 1_555 1_555
H10_8 C24_8 1_555 1_555
C25_8 C24_8 1_555 1_555
C26_8 C25_8 1_555 1_555
O66_6 C58_8 1_555 1_555
O69_6 C58_8 1_555 1_555
O72_8 C26_8 1_555 1_555
C58_8 C59_8 1_555 1_555
C59_8 C60_8 1_555 1_555
C60_8 H23_8 1_555 1_555
C61_8 C60_8 1_555 1_555
H24_8 C61_8 1_555 1_555
C62_8 C61_8 1_555 1_555
C63_8 C62_8 1_555 1_555
H25_8 C63_8 1_555 1_555
C64_8 C59_8 1_555 1_555
H26_8 C64_8 1_555 1_555
C65_8 C62_8 1_555 1_555
N16_8 C65_8 1_555 1_555
C66_8 N5_8 1_555 1_555
N17_8 C20_8 1_555 1_555
N18_8 C21_8 1_555 1_555
C67_8 C22_8 1_555 1_555
H27_8 C67_8 1_555 1_555
C68_8 C25_8 1_555 1_555
H28_8 C68_8 1_555 1_555
O4_8 C11_8 1_555 1_555
C16_8 C17_8 1_555 1_555
C20_8 N6_8 1_555 1_555
C63_8 C64_8 1_555 1_555
C65_8 N17_8 1_555 1_555
N16_8 C66_8 1_555 1_555
C66_8 N18_8 1_555 1_555
C67_8 C68_8 1_555 1_555
C82_6 N9_10 1_555 1_555
O60_11 Cu24_3 1_555 1_555
O3_9 Cu18_5 1_555 1_555
O4_9 Cu15_5 1_555 1_555
O5_9 Cu15_5 1_555 1_555
O6_9 Cu18_5 1_555 1_555
C11_9 O3_9 1_555 1_555
C12_9 C11_9 1_555 1_555
C13_9 C12_9 1_555 1_555
H5_9 C13_9 1_555 1_555
C14_9 C13_9 1_555 1_555
H6_9 C14_9 1_555 1_555
C17_9 C12_9 1_555 1_555
H8_9 C17_9 1_555 1_555
O4_9 C11_9 1_555 1_555
O71_9 C26_9 1_555 1_555
C16_9 C15_9 1_555 1_555
H7_9 C16_9 1_555 1_555
C18_9 C15_9 1_555 1_555
N4_9 C18_9 1_555 1_555
C19_9 N4_9 1_555 1_555
N5_9 C19_9 1_555 1_555
C20_9 N5_9 1_555 1_555
N6_9 C18_9 1_555 1_555
N7_9 C19_9 1_555 1_555
C21_9 N7_9 1_555 1_555
C22_9 C21_9 1_555 1_555
C23_9 C22_9 1_555 1_555
H9_9 C23_9 1_555 1_555
C24_9 C23_9 1_555 1_555
H10_9 C24_9 1_555 1_555
C25_9 C24_9 1_555 1_555
C26_9 C25_9 1_555 1_555
O72_9 C26_9 1_555 1_555
C63_9 C62_9 1_555 1_555
H25_9 C63_9 1_555 1_555
C65_9 C62_9 1_555 1_555
N16_9 C65_9 1_555 1_555
C66_9 N5_9 1_555 1_555
N17_9 C20_9 1_555 1_555
N18_9 C21_9 1_555 1_555
C67_9 C22_9 1_555 1_555
H27_9 C67_9 1_555 1_555
C68_9 C25_9 1_555 1_555
H28_9 C68_9 1_555 1_555
C20_9 N6_9 1_555 1_555
C65_9 N17_9 1_555 1_555
N16_9 C66_9 1_555 1_555
C66_9 N18_9 1_555 1_555
C67_9 C68_9 1_555 1_555
N12_9 C102_5 1_555 1_555
O66_5 C58_9 1_555 1_555
O69_5 C58_9 1_555 1_555
C58_9 C59_9 1_555 1_555
C59_9 C60_9 1_555 1_555
C60_9 H23_9 1_555 1_555
C61_9 C60_9 1_555 1_555
H24_9 C61_9 1_555 1_555
C64_9 C59_9 1_555 1_555
H26_9 C64_9 1_555 1_555
N12_10 C95_5 1_555 1_555

#END
