
###############################################################################
#
# This file contains modified crystal structure data generated from the
# MOF subset of the Cambridge Structural Database (CSD) v543 
# hosted by the Cambridge Crystallographic Data Centre (CCDC).
#
# This work is licensed under the Creative Commons
# Attribution-NonCommercial-ShareAlike 4.0 International License.
# To view a copy of this license, visit
# http://creativecommons.org/licenses/by-nc-sa/4.0/
# or send a letter to
# Creative Commons, PO Box 1866, Mountain View, CA 94042, USA.
#
# CIF created using the CSD Python API on 29 September 2022
# The structure has been converted into the P1 space group
# The structure has a 3D framework
# The original CSD entry NIBJAK is in the cubic crystal system
# The framework has been calculated to contain at least 10.0% void space
# The void calculation uses a probe of radius 1.32A, grid spacing 0.4
# H atom positions have been added when not included in the experimental data
# Generated hydrogen atom positions removed from atoms on special positions
#
###############################################################################

data_NIBJAK
_chemical_formula_moiety         '(C864 H960 Cu72 N224 O264)n'
_symmetry_cell_setting           triclinic
_symmetry_space_group_name_H-M   'P 1'
_symmetry_Int_Tables_number      1
_space_group_name_Hall           'P 1'
loop_
_symmetry_equiv_pos_site_id
_symmetry_equiv_pos_as_xyz
1 x,y,z
_cell_length_a                   52.993(6)
_cell_length_b                   52.993(6)
_cell_length_c                   52.993(6)
_cell_angle_alpha                90
_cell_angle_beta                 90
_cell_angle_gamma                90
_cell_volume                     148818
loop_
_atom_site_label
_atom_site_type_symbol
_atom_site_fract_x
_atom_site_fract_y
_atom_site_fract_z
Cu1 Cu -0.0000 0.267747(5) 0.232253(5)
O2 O -0.0000 0.29671(3) 0.20329(3)
Cu2 Cu -0.0000 0.232253(5) 0.267747(5)
Cu9 Cu 0.232253(5) 0.232253(5) 0.5000
Cu10 Cu 0.267747(5) -0.0000 0.232253(5)
Cu11 Cu 0.232253(5) -0.0000 0.267747(5)
Cu12 Cu 0.267747(5) 0.232253(5) 0.0000
Cu13 Cu 0.232253(5) 0.267747(5) 0.0000
Cu14 Cu 0.267747(5) 0.267747(5) 0.5000
Cu15 Cu 0.232253(5) 0.5000 0.232253(5)
Cu16 Cu 0.267747(5) 0.5000 0.267747(5)
O3 O 0.026017(18) 0.283394(19) 0.25379(2)
O5 O 0.026017(18) 0.24621(2) 0.216606(19)
O7 O 0.026017(18) 0.25379(2) 0.283394(19)
O8 O 0.026017(18) 0.216606(19) 0.24621(2)
O22 O 0.216606(19) 0.24621(2) 0.026017(18)
O23 O 0.24621(2) 0.216606(19) 0.026017(18)
O24 O 0.24621(2) 0.026017(18) 0.216606(19)
O25 O 0.216606(19) 0.026017(18) 0.24621(2)
O26 O 0.24621(2) 0.283394(19) 0.473983(18)
O27 O 0.216606(19) 0.25379(2) 0.473983(18)
O30 O 0.216606(19) 0.473983(18) 0.25379(2)
O31 O 0.24621(2) 0.473983(18) 0.283394(19)
O38 O -0.0000 0.20329(3) 0.29671(3)
C8 C 0.03336(4) 0.27314(3) 0.27314(3)
C10 C 0.03336(4) 0.22686(3) 0.22686(3)
C13 C 0.22686(3) 0.22686(3) 0.03336(4)
C14 C 0.22686(3) 0.03336(4) 0.22686(3)
C15 C 0.22686(3) 0.46664(4) 0.27314(3)
C16 C 0.22686(3) 0.27314(3) 0.46664(4)
C19 C 0.05451(4) 0.28750(3) 0.28750(3)
C21 C 0.05451(4) 0.21250(3) 0.21250(3)
C25 C 0.21250(3) 0.05451(4) 0.21250(3)
C26 C 0.21250(3) 0.21250(3) 0.05451(4)
C27 C 0.21250(3) 0.28750(3) 0.44549(4)
C28 C 0.21250(3) 0.44549(4) 0.28750(3)
C31 C 0.06415(3) 0.27820(3) 0.30905(3)
C32 C 0.06415(3) 0.30905(3) 0.27820(3)
C35 C 0.06415(3) 0.19095(3) 0.22180(3)
C36 C 0.06415(3) 0.22180(3) 0.19095(3)
C43 C 0.22180(3) 0.06415(3) 0.19095(3)
C44 C 0.19095(3) 0.06415(3) 0.22180(3)
C45 C 0.22180(3) 0.19095(3) 0.06415(3)
C46 C 0.19095(3) 0.22180(3) 0.06415(3)
C47 C 0.19095(3) 0.27820(3) 0.43585(3)
C48 C 0.22180(3) 0.30905(3) 0.43585(3)
C49 C 0.22180(3) 0.43585(3) 0.30905(3)
C50 C 0.19095(3) 0.43585(3) 0.27820(3)
H4 H 0.0571 0.2637 0.3159
H5 H 0.0571 0.3159 0.2637
H8 H 0.0571 0.1841 0.2363
H9 H 0.0571 0.2363 0.1841
H16 H 0.2363 0.0571 0.1841
H17 H 0.1841 0.0571 0.2363
H18 H 0.2363 0.1841 0.0571
H19 H 0.1841 0.2363 0.0571
H20 H 0.1841 0.2637 0.4429
H21 H 0.2363 0.3159 0.4429
H22 H 0.1841 0.4429 0.2637
H23 H 0.2363 0.4429 0.3159
C56 C 0.08421(3) 0.28947(3) 0.32147(3)
C57 C 0.08421(3) 0.32147(3) 0.28947(3)
C60 C 0.08421(3) 0.17853(3) 0.21053(3)
C61 C 0.08421(3) 0.21053(3) 0.17853(3)
C64 C 0.21053(3) 0.08421(3) 0.17853(3)
C65 C 0.17853(3) 0.08421(3) 0.21053(3)
C66 C 0.17853(3) 0.21053(3) 0.08421(3)
C67 C 0.21053(3) 0.17853(3) 0.08421(3)
C68 C 0.21053(3) 0.32147(3) 0.41579(3)
C69 C 0.17853(3) 0.28947(3) 0.41579(3)
C70 C 0.17853(3) 0.41579(3) 0.28947(3)
C71 C 0.21053(3) 0.41579(3) 0.32147(3)
H29 H 0.0908 0.2824 0.3361
H30 H 0.0908 0.3361 0.2824
H33 H 0.0908 0.1639 0.2176
H34 H 0.0908 0.2176 0.1639
H39 H 0.2176 0.0908 0.1639
H40 H 0.1639 0.0908 0.2176
H41 H 0.2176 0.1639 0.0908
H42 H 0.1639 0.2176 0.0908
H43 H 0.1639 0.2824 0.4092
H44 H 0.2176 0.3361 0.4092
H45 H 0.2176 0.4092 0.3361
H46 H 0.1639 0.4092 0.2824
C78 C 0.09426(4) 0.31163(3) 0.31163(3)
C80 C 0.09426(4) 0.18837(3) 0.18837(3)
C82 C 0.18837(3) 0.09426(4) 0.18837(3)
C83 C 0.18837(3) 0.18837(3) 0.09426(4)
C84 C 0.18837(3) 0.31163(3) 0.40574(4)
C85 C 0.18837(3) 0.40574(4) 0.31163(3)
C89 C 0.11502(4) 0.32397(3) 0.32397(3)
C91 C 0.11502(4) 0.17603(3) 0.17603(3)
C93 C 0.17603(3) 0.32397(3) 0.38498(4)
C94 C 0.17603(3) 0.38498(4) 0.32397(3)
C95 C 0.17603(3) 0.11502(4) 0.17603(3)
C96 C 0.17603(3) 0.17603(3) 0.11502(4)
N8 N 0.12460(3) 0.34461(3) 0.31258(2)
N9 N 0.12460(3) 0.31258(2) 0.34461(3)
N12 N 0.12460(3) 0.18742(2) 0.15539(3)
N13 N 0.12460(3) 0.15539(3) 0.18742(2)
N14 N 0.15539(3) 0.31258(2) 0.37540(3)
N15 N 0.15539(3) 0.37540(3) 0.31258(2)
N16 N 0.15539(3) 0.12460(3) 0.18742(2)
N17 N 0.15539(3) 0.18742(2) 0.12460(3)
N21 N 0.18742(2) 0.12460(3) 0.15539(3)
N22 N 0.18742(2) 0.15539(3) 0.12460(3)
N23 N 0.18742(2) 0.34461(3) 0.37540(3)
N24 N 0.18742(2) 0.37540(3) 0.34461(3)
C100 C 0.14469(3) 0.35531(3) 0.32307(4)
C101 C 0.14469(3) 0.32307(4) 0.35531(3)
C104 C 0.14469(3) 0.17693(4) 0.14469(3)
C105 C 0.14469(3) 0.14469(3) 0.17693(4)
C106 C 0.17693(4) 0.14469(3) 0.14469(3)
C107 C 0.17693(4) 0.35531(3) 0.35531(3)
N26 N 0.15522(4) 0.34478(4) 0.34478(4)
N27 N 0.15522(4) 0.15522(4) 0.15522(4)
Cu12_2 Cu 0.267747(5) 0.232253(5) 1.0000
Cu13_2 Cu 0.232253(5) 0.267747(5) 1.0000
Cu10_2 Cu 0.267747(5) 1.0000 0.232253(5)
Cu11_2 Cu 0.232253(5) 1.0000 0.267747(5)
Cu1_2 Cu 1.0000 0.267747(5) 0.232253(5)
O1 O 0.973983(18) 0.283394(19) 0.25379(2)
O2_2 O 1.0000 0.29671(3) 0.20329(3)
C1 C 0.96664(4) 0.27314(3) 0.27314(3)
C2 C 0.94549(4) 0.28750(3) 0.28750(3)
C3 C 0.93585(3) 0.30905(3) 0.27820(3)
H1 H 0.9429 0.3159 0.2637
C4 C 0.91579(3) 0.32147(3) 0.28947(3)
H2 H 0.9092 0.3361 0.2824
C5 C 0.90574(4) 0.31163(3) 0.31163(3)
C6 C 0.88498(4) 0.32397(3) 0.32397(3)
N1 N 0.87540(3) 0.31258(2) 0.34461(3)
C7 C 0.85531(3) 0.32307(4) 0.35531(3)
N2 N 0.84478(4) 0.34478(4) 0.34478(4)
Cu2_2 Cu 1.0000 0.232253(5) 0.267747(5)
Cu3 Cu 0.767747(5) 0.232253(5) 0.5000
Cu4 Cu 0.732253(5) 0.267747(5) 0.5000
Cu5 Cu 0.732253(5) 0.5000 0.267747(5)
Cu6 Cu 0.767747(5) 0.5000 0.232253(5)
Cu7 Cu 0.732253(5) -0.0000 0.232253(5)
Cu8 Cu 0.767747(5) -0.0000 0.267747(5)
Cu17 Cu 0.732253(5) 0.232253(5) 0.0000
Cu18 Cu 0.767747(5) 0.267747(5) 0.0000
O4 O 0.973983(18) 0.24621(2) 0.216606(19)
O6 O 0.973983(18) 0.25379(2) 0.283394(19)
O9 O 0.973983(18) 0.216606(19) 0.24621(2)
O10 O 0.783394(19) 0.25379(2) 0.473983(18)
O11 O 0.75379(2) 0.283394(19) 0.473983(18)
O12 O 0.75379(2) 0.473983(18) 0.283394(19)
O13 O 0.783394(19) 0.473983(18) 0.25379(2)
O14 O 0.783394(19) 0.25379(2) 0.526017(18)
O15 O 0.74621(2) 0.216606(19) 0.473983(18)
O16 O 0.74621(2) 0.216606(19) 0.526017(18)
O17 O 0.75379(2) 0.283394(19) 0.526017(18)
O18 O 0.716606(19) 0.24621(2) 0.526017(18)
O19 O 0.716606(19) 0.24621(2) 0.473983(18)
O20 O 0.783394(19) 0.026017(18) 0.24621(2)
O21 O 0.75379(2) 0.026017(18) 0.216606(19)
O28 O 0.75379(2) 0.216606(19) 0.026017(18)
O29 O 0.783394(19) 0.24621(2) 0.026017(18)
O34 O 0.74621(2) 0.283394(19) 0.026017(18)
O37 O 0.716606(19) 0.25379(2) 0.026017(18)
O38_2 O 1.0000 0.20329(3) 0.29671(3)
O39 O 0.79671(3) 0.20329(3) 0.5000
O40 O 0.70329(3) 0.29671(3) 0.5000
O41 O 0.79671(3) 0.29671(3) 0.0000
O42 O 0.70329(3) 0.20329(3) 0.0000
C9 C 0.96664(4) 0.22686(3) 0.22686(3)
C11 C 0.77314(3) 0.27314(3) 0.46664(4)
C12 C 0.77314(3) 0.46664(4) 0.27314(3)
C17 C 0.77314(3) 0.03336(4) 0.22686(3)
C18 C 0.77314(3) 0.22686(3) 0.03336(4)
C20 C 0.94549(4) 0.21250(3) 0.21250(3)
C22 C 0.78750(3) 0.28750(3) 0.44549(4)
C23 C 0.78750(3) 0.44549(4) 0.28750(3)
C24 C 0.78750(3) 0.05451(4) 0.21250(3)
C29 C 0.78750(3) 0.21250(3) 0.05451(4)
C30 C 0.93585(3) 0.27820(3) 0.30905(3)
C33 C 0.93585(3) 0.22180(3) 0.19095(3)
C34 C 0.93585(3) 0.19095(3) 0.22180(3)
C37 C 0.80905(3) 0.27820(3) 0.43585(3)
C38 C 0.77820(3) 0.30905(3) 0.43585(3)
C39 C 0.77820(3) 0.43585(3) 0.30905(3)
C40 C 0.80905(3) 0.43585(3) 0.27820(3)
C41 C 0.77820(3) 0.06415(3) 0.19095(3)
C42 C 0.80905(3) 0.06415(3) 0.22180(3)
C51 C 0.77820(3) 0.19095(3) 0.06415(3)
C52 C 0.80905(3) 0.22180(3) 0.06415(3)
H3 H 0.9429 0.2637 0.3159
H6 H 0.9429 0.2363 0.1841
H7 H 0.9429 0.1841 0.2363
H10 H 0.8159 0.2637 0.4429
H11 H 0.7637 0.3159 0.4429
H12 H 0.7637 0.4429 0.3159
H13 H 0.8159 0.4429 0.2637
H14 H 0.7637 0.0571 0.1841
H15 H 0.8159 0.0571 0.2363
H24 H 0.7637 0.1841 0.0571
H25 H 0.8159 0.2363 0.0571
C53 C 0.91579(3) 0.28947(3) 0.32147(3)
C54 C 0.82147(3) 0.28947(3) 0.41579(3)
C55 C 0.78947(3) 0.32147(3) 0.41579(3)
C58 C 0.91579(3) 0.21053(3) 0.17853(3)
C59 C 0.91579(3) 0.17853(3) 0.21053(3)
C62 C 0.78947(3) 0.41579(3) 0.32147(3)
C63 C 0.82147(3) 0.41579(3) 0.28947(3)
C72 C 0.82147(3) 0.08421(3) 0.21053(3)
C73 C 0.78947(3) 0.08421(3) 0.17853(3)
C74 C 0.78947(3) 0.17853(3) 0.08421(3)
C75 C 0.82147(3) 0.21053(3) 0.08421(3)
H26 H 0.9092 0.2824 0.3361
H27 H 0.8361 0.2824 0.4092
H28 H 0.7824 0.3361 0.4092
H31 H 0.9092 0.2176 0.1639
H32 H 0.9092 0.1639 0.2176
H35 H 0.7824 0.4092 0.3361
H36 H 0.8361 0.4092 0.2824
H37 H 0.7824 0.0908 0.1639
H38 H 0.8361 0.0908 0.2176
H47 H 0.7824 0.1639 0.0908
H48 H 0.8361 0.2176 0.0908
C76 C 0.81163(3) 0.31163(3) 0.40574(4)
C77 C 0.81163(3) 0.40574(4) 0.31163(3)
C79 C 0.90574(4) 0.18837(3) 0.18837(3)
C81 C 0.81163(3) 0.09426(4) 0.18837(3)
C86 C 0.81163(3) 0.18837(3) 0.09426(4)
C87 C 0.82397(3) 0.32397(3) 0.38498(4)
C88 C 0.82397(3) 0.38498(4) 0.32397(3)
C90 C 0.88498(4) 0.17603(3) 0.17603(3)
C92 C 0.82397(3) 0.11502(4) 0.17603(3)
C97 C 0.82397(3) 0.17603(3) 0.11502(4)
N3 N 0.87540(3) 0.34461(3) 0.31258(2)
N4 N 0.84461(3) 0.31258(2) 0.37540(3)
N5 N 0.84461(3) 0.37540(3) 0.31258(2)
N6 N 0.81258(2) 0.34461(3) 0.37540(3)
N7 N 0.81258(2) 0.37540(3) 0.34461(3)
N10 N 0.87540(3) 0.15539(3) 0.18742(2)
N11 N 0.87540(3) 0.18742(2) 0.15539(3)
N18 N 0.84461(3) 0.12460(3) 0.18742(2)
N19 N 0.84461(3) 0.18742(2) 0.12460(3)
N20 N 0.81258(2) 0.12460(3) 0.15539(3)
N25 N 0.81258(2) 0.15539(3) 0.12460(3)
C98 C 0.85531(3) 0.35531(3) 0.32307(4)
C99 C 0.82307(4) 0.35531(3) 0.35531(3)
C102 C 0.85531(3) 0.14469(3) 0.17693(4)
C103 C 0.85531(3) 0.17693(4) 0.14469(3)
C108 C 0.82307(4) 0.14469(3) 0.14469(3)
N28 N 0.84478(4) 0.15522(4) 0.15522(4)
Cu17_2 Cu 0.732253(5) 0.232253(5) 1.0000
Cu18_2 Cu 0.767747(5) 0.267747(5) 1.0000
O32 O 0.74621(2) 0.283394(19) 0.973983(18)
O33 O 0.783394(19) 0.24621(2) 0.973983(18)
O35 O 0.75379(2) 0.216606(19) 0.973983(18)
O36 O 0.716606(19) 0.25379(2) 0.973983(18)
O41_2 O 0.79671(3) 0.29671(3) 1.0000
O42_2 O 0.70329(3) 0.20329(3) 1.0000
Cu7_2 Cu 0.732253(5) 1.0000 0.232253(5)
Cu8_2 Cu 0.767747(5) 1.0000 0.267747(5)
O2_3 O 0.20329(3) -0.0000 0.29671(3)
Cu9_2 Cu 0.5000 0.232253(5) 0.232253(5)
Cu14_2 Cu 0.5000 0.267747(5) 0.267747(5)
O3_2 O 0.25379(2) 0.026017(18) 0.283394(19)
O7_2 O 0.283394(19) 0.026017(18) 0.25379(2)
O26_2 O 0.473983(18) 0.24621(2) 0.283394(19)
O27_2 O 0.473983(18) 0.216606(19) 0.25379(2)
O30_2 O 0.25379(2) 0.216606(19) 0.473983(18)
O31_2 O 0.283394(19) 0.24621(2) 0.473983(18)
O38_3 O 0.29671(3) -0.0000 0.20329(3)
C8_2 C 0.27314(3) 0.03336(4) 0.27314(3)
C15_2 C 0.27314(3) 0.22686(3) 0.46664(4)
C16_2 C 0.46664(4) 0.22686(3) 0.27314(3)
C19_2 C 0.28750(3) 0.05451(4) 0.28750(3)
C27_2 C 0.44549(4) 0.21250(3) 0.28750(3)
C28_2 C 0.28750(3) 0.21250(3) 0.44549(4)
C31_2 C 0.30905(3) 0.06415(3) 0.27820(3)
C32_2 C 0.27820(3) 0.06415(3) 0.30905(3)
C47_2 C 0.43585(3) 0.19095(3) 0.27820(3)
C48_2 C 0.43585(3) 0.22180(3) 0.30905(3)
C49_2 C 0.30905(3) 0.22180(3) 0.43585(3)
C50_2 C 0.27820(3) 0.19095(3) 0.43585(3)
H4_2 H 0.3159 0.0571 0.2637
H5_2 H 0.2637 0.0571 0.3159
H20_2 H 0.4429 0.1841 0.2637
H21_2 H 0.4429 0.2363 0.3159
H22_2 H 0.2637 0.1841 0.4429
H23_2 H 0.3159 0.2363 0.4429
C56_2 C 0.32147(3) 0.08421(3) 0.28947(3)
C57_2 C 0.28947(3) 0.08421(3) 0.32147(3)
C68_2 C 0.41579(3) 0.21053(3) 0.32147(3)
C69_2 C 0.41579(3) 0.17853(3) 0.28947(3)
C70_2 C 0.28947(3) 0.17853(3) 0.41579(3)
C71_2 C 0.32147(3) 0.21053(3) 0.41579(3)
H29_2 H 0.3361 0.0908 0.2824
H30_2 H 0.2824 0.0908 0.3361
H43_2 H 0.4092 0.1639 0.2824
H44_2 H 0.4092 0.2176 0.3361
H45_2 H 0.3361 0.2176 0.4092
H46_2 H 0.2824 0.1639 0.4092
C78_2 C 0.31163(3) 0.09426(4) 0.31163(3)
C84_2 C 0.40574(4) 0.18837(3) 0.31163(3)
C85_2 C 0.31163(3) 0.18837(3) 0.40574(4)
C89_2 C 0.32397(3) 0.11502(4) 0.32397(3)
C93_2 C 0.38498(4) 0.17603(3) 0.32397(3)
C94_2 C 0.32397(3) 0.17603(3) 0.38498(4)
N8_2 N 0.31258(2) 0.12460(3) 0.34461(3)
N9_2 N 0.34461(3) 0.12460(3) 0.31258(2)
N14_2 N 0.37540(3) 0.15539(3) 0.31258(2)
N15_2 N 0.31258(2) 0.15539(3) 0.37540(3)
N23_2 N 0.37540(3) 0.18742(2) 0.34461(3)
N24_2 N 0.34461(3) 0.18742(2) 0.37540(3)
C100_2 C 0.32307(4) 0.14469(3) 0.35531(3)
C101_2 C 0.35531(3) 0.14469(3) 0.32307(4)
C107_2 C 0.35531(3) 0.17693(4) 0.35531(3)
N26_2 N 0.34478(4) 0.15522(4) 0.34478(4)
O1_2 O 0.25379(2) 0.973983(18) 0.283394(19)
O2_4 O 0.20329(3) 1.0000 0.29671(3)
C1_2 C 0.27314(3) 0.96664(4) 0.27314(3)
C2_2 C 0.28750(3) 0.94549(4) 0.28750(3)
C3_2 C 0.27820(3) 0.93585(3) 0.30905(3)
H1_2 H 0.2637 0.9429 0.3159
C4_2 C 0.28947(3) 0.91579(3) 0.32147(3)
H2_2 H 0.2824 0.9092 0.3361
C5_2 C 0.31163(3) 0.90574(4) 0.31163(3)
C6_2 C 0.32397(3) 0.88498(4) 0.32397(3)
N1_2 N 0.34461(3) 0.87540(3) 0.31258(2)
C7_2 C 0.35531(3) 0.85531(3) 0.32307(4)
N2_2 N 0.34478(4) 0.84478(4) 0.34478(4)
Cu3_2 Cu 0.5000 0.767747(5) 0.232253(5)
Cu4_2 Cu 0.5000 0.732253(5) 0.267747(5)
Cu5_2 Cu 0.267747(5) 0.732253(5) 0.5000
Cu6_2 Cu 0.232253(5) 0.767747(5) 0.5000
Cu7_3 Cu 0.232253(5) 0.732253(5) -0.0000
Cu8_3 Cu 0.267747(5) 0.767747(5) 0.0000
Cu17_3 Cu -0.0000 0.732253(5) 0.232253(5)
Cu18_3 Cu -0.0000 0.767747(5) 0.267747(5)
O4_2 O 0.216606(19) 0.973983(18) 0.24621(2)
O6_2 O 0.283394(19) 0.973983(18) 0.25379(2)
O9_2 O 0.24621(2) 0.973983(18) 0.216606(19)
O10_2 O 0.473983(18) 0.783394(19) 0.25379(2)
O11_2 O 0.473983(18) 0.75379(2) 0.283394(19)
O12_2 O 0.283394(19) 0.75379(2) 0.473983(18)
O13_2 O 0.25379(2) 0.783394(19) 0.473983(18)
O14_2 O 0.526017(18) 0.783394(19) 0.25379(2)
O15_2 O 0.473983(18) 0.74621(2) 0.216606(19)
O16_2 O 0.526017(18) 0.74621(2) 0.216606(19)
O17_2 O 0.526017(18) 0.75379(2) 0.283394(19)
O18_2 O 0.526017(18) 0.716606(19) 0.24621(2)
O19_2 O 0.473983(18) 0.716606(19) 0.24621(2)
O20_2 O 0.24621(2) 0.783394(19) 0.026017(18)
O21_2 O 0.216606(19) 0.75379(2) 0.026017(18)
O28_2 O 0.026017(18) 0.75379(2) 0.216606(19)
O29_2 O 0.026017(18) 0.783394(19) 0.24621(2)
O34_2 O 0.026017(18) 0.74621(2) 0.283394(19)
O37_2 O 0.026017(18) 0.716606(19) 0.25379(2)
O38_4 O 0.29671(3) 1.0000 0.20329(3)
O39_2 O 0.5000 0.79671(3) 0.20329(3)
O40_2 O 0.5000 0.70329(3) 0.29671(3)
O41_3 O -0.0000 0.79671(3) 0.29671(3)
O42_3 O -0.0000 0.70329(3) 0.20329(3)
C9_2 C 0.22686(3) 0.96664(4) 0.22686(3)
C11_2 C 0.46664(4) 0.77314(3) 0.27314(3)
C12_2 C 0.27314(3) 0.77314(3) 0.46664(4)
C17_2 C 0.22686(3) 0.77314(3) 0.03336(4)
C18_2 C 0.03336(4) 0.77314(3) 0.22686(3)
C20_2 C 0.21250(3) 0.94549(4) 0.21250(3)
C22_2 C 0.44549(4) 0.78750(3) 0.28750(3)
C23_2 C 0.28750(3) 0.78750(3) 0.44549(4)
C24_2 C 0.21250(3) 0.78750(3) 0.05451(4)
C29_2 C 0.05451(4) 0.78750(3) 0.21250(3)
C30_2 C 0.30905(3) 0.93585(3) 0.27820(3)
C33_2 C 0.19095(3) 0.93585(3) 0.22180(3)
C34_2 C 0.22180(3) 0.93585(3) 0.19095(3)
C37_2 C 0.43585(3) 0.80905(3) 0.27820(3)
C38_2 C 0.43585(3) 0.77820(3) 0.30905(3)
C39_2 C 0.30905(3) 0.77820(3) 0.43585(3)
C40_2 C 0.27820(3) 0.80905(3) 0.43585(3)
C41_2 C 0.19095(3) 0.77820(3) 0.06415(3)
C42_2 C 0.22180(3) 0.80905(3) 0.06415(3)
C51_2 C 0.06415(3) 0.77820(3) 0.19095(3)
C52_2 C 0.06415(3) 0.80905(3) 0.22180(3)
H3_2 H 0.3159 0.9429 0.2637
H6_2 H 0.1841 0.9429 0.2363
H7_2 H 0.2363 0.9429 0.1841
H10_2 H 0.4429 0.8159 0.2637
H11_2 H 0.4429 0.7637 0.3159
H12_2 H 0.3159 0.7637 0.4429
H13_2 H 0.2637 0.8159 0.4429
H14_2 H 0.1841 0.7637 0.0571
H15_2 H 0.2363 0.8159 0.0571
H24_2 H 0.0571 0.7637 0.1841
H25_2 H 0.0571 0.8159 0.2363
C53_2 C 0.32147(3) 0.91579(3) 0.28947(3)
C54_2 C 0.41579(3) 0.82147(3) 0.28947(3)
C55_2 C 0.41579(3) 0.78947(3) 0.32147(3)
C58_2 C 0.17853(3) 0.91579(3) 0.21053(3)
C59_2 C 0.21053(3) 0.91579(3) 0.17853(3)
C62_2 C 0.32147(3) 0.78947(3) 0.41579(3)
C63_2 C 0.28947(3) 0.82147(3) 0.41579(3)
C72_2 C 0.21053(3) 0.82147(3) 0.08421(3)
C73_2 C 0.17853(3) 0.78947(3) 0.08421(3)
C74_2 C 0.08421(3) 0.78947(3) 0.17853(3)
C75_2 C 0.08421(3) 0.82147(3) 0.21053(3)
H26_2 H 0.3361 0.9092 0.2824
H27_2 H 0.4092 0.8361 0.2824
H28_2 H 0.4092 0.7824 0.3361
H31_2 H 0.1639 0.9092 0.2176
H32_2 H 0.2176 0.9092 0.1639
H35_2 H 0.3361 0.7824 0.4092
H36_2 H 0.2824 0.8361 0.4092
H37_2 H 0.1639 0.7824 0.0908
H38_2 H 0.2176 0.8361 0.0908
H47_2 H 0.0908 0.7824 0.1639
H48_2 H 0.0908 0.8361 0.2176
C76_2 C 0.40574(4) 0.81163(3) 0.31163(3)
C77_2 C 0.31163(3) 0.81163(3) 0.40574(4)
C79_2 C 0.18837(3) 0.90574(4) 0.18837(3)
C81_2 C 0.18837(3) 0.81163(3) 0.09426(4)
C86_2 C 0.09426(4) 0.81163(3) 0.18837(3)
C87_2 C 0.38498(4) 0.82397(3) 0.32397(3)
C88_2 C 0.32397(3) 0.82397(3) 0.38498(4)
C90_2 C 0.17603(3) 0.88498(4) 0.17603(3)
C92_2 C 0.17603(3) 0.82397(3) 0.11502(4)
C97_2 C 0.11502(4) 0.82397(3) 0.17603(3)
N3_2 N 0.31258(2) 0.87540(3) 0.34461(3)
N4_2 N 0.37540(3) 0.84461(3) 0.31258(2)
N5_2 N 0.31258(2) 0.84461(3) 0.37540(3)
N6_2 N 0.37540(3) 0.81258(2) 0.34461(3)
N7_2 N 0.34461(3) 0.81258(2) 0.37540(3)
N10_2 N 0.18742(2) 0.87540(3) 0.15539(3)
N11_2 N 0.15539(3) 0.87540(3) 0.18742(2)
N18_2 N 0.18742(2) 0.84461(3) 0.12460(3)
N19_2 N 0.12460(3) 0.84461(3) 0.18742(2)
N20_2 N 0.15539(3) 0.81258(2) 0.12460(3)
N25_2 N 0.12460(3) 0.81258(2) 0.15539(3)
C98_2 C 0.32307(4) 0.85531(3) 0.35531(3)
C99_2 C 0.35531(3) 0.82307(4) 0.35531(3)
C102_2 C 0.17693(4) 0.85531(3) 0.14469(3)
C103_2 C 0.14469(3) 0.85531(3) 0.17693(4)
C108_2 C 0.14469(3) 0.82307(4) 0.14469(3)
N28_2 N 0.15522(4) 0.84478(4) 0.15522(4)
Cu7_4 Cu 0.232253(5) 0.732253(5) 1.0000
Cu8_4 Cu 0.267747(5) 0.767747(5) 1.0000
Cu17_4 Cu 1.0000 0.732253(5) 0.232253(5)
Cu18_4 Cu 1.0000 0.767747(5) 0.267747(5)
O32_2 O 0.973983(18) 0.74621(2) 0.283394(19)
O33_2 O 0.973983(18) 0.783394(19) 0.24621(2)
O35_2 O 0.973983(18) 0.75379(2) 0.216606(19)
O36_2 O 0.973983(18) 0.716606(19) 0.25379(2)
O41_4 O 1.0000 0.79671(3) 0.29671(3)
O42_4 O 1.0000 0.70329(3) 0.20329(3)
O2_5 O 0.29671(3) 0.20329(3) 0.0000
O3_3 O 0.283394(19) 0.25379(2) 0.026017(18)
O7_3 O 0.25379(2) 0.283394(19) 0.026017(18)
O26_3 O 0.283394(19) 0.473983(18) 0.24621(2)
O27_3 O 0.25379(2) 0.473983(18) 0.216606(19)
O30_3 O 0.473983(18) 0.25379(2) 0.216606(19)
O31_3 O 0.473983(18) 0.283394(19) 0.24621(2)
O38_5 O 0.20329(3) 0.29671(3) -0.0000
C8_3 C 0.27314(3) 0.27314(3) 0.03336(4)
C15_3 C 0.46664(4) 0.27314(3) 0.22686(3)
C16_3 C 0.27314(3) 0.46664(4) 0.22686(3)
C19_3 C 0.28750(3) 0.28750(3) 0.05451(4)
C27_3 C 0.28750(3) 0.44549(4) 0.21250(3)
C28_3 C 0.44549(4) 0.28750(3) 0.21250(3)
C31_3 C 0.27820(3) 0.30905(3) 0.06415(3)
C32_3 C 0.30905(3) 0.27820(3) 0.06415(3)
C47_3 C 0.27820(3) 0.43585(3) 0.19095(3)
C48_3 C 0.30905(3) 0.43585(3) 0.22180(3)
C49_3 C 0.43585(3) 0.30905(3) 0.22180(3)
C50_3 C 0.43585(3) 0.27820(3) 0.19095(3)
H4_3 H 0.2637 0.3159 0.0571
H5_3 H 0.3159 0.2637 0.0571
H20_3 H 0.2637 0.4429 0.1841
H21_3 H 0.3159 0.4429 0.2363
H22_3 H 0.4429 0.2637 0.1841
H23_3 H 0.4429 0.3159 0.2363
C56_3 C 0.28947(3) 0.32147(3) 0.08421(3)
C57_3 C 0.32147(3) 0.28947(3) 0.08421(3)
C68_3 C 0.32147(3) 0.41579(3) 0.21053(3)
C69_3 C 0.28947(3) 0.41579(3) 0.17853(3)
C70_3 C 0.41579(3) 0.28947(3) 0.17853(3)
C71_3 C 0.41579(3) 0.32147(3) 0.21053(3)
H29_3 H 0.2824 0.3361 0.0908
H30_3 H 0.3361 0.2824 0.0908
H43_3 H 0.2824 0.4092 0.1639
H44_3 H 0.3361 0.4092 0.2176
H45_3 H 0.4092 0.3361 0.2176
H46_3 H 0.4092 0.2824 0.1639
C78_3 C 0.31163(3) 0.31163(3) 0.09426(4)
C84_3 C 0.31163(3) 0.40574(4) 0.18837(3)
C85_3 C 0.40574(4) 0.31163(3) 0.18837(3)
C89_3 C 0.32397(3) 0.32397(3) 0.11502(4)
C93_3 C 0.32397(3) 0.38498(4) 0.17603(3)
C94_3 C 0.38498(4) 0.32397(3) 0.17603(3)
N8_3 N 0.34461(3) 0.31258(2) 0.12460(3)
N9_3 N 0.31258(2) 0.34461(3) 0.12460(3)
N14_3 N 0.31258(2) 0.37540(3) 0.15539(3)
N15_3 N 0.37540(3) 0.31258(2) 0.15539(3)
N23_3 N 0.34461(3) 0.37540(3) 0.18742(2)
N24_3 N 0.37540(3) 0.34461(3) 0.18742(2)
C100_3 C 0.35531(3) 0.32307(4) 0.14469(3)
C101_3 C 0.32307(4) 0.35531(3) 0.14469(3)
C107_3 C 0.35531(3) 0.35531(3) 0.17693(4)
N26_3 N 0.34478(4) 0.34478(4) 0.15522(4)
O1_3 O 0.283394(19) 0.25379(2) 0.973983(18)
O2_6 O 0.29671(3) 0.20329(3) 1.0000
C1_3 C 0.27314(3) 0.27314(3) 0.96664(4)
C2_3 C 0.28750(3) 0.28750(3) 0.94549(4)
C3_3 C 0.30905(3) 0.27820(3) 0.93585(3)
H1_3 H 0.3159 0.2637 0.9429
C4_3 C 0.32147(3) 0.28947(3) 0.91579(3)
H2_3 H 0.3361 0.2824 0.9092
C5_3 C 0.31163(3) 0.31163(3) 0.90574(4)
C6_3 C 0.32397(3) 0.32397(3) 0.88498(4)
N1_3 N 0.31258(2) 0.34461(3) 0.87540(3)
C7_3 C 0.32307(4) 0.35531(3) 0.85531(3)
N2_3 N 0.34478(4) 0.34478(4) 0.84478(4)
Cu3_3 Cu 0.232253(5) 0.5000 0.767747(5)
Cu4_3 Cu 0.267747(5) 0.5000 0.732253(5)
Cu5_3 Cu 0.5000 0.267747(5) 0.732253(5)
Cu6_3 Cu 0.5000 0.232253(5) 0.767747(5)
Cu7_5 Cu -0.0000 0.232253(5) 0.732253(5)
Cu8_5 Cu -0.0000 0.267747(5) 0.767747(5)
Cu17_5 Cu 0.232253(5) -0.0000 0.732253(5)
Cu18_5 Cu 0.267747(5) -0.0000 0.767747(5)
O4_3 O 0.24621(2) 0.216606(19) 0.973983(18)
O6_3 O 0.25379(2) 0.283394(19) 0.973983(18)
O9_3 O 0.216606(19) 0.24621(2) 0.973983(18)
O10_3 O 0.25379(2) 0.473983(18) 0.783394(19)
O11_3 O 0.283394(19) 0.473983(18) 0.75379(2)
O12_3 O 0.473983(18) 0.283394(19) 0.75379(2)
O13_3 O 0.473983(18) 0.25379(2) 0.783394(19)
O14_3 O 0.25379(2) 0.526017(18) 0.783394(19)
O15_3 O 0.216606(19) 0.473983(18) 0.74621(2)
O16_3 O 0.216606(19) 0.526017(18) 0.74621(2)
O17_3 O 0.283394(19) 0.526017(18) 0.75379(2)
O18_3 O 0.24621(2) 0.526017(18) 0.716606(19)
O19_3 O 0.24621(2) 0.473983(18) 0.716606(19)
O20_3 O 0.026017(18) 0.24621(2) 0.783394(19)
O21_3 O 0.026017(18) 0.216606(19) 0.75379(2)
O28_3 O 0.216606(19) 0.026017(18) 0.75379(2)
O29_3 O 0.24621(2) 0.026017(18) 0.783394(19)
O34_3 O 0.283394(19) 0.026017(18) 0.74621(2)
O37_3 O 0.25379(2) 0.026017(18) 0.716606(19)
O38_6 O 0.20329(3) 0.29671(3) 1.0000
O39_3 O 0.20329(3) 0.5000 0.79671(3)
O40_3 O 0.29671(3) 0.5000 0.70329(3)
O41_5 O 0.29671(3) -0.0000 0.79671(3)
O42_5 O 0.20329(3) -0.0000 0.70329(3)
C9_3 C 0.22686(3) 0.22686(3) 0.96664(4)
C11_3 C 0.27314(3) 0.46664(4) 0.77314(3)
C12_3 C 0.46664(4) 0.27314(3) 0.77314(3)
C17_3 C 0.03336(4) 0.22686(3) 0.77314(3)
C18_3 C 0.22686(3) 0.03336(4) 0.77314(3)
C20_3 C 0.21250(3) 0.21250(3) 0.94549(4)
C22_3 C 0.28750(3) 0.44549(4) 0.78750(3)
C23_3 C 0.44549(4) 0.28750(3) 0.78750(3)
C24_3 C 0.05451(4) 0.21250(3) 0.78750(3)
C29_3 C 0.21250(3) 0.05451(4) 0.78750(3)
C30_3 C 0.27820(3) 0.30905(3) 0.93585(3)
C33_3 C 0.22180(3) 0.19095(3) 0.93585(3)
C34_3 C 0.19095(3) 0.22180(3) 0.93585(3)
C37_3 C 0.27820(3) 0.43585(3) 0.80905(3)
C38_3 C 0.30905(3) 0.43585(3) 0.77820(3)
C39_3 C 0.43585(3) 0.30905(3) 0.77820(3)
C40_3 C 0.43585(3) 0.27820(3) 0.80905(3)
C41_3 C 0.06415(3) 0.19095(3) 0.77820(3)
C42_3 C 0.06415(3) 0.22180(3) 0.80905(3)
C51_3 C 0.19095(3) 0.06415(3) 0.77820(3)
C52_3 C 0.22180(3) 0.06415(3) 0.80905(3)
H3_3 H 0.2637 0.3159 0.9429
H6_3 H 0.2363 0.1841 0.9429
H7_3 H 0.1841 0.2363 0.9429
H10_3 H 0.2637 0.4429 0.8159
H11_3 H 0.3159 0.4429 0.7637
H12_3 H 0.4429 0.3159 0.7637
H13_3 H 0.4429 0.2637 0.8159
H14_3 H 0.0571 0.1841 0.7637
H15_3 H 0.0571 0.2363 0.8159
H24_3 H 0.1841 0.0571 0.7637
H25_3 H 0.2363 0.0571 0.8159
C53_3 C 0.28947(3) 0.32147(3) 0.91579(3)
C54_3 C 0.28947(3) 0.41579(3) 0.82147(3)
C55_3 C 0.32147(3) 0.41579(3) 0.78947(3)
C58_3 C 0.21053(3) 0.17853(3) 0.91579(3)
C59_3 C 0.17853(3) 0.21053(3) 0.91579(3)
C62_3 C 0.41579(3) 0.32147(3) 0.78947(3)
C63_3 C 0.41579(3) 0.28947(3) 0.82147(3)
C72_3 C 0.08421(3) 0.21053(3) 0.82147(3)
C73_3 C 0.08421(3) 0.17853(3) 0.78947(3)
C74_3 C 0.17853(3) 0.08421(3) 0.78947(3)
C75_3 C 0.21053(3) 0.08421(3) 0.82147(3)
H26_3 H 0.2824 0.3361 0.9092
H27_3 H 0.2824 0.4092 0.8361
H28_3 H 0.3361 0.4092 0.7824
H31_3 H 0.2176 0.1639 0.9092
H32_3 H 0.1639 0.2176 0.9092
H35_3 H 0.4092 0.3361 0.7824
H36_3 H 0.4092 0.2824 0.8361
H37_3 H 0.0908 0.1639 0.7824
H38_3 H 0.0908 0.2176 0.8361
H47_3 H 0.1639 0.0908 0.7824
H48_3 H 0.2176 0.0908 0.8361
C76_3 C 0.31163(3) 0.40574(4) 0.81163(3)
C77_3 C 0.40574(4) 0.31163(3) 0.81163(3)
C79_3 C 0.18837(3) 0.18837(3) 0.90574(4)
C81_3 C 0.09426(4) 0.18837(3) 0.81163(3)
C86_3 C 0.18837(3) 0.09426(4) 0.81163(3)
C87_3 C 0.32397(3) 0.38498(4) 0.82397(3)
C88_3 C 0.38498(4) 0.32397(3) 0.82397(3)
C90_3 C 0.17603(3) 0.17603(3) 0.88498(4)
C92_3 C 0.11502(4) 0.17603(3) 0.82397(3)
C97_3 C 0.17603(3) 0.11502(4) 0.82397(3)
N3_3 N 0.34461(3) 0.31258(2) 0.87540(3)
N4_3 N 0.31258(2) 0.37540(3) 0.84461(3)
N5_3 N 0.37540(3) 0.31258(2) 0.84461(3)
N6_3 N 0.34461(3) 0.37540(3) 0.81258(2)
N7_3 N 0.37540(3) 0.34461(3) 0.81258(2)
N10_3 N 0.15539(3) 0.18742(2) 0.87540(3)
N11_3 N 0.18742(2) 0.15539(3) 0.87540(3)
N18_3 N 0.12460(3) 0.18742(2) 0.84461(3)
N19_3 N 0.18742(2) 0.12460(3) 0.84461(3)
N20_3 N 0.12460(3) 0.15539(3) 0.81258(2)
N25_3 N 0.15539(3) 0.12460(3) 0.81258(2)
C98_3 C 0.35531(3) 0.32307(4) 0.85531(3)
C99_3 C 0.35531(3) 0.35531(3) 0.82307(4)
C102_3 C 0.14469(3) 0.17693(4) 0.85531(3)
C103_3 C 0.17693(4) 0.14469(3) 0.85531(3)
C108_3 C 0.14469(3) 0.14469(3) 0.82307(4)
N28_3 N 0.15522(4) 0.15522(4) 0.84478(4)
Cu17_6 Cu 0.232253(5) 1.0000 0.732253(5)
Cu18_6 Cu 0.267747(5) 1.0000 0.767747(5)
O32_3 O 0.283394(19) 0.973983(18) 0.74621(2)
O33_3 O 0.24621(2) 0.973983(18) 0.783394(19)
O35_3 O 0.216606(19) 0.973983(18) 0.75379(2)
O36_3 O 0.25379(2) 0.973983(18) 0.716606(19)
O41_6 O 0.29671(3) 1.0000 0.79671(3)
O42_6 O 0.20329(3) 1.0000 0.70329(3)
Cu7_6 Cu 1.0000 0.232253(5) 0.732253(5)
Cu8_6 Cu 1.0000 0.267747(5) 0.767747(5)
O26_4 O 0.283394(19) 0.24621(2) 0.526017(18)
O27_4 O 0.25379(2) 0.216606(19) 0.526017(18)
O30_4 O 0.473983(18) 0.216606(19) 0.74621(2)
O31_4 O 0.473983(18) 0.24621(2) 0.716606(19)
C8_4 C 0.27314(3) 0.03336(4) 0.72686(3)
C15_4 C 0.46664(4) 0.22686(3) 0.72686(3)
C16_4 C 0.27314(3) 0.22686(3) 0.53336(4)
C19_4 C 0.28750(3) 0.05451(4) 0.71250(3)
C27_4 C 0.28750(3) 0.21250(3) 0.55451(4)
C28_4 C 0.44549(4) 0.21250(3) 0.71250(3)
C31_4 C 0.27820(3) 0.06415(3) 0.69095(3)
C32_4 C 0.30905(3) 0.06415(3) 0.72180(3)
C47_4 C 0.27820(3) 0.19095(3) 0.56415(3)
C48_4 C 0.30905(3) 0.22180(3) 0.56415(3)
C49_4 C 0.43585(3) 0.22180(3) 0.69095(3)
C50_4 C 0.43585(3) 0.19095(3) 0.72180(3)
H4_4 H 0.2637 0.0571 0.6841
H5_4 H 0.3159 0.0571 0.7363
H20_4 H 0.2637 0.1841 0.5571
H21_4 H 0.3159 0.2363 0.5571
H22_4 H 0.4429 0.1841 0.7363
H23_4 H 0.4429 0.2363 0.6841
C56_4 C 0.28947(3) 0.08421(3) 0.67853(3)
C57_4 C 0.32147(3) 0.08421(3) 0.71053(3)
C68_4 C 0.32147(3) 0.21053(3) 0.58421(3)
C69_4 C 0.28947(3) 0.17853(3) 0.58421(3)
C70_4 C 0.41579(3) 0.17853(3) 0.71053(3)
C71_4 C 0.41579(3) 0.21053(3) 0.67853(3)
H29_4 H 0.2824 0.0908 0.6639
H30_4 H 0.3361 0.0908 0.7176
H43_4 H 0.2824 0.1639 0.5908
H44_4 H 0.3361 0.2176 0.5908
H45_4 H 0.4092 0.2176 0.6639
H46_4 H 0.4092 0.1639 0.7176
C78_4 C 0.31163(3) 0.09426(4) 0.68837(3)
C84_4 C 0.31163(3) 0.18837(3) 0.59426(4)
C85_4 C 0.40574(4) 0.18837(3) 0.68837(3)
C89_4 C 0.32397(3) 0.11502(4) 0.67603(3)
C93_4 C 0.32397(3) 0.17603(3) 0.61502(4)
C94_4 C 0.38498(4) 0.17603(3) 0.67603(3)
N8_4 N 0.34461(3) 0.12460(3) 0.68742(2)
N9_4 N 0.31258(2) 0.12460(3) 0.65539(3)
N14_4 N 0.31258(2) 0.15539(3) 0.62460(3)
N15_4 N 0.37540(3) 0.15539(3) 0.68742(2)
N23_4 N 0.34461(3) 0.18742(2) 0.62460(3)
N24_4 N 0.37540(3) 0.18742(2) 0.65539(3)
C100_4 C 0.35531(3) 0.14469(3) 0.67693(4)
C101_4 C 0.32307(4) 0.14469(3) 0.64469(3)
C107_4 C 0.35531(3) 0.17693(4) 0.64469(3)
N26_4 N 0.34478(4) 0.15522(4) 0.65522(4)
O32_4 O 0.283394(19) 0.74621(2) 0.026017(18)
O36_4 O 0.25379(2) 0.716606(19) 0.026017(18)
O41_7 O 0.29671(3) 0.79671(3) 0.0000
O42_7 O 0.20329(3) 0.70329(3) 0.0000
C1_4 C 0.27314(3) 0.96664(4) 0.72686(3)
C2_4 C 0.28750(3) 0.94549(4) 0.71250(3)
C3_4 C 0.30905(3) 0.93585(3) 0.72180(3)
H1_4 H 0.3159 0.9429 0.7363
C4_4 C 0.32147(3) 0.91579(3) 0.71053(3)
H2_4 H 0.3361 0.9092 0.7176
C5_4 C 0.31163(3) 0.90574(4) 0.68837(3)
C6_4 C 0.32397(3) 0.88498(4) 0.67603(3)
N1_4 N 0.31258(2) 0.87540(3) 0.65539(3)
C7_4 C 0.32307(4) 0.85531(3) 0.64469(3)
N2_4 N 0.34478(4) 0.84478(4) 0.65522(4)
Cu5_4 Cu 0.5000 0.732253(5) 0.732253(5)
Cu6_4 Cu 0.5000 0.767747(5) 0.767747(5)
Cu7_7 Cu -0.0000 0.732253(5) 0.767747(5)
Cu8_7 Cu -0.0000 0.767747(5) 0.732253(5)
O10_4 O 0.25379(2) 0.783394(19) 0.526017(18)
O11_4 O 0.283394(19) 0.75379(2) 0.526017(18)
O12_4 O 0.473983(18) 0.75379(2) 0.716606(19)
O13_4 O 0.473983(18) 0.783394(19) 0.74621(2)
O15_4 O 0.216606(19) 0.74621(2) 0.526017(18)
O16_4 O 0.216606(19) 0.74621(2) 0.473983(18)
O18_4 O 0.24621(2) 0.716606(19) 0.473983(18)
O19_4 O 0.24621(2) 0.716606(19) 0.526017(18)
O20_4 O 0.026017(18) 0.783394(19) 0.75379(2)
O21_4 O 0.026017(18) 0.75379(2) 0.783394(19)
O28_4 O 0.216606(19) 0.75379(2) 0.973983(18)
O29_4 O 0.24621(2) 0.783394(19) 0.973983(18)
O34_4 O 0.283394(19) 0.74621(2) 0.973983(18)
O37_4 O 0.25379(2) 0.716606(19) 0.973983(18)
O39_4 O 0.20329(3) 0.79671(3) 0.5000
O40_4 O 0.29671(3) 0.70329(3) 0.5000
O41_8 O 0.29671(3) 0.79671(3) 1.0000
O42_8 O 0.20329(3) 0.70329(3) 1.0000
C9_4 C 0.22686(3) 0.96664(4) 0.77314(3)
C11_4 C 0.27314(3) 0.77314(3) 0.53336(4)
C12_4 C 0.46664(4) 0.77314(3) 0.72686(3)
C17_4 C 0.03336(4) 0.77314(3) 0.77314(3)
C18_4 C 0.22686(3) 0.77314(3) 0.96664(4)
C20_4 C 0.21250(3) 0.94549(4) 0.78750(3)
C22_4 C 0.28750(3) 0.78750(3) 0.55451(4)
C23_4 C 0.44549(4) 0.78750(3) 0.71250(3)
C24_4 C 0.05451(4) 0.78750(3) 0.78750(3)
C29_4 C 0.21250(3) 0.78750(3) 0.94549(4)
C30_4 C 0.27820(3) 0.93585(3) 0.69095(3)
C33_4 C 0.22180(3) 0.93585(3) 0.80905(3)
C34_4 C 0.19095(3) 0.93585(3) 0.77820(3)
C37_4 C 0.27820(3) 0.80905(3) 0.56415(3)
C38_4 C 0.30905(3) 0.77820(3) 0.56415(3)
C39_4 C 0.43585(3) 0.77820(3) 0.69095(3)
C40_4 C 0.43585(3) 0.80905(3) 0.72180(3)
C41_4 C 0.06415(3) 0.77820(3) 0.80905(3)
C42_4 C 0.06415(3) 0.80905(3) 0.77820(3)
C51_4 C 0.19095(3) 0.77820(3) 0.93585(3)
C52_4 C 0.22180(3) 0.80905(3) 0.93585(3)
H3_4 H 0.2637 0.9429 0.6841
H6_4 H 0.2363 0.9429 0.8159
H7_4 H 0.1841 0.9429 0.7637
H10_4 H 0.2637 0.8159 0.5571
H11_4 H 0.3159 0.7637 0.5571
H12_4 H 0.4429 0.7637 0.6841
H13_4 H 0.4429 0.8159 0.7363
H14_4 H 0.0571 0.7637 0.8159
H15_4 H 0.0571 0.8159 0.7637
H24_4 H 0.1841 0.7637 0.9429
H25_4 H 0.2363 0.8159 0.9429
C53_4 C 0.28947(3) 0.91579(3) 0.67853(3)
C54_4 C 0.28947(3) 0.82147(3) 0.58421(3)
C55_4 C 0.32147(3) 0.78947(3) 0.58421(3)
C58_4 C 0.21053(3) 0.91579(3) 0.82147(3)
C59_4 C 0.17853(3) 0.91579(3) 0.78947(3)
C62_4 C 0.41579(3) 0.78947(3) 0.67853(3)
C63_4 C 0.41579(3) 0.82147(3) 0.71053(3)
C72_4 C 0.08421(3) 0.82147(3) 0.78947(3)
C73_4 C 0.08421(3) 0.78947(3) 0.82147(3)
C74_4 C 0.17853(3) 0.78947(3) 0.91579(3)
C75_4 C 0.21053(3) 0.82147(3) 0.91579(3)
H26_4 H 0.2824 0.9092 0.6639
H27_4 H 0.2824 0.8361 0.5908
H28_4 H 0.3361 0.7824 0.5908
H31_4 H 0.2176 0.9092 0.8361
H32_4 H 0.1639 0.9092 0.7824
H35_4 H 0.4092 0.7824 0.6639
H36_4 H 0.4092 0.8361 0.7176
H37_4 H 0.0908 0.7824 0.8361
H38_4 H 0.0908 0.8361 0.7824
H47_4 H 0.1639 0.7824 0.9092
H48_4 H 0.2176 0.8361 0.9092
C76_4 C 0.31163(3) 0.81163(3) 0.59426(4)
C77_4 C 0.40574(4) 0.81163(3) 0.68837(3)
C79_4 C 0.18837(3) 0.90574(4) 0.81163(3)
C81_4 C 0.09426(4) 0.81163(3) 0.81163(3)
C86_4 C 0.18837(3) 0.81163(3) 0.90574(4)
C87_4 C 0.32397(3) 0.82397(3) 0.61502(4)
C88_4 C 0.38498(4) 0.82397(3) 0.67603(3)
C90_4 C 0.17603(3) 0.88498(4) 0.82397(3)
C92_4 C 0.11502(4) 0.82397(3) 0.82397(3)
C97_4 C 0.17603(3) 0.82397(3) 0.88498(4)
N3_4 N 0.34461(3) 0.87540(3) 0.68742(2)
N4_4 N 0.31258(2) 0.84461(3) 0.62460(3)
N5_4 N 0.37540(3) 0.84461(3) 0.68742(2)
N6_4 N 0.34461(3) 0.81258(2) 0.62460(3)
N7_4 N 0.37540(3) 0.81258(2) 0.65539(3)
N10_4 N 0.15539(3) 0.87540(3) 0.81258(2)
N11_4 N 0.18742(2) 0.87540(3) 0.84461(3)
N18_4 N 0.12460(3) 0.84461(3) 0.81258(2)
N19_4 N 0.18742(2) 0.84461(3) 0.87540(3)
N20_4 N 0.12460(3) 0.81258(2) 0.84461(3)
N25_4 N 0.15539(3) 0.81258(2) 0.87540(3)
C98_4 C 0.35531(3) 0.85531(3) 0.67693(4)
C99_4 C 0.35531(3) 0.82307(4) 0.64469(3)
C102_4 C 0.14469(3) 0.85531(3) 0.82307(4)
C103_4 C 0.17693(4) 0.85531(3) 0.85531(3)
C108_4 C 0.14469(3) 0.82307(4) 0.85531(3)
N28_4 N 0.15522(4) 0.84478(4) 0.84478(4)
Cu7_8 Cu 1.0000 0.732253(5) 0.767747(5)
Cu8_8 Cu 1.0000 0.767747(5) 0.732253(5)
O16_5 O 0.216606(19) 0.25379(2) 0.526017(18)
O18_5 O 0.24621(2) 0.283394(19) 0.526017(18)
O39_5 O 0.20329(3) 0.20329(3) 0.5000
O40_5 O 0.29671(3) 0.29671(3) 0.5000
O2_7 O 0.70329(3) -0.0000 0.20329(3)
O3_4 O 0.716606(19) 0.026017(18) 0.25379(2)
O7_4 O 0.74621(2) 0.026017(18) 0.283394(19)
O30_5 O 0.526017(18) 0.216606(19) 0.25379(2)
O31_5 O 0.526017(18) 0.24621(2) 0.283394(19)
O38_7 O 0.79671(3) -0.0000 0.29671(3)
C8_5 C 0.72686(3) 0.03336(4) 0.27314(3)
C15_5 C 0.53336(4) 0.22686(3) 0.27314(3)
C16_5 C 0.72686(3) 0.22686(3) 0.46664(4)
C19_5 C 0.71250(3) 0.05451(4) 0.28750(3)
C27_5 C 0.71250(3) 0.21250(3) 0.44549(4)
C28_5 C 0.55451(4) 0.21250(3) 0.28750(3)
C31_5 C 0.72180(3) 0.06415(3) 0.30905(3)
C32_5 C 0.69095(3) 0.06415(3) 0.27820(3)
C47_5 C 0.72180(3) 0.19095(3) 0.43585(3)
C48_5 C 0.69095(3) 0.22180(3) 0.43585(3)
C49_5 C 0.56415(3) 0.22180(3) 0.30905(3)
C50_5 C 0.56415(3) 0.19095(3) 0.27820(3)
H4_5 H 0.7363 0.0571 0.3159
H5_5 H 0.6841 0.0571 0.2637
H20_5 H 0.7363 0.1841 0.4429
H21_5 H 0.6841 0.2363 0.4429
H22_5 H 0.5571 0.1841 0.2637
H23_5 H 0.5571 0.2363 0.3159
C56_5 C 0.71053(3) 0.08421(3) 0.32147(3)
C57_5 C 0.67853(3) 0.08421(3) 0.28947(3)
C68_5 C 0.67853(3) 0.21053(3) 0.41579(3)
C69_5 C 0.71053(3) 0.17853(3) 0.41579(3)
C70_5 C 0.58421(3) 0.17853(3) 0.28947(3)
C71_5 C 0.58421(3) 0.21053(3) 0.32147(3)
H29_5 H 0.7176 0.0908 0.3361
H30_5 H 0.6639 0.0908 0.2824
H43_5 H 0.7176 0.1639 0.4092
H44_5 H 0.6639 0.2176 0.4092
H45_5 H 0.5908 0.2176 0.3361
H46_5 H 0.5908 0.1639 0.2824
C78_5 C 0.68837(3) 0.09426(4) 0.31163(3)
C84_5 C 0.68837(3) 0.18837(3) 0.40574(4)
C85_5 C 0.59426(4) 0.18837(3) 0.31163(3)
C89_5 C 0.67603(3) 0.11502(4) 0.32397(3)
C93_5 C 0.67603(3) 0.17603(3) 0.38498(4)
C94_5 C 0.61502(4) 0.17603(3) 0.32397(3)
N8_5 N 0.65539(3) 0.12460(3) 0.31258(2)
N9_5 N 0.68742(2) 0.12460(3) 0.34461(3)
N14_5 N 0.68742(2) 0.15539(3) 0.37540(3)
N15_5 N 0.62460(3) 0.15539(3) 0.31258(2)
N23_5 N 0.65539(3) 0.18742(2) 0.37540(3)
N24_5 N 0.62460(3) 0.18742(2) 0.34461(3)
C100_5 C 0.64469(3) 0.14469(3) 0.32307(4)
C101_5 C 0.67693(4) 0.14469(3) 0.35531(3)
C107_5 C 0.64469(3) 0.17693(4) 0.35531(3)
N26_5 N 0.65522(4) 0.15522(4) 0.34478(4)
O1_4 O 0.716606(19) 0.973983(18) 0.25379(2)
O2_8 O 0.70329(3) 1.0000 0.20329(3)
C1_5 C 0.72686(3) 0.96664(4) 0.27314(3)
C2_5 C 0.71250(3) 0.94549(4) 0.28750(3)
C3_5 C 0.69095(3) 0.93585(3) 0.27820(3)
H1_5 H 0.6841 0.9429 0.2637
C4_5 C 0.67853(3) 0.91579(3) 0.28947(3)
H2_5 H 0.6639 0.9092 0.2824
C5_5 C 0.68837(3) 0.90574(4) 0.31163(3)
C6_5 C 0.67603(3) 0.88498(4) 0.32397(3)
N1_5 N 0.68742(2) 0.87540(3) 0.34461(3)
C7_5 C 0.67693(4) 0.85531(3) 0.35531(3)
N2_5 N 0.65522(4) 0.84478(4) 0.34478(4)
Cu3_4 Cu 0.767747(5) 0.767747(5) 0.5000
Cu4_4 Cu 0.732253(5) 0.732253(5) 0.5000
Cu17_7 Cu 0.767747(5) 0.732253(5) 0.0000
Cu18_7 Cu 0.732253(5) 0.767747(5) 0.0000
O4_4 O 0.75379(2) 0.973983(18) 0.216606(19)
O6_4 O 0.74621(2) 0.973983(18) 0.283394(19)
O9_4 O 0.783394(19) 0.973983(18) 0.24621(2)
O10_5 O 0.74621(2) 0.783394(19) 0.473983(18)
O11_5 O 0.716606(19) 0.75379(2) 0.473983(18)
O14_4 O 0.74621(2) 0.783394(19) 0.526017(18)
O15_5 O 0.783394(19) 0.74621(2) 0.473983(18)
O16_6 O 0.783394(19) 0.74621(2) 0.526017(18)
O17_4 O 0.716606(19) 0.75379(2) 0.526017(18)
O18_6 O 0.75379(2) 0.716606(19) 0.526017(18)
O19_5 O 0.75379(2) 0.716606(19) 0.473983(18)
O28_5 O 0.783394(19) 0.75379(2) 0.026017(18)
O29_5 O 0.75379(2) 0.783394(19) 0.026017(18)
O34_5 O 0.716606(19) 0.74621(2) 0.026017(18)
O37_5 O 0.74621(2) 0.716606(19) 0.026017(18)
O38_8 O 0.79671(3) 1.0000 0.29671(3)
O39_6 O 0.79671(3) 0.79671(3) 0.5000
O40_6 O 0.70329(3) 0.70329(3) 0.5000
O41_9 O 0.70329(3) 0.79671(3) 0.0000
O42_9 O 0.79671(3) 0.70329(3) 0.0000
C9_5 C 0.77314(3) 0.96664(4) 0.22686(3)
C11_5 C 0.72686(3) 0.77314(3) 0.46664(4)
C12_5 C 0.53336(4) 0.77314(3) 0.27314(3)
C17_5 C 0.96664(4) 0.77314(3) 0.22686(3)
C18_5 C 0.77314(3) 0.77314(3) 0.03336(4)
C20_5 C 0.78750(3) 0.94549(4) 0.21250(3)
C22_5 C 0.71250(3) 0.78750(3) 0.44549(4)
C23_5 C 0.55451(4) 0.78750(3) 0.28750(3)
C24_5 C 0.94549(4) 0.78750(3) 0.21250(3)
C29_5 C 0.78750(3) 0.78750(3) 0.05451(4)
C30_5 C 0.72180(3) 0.93585(3) 0.30905(3)
C33_5 C 0.77820(3) 0.93585(3) 0.19095(3)
C34_5 C 0.80905(3) 0.93585(3) 0.22180(3)
C37_5 C 0.72180(3) 0.80905(3) 0.43585(3)
C38_5 C 0.69095(3) 0.77820(3) 0.43585(3)
C39_5 C 0.56415(3) 0.77820(3) 0.30905(3)
C40_5 C 0.56415(3) 0.80905(3) 0.27820(3)
C41_5 C 0.93585(3) 0.77820(3) 0.19095(3)
C42_5 C 0.93585(3) 0.80905(3) 0.22180(3)
C51_5 C 0.80905(3) 0.77820(3) 0.06415(3)
C52_5 C 0.77820(3) 0.80905(3) 0.06415(3)
H3_5 H 0.7363 0.9429 0.3159
H6_5 H 0.7637 0.9429 0.1841
H7_5 H 0.8159 0.9429 0.2363
H10_5 H 0.7363 0.8159 0.4429
H11_5 H 0.6841 0.7637 0.4429
H12_5 H 0.5571 0.7637 0.3159
H13_5 H 0.5571 0.8159 0.2637
H14_5 H 0.9429 0.7637 0.1841
H15_5 H 0.9429 0.8159 0.2363
H24_5 H 0.8159 0.7637 0.0571
H25_5 H 0.7637 0.8159 0.0571
C53_5 C 0.71053(3) 0.91579(3) 0.32147(3)
C54_5 C 0.71053(3) 0.82147(3) 0.41579(3)
C55_5 C 0.67853(3) 0.78947(3) 0.41579(3)
C58_5 C 0.78947(3) 0.91579(3) 0.17853(3)
C59_5 C 0.82147(3) 0.91579(3) 0.21053(3)
C62_5 C 0.58421(3) 0.78947(3) 0.32147(3)
C63_5 C 0.58421(3) 0.82147(3) 0.28947(3)
C72_5 C 0.91579(3) 0.82147(3) 0.21053(3)
C73_5 C 0.91579(3) 0.78947(3) 0.17853(3)
C74_5 C 0.82147(3) 0.78947(3) 0.08421(3)
C75_5 C 0.78947(3) 0.82147(3) 0.08421(3)
H26_5 H 0.7176 0.9092 0.3361
H27_5 H 0.7176 0.8361 0.4092
H28_5 H 0.6639 0.7824 0.4092
H31_5 H 0.7824 0.9092 0.1639
H32_5 H 0.8361 0.9092 0.2176
H35_5 H 0.5908 0.7824 0.3361
H36_5 H 0.5908 0.8361 0.2824
H37_5 H 0.9092 0.7824 0.1639
H38_5 H 0.9092 0.8361 0.2176
H47_5 H 0.8361 0.7824 0.0908
H48_5 H 0.7824 0.8361 0.0908
C76_5 C 0.68837(3) 0.81163(3) 0.40574(4)
C77_5 C 0.59426(4) 0.81163(3) 0.31163(3)
C79_5 C 0.81163(3) 0.90574(4) 0.18837(3)
C81_5 C 0.90574(4) 0.81163(3) 0.18837(3)
C86_5 C 0.81163(3) 0.81163(3) 0.09426(4)
C87_5 C 0.67603(3) 0.82397(3) 0.38498(4)
C88_5 C 0.61502(4) 0.82397(3) 0.32397(3)
C90_5 C 0.82397(3) 0.88498(4) 0.17603(3)
C92_5 C 0.88498(4) 0.82397(3) 0.17603(3)
C97_5 C 0.82397(3) 0.82397(3) 0.11502(4)
N3_5 N 0.65539(3) 0.87540(3) 0.31258(2)
N4_5 N 0.68742(2) 0.84461(3) 0.37540(3)
N5_5 N 0.62460(3) 0.84461(3) 0.31258(2)
N6_5 N 0.65539(3) 0.81258(2) 0.37540(3)
N7_5 N 0.62460(3) 0.81258(2) 0.34461(3)
N10_5 N 0.84461(3) 0.87540(3) 0.18742(2)
N11_5 N 0.81258(2) 0.87540(3) 0.15539(3)
N18_5 N 0.87540(3) 0.84461(3) 0.18742(2)
N19_5 N 0.81258(2) 0.84461(3) 0.12460(3)
N20_5 N 0.87540(3) 0.81258(2) 0.15539(3)
N25_5 N 0.84461(3) 0.81258(2) 0.12460(3)
C98_5 C 0.64469(3) 0.85531(3) 0.32307(4)
C99_5 C 0.64469(3) 0.82307(4) 0.35531(3)
C102_5 C 0.85531(3) 0.85531(3) 0.17693(4)
C103_5 C 0.82307(4) 0.85531(3) 0.14469(3)
C108_5 C 0.85531(3) 0.82307(4) 0.14469(3)
N28_5 N 0.84478(4) 0.84478(4) 0.15522(4)
Cu17_8 Cu 0.767747(5) 0.732253(5) 1.0000
Cu18_8 Cu 0.732253(5) 0.767747(5) 1.0000
O32_5 O 0.716606(19) 0.74621(2) 0.973983(18)
O33_4 O 0.75379(2) 0.783394(19) 0.973983(18)
O35_4 O 0.783394(19) 0.75379(2) 0.973983(18)
O36_5 O 0.74621(2) 0.716606(19) 0.973983(18)
O41_10 O 0.70329(3) 0.79671(3) 1.0000
O42_10 O 0.79671(3) 0.70329(3) 1.0000
O2_9 O -0.0000 0.20329(3) 0.70329(3)
O3_5 O 0.026017(18) 0.25379(2) 0.716606(19)
O7_5 O 0.026017(18) 0.283394(19) 0.74621(2)
O38_9 O -0.0000 0.29671(3) 0.79671(3)
C8_6 C 0.03336(4) 0.27314(3) 0.72686(3)
C15_6 C 0.22686(3) 0.27314(3) 0.53336(4)
C16_6 C 0.22686(3) 0.46664(4) 0.72686(3)
C19_6 C 0.05451(4) 0.28750(3) 0.71250(3)
C27_6 C 0.21250(3) 0.44549(4) 0.71250(3)
C28_6 C 0.21250(3) 0.28750(3) 0.55451(4)
C31_6 C 0.06415(3) 0.30905(3) 0.72180(3)
C32_6 C 0.06415(3) 0.27820(3) 0.69095(3)
C47_6 C 0.19095(3) 0.43585(3) 0.72180(3)
C48_6 C 0.22180(3) 0.43585(3) 0.69095(3)
C49_6 C 0.22180(3) 0.30905(3) 0.56415(3)
C50_6 C 0.19095(3) 0.27820(3) 0.56415(3)
H4_6 H 0.0571 0.3159 0.7363
H5_6 H 0.0571 0.2637 0.6841
H20_6 H 0.1841 0.4429 0.7363
H21_6 H 0.2363 0.4429 0.6841
H22_6 H 0.1841 0.2637 0.5571
H23_6 H 0.2363 0.3159 0.5571
C56_6 C 0.08421(3) 0.32147(3) 0.71053(3)
C57_6 C 0.08421(3) 0.28947(3) 0.67853(3)
C68_6 C 0.21053(3) 0.41579(3) 0.67853(3)
C69_6 C 0.17853(3) 0.41579(3) 0.71053(3)
C70_6 C 0.17853(3) 0.28947(3) 0.58421(3)
C71_6 C 0.21053(3) 0.32147(3) 0.58421(3)
H29_6 H 0.0908 0.3361 0.7176
H30_6 H 0.0908 0.2824 0.6639
H43_6 H 0.1639 0.4092 0.7176
H44_6 H 0.2176 0.4092 0.6639
H45_6 H 0.2176 0.3361 0.5908
H46_6 H 0.1639 0.2824 0.5908
C78_6 C 0.09426(4) 0.31163(3) 0.68837(3)
C84_6 C 0.18837(3) 0.40574(4) 0.68837(3)
C85_6 C 0.18837(3) 0.31163(3) 0.59426(4)
C89_6 C 0.11502(4) 0.32397(3) 0.67603(3)
C93_6 C 0.17603(3) 0.38498(4) 0.67603(3)
C94_6 C 0.17603(3) 0.32397(3) 0.61502(4)
N8_6 N 0.12460(3) 0.31258(2) 0.65539(3)
N9_6 N 0.12460(3) 0.34461(3) 0.68742(2)
N14_6 N 0.15539(3) 0.37540(3) 0.68742(2)
N15_6 N 0.15539(3) 0.31258(2) 0.62460(3)
N23_6 N 0.18742(2) 0.37540(3) 0.65539(3)
N24_6 N 0.18742(2) 0.34461(3) 0.62460(3)
C100_6 C 0.14469(3) 0.32307(4) 0.64469(3)
C101_6 C 0.14469(3) 0.35531(3) 0.67693(4)
C107_6 C 0.17693(4) 0.35531(3) 0.64469(3)
N26_6 N 0.15522(4) 0.34478(4) 0.65522(4)
O1_5 O 0.973983(18) 0.25379(2) 0.716606(19)
O2_10 O 1.0000 0.20329(3) 0.70329(3)
C1_6 C 0.96664(4) 0.27314(3) 0.72686(3)
C2_6 C 0.94549(4) 0.28750(3) 0.71250(3)
C3_6 C 0.93585(3) 0.27820(3) 0.69095(3)
H1_6 H 0.9429 0.2637 0.6841
C4_6 C 0.91579(3) 0.28947(3) 0.67853(3)
H2_6 H 0.9092 0.2824 0.6639
C5_6 C 0.90574(4) 0.31163(3) 0.68837(3)
C6_6 C 0.88498(4) 0.32397(3) 0.67603(3)
N1_6 N 0.87540(3) 0.34461(3) 0.68742(2)
C7_6 C 0.85531(3) 0.35531(3) 0.67693(4)
N2_6 N 0.84478(4) 0.34478(4) 0.65522(4)
Cu3_5 Cu 0.767747(5) 0.5000 0.767747(5)
Cu4_5 Cu 0.732253(5) 0.5000 0.732253(5)
Cu17_9 Cu 0.732253(5) -0.0000 0.767747(5)
Cu18_9 Cu 0.767747(5) -0.0000 0.732253(5)
O4_5 O 0.973983(18) 0.216606(19) 0.75379(2)
O6_5 O 0.973983(18) 0.283394(19) 0.74621(2)
O9_5 O 0.973983(18) 0.24621(2) 0.783394(19)
O10_6 O 0.783394(19) 0.473983(18) 0.74621(2)
O11_6 O 0.75379(2) 0.473983(18) 0.716606(19)
O14_5 O 0.783394(19) 0.526017(18) 0.74621(2)
O15_6 O 0.74621(2) 0.473983(18) 0.783394(19)
O16_7 O 0.74621(2) 0.526017(18) 0.783394(19)
O17_5 O 0.75379(2) 0.526017(18) 0.716606(19)
O18_7 O 0.716606(19) 0.526017(18) 0.75379(2)
O19_6 O 0.716606(19) 0.473983(18) 0.75379(2)
O28_6 O 0.75379(2) 0.026017(18) 0.783394(19)
O29_6 O 0.783394(19) 0.026017(18) 0.75379(2)
O34_6 O 0.74621(2) 0.026017(18) 0.716606(19)
O37_6 O 0.716606(19) 0.026017(18) 0.74621(2)
O38_10 O 1.0000 0.29671(3) 0.79671(3)
O39_7 O 0.79671(3) 0.5000 0.79671(3)
O40_7 O 0.70329(3) 0.5000 0.70329(3)
O41_11 O 0.79671(3) -0.0000 0.70329(3)
O42_11 O 0.70329(3) -0.0000 0.79671(3)
C9_6 C 0.96664(4) 0.22686(3) 0.77314(3)
C11_6 C 0.77314(3) 0.46664(4) 0.72686(3)
C12_6 C 0.77314(3) 0.27314(3) 0.53336(4)
C17_6 C 0.77314(3) 0.22686(3) 0.96664(4)
C18_6 C 0.77314(3) 0.03336(4) 0.77314(3)
C20_6 C 0.94549(4) 0.21250(3) 0.78750(3)
C22_6 C 0.78750(3) 0.44549(4) 0.71250(3)
C23_6 C 0.78750(3) 0.28750(3) 0.55451(4)
C24_6 C 0.78750(3) 0.21250(3) 0.94549(4)
C29_6 C 0.78750(3) 0.05451(4) 0.78750(3)
C30_6 C 0.93585(3) 0.30905(3) 0.72180(3)
C33_6 C 0.93585(3) 0.19095(3) 0.77820(3)
C34_6 C 0.93585(3) 0.22180(3) 0.80905(3)
C37_6 C 0.80905(3) 0.43585(3) 0.72180(3)
C38_6 C 0.77820(3) 0.43585(3) 0.69095(3)
C39_6 C 0.77820(3) 0.30905(3) 0.56415(3)
C40_6 C 0.80905(3) 0.27820(3) 0.56415(3)
C41_6 C 0.77820(3) 0.19095(3) 0.93585(3)
C42_6 C 0.80905(3) 0.22180(3) 0.93585(3)
C51_6 C 0.77820(3) 0.06415(3) 0.80905(3)
C52_6 C 0.80905(3) 0.06415(3) 0.77820(3)
H3_6 H 0.9429 0.3159 0.7363
H6_6 H 0.9429 0.1841 0.7637
H7_6 H 0.9429 0.2363 0.8159
H10_6 H 0.8159 0.4429 0.7363
H11_6 H 0.7637 0.4429 0.6841
H12_6 H 0.7637 0.3159 0.5571
H13_6 H 0.8159 0.2637 0.5571
H14_6 H 0.7637 0.1841 0.9429
H15_6 H 0.8159 0.2363 0.9429
H24_6 H 0.7637 0.0571 0.8159
H25_6 H 0.8159 0.0571 0.7637
C53_6 C 0.91579(3) 0.32147(3) 0.71053(3)
C54_6 C 0.82147(3) 0.41579(3) 0.71053(3)
C55_6 C 0.78947(3) 0.41579(3) 0.67853(3)
C58_6 C 0.91579(3) 0.17853(3) 0.78947(3)
C59_6 C 0.91579(3) 0.21053(3) 0.82147(3)
C62_6 C 0.78947(3) 0.32147(3) 0.58421(3)
C63_6 C 0.82147(3) 0.28947(3) 0.58421(3)
C72_6 C 0.82147(3) 0.21053(3) 0.91579(3)
C73_6 C 0.78947(3) 0.17853(3) 0.91579(3)
C74_6 C 0.78947(3) 0.08421(3) 0.82147(3)
C75_6 C 0.82147(3) 0.08421(3) 0.78947(3)
H26_6 H 0.9092 0.3361 0.7176
H27_6 H 0.8361 0.4092 0.7176
H28_6 H 0.7824 0.4092 0.6639
H31_6 H 0.9092 0.1639 0.7824
H32_6 H 0.9092 0.2176 0.8361
H35_6 H 0.7824 0.3361 0.5908
H36_6 H 0.8361 0.2824 0.5908
H37_6 H 0.7824 0.1639 0.9092
H38_6 H 0.8361 0.2176 0.9092
H47_6 H 0.7824 0.0908 0.8361
H48_6 H 0.8361 0.0908 0.7824
C76_6 C 0.81163(3) 0.40574(4) 0.68837(3)
C77_6 C 0.81163(3) 0.31163(3) 0.59426(4)
C79_6 C 0.90574(4) 0.18837(3) 0.81163(3)
C81_6 C 0.81163(3) 0.18837(3) 0.90574(4)
C86_6 C 0.81163(3) 0.09426(4) 0.81163(3)
C87_6 C 0.82397(3) 0.38498(4) 0.67603(3)
C88_6 C 0.82397(3) 0.32397(3) 0.61502(4)
C90_6 C 0.88498(4) 0.17603(3) 0.82397(3)
C92_6 C 0.82397(3) 0.17603(3) 0.88498(4)
C97_6 C 0.82397(3) 0.11502(4) 0.82397(3)
N3_6 N 0.87540(3) 0.31258(2) 0.65539(3)
N4_6 N 0.84461(3) 0.37540(3) 0.68742(2)
N5_6 N 0.84461(3) 0.31258(2) 0.62460(3)
N6_6 N 0.81258(2) 0.37540(3) 0.65539(3)
N7_6 N 0.81258(2) 0.34461(3) 0.62460(3)
N10_6 N 0.87540(3) 0.18742(2) 0.84461(3)
N11_6 N 0.87540(3) 0.15539(3) 0.81258(2)
N18_6 N 0.84461(3) 0.18742(2) 0.87540(3)
N19_6 N 0.84461(3) 0.12460(3) 0.81258(2)
N20_6 N 0.81258(2) 0.15539(3) 0.87540(3)
N25_6 N 0.81258(2) 0.12460(3) 0.84461(3)
C98_6 C 0.85531(3) 0.32307(4) 0.64469(3)
C99_6 C 0.82307(4) 0.35531(3) 0.64469(3)
C102_6 C 0.85531(3) 0.17693(4) 0.85531(3)
C103_6 C 0.85531(3) 0.14469(3) 0.82307(4)
C108_6 C 0.82307(4) 0.14469(3) 0.85531(3)
N28_6 N 0.84478(4) 0.15522(4) 0.84478(4)
Cu17_10 Cu 0.732253(5) 1.0000 0.767747(5)
Cu18_10 Cu 0.767747(5) 1.0000 0.732253(5)
O32_6 O 0.74621(2) 0.973983(18) 0.716606(19)
O33_5 O 0.783394(19) 0.973983(18) 0.75379(2)
O35_5 O 0.75379(2) 0.973983(18) 0.783394(19)
O36_6 O 0.716606(19) 0.973983(18) 0.74621(2)
O41_12 O 0.79671(3) 1.0000 0.70329(3)
O42_12 O 0.70329(3) 1.0000 0.79671(3)
O14_6 O 0.216606(19) 0.526017(18) 0.25379(2)
O16_8 O 0.25379(2) 0.526017(18) 0.216606(19)
O17_6 O 0.24621(2) 0.526017(18) 0.283394(19)
O18_8 O 0.283394(19) 0.526017(18) 0.24621(2)
O39_8 O 0.20329(3) 0.5000 0.20329(3)
O40_8 O 0.29671(3) 0.5000 0.29671(3)
C8_7 C 0.03336(4) 0.72686(3) 0.27314(3)
C15_7 C 0.22686(3) 0.72686(3) 0.46664(4)
C16_7 C 0.22686(3) 0.53336(4) 0.27314(3)
C19_7 C 0.05451(4) 0.71250(3) 0.28750(3)
C27_7 C 0.21250(3) 0.55451(4) 0.28750(3)
C28_7 C 0.21250(3) 0.71250(3) 0.44549(4)
C31_7 C 0.06415(3) 0.69095(3) 0.27820(3)
C32_7 C 0.06415(3) 0.72180(3) 0.30905(3)
C47_7 C 0.19095(3) 0.56415(3) 0.27820(3)
C48_7 C 0.22180(3) 0.56415(3) 0.30905(3)
C49_7 C 0.22180(3) 0.69095(3) 0.43585(3)
C50_7 C 0.19095(3) 0.72180(3) 0.43585(3)
H4_7 H 0.0571 0.6841 0.2637
H5_7 H 0.0571 0.7363 0.3159
H20_7 H 0.1841 0.5571 0.2637
H21_7 H 0.2363 0.5571 0.3159
H22_7 H 0.1841 0.7363 0.4429
H23_7 H 0.2363 0.6841 0.4429
C56_7 C 0.08421(3) 0.67853(3) 0.28947(3)
C57_7 C 0.08421(3) 0.71053(3) 0.32147(3)
C68_7 C 0.21053(3) 0.58421(3) 0.32147(3)
C69_7 C 0.17853(3) 0.58421(3) 0.28947(3)
C70_7 C 0.17853(3) 0.71053(3) 0.41579(3)
C71_7 C 0.21053(3) 0.67853(3) 0.41579(3)
H29_7 H 0.0908 0.6639 0.2824
H30_7 H 0.0908 0.7176 0.3361
H43_7 H 0.1639 0.5908 0.2824
H44_7 H 0.2176 0.5908 0.3361
H45_7 H 0.2176 0.6639 0.4092
H46_7 H 0.1639 0.7176 0.4092
C78_7 C 0.09426(4) 0.68837(3) 0.31163(3)
C84_7 C 0.18837(3) 0.59426(4) 0.31163(3)
C85_7 C 0.18837(3) 0.68837(3) 0.40574(4)
C89_7 C 0.11502(4) 0.67603(3) 0.32397(3)
C93_7 C 0.17603(3) 0.61502(4) 0.32397(3)
C94_7 C 0.17603(3) 0.67603(3) 0.38498(4)
N8_7 N 0.12460(3) 0.68742(2) 0.34461(3)
N9_7 N 0.12460(3) 0.65539(3) 0.31258(2)
N14_7 N 0.15539(3) 0.62460(3) 0.31258(2)
N15_7 N 0.15539(3) 0.68742(2) 0.37540(3)
N23_7 N 0.18742(2) 0.62460(3) 0.34461(3)
N24_7 N 0.18742(2) 0.65539(3) 0.37540(3)
C100_7 C 0.14469(3) 0.67693(4) 0.35531(3)
C101_7 C 0.14469(3) 0.64469(3) 0.32307(4)
C107_7 C 0.17693(4) 0.64469(3) 0.35531(3)
N26_7 N 0.15522(4) 0.65522(4) 0.34478(4)
C1_7 C 0.96664(4) 0.72686(3) 0.27314(3)
C2_7 C 0.94549(4) 0.71250(3) 0.28750(3)
C3_7 C 0.93585(3) 0.72180(3) 0.30905(3)
H1_7 H 0.9429 0.7363 0.3159
C4_7 C 0.91579(3) 0.71053(3) 0.32147(3)
H2_7 H 0.9092 0.7176 0.3361
C5_7 C 0.90574(4) 0.68837(3) 0.31163(3)
C6_7 C 0.88498(4) 0.67603(3) 0.32397(3)
N1_7 N 0.87540(3) 0.65539(3) 0.31258(2)
C7_7 C 0.85531(3) 0.64469(3) 0.32307(4)
N2_7 N 0.84478(4) 0.65522(4) 0.34478(4)
O10_7 O 0.783394(19) 0.526017(18) 0.25379(2)
O11_7 O 0.75379(2) 0.526017(18) 0.283394(19)
O15_7 O 0.74621(2) 0.526017(18) 0.216606(19)
O16_9 O 0.74621(2) 0.473983(18) 0.216606(19)
O18_9 O 0.716606(19) 0.473983(18) 0.24621(2)
O19_7 O 0.716606(19) 0.526017(18) 0.24621(2)
O39_9 O 0.79671(3) 0.5000 0.20329(3)
O40_9 O 0.70329(3) 0.5000 0.29671(3)
C11_7 C 0.77314(3) 0.53336(4) 0.27314(3)
C12_7 C 0.77314(3) 0.72686(3) 0.46664(4)
C22_7 C 0.78750(3) 0.55451(4) 0.28750(3)
C23_7 C 0.78750(3) 0.71250(3) 0.44549(4)
C30_7 C 0.93585(3) 0.69095(3) 0.27820(3)
C37_7 C 0.80905(3) 0.56415(3) 0.27820(3)
C38_7 C 0.77820(3) 0.56415(3) 0.30905(3)
C39_7 C 0.77820(3) 0.69095(3) 0.43585(3)
C40_7 C 0.80905(3) 0.72180(3) 0.43585(3)
H3_7 H 0.9429 0.6841 0.2637
H10_7 H 0.8159 0.5571 0.2637
H11_7 H 0.7637 0.5571 0.3159
H12_7 H 0.7637 0.6841 0.4429
H13_7 H 0.8159 0.7363 0.4429
C53_7 C 0.91579(3) 0.67853(3) 0.28947(3)
C54_7 C 0.82147(3) 0.58421(3) 0.28947(3)
C55_7 C 0.78947(3) 0.58421(3) 0.32147(3)
C62_7 C 0.78947(3) 0.67853(3) 0.41579(3)
C63_7 C 0.82147(3) 0.71053(3) 0.41579(3)
H26_7 H 0.9092 0.6639 0.2824
H27_7 H 0.8361 0.5908 0.2824
H28_7 H 0.7824 0.5908 0.3361
H35_7 H 0.7824 0.6639 0.4092
H36_7 H 0.8361 0.7176 0.4092
C76_7 C 0.81163(3) 0.59426(4) 0.31163(3)
C77_7 C 0.81163(3) 0.68837(3) 0.40574(4)
C87_7 C 0.82397(3) 0.61502(4) 0.32397(3)
C88_7 C 0.82397(3) 0.67603(3) 0.38498(4)
N3_7 N 0.87540(3) 0.68742(2) 0.34461(3)
N4_7 N 0.84461(3) 0.62460(3) 0.31258(2)
N5_7 N 0.84461(3) 0.68742(2) 0.37540(3)
N6_7 N 0.81258(2) 0.62460(3) 0.34461(3)
N7_7 N 0.81258(2) 0.65539(3) 0.37540(3)
C98_7 C 0.85531(3) 0.67693(4) 0.35531(3)
C99_7 C 0.82307(4) 0.64469(3) 0.35531(3)
O14_7 O 0.526017(18) 0.25379(2) 0.216606(19)
O17_7 O 0.526017(18) 0.283394(19) 0.24621(2)
O39_10 O 0.5000 0.20329(3) 0.20329(3)
O40_10 O 0.5000 0.29671(3) 0.29671(3)
C8_8 C 0.27314(3) 0.72686(3) 0.03336(4)
C15_8 C 0.27314(3) 0.53336(4) 0.22686(3)
C16_8 C 0.46664(4) 0.72686(3) 0.22686(3)
C19_8 C 0.28750(3) 0.71250(3) 0.05451(4)
C27_8 C 0.44549(4) 0.71250(3) 0.21250(3)
C28_8 C 0.28750(3) 0.55451(4) 0.21250(3)
C31_8 C 0.30905(3) 0.72180(3) 0.06415(3)
C32_8 C 0.27820(3) 0.69095(3) 0.06415(3)
C47_8 C 0.43585(3) 0.72180(3) 0.19095(3)
C48_8 C 0.43585(3) 0.69095(3) 0.22180(3)
C49_8 C 0.30905(3) 0.56415(3) 0.22180(3)
C50_8 C 0.27820(3) 0.56415(3) 0.19095(3)
H4_8 H 0.3159 0.7363 0.0571
H5_8 H 0.2637 0.6841 0.0571
H20_8 H 0.4429 0.7363 0.1841
H21_8 H 0.4429 0.6841 0.2363
H22_8 H 0.2637 0.5571 0.1841
H23_8 H 0.3159 0.5571 0.2363
C56_8 C 0.32147(3) 0.71053(3) 0.08421(3)
C57_8 C 0.28947(3) 0.67853(3) 0.08421(3)
C68_8 C 0.41579(3) 0.67853(3) 0.21053(3)
C69_8 C 0.41579(3) 0.71053(3) 0.17853(3)
C70_8 C 0.28947(3) 0.58421(3) 0.17853(3)
C71_8 C 0.32147(3) 0.58421(3) 0.21053(3)
H29_8 H 0.3361 0.7176 0.0908
H30_8 H 0.2824 0.6639 0.0908
H43_8 H 0.4092 0.7176 0.1639
H44_8 H 0.4092 0.6639 0.2176
H45_8 H 0.3361 0.5908 0.2176
H46_8 H 0.2824 0.5908 0.1639
C78_8 C 0.31163(3) 0.68837(3) 0.09426(4)
C84_8 C 0.40574(4) 0.68837(3) 0.18837(3)
C85_8 C 0.31163(3) 0.59426(4) 0.18837(3)
C89_8 C 0.32397(3) 0.67603(3) 0.11502(4)
C93_8 C 0.38498(4) 0.67603(3) 0.17603(3)
C94_8 C 0.32397(3) 0.61502(4) 0.17603(3)
N8_8 N 0.31258(2) 0.65539(3) 0.12460(3)
N9_8 N 0.34461(3) 0.68742(2) 0.12460(3)
N14_8 N 0.37540(3) 0.68742(2) 0.15539(3)
N15_8 N 0.31258(2) 0.62460(3) 0.15539(3)
N23_8 N 0.37540(3) 0.65539(3) 0.18742(2)
N24_8 N 0.34461(3) 0.62460(3) 0.18742(2)
C100_8 C 0.32307(4) 0.64469(3) 0.14469(3)
C101_8 C 0.35531(3) 0.67693(4) 0.14469(3)
C107_8 C 0.35531(3) 0.64469(3) 0.17693(4)
N26_8 N 0.34478(4) 0.65522(4) 0.15522(4)
C1_8 C 0.27314(3) 0.72686(3) 0.96664(4)
C2_8 C 0.28750(3) 0.71250(3) 0.94549(4)
C3_8 C 0.27820(3) 0.69095(3) 0.93585(3)
H1_8 H 0.2637 0.6841 0.9429
C4_8 C 0.28947(3) 0.67853(3) 0.91579(3)
H2_8 H 0.2824 0.6639 0.9092
C5_8 C 0.31163(3) 0.68837(3) 0.90574(4)
C6_8 C 0.32397(3) 0.67603(3) 0.88498(4)
N1_8 N 0.34461(3) 0.68742(2) 0.87540(3)
C7_8 C 0.35531(3) 0.67693(4) 0.85531(3)
N2_8 N 0.34478(4) 0.65522(4) 0.84478(4)
O10_8 O 0.473983(18) 0.74621(2) 0.783394(19)
O11_8 O 0.473983(18) 0.716606(19) 0.75379(2)
O14_8 O 0.526017(18) 0.74621(2) 0.783394(19)
O16_10 O 0.526017(18) 0.783394(19) 0.74621(2)
O17_8 O 0.526017(18) 0.716606(19) 0.75379(2)
O18_10 O 0.526017(18) 0.75379(2) 0.716606(19)
O34_7 O 0.026017(18) 0.716606(19) 0.74621(2)
O37_7 O 0.026017(18) 0.74621(2) 0.716606(19)
O39_11 O 0.5000 0.79671(3) 0.79671(3)
O40_11 O 0.5000 0.70329(3) 0.70329(3)
O41_13 O -0.0000 0.70329(3) 0.79671(3)
O42_13 O -0.0000 0.79671(3) 0.70329(3)
C11_8 C 0.46664(4) 0.72686(3) 0.77314(3)
C12_8 C 0.27314(3) 0.53336(4) 0.77314(3)
C22_8 C 0.44549(4) 0.71250(3) 0.78750(3)
C23_8 C 0.28750(3) 0.55451(4) 0.78750(3)
C30_8 C 0.30905(3) 0.72180(3) 0.93585(3)
C37_8 C 0.43585(3) 0.72180(3) 0.80905(3)
C38_8 C 0.43585(3) 0.69095(3) 0.77820(3)
C39_8 C 0.30905(3) 0.56415(3) 0.77820(3)
C40_8 C 0.27820(3) 0.56415(3) 0.80905(3)
H3_8 H 0.3159 0.7363 0.9429
H10_8 H 0.4429 0.7363 0.8159
H11_8 H 0.4429 0.6841 0.7637
H12_8 H 0.3159 0.5571 0.7637
H13_8 H 0.2637 0.5571 0.8159
C53_8 C 0.32147(3) 0.71053(3) 0.91579(3)
C54_8 C 0.41579(3) 0.71053(3) 0.82147(3)
C55_8 C 0.41579(3) 0.67853(3) 0.78947(3)
C62_8 C 0.32147(3) 0.58421(3) 0.78947(3)
C63_8 C 0.28947(3) 0.58421(3) 0.82147(3)
H26_8 H 0.3361 0.7176 0.9092
H27_8 H 0.4092 0.7176 0.8361
H28_8 H 0.4092 0.6639 0.7824
H35_8 H 0.3361 0.5908 0.7824
H36_8 H 0.2824 0.5908 0.8361
C76_8 C 0.40574(4) 0.68837(3) 0.81163(3)
C77_8 C 0.31163(3) 0.59426(4) 0.81163(3)
C87_8 C 0.38498(4) 0.67603(3) 0.82397(3)
C88_8 C 0.32397(3) 0.61502(4) 0.82397(3)
N3_8 N 0.31258(2) 0.65539(3) 0.87540(3)
N4_8 N 0.37540(3) 0.68742(2) 0.84461(3)
N5_8 N 0.31258(2) 0.62460(3) 0.84461(3)
N6_8 N 0.37540(3) 0.65539(3) 0.81258(2)
N7_8 N 0.34461(3) 0.62460(3) 0.81258(2)
C98_8 C 0.32307(4) 0.64469(3) 0.85531(3)
C99_8 C 0.35531(3) 0.64469(3) 0.82307(4)
O32_7 O 0.973983(18) 0.716606(19) 0.74621(2)
O33_6 O 0.973983(18) 0.75379(2) 0.783394(19)
O35_6 O 0.973983(18) 0.783394(19) 0.75379(2)
O36_7 O 0.973983(18) 0.74621(2) 0.716606(19)
O41_14 O 1.0000 0.70329(3) 0.79671(3)
O42_14 O 1.0000 0.79671(3) 0.70329(3)
C8_9 C 0.72686(3) 0.27314(3) 0.03336(4)
C15_9 C 0.72686(3) 0.46664(4) 0.22686(3)
C16_9 C 0.53336(4) 0.27314(3) 0.22686(3)
C19_9 C 0.71250(3) 0.28750(3) 0.05451(4)
C27_9 C 0.55451(4) 0.28750(3) 0.21250(3)
C28_9 C 0.71250(3) 0.44549(4) 0.21250(3)
C31_9 C 0.69095(3) 0.27820(3) 0.06415(3)
C32_9 C 0.72180(3) 0.30905(3) 0.06415(3)
C47_9 C 0.56415(3) 0.27820(3) 0.19095(3)
C48_9 C 0.56415(3) 0.30905(3) 0.22180(3)
C49_9 C 0.69095(3) 0.43585(3) 0.22180(3)
C50_9 C 0.72180(3) 0.43585(3) 0.19095(3)
H4_9 H 0.6841 0.2637 0.0571
H5_9 H 0.7363 0.3159 0.0571
H20_9 H 0.5571 0.2637 0.1841
H21_9 H 0.5571 0.3159 0.2363
H22_9 H 0.7363 0.4429 0.1841
H23_9 H 0.6841 0.4429 0.2363
C56_9 C 0.67853(3) 0.28947(3) 0.08421(3)
C57_9 C 0.71053(3) 0.32147(3) 0.08421(3)
C68_9 C 0.58421(3) 0.32147(3) 0.21053(3)
C69_9 C 0.58421(3) 0.28947(3) 0.17853(3)
C70_9 C 0.71053(3) 0.41579(3) 0.17853(3)
C71_9 C 0.67853(3) 0.41579(3) 0.21053(3)
H29_9 H 0.6639 0.2824 0.0908
H30_9 H 0.7176 0.3361 0.0908
H43_9 H 0.5908 0.2824 0.1639
H44_9 H 0.5908 0.3361 0.2176
H45_9 H 0.6639 0.4092 0.2176
H46_9 H 0.7176 0.4092 0.1639
C78_9 C 0.68837(3) 0.31163(3) 0.09426(4)
C84_9 C 0.59426(4) 0.31163(3) 0.18837(3)
C85_9 C 0.68837(3) 0.40574(4) 0.18837(3)
C89_9 C 0.67603(3) 0.32397(3) 0.11502(4)
C93_9 C 0.61502(4) 0.32397(3) 0.17603(3)
C94_9 C 0.67603(3) 0.38498(4) 0.17603(3)
N8_9 N 0.68742(2) 0.34461(3) 0.12460(3)
N9_9 N 0.65539(3) 0.31258(2) 0.12460(3)
N14_9 N 0.62460(3) 0.31258(2) 0.15539(3)
N15_9 N 0.68742(2) 0.37540(3) 0.15539(3)
N23_9 N 0.62460(3) 0.34461(3) 0.18742(2)
N24_9 N 0.65539(3) 0.37540(3) 0.18742(2)
C100_9 C 0.67693(4) 0.35531(3) 0.14469(3)
C101_9 C 0.64469(3) 0.32307(4) 0.14469(3)
C107_9 C 0.64469(3) 0.35531(3) 0.17693(4)
N26_9 N 0.65522(4) 0.34478(4) 0.15522(4)
C1_9 C 0.72686(3) 0.27314(3) 0.96664(4)
C2_9 C 0.71250(3) 0.28750(3) 0.94549(4)
C3_9 C 0.72180(3) 0.30905(3) 0.93585(3)
H1_9 H 0.7363 0.3159 0.9429
C4_9 C 0.71053(3) 0.32147(3) 0.91579(3)
H2_9 H 0.7176 0.3361 0.9092
C5_9 C 0.68837(3) 0.31163(3) 0.90574(4)
C6_9 C 0.67603(3) 0.32397(3) 0.88498(4)
N1_9 N 0.65539(3) 0.31258(2) 0.87540(3)
C7_9 C 0.64469(3) 0.32307(4) 0.85531(3)
N2_9 N 0.65522(4) 0.34478(4) 0.84478(4)
O10_9 O 0.526017(18) 0.25379(2) 0.783394(19)
O11_9 O 0.526017(18) 0.283394(19) 0.75379(2)
O15_8 O 0.526017(18) 0.216606(19) 0.74621(2)
O19_8 O 0.526017(18) 0.24621(2) 0.716606(19)
O39_12 O 0.5000 0.20329(3) 0.79671(3)
O40_12 O 0.5000 0.29671(3) 0.70329(3)
C11_9 C 0.53336(4) 0.27314(3) 0.77314(3)
C12_9 C 0.72686(3) 0.46664(4) 0.77314(3)
C22_9 C 0.55451(4) 0.28750(3) 0.78750(3)
C23_9 C 0.71250(3) 0.44549(4) 0.78750(3)
C30_9 C 0.69095(3) 0.27820(3) 0.93585(3)
C37_9 C 0.56415(3) 0.27820(3) 0.80905(3)
C38_9 C 0.56415(3) 0.30905(3) 0.77820(3)
C39_9 C 0.69095(3) 0.43585(3) 0.77820(3)
C40_9 C 0.72180(3) 0.43585(3) 0.80905(3)
H3_9 H 0.6841 0.2637 0.9429
H10_9 H 0.5571 0.2637 0.8159
H11_9 H 0.5571 0.3159 0.7637
H12_9 H 0.6841 0.4429 0.7637
H13_9 H 0.7363 0.4429 0.8159
C53_9 C 0.67853(3) 0.28947(3) 0.91579(3)
C54_9 C 0.58421(3) 0.28947(3) 0.82147(3)
C55_9 C 0.58421(3) 0.32147(3) 0.78947(3)
C62_9 C 0.67853(3) 0.41579(3) 0.78947(3)
C63_9 C 0.71053(3) 0.41579(3) 0.82147(3)
H26_9 H 0.6639 0.2824 0.9092
H27_9 H 0.5908 0.2824 0.8361
H28_9 H 0.5908 0.3361 0.7824
H35_9 H 0.6639 0.4092 0.7824
H36_9 H 0.7176 0.4092 0.8361
C76_9 C 0.59426(4) 0.31163(3) 0.81163(3)
C77_9 C 0.68837(3) 0.40574(4) 0.81163(3)
C87_9 C 0.61502(4) 0.32397(3) 0.82397(3)
C88_9 C 0.67603(3) 0.38498(4) 0.82397(3)
N3_9 N 0.68742(2) 0.34461(3) 0.87540(3)
N4_9 N 0.62460(3) 0.31258(2) 0.84461(3)
N5_9 N 0.68742(2) 0.37540(3) 0.84461(3)
N6_9 N 0.62460(3) 0.34461(3) 0.81258(2)
N7_9 N 0.65539(3) 0.37540(3) 0.81258(2)
C98_9 C 0.67693(4) 0.35531(3) 0.85531(3)
C99_9 C 0.64469(3) 0.35531(3) 0.82307(4)
C10_2 C 0.03336(4) 0.72686(3) 0.72686(3)
C13_2 C 0.22686(3) 0.72686(3) 0.53336(4)
C14_2 C 0.22686(3) 0.53336(4) 0.72686(3)
C21_2 C 0.05451(4) 0.71250(3) 0.71250(3)
C25_2 C 0.21250(3) 0.55451(4) 0.71250(3)
C26_2 C 0.21250(3) 0.71250(3) 0.55451(4)
C35_2 C 0.06415(3) 0.69095(3) 0.72180(3)
C36_2 C 0.06415(3) 0.72180(3) 0.69095(3)
C43_2 C 0.22180(3) 0.56415(3) 0.69095(3)
C44_2 C 0.19095(3) 0.56415(3) 0.72180(3)
C45_2 C 0.22180(3) 0.69095(3) 0.56415(3)
C46_2 C 0.19095(3) 0.72180(3) 0.56415(3)
H8_2 H 0.0571 0.6841 0.7363
H9_2 H 0.0571 0.7363 0.6841
H16_2 H 0.2363 0.5571 0.6841
H17_2 H 0.1841 0.5571 0.7363
H18_2 H 0.2363 0.6841 0.5571
H19_2 H 0.1841 0.7363 0.5571
C60_2 C 0.08421(3) 0.67853(3) 0.71053(3)
C61_2 C 0.08421(3) 0.71053(3) 0.67853(3)
C64_2 C 0.21053(3) 0.58421(3) 0.67853(3)
C65_2 C 0.17853(3) 0.58421(3) 0.71053(3)
C66_2 C 0.17853(3) 0.71053(3) 0.58421(3)
C67_2 C 0.21053(3) 0.67853(3) 0.58421(3)
H33_2 H 0.0908 0.6639 0.7176
H34_2 H 0.0908 0.7176 0.6639
H39_2 H 0.2176 0.5908 0.6639
H40_2 H 0.1639 0.5908 0.7176
H41_2 H 0.2176 0.6639 0.5908
H42_2 H 0.1639 0.7176 0.5908
C80_2 C 0.09426(4) 0.68837(3) 0.68837(3)
C82_2 C 0.18837(3) 0.59426(4) 0.68837(3)
C83_2 C 0.18837(3) 0.68837(3) 0.59426(4)
C91_2 C 0.11502(4) 0.67603(3) 0.67603(3)
C95_2 C 0.17603(3) 0.61502(4) 0.67603(3)
C96_2 C 0.17603(3) 0.67603(3) 0.61502(4)
N12_2 N 0.12460(3) 0.68742(2) 0.65539(3)
N13_2 N 0.12460(3) 0.65539(3) 0.68742(2)
N16_2 N 0.15539(3) 0.62460(3) 0.68742(2)
N17_2 N 0.15539(3) 0.68742(2) 0.62460(3)
N21_2 N 0.18742(2) 0.62460(3) 0.65539(3)
N22_2 N 0.18742(2) 0.65539(3) 0.62460(3)
C104_2 C 0.14469(3) 0.67693(4) 0.64469(3)
C105_2 C 0.14469(3) 0.64469(3) 0.67693(4)
C106_2 C 0.17693(4) 0.64469(3) 0.64469(3)
N27_2 N 0.15522(4) 0.65522(4) 0.65522(4)
C1_10 C 0.96664(4) 0.77314(3) 0.77314(3)
C2_10 C 0.94549(4) 0.78750(3) 0.78750(3)
C3_10 C 0.93585(3) 0.80905(3) 0.77820(3)
H1_10 H 0.9429 0.8159 0.7637
C4_10 C 0.91579(3) 0.82147(3) 0.78947(3)
H2_10 H 0.9092 0.8361 0.7824
C5_10 C 0.90574(4) 0.81163(3) 0.81163(3)
C6_10 C 0.88498(4) 0.82397(3) 0.82397(3)
N1_10 N 0.87540(3) 0.81258(2) 0.84461(3)
C7_10 C 0.85531(3) 0.82307(4) 0.85531(3)
N2_10 N 0.84478(4) 0.84478(4) 0.84478(4)
C9_7 C 0.96664(4) 0.72686(3) 0.72686(3)
C11_10 C 0.77314(3) 0.77314(3) 0.96664(4)
C12_10 C 0.77314(3) 0.96664(4) 0.77314(3)
C17_7 C 0.77314(3) 0.53336(4) 0.72686(3)
C18_7 C 0.77314(3) 0.72686(3) 0.53336(4)
C20_7 C 0.94549(4) 0.71250(3) 0.71250(3)
C22_10 C 0.78750(3) 0.78750(3) 0.94549(4)
C23_10 C 0.78750(3) 0.94549(4) 0.78750(3)
C24_7 C 0.78750(3) 0.55451(4) 0.71250(3)
C29_7 C 0.78750(3) 0.71250(3) 0.55451(4)
C30_10 C 0.93585(3) 0.77820(3) 0.80905(3)
C33_7 C 0.93585(3) 0.72180(3) 0.69095(3)
C34_7 C 0.93585(3) 0.69095(3) 0.72180(3)
C37_10 C 0.80905(3) 0.77820(3) 0.93585(3)
C38_10 C 0.77820(3) 0.80905(3) 0.93585(3)
C39_10 C 0.77820(3) 0.93585(3) 0.80905(3)
C40_10 C 0.80905(3) 0.93585(3) 0.77820(3)
C41_7 C 0.77820(3) 0.56415(3) 0.69095(3)
C42_7 C 0.80905(3) 0.56415(3) 0.72180(3)
C51_7 C 0.77820(3) 0.69095(3) 0.56415(3)
C52_7 C 0.80905(3) 0.72180(3) 0.56415(3)
H3_10 H 0.9429 0.7637 0.8159
H6_7 H 0.9429 0.7363 0.6841
H7_7 H 0.9429 0.6841 0.7363
H10_10 H 0.8159 0.7637 0.9429
H11_10 H 0.7637 0.8159 0.9429
H12_10 H 0.7637 0.9429 0.8159
H13_10 H 0.8159 0.9429 0.7637
H14_7 H 0.7637 0.5571 0.6841
H15_7 H 0.8159 0.5571 0.7363
H24_7 H 0.7637 0.6841 0.5571
H25_7 H 0.8159 0.7363 0.5571
C53_10 C 0.91579(3) 0.78947(3) 0.82147(3)
C54_10 C 0.82147(3) 0.78947(3) 0.91579(3)
C55_10 C 0.78947(3) 0.82147(3) 0.91579(3)
C58_7 C 0.91579(3) 0.71053(3) 0.67853(3)
C59_7 C 0.91579(3) 0.67853(3) 0.71053(3)
C62_10 C 0.78947(3) 0.91579(3) 0.82147(3)
C63_10 C 0.82147(3) 0.91579(3) 0.78947(3)
C72_7 C 0.82147(3) 0.58421(3) 0.71053(3)
C73_7 C 0.78947(3) 0.58421(3) 0.67853(3)
C74_7 C 0.78947(3) 0.67853(3) 0.58421(3)
C75_7 C 0.82147(3) 0.71053(3) 0.58421(3)
H26_10 H 0.9092 0.7824 0.8361
H27_10 H 0.8361 0.7824 0.9092
H28_10 H 0.7824 0.8361 0.9092
H31_7 H 0.9092 0.7176 0.6639
H32_7 H 0.9092 0.6639 0.7176
H35_10 H 0.7824 0.9092 0.8361
H36_10 H 0.8361 0.9092 0.7824
H37_7 H 0.7824 0.5908 0.6639
H38_7 H 0.8361 0.5908 0.7176
H47_7 H 0.7824 0.6639 0.5908
H48_7 H 0.8361 0.7176 0.5908
C76_10 C 0.81163(3) 0.81163(3) 0.90574(4)
C77_10 C 0.81163(3) 0.90574(4) 0.81163(3)
C79_7 C 0.90574(4) 0.68837(3) 0.68837(3)
C81_7 C 0.81163(3) 0.59426(4) 0.68837(3)
C86_7 C 0.81163(3) 0.68837(3) 0.59426(4)
C87_10 C 0.82397(3) 0.82397(3) 0.88498(4)
C88_10 C 0.82397(3) 0.88498(4) 0.82397(3)
C90_7 C 0.88498(4) 0.67603(3) 0.67603(3)
C92_7 C 0.82397(3) 0.61502(4) 0.67603(3)
C97_7 C 0.82397(3) 0.67603(3) 0.61502(4)
N3_10 N 0.87540(3) 0.84461(3) 0.81258(2)
N4_10 N 0.84461(3) 0.81258(2) 0.87540(3)
N5_10 N 0.84461(3) 0.87540(3) 0.81258(2)
N6_10 N 0.81258(2) 0.84461(3) 0.87540(3)
N7_10 N 0.81258(2) 0.87540(3) 0.84461(3)
N10_7 N 0.87540(3) 0.65539(3) 0.68742(2)
N11_7 N 0.87540(3) 0.68742(2) 0.65539(3)
N18_7 N 0.84461(3) 0.62460(3) 0.68742(2)
N19_7 N 0.84461(3) 0.68742(2) 0.62460(3)
N20_7 N 0.81258(2) 0.62460(3) 0.65539(3)
N25_7 N 0.81258(2) 0.65539(3) 0.62460(3)
C98_10 C 0.85531(3) 0.85531(3) 0.82307(4)
C99_10 C 0.82307(4) 0.85531(3) 0.85531(3)
C102_7 C 0.85531(3) 0.64469(3) 0.67693(4)
C103_7 C 0.85531(3) 0.67693(4) 0.64469(3)
C108_7 C 0.82307(4) 0.64469(3) 0.64469(3)
N28_7 N 0.84478(4) 0.65522(4) 0.65522(4)
C8_10 C 0.72686(3) 0.53336(4) 0.77314(3)
C15_10 C 0.53336(4) 0.72686(3) 0.77314(3)
C16_10 C 0.72686(3) 0.72686(3) 0.96664(4)
C19_10 C 0.71250(3) 0.55451(4) 0.78750(3)
C27_10 C 0.71250(3) 0.71250(3) 0.94549(4)
C28_10 C 0.55451(4) 0.71250(3) 0.78750(3)
C31_10 C 0.72180(3) 0.56415(3) 0.80905(3)
C32_10 C 0.69095(3) 0.56415(3) 0.77820(3)
C47_10 C 0.72180(3) 0.69095(3) 0.93585(3)
C48_10 C 0.69095(3) 0.72180(3) 0.93585(3)
C49_10 C 0.56415(3) 0.72180(3) 0.80905(3)
C50_10 C 0.56415(3) 0.69095(3) 0.77820(3)
H4_10 H 0.7363 0.5571 0.8159
H5_10 H 0.6841 0.5571 0.7637
H20_10 H 0.7363 0.6841 0.9429
H21_10 H 0.6841 0.7363 0.9429
H22_10 H 0.5571 0.6841 0.7637
H23_10 H 0.5571 0.7363 0.8159
C56_10 C 0.71053(3) 0.58421(3) 0.82147(3)
C57_10 C 0.67853(3) 0.58421(3) 0.78947(3)
C68_10 C 0.67853(3) 0.71053(3) 0.91579(3)
C69_10 C 0.71053(3) 0.67853(3) 0.91579(3)
C70_10 C 0.58421(3) 0.67853(3) 0.78947(3)
C71_10 C 0.58421(3) 0.71053(3) 0.82147(3)
H29_10 H 0.7176 0.5908 0.8361
H30_10 H 0.6639 0.5908 0.7824
H43_10 H 0.7176 0.6639 0.9092
H44_10 H 0.6639 0.7176 0.9092
H45_10 H 0.5908 0.7176 0.8361
H46_10 H 0.5908 0.6639 0.7824
C78_10 C 0.68837(3) 0.59426(4) 0.81163(3)
C84_10 C 0.68837(3) 0.68837(3) 0.90574(4)
C85_10 C 0.59426(4) 0.68837(3) 0.81163(3)
C89_10 C 0.67603(3) 0.61502(4) 0.82397(3)
C93_10 C 0.67603(3) 0.67603(3) 0.88498(4)
C94_10 C 0.61502(4) 0.67603(3) 0.82397(3)
N8_10 N 0.65539(3) 0.62460(3) 0.81258(2)
N9_10 N 0.68742(2) 0.62460(3) 0.84461(3)
N14_10 N 0.68742(2) 0.65539(3) 0.87540(3)
N15_10 N 0.62460(3) 0.65539(3) 0.81258(2)
N23_10 N 0.65539(3) 0.68742(2) 0.87540(3)
N24_10 N 0.62460(3) 0.68742(2) 0.84461(3)
C100_10 C 0.64469(3) 0.64469(3) 0.82307(4)
C101_10 C 0.67693(4) 0.64469(3) 0.85531(3)
C107_10 C 0.64469(3) 0.67693(4) 0.85531(3)
N26_10 N 0.65522(4) 0.65522(4) 0.84478(4)
C8_11 C 0.72686(3) 0.77314(3) 0.53336(4)
C15_11 C 0.72686(3) 0.96664(4) 0.72686(3)
C16_11 C 0.53336(4) 0.77314(3) 0.72686(3)
C19_11 C 0.71250(3) 0.78750(3) 0.55451(4)
C27_11 C 0.55451(4) 0.78750(3) 0.71250(3)
C28_11 C 0.71250(3) 0.94549(4) 0.71250(3)
C31_11 C 0.69095(3) 0.77820(3) 0.56415(3)
C32_11 C 0.72180(3) 0.80905(3) 0.56415(3)
C47_11 C 0.56415(3) 0.77820(3) 0.69095(3)
C48_11 C 0.56415(3) 0.80905(3) 0.72180(3)
C49_11 C 0.69095(3) 0.93585(3) 0.72180(3)
C50_11 C 0.72180(3) 0.93585(3) 0.69095(3)
H4_11 H 0.6841 0.7637 0.5571
H5_11 H 0.7363 0.8159 0.5571
H20_11 H 0.5571 0.7637 0.6841
H21_11 H 0.5571 0.8159 0.7363
H22_11 H 0.7363 0.9429 0.6841
H23_11 H 0.6841 0.9429 0.7363
C56_11 C 0.67853(3) 0.78947(3) 0.58421(3)
C57_11 C 0.71053(3) 0.82147(3) 0.58421(3)
C68_11 C 0.58421(3) 0.82147(3) 0.71053(3)
C69_11 C 0.58421(3) 0.78947(3) 0.67853(3)
C70_11 C 0.71053(3) 0.91579(3) 0.67853(3)
C71_11 C 0.67853(3) 0.91579(3) 0.71053(3)
H29_11 H 0.6639 0.7824 0.5908
H30_11 H 0.7176 0.8361 0.5908
H43_11 H 0.5908 0.7824 0.6639
H44_11 H 0.5908 0.8361 0.7176
H45_11 H 0.6639 0.9092 0.7176
H46_11 H 0.7176 0.9092 0.6639
C78_11 C 0.68837(3) 0.81163(3) 0.59426(4)
C84_11 C 0.59426(4) 0.81163(3) 0.68837(3)
C85_11 C 0.68837(3) 0.90574(4) 0.68837(3)
C89_11 C 0.67603(3) 0.82397(3) 0.61502(4)
C93_11 C 0.61502(4) 0.82397(3) 0.67603(3)
C94_11 C 0.67603(3) 0.88498(4) 0.67603(3)
N8_11 N 0.68742(2) 0.84461(3) 0.62460(3)
N9_11 N 0.65539(3) 0.81258(2) 0.62460(3)
N14_11 N 0.62460(3) 0.81258(2) 0.65539(3)
N15_11 N 0.68742(2) 0.87540(3) 0.65539(3)
N23_11 N 0.62460(3) 0.84461(3) 0.68742(2)
N24_11 N 0.65539(3) 0.87540(3) 0.68742(2)
C100_11 C 0.67693(4) 0.85531(3) 0.64469(3)
C101_11 C 0.64469(3) 0.82307(4) 0.64469(3)
C107_11 C 0.64469(3) 0.85531(3) 0.67693(4)
N26_11 N 0.65522(4) 0.84478(4) 0.65522(4)
C10_3 C 0.53336(4) 0.22686(3) 0.72686(3)
C13_3 C 0.72686(3) 0.22686(3) 0.53336(4)
C14_3 C 0.72686(3) 0.03336(4) 0.72686(3)
C21_3 C 0.55451(4) 0.21250(3) 0.71250(3)
C25_3 C 0.71250(3) 0.05451(4) 0.71250(3)
C26_3 C 0.71250(3) 0.21250(3) 0.55451(4)
C35_3 C 0.56415(3) 0.19095(3) 0.72180(3)
C36_3 C 0.56415(3) 0.22180(3) 0.69095(3)
C43_3 C 0.72180(3) 0.06415(3) 0.69095(3)
C44_3 C 0.69095(3) 0.06415(3) 0.72180(3)
C45_3 C 0.72180(3) 0.19095(3) 0.56415(3)
C46_3 C 0.69095(3) 0.22180(3) 0.56415(3)
H8_3 H 0.5571 0.1841 0.7363
H9_3 H 0.5571 0.2363 0.6841
H16_3 H 0.7363 0.0571 0.6841
H17_3 H 0.6841 0.0571 0.7363
H18_3 H 0.7363 0.1841 0.5571
H19_3 H 0.6841 0.2363 0.5571
C60_3 C 0.58421(3) 0.17853(3) 0.71053(3)
C61_3 C 0.58421(3) 0.21053(3) 0.67853(3)
C64_3 C 0.71053(3) 0.08421(3) 0.67853(3)
C65_3 C 0.67853(3) 0.08421(3) 0.71053(3)
C66_3 C 0.67853(3) 0.21053(3) 0.58421(3)
C67_3 C 0.71053(3) 0.17853(3) 0.58421(3)
H33_3 H 0.5908 0.1639 0.7176
H34_3 H 0.5908 0.2176 0.6639
H39_3 H 0.7176 0.0908 0.6639
H40_3 H 0.6639 0.0908 0.7176
H41_3 H 0.7176 0.1639 0.5908
H42_3 H 0.6639 0.2176 0.5908
C80_3 C 0.59426(4) 0.18837(3) 0.68837(3)
C82_3 C 0.68837(3) 0.09426(4) 0.68837(3)
C83_3 C 0.68837(3) 0.18837(3) 0.59426(4)
C91_3 C 0.61502(4) 0.17603(3) 0.67603(3)
C95_3 C 0.67603(3) 0.11502(4) 0.67603(3)
C96_3 C 0.67603(3) 0.17603(3) 0.61502(4)
N12_3 N 0.62460(3) 0.18742(2) 0.65539(3)
N13_3 N 0.62460(3) 0.15539(3) 0.68742(2)
N16_3 N 0.65539(3) 0.12460(3) 0.68742(2)
N17_3 N 0.65539(3) 0.18742(2) 0.62460(3)
N21_3 N 0.68742(2) 0.12460(3) 0.65539(3)
N22_3 N 0.68742(2) 0.15539(3) 0.62460(3)
C104_3 C 0.64469(3) 0.17693(4) 0.64469(3)
C105_3 C 0.64469(3) 0.14469(3) 0.67693(4)
C106_3 C 0.67693(4) 0.14469(3) 0.64469(3)
N27_3 N 0.65522(4) 0.15522(4) 0.65522(4)
C10_4 C 0.53336(4) 0.72686(3) 0.22686(3)
C13_4 C 0.72686(3) 0.72686(3) 0.03336(4)
C14_4 C 0.72686(3) 0.53336(4) 0.22686(3)
C21_4 C 0.55451(4) 0.71250(3) 0.21250(3)
C25_4 C 0.71250(3) 0.55451(4) 0.21250(3)
C26_4 C 0.71250(3) 0.71250(3) 0.05451(4)
C35_4 C 0.56415(3) 0.69095(3) 0.22180(3)
C36_4 C 0.56415(3) 0.72180(3) 0.19095(3)
C43_4 C 0.72180(3) 0.56415(3) 0.19095(3)
C44_4 C 0.69095(3) 0.56415(3) 0.22180(3)
C45_4 C 0.72180(3) 0.69095(3) 0.06415(3)
C46_4 C 0.69095(3) 0.72180(3) 0.06415(3)
H8_4 H 0.5571 0.6841 0.2363
H9_4 H 0.5571 0.7363 0.1841
H16_4 H 0.7363 0.5571 0.1841
H17_4 H 0.6841 0.5571 0.2363
H18_4 H 0.7363 0.6841 0.0571
H19_4 H 0.6841 0.7363 0.0571
C60_4 C 0.58421(3) 0.67853(3) 0.21053(3)
C61_4 C 0.58421(3) 0.71053(3) 0.17853(3)
C64_4 C 0.71053(3) 0.58421(3) 0.17853(3)
C65_4 C 0.67853(3) 0.58421(3) 0.21053(3)
C66_4 C 0.67853(3) 0.71053(3) 0.08421(3)
C67_4 C 0.71053(3) 0.67853(3) 0.08421(3)
H33_4 H 0.5908 0.6639 0.2176
H34_4 H 0.5908 0.7176 0.1639
H39_4 H 0.7176 0.5908 0.1639
H40_4 H 0.6639 0.5908 0.2176
H41_4 H 0.7176 0.6639 0.0908
H42_4 H 0.6639 0.7176 0.0908
C80_4 C 0.59426(4) 0.68837(3) 0.18837(3)
C82_4 C 0.68837(3) 0.59426(4) 0.18837(3)
C83_4 C 0.68837(3) 0.68837(3) 0.09426(4)
C91_4 C 0.61502(4) 0.67603(3) 0.17603(3)
C95_4 C 0.67603(3) 0.61502(4) 0.17603(3)
C96_4 C 0.67603(3) 0.67603(3) 0.11502(4)
N12_4 N 0.62460(3) 0.68742(2) 0.15539(3)
N13_4 N 0.62460(3) 0.65539(3) 0.18742(2)
N16_4 N 0.65539(3) 0.62460(3) 0.18742(2)
N17_4 N 0.65539(3) 0.68742(2) 0.12460(3)
N21_4 N 0.68742(2) 0.62460(3) 0.15539(3)
N22_4 N 0.68742(2) 0.65539(3) 0.12460(3)
C104_4 C 0.64469(3) 0.67693(4) 0.14469(3)
C105_4 C 0.64469(3) 0.64469(3) 0.17693(4)
C106_4 C 0.67693(4) 0.64469(3) 0.14469(3)
N27_4 N 0.65522(4) 0.65522(4) 0.15522(4)
loop_
_geom_bond_atom_site_label_1
_geom_bond_atom_site_label_2
_geom_bond_site_symmetry_1
_geom_bond_site_symmetry_2
O2 Cu1 1_555 1_555
Cu2 Cu1 1_555 1_555
Cu9 Cu14 1_555 1_555
Cu10 Cu11 1_555 1_555
Cu11 O25 1_555 1_555
Cu12 Cu13 1_555 1_555
Cu13 O22 1_555 1_555
Cu14 O26 1_555 1_555
Cu15 Cu16 1_555 1_555
Cu16 O31 1_555 1_555
O3 Cu1 1_555 1_555
O5 Cu1 1_555 1_555
O7 Cu2 1_555 1_555
O8 Cu2 1_555 1_555
O22 C13 1_555 1_555
O23 Cu12 1_555 1_555
O24 Cu10 1_555 1_555
O25 C14 1_555 1_555
O26 C16 1_555 1_555
O27 Cu9 1_555 1_555
O30 Cu15 1_555 1_555
O31 C15 1_555 1_555
O38 Cu2 1_555 1_555
C8 O3 1_555 1_555
C10 O5 1_555 1_555
C13 O23 1_555 1_555
C14 O24 1_555 1_555
C15 O30 1_555 1_555
C16 O27 1_555 1_555
C19 C8 1_555 1_555
C21 C10 1_555 1_555
C25 C14 1_555 1_555
C26 C13 1_555 1_555
C27 C16 1_555 1_555
C28 C15 1_555 1_555
C31 C19 1_555 1_555
C32 C19 1_555 1_555
C35 C21 1_555 1_555
C36 C21 1_555 1_555
C43 C25 1_555 1_555
C44 C25 1_555 1_555
C45 C26 1_555 1_555
C46 C26 1_555 1_555
C47 C27 1_555 1_555
C48 C27 1_555 1_555
C49 C28 1_555 1_555
C50 C28 1_555 1_555
H4 C31 1_555 1_555
H5 C32 1_555 1_555
H8 C35 1_555 1_555
H9 C36 1_555 1_555
H16 C43 1_555 1_555
H17 C44 1_555 1_555
H18 C45 1_555 1_555
H19 C46 1_555 1_555
H20 C47 1_555 1_555
H21 C48 1_555 1_555
H22 C50 1_555 1_555
H23 C49 1_555 1_555
C56 C31 1_555 1_555
C57 C32 1_555 1_555
C60 C35 1_555 1_555
C61 C36 1_555 1_555
C64 C43 1_555 1_555
C65 C44 1_555 1_555
C66 C46 1_555 1_555
C67 C45 1_555 1_555
C68 C48 1_555 1_555
C69 C47 1_555 1_555
C70 C50 1_555 1_555
C71 C49 1_555 1_555
H29 C56 1_555 1_555
H30 C57 1_555 1_555
H33 C60 1_555 1_555
H34 C61 1_555 1_555
H39 C64 1_555 1_555
H40 C65 1_555 1_555
H41 C67 1_555 1_555
H42 C66 1_555 1_555
H43 C69 1_555 1_555
H44 C68 1_555 1_555
H45 C71 1_555 1_555
H46 C70 1_555 1_555
C78 C56 1_555 1_555
C80 C60 1_555 1_555
C82 C64 1_555 1_555
C83 C66 1_555 1_555
C84 C68 1_555 1_555
C85 C70 1_555 1_555
C89 C78 1_555 1_555
C91 C80 1_555 1_555
C93 C84 1_555 1_555
C94 C85 1_555 1_555
C95 C82 1_555 1_555
C96 C83 1_555 1_555
N8 C89 1_555 1_555
N9 C89 1_555 1_555
N12 C91 1_555 1_555
N13 C91 1_555 1_555
N14 C93 1_555 1_555
N15 C94 1_555 1_555
N16 C95 1_555 1_555
N17 C96 1_555 1_555
N21 C95 1_555 1_555
N22 C96 1_555 1_555
N23 C93 1_555 1_555
N24 C94 1_555 1_555
C100 N8 1_555 1_555
C101 N9 1_555 1_555
C104 N12 1_555 1_555
C105 N13 1_555 1_555
C106 N21 1_555 1_555
C107 N23 1_555 1_555
N26 C100 1_555 1_555
N27 C104 1_555 1_555
O7 C8 1_555 1_555
O8 C10 1_555 1_555
C57 C78 1_555 1_555
C61 C80 1_555 1_555
C65 C82 1_555 1_555
C67 C83 1_555 1_555
C69 C84 1_555 1_555
C71 C85 1_555 1_555
N14 C101 1_555 1_555
N15 C100 1_555 1_555
N16 C105 1_555 1_555
N17 C104 1_555 1_555
N22 C106 1_555 1_555
N24 C107 1_555 1_555
C101 N26 1_555 1_555
C105 N27 1_555 1_555
C106 N27 1_555 1_555
C107 N26 1_555 1_555
Cu12_2 Cu13_2 1_555 1_555
Cu10_2 Cu11_2 1_555 1_555
Cu1_2 O1 1_555 1_555
O1 C1 1_555 1_555
O2_2 Cu1_2 1_555 1_555
C1 C2 1_555 1_555
C2 C3 1_555 1_555
C3 H1 1_555 1_555
C4 C3 1_555 1_555
H2 C4 1_555 1_555
C5 C4 1_555 1_555
C6 C5 1_555 1_555
N1 C6 1_555 1_555
C7 N1 1_555 1_555
N2 C7 1_555 1_555
Cu2_2 Cu1_2 1_555 1_555
Cu3 Cu4 1_555 1_555
Cu4 O11 1_555 1_555
Cu5 Cu6 1_555 1_555
Cu6 O13 1_555 1_555
Cu7 Cu8 1_555 1_555
Cu8 O20 1_555 1_555
Cu17 Cu18 1_555 1_555
Cu18 O29 1_555 1_555
O4 Cu1_2 1_555 1_555
O6 C1 1_555 1_555
O9 Cu2_2 1_555 1_555
O10 Cu3 1_555 1_555
O11 C11 1_555 1_555
O12 Cu5 1_555 1_555
O13 C12 1_555 1_555
O14 Cu3 1_555 1_555
O15 Cu3 1_555 1_555
O16 Cu3 1_555 1_555
O17 Cu4 1_555 1_555
O18 Cu4 1_555 1_555
O19 Cu4 1_555 1_555
O20 C17 1_555 1_555
O21 Cu7 1_555 1_555
O28 Cu17 1_555 1_555
O29 C18 1_555 1_555
O34 Cu18 1_555 1_555
O37 Cu17 1_555 1_555
O38_2 Cu2_2 1_555 1_555
O39 Cu3 1_555 1_555
O40 Cu4 1_555 1_555
O41 Cu18 1_555 1_555
O42 Cu17 1_555 1_555
C9 O4 1_555 1_555
C11 O10 1_555 1_555
C12 O12 1_555 1_555
C17 O21 1_555 1_555
C18 O28 1_555 1_555
C20 C9 1_555 1_555
C22 C11 1_555 1_555
C23 C12 1_555 1_555
C24 C17 1_555 1_555
C29 C18 1_555 1_555
C30 C2 1_555 1_555
C33 C20 1_555 1_555
C34 C20 1_555 1_555
C37 C22 1_555 1_555
C38 C22 1_555 1_555
C39 C23 1_555 1_555
C40 C23 1_555 1_555
C41 C24 1_555 1_555
C42 C24 1_555 1_555
C51 C29 1_555 1_555
C52 C29 1_555 1_555
H3 C30 1_555 1_555
H6 C33 1_555 1_555
H7 C34 1_555 1_555
H10 C37 1_555 1_555
H11 C38 1_555 1_555
H12 C39 1_555 1_555
H13 C40 1_555 1_555
H14 C41 1_555 1_555
H15 C42 1_555 1_555
H24 C51 1_555 1_555
H25 C52 1_555 1_555
C53 C5 1_555 1_555
C54 C37 1_555 1_555
C55 C38 1_555 1_555
C58 C33 1_555 1_555
C59 C34 1_555 1_555
C62 C39 1_555 1_555
C63 C40 1_555 1_555
C72 C42 1_555 1_555
C73 C41 1_555 1_555
C74 C51 1_555 1_555
C75 C52 1_555 1_555
H26 C53 1_555 1_555
H27 C54 1_555 1_555
H28 C55 1_555 1_555
H31 C58 1_555 1_555
H32 C59 1_555 1_555
H35 C62 1_555 1_555
H36 C63 1_555 1_555
H37 C73 1_555 1_555
H38 C72 1_555 1_555
H47 C74 1_555 1_555
H48 C75 1_555 1_555
C76 C54 1_555 1_555
C77 C62 1_555 1_555
C79 C58 1_555 1_555
C81 C72 1_555 1_555
C86 C74 1_555 1_555
C87 C76 1_555 1_555
C88 C77 1_555 1_555
C90 C79 1_555 1_555
C92 C81 1_555 1_555
C97 C86 1_555 1_555
N3 C6 1_555 1_555
N4 C7 1_555 1_555
N5 C88 1_555 1_555
N6 C87 1_555 1_555
N7 C88 1_555 1_555
N10 C90 1_555 1_555
N11 C90 1_555 1_555
N18 C92 1_555 1_555
N19 C97 1_555 1_555
N20 C92 1_555 1_555
N25 C97 1_555 1_555
C98 N2 1_555 1_555
C99 N2 1_555 1_555
C102 N10 1_555 1_555
C103 N11 1_555 1_555
C108 N20 1_555 1_555
N28 C102 1_555 1_555
Cu2_2 O6 1_555 1_555
O9 C9 1_555 1_555
C30 C53 1_555 1_555
C55 C76 1_555 1_555
C59 C79 1_555 1_555
C63 C77 1_555 1_555
C73 C81 1_555 1_555
C75 C86 1_555 1_555
C87 N4 1_555 1_555
N3 C98 1_555 1_555
N5 C98 1_555 1_555
N6 C99 1_555 1_555
N7 C99 1_555 1_555
N18 C102 1_555 1_555
N19 C103 1_555 1_555
N25 C108 1_555 1_555
C103 N28 1_555 1_555
C108 N28 1_555 1_555
Cu17_2 Cu18_2 1_555 1_555
O32 Cu18_2 1_555 1_555
O33 Cu18_2 1_555 1_555
O35 Cu17_2 1_555 1_555
O36 Cu17_2 1_555 1_555
O41_2 Cu18_2 1_555 1_555
O42_2 Cu17_2 1_555 1_555
Cu7_2 Cu8_2 1_555 1_555
O2_3 Cu11 1_555 1_555
Cu9_2 Cu14_2 1_555 1_555
Cu14_2 O26_2 1_555 1_555
Cu14 O31_2 1_555 1_555
O3_2 Cu11 1_555 1_555
O7_2 Cu10 1_555 1_555
O26_2 C16_2 1_555 1_555
O27_2 Cu9_2 1_555 1_555
O30_2 Cu9 1_555 1_555
O31_2 C15_2 1_555 1_555
O38_3 Cu10 1_555 1_555
C8_2 O3_2 1_555 1_555
C15_2 O30_2 1_555 1_555
C16_2 O27_2 1_555 1_555
C19_2 C8_2 1_555 1_555
C27_2 C16_2 1_555 1_555
C28_2 C15_2 1_555 1_555
C31_2 C19_2 1_555 1_555
C32_2 C19_2 1_555 1_555
C47_2 C27_2 1_555 1_555
C48_2 C27_2 1_555 1_555
C49_2 C28_2 1_555 1_555
C50_2 C28_2 1_555 1_555
H4_2 C31_2 1_555 1_555
H5_2 C32_2 1_555 1_555
H20_2 C47_2 1_555 1_555
H21_2 C48_2 1_555 1_555
H22_2 C50_2 1_555 1_555
H23_2 C49_2 1_555 1_555
C56_2 C31_2 1_555 1_555
C57_2 C32_2 1_555 1_555
C68_2 C48_2 1_555 1_555
C69_2 C47_2 1_555 1_555
C70_2 C50_2 1_555 1_555
C71_2 C49_2 1_555 1_555
H29_2 C56_2 1_555 1_555
H30_2 C57_2 1_555 1_555
H43_2 C69_2 1_555 1_555
H44_2 C68_2 1_555 1_555
H45_2 C71_2 1_555 1_555
H46_2 C70_2 1_555 1_555
C78_2 C56_2 1_555 1_555
C84_2 C68_2 1_555 1_555
C85_2 C70_2 1_555 1_555
C89_2 C78_2 1_555 1_555
C93_2 C84_2 1_555 1_555
C94_2 C85_2 1_555 1_555
N8_2 C89_2 1_555 1_555
N9_2 C89_2 1_555 1_555
N14_2 C93_2 1_555 1_555
N15_2 C94_2 1_555 1_555
N23_2 C93_2 1_555 1_555
N24_2 C94_2 1_555 1_555
C100_2 N8_2 1_555 1_555
C101_2 N9_2 1_555 1_555
C107_2 N23_2 1_555 1_555
N26_2 C100_2 1_555 1_555
O7_2 C8_2 1_555 1_555
C57_2 C78_2 1_555 1_555
C69_2 C84_2 1_555 1_555
C71_2 C85_2 1_555 1_555
N14_2 C101_2 1_555 1_555
N15_2 C100_2 1_555 1_555
N24_2 C107_2 1_555 1_555
C101_2 N26_2 1_555 1_555
C107_2 N26_2 1_555 1_555
Cu11_2 O1_2 1_555 1_555
O1_2 C1_2 1_555 1_555
O2_4 Cu11_2 1_555 1_555
C1_2 C2_2 1_555 1_555
C2_2 C3_2 1_555 1_555
C3_2 H1_2 1_555 1_555
C4_2 C3_2 1_555 1_555
H2_2 C4_2 1_555 1_555
C5_2 C4_2 1_555 1_555
C6_2 C5_2 1_555 1_555
N1_2 C6_2 1_555 1_555
C7_2 N1_2 1_555 1_555
N2_2 C7_2 1_555 1_555
Cu3_2 Cu4_2 1_555 1_555
Cu4_2 O11_2 1_555 1_555
Cu5_2 Cu6_2 1_555 1_555
Cu6_2 O13_2 1_555 1_555
Cu7_3 Cu8_3 1_555 1_555
Cu8_3 O20_2 1_555 1_555
Cu17_3 Cu18_3 1_555 1_555
Cu18_3 O29_2 1_555 1_555
O4_2 Cu11_2 1_555 1_555
O6_2 C1_2 1_555 1_555
O9_2 Cu10_2 1_555 1_555
O10_2 Cu3_2 1_555 1_555
O11_2 C11_2 1_555 1_555
O12_2 Cu5_2 1_555 1_555
O13_2 C12_2 1_555 1_555
O14_2 Cu3_2 1_555 1_555
O15_2 Cu3_2 1_555 1_555
O16_2 Cu3_2 1_555 1_555
O17_2 Cu4_2 1_555 1_555
O18_2 Cu4_2 1_555 1_555
O19_2 Cu4_2 1_555 1_555
O20_2 C17_2 1_555 1_555
O21_2 Cu7_3 1_555 1_555
O28_2 Cu17_3 1_555 1_555
O29_2 C18_2 1_555 1_555
O34_2 Cu18_3 1_555 1_555
O37_2 Cu17_3 1_555 1_555
O38_4 Cu10_2 1_555 1_555
O39_2 Cu3_2 1_555 1_555
O40_2 Cu4_2 1_555 1_555
O41_3 Cu18_3 1_555 1_555
O42_3 Cu17_3 1_555 1_555
C9_2 O4_2 1_555 1_555
C11_2 O10_2 1_555 1_555
C12_2 O12_2 1_555 1_555
C17_2 O21_2 1_555 1_555
C18_2 O28_2 1_555 1_555
C20_2 C9_2 1_555 1_555
C22_2 C11_2 1_555 1_555
C23_2 C12_2 1_555 1_555
C24_2 C17_2 1_555 1_555
C29_2 C18_2 1_555 1_555
C30_2 C2_2 1_555 1_555
C33_2 C20_2 1_555 1_555
C34_2 C20_2 1_555 1_555
C37_2 C22_2 1_555 1_555
C38_2 C22_2 1_555 1_555
C39_2 C23_2 1_555 1_555
C40_2 C23_2 1_555 1_555
C41_2 C24_2 1_555 1_555
C42_2 C24_2 1_555 1_555
C51_2 C29_2 1_555 1_555
C52_2 C29_2 1_555 1_555
H3_2 C30_2 1_555 1_555
H6_2 C33_2 1_555 1_555
H7_2 C34_2 1_555 1_555
H10_2 C37_2 1_555 1_555
H11_2 C38_2 1_555 1_555
H12_2 C39_2 1_555 1_555
H13_2 C40_2 1_555 1_555
H14_2 C41_2 1_555 1_555
H15_2 C42_2 1_555 1_555
H24_2 C51_2 1_555 1_555
H25_2 C52_2 1_555 1_555
C53_2 C5_2 1_555 1_555
C54_2 C37_2 1_555 1_555
C55_2 C38_2 1_555 1_555
C58_2 C33_2 1_555 1_555
C59_2 C34_2 1_555 1_555
C62_2 C39_2 1_555 1_555
C63_2 C40_2 1_555 1_555
C72_2 C42_2 1_555 1_555
C73_2 C41_2 1_555 1_555
C74_2 C51_2 1_555 1_555
C75_2 C52_2 1_555 1_555
H26_2 C53_2 1_555 1_555
H27_2 C54_2 1_555 1_555
H28_2 C55_2 1_555 1_555
H31_2 C58_2 1_555 1_555
H32_2 C59_2 1_555 1_555
H35_2 C62_2 1_555 1_555
H36_2 C63_2 1_555 1_555
H37_2 C73_2 1_555 1_555
H38_2 C72_2 1_555 1_555
H47_2 C74_2 1_555 1_555
H48_2 C75_2 1_555 1_555
C76_2 C54_2 1_555 1_555
C77_2 C62_2 1_555 1_555
C79_2 C58_2 1_555 1_555
C81_2 C72_2 1_555 1_555
C86_2 C74_2 1_555 1_555
C87_2 C76_2 1_555 1_555
C88_2 C77_2 1_555 1_555
C90_2 C79_2 1_555 1_555
C92_2 C81_2 1_555 1_555
C97_2 C86_2 1_555 1_555
N3_2 C6_2 1_555 1_555
N4_2 C7_2 1_555 1_555
N5_2 C88_2 1_555 1_555
N6_2 C87_2 1_555 1_555
N7_2 C88_2 1_555 1_555
N10_2 C90_2 1_555 1_555
N11_2 C90_2 1_555 1_555
N18_2 C92_2 1_555 1_555
N19_2 C97_2 1_555 1_555
N20_2 C92_2 1_555 1_555
N25_2 C97_2 1_555 1_555
C98_2 N2_2 1_555 1_555
C99_2 N2_2 1_555 1_555
C102_2 N10_2 1_555 1_555
C103_2 N11_2 1_555 1_555
C108_2 N20_2 1_555 1_555
N28_2 C102_2 1_555 1_555
Cu10_2 O6_2 1_555 1_555
O9_2 C9_2 1_555 1_555
C30_2 C53_2 1_555 1_555
C55_2 C76_2 1_555 1_555
C59_2 C79_2 1_555 1_555
C63_2 C77_2 1_555 1_555
C73_2 C81_2 1_555 1_555
C75_2 C86_2 1_555 1_555
C87_2 N4_2 1_555 1_555
N3_2 C98_2 1_555 1_555
N5_2 C98_2 1_555 1_555
N6_2 C99_2 1_555 1_555
N7_2 C99_2 1_555 1_555
N18_2 C102_2 1_555 1_555
N19_2 C103_2 1_555 1_555
N25_2 C108_2 1_555 1_555
C103_2 N28_2 1_555 1_555
C108_2 N28_2 1_555 1_555
Cu7_4 Cu8_4 1_555 1_555
Cu17_4 Cu18_4 1_555 1_555
O32_2 Cu18_4 1_555 1_555
O33_2 Cu18_4 1_555 1_555
O35_2 Cu17_4 1_555 1_555
O36_2 Cu17_4 1_555 1_555
O41_4 Cu18_4 1_555 1_555
O42_4 Cu17_4 1_555 1_555
O2_5 Cu12 1_555 1_555
Cu16 O26_3 1_555 1_555
Cu14_2 O31_3 1_555 1_555
O3_3 Cu12 1_555 1_555
O7_3 Cu13 1_555 1_555
O26_3 C16_3 1_555 1_555
O27_3 Cu15 1_555 1_555
O30_3 Cu9_2 1_555 1_555
O31_3 C15_3 1_555 1_555
O38_5 Cu13 1_555 1_555
C8_3 O3_3 1_555 1_555
C15_3 O30_3 1_555 1_555
C16_3 O27_3 1_555 1_555
C19_3 C8_3 1_555 1_555
C27_3 C16_3 1_555 1_555
C28_3 C15_3 1_555 1_555
C31_3 C19_3 1_555 1_555
C32_3 C19_3 1_555 1_555
C47_3 C27_3 1_555 1_555
C48_3 C27_3 1_555 1_555
C49_3 C28_3 1_555 1_555
C50_3 C28_3 1_555 1_555
H4_3 C31_3 1_555 1_555
H5_3 C32_3 1_555 1_555
H20_3 C47_3 1_555 1_555
H21_3 C48_3 1_555 1_555
H22_3 C50_3 1_555 1_555
H23_3 C49_3 1_555 1_555
C56_3 C31_3 1_555 1_555
C57_3 C32_3 1_555 1_555
C68_3 C48_3 1_555 1_555
C69_3 C47_3 1_555 1_555
C70_3 C50_3 1_555 1_555
C71_3 C49_3 1_555 1_555
H29_3 C56_3 1_555 1_555
H30_3 C57_3 1_555 1_555
H43_3 C69_3 1_555 1_555
H44_3 C68_3 1_555 1_555
H45_3 C71_3 1_555 1_555
H46_3 C70_3 1_555 1_555
C78_3 C56_3 1_555 1_555
C84_3 C68_3 1_555 1_555
C85_3 C70_3 1_555 1_555
C89_3 C78_3 1_555 1_555
C93_3 C84_3 1_555 1_555
C94_3 C85_3 1_555 1_555
N8_3 C89_3 1_555 1_555
N9_3 C89_3 1_555 1_555
N14_3 C93_3 1_555 1_555
N15_3 C94_3 1_555 1_555
N23_3 C93_3 1_555 1_555
N24_3 C94_3 1_555 1_555
C100_3 N8_3 1_555 1_555
C101_3 N9_3 1_555 1_555
C107_3 N23_3 1_555 1_555
N26_3 C100_3 1_555 1_555
O7_3 C8_3 1_555 1_555
C57_3 C78_3 1_555 1_555
C69_3 C84_3 1_555 1_555
C71_3 C85_3 1_555 1_555
N14_3 C101_3 1_555 1_555
N15_3 C100_3 1_555 1_555
N24_3 C107_3 1_555 1_555
C101_3 N26_3 1_555 1_555
C107_3 N26_3 1_555 1_555
Cu12_2 O1_3 1_555 1_555
O1_3 C1_3 1_555 1_555
O2_6 Cu12_2 1_555 1_555
C1_3 C2_3 1_555 1_555
C2_3 C3_3 1_555 1_555
C3_3 H1_3 1_555 1_555
C4_3 C3_3 1_555 1_555
H2_3 C4_3 1_555 1_555
C5_3 C4_3 1_555 1_555
C6_3 C5_3 1_555 1_555
N1_3 C6_3 1_555 1_555
C7_3 N1_3 1_555 1_555
N2_3 C7_3 1_555 1_555
Cu3_3 Cu4_3 1_555 1_555
Cu4_3 O11_3 1_555 1_555
Cu5_3 Cu6_3 1_555 1_555
Cu6_3 O13_3 1_555 1_555
Cu7_5 Cu8_5 1_555 1_555
Cu8_5 O20_3 1_555 1_555
Cu17_5 Cu18_5 1_555 1_555
Cu18_5 O29_3 1_555 1_555
O4_3 Cu12_2 1_555 1_555
O6_3 C1_3 1_555 1_555
O9_3 Cu13_2 1_555 1_555
O10_3 Cu3_3 1_555 1_555
O11_3 C11_3 1_555 1_555
O12_3 Cu5_3 1_555 1_555
O13_3 C12_3 1_555 1_555
O14_3 Cu3_3 1_555 1_555
O15_3 Cu3_3 1_555 1_555
O16_3 Cu3_3 1_555 1_555
O17_3 Cu4_3 1_555 1_555
O18_3 Cu4_3 1_555 1_555
O19_3 Cu4_3 1_555 1_555
O20_3 C17_3 1_555 1_555
O21_3 Cu7_5 1_555 1_555
O28_3 Cu17_5 1_555 1_555
O29_3 C18_3 1_555 1_555
O34_3 Cu18_5 1_555 1_555
O37_3 Cu17_5 1_555 1_555
O38_6 Cu13_2 1_555 1_555
O39_3 Cu3_3 1_555 1_555
O40_3 Cu4_3 1_555 1_555
O41_5 Cu18_5 1_555 1_555
O42_5 Cu17_5 1_555 1_555
C9_3 O4_3 1_555 1_555
C11_3 O10_3 1_555 1_555
C12_3 O12_3 1_555 1_555
C17_3 O21_3 1_555 1_555
C18_3 O28_3 1_555 1_555
C20_3 C9_3 1_555 1_555
C22_3 C11_3 1_555 1_555
C23_3 C12_3 1_555 1_555
C24_3 C17_3 1_555 1_555
C29_3 C18_3 1_555 1_555
C30_3 C2_3 1_555 1_555
C33_3 C20_3 1_555 1_555
C34_3 C20_3 1_555 1_555
C37_3 C22_3 1_555 1_555
C38_3 C22_3 1_555 1_555
C39_3 C23_3 1_555 1_555
C40_3 C23_3 1_555 1_555
C41_3 C24_3 1_555 1_555
C42_3 C24_3 1_555 1_555
C51_3 C29_3 1_555 1_555
C52_3 C29_3 1_555 1_555
H3_3 C30_3 1_555 1_555
H6_3 C33_3 1_555 1_555
H7_3 C34_3 1_555 1_555
H10_3 C37_3 1_555 1_555
H11_3 C38_3 1_555 1_555
H12_3 C39_3 1_555 1_555
H13_3 C40_3 1_555 1_555
H14_3 C41_3 1_555 1_555
H15_3 C42_3 1_555 1_555
H24_3 C51_3 1_555 1_555
H25_3 C52_3 1_555 1_555
C53_3 C5_3 1_555 1_555
C54_3 C37_3 1_555 1_555
C55_3 C38_3 1_555 1_555
C58_3 C33_3 1_555 1_555
C59_3 C34_3 1_555 1_555
C62_3 C39_3 1_555 1_555
C63_3 C40_3 1_555 1_555
C72_3 C42_3 1_555 1_555
C73_3 C41_3 1_555 1_555
C74_3 C51_3 1_555 1_555
C75_3 C52_3 1_555 1_555
H26_3 C53_3 1_555 1_555
H27_3 C54_3 1_555 1_555
H28_3 C55_3 1_555 1_555
H31_3 C58_3 1_555 1_555
H32_3 C59_3 1_555 1_555
H35_3 C62_3 1_555 1_555
H36_3 C63_3 1_555 1_555
H37_3 C73_3 1_555 1_555
H38_3 C72_3 1_555 1_555
H47_3 C74_3 1_555 1_555
H48_3 C75_3 1_555 1_555
C76_3 C54_3 1_555 1_555
C77_3 C62_3 1_555 1_555
C79_3 C58_3 1_555 1_555
C81_3 C72_3 1_555 1_555
C86_3 C74_3 1_555 1_555
C87_3 C76_3 1_555 1_555
C88_3 C77_3 1_555 1_555
C90_3 C79_3 1_555 1_555
C92_3 C81_3 1_555 1_555
C97_3 C86_3 1_555 1_555
N3_3 C6_3 1_555 1_555
N4_3 C7_3 1_555 1_555
N5_3 C88_3 1_555 1_555
N6_3 C87_3 1_555 1_555
N7_3 C88_3 1_555 1_555
N10_3 C90_3 1_555 1_555
N11_3 C90_3 1_555 1_555
N18_3 C92_3 1_555 1_555
N19_3 C97_3 1_555 1_555
N20_3 C92_3 1_555 1_555
N25_3 C97_3 1_555 1_555
C98_3 N2_3 1_555 1_555
C99_3 N2_3 1_555 1_555
C102_3 N10_3 1_555 1_555
C103_3 N11_3 1_555 1_555
C108_3 N20_3 1_555 1_555
N28_3 C102_3 1_555 1_555
Cu13_2 O6_3 1_555 1_555
O9_3 C9_3 1_555 1_555
C30_3 C53_3 1_555 1_555
C55_3 C76_3 1_555 1_555
C59_3 C79_3 1_555 1_555
C63_3 C77_3 1_555 1_555
C73_3 C81_3 1_555 1_555
C75_3 C86_3 1_555 1_555
C87_3 N4_3 1_555 1_555
N3_3 C98_3 1_555 1_555
N5_3 C98_3 1_555 1_555
N6_3 C99_3 1_555 1_555
N7_3 C99_3 1_555 1_555
N18_3 C102_3 1_555 1_555
N19_3 C103_3 1_555 1_555
N25_3 C108_3 1_555 1_555
C103_3 N28_3 1_555 1_555
C108_3 N28_3 1_555 1_555
Cu17_6 Cu18_6 1_555 1_555
O32_3 Cu18_6 1_555 1_555
O33_3 Cu18_6 1_555 1_555
O35_3 Cu17_6 1_555 1_555
O36_3 Cu17_6 1_555 1_555
O41_6 Cu18_6 1_555 1_555
O42_6 Cu17_6 1_555 1_555
Cu7_6 Cu8_6 1_555 1_555
Cu14 O26_4 1_555 1_555
Cu5_3 O31_4 1_555 1_555
O26_4 C16_4 1_555 1_555
O27_4 Cu9 1_555 1_555
O30_4 Cu6_3 1_555 1_555
O31_4 C15_4 1_555 1_555
C8_4 O34_3 1_555 1_555
C15_4 O30_4 1_555 1_555
C16_4 O27_4 1_555 1_555
C19_4 C8_4 1_555 1_555
C27_4 C16_4 1_555 1_555
C28_4 C15_4 1_555 1_555
C31_4 C19_4 1_555 1_555
C32_4 C19_4 1_555 1_555
C47_4 C27_4 1_555 1_555
C48_4 C27_4 1_555 1_555
C49_4 C28_4 1_555 1_555
C50_4 C28_4 1_555 1_555
H4_4 C31_4 1_555 1_555
H5_4 C32_4 1_555 1_555
H20_4 C47_4 1_555 1_555
H21_4 C48_4 1_555 1_555
H22_4 C50_4 1_555 1_555
H23_4 C49_4 1_555 1_555
C56_4 C31_4 1_555 1_555
C57_4 C32_4 1_555 1_555
C68_4 C48_4 1_555 1_555
C69_4 C47_4 1_555 1_555
C70_4 C50_4 1_555 1_555
C71_4 C49_4 1_555 1_555
H29_4 C56_4 1_555 1_555
H30_4 C57_4 1_555 1_555
H43_4 C69_4 1_555 1_555
H44_4 C68_4 1_555 1_555
H45_4 C71_4 1_555 1_555
H46_4 C70_4 1_555 1_555
C78_4 C56_4 1_555 1_555
C84_4 C68_4 1_555 1_555
C85_4 C70_4 1_555 1_555
C89_4 C78_4 1_555 1_555
C93_4 C84_4 1_555 1_555
C94_4 C85_4 1_555 1_555
N8_4 C89_4 1_555 1_555
N9_4 C89_4 1_555 1_555
N14_4 C93_4 1_555 1_555
N15_4 C94_4 1_555 1_555
N23_4 C93_4 1_555 1_555
N24_4 C94_4 1_555 1_555
C100_4 N8_4 1_555 1_555
C101_4 N9_4 1_555 1_555
C107_4 N23_4 1_555 1_555
N26_4 C100_4 1_555 1_555
O37_3 C8_4 1_555 1_555
C57_4 C78_4 1_555 1_555
C69_4 C84_4 1_555 1_555
C71_4 C85_4 1_555 1_555
N14_4 C101_4 1_555 1_555
N15_4 C100_4 1_555 1_555
N24_4 C107_4 1_555 1_555
C101_4 N26_4 1_555 1_555
C107_4 N26_4 1_555 1_555
O32_4 Cu8_3 1_555 1_555
O36_4 Cu7_3 1_555 1_555
O41_7 Cu8_3 1_555 1_555
O42_7 Cu7_3 1_555 1_555
O32_3 C1_4 1_555 1_555
C1_4 C2_4 1_555 1_555
C2_4 C3_4 1_555 1_555
C3_4 H1_4 1_555 1_555
C4_4 C3_4 1_555 1_555
H2_4 C4_4 1_555 1_555
C5_4 C4_4 1_555 1_555
C6_4 C5_4 1_555 1_555
N1_4 C6_4 1_555 1_555
C7_4 N1_4 1_555 1_555
N2_4 C7_4 1_555 1_555
Cu5_2 O11_4 1_555 1_555
Cu5_4 Cu6_4 1_555 1_555
Cu6_4 O13_4 1_555 1_555
Cu7_7 Cu8_7 1_555 1_555
Cu8_7 O20_4 1_555 1_555
Cu8_4 O29_4 1_555 1_555
O36_3 C1_4 1_555 1_555
O10_4 Cu6_2 1_555 1_555
O11_4 C11_4 1_555 1_555
O12_4 Cu5_4 1_555 1_555
O13_4 C12_4 1_555 1_555
O15_4 Cu6_2 1_555 1_555
O16_4 Cu6_2 1_555 1_555
O18_4 Cu5_2 1_555 1_555
O19_4 Cu5_2 1_555 1_555
O20_4 C17_4 1_555 1_555
O21_4 Cu7_7 1_555 1_555
O28_4 Cu7_4 1_555 1_555
O29_4 C18_4 1_555 1_555
O34_4 Cu8_4 1_555 1_555
O37_4 Cu7_4 1_555 1_555
O39_4 Cu6_2 1_555 1_555
O40_4 Cu5_2 1_555 1_555
O41_8 Cu8_4 1_555 1_555
O42_8 Cu7_4 1_555 1_555
C9_4 O33_3 1_555 1_555
C11_4 O10_4 1_555 1_555
C12_4 O12_4 1_555 1_555
C17_4 O21_4 1_555 1_555
C18_4 O28_4 1_555 1_555
C20_4 C9_4 1_555 1_555
C22_4 C11_4 1_555 1_555
C23_4 C12_4 1_555 1_555
C24_4 C17_4 1_555 1_555
C29_4 C18_4 1_555 1_555
C30_4 C2_4 1_555 1_555
C33_4 C20_4 1_555 1_555
C34_4 C20_4 1_555 1_555
C37_4 C22_4 1_555 1_555
C38_4 C22_4 1_555 1_555
C39_4 C23_4 1_555 1_555
C40_4 C23_4 1_555 1_555
C41_4 C24_4 1_555 1_555
C42_4 C24_4 1_555 1_555
C51_4 C29_4 1_555 1_555
C52_4 C29_4 1_555 1_555
H3_4 C30_4 1_555 1_555
H6_4 C33_4 1_555 1_555
H7_4 C34_4 1_555 1_555
H10_4 C37_4 1_555 1_555
H11_4 C38_4 1_555 1_555
H12_4 C39_4 1_555 1_555
H13_4 C40_4 1_555 1_555
H14_4 C41_4 1_555 1_555
H15_4 C42_4 1_555 1_555
H24_4 C51_4 1_555 1_555
H25_4 C52_4 1_555 1_555
C53_4 C5_4 1_555 1_555
C54_4 C37_4 1_555 1_555
C55_4 C38_4 1_555 1_555
C58_4 C33_4 1_555 1_555
C59_4 C34_4 1_555 1_555
C62_4 C39_4 1_555 1_555
C63_4 C40_4 1_555 1_555
C72_4 C42_4 1_555 1_555
C73_4 C41_4 1_555 1_555
C74_4 C51_4 1_555 1_555
C75_4 C52_4 1_555 1_555
H26_4 C53_4 1_555 1_555
H27_4 C54_4 1_555 1_555
H28_4 C55_4 1_555 1_555
H31_4 C58_4 1_555 1_555
H32_4 C59_4 1_555 1_555
H35_4 C62_4 1_555 1_555
H36_4 C63_4 1_555 1_555
H37_4 C73_4 1_555 1_555
H38_4 C72_4 1_555 1_555
H47_4 C74_4 1_555 1_555
H48_4 C75_4 1_555 1_555
C76_4 C54_4 1_555 1_555
C77_4 C62_4 1_555 1_555
C79_4 C58_4 1_555 1_555
C81_4 C72_4 1_555 1_555
C86_4 C74_4 1_555 1_555
C87_4 C76_4 1_555 1_555
C88_4 C77_4 1_555 1_555
C90_4 C79_4 1_555 1_555
C92_4 C81_4 1_555 1_555
C97_4 C86_4 1_555 1_555
N3_4 C6_4 1_555 1_555
N4_4 C7_4 1_555 1_555
N5_4 C88_4 1_555 1_555
N6_4 C87_4 1_555 1_555
N7_4 C88_4 1_555 1_555
N10_4 C90_4 1_555 1_555
N11_4 C90_4 1_555 1_555
N18_4 C92_4 1_555 1_555
N19_4 C97_4 1_555 1_555
N20_4 C92_4 1_555 1_555
N25_4 C97_4 1_555 1_555
C98_4 N2_4 1_555 1_555
C99_4 N2_4 1_555 1_555
C102_4 N10_4 1_555 1_555
C103_4 N11_4 1_555 1_555
C108_4 N20_4 1_555 1_555
N28_4 C102_4 1_555 1_555
O35_3 C9_4 1_555 1_555
C30_4 C53_4 1_555 1_555
C55_4 C76_4 1_555 1_555
C59_4 C79_4 1_555 1_555
C63_4 C77_4 1_555 1_555
C73_4 C81_4 1_555 1_555
C75_4 C86_4 1_555 1_555
C87_4 N4_4 1_555 1_555
N3_4 C98_4 1_555 1_555
N5_4 C98_4 1_555 1_555
N6_4 C99_4 1_555 1_555
N7_4 C99_4 1_555 1_555
N18_4 C102_4 1_555 1_555
N19_4 C103_4 1_555 1_555
N25_4 C108_4 1_555 1_555
C103_4 N28_4 1_555 1_555
C108_4 N28_4 1_555 1_555
Cu7_8 Cu8_8 1_555 1_555
O16_5 Cu9 1_555 1_555
O18_5 Cu14 1_555 1_555
O39_5 Cu9 1_555 1_555
O40_5 Cu14 1_555 1_555
O2_7 Cu7 1_555 1_555
Cu14_2 O31_5 1_555 1_555
O3_4 Cu7 1_555 1_555
O7_4 Cu8 1_555 1_555
O19 C16_5 1_555 1_555
O30_5 Cu9_2 1_555 1_555
O31_5 C15_5 1_555 1_555
O38_7 Cu8 1_555 1_555
C8_5 O3_4 1_555 1_555
C15_5 O30_5 1_555 1_555
C16_5 O15 1_555 1_555
C19_5 C8_5 1_555 1_555
C27_5 C16_5 1_555 1_555
C28_5 C15_5 1_555 1_555
C31_5 C19_5 1_555 1_555
C32_5 C19_5 1_555 1_555
C47_5 C27_5 1_555 1_555
C48_5 C27_5 1_555 1_555
C49_5 C28_5 1_555 1_555
C50_5 C28_5 1_555 1_555
H4_5 C31_5 1_555 1_555
H5_5 C32_5 1_555 1_555
H20_5 C47_5 1_555 1_555
H21_5 C48_5 1_555 1_555
H22_5 C50_5 1_555 1_555
H23_5 C49_5 1_555 1_555
C56_5 C31_5 1_555 1_555
C57_5 C32_5 1_555 1_555
C68_5 C48_5 1_555 1_555
C69_5 C47_5 1_555 1_555
C70_5 C50_5 1_555 1_555
C71_5 C49_5 1_555 1_555
H29_5 C56_5 1_555 1_555
H30_5 C57_5 1_555 1_555
H43_5 C69_5 1_555 1_555
H44_5 C68_5 1_555 1_555
H45_5 C71_5 1_555 1_555
H46_5 C70_5 1_555 1_555
C78_5 C56_5 1_555 1_555
C84_5 C68_5 1_555 1_555
C85_5 C70_5 1_555 1_555
C89_5 C78_5 1_555 1_555
C93_5 C84_5 1_555 1_555
C94_5 C85_5 1_555 1_555
N8_5 C89_5 1_555 1_555
N9_5 C89_5 1_555 1_555
N14_5 C93_5 1_555 1_555
N15_5 C94_5 1_555 1_555
N23_5 C93_5 1_555 1_555
N24_5 C94_5 1_555 1_555
C100_5 N8_5 1_555 1_555
C101_5 N9_5 1_555 1_555
C107_5 N23_5 1_555 1_555
N26_5 C100_5 1_555 1_555
O7_4 C8_5 1_555 1_555
C57_5 C78_5 1_555 1_555
C69_5 C84_5 1_555 1_555
C71_5 C85_5 1_555 1_555
N14_5 C101_5 1_555 1_555
N15_5 C100_5 1_555 1_555
N24_5 C107_5 1_555 1_555
C101_5 N26_5 1_555 1_555
C107_5 N26_5 1_555 1_555
Cu7_2 O1_4 1_555 1_555
O1_4 C1_5 1_555 1_555
O2_8 Cu7_2 1_555 1_555
C1_5 C2_5 1_555 1_555
C2_5 C3_5 1_555 1_555
C3_5 H1_5 1_555 1_555
C4_5 C3_5 1_555 1_555
H2_5 C4_5 1_555 1_555
C5_5 C4_5 1_555 1_555
C6_5 C5_5 1_555 1_555
N1_5 C6_5 1_555 1_555
C7_5 N1_5 1_555 1_555
N2_5 C7_5 1_555 1_555
Cu3_4 Cu4_4 1_555 1_555
Cu4_4 O11_5 1_555 1_555
Cu17_7 Cu18_7 1_555 1_555
Cu18_7 O29_5 1_555 1_555
O4_4 Cu7_2 1_555 1_555
O6_4 C1_5 1_555 1_555
O9_4 Cu8_2 1_555 1_555
O10_5 Cu3_4 1_555 1_555
O11_5 C11_5 1_555 1_555
O14_2 C12_5 1_555 1_555
O14_4 Cu3_4 1_555 1_555
O15_5 Cu3_4 1_555 1_555
O16_6 Cu3_4 1_555 1_555
O17_4 Cu4_4 1_555 1_555
O18_6 Cu4_4 1_555 1_555
O19_5 Cu4_4 1_555 1_555
O33_2 C17_5 1_555 1_555
O28_5 Cu17_7 1_555 1_555
O29_5 C18_5 1_555 1_555
O34_5 Cu18_7 1_555 1_555
O37_5 Cu17_7 1_555 1_555
O38_8 Cu8_2 1_555 1_555
O39_6 Cu3_4 1_555 1_555
O40_6 Cu4_4 1_555 1_555
O41_9 Cu18_7 1_555 1_555
O42_9 Cu17_7 1_555 1_555
C9_5 O4_4 1_555 1_555
C11_5 O10_5 1_555 1_555
C12_5 O17_2 1_555 1_555
C17_5 O35_2 1_555 1_555
C18_5 O28_5 1_555 1_555
C20_5 C9_5 1_555 1_555
C22_5 C11_5 1_555 1_555
C23_5 C12_5 1_555 1_555
C24_5 C17_5 1_555 1_555
C29_5 C18_5 1_555 1_555
C30_5 C2_5 1_555 1_555
C33_5 C20_5 1_555 1_555
C34_5 C20_5 1_555 1_555
C37_5 C22_5 1_555 1_555
C38_5 C22_5 1_555 1_555
C39_5 C23_5 1_555 1_555
C40_5 C23_5 1_555 1_555
C41_5 C24_5 1_555 1_555
C42_5 C24_5 1_555 1_555
C51_5 C29_5 1_555 1_555
C52_5 C29_5 1_555 1_555
H3_5 C30_5 1_555 1_555
H6_5 C33_5 1_555 1_555
H7_5 C34_5 1_555 1_555
H10_5 C37_5 1_555 1_555
H11_5 C38_5 1_555 1_555
H12_5 C39_5 1_555 1_555
H13_5 C40_5 1_555 1_555
H14_5 C41_5 1_555 1_555
H15_5 C42_5 1_555 1_555
H24_5 C51_5 1_555 1_555
H25_5 C52_5 1_555 1_555
C53_5 C5_5 1_555 1_555
C54_5 C37_5 1_555 1_555
C55_5 C38_5 1_555 1_555
C58_5 C33_5 1_555 1_555
C59_5 C34_5 1_555 1_555
C62_5 C39_5 1_555 1_555
C63_5 C40_5 1_555 1_555
C72_5 C42_5 1_555 1_555
C73_5 C41_5 1_555 1_555
C74_5 C51_5 1_555 1_555
C75_5 C52_5 1_555 1_555
H26_5 C53_5 1_555 1_555
H27_5 C54_5 1_555 1_555
H28_5 C55_5 1_555 1_555
H31_5 C58_5 1_555 1_555
H32_5 C59_5 1_555 1_555
H35_5 C62_5 1_555 1_555
H36_5 C63_5 1_555 1_555
H37_5 C73_5 1_555 1_555
H38_5 C72_5 1_555 1_555
H47_5 C74_5 1_555 1_555
H48_5 C75_5 1_555 1_555
C76_5 C54_5 1_555 1_555
C77_5 C62_5 1_555 1_555
C79_5 C58_5 1_555 1_555
C81_5 C72_5 1_555 1_555
C86_5 C74_5 1_555 1_555
C87_5 C76_5 1_555 1_555
C88_5 C77_5 1_555 1_555
C90_5 C79_5 1_555 1_555
C92_5 C81_5 1_555 1_555
C97_5 C86_5 1_555 1_555
N3_5 C6_5 1_555 1_555
N4_5 C7_5 1_555 1_555
N5_5 C88_5 1_555 1_555
N6_5 C87_5 1_555 1_555
N7_5 C88_5 1_555 1_555
N10_5 C90_5 1_555 1_555
N11_5 C90_5 1_555 1_555
N18_5 C92_5 1_555 1_555
N19_5 C97_5 1_555 1_555
N20_5 C92_5 1_555 1_555
N25_5 C97_5 1_555 1_555
C98_5 N2_5 1_555 1_555
C99_5 N2_5 1_555 1_555
C102_5 N10_5 1_555 1_555
C103_5 N11_5 1_555 1_555
C108_5 N20_5 1_555 1_555
N28_5 C102_5 1_555 1_555
Cu8_2 O6_4 1_555 1_555
O9_4 C9_5 1_555 1_555
C30_5 C53_5 1_555 1_555
C55_5 C76_5 1_555 1_555
C59_5 C79_5 1_555 1_555
C63_5 C77_5 1_555 1_555
C73_5 C81_5 1_555 1_555
C75_5 C86_5 1_555 1_555
C87_5 N4_5 1_555 1_555
N3_5 C98_5 1_555 1_555
N5_5 C98_5 1_555 1_555
N6_5 C99_5 1_555 1_555
N7_5 C99_5 1_555 1_555
N18_5 C102_5 1_555 1_555
N19_5 C103_5 1_555 1_555
N25_5 C108_5 1_555 1_555
C103_5 N28_5 1_555 1_555
C108_5 N28_5 1_555 1_555
Cu17_8 Cu18_8 1_555 1_555
O32_5 Cu18_8 1_555 1_555
O33_4 Cu18_8 1_555 1_555
O35_4 Cu17_8 1_555 1_555
O36_5 Cu17_8 1_555 1_555
O41_10 Cu18_8 1_555 1_555
O42_10 Cu17_8 1_555 1_555
O2_9 Cu7_5 1_555 1_555
O3_5 Cu7_5 1_555 1_555
O7_5 Cu8_5 1_555 1_555
O19_3 C16_6 1_555 1_555
O18_5 C15_6 1_555 1_555
O38_9 Cu8_5 1_555 1_555
C8_6 O3_5 1_555 1_555
C15_6 O16_5 1_555 1_555
C16_6 O15_3 1_555 1_555
C19_6 C8_6 1_555 1_555
C27_6 C16_6 1_555 1_555
C28_6 C15_6 1_555 1_555
C31_6 C19_6 1_555 1_555
C32_6 C19_6 1_555 1_555
C47_6 C27_6 1_555 1_555
C48_6 C27_6 1_555 1_555
C49_6 C28_6 1_555 1_555
C50_6 C28_6 1_555 1_555
H4_6 C31_6 1_555 1_555
H5_6 C32_6 1_555 1_555
H20_6 C47_6 1_555 1_555
H21_6 C48_6 1_555 1_555
H22_6 C50_6 1_555 1_555
H23_6 C49_6 1_555 1_555
C56_6 C31_6 1_555 1_555
C57_6 C32_6 1_555 1_555
C68_6 C48_6 1_555 1_555
C69_6 C47_6 1_555 1_555
C70_6 C50_6 1_555 1_555
C71_6 C49_6 1_555 1_555
H29_6 C56_6 1_555 1_555
H30_6 C57_6 1_555 1_555
H43_6 C69_6 1_555 1_555
H44_6 C68_6 1_555 1_555
H45_6 C71_6 1_555 1_555
H46_6 C70_6 1_555 1_555
C78_6 C56_6 1_555 1_555
C84_6 C68_6 1_555 1_555
C85_6 C70_6 1_555 1_555
C89_6 C78_6 1_555 1_555
C93_6 C84_6 1_555 1_555
C94_6 C85_6 1_555 1_555
N8_6 C89_6 1_555 1_555
N9_6 C89_6 1_555 1_555
N14_6 C93_6 1_555 1_555
N15_6 C94_6 1_555 1_555
N23_6 C93_6 1_555 1_555
N24_6 C94_6 1_555 1_555
C100_6 N8_6 1_555 1_555
C101_6 N9_6 1_555 1_555
C107_6 N23_6 1_555 1_555
N26_6 C100_6 1_555 1_555
O7_5 C8_6 1_555 1_555
C57_6 C78_6 1_555 1_555
C69_6 C84_6 1_555 1_555
C71_6 C85_6 1_555 1_555
N14_6 C101_6 1_555 1_555
N15_6 C100_6 1_555 1_555
N24_6 C107_6 1_555 1_555
C101_6 N26_6 1_555 1_555
C107_6 N26_6 1_555 1_555
Cu7_6 O1_5 1_555 1_555
O1_5 C1_6 1_555 1_555
O2_10 Cu7_6 1_555 1_555
C1_6 C2_6 1_555 1_555
C2_6 C3_6 1_555 1_555
C3_6 H1_6 1_555 1_555
C4_6 C3_6 1_555 1_555
H2_6 C4_6 1_555 1_555
C5_6 C4_6 1_555 1_555
C6_6 C5_6 1_555 1_555
N1_6 C6_6 1_555 1_555
C7_6 N1_6 1_555 1_555
N2_6 C7_6 1_555 1_555
Cu3_5 Cu4_5 1_555 1_555
Cu4_5 O11_6 1_555 1_555
Cu17_9 Cu18_9 1_555 1_555
Cu18_9 O29_6 1_555 1_555
O4_5 Cu7_6 1_555 1_555
O6_5 C1_6 1_555 1_555
O9_5 Cu8_6 1_555 1_555
O10_6 Cu3_5 1_555 1_555
O11_6 C11_6 1_555 1_555
O14 C12_6 1_555 1_555
O14_5 Cu3_5 1_555 1_555
O15_6 Cu3_5 1_555 1_555
O16_7 Cu3_5 1_555 1_555
O17_5 Cu4_5 1_555 1_555
O18_7 Cu4_5 1_555 1_555
O19_6 Cu4_5 1_555 1_555
O33 C17_6 1_555 1_555
O28_6 Cu17_9 1_555 1_555
O29_6 C18_6 1_555 1_555
O34_6 Cu18_9 1_555 1_555
O37_6 Cu17_9 1_555 1_555
O38_10 Cu8_6 1_555 1_555
O39_7 Cu3_5 1_555 1_555
O40_7 Cu4_5 1_555 1_555
O41_11 Cu18_9 1_555 1_555
O42_11 Cu17_9 1_555 1_555
C9_6 O4_5 1_555 1_555
C11_6 O10_6 1_555 1_555
C12_6 O17 1_555 1_555
C17_6 O35 1_555 1_555
C18_6 O28_6 1_555 1_555
C20_6 C9_6 1_555 1_555
C22_6 C11_6 1_555 1_555
C23_6 C12_6 1_555 1_555
C24_6 C17_6 1_555 1_555
C29_6 C18_6 1_555 1_555
C30_6 C2_6 1_555 1_555
C33_6 C20_6 1_555 1_555
C34_6 C20_6 1_555 1_555
C37_6 C22_6 1_555 1_555
C38_6 C22_6 1_555 1_555
C39_6 C23_6 1_555 1_555
C40_6 C23_6 1_555 1_555
C41_6 C24_6 1_555 1_555
C42_6 C24_6 1_555 1_555
C51_6 C29_6 1_555 1_555
C52_6 C29_6 1_555 1_555
H3_6 C30_6 1_555 1_555
H6_6 C33_6 1_555 1_555
H7_6 C34_6 1_555 1_555
H10_6 C37_6 1_555 1_555
H11_6 C38_6 1_555 1_555
H12_6 C39_6 1_555 1_555
H13_6 C40_6 1_555 1_555
H14_6 C41_6 1_555 1_555
H15_6 C42_6 1_555 1_555
H24_6 C51_6 1_555 1_555
H25_6 C52_6 1_555 1_555
C53_6 C5_6 1_555 1_555
C54_6 C37_6 1_555 1_555
C55_6 C38_6 1_555 1_555
C58_6 C33_6 1_555 1_555
C59_6 C34_6 1_555 1_555
C62_6 C39_6 1_555 1_555
C63_6 C40_6 1_555 1_555
C72_6 C42_6 1_555 1_555
C73_6 C41_6 1_555 1_555
C74_6 C51_6 1_555 1_555
C75_6 C52_6 1_555 1_555
H26_6 C53_6 1_555 1_555
H27_6 C54_6 1_555 1_555
H28_6 C55_6 1_555 1_555
H31_6 C58_6 1_555 1_555
H32_6 C59_6 1_555 1_555
H35_6 C62_6 1_555 1_555
H36_6 C63_6 1_555 1_555
H37_6 C73_6 1_555 1_555
H38_6 C72_6 1_555 1_555
H47_6 C74_6 1_555 1_555
H48_6 C75_6 1_555 1_555
C76_6 C54_6 1_555 1_555
C77_6 C62_6 1_555 1_555
C79_6 C58_6 1_555 1_555
C81_6 C72_6 1_555 1_555
C86_6 C74_6 1_555 1_555
C87_6 C76_6 1_555 1_555
C88_6 C77_6 1_555 1_555
C90_6 C79_6 1_555 1_555
C92_6 C81_6 1_555 1_555
C97_6 C86_6 1_555 1_555
N3_6 C6_6 1_555 1_555
N4_6 C7_6 1_555 1_555
N5_6 C88_6 1_555 1_555
N6_6 C87_6 1_555 1_555
N7_6 C88_6 1_555 1_555
N10_6 C90_6 1_555 1_555
N11_6 C90_6 1_555 1_555
N18_6 C92_6 1_555 1_555
N19_6 C97_6 1_555 1_555
N20_6 C92_6 1_555 1_555
N25_6 C97_6 1_555 1_555
C98_6 N2_6 1_555 1_555
C99_6 N2_6 1_555 1_555
C102_6 N10_6 1_555 1_555
C103_6 N11_6 1_555 1_555
C108_6 N20_6 1_555 1_555
N28_6 C102_6 1_555 1_555
Cu8_6 O6_5 1_555 1_555
O9_5 C9_6 1_555 1_555
C30_6 C53_6 1_555 1_555
C55_6 C76_6 1_555 1_555
C59_6 C79_6 1_555 1_555
C63_6 C77_6 1_555 1_555
C73_6 C81_6 1_555 1_555
C75_6 C86_6 1_555 1_555
C87_6 N4_6 1_555 1_555
N3_6 C98_6 1_555 1_555
N5_6 C98_6 1_555 1_555
N6_6 C99_6 1_555 1_555
N7_6 C99_6 1_555 1_555
N18_6 C102_6 1_555 1_555
N19_6 C103_6 1_555 1_555
N25_6 C108_6 1_555 1_555
C103_6 N28_6 1_555 1_555
C108_6 N28_6 1_555 1_555
Cu17_10 Cu18_10 1_555 1_555
O32_6 Cu18_10 1_555 1_555
O33_5 Cu18_10 1_555 1_555
O35_5 Cu17_10 1_555 1_555
O36_6 Cu17_10 1_555 1_555
O41_12 Cu18_10 1_555 1_555
O42_12 Cu17_10 1_555 1_555
O14_6 Cu15 1_555 1_555
O16_8 Cu15 1_555 1_555
O17_6 Cu16 1_555 1_555
O18_8 Cu16 1_555 1_555
O39_8 Cu15 1_555 1_555
O40_8 Cu16 1_555 1_555
O17_6 C16_7 1_555 1_555
O18_4 C15_7 1_555 1_555
C8_7 O34_2 1_555 1_555
C15_7 O16_4 1_555 1_555
C16_7 O14_6 1_555 1_555
C19_7 C8_7 1_555 1_555
C27_7 C16_7 1_555 1_555
C28_7 C15_7 1_555 1_555
C31_7 C19_7 1_555 1_555
C32_7 C19_7 1_555 1_555
C47_7 C27_7 1_555 1_555
C48_7 C27_7 1_555 1_555
C49_7 C28_7 1_555 1_555
C50_7 C28_7 1_555 1_555
H4_7 C31_7 1_555 1_555
H5_7 C32_7 1_555 1_555
H20_7 C47_7 1_555 1_555
H21_7 C48_7 1_555 1_555
H22_7 C50_7 1_555 1_555
H23_7 C49_7 1_555 1_555
C56_7 C31_7 1_555 1_555
C57_7 C32_7 1_555 1_555
C68_7 C48_7 1_555 1_555
C69_7 C47_7 1_555 1_555
C70_7 C50_7 1_555 1_555
C71_7 C49_7 1_555 1_555
H29_7 C56_7 1_555 1_555
H30_7 C57_7 1_555 1_555
H43_7 C69_7 1_555 1_555
H44_7 C68_7 1_555 1_555
H45_7 C71_7 1_555 1_555
H46_7 C70_7 1_555 1_555
C78_7 C56_7 1_555 1_555
C84_7 C68_7 1_555 1_555
C85_7 C70_7 1_555 1_555
C89_7 C78_7 1_555 1_555
C93_7 C84_7 1_555 1_555
C94_7 C85_7 1_555 1_555
N8_7 C89_7 1_555 1_555
N9_7 C89_7 1_555 1_555
N14_7 C93_7 1_555 1_555
N15_7 C94_7 1_555 1_555
N23_7 C93_7 1_555 1_555
N24_7 C94_7 1_555 1_555
C100_7 N8_7 1_555 1_555
C101_7 N9_7 1_555 1_555
C107_7 N23_7 1_555 1_555
N26_7 C100_7 1_555 1_555
O37_2 C8_7 1_555 1_555
C57_7 C78_7 1_555 1_555
C69_7 C84_7 1_555 1_555
C71_7 C85_7 1_555 1_555
N14_7 C101_7 1_555 1_555
N15_7 C100_7 1_555 1_555
N24_7 C107_7 1_555 1_555
C101_7 N26_7 1_555 1_555
C107_7 N26_7 1_555 1_555
O32_2 C1_7 1_555 1_555
C1_7 C2_7 1_555 1_555
C2_7 C3_7 1_555 1_555
C3_7 H1_7 1_555 1_555
C4_7 C3_7 1_555 1_555
H2_7 C4_7 1_555 1_555
C5_7 C4_7 1_555 1_555
C6_7 C5_7 1_555 1_555
N1_7 C6_7 1_555 1_555
C7_7 N1_7 1_555 1_555
N2_7 C7_7 1_555 1_555
Cu5 O11_7 1_555 1_555
O36_2 C1_7 1_555 1_555
O10_7 Cu6 1_555 1_555
O11_7 C11_7 1_555 1_555
O15_5 C12_7 1_555 1_555
O15_7 Cu6 1_555 1_555
O16_9 Cu6 1_555 1_555
O18_9 Cu5 1_555 1_555
O19_7 Cu5 1_555 1_555
O39_9 Cu6 1_555 1_555
O40_9 Cu5 1_555 1_555
C11_7 O10_7 1_555 1_555
C12_7 O19_5 1_555 1_555
C22_7 C11_7 1_555 1_555
C23_7 C12_7 1_555 1_555
C30_7 C2_7 1_555 1_555
C37_7 C22_7 1_555 1_555
C38_7 C22_7 1_555 1_555
C39_7 C23_7 1_555 1_555
C40_7 C23_7 1_555 1_555
H3_7 C30_7 1_555 1_555
H10_7 C37_7 1_555 1_555
H11_7 C38_7 1_555 1_555
H12_7 C39_7 1_555 1_555
H13_7 C40_7 1_555 1_555
C53_7 C5_7 1_555 1_555
C54_7 C37_7 1_555 1_555
C55_7 C38_7 1_555 1_555
C62_7 C39_7 1_555 1_555
C63_7 C40_7 1_555 1_555
H26_7 C53_7 1_555 1_555
H27_7 C54_7 1_555 1_555
H28_7 C55_7 1_555 1_555
H35_7 C62_7 1_555 1_555
H36_7 C63_7 1_555 1_555
C76_7 C54_7 1_555 1_555
C77_7 C62_7 1_555 1_555
C87_7 C76_7 1_555 1_555
C88_7 C77_7 1_555 1_555
N3_7 C6_7 1_555 1_555
N4_7 C7_7 1_555 1_555
N5_7 C88_7 1_555 1_555
N6_7 C87_7 1_555 1_555
N7_7 C88_7 1_555 1_555
C98_7 N2_7 1_555 1_555
C99_7 N2_7 1_555 1_555
C30_7 C53_7 1_555 1_555
C55_7 C76_7 1_555 1_555
C63_7 C77_7 1_555 1_555
C87_7 N4_7 1_555 1_555
N3_7 C98_7 1_555 1_555
N5_7 C98_7 1_555 1_555
N6_7 C99_7 1_555 1_555
N7_7 C99_7 1_555 1_555
O14_7 Cu9_2 1_555 1_555
O17_7 Cu14_2 1_555 1_555
O39_10 Cu9_2 1_555 1_555
O40_10 Cu14_2 1_555 1_555
O19_2 C16_8 1_555 1_555
O18_8 C15_8 1_555 1_555
C8_8 O36_4 1_555 1_555
C15_8 O16_8 1_555 1_555
C16_8 O15_2 1_555 1_555
C19_8 C8_8 1_555 1_555
C27_8 C16_8 1_555 1_555
C28_8 C15_8 1_555 1_555
C31_8 C19_8 1_555 1_555
C32_8 C19_8 1_555 1_555
C47_8 C27_8 1_555 1_555
C48_8 C27_8 1_555 1_555
C49_8 C28_8 1_555 1_555
C50_8 C28_8 1_555 1_555
H4_8 C31_8 1_555 1_555
H5_8 C32_8 1_555 1_555
H20_8 C47_8 1_555 1_555
H21_8 C48_8 1_555 1_555
H22_8 C50_8 1_555 1_555
H23_8 C49_8 1_555 1_555
C56_8 C31_8 1_555 1_555
C57_8 C32_8 1_555 1_555
C68_8 C48_8 1_555 1_555
C69_8 C47_8 1_555 1_555
C70_8 C50_8 1_555 1_555
C71_8 C49_8 1_555 1_555
H29_8 C56_8 1_555 1_555
H30_8 C57_8 1_555 1_555
H43_8 C69_8 1_555 1_555
H44_8 C68_8 1_555 1_555
H45_8 C71_8 1_555 1_555
H46_8 C70_8 1_555 1_555
C78_8 C56_8 1_555 1_555
C84_8 C68_8 1_555 1_555
C85_8 C70_8 1_555 1_555
C89_8 C78_8 1_555 1_555
C93_8 C84_8 1_555 1_555
C94_8 C85_8 1_555 1_555
N8_8 C89_8 1_555 1_555
N9_8 C89_8 1_555 1_555
N14_8 C93_8 1_555 1_555
N15_8 C94_8 1_555 1_555
N23_8 C93_8 1_555 1_555
N24_8 C94_8 1_555 1_555
C100_8 N8_8 1_555 1_555
C101_8 N9_8 1_555 1_555
C107_8 N23_8 1_555 1_555
N26_8 C100_8 1_555 1_555
O32_4 C8_8 1_555 1_555
C57_8 C78_8 1_555 1_555
C69_8 C84_8 1_555 1_555
C71_8 C85_8 1_555 1_555
N14_8 C101_8 1_555 1_555
N15_8 C100_8 1_555 1_555
N24_8 C107_8 1_555 1_555
C101_8 N26_8 1_555 1_555
C107_8 N26_8 1_555 1_555
O37_4 C1_8 1_555 1_555
C1_8 C2_8 1_555 1_555
C2_8 C3_8 1_555 1_555
C3_8 H1_8 1_555 1_555
C4_8 C3_8 1_555 1_555
H2_8 C4_8 1_555 1_555
C5_8 C4_8 1_555 1_555
C6_8 C5_8 1_555 1_555
N1_8 C6_8 1_555 1_555
C7_8 N1_8 1_555 1_555
N2_8 C7_8 1_555 1_555
Cu5_4 O11_8 1_555 1_555
O34_4 C1_8 1_555 1_555
O10_8 Cu6_4 1_555 1_555
O11_8 C11_8 1_555 1_555
O14_3 C12_8 1_555 1_555
O14_8 Cu6_4 1_555 1_555
O16_10 Cu6_4 1_555 1_555
O17_8 Cu5_4 1_555 1_555
O18_10 Cu5_4 1_555 1_555
O34_7 Cu7_7 1_555 1_555
O37_7 Cu8_7 1_555 1_555
O39_11 Cu6_4 1_555 1_555
O40_11 Cu5_4 1_555 1_555
O41_13 Cu7_7 1_555 1_555
O42_13 Cu8_7 1_555 1_555
C11_8 O10_8 1_555 1_555
C12_8 O17_3 1_555 1_555
C22_8 C11_8 1_555 1_555
C23_8 C12_8 1_555 1_555
C30_8 C2_8 1_555 1_555
C37_8 C22_8 1_555 1_555
C38_8 C22_8 1_555 1_555
C39_8 C23_8 1_555 1_555
C40_8 C23_8 1_555 1_555
H3_8 C30_8 1_555 1_555
H10_8 C37_8 1_555 1_555
H11_8 C38_8 1_555 1_555
H12_8 C39_8 1_555 1_555
H13_8 C40_8 1_555 1_555
C53_8 C5_8 1_555 1_555
C54_8 C37_8 1_555 1_555
C55_8 C38_8 1_555 1_555
C62_8 C39_8 1_555 1_555
C63_8 C40_8 1_555 1_555
H26_8 C53_8 1_555 1_555
H27_8 C54_8 1_555 1_555
H28_8 C55_8 1_555 1_555
H35_8 C62_8 1_555 1_555
H36_8 C63_8 1_555 1_555
C76_8 C54_8 1_555 1_555
C77_8 C62_8 1_555 1_555
C87_8 C76_8 1_555 1_555
C88_8 C77_8 1_555 1_555
N3_8 C6_8 1_555 1_555
N4_8 C7_8 1_555 1_555
N5_8 C88_8 1_555 1_555
N6_8 C87_8 1_555 1_555
N7_8 C88_8 1_555 1_555
C98_8 N2_8 1_555 1_555
C99_8 N2_8 1_555 1_555
C30_8 C53_8 1_555 1_555
C55_8 C76_8 1_555 1_555
C63_8 C77_8 1_555 1_555
C87_8 N4_8 1_555 1_555
N3_8 C98_8 1_555 1_555
N5_8 C98_8 1_555 1_555
N6_8 C99_8 1_555 1_555
N7_8 C99_8 1_555 1_555
O32_7 Cu7_8 1_555 1_555
O33_6 Cu7_8 1_555 1_555
O35_6 Cu8_8 1_555 1_555
O36_7 Cu8_8 1_555 1_555
O41_14 Cu7_8 1_555 1_555
O42_14 Cu8_8 1_555 1_555
O17_7 C16_9 1_555 1_555
O18_9 C15_9 1_555 1_555
C8_9 O34 1_555 1_555
C15_9 O16_9 1_555 1_555
C16_9 O14_7 1_555 1_555
C19_9 C8_9 1_555 1_555
C27_9 C16_9 1_555 1_555
C28_9 C15_9 1_555 1_555
C31_9 C19_9 1_555 1_555
C32_9 C19_9 1_555 1_555
C47_9 C27_9 1_555 1_555
C48_9 C27_9 1_555 1_555
C49_9 C28_9 1_555 1_555
C50_9 C28_9 1_555 1_555
H4_9 C31_9 1_555 1_555
H5_9 C32_9 1_555 1_555
H20_9 C47_9 1_555 1_555
H21_9 C48_9 1_555 1_555
H22_9 C50_9 1_555 1_555
H23_9 C49_9 1_555 1_555
C56_9 C31_9 1_555 1_555
C57_9 C32_9 1_555 1_555
C68_9 C48_9 1_555 1_555
C69_9 C47_9 1_555 1_555
C70_9 C50_9 1_555 1_555
C71_9 C49_9 1_555 1_555
H29_9 C56_9 1_555 1_555
H30_9 C57_9 1_555 1_555
H43_9 C69_9 1_555 1_555
H44_9 C68_9 1_555 1_555
H45_9 C71_9 1_555 1_555
H46_9 C70_9 1_555 1_555
C78_9 C56_9 1_555 1_555
C84_9 C68_9 1_555 1_555
C85_9 C70_9 1_555 1_555
C89_9 C78_9 1_555 1_555
C93_9 C84_9 1_555 1_555
C94_9 C85_9 1_555 1_555
N8_9 C89_9 1_555 1_555
N9_9 C89_9 1_555 1_555
N14_9 C93_9 1_555 1_555
N15_9 C94_9 1_555 1_555
N23_9 C93_9 1_555 1_555
N24_9 C94_9 1_555 1_555
C100_9 N8_9 1_555 1_555
C101_9 N9_9 1_555 1_555
C107_9 N23_9 1_555 1_555
N26_9 C100_9 1_555 1_555
O37 C8_9 1_555 1_555
C57_9 C78_9 1_555 1_555
C69_9 C84_9 1_555 1_555
C71_9 C85_9 1_555 1_555
N14_9 C101_9 1_555 1_555
N15_9 C100_9 1_555 1_555
N24_9 C107_9 1_555 1_555
C101_9 N26_9 1_555 1_555
C107_9 N26_9 1_555 1_555
O32 C1_9 1_555 1_555
C1_9 C2_9 1_555 1_555
C2_9 C3_9 1_555 1_555
C3_9 H1_9 1_555 1_555
C4_9 C3_9 1_555 1_555
H2_9 C4_9 1_555 1_555
C5_9 C4_9 1_555 1_555
C6_9 C5_9 1_555 1_555
N1_9 C6_9 1_555 1_555
C7_9 N1_9 1_555 1_555
N2_9 C7_9 1_555 1_555
Cu5_3 O11_9 1_555 1_555
O36 C1_9 1_555 1_555
O10_9 Cu6_3 1_555 1_555
O11_9 C11_9 1_555 1_555
O15_6 C12_9 1_555 1_555
O15_8 Cu6_3 1_555 1_555
O19_8 Cu5_3 1_555 1_555
O39_12 Cu6_3 1_555 1_555
O40_12 Cu5_3 1_555 1_555
C11_9 O10_9 1_555 1_555
C12_9 O19_6 1_555 1_555
C22_9 C11_9 1_555 1_555
C23_9 C12_9 1_555 1_555
C30_9 C2_9 1_555 1_555
C37_9 C22_9 1_555 1_555
C38_9 C22_9 1_555 1_555
C39_9 C23_9 1_555 1_555
C40_9 C23_9 1_555 1_555
H3_9 C30_9 1_555 1_555
H10_9 C37_9 1_555 1_555
H11_9 C38_9 1_555 1_555
H12_9 C39_9 1_555 1_555
H13_9 C40_9 1_555 1_555
C53_9 C5_9 1_555 1_555
C54_9 C37_9 1_555 1_555
C55_9 C38_9 1_555 1_555
C62_9 C39_9 1_555 1_555
C63_9 C40_9 1_555 1_555
H26_9 C53_9 1_555 1_555
H27_9 C54_9 1_555 1_555
H28_9 C55_9 1_555 1_555
H35_9 C62_9 1_555 1_555
H36_9 C63_9 1_555 1_555
C76_9 C54_9 1_555 1_555
C77_9 C62_9 1_555 1_555
C87_9 C76_9 1_555 1_555
C88_9 C77_9 1_555 1_555
N3_9 C6_9 1_555 1_555
N4_9 C7_9 1_555 1_555
N5_9 C88_9 1_555 1_555
N6_9 C87_9 1_555 1_555
N7_9 C88_9 1_555 1_555
C98_9 N2_9 1_555 1_555
C99_9 N2_9 1_555 1_555
C30_9 C53_9 1_555 1_555
C55_9 C76_9 1_555 1_555
C63_9 C77_9 1_555 1_555
C87_9 N4_9 1_555 1_555
N3_9 C98_9 1_555 1_555
N5_9 C98_9 1_555 1_555
N6_9 C99_9 1_555 1_555
N7_9 C99_9 1_555 1_555
O15_4 C13_2 1_555 1_555
O16_3 C14_2 1_555 1_555
C10_2 O37_7 1_555 1_555
C13_2 O19_4 1_555 1_555
C14_2 O18_3 1_555 1_555
C21_2 C10_2 1_555 1_555
C25_2 C14_2 1_555 1_555
C26_2 C13_2 1_555 1_555
C35_2 C21_2 1_555 1_555
C36_2 C21_2 1_555 1_555
C43_2 C25_2 1_555 1_555
C44_2 C25_2 1_555 1_555
C45_2 C26_2 1_555 1_555
C46_2 C26_2 1_555 1_555
H8_2 C35_2 1_555 1_555
H9_2 C36_2 1_555 1_555
H16_2 C43_2 1_555 1_555
H17_2 C44_2 1_555 1_555
H18_2 C45_2 1_555 1_555
H19_2 C46_2 1_555 1_555
C60_2 C35_2 1_555 1_555
C61_2 C36_2 1_555 1_555
C64_2 C43_2 1_555 1_555
C65_2 C44_2 1_555 1_555
C66_2 C46_2 1_555 1_555
C67_2 C45_2 1_555 1_555
H33_2 C60_2 1_555 1_555
H34_2 C61_2 1_555 1_555
H39_2 C64_2 1_555 1_555
H40_2 C65_2 1_555 1_555
H41_2 C67_2 1_555 1_555
H42_2 C66_2 1_555 1_555
C80_2 C60_2 1_555 1_555
C82_2 C64_2 1_555 1_555
C83_2 C66_2 1_555 1_555
C91_2 C80_2 1_555 1_555
C95_2 C82_2 1_555 1_555
C96_2 C83_2 1_555 1_555
N12_2 C91_2 1_555 1_555
N13_2 C91_2 1_555 1_555
N16_2 C95_2 1_555 1_555
N17_2 C96_2 1_555 1_555
N21_2 C95_2 1_555 1_555
N22_2 C96_2 1_555 1_555
C104_2 N12_2 1_555 1_555
C105_2 N13_2 1_555 1_555
C106_2 N21_2 1_555 1_555
N27_2 C104_2 1_555 1_555
O34_7 C10_2 1_555 1_555
C61_2 C80_2 1_555 1_555
C65_2 C82_2 1_555 1_555
C67_2 C83_2 1_555 1_555
N16_2 C105_2 1_555 1_555
N17_2 C104_2 1_555 1_555
N22_2 C106_2 1_555 1_555
C105_2 N27_2 1_555 1_555
C106_2 N27_2 1_555 1_555
O35_6 C1_10 1_555 1_555
C1_10 C2_10 1_555 1_555
C2_10 C3_10 1_555 1_555
C3_10 H1_10 1_555 1_555
C4_10 C3_10 1_555 1_555
H2_10 C4_10 1_555 1_555
C5_10 C4_10 1_555 1_555
C6_10 C5_10 1_555 1_555
N1_10 C6_10 1_555 1_555
C7_10 N1_10 1_555 1_555
N2_10 C7_10 1_555 1_555
O33_6 C1_10 1_555 1_555
O33_4 C11_10 1_555 1_555
O33_5 C12_10 1_555 1_555
O14_5 C17_7 1_555 1_555
O16_6 C18_7 1_555 1_555
C9_7 O36_7 1_555 1_555
C11_10 O35_4 1_555 1_555
C12_10 O35_5 1_555 1_555
C17_7 O17_5 1_555 1_555
C18_7 O18_6 1_555 1_555
C20_7 C9_7 1_555 1_555
C22_10 C11_10 1_555 1_555
C23_10 C12_10 1_555 1_555
C24_7 C17_7 1_555 1_555
C29_7 C18_7 1_555 1_555
C30_10 C2_10 1_555 1_555
C33_7 C20_7 1_555 1_555
C34_7 C20_7 1_555 1_555
C37_10 C22_10 1_555 1_555
C38_10 C22_10 1_555 1_555
C39_10 C23_10 1_555 1_555
C40_10 C23_10 1_555 1_555
C41_7 C24_7 1_555 1_555
C42_7 C24_7 1_555 1_555
C51_7 C29_7 1_555 1_555
C52_7 C29_7 1_555 1_555
H3_10 C30_10 1_555 1_555
H6_7 C33_7 1_555 1_555
H7_7 C34_7 1_555 1_555
H10_10 C37_10 1_555 1_555
H11_10 C38_10 1_555 1_555
H12_10 C39_10 1_555 1_555
H13_10 C40_10 1_555 1_555
H14_7 C41_7 1_555 1_555
H15_7 C42_7 1_555 1_555
H24_7 C51_7 1_555 1_555
H25_7 C52_7 1_555 1_555
C53_10 C5_10 1_555 1_555
C54_10 C37_10 1_555 1_555
C55_10 C38_10 1_555 1_555
C58_7 C33_7 1_555 1_555
C59_7 C34_7 1_555 1_555
C62_10 C39_10 1_555 1_555
C63_10 C40_10 1_555 1_555
C72_7 C42_7 1_555 1_555
C73_7 C41_7 1_555 1_555
C74_7 C51_7 1_555 1_555
C75_7 C52_7 1_555 1_555
H26_10 C53_10 1_555 1_555
H27_10 C54_10 1_555 1_555
H28_10 C55_10 1_555 1_555
H31_7 C58_7 1_555 1_555
H32_7 C59_7 1_555 1_555
H35_10 C62_10 1_555 1_555
H36_10 C63_10 1_555 1_555
H37_7 C73_7 1_555 1_555
H38_7 C72_7 1_555 1_555
H47_7 C74_7 1_555 1_555
H48_7 C75_7 1_555 1_555
C76_10 C54_10 1_555 1_555
C77_10 C62_10 1_555 1_555
C79_7 C58_7 1_555 1_555
C81_7 C72_7 1_555 1_555
C86_7 C74_7 1_555 1_555
C87_10 C76_10 1_555 1_555
C88_10 C77_10 1_555 1_555
C90_7 C79_7 1_555 1_555
C92_7 C81_7 1_555 1_555
C97_7 C86_7 1_555 1_555
N3_10 C6_10 1_555 1_555
N4_10 C7_10 1_555 1_555
N5_10 C88_10 1_555 1_555
N6_10 C87_10 1_555 1_555
N7_10 C88_10 1_555 1_555
N10_7 C90_7 1_555 1_555
N11_7 C90_7 1_555 1_555
N18_7 C92_7 1_555 1_555
N19_7 C97_7 1_555 1_555
N20_7 C92_7 1_555 1_555
N25_7 C97_7 1_555 1_555
C98_10 N2_10 1_555 1_555
C99_10 N2_10 1_555 1_555
C102_7 N10_7 1_555 1_555
C103_7 N11_7 1_555 1_555
C108_7 N20_7 1_555 1_555
N28_7 C102_7 1_555 1_555
O32_7 C9_7 1_555 1_555
C30_10 C53_10 1_555 1_555
C55_10 C76_10 1_555 1_555
C59_7 C79_7 1_555 1_555
C63_10 C77_10 1_555 1_555
C73_7 C81_7 1_555 1_555
C75_7 C86_7 1_555 1_555
C87_10 N4_10 1_555 1_555
N3_10 C98_10 1_555 1_555
N5_10 C98_10 1_555 1_555
N6_10 C99_10 1_555 1_555
N7_10 C99_10 1_555 1_555
N18_7 C102_7 1_555 1_555
N19_7 C103_7 1_555 1_555
N25_7 C108_7 1_555 1_555
C103_7 N28_7 1_555 1_555
C108_7 N28_7 1_555 1_555
O32_5 C16_10 1_555 1_555
O14_8 C15_10 1_555 1_555
C8_10 O18_7 1_555 1_555
C15_10 O17_8 1_555 1_555
C16_10 O36_5 1_555 1_555
C19_10 C8_10 1_555 1_555
C27_10 C16_10 1_555 1_555
C28_10 C15_10 1_555 1_555
C31_10 C19_10 1_555 1_555
C32_10 C19_10 1_555 1_555
C47_10 C27_10 1_555 1_555
C48_10 C27_10 1_555 1_555
C49_10 C28_10 1_555 1_555
C50_10 C28_10 1_555 1_555
H4_10 C31_10 1_555 1_555
H5_10 C32_10 1_555 1_555
H20_10 C47_10 1_555 1_555
H21_10 C48_10 1_555 1_555
H22_10 C50_10 1_555 1_555
H23_10 C49_10 1_555 1_555
C56_10 C31_10 1_555 1_555
C57_10 C32_10 1_555 1_555
C68_10 C48_10 1_555 1_555
C69_10 C47_10 1_555 1_555
C70_10 C50_10 1_555 1_555
C71_10 C49_10 1_555 1_555
H29_10 C56_10 1_555 1_555
H30_10 C57_10 1_555 1_555
H43_10 C69_10 1_555 1_555
H44_10 C68_10 1_555 1_555
H45_10 C71_10 1_555 1_555
H46_10 C70_10 1_555 1_555
C78_10 C56_10 1_555 1_555
C84_10 C68_10 1_555 1_555
C85_10 C70_10 1_555 1_555
C89_10 C78_10 1_555 1_555
C93_10 C84_10 1_555 1_555
C94_10 C85_10 1_555 1_555
N8_10 C89_10 1_555 1_555
N9_10 C89_10 1_555 1_555
N14_10 C93_10 1_555 1_555
N15_10 C94_10 1_555 1_555
N23_10 C93_10 1_555 1_555
N24_10 C94_10 1_555 1_555
C100_10 N8_10 1_555 1_555
C101_10 N9_10 1_555 1_555
C107_10 N23_10 1_555 1_555
N26_10 C100_10 1_555 1_555
O16_7 C8_10 1_555 1_555
C57_10 C78_10 1_555 1_555
C69_10 C84_10 1_555 1_555
C71_10 C85_10 1_555 1_555
N14_10 C101_10 1_555 1_555
N15_10 C100_10 1_555 1_555
N24_10 C107_10 1_555 1_555
C101_10 N26_10 1_555 1_555
C107_10 N26_10 1_555 1_555
O16_10 C16_11 1_555 1_555
O36_6 C15_11 1_555 1_555
C8_11 O14_4 1_555 1_555
C15_11 O32_6 1_555 1_555
C16_11 O18_10 1_555 1_555
C19_11 C8_11 1_555 1_555
C27_11 C16_11 1_555 1_555
C28_11 C15_11 1_555 1_555
C31_11 C19_11 1_555 1_555
C32_11 C19_11 1_555 1_555
C47_11 C27_11 1_555 1_555
C48_11 C27_11 1_555 1_555
C49_11 C28_11 1_555 1_555
C50_11 C28_11 1_555 1_555
H4_11 C31_11 1_555 1_555
H5_11 C32_11 1_555 1_555
H20_11 C47_11 1_555 1_555
H21_11 C48_11 1_555 1_555
H22_11 C50_11 1_555 1_555
H23_11 C49_11 1_555 1_555
C56_11 C31_11 1_555 1_555
C57_11 C32_11 1_555 1_555
C68_11 C48_11 1_555 1_555
C69_11 C47_11 1_555 1_555
C70_11 C50_11 1_555 1_555
C71_11 C49_11 1_555 1_555
H29_11 C56_11 1_555 1_555
H30_11 C57_11 1_555 1_555
H43_11 C69_11 1_555 1_555
H44_11 C68_11 1_555 1_555
H45_11 C71_11 1_555 1_555
H46_11 C70_11 1_555 1_555
C78_11 C56_11 1_555 1_555
C84_11 C68_11 1_555 1_555
C85_11 C70_11 1_555 1_555
C89_11 C78_11 1_555 1_555
C93_11 C84_11 1_555 1_555
C94_11 C85_11 1_555 1_555
N8_11 C89_11 1_555 1_555
N9_11 C89_11 1_555 1_555
N14_11 C93_11 1_555 1_555
N15_11 C94_11 1_555 1_555
N23_11 C93_11 1_555 1_555
N24_11 C94_11 1_555 1_555
C100_11 N8_11 1_555 1_555
C101_11 N9_11 1_555 1_555
C107_11 N23_11 1_555 1_555
N26_11 C100_11 1_555 1_555
O17_4 C8_11 1_555 1_555
C57_11 C78_11 1_555 1_555
C69_11 C84_11 1_555 1_555
C71_11 C85_11 1_555 1_555
N14_11 C101_11 1_555 1_555
N15_11 C100_11 1_555 1_555
N24_11 C107_11 1_555 1_555
C101_11 N26_11 1_555 1_555
C107_11 N26_11 1_555 1_555
O18 C13_3 1_555 1_555
O37_6 C14_3 1_555 1_555
C10_3 O19_8 1_555 1_555
C13_3 O16 1_555 1_555
C14_3 O34_6 1_555 1_555
C21_3 C10_3 1_555 1_555
C25_3 C14_3 1_555 1_555
C26_3 C13_3 1_555 1_555
C35_3 C21_3 1_555 1_555
C36_3 C21_3 1_555 1_555
C43_3 C25_3 1_555 1_555
C44_3 C25_3 1_555 1_555
C45_3 C26_3 1_555 1_555
C46_3 C26_3 1_555 1_555
H8_3 C35_3 1_555 1_555
H9_3 C36_3 1_555 1_555
H16_3 C43_3 1_555 1_555
H17_3 C44_3 1_555 1_555
H18_3 C45_3 1_555 1_555
H19_3 C46_3 1_555 1_555
C60_3 C35_3 1_555 1_555
C61_3 C36_3 1_555 1_555
C64_3 C43_3 1_555 1_555
C65_3 C44_3 1_555 1_555
C66_3 C46_3 1_555 1_555
C67_3 C45_3 1_555 1_555
H33_3 C60_3 1_555 1_555
H34_3 C61_3 1_555 1_555
H39_3 C64_3 1_555 1_555
H40_3 C65_3 1_555 1_555
H41_3 C67_3 1_555 1_555
H42_3 C66_3 1_555 1_555
C80_3 C60_3 1_555 1_555
C82_3 C64_3 1_555 1_555
C83_3 C66_3 1_555 1_555
C91_3 C80_3 1_555 1_555
C95_3 C82_3 1_555 1_555
C96_3 C83_3 1_555 1_555
N12_3 C91_3 1_555 1_555
N13_3 C91_3 1_555 1_555
N16_3 C95_3 1_555 1_555
N17_3 C96_3 1_555 1_555
N21_3 C95_3 1_555 1_555
N22_3 C96_3 1_555 1_555
C104_3 N12_3 1_555 1_555
C105_3 N13_3 1_555 1_555
C106_3 N21_3 1_555 1_555
N27_3 C104_3 1_555 1_555
O15_8 C10_3 1_555 1_555
C61_3 C80_3 1_555 1_555
C65_3 C82_3 1_555 1_555
C67_3 C83_3 1_555 1_555
N16_3 C105_3 1_555 1_555
N17_3 C104_3 1_555 1_555
N22_3 C106_3 1_555 1_555
C105_3 N27_3 1_555 1_555
C106_3 N27_3 1_555 1_555
O34_5 C13_4 1_555 1_555
O19_7 C14_4 1_555 1_555
C10_4 O16_2 1_555 1_555
C13_4 O37_5 1_555 1_555
C14_4 O15_7 1_555 1_555
C21_4 C10_4 1_555 1_555
C25_4 C14_4 1_555 1_555
C26_4 C13_4 1_555 1_555
C35_4 C21_4 1_555 1_555
C36_4 C21_4 1_555 1_555
C43_4 C25_4 1_555 1_555
C44_4 C25_4 1_555 1_555
C45_4 C26_4 1_555 1_555
C46_4 C26_4 1_555 1_555
H8_4 C35_4 1_555 1_555
H9_4 C36_4 1_555 1_555
H16_4 C43_4 1_555 1_555
H17_4 C44_4 1_555 1_555
H18_4 C45_4 1_555 1_555
H19_4 C46_4 1_555 1_555
C60_4 C35_4 1_555 1_555
C61_4 C36_4 1_555 1_555
C64_4 C43_4 1_555 1_555
C65_4 C44_4 1_555 1_555
C66_4 C46_4 1_555 1_555
C67_4 C45_4 1_555 1_555
H33_4 C60_4 1_555 1_555
H34_4 C61_4 1_555 1_555
H39_4 C64_4 1_555 1_555
H40_4 C65_4 1_555 1_555
H41_4 C67_4 1_555 1_555
H42_4 C66_4 1_555 1_555
C80_4 C60_4 1_555 1_555
C82_4 C64_4 1_555 1_555
C83_4 C66_4 1_555 1_555
C91_4 C80_4 1_555 1_555
C95_4 C82_4 1_555 1_555
C96_4 C83_4 1_555 1_555
N12_4 C91_4 1_555 1_555
N13_4 C91_4 1_555 1_555
N16_4 C95_4 1_555 1_555
N17_4 C96_4 1_555 1_555
N21_4 C95_4 1_555 1_555
N22_4 C96_4 1_555 1_555
C104_4 N12_4 1_555 1_555
C105_4 N13_4 1_555 1_555
C106_4 N21_4 1_555 1_555
N27_4 C104_4 1_555 1_555
O18_2 C10_4 1_555 1_555
C61_4 C80_4 1_555 1_555
C65_4 C82_4 1_555 1_555
C67_4 C83_4 1_555 1_555
N16_4 C105_4 1_555 1_555
N17_4 C104_4 1_555 1_555
N22_4 C106_4 1_555 1_555
C105_4 N27_4 1_555 1_555
C106_4 N27_4 1_555 1_555

#END
