
###############################################################################
#
# This file contains modified crystal structure data generated from the
# MOF subset of the Cambridge Structural Database (CSD) v543 
# hosted by the Cambridge Crystallographic Data Centre (CCDC).
#
# This work is licensed under the Creative Commons
# Attribution-NonCommercial-ShareAlike 4.0 International License.
# To view a copy of this license, visit
# http://creativecommons.org/licenses/by-nc-sa/4.0/
# or send a letter to
# Creative Commons, PO Box 1866, Mountain View, CA 94042, USA.
#
# CIF created using the CSD Python API on 29 September 2022
# The structure has been converted into the P1 space group
# The structure has a 3D framework
# The original CSD entry NIFROM is in the cubic crystal system
# The framework has been calculated to contain at least 10.0% void space
# The void calculation uses a probe of radius 1.32A, grid spacing 0.4
#
###############################################################################

data_NIFROM
_chemical_formula_moiety         '(C96 H120 N48 Zn18)n'
_symmetry_cell_setting           triclinic
_symmetry_space_group_name_H-M   'P 1'
_symmetry_Int_Tables_number      1
_space_group_name_Hall           'P 1'
loop_
_symmetry_equiv_pos_site_id
_symmetry_equiv_pos_as_xyz
1 x,y,z
_cell_length_a                   17.0079(6)
_cell_length_b                   17.0079(6)
_cell_length_c                   17.0079(6)
_cell_angle_alpha                90
_cell_angle_beta                 90
_cell_angle_gamma                90
_cell_volume                     4919.85
loop_
_atom_site_label
_atom_site_type_symbol
_atom_site_fract_x
_atom_site_fract_y
_atom_site_fract_z
_atom_site_U_iso_or_equiv
_atom_site_thermal_displace_type
C1 C 0.3775(5) 0.0081(13) 0.6225(5) 0.0480 Uiso
C3 C 0.4036(9) 0.0896(13) 0.5964(9) 0.0730 Uiso
Zn1 Zn 0.5000 0.0000 0.7500 0.0568 Uiso
H2 H 0.4431(12) 0.085(2) 0.5569(12) 0.0862 Uiso
H3 H 0.3595(16) 0.1179(15) 0.5757(16) 0.0862 Uiso
H5 H 0.4243(16) 0.1179(15) 0.6405(16) 0.0862 Uiso
C6 C 0.6307(7) 0.1035(9) 0.6845(7) 0.0740 Uiso
N3 N 0.5900(5) 0.0311(5) 0.6819(5) 0.0540 Uiso
H6 H 0.6202(13) 0.1446(14) 0.7190(13) 0.0854 Uiso
C8 C 0.6845(7) 0.1035(9) 0.6307(7) 0.0740 Uiso
N4 N 0.6819(5) 0.0311(5) 0.5900(5) 0.0540 Uiso
H9 H 0.7190(13) 0.1446(14) 0.6202(13) 0.0854 Uiso
N5 N 0.4689(5) 0.0900(5) 0.8181(5) 0.0540 Uiso
Zn2 Zn 0.2500 0.0000 0.5000 0.0568 Uiso
Zn3 Zn 0.7500 0.0000 0.5000 0.0568 Uiso
C2 C 0.3693(7) 0.8965(9) 0.6845(7) 0.0740 Uiso
N1 N 0.4100(5) 0.9689(5) 0.6819(5) 0.0540 Uiso
Zn1_2 Zn 0.5000 1.0000 0.7500 0.0568 Uiso
H1 H 0.3798(13) 0.8554(14) 0.7190(13) 0.0854 Uiso
C4 C 0.3155(7) 0.8965(9) 0.6307(7) 0.0740 Uiso
N2 N 0.3181(5) 0.9689(5) 0.5900(5) 0.0540 Uiso
H4 H 0.2810(13) 0.8554(14) 0.6202(13) 0.0854 Uiso
C5 C 0.6225(5) 0.9919(13) 0.6225(5) 0.0480 Uiso
C7 C 0.5964(9) 0.9104(13) 0.5964(9) 0.0730 Uiso
H7 H 0.5569(12) 0.915(2) 0.5569(12) 0.0862 Uiso
H8 H 0.6405(16) 0.8821(15) 0.5757(16) 0.0862 Uiso
H10 H 0.5757(16) 0.8821(15) 0.6405(16) 0.0862 Uiso
N6 N 0.5311(5) 0.9100(5) 0.8181(5) 0.0540 Uiso
Zn2_2 Zn 0.2500 1.0000 0.5000 0.0568 Uiso
Zn3_2 Zn 0.7500 1.0000 0.5000 0.0568 Uiso
Zn1_3 Zn -0.0000 0.5000 0.2500 0.0568 Uiso
C5_2 C 0.1225(5) 0.4919(13) 0.1225(5) 0.0480 Uiso
C6_2 C 0.1307(7) 0.6035(9) 0.1845(7) 0.0740 Uiso
C7_2 C 0.0964(9) 0.4104(13) 0.0964(9) 0.0730 Uiso
N3_2 N 0.0900(5) 0.5311(5) 0.1819(5) 0.0540 Uiso
H6_2 H 0.1202(13) 0.6446(14) 0.2190(13) 0.0854 Uiso
H7_2 H 0.0569(12) 0.415(2) 0.0569(12) 0.0862 Uiso
H8_2 H 0.1405(16) 0.3821(15) 0.0757(16) 0.0862 Uiso
C8_2 C 0.1845(7) 0.6035(9) 0.1307(7) 0.0740 Uiso
N4_2 N 0.1819(5) 0.5311(5) 0.0900(5) 0.0540 Uiso
H9_2 H 0.2190(13) 0.6446(14) 0.1202(13) 0.0854 Uiso
H10_2 H 0.0757(16) 0.3821(15) 0.1405(16) 0.0862 Uiso
N6_2 N 0.0311(5) 0.4100(5) 0.3181(5) 0.0540 Uiso
Zn3_3 Zn 0.2500 0.5000 0.0000 0.0568 Uiso
Zn3_4 Zn 0.2500 0.5000 1.0000 0.0568 Uiso
C1_2 C 0.8775(5) 0.5081(13) 0.1225(5) 0.0480 Uiso
C2_2 C 0.8693(7) 0.3965(9) 0.1845(7) 0.0740 Uiso
C3_2 C 0.9036(9) 0.5896(13) 0.0964(9) 0.0730 Uiso
N1_2 N 0.9100(5) 0.4689(5) 0.1819(5) 0.0540 Uiso
Zn1_4 Zn 1.0000 0.5000 0.2500 0.0568 Uiso
H1_2 H 0.8798(13) 0.3554(14) 0.2190(13) 0.0854 Uiso
H2_2 H 0.9431(12) 0.585(2) 0.0569(12) 0.0862 Uiso
H3_2 H 0.8595(16) 0.6179(15) 0.0757(16) 0.0862 Uiso
C4_2 C 0.8155(7) 0.3965(9) 0.1307(7) 0.0740 Uiso
N2_2 N 0.8181(5) 0.4689(5) 0.0900(5) 0.0540 Uiso
H4_2 H 0.7810(13) 0.3554(14) 0.1202(13) 0.0854 Uiso
H5_2 H 0.9243(16) 0.6179(15) 0.1405(16) 0.0862 Uiso
N5_2 N 0.9689(5) 0.5900(5) 0.3181(5) 0.0540 Uiso
Zn2_3 Zn 0.7500 0.5000 0.0000 0.0568 Uiso
Zn2_4 Zn 0.7500 0.5000 1.0000 0.0568 Uiso
C1_3 C 0.0081(13) 0.6225(5) 0.3775(5) 0.0480 Uiso
C3_3 C 0.0896(13) 0.5964(9) 0.4036(9) 0.0730 Uiso
Zn1_5 Zn 0.0000 0.7500 0.5000 0.0568 Uiso
H2_3 H 0.085(2) 0.5569(12) 0.4431(12) 0.0862 Uiso
H3_3 H 0.1179(15) 0.5757(16) 0.3595(16) 0.0862 Uiso
H5_3 H 0.1179(15) 0.6405(16) 0.4243(16) 0.0862 Uiso
C6_3 C 0.1035(9) 0.6845(7) 0.6307(7) 0.0740 Uiso
N3_3 N 0.0311(5) 0.6819(5) 0.5900(5) 0.0540 Uiso
H6_3 H 0.1446(14) 0.7190(13) 0.6202(13) 0.0854 Uiso
C8_3 C 0.1035(9) 0.6307(7) 0.6845(7) 0.0740 Uiso
N4_3 N 0.0311(5) 0.5900(5) 0.6819(5) 0.0540 Uiso
H9_3 H 0.1446(14) 0.6202(13) 0.7190(13) 0.0854 Uiso
N5_3 N 0.0900(5) 0.8181(5) 0.4689(5) 0.0540 Uiso
Zn3_5 Zn 0.0000 0.5000 0.7500 0.0568 Uiso
C2_3 C 0.8965(9) 0.6845(7) 0.3693(7) 0.0740 Uiso
N1_3 N 0.9689(5) 0.6819(5) 0.4100(5) 0.0540 Uiso
Zn1_6 Zn 1.0000 0.7500 0.5000 0.0568 Uiso
H1_3 H 0.8554(14) 0.7190(13) 0.3798(13) 0.0854 Uiso
C4_3 C 0.8965(9) 0.6307(7) 0.3155(7) 0.0740 Uiso
H4_3 H 0.8554(14) 0.6202(13) 0.2810(13) 0.0854 Uiso
C5_3 C 0.9919(13) 0.6225(5) 0.6225(5) 0.0480 Uiso
C7_3 C 0.9104(13) 0.5964(9) 0.5964(9) 0.0730 Uiso
H7_3 H 0.915(2) 0.5569(12) 0.5569(12) 0.0862 Uiso
H8_3 H 0.8821(15) 0.5757(16) 0.6405(16) 0.0862 Uiso
H10_3 H 0.8821(15) 0.6405(16) 0.5757(16) 0.0862 Uiso
N6_3 N 0.9100(5) 0.8181(5) 0.5311(5) 0.0540 Uiso
Zn3_6 Zn 1.0000 0.5000 0.7500 0.0568 Uiso
Zn1_7 Zn 0.5000 0.2500 -0.0000 0.0568 Uiso
C5_4 C 0.4919(13) 0.1225(5) 0.1225(5) 0.0480 Uiso
C6_4 C 0.6035(9) 0.1845(7) 0.1307(7) 0.0740 Uiso
C7_4 C 0.4104(13) 0.0964(9) 0.0964(9) 0.0730 Uiso
N3_4 N 0.5311(5) 0.1819(5) 0.0900(5) 0.0540 Uiso
H6_4 H 0.6446(14) 0.2190(13) 0.1202(13) 0.0854 Uiso
H7_4 H 0.415(2) 0.0569(12) 0.0569(12) 0.0862 Uiso
H8_4 H 0.3821(15) 0.0757(16) 0.1405(16) 0.0862 Uiso
C8_4 C 0.6035(9) 0.1307(7) 0.1845(7) 0.0740 Uiso
N4_4 N 0.5311(5) 0.0900(5) 0.1819(5) 0.0540 Uiso
H9_4 H 0.6446(14) 0.1202(13) 0.2190(13) 0.0854 Uiso
H10_4 H 0.3821(15) 0.1405(16) 0.0757(16) 0.0862 Uiso
N6_4 N 0.4100(5) 0.3181(5) 0.0311(5) 0.0540 Uiso
Zn3_7 Zn 0.5000 0.0000 0.2500 0.0568 Uiso
C1_4 C 0.5081(13) 0.1225(5) 0.8775(5) 0.0480 Uiso
C2_4 C 0.3965(9) 0.1845(7) 0.8693(7) 0.0740 Uiso
C3_4 C 0.5896(13) 0.0964(9) 0.9036(9) 0.0730 Uiso
N1_4 N 0.4689(5) 0.1819(5) 0.9100(5) 0.0540 Uiso
Zn1_8 Zn 0.5000 0.2500 1.0000 0.0568 Uiso
H1_4 H 0.3554(14) 0.2190(13) 0.8798(13) 0.0854 Uiso
H2_4 H 0.585(2) 0.0569(12) 0.9431(12) 0.0862 Uiso
H3_4 H 0.6179(15) 0.0757(16) 0.8595(16) 0.0862 Uiso
C4_4 C 0.3965(9) 0.1307(7) 0.8155(7) 0.0740 Uiso
H4_4 H 0.3554(14) 0.1202(13) 0.7810(13) 0.0854 Uiso
H5_4 H 0.6179(15) 0.1405(16) 0.9243(16) 0.0862 Uiso
N5_4 N 0.5900(5) 0.3181(5) 0.9689(5) 0.0540 Uiso
Zn3_8 Zn 0.5000 1.0000 0.2500 0.0568 Uiso
C1_5 C 0.6225(5) 0.3775(5) 0.0081(13) 0.0480 Uiso
C3_5 C 0.5964(9) 0.4036(9) 0.0896(13) 0.0730 Uiso
H2_5 H 0.5569(12) 0.4431(12) 0.085(2) 0.0862 Uiso
H3_5 H 0.5757(16) 0.3595(16) 0.1179(15) 0.0862 Uiso
H5_5 H 0.6405(16) 0.4243(16) 0.1179(15) 0.0862 Uiso
C6_5 C 0.6845(7) 0.6307(7) 0.1035(9) 0.0740 Uiso
N3_5 N 0.6819(5) 0.5900(5) 0.0311(5) 0.0540 Uiso
H6_5 H 0.7190(13) 0.6202(13) 0.1446(14) 0.0854 Uiso
C8_5 C 0.6307(7) 0.6845(7) 0.1035(9) 0.0740 Uiso
N4_5 N 0.5900(5) 0.6819(5) 0.0311(5) 0.0540 Uiso
H9_5 H 0.6202(13) 0.7190(13) 0.1446(14) 0.0854 Uiso
Zn3_9 Zn 0.5000 0.7500 0.0000 0.0568 Uiso
C2_5 C 0.6845(7) 0.3693(7) 0.8965(9) 0.0740 Uiso
N1_5 N 0.6819(5) 0.4100(5) 0.9689(5) 0.0540 Uiso
H1_5 H 0.7190(13) 0.3798(13) 0.8554(14) 0.0854 Uiso
C4_5 C 0.6307(7) 0.3155(7) 0.8965(9) 0.0740 Uiso
H4_5 H 0.6202(13) 0.2810(13) 0.8554(14) 0.0854 Uiso
C5_5 C 0.6225(5) 0.6225(5) 0.9919(13) 0.0480 Uiso
C7_5 C 0.5964(9) 0.5964(9) 0.9104(13) 0.0730 Uiso
H7_5 H 0.5569(12) 0.5569(12) 0.915(2) 0.0862 Uiso
H8_5 H 0.5757(16) 0.6405(16) 0.8821(15) 0.0862 Uiso
H10_5 H 0.6405(16) 0.5757(16) 0.8821(15) 0.0862 Uiso
N6_5 N 0.8181(5) 0.5311(5) 0.9100(5) 0.0540 Uiso
Zn3_10 Zn 0.5000 0.7500 1.0000 0.0568 Uiso
C5_6 C 0.1225(5) 0.1225(5) 0.4919(13) 0.0480 Uiso
C6_6 C 0.1845(7) 0.1307(7) 0.6035(9) 0.0740 Uiso
C7_6 C 0.0964(9) 0.0964(9) 0.4104(13) 0.0730 Uiso
N3_6 N 0.1819(5) 0.0900(5) 0.5311(5) 0.0540 Uiso
H6_6 H 0.2190(13) 0.1202(13) 0.6446(14) 0.0854 Uiso
H7_6 H 0.0569(12) 0.0569(12) 0.415(2) 0.0862 Uiso
H8_6 H 0.0757(16) 0.1405(16) 0.3821(15) 0.0862 Uiso
C8_6 C 0.1307(7) 0.1845(7) 0.6035(9) 0.0740 Uiso
N4_6 N 0.0900(5) 0.1819(5) 0.5311(5) 0.0540 Uiso
H9_6 H 0.1202(13) 0.2190(13) 0.6446(14) 0.0854 Uiso
H10_6 H 0.1405(16) 0.0757(16) 0.3821(15) 0.0862 Uiso
N6_6 N 0.3181(5) 0.0311(5) 0.4100(5) 0.0540 Uiso
Zn3_11 Zn 0.0000 0.2500 0.5000 0.0568 Uiso
C1_6 C 0.1225(5) 0.8775(5) 0.5081(13) 0.0480 Uiso
C2_6 C 0.1845(7) 0.8693(7) 0.3965(9) 0.0740 Uiso
C3_6 C 0.0964(9) 0.9036(9) 0.5896(13) 0.0730 Uiso
N1_6 N 0.1819(5) 0.9100(5) 0.4689(5) 0.0540 Uiso
H1_6 H 0.2190(13) 0.8798(13) 0.3554(14) 0.0854 Uiso
H2_6 H 0.0569(12) 0.9431(12) 0.585(2) 0.0862 Uiso
H3_6 H 0.0757(16) 0.8595(16) 0.6179(15) 0.0862 Uiso
C4_6 C 0.1307(7) 0.8155(7) 0.3965(9) 0.0740 Uiso
H4_6 H 0.1202(13) 0.7810(13) 0.3554(14) 0.0854 Uiso
H5_6 H 0.1405(16) 0.9243(16) 0.6179(15) 0.0862 Uiso
Zn3_12 Zn 1.0000 0.2500 0.5000 0.0568 Uiso
C6_7 C 0.1035(9) 0.3693(7) 0.3155(7) 0.0740 Uiso
H6_7 H 0.1446(14) 0.3798(13) 0.2810(13) 0.0854 Uiso
C8_7 C 0.1035(9) 0.3155(7) 0.3693(7) 0.0740 Uiso
N4_7 N 0.0311(5) 0.3181(5) 0.4100(5) 0.0540 Uiso
H9_7 H 0.1446(14) 0.2810(13) 0.3798(13) 0.0854 Uiso
C5_7 C 0.9919(13) 0.3775(5) 0.3775(5) 0.0480 Uiso
C7_7 C 0.9104(13) 0.4036(9) 0.4036(9) 0.0730 Uiso
H7_7 H 0.915(2) 0.4431(12) 0.4431(12) 0.0862 Uiso
H8_7 H 0.8821(15) 0.3595(16) 0.4243(16) 0.0862 Uiso
H10_7 H 0.8821(15) 0.4243(16) 0.3595(16) 0.0862 Uiso
C5_8 C 0.4919(13) 0.8775(5) 0.8775(5) 0.0480 Uiso
C6_8 C 0.6035(9) 0.8693(7) 0.8155(7) 0.0740 Uiso
C7_8 C 0.4104(13) 0.9036(9) 0.9036(9) 0.0730 Uiso
H6_8 H 0.6446(14) 0.8798(13) 0.7810(13) 0.0854 Uiso
H7_8 H 0.415(2) 0.9431(12) 0.9431(12) 0.0862 Uiso
H8_8 H 0.3821(15) 0.8595(16) 0.9243(16) 0.0862 Uiso
C8_8 C 0.6035(9) 0.8155(7) 0.8693(7) 0.0740 Uiso
N4_8 N 0.5311(5) 0.8181(5) 0.9100(5) 0.0540 Uiso
H9_8 H 0.6446(14) 0.7810(13) 0.8798(13) 0.0854 Uiso
H10_8 H 0.3821(15) 0.9243(16) 0.8595(16) 0.0862 Uiso
C5_9 C 0.6225(5) 0.0081(13) 0.3775(5) 0.0480 Uiso
C7_9 C 0.5964(9) 0.0896(13) 0.4036(9) 0.0730 Uiso
H7_9 H 0.5569(12) 0.085(2) 0.4431(12) 0.0862 Uiso
H8_9 H 0.5757(16) 0.1179(15) 0.3595(16) 0.0862 Uiso
H10_9 H 0.6405(16) 0.1179(15) 0.4243(16) 0.0862 Uiso
N6_7 N 0.8181(5) 0.0900(5) 0.4689(5) 0.0540 Uiso
C6_9 C 0.6845(7) 0.8965(9) 0.3693(7) 0.0740 Uiso
N3_7 N 0.6819(5) 0.9689(5) 0.4100(5) 0.0540 Uiso
H6_9 H 0.7190(13) 0.8554(14) 0.3798(13) 0.0854 Uiso
C8_9 C 0.6307(7) 0.8965(9) 0.3155(7) 0.0740 Uiso
N4_9 N 0.5900(5) 0.9689(5) 0.3181(5) 0.0540 Uiso
H9_9 H 0.6202(13) 0.8554(14) 0.2810(13) 0.0854 Uiso
N5_5 N 0.8181(5) 0.9100(5) 0.5311(5) 0.0540 Uiso
N5_6 N 0.3181(5) 0.4100(5) 0.0311(5) 0.0540 Uiso
C5_10 C 0.1225(5) 0.5081(13) 0.8775(5) 0.0480 Uiso
C6_10 C 0.1845(7) 0.3965(9) 0.8693(7) 0.0740 Uiso
C7_10 C 0.0964(9) 0.5896(13) 0.9036(9) 0.0730 Uiso
N3_8 N 0.1819(5) 0.4689(5) 0.9100(5) 0.0540 Uiso
H6_10 H 0.2190(13) 0.3554(14) 0.8798(13) 0.0854 Uiso
H7_10 H 0.0569(12) 0.585(2) 0.9431(12) 0.0862 Uiso
H8_10 H 0.0757(16) 0.6179(15) 0.8595(16) 0.0862 Uiso
C8_10 C 0.1307(7) 0.3965(9) 0.8155(7) 0.0740 Uiso
N4_10 N 0.0900(5) 0.4689(5) 0.8181(5) 0.0540 Uiso
H9_10 H 0.1202(13) 0.3554(14) 0.7810(13) 0.0854 Uiso
H10_10 H 0.1405(16) 0.6179(15) 0.9243(16) 0.0862 Uiso
N6_8 N 0.3181(5) 0.5900(5) 0.9689(5) 0.0540 Uiso
C2_7 C 0.3693(7) 0.3155(7) 0.1035(9) 0.0740 Uiso
H1_7 H 0.3798(13) 0.2810(13) 0.1446(14) 0.0854 Uiso
C4_7 C 0.3155(7) 0.3693(7) 0.1035(9) 0.0740 Uiso
H4_7 H 0.2810(13) 0.3798(13) 0.1446(14) 0.0854 Uiso
C1_7 C 0.3775(5) 0.3775(5) 0.9919(13) 0.0480 Uiso
C3_7 C 0.4036(9) 0.4036(9) 0.9104(13) 0.0730 Uiso
H2_7 H 0.4431(12) 0.4431(12) 0.915(2) 0.0862 Uiso
H3_7 H 0.3595(16) 0.4243(16) 0.8821(15) 0.0862 Uiso
H5_7 H 0.4243(16) 0.3595(16) 0.8821(15) 0.0862 Uiso
C1_8 C 0.8775(5) 0.8775(5) 0.4919(13) 0.0480 Uiso
C2_8 C 0.8693(7) 0.8155(7) 0.6035(9) 0.0740 Uiso
C3_8 C 0.9036(9) 0.9036(9) 0.4104(13) 0.0730 Uiso
H1_8 H 0.8798(13) 0.7810(13) 0.6446(14) 0.0854 Uiso
H2_8 H 0.9431(12) 0.9431(12) 0.415(2) 0.0862 Uiso
H3_8 H 0.8595(16) 0.9243(16) 0.3821(15) 0.0862 Uiso
C4_8 C 0.8155(7) 0.8693(7) 0.6035(9) 0.0740 Uiso
H4_8 H 0.7810(13) 0.8798(13) 0.6446(14) 0.0854 Uiso
H5_8 H 0.9243(16) 0.8595(16) 0.3821(15) 0.0862 Uiso
C5_11 C 0.3775(5) 0.6225(5) 0.0081(13) 0.0480 Uiso
C7_11 C 0.4036(9) 0.5964(9) 0.0896(13) 0.0730 Uiso
H7_11 H 0.4431(12) 0.5569(12) 0.085(2) 0.0862 Uiso
H8_11 H 0.4243(16) 0.6405(16) 0.1179(15) 0.0862 Uiso
H10_11 H 0.3595(16) 0.5757(16) 0.1179(15) 0.0862 Uiso
C6_11 C 0.3155(7) 0.6307(7) 0.8965(9) 0.0740 Uiso
H6_11 H 0.2810(13) 0.6202(13) 0.8554(14) 0.0854 Uiso
C8_11 C 0.3693(7) 0.6845(7) 0.8965(9) 0.0740 Uiso
N4_11 N 0.4100(5) 0.6819(5) 0.9689(5) 0.0540 Uiso
H9_11 H 0.3798(13) 0.7190(13) 0.8554(14) 0.0854 Uiso
C5_12 C 0.8775(5) 0.1225(5) 0.5081(13) 0.0480 Uiso
C6_12 C 0.8155(7) 0.1307(7) 0.3965(9) 0.0740 Uiso
C7_12 C 0.9036(9) 0.0964(9) 0.5896(13) 0.0730 Uiso
H6_12 H 0.7810(13) 0.1202(13) 0.3554(14) 0.0854 Uiso
H7_12 H 0.9431(12) 0.0569(12) 0.585(2) 0.0862 Uiso
H8_12 H 0.9243(16) 0.1405(16) 0.6179(15) 0.0862 Uiso
C8_12 C 0.8693(7) 0.1845(7) 0.3965(9) 0.0740 Uiso
N4_12 N 0.9100(5) 0.1819(5) 0.4689(5) 0.0540 Uiso
H9_12 H 0.8798(13) 0.2190(13) 0.3554(14) 0.0854 Uiso
H10_12 H 0.8595(16) 0.0757(16) 0.6179(15) 0.0862 Uiso
C6_13 C 0.3693(7) 0.1035(9) 0.3155(7) 0.0740 Uiso
N3_9 N 0.4100(5) 0.0311(5) 0.3181(5) 0.0540 Uiso
H6_13 H 0.3798(13) 0.1446(14) 0.2810(13) 0.0854 Uiso
C8_13 C 0.3155(7) 0.1035(9) 0.3693(7) 0.0740 Uiso
H9_13 H 0.2810(13) 0.1446(14) 0.3798(13) 0.0854 Uiso
C5_13 C 0.3775(5) 0.9919(13) 0.3775(5) 0.0480 Uiso
C7_13 C 0.4036(9) 0.9104(13) 0.4036(9) 0.0730 Uiso
H7_13 H 0.4431(12) 0.915(2) 0.4431(12) 0.0862 Uiso
H8_13 H 0.3595(16) 0.8821(15) 0.4243(16) 0.0862 Uiso
H10_13 H 0.4243(16) 0.8821(15) 0.3595(16) 0.0862 Uiso
N6_9 N 0.4689(5) 0.9100(5) 0.1819(5) 0.0540 Uiso
C5_14 C 0.8775(5) 0.4919(13) 0.8775(5) 0.0480 Uiso
C6_14 C 0.8693(7) 0.6035(9) 0.8155(7) 0.0740 Uiso
C7_14 C 0.9036(9) 0.4104(13) 0.9036(9) 0.0730 Uiso
N3_10 N 0.9100(5) 0.5311(5) 0.8181(5) 0.0540 Uiso
H6_14 H 0.8798(13) 0.6446(14) 0.7810(13) 0.0854 Uiso
H7_14 H 0.9431(12) 0.415(2) 0.9431(12) 0.0862 Uiso
H8_14 H 0.8595(16) 0.3821(15) 0.9243(16) 0.0862 Uiso
C8_14 C 0.8155(7) 0.6035(9) 0.8693(7) 0.0740 Uiso
H9_14 H 0.7810(13) 0.6446(14) 0.8798(13) 0.0854 Uiso
H10_14 H 0.9243(16) 0.3821(15) 0.8595(16) 0.0862 Uiso
N6_10 N 0.9689(5) 0.4100(5) 0.6819(5) 0.0540 Uiso
C5_15 C 0.0081(13) 0.3775(5) 0.6225(5) 0.0480 Uiso
C7_15 C 0.0896(13) 0.4036(9) 0.5964(9) 0.0730 Uiso
H7_15 H 0.085(2) 0.4431(12) 0.5569(12) 0.0862 Uiso
H8_15 H 0.1179(15) 0.4243(16) 0.6405(16) 0.0862 Uiso
H10_15 H 0.1179(15) 0.3595(16) 0.5757(16) 0.0862 Uiso
C6_15 C 0.8965(9) 0.3155(7) 0.6307(7) 0.0740 Uiso
N3_11 N 0.9689(5) 0.3181(5) 0.5900(5) 0.0540 Uiso
H6_15 H 0.8554(14) 0.2810(13) 0.6202(13) 0.0854 Uiso
C8_15 C 0.8965(9) 0.3693(7) 0.6845(7) 0.0740 Uiso
H9_15 H 0.8554(14) 0.3798(13) 0.7190(13) 0.0854 Uiso
C5_16 C 0.5081(13) 0.8775(5) 0.1225(5) 0.0480 Uiso
C6_16 C 0.3965(9) 0.8155(7) 0.1307(7) 0.0740 Uiso
C7_16 C 0.5896(13) 0.9036(9) 0.0964(9) 0.0730 Uiso
N3_12 N 0.4689(5) 0.8181(5) 0.0900(5) 0.0540 Uiso
H6_16 H 0.3554(14) 0.7810(13) 0.1202(13) 0.0854 Uiso
H7_16 H 0.585(2) 0.9431(12) 0.0569(12) 0.0862 Uiso
H8_16 H 0.6179(15) 0.9243(16) 0.1405(16) 0.0862 Uiso
C8_16 C 0.3965(9) 0.8693(7) 0.1845(7) 0.0740 Uiso
H9_16 H 0.3554(14) 0.8798(13) 0.2190(13) 0.0854 Uiso
H10_16 H 0.6179(15) 0.8595(16) 0.0757(16) 0.0862 Uiso
loop_
_geom_bond_atom_site_label_1
_geom_bond_atom_site_label_2
_geom_bond_site_symmetry_1
_geom_bond_site_symmetry_2
C1 C3 1_555 1_555
C3 H2 1_555 1_555
H3 C3 1_555 1_555
H5 C3 1_555 1_555
C6 N3 1_555 1_555
N3 Zn1 1_555 1_555
H6 C6 1_555 1_555
C8 C6 1_555 1_555
H9 C8 1_555 1_555
N5 Zn1 1_555 1_555
Zn3 N4 1_555 1_555
C8 N4 1_555 1_555
C2 N1 1_555 1_555
Zn1_2 N1 1_555 1_555
H1 C2 1_555 1_555
C4 C2 1_555 1_555
H4 C4 1_555 1_555
C5 C7 1_555 1_555
C7 H7 1_555 1_555
H8 C7 1_555 1_555
H10 C7 1_555 1_555
N6 Zn1_2 1_555 1_555
Zn2_2 N2 1_555 1_555
C4 N2 1_555 1_555
C5_2 C7_2 1_555 1_555
C6_2 N3_2 1_555 1_555
C7_2 H7_2 1_555 1_555
N3_2 Zn1_3 1_555 1_555
H6_2 C6_2 1_555 1_555
H8_2 C7_2 1_555 1_555
C8_2 C6_2 1_555 1_555
N4_2 C5_2 1_555 1_555
H9_2 C8_2 1_555 1_555
H10_2 C7_2 1_555 1_555
N6_2 Zn1_3 1_555 1_555
Zn3_3 N4_2 1_555 1_555
C5_2 N3_2 1_555 1_555
C8_2 N4_2 1_555 1_555
C1_2 C3_2 1_555 1_555
C2_2 N1_2 1_555 1_555
C3_2 H2_2 1_555 1_555
N1_2 C1_2 1_555 1_555
Zn1_4 N1_2 1_555 1_555
H1_2 C2_2 1_555 1_555
H3_2 C3_2 1_555 1_555
C4_2 C2_2 1_555 1_555
N2_2 C1_2 1_555 1_555
H4_2 C4_2 1_555 1_555
H5_2 C3_2 1_555 1_555
N5_2 Zn1_4 1_555 1_555
Zn2_3 N2_2 1_555 1_555
C4_2 N2_2 1_555 1_555
C1_3 C3_3 1_555 1_555
C3_3 H2_3 1_555 1_555
H3_3 C3_3 1_555 1_555
H5_3 C3_3 1_555 1_555
C6_3 N3_3 1_555 1_555
N3_3 Zn1_5 1_555 1_555
H6_3 C6_3 1_555 1_555
C8_3 C6_3 1_555 1_555
H9_3 C8_3 1_555 1_555
N5_3 Zn1_5 1_555 1_555
Zn3_5 N4_3 1_555 1_555
C8_3 N4_3 1_555 1_555
C2_3 N1_3 1_555 1_555
Zn1_6 N1_3 1_555 1_555
H1_3 C2_3 1_555 1_555
C4_3 C2_3 1_555 1_555
H4_3 C4_3 1_555 1_555
C5_3 C7_3 1_555 1_555
C7_3 H7_3 1_555 1_555
H8_3 C7_3 1_555 1_555
H10_3 C7_3 1_555 1_555
N6_3 Zn1_6 1_555 1_555
C4_3 N5_2 1_555 1_555
C5_4 C7_4 1_555 1_555
C6_4 N3_4 1_555 1_555
C7_4 H7_4 1_555 1_555
N3_4 Zn1_7 1_555 1_555
H6_4 C6_4 1_555 1_555
H8_4 C7_4 1_555 1_555
C8_4 C6_4 1_555 1_555
N4_4 C5_4 1_555 1_555
H9_4 C8_4 1_555 1_555
H10_4 C7_4 1_555 1_555
N6_4 Zn1_7 1_555 1_555
Zn3_7 N4_4 1_555 1_555
C5_4 N3_4 1_555 1_555
C8_4 N4_4 1_555 1_555
C1_4 C3_4 1_555 1_555
C2_4 N1_4 1_555 1_555
C3_4 H2_4 1_555 1_555
N1_4 C1_4 1_555 1_555
Zn1_8 N1_4 1_555 1_555
H1_4 C2_4 1_555 1_555
H3_4 C3_4 1_555 1_555
C4_4 C2_4 1_555 1_555
N5 C1_4 1_555 1_555
H4_4 C4_4 1_555 1_555
H5_4 C3_4 1_555 1_555
N5_4 Zn1_8 1_555 1_555
C4_4 N5 1_555 1_555
C1_5 C3_5 1_555 1_555
C3_5 H2_5 1_555 1_555
H3_5 C3_5 1_555 1_555
H5_5 C3_5 1_555 1_555
C6_5 N3_5 1_555 1_555
N3_5 Zn2_3 1_555 1_555
H6_5 C6_5 1_555 1_555
C8_5 C6_5 1_555 1_555
H9_5 C8_5 1_555 1_555
Zn3_9 N4_5 1_555 1_555
C8_5 N4_5 1_555 1_555
C2_5 N1_5 1_555 1_555
Zn2_4 N1_5 1_555 1_555
H1_5 C2_5 1_555 1_555
C4_5 C2_5 1_555 1_555
H4_5 C4_5 1_555 1_555
C5_5 C7_5 1_555 1_555
C7_5 H7_5 1_555 1_555
H8_5 C7_5 1_555 1_555
H10_5 C7_5 1_555 1_555
N6_5 Zn2_4 1_555 1_555
C4_5 N5_4 1_555 1_555
C5_6 C7_6 1_555 1_555
C6_6 N3_6 1_555 1_555
C7_6 H7_6 1_555 1_555
N3_6 Zn2 1_555 1_555
H6_6 C6_6 1_555 1_555
H8_6 C7_6 1_555 1_555
C8_6 C6_6 1_555 1_555
N4_6 C5_6 1_555 1_555
H9_6 C8_6 1_555 1_555
H10_6 C7_6 1_555 1_555
N6_6 Zn2 1_555 1_555
Zn3_11 N4_6 1_555 1_555
C5_6 N3_6 1_555 1_555
C8_6 N4_6 1_555 1_555
C1_6 C3_6 1_555 1_555
C2_6 N1_6 1_555 1_555
C3_6 H2_6 1_555 1_555
N1_6 C1_6 1_555 1_555
Zn2_2 N1_6 1_555 1_555
H1_6 C2_6 1_555 1_555
H3_6 C3_6 1_555 1_555
C4_6 C2_6 1_555 1_555
N5_3 C1_6 1_555 1_555
H4_6 C4_6 1_555 1_555
H5_6 C3_6 1_555 1_555
C4_6 N5_3 1_555 1_555
C6_7 N6_2 1_555 1_555
H6_7 C6_7 1_555 1_555
C8_7 C6_7 1_555 1_555
H9_7 C8_7 1_555 1_555
Zn3_11 N4_7 1_555 1_555
C8_7 N4_7 1_555 1_555
C5_7 C7_7 1_555 1_555
C7_7 H7_7 1_555 1_555
H8_7 C7_7 1_555 1_555
H10_7 C7_7 1_555 1_555
C5_8 C7_8 1_555 1_555
C6_8 N6 1_555 1_555
C7_8 H7_8 1_555 1_555
H6_8 C6_8 1_555 1_555
H8_8 C7_8 1_555 1_555
C8_8 C6_8 1_555 1_555
N4_8 C5_8 1_555 1_555
H9_8 C8_8 1_555 1_555
H10_8 C7_8 1_555 1_555
Zn3_10 N4_8 1_555 1_555
C5_8 N6 1_555 1_555
C8_8 N4_8 1_555 1_555
C5_9 C7_9 1_555 1_555
C7_9 H7_9 1_555 1_555
H8_9 C7_9 1_555 1_555
H10_9 C7_9 1_555 1_555
N6_7 Zn3 1_555 1_555
C6_9 N3_7 1_555 1_555
N3_7 Zn3_2 1_555 1_555
H6_9 C6_9 1_555 1_555
C8_9 C6_9 1_555 1_555
H9_9 C8_9 1_555 1_555
N5_5 Zn3_2 1_555 1_555
Zn3_8 N4_9 1_555 1_555
C8_9 N4_9 1_555 1_555
N5_6 Zn3_3 1_555 1_555
C5_10 C7_10 1_555 1_555
C6_10 N3_8 1_555 1_555
C7_10 H7_10 1_555 1_555
N3_8 Zn3_4 1_555 1_555
H6_10 C6_10 1_555 1_555
H8_10 C7_10 1_555 1_555
C8_10 C6_10 1_555 1_555
N4_10 C5_10 1_555 1_555
H9_10 C8_10 1_555 1_555
H10_10 C7_10 1_555 1_555
N6_8 Zn3_4 1_555 1_555
Zn3_5 N4_10 1_555 1_555
C5_10 N3_8 1_555 1_555
C8_10 N4_10 1_555 1_555
C2_7 N6_4 1_555 1_555
H1_7 C2_7 1_555 1_555
C4_7 C2_7 1_555 1_555
H4_7 C4_7 1_555 1_555
C4_7 N5_6 1_555 1_555
C1_7 C3_7 1_555 1_555
C3_7 H2_7 1_555 1_555
H3_7 C3_7 1_555 1_555
H5_7 C3_7 1_555 1_555
C1_8 C3_8 1_555 1_555
C2_8 N6_3 1_555 1_555
C3_8 H2_8 1_555 1_555
N6_3 C1_8 1_555 1_555
H1_8 C2_8 1_555 1_555
H3_8 C3_8 1_555 1_555
C4_8 C2_8 1_555 1_555
N5_5 C1_8 1_555 1_555
H4_8 C4_8 1_555 1_555
H5_8 C3_8 1_555 1_555
C4_8 N5_5 1_555 1_555
C5_11 C7_11 1_555 1_555
C7_11 H7_11 1_555 1_555
H8_11 C7_11 1_555 1_555
H10_11 C7_11 1_555 1_555
C6_11 N6_8 1_555 1_555
H6_11 C6_11 1_555 1_555
C8_11 C6_11 1_555 1_555
H9_11 C8_11 1_555 1_555
Zn3_10 N4_11 1_555 1_555
C8_11 N4_11 1_555 1_555
C5_12 C7_12 1_555 1_555
C6_12 N6_7 1_555 1_555
C7_12 H7_12 1_555 1_555
H6_12 C6_12 1_555 1_555
H8_12 C7_12 1_555 1_555
C8_12 C6_12 1_555 1_555
N4_12 C5_12 1_555 1_555
H9_12 C8_12 1_555 1_555
H10_12 C7_12 1_555 1_555
Zn3_12 N4_12 1_555 1_555
C5_12 N6_7 1_555 1_555
C8_12 N4_12 1_555 1_555
C6_13 N3_9 1_555 1_555
N3_9 Zn3_7 1_555 1_555
H6_13 C6_13 1_555 1_555
C8_13 C6_13 1_555 1_555
H9_13 C8_13 1_555 1_555
C8_13 N6_6 1_555 1_555
C5_13 C7_13 1_555 1_555
C7_13 H7_13 1_555 1_555
H8_13 C7_13 1_555 1_555
H10_13 C7_13 1_555 1_555
N6_9 Zn3_8 1_555 1_555
C5_14 C7_14 1_555 1_555
C6_14 N3_10 1_555 1_555
C7_14 H7_14 1_555 1_555
N3_10 Zn3_6 1_555 1_555
H6_14 C6_14 1_555 1_555
H8_14 C7_14 1_555 1_555
C8_14 C6_14 1_555 1_555
N6_5 C5_14 1_555 1_555
H9_14 C8_14 1_555 1_555
H10_14 C7_14 1_555 1_555
N6_10 Zn3_6 1_555 1_555
C5_14 N3_10 1_555 1_555
C8_14 N6_5 1_555 1_555
C5_15 C7_15 1_555 1_555
C7_15 H7_15 1_555 1_555
H8_15 C7_15 1_555 1_555
H10_15 C7_15 1_555 1_555
C6_15 N3_11 1_555 1_555
N3_11 Zn3_12 1_555 1_555
H6_15 C6_15 1_555 1_555
C8_15 C6_15 1_555 1_555
H9_15 C8_15 1_555 1_555
C8_15 N6_10 1_555 1_555
C5_16 C7_16 1_555 1_555
C6_16 N3_12 1_555 1_555
C7_16 H7_16 1_555 1_555
N3_12 Zn3_9 1_555 1_555
H6_16 C6_16 1_555 1_555
H8_16 C7_16 1_555 1_555
C8_16 C6_16 1_555 1_555
N6_9 C5_16 1_555 1_555
H9_16 C8_16 1_555 1_555
H10_16 C7_16 1_555 1_555
C5_16 N3_12 1_555 1_555
C8_16 N6_9 1_555 1_555

#END
