
###############################################################################
#
# This file contains modified crystal structure data generated from the
# MOF subset of the Cambridge Structural Database (CSD) v543 
# hosted by the Cambridge Crystallographic Data Centre (CCDC).
#
# This work is licensed under the Creative Commons
# Attribution-NonCommercial-ShareAlike 4.0 International License.
# To view a copy of this license, visit
# http://creativecommons.org/licenses/by-nc-sa/4.0/
# or send a letter to
# Creative Commons, PO Box 1866, Mountain View, CA 94042, USA.
#
# CIF created using the CSD Python API on 29 September 2022
# The structure has been converted into the P1 space group
# The structure has a 3D framework
# The original CSD entry NIFZUZ is in the orthorhombic crystal system
# The framework has been calculated to contain at least 10.0% void space
# The void calculation uses a probe of radius 1.32A, grid spacing 0.4
# The framework is charged, counterions have been retained in the structure
#
###############################################################################

data_NIFZUZ
_chemical_formula_moiety         '(C576 H368 Cl8 Co16 Eu24 N96 O252 8+)n'
_symmetry_cell_setting           triclinic
_symmetry_space_group_name_H-M   'P 1'
_symmetry_Int_Tables_number      1
_space_group_name_Hall           'P 1'
loop_
_symmetry_equiv_pos_site_id
_symmetry_equiv_pos_as_xyz
1 x,y,z
_cell_length_a                   49.3489(8)
_cell_length_b                   18.5280(4)
_cell_length_c                   18.4705(5)
_cell_angle_alpha                90
_cell_angle_beta                 90
_cell_angle_gamma                90
_cell_volume                     16888.3
loop_
_atom_site_label
_atom_site_type_symbol
_atom_site_fract_x
_atom_site_fract_y
_atom_site_fract_z
Eu3 Eu 0.124338(9) 0.47843(3) 0.29880(3)
Co1 Co 0.24658(2) 0.61658(7) 0.03495(7)
O5 O 0.08689(16) 0.4135(4) 0.2069(5)
O6 O 0.07714(15) 0.4462(5) 0.3165(5)
O13 O 0.14782(14) 0.4345(4) 0.1934(4)
O14 O 0.15962(15) 0.5448(4) 0.2223(4)
O19 O 0.33889(15) 0.8067(4) 0.0114(4)
O28 O 0.12628(17) 0.3456(5) 0.3099(6)
H7 H 0.1251 0.3159 0.2752
H8 H 0.1240 0.3221 0.3512
O29 O 0.11432(17) 0.4444(5) 0.4255(5)
H9 H 0.0986 0.4326 0.4398
H10 H 0.1160 0.4304 0.3819
N3 N 0.01436(18) 0.2926(5) 0.1973(5)
N7 N 0.22597(17) 0.5338(5) 0.0797(5)
H14 H 0.0240 0.5487 0.0388
C13 C 0.0722(2) 0.4116(7) 0.2598(7)
C14 C 0.0360(2) 0.3388(6) 0.1961(7)
H17 H 0.0429 0.3536 0.1518
C15 C 0.0478(2) 0.3641(7) 0.2594(7)
C16 C 0.0382(2) 0.3416(6) 0.3244(7)
H18 H 0.0461 0.3575 0.3671
C17 C 0.0162(2) 0.2944(6) 0.3266(7)
H19 H 0.0093 0.2783 0.3705
C18 C 0.0050(2) 0.2721(6) 0.2614(6)
C37 C 0.1636(2) 0.4876(6) 0.1875(6)
C38 C 0.2038(2) 0.5380(6) 0.1216(6)
H29 H 0.1985 0.5833 0.1379
C39 C 0.1886(2) 0.4793(6) 0.1418(7)
C40 C 0.1969(2) 0.4110(6) 0.1198(6)
H30 H 0.1870 0.3701 0.1323
C41 C 0.2207(2) 0.4057(6) 0.0781(6)
H31 H 0.2268 0.3607 0.0627
C42 C 0.2348(2) 0.4666(6) 0.0601(6)
C43 C 0.2596(2) 0.4672(6) 0.0152(6)
H32 H 0.2679 0.3613 0.0121
H40 H 0.3013 0.7040 0.0190
O31 O 0.09654(16) 0.5855(5) 0.3364(5)
O32 O 0.09981(16) 0.5678(5) 0.2186(5)
O35 O 0.15269(14) 0.5569(4) 0.3810(4)
O36 O 0.16849(14) 0.4493(4) 0.3500(4)
N17 N 0.27328(17) 0.6314(5) 0.1177(5)
N18 N 0.22739(17) 0.6969(5) 0.0895(5)
Eu1 Eu 0.121311(9) 0.58068(3) 0.69833(3)
Co2 Co 0.00235(2) 0.75185(7) 0.88617(7)
O3 O 0.09297(13) 0.4942(4) 0.8704(4)
O4 O 0.08848(13) 0.5894(4) 0.7950(4)
O9 O 0.08693(14) 0.7534(4) 0.5861(4)
O10 O 0.08655(14) 0.6468(4) 0.6417(4)
O15 O 0.34731(14) 0.4431(4) 0.8810(4)
O16 O 0.33151(14) 0.5507(4) 0.8500(4)
O17 O 0.15441(13) 0.4891(4) 0.8999(4)
O18 O 0.14546(13) 0.5578(4) 0.8038(4)
O20 O 0.33978(14) 0.8312(4) 0.8946(4)
O21 O 0.14615(15) 0.4064(4) 0.7537(4)
O22 O 0.15701(15) 0.4885(4) 0.6687(4)
O23 O 0.34621(16) 0.1452(5) 0.6350(5)
O24 O 0.34463(17) 0.2099(5) 0.5327(5)
O25 O 0.11545(19) 0.5375(5) 0.5707(5)
H1 H 0.1058 0.5755 0.5654
H2 H 0.1320 0.5499 0.5657
O26 O 0.12527(16) 0.6998(5) 0.7575(5)
H3 H 0.1101 0.7158 0.7399
H4 H 0.1382 0.7140 0.7298
N2 N 0.02292(16) 0.6644(5) 0.9084(5)
N5 N 0.01944(16) 0.6946(5) 0.4655(5)
N8 N 0.26748(17) 0.5347(5) 0.9927(5)
N9 N 0.21981(16) 0.6243(4) 0.9501(5)
N10 N 0.26543(16) 0.6960(5) 0.9745(5)
N11 N 0.22672(17) 0.3686(5) 0.6177(5)
N12 N 0.27261(17) 0.3031(5) 0.5895(5)
C7 C 0.01409(19) 0.6286(6) 0.9685(6)
C8 C 0.02916(19) 0.5709(5) 0.9958(6)
C9 C 0.05155(19) 0.5470(6) 0.9594(6)
H15 H 0.0617 0.5089 0.9776
C10 C 0.05893(19) 0.5802(6) 0.8951(6)
C11 C 0.04457(19) 0.6405(5) 0.8719(6)
H16 H 0.0501 0.6646 0.8302
C12 C 0.08246(19) 0.5530(6) 0.8489(6)
C25 C 0.0777(2) 0.6937(6) 0.5994(6)
C26 C 0.0421(2) 0.7111(6) 0.5001(6)
H23 H 0.0525 0.7497 0.4835
C27 C 0.0512(2) 0.6725(6) 0.5610(6)
C28 C 0.03539(19) 0.6155(6) 0.5843(6)
H24 H 0.0407 0.5889 0.6247
C29 C 0.0116(2) 0.5974(6) 0.5478(6)
H25 H 0.0007 0.5598 0.5641
C30 C 0.00457(19) 0.6368(5) 0.4866(6)
C44 C 0.2739(2) 0.4064(6) 0.9968(6)
C45 C 0.2974(2) 0.4121(6) 0.9555(6)
H33 H 0.3079 0.3717 0.9453
C46 C 0.3045(2) 0.4782(6) 0.9303(6)
C47 C 0.2896(2) 0.5388(6) 0.9505(6)
H34 H 0.2953 0.5838 0.9342
C48 C 0.3294(2) 0.4915(6) 0.8833(6)
C49 C 0.1579(2) 0.5433(6) 0.8614(6)
C50 C 0.19928(19) 0.5809(6) 0.9363(6)
H35 H 0.1974 0.5387 0.9633
C51 C 0.17981(19) 0.5965(6) 0.8814(6)
C52 C 0.18247(19) 0.6611(5) 0.8449(6)
H36 H 0.1697 0.6744 0.8105
C53 C 0.20422(19) 0.7060(6) 0.8597(6)
H37 H 0.2059 0.7501 0.8360
C54 C 0.22368(19) 0.6845(5) 0.9103(6)
C55 C 0.2489(2) 0.7233(6) 0.9229(6)
C56 C 0.2567(2) 0.7836(6) 0.8807(6)
H38 H 0.2448 0.8043 0.8478
C57 C 0.28238(19) 0.8107(6) 0.8896(6)
H39 H 0.2882 0.8490 0.8610
C58 C 0.2999(2) 0.7806(6) 0.9420(6)
C59 C 0.2901(2) 0.7236(6) 0.9835(6)
C60 C 0.3284(2) 0.8079(6) 0.9496(6)
C61 C 0.1609(2) 0.4315(6) 0.7029(7)
C62 C 0.2043(2) 0.4069(6) 0.6330(6)
H41 H 0.2015 0.4502 0.6086
C63 C 0.1852(2) 0.3850(6) 0.6834(7)
C64 C 0.1885(2) 0.3198(6) 0.7173(6)
H42 H 0.1753 0.3029 0.7489
C65 C 0.2116(2) 0.2790(6) 0.7043(6)
H43 H 0.2144 0.2352 0.7277
C66 C 0.2305(2) 0.3059(6) 0.6549(6)
C67 C 0.2569(2) 0.2710(6) 0.6408(6)
C68 C 0.2662(2) 0.2092(6) 0.6782(6)
H44 H 0.2552 0.1870 0.7124
C69 C 0.2913(2) 0.1824(6) 0.6637(6)
H45 H 0.2976 0.1420 0.6883
C70 C 0.3072(2) 0.2154(6) 0.6126(6)
C71 C 0.2974(2) 0.2765(6) 0.5767(6)
H46 H 0.3085 0.2994 0.5430
C72 C 0.3353(3) 0.1877(7) 0.5909(8)
Eu5 Eu 0.378689(9) 0.08068(3) 0.69833(3)
Eu7 Eu 0.377778(9) 0.89886(3) 0.85629(3)
Eu8 Eu 0.122222(9) 0.39886(3) 0.85629(3)
Eu9 Eu 0.375662(9) 0.52157(3) 0.79880(3)
Co3 Co 0.25342(2) 0.38342(7) 0.53495(7)
Co5 Co 0.00235(2) 0.74815(7) 0.38617(7)
O34 O 0.09559(13) 0.4749(4) 0.7007(4)
O40 O 0.15379(16) 0.6452(5) 0.6350(5)
N14 N 0.02729(17) 0.7898(5) 0.8103(5)
N15 N 0.01944(16) 0.8054(5) 0.9655(5)
Eu2 Eu 0.877778(9) 0.60114(3) 0.14371(3)
O1 O 0.89987(13) 0.7108(4) 0.1163(4)
O2 O 0.91065(14) 0.8082(4) 0.0507(4)
O7 O 0.90346(16) 0.0855(5) 0.1636(5)
O8 O 0.90019(16) 0.0678(5) 0.2814(5)
O27 O 0.88262(16) 0.6029(4) 0.0128(4)
N4 N 0.97271(17) 0.2102(5) 0.1897(5)
C1 C 0.9147(2) 0.7458(6) 0.0736(6)
C3 C 0.9404(2) 0.7089(6) 0.0476(6)
C4 C 0.95208(19) 0.6516(5) 0.0844(6)
H12 H 0.9436 0.6320 0.1248
C5 C 0.97670(19) 0.6239(6) 0.0602(6)
H13 H 0.9849 0.5859 0.0845
C19 C 0.9811(2) 0.2234(6) 0.2576(6)
C20 C 0.9685(2) 0.1950(6) 0.3169(6)
H20 H 0.9754 0.2035 0.3631
C21 C 0.9453(2) 0.1530(6) 0.3078(6)
H21 H 0.9364 0.1333 0.3475
C22 C 0.9360(2) 0.1416(6) 0.2394(6)
C23 C 0.9506(2) 0.1699(6) 0.1812(6)
H22 H 0.9446 0.1602 0.1345
C24 C 0.9111(2) 0.0967(7) 0.2262(7)
Co4 Co 0.99765(2) 0.24815(7) 0.11383(7)
O30 O 0.90703(13) 0.5058(4) 0.1296(4)
O33 O 0.91399(13) 0.6252(4) 0.2379(4)
O37 O 0.84559(13) 0.5109(4) 0.1001(4)
O38 O 0.83978(14) 0.6688(4) 0.1054(4)
O39 O 0.85385(15) 0.5936(4) 0.2463(4)
O12 O 0.90441(13) 0.5251(4) 0.2993(4)
H5 H 0.8952 0.5739 0.9973
H6 H 0.8680 0.5926 0.9900
N1 N 0.97731(16) 0.7100(4) 0.9627(5)
N6 N 0.97867(16) 0.6633(4) 0.3809(5)
C2 C 0.95334(19) 0.7359(6) 0.9865(6)
H11 H 0.9452 0.7733 0.9609
C6 C 0.98878(19) 0.6537(5) 0.9993(6)
C31 C 0.98113(19) 0.6204(5) 0.4394(6)
C32 C 0.96270(19) 0.5676(5) 0.4542(6)
H26 H 0.9644 0.5401 0.4961
C33 C 0.94136(19) 0.5548(6) 0.4065(6)
H27 H 0.9285 0.5196 0.4165
C34 C 0.93978(19) 0.5961(6) 0.3433(6)
C35 C 0.95895(19) 0.6501(5) 0.3331(6)
H28 H 0.9580 0.6782 0.2914
C36 C 0.9179(2) 0.5816(6) 0.2883(6)
Eu4 Eu 0.878689(9) 0.41932(3) 0.30167(3)
N13 N 0.98564(18) 0.7074(5) 0.8027(5)
N16 N 0.97867(16) 0.8367(4) 0.8809(5)
Eu10 Eu 0.875662(9) 0.97843(3) 0.20120(3)
Eu10_2 Eu 0.624338(9) 0.02157(3) 0.70120(3)
Eu1_2 Eu 0.378689(9) 0.41932(3) 0.19833(3)
Eu2_2 Eu 0.622222(9) 0.39886(3) 0.64371(3)
Co2_2 Co 0.49765(2) 0.24815(7) 0.38617(7)
O1_2 O 0.60013(13) 0.2892(4) 0.6163(4)
O2_2 O 0.58935(14) 0.1918(4) 0.5507(4)
O3_2 O 0.40703(13) 0.5058(4) 0.3704(4)
O4_2 O 0.41152(13) 0.4106(4) 0.2950(4)
O5_2 O 0.41311(16) 0.5865(4) 0.7069(5)
O6_2 O 0.42286(15) 0.5538(5) 0.8165(5)
O7_2 O 0.59654(16) 0.9145(5) 0.6636(5)
O8_2 O 0.59981(16) 0.9322(5) 0.7814(5)
O9_2 O 0.41307(14) 0.2466(4) 0.0861(4)
O10_2 O 0.41345(14) 0.3532(4) 0.1417(4)
O13_2 O 0.35218(14) 0.5655(4) 0.6934(4)
O14_2 O 0.34038(15) 0.4552(4) 0.7223(4)
O17_2 O 0.34559(13) 0.5109(4) 0.3999(4)
O18_2 O 0.35454(13) 0.4422(4) 0.3038(4)
O19_2 O 0.16111(15) 0.1933(4) 0.5114(4)
O20_2 O 0.16022(14) 0.1688(4) 0.3946(4)
O21_2 O 0.35385(15) 0.5936(4) 0.2537(4)
O22_2 O 0.34299(15) 0.5115(4) 0.1687(4)
O23_2 O 0.15379(16) 0.8548(5) 0.1350(5)
O24_2 O 0.15537(17) 0.7901(5) 0.0327(5)
O25_2 O 0.38455(19) 0.4625(5) 0.0707(5)
H1_2 H 0.3942 0.4245 0.0654
H2_2 H 0.3680 0.4501 0.0657
O26_2 O 0.37473(16) 0.3002(5) 0.2575(5)
H3_2 H 0.3899 0.2842 0.2399
H4_2 H 0.3618 0.2860 0.2298
O27_2 O 0.61738(16) 0.3971(4) 0.5128(4)
H5_2 H 0.6048 0.4261 0.4973
H6_2 H 0.6320 0.4074 0.4900
O28_2 O 0.37372(17) 0.6544(5) 0.8099(6)
H7_2 H 0.3749 0.6841 0.7752
H8_2 H 0.3760 0.6779 0.8512
O29_2 O 0.38568(17) 0.5556(5) 0.9255(5)
H9_2 H 0.4014 0.5674 0.9398
H10_2 H 0.3840 0.5696 0.8819
N1_2 N 0.52269(16) 0.2900(4) 0.4627(5)
N2_2 N 0.47708(16) 0.3356(5) 0.4084(5)
N3_2 N 0.48564(18) 0.7074(5) 0.6973(5)
N4_2 N 0.52729(17) 0.7898(5) 0.6897(5)
N7_2 N 0.27403(17) 0.4662(5) 0.5797(5)
N8_2 N 0.23252(17) 0.4653(5) 0.4927(5)
N9_2 N 0.28019(16) 0.3757(4) 0.4501(5)
N10_2 N 0.23457(16) 0.3040(5) 0.4745(5)
C1_2 C 0.5853(2) 0.2542(6) 0.5736(6)
C2_2 C 0.54666(19) 0.2641(6) 0.4865(6)
H11_2 H 0.5548 0.2267 0.4609
C3_2 C 0.5596(2) 0.2911(6) 0.5476(6)
C4_2 C 0.54792(19) 0.3484(5) 0.5844(6)
H12_2 H 0.5564 0.3680 0.6248
C5_2 C 0.52330(19) 0.3761(6) 0.5602(6)
H13_2 H 0.5151 0.4141 0.5845
C6_2 C 0.51122(19) 0.3463(5) 0.4993(6)
C7_2 C 0.48591(19) 0.3714(6) 0.4685(6)
C8_2 C 0.47084(19) 0.4291(5) 0.4958(6)
H14_2 H 0.4760 0.4513 0.5388
C9_2 C 0.44845(19) 0.4530(6) 0.4594(6)
H15_2 H 0.4383 0.4911 0.4776
C10_2 C 0.44107(19) 0.4198(6) 0.3951(6)
C11_2 C 0.45543(19) 0.3595(5) 0.3719(6)
H16_2 H 0.4499 0.3354 0.3302
C12_2 C 0.41754(19) 0.4470(6) 0.3489(6)
C13_2 C 0.4278(2) 0.5884(7) 0.7598(7)
C14_2 C 0.4640(2) 0.6612(6) 0.6961(7)
H17_2 H 0.4571 0.6464 0.6518
C15_2 C 0.4522(2) 0.6359(7) 0.7594(7)
C16_2 C 0.4618(2) 0.6584(6) 0.8244(7)
H18_2 H 0.4539 0.6425 0.8671
C17_2 C 0.4838(2) 0.7056(6) 0.8266(7)
H19_2 H 0.4907 0.7217 0.8705
C18_2 C 0.4950(2) 0.7279(6) 0.7614(6)
C19_2 C 0.5189(2) 0.7766(6) 0.7576(6)
C20_2 C 0.5315(2) 0.8050(6) 0.8169(6)
H20_2 H 0.5246 0.7965 0.8631
C21_2 C 0.5547(2) 0.8470(6) 0.8078(6)
H21_2 H 0.5636 0.8667 0.8475
C22_2 C 0.5640(2) 0.8584(6) 0.7394(6)
C23_2 C 0.5494(2) 0.8301(6) 0.6812(6)
H22_2 H 0.5554 0.8398 0.6345
C24_2 C 0.5889(2) 0.9033(7) 0.7262(7)
C25_2 C 0.4223(2) 0.3063(6) 0.0994(6)
C26_2 C 0.4579(2) 0.2889(6) 0.0001(6)
C27_2 C 0.4488(2) 0.3275(6) 0.0610(6)
C28_2 C 0.46461(19) 0.3845(6) 0.0843(6)
H24_2 H 0.4593 0.4111 0.1247
C29_2 C 0.4884(2) 0.4026(6) 0.0478(6)
H25_2 H 0.4993 0.4402 0.0641
C37_2 C 0.3364(2) 0.5124(6) 0.6875(6)
C38_2 C 0.2962(2) 0.4620(6) 0.6216(6)
H29_2 H 0.3015 0.4167 0.6379
C39_2 C 0.3114(2) 0.5207(6) 0.6418(7)
C40_2 C 0.3031(2) 0.5890(6) 0.6198(6)
H30_2 H 0.3130 0.6299 0.6323
C41_2 C 0.2793(2) 0.5943(6) 0.5781(6)
H31_2 H 0.2732 0.6393 0.5627
C42_2 C 0.2652(2) 0.5334(6) 0.5601(6)
C43_2 C 0.2404(2) 0.5328(6) 0.5152(6)
C44_2 C 0.2261(2) 0.5936(6) 0.4968(6)
H32_2 H 0.2321 0.6387 0.5121
C45_2 C 0.2026(2) 0.5879(6) 0.4555(6)
H33_2 H 0.1921 0.6283 0.4453
C46_2 C 0.1955(2) 0.5218(6) 0.4303(6)
C47_2 C 0.2104(2) 0.4612(6) 0.4505(6)
H34_2 H 0.2047 0.4162 0.4342
C48_2 C 0.1706(2) 0.5085(6) 0.3833(6)
C49_2 C 0.3421(2) 0.4567(6) 0.3614(6)
C50_2 C 0.30072(19) 0.4191(6) 0.4363(6)
H35_2 H 0.3026 0.4613 0.4633
C51_2 C 0.32019(19) 0.4035(6) 0.3814(6)
C52_2 C 0.31753(19) 0.3389(5) 0.3449(6)
H36_2 H 0.3303 0.3256 0.3105
C53_2 C 0.29578(19) 0.2940(6) 0.3597(6)
H37_2 H 0.2941 0.2499 0.3360
C54_2 C 0.27632(19) 0.3155(5) 0.4103(6)
C55_2 C 0.2511(2) 0.2767(6) 0.4229(6)
C56_2 C 0.2433(2) 0.2164(6) 0.3807(6)
H38_2 H 0.2552 0.1957 0.3478
C57_2 C 0.21762(19) 0.1893(6) 0.3896(6)
H39_2 H 0.2118 0.1510 0.3610
C58_2 C 0.2001(2) 0.2194(6) 0.4420(6)
C59_2 C 0.2099(2) 0.2764(6) 0.4835(6)
H40_2 H 0.1987 0.2960 0.5190
C60_2 C 0.1716(2) 0.1921(6) 0.4496(6)
C61_2 C 0.3391(2) 0.5685(6) 0.2029(7)
C62_2 C 0.2957(2) 0.5931(6) 0.1330(6)
H41_2 H 0.2985 0.5498 0.1086
C63_2 C 0.3148(2) 0.6150(6) 0.1834(7)
C64_2 C 0.3115(2) 0.6802(6) 0.2173(6)
H42_2 H 0.3247 0.6971 0.2489
C65_2 C 0.2884(2) 0.7210(6) 0.2043(6)
H43_2 H 0.2856 0.7648 0.2277
C66_2 C 0.2695(2) 0.6941(6) 0.1549(6)
C67_2 C 0.2431(2) 0.7290(6) 0.1408(6)
C68_2 C 0.2338(2) 0.7908(6) 0.1782(6)
H44_2 H 0.2448 0.8130 0.2124
C69_2 C 0.2087(2) 0.8176(6) 0.1637(6)
H45_2 H 0.2024 0.8580 0.1883
C70_2 C 0.1928(2) 0.7846(6) 0.1126(6)
C71_2 C 0.2026(2) 0.7235(6) 0.0767(6)
H46_2 H 0.1915 0.7006 0.0430
C72_2 C 0.1647(3) 0.8123(7) 0.0909(8)
Eu5_2 Eu 0.121311(9) 0.91932(3) 0.19833(3)
Eu7_2 Eu 0.122222(9) 0.10114(3) 0.35629(3)
Eu8_2 Eu 0.377778(9) 0.60114(3) 0.35629(3)
Co4_2 Co 0.50235(2) 0.75185(7) 0.61383(7)
O30_2 O 0.59297(13) 0.4942(4) 0.6296(4)
O31_2 O 0.40346(16) 0.4145(5) 0.8364(5)
O32_2 O 0.40019(16) 0.4322(5) 0.7186(5)
O33_2 O 0.58601(13) 0.3748(4) 0.7379(4)
O34_2 O 0.40441(13) 0.5251(4) 0.2007(4)
O37_2 O 0.65441(13) 0.4891(4) 0.6001(4)
O38_2 O 0.66022(14) 0.3312(4) 0.6054(4)
O39_2 O 0.64615(15) 0.4064(4) 0.7463(4)
O40_2 O 0.34621(16) 0.3548(5) 0.1350(5)
N13_2 N 0.51436(18) 0.2926(5) 0.3027(5)
N14_2 N 0.47271(17) 0.2102(5) 0.3103(5)
N15_2 N 0.48056(16) 0.1946(5) 0.4655(5)
N16_2 N 0.52133(16) 0.1633(4) 0.3809(5)
O12_2 O 0.59559(13) 0.4749(4) 0.7993(4)
N5_2 N 0.48056(16) 0.3054(5) 0.9655(5)
N6_2 N 0.52133(16) 0.3367(4) 0.8809(5)
H23_2 H 0.4475 0.2503 0.9835
C30_2 C 0.49543(19) 0.3632(5) 0.9866(6)
C31_2 C 0.51887(19) 0.3796(5) 0.9394(6)
C32_2 C 0.53730(19) 0.4324(5) 0.9542(6)
H26_2 H 0.5356 0.4599 0.9961
C33_2 C 0.55864(19) 0.4452(6) 0.9065(6)
H27_2 H 0.5715 0.4804 0.9165
C34_2 C 0.56022(19) 0.4039(6) 0.8433(6)
C35_2 C 0.54105(19) 0.3499(5) 0.8331(6)
H28_2 H 0.5420 0.3218 0.7914
C36_2 C 0.5821(2) 0.4184(6) 0.7883(6)
Eu4_2 Eu 0.621311(9) 0.58068(3) 0.80167(3)
Co5_2 Co 0.49765(2) 0.25185(7) 0.88617(7)
O3_3 O 0.59297(13) 0.0058(4) 0.1296(4)
O15_2 O 0.84731(14) 0.0569(4) 0.1190(4)
O17_3 O 0.65441(13) 0.0109(4) 0.1001(4)
O21_3 O 0.64615(15) 0.0936(4) 0.2463(4)
O22_3 O 0.65701(15) 0.0115(4) 0.3313(4)
O23_3 O 0.84621(16) 0.3548(5) 0.3650(5)
O24_3 O 0.84463(17) 0.2901(5) 0.4673(5)
N11_2 N 0.72672(17) 0.1314(5) 0.3823(5)
N12_2 N 0.77261(17) 0.1969(5) 0.4105(5)
C44_3 C 0.7739(2) 0.0936(6) 0.0032(6)
C45_3 C 0.7974(2) 0.0879(6) 0.0445(6)
H33_3 H 0.8079 0.1283 0.0547
C46_3 C 0.8045(2) 0.0218(6) 0.0697(6)
C48_3 C 0.8294(2) 0.0085(6) 0.1167(6)
C61_3 C 0.6609(2) 0.0685(6) 0.2971(7)
C62_3 C 0.7043(2) 0.0931(6) 0.3670(6)
H41_3 H 0.7015 0.0498 0.3914
C63_3 C 0.6852(2) 0.1150(6) 0.3166(7)
C64_3 C 0.6885(2) 0.1802(6) 0.2827(6)
H42_3 H 0.6753 0.1971 0.2511
C65_3 C 0.7116(2) 0.2210(6) 0.2957(6)
H43_3 H 0.7144 0.2648 0.2723
C66_3 C 0.7305(2) 0.1941(6) 0.3451(6)
C67_3 C 0.7569(2) 0.2290(6) 0.3592(6)
C68_3 C 0.7662(2) 0.2908(6) 0.3218(6)
H44_3 H 0.7552 0.3130 0.2876
C69_3 C 0.7913(2) 0.3176(6) 0.3363(6)
H45_3 H 0.7976 0.3580 0.3117
C70_3 C 0.8072(2) 0.2846(6) 0.3874(6)
C71_3 C 0.7974(2) 0.2235(6) 0.4233(6)
H46_3 H 0.8085 0.2006 0.4570
C72_3 C 0.8353(3) 0.3123(7) 0.4091(8)
Eu8_3 Eu 0.622222(9) 0.10114(3) 0.14371(3)
Co3_2 Co 0.75342(2) 0.11658(7) 0.46505(7)
O34_3 O 0.59559(13) 0.0251(4) 0.2993(4)
O5_3 O 0.58689(16) 0.0865(4) 0.7931(5)
O6_3 O 0.57714(15) 0.0538(5) 0.6835(5)
O13_3 O 0.64782(14) 0.0655(4) 0.8066(4)
O28_3 O 0.62628(17) 0.1544(5) 0.6901(6)
H7_3 H 0.6251 0.1841 0.7248
H8_3 H 0.6240 0.1779 0.6488
O29_3 O 0.61432(17) 0.0556(5) 0.5745(5)
H9_3 H 0.5986 0.0674 0.5602
H10_3 H 0.6160 0.0696 0.6181
N3_3 N 0.51436(18) 0.2074(5) 0.8027(5)
N4_3 N 0.47271(17) 0.2898(5) 0.8103(5)
C13_3 C 0.5722(2) 0.0884(7) 0.7402(7)
C14_3 C 0.5360(2) 0.1612(6) 0.8039(7)
H17_3 H 0.5429 0.1464 0.8482
C15_3 C 0.5478(2) 0.1359(7) 0.7406(7)
C16_3 C 0.5382(2) 0.1584(6) 0.6756(7)
H18_3 H 0.5461 0.1425 0.6329
C17_3 C 0.5162(2) 0.2056(6) 0.6734(7)
H19_3 H 0.5093 0.2217 0.6295
C18_3 C 0.5050(2) 0.2279(6) 0.7386(6)
C19_3 C 0.4811(2) 0.2766(6) 0.7424(6)
C20_3 C 0.4685(2) 0.3050(6) 0.6831(6)
H20_3 H 0.4754 0.2965 0.6369
C21_3 C 0.4453(2) 0.3470(6) 0.6922(6)
H21_3 H 0.4364 0.3667 0.6525
C22_3 C 0.4360(2) 0.3584(6) 0.7606(6)
C23_3 C 0.4506(2) 0.3301(6) 0.8188(6)
H22_3 H 0.4446 0.3398 0.8655
C24_3 C 0.4111(2) 0.4033(7) 0.7738(7)
C37_3 C 0.6636(2) 0.0124(6) 0.8125(6)
C39_3 C 0.6886(2) 0.0207(6) 0.8582(7)
C40_3 C 0.6969(2) 0.0890(6) 0.8802(6)
H30_3 H 0.6870 0.1299 0.8677
C41_3 C 0.7207(2) 0.0943(6) 0.9219(6)
H31_3 H 0.7268 0.1393 0.9373
C42_3 C 0.7348(2) 0.0334(6) 0.9399(6)
C43_3 C 0.7596(2) 0.0328(6) 0.9848(6)
H32_3 H 0.7679 0.1387 0.9879
O36_2 O 0.66849(14) 0.0507(4) 0.6500(4)
Eu1_3 Eu 0.621311(9) 0.91932(3) 0.30167(3)
Co2_3 Co 0.50235(2) 0.74815(7) 0.11383(7)
O4_3 O 0.58848(13) 0.9106(4) 0.2050(4)
O9_3 O 0.58693(14) 0.7466(4) 0.4139(4)
O10_3 O 0.58655(14) 0.8532(4) 0.3583(4)
O11 O 0.41399(13) 0.8748(4) 0.7621(4)
O12_3 O 0.40441(13) 0.9749(4) 0.7007(4)
O16_2 O 0.83151(14) 0.9493(4) 0.1500(4)
O18_3 O 0.64546(13) 0.9422(4) 0.1962(4)
O25_3 O 0.61545(19) 0.9625(5) 0.4293(5)
H1_3 H 0.6058 0.9245 0.4346
H2_3 H 0.6320 0.9501 0.4343
O26_3 O 0.62527(16) 0.8002(5) 0.2425(5)
H3_3 H 0.6101 0.7842 0.2601
H4_3 H 0.6382 0.7860 0.2702
H5_3 H 0.3952 0.9261 0.0027
H6_3 H 0.3680 0.9074 0.0100
N1_3 N 0.47731(16) 0.7900(4) 0.0373(5)
N2_3 N 0.52292(16) 0.8356(5) 0.0916(5)
N5_3 N 0.51944(16) 0.8054(5) 0.5345(5)
N6_3 N 0.47867(16) 0.8367(4) 0.6191(5)
N8_3 N 0.76748(17) 0.9653(5) 0.0073(5)
N9_3 N 0.71981(16) 0.8757(4) 0.0499(5)
N10_3 N 0.76543(16) 0.8040(5) 0.0255(5)
C2_3 C 0.45334(19) 0.7641(6) 0.0135(6)
H11_3 H 0.4452 0.7267 0.0391
C6_3 C 0.48878(19) 0.8463(5) 0.0007(6)
C7_3 C 0.51409(19) 0.8714(6) 0.0315(6)
C8_3 C 0.52916(19) 0.9291(5) 0.0042(6)
C9_3 C 0.55155(19) 0.9530(6) 0.0406(6)
H15_3 H 0.5617 0.9911 0.0224
C10_3 C 0.55893(19) 0.9198(6) 0.1049(6)
C11_3 C 0.54457(19) 0.8595(5) 0.1281(6)
H16_3 H 0.5501 0.8354 0.1698
C12_3 C 0.58246(19) 0.9470(6) 0.1511(6)
C25_3 C 0.5777(2) 0.8063(6) 0.4006(6)
C26_3 C 0.5421(2) 0.7889(6) 0.4999(6)
H23_3 H 0.5525 0.7503 0.5165
C27_3 C 0.5512(2) 0.8275(6) 0.4390(6)
C28_3 C 0.53539(19) 0.8845(6) 0.4157(6)
H24_3 H 0.5407 0.9111 0.3753
C29_3 C 0.5116(2) 0.9026(6) 0.4522(6)
H25_3 H 0.5007 0.9402 0.4359
C30_3 C 0.50457(19) 0.8632(5) 0.5134(6)
C31_3 C 0.48113(19) 0.8796(5) 0.5606(6)
C32_3 C 0.46270(19) 0.9324(5) 0.5458(6)
H26_3 H 0.4644 0.9599 0.5039
C33_3 C 0.44136(19) 0.9452(6) 0.5935(6)
H27_3 H 0.4285 0.9804 0.5835
C34_3 C 0.43978(19) 0.9039(6) 0.6567(6)
C35_3 C 0.45895(19) 0.8499(5) 0.6669(6)
H28_3 H 0.4580 0.8218 0.7086
C36_3 C 0.4179(2) 0.9184(6) 0.7117(6)
C47_3 C 0.7896(2) 0.9612(6) 0.0495(6)
H34_3 H 0.7953 0.9162 0.0658
C49_3 C 0.6579(2) 0.9567(6) 0.1386(6)
C50_3 C 0.69928(19) 0.9191(6) 0.0637(6)
H35_3 H 0.6974 0.9613 0.0367
C51_3 C 0.67981(19) 0.9035(6) 0.1186(6)
C52_3 C 0.68247(19) 0.8389(5) 0.1551(6)
H36_3 H 0.6697 0.8256 0.1895
C53_3 C 0.70422(19) 0.7940(6) 0.1403(6)
H37_3 H 0.7059 0.7499 0.1640
C54_3 C 0.72368(19) 0.8155(5) 0.0897(6)
C55_3 C 0.7489(2) 0.7767(6) 0.0771(6)
C56_3 C 0.7567(2) 0.7164(6) 0.1193(6)
H38_3 H 0.7448 0.6957 0.1522
C57_3 C 0.78238(19) 0.6893(6) 0.1104(6)
H39_3 H 0.7882 0.6510 0.1390
C58_3 C 0.7999(2) 0.7194(6) 0.0580(6)
C59_3 C 0.7901(2) 0.7764(6) 0.0165(6)
C60_3 C 0.8284(2) 0.6921(6) 0.0504(6)
O40_3 O 0.65379(16) 0.8548(5) 0.3650(5)
N13_3 N 0.48564(18) 0.7926(5) 0.1973(5)
N14_3 N 0.52729(17) 0.7102(5) 0.1897(5)
N15_3 N 0.51944(16) 0.6946(5) 0.0345(5)
N16_3 N 0.47867(16) 0.6633(4) 0.1191(5)
Co1_2 Co 0.74658(2) 0.88342(7) 0.96505(7)
O1_3 O 0.39987(13) 0.7892(4) 0.8837(4)
O2_3 O 0.41065(14) 0.6918(4) 0.9493(4)
O14_3 O 0.65962(15) 0.9552(4) 0.7777(4)
O19_3 O 0.83889(15) 0.6933(4) 0.9886(4)
O27_3 O 0.38262(16) 0.8971(4) 0.9872(4)
N7_3 N 0.72597(17) 0.9662(5) 0.9203(5)
C1_3 C 0.4147(2) 0.7542(6) 0.9264(6)
C3_3 C 0.4404(2) 0.7911(6) 0.9524(6)
C4_3 C 0.45208(19) 0.8484(5) 0.9156(6)
H12_3 H 0.4436 0.8680 0.8752
C5_3 C 0.47670(19) 0.8761(6) 0.9398(6)
H13_3 H 0.4849 0.9141 0.9155
H14_3 H 0.5240 0.9513 0.9612
C38_3 C 0.7038(2) 0.9620(6) 0.8784(6)
H29_3 H 0.6985 0.9167 0.8621
H40_3 H 0.8013 0.7960 0.9810
O30_3 O 0.40703(13) 0.9942(4) 0.8704(4)
O35_2 O 0.65269(14) 0.9431(4) 0.6190(4)
O37_3 O 0.34559(13) 0.9891(4) 0.8999(4)
O39_3 O 0.35385(15) 0.9064(4) 0.7537(4)
N17_2 N 0.77328(17) 0.8686(5) 0.8823(5)
N18_2 N 0.72739(17) 0.8031(5) 0.9105(5)
O11_2 O 0.08601(13) 0.1252(4) 0.2621(4)
O12_4 O 0.09559(13) 0.0251(4) 0.2007(4)
N6_4 N 0.02133(16) 0.1633(4) 0.1191(5)
C31_4 C 0.01887(19) 0.1204(5) 0.0606(6)
C32_4 C 0.03730(19) 0.0676(5) 0.0458(6)
H26_4 H 0.0356 0.0401 0.0039
C33_4 C 0.05864(19) 0.0548(6) 0.0935(6)
H27_4 H 0.0715 0.0196 0.0835
C34_4 C 0.06022(19) 0.0961(6) 0.1567(6)
C35_4 C 0.04105(19) 0.1501(5) 0.1669(6)
H28_4 H 0.0420 0.1782 0.2086
C36_4 C 0.0821(2) 0.0816(6) 0.2117(6)
O1_4 O 0.10013(13) 0.2108(4) 0.3837(4)
O2_4 O 0.08935(14) 0.3082(4) 0.4493(4)
O27_4 O 0.11738(16) 0.1029(4) 0.4872(4)
H5_4 H 0.1048 0.0739 0.5027
H6_4 H 0.1320 0.0926 0.5100
N1_4 N 0.02269(16) 0.2100(4) 0.5373(5)
C1_4 C 0.0853(2) 0.2458(6) 0.4264(6)
C2_4 C 0.04666(19) 0.2359(6) 0.5135(6)
H11_4 H 0.0548 0.2733 0.5391
C3_4 C 0.0596(2) 0.2089(6) 0.4524(6)
C4_4 C 0.04792(19) 0.1516(5) 0.4156(6)
H12_4 H 0.0564 0.1320 0.3752
C5_4 C 0.02330(19) 0.1239(6) 0.4398(6)
H13_4 H 0.0151 0.0859 0.4155
C6_4 C 0.01122(19) 0.1537(5) 0.5007(6)
O30_4 O 0.09297(13) 0.0058(4) 0.3704(4)
O37_4 O 0.15441(13) 0.0109(4) 0.3999(4)
O39_4 O 0.14615(15) 0.0936(4) 0.2537(4)
N13_4 N 0.01436(18) 0.2074(5) 0.6973(5)
N16_4 N 0.02133(16) 0.3367(4) 0.6191(5)
N4_4 N 0.02729(17) 0.7102(5) 0.3103(5)
C19_4 C 0.0189(2) 0.7234(6) 0.2424(6)
C20_4 C 0.0315(2) 0.6950(6) 0.1831(6)
H20_4 H 0.0246 0.7035 0.1369
C21_4 C 0.0547(2) 0.6530(6) 0.1922(6)
H21_4 H 0.0636 0.6333 0.1525
C22_4 C 0.0640(2) 0.6416(6) 0.2606(6)
C23_4 C 0.0494(2) 0.6699(6) 0.3188(6)
H22_4 H 0.0554 0.6602 0.3655
C24_4 C 0.0889(2) 0.5967(7) 0.2738(7)
N5_4 N 0.98056(16) 0.1946(5) 0.0345(5)
H23_4 H 0.9475 0.2497 0.0165
C30_4 C 0.99543(19) 0.1368(5) 0.0134(6)
Eu1_4 Eu 0.878689(9) 0.08068(3) 0.80167(3)
Co2_4 Co 0.99765(2) 0.25185(7) 0.61383(7)
O4_4 O 0.91152(13) 0.0894(4) 0.7050(4)
O9_4 O 0.91307(14) 0.2534(4) 0.9139(4)
O10_4 O 0.91345(14) 0.1468(4) 0.8583(4)
O14_4 O 0.84038(15) 0.0448(4) 0.2777(4)
O18_4 O 0.85454(13) 0.0578(4) 0.6962(4)
O19_4 O 0.66111(15) 0.3067(4) 0.4886(4)
O25_4 O 0.88455(19) 0.0375(5) 0.9293(5)
H1_4 H 0.8942 0.0755 0.9346
H2_4 H 0.8680 0.0499 0.9343
O26_4 O 0.87473(16) 0.1998(5) 0.7425(5)
H3_4 H 0.8899 0.2158 0.7601
H4_4 H 0.8618 0.2140 0.7702
N2_4 N 0.97708(16) 0.1644(5) 0.5916(5)
N7_4 N 0.77403(17) 0.0338(5) 0.4203(5)
N8_4 N 0.73252(17) 0.0347(5) 0.5073(5)
N9_4 N 0.78019(16) 0.1243(4) 0.5499(5)
N10_4 N 0.73457(16) 0.1960(5) 0.5255(5)
C7_4 C 0.98591(19) 0.1286(6) 0.5315(6)
C8_4 C 0.97084(19) 0.0709(5) 0.5042(6)
H14_4 H 0.9760 0.0487 0.4612
C9_4 C 0.94845(19) 0.0470(6) 0.5406(6)
H15_4 H 0.9383 0.0089 0.5224
C10_4 C 0.94107(19) 0.0802(6) 0.6049(6)
C11_4 C 0.95543(19) 0.1405(5) 0.6281(6)
H16_4 H 0.9499 0.1646 0.6698
C12_4 C 0.91754(19) 0.0530(6) 0.6511(6)
C25_4 C 0.9223(2) 0.1937(6) 0.9006(6)
C26_4 C 0.9579(2) 0.2111(6) 0.9999(6)
C27_4 C 0.9488(2) 0.1725(6) 0.9390(6)
C28_4 C 0.96461(19) 0.1155(6) 0.9157(6)
H24_4 H 0.9593 0.0889 0.8753
C29_4 C 0.9884(2) 0.0974(6) 0.9522(6)
H25_4 H 0.9993 0.0598 0.9359
C38_4 C 0.7962(2) 0.0380(6) 0.3784(6)
H29_4 H 0.8015 0.0833 0.3621
C47_4 C 0.7104(2) 0.0388(6) 0.5495(6)
H34_4 H 0.7047 0.0838 0.5658
C49_4 C 0.8421(2) 0.0433(6) 0.6386(6)
C50_4 C 0.80072(19) 0.0809(6) 0.5637(6)
H35_4 H 0.8026 0.0387 0.5367
C51_4 C 0.82019(19) 0.0965(6) 0.6186(6)
C52_4 C 0.81753(19) 0.1611(5) 0.6551(6)
H36_4 H 0.8303 0.1744 0.6895
C53_4 C 0.79578(19) 0.2060(6) 0.6403(6)
H37_4 H 0.7941 0.2501 0.6640
C54_4 C 0.77632(19) 0.1845(5) 0.5897(6)
C55_4 C 0.7511(2) 0.2233(6) 0.5771(6)
C56_4 C 0.7433(2) 0.2836(6) 0.6193(6)
H38_4 H 0.7552 0.3043 0.6522
C57_4 C 0.71762(19) 0.3107(6) 0.6104(6)
H39_4 H 0.7118 0.3490 0.6390
C58_4 C 0.7001(2) 0.2806(6) 0.5580(6)
C59_4 C 0.7099(2) 0.2236(6) 0.5165(6)
H40_4 H 0.6987 0.2040 0.4810
C60_4 C 0.6716(2) 0.3079(6) 0.5504(6)
O40_4 O 0.84621(16) 0.1452(5) 0.8650(5)
N14_4 N 0.97271(17) 0.2898(5) 0.6897(5)
N15_4 N 0.98056(16) 0.3054(5) 0.5345(5)
O3_4 O 0.90703(13) 0.9942(4) 0.6296(4)
O5_4 O 0.91311(16) 0.9135(4) 0.2931(5)
O6_4 O 0.92286(15) 0.9462(5) 0.1835(5)
O13_4 O 0.85218(14) 0.9345(4) 0.3066(4)
O17_4 O 0.84559(13) 0.9891(4) 0.6001(4)
O21_4 O 0.85385(15) 0.9064(4) 0.7463(4)
O22_4 O 0.84299(15) 0.9885(4) 0.8313(4)
O23_4 O 0.65379(16) 0.6452(5) 0.8650(5)
O24_4 O 0.65537(17) 0.7099(5) 0.9673(5)
O28_4 O 0.87372(17) 0.8456(5) 0.1901(6)
H7_4 H 0.8749 0.8159 0.2248
H8_4 H 0.8760 0.8221 0.1488
O29_4 O 0.88568(17) 0.9444(5) 0.0745(5)
H9_4 H 0.9014 0.9326 0.0602
H10_4 H 0.8840 0.9304 0.1181
N3_4 N 0.98564(18) 0.7926(5) 0.3027(5)
C13_4 C 0.9278(2) 0.9116(7) 0.2402(7)
C14_4 C 0.9640(2) 0.8388(6) 0.3039(7)
H17_4 H 0.9571 0.8536 0.3482
C15_4 C 0.9522(2) 0.8641(7) 0.2406(7)
C16_4 C 0.9618(2) 0.8416(6) 0.1756(7)
H18_4 H 0.9539 0.8575 0.1329
C17_4 C 0.9838(2) 0.7944(6) 0.1734(7)
H19_4 H 0.9907 0.7783 0.1295
C18_4 C 0.9950(2) 0.7721(6) 0.2386(6)
C37_4 C 0.8364(2) 0.9876(6) 0.3125(6)
C39_4 C 0.8114(2) 0.9793(6) 0.3582(7)
C40_4 C 0.8031(2) 0.9110(6) 0.3802(6)
H30_4 H 0.8130 0.8701 0.3677
C41_4 C 0.7793(2) 0.9057(6) 0.4219(6)
H31_4 H 0.7732 0.8607 0.4373
C42_4 C 0.7652(2) 0.9666(6) 0.4399(6)
C43_4 C 0.7404(2) 0.9672(6) 0.4848(6)
C44_4 C 0.7261(2) 0.9064(6) 0.5032(6)
H32_4 H 0.7321 0.8613 0.4879
C45_4 C 0.7026(2) 0.9121(6) 0.5445(6)
H33_4 H 0.6921 0.8717 0.5547
C46_4 C 0.6955(2) 0.9782(6) 0.5697(6)
C48_4 C 0.6706(2) 0.9915(6) 0.6167(6)
C61_4 C 0.8391(2) 0.9315(6) 0.7971(7)
C62_4 C 0.7957(2) 0.9069(6) 0.8670(6)
H41_4 H 0.7985 0.9502 0.8914
C63_4 C 0.8148(2) 0.8850(6) 0.8166(7)
C64_4 C 0.8115(2) 0.8198(6) 0.7827(6)
H42_4 H 0.8247 0.8029 0.7511
C65_4 C 0.7884(2) 0.7790(6) 0.7957(6)
H43_4 H 0.7856 0.7352 0.7723
C66_4 C 0.7695(2) 0.8059(6) 0.8451(6)
C67_4 C 0.7431(2) 0.7710(6) 0.8592(6)
C68_4 C 0.7338(2) 0.7092(6) 0.8218(6)
H44_4 H 0.7448 0.6870 0.7876
C69_4 C 0.7087(2) 0.6824(6) 0.8363(6)
H45_4 H 0.7024 0.6420 0.8117
C70_4 C 0.6928(2) 0.7154(6) 0.8874(6)
C71_4 C 0.7026(2) 0.7765(6) 0.9233(6)
H46_4 H 0.6915 0.7994 0.9570
C72_4 C 0.6647(3) 0.6877(7) 0.9091(8)
Eu8_4 Eu 0.877778(9) 0.89886(3) 0.64371(3)
O34_4 O 0.90441(13) 0.9749(4) 0.7993(4)
Eu10_3 Eu 0.124338(9) 0.02157(3) 0.79880(3)
O11_3 O 0.08601(13) 0.3748(4) 0.7621(4)
H5_5 H 0.1048 0.4261 0.0027
H6_5 H 0.1320 0.4074 0.0100
N1_5 N 0.02269(16) 0.2900(4) 0.0373(5)
C2_5 C 0.04666(19) 0.2641(6) 0.0135(6)
H11_5 H 0.0548 0.2267 0.0391
C6_5 C 0.01122(19) 0.3463(5) 0.0007(6)
C31_5 C 0.01887(19) 0.3796(5) 0.5606(6)
C32_5 C 0.03730(19) 0.4324(5) 0.5458(6)
H26_5 H 0.0356 0.4599 0.5039
C33_5 C 0.05864(19) 0.4452(6) 0.5935(6)
H27_5 H 0.0715 0.4804 0.5835
C34_5 C 0.06022(19) 0.4039(6) 0.6567(6)
C35_5 C 0.04105(19) 0.3499(5) 0.6669(6)
H28_5 H 0.0420 0.3218 0.7086
C36_5 C 0.0821(2) 0.4184(6) 0.7117(6)
O1_5 O 0.10013(13) 0.2892(4) 0.8837(4)
O2_5 O 0.08935(14) 0.1918(4) 0.9493(4)
O7_3 O 0.09654(16) 0.9145(5) 0.8364(5)
O8_3 O 0.09981(16) 0.9322(5) 0.7186(5)
O27_5 O 0.11738(16) 0.3971(4) 0.9872(4)
C1_5 C 0.0853(2) 0.2542(6) 0.9264(6)
C3_5 C 0.0596(2) 0.2911(6) 0.9524(6)
C4_5 C 0.04792(19) 0.3484(5) 0.9156(6)
H12_5 H 0.0564 0.3680 0.8752
C5_5 C 0.02330(19) 0.3761(6) 0.9398(6)
H13_5 H 0.0151 0.4141 0.9155
C19_5 C 0.0189(2) 0.7766(6) 0.7424(6)
C20_5 C 0.0315(2) 0.8050(6) 0.6831(6)
H20_5 H 0.0246 0.7965 0.6369
C21_5 C 0.0547(2) 0.8470(6) 0.6922(6)
H21_5 H 0.0636 0.8667 0.6525
C22_5 C 0.0640(2) 0.8584(6) 0.7606(6)
C23_5 C 0.0494(2) 0.8301(6) 0.8188(6)
H22_5 H 0.0554 0.8398 0.8655
C24_5 C 0.0889(2) 0.9033(7) 0.7738(7)
O38_3 O 0.16022(14) 0.3312(4) 0.8946(4)
O4_5 O 0.91152(13) 0.4106(4) 0.2050(4)
O9_5 O 0.91307(14) 0.2466(4) 0.4139(4)
O10_5 O 0.91345(14) 0.3532(4) 0.3583(4)
O15_3 O 0.65269(14) 0.5569(4) 0.1190(4)
O16_3 O 0.66849(14) 0.4493(4) 0.1500(4)
O18_5 O 0.85454(13) 0.4422(4) 0.1962(4)
O20_3 O 0.66022(14) 0.1688(4) 0.1054(4)
O22_5 O 0.84299(15) 0.5115(4) 0.3313(4)
O24_5 O 0.65537(17) 0.7901(5) 0.4673(5)
O25_5 O 0.88455(19) 0.4625(5) 0.4293(5)
H1_5 H 0.8942 0.4245 0.4346
H2_5 H 0.8680 0.4501 0.4343
O26_5 O 0.87473(16) 0.3002(5) 0.2425(5)
H3_5 H 0.8899 0.2842 0.2601
H4_5 H 0.8618 0.2860 0.2702
N2_5 N 0.97708(16) 0.3356(5) 0.0916(5)
N8_5 N 0.73252(17) 0.4653(5) 0.0073(5)
N9_5 N 0.78019(16) 0.3757(4) 0.0499(5)
N10_5 N 0.73457(16) 0.3040(5) 0.0255(5)
N11_3 N 0.77328(17) 0.6314(5) 0.3823(5)
N12_3 N 0.72739(17) 0.6969(5) 0.4105(5)
C7_5 C 0.98591(19) 0.3714(6) 0.0315(6)
C8_5 C 0.97084(19) 0.4291(5) 0.0042(6)
C9_5 C 0.94845(19) 0.4530(6) 0.0406(6)
H15_5 H 0.9383 0.4911 0.0224
C10_5 C 0.94107(19) 0.4198(6) 0.1049(6)
C11_5 C 0.95543(19) 0.3595(5) 0.1281(6)
H16_5 H 0.9499 0.3354 0.1698
C12_5 C 0.91754(19) 0.4470(6) 0.1511(6)
C25_5 C 0.9223(2) 0.3063(6) 0.4006(6)
C26_5 C 0.9579(2) 0.2889(6) 0.4999(6)
H23_5 H 0.9475 0.2503 0.5165
C27_5 C 0.9488(2) 0.3275(6) 0.4390(6)
C28_5 C 0.96461(19) 0.3845(6) 0.4157(6)
H24_5 H 0.9593 0.4111 0.3753
C29_5 C 0.9884(2) 0.4026(6) 0.4522(6)
H25_5 H 0.9993 0.4402 0.4359
C30_5 C 0.99543(19) 0.3632(5) 0.5134(6)
C44_5 C 0.7261(2) 0.5936(6) 0.0032(6)
C45_5 C 0.7026(2) 0.5879(6) 0.0445(6)
H33_5 H 0.6921 0.6283 0.0547
C46_5 C 0.6955(2) 0.5218(6) 0.0697(6)
C47_5 C 0.7104(2) 0.4612(6) 0.0495(6)
H34_5 H 0.7047 0.4162 0.0658
C48_5 C 0.6706(2) 0.5085(6) 0.1167(6)
C49_5 C 0.8421(2) 0.4567(6) 0.1386(6)
C50_5 C 0.80072(19) 0.4191(6) 0.0637(6)
H35_5 H 0.8026 0.4613 0.0367
C51_5 C 0.82019(19) 0.4035(6) 0.1186(6)
C52_5 C 0.81753(19) 0.3389(5) 0.1551(6)
H36_5 H 0.8303 0.3256 0.1895
C53_5 C 0.79578(19) 0.2940(6) 0.1403(6)
H37_5 H 0.7941 0.2499 0.1640
C54_5 C 0.77632(19) 0.3155(5) 0.0897(6)
C55_5 C 0.7511(2) 0.2767(6) 0.0771(6)
C56_5 C 0.7433(2) 0.2164(6) 0.1193(6)
H38_5 H 0.7552 0.1957 0.1522
C57_5 C 0.71762(19) 0.1893(6) 0.1104(6)
H39_5 H 0.7118 0.1510 0.1390
C58_5 C 0.7001(2) 0.2194(6) 0.0580(6)
C59_5 C 0.7099(2) 0.2764(6) 0.0165(6)
C60_5 C 0.6716(2) 0.1921(6) 0.0504(6)
C61_5 C 0.8391(2) 0.5685(6) 0.2971(7)
C62_5 C 0.7957(2) 0.5931(6) 0.3670(6)
H41_5 H 0.7985 0.5498 0.3914
C63_5 C 0.8148(2) 0.6150(6) 0.3166(7)
C64_5 C 0.8115(2) 0.6802(6) 0.2827(6)
H42_5 H 0.8247 0.6971 0.2511
C65_5 C 0.7884(2) 0.7210(6) 0.2957(6)
H43_5 H 0.7856 0.7648 0.2723
C66_5 C 0.7695(2) 0.6941(6) 0.3451(6)
C67_5 C 0.7431(2) 0.7290(6) 0.3592(6)
C68_5 C 0.7338(2) 0.7908(6) 0.3218(6)
H44_5 H 0.7448 0.8130 0.2876
C69_5 C 0.7087(2) 0.8176(6) 0.3363(6)
H45_5 H 0.7024 0.8580 0.3117
C70_5 C 0.6928(2) 0.7846(6) 0.3874(6)
C71_5 C 0.7026(2) 0.7235(6) 0.4233(6)
H46_5 H 0.6915 0.7006 0.4570
C72_5 C 0.6647(3) 0.8123(7) 0.4091(8)
Eu9_2 Eu 0.624338(9) 0.47843(3) 0.20120(3)
Co3_3 Co 0.74658(2) 0.61658(7) 0.46505(7)
Eu3_2 Eu 0.875662(9) 0.52157(3) 0.70120(3)
Co1_3 Co 0.75342(2) 0.38342(7) 0.96505(7)
O5_5 O 0.91311(16) 0.5865(4) 0.7931(5)
O6_5 O 0.92286(15) 0.5538(5) 0.6835(5)
O13_5 O 0.85218(14) 0.5655(4) 0.8066(4)
O14_5 O 0.84038(15) 0.4552(4) 0.7777(4)
O19_5 O 0.66111(15) 0.1933(4) 0.9886(4)
O28_5 O 0.87372(17) 0.6544(5) 0.6901(6)
H7_5 H 0.8749 0.6841 0.7248
H8_5 H 0.8760 0.6779 0.6488
O29_5 O 0.88568(17) 0.5556(5) 0.5745(5)
H9_5 H 0.9014 0.5674 0.5602
H10_5 H 0.8840 0.5696 0.6181
N7_5 N 0.77403(17) 0.4662(5) 0.9203(5)
H14_5 H 0.9760 0.4513 0.9612
C13_5 C 0.9278(2) 0.5884(7) 0.7402(7)
C14_5 C 0.9640(2) 0.6612(6) 0.8039(7)
H17_5 H 0.9571 0.6464 0.8482
C15_5 C 0.9522(2) 0.6359(7) 0.7406(7)
C16_5 C 0.9618(2) 0.6584(6) 0.6756(7)
H18_5 H 0.9539 0.6425 0.6329
C17_5 C 0.9838(2) 0.7056(6) 0.6734(7)
H19_5 H 0.9907 0.7217 0.6295
C18_5 C 0.9950(2) 0.7279(6) 0.7386(6)
C37_5 C 0.8364(2) 0.5124(6) 0.8125(6)
C38_5 C 0.7962(2) 0.4620(6) 0.8784(6)
H29_5 H 0.8015 0.4167 0.8621
C39_5 C 0.8114(2) 0.5207(6) 0.8582(7)
C40_5 C 0.8031(2) 0.5890(6) 0.8802(6)
H30_5 H 0.8130 0.6299 0.8677
C41_5 C 0.7793(2) 0.5943(6) 0.9219(6)
H31_5 H 0.7732 0.6393 0.9373
C42_5 C 0.7652(2) 0.5334(6) 0.9399(6)
C43_5 C 0.7404(2) 0.5328(6) 0.9848(6)
H32_5 H 0.7321 0.6387 0.9879
H40_5 H 0.6987 0.2960 0.9810
O31_3 O 0.90346(16) 0.4145(5) 0.6636(5)
O32_3 O 0.90019(16) 0.4322(5) 0.7814(5)
O35_3 O 0.84731(14) 0.4431(4) 0.6190(4)
O36_3 O 0.83151(14) 0.5507(4) 0.6500(4)
N17_3 N 0.72672(17) 0.3686(5) 0.8823(5)
N18_3 N 0.77261(17) 0.3031(5) 0.9105(5)
O11_4 O 0.41399(13) 0.6252(4) 0.2621(4)
H23_6 H 0.5525 0.7497 0.0165
C30_6 C 0.50457(19) 0.6368(5) 0.0134(6)
C31_6 C 0.48113(19) 0.6204(5) 0.0606(6)
C32_6 C 0.46270(19) 0.5676(5) 0.0458(6)
H26_6 H 0.4644 0.5401 0.0039
C33_6 C 0.44136(19) 0.5548(6) 0.0935(6)
H27_6 H 0.4285 0.5196 0.0835
C34_6 C 0.43978(19) 0.5961(6) 0.1567(6)
C35_6 C 0.45895(19) 0.6501(5) 0.1669(6)
H28_6 H 0.4580 0.6782 0.2086
C36_6 C 0.4179(2) 0.5816(6) 0.2117(6)
O1_6 O 0.39987(13) 0.7108(4) 0.3837(4)
O2_6 O 0.41065(14) 0.8082(4) 0.4493(4)
O4_6 O 0.58848(13) 0.5894(4) 0.7050(4)
O5_6 O 0.58689(16) 0.4135(4) 0.2931(5)
O6_6 O 0.57714(15) 0.4462(5) 0.1835(5)
O7_4 O 0.40346(16) 0.0855(5) 0.3364(5)
O8_4 O 0.40019(16) 0.0678(5) 0.2186(5)
O9_6 O 0.58693(14) 0.7534(4) 0.9139(4)
O10_6 O 0.58655(14) 0.6468(4) 0.8583(4)
O13_6 O 0.64782(14) 0.4345(4) 0.3066(4)
O14_6 O 0.65962(15) 0.5448(4) 0.2777(4)
O18_6 O 0.64546(13) 0.5578(4) 0.6962(4)
O19_6 O 0.83889(15) 0.8067(4) 0.4886(4)
O20_4 O 0.83978(14) 0.8312(4) 0.6054(4)
O22_6 O 0.65701(15) 0.4885(4) 0.8313(4)
O24_6 O 0.84463(17) 0.2099(5) 0.9673(5)
O25_6 O 0.61545(19) 0.5375(5) 0.9293(5)
H1_6 H 0.6058 0.5755 0.9346
H2_6 H 0.6320 0.5499 0.9343
O26_6 O 0.62527(16) 0.6998(5) 0.7425(5)
H3_6 H 0.6101 0.7158 0.7601
H4_6 H 0.6382 0.7140 0.7702
O27_6 O 0.38262(16) 0.6029(4) 0.4872(4)
H5_6 H 0.3952 0.5739 0.5027
H6_6 H 0.3680 0.5926 0.5100
O28_6 O 0.62628(17) 0.3456(5) 0.1901(6)
H7_6 H 0.6251 0.3159 0.2248
H8_6 H 0.6240 0.3221 0.1488
O29_6 O 0.61432(17) 0.4444(5) 0.0745(5)
H9_6 H 0.5986 0.4326 0.0602
H10_6 H 0.6160 0.4304 0.1181
N1_6 N 0.47731(16) 0.7100(4) 0.5373(5)
N2_6 N 0.52292(16) 0.6644(5) 0.5916(5)
N7_6 N 0.72597(17) 0.5338(5) 0.4203(5)
N8_6 N 0.76748(17) 0.5347(5) 0.5073(5)
N9_6 N 0.71981(16) 0.6243(4) 0.5499(5)
N10_6 N 0.76543(16) 0.6960(5) 0.5255(5)
C1_6 C 0.4147(2) 0.7458(6) 0.4264(6)
C2_6 C 0.45334(19) 0.7359(6) 0.5135(6)
H11_6 H 0.4452 0.7733 0.5391
C3_6 C 0.4404(2) 0.7089(6) 0.4524(6)
C4_6 C 0.45208(19) 0.6516(5) 0.4156(6)
H12_6 H 0.4436 0.6320 0.3752
C5_6 C 0.47670(19) 0.6239(6) 0.4398(6)
H13_6 H 0.4849 0.5859 0.4155
C6_6 C 0.48878(19) 0.6537(5) 0.5007(6)
C7_6 C 0.51409(19) 0.6286(6) 0.5315(6)
C8_6 C 0.52916(19) 0.5709(5) 0.5042(6)
H14_6 H 0.5240 0.5487 0.4612
C9_6 C 0.55155(19) 0.5470(6) 0.5406(6)
H15_6 H 0.5617 0.5089 0.5224
C10_6 C 0.55893(19) 0.5802(6) 0.6049(6)
C11_6 C 0.54457(19) 0.6405(5) 0.6281(6)
H16_6 H 0.5501 0.6646 0.6698
C12_6 C 0.58246(19) 0.5530(6) 0.6511(6)
C13_6 C 0.5722(2) 0.4116(7) 0.2402(7)
C14_6 C 0.5360(2) 0.3388(6) 0.3039(7)
H17_6 H 0.5429 0.3536 0.3482
C15_6 C 0.5478(2) 0.3641(7) 0.2406(7)
C16_6 C 0.5382(2) 0.3416(6) 0.1756(7)
H18_6 H 0.5461 0.3575 0.1329
C17_6 C 0.5162(2) 0.2944(6) 0.1734(7)
H19_6 H 0.5093 0.2783 0.1295
C18_6 C 0.5050(2) 0.2721(6) 0.2386(6)
C19_6 C 0.4811(2) 0.2234(6) 0.2424(6)
C20_6 C 0.4685(2) 0.1950(6) 0.1831(6)
H20_6 H 0.4754 0.2035 0.1369
C21_6 C 0.4453(2) 0.1530(6) 0.1922(6)
H21_6 H 0.4364 0.1333 0.1525
C22_6 C 0.4360(2) 0.1416(6) 0.2606(6)
C23_6 C 0.4506(2) 0.1699(6) 0.3188(6)
H22_6 H 0.4446 0.1602 0.3655
C24_6 C 0.4111(2) 0.0967(7) 0.2738(7)
C25_6 C 0.5777(2) 0.6937(6) 0.9006(6)
C26_6 C 0.5421(2) 0.7111(6) 0.9999(6)
C27_6 C 0.5512(2) 0.6725(6) 0.9390(6)
C28_6 C 0.53539(19) 0.6155(6) 0.9157(6)
H24_6 H 0.5407 0.5889 0.8753
C29_6 C 0.5116(2) 0.5974(6) 0.9522(6)
H25_6 H 0.5007 0.5598 0.9359
C37_6 C 0.6636(2) 0.4876(6) 0.3125(6)
C38_6 C 0.7038(2) 0.5380(6) 0.3784(6)
H29_6 H 0.6985 0.5833 0.3621
C39_6 C 0.6886(2) 0.4793(6) 0.3582(7)
C40_6 C 0.6969(2) 0.4110(6) 0.3802(6)
H30_6 H 0.6870 0.3701 0.3677
C41_6 C 0.7207(2) 0.4057(6) 0.4219(6)
H31_6 H 0.7268 0.3607 0.4373
C42_6 C 0.7348(2) 0.4666(6) 0.4399(6)
C43_6 C 0.7596(2) 0.4672(6) 0.4848(6)
C44_6 C 0.7739(2) 0.4064(6) 0.5032(6)
H32_6 H 0.7679 0.3613 0.4879
C45_6 C 0.7974(2) 0.4121(6) 0.5445(6)
H33_6 H 0.8079 0.3717 0.5547
C46_6 C 0.8045(2) 0.4782(6) 0.5697(6)
C47_6 C 0.7896(2) 0.5388(6) 0.5495(6)
H34_6 H 0.7953 0.5838 0.5658
C48_6 C 0.8294(2) 0.4915(6) 0.6167(6)
C49_6 C 0.6579(2) 0.5433(6) 0.6386(6)
C50_6 C 0.69928(19) 0.5809(6) 0.5637(6)
H35_6 H 0.6974 0.5387 0.5367
C51_6 C 0.67981(19) 0.5965(6) 0.6186(6)
C52_6 C 0.68247(19) 0.6611(5) 0.6551(6)
H36_6 H 0.6697 0.6744 0.6895
C53_6 C 0.70422(19) 0.7060(6) 0.6403(6)
H37_6 H 0.7059 0.7501 0.6640
C54_6 C 0.72368(19) 0.6845(5) 0.5897(6)
C55_6 C 0.7489(2) 0.7233(6) 0.5771(6)
C56_6 C 0.7567(2) 0.7836(6) 0.6193(6)
H38_6 H 0.7448 0.8043 0.6522
C57_6 C 0.78238(19) 0.8107(6) 0.6104(6)
H39_6 H 0.7882 0.8490 0.6390
C58_6 C 0.7999(2) 0.7806(6) 0.5580(6)
C59_6 C 0.7901(2) 0.7236(6) 0.5165(6)
H40_6 H 0.8013 0.7040 0.4810
C60_6 C 0.8284(2) 0.8079(6) 0.5504(6)
C61_6 C 0.6609(2) 0.4315(6) 0.7971(7)
C62_6 C 0.7043(2) 0.4069(6) 0.8670(6)
H41_6 H 0.7015 0.4502 0.8914
C63_6 C 0.6852(2) 0.3850(6) 0.8166(7)
C64_6 C 0.6885(2) 0.3198(6) 0.7827(6)
H42_6 H 0.6753 0.3029 0.7511
C65_6 C 0.7116(2) 0.2790(6) 0.7957(6)
H43_6 H 0.7144 0.2352 0.7723
C66_6 C 0.7305(2) 0.3059(6) 0.8451(6)
C67_6 C 0.7569(2) 0.2710(6) 0.8592(6)
C68_6 C 0.7662(2) 0.2092(6) 0.8218(6)
H44_6 H 0.7552 0.1870 0.7876
C69_6 C 0.7913(2) 0.1824(6) 0.8363(6)
H45_6 H 0.7976 0.1420 0.8117
C70_6 C 0.8072(2) 0.2154(6) 0.8874(6)
C71_6 C 0.7974(2) 0.2765(6) 0.9233(6)
H46_6 H 0.8085 0.2994 0.9570
C72_6 C 0.8353(3) 0.1877(7) 0.9091(8)
O31_4 O 0.59654(16) 0.5855(5) 0.1636(5)
O32_4 O 0.59981(16) 0.5678(5) 0.2814(5)
O38_4 O 0.33978(14) 0.6688(4) 0.3946(4)
Eu10_4 Eu 0.375662(9) 0.97843(3) 0.29880(3)
Co1_4 Co 0.25342(2) 0.11658(7) 0.03495(7)
O1_7 O 0.60013(13) 0.2108(4) 0.1163(4)
O2_7 O 0.58935(14) 0.3082(4) 0.0507(4)
O14_7 O 0.34038(15) 0.0448(4) 0.2223(4)
O19_7 O 0.16111(15) 0.3067(4) 0.0114(4)
O27_7 O 0.61738(16) 0.1029(4) 0.0128(4)
N7_7 N 0.27403(17) 0.0338(5) 0.0797(5)
C1_7 C 0.5853(2) 0.2458(6) 0.0736(6)
C3_7 C 0.5596(2) 0.2089(6) 0.0476(6)
C4_7 C 0.54792(19) 0.1516(5) 0.0844(6)
H12_7 H 0.5564 0.1320 0.1248
C5_7 C 0.52330(19) 0.1239(6) 0.0602(6)
H13_7 H 0.5151 0.0859 0.0845
H14_7 H 0.4760 0.0487 0.0388
C38_7 C 0.2962(2) 0.0380(6) 0.1216(6)
H29_7 H 0.3015 0.0833 0.1379
H40_7 H 0.1987 0.2040 0.0190
O33_3 O 0.58601(13) 0.1252(4) 0.2379(4)
O35_4 O 0.34731(14) 0.0569(4) 0.3810(4)
N17_4 N 0.22672(17) 0.1314(5) 0.1177(5)
N18_4 N 0.27261(17) 0.1969(5) 0.0895(5)
O4_7 O 0.41152(13) 0.0894(4) 0.7950(4)
O9_7 O 0.41307(14) 0.2534(4) 0.5861(4)
O10_7 O 0.41345(14) 0.1468(4) 0.6417(4)
O16_4 O 0.16849(14) 0.0507(4) 0.8500(4)
O18_7 O 0.35454(13) 0.0578(4) 0.8038(4)
O25_7 O 0.38455(19) 0.0375(5) 0.5707(5)
H1_7 H 0.3942 0.0755 0.5654
H2_7 H 0.3680 0.0499 0.5657
O26_7 O 0.37473(16) 0.1998(5) 0.7575(5)
H3_7 H 0.3899 0.2158 0.7399
H4_7 H 0.3618 0.2140 0.7298
H5_7 H 0.6048 0.0739 0.9973
H6_7 H 0.6320 0.0926 0.9900
N1_7 N 0.52269(16) 0.2100(4) 0.9627(5)
N2_7 N 0.47708(16) 0.1644(5) 0.9084(5)
N8_7 N 0.23252(17) 0.0347(5) 0.9927(5)
N9_7 N 0.28019(16) 0.1243(4) 0.9501(5)
N10_7 N 0.23457(16) 0.1960(5) 0.9745(5)
C2_7 C 0.54666(19) 0.2359(6) 0.9865(6)
H11_7 H 0.5548 0.2733 0.9609
C6_7 C 0.51122(19) 0.1537(5) 0.9993(6)
C7_7 C 0.48591(19) 0.1286(6) 0.9685(6)
C8_7 C 0.47084(19) 0.0709(5) 0.9958(6)
C9_7 C 0.44845(19) 0.0470(6) 0.9594(6)
H15_7 H 0.4383 0.0089 0.9776
C10_7 C 0.44107(19) 0.0802(6) 0.8951(6)
C11_7 C 0.45543(19) 0.1405(5) 0.8719(6)
H16_7 H 0.4499 0.1646 0.8302
C12_7 C 0.41754(19) 0.0530(6) 0.8489(6)
C25_7 C 0.4223(2) 0.1937(6) 0.5994(6)
C26_7 C 0.4579(2) 0.2111(6) 0.5001(6)
H23_7 H 0.4475 0.2497 0.4835
C27_7 C 0.4488(2) 0.1725(6) 0.5610(6)
C28_7 C 0.46461(19) 0.1155(6) 0.5843(6)
H24_7 H 0.4593 0.0889 0.6247
C29_7 C 0.4884(2) 0.0974(6) 0.5478(6)
H25_7 H 0.4993 0.0598 0.5641
C30_7 C 0.49543(19) 0.1368(5) 0.4866(6)
C31_7 C 0.51887(19) 0.1204(5) 0.4394(6)
C32_7 C 0.53730(19) 0.0676(5) 0.4542(6)
H26_7 H 0.5356 0.0401 0.4961
C33_7 C 0.55864(19) 0.0548(6) 0.4065(6)
H27_7 H 0.5715 0.0196 0.4165
C34_7 C 0.56022(19) 0.0961(6) 0.3433(6)
C35_7 C 0.54105(19) 0.1501(5) 0.3331(6)
H28_7 H 0.5420 0.1782 0.2914
C36_7 C 0.5821(2) 0.0816(6) 0.2883(6)
C47_7 C 0.2104(2) 0.0388(6) 0.9505(6)
H34_7 H 0.2047 0.0838 0.9342
C49_7 C 0.3421(2) 0.0433(6) 0.8614(6)
C50_7 C 0.30072(19) 0.0809(6) 0.9363(6)
H35_7 H 0.3026 0.0387 0.9633
C51_7 C 0.32019(19) 0.0965(6) 0.8814(6)
C52_7 C 0.31753(19) 0.1611(5) 0.8449(6)
H36_7 H 0.3303 0.1744 0.8105
C53_7 C 0.29578(19) 0.2060(6) 0.8597(6)
H37_7 H 0.2941 0.2501 0.8360
C54_7 C 0.27632(19) 0.1845(5) 0.9103(6)
C55_7 C 0.2511(2) 0.2233(6) 0.9229(6)
C56_7 C 0.2433(2) 0.2836(6) 0.8807(6)
H38_7 H 0.2552 0.3043 0.8478
C57_7 C 0.21762(19) 0.3107(6) 0.8896(6)
H39_7 H 0.2118 0.3490 0.8610
C58_7 C 0.2001(2) 0.2806(6) 0.9420(6)
C59_7 C 0.2099(2) 0.2236(6) 0.9835(6)
C60_7 C 0.1716(2) 0.3079(6) 0.9496(6)
O5_7 O 0.41311(16) 0.9135(4) 0.2069(5)
O6_7 O 0.42286(15) 0.9462(5) 0.3165(5)
O13_7 O 0.35218(14) 0.9345(4) 0.1934(4)
O28_7 O 0.37372(17) 0.8456(5) 0.3099(6)
H7_7 H 0.3749 0.8159 0.2752
H8_7 H 0.3760 0.8221 0.3512
O29_7 O 0.38568(17) 0.9444(5) 0.4255(5)
H9_7 H 0.4014 0.9326 0.4398
H10_7 H 0.3840 0.9304 0.3819
C13_7 C 0.4278(2) 0.9116(7) 0.2598(7)
C14_7 C 0.4640(2) 0.8388(6) 0.1961(7)
H17_7 H 0.4571 0.8536 0.1518
C15_7 C 0.4522(2) 0.8641(7) 0.2594(7)
C16_7 C 0.4618(2) 0.8416(6) 0.3244(7)
H18_7 H 0.4539 0.8575 0.3671
C17_7 C 0.4838(2) 0.7944(6) 0.3266(7)
H19_7 H 0.4907 0.7783 0.3705
C18_7 C 0.4950(2) 0.7721(6) 0.2614(6)
C19_7 C 0.5189(2) 0.7234(6) 0.2576(6)
C20_7 C 0.5315(2) 0.6950(6) 0.3169(6)
H20_7 H 0.5246 0.7035 0.3631
C21_7 C 0.5547(2) 0.6530(6) 0.3078(6)
H21_7 H 0.5636 0.6333 0.3475
C22_7 C 0.5640(2) 0.6416(6) 0.2394(6)
C23_7 C 0.5494(2) 0.6699(6) 0.1812(6)
H22_7 H 0.5554 0.6602 0.1345
C24_7 C 0.5889(2) 0.5967(7) 0.2262(7)
C37_7 C 0.3364(2) 0.9876(6) 0.1875(6)
C39_7 C 0.3114(2) 0.9793(6) 0.1418(7)
C40_7 C 0.3031(2) 0.9110(6) 0.1198(6)
H30_7 H 0.3130 0.8701 0.1323
C41_7 C 0.2793(2) 0.9057(6) 0.0781(6)
H31_7 H 0.2732 0.8607 0.0627
C42_7 C 0.2652(2) 0.9666(6) 0.0601(6)
C43_7 C 0.2404(2) 0.9672(6) 0.0152(6)
H32_7 H 0.2321 0.8613 0.0121
O36_4 O 0.33151(14) 0.9493(4) 0.3500(4)
O15_4 O 0.15269(14) 0.9431(4) 0.8810(4)
O22_7 O 0.34299(15) 0.9885(4) 0.6687(4)
O24_7 O 0.15537(17) 0.7099(5) 0.5327(5)
N11_4 N 0.27328(17) 0.8686(5) 0.6177(5)
N12_4 N 0.22739(17) 0.8031(5) 0.5895(5)
C44_7 C 0.2261(2) 0.9064(6) 0.9968(6)
C45_7 C 0.2026(2) 0.9121(6) 0.9555(6)
H33_7 H 0.1921 0.8717 0.9453
C46_7 C 0.1955(2) 0.9782(6) 0.9303(6)
C48_7 C 0.1706(2) 0.9915(6) 0.8833(6)
C61_7 C 0.3391(2) 0.9315(6) 0.7029(7)
C62_7 C 0.2957(2) 0.9069(6) 0.6330(6)
H41_7 H 0.2985 0.9502 0.6086
C63_7 C 0.3148(2) 0.8850(6) 0.6834(7)
C64_7 C 0.3115(2) 0.8198(6) 0.7173(6)
H42_7 H 0.3247 0.8029 0.7489
C65_7 C 0.2884(2) 0.7790(6) 0.7043(6)
H43_7 H 0.2856 0.7352 0.7277
C66_7 C 0.2695(2) 0.8059(6) 0.6549(6)
C67_7 C 0.2431(2) 0.7710(6) 0.6408(6)
C68_7 C 0.2338(2) 0.7092(6) 0.6782(6)
H44_7 H 0.2448 0.6870 0.7124
C69_7 C 0.2087(2) 0.6824(6) 0.6637(6)
H45_7 H 0.2024 0.6420 0.6883
C70_7 C 0.1928(2) 0.7154(6) 0.6126(6)
C71_7 C 0.2026(2) 0.7765(6) 0.5767(6)
H46_7 H 0.1915 0.7994 0.5430
C72_7 C 0.1647(3) 0.6877(7) 0.5909(8)
Co3_4 Co 0.24658(2) 0.88342(7) 0.53495(7)
O5_8 O 0.08689(16) 0.0865(4) 0.7069(5)
O6_8 O 0.07714(15) 0.0538(5) 0.8165(5)
O13_8 O 0.14782(14) 0.0655(4) 0.6934(4)
O22_8 O 0.15701(15) 0.0115(4) 0.1687(4)
O24_8 O 0.34463(17) 0.2901(5) 0.0327(5)
O28_8 O 0.12628(17) 0.1544(5) 0.8099(6)
H7_8 H 0.1251 0.1841 0.7752
H8_8 H 0.1240 0.1779 0.8512
O29_8 O 0.11432(17) 0.0556(5) 0.9255(5)
H9_8 H 0.0986 0.0674 0.9398
H10_8 H 0.1160 0.0696 0.8819
C13_8 C 0.0722(2) 0.0884(7) 0.7598(7)
C14_8 C 0.0360(2) 0.1612(6) 0.6961(7)
H17_8 H 0.0429 0.1464 0.6518
C15_8 C 0.0478(2) 0.1359(7) 0.7594(7)
C16_8 C 0.0382(2) 0.1584(6) 0.8244(7)
H18_8 H 0.0461 0.1425 0.8671
C17_8 C 0.0162(2) 0.2056(6) 0.8266(7)
H19_8 H 0.0093 0.2217 0.8705
C18_8 C 0.0050(2) 0.2279(6) 0.7614(6)
C37_8 C 0.1636(2) 0.0124(6) 0.6875(6)
C39_8 C 0.1886(2) 0.0207(6) 0.6418(7)
C40_8 C 0.1969(2) 0.0890(6) 0.6198(6)
H30_8 H 0.1870 0.1299 0.6323
C41_8 C 0.2207(2) 0.0943(6) 0.5781(6)
H31_8 H 0.2268 0.1393 0.5627
C42_8 C 0.2348(2) 0.0334(6) 0.5601(6)
C43_8 C 0.2596(2) 0.0328(6) 0.5152(6)
C44_8 C 0.2739(2) 0.0936(6) 0.4968(6)
H32_8 H 0.2679 0.1387 0.5121
C45_8 C 0.2974(2) 0.0879(6) 0.4555(6)
H33_8 H 0.3079 0.1283 0.4453
C46_8 C 0.3045(2) 0.0218(6) 0.4303(6)
C48_8 C 0.3294(2) 0.0085(6) 0.3833(6)
C61_8 C 0.1609(2) 0.0685(6) 0.2029(7)
C62_8 C 0.2043(2) 0.0931(6) 0.1330(6)
H41_8 H 0.2015 0.0498 0.1086
C63_8 C 0.1852(2) 0.1150(6) 0.1834(7)
C64_8 C 0.1885(2) 0.1802(6) 0.2173(6)
H42_8 H 0.1753 0.1971 0.2489
C65_8 C 0.2116(2) 0.2210(6) 0.2043(6)
H43_8 H 0.2144 0.2648 0.2277
C66_8 C 0.2305(2) 0.1941(6) 0.1549(6)
C67_8 C 0.2569(2) 0.2290(6) 0.1408(6)
C68_8 C 0.2662(2) 0.2908(6) 0.1782(6)
H44_8 H 0.2552 0.3130 0.2124
C69_8 C 0.2913(2) 0.3176(6) 0.1637(6)
H45_8 H 0.2976 0.3580 0.1883
C70_8 C 0.3072(2) 0.2846(6) 0.1126(6)
C71_8 C 0.2974(2) 0.2235(6) 0.0767(6)
H46_8 H 0.3085 0.2006 0.0430
C72_8 C 0.3353(3) 0.3123(7) 0.0909(8)
O4_8 O 0.08848(13) 0.9106(4) 0.2950(4)
O9_8 O 0.08693(14) 0.7466(4) 0.0861(4)
O10_8 O 0.08655(14) 0.8532(4) 0.1417(4)
O14_8 O 0.15962(15) 0.9552(4) 0.7223(4)
O18_8 O 0.14546(13) 0.9422(4) 0.3038(4)
O19_8 O 0.33889(15) 0.6933(4) 0.5114(4)
O25_8 O 0.11545(19) 0.9625(5) 0.0707(5)
H1_8 H 0.1058 0.9245 0.0654
H2_8 H 0.1320 0.9501 0.0657
O26_8 O 0.12527(16) 0.8002(5) 0.2575(5)
H3_8 H 0.1101 0.7842 0.2399
H4_8 H 0.1382 0.7860 0.2298
N2_8 N 0.02292(16) 0.8356(5) 0.4084(5)
N7_8 N 0.22597(17) 0.9662(5) 0.5797(5)
N8_8 N 0.26748(17) 0.9653(5) 0.4927(5)
N9_8 N 0.21981(16) 0.8757(4) 0.4501(5)
N10_8 N 0.26543(16) 0.8040(5) 0.4745(5)
C7_8 C 0.01409(19) 0.8714(6) 0.4685(6)
C8_8 C 0.02916(19) 0.9291(5) 0.4958(6)
H14_8 H 0.0240 0.9513 0.5388
C9_8 C 0.05155(19) 0.9530(6) 0.4594(6)
H15_8 H 0.0617 0.9911 0.4776
C10_8 C 0.05893(19) 0.9198(6) 0.3951(6)
C11_8 C 0.04457(19) 0.8595(5) 0.3719(6)
H16_8 H 0.0501 0.8354 0.3302
C12_8 C 0.08246(19) 0.9470(6) 0.3489(6)
C25_8 C 0.0777(2) 0.8063(6) 0.0994(6)
C26_8 C 0.0421(2) 0.7889(6) 0.0001(6)
C27_8 C 0.0512(2) 0.8275(6) 0.0610(6)
C28_8 C 0.03539(19) 0.8845(6) 0.0843(6)
H24_8 H 0.0407 0.9111 0.1247
C29_8 C 0.0116(2) 0.9026(6) 0.0478(6)
H25_8 H 0.0007 0.9402 0.0641
C38_8 C 0.2038(2) 0.9620(6) 0.6216(6)
H29_8 H 0.1985 0.9167 0.6379
C47_8 C 0.2896(2) 0.9612(6) 0.4505(6)
H34_8 H 0.2953 0.9162 0.4342
C49_8 C 0.1579(2) 0.9567(6) 0.3614(6)
C50_8 C 0.19928(19) 0.9191(6) 0.4363(6)
H35_8 H 0.1974 0.9613 0.4633
C51_8 C 0.17981(19) 0.9035(6) 0.3814(6)
C52_8 C 0.18247(19) 0.8389(5) 0.3449(6)
H36_8 H 0.1697 0.8256 0.3105
C53_8 C 0.20422(19) 0.7940(6) 0.3597(6)
H37_8 H 0.2059 0.7499 0.3360
C54_8 C 0.22368(19) 0.8155(5) 0.4103(6)
C55_8 C 0.2489(2) 0.7767(6) 0.4229(6)
C56_8 C 0.2567(2) 0.7164(6) 0.3807(6)
H38_8 H 0.2448 0.6957 0.3478
C57_8 C 0.28238(19) 0.6893(6) 0.3896(6)
H39_8 H 0.2882 0.6510 0.3610
C58_8 C 0.2999(2) 0.7194(6) 0.4420(6)
C59_8 C 0.2901(2) 0.7764(6) 0.4835(6)
H40_8 H 0.3013 0.7960 0.5190
C60_8 C 0.3284(2) 0.6921(6) 0.4496(6)
H23_8 H 0.0525 0.7503 0.9835
C30_8 C 0.00457(19) 0.8632(5) 0.9866(6)
C19_8 C 0.9811(2) 0.2766(6) 0.7576(6)
C20_8 C 0.9685(2) 0.3050(6) 0.8169(6)
H20_8 H 0.9754 0.2965 0.8631
C21_8 C 0.9453(2) 0.3470(6) 0.8078(6)
H21_8 H 0.9364 0.3667 0.8475
C22_8 C 0.9360(2) 0.3584(6) 0.7394(6)
C23_8 C 0.9506(2) 0.3301(6) 0.6812(6)
H22_8 H 0.9446 0.3398 0.6345
C24_8 C 0.9111(2) 0.4033(7) 0.7262(7)
O1_8 O 0.89987(13) 0.7892(4) 0.6163(4)
O2_8 O 0.91065(14) 0.6918(4) 0.5507(4)
O27_8 O 0.88262(16) 0.8971(4) 0.5128(4)
H5_8 H 0.8952 0.9261 0.4973
H6_8 H 0.8680 0.9074 0.4900
N1_8 N 0.97731(16) 0.7900(4) 0.4627(5)
C1_8 C 0.9147(2) 0.7542(6) 0.5736(6)
C2_8 C 0.95334(19) 0.7641(6) 0.4865(6)
H11_8 H 0.9452 0.7267 0.4609
C3_8 C 0.9404(2) 0.7911(6) 0.5476(6)
C4_8 C 0.95208(19) 0.8484(5) 0.5844(6)
H12_8 H 0.9436 0.8680 0.6248
C5_8 C 0.97670(19) 0.8761(6) 0.5602(6)
H13_8 H 0.9849 0.9141 0.5845
C6_8 C 0.98878(19) 0.8463(5) 0.4993(6)
O33_4 O 0.91399(13) 0.8748(4) 0.7379(4)
C31_8 C 0.98113(19) 0.8796(5) 0.9394(6)
C32_8 C 0.96270(19) 0.9324(5) 0.9542(6)
H26_8 H 0.9644 0.9599 0.9961
C33_8 C 0.94136(19) 0.9452(6) 0.9065(6)
H27_8 H 0.9285 0.9804 0.9165
C34_8 C 0.93978(19) 0.9039(6) 0.8433(6)
C35_8 C 0.95895(19) 0.8499(5) 0.8331(6)
H28_8 H 0.9580 0.8218 0.7914
C36_8 C 0.9179(2) 0.9184(6) 0.7883(6)
Cl1 Cl 0.00796(5) 0.00218(15) 0.27699(15)
O42 O 0.03321(14) 0.0371(4) 0.2957(4)
O43 O 0.01349(14) 0.9362(4) 0.2410(4)
O41 O 0.99260(15) 0.0494(4) 0.2304(5)
O44 O 0.99294(14) 0.9881(4) 0.3416(4)
O43_2 O 0.48651(14) 0.0638(4) 0.7410(4)
O44_2 O 0.50706(14) 0.0119(4) 0.8416(4)
Cl1_2 Cl 0.49204(5) 0.99782(15) 0.77699(15)
O41_2 O 0.50740(15) 0.9506(4) 0.7304(5)
O42_2 O 0.46679(14) 0.9629(4) 0.7957(4)
Cl1_3 Cl 0.50796(5) 0.49782(15) 0.72301(15)
O41_3 O 0.49260(15) 0.4506(4) 0.7696(5)
O42_3 O 0.53321(14) 0.4629(4) 0.7043(4)
O43_3 O 0.51349(14) 0.5638(4) 0.7590(4)
O44_3 O 0.49294(14) 0.5119(4) 0.6584(4)
O41_4 O 0.00740(15) 0.5494(4) 0.2696(5)
O44_4 O 0.00706(14) 0.4881(4) 0.1584(4)
Cl1_4 Cl 0.99204(5) 0.50218(15) 0.22301(15)
O42_4 O 0.96679(14) 0.5371(4) 0.2043(4)
O43_4 O 0.98651(14) 0.4362(4) 0.2590(4)
O44_5 O 0.00706(14) 0.0119(4) 0.6584(4)
O41_5 O 0.00740(15) 0.9506(4) 0.7696(5)
O43_5 O 0.98651(14) 0.0638(4) 0.7590(4)
Cl1_5 Cl 0.99204(5) 0.99782(15) 0.72301(15)
O42_5 O 0.96679(14) 0.9629(4) 0.7043(4)
Cl1_6 Cl 0.50796(5) 0.00218(15) 0.22301(15)
O41_6 O 0.49260(15) 0.0494(4) 0.2696(5)
O42_6 O 0.53321(14) 0.0371(4) 0.2043(4)
O43_6 O 0.51349(14) 0.9362(4) 0.2590(4)
O44_6 O 0.49294(14) 0.9881(4) 0.1584(4)
Cl1_7 Cl 0.49204(5) 0.50218(15) 0.27699(15)
O41_7 O 0.50740(15) 0.5494(4) 0.2304(5)
O42_7 O 0.46679(14) 0.5371(4) 0.2957(4)
O43_7 O 0.48651(14) 0.4362(4) 0.2410(4)
O44_7 O 0.50706(14) 0.4881(4) 0.3416(4)
Cl1_8 Cl 0.00796(5) 0.49782(15) 0.77699(15)
O42_8 O 0.03321(14) 0.4629(4) 0.7957(4)
O43_8 O 0.01349(14) 0.5638(4) 0.7410(4)
O41_8 O 0.99260(15) 0.4506(4) 0.7304(5)
O44_8 O 0.99294(14) 0.5119(4) 0.8416(4)
loop_
_geom_bond_atom_site_label_1
_geom_bond_atom_site_label_2
_geom_bond_site_symmetry_1
_geom_bond_site_symmetry_2
Eu3 O5 1_555 1_555
Co1 N7 1_555 1_555
O5 C13 1_555 1_555
O6 Eu3 1_555 1_555
O13 Eu3 1_555 1_555
O14 Eu3 1_555 1_555
O28 Eu3 1_555 1_555
H7 O28 1_555 1_555
H8 O28 1_555 1_555
O29 Eu3 1_555 1_555
H9 O29 1_555 1_555
H10 O29 1_555 1_555
N3 C14 1_555 1_555
N7 C38 1_555 1_555
C13 O6 1_555 1_555
C14 H17 1_555 1_555
C15 C13 1_555 1_555
C16 C15 1_555 1_555
H18 C16 1_555 1_555
C17 C16 1_555 1_555
H19 C17 1_555 1_555
C18 N3 1_555 1_555
C37 O13 1_555 1_555
C38 H29 1_555 1_555
C39 C37 1_555 1_555
C40 C39 1_555 1_555
H30 C40 1_555 1_555
C41 C40 1_555 1_555
H31 C41 1_555 1_555
C42 N7 1_555 1_555
O31 Eu3 1_555 1_555
O32 Eu3 1_555 1_555
O35 Eu3 1_555 1_555
O36 Eu3 1_555 1_555
N17 Co1 1_555 1_555
N18 Co1 1_555 1_555
O14 C37 1_555 1_555
C14 C15 1_555 1_555
C17 C18 1_555 1_555
C38 C39 1_555 1_555
C41 C42 1_555 1_555
C42 C43 1_555 1_555
Eu1 O4 1_555 1_555
O3 C12 1_555 1_555
O4 C12 1_555 1_555
O9 C25 1_555 1_555
O10 Eu1 1_555 1_555
O15 C48 1_555 1_555
O16 C48 1_555 1_555
O17 C49 1_555 1_555
O18 Eu1 1_555 1_555
O20 C60 1_555 1_555
O21 C61 1_555 1_555
O22 Eu1 1_555 1_555
O23 C72 1_555 1_555
O24 C72 1_555 1_555
O25 Eu1 1_555 1_555
H1 O25 1_555 1_555
H2 O25 1_555 1_555
O26 Eu1 1_555 1_555
H3 O26 1_555 1_555
H4 O26 1_555 1_555
N2 Co2 1_555 1_555
N5 C26 1_555 1_555
N11 C62 1_555 1_555
N12 C67 1_555 1_555
C7 N2 1_555 1_555
C8 C7 1_555 1_555
C9 C8 1_555 1_555
H15 C9 1_555 1_555
C10 C9 1_555 1_555
C11 N2 1_555 1_555
H16 C11 1_555 1_555
C12 C10 1_555 1_555
C25 O10 1_555 1_555
C26 H23 1_555 1_555
C27 C25 1_555 1_555
C28 C27 1_555 1_555
H24 C28 1_555 1_555
C29 C28 1_555 1_555
H25 C29 1_555 1_555
C30 N5 1_555 1_555
C45 C44 1_555 1_555
H33 C45 1_555 1_555
C46 C45 1_555 1_555
C47 N8 1_555 1_555
H34 C47 1_555 1_555
C48 C46 1_555 1_555
C49 O18 1_555 1_555
C50 N9 1_555 1_555
H35 C50 1_555 1_555
C51 C49 1_555 1_555
C52 C51 1_555 1_555
H36 C52 1_555 1_555
C53 C52 1_555 1_555
H37 C53 1_555 1_555
C54 N9 1_555 1_555
C55 N10 1_555 1_555
C56 C55 1_555 1_555
H38 C56 1_555 1_555
C57 C56 1_555 1_555
H39 C57 1_555 1_555
C58 C57 1_555 1_555
C59 N10 1_555 1_555
C60 C58 1_555 1_555
C61 O22 1_555 1_555
C62 H41 1_555 1_555
C63 C61 1_555 1_555
C64 C63 1_555 1_555
H42 C64 1_555 1_555
C65 C64 1_555 1_555
H43 C65 1_555 1_555
C66 N11 1_555 1_555
C67 C66 1_555 1_555
C68 C67 1_555 1_555
H44 C68 1_555 1_555
C69 C68 1_555 1_555
H45 C69 1_555 1_555
C70 C69 1_555 1_555
C71 N12 1_555 1_555
H46 C71 1_555 1_555
C72 C70 1_555 1_555
Eu5 O23 1_555 1_555
Eu7 O20 1_555 1_555
Eu8 O3 1_555 1_555
Eu9 O15 1_555 1_555
Co3 N11 1_555 1_555
Co5 N5 1_555 1_555
O34 Eu1 1_555 1_555
O40 Eu1 1_555 1_555
N14 Co2 1_555 1_555
N15 Co2 1_555 1_555
O16 Eu9 1_555 1_555
O17 Eu8 1_555 1_555
O21 Eu8 1_555 1_555
N12 Co3 1_555 1_555
C10 C11 1_555 1_555
C26 C27 1_555 1_555
C29 C30 1_555 1_555
C46 C47 1_555 1_555
C50 C51 1_555 1_555
C53 C54 1_555 1_555
C54 C55 1_555 1_555
C58 C59 1_555 1_555
C62 C63 1_555 1_555
C65 C66 1_555 1_555
C70 C71 1_555 1_555
Eu2 O1 1_555 1_555
O1 C1 1_555 1_555
O2 C1 1_555 1_555
O7 C24 1_555 1_555
O8 C24 1_555 1_555
O27 Eu2 1_555 1_555
N4 C19 1_555 1_555
C1 C3 1_555 1_555
C4 C3 1_555 1_555
H12 C4 1_555 1_555
C5 C4 1_555 1_555
H13 C5 1_555 1_555
C20 C19 1_555 1_555
H20 C20 1_555 1_555
C21 C20 1_555 1_555
H21 C21 1_555 1_555
C22 C21 1_555 1_555
C23 N4 1_555 1_555
H22 C23 1_555 1_555
C24 C22 1_555 1_555
O30 Eu2 1_555 1_555
O33 Eu2 1_555 1_555
O37 Eu2 1_555 1_555
O38 Eu2 1_555 1_555
O39 Eu2 1_555 1_555
N4 Co4 1_555 1_555
C22 C23 1_555 1_555
O33 C36 1_555 1_555
O12 C36 1_555 1_555
N1 C2 1_555 1_555
N6 C31 1_555 1_555
C2 H11 1_555 1_555
C6 N1 1_555 1_555
C32 C31 1_555 1_555
H26 C32 1_555 1_555
C33 C32 1_555 1_555
H27 C33 1_555 1_555
C34 C33 1_555 1_555
C35 N6 1_555 1_555
H28 C35 1_555 1_555
C36 C34 1_555 1_555
Eu4 O12 1_555 1_555
C34 C35 1_555 1_555
Eu1_2 O4_2 1_555 1_555
Eu2_2 O1_2 1_555 1_555
Eu9 O5_2 1_555 1_555
Co3 N7_2 1_555 1_555
Co2_2 N1_2 1_555 1_555
O1_2 C1_2 1_555 1_555
O2_2 C1_2 1_555 1_555
O3_2 C12_2 1_555 1_555
O4_2 C12_2 1_555 1_555
O5_2 C13_2 1_555 1_555
O6_2 Eu9 1_555 1_555
O7_2 C24_2 1_555 1_555
O8_2 C24_2 1_555 1_555
O9_2 C25_2 1_555 1_555
O10_2 Eu1_2 1_555 1_555
O13_2 Eu9 1_555 1_555
O14_2 Eu9 1_555 1_555
O35 C48_2 1_555 1_555
O36 C48_2 1_555 1_555
O17_2 C49_2 1_555 1_555
O18_2 Eu1_2 1_555 1_555
O19_2 C60_2 1_555 1_555
O20_2 C60_2 1_555 1_555
O21_2 C61_2 1_555 1_555
O22_2 Eu1_2 1_555 1_555
O23_2 C72_2 1_555 1_555
O24_2 C72_2 1_555 1_555
O25_2 Eu1_2 1_555 1_555
H1_2 O25_2 1_555 1_555
H2_2 O25_2 1_555 1_555
O26_2 Eu1_2 1_555 1_555
H3_2 O26_2 1_555 1_555
H4_2 O26_2 1_555 1_555
O27_2 Eu2_2 1_555 1_555
H5_2 O27_2 1_555 1_555
H6_2 O27_2 1_555 1_555
O28_2 Eu9 1_555 1_555
H7_2 O28_2 1_555 1_555
H8_2 O28_2 1_555 1_555
O29_2 Eu9 1_555 1_555
H9_2 O29_2 1_555 1_555
H10_2 O29_2 1_555 1_555
N1_2 C2_2 1_555 1_555
N2_2 Co2_2 1_555 1_555
N3_2 C14_2 1_555 1_555
N4_2 C19_2 1_555 1_555
N7_2 C38_2 1_555 1_555
N8_2 Co3 1_555 1_555
N9_2 Co3 1_555 1_555
N10_2 Co3 1_555 1_555
N17 C62_2 1_555 1_555
N18 C67_2 1_555 1_555
C1_2 C3_2 1_555 1_555
C2_2 H11_2 1_555 1_555
C3_2 C2_2 1_555 1_555
C4_2 C3_2 1_555 1_555
H12_2 C4_2 1_555 1_555
C5_2 C4_2 1_555 1_555
H13_2 C5_2 1_555 1_555
C6_2 N1_2 1_555 1_555
C7_2 N2_2 1_555 1_555
C8_2 C7_2 1_555 1_555
H14_2 C8_2 1_555 1_555
C9_2 C8_2 1_555 1_555
H15_2 C9_2 1_555 1_555
C10_2 C9_2 1_555 1_555
C11_2 N2_2 1_555 1_555
H16_2 C11_2 1_555 1_555
C12_2 C10_2 1_555 1_555
C13_2 O6_2 1_555 1_555
C14_2 H17_2 1_555 1_555
C15_2 C13_2 1_555 1_555
C16_2 C15_2 1_555 1_555
H18_2 C16_2 1_555 1_555
C17_2 C16_2 1_555 1_555
H19_2 C17_2 1_555 1_555
C18_2 N3_2 1_555 1_555
C19_2 C18_2 1_555 1_555
C20_2 C19_2 1_555 1_555
H20_2 C20_2 1_555 1_555
C21_2 C20_2 1_555 1_555
H21_2 C21_2 1_555 1_555
C22_2 C21_2 1_555 1_555
C23_2 N4_2 1_555 1_555
H22_2 C23_2 1_555 1_555
C24_2 C22_2 1_555 1_555
C25_2 O10_2 1_555 1_555
C27_2 C25_2 1_555 1_555
C28_2 C27_2 1_555 1_555
H24_2 C28_2 1_555 1_555
C29_2 C28_2 1_555 1_555
H25_2 C29_2 1_555 1_555
C37_2 O13_2 1_555 1_555
C38_2 H29_2 1_555 1_555
C39_2 C37_2 1_555 1_555
C40_2 C39_2 1_555 1_555
H30_2 C40_2 1_555 1_555
C41_2 C40_2 1_555 1_555
H31_2 C41_2 1_555 1_555
C42_2 N7_2 1_555 1_555
C43_2 N8_2 1_555 1_555
C44_2 C43_2 1_555 1_555
H32_2 C44_2 1_555 1_555
C45_2 C44_2 1_555 1_555
H33_2 C45_2 1_555 1_555
C46_2 C45_2 1_555 1_555
C47_2 N8_2 1_555 1_555
H34_2 C47_2 1_555 1_555
C48_2 C46_2 1_555 1_555
C49_2 O18_2 1_555 1_555
C50_2 N9_2 1_555 1_555
H35_2 C50_2 1_555 1_555
C51_2 C49_2 1_555 1_555
C52_2 C51_2 1_555 1_555
H36_2 C52_2 1_555 1_555
C53_2 C52_2 1_555 1_555
H37_2 C53_2 1_555 1_555
C54_2 N9_2 1_555 1_555
C55_2 N10_2 1_555 1_555
C56_2 C55_2 1_555 1_555
H38_2 C56_2 1_555 1_555
C57_2 C56_2 1_555 1_555
H39_2 C57_2 1_555 1_555
C58_2 C57_2 1_555 1_555
C59_2 N10_2 1_555 1_555
H40_2 C59_2 1_555 1_555
C60_2 C58_2 1_555 1_555
C61_2 O22_2 1_555 1_555
C62_2 H41_2 1_555 1_555
C63_2 C61_2 1_555 1_555
C64_2 C63_2 1_555 1_555
H42_2 C64_2 1_555 1_555
C65_2 C64_2 1_555 1_555
H43_2 C65_2 1_555 1_555
C66_2 N17 1_555 1_555
C67_2 C66_2 1_555 1_555
C68_2 C67_2 1_555 1_555
H44_2 C68_2 1_555 1_555
C69_2 C68_2 1_555 1_555
H45_2 C69_2 1_555 1_555
C70_2 C69_2 1_555 1_555
C71_2 N18 1_555 1_555
H46_2 C71_2 1_555 1_555
C72_2 C70_2 1_555 1_555
Eu5_2 O23_2 1_555 1_555
Eu7_2 O20_2 1_555 1_555
Eu8_2 O3_2 1_555 1_555
Co4_2 N3_2 1_555 1_555
O30_2 Eu2_2 1_555 1_555
O31_2 Eu9 1_555 1_555
O32_2 Eu9 1_555 1_555
O33_2 Eu2_2 1_555 1_555
O34_2 Eu1_2 1_555 1_555
O37_2 Eu2_2 1_555 1_555
O38_2 Eu2_2 1_555 1_555
O39_2 Eu2_2 1_555 1_555
O40_2 Eu1_2 1_555 1_555
N13_2 Co2_2 1_555 1_555
N14_2 Co2_2 1_555 1_555
N15_2 Co2_2 1_555 1_555
N16_2 Co2_2 1_555 1_555
O14_2 C37_2 1_555 1_555
O17_2 Eu8_2 1_555 1_555
O21_2 Eu8_2 1_555 1_555
N4_2 Co4_2 1_555 1_555
C5_2 C6_2 1_555 1_555
C6_2 C7_2 1_555 1_555
C10_2 C11_2 1_555 1_555
C14_2 C15_2 1_555 1_555
C17_2 C18_2 1_555 1_555
C22_2 C23_2 1_555 1_555
C26_2 C27_2 1_555 1_555
C38_2 C39_2 1_555 1_555
C41_2 C42_2 1_555 1_555
C42_2 C43_2 1_555 1_555
C46_2 C47_2 1_555 1_555
C50_2 C51_2 1_555 1_555
C53_2 C54_2 1_555 1_555
C54_2 C55_2 1_555 1_555
C58_2 C59_2 1_555 1_555
C62_2 C63_2 1_555 1_555
C65_2 C66_2 1_555 1_555
C70_2 C71_2 1_555 1_555
O33_2 C36_2 1_555 1_555
O12_2 C36_2 1_555 1_555
N6_2 C31_2 1_555 1_555
C30_2 N5_2 1_555 1_555
C31_2 C30_2 1_555 1_555
C32_2 C31_2 1_555 1_555
H26_2 C32_2 1_555 1_555
C33_2 C32_2 1_555 1_555
H27_2 C33_2 1_555 1_555
C34_2 C33_2 1_555 1_555
C35_2 N6_2 1_555 1_555
H28_2 C35_2 1_555 1_555
C36_2 C34_2 1_555 1_555
Eu4_2 O12_2 1_555 1_555
Co5_2 N5_2 1_555 1_555
N6_2 Co5_2 1_555 1_555
C34_2 C35_2 1_555 1_555
O15_2 C48_3 1_555 1_555
O21_3 C61_3 1_555 1_555
O23_3 C72_3 1_555 1_555
O24_3 C72_3 1_555 1_555
N11_2 C62_3 1_555 1_555
N12_2 C67_3 1_555 1_555
C45_3 C44_3 1_555 1_555
H33_3 C45_3 1_555 1_555
C46_3 C45_3 1_555 1_555
C48_3 C46_3 1_555 1_555
C61_3 O22_3 1_555 1_555
C62_3 H41_3 1_555 1_555
C63_3 C61_3 1_555 1_555
C64_3 C63_3 1_555 1_555
H42_3 C64_3 1_555 1_555
C65_3 C64_3 1_555 1_555
H43_3 C65_3 1_555 1_555
C66_3 N11_2 1_555 1_555
C67_3 C66_3 1_555 1_555
C68_3 C67_3 1_555 1_555
H44_3 C68_3 1_555 1_555
C69_3 C68_3 1_555 1_555
H45_3 C69_3 1_555 1_555
C70_3 C69_3 1_555 1_555
C71_3 N12_2 1_555 1_555
H46_3 C71_3 1_555 1_555
C72_3 C70_3 1_555 1_555
Eu4 O23_3 1_555 1_555
Eu8_3 O3_3 1_555 1_555
Co3_2 N11_2 1_555 1_555
O17_3 Eu8_3 1_555 1_555
O21_3 Eu8_3 1_555 1_555
N12_2 Co3_2 1_555 1_555
C62_3 C63_3 1_555 1_555
C65_3 C66_3 1_555 1_555
C70_3 C71_3 1_555 1_555
Eu10_2 O5_3 1_555 1_555
O5_3 C13_3 1_555 1_555
O6_3 Eu10_2 1_555 1_555
O31_2 C24_3 1_555 1_555
O32_2 C24_3 1_555 1_555
O13_3 Eu10_2 1_555 1_555
O28_3 Eu10_2 1_555 1_555
H7_3 O28_3 1_555 1_555
H8_3 O28_3 1_555 1_555
O29_3 Eu10_2 1_555 1_555
H9_3 O29_3 1_555 1_555
H10_3 O29_3 1_555 1_555
N3_3 C14_3 1_555 1_555
N4_3 C19_3 1_555 1_555
C13_3 O6_3 1_555 1_555
C14_3 H17_3 1_555 1_555
C15_3 C13_3 1_555 1_555
C16_3 C15_3 1_555 1_555
H18_3 C16_3 1_555 1_555
C17_3 C16_3 1_555 1_555
H19_3 C17_3 1_555 1_555
C18_3 N3_3 1_555 1_555
C19_3 C18_3 1_555 1_555
C20_3 C19_3 1_555 1_555
H20_3 C20_3 1_555 1_555
C21_3 C20_3 1_555 1_555
H21_3 C21_3 1_555 1_555
C22_3 C21_3 1_555 1_555
C23_3 N4_3 1_555 1_555
H22_3 C23_3 1_555 1_555
C24_3 C22_3 1_555 1_555
C37_3 O13_3 1_555 1_555
C39_3 C37_3 1_555 1_555
C40_3 C39_3 1_555 1_555
H30_3 C40_3 1_555 1_555
C41_3 C40_3 1_555 1_555
H31_3 C41_3 1_555 1_555
Co5_2 N3_3 1_555 1_555
O36_2 Eu10_2 1_555 1_555
N4_3 Co5_2 1_555 1_555
C14_3 C15_3 1_555 1_555
C17_3 C18_3 1_555 1_555
C22_3 C23_3 1_555 1_555
C41_3 C42_3 1_555 1_555
C42_3 C43_3 1_555 1_555
Eu1_3 O4_3 1_555 1_555
Co2_3 N1_3 1_555 1_555
O4_3 C12_3 1_555 1_555
O9_3 C25_3 1_555 1_555
O10_3 Eu1_3 1_555 1_555
O11 C36_3 1_555 1_555
O12_3 C36_3 1_555 1_555
O18_3 Eu1_3 1_555 1_555
O38 C60_3 1_555 1_555
O25_3 Eu1_3 1_555 1_555
H1_3 O25_3 1_555 1_555
H2_3 O25_3 1_555 1_555
O26_3 Eu1_3 1_555 1_555
H3_3 O26_3 1_555 1_555
H4_3 O26_3 1_555 1_555
N1_3 C2_3 1_555 1_555
N2_3 Co2_3 1_555 1_555
N5_3 C26_3 1_555 1_555
N6_3 C31_3 1_555 1_555
C2_3 H11_3 1_555 1_555
C6_3 N1_3 1_555 1_555
C7_3 N2_3 1_555 1_555
C8_3 C7_3 1_555 1_555
C9_3 C8_3 1_555 1_555
H15_3 C9_3 1_555 1_555
C10_3 C9_3 1_555 1_555
C11_3 N2_3 1_555 1_555
H16_3 C11_3 1_555 1_555
C12_3 C10_3 1_555 1_555
C25_3 O10_3 1_555 1_555
C26_3 H23_3 1_555 1_555
C27_3 C25_3 1_555 1_555
C28_3 C27_3 1_555 1_555
H24_3 C28_3 1_555 1_555
C29_3 C28_3 1_555 1_555
H25_3 C29_3 1_555 1_555
C30_3 N5_3 1_555 1_555
C31_3 C30_3 1_555 1_555
C32_3 C31_3 1_555 1_555
H26_3 C32_3 1_555 1_555
C33_3 C32_3 1_555 1_555
H27_3 C33_3 1_555 1_555
C34_3 C33_3 1_555 1_555
C35_3 N6_3 1_555 1_555
H28_3 C35_3 1_555 1_555
C36_3 C34_3 1_555 1_555
C47_3 N8_3 1_555 1_555
H34_3 C47_3 1_555 1_555
C49_3 O18_3 1_555 1_555
C50_3 N9_3 1_555 1_555
H35_3 C50_3 1_555 1_555
C51_3 C49_3 1_555 1_555
C52_3 C51_3 1_555 1_555
H36_3 C52_3 1_555 1_555
C53_3 C52_3 1_555 1_555
H37_3 C53_3 1_555 1_555
C54_3 N9_3 1_555 1_555
C55_3 N10_3 1_555 1_555
C56_3 C55_3 1_555 1_555
H38_3 C56_3 1_555 1_555
C57_3 C56_3 1_555 1_555
H39_3 C57_3 1_555 1_555
C58_3 C57_3 1_555 1_555
C59_3 N10_3 1_555 1_555
C60_3 C58_3 1_555 1_555
Eu7 O11 1_555 1_555
Co4_2 N5_3 1_555 1_555
O40_3 Eu1_3 1_555 1_555
N13_3 Co2_3 1_555 1_555
N14_3 Co2_3 1_555 1_555
N15_3 Co2_3 1_555 1_555
N16_3 Co2_3 1_555 1_555
O16_2 Eu10 1_555 1_555
N6_3 Co4_2 1_555 1_555
C6_3 C7_3 1_555 1_555
C10_3 C11_3 1_555 1_555
C26_3 C27_3 1_555 1_555
C29_3 C30_3 1_555 1_555
C34_3 C35_3 1_555 1_555
C50_3 C51_3 1_555 1_555
C53_3 C54_3 1_555 1_555
C54_3 C55_3 1_555 1_555
C58_3 C59_3 1_555 1_555
Eu7 O1_3 1_555 1_555
Co1_2 N7_3 1_555 1_555
O1_3 C1_3 1_555 1_555
O2_3 C1_3 1_555 1_555
O27_3 Eu7 1_555 1_555
N7_3 C38_3 1_555 1_555
C1_3 C3_3 1_555 1_555
C4_3 C3_3 1_555 1_555
H12_3 C4_3 1_555 1_555
C5_3 C4_3 1_555 1_555
H13_3 C5_3 1_555 1_555
C38_3 H29_3 1_555 1_555
O30_3 Eu7 1_555 1_555
O37_3 Eu7 1_555 1_555
O39_3 Eu7 1_555 1_555
N17_2 Co1_2 1_555 1_555
N18_2 Co1_2 1_555 1_555
O11_2 C36_4 1_555 1_555
O12_4 C36_4 1_555 1_555
N6_4 C31_4 1_555 1_555
C32_4 C31_4 1_555 1_555
H26_4 C32_4 1_555 1_555
C33_4 C32_4 1_555 1_555
H27_4 C33_4 1_555 1_555
C34_4 C33_4 1_555 1_555
C35_4 N6_4 1_555 1_555
H28_4 C35_4 1_555 1_555
C36_4 C34_4 1_555 1_555
Eu7_2 O11_2 1_555 1_555
C34_4 C35_4 1_555 1_555
Eu7_2 O1_4 1_555 1_555
O1_4 C1_4 1_555 1_555
O2_4 C1_4 1_555 1_555
O27_4 Eu7_2 1_555 1_555
H5_4 O27_4 1_555 1_555
H6_4 O27_4 1_555 1_555
N1_4 C2_4 1_555 1_555
C1_4 C3_4 1_555 1_555
C2_4 H11_4 1_555 1_555
C3_4 C2_4 1_555 1_555
C4_4 C3_4 1_555 1_555
H12_4 C4_4 1_555 1_555
C5_4 C4_4 1_555 1_555
H13_4 C5_4 1_555 1_555
C6_4 N1_4 1_555 1_555
O30_4 Eu7_2 1_555 1_555
O37_4 Eu7_2 1_555 1_555
O39_4 Eu7_2 1_555 1_555
C5_4 C6_4 1_555 1_555
O31 C24_4 1_555 1_555
O32 C24_4 1_555 1_555
N4_4 C19_4 1_555 1_555
C20_4 C19_4 1_555 1_555
H20_4 C20_4 1_555 1_555
C21_4 C20_4 1_555 1_555
H21_4 C21_4 1_555 1_555
C22_4 C21_4 1_555 1_555
C23_4 N4_4 1_555 1_555
H22_4 C23_4 1_555 1_555
C24_4 C22_4 1_555 1_555
N4_4 Co5 1_555 1_555
C22_4 C23_4 1_555 1_555
C30_4 N5_4 1_555 1_555
Co4 N5_4 1_555 1_555
Eu1_4 O4_4 1_555 1_555
Co3_2 N7_4 1_555 1_555
O4_4 C12_4 1_555 1_555
O9_4 C25_4 1_555 1_555
O10_4 Eu1_4 1_555 1_555
O18_4 Eu1_4 1_555 1_555
O19_4 C60_4 1_555 1_555
O38_2 C60_4 1_555 1_555
O25_4 Eu1_4 1_555 1_555
H1_4 O25_4 1_555 1_555
H2_4 O25_4 1_555 1_555
O26_4 Eu1_4 1_555 1_555
H3_4 O26_4 1_555 1_555
H4_4 O26_4 1_555 1_555
N2_4 Co2_4 1_555 1_555
N7_4 C38_4 1_555 1_555
N8_4 Co3_2 1_555 1_555
N9_4 Co3_2 1_555 1_555
N10_4 Co3_2 1_555 1_555
C7_4 N2_4 1_555 1_555
C8_4 C7_4 1_555 1_555
H14_4 C8_4 1_555 1_555
C9_4 C8_4 1_555 1_555
H15_4 C9_4 1_555 1_555
C10_4 C9_4 1_555 1_555
C11_4 N2_4 1_555 1_555
H16_4 C11_4 1_555 1_555
C12_4 C10_4 1_555 1_555
C25_4 O10_4 1_555 1_555
C27_4 C25_4 1_555 1_555
C28_4 C27_4 1_555 1_555
H24_4 C28_4 1_555 1_555
C29_4 C28_4 1_555 1_555
H25_4 C29_4 1_555 1_555
C38_4 H29_4 1_555 1_555
C47_4 N8_4 1_555 1_555
H34_4 C47_4 1_555 1_555
C49_4 O18_4 1_555 1_555
C50_4 N9_4 1_555 1_555
H35_4 C50_4 1_555 1_555
C51_4 C49_4 1_555 1_555
C52_4 C51_4 1_555 1_555
H36_4 C52_4 1_555 1_555
C53_4 C52_4 1_555 1_555
H37_4 C53_4 1_555 1_555
C54_4 N9_4 1_555 1_555
C55_4 N10_4 1_555 1_555
C56_4 C55_4 1_555 1_555
H38_4 C56_4 1_555 1_555
C57_4 C56_4 1_555 1_555
H39_4 C57_4 1_555 1_555
C58_4 C57_4 1_555 1_555
C59_4 N10_4 1_555 1_555
H40_4 C59_4 1_555 1_555
C60_4 C58_4 1_555 1_555
O40_4 Eu1_4 1_555 1_555
N14_4 Co2_4 1_555 1_555
N15_4 Co2_4 1_555 1_555
C10_4 C11_4 1_555 1_555
C26_4 C27_4 1_555 1_555
C50_4 C51_4 1_555 1_555
C53_4 C54_4 1_555 1_555
C54_4 C55_4 1_555 1_555
C58_4 C59_4 1_555 1_555
Eu10 O5_4 1_555 1_555
O5_4 C13_4 1_555 1_555
O6_4 Eu10 1_555 1_555
O13_4 Eu10 1_555 1_555
O35_2 C48_4 1_555 1_555
O21_4 C61_4 1_555 1_555
O23_4 C72_4 1_555 1_555
O24_4 C72_4 1_555 1_555
O28_4 Eu10 1_555 1_555
H7_4 O28_4 1_555 1_555
H8_4 O28_4 1_555 1_555
O29_4 Eu10 1_555 1_555
H9_4 O29_4 1_555 1_555
H10_4 O29_4 1_555 1_555
N3_4 C14_4 1_555 1_555
N17_2 C62_4 1_555 1_555
N18_2 C67_4 1_555 1_555
C13_4 O6_4 1_555 1_555
C14_4 H17_4 1_555 1_555
C15_4 C13_4 1_555 1_555
C16_4 C15_4 1_555 1_555
H18_4 C16_4 1_555 1_555
C17_4 C16_4 1_555 1_555
H19_4 C17_4 1_555 1_555
C18_4 N3_4 1_555 1_555
C37_4 O13_4 1_555 1_555
C39_4 C37_4 1_555 1_555
C40_4 C39_4 1_555 1_555
H30_4 C40_4 1_555 1_555
C41_4 C40_4 1_555 1_555
H31_4 C41_4 1_555 1_555
C44_4 C43_4 1_555 1_555
H32_4 C44_4 1_555 1_555
C45_4 C44_4 1_555 1_555
H33_4 C45_4 1_555 1_555
C46_4 C45_4 1_555 1_555
C48_4 C46_4 1_555 1_555
C61_4 O22_4 1_555 1_555
C62_4 H41_4 1_555 1_555
C63_4 C61_4 1_555 1_555
C64_4 C63_4 1_555 1_555
H42_4 C64_4 1_555 1_555
C65_4 C64_4 1_555 1_555
H43_4 C65_4 1_555 1_555
C66_4 N17_2 1_555 1_555
C67_4 C66_4 1_555 1_555
C68_4 C67_4 1_555 1_555
H44_4 C68_4 1_555 1_555
C69_4 C68_4 1_555 1_555
H45_4 C69_4 1_555 1_555
C70_4 C69_4 1_555 1_555
C71_4 N18_2 1_555 1_555
H46_4 C71_4 1_555 1_555
C72_4 C70_4 1_555 1_555
Eu4_2 O23_4 1_555 1_555
Eu8_4 O3_4 1_555 1_555
O17_4 Eu8_4 1_555 1_555
O21_4 Eu8_4 1_555 1_555
C14_4 C15_4 1_555 1_555
C17_4 C18_4 1_555 1_555
C41_4 C42_4 1_555 1_555
C42_4 C43_4 1_555 1_555
C62_4 C63_4 1_555 1_555
C65_4 C66_4 1_555 1_555
C70_4 C71_4 1_555 1_555
O11_3 C36_5 1_555 1_555
O34 C36_5 1_555 1_555
N1_5 C2_5 1_555 1_555
N16_4 C31_5 1_555 1_555
C2_5 H11_5 1_555 1_555
C6_5 N1_5 1_555 1_555
C32_5 C31_5 1_555 1_555
H26_5 C32_5 1_555 1_555
C33_5 C32_5 1_555 1_555
H27_5 C33_5 1_555 1_555
C34_5 C33_5 1_555 1_555
C35_5 N16_4 1_555 1_555
H28_5 C35_5 1_555 1_555
C36_5 C34_5 1_555 1_555
Eu8 O11_3 1_555 1_555
C34_5 C35_5 1_555 1_555
Eu8 O1_5 1_555 1_555
O1_5 C1_5 1_555 1_555
O2_5 C1_5 1_555 1_555
O7_3 C24_5 1_555 1_555
O8_3 C24_5 1_555 1_555
O27_5 Eu8 1_555 1_555
N14 C19_5 1_555 1_555
C1_5 C3_5 1_555 1_555
C4_5 C3_5 1_555 1_555
H12_5 C4_5 1_555 1_555
C5_5 C4_5 1_555 1_555
H13_5 C5_5 1_555 1_555
C20_5 C19_5 1_555 1_555
H20_5 C20_5 1_555 1_555
C21_5 C20_5 1_555 1_555
H21_5 C21_5 1_555 1_555
C22_5 C21_5 1_555 1_555
C23_5 N14 1_555 1_555
H22_5 C23_5 1_555 1_555
C24_5 C22_5 1_555 1_555
O38_3 Eu8 1_555 1_555
C22_5 C23_5 1_555 1_555
Eu4 O4_5 1_555 1_555
O30 C12_5 1_555 1_555
O4_5 C12_5 1_555 1_555
O9_5 C25_5 1_555 1_555
O10_5 Eu4 1_555 1_555
O15_3 C48_5 1_555 1_555
O16_3 C48_5 1_555 1_555
O37 C49_5 1_555 1_555
O18_5 Eu4 1_555 1_555
O20_3 C60_5 1_555 1_555
O39 C61_5 1_555 1_555
O22_5 Eu4 1_555 1_555
O40_3 C72_5 1_555 1_555
O24_5 C72_5 1_555 1_555
O25_5 Eu4 1_555 1_555
H1_5 O25_5 1_555 1_555
H2_5 O25_5 1_555 1_555
O26_5 Eu4 1_555 1_555
H3_5 O26_5 1_555 1_555
H4_5 O26_5 1_555 1_555
N2_5 Co4 1_555 1_555
N15_4 C26_5 1_555 1_555
N11_3 C62_5 1_555 1_555
N12_3 C67_5 1_555 1_555
C7_5 N2_5 1_555 1_555
C8_5 C7_5 1_555 1_555
C9_5 C8_5 1_555 1_555
H15_5 C9_5 1_555 1_555
C10_5 C9_5 1_555 1_555
C11_5 N2_5 1_555 1_555
H16_5 C11_5 1_555 1_555
C12_5 C10_5 1_555 1_555
C25_5 O10_5 1_555 1_555
C26_5 H23_5 1_555 1_555
C27_5 C25_5 1_555 1_555
C28_5 C27_5 1_555 1_555
H24_5 C28_5 1_555 1_555
C29_5 C28_5 1_555 1_555
H25_5 C29_5 1_555 1_555
C30_5 N15_4 1_555 1_555
C45_5 C44_5 1_555 1_555
H33_5 C45_5 1_555 1_555
C46_5 C45_5 1_555 1_555
C47_5 N8_5 1_555 1_555
H34_5 C47_5 1_555 1_555
C48_5 C46_5 1_555 1_555
C49_5 O18_5 1_555 1_555
C50_5 N9_5 1_555 1_555
H35_5 C50_5 1_555 1_555
C51_5 C49_5 1_555 1_555
C52_5 C51_5 1_555 1_555
H36_5 C52_5 1_555 1_555
C53_5 C52_5 1_555 1_555
H37_5 C53_5 1_555 1_555
C54_5 N9_5 1_555 1_555
C55_5 N10_5 1_555 1_555
C56_5 C55_5 1_555 1_555
H38_5 C56_5 1_555 1_555
C57_5 C56_5 1_555 1_555
H39_5 C57_5 1_555 1_555
C58_5 C57_5 1_555 1_555
C59_5 N10_5 1_555 1_555
C60_5 C58_5 1_555 1_555
C61_5 O22_5 1_555 1_555
C62_5 H41_5 1_555 1_555
C63_5 C61_5 1_555 1_555
C64_5 C63_5 1_555 1_555
H42_5 C64_5 1_555 1_555
C65_5 C64_5 1_555 1_555
H43_5 C65_5 1_555 1_555
C66_5 N11_3 1_555 1_555
C67_5 C66_5 1_555 1_555
C68_5 C67_5 1_555 1_555
H44_5 C68_5 1_555 1_555
C69_5 C68_5 1_555 1_555
H45_5 C69_5 1_555 1_555
C70_5 C69_5 1_555 1_555
C71_5 N12_3 1_555 1_555
H46_5 C71_5 1_555 1_555
C72_5 C70_5 1_555 1_555
Eu8_3 O20_3 1_555 1_555
Eu9_2 O15_3 1_555 1_555
Co3_3 N11_3 1_555 1_555
O16_3 Eu9_2 1_555 1_555
N12_3 Co3_3 1_555 1_555
C10_5 C11_5 1_555 1_555
C26_5 C27_5 1_555 1_555
C29_5 C30_5 1_555 1_555
C46_5 C47_5 1_555 1_555
C50_5 C51_5 1_555 1_555
C53_5 C54_5 1_555 1_555
C54_5 C55_5 1_555 1_555
C58_5 C59_5 1_555 1_555
C62_5 C63_5 1_555 1_555
C65_5 C66_5 1_555 1_555
C70_5 C71_5 1_555 1_555
Eu3_2 O5_5 1_555 1_555
Co1_3 N7_5 1_555 1_555
O5_5 C13_5 1_555 1_555
O6_5 Eu3_2 1_555 1_555
O13_5 Eu3_2 1_555 1_555
O14_5 Eu3_2 1_555 1_555
O28_5 Eu3_2 1_555 1_555
H7_5 O28_5 1_555 1_555
H8_5 O28_5 1_555 1_555
O29_5 Eu3_2 1_555 1_555
H9_5 O29_5 1_555 1_555
H10_5 O29_5 1_555 1_555
N13 C14_5 1_555 1_555
N7_5 C38_5 1_555 1_555
C13_5 O6_5 1_555 1_555
C14_5 H17_5 1_555 1_555
C15_5 C13_5 1_555 1_555
C16_5 C15_5 1_555 1_555
H18_5 C16_5 1_555 1_555
C17_5 C16_5 1_555 1_555
H19_5 C17_5 1_555 1_555
C18_5 N13 1_555 1_555
C37_5 O13_5 1_555 1_555
C38_5 H29_5 1_555 1_555
C39_5 C37_5 1_555 1_555
C40_5 C39_5 1_555 1_555
H30_5 C40_5 1_555 1_555
C41_5 C40_5 1_555 1_555
H31_5 C41_5 1_555 1_555
C42_5 N7_5 1_555 1_555
O31_3 Eu3_2 1_555 1_555
O32_3 Eu3_2 1_555 1_555
O35_3 Eu3_2 1_555 1_555
O36_3 Eu3_2 1_555 1_555
N17_3 Co1_3 1_555 1_555
N18_3 Co1_3 1_555 1_555
O14_5 C37_5 1_555 1_555
C14_5 C15_5 1_555 1_555
C17_5 C18_5 1_555 1_555
C38_5 C39_5 1_555 1_555
C41_5 C42_5 1_555 1_555
C42_5 C43_5 1_555 1_555
O11_4 C36_6 1_555 1_555
O34_2 C36_6 1_555 1_555
N16_3 C31_6 1_555 1_555
C30_6 N15_3 1_555 1_555
C31_6 C30_6 1_555 1_555
C32_6 C31_6 1_555 1_555
H26_6 C32_6 1_555 1_555
C33_6 C32_6 1_555 1_555
H27_6 C33_6 1_555 1_555
C34_6 C33_6 1_555 1_555
C35_6 N16_3 1_555 1_555
H28_6 C35_6 1_555 1_555
C36_6 C34_6 1_555 1_555
Eu8_2 O11_4 1_555 1_555
C34_6 C35_6 1_555 1_555
Eu4_2 O4_6 1_555 1_555
Eu8_2 O1_6 1_555 1_555
Eu9_2 O5_6 1_555 1_555
Co3_3 N7_6 1_555 1_555
Co4_2 N1_6 1_555 1_555
O1_6 C1_6 1_555 1_555
O2_6 C1_6 1_555 1_555
O30_2 C12_6 1_555 1_555
O4_6 C12_6 1_555 1_555
O5_6 C13_6 1_555 1_555
O6_6 Eu9_2 1_555 1_555
O7_4 C24_6 1_555 1_555
O8_4 C24_6 1_555 1_555
O9_6 C25_6 1_555 1_555
O10_6 Eu4_2 1_555 1_555
O13_6 Eu9_2 1_555 1_555
O14_6 Eu9_2 1_555 1_555
O35_3 C48_6 1_555 1_555
O36_3 C48_6 1_555 1_555
O37_2 C49_6 1_555 1_555
O18_6 Eu4_2 1_555 1_555
O19_6 C60_6 1_555 1_555
O20_4 C60_6 1_555 1_555
O39_2 C61_6 1_555 1_555
O22_6 Eu4_2 1_555 1_555
O40_4 C72_6 1_555 1_555
O24_6 C72_6 1_555 1_555
O25_6 Eu4_2 1_555 1_555
H1_6 O25_6 1_555 1_555
H2_6 O25_6 1_555 1_555
O26_6 Eu4_2 1_555 1_555
H3_6 O26_6 1_555 1_555
H4_6 O26_6 1_555 1_555
O27_6 Eu8_2 1_555 1_555
H5_6 O27_6 1_555 1_555
H6_6 O27_6 1_555 1_555
O28_6 Eu9_2 1_555 1_555
H7_6 O28_6 1_555 1_555
H8_6 O28_6 1_555 1_555
O29_6 Eu9_2 1_555 1_555
H9_6 O29_6 1_555 1_555
H10_6 O29_6 1_555 1_555
N1_6 C2_6 1_555 1_555
N2_6 Co4_2 1_555 1_555
N13_2 C14_6 1_555 1_555
N14_2 C19_6 1_555 1_555
N7_6 C38_6 1_555 1_555
N8_6 Co3_3 1_555 1_555
N9_6 Co3_3 1_555 1_555
N10_6 Co3_3 1_555 1_555
N17_3 C62_6 1_555 1_555
N18_3 C67_6 1_555 1_555
C1_6 C3_6 1_555 1_555
C2_6 H11_6 1_555 1_555
C3_6 C2_6 1_555 1_555
C4_6 C3_6 1_555 1_555
H12_6 C4_6 1_555 1_555
C5_6 C4_6 1_555 1_555
H13_6 C5_6 1_555 1_555
C6_6 N1_6 1_555 1_555
C7_6 N2_6 1_555 1_555
C8_6 C7_6 1_555 1_555
H14_6 C8_6 1_555 1_555
C9_6 C8_6 1_555 1_555
H15_6 C9_6 1_555 1_555
C10_6 C9_6 1_555 1_555
C11_6 N2_6 1_555 1_555
H16_6 C11_6 1_555 1_555
C12_6 C10_6 1_555 1_555
C13_6 O6_6 1_555 1_555
C14_6 H17_6 1_555 1_555
C15_6 C13_6 1_555 1_555
C16_6 C15_6 1_555 1_555
H18_6 C16_6 1_555 1_555
C17_6 C16_6 1_555 1_555
H19_6 C17_6 1_555 1_555
C18_6 N13_2 1_555 1_555
C19_6 C18_6 1_555 1_555
C20_6 C19_6 1_555 1_555
H20_6 C20_6 1_555 1_555
C21_6 C20_6 1_555 1_555
H21_6 C21_6 1_555 1_555
C22_6 C21_6 1_555 1_555
C23_6 N14_2 1_555 1_555
H22_6 C23_6 1_555 1_555
C24_6 C22_6 1_555 1_555
C25_6 O10_6 1_555 1_555
C27_6 C25_6 1_555 1_555
C28_6 C27_6 1_555 1_555
H24_6 C28_6 1_555 1_555
C29_6 C28_6 1_555 1_555
H25_6 C29_6 1_555 1_555
C37_6 O13_6 1_555 1_555
C38_6 H29_6 1_555 1_555
C39_6 C37_6 1_555 1_555
C40_6 C39_6 1_555 1_555
H30_6 C40_6 1_555 1_555
C41_6 C40_6 1_555 1_555
H31_6 C41_6 1_555 1_555
C42_6 N7_6 1_555 1_555
C43_6 N8_6 1_555 1_555
C44_6 C43_6 1_555 1_555
H32_6 C44_6 1_555 1_555
C45_6 C44_6 1_555 1_555
H33_6 C45_6 1_555 1_555
C46_6 C45_6 1_555 1_555
C47_6 N8_6 1_555 1_555
H34_6 C47_6 1_555 1_555
C48_6 C46_6 1_555 1_555
C49_6 O18_6 1_555 1_555
C50_6 N9_6 1_555 1_555
H35_6 C50_6 1_555 1_555
C51_6 C49_6 1_555 1_555
C52_6 C51_6 1_555 1_555
H36_6 C52_6 1_555 1_555
C53_6 C52_6 1_555 1_555
H37_6 C53_6 1_555 1_555
C54_6 N9_6 1_555 1_555
C55_6 N10_6 1_555 1_555
C56_6 C55_6 1_555 1_555
H38_6 C56_6 1_555 1_555
C57_6 C56_6 1_555 1_555
H39_6 C57_6 1_555 1_555
C58_6 C57_6 1_555 1_555
C59_6 N10_6 1_555 1_555
H40_6 C59_6 1_555 1_555
C60_6 C58_6 1_555 1_555
C61_6 O22_6 1_555 1_555
C62_6 H41_6 1_555 1_555
C63_6 C61_6 1_555 1_555
C64_6 C63_6 1_555 1_555
H42_6 C64_6 1_555 1_555
C65_6 C64_6 1_555 1_555
H43_6 C65_6 1_555 1_555
C66_6 N17_3 1_555 1_555
C67_6 C66_6 1_555 1_555
C68_6 C67_6 1_555 1_555
H44_6 C68_6 1_555 1_555
C69_6 C68_6 1_555 1_555
H45_6 C69_6 1_555 1_555
C70_6 C69_6 1_555 1_555
C71_6 N18_3 1_555 1_555
H46_6 C71_6 1_555 1_555
C72_6 C70_6 1_555 1_555
Eu8_4 O20_4 1_555 1_555
O31_4 Eu9_2 1_555 1_555
O32_4 Eu9_2 1_555 1_555
O38_4 Eu8_2 1_555 1_555
O14_6 C37_6 1_555 1_555
C5_6 C6_6 1_555 1_555
C6_6 C7_6 1_555 1_555
C10_6 C11_6 1_555 1_555
C14_6 C15_6 1_555 1_555
C17_6 C18_6 1_555 1_555
C22_6 C23_6 1_555 1_555
C26_6 C27_6 1_555 1_555
C38_6 C39_6 1_555 1_555
C41_6 C42_6 1_555 1_555
C42_6 C43_6 1_555 1_555
C46_6 C47_6 1_555 1_555
C50_6 C51_6 1_555 1_555
C53_6 C54_6 1_555 1_555
C54_6 C55_6 1_555 1_555
C58_6 C59_6 1_555 1_555
C62_6 C63_6 1_555 1_555
C65_6 C66_6 1_555 1_555
C70_6 C71_6 1_555 1_555
Eu8_3 O1_7 1_555 1_555
Co1_4 N7_7 1_555 1_555
O1_7 C1_7 1_555 1_555
O2_7 C1_7 1_555 1_555
O27_7 Eu8_3 1_555 1_555
N7_7 C38_7 1_555 1_555
C1_7 C3_7 1_555 1_555
C4_7 C3_7 1_555 1_555
H12_7 C4_7 1_555 1_555
C5_7 C4_7 1_555 1_555
H13_7 C5_7 1_555 1_555
C38_7 H29_7 1_555 1_555
O33_3 Eu8_3 1_555 1_555
N17_4 Co1_4 1_555 1_555
N18_4 Co1_4 1_555 1_555
Eu5 O4_7 1_555 1_555
Co5_2 N1_7 1_555 1_555
O4_7 C12_7 1_555 1_555
O9_7 C25_7 1_555 1_555
O10_7 Eu5 1_555 1_555
O33_3 C36_7 1_555 1_555
O34_3 C36_7 1_555 1_555
O18_7 Eu5 1_555 1_555
O38_3 C60_7 1_555 1_555
O25_7 Eu5 1_555 1_555
H1_7 O25_7 1_555 1_555
H2_7 O25_7 1_555 1_555
O26_7 Eu5 1_555 1_555
H3_7 O26_7 1_555 1_555
H4_7 O26_7 1_555 1_555
N1_7 C2_7 1_555 1_555
N2_7 Co5_2 1_555 1_555
N15_2 C26_7 1_555 1_555
N16_2 C31_7 1_555 1_555
C2_7 H11_7 1_555 1_555
C6_7 N1_7 1_555 1_555
C7_7 N2_7 1_555 1_555
C8_7 C7_7 1_555 1_555
C9_7 C8_7 1_555 1_555
H15_7 C9_7 1_555 1_555
C10_7 C9_7 1_555 1_555
C11_7 N2_7 1_555 1_555
H16_7 C11_7 1_555 1_555
C12_7 C10_7 1_555 1_555
C25_7 O10_7 1_555 1_555
C26_7 H23_7 1_555 1_555
C27_7 C25_7 1_555 1_555
C28_7 C27_7 1_555 1_555
H24_7 C28_7 1_555 1_555
C29_7 C28_7 1_555 1_555
H25_7 C29_7 1_555 1_555
C30_7 N15_2 1_555 1_555
C31_7 C30_7 1_555 1_555
C32_7 C31_7 1_555 1_555
H26_7 C32_7 1_555 1_555
C33_7 C32_7 1_555 1_555
H27_7 C33_7 1_555 1_555
C34_7 C33_7 1_555 1_555
C35_7 N16_2 1_555 1_555
H28_7 C35_7 1_555 1_555
C36_7 C34_7 1_555 1_555
C47_7 N8_7 1_555 1_555
H34_7 C47_7 1_555 1_555
C49_7 O18_7 1_555 1_555
C50_7 N9_7 1_555 1_555
H35_7 C50_7 1_555 1_555
C51_7 C49_7 1_555 1_555
C52_7 C51_7 1_555 1_555
H36_7 C52_7 1_555 1_555
C53_7 C52_7 1_555 1_555
H37_7 C53_7 1_555 1_555
C54_7 N9_7 1_555 1_555
C55_7 N10_7 1_555 1_555
C56_7 C55_7 1_555 1_555
H38_7 C56_7 1_555 1_555
C57_7 C56_7 1_555 1_555
H39_7 C57_7 1_555 1_555
C58_7 C57_7 1_555 1_555
C59_7 N10_7 1_555 1_555
C60_7 C58_7 1_555 1_555
O16_4 Eu10_3 1_555 1_555
C6_7 C7_7 1_555 1_555
C10_7 C11_7 1_555 1_555
C26_7 C27_7 1_555 1_555
C29_7 C30_7 1_555 1_555
C34_7 C35_7 1_555 1_555
C50_7 C51_7 1_555 1_555
C53_7 C54_7 1_555 1_555
C54_7 C55_7 1_555 1_555
C58_7 C59_7 1_555 1_555
Eu10_4 O5_7 1_555 1_555
O5_7 C13_7 1_555 1_555
O6_7 Eu10_4 1_555 1_555
O31_4 C24_7 1_555 1_555
O32_4 C24_7 1_555 1_555
O13_7 Eu10_4 1_555 1_555
O28_7 Eu10_4 1_555 1_555
H7_7 O28_7 1_555 1_555
H8_7 O28_7 1_555 1_555
O29_7 Eu10_4 1_555 1_555
H9_7 O29_7 1_555 1_555
H10_7 O29_7 1_555 1_555
N13_3 C14_7 1_555 1_555
N14_3 C19_7 1_555 1_555
C13_7 O6_7 1_555 1_555
C14_7 H17_7 1_555 1_555
C15_7 C13_7 1_555 1_555
C16_7 C15_7 1_555 1_555
H18_7 C16_7 1_555 1_555
C17_7 C16_7 1_555 1_555
H19_7 C17_7 1_555 1_555
C18_7 N13_3 1_555 1_555
C19_7 C18_7 1_555 1_555
C20_7 C19_7 1_555 1_555
H20_7 C20_7 1_555 1_555
C21_7 C20_7 1_555 1_555
H21_7 C21_7 1_555 1_555
C22_7 C21_7 1_555 1_555
C23_7 N14_3 1_555 1_555
H22_7 C23_7 1_555 1_555
C24_7 C22_7 1_555 1_555
C37_7 O13_7 1_555 1_555
C39_7 C37_7 1_555 1_555
C40_7 C39_7 1_555 1_555
H30_7 C40_7 1_555 1_555
C41_7 C40_7 1_555 1_555
H31_7 C41_7 1_555 1_555
O36_4 Eu10_4 1_555 1_555
C14_7 C15_7 1_555 1_555
C17_7 C18_7 1_555 1_555
C22_7 C23_7 1_555 1_555
C41_7 C42_7 1_555 1_555
C42_7 C43_7 1_555 1_555
O15_4 C48_7 1_555 1_555
O39_3 C61_7 1_555 1_555
O40 C72_7 1_555 1_555
O24_7 C72_7 1_555 1_555
N11_4 C62_7 1_555 1_555
N12_4 C67_7 1_555 1_555
C45_7 C44_7 1_555 1_555
H33_7 C45_7 1_555 1_555
C46_7 C45_7 1_555 1_555
C48_7 C46_7 1_555 1_555
C61_7 O22_7 1_555 1_555
C62_7 H41_7 1_555 1_555
C63_7 C61_7 1_555 1_555
C64_7 C63_7 1_555 1_555
H42_7 C64_7 1_555 1_555
C65_7 C64_7 1_555 1_555
H43_7 C65_7 1_555 1_555
C66_7 N11_4 1_555 1_555
C67_7 C66_7 1_555 1_555
C68_7 C67_7 1_555 1_555
H44_7 C68_7 1_555 1_555
C69_7 C68_7 1_555 1_555
H45_7 C69_7 1_555 1_555
C70_7 C69_7 1_555 1_555
C71_7 N12_4 1_555 1_555
H46_7 C71_7 1_555 1_555
C72_7 C70_7 1_555 1_555
Co3_4 N11_4 1_555 1_555
N12_4 Co3_4 1_555 1_555
C62_7 C63_7 1_555 1_555
C65_7 C66_7 1_555 1_555
C70_7 C71_7 1_555 1_555
Eu10_3 O5_8 1_555 1_555
O5_8 C13_8 1_555 1_555
O6_8 Eu10_3 1_555 1_555
O13_8 Eu10_3 1_555 1_555
O35_4 C48_8 1_555 1_555
O39_4 C61_8 1_555 1_555
O40_2 C72_8 1_555 1_555
O24_8 C72_8 1_555 1_555
O28_8 Eu10_3 1_555 1_555
H7_8 O28_8 1_555 1_555
H8_8 O28_8 1_555 1_555
O29_8 Eu10_3 1_555 1_555
H9_8 O29_8 1_555 1_555
H10_8 O29_8 1_555 1_555
N13_4 C14_8 1_555 1_555
N17_4 C62_8 1_555 1_555
N18_4 C67_8 1_555 1_555
C13_8 O6_8 1_555 1_555
C14_8 H17_8 1_555 1_555
C15_8 C13_8 1_555 1_555
C16_8 C15_8 1_555 1_555
H18_8 C16_8 1_555 1_555
C17_8 C16_8 1_555 1_555
H19_8 C17_8 1_555 1_555
C18_8 N13_4 1_555 1_555
C37_8 O13_8 1_555 1_555
C39_8 C37_8 1_555 1_555
C40_8 C39_8 1_555 1_555
H30_8 C40_8 1_555 1_555
C41_8 C40_8 1_555 1_555
H31_8 C41_8 1_555 1_555
C44_8 C43_8 1_555 1_555
H32_8 C44_8 1_555 1_555
C45_8 C44_8 1_555 1_555
H33_8 C45_8 1_555 1_555
C46_8 C45_8 1_555 1_555
C48_8 C46_8 1_555 1_555
C61_8 O22_8 1_555 1_555
C62_8 H41_8 1_555 1_555
C63_8 C61_8 1_555 1_555
C64_8 C63_8 1_555 1_555
H42_8 C64_8 1_555 1_555
C65_8 C64_8 1_555 1_555
H43_8 C65_8 1_555 1_555
C66_8 N17_4 1_555 1_555
C67_8 C66_8 1_555 1_555
C68_8 C67_8 1_555 1_555
H44_8 C68_8 1_555 1_555
C69_8 C68_8 1_555 1_555
H45_8 C69_8 1_555 1_555
C70_8 C69_8 1_555 1_555
C71_8 N18_4 1_555 1_555
H46_8 C71_8 1_555 1_555
C72_8 C70_8 1_555 1_555
C14_8 C15_8 1_555 1_555
C17_8 C18_8 1_555 1_555
C41_8 C42_8 1_555 1_555
C42_8 C43_8 1_555 1_555
C62_8 C63_8 1_555 1_555
C65_8 C66_8 1_555 1_555
C70_8 C71_8 1_555 1_555
Eu5_2 O4_8 1_555 1_555
Co3_4 N7_8 1_555 1_555
O4_8 C12_8 1_555 1_555
O9_8 C25_8 1_555 1_555
O10_8 Eu5_2 1_555 1_555
O18_8 Eu5_2 1_555 1_555
O19_8 C60_8 1_555 1_555
O38_4 C60_8 1_555 1_555
O25_8 Eu5_2 1_555 1_555
H1_8 O25_8 1_555 1_555
H2_8 O25_8 1_555 1_555
O26_8 Eu5_2 1_555 1_555
H3_8 O26_8 1_555 1_555
H4_8 O26_8 1_555 1_555
N2_8 Co5 1_555 1_555
N7_8 C38_8 1_555 1_555
N8_8 Co3_4 1_555 1_555
N9_8 Co3_4 1_555 1_555
N10_8 Co3_4 1_555 1_555
C7_8 N2_8 1_555 1_555
C8_8 C7_8 1_555 1_555
H14_8 C8_8 1_555 1_555
C9_8 C8_8 1_555 1_555
H15_8 C9_8 1_555 1_555
C10_8 C9_8 1_555 1_555
C11_8 N2_8 1_555 1_555
H16_8 C11_8 1_555 1_555
C12_8 C10_8 1_555 1_555
C25_8 O10_8 1_555 1_555
C27_8 C25_8 1_555 1_555
C28_8 C27_8 1_555 1_555
H24_8 C28_8 1_555 1_555
C29_8 C28_8 1_555 1_555
H25_8 C29_8 1_555 1_555
C38_8 H29_8 1_555 1_555
C47_8 N8_8 1_555 1_555
H34_8 C47_8 1_555 1_555
C49_8 O18_8 1_555 1_555
C50_8 N9_8 1_555 1_555
H35_8 C50_8 1_555 1_555
C51_8 C49_8 1_555 1_555
C52_8 C51_8 1_555 1_555
H36_8 C52_8 1_555 1_555
C53_8 C52_8 1_555 1_555
H37_8 C53_8 1_555 1_555
C54_8 N9_8 1_555 1_555
C55_8 N10_8 1_555 1_555
C56_8 C55_8 1_555 1_555
H38_8 C56_8 1_555 1_555
C57_8 C56_8 1_555 1_555
H39_8 C57_8 1_555 1_555
C58_8 C57_8 1_555 1_555
C59_8 N10_8 1_555 1_555
H40_8 C59_8 1_555 1_555
C60_8 C58_8 1_555 1_555
C10_8 C11_8 1_555 1_555
C26_8 C27_8 1_555 1_555
C50_8 C51_8 1_555 1_555
C53_8 C54_8 1_555 1_555
C54_8 C55_8 1_555 1_555
C58_8 C59_8 1_555 1_555
C30_8 N15 1_555 1_555
O31_3 C24_8 1_555 1_555
O32_3 C24_8 1_555 1_555
N14_4 C19_8 1_555 1_555
C20_8 C19_8 1_555 1_555
H20_8 C20_8 1_555 1_555
C21_8 C20_8 1_555 1_555
H21_8 C21_8 1_555 1_555
C22_8 C21_8 1_555 1_555
C23_8 N14_4 1_555 1_555
H22_8 C23_8 1_555 1_555
C24_8 C22_8 1_555 1_555
C22_8 C23_8 1_555 1_555
Eu8_4 O1_8 1_555 1_555
O1_8 C1_8 1_555 1_555
O2_8 C1_8 1_555 1_555
O27_8 Eu8_4 1_555 1_555
H5_8 O27_8 1_555 1_555
H6_8 O27_8 1_555 1_555
N1_8 C2_8 1_555 1_555
C1_8 C3_8 1_555 1_555
C2_8 H11_8 1_555 1_555
C3_8 C2_8 1_555 1_555
C4_8 C3_8 1_555 1_555
H12_8 C4_8 1_555 1_555
C5_8 C4_8 1_555 1_555
H13_8 C5_8 1_555 1_555
C6_8 N1_8 1_555 1_555
O33_4 Eu8_4 1_555 1_555
C5_8 C6_8 1_555 1_555
O33_4 C36_8 1_555 1_555
O34_4 C36_8 1_555 1_555
N16 C31_8 1_555 1_555
C32_8 C31_8 1_555 1_555
H26_8 C32_8 1_555 1_555
C33_8 C32_8 1_555 1_555
H27_8 C33_8 1_555 1_555
C34_8 C33_8 1_555 1_555
C35_8 N16 1_555 1_555
H28_8 C35_8 1_555 1_555
C36_8 C34_8 1_555 1_555
C34_8 C35_8 1_555 1_555
O42 Cl1 1_555 1_555
Cl1_2 O41_2 1_555 1_555
O42_2 Cl1_2 1_555 1_555
Cl1_3 O41_3 1_555 1_555
O42_3 Cl1_3 1_555 1_555
O43_3 Cl1_3 1_555 1_555
O44_3 Cl1_3 1_555 1_555
O42_4 Cl1_4 1_555 1_555
O43_4 Cl1_4 1_555 1_555
O42_5 Cl1_5 1_555 1_555
Cl1_6 O41_6 1_555 1_555
O42_6 Cl1_6 1_555 1_555
Cl1_7 O41_7 1_555 1_555
O42_7 Cl1_7 1_555 1_555
O43_7 Cl1_7 1_555 1_555
O44_7 Cl1_7 1_555 1_555
O42_8 Cl1_8 1_555 1_555
O43_8 Cl1_8 1_555 1_555

#END
