
###############################################################################
#
# This file contains modified crystal structure data generated from the
# MOF subset of the Cambridge Structural Database (CSD) v543 
# hosted by the Cambridge Crystallographic Data Centre (CCDC).
#
# This work is licensed under the Creative Commons
# Attribution-NonCommercial-ShareAlike 4.0 International License.
# To view a copy of this license, visit
# http://creativecommons.org/licenses/by-nc-sa/4.0/
# or send a letter to
# Creative Commons, PO Box 1866, Mountain View, CA 94042, USA.
#
# CIF created using the CSD Python API on 29 September 2022
# The structure has been converted into the P1 space group
# The structure has a 3D framework
# The original CSD entry NIGBOW is in the orthorhombic crystal system
# The framework has been calculated to contain at least 10.0% void space
# The void calculation uses a probe of radius 1.32A, grid spacing 0.4
# H atom positions have been added when not included in the experimental data
#
###############################################################################

data_NIGBOW
_chemical_formula_moiety         '(C56 H32 O19 V4)n'
_symmetry_cell_setting           triclinic
_symmetry_space_group_name_H-M   'P 1'
_symmetry_Int_Tables_number      1
_space_group_name_Hall           'P 1'
loop_
_symmetry_equiv_pos_site_id
_symmetry_equiv_pos_as_xyz
1 x,y,z
_cell_length_a                   21.443(3)
_cell_length_b                   6.957(4)
_cell_length_c                   20.570(2)
_cell_angle_alpha                90
_cell_angle_beta                 90
_cell_angle_gamma                90
_cell_volume                     3068.61
loop_
_atom_site_label
_atom_site_type_symbol
_atom_site_fract_x
_atom_site_fract_y
_atom_site_fract_z
_atom_site_U_iso_or_equiv
_atom_site_thermal_displace_type
V3 V 0.000 -0.000 0.000 0.0180 Uiso
V5 V 0.500 -0.000 0.500 0.0180 Uiso
H1 H 0.369299 0.067603 0.362349 . .
H5 H 0.219874 0.0701718 0.222881 . .
H6 H 0.280126 0.0701718 0.277119 . .
H7 H 0.130701 0.067603 0.137651 . .
V3_2 V 0.000 -0.000 1.000 0.0180 Uiso
V1 V 0.000 0.500 0.000 0.0180 Uiso
O1 O 0.000 0.250 0.038(4) 0.0170 Uiso
O2 O 0.0645(9) 0.577(2) 0.051(2) 0.0170 Uiso
C1 C 0.082(3) 0.750 0.074(2) 0.0631 Uiso
C2 C 0.129(3) 0.750 0.130(3) 0.0631 Uiso
C3 C 0.151(2) 0.5664(8) 0.155(2) 0.0631 Uiso
C4 C 0.201(2) 0.5640(8) 0.204(3) 0.0631 Uiso
C5 C 0.224(6) 0.750 0.226(7) 0.0631 Uiso
O3 O 0.4355(9) 0.577(2) 0.449(2) 0.0170 Uiso
C6 C 0.418(3) 0.750 0.426(2) 0.0631 Uiso
C7 C 0.371(3) 0.750 0.370(3) 0.0631 Uiso
C8 C 0.349(2) 0.5664(8) 0.345(2) 0.0631 Uiso
C9 C 0.299(2) 0.5640(8) 0.296(3) 0.0631 Uiso
C10 C 0.276(6) 0.750 0.274(7) 0.0631 Uiso
O4 O 0.4355(9) 0.923(2) 0.449(2) 0.0170 Uiso
C11 C 0.349(2) 0.9336(8) 0.345(2) 0.0631 Uiso
C12 C 0.299(2) 0.9360(8) 0.296(3) 0.0631 Uiso
O5 O 0.0645(9) 0.923(2) 0.051(2) 0.0170 Uiso
C13 C 0.151(2) 0.9336(8) 0.155(2) 0.0631 Uiso
C14 C 0.201(2) 0.9360(8) 0.204(3) 0.0631 Uiso
V3_3 V 0.000 1.000 0.000 0.0180 Uiso
V4 V 0.500 0.500 0.500 0.0180 Uiso
V5_2 V 0.500 1.000 0.500 0.0180 Uiso
H2 H 0.369299 0.432397 0.362349 . .
H3 H 0.219874 0.429828 0.222881 . .
H4 H 0.130701 0.432397 0.137651 . .
H8 H 0.280126 0.429828 0.277119 . .
V1_2 V 0.000 0.500 1.000 0.0180 Uiso
V3_4 V 0.000 1.000 1.000 0.0180 Uiso
O6 O 0.000 0.750 0.962(4) 0.0170 Uiso
O8 O 0.0645(9) 0.423(2) 0.949(2) 0.0170 Uiso
V3_5 V 1.000 -0.000 0.000 0.0180 Uiso
V3_6 V 1.000 -0.000 1.000 0.0180 Uiso
V1_3 V 1.000 0.500 0.000 0.0180 Uiso
O1_2 O 1.000 0.250 0.038(4) 0.0170 Uiso
V3_7 V 1.000 1.000 0.000 0.0180 Uiso
O9 O 0.9355(9) 0.577(2) 0.051(2) 0.0170 Uiso
V1_4 V 1.000 0.500 1.000 0.0180 Uiso
V3_8 V 1.000 1.000 1.000 0.0180 Uiso
O6_2 O 1.000 0.750 0.962(4) 0.0170 Uiso
O7 O 0.9355(9) 0.423(2) 0.949(2) 0.0170 Uiso
O7_2 O 0.0645(9) 0.077(2) 0.949(2) 0.0170 Uiso
H2_2 H 0.630701 0.067603 0.362349 . .
H3_2 H 0.780126 0.0701718 0.222881 . .
H4_2 H 0.869299 0.067603 0.137651 . .
H8_2 H 0.719874 0.0701718 0.277119 . .
O8_2 O 0.9355(9) 0.077(2) 0.949(2) 0.0170 Uiso
O2_2 O 0.9355(9) 0.923(2) 0.051(2) 0.0170 Uiso
C1_2 C 0.918(3) 0.750 0.074(2) 0.0631 Uiso
C2_2 C 0.871(3) 0.750 0.130(3) 0.0631 Uiso
C3_2 C 0.849(2) 0.9336(8) 0.155(2) 0.0631 Uiso
C4_2 C 0.799(2) 0.9360(8) 0.204(3) 0.0631 Uiso
C5_2 C 0.776(6) 0.750 0.226(7) 0.0631 Uiso
O3_2 O 0.5645(9) 0.923(2) 0.449(2) 0.0170 Uiso
C6_2 C 0.582(3) 0.750 0.426(2) 0.0631 Uiso
C7_2 C 0.629(3) 0.750 0.370(3) 0.0631 Uiso
C8_2 C 0.651(2) 0.9336(8) 0.345(2) 0.0631 Uiso
C9_2 C 0.701(2) 0.9360(8) 0.296(3) 0.0631 Uiso
C10_2 C 0.724(6) 0.750 0.274(7) 0.0631 Uiso
O4_2 O 0.5645(9) 0.577(2) 0.449(2) 0.0170 Uiso
C11_2 C 0.651(2) 0.5664(8) 0.345(2) 0.0631 Uiso
C12_2 C 0.701(2) 0.5640(8) 0.296(3) 0.0631 Uiso
C13_2 C 0.849(2) 0.5664(8) 0.155(2) 0.0631 Uiso
C14_2 C 0.799(2) 0.5640(8) 0.204(3) 0.0631 Uiso
H1_2 H 0.630701 0.432397 0.362349 . .
H5_2 H 0.780126 0.429828 0.222881 . .
H6_2 H 0.719874 0.429828 0.277119 . .
H7_2 H 0.869299 0.432397 0.137651 . .
O1_3 O 0.500 0.250 0.462(4) 0.0170 Uiso
O6_3 O 0.500 0.750 0.538(4) 0.0170 Uiso
O7_3 O 0.5645(9) 0.423(2) 0.551(2) 0.0170 Uiso
O8_3 O 0.4355(9) 0.423(2) 0.551(2) 0.0170 Uiso
O7_4 O 0.4355(9) 0.077(2) 0.551(2) 0.0170 Uiso
O8_4 O 0.5645(9) 0.077(2) 0.551(2) 0.0170 Uiso
C1_3 C 0.582(3) 0.250 0.574(2) 0.0631 Uiso
C2_3 C 0.629(3) 0.250 0.630(3) 0.0631 Uiso
C3_3 C 0.651(2) 0.0664(8) 0.655(2) 0.0631 Uiso
C4_3 C 0.701(2) 0.0640(8) 0.704(3) 0.0631 Uiso
C5_3 C 0.724(6) 0.250 0.726(7) 0.0631 Uiso
C6_3 C 0.918(3) 0.250 0.926(2) 0.0631 Uiso
C7_3 C 0.871(3) 0.250 0.870(3) 0.0631 Uiso
C8_3 C 0.849(2) 0.0664(8) 0.845(2) 0.0631 Uiso
C9_3 C 0.799(2) 0.0640(8) 0.796(3) 0.0631 Uiso
C10_3 C 0.776(6) 0.250 0.774(7) 0.0631 Uiso
C11_3 C 0.849(2) 0.4336(8) 0.845(2) 0.0631 Uiso
C12_3 C 0.799(2) 0.4360(8) 0.796(3) 0.0631 Uiso
C13_3 C 0.651(2) 0.4336(8) 0.655(2) 0.0631 Uiso
C14_3 C 0.701(2) 0.4360(8) 0.704(3) 0.0631 Uiso
H1_3 H 0.869299 0.567603 0.862349 . .
H5_3 H 0.719874 0.570172 0.722881 . .
H6_3 H 0.780126 0.570172 0.777119 . .
H7_3 H 0.630701 0.567603 0.637651 . .
H2_3 H 0.869299 0.932397 0.862349 . .
H3_3 H 0.719874 0.929828 0.722881 . .
H4_3 H 0.630701 0.932397 0.637651 . .
H8_3 H 0.780126 0.929828 0.777119 . .
C1_4 C 0.418(3) 0.250 0.574(2) 0.0631 Uiso
C2_4 C 0.371(3) 0.250 0.630(3) 0.0631 Uiso
C3_4 C 0.349(2) 0.4336(8) 0.655(2) 0.0631 Uiso
C4_4 C 0.299(2) 0.4360(8) 0.704(3) 0.0631 Uiso
C5_4 C 0.276(6) 0.250 0.726(7) 0.0631 Uiso
C6_4 C 0.082(3) 0.250 0.926(2) 0.0631 Uiso
C7_4 C 0.129(3) 0.250 0.870(3) 0.0631 Uiso
C8_4 C 0.151(2) 0.4336(8) 0.845(2) 0.0631 Uiso
C9_4 C 0.201(2) 0.4360(8) 0.796(3) 0.0631 Uiso
C10_4 C 0.224(6) 0.250 0.774(7) 0.0631 Uiso
C11_4 C 0.151(2) 0.0664(8) 0.845(2) 0.0631 Uiso
C12_4 C 0.201(2) 0.0640(8) 0.796(3) 0.0631 Uiso
C13_4 C 0.349(2) 0.0664(8) 0.655(2) 0.0631 Uiso
C14_4 C 0.299(2) 0.0640(8) 0.704(3) 0.0631 Uiso
H2_4 H 0.130701 0.567603 0.862349 . .
H3_4 H 0.280126 0.570172 0.722881 . .
H4_4 H 0.369299 0.567603 0.637651 . .
H8_4 H 0.219874 0.570172 0.777119 . .
H1_4 H 0.130701 0.932397 0.862349 . .
H5_4 H 0.280126 0.929828 0.722881 . .
H6_4 H 0.219874 0.929828 0.777119 . .
H7_4 H 0.369299 0.932397 0.637651 . .
loop_
_geom_bond_atom_site_label_1
_geom_bond_atom_site_label_2
_geom_bond_site_symmetry_1
_geom_bond_site_symmetry_2
V1 O1 1_555 1_555
O1 V3 1_555 1_555
O2 V1 1_555 1_555
C1 O2 1_555 1_555
C2 C1 1_555 1_555
C3 C2 1_555 1_555
C4 C3 1_555 1_555
C5 C4 1_555 1_555
O3 C6 1_555 1_555
C6 C7 1_555 1_555
C7 C8 1_555 1_555
C8 C9 1_555 1_555
C9 C10 1_555 1_555
C10 C5 1_555 1_555
O4 C6 1_555 1_555
C11 C7 1_555 1_555
C12 C10 1_555 1_555
O5 C1 1_555 1_555
C13 C2 1_555 1_555
C14 C5 1_555 1_555
V3_3 O5 1_555 1_555
V4 O3 1_555 1_555
V5_2 O4 1_555 1_555
C11 C12 1_555 1_555
C13 C14 1_555 1_555
C8 H2 1_555 1_555
C4 H3 1_555 1_555
C3 H4 1_555 1_555
C9 H8 1_555 1_555
O6 V1_2 1_555 1_555
O8 V1_2 1_555 1_555
V3_4 O6 1_555 1_555
V1_3 O1_2 1_555 1_555
O1_2 V3_5 1_555 1_555
O9 V1_3 1_555 1_555
O6_2 V1_4 1_555 1_555
O7 V1_4 1_555 1_555
V3_8 O6_2 1_555 1_555
O7_2 V3_2 1_555 1_555
O8_2 V3_6 1_555 1_555
O2_2 V3_7 1_555 1_555
C1_2 O2_2 1_555 1_555
C2_2 C1_2 1_555 1_555
C3_2 C2_2 1_555 1_555
C4_2 C3_2 1_555 1_555
C5_2 C4_2 1_555 1_555
O3_2 C6_2 1_555 1_555
C6_2 C7_2 1_555 1_555
C7_2 C8_2 1_555 1_555
C8_2 C9_2 1_555 1_555
C9_2 C10_2 1_555 1_555
C10_2 C5_2 1_555 1_555
O4_2 C6_2 1_555 1_555
C11_2 C7_2 1_555 1_555
C12_2 C10_2 1_555 1_555
O9 C1_2 1_555 1_555
C13_2 C2_2 1_555 1_555
C14_2 C5_2 1_555 1_555
V5_2 O3_2 1_555 1_555
V4 O4_2 1_555 1_555
C11_2 C12_2 1_555 1_555
C13_2 C14_2 1_555 1_555
C11_2 H1_2 1_555 1_555
C14_2 H5_2 1_555 1_555
C12_2 H6_2 1_555 1_555
C13_2 H7_2 1_555 1_555
V4 O1_3 1_555 1_555
O1_3 V5 1_555 1_555
O6_3 V4 1_555 1_555
O7_3 V4 1_555 1_555
O8_3 V4 1_555 1_555
V5_2 O6_3 1_555 1_555
O7_4 V5 1_555 1_555
O8_4 V5 1_555 1_555
C1_3 O8_4 1_555 1_555
C2_3 C1_3 1_555 1_555
C3_3 C2_3 1_555 1_555
C4_3 C3_3 1_555 1_555
C5_3 C4_3 1_555 1_555
O8_2 C6_3 1_555 1_555
C6_3 C7_3 1_555 1_555
C7_3 C8_3 1_555 1_555
C8_3 C9_3 1_555 1_555
C9_3 C10_3 1_555 1_555
C10_3 C5_3 1_555 1_555
O7 C6_3 1_555 1_555
C11_3 C7_3 1_555 1_555
C12_3 C10_3 1_555 1_555
O7_3 C1_3 1_555 1_555
C13_3 C2_3 1_555 1_555
C14_3 C5_3 1_555 1_555
C11_3 C12_3 1_555 1_555
C13_3 C14_3 1_555 1_555
C11_3 H1_3 1_555 1_555
C14_3 H5_3 1_555 1_555
C12_3 H6_3 1_555 1_555
C13_3 H7_3 1_555 1_555
C1_4 O8_3 1_555 1_555
C2_4 C1_4 1_555 1_555
C3_4 C2_4 1_555 1_555
C4_4 C3_4 1_555 1_555
C5_4 C4_4 1_555 1_555
O8 C6_4 1_555 1_555
C6_4 C7_4 1_555 1_555
C7_4 C8_4 1_555 1_555
C8_4 C9_4 1_555 1_555
C9_4 C10_4 1_555 1_555
C10_4 C5_4 1_555 1_555
O7_2 C6_4 1_555 1_555
C11_4 C7_4 1_555 1_555
C12_4 C10_4 1_555 1_555
O7_4 C1_4 1_555 1_555
C13_4 C2_4 1_555 1_555
C14_4 C5_4 1_555 1_555
C11_4 C12_4 1_555 1_555
C13_4 C14_4 1_555 1_555
C8_4 H2_4 1_555 1_555
C4_4 H3_4 1_555 1_555
C3_4 H4_4 1_555 1_555
C9_4 H8_4 1_555 1_555

#END
