
###############################################################################
#
# This file contains modified crystal structure data generated from the
# MOF subset of the Cambridge Structural Database (CSD) v543 
# hosted by the Cambridge Crystallographic Data Centre (CCDC).
#
# This work is licensed under the Creative Commons
# Attribution-NonCommercial-ShareAlike 4.0 International License.
# To view a copy of this license, visit
# http://creativecommons.org/licenses/by-nc-sa/4.0/
# or send a letter to
# Creative Commons, PO Box 1866, Mountain View, CA 94042, USA.
#
# CIF created using the CSD Python API on 29 September 2022
# The structure has been converted into the P1 space group
# The structure has a 3D framework
# The original CSD entry NIGDIS is in the orthorhombic crystal system
# The framework has been calculated to contain at least 10.0% void space
# The void calculation uses a probe of radius 1.32A, grid spacing 0.4
# H atom positions have been added when not included in the experimental data
# Generated hydrogen atom positions removed from atoms on special positions
#
###############################################################################

data_NIGDIS
_chemical_formula_moiety         '(C324 H240 Cu26 O120)n'
_symmetry_cell_setting           triclinic
_symmetry_space_group_name_H-M   'P 1'
_symmetry_Int_Tables_number      1
_space_group_name_Hall           'P 1'
loop_
_symmetry_equiv_pos_site_id
_symmetry_equiv_pos_as_xyz
1 x,y,z
_cell_length_a                   27.547(4)
_cell_length_b                   36.559(5)
_cell_length_c                   18.413(2)
_cell_angle_alpha                90
_cell_angle_beta                 90
_cell_angle_gamma                90
_cell_volume                     18543.6
loop_
_atom_site_label
_atom_site_type_symbol
_atom_site_fract_x
_atom_site_fract_y
_atom_site_fract_z
Cu1 Cu -0.0000 0.100735(10) 0.19256(3)
Cu2 Cu -0.0000 0.173286(11) 0.19163(3)
Cu3 Cu 0.229477(13) 0.273309(9) 0.377001(19)
Cu4 Cu 0.290773(13) 0.231443(9) 0.45306(2)
O3 O 0.04978(8) 0.10725(5) 0.11581(12)
O4 O 0.04926(8) 0.16792(6) 0.11284(12)
O5 O 0.04945(8) 0.10516(5) 0.26612(11)
O6 O 0.05024(7) 0.16699(5) 0.26420(11)
O7 O 0.24057(8) 0.19424(6) 0.44934(15)
O8 O 0.18998(7) 0.22798(6) 0.38234(14)
O9 O 0.20423(8) 0.28920(6) 0.46997(12)
O10 O 0.25618(8) 0.25470(7) 0.53346(11)
O11 O 0.18785(8) 0.28345(6) 0.85393(11)
O12 O 0.23933(8) 0.24698(6) 0.79184(11)
O13 O -0.0000 0.04343(8) 0.1834(3)
O14 O -0.0000 0.23178(7) 0.2011(2)
O15 O 0.17728(10) 0.30549(8) 0.32189(17)
O16 O 0.34111(9) 0.19697(9) 0.50525(16)
C1 C 0.06089(11) 0.13673(9) 0.08875(17)
C2 C 0.09233(12) 0.13572(8) 0.02343(17)
H3 H 0.1131 0.1885 0.0248
C15 C 0.06525(11) 0.13639(8) 0.28568(17)
C16 C 0.10547(11) 0.13582(8) 0.34219(16)
C17 C 0.11754(10) 0.10346(8) 0.37811(18)
H7 H 0.0991 0.0820 0.3686
C18 C 0.15565(12) 0.10166(8) 0.42739(17)
C19 C 0.18145(12) 0.13324(9) 0.43926(19)
H8 H 0.2077 0.1327 0.4727
C20 C 0.17085(10) 0.16560(8) 0.40472(16)
C21 C 0.13211(11) 0.16684(8) 0.35579(16)
H9 H 0.1242 0.1891 0.3320
C22 C 0.20280(12) 0.19907(9) 0.41299(18)
C23 C 0.16817(11) 0.06627(9) 0.46469(18)
C24 C 0.18714(12) 0.06535(9) 0.53555(18)
H10 H 0.1933 0.0878 0.5597
C25 C 0.19699(13) 0.03340(9) 0.57093(18)
H11 H 0.2101 0.0340 0.6186
C26 C 0.18797(16) -0.0000 0.5375(3)
C27 C 0.16859(16) -0.0000 0.4651(2)
C28 C 0.16049(12) 0.03401(8) 0.43126(17)
H12 H 0.1491 0.0342 0.3826
C29 C 0.22164(13) 0.27744(9) 0.52723(18)
C30 C 0.19724(12) 0.28999(9) 0.59601(16)
C31 C 0.15896(12) 0.31404(9) 0.59258(16)
H13 H 0.1500 0.3243 0.5471
C32 C 0.13311(12) 0.32369(8) 0.65473(17)
C33 C 0.14899(11) 0.30924(9) 0.72163(17)
H14 H 0.1320 0.3157 0.7647
C34 C 0.18920(11) 0.28547(8) 0.72691(17)
C35 C 0.21320(12) 0.27617(7) 0.66345(19)
H15 H 0.2406 0.2604 0.6653
C36 C 0.20655(12) 0.27119(8) 0.79584(18)
C37 C 0.08807(12) 0.34496(9) 0.64944(18)
C38 C 0.04514(13) 0.33078(9) 0.66883(19)
H16 H 0.0450 0.3077 0.6924
C39 C -0.0000 0.34821(13) 0.6562(2)
C40 C -0.0000 0.38122(14) 0.6207(3)
C41 C 0.04544(16) 0.39596(11) 0.6014(2)
H17 H 0.0461 0.4191 0.5779
C42 C 0.08692(15) 0.37958(10) 0.6143(2)
H18 H 0.1164 0.3909 0.6000
O30 O 0.15889(9) 0.30303(9) 0.00525(16)
Cu11 Cu 0.270523(13) 0.226691(9) 0.877001(19)
Cu16 Cu 0.209227(13) 0.268557(9) 0.95306(2)
O31 O 0.28268(8) 0.30918(6) 0.38587(13)
O32 O 0.33292(7) 0.27375(5) 0.44958(14)
O40 O 0.24382(8) 0.24530(7) 0.03346(11)
O42 O 0.31215(8) 0.21655(6) 0.35393(11)
O44 O 0.26067(8) 0.25302(6) 0.29184(11)
H41 H 0.0329986 0.0339136 0.194085
O1 O 0.21732(8) 0.19082(6) 0.88587(13)
O2 O 0.16708(7) 0.22625(5) 0.94958(14)
C3 C 0.09533(11) 0.10376(9) 0.98373(18)
H1 H 0.0775 0.0829 0.9988
C4 C 0.12380(11) 0.10181(9) 0.92273(17)
C5 C 0.15159(12) 0.13266(9) 0.90149(18)
H2 H 0.1728 0.1311 0.8609
C6 C 0.14784(11) 0.16459(8) 0.93952(17)
C7 C 0.11707(11) 0.16598(9) 0.99965(18)
C8 C 0.18043(12) 0.19612(9) 0.92236(17)
C9 C 0.12864(12) 0.06656(8) 0.8794(2)
C10 C 0.12703(11) 0.03329(8) 0.91587(17)
H4 H 0.1240 0.0334 0.9673
C11 C 0.12960(16) -0.0000 0.8802(3)
C12 C 0.13144(18) -0.0000 0.8023(2)
C13 C 0.13554(14) 0.03434(9) 0.76715(19)
H5 H 0.1405 0.0352 0.7161
C14 C 0.13245(13) 0.06610(9) 0.80536(19)
H6 H 0.1329 0.0887 0.7798
O29 O 0.32272(10) 0.19451(8) 0.82189(17)
O37 O 0.25943(8) 0.30576(6) 0.94934(15)
O38 O 0.31002(7) 0.27202(6) 0.88234(14)
O39 O 0.29577(8) 0.21080(6) 0.96997(12)
C26_2 C 0.18797(16) 1.0000 0.5375(3)
C27_2 C 0.16859(16) 1.0000 0.4651(2)
O19 O 0.04978(8) 0.89275(5) 0.11581(12)
O20 O 0.04926(8) 0.83208(6) 0.11284(12)
C43 C 0.06089(11) 0.86327(9) 0.08875(17)
C44 C 0.09233(12) 0.86428(8) 0.02343(17)
H21 H 0.1131 0.8115 0.0248
O21 O 0.04945(8) 0.89484(5) 0.26612(11)
O22 O 0.05024(7) 0.83301(5) 0.26420(11)
O23 O 0.24057(8) 0.80576(6) 0.44934(15)
O24 O 0.18998(7) 0.77202(6) 0.38234(14)
C55 C 0.06525(11) 0.86361(8) 0.28568(17)
C56 C 0.10547(11) 0.86418(8) 0.34219(16)
C57 C 0.11754(10) 0.89654(8) 0.37811(18)
H25 H 0.0991 0.9180 0.3686
C58 C 0.15565(12) 0.89834(8) 0.42739(17)
C59 C 0.18145(12) 0.86676(9) 0.43926(19)
H26 H 0.2077 0.8673 0.4727
C60 C 0.17085(10) 0.83440(8) 0.40472(16)
C61 C 0.13211(11) 0.83316(8) 0.35579(16)
H27 H 0.1242 0.8109 0.3320
C62 C 0.20280(12) 0.80093(9) 0.41299(18)
C63 C 0.16817(11) 0.93373(9) 0.46469(18)
C64 C 0.18714(12) 0.93465(9) 0.53555(18)
H28 H 0.1933 0.9122 0.5597
C65 C 0.19699(13) 0.96660(9) 0.57093(18)
H29 H 0.2101 0.9660 0.6186
C66 C 0.16049(12) 0.96599(8) 0.43126(17)
H30 H 0.1491 0.9658 0.3826
Cu7 Cu -0.0000 0.899265(10) 0.19256(3)
Cu8 Cu 0.0000 0.826714(11) 0.19163(3)
Cu10 Cu 0.229477(13) 0.726691(9) 0.377001(19)
Cu15 Cu 0.290773(13) 0.768557(9) 0.45306(2)
C11_2 C 0.12960(16) 1.0000 0.8802(3)
C12_2 C 0.13144(18) 1.0000 0.8023(2)
O17 O 0.21732(8) 0.80918(6) 0.88587(13)
O18 O 0.16708(7) 0.77375(5) 0.94958(14)
C45 C 0.09533(11) 0.89624(9) 0.98373(18)
H19 H 0.0775 0.9171 0.9988
C46 C 0.12380(11) 0.89819(9) 0.92273(17)
C47 C 0.15159(12) 0.86734(9) 0.90149(18)
H20 H 0.1728 0.8689 0.8609
C48 C 0.14784(11) 0.83541(8) 0.93952(17)
C49 C 0.11707(11) 0.83402(9) 0.99965(18)
C50 C 0.18043(12) 0.80388(9) 0.92236(17)
C51 C 0.12864(12) 0.93344(8) 0.8794(2)
C52 C 0.12703(11) 0.96671(8) 0.91587(17)
H22 H 0.1240 0.9666 0.9673
C53 C 0.13554(14) 0.96566(9) 0.76715(19)
H23 H 0.1405 0.9648 0.7161
C54 C 0.13245(13) 0.93390(9) 0.80536(19)
H24 H 0.1329 0.9113 0.7798
Cu12 Cu 0.270523(13) 0.773309(9) 0.877001(19)
Cu17 Cu 0.209227(13) 0.731443(9) 0.95306(2)
Cu1_2 Cu 1.0000 0.100735(10) 0.19256(3)
Cu2_2 Cu 1.0000 0.173286(11) 0.19163(3)
O13_2 O 1.0000 0.04343(8) 0.1834(3)
O14_2 O 1.0000 0.23178(7) 0.2011(2)
C39_2 C 1.0000 0.34821(13) 0.6562(2)
C40_2 C 1.0000 0.38122(14) 0.6207(3)
O25 O 0.79577(8) 0.28920(6) 0.46997(12)
O26 O 0.74382(8) 0.25470(7) 0.53346(11)
O27 O 0.81215(8) 0.28345(6) 0.85393(11)
O28 O 0.76067(8) 0.24698(6) 0.79184(11)
C67 C 0.77836(13) 0.27744(9) 0.52723(18)
C68 C 0.80276(12) 0.28999(9) 0.59601(16)
C69 C 0.84104(12) 0.31404(9) 0.59258(16)
H31 H 0.8500 0.3243 0.5471
C70 C 0.86689(12) 0.32369(8) 0.65473(17)
C71 C 0.85101(11) 0.30924(9) 0.72163(17)
H32 H 0.8680 0.3157 0.7647
C72 C 0.81080(11) 0.28547(8) 0.72691(17)
C73 C 0.78680(12) 0.27617(7) 0.66345(19)
H33 H 0.7594 0.2604 0.6653
C74 C 0.79345(12) 0.27119(8) 0.79584(18)
C75 C 0.91193(12) 0.34496(9) 0.64944(18)
C76 C 0.95486(13) 0.33078(9) 0.66883(19)
H34 H 0.9550 0.3077 0.6924
C77 C 0.95456(16) 0.39596(11) 0.6014(2)
H35 H 0.9539 0.4191 0.5779
C78 C 0.91308(15) 0.37958(10) 0.6143(2)
H36 H 0.8836 0.3909 0.6000
Cu9 Cu 0.770523(13) 0.273309(9) 0.377001(19)
Cu13 Cu 0.729477(13) 0.226691(9) 0.877001(19)
Cu14 Cu 0.709227(13) 0.231443(9) 0.45306(2)
Cu18 Cu 0.790773(13) 0.268557(9) 0.95306(2)
O33 O 0.95022(8) 0.10725(5) 0.11581(12)
O34 O 0.95074(8) 0.16792(6) 0.11284(12)
O35 O 0.95055(8) 0.10516(5) 0.26612(11)
O36 O 0.94976(7) 0.16699(5) 0.26420(11)
H42 H 0.976458 0.0329232 0.21851
H47 H 0.990347 0.242799 0.153971
H48 H 0.976606 0.239294 0.239322
Cu7_2 Cu 1.0000 0.899265(10) 0.19256(3)
Cu8_2 Cu 1.0000 0.826714(11) 0.19163(3)
O13_3 O -0.0000 0.95657(8) 0.1834(3)
O14_3 O 0.0000 0.76822(7) 0.2011(2)
C39_3 C -0.0000 0.65179(13) 0.6562(2)
C40_3 C 0.0000 0.61878(14) 0.6207(3)
O25_2 O 0.20423(8) 0.71080(6) 0.46997(12)
O26_2 O 0.25618(8) 0.74530(7) 0.53346(11)
O27_2 O 0.18785(8) 0.71655(6) 0.85393(11)
O28_2 O 0.23933(8) 0.75302(6) 0.79184(11)
C67_2 C 0.22164(13) 0.72256(9) 0.52723(18)
C68_2 C 0.19724(12) 0.71001(9) 0.59601(16)
C69_2 C 0.15896(12) 0.68596(9) 0.59258(16)
H31_2 H 0.1500 0.6757 0.5471
C70_2 C 0.13311(12) 0.67631(8) 0.65473(17)
C71_2 C 0.14899(11) 0.69076(9) 0.72163(17)
H32_2 H 0.1320 0.6843 0.7647
C72_2 C 0.18920(11) 0.71453(8) 0.72691(17)
C73_2 C 0.21320(12) 0.72383(7) 0.66345(19)
H33_2 H 0.2406 0.7396 0.6653
C74_2 C 0.20655(12) 0.72881(8) 0.79584(18)
C75_2 C 0.08807(12) 0.65504(9) 0.64944(18)
C76_2 C 0.04514(13) 0.66922(9) 0.66883(19)
H34_2 H 0.0450 0.6923 0.6924
C77_2 C 0.04544(16) 0.60404(11) 0.6014(2)
H35_2 H 0.0461 0.5809 0.5779
C78_2 C 0.08692(15) 0.62042(10) 0.6143(2)
H36_2 H 0.1164 0.6091 0.6000
H42_2 H 0.0235421 0.967077 0.21851
H47_2 H 0.00965337 0.757201 0.153971
H48_2 H 0.0233937 0.760706 0.239322
C26_3 C 0.81203(16) 0.0000 0.5375(3)
C27_3 C 0.83141(16) 0.0000 0.4651(2)
C43_2 C 0.93911(11) 0.13673(9) 0.08875(17)
C44_2 C 0.90767(12) 0.13572(8) 0.02343(17)
H21_2 H 0.8869 0.1885 0.0248
O23_2 O 0.75943(8) 0.19424(6) 0.44934(15)
O24_2 O 0.81002(7) 0.22798(6) 0.38234(14)
C55_2 C 0.93475(11) 0.13639(8) 0.28568(17)
C56_2 C 0.89453(11) 0.13582(8) 0.34219(16)
C57_2 C 0.88246(10) 0.10346(8) 0.37811(18)
H25_2 H 0.9009 0.0820 0.3686
C58_2 C 0.84435(12) 0.10166(8) 0.42739(17)
C59_2 C 0.81855(12) 0.13324(9) 0.43926(19)
H26_2 H 0.7923 0.1327 0.4727
C60_2 C 0.82915(10) 0.16560(8) 0.40472(16)
C61_2 C 0.86789(11) 0.16684(8) 0.35579(16)
H27_2 H 0.8758 0.1891 0.3320
C62_2 C 0.79720(12) 0.19907(9) 0.41299(18)
C63_2 C 0.83183(11) 0.06627(9) 0.46469(18)
C64_2 C 0.81286(12) 0.06535(9) 0.53555(18)
H28_2 H 0.8067 0.0878 0.5597
C65_2 C 0.80301(13) 0.03340(9) 0.57093(18)
H29_2 H 0.7899 0.0340 0.6186
C66_2 C 0.83951(12) 0.03401(8) 0.43126(17)
H30_2 H 0.8509 0.0342 0.3826
C11_3 C 0.87040(16) -0.0000 0.8802(3)
C12_3 C 0.86856(18) -0.0000 0.8023(2)
O17_2 O 0.78268(8) 0.19082(6) 0.88587(13)
O18_2 O 0.83292(7) 0.22625(5) 0.94958(14)
C45_2 C 0.90467(11) 0.10376(9) 0.98373(18)
H19_2 H 0.9225 0.0829 0.9988
C46_2 C 0.87620(11) 0.10181(9) 0.92273(17)
C47_2 C 0.84841(12) 0.13266(9) 0.90149(18)
H20_2 H 0.8272 0.1311 0.8609
C48_2 C 0.85216(11) 0.16459(8) 0.93952(17)
C49_2 C 0.88293(11) 0.16598(9) 0.99965(18)
C50_2 C 0.81957(12) 0.19612(9) 0.92236(17)
C51_2 C 0.87136(12) 0.06656(8) 0.8794(2)
C52_2 C 0.87297(11) 0.03329(8) 0.91587(17)
H22_2 H 0.8760 0.0334 0.9673
C53_2 C 0.86446(14) 0.03434(9) 0.76715(19)
H23_2 H 0.8595 0.0352 0.7161
C54_2 C 0.86755(13) 0.06610(9) 0.80536(19)
H24_2 H 0.8671 0.0887 0.7798
Cu3_2 Cu 0.770523(13) 0.726691(9) 0.377001(19)
Cu4_2 Cu 0.709227(13) 0.768557(9) 0.45306(2)
O3_2 O 0.95022(8) 0.89275(5) 0.11581(12)
O4_2 O 0.95074(8) 0.83208(6) 0.11284(12)
O5_2 O 0.95055(8) 0.89484(5) 0.26612(11)
O6_2 O 0.94976(7) 0.83301(5) 0.26420(11)
O7_2 O 0.75943(8) 0.80576(6) 0.44934(15)
O8_2 O 0.81002(7) 0.77202(6) 0.38234(14)
O9_2 O 0.79577(8) 0.71080(6) 0.46997(12)
O10_2 O 0.74382(8) 0.74530(7) 0.53346(11)
O11_2 O 0.81215(8) 0.71655(6) 0.85393(11)
O12_2 O 0.76067(8) 0.75302(6) 0.79184(11)
O13_4 O 1.0000 0.95657(8) 0.1834(3)
O14_4 O 1.0000 0.76822(7) 0.2011(2)
O15_2 O 0.82272(10) 0.69451(8) 0.32189(17)
O16_2 O 0.65889(9) 0.80303(9) 0.50525(16)
C1_2 C 0.93911(11) 0.86327(9) 0.08875(17)
C2_2 C 0.90767(12) 0.86428(8) 0.02343(17)
H3_2 H 0.8869 0.8115 0.0248
C15_2 C 0.93475(11) 0.86361(8) 0.28568(17)
C16_2 C 0.89453(11) 0.86418(8) 0.34219(16)
C17_2 C 0.88246(10) 0.89654(8) 0.37811(18)
H7_2 H 0.9009 0.9180 0.3686
C18_2 C 0.84435(12) 0.89834(8) 0.42739(17)
C19_2 C 0.81855(12) 0.86676(9) 0.43926(19)
H8_2 H 0.7923 0.8673 0.4727
C20_2 C 0.82915(10) 0.83440(8) 0.40472(16)
C21_2 C 0.86789(11) 0.83316(8) 0.35579(16)
H9_2 H 0.8758 0.8109 0.3320
C22_2 C 0.79720(12) 0.80093(9) 0.41299(18)
C23_2 C 0.83183(11) 0.93373(9) 0.46469(18)
C24_2 C 0.81286(12) 0.93465(9) 0.53555(18)
H10_2 H 0.8067 0.9122 0.5597
C25_2 C 0.80301(13) 0.96660(9) 0.57093(18)
H11_2 H 0.7899 0.9660 0.6186
C26_4 C 0.81203(16) 1.0000 0.5375(3)
C27_4 C 0.83141(16) 1.0000 0.4651(2)
C28_2 C 0.83951(12) 0.96599(8) 0.43126(17)
H12_2 H 0.8509 0.9658 0.3826
C29_2 C 0.77836(13) 0.72256(9) 0.52723(18)
C30_2 C 0.80276(12) 0.71001(9) 0.59601(16)
C31_2 C 0.84104(12) 0.68596(9) 0.59258(16)
H13_2 H 0.8500 0.6757 0.5471
C32_2 C 0.86689(12) 0.67631(8) 0.65473(17)
C33_2 C 0.85101(11) 0.69076(9) 0.72163(17)
H14_2 H 0.8680 0.6843 0.7647
C34_2 C 0.81080(11) 0.71453(8) 0.72691(17)
C35_2 C 0.78680(12) 0.72383(7) 0.66345(19)
H15_2 H 0.7594 0.7396 0.6653
C36_2 C 0.79345(12) 0.72881(8) 0.79584(18)
C37_2 C 0.91193(12) 0.65504(9) 0.64944(18)
C38_2 C 0.95486(13) 0.66922(9) 0.66883(19)
H16_2 H 0.9550 0.6923 0.6924
C39_4 C 1.0000 0.65179(13) 0.6562(2)
C40_4 C 1.0000 0.61878(14) 0.6207(3)
C41_2 C 0.95456(16) 0.60404(11) 0.6014(2)
H17_2 H 0.9539 0.5809 0.5779
C42_2 C 0.91308(15) 0.62042(10) 0.6143(2)
H18_2 H 0.8836 0.6091 0.6000
O30_2 O 0.84111(9) 0.69697(9) 0.00525(16)
Cu11_2 Cu 0.729477(13) 0.773309(9) 0.877001(19)
Cu16_2 Cu 0.790773(13) 0.731443(9) 0.95306(2)
O31_2 O 0.71732(8) 0.69082(6) 0.38587(13)
O32_2 O 0.66708(7) 0.72625(5) 0.44958(14)
O40_2 O 0.75618(8) 0.75470(7) 0.03346(11)
O42_2 O 0.68785(8) 0.78345(6) 0.35393(11)
O44_2 O 0.73933(8) 0.74698(6) 0.29184(11)
H41_2 H 0.967001 0.966086 0.194085
O1_2 O 0.78268(8) 0.80918(6) 0.88587(13)
O2_2 O 0.83292(7) 0.77375(5) 0.94958(14)
C3_2 C 0.90467(11) 0.89624(9) 0.98373(18)
H1_2 H 0.9225 0.9171 0.9988
C4_2 C 0.87620(11) 0.89819(9) 0.92273(17)
C5_2 C 0.84841(12) 0.86734(9) 0.90149(18)
H2_2 H 0.8272 0.8689 0.8609
C6_2 C 0.85216(11) 0.83541(8) 0.93952(17)
C7_2 C 0.88293(11) 0.83402(9) 0.99965(18)
C8_2 C 0.81957(12) 0.80388(9) 0.92236(17)
C9_2 C 0.87136(12) 0.93344(8) 0.8794(2)
C10_2 C 0.87297(11) 0.96671(8) 0.91587(17)
H4_2 H 0.8760 0.9666 0.9673
C11_4 C 0.87040(16) 1.0000 0.8802(3)
C12_4 C 0.86856(18) 1.0000 0.8023(2)
C13_2 C 0.86446(14) 0.96566(9) 0.76715(19)
H5_2 H 0.8595 0.9648 0.7161
C14_2 C 0.86755(13) 0.93390(9) 0.80536(19)
H6_2 H 0.8671 0.9113 0.7798
O29_2 O 0.67728(10) 0.80549(8) 0.82189(17)
O37_2 O 0.74057(8) 0.69424(6) 0.94934(15)
O38_2 O 0.68998(7) 0.72798(6) 0.88234(14)
O39_2 O 0.70423(8) 0.78920(6) 0.96997(12)
H42_3 H 0.0235421 0.0329232 0.21851
H47_3 H 0.00965337 0.242799 0.153971
H48_3 H 0.0233937 0.239294 0.239322
O15_3 O 0.82272(10) 0.30549(8) 0.32189(17)
O16_3 O 0.65889(9) 0.19697(9) 0.50525(16)
O30_3 O 0.84111(9) 0.30303(9) 0.00525(16)
O31_3 O 0.71732(8) 0.30918(6) 0.38587(13)
O32_3 O 0.66708(7) 0.27375(5) 0.44958(14)
O40_3 O 0.75618(8) 0.24530(7) 0.03346(11)
O42_3 O 0.68785(8) 0.21655(6) 0.35393(11)
O44_3 O 0.73933(8) 0.25302(6) 0.29184(11)
H41_3 H 0.967001 0.0339136 0.194085
O29_3 O 0.67728(10) 0.19451(8) 0.82189(17)
O37_3 O 0.74057(8) 0.30576(6) 0.94934(15)
O38_3 O 0.68998(7) 0.27202(6) 0.88234(14)
O39_3 O 0.70423(8) 0.21080(6) 0.96997(12)
O15_4 O 0.17728(10) 0.69451(8) 0.32189(17)
O16_4 O 0.34111(9) 0.80303(9) 0.50525(16)
O30_4 O 0.15889(9) 0.69697(9) 0.00525(16)
O31_4 O 0.28268(8) 0.69082(6) 0.38587(13)
O32_4 O 0.33292(7) 0.72625(5) 0.44958(14)
O40_4 O 0.24382(8) 0.75470(7) 0.03346(11)
O42_4 O 0.31215(8) 0.78345(6) 0.35393(11)
O44_4 O 0.26067(8) 0.74698(6) 0.29184(11)
H41_4 H 0.0329986 0.966086 0.194085
O29_4 O 0.32272(10) 0.80549(8) 0.82189(17)
O37_4 O 0.25943(8) 0.69424(6) 0.94934(15)
O38_4 O 0.31002(7) 0.72798(6) 0.88234(14)
O39_4 O 0.29577(8) 0.78920(6) 0.96997(12)
H42_4 H 0.976458 0.967077 0.21851
H47_4 H 0.990347 0.757201 0.153971
H48_4 H 0.976606 0.760706 0.239322
C24_3 C 0.68714(12) 0.56535(9) 0.03555(18)
H10_3 H 0.6933 0.5878 0.0597
C25_3 C 0.69699(13) 0.53340(9) 0.07093(18)
H11_3 H 0.7101 0.5340 0.1186
C26_5 C 0.68797(16) 0.5000 0.0375(3)
C29_3 C 0.72164(13) 0.77744(9) 0.02723(18)
C30_3 C 0.69724(12) 0.78999(9) 0.09601(16)
C31_3 C 0.65896(12) 0.81404(9) 0.09258(16)
H13_3 H 0.6500 0.8243 0.0471
C32_3 C 0.63311(12) 0.82369(8) 0.15473(17)
C33_3 C 0.64899(11) 0.80924(9) 0.22163(17)
H14_3 H 0.6320 0.8157 0.2647
C34_3 C 0.68920(11) 0.78547(8) 0.22691(17)
C35_3 C 0.71320(12) 0.77617(7) 0.16345(19)
H15_3 H 0.7406 0.7604 0.1653
C36_3 C 0.70655(12) 0.77119(8) 0.29584(18)
C37_3 C 0.58807(12) 0.84496(9) 0.14944(18)
C38_3 C 0.54514(13) 0.83078(9) 0.16883(19)
H16_3 H 0.5450 0.8077 0.1924
C39_5 C 0.5000 0.84821(13) 0.1562(2)
C40_5 C 0.5000 0.88122(14) 0.1207(3)
C41_3 C 0.54544(16) 0.89596(11) 0.1014(2)
H17_3 H 0.5461 0.9191 0.0779
C42_3 C 0.58692(15) 0.87958(10) 0.1143(2)
H18_3 H 0.6164 0.8909 0.1000
C64_3 C 0.68714(12) 0.43465(9) 0.03555(18)
H28_3 H 0.6933 0.4122 0.0597
C65_3 C 0.69699(13) 0.46660(9) 0.07093(18)
H29_3 H 0.7101 0.4660 0.1186
C67_3 C 0.27836(13) 0.77744(9) 0.02723(18)
C68_3 C 0.30276(12) 0.78999(9) 0.09601(16)
C69_3 C 0.34104(12) 0.81404(9) 0.09258(16)
H31_3 H 0.3500 0.8243 0.0471
C70_3 C 0.36689(12) 0.82369(8) 0.15473(17)
C71_3 C 0.35101(11) 0.80924(9) 0.22163(17)
H32_3 H 0.3680 0.8157 0.2647
C72_3 C 0.31080(11) 0.78547(8) 0.22691(17)
C73_3 C 0.28680(12) 0.77617(7) 0.16345(19)
H33_3 H 0.2594 0.7604 0.1653
C74_3 C 0.29345(12) 0.77119(8) 0.29584(18)
C75_3 C 0.41193(12) 0.84496(9) 0.14944(18)
C76_3 C 0.45486(13) 0.83078(9) 0.16883(19)
H34_3 H 0.4550 0.8077 0.1924
C77_3 C 0.45456(16) 0.89596(11) 0.1014(2)
H35_3 H 0.4539 0.9191 0.0779
C78_3 C 0.41308(15) 0.87958(10) 0.1143(2)
H36_3 H 0.3836 0.8909 0.1000
Cu1_3 Cu 0.5000 0.600735(10) 0.69256(3)
Cu2_3 Cu 0.5000 0.673286(11) 0.69163(3)
O3_3 O 0.54978(8) 0.60725(5) 0.61581(12)
O4_3 O 0.54926(8) 0.66792(6) 0.61284(12)
O5_3 O 0.54945(8) 0.60516(5) 0.76612(11)
O6_3 O 0.55024(7) 0.66699(5) 0.76420(11)
O13_5 O 0.5000 0.54343(8) 0.6834(3)
O14_5 O 0.5000 0.73178(7) 0.7011(2)
C1_3 C 0.56089(11) 0.63673(9) 0.58875(17)
C2_3 C 0.59233(12) 0.63572(8) 0.52343(17)
C3_3 C 0.59533(11) 0.60376(9) 0.48373(18)
H1_3 H 0.5775 0.5829 0.4988
C4_3 C 0.62380(11) 0.60181(9) 0.42273(17)
C5_3 C 0.65159(12) 0.63266(9) 0.40149(18)
H2_3 H 0.6728 0.6311 0.3609
C6_3 C 0.64784(11) 0.66459(8) 0.43952(17)
C7_3 C 0.61707(11) 0.66598(9) 0.49965(18)
H3_3 H 0.6131 0.6885 0.5248
C8_3 C 0.68043(12) 0.69612(9) 0.42236(17)
C9_3 C 0.62864(12) 0.56656(8) 0.3794(2)
C10_3 C 0.62703(11) 0.53329(8) 0.41587(17)
H4_3 H 0.6240 0.5334 0.4673
C11_5 C 0.62960(16) 0.5000 0.3802(3)
C12_5 C 0.63144(18) 0.5000 0.3023(2)
C13_3 C 0.63554(14) 0.53434(9) 0.26715(19)
H5_3 H 0.6405 0.5352 0.2161
C14_3 C 0.63245(13) 0.56610(9) 0.30536(19)
H6_3 H 0.6329 0.5887 0.2798
C15_3 C 0.56525(11) 0.63639(8) 0.78568(17)
C16_3 C 0.60547(11) 0.63582(8) 0.84219(16)
C17_3 C 0.61754(10) 0.60346(8) 0.87811(18)
H7_3 H 0.5991 0.5820 0.8686
C18_3 C 0.65565(12) 0.60166(8) 0.92739(17)
C19_3 C 0.68145(12) 0.63324(9) 0.93926(19)
H8_3 H 0.7077 0.6327 0.9727
C20_3 C 0.67085(10) 0.66560(8) 0.90472(16)
C21_3 C 0.63211(11) 0.66684(8) 0.85579(16)
H9_3 H 0.6242 0.6891 0.8320
C22_3 C 0.70280(12) 0.69907(9) 0.91299(18)
C23_3 C 0.66817(11) 0.56627(9) 0.96469(18)
C27_5 C 0.66859(16) 0.5000 0.9651(2)
C28_3 C 0.66049(12) 0.53401(8) 0.93126(17)
H12_3 H 0.6491 0.5342 0.8826
O19_2 O 0.54978(8) 0.39275(5) 0.61581(12)
O20_2 O 0.54926(8) 0.33208(6) 0.61284(12)
C43_3 C 0.56089(11) 0.36327(9) 0.58875(17)
C44_3 C 0.59233(12) 0.36428(8) 0.52343(17)
C45_3 C 0.59533(11) 0.39624(9) 0.48373(18)
H19_3 H 0.5775 0.4171 0.4988
C46_3 C 0.62380(11) 0.39819(9) 0.42273(17)
C47_3 C 0.65159(12) 0.36734(9) 0.40149(18)
H20_3 H 0.6728 0.3689 0.3609
C48_3 C 0.64784(11) 0.33541(8) 0.43952(17)
C49_3 C 0.61707(11) 0.33402(9) 0.49965(18)
H21_3 H 0.6131 0.3115 0.5248
C50_3 C 0.68043(12) 0.30388(9) 0.42236(17)
C51_3 C 0.62864(12) 0.43344(8) 0.3794(2)
C52_3 C 0.62703(11) 0.46671(8) 0.41587(17)
H22_3 H 0.6240 0.4666 0.4673
C53_3 C 0.63554(14) 0.46566(9) 0.26715(19)
H23_3 H 0.6405 0.4648 0.2161
C54_3 C 0.63245(13) 0.43390(9) 0.30536(19)
H24_3 H 0.6329 0.4113 0.2798
O21_2 O 0.54945(8) 0.39484(5) 0.76612(11)
O22_2 O 0.55024(7) 0.33301(5) 0.76420(11)
C55_3 C 0.56525(11) 0.36361(8) 0.78568(17)
C56_3 C 0.60547(11) 0.36418(8) 0.84219(16)
C57_3 C 0.61754(10) 0.39654(8) 0.87811(18)
H25_3 H 0.5991 0.4180 0.8686
C58_3 C 0.65565(12) 0.39834(8) 0.92739(17)
C59_3 C 0.68145(12) 0.36676(9) 0.93926(19)
H26_3 H 0.7077 0.3673 0.9727
C60_3 C 0.67085(10) 0.33440(8) 0.90472(16)
C61_3 C 0.63211(11) 0.33316(8) 0.85579(16)
H27_3 H 0.6242 0.3109 0.8320
C62_3 C 0.70280(12) 0.30093(9) 0.91299(18)
C63_3 C 0.66817(11) 0.43373(9) 0.96469(18)
C66_3 C 0.66049(12) 0.46599(8) 0.93126(17)
H30_3 H 0.6491 0.4658 0.8826
Cu7_3 Cu 0.5000 0.399265(10) 0.69256(3)
Cu8_3 Cu 0.5000 0.326714(11) 0.69163(3)
O33_2 O 0.45022(8) 0.60725(5) 0.61581(12)
O34_2 O 0.45074(8) 0.66792(6) 0.61284(12)
O35_2 O 0.45055(8) 0.60516(5) 0.76612(11)
O36_2 O 0.44976(7) 0.66699(5) 0.76420(11)
H43 H 0.847682 0.675343 0.97414
C24_4 C 0.31286(12) 0.43465(9) 0.03555(18)
H10_4 H 0.3067 0.4122 0.0597
C25_4 C 0.30301(13) 0.46660(9) 0.07093(18)
H11_4 H 0.2899 0.4660 0.1186
C26_6 C 0.31203(16) 0.5000 0.0375(3)
C29_4 C 0.27836(13) 0.22256(9) 0.02723(18)
C30_4 C 0.30276(12) 0.21001(9) 0.09601(16)
C31_4 C 0.34104(12) 0.18596(9) 0.09258(16)
H13_4 H 0.3500 0.1757 0.0471
C32_4 C 0.36689(12) 0.17631(8) 0.15473(17)
C33_4 C 0.35101(11) 0.19076(9) 0.22163(17)
H14_4 H 0.3680 0.1843 0.2647
C34_4 C 0.31080(11) 0.21453(8) 0.22691(17)
C35_4 C 0.28680(12) 0.22383(7) 0.16345(19)
H15_4 H 0.2594 0.2396 0.1653
C36_4 C 0.29345(12) 0.22881(8) 0.29584(18)
C37_4 C 0.41193(12) 0.15504(9) 0.14944(18)
C38_4 C 0.45486(13) 0.16922(9) 0.16883(19)
H16_4 H 0.4550 0.1923 0.1924
C39_6 C 0.5000 0.15179(13) 0.1562(2)
C40_6 C 0.5000 0.11878(14) 0.1207(3)
C41_4 C 0.45456(16) 0.10404(11) 0.1014(2)
H17_4 H 0.4539 0.0809 0.0779
C42_4 C 0.41308(15) 0.12042(10) 0.1143(2)
H18_4 H 0.3836 0.1091 0.1000
C64_4 C 0.31286(12) 0.56535(9) 0.03555(18)
H28_4 H 0.3067 0.5878 0.0597
C65_4 C 0.30301(13) 0.53340(9) 0.07093(18)
H29_4 H 0.2899 0.5340 0.1186
C67_4 C 0.72164(13) 0.22256(9) 0.02723(18)
C68_4 C 0.69724(12) 0.21001(9) 0.09601(16)
C69_4 C 0.65896(12) 0.18596(9) 0.09258(16)
H31_4 H 0.6500 0.1757 0.0471
C70_4 C 0.63311(12) 0.17631(8) 0.15473(17)
C71_4 C 0.64899(11) 0.19076(9) 0.22163(17)
H32_4 H 0.6320 0.1843 0.2647
C72_4 C 0.68920(11) 0.21453(8) 0.22691(17)
C73_4 C 0.71320(12) 0.22383(7) 0.16345(19)
H33_4 H 0.7406 0.2396 0.1653
C74_4 C 0.70655(12) 0.22881(8) 0.29584(18)
C75_4 C 0.58807(12) 0.15504(9) 0.14944(18)
C76_4 C 0.54514(13) 0.16922(9) 0.16883(19)
H34_4 H 0.5450 0.1923 0.1924
C77_4 C 0.54544(16) 0.10404(11) 0.1014(2)
H35_4 H 0.5461 0.0809 0.0779
C78_4 C 0.58692(15) 0.12042(10) 0.1143(2)
H36_4 H 0.6164 0.1091 0.1000
O3_4 O 0.45022(8) 0.39275(5) 0.61581(12)
O4_4 O 0.45074(8) 0.33208(6) 0.61284(12)
O5_4 O 0.45055(8) 0.39484(5) 0.76612(11)
O6_4 O 0.44976(7) 0.33301(5) 0.76420(11)
O13_6 O 0.5000 0.45657(8) 0.6834(3)
O14_6 O 0.5000 0.26822(7) 0.7011(2)
C1_4 C 0.43911(11) 0.36327(9) 0.58875(17)
C2_4 C 0.40767(12) 0.36428(8) 0.52343(17)
C3_4 C 0.40467(11) 0.39624(9) 0.48373(18)
H1_4 H 0.4225 0.4171 0.4988
C4_4 C 0.37620(11) 0.39819(9) 0.42273(17)
C5_4 C 0.34841(12) 0.36734(9) 0.40149(18)
H2_4 H 0.3272 0.3689 0.3609
C6_4 C 0.35216(11) 0.33541(8) 0.43952(17)
C7_4 C 0.38293(11) 0.33402(9) 0.49965(18)
H3_4 H 0.3869 0.3115 0.5248
C8_4 C 0.31957(12) 0.30388(9) 0.42236(17)
C9_4 C 0.37136(12) 0.43344(8) 0.3794(2)
C10_4 C 0.37297(11) 0.46671(8) 0.41587(17)
H4_4 H 0.3760 0.4666 0.4673
C11_6 C 0.37040(16) 0.5000 0.3802(3)
C12_6 C 0.36856(18) 0.5000 0.3023(2)
C13_4 C 0.36446(14) 0.46566(9) 0.26715(19)
H5_4 H 0.3595 0.4648 0.2161
C14_4 C 0.36755(13) 0.43390(9) 0.30536(19)
H6_4 H 0.3671 0.4113 0.2798
C15_4 C 0.43475(11) 0.36361(8) 0.78568(17)
C16_4 C 0.39453(11) 0.36418(8) 0.84219(16)
C17_4 C 0.38246(10) 0.39654(8) 0.87811(18)
H7_4 H 0.4009 0.4180 0.8686
C18_4 C 0.34435(12) 0.39834(8) 0.92739(17)
C19_4 C 0.31855(12) 0.36676(9) 0.93926(19)
H8_4 H 0.2923 0.3673 0.9727
C20_4 C 0.32915(10) 0.33440(8) 0.90472(16)
C21_4 C 0.36789(11) 0.33316(8) 0.85579(16)
H9_4 H 0.3758 0.3109 0.8320
C22_4 C 0.29720(12) 0.30093(9) 0.91299(18)
C23_4 C 0.33183(11) 0.43373(9) 0.96469(18)
C27_6 C 0.33141(16) 0.5000 0.9651(2)
C28_4 C 0.33951(12) 0.46599(8) 0.93126(17)
H12_4 H 0.3509 0.4658 0.8826
C43_4 C 0.43911(11) 0.63673(9) 0.58875(17)
C44_4 C 0.40767(12) 0.63572(8) 0.52343(17)
C45_4 C 0.40467(11) 0.60376(9) 0.48373(18)
H19_4 H 0.4225 0.5829 0.4988
C46_4 C 0.37620(11) 0.60181(9) 0.42273(17)
C47_4 C 0.34841(12) 0.63266(9) 0.40149(18)
H20_4 H 0.3272 0.6311 0.3609
C48_4 C 0.35216(11) 0.66459(8) 0.43952(17)
C49_4 C 0.38293(11) 0.66598(9) 0.49965(18)
H21_4 H 0.3869 0.6885 0.5248
C50_4 C 0.31957(12) 0.69612(9) 0.42236(17)
C51_4 C 0.37136(12) 0.56656(8) 0.3794(2)
C52_4 C 0.37297(11) 0.53329(8) 0.41587(17)
H22_4 H 0.3760 0.5334 0.4673
C53_4 C 0.36446(14) 0.53434(9) 0.26715(19)
H23_4 H 0.3595 0.5352 0.2161
C54_4 C 0.36755(13) 0.56610(9) 0.30536(19)
H24_4 H 0.3671 0.5887 0.2798
C55_4 C 0.43475(11) 0.63639(8) 0.78568(17)
C56_4 C 0.39453(11) 0.63582(8) 0.84219(16)
C57_4 C 0.38246(10) 0.60346(8) 0.87811(18)
H25_4 H 0.4009 0.5820 0.8686
C58_4 C 0.34435(12) 0.60166(8) 0.92739(17)
C59_4 C 0.31855(12) 0.63324(9) 0.93926(19)
H26_4 H 0.2923 0.6327 0.9727
C60_4 C 0.32915(10) 0.66560(8) 0.90472(16)
C61_4 C 0.36789(11) 0.66684(8) 0.85579(16)
H27_4 H 0.3758 0.6891 0.8320
C62_4 C 0.29720(12) 0.69907(9) 0.91299(18)
C63_4 C 0.33183(11) 0.56627(9) 0.96469(18)
C66_4 C 0.33951(12) 0.53401(8) 0.93126(17)
H30_4 H 0.3509 0.5342 0.8826
H43_2 H 0.152318 0.324657 0.97414
H43_3 H 0.152318 0.675343 0.97414
H43_4 H 0.847682 0.324657 0.97414
loop_
_geom_bond_atom_site_label_1
_geom_bond_atom_site_label_2
_geom_bond_site_symmetry_1
_geom_bond_site_symmetry_2
Cu1 O3 1_555 1_555
Cu2 O4 1_555 1_555
Cu3 O8 1_555 1_555
Cu4 O7 1_555 1_555
O3 C1 1_555 1_555
O4 C1 1_555 1_555
O5 Cu1 1_555 1_555
O6 Cu2 1_555 1_555
O7 C22 1_555 1_555
O8 C22 1_555 1_555
O9 Cu3 1_555 1_555
O10 Cu4 1_555 1_555
O11 C36 1_555 1_555
O12 C36 1_555 1_555
O13 Cu1 1_555 1_555
O14 Cu2 1_555 1_555
O15 Cu3 1_555 1_555
O16 Cu4 1_555 1_555
C1 C2 1_555 1_555
C15 O5 1_555 1_555
C16 C15 1_555 1_555
C17 C16 1_555 1_555
H7 C17 1_555 1_555
C18 C17 1_555 1_555
C19 C18 1_555 1_555
H8 C19 1_555 1_555
C20 C19 1_555 1_555
C21 C16 1_555 1_555
H9 C21 1_555 1_555
C22 C20 1_555 1_555
C23 C18 1_555 1_555
C24 C23 1_555 1_555
H10 C24 1_555 1_555
C25 C24 1_555 1_555
H11 C25 1_555 1_555
C26 C25 1_555 1_555
C27 C26 1_555 1_555
C28 C23 1_555 1_555
H12 C28 1_555 1_555
C29 O9 1_555 1_555
C30 C29 1_555 1_555
C31 C30 1_555 1_555
H13 C31 1_555 1_555
C32 C31 1_555 1_555
C33 C32 1_555 1_555
H14 C33 1_555 1_555
C34 C33 1_555 1_555
C35 C30 1_555 1_555
H15 C35 1_555 1_555
C36 C34 1_555 1_555
C37 C32 1_555 1_555
C38 C37 1_555 1_555
H16 C38 1_555 1_555
C39 C38 1_555 1_555
C40 C39 1_555 1_555
C41 C40 1_555 1_555
H17 C41 1_555 1_555
C42 C37 1_555 1_555
H18 C42 1_555 1_555
Cu11 O12 1_555 1_555
Cu16 O11 1_555 1_555
O31 Cu3 1_555 1_555
O32 Cu4 1_555 1_555
O42 Cu4 1_555 1_555
O44 Cu3 1_555 1_555
O6 C15 1_555 1_555
O10 C29 1_555 1_555
C20 C21 1_555 1_555
C27 C28 1_555 1_555
C34 C35 1_555 1_555
C41 C42 1_555 1_555
O13 H41 1_555 1_555
O1 C8 1_555 1_555
O2 C8 1_555 1_555
C3 H1 1_555 1_555
C4 C3 1_555 1_555
C5 C4 1_555 1_555
H2 C5 1_555 1_555
C6 C5 1_555 1_555
C8 C6 1_555 1_555
C9 C4 1_555 1_555
C10 C9 1_555 1_555
H4 C10 1_555 1_555
C11 C10 1_555 1_555
C12 C11 1_555 1_555
C13 C12 1_555 1_555
H5 C13 1_555 1_555
C14 C9 1_555 1_555
H6 C14 1_555 1_555
Cu11 O1 1_555 1_555
O29 Cu11 1_555 1_555
Cu16 O2 1_555 1_555
O37 Cu16 1_555 1_555
O38 Cu11 1_555 1_555
O39 Cu11 1_555 1_555
C6 C7 1_555 1_555
C13 C14 1_555 1_555
C27_2 C26_2 1_555 1_555
O19 C43 1_555 1_555
O20 C43 1_555 1_555
C43 C44 1_555 1_555
O21 C55 1_555 1_555
O22 C55 1_555 1_555
O23 C62 1_555 1_555
O24 C62 1_555 1_555
C55 C56 1_555 1_555
C56 C57 1_555 1_555
C57 H25 1_555 1_555
C58 C57 1_555 1_555
C59 C58 1_555 1_555
H26 C59 1_555 1_555
C60 C59 1_555 1_555
C61 C56 1_555 1_555
H27 C61 1_555 1_555
C62 C60 1_555 1_555
C63 C58 1_555 1_555
C64 C63 1_555 1_555
H28 C64 1_555 1_555
C65 C26_2 1_555 1_555
H29 C65 1_555 1_555
C66 C27_2 1_555 1_555
H30 C66 1_555 1_555
Cu7 O19 1_555 1_555
Cu8 O20 1_555 1_555
Cu10 O24 1_555 1_555
Cu15 O23 1_555 1_555
O21 Cu7 1_555 1_555
O22 Cu8 1_555 1_555
C60 C61 1_555 1_555
C63 C66 1_555 1_555
C64 C65 1_555 1_555
C12_2 C11_2 1_555 1_555
O17 C50 1_555 1_555
O18 C50 1_555 1_555
C45 H19 1_555 1_555
C46 C45 1_555 1_555
C47 C46 1_555 1_555
H20 C47 1_555 1_555
C48 C47 1_555 1_555
C50 C48 1_555 1_555
C51 C46 1_555 1_555
C52 C11_2 1_555 1_555
H22 C52 1_555 1_555
C53 C12_2 1_555 1_555
H23 C53 1_555 1_555
C54 C51 1_555 1_555
H24 C54 1_555 1_555
Cu12 O17 1_555 1_555
Cu17 O18 1_555 1_555
C48 C49 1_555 1_555
C51 C52 1_555 1_555
C53 C54 1_555 1_555
O13_2 Cu1_2 1_555 1_555
O14_2 Cu2_2 1_555 1_555
C40_2 C39_2 1_555 1_555
O25 C67 1_555 1_555
O26 C67 1_555 1_555
O27 C74 1_555 1_555
O28 C74 1_555 1_555
C67 C68 1_555 1_555
C68 C69 1_555 1_555
C69 H31 1_555 1_555
C70 C69 1_555 1_555
C71 C70 1_555 1_555
H32 C71 1_555 1_555
C72 C71 1_555 1_555
C73 C68 1_555 1_555
H33 C73 1_555 1_555
C74 C72 1_555 1_555
C75 C70 1_555 1_555
C76 C39_2 1_555 1_555
H34 C76 1_555 1_555
C77 C40_2 1_555 1_555
H35 C77 1_555 1_555
C78 C75 1_555 1_555
H36 C78 1_555 1_555
Cu9 O25 1_555 1_555
Cu13 O28 1_555 1_555
Cu14 O26 1_555 1_555
Cu18 O27 1_555 1_555
O33 Cu1_2 1_555 1_555
O34 Cu2_2 1_555 1_555
O35 Cu1_2 1_555 1_555
O36 Cu2_2 1_555 1_555
C72 C73 1_555 1_555
C75 C76 1_555 1_555
C77 C78 1_555 1_555
O13_2 H42 1_555 1_555
O14_2 H47 1_555 1_555
O14_2 H48 1_555 1_555
O13_3 Cu7 1_555 1_555
O14_3 Cu8 1_555 1_555
C40_3 C39_3 1_555 1_555
O25_2 C67_2 1_555 1_555
O26_2 C67_2 1_555 1_555
O27_2 C74_2 1_555 1_555
O28_2 C74_2 1_555 1_555
C67_2 C68_2 1_555 1_555
C68_2 C69_2 1_555 1_555
C69_2 H31_2 1_555 1_555
C70_2 C69_2 1_555 1_555
C71_2 C70_2 1_555 1_555
H32_2 C71_2 1_555 1_555
C72_2 C71_2 1_555 1_555
C73_2 C68_2 1_555 1_555
H33_2 C73_2 1_555 1_555
C74_2 C72_2 1_555 1_555
C75_2 C70_2 1_555 1_555
C76_2 C39_3 1_555 1_555
H34_2 C76_2 1_555 1_555
C77_2 C40_3 1_555 1_555
H35_2 C77_2 1_555 1_555
C78_2 C75_2 1_555 1_555
H36_2 C78_2 1_555 1_555
Cu10 O25_2 1_555 1_555
Cu12 O28_2 1_555 1_555
Cu15 O26_2 1_555 1_555
Cu17 O27_2 1_555 1_555
C72_2 C73_2 1_555 1_555
C75_2 C76_2 1_555 1_555
C77_2 C78_2 1_555 1_555
O13_3 H42_2 1_555 1_555
O14_3 H47_2 1_555 1_555
O14_3 H48_2 1_555 1_555
C27_3 C26_3 1_555 1_555
O33 C43_2 1_555 1_555
O34 C43_2 1_555 1_555
C43_2 C44_2 1_555 1_555
O35 C55_2 1_555 1_555
O36 C55_2 1_555 1_555
O23_2 C62_2 1_555 1_555
O24_2 C62_2 1_555 1_555
C55_2 C56_2 1_555 1_555
C56_2 C57_2 1_555 1_555
C57_2 H25_2 1_555 1_555
C58_2 C57_2 1_555 1_555
C59_2 C58_2 1_555 1_555
H26_2 C59_2 1_555 1_555
C60_2 C59_2 1_555 1_555
C61_2 C56_2 1_555 1_555
H27_2 C61_2 1_555 1_555
C62_2 C60_2 1_555 1_555
C63_2 C58_2 1_555 1_555
C64_2 C63_2 1_555 1_555
H28_2 C64_2 1_555 1_555
C65_2 C26_3 1_555 1_555
H29_2 C65_2 1_555 1_555
C66_2 C27_3 1_555 1_555
H30_2 C66_2 1_555 1_555
Cu9 O24_2 1_555 1_555
Cu14 O23_2 1_555 1_555
C60_2 C61_2 1_555 1_555
C63_2 C66_2 1_555 1_555
C64_2 C65_2 1_555 1_555
C12_3 C11_3 1_555 1_555
O17_2 C50_2 1_555 1_555
O18_2 C50_2 1_555 1_555
C45_2 H19_2 1_555 1_555
C46_2 C45_2 1_555 1_555
C47_2 C46_2 1_555 1_555
H20_2 C47_2 1_555 1_555
C48_2 C47_2 1_555 1_555
C50_2 C48_2 1_555 1_555
C51_2 C46_2 1_555 1_555
C52_2 C11_3 1_555 1_555
H22_2 C52_2 1_555 1_555
C53_2 C12_3 1_555 1_555
H23_2 C53_2 1_555 1_555
C54_2 C51_2 1_555 1_555
H24_2 C54_2 1_555 1_555
Cu13 O17_2 1_555 1_555
Cu18 O18_2 1_555 1_555
C48_2 C49_2 1_555 1_555
C51_2 C52_2 1_555 1_555
C53_2 C54_2 1_555 1_555
Cu7_2 O3_2 1_555 1_555
Cu8_2 O4_2 1_555 1_555
Cu3_2 O8_2 1_555 1_555
Cu4_2 O7_2 1_555 1_555
O3_2 C1_2 1_555 1_555
O4_2 C1_2 1_555 1_555
O5_2 Cu7_2 1_555 1_555
O6_2 Cu8_2 1_555 1_555
O7_2 C22_2 1_555 1_555
O8_2 C22_2 1_555 1_555
O9_2 Cu3_2 1_555 1_555
O10_2 Cu4_2 1_555 1_555
O11_2 C36_2 1_555 1_555
O12_2 C36_2 1_555 1_555
O13_4 Cu7_2 1_555 1_555
O14_4 Cu8_2 1_555 1_555
O15_2 Cu3_2 1_555 1_555
O16_2 Cu4_2 1_555 1_555
C1_2 C2_2 1_555 1_555
C15_2 O5_2 1_555 1_555
C16_2 C15_2 1_555 1_555
C17_2 C16_2 1_555 1_555
H7_2 C17_2 1_555 1_555
C18_2 C17_2 1_555 1_555
C19_2 C18_2 1_555 1_555
H8_2 C19_2 1_555 1_555
C20_2 C19_2 1_555 1_555
C21_2 C16_2 1_555 1_555
H9_2 C21_2 1_555 1_555
C22_2 C20_2 1_555 1_555
C23_2 C18_2 1_555 1_555
C24_2 C23_2 1_555 1_555
H10_2 C24_2 1_555 1_555
C25_2 C24_2 1_555 1_555
H11_2 C25_2 1_555 1_555
C26_4 C25_2 1_555 1_555
C27_4 C26_4 1_555 1_555
C28_2 C23_2 1_555 1_555
H12_2 C28_2 1_555 1_555
C29_2 O9_2 1_555 1_555
C30_2 C29_2 1_555 1_555
C31_2 C30_2 1_555 1_555
H13_2 C31_2 1_555 1_555
C32_2 C31_2 1_555 1_555
C33_2 C32_2 1_555 1_555
H14_2 C33_2 1_555 1_555
C34_2 C33_2 1_555 1_555
C35_2 C30_2 1_555 1_555
H15_2 C35_2 1_555 1_555
C36_2 C34_2 1_555 1_555
C37_2 C32_2 1_555 1_555
C38_2 C37_2 1_555 1_555
H16_2 C38_2 1_555 1_555
C39_4 C38_2 1_555 1_555
C40_4 C39_4 1_555 1_555
C41_2 C40_4 1_555 1_555
H17_2 C41_2 1_555 1_555
C42_2 C37_2 1_555 1_555
H18_2 C42_2 1_555 1_555
Cu11_2 O12_2 1_555 1_555
Cu16_2 O11_2 1_555 1_555
O31_2 Cu3_2 1_555 1_555
O32_2 Cu4_2 1_555 1_555
O42_2 Cu4_2 1_555 1_555
O44_2 Cu3_2 1_555 1_555
O6_2 C15_2 1_555 1_555
O10_2 C29_2 1_555 1_555
C20_2 C21_2 1_555 1_555
C27_4 C28_2 1_555 1_555
C34_2 C35_2 1_555 1_555
C41_2 C42_2 1_555 1_555
O13_4 H41_2 1_555 1_555
O1_2 C8_2 1_555 1_555
O2_2 C8_2 1_555 1_555
C3_2 H1_2 1_555 1_555
C4_2 C3_2 1_555 1_555
C5_2 C4_2 1_555 1_555
H2_2 C5_2 1_555 1_555
C6_2 C5_2 1_555 1_555
C8_2 C6_2 1_555 1_555
C9_2 C4_2 1_555 1_555
C10_2 C9_2 1_555 1_555
H4_2 C10_2 1_555 1_555
C11_4 C10_2 1_555 1_555
C12_4 C11_4 1_555 1_555
C13_2 C12_4 1_555 1_555
H5_2 C13_2 1_555 1_555
C14_2 C9_2 1_555 1_555
H6_2 C14_2 1_555 1_555
Cu11_2 O1_2 1_555 1_555
O29_2 Cu11_2 1_555 1_555
Cu16_2 O2_2 1_555 1_555
O37_2 Cu16_2 1_555 1_555
O38_2 Cu11_2 1_555 1_555
O39_2 Cu11_2 1_555 1_555
C6_2 C7_2 1_555 1_555
C13_2 C14_2 1_555 1_555
O13 H42_3 1_555 1_555
O14 H47_3 1_555 1_555
O14 H48_3 1_555 1_555
O15_3 Cu9 1_555 1_555
O16_3 Cu14 1_555 1_555
O31_3 Cu9 1_555 1_555
O32_3 Cu14 1_555 1_555
O42_3 Cu14 1_555 1_555
O44_3 Cu9 1_555 1_555
O13_2 H41_3 1_555 1_555
O29_3 Cu13 1_555 1_555
O37_3 Cu18 1_555 1_555
O38_3 Cu13 1_555 1_555
O39_3 Cu13 1_555 1_555
O15_4 Cu10 1_555 1_555
O16_4 Cu15 1_555 1_555
O31_4 Cu10 1_555 1_555
O32_4 Cu15 1_555 1_555
O42_4 Cu15 1_555 1_555
O44_4 Cu10 1_555 1_555
O13_3 H41_4 1_555 1_555
O29_4 Cu12 1_555 1_555
O37_4 Cu17 1_555 1_555
O38_4 Cu12 1_555 1_555
O39_4 Cu12 1_555 1_555
O13_4 H42_4 1_555 1_555
O14_4 H47_4 1_555 1_555
O14_4 H48_4 1_555 1_555
O42_2 C36_3 1_555 1_555
O44_2 C36_3 1_555 1_555
H10_3 C24_3 1_555 1_555
C25_3 C24_3 1_555 1_555
H11_3 C25_3 1_555 1_555
C26_5 C25_3 1_555 1_555
C30_3 C29_3 1_555 1_555
C31_3 C30_3 1_555 1_555
H13_3 C31_3 1_555 1_555
C32_3 C31_3 1_555 1_555
C33_3 C32_3 1_555 1_555
H14_3 C33_3 1_555 1_555
C34_3 C33_3 1_555 1_555
C35_3 C30_3 1_555 1_555
H15_3 C35_3 1_555 1_555
C36_3 C34_3 1_555 1_555
C37_3 C32_3 1_555 1_555
C38_3 C37_3 1_555 1_555
H16_3 C38_3 1_555 1_555
C39_5 C38_3 1_555 1_555
C40_5 C39_5 1_555 1_555
C41_3 C40_5 1_555 1_555
H17_3 C41_3 1_555 1_555
C42_3 C37_3 1_555 1_555
H18_3 C42_3 1_555 1_555
H28_3 C64_3 1_555 1_555
C65_3 C26_5 1_555 1_555
H29_3 C65_3 1_555 1_555
O40_4 C67_3 1_555 1_555
O42_4 C74_3 1_555 1_555
O44_4 C74_3 1_555 1_555
C67_3 C68_3 1_555 1_555
C68_3 C69_3 1_555 1_555
C69_3 H31_3 1_555 1_555
C70_3 C69_3 1_555 1_555
C71_3 C70_3 1_555 1_555
H32_3 C71_3 1_555 1_555
C72_3 C71_3 1_555 1_555
C73_3 C68_3 1_555 1_555
H33_3 C73_3 1_555 1_555
C74_3 C72_3 1_555 1_555
C75_3 C70_3 1_555 1_555
C76_3 C39_5 1_555 1_555
H34_3 C76_3 1_555 1_555
C77_3 C40_5 1_555 1_555
H35_3 C77_3 1_555 1_555
C78_3 C75_3 1_555 1_555
H36_3 C78_3 1_555 1_555
O40_2 C29_3 1_555 1_555
C34_3 C35_3 1_555 1_555
C41_3 C42_3 1_555 1_555
C64_3 C65_3 1_555 1_555
C72_3 C73_3 1_555 1_555
C75_3 C76_3 1_555 1_555
C77_3 C78_3 1_555 1_555
Cu1_3 O3_3 1_555 1_555
Cu2_3 O4_3 1_555 1_555
O31_2 C8_3 1_555 1_555
O32_2 C8_3 1_555 1_555
O3_3 C1_3 1_555 1_555
O4_3 C1_3 1_555 1_555
O5_3 Cu1_3 1_555 1_555
O6_3 Cu2_3 1_555 1_555
O37_2 C22_3 1_555 1_555
O38_2 C22_3 1_555 1_555
O13_5 Cu1_3 1_555 1_555
O14_5 Cu2_3 1_555 1_555
C1_3 C2_3 1_555 1_555
C2_3 C3_3 1_555 1_555
C3_3 H1_3 1_555 1_555
C4_3 C3_3 1_555 1_555
C5_3 C4_3 1_555 1_555
H2_3 C5_3 1_555 1_555
C6_3 C5_3 1_555 1_555
C7_3 C2_3 1_555 1_555
H3_3 C7_3 1_555 1_555
C8_3 C6_3 1_555 1_555
C9_3 C4_3 1_555 1_555
C10_3 C9_3 1_555 1_555
H4_3 C10_3 1_555 1_555
C11_5 C10_3 1_555 1_555
C12_5 C11_5 1_555 1_555
C13_3 C12_5 1_555 1_555
H5_3 C13_3 1_555 1_555
C14_3 C9_3 1_555 1_555
H6_3 C14_3 1_555 1_555
C15_3 O5_3 1_555 1_555
C16_3 C15_3 1_555 1_555
C17_3 C16_3 1_555 1_555
H7_3 C17_3 1_555 1_555
C18_3 C17_3 1_555 1_555
C19_3 C18_3 1_555 1_555
H8_3 C19_3 1_555 1_555
C20_3 C19_3 1_555 1_555
C21_3 C16_3 1_555 1_555
H9_3 C21_3 1_555 1_555
C22_3 C20_3 1_555 1_555
C23_3 C18_3 1_555 1_555
C28_3 C23_3 1_555 1_555
H12_3 C28_3 1_555 1_555
O31_3 C50_3 1_555 1_555
O32_3 C50_3 1_555 1_555
O19_2 C43_3 1_555 1_555
O20_2 C43_3 1_555 1_555
C43_3 C44_3 1_555 1_555
C44_3 C45_3 1_555 1_555
C45_3 H19_3 1_555 1_555
C46_3 C45_3 1_555 1_555
C47_3 C46_3 1_555 1_555
H20_3 C47_3 1_555 1_555
C48_3 C47_3 1_555 1_555
C49_3 C44_3 1_555 1_555
H21_3 C49_3 1_555 1_555
C50_3 C48_3 1_555 1_555
C51_3 C46_3 1_555 1_555
C52_3 C11_5 1_555 1_555
H22_3 C52_3 1_555 1_555
C53_3 C12_5 1_555 1_555
H23_3 C53_3 1_555 1_555
C54_3 C51_3 1_555 1_555
H24_3 C54_3 1_555 1_555
O21_2 C55_3 1_555 1_555
O22_2 C55_3 1_555 1_555
O37_3 C62_3 1_555 1_555
O38_3 C62_3 1_555 1_555
C55_3 C56_3 1_555 1_555
C56_3 C57_3 1_555 1_555
C57_3 H25_3 1_555 1_555
C58_3 C57_3 1_555 1_555
C59_3 C58_3 1_555 1_555
H26_3 C59_3 1_555 1_555
C60_3 C59_3 1_555 1_555
C61_3 C56_3 1_555 1_555
H27_3 C61_3 1_555 1_555
C62_3 C60_3 1_555 1_555
C63_3 C58_3 1_555 1_555
C66_3 C27_5 1_555 1_555
H30_3 C66_3 1_555 1_555
Cu7_3 O19_2 1_555 1_555
Cu8_3 O20_2 1_555 1_555
O33_2 Cu1_3 1_555 1_555
O34_2 Cu2_3 1_555 1_555
O35_2 Cu1_3 1_555 1_555
O36_2 Cu2_3 1_555 1_555
O6_3 C15_3 1_555 1_555
C6_3 C7_3 1_555 1_555
C13_3 C14_3 1_555 1_555
C20_3 C21_3 1_555 1_555
C27_5 C28_3 1_555 1_555
C48_3 C49_3 1_555 1_555
C51_3 C52_3 1_555 1_555
C53_3 C54_3 1_555 1_555
O21_2 Cu7_3 1_555 1_555
O22_2 Cu8_3 1_555 1_555
C60_3 C61_3 1_555 1_555
C63_3 C66_3 1_555 1_555
O42 C36_4 1_555 1_555
O44 C36_4 1_555 1_555
H10_4 C24_4 1_555 1_555
C25_4 C24_4 1_555 1_555
H11_4 C25_4 1_555 1_555
C26_6 C25_4 1_555 1_555
C30_4 C29_4 1_555 1_555
C31_4 C30_4 1_555 1_555
H13_4 C31_4 1_555 1_555
C32_4 C31_4 1_555 1_555
C33_4 C32_4 1_555 1_555
H14_4 C33_4 1_555 1_555
C34_4 C33_4 1_555 1_555
C35_4 C30_4 1_555 1_555
H15_4 C35_4 1_555 1_555
C36_4 C34_4 1_555 1_555
C37_4 C32_4 1_555 1_555
C38_4 C37_4 1_555 1_555
H16_4 C38_4 1_555 1_555
C39_6 C38_4 1_555 1_555
C40_6 C39_6 1_555 1_555
C41_4 C40_6 1_555 1_555
H17_4 C41_4 1_555 1_555
C42_4 C37_4 1_555 1_555
H18_4 C42_4 1_555 1_555
H28_4 C64_4 1_555 1_555
C65_4 C26_6 1_555 1_555
H29_4 C65_4 1_555 1_555
O40_3 C67_4 1_555 1_555
O42_3 C74_4 1_555 1_555
O44_3 C74_4 1_555 1_555
C67_4 C68_4 1_555 1_555
C68_4 C69_4 1_555 1_555
C69_4 H31_4 1_555 1_555
C70_4 C69_4 1_555 1_555
C71_4 C70_4 1_555 1_555
H32_4 C71_4 1_555 1_555
C72_4 C71_4 1_555 1_555
C73_4 C68_4 1_555 1_555
H33_4 C73_4 1_555 1_555
C74_4 C72_4 1_555 1_555
C75_4 C70_4 1_555 1_555
C76_4 C39_6 1_555 1_555
H34_4 C76_4 1_555 1_555
C77_4 C40_6 1_555 1_555
H35_4 C77_4 1_555 1_555
C78_4 C75_4 1_555 1_555
H36_4 C78_4 1_555 1_555
O40 C29_4 1_555 1_555
C34_4 C35_4 1_555 1_555
C41_4 C42_4 1_555 1_555
C64_4 C65_4 1_555 1_555
C72_4 C73_4 1_555 1_555
C75_4 C76_4 1_555 1_555
C77_4 C78_4 1_555 1_555
Cu7_3 O3_4 1_555 1_555
Cu8_3 O4_4 1_555 1_555
O31 C8_4 1_555 1_555
O32 C8_4 1_555 1_555
O3_4 C1_4 1_555 1_555
O4_4 C1_4 1_555 1_555
O5_4 Cu7_3 1_555 1_555
O6_4 Cu8_3 1_555 1_555
O37 C22_4 1_555 1_555
O38 C22_4 1_555 1_555
O13_6 Cu7_3 1_555 1_555
O14_6 Cu8_3 1_555 1_555
C1_4 C2_4 1_555 1_555
C2_4 C3_4 1_555 1_555
C3_4 H1_4 1_555 1_555
C4_4 C3_4 1_555 1_555
C5_4 C4_4 1_555 1_555
H2_4 C5_4 1_555 1_555
C6_4 C5_4 1_555 1_555
C7_4 C2_4 1_555 1_555
H3_4 C7_4 1_555 1_555
C8_4 C6_4 1_555 1_555
C9_4 C4_4 1_555 1_555
C10_4 C9_4 1_555 1_555
H4_4 C10_4 1_555 1_555
C11_6 C10_4 1_555 1_555
C12_6 C11_6 1_555 1_555
C13_4 C12_6 1_555 1_555
H5_4 C13_4 1_555 1_555
C14_4 C9_4 1_555 1_555
H6_4 C14_4 1_555 1_555
C15_4 O5_4 1_555 1_555
C16_4 C15_4 1_555 1_555
C17_4 C16_4 1_555 1_555
H7_4 C17_4 1_555 1_555
C18_4 C17_4 1_555 1_555
C19_4 C18_4 1_555 1_555
H8_4 C19_4 1_555 1_555
C20_4 C19_4 1_555 1_555
C21_4 C16_4 1_555 1_555
H9_4 C21_4 1_555 1_555
C22_4 C20_4 1_555 1_555
C23_4 C18_4 1_555 1_555
C28_4 C23_4 1_555 1_555
H12_4 C28_4 1_555 1_555
O31_4 C50_4 1_555 1_555
O32_4 C50_4 1_555 1_555
O33_2 C43_4 1_555 1_555
O34_2 C43_4 1_555 1_555
C43_4 C44_4 1_555 1_555
C44_4 C45_4 1_555 1_555
C45_4 H19_4 1_555 1_555
C46_4 C45_4 1_555 1_555
C47_4 C46_4 1_555 1_555
H20_4 C47_4 1_555 1_555
C48_4 C47_4 1_555 1_555
C49_4 C44_4 1_555 1_555
H21_4 C49_4 1_555 1_555
C50_4 C48_4 1_555 1_555
C51_4 C46_4 1_555 1_555
C52_4 C11_6 1_555 1_555
H22_4 C52_4 1_555 1_555
C53_4 C12_6 1_555 1_555
H23_4 C53_4 1_555 1_555
C54_4 C51_4 1_555 1_555
H24_4 C54_4 1_555 1_555
O35_2 C55_4 1_555 1_555
O36_2 C55_4 1_555 1_555
O37_4 C62_4 1_555 1_555
O38_4 C62_4 1_555 1_555
C55_4 C56_4 1_555 1_555
C56_4 C57_4 1_555 1_555
C57_4 H25_4 1_555 1_555
C58_4 C57_4 1_555 1_555
C59_4 C58_4 1_555 1_555
H26_4 C59_4 1_555 1_555
C60_4 C59_4 1_555 1_555
C61_4 C56_4 1_555 1_555
H27_4 C61_4 1_555 1_555
C62_4 C60_4 1_555 1_555
C63_4 C58_4 1_555 1_555
C66_4 C27_6 1_555 1_555
H30_4 C66_4 1_555 1_555
O6_4 C15_4 1_555 1_555
C6_4 C7_4 1_555 1_555
C13_4 C14_4 1_555 1_555
C20_4 C21_4 1_555 1_555
C27_6 C28_4 1_555 1_555
C48_4 C49_4 1_555 1_555
C51_4 C52_4 1_555 1_555
C53_4 C54_4 1_555 1_555
C60_4 C61_4 1_555 1_555
C63_4 C66_4 1_555 1_555

#END
