
###############################################################################
#
# This file contains modified crystal structure data generated from the
# MOF subset of the Cambridge Structural Database (CSD) v543 
# hosted by the Cambridge Crystallographic Data Centre (CCDC).
#
# This work is licensed under the Creative Commons
# Attribution-NonCommercial-ShareAlike 4.0 International License.
# To view a copy of this license, visit
# http://creativecommons.org/licenses/by-nc-sa/4.0/
# or send a letter to
# Creative Commons, PO Box 1866, Mountain View, CA 94042, USA.
#
# CIF created using the CSD Python API on 29 September 2022
# The structure has been converted into the P1 space group
# The structure has a 3D framework
# The original CSD entry NIGFIT is in the monoclinic crystal system
# The framework has been calculated to contain at least 10.0% void space
# The void calculation uses a probe of radius 1.32A, grid spacing 0.4
#
###############################################################################

data_NIGFIT
_chemical_formula_moiety         '(C120 H136 Er8 N16 O58)n'
_symmetry_cell_setting           triclinic
_symmetry_space_group_name_H-M   'P 1'
_symmetry_Int_Tables_number      1
_space_group_name_Hall           'P 1'
loop_
_symmetry_equiv_pos_site_id
_symmetry_equiv_pos_as_xyz
1 x,y,z
_cell_length_a                   18.4014(10)
_cell_length_b                   11.6492(10)
_cell_length_c                   19.6803(13)
_cell_angle_alpha                90
_cell_angle_beta                 106.979(2)
_cell_angle_gamma                90
_cell_volume                     4034.82
loop_
_atom_site_label
_atom_site_type_symbol
_atom_site_fract_x
_atom_site_fract_y
_atom_site_fract_z
Er1 Er 0.07517(2) 0.66976(4) 0.08330(2)
O1 O 0.1558(5) 0.5508(8) 0.1703(4)
O2 O 0.0698(4) 0.6468(6) 0.2036(4)
O3 O 0.3479(5) 0.3194(8) 0.3503(5)
O4 O 0.3238(5) 0.2657(9) 0.4459(4)
O5 O 0.1158(4) 0.4664(6) 0.5184(3)
O6 O 0.0258(4) 0.5543(7) 0.4341(4)
C1 C 0.1242(6) 0.5776(9) 0.2173(5)
C2 C 0.3074(6) 0.3244(9) 0.3915(6)
C3 C 0.0889(6) 0.5044(9) 0.4564(5)
C4 C 0.1526(5) 0.5262(8) 0.2897(5)
C5 C 0.2162(6) 0.4567(9) 0.3080(5)
H1 H 0.2433 0.4448 0.2755
C6 C 0.2403(6) 0.4044(9) 0.3740(5)
C7 C 0.1993(6) 0.4200(8) 0.4226(5)
H2 H 0.2149 0.3843 0.4668
C8 C 0.1350(5) 0.4889(8) 0.4049(5)
C9 C 0.1115(5) 0.5417(8) 0.3392(5)
H3 H 0.0683 0.5877 0.3275
Er2 Er 0.42483(2) 0.16976(4) 0.41670(2)
Er3 Er 0.07517(2) 0.33024(4) 0.58330(2)
O9 O 0.1521(5) 0.8194(8) 0.1497(5)
O10 O 0.1762(5) 0.7657(9) 0.0541(4)
O11 O 0.1158(4) 0.5336(6) 0.0184(3)
O7 O 0.9800(5) 0.7994(8) 0.0887(5)
C13 C 0.9474(7) 0.8200(10) 0.1329(7)
H11 H 0.9752 0.8060 0.1798
C14 C 0.8349(17) 0.889(3) 0.0523(16)
H12 H 0.8641 0.8724 0.0202
H13 H 0.8227 0.9690 0.0502
H14 H 0.7889 0.8445 0.0390
C15 C 0.8438(11) 0.8773(17) 0.1798(10)
H15 H 0.8785 0.8540 0.2242
H16 H 0.7980 0.8326 0.1705
H17 H 0.8318 0.9571 0.1819
N1 N 0.8784(7) 0.8593(12) 0.1233(7)
Er4 Er 0.92483(2) 0.66976(4) 0.41670(2)
O12 O 0.9742(4) 0.5543(7) 0.0659(4)
Er1_2 Er 0.57517(2) 0.16976(4) 0.08330(2)
O1_2 O 0.6558(5) 0.0508(8) 0.1703(4)
O2_2 O 0.5698(4) 0.1468(6) 0.2036(4)
O6_2 O 0.5258(4) 0.0543(7) 0.4341(4)
O7_2 O 0.4800(5) 0.2994(8) 0.0887(5)
C1_2 C 0.6242(6) 0.0776(9) 0.2173(5)
C3_2 C 0.5889(6) 0.0044(9) 0.4564(5)
C4_2 C 0.6526(5) 0.0262(8) 0.2897(5)
C9_2 C 0.6115(5) 0.0417(8) 0.3392(5)
H3_2 H 0.5683 0.0877 0.3275
C13_2 C 0.4474(7) 0.3200(10) 0.1329(7)
H11_2 H 0.4752 0.3060 0.1798
C14_2 C 0.3349(17) 0.389(3) 0.0523(16)
H12_2 H 0.3641 0.3724 0.0202
H13_2 H 0.3227 0.4690 0.0502
H14_2 H 0.2889 0.3445 0.0390
C15_2 C 0.3438(11) 0.3773(17) 0.1798(10)
H15_2 H 0.3785 0.3540 0.2242
H16_2 H 0.2980 0.3326 0.1705
H17_2 H 0.3318 0.4571 0.1819
N1_2 N 0.3784(7) 0.3593(12) 0.1233(7)
O9_2 O 0.6521(5) 0.3194(8) 0.1497(5)
O10_2 O 0.6762(5) 0.2657(9) 0.0541(4)
O11_2 O 0.6158(4) 0.0336(6) 0.0184(3)
O12_2 O 0.4742(4) 0.0543(7) 0.0659(4)
O3_2 O 0.8479(5) 0.8194(8) 0.3503(5)
O4_2 O 0.8238(5) 0.7657(9) 0.4459(4)
O5_2 O 0.6158(4) 0.9664(6) 0.5184(3)
C2_2 C 0.8074(6) 0.8244(9) 0.3915(6)
C5_2 C 0.7162(6) 0.9567(9) 0.3080(5)
H1_2 H 0.7433 0.9448 0.2755
C6_2 C 0.7403(6) 0.9044(9) 0.3740(5)
C7_2 C 0.6993(6) 0.9200(8) 0.4226(5)
H2_2 H 0.7149 0.8843 0.4668
C8_2 C 0.6350(5) 0.9889(8) 0.4049(5)
Er3_2 Er 0.57517(2) 0.83024(4) 0.58330(2)
O7_3 O 0.0200(5) 0.7994(8) 0.4113(5)
C10 C 0.0450(8) 0.7243(11) 0.5739(7)
H4 H 0.0654 0.6507 0.5803
C11 C 0.0612(12) 0.9208(19) 0.5971(12)
H5 H 0.0120 0.9222 0.5627
H6 H 0.0966 0.9627 0.5791
H7 H 0.0583 0.9555 0.6405
C12 C 0.1608(11) 0.783(2) 0.6603(12)
H8 H 0.1708 0.7015 0.6633
H9 H 0.1620 0.8114 0.7063
H10 H 0.1989 0.8208 0.6440
C13_3 C 0.0526(7) 0.8200(10) 0.3671(7)
H11_3 H 0.0248 0.8060 0.3202
C14_3 C 0.1651(17) 0.889(3) 0.4477(16)
H12_3 H 0.1359 0.8724 0.4798
H13_3 H 0.1773 0.9690 0.4498
H14_3 H 0.2111 0.8445 0.4610
C15_3 C 0.1562(11) 0.8773(17) 0.3202(10)
H15_3 H 0.1215 0.8540 0.2758
H16_3 H 0.2020 0.8326 0.3295
H17_3 H 0.1682 0.9571 0.3181
N1_3 N 0.1216(7) 0.8593(12) 0.3767(7)
N2 N 0.0865(7) 0.8035(10) 0.6106(7)
O1_3 O 0.8442(5) 0.5508(8) 0.3297(4)
O2_3 O 0.9302(4) 0.6468(6) 0.2964(4)
O8 O 0.9823(5) 0.7331(9) 0.5318(4)
C1_3 C 0.8758(6) 0.5776(9) 0.2827(5)
C2_3 C 0.6926(6) 0.3244(9) 0.1085(6)
C3_3 C 0.9111(6) 0.5044(9) 0.0436(5)
C4_3 C 0.8474(5) 0.5262(8) 0.2103(5)
C5_3 C 0.7838(6) 0.4567(9) 0.1920(5)
H1_3 H 0.7567 0.4448 0.2245
C6_3 C 0.7597(6) 0.4044(9) 0.1260(5)
C7_3 C 0.8007(6) 0.4200(8) 0.0774(5)
H2_3 H 0.7851 0.3843 0.0332
C8_3 C 0.8650(5) 0.4889(8) 0.0951(5)
C9_3 C 0.8885(5) 0.5417(8) 0.1608(5)
H3_3 H 0.9317 0.5877 0.1725
O11_3 O 0.8842(4) 0.5336(6) 0.4816(3)
O5_3 O 0.8842(4) 0.4664(6) 0.9816(3)
Er3_3 Er 0.92483(2) 0.33024(4) 0.91670(2)
O1_4 O 0.3442(5) 0.0508(8) 0.3297(4)
O2_4 O 0.4302(4) 0.1468(6) 0.2964(4)
O7_4 O 0.5200(5) 0.2994(8) 0.4113(5)
O8_2 O 0.4823(5) 0.2331(9) 0.5318(4)
C1_4 C 0.3758(6) 0.0776(9) 0.2827(5)
C3_4 C 0.4111(6) 0.0044(9) 0.0436(5)
C4_4 C 0.3474(5) 0.0262(8) 0.2103(5)
C9_4 C 0.3885(5) 0.0417(8) 0.1608(5)
H3_4 H 0.4317 0.0877 0.1725
C10_2 C 0.5450(8) 0.2243(11) 0.5739(7)
H4_2 H 0.5654 0.1507 0.5803
C11_2 C 0.5612(12) 0.4208(19) 0.5971(12)
H5_2 H 0.5120 0.4222 0.5627
H6_2 H 0.5966 0.4627 0.5791
H7_2 H 0.5583 0.4555 0.6405
C12_2 C 0.6608(11) 0.283(2) 0.6603(12)
H8_2 H 0.6708 0.2015 0.6633
H9_2 H 0.6620 0.3114 0.7063
H10_2 H 0.6989 0.3208 0.6440
C13_4 C 0.5526(7) 0.3200(10) 0.3671(7)
H11_4 H 0.5248 0.3060 0.3202
C14_4 C 0.6651(17) 0.389(3) 0.4477(16)
H12_4 H 0.6359 0.3724 0.4798
H13_4 H 0.6773 0.4690 0.4498
H14_4 H 0.7111 0.3445 0.4610
C15_4 C 0.6562(11) 0.3773(17) 0.3202(10)
H15_4 H 0.6215 0.3540 0.2758
H16_4 H 0.7020 0.3326 0.3295
H17_4 H 0.6682 0.4571 0.3181
N1_4 N 0.6216(7) 0.3593(12) 0.3767(7)
N2_2 N 0.5865(7) 0.3035(10) 0.6106(7)
O11_4 O 0.3842(4) 0.0336(6) 0.4816(3)
C2_4 C 0.1926(6) 0.8244(9) 0.1085(6)
C5_4 C 0.2838(6) 0.9567(9) 0.1920(5)
H1_4 H 0.2567 0.9448 0.2245
C6_4 C 0.2597(6) 0.9044(9) 0.1260(5)
C7_4 C 0.3007(6) 0.9200(8) 0.0774(5)
H2_4 H 0.2851 0.8843 0.0332
C8_4 C 0.3650(5) 0.9889(8) 0.0951(5)
O5_4 O 0.3842(4) 0.9664(6) 0.9816(3)
Er3_4 Er 0.42483(2) 0.83024(4) 0.91670(2)
O7_5 O 0.0200(5) 0.2006(8) 0.9113(5)
C13_5 C 0.0526(7) 0.1800(10) 0.8671(7)
H11_5 H 0.0248 0.1940 0.8202
C14_5 C 0.1651(17) 0.111(3) 0.9477(16)
H12_5 H 0.1359 0.1276 0.9798
H13_5 H 0.1773 0.0310 0.9498
H14_5 H 0.2111 0.1555 0.9610
C15_5 C 0.1562(11) 0.1227(17) 0.8202(10)
H15_5 H 0.1215 0.1460 0.7758
H16_5 H 0.2020 0.1674 0.8295
H17_5 H 0.1682 0.0429 0.8181
N1_5 N 0.1216(7) 0.1407(12) 0.8767(7)
O12_3 O 0.0258(4) 0.4457(7) 0.9341(4)
O1_5 O 0.8442(5) 0.4492(8) 0.8297(4)
O2_5 O 0.9302(4) 0.3532(6) 0.7964(4)
O3_3 O 0.6521(5) 0.6806(8) 0.6497(5)
O4_3 O 0.6762(5) 0.7343(9) 0.5541(4)
O6_3 O 0.9742(4) 0.4457(7) 0.5659(4)
C1_5 C 0.8758(6) 0.4224(9) 0.7827(5)
C2_5 C 0.6926(6) 0.6756(9) 0.6085(6)
C3_5 C 0.9111(6) 0.4956(9) 0.5436(5)
C4_5 C 0.8474(5) 0.4738(8) 0.7103(5)
C5_5 C 0.7838(6) 0.5433(9) 0.6920(5)
H1_5 H 0.7567 0.5552 0.7245
C6_5 C 0.7597(6) 0.5956(9) 0.6260(5)
C7_5 C 0.8007(6) 0.5800(8) 0.5774(5)
H2_5 H 0.7851 0.6157 0.5332
C8_5 C 0.8650(5) 0.5111(8) 0.5951(5)
C9_5 C 0.8885(5) 0.4583(8) 0.6608(5)
H3_5 H 0.9317 0.4123 0.6725
O9_3 O 0.8479(5) 0.1806(8) 0.8503(5)
O10_3 O 0.8238(5) 0.2343(9) 0.9459(4)
O3_4 O 0.1521(5) 0.1806(8) 0.6497(5)
O4_4 O 0.1762(5) 0.2343(9) 0.5541(4)
C2_6 C 0.1926(6) 0.1756(9) 0.6085(6)
C5_6 C 0.2838(6) 0.0433(9) 0.6920(5)
H1_6 H 0.2567 0.0552 0.7245
C6_6 C 0.2597(6) 0.0956(9) 0.6260(5)
C7_6 C 0.3007(6) 0.0800(8) 0.5774(5)
H2_6 H 0.2851 0.1157 0.5332
C8_6 C 0.3650(5) 0.0111(8) 0.5951(5)
O1_6 O 0.3442(5) 0.9492(8) 0.8297(4)
O2_6 O 0.4302(4) 0.8532(6) 0.7964(4)
O6_4 O 0.4742(4) 0.9457(7) 0.5659(4)
O7_6 O 0.5200(5) 0.7006(8) 0.9113(5)
C1_6 C 0.3758(6) 0.9224(9) 0.7827(5)
C3_6 C 0.4111(6) 0.9956(9) 0.5436(5)
C4_6 C 0.3474(5) 0.9738(8) 0.7103(5)
C9_6 C 0.3885(5) 0.9583(8) 0.6608(5)
H3_6 H 0.4317 0.9123 0.6725
C13_6 C 0.5526(7) 0.6800(10) 0.8671(7)
H11_6 H 0.5248 0.6940 0.8202
C14_6 C 0.6651(17) 0.611(3) 0.9477(16)
H12_6 H 0.6359 0.6276 0.9798
H13_6 H 0.6773 0.5310 0.9498
H14_6 H 0.7111 0.6555 0.9610
C15_6 C 0.6562(11) 0.6227(17) 0.8202(10)
H15_6 H 0.6215 0.6460 0.7758
H16_6 H 0.7020 0.6674 0.8295
H17_6 H 0.6682 0.5429 0.8181
N1_6 N 0.6216(7) 0.6407(12) 0.8767(7)
O9_4 O 0.3479(5) 0.6806(8) 0.8503(5)
O10_4 O 0.3238(5) 0.7343(9) 0.9459(4)
O12_4 O 0.5258(4) 0.9457(7) 0.9341(4)
O1_7 O 0.1558(5) 0.4492(8) 0.6703(4)
O2_7 O 0.0698(4) 0.3532(6) 0.7036(4)
O8_3 O 0.0177(5) 0.2669(9) 0.4682(4)
C1_7 C 0.1242(6) 0.4224(9) 0.7173(5)
C2_7 C 0.3074(6) 0.6756(9) 0.8915(6)
C3_7 C 0.0889(6) 0.4956(9) 0.9564(5)
C4_7 C 0.1526(5) 0.4738(8) 0.7897(5)
C5_7 C 0.2162(6) 0.5433(9) 0.8080(5)
H1_7 H 0.2433 0.5552 0.7755
C6_7 C 0.2403(6) 0.5956(9) 0.8740(5)
C7_7 C 0.1993(6) 0.5800(8) 0.9226(5)
H2_7 H 0.2149 0.6157 0.9668
C8_7 C 0.1350(5) 0.5111(8) 0.9049(5)
C9_7 C 0.1115(5) 0.4583(8) 0.8392(5)
H3_7 H 0.0683 0.4123 0.8275
O7_7 O 0.9800(5) 0.2006(8) 0.5887(5)
C10_3 C 0.9550(8) 0.2757(11) 0.4261(7)
H4_3 H 0.9346 0.3493 0.4197
C11_3 C 0.9388(12) 0.0792(19) 0.4029(12)
H5_3 H 0.9880 0.0778 0.4373
H6_3 H 0.9034 0.0373 0.4209
H7_3 H 0.9417 0.0445 0.3595
C12_3 C 0.8392(11) 0.217(2) 0.3397(12)
H8_3 H 0.8292 0.2985 0.3367
H9_3 H 0.8380 0.1886 0.2937
H10_3 H 0.8011 0.1792 0.3560
C13_7 C 0.9474(7) 0.1800(10) 0.6329(7)
H11_7 H 0.9752 0.1940 0.6798
C14_7 C 0.8349(17) 0.111(3) 0.5523(16)
H12_7 H 0.8641 0.1276 0.5202
H13_7 H 0.8227 0.0310 0.5502
H14_7 H 0.7889 0.1555 0.5390
C15_7 C 0.8438(11) 0.1227(17) 0.6798(10)
H15_7 H 0.8785 0.1460 0.7242
H16_7 H 0.7980 0.1674 0.6705
H17_7 H 0.8318 0.0429 0.6819
N1_7 N 0.8784(7) 0.1407(12) 0.6233(7)
N2_3 N 0.9135(7) 0.1965(10) 0.3894(7)
C2_8 C 0.8074(6) 0.1756(9) 0.8915(6)
C5_8 C 0.7162(6) 0.0433(9) 0.8080(5)
H1_8 H 0.7433 0.0552 0.7755
C6_8 C 0.7403(6) 0.0956(9) 0.8740(5)
C7_8 C 0.6993(6) 0.0800(8) 0.9226(5)
H2_8 H 0.7149 0.1157 0.9668
C8_8 C 0.6350(5) 0.0111(8) 0.9049(5)
O1_8 O 0.6558(5) 0.9492(8) 0.6703(4)
O2_8 O 0.5698(4) 0.8532(6) 0.7036(4)
O7_8 O 0.4800(5) 0.7006(8) 0.5887(5)
O8_4 O 0.5177(5) 0.7669(9) 0.4682(4)
C1_8 C 0.6242(6) 0.9224(9) 0.7173(5)
C3_8 C 0.5889(6) 0.9956(9) 0.9564(5)
C4_8 C 0.6526(5) 0.9738(8) 0.7897(5)
C9_8 C 0.6115(5) 0.9583(8) 0.8392(5)
H3_8 H 0.5683 0.9123 0.8275
C10_4 C 0.4550(8) 0.7757(11) 0.4261(7)
H4_4 H 0.4346 0.8493 0.4197
C11_4 C 0.4388(12) 0.5792(19) 0.4029(12)
H5_4 H 0.4880 0.5778 0.4373
H6_4 H 0.4034 0.5373 0.4209
H7_4 H 0.4417 0.5445 0.3595
C12_4 C 0.3392(11) 0.717(2) 0.3397(12)
H8_4 H 0.3292 0.7985 0.3367
H9_4 H 0.3380 0.6886 0.2937
H10_4 H 0.3011 0.6792 0.3560
C13_8 C 0.4474(7) 0.6800(10) 0.6329(7)
H11_8 H 0.4752 0.6940 0.6798
C14_8 C 0.3349(17) 0.611(3) 0.5523(16)
H12_8 H 0.3641 0.6276 0.5202
H13_8 H 0.3227 0.5310 0.5502
H14_8 H 0.2889 0.6555 0.5390
C15_8 C 0.3438(11) 0.6227(17) 0.6798(10)
H15_8 H 0.3785 0.6460 0.7242
H16_8 H 0.2980 0.6674 0.6705
H17_8 H 0.3318 0.5429 0.6819
N1_8 N 0.3784(7) 0.6407(12) 0.6233(7)
N2_4 N 0.4135(7) 0.6965(10) 0.3894(7)
O8_5 O 0.0177(5) 0.7331(9) 0.9682(4)
C10_5 C 0.9550(8) 0.7243(11) 0.9261(7)
H4_5 H 0.9346 0.6507 0.9197
C11_5 C 0.9388(12) 0.9208(19) 0.9029(12)
H5_5 H 0.9880 0.9222 0.9373
H6_5 H 0.9034 0.9627 0.9209
H7_5 H 0.9417 0.9555 0.8595
C12_5 C 0.8392(11) 0.783(2) 0.8397(12)
H8_5 H 0.8292 0.7015 0.8367
H9_5 H 0.8380 0.8114 0.7937
H10_5 H 0.8011 0.8208 0.8560
N2_5 N 0.9135(7) 0.8035(10) 0.8894(7)
O8_6 O 0.5177(5) 0.2331(9) 0.9682(4)
C10_6 C 0.4550(8) 0.2243(11) 0.9261(7)
H4_6 H 0.4346 0.1507 0.9197
C11_6 C 0.4388(12) 0.4208(19) 0.9029(12)
H5_6 H 0.4880 0.4222 0.9373
H6_6 H 0.4034 0.4627 0.9209
H7_6 H 0.4417 0.4555 0.8595
C12_6 C 0.3392(11) 0.283(2) 0.8397(12)
H8_6 H 0.3292 0.2015 0.8367
H9_6 H 0.3380 0.3114 0.7937
H10_6 H 0.3011 0.3208 0.8560
N2_6 N 0.4135(7) 0.3035(10) 0.8894(7)
C10_7 C 0.0450(8) 0.2757(11) 0.0739(7)
H4_7 H 0.0654 0.3493 0.0803
C11_7 C 0.0612(12) 0.0792(19) 0.0971(12)
H5_7 H 0.0120 0.0778 0.0627
H6_7 H 0.0966 0.0373 0.0791
H7_7 H 0.0583 0.0445 0.1405
C12_7 C 0.1608(11) 0.217(2) 0.1603(12)
H8_7 H 0.1708 0.2985 0.1633
H9_7 H 0.1620 0.1886 0.2063
H10_7 H 0.1989 0.1792 0.1440
N2_7 N 0.0865(7) 0.1965(10) 0.1106(7)
O8_7 O 0.9823(5) 0.2669(9) 0.0318(4)
O8_8 O 0.4823(5) 0.7669(9) 0.0318(4)
C10_8 C 0.5450(8) 0.7757(11) 0.0739(7)
H4_8 H 0.5654 0.8493 0.0803
C11_8 C 0.5612(12) 0.5792(19) 0.0971(12)
H5_8 H 0.5120 0.5778 0.0627
H6_8 H 0.5966 0.5373 0.0791
H7_8 H 0.5583 0.5445 0.1405
C12_8 C 0.6608(11) 0.717(2) 0.1603(12)
H8_8 H 0.6708 0.7985 0.1633
H9_8 H 0.6620 0.6886 0.2063
H10_8 H 0.6989 0.6792 0.1440
N2_8 N 0.5865(7) 0.6965(10) 0.1106(7)
loop_
_geom_bond_atom_site_label_1
_geom_bond_atom_site_label_2
_geom_bond_site_symmetry_1
_geom_bond_site_symmetry_2
Er1 O1 1_555 1_555
O1 C1 1_555 1_555
O2 Er1 1_555 1_555
O3 C2 1_555 1_555
O4 C2 1_555 1_555
O5 C3 1_555 1_555
O6 C3 1_555 1_555
C1 O2 1_555 1_555
C2 C6 1_555 1_555
C3 C8 1_555 1_555
C4 C1 1_555 1_555
C5 C4 1_555 1_555
H1 C5 1_555 1_555
C6 C5 1_555 1_555
C7 C6 1_555 1_555
H2 C7 1_555 1_555
C8 C7 1_555 1_555
C9 C4 1_555 1_555
H3 C9 1_555 1_555
Er2 O3 1_555 1_555
Er3 O5 1_555 1_555
O9 Er1 1_555 1_555
O10 Er1 1_555 1_555
O11 Er1 1_555 1_555
O4 Er2 1_555 1_555
C8 C9 1_555 1_555
C13 O7 1_555 1_555
H11 C13 1_555 1_555
C14 H12 1_555 1_555
H13 C14 1_555 1_555
H14 C14 1_555 1_555
C15 H15 1_555 1_555
H16 C15 1_555 1_555
H17 C15 1_555 1_555
N1 C13 1_555 1_555
C14 N1 1_555 1_555
C15 N1 1_555 1_555
Er1_2 O1_2 1_555 1_555
O1_2 C1_2 1_555 1_555
O2_2 Er1_2 1_555 1_555
O6_2 C3_2 1_555 1_555
O7_2 Er1_2 1_555 1_555
C1_2 O2_2 1_555 1_555
C4_2 C1_2 1_555 1_555
C9_2 C4_2 1_555 1_555
H3_2 C9_2 1_555 1_555
C13_2 O7_2 1_555 1_555
H11_2 C13_2 1_555 1_555
C14_2 H12_2 1_555 1_555
H13_2 C14_2 1_555 1_555
H14_2 C14_2 1_555 1_555
C15_2 H15_2 1_555 1_555
H16_2 C15_2 1_555 1_555
H17_2 C15_2 1_555 1_555
N1_2 C13_2 1_555 1_555
Er2 O6_2 1_555 1_555
O9_2 Er1_2 1_555 1_555
O10_2 Er1_2 1_555 1_555
O11_2 Er1_2 1_555 1_555
O12_2 Er1_2 1_555 1_555
C14_2 N1_2 1_555 1_555
C15_2 N1_2 1_555 1_555
O3_2 C2_2 1_555 1_555
O4_2 C2_2 1_555 1_555
C2_2 C6_2 1_555 1_555
H1_2 C5_2 1_555 1_555
C6_2 C5_2 1_555 1_555
C7_2 C6_2 1_555 1_555
H2_2 C7_2 1_555 1_555
C8_2 C7_2 1_555 1_555
Er4 O3_2 1_555 1_555
Er3_2 O5_2 1_555 1_555
O4_2 Er4 1_555 1_555
H4 C10 1_555 1_555
C11 H5 1_555 1_555
H6 C11 1_555 1_555
H7 C11 1_555 1_555
C12 H8 1_555 1_555
H9 C12 1_555 1_555
H10 C12 1_555 1_555
C13_3 O7_3 1_555 1_555
H11_3 C13_3 1_555 1_555
C14_3 H12_3 1_555 1_555
H13_3 C14_3 1_555 1_555
H14_3 C14_3 1_555 1_555
C15_3 H15_3 1_555 1_555
H16_3 C15_3 1_555 1_555
H17_3 C15_3 1_555 1_555
N1_3 C13_3 1_555 1_555
N2 C10 1_555 1_555
C11 N2 1_555 1_555
C12 N2 1_555 1_555
C14_3 N1_3 1_555 1_555
C15_3 N1_3 1_555 1_555
Er4 O1_3 1_555 1_555
O1_3 C1_3 1_555 1_555
O2_3 Er4 1_555 1_555
O9_2 C2_3 1_555 1_555
O10_2 C2_3 1_555 1_555
O12 C3_3 1_555 1_555
O8 Er4 1_555 1_555
C1_3 O2_3 1_555 1_555
C2_3 C6_3 1_555 1_555
C3_3 C8_3 1_555 1_555
C4_3 C1_3 1_555 1_555
C5_3 C4_3 1_555 1_555
H1_3 C5_3 1_555 1_555
C6_3 C5_3 1_555 1_555
C7_3 C6_3 1_555 1_555
H2_3 C7_3 1_555 1_555
C8_3 C7_3 1_555 1_555
C9_3 C4_3 1_555 1_555
H3_3 C9_3 1_555 1_555
O11_3 Er4 1_555 1_555
C8_3 C9_3 1_555 1_555
Er3_3 O5_3 1_555 1_555
Er2 O1_4 1_555 1_555
O1_4 C1_4 1_555 1_555
O2_4 Er2 1_555 1_555
O12_2 C3_4 1_555 1_555
O7_4 Er2 1_555 1_555
O8_2 Er2 1_555 1_555
C1_4 O2_4 1_555 1_555
C4_4 C1_4 1_555 1_555
C9_4 C4_4 1_555 1_555
H3_4 C9_4 1_555 1_555
C10_2 O8_2 1_555 1_555
H4_2 C10_2 1_555 1_555
C11_2 H5_2 1_555 1_555
H6_2 C11_2 1_555 1_555
H7_2 C11_2 1_555 1_555
C12_2 H8_2 1_555 1_555
H9_2 C12_2 1_555 1_555
H10_2 C12_2 1_555 1_555
C13_4 O7_4 1_555 1_555
H11_4 C13_4 1_555 1_555
C14_4 H12_4 1_555 1_555
H13_4 C14_4 1_555 1_555
H14_4 C14_4 1_555 1_555
C15_4 H15_4 1_555 1_555
H16_4 C15_4 1_555 1_555
H17_4 C15_4 1_555 1_555
N1_4 C13_4 1_555 1_555
N2_2 C10_2 1_555 1_555
O11_4 Er2 1_555 1_555
C11_2 N2_2 1_555 1_555
C12_2 N2_2 1_555 1_555
C14_4 N1_4 1_555 1_555
C15_4 N1_4 1_555 1_555
O9 C2_4 1_555 1_555
O10 C2_4 1_555 1_555
C2_4 C6_4 1_555 1_555
H1_4 C5_4 1_555 1_555
C6_4 C5_4 1_555 1_555
C7_4 C6_4 1_555 1_555
H2_4 C7_4 1_555 1_555
C8_4 C7_4 1_555 1_555
Er3_4 O5_4 1_555 1_555
C13_5 O7_5 1_555 1_555
H11_5 C13_5 1_555 1_555
C14_5 H12_5 1_555 1_555
H13_5 C14_5 1_555 1_555
H14_5 C14_5 1_555 1_555
C15_5 H15_5 1_555 1_555
H16_5 C15_5 1_555 1_555
H17_5 C15_5 1_555 1_555
N1_5 C13_5 1_555 1_555
C14_5 N1_5 1_555 1_555
C15_5 N1_5 1_555 1_555
Er3_3 O1_5 1_555 1_555
O1_5 C1_5 1_555 1_555
O2_5 Er3_3 1_555 1_555
O3_3 C2_5 1_555 1_555
O4_3 C2_5 1_555 1_555
O11_3 C3_5 1_555 1_555
O6_3 C3_5 1_555 1_555
C1_5 O2_5 1_555 1_555
C2_5 C6_5 1_555 1_555
C3_5 C8_5 1_555 1_555
C4_5 C1_5 1_555 1_555
C5_5 C4_5 1_555 1_555
H1_5 C5_5 1_555 1_555
C6_5 C5_5 1_555 1_555
C7_5 C6_5 1_555 1_555
H2_5 C7_5 1_555 1_555
C8_5 C7_5 1_555 1_555
C9_5 C4_5 1_555 1_555
H3_5 C9_5 1_555 1_555
Er3_2 O3_3 1_555 1_555
O9_3 Er3_3 1_555 1_555
O10_3 Er3_3 1_555 1_555
O4_3 Er3_2 1_555 1_555
C8_5 C9_5 1_555 1_555
O3_4 C2_6 1_555 1_555
O4_4 C2_6 1_555 1_555
C2_6 C6_6 1_555 1_555
H1_6 C5_6 1_555 1_555
C6_6 C5_6 1_555 1_555
C7_6 C6_6 1_555 1_555
H2_6 C7_6 1_555 1_555
C8_6 C7_6 1_555 1_555
Er3 O3_4 1_555 1_555
O4_4 Er3 1_555 1_555
Er3_4 O1_6 1_555 1_555
O1_6 C1_6 1_555 1_555
O2_6 Er3_4 1_555 1_555
O6_4 C3_6 1_555 1_555
O7_6 Er3_4 1_555 1_555
C1_6 O2_6 1_555 1_555
C4_6 C1_6 1_555 1_555
C9_6 C4_6 1_555 1_555
H3_6 C9_6 1_555 1_555
C13_6 O7_6 1_555 1_555
H11_6 C13_6 1_555 1_555
C14_6 H12_6 1_555 1_555
H13_6 C14_6 1_555 1_555
H14_6 C14_6 1_555 1_555
C15_6 H15_6 1_555 1_555
H16_6 C15_6 1_555 1_555
H17_6 C15_6 1_555 1_555
N1_6 C13_6 1_555 1_555
Er3_2 O6_4 1_555 1_555
O9_4 Er3_4 1_555 1_555
O10_4 Er3_4 1_555 1_555
O12_4 Er3_4 1_555 1_555
C14_6 N1_6 1_555 1_555
C15_6 N1_6 1_555 1_555
Er3 O1_7 1_555 1_555
O1_7 C1_7 1_555 1_555
O2_7 Er3 1_555 1_555
O9_4 C2_7 1_555 1_555
O10_4 C2_7 1_555 1_555
O12_3 C3_7 1_555 1_555
O8_3 Er3 1_555 1_555
C1_7 O2_7 1_555 1_555
C2_7 C6_7 1_555 1_555
C3_7 C8_7 1_555 1_555
C4_7 C1_7 1_555 1_555
C5_7 C4_7 1_555 1_555
H1_7 C5_7 1_555 1_555
C6_7 C5_7 1_555 1_555
C7_7 C6_7 1_555 1_555
H2_7 C7_7 1_555 1_555
C8_7 C7_7 1_555 1_555
C9_7 C4_7 1_555 1_555
H3_7 C9_7 1_555 1_555
C8_7 C9_7 1_555 1_555
H4_3 C10_3 1_555 1_555
C11_3 H5_3 1_555 1_555
H6_3 C11_3 1_555 1_555
H7_3 C11_3 1_555 1_555
C12_3 H8_3 1_555 1_555
H9_3 C12_3 1_555 1_555
H10_3 C12_3 1_555 1_555
C13_7 O7_7 1_555 1_555
H11_7 C13_7 1_555 1_555
C14_7 H12_7 1_555 1_555
H13_7 C14_7 1_555 1_555
H14_7 C14_7 1_555 1_555
C15_7 H15_7 1_555 1_555
H16_7 C15_7 1_555 1_555
H17_7 C15_7 1_555 1_555
N1_7 C13_7 1_555 1_555
N2_3 C10_3 1_555 1_555
C11_3 N2_3 1_555 1_555
C12_3 N2_3 1_555 1_555
C14_7 N1_7 1_555 1_555
C15_7 N1_7 1_555 1_555
O9_3 C2_8 1_555 1_555
O10_3 C2_8 1_555 1_555
C2_8 C6_8 1_555 1_555
H1_8 C5_8 1_555 1_555
C6_8 C5_8 1_555 1_555
C7_8 C6_8 1_555 1_555
H2_8 C7_8 1_555 1_555
C8_8 C7_8 1_555 1_555
Er3_2 O1_8 1_555 1_555
O1_8 C1_8 1_555 1_555
O2_8 Er3_2 1_555 1_555
O12_4 C3_8 1_555 1_555
O7_8 Er3_2 1_555 1_555
O8_4 Er3_2 1_555 1_555
C1_8 O2_8 1_555 1_555
C4_8 C1_8 1_555 1_555
C9_8 C4_8 1_555 1_555
H3_8 C9_8 1_555 1_555
C10_4 O8_4 1_555 1_555
H4_4 C10_4 1_555 1_555
C11_4 H5_4 1_555 1_555
H6_4 C11_4 1_555 1_555
H7_4 C11_4 1_555 1_555
C12_4 H8_4 1_555 1_555
H9_4 C12_4 1_555 1_555
H10_4 C12_4 1_555 1_555
C13_8 O7_8 1_555 1_555
H11_8 C13_8 1_555 1_555
C14_8 H12_8 1_555 1_555
H13_8 C14_8 1_555 1_555
H14_8 C14_8 1_555 1_555
C15_8 H15_8 1_555 1_555
H16_8 C15_8 1_555 1_555
H17_8 C15_8 1_555 1_555
N1_8 C13_8 1_555 1_555
N2_4 C10_4 1_555 1_555
C11_4 N2_4 1_555 1_555
C12_4 N2_4 1_555 1_555
C14_8 N1_8 1_555 1_555
C15_8 N1_8 1_555 1_555
H4_5 C10_5 1_555 1_555
C11_5 H5_5 1_555 1_555
H6_5 C11_5 1_555 1_555
H7_5 C11_5 1_555 1_555
C12_5 H8_5 1_555 1_555
H9_5 C12_5 1_555 1_555
H10_5 C12_5 1_555 1_555
N2_5 C10_5 1_555 1_555
C11_5 N2_5 1_555 1_555
C12_5 N2_5 1_555 1_555
C10_6 O8_6 1_555 1_555
H4_6 C10_6 1_555 1_555
C11_6 H5_6 1_555 1_555
H6_6 C11_6 1_555 1_555
H7_6 C11_6 1_555 1_555
C12_6 H8_6 1_555 1_555
H9_6 C12_6 1_555 1_555
H10_6 C12_6 1_555 1_555
N2_6 C10_6 1_555 1_555
C11_6 N2_6 1_555 1_555
C12_6 N2_6 1_555 1_555
H4_7 C10_7 1_555 1_555
C11_7 H5_7 1_555 1_555
H6_7 C11_7 1_555 1_555
H7_7 C11_7 1_555 1_555
C12_7 H8_7 1_555 1_555
H9_7 C12_7 1_555 1_555
H10_7 C12_7 1_555 1_555
N2_7 C10_7 1_555 1_555
C11_7 N2_7 1_555 1_555
C12_7 N2_7 1_555 1_555
C10_8 O8_8 1_555 1_555
H4_8 C10_8 1_555 1_555
C11_8 H5_8 1_555 1_555
H6_8 C11_8 1_555 1_555
H7_8 C11_8 1_555 1_555
C12_8 H8_8 1_555 1_555
H9_8 C12_8 1_555 1_555
H10_8 C12_8 1_555 1_555
N2_8 C10_8 1_555 1_555
C11_8 N2_8 1_555 1_555
C12_8 N2_8 1_555 1_555

#END
