
###############################################################################
#
# This file contains modified crystal structure data generated from the
# MOF subset of the Cambridge Structural Database (CSD) v543 
# hosted by the Cambridge Crystallographic Data Centre (CCDC).
#
# This work is licensed under the Creative Commons
# Attribution-NonCommercial-ShareAlike 4.0 International License.
# To view a copy of this license, visit
# http://creativecommons.org/licenses/by-nc-sa/4.0/
# or send a letter to
# Creative Commons, PO Box 1866, Mountain View, CA 94042, USA.
#
# CIF created using the CSD Python API on 29 September 2022
# The structure has been converted into the P1 space group
# The structure has a 3D framework
# The original CSD entry NIGFUF is in the monoclinic crystal system
# The framework has been calculated to contain at least 10.0% void space
# The void calculation uses a probe of radius 1.32A, grid spacing 0.4
#
###############################################################################

data_NIGFUF
_chemical_formula_moiety         '(C120 H136 Dy8 N16 O58)n'
_symmetry_cell_setting           triclinic
_symmetry_space_group_name_H-M   'P 1'
_symmetry_Int_Tables_number      1
_space_group_name_Hall           'P 1'
loop_
_symmetry_equiv_pos_site_id
_symmetry_equiv_pos_as_xyz
1 x,y,z
_cell_length_a                   18.493(18)
_cell_length_b                   11.580(18)
_cell_length_c                   19.51(2)
_cell_angle_alpha                90
_cell_angle_beta                 107.22(3)
_cell_angle_gamma                90
_cell_volume                     3990.77
loop_
_atom_site_label
_atom_site_type_symbol
_atom_site_fract_x
_atom_site_fract_y
_atom_site_fract_z
Dy1 Dy 0.07486(3) 0.82868(4) 0.08305(3)
C1 C 0.4103(5) 0.4965(9) 0.0438(5)
C2 C 0.3643(5) 0.5139(9) 0.0951(5)
C3 C 0.3005(5) 0.5813(8) 0.0767(5)
H1 H 0.2845 0.6157 0.0317
C4 C 0.2604(6) 0.5980(9) 0.1248(6)
C5 C 0.2845(5) 0.5444(8) 0.1913(5)
H2 H 0.2571 0.5548 0.2238
C6 C 0.3479(5) 0.4767(9) 0.2097(5)
C7 C 0.3885(5) 0.4593(8) 0.1609(5)
H3 H 0.4310 0.4118 0.1723
C8 C 0.1926(5) 0.6770(10) 0.1062(5)
C9 C 0.3760(6) 0.4220(9) 0.2829(6)
O2 O 0.1731(5) 0.7272(7) 0.0509(4)
O3 O 0.1562(4) 0.6847(8) 0.1510(4)
O4 O 0.3450(4) 0.4500(6) 0.3291(4)
O5 O 0.4290(4) 0.3542(6) 0.2952(3)
O6 O 0.4727(4) 0.4454(6) 0.0654(4)
Dy3 Dy 0.42514(3) 0.32868(4) 0.41695(3)
Dy4 Dy 0.57486(3) 0.32868(4) 0.08305(3)
O9 O 0.1162(3) 0.9653(6) 0.0184(4)
O10 O 0.1550(4) 0.9500(6) 0.1709(4)
O11 O 0.0710(4) 0.8542(6) 0.2048(3)
O1 O 0.3838(3) 0.5347(6) 0.9816(4)
O7 O 0.0155(5) 0.7668(7) 0.9669(4)
Dy2 Dy 0.42514(3) 0.67132(4) 0.91695(3)
C13 C 0.9473(6) 0.6798(10) 0.1339(7)
H11 H 0.9729 0.7015 0.1807
C14 C 0.8403(12) 0.5834(19) 0.0547(13)
H12 H 0.8206 0.6424 0.0196
H13 H 0.7994 0.5364 0.0599
H14 H 0.8753 0.5360 0.0394
C15 C 0.8426(8) 0.6151(14) 0.1811(9)
H15 H 0.8649 0.6647 0.2212
H16 H 0.8501 0.5359 0.1963
H17 H 0.7893 0.6308 0.1631
N2 N 0.8791(6) 0.6365(10) 0.1231(7)
O8 O 0.9809(4) 0.6948(7) 0.0892(4)
O12 O 0.9727(4) 0.9454(6) 0.0654(4)
C2_2 C 0.8643(5) 0.0139(9) 0.0951(5)
C3_2 C 0.8005(5) 0.0813(8) 0.0767(5)
H1_2 H 0.7845 0.1157 0.0317
C4_2 C 0.7604(6) 0.0980(9) 0.1248(6)
C5_2 C 0.7845(5) 0.0444(8) 0.1913(5)
H2_2 H 0.7571 0.0548 0.2238
C8_2 C 0.6926(5) 0.1770(10) 0.1062(5)
C13_2 C 0.4473(6) 0.1798(10) 0.1339(7)
H11_2 H 0.4729 0.2015 0.1807
C14_2 C 0.3403(12) 0.0834(19) 0.0547(13)
H12_2 H 0.3206 0.1424 0.0196
H13_2 H 0.2994 0.0364 0.0599
H14_2 H 0.3753 0.0360 0.0394
C15_2 C 0.3426(8) 0.1151(14) 0.1811(9)
H15_2 H 0.3649 0.1647 0.2212
H16_2 H 0.3501 0.0359 0.1963
H17_2 H 0.2893 0.1308 0.1631
N2_2 N 0.3791(6) 0.1365(10) 0.1231(7)
O2_2 O 0.6731(5) 0.2272(7) 0.0509(4)
O3_2 O 0.6562(4) 0.1847(8) 0.1510(4)
O8_2 O 0.4809(4) 0.1948(7) 0.0892(4)
O9_2 O 0.6162(3) 0.4653(6) 0.0184(4)
O10_2 O 0.6550(4) 0.4500(6) 0.1709(4)
O11_2 O 0.5710(4) 0.3542(6) 0.2048(3)
C10 C 0.4527(8) 0.2735(11) 0.9238(7)
H4 H 0.4327 0.3476 0.9160
C11 C 0.3413(8) 0.2169(14) 0.8367(10)
H5 H 0.3208 0.2885 0.8473
H6 H 0.3068 0.1552 0.8373
H7 H 0.3486 0.2213 0.7901
C12 C 0.4386(8) 0.0832(13) 0.9011(9)
H8 H 0.4372 0.0474 0.8564
H9 H 0.4078 0.0400 0.9238
H10 H 0.4899 0.0848 0.9319
N1 N 0.4111(6) 0.1957(9) 0.8885(6)
O1_2 O 0.8838(3) 0.0347(6) 0.9816(4)
O7_2 O 0.5155(5) 0.2668(7) 0.9669(4)
Dy2_2 Dy 0.92514(3) 0.17132(4) 0.91695(3)
C1_2 C 0.9103(5) 0.9965(9) 0.0438(5)
C6_2 C 0.8479(5) 0.9767(9) 0.2097(5)
C7_2 C 0.8885(5) 0.9593(8) 0.1609(5)
H3_2 H 0.9310 0.9118 0.1723
C9_2 C 0.8760(6) 0.9220(9) 0.2829(6)
O4_2 O 0.8450(4) 0.9500(6) 0.3291(4)
O5_2 O 0.9290(4) 0.8542(6) 0.2952(3)
Dy3_2 Dy 0.92514(3) 0.82868(4) 0.41695(3)
C10_2 C 0.0473(8) 0.7735(11) 0.5762(7)
H4_2 H 0.0673 0.8476 0.5840
C11_2 C 0.1587(8) 0.7169(14) 0.6633(10)
H5_2 H 0.1792 0.7885 0.6527
H6_2 H 0.1932 0.6552 0.6627
H7_2 H 0.1514 0.7213 0.7099
C12_2 C 0.0614(8) 0.5832(13) 0.5989(9)
H8_2 H 0.0628 0.5474 0.6436
H9_2 H 0.0922 0.5400 0.5762
H10_2 H 0.0101 0.5848 0.5681
C13_3 C 0.0527(6) 0.6798(10) 0.3661(7)
H11_3 H 0.0271 0.7015 0.3193
C14_3 C 0.1597(12) 0.5834(19) 0.4453(13)
H12_3 H 0.1794 0.6424 0.4804
H13_3 H 0.2006 0.5364 0.4401
H14_3 H 0.1247 0.5360 0.4606
C15_3 C 0.1574(8) 0.6151(14) 0.3189(9)
H15_3 H 0.1351 0.6647 0.2788
H16_3 H 0.1499 0.5359 0.3037
H17_3 H 0.2107 0.6308 0.3369
N1_2 N 0.0889(6) 0.6957(9) 0.6115(6)
N2_3 N 0.1209(6) 0.6365(10) 0.3769(7)
O8_3 O 0.0191(4) 0.6948(7) 0.4108(4)
O12_2 O 0.0273(4) 0.9454(6) 0.4346(4)
C1_3 C 0.5897(5) 0.4965(9) 0.4562(5)
C2_3 C 0.6357(5) 0.5139(9) 0.4049(5)
C3_3 C 0.6995(5) 0.5813(8) 0.4233(5)
H1_3 H 0.7155 0.6157 0.4683
C4_3 C 0.7396(6) 0.5980(9) 0.3752(6)
C5_3 C 0.7155(5) 0.5444(8) 0.3087(5)
H2_3 H 0.7429 0.5548 0.2762
C6_3 C 0.6521(5) 0.4767(9) 0.2903(5)
C7_3 C 0.6115(5) 0.4593(8) 0.3391(5)
H3_3 H 0.5690 0.4118 0.3277
C8_3 C 0.8074(5) 0.6770(10) 0.3938(5)
C9_3 C 0.6240(6) 0.4220(9) 0.2171(6)
O1_3 O 0.6162(3) 0.5347(6) 0.5184(4)
O2_3 O 0.8269(5) 0.7272(7) 0.4491(4)
O3_3 O 0.8438(4) 0.6847(8) 0.3490(4)
O6_2 O 0.5273(4) 0.4454(6) 0.4346(4)
O7_3 O 0.9845(5) 0.7668(7) 0.5331(4)
Dy2_3 Dy 0.57486(3) 0.67132(4) 0.58305(3)
O9_3 O 0.8838(3) 0.9653(6) 0.4816(4)
C2_4 C 0.1357(5) 0.0139(9) 0.4049(5)
C3_4 C 0.1995(5) 0.0813(8) 0.4233(5)
H1_4 H 0.2155 0.1157 0.4683
C4_4 C 0.2396(6) 0.0980(9) 0.3752(6)
C5_4 C 0.2155(5) 0.0444(8) 0.3087(5)
H2_4 H 0.2429 0.0548 0.2762
C8_4 C 0.3074(5) 0.1770(10) 0.3938(5)
C10_3 C 0.5473(8) 0.2735(11) 0.5762(7)
H4_3 H 0.5673 0.3476 0.5840
C11_3 C 0.6587(8) 0.2169(14) 0.6633(10)
H5_3 H 0.6792 0.2885 0.6527
H6_3 H 0.6932 0.1552 0.6627
H7_3 H 0.6514 0.2213 0.7099
C12_3 C 0.5614(8) 0.0832(13) 0.5989(9)
H8_3 H 0.5628 0.0474 0.6436
H9_3 H 0.5922 0.0400 0.5762
H10_3 H 0.5101 0.0848 0.5681
C13_4 C 0.5527(6) 0.1798(10) 0.3661(7)
H11_4 H 0.5271 0.2015 0.3193
C14_4 C 0.6597(12) 0.0834(19) 0.4453(13)
H12_4 H 0.6794 0.1424 0.4804
H13_4 H 0.7006 0.0364 0.4401
H14_4 H 0.6247 0.0360 0.4606
C15_4 C 0.6574(8) 0.1151(14) 0.3189(9)
H15_4 H 0.6351 0.1647 0.2788
H16_4 H 0.6499 0.0359 0.3037
H17_4 H 0.7107 0.1308 0.3369
N1_3 N 0.5889(6) 0.1957(9) 0.6115(6)
N2_4 N 0.6209(6) 0.1365(10) 0.3769(7)
O1_4 O 0.1162(3) 0.0347(6) 0.5184(4)
O2_4 O 0.3269(5) 0.2272(7) 0.4491(4)
O3_4 O 0.3438(4) 0.1847(8) 0.3490(4)
O7_4 O 0.4845(5) 0.2668(7) 0.5331(4)
O8_4 O 0.5191(4) 0.1948(7) 0.4108(4)
Dy2_4 Dy 0.07486(3) 0.17132(4) 0.58305(3)
O9_4 O 0.3838(3) 0.4653(6) 0.4816(4)
C1_4 C 0.0897(5) 0.9965(9) 0.4562(5)
C6_4 C 0.1521(5) 0.9767(9) 0.2903(5)
C7_4 C 0.1115(5) 0.9593(8) 0.3391(5)
H3_4 H 0.0690 0.9118 0.3277
C9_4 C 0.1240(6) 0.9220(9) 0.2171(6)
C13_5 C 0.0527(6) 0.3202(10) 0.8661(7)
H11_5 H 0.0271 0.2985 0.8193
C14_5 C 0.1597(12) 0.4166(19) 0.9453(13)
H12_5 H 0.1794 0.3576 0.9804
H13_5 H 0.2006 0.4636 0.9401
H14_5 H 0.1247 0.4640 0.9606
C15_5 C 0.1574(8) 0.3849(14) 0.8189(9)
H15_5 H 0.1351 0.3353 0.7788
H16_5 H 0.1499 0.4641 0.8037
H17_5 H 0.2107 0.3692 0.8369
N2_5 N 0.1209(6) 0.3635(10) 0.8769(7)
O8_5 O 0.0191(4) 0.3052(7) 0.9108(4)
O12_3 O 0.0273(4) 0.0546(6) 0.9346(4)
O7_5 O 0.9845(5) 0.2332(7) 0.0331(4)
C1_5 C 0.5897(5) 0.5035(9) 0.9562(5)
C2_5 C 0.6357(5) 0.4861(9) 0.9049(5)
C3_5 C 0.6995(5) 0.4187(8) 0.9233(5)
H1_5 H 0.7155 0.3843 0.9683
C4_5 C 0.7396(6) 0.4020(9) 0.8752(6)
C5_5 C 0.7155(5) 0.4556(8) 0.8087(5)
H2_5 H 0.7429 0.4452 0.7762
C6_5 C 0.6521(5) 0.5233(9) 0.7903(5)
C7_5 C 0.6115(5) 0.5407(8) 0.8391(5)
H3_5 H 0.5690 0.5882 0.8277
C8_5 C 0.8074(5) 0.3230(10) 0.8938(5)
C9_5 C 0.6240(6) 0.5780(9) 0.7171(6)
O2_5 O 0.8269(5) 0.2728(7) 0.9491(4)
O3_5 O 0.8438(4) 0.3153(8) 0.8490(4)
O4_3 O 0.6550(4) 0.5500(6) 0.6709(4)
O5_3 O 0.5710(4) 0.6458(6) 0.7048(3)
O6_3 O 0.5273(4) 0.5546(6) 0.9346(4)
O10_3 O 0.8450(4) 0.0500(6) 0.8291(4)
O11_3 O 0.9290(4) 0.1458(6) 0.7952(3)
C1_6 C 0.0897(5) 0.0035(9) 0.9562(5)
C6_6 C 0.1521(5) 0.0233(9) 0.7903(5)
C7_6 C 0.1115(5) 0.0407(8) 0.8391(5)
H3_6 H 0.0690 0.0882 0.8277
C9_6 C 0.1240(6) 0.0780(9) 0.7171(6)
O4_4 O 0.1550(4) 0.0500(6) 0.6709(4)
O5_4 O 0.0710(4) 0.1458(6) 0.7048(3)
C10_4 C 0.5473(8) 0.7265(11) 0.0762(7)
H4_4 H 0.5673 0.6524 0.0840
C11_4 C 0.6587(8) 0.7831(14) 0.1633(10)
H5_4 H 0.6792 0.7115 0.1527
H6_4 H 0.6932 0.8448 0.1627
H7_4 H 0.6514 0.7787 0.2099
C12_4 C 0.5614(8) 0.9168(13) 0.0989(9)
H8_4 H 0.5628 0.9526 0.1436
H9_4 H 0.5922 0.9600 0.0762
H10_4 H 0.5101 0.9152 0.0681
N1_4 N 0.5889(6) 0.8043(9) 0.1115(6)
O7_6 O 0.4845(5) 0.7332(7) 0.0331(4)
C2_6 C 0.1357(5) 0.9861(9) 0.9049(5)
C3_6 C 0.1995(5) 0.9187(8) 0.9233(5)
H1_6 H 0.2155 0.8843 0.9683
C4_6 C 0.2396(6) 0.9020(9) 0.8752(6)
C5_6 C 0.2155(5) 0.9556(8) 0.8087(5)
H2_6 H 0.2429 0.9452 0.7762
C8_6 C 0.3074(5) 0.8230(10) 0.8938(5)
C13_6 C 0.5527(6) 0.8202(10) 0.8661(7)
H11_6 H 0.5271 0.7985 0.8193
C14_6 C 0.6597(12) 0.9166(19) 0.9453(13)
H12_6 H 0.6794 0.8576 0.9804
H13_6 H 0.7006 0.9636 0.9401
H14_6 H 0.6247 0.9640 0.9606
C15_6 C 0.6574(8) 0.8849(14) 0.8189(9)
H15_6 H 0.6351 0.8353 0.7788
H16_6 H 0.6499 0.9641 0.8037
H17_6 H 0.7107 0.8692 0.8369
N2_6 N 0.6209(6) 0.8635(10) 0.8769(7)
O2_6 O 0.3269(5) 0.7728(7) 0.9491(4)
O3_6 O 0.3438(4) 0.8153(8) 0.8490(4)
O8_6 O 0.5191(4) 0.8052(7) 0.9108(4)
O10_4 O 0.3450(4) 0.5500(6) 0.8291(4)
O11_4 O 0.4290(4) 0.6458(6) 0.7952(3)
C1_7 C 0.4103(5) 0.5035(9) 0.5438(5)
C2_7 C 0.3643(5) 0.4861(9) 0.5951(5)
C3_7 C 0.3005(5) 0.4187(8) 0.5767(5)
H1_7 H 0.2845 0.3843 0.5317
C4_7 C 0.2604(6) 0.4020(9) 0.6248(6)
C5_7 C 0.2845(5) 0.4556(8) 0.6913(5)
H2_7 H 0.2571 0.4452 0.7238
C6_7 C 0.3479(5) 0.5233(9) 0.7097(5)
C7_7 C 0.3885(5) 0.5407(8) 0.6609(5)
H3_7 H 0.4310 0.5882 0.6723
C8_7 C 0.1926(5) 0.3230(10) 0.6062(5)
C9_7 C 0.3760(6) 0.5780(9) 0.7829(6)
O2_7 O 0.1731(5) 0.2728(7) 0.5509(4)
O3_7 O 0.1562(4) 0.3153(8) 0.6510(4)
O6_4 O 0.4727(4) 0.5546(6) 0.5654(4)
O7_7 O 0.0155(5) 0.2332(7) 0.4669(4)
C10_5 C 0.9527(8) 0.2265(11) 0.4238(7)
H4_5 H 0.9327 0.1524 0.4160
C11_5 C 0.8413(8) 0.2831(14) 0.3367(10)
H5_5 H 0.8208 0.2115 0.3473
H6_5 H 0.8068 0.3448 0.3373
H7_5 H 0.8486 0.2787 0.2901
C12_5 C 0.9386(8) 0.4168(13) 0.4011(9)
H8_5 H 0.9372 0.4526 0.3564
H9_5 H 0.9078 0.4600 0.4238
H10_5 H 0.9899 0.4152 0.4319
C13_7 C 0.9473(6) 0.3202(10) 0.6339(7)
H11_7 H 0.9729 0.2985 0.6807
C14_7 C 0.8403(12) 0.4166(19) 0.5547(13)
H12_7 H 0.8206 0.3576 0.5196
H13_7 H 0.7994 0.4636 0.5599
H14_7 H 0.8753 0.4640 0.5394
C15_7 C 0.8426(8) 0.3849(14) 0.6811(9)
H15_7 H 0.8649 0.3353 0.7212
H16_7 H 0.8501 0.4641 0.6963
H17_7 H 0.7893 0.3692 0.6631
N1_5 N 0.9111(6) 0.3043(9) 0.3885(6)
N2_7 N 0.8791(6) 0.3635(10) 0.6231(7)
O8_7 O 0.9809(4) 0.3052(7) 0.5892(4)
O12_4 O 0.9727(4) 0.0546(6) 0.5654(4)
C1_8 C 0.9103(5) 0.0035(9) 0.5438(5)
C6_8 C 0.8479(5) 0.0233(9) 0.7097(5)
C7_8 C 0.8885(5) 0.0407(8) 0.6609(5)
H3_8 H 0.9310 0.0882 0.6723
C9_8 C 0.8760(6) 0.0780(9) 0.7829(6)
C2_8 C 0.8643(5) 0.9861(9) 0.5951(5)
C3_8 C 0.8005(5) 0.9187(8) 0.5767(5)
H1_8 H 0.7845 0.8843 0.5317
C4_8 C 0.7604(6) 0.9020(9) 0.6248(6)
C5_8 C 0.7845(5) 0.9556(8) 0.6913(5)
H2_8 H 0.7571 0.9452 0.7238
C8_8 C 0.6926(5) 0.8230(10) 0.6062(5)
C10_6 C 0.4527(8) 0.7265(11) 0.4238(7)
H4_6 H 0.4327 0.6524 0.4160
C11_6 C 0.3413(8) 0.7831(14) 0.3367(10)
H5_6 H 0.3208 0.7115 0.3473
H6_6 H 0.3068 0.8448 0.3373
H7_6 H 0.3486 0.7787 0.2901
C12_6 C 0.4386(8) 0.9168(13) 0.4011(9)
H8_6 H 0.4372 0.9526 0.3564
H9_6 H 0.4078 0.9600 0.4238
H10_6 H 0.4899 0.9152 0.4319
C13_8 C 0.4473(6) 0.8202(10) 0.6339(7)
H11_8 H 0.4729 0.7985 0.6807
C14_8 C 0.3403(12) 0.9166(19) 0.5547(13)
H12_8 H 0.3206 0.8576 0.5196
H13_8 H 0.2994 0.9636 0.5599
H14_8 H 0.3753 0.9640 0.5394
C15_8 C 0.3426(8) 0.8849(14) 0.6811(9)
H15_8 H 0.3649 0.8353 0.7212
H16_8 H 0.3501 0.9641 0.6963
H17_8 H 0.2893 0.8692 0.6631
N1_6 N 0.4111(6) 0.8043(9) 0.3885(6)
N2_8 N 0.3791(6) 0.8635(10) 0.6231(7)
O2_8 O 0.6731(5) 0.7728(7) 0.5509(4)
O3_8 O 0.6562(4) 0.8153(8) 0.6510(4)
O7_8 O 0.5155(5) 0.7332(7) 0.4669(4)
O8_8 O 0.4809(4) 0.8052(7) 0.5892(4)
C10_7 C 0.9527(8) 0.7735(11) 0.9238(7)
H4_7 H 0.9327 0.8476 0.9160
C11_7 C 0.8413(8) 0.7169(14) 0.8367(10)
H5_7 H 0.8208 0.7885 0.8473
H6_7 H 0.8068 0.6552 0.8373
H7_7 H 0.8486 0.7213 0.7901
C12_7 C 0.9386(8) 0.5832(13) 0.9011(9)
H8_7 H 0.9372 0.5474 0.8564
H9_7 H 0.9078 0.5400 0.9238
H10_7 H 0.9899 0.5848 0.9319
N1_7 N 0.9111(6) 0.6957(9) 0.8885(6)
C10_8 C 0.0473(8) 0.2265(11) 0.0762(7)
H4_8 H 0.0673 0.1524 0.0840
C11_8 C 0.1587(8) 0.2831(14) 0.1633(10)
H5_8 H 0.1792 0.2115 0.1527
H6_8 H 0.1932 0.3448 0.1627
H7_8 H 0.1514 0.2787 0.2099
C12_8 C 0.0614(8) 0.4168(13) 0.0989(9)
H8_8 H 0.0628 0.4526 0.1436
H9_8 H 0.0922 0.4600 0.0762
H10_8 H 0.0101 0.4152 0.0681
N1_8 N 0.0889(6) 0.3043(9) 0.1115(6)
loop_
_geom_bond_atom_site_label_1
_geom_bond_atom_site_label_2
_geom_bond_site_symmetry_1
_geom_bond_site_symmetry_2
Dy1 O2 1_555 1_555
C1 C2 1_555 1_555
C2 C3 1_555 1_555
C3 H1 1_555 1_555
C4 C3 1_555 1_555
C5 C4 1_555 1_555
H2 C5 1_555 1_555
C6 C5 1_555 1_555
C7 C2 1_555 1_555
H3 C7 1_555 1_555
C8 C4 1_555 1_555
C9 C6 1_555 1_555
O2 C8 1_555 1_555
O3 Dy1 1_555 1_555
O4 C9 1_555 1_555
O5 C9 1_555 1_555
O6 C1 1_555 1_555
Dy3 O4 1_555 1_555
Dy4 O6 1_555 1_555
O9 Dy1 1_555 1_555
O10 Dy1 1_555 1_555
O11 Dy1 1_555 1_555
C6 C7 1_555 1_555
C8 O3 1_555 1_555
O5 Dy3 1_555 1_555
Dy2 O1 1_555 1_555
C13 H11 1_555 1_555
C14 H12 1_555 1_555
H13 C14 1_555 1_555
H14 C14 1_555 1_555
C15 H15 1_555 1_555
H16 C15 1_555 1_555
H17 C15 1_555 1_555
N2 C13 1_555 1_555
C13 O8 1_555 1_555
C14 N2 1_555 1_555
C15 N2 1_555 1_555
Dy4 O2_2 1_555 1_555
C2_2 C3_2 1_555 1_555
C3_2 H1_2 1_555 1_555
C4_2 C3_2 1_555 1_555
C5_2 C4_2 1_555 1_555
H2_2 C5_2 1_555 1_555
C8_2 C4_2 1_555 1_555
C13_2 H11_2 1_555 1_555
C14_2 H12_2 1_555 1_555
H13_2 C14_2 1_555 1_555
H14_2 C14_2 1_555 1_555
C15_2 H15_2 1_555 1_555
H16_2 C15_2 1_555 1_555
H17_2 C15_2 1_555 1_555
N2_2 C13_2 1_555 1_555
O2_2 C8_2 1_555 1_555
O3_2 Dy4 1_555 1_555
O8_2 Dy4 1_555 1_555
O9_2 Dy4 1_555 1_555
O10_2 Dy4 1_555 1_555
O11_2 Dy4 1_555 1_555
C8_2 O3_2 1_555 1_555
C13_2 O8_2 1_555 1_555
C14_2 N2_2 1_555 1_555
C15_2 N2_2 1_555 1_555
C10 H4 1_555 1_555
C11 H5 1_555 1_555
H6 C11 1_555 1_555
H7 C11 1_555 1_555
C12 H8 1_555 1_555
H9 C12 1_555 1_555
H10 C12 1_555 1_555
N1 C10 1_555 1_555
Dy2_2 O1_2 1_555 1_555
C10 O7_2 1_555 1_555
C11 N1 1_555 1_555
C12 N1 1_555 1_555
H3_2 C7_2 1_555 1_555
C9_2 C6_2 1_555 1_555
O4_2 C9_2 1_555 1_555
O5_2 C9_2 1_555 1_555
O12 C1_2 1_555 1_555
Dy3_2 O4_2 1_555 1_555
C6_2 C7_2 1_555 1_555
O5_2 Dy3_2 1_555 1_555
C10_2 H4_2 1_555 1_555
C11_2 H5_2 1_555 1_555
H6_2 C11_2 1_555 1_555
H7_2 C11_2 1_555 1_555
C12_2 H8_2 1_555 1_555
H9_2 C12_2 1_555 1_555
H10_2 C12_2 1_555 1_555
C13_3 H11_3 1_555 1_555
C14_3 H12_3 1_555 1_555
H13_3 C14_3 1_555 1_555
H14_3 C14_3 1_555 1_555
C15_3 H15_3 1_555 1_555
H16_3 C15_3 1_555 1_555
H17_3 C15_3 1_555 1_555
N1_2 C10_2 1_555 1_555
N2_3 C13_3 1_555 1_555
C11_2 N1_2 1_555 1_555
C12_2 N1_2 1_555 1_555
C13_3 O8_3 1_555 1_555
C14_3 N2_3 1_555 1_555
C15_3 N2_3 1_555 1_555
Dy3_2 O2_3 1_555 1_555
C1_3 C2_3 1_555 1_555
C2_3 C3_3 1_555 1_555
C3_3 H1_3 1_555 1_555
C4_3 C3_3 1_555 1_555
C5_3 C4_3 1_555 1_555
H2_3 C5_3 1_555 1_555
C6_3 C5_3 1_555 1_555
C7_3 C2_3 1_555 1_555
H3_3 C7_3 1_555 1_555
C8_3 C4_3 1_555 1_555
C9_3 C6_3 1_555 1_555
O1_3 C1_3 1_555 1_555
O2_3 C8_3 1_555 1_555
O3_3 Dy3_2 1_555 1_555
O10_2 C9_3 1_555 1_555
O11_2 C9_3 1_555 1_555
O6_2 C1_3 1_555 1_555
O7_3 Dy3_2 1_555 1_555
Dy2_3 O1_3 1_555 1_555
Dy3 O6_2 1_555 1_555
O9_3 Dy3_2 1_555 1_555
C6_3 C7_3 1_555 1_555
C8_3 O3_3 1_555 1_555
Dy3 O2_4 1_555 1_555
C2_4 C3_4 1_555 1_555
C3_4 H1_4 1_555 1_555
C4_4 C3_4 1_555 1_555
C5_4 C4_4 1_555 1_555
H2_4 C5_4 1_555 1_555
C8_4 C4_4 1_555 1_555
C10_3 H4_3 1_555 1_555
C11_3 H5_3 1_555 1_555
H6_3 C11_3 1_555 1_555
H7_3 C11_3 1_555 1_555
C12_3 H8_3 1_555 1_555
H9_3 C12_3 1_555 1_555
H10_3 C12_3 1_555 1_555
C13_4 H11_4 1_555 1_555
C14_4 H12_4 1_555 1_555
H13_4 C14_4 1_555 1_555
H14_4 C14_4 1_555 1_555
C15_4 H15_4 1_555 1_555
H16_4 C15_4 1_555 1_555
H17_4 C15_4 1_555 1_555
N1_3 C10_3 1_555 1_555
N2_4 C13_4 1_555 1_555
O2_4 C8_4 1_555 1_555
O3_4 Dy3 1_555 1_555
O7_4 Dy3 1_555 1_555
O8_4 Dy3 1_555 1_555
Dy2_4 O1_4 1_555 1_555
O9_4 Dy3 1_555 1_555
C8_4 O3_4 1_555 1_555
C10_3 O7_4 1_555 1_555
C11_3 N1_3 1_555 1_555
C12_3 N1_3 1_555 1_555
C13_4 O8_4 1_555 1_555
C14_4 N2_4 1_555 1_555
C15_4 N2_4 1_555 1_555
H3_4 C7_4 1_555 1_555
C9_4 C6_4 1_555 1_555
O10 C9_4 1_555 1_555
O11 C9_4 1_555 1_555
O12_2 C1_4 1_555 1_555
C6_4 C7_4 1_555 1_555
C13_5 H11_5 1_555 1_555
C14_5 H12_5 1_555 1_555
H13_5 C14_5 1_555 1_555
H14_5 C14_5 1_555 1_555
C15_5 H15_5 1_555 1_555
H16_5 C15_5 1_555 1_555
H17_5 C15_5 1_555 1_555
N2_5 C13_5 1_555 1_555
C13_5 O8_5 1_555 1_555
C14_5 N2_5 1_555 1_555
C15_5 N2_5 1_555 1_555
Dy2_2 O2_5 1_555 1_555
C1_5 C2_5 1_555 1_555
C2_5 C3_5 1_555 1_555
C3_5 H1_5 1_555 1_555
C4_5 C3_5 1_555 1_555
C5_5 C4_5 1_555 1_555
H2_5 C5_5 1_555 1_555
C6_5 C5_5 1_555 1_555
C7_5 C2_5 1_555 1_555
H3_5 C7_5 1_555 1_555
C8_5 C4_5 1_555 1_555
C9_5 C6_5 1_555 1_555
O2_5 C8_5 1_555 1_555
O3_5 Dy2_2 1_555 1_555
O4_3 C9_5 1_555 1_555
O5_3 C9_5 1_555 1_555
O6_3 C1_5 1_555 1_555
Dy2_3 O4_3 1_555 1_555
Dy2 O6_3 1_555 1_555
O10_3 Dy2_2 1_555 1_555
O11_3 Dy2_2 1_555 1_555
C6_5 C7_5 1_555 1_555
C8_5 O3_5 1_555 1_555
O5_3 Dy2_3 1_555 1_555
H3_6 C7_6 1_555 1_555
C9_6 C6_6 1_555 1_555
O4_4 C9_6 1_555 1_555
O5_4 C9_6 1_555 1_555
O12_3 C1_6 1_555 1_555
Dy2_4 O4_4 1_555 1_555
C6_6 C7_6 1_555 1_555
O5_4 Dy2_4 1_555 1_555
C10_4 H4_4 1_555 1_555
C11_4 H5_4 1_555 1_555
H6_4 C11_4 1_555 1_555
H7_4 C11_4 1_555 1_555
C12_4 H8_4 1_555 1_555
H9_4 C12_4 1_555 1_555
H10_4 C12_4 1_555 1_555
N1_4 C10_4 1_555 1_555
C10_4 O7_6 1_555 1_555
C11_4 N1_4 1_555 1_555
C12_4 N1_4 1_555 1_555
Dy2 O2_6 1_555 1_555
C2_6 C3_6 1_555 1_555
C3_6 H1_6 1_555 1_555
C4_6 C3_6 1_555 1_555
C5_6 C4_6 1_555 1_555
H2_6 C5_6 1_555 1_555
C8_6 C4_6 1_555 1_555
C13_6 H11_6 1_555 1_555
C14_6 H12_6 1_555 1_555
H13_6 C14_6 1_555 1_555
H14_6 C14_6 1_555 1_555
C15_6 H15_6 1_555 1_555
H16_6 C15_6 1_555 1_555
H17_6 C15_6 1_555 1_555
N2_6 C13_6 1_555 1_555
O2_6 C8_6 1_555 1_555
O3_6 Dy2 1_555 1_555
O8_6 Dy2 1_555 1_555
O10_4 Dy2 1_555 1_555
O11_4 Dy2 1_555 1_555
C8_6 O3_6 1_555 1_555
C13_6 O8_6 1_555 1_555
C14_6 N2_6 1_555 1_555
C15_6 N2_6 1_555 1_555
Dy2_4 O2_7 1_555 1_555
C1_7 C2_7 1_555 1_555
C2_7 C3_7 1_555 1_555
C3_7 H1_7 1_555 1_555
C4_7 C3_7 1_555 1_555
C5_7 C4_7 1_555 1_555
H2_7 C5_7 1_555 1_555
C6_7 C5_7 1_555 1_555
C7_7 C2_7 1_555 1_555
H3_7 C7_7 1_555 1_555
C8_7 C4_7 1_555 1_555
C9_7 C6_7 1_555 1_555
O9_4 C1_7 1_555 1_555
O2_7 C8_7 1_555 1_555
O3_7 Dy2_4 1_555 1_555
O10_4 C9_7 1_555 1_555
O11_4 C9_7 1_555 1_555
O6_4 C1_7 1_555 1_555
O7_7 Dy2_4 1_555 1_555
Dy2_3 O6_4 1_555 1_555
C6_7 C7_7 1_555 1_555
C8_7 O3_7 1_555 1_555
C10_5 H4_5 1_555 1_555
C11_5 H5_5 1_555 1_555
H6_5 C11_5 1_555 1_555
H7_5 C11_5 1_555 1_555
C12_5 H8_5 1_555 1_555
H9_5 C12_5 1_555 1_555
H10_5 C12_5 1_555 1_555
C13_7 H11_7 1_555 1_555
C14_7 H12_7 1_555 1_555
H13_7 C14_7 1_555 1_555
H14_7 C14_7 1_555 1_555
C15_7 H15_7 1_555 1_555
H16_7 C15_7 1_555 1_555
H17_7 C15_7 1_555 1_555
N1_5 C10_5 1_555 1_555
N2_7 C13_7 1_555 1_555
C11_5 N1_5 1_555 1_555
C12_5 N1_5 1_555 1_555
C13_7 O8_7 1_555 1_555
C14_7 N2_7 1_555 1_555
C15_7 N2_7 1_555 1_555
H3_8 C7_8 1_555 1_555
C9_8 C6_8 1_555 1_555
O10_3 C9_8 1_555 1_555
O11_3 C9_8 1_555 1_555
O12_4 C1_8 1_555 1_555
C6_8 C7_8 1_555 1_555
Dy2_3 O2_8 1_555 1_555
C2_8 C3_8 1_555 1_555
C3_8 H1_8 1_555 1_555
C4_8 C3_8 1_555 1_555
C5_8 C4_8 1_555 1_555
H2_8 C5_8 1_555 1_555
C8_8 C4_8 1_555 1_555
C10_6 H4_6 1_555 1_555
C11_6 H5_6 1_555 1_555
H6_6 C11_6 1_555 1_555
H7_6 C11_6 1_555 1_555
C12_6 H8_6 1_555 1_555
H9_6 C12_6 1_555 1_555
H10_6 C12_6 1_555 1_555
C13_8 H11_8 1_555 1_555
C14_8 H12_8 1_555 1_555
H13_8 C14_8 1_555 1_555
H14_8 C14_8 1_555 1_555
C15_8 H15_8 1_555 1_555
H16_8 C15_8 1_555 1_555
H17_8 C15_8 1_555 1_555
N1_6 C10_6 1_555 1_555
N2_8 C13_8 1_555 1_555
O2_8 C8_8 1_555 1_555
O3_8 Dy2_3 1_555 1_555
O7_8 Dy2_3 1_555 1_555
O8_8 Dy2_3 1_555 1_555
C8_8 O3_8 1_555 1_555
C10_6 O7_8 1_555 1_555
C11_6 N1_6 1_555 1_555
C12_6 N1_6 1_555 1_555
C13_8 O8_8 1_555 1_555
C14_8 N2_8 1_555 1_555
C15_8 N2_8 1_555 1_555
C10_7 H4_7 1_555 1_555
C11_7 H5_7 1_555 1_555
H6_7 C11_7 1_555 1_555
H7_7 C11_7 1_555 1_555
C12_7 H8_7 1_555 1_555
H9_7 C12_7 1_555 1_555
H10_7 C12_7 1_555 1_555
N1_7 C10_7 1_555 1_555
C11_7 N1_7 1_555 1_555
C12_7 N1_7 1_555 1_555
C10_8 H4_8 1_555 1_555
C11_8 H5_8 1_555 1_555
H6_8 C11_8 1_555 1_555
H7_8 C11_8 1_555 1_555
C12_8 H8_8 1_555 1_555
H9_8 C12_8 1_555 1_555
H10_8 C12_8 1_555 1_555
N1_8 C10_8 1_555 1_555
C11_8 N1_8 1_555 1_555
C12_8 N1_8 1_555 1_555

#END
