
###############################################################################
#
# This file contains modified crystal structure data generated from the
# MOF subset of the Cambridge Structural Database (CSD) v543 
# hosted by the Cambridge Crystallographic Data Centre (CCDC).
#
# This work is licensed under the Creative Commons
# Attribution-NonCommercial-ShareAlike 4.0 International License.
# To view a copy of this license, visit
# http://creativecommons.org/licenses/by-nc-sa/4.0/
# or send a letter to
# Creative Commons, PO Box 1866, Mountain View, CA 94042, USA.
#
# CIF created using the CSD Python API on 29 September 2022
# The structure has been converted into the P1 space group
# The structure has a 3D framework
# The original CSD entry NIGFOZ is in the monoclinic crystal system
# The framework has been calculated to contain at least 10.0% void space
# The void calculation uses a probe of radius 1.32A, grid spacing 0.4
#
###############################################################################

data_NIGFOZ
_chemical_formula_moiety         '(C120 H136 N16 O58 Tb8)n'
_symmetry_cell_setting           triclinic
_symmetry_space_group_name_H-M   'P 1'
_symmetry_Int_Tables_number      1
_space_group_name_Hall           'P 1'
loop_
_symmetry_equiv_pos_site_id
_symmetry_equiv_pos_as_xyz
1 x,y,z
_cell_length_a                   18.568(3)
_cell_length_b                   11.630(2)
_cell_length_c                   19.741(4)
_cell_angle_alpha                90
_cell_angle_beta                 107.202(4)
_cell_angle_gamma                90
_cell_volume                     4072.3
loop_
_atom_site_label
_atom_site_type_symbol
_atom_site_fract_x
_atom_site_fract_y
_atom_site_fract_z
Tb1 Tb 0.425372(19) 0.32777(3) 0.417076(18)
C1 C 0.3768(4) 0.4216(6) 0.2822(4)
C2 C 0.3479(4) 0.4743(6) 0.2098(4)
C3 C 0.2851(4) 0.5424(6) 0.1911(4)
H1 H 0.2579 0.5534 0.2233
C4 C 0.2607(4) 0.5957(7) 0.1252(4)
C5 C 0.3013(4) 0.5807(6) 0.0763(4)
H2 H 0.2859 0.6166 0.0323
C6 C 0.3648(4) 0.5114(6) 0.0948(4)
C7 C 0.3881(4) 0.4588(6) 0.1605(4)
H3 H 0.4309 0.4126 0.1722
C8 C 0.1930(4) 0.6731(6) 0.1075(4)
C9 C 0.4106(4) 0.4955(6) 0.0437(4)
C10 C 0.5508(6) 0.1769(7) 0.3679(5)
H4 H 0.5237 0.1952 0.3215
C11 C 0.6568(8) 0.1169(13) 0.3196(8)
H5 H 0.6633 0.0361 0.3135
H6 H 0.7052 0.1541 0.3324
H7 H 0.6254 0.1490 0.2761
C12 C 0.6613(12) 0.0807(17) 0.4453(11)
H8 H 0.6461 0.1163 0.4828
H9 H 0.7146 0.0904 0.4540
H10 H 0.6495 0.0002 0.4436
C13 C 0.6625(7) 0.2197(14) 0.6618(7)
H11 H 0.6800 0.2940 0.6524
H12 H 0.6977 0.1619 0.6570
H13 H 0.6584 0.2180 0.7091
C14 C 0.5650(8) 0.0797(11) 0.5991(8)
H14 H 0.5113 0.0778 0.5786
H15 H 0.5787 0.0382 0.6431
H16 H 0.5886 0.0447 0.5670
C15 C 0.5494(6) 0.2771(9) 0.5766(5)
H17 H 0.5692 0.3511 0.5837
N1 N 0.6207(5) 0.1349(9) 0.3768(5)
N2 N 0.5898(5) 0.1972(7) 0.6119(5)
O1 O 0.3468(3) 0.4526(5) 0.3292(3)
O2 O 0.4295(3) 0.3519(4) 0.2956(3)
O3 O 0.1567(4) 0.6819(6) 0.1518(4)
O4 O 0.1731(4) 0.7244(6) 0.0511(3)
O6 O 0.4720(3) 0.4450(5) 0.0657(3)
O7 O 0.4867(4) 0.2661(6) 0.5339(3)
O8 O 0.5194(4) 0.1934(5) 0.4104(3)
Tb2 Tb 0.074628(19) 0.82777(3) 0.082924(18)
Tb4 Tb 0.574628(19) 0.32777(3) 0.082924(18)
O9 O 0.3433(4) 0.1819(6) 0.3482(4)
O10 O 0.3269(4) 0.2244(6) 0.4489(3)
O11 O 0.3841(3) 0.4656(5) 0.4820(3)
O12 O 0.5280(3) 0.4450(5) 0.4343(3)
O5 O 0.3841(3) 0.5344(5) 0.9820(3)
Tb3 Tb 0.425372(19) 0.67223(3) 0.917076(18)
C10_2 C 0.0508(6) 0.6769(7) 0.3679(5)
H4_2 H 0.0237 0.6952 0.3215
C11_2 C 0.1568(8) 0.6169(13) 0.3196(8)
H5_2 H 0.1633 0.5361 0.3135
H6_2 H 0.2052 0.6541 0.3324
H7_2 H 0.1254 0.6490 0.2761
C12_2 C 0.1613(12) 0.5807(17) 0.4453(11)
H8_2 H 0.1461 0.6163 0.4828
H9_2 H 0.2146 0.5904 0.4540
H10_2 H 0.1495 0.5002 0.4436
C13_2 C 0.1625(7) 0.7197(14) 0.6618(7)
H11_2 H 0.1800 0.7940 0.6524
H12_2 H 0.1977 0.6619 0.6570
H13_2 H 0.1584 0.7180 0.7091
C14_2 C 0.0650(8) 0.5797(11) 0.5991(8)
H14_2 H 0.0113 0.5778 0.5786
H15_2 H 0.0787 0.5382 0.6431
H16_2 H 0.0886 0.5447 0.5670
C15_2 C 0.0494(6) 0.7771(9) 0.5766(5)
H17_2 H 0.0692 0.8511 0.5837
N1_2 N 0.1207(5) 0.6349(9) 0.3768(5)
N2_2 N 0.0898(5) 0.6972(7) 0.6119(5)
O8_2 O 0.0194(4) 0.6934(5) 0.4104(3)
O12_2 O 0.0280(3) 0.9450(5) 0.4343(3)
C3_2 C 0.7851(4) 0.0424(6) 0.1911(4)
H1_2 H 0.7579 0.0534 0.2233
C4_2 C 0.7607(4) 0.0957(7) 0.1252(4)
C5_2 C 0.8013(4) 0.0807(6) 0.0763(4)
H2_2 H 0.7859 0.1166 0.0323
C6_2 C 0.8648(4) 0.0114(6) 0.0948(4)
C8_2 C 0.6930(4) 0.1731(6) 0.1075(4)
O3_2 O 0.6567(4) 0.1819(6) 0.1518(4)
O4_2 O 0.6731(4) 0.2244(6) 0.0511(3)
O5_2 O 0.8841(3) 0.0344(5) 0.9820(3)
Tb3_2 Tb 0.925372(19) 0.17223(3) 0.917076(18)
Tb1_2 Tb 0.925372(19) 0.82777(3) 0.417076(18)
C1_2 C 0.8768(4) 0.9216(6) 0.2822(4)
C2_2 C 0.8479(4) 0.9743(6) 0.2098(4)
C7_2 C 0.8881(4) 0.9588(6) 0.1605(4)
H3_2 H 0.9309 0.9126 0.1722
C9_2 C 0.9106(4) 0.9955(6) 0.0437(4)
O1_2 O 0.8468(3) 0.9526(5) 0.3292(3)
O2_2 O 0.9295(3) 0.8519(4) 0.2956(3)
O6_2 O 0.9720(3) 0.9450(5) 0.0657(3)
O7_2 O 0.9867(4) 0.7661(6) 0.5339(3)
O9_2 O 0.8433(4) 0.6819(6) 0.3482(4)
O10_2 O 0.8269(4) 0.7244(6) 0.4489(3)
O11_2 O 0.8841(3) 0.9656(5) 0.4820(3)
C1_3 C 0.6232(4) 0.4216(6) 0.2178(4)
C2_3 C 0.6521(4) 0.4743(6) 0.2902(4)
C3_3 C 0.7149(4) 0.5424(6) 0.3089(4)
H1_3 H 0.7421 0.5534 0.2767
C4_3 C 0.7393(4) 0.5957(7) 0.3748(4)
C5_3 C 0.6987(4) 0.5807(6) 0.4237(4)
H2_3 H 0.7141 0.6166 0.4677
C6_3 C 0.6352(4) 0.5114(6) 0.4052(4)
C7_3 C 0.6119(4) 0.4588(6) 0.3395(4)
H3_3 H 0.5691 0.4126 0.3278
C8_3 C 0.8070(4) 0.6731(6) 0.3925(4)
C9_3 C 0.5894(4) 0.4955(6) 0.4563(4)
C10_3 C 0.4492(6) 0.1769(7) 0.1321(5)
H4_3 H 0.4763 0.1952 0.1785
C11_3 C 0.3432(8) 0.1169(13) 0.1804(8)
H5_3 H 0.3367 0.0361 0.1865
H6_3 H 0.2948 0.1541 0.1676
H7_3 H 0.3746 0.1490 0.2239
C12_3 C 0.3387(12) 0.0807(17) 0.0547(11)
H8_3 H 0.3539 0.1163 0.0172
H9_3 H 0.2854 0.0904 0.0460
H10_3 H 0.3505 0.0002 0.0564
N1_3 N 0.3793(5) 0.1349(9) 0.1232(5)
O1_3 O 0.6532(3) 0.4526(5) 0.1708(3)
O2_3 O 0.5705(3) 0.3519(4) 0.2044(3)
O5_3 O 0.6159(3) 0.5344(5) 0.5180(3)
O8_3 O 0.4806(4) 0.1934(5) 0.0896(3)
Tb3_3 Tb 0.574628(19) 0.67223(3) 0.582924(18)
O11_3 O 0.6159(3) 0.4656(5) 0.0180(3)
C3_4 C 0.2149(4) 0.0424(6) 0.3089(4)
H1_4 H 0.2421 0.0534 0.2767
C4_4 C 0.2393(4) 0.0957(7) 0.3748(4)
C5_4 C 0.1987(4) 0.0807(6) 0.4237(4)
H2_4 H 0.2141 0.1166 0.4677
C6_4 C 0.1352(4) 0.0114(6) 0.4052(4)
C8_4 C 0.3070(4) 0.1731(6) 0.3925(4)
O5_4 O 0.1159(3) 0.0344(5) 0.5180(3)
Tb3_4 Tb 0.074628(19) 0.17223(3) 0.582924(18)
C1_4 C 0.1232(4) 0.9216(6) 0.2178(4)
C2_4 C 0.1521(4) 0.9743(6) 0.2902(4)
C7_4 C 0.1119(4) 0.9588(6) 0.3395(4)
H3_4 H 0.0691 0.9126 0.3278
C9_4 C 0.0894(4) 0.9955(6) 0.4563(4)
O1_4 O 0.1532(3) 0.9526(5) 0.1708(3)
O2_4 O 0.0705(3) 0.8519(4) 0.2044(3)
O11_4 O 0.1159(3) 0.9656(5) 0.0180(3)
C10_4 C 0.9492(6) 0.6769(7) 0.1321(5)
H4_4 H 0.9763 0.6952 0.1785
C11_4 C 0.8432(8) 0.6169(13) 0.1804(8)
H5_4 H 0.8367 0.5361 0.1865
H6_4 H 0.7948 0.6541 0.1676
H7_4 H 0.8746 0.6490 0.2239
C12_4 C 0.8387(12) 0.5807(17) 0.0547(11)
H8_4 H 0.8539 0.6163 0.0172
H9_4 H 0.7854 0.5904 0.0460
H10_4 H 0.8505 0.5002 0.0564
N1_4 N 0.8793(5) 0.6349(9) 0.1232(5)
O8_4 O 0.9806(4) 0.6934(5) 0.0896(3)
C1_5 C 0.6232(4) 0.5784(6) 0.7178(4)
C2_5 C 0.6521(4) 0.5257(6) 0.7902(4)
C3_5 C 0.7149(4) 0.4576(6) 0.8089(4)
H1_5 H 0.7421 0.4466 0.7767
C4_5 C 0.7393(4) 0.4043(7) 0.8748(4)
C5_5 C 0.6987(4) 0.4193(6) 0.9237(4)
H2_5 H 0.7141 0.3834 0.9677
C6_5 C 0.6352(4) 0.4886(6) 0.9052(4)
C7_5 C 0.6119(4) 0.5412(6) 0.8395(4)
H3_5 H 0.5691 0.5874 0.8278
C8_5 C 0.8070(4) 0.3269(6) 0.8925(4)
C9_5 C 0.5894(4) 0.5045(6) 0.9563(4)
C10_5 C 0.4492(6) 0.8231(7) 0.6321(5)
H4_5 H 0.4763 0.8048 0.6785
C11_5 C 0.3432(8) 0.8831(13) 0.6804(8)
H5_5 H 0.3367 0.9639 0.6865
H6_5 H 0.2948 0.8459 0.6676
H7_5 H 0.3746 0.8510 0.7239
C12_5 C 0.3387(12) 0.9193(17) 0.5547(11)
H8_5 H 0.3539 0.8837 0.5172
H9_5 H 0.2854 0.9096 0.5460
H10_5 H 0.3505 0.9998 0.5564
C13_3 C 0.3375(7) 0.7803(14) 0.3382(7)
H11_3 H 0.3200 0.7060 0.3476
H12_3 H 0.3023 0.8381 0.3430
H13_3 H 0.3416 0.7820 0.2909
C14_3 C 0.4350(8) 0.9203(11) 0.4009(8)
H14_3 H 0.4887 0.9222 0.4214
H15_3 H 0.4213 0.9618 0.3569
H16_3 H 0.4114 0.9553 0.4330
C15_3 C 0.4506(6) 0.7229(9) 0.4234(5)
H17_3 H 0.4308 0.6489 0.4163
N1_5 N 0.3793(5) 0.8651(9) 0.6232(5)
N2_3 N 0.4102(5) 0.8028(7) 0.3881(5)
O1_5 O 0.6532(3) 0.5474(5) 0.6708(3)
O2_5 O 0.5705(3) 0.6481(4) 0.7044(3)
O3_3 O 0.8433(4) 0.3181(6) 0.8482(4)
O4_3 O 0.8269(4) 0.2756(6) 0.9489(3)
O6_3 O 0.5280(3) 0.5550(5) 0.9343(3)
O7_3 O 0.5133(4) 0.7339(6) 0.4661(3)
O8_5 O 0.4806(4) 0.8066(5) 0.5896(3)
O9_3 O 0.6567(4) 0.8181(6) 0.6518(4)
O10_3 O 0.6731(4) 0.7756(6) 0.5511(3)
O12_3 O 0.4720(3) 0.5550(5) 0.5657(3)
C1_6 C 0.1232(4) 0.0784(6) 0.7178(4)
C2_6 C 0.1521(4) 0.0257(6) 0.7902(4)
C7_6 C 0.1119(4) 0.0412(6) 0.8395(4)
H3_6 H 0.0691 0.0874 0.8278
C9_6 C 0.0894(4) 0.0045(6) 0.9563(4)
O1_6 O 0.1532(3) 0.0474(5) 0.6708(3)
O2_6 O 0.0705(3) 0.1481(4) 0.7044(3)
O6_4 O 0.0280(3) 0.0550(5) 0.9343(3)
O7_4 O 0.0133(4) 0.2339(6) 0.4661(3)
O9_4 O 0.1567(4) 0.3181(6) 0.6518(4)
O10_4 O 0.1731(4) 0.2756(6) 0.5511(3)
C3_6 C 0.2149(4) 0.9576(6) 0.8089(4)
H1_6 H 0.2421 0.9466 0.7767
C4_6 C 0.2393(4) 0.9043(7) 0.8748(4)
C5_6 C 0.1987(4) 0.9193(6) 0.9237(4)
H2_6 H 0.2141 0.8834 0.9677
C6_6 C 0.1352(4) 0.9886(6) 0.9052(4)
C8_6 C 0.3070(4) 0.8269(6) 0.8925(4)
O3_4 O 0.3433(4) 0.8181(6) 0.8482(4)
O4_4 O 0.3269(4) 0.7756(6) 0.9489(3)
C10_6 C 0.9492(6) 0.3231(7) 0.6321(5)
H4_6 H 0.9763 0.3048 0.6785
C11_6 C 0.8432(8) 0.3831(13) 0.6804(8)
H5_6 H 0.8367 0.4639 0.6865
H6_6 H 0.7948 0.3459 0.6676
H7_6 H 0.8746 0.3510 0.7239
C12_6 C 0.8387(12) 0.4193(17) 0.5547(11)
H8_6 H 0.8539 0.3837 0.5172
H9_6 H 0.7854 0.4096 0.5460
H10_6 H 0.8505 0.4998 0.5564
C13_4 C 0.8375(7) 0.2803(14) 0.3382(7)
H11_4 H 0.8200 0.2060 0.3476
H12_4 H 0.8023 0.3381 0.3430
H13_4 H 0.8416 0.2820 0.2909
C14_4 C 0.9350(8) 0.4203(11) 0.4009(8)
H14_4 H 0.9887 0.4222 0.4214
H15_4 H 0.9213 0.4618 0.3569
H16_4 H 0.9114 0.4553 0.4330
C15_4 C 0.9506(6) 0.2229(9) 0.4234(5)
H17_4 H 0.9308 0.1489 0.4163
N1_6 N 0.8793(5) 0.3651(9) 0.6232(5)
N2_4 N 0.9102(5) 0.3028(7) 0.3881(5)
O8_6 O 0.9806(4) 0.3066(5) 0.5896(3)
O12_4 O 0.9720(3) 0.0550(5) 0.5657(3)
C1_7 C 0.3768(4) 0.5784(6) 0.7822(4)
C2_7 C 0.3479(4) 0.5257(6) 0.7098(4)
C3_7 C 0.2851(4) 0.4576(6) 0.6911(4)
H1_7 H 0.2579 0.4466 0.7233
C4_7 C 0.2607(4) 0.4043(7) 0.6252(4)
C5_7 C 0.3013(4) 0.4193(6) 0.5763(4)
H2_7 H 0.2859 0.3834 0.5323
C6_7 C 0.3648(4) 0.4886(6) 0.5948(4)
C7_7 C 0.3881(4) 0.5412(6) 0.6605(4)
H3_7 H 0.4309 0.5874 0.6722
C8_7 C 0.1930(4) 0.3269(6) 0.6075(4)
C9_7 C 0.4106(4) 0.5045(6) 0.5437(4)
C10_7 C 0.5508(6) 0.8231(7) 0.8679(5)
H4_7 H 0.5237 0.8048 0.8215
C11_7 C 0.6568(8) 0.8831(13) 0.8196(8)
H5_7 H 0.6633 0.9639 0.8135
H6_7 H 0.7052 0.8459 0.8324
H7_7 H 0.6254 0.8510 0.7761
C12_7 C 0.6613(12) 0.9193(17) 0.9453(11)
H8_7 H 0.6461 0.8837 0.9828
H9_7 H 0.7146 0.9096 0.9540
H10_7 H 0.6495 0.9998 0.9436
N1_7 N 0.6207(5) 0.8651(9) 0.8768(5)
O1_7 O 0.3468(3) 0.5474(5) 0.8292(3)
O2_7 O 0.4295(3) 0.6481(4) 0.7956(3)
O8_7 O 0.5194(4) 0.8066(5) 0.9104(3)
C10_8 C 0.0508(6) 0.3231(7) 0.8679(5)
H4_8 H 0.0237 0.3048 0.8215
C11_8 C 0.1568(8) 0.3831(13) 0.8196(8)
H5_8 H 0.1633 0.4639 0.8135
H6_8 H 0.2052 0.3459 0.8324
H7_8 H 0.1254 0.3510 0.7761
C12_8 C 0.1613(12) 0.4193(17) 0.9453(11)
H8_8 H 0.1461 0.3837 0.9828
H9_8 H 0.2146 0.4096 0.9540
H10_8 H 0.1495 0.4998 0.9436
N1_8 N 0.1207(5) 0.3651(9) 0.8768(5)
O8_8 O 0.0194(4) 0.3066(5) 0.9104(3)
C1_8 C 0.8768(4) 0.0784(6) 0.7822(4)
C2_8 C 0.8479(4) 0.0257(6) 0.7098(4)
C7_8 C 0.8881(4) 0.0412(6) 0.6605(4)
H3_8 H 0.9309 0.0874 0.6722
C9_8 C 0.9106(4) 0.0045(6) 0.5437(4)
O1_8 O 0.8468(3) 0.0474(5) 0.8292(3)
O2_8 O 0.9295(3) 0.1481(4) 0.7956(3)
C3_8 C 0.7851(4) 0.9576(6) 0.6911(4)
H1_8 H 0.7579 0.9466 0.7233
C4_8 C 0.7607(4) 0.9043(7) 0.6252(4)
C5_8 C 0.8013(4) 0.9193(6) 0.5763(4)
H2_8 H 0.7859 0.8834 0.5323
C6_8 C 0.8648(4) 0.9886(6) 0.5948(4)
C8_8 C 0.6930(4) 0.8269(6) 0.6075(4)
C13_5 C 0.3375(7) 0.2197(14) 0.8382(7)
H11_5 H 0.3200 0.2940 0.8476
H12_5 H 0.3023 0.1619 0.8430
H13_5 H 0.3416 0.2180 0.7909
C14_5 C 0.4350(8) 0.0797(11) 0.9009(8)
H14_5 H 0.4887 0.0778 0.9214
H15_5 H 0.4213 0.0382 0.8569
H16_5 H 0.4114 0.0447 0.9330
C15_5 C 0.4506(6) 0.2771(9) 0.9234(5)
H17_5 H 0.4308 0.3511 0.9163
N2_5 N 0.4102(5) 0.1972(7) 0.8881(5)
O7_5 O 0.5133(4) 0.2661(6) 0.9661(3)
O7_6 O 0.0133(4) 0.7661(6) 0.9661(3)
C13_6 C 0.8375(7) 0.7197(14) 0.8382(7)
H11_6 H 0.8200 0.7940 0.8476
H12_6 H 0.8023 0.6619 0.8430
H13_6 H 0.8416 0.7180 0.7909
C14_6 C 0.9350(8) 0.5797(11) 0.9009(8)
H14_6 H 0.9887 0.5778 0.9214
H15_6 H 0.9213 0.5382 0.8569
H16_6 H 0.9114 0.5447 0.9330
C15_6 C 0.9506(6) 0.7771(9) 0.9234(5)
H17_6 H 0.9308 0.8511 0.9163
N2_6 N 0.9102(5) 0.6972(7) 0.8881(5)
C13_7 C 0.6625(7) 0.7803(14) 0.1618(7)
H11_7 H 0.6800 0.7060 0.1524
H12_7 H 0.6977 0.8381 0.1570
H13_7 H 0.6584 0.7820 0.2091
C14_7 C 0.5650(8) 0.9203(11) 0.0991(8)
H14_7 H 0.5113 0.9222 0.0786
H15_7 H 0.5787 0.9618 0.1431
H16_7 H 0.5886 0.9553 0.0670
C15_7 C 0.5494(6) 0.7229(9) 0.0766(5)
H17_7 H 0.5692 0.6489 0.0837
N2_7 N 0.5898(5) 0.8028(7) 0.1119(5)
O7_7 O 0.4867(4) 0.7339(6) 0.0339(3)
C13_8 C 0.1625(7) 0.2803(14) 0.1618(7)
H11_8 H 0.1800 0.2060 0.1524
H12_8 H 0.1977 0.3381 0.1570
H13_8 H 0.1584 0.2820 0.2091
C14_8 C 0.0650(8) 0.4203(11) 0.0991(8)
H14_8 H 0.0113 0.4222 0.0786
H15_8 H 0.0787 0.4618 0.1431
H16_8 H 0.0886 0.4553 0.0670
C15_8 C 0.0494(6) 0.2229(9) 0.0766(5)
H17_8 H 0.0692 0.1489 0.0837
N2_8 N 0.0898(5) 0.3028(7) 0.1119(5)
O7_8 O 0.9867(4) 0.2339(6) 0.0339(3)
loop_
_geom_bond_atom_site_label_1
_geom_bond_atom_site_label_2
_geom_bond_site_symmetry_1
_geom_bond_site_symmetry_2
Tb1 O1 1_555 1_555
C1 C2 1_555 1_555
C2 C3 1_555 1_555
C3 H1 1_555 1_555
C4 C3 1_555 1_555
C5 C4 1_555 1_555
H2 C5 1_555 1_555
C6 C5 1_555 1_555
C7 C2 1_555 1_555
H3 C7 1_555 1_555
C8 C4 1_555 1_555
C9 C6 1_555 1_555
C10 H4 1_555 1_555
C11 H5 1_555 1_555
H6 C11 1_555 1_555
H7 C11 1_555 1_555
C12 H8 1_555 1_555
H9 C12 1_555 1_555
H10 C12 1_555 1_555
C13 H11 1_555 1_555
H12 C13 1_555 1_555
H13 C13 1_555 1_555
C14 H14 1_555 1_555
H15 C14 1_555 1_555
H16 C14 1_555 1_555
C15 H17 1_555 1_555
N1 C10 1_555 1_555
N2 C13 1_555 1_555
O1 C1 1_555 1_555
O2 Tb1 1_555 1_555
O3 C8 1_555 1_555
O4 C8 1_555 1_555
O6 C9 1_555 1_555
O7 Tb1 1_555 1_555
O8 Tb1 1_555 1_555
Tb2 O3 1_555 1_555
Tb4 O6 1_555 1_555
O9 Tb1 1_555 1_555
O10 Tb1 1_555 1_555
O11 Tb1 1_555 1_555
O12 Tb1 1_555 1_555
C1 O2 1_555 1_555
C6 C7 1_555 1_555
C10 O8 1_555 1_555
C11 N1 1_555 1_555
C12 N1 1_555 1_555
C14 N2 1_555 1_555
C15 N2 1_555 1_555
C15 O7 1_555 1_555
O4 Tb2 1_555 1_555
Tb3 O5 1_555 1_555
C10_2 H4_2 1_555 1_555
C11_2 H5_2 1_555 1_555
H6_2 C11_2 1_555 1_555
H7_2 C11_2 1_555 1_555
C12_2 H8_2 1_555 1_555
H9_2 C12_2 1_555 1_555
H10_2 C12_2 1_555 1_555
C13_2 H11_2 1_555 1_555
H12_2 C13_2 1_555 1_555
H13_2 C13_2 1_555 1_555
C14_2 H14_2 1_555 1_555
H15_2 C14_2 1_555 1_555
H16_2 C14_2 1_555 1_555
C15_2 H17_2 1_555 1_555
N1_2 C10_2 1_555 1_555
N2_2 C13_2 1_555 1_555
C10_2 O8_2 1_555 1_555
C11_2 N1_2 1_555 1_555
C12_2 N1_2 1_555 1_555
C14_2 N2_2 1_555 1_555
C15_2 N2_2 1_555 1_555
C3_2 H1_2 1_555 1_555
C4_2 C3_2 1_555 1_555
C5_2 C4_2 1_555 1_555
H2_2 C5_2 1_555 1_555
C6_2 C5_2 1_555 1_555
C8_2 C4_2 1_555 1_555
O3_2 C8_2 1_555 1_555
O4_2 C8_2 1_555 1_555
Tb4 O3_2 1_555 1_555
O4_2 Tb4 1_555 1_555
Tb3_2 O5_2 1_555 1_555
Tb1_2 O1_2 1_555 1_555
C1_2 C2_2 1_555 1_555
C7_2 C2_2 1_555 1_555
H3_2 C7_2 1_555 1_555
O1_2 C1_2 1_555 1_555
O2_2 Tb1_2 1_555 1_555
O6_2 C9_2 1_555 1_555
O7_2 Tb1_2 1_555 1_555
O9_2 Tb1_2 1_555 1_555
O10_2 Tb1_2 1_555 1_555
O11_2 Tb1_2 1_555 1_555
C1_2 O2_2 1_555 1_555
Tb4 O1_3 1_555 1_555
C1_3 C2_3 1_555 1_555
C2_3 C3_3 1_555 1_555
C3_3 H1_3 1_555 1_555
C4_3 C3_3 1_555 1_555
C5_3 C4_3 1_555 1_555
H2_3 C5_3 1_555 1_555
C6_3 C5_3 1_555 1_555
C7_3 C2_3 1_555 1_555
H3_3 C7_3 1_555 1_555
C8_3 C4_3 1_555 1_555
C9_3 C6_3 1_555 1_555
C10_3 H4_3 1_555 1_555
C11_3 H5_3 1_555 1_555
H6_3 C11_3 1_555 1_555
H7_3 C11_3 1_555 1_555
C12_3 H8_3 1_555 1_555
H9_3 C12_3 1_555 1_555
H10_3 C12_3 1_555 1_555
N1_3 C10_3 1_555 1_555
O1_3 C1_3 1_555 1_555
O2_3 Tb4 1_555 1_555
O9_2 C8_3 1_555 1_555
O10_2 C8_3 1_555 1_555
O5_3 C9_3 1_555 1_555
O12 C9_3 1_555 1_555
O8_3 Tb4 1_555 1_555
Tb3_3 O5_3 1_555 1_555
O11_3 Tb4 1_555 1_555
C1_3 O2_3 1_555 1_555
C6_3 C7_3 1_555 1_555
C10_3 O8_3 1_555 1_555
C11_3 N1_3 1_555 1_555
C12_3 N1_3 1_555 1_555
C3_4 H1_4 1_555 1_555
C4_4 C3_4 1_555 1_555
C5_4 C4_4 1_555 1_555
H2_4 C5_4 1_555 1_555
C6_4 C5_4 1_555 1_555
C8_4 C4_4 1_555 1_555
O9 C8_4 1_555 1_555
O10 C8_4 1_555 1_555
Tb3_4 O5_4 1_555 1_555
Tb2 O1_4 1_555 1_555
C1_4 C2_4 1_555 1_555
C7_4 C2_4 1_555 1_555
H3_4 C7_4 1_555 1_555
O1_4 C1_4 1_555 1_555
O2_4 Tb2 1_555 1_555
O12_2 C9_4 1_555 1_555
O11_4 Tb2 1_555 1_555
C1_4 O2_4 1_555 1_555
C10_4 H4_4 1_555 1_555
C11_4 H5_4 1_555 1_555
H6_4 C11_4 1_555 1_555
H7_4 C11_4 1_555 1_555
C12_4 H8_4 1_555 1_555
H9_4 C12_4 1_555 1_555
H10_4 C12_4 1_555 1_555
N1_4 C10_4 1_555 1_555
C10_4 O8_4 1_555 1_555
C11_4 N1_4 1_555 1_555
C12_4 N1_4 1_555 1_555
Tb3_3 O1_5 1_555 1_555
C1_5 C2_5 1_555 1_555
C2_5 C3_5 1_555 1_555
C3_5 H1_5 1_555 1_555
C4_5 C3_5 1_555 1_555
C5_5 C4_5 1_555 1_555
H2_5 C5_5 1_555 1_555
C6_5 C5_5 1_555 1_555
C7_5 C2_5 1_555 1_555
H3_5 C7_5 1_555 1_555
C8_5 C4_5 1_555 1_555
C9_5 C6_5 1_555 1_555
C10_5 H4_5 1_555 1_555
C11_5 H5_5 1_555 1_555
H6_5 C11_5 1_555 1_555
H7_5 C11_5 1_555 1_555
C12_5 H8_5 1_555 1_555
H9_5 C12_5 1_555 1_555
H10_5 C12_5 1_555 1_555
C13_3 H11_3 1_555 1_555
H12_3 C13_3 1_555 1_555
H13_3 C13_3 1_555 1_555
C14_3 H14_3 1_555 1_555
H15_3 C14_3 1_555 1_555
H16_3 C14_3 1_555 1_555
C15_3 H17_3 1_555 1_555
N1_5 C10_5 1_555 1_555
N2_3 C13_3 1_555 1_555
O1_5 C1_5 1_555 1_555
O2_5 Tb3_3 1_555 1_555
O3_3 C8_5 1_555 1_555
O4_3 C8_5 1_555 1_555
O6_3 C9_5 1_555 1_555
O7_3 Tb3_3 1_555 1_555
O8_5 Tb3_3 1_555 1_555
Tb3_2 O3_3 1_555 1_555
Tb3 O6_3 1_555 1_555
O9_3 Tb3_3 1_555 1_555
O10_3 Tb3_3 1_555 1_555
O12_3 Tb3_3 1_555 1_555
C1_5 O2_5 1_555 1_555
C6_5 C7_5 1_555 1_555
C10_5 O8_5 1_555 1_555
C11_5 N1_5 1_555 1_555
C12_5 N1_5 1_555 1_555
C14_3 N2_3 1_555 1_555
C15_3 N2_3 1_555 1_555
C15_3 O7_3 1_555 1_555
O4_3 Tb3_2 1_555 1_555
Tb3_4 O1_6 1_555 1_555
C1_6 C2_6 1_555 1_555
C7_6 C2_6 1_555 1_555
H3_6 C7_6 1_555 1_555
O1_6 C1_6 1_555 1_555
O2_6 Tb3_4 1_555 1_555
O6_4 C9_6 1_555 1_555
O7_4 Tb3_4 1_555 1_555
O9_4 Tb3_4 1_555 1_555
O10_4 Tb3_4 1_555 1_555
C1_6 O2_6 1_555 1_555
C3_6 H1_6 1_555 1_555
C4_6 C3_6 1_555 1_555
C5_6 C4_6 1_555 1_555
H2_6 C5_6 1_555 1_555
C6_6 C5_6 1_555 1_555
C8_6 C4_6 1_555 1_555
O3_4 C8_6 1_555 1_555
O4_4 C8_6 1_555 1_555
Tb3 O3_4 1_555 1_555
O4_4 Tb3 1_555 1_555
C10_6 H4_6 1_555 1_555
C11_6 H5_6 1_555 1_555
H6_6 C11_6 1_555 1_555
H7_6 C11_6 1_555 1_555
C12_6 H8_6 1_555 1_555
H9_6 C12_6 1_555 1_555
H10_6 C12_6 1_555 1_555
C13_4 H11_4 1_555 1_555
H12_4 C13_4 1_555 1_555
H13_4 C13_4 1_555 1_555
C14_4 H14_4 1_555 1_555
H15_4 C14_4 1_555 1_555
H16_4 C14_4 1_555 1_555
C15_4 H17_4 1_555 1_555
N1_6 C10_6 1_555 1_555
N2_4 C13_4 1_555 1_555
C10_6 O8_6 1_555 1_555
C11_6 N1_6 1_555 1_555
C12_6 N1_6 1_555 1_555
C14_4 N2_4 1_555 1_555
C15_4 N2_4 1_555 1_555
Tb3 O1_7 1_555 1_555
C1_7 C2_7 1_555 1_555
C2_7 C3_7 1_555 1_555
C3_7 H1_7 1_555 1_555
C4_7 C3_7 1_555 1_555
C5_7 C4_7 1_555 1_555
H2_7 C5_7 1_555 1_555
C6_7 C5_7 1_555 1_555
C7_7 C2_7 1_555 1_555
H3_7 C7_7 1_555 1_555
C8_7 C4_7 1_555 1_555
C9_7 C6_7 1_555 1_555
C10_7 H4_7 1_555 1_555
C11_7 H5_7 1_555 1_555
H6_7 C11_7 1_555 1_555
H7_7 C11_7 1_555 1_555
C12_7 H8_7 1_555 1_555
H9_7 C12_7 1_555 1_555
H10_7 C12_7 1_555 1_555
N1_7 C10_7 1_555 1_555
O1_7 C1_7 1_555 1_555
O2_7 Tb3 1_555 1_555
O9_4 C8_7 1_555 1_555
O10_4 C8_7 1_555 1_555
O11 C9_7 1_555 1_555
O12_3 C9_7 1_555 1_555
O8_7 Tb3 1_555 1_555
C1_7 O2_7 1_555 1_555
C6_7 C7_7 1_555 1_555
C10_7 O8_7 1_555 1_555
C11_7 N1_7 1_555 1_555
C12_7 N1_7 1_555 1_555
C10_8 H4_8 1_555 1_555
C11_8 H5_8 1_555 1_555
H6_8 C11_8 1_555 1_555
H7_8 C11_8 1_555 1_555
C12_8 H8_8 1_555 1_555
H9_8 C12_8 1_555 1_555
H10_8 C12_8 1_555 1_555
N1_8 C10_8 1_555 1_555
C10_8 O8_8 1_555 1_555
C11_8 N1_8 1_555 1_555
C12_8 N1_8 1_555 1_555
Tb3_2 O1_8 1_555 1_555
C1_8 C2_8 1_555 1_555
C7_8 C2_8 1_555 1_555
H3_8 C7_8 1_555 1_555
O1_8 C1_8 1_555 1_555
O2_8 Tb3_2 1_555 1_555
O12_4 C9_8 1_555 1_555
C1_8 O2_8 1_555 1_555
C3_8 H1_8 1_555 1_555
C4_8 C3_8 1_555 1_555
C5_8 C4_8 1_555 1_555
H2_8 C5_8 1_555 1_555
C6_8 C5_8 1_555 1_555
C8_8 C4_8 1_555 1_555
O9_3 C8_8 1_555 1_555
O10_3 C8_8 1_555 1_555
C13_5 H11_5 1_555 1_555
H12_5 C13_5 1_555 1_555
H13_5 C13_5 1_555 1_555
C14_5 H14_5 1_555 1_555
H15_5 C14_5 1_555 1_555
H16_5 C14_5 1_555 1_555
C15_5 H17_5 1_555 1_555
N2_5 C13_5 1_555 1_555
C14_5 N2_5 1_555 1_555
C15_5 N2_5 1_555 1_555
C15_5 O7_5 1_555 1_555
C13_6 H11_6 1_555 1_555
H12_6 C13_6 1_555 1_555
H13_6 C13_6 1_555 1_555
C14_6 H14_6 1_555 1_555
H15_6 C14_6 1_555 1_555
H16_6 C14_6 1_555 1_555
C15_6 H17_6 1_555 1_555
N2_6 C13_6 1_555 1_555
C14_6 N2_6 1_555 1_555
C15_6 N2_6 1_555 1_555
C13_7 H11_7 1_555 1_555
H12_7 C13_7 1_555 1_555
H13_7 C13_7 1_555 1_555
C14_7 H14_7 1_555 1_555
H15_7 C14_7 1_555 1_555
H16_7 C14_7 1_555 1_555
C15_7 H17_7 1_555 1_555
N2_7 C13_7 1_555 1_555
C14_7 N2_7 1_555 1_555
C15_7 N2_7 1_555 1_555
C15_7 O7_7 1_555 1_555
C13_8 H11_8 1_555 1_555
H12_8 C13_8 1_555 1_555
H13_8 C13_8 1_555 1_555
C14_8 H14_8 1_555 1_555
H15_8 C14_8 1_555 1_555
H16_8 C14_8 1_555 1_555
C15_8 H17_8 1_555 1_555
N2_8 C13_8 1_555 1_555
C14_8 N2_8 1_555 1_555
C15_8 N2_8 1_555 1_555

#END
