
###############################################################################
#
# This file contains modified crystal structure data generated from the
# MOF subset of the Cambridge Structural Database (CSD) v543 
# hosted by the Cambridge Crystallographic Data Centre (CCDC).
#
# This work is licensed under the Creative Commons
# Attribution-NonCommercial-ShareAlike 4.0 International License.
# To view a copy of this license, visit
# http://creativecommons.org/licenses/by-nc-sa/4.0/
# or send a letter to
# Creative Commons, PO Box 1866, Mountain View, CA 94042, USA.
#
# CIF created using the CSD Python API on 29 September 2022
# The structure has been converted into the P1 space group
# The structure has a 3D framework
# The original CSD entry NIGGEQ is in the monoclinic crystal system
# The framework has been calculated to contain at least 10.0% void space
# The void calculation uses a probe of radius 1.32A, grid spacing 0.4
#
###############################################################################

data_NIGGEQ
_chemical_formula_moiety         '(C120 H136 N16 O58 Tm8)n'
_symmetry_cell_setting           triclinic
_symmetry_space_group_name_H-M   'P 1'
_symmetry_Int_Tables_number      1
_space_group_name_Hall           'P 1'
loop_
_symmetry_equiv_pos_site_id
_symmetry_equiv_pos_as_xyz
1 x,y,z
_cell_length_a                   18.382(2)
_cell_length_b                   11.5929(15)
_cell_length_c                   19.632(3)
_cell_angle_alpha                90
_cell_angle_beta                 107.086(2)
_cell_angle_gamma                90
_cell_volume                     3998.95
loop_
_atom_site_label
_atom_site_type_symbol
_atom_site_fract_x
_atom_site_fract_y
_atom_site_fract_z
Tm1 Tm 0.07492(2) 0.82928(4) 0.08307(2)
O1 O 0.1759(5) 0.7332(8) 0.0528(4)
O2 O 0.1509(4) 0.6803(8) 0.1488(4)
O3 O 0.3440(4) 0.4478(7) 0.3302(3)
O4 O 0.4302(4) 0.3534(6) 0.2966(3)
O5 O 0.4739(4) 0.4464(7) 0.0663(3)
C1 C 0.1918(5) 0.6764(10) 0.1079(5)
C2 C 0.2602(5) 0.5968(9) 0.1254(5)
C3 C 0.3005(5) 0.5818(9) 0.0765(5)
H1 H 0.2846 0.6170 0.0320
C4 C 0.3653(5) 0.5129(9) 0.0952(4)
C5 C 0.3886(5) 0.4596(9) 0.1608(4)
H2 H 0.4319 0.4133 0.1725
C6 C 0.3469(5) 0.4751(10) 0.2104(5)
C7 C 0.2831(5) 0.5429(9) 0.1913(5)
H3 H 0.2547 0.5530 0.2231
C8 C 0.3754(6) 0.4202(9) 0.2830(5)
C9 C 0.4119(5) 0.4968(10) 0.0438(5)
Tm2 Tm 0.42508(2) 0.32928(4) 0.41693(2)
Tm3 Tm 0.57492(2) 0.32928(4) 0.08307(2)
O9 O 0.1560(4) 0.9478(7) 0.1698(3)
O10 O 0.0698(4) 0.8534(6) 0.2034(3)
O12 O 0.1155(3) 0.9658(6) 0.0190(3)
O6 O 0.3845(3) 0.5342(6) 0.9810(3)
O7 O 0.0171(5) 0.7668(8) 0.9678(4)
Tm4 Tm 0.42508(2) 0.67072(4) 0.91693(2)
O8 O 0.9802(5) 0.6981(7) 0.0881(4)
C13 C 0.9476(7) 0.6802(11) 0.1321(6)
H11 H 0.9743 0.6997 0.1787
C14 C 0.8367(12) 0.593(2) 0.0526(10)
H12 H 0.8638 0.6098 0.0188
H13 H 0.7875 0.6288 0.0377
H14 H 0.8307 0.5108 0.0553
C15 C 0.8427(10) 0.6157(17) 0.1791(9)
H15 H 0.8752 0.6424 0.2241
H16 H 0.8336 0.5345 0.1821
H17 H 0.7951 0.6563 0.1678
N2 N 0.8796(6) 0.6369(12) 0.1230(6)
O11 O 0.9739(4) 0.9464(7) 0.0663(3)
O1_2 O 0.6759(5) 0.2332(8) 0.0528(4)
O2_2 O 0.6509(4) 0.1803(8) 0.1488(4)
O8_2 O 0.4802(5) 0.1981(7) 0.0881(4)
C1_2 C 0.6918(5) 0.1764(10) 0.1079(5)
C2_2 C 0.7602(5) 0.0968(9) 0.1254(5)
C3_2 C 0.8005(5) 0.0818(9) 0.0765(5)
H1_2 H 0.7846 0.1170 0.0320
C4_2 C 0.8653(5) 0.0129(9) 0.0952(4)
C7_2 C 0.7831(5) 0.0429(9) 0.1913(5)
H3_2 H 0.7547 0.0530 0.2231
C13_2 C 0.4476(7) 0.1802(11) 0.1321(6)
H11_2 H 0.4743 0.1997 0.1787
C14_2 C 0.3367(12) 0.093(2) 0.0526(10)
H12_2 H 0.3638 0.1098 0.0188
H13_2 H 0.2875 0.1288 0.0377
H14_2 H 0.3307 0.0108 0.0553
C15_2 C 0.3427(10) 0.1157(17) 0.1791(9)
H15_2 H 0.3752 0.1424 0.2241
H16_2 H 0.3336 0.0345 0.1821
H17_2 H 0.2951 0.1563 0.1678
N2_2 N 0.3796(6) 0.1369(12) 0.1230(6)
O9_2 O 0.6560(4) 0.4478(7) 0.1698(3)
O10_2 O 0.5698(4) 0.3534(6) 0.2034(3)
O12_2 O 0.6155(3) 0.4658(6) 0.0190(3)
O6_2 O 0.8845(3) 0.0342(6) 0.9810(3)
O7_2 O 0.5171(5) 0.2668(8) 0.9678(4)
C10 C 0.4532(8) 0.2768(13) 0.9241(6)
H4 H 0.4330 0.3509 0.9175
C11 C 0.4410(11) 0.0845(17) 0.8970(10)
H5 H 0.4895 0.0832 0.9329
H6 H 0.4466 0.0566 0.8528
H7 H 0.4059 0.0362 0.9116
C12 C 0.3423(9) 0.2199(17) 0.8357(9)
H8 H 0.3306 0.3008 0.8345
H9 H 0.3029 0.1770 0.8474
H10 H 0.3454 0.1961 0.7898
N1 N 0.4130(7) 0.1991(10) 0.8879(6)
Tm4_2 Tm 0.92508(2) 0.17072(4) 0.91693(2)
O3_2 O 0.8440(4) 0.9478(7) 0.3302(3)
O4_2 O 0.9302(4) 0.8534(6) 0.2966(3)
C5_2 C 0.8886(5) 0.9596(9) 0.1608(4)
H2_2 H 0.9319 0.9133 0.1725
C6_2 C 0.8469(5) 0.9751(10) 0.2104(5)
C8_2 C 0.8754(6) 0.9202(9) 0.2830(5)
C9_2 C 0.9119(5) 0.9968(10) 0.0438(5)
Tm2_2 Tm 0.92508(2) 0.82928(4) 0.41693(2)
O8_3 O 0.0198(5) 0.6981(7) 0.4119(4)
C10_2 C 0.0468(8) 0.7768(13) 0.5759(6)
H4_2 H 0.0670 0.8509 0.5825
C11_2 C 0.0590(11) 0.5845(17) 0.6030(10)
H5_2 H 0.0105 0.5832 0.5671
H6_2 H 0.0534 0.5566 0.6472
H7_2 H 0.0941 0.5362 0.5884
C12_2 C 0.1577(9) 0.7199(17) 0.6643(9)
H8_2 H 0.1694 0.8008 0.6655
H9_2 H 0.1971 0.6770 0.6526
H10_2 H 0.1546 0.6961 0.7102
C13_3 C 0.0524(7) 0.6802(11) 0.3679(6)
H11_3 H 0.0257 0.6997 0.3213
C14_3 C 0.1633(12) 0.593(2) 0.4474(10)
H12_3 H 0.1362 0.6098 0.4812
H13_3 H 0.2125 0.6288 0.4623
H14_3 H 0.1693 0.5108 0.4447
C15_3 C 0.1573(10) 0.6157(17) 0.3209(9)
H15_3 H 0.1248 0.6424 0.2759
H16_3 H 0.1664 0.5345 0.3179
H17_3 H 0.2049 0.6563 0.3322
N1_2 N 0.0870(7) 0.6991(10) 0.6121(6)
N2_3 N 0.1204(6) 0.6369(12) 0.3770(6)
O11_2 O 0.0261(4) 0.9464(7) 0.4337(3)
O1_3 O 0.8241(5) 0.7332(8) 0.4472(4)
O2_3 O 0.8491(4) 0.6803(8) 0.3512(4)
O5_2 O 0.5261(4) 0.4464(7) 0.4337(3)
O6_3 O 0.6155(3) 0.5342(6) 0.5190(3)
O7_3 O 0.9829(5) 0.7668(8) 0.5322(4)
C1_3 C 0.8082(5) 0.6764(10) 0.3921(5)
C2_3 C 0.7398(5) 0.5968(9) 0.3746(5)
C3_3 C 0.6995(5) 0.5818(9) 0.4235(5)
H1_3 H 0.7154 0.6170 0.4680
C4_3 C 0.6347(5) 0.5129(9) 0.4048(4)
C5_3 C 0.6114(5) 0.4596(9) 0.3392(4)
H2_3 H 0.5681 0.4133 0.3275
C6_3 C 0.6531(5) 0.4751(10) 0.2896(5)
C7_3 C 0.7169(5) 0.5429(9) 0.3087(5)
H3_3 H 0.7453 0.5530 0.2769
C8_3 C 0.6246(6) 0.4202(9) 0.2170(5)
C9_3 C 0.5881(5) 0.4968(10) 0.4562(5)
Tm4_3 Tm 0.57492(2) 0.67072(4) 0.58307(2)
O12_3 O 0.8845(3) 0.9658(6) 0.4810(3)
O1_4 O 0.3241(5) 0.2332(8) 0.4472(4)
O2_4 O 0.3491(4) 0.1803(8) 0.3512(4)
O6_4 O 0.1155(3) 0.0342(6) 0.5190(3)
O7_4 O 0.4829(5) 0.2668(8) 0.5322(4)
O8_4 O 0.5198(5) 0.1981(7) 0.4119(4)
C1_4 C 0.3082(5) 0.1764(10) 0.3921(5)
C2_4 C 0.2398(5) 0.0968(9) 0.3746(5)
C3_4 C 0.1995(5) 0.0818(9) 0.4235(5)
H1_4 H 0.2154 0.1170 0.4680
C4_4 C 0.1347(5) 0.0129(9) 0.4048(4)
C7_4 C 0.2169(5) 0.0429(9) 0.3087(5)
H3_4 H 0.2453 0.0530 0.2769
C10_3 C 0.5468(8) 0.2768(13) 0.5759(6)
H4_3 H 0.5670 0.3509 0.5825
C11_3 C 0.5590(11) 0.0845(17) 0.6030(10)
H5_3 H 0.5105 0.0832 0.5671
H6_3 H 0.5534 0.0566 0.6472
H7_3 H 0.5941 0.0362 0.5884
C12_3 C 0.6577(9) 0.2199(17) 0.6643(9)
H8_3 H 0.6694 0.3008 0.6655
H9_3 H 0.6971 0.1770 0.6526
H10_3 H 0.6546 0.1961 0.7102
C13_4 C 0.5524(7) 0.1802(11) 0.3679(6)
H11_4 H 0.5257 0.1997 0.3213
C14_4 C 0.6633(12) 0.093(2) 0.4474(10)
H12_4 H 0.6362 0.1098 0.4812
H13_4 H 0.7125 0.1288 0.4623
H14_4 H 0.6693 0.0108 0.4447
C15_4 C 0.6573(10) 0.1157(17) 0.3209(9)
H15_4 H 0.6248 0.1424 0.2759
H16_4 H 0.6664 0.0345 0.3179
H17_4 H 0.7049 0.1563 0.3322
N1_3 N 0.5870(7) 0.1991(10) 0.6121(6)
N2_4 N 0.6204(6) 0.1369(12) 0.3770(6)
Tm4_4 Tm 0.07492(2) 0.17072(4) 0.58307(2)
O12_4 O 0.3845(3) 0.4658(6) 0.4810(3)
C5_4 C 0.1114(5) 0.9596(9) 0.3392(4)
H2_4 H 0.0681 0.9133 0.3275
C6_4 C 0.1531(5) 0.9751(10) 0.2896(5)
C8_4 C 0.1246(6) 0.9202(9) 0.2170(5)
C9_4 C 0.0881(5) 0.9968(10) 0.4562(5)
O8_5 O 0.0198(5) 0.3019(7) 0.9119(4)
C13_5 C 0.0524(7) 0.3198(11) 0.8679(6)
H11_5 H 0.0257 0.3003 0.8213
C14_5 C 0.1633(12) 0.407(2) 0.9474(10)
H12_5 H 0.1362 0.3902 0.9812
H13_5 H 0.2125 0.3712 0.9623
H14_5 H 0.1693 0.4892 0.9447
C15_5 C 0.1573(10) 0.3843(17) 0.8209(9)
H15_5 H 0.1248 0.3576 0.7759
H16_5 H 0.1664 0.4655 0.8179
H17_5 H 0.2049 0.3437 0.8322
N2_5 N 0.1204(6) 0.3631(12) 0.8770(6)
O11_3 O 0.0261(4) 0.0536(7) 0.9337(3)
O7_5 O 0.9829(5) 0.2332(8) 0.0322(4)
O1_5 O 0.8241(5) 0.2668(8) 0.9472(4)
O2_5 O 0.8491(4) 0.3197(8) 0.8512(4)
O3_3 O 0.6560(4) 0.5522(7) 0.6698(3)
O4_3 O 0.5698(4) 0.6466(6) 0.7034(3)
O5_3 O 0.5261(4) 0.5536(7) 0.9337(3)
C1_5 C 0.8082(5) 0.3236(10) 0.8921(5)
C2_5 C 0.7398(5) 0.4032(9) 0.8746(5)
C3_5 C 0.6995(5) 0.4182(9) 0.9235(5)
H1_5 H 0.7154 0.3830 0.9680
C4_5 C 0.6347(5) 0.4871(9) 0.9048(4)
C5_5 C 0.6114(5) 0.5404(9) 0.8392(4)
H2_5 H 0.5681 0.5867 0.8275
C6_5 C 0.6531(5) 0.5249(10) 0.7896(5)
C7_5 C 0.7169(5) 0.4571(9) 0.8087(5)
H3_5 H 0.7453 0.4470 0.7769
C8_5 C 0.6246(6) 0.5798(9) 0.7170(5)
C9_5 C 0.5881(5) 0.5032(10) 0.9562(5)
O9_3 O 0.8440(4) 0.0522(7) 0.8302(3)
O10_3 O 0.9302(4) 0.1466(6) 0.7966(3)
O3_4 O 0.1560(4) 0.0522(7) 0.6698(3)
O4_4 O 0.0698(4) 0.1466(6) 0.7034(3)
C5_6 C 0.1114(5) 0.0404(9) 0.8392(4)
H2_6 H 0.0681 0.0867 0.8275
C6_6 C 0.1531(5) 0.0249(10) 0.7896(5)
C8_6 C 0.1246(6) 0.0798(9) 0.7170(5)
C9_6 C 0.0881(5) 0.0032(10) 0.9562(5)
O7_6 O 0.4829(5) 0.7332(8) 0.0322(4)
C10_4 C 0.5468(8) 0.7232(13) 0.0759(6)
H4_4 H 0.5670 0.6491 0.0825
C11_4 C 0.5590(11) 0.9155(17) 0.1030(10)
H5_4 H 0.5105 0.9168 0.0671
H6_4 H 0.5534 0.9434 0.1472
H7_4 H 0.5941 0.9638 0.0884
C12_4 C 0.6577(9) 0.7801(17) 0.1643(9)
H8_4 H 0.6694 0.6992 0.1655
H9_4 H 0.6971 0.8230 0.1526
H10_4 H 0.6546 0.8039 0.2102
N1_4 N 0.5870(7) 0.8009(10) 0.1121(6)
O1_6 O 0.3241(5) 0.7668(8) 0.9472(4)
O2_6 O 0.3491(4) 0.8197(8) 0.8512(4)
O8_6 O 0.5198(5) 0.8019(7) 0.9119(4)
C1_6 C 0.3082(5) 0.8236(10) 0.8921(5)
C2_6 C 0.2398(5) 0.9032(9) 0.8746(5)
C3_6 C 0.1995(5) 0.9182(9) 0.9235(5)
H1_6 H 0.2154 0.8830 0.9680
C4_6 C 0.1347(5) 0.9871(9) 0.9048(4)
C7_6 C 0.2169(5) 0.9571(9) 0.8087(5)
H3_6 H 0.2453 0.9470 0.7769
C13_6 C 0.5524(7) 0.8198(11) 0.8679(6)
H11_6 H 0.5257 0.8003 0.8213
C14_6 C 0.6633(12) 0.907(2) 0.9474(10)
H12_6 H 0.6362 0.8902 0.9812
H13_6 H 0.7125 0.8712 0.9623
H14_6 H 0.6693 0.9892 0.9447
C15_6 C 0.6573(10) 0.8843(17) 0.8209(9)
H15_6 H 0.6248 0.8576 0.7759
H16_6 H 0.6664 0.9655 0.8179
H17_6 H 0.7049 0.8437 0.8322
N2_6 N 0.6204(6) 0.8631(12) 0.8770(6)
O9_4 O 0.3440(4) 0.5522(7) 0.8302(3)
O10_4 O 0.4302(4) 0.6466(6) 0.7966(3)
O1_7 O 0.1759(5) 0.2668(8) 0.5528(4)
O2_7 O 0.1509(4) 0.3197(8) 0.6488(4)
O5_4 O 0.4739(4) 0.5536(7) 0.5663(3)
O7_7 O 0.0171(5) 0.2332(8) 0.4678(4)
C1_7 C 0.1918(5) 0.3236(10) 0.6079(5)
C2_7 C 0.2602(5) 0.4032(9) 0.6254(5)
C3_7 C 0.3005(5) 0.4182(9) 0.5765(5)
H1_7 H 0.2846 0.3830 0.5320
C4_7 C 0.3653(5) 0.4871(9) 0.5952(4)
C5_7 C 0.3886(5) 0.5404(9) 0.6608(4)
H2_7 H 0.4319 0.5867 0.6725
C6_7 C 0.3469(5) 0.5249(10) 0.7104(5)
C7_7 C 0.2831(5) 0.4571(9) 0.6913(5)
H3_7 H 0.2547 0.4470 0.7231
C8_7 C 0.3754(6) 0.5798(9) 0.7830(5)
C9_7 C 0.4119(5) 0.5032(10) 0.5438(5)
O8_7 O 0.9802(5) 0.3019(7) 0.5881(4)
C10_5 C 0.9532(8) 0.2232(13) 0.4241(6)
H4_5 H 0.9330 0.1491 0.4175
C11_5 C 0.9410(11) 0.4155(17) 0.3970(10)
H5_5 H 0.9895 0.4168 0.4329
H6_5 H 0.9466 0.4434 0.3528
H7_5 H 0.9059 0.4638 0.4116
C12_5 C 0.8423(9) 0.2801(17) 0.3357(9)
H8_5 H 0.8306 0.1992 0.3345
H9_5 H 0.8029 0.3230 0.3474
H10_5 H 0.8454 0.3039 0.2898
C13_7 C 0.9476(7) 0.3198(11) 0.6321(6)
H11_7 H 0.9743 0.3003 0.6787
C14_7 C 0.8367(12) 0.407(2) 0.5526(10)
H12_7 H 0.8638 0.3902 0.5188
H13_7 H 0.7875 0.3712 0.5377
H14_7 H 0.8307 0.4892 0.5553
C15_7 C 0.8427(10) 0.3843(17) 0.6791(9)
H15_7 H 0.8752 0.3576 0.7241
H16_7 H 0.8336 0.4655 0.6821
H17_7 H 0.7951 0.3437 0.6678
N1_5 N 0.9130(7) 0.3009(10) 0.3879(6)
N2_7 N 0.8796(6) 0.3631(12) 0.6230(6)
O11_4 O 0.9739(4) 0.0536(7) 0.5663(3)
C5_8 C 0.8886(5) 0.0404(9) 0.6608(4)
H2_8 H 0.9319 0.0867 0.6725
C6_8 C 0.8469(5) 0.0249(10) 0.7104(5)
C8_8 C 0.8754(6) 0.0798(9) 0.7830(5)
C9_8 C 0.9119(5) 0.0032(10) 0.5438(5)
O1_8 O 0.6759(5) 0.7668(8) 0.5528(4)
O2_8 O 0.6509(4) 0.8197(8) 0.6488(4)
O7_8 O 0.5171(5) 0.7332(8) 0.4678(4)
O8_8 O 0.4802(5) 0.8019(7) 0.5881(4)
C1_8 C 0.6918(5) 0.8236(10) 0.6079(5)
C2_8 C 0.7602(5) 0.9032(9) 0.6254(5)
C3_8 C 0.8005(5) 0.9182(9) 0.5765(5)
H1_8 H 0.7846 0.8830 0.5320
C4_8 C 0.8653(5) 0.9871(9) 0.5952(4)
C7_8 C 0.7831(5) 0.9571(9) 0.6913(5)
H3_8 H 0.7547 0.9470 0.7231
C10_6 C 0.4532(8) 0.7232(13) 0.4241(6)
H4_6 H 0.4330 0.6491 0.4175
C11_6 C 0.4410(11) 0.9155(17) 0.3970(10)
H5_6 H 0.4895 0.9168 0.4329
H6_6 H 0.4466 0.9434 0.3528
H7_6 H 0.4059 0.9638 0.4116
C12_6 C 0.3423(9) 0.7801(17) 0.3357(9)
H8_6 H 0.3306 0.6992 0.3345
H9_6 H 0.3029 0.8230 0.3474
H10_6 H 0.3454 0.8039 0.2898
C13_8 C 0.4476(7) 0.8198(11) 0.6321(6)
H11_8 H 0.4743 0.8003 0.6787
C14_8 C 0.3367(12) 0.907(2) 0.5526(10)
H12_8 H 0.3638 0.8902 0.5188
H13_8 H 0.2875 0.8712 0.5377
H14_8 H 0.3307 0.9892 0.5553
C15_8 C 0.3427(10) 0.8843(17) 0.6791(9)
H15_8 H 0.3752 0.8576 0.7241
H16_8 H 0.3336 0.9655 0.6821
H17_8 H 0.2951 0.8437 0.6678
N1_6 N 0.4130(7) 0.8009(10) 0.3879(6)
N2_8 N 0.3796(6) 0.8631(12) 0.6230(6)
C10_7 C 0.9532(8) 0.7768(13) 0.9241(6)
H4_7 H 0.9330 0.8509 0.9175
C11_7 C 0.9410(11) 0.5845(17) 0.8970(10)
H5_7 H 0.9895 0.5832 0.9329
H6_7 H 0.9466 0.5566 0.8528
H7_7 H 0.9059 0.5362 0.9116
C12_7 C 0.8423(9) 0.7199(17) 0.8357(9)
H8_7 H 0.8306 0.8008 0.8345
H9_7 H 0.8029 0.6770 0.8474
H10_7 H 0.8454 0.6961 0.7898
N1_7 N 0.9130(7) 0.6991(10) 0.8879(6)
C10_8 C 0.0468(8) 0.2232(13) 0.0759(6)
H4_8 H 0.0670 0.1491 0.0825
C11_8 C 0.0590(11) 0.4155(17) 0.1030(10)
H5_8 H 0.0105 0.4168 0.0671
H6_8 H 0.0534 0.4434 0.1472
H7_8 H 0.0941 0.4638 0.0884
C12_8 C 0.1577(9) 0.2801(17) 0.1643(9)
H8_8 H 0.1694 0.1992 0.1655
H9_8 H 0.1971 0.3230 0.1526
H10_8 H 0.1546 0.3039 0.2102
N1_8 N 0.0870(7) 0.3009(10) 0.1121(6)
loop_
_geom_bond_atom_site_label_1
_geom_bond_atom_site_label_2
_geom_bond_site_symmetry_1
_geom_bond_site_symmetry_2
Tm1 O1 1_555 1_555
O1 C1 1_555 1_555
O2 Tm1 1_555 1_555
O3 C8 1_555 1_555
O4 C8 1_555 1_555
O5 C9 1_555 1_555
C1 O2 1_555 1_555
C2 C1 1_555 1_555
C3 C2 1_555 1_555
H1 C3 1_555 1_555
C4 C3 1_555 1_555
C5 C4 1_555 1_555
H2 C5 1_555 1_555
C6 C5 1_555 1_555
C7 C2 1_555 1_555
H3 C7 1_555 1_555
C8 C6 1_555 1_555
C9 C4 1_555 1_555
Tm2 O3 1_555 1_555
Tm3 O5 1_555 1_555
O9 Tm1 1_555 1_555
O10 Tm1 1_555 1_555
O12 Tm1 1_555 1_555
O4 Tm2 1_555 1_555
C6 C7 1_555 1_555
Tm4 O6 1_555 1_555
C13 O8 1_555 1_555
H11 C13 1_555 1_555
C14 H12 1_555 1_555
H13 C14 1_555 1_555
H14 C14 1_555 1_555
C15 H15 1_555 1_555
H16 C15 1_555 1_555
H17 C15 1_555 1_555
N2 C13 1_555 1_555
C14 N2 1_555 1_555
C15 N2 1_555 1_555
Tm3 O1_2 1_555 1_555
O1_2 C1_2 1_555 1_555
O2_2 Tm3 1_555 1_555
O8_2 Tm3 1_555 1_555
C1_2 O2_2 1_555 1_555
C2_2 C1_2 1_555 1_555
C3_2 C2_2 1_555 1_555
H1_2 C3_2 1_555 1_555
C4_2 C3_2 1_555 1_555
C7_2 C2_2 1_555 1_555
H3_2 C7_2 1_555 1_555
C13_2 O8_2 1_555 1_555
H11_2 C13_2 1_555 1_555
C14_2 H12_2 1_555 1_555
H13_2 C14_2 1_555 1_555
H14_2 C14_2 1_555 1_555
C15_2 H15_2 1_555 1_555
H16_2 C15_2 1_555 1_555
H17_2 C15_2 1_555 1_555
N2_2 C13_2 1_555 1_555
O9_2 Tm3 1_555 1_555
O10_2 Tm3 1_555 1_555
O12_2 Tm3 1_555 1_555
C14_2 N2_2 1_555 1_555
C15_2 N2_2 1_555 1_555
C10 O7_2 1_555 1_555
H4 C10 1_555 1_555
C11 H5 1_555 1_555
H6 C11 1_555 1_555
H7 C11 1_555 1_555
C12 H8 1_555 1_555
H9 C12 1_555 1_555
H10 C12 1_555 1_555
N1 C10 1_555 1_555
Tm4_2 O6_2 1_555 1_555
C11 N1 1_555 1_555
C12 N1 1_555 1_555
O3_2 C8_2 1_555 1_555
O4_2 C8_2 1_555 1_555
O11 C9_2 1_555 1_555
H2_2 C5_2 1_555 1_555
C6_2 C5_2 1_555 1_555
C8_2 C6_2 1_555 1_555
Tm2_2 O3_2 1_555 1_555
O4_2 Tm2_2 1_555 1_555
H4_2 C10_2 1_555 1_555
C11_2 H5_2 1_555 1_555
H6_2 C11_2 1_555 1_555
H7_2 C11_2 1_555 1_555
C12_2 H8_2 1_555 1_555
H9_2 C12_2 1_555 1_555
H10_2 C12_2 1_555 1_555
C13_3 O8_3 1_555 1_555
H11_3 C13_3 1_555 1_555
C14_3 H12_3 1_555 1_555
H13_3 C14_3 1_555 1_555
H14_3 C14_3 1_555 1_555
C15_3 H15_3 1_555 1_555
H16_3 C15_3 1_555 1_555
H17_3 C15_3 1_555 1_555
N1_2 C10_2 1_555 1_555
N2_3 C13_3 1_555 1_555
C11_2 N1_2 1_555 1_555
C12_2 N1_2 1_555 1_555
C14_3 N2_3 1_555 1_555
C15_3 N2_3 1_555 1_555
Tm2_2 O1_3 1_555 1_555
O1_3 C1_3 1_555 1_555
O2_3 Tm2_2 1_555 1_555
O9_2 C8_3 1_555 1_555
O10_2 C8_3 1_555 1_555
O5_2 C9_3 1_555 1_555
O6_3 C9_3 1_555 1_555
O7_3 Tm2_2 1_555 1_555
C1_3 O2_3 1_555 1_555
C2_3 C1_3 1_555 1_555
C3_3 C2_3 1_555 1_555
H1_3 C3_3 1_555 1_555
C4_3 C3_3 1_555 1_555
C5_3 C4_3 1_555 1_555
H2_3 C5_3 1_555 1_555
C6_3 C5_3 1_555 1_555
C7_3 C2_3 1_555 1_555
H3_3 C7_3 1_555 1_555
C8_3 C6_3 1_555 1_555
C9_3 C4_3 1_555 1_555
Tm2 O5_2 1_555 1_555
Tm4_3 O6_3 1_555 1_555
O12_3 Tm2_2 1_555 1_555
C6_3 C7_3 1_555 1_555
Tm2 O1_4 1_555 1_555
O1_4 C1_4 1_555 1_555
O2_4 Tm2 1_555 1_555
O7_4 Tm2 1_555 1_555
O8_4 Tm2 1_555 1_555
C1_4 O2_4 1_555 1_555
C2_4 C1_4 1_555 1_555
C3_4 C2_4 1_555 1_555
H1_4 C3_4 1_555 1_555
C4_4 C3_4 1_555 1_555
C7_4 C2_4 1_555 1_555
H3_4 C7_4 1_555 1_555
C10_3 O7_4 1_555 1_555
H4_3 C10_3 1_555 1_555
C11_3 H5_3 1_555 1_555
H6_3 C11_3 1_555 1_555
H7_3 C11_3 1_555 1_555
C12_3 H8_3 1_555 1_555
H9_3 C12_3 1_555 1_555
H10_3 C12_3 1_555 1_555
C13_4 O8_4 1_555 1_555
H11_4 C13_4 1_555 1_555
C14_4 H12_4 1_555 1_555
H13_4 C14_4 1_555 1_555
H14_4 C14_4 1_555 1_555
C15_4 H15_4 1_555 1_555
H16_4 C15_4 1_555 1_555
H17_4 C15_4 1_555 1_555
N1_3 C10_3 1_555 1_555
N2_4 C13_4 1_555 1_555
Tm4_4 O6_4 1_555 1_555
O12_4 Tm2 1_555 1_555
C11_3 N1_3 1_555 1_555
C12_3 N1_3 1_555 1_555
C14_4 N2_4 1_555 1_555
C15_4 N2_4 1_555 1_555
O9 C8_4 1_555 1_555
O10 C8_4 1_555 1_555
O11_2 C9_4 1_555 1_555
H2_4 C5_4 1_555 1_555
C6_4 C5_4 1_555 1_555
C8_4 C6_4 1_555 1_555
C13_5 O8_5 1_555 1_555
H11_5 C13_5 1_555 1_555
C14_5 H12_5 1_555 1_555
H13_5 C14_5 1_555 1_555
H14_5 C14_5 1_555 1_555
C15_5 H15_5 1_555 1_555
H16_5 C15_5 1_555 1_555
H17_5 C15_5 1_555 1_555
N2_5 C13_5 1_555 1_555
C14_5 N2_5 1_555 1_555
C15_5 N2_5 1_555 1_555
Tm4_2 O1_5 1_555 1_555
O1_5 C1_5 1_555 1_555
O2_5 Tm4_2 1_555 1_555
O3_3 C8_5 1_555 1_555
O4_3 C8_5 1_555 1_555
O5_3 C9_5 1_555 1_555
C1_5 O2_5 1_555 1_555
C2_5 C1_5 1_555 1_555
C3_5 C2_5 1_555 1_555
H1_5 C3_5 1_555 1_555
C4_5 C3_5 1_555 1_555
C5_5 C4_5 1_555 1_555
H2_5 C5_5 1_555 1_555
C6_5 C5_5 1_555 1_555
C7_5 C2_5 1_555 1_555
H3_5 C7_5 1_555 1_555
C8_5 C6_5 1_555 1_555
C9_5 C4_5 1_555 1_555
Tm4_3 O3_3 1_555 1_555
Tm4 O5_3 1_555 1_555
O9_3 Tm4_2 1_555 1_555
O10_3 Tm4_2 1_555 1_555
O4_3 Tm4_3 1_555 1_555
C6_5 C7_5 1_555 1_555
O3_4 C8_6 1_555 1_555
O4_4 C8_6 1_555 1_555
O11_3 C9_6 1_555 1_555
H2_6 C5_6 1_555 1_555
C6_6 C5_6 1_555 1_555
C8_6 C6_6 1_555 1_555
Tm4_4 O3_4 1_555 1_555
O4_4 Tm4_4 1_555 1_555
C10_4 O7_6 1_555 1_555
H4_4 C10_4 1_555 1_555
C11_4 H5_4 1_555 1_555
H6_4 C11_4 1_555 1_555
H7_4 C11_4 1_555 1_555
C12_4 H8_4 1_555 1_555
H9_4 C12_4 1_555 1_555
H10_4 C12_4 1_555 1_555
N1_4 C10_4 1_555 1_555
C11_4 N1_4 1_555 1_555
C12_4 N1_4 1_555 1_555
Tm4 O1_6 1_555 1_555
O1_6 C1_6 1_555 1_555
O2_6 Tm4 1_555 1_555
O8_6 Tm4 1_555 1_555
C1_6 O2_6 1_555 1_555
C2_6 C1_6 1_555 1_555
C3_6 C2_6 1_555 1_555
H1_6 C3_6 1_555 1_555
C4_6 C3_6 1_555 1_555
C7_6 C2_6 1_555 1_555
H3_6 C7_6 1_555 1_555
C13_6 O8_6 1_555 1_555
H11_6 C13_6 1_555 1_555
C14_6 H12_6 1_555 1_555
H13_6 C14_6 1_555 1_555
H14_6 C14_6 1_555 1_555
C15_6 H15_6 1_555 1_555
H16_6 C15_6 1_555 1_555
H17_6 C15_6 1_555 1_555
N2_6 C13_6 1_555 1_555
O9_4 Tm4 1_555 1_555
O10_4 Tm4 1_555 1_555
C14_6 N2_6 1_555 1_555
C15_6 N2_6 1_555 1_555
Tm4_4 O1_7 1_555 1_555
O1_7 C1_7 1_555 1_555
O2_7 Tm4_4 1_555 1_555
O9_4 C8_7 1_555 1_555
O10_4 C8_7 1_555 1_555
O5_4 C9_7 1_555 1_555
O12_4 C9_7 1_555 1_555
O7_7 Tm4_4 1_555 1_555
C1_7 O2_7 1_555 1_555
C2_7 C1_7 1_555 1_555
C3_7 C2_7 1_555 1_555
H1_7 C3_7 1_555 1_555
C4_7 C3_7 1_555 1_555
C5_7 C4_7 1_555 1_555
H2_7 C5_7 1_555 1_555
C6_7 C5_7 1_555 1_555
C7_7 C2_7 1_555 1_555
H3_7 C7_7 1_555 1_555
C8_7 C6_7 1_555 1_555
C9_7 C4_7 1_555 1_555
Tm4_3 O5_4 1_555 1_555
C6_7 C7_7 1_555 1_555
H4_5 C10_5 1_555 1_555
C11_5 H5_5 1_555 1_555
H6_5 C11_5 1_555 1_555
H7_5 C11_5 1_555 1_555
C12_5 H8_5 1_555 1_555
H9_5 C12_5 1_555 1_555
H10_5 C12_5 1_555 1_555
C13_7 O8_7 1_555 1_555
H11_7 C13_7 1_555 1_555
C14_7 H12_7 1_555 1_555
H13_7 C14_7 1_555 1_555
H14_7 C14_7 1_555 1_555
C15_7 H15_7 1_555 1_555
H16_7 C15_7 1_555 1_555
H17_7 C15_7 1_555 1_555
N1_5 C10_5 1_555 1_555
N2_7 C13_7 1_555 1_555
C11_5 N1_5 1_555 1_555
C12_5 N1_5 1_555 1_555
C14_7 N2_7 1_555 1_555
C15_7 N2_7 1_555 1_555
O9_3 C8_8 1_555 1_555
O10_3 C8_8 1_555 1_555
O11_4 C9_8 1_555 1_555
H2_8 C5_8 1_555 1_555
C6_8 C5_8 1_555 1_555
C8_8 C6_8 1_555 1_555
Tm4_3 O1_8 1_555 1_555
O1_8 C1_8 1_555 1_555
O2_8 Tm4_3 1_555 1_555
O7_8 Tm4_3 1_555 1_555
O8_8 Tm4_3 1_555 1_555
C1_8 O2_8 1_555 1_555
C2_8 C1_8 1_555 1_555
C3_8 C2_8 1_555 1_555
H1_8 C3_8 1_555 1_555
C4_8 C3_8 1_555 1_555
C7_8 C2_8 1_555 1_555
H3_8 C7_8 1_555 1_555
C10_6 O7_8 1_555 1_555
H4_6 C10_6 1_555 1_555
C11_6 H5_6 1_555 1_555
H6_6 C11_6 1_555 1_555
H7_6 C11_6 1_555 1_555
C12_6 H8_6 1_555 1_555
H9_6 C12_6 1_555 1_555
H10_6 C12_6 1_555 1_555
C13_8 O8_8 1_555 1_555
H11_8 C13_8 1_555 1_555
C14_8 H12_8 1_555 1_555
H13_8 C14_8 1_555 1_555
H14_8 C14_8 1_555 1_555
C15_8 H15_8 1_555 1_555
H16_8 C15_8 1_555 1_555
H17_8 C15_8 1_555 1_555
N1_6 C10_6 1_555 1_555
N2_8 C13_8 1_555 1_555
C11_6 N1_6 1_555 1_555
C12_6 N1_6 1_555 1_555
C14_8 N2_8 1_555 1_555
C15_8 N2_8 1_555 1_555
H4_7 C10_7 1_555 1_555
C11_7 H5_7 1_555 1_555
H6_7 C11_7 1_555 1_555
H7_7 C11_7 1_555 1_555
C12_7 H8_7 1_555 1_555
H9_7 C12_7 1_555 1_555
H10_7 C12_7 1_555 1_555
N1_7 C10_7 1_555 1_555
C11_7 N1_7 1_555 1_555
C12_7 N1_7 1_555 1_555
H4_8 C10_8 1_555 1_555
C11_8 H5_8 1_555 1_555
H6_8 C11_8 1_555 1_555
H7_8 C11_8 1_555 1_555
C12_8 H8_8 1_555 1_555
H9_8 C12_8 1_555 1_555
H10_8 C12_8 1_555 1_555
N1_8 C10_8 1_555 1_555
C11_8 N1_8 1_555 1_555
C12_8 N1_8 1_555 1_555

#END
