
###############################################################################
#
# This file contains modified crystal structure data generated from the
# MOF subset of the Cambridge Structural Database (CSD) v543 
# hosted by the Cambridge Crystallographic Data Centre (CCDC).
#
# This work is licensed under the Creative Commons
# Attribution-NonCommercial-ShareAlike 4.0 International License.
# To view a copy of this license, visit
# http://creativecommons.org/licenses/by-nc-sa/4.0/
# or send a letter to
# Creative Commons, PO Box 1866, Mountain View, CA 94042, USA.
#
# CIF created using the CSD Python API on 29 September 2022
# The structure has been converted into the P1 space group
# The structure has a 3D framework
# The original CSD entry NIGGIU is in the monoclinic crystal system
# The framework has been calculated to contain at least 10.0% void space
# The void calculation uses a probe of radius 1.32A, grid spacing 0.4
#
###############################################################################

data_NIGGIU
_chemical_formula_moiety         '(C120 H136 N16 O58 Yb8)n'
_symmetry_cell_setting           triclinic
_symmetry_space_group_name_H-M   'P 1'
_symmetry_Int_Tables_number      1
_space_group_name_Hall           'P 1'
loop_
_symmetry_equiv_pos_site_id
_symmetry_equiv_pos_as_xyz
1 x,y,z
_cell_length_a                   18.299(4)
_cell_length_b                   11.592(2)
_cell_length_c                   19.557(4)
_cell_angle_alpha                90
_cell_angle_beta                 107.01(3)
_cell_angle_gamma                90
_cell_volume                     3966.99
loop_
_atom_site_label
_atom_site_type_symbol
_atom_site_fract_x
_atom_site_fract_y
_atom_site_fract_z
Yb1 Yb 0.07482(2) 0.67057(3) 0.082929(19)
C1 C 0.1255(5) 0.5795(9) 0.2172(5)
C2 C 0.1525(5) 0.5268(8) 0.2892(5)
C3 C 0.1113(5) 0.5415(8) 0.3383(5)
C4 C 0.1347(5) 0.4879(9) 0.4056(5)
C5 C 0.1986(5) 0.4192(8) 0.4227(5)
C6 C 0.2406(5) 0.4042(8) 0.3748(5)
C7 C 0.2165(6) 0.4576(9) 0.3081(6)
C8 C 0.3084(6) 0.3254(9) 0.3927(6)
C9 C 0.0882(6) 0.5035(8) 0.4567(5)
H15 H 0.071(5) 0.585(8) 0.327(5)
H16 H 0.232(7) 0.455(11) 0.284(7)
H17 H 0.213(6) 0.387(9) 0.471(6)
O1 O 0.0700(4) 0.6489(6) 0.2029(3)
O2 O 0.1570(4) 0.5535(7) 0.1702(4)
O3 O 0.3505(5) 0.3216(7) 0.3512(5)
O4 O 0.3245(5) 0.2643(8) 0.4466(5)
O5 O 0.0250(4) 0.5536(7) 0.4332(4)
O6 O 0.1152(4) 0.4651(6) 0.5182(3)
Yb2 Yb 0.42518(2) 0.17057(3) 0.417071(19)
Yb4 Yb 0.07482(2) 0.32943(3) 0.582929(19)
O9 O 0.1495(5) 0.8216(7) 0.1488(5)
O10 O 0.1755(5) 0.7643(8) 0.0534(5)
O12 O 0.1152(4) 0.5349(6) 0.0182(3)
C13 C 0.9485(8) 0.8205(10) 0.1316(7)
H8 H 0.9769 0.8065 0.1786
C14 C 0.837(2) 0.906(3) 0.0533(19)
H9 H 0.8466 0.9877 0.0519
H10 H 0.7836 0.8929 0.0446
H11 H 0.8545 0.8682 0.0172
C15 C 0.8473(12) 0.884(2) 0.1822(12)
H12 H 0.8829 0.8576 0.2258
H13 H 0.7997 0.8438 0.1744
H14 H 0.8390 0.9654 0.1855
N1 N 0.8782(8) 0.8618(14) 0.1223(8)
O8 O 0.9790(5) 0.7996(8) 0.0878(5)
Yb3 Yb 0.92518(2) 0.67057(3) 0.417071(19)
O11 O 0.9750(4) 0.5536(7) 0.0668(4)
Yb1_2 Yb 0.57482(2) 0.17057(3) 0.082929(19)
C1_2 C 0.6255(5) 0.0795(9) 0.2172(5)
C2_2 C 0.6525(5) 0.0268(8) 0.2892(5)
C3_2 C 0.6113(5) 0.0415(8) 0.3383(5)
C9_2 C 0.5882(6) 0.0035(8) 0.4567(5)
C13_2 C 0.4485(8) 0.3205(10) 0.1316(7)
H8_2 H 0.4769 0.3065 0.1786
C14_2 C 0.337(2) 0.406(3) 0.0533(19)
H9_2 H 0.3466 0.4877 0.0519
H10_2 H 0.2836 0.3929 0.0446
H11_2 H 0.3545 0.3682 0.0172
C15_2 C 0.3473(12) 0.384(2) 0.1822(12)
H12_2 H 0.3829 0.3576 0.2258
H13_2 H 0.2997 0.3438 0.1744
H14_2 H 0.3390 0.4654 0.1855
H15_2 H 0.571(5) 0.085(8) 0.327(5)
N1_2 N 0.3782(8) 0.3618(14) 0.1223(8)
O1_2 O 0.5700(4) 0.1489(6) 0.2029(3)
O2_2 O 0.6570(4) 0.0535(7) 0.1702(4)
O5_2 O 0.5250(4) 0.0536(7) 0.4332(4)
O8_2 O 0.4790(5) 0.2996(8) 0.0878(5)
O9_2 O 0.6495(5) 0.3216(7) 0.1488(5)
O10_2 O 0.6755(5) 0.2643(8) 0.0534(5)
O11_2 O 0.4750(4) 0.0536(7) 0.0668(4)
O12_2 O 0.6152(4) 0.0349(6) 0.0182(3)
C4_2 C 0.6347(5) 0.9879(9) 0.4056(5)
C5_2 C 0.6986(5) 0.9192(8) 0.4227(5)
C6_2 C 0.7406(5) 0.9042(8) 0.3748(5)
C7_2 C 0.7165(6) 0.9576(9) 0.3081(6)
C8_2 C 0.8084(6) 0.8254(9) 0.3927(6)
H16_2 H 0.732(7) 0.955(11) 0.284(7)
H17_2 H 0.713(6) 0.887(9) 0.471(6)
O3_2 O 0.8505(5) 0.8216(7) 0.3512(5)
O4_2 O 0.8245(5) 0.7643(8) 0.4466(5)
O6_2 O 0.6152(4) 0.9651(6) 0.5182(3)
Yb4_2 Yb 0.57482(2) 0.82943(3) 0.582929(19)
C10 C 0.0443(8) 0.7246(12) 0.5752(8)
H1 H 0.0652 0.6508 0.5811
C11 C 0.0623(14) 0.922(2) 0.6029(15)
H2 H 0.0095 0.9292 0.6009
H3 H 0.0694 0.9488 0.5588
H4 H 0.0931 0.9669 0.6419
C12 C 0.1603(11) 0.780(2) 0.6648(11)
H5 H 0.1683 0.6988 0.6711
H6 H 0.1625 0.8153 0.7099
H7 H 0.1993 0.8130 0.6469
C13_3 C 0.0515(8) 0.8205(10) 0.3684(7)
H8_3 H 0.0231 0.8065 0.3214
C14_3 C 0.163(2) 0.906(3) 0.4467(19)
H9_3 H 0.1534 0.9877 0.4481
H10_3 H 0.2164 0.8929 0.4554
H11_3 H 0.1455 0.8682 0.4828
C15_3 C 0.1527(12) 0.884(2) 0.3178(12)
H12_3 H 0.1171 0.8576 0.2742
H13_3 H 0.2003 0.8438 0.3256
H14_3 H 0.1610 0.9654 0.3145
N1_3 N 0.1218(8) 0.8618(14) 0.3777(8)
N2 N 0.0848(7) 0.8021(10) 0.6134(8)
O8_3 O 0.0210(5) 0.7996(8) 0.4122(5)
C1_3 C 0.8745(5) 0.5795(9) 0.2828(5)
C2_3 C 0.8475(5) 0.5268(8) 0.2108(5)
C3_3 C 0.8887(5) 0.5415(8) 0.1617(5)
C4_3 C 0.8653(5) 0.4879(9) 0.0944(5)
C5_3 C 0.8014(5) 0.4192(8) 0.0773(5)
C6_3 C 0.7594(5) 0.4042(8) 0.1252(5)
C7_3 C 0.7835(6) 0.4576(9) 0.1919(6)
C8_3 C 0.6916(6) 0.3254(9) 0.1073(6)
C9_3 C 0.9118(6) 0.5035(8) 0.0433(5)
H15_3 H 0.929(5) 0.585(8) 0.173(5)
H16_3 H 0.768(7) 0.455(11) 0.216(7)
H17_3 H 0.787(6) 0.387(9) 0.029(6)
O1_3 O 0.9300(4) 0.6489(6) 0.2971(3)
O2_3 O 0.8430(4) 0.5535(7) 0.3298(4)
O7 O 0.9824(5) 0.7333(8) 0.5322(4)
O12_3 O 0.8848(4) 0.5349(6) 0.4818(3)
O6_3 O 0.8848(4) 0.4651(6) 0.9818(3)
Yb4_3 Yb 0.92518(2) 0.32943(3) 0.917071(19)
C1_4 C 0.3745(5) 0.0795(9) 0.2828(5)
C2_4 C 0.3475(5) 0.0268(8) 0.2108(5)
C3_4 C 0.3887(5) 0.0415(8) 0.1617(5)
C9_4 C 0.4118(6) 0.0035(8) 0.0433(5)
C10_2 C 0.5443(8) 0.2246(12) 0.5752(8)
H1_2 H 0.5652 0.1508 0.5811
C11_2 C 0.5623(14) 0.422(2) 0.6029(15)
H2_2 H 0.5095 0.4292 0.6009
H3_2 H 0.5694 0.4488 0.5588
H4_2 H 0.5931 0.4669 0.6419
C12_2 C 0.6603(11) 0.280(2) 0.6648(11)
H5_2 H 0.6683 0.1988 0.6711
H6_2 H 0.6625 0.3153 0.7099
H7_2 H 0.6993 0.3130 0.6469
C13_4 C 0.5515(8) 0.3205(10) 0.3684(7)
H8_4 H 0.5231 0.3065 0.3214
C14_4 C 0.663(2) 0.406(3) 0.4467(19)
H9_4 H 0.6534 0.4877 0.4481
H10_4 H 0.7164 0.3929 0.4554
H11_4 H 0.6455 0.3682 0.4828
C15_4 C 0.6527(12) 0.384(2) 0.3178(12)
H12_4 H 0.6171 0.3576 0.2742
H13_4 H 0.7003 0.3438 0.3256
H14_4 H 0.6610 0.4654 0.3145
H15_4 H 0.429(5) 0.085(8) 0.173(5)
N1_4 N 0.6218(8) 0.3618(14) 0.3777(8)
N2_2 N 0.5848(7) 0.3021(10) 0.6134(8)
O1_4 O 0.4300(4) 0.1489(6) 0.2971(3)
O2_4 O 0.3430(4) 0.0535(7) 0.3298(4)
O7_2 O 0.4824(5) 0.2333(8) 0.5322(4)
O8_4 O 0.5210(5) 0.2996(8) 0.4122(5)
O12_4 O 0.3848(4) 0.0349(6) 0.4818(3)
C4_4 C 0.3653(5) 0.9879(9) 0.0944(5)
C5_4 C 0.3014(5) 0.9192(8) 0.0773(5)
C6_4 C 0.2594(5) 0.9042(8) 0.1252(5)
C7_4 C 0.2835(6) 0.9576(9) 0.1919(6)
C8_4 C 0.1916(6) 0.8254(9) 0.1073(6)
H16_4 H 0.268(7) 0.955(11) 0.216(7)
H17_4 H 0.287(6) 0.887(9) 0.029(6)
O6_4 O 0.3848(4) 0.9651(6) 0.9818(3)
Yb4_4 Yb 0.42518(2) 0.82943(3) 0.917071(19)
C13_5 C 0.0515(8) 0.1795(10) 0.8684(7)
H8_5 H 0.0231 0.1935 0.8214
C14_5 C 0.163(2) 0.094(3) 0.9467(19)
H9_5 H 0.1534 0.0123 0.9481
H10_5 H 0.2164 0.1071 0.9554
H11_5 H 0.1455 0.1318 0.9828
C15_5 C 0.1527(12) 0.116(2) 0.8178(12)
H12_5 H 0.1171 0.1424 0.7742
H13_5 H 0.2003 0.1562 0.8256
H14_5 H 0.1610 0.0346 0.8145
N1_5 N 0.1218(8) 0.1382(14) 0.8777(8)
O8_5 O 0.0210(5) 0.2004(8) 0.9122(5)
O11_3 O 0.0250(4) 0.4464(7) 0.9332(4)
C1_5 C 0.8745(5) 0.4205(9) 0.7828(5)
C2_5 C 0.8475(5) 0.4732(8) 0.7108(5)
C3_5 C 0.8887(5) 0.4585(8) 0.6617(5)
C4_5 C 0.8653(5) 0.5121(9) 0.5944(5)
C5_5 C 0.8014(5) 0.5808(8) 0.5773(5)
C6_5 C 0.7594(5) 0.5958(8) 0.6252(5)
C7_5 C 0.7835(6) 0.5424(9) 0.6919(6)
C8_5 C 0.6916(6) 0.6746(9) 0.6073(6)
C9_5 C 0.9118(6) 0.4965(8) 0.5433(5)
H15_5 H 0.929(5) 0.415(8) 0.673(5)
H16_5 H 0.768(7) 0.545(11) 0.716(7)
H17_5 H 0.787(6) 0.613(9) 0.529(6)
O1_5 O 0.9300(4) 0.3511(6) 0.7971(3)
O2_5 O 0.8430(4) 0.4465(7) 0.8298(4)
O3_3 O 0.6495(5) 0.6784(7) 0.6488(5)
O4_3 O 0.6755(5) 0.7357(8) 0.5534(5)
O5_3 O 0.9750(4) 0.4464(7) 0.5668(4)
O9_3 O 0.8505(5) 0.1784(7) 0.8512(5)
O10_3 O 0.8245(5) 0.2357(8) 0.9466(5)
C4_6 C 0.3653(5) 0.0121(9) 0.5944(5)
C5_6 C 0.3014(5) 0.0808(8) 0.5773(5)
C6_6 C 0.2594(5) 0.0958(8) 0.6252(5)
C7_6 C 0.2835(6) 0.0424(9) 0.6919(6)
C8_6 C 0.1916(6) 0.1746(9) 0.6073(6)
H16_6 H 0.268(7) 0.045(11) 0.716(7)
H17_6 H 0.287(6) 0.113(9) 0.529(6)
O3_4 O 0.1495(5) 0.1784(7) 0.6488(5)
O4_4 O 0.1755(5) 0.2357(8) 0.5534(5)
C1_6 C 0.3745(5) 0.9205(9) 0.7828(5)
C2_6 C 0.3475(5) 0.9732(8) 0.7108(5)
C3_6 C 0.3887(5) 0.9585(8) 0.6617(5)
C9_6 C 0.4118(6) 0.9965(8) 0.5433(5)
C13_6 C 0.5515(8) 0.6795(10) 0.8684(7)
H8_6 H 0.5231 0.6935 0.8214
C14_6 C 0.663(2) 0.594(3) 0.9467(19)
H9_6 H 0.6534 0.5123 0.9481
H10_6 H 0.7164 0.6071 0.9554
H11_6 H 0.6455 0.6318 0.9828
C15_6 C 0.6527(12) 0.616(2) 0.8178(12)
H12_6 H 0.6171 0.6424 0.7742
H13_6 H 0.7003 0.6562 0.8256
H14_6 H 0.6610 0.5346 0.8145
H15_6 H 0.429(5) 0.915(8) 0.673(5)
N1_6 N 0.6218(8) 0.6382(14) 0.8777(8)
O1_6 O 0.4300(4) 0.8511(6) 0.7971(3)
O2_6 O 0.3430(4) 0.9465(7) 0.8298(4)
O5_4 O 0.4750(4) 0.9464(7) 0.5668(4)
O8_6 O 0.5210(5) 0.7004(8) 0.9122(5)
O9_4 O 0.3505(5) 0.6784(7) 0.8512(5)
O10_4 O 0.3245(5) 0.7357(8) 0.9466(5)
O11_4 O 0.5250(4) 0.9464(7) 0.9332(4)
C1_7 C 0.1255(5) 0.4205(9) 0.7172(5)
C2_7 C 0.1525(5) 0.4732(8) 0.7892(5)
C3_7 C 0.1113(5) 0.4585(8) 0.8383(5)
C4_7 C 0.1347(5) 0.5121(9) 0.9056(5)
C5_7 C 0.1986(5) 0.5808(8) 0.9227(5)
C6_7 C 0.2406(5) 0.5958(8) 0.8748(5)
C7_7 C 0.2165(6) 0.5424(9) 0.8081(6)
C8_7 C 0.3084(6) 0.6746(9) 0.8927(6)
C9_7 C 0.0882(6) 0.4965(8) 0.9567(5)
H15_7 H 0.071(5) 0.415(8) 0.827(5)
H16_7 H 0.232(7) 0.545(11) 0.784(7)
H17_7 H 0.213(6) 0.613(9) 0.971(6)
O1_7 O 0.0700(4) 0.3511(6) 0.7029(3)
O2_7 O 0.1570(4) 0.4465(7) 0.6702(4)
O7_3 O 0.0176(5) 0.2667(8) 0.4678(4)
C10_3 C 0.9557(8) 0.2754(12) 0.4248(8)
H1_3 H 0.9348 0.3492 0.4189
C11_3 C 0.9377(14) 0.078(2) 0.3971(15)
H2_3 H 0.9905 0.0708 0.3991
H3_3 H 0.9306 0.0512 0.4412
H4_3 H 0.9069 0.0331 0.3581
C12_3 C 0.8397(11) 0.220(2) 0.3352(11)
H5_3 H 0.8317 0.3012 0.3289
H6_3 H 0.8375 0.1847 0.2901
H7_3 H 0.8007 0.1870 0.3531
C13_7 C 0.9485(8) 0.1795(10) 0.6316(7)
H8_7 H 0.9769 0.1935 0.6786
C14_7 C 0.837(2) 0.094(3) 0.5533(19)
H9_7 H 0.8466 0.0123 0.5519
H10_7 H 0.7836 0.1071 0.5446
H11_7 H 0.8545 0.1318 0.5172
C15_7 C 0.8473(12) 0.116(2) 0.6822(12)
H12_7 H 0.8829 0.1424 0.7258
H13_7 H 0.7997 0.1562 0.6744
H14_7 H 0.8390 0.0346 0.6855
N1_7 N 0.8782(8) 0.1382(14) 0.6223(8)
N2_3 N 0.9152(7) 0.1979(10) 0.3866(8)
O8_7 O 0.9790(5) 0.2004(8) 0.5878(5)
C4_8 C 0.6347(5) 0.0121(9) 0.9056(5)
C5_8 C 0.6986(5) 0.0808(8) 0.9227(5)
C6_8 C 0.7406(5) 0.0958(8) 0.8748(5)
C7_8 C 0.7165(6) 0.0424(9) 0.8081(6)
C8_8 C 0.8084(6) 0.1746(9) 0.8927(6)
H16_8 H 0.732(7) 0.045(11) 0.784(7)
H17_8 H 0.713(6) 0.113(9) 0.971(6)
C1_8 C 0.6255(5) 0.9205(9) 0.7172(5)
C2_8 C 0.6525(5) 0.9732(8) 0.7892(5)
C3_8 C 0.6113(5) 0.9585(8) 0.8383(5)
C9_8 C 0.5882(6) 0.9965(8) 0.9567(5)
C10_4 C 0.4557(8) 0.7754(12) 0.4248(8)
H1_4 H 0.4348 0.8492 0.4189
C11_4 C 0.4377(14) 0.578(2) 0.3971(15)
H2_4 H 0.4905 0.5708 0.3991
H3_4 H 0.4306 0.5512 0.4412
H4_4 H 0.4069 0.5331 0.3581
C12_4 C 0.3397(11) 0.720(2) 0.3352(11)
H5_4 H 0.3317 0.8012 0.3289
H6_4 H 0.3375 0.6847 0.2901
H7_4 H 0.3007 0.6870 0.3531
C13_8 C 0.4485(8) 0.6795(10) 0.6316(7)
H8_8 H 0.4769 0.6935 0.6786
C14_8 C 0.337(2) 0.594(3) 0.5533(19)
H9_8 H 0.3466 0.5123 0.5519
H10_8 H 0.2836 0.6071 0.5446
H11_8 H 0.3545 0.6318 0.5172
C15_8 C 0.3473(12) 0.616(2) 0.6822(12)
H12_8 H 0.3829 0.6424 0.7258
H13_8 H 0.2997 0.6562 0.6744
H14_8 H 0.3390 0.5346 0.6855
H15_8 H 0.571(5) 0.915(8) 0.827(5)
N1_8 N 0.3782(8) 0.6382(14) 0.6223(8)
N2_4 N 0.4152(7) 0.6979(10) 0.3866(8)
O1_8 O 0.5700(4) 0.8511(6) 0.7029(3)
O2_8 O 0.6570(4) 0.9465(7) 0.6702(4)
O7_4 O 0.5176(5) 0.7667(8) 0.4678(4)
O8_8 O 0.4790(5) 0.7004(8) 0.5878(5)
O7_5 O 0.0176(5) 0.7333(8) 0.9678(4)
C10_5 C 0.9557(8) 0.7246(12) 0.9248(8)
H1_5 H 0.9348 0.6508 0.9189
C11_5 C 0.9377(14) 0.922(2) 0.8971(15)
H2_5 H 0.9905 0.9292 0.8991
H3_5 H 0.9306 0.9488 0.9412
H4_5 H 0.9069 0.9669 0.8581
C12_5 C 0.8397(11) 0.780(2) 0.8352(11)
H5_5 H 0.8317 0.6988 0.8289
H6_5 H 0.8375 0.8153 0.7901
H7_5 H 0.8007 0.8130 0.8531
N2_5 N 0.9152(7) 0.8021(10) 0.8866(8)
C10_6 C 0.4557(8) 0.2246(12) 0.9248(8)
H1_6 H 0.4348 0.1508 0.9189
C11_6 C 0.4377(14) 0.422(2) 0.8971(15)
H2_6 H 0.4905 0.4292 0.8991
H3_6 H 0.4306 0.4488 0.9412
H4_6 H 0.4069 0.4669 0.8581
C12_6 C 0.3397(11) 0.280(2) 0.8352(11)
H5_6 H 0.3317 0.1988 0.8289
H6_6 H 0.3375 0.3153 0.7901
H7_6 H 0.3007 0.3130 0.8531
N2_6 N 0.4152(7) 0.3021(10) 0.8866(8)
O7_6 O 0.5176(5) 0.2333(8) 0.9678(4)
C10_7 C 0.0443(8) 0.2754(12) 0.0752(8)
H1_7 H 0.0652 0.3492 0.0811
C11_7 C 0.0623(14) 0.078(2) 0.1029(15)
H2_7 H 0.0095 0.0708 0.1009
H3_7 H 0.0694 0.0512 0.0588
H4_7 H 0.0931 0.0331 0.1419
C12_7 C 0.1603(11) 0.220(2) 0.1648(11)
H5_7 H 0.1683 0.3012 0.1711
H6_7 H 0.1625 0.1847 0.2099
H7_7 H 0.1993 0.1870 0.1469
N2_7 N 0.0848(7) 0.1979(10) 0.1134(8)
O7_7 O 0.9824(5) 0.2667(8) 0.0322(4)
C10_8 C 0.5443(8) 0.7754(12) 0.0752(8)
H1_8 H 0.5652 0.8492 0.0811
C11_8 C 0.5623(14) 0.578(2) 0.1029(15)
H2_8 H 0.5095 0.5708 0.1009
H3_8 H 0.5694 0.5512 0.0588
H4_8 H 0.5931 0.5331 0.1419
C12_8 C 0.6603(11) 0.720(2) 0.1648(11)
H5_8 H 0.6683 0.8012 0.1711
H6_8 H 0.6625 0.6847 0.2099
H7_8 H 0.6993 0.6870 0.1469
N2_8 N 0.5848(7) 0.6979(10) 0.1134(8)
O7_8 O 0.4824(5) 0.7667(8) 0.0322(4)
loop_
_geom_bond_atom_site_label_1
_geom_bond_atom_site_label_2
_geom_bond_site_symmetry_1
_geom_bond_site_symmetry_2
Yb1 O1 1_555 1_555
C1 C2 1_555 1_555
C2 C3 1_555 1_555
C3 C4 1_555 1_555
C4 C5 1_555 1_555
C5 C6 1_555 1_555
C6 C7 1_555 1_555
C7 C2 1_555 1_555
C8 C6 1_555 1_555
C9 C4 1_555 1_555
H15 C3 1_555 1_555
H16 C7 1_555 1_555
H17 C5 1_555 1_555
O1 C1 1_555 1_555
O2 Yb1 1_555 1_555
O3 C8 1_555 1_555
O4 C8 1_555 1_555
O5 C9 1_555 1_555
O6 C9 1_555 1_555
Yb2 O3 1_555 1_555
Yb4 O6 1_555 1_555
O9 Yb1 1_555 1_555
O10 Yb1 1_555 1_555
O12 Yb1 1_555 1_555
C1 O2 1_555 1_555
O4 Yb2 1_555 1_555
C13 H8 1_555 1_555
C14 H9 1_555 1_555
H10 C14 1_555 1_555
H11 C14 1_555 1_555
C15 H12 1_555 1_555
H13 C15 1_555 1_555
H14 C15 1_555 1_555
N1 C13 1_555 1_555
C13 O8 1_555 1_555
C14 N1 1_555 1_555
C15 N1 1_555 1_555
Yb1_2 O1_2 1_555 1_555
C1_2 C2_2 1_555 1_555
C2_2 C3_2 1_555 1_555
C13_2 H8_2 1_555 1_555
C14_2 H9_2 1_555 1_555
H10_2 C14_2 1_555 1_555
H11_2 C14_2 1_555 1_555
C15_2 H12_2 1_555 1_555
H13_2 C15_2 1_555 1_555
H14_2 C15_2 1_555 1_555
H15_2 C3_2 1_555 1_555
N1_2 C13_2 1_555 1_555
O1_2 C1_2 1_555 1_555
O2_2 Yb1_2 1_555 1_555
O5_2 C9_2 1_555 1_555
O8_2 Yb1_2 1_555 1_555
Yb2 O5_2 1_555 1_555
O9_2 Yb1_2 1_555 1_555
O10_2 Yb1_2 1_555 1_555
O11_2 Yb1_2 1_555 1_555
O12_2 Yb1_2 1_555 1_555
C1_2 O2_2 1_555 1_555
C13_2 O8_2 1_555 1_555
C14_2 N1_2 1_555 1_555
C15_2 N1_2 1_555 1_555
C4_2 C5_2 1_555 1_555
C5_2 C6_2 1_555 1_555
C6_2 C7_2 1_555 1_555
C8_2 C6_2 1_555 1_555
H16_2 C7_2 1_555 1_555
H17_2 C5_2 1_555 1_555
O3_2 C8_2 1_555 1_555
O4_2 C8_2 1_555 1_555
Yb3 O3_2 1_555 1_555
Yb4_2 O6_2 1_555 1_555
O4_2 Yb3 1_555 1_555
C10 H1 1_555 1_555
C11 H2 1_555 1_555
H3 C11 1_555 1_555
H4 C11 1_555 1_555
C12 H5 1_555 1_555
H6 C12 1_555 1_555
H7 C12 1_555 1_555
C13_3 H8_3 1_555 1_555
C14_3 H9_3 1_555 1_555
H10_3 C14_3 1_555 1_555
H11_3 C14_3 1_555 1_555
C15_3 H12_3 1_555 1_555
H13_3 C15_3 1_555 1_555
H14_3 C15_3 1_555 1_555
N1_3 C13_3 1_555 1_555
N2 C10 1_555 1_555
C11 N2 1_555 1_555
C12 N2 1_555 1_555
C13_3 O8_3 1_555 1_555
C14_3 N1_3 1_555 1_555
C15_3 N1_3 1_555 1_555
Yb3 O1_3 1_555 1_555
C1_3 C2_3 1_555 1_555
C2_3 C3_3 1_555 1_555
C3_3 C4_3 1_555 1_555
C4_3 C5_3 1_555 1_555
C5_3 C6_3 1_555 1_555
C6_3 C7_3 1_555 1_555
C7_3 C2_3 1_555 1_555
C8_3 C6_3 1_555 1_555
C9_3 C4_3 1_555 1_555
H15_3 C3_3 1_555 1_555
H16_3 C7_3 1_555 1_555
H17_3 C5_3 1_555 1_555
O1_3 C1_3 1_555 1_555
O2_3 Yb3 1_555 1_555
O9_2 C8_3 1_555 1_555
O10_2 C8_3 1_555 1_555
O11 C9_3 1_555 1_555
O7 Yb3 1_555 1_555
O12_3 Yb3 1_555 1_555
C1_3 O2_3 1_555 1_555
Yb4_3 O6_3 1_555 1_555
Yb2 O1_4 1_555 1_555
C1_4 C2_4 1_555 1_555
C2_4 C3_4 1_555 1_555
C10_2 H1_2 1_555 1_555
C11_2 H2_2 1_555 1_555
H3_2 C11_2 1_555 1_555
H4_2 C11_2 1_555 1_555
C12_2 H5_2 1_555 1_555
H6_2 C12_2 1_555 1_555
H7_2 C12_2 1_555 1_555
C13_4 H8_4 1_555 1_555
C14_4 H9_4 1_555 1_555
H10_4 C14_4 1_555 1_555
H11_4 C14_4 1_555 1_555
C15_4 H12_4 1_555 1_555
H13_4 C15_4 1_555 1_555
H14_4 C15_4 1_555 1_555
H15_4 C3_4 1_555 1_555
N1_4 C13_4 1_555 1_555
N2_2 C10_2 1_555 1_555
O1_4 C1_4 1_555 1_555
O2_4 Yb2 1_555 1_555
O11_2 C9_4 1_555 1_555
O7_2 Yb2 1_555 1_555
O8_4 Yb2 1_555 1_555
O12_4 Yb2 1_555 1_555
C1_4 O2_4 1_555 1_555
C10_2 O7_2 1_555 1_555
C11_2 N2_2 1_555 1_555
C12_2 N2_2 1_555 1_555
C13_4 O8_4 1_555 1_555
C14_4 N1_4 1_555 1_555
C15_4 N1_4 1_555 1_555
C4_4 C5_4 1_555 1_555
C5_4 C6_4 1_555 1_555
C6_4 C7_4 1_555 1_555
C8_4 C6_4 1_555 1_555
H16_4 C7_4 1_555 1_555
H17_4 C5_4 1_555 1_555
O9 C8_4 1_555 1_555
O10 C8_4 1_555 1_555
Yb4_4 O6_4 1_555 1_555
C13_5 H8_5 1_555 1_555
C14_5 H9_5 1_555 1_555
H10_5 C14_5 1_555 1_555
H11_5 C14_5 1_555 1_555
C15_5 H12_5 1_555 1_555
H13_5 C15_5 1_555 1_555
H14_5 C15_5 1_555 1_555
N1_5 C13_5 1_555 1_555
C13_5 O8_5 1_555 1_555
C14_5 N1_5 1_555 1_555
C15_5 N1_5 1_555 1_555
Yb4_3 O1_5 1_555 1_555
C1_5 C2_5 1_555 1_555
C2_5 C3_5 1_555 1_555
C3_5 C4_5 1_555 1_555
C4_5 C5_5 1_555 1_555
C5_5 C6_5 1_555 1_555
C6_5 C7_5 1_555 1_555
C7_5 C2_5 1_555 1_555
C8_5 C6_5 1_555 1_555
C9_5 C4_5 1_555 1_555
H15_5 C3_5 1_555 1_555
H16_5 C7_5 1_555 1_555
H17_5 C5_5 1_555 1_555
O1_5 C1_5 1_555 1_555
O2_5 Yb4_3 1_555 1_555
O3_3 C8_5 1_555 1_555
O4_3 C8_5 1_555 1_555
O5_3 C9_5 1_555 1_555
O12_3 C9_5 1_555 1_555
Yb4_2 O3_3 1_555 1_555
O9_3 Yb4_3 1_555 1_555
O10_3 Yb4_3 1_555 1_555
C1_5 O2_5 1_555 1_555
O4_3 Yb4_2 1_555 1_555
C4_6 C5_6 1_555 1_555
C5_6 C6_6 1_555 1_555
C6_6 C7_6 1_555 1_555
C8_6 C6_6 1_555 1_555
H16_6 C7_6 1_555 1_555
H17_6 C5_6 1_555 1_555
O3_4 C8_6 1_555 1_555
O4_4 C8_6 1_555 1_555
Yb4 O3_4 1_555 1_555
O4_4 Yb4 1_555 1_555
Yb4_4 O1_6 1_555 1_555
C1_6 C2_6 1_555 1_555
C2_6 C3_6 1_555 1_555
C13_6 H8_6 1_555 1_555
C14_6 H9_6 1_555 1_555
H10_6 C14_6 1_555 1_555
H11_6 C14_6 1_555 1_555
C15_6 H12_6 1_555 1_555
H13_6 C15_6 1_555 1_555
H14_6 C15_6 1_555 1_555
H15_6 C3_6 1_555 1_555
N1_6 C13_6 1_555 1_555
O1_6 C1_6 1_555 1_555
O2_6 Yb4_4 1_555 1_555
O5_4 C9_6 1_555 1_555
O8_6 Yb4_4 1_555 1_555
Yb4_2 O5_4 1_555 1_555
O9_4 Yb4_4 1_555 1_555
O10_4 Yb4_4 1_555 1_555
O11_4 Yb4_4 1_555 1_555
C1_6 O2_6 1_555 1_555
C13_6 O8_6 1_555 1_555
C14_6 N1_6 1_555 1_555
C15_6 N1_6 1_555 1_555
Yb4 O1_7 1_555 1_555
C1_7 C2_7 1_555 1_555
C2_7 C3_7 1_555 1_555
C3_7 C4_7 1_555 1_555
C4_7 C5_7 1_555 1_555
C5_7 C6_7 1_555 1_555
C6_7 C7_7 1_555 1_555
C7_7 C2_7 1_555 1_555
C8_7 C6_7 1_555 1_555
C9_7 C4_7 1_555 1_555
H15_7 C3_7 1_555 1_555
H16_7 C7_7 1_555 1_555
H17_7 C5_7 1_555 1_555
O1_7 C1_7 1_555 1_555
O2_7 Yb4 1_555 1_555
O9_4 C8_7 1_555 1_555
O10_4 C8_7 1_555 1_555
O11_3 C9_7 1_555 1_555
O7_3 Yb4 1_555 1_555
C1_7 O2_7 1_555 1_555
C10_3 H1_3 1_555 1_555
C11_3 H2_3 1_555 1_555
H3_3 C11_3 1_555 1_555
H4_3 C11_3 1_555 1_555
C12_3 H5_3 1_555 1_555
H6_3 C12_3 1_555 1_555
H7_3 C12_3 1_555 1_555
C13_7 H8_7 1_555 1_555
C14_7 H9_7 1_555 1_555
H10_7 C14_7 1_555 1_555
H11_7 C14_7 1_555 1_555
C15_7 H12_7 1_555 1_555
H13_7 C15_7 1_555 1_555
H14_7 C15_7 1_555 1_555
N1_7 C13_7 1_555 1_555
N2_3 C10_3 1_555 1_555
C11_3 N2_3 1_555 1_555
C12_3 N2_3 1_555 1_555
C13_7 O8_7 1_555 1_555
C14_7 N1_7 1_555 1_555
C15_7 N1_7 1_555 1_555
C4_8 C5_8 1_555 1_555
C5_8 C6_8 1_555 1_555
C6_8 C7_8 1_555 1_555
C8_8 C6_8 1_555 1_555
H16_8 C7_8 1_555 1_555
H17_8 C5_8 1_555 1_555
O9_3 C8_8 1_555 1_555
O10_3 C8_8 1_555 1_555
Yb4_2 O1_8 1_555 1_555
C1_8 C2_8 1_555 1_555
C2_8 C3_8 1_555 1_555
C10_4 H1_4 1_555 1_555
C11_4 H2_4 1_555 1_555
H3_4 C11_4 1_555 1_555
H4_4 C11_4 1_555 1_555
C12_4 H5_4 1_555 1_555
H6_4 C12_4 1_555 1_555
H7_4 C12_4 1_555 1_555
C13_8 H8_8 1_555 1_555
C14_8 H9_8 1_555 1_555
H10_8 C14_8 1_555 1_555
H11_8 C14_8 1_555 1_555
C15_8 H12_8 1_555 1_555
H13_8 C15_8 1_555 1_555
H14_8 C15_8 1_555 1_555
H15_8 C3_8 1_555 1_555
N1_8 C13_8 1_555 1_555
N2_4 C10_4 1_555 1_555
O1_8 C1_8 1_555 1_555
O2_8 Yb4_2 1_555 1_555
O11_4 C9_8 1_555 1_555
O7_4 Yb4_2 1_555 1_555
O8_8 Yb4_2 1_555 1_555
C1_8 O2_8 1_555 1_555
C10_4 O7_4 1_555 1_555
C11_4 N2_4 1_555 1_555
C12_4 N2_4 1_555 1_555
C13_8 O8_8 1_555 1_555
C14_8 N1_8 1_555 1_555
C15_8 N1_8 1_555 1_555
C10_5 H1_5 1_555 1_555
C11_5 H2_5 1_555 1_555
H3_5 C11_5 1_555 1_555
H4_5 C11_5 1_555 1_555
C12_5 H5_5 1_555 1_555
H6_5 C12_5 1_555 1_555
H7_5 C12_5 1_555 1_555
N2_5 C10_5 1_555 1_555
C11_5 N2_5 1_555 1_555
C12_5 N2_5 1_555 1_555
C10_6 H1_6 1_555 1_555
C11_6 H2_6 1_555 1_555
H3_6 C11_6 1_555 1_555
H4_6 C11_6 1_555 1_555
C12_6 H5_6 1_555 1_555
H6_6 C12_6 1_555 1_555
H7_6 C12_6 1_555 1_555
N2_6 C10_6 1_555 1_555
C10_6 O7_6 1_555 1_555
C11_6 N2_6 1_555 1_555
C12_6 N2_6 1_555 1_555
C10_7 H1_7 1_555 1_555
C11_7 H2_7 1_555 1_555
H3_7 C11_7 1_555 1_555
H4_7 C11_7 1_555 1_555
C12_7 H5_7 1_555 1_555
H6_7 C12_7 1_555 1_555
H7_7 C12_7 1_555 1_555
N2_7 C10_7 1_555 1_555
C11_7 N2_7 1_555 1_555
C12_7 N2_7 1_555 1_555
C10_8 H1_8 1_555 1_555
C11_8 H2_8 1_555 1_555
H3_8 C11_8 1_555 1_555
H4_8 C11_8 1_555 1_555
C12_8 H5_8 1_555 1_555
H6_8 C12_8 1_555 1_555
H7_8 C12_8 1_555 1_555
N2_8 C10_8 1_555 1_555
C10_8 O7_8 1_555 1_555
C11_8 N2_8 1_555 1_555
C12_8 N2_8 1_555 1_555

#END
