
###############################################################################
#
# This file contains modified crystal structure data generated from the
# MOF subset of the Cambridge Structural Database (CSD) v543 
# hosted by the Cambridge Crystallographic Data Centre (CCDC).
#
# This work is licensed under the Creative Commons
# Attribution-NonCommercial-ShareAlike 4.0 International License.
# To view a copy of this license, visit
# http://creativecommons.org/licenses/by-nc-sa/4.0/
# or send a letter to
# Creative Commons, PO Box 1866, Mountain View, CA 94042, USA.
#
# CIF created using the CSD Python API on 29 September 2022
# The structure has been converted into the P1 space group
# The structure has a 3D framework
# The original CSD entry NIGPAW is in the cubic crystal system
# The framework has been calculated to contain at least 10.0% void space
# The void calculation uses a probe of radius 1.32A, grid spacing 0.4
#
###############################################################################

data_NIGPAW
_chemical_formula_moiety         '(C432 H240 Co35 O108)n'
_symmetry_cell_setting           triclinic
_symmetry_space_group_name_H-M   'P 1'
_symmetry_Int_Tables_number      1
_space_group_name_Hall           'P 1'
loop_
_symmetry_equiv_pos_site_id
_symmetry_equiv_pos_as_xyz
1 x,y,z
_cell_length_a                   25.6339(6)
_cell_length_b                   25.6339(6)
_cell_length_c                   25.6339(6)
_cell_angle_alpha                90
_cell_angle_beta                 90
_cell_angle_gamma                90
_cell_volume                     16844
loop_
_atom_site_label
_atom_site_type_symbol
_atom_site_fract_x
_atom_site_fract_y
_atom_site_fract_z
Co14 Co 0.5000 -0.0000 0.08358(2)
Co26 Co 0.08358(2) -0.0000 0.5000
C1 C 0.22870(10) 0.22870(10) 0.16541(13)
H1 H 0.2430 0.2430 0.1353
C2 C 0.25405(14) 0.18491(10) 0.18491(10)
C3 C 0.30051(14) 0.16175(10) 0.16175(10)
C4 C 0.32097(10) 0.17656(10) 0.11370(9)
H2 H 0.3024 0.2006 0.0938
C5 C 0.36727(9) 0.15748(9) 0.09399(9)
H3 H 0.3848 0.1747 0.0673
C6 C 0.38581(11) 0.11416(8) 0.11416(8)
C7 C 0.43098(12) 0.09241(9) 0.09241(9)
O1 O 0.45110(6) 0.05218(6) 0.11583(6)
O2 O 0.5000 0.0000 0.0000
C8 C 0.16541(13) 0.22870(10) 0.22870(10)
H4 H 0.1353 0.2430 0.2430
C9 C 0.18491(10) 0.25405(14) 0.18491(10)
C10 C 0.16175(10) 0.30051(14) 0.16175(10)
C11 C 0.11370(9) 0.32097(10) 0.17656(10)
H5 H 0.0938 0.3024 0.2006
C12 C 0.09399(9) 0.36727(9) 0.15748(9)
H6 H 0.0673 0.3848 0.1747
C13 C 0.11416(8) 0.38581(11) 0.11416(8)
C14 C 0.09241(9) 0.43098(12) 0.09241(9)
O3 O 0.11583(6) 0.45110(6) 0.05218(6)
C15 C 0.22870(10) 0.16541(13) 0.22870(10)
H7 H 0.2430 0.1353 0.2430
C16 C 0.18491(10) 0.18491(10) 0.25405(14)
C17 C 0.16175(10) 0.16175(10) 0.30051(14)
C18 C 0.17656(10) 0.11370(9) 0.32097(10)
H8 H 0.2006 0.0938 0.3024
C19 C 0.15748(9) 0.09399(9) 0.36727(9)
H9 H 0.1747 0.0673 0.3848
C20 C 0.11416(8) 0.11416(8) 0.38581(11)
C21 C 0.09241(9) 0.09241(9) 0.43098(12)
O4 O 0.05218(6) 0.11583(6) 0.45110(6)
C22 C 0.17656(10) 0.32097(10) 0.11370(9)
H10 H 0.2006 0.3024 0.0938
C23 C 0.15748(9) 0.36727(9) 0.09399(9)
H11 H 0.1747 0.3848 0.0673
O5 O 0.05218(6) 0.45110(6) 0.11583(6)
C24 C 0.32097(10) 0.11370(9) 0.17656(10)
H12 H 0.3024 0.0938 0.2006
C25 C 0.36727(9) 0.09399(9) 0.15748(9)
H13 H 0.3848 0.0673 0.1747
O6 O 0.45110(6) 0.11583(6) 0.05218(6)
C26 C 0.11370(9) 0.17656(10) 0.32097(10)
H14 H 0.0938 0.2006 0.3024
C27 C 0.09399(9) 0.15748(9) 0.36727(9)
H15 H 0.0673 0.1747 0.3848
O7 O 0.11583(6) 0.05218(6) 0.45110(6)
Co3 Co 0.08358(2) 0.5000 0.0000
O14 O 0.0000 0.5000 0.0000
Co6 Co -0.0000 0.08358(2) 0.5000
C163 C 0.22870(10) 0.77130(10) 0.16541(13)
H91 H 0.2430 0.7570 0.1353
C164 C 0.18491(10) 0.74595(14) 0.18491(10)
C165 C 0.16175(10) 0.69949(14) 0.16175(10)
C166 C 0.17656(10) 0.67903(10) 0.11370(9)
H92 H 0.2006 0.6976 0.0938
C167 C 0.15748(9) 0.63273(9) 0.09399(9)
H93 H 0.1747 0.6152 0.0673
C168 C 0.11416(8) 0.61419(11) 0.11416(8)
C169 C 0.09241(9) 0.56902(12) 0.09241(9)
O40 O 0.05218(6) 0.54890(6) 0.11583(6)
C170 C 0.22870(10) 0.83459(13) 0.22870(10)
H94 H 0.2430 0.8647 0.2430
C171 C 0.25405(14) 0.81509(10) 0.18491(10)
C172 C 0.30051(14) 0.83825(10) 0.16175(10)
C173 C 0.32097(10) 0.88630(9) 0.17656(10)
H95 H 0.3024 0.9062 0.2006
C174 C 0.36727(9) 0.90601(9) 0.15748(9)
H96 H 0.3848 0.9327 0.1747
C175 C 0.38581(11) 0.88584(8) 0.11416(8)
C176 C 0.43098(12) 0.90759(9) 0.09241(9)
O41 O 0.45110(6) 0.88417(6) 0.05218(6)
C177 C 0.16541(13) 0.77130(10) 0.22870(10)
H97 H 0.1353 0.7570 0.2430
C178 C 0.18491(10) 0.81509(10) 0.25405(14)
C179 C 0.16175(10) 0.83825(10) 0.30051(14)
C180 C 0.11370(9) 0.82344(10) 0.32097(10)
H98 H 0.0938 0.7994 0.3024
C181 C 0.09399(9) 0.84252(9) 0.36727(9)
H99 H 0.0673 0.8253 0.3848
C182 C 0.11416(8) 0.88584(8) 0.38581(11)
C183 C 0.09241(9) 0.90759(9) 0.43098(12)
O42 O 0.11583(6) 0.94782(6) 0.45110(6)
C184 C 0.32097(10) 0.82344(10) 0.11370(9)
H100 H 0.3024 0.7994 0.0938
C185 C 0.36727(9) 0.84252(9) 0.09399(9)
H101 H 0.3848 0.8253 0.0673
O43 O 0.45110(6) 0.94782(6) 0.11583(6)
C186 C 0.11370(9) 0.67903(10) 0.17656(10)
H102 H 0.0938 0.6976 0.2006
C187 C 0.09399(9) 0.63273(9) 0.15748(9)
H103 H 0.0673 0.6152 0.1747
O44 O 0.11583(6) 0.54890(6) 0.05218(6)
C188 C 0.17656(10) 0.88630(9) 0.32097(10)
H104 H 0.2006 0.9062 0.3024
C189 C 0.15748(9) 0.90601(9) 0.36727(9)
H105 H 0.1747 0.9327 0.3848
O45 O 0.05218(6) 0.88417(6) 0.45110(6)
Co9 Co 0.5000 0.08358(2) 0.0000
Co12 Co -0.0000 0.5000 0.08358(2)
Co14_2 Co 0.5000 1.0000 0.08358(2)
Co18 Co -0.0000 0.91642(2) 0.5000
Co24 Co 0.5000 0.91642(2) 0.0000
Co26_2 Co 0.08358(2) 1.0000 0.5000
O60 O 0.54890(6) 0.11583(6) 0.05218(6)
O62 O 0.11583(6) 0.05218(6) 0.54890(6)
O64 O 0.54890(6) 0.05218(6) 0.11583(6)
O70 O 0.05218(6) 0.11583(6) 0.54890(6)
O76 O 0.0000 0.0000 0.5000
O2_2 O 0.5000 0.0000 1.0000
Co2 Co 0.5000 0.0000 0.91642(2)
Co3_2 Co 0.08358(2) 0.5000 1.0000
O14_2 O 0.0000 0.5000 1.0000
C109 C 0.22870(10) 0.22870(10) 0.83459(13)
H61 H 0.2430 0.2430 0.8647
C110 C 0.18491(10) 0.25405(14) 0.81509(10)
C111 C 0.16175(10) 0.30051(14) 0.83825(10)
C112 C 0.17656(10) 0.32097(10) 0.88630(9)
H62 H 0.2006 0.3024 0.9062
C113 C 0.15748(9) 0.36727(9) 0.90601(9)
H63 H 0.1747 0.3848 0.9327
C114 C 0.11416(8) 0.38581(11) 0.88584(8)
C115 C 0.09241(9) 0.43098(12) 0.90759(9)
O28 O 0.05218(6) 0.45110(6) 0.88417(6)
C116 C 0.22870(10) 0.16541(13) 0.77130(10)
H64 H 0.2430 0.1353 0.7570
C117 C 0.25405(14) 0.18491(10) 0.81509(10)
C118 C 0.30051(14) 0.16175(10) 0.83825(10)
C119 C 0.32097(10) 0.11370(9) 0.82344(10)
H65 H 0.3024 0.0938 0.7994
C120 C 0.36727(9) 0.09399(9) 0.84252(9)
H66 H 0.3848 0.0673 0.8253
C121 C 0.38581(11) 0.11416(8) 0.88584(8)
C122 C 0.43098(12) 0.09241(9) 0.90759(9)
O29 O 0.45110(6) 0.11583(6) 0.94782(6)
C123 C 0.16541(13) 0.22870(10) 0.77130(10)
H67 H 0.1353 0.2430 0.7570
C124 C 0.18491(10) 0.18491(10) 0.74595(14)
C125 C 0.16175(10) 0.16175(10) 0.69949(14)
C126 C 0.11370(9) 0.17656(10) 0.67903(10)
H68 H 0.0938 0.2006 0.6976
C127 C 0.09399(9) 0.15748(9) 0.63273(9)
H69 H 0.0673 0.1747 0.6152
C128 C 0.11416(8) 0.11416(8) 0.61419(11)
C129 C 0.09241(9) 0.09241(9) 0.56902(12)
C130 C 0.32097(10) 0.17656(10) 0.88630(9)
H70 H 0.3024 0.2006 0.9062
C131 C 0.36727(9) 0.15748(9) 0.90601(9)
H71 H 0.3848 0.1747 0.9327
O31 O 0.45110(6) 0.05218(6) 0.88417(6)
C132 C 0.11370(9) 0.32097(10) 0.82344(10)
H72 H 0.0938 0.3024 0.7994
C133 C 0.09399(9) 0.36727(9) 0.84252(9)
H73 H 0.0673 0.3848 0.8253
O32 O 0.11583(6) 0.45110(6) 0.94782(6)
C134 C 0.17656(10) 0.11370(9) 0.67903(10)
H74 H 0.2006 0.0938 0.6976
C135 C 0.15748(9) 0.09399(9) 0.63273(9)
H75 H 0.1747 0.0673 0.6152
Co9_2 Co 0.5000 0.08358(2) 1.0000
Co20 Co -0.0000 0.5000 0.91642(2)
Co24_2 Co 0.5000 0.91642(2) 1.0000
O53 O 0.54890(6) 0.05218(6) 0.88417(6)
O55 O 0.11583(6) 0.54890(6) 0.94782(6)
O73 O 0.54890(6) 0.11583(6) 0.94782(6)
O2_3 O 0.5000 1.0000 0.0000
O52 O 0.54890(6) 0.94782(6) 0.11583(6)
O58 O 0.05218(6) 0.88417(6) 0.54890(6)
O72 O 0.54890(6) 0.88417(6) 0.05218(6)
O74 O 0.11583(6) 0.94782(6) 0.54890(6)
O76_2 O 0.0000 1.0000 0.5000
O2_4 O 0.5000 1.0000 1.0000
Co2_2 Co 0.5000 1.0000 0.91642(2)
C28 C 0.22870(10) 0.77130(10) 0.83459(13)
H16 H 0.2430 0.7570 0.8647
C29 C 0.25405(14) 0.81509(10) 0.81509(10)
C30 C 0.30051(14) 0.83825(10) 0.83825(10)
C31 C 0.32097(10) 0.82344(10) 0.88630(9)
H17 H 0.3024 0.7994 0.9062
C32 C 0.36727(9) 0.84252(9) 0.90601(9)
H18 H 0.3848 0.8253 0.9327
C33 C 0.38581(11) 0.88584(8) 0.88584(8)
C34 C 0.43098(12) 0.90759(9) 0.90759(9)
O8 O 0.45110(6) 0.94782(6) 0.88417(6)
C35 C 0.16541(13) 0.77130(10) 0.77130(10)
H19 H 0.1353 0.7570 0.7570
C36 C 0.18491(10) 0.74595(14) 0.81509(10)
C37 C 0.16175(10) 0.69949(14) 0.83825(10)
C38 C 0.11370(9) 0.67903(10) 0.82344(10)
H20 H 0.0938 0.6976 0.7994
C39 C 0.09399(9) 0.63273(9) 0.84252(9)
H21 H 0.0673 0.6152 0.8253
C40 C 0.11416(8) 0.61419(11) 0.88584(8)
C41 C 0.09241(9) 0.56902(12) 0.90759(9)
C42 C 0.22870(10) 0.83459(13) 0.77130(10)
H22 H 0.2430 0.8647 0.7570
C43 C 0.18491(10) 0.81509(10) 0.74595(14)
C44 C 0.16175(10) 0.83825(10) 0.69949(14)
C45 C 0.17656(10) 0.88630(9) 0.67903(10)
H23 H 0.2006 0.9062 0.6976
C46 C 0.15748(9) 0.90601(9) 0.63273(9)
H24 H 0.1747 0.9327 0.6152
C47 C 0.11416(8) 0.88584(8) 0.61419(11)
C48 C 0.09241(9) 0.90759(9) 0.56902(12)
C49 C 0.17656(10) 0.67903(10) 0.88630(9)
H25 H 0.2006 0.6976 0.9062
C50 C 0.15748(9) 0.63273(9) 0.90601(9)
H26 H 0.1747 0.6152 0.9327
O11 O 0.05218(6) 0.54890(6) 0.88417(6)
C51 C 0.32097(10) 0.88630(9) 0.82344(10)
H27 H 0.3024 0.9062 0.7994
C52 C 0.36727(9) 0.90601(9) 0.84252(9)
H28 H 0.3848 0.9327 0.8253
O12 O 0.45110(6) 0.88417(6) 0.94782(6)
C53 C 0.11370(9) 0.82344(10) 0.67903(10)
H29 H 0.0938 0.7994 0.6976
C54 C 0.09399(9) 0.84252(9) 0.63273(9)
H30 H 0.0673 0.8253 0.6152
O61 O 0.54890(6) 0.88417(6) 0.94782(6)
O63 O 0.54890(6) 0.94782(6) 0.88417(6)
O14_3 O 1.0000 0.5000 0.0000
Co5 Co 0.91642(2) 0.5000 0.0000
Co6_2 Co 1.0000 0.08358(2) 0.5000
C190 C 0.77130(10) 0.22870(10) 0.16541(13)
H106 H 0.7570 0.2430 0.1353
C191 C 0.81509(10) 0.25405(14) 0.18491(10)
C192 C 0.83825(10) 0.30051(14) 0.16175(10)
C193 C 0.82344(10) 0.32097(10) 0.11370(9)
H107 H 0.7994 0.3024 0.0938
C194 C 0.84252(9) 0.36727(9) 0.09399(9)
H108 H 0.8253 0.3848 0.0673
C195 C 0.88584(8) 0.38581(11) 0.11416(8)
C196 C 0.90759(9) 0.43098(12) 0.09241(9)
O46 O 0.94782(6) 0.45110(6) 0.11583(6)
C197 C 0.77130(10) 0.16541(13) 0.22870(10)
H109 H 0.7570 0.1353 0.2430
C198 C 0.74595(14) 0.18491(10) 0.18491(10)
C199 C 0.69949(14) 0.16175(10) 0.16175(10)
C200 C 0.67903(10) 0.11370(9) 0.17656(10)
H110 H 0.6976 0.0938 0.2006
C201 C 0.63273(9) 0.09399(9) 0.15748(9)
H111 H 0.6152 0.0673 0.1747
C202 C 0.61419(11) 0.11416(8) 0.11416(8)
C203 C 0.56902(12) 0.09241(9) 0.09241(9)
C204 C 0.83459(13) 0.22870(10) 0.22870(10)
H112 H 0.8647 0.2430 0.2430
C205 C 0.81509(10) 0.18491(10) 0.25405(14)
C206 C 0.83825(10) 0.16175(10) 0.30051(14)
C207 C 0.88630(9) 0.17656(10) 0.32097(10)
H113 H 0.9062 0.2006 0.3024
C208 C 0.90601(9) 0.15748(9) 0.36727(9)
H114 H 0.9327 0.1747 0.3848
C209 C 0.88584(8) 0.11416(8) 0.38581(11)
C210 C 0.90759(9) 0.09241(9) 0.43098(12)
O48 O 0.88417(6) 0.05218(6) 0.45110(6)
C211 C 0.67903(10) 0.17656(10) 0.11370(9)
H115 H 0.6976 0.2006 0.0938
C212 C 0.63273(9) 0.15748(9) 0.09399(9)
H116 H 0.6152 0.1747 0.0673
C213 C 0.88630(9) 0.32097(10) 0.17656(10)
H117 H 0.9062 0.3024 0.2006
C214 C 0.90601(9) 0.36727(9) 0.15748(9)
H118 H 0.9327 0.3848 0.1747
O50 O 0.88417(6) 0.45110(6) 0.05218(6)
C215 C 0.82344(10) 0.11370(9) 0.32097(10)
H119 H 0.7994 0.0938 0.3024
C216 C 0.84252(9) 0.09399(9) 0.36727(9)
H120 H 0.8253 0.0673 0.3848
O51 O 0.94782(6) 0.11583(6) 0.45110(6)
Co12_2 Co 1.0000 0.5000 0.08358(2)
Co18_2 Co 1.0000 0.91642(2) 0.5000
Co28 Co 0.91642(2) 0.0000 0.5000
O56 O 0.88417(6) 0.54890(6) 0.05218(6)
O57 O 0.94782(6) 0.11583(6) 0.54890(6)
O71 O 0.94782(6) 0.54890(6) 0.11583(6)
O76_3 O 1.0000 0.0000 0.5000
O14_4 O 1.0000 0.5000 1.0000
C55 C 0.83459(13) 0.22870(10) 0.77130(10)
H31 H 0.8647 0.2430 0.7570
C56 C 0.81509(10) 0.25405(14) 0.81509(10)
C57 C 0.83825(10) 0.30051(14) 0.83825(10)
C58 C 0.88630(9) 0.32097(10) 0.82344(10)
H32 H 0.9062 0.3024 0.7994
C59 C 0.90601(9) 0.36727(9) 0.84252(9)
H33 H 0.9327 0.3848 0.8253
C60 C 0.88584(8) 0.38581(11) 0.88584(8)
C61 C 0.90759(9) 0.43098(12) 0.90759(9)
Co5_2 Co 0.91642(2) 0.5000 1.0000
O16 O 0.88417(6) 0.45110(6) 0.94782(6)
C62 C 0.77130(10) 0.16541(13) 0.77130(10)
H34 H 0.7570 0.1353 0.7570
C63 C 0.81509(10) 0.18491(10) 0.74595(14)
C64 C 0.83825(10) 0.16175(10) 0.69949(14)
C65 C 0.82344(10) 0.11370(9) 0.67903(10)
H35 H 0.7994 0.0938 0.6976
C66 C 0.84252(9) 0.09399(9) 0.63273(9)
H36 H 0.8253 0.0673 0.6152
C67 C 0.88584(8) 0.11416(8) 0.61419(11)
C68 C 0.90759(9) 0.09241(9) 0.56902(12)
C69 C 0.77130(10) 0.22870(10) 0.83459(13)
H37 H 0.7570 0.2430 0.8647
C70 C 0.74595(14) 0.18491(10) 0.81509(10)
C71 C 0.69949(14) 0.16175(10) 0.83825(10)
C72 C 0.67903(10) 0.17656(10) 0.88630(9)
H38 H 0.6976 0.2006 0.9062
C73 C 0.63273(9) 0.15748(9) 0.90601(9)
H39 H 0.6152 0.1747 0.9327
C74 C 0.61419(11) 0.11416(8) 0.88584(8)
C75 C 0.56902(12) 0.09241(9) 0.90759(9)
C76 C 0.88630(9) 0.17656(10) 0.67903(10)
H40 H 0.9062 0.2006 0.6976
C77 C 0.90601(9) 0.15748(9) 0.63273(9)
H41 H 0.9327 0.1747 0.6152
O19 O 0.88417(6) 0.05218(6) 0.54890(6)
C78 C 0.82344(10) 0.32097(10) 0.88630(9)
H42 H 0.7994 0.3024 0.9062
C79 C 0.84252(9) 0.36727(9) 0.90601(9)
H43 H 0.8253 0.3848 0.9327
O20 O 0.94782(6) 0.45110(6) 0.88417(6)
C80 C 0.67903(10) 0.11370(9) 0.82344(10)
H44 H 0.6976 0.0938 0.7994
C81 C 0.63273(9) 0.09399(9) 0.84252(9)
H45 H 0.6152 0.0673 0.8253
Co20_2 Co 1.0000 0.5000 0.91642(2)
O65 O 0.88417(6) 0.54890(6) 0.94782(6)
C82 C 0.77130(10) 0.83459(13) 0.22870(10)
H46 H 0.7570 0.8647 0.2430
C83 C 0.81509(10) 0.81509(10) 0.25405(14)
C84 C 0.83825(10) 0.83825(10) 0.30051(14)
C85 C 0.82344(10) 0.88630(9) 0.32097(10)
H47 H 0.7994 0.9062 0.3024
C86 C 0.84252(9) 0.90601(9) 0.36727(9)
H48 H 0.8253 0.9327 0.3848
C87 C 0.88584(8) 0.88584(8) 0.38581(11)
C88 C 0.90759(9) 0.90759(9) 0.43098(12)
O22 O 0.94782(6) 0.88417(6) 0.45110(6)
C89 C 0.77130(10) 0.77130(10) 0.16541(13)
H49 H 0.7570 0.7570 0.1353
C90 C 0.74595(14) 0.81509(10) 0.18491(10)
C91 C 0.69949(14) 0.83825(10) 0.16175(10)
C92 C 0.67903(10) 0.82344(10) 0.11370(9)
H50 H 0.6976 0.7994 0.0938
C93 C 0.63273(9) 0.84252(9) 0.09399(9)
H51 H 0.6152 0.8253 0.0673
C94 C 0.61419(11) 0.88584(8) 0.11416(8)
C95 C 0.56902(12) 0.90759(9) 0.09241(9)
C96 C 0.83459(13) 0.77130(10) 0.22870(10)
H52 H 0.8647 0.7570 0.2430
C97 C 0.81509(10) 0.74595(14) 0.18491(10)
C98 C 0.83825(10) 0.69949(14) 0.16175(10)
C99 C 0.88630(9) 0.67903(10) 0.17656(10)
H53 H 0.9062 0.6976 0.2006
C100 C 0.90601(9) 0.63273(9) 0.15748(9)
H54 H 0.9327 0.6152 0.1747
C101 C 0.88584(8) 0.61419(11) 0.11416(8)
C102 C 0.90759(9) 0.56902(12) 0.09241(9)
C103 C 0.67903(10) 0.88630(9) 0.17656(10)
H55 H 0.6976 0.9062 0.2006
C104 C 0.63273(9) 0.90601(9) 0.15748(9)
H56 H 0.6152 0.9327 0.1747
C105 C 0.88630(9) 0.82344(10) 0.32097(10)
H57 H 0.9062 0.7994 0.3024
C106 C 0.90601(9) 0.84252(9) 0.36727(9)
H58 H 0.9327 0.8253 0.3848
O26 O 0.88417(6) 0.94782(6) 0.45110(6)
C107 C 0.82344(10) 0.67903(10) 0.11370(9)
H59 H 0.7994 0.6976 0.0938
C108 C 0.84252(9) 0.63273(9) 0.09399(9)
H60 H 0.8253 0.6152 0.0673
Co28_2 Co 0.91642(2) 1.0000 0.5000
O68 O 0.94782(6) 0.88417(6) 0.54890(6)
O76_4 O 1.0000 1.0000 0.5000
O62_2 O 0.88417(6) 0.94782(6) 0.54890(6)
C109_2 C 0.77130(10) 0.77130(10) 0.83459(13)
H61_2 H 0.7570 0.7570 0.8647
C110_2 C 0.81509(10) 0.74595(14) 0.81509(10)
C111_2 C 0.83825(10) 0.69949(14) 0.83825(10)
C112_2 C 0.82344(10) 0.67903(10) 0.88630(9)
H62_2 H 0.7994 0.6976 0.9062
C113_2 C 0.84252(9) 0.63273(9) 0.90601(9)
H63_2 H 0.8253 0.6152 0.9327
C114_2 C 0.88584(8) 0.61419(11) 0.88584(8)
C115_2 C 0.90759(9) 0.56902(12) 0.90759(9)
O28_2 O 0.94782(6) 0.54890(6) 0.88417(6)
C116_2 C 0.77130(10) 0.83459(13) 0.77130(10)
H64_2 H 0.7570 0.8647 0.7570
C117_2 C 0.74595(14) 0.81509(10) 0.81509(10)
C118_2 C 0.69949(14) 0.83825(10) 0.83825(10)
C119_2 C 0.67903(10) 0.88630(9) 0.82344(10)
H65_2 H 0.6976 0.9062 0.7994
C120_2 C 0.63273(9) 0.90601(9) 0.84252(9)
H66_2 H 0.6152 0.9327 0.8253
C121_2 C 0.61419(11) 0.88584(8) 0.88584(8)
C122_2 C 0.56902(12) 0.90759(9) 0.90759(9)
C123_2 C 0.83459(13) 0.77130(10) 0.77130(10)
H67_2 H 0.8647 0.7570 0.7570
C124_2 C 0.81509(10) 0.81509(10) 0.74595(14)
C125_2 C 0.83825(10) 0.83825(10) 0.69949(14)
C126_2 C 0.88630(9) 0.82344(10) 0.67903(10)
H68_2 H 0.9062 0.7994 0.6976
C127_2 C 0.90601(9) 0.84252(9) 0.63273(9)
H69_2 H 0.9327 0.8253 0.6152
C128_2 C 0.88584(8) 0.88584(8) 0.61419(11)
C129_2 C 0.90759(9) 0.90759(9) 0.56902(12)
C130_2 C 0.67903(10) 0.82344(10) 0.88630(9)
H70_2 H 0.6976 0.7994 0.9062
C131_2 C 0.63273(9) 0.84252(9) 0.90601(9)
H71_2 H 0.6152 0.8253 0.9327
C132_2 C 0.88630(9) 0.67903(10) 0.82344(10)
H72_2 H 0.9062 0.6976 0.7994
C133_2 C 0.90601(9) 0.63273(9) 0.84252(9)
H73_2 H 0.9327 0.6152 0.8253
C134_2 C 0.82344(10) 0.88630(9) 0.67903(10)
H74_2 H 0.7994 0.9062 0.6976
C135_2 C 0.84252(9) 0.90601(9) 0.63273(9)
H75_2 H 0.8253 0.9327 0.6152
Co14_3 Co -0.0000 0.5000 0.58358(2)
Co24_3 Co -0.0000 0.41642(2) 0.5000
O2_5 O -0.0000 0.5000 0.5000
Co2_3 Co -0.0000 0.5000 0.41642(2)
Co9_3 Co -0.0000 0.58358(2) 0.5000
O52_2 O 0.04890(6) 0.44782(6) 0.61583(6)
O53_2 O 0.04890(6) 0.55218(6) 0.38417(6)
O60_2 O 0.04890(6) 0.61583(6) 0.55218(6)
O61_2 O 0.04890(6) 0.38417(6) 0.44782(6)
O63_2 O 0.04890(6) 0.44782(6) 0.38417(6)
O64_2 O 0.04890(6) 0.55218(6) 0.61583(6)
O72_2 O 0.04890(6) 0.38417(6) 0.55218(6)
O73_2 O 0.04890(6) 0.61583(6) 0.44782(6)
Co18_3 Co 0.5000 0.41642(2) -0.0000
Co26_3 Co 0.58358(2) 0.5000 -0.0000
Co3_3 Co 0.58358(2) -0.0000 0.5000
O14_5 O 0.5000 -0.0000 0.5000
Co5_3 Co 0.41642(2) -0.0000 0.5000
C163_2 C 0.72870(10) 0.27130(10) 0.66541(13)
H91_2 H 0.7430 0.2570 0.6353
C164_2 C 0.68491(10) 0.24595(14) 0.68491(10)
C165_2 C 0.66175(10) 0.19949(14) 0.66175(10)
C166_2 C 0.67656(10) 0.17903(10) 0.61370(9)
H92_2 H 0.7006 0.1976 0.5938
C167_2 C 0.65748(9) 0.13273(9) 0.59399(9)
H93_2 H 0.6747 0.1152 0.5673
C168_2 C 0.61416(8) 0.11419(11) 0.61416(8)
C169_2 C 0.59241(9) 0.06902(12) 0.59241(9)
O40_2 O 0.55218(6) 0.04890(6) 0.61583(6)
C170_2 C 0.72870(10) 0.33459(13) 0.72870(10)
H94_2 H 0.7430 0.3647 0.7430
C171_2 C 0.75405(14) 0.31509(10) 0.68491(10)
C172_2 C 0.80051(14) 0.33825(10) 0.66175(10)
C173_2 C 0.82097(10) 0.38630(9) 0.67656(10)
H95_2 H 0.8024 0.4062 0.7006
C174_2 C 0.86727(9) 0.40601(9) 0.65748(9)
H96_2 H 0.8848 0.4327 0.6747
C175_2 C 0.88581(11) 0.38584(8) 0.61416(8)
C176_2 C 0.93098(12) 0.40759(9) 0.59241(9)
O41_2 O 0.95110(6) 0.38417(6) 0.55218(6)
C177_2 C 0.66541(13) 0.27130(10) 0.72870(10)
H97_2 H 0.6353 0.2570 0.7430
C178_2 C 0.68491(10) 0.31509(10) 0.75405(14)
C179_2 C 0.66175(10) 0.33825(10) 0.80051(14)
C180_2 C 0.61370(9) 0.32344(10) 0.82097(10)
H98_2 H 0.5938 0.2994 0.8024
C181_2 C 0.59399(9) 0.34252(9) 0.86727(9)
H99_2 H 0.5673 0.3253 0.8848
C182_2 C 0.61416(8) 0.38584(8) 0.88581(11)
C183_2 C 0.59241(9) 0.40759(9) 0.93098(12)
O42_2 O 0.61583(6) 0.44782(6) 0.95110(6)
C184_2 C 0.82097(10) 0.32344(10) 0.61370(9)
H100_2 H 0.8024 0.2994 0.5938
C185_2 C 0.86727(9) 0.34252(9) 0.59399(9)
H101_2 H 0.8848 0.3253 0.5673
O43_2 O 0.95110(6) 0.44782(6) 0.61583(6)
C186_2 C 0.61370(9) 0.17903(10) 0.67656(10)
H102_2 H 0.5938 0.1976 0.7006
C187_2 C 0.59399(9) 0.13273(9) 0.65748(9)
H103_2 H 0.5673 0.1152 0.6747
O44_2 O 0.61583(6) 0.04890(6) 0.55218(6)
C188_2 C 0.67656(10) 0.38630(9) 0.82097(10)
H104_2 H 0.7006 0.4062 0.8024
C189_2 C 0.65748(9) 0.40601(9) 0.86727(9)
H105_2 H 0.6747 0.4327 0.8848
O45_2 O 0.55218(6) 0.38417(6) 0.95110(6)
Co12_3 Co 0.5000 -0.0000 0.58358(2)
Co14_4 Co 1.0000 0.5000 0.58358(2)
Co18_4 Co 0.5000 0.41642(2) 1.0000
Co20_3 Co 0.5000 -0.0000 0.41642(2)
Co24_4 Co 1.0000 0.41642(2) 0.5000
Co26_4 Co 0.58358(2) 0.5000 1.0000
O55_2 O 0.61583(6) 0.04890(6) 0.44782(6)
O56_2 O 0.38417(6) 0.04890(6) 0.55218(6)
O65_2 O 0.38417(6) 0.04890(6) 0.44782(6)
O71_2 O 0.44782(6) 0.04890(6) 0.61583(6)
Co6_3 Co 0.5000 0.58358(2) -0.0000
Co28_3 Co 0.41642(2) 0.5000 -0.0000
O57_2 O 0.44782(6) 0.61583(6) 0.04890(6)
O58_2 O 0.55218(6) 0.38417(6) 0.04890(6)
O62_3 O 0.61583(6) 0.55218(6) 0.04890(6)
O68_2 O 0.44782(6) 0.38417(6) 0.04890(6)
O70_2 O 0.55218(6) 0.61583(6) 0.04890(6)
O74_2 O 0.61583(6) 0.44782(6) 0.04890(6)
O76_5 O 0.5000 0.5000 -0.0000
C1_2 C 0.72870(10) 0.72870(10) 0.66541(13)
H1_2 H 0.7430 0.7430 0.6353
C2_2 C 0.75405(14) 0.68491(10) 0.68491(10)
C3_2 C 0.80051(14) 0.66175(10) 0.66175(10)
C4_2 C 0.82097(10) 0.67656(10) 0.61370(9)
H2_2 H 0.8024 0.7006 0.5938
C5_2 C 0.86727(9) 0.65748(9) 0.59399(9)
H3_2 H 0.8848 0.6747 0.5673
C6_2 C 0.88581(11) 0.61416(8) 0.61416(8)
C7_2 C 0.93098(12) 0.59241(9) 0.59241(9)
O1_2 O 0.95110(6) 0.55218(6) 0.61583(6)
O2_6 O 1.0000 0.5000 0.5000
C8_2 C 0.66541(13) 0.72870(10) 0.72870(10)
H4_2 H 0.6353 0.7430 0.7430
C9_2 C 0.68491(10) 0.75405(14) 0.68491(10)
C10_2 C 0.66175(10) 0.80051(14) 0.66175(10)
C11_2 C 0.61370(9) 0.82097(10) 0.67656(10)
H5_2 H 0.5938 0.8024 0.7006
C12_2 C 0.59399(9) 0.86727(9) 0.65748(9)
H6_2 H 0.5673 0.8848 0.6747
C13_2 C 0.61416(8) 0.88581(11) 0.61416(8)
C14_2 C 0.59241(9) 0.93098(12) 0.59241(9)
O3_2 O 0.61583(6) 0.95110(6) 0.55218(6)
C15_2 C 0.72870(10) 0.66541(13) 0.72870(10)
H7_2 H 0.7430 0.6353 0.7430
C16_2 C 0.68491(10) 0.68491(10) 0.75405(14)
C17_2 C 0.66175(10) 0.66175(10) 0.80051(14)
C18_2 C 0.67656(10) 0.61370(9) 0.82097(10)
H8_2 H 0.7006 0.5938 0.8024
C19_2 C 0.65748(9) 0.59399(9) 0.86727(9)
H9_2 H 0.6747 0.5673 0.8848
C20_2 C 0.61416(8) 0.61416(8) 0.88581(11)
C21_2 C 0.59241(9) 0.59241(9) 0.93098(12)
O4_2 O 0.55218(6) 0.61583(6) 0.95110(6)
C22_2 C 0.67656(10) 0.82097(10) 0.61370(9)
H10_2 H 0.7006 0.8024 0.5938
C23_2 C 0.65748(9) 0.86727(9) 0.59399(9)
H11_2 H 0.6747 0.8848 0.5673
O5_2 O 0.55218(6) 0.95110(6) 0.61583(6)
C24_2 C 0.82097(10) 0.61370(9) 0.67656(10)
H12_2 H 0.8024 0.5938 0.7006
C25_2 C 0.86727(9) 0.59399(9) 0.65748(9)
H13_2 H 0.8848 0.5673 0.6747
O6_2 O 0.95110(6) 0.61583(6) 0.55218(6)
C26_2 C 0.61370(9) 0.67656(10) 0.82097(10)
H14_2 H 0.5938 0.7006 0.8024
C27_2 C 0.59399(9) 0.65748(9) 0.86727(9)
H15_2 H 0.5673 0.6747 0.8848
O7_2 O 0.61583(6) 0.55218(6) 0.95110(6)
Co2_4 Co 1.0000 0.5000 0.41642(2)
C28_2 C 0.72870(10) 0.27130(10) 0.33459(13)
H16_2 H 0.7430 0.2570 0.3647
C29_2 C 0.75405(14) 0.31509(10) 0.31509(10)
C30_2 C 0.80051(14) 0.33825(10) 0.33825(10)
C31_2 C 0.82097(10) 0.32344(10) 0.38630(9)
H17_2 H 0.8024 0.2994 0.4062
C32_2 C 0.86727(9) 0.34252(9) 0.40601(9)
H18_2 H 0.8848 0.3253 0.4327
C33_2 C 0.88581(11) 0.38584(8) 0.38584(8)
C34_2 C 0.93098(12) 0.40759(9) 0.40759(9)
O8_2 O 0.95110(6) 0.44782(6) 0.38417(6)
C35_2 C 0.66541(13) 0.27130(10) 0.27130(10)
H19_2 H 0.6353 0.2570 0.2570
C36_2 C 0.68491(10) 0.24595(14) 0.31509(10)
C37_2 C 0.66175(10) 0.19949(14) 0.33825(10)
C38_2 C 0.61370(9) 0.17903(10) 0.32344(10)
H20_2 H 0.5938 0.1976 0.2994
C39_2 C 0.59399(9) 0.13273(9) 0.34252(9)
H21_2 H 0.5673 0.1152 0.3253
C40_2 C 0.61416(8) 0.11419(11) 0.38584(8)
C41_2 C 0.59241(9) 0.06902(12) 0.40759(9)
C42_2 C 0.72870(10) 0.33459(13) 0.27130(10)
H22_2 H 0.7430 0.3647 0.2570
C43_2 C 0.68491(10) 0.31509(10) 0.24595(14)
C44_2 C 0.66175(10) 0.33825(10) 0.19949(14)
C45_2 C 0.67656(10) 0.38630(9) 0.17903(10)
H23_2 H 0.7006 0.4062 0.1976
C46_2 C 0.65748(9) 0.40601(9) 0.13273(9)
H24_2 H 0.6747 0.4327 0.1152
C47_2 C 0.61416(8) 0.38584(8) 0.11419(11)
C48_2 C 0.59241(9) 0.40759(9) 0.06902(12)
C49_2 C 0.67656(10) 0.17903(10) 0.38630(9)
H25_2 H 0.7006 0.1976 0.4062
C50_2 C 0.65748(9) 0.13273(9) 0.40601(9)
H26_2 H 0.6747 0.1152 0.4327
O11_2 O 0.55218(6) 0.04890(6) 0.38417(6)
C51_2 C 0.82097(10) 0.38630(9) 0.32344(10)
H27_2 H 0.8024 0.4062 0.2994
C52_2 C 0.86727(9) 0.40601(9) 0.34252(9)
H28_2 H 0.8848 0.4327 0.3253
O12_2 O 0.95110(6) 0.38417(6) 0.44782(6)
C53_2 C 0.61370(9) 0.32344(10) 0.17903(10)
H29_2 H 0.5938 0.2994 0.1976
C54_2 C 0.59399(9) 0.34252(9) 0.13273(9)
H30_2 H 0.5673 0.3253 0.1152
Co3_4 Co 0.58358(2) 1.0000 0.5000
O14_6 O 0.5000 1.0000 0.5000
C55_2 C 0.33459(13) 0.72870(10) 0.27130(10)
H31_2 H 0.3647 0.7430 0.2570
C56_2 C 0.31509(10) 0.75405(14) 0.31509(10)
C57_2 C 0.33825(10) 0.80051(14) 0.33825(10)
C58_2 C 0.38630(9) 0.82097(10) 0.32344(10)
H32_2 H 0.4062 0.8024 0.2994
C59_2 C 0.40601(9) 0.86727(9) 0.34252(9)
H33_2 H 0.4327 0.8848 0.3253
C60_2 C 0.38584(8) 0.88581(11) 0.38584(8)
C61_2 C 0.40759(9) 0.93098(12) 0.40759(9)
Co5_4 Co 0.41642(2) 1.0000 0.5000
O16_2 O 0.38417(6) 0.95110(6) 0.44782(6)
C62_2 C 0.27130(10) 0.66541(13) 0.27130(10)
H34_2 H 0.2570 0.6353 0.2570
C63_2 C 0.31509(10) 0.68491(10) 0.24595(14)
C64_2 C 0.33825(10) 0.66175(10) 0.19949(14)
C65_2 C 0.32344(10) 0.61370(9) 0.17903(10)
H35_2 H 0.2994 0.5938 0.1976
C66_2 C 0.34252(9) 0.59399(9) 0.13273(9)
H36_2 H 0.3253 0.5673 0.1152
C67_2 C 0.38584(8) 0.61416(8) 0.11419(11)
C68_2 C 0.40759(9) 0.59241(9) 0.06902(12)
C69_2 C 0.27130(10) 0.72870(10) 0.33459(13)
H37_2 H 0.2570 0.7430 0.3647
C70_2 C 0.24595(14) 0.68491(10) 0.31509(10)
C71_2 C 0.19949(14) 0.66175(10) 0.33825(10)
C72_2 C 0.17903(10) 0.67656(10) 0.38630(9)
H38_2 H 0.1976 0.7006 0.4062
C73_2 C 0.13273(9) 0.65748(9) 0.40601(9)
H39_2 H 0.1152 0.6747 0.4327
C74_2 C 0.11419(11) 0.61416(8) 0.38584(8)
C75_2 C 0.06902(12) 0.59241(9) 0.40759(9)
C76_2 C 0.38630(9) 0.67656(10) 0.17903(10)
H40_2 H 0.4062 0.7006 0.1976
C77_2 C 0.40601(9) 0.65748(9) 0.13273(9)
H41_2 H 0.4327 0.6747 0.1152
O19_2 O 0.38417(6) 0.55218(6) 0.04890(6)
C78_2 C 0.32344(10) 0.82097(10) 0.38630(9)
H42_2 H 0.2994 0.8024 0.4062
C79_2 C 0.34252(9) 0.86727(9) 0.40601(9)
H43_2 H 0.3253 0.8848 0.4327
O20_2 O 0.44782(6) 0.95110(6) 0.38417(6)
C80_2 C 0.17903(10) 0.61370(9) 0.32344(10)
H44_2 H 0.1976 0.5938 0.2994
C81_2 C 0.13273(9) 0.59399(9) 0.34252(9)
H45_2 H 0.1152 0.5673 0.3253
Co6_4 Co 0.5000 0.58358(2) 1.0000
C82_2 C 0.27130(10) 0.33459(13) 0.72870(10)
H46_2 H 0.2570 0.3647 0.7430
C83_2 C 0.31509(10) 0.31509(10) 0.75405(14)
C84_2 C 0.33825(10) 0.33825(10) 0.80051(14)
C85_2 C 0.32344(10) 0.38630(9) 0.82097(10)
H47_2 H 0.2994 0.4062 0.8024
C86_2 C 0.34252(9) 0.40601(9) 0.86727(9)
H48_2 H 0.3253 0.4327 0.8848
C87_2 C 0.38584(8) 0.38584(8) 0.88581(11)
C88_2 C 0.40759(9) 0.40759(9) 0.93098(12)
O22_2 O 0.44782(6) 0.38417(6) 0.95110(6)
C89_2 C 0.27130(10) 0.27130(10) 0.66541(13)
H49_2 H 0.2570 0.2570 0.6353
C90_2 C 0.24595(14) 0.31509(10) 0.68491(10)
C91_2 C 0.19949(14) 0.33825(10) 0.66175(10)
C92_2 C 0.17903(10) 0.32344(10) 0.61370(9)
H50_2 H 0.1976 0.2994 0.5938
C93_2 C 0.13273(9) 0.34252(9) 0.59399(9)
H51_2 H 0.1152 0.3253 0.5673
C94_2 C 0.11419(11) 0.38584(8) 0.61416(8)
C95_2 C 0.06902(12) 0.40759(9) 0.59241(9)
C96_2 C 0.33459(13) 0.27130(10) 0.72870(10)
H52_2 H 0.3647 0.2570 0.7430
C97_2 C 0.31509(10) 0.24595(14) 0.68491(10)
C98_2 C 0.33825(10) 0.19949(14) 0.66175(10)
C99_2 C 0.38630(9) 0.17903(10) 0.67656(10)
H53_2 H 0.4062 0.1976 0.7006
C100_2 C 0.40601(9) 0.13273(9) 0.65748(9)
H54_2 H 0.4327 0.1152 0.6747
C101_2 C 0.38584(8) 0.11419(11) 0.61416(8)
C102_2 C 0.40759(9) 0.06902(12) 0.59241(9)
C103_2 C 0.17903(10) 0.38630(9) 0.67656(10)
H55_2 H 0.1976 0.4062 0.7006
C104_2 C 0.13273(9) 0.40601(9) 0.65748(9)
H56_2 H 0.1152 0.4327 0.6747
C105_2 C 0.38630(9) 0.32344(10) 0.82097(10)
H57_2 H 0.4062 0.2994 0.8024
C106_2 C 0.40601(9) 0.34252(9) 0.86727(9)
H58_2 H 0.4327 0.3253 0.8848
O26_2 O 0.38417(6) 0.44782(6) 0.95110(6)
C107_2 C 0.32344(10) 0.17903(10) 0.61370(9)
H59_2 H 0.2994 0.1976 0.5938
C108_2 C 0.34252(9) 0.13273(9) 0.59399(9)
H60_2 H 0.3253 0.1152 0.5673
C109_3 C 0.72870(10) 0.72870(10) 0.33459(13)
H61_3 H 0.7430 0.7430 0.3647
C110_3 C 0.68491(10) 0.75405(14) 0.31509(10)
C111_3 C 0.66175(10) 0.80051(14) 0.33825(10)
C112_3 C 0.67656(10) 0.82097(10) 0.38630(9)
H62_3 H 0.7006 0.8024 0.4062
C113_3 C 0.65748(9) 0.86727(9) 0.40601(9)
H63_3 H 0.6747 0.8848 0.4327
C114_3 C 0.61416(8) 0.88581(11) 0.38584(8)
C115_3 C 0.59241(9) 0.93098(12) 0.40759(9)
O28_3 O 0.55218(6) 0.95110(6) 0.38417(6)
C116_3 C 0.72870(10) 0.66541(13) 0.27130(10)
H64_3 H 0.7430 0.6353 0.2570
C117_3 C 0.75405(14) 0.68491(10) 0.31509(10)
C118_3 C 0.80051(14) 0.66175(10) 0.33825(10)
C119_3 C 0.82097(10) 0.61370(9) 0.32344(10)
H65_3 H 0.8024 0.5938 0.2994
C120_3 C 0.86727(9) 0.59399(9) 0.34252(9)
H66_3 H 0.8848 0.5673 0.3253
C121_3 C 0.88581(11) 0.61416(8) 0.38584(8)
C122_3 C 0.93098(12) 0.59241(9) 0.40759(9)
O29_2 O 0.95110(6) 0.61583(6) 0.44782(6)
C123_3 C 0.66541(13) 0.72870(10) 0.27130(10)
H67_3 H 0.6353 0.7430 0.2570
C124_3 C 0.68491(10) 0.68491(10) 0.24595(14)
C125_3 C 0.66175(10) 0.66175(10) 0.19949(14)
C126_3 C 0.61370(9) 0.67656(10) 0.17903(10)
H68_3 H 0.5938 0.7006 0.1976
C127_3 C 0.59399(9) 0.65748(9) 0.13273(9)
H69_3 H 0.5673 0.6747 0.1152
C128_3 C 0.61416(8) 0.61416(8) 0.11419(11)
C129_3 C 0.59241(9) 0.59241(9) 0.06902(12)
C130_3 C 0.82097(10) 0.67656(10) 0.38630(9)
H70_3 H 0.8024 0.7006 0.4062
C131_3 C 0.86727(9) 0.65748(9) 0.40601(9)
H71_3 H 0.8848 0.6747 0.4327
O31_2 O 0.95110(6) 0.55218(6) 0.38417(6)
C132_3 C 0.61370(9) 0.82097(10) 0.32344(10)
H72_3 H 0.5938 0.8024 0.2994
C133_3 C 0.59399(9) 0.86727(9) 0.34252(9)
H73_3 H 0.5673 0.8848 0.3253
O32_2 O 0.61583(6) 0.95110(6) 0.44782(6)
C134_3 C 0.67656(10) 0.61370(9) 0.17903(10)
H74_3 H 0.7006 0.5938 0.1976
C135_3 C 0.65748(9) 0.59399(9) 0.13273(9)
H75_3 H 0.6747 0.5673 0.1152
C190_2 C 0.27130(10) 0.72870(10) 0.66541(13)
H106_2 H 0.2570 0.7430 0.6353
C191_2 C 0.31509(10) 0.75405(14) 0.68491(10)
C192_2 C 0.33825(10) 0.80051(14) 0.66175(10)
C193_2 C 0.32344(10) 0.82097(10) 0.61370(9)
H107_2 H 0.2994 0.8024 0.5938
C194_2 C 0.34252(9) 0.86727(9) 0.59399(9)
H108_2 H 0.3253 0.8848 0.5673
C195_2 C 0.38584(8) 0.88581(11) 0.61416(8)
C196_2 C 0.40759(9) 0.93098(12) 0.59241(9)
O46_2 O 0.44782(6) 0.95110(6) 0.61583(6)
C197_2 C 0.27130(10) 0.66541(13) 0.72870(10)
H109_2 H 0.2570 0.6353 0.7430
C198_2 C 0.24595(14) 0.68491(10) 0.68491(10)
C199_2 C 0.19949(14) 0.66175(10) 0.66175(10)
C200_2 C 0.17903(10) 0.61370(9) 0.67656(10)
H110_2 H 0.1976 0.5938 0.7006
C201_2 C 0.13273(9) 0.59399(9) 0.65748(9)
H111_2 H 0.1152 0.5673 0.6747
C202_2 C 0.11419(11) 0.61416(8) 0.61416(8)
C203_2 C 0.06902(12) 0.59241(9) 0.59241(9)
C204_2 C 0.33459(13) 0.72870(10) 0.72870(10)
H112_2 H 0.3647 0.7430 0.7430
C205_2 C 0.31509(10) 0.68491(10) 0.75405(14)
C206_2 C 0.33825(10) 0.66175(10) 0.80051(14)
C207_2 C 0.38630(9) 0.67656(10) 0.82097(10)
H113_2 H 0.4062 0.7006 0.8024
C208_2 C 0.40601(9) 0.65748(9) 0.86727(9)
H114_2 H 0.4327 0.6747 0.8848
C209_2 C 0.38584(8) 0.61416(8) 0.88581(11)
C210_2 C 0.40759(9) 0.59241(9) 0.93098(12)
O48_2 O 0.38417(6) 0.55218(6) 0.95110(6)
C211_2 C 0.17903(10) 0.67656(10) 0.61370(9)
H115_2 H 0.1976 0.7006 0.5938
C212_2 C 0.13273(9) 0.65748(9) 0.59399(9)
H116_2 H 0.1152 0.6747 0.5673
C213_2 C 0.38630(9) 0.82097(10) 0.67656(10)
H117_2 H 0.4062 0.8024 0.7006
C214_2 C 0.40601(9) 0.86727(9) 0.65748(9)
H118_2 H 0.4327 0.8848 0.6747
O50_2 O 0.38417(6) 0.95110(6) 0.55218(6)
C215_2 C 0.32344(10) 0.61370(9) 0.82097(10)
H119_2 H 0.2994 0.5938 0.8024
C216_2 C 0.34252(9) 0.59399(9) 0.86727(9)
H120_2 H 0.3253 0.5673 0.8848
O51_2 O 0.44782(6) 0.61583(6) 0.95110(6)
Co9_4 Co 1.0000 0.58358(2) 0.5000
Co12_4 Co 0.5000 1.0000 0.58358(2)
Co20_4 Co 0.5000 1.0000 0.41642(2)
Co28_4 Co 0.41642(2) 0.5000 1.0000
O76_6 O 0.5000 0.5000 1.0000
O62_4 O 0.38417(6) 0.44782(6) 0.04890(6)
C109_4 C 0.27130(10) 0.27130(10) 0.33459(13)
H61_4 H 0.2570 0.2570 0.3647
C110_4 C 0.31509(10) 0.24595(14) 0.31509(10)
C111_4 C 0.33825(10) 0.19949(14) 0.33825(10)
C112_4 C 0.32344(10) 0.17903(10) 0.38630(9)
H62_4 H 0.2994 0.1976 0.4062
C113_4 C 0.34252(9) 0.13273(9) 0.40601(9)
H63_4 H 0.3253 0.1152 0.4327
C114_4 C 0.38584(8) 0.11419(11) 0.38584(8)
C115_4 C 0.40759(9) 0.06902(12) 0.40759(9)
O28_4 O 0.44782(6) 0.04890(6) 0.38417(6)
C116_4 C 0.27130(10) 0.33459(13) 0.27130(10)
H64_4 H 0.2570 0.3647 0.2570
C117_4 C 0.24595(14) 0.31509(10) 0.31509(10)
C118_4 C 0.19949(14) 0.33825(10) 0.33825(10)
C119_4 C 0.17903(10) 0.38630(9) 0.32344(10)
H65_4 H 0.1976 0.4062 0.2994
C120_4 C 0.13273(9) 0.40601(9) 0.34252(9)
H66_4 H 0.1152 0.4327 0.3253
C121_4 C 0.11419(11) 0.38584(8) 0.38584(8)
C122_4 C 0.06902(12) 0.40759(9) 0.40759(9)
C123_4 C 0.33459(13) 0.27130(10) 0.27130(10)
H67_4 H 0.3647 0.2570 0.2570
C124_4 C 0.31509(10) 0.31509(10) 0.24595(14)
C125_4 C 0.33825(10) 0.33825(10) 0.19949(14)
C126_4 C 0.38630(9) 0.32344(10) 0.17903(10)
H68_4 H 0.4062 0.2994 0.1976
C127_4 C 0.40601(9) 0.34252(9) 0.13273(9)
H69_4 H 0.4327 0.3253 0.1152
C128_4 C 0.38584(8) 0.38584(8) 0.11419(11)
C129_4 C 0.40759(9) 0.40759(9) 0.06902(12)
C130_4 C 0.17903(10) 0.32344(10) 0.38630(9)
H70_4 H 0.1976 0.2994 0.4062
C131_4 C 0.13273(9) 0.34252(9) 0.40601(9)
H71_4 H 0.1152 0.3253 0.4327
C132_4 C 0.38630(9) 0.17903(10) 0.32344(10)
H72_4 H 0.4062 0.1976 0.2994
C133_4 C 0.40601(9) 0.13273(9) 0.34252(9)
H73_4 H 0.4327 0.1152 0.3253
C134_4 C 0.32344(10) 0.38630(9) 0.17903(10)
H74_4 H 0.2994 0.4062 0.1976
C135_4 C 0.34252(9) 0.40601(9) 0.13273(9)
H75_4 H 0.3253 0.4327 0.1152
loop_
_geom_bond_atom_site_label_1
_geom_bond_atom_site_label_2
_geom_bond_site_symmetry_1
_geom_bond_site_symmetry_2
C1 H1 1_555 1_555
C2 C1 1_555 1_555
C3 C2 1_555 1_555
C4 C3 1_555 1_555
H2 C4 1_555 1_555
C5 C4 1_555 1_555
H3 C5 1_555 1_555
C6 C5 1_555 1_555
C7 C6 1_555 1_555
Co14 O1 1_555 1_555
O1 C7 1_555 1_555
O2 Co14 1_555 1_555
C8 H4 1_555 1_555
C9 C1 1_555 1_555
C10 C9 1_555 1_555
C11 C10 1_555 1_555
H5 C11 1_555 1_555
C12 C11 1_555 1_555
H6 C12 1_555 1_555
C13 C12 1_555 1_555
C14 C13 1_555 1_555
O3 C14 1_555 1_555
C15 C2 1_555 1_555
H7 C15 1_555 1_555
C16 C8 1_555 1_555
C17 C16 1_555 1_555
C18 C17 1_555 1_555
H8 C18 1_555 1_555
C19 C18 1_555 1_555
H9 C19 1_555 1_555
C20 C19 1_555 1_555
C21 C20 1_555 1_555
O4 C21 1_555 1_555
C22 C10 1_555 1_555
H10 C22 1_555 1_555
C23 C13 1_555 1_555
H11 C23 1_555 1_555
O5 C14 1_555 1_555
C24 C3 1_555 1_555
H12 C24 1_555 1_555
C25 C6 1_555 1_555
H13 C25 1_555 1_555
O6 C7 1_555 1_555
C26 C17 1_555 1_555
H14 C26 1_555 1_555
C27 C20 1_555 1_555
H15 C27 1_555 1_555
O7 C21 1_555 1_555
Co3 O3 1_555 1_555
O14 Co3 1_555 1_555
Co6 O4 1_555 1_555
C163 H91 1_555 1_555
C164 C163 1_555 1_555
C165 C164 1_555 1_555
C166 C165 1_555 1_555
H92 C166 1_555 1_555
C167 C166 1_555 1_555
H93 C167 1_555 1_555
C168 C167 1_555 1_555
C169 C168 1_555 1_555
O40 C169 1_555 1_555
C170 H94 1_555 1_555
C171 C163 1_555 1_555
C172 C171 1_555 1_555
C173 C172 1_555 1_555
H95 C173 1_555 1_555
C174 C173 1_555 1_555
H96 C174 1_555 1_555
C175 C174 1_555 1_555
C176 C175 1_555 1_555
O41 C176 1_555 1_555
C177 C164 1_555 1_555
H97 C177 1_555 1_555
C178 C170 1_555 1_555
C179 C178 1_555 1_555
C180 C179 1_555 1_555
H98 C180 1_555 1_555
C181 C180 1_555 1_555
H99 C181 1_555 1_555
C182 C181 1_555 1_555
C183 C182 1_555 1_555
O42 C183 1_555 1_555
C184 C172 1_555 1_555
H100 C184 1_555 1_555
C185 C175 1_555 1_555
H101 C185 1_555 1_555
O43 C176 1_555 1_555
C186 C165 1_555 1_555
H102 C186 1_555 1_555
C187 C168 1_555 1_555
H103 C187 1_555 1_555
O44 Co3 1_555 1_555
C188 C179 1_555 1_555
H104 C188 1_555 1_555
C189 C182 1_555 1_555
H105 C189 1_555 1_555
O45 C183 1_555 1_555
Co9 O2 1_555 1_555
Co26 O7 1_555 1_555
Co12 O5 1_555 1_555
Co14_2 O43 1_555 1_555
Co18 O45 1_555 1_555
Co24 O41 1_555 1_555
Co26_2 O42 1_555 1_555
O60 Co9 1_555 1_555
O62 Co26 1_555 1_555
O64 Co14 1_555 1_555
O70 Co6 1_555 1_555
O76 Co6 1_555 1_555
C8 C9 1_555 1_555
C15 C16 1_555 1_555
C22 C23 1_555 1_555
C24 C25 1_555 1_555
O6 Co9 1_555 1_555
C26 C27 1_555 1_555
O14 Co12 1_555 1_555
C169 O44 1_555 1_555
O40 Co12 1_555 1_555
C170 C171 1_555 1_555
C177 C178 1_555 1_555
C184 C185 1_555 1_555
C186 C187 1_555 1_555
C188 C189 1_555 1_555
Co26 O76 1_555 1_555
Co2 O2_2 1_555 1_555
O14_2 Co3_2 1_555 1_555
C109 H61 1_555 1_555
C110 C109 1_555 1_555
C111 C110 1_555 1_555
C112 C111 1_555 1_555
H62 C112 1_555 1_555
C113 C112 1_555 1_555
H63 C113 1_555 1_555
C114 C113 1_555 1_555
C115 C114 1_555 1_555
O28 C115 1_555 1_555
C116 H64 1_555 1_555
C117 C109 1_555 1_555
C118 C117 1_555 1_555
C119 C118 1_555 1_555
H65 C119 1_555 1_555
C120 C119 1_555 1_555
H66 C120 1_555 1_555
C121 C120 1_555 1_555
C122 C121 1_555 1_555
O29 C122 1_555 1_555
C123 C110 1_555 1_555
H67 C123 1_555 1_555
C124 C116 1_555 1_555
C125 C124 1_555 1_555
C126 C125 1_555 1_555
H68 C126 1_555 1_555
C127 C126 1_555 1_555
H69 C127 1_555 1_555
C128 C127 1_555 1_555
C129 C128 1_555 1_555
O62 C129 1_555 1_555
C130 C118 1_555 1_555
H70 C130 1_555 1_555
C131 C121 1_555 1_555
H71 C131 1_555 1_555
O31 Co2 1_555 1_555
C132 C111 1_555 1_555
H72 C132 1_555 1_555
C133 C114 1_555 1_555
H73 C133 1_555 1_555
O32 Co3_2 1_555 1_555
C134 C125 1_555 1_555
H74 C134 1_555 1_555
C135 C128 1_555 1_555
H75 C135 1_555 1_555
O70 C129 1_555 1_555
Co9_2 O2_2 1_555 1_555
Co20 O14_2 1_555 1_555
O53 Co2 1_555 1_555
O55 Co3_2 1_555 1_555
O73 Co9_2 1_555 1_555
C115 O32 1_555 1_555
O28 Co20 1_555 1_555
C116 C117 1_555 1_555
C122 O31 1_555 1_555
O29 Co9_2 1_555 1_555
C123 C124 1_555 1_555
C130 C131 1_555 1_555
C132 C133 1_555 1_555
C134 C135 1_555 1_555
O2_3 Co14_2 1_555 1_555
Co24 O2_3 1_555 1_555
O52 Co14_2 1_555 1_555
O58 Co18 1_555 1_555
O72 Co24 1_555 1_555
O74 Co26_2 1_555 1_555
Co18 O76_2 1_555 1_555
Co26_2 O76_2 1_555 1_555
Co2_2 O2_4 1_555 1_555
C28 H16 1_555 1_555
C29 C28 1_555 1_555
C30 C29 1_555 1_555
C31 C30 1_555 1_555
H17 C31 1_555 1_555
C32 C31 1_555 1_555
H18 C32 1_555 1_555
C33 C32 1_555 1_555
C34 C33 1_555 1_555
O8 Co2_2 1_555 1_555
C35 H19 1_555 1_555
C36 C28 1_555 1_555
C37 C36 1_555 1_555
C38 C37 1_555 1_555
H20 C38 1_555 1_555
C39 C38 1_555 1_555
H21 C39 1_555 1_555
C40 C39 1_555 1_555
C41 C40 1_555 1_555
O55 C41 1_555 1_555
C42 C29 1_555 1_555
H22 C42 1_555 1_555
C43 C35 1_555 1_555
C44 C43 1_555 1_555
C45 C44 1_555 1_555
H23 C45 1_555 1_555
C46 C45 1_555 1_555
H24 C46 1_555 1_555
C47 C46 1_555 1_555
C48 C47 1_555 1_555
O58 C48 1_555 1_555
C49 C37 1_555 1_555
H25 C49 1_555 1_555
C50 C40 1_555 1_555
H26 C50 1_555 1_555
O11 C41 1_555 1_555
C51 C30 1_555 1_555
H27 C51 1_555 1_555
C52 C33 1_555 1_555
H28 C52 1_555 1_555
O12 C34 1_555 1_555
C53 C44 1_555 1_555
H29 C53 1_555 1_555
C54 C47 1_555 1_555
H30 C54 1_555 1_555
O74 C48 1_555 1_555
Co24_2 O2_4 1_555 1_555
Co20 O11 1_555 1_555
O61 Co24_2 1_555 1_555
O63 Co2_2 1_555 1_555
C34 O8 1_555 1_555
C35 C36 1_555 1_555
C42 C43 1_555 1_555
C49 C50 1_555 1_555
C51 C52 1_555 1_555
O12 Co24_2 1_555 1_555
C53 C54 1_555 1_555
Co5 O14_3 1_555 1_555
C190 H106 1_555 1_555
C191 C190 1_555 1_555
C192 C191 1_555 1_555
C193 C192 1_555 1_555
H107 C193 1_555 1_555
C194 C193 1_555 1_555
H108 C194 1_555 1_555
C195 C194 1_555 1_555
C196 C195 1_555 1_555
O46 C196 1_555 1_555
C197 H109 1_555 1_555
C198 C190 1_555 1_555
C199 C198 1_555 1_555
C200 C199 1_555 1_555
H110 C200 1_555 1_555
C201 C200 1_555 1_555
H111 C201 1_555 1_555
C202 C201 1_555 1_555
C203 C202 1_555 1_555
O60 C203 1_555 1_555
C204 C191 1_555 1_555
H112 C204 1_555 1_555
C205 C197 1_555 1_555
C206 C205 1_555 1_555
C207 C206 1_555 1_555
H113 C207 1_555 1_555
C208 C207 1_555 1_555
H114 C208 1_555 1_555
C209 C208 1_555 1_555
C210 C209 1_555 1_555
O48 C210 1_555 1_555
C211 C199 1_555 1_555
H115 C211 1_555 1_555
C212 C202 1_555 1_555
H116 C212 1_555 1_555
O64 C203 1_555 1_555
C213 C192 1_555 1_555
H117 C213 1_555 1_555
C214 C195 1_555 1_555
H118 C214 1_555 1_555
O50 Co5 1_555 1_555
C215 C206 1_555 1_555
H119 C215 1_555 1_555
C216 C209 1_555 1_555
H120 C216 1_555 1_555
O51 Co6_2 1_555 1_555
O56 Co5 1_555 1_555
O57 Co6_2 1_555 1_555
O71 Co12_2 1_555 1_555
O76_3 Co6_2 1_555 1_555
O14_3 Co12_2 1_555 1_555
C196 O50 1_555 1_555
O46 Co12_2 1_555 1_555
C197 C198 1_555 1_555
C204 C205 1_555 1_555
C210 O51 1_555 1_555
O48 Co28 1_555 1_555
C211 C212 1_555 1_555
C213 C214 1_555 1_555
C215 C216 1_555 1_555
Co28 O76_3 1_555 1_555
C55 H31 1_555 1_555
C56 C55 1_555 1_555
C57 C56 1_555 1_555
C58 C57 1_555 1_555
H32 C58 1_555 1_555
C59 C58 1_555 1_555
H33 C59 1_555 1_555
C60 C59 1_555 1_555
C61 C60 1_555 1_555
Co5_2 O14_4 1_555 1_555
O16 C61 1_555 1_555
C62 H34 1_555 1_555
C63 C55 1_555 1_555
C64 C63 1_555 1_555
C65 C64 1_555 1_555
H35 C65 1_555 1_555
C66 C65 1_555 1_555
H36 C66 1_555 1_555
C67 C66 1_555 1_555
C68 C67 1_555 1_555
O57 C68 1_555 1_555
C69 C56 1_555 1_555
H37 C69 1_555 1_555
C70 C62 1_555 1_555
C71 C70 1_555 1_555
C72 C71 1_555 1_555
H38 C72 1_555 1_555
C73 C72 1_555 1_555
H39 C73 1_555 1_555
C74 C73 1_555 1_555
C75 C74 1_555 1_555
O53 C75 1_555 1_555
C76 C64 1_555 1_555
H40 C76 1_555 1_555
C77 C67 1_555 1_555
H41 C77 1_555 1_555
O19 C68 1_555 1_555
C78 C57 1_555 1_555
H42 C78 1_555 1_555
C79 C60 1_555 1_555
H43 C79 1_555 1_555
O20 C61 1_555 1_555
C80 C71 1_555 1_555
H44 C80 1_555 1_555
C81 C74 1_555 1_555
H45 C81 1_555 1_555
O73 C75 1_555 1_555
Co20_2 O14_4 1_555 1_555
Co28 O19 1_555 1_555
O65 Co5_2 1_555 1_555
Co5_2 O16 1_555 1_555
C62 C63 1_555 1_555
C69 C70 1_555 1_555
C76 C77 1_555 1_555
C78 C79 1_555 1_555
O20 Co20_2 1_555 1_555
C80 C81 1_555 1_555
C82 H46 1_555 1_555
C83 C82 1_555 1_555
C84 C83 1_555 1_555
C85 C84 1_555 1_555
H47 C85 1_555 1_555
C86 C85 1_555 1_555
H48 C86 1_555 1_555
C87 C86 1_555 1_555
C88 C87 1_555 1_555
Co18_2 O22 1_555 1_555
O22 C88 1_555 1_555
C89 H49 1_555 1_555
C90 C82 1_555 1_555
C91 C90 1_555 1_555
C92 C91 1_555 1_555
H50 C92 1_555 1_555
C93 C92 1_555 1_555
H51 C93 1_555 1_555
C94 C93 1_555 1_555
C95 C94 1_555 1_555
O52 C95 1_555 1_555
C96 C83 1_555 1_555
H52 C96 1_555 1_555
C97 C89 1_555 1_555
C98 C97 1_555 1_555
C99 C98 1_555 1_555
H53 C99 1_555 1_555
C100 C99 1_555 1_555
H54 C100 1_555 1_555
C101 C100 1_555 1_555
C102 C101 1_555 1_555
O56 C102 1_555 1_555
C103 C91 1_555 1_555
H55 C103 1_555 1_555
C104 C94 1_555 1_555
H56 C104 1_555 1_555
O72 C95 1_555 1_555
C105 C84 1_555 1_555
H57 C105 1_555 1_555
C106 C87 1_555 1_555
H58 C106 1_555 1_555
O26 C88 1_555 1_555
C107 C98 1_555 1_555
H59 C107 1_555 1_555
C108 C101 1_555 1_555
H60 C108 1_555 1_555
O71 C102 1_555 1_555
Co28_2 O26 1_555 1_555
O68 Co18_2 1_555 1_555
Co18_2 O76_4 1_555 1_555
C89 C90 1_555 1_555
C96 C97 1_555 1_555
C103 C104 1_555 1_555
C105 C106 1_555 1_555
C107 C108 1_555 1_555
Co28_2 O76_4 1_555 1_555
O62_2 Co28_2 1_555 1_555
C109_2 H61_2 1_555 1_555
C110_2 C109_2 1_555 1_555
C111_2 C110_2 1_555 1_555
C112_2 C111_2 1_555 1_555
H62_2 C112_2 1_555 1_555
C113_2 C112_2 1_555 1_555
H63_2 C113_2 1_555 1_555
C114_2 C113_2 1_555 1_555
C115_2 C114_2 1_555 1_555
O28_2 C115_2 1_555 1_555
C116_2 H64_2 1_555 1_555
C117_2 C109_2 1_555 1_555
C118_2 C117_2 1_555 1_555
C119_2 C118_2 1_555 1_555
H65_2 C119_2 1_555 1_555
C120_2 C119_2 1_555 1_555
H66_2 C120_2 1_555 1_555
C121_2 C120_2 1_555 1_555
C122_2 C121_2 1_555 1_555
O61 C122_2 1_555 1_555
C123_2 C110_2 1_555 1_555
H67_2 C123_2 1_555 1_555
C124_2 C116_2 1_555 1_555
C125_2 C124_2 1_555 1_555
C126_2 C125_2 1_555 1_555
H68_2 C126_2 1_555 1_555
C127_2 C126_2 1_555 1_555
H69_2 C127_2 1_555 1_555
C128_2 C127_2 1_555 1_555
C129_2 C128_2 1_555 1_555
O62_2 C129_2 1_555 1_555
C130_2 C118_2 1_555 1_555
H70_2 C130_2 1_555 1_555
C131_2 C121_2 1_555 1_555
H71_2 C131_2 1_555 1_555
C132_2 C111_2 1_555 1_555
H72_2 C132_2 1_555 1_555
C133_2 C114_2 1_555 1_555
H73_2 C133_2 1_555 1_555
C134_2 C125_2 1_555 1_555
H74_2 C134_2 1_555 1_555
C135_2 C128_2 1_555 1_555
H75_2 C135_2 1_555 1_555
O68 C129_2 1_555 1_555
C115_2 O65 1_555 1_555
O28_2 Co20_2 1_555 1_555
C116_2 C117_2 1_555 1_555
C122_2 O63 1_555 1_555
C123_2 C124_2 1_555 1_555
C130_2 C131_2 1_555 1_555
C132_2 C133_2 1_555 1_555
C134_2 C135_2 1_555 1_555
O2_5 Co14_3 1_555 1_555
Co2_3 O2_5 1_555 1_555
Co9_3 O2_5 1_555 1_555
Co24_3 O2_5 1_555 1_555
O52_2 Co14_3 1_555 1_555
O53_2 Co2_3 1_555 1_555
O60_2 Co9_3 1_555 1_555
O61_2 Co24_3 1_555 1_555
O63_2 Co2_3 1_555 1_555
O64_2 Co14_3 1_555 1_555
O72_2 Co24_3 1_555 1_555
O73_2 Co9_3 1_555 1_555
O14_5 Co3_3 1_555 1_555
Co5_3 O14_5 1_555 1_555
C163_2 H91_2 1_555 1_555
C164_2 C163_2 1_555 1_555
C165_2 C164_2 1_555 1_555
C166_2 C165_2 1_555 1_555
H92_2 C166_2 1_555 1_555
C167_2 C166_2 1_555 1_555
H93_2 C167_2 1_555 1_555
C168_2 C167_2 1_555 1_555
C169_2 C168_2 1_555 1_555
O40_2 C169_2 1_555 1_555
C170_2 H94_2 1_555 1_555
C171_2 C163_2 1_555 1_555
C172_2 C171_2 1_555 1_555
C173_2 C172_2 1_555 1_555
H95_2 C173_2 1_555 1_555
C174_2 C173_2 1_555 1_555
H96_2 C174_2 1_555 1_555
C175_2 C174_2 1_555 1_555
C176_2 C175_2 1_555 1_555
O41_2 C176_2 1_555 1_555
C177_2 C164_2 1_555 1_555
H97_2 C177_2 1_555 1_555
C178_2 C170_2 1_555 1_555
C179_2 C178_2 1_555 1_555
C180_2 C179_2 1_555 1_555
H98_2 C180_2 1_555 1_555
C181_2 C180_2 1_555 1_555
H99_2 C181_2 1_555 1_555
C182_2 C181_2 1_555 1_555
C183_2 C182_2 1_555 1_555
O42_2 C183_2 1_555 1_555
C184_2 C172_2 1_555 1_555
H100_2 C184_2 1_555 1_555
C185_2 C175_2 1_555 1_555
H101_2 C185_2 1_555 1_555
O43_2 C176_2 1_555 1_555
C186_2 C165_2 1_555 1_555
H102_2 C186_2 1_555 1_555
C187_2 C168_2 1_555 1_555
H103_2 C187_2 1_555 1_555
O44_2 Co3_3 1_555 1_555
C188_2 C179_2 1_555 1_555
H104_2 C188_2 1_555 1_555
C189_2 C182_2 1_555 1_555
H105_2 C189_2 1_555 1_555
O45_2 C183_2 1_555 1_555
Co14_4 O43_2 1_555 1_555
Co18_4 O45_2 1_555 1_555
Co20_3 O14_5 1_555 1_555
Co24_4 O41_2 1_555 1_555
Co26_4 O42_2 1_555 1_555
O55_2 Co3_3 1_555 1_555
O56_2 Co5_3 1_555 1_555
O65_2 Co5_3 1_555 1_555
O71_2 Co12_3 1_555 1_555
O14_5 Co12_3 1_555 1_555
C169_2 O44_2 1_555 1_555
O40_2 Co12_3 1_555 1_555
C170_2 C171_2 1_555 1_555
C177_2 C178_2 1_555 1_555
C184_2 C185_2 1_555 1_555
C186_2 C187_2 1_555 1_555
C188_2 C189_2 1_555 1_555
O57_2 Co6_3 1_555 1_555
O58_2 Co18_3 1_555 1_555
O62_3 Co26_3 1_555 1_555
O68_2 Co18_3 1_555 1_555
O70_2 Co6_3 1_555 1_555
O74_2 Co26_3 1_555 1_555
O76_5 Co6_3 1_555 1_555
Co18_3 O76_5 1_555 1_555
Co26_3 O76_5 1_555 1_555
Co28_3 O76_5 1_555 1_555
C1_2 H1_2 1_555 1_555
C2_2 C1_2 1_555 1_555
C3_2 C2_2 1_555 1_555
C4_2 C3_2 1_555 1_555
H2_2 C4_2 1_555 1_555
C5_2 C4_2 1_555 1_555
H3_2 C5_2 1_555 1_555
C6_2 C5_2 1_555 1_555
C7_2 C6_2 1_555 1_555
Co14_4 O1_2 1_555 1_555
O1_2 C7_2 1_555 1_555
O2_6 Co14_4 1_555 1_555
C8_2 H4_2 1_555 1_555
C9_2 C1_2 1_555 1_555
C10_2 C9_2 1_555 1_555
C11_2 C10_2 1_555 1_555
H5_2 C11_2 1_555 1_555
C12_2 C11_2 1_555 1_555
H6_2 C12_2 1_555 1_555
C13_2 C12_2 1_555 1_555
C14_2 C13_2 1_555 1_555
O3_2 C14_2 1_555 1_555
C15_2 C2_2 1_555 1_555
H7_2 C15_2 1_555 1_555
C16_2 C8_2 1_555 1_555
C17_2 C16_2 1_555 1_555
C18_2 C17_2 1_555 1_555
H8_2 C18_2 1_555 1_555
C19_2 C18_2 1_555 1_555
H9_2 C19_2 1_555 1_555
C20_2 C19_2 1_555 1_555
C21_2 C20_2 1_555 1_555
O4_2 C21_2 1_555 1_555
C22_2 C10_2 1_555 1_555
H10_2 C22_2 1_555 1_555
C23_2 C13_2 1_555 1_555
H11_2 C23_2 1_555 1_555
O5_2 C14_2 1_555 1_555
C24_2 C3_2 1_555 1_555
H12_2 C24_2 1_555 1_555
C25_2 C6_2 1_555 1_555
H13_2 C25_2 1_555 1_555
O6_2 C7_2 1_555 1_555
C26_2 C17_2 1_555 1_555
H14_2 C26_2 1_555 1_555
C27_2 C20_2 1_555 1_555
H15_2 C27_2 1_555 1_555
O7_2 C21_2 1_555 1_555
Co2_4 O2_6 1_555 1_555
C28_2 H16_2 1_555 1_555
C29_2 C28_2 1_555 1_555
C30_2 C29_2 1_555 1_555
C31_2 C30_2 1_555 1_555
H17_2 C31_2 1_555 1_555
C32_2 C31_2 1_555 1_555
H18_2 C32_2 1_555 1_555
C33_2 C32_2 1_555 1_555
C34_2 C33_2 1_555 1_555
O8_2 Co2_4 1_555 1_555
C35_2 H19_2 1_555 1_555
C36_2 C28_2 1_555 1_555
C37_2 C36_2 1_555 1_555
C38_2 C37_2 1_555 1_555
H20_2 C38_2 1_555 1_555
C39_2 C38_2 1_555 1_555
H21_2 C39_2 1_555 1_555
C40_2 C39_2 1_555 1_555
C41_2 C40_2 1_555 1_555
O55_2 C41_2 1_555 1_555
C42_2 C29_2 1_555 1_555
H22_2 C42_2 1_555 1_555
C43_2 C35_2 1_555 1_555
C44_2 C43_2 1_555 1_555
C45_2 C44_2 1_555 1_555
H23_2 C45_2 1_555 1_555
C46_2 C45_2 1_555 1_555
H24_2 C46_2 1_555 1_555
C47_2 C46_2 1_555 1_555
C48_2 C47_2 1_555 1_555
O58_2 C48_2 1_555 1_555
C49_2 C37_2 1_555 1_555
H25_2 C49_2 1_555 1_555
C50_2 C40_2 1_555 1_555
H26_2 C50_2 1_555 1_555
O11_2 C41_2 1_555 1_555
C51_2 C30_2 1_555 1_555
H27_2 C51_2 1_555 1_555
C52_2 C33_2 1_555 1_555
H28_2 C52_2 1_555 1_555
O12_2 C34_2 1_555 1_555
C53_2 C44_2 1_555 1_555
H29_2 C53_2 1_555 1_555
C54_2 C47_2 1_555 1_555
H30_2 C54_2 1_555 1_555
O74_2 C48_2 1_555 1_555
Co3_4 O3_2 1_555 1_555
O14_6 Co3_4 1_555 1_555
C55_2 H31_2 1_555 1_555
C56_2 C55_2 1_555 1_555
C57_2 C56_2 1_555 1_555
C58_2 C57_2 1_555 1_555
H32_2 C58_2 1_555 1_555
C59_2 C58_2 1_555 1_555
H33_2 C59_2 1_555 1_555
C60_2 C59_2 1_555 1_555
C61_2 C60_2 1_555 1_555
Co5_4 O14_6 1_555 1_555
O16_2 C61_2 1_555 1_555
C62_2 H34_2 1_555 1_555
C63_2 C55_2 1_555 1_555
C64_2 C63_2 1_555 1_555
C65_2 C64_2 1_555 1_555
H35_2 C65_2 1_555 1_555
C66_2 C65_2 1_555 1_555
H36_2 C66_2 1_555 1_555
C67_2 C66_2 1_555 1_555
C68_2 C67_2 1_555 1_555
O57_2 C68_2 1_555 1_555
C69_2 C56_2 1_555 1_555
H37_2 C69_2 1_555 1_555
C70_2 C62_2 1_555 1_555
C71_2 C70_2 1_555 1_555
C72_2 C71_2 1_555 1_555
H38_2 C72_2 1_555 1_555
C73_2 C72_2 1_555 1_555
H39_2 C73_2 1_555 1_555
C74_2 C73_2 1_555 1_555
C75_2 C74_2 1_555 1_555
O53_2 C75_2 1_555 1_555
C76_2 C64_2 1_555 1_555
H40_2 C76_2 1_555 1_555
C77_2 C67_2 1_555 1_555
H41_2 C77_2 1_555 1_555
O19_2 C68_2 1_555 1_555
C78_2 C57_2 1_555 1_555
H42_2 C78_2 1_555 1_555
C79_2 C60_2 1_555 1_555
H43_2 C79_2 1_555 1_555
O20_2 C61_2 1_555 1_555
C80_2 C71_2 1_555 1_555
H44_2 C80_2 1_555 1_555
C81_2 C74_2 1_555 1_555
H45_2 C81_2 1_555 1_555
O73_2 C75_2 1_555 1_555
Co6_4 O4_2 1_555 1_555
C82_2 H46_2 1_555 1_555
C83_2 C82_2 1_555 1_555
C84_2 C83_2 1_555 1_555
C85_2 C84_2 1_555 1_555
H47_2 C85_2 1_555 1_555
C86_2 C85_2 1_555 1_555
H48_2 C86_2 1_555 1_555
C87_2 C86_2 1_555 1_555
C88_2 C87_2 1_555 1_555
Co18_4 O22_2 1_555 1_555
O22_2 C88_2 1_555 1_555
C89_2 H49_2 1_555 1_555
C90_2 C82_2 1_555 1_555
C91_2 C90_2 1_555 1_555
C92_2 C91_2 1_555 1_555
H50_2 C92_2 1_555 1_555
C93_2 C92_2 1_555 1_555
H51_2 C93_2 1_555 1_555
C94_2 C93_2 1_555 1_555
C95_2 C94_2 1_555 1_555
O52_2 C95_2 1_555 1_555
C96_2 C83_2 1_555 1_555
H52_2 C96_2 1_555 1_555
C97_2 C89_2 1_555 1_555
C98_2 C97_2 1_555 1_555
C99_2 C98_2 1_555 1_555
H53_2 C99_2 1_555 1_555
C100_2 C99_2 1_555 1_555
H54_2 C100_2 1_555 1_555
C101_2 C100_2 1_555 1_555
C102_2 C101_2 1_555 1_555
O56_2 C102_2 1_555 1_555
C103_2 C91_2 1_555 1_555
H55_2 C103_2 1_555 1_555
C104_2 C94_2 1_555 1_555
H56_2 C104_2 1_555 1_555
O72_2 C95_2 1_555 1_555
C105_2 C84_2 1_555 1_555
H57_2 C105_2 1_555 1_555
C106_2 C87_2 1_555 1_555
H58_2 C106_2 1_555 1_555
O26_2 C88_2 1_555 1_555
C107_2 C98_2 1_555 1_555
H59_2 C107_2 1_555 1_555
C108_2 C101_2 1_555 1_555
H60_2 C108_2 1_555 1_555
O71_2 C102_2 1_555 1_555
C109_3 H61_3 1_555 1_555
C110_3 C109_3 1_555 1_555
C111_3 C110_3 1_555 1_555
C112_3 C111_3 1_555 1_555
H62_3 C112_3 1_555 1_555
C113_3 C112_3 1_555 1_555
H63_3 C113_3 1_555 1_555
C114_3 C113_3 1_555 1_555
C115_3 C114_3 1_555 1_555
O28_3 C115_3 1_555 1_555
C116_3 H64_3 1_555 1_555
C117_3 C109_3 1_555 1_555
C118_3 C117_3 1_555 1_555
C119_3 C118_3 1_555 1_555
H65_3 C119_3 1_555 1_555
C120_3 C119_3 1_555 1_555
H66_3 C120_3 1_555 1_555
C121_3 C120_3 1_555 1_555
C122_3 C121_3 1_555 1_555
O29_2 C122_3 1_555 1_555
C123_3 C110_3 1_555 1_555
H67_3 C123_3 1_555 1_555
C124_3 C116_3 1_555 1_555
C125_3 C124_3 1_555 1_555
C126_3 C125_3 1_555 1_555
H68_3 C126_3 1_555 1_555
C127_3 C126_3 1_555 1_555
H69_3 C127_3 1_555 1_555
C128_3 C127_3 1_555 1_555
C129_3 C128_3 1_555 1_555
O62_3 C129_3 1_555 1_555
C130_3 C118_3 1_555 1_555
H70_3 C130_3 1_555 1_555
C131_3 C121_3 1_555 1_555
H71_3 C131_3 1_555 1_555
O31_2 Co2_4 1_555 1_555
C132_3 C111_3 1_555 1_555
H72_3 C132_3 1_555 1_555
C133_3 C114_3 1_555 1_555
H73_3 C133_3 1_555 1_555
O32_2 Co3_4 1_555 1_555
C134_3 C125_3 1_555 1_555
H74_3 C134_3 1_555 1_555
C135_3 C128_3 1_555 1_555
H75_3 C135_3 1_555 1_555
O70_2 C129_3 1_555 1_555
C190_2 H106_2 1_555 1_555
C191_2 C190_2 1_555 1_555
C192_2 C191_2 1_555 1_555
C193_2 C192_2 1_555 1_555
H107_2 C193_2 1_555 1_555
C194_2 C193_2 1_555 1_555
H108_2 C194_2 1_555 1_555
C195_2 C194_2 1_555 1_555
C196_2 C195_2 1_555 1_555
O46_2 C196_2 1_555 1_555
C197_2 H109_2 1_555 1_555
C198_2 C190_2 1_555 1_555
C199_2 C198_2 1_555 1_555
C200_2 C199_2 1_555 1_555
H110_2 C200_2 1_555 1_555
C201_2 C200_2 1_555 1_555
H111_2 C201_2 1_555 1_555
C202_2 C201_2 1_555 1_555
C203_2 C202_2 1_555 1_555
O60_2 C203_2 1_555 1_555
C204_2 C191_2 1_555 1_555
H112_2 C204_2 1_555 1_555
C205_2 C197_2 1_555 1_555
C206_2 C205_2 1_555 1_555
C207_2 C206_2 1_555 1_555
H113_2 C207_2 1_555 1_555
C208_2 C207_2 1_555 1_555
H114_2 C208_2 1_555 1_555
C209_2 C208_2 1_555 1_555
C210_2 C209_2 1_555 1_555
O48_2 C210_2 1_555 1_555
C211_2 C199_2 1_555 1_555
H115_2 C211_2 1_555 1_555
C212_2 C202_2 1_555 1_555
H116_2 C212_2 1_555 1_555
O64_2 C203_2 1_555 1_555
C213_2 C192_2 1_555 1_555
H117_2 C213_2 1_555 1_555
C214_2 C195_2 1_555 1_555
H118_2 C214_2 1_555 1_555
O50_2 Co5_4 1_555 1_555
C215_2 C206_2 1_555 1_555
H119_2 C215_2 1_555 1_555
C216_2 C209_2 1_555 1_555
H120_2 C216_2 1_555 1_555
O51_2 Co6_4 1_555 1_555
Co9_4 O2_6 1_555 1_555
Co24_4 O2_6 1_555 1_555
Co26_4 O7_2 1_555 1_555
Co12_4 O5_2 1_555 1_555
Co20_3 O11_2 1_555 1_555
Co20_4 O14_6 1_555 1_555
Co28_3 O19_2 1_555 1_555
Co28_4 O26_2 1_555 1_555
O76_6 Co6_4 1_555 1_555
C8_2 C9_2 1_555 1_555
C15_2 C16_2 1_555 1_555
C22_2 C23_2 1_555 1_555
C24_2 C25_2 1_555 1_555
O6_2 Co9_4 1_555 1_555
C26_2 C27_2 1_555 1_555
C34_2 O8_2 1_555 1_555
C35_2 C36_2 1_555 1_555
C42_2 C43_2 1_555 1_555
C49_2 C50_2 1_555 1_555
C51_2 C52_2 1_555 1_555
O12_2 Co24_4 1_555 1_555
C53_2 C54_2 1_555 1_555
O14_6 Co12_4 1_555 1_555
Co5_4 O16_2 1_555 1_555
C62_2 C63_2 1_555 1_555
C69_2 C70_2 1_555 1_555
C76_2 C77_2 1_555 1_555
C78_2 C79_2 1_555 1_555
O20_2 Co20_4 1_555 1_555
C80_2 C81_2 1_555 1_555
Co18_4 O76_6 1_555 1_555
C89_2 C90_2 1_555 1_555
C96_2 C97_2 1_555 1_555
C103_2 C104_2 1_555 1_555
C105_2 C106_2 1_555 1_555
C107_2 C108_2 1_555 1_555
C115_3 O32_2 1_555 1_555
O28_3 Co20_4 1_555 1_555
C116_3 C117_3 1_555 1_555
C122_3 O31_2 1_555 1_555
O29_2 Co9_4 1_555 1_555
C123_3 C124_3 1_555 1_555
C130_3 C131_3 1_555 1_555
C132_3 C133_3 1_555 1_555
C134_3 C135_3 1_555 1_555
C196_2 O50_2 1_555 1_555
O46_2 Co12_4 1_555 1_555
C197_2 C198_2 1_555 1_555
C204_2 C205_2 1_555 1_555
C210_2 O51_2 1_555 1_555
O48_2 Co28_4 1_555 1_555
C211_2 C212_2 1_555 1_555
C213_2 C214_2 1_555 1_555
C215_2 C216_2 1_555 1_555
Co26_4 O76_6 1_555 1_555
Co28_4 O76_6 1_555 1_555
O62_4 Co28_3 1_555 1_555
C109_4 H61_4 1_555 1_555
C110_4 C109_4 1_555 1_555
C111_4 C110_4 1_555 1_555
C112_4 C111_4 1_555 1_555
H62_4 C112_4 1_555 1_555
C113_4 C112_4 1_555 1_555
H63_4 C113_4 1_555 1_555
C114_4 C113_4 1_555 1_555
C115_4 C114_4 1_555 1_555
O28_4 C115_4 1_555 1_555
C116_4 H64_4 1_555 1_555
C117_4 C109_4 1_555 1_555
C118_4 C117_4 1_555 1_555
C119_4 C118_4 1_555 1_555
H65_4 C119_4 1_555 1_555
C120_4 C119_4 1_555 1_555
H66_4 C120_4 1_555 1_555
C121_4 C120_4 1_555 1_555
C122_4 C121_4 1_555 1_555
O61_2 C122_4 1_555 1_555
C123_4 C110_4 1_555 1_555
H67_4 C123_4 1_555 1_555
C124_4 C116_4 1_555 1_555
C125_4 C124_4 1_555 1_555
C126_4 C125_4 1_555 1_555
H68_4 C126_4 1_555 1_555
C127_4 C126_4 1_555 1_555
H69_4 C127_4 1_555 1_555
C128_4 C127_4 1_555 1_555
C129_4 C128_4 1_555 1_555
O62_4 C129_4 1_555 1_555
C130_4 C118_4 1_555 1_555
H70_4 C130_4 1_555 1_555
C131_4 C121_4 1_555 1_555
H71_4 C131_4 1_555 1_555
C132_4 C111_4 1_555 1_555
H72_4 C132_4 1_555 1_555
C133_4 C114_4 1_555 1_555
H73_4 C133_4 1_555 1_555
C134_4 C125_4 1_555 1_555
H74_4 C134_4 1_555 1_555
C135_4 C128_4 1_555 1_555
H75_4 C135_4 1_555 1_555
O68_2 C129_4 1_555 1_555
C115_4 O65_2 1_555 1_555
O28_4 Co20_3 1_555 1_555
C116_4 C117_4 1_555 1_555
C122_4 O63_2 1_555 1_555
C123_4 C124_4 1_555 1_555
C130_4 C131_4 1_555 1_555
C132_4 C133_4 1_555 1_555
C134_4 C135_4 1_555 1_555

#END
