
###############################################################################
#
# This file contains modified crystal structure data generated from the
# MOF subset of the Cambridge Structural Database (CSD) v543 
# hosted by the Cambridge Crystallographic Data Centre (CCDC).
#
# This work is licensed under the Creative Commons
# Attribution-NonCommercial-ShareAlike 4.0 International License.
# To view a copy of this license, visit
# http://creativecommons.org/licenses/by-nc-sa/4.0/
# or send a letter to
# Creative Commons, PO Box 1866, Mountain View, CA 94042, USA.
#
# CIF created using the CSD Python API on 29 September 2022
# The structure has been converted into the P1 space group
# The structure has a 3D framework
# The original CSD entry NIGQAY is in the rhombohedral crystal system
# The framework has been calculated to contain at least 10.0% void space
# The void calculation uses a probe of radius 1.32A, grid spacing 0.4
#
###############################################################################

data_NIGQAY
_chemical_formula_moiety         '(C216 H180 Cd18 N36 O80)n'
_symmetry_cell_setting           triclinic
_symmetry_space_group_name_H-M   'P 1'
_symmetry_Int_Tables_number      1
_space_group_name_Hall           'P 1'
loop_
_symmetry_equiv_pos_site_id
_symmetry_equiv_pos_as_xyz
1 x,y,z
_cell_length_a                   37.336(5)
_cell_length_b                   37.336(5)
_cell_length_c                   7.4054(15)
_cell_angle_alpha                90
_cell_angle_beta                 90
_cell_angle_gamma                120
_cell_volume                     8939.94
loop_
_atom_site_label
_atom_site_type_symbol
_atom_site_fract_x
_atom_site_fract_y
_atom_site_fract_z
Cd1 Cd 0.720142(12) 0.062531(12) 0.46169(5)
O1 O 0.67343(10) 0.04017(11) 0.7065(5)
O2 O 0.64960(10) 0.05769(11) 0.9445(4)
O4 O 0.92171(12) 0.25812(11) 0.1789(5)
O5 O 0.66451(11) 0.06021(12) 0.3210(4)
H1 H 0.6564(12) 0.0625(14) 0.195(3)
H2 H 0.6385(9) 0.0451(14) 0.394(4)
N1 N 0.73266(13) 0.11944(13) 0.6448(6)
N2 N 0.75711(13) 0.16162(14) 0.6513(5)
C1 C 0.70713(15) 0.11029(16) 0.7883(6)
C2 C 0.71636(18) 0.14588(17) 0.8851(7)
H3 H 0.7036 0.1473 0.9908
C3 C 0.74794(18) 0.17861(17) 0.7941(7)
C4 C 0.67531(16) 0.06683(17) 0.8180(8)
C5 C 0.7681(2) 0.22448(17) 0.8264(8)
H4 H 0.7893 0.2389 0.7377
H5 H 0.7802 0.2309 0.9449
H6 H 0.7477 0.2329 0.8172
C6 C 0.78898(17) 0.18257(15) 0.5183(7)
C7 C 0.77819(16) 0.17653(16) 0.3357(7)
H7 H 0.7508 0.1603 0.2993
C8 C 0.81056(17) 0.19614(15) 0.2084(7)
H8 H 0.8043 0.1924 0.0858
C9 C 0.85101(16) 0.22058(15) 0.2609(7)
C10 C 0.86028(17) 0.22615(16) 0.4450(7)
H9 H 0.8875 0.2428 0.4822
C11 C 0.82881(17) 0.20684(16) 0.5742(7)
H10 H 0.8351 0.2106 0.6967
C12 C 0.88450(19) 0.24009(16) 0.1231(8)
O7 O 0.74142(15) 0.01707(10) 0.6112(4)
O8 O 0.79095(11) 0.09713(11) 0.3736(5)
O9 O 0.74496(12) 0.07521(11) 0.1544(5)
O3 O 0.36048(16) 0.12428(11) 0.9597(5)
Cd3 Cd 0.324278(17) 0.053475(12) 0.87164(5)
Cd3_2 Cd 0.395864(12) 0.009056(17) 0.20498(5)
O8_2 O 0.56953(11) 0.02715(16) 0.7070(5)
O9_2 O 0.59145(11) 0.00308(16) 0.4878(5)
H2_2 H 0.7399(17) 0.0282(9) 0.061(4)
O6 O 0.29993(15) 0.00676(10) 0.6268(5)
O5_2 O 0.39354(12) 0.06237(16) 0.3457(4)
H1_2 H 0.3958(14) 0.0728(18) 0.472(3)
H2_3 H 0.3784(14) 0.0733(17) 0.273(4)
N1_2 N 0.45277(13) 0.05345(18) 0.0219(6)
N2_2 N 0.49495(14) 0.07118(19) 0.0154(5)
C6_2 C 0.51590(15) 0.06026(23) 0.1484(7)
C7_2 C 0.50986(16) 0.06501(23) 0.3310(7)
H7_2 H 0.4936 0.0762 0.3674
C8_2 C 0.52947(15) 0.05225(23) 0.4583(7)
H8_2 H 0.5257 0.0548 0.5809
C9_2 C 0.55391(15) 0.03624(22) 0.4058(7)
C10_2 C 0.55948(16) 0.03254(23) 0.2217(7)
H9_2 H 0.5761 0.0220 0.1845
C11_2 C 0.54017(16) 0.04470(23) 0.0925(7)
C12_2 C 0.57342(16) 0.02226(25) 0.5436(8)
O1_2 O 0.37350(11) 0.03341(15) 0.9602(5)
O2_2 O 0.39102(11) 0.07476(15) 0.7222(4)
C1_2 C 0.44362(16) 0.06983(22) 0.8784(6)
C2_2 C 0.47921(17) 0.09619(25) 0.7816(7)
H3_2 H 0.4806 0.1104 0.6759
C3_2 C 0.51194(17) 0.09734(25) 0.8726(7)
C4_2 C 0.40016(17) 0.05819(23) 0.8487(8)
C5_2 C 0.55781(17) 0.12305(26) 0.8403(8)
H4_2 H 0.5722 0.1163 0.9290
H5_2 H 0.5642 0.1174 0.7218
H6_2 H 0.5662 0.1519 0.8495
H10_2 H 0.5439 0.0422 0.9700
H7_3 H 0.9159 0.1730 0.0340
C8_3 C 0.85611(17) 0.13719(15) 0.1249(7)
H8_3 H 0.8624 0.1409 0.2475
C9_3 C 0.81566(16) 0.11275(15) 0.0724(7)
C12_3 C 0.78217(19) 0.09324(16) 0.2102(8)
N1_3 N 0.27989(18) 0.06599(13) 0.6885(6)
N2_3 N 0.26216(19) 0.09044(13) 0.6820(5)
C1_3 C 0.26351(22) 0.04046(15) 0.5450(6)
C2_3 C 0.23715(25) 0.04969(18) 0.4482(7)
H3_3 H 0.2230 0.0369 0.3425
C3_3 C 0.23600(25) 0.08127(18) 0.5392(7)
C4_3 C 0.27515(23) 0.00864(16) 0.5153(8)
C5_3 C 0.21029(26) 0.1014(2) 0.5069(8)
H4_3 H 0.2171 0.1226 0.5956
H5_3 H 0.2160 0.1135 0.3884
H6_3 H 0.1815 0.0810 0.5161
C6_3 C 0.27308(23) 0.12231(17) 0.8150(7)
C7_3 C 0.26833(23) 0.11152(16) 0.9976(7)
C10_3 C 0.30080(23) 0.19361(17) 0.8883(7)
H9_3 H 0.3114 0.2208 0.8511
C11_3 C 0.28864(23) 0.16214(17) 0.7591(7)
H10_3 H 0.2912 0.1684 0.6366
O3_2 O 0.87572(11) 0.23620(11) 0.9597(5)
Cd3_3 Cd 0.946525(12) 0.270802(12) 0.87164(5)
Cd1_2 Cd 0.937469(12) 0.657611(17) 0.46169(5)
O1_3 O 0.95983(11) 0.63326(15) 0.7065(5)
O2_3 O 0.94231(11) 0.59191(15) 0.9445(4)
O4_2 O 0.74188(11) 0.66359(16) 0.1789(5)
O5_3 O 0.93979(12) 0.60430(16) 0.3210(4)
H1_3 H 0.9375(14) 0.5939(18) 0.195(3)
H2_4 H 0.9549(14) 0.5934(17) 0.394(4)
N1_4 N 0.88056(13) 0.61322(18) 0.6448(6)
N2_4 N 0.83838(14) 0.59549(19) 0.6513(5)
C1_4 C 0.88971(16) 0.59684(22) 0.7883(6)
C2_4 C 0.85412(17) 0.57048(25) 0.8851(7)
H3_4 H 0.8527 0.5563 0.9908
C3_4 C 0.82139(17) 0.56933(25) 0.7941(7)
C4_4 C 0.93317(17) 0.60848(23) 0.8180(8)
C5_4 C 0.77552(17) 0.54362(26) 0.8264(8)
H4_4 H 0.7611 0.5504 0.7377
H5_4 H 0.7691 0.5493 0.9449
H6_4 H 0.7671 0.5148 0.8172
C6_4 C 0.81743(15) 0.60641(23) 0.5183(7)
C7_4 C 0.82347(16) 0.60166(23) 0.3357(7)
H7_4 H 0.8397 0.5905 0.2993
C8_4 C 0.80386(15) 0.61442(23) 0.2084(7)
H8_4 H 0.8076 0.6119 0.0858
C9_4 C 0.77942(15) 0.63043(22) 0.2609(7)
C10_4 C 0.77385(16) 0.63413(23) 0.4450(7)
H9_4 H 0.7572 0.6447 0.4822
C11_4 C 0.79316(16) 0.62197(23) 0.5742(7)
H10_4 H 0.7894 0.6245 0.6967
C12_4 C 0.75991(16) 0.64441(25) 0.1231(8)
O7_2 O 0.98293(10) 0.72436(18) 0.6112(4)
O8_3 O 0.90287(11) 0.69381(16) 0.3736(5)
O9_3 O 0.92479(11) 0.66974(16) 0.1544(5)
Cd3_4 Cd 0.990944(17) 0.386809(12) 0.20498(5)
O8_4 O 0.97285(16) 0.54239(11) 0.7070(5)
O9_4 O 0.99692(16) 0.58838(12) 0.4878(5)
H2_5 H 0.9718(9) 0.7118(14) 0.061(4)
O6_2 O 0.99324(10) 0.29316(18) 0.6268(5)
O5_4 O 0.93763(16) 0.33118(11) 0.3457(4)
H1_4 H 0.9272(18) 0.3231(12) 0.472(3)
H2_6 H 0.9267(17) 0.3052(9) 0.273(4)
N1_5 N 0.94655(18) 0.39933(13) 0.0219(6)
N2_5 N 0.92882(19) 0.42378(13) 0.0154(5)
C6_5 C 0.93974(23) 0.45565(17) 0.1484(7)
C7_5 C 0.93499(23) 0.44486(16) 0.3310(7)
H7_5 H 0.9238 0.4175 0.3674
C8_5 C 0.94775(23) 0.47723(17) 0.4583(7)
H8_5 H 0.9452 0.4710 0.5809
C9_5 C 0.96376(22) 0.51768(16) 0.4058(7)
C10_5 C 0.96746(23) 0.52695(17) 0.2217(7)
H9_5 H 0.9780 0.5542 0.1845
C11_5 C 0.95530(23) 0.49548(17) 0.0925(7)
C12_5 C 0.97774(25) 0.55117(19) 0.5436(8)
O1_4 O 0.96659(15) 0.34010(10) 0.9602(5)
O2_4 O 0.92524(15) 0.31627(10) 0.7222(4)
C1_5 C 0.93017(22) 0.37380(15) 0.8784(6)
C2_5 C 0.90381(25) 0.38303(18) 0.7816(7)
H3_5 H 0.8896 0.3703 0.6759
C3_5 C 0.90266(25) 0.41461(18) 0.8726(7)
C4_5 C 0.94181(23) 0.34198(16) 0.8487(8)
C5_5 C 0.87695(26) 0.4348(2) 0.8403(8)
H4_5 H 0.8837 0.4560 0.9290
H5_5 H 0.8826 0.4469 0.7218
H6_5 H 0.8481 0.4144 0.8495
H10_5 H 0.9578 0.5018 0.9700
N1_6 N 0.93401(13) 0.21389(13) 0.6885(6)
N2_6 N 0.90956(13) 0.17171(14) 0.6820(5)
C1_6 C 0.95954(15) 0.22304(16) 0.5450(6)
C2_6 C 0.95031(18) 0.18745(17) 0.4482(7)
H3_6 H 0.9631 0.1860 0.3425
C3_6 C 0.91873(18) 0.15472(17) 0.5392(7)
C4_6 C 0.99136(16) 0.26650(17) 0.5153(8)
C5_6 C 0.8986(2) 0.10885(17) 0.5069(8)
H4_6 H 0.8774 0.0944 0.5956
H5_6 H 0.8865 0.1024 0.3884
H6_6 H 0.9190 0.1004 0.5161
C6_6 C 0.87769(17) 0.15076(15) 0.8150(7)
C7_6 C 0.88848(16) 0.15680(16) 0.9976(7)
C10_6 C 0.80639(17) 0.10718(16) 0.8883(7)
H9_6 H 0.7792 0.0905 0.8511
C11_6 C 0.83786(17) 0.12649(16) 0.7591(7)
H10_6 H 0.8316 0.1227 0.6366
O5_5 O 0.72688(12) 0.72903(16) 0.0123(4)
H1_5 H 0.7292(14) 0.7394(18) 0.138(3)
H7_6 H 0.8270 0.7428 0.0340
C8_6 C 0.86281(15) 0.71891(23) 0.1249(7)
H8_6 H 0.8591 0.7214 0.2475
C9_6 C 0.88725(15) 0.70290(22) 0.0724(7)
C12_6 C 0.90676(16) 0.68892(25) 0.2102(8)
Cd2 Cd 0.604136(12) 0.990944(17) 0.79502(5)
O6_3 O 0.70007(15) 0.99324(10) 0.3732(5)
O1_5 O 0.62650(11) 0.96659(15) 0.0398(5)
O2_5 O 0.60898(11) 0.92524(15) 0.2778(4)
C1_7 C 0.55638(16) 0.93017(22) 0.1216(6)
C2_7 C 0.52079(17) 0.90381(25) 0.2184(7)
H3_7 H 0.5194 0.8896 0.3241
C3_7 C 0.48806(17) 0.90266(25) 0.1274(7)
C4_7 C 0.59984(17) 0.94181(23) 0.1513(8)
C5_7 C 0.44219(17) 0.87695(26) 0.1597(8)
H4_7 H 0.4278 0.8837 0.0710
H5_7 H 0.4358 0.8826 0.2782
H6_7 H 0.4338 0.8481 0.1505
H10_7 H 0.4561 0.9578 0.0300
Cd2_2 Cd 0.675722(17) 0.946525(21) 0.12836(5)
O3_3 O 0.43047(11) 0.97285(16) 0.2930(5)
O4_3 O 0.40855(11) 0.99692(16) 0.5122(5)
O5_6 O 0.60646(12) 0.93763(16) 0.6543(4)
H1_6 H 0.6042(14) 0.9272(18) 0.528(3)
H2_7 H 0.6216(14) 0.9267(17) 0.727(4)
N1_7 N 0.54723(13) 0.94655(18) 0.9781(6)
N2_7 N 0.50505(14) 0.92882(19) 0.9846(5)
C6_7 C 0.48410(15) 0.93974(23) 0.8516(7)
C7_7 C 0.49014(16) 0.93499(23) 0.6690(7)
H7_7 H 0.5064 0.9238 0.6326
C8_7 C 0.47053(15) 0.94775(23) 0.5417(7)
H8_7 H 0.4743 0.9452 0.4191
C9_7 C 0.44609(15) 0.96376(22) 0.5942(7)
C10_7 C 0.44052(16) 0.96746(23) 0.7783(7)
H9_7 H 0.4239 0.9780 0.8155
C11_7 C 0.45983(16) 0.95530(23) 0.9075(7)
C12_7 C 0.42658(16) 0.97774(25) 0.4564(8)
O3_4 O 0.20905(11) 0.90287(11) 0.6264(5)
O4_4 O 0.25504(12) 0.92479(11) 0.8456(5)
H7_8 H 0.0841 0.8270 0.9660
C8_8 C 0.14389(17) 0.86281(15) 0.8751(7)
H8_8 H 0.1376 0.8591 0.7525
C9_8 C 0.18434(16) 0.88725(15) 0.9276(7)
C12_8 C 0.21783(19) 0.90676(16) 0.7898(8)
Cd3_5 Cd 0.279858(12) 0.937469(12) 0.53831(5)
O9_5 O 0.07829(12) 0.74188(11) 0.8211(5)
N1_8 N 0.72011(18) 0.93401(13) 0.3115(6)
N2_8 N 0.73784(19) 0.90956(13) 0.3180(5)
C1_8 C 0.73649(22) 0.95954(15) 0.4550(6)
C2_8 C 0.76285(25) 0.95031(18) 0.5518(7)
H3_8 H 0.7770 0.9631 0.6575
C3_8 C 0.76400(25) 0.91873(18) 0.4608(7)
C4_8 C 0.72485(23) 0.99136(16) 0.4847(8)
C5_8 C 0.78971(26) 0.8986(2) 0.4931(8)
H4_8 H 0.7829 0.8774 0.4044
H5_8 H 0.7840 0.8865 0.6116
H6_8 H 0.8185 0.9190 0.4839
C6_8 C 0.72692(23) 0.87769(17) 0.1850(7)
C7_8 C 0.73167(23) 0.88848(16) 0.0024(7)
C10_8 C 0.69920(23) 0.80639(17) 0.1117(7)
H9_8 H 0.6886 0.7792 0.1489
C11_8 C 0.71136(23) 0.83786(17) 0.2409(7)
H10_8 H 0.7088 0.8316 0.3634
O8_5 O 0.63952(16) 0.87572(11) 0.0403(5)
O1_6 O 0.32657(10) 0.95983(11) 0.2935(5)
O2_6 O 0.35040(10) 0.94231(11) 0.0555(4)
O5_7 O 0.33549(11) 0.93979(12) 0.6790(4)
H1_7 H 0.3436(12) 0.9375(14) 0.805(3)
H2_8 H 0.3615(9) 0.9549(14) 0.606(4)
N1_9 N 0.26734(13) 0.88056(13) 0.3552(6)
N2_9 N 0.24289(13) 0.83838(14) 0.3487(5)
C1_9 C 0.29287(15) 0.88971(16) 0.2117(6)
C2_9 C 0.28364(18) 0.85412(17) 0.1149(7)
H3_9 H 0.2964 0.8527 0.0092
C3_9 C 0.25206(18) 0.82139(17) 0.2059(7)
C4_9 C 0.32469(16) 0.93317(17) 0.1820(8)
C5_9 C 0.2319(2) 0.77552(17) 0.1736(8)
H4_9 H 0.2107 0.7611 0.2623
H5_9 H 0.2198 0.7691 0.0551
H6_9 H 0.2523 0.7671 0.1828
C6_9 C 0.21102(17) 0.81743(15) 0.4817(7)
C7_9 C 0.22181(16) 0.82347(16) 0.6643(7)
H7_9 H 0.2492 0.8397 0.7007
C8_9 C 0.18944(17) 0.80386(15) 0.7916(7)
H8_9 H 0.1957 0.8076 0.9142
C9_9 C 0.14899(16) 0.77942(15) 0.7391(7)
C10_9 C 0.13972(17) 0.77385(16) 0.5550(7)
H9_9 H 0.1125 0.7572 0.5178
C11_9 C 0.17119(17) 0.79316(16) 0.4258(7)
H10_9 H 0.1649 0.7894 0.3033
C12_9 C 0.11550(19) 0.75991(16) 0.8769(8)
O7_3 O 0.25858(15) 0.98293(10) 0.3888(4)
H2_9 H 0.2601(17) 0.9718(9) 0.939(4)
Cd2_3 Cd 0.009056(17) 0.613191(21) 0.79502(5)
O6_4 O 0.00676(10) 0.70684(18) 0.3732(5)
O1_7 O 0.03341(15) 0.65990(10) 0.0398(5)
O2_7 O 0.07476(15) 0.68373(10) 0.2778(4)
C1_10 C 0.06983(22) 0.62620(15) 0.1216(6)
C2_10 C 0.09619(25) 0.61697(18) 0.2184(7)
H3_10 H 0.1104 0.6297 0.3241
C3_10 C 0.09734(25) 0.58539(18) 0.1274(7)
C4_10 C 0.05819(23) 0.65802(16) 0.1513(8)
C5_10 C 0.12305(26) 0.5652(2) 0.1597(8)
H4_10 H 0.1163 0.5440 0.0710
H5_10 H 0.1174 0.5531 0.2782
H6_10 H 0.1519 0.5856 0.1505
H10_10 H 0.0422 0.4982 0.0300
Cd2_4 Cd 0.053475(21) 0.729198(12) 0.12836(5)
O3_5 O 0.02715(16) 0.45761(11) 0.2930(5)
O4_5 O 0.00308(16) 0.41162(12) 0.5122(5)
O5_8 O 0.06237(16) 0.66882(11) 0.6543(4)
H1_8 H 0.0728(18) 0.6769(12) 0.528(3)
H2_10 H 0.0733(17) 0.6948(9) 0.727(4)
N1_10 N 0.05345(18) 0.60067(13) 0.9781(6)
N2_10 N 0.07118(19) 0.57622(13) 0.9846(5)
C6_10 C 0.06026(23) 0.54435(17) 0.8516(7)
C7_10 C 0.06501(23) 0.55514(16) 0.6690(7)
H7_10 H 0.0762 0.5825 0.6326
C8_10 C 0.05225(23) 0.52277(17) 0.5417(7)
H8_10 H 0.0548 0.5290 0.4191
C9_10 C 0.03624(22) 0.48232(16) 0.5942(7)
C10_10 C 0.03254(23) 0.47305(17) 0.7783(7)
H9_10 H 0.0220 0.4458 0.8155
C11_10 C 0.04470(23) 0.50452(17) 0.9075(7)
C12_10 C 0.02226(25) 0.44883(19) 0.4564(8)
N1_11 N 0.06599(13) 0.78611(13) 0.3115(6)
N2_11 N 0.09044(13) 0.82829(14) 0.3180(5)
C1_11 C 0.04046(15) 0.77696(16) 0.4550(6)
C2_11 C 0.04969(18) 0.81255(17) 0.5518(7)
H3_11 H 0.0369 0.8140 0.6575
C3_11 C 0.08127(18) 0.84528(17) 0.4608(7)
C4_11 C 0.00864(16) 0.73350(17) 0.4847(8)
C5_11 C 0.1014(2) 0.89115(17) 0.4931(8)
H4_11 H 0.1226 0.9056 0.4044
H5_11 H 0.1135 0.8976 0.6116
H6_11 H 0.0810 0.8996 0.4839
C6_11 C 0.12231(17) 0.84924(15) 0.1850(7)
C7_11 C 0.11152(16) 0.84320(16) 0.0024(7)
C10_11 C 0.19361(17) 0.89282(16) 0.1117(7)
H9_11 H 0.2208 0.9095 0.1489
C11_11 C 0.16214(17) 0.87351(16) 0.2409(7)
H10_11 H 0.1684 0.8773 0.3634
O8_6 O 0.12428(11) 0.76380(11) 0.0403(5)
O3_6 O 0.09713(11) 0.30619(16) 0.6264(5)
O4_6 O 0.07521(11) 0.33026(16) 0.8456(5)
O5_9 O 0.27312(12) 0.27097(16) 0.9877(4)
H1_9 H 0.2708(14) 0.2606(18) 0.862(3)
H7_11 H 0.1730 0.2572 0.9660
C8_11 C 0.13719(15) 0.28109(23) 0.8751(7)
H8_11 H 0.1409 0.2786 0.7525
C9_11 C 0.11275(15) 0.29710(22) 0.9276(7)
C12_11 C 0.09324(16) 0.31108(25) 0.7898(8)
Cd3_6 Cd 0.062531(12) 0.342389(17) 0.53831(5)
O9_6 O 0.25812(11) 0.33641(16) 0.8211(5)
O1_8 O 0.04017(11) 0.36674(15) 0.2935(5)
O2_8 O 0.05769(11) 0.40809(15) 0.0555(4)
O5_10 O 0.06021(12) 0.39570(16) 0.6790(4)
H1_10 H 0.0625(14) 0.4061(18) 0.805(3)
H2_11 H 0.0451(14) 0.4066(17) 0.606(4)
N1_12 N 0.11944(13) 0.38678(18) 0.3552(6)
N2_12 N 0.16162(14) 0.40451(19) 0.3487(5)
C1_12 C 0.11029(16) 0.40316(22) 0.2117(6)
C2_12 C 0.14588(17) 0.42952(25) 0.1149(7)
H3_12 H 0.1473 0.4437 0.0092
C3_12 C 0.17861(17) 0.43067(25) 0.2059(7)
C4_12 C 0.06683(17) 0.39152(23) 0.1820(8)
C5_12 C 0.22448(17) 0.45638(26) 0.1736(8)
H4_12 H 0.2389 0.4496 0.2623
H5_12 H 0.2309 0.4507 0.0551
H6_12 H 0.2329 0.4852 0.1828
C6_12 C 0.18257(15) 0.39359(23) 0.4817(7)
C7_12 C 0.17653(16) 0.39834(23) 0.6643(7)
H7_12 H 0.1603 0.4095 0.7007
C8_12 C 0.19614(15) 0.38558(23) 0.7916(7)
H8_12 H 0.1924 0.3881 0.9142
C9_12 C 0.22058(15) 0.36957(22) 0.7391(7)
C10_12 C 0.22615(16) 0.36587(23) 0.5550(7)
H9_12 H 0.2428 0.3553 0.5178
C11_12 C 0.20684(16) 0.37803(23) 0.4258(7)
H10_12 H 0.2106 0.3755 0.3033
C12_12 C 0.24009(16) 0.35559(25) 0.8769(8)
O7_4 O 0.01707(10) 0.27564(18) 0.3888(4)
H2_12 H 0.0282(9) 0.2882(14) 0.939(4)
O3_7 O 0.76380(11) 0.63952(16) 0.9597(5)
Cd3_7 Cd 0.729198(12) 0.675722(17) 0.87164(5)
Cd1_3 Cd 0.342389(17) 0.279858(12) 0.46169(5)
O1_9 O 0.36674(15) 0.32657(10) 0.7065(5)
O2_9 O 0.40809(15) 0.35040(10) 0.9445(4)
O4_7 O 0.33641(16) 0.07829(12) 0.1789(5)
O5_11 O 0.39570(16) 0.33549(11) 0.3210(4)
H1_11 H 0.4061(18) 0.3436(12) 0.195(3)
H2_13 H 0.4066(17) 0.3615(9) 0.394(4)
N1_13 N 0.38678(18) 0.26734(13) 0.6448(6)
N2_13 N 0.40451(19) 0.24289(13) 0.6513(5)
C1_13 C 0.40316(22) 0.29287(15) 0.7883(6)
C2_13 C 0.42952(25) 0.28364(18) 0.8851(7)
H3_13 H 0.4437 0.2964 0.9908
C3_13 C 0.43067(25) 0.25206(18) 0.7941(7)
C4_13 C 0.39152(23) 0.32469(16) 0.8180(8)
C5_13 C 0.45638(26) 0.2319(2) 0.8264(8)
H4_13 H 0.4496 0.2107 0.7377
H5_13 H 0.4507 0.2198 0.9449
H6_13 H 0.4852 0.2523 0.8172
C6_13 C 0.39359(23) 0.21102(17) 0.5183(7)
C7_13 C 0.39834(23) 0.22181(16) 0.3357(7)
H7_13 H 0.4095 0.2492 0.2993
C8_13 C 0.38558(23) 0.18944(17) 0.2084(7)
H8_13 H 0.3881 0.1957 0.0858
C9_13 C 0.36957(22) 0.14899(16) 0.2609(7)
C10_13 C 0.36587(23) 0.13972(17) 0.4450(7)
H9_13 H 0.3553 0.1125 0.4822
C11_13 C 0.37803(23) 0.17119(17) 0.5742(7)
H10_13 H 0.3755 0.1649 0.6967
C12_13 C 0.35559(25) 0.11550(19) 0.1231(8)
Cd2_5 Cd 0.386809(21) 0.395864(12) 0.79502(5)
O6_5 O 0.29316(18) 0.29993(15) 0.3732(5)
O7_5 O 0.27564(18) 0.25858(15) 0.6112(4)
O8_7 O 0.30619(16) 0.20905(11) 0.3736(5)
O9_7 O 0.33026(16) 0.25504(12) 0.1544(5)
O1_10 O 0.34010(10) 0.37350(11) 0.0398(5)
O2_10 O 0.31627(10) 0.39102(11) 0.2778(4)
C1_14 C 0.37380(15) 0.44362(16) 0.1216(6)
C2_14 C 0.38303(18) 0.47921(17) 0.2184(7)
H3_14 H 0.3703 0.4806 0.3241
C3_14 C 0.41461(18) 0.51194(17) 0.1274(7)
C4_14 C 0.34198(16) 0.40016(17) 0.1513(8)
C5_14 C 0.4348(2) 0.55781(17) 0.1597(8)
H4_14 H 0.4560 0.5722 0.0710
H5_14 H 0.4469 0.5642 0.2782
H6_14 H 0.4144 0.5662 0.1505
H10_14 H 0.5018 0.5439 0.0300
Cd2_6 Cd 0.270802(12) 0.324278(17) 0.12836(5)
O3_8 O 0.54239(11) 0.56953(11) 0.2930(5)
O4_8 O 0.58838(12) 0.59145(11) 0.5122(5)
O5_12 O 0.33118(11) 0.39354(12) 0.6543(4)
H1_12 H 0.3231(12) 0.3958(14) 0.528(3)
H2_14 H 0.3052(9) 0.3784(14) 0.727(4)
N1_14 N 0.39933(13) 0.45277(13) 0.9781(6)
N2_14 N 0.42378(13) 0.49495(14) 0.9846(5)
C6_14 C 0.45565(17) 0.51590(15) 0.8516(7)
C7_14 C 0.44486(16) 0.50986(16) 0.6690(7)
H7_14 H 0.4175 0.4936 0.6326
C8_14 C 0.47723(17) 0.52947(15) 0.5417(7)
H8_14 H 0.4710 0.5257 0.4191
C9_14 C 0.51768(16) 0.55391(15) 0.5942(7)
C10_14 C 0.52695(17) 0.55948(16) 0.7783(7)
H9_14 H 0.5542 0.5761 0.8155
C11_14 C 0.49548(17) 0.54017(16) 0.9075(7)
C12_14 C 0.55117(19) 0.57342(16) 0.4564(8)
Cd3_8 Cd 0.613191(12) 0.604136(12) 0.20498(5)
O8_8 O 0.45761(11) 0.43047(11) 0.7070(5)
O9_8 O 0.41162(12) 0.40855(11) 0.4878(5)
H2_15 H 0.2882(14) 0.2601(17) 0.061(4)
N1_15 N 0.21389(13) 0.27989(18) 0.3115(6)
N2_15 N 0.17171(14) 0.26216(19) 0.3180(5)
C1_15 C 0.22304(16) 0.26351(22) 0.4550(6)
C2_15 C 0.18745(17) 0.23715(25) 0.5518(7)
H3_15 H 0.1860 0.2230 0.6575
C3_15 C 0.15472(17) 0.23600(25) 0.4608(7)
C4_15 C 0.26650(17) 0.27515(23) 0.4847(8)
C5_15 C 0.10885(17) 0.21029(26) 0.4931(8)
H4_15 H 0.0944 0.2171 0.4044
H5_15 H 0.1024 0.2160 0.6116
H6_15 H 0.1004 0.1815 0.4839
C6_15 C 0.15076(15) 0.27308(23) 0.1850(7)
C7_15 C 0.15680(16) 0.26833(23) 0.0024(7)
C10_15 C 0.10718(16) 0.30080(23) 0.1117(7)
H9_15 H 0.0905 0.3114 0.1489
C11_15 C 0.12649(16) 0.28864(23) 0.2409(7)
H10_15 H 0.1227 0.2912 0.3634
O8_9 O 0.23620(11) 0.36048(16) 0.0403(5)
O3_9 O 0.69381(16) 0.79095(11) 0.6264(5)
O4_9 O 0.66974(16) 0.74496(12) 0.8456(5)
H7_15 H 0.7428 0.9159 0.9660
C8_15 C 0.71891(23) 0.85611(17) 0.8751(7)
H8_15 H 0.7214 0.8624 0.7525
C9_15 C 0.70290(22) 0.81566(16) 0.9276(7)
C12_15 C 0.68892(25) 0.78217(19) 0.7898(8)
Cd3_9 Cd 0.657611(17) 0.720142(12) 0.53831(5)
O9_9 O 0.66359(16) 0.92171(12) 0.8211(5)
O1_11 O 0.63326(15) 0.67343(10) 0.2935(5)
O2_11 O 0.59191(15) 0.64960(10) 0.0555(4)
O5_13 O 0.60430(16) 0.66451(11) 0.6790(4)
H1_13 H 0.5939(18) 0.6564(12) 0.805(3)
H2_16 H 0.5934(17) 0.6385(9) 0.606(4)
N1_16 N 0.61322(18) 0.73266(13) 0.3552(6)
N2_16 N 0.59549(19) 0.75711(13) 0.3487(5)
C1_16 C 0.59684(22) 0.70713(15) 0.2117(6)
C2_16 C 0.57048(25) 0.71636(18) 0.1149(7)
H3_16 H 0.5563 0.7036 0.0092
C3_16 C 0.56933(25) 0.74794(18) 0.2059(7)
C4_16 C 0.60848(23) 0.67531(16) 0.1820(8)
C5_16 C 0.54362(26) 0.7681(2) 0.1736(8)
H4_16 H 0.5504 0.7893 0.2623
H5_16 H 0.5493 0.7802 0.0551
H6_16 H 0.5148 0.7477 0.1828
C6_16 C 0.60641(23) 0.78898(17) 0.4817(7)
C7_16 C 0.60166(23) 0.77819(16) 0.6643(7)
H7_16 H 0.5905 0.7508 0.7007
C8_16 C 0.61442(23) 0.81056(17) 0.7916(7)
H8_16 H 0.6119 0.8043 0.9142
C9_16 C 0.63043(22) 0.85101(16) 0.7391(7)
C10_16 C 0.63413(23) 0.86028(17) 0.5550(7)
H9_16 H 0.6447 0.8875 0.5178
C11_16 C 0.62197(23) 0.82881(17) 0.4258(7)
H10_16 H 0.6245 0.8351 0.3033
C12_16 C 0.64441(25) 0.88450(19) 0.8769(8)
O6_6 O 0.70684(18) 0.70007(15) 0.6268(5)
O7_6 O 0.72436(18) 0.74142(15) 0.3888(4)
O5_14 O 0.66882(11) 0.60646(12) 0.3457(4)
H1_14 H 0.6769(12) 0.6042(14) 0.472(3)
H2_17 H 0.6948(9) 0.6216(14) 0.273(4)
N1_17 N 0.60067(13) 0.54723(13) 0.0219(6)
N2_17 N 0.57622(13) 0.50505(14) 0.0154(5)
C6_17 C 0.54435(17) 0.48410(15) 0.1484(7)
C7_17 C 0.55514(16) 0.49014(16) 0.3310(7)
H7_17 H 0.5825 0.5064 0.3674
C8_17 C 0.52277(17) 0.47053(15) 0.4583(7)
H8_17 H 0.5290 0.4743 0.5809
C9_17 C 0.48232(16) 0.44609(15) 0.4058(7)
C10_17 C 0.47305(17) 0.44052(16) 0.2217(7)
H9_17 H 0.4458 0.4239 0.1845
C11_17 C 0.50452(17) 0.45983(16) 0.0925(7)
C12_17 C 0.44883(19) 0.42658(16) 0.5436(8)
O1_12 O 0.65990(10) 0.62650(11) 0.9602(5)
O2_12 O 0.68373(10) 0.60898(11) 0.7222(4)
C1_17 C 0.62620(15) 0.55638(16) 0.8784(6)
C2_17 C 0.61697(18) 0.52079(17) 0.7816(7)
H3_17 H 0.6297 0.5194 0.6759
C3_17 C 0.58539(18) 0.48806(17) 0.8726(7)
C4_17 C 0.65802(16) 0.59984(17) 0.8487(8)
C5_17 C 0.5652(2) 0.44219(17) 0.8403(8)
H4_17 H 0.5440 0.4278 0.9290
H5_17 H 0.5531 0.4358 0.7218
H6_17 H 0.5856 0.4338 0.8495
H10_17 H 0.4982 0.4561 0.9700
H2_18 H 0.7118(14) 0.7399(17) 0.939(4)
N1_18 N 0.78611(13) 0.72011(18) 0.6885(6)
N2_18 N 0.82829(14) 0.73784(19) 0.6820(5)
C1_18 C 0.77696(16) 0.73649(22) 0.5450(6)
C2_18 C 0.81255(17) 0.76285(25) 0.4482(7)
H3_18 H 0.8140 0.7770 0.3425
C3_18 C 0.84528(17) 0.76400(25) 0.5392(7)
C4_18 C 0.73350(17) 0.72485(23) 0.5153(8)
C5_18 C 0.89115(17) 0.78971(26) 0.5069(8)
H4_18 H 0.9056 0.7829 0.5956
H5_18 H 0.8976 0.7840 0.3884
H6_18 H 0.8996 0.8185 0.5161
C6_18 C 0.84924(15) 0.72692(23) 0.8150(7)
C7_18 C 0.84320(16) 0.73167(23) 0.9976(7)
C10_18 C 0.89282(16) 0.69920(23) 0.8883(7)
H9_18 H 0.9095 0.6886 0.8511
C11_18 C 0.87351(16) 0.71136(23) 0.7591(7)
H10_18 H 0.8773 0.7088 0.6366
H7_18 H 0.2572 0.0841 0.0340
C8_18 C 0.28109(23) 0.14389(17) 0.1249(7)
H8_18 H 0.2786 0.1376 0.2475
C9_18 C 0.29710(22) 0.18434(16) 0.0724(7)
C12_18 C 0.31108(25) 0.21783(19) 0.2102(8)
O5_15 O 0.99784(11) 0.72688(12) 0.9877(4)
H1_15 H 0.9897(12) 0.7292(14) 0.862(3)
O5_16 O 0.72903(16) 0.00216(11) 0.9877(4)
H1_16 H 0.7394(18) 0.0103(12) 0.862(3)
O5_17 O 0.00216(11) 0.27312(12) 0.0123(4)
H1_17 H 0.0103(12) 0.2708(14) 0.138(3)
O5_18 O 0.27097(16) 0.99784(11) 0.0123(4)
H1_18 H 0.2606(18) 0.9897(12) 0.138(3)
loop_
_geom_bond_atom_site_label_1
_geom_bond_atom_site_label_2
_geom_bond_site_symmetry_1
_geom_bond_site_symmetry_2
Cd1 O1 1_555 1_555
O1 C4 1_555 1_555
O2 C4 1_555 1_555
O4 C12 1_555 1_555
O5 Cd1 1_555 1_555
H1 O5 1_555 1_555
H2 O5 1_555 1_555
N1 Cd1 1_555 1_555
N2 N1 1_555 1_555
C1 N1 1_555 1_555
C2 C1 1_555 1_555
H3 C2 1_555 1_555
C3 N2 1_555 1_555
C4 C1 1_555 1_555
C5 C3 1_555 1_555
H4 C5 1_555 1_555
H5 C5 1_555 1_555
H6 C5 1_555 1_555
C6 N2 1_555 1_555
C7 C6 1_555 1_555
H7 C7 1_555 1_555
C8 C7 1_555 1_555
H8 C8 1_555 1_555
C9 C8 1_555 1_555
C10 C9 1_555 1_555
H9 C10 1_555 1_555
C11 C6 1_555 1_555
H10 C11 1_555 1_555
C12 C9 1_555 1_555
O7 Cd1 1_555 1_555
O8 Cd1 1_555 1_555
O9 Cd1 1_555 1_555
C2 C3 1_555 1_555
C10 C11 1_555 1_555
Cd3 O3 1_555 1_555
O8_2 C12_2 1_555 1_555
O9_2 C12_2 1_555 1_555
O5_2 Cd3_2 1_555 1_555
H1_2 O5_2 1_555 1_555
H2_3 O5_2 1_555 1_555
N1_2 Cd3_2 1_555 1_555
N2_2 N1_2 1_555 1_555
C6_2 N2_2 1_555 1_555
C7_2 C6_2 1_555 1_555
H7_2 C7_2 1_555 1_555
C8_2 C7_2 1_555 1_555
H8_2 C8_2 1_555 1_555
C9_2 C8_2 1_555 1_555
C10_2 C9_2 1_555 1_555
H9_2 C10_2 1_555 1_555
C11_2 C6_2 1_555 1_555
C12_2 C9_2 1_555 1_555
C10_2 C11_2 1_555 1_555
O1_2 C4_2 1_555 1_555
O2_2 C4_2 1_555 1_555
C2_2 C1_2 1_555 1_555
H3_2 C2_2 1_555 1_555
C4_2 C1_2 1_555 1_555
C5_2 C3_2 1_555 1_555
H4_2 C5_2 1_555 1_555
H5_2 C5_2 1_555 1_555
H6_2 C5_2 1_555 1_555
Cd3 O1_2 1_555 1_555
O2_2 Cd3 1_555 1_555
C2_2 C3_2 1_555 1_555
O8 C12_3 1_555 1_555
O9 C12_3 1_555 1_555
H8_3 C8_3 1_555 1_555
C9_3 C8_3 1_555 1_555
C12_3 C9_3 1_555 1_555
Cd3 O6 1_555 1_555
O6 C4_3 1_555 1_555
N1_3 Cd3 1_555 1_555
N2_3 N1_3 1_555 1_555
C1_3 N1_3 1_555 1_555
C2_3 C1_3 1_555 1_555
H3_3 C2_3 1_555 1_555
C3_3 N2_3 1_555 1_555
C4_3 C1_3 1_555 1_555
C5_3 C3_3 1_555 1_555
H4_3 C5_3 1_555 1_555
H5_3 C5_3 1_555 1_555
H6_3 C5_3 1_555 1_555
C6_3 N2_3 1_555 1_555
C7_3 C6_3 1_555 1_555
H9_3 C10_3 1_555 1_555
C11_3 C6_3 1_555 1_555
H10_3 C11_3 1_555 1_555
C2_3 C3_3 1_555 1_555
C10_3 C11_3 1_555 1_555
Cd3_3 O3_2 1_555 1_555
Cd1_2 O1_3 1_555 1_555
O1_3 C4_4 1_555 1_555
O2_3 C4_4 1_555 1_555
O4_2 C12_4 1_555 1_555
O5_3 Cd1_2 1_555 1_555
H1_3 O5_3 1_555 1_555
H2_4 O5_3 1_555 1_555
N1_4 Cd1_2 1_555 1_555
N2_4 N1_4 1_555 1_555
C1_4 N1_4 1_555 1_555
C2_4 C1_4 1_555 1_555
H3_4 C2_4 1_555 1_555
C3_4 N2_4 1_555 1_555
C4_4 C1_4 1_555 1_555
C5_4 C3_4 1_555 1_555
H4_4 C5_4 1_555 1_555
H5_4 C5_4 1_555 1_555
H6_4 C5_4 1_555 1_555
C6_4 N2_4 1_555 1_555
C7_4 C6_4 1_555 1_555
H7_4 C7_4 1_555 1_555
C8_4 C7_4 1_555 1_555
H8_4 C8_4 1_555 1_555
C9_4 C8_4 1_555 1_555
C10_4 C9_4 1_555 1_555
H9_4 C10_4 1_555 1_555
C11_4 C6_4 1_555 1_555
H10_4 C11_4 1_555 1_555
C12_4 C9_4 1_555 1_555
O7_2 Cd1_2 1_555 1_555
O8_3 Cd1_2 1_555 1_555
O9_3 Cd1_2 1_555 1_555
C2_4 C3_4 1_555 1_555
C10_4 C11_4 1_555 1_555
O8_4 C12_5 1_555 1_555
O9_4 C12_5 1_555 1_555
O5_4 Cd3_4 1_555 1_555
H1_4 O5_4 1_555 1_555
H2_6 O5_4 1_555 1_555
N1_5 Cd3_4 1_555 1_555
N2_5 N1_5 1_555 1_555
C6_5 N2_5 1_555 1_555
C7_5 C6_5 1_555 1_555
H7_5 C7_5 1_555 1_555
C8_5 C7_5 1_555 1_555
H8_5 C8_5 1_555 1_555
C9_5 C8_5 1_555 1_555
C10_5 C9_5 1_555 1_555
H9_5 C10_5 1_555 1_555
C11_5 C6_5 1_555 1_555
C12_5 C9_5 1_555 1_555
C10_5 C11_5 1_555 1_555
O1_4 C4_5 1_555 1_555
O2_4 C4_5 1_555 1_555
C2_5 C1_5 1_555 1_555
H3_5 C2_5 1_555 1_555
C4_5 C1_5 1_555 1_555
C5_5 C3_5 1_555 1_555
H4_5 C5_5 1_555 1_555
H5_5 C5_5 1_555 1_555
H6_5 C5_5 1_555 1_555
Cd3_3 O1_4 1_555 1_555
O2_4 Cd3_3 1_555 1_555
C2_5 C3_5 1_555 1_555
Cd3_3 O6_2 1_555 1_555
O6_2 C4_6 1_555 1_555
N1_6 Cd3_3 1_555 1_555
N2_6 N1_6 1_555 1_555
C1_6 N1_6 1_555 1_555
C2_6 C1_6 1_555 1_555
H3_6 C2_6 1_555 1_555
C3_6 N2_6 1_555 1_555
C4_6 C1_6 1_555 1_555
C5_6 C3_6 1_555 1_555
H4_6 C5_6 1_555 1_555
H5_6 C5_6 1_555 1_555
H6_6 C5_6 1_555 1_555
C6_6 N2_6 1_555 1_555
C7_6 C6_6 1_555 1_555
H9_6 C10_6 1_555 1_555
C11_6 C6_6 1_555 1_555
H10_6 C11_6 1_555 1_555
C2_6 C3_6 1_555 1_555
C10_6 C11_6 1_555 1_555
O8_3 C12_6 1_555 1_555
O9_3 C12_6 1_555 1_555
H1_5 O5_5 1_555 1_555
H8_6 C8_6 1_555 1_555
C9_6 C8_6 1_555 1_555
C12_6 C9_6 1_555 1_555
O1_5 C4_7 1_555 1_555
O2_5 C4_7 1_555 1_555
C2_7 C1_7 1_555 1_555
H3_7 C2_7 1_555 1_555
C4_7 C1_7 1_555 1_555
C5_7 C3_7 1_555 1_555
H4_7 C5_7 1_555 1_555
H5_7 C5_7 1_555 1_555
H6_7 C5_7 1_555 1_555
Cd2_2 O1_5 1_555 1_555
O2_5 Cd2_2 1_555 1_555
C2_7 C3_7 1_555 1_555
O3_3 C12_7 1_555 1_555
O4_3 C12_7 1_555 1_555
O5_6 Cd2 1_555 1_555
H1_6 O5_6 1_555 1_555
H2_7 O5_6 1_555 1_555
N1_7 Cd2 1_555 1_555
N2_7 N1_7 1_555 1_555
C6_7 N2_7 1_555 1_555
C7_7 C6_7 1_555 1_555
H7_7 C7_7 1_555 1_555
C8_7 C7_7 1_555 1_555
H8_7 C8_7 1_555 1_555
C9_7 C8_7 1_555 1_555
C10_7 C9_7 1_555 1_555
H9_7 C10_7 1_555 1_555
C11_7 C6_7 1_555 1_555
C12_7 C9_7 1_555 1_555
C10_7 C11_7 1_555 1_555
O3_4 C12_8 1_555 1_555
O4_4 C12_8 1_555 1_555
H8_8 C8_8 1_555 1_555
C9_8 C8_8 1_555 1_555
C12_8 C9_8 1_555 1_555
Cd3_5 O3_4 1_555 1_555
O4_4 Cd3_5 1_555 1_555
Cd2_2 O6_3 1_555 1_555
O6_3 C4_8 1_555 1_555
N1_8 Cd2_2 1_555 1_555
N2_8 N1_8 1_555 1_555
C1_8 N1_8 1_555 1_555
C2_8 C1_8 1_555 1_555
H3_8 C2_8 1_555 1_555
C3_8 N2_8 1_555 1_555
C4_8 C1_8 1_555 1_555
C5_8 C3_8 1_555 1_555
H4_8 C5_8 1_555 1_555
H5_8 C5_8 1_555 1_555
H6_8 C5_8 1_555 1_555
C6_8 N2_8 1_555 1_555
C7_8 C6_8 1_555 1_555
H9_8 C10_8 1_555 1_555
C11_8 C6_8 1_555 1_555
H10_8 C11_8 1_555 1_555
O8_5 Cd2_2 1_555 1_555
C2_8 C3_8 1_555 1_555
C10_8 C11_8 1_555 1_555
Cd3_5 O1_6 1_555 1_555
O1_6 C4_9 1_555 1_555
O2_6 C4_9 1_555 1_555
O9_5 C12_9 1_555 1_555
O5_7 Cd3_5 1_555 1_555
H1_7 O5_7 1_555 1_555
H2_8 O5_7 1_555 1_555
N1_9 Cd3_5 1_555 1_555
N2_9 N1_9 1_555 1_555
C1_9 N1_9 1_555 1_555
C2_9 C1_9 1_555 1_555
H3_9 C2_9 1_555 1_555
C3_9 N2_9 1_555 1_555
C4_9 C1_9 1_555 1_555
C5_9 C3_9 1_555 1_555
H4_9 C5_9 1_555 1_555
H5_9 C5_9 1_555 1_555
H6_9 C5_9 1_555 1_555
C6_9 N2_9 1_555 1_555
C7_9 C6_9 1_555 1_555
H7_9 C7_9 1_555 1_555
C8_9 C7_9 1_555 1_555
H8_9 C8_9 1_555 1_555
C9_9 C8_9 1_555 1_555
C10_9 C9_9 1_555 1_555
H9_9 C10_9 1_555 1_555
C11_9 C6_9 1_555 1_555
H10_9 C11_9 1_555 1_555
C12_9 C9_9 1_555 1_555
O7_3 Cd3_5 1_555 1_555
C2_9 C3_9 1_555 1_555
C10_9 C11_9 1_555 1_555
O1_7 C4_10 1_555 1_555
O2_7 C4_10 1_555 1_555
C2_10 C1_10 1_555 1_555
H3_10 C2_10 1_555 1_555
C4_10 C1_10 1_555 1_555
C5_10 C3_10 1_555 1_555
H4_10 C5_10 1_555 1_555
H5_10 C5_10 1_555 1_555
H6_10 C5_10 1_555 1_555
Cd2_4 O1_7 1_555 1_555
O2_7 Cd2_4 1_555 1_555
C2_10 C3_10 1_555 1_555
O3_5 C12_10 1_555 1_555
O4_5 C12_10 1_555 1_555
O5_8 Cd2_3 1_555 1_555
H1_8 O5_8 1_555 1_555
H2_10 O5_8 1_555 1_555
N1_10 Cd2_3 1_555 1_555
N2_10 N1_10 1_555 1_555
C6_10 N2_10 1_555 1_555
C7_10 C6_10 1_555 1_555
H7_10 C7_10 1_555 1_555
C8_10 C7_10 1_555 1_555
H8_10 C8_10 1_555 1_555
C9_10 C8_10 1_555 1_555
C10_10 C9_10 1_555 1_555
H9_10 C10_10 1_555 1_555
C11_10 C6_10 1_555 1_555
C12_10 C9_10 1_555 1_555
C10_10 C11_10 1_555 1_555
Cd2_4 O6_4 1_555 1_555
O6_4 C4_11 1_555 1_555
N1_11 Cd2_4 1_555 1_555
N2_11 N1_11 1_555 1_555
C1_11 N1_11 1_555 1_555
C2_11 C1_11 1_555 1_555
H3_11 C2_11 1_555 1_555
C3_11 N2_11 1_555 1_555
C4_11 C1_11 1_555 1_555
C5_11 C3_11 1_555 1_555
H4_11 C5_11 1_555 1_555
H5_11 C5_11 1_555 1_555
H6_11 C5_11 1_555 1_555
C6_11 N2_11 1_555 1_555
C7_11 C6_11 1_555 1_555
H9_11 C10_11 1_555 1_555
C11_11 C6_11 1_555 1_555
H10_11 C11_11 1_555 1_555
O8_6 Cd2_4 1_555 1_555
C2_11 C3_11 1_555 1_555
C10_11 C11_11 1_555 1_555
O3_6 C12_11 1_555 1_555
O4_6 C12_11 1_555 1_555
H1_9 O5_9 1_555 1_555
H8_11 C8_11 1_555 1_555
C9_11 C8_11 1_555 1_555
C12_11 C9_11 1_555 1_555
Cd3_6 O3_6 1_555 1_555
O4_6 Cd3_6 1_555 1_555
Cd3_6 O1_8 1_555 1_555
O1_8 C4_12 1_555 1_555
O2_8 C4_12 1_555 1_555
O9_6 C12_12 1_555 1_555
O5_10 Cd3_6 1_555 1_555
H1_10 O5_10 1_555 1_555
H2_11 O5_10 1_555 1_555
N1_12 Cd3_6 1_555 1_555
N2_12 N1_12 1_555 1_555
C1_12 N1_12 1_555 1_555
C2_12 C1_12 1_555 1_555
H3_12 C2_12 1_555 1_555
C3_12 N2_12 1_555 1_555
C4_12 C1_12 1_555 1_555
C5_12 C3_12 1_555 1_555
H4_12 C5_12 1_555 1_555
H5_12 C5_12 1_555 1_555
H6_12 C5_12 1_555 1_555
C6_12 N2_12 1_555 1_555
C7_12 C6_12 1_555 1_555
H7_12 C7_12 1_555 1_555
C8_12 C7_12 1_555 1_555
H8_12 C8_12 1_555 1_555
C9_12 C8_12 1_555 1_555
C10_12 C9_12 1_555 1_555
H9_12 C10_12 1_555 1_555
C11_12 C6_12 1_555 1_555
H10_12 C11_12 1_555 1_555
C12_12 C9_12 1_555 1_555
O7_4 Cd3_6 1_555 1_555
C2_12 C3_12 1_555 1_555
C10_12 C11_12 1_555 1_555
Cd3_7 O3_7 1_555 1_555
Cd1_3 O1_9 1_555 1_555
O1_9 C4_13 1_555 1_555
O2_9 C4_13 1_555 1_555
O4_7 C12_13 1_555 1_555
O5_11 Cd1_3 1_555 1_555
H1_11 O5_11 1_555 1_555
H2_13 O5_11 1_555 1_555
N1_13 Cd1_3 1_555 1_555
N2_13 N1_13 1_555 1_555
C1_13 N1_13 1_555 1_555
C2_13 C1_13 1_555 1_555
H3_13 C2_13 1_555 1_555
C3_13 N2_13 1_555 1_555
C4_13 C1_13 1_555 1_555
C5_13 C3_13 1_555 1_555
H4_13 C5_13 1_555 1_555
H5_13 C5_13 1_555 1_555
H6_13 C5_13 1_555 1_555
C6_13 N2_13 1_555 1_555
C7_13 C6_13 1_555 1_555
H7_13 C7_13 1_555 1_555
C8_13 C7_13 1_555 1_555
H8_13 C8_13 1_555 1_555
C9_13 C8_13 1_555 1_555
C10_13 C9_13 1_555 1_555
H9_13 C10_13 1_555 1_555
C11_13 C6_13 1_555 1_555
H10_13 C11_13 1_555 1_555
C12_13 C9_13 1_555 1_555
Cd2_5 O1_9 1_555 1_555
O6_5 Cd1_3 1_555 1_555
O7_5 Cd1_3 1_555 1_555
O8_7 Cd1_3 1_555 1_555
O9_7 Cd1_3 1_555 1_555
O2_9 Cd2_5 1_555 1_555
C2_13 C3_13 1_555 1_555
C10_13 C11_13 1_555 1_555
O1_10 C4_14 1_555 1_555
O2_10 C4_14 1_555 1_555
C2_14 C1_14 1_555 1_555
H3_14 C2_14 1_555 1_555
C4_14 C1_14 1_555 1_555
C5_14 C3_14 1_555 1_555
H4_14 C5_14 1_555 1_555
H5_14 C5_14 1_555 1_555
H6_14 C5_14 1_555 1_555
Cd2_6 O1_10 1_555 1_555
O2_10 Cd2_6 1_555 1_555
C2_14 C3_14 1_555 1_555
O3_8 C12_14 1_555 1_555
O4_8 C12_14 1_555 1_555
O5_12 Cd2_5 1_555 1_555
H1_12 O5_12 1_555 1_555
H2_14 O5_12 1_555 1_555
N1_14 Cd2_5 1_555 1_555
N2_14 N1_14 1_555 1_555
C6_14 N2_14 1_555 1_555
C7_14 C6_14 1_555 1_555
H7_14 C7_14 1_555 1_555
C8_14 C7_14 1_555 1_555
H8_14 C8_14 1_555 1_555
C9_14 C8_14 1_555 1_555
C10_14 C9_14 1_555 1_555
H9_14 C10_14 1_555 1_555
C11_14 C6_14 1_555 1_555
C12_14 C9_14 1_555 1_555
Cd3_8 O3_8 1_555 1_555
O8_8 Cd2_5 1_555 1_555
O9_8 Cd2_5 1_555 1_555
O4_8 Cd3_8 1_555 1_555
C10_14 C11_14 1_555 1_555
Cd2_6 O6_5 1_555 1_555
O6_5 C4_15 1_555 1_555
O7_5 C4_15 1_555 1_555
N1_15 Cd2_6 1_555 1_555
N2_15 N1_15 1_555 1_555
C1_15 N1_15 1_555 1_555
C2_15 C1_15 1_555 1_555
H3_15 C2_15 1_555 1_555
C3_15 N2_15 1_555 1_555
C4_15 C1_15 1_555 1_555
C5_15 C3_15 1_555 1_555
H4_15 C5_15 1_555 1_555
H5_15 C5_15 1_555 1_555
H6_15 C5_15 1_555 1_555
C6_15 N2_15 1_555 1_555
C7_15 C6_15 1_555 1_555
H9_15 C10_15 1_555 1_555
C11_15 C6_15 1_555 1_555
H10_15 C11_15 1_555 1_555
O8_9 Cd2_6 1_555 1_555
C2_15 C3_15 1_555 1_555
C10_15 C11_15 1_555 1_555
O3_9 C12_15 1_555 1_555
O4_9 C12_15 1_555 1_555
H8_15 C8_15 1_555 1_555
C9_15 C8_15 1_555 1_555
C12_15 C9_15 1_555 1_555
Cd3_9 O3_9 1_555 1_555
O4_9 Cd3_9 1_555 1_555
Cd3_9 O1_11 1_555 1_555
O1_11 C4_16 1_555 1_555
O2_11 C4_16 1_555 1_555
O9_9 C12_16 1_555 1_555
O5_13 Cd3_9 1_555 1_555
H1_13 O5_13 1_555 1_555
H2_16 O5_13 1_555 1_555
N1_16 Cd3_9 1_555 1_555
N2_16 N1_16 1_555 1_555
C1_16 N1_16 1_555 1_555
C2_16 C1_16 1_555 1_555
H3_16 C2_16 1_555 1_555
C3_16 N2_16 1_555 1_555
C4_16 C1_16 1_555 1_555
C5_16 C3_16 1_555 1_555
H4_16 C5_16 1_555 1_555
H5_16 C5_16 1_555 1_555
H6_16 C5_16 1_555 1_555
C6_16 N2_16 1_555 1_555
C7_16 C6_16 1_555 1_555
H7_16 C7_16 1_555 1_555
C8_16 C7_16 1_555 1_555
H8_16 C8_16 1_555 1_555
C9_16 C8_16 1_555 1_555
C10_16 C9_16 1_555 1_555
H9_16 C10_16 1_555 1_555
C11_16 C6_16 1_555 1_555
H10_16 C11_16 1_555 1_555
C12_16 C9_16 1_555 1_555
Cd3_8 O1_11 1_555 1_555
O6_6 Cd3_9 1_555 1_555
O7_6 Cd3_9 1_555 1_555
O2_11 Cd3_8 1_555 1_555
C2_16 C3_16 1_555 1_555
C10_16 C11_16 1_555 1_555
O8_8 C12_17 1_555 1_555
O9_8 C12_17 1_555 1_555
O5_14 Cd3_8 1_555 1_555
H1_14 O5_14 1_555 1_555
H2_17 O5_14 1_555 1_555
N1_17 Cd3_8 1_555 1_555
N2_17 N1_17 1_555 1_555
C6_17 N2_17 1_555 1_555
C7_17 C6_17 1_555 1_555
H7_17 C7_17 1_555 1_555
C8_17 C7_17 1_555 1_555
H8_17 C8_17 1_555 1_555
C9_17 C8_17 1_555 1_555
C10_17 C9_17 1_555 1_555
H9_17 C10_17 1_555 1_555
C11_17 C6_17 1_555 1_555
C12_17 C9_17 1_555 1_555
C10_17 C11_17 1_555 1_555
O1_12 C4_17 1_555 1_555
O2_12 C4_17 1_555 1_555
C2_17 C1_17 1_555 1_555
H3_17 C2_17 1_555 1_555
C4_17 C1_17 1_555 1_555
C5_17 C3_17 1_555 1_555
H4_17 C5_17 1_555 1_555
H5_17 C5_17 1_555 1_555
H6_17 C5_17 1_555 1_555
Cd3_7 O1_12 1_555 1_555
O2_12 Cd3_7 1_555 1_555
C2_17 C3_17 1_555 1_555
Cd3_7 O6_6 1_555 1_555
O6_6 C4_18 1_555 1_555
O7_6 C4_18 1_555 1_555
N1_18 Cd3_7 1_555 1_555
N2_18 N1_18 1_555 1_555
C1_18 N1_18 1_555 1_555
C2_18 C1_18 1_555 1_555
H3_18 C2_18 1_555 1_555
C3_18 N2_18 1_555 1_555
C4_18 C1_18 1_555 1_555
C5_18 C3_18 1_555 1_555
H4_18 C5_18 1_555 1_555
H5_18 C5_18 1_555 1_555
H6_18 C5_18 1_555 1_555
C6_18 N2_18 1_555 1_555
C7_18 C6_18 1_555 1_555
H9_18 C10_18 1_555 1_555
C11_18 C6_18 1_555 1_555
H10_18 C11_18 1_555 1_555
C2_18 C3_18 1_555 1_555
C10_18 C11_18 1_555 1_555
O8_7 C12_18 1_555 1_555
O9_7 C12_18 1_555 1_555
H8_18 C8_18 1_555 1_555
C9_18 C8_18 1_555 1_555
C12_18 C9_18 1_555 1_555
H1_15 O5_15 1_555 1_555
H1_16 O5_16 1_555 1_555
H1_17 O5_17 1_555 1_555
H1_18 O5_18 1_555 1_555

#END
