
###############################################################################
#
# This file contains modified crystal structure data generated from the
# MOF subset of the Cambridge Structural Database (CSD) v543 
# hosted by the Cambridge Crystallographic Data Centre (CCDC).
#
# This work is licensed under the Creative Commons
# Attribution-NonCommercial-ShareAlike 4.0 International License.
# To view a copy of this license, visit
# http://creativecommons.org/licenses/by-nc-sa/4.0/
# or send a letter to
# Creative Commons, PO Box 1866, Mountain View, CA 94042, USA.
#
# CIF created using the CSD Python API on 29 September 2022
# The structure has been converted into the P1 space group
# The structure has a 3D framework
# The original CSD entry NIHBEM01 is in the monoclinic crystal system
# The framework has been calculated to contain at least 10.0% void space
# The void calculation uses a probe of radius 1.32A, grid spacing 0.4
#
###############################################################################

data_NIHBEM01
_chemical_formula_moiety         '(C24 H24 Fe20 O48)n'
_symmetry_cell_setting           triclinic
_symmetry_space_group_name_H-M   'P 1'
_symmetry_Int_Tables_number      1
_space_group_name_Hall           'P 1'
loop_
_symmetry_equiv_pos_site_id
_symmetry_equiv_pos_as_xyz
1 x,y,z
_cell_length_a                   11.3390(3)
_cell_length_b                   9.9023(2)
_cell_length_c                   18.5536(5)
_cell_angle_alpha                90
_cell_angle_beta                 126.7070(10)
_cell_angle_gamma                90
_cell_volume                     1670.14
loop_
_atom_site_label
_atom_site_type_symbol
_atom_site_fract_x
_atom_site_fract_y
_atom_site_fract_z
Fe14 Fe 0.0000 0.0000 0.0000
Fe14_2 Fe -0.0000 0.0000 1.0000
Fe14_3 Fe 0.0000 1.0000 0.0000
Fe14_4 Fe 0.0000 1.0000 1.0000
Fe1 Fe 0.37879(4) 0.07931(4) 0.13363(2)
Fe3 Fe 0.5000 0.0000 0.0000
O1 O 0.4374(2) 0.19834(17) 0.24741(12)
O2 O 0.5541(2) 0.05995(18) 0.36693(13)
O5 O 0.4605(2) 0.25773(17) 0.11192(12)
O6 O 0.4917(2) 0.21035(19) 0.00630(13)
O11 O 0.16508(19) 0.15703(17) 0.06256(12)
O12 O 0.2028(2) 0.37776(17) 0.09707(13)
C1 C 0.4987(3) 0.1705(3) 0.32976(19)
C3 C 0.4837(3) 0.2894(3) 0.05490(19)
C6 C 0.1235(3) 0.2794(3) 0.05442(19)
H1 H 0.504(3) 0.243(3) 0.3691(17)
H3 H 0.499(3) 0.387(3) 0.051(2)
H6 H 0.020(4) 0.291(3) 0.011(2)
Fe7 Fe 0.62121(4) 0.57931(4) 0.36637(2)
Fe9 Fe 0.42897(4) 0.38923(4) 0.19097(2)
Fe12 Fe 0.57103(4) 0.88923(4) 0.30903(2)
Fe13 Fe 0.5000 0.5000 0.5000
Fe14_5 Fe 1.0000 0.0000 0.0000
O15 O 0.5626(2) 0.69834(17) 0.25259(12)
O17 O 0.4459(2) 0.55995(18) 0.13307(13)
O19 O 0.4078(2) 0.49435(17) 0.28286(12)
O21 O 0.3184(2) 0.4897(2) 0.36202(13)
O26 O 0.6552(2) 0.41382(17) 0.30592(12)
O29 O 0.8886(2) 0.11017(19) 0.03857(14)
C7 C 0.5013(3) 0.6705(3) 0.17024(19)
C9 C 0.3055(3) 0.4790(3) 0.2909(2)
C11 C 0.7756(3) 0.1008(3) 0.0326(2)
H7 H 0.496(3) 0.743(3) 0.1309(17)
H9 H 0.202(3) 0.464(3) 0.233(2)
H11 H 0.765(3) 0.152(3) 0.0693(19)
Fe2 Fe 0.42897(4) 0.11077(4) 0.69097(2)
Fe3_2 Fe 0.5000 0.0000 1.0000
Fe14_6 Fe 1.0000 0.0000 1.0000
O14 O 0.4374(2) 0.30166(17) 0.74741(12)
O18 O 0.4078(2) 0.00565(17) 0.78286(12)
O20 O 0.3184(2) 0.0103(2) 0.86202(13)
O23 O 0.4605(2) 0.24227(17) 0.61192(12)
O25 O 0.6552(2) 0.08618(17) 0.80592(12)
O28 O 0.6638(2) 0.02586(18) 0.97739(13)
O33 O 0.2028(2) 0.12224(17) 0.59707(13)
C8 C 0.3055(3) 0.0210(3) 0.7909(2)
H8 H 0.202(3) 0.036(3) 0.733(2)
Fe3_3 Fe 0.5000 1.0000 0.0000
O3 O 0.5922(2) 0.99435(17) 0.21714(12)
O4 O 0.6816(2) 0.9897(2) 0.13798(13)
O7 O 0.3448(2) 0.91382(17) 0.19408(12)
O8 O 0.1025(2) 0.88881(19) 0.12003(14)
O9 O 0.3362(2) 0.97414(18) 0.02261(13)
C2 C 0.6945(3) 0.9790(3) 0.2091(2)
C4 C 0.2314(3) 0.8630(3) 0.1817(2)
H2 H 0.798(3) 0.964(3) 0.267(2)
H4 H 0.242(3) 0.786(3) 0.217(2)
Fe14_7 Fe 1.0000 1.0000 0.0000
Fe3_4 Fe 0.5000 1.0000 1.0000
O10 O 0.1114(2) 0.88983(19) 0.96143(14)
C5 C 0.2244(3) 0.8992(3) 0.9674(2)
H5 H 0.235(3) 0.848(3) 0.9307(19)
Fe5 Fe 0.62121(4) 0.92069(4) 0.86637(2)
Fe10 Fe 0.57103(4) 0.61077(4) 0.80903(2)
Fe14_8 Fe 1.0000 1.0000 1.0000
O13 O 0.5626(2) 0.80166(17) 0.75259(12)
O16 O 0.4459(2) 0.94005(18) 0.63307(13)
O22 O 0.5395(2) 0.74227(17) 0.88808(12)
O24 O 0.5083(2) 0.78965(19) 0.99370(13)
O32 O 0.83492(19) 0.84297(17) 0.93744(12)
C10 C 0.5163(3) 0.7106(3) 0.94510(19)
H10 H 0.501(3) 0.613(3) 0.949(2)
O27 O 0.8975(2) 0.11119(19) 0.87997(14)
O34 O 0.7972(2) 0.62224(17) 0.90293(13)
C12 C 0.8765(3) 0.7206(3) 0.94558(19)
H12 H 0.980(4) 0.709(3) 0.989(2)
Fe4 Fe -0.0000 0.5000 0.5000
Fe6 Fe 0.37879(4) 0.42069(4) 0.63363(2)
O27_2 O 0.1025(2) 0.61119(19) 0.62003(14)
O30 O 0.1114(2) 0.61017(19) 0.46143(14)
O31 O 0.16508(19) 0.34297(17) 0.56256(12)
C12_2 C 0.1235(3) 0.2206(3) 0.55442(19)
H12_2 H 0.020(4) 0.209(3) 0.511(2)
Fe4_2 Fe 1.0000 0.5000 0.5000
O5_2 O 0.5395(2) 0.75773(17) 0.38808(12)
O6_2 O 0.5083(2) 0.71035(19) 0.49370(13)
O8_2 O 0.8975(2) 0.38881(19) 0.37997(14)
O9_2 O 0.6638(2) 0.47414(18) 0.47739(13)
O10_2 O 0.8886(2) 0.38983(19) 0.53857(14)
O11_2 O 0.83492(19) 0.65703(17) 0.43744(12)
O12_2 O 0.7972(2) 0.87776(17) 0.40293(13)
C3_2 C 0.5163(3) 0.7894(3) 0.44510(19)
C4_2 C 0.7686(3) 0.3630(3) 0.3183(2)
C5_2 C 0.7756(3) 0.3992(3) 0.5326(2)
C6_2 C 0.8765(3) 0.7794(3) 0.44558(19)
H3_2 H 0.501(3) 0.887(3) 0.449(2)
H4_2 H 0.758(3) 0.286(3) 0.283(2)
H5_2 H 0.765(3) 0.348(3) 0.5693(19)
H6_2 H 0.980(4) 0.791(3) 0.489(2)
O16_2 O 0.5541(2) 0.44005(18) 0.86693(13)
O18_2 O 0.5922(2) 0.50565(17) 0.71714(12)
O20_2 O 0.6816(2) 0.5103(2) 0.63798(13)
O24_2 O 0.4917(2) 0.28965(19) 0.50630(13)
O25_2 O 0.3448(2) 0.58618(17) 0.69408(12)
O28_2 O 0.3362(2) 0.52586(18) 0.52261(13)
C8_2 C 0.6945(3) 0.5210(3) 0.7091(2)
C10_2 C 0.4837(3) 0.2106(3) 0.55490(19)
C11_2 C 0.2244(3) 0.6008(3) 0.4674(2)
H8_2 H 0.798(3) 0.536(3) 0.767(2)
H10_2 H 0.499(3) 0.113(3) 0.551(2)
H11_2 H 0.235(3) 0.652(3) 0.4307(19)
C4_3 C 0.7686(3) 0.1370(3) 0.8183(2)
H4_3 H 0.758(3) 0.214(3) 0.783(2)
C1_2 C 0.5013(3) 0.8295(3) 0.67024(19)
H1_2 H 0.496(3) 0.757(3) 0.6309(17)
C7_2 C 0.4987(3) 0.3295(3) 0.82976(19)
H7_2 H 0.504(3) 0.257(3) 0.8691(17)
C4_4 C 0.2314(3) 0.6370(3) 0.6817(2)
H4_4 H 0.242(3) 0.714(3) 0.717(2)
loop_
_geom_bond_atom_site_label_1
_geom_bond_atom_site_label_2
_geom_bond_site_symmetry_1
_geom_bond_site_symmetry_2
Fe1 O1 1_555 1_555
O1 C1 1_555 1_555
O2 C1 1_555 1_555
O5 Fe1 1_555 1_555
O6 Fe3 1_555 1_555
O11 Fe1 1_555 1_555
O12 C6 1_555 1_555
C1 H1 1_555 1_555
C3 O5 1_555 1_555
C6 O11 1_555 1_555
H3 C3 1_555 1_555
H6 C6 1_555 1_555
Fe7 O15 1_555 1_555
Fe9 O1 1_555 1_555
Fe12 O15 1_555 1_555
Fe13 O21 1_555 1_555
Fe14_5 O29 1_555 1_555
O15 C7 1_555 1_555
O17 Fe9 1_555 1_555
O19 Fe7 1_555 1_555
O21 C9 1_555 1_555
O26 Fe7 1_555 1_555
O29 C11 1_555 1_555
C7 O17 1_555 1_555
C9 O19 1_555 1_555
H7 C7 1_555 1_555
H9 C9 1_555 1_555
H11 C11 1_555 1_555
Fe14 O11 1_555 1_555
O5 Fe9 1_555 1_555
O6 C3 1_555 1_555
O12 Fe9 1_555 1_555
Fe9 O19 1_555 1_555
Fe9 O26 1_555 1_555
Fe2 O14 1_555 1_555
O18 Fe2 1_555 1_555
O20 Fe3_2 1_555 1_555
O23 Fe2 1_555 1_555
O25 Fe2 1_555 1_555
O28 Fe3_2 1_555 1_555
O33 Fe2 1_555 1_555
C8 O18 1_555 1_555
H8 C8 1_555 1_555
O20 C8 1_555 1_555
Fe3_3 O4 1_555 1_555
Fe14_3 O8 1_555 1_555
O4 C2 1_555 1_555
O8 C4 1_555 1_555
C2 O3 1_555 1_555
C4 O7 1_555 1_555
H2 C2 1_555 1_555
H4 C4 1_555 1_555
Fe3_3 O9 1_555 1_555
O3 Fe12 1_555 1_555
O7 Fe12 1_555 1_555
O10 Fe14_4 1_555 1_555
H5 C5 1_555 1_555
Fe5 O13 1_555 1_555
Fe10 O13 1_555 1_555
O22 Fe5 1_555 1_555
O24 Fe3_4 1_555 1_555
O32 Fe5 1_555 1_555
C10 O22 1_555 1_555
H10 C10 1_555 1_555
O10 C5 1_555 1_555
Fe10 O22 1_555 1_555
Fe14_8 O32 1_555 1_555
O24 C10 1_555 1_555
O27 Fe14_6 1_555 1_555
Fe10 O34 1_555 1_555
O34 C12 1_555 1_555
C12 O32 1_555 1_555
H12 C12 1_555 1_555
Fe6 O31 1_555 1_555
O27_2 Fe4 1_555 1_555
O30 Fe4 1_555 1_555
O31 Fe4 1_555 1_555
O33 C12_2 1_555 1_555
C12_2 O31 1_555 1_555
H12_2 C12_2 1_555 1_555
Fe4_2 O8_2 1_555 1_555
O5_2 Fe7 1_555 1_555
O6_2 Fe13 1_555 1_555
O8_2 C4_2 1_555 1_555
O9_2 Fe7 1_555 1_555
O10_2 Fe4_2 1_555 1_555
O11_2 Fe7 1_555 1_555
O12_2 C6_2 1_555 1_555
C3_2 O5_2 1_555 1_555
C4_2 O26 1_555 1_555
C5_2 O9_2 1_555 1_555
C6_2 O11_2 1_555 1_555
H3_2 C3_2 1_555 1_555
H4_2 C4_2 1_555 1_555
H5_2 C5_2 1_555 1_555
H6_2 C6_2 1_555 1_555
Fe6 O14 1_555 1_555
O16_2 Fe10 1_555 1_555
O18_2 Fe10 1_555 1_555
O20_2 Fe13 1_555 1_555
O23 Fe6 1_555 1_555
O24_2 Fe13 1_555 1_555
O25_2 Fe10 1_555 1_555
O28_2 Fe13 1_555 1_555
O30 C11_2 1_555 1_555
C8_2 O18_2 1_555 1_555
C10_2 O23 1_555 1_555
C11_2 O28_2 1_555 1_555
H8_2 C8_2 1_555 1_555
H10_2 C10_2 1_555 1_555
H11_2 C11_2 1_555 1_555
Fe13 O9_2 1_555 1_555
Fe4_2 O11_2 1_555 1_555
O5_2 Fe12 1_555 1_555
O6_2 C3_2 1_555 1_555
O10_2 C5_2 1_555 1_555
O12_2 Fe12 1_555 1_555
Fe6 O18_2 1_555 1_555
Fe6 O25_2 1_555 1_555
Fe6 O28_2 1_555 1_555
O20_2 C8_2 1_555 1_555
O24_2 C10_2 1_555 1_555
O27 C4_3 1_555 1_555
C4_3 O25 1_555 1_555
H4_3 C4_3 1_555 1_555
O13 C1_2 1_555 1_555
O16 C1_2 1_555 1_555
C1_2 H1_2 1_555 1_555
O14 C7_2 1_555 1_555
C7_2 O16_2 1_555 1_555
H7_2 C7_2 1_555 1_555
O27_2 C4_4 1_555 1_555
C4_4 O25_2 1_555 1_555
H4_4 C4_4 1_555 1_555

#END
