
###############################################################################
#
# This file contains modified crystal structure data generated from the
# MOF subset of the Cambridge Structural Database (CSD) v543 
# hosted by the Cambridge Crystallographic Data Centre (CCDC).
#
# This work is licensed under the Creative Commons
# Attribution-NonCommercial-ShareAlike 4.0 International License.
# To view a copy of this license, visit
# http://creativecommons.org/licenses/by-nc-sa/4.0/
# or send a letter to
# Creative Commons, PO Box 1866, Mountain View, CA 94042, USA.
#
# CIF created using the CSD Python API on 29 September 2022
# The structure has been converted into the P1 space group
# The structure has a 3D framework
# The original CSD entry NIHBIQ02 is in the monoclinic crystal system
# The framework has been calculated to contain at least 10.0% void space
# The void calculation uses a probe of radius 1.32A, grid spacing 0.4
#
###############################################################################

data_NIHBIQ02
_chemical_formula_moiety         '(C24 H24 Fe20 O48)n'
_symmetry_cell_setting           triclinic
_symmetry_space_group_name_H-M   'P 1'
_symmetry_Int_Tables_number      1
_space_group_name_Hall           'P 1'
loop_
_symmetry_equiv_pos_site_id
_symmetry_equiv_pos_as_xyz
1 x,y,z
_cell_length_a                   11.5008(3)
_cell_length_b                   10.1568(2)
_cell_length_c                   18.9745(4)
_cell_angle_alpha                90
_cell_angle_beta                 126.3570(10)
_cell_angle_gamma                90
_cell_volume                     1784.98
loop_
_atom_site_label
_atom_site_type_symbol
_atom_site_fract_x
_atom_site_fract_y
_atom_site_fract_z
Fe14 Fe 0.0000 0.0000 0.0000
Fe14_2 Fe 0.0000 0.0000 1.0000
Fe14_3 Fe 0.0000 1.0000 0.0000
Fe14_4 Fe 0.0000 1.0000 1.0000
Fe1 Fe 0.38014(4) 0.06845(4) 0.13429(2)
Fe3 Fe 0.5000 0.0000 0.0000
O1 O 0.44575(19) 0.18122(17) 0.25004(11)
O2 O 0.5508(2) 0.03750(18) 0.36021(12)
O5 O 0.4682(2) 0.24404(18) 0.11962(11)
O6 O 0.5118(2) 0.20274(19) 0.02124(13)
O11 O 0.17100(18) 0.14495(17) 0.07106(11)
O12 O 0.2159(2) 0.35791(18) 0.10994(12)
C1 C 0.5059(3) 0.1482(3) 0.32875(19)
C3 C 0.5061(4) 0.2759(3) 0.0711(2)
C6 C 0.1344(3) 0.2636(3) 0.06944(19)
H1 H 0.525(3) 0.216(3) 0.3702(17)
H3 H 0.526(4) 0.368(3) 0.069(2)
H6 H 0.032(3) 0.278(3) 0.0308(18)
Fe7 Fe 0.61986(4) 0.56845(4) 0.36571(2)
Fe9 Fe 0.43955(4) 0.37095(4) 0.19900(2)
Fe12 Fe 0.56045(4) 0.87095(4) 0.30100(2)
Fe13 Fe 0.5000 0.5000 0.5000
Fe14_5 Fe 1.0000 0.0000 0.0000
O15 O 0.55425(19) 0.68122(17) 0.24996(11)
O17 O 0.4492(2) 0.53750(18) 0.13979(12)
O19 O 0.4160(2) 0.47572(17) 0.28779(12)
O21 O 0.3300(2) 0.4692(2) 0.36641(13)
O26 O 0.6590(2) 0.40259(17) 0.31175(11)
O29 O 0.8943(2) 0.0880(2) 0.04600(13)
C7 C 0.4941(3) 0.6482(3) 0.17125(19)
C9 C 0.3190(3) 0.4573(3) 0.2984(2)
C11 C 0.7809(4) 0.0802(3) 0.0392(2)
H7 H 0.475(3) 0.716(3) 0.1298(17)
H9 H 0.229(4) 0.434(3) 0.249(2)
H11 H 0.785(3) 0.123(3) 0.087(2)
Fe2 Fe 0.43955(4) 0.12905(4) 0.69900(2)
Fe3_2 Fe 0.5000 0.0000 1.0000
Fe14_6 Fe 1.0000 0.0000 1.0000
O14 O 0.44575(19) 0.31878(17) 0.75004(11)
O18 O 0.4160(2) 0.02428(17) 0.78779(12)
O20 O 0.3300(2) 0.0308(2) 0.86641(13)
O23 O 0.4682(2) 0.25596(18) 0.61962(11)
O25 O 0.6590(2) 0.09741(17) 0.81175(11)
O28 O 0.6660(2) 0.01951(18) 0.97961(12)
O33 O 0.2159(2) 0.14209(18) 0.60994(12)
C8 C 0.3190(3) 0.0427(3) 0.7984(2)
H8 H 0.229(4) 0.066(3) 0.749(2)
Fe3_3 Fe 0.5000 1.0000 0.0000
O3 O 0.5840(2) 0.97572(17) 0.21221(12)
O4 O 0.6700(2) 0.9692(2) 0.13359(13)
O7 O 0.3410(2) 0.90259(17) 0.18825(11)
O8 O 0.1031(2) 0.8680(2) 0.10666(13)
O9 O 0.3340(2) 0.98049(18) 0.02039(12)
C2 C 0.6810(3) 0.9573(3) 0.2016(2)
C4 C 0.2284(3) 0.8429(3) 0.1680(2)
H2 H 0.771(4) 0.934(3) 0.251(2)
H4 H 0.244(3) 0.766(3) 0.206(2)
Fe14_7 Fe 1.0000 1.0000 0.0000
Fe3_4 Fe 0.5000 1.0000 1.0000
O10 O 0.1057(2) 0.9120(2) 0.95400(13)
C5 C 0.2191(4) 0.9198(3) 0.9608(2)
H5 H 0.215(3) 0.877(3) 0.913(2)
Fe5 Fe 0.61986(4) 0.93155(4) 0.86571(2)
Fe10 Fe 0.56045(4) 0.62905(4) 0.80100(2)
Fe14_8 Fe 1.0000 1.0000 1.0000
O13 O 0.55425(19) 0.81878(17) 0.74996(11)
O16 O 0.4492(2) 0.96250(18) 0.63979(12)
O22 O 0.5318(2) 0.75596(18) 0.88038(11)
O24 O 0.4882(2) 0.79726(19) 0.97876(13)
O32 O 0.82900(18) 0.85505(17) 0.92894(11)
C10 C 0.4939(4) 0.7241(3) 0.9289(2)
H10 H 0.474(4) 0.632(3) 0.931(2)
O27 O 0.8969(2) 0.1320(2) 0.89334(13)
O34 O 0.7841(2) 0.64209(18) 0.89006(12)
C12 C 0.8656(3) 0.7364(3) 0.93056(19)
H12 H 0.968(3) 0.722(3) 0.9692(18)
Fe4 Fe 0.0000 0.5000 0.5000
Fe6 Fe 0.38014(4) 0.43155(4) 0.63429(2)
O27_2 O 0.1031(2) 0.6320(2) 0.60666(13)
O30 O 0.1057(2) 0.5880(2) 0.45400(13)
O31 O 0.17100(18) 0.35505(17) 0.57106(11)
C12_2 C 0.1344(3) 0.2364(3) 0.56944(19)
H12_2 H 0.032(3) 0.222(3) 0.5308(18)
Fe4_2 Fe 1.0000 0.5000 0.5000
O5_2 O 0.5318(2) 0.74404(18) 0.38038(11)
O6_2 O 0.4882(2) 0.70274(19) 0.47876(13)
O8_2 O 0.8969(2) 0.3680(2) 0.39334(13)
O9_2 O 0.6660(2) 0.48049(18) 0.47961(12)
O10_2 O 0.8943(2) 0.4120(2) 0.54600(13)
O11_2 O 0.82900(18) 0.64495(17) 0.42894(11)
O12_2 O 0.7841(2) 0.85791(18) 0.39006(12)
C3_2 C 0.4939(4) 0.7759(3) 0.4289(2)
C4_2 C 0.7716(3) 0.3429(3) 0.3320(2)
C5_2 C 0.7809(4) 0.4198(3) 0.5392(2)
C6_2 C 0.8656(3) 0.7636(3) 0.43056(19)
H3_2 H 0.474(4) 0.868(3) 0.431(2)
H4_2 H 0.756(3) 0.266(3) 0.294(2)
H5_2 H 0.785(3) 0.377(3) 0.587(2)
H6_2 H 0.968(3) 0.778(3) 0.4692(18)
O16_2 O 0.5508(2) 0.46250(18) 0.86021(12)
O18_2 O 0.5840(2) 0.52428(17) 0.71221(12)
O20_2 O 0.6700(2) 0.5308(2) 0.63359(13)
O24_2 O 0.5118(2) 0.29726(19) 0.52124(13)
O25_2 O 0.3410(2) 0.59741(17) 0.68825(11)
O28_2 O 0.3340(2) 0.51951(18) 0.52039(12)
C8_2 C 0.6810(3) 0.5427(3) 0.7016(2)
C10_2 C 0.5061(4) 0.2241(3) 0.5711(2)
C11_2 C 0.2191(4) 0.5802(3) 0.4608(2)
H8_2 H 0.771(4) 0.566(3) 0.751(2)
H10_2 H 0.526(4) 0.132(3) 0.569(2)
H11_2 H 0.215(3) 0.623(3) 0.413(2)
C4_3 C 0.7716(3) 0.1571(3) 0.8320(2)
H4_3 H 0.756(3) 0.234(3) 0.794(2)
C1_2 C 0.4941(3) 0.8518(3) 0.67125(19)
H1_2 H 0.475(3) 0.784(3) 0.6298(17)
C7_2 C 0.5059(3) 0.3518(3) 0.82875(19)
H7_2 H 0.525(3) 0.284(3) 0.8702(17)
C4_4 C 0.2284(3) 0.6571(3) 0.6680(2)
H4_4 H 0.244(3) 0.734(3) 0.706(2)
loop_
_geom_bond_atom_site_label_1
_geom_bond_atom_site_label_2
_geom_bond_site_symmetry_1
_geom_bond_site_symmetry_2
Fe1 O1 1_555 1_555
O1 C1 1_555 1_555
O2 C1 1_555 1_555
O5 Fe1 1_555 1_555
O6 Fe3 1_555 1_555
O11 Fe1 1_555 1_555
O12 C6 1_555 1_555
C1 H1 1_555 1_555
C3 O5 1_555 1_555
C6 O11 1_555 1_555
H3 C3 1_555 1_555
H6 C6 1_555 1_555
Fe7 O15 1_555 1_555
Fe9 O1 1_555 1_555
Fe12 O15 1_555 1_555
Fe13 O21 1_555 1_555
Fe14_5 O29 1_555 1_555
O15 C7 1_555 1_555
O17 Fe9 1_555 1_555
O19 Fe7 1_555 1_555
O21 C9 1_555 1_555
O26 Fe7 1_555 1_555
O29 C11 1_555 1_555
C7 O17 1_555 1_555
C9 O19 1_555 1_555
H7 C7 1_555 1_555
H9 C9 1_555 1_555
H11 C11 1_555 1_555
Fe14 O11 1_555 1_555
O5 Fe9 1_555 1_555
O6 C3 1_555 1_555
O12 Fe9 1_555 1_555
Fe9 O19 1_555 1_555
Fe9 O26 1_555 1_555
Fe2 O14 1_555 1_555
O18 Fe2 1_555 1_555
O20 Fe3_2 1_555 1_555
O23 Fe2 1_555 1_555
O25 Fe2 1_555 1_555
O28 Fe3_2 1_555 1_555
O33 Fe2 1_555 1_555
C8 O18 1_555 1_555
H8 C8 1_555 1_555
O20 C8 1_555 1_555
Fe3_3 O4 1_555 1_555
Fe14_3 O8 1_555 1_555
O4 C2 1_555 1_555
O8 C4 1_555 1_555
C2 O3 1_555 1_555
C4 O7 1_555 1_555
H2 C2 1_555 1_555
H4 C4 1_555 1_555
Fe3_3 O9 1_555 1_555
O3 Fe12 1_555 1_555
O7 Fe12 1_555 1_555
O10 Fe14_4 1_555 1_555
H5 C5 1_555 1_555
Fe5 O13 1_555 1_555
Fe10 O13 1_555 1_555
O22 Fe5 1_555 1_555
O24 Fe3_4 1_555 1_555
O32 Fe5 1_555 1_555
C10 O22 1_555 1_555
H10 C10 1_555 1_555
O10 C5 1_555 1_555
Fe10 O22 1_555 1_555
Fe14_8 O32 1_555 1_555
O24 C10 1_555 1_555
O27 Fe14_6 1_555 1_555
Fe10 O34 1_555 1_555
O34 C12 1_555 1_555
C12 O32 1_555 1_555
H12 C12 1_555 1_555
Fe6 O31 1_555 1_555
O27_2 Fe4 1_555 1_555
O30 Fe4 1_555 1_555
O31 Fe4 1_555 1_555
O33 C12_2 1_555 1_555
C12_2 O31 1_555 1_555
H12_2 C12_2 1_555 1_555
Fe4_2 O8_2 1_555 1_555
O5_2 Fe7 1_555 1_555
O6_2 Fe13 1_555 1_555
O8_2 C4_2 1_555 1_555
O9_2 Fe7 1_555 1_555
O10_2 Fe4_2 1_555 1_555
O11_2 Fe7 1_555 1_555
O12_2 C6_2 1_555 1_555
C3_2 O5_2 1_555 1_555
C4_2 O26 1_555 1_555
C5_2 O9_2 1_555 1_555
C6_2 O11_2 1_555 1_555
H3_2 C3_2 1_555 1_555
H4_2 C4_2 1_555 1_555
H5_2 C5_2 1_555 1_555
H6_2 C6_2 1_555 1_555
Fe6 O14 1_555 1_555
O16_2 Fe10 1_555 1_555
O18_2 Fe10 1_555 1_555
O20_2 Fe13 1_555 1_555
O23 Fe6 1_555 1_555
O24_2 Fe13 1_555 1_555
O25_2 Fe10 1_555 1_555
O28_2 Fe13 1_555 1_555
O30 C11_2 1_555 1_555
C8_2 O18_2 1_555 1_555
C10_2 O23 1_555 1_555
C11_2 O28_2 1_555 1_555
H8_2 C8_2 1_555 1_555
H10_2 C10_2 1_555 1_555
H11_2 C11_2 1_555 1_555
Fe13 O9_2 1_555 1_555
Fe4_2 O11_2 1_555 1_555
O5_2 Fe12 1_555 1_555
O6_2 C3_2 1_555 1_555
O10_2 C5_2 1_555 1_555
O12_2 Fe12 1_555 1_555
Fe6 O18_2 1_555 1_555
Fe6 O25_2 1_555 1_555
Fe6 O28_2 1_555 1_555
O20_2 C8_2 1_555 1_555
O24_2 C10_2 1_555 1_555
O27 C4_3 1_555 1_555
C4_3 O25 1_555 1_555
H4_3 C4_3 1_555 1_555
O13 C1_2 1_555 1_555
O16 C1_2 1_555 1_555
C1_2 H1_2 1_555 1_555
O14 C7_2 1_555 1_555
C7_2 O16_2 1_555 1_555
H7_2 C7_2 1_555 1_555
O27_2 C4_4 1_555 1_555
C4_4 O25_2 1_555 1_555
H4_4 C4_4 1_555 1_555

#END
