
###############################################################################
#
# This file contains modified crystal structure data generated from the
# MOF subset of the Cambridge Structural Database (CSD) v543 
# hosted by the Cambridge Crystallographic Data Centre (CCDC).
#
# This work is licensed under the Creative Commons
# Attribution-NonCommercial-ShareAlike 4.0 International License.
# To view a copy of this license, visit
# http://creativecommons.org/licenses/by-nc-sa/4.0/
# or send a letter to
# Creative Commons, PO Box 1866, Mountain View, CA 94042, USA.
#
# CIF created using the CSD Python API on 29 September 2022
# The structure has been converted into the P1 space group
# The structure has a 3D framework
# The original CSD entry NIHBIQ01 is in the monoclinic crystal system
# The framework has been calculated to contain at least 10.0% void space
# The void calculation uses a probe of radius 1.32A, grid spacing 0.4
#
###############################################################################

data_NIHBIQ01
_chemical_formula_moiety         '(C24 H24 Fe20 O48)n'
_symmetry_cell_setting           triclinic
_symmetry_space_group_name_H-M   'P 1'
_symmetry_Int_Tables_number      1
_space_group_name_Hall           'P 1'
loop_
_symmetry_equiv_pos_site_id
_symmetry_equiv_pos_as_xyz
1 x,y,z
_cell_length_a                   11.4667(2)
_cell_length_b                   10.0705(2)
_cell_length_c                   18.9071(5)
_cell_angle_alpha                90
_cell_angle_beta                 126.4390(10)
_cell_angle_gamma                90
_cell_volume                     1756.45
loop_
_atom_site_label
_atom_site_type_symbol
_atom_site_fract_x
_atom_site_fract_y
_atom_site_fract_z
Fe14 Fe -0.0000 0.0000 0.0000
Fe14_2 Fe -0.0000 0.0000 1.0000
Fe14_3 Fe -0.0000 1.0000 0.0000
Fe14_4 Fe -0.0000 1.0000 1.0000
Fe1 Fe 0.38012(3) 0.07174(3) 0.13433(2)
Fe3 Fe 0.5000 0.0000 0.0000
O1 O 0.44315(16) 0.18568(15) 0.24937(10)
O2 O 0.55152(18) 0.04285(16) 0.36208(10)
O5 O 0.46906(16) 0.24769(15) 0.11919(10)
O6 O 0.51273(18) 0.20489(16) 0.02062(11)
O11 O 0.16987(15) 0.14745(15) 0.06980(10)
O12 O 0.21341(16) 0.36366(16) 0.10705(10)
C1 C 0.5044(3) 0.1539(2) 0.32913(17)
C3 C 0.5083(3) 0.2801(3) 0.07083(17)
C6 C 0.1326(3) 0.2682(3) 0.06695(17)
H1 H 0.518(2) 0.226(2) 0.3682(14)
H3 H 0.543(3) 0.377(3) 0.0776(17)
H6 H 0.037(3) 0.283(2) 0.0311(15)
Fe7 Fe 0.61988(3) 0.57174(3) 0.36567(2)
Fe9 Fe 0.43815(3) 0.37582(3) 0.19763(2)
Fe12 Fe 0.56185(3) 0.87582(3) 0.30237(2)
Fe13 Fe 0.5000 0.5000 0.5000
Fe14_5 Fe 1.0000 0.0000 0.0000
O15 O 0.55685(16) 0.68568(15) 0.25063(10)
O17 O 0.44848(18) 0.54285(16) 0.13792(10)
O19 O 0.41425(16) 0.48162(15) 0.28643(10)
O21 O 0.32905(18) 0.46970(17) 0.36590(11)
O26 O 0.65790(16) 0.40468(15) 0.31096(10)
O29 O 0.89415(17) 0.09013(16) 0.04577(11)
C7 C 0.4956(3) 0.6539(2) 0.17087(17)
C9 C 0.3160(3) 0.4609(3) 0.29665(18)
C11 C 0.7804(3) 0.0819(3) 0.03872(18)
H7 H 0.482(2) 0.726(2) 0.1318(14)
H9 H 0.222(3) 0.441(3) 0.2460(19)
H11 H 0.781(2) 0.129(2) 0.0846(15)
Fe2 Fe 0.43815(3) 0.12418(3) 0.69763(2)
Fe3_2 Fe 0.5000 0.0000 1.0000
Fe14_6 Fe 1.0000 0.0000 1.0000
O14 O 0.44315(16) 0.31432(15) 0.74937(10)
O18 O 0.41425(16) 0.01838(15) 0.78643(10)
O20 O 0.32905(18) 0.03030(17) 0.86590(11)
O23 O 0.46906(16) 0.25231(15) 0.61919(10)
O25 O 0.65790(16) 0.09532(15) 0.81096(10)
O28 O 0.66568(16) 0.01881(15) 0.97940(10)
O33 O 0.21341(16) 0.13634(16) 0.60705(10)
C8 C 0.3160(3) 0.0391(3) 0.79665(18)
H8 H 0.222(3) 0.059(3) 0.7460(19)
Fe3_3 Fe 0.5000 1.0000 0.0000
O3 O 0.58575(16) 0.98162(15) 0.21357(10)
O4 O 0.67095(18) 0.96970(17) 0.13410(11)
O7 O 0.34210(16) 0.90468(15) 0.18904(10)
O8 O 0.10305(17) 0.86821(17) 0.10767(11)
O9 O 0.33432(16) 0.98119(15) 0.02060(10)
C2 C 0.6840(3) 0.9609(3) 0.20335(18)
C4 C 0.2289(3) 0.8436(3) 0.16923(18)
H2 H 0.778(3) 0.941(3) 0.2540(19)
H4 H 0.243(3) 0.772(3) 0.2066(18)
Fe14_7 Fe 1.0000 1.0000 0.0000
Fe3_4 Fe 0.5000 1.0000 1.0000
O10 O 0.10585(17) 0.90987(16) 0.95423(11)
C5 C 0.2196(3) 0.9181(3) 0.96128(18)
H5 H 0.219(2) 0.871(2) 0.9154(15)
Fe5 Fe 0.61988(3) 0.92826(3) 0.86567(2)
Fe10 Fe 0.56185(3) 0.62418(3) 0.80237(2)
Fe14_8 Fe 1.0000 1.0000 1.0000
O13 O 0.55685(16) 0.81432(15) 0.75063(10)
O16 O 0.44848(18) 0.95715(16) 0.63792(10)
O22 O 0.53094(16) 0.75231(15) 0.88081(10)
O24 O 0.48727(18) 0.79511(16) 0.97938(11)
O32 O 0.83013(15) 0.85255(15) 0.93020(10)
C10 C 0.4917(3) 0.7199(3) 0.92917(17)
H10 H 0.457(3) 0.623(3) 0.9224(17)
O27 O 0.89695(17) 0.13179(17) 0.89233(11)
O34 O 0.78659(16) 0.63634(16) 0.89295(10)
C12 C 0.8674(3) 0.7318(3) 0.93305(17)
H12 H 0.963(3) 0.717(2) 0.9689(15)
Fe4 Fe -0.0000 0.5000 0.5000
Fe6 Fe 0.38012(3) 0.42826(3) 0.63433(2)
O27_2 O 0.10305(17) 0.63179(17) 0.60767(11)
O30 O 0.10585(17) 0.59013(16) 0.45423(11)
O31 O 0.16987(15) 0.35255(15) 0.56980(10)
C12_2 C 0.1326(3) 0.2318(3) 0.56695(17)
H12_2 H 0.037(3) 0.217(2) 0.5311(15)
Fe4_2 Fe 1.0000 0.5000 0.5000
O5_2 O 0.53094(16) 0.74769(15) 0.38081(10)
O6_2 O 0.48727(18) 0.70489(16) 0.47938(11)
O8_2 O 0.89695(17) 0.36821(17) 0.39233(11)
O9_2 O 0.66568(16) 0.48119(15) 0.47940(10)
O10_2 O 0.89415(17) 0.40987(16) 0.54577(11)
O11_2 O 0.83013(15) 0.64745(15) 0.43020(10)
O12_2 O 0.78659(16) 0.86366(16) 0.39295(10)
C3_2 C 0.4917(3) 0.7801(3) 0.42917(17)
C4_2 C 0.7711(3) 0.3436(3) 0.33077(18)
C5_2 C 0.7804(3) 0.4181(3) 0.53872(18)
C6_2 C 0.8674(3) 0.7682(3) 0.43305(17)
H3_2 H 0.457(3) 0.877(3) 0.4224(17)
H4_2 H 0.757(3) 0.272(3) 0.2934(18)
H5_2 H 0.781(2) 0.371(2) 0.5846(15)
H6_2 H 0.963(3) 0.783(2) 0.4689(15)
O16_2 O 0.55152(18) 0.45715(16) 0.86208(10)
O18_2 O 0.58575(16) 0.51838(15) 0.71357(10)
O20_2 O 0.67095(18) 0.53030(17) 0.63410(11)
O24_2 O 0.51273(18) 0.29511(16) 0.52062(11)
O25_2 O 0.34210(16) 0.59532(15) 0.68904(10)
O28_2 O 0.33432(16) 0.51881(15) 0.52060(10)
C8_2 C 0.6840(3) 0.5391(3) 0.70335(18)
C10_2 C 0.5083(3) 0.2199(3) 0.57083(17)
C11_2 C 0.2196(3) 0.5819(3) 0.46128(18)
H8_2 H 0.778(3) 0.559(3) 0.7540(19)
H10_2 H 0.543(3) 0.123(3) 0.5776(17)
H11_2 H 0.219(2) 0.629(2) 0.4154(15)
C4_3 C 0.7711(3) 0.1564(3) 0.83077(18)
H4_3 H 0.757(3) 0.228(3) 0.7934(18)
C1_2 C 0.4956(3) 0.8461(2) 0.67087(17)
H1_2 H 0.482(2) 0.774(2) 0.6318(14)
C7_2 C 0.5044(3) 0.3461(2) 0.82913(17)
H7_2 H 0.518(2) 0.274(2) 0.8682(14)
C4_4 C 0.2289(3) 0.6564(3) 0.66923(18)
H4_4 H 0.243(3) 0.728(3) 0.7066(18)
loop_
_geom_bond_atom_site_label_1
_geom_bond_atom_site_label_2
_geom_bond_site_symmetry_1
_geom_bond_site_symmetry_2
Fe1 O1 1_555 1_555
O1 C1 1_555 1_555
O2 C1 1_555 1_555
O5 Fe1 1_555 1_555
O6 Fe3 1_555 1_555
O11 Fe1 1_555 1_555
O12 C6 1_555 1_555
C1 H1 1_555 1_555
C3 O5 1_555 1_555
C6 O11 1_555 1_555
H3 C3 1_555 1_555
H6 C6 1_555 1_555
Fe7 O15 1_555 1_555
Fe9 O1 1_555 1_555
Fe12 O15 1_555 1_555
Fe13 O21 1_555 1_555
Fe14_5 O29 1_555 1_555
O15 C7 1_555 1_555
O17 Fe9 1_555 1_555
O19 Fe7 1_555 1_555
O21 C9 1_555 1_555
O26 Fe7 1_555 1_555
O29 C11 1_555 1_555
C7 O17 1_555 1_555
C9 O19 1_555 1_555
H7 C7 1_555 1_555
H9 C9 1_555 1_555
H11 C11 1_555 1_555
Fe14 O11 1_555 1_555
O5 Fe9 1_555 1_555
O6 C3 1_555 1_555
O12 Fe9 1_555 1_555
Fe9 O19 1_555 1_555
Fe9 O26 1_555 1_555
Fe2 O14 1_555 1_555
O18 Fe2 1_555 1_555
O20 Fe3_2 1_555 1_555
O23 Fe2 1_555 1_555
O25 Fe2 1_555 1_555
O28 Fe3_2 1_555 1_555
O33 Fe2 1_555 1_555
C8 O18 1_555 1_555
H8 C8 1_555 1_555
O20 C8 1_555 1_555
Fe3_3 O4 1_555 1_555
Fe14_3 O8 1_555 1_555
O4 C2 1_555 1_555
O8 C4 1_555 1_555
C2 O3 1_555 1_555
C4 O7 1_555 1_555
H2 C2 1_555 1_555
H4 C4 1_555 1_555
Fe3_3 O9 1_555 1_555
O3 Fe12 1_555 1_555
O7 Fe12 1_555 1_555
O10 Fe14_4 1_555 1_555
H5 C5 1_555 1_555
Fe5 O13 1_555 1_555
Fe10 O13 1_555 1_555
O22 Fe5 1_555 1_555
O24 Fe3_4 1_555 1_555
O32 Fe5 1_555 1_555
C10 O22 1_555 1_555
H10 C10 1_555 1_555
O10 C5 1_555 1_555
Fe10 O22 1_555 1_555
Fe14_8 O32 1_555 1_555
O24 C10 1_555 1_555
O27 Fe14_6 1_555 1_555
Fe10 O34 1_555 1_555
O34 C12 1_555 1_555
C12 O32 1_555 1_555
H12 C12 1_555 1_555
Fe6 O31 1_555 1_555
O27_2 Fe4 1_555 1_555
O30 Fe4 1_555 1_555
O31 Fe4 1_555 1_555
O33 C12_2 1_555 1_555
C12_2 O31 1_555 1_555
H12_2 C12_2 1_555 1_555
Fe4_2 O8_2 1_555 1_555
O5_2 Fe7 1_555 1_555
O6_2 Fe13 1_555 1_555
O8_2 C4_2 1_555 1_555
O9_2 Fe7 1_555 1_555
O10_2 Fe4_2 1_555 1_555
O11_2 Fe7 1_555 1_555
O12_2 C6_2 1_555 1_555
C3_2 O5_2 1_555 1_555
C4_2 O26 1_555 1_555
C5_2 O9_2 1_555 1_555
C6_2 O11_2 1_555 1_555
H3_2 C3_2 1_555 1_555
H4_2 C4_2 1_555 1_555
H5_2 C5_2 1_555 1_555
H6_2 C6_2 1_555 1_555
Fe6 O14 1_555 1_555
O16_2 Fe10 1_555 1_555
O18_2 Fe10 1_555 1_555
O20_2 Fe13 1_555 1_555
O23 Fe6 1_555 1_555
O24_2 Fe13 1_555 1_555
O25_2 Fe10 1_555 1_555
O28_2 Fe13 1_555 1_555
O30 C11_2 1_555 1_555
C8_2 O18_2 1_555 1_555
C10_2 O23 1_555 1_555
C11_2 O28_2 1_555 1_555
H8_2 C8_2 1_555 1_555
H10_2 C10_2 1_555 1_555
H11_2 C11_2 1_555 1_555
Fe13 O9_2 1_555 1_555
Fe4_2 O11_2 1_555 1_555
O5_2 Fe12 1_555 1_555
O6_2 C3_2 1_555 1_555
O10_2 C5_2 1_555 1_555
O12_2 Fe12 1_555 1_555
Fe6 O18_2 1_555 1_555
Fe6 O25_2 1_555 1_555
Fe6 O28_2 1_555 1_555
O20_2 C8_2 1_555 1_555
O24_2 C10_2 1_555 1_555
O27 C4_3 1_555 1_555
C4_3 O25 1_555 1_555
H4_3 C4_3 1_555 1_555
O13 C1_2 1_555 1_555
O16 C1_2 1_555 1_555
C1_2 H1_2 1_555 1_555
O14 C7_2 1_555 1_555
C7_2 O16_2 1_555 1_555
H7_2 C7_2 1_555 1_555
O27_2 C4_4 1_555 1_555
C4_4 O25_2 1_555 1_555
H4_4 C4_4 1_555 1_555

#END
