
###############################################################################
#
# This file contains modified crystal structure data generated from the
# MOF subset of the Cambridge Structural Database (CSD) v543 
# hosted by the Cambridge Crystallographic Data Centre (CCDC).
#
# This work is licensed under the Creative Commons
# Attribution-NonCommercial-ShareAlike 4.0 International License.
# To view a copy of this license, visit
# http://creativecommons.org/licenses/by-nc-sa/4.0/
# or send a letter to
# Creative Commons, PO Box 1866, Mountain View, CA 94042, USA.
#
# CIF created using the CSD Python API on 29 September 2022
# The structure has been converted into the P1 space group
# The structure has a 3D framework
# The original CSD entry NIHBIQ is in the monoclinic crystal system
# The framework has been calculated to contain at least 10.0% void space
# The void calculation uses a probe of radius 1.32A, grid spacing 0.4
#
###############################################################################

data_NIHBIQ
_chemical_formula_moiety         '(C24 H24 Fe20 O48)n'
_symmetry_cell_setting           triclinic
_symmetry_space_group_name_H-M   'P 1'
_symmetry_Int_Tables_number      1
_space_group_name_Hall           'P 1'
loop_
_symmetry_equiv_pos_site_id
_symmetry_equiv_pos_as_xyz
1 x,y,z
_cell_length_a                   11.4488(2)
_cell_length_b                   10.0224(2)
_cell_length_c                   18.8720(5)
_cell_angle_alpha                90
_cell_angle_beta                 126.4830(10)
_cell_angle_gamma                90
_cell_volume                     1741.1
loop_
_atom_site_label
_atom_site_type_symbol
_atom_site_fract_x
_atom_site_fract_y
_atom_site_fract_z
Fe14 Fe 0.0000 0.0000 0.0000
Fe14_2 Fe 0.0000 -0.0000 1.0000
Fe14_3 Fe 0.0000 1.0000 0.0000
Fe14_4 Fe 0.0000 1.0000 1.0000
Fe1 Fe 0.38010(3) 0.07370(3) 0.13442(2)
Fe3 Fe 0.5000 0.0000 0.0000
O1 O 0.44166(16) 0.18860(14) 0.24903(9)
O2 O 0.55202(17) 0.04619(15) 0.36305(10)
O5 O 0.46880(16) 0.25001(14) 0.11860(9)
O6 O 0.51247(17) 0.20654(15) 0.01979(10)
O11 O 0.16944(15) 0.14914(14) 0.06935(9)
O12 O 0.21150(16) 0.36667(15) 0.10567(10)
C1 C 0.5034(2) 0.1576(2) 0.32951(15)
C3 C 0.5080(3) 0.2822(2) 0.06976(16)
C6 C 0.1307(3) 0.2701(2) 0.06571(15)
H1 H 0.515(2) 0.227(2) 0.3684(15)
H3 H 0.541(3) 0.372(3) 0.0755(15)
H6 H 0.031(3) 0.286(2) 0.0266(15)
Fe7 Fe 0.61990(3) 0.57370(3) 0.36558(2)
Fe9 Fe 0.43713(3) 0.37877(3) 0.19674(2)
Fe12 Fe 0.56287(3) 0.87877(3) 0.30326(2)
Fe13 Fe 0.5000 0.5000 0.5000
Fe14_5 Fe 1.0000 0.0000 0.0000
O15 O 0.55834(16) 0.68860(14) 0.25097(9)
O17 O 0.44798(17) 0.54619(15) 0.13695(10)
O19 O 0.41328(16) 0.48513(14) 0.28552(10)
O21 O 0.32828(16) 0.47099(16) 0.36551(10)
O26 O 0.65718(16) 0.40610(14) 0.31044(10)
O29 O 0.89390(16) 0.09163(15) 0.04544(10)
C7 C 0.4966(2) 0.6576(2) 0.17049(15)
C9 C 0.3144(3) 0.4632(2) 0.29584(16)
C11 C 0.7800(3) 0.0833(2) 0.03858(16)
H7 H 0.485(2) 0.727(2) 0.1316(15)
H9 H 0.219(3) 0.444(2) 0.2429(17)
H11 H 0.779(2) 0.128(2) 0.0834(16)
Fe2 Fe 0.43713(3) 0.12123(3) 0.69674(2)
Fe3_2 Fe 0.5000 -0.0000 1.0000
Fe14_6 Fe 1.0000 -0.0000 1.0000
O14 O 0.44166(16) 0.31140(14) 0.74903(9)
O18 O 0.41328(16) 0.01487(14) 0.78552(10)
O20 O 0.32828(16) 0.02901(16) 0.86551(10)
O23 O 0.46880(16) 0.24999(14) 0.61860(9)
O25 O 0.65718(16) 0.09390(14) 0.81044(10)
O28 O 0.66557(16) 0.01847(14) 0.97921(10)
O33 O 0.21150(16) 0.13333(15) 0.60567(10)
C8 C 0.3144(3) 0.0368(2) 0.79584(16)
H8 H 0.219(3) 0.056(2) 0.7429(17)
Fe3_3 Fe 0.5000 1.0000 0.0000
O3 O 0.58672(16) 0.98513(14) 0.21448(10)
O4 O 0.67172(16) 0.97099(16) 0.13449(10)
O7 O 0.34282(16) 0.90610(14) 0.18956(10)
O8 O 0.10306(16) 0.86814(15) 0.10814(10)
O9 O 0.33443(16) 0.98153(14) 0.02079(10)
C2 C 0.6856(3) 0.9632(2) 0.20416(16)
C4 C 0.2298(3) 0.8442(2) 0.17030(16)
H2 H 0.781(3) 0.944(2) 0.2571(17)
H4 H 0.242(2) 0.770(2) 0.2067(15)
Fe14_7 Fe 1.0000 1.0000 0.0000
Fe3_4 Fe 0.5000 1.0000 1.0000
O10 O 0.10610(16) 0.90837(15) 0.95456(10)
C5 C 0.2200(3) 0.9167(2) 0.96142(16)
H5 H 0.221(2) 0.872(2) 0.9166(16)
Fe5 Fe 0.61990(3) 0.92630(3) 0.86558(2)
Fe10 Fe 0.56287(3) 0.62123(3) 0.80326(2)
Fe14_8 Fe 1.0000 1.0000 1.0000
O13 O 0.55834(16) 0.81140(14) 0.75097(9)
O16 O 0.44798(17) 0.95381(15) 0.63695(10)
O22 O 0.53120(16) 0.74999(14) 0.88140(9)
O24 O 0.48753(17) 0.79346(15) 0.98021(10)
O32 O 0.83056(15) 0.85086(14) 0.93065(9)
C10 C 0.4920(3) 0.7178(2) 0.93024(16)
H10 H 0.459(3) 0.628(3) 0.9245(15)
O27 O 0.89694(16) 0.13186(15) 0.89186(10)
O34 O 0.78850(16) 0.63333(15) 0.89433(10)
C12 C 0.8693(3) 0.7299(2) 0.93429(15)
H12 H 0.969(3) 0.714(2) 0.9734(15)
Fe4 Fe 0.0000 0.5000 0.5000
Fe6 Fe 0.38010(3) 0.42630(3) 0.63442(2)
O27_2 O 0.10306(16) 0.63186(15) 0.60814(10)
O30 O 0.10610(16) 0.59163(15) 0.45456(10)
O31 O 0.16944(15) 0.35086(14) 0.56935(9)
C12_2 C 0.1307(3) 0.2299(2) 0.56571(15)
H12_2 H 0.031(3) 0.214(2) 0.5266(15)
Fe4_2 Fe 1.0000 0.5000 0.5000
O5_2 O 0.53120(16) 0.75001(14) 0.38140(9)
O6_2 O 0.48753(17) 0.70654(15) 0.48021(10)
O8_2 O 0.89694(16) 0.36814(15) 0.39186(10)
O9_2 O 0.66557(16) 0.48153(14) 0.47921(10)
O10_2 O 0.89390(16) 0.40837(15) 0.54544(10)
O11_2 O 0.83056(15) 0.64914(14) 0.43065(9)
O12_2 O 0.78850(16) 0.86667(15) 0.39433(10)
C3_2 C 0.4920(3) 0.7822(2) 0.43024(16)
C4_2 C 0.7702(3) 0.3442(2) 0.32970(16)
C5_2 C 0.7800(3) 0.4167(2) 0.53858(16)
C6_2 C 0.8693(3) 0.7701(2) 0.43429(15)
H3_2 H 0.459(3) 0.872(3) 0.4245(15)
H4_2 H 0.758(2) 0.270(2) 0.2933(15)
H5_2 H 0.779(2) 0.372(2) 0.5834(16)
H6_2 H 0.969(3) 0.786(2) 0.4734(15)
O16_2 O 0.55202(17) 0.45381(15) 0.86305(10)
O18_2 O 0.58672(16) 0.51487(14) 0.71448(10)
O20_2 O 0.67172(16) 0.52901(16) 0.63449(10)
O24_2 O 0.51247(17) 0.29346(15) 0.51979(10)
O25_2 O 0.34282(16) 0.59390(14) 0.68956(10)
O28_2 O 0.33443(16) 0.51847(14) 0.52079(10)
C8_2 C 0.6856(3) 0.5368(2) 0.70416(16)
C10_2 C 0.5080(3) 0.2178(2) 0.56976(16)
C11_2 C 0.2200(3) 0.5833(2) 0.46142(16)
H8_2 H 0.781(3) 0.556(2) 0.7571(17)
H10_2 H 0.541(3) 0.128(3) 0.5755(15)
H11_2 H 0.221(2) 0.628(2) 0.4166(16)
C4_3 C 0.7702(3) 0.1558(2) 0.82970(16)
H4_3 H 0.758(2) 0.230(2) 0.7933(15)
C1_2 C 0.4966(2) 0.8424(2) 0.67049(15)
H1_2 H 0.485(2) 0.773(2) 0.6316(15)
C7_2 C 0.5034(2) 0.3424(2) 0.82951(15)
H7_2 H 0.515(2) 0.273(2) 0.8684(15)
C4_4 C 0.2298(3) 0.6558(2) 0.67030(16)
H4_4 H 0.242(2) 0.730(2) 0.7067(15)
loop_
_geom_bond_atom_site_label_1
_geom_bond_atom_site_label_2
_geom_bond_site_symmetry_1
_geom_bond_site_symmetry_2
Fe1 O1 1_555 1_555
O1 C1 1_555 1_555
O2 C1 1_555 1_555
O5 Fe1 1_555 1_555
O6 Fe3 1_555 1_555
O11 Fe1 1_555 1_555
O12 C6 1_555 1_555
C1 H1 1_555 1_555
C3 O5 1_555 1_555
C6 O11 1_555 1_555
H3 C3 1_555 1_555
H6 C6 1_555 1_555
Fe7 O15 1_555 1_555
Fe9 O1 1_555 1_555
Fe12 O15 1_555 1_555
Fe13 O21 1_555 1_555
Fe14_5 O29 1_555 1_555
O15 C7 1_555 1_555
O17 Fe9 1_555 1_555
O19 Fe7 1_555 1_555
O21 C9 1_555 1_555
O26 Fe7 1_555 1_555
O29 C11 1_555 1_555
C7 O17 1_555 1_555
C9 O19 1_555 1_555
H7 C7 1_555 1_555
H9 C9 1_555 1_555
H11 C11 1_555 1_555
Fe14 O11 1_555 1_555
O5 Fe9 1_555 1_555
O6 C3 1_555 1_555
O12 Fe9 1_555 1_555
Fe9 O19 1_555 1_555
Fe9 O26 1_555 1_555
Fe2 O14 1_555 1_555
O18 Fe2 1_555 1_555
O20 Fe3_2 1_555 1_555
O23 Fe2 1_555 1_555
O25 Fe2 1_555 1_555
O28 Fe3_2 1_555 1_555
O33 Fe2 1_555 1_555
C8 O18 1_555 1_555
H8 C8 1_555 1_555
O20 C8 1_555 1_555
Fe3_3 O4 1_555 1_555
Fe14_3 O8 1_555 1_555
O4 C2 1_555 1_555
O8 C4 1_555 1_555
C2 O3 1_555 1_555
C4 O7 1_555 1_555
H2 C2 1_555 1_555
H4 C4 1_555 1_555
Fe3_3 O9 1_555 1_555
O3 Fe12 1_555 1_555
O7 Fe12 1_555 1_555
O10 Fe14_4 1_555 1_555
H5 C5 1_555 1_555
Fe5 O13 1_555 1_555
Fe10 O13 1_555 1_555
O22 Fe5 1_555 1_555
O24 Fe3_4 1_555 1_555
O32 Fe5 1_555 1_555
C10 O22 1_555 1_555
H10 C10 1_555 1_555
O10 C5 1_555 1_555
Fe10 O22 1_555 1_555
Fe14_8 O32 1_555 1_555
O24 C10 1_555 1_555
O27 Fe14_6 1_555 1_555
Fe10 O34 1_555 1_555
O34 C12 1_555 1_555
C12 O32 1_555 1_555
H12 C12 1_555 1_555
Fe6 O31 1_555 1_555
O27_2 Fe4 1_555 1_555
O30 Fe4 1_555 1_555
O31 Fe4 1_555 1_555
O33 C12_2 1_555 1_555
C12_2 O31 1_555 1_555
H12_2 C12_2 1_555 1_555
Fe4_2 O8_2 1_555 1_555
O5_2 Fe7 1_555 1_555
O6_2 Fe13 1_555 1_555
O8_2 C4_2 1_555 1_555
O9_2 Fe7 1_555 1_555
O10_2 Fe4_2 1_555 1_555
O11_2 Fe7 1_555 1_555
O12_2 C6_2 1_555 1_555
C3_2 O5_2 1_555 1_555
C4_2 O26 1_555 1_555
C5_2 O9_2 1_555 1_555
C6_2 O11_2 1_555 1_555
H3_2 C3_2 1_555 1_555
H4_2 C4_2 1_555 1_555
H5_2 C5_2 1_555 1_555
H6_2 C6_2 1_555 1_555
Fe6 O14 1_555 1_555
O16_2 Fe10 1_555 1_555
O18_2 Fe10 1_555 1_555
O20_2 Fe13 1_555 1_555
O23 Fe6 1_555 1_555
O24_2 Fe13 1_555 1_555
O25_2 Fe10 1_555 1_555
O28_2 Fe13 1_555 1_555
O30 C11_2 1_555 1_555
C8_2 O18_2 1_555 1_555
C10_2 O23 1_555 1_555
C11_2 O28_2 1_555 1_555
H8_2 C8_2 1_555 1_555
H10_2 C10_2 1_555 1_555
H11_2 C11_2 1_555 1_555
Fe13 O9_2 1_555 1_555
Fe4_2 O11_2 1_555 1_555
O5_2 Fe12 1_555 1_555
O6_2 C3_2 1_555 1_555
O10_2 C5_2 1_555 1_555
O12_2 Fe12 1_555 1_555
Fe6 O18_2 1_555 1_555
Fe6 O25_2 1_555 1_555
Fe6 O28_2 1_555 1_555
O20_2 C8_2 1_555 1_555
O24_2 C10_2 1_555 1_555
O27 C4_3 1_555 1_555
C4_3 O25 1_555 1_555
H4_3 C4_3 1_555 1_555
O13 C1_2 1_555 1_555
O16 C1_2 1_555 1_555
C1_2 H1_2 1_555 1_555
O14 C7_2 1_555 1_555
C7_2 O16_2 1_555 1_555
H7_2 C7_2 1_555 1_555
O27_2 C4_4 1_555 1_555
C4_4 O25_2 1_555 1_555
H4_4 C4_4 1_555 1_555

#END
