
###############################################################################
#
# This file contains modified crystal structure data generated from the
# MOF subset of the Cambridge Structural Database (CSD) v543 
# hosted by the Cambridge Crystallographic Data Centre (CCDC).
#
# This work is licensed under the Creative Commons
# Attribution-NonCommercial-ShareAlike 4.0 International License.
# To view a copy of this license, visit
# http://creativecommons.org/licenses/by-nc-sa/4.0/
# or send a letter to
# Creative Commons, PO Box 1866, Mountain View, CA 94042, USA.
#
# CIF created using the CSD Python API on 29 September 2022
# The structure has been converted into the P1 space group
# The structure has a 3D framework
# The original CSD entry NIHBEM02 is in the monoclinic crystal system
# The framework has been calculated to contain at least 10.0% void space
# The void calculation uses a probe of radius 1.32A, grid spacing 0.4
#
###############################################################################

data_NIHBEM02
_chemical_formula_moiety         '(C24 H24 Fe20 O48)n'
_symmetry_cell_setting           triclinic
_symmetry_space_group_name_H-M   'P 1'
_symmetry_Int_Tables_number      1
_space_group_name_Hall           'P 1'
loop_
_symmetry_equiv_pos_site_id
_symmetry_equiv_pos_as_xyz
1 x,y,z
_cell_length_a                   11.4136(3)
_cell_length_b                   9.9922(2)
_cell_length_c                   18.6468(5)
_cell_angle_alpha                90
_cell_angle_beta                 126.6110(10)
_cell_angle_gamma                90
_cell_volume                     1707.04
loop_
_atom_site_label
_atom_site_type_symbol
_atom_site_fract_x
_atom_site_fract_y
_atom_site_fract_z
Fe14 Fe -0.0000 0.0000 0.0000
Fe14_2 Fe 0.0000 0.0000 1.0000
Fe14_3 Fe -0.0000 1.0000 0.0000
Fe14_4 Fe 0.0000 1.0000 1.0000
Fe1 Fe 0.37889(4) 0.07594(4) 0.13371(3)
Fe3 Fe 0.5000 0.0000 0.0000
O1 O 0.4408(2) 0.19315(18) 0.24839(12)
O2 O 0.5540(2) 0.05395(19) 0.36530(13)
O5 O 0.4602(2) 0.25395(18) 0.11276(13)
O6 O 0.4969(2) 0.2090(2) 0.01038(15)
O11 O 0.1663(2) 0.15321(18) 0.06527(13)
O12 O 0.2064(2) 0.37147(19) 0.10057(14)
C1 C 0.5019(3) 0.1646(3) 0.3295(2)
C3 C 0.4874(4) 0.2853(3) 0.0583(2)
C6 C 0.1263(4) 0.2745(3) 0.0595(2)
H1 H 0.510(3) 0.235(3) 0.369(2)
H3 H 0.496(4) 0.377(3) 0.054(2)
H6 H 0.027(4) 0.290(3) 0.020(2)
Fe7 Fe 0.62111(4) 0.57594(4) 0.36629(3)
Fe9 Fe 0.43142(4) 0.38419(4) 0.19274(3)
Fe12 Fe 0.56858(4) 0.88419(4) 0.30726(3)
Fe13 Fe 0.5000 0.5000 0.5000
Fe14_5 Fe 1.0000 0.0000 0.0000
O15 O 0.5592(2) 0.69315(18) 0.25161(12)
O17 O 0.4460(2) 0.55395(19) 0.13470(13)
O19 O 0.4107(2) 0.48817(18) 0.28447(13)
O21 O 0.3227(2) 0.4835(2) 0.36328(14)
O26 O 0.6557(2) 0.41169(18) 0.30684(13)
O29 O 0.8900(2) 0.1027(2) 0.04082(15)
C7 C 0.4981(3) 0.6646(3) 0.1705(2)
C9 C 0.3106(4) 0.4718(3) 0.2936(2)
C11 C 0.7775(3) 0.0948(3) 0.0348(2)
H7 H 0.490(3) 0.735(3) 0.131(2)
H9 H 0.219(4) 0.446(3) 0.241(2)
H11 H 0.771(3) 0.146(3) 0.074(2)
Fe2 Fe 0.43142(4) 0.11581(4) 0.69274(3)
Fe3_2 Fe 0.5000 0.0000 1.0000
Fe14_6 Fe 1.0000 0.0000 1.0000
O14 O 0.4408(2) 0.30685(18) 0.74839(12)
O18 O 0.4107(2) 0.01183(18) 0.78447(13)
O20 O 0.3227(2) 0.0165(2) 0.86328(14)
O23 O 0.4602(2) 0.24605(18) 0.61276(13)
O25 O 0.6557(2) 0.08831(18) 0.80684(13)
O28 O 0.6649(2) 0.02494(19) 0.97836(13)
O33 O 0.2064(2) 0.12853(19) 0.60057(14)
C8 C 0.3106(4) 0.0282(3) 0.7936(2)
H8 H 0.219(4) 0.054(3) 0.741(2)
Fe3_3 Fe 0.5000 1.0000 0.0000
O3 O 0.5893(2) 0.98817(18) 0.21553(13)
O4 O 0.6773(2) 0.9835(2) 0.13672(14)
O7 O 0.3443(2) 0.91169(18) 0.19316(13)
O8 O 0.1040(2) 0.8827(2) 0.11662(15)
O9 O 0.3351(2) 0.97506(19) 0.02164(13)
C2 C 0.6894(4) 0.9718(3) 0.2064(2)
C4 C 0.2316(4) 0.8575(3) 0.1787(2)
H2 H 0.781(4) 0.946(3) 0.259(2)
H4 H 0.244(4) 0.779(4) 0.218(2)
Fe14_7 Fe 1.0000 1.0000 0.0000
Fe3_4 Fe 0.5000 1.0000 1.0000
O10 O 0.1100(2) 0.8973(2) 0.95918(15)
C5 C 0.2225(3) 0.9052(3) 0.9652(2)
H5 H 0.229(3) 0.854(3) 0.926(2)
Fe5 Fe 0.62111(4) 0.92406(4) 0.86629(3)
Fe10 Fe 0.56858(4) 0.61581(4) 0.80726(3)
Fe14_8 Fe 1.0000 1.0000 1.0000
O13 O 0.5592(2) 0.80685(18) 0.75161(12)
O16 O 0.4460(2) 0.94605(19) 0.63470(13)
O22 O 0.5398(2) 0.74605(18) 0.88724(13)
O24 O 0.5031(2) 0.7910(2) 0.98962(15)
O32 O 0.8337(2) 0.84679(18) 0.93473(13)
C10 C 0.5126(4) 0.7147(3) 0.9417(2)
H10 H 0.504(4) 0.623(3) 0.946(2)
O27 O 0.8960(2) 0.1173(2) 0.88338(15)
O34 O 0.7936(2) 0.62853(19) 0.89943(14)
C12 C 0.8737(4) 0.7255(3) 0.9405(2)
H12 H 0.973(4) 0.710(3) 0.980(2)
Fe4 Fe 0.0000 0.5000 0.5000
Fe6 Fe 0.37889(4) 0.42406(4) 0.63371(3)
O27_2 O 0.1040(2) 0.6173(2) 0.61662(15)
O30 O 0.1100(2) 0.6027(2) 0.45918(15)
O31 O 0.1663(2) 0.34679(18) 0.56527(13)
C12_2 C 0.1263(4) 0.2255(3) 0.5595(2)
H12_2 H 0.027(4) 0.210(3) 0.520(2)
Fe4_2 Fe 1.0000 0.5000 0.5000
O5_2 O 0.5398(2) 0.75395(18) 0.38724(13)
O6_2 O 0.5031(2) 0.7090(2) 0.48962(15)
O8_2 O 0.8960(2) 0.3827(2) 0.38338(15)
O9_2 O 0.6649(2) 0.47506(19) 0.47836(13)
O10_2 O 0.8900(2) 0.3973(2) 0.54082(15)
O11_2 O 0.8337(2) 0.65321(18) 0.43473(13)
O12_2 O 0.7936(2) 0.87147(19) 0.39943(14)
C3_2 C 0.5126(4) 0.7853(3) 0.4417(2)
C4_2 C 0.7684(4) 0.3575(3) 0.3213(2)
C5_2 C 0.7775(3) 0.4052(3) 0.5348(2)
C6_2 C 0.8737(4) 0.7745(3) 0.4405(2)
H3_2 H 0.504(4) 0.877(3) 0.446(2)
H4_2 H 0.756(4) 0.279(4) 0.282(2)
H5_2 H 0.771(3) 0.354(3) 0.574(2)
H6_2 H 0.973(4) 0.790(3) 0.480(2)
O16_2 O 0.5540(2) 0.44605(19) 0.86530(13)
O18_2 O 0.5893(2) 0.51183(18) 0.71553(13)
O20_2 O 0.6773(2) 0.5165(2) 0.63672(14)
O24_2 O 0.4969(2) 0.2910(2) 0.51038(15)
O25_2 O 0.3443(2) 0.58831(18) 0.69316(13)
O28_2 O 0.3351(2) 0.52494(19) 0.52164(13)
C8_2 C 0.6894(4) 0.5282(3) 0.7064(2)
C10_2 C 0.4874(4) 0.2147(3) 0.5583(2)
C11_2 C 0.2225(3) 0.5948(3) 0.4652(2)
H8_2 H 0.781(4) 0.554(3) 0.759(2)
H10_2 H 0.496(4) 0.123(3) 0.554(2)
H11_2 H 0.229(3) 0.646(3) 0.426(2)
C4_3 C 0.7684(4) 0.1425(3) 0.8213(2)
H4_3 H 0.756(4) 0.221(4) 0.782(2)
C1_2 C 0.4981(3) 0.8354(3) 0.6705(2)
H1_2 H 0.490(3) 0.765(3) 0.631(2)
C7_2 C 0.5019(3) 0.3354(3) 0.8295(2)
H7_2 H 0.510(3) 0.265(3) 0.869(2)
C4_4 C 0.2316(4) 0.6425(3) 0.6787(2)
H4_4 H 0.244(4) 0.721(4) 0.718(2)
loop_
_geom_bond_atom_site_label_1
_geom_bond_atom_site_label_2
_geom_bond_site_symmetry_1
_geom_bond_site_symmetry_2
Fe1 O1 1_555 1_555
O1 C1 1_555 1_555
O2 C1 1_555 1_555
O5 Fe1 1_555 1_555
O6 Fe3 1_555 1_555
O11 Fe1 1_555 1_555
O12 C6 1_555 1_555
C1 H1 1_555 1_555
C3 O5 1_555 1_555
C6 O11 1_555 1_555
H3 C3 1_555 1_555
H6 C6 1_555 1_555
Fe7 O15 1_555 1_555
Fe9 O1 1_555 1_555
Fe12 O15 1_555 1_555
Fe13 O21 1_555 1_555
Fe14_5 O29 1_555 1_555
O15 C7 1_555 1_555
O17 Fe9 1_555 1_555
O19 Fe7 1_555 1_555
O21 C9 1_555 1_555
O26 Fe7 1_555 1_555
O29 C11 1_555 1_555
C7 O17 1_555 1_555
C9 O19 1_555 1_555
H7 C7 1_555 1_555
H9 C9 1_555 1_555
H11 C11 1_555 1_555
Fe14 O11 1_555 1_555
O5 Fe9 1_555 1_555
O6 C3 1_555 1_555
O12 Fe9 1_555 1_555
Fe9 O19 1_555 1_555
Fe9 O26 1_555 1_555
Fe2 O14 1_555 1_555
O18 Fe2 1_555 1_555
O20 Fe3_2 1_555 1_555
O23 Fe2 1_555 1_555
O25 Fe2 1_555 1_555
O28 Fe3_2 1_555 1_555
O33 Fe2 1_555 1_555
C8 O18 1_555 1_555
H8 C8 1_555 1_555
O20 C8 1_555 1_555
Fe3_3 O4 1_555 1_555
Fe14_3 O8 1_555 1_555
O4 C2 1_555 1_555
O8 C4 1_555 1_555
C2 O3 1_555 1_555
C4 O7 1_555 1_555
H2 C2 1_555 1_555
H4 C4 1_555 1_555
Fe3_3 O9 1_555 1_555
O3 Fe12 1_555 1_555
O7 Fe12 1_555 1_555
O10 Fe14_4 1_555 1_555
H5 C5 1_555 1_555
Fe5 O13 1_555 1_555
Fe10 O13 1_555 1_555
O22 Fe5 1_555 1_555
O24 Fe3_4 1_555 1_555
O32 Fe5 1_555 1_555
C10 O22 1_555 1_555
H10 C10 1_555 1_555
O10 C5 1_555 1_555
Fe10 O22 1_555 1_555
Fe14_8 O32 1_555 1_555
O24 C10 1_555 1_555
O27 Fe14_6 1_555 1_555
Fe10 O34 1_555 1_555
O34 C12 1_555 1_555
C12 O32 1_555 1_555
H12 C12 1_555 1_555
Fe6 O31 1_555 1_555
O27_2 Fe4 1_555 1_555
O30 Fe4 1_555 1_555
O31 Fe4 1_555 1_555
O33 C12_2 1_555 1_555
C12_2 O31 1_555 1_555
H12_2 C12_2 1_555 1_555
Fe4_2 O8_2 1_555 1_555
O5_2 Fe7 1_555 1_555
O6_2 Fe13 1_555 1_555
O8_2 C4_2 1_555 1_555
O9_2 Fe7 1_555 1_555
O10_2 Fe4_2 1_555 1_555
O11_2 Fe7 1_555 1_555
O12_2 C6_2 1_555 1_555
C3_2 O5_2 1_555 1_555
C4_2 O26 1_555 1_555
C5_2 O9_2 1_555 1_555
C6_2 O11_2 1_555 1_555
H3_2 C3_2 1_555 1_555
H4_2 C4_2 1_555 1_555
H5_2 C5_2 1_555 1_555
H6_2 C6_2 1_555 1_555
Fe6 O14 1_555 1_555
O16_2 Fe10 1_555 1_555
O18_2 Fe10 1_555 1_555
O20_2 Fe13 1_555 1_555
O23 Fe6 1_555 1_555
O24_2 Fe13 1_555 1_555
O25_2 Fe10 1_555 1_555
O28_2 Fe13 1_555 1_555
O30 C11_2 1_555 1_555
C8_2 O18_2 1_555 1_555
C10_2 O23 1_555 1_555
C11_2 O28_2 1_555 1_555
H8_2 C8_2 1_555 1_555
H10_2 C10_2 1_555 1_555
H11_2 C11_2 1_555 1_555
Fe13 O9_2 1_555 1_555
Fe4_2 O11_2 1_555 1_555
O5_2 Fe12 1_555 1_555
O6_2 C3_2 1_555 1_555
O10_2 C5_2 1_555 1_555
O12_2 Fe12 1_555 1_555
Fe6 O18_2 1_555 1_555
Fe6 O25_2 1_555 1_555
Fe6 O28_2 1_555 1_555
O20_2 C8_2 1_555 1_555
O24_2 C10_2 1_555 1_555
O27 C4_3 1_555 1_555
C4_3 O25 1_555 1_555
H4_3 C4_3 1_555 1_555
O13 C1_2 1_555 1_555
O16 C1_2 1_555 1_555
C1_2 H1_2 1_555 1_555
O14 C7_2 1_555 1_555
C7_2 O16_2 1_555 1_555
H7_2 C7_2 1_555 1_555
O27_2 C4_4 1_555 1_555
C4_4 O25_2 1_555 1_555
H4_4 C4_4 1_555 1_555

#END
