
###############################################################################
#
# This file contains modified crystal structure data generated from the
# MOF subset of the Cambridge Structural Database (CSD) v543 
# hosted by the Cambridge Crystallographic Data Centre (CCDC).
#
# This work is licensed under the Creative Commons
# Attribution-NonCommercial-ShareAlike 4.0 International License.
# To view a copy of this license, visit
# http://creativecommons.org/licenses/by-nc-sa/4.0/
# or send a letter to
# Creative Commons, PO Box 1866, Mountain View, CA 94042, USA.
#
# CIF created using the CSD Python API on 29 September 2022
# The structure has been converted into the P1 space group
# The structure has a 3D framework
# The original CSD entry NIHBAI is in the monoclinic crystal system
# The framework has been calculated to contain at least 10.0% void space
# The void calculation uses a probe of radius 1.32A, grid spacing 0.4
#
###############################################################################

data_NIHBAI
_chemical_formula_moiety         '(C24 H24 Fe19 O48)n'
_symmetry_cell_setting           triclinic
_symmetry_space_group_name_H-M   'P 1'
_symmetry_Int_Tables_number      1
_space_group_name_Hall           'P 1'
loop_
_symmetry_equiv_pos_site_id
_symmetry_equiv_pos_as_xyz
1 x,y,z
_cell_length_a                   11.3594(2)
_cell_length_b                   9.8177(2)
_cell_length_c                   18.3724(4)
_cell_angle_alpha                90
_cell_angle_beta                 126.9310(10)
_cell_angle_gamma                90
_cell_volume                     1637.85
loop_
_atom_site_label
_atom_site_type_symbol
_atom_site_fract_x
_atom_site_fract_y
_atom_site_fract_z
Fe14 Fe 0.0000 0.0000 0.0000
Fe14_2 Fe 0.0000 -0.0000 1.0000
Fe14_3 Fe -0.0000 1.0000 0.0000
Fe14_4 Fe 0.0000 1.0000 1.0000
Fe1 Fe 0.37769(5) 0.08495(5) 0.13311(3)
Fe3 Fe 0.5000 0.0000 0.0000
O1 O 0.4347(3) 0.2072(2) 0.24557(16)
O2 O 0.5507(3) 0.0703(2) 0.36766(16)
O3 O 0.5921(3) 0.0032(2) 0.22000(17)
O4 O 0.6794(3) 0.0030(3) 0.13866(17)
O5 O 0.4544(3) 0.2630(2) 0.10685(16)
O11 O 0.1589(3) 0.1578(2) 0.05939(16)
O12 O 0.1996(3) 0.3817(2) 0.09078(18)
C1 C 0.4949(4) 0.1798(4) 0.3288(2)
H1 H 0.4970 0.2509 0.3646
C3 C 0.4731(4) 0.2929(4) 0.0468(2)
H3 H 0.4814 0.3868 0.0381
C6 C 0.1168(4) 0.2831(4) 0.0495(3)
H6 H 0.0144 0.3011 0.0073
Fe7 Fe 0.62231(5) 0.58495(5) 0.36689(3)
Fe9 Fe 0.42585(6) 0.39773(5) 0.18692(3)
Fe12 Fe 0.57415(6) 0.89773(5) 0.31308(3)
Fe13 Fe 0.5000 0.5000 0.5000
Fe14_5 Fe 1.0000 0.0000 0.0000
O15 O 0.5653(3) 0.7072(2) 0.25443(16)
O17 O 0.4493(3) 0.5703(2) 0.13234(16)
O19 O 0.4079(3) 0.5032(2) 0.28000(17)
O21 O 0.3206(3) 0.5030(3) 0.36134(17)
O26 O 0.6539(3) 0.4213(2) 0.30359(15)
O29 O 0.8851(3) 0.1098(3) 0.03239(19)
C7 C 0.5051(4) 0.6798(4) 0.1712(2)
H7 H 0.5030 0.7509 0.1354
C9 C 0.3048(4) 0.4911(4) 0.2887(3)
H9 H 0.2087 0.4714 0.2354
C11 C 0.7749(4) 0.1024(4) 0.0299(3)
H11 H 0.7717 0.1587 0.0707
Fe2 Fe 0.42585(6) 0.10227(5) 0.68692(3)
Fe3_2 Fe 0.5000 -0.0000 1.0000
O6 O 0.4813(3) 0.2112(3) 0.99907(17)
Fe14_6 Fe 1.0000 -0.0000 1.0000
O14 O 0.4347(3) 0.2928(2) 0.74557(16)
O23 O 0.4544(3) 0.2370(2) 0.60685(16)
O25 O 0.6539(3) 0.0787(2) 0.80359(15)
O28 O 0.6627(3) 0.0246(2) 0.97634(17)
O33 O 0.1996(3) 0.1183(2) 0.59078(18)
C8 C 0.3048(4) 0.0089(4) 0.7887(3)
H8 H 0.2087 0.0286 0.7354
Fe3_3 Fe 0.5000 1.0000 0.0000
O7 O 0.3461(3) 0.9213(2) 0.19641(15)
O8 O 0.1022(3) 0.8985(3) 0.12094(18)
O9 O 0.3373(3) 0.9754(2) 0.02366(17)
C2 C 0.6952(4) 0.9911(4) 0.2113(3)
H2 H 0.7913 0.9714 0.2646
C4 C 0.2326(4) 0.8743(4) 0.1864(2)
H4 H 0.2487 0.8157 0.2327
Fe14_7 Fe 1.0000 1.0000 0.0000
O24 O 0.5187(3) 0.7888(3) 0.00093(17)
Fe3_4 Fe 0.5000 1.0000 1.0000
O10 O 0.1149(3) 0.8902(3) 0.96761(19)
C5 C 0.2251(4) 0.8976(4) 0.9701(3)
H5 H 0.2283 0.8413 0.9293
Fe5 Fe 0.62231(5) 0.91505(5) 0.86689(3)
Fe10 Fe 0.57415(6) 0.60227(5) 0.81308(3)
Fe14_8 Fe 1.0000 1.0000 1.0000
O13 O 0.5653(3) 0.7928(2) 0.75443(16)
O16 O 0.4493(3) 0.9297(2) 0.63234(16)
O18 O 0.4079(3) 0.9968(2) 0.78000(17)
O20 O 0.3206(3) 0.9970(3) 0.86134(17)
O22 O 0.5456(3) 0.7370(2) 0.89315(16)
O32 O 0.8411(3) 0.8422(2) 0.94061(16)
C10 C 0.5269(4) 0.7071(4) 0.9532(2)
H10 H 0.5186 0.6132 0.9619
O27 O 0.8978(3) 0.1015(3) 0.87906(18)
O34 O 0.8004(3) 0.6183(2) 0.90922(18)
C12 C 0.8832(4) 0.7169(4) 0.9505(3)
H12 H 0.9856 0.6989 0.9927
Fe4 Fe 0.0000 0.5000 0.5000
Fe6 Fe 0.37769(5) 0.41505(5) 0.63311(3)
O27_2 O 0.1022(3) 0.6015(3) 0.62094(18)
O30 O 0.1149(3) 0.6098(3) 0.46761(19)
O31 O 0.1589(3) 0.3422(2) 0.55939(16)
C12_2 C 0.1168(4) 0.2169(4) 0.5495(3)
H12_2 H 0.0144 0.1989 0.5073
Fe4_2 Fe 1.0000 0.5000 0.5000
O5_2 O 0.5456(3) 0.7630(2) 0.39315(16)
O6_2 O 0.5187(3) 0.7112(3) 0.50093(17)
O8_2 O 0.8978(3) 0.3985(3) 0.37906(18)
O9_2 O 0.6627(3) 0.4754(2) 0.47634(17)
O10_2 O 0.8851(3) 0.3902(3) 0.53239(19)
O11_2 O 0.8411(3) 0.6578(2) 0.44061(16)
O12_2 O 0.8004(3) 0.8817(2) 0.40922(18)
C3_2 C 0.5269(4) 0.7929(4) 0.4532(2)
H3_2 H 0.5186 0.8868 0.4619
C4_2 C 0.7674(4) 0.3743(4) 0.3136(2)
H4_2 H 0.7513 0.3157 0.2673
C5_2 C 0.7749(4) 0.3976(4) 0.5299(3)
H5_2 H 0.7717 0.3413 0.5707
C6_2 C 0.8832(4) 0.7831(4) 0.4505(3)
H6_2 H 0.9856 0.8011 0.4927
O16_2 O 0.5507(3) 0.4297(2) 0.86766(16)
O18_2 O 0.5921(3) 0.4968(2) 0.72000(17)
O20_2 O 0.6794(3) 0.4970(3) 0.63866(17)
O24_2 O 0.4813(3) 0.2888(3) 0.49907(17)
O25_2 O 0.3461(3) 0.5787(2) 0.69641(15)
O28_2 O 0.3373(3) 0.5246(2) 0.52366(17)
C8_2 C 0.6952(4) 0.5089(4) 0.7113(3)
H8_2 H 0.7913 0.5286 0.7646
C10_2 C 0.4731(4) 0.2071(4) 0.5468(2)
H10_2 H 0.4814 0.1132 0.5381
C11_2 C 0.2251(4) 0.6024(4) 0.4701(3)
H11_2 H 0.2283 0.6587 0.4293
C4_3 C 0.7674(4) 0.1257(4) 0.8136(2)
H4_3 H 0.7513 0.1843 0.7673
C1_2 C 0.5051(4) 0.8202(4) 0.6712(2)
H1_2 H 0.5030 0.7491 0.6354
C7_2 C 0.4949(4) 0.3202(4) 0.8288(2)
H7_2 H 0.4970 0.2491 0.8646
C4_4 C 0.2326(4) 0.6257(4) 0.6864(2)
H4_4 H 0.2487 0.6843 0.7327
loop_
_geom_bond_atom_site_label_1
_geom_bond_atom_site_label_2
_geom_bond_site_symmetry_1
_geom_bond_site_symmetry_2
Fe1 O1 1_555 1_555
Fe3 O4 1_555 1_555
O1 C1 1_555 1_555
O2 C1 1_555 1_555
O3 Fe1 1_555 1_555
O5 Fe1 1_555 1_555
O11 Fe1 1_555 1_555
O12 C6 1_555 1_555
C1 H1 1_555 1_555
C3 O5 1_555 1_555
H3 C3 1_555 1_555
C6 O11 1_555 1_555
H6 C6 1_555 1_555
Fe7 O15 1_555 1_555
Fe9 O1 1_555 1_555
Fe12 O15 1_555 1_555
Fe13 O21 1_555 1_555
Fe14_5 O29 1_555 1_555
O15 C7 1_555 1_555
O17 Fe9 1_555 1_555
O19 Fe7 1_555 1_555
O21 C9 1_555 1_555
O26 Fe7 1_555 1_555
O29 C11 1_555 1_555
C7 O17 1_555 1_555
H7 C7 1_555 1_555
C9 O19 1_555 1_555
H9 C9 1_555 1_555
H11 C11 1_555 1_555
Fe14 O11 1_555 1_555
O5 Fe9 1_555 1_555
O12 Fe9 1_555 1_555
Fe9 O19 1_555 1_555
Fe9 O26 1_555 1_555
Fe2 O14 1_555 1_555
O6 Fe3_2 1_555 1_555
O23 Fe2 1_555 1_555
O25 Fe2 1_555 1_555
O28 Fe3_2 1_555 1_555
O33 Fe2 1_555 1_555
H8 C8 1_555 1_555
Fe14_3 O8 1_555 1_555
O8 C4 1_555 1_555
H2 C2 1_555 1_555
C4 O7 1_555 1_555
H4 C4 1_555 1_555
O24 Fe3_3 1_555 1_555
Fe3_3 O9 1_555 1_555
O7 Fe12 1_555 1_555
O10 Fe14_4 1_555 1_555
H5 C5 1_555 1_555
Fe5 O13 1_555 1_555
Fe10 O13 1_555 1_555
O20 Fe3_4 1_555 1_555
O22 Fe5 1_555 1_555
O32 Fe5 1_555 1_555
C10 O22 1_555 1_555
H10 C10 1_555 1_555
O10 C5 1_555 1_555
Fe5 O18 1_555 1_555
Fe10 O22 1_555 1_555
Fe14_8 O32 1_555 1_555
O27 Fe14_6 1_555 1_555
Fe10 O34 1_555 1_555
O34 C12 1_555 1_555
C12 O32 1_555 1_555
H12 C12 1_555 1_555
Fe6 O31 1_555 1_555
O27_2 Fe4 1_555 1_555
O30 Fe4 1_555 1_555
O31 Fe4 1_555 1_555
O33 C12_2 1_555 1_555
C12_2 O31 1_555 1_555
H12_2 C12_2 1_555 1_555
Fe4_2 O8_2 1_555 1_555
O5_2 Fe7 1_555 1_555
O6_2 Fe13 1_555 1_555
O8_2 C4_2 1_555 1_555
O9_2 Fe7 1_555 1_555
O10_2 Fe4_2 1_555 1_555
O11_2 Fe7 1_555 1_555
O12_2 C6_2 1_555 1_555
C3_2 O5_2 1_555 1_555
H3_2 C3_2 1_555 1_555
C4_2 O26 1_555 1_555
H4_2 C4_2 1_555 1_555
C5_2 O9_2 1_555 1_555
H5_2 C5_2 1_555 1_555
C6_2 O11_2 1_555 1_555
H6_2 C6_2 1_555 1_555
Fe6 O14 1_555 1_555
O16_2 Fe10 1_555 1_555
O18_2 Fe10 1_555 1_555
O20_2 Fe13 1_555 1_555
O23 Fe6 1_555 1_555
O24_2 Fe13 1_555 1_555
O25_2 Fe10 1_555 1_555
O28_2 Fe13 1_555 1_555
O30 C11_2 1_555 1_555
C8_2 O18_2 1_555 1_555
H8_2 C8_2 1_555 1_555
C10_2 O23 1_555 1_555
H10_2 C10_2 1_555 1_555
C11_2 O28_2 1_555 1_555
H11_2 C11_2 1_555 1_555
Fe13 O9_2 1_555 1_555
Fe4_2 O11_2 1_555 1_555
O5_2 Fe12 1_555 1_555
O6_2 C3_2 1_555 1_555
O10_2 C5_2 1_555 1_555
O12_2 Fe12 1_555 1_555
Fe6 O18_2 1_555 1_555
Fe6 O25_2 1_555 1_555
Fe6 O28_2 1_555 1_555
O20_2 C8_2 1_555 1_555
O24_2 C10_2 1_555 1_555
O27 C4_3 1_555 1_555
C4_3 O25 1_555 1_555
H4_3 C4_3 1_555 1_555
O13 C1_2 1_555 1_555
O16 C1_2 1_555 1_555
C1_2 H1_2 1_555 1_555
O14 C7_2 1_555 1_555
C7_2 O16_2 1_555 1_555
H7_2 C7_2 1_555 1_555
O27_2 C4_4 1_555 1_555
C4_4 O25_2 1_555 1_555
H4_4 C4_4 1_555 1_555

#END
