
###############################################################################
#
# This file contains modified crystal structure data generated from the
# MOF subset of the Cambridge Structural Database (CSD) v543 
# hosted by the Cambridge Crystallographic Data Centre (CCDC).
#
# This work is licensed under the Creative Commons
# Attribution-NonCommercial-ShareAlike 4.0 International License.
# To view a copy of this license, visit
# http://creativecommons.org/licenses/by-nc-sa/4.0/
# or send a letter to
# Creative Commons, PO Box 1866, Mountain View, CA 94042, USA.
#
# CIF created using the CSD Python API on 29 September 2022
# The structure has been converted into the P1 space group
# The structure has a 3D framework
# The original CSD entry NIHBAI02 is in the monoclinic crystal system
# The framework has been calculated to contain at least 10.0% void space
# The void calculation uses a probe of radius 1.32A, grid spacing 0.4
#
###############################################################################

data_NIHBAI02
_chemical_formula_moiety         '(C24 H24 Fe20 O50)n'
_symmetry_cell_setting           triclinic
_symmetry_space_group_name_H-M   'P 1'
_symmetry_Int_Tables_number      1
_space_group_name_Hall           'P 1'
loop_
_symmetry_equiv_pos_site_id
_symmetry_equiv_pos_as_xyz
1 x,y,z
_cell_length_a                   11.4198(2)
_cell_length_b                   9.8979(2)
_cell_length_c                   18.4392(4)
_cell_angle_alpha                90
_cell_angle_beta                 126.8530(10)
_cell_angle_gamma                90
_cell_volume                     1667.75
loop_
_atom_site_label
_atom_site_type_symbol
_atom_site_fract_x
_atom_site_fract_y
_atom_site_fract_z
Fe14 Fe 0.0000 0.0000 0.0000
Fe14_2 Fe -0.0000 -0.0000 1.0000
Fe14_3 Fe 0.0000 1.0000 0.0000
Fe14_4 Fe -0.0000 1.0000 1.0000
Fe1 Fe 0.37725(5) 0.08216(5) 0.13297(3)
Fe3 Fe 0.5000 0.0000 0.0000
O1 O 0.4371(3) 0.2028(2) 0.24630(15)
O2 O 0.5497(3) 0.0643(3) 0.36579(16)
O4 O 0.6763(3) -0.0001(3) 0.13793(18)
O5 O 0.4547(3) 0.2594(2) 0.10745(15)
O6 O 0.4843(3) 0.2098(3) 0.00171(18)
O11 O 0.1597(3) 0.1558(3) 0.06076(15)
O12 O 0.2033(3) 0.3770(3) 0.09432(18)
C1 C 0.4962(4) 0.1735(4) 0.3292(2)
H1 H 0.4987 0.2413 0.3649
C3 C 0.4742(4) 0.2894(4) 0.0492(2)
H3 H 0.4817 0.3808 0.0410
C6 C 0.1196(4) 0.2803(4) 0.0532(3)
H6 H 0.0200 0.2987 0.0138
Fe7 Fe 0.62275(5) 0.58216(5) 0.36703(3)
Fe9 Fe 0.42781(5) 0.39330(5) 0.18833(3)
Fe12 Fe 0.57219(5) 0.89330(5) 0.31167(3)
Fe13 Fe 0.5000 0.5000 0.5000
Fe14_5 Fe 1.0000 0.0000 0.0000
O15 O 0.5629(3) 0.7028(2) 0.25370(15)
O17 O 0.4503(3) 0.5643(3) 0.13421(16)
O19 O 0.4105(3) 0.4984(2) 0.28160(16)
O21 O 0.3237(3) 0.4999(3) 0.36207(18)
O26 O 0.6547(3) 0.4186(2) 0.30452(15)
O29 O 0.8853(3) 0.1045(3) 0.0342(2)
C7 C 0.5038(4) 0.6735(4) 0.1708(2)
H7 H 0.5013 0.7413 0.1351
C9 C 0.3087(4) 0.4865(4) 0.2904(2)
H9 H 0.2156 0.4659 0.2387
C11 C 0.7761(4) 0.0971(4) 0.0317(3)
H11 H 0.7751 0.1490 0.0733
Fe2 Fe 0.42781(5) 0.10670(5) 0.68833(3)
Fe3_2 Fe 0.5000 -0.0000 1.0000
Fe14_6 Fe 1.0000 -0.0000 1.0000
O14 O 0.4371(3) 0.2972(2) 0.74630(15)
O18 O 0.4105(3) 0.0016(2) 0.78160(16)
O20 O 0.3237(3) 0.0001(3) 0.86207(18)
O23 O 0.4547(3) 0.2406(2) 0.60745(15)
O25 O 0.6547(3) 0.0814(2) 0.80452(15)
O28 O 0.6635(3) 0.0246(3) 0.97722(16)
O33 O 0.2033(3) 0.1230(3) 0.59432(18)
C8 C 0.3087(4) 0.0135(4) 0.7904(2)
H8 H 0.2156 0.0341 0.7387
Fe3_3 Fe 0.5000 1.0000 0.0000
O3 O 0.5895(3) 0.9984(2) 0.21840(16)
O4_2 O 0.6763(3) 0.9999(3) 0.13793(18)
O7 O 0.3453(3) 0.9186(2) 0.19548(15)
O8 O 0.1047(3) 0.8945(3) 0.11953(19)
O9 O 0.3365(3) 0.9754(3) 0.02278(16)
C2 C 0.6913(4) 0.9865(4) 0.2096(2)
H2 H 0.7844 0.9659 0.2613
C4 C 0.2319(4) 0.8703(4) 0.1829(2)
H4 H 0.2468 0.8101 0.2265
Fe14_7 Fe 1.0000 1.0000 0.0000
Fe3_4 Fe 0.5000 1.0000 1.0000
O10 O 0.1147(3) 0.8955(3) 0.9658(2)
C5 C 0.2239(4) 0.9029(4) 0.9683(3)
H5 H 0.2249 0.8510 0.9267
Fe5 Fe 0.62275(5) 0.91784(5) 0.86703(3)
Fe10 Fe 0.57219(5) 0.60670(5) 0.81167(3)
Fe14_8 Fe 1.0000 1.0000 1.0000
O13 O 0.5629(3) 0.7972(2) 0.75370(15)
O16 O 0.4503(3) 0.9357(3) 0.63421(16)
O20_2 O 0.3237(3) 1.0001(3) 0.86207(18)
O22 O 0.5453(3) 0.7406(2) 0.89255(15)
O24 O 0.5157(3) 0.7902(3) 0.99829(18)
O32 O 0.8403(3) 0.8442(3) 0.93924(15)
C10 C 0.5258(4) 0.7106(4) 0.9508(2)
H10 H 0.5183 0.6192 0.9590
O27 O 0.8953(3) 0.1055(3) 0.88047(19)
O34 O 0.7967(3) 0.6230(3) 0.90568(18)
C12 C 0.8804(4) 0.7197(4) 0.9468(3)
H12 H 0.9800 0.7013 0.9862
Fe4 Fe -0.0000 0.5000 0.5000
Fe6 Fe 0.37725(5) 0.41784(5) 0.63297(3)
O27_2 O 0.1047(3) 0.6055(3) 0.61953(19)
O30 O 0.1147(3) 0.6045(3) 0.4658(2)
O31 O 0.1597(3) 0.3442(3) 0.56076(15)
C12_2 C 0.1196(4) 0.2197(4) 0.5532(3)
H12_2 H 0.0200 0.2013 0.5138
Fe4_2 Fe 1.0000 0.5000 0.5000
O5_2 O 0.5453(3) 0.7594(2) 0.39255(15)
O6_2 O 0.5157(3) 0.7098(3) 0.49829(18)
O8_2 O 0.8953(3) 0.3945(3) 0.38047(19)
O9_2 O 0.6635(3) 0.4754(3) 0.47722(16)
O10_2 O 0.8853(3) 0.3955(3) 0.5342(2)
O11_2 O 0.8403(3) 0.6558(3) 0.43924(15)
O12_2 O 0.7967(3) 0.8770(3) 0.40568(18)
C3_2 C 0.5258(4) 0.7894(4) 0.4508(2)
H3_2 H 0.5183 0.8808 0.4590
C4_2 C 0.7681(4) 0.3703(4) 0.3171(2)
H4_2 H 0.7532 0.3101 0.2735
C5_2 C 0.7761(4) 0.4029(4) 0.5317(3)
H5_2 H 0.7751 0.3510 0.5733
C6_2 C 0.8804(4) 0.7803(4) 0.4468(3)
H6_2 H 0.9800 0.7987 0.4862
O16_2 O 0.5497(3) 0.4357(3) 0.86579(16)
O18_2 O 0.5895(3) 0.5016(2) 0.71840(16)
O20_3 O 0.6763(3) 0.5001(3) 0.63793(18)
O24_2 O 0.4843(3) 0.2902(3) 0.50171(18)
O25_2 O 0.3453(3) 0.5814(2) 0.69548(15)
O28_2 O 0.3365(3) 0.5246(3) 0.52278(16)
C8_2 C 0.6913(4) 0.5135(4) 0.7096(2)
H8_2 H 0.7844 0.5341 0.7613
C10_2 C 0.4742(4) 0.2106(4) 0.5492(2)
H10_2 H 0.4817 0.1192 0.5410
C11_2 C 0.2239(4) 0.5971(4) 0.4683(3)
H11_2 H 0.2249 0.6490 0.4267
C4_3 C 0.7681(4) 0.1297(4) 0.8171(2)
H4_3 H 0.7532 0.1899 0.7735
C1_2 C 0.5038(4) 0.8265(4) 0.6708(2)
H1_2 H 0.5013 0.7587 0.6351
C7_2 C 0.4962(4) 0.3265(4) 0.8292(2)
H7_2 H 0.4987 0.2587 0.8649
C4_4 C 0.2319(4) 0.6297(4) 0.6829(2)
H4_4 H 0.2468 0.6899 0.7265
loop_
_geom_bond_atom_site_label_1
_geom_bond_atom_site_label_2
_geom_bond_site_symmetry_1
_geom_bond_site_symmetry_2
Fe1 O1 1_555 1_555
Fe3 O4 1_555 1_555
O1 C1 1_555 1_555
O2 C1 1_555 1_555
O5 Fe1 1_555 1_555
O6 Fe3 1_555 1_555
O11 Fe1 1_555 1_555
O12 C6 1_555 1_555
C1 H1 1_555 1_555
C3 O5 1_555 1_555
H3 C3 1_555 1_555
C6 O11 1_555 1_555
H6 C6 1_555 1_555
Fe7 O15 1_555 1_555
Fe9 O1 1_555 1_555
Fe12 O15 1_555 1_555
Fe13 O21 1_555 1_555
Fe14_5 O29 1_555 1_555
O15 C7 1_555 1_555
O17 Fe9 1_555 1_555
O19 Fe7 1_555 1_555
O21 C9 1_555 1_555
O26 Fe7 1_555 1_555
O29 C11 1_555 1_555
C7 O17 1_555 1_555
H7 C7 1_555 1_555
C9 O19 1_555 1_555
H9 C9 1_555 1_555
H11 C11 1_555 1_555
Fe14 O11 1_555 1_555
O5 Fe9 1_555 1_555
O6 C3 1_555 1_555
O12 Fe9 1_555 1_555
Fe9 O19 1_555 1_555
Fe9 O26 1_555 1_555
Fe2 O14 1_555 1_555
O18 Fe2 1_555 1_555
O20 Fe3_2 1_555 1_555
O23 Fe2 1_555 1_555
O25 Fe2 1_555 1_555
O28 Fe3_2 1_555 1_555
O33 Fe2 1_555 1_555
C8 O18 1_555 1_555
H8 C8 1_555 1_555
O20 C8 1_555 1_555
Fe3_3 O4_2 1_555 1_555
Fe14_3 O8 1_555 1_555
O4_2 C2 1_555 1_555
O8 C4 1_555 1_555
C2 O3 1_555 1_555
H2 C2 1_555 1_555
C4 O7 1_555 1_555
H4 C4 1_555 1_555
Fe3_3 O9 1_555 1_555
O3 Fe12 1_555 1_555
O7 Fe12 1_555 1_555
O10 Fe14_4 1_555 1_555
H5 C5 1_555 1_555
Fe5 O13 1_555 1_555
Fe10 O13 1_555 1_555
O20_2 Fe3_4 1_555 1_555
O22 Fe5 1_555 1_555
O24 Fe3_4 1_555 1_555
O32 Fe5 1_555 1_555
C10 O22 1_555 1_555
H10 C10 1_555 1_555
O10 C5 1_555 1_555
Fe10 O22 1_555 1_555
Fe14_8 O32 1_555 1_555
O24 C10 1_555 1_555
O27 Fe14_6 1_555 1_555
Fe10 O34 1_555 1_555
O34 C12 1_555 1_555
C12 O32 1_555 1_555
H12 C12 1_555 1_555
Fe6 O31 1_555 1_555
O27_2 Fe4 1_555 1_555
O30 Fe4 1_555 1_555
O31 Fe4 1_555 1_555
O33 C12_2 1_555 1_555
C12_2 O31 1_555 1_555
H12_2 C12_2 1_555 1_555
Fe4_2 O8_2 1_555 1_555
O5_2 Fe7 1_555 1_555
O6_2 Fe13 1_555 1_555
O8_2 C4_2 1_555 1_555
O9_2 Fe7 1_555 1_555
O10_2 Fe4_2 1_555 1_555
O11_2 Fe7 1_555 1_555
O12_2 C6_2 1_555 1_555
C3_2 O5_2 1_555 1_555
H3_2 C3_2 1_555 1_555
C4_2 O26 1_555 1_555
H4_2 C4_2 1_555 1_555
C5_2 O9_2 1_555 1_555
H5_2 C5_2 1_555 1_555
C6_2 O11_2 1_555 1_555
H6_2 C6_2 1_555 1_555
Fe6 O14 1_555 1_555
O16_2 Fe10 1_555 1_555
O18_2 Fe10 1_555 1_555
O20_3 Fe13 1_555 1_555
O23 Fe6 1_555 1_555
O24_2 Fe13 1_555 1_555
O25_2 Fe10 1_555 1_555
O28_2 Fe13 1_555 1_555
O30 C11_2 1_555 1_555
C8_2 O18_2 1_555 1_555
H8_2 C8_2 1_555 1_555
C10_2 O23 1_555 1_555
H10_2 C10_2 1_555 1_555
C11_2 O28_2 1_555 1_555
H11_2 C11_2 1_555 1_555
Fe13 O9_2 1_555 1_555
Fe4_2 O11_2 1_555 1_555
O5_2 Fe12 1_555 1_555
O6_2 C3_2 1_555 1_555
O10_2 C5_2 1_555 1_555
O12_2 Fe12 1_555 1_555
Fe6 O18_2 1_555 1_555
Fe6 O25_2 1_555 1_555
Fe6 O28_2 1_555 1_555
O20_3 C8_2 1_555 1_555
O24_2 C10_2 1_555 1_555
O27 C4_3 1_555 1_555
C4_3 O25 1_555 1_555
H4_3 C4_3 1_555 1_555
O13 C1_2 1_555 1_555
O16 C1_2 1_555 1_555
C1_2 H1_2 1_555 1_555
O14 C7_2 1_555 1_555
C7_2 O16_2 1_555 1_555
H7_2 C7_2 1_555 1_555
O27_2 C4_4 1_555 1_555
C4_4 O25_2 1_555 1_555
H4_4 C4_4 1_555 1_555

#END
