
###############################################################################
#
# This file contains modified crystal structure data generated from the
# MOF subset of the Cambridge Structural Database (CSD) v543 
# hosted by the Cambridge Crystallographic Data Centre (CCDC).
#
# This work is licensed under the Creative Commons
# Attribution-NonCommercial-ShareAlike 4.0 International License.
# To view a copy of this license, visit
# http://creativecommons.org/licenses/by-nc-sa/4.0/
# or send a letter to
# Creative Commons, PO Box 1866, Mountain View, CA 94042, USA.
#
# CIF created using the CSD Python API on 29 September 2022
# The structure has been converted into the P1 space group
# The structure has a 3D framework
# The original CSD entry NIHBEM is in the monoclinic crystal system
# The framework has been calculated to contain at least 10.0% void space
# The void calculation uses a probe of radius 1.32A, grid spacing 0.4
#
###############################################################################

data_NIHBEM
_chemical_formula_moiety         '(C24 H24 Fe20 O48)n'
_symmetry_cell_setting           triclinic
_symmetry_space_group_name_H-M   'P 1'
_symmetry_Int_Tables_number      1
_space_group_name_Hall           'P 1'
loop_
_symmetry_equiv_pos_site_id
_symmetry_equiv_pos_as_xyz
1 x,y,z
_cell_length_a                   11.2911(3)
_cell_length_b                   9.8459(2)
_cell_length_c                   18.5051(5)
_cell_angle_alpha                90
_cell_angle_beta                 126.770(2)
_cell_angle_gamma                90
_cell_volume                     1647.93
loop_
_atom_site_label
_atom_site_type_symbol
_atom_site_fract_x
_atom_site_fract_y
_atom_site_fract_z
Fe14 Fe 0.0000 0.0000 0.0000
Fe14_2 Fe 0.0000 0.0000 1.0000
Fe14_3 Fe 0.0000 1.0000 0.0000
Fe14_4 Fe 0.0000 1.0000 1.0000
Fe1 Fe 0.37842(4) 0.08124(3) 0.13350(2)
Fe3 Fe 0.5000 0.0000 0.0000
O1 O 0.43542(19) 0.20087(16) 0.24685(11)
O2 O 0.5542(2) 0.06323(17) 0.36791(11)
O5 O 0.46146(19) 0.25983(16) 0.11175(11)
O6 O 0.48860(19) 0.21106(18) 0.00427(11)
O11 O 0.16430(18) 0.15903(16) 0.06115(11)
O12 O 0.2003(2) 0.38182(16) 0.09492(11)
C1 C 0.4968(3) 0.1737(3) 0.32987(18)
C3 C 0.4817(3) 0.2916(3) 0.05321(17)
C6 C 0.1215(3) 0.2826(3) 0.05144(18)
H1 H 0.495(3) 0.246(2) 0.3641(16)
H3 H 0.494(3) 0.387(3) 0.0459(19)
H6 H 0.019(3) 0.297(3) 0.007(2)
Fe7 Fe 0.62158(4) 0.58124(3) 0.36650(2)
Fe9 Fe 0.42783(4) 0.39216(3) 0.19005(2)
Fe12 Fe 0.57217(4) 0.89216(3) 0.30995(2)
Fe13 Fe 0.5000 0.5000 0.5000
Fe14_5 Fe 1.0000 0.0000 0.0000
O15 O 0.56458(19) 0.70087(16) 0.25315(11)
O17 O 0.4458(2) 0.56323(17) 0.13209(11)
O19 O 0.40633(19) 0.49765(16) 0.28197(11)
O21 O 0.3160(2) 0.49307(17) 0.36114(11)
O26 O 0.65524(19) 0.41516(16) 0.30561(11)
O29 O 0.8881(2) 0.11499(17) 0.03715(12)
C7 C 0.5032(3) 0.6737(3) 0.17013(18)
C9 C 0.3030(3) 0.4831(3) 0.28985(19)
C11 C 0.7741(3) 0.1050(3) 0.03105(18)
H7 H 0.505(3) 0.746(2) 0.1359(16)
H9 H 0.205(3) 0.470(2) 0.2356(17)
H11 H 0.758(3) 0.154(2) 0.0683(19)
Fe2 Fe 0.42783(4) 0.10784(3) 0.69005(2)
Fe3_2 Fe 0.5000 0.0000 1.0000
Fe14_6 Fe 1.0000 0.0000 1.0000
O14 O 0.43542(19) 0.29913(16) 0.74685(11)
O18 O 0.40633(19) 0.00235(16) 0.78197(11)
O20 O 0.3160(2) 0.00693(17) 0.86114(11)
O23 O 0.46146(19) 0.24017(16) 0.61175(11)
O25 O 0.65524(19) 0.08484(16) 0.80561(11)
O28 O 0.66366(19) 0.02643(17) 0.97683(11)
O33 O 0.2003(2) 0.11818(16) 0.59492(11)
C8 C 0.3030(3) 0.0169(3) 0.78985(19)
H8 H 0.205(3) 0.030(2) 0.7356(17)
Fe3_3 Fe 0.5000 1.0000 0.0000
O3 O 0.59367(19) 0.99765(16) 0.21803(11)
O4 O 0.6840(2) 0.99307(17) 0.13886(11)
O7 O 0.34476(19) 0.91516(16) 0.19439(11)
O8 O 0.1009(2) 0.89256(17) 0.12191(12)
O9 O 0.33634(19) 0.97357(17) 0.02317(11)
C2 C 0.6970(3) 0.9831(3) 0.21015(19)
C4 C 0.2312(3) 0.8658(3) 0.18387(18)
H2 H 0.795(3) 0.970(2) 0.2644(17)
H4 H 0.246(3) 0.793(2) 0.2257(17)
Fe14_7 Fe 1.0000 1.0000 0.0000
Fe3_4 Fe 0.5000 1.0000 1.0000
O10 O 0.1119(2) 0.88501(17) 0.96285(12)
C5 C 0.2259(3) 0.8950(3) 0.96895(18)
H5 H 0.242(3) 0.846(2) 0.9317(19)
Fe5 Fe 0.62158(4) 0.91876(3) 0.86650(2)
Fe10 Fe 0.57217(4) 0.60784(3) 0.80995(2)
Fe14_8 Fe 1.0000 1.0000 1.0000
O13 O 0.56458(19) 0.79913(16) 0.75315(11)
O16 O 0.4458(2) 0.93677(17) 0.63209(11)
O22 O 0.53854(19) 0.74017(16) 0.88825(11)
O24 O 0.51140(19) 0.78894(18) 0.99573(11)
O32 O 0.83570(18) 0.84097(16) 0.93885(11)
C10 C 0.5183(3) 0.7084(3) 0.94679(17)
H10 H 0.506(3) 0.613(3) 0.9541(19)
O27 O 0.8991(2) 0.10744(17) 0.87809(12)
O34 O 0.7997(2) 0.61818(16) 0.90508(11)
C12 C 0.8785(3) 0.7174(3) 0.94856(18)
H12 H 0.981(3) 0.703(3) 0.993(2)
Fe4 Fe 0.0000 0.5000 0.5000
Fe6 Fe 0.37842(4) 0.41876(3) 0.63350(2)
O27_2 O 0.1009(2) 0.60744(17) 0.62191(12)
O30 O 0.1119(2) 0.61499(17) 0.46285(12)
O31 O 0.16430(18) 0.34097(16) 0.56115(11)
C12_2 C 0.1215(3) 0.2174(3) 0.55144(18)
H12_2 H 0.019(3) 0.203(3) 0.507(2)
Fe4_2 Fe 1.0000 0.5000 0.5000
O5_2 O 0.53854(19) 0.75983(16) 0.38825(11)
O6_2 O 0.51140(19) 0.71106(18) 0.49573(11)
O8_2 O 0.8991(2) 0.39256(17) 0.37809(12)
O9_2 O 0.66366(19) 0.47357(17) 0.47683(11)
O10_2 O 0.8881(2) 0.38501(17) 0.53715(12)
O11_2 O 0.83570(18) 0.65903(16) 0.43885(11)
O12_2 O 0.7997(2) 0.88182(16) 0.40508(11)
C3_2 C 0.5183(3) 0.7916(3) 0.44679(17)
C4_2 C 0.7688(3) 0.3658(3) 0.31613(18)
C5_2 C 0.7741(3) 0.3950(3) 0.53105(18)
C6_2 C 0.8785(3) 0.7826(3) 0.44856(18)
H3_2 H 0.506(3) 0.887(3) 0.4541(19)
H4_2 H 0.754(3) 0.293(2) 0.2743(17)
H5_2 H 0.758(3) 0.346(2) 0.5683(19)
H6_2 H 0.981(3) 0.797(3) 0.493(2)
O16_2 O 0.5542(2) 0.43677(17) 0.86791(11)
O18_2 O 0.59367(19) 0.50235(16) 0.71803(11)
O20_2 O 0.6840(2) 0.50693(17) 0.63886(11)
O24_2 O 0.48860(19) 0.28894(18) 0.50427(11)
O25_2 O 0.34476(19) 0.58484(16) 0.69439(11)
O28_2 O 0.33634(19) 0.52643(17) 0.52317(11)
C8_2 C 0.6970(3) 0.5169(3) 0.71015(19)
C10_2 C 0.4817(3) 0.2084(3) 0.55321(17)
C11_2 C 0.2259(3) 0.6050(3) 0.46895(18)
H8_2 H 0.795(3) 0.530(2) 0.7644(17)
H10_2 H 0.494(3) 0.113(3) 0.5459(19)
H11_2 H 0.242(3) 0.654(2) 0.4317(19)
C4_3 C 0.7688(3) 0.1342(3) 0.81613(18)
H4_3 H 0.754(3) 0.207(2) 0.7743(17)
C1_2 C 0.5032(3) 0.8263(3) 0.67013(18)
H1_2 H 0.505(3) 0.754(2) 0.6359(16)
C7_2 C 0.4968(3) 0.3263(3) 0.82987(18)
H7_2 H 0.495(3) 0.254(2) 0.8641(16)
C4_4 C 0.2312(3) 0.6342(3) 0.68387(18)
H4_4 H 0.246(3) 0.707(2) 0.7257(17)
loop_
_geom_bond_atom_site_label_1
_geom_bond_atom_site_label_2
_geom_bond_site_symmetry_1
_geom_bond_site_symmetry_2
Fe1 O1 1_555 1_555
O1 C1 1_555 1_555
O2 C1 1_555 1_555
O5 Fe1 1_555 1_555
O6 Fe3 1_555 1_555
O11 Fe1 1_555 1_555
O12 C6 1_555 1_555
C1 H1 1_555 1_555
C3 O5 1_555 1_555
C6 O11 1_555 1_555
H3 C3 1_555 1_555
H6 C6 1_555 1_555
Fe7 O15 1_555 1_555
Fe9 O1 1_555 1_555
Fe12 O15 1_555 1_555
Fe13 O21 1_555 1_555
Fe14_5 O29 1_555 1_555
O15 C7 1_555 1_555
O17 Fe9 1_555 1_555
O19 Fe7 1_555 1_555
O21 C9 1_555 1_555
O26 Fe7 1_555 1_555
O29 C11 1_555 1_555
C7 O17 1_555 1_555
C9 O19 1_555 1_555
H7 C7 1_555 1_555
H9 C9 1_555 1_555
H11 C11 1_555 1_555
Fe14 O11 1_555 1_555
O5 Fe9 1_555 1_555
O6 C3 1_555 1_555
O12 Fe9 1_555 1_555
Fe9 O19 1_555 1_555
Fe9 O26 1_555 1_555
Fe2 O14 1_555 1_555
O18 Fe2 1_555 1_555
O20 Fe3_2 1_555 1_555
O23 Fe2 1_555 1_555
O25 Fe2 1_555 1_555
O28 Fe3_2 1_555 1_555
O33 Fe2 1_555 1_555
C8 O18 1_555 1_555
H8 C8 1_555 1_555
O20 C8 1_555 1_555
Fe3_3 O4 1_555 1_555
Fe14_3 O8 1_555 1_555
O4 C2 1_555 1_555
O8 C4 1_555 1_555
C2 O3 1_555 1_555
C4 O7 1_555 1_555
H2 C2 1_555 1_555
H4 C4 1_555 1_555
Fe3_3 O9 1_555 1_555
O3 Fe12 1_555 1_555
O7 Fe12 1_555 1_555
O10 Fe14_4 1_555 1_555
H5 C5 1_555 1_555
Fe5 O13 1_555 1_555
Fe10 O13 1_555 1_555
O22 Fe5 1_555 1_555
O24 Fe3_4 1_555 1_555
O32 Fe5 1_555 1_555
C10 O22 1_555 1_555
H10 C10 1_555 1_555
O10 C5 1_555 1_555
Fe10 O22 1_555 1_555
Fe14_8 O32 1_555 1_555
O24 C10 1_555 1_555
O27 Fe14_6 1_555 1_555
Fe10 O34 1_555 1_555
O34 C12 1_555 1_555
C12 O32 1_555 1_555
H12 C12 1_555 1_555
Fe6 O31 1_555 1_555
O27_2 Fe4 1_555 1_555
O30 Fe4 1_555 1_555
O31 Fe4 1_555 1_555
O33 C12_2 1_555 1_555
C12_2 O31 1_555 1_555
H12_2 C12_2 1_555 1_555
Fe4_2 O8_2 1_555 1_555
O5_2 Fe7 1_555 1_555
O6_2 Fe13 1_555 1_555
O8_2 C4_2 1_555 1_555
O9_2 Fe7 1_555 1_555
O10_2 Fe4_2 1_555 1_555
O11_2 Fe7 1_555 1_555
O12_2 C6_2 1_555 1_555
C3_2 O5_2 1_555 1_555
C4_2 O26 1_555 1_555
C5_2 O9_2 1_555 1_555
C6_2 O11_2 1_555 1_555
H3_2 C3_2 1_555 1_555
H4_2 C4_2 1_555 1_555
H5_2 C5_2 1_555 1_555
H6_2 C6_2 1_555 1_555
Fe6 O14 1_555 1_555
O16_2 Fe10 1_555 1_555
O18_2 Fe10 1_555 1_555
O20_2 Fe13 1_555 1_555
O23 Fe6 1_555 1_555
O24_2 Fe13 1_555 1_555
O25_2 Fe10 1_555 1_555
O28_2 Fe13 1_555 1_555
O30 C11_2 1_555 1_555
C8_2 O18_2 1_555 1_555
C10_2 O23 1_555 1_555
C11_2 O28_2 1_555 1_555
H8_2 C8_2 1_555 1_555
H10_2 C10_2 1_555 1_555
H11_2 C11_2 1_555 1_555
Fe13 O9_2 1_555 1_555
Fe4_2 O11_2 1_555 1_555
O5_2 Fe12 1_555 1_555
O6_2 C3_2 1_555 1_555
O10_2 C5_2 1_555 1_555
O12_2 Fe12 1_555 1_555
Fe6 O18_2 1_555 1_555
Fe6 O25_2 1_555 1_555
Fe6 O28_2 1_555 1_555
O20_2 C8_2 1_555 1_555
O24_2 C10_2 1_555 1_555
O27 C4_3 1_555 1_555
C4_3 O25 1_555 1_555
H4_3 C4_3 1_555 1_555
O13 C1_2 1_555 1_555
O16 C1_2 1_555 1_555
C1_2 H1_2 1_555 1_555
O14 C7_2 1_555 1_555
C7_2 O16_2 1_555 1_555
H7_2 C7_2 1_555 1_555
O27_2 C4_4 1_555 1_555
C4_4 O25_2 1_555 1_555
H4_4 C4_4 1_555 1_555

#END
