
###############################################################################
#
# This file contains modified crystal structure data generated from the
# MOF subset of the Cambridge Structural Database (CSD) v543 
# hosted by the Cambridge Crystallographic Data Centre (CCDC).
#
# This work is licensed under the Creative Commons
# Attribution-NonCommercial-ShareAlike 4.0 International License.
# To view a copy of this license, visit
# http://creativecommons.org/licenses/by-nc-sa/4.0/
# or send a letter to
# Creative Commons, PO Box 1866, Mountain View, CA 94042, USA.
#
# CIF created using the CSD Python API on 29 September 2022
# The structure has been converted into the P1 space group
# The structure has a 3D framework
# The original CSD entry NIHGAP is in the orthorhombic crystal system
# The framework has been calculated to contain at least 10.0% void space
# The void calculation uses a probe of radius 1.32A, grid spacing 0.4
# H atom positions have been added when not included in the experimental data
# Generated hydrogen atom positions removed from atoms on special positions
#
###############################################################################

data_NIHGAP
_chemical_formula_moiety         '(C320 H300 N12 O152 Zr36)n'
_symmetry_cell_setting           triclinic
_symmetry_space_group_name_H-M   'P 1'
_symmetry_Int_Tables_number      1
_space_group_name_Hall           'P 1'
loop_
_symmetry_equiv_pos_site_id
_symmetry_equiv_pos_as_xyz
1 x,y,z
_cell_length_a                   18.569(5)
_cell_length_b                   34.5910(15)
_cell_length_c                   32.2034(11)
_cell_angle_alpha                90
_cell_angle_beta                 90
_cell_angle_gamma                90
_cell_volume                     20684.9
loop_
_atom_site_label
_atom_site_type_symbol
_atom_site_fract_x
_atom_site_fract_y
_atom_site_fract_z
Zr5 Zr 0.0000 0.92938(2) 0.78260(2)
Zr6 Zr 0.0000 0.92938(2) 0.21740(2)
Zr10 Zr 0.90483(5) -0.0000 0.72779(2)
Zr11 Zr 0.90483(5) -0.0000 0.27221(2)
Zr1 Zr 0.5000 0.57062(2) 0.28260(2)
Zr2 Zr 0.59611(5) 0.5000 0.33785(2)
Zr3 Zr 0.59517(5) 0.5000 0.22779(2)
O1 O 0.5706(2) 0.60244(7) 0.32334(8)
O2 O 0.9282(3) 0.89658(8) 0.25915(8)
O3 O 0.6355(3) 0.55947(7) 0.36009(9)
O4 O 0.5880(4) 0.5000 0.40529(11)
O5 O 0.8674(3) 0.94186(8) 0.29521(10)
O6 O 0.5946(3) 0.53410(8) 0.28287(9)
O7 O 0.5763(5) 0.5000 0.16001(11)
O8 O 0.7099(5) 0.5000 0.23011(16)
N1 N 0.7450(5) 0.71411(13) 0.5000
H1 H 0.7269 0.6906 0.5000
O9 O 0.5000 0.53520(13) 0.33872(19)
O10 O 0.7134(5) 0.5000 0.33456(17)
O11 O 0.5000 0.53508(17) 0.22755(18)
C1 C 0.6165(4) 0.59358(11) 0.35048(13)
C2 C 0.6545(4) 0.62654(12) 0.37113(14)
C3 C 0.7041(4) 0.62311(12) 0.40126(14)
H2 H 0.7178 0.5980 0.4102
C4 C 0.7616(4) 0.73567(12) 0.46524(11)
C5 C 0.7171(4) 0.69215(12) 0.40635(12)
C6 C 0.8076(5) 0.85989(12) 0.38254(13)
H3 H 0.7845 0.8676 0.4075
C7 C 0.8880(4) 0.90754(11) 0.28853(13)
C8 C 0.7917(4) 0.77132(12) 0.47754(12)
C9 C 0.7357(5) 0.65499(12) 0.41959(14)
H4 H 0.7701 0.6517 0.4411
C10 C 0.8220(5) 0.82131(13) 0.37549(13)
C11 C 0.8131(4) 0.79935(12) 0.44875(12)
H5 H 0.8340 0.8230 0.4578
C12 C 0.6690(5) 0.69614(13) 0.37558(15)
H6 H 0.6580 0.7213 0.3658
C13 C 0.6343(5) 0.66397(12) 0.35729(16)
H7 H 0.5986 0.6673 0.3364
C14 C 0.8613(5) 0.87720(13) 0.31749(15)
C15 C 0.8267(5) 0.88738(13) 0.35322(14)
H8 H 0.8156 0.9138 0.3581
C16 C 0.8032(5) 0.79203(13) 0.40694(13)
C17 C 0.7745(4) 0.75620(12) 0.39501(13)
H9 H 0.7697 0.7510 0.3662
C18 C 0.7523(5) 0.72758(12) 0.42308(13)
C19 C 0.8518(5) 0.81152(13) 0.33901(14)
H10 H 0.8573 0.7849 0.3324
C20 C 0.8749(5) 0.83924(13) 0.31038(16)
H11 H 0.9001 0.8315 0.2861
O12 O 0.5706(2) 0.60244(7) 0.67666(8)
O13 O 0.9282(3) 0.89658(8) 0.74085(8)
O14 O 0.6355(3) 0.55947(7) 0.63991(9)
O15 O 0.8674(3) 0.94186(8) 0.70479(10)
C21 C 0.6165(4) 0.59358(11) 0.64952(13)
C22 C 0.6545(4) 0.62654(12) 0.62887(14)
C23 C 0.7041(4) 0.62311(12) 0.59874(14)
H12 H 0.7178 0.5980 0.5898
C24 C 0.7616(4) 0.73567(12) 0.53476(11)
C25 C 0.7171(4) 0.69215(12) 0.59365(12)
C26 C 0.8076(5) 0.85989(12) 0.61746(13)
H13 H 0.7845 0.8676 0.5925
C27 C 0.8880(4) 0.90754(11) 0.71147(13)
C28 C 0.7917(4) 0.77132(12) 0.52246(12)
C29 C 0.7357(5) 0.65499(12) 0.58041(14)
H14 H 0.7701 0.6517 0.5589
C30 C 0.8220(5) 0.82131(13) 0.62451(13)
C31 C 0.8131(4) 0.79935(12) 0.55125(12)
H15 H 0.8340 0.8230 0.5422
C32 C 0.6690(5) 0.69614(13) 0.62442(15)
H16 H 0.6580 0.7213 0.6342
C33 C 0.6343(5) 0.66397(12) 0.64271(16)
H17 H 0.5986 0.6673 0.6636
C34 C 0.8613(5) 0.87720(13) 0.68251(15)
C35 C 0.8267(5) 0.88738(13) 0.64678(14)
H18 H 0.8156 0.9138 0.6419
C36 C 0.8032(5) 0.79203(13) 0.59306(13)
C37 C 0.7745(4) 0.75620(12) 0.60499(13)
H19 H 0.7697 0.7510 0.6338
C38 C 0.7523(5) 0.72758(12) 0.57692(13)
C39 C 0.8518(5) 0.81152(13) 0.66099(14)
H20 H 0.8573 0.7849 0.6676
C40 C 0.8749(5) 0.83924(13) 0.68962(16)
H21 H 0.9001 0.8315 0.7139
O16 O 0.4054(3) 0.53410(8) 0.28287(9)
Zr4 Zr 0.5000 0.57062(2) 0.71740(2)
Zr5_2 Zr 1.0000 0.92938(2) 0.78260(2)
Zr6_2 Zr 1.0000 0.92938(2) 0.21740(2)
Zr7 Zr 0.40389(5) 0.5000 0.33785(2)
Zr8 Zr 0.59611(5) 0.5000 0.66215(2)
Zr9 Zr 0.40483(5) 0.5000 0.22779(2)
Zr10_2 Zr 0.90483(5) 1.0000 0.72779(2)
Zr11_2 Zr 0.90483(5) 1.0000 0.27221(2)
O17 O 0.4294(2) 0.60244(7) 0.32334(8)
O18 O 0.4282(3) 0.60342(8) 0.24085(8)
O19 O 0.5718(3) 0.60342(8) 0.24085(8)
O20 O 0.6355(3) 0.44053(7) 0.36009(9)
O21 O 0.6326(3) 0.44186(8) 0.20479(10)
O22 O 0.6326(3) 0.55814(8) 0.20479(10)
O23 O 0.5946(3) 0.46590(8) 0.28287(9)
O24 O 0.5000 0.46480(13) 0.33872(19)
O25 O 0.5000 0.46492(17) 0.22755(18)
Zr1_2 Zr 0.5000 0.42938(2) 0.28260(2)
O1_2 O 0.4294(2) 0.39756(7) 0.32334(8)
O2_2 O 0.0718(3) 0.10342(8) 0.25915(8)
O3_2 O 0.3645(3) 0.44053(7) 0.36009(9)
O4_2 O 0.4120(4) 0.5000 0.40529(11)
O5_2 O 0.1326(3) 0.05814(8) 0.29521(10)
O6_2 O 0.4054(3) 0.46590(8) 0.28287(9)
O7_2 O 0.4237(5) 0.5000 0.16001(11)
O8_2 O 0.2901(5) 0.5000 0.23011(16)
N1_2 N 0.2550(5) 0.28589(13) 0.5000
H1_2 H 0.2731 0.3094 0.5000
O10_2 O 0.2866(5) 0.5000 0.33456(17)
C1_2 C 0.3835(4) 0.40642(11) 0.35048(13)
C2_2 C 0.3455(4) 0.37346(12) 0.37113(14)
C3_2 C 0.2959(4) 0.37689(12) 0.40126(14)
H2_2 H 0.2822 0.4020 0.4102
C4_2 C 0.2384(4) 0.26433(12) 0.46524(11)
C5_2 C 0.2829(4) 0.30785(12) 0.40635(12)
C6_2 C 0.1924(5) 0.14011(12) 0.38254(13)
H3_2 H 0.2155 0.1324 0.4075
C7_2 C 0.1120(4) 0.09246(11) 0.28853(13)
C8_2 C 0.2083(4) 0.22868(12) 0.47754(12)
C9_2 C 0.2643(5) 0.34501(12) 0.41959(14)
H4_2 H 0.2299 0.3483 0.4411
C10_2 C 0.1780(5) 0.17869(13) 0.37549(13)
C11_2 C 0.1869(4) 0.20065(12) 0.44875(12)
H5_2 H 0.1660 0.1770 0.4578
C12_2 C 0.3310(5) 0.30386(13) 0.37558(15)
H6_2 H 0.3420 0.2787 0.3658
C13_2 C 0.3657(5) 0.33603(12) 0.35729(16)
H7_2 H 0.4014 0.3327 0.3364
C14_2 C 0.1387(5) 0.12280(13) 0.31749(15)
C15_2 C 0.1733(5) 0.11262(13) 0.35322(14)
H8_2 H 0.1844 0.0862 0.3581
C16_2 C 0.1968(5) 0.20797(13) 0.40694(13)
C17_2 C 0.2255(4) 0.24380(12) 0.39501(13)
H9_2 H 0.2303 0.2490 0.3662
C18_2 C 0.2477(5) 0.27242(12) 0.42308(13)
C19_2 C 0.1482(5) 0.18848(13) 0.33901(14)
H10_2 H 0.1427 0.2151 0.3324
C20_2 C 0.1251(5) 0.16076(13) 0.31038(16)
H11_2 H 0.0999 0.1685 0.2861
O12_2 O 0.4294(2) 0.39756(7) 0.67666(8)
O13_2 O 0.0718(3) 0.10342(8) 0.74085(8)
O14_2 O 0.3645(3) 0.44053(7) 0.63991(9)
O15_2 O 0.1326(3) 0.05814(8) 0.70479(10)
C21_2 C 0.3835(4) 0.40642(11) 0.64952(13)
C22_2 C 0.3455(4) 0.37346(12) 0.62887(14)
C23_2 C 0.2959(4) 0.37689(12) 0.59874(14)
H12_2 H 0.2822 0.4020 0.5898
C24_2 C 0.2384(4) 0.26433(12) 0.53476(11)
C25_2 C 0.2829(4) 0.30785(12) 0.59365(12)
C26_2 C 0.1924(5) 0.14011(12) 0.61746(13)
H13_2 H 0.2155 0.1324 0.5925
C27_2 C 0.1120(4) 0.09246(11) 0.71147(13)
C28_2 C 0.2083(4) 0.22868(12) 0.52246(12)
C29_2 C 0.2643(5) 0.34501(12) 0.58041(14)
H14_2 H 0.2299 0.3483 0.5589
C30_2 C 0.1780(5) 0.17869(13) 0.62451(13)
C31_2 C 0.1869(4) 0.20065(12) 0.55125(12)
H15_2 H 0.1660 0.1770 0.5422
C32_2 C 0.3310(5) 0.30386(13) 0.62442(15)
H16_2 H 0.3420 0.2787 0.6342
C33_2 C 0.3657(5) 0.33603(12) 0.64271(16)
H17_2 H 0.4014 0.3327 0.6636
C34_2 C 0.1387(5) 0.12280(13) 0.68251(15)
C35_2 C 0.1733(5) 0.11262(13) 0.64678(14)
H18_2 H 0.1844 0.0862 0.6419
C36_2 C 0.1968(5) 0.20797(13) 0.59306(13)
C37_2 C 0.2255(4) 0.24380(12) 0.60499(13)
H19_2 H 0.2303 0.2490 0.6338
C38_2 C 0.2477(5) 0.27242(12) 0.57692(13)
C39_2 C 0.1482(5) 0.18848(13) 0.66099(14)
H20_2 H 0.1427 0.2151 0.6676
C40_2 C 0.1251(5) 0.16076(13) 0.68962(16)
H21_2 H 0.0999 0.1685 0.7139
Zr4_2 Zr 0.5000 0.42938(2) 0.71740(2)
Zr5_3 Zr -0.0000 0.07062(2) 0.78260(2)
Zr6_3 Zr -0.0000 0.07062(2) 0.21740(2)
Zr8_2 Zr 0.40389(5) 0.5000 0.66215(2)
Zr10_3 Zr 0.09517(5) -0.0000 0.72779(2)
Zr11_3 Zr 0.09517(5) -0.0000 0.27221(2)
O17_2 O 0.5706(2) 0.39756(7) 0.32334(8)
O18_2 O 0.5718(3) 0.39658(8) 0.24085(8)
O19_2 O 0.4282(3) 0.39658(8) 0.24085(8)
O20_2 O 0.3645(3) 0.55947(7) 0.36009(9)
O21_2 O 0.3674(3) 0.55814(8) 0.20479(10)
O22_2 O 0.3674(3) 0.44186(8) 0.20479(10)
Zr10_4 Zr 0.09517(5) 1.0000 0.72779(2)
Zr11_4 Zr 0.09517(5) 1.0000 0.27221(2)
Zr5_4 Zr 1.0000 0.07062(2) 0.78260(2)
Zr6_4 Zr 1.0000 0.07062(2) 0.21740(2)
Zr3_2 Zr 0.59517(5) 0.5000 0.77221(2)
O1_3 O 0.5706(2) 0.39756(7) 0.67666(8)
O2_3 O 0.9282(3) 0.10342(8) 0.74085(8)
O3_3 O 0.6355(3) 0.44053(7) 0.63991(9)
O4_3 O 0.5880(4) 0.5000 0.59471(11)
O5_3 O 0.8674(3) 0.05814(8) 0.70479(10)
O6_3 O 0.5946(3) 0.46590(8) 0.71713(9)
O7_3 O 0.5763(5) 0.5000 0.83999(11)
O8_3 O 0.7099(5) 0.5000 0.76989(16)
N1_3 N 0.7450(5) 0.28589(13) 0.5000
H1_3 H 0.7269 0.3094 0.5000
O9_2 O 0.5000 0.46480(13) 0.66128(19)
O10_3 O 0.7134(5) 0.5000 0.66544(17)
O11_2 O 0.5000 0.46492(17) 0.77245(18)
C1_3 C 0.6165(4) 0.40642(11) 0.64952(13)
C2_3 C 0.6545(4) 0.37346(12) 0.62887(14)
C3_3 C 0.7041(4) 0.37689(12) 0.59874(14)
H2_3 H 0.7178 0.4020 0.5898
C4_3 C 0.7616(4) 0.26433(12) 0.53476(11)
C5_3 C 0.7171(4) 0.30785(12) 0.59365(12)
C6_3 C 0.8076(5) 0.14011(12) 0.61746(13)
H3_3 H 0.7845 0.1324 0.5925
C7_3 C 0.8880(4) 0.09246(11) 0.71147(13)
C8_3 C 0.7917(4) 0.22868(12) 0.52246(12)
C9_3 C 0.7357(5) 0.34501(12) 0.58041(14)
H4_3 H 0.7701 0.3483 0.5589
C10_3 C 0.8220(5) 0.17869(13) 0.62451(13)
C11_3 C 0.8131(4) 0.20065(12) 0.55125(12)
H5_3 H 0.8340 0.1770 0.5422
C12_3 C 0.6690(5) 0.30386(13) 0.62442(15)
H6_3 H 0.6580 0.2787 0.6342
C13_3 C 0.6343(5) 0.33603(12) 0.64271(16)
H7_3 H 0.5986 0.3327 0.6636
C14_3 C 0.8613(5) 0.12280(13) 0.68251(15)
C15_3 C 0.8267(5) 0.11262(13) 0.64678(14)
H8_3 H 0.8156 0.0862 0.6419
C16_3 C 0.8032(5) 0.20797(13) 0.59306(13)
C17_3 C 0.7745(4) 0.24380(12) 0.60499(13)
H9_3 H 0.7697 0.2490 0.6338
C18_3 C 0.7523(5) 0.27242(12) 0.57692(13)
C19_3 C 0.8518(5) 0.18848(13) 0.66099(14)
H10_3 H 0.8573 0.2151 0.6676
C20_3 C 0.8749(5) 0.16076(13) 0.68962(16)
H11_3 H 0.9001 0.1685 0.7139
O13_3 O 0.9282(3) 0.10342(8) 0.25915(8)
O15_3 O 0.8674(3) 0.05814(8) 0.29521(10)
C21_3 C 0.6165(4) 0.40642(11) 0.35048(13)
C22_3 C 0.6545(4) 0.37346(12) 0.37113(14)
C23_3 C 0.7041(4) 0.37689(12) 0.40126(14)
H12_3 H 0.7178 0.4020 0.4102
C24_3 C 0.7616(4) 0.26433(12) 0.46524(11)
C25_3 C 0.7171(4) 0.30785(12) 0.40635(12)
C26_3 C 0.8076(5) 0.14011(12) 0.38254(13)
H13_3 H 0.7845 0.1324 0.4075
C27_3 C 0.8880(4) 0.09246(11) 0.28853(13)
C28_3 C 0.7917(4) 0.22868(12) 0.47754(12)
C29_3 C 0.7357(5) 0.34501(12) 0.41959(14)
H14_3 H 0.7701 0.3483 0.4411
C30_3 C 0.8220(5) 0.17869(13) 0.37549(13)
C31_3 C 0.8131(4) 0.20065(12) 0.44875(12)
H15_3 H 0.8340 0.1770 0.4578
C32_3 C 0.6690(5) 0.30386(13) 0.37558(15)
H16_3 H 0.6580 0.2787 0.3658
C33_3 C 0.6343(5) 0.33603(12) 0.35729(16)
H17_3 H 0.5986 0.3327 0.3364
C34_3 C 0.8613(5) 0.12280(13) 0.31749(15)
C35_3 C 0.8267(5) 0.11262(13) 0.35322(14)
H18_3 H 0.8156 0.0862 0.3581
C36_3 C 0.8032(5) 0.20797(13) 0.40694(13)
C37_3 C 0.7745(4) 0.24380(12) 0.39501(13)
H19_3 H 0.7697 0.2490 0.3662
C38_3 C 0.7523(5) 0.27242(12) 0.42308(13)
C39_3 C 0.8518(5) 0.18848(13) 0.33901(14)
H20_3 H 0.8573 0.2151 0.3324
C40_3 C 0.8749(5) 0.16076(13) 0.31038(16)
H21_3 H 0.9001 0.1685 0.2861
O16_2 O 0.4054(3) 0.46590(8) 0.71713(9)
Zr9_2 Zr 0.40483(5) 0.5000 0.77221(2)
O18_3 O 0.4282(3) 0.39658(8) 0.75915(8)
O19_3 O 0.5718(3) 0.39658(8) 0.75915(8)
O21_3 O 0.6326(3) 0.55814(8) 0.79521(10)
O22_3 O 0.6326(3) 0.44186(8) 0.79521(10)
O23_2 O 0.5946(3) 0.53410(8) 0.71713(9)
O24_2 O 0.5000 0.53520(13) 0.66128(19)
O25_2 O 0.5000 0.53508(17) 0.77245(18)
O1_4 O 0.4294(2) 0.60244(7) 0.67666(8)
O2_4 O 0.0718(3) 0.89658(8) 0.74085(8)
O3_4 O 0.3645(3) 0.55947(7) 0.63991(9)
O4_4 O 0.4120(4) 0.5000 0.59471(11)
O5_4 O 0.1326(3) 0.94186(8) 0.70479(10)
O6_4 O 0.4054(3) 0.53410(8) 0.71713(9)
O7_4 O 0.4237(5) 0.5000 0.83999(11)
O8_4 O 0.2901(5) 0.5000 0.76989(16)
N1_4 N 0.2550(5) 0.71411(13) 0.5000
H1_4 H 0.2731 0.6906 0.5000
O10_4 O 0.2866(5) 0.5000 0.66544(17)
C1_4 C 0.3835(4) 0.59358(11) 0.64952(13)
C2_4 C 0.3455(4) 0.62654(12) 0.62887(14)
C3_4 C 0.2959(4) 0.62311(12) 0.59874(14)
H2_4 H 0.2822 0.5980 0.5898
C4_4 C 0.2384(4) 0.73567(12) 0.53476(11)
C5_4 C 0.2829(4) 0.69215(12) 0.59365(12)
C6_4 C 0.1924(5) 0.85989(12) 0.61746(13)
H3_4 H 0.2155 0.8676 0.5925
C7_4 C 0.1120(4) 0.90754(11) 0.71147(13)
C8_4 C 0.2083(4) 0.77132(12) 0.52246(12)
C9_4 C 0.2643(5) 0.65499(12) 0.58041(14)
H4_4 H 0.2299 0.6517 0.5589
C10_4 C 0.1780(5) 0.82131(13) 0.62451(13)
C11_4 C 0.1869(4) 0.79935(12) 0.55125(12)
H5_4 H 0.1660 0.8230 0.5422
C12_4 C 0.3310(5) 0.69614(13) 0.62442(15)
H6_4 H 0.3420 0.7213 0.6342
C13_4 C 0.3657(5) 0.66397(12) 0.64271(16)
H7_4 H 0.4014 0.6673 0.6636
C14_4 C 0.1387(5) 0.87720(13) 0.68251(15)
C15_4 C 0.1733(5) 0.88738(13) 0.64678(14)
H8_4 H 0.1844 0.9138 0.6419
C16_4 C 0.1968(5) 0.79203(13) 0.59306(13)
C17_4 C 0.2255(4) 0.75620(12) 0.60499(13)
H9_4 H 0.2303 0.7510 0.6338
C18_4 C 0.2477(5) 0.72758(12) 0.57692(13)
C19_4 C 0.1482(5) 0.81152(13) 0.66099(14)
H10_4 H 0.1427 0.7849 0.6676
C20_4 C 0.1251(5) 0.83924(13) 0.68962(16)
H11_4 H 0.0999 0.8315 0.7139
O13_4 O 0.0718(3) 0.89658(8) 0.25915(8)
O15_4 O 0.1326(3) 0.94186(8) 0.29521(10)
C21_4 C 0.3835(4) 0.59358(11) 0.35048(13)
C22_4 C 0.3455(4) 0.62654(12) 0.37113(14)
C23_4 C 0.2959(4) 0.62311(12) 0.40126(14)
H12_4 H 0.2822 0.5980 0.4102
C24_4 C 0.2384(4) 0.73567(12) 0.46524(11)
C25_4 C 0.2829(4) 0.69215(12) 0.40635(12)
C26_4 C 0.1924(5) 0.85989(12) 0.38254(13)
H13_4 H 0.2155 0.8676 0.4075
C27_4 C 0.1120(4) 0.90754(11) 0.28853(13)
C28_4 C 0.2083(4) 0.77132(12) 0.47754(12)
C29_4 C 0.2643(5) 0.65499(12) 0.41959(14)
H14_4 H 0.2299 0.6517 0.4411
C30_4 C 0.1780(5) 0.82131(13) 0.37549(13)
C31_4 C 0.1869(4) 0.79935(12) 0.44875(12)
H15_4 H 0.1660 0.8230 0.4578
C32_4 C 0.3310(5) 0.69614(13) 0.37558(15)
H16_4 H 0.3420 0.7213 0.3658
C33_4 C 0.3657(5) 0.66397(12) 0.35729(16)
H17_4 H 0.4014 0.6673 0.3364
C34_4 C 0.1387(5) 0.87720(13) 0.31749(15)
C35_4 C 0.1733(5) 0.88738(13) 0.35322(14)
H18_4 H 0.1844 0.9138 0.3581
C36_4 C 0.1968(5) 0.79203(13) 0.40694(13)
C37_4 C 0.2255(4) 0.75620(12) 0.39501(13)
H19_4 H 0.2303 0.7510 0.3662
C38_4 C 0.2477(5) 0.72758(12) 0.42308(13)
C39_4 C 0.1482(5) 0.81152(13) 0.33901(14)
H20_4 H 0.1427 0.7849 0.3324
C40_4 C 0.1251(5) 0.83924(13) 0.31038(16)
H21_4 H 0.0999 0.8315 0.2861
O18_4 O 0.5718(3) 0.60342(8) 0.75915(8)
O19_4 O 0.4282(3) 0.60342(8) 0.75915(8)
O21_4 O 0.3674(3) 0.44186(8) 0.79521(10)
O22_4 O 0.3674(3) 0.55814(8) 0.79521(10)
N1_5 N 0.2450(5) 0.21411(13) 0.0000
H1_5 H 0.2269 0.1906 0.0000
O12_3 O 0.0706(2) 0.10244(7) 0.17666(8)
O14_3 O 0.1355(3) 0.05947(7) 0.13991(9)
C21_5 C 0.1165(4) 0.09358(11) 0.14952(13)
C22_5 C 0.1545(4) 0.12654(12) 0.12887(14)
C23_5 C 0.2041(4) 0.12311(12) 0.09874(14)
H12_5 H 0.2178 0.0980 0.0898
C24_5 C 0.2616(4) 0.23567(12) 0.03476(11)
C25_5 C 0.2171(4) 0.19215(12) 0.09365(12)
C26_5 C 0.3076(5) 0.35989(12) 0.11746(13)
H13_5 H 0.2845 0.3676 0.0925
C27_5 C 0.3880(4) 0.40754(11) 0.21147(13)
C28_5 C 0.2917(4) 0.27132(12) 0.02246(12)
C29_5 C 0.2357(5) 0.15499(12) 0.08041(14)
H14_5 H 0.2701 0.1517 0.0589
C30_5 C 0.3220(5) 0.32131(13) 0.12451(13)
C31_5 C 0.3131(4) 0.29935(12) 0.05125(12)
H15_5 H 0.3340 0.3230 0.0422
C32_5 C 0.1690(5) 0.19614(13) 0.12442(15)
H16_5 H 0.1580 0.2213 0.1342
C33_5 C 0.1343(5) 0.16397(12) 0.14271(16)
H17_5 H 0.0986 0.1673 0.1636
C34_5 C 0.3613(5) 0.37720(13) 0.18251(15)
C35_5 C 0.3267(5) 0.38738(13) 0.14678(14)
H18_5 H 0.3156 0.4138 0.1419
C36_5 C 0.3032(5) 0.29203(13) 0.09306(13)
C37_5 C 0.2745(4) 0.25620(12) 0.10499(13)
H19_5 H 0.2697 0.2510 0.1338
C38_5 C 0.2523(5) 0.22758(12) 0.07692(13)
C39_5 C 0.3518(5) 0.31152(13) 0.16099(14)
H20_5 H 0.3573 0.2849 0.1676
C40_5 C 0.3749(5) 0.33924(13) 0.18962(16)
H21_5 H 0.4001 0.3315 0.2139
Zr8_3 Zr 0.09611(5) -0.0000 0.16215(2)
Zr2_2 Zr 0.09611(5) 0.0000 0.83785(2)
O1_5 O 0.0706(2) 0.10244(7) 0.82334(8)
O3_5 O 0.1355(3) 0.05947(7) 0.86009(9)
O4_5 O 0.0880(4) 0.0000 0.90529(11)
O6_5 O 0.0946(3) 0.03410(8) 0.78287(9)
O7_5 O 0.0763(5) 0.0000 0.66001(11)
O8_5 O 0.2099(5) -0.0000 0.73011(16)
N1_6 N 0.2450(5) 0.21411(13) 1.0000
H1_6 H 0.2269 0.1906 1.0000
O9_3 O -0.0000 0.03520(13) 0.83872(19)
O10_5 O 0.2134(5) -0.0000 0.83456(17)
O11_3 O 0.0000 0.03508(17) 0.72755(18)
C1_5 C 0.1165(4) 0.09358(11) 0.85048(13)
C2_5 C 0.1545(4) 0.12654(12) 0.87113(14)
C3_5 C 0.2041(4) 0.12311(12) 0.90126(14)
H2_5 H 0.2178 0.0980 0.9102
C4_5 C 0.2616(4) 0.23567(12) 0.96524(11)
C5_5 C 0.2171(4) 0.19215(12) 0.90635(12)
C6_5 C 0.3076(5) 0.35989(12) 0.88254(13)
H3_5 H 0.2845 0.3676 0.9075
C7_5 C 0.3880(4) 0.40754(11) 0.78853(13)
C8_5 C 0.2917(4) 0.27132(12) 0.97754(12)
C9_5 C 0.2357(5) 0.15499(12) 0.91959(14)
H4_5 H 0.2701 0.1517 0.9411
C10_5 C 0.3220(5) 0.32131(13) 0.87549(13)
C11_5 C 0.3131(4) 0.29935(12) 0.94875(12)
H5_5 H 0.3340 0.3230 0.9578
C12_5 C 0.1690(5) 0.19614(13) 0.87558(15)
H6_5 H 0.1580 0.2213 0.8658
C13_5 C 0.1343(5) 0.16397(12) 0.85729(16)
H7_5 H 0.0986 0.1673 0.8364
C14_5 C 0.3613(5) 0.37720(13) 0.81749(15)
C15_5 C 0.3267(5) 0.38738(13) 0.85322(14)
H8_5 H 0.3156 0.4138 0.8581
C16_5 C 0.3032(5) 0.29203(13) 0.90694(13)
C17_5 C 0.2745(4) 0.25620(12) 0.89501(13)
H9_5 H 0.2697 0.2510 0.8662
C18_5 C 0.2523(5) 0.22758(12) 0.92308(13)
C19_5 C 0.3518(5) 0.31152(13) 0.83901(14)
H10_5 H 0.3573 0.2849 0.8324
C20_5 C 0.3749(5) 0.33924(13) 0.81038(16)
H11_5 H 0.4001 0.3315 0.7861
H22 H 0.109353 0.0187621 0.64654
H24 H 0.233617 0.00467505 0.862662
H26 H 0.0549412 0.0209579 0.914271
Zr8_4 Zr 0.09611(5) 1.0000 0.16215(2)
Zr2_3 Zr 0.09611(5) 1.0000 0.83785(2)
O4_6 O 0.0880(4) 1.0000 0.90529(11)
O7_6 O 0.0763(5) 1.0000 0.66001(11)
O8_6 O 0.2099(5) 1.0000 0.73011(16)
O10_6 O 0.2134(5) 1.0000 0.83456(17)
O20_3 O 0.1355(3) 0.94053(7) 0.86009(9)
O23_3 O 0.0946(3) 0.96590(8) 0.78287(9)
O24_3 O 0.0000 0.96480(13) 0.83872(19)
O25_3 O 0.0000 0.96492(17) 0.72755(18)
H23 H 0.0854211 0.973726 0.648756
H25 H 0.230364 0.974576 0.824104
H27 H 0.0689501 0.97469 0.914831
H28 H 0.226131 0.987981 0.756502
H29 H 0.229186 0.985009 0.70628
O9_4 O 1.0000 0.03520(13) 0.83872(19)
O11_4 O 1.0000 0.03508(17) 0.72755(18)
O16_3 O 0.9054(3) 0.03410(8) 0.78287(9)
Zr7_2 Zr 0.90389(5) 0.0000 0.83785(2)
O17_3 O 0.9294(2) 0.10244(7) 0.82334(8)
Zr7_3 Zr 0.90389(5) 1.0000 0.83785(2)
O24_4 O 1.0000 0.96480(13) 0.83872(19)
O25_4 O 1.0000 0.96492(17) 0.72755(18)
O17_4 O 0.0706(2) 0.89756(7) 0.82334(8)
Zr8_5 Zr 0.90389(5) 0.0000 0.16215(2)
O4_7 O 0.9120(4) 0.0000 0.90529(11)
O7_7 O 0.9237(5) 0.0000 0.66001(11)
O8_7 O 0.7901(5) -0.0000 0.73011(16)
O10_7 O 0.7866(5) -0.0000 0.83456(17)
O20_4 O 0.8645(3) 0.05947(7) 0.86009(9)
H23_2 H 0.914579 0.0262742 0.648756
H25_2 H 0.769636 0.0254243 0.824104
H27_2 H 0.93105 0.0253102 0.914831
H28_2 H 0.773869 0.0120194 0.756502
H29_2 H 0.770814 0.0149912 0.70628
N1_7 N 0.7550(5) 0.78589(13) 0.0000
H1_7 H 0.7731 0.8094 0.0000
O12_4 O 0.9294(2) 0.89756(7) 0.17666(8)
O14_4 O 0.8645(3) 0.94053(7) 0.13991(9)
C21_6 C 0.8835(4) 0.90642(11) 0.14952(13)
C22_6 C 0.8455(4) 0.87346(12) 0.12887(14)
C23_6 C 0.7959(4) 0.87689(12) 0.09874(14)
H12_6 H 0.7822 0.9020 0.0898
C24_6 C 0.7384(4) 0.76433(12) 0.03476(11)
C25_6 C 0.7829(4) 0.80785(12) 0.09365(12)
C26_6 C 0.6924(5) 0.64011(12) 0.11746(13)
H13_6 H 0.7155 0.6324 0.0925
C27_6 C 0.6120(4) 0.59246(11) 0.21147(13)
C28_6 C 0.7083(4) 0.72868(12) 0.02246(12)
C29_6 C 0.7643(5) 0.84501(12) 0.08041(14)
H14_6 H 0.7299 0.8483 0.0589
C30_6 C 0.6780(5) 0.67869(13) 0.12451(13)
C31_6 C 0.6869(4) 0.70065(12) 0.05125(12)
H15_6 H 0.6660 0.6770 0.0422
C32_6 C 0.8310(5) 0.80386(13) 0.12442(15)
H16_6 H 0.8420 0.7787 0.1342
C33_6 C 0.8657(5) 0.83603(12) 0.14271(16)
H17_6 H 0.9014 0.8327 0.1636
C34_6 C 0.6387(5) 0.62280(13) 0.18251(15)
C35_6 C 0.6733(5) 0.61262(13) 0.14678(14)
H18_6 H 0.6844 0.5862 0.1419
C36_6 C 0.6968(5) 0.70797(13) 0.09306(13)
C37_6 C 0.7255(4) 0.74380(12) 0.10499(13)
H19_6 H 0.7303 0.7490 0.1338
C38_6 C 0.7477(5) 0.77242(12) 0.07692(13)
C39_6 C 0.6482(5) 0.68848(13) 0.16099(14)
H20_6 H 0.6427 0.7151 0.1676
C40_6 C 0.6251(5) 0.66076(13) 0.18962(16)
H21_6 H 0.5999 0.6685 0.2139
Zr8_6 Zr 0.90389(5) 1.0000 0.16215(2)
O1_6 O 0.9294(2) 0.89756(7) 0.82334(8)
O3_6 O 0.8645(3) 0.94053(7) 0.86009(9)
O4_8 O 0.9120(4) 1.0000 0.90529(11)
O6_6 O 0.9054(3) 0.96590(8) 0.78287(9)
O7_8 O 0.9237(5) 1.0000 0.66001(11)
O8_8 O 0.7901(5) 1.0000 0.73011(16)
N1_8 N 0.7550(5) 0.78589(13) 1.0000
H1_8 H 0.7731 0.8094 1.0000
O10_8 O 0.7866(5) 1.0000 0.83456(17)
C1_6 C 0.8835(4) 0.90642(11) 0.85048(13)
C2_6 C 0.8455(4) 0.87346(12) 0.87113(14)
C3_6 C 0.7959(4) 0.87689(12) 0.90126(14)
H2_6 H 0.7822 0.9020 0.9102
C4_6 C 0.7384(4) 0.76433(12) 0.96524(11)
C5_6 C 0.7829(4) 0.80785(12) 0.90635(12)
C6_6 C 0.6924(5) 0.64011(12) 0.88254(13)
H3_6 H 0.7155 0.6324 0.9075
C7_6 C 0.6120(4) 0.59246(11) 0.78853(13)
C8_6 C 0.7083(4) 0.72868(12) 0.97754(12)
C9_6 C 0.7643(5) 0.84501(12) 0.91959(14)
H4_6 H 0.7299 0.8483 0.9411
C10_6 C 0.6780(5) 0.67869(13) 0.87549(13)
C11_6 C 0.6869(4) 0.70065(12) 0.94875(12)
H5_6 H 0.6660 0.6770 0.9578
C12_6 C 0.8310(5) 0.80386(13) 0.87558(15)
H6_6 H 0.8420 0.7787 0.8658
C13_6 C 0.8657(5) 0.83603(12) 0.85729(16)
H7_6 H 0.9014 0.8327 0.8364
C14_6 C 0.6387(5) 0.62280(13) 0.81749(15)
C15_6 C 0.6733(5) 0.61262(13) 0.85322(14)
H8_6 H 0.6844 0.5862 0.8581
C16_6 C 0.6968(5) 0.70797(13) 0.90694(13)
C17_6 C 0.7255(4) 0.74380(12) 0.89501(13)
H9_6 H 0.7303 0.7490 0.8662
C18_6 C 0.7477(5) 0.77242(12) 0.92308(13)
C19_6 C 0.6482(5) 0.68848(13) 0.83901(14)
H10_6 H 0.6427 0.7151 0.8324
C20_6 C 0.6251(5) 0.66076(13) 0.81038(16)
H11_6 H 0.5999 0.6685 0.7861
H22_2 H 0.890647 0.981238 0.64654
H24_2 H 0.766383 0.995325 0.862662
H26_2 H 0.945059 0.979042 0.914271
O4_9 O 0.0880(4) -0.0000 0.09471(11)
O7_9 O 0.0763(5) 0.0000 0.33999(11)
O8_9 O 0.2099(5) -0.0000 0.26989(16)
O10_9 O 0.2134(5) 0.0000 0.16544(17)
O23_4 O 0.0946(3) 0.03410(8) 0.21713(9)
O24_5 O 0.0000 0.03520(13) 0.16128(19)
O25_5 O 0.0000 0.03508(17) 0.27245(18)
H23_3 H 0.0854211 0.0262742 0.351244
H25_3 H 0.230364 0.0254243 0.175896
H27_3 H 0.0689501 0.0253102 0.0851686
H28_3 H 0.226131 0.0120194 0.243498
H29_3 H 0.229186 0.0149912 0.29372
O1_7 O 0.0706(2) 0.89756(7) 0.17666(8)
O3_7 O 0.1355(3) 0.94053(7) 0.13991(9)
O4_10 O 0.0880(4) 1.0000 0.09471(11)
O6_7 O 0.0946(3) 0.96590(8) 0.21713(9)
O7_10 O 0.0763(5) 1.0000 0.33999(11)
O8_10 O 0.2099(5) 1.0000 0.26989(16)
N1_9 N 0.2450(5) 0.78589(13) -0.0000
H1_9 H 0.2269 0.8094 -0.0000
O9_5 O -0.0000 0.96480(13) 0.16128(19)
O10_10 O 0.2134(5) 1.0000 0.16544(17)
O11_5 O 0.0000 0.96492(17) 0.27245(18)
C1_7 C 0.1165(4) 0.90642(11) 0.14952(13)
C2_7 C 0.1545(4) 0.87346(12) 0.12887(14)
C3_7 C 0.2041(4) 0.87689(12) 0.09874(14)
H2_7 H 0.2178 0.9020 0.0898
C4_7 C 0.2616(4) 0.76433(12) 0.03476(11)
C5_7 C 0.2171(4) 0.80785(12) 0.09365(12)
C6_7 C 0.3076(5) 0.64011(12) 0.11746(13)
H3_7 H 0.2845 0.6324 0.0925
C7_7 C 0.3880(4) 0.59246(11) 0.21147(13)
C8_7 C 0.2917(4) 0.72868(12) 0.02246(12)
C9_7 C 0.2357(5) 0.84501(12) 0.08041(14)
H4_7 H 0.2701 0.8483 0.0589
C10_7 C 0.3220(5) 0.67869(13) 0.12451(13)
C11_7 C 0.3131(4) 0.70065(12) 0.05125(12)
H5_7 H 0.3340 0.6770 0.0422
C12_7 C 0.1690(5) 0.80386(13) 0.12442(15)
H6_7 H 0.1580 0.7787 0.1342
C13_7 C 0.1343(5) 0.83603(12) 0.14271(16)
H7_7 H 0.0986 0.8327 0.1636
C14_7 C 0.3613(5) 0.62280(13) 0.18251(15)
C15_7 C 0.3267(5) 0.61262(13) 0.14678(14)
H8_7 H 0.3156 0.5862 0.1419
C16_7 C 0.3032(5) 0.70797(13) 0.09306(13)
C17_7 C 0.2745(4) 0.74380(12) 0.10499(13)
H9_7 H 0.2697 0.7490 0.1338
C18_7 C 0.2523(5) 0.77242(12) 0.07692(13)
C19_7 C 0.3518(5) 0.68848(13) 0.16099(14)
H10_7 H 0.3573 0.7151 0.1676
C20_7 C 0.3749(5) 0.66076(13) 0.18962(16)
H11_7 H 0.4001 0.6685 0.2139
H22_3 H 0.109353 0.981238 0.35346
H24_3 H 0.233617 0.995325 0.137338
H26_3 H 0.0549412 0.979042 0.0857287
N1_10 N 0.2450(5) 0.78589(13) 1.0000
H1_10 H 0.2269 0.8094 1.0000
C21_7 C 0.1165(4) 0.90642(11) 0.85048(13)
C22_7 C 0.1545(4) 0.87346(12) 0.87113(14)
C23_7 C 0.2041(4) 0.87689(12) 0.90126(14)
H12_7 H 0.2178 0.9020 0.9102
C24_7 C 0.2616(4) 0.76433(12) 0.96524(11)
C25_7 C 0.2171(4) 0.80785(12) 0.90635(12)
C26_7 C 0.3076(5) 0.64011(12) 0.88254(13)
H13_7 H 0.2845 0.6324 0.9075
C27_7 C 0.3880(4) 0.59246(11) 0.78853(13)
C28_7 C 0.2917(4) 0.72868(12) 0.97754(12)
C29_7 C 0.2357(5) 0.84501(12) 0.91959(14)
H14_7 H 0.2701 0.8483 0.9411
C30_7 C 0.3220(5) 0.67869(13) 0.87549(13)
C31_7 C 0.3131(4) 0.70065(12) 0.94875(12)
H15_7 H 0.3340 0.6770 0.9578
C32_7 C 0.1690(5) 0.80386(13) 0.87558(15)
H16_7 H 0.1580 0.7787 0.8658
C33_7 C 0.1343(5) 0.83603(12) 0.85729(16)
H17_7 H 0.0986 0.8327 0.8364
C34_7 C 0.3613(5) 0.62280(13) 0.81749(15)
C35_7 C 0.3267(5) 0.61262(13) 0.85322(14)
H18_7 H 0.3156 0.5862 0.8581
C36_7 C 0.3032(5) 0.70797(13) 0.90694(13)
C37_7 C 0.2745(4) 0.74380(12) 0.89501(13)
H19_7 H 0.2697 0.7490 0.8662
C38_7 C 0.2523(5) 0.77242(12) 0.92308(13)
C39_7 C 0.3518(5) 0.68848(13) 0.83901(14)
H20_7 H 0.3573 0.7151 0.8324
C40_7 C 0.3749(5) 0.66076(13) 0.81038(16)
H21_7 H 0.4001 0.6685 0.7861
O24_6 O 1.0000 0.03520(13) 0.16128(19)
O25_6 O 1.0000 0.03508(17) 0.27245(18)
O9_6 O 1.0000 0.96480(13) 0.16128(19)
O11_6 O 1.0000 0.96492(17) 0.27245(18)
O16_4 O 0.9054(3) 0.96590(8) 0.21713(9)
O1_8 O 0.9294(2) 0.10244(7) 0.17666(8)
O3_8 O 0.8645(3) 0.05947(7) 0.13991(9)
O4_11 O 0.9120(4) -0.0000 0.09471(11)
O6_8 O 0.9054(3) 0.03410(8) 0.21713(9)
O7_11 O 0.9237(5) 0.0000 0.33999(11)
O8_11 O 0.7901(5) -0.0000 0.26989(16)
N1_11 N 0.7550(5) 0.21411(13) -0.0000
H1_11 H 0.7731 0.1906 -0.0000
O10_11 O 0.7866(5) 0.0000 0.16544(17)
C1_8 C 0.8835(4) 0.09358(11) 0.14952(13)
C2_8 C 0.8455(4) 0.12654(12) 0.12887(14)
C3_8 C 0.7959(4) 0.12311(12) 0.09874(14)
H2_8 H 0.7822 0.0980 0.0898
C4_8 C 0.7384(4) 0.23567(12) 0.03476(11)
C5_8 C 0.7829(4) 0.19215(12) 0.09365(12)
C6_8 C 0.6924(5) 0.35989(12) 0.11746(13)
H3_8 H 0.7155 0.3676 0.0925
C7_8 C 0.6120(4) 0.40754(11) 0.21147(13)
C8_8 C 0.7083(4) 0.27132(12) 0.02246(12)
C9_8 C 0.7643(5) 0.15499(12) 0.08041(14)
H4_8 H 0.7299 0.1517 0.0589
C10_8 C 0.6780(5) 0.32131(13) 0.12451(13)
C11_8 C 0.6869(4) 0.29935(12) 0.05125(12)
H5_8 H 0.6660 0.3230 0.0422
C12_8 C 0.8310(5) 0.19614(13) 0.12442(15)
H6_8 H 0.8420 0.2213 0.1342
C13_8 C 0.8657(5) 0.16397(12) 0.14271(16)
H7_8 H 0.9014 0.1673 0.1636
C14_8 C 0.6387(5) 0.37720(13) 0.18251(15)
C15_8 C 0.6733(5) 0.38738(13) 0.14678(14)
H8_8 H 0.6844 0.4138 0.1419
C16_8 C 0.6968(5) 0.29203(13) 0.09306(13)
C17_8 C 0.7255(4) 0.25620(12) 0.10499(13)
H9_8 H 0.7303 0.2510 0.1338
C18_8 C 0.7477(5) 0.22758(12) 0.07692(13)
C19_8 C 0.6482(5) 0.31152(13) 0.16099(14)
H10_8 H 0.6427 0.2849 0.1676
C20_8 C 0.6251(5) 0.33924(13) 0.18962(16)
H11_8 H 0.5999 0.3315 0.2139
H22_4 H 0.890647 0.0187621 0.35346
H24_4 H 0.766383 0.00467505 0.137338
H26_4 H 0.945059 0.0209579 0.0857287
N1_12 N 0.7550(5) 0.21411(13) 1.0000
H1_12 H 0.7731 0.1906 1.0000
C21_8 C 0.8835(4) 0.09358(11) 0.85048(13)
C22_8 C 0.8455(4) 0.12654(12) 0.87113(14)
C23_8 C 0.7959(4) 0.12311(12) 0.90126(14)
H12_8 H 0.7822 0.0980 0.9102
C24_8 C 0.7384(4) 0.23567(12) 0.96524(11)
C25_8 C 0.7829(4) 0.19215(12) 0.90635(12)
C26_8 C 0.6924(5) 0.35989(12) 0.88254(13)
H13_8 H 0.7155 0.3676 0.9075
C27_8 C 0.6120(4) 0.40754(11) 0.78853(13)
C28_8 C 0.7083(4) 0.27132(12) 0.97754(12)
C29_8 C 0.7643(5) 0.15499(12) 0.91959(14)
H14_8 H 0.7299 0.1517 0.9411
C30_8 C 0.6780(5) 0.32131(13) 0.87549(13)
C31_8 C 0.6869(4) 0.29935(12) 0.94875(12)
H15_8 H 0.6660 0.3230 0.9578
C32_8 C 0.8310(5) 0.19614(13) 0.87558(15)
H16_8 H 0.8420 0.2213 0.8658
C33_8 C 0.8657(5) 0.16397(12) 0.85729(16)
H17_8 H 0.9014 0.1673 0.8364
C34_8 C 0.6387(5) 0.37720(13) 0.81749(15)
C35_8 C 0.6733(5) 0.38738(13) 0.85322(14)
H18_8 H 0.6844 0.4138 0.8581
C36_8 C 0.6968(5) 0.29203(13) 0.90694(13)
C37_8 C 0.7255(4) 0.25620(12) 0.89501(13)
H19_8 H 0.7303 0.2510 0.8662
C38_8 C 0.7477(5) 0.22758(12) 0.92308(13)
C39_8 C 0.6482(5) 0.31152(13) 0.83901(14)
H20_8 H 0.6427 0.2849 0.8324
C40_8 C 0.6251(5) 0.33924(13) 0.81038(16)
H21_8 H 0.5999 0.3315 0.7861
O4_12 O 0.9120(4) 1.0000 0.09471(11)
O7_12 O 0.9237(5) 1.0000 0.33999(11)
O8_12 O 0.7901(5) 1.0000 0.26989(16)
O10_12 O 0.7866(5) 1.0000 0.16544(17)
H23_4 H 0.914579 0.973726 0.351244
H25_4 H 0.769636 0.974576 0.175896
H27_4 H 0.93105 0.97469 0.0851686
H28_4 H 0.773869 0.987981 0.243498
H29_4 H 0.770814 0.985009 0.29372
H23_5 H 0.914579 0.0262742 0.351244
H25_5 H 0.769636 0.0254243 0.175896
H27_5 H 0.93105 0.0253102 0.0851686
H28_5 H 0.773869 0.0120194 0.243498
H29_5 H 0.770814 0.0149912 0.29372
H22_5 H 0.890647 0.981238 0.35346
H24_5 H 0.766383 0.995325 0.137338
H26_5 H 0.945059 0.979042 0.0857287
H22_6 H 0.109353 0.0187621 0.35346
H24_6 H 0.233617 0.00467505 0.137338
H26_6 H 0.0549412 0.0209579 0.0857287
H23_6 H 0.0854211 0.973726 0.351244
H25_6 H 0.230364 0.974576 0.175896
H27_6 H 0.0689501 0.97469 0.0851686
H28_6 H 0.226131 0.987981 0.243498
H29_6 H 0.229186 0.985009 0.29372
H22_7 H 0.890647 0.0187621 0.64654
H24_7 H 0.766383 0.00467505 0.862662
H26_7 H 0.945059 0.0209579 0.914271
H23_7 H 0.914579 0.973726 0.648756
H25_7 H 0.769636 0.974576 0.824104
H27_7 H 0.93105 0.97469 0.914831
H28_7 H 0.773869 0.987981 0.756502
H29_7 H 0.770814 0.985009 0.70628
H23_8 H 0.0854211 0.0262742 0.648756
H25_8 H 0.230364 0.0254243 0.824104
H27_8 H 0.0689501 0.0253102 0.914831
H28_8 H 0.226131 0.0120194 0.756502
H29_8 H 0.229186 0.0149912 0.70628
H22_8 H 0.109353 0.981238 0.64654
H24_8 H 0.233617 0.995325 0.862662
H26_8 H 0.0549412 0.979042 0.914271
loop_
_geom_bond_atom_site_label_1
_geom_bond_atom_site_label_2
_geom_bond_site_symmetry_1
_geom_bond_site_symmetry_2
Zr1 O1 1_555 1_555
Zr2 O3 1_555 1_555
Zr3 O6 1_555 1_555
O1 C1 1_555 1_555
O2 C7 1_555 1_555
O3 C1 1_555 1_555
O4 Zr2 1_555 1_555
O5 C7 1_555 1_555
O6 Zr1 1_555 1_555
O7 Zr3 1_555 1_555
O8 Zr3 1_555 1_555
N1 H1 1_555 1_555
O9 Zr1 1_555 1_555
O10 Zr2 1_555 1_555
O11 Zr1 1_555 1_555
C1 C2 1_555 1_555
C2 C3 1_555 1_555
C3 H2 1_555 1_555
C4 N1 1_555 1_555
C5 C9 1_555 1_555
C6 H3 1_555 1_555
C7 C14 1_555 1_555
C8 C4 1_555 1_555
C9 C3 1_555 1_555
H4 C9 1_555 1_555
C10 C6 1_555 1_555
C11 C8 1_555 1_555
H5 C11 1_555 1_555
C12 C5 1_555 1_555
H6 C12 1_555 1_555
C13 C2 1_555 1_555
H7 C13 1_555 1_555
C14 C15 1_555 1_555
C15 C6 1_555 1_555
H8 C15 1_555 1_555
C16 C10 1_555 1_555
C17 C16 1_555 1_555
H9 C17 1_555 1_555
C18 C4 1_555 1_555
C19 C10 1_555 1_555
H10 C19 1_555 1_555
C20 C14 1_555 1_555
H11 C20 1_555 1_555
O12 C21 1_555 1_555
O13 C27 1_555 1_555
O14 C21 1_555 1_555
O15 C27 1_555 1_555
C21 C22 1_555 1_555
C22 C23 1_555 1_555
C23 H12 1_555 1_555
C24 N1 1_555 1_555
C25 C29 1_555 1_555
C26 H13 1_555 1_555
C27 C34 1_555 1_555
C28 C8 1_555 1_555
C29 C23 1_555 1_555
H14 C29 1_555 1_555
C30 C26 1_555 1_555
C31 C28 1_555 1_555
H15 C31 1_555 1_555
C32 C25 1_555 1_555
H16 C32 1_555 1_555
C33 C22 1_555 1_555
H17 C33 1_555 1_555
C34 C35 1_555 1_555
C35 C26 1_555 1_555
H18 C35 1_555 1_555
C36 C30 1_555 1_555
C37 C36 1_555 1_555
H19 C37 1_555 1_555
C38 C24 1_555 1_555
C39 C30 1_555 1_555
H20 C39 1_555 1_555
C40 C34 1_555 1_555
H21 C40 1_555 1_555
O16 Zr1 1_555 1_555
Zr4 O12 1_555 1_555
Zr5_2 O13 1_555 1_555
Zr6_2 O2 1_555 1_555
Zr7 O9 1_555 1_555
Zr8 O14 1_555 1_555
Zr9 O11 1_555 1_555
Zr10_2 O15 1_555 1_555
Zr11_2 O5 1_555 1_555
O17 Zr1 1_555 1_555
O18 Zr1 1_555 1_555
O19 Zr1 1_555 1_555
O20 Zr2 1_555 1_555
O21 Zr3 1_555 1_555
O22 Zr3 1_555 1_555
O23 Zr2 1_555 1_555
O24 Zr2 1_555 1_555
O25 Zr3 1_555 1_555
Zr2 O6 1_555 1_555
Zr2 O9 1_555 1_555
Zr3 O11 1_555 1_555
Zr3 O23 1_555 1_555
C5 C18 1_555 1_555
C11 C16 1_555 1_555
C12 C13 1_555 1_555
C17 C18 1_555 1_555
C19 C20 1_555 1_555
C24 C28 1_555 1_555
C25 C38 1_555 1_555
C31 C36 1_555 1_555
C32 C33 1_555 1_555
C37 C38 1_555 1_555
C39 C40 1_555 1_555
O16 Zr7 1_555 1_555
O16 Zr9 1_555 1_555
Zr7 O24 1_555 1_555
Zr9 O25 1_555 1_555
Zr1_2 O1_2 1_555 1_555
Zr7 O3_2 1_555 1_555
Zr9 O6_2 1_555 1_555
O1_2 C1_2 1_555 1_555
O2_2 C7_2 1_555 1_555
O3_2 C1_2 1_555 1_555
O4_2 Zr7 1_555 1_555
O5_2 C7_2 1_555 1_555
O6_2 Zr1_2 1_555 1_555
O7_2 Zr9 1_555 1_555
O8_2 Zr9 1_555 1_555
N1_2 H1_2 1_555 1_555
O24 Zr1_2 1_555 1_555
O10_2 Zr7 1_555 1_555
O25 Zr1_2 1_555 1_555
C1_2 C2_2 1_555 1_555
C2_2 C3_2 1_555 1_555
C3_2 H2_2 1_555 1_555
C4_2 N1_2 1_555 1_555
C5_2 C9_2 1_555 1_555
C6_2 H3_2 1_555 1_555
C7_2 C14_2 1_555 1_555
C8_2 C4_2 1_555 1_555
C9_2 C3_2 1_555 1_555
H4_2 C9_2 1_555 1_555
C10_2 C6_2 1_555 1_555
C11_2 C8_2 1_555 1_555
H5_2 C11_2 1_555 1_555
C12_2 C5_2 1_555 1_555
H6_2 C12_2 1_555 1_555
C13_2 C2_2 1_555 1_555
H7_2 C13_2 1_555 1_555
C14_2 C15_2 1_555 1_555
C15_2 C6_2 1_555 1_555
H8_2 C15_2 1_555 1_555
C16_2 C10_2 1_555 1_555
C17_2 C16_2 1_555 1_555
H9_2 C17_2 1_555 1_555
C18_2 C4_2 1_555 1_555
C19_2 C10_2 1_555 1_555
H10_2 C19_2 1_555 1_555
C20_2 C14_2 1_555 1_555
H11_2 C20_2 1_555 1_555
O12_2 C21_2 1_555 1_555
O13_2 C27_2 1_555 1_555
O14_2 C21_2 1_555 1_555
O15_2 C27_2 1_555 1_555
C21_2 C22_2 1_555 1_555
C22_2 C23_2 1_555 1_555
C23_2 H12_2 1_555 1_555
C24_2 N1_2 1_555 1_555
C25_2 C29_2 1_555 1_555
C26_2 H13_2 1_555 1_555
C27_2 C34_2 1_555 1_555
C28_2 C8_2 1_555 1_555
C29_2 C23_2 1_555 1_555
H14_2 C29_2 1_555 1_555
C30_2 C26_2 1_555 1_555
C31_2 C28_2 1_555 1_555
H15_2 C31_2 1_555 1_555
C32_2 C25_2 1_555 1_555
H16_2 C32_2 1_555 1_555
C33_2 C22_2 1_555 1_555
H17_2 C33_2 1_555 1_555
C34_2 C35_2 1_555 1_555
C35_2 C26_2 1_555 1_555
H18_2 C35_2 1_555 1_555
C36_2 C30_2 1_555 1_555
C37_2 C36_2 1_555 1_555
H19_2 C37_2 1_555 1_555
C38_2 C24_2 1_555 1_555
C39_2 C30_2 1_555 1_555
H20_2 C39_2 1_555 1_555
C40_2 C34_2 1_555 1_555
H21_2 C40_2 1_555 1_555
O23 Zr1_2 1_555 1_555
Zr4_2 O12_2 1_555 1_555
Zr5_3 O13_2 1_555 1_555
Zr6_3 O2_2 1_555 1_555
Zr8_2 O14_2 1_555 1_555
Zr10_3 O15_2 1_555 1_555
Zr11_3 O5_2 1_555 1_555
O17_2 Zr1_2 1_555 1_555
O18_2 Zr1_2 1_555 1_555
O19_2 Zr1_2 1_555 1_555
O20_2 Zr7 1_555 1_555
O21_2 Zr9 1_555 1_555
O22_2 Zr9 1_555 1_555
Zr7 O6_2 1_555 1_555
C5_2 C18_2 1_555 1_555
C11_2 C16_2 1_555 1_555
C12_2 C13_2 1_555 1_555
C17_2 C18_2 1_555 1_555
C19_2 C20_2 1_555 1_555
C24_2 C28_2 1_555 1_555
C25_2 C38_2 1_555 1_555
C31_2 C36_2 1_555 1_555
C32_2 C33_2 1_555 1_555
C37_2 C38_2 1_555 1_555
C39_2 C40_2 1_555 1_555
Zr4_2 O1_3 1_555 1_555
Zr8 O3_3 1_555 1_555
Zr3_2 O6_3 1_555 1_555
O1_3 C1_3 1_555 1_555
O2_3 C7_3 1_555 1_555
O3_3 C1_3 1_555 1_555
O4_3 Zr8 1_555 1_555
O5_3 C7_3 1_555 1_555
O6_3 Zr4_2 1_555 1_555
O7_3 Zr3_2 1_555 1_555
O8_3 Zr3_2 1_555 1_555
N1_3 H1_3 1_555 1_555
O9_2 Zr4_2 1_555 1_555
O10_3 Zr8 1_555 1_555
O11_2 Zr4_2 1_555 1_555
C1_3 C2_3 1_555 1_555
C2_3 C3_3 1_555 1_555
C3_3 H2_3 1_555 1_555
C4_3 N1_3 1_555 1_555
C5_3 C9_3 1_555 1_555
C6_3 H3_3 1_555 1_555
C7_3 C14_3 1_555 1_555
C8_3 C4_3 1_555 1_555
C9_3 C3_3 1_555 1_555
H4_3 C9_3 1_555 1_555
C10_3 C6_3 1_555 1_555
C11_3 C8_3 1_555 1_555
H5_3 C11_3 1_555 1_555
C12_3 C5_3 1_555 1_555
H6_3 C12_3 1_555 1_555
C13_3 C2_3 1_555 1_555
H7_3 C13_3 1_555 1_555
C14_3 C15_3 1_555 1_555
C15_3 C6_3 1_555 1_555
H8_3 C15_3 1_555 1_555
C16_3 C10_3 1_555 1_555
C17_3 C16_3 1_555 1_555
H9_3 C17_3 1_555 1_555
C18_3 C4_3 1_555 1_555
C19_3 C10_3 1_555 1_555
H10_3 C19_3 1_555 1_555
C20_3 C14_3 1_555 1_555
H11_3 C20_3 1_555 1_555
O17_2 C21_3 1_555 1_555
O13_3 C27_3 1_555 1_555
O20 C21_3 1_555 1_555
O15_3 C27_3 1_555 1_555
C21_3 C22_3 1_555 1_555
C22_3 C23_3 1_555 1_555
C23_3 H12_3 1_555 1_555
C24_3 N1_3 1_555 1_555
C25_3 C29_3 1_555 1_555
C26_3 H13_3 1_555 1_555
C27_3 C34_3 1_555 1_555
C28_3 C8_3 1_555 1_555
C29_3 C23_3 1_555 1_555
H14_3 C29_3 1_555 1_555
C30_3 C26_3 1_555 1_555
C31_3 C28_3 1_555 1_555
H15_3 C31_3 1_555 1_555
C32_3 C25_3 1_555 1_555
H16_3 C32_3 1_555 1_555
C33_3 C22_3 1_555 1_555
H17_3 C33_3 1_555 1_555
C34_3 C35_3 1_555 1_555
C35_3 C26_3 1_555 1_555
H18_3 C35_3 1_555 1_555
C36_3 C30_3 1_555 1_555
C37_3 C36_3 1_555 1_555
H19_3 C37_3 1_555 1_555
C38_3 C24_3 1_555 1_555
C39_3 C30_3 1_555 1_555
H20_3 C39_3 1_555 1_555
C40_3 C34_3 1_555 1_555
H21_3 C40_3 1_555 1_555
O16_2 Zr4_2 1_555 1_555
Zr6_4 O13_3 1_555 1_555
Zr5_4 O2_3 1_555 1_555
Zr8_2 O9_2 1_555 1_555
Zr9_2 O11_2 1_555 1_555
Zr11 O15_3 1_555 1_555
Zr10 O5_3 1_555 1_555
O18_3 Zr4_2 1_555 1_555
O19_3 Zr4_2 1_555 1_555
O21_3 Zr3_2 1_555 1_555
O22_3 Zr3_2 1_555 1_555
O23_2 Zr8 1_555 1_555
O24_2 Zr8 1_555 1_555
O25_2 Zr3_2 1_555 1_555
Zr8 O6_3 1_555 1_555
Zr8 O9_2 1_555 1_555
Zr3_2 O11_2 1_555 1_555
Zr3_2 O23_2 1_555 1_555
C5_3 C18_3 1_555 1_555
C11_3 C16_3 1_555 1_555
C12_3 C13_3 1_555 1_555
C17_3 C18_3 1_555 1_555
C19_3 C20_3 1_555 1_555
C24_3 C28_3 1_555 1_555
C25_3 C38_3 1_555 1_555
C31_3 C36_3 1_555 1_555
C32_3 C33_3 1_555 1_555
C37_3 C38_3 1_555 1_555
C39_3 C40_3 1_555 1_555
O16_2 Zr8_2 1_555 1_555
O16_2 Zr9_2 1_555 1_555
Zr8_2 O24_2 1_555 1_555
Zr9_2 O25_2 1_555 1_555
Zr4 O1_4 1_555 1_555
Zr8_2 O3_4 1_555 1_555
Zr9_2 O6_4 1_555 1_555
O1_4 C1_4 1_555 1_555
O2_4 C7_4 1_555 1_555
O3_4 C1_4 1_555 1_555
O4_4 Zr8_2 1_555 1_555
O5_4 C7_4 1_555 1_555
O6_4 Zr4 1_555 1_555
O7_4 Zr9_2 1_555 1_555
O8_4 Zr9_2 1_555 1_555
N1_4 H1_4 1_555 1_555
O24_2 Zr4 1_555 1_555
O10_4 Zr8_2 1_555 1_555
O25_2 Zr4 1_555 1_555
C1_4 C2_4 1_555 1_555
C2_4 C3_4 1_555 1_555
C3_4 H2_4 1_555 1_555
C4_4 N1_4 1_555 1_555
C5_4 C9_4 1_555 1_555
C6_4 H3_4 1_555 1_555
C7_4 C14_4 1_555 1_555
C8_4 C4_4 1_555 1_555
C9_4 C3_4 1_555 1_555
H4_4 C9_4 1_555 1_555
C10_4 C6_4 1_555 1_555
C11_4 C8_4 1_555 1_555
H5_4 C11_4 1_555 1_555
C12_4 C5_4 1_555 1_555
H6_4 C12_4 1_555 1_555
C13_4 C2_4 1_555 1_555
H7_4 C13_4 1_555 1_555
C14_4 C15_4 1_555 1_555
C15_4 C6_4 1_555 1_555
H8_4 C15_4 1_555 1_555
C16_4 C10_4 1_555 1_555
C17_4 C16_4 1_555 1_555
H9_4 C17_4 1_555 1_555
C18_4 C4_4 1_555 1_555
C19_4 C10_4 1_555 1_555
H10_4 C19_4 1_555 1_555
C20_4 C14_4 1_555 1_555
H11_4 C20_4 1_555 1_555
O17 C21_4 1_555 1_555
O13_4 C27_4 1_555 1_555
O20_2 C21_4 1_555 1_555
O15_4 C27_4 1_555 1_555
C21_4 C22_4 1_555 1_555
C22_4 C23_4 1_555 1_555
C23_4 H12_4 1_555 1_555
C24_4 N1_4 1_555 1_555
C25_4 C29_4 1_555 1_555
C26_4 H13_4 1_555 1_555
C27_4 C34_4 1_555 1_555
C28_4 C8_4 1_555 1_555
C29_4 C23_4 1_555 1_555
H14_4 C29_4 1_555 1_555
C30_4 C26_4 1_555 1_555
C31_4 C28_4 1_555 1_555
H15_4 C31_4 1_555 1_555
C32_4 C25_4 1_555 1_555
H16_4 C32_4 1_555 1_555
C33_4 C22_4 1_555 1_555
H17_4 C33_4 1_555 1_555
C34_4 C35_4 1_555 1_555
C35_4 C26_4 1_555 1_555
H18_4 C35_4 1_555 1_555
C36_4 C30_4 1_555 1_555
C37_4 C36_4 1_555 1_555
H19_4 C37_4 1_555 1_555
C38_4 C24_4 1_555 1_555
C39_4 C30_4 1_555 1_555
H20_4 C39_4 1_555 1_555
C40_4 C34_4 1_555 1_555
H21_4 C40_4 1_555 1_555
O23_2 Zr4 1_555 1_555
Zr6 O13_4 1_555 1_555
Zr5 O2_4 1_555 1_555
Zr11_4 O15_4 1_555 1_555
Zr10_4 O5_4 1_555 1_555
O18_4 Zr4 1_555 1_555
O19_4 Zr4 1_555 1_555
O21_4 Zr9_2 1_555 1_555
O22_4 Zr9_2 1_555 1_555
Zr8_2 O6_4 1_555 1_555
C5_4 C18_4 1_555 1_555
C11_4 C16_4 1_555 1_555
C12_4 C13_4 1_555 1_555
C17_4 C18_4 1_555 1_555
C19_4 C20_4 1_555 1_555
C24_4 C28_4 1_555 1_555
C25_4 C38_4 1_555 1_555
C31_4 C36_4 1_555 1_555
C32_4 C33_4 1_555 1_555
C37_4 C38_4 1_555 1_555
C39_4 C40_4 1_555 1_555
N1_5 H1_5 1_555 1_555
O12_3 C21_5 1_555 1_555
O19_2 C27_5 1_555 1_555
O14_3 C21_5 1_555 1_555
O22_2 C27_5 1_555 1_555
C21_5 C22_5 1_555 1_555
C22_5 C23_5 1_555 1_555
C23_5 H12_5 1_555 1_555
C24_5 N1_5 1_555 1_555
C25_5 C29_5 1_555 1_555
C26_5 H13_5 1_555 1_555
C27_5 C34_5 1_555 1_555
C29_5 C23_5 1_555 1_555
H14_5 C29_5 1_555 1_555
C30_5 C26_5 1_555 1_555
C31_5 C28_5 1_555 1_555
H15_5 C31_5 1_555 1_555
C32_5 C25_5 1_555 1_555
H16_5 C32_5 1_555 1_555
C33_5 C22_5 1_555 1_555
H17_5 C33_5 1_555 1_555
C34_5 C35_5 1_555 1_555
C35_5 C26_5 1_555 1_555
H18_5 C35_5 1_555 1_555
C36_5 C30_5 1_555 1_555
C37_5 C36_5 1_555 1_555
H19_5 C37_5 1_555 1_555
C38_5 C24_5 1_555 1_555
C39_5 C30_5 1_555 1_555
H20_5 C39_5 1_555 1_555
C40_5 C34_5 1_555 1_555
H21_5 C40_5 1_555 1_555
Zr6_3 O12_3 1_555 1_555
Zr8_3 O14_3 1_555 1_555
C24_5 C28_5 1_555 1_555
C25_5 C38_5 1_555 1_555
C31_5 C36_5 1_555 1_555
C32_5 C33_5 1_555 1_555
C37_5 C38_5 1_555 1_555
C39_5 C40_5 1_555 1_555
Zr5_3 O1_5 1_555 1_555
Zr2_2 O3_5 1_555 1_555
Zr10_3 O6_5 1_555 1_555
O1_5 C1_5 1_555 1_555
O18_3 C7_5 1_555 1_555
O3_5 C1_5 1_555 1_555
O4_5 Zr2_2 1_555 1_555
O21_4 C7_5 1_555 1_555
O6_5 Zr5_3 1_555 1_555
O7_5 Zr10_3 1_555 1_555
O8_5 Zr10_3 1_555 1_555
N1_6 H1_6 1_555 1_555
O9_3 Zr5_3 1_555 1_555
O10_5 Zr2_2 1_555 1_555
O11_3 Zr5_3 1_555 1_555
C1_5 C2_5 1_555 1_555
C2_5 C3_5 1_555 1_555
C3_5 H2_5 1_555 1_555
C4_5 N1_6 1_555 1_555
C5_5 C9_5 1_555 1_555
C6_5 H3_5 1_555 1_555
C7_5 C14_5 1_555 1_555
C8_5 C4_5 1_555 1_555
C9_5 C3_5 1_555 1_555
H4_5 C9_5 1_555 1_555
C10_5 C6_5 1_555 1_555
C11_5 C8_5 1_555 1_555
H5_5 C11_5 1_555 1_555
C12_5 C5_5 1_555 1_555
H6_5 C12_5 1_555 1_555
C13_5 C2_5 1_555 1_555
H7_5 C13_5 1_555 1_555
C14_5 C15_5 1_555 1_555
C15_5 C6_5 1_555 1_555
H8_5 C15_5 1_555 1_555
C16_5 C10_5 1_555 1_555
C17_5 C16_5 1_555 1_555
H9_5 C17_5 1_555 1_555
C18_5 C4_5 1_555 1_555
C19_5 C10_5 1_555 1_555
H10_5 C19_5 1_555 1_555
C20_5 C14_5 1_555 1_555
H11_5 C20_5 1_555 1_555
Zr2_2 O6_5 1_555 1_555
Zr2_2 O9_3 1_555 1_555
Zr10_3 O11_3 1_555 1_555
C5_5 C18_5 1_555 1_555
C11_5 C16_5 1_555 1_555
C12_5 C13_5 1_555 1_555
C17_5 C18_5 1_555 1_555
C19_5 C20_5 1_555 1_555
O7_5 H22 1_555 1_555
O10_5 H24 1_555 1_555
O4_5 H26 1_555 1_555
O4_6 Zr2_3 1_555 1_555
O7_6 Zr10_4 1_555 1_555
O8_6 Zr10_4 1_555 1_555
O10_6 Zr2_3 1_555 1_555
O20_3 Zr2_3 1_555 1_555
O23_3 Zr2_3 1_555 1_555
O24_3 Zr2_3 1_555 1_555
O25_3 Zr10_4 1_555 1_555
Zr10_4 O23_3 1_555 1_555
O7_6 H23 1_555 1_555
O10_6 H25 1_555 1_555
O4_6 H27 1_555 1_555
O8_6 H28 1_555 1_555
O8_6 H29 1_555 1_555
O9_4 Zr5_4 1_555 1_555
O11_4 Zr5_4 1_555 1_555
O16_3 Zr5_4 1_555 1_555
Zr7_2 O9_4 1_555 1_555
Zr10 O11_4 1_555 1_555
O17_3 Zr5_4 1_555 1_555
O16_3 Zr7_2 1_555 1_555
O16_3 Zr10 1_555 1_555
Zr7_3 O24_4 1_555 1_555
Zr10_2 O25_4 1_555 1_555
O24_3 Zr5 1_555 1_555
O25_3 Zr5 1_555 1_555
O23_3 Zr5 1_555 1_555
O17_4 Zr5 1_555 1_555
O4_7 Zr7_2 1_555 1_555
O7_7 Zr10 1_555 1_555
O8_7 Zr10 1_555 1_555
O10_7 Zr7_2 1_555 1_555
O20_4 Zr7_2 1_555 1_555
O7_7 H23_2 1_555 1_555
O10_7 H25_2 1_555 1_555
O4_7 H27_2 1_555 1_555
O8_7 H28_2 1_555 1_555
O8_7 H29_2 1_555 1_555
N1_7 H1_7 1_555 1_555
O12_4 C21_6 1_555 1_555
O19 C27_6 1_555 1_555
O14_4 C21_6 1_555 1_555
O22 C27_6 1_555 1_555
C21_6 C22_6 1_555 1_555
C22_6 C23_6 1_555 1_555
C23_6 H12_6 1_555 1_555
C24_6 N1_7 1_555 1_555
C25_6 C29_6 1_555 1_555
C26_6 H13_6 1_555 1_555
C27_6 C34_6 1_555 1_555
C29_6 C23_6 1_555 1_555
H14_6 C29_6 1_555 1_555
C30_6 C26_6 1_555 1_555
C31_6 C28_6 1_555 1_555
H15_6 C31_6 1_555 1_555
C32_6 C25_6 1_555 1_555
H16_6 C32_6 1_555 1_555
C33_6 C22_6 1_555 1_555
H17_6 C33_6 1_555 1_555
C34_6 C35_6 1_555 1_555
C35_6 C26_6 1_555 1_555
H18_6 C35_6 1_555 1_555
C36_6 C30_6 1_555 1_555
C37_6 C36_6 1_555 1_555
H19_6 C37_6 1_555 1_555
C38_6 C24_6 1_555 1_555
C39_6 C30_6 1_555 1_555
H20_6 C39_6 1_555 1_555
C40_6 C34_6 1_555 1_555
H21_6 C40_6 1_555 1_555
Zr6_2 O12_4 1_555 1_555
Zr8_6 O14_4 1_555 1_555
C24_6 C28_6 1_555 1_555
C25_6 C38_6 1_555 1_555
C31_6 C36_6 1_555 1_555
C32_6 C33_6 1_555 1_555
C37_6 C38_6 1_555 1_555
C39_6 C40_6 1_555 1_555
Zr5_2 O1_6 1_555 1_555
Zr7_3 O3_6 1_555 1_555
Zr10_2 O6_6 1_555 1_555
O1_6 C1_6 1_555 1_555
O18_4 C7_6 1_555 1_555
O3_6 C1_6 1_555 1_555
O4_8 Zr7_3 1_555 1_555
O21_3 C7_6 1_555 1_555
O6_6 Zr5_2 1_555 1_555
O7_8 Zr10_2 1_555 1_555
O8_8 Zr10_2 1_555 1_555
N1_8 H1_8 1_555 1_555
O24_4 Zr5_2 1_555 1_555
O10_8 Zr7_3 1_555 1_555
O25_4 Zr5_2 1_555 1_555
C1_6 C2_6 1_555 1_555
C2_6 C3_6 1_555 1_555
C3_6 H2_6 1_555 1_555
C4_6 N1_8 1_555 1_555
C5_6 C9_6 1_555 1_555
C6_6 H3_6 1_555 1_555
C7_6 C14_6 1_555 1_555
C8_6 C4_6 1_555 1_555
C9_6 C3_6 1_555 1_555
H4_6 C9_6 1_555 1_555
C10_6 C6_6 1_555 1_555
C11_6 C8_6 1_555 1_555
H5_6 C11_6 1_555 1_555
C12_6 C5_6 1_555 1_555
H6_6 C12_6 1_555 1_555
C13_6 C2_6 1_555 1_555
H7_6 C13_6 1_555 1_555
C14_6 C15_6 1_555 1_555
C15_6 C6_6 1_555 1_555
H8_6 C15_6 1_555 1_555
C16_6 C10_6 1_555 1_555
C17_6 C16_6 1_555 1_555
H9_6 C17_6 1_555 1_555
C18_6 C4_6 1_555 1_555
C19_6 C10_6 1_555 1_555
H10_6 C19_6 1_555 1_555
C20_6 C14_6 1_555 1_555
H11_6 C20_6 1_555 1_555
Zr7_3 O6_6 1_555 1_555
C5_6 C18_6 1_555 1_555
C11_6 C16_6 1_555 1_555
C12_6 C13_6 1_555 1_555
C17_6 C18_6 1_555 1_555
C19_6 C20_6 1_555 1_555
O7_8 H22_2 1_555 1_555
O10_8 H24_2 1_555 1_555
O4_8 H26_2 1_555 1_555
O4_9 Zr8_3 1_555 1_555
O7_9 Zr11_3 1_555 1_555
O8_9 Zr11_3 1_555 1_555
O10_9 Zr8_3 1_555 1_555
O23_4 Zr8_3 1_555 1_555
O24_5 Zr8_3 1_555 1_555
O25_5 Zr11_3 1_555 1_555
Zr11_3 O23_4 1_555 1_555
O7_9 H23_3 1_555 1_555
O10_9 H25_3 1_555 1_555
O4_9 H27_3 1_555 1_555
O8_9 H28_3 1_555 1_555
O8_9 H29_3 1_555 1_555
Zr6 O1_7 1_555 1_555
Zr8_4 O3_7 1_555 1_555
Zr11_4 O6_7 1_555 1_555
O1_7 C1_7 1_555 1_555
O18 C7_7 1_555 1_555
O3_7 C1_7 1_555 1_555
O4_10 Zr8_4 1_555 1_555
O21_2 C7_7 1_555 1_555
O6_7 Zr6 1_555 1_555
O7_10 Zr11_4 1_555 1_555
O8_10 Zr11_4 1_555 1_555
N1_9 H1_9 1_555 1_555
O9_5 Zr6 1_555 1_555
O10_10 Zr8_4 1_555 1_555
O11_5 Zr6 1_555 1_555
C1_7 C2_7 1_555 1_555
C2_7 C3_7 1_555 1_555
C3_7 H2_7 1_555 1_555
C4_7 N1_9 1_555 1_555
C5_7 C9_7 1_555 1_555
C6_7 H3_7 1_555 1_555
C7_7 C14_7 1_555 1_555
C8_7 C4_7 1_555 1_555
C9_7 C3_7 1_555 1_555
H4_7 C9_7 1_555 1_555
C10_7 C6_7 1_555 1_555
C11_7 C8_7 1_555 1_555
H5_7 C11_7 1_555 1_555
C12_7 C5_7 1_555 1_555
H6_7 C12_7 1_555 1_555
C13_7 C2_7 1_555 1_555
H7_7 C13_7 1_555 1_555
C14_7 C15_7 1_555 1_555
C15_7 C6_7 1_555 1_555
H8_7 C15_7 1_555 1_555
C16_7 C10_7 1_555 1_555
C17_7 C16_7 1_555 1_555
H9_7 C17_7 1_555 1_555
C18_7 C4_7 1_555 1_555
C19_7 C10_7 1_555 1_555
H10_7 C19_7 1_555 1_555
C20_7 C14_7 1_555 1_555
H11_7 C20_7 1_555 1_555
Zr8_4 O6_7 1_555 1_555
Zr8_4 O9_5 1_555 1_555
Zr11_4 O11_5 1_555 1_555
C5_7 C18_7 1_555 1_555
C11_7 C16_7 1_555 1_555
C12_7 C13_7 1_555 1_555
C17_7 C18_7 1_555 1_555
C19_7 C20_7 1_555 1_555
O7_10 H22_3 1_555 1_555
O10_10 H24_3 1_555 1_555
O4_10 H26_3 1_555 1_555
N1_10 H1_10 1_555 1_555
O17_4 C21_7 1_555 1_555
O19_4 C27_7 1_555 1_555
O20_3 C21_7 1_555 1_555
O22_4 C27_7 1_555 1_555
C21_7 C22_7 1_555 1_555
C22_7 C23_7 1_555 1_555
C23_7 H12_7 1_555 1_555
C24_7 N1_10 1_555 1_555
C25_7 C29_7 1_555 1_555
C26_7 H13_7 1_555 1_555
C27_7 C34_7 1_555 1_555
C29_7 C23_7 1_555 1_555
H14_7 C29_7 1_555 1_555
C30_7 C26_7 1_555 1_555
C31_7 C28_7 1_555 1_555
H15_7 C31_7 1_555 1_555
C32_7 C25_7 1_555 1_555
H16_7 C32_7 1_555 1_555
C33_7 C22_7 1_555 1_555
H17_7 C33_7 1_555 1_555
C34_7 C35_7 1_555 1_555
C35_7 C26_7 1_555 1_555
H18_7 C35_7 1_555 1_555
C36_7 C30_7 1_555 1_555
C37_7 C36_7 1_555 1_555
H19_7 C37_7 1_555 1_555
C38_7 C24_7 1_555 1_555
C39_7 C30_7 1_555 1_555
H20_7 C39_7 1_555 1_555
C40_7 C34_7 1_555 1_555
H21_7 C40_7 1_555 1_555
C24_7 C28_7 1_555 1_555
C25_7 C38_7 1_555 1_555
C31_7 C36_7 1_555 1_555
C32_7 C33_7 1_555 1_555
C37_7 C38_7 1_555 1_555
C39_7 C40_7 1_555 1_555
Zr8_5 O24_6 1_555 1_555
Zr11 O25_6 1_555 1_555
O9_6 Zr6_2 1_555 1_555
O11_6 Zr6_2 1_555 1_555
O16_4 Zr6_2 1_555 1_555
Zr8_6 O9_6 1_555 1_555
Zr11_2 O11_6 1_555 1_555
O16_4 Zr8_6 1_555 1_555
O16_4 Zr11_2 1_555 1_555
O24_5 Zr6_3 1_555 1_555
O25_5 Zr6_3 1_555 1_555
O23_4 Zr6_3 1_555 1_555
Zr6_4 O1_8 1_555 1_555
Zr8_5 O3_8 1_555 1_555
Zr11 O6_8 1_555 1_555
O1_8 C1_8 1_555 1_555
O18_2 C7_8 1_555 1_555
O3_8 C1_8 1_555 1_555
O4_11 Zr8_5 1_555 1_555
O21 C7_8 1_555 1_555
O6_8 Zr6_4 1_555 1_555
O7_11 Zr11 1_555 1_555
O8_11 Zr11 1_555 1_555
N1_11 H1_11 1_555 1_555
O24_6 Zr6_4 1_555 1_555
O10_11 Zr8_5 1_555 1_555
O25_6 Zr6_4 1_555 1_555
C1_8 C2_8 1_555 1_555
C2_8 C3_8 1_555 1_555
C3_8 H2_8 1_555 1_555
C4_8 N1_11 1_555 1_555
C5_8 C9_8 1_555 1_555
C6_8 H3_8 1_555 1_555
C7_8 C14_8 1_555 1_555
C8_8 C4_8 1_555 1_555
C9_8 C3_8 1_555 1_555
H4_8 C9_8 1_555 1_555
C10_8 C6_8 1_555 1_555
C11_8 C8_8 1_555 1_555
H5_8 C11_8 1_555 1_555
C12_8 C5_8 1_555 1_555
H6_8 C12_8 1_555 1_555
C13_8 C2_8 1_555 1_555
H7_8 C13_8 1_555 1_555
C14_8 C15_8 1_555 1_555
C15_8 C6_8 1_555 1_555
H8_8 C15_8 1_555 1_555
C16_8 C10_8 1_555 1_555
C17_8 C16_8 1_555 1_555
H9_8 C17_8 1_555 1_555
C18_8 C4_8 1_555 1_555
C19_8 C10_8 1_555 1_555
H10_8 C19_8 1_555 1_555
C20_8 C14_8 1_555 1_555
H11_8 C20_8 1_555 1_555
Zr8_5 O6_8 1_555 1_555
C5_8 C18_8 1_555 1_555
C11_8 C16_8 1_555 1_555
C12_8 C13_8 1_555 1_555
C17_8 C18_8 1_555 1_555
C19_8 C20_8 1_555 1_555
O7_11 H22_4 1_555 1_555
O10_11 H24_4 1_555 1_555
O4_11 H26_4 1_555 1_555
N1_12 H1_12 1_555 1_555
O17_3 C21_8 1_555 1_555
O19_3 C27_8 1_555 1_555
O20_4 C21_8 1_555 1_555
O22_3 C27_8 1_555 1_555
C21_8 C22_8 1_555 1_555
C22_8 C23_8 1_555 1_555
C23_8 H12_8 1_555 1_555
C24_8 N1_12 1_555 1_555
C25_8 C29_8 1_555 1_555
C26_8 H13_8 1_555 1_555
C27_8 C34_8 1_555 1_555
C29_8 C23_8 1_555 1_555
H14_8 C29_8 1_555 1_555
C30_8 C26_8 1_555 1_555
C31_8 C28_8 1_555 1_555
H15_8 C31_8 1_555 1_555
C32_8 C25_8 1_555 1_555
H16_8 C32_8 1_555 1_555
C33_8 C22_8 1_555 1_555
H17_8 C33_8 1_555 1_555
C34_8 C35_8 1_555 1_555
C35_8 C26_8 1_555 1_555
H18_8 C35_8 1_555 1_555
C36_8 C30_8 1_555 1_555
C37_8 C36_8 1_555 1_555
H19_8 C37_8 1_555 1_555
C38_8 C24_8 1_555 1_555
C39_8 C30_8 1_555 1_555
H20_8 C39_8 1_555 1_555
C40_8 C34_8 1_555 1_555
H21_8 C40_8 1_555 1_555
C24_8 C28_8 1_555 1_555
C25_8 C38_8 1_555 1_555
C31_8 C36_8 1_555 1_555
C32_8 C33_8 1_555 1_555
C37_8 C38_8 1_555 1_555
C39_8 C40_8 1_555 1_555
O4_12 Zr8_6 1_555 1_555
O7_12 Zr11_2 1_555 1_555
O8_12 Zr11_2 1_555 1_555
O10_12 Zr8_6 1_555 1_555
O7_12 H23_4 1_555 1_555
O10_12 H25_4 1_555 1_555
O4_12 H27_4 1_555 1_555
O8_12 H28_4 1_555 1_555
O8_12 H29_4 1_555 1_555
O7_11 H23_5 1_555 1_555
O10_11 H25_5 1_555 1_555
O4_11 H27_5 1_555 1_555
O8_11 H28_5 1_555 1_555
O8_11 H29_5 1_555 1_555
O7_12 H22_5 1_555 1_555
O10_12 H24_5 1_555 1_555
O4_12 H26_5 1_555 1_555
O7_9 H22_6 1_555 1_555
O10_9 H24_6 1_555 1_555
O4_9 H26_6 1_555 1_555
O7_10 H23_6 1_555 1_555
O10_10 H25_6 1_555 1_555
O4_10 H27_6 1_555 1_555
O8_10 H28_6 1_555 1_555
O8_10 H29_6 1_555 1_555
O7_7 H22_7 1_555 1_555
O10_7 H24_7 1_555 1_555
O4_7 H26_7 1_555 1_555
O7_8 H23_7 1_555 1_555
O10_8 H25_7 1_555 1_555
O4_8 H27_7 1_555 1_555
O8_8 H28_7 1_555 1_555
O8_8 H29_7 1_555 1_555
O7_5 H23_8 1_555 1_555
O10_5 H25_8 1_555 1_555
O4_5 H27_8 1_555 1_555
O8_5 H28_8 1_555 1_555
O8_5 H29_8 1_555 1_555
O7_6 H22_8 1_555 1_555
O10_6 H24_8 1_555 1_555
O4_6 H26_8 1_555 1_555

#END
