
###############################################################################
#
# This file contains modified crystal structure data generated from the
# MOF subset of the Cambridge Structural Database (CSD) v543 
# hosted by the Cambridge Crystallographic Data Centre (CCDC).
#
# This work is licensed under the Creative Commons
# Attribution-NonCommercial-ShareAlike 4.0 International License.
# To view a copy of this license, visit
# http://creativecommons.org/licenses/by-nc-sa/4.0/
# or send a letter to
# Creative Commons, PO Box 1866, Mountain View, CA 94042, USA.
#
# CIF created using the CSD Python API on 29 September 2022
# The structure has been converted into the P1 space group
# The structure has a 3D framework
# The original CSD entry NIJKEZ is in the monoclinic crystal system
# The framework has been calculated to contain at least 10.0% void space
# The void calculation uses a probe of radius 1.32A, grid spacing 0.4
# The framework is charged, counterions have been retained in the structure
# H atom positions have been added when not included in the experimental data
#
###############################################################################

data_NIJKEZ
_chemical_formula_moiety         '(C164 H120 Co8 N28 O32)n'
_symmetry_cell_setting           triclinic
_symmetry_space_group_name_H-M   'P 1'
_symmetry_Int_Tables_number      1
_space_group_name_Hall           'P 1'
loop_
_symmetry_equiv_pos_site_id
_symmetry_equiv_pos_as_xyz
1 x,y,z
_cell_length_a                   8.3374(3)
_cell_length_b                   28.9847(10)
_cell_length_c                   18.8063(7)
_cell_angle_alpha                90
_cell_angle_beta                 94.261(7)
_cell_angle_gamma                90
_cell_volume                     4532.11
loop_
_atom_site_label
_atom_site_type_symbol
_atom_site_fract_x
_atom_site_fract_y
_atom_site_fract_z
Co9 Co 0.02598(6) 0.74481(2) 0.22485(3)
Co2 Co 0.02598(6) 0.75519(2) 0.72485(3)
O15 O 0.1101(4) 0.78801(11) 0.81557(16)
O17 O 0.2486(4) 0.79688(12) 0.72259(17)
O19 O 0.1620(4) 0.69254(10) 0.73435(16)
O21 O 0.0250(4) 0.71252(10) 0.63552(16)
Co1 Co 0.0000 0.5000 0.0000
O1 O 0.0646(4) 0.41320(10) 0.10880(16)
O2 O 0.1217(4) 0.48788(10) 0.09700(15)
O3 O 0.8899(4) 0.28801(11) 0.68443(16)
O4 O 0.7514(4) 0.29688(12) 0.77741(17)
N3 N 0.7635(4) 0.65445(12) 0.09140(18)
N4 N 0.8989(4) 0.69295(12) 0.17755(18)
N7 N 0.3510(5) 0.43111(14) 0.4750(2)
H1 H 0.3782 0.4061 0.4544
H2 H 0.3093 0.5593 0.0276
C3 C 0.1118(5) 0.68320(15) 0.6705(2)
C6 C 0.6004(5) 0.60499(14) 0.0130(2)
H5 H 0.5843 0.5855 0.0512
C7 C 0.6947(5) 0.64384(14) 0.0226(2)
C14 C 0.8538(6) 0.69173(15) 0.1101(2)
H11 H 0.8810 0.7143 0.0779
C15 C 0.7571(9) 0.6304(2) 0.1519(3)
H12 H 0.7053 0.6023 0.1570
C16 C 0.8394(8) 0.6542(2) 0.2035(3)
H13 H 0.8532 0.6450 0.2509
C17 C 0.1136(5) 0.45152(15) 0.1326(2)
C18 C 0.1657(5) 0.45472(15) 0.2099(2)
C19 C 0.1800(6) 0.41620(15) 0.2524(2)
H14 H 0.1618 0.3872 0.2321
C20 C 0.2208(6) 0.41961(15) 0.3249(2)
H15 H 0.2328 0.3928 0.3520
C21 C 0.2440(6) 0.46158(15) 0.3577(2)
C22 C 0.2339(8) 0.50035(18) 0.3144(3)
H16 H 0.2520 0.5293 0.3347
C23 C 0.1973(8) 0.49681(17) 0.2413(3)
H17 H 0.1942 0.5233 0.2133
C24 C 0.2760(6) 0.46593(14) 0.4354(2)
C25 C 0.2343(5) 0.50544(13) 0.4691(2)
H18 H 0.1859 0.5294 0.4425
C26 C 0.2618(5) 0.51032(14) 0.5402(2)
C27 C 0.3371(5) 0.47577(15) 0.5791(2)
H19 H 0.3579 0.4793 0.6281
C28 C 0.3821(5) 0.43619(15) 0.5469(2)
C29 C 0.4718(6) 0.40017(16) 0.5894(2)
C30 C 0.4595(7) 0.3952(2) 0.6615(3)
H20 H 0.3870 0.4136 0.6839
C31 C 0.5519(6) 0.3636(2) 0.7016(3)
H21 H 0.5384 0.3602 0.7500
C32 C 0.6766(7) 0.3420(2) 0.5985(3)
H22 H 0.7494 0.3236 0.5764
C33 C 0.5845(7) 0.37345(19) 0.5585(3)
H23 H 0.5986 0.3767 0.5101
C34 C 0.6628(6) 0.33743(16) 0.6701(2)
C35 C 0.7718(6) 0.30535(16) 0.7135(3)
C36 C 0.2203(6) 0.55415(15) 0.5750(2)
C37 C 0.2960(7) 0.56728(18) 0.6395(3)
H24 H 0.3704 0.5476 0.6631
C38 C 0.2619(7) 0.60966(18) 0.6695(3)
H25 H 0.3158 0.6184 0.7125
C39 C 0.1505(5) 0.63852(14) 0.6368(2)
C40 C 0.0736(6) 0.62553(15) 0.5730(2)
C41 C 0.1071(6) 0.58362(16) 0.5425(2)
H27 H 0.0527 0.5751 0.4996
H28 H 0.0306 0.4126 0.0050
H58 H 0.0681 0.5867 0.0584
Co6 Co 0.97402(6) 0.25519(2) 0.77515(3)
Co1_2 Co 0.0000 0.5000 1.0000
N1 N 0.2123(4) 0.51510(12) 0.95619(18)
N2 N 0.4233(4) 0.55737(12) 0.93637(18)
N5 N 0.6887(4) 0.68850(11) 0.83974(18)
N6 N 0.8334(4) 0.72609(12) 0.76573(17)
C1 C 0.3131(5) 0.54629(15) 0.9825(2)
C2 C 0.2618(6) 0.50475(15) 0.8897(2)
H3 H 0.2136 0.4830 0.8586
C4 C 0.3894(6) 0.53052(16) 0.8765(2)
H4 H 0.4443 0.5304 0.8352
C5 C 0.5297(5) 0.59532(14) 0.9456(2)
C8 C 0.7229(5) 0.67191(14) 0.9657(2)
H6 H 0.7871 0.6980 0.9722
C9 C 0.6550(5) 0.66077(14) 0.8997(2)
C10 C 0.5564(5) 0.62291(14) 0.8876(2)
H7 H 0.5097 0.6162 0.8424
C11 C 0.5848(6) 0.70247(18) 0.7845(3)
H8 H 0.4748 0.6968 0.7786
C12 C 0.6745(6) 0.72627(19) 0.7400(3)
H9 H 0.6346 0.7407 0.6982
C13 C 0.8371(5) 0.70355(13) 0.8261(2)
H10 H 0.9297 0.6985 0.8558
O7 O 0.0266(3) 0.43068(10) 0.96798(15)
H55 H 0.0018 0.3549 0.4500
N16 N 0.8989(4) 0.80705(12) 0.67755(18)
Co1_3 Co 1.0000 0.5000 0.0000
H26 H 0.9982 0.6451 0.5500
N8 N 0.7877(4) 0.48490(12) 0.04381(18)
N9 N 0.5767(4) 0.44263(12) 0.06363(18)
N12 N 0.3113(4) 0.31150(11) 0.16026(18)
N13 N 0.1666(4) 0.27391(12) 0.23427(17)
C42 C 0.6869(5) 0.45371(15) 0.0175(2)
C43 C 0.7382(6) 0.49525(15) 0.1103(2)
H32 H 0.7864 0.5170 0.1414
C45 C 0.6106(6) 0.46948(16) 0.1235(2)
H33 H 0.5557 0.4696 0.1648
C46 C 0.4703(5) 0.40468(14) 0.0544(2)
C49 C 0.2771(5) 0.32809(14) 0.0343(2)
H35 H 0.2129 0.3020 0.0278
C50 C 0.3450(5) 0.33923(14) 0.1003(2)
C51 C 0.4436(5) 0.37709(14) 0.1124(2)
H36 H 0.4903 0.3838 0.1576
C52 C 0.4152(6) 0.29753(18) 0.2155(3)
H37 H 0.5252 0.3032 0.2214
C53 C 0.3255(6) 0.27373(19) 0.2600(3)
H38 H 0.3654 0.2593 0.3018
C54 C 0.1629(5) 0.29645(13) 0.1739(2)
H39 H 0.0703 0.3015 0.1442
O14 O 0.9734(3) 0.56932(10) 0.03202(15)
N15 N 0.1011(4) 0.19295(12) 0.32245(18)
Co1_4 Co 1.0000 0.5000 1.0000
H29 H 0.9319 0.4133 0.9416
O8 O 0.9354(4) 0.58680(10) 0.89120(16)
O9 O 0.8783(4) 0.51212(10) 0.90300(15)
O10 O 0.1101(4) 0.71199(11) 0.31557(16)
O11 O 0.2486(4) 0.70312(12) 0.22259(17)
O12 O 0.8380(4) 0.30746(10) 0.26565(16)
O13 O 0.9750(4) 0.28748(10) 0.36448(16)
N10 N 0.2365(4) 0.34555(12) 0.90860(18)
N11 N 0.1011(4) 0.30705(12) 0.82245(18)
N14 N 0.6490(5) 0.56889(14) 0.5250(2)
H30 H 0.6218 0.5939 0.5456
H31 H 0.6907 0.4407 0.9724
C44 C 0.8882(5) 0.31680(15) 0.3295(2)
C47 C 0.3996(5) 0.39501(14) 0.9870(2)
H34 H 0.4157 0.4145 0.9488
C48 C 0.3053(5) 0.35616(14) 0.9774(2)
C55 C 0.1462(6) 0.30827(15) 0.8899(2)
H40 H 0.1190 0.2857 0.9221
C56 C 0.2429(9) 0.3696(2) 0.8481(3)
H41 H 0.2947 0.3977 0.8430
C57 C 0.1606(8) 0.3458(2) 0.7965(3)
H42 H 0.1468 0.3550 0.7491
C58 C 0.8864(5) 0.54848(15) 0.8674(2)
C59 C 0.8343(5) 0.54528(15) 0.7901(2)
C60 C 0.8200(6) 0.58380(15) 0.7476(2)
H43 H 0.8382 0.6128 0.7679
C61 C 0.7792(6) 0.58039(15) 0.6751(2)
H44 H 0.7672 0.6072 0.6480
C62 C 0.7560(6) 0.53842(15) 0.6423(2)
C63 C 0.7661(8) 0.49965(18) 0.6856(3)
H45 H 0.7480 0.4707 0.6653
C64 C 0.8027(8) 0.50319(17) 0.7587(3)
H46 H 0.8058 0.4767 0.7867
C65 C 0.7240(6) 0.53407(14) 0.5646(2)
C66 C 0.7657(5) 0.49456(13) 0.5309(2)
H47 H 0.8141 0.4706 0.5575
C67 C 0.7382(5) 0.48968(14) 0.4598(2)
C68 C 0.6629(5) 0.52423(15) 0.4209(2)
H48 H 0.6421 0.5207 0.3719
C69 C 0.6179(5) 0.56381(15) 0.4531(2)
C70 C 0.5282(6) 0.59983(16) 0.4106(2)
C71 C 0.5405(7) 0.6048(2) 0.3385(3)
H49 H 0.6130 0.5864 0.3161
C72 C 0.4481(6) 0.6364(2) 0.2984(3)
H50 H 0.4616 0.6398 0.2500
C73 C 0.3234(7) 0.6580(2) 0.4015(3)
H51 H 0.2506 0.6764 0.4236
C74 C 0.4155(7) 0.62655(19) 0.4415(3)
H52 H 0.4014 0.6233 0.4899
C75 C 0.3372(6) 0.66257(16) 0.3299(2)
C76 C 0.2282(6) 0.69465(16) 0.2865(3)
C77 C 0.7797(6) 0.44585(15) 0.4250(2)
C78 C 0.7040(7) 0.43272(18) 0.3605(3)
H53 H 0.6296 0.4524 0.3369
C79 C 0.7381(7) 0.39034(18) 0.3305(3)
H54 H 0.6842 0.3816 0.2875
C80 C 0.8495(5) 0.36148(14) 0.3632(2)
C81 C 0.9264(6) 0.37447(15) 0.4270(2)
C82 C 0.8929(6) 0.41638(16) 0.4575(2)
H56 H 0.9473 0.4249 0.5004
H57 H 0.9694 0.5874 0.9950
Co7 Co 0.97402(6) 0.24481(2) 0.27515(3)
O16 O 0.8899(4) 0.21199(11) 0.18443(16)
O18 O 0.7514(4) 0.20312(12) 0.27741(17)
O20 O 0.1620(4) 0.80746(10) 0.23435(16)
O22 O 0.0250(4) 0.78748(10) 0.13552(16)
C68_2 C 0.3371(5) 0.02423(15) 0.0791(2)
H48_2 H 0.3579 0.0207 0.1281
C69_2 C 0.3821(5) 0.06381(15) 0.0469(2)
C70_2 C 0.4718(6) 0.09983(16) 0.0894(2)
C71_2 C 0.4595(7) 0.1048(2) 0.1615(3)
H49_2 H 0.3870 0.0864 0.1839
C72_2 C 0.5519(6) 0.1364(2) 0.2016(3)
H50_2 H 0.5384 0.1398 0.2500
C73_2 C 0.6766(7) 0.1580(2) 0.0985(3)
H51_2 H 0.7494 0.1764 0.0764
C74_2 C 0.5845(7) 0.12655(19) 0.0585(3)
H52_2 H 0.5986 0.1233 0.0101
C75_2 C 0.6628(6) 0.16257(16) 0.1701(2)
C76_2 C 0.7718(6) 0.19465(16) 0.2135(3)
C44_2 C 0.1118(5) 0.81680(15) 0.1705(2)
C67_2 C 0.2618(5) 0.98968(14) 0.0402(2)
C77_2 C 0.2203(6) 0.94585(15) 0.0750(2)
C78_2 C 0.2960(7) 0.93272(18) 0.1395(3)
H53_2 H 0.3704 0.9524 0.1631
C79_2 C 0.2619(7) 0.89034(18) 0.1695(3)
H54_2 H 0.3158 0.8816 0.2125
C80_2 C 0.1505(5) 0.86148(14) 0.1368(2)
C81_2 C 0.0736(6) 0.87447(15) 0.0730(2)
C82_2 C 0.1071(6) 0.91638(16) 0.0425(2)
Co1_5 Co 0.0000 1.0000 0.5000
H29_2 H 0.0681 0.9133 0.5584
N8_2 N 0.2123(4) 0.98490(12) 0.45619(18)
N9_2 N 0.4233(4) 0.94263(12) 0.43637(18)
N10_2 N 0.7635(4) 0.84555(12) 0.59140(18)
N12_2 N 0.6887(4) 0.81150(11) 0.33974(18)
N13_2 N 0.8334(4) 0.77391(12) 0.26573(17)
C42_2 C 0.3131(5) 0.95371(15) 0.4825(2)
H31_2 H 0.3093 0.9407 0.5276
C43_2 C 0.2618(6) 0.99525(15) 0.3897(2)
C45_2 C 0.3894(6) 0.96948(16) 0.3765(2)
H33_2 H 0.4443 0.9696 0.3352
C46_2 C 0.5297(5) 0.90468(14) 0.4456(2)
C47_2 C 0.6004(5) 0.89501(14) 0.5130(2)
H34_2 H 0.5843 0.9145 0.5512
C48_2 C 0.6947(5) 0.85616(14) 0.5226(2)
C49_2 C 0.7229(5) 0.82809(14) 0.4657(2)
H35_2 H 0.7871 0.8020 0.4722
C50_2 C 0.6550(5) 0.83923(14) 0.3997(2)
C51_2 C 0.5564(5) 0.87709(14) 0.3876(2)
H36_2 H 0.5097 0.8838 0.3424
C52_2 C 0.5848(6) 0.79753(18) 0.2845(3)
H37_2 H 0.4748 0.8032 0.2786
C53_2 C 0.6745(6) 0.77373(19) 0.2400(3)
H38_2 H 0.6346 0.7593 0.1982
C54_2 C 0.8371(5) 0.79645(13) 0.3261(2)
H39_2 H 0.9297 0.8015 0.3558
C55_2 C 0.8538(6) 0.80827(15) 0.6101(2)
H40_2 H 0.8810 0.7857 0.5779
C56_2 C 0.7571(9) 0.8696(2) 0.6519(3)
H41_2 H 0.7053 0.8977 0.6570
C57_2 C 0.8394(8) 0.8458(2) 0.7035(3)
H42_2 H 0.8532 0.8550 0.7509
C63_2 C 0.2339(8) 0.99965(18) 0.8144(3)
H45_2 H 0.2520 0.9707 0.8347
H46_2 H 0.1942 0.9767 0.7133
C66_2 C 0.2343(5) 0.99456(13) 0.9691(2)
H47_2 H 0.1859 0.9706 0.9425
H56_2 H 0.0527 0.9249 0.9996
Co1_6 Co 1.0000 -0.0000 0.5000
N1_2 N 0.7877(4) 0.01510(12) 0.54381(18)
N2_2 N 0.5767(4) 0.05737(12) 0.56363(18)
N3_2 N 0.2365(4) 0.15445(12) 0.40860(18)
N5_2 N 0.3113(4) 0.18850(11) 0.66026(18)
N6_2 N 0.1666(4) 0.22609(12) 0.73427(17)
C1_2 C 0.6869(5) 0.04629(15) 0.5175(2)
H2_2 H 0.6907 0.0593 0.4724
C2_2 C 0.7382(6) 0.00475(15) 0.6103(2)
C4_2 C 0.6106(6) 0.03052(16) 0.6235(2)
H4_2 H 0.5557 0.0304 0.6648
C5_2 C 0.4703(5) 0.09532(14) 0.5544(2)
C6_2 C 0.3996(5) 0.10499(14) 0.4870(2)
H5_2 H 0.4157 0.0855 0.4488
C7_2 C 0.3053(5) 0.14384(14) 0.4774(2)
C8_2 C 0.2771(5) 0.17191(14) 0.5343(2)
H6_2 H 0.2129 0.1980 0.5278
C9_2 C 0.3450(5) 0.16077(14) 0.6003(2)
C10_2 C 0.4436(5) 0.12291(14) 0.6124(2)
H7_2 H 0.4903 0.1162 0.6576
C11_2 C 0.4152(6) 0.20247(18) 0.7155(3)
H8_2 H 0.5252 0.1968 0.7214
C12_2 C 0.3255(6) 0.22627(19) 0.7600(3)
H9_2 H 0.3654 0.2407 0.8018
C13_2 C 0.1629(5) 0.20355(13) 0.6739(2)
H10_2 H 0.0703 0.1985 0.6442
C14_2 C 0.1462(6) 0.19173(15) 0.3899(2)
H11_2 H 0.1190 0.2143 0.4221
C15_2 C 0.2429(9) 0.1304(2) 0.3481(3)
H12_2 H 0.2947 0.1023 0.3430
C16_2 C 0.1606(8) 0.1542(2) 0.2965(3)
H13_2 H 0.1468 0.1450 0.2491
C22_2 C 0.7661(8) 0.00035(18) 0.1856(3)
H16_2 H 0.7480 0.0293 0.1653
H17_2 H 0.8058 0.0233 0.2867
C25_2 C 0.7657(5) 0.00544(13) 0.0309(2)
H18_2 H 0.8141 0.0294 0.0575
H27_2 H 0.9473 0.0751 0.0004
H58_2 H 0.9319 0.0867 0.4416
O5 O 0.8380(4) 0.19254(10) 0.76565(16)
O6 O 0.9750(4) 0.21252(10) 0.86448(16)
C3_2 C 0.8882(5) 0.18320(15) 0.8295(2)
C26_2 C 0.7382(5) 0.01032(14) 0.9598(2)
C36_2 C 0.7797(6) 0.05415(15) 0.9250(2)
C37_2 C 0.7040(7) 0.06728(18) 0.8605(3)
H24_2 H 0.6296 0.0476 0.8369
C38_2 C 0.7381(7) 0.10966(18) 0.8305(3)
H25_2 H 0.6842 0.1184 0.7875
C39_2 C 0.8495(5) 0.13852(14) 0.8632(2)
C40_2 C 0.9264(6) 0.12553(15) 0.9270(2)
C41_2 C 0.8929(6) 0.08362(16) 0.9575(2)
C27_2 C 0.6629(5) 0.97577(15) 0.9209(2)
H19_2 H 0.6421 0.9793 0.8719
C28_2 C 0.6179(5) 0.93619(15) 0.9531(2)
C29_2 C 0.5282(6) 0.90017(16) 0.9106(2)
C30_2 C 0.5405(7) 0.8952(2) 0.8385(3)
H20_2 H 0.6130 0.9136 0.8161
C31_2 C 0.4481(6) 0.8636(2) 0.7984(3)
H21_2 H 0.4616 0.8602 0.7500
C32_2 C 0.3234(7) 0.8420(2) 0.9015(3)
H22_2 H 0.2506 0.8236 0.9236
C33_2 C 0.4155(7) 0.87345(19) 0.9415(3)
H23_2 H 0.4014 0.8767 0.9899
C34_2 C 0.3372(6) 0.83743(16) 0.8299(2)
C35_2 C 0.2282(6) 0.80535(16) 0.7865(3)
Co1_7 Co 0.0000 -0.0000 0.5000
O8_2 O 0.0646(4) 0.08680(10) 0.60880(16)
O9_2 O 0.1217(4) 0.01212(10) 0.59700(15)
N14_2 N 0.3510(5) 0.06889(14) 0.9750(2)
H30_2 H 0.3782 0.0939 0.9544
H32_2 H 0.2136 0.0170 0.3586
C58_2 C 0.1136(5) 0.04848(15) 0.6326(2)
C59_2 C 0.1657(5) 0.04528(15) 0.7099(2)
C60_2 C 0.1800(6) 0.08380(15) 0.7524(2)
H43_2 H 0.1618 0.1128 0.7321
C61_2 C 0.2208(6) 0.08039(15) 0.8249(2)
H44_2 H 0.2328 0.1072 0.8520
C62_2 C 0.2440(6) 0.03842(15) 0.8577(2)
C64_2 C 0.1973(8) 0.00319(17) 0.7413(3)
C65_2 C 0.2760(6) 0.03407(14) 0.9354(2)
O14_2 O 0.0266(3) 0.06932(10) 0.46798(15)
H57_2 H 0.0306 0.0874 0.5050
H26_2 H 0.0018 0.1451 0.9500
H55_2 H 0.9982 0.8549 0.0500
Co1_8 Co 1.0000 1.0000 0.5000
O1_2 O 0.9354(4) 0.91320(10) 0.39120(16)
O2_2 O 0.8783(4) 0.98788(10) 0.40300(15)
N7_2 N 0.6490(5) 0.93111(14) 0.0250(2)
H1_2 H 0.6218 0.9061 0.0456
H3_2 H 0.7864 0.9830 0.6414
C17_2 C 0.8864(5) 0.95152(15) 0.3674(2)
C18_2 C 0.8343(5) 0.95472(15) 0.2901(2)
C19_2 C 0.8200(6) 0.91620(15) 0.2476(2)
H14_2 H 0.8382 0.8872 0.2679
C20_2 C 0.7792(6) 0.91961(15) 0.1751(2)
H15_2 H 0.7672 0.8928 0.1480
C21_2 C 0.7560(6) 0.96158(15) 0.1423(2)
C23_2 C 0.8027(8) 0.99681(17) 0.2587(3)
C24_2 C 0.7240(6) 0.96593(14) 0.0646(2)
O7_2 O 0.9734(3) 0.93068(10) 0.53202(15)
H28_2 H 0.9694 0.9126 0.4950
O23 O 0.1309(18) 0.3189(5) 0.5947(7)
H59 H 0.250002 0.3189 0.5947
O23_2 O 0.8691(18) 0.8189(5) 0.9053(7)
H59_2 H 0.749998 0.8189 0.9053
O23_3 O 0.8691(18) 0.6811(5) 0.4053(7)
H59_3 H 0.749998 0.6811 0.4053
O23_4 O 0.1309(18) 0.1811(5) 0.0947(7)
H59_4 H 0.250002 0.1811 0.0947
loop_
_geom_bond_atom_site_label_1
_geom_bond_atom_site_label_2
_geom_bond_site_symmetry_1
_geom_bond_site_symmetry_2
O15 Co2 1_555 1_555
O17 Co2 1_555 1_555
O19 Co2 1_555 1_555
O21 Co2 1_555 1_555
Co1 O2 1_555 1_555
O1 C17 1_555 1_555
O2 C17 1_555 1_555
O3 C35 1_555 1_555
O4 C35 1_555 1_555
O19 C3 1_555 1_555
O21 C3 1_555 1_555
N3 C7 1_555 1_555
N4 C14 1_555 1_555
N7 H1 1_555 1_555
C3 C39 1_555 1_555
H5 C6 1_555 1_555
C7 C6 1_555 1_555
C14 N3 1_555 1_555
H11 C14 1_555 1_555
C15 N3 1_555 1_555
H12 C15 1_555 1_555
C16 N4 1_555 1_555
H13 C16 1_555 1_555
C17 C18 1_555 1_555
C18 C19 1_555 1_555
C19 H14 1_555 1_555
C20 C19 1_555 1_555
H15 C20 1_555 1_555
C21 C20 1_555 1_555
C22 C21 1_555 1_555
H16 C22 1_555 1_555
C23 C18 1_555 1_555
H17 C23 1_555 1_555
C24 N7 1_555 1_555
C25 C24 1_555 1_555
H18 C25 1_555 1_555
C26 C25 1_555 1_555
C27 C26 1_555 1_555
H19 C27 1_555 1_555
C28 N7 1_555 1_555
C29 C28 1_555 1_555
C30 C29 1_555 1_555
H20 C30 1_555 1_555
C31 C30 1_555 1_555
H21 C31 1_555 1_555
C32 H22 1_555 1_555
C33 C29 1_555 1_555
H23 C33 1_555 1_555
C34 C31 1_555 1_555
C35 C34 1_555 1_555
C36 C26 1_555 1_555
C37 C36 1_555 1_555
H24 C37 1_555 1_555
C38 C37 1_555 1_555
H25 C38 1_555 1_555
C39 C38 1_555 1_555
C40 C39 1_555 1_555
C41 C36 1_555 1_555
H27 C41 1_555 1_555
Co6 O3 1_555 1_555
O4 Co6 1_555 1_555
C15 C16 1_555 1_555
C21 C24 1_555 1_555
C22 C23 1_555 1_555
C27 C28 1_555 1_555
C32 C33 1_555 1_555
C32 C34 1_555 1_555
C40 C41 1_555 1_555
N1 Co1_2 1_555 1_555
N2 C1 1_555 1_555
N5 C9 1_555 1_555
N6 C12 1_555 1_555
C1 N1 1_555 1_555
C2 N1 1_555 1_555
H3 C2 1_555 1_555
C4 N2 1_555 1_555
H4 C4 1_555 1_555
C5 N2 1_555 1_555
H6 C8 1_555 1_555
C9 C8 1_555 1_555
C10 C5 1_555 1_555
H7 C10 1_555 1_555
C11 N5 1_555 1_555
H8 C11 1_555 1_555
C12 C11 1_555 1_555
H9 C12 1_555 1_555
C13 N5 1_555 1_555
H10 C13 1_555 1_555
O7 Co1_2 1_555 1_555
N6 C13 1_555 1_555
C2 C4 1_555 1_555
C9 C10 1_555 1_555
N8 Co1_3 1_555 1_555
N9 C42 1_555 1_555
N12 C50 1_555 1_555
N13 C53 1_555 1_555
C42 N8 1_555 1_555
C43 N8 1_555 1_555
H32 C43 1_555 1_555
C45 N9 1_555 1_555
H33 C45 1_555 1_555
C46 N9 1_555 1_555
H35 C49 1_555 1_555
C50 C49 1_555 1_555
C51 C46 1_555 1_555
H36 C51 1_555 1_555
C52 N12 1_555 1_555
H37 C52 1_555 1_555
C53 C52 1_555 1_555
H38 C53 1_555 1_555
C54 N12 1_555 1_555
H39 C54 1_555 1_555
O14 Co1_3 1_555 1_555
N13 C54 1_555 1_555
C43 C45 1_555 1_555
C50 C51 1_555 1_555
O8 C58 1_555 1_555
O9 Co1_4 1_555 1_555
O10 C76 1_555 1_555
O11 C76 1_555 1_555
O12 C44 1_555 1_555
O13 C44 1_555 1_555
N10 C48 1_555 1_555
N11 C55 1_555 1_555
N14 H30 1_555 1_555
C44 C80 1_555 1_555
H34 C47 1_555 1_555
C48 C47 1_555 1_555
C55 N10 1_555 1_555
H40 C55 1_555 1_555
C56 N10 1_555 1_555
H41 C56 1_555 1_555
C57 N11 1_555 1_555
H42 C57 1_555 1_555
C58 O9 1_555 1_555
C59 C58 1_555 1_555
C60 C59 1_555 1_555
H43 C60 1_555 1_555
C61 C60 1_555 1_555
H44 C61 1_555 1_555
C62 C61 1_555 1_555
C63 C62 1_555 1_555
H45 C63 1_555 1_555
C64 C59 1_555 1_555
H46 C64 1_555 1_555
C65 N14 1_555 1_555
C66 C65 1_555 1_555
H47 C66 1_555 1_555
C67 C66 1_555 1_555
C68 C67 1_555 1_555
H48 C68 1_555 1_555
C69 N14 1_555 1_555
C70 C69 1_555 1_555
C71 C70 1_555 1_555
H49 C71 1_555 1_555
C72 C71 1_555 1_555
H50 C72 1_555 1_555
C73 H51 1_555 1_555
C74 C70 1_555 1_555
H52 C74 1_555 1_555
C75 C72 1_555 1_555
C76 C75 1_555 1_555
C77 C67 1_555 1_555
C78 C77 1_555 1_555
H53 C78 1_555 1_555
C79 C78 1_555 1_555
H54 C79 1_555 1_555
C80 C79 1_555 1_555
C81 C80 1_555 1_555
C82 C77 1_555 1_555
H56 C82 1_555 1_555
Co7 O12 1_555 1_555
Co9 O10 1_555 1_555
O11 Co9 1_555 1_555
O13 Co7 1_555 1_555
C56 C57 1_555 1_555
C62 C65 1_555 1_555
C63 C64 1_555 1_555
C68 C69 1_555 1_555
C73 C74 1_555 1_555
C73 C75 1_555 1_555
C81 C82 1_555 1_555
O16 Co7 1_555 1_555
O18 Co7 1_555 1_555
O20 Co9 1_555 1_555
O22 Co9 1_555 1_555
O16 C76_2 1_555 1_555
O18 C76_2 1_555 1_555
H48_2 C68_2 1_555 1_555
C70_2 C69_2 1_555 1_555
C71_2 C70_2 1_555 1_555
H49_2 C71_2 1_555 1_555
C72_2 C71_2 1_555 1_555
H50_2 C72_2 1_555 1_555
C73_2 H51_2 1_555 1_555
C74_2 C70_2 1_555 1_555
H52_2 C74_2 1_555 1_555
C75_2 C72_2 1_555 1_555
C76_2 C75_2 1_555 1_555
C68_2 C69_2 1_555 1_555
C73_2 C74_2 1_555 1_555
C73_2 C75_2 1_555 1_555
O20 C44_2 1_555 1_555
O22 C44_2 1_555 1_555
C44_2 C80_2 1_555 1_555
C77_2 C67_2 1_555 1_555
C78_2 C77_2 1_555 1_555
H53_2 C78_2 1_555 1_555
C79_2 C78_2 1_555 1_555
H54_2 C79_2 1_555 1_555
C80_2 C79_2 1_555 1_555
C81_2 C80_2 1_555 1_555
C82_2 C77_2 1_555 1_555
C81_2 C82_2 1_555 1_555
N8_2 Co1_5 1_555 1_555
N9_2 C42_2 1_555 1_555
N10_2 C48_2 1_555 1_555
N16 C55_2 1_555 1_555
N12_2 C50_2 1_555 1_555
N13_2 C53_2 1_555 1_555
C42_2 N8_2 1_555 1_555
H31_2 C42_2 1_555 1_555
C43_2 N8_2 1_555 1_555
C45_2 N9_2 1_555 1_555
H33_2 C45_2 1_555 1_555
C46_2 N9_2 1_555 1_555
C47_2 C46_2 1_555 1_555
H34_2 C47_2 1_555 1_555
C48_2 C47_2 1_555 1_555
C49_2 C48_2 1_555 1_555
H35_2 C49_2 1_555 1_555
C50_2 C49_2 1_555 1_555
C51_2 C46_2 1_555 1_555
H36_2 C51_2 1_555 1_555
C52_2 N12_2 1_555 1_555
H37_2 C52_2 1_555 1_555
C53_2 C52_2 1_555 1_555
H38_2 C53_2 1_555 1_555
C54_2 N12_2 1_555 1_555
H39_2 C54_2 1_555 1_555
C55_2 N10_2 1_555 1_555
H40_2 C55_2 1_555 1_555
C56_2 N10_2 1_555 1_555
H41_2 C56_2 1_555 1_555
C57_2 N16 1_555 1_555
H42_2 C57_2 1_555 1_555
H45_2 C63_2 1_555 1_555
H47_2 C66_2 1_555 1_555
N13_2 C54_2 1_555 1_555
C43_2 C45_2 1_555 1_555
C50_2 C51_2 1_555 1_555
C56_2 C57_2 1_555 1_555
N1_2 Co1_6 1_555 1_555
N2_2 C1_2 1_555 1_555
N3_2 C7_2 1_555 1_555
N15 C14_2 1_555 1_555
N5_2 C9_2 1_555 1_555
N6_2 C12_2 1_555 1_555
C1_2 N1_2 1_555 1_555
H2_2 C1_2 1_555 1_555
C2_2 N1_2 1_555 1_555
C4_2 N2_2 1_555 1_555
H4_2 C4_2 1_555 1_555
C5_2 N2_2 1_555 1_555
C6_2 C5_2 1_555 1_555
H5_2 C6_2 1_555 1_555
C7_2 C6_2 1_555 1_555
C8_2 C7_2 1_555 1_555
H6_2 C8_2 1_555 1_555
C9_2 C8_2 1_555 1_555
C10_2 C5_2 1_555 1_555
H7_2 C10_2 1_555 1_555
C11_2 N5_2 1_555 1_555
H8_2 C11_2 1_555 1_555
C12_2 C11_2 1_555 1_555
H9_2 C12_2 1_555 1_555
C13_2 N5_2 1_555 1_555
H10_2 C13_2 1_555 1_555
C14_2 N3_2 1_555 1_555
H11_2 C14_2 1_555 1_555
C15_2 N3_2 1_555 1_555
H12_2 C15_2 1_555 1_555
C16_2 N15 1_555 1_555
H13_2 C16_2 1_555 1_555
H16_2 C22_2 1_555 1_555
H18_2 C25_2 1_555 1_555
N6_2 C13_2 1_555 1_555
C2_2 C4_2 1_555 1_555
C9_2 C10_2 1_555 1_555
C15_2 C16_2 1_555 1_555
O5 C3_2 1_555 1_555
O6 C3_2 1_555 1_555
C3_2 C39_2 1_555 1_555
C36_2 C26_2 1_555 1_555
C37_2 C36_2 1_555 1_555
H24_2 C37_2 1_555 1_555
C38_2 C37_2 1_555 1_555
H25_2 C38_2 1_555 1_555
C39_2 C38_2 1_555 1_555
C40_2 C39_2 1_555 1_555
C41_2 C36_2 1_555 1_555
Co6 O5 1_555 1_555
O6 Co6 1_555 1_555
C40_2 C41_2 1_555 1_555
O15 C35_2 1_555 1_555
O17 C35_2 1_555 1_555
H19_2 C27_2 1_555 1_555
C29_2 C28_2 1_555 1_555
C30_2 C29_2 1_555 1_555
H20_2 C30_2 1_555 1_555
C31_2 C30_2 1_555 1_555
H21_2 C31_2 1_555 1_555
C32_2 H22_2 1_555 1_555
C33_2 C29_2 1_555 1_555
H23_2 C33_2 1_555 1_555
C34_2 C31_2 1_555 1_555
C35_2 C34_2 1_555 1_555
C27_2 C28_2 1_555 1_555
C32_2 C33_2 1_555 1_555
C32_2 C34_2 1_555 1_555
O8_2 C58_2 1_555 1_555
O9_2 Co1_7 1_555 1_555
N14_2 H30_2 1_555 1_555
C58_2 O9_2 1_555 1_555
C59_2 C58_2 1_555 1_555
C60_2 C59_2 1_555 1_555
H43_2 C60_2 1_555 1_555
C61_2 C60_2 1_555 1_555
H44_2 C61_2 1_555 1_555
C62_2 C61_2 1_555 1_555
C64_2 C59_2 1_555 1_555
C65_2 N14_2 1_555 1_555
O14_2 Co1_7 1_555 1_555
H57_2 O14_2 1_555 1_555
C62_2 C65_2 1_555 1_555
Co1_8 O2_2 1_555 1_555
O1_2 C17_2 1_555 1_555
O2_2 C17_2 1_555 1_555
N7_2 H1_2 1_555 1_555
C17_2 C18_2 1_555 1_555
C18_2 C19_2 1_555 1_555
C19_2 H14_2 1_555 1_555
C20_2 C19_2 1_555 1_555
H15_2 C20_2 1_555 1_555
C21_2 C20_2 1_555 1_555
C23_2 C18_2 1_555 1_555
C24_2 N7_2 1_555 1_555
O7_2 Co1_8 1_555 1_555
H28_2 O7_2 1_555 1_555
C21_2 C24_2 1_555 1_555
O23 H59 1_555 1_555
O23_2 H59_2 1_555 1_555
O23_3 H59_3 1_555 1_555
O23_4 H59_4 1_555 1_555

#END
