
###############################################################################
#
# This file contains modified crystal structure data generated from the
# MOF subset of the Cambridge Structural Database (CSD) v543 
# hosted by the Cambridge Crystallographic Data Centre (CCDC).
#
# This work is licensed under the Creative Commons
# Attribution-NonCommercial-ShareAlike 4.0 International License.
# To view a copy of this license, visit
# http://creativecommons.org/licenses/by-nc-sa/4.0/
# or send a letter to
# Creative Commons, PO Box 1866, Mountain View, CA 94042, USA.
#
# CIF created using the CSD Python API on 29 September 2022
# The structure has been converted into the P1 space group
# The structure has a 3D framework
# The original CSD entry NIJSAC is in the orthorhombic crystal system
# The original CSD entry NIJSAC is in a Sohncke space group
# The framework has been calculated to contain at least 10.0% void space
# The void calculation uses a probe of radius 1.32A, grid spacing 0.4
#
###############################################################################

data_NIJSAC
_chemical_formula_moiety         '(C64 H52 Cu4 N28 O32)n'
_symmetry_cell_setting           triclinic
_symmetry_space_group_name_H-M   'P 1'
_symmetry_Int_Tables_number      1
_space_group_name_Hall           'P 1'
loop_
_symmetry_equiv_pos_site_id
_symmetry_equiv_pos_as_xyz
1 x,y,z
_cell_length_a                   5.7467(5)
_cell_length_b                   17.9631(16)
_cell_length_c                   20.3944(19)
_cell_angle_alpha                90
_cell_angle_beta                 90
_cell_angle_gamma                90
_cell_volume                     2105.28
loop_
_atom_site_label
_atom_site_type_symbol
_atom_site_fract_x
_atom_site_fract_y
_atom_site_fract_z
O4 O 0.1125(2) 0.97677(8) 0.55613(7)
H1 H 0.1898 0.9384 0.5575
O1 O 0.5416(2) 0.04654(7) 0.71096(6)
O6 O 0.7222(2) 0.05970(7) 0.36453(6)
O7 O 0.1239(3) 0.20241(9) 0.47180(7)
O8 O 0.1280(3) 0.21599(9) 0.57640(7)
N1 N 0.2027(3) 0.18854(10) 0.52616(8)
C1 C 0.6161(3) 0.05116(9) 0.59707(8)
C2 C 0.7333(3) 0.02623(10) 0.54076(8)
C3 C 0.6788(3) 0.05796(10) 0.47982(8)
C4 C 0.5086(3) 0.11230(10) 0.47500(9)
H2 H 0.4720 0.1332 0.4346
C5 C 0.3948(3) 0.13472(10) 0.53067(9)
C6 C 0.4474(3) 0.10643(10) 0.59151(9)
H3 H 0.3710 0.1240 0.6286
C7 C 0.6606(3) 0.01853(9) 0.66372(8)
C9 C 0.8004(4) 0.03224(11) 0.41797(9)
Cu2 Cu 0.85577(4) 0.003832(12) 0.291511(9)
O9 O 0.5428(3) 0.01388(9) 0.92067(7)
N8 N 0.9071(3) 0.06893(9) 0.79865(7)
Cu1 Cu 0.64423(4) 0.996168(12) 0.791511(9)
O2 O 0.8013(2) 0.96765(7) 0.67106(6)
O3 O 0.8242(2) 0.89712(7) 0.53668(7)
O5 O 0.9572(3) 0.98612(9) 0.42067(7)
N2 N 0.3892(3) 0.92110(8) 0.78148(7)
N3 N 0.1565(3) 0.84509(8) 0.73080(7)
N4 N 0.2203(3) 0.80861(9) 0.78665(8)
N7 N 0.0929(3) 0.56893(9) 0.70135(7)
C8 C 0.8954(3) 0.96024(11) 0.54442(8)
C10 C 0.3579(4) 0.85670(11) 0.81526(9)
H4 H 0.4286 0.8475 0.8555
C11 C 0.2571(3) 0.91079(11) 0.72854(9)
H5 H 0.2387 0.9451 0.6948
C12 C 0.0128(4) 0.80910(11) 0.68064(9)
H6 H 0.0885 0.7634 0.6669
H7 H 0.0035 0.8416 0.6427
C15 C 0.0516(4) 0.62648(11) 0.74079(10)
H12 H 0.1474 0.6414 0.7751
Cu3 Cu 0.35577(4) 0.496168(12) 0.708489(9)
O10 O 0.7778(2) 0.94030(7) 0.86453(6)
N2_2 N 0.1108(3) 0.07890(8) 0.28148(7)
N3_2 N 0.3435(3) 0.15491(8) 0.23080(7)
N4_2 N 0.2797(3) 0.19139(9) 0.28665(8)
N5 N 0.6437(3) 0.34094(8) 0.22423(7)
N6 N 0.7420(3) 0.37617(10) 0.17207(8)
N7_2 N 0.4071(3) 0.43107(9) 0.20135(7)
C10_2 C 0.1421(4) 0.14330(11) 0.31526(9)
H4_2 H 0.0714 0.1525 0.3555
C11_2 C 0.2429(3) 0.08921(11) 0.22854(9)
H5_2 H 0.2613 0.0549 0.1948
C12_2 C 0.4872(4) 0.19090(11) 0.18064(9)
H6_2 H 0.4115 0.2366 0.1669
H7_2 H 0.4965 0.1584 0.1427
C13 C 0.7321(3) 0.20912(11) 0.20339(11)
H8 H 0.7978 0.1652 0.2239
H9 H 0.8263 0.2205 0.1652
C14 C 0.7503(4) 0.27359(11) 0.25121(10)
H10 H 0.6732 0.2604 0.2919
H11 H 0.9128 0.2832 0.2609
C15_2 C 0.4484(4) 0.37352(11) 0.24079(10)
H12_2 H 0.3526 0.3586 0.2751
C16 C 0.5942(4) 0.42974(11) 0.16010(10)
H13 H 0.6146 0.4640 0.1264
Cu3_2 Cu 0.14423(4) 0.503832(12) 0.208489(9)
O2_2 O 0.6987(2) 0.03235(7) 0.17106(6)
O3_2 O 0.6758(2) 0.10288(7) 0.03668(7)
O4_2 O 0.3875(2) 0.02323(8) 0.05613(7)
H1_2 H 0.3102 0.0616 0.0575
C8_2 C 0.6046(3) 0.03976(11) 0.04442(8)
O1_2 O 0.9584(2) 0.95346(7) 0.21096(6)
C1_2 C 0.8839(3) 0.94884(9) 0.09707(8)
C2_2 C 0.7667(3) 0.97377(10) 0.04076(8)
C7_2 C 0.8394(3) 0.98147(9) 0.16372(8)
N8_2 N 0.5929(3) 0.93107(9) 0.29865(7)
C3_2 C 0.8212(3) 0.94204(10) 0.97982(8)
C4_2 C 0.9914(3) 0.88770(10) 0.97500(9)
C9_2 C 0.6996(4) 0.96776(11) 0.91797(9)
O5_2 O 0.0428(3) 0.48612(9) 0.07933(7)
O6_2 O 0.2778(2) 0.55970(7) 0.13547(6)
O7_2 O 0.8761(3) 0.70241(9) 0.02820(7)
C3_3 C 0.3212(3) 0.55796(10) 0.02018(8)
C4_3 C 0.4914(3) 0.61230(10) 0.02500(9)
H2_2 H 0.5280 0.6332 0.0654
C9_3 C 0.1996(4) 0.53224(11) 0.08203(9)
O1_3 O 0.4584(2) 0.54654(7) 0.78904(6)
O2_3 O 0.1987(2) 0.46765(7) 0.82894(6)
O3_3 O 0.1758(2) 0.39712(7) 0.96332(7)
O8_2 O 0.8720(3) 0.71599(9) 0.92360(7)
N1_2 N 0.7973(3) 0.68854(10) 0.97384(8)
N2_3 N 0.6108(3) 0.42110(8) 0.71852(7)
N3_3 N 0.8435(3) 0.34509(8) 0.76920(7)
N4_3 N 0.7797(3) 0.30861(9) 0.71335(8)
C1_3 C 0.3839(3) 0.55116(9) 0.90293(8)
C2_3 C 0.2667(3) 0.52623(10) 0.95924(8)
C5_2 C 0.6052(3) 0.63472(10) 0.96933(9)
C6_2 C 0.5526(3) 0.60643(10) 0.90849(9)
H3_2 H 0.6290 0.6240 0.8714
C7_3 C 0.3394(3) 0.51853(9) 0.83628(8)
C8_3 C 0.1046(3) 0.46024(11) 0.95558(8)
C10_3 C 0.6421(4) 0.35670(11) 0.68474(9)
H4_3 H 0.5714 0.3475 0.6445
C11_3 C 0.7429(3) 0.41079(11) 0.77146(9)
H5_3 H 0.7613 0.4451 0.8052
C12_3 C 0.9872(4) 0.30910(11) 0.81936(9)
H6_3 H 0.9115 0.2634 0.8331
H7_3 H 0.9965 0.3416 0.8573
C15_3 C 0.9484(4) 0.12648(11) 0.75921(10)
H12_3 H 0.8526 0.1414 0.7249
O9_2 O 0.4572(3) 0.51388(9) 0.57933(7)
O10_2 O 0.2222(2) 0.44030(7) 0.63547(6)
O1_4 O 0.0416(2) 0.45346(7) 0.28904(6)
O2_4 O 0.3013(2) 0.53235(7) 0.32894(6)
O3_4 O 0.3242(2) 0.60288(7) 0.46332(7)
O4_3 O 0.6125(2) 0.52323(8) 0.44387(7)
H1_3 H 0.6898 0.5616 0.4425
C1_4 C 0.1161(3) 0.44884(9) 0.40293(8)
C2_4 C 0.2333(3) 0.47377(10) 0.45924(8)
C3_4 C 0.1788(3) 0.44204(10) 0.52018(8)
C4_4 C 0.0086(3) 0.38770(10) 0.52500(9)
C7_4 C 0.1606(3) 0.48147(9) 0.33628(8)
C8_4 C 0.3954(3) 0.53976(11) 0.45558(8)
C9_4 C 0.3004(4) 0.46776(11) 0.58203(9)
O7_3 O 0.6239(3) 0.29759(9) 0.52820(7)
O8_3 O 0.6280(3) 0.28401(9) 0.42360(7)
N1_3 N 0.7027(3) 0.31146(10) 0.47384(8)
N2_4 N 0.8892(3) 0.57890(8) 0.21852(7)
N3_4 N 0.6565(3) 0.65491(8) 0.26920(7)
N4_4 N 0.7203(3) 0.69139(9) 0.21335(8)
N5_2 N 0.3563(3) 0.84094(8) 0.27577(7)
N6_2 N 0.2580(3) 0.87617(10) 0.32793(8)
H2_3 H 0.9720 0.3668 0.5654
C5_3 C 0.8948(3) 0.36528(10) 0.46933(9)
C6_3 C 0.9474(3) 0.39357(10) 0.40849(9)
H3_3 H 0.8710 0.3760 0.3714
C10_4 C 0.8579(4) 0.64330(11) 0.18474(9)
H4_4 H 0.9286 0.6525 0.1445
C11_4 C 0.7571(3) 0.58921(11) 0.27146(9)
H5_4 H 0.7387 0.5549 0.3052
C12_4 C 0.5128(4) 0.69090(11) 0.31936(9)
H6_4 H 0.5885 0.7366 0.3331
H7_4 H 0.5035 0.6584 0.3573
C13_2 C 0.2679(3) 0.70912(11) 0.29661(11)
H8_2 H 0.2022 0.6652 0.2761
H9_2 H 0.1737 0.7205 0.3348
C14_2 C 0.2497(4) 0.77359(11) 0.24879(10)
H10_2 H 0.3268 0.7604 0.2081
H11_2 H 0.0872 0.7832 0.2391
C15_4 C 0.5516(4) 0.87352(11) 0.25921(10)
H12_4 H 0.6474 0.8586 0.2249
C16_2 C 0.4058(4) 0.92974(11) 0.33990(10)
H13_2 H 0.3854 0.9640 0.3736
N5_3 N 0.8563(3) 0.65906(8) 0.72423(7)
N6_3 N 0.7580(3) 0.62383(10) 0.67207(8)
C13_3 C 0.7679(3) 0.79088(11) 0.70339(11)
H8_3 H 0.7022 0.8348 0.7239
H9_3 H 0.6737 0.7795 0.6652
C14_3 C 0.7497(4) 0.72641(11) 0.75121(10)
H10_3 H 0.8268 0.7396 0.7919
H11_3 H 0.5872 0.7168 0.7609
C16_3 C 0.9058(4) 0.57026(11) 0.66010(10)
H13_3 H 0.8854 0.5360 0.6264
O8_4 O 0.3720(3) 0.78401(9) 0.07640(7)
N1_4 N 0.2973(3) 0.81146(10) 0.02616(8)
C5_4 C 0.1052(3) 0.86528(10) 0.03067(9)
C6_4 C 0.0526(3) 0.89357(10) 0.09151(9)
H3_4 H 0.1290 0.8760 0.1286
O7_4 O 0.3761(3) 0.79759(9) 0.97180(7)
H2_4 H 0.0280 0.8668 0.9346
N5_4 N 0.1437(3) 0.15906(8) 0.77577(7)
N6_4 N 0.2420(3) 0.12383(10) 0.82793(8)
C13_4 C 0.2321(3) 0.29088(11) 0.79661(11)
H8_4 H 0.2978 0.3348 0.7761
H9_4 H 0.3263 0.2795 0.8348
C14_4 C 0.2503(4) 0.22641(11) 0.74879(10)
H10_4 H 0.1732 0.2396 0.7081
H11_4 H 0.4128 0.2168 0.7391
C16_4 C 0.0942(4) 0.07026(11) 0.83990(10)
H13_4 H 0.1146 0.0360 0.8736
O4_4 O 0.8875(2) 0.47677(8) 0.94387(7)
H1_4 H 0.8102 0.4384 0.9425
loop_
_geom_bond_atom_site_label_1
_geom_bond_atom_site_label_2
_geom_bond_site_symmetry_1
_geom_bond_site_symmetry_2
O4 H1 1_555 1_555
O1 C7 1_555 1_555
O6 C9 1_555 1_555
O7 N1 1_555 1_555
O8 N1 1_555 1_555
N1 C5 1_555 1_555
C1 C2 1_555 1_555
C2 C3 1_555 1_555
C3 C4 1_555 1_555
C4 H2 1_555 1_555
C5 C4 1_555 1_555
C6 C1 1_555 1_555
H3 C6 1_555 1_555
C9 C3 1_555 1_555
O6 Cu2 1_555 1_555
C1 C7 1_555 1_555
C5 C6 1_555 1_555
O2 Cu1 1_555 1_555
O3 C8 1_555 1_555
N2 Cu1 1_555 1_555
N3 N4 1_555 1_555
N4 C10 1_555 1_555
N7 C15 1_555 1_555
C10 N2 1_555 1_555
H4 C10 1_555 1_555
C11 N2 1_555 1_555
H5 C11 1_555 1_555
C12 N3 1_555 1_555
H6 C12 1_555 1_555
H7 C12 1_555 1_555
H12 C15 1_555 1_555
Cu3 N7 1_555 1_555
O10 Cu1 1_555 1_555
N3 C11 1_555 1_555
N3_2 N4_2 1_555 1_555
N4_2 C10_2 1_555 1_555
N5 N6 1_555 1_555
N6 C16 1_555 1_555
N7_2 C15_2 1_555 1_555
C10_2 N2_2 1_555 1_555
H4_2 C10_2 1_555 1_555
C11_2 N2_2 1_555 1_555
H5_2 C11_2 1_555 1_555
C12_2 N3_2 1_555 1_555
H6_2 C12_2 1_555 1_555
H7_2 C12_2 1_555 1_555
C13 C12_2 1_555 1_555
H8 C13 1_555 1_555
H9 C13 1_555 1_555
C14 N5 1_555 1_555
H10 C14 1_555 1_555
H11 C14 1_555 1_555
C15_2 N5 1_555 1_555
H12_2 C15_2 1_555 1_555
C16 N7_2 1_555 1_555
H13 C16 1_555 1_555
Cu3_2 N7_2 1_555 1_555
N3_2 C11_2 1_555 1_555
C13 C14 1_555 1_555
O2_2 Cu2 1_555 1_555
O3_2 C8_2 1_555 1_555
O4_2 H1_2 1_555 1_555
C8_2 O4_2 1_555 1_555
O1_2 C7_2 1_555 1_555
C1_2 C2_2 1_555 1_555
C1_2 C7_2 1_555 1_555
O10 C9_2 1_555 1_555
C3_2 C4_2 1_555 1_555
C9_2 C3_2 1_555 1_555
O5_2 C9_3 1_555 1_555
O6_2 C9_3 1_555 1_555
C3_3 C4_3 1_555 1_555
C4_3 H2_2 1_555 1_555
C9_3 C3_3 1_555 1_555
Cu3_2 O5_2 1_555 1_555
O6_2 Cu3_2 1_555 1_555
Cu3 O1_3 1_555 1_555
O1_3 C7_3 1_555 1_555
O2_3 Cu3 1_555 1_555
O3_3 C8_3 1_555 1_555
O8_2 N1_2 1_555 1_555
N1_2 C5_2 1_555 1_555
N2_3 Cu3 1_555 1_555
N3_3 N4_3 1_555 1_555
N4_3 C10_3 1_555 1_555
N8 C15_3 1_555 1_555
C1_3 C2_3 1_555 1_555
C6_2 C1_3 1_555 1_555
H3_2 C6_2 1_555 1_555
C7_3 O2_3 1_555 1_555
C10_3 N2_3 1_555 1_555
H4_3 C10_3 1_555 1_555
C11_3 N2_3 1_555 1_555
H5_3 C11_3 1_555 1_555
C12_3 N3_3 1_555 1_555
H6_3 C12_3 1_555 1_555
H7_3 C12_3 1_555 1_555
H12_3 C15_3 1_555 1_555
O9_2 Cu3 1_555 1_555
O10_2 Cu3 1_555 1_555
N3_3 C11_3 1_555 1_555
C1_3 C7_3 1_555 1_555
C2_3 C8_3 1_555 1_555
C5_2 C6_2 1_555 1_555
Cu3_2 O1_4 1_555 1_555
O1_4 C7_4 1_555 1_555
O2_4 Cu3_2 1_555 1_555
O3_4 C8_4 1_555 1_555
O4_3 H1_3 1_555 1_555
O9_2 C9_4 1_555 1_555
O10_2 C9_4 1_555 1_555
C1_4 C2_4 1_555 1_555
C2_4 C3_4 1_555 1_555
C3_4 C4_4 1_555 1_555
C7_4 O2_4 1_555 1_555
C8_4 O4_3 1_555 1_555
C9_4 C3_4 1_555 1_555
C1_4 C7_4 1_555 1_555
C2_4 C8_4 1_555 1_555
O7_3 N1_3 1_555 1_555
O8_3 N1_3 1_555 1_555
N1_3 C5_3 1_555 1_555
N3_4 N4_4 1_555 1_555
N4_4 C10_4 1_555 1_555
N5_2 N6_2 1_555 1_555
N6_2 C16_2 1_555 1_555
N8_2 C15_4 1_555 1_555
H3_3 C6_3 1_555 1_555
C10_4 N2_4 1_555 1_555
H4_4 C10_4 1_555 1_555
C11_4 N2_4 1_555 1_555
H5_4 C11_4 1_555 1_555
C12_4 N3_4 1_555 1_555
H6_4 C12_4 1_555 1_555
H7_4 C12_4 1_555 1_555
C13_2 C12_4 1_555 1_555
H8_2 C13_2 1_555 1_555
H9_2 C13_2 1_555 1_555
C14_2 N5_2 1_555 1_555
H10_2 C14_2 1_555 1_555
H11_2 C14_2 1_555 1_555
C15_4 N5_2 1_555 1_555
H12_4 C15_4 1_555 1_555
C16_2 N8_2 1_555 1_555
H13_2 C16_2 1_555 1_555
N3_4 C11_4 1_555 1_555
C5_3 C6_3 1_555 1_555
C13_2 C14_2 1_555 1_555
N5_3 N6_3 1_555 1_555
N6_3 C16_3 1_555 1_555
H8_3 C13_3 1_555 1_555
H9_3 C13_3 1_555 1_555
C14_3 N5_3 1_555 1_555
H10_3 C14_3 1_555 1_555
H11_3 C14_3 1_555 1_555
H13_3 C16_3 1_555 1_555
C13_3 C14_3 1_555 1_555
O8_4 N1_4 1_555 1_555
N1_4 C5_4 1_555 1_555
H3_4 C6_4 1_555 1_555
C5_4 C6_4 1_555 1_555
N5_4 N6_4 1_555 1_555
N6_4 C16_4 1_555 1_555
H8_4 C13_4 1_555 1_555
H9_4 C13_4 1_555 1_555
C14_4 N5_4 1_555 1_555
H10_4 C14_4 1_555 1_555
H11_4 C14_4 1_555 1_555
H13_4 C16_4 1_555 1_555
C13_4 C14_4 1_555 1_555
O4_4 H1_4 1_555 1_555

#END
