
###############################################################################
#
# This file contains modified crystal structure data generated from the
# MOF subset of the Cambridge Structural Database (CSD) v543 
# hosted by the Cambridge Crystallographic Data Centre (CCDC).
#
# This work is licensed under the Creative Commons
# Attribution-NonCommercial-ShareAlike 4.0 International License.
# To view a copy of this license, visit
# http://creativecommons.org/licenses/by-nc-sa/4.0/
# or send a letter to
# Creative Commons, PO Box 1866, Mountain View, CA 94042, USA.
#
# CIF created using the CSD Python API on 29 September 2022
# The structure has been converted into the P1 space group
# The structure has a 3D framework
# The original CSD entry NIJVEJ is in the orthorhombic crystal system
# The framework has been calculated to contain at least 10.0% void space
# The void calculation uses a probe of radius 1.32A, grid spacing 0.4
#
###############################################################################

data_NIJVEJ
_chemical_formula_moiety         '(C168 H112 Co8 N48 O28 S8)n'
_symmetry_cell_setting           triclinic
_symmetry_space_group_name_H-M   'P 1'
_symmetry_Int_Tables_number      1
_space_group_name_Hall           'P 1'
loop_
_symmetry_equiv_pos_site_id
_symmetry_equiv_pos_as_xyz
1 x,y,z
_cell_length_a                   22.9568(15)
_cell_length_b                   13.2642(9)
_cell_length_c                   19.3659(13)
_cell_angle_alpha                90
_cell_angle_beta                 90
_cell_angle_gamma                90
_cell_volume                     5896.99
loop_
_atom_site_label
_atom_site_type_symbol
_atom_site_fract_x
_atom_site_fract_y
_atom_site_fract_z
N5 N 0.66193(10) 0.10569(18) 0.12127(13)
C11 C 0.71268(14) 0.0553(3) 0.1360(2)
H7 H 0.7462 0.0851 0.1536
C12 C 0.62647(12) 0.0371(2) 0.09756(16)
H8 H 0.5885 0.0499 0.0833
Co2 Co 0.651455(14) 0.26504(3) 0.134034(17)
N1 N 0.64500(10) 0.42491(17) 0.14730(12)
N2 N 0.62686(10) 0.58513(16) 0.12640(12)
N6 N 0.65184(10) 0.94502(17) 0.09634(14)
O1 O 0.63772(10) 0.24935(17) 0.24372(12)
O2 O 0.72849(10) 0.25775(16) 0.20768(10)
O3 O 0.79543(11) 0.22102(18) 0.55100(11)
O4 O 0.85730(12) 0.1646(3) 0.47255(15)
C1 C 0.69160(14) 0.2516(2) 0.25526(14)
C2 C 0.71147(13) 0.2492(2) 0.32857(15)
C3 C 0.68250(16) 0.2864(3) 0.38418(17)
H1 H 0.6458 0.3161 0.3818
C4 C 0.71448(17) 0.2748(3) 0.44596(17)
H2 H 0.7015 0.2973 0.4888
C5 C 0.76634(14) 0.2270(3) 0.43609(15)
C6 C 0.80998(15) 0.2027(3) 0.49026(16)
C7 C 0.65135(13) 0.4795(2) 0.20738(16)
H3 H 0.6615 0.4524 0.2500
C8 C 0.64069(13) 0.5779(2) 0.19531(15)
H4 H 0.6424 0.6303 0.2272
C9 C 0.63010(12) 0.49075(19) 0.10000(15)
H5 H 0.6227 0.4747 0.0541
C10 C 0.70700(14) 0.9568(3) 0.1214(2)
H6 H 0.7350 0.9068 0.1272
C16 C 0.56074(11) 0.7624(2) 0.00181(15)
C17 C 0.57318(11) 0.6728(2) 0.03575(15)
H12 H 0.5556 0.6127 0.0224
C18 C 0.61265(11) 0.67529(19) 0.09021(14)
C19 C 0.63955(12) 0.7653(2) 0.11028(15)
H13 H 0.6665 0.7661 0.1461
C20 C 0.58586(12) 0.8533(2) 0.02146(15)
S1 S 0.77751(4) 0.19974(7) 0.35066(4)
C21 C 0.62524(11) 0.85293(19) 0.07567(15)
Co3 Co 0.848545(14) 0.23496(3) 0.634034(17)
N7 N 0.56264(10) 0.25132(17) 0.10962(12)
O5 O 0.70457(11) 0.27898(18) 0.05100(11)
N1_2 N 0.85500(10) 0.07509(17) 0.64730(12)
O1_2 O 0.86228(10) 0.25065(17) 0.74372(12)
O2_2 O 0.77151(10) 0.24225(16) 0.70768(10)
O4_2 O 0.64270(12) 0.3354(3) 0.97255(15)
C1_2 C 0.80840(14) 0.2484(2) 0.75526(14)
C2_2 C 0.78853(13) 0.2508(2) 0.82857(15)
C3_2 C 0.81750(16) 0.2136(3) 0.88418(17)
H1_2 H 0.8542 0.1839 0.8818
C4_2 C 0.78552(17) 0.2252(3) 0.94596(17)
H2_2 H 0.7985 0.2027 0.9888
C5_2 C 0.73366(14) 0.2730(3) 0.93609(15)
C6_2 C 0.69002(15) 0.2973(3) 0.99026(16)
C7_2 C 0.84865(13) 0.0205(2) 0.70738(16)
H3_2 H 0.8385 0.0476 0.7500
C9_2 C 0.86990(12) 0.00925(19) 0.60000(15)
H5_2 H 0.8773 0.0253 0.5541
S1_2 S 0.72249(4) 0.30026(7) 0.85066(4)
N7_2 N 0.93736(10) 0.24868(17) 0.60962(12)
N8 N 0.83807(10) 0.39431(18) 0.62127(13)
N2_2 N 0.87314(10) 0.91487(16) 0.62640(12)
N4 N 0.97955(10) 0.73678(18) 0.44553(13)
N6_2 N 0.84816(10) 0.55498(17) 0.59634(14)
C8_2 C 0.85931(13) 0.9221(2) 0.69531(15)
H4_2 H 0.8576 0.8697 0.7272
C10_2 C 0.79300(14) 0.5432(3) 0.6214(2)
H6_2 H 0.7650 0.5932 0.6272
C11_2 C 0.78732(14) 0.4447(3) 0.6360(2)
H7_2 H 0.7538 0.4149 0.6536
C12_2 C 0.87353(12) 0.4629(2) 0.59756(16)
H8_2 H 0.9115 0.4501 0.5833
C13 C 0.97224(15) 0.6909(3) 0.38257(18)
H9 H 0.9389 0.6590 0.3663
C16_2 C 0.93926(11) 0.7376(2) 0.50181(15)
C17_2 C 0.92682(11) 0.8272(2) 0.53575(15)
H12_2 H 0.9444 0.8873 0.5224
C18_2 C 0.88735(11) 0.82471(19) 0.59021(14)
C19_2 C 0.86045(12) 0.7347(2) 0.61028(15)
H13_2 H 0.8335 0.7339 0.6461
C20_2 C 0.91414(12) 0.6467(2) 0.52146(15)
H14 H 0.9235 0.5871 0.4988
C21_2 C 0.87476(11) 0.64707(19) 0.57567(15)
N4_2 N 0.47955(10) 0.23678(18) 0.05447(13)
C13_2 C 0.47224(15) 0.1909(3) 0.11743(18)
H9_2 H 0.4389 0.1590 0.1337
C14 C 0.52346(14) 0.2015(3) 0.15098(17)
H10 H 0.5311 0.1785 0.1954
C15 C 0.53491(12) 0.2702(2) 0.05214(15)
H11 H 0.5514 0.3027 0.0143
H14_2 H 0.4235 0.0871 0.0012
C14_2 C 0.97654(14) 0.2985(3) 0.65098(17)
H10_2 H 0.9689 0.3215 0.6954
C15_2 C 0.96509(12) 0.2298(2) 0.55214(15)
H11_2 H 0.9486 0.1973 0.5143
N3 N 0.43736(10) 0.74868(17) 0.89038(12)
N4_3 N 0.52045(10) 0.76322(18) 0.94553(13)
C13_3 C 0.52776(15) 0.8091(3) 0.88257(18)
H9_3 H 0.5611 0.8410 0.8663
C14_3 C 0.47654(14) 0.7985(3) 0.84902(17)
H10_3 H 0.4689 0.8215 0.8046
C15_3 C 0.46509(12) 0.7298(2) 0.94786(15)
H11_3 H 0.4486 0.6973 0.9857
H14_3 H 0.5765 0.9129 0.9988
Co4 Co 0.348545(14) 0.73496(3) 0.865966(17)
N3_2 N 0.06264(10) 0.75132(17) 0.39038(12)
C14_4 C 0.02346(14) 0.7015(3) 0.34902(17)
H10_4 H 0.0311 0.6785 0.3046
C15_4 C 0.03491(12) 0.7702(2) 0.44786(15)
H11_4 H 0.0514 0.8027 0.4857
Co4_2 Co 0.151455(14) 0.76504(3) 0.365966(17)
N1_3 N 0.35500(10) 0.57509(17) 0.85270(12)
N2_3 N 0.37314(10) 0.41487(16) 0.87360(12)
N6_3 N 0.34816(10) 0.05498(17) 0.90366(14)
O1_3 O 0.36228(10) 0.75065(17) 0.75628(12)
O2_3 O 0.27151(10) 0.74225(16) 0.79232(10)
O3_2 O 0.20457(11) 0.77898(18) 0.44900(11)
O4_3 O 0.14270(12) 0.8354(3) 0.52745(15)
C1_3 C 0.30840(14) 0.7484(2) 0.74474(14)
C2_3 C 0.28853(13) 0.7508(2) 0.67143(15)
C3_3 C 0.31750(16) 0.7136(3) 0.61582(17)
H1_3 H 0.3542 0.6839 0.6182
C4_3 C 0.28552(17) 0.7252(3) 0.55404(17)
H2_3 H 0.2985 0.7027 0.5112
C5_3 C 0.23366(14) 0.7730(3) 0.56391(15)
C6_3 C 0.19002(15) 0.7973(3) 0.50974(16)
C7_3 C 0.34865(13) 0.5205(2) 0.79262(16)
H3_3 H 0.3385 0.5476 0.7500
C8_3 C 0.35931(13) 0.4221(2) 0.80469(15)
H4_3 H 0.3576 0.3697 0.7728
C9_3 C 0.36990(12) 0.50925(19) 0.90000(15)
H5_3 H 0.3773 0.5253 0.9459
C10_3 C 0.29300(14) 0.0432(3) 0.8786(2)
H6_3 H 0.2650 0.0932 0.8728
C16_3 C 0.43926(11) 0.2376(2) 0.99819(15)
C17_3 C 0.42682(11) 0.3272(2) 0.96425(15)
H12_3 H 0.4444 0.3873 0.9776
C18_3 C 0.38735(11) 0.32471(19) 0.90979(14)
C19_3 C 0.36045(12) 0.2347(2) 0.88972(15)
H13_3 H 0.3335 0.2339 0.8539
C20_3 C 0.41414(12) 0.1467(2) 0.97854(15)
S1_3 S 0.22249(4) 0.80026(7) 0.64934(4)
C21_3 C 0.37476(11) 0.14707(19) 0.92433(15)
N8_2 N 0.33807(10) 0.89431(18) 0.87873(13)
O5_2 O 0.29543(11) 0.72102(18) 0.94900(11)
C11_3 C 0.28732(14) 0.9447(3) 0.8640(2)
H7_3 H 0.2538 0.9149 0.8464
C12_3 C 0.37353(12) 0.9629(2) 0.90244(16)
H8_3 H 0.4115 0.9501 0.9167
N2_4 N 0.12686(10) 0.08513(16) 0.37360(12)
N4_4 N 0.02045(10) 0.26322(18) 0.55447(13)
N5_2 N 0.16193(10) 0.60569(18) 0.37873(13)
N6_4 N 0.15184(10) 0.44502(17) 0.40366(14)
C8_4 C 0.14069(13) 0.0779(2) 0.30469(15)
H4_4 H 0.1424 0.1303 0.2728
C10_4 C 0.20700(14) 0.4568(3) 0.3786(2)
H6_4 H 0.2350 0.4068 0.3728
C11_4 C 0.21268(14) 0.5553(3) 0.3640(2)
H7_4 H 0.2462 0.5851 0.3464
C12_4 C 0.12647(12) 0.5371(2) 0.40244(16)
H8_4 H 0.0885 0.5499 0.4167
C13_4 C 0.02776(15) 0.3091(3) 0.61743(18)
H9_4 H 0.0611 0.3410 0.6337
C16_4 C 0.06074(11) 0.2624(2) 0.49819(15)
C17_4 C 0.07318(11) 0.1728(2) 0.46425(15)
H12_4 H 0.0556 0.1127 0.4776
C18_4 C 0.11265(11) 0.17529(19) 0.40979(14)
C19_4 C 0.13955(12) 0.2653(2) 0.38972(15)
H13_4 H 0.1665 0.2661 0.3539
C20_4 C 0.08586(12) 0.3533(2) 0.47854(15)
H14_4 H 0.0765 0.4129 0.5012
C21_4 C 0.12524(11) 0.35293(19) 0.42433(15)
N1_4 N 0.14500(10) 0.92491(17) 0.35270(12)
O1_4 O 0.13772(10) 0.74935(17) 0.25628(12)
O2_4 O 0.22849(10) 0.75775(16) 0.29232(10)
O4_4 O 0.35730(12) 0.6646(3) 0.02745(15)
C1_4 C 0.19160(14) 0.7516(2) 0.24474(14)
C2_4 C 0.21147(13) 0.7492(2) 0.17143(15)
C3_4 C 0.18250(16) 0.7864(3) 0.11582(17)
H1_4 H 0.1458 0.8161 0.1182
C4_4 C 0.21448(17) 0.7748(3) 0.05404(17)
H2_4 H 0.2015 0.7973 0.0112
C5_4 C 0.26634(14) 0.7270(3) 0.06391(15)
C6_4 C 0.30998(15) 0.7027(3) 0.00974(16)
C7_4 C 0.15135(13) 0.9795(2) 0.29262(16)
H3_4 H 0.1615 0.9524 0.2500
C9_4 C 0.13010(12) 0.99075(19) 0.40000(15)
H5_4 H 0.1227 0.9747 0.4459
S1_4 S 0.27751(4) 0.69974(7) 0.14934(4)
N5_3 N 0.33807(10) 0.10569(18) 0.37873(13)
C11_5 C 0.28732(14) 0.0553(3) 0.3640(2)
H7_5 H 0.2538 0.0851 0.3464
C12_5 C 0.37353(12) 0.0371(2) 0.40244(16)
H8_5 H 0.4115 0.0499 0.4167
Co2_2 Co 0.348545(14) 0.26504(3) 0.365966(17)
N1_5 N 0.35500(10) 0.42491(17) 0.35270(12)
N2_5 N 0.37314(10) 0.58513(16) 0.37360(12)
N3_3 N 0.56264(10) 0.74868(17) 0.60962(12)
N4_5 N 0.47955(10) 0.76322(18) 0.55447(13)
N6_5 N 0.34816(10) 0.94502(17) 0.40366(14)
O1_5 O 0.36228(10) 0.24935(17) 0.25628(12)
O2_5 O 0.27151(10) 0.25775(16) 0.29232(10)
O4_5 O 0.14270(12) 0.1646(3) 0.02745(15)
C1_5 C 0.30840(14) 0.2516(2) 0.24474(14)
C2_5 C 0.28853(13) 0.2492(2) 0.17143(15)
C3_5 C 0.31750(16) 0.2864(3) 0.11582(17)
H1_5 H 0.3542 0.3161 0.1182
C4_5 C 0.28552(17) 0.2748(3) 0.05404(17)
H2_5 H 0.2985 0.2973 0.0112
C5_5 C 0.23366(14) 0.2270(3) 0.06391(15)
C6_5 C 0.19002(15) 0.2027(3) 0.00974(16)
C7_5 C 0.34865(13) 0.4795(2) 0.29262(16)
H3_5 H 0.3385 0.4524 0.2500
C8_5 C 0.35931(13) 0.5779(2) 0.30469(15)
H4_5 H 0.3576 0.6303 0.2728
C9_5 C 0.36990(12) 0.49075(19) 0.40000(15)
H5_5 H 0.3773 0.4747 0.4459
C10_5 C 0.29300(14) 0.9568(3) 0.3786(2)
H6_5 H 0.2650 0.9068 0.3728
C13_5 C 0.47224(15) 0.8091(3) 0.61743(18)
H9_5 H 0.4389 0.8410 0.6337
C14_5 C 0.52346(14) 0.7985(3) 0.65098(17)
H10_5 H 0.5311 0.8215 0.6954
C15_5 C 0.53491(12) 0.7298(2) 0.55214(15)
H11_5 H 0.5514 0.6973 0.5143
C16_5 C 0.43926(11) 0.7624(2) 0.49819(15)
C17_5 C 0.42682(11) 0.6728(2) 0.46425(15)
H12_5 H 0.4444 0.6127 0.4776
C18_5 C 0.38735(11) 0.67529(19) 0.40979(14)
C19_5 C 0.36045(12) 0.7653(2) 0.38972(15)
H13_5 H 0.3335 0.7661 0.3539
C20_5 C 0.41414(12) 0.8533(2) 0.47854(15)
H14_5 H 0.4235 0.9129 0.5012
S1_5 S 0.22249(4) 0.19974(7) 0.14934(4)
C21_5 C 0.37476(11) 0.85293(19) 0.42433(15)
Co4_3 Co 0.651455(14) 0.73496(3) 0.634034(17)
N7_3 N 0.43736(10) 0.25132(17) 0.39038(12)
O5_3 O 0.29543(11) 0.27898(18) 0.44900(11)
O3_3 O 0.20457(11) 0.22102(18) 0.94900(11)
Co3_2 Co 0.151455(14) 0.23496(3) 0.865966(17)
N1_6 N 0.14500(10) 0.07509(17) 0.85270(12)
O1_6 O 0.13772(10) 0.25065(17) 0.75628(12)
O2_6 O 0.22849(10) 0.24225(16) 0.79232(10)
O4_6 O 0.35730(12) 0.3354(3) 0.52745(15)
C1_6 C 0.19160(14) 0.2484(2) 0.74474(14)
C2_6 C 0.21147(13) 0.2508(2) 0.67143(15)
C3_6 C 0.18250(16) 0.2136(3) 0.61582(17)
H1_6 H 0.1458 0.1839 0.6182
C4_6 C 0.21448(17) 0.2252(3) 0.55404(17)
H2_6 H 0.2015 0.2027 0.5112
C5_6 C 0.26634(14) 0.2730(3) 0.56391(15)
C6_6 C 0.30998(15) 0.2973(3) 0.50974(16)
C7_6 C 0.15135(13) 0.0205(2) 0.79262(16)
H3_6 H 0.1615 0.0476 0.7500
C9_6 C 0.13010(12) 0.00925(19) 0.90000(15)
H5_6 H 0.1227 0.0253 0.9459
S1_6 S 0.27751(4) 0.30026(7) 0.64934(4)
N7_4 N 0.06264(10) 0.24868(17) 0.89038(12)
N8_3 N 0.16193(10) 0.39431(18) 0.87873(13)
N2_6 N 0.12686(10) 0.91487(16) 0.87360(12)
N6_6 N 0.15184(10) 0.55498(17) 0.90366(14)
C8_6 C 0.14069(13) 0.9221(2) 0.80469(15)
H4_6 H 0.1424 0.8697 0.7728
C10_6 C 0.20700(14) 0.5432(3) 0.8786(2)
H6_6 H 0.2350 0.5932 0.8728
C11_6 C 0.21268(14) 0.4447(3) 0.8640(2)
H7_6 H 0.2462 0.4149 0.8464
C12_6 C 0.12647(12) 0.4629(2) 0.90244(16)
H8_6 H 0.0885 0.4501 0.9167
C16_6 C 0.06074(11) 0.7376(2) 0.99819(15)
C17_6 C 0.07318(11) 0.8272(2) 0.96425(15)
H12_6 H 0.0556 0.8873 0.9776
C18_6 C 0.11265(11) 0.82471(19) 0.90979(14)
C19_6 C 0.13955(12) 0.7347(2) 0.88972(15)
H13_6 H 0.1665 0.7339 0.8539
C20_6 C 0.08586(12) 0.6467(2) 0.97854(15)
C21_6 C 0.12524(11) 0.64707(19) 0.92433(15)
N3_4 N 0.93736(10) 0.75132(17) 0.10962(12)
C14_6 C 0.97654(14) 0.7015(3) 0.15098(17)
H10_6 H 0.9689 0.6785 0.1954
C15_6 C 0.96509(12) 0.7702(2) 0.05214(15)
H11_6 H 0.9486 0.8027 0.0143
Co4_4 Co 0.848545(14) 0.76504(3) 0.134034(17)
O3_4 O 0.79543(11) 0.77898(18) 0.05100(11)
N1_7 N 0.64500(10) 0.57509(17) 0.64730(12)
N2_7 N 0.62686(10) 0.41487(16) 0.62640(12)
N4_6 N 0.52045(10) 0.23678(18) 0.44553(13)
N6_7 N 0.65184(10) 0.05498(17) 0.59634(14)
O1_7 O 0.63772(10) 0.75065(17) 0.74372(12)
O2_7 O 0.72849(10) 0.74225(16) 0.70768(10)
O4_7 O 0.85730(12) 0.8354(3) 0.97255(15)
C1_7 C 0.69160(14) 0.7484(2) 0.75526(14)
C2_7 C 0.71147(13) 0.7508(2) 0.82857(15)
C3_7 C 0.68250(16) 0.7136(3) 0.88418(17)
H1_7 H 0.6458 0.6839 0.8818
C4_7 C 0.71448(17) 0.7252(3) 0.94596(17)
H2_7 H 0.7015 0.7027 0.9888
C5_7 C 0.76634(14) 0.7730(3) 0.93609(15)
C6_7 C 0.80998(15) 0.7973(3) 0.99026(16)
C7_7 C 0.65135(13) 0.5205(2) 0.70738(16)
H3_7 H 0.6615 0.5476 0.7500
C8_7 C 0.64069(13) 0.4221(2) 0.69531(15)
H4_7 H 0.6424 0.3697 0.7272
C9_7 C 0.63010(12) 0.50925(19) 0.60000(15)
H5_7 H 0.6227 0.5253 0.5541
C10_7 C 0.70700(14) 0.0432(3) 0.6214(2)
H6_7 H 0.7350 0.0932 0.6272
C13_6 C 0.52776(15) 0.1909(3) 0.38257(18)
H9_6 H 0.5611 0.1590 0.3663
C14_7 C 0.47654(14) 0.2015(3) 0.34902(17)
H10_7 H 0.4689 0.1785 0.3046
C15_7 C 0.46509(12) 0.2702(2) 0.44786(15)
H11_7 H 0.4486 0.3027 0.4857
C16_7 C 0.56074(11) 0.2376(2) 0.50181(15)
C17_7 C 0.57318(11) 0.3272(2) 0.53575(15)
H12_7 H 0.5556 0.3873 0.5224
C18_7 C 0.61265(11) 0.32471(19) 0.59021(14)
C19_7 C 0.63955(12) 0.2347(2) 0.61028(15)
H13_7 H 0.6665 0.2339 0.6461
C20_7 C 0.58586(12) 0.1467(2) 0.52146(15)
H14_6 H 0.5765 0.0871 0.4988
S1_7 S 0.77751(4) 0.80026(7) 0.85066(4)
C21_7 C 0.62524(11) 0.14707(19) 0.57567(15)
N8_4 N 0.66193(10) 0.89431(18) 0.62127(13)
O5_4 O 0.70457(11) 0.72102(18) 0.55100(11)
C11_7 C 0.71268(14) 0.9447(3) 0.6360(2)
H7_7 H 0.7462 0.9149 0.6536
C12_7 C 0.62647(12) 0.9629(2) 0.59756(16)
H8_7 H 0.5885 0.9501 0.5833
C14_8 C 0.02346(14) 0.2985(3) 0.84902(17)
H10_8 H 0.0311 0.3215 0.8046
C15_8 C 0.03491(12) 0.2298(2) 0.94786(15)
H11_8 H 0.0514 0.1973 0.9857
N2_8 N 0.87314(10) 0.08513(16) 0.12640(12)
N5_4 N 0.83807(10) 0.60569(18) 0.12127(13)
N6_8 N 0.84816(10) 0.44502(17) 0.09634(14)
C8_8 C 0.85931(13) 0.0779(2) 0.19531(15)
H4_8 H 0.8576 0.1303 0.2272
C10_8 C 0.79300(14) 0.4568(3) 0.1214(2)
H6_8 H 0.7650 0.4068 0.1272
C11_8 C 0.78732(14) 0.5553(3) 0.1360(2)
H7_8 H 0.7538 0.5851 0.1536
C12_8 C 0.87353(12) 0.5371(2) 0.09756(16)
H8_8 H 0.9115 0.5499 0.0833
C16_8 C 0.93926(11) 0.2624(2) 0.00181(15)
C17_8 C 0.92682(11) 0.1728(2) 0.03575(15)
H12_8 H 0.9444 0.1127 0.0224
C18_8 C 0.88735(11) 0.17529(19) 0.09021(14)
C19_8 C 0.86045(12) 0.2653(2) 0.11028(15)
H13_8 H 0.8335 0.2661 0.1461
C20_8 C 0.91414(12) 0.3533(2) 0.02146(15)
C21_8 C 0.87476(11) 0.35293(19) 0.07567(15)
N1_8 N 0.85500(10) 0.92491(17) 0.14730(12)
O1_8 O 0.86228(10) 0.74935(17) 0.24372(12)
O2_8 O 0.77151(10) 0.75775(16) 0.20768(10)
O4_8 O 0.64270(12) 0.6646(3) 0.47255(15)
C1_8 C 0.80840(14) 0.7516(2) 0.25526(14)
C2_8 C 0.78853(13) 0.7492(2) 0.32857(15)
C3_8 C 0.81750(16) 0.7864(3) 0.38418(17)
H1_8 H 0.8542 0.8161 0.3818
C4_8 C 0.78552(17) 0.7748(3) 0.44596(17)
H2_8 H 0.7985 0.7973 0.4888
C5_8 C 0.73366(14) 0.7270(3) 0.43609(15)
C6_8 C 0.69002(15) 0.7027(3) 0.49026(16)
C7_8 C 0.84865(13) 0.9795(2) 0.20738(16)
H3_8 H 0.8385 0.9524 0.2500
C9_8 C 0.86990(12) 0.99075(19) 0.10000(15)
H5_8 H 0.8773 0.9747 0.0541
S1_8 S 0.72249(4) 0.69974(7) 0.35066(4)
N4_7 N 0.02045(10) 0.73678(18) 0.05447(13)
C13_7 C 0.02776(15) 0.6909(3) 0.11743(18)
H9_7 H 0.0611 0.6590 0.1337
H14_7 H 0.0765 0.5871 0.0012
N4_8 N 0.97955(10) 0.26322(18) 0.94553(13)
C13_8 C 0.97224(15) 0.3091(3) 0.88257(18)
H9_8 H 0.9389 0.3410 0.8663
H14_8 H 0.9235 0.4129 0.9988
loop_
_geom_bond_atom_site_label_1
_geom_bond_atom_site_label_2
_geom_bond_site_symmetry_1
_geom_bond_site_symmetry_2
N5 C11 1_555 1_555
H7 C11 1_555 1_555
C12 N5 1_555 1_555
H8 C12 1_555 1_555
Co2 N5 1_555 1_555
Co2 N1 1_555 1_555
N1 C7 1_555 1_555
N2 C8 1_555 1_555
N6 C10 1_555 1_555
O1 Co2 1_555 1_555
O2 Co2 1_555 1_555
O3 C6 1_555 1_555
O4 C6 1_555 1_555
C1 O1 1_555 1_555
C2 C1 1_555 1_555
C3 C2 1_555 1_555
H1 C3 1_555 1_555
C4 C3 1_555 1_555
H2 C4 1_555 1_555
C5 C4 1_555 1_555
C6 C5 1_555 1_555
C7 H3 1_555 1_555
C8 C7 1_555 1_555
H4 C8 1_555 1_555
C9 N1 1_555 1_555
H5 C9 1_555 1_555
C10 H6 1_555 1_555
C17 C16 1_555 1_555
H12 C17 1_555 1_555
C18 N2 1_555 1_555
C19 C18 1_555 1_555
H13 C19 1_555 1_555
C20 C16 1_555 1_555
S1 C2 1_555 1_555
C21 N6 1_555 1_555
Co3 O3 1_555 1_555
N7 Co2 1_555 1_555
O5 Co2 1_555 1_555
N2 C9 1_555 1_555
O2 C1 1_555 1_555
C5 S1 1_555 1_555
C17 C18 1_555 1_555
C19 C21 1_555 1_555
C20 C21 1_555 1_555
Co3 N1_2 1_555 1_555
N1_2 C7_2 1_555 1_555
O1_2 Co3 1_555 1_555
O2_2 Co3 1_555 1_555
O4_2 C6_2 1_555 1_555
C1_2 O1_2 1_555 1_555
C2_2 C1_2 1_555 1_555
C3_2 C2_2 1_555 1_555
H1_2 C3_2 1_555 1_555
C4_2 C3_2 1_555 1_555
H2_2 C4_2 1_555 1_555
C5_2 C4_2 1_555 1_555
C6_2 C5_2 1_555 1_555
C7_2 H3_2 1_555 1_555
C9_2 N1_2 1_555 1_555
H5_2 C9_2 1_555 1_555
S1_2 C2_2 1_555 1_555
N7_2 Co3 1_555 1_555
N8 Co3 1_555 1_555
O2_2 C1_2 1_555 1_555
C5_2 S1_2 1_555 1_555
N2_2 C8_2 1_555 1_555
N4 C13 1_555 1_555
N8 C11_2 1_555 1_555
N6_2 C10_2 1_555 1_555
H4_2 C8_2 1_555 1_555
C10_2 H6_2 1_555 1_555
C11_2 C10_2 1_555 1_555
H7_2 C11_2 1_555 1_555
C12_2 N8 1_555 1_555
H8_2 C12_2 1_555 1_555
C13 H9 1_555 1_555
C16_2 N4 1_555 1_555
C17_2 C16_2 1_555 1_555
H12_2 C17_2 1_555 1_555
C18_2 N2_2 1_555 1_555
C19_2 C18_2 1_555 1_555
H13_2 C19_2 1_555 1_555
C20_2 C16_2 1_555 1_555
H14 C20_2 1_555 1_555
C21_2 N6_2 1_555 1_555
N6_2 C12_2 1_555 1_555
C17_2 C18_2 1_555 1_555
C19_2 C21_2 1_555 1_555
C20_2 C21_2 1_555 1_555
N7 C14 1_555 1_555
N4_2 C13_2 1_555 1_555
C13_2 H9_2 1_555 1_555
C14 C13_2 1_555 1_555
H10 C14 1_555 1_555
C15 N7 1_555 1_555
H11 C15 1_555 1_555
N4_2 C15 1_555 1_555
N7_2 C14_2 1_555 1_555
H10_2 C14_2 1_555 1_555
C15_2 N7_2 1_555 1_555
H11_2 C15_2 1_555 1_555
N3 C14_3 1_555 1_555
N4_3 C13_3 1_555 1_555
C13_3 H9_3 1_555 1_555
C14_3 C13_3 1_555 1_555
H10_3 C14_3 1_555 1_555
C15_3 N3 1_555 1_555
H11_3 C15_3 1_555 1_555
Co4 N3 1_555 1_555
N4_3 C15_3 1_555 1_555
N3_2 C14_4 1_555 1_555
H10_4 C14_4 1_555 1_555
C15_4 N3_2 1_555 1_555
H11_4 C15_4 1_555 1_555
Co4_2 N3_2 1_555 1_555
Co4 N1_3 1_555 1_555
N1_3 C7_3 1_555 1_555
N2_3 C8_3 1_555 1_555
N6_3 C10_3 1_555 1_555
O1_3 Co4 1_555 1_555
O2_3 Co4 1_555 1_555
O3_2 C6_3 1_555 1_555
O4_3 C6_3 1_555 1_555
C1_3 O1_3 1_555 1_555
C2_3 C1_3 1_555 1_555
C3_3 C2_3 1_555 1_555
H1_3 C3_3 1_555 1_555
C4_3 C3_3 1_555 1_555
H2_3 C4_3 1_555 1_555
C5_3 C4_3 1_555 1_555
C6_3 C5_3 1_555 1_555
C7_3 H3_3 1_555 1_555
C8_3 C7_3 1_555 1_555
H4_3 C8_3 1_555 1_555
C9_3 N1_3 1_555 1_555
H5_3 C9_3 1_555 1_555
C10_3 H6_3 1_555 1_555
C17_3 C16_3 1_555 1_555
H12_3 C17_3 1_555 1_555
C18_3 N2_3 1_555 1_555
C19_3 C18_3 1_555 1_555
H13_3 C19_3 1_555 1_555
C20_3 C16_3 1_555 1_555
S1_3 C2_3 1_555 1_555
C21_3 N6_3 1_555 1_555
Co4_2 O3_2 1_555 1_555
N8_2 Co4 1_555 1_555
O5_2 Co4 1_555 1_555
N2_3 C9_3 1_555 1_555
O2_3 C1_3 1_555 1_555
C5_3 S1_3 1_555 1_555
C17_3 C18_3 1_555 1_555
C19_3 C21_3 1_555 1_555
C20_3 C21_3 1_555 1_555
N8_2 C11_3 1_555 1_555
H7_3 C11_3 1_555 1_555
C12_3 N8_2 1_555 1_555
H8_3 C12_3 1_555 1_555
N2_4 C8_4 1_555 1_555
N4_4 C13_4 1_555 1_555
N5_2 C11_4 1_555 1_555
N6_4 C10_4 1_555 1_555
H4_4 C8_4 1_555 1_555
C10_4 H6_4 1_555 1_555
C11_4 C10_4 1_555 1_555
H7_4 C11_4 1_555 1_555
C12_4 N5_2 1_555 1_555
H8_4 C12_4 1_555 1_555
C13_4 H9_4 1_555 1_555
C16_4 N4_4 1_555 1_555
C17_4 C16_4 1_555 1_555
H12_4 C17_4 1_555 1_555
C18_4 N2_4 1_555 1_555
C19_4 C18_4 1_555 1_555
H13_4 C19_4 1_555 1_555
C20_4 C16_4 1_555 1_555
H14_4 C20_4 1_555 1_555
C21_4 N6_4 1_555 1_555
Co4_2 N5_2 1_555 1_555
N6_4 C12_4 1_555 1_555
C17_4 C18_4 1_555 1_555
C19_4 C21_4 1_555 1_555
C20_4 C21_4 1_555 1_555
Co4_2 N1_4 1_555 1_555
N1_4 C7_4 1_555 1_555
O1_4 Co4_2 1_555 1_555
O2_4 Co4_2 1_555 1_555
O4_4 C6_4 1_555 1_555
C1_4 O1_4 1_555 1_555
C2_4 C1_4 1_555 1_555
C3_4 C2_4 1_555 1_555
H1_4 C3_4 1_555 1_555
C4_4 C3_4 1_555 1_555
H2_4 C4_4 1_555 1_555
C5_4 C4_4 1_555 1_555
C6_4 C5_4 1_555 1_555
C7_4 H3_4 1_555 1_555
C9_4 N1_4 1_555 1_555
H5_4 C9_4 1_555 1_555
S1_4 C2_4 1_555 1_555
O2_4 C1_4 1_555 1_555
C5_4 S1_4 1_555 1_555
N5_3 C11_5 1_555 1_555
H7_5 C11_5 1_555 1_555
C12_5 N5_3 1_555 1_555
H8_5 C12_5 1_555 1_555
Co2_2 N5_3 1_555 1_555
Co2_2 N1_5 1_555 1_555
N1_5 C7_5 1_555 1_555
N2_5 C8_5 1_555 1_555
N3_3 C14_5 1_555 1_555
N4_5 C13_5 1_555 1_555
N6_5 C10_5 1_555 1_555
O1_5 Co2_2 1_555 1_555
O2_5 Co2_2 1_555 1_555
O4_5 C6_5 1_555 1_555
C1_5 O1_5 1_555 1_555
C2_5 C1_5 1_555 1_555
C3_5 C2_5 1_555 1_555
H1_5 C3_5 1_555 1_555
C4_5 C3_5 1_555 1_555
H2_5 C4_5 1_555 1_555
C5_5 C4_5 1_555 1_555
C6_5 C5_5 1_555 1_555
C7_5 H3_5 1_555 1_555
C8_5 C7_5 1_555 1_555
H4_5 C8_5 1_555 1_555
C9_5 N1_5 1_555 1_555
H5_5 C9_5 1_555 1_555
C10_5 H6_5 1_555 1_555
C13_5 H9_5 1_555 1_555
C14_5 C13_5 1_555 1_555
H10_5 C14_5 1_555 1_555
C15_5 N3_3 1_555 1_555
H11_5 C15_5 1_555 1_555
C16_5 N4_5 1_555 1_555
C17_5 C16_5 1_555 1_555
H12_5 C17_5 1_555 1_555
C18_5 N2_5 1_555 1_555
C19_5 C18_5 1_555 1_555
H13_5 C19_5 1_555 1_555
C20_5 C16_5 1_555 1_555
H14_5 C20_5 1_555 1_555
S1_5 C2_5 1_555 1_555
C21_5 N6_5 1_555 1_555
Co4_3 N3_3 1_555 1_555
N7_3 Co2_2 1_555 1_555
O5_3 Co2_2 1_555 1_555
N2_5 C9_5 1_555 1_555
N4_5 C15_5 1_555 1_555
O2_5 C1_5 1_555 1_555
C5_5 S1_5 1_555 1_555
C17_5 C18_5 1_555 1_555
C19_5 C21_5 1_555 1_555
C20_5 C21_5 1_555 1_555
Co3_2 O3_3 1_555 1_555
Co3_2 N1_6 1_555 1_555
N1_6 C7_6 1_555 1_555
O1_6 Co3_2 1_555 1_555
O2_6 Co3_2 1_555 1_555
O5_3 C6_6 1_555 1_555
O4_6 C6_6 1_555 1_555
C1_6 O1_6 1_555 1_555
C2_6 C1_6 1_555 1_555
C3_6 C2_6 1_555 1_555
H1_6 C3_6 1_555 1_555
C4_6 C3_6 1_555 1_555
H2_6 C4_6 1_555 1_555
C5_6 C4_6 1_555 1_555
C6_6 C5_6 1_555 1_555
C7_6 H3_6 1_555 1_555
C9_6 N1_6 1_555 1_555
H5_6 C9_6 1_555 1_555
S1_6 C2_6 1_555 1_555
N7_4 Co3_2 1_555 1_555
N8_3 Co3_2 1_555 1_555
O2_6 C1_6 1_555 1_555
C5_6 S1_6 1_555 1_555
N2_6 C8_6 1_555 1_555
N8_3 C11_6 1_555 1_555
N6_6 C10_6 1_555 1_555
H4_6 C8_6 1_555 1_555
C10_6 H6_6 1_555 1_555
C11_6 C10_6 1_555 1_555
H7_6 C11_6 1_555 1_555
C12_6 N8_3 1_555 1_555
H8_6 C12_6 1_555 1_555
C17_6 C16_6 1_555 1_555
H12_6 C17_6 1_555 1_555
C18_6 N2_6 1_555 1_555
C19_6 C18_6 1_555 1_555
H13_6 C19_6 1_555 1_555
C20_6 C16_6 1_555 1_555
C21_6 N6_6 1_555 1_555
N6_6 C12_6 1_555 1_555
C17_6 C18_6 1_555 1_555
C19_6 C21_6 1_555 1_555
C20_6 C21_6 1_555 1_555
N3_4 C14_6 1_555 1_555
H10_6 C14_6 1_555 1_555
C15_6 N3_4 1_555 1_555
H11_6 C15_6 1_555 1_555
Co4_4 N3_4 1_555 1_555
Co4_4 O3_4 1_555 1_555
Co4_3 N1_7 1_555 1_555
N1_7 C7_7 1_555 1_555
N2_7 C8_7 1_555 1_555
N7_3 C14_7 1_555 1_555
N4_6 C13_6 1_555 1_555
N6_7 C10_7 1_555 1_555
O1_7 Co4_3 1_555 1_555
O2_7 Co4_3 1_555 1_555
O4_7 C6_7 1_555 1_555
C1_7 O1_7 1_555 1_555
C2_7 C1_7 1_555 1_555
C3_7 C2_7 1_555 1_555
H1_7 C3_7 1_555 1_555
C4_7 C3_7 1_555 1_555
H2_7 C4_7 1_555 1_555
C5_7 C4_7 1_555 1_555
C6_7 C5_7 1_555 1_555
C7_7 H3_7 1_555 1_555
C8_7 C7_7 1_555 1_555
H4_7 C8_7 1_555 1_555
C9_7 N1_7 1_555 1_555
H5_7 C9_7 1_555 1_555
C10_7 H6_7 1_555 1_555
C13_6 H9_6 1_555 1_555
C14_7 C13_6 1_555 1_555
H10_7 C14_7 1_555 1_555
C15_7 N7_3 1_555 1_555
H11_7 C15_7 1_555 1_555
C16_7 N4_6 1_555 1_555
C17_7 C16_7 1_555 1_555
H12_7 C17_7 1_555 1_555
C18_7 N2_7 1_555 1_555
C19_7 C18_7 1_555 1_555
H13_7 C19_7 1_555 1_555
C20_7 C16_7 1_555 1_555
H14_6 C20_7 1_555 1_555
S1_7 C2_7 1_555 1_555
C21_7 N6_7 1_555 1_555
N8_4 Co4_3 1_555 1_555
O5_4 Co4_3 1_555 1_555
N2_7 C9_7 1_555 1_555
N4_6 C15_7 1_555 1_555
O2_7 C1_7 1_555 1_555
C5_7 S1_7 1_555 1_555
C17_7 C18_7 1_555 1_555
C19_7 C21_7 1_555 1_555
C20_7 C21_7 1_555 1_555
N8_4 C11_7 1_555 1_555
H7_7 C11_7 1_555 1_555
C12_7 N8_4 1_555 1_555
H8_7 C12_7 1_555 1_555
N7_4 C14_8 1_555 1_555
H10_8 C14_8 1_555 1_555
C15_8 N7_4 1_555 1_555
H11_8 C15_8 1_555 1_555
N2_8 C8_8 1_555 1_555
N5_4 C11_8 1_555 1_555
N6_8 C10_8 1_555 1_555
H4_8 C8_8 1_555 1_555
C10_8 H6_8 1_555 1_555
C11_8 C10_8 1_555 1_555
H7_8 C11_8 1_555 1_555
C12_8 N5_4 1_555 1_555
H8_8 C12_8 1_555 1_555
C17_8 C16_8 1_555 1_555
H12_8 C17_8 1_555 1_555
C18_8 N2_8 1_555 1_555
C19_8 C18_8 1_555 1_555
H13_8 C19_8 1_555 1_555
C20_8 C16_8 1_555 1_555
C21_8 N6_8 1_555 1_555
Co4_4 N5_4 1_555 1_555
N6_8 C12_8 1_555 1_555
C17_8 C18_8 1_555 1_555
C19_8 C21_8 1_555 1_555
C20_8 C21_8 1_555 1_555
Co4_4 N1_8 1_555 1_555
N1_8 C7_8 1_555 1_555
O1_8 Co4_4 1_555 1_555
O2_8 Co4_4 1_555 1_555
O5_4 C6_8 1_555 1_555
O4_8 C6_8 1_555 1_555
C1_8 O1_8 1_555 1_555
C2_8 C1_8 1_555 1_555
C3_8 C2_8 1_555 1_555
H1_8 C3_8 1_555 1_555
C4_8 C3_8 1_555 1_555
H2_8 C4_8 1_555 1_555
C5_8 C4_8 1_555 1_555
C6_8 C5_8 1_555 1_555
C7_8 H3_8 1_555 1_555
C9_8 N1_8 1_555 1_555
H5_8 C9_8 1_555 1_555
S1_8 C2_8 1_555 1_555
O2_8 C1_8 1_555 1_555
C5_8 S1_8 1_555 1_555
N4_7 C13_7 1_555 1_555
C13_7 H9_7 1_555 1_555
N4_8 C13_8 1_555 1_555
C13_8 H9_8 1_555 1_555

#END
