
###############################################################################
#
# This file contains modified crystal structure data generated from the
# MOF subset of the Cambridge Structural Database (CSD) v543 
# hosted by the Cambridge Crystallographic Data Centre (CCDC).
#
# This work is licensed under the Creative Commons
# Attribution-NonCommercial-ShareAlike 4.0 International License.
# To view a copy of this license, visit
# http://creativecommons.org/licenses/by-nc-sa/4.0/
# or send a letter to
# Creative Commons, PO Box 1866, Mountain View, CA 94042, USA.
#
# CIF created using the CSD Python API on 29 September 2022
# The structure has been converted into the P1 space group
# The structure has a 3D framework
# The original CSD entry NIJVAF is in the monoclinic crystal system
# The framework has been calculated to contain at least 10.0% void space
# The void calculation uses a probe of radius 1.32A, grid spacing 0.4
#
###############################################################################

data_NIJVAF
_chemical_formula_moiety         '(C132 H92 Cd4 N22 O16 S4)n'
_symmetry_cell_setting           triclinic
_symmetry_space_group_name_H-M   'P 1'
_symmetry_Int_Tables_number      1
_space_group_name_Hall           'P 1'
loop_
_symmetry_equiv_pos_site_id
_symmetry_equiv_pos_as_xyz
1 x,y,z
_cell_length_a                   10.6974(13)
_cell_length_b                   37.268(5)
_cell_length_c                   9.4058(12)
_cell_angle_alpha                90
_cell_angle_beta                 101.263(2)
_cell_angle_gamma                90
_cell_volume                     3677.6
loop_
_atom_site_label
_atom_site_type_symbol
_atom_site_fract_x
_atom_site_fract_y
_atom_site_fract_z
Cd5 Cd 0.14816(3) 0.367041(8) 0.74166(3)
C34 C 0.2540(6) 0.44608(15) 0.8911(7)
H24 H 0.3099 0.4494 0.8280
C36 C 0.1108(5) 0.42334(13) 0.9934(6)
N7 N 0.1706(4) 0.41789(11) 0.8861(5)
C43 C 0.3873(4) 0.37922(14) 0.6790(6)
C44 C 0.5162(4) 0.38682(12) 0.6487(5)
C45 C 0.5488(4) 0.40462(14) 0.5357(6)
H31 H 0.4899 0.4155 0.4627
C46 C 0.6807(4) 0.40488(14) 0.5401(6)
H32 H 0.7182 0.4160 0.4704
C47 C 0.7478(4) 0.38725(12) 0.6565(5)
C48 C 0.8879(4) 0.38013(12) 0.6948(6)
C49 C 0.1717(5) 0.28785(14) 0.5906(6)
H33 H 0.2442 0.2826 0.6596
C50 C 0.1144(5) 0.26508(14) 0.4854(6)
H34 H 0.1399 0.2418 0.4692
C51 C 0.0120(4) 0.31595(12) 0.4695(5)
N9 N 0.1072(4) 0.31960(10) 0.5804(4)
N10 N 0.0116(3) 0.28309(10) 0.4076(4)
O5 O 0.2930(3) 0.39444(11) 0.6035(5)
O6 O 0.3791(4) 0.35734(13) 0.7756(5)
O7 O 0.9278(3) 0.36249(11) 0.8061(4)
O8 O 0.9549(3) 0.39101(9) 0.6083(4)
S2 S 0.64782(11) 0.37028(3) 0.76289(13)
N13 N 0.1897(4) 0.33103(11) 0.9529(4)
H35 H 0.9522 0.3337 0.4375
C52 C 0.9214(4) 0.26972(12) 0.2874(5)
C53 C 0.9022(4) 0.23306(12) 0.2693(5)
H36 H 0.9512 0.2170 0.3327
C54 C 0.8100(5) 0.22052(12) 0.1564(5)
H37 H 0.7991 0.1959 0.1430
C55 C 0.7330(4) 0.24394(13) 0.0623(5)
C56 C 0.7569(5) 0.28039(13) 0.0792(5)
H38 H 0.7088 0.2965 0.0153
C57 C 0.8504(5) 0.29319(13) 0.1888(5)
H39 H 0.8662 0.3177 0.1970
H44 H 0.5937 0.1853 0.0629
H10 H 0.3661 0.3126 0.9628
C16 C 0.6994(4) 0.81716(13) 0.4876(5)
H10_2 H 0.6339 0.8126 0.5372
C17 C 0.8784(5) 0.83304(14) 0.4374(6)
H11 H 0.9614 0.8415 0.4479
C18 C 0.8075(5) 0.82093(16) 0.3130(6)
H12 H 0.8314 0.8199 0.2232
C19 C 0.5856(4) 0.79616(13) 0.2442(5)
C20 C 0.5415(5) 0.81486(14) 0.1182(6)
H13 H 0.5814 0.8359 0.0983
C21 C 0.4372(6) 0.80183(15) 0.0215(6)
C22 C 0.3769(4) 0.76995(13) 0.0469(5)
C23 C 0.4275(5) 0.75116(15) 0.1726(5)
H15 H 0.3923 0.7292 0.1907
C24 C 0.5298(5) 0.76479(15) 0.2714(5)
H16 H 0.5606 0.7524 0.3569
N3 N 0.8103(4) 0.83103(11) 0.5471(4)
N4 N 0.6927(4) 0.81033(11) 0.3443(4)
Cd6 Cd 0.85184(3) 0.867041(8) 0.75834(3)
O10 O 0.0722(3) 0.86249(11) 0.6939(4)
O12 O 0.0451(3) 0.89101(9) 0.8917(4)
C34_2 C 0.7460(6) 0.94608(15) 0.6089(7)
H24_2 H 0.6901 0.9494 0.6720
C35 C 0.7574(6) 0.96821(16) 0.4984(7)
H25 H 0.7126 0.9894 0.4730
C36_2 C 0.8892(5) 0.92334(13) 0.5066(6)
H26 H 0.9525 0.9084 0.4849
C37 C 0.8908(5) 0.96688(13) 0.3068(6)
C38 C 0.9070(9) 0.94436(16) 0.1991(8)
H27 H 0.8893 0.9201 0.2058
C39 C 0.9497(9) 0.95709(16) 0.0795(8)
H28 H 0.9603 0.9411 0.0068
C40 C 0.9774(6) 0.99316(13) 0.0645(6)
N7_2 N 0.8294(4) 0.91789(11) 0.6139(5)
N8 N 0.8473(4) 0.95351(11) 0.4310(5)
C43_2 C 0.6127(4) 0.87922(14) 0.8210(6)
C44_2 C 0.4838(4) 0.88682(12) 0.8513(5)
C45_2 C 0.4512(4) 0.90462(14) 0.9643(6)
C46_2 C 0.3193(4) 0.90488(14) 0.9599(6)
C47_2 C 0.2522(4) 0.88725(12) 0.8435(5)
C48_2 C 0.1121(4) 0.88013(12) 0.8052(6)
C49_2 C 0.8283(5) 0.78785(14) 0.9094(6)
H33_2 H 0.7558 0.7826 0.8404
N9_2 N 0.8928(4) 0.81960(10) 0.9196(4)
O5_2 O 0.7070(3) 0.89444(11) 0.8965(5)
O6_2 O 0.6209(4) 0.85734(13) 0.7244(5)
S2_2 S 0.35218(11) 0.87028(3) 0.73711(13)
H5 H 0.0478 0.6663 0.5625
C10 C 0.0786(4) 0.73028(12) 0.7126(5)
C11 C 0.0978(4) 0.76694(12) 0.7307(5)
H6 H 0.0488 0.7830 0.6673
C12 C 0.1900(5) 0.77948(12) 0.8436(5)
H7 H 0.2009 0.8041 0.8570
C13 C 0.2670(4) 0.75606(13) 0.9377(5)
C14 C 0.2431(5) 0.71961(13) 0.9208(5)
H8 H 0.2912 0.7035 0.9847
C15 C 0.1496(5) 0.70681(13) 0.8112(5)
H9 H 0.1338 0.6823 0.8030
H14 H 0.4063 0.8147 0.9371
O9 O 0.0722(3) 0.63751(11) 0.1939(4)
O11 O 0.0451(3) 0.60899(9) 0.3917(4)
Cd1 Cd 0.85184(3) 0.632959(8) 0.25834(3)
C1 C 0.6127(4) 0.62078(14) 0.3210(6)
C2 C 0.4838(4) 0.61318(12) 0.3513(5)
C3 C 0.4512(4) 0.59538(14) 0.4643(6)
H1 H 0.5101 0.5845 0.5373
C4 C 0.3193(4) 0.59512(14) 0.4599(6)
H2 H 0.2818 0.5840 0.5296
C5 C 0.2522(4) 0.61275(12) 0.3435(5)
C6 C 0.1121(4) 0.61987(12) 0.3052(6)
C7 C 0.8283(5) 0.71215(14) 0.4094(6)
H3 H 0.7558 0.7174 0.3404
C8 C 0.8856(5) 0.73492(14) 0.5146(6)
H4 H 0.8601 0.7582 0.5308
C9 C 0.9880(4) 0.68405(12) 0.5305(5)
C25 C 0.7460(6) 0.55392(15) 0.1089(7)
H17 H 0.6901 0.5506 0.1720
C27 C 0.8892(5) 0.57666(13) 0.0066(6)
N1 N 0.8928(4) 0.68040(10) 0.4196(4)
N2 N 0.9884(3) 0.71691(10) 0.5924(4)
N5 N 0.8294(4) 0.58211(11) 0.1139(5)
O1 O 0.7070(3) 0.60556(11) 0.3965(5)
O2 O 0.6209(4) 0.64266(13) 0.2244(5)
S1 S 0.35218(11) 0.62972(3) 0.23711(13)
N14 N 0.8103(4) 0.66897(11) 0.0471(4)
H40 H 0.6339 0.6874 0.0372
C35_2 C 0.2426(6) 0.46821(16) 0.0016(7)
H25_2 H 0.2874 0.4894 0.0270
H26_2 H 0.0475 0.4084 0.0151
C37_2 C 0.1092(5) 0.46688(13) 0.1932(6)
C38_2 C 0.0930(9) 0.44436(16) 0.3009(8)
H27_2 H 0.1107 0.4201 0.2942
C39_2 C 0.0503(9) 0.45709(16) 0.4205(8)
H28_2 H 0.0397 0.4411 0.4932
C40_2 C 0.0226(6) 0.49316(13) 0.4355(6)
C41 C 0.0430(6) 0.51567(14) 0.3254(6)
H29 H 0.0282 0.5401 0.3327
C42 C 0.0849(6) 0.50286(14) 0.2041(6)
H30 H 0.0963 0.5185 0.1307
N8_2 N 0.1527(4) 0.45351(11) 0.0690(5)
C26 C 0.7574(6) 0.53179(16) 0.9984(7)
H18 H 0.7126 0.5106 0.9730
H19 H 0.9525 0.5916 0.9849
C28 C 0.8908(5) 0.53312(13) 0.8068(6)
C29 C 0.9070(9) 0.55564(16) 0.6991(8)
H20 H 0.8893 0.5799 0.7058
C30 C 0.9497(9) 0.54291(16) 0.5795(8)
H21 H 0.9603 0.5589 0.5068
C31 C 0.9774(6) 0.50684(13) 0.5645(6)
C32 C 0.9570(6) 0.48433(14) 0.6746(6)
H22 H 0.9718 0.4599 0.6673
C33 C 0.9151(6) 0.49714(14) 0.7959(6)
H23 H 0.9037 0.4815 0.8693
N6 N 0.8473(4) 0.54649(11) 0.9310(5)
C58 C 0.3006(4) 0.18284(13) 0.5124(5)
H40_2 H 0.3661 0.1874 0.4628
C59 C 0.1216(5) 0.16696(14) 0.5626(6)
H41 H 0.0386 0.1585 0.5521
C60 C 0.1925(5) 0.17907(16) 0.6870(6)
H42 H 0.1686 0.1801 0.7768
C61 C 0.4144(4) 0.20384(13) 0.7558(5)
C62 C 0.4585(5) 0.18514(14) 0.8818(6)
H43 H 0.4186 0.1641 0.9017
C63 C 0.5628(6) 0.19817(15) 0.9785(6)
C64 C 0.6231(4) 0.23005(13) 0.9531(5)
C65 C 0.5725(5) 0.24884(15) 0.8274(5)
H45 H 0.6077 0.2708 0.8093
C66 C 0.4702(5) 0.23521(15) 0.7286(5)
H46 H 0.4394 0.2476 0.6431
N11 N 0.1897(4) 0.16897(11) 0.4529(4)
N12 N 0.3073(4) 0.18967(11) 0.6557(4)
Cd4 Cd 0.14816(3) 0.132959(8) 0.24166(3)
C1_2 C 0.3873(4) 0.12078(14) 0.1790(6)
C2_2 C 0.5162(4) 0.11318(12) 0.1487(5)
C3_2 C 0.5488(4) 0.09538(14) 0.0357(6)
C4_2 C 0.6807(4) 0.09512(14) 0.0401(6)
C5_2 C 0.7478(4) 0.11275(12) 0.1565(5)
C6_2 C 0.8879(4) 0.11987(12) 0.1948(6)
C7_2 C 0.1717(5) 0.21215(14) 0.0906(6)
H3_2 H 0.2442 0.2174 0.1596
C25_2 C 0.2540(6) 0.05392(15) 0.3911(7)
H17_2 H 0.3099 0.0506 0.3280
C26_2 C 0.2426(6) 0.03179(16) 0.5016(7)
H18_2 H 0.2874 0.0106 0.5270
C27_2 C 0.1108(5) 0.07666(13) 0.4934(6)
H19_2 H 0.0475 0.0916 0.5151
C28_2 C 0.1092(5) 0.03312(13) 0.6932(6)
C29_2 C 0.0930(9) 0.05564(16) 0.8009(8)
H20_2 H 0.1107 0.0799 0.7942
C30_2 C 0.0503(9) 0.04291(16) 0.9205(8)
H21_2 H 0.0397 0.0589 0.9932
C31_2 C 0.0226(6) 0.00684(13) 0.9355(6)
N1_2 N 0.1072(4) 0.18040(10) 0.0804(4)
N5_2 N 0.1706(4) 0.08211(11) 0.3861(5)
N6_2 N 0.1527(4) 0.04649(11) 0.5690(5)
O1_2 O 0.2930(3) 0.10556(11) 0.1035(5)
O2_2 O 0.3791(4) 0.14266(13) 0.2756(5)
O3 O 0.9278(3) 0.13751(11) 0.3061(4)
O4 O 0.9549(3) 0.10899(9) 0.1083(4)
S1_2 S 0.64782(11) 0.12972(3) 0.26289(13)
H1_2 H 0.4899 0.0845 0.9627
H2_2 H 0.7182 0.0840 0.9704
C8_2 C 0.1144(5) 0.23492(14) 0.9854(6)
H4_2 H 0.1399 0.2582 0.9692
C9_2 C 0.0120(4) 0.18405(12) 0.9695(5)
N2_2 N 0.0116(3) 0.21691(10) 0.9076(4)
H35_2 H 0.0478 0.8337 0.0625
C52_2 C 0.0786(4) 0.76972(12) 0.2126(5)
C53_2 C 0.0978(4) 0.73306(12) 0.2307(5)
H36_2 H 0.0488 0.7170 0.1673
C54_2 C 0.1900(5) 0.72052(12) 0.3436(5)
H37_2 H 0.2009 0.6959 0.3570
C55_2 C 0.2670(4) 0.74394(13) 0.4377(5)
C56_2 C 0.2431(5) 0.78039(13) 0.4208(5)
H38_2 H 0.2912 0.7965 0.4847
C57_2 C 0.1496(5) 0.79319(13) 0.3112(5)
H39_2 H 0.1338 0.8177 0.3030
C58_2 C 0.6994(4) 0.68284(13) 0.9876(5)
C59_2 C 0.8784(5) 0.66696(14) 0.9374(6)
H41_2 H 0.9614 0.6585 0.9479
C60_2 C 0.8075(5) 0.67907(16) 0.8130(6)
H42_2 H 0.8314 0.6801 0.7232
C61_2 C 0.5856(4) 0.70384(13) 0.7442(5)
C62_2 C 0.5415(5) 0.68514(14) 0.6182(6)
H43_2 H 0.5814 0.6641 0.5983
C63_2 C 0.4372(6) 0.69817(15) 0.5215(6)
H44_2 H 0.4063 0.6853 0.4371
C64_2 C 0.3769(4) 0.73005(13) 0.5469(5)
C65_2 C 0.4275(5) 0.74884(15) 0.6726(5)
H45_2 H 0.3923 0.7708 0.6907
C66_2 C 0.5298(5) 0.73521(15) 0.7714(5)
H46_2 H 0.5606 0.7476 0.8569
N12_2 N 0.6927(4) 0.68967(11) 0.8443(4)
C32_2 C 0.0430(6) 0.98433(14) 0.8254(6)
H22_2 H 0.0282 0.9599 0.8327
C33_2 C 0.0849(6) 0.99714(14) 0.7041(6)
H23_2 H 0.0963 0.9815 0.6307
C41_2 C 0.9570(6) 0.01567(14) 0.1746(6)
H29_2 H 0.9718 0.0401 0.1673
C42_2 C 0.9151(6) 0.00286(14) 0.2959(6)
H30_2 H 0.9037 0.0185 0.3693
H5_2 H 0.9522 0.1663 0.9375
C10_2 C 0.9214(4) 0.23028(12) 0.7874(5)
C11_2 C 0.9022(4) 0.26694(12) 0.7693(5)
H6_2 H 0.9512 0.2830 0.8327
C12_2 C 0.8100(5) 0.27948(12) 0.6564(5)
H7_2 H 0.7991 0.3041 0.6430
C13_2 C 0.7330(4) 0.25606(13) 0.5623(5)
C14_2 C 0.7569(5) 0.21961(13) 0.5792(5)
H8_2 H 0.7088 0.2035 0.5153
C15_2 C 0.8504(5) 0.20681(13) 0.6888(5)
H9_2 H 0.8662 0.1823 0.6970
C16_2 C 0.3006(4) 0.31716(13) 0.0124(5)
C17_2 C 0.1216(5) 0.33304(14) 0.0626(6)
H11_2 H 0.0386 0.3415 0.0521
C18_2 C 0.1925(5) 0.32093(16) 0.1870(6)
H12_2 H 0.1686 0.3199 0.2768
C19_2 C 0.4144(4) 0.29616(13) 0.2558(5)
C20_2 C 0.4585(5) 0.31486(14) 0.3818(6)
H13_2 H 0.4186 0.3359 0.4017
C21_2 C 0.5628(6) 0.30183(15) 0.4785(6)
H14_2 H 0.5937 0.3147 0.5629
C22_2 C 0.6231(4) 0.26995(13) 0.4531(5)
C23_2 C 0.5725(5) 0.25116(15) 0.3274(5)
H15_2 H 0.6077 0.2292 0.3093
C24_2 C 0.4702(5) 0.26479(15) 0.2286(5)
H16_2 H 0.4394 0.2524 0.1431
N4_2 N 0.3073(4) 0.31033(11) 0.1557(4)
H31_2 H 0.5101 0.9155 0.0373
H32_2 H 0.2818 0.9160 0.0296
C50_2 C 0.8856(5) 0.76508(14) 0.0146(6)
H34_2 H 0.8601 0.7418 0.0308
C51_2 C 0.9880(4) 0.81595(12) 0.0305(5)
N10_2 N 0.9884(3) 0.78309(10) 0.0924(4)
loop_
_geom_bond_atom_site_label_1
_geom_bond_atom_site_label_2
_geom_bond_site_symmetry_1
_geom_bond_site_symmetry_2
C34 H24 1_555 1_555
N7 C34 1_555 1_555
Cd5 N7 1_555 1_555
C43 C44 1_555 1_555
C44 C45 1_555 1_555
C45 H31 1_555 1_555
C46 C45 1_555 1_555
H32 C46 1_555 1_555
C47 C46 1_555 1_555
C48 C47 1_555 1_555
C49 H33 1_555 1_555
C50 C49 1_555 1_555
H34 C50 1_555 1_555
N9 Cd5 1_555 1_555
N10 C50 1_555 1_555
O5 Cd5 1_555 1_555
O6 Cd5 1_555 1_555
O7 C48 1_555 1_555
O8 C48 1_555 1_555
S2 C44 1_555 1_555
N13 Cd5 1_555 1_555
C36 N7 1_555 1_555
C43 O5 1_555 1_555
C43 O6 1_555 1_555
C47 S2 1_555 1_555
C49 N9 1_555 1_555
C51 N9 1_555 1_555
C51 N10 1_555 1_555
C52 C53 1_555 1_555
C53 H36 1_555 1_555
C54 C53 1_555 1_555
H37 C54 1_555 1_555
C55 C54 1_555 1_555
C56 C55 1_555 1_555
H38 C56 1_555 1_555
C57 C52 1_555 1_555
H39 C57 1_555 1_555
C56 C57 1_555 1_555
C16 H10_2 1_555 1_555
C17 H11 1_555 1_555
C18 C17 1_555 1_555
H12 C18 1_555 1_555
C19 C20 1_555 1_555
C20 H13 1_555 1_555
C21 C20 1_555 1_555
C23 C22 1_555 1_555
H15 C23 1_555 1_555
C24 C19 1_555 1_555
H16 C24 1_555 1_555
N3 C16 1_555 1_555
N4 C16 1_555 1_555
Cd6 N3 1_555 1_555
C17 N3 1_555 1_555
C18 N4 1_555 1_555
C19 N4 1_555 1_555
C21 C22 1_555 1_555
C23 C24 1_555 1_555
C34_2 H24_2 1_555 1_555
C35 C34_2 1_555 1_555
H25 C35 1_555 1_555
C36_2 H26 1_555 1_555
C37 C38 1_555 1_555
C38 H27 1_555 1_555
C39 C38 1_555 1_555
H28 C39 1_555 1_555
N7_2 C34_2 1_555 1_555
N8 C35 1_555 1_555
Cd6 N7_2 1_555 1_555
C43_2 C44_2 1_555 1_555
C44_2 C45_2 1_555 1_555
C46_2 C45_2 1_555 1_555
C47_2 C46_2 1_555 1_555
C48_2 C47_2 1_555 1_555
C49_2 H33_2 1_555 1_555
N9_2 Cd6 1_555 1_555
O5_2 Cd6 1_555 1_555
O6_2 Cd6 1_555 1_555
O10 C48_2 1_555 1_555
O12 C48_2 1_555 1_555
S2_2 C44_2 1_555 1_555
C36_2 N7_2 1_555 1_555
C36_2 N8 1_555 1_555
C37 N8 1_555 1_555
C39 C40 1_555 1_555
C43_2 O5_2 1_555 1_555
C43_2 O6_2 1_555 1_555
C47_2 S2_2 1_555 1_555
C49_2 N9_2 1_555 1_555
C10 C11 1_555 1_555
C11 H6 1_555 1_555
C12 C11 1_555 1_555
H7 C12 1_555 1_555
C13 C12 1_555 1_555
C14 C13 1_555 1_555
H8 C14 1_555 1_555
C15 C10 1_555 1_555
H9 C15 1_555 1_555
C14 C15 1_555 1_555
Cd1 N1 1_555 1_555
C1 C2 1_555 1_555
C2 C3 1_555 1_555
C3 H1 1_555 1_555
C4 C3 1_555 1_555
H2 C4 1_555 1_555
C5 C4 1_555 1_555
C6 C5 1_555 1_555
C7 H3 1_555 1_555
C8 C7 1_555 1_555
H4 C8 1_555 1_555
C25 H17 1_555 1_555
N1 C7 1_555 1_555
N2 C8 1_555 1_555
N5 Cd1 1_555 1_555
O1 Cd1 1_555 1_555
O2 Cd1 1_555 1_555
O9 C6 1_555 1_555
O11 C6 1_555 1_555
S1 C2 1_555 1_555
N14 Cd1 1_555 1_555
C1 O1 1_555 1_555
C1 O2 1_555 1_555
C5 S1 1_555 1_555
C9 N1 1_555 1_555
C9 N2 1_555 1_555
C25 N5 1_555 1_555
C27 N5 1_555 1_555
H25_2 C35_2 1_555 1_555
C37_2 C38_2 1_555 1_555
C38_2 H27_2 1_555 1_555
C39_2 C38_2 1_555 1_555
H28_2 C39_2 1_555 1_555
C41 C40_2 1_555 1_555
H29 C41 1_555 1_555
C42 C37_2 1_555 1_555
H30 C42 1_555 1_555
N8_2 C35_2 1_555 1_555
C37_2 N8_2 1_555 1_555
C39_2 C40_2 1_555 1_555
C41 C42 1_555 1_555
H18 C26 1_555 1_555
C28 C29 1_555 1_555
C29 H20 1_555 1_555
C30 C29 1_555 1_555
H21 C30 1_555 1_555
C31 C30 1_555 1_555
C32 C31 1_555 1_555
H22 C32 1_555 1_555
C33 C28 1_555 1_555
H23 C33 1_555 1_555
N6 C26 1_555 1_555
C28 N6 1_555 1_555
C32 C33 1_555 1_555
C58 H40_2 1_555 1_555
C59 H41 1_555 1_555
C60 C59 1_555 1_555
H42 C60 1_555 1_555
C61 C62 1_555 1_555
C62 H43 1_555 1_555
C63 C62 1_555 1_555
C65 C64 1_555 1_555
H45 C65 1_555 1_555
C66 C61 1_555 1_555
H46 C66 1_555 1_555
N11 C58 1_555 1_555
N12 C58 1_555 1_555
Cd4 N11 1_555 1_555
C59 N11 1_555 1_555
C60 N12 1_555 1_555
C61 N12 1_555 1_555
C63 C64 1_555 1_555
C65 C66 1_555 1_555
Cd4 N1_2 1_555 1_555
C1_2 C2_2 1_555 1_555
C2_2 C3_2 1_555 1_555
C4_2 C3_2 1_555 1_555
C5_2 C4_2 1_555 1_555
C6_2 C5_2 1_555 1_555
C7_2 H3_2 1_555 1_555
C25_2 H17_2 1_555 1_555
C26_2 C25_2 1_555 1_555
H18_2 C26_2 1_555 1_555
C27_2 H19_2 1_555 1_555
C28_2 C29_2 1_555 1_555
C29_2 H20_2 1_555 1_555
C30_2 C29_2 1_555 1_555
H21_2 C30_2 1_555 1_555
C31_2 C30_2 1_555 1_555
N1_2 C7_2 1_555 1_555
N5_2 Cd4 1_555 1_555
N6_2 C26_2 1_555 1_555
O1_2 Cd4 1_555 1_555
O2_2 Cd4 1_555 1_555
O3 C6_2 1_555 1_555
O4 C6_2 1_555 1_555
S1_2 C2_2 1_555 1_555
C1_2 O1_2 1_555 1_555
C1_2 O2_2 1_555 1_555
C5_2 S1_2 1_555 1_555
C25_2 N5_2 1_555 1_555
C27_2 N5_2 1_555 1_555
C27_2 N6_2 1_555 1_555
C28_2 N6_2 1_555 1_555
H4_2 C8_2 1_555 1_555
N2_2 C8_2 1_555 1_555
C9_2 N2_2 1_555 1_555
C52_2 C53_2 1_555 1_555
C53_2 H36_2 1_555 1_555
C54_2 C53_2 1_555 1_555
H37_2 C54_2 1_555 1_555
C55_2 C54_2 1_555 1_555
C56_2 C55_2 1_555 1_555
H38_2 C56_2 1_555 1_555
C57_2 C52_2 1_555 1_555
H39_2 C57_2 1_555 1_555
C59_2 H41_2 1_555 1_555
C60_2 C59_2 1_555 1_555
H42_2 C60_2 1_555 1_555
C61_2 C62_2 1_555 1_555
C62_2 H43_2 1_555 1_555
C63_2 C62_2 1_555 1_555
H44_2 C63_2 1_555 1_555
C64_2 C55_2 1_555 1_555
C65_2 C64_2 1_555 1_555
H45_2 C65_2 1_555 1_555
C66_2 C61_2 1_555 1_555
H46_2 C66_2 1_555 1_555
N12_2 C58_2 1_555 1_555
C56_2 C57_2 1_555 1_555
C60_2 N12_2 1_555 1_555
C61_2 N12_2 1_555 1_555
C63_2 C64_2 1_555 1_555
C65_2 C66_2 1_555 1_555
H22_2 C32_2 1_555 1_555
H23_2 C33_2 1_555 1_555
C32_2 C33_2 1_555 1_555
H29_2 C41_2 1_555 1_555
H30_2 C42_2 1_555 1_555
C41_2 C42_2 1_555 1_555
C10_2 C11_2 1_555 1_555
C11_2 H6_2 1_555 1_555
C12_2 C11_2 1_555 1_555
H7_2 C12_2 1_555 1_555
C13_2 C12_2 1_555 1_555
C14_2 C13_2 1_555 1_555
H8_2 C14_2 1_555 1_555
C15_2 C10_2 1_555 1_555
H9_2 C15_2 1_555 1_555
C17_2 H11_2 1_555 1_555
C18_2 C17_2 1_555 1_555
H12_2 C18_2 1_555 1_555
C19_2 C20_2 1_555 1_555
C20_2 H13_2 1_555 1_555
C21_2 C20_2 1_555 1_555
H14_2 C21_2 1_555 1_555
C22_2 C13_2 1_555 1_555
C23_2 C22_2 1_555 1_555
H15_2 C23_2 1_555 1_555
C24_2 C19_2 1_555 1_555
H16_2 C24_2 1_555 1_555
N4_2 C16_2 1_555 1_555
C14_2 C15_2 1_555 1_555
C18_2 N4_2 1_555 1_555
C19_2 N4_2 1_555 1_555
C21_2 C22_2 1_555 1_555
C23_2 C24_2 1_555 1_555
H34_2 C50_2 1_555 1_555
N10_2 C50_2 1_555 1_555
C51_2 N10_2 1_555 1_555

#END
