
###############################################################################
#
# This file contains modified crystal structure data generated from the
# MOF subset of the Cambridge Structural Database (CSD) v543 
# hosted by the Cambridge Crystallographic Data Centre (CCDC).
#
# This work is licensed under the Creative Commons
# Attribution-NonCommercial-ShareAlike 4.0 International License.
# To view a copy of this license, visit
# http://creativecommons.org/licenses/by-nc-sa/4.0/
# or send a letter to
# Creative Commons, PO Box 1866, Mountain View, CA 94042, USA.
#
# CIF created using the CSD Python API on 29 September 2022
# The structure has been converted into the P1 space group
# The structure has a 3D framework
# The original CSD entry NIJZIP is in the hexagonal crystal system
# The framework has been calculated to contain at least 10.0% void space
# The void calculation uses a probe of radius 1.32A, grid spacing 0.4
# H atom positions have been added when not included in the experimental data
# Generated hydrogen atom positions removed from atoms on special positions
#
###############################################################################

data_NIJZIP
_chemical_formula_moiety         '(C48 H144 Cu15 Nd12 O78)n'
_symmetry_cell_setting           triclinic
_symmetry_space_group_name_H-M   'P 1'
_symmetry_Int_Tables_number      1
_space_group_name_Hall           'P 1'
loop_
_symmetry_equiv_pos_site_id
_symmetry_equiv_pos_as_xyz
1 x,y,z
_cell_length_a                   15.091(4)
_cell_length_b                   15.091(4)
_cell_length_c                   14.710(3)
_cell_angle_alpha                90
_cell_angle_beta                 90
_cell_angle_gamma                120
_cell_volume                     2901.21
loop_
_atom_site_label
_atom_site_type_symbol
_atom_site_fract_x
_atom_site_fract_y
_atom_site_fract_z
Cu4 Cu -0.0000 0.5000 0.0000
Cu5 Cu -0.0000 0.5000 0.5000
O35 O 0.0497(4) 0.6065(3) 0.0925(3)
O39 O 0.1554(6) 0.4790(4) 0.0000
Cu4_2 Cu -0.0000 0.5000 1.0000
O37 O 0.0497(4) 0.6065(3) 0.9075(3)
O39_2 O 0.1554(6) 0.4790(4) 1.0000
Cu7 Cu 0.5000 -0.0000 0.0000
Cu7_2 Cu 0.5000 -0.0000 1.0000
Cu10 Cu 0.5000 -0.0000 0.5000
Cu7_3 Cu 0.5000 1.0000 0.0000
Cu8 Cu 0.5000 0.5000 0.0000
Nd1 Nd 0.667 0.333 0.2500
Cu1 Cu 0.5000 0.5000 0.5000
O1 O 0.4738(4) 0.237 0.2500
O2 O 0.5785(2) 0.3849(2) 0.3592(2)
O3 O 0.4432(2) 0.3935(3) 0.4075(3)
O4 O 0.3236(4) 0.4790(4) 0.5000
C1 C 0.4130(4) 0.2686(4) 0.2990(4)
C2 C 0.4852(3) 0.3569(3) 0.3594(3)
O5 O 0.763 0.5262(4) 0.2500
O6 O 0.763 0.2368(4) 0.2500
O7 O 0.6151(2) 0.4215(2) 0.1408(2)
O8 O 0.6151(2) 0.1936(3) 0.3592(2)
O9 O 0.5785(2) 0.1936(3) 0.1408(2)
O10 O 0.8064(3) 0.4215(2) 0.3592(2)
O11 O 0.8064(3) 0.3849(2) 0.1408(2)
O12 O 0.5568(2) 0.6065(3) 0.4075(3)
O13 O 0.5568(2) 0.6065(3) 0.5925(3)
O14 O 0.4432(2) 0.3935(3) 0.5925(3)
O15 O 0.6764(4) 0.5210(4) 0.5000
C3 C 0.4130(4) 0.1444(6) 0.2010(4)
C4 C 0.4852(3) 0.1283(4) 0.1406(3)
O16 O 0.4432(2) 0.0497(4) 0.0925(3)
C5 C 0.6431(3) 0.1283(4) 0.3594(3)
C6 C 0.7314(4) 0.1444(6) 0.2990(4)
C7 C 0.8556(6) 0.2686(4) 0.2010(4)
C8 C 0.8717(4) 0.3569(3) 0.1406(3)
C9 C 0.8717(4) 0.5148(3) 0.3594(3)
C10 C 0.7314(4) 0.5870(4) 0.2010(4)
C11 C 0.8556(6) 0.5870(4) 0.2990(4)
C12 C 0.6431(3) 0.5148(3) 0.1406(3)
O17 O 0.6065(3) 0.0497(4) 0.4075(3)
O18 O 0.9503(4) 0.3935(3) 0.0925(3)
O19 O 0.9503(4) 0.5568(2) 0.4075(3)
O20 O 0.6065(3) 0.5568(2) 0.0925(3)
Cu4_3 Cu 1.0000 0.5000 0.0000
Cu5_2 Cu 1.0000 0.5000 0.5000
C13 C 0.5148(3) 0.6431(3) 0.6406(3)
O21 O 0.4215(2) 0.6151(2) 0.6408(2)
C14 C 0.5870(4) 0.7314(4) 0.7010(4)
Nd2 Nd 0.333 0.667 0.7500
O22 O 0.5262(4) 0.763 0.7500
C15 C 0.5870(4) 0.8556(6) 0.7990(4)
C16 C 0.5148(3) 0.8717(4) 0.8594(3)
O23 O 0.4215(2) 0.8064(3) 0.8592(2)
O24 O 0.5568(2) 0.9503(4) 0.9075(3)
Cu7_4 Cu 0.5000 1.0000 1.0000
O25 O 0.237 0.4738(4) 0.7500
O26 O 0.237 0.7632(4) 0.7500
O27 O 0.3849(2) 0.5785(2) 0.8592(2)
O28 O 0.3849(2) 0.8064(3) 0.6408(2)
O29 O 0.1936(3) 0.5785(2) 0.6408(2)
O30 O 0.1936(3) 0.6151(2) 0.8592(2)
C17 C 0.2686(4) 0.4130(4) 0.7990(4)
C18 C 0.1444(6) 0.4130(4) 0.7010(4)
C19 C 0.3569(3) 0.4852(3) 0.8594(3)
C20 C 0.1283(4) 0.4852(3) 0.6406(3)
C21 C 0.3569(3) 0.8717(4) 0.6406(3)
C22 C 0.2686(4) 0.8556(6) 0.7010(4)
C23 C 0.1444(6) 0.7314(4) 0.7990(4)
O31 O 0.3935(3) 0.4432(2) 0.9075(3)
O32 O 0.0497(4) 0.4432(2) 0.5925(3)
O33 O 0.3935(3) 0.9503(4) 0.5925(3)
C24 C 0.1283(4) 0.6431(3) 0.8594(3)
Cu8_2 Cu 0.5000 0.5000 1.0000
Cu10_2 Cu 0.5000 1.0000 0.5000
O38 O 0.8446(6) 0.5210(4) 0.0000
O40 O 0.3935(3) 0.4432(2) 0.0925(3)
O43 O 0.5210(4) 0.6764(4) 0.0000
O44 O 0.4790(4) 0.3236(4) 0.0000
H1 H 0.79429 0.643355 0.159702
H2 H 0.70654 0.625998 0.248001
H3 H 0.643355 0.79429 0.659702
H4 H 0.625998 0.70654 0.748001
H5 H 0.625912 0.919413 0.75194
H6 H 0.643425 0.849191 0.840303
H7 H 0.356645 0.20571 0.340298
H8 H 0.374002 0.29346 0.251999
H9 H 0.356575 0.150809 0.159697
H10 H 0.374088 0.0805865 0.24806
H11 H 0.849191 0.205766 0.159697
H12 H 0.919413 0.293501 0.24806
H13 H 0.79429 0.150935 0.340298
H14 H 0.70654 0.0805415 0.251999
H19 H 0.849191 0.643425 0.340303
H20 H 0.919413 0.625912 0.25194
H21 H 0.0805865 0.706499 0.75194
H22 H 0.150809 0.794234 0.840303
H25 H 0.29346 0.374002 0.751999
H26 H 0.20571 0.356645 0.840298
H27 H 0.0805865 0.374088 0.74806
H28 H 0.150809 0.356575 0.659697
H33 H 0.29346 0.919458 0.748001
H34 H 0.20571 0.849065 0.659702
Cu4_4 Cu 1.0000 0.5000 1.0000
O36 O 0.9503(4) 0.3935(3) 0.9075(3)
O38_2 O 0.8446(6) 0.5210(4) 1.0000
O42 O 0.6065(3) 0.5568(2) 0.9075(3)
O43_2 O 0.5210(4) 0.6764(4) 1.0000
O44_2 O 0.4790(4) 0.3236(4) 1.0000
O39_3 O 0.6764(7) 0.1554(6) 0.0000
O37_2 O 0.4432(5) 0.0497(4) 0.9075(3)
O39_4 O 0.6764(7) 0.1554(6) 1.0000
Nd1_2 Nd 0.334 0.667 0.2500
O1_2 O 0.2368(4) 0.4738(4) 0.2500
O2_2 O 0.1936(3) 0.5785(2) 0.3592(2)
O3_2 O 0.0497(4) 0.4432(2) 0.4075(3)
C1_2 C 0.1444(6) 0.4130(4) 0.2990(4)
C2_2 C 0.1283(4) 0.4852(3) 0.3594(3)
O5_2 O 0.2368(4) 0.763 0.2500
O6_2 O 0.5262(4) 0.763 0.2500
O7_2 O 0.1936(3) 0.6151(2) 0.1408(2)
O8_2 O 0.4215(4) 0.6151(2) 0.3592(2)
O9_2 O 0.3849(4) 0.5785(2) 0.1408(2)
O10_2 O 0.3849(4) 0.8064(3) 0.3592(2)
O11_2 O 0.4215(4) 0.8064(3) 0.1408(2)
O15_2 O 0.1554(6) 0.6764(4) 0.5000
C3_2 C 0.2686(7) 0.4130(4) 0.2010(4)
C4_2 C 0.3569(5) 0.4852(3) 0.1406(3)
C5_2 C 0.5148(5) 0.6431(3) 0.3594(3)
C6_2 C 0.5870(7) 0.7314(4) 0.2990(4)
C7_2 C 0.5870(7) 0.8556(6) 0.2010(4)
C8_2 C 0.5148(5) 0.8717(4) 0.1406(3)
C9_2 C 0.3569(5) 0.8717(4) 0.3594(3)
C10_2 C 0.1444(6) 0.7314(4) 0.2010(4)
C11_2 C 0.2686(7) 0.8556(6) 0.2990(4)
C12_2 C 0.1283(4) 0.6431(3) 0.1406(3)
O18_2 O 0.5568(5) 0.9503(4) 0.0925(3)
O19_2 O 0.3935(4) 0.9503(4) 0.4075(3)
O38_3 O 0.3236(7) 0.8446(6) 0.0000
H1_2 H 0.150935 0.79429 0.159702
H2_2 H 0.0805415 0.70654 0.248001
H7_2 H 0.150935 0.356645 0.340298
H8_2 H 0.0805415 0.374002 0.251999
H9_2 H 0.205766 0.356575 0.159697
H10_2 H 0.293501 0.374088 0.24806
H11_2 H 0.643425 0.849191 0.159697
H12_2 H 0.625912 0.919413 0.24806
H13_2 H 0.643355 0.79429 0.340298
H14_2 H 0.625998 0.70654 0.251999
H19_2 H 0.205766 0.849191 0.340303
H20_2 H 0.293501 0.919413 0.25194
O38_4 O 0.3236(7) 0.8446(6) 1.0000
O4_2 O 0.8446(6) 0.3236(4) 0.5000
O13_2 O 0.9503(4) 0.5568(2) 0.5925(3)
C13_2 C 0.8717(4) 0.5148(3) 0.6406(3)
O21_2 O 0.8064(3) 0.4215(2) 0.6408(2)
C14_2 C 0.8556(6) 0.5870(4) 0.7010(4)
Nd2_2 Nd 0.666 0.333 0.7500
O22_2 O 0.7632(4) 0.5262(4) 0.7500
C15_2 C 0.7314(7) 0.5870(4) 0.7990(4)
C16_2 C 0.6431(5) 0.5148(3) 0.8594(3)
O23_2 O 0.6151(4) 0.4215(2) 0.8592(2)
O25_2 O 0.7632(4) 0.237 0.7500
O26_2 O 0.4738(4) 0.237 0.7500
O27_2 O 0.8064(3) 0.3849(2) 0.8592(2)
O28_2 O 0.5785(4) 0.3849(2) 0.6408(2)
O29_2 O 0.6151(4) 0.1936(3) 0.6408(2)
O30_2 O 0.5785(4) 0.1936(3) 0.8592(2)
C17_2 C 0.8556(6) 0.2686(4) 0.7990(4)
C18_2 C 0.7314(7) 0.1444(6) 0.7010(4)
C19_2 C 0.8717(4) 0.3569(3) 0.8594(3)
C20_2 C 0.6431(5) 0.1283(4) 0.6406(3)
C21_2 C 0.4852(5) 0.3569(3) 0.6406(3)
C22_2 C 0.4130(7) 0.2686(4) 0.7010(4)
C23_2 C 0.4130(7) 0.1444(6) 0.7990(4)
O32_2 O 0.6065(4) 0.0497(4) 0.5925(3)
C24_2 C 0.4852(5) 0.1283(4) 0.8594(3)
H3_2 H 0.849065 0.643355 0.659702
H4_2 H 0.919458 0.625998 0.748001
H5_2 H 0.706499 0.625912 0.75194
H6_2 H 0.794234 0.643425 0.840303
H21_2 H 0.374088 0.0805865 0.75194
H22_2 H 0.356575 0.150809 0.840303
H25_2 H 0.919458 0.29346 0.751999
H26_2 H 0.849065 0.20571 0.840298
H27_2 H 0.706499 0.0805865 0.74806
H28_2 H 0.794234 0.150809 0.659697
H33_2 H 0.374002 0.29346 0.748001
H34_2 H 0.356645 0.20571 0.659702
O38_5 O 0.4790(4) 0.1554(6) 0.5000
O39_5 O 0.5210(4) 0.8446(6) 0.5000
Nd1_3 Nd 0.667 0.334 0.2500
Nd2_3 Nd 0.333 0.666 0.7500
Nd1_4 Nd 0.333 0.667 0.2500
Nd2_4 Nd 0.667 0.333 0.7500
Nd2_5 Nd 0.334 0.667 0.7500
Nd1_5 Nd 0.666 0.333 0.2500
Nd2_6 Nd 0.667 0.334 0.7500
Nd1_6 Nd 0.333 0.666 0.2500
loop_
_geom_bond_atom_site_label_1
_geom_bond_atom_site_label_2
_geom_bond_site_symmetry_1
_geom_bond_site_symmetry_2
O35 Cu4 1_555 1_555
O39 Cu4 1_555 1_555
O37 Cu4_2 1_555 1_555
O39_2 Cu4_2 1_555 1_555
Nd1 O1 1_555 1_555
Cu1 O3 1_555 1_555
O1 C1 1_555 1_555
O2 Nd1 1_555 1_555
O3 C2 1_555 1_555
O4 Cu1 1_555 1_555
C1 C2 1_555 1_555
C2 O2 1_555 1_555
O5 Nd1 1_555 1_555
O6 Nd1 1_555 1_555
O7 Nd1 1_555 1_555
O8 Nd1 1_555 1_555
O9 Nd1 1_555 1_555
O10 Nd1 1_555 1_555
O11 Nd1 1_555 1_555
O12 Cu1 1_555 1_555
O13 Cu1 1_555 1_555
O14 Cu1 1_555 1_555
O15 Cu1 1_555 1_555
C3 O1 1_555 1_555
C4 O9 1_555 1_555
O16 C4 1_555 1_555
Cu7 O16 1_555 1_555
C5 O8 1_555 1_555
C6 O6 1_555 1_555
C7 O6 1_555 1_555
C8 O11 1_555 1_555
C9 O10 1_555 1_555
C10 O5 1_555 1_555
C11 O5 1_555 1_555
C12 O7 1_555 1_555
O17 C5 1_555 1_555
O18 C8 1_555 1_555
O19 C9 1_555 1_555
O20 C12 1_555 1_555
Cu10 O17 1_555 1_555
Cu4_3 O18 1_555 1_555
Cu5_2 O19 1_555 1_555
Cu8 O20 1_555 1_555
C13 O13 1_555 1_555
O21 C13 1_555 1_555
C14 C13 1_555 1_555
Nd2 O21 1_555 1_555
O22 C14 1_555 1_555
C15 O22 1_555 1_555
C16 C15 1_555 1_555
O23 Nd2 1_555 1_555
O24 C16 1_555 1_555
Cu7_4 O24 1_555 1_555
O25 Nd2 1_555 1_555
O26 Nd2 1_555 1_555
O27 Nd2 1_555 1_555
O28 Nd2 1_555 1_555
O29 Nd2 1_555 1_555
O30 Nd2 1_555 1_555
C17 O25 1_555 1_555
C18 O25 1_555 1_555
C19 O27 1_555 1_555
C20 O29 1_555 1_555
C21 O28 1_555 1_555
C22 O26 1_555 1_555
C23 O26 1_555 1_555
O31 C19 1_555 1_555
O32 C20 1_555 1_555
O33 C21 1_555 1_555
C24 O30 1_555 1_555
Cu8_2 O31 1_555 1_555
Cu5 O32 1_555 1_555
Cu10_2 O33 1_555 1_555
O37 C24 1_555 1_555
O38 Cu4_3 1_555 1_555
O40 Cu8 1_555 1_555
O43 Cu8 1_555 1_555
O44 Cu8 1_555 1_555
C3 C4 1_555 1_555
C5 C6 1_555 1_555
C7 C8 1_555 1_555
C9 C11 1_555 1_555
C10 C12 1_555 1_555
Nd2 O22 1_555 1_555
C16 O23 1_555 1_555
C17 C19 1_555 1_555
C18 C20 1_555 1_555
C21 C22 1_555 1_555
C23 C24 1_555 1_555
C10 H1 1_555 1_555
C10 H2 1_555 1_555
C14 H3 1_555 1_555
C14 H4 1_555 1_555
C15 H5 1_555 1_555
C15 H6 1_555 1_555
C1 H7 1_555 1_555
C1 H8 1_555 1_555
C3 H9 1_555 1_555
C3 H10 1_555 1_555
C7 H11 1_555 1_555
C7 H12 1_555 1_555
C6 H13 1_555 1_555
C6 H14 1_555 1_555
C11 H19 1_555 1_555
C11 H20 1_555 1_555
C23 H21 1_555 1_555
C23 H22 1_555 1_555
C17 H25 1_555 1_555
C17 H26 1_555 1_555
C18 H27 1_555 1_555
C18 H28 1_555 1_555
C22 H33 1_555 1_555
C22 H34 1_555 1_555
O36 Cu4_4 1_555 1_555
O38_2 Cu4_4 1_555 1_555
O42 Cu8_2 1_555 1_555
O43_2 Cu8_2 1_555 1_555
O44_2 Cu8_2 1_555 1_555
O39_3 Cu7 1_555 1_555
O37_2 Cu7_2 1_555 1_555
O39_4 Cu7_2 1_555 1_555
Nd1_2 O1_2 1_555 1_555
Cu5 O3_2 1_555 1_555
O1_2 C1_2 1_555 1_555
O2_2 Nd1_2 1_555 1_555
O3_2 C2_2 1_555 1_555
C1_2 C2_2 1_555 1_555
C2_2 O2_2 1_555 1_555
O5_2 Nd1_2 1_555 1_555
O6_2 Nd1_2 1_555 1_555
O7_2 Nd1_2 1_555 1_555
O8_2 Nd1_2 1_555 1_555
O9_2 Nd1_2 1_555 1_555
O10_2 Nd1_2 1_555 1_555
O11_2 Nd1_2 1_555 1_555
O15_2 Cu5 1_555 1_555
C3_2 O1_2 1_555 1_555
C4_2 O9_2 1_555 1_555
O40 C4_2 1_555 1_555
C5_2 O8_2 1_555 1_555
C6_2 O6_2 1_555 1_555
C7_2 O6_2 1_555 1_555
C8_2 O11_2 1_555 1_555
C9_2 O10_2 1_555 1_555
C10_2 O5_2 1_555 1_555
C11_2 O5_2 1_555 1_555
C12_2 O7_2 1_555 1_555
O12 C5_2 1_555 1_555
O18_2 C8_2 1_555 1_555
O19_2 C9_2 1_555 1_555
O35 C12_2 1_555 1_555
Cu7_3 O18_2 1_555 1_555
Cu10_2 O19_2 1_555 1_555
O38_3 Cu7_3 1_555 1_555
C3_2 C4_2 1_555 1_555
C5_2 C6_2 1_555 1_555
C7_2 C8_2 1_555 1_555
C9_2 C11_2 1_555 1_555
C10_2 C12_2 1_555 1_555
C10_2 H1_2 1_555 1_555
C10_2 H2_2 1_555 1_555
C1_2 H7_2 1_555 1_555
C1_2 H8_2 1_555 1_555
C3_2 H9_2 1_555 1_555
C3_2 H10_2 1_555 1_555
C7_2 H11_2 1_555 1_555
C7_2 H12_2 1_555 1_555
C6_2 H13_2 1_555 1_555
C6_2 H14_2 1_555 1_555
C11_2 H19_2 1_555 1_555
C11_2 H20_2 1_555 1_555
O38_4 Cu7_4 1_555 1_555
O4_2 Cu5_2 1_555 1_555
O13_2 Cu5_2 1_555 1_555
C13_2 O13_2 1_555 1_555
O21_2 C13_2 1_555 1_555
C14_2 C13_2 1_555 1_555
Nd2_2 O21_2 1_555 1_555
O22_2 C14_2 1_555 1_555
C15_2 O22_2 1_555 1_555
C16_2 C15_2 1_555 1_555
O23_2 Nd2_2 1_555 1_555
O42 C16_2 1_555 1_555
O25_2 Nd2_2 1_555 1_555
O26_2 Nd2_2 1_555 1_555
O27_2 Nd2_2 1_555 1_555
O28_2 Nd2_2 1_555 1_555
O29_2 Nd2_2 1_555 1_555
O30_2 Nd2_2 1_555 1_555
C17_2 O25_2 1_555 1_555
C18_2 O25_2 1_555 1_555
C19_2 O27_2 1_555 1_555
C20_2 O29_2 1_555 1_555
C21_2 O28_2 1_555 1_555
C22_2 O26_2 1_555 1_555
C23_2 O26_2 1_555 1_555
O36 C19_2 1_555 1_555
O32_2 C20_2 1_555 1_555
O14 C21_2 1_555 1_555
C24_2 O30_2 1_555 1_555
Cu10 O32_2 1_555 1_555
O37_2 C24_2 1_555 1_555
Nd2_2 O22_2 1_555 1_555
C16_2 O23_2 1_555 1_555
C17_2 C19_2 1_555 1_555
C18_2 C20_2 1_555 1_555
C21_2 C22_2 1_555 1_555
C23_2 C24_2 1_555 1_555
C14_2 H3_2 1_555 1_555
C14_2 H4_2 1_555 1_555
C15_2 H5_2 1_555 1_555
C15_2 H6_2 1_555 1_555
C23_2 H21_2 1_555 1_555
C23_2 H22_2 1_555 1_555
C17_2 H25_2 1_555 1_555
C17_2 H26_2 1_555 1_555
C18_2 H27_2 1_555 1_555
C18_2 H28_2 1_555 1_555
C22_2 H33_2 1_555 1_555
C22_2 H34_2 1_555 1_555
O38_5 Cu10 1_555 1_555
O39_5 Cu10_2 1_555 1_555
Nd1_3 O6 1_555 1_555
O8 Nd1_3 1_555 1_555
O1 Nd1_3 1_555 1_555
O5 Nd1_3 1_555 1_555
O9 Nd1_3 1_555 1_555
O10 Nd1_3 1_555 1_555
O11 Nd1_3 1_555 1_555
O2 Nd1_3 1_555 1_555
O7 Nd1_3 1_555 1_555
Nd2_3 O28 1_555 1_555
O30 Nd2_3 1_555 1_555
O22 Nd2_3 1_555 1_555
O25 Nd2_3 1_555 1_555
O23 Nd2_3 1_555 1_555
O29 Nd2_3 1_555 1_555
O21 Nd2_3 1_555 1_555
O27 Nd2_3 1_555 1_555
Nd2_3 O26 1_555 1_555
Nd1_4 O6_2 1_555 1_555
O8_2 Nd1_4 1_555 1_555
O1_2 Nd1_4 1_555 1_555
O5_2 Nd1_4 1_555 1_555
O9_2 Nd1_4 1_555 1_555
O10_2 Nd1_4 1_555 1_555
O11_2 Nd1_4 1_555 1_555
O2_2 Nd1_4 1_555 1_555
O7_2 Nd1_4 1_555 1_555
Nd2_4 O28_2 1_555 1_555
O30_2 Nd2_4 1_555 1_555
O22_2 Nd2_4 1_555 1_555
O25_2 Nd2_4 1_555 1_555
O23_2 Nd2_4 1_555 1_555
O29_2 Nd2_4 1_555 1_555
O21_2 Nd2_4 1_555 1_555
O27_2 Nd2_4 1_555 1_555
Nd2_4 O26_2 1_555 1_555
Nd2_5 O29 1_555 1_555
O27 Nd2_5 1_555 1_555
O26 Nd2_5 1_555 1_555
O22 Nd2_5 1_555 1_555
O30 Nd2_5 1_555 1_555
O21 Nd2_5 1_555 1_555
O28 Nd2_5 1_555 1_555
O23 Nd2_5 1_555 1_555
Nd2_5 O25 1_555 1_555
Nd1_5 O5 1_555 1_555
O10 Nd1_5 1_555 1_555
O6 Nd1_5 1_555 1_555
O1 Nd1_5 1_555 1_555
O11 Nd1_5 1_555 1_555
O2 Nd1_5 1_555 1_555
O7 Nd1_5 1_555 1_555
O8 Nd1_5 1_555 1_555
O9 Nd1_5 1_555 1_555
Nd2_6 O29_2 1_555 1_555
O27_2 Nd2_6 1_555 1_555
O26_2 Nd2_6 1_555 1_555
O22_2 Nd2_6 1_555 1_555
O30_2 Nd2_6 1_555 1_555
O21_2 Nd2_6 1_555 1_555
O28_2 Nd2_6 1_555 1_555
O23_2 Nd2_6 1_555 1_555
Nd2_6 O25_2 1_555 1_555
Nd1_6 O5_2 1_555 1_555
O10_2 Nd1_6 1_555 1_555
O6_2 Nd1_6 1_555 1_555
O1_2 Nd1_6 1_555 1_555
O11_2 Nd1_6 1_555 1_555
O2_2 Nd1_6 1_555 1_555
O7_2 Nd1_6 1_555 1_555
O8_2 Nd1_6 1_555 1_555
O9_2 Nd1_6 1_555 1_555

#END
