
###############################################################################
#
# This file contains modified crystal structure data generated from the
# MOF subset of the Cambridge Structural Database (CSD) v543 
# hosted by the Cambridge Crystallographic Data Centre (CCDC).
#
# This work is licensed under the Creative Commons
# Attribution-NonCommercial-ShareAlike 4.0 International License.
# To view a copy of this license, visit
# http://creativecommons.org/licenses/by-nc-sa/4.0/
# or send a letter to
# Creative Commons, PO Box 1866, Mountain View, CA 94042, USA.
#
# CIF created using the CSD Python API on 29 September 2022
# The structure has been converted into the P1 space group
# The structure has a 3D framework
# The original CSD entry NIJZOV is in the hexagonal crystal system
# The framework has been calculated to contain at least 10.0% void space
# The void calculation uses a probe of radius 1.32A, grid spacing 0.4
# H atom positions have been added when not included in the experimental data
# Generated hydrogen atom positions removed from atoms on special positions
#
###############################################################################

data_NIJZOV
_chemical_formula_moiety         '(C48 H192 Cu15 Er12 O78)n'
_symmetry_cell_setting           triclinic
_symmetry_space_group_name_H-M   'P 1'
_symmetry_Int_Tables_number      1
_space_group_name_Hall           'P 1'
loop_
_symmetry_equiv_pos_site_id
_symmetry_equiv_pos_as_xyz
1 x,y,z
_cell_length_a                   14.516(4)
_cell_length_b                   14.516(4)
_cell_length_c                   15.279(7)
_cell_angle_alpha                90
_cell_angle_beta                 90
_cell_angle_gamma                120
_cell_volume                     2788.17
loop_
_atom_site_label
_atom_site_type_symbol
_atom_site_fract_x
_atom_site_fract_y
_atom_site_fract_z
Cu3 Cu -0.0000 0.5000 -0.0000
Cu3_2 Cu -0.0000 0.5000 1.0000
Cu5 Cu -0.0000 0.5000 0.5000
Cu3_3 Cu 1.0000 0.5000 -0.0000
Cu6 Cu 0.5000 0.0000 -0.0000
Cu7 Cu 0.5000 0.5000 -0.0000
Cu1 Cu 0.5000 0.0000 0.5000
O5 O 0.6109(4) 0.0540(4) 0.4114(4)
O8 O 0.4840(6) 0.1623(7) 0.5000
O10 O 0.6109(4) 0.0540(4) 0.5886(4)
C5 C 0.6459(6) 0.1322(6) 0.6381(6)
O17 O 0.6125(3) 0.1969(4) 0.6447(4)
C6 C 0.7371(7) 0.1484(6) 0.6943(7)
Er2 Er 0.667 0.333 0.7500
O18 O 0.7626(3) 0.237 0.7500
C7 C 0.8516(6) 0.2629(7) 0.8057(7)
C8 C 0.8678(6) 0.3541(6) 0.8619(6)
O19 O 0.8031(4) 0.3875(3) 0.8553(4)
O20 O 0.9460(4) 0.3891(4) 0.9114(4)
Cu3_4 Cu 1.0000 0.5000 1.0000
O21 O 0.4744(3) 0.2374(3) 0.7500
O22 O 0.763 0.5256(3) 0.7500
O23 O 0.5844(5) 0.3875(3) 0.6447(4)
O24 O 0.5844(5) 0.1969(4) 0.8553(4)
O25 O 0.8031(4) 0.4156(5) 0.6447(4)
O26 O 0.6125(3) 0.4156(5) 0.8553(4)
C9 C 0.4863(8) 0.3541(6) 0.6381(6)
C10 C 0.8516(6) 0.5887(9) 0.6943(7)
C11 C 0.7371(7) 0.5887(9) 0.8057(7)
C12 C 0.8678(6) 0.5137(8) 0.6381(6)
C13 C 0.4113(9) 0.2629(7) 0.6943(7)
C14 C 0.4113(9) 0.1484(6) 0.8057(7)
C15 C 0.4863(8) 0.1322(6) 0.8619(6)
O27 O 0.4431(6) 0.3891(4) 0.5886(4)
C16 C 0.6459(6) 0.5137(8) 0.8619(6)
O28 O 0.9460(4) 0.5569(6) 0.5886(4)
O29 O 0.4431(6) 0.0540(4) 0.9114(4)
Cu4 Cu 0.5000 0.5000 0.5000
O30 O 0.6109(4) 0.5569(6) 0.9114(4)
Cu5_2 Cu 1.0000 0.5000 0.5000
Cu6_2 Cu 0.5000 0.0000 1.0000
Cu7_2 Cu 0.5000 0.5000 1.0000
O35 O 0.5569(6) 0.6109(4) 0.4114(4)
O36 O 0.4431(6) 0.3891(4) 0.4114(4)
O37 O 0.5569(6) 0.6109(4) 0.5886(4)
O38 O 0.6783(9) 0.5160(6) 0.5000
O39 O 0.3217(9) 0.4840(6) 0.5000
O40 O 0.4431(6) 0.0540(4) 0.0886(4)
O43 O 0.6783(9) 0.1623(7) 0.0000
H3 H 0.805322 0.165022 0.65364
H4 H 0.714567 0.0775764 0.733475
H11 H 0.922424 0.636991 0.733475
H12 H 0.834978 0.6403 0.65364
H15 H 0.714464 0.636817 0.766397
H16 H 0.805219 0.640464 0.846392
H17 H 0.922352 0.285536 0.766397
H18 H 0.835245 0.194781 0.846392
H19 H 0.363009 0.285433 0.733475
H20 H 0.3597 0.194678 0.65364
H21 H 0.363183 0.0776478 0.766397
H22 H 0.359536 0.164755 0.846392
O43_2 O 0.6783(9) 0.1623(7) 1.0000
Cu6_3 Cu 0.5000 1.0000 -0.0000
O1 O 0.2374(3) 0.763 0.2500
O2 O 0.3875(3) 0.8031(4) 0.3553(4)
O3 O 0.3891(4) 0.9460(4) 0.4114(4)
O4 O 0.5160(6) 0.8377(7) 0.5000
C1 C 0.2629(7) 0.8516(6) 0.3057(7)
Er1 Er 0.333 0.667 0.2500
Cu1_2 Cu 0.5000 1.0000 0.5000
C2 C 0.3541(6) 0.8678(6) 0.3619(6)
C3 C 0.1484(6) 0.7371(7) 0.1943(7)
C4 C 0.1322(6) 0.6459(6) 0.1381(6)
O6 O 0.1969(4) 0.6125(3) 0.1447(4)
O7 O 0.0540(4) 0.6109(4) 0.0886(4)
O9 O 0.3891(4) 0.9460(4) 0.5886(4)
O11 O 0.5256(3) 0.7626(3) 0.2500
O12 O 0.237 0.4744(3) 0.2500
O13 O 0.4156(5) 0.6125(3) 0.3553(4)
O14 O 0.4156(5) 0.8031(4) 0.1447(4)
O15 O 0.1969(4) 0.5844(5) 0.3553(4)
O16 O 0.3875(3) 0.5844(5) 0.1447(4)
Cu6_4 Cu 0.5000 1.0000 1.0000
C17 C 0.5137(8) 0.6459(6) 0.3619(6)
C18 C 0.1484(6) 0.4113(9) 0.3057(7)
C19 C 0.2629(7) 0.4113(9) 0.1943(7)
C20 C 0.3541(6) 0.4863(8) 0.1381(6)
C21 C 0.1322(6) 0.4863(8) 0.3619(6)
C22 C 0.5137(8) 0.8678(6) 0.1381(6)
C23 C 0.5887(9) 0.7371(7) 0.3057(7)
O32 O 0.3891(4) 0.4431(6) 0.0886(4)
O33 O 0.0540(4) 0.4431(6) 0.4114(4)
O34 O 0.5569(6) 0.9460(4) 0.0886(4)
C24 C 0.5887(9) 0.8516(6) 0.1943(7)
O44 O 0.3217(9) 0.8377(7) 0.0000
H5 H 0.164755 0.805219 0.153608
H6 H 0.0776478 0.714464 0.233603
H7 H 0.194678 0.834978 0.34636
H8 H 0.285433 0.922424 0.266525
H13 H 0.640464 0.835245 0.153608
H14 H 0.636817 0.922352 0.233603
H23 H 0.194781 0.359536 0.153608
H24 H 0.285536 0.363183 0.233603
H29 H 0.165022 0.3597 0.34636
H30 H 0.0775764 0.363009 0.266525
H35 H 0.6403 0.805322 0.34636
H36 H 0.636991 0.714567 0.266525
O42 O 0.5569(6) 0.9460(4) 0.9114(4)
O44_2 O 0.3217(9) 0.8377(7) 1.0000
O1_2 O 0.4744(3) 0.2374(3) 0.2500
O2_2 O 0.5844(5) 0.3875(3) 0.3553(4)
C1_2 C 0.4113(9) 0.2629(7) 0.3057(7)
Er1_2 Er 0.666 0.333 0.2500
C2_2 C 0.4863(8) 0.3541(6) 0.3619(6)
C3_2 C 0.4113(9) 0.1484(6) 0.1943(7)
C4_2 C 0.4863(8) 0.1322(6) 0.1381(6)
O6_2 O 0.5844(5) 0.1969(4) 0.1447(4)
O11_2 O 0.7630(4) 0.5256(3) 0.2500
O12_2 O 0.7626(3) 0.237 0.2500
O13_2 O 0.8031(6) 0.4156(5) 0.3553(4)
O14_2 O 0.6125(6) 0.4156(5) 0.1447(4)
O15_2 O 0.6125(6) 0.1969(4) 0.3553(4)
O16_2 O 0.8031(6) 0.3875(3) 0.1447(4)
C5_2 C 0.5137(8) 0.6459(6) 0.6381(6)
O17_2 O 0.4156(5) 0.6125(3) 0.6447(4)
C6_2 C 0.5887(9) 0.7371(7) 0.6943(7)
Er2_2 Er 0.334 0.667 0.7500
O18_2 O 0.5256(3) 0.7626(3) 0.7500
C7_2 C 0.5887(9) 0.8516(6) 0.8057(7)
C8_2 C 0.5137(8) 0.8678(6) 0.8619(6)
O19_2 O 0.4156(5) 0.8031(4) 0.8553(4)
O21_2 O 0.2370(4) 0.4744(3) 0.7500
O22_2 O 0.2374(3) 0.763 0.7500
O23_2 O 0.1969(6) 0.5844(5) 0.6447(4)
O24_2 O 0.3875(6) 0.5844(5) 0.8553(4)
O25_2 O 0.3875(6) 0.8031(4) 0.6447(4)
O26_2 O 0.1969(6) 0.6125(3) 0.8553(4)
C9_2 C 0.1322(10) 0.4863(8) 0.6381(6)
C10_2 C 0.2629(11) 0.8516(6) 0.6943(7)
C11_2 C 0.1484(11) 0.7371(7) 0.8057(7)
C12_2 C 0.3541(10) 0.8678(6) 0.6381(6)
C13_2 C 0.1484(11) 0.4113(9) 0.6943(7)
C14_2 C 0.2629(11) 0.4113(9) 0.8057(7)
C15_2 C 0.3541(10) 0.4863(8) 0.8619(6)
O27_2 O 0.0540(7) 0.4431(6) 0.5886(4)
C16_2 C 0.1322(10) 0.6459(6) 0.8619(6)
O29_2 O 0.3891(7) 0.4431(6) 0.9114(4)
O30_2 O 0.0540(7) 0.6109(4) 0.9114(4)
C17_2 C 0.8678(10) 0.5137(8) 0.3619(6)
C18_2 C 0.7371(11) 0.1484(6) 0.3057(7)
C19_2 C 0.8516(11) 0.2629(7) 0.1943(7)
C20_2 C 0.8678(10) 0.3541(6) 0.1381(6)
C21_2 C 0.6459(10) 0.1322(6) 0.3619(6)
C22_2 C 0.6459(10) 0.5137(8) 0.1381(6)
O31 O 0.9460(7) 0.5569(6) 0.4114(4)
C23_2 C 0.8516(11) 0.5887(9) 0.3057(7)
O32_2 O 0.9460(7) 0.3891(4) 0.0886(4)
O34_2 O 0.6109(7) 0.5569(6) 0.0886(4)
C24_2 C 0.7371(11) 0.5887(9) 0.1943(7)
O38_2 O 0.1623(11) 0.6783(9) 0.5000
O43_3 O 0.5160(11) 0.6783(9) 0.0000
O44_3 O 0.4840(11) 0.3217(9) 0.0000
H3_2 H 0.6403 0.805322 0.65364
H4_2 H 0.636991 0.714567 0.733475
H5_2 H 0.359536 0.164755 0.153608
H6_2 H 0.363183 0.0776478 0.233603
H7_2 H 0.3597 0.194678 0.34636
H8_2 H 0.363009 0.285433 0.266525
H11_2 H 0.285433 0.922424 0.733475
H12_2 H 0.194678 0.834978 0.65364
H13_2 H 0.805219 0.640464 0.153608
H14_2 H 0.714464 0.636817 0.233603
H15_2 H 0.0776478 0.714464 0.766397
H16_2 H 0.164755 0.805219 0.846392
H17_2 H 0.636817 0.922352 0.766397
H18_2 H 0.640464 0.835245 0.846392
H19_2 H 0.0775764 0.363009 0.733475
H20_2 H 0.165022 0.3597 0.65364
H21_2 H 0.285536 0.363183 0.766397
H22_2 H 0.194781 0.359536 0.846392
H23_2 H 0.835245 0.194781 0.153608
H24_2 H 0.922352 0.285536 0.233603
H29_2 H 0.805322 0.165022 0.34636
H30_2 H 0.714567 0.0775764 0.266525
H35_2 H 0.834978 0.6403 0.34636
H36_2 H 0.922424 0.636991 0.266525
O43_4 O 0.5160(11) 0.6783(9) 1.0000
O44_4 O 0.4840(11) 0.3217(9) 1.0000
O39_2 O 0.8377(11) 0.3217(9) 0.5000
O4_2 O 0.1623(7) 0.4840(6) 0.0000
O4_3 O 0.1623(7) 0.4840(6) 1.0000
O8_2 O 0.8377(7) 0.5160(6) 0.0000
O8_3 O 0.8377(7) 0.5160(6) 1.0000
Er1_3 Er 0.333 0.666 0.2500
Er2_3 Er 0.667 0.334 0.7500
Er1_4 Er 0.667 0.333 0.2500
Er2_4 Er 0.333 0.667 0.7500
Er1_5 Er 0.334 0.667 0.2500
Er2_5 Er 0.666 0.333 0.7500
Er2_6 Er 0.333 0.666 0.7500
Er1_6 Er 0.667 0.334 0.2500
loop_
_geom_bond_atom_site_label_1
_geom_bond_atom_site_label_2
_geom_bond_site_symmetry_1
_geom_bond_site_symmetry_2
Cu1 O5 1_555 1_555
O8 Cu1 1_555 1_555
O10 Cu1 1_555 1_555
C5 O10 1_555 1_555
O17 C5 1_555 1_555
C6 C5 1_555 1_555
Er2 O17 1_555 1_555
O18 C6 1_555 1_555
C7 O18 1_555 1_555
C8 C7 1_555 1_555
O19 Er2 1_555 1_555
O20 C8 1_555 1_555
Cu3_4 O20 1_555 1_555
O21 Er2 1_555 1_555
O22 Er2 1_555 1_555
O23 Er2 1_555 1_555
O24 Er2 1_555 1_555
O25 Er2 1_555 1_555
O26 Er2 1_555 1_555
C9 O23 1_555 1_555
C10 O22 1_555 1_555
C11 O22 1_555 1_555
C12 O25 1_555 1_555
C13 O21 1_555 1_555
C14 O21 1_555 1_555
C15 O24 1_555 1_555
O27 C9 1_555 1_555
C16 O26 1_555 1_555
O28 C12 1_555 1_555
O29 C15 1_555 1_555
Cu4 O27 1_555 1_555
O30 C16 1_555 1_555
Cu5_2 O28 1_555 1_555
Cu6_2 O29 1_555 1_555
Cu7_2 O30 1_555 1_555
O35 Cu4 1_555 1_555
O36 Cu4 1_555 1_555
O37 Cu4 1_555 1_555
O38 Cu4 1_555 1_555
O39 Cu4 1_555 1_555
O40 Cu6 1_555 1_555
O43 Cu6 1_555 1_555
Er2 O18 1_555 1_555
C8 O19 1_555 1_555
C9 C13 1_555 1_555
C10 C12 1_555 1_555
C11 C16 1_555 1_555
C14 C15 1_555 1_555
C6 H3 1_555 1_555
C6 H4 1_555 1_555
C10 H11 1_555 1_555
C10 H12 1_555 1_555
C11 H15 1_555 1_555
C11 H16 1_555 1_555
C7 H17 1_555 1_555
C7 H18 1_555 1_555
C13 H19 1_555 1_555
C13 H20 1_555 1_555
C14 H21 1_555 1_555
C14 H22 1_555 1_555
O43_2 Cu6_2 1_555 1_555
O1 C1 1_555 1_555
O2 Er1 1_555 1_555
O3 Cu1_2 1_555 1_555
O4 Cu1_2 1_555 1_555
C1 C2 1_555 1_555
Er1 O1 1_555 1_555
C2 O2 1_555 1_555
C3 O1 1_555 1_555
C4 C3 1_555 1_555
O6 Er1 1_555 1_555
O7 C4 1_555 1_555
O9 Cu1_2 1_555 1_555
Cu3 O7 1_555 1_555
O11 Er1 1_555 1_555
O12 Er1 1_555 1_555
O13 Er1 1_555 1_555
O14 Er1 1_555 1_555
O15 Er1 1_555 1_555
O16 Er1 1_555 1_555
C17 O13 1_555 1_555
C18 O12 1_555 1_555
C19 O12 1_555 1_555
C20 O16 1_555 1_555
C21 O15 1_555 1_555
C22 O14 1_555 1_555
O35 C17 1_555 1_555
C23 O11 1_555 1_555
O32 C20 1_555 1_555
O33 C21 1_555 1_555
O34 C22 1_555 1_555
C24 O11 1_555 1_555
Cu7 O32 1_555 1_555
Cu5 O33 1_555 1_555
Cu6_3 O34 1_555 1_555
O44 Cu6_3 1_555 1_555
O3 C2 1_555 1_555
C4 O6 1_555 1_555
C17 C23 1_555 1_555
C18 C21 1_555 1_555
C19 C20 1_555 1_555
C22 C24 1_555 1_555
C3 H5 1_555 1_555
C3 H6 1_555 1_555
C1 H7 1_555 1_555
C1 H8 1_555 1_555
C24 H13 1_555 1_555
C24 H14 1_555 1_555
C19 H23 1_555 1_555
C19 H24 1_555 1_555
C18 H29 1_555 1_555
C18 H30 1_555 1_555
C23 H35 1_555 1_555
C23 H36 1_555 1_555
O42 Cu6_4 1_555 1_555
O44_2 Cu6_4 1_555 1_555
O1_2 C1_2 1_555 1_555
O2_2 Er1_2 1_555 1_555
C1_2 C2_2 1_555 1_555
Er1_2 O1_2 1_555 1_555
C2_2 O2_2 1_555 1_555
C3_2 O1_2 1_555 1_555
C4_2 C3_2 1_555 1_555
O6_2 Er1_2 1_555 1_555
O40 C4_2 1_555 1_555
O11_2 Er1_2 1_555 1_555
O12_2 Er1_2 1_555 1_555
O13_2 Er1_2 1_555 1_555
O14_2 Er1_2 1_555 1_555
O15_2 Er1_2 1_555 1_555
O16_2 Er1_2 1_555 1_555
C5_2 O37 1_555 1_555
O17_2 C5_2 1_555 1_555
C6_2 C5_2 1_555 1_555
Er2_2 O17_2 1_555 1_555
O18_2 C6_2 1_555 1_555
C7_2 O18_2 1_555 1_555
C8_2 C7_2 1_555 1_555
O19_2 Er2_2 1_555 1_555
O42 C8_2 1_555 1_555
O21_2 Er2_2 1_555 1_555
O22_2 Er2_2 1_555 1_555
O23_2 Er2_2 1_555 1_555
O24_2 Er2_2 1_555 1_555
O25_2 Er2_2 1_555 1_555
O26_2 Er2_2 1_555 1_555
C9_2 O23_2 1_555 1_555
C10_2 O22_2 1_555 1_555
C11_2 O22_2 1_555 1_555
C12_2 O25_2 1_555 1_555
C13_2 O21_2 1_555 1_555
C14_2 O21_2 1_555 1_555
C15_2 O24_2 1_555 1_555
O27_2 C9_2 1_555 1_555
C16_2 O26_2 1_555 1_555
O9 C12_2 1_555 1_555
O29_2 C15_2 1_555 1_555
Cu5 O27_2 1_555 1_555
O30_2 C16_2 1_555 1_555
Cu7_2 O29_2 1_555 1_555
Cu3_2 O30_2 1_555 1_555
C17_2 O13_2 1_555 1_555
C18_2 O12_2 1_555 1_555
C19_2 O12_2 1_555 1_555
C20_2 O16_2 1_555 1_555
C21_2 O15_2 1_555 1_555
C22_2 O14_2 1_555 1_555
O31 C17_2 1_555 1_555
C23_2 O11_2 1_555 1_555
O32_2 C20_2 1_555 1_555
O5 C21_2 1_555 1_555
O34_2 C22_2 1_555 1_555
C24_2 O11_2 1_555 1_555
Cu5_2 O31 1_555 1_555
Cu3_3 O32_2 1_555 1_555
Cu7 O34_2 1_555 1_555
O38_2 Cu5 1_555 1_555
O43_3 Cu7 1_555 1_555
O44_3 Cu7 1_555 1_555
O36 C2_2 1_555 1_555
C4_2 O6_2 1_555 1_555
Er2_2 O18_2 1_555 1_555
C8_2 O19_2 1_555 1_555
C9_2 C13_2 1_555 1_555
C10_2 C12_2 1_555 1_555
C11_2 C16_2 1_555 1_555
C14_2 C15_2 1_555 1_555
C17_2 C23_2 1_555 1_555
C18_2 C21_2 1_555 1_555
C19_2 C20_2 1_555 1_555
C22_2 C24_2 1_555 1_555
C6_2 H3_2 1_555 1_555
C6_2 H4_2 1_555 1_555
C3_2 H5_2 1_555 1_555
C3_2 H6_2 1_555 1_555
C1_2 H7_2 1_555 1_555
C1_2 H8_2 1_555 1_555
C10_2 H11_2 1_555 1_555
C10_2 H12_2 1_555 1_555
C24_2 H13_2 1_555 1_555
C24_2 H14_2 1_555 1_555
C11_2 H15_2 1_555 1_555
C11_2 H16_2 1_555 1_555
C7_2 H17_2 1_555 1_555
C7_2 H18_2 1_555 1_555
C13_2 H19_2 1_555 1_555
C13_2 H20_2 1_555 1_555
C14_2 H21_2 1_555 1_555
C14_2 H22_2 1_555 1_555
C19_2 H23_2 1_555 1_555
C19_2 H24_2 1_555 1_555
C18_2 H29_2 1_555 1_555
C18_2 H30_2 1_555 1_555
C23_2 H35_2 1_555 1_555
C23_2 H36_2 1_555 1_555
O43_4 Cu7_2 1_555 1_555
O44_4 Cu7_2 1_555 1_555
O39_2 Cu5_2 1_555 1_555
O4_2 Cu3 1_555 1_555
O4_3 Cu3_2 1_555 1_555
O8_2 Cu3_3 1_555 1_555
O8_3 Cu3_4 1_555 1_555
O15 Er1_3 1_555 1_555
Er1_3 O12 1_555 1_555
O16 Er1_3 1_555 1_555
O1 Er1_3 1_555 1_555
O11 Er1_3 1_555 1_555
O2 Er1_3 1_555 1_555
O6 Er1_3 1_555 1_555
O13 Er1_3 1_555 1_555
O14 Er1_3 1_555 1_555
Er2_3 O25 1_555 1_555
O26 Er2_3 1_555 1_555
O18 Er2_3 1_555 1_555
O21 Er2_3 1_555 1_555
O17 Er2_3 1_555 1_555
O19 Er2_3 1_555 1_555
O23 Er2_3 1_555 1_555
O24 Er2_3 1_555 1_555
Er2_3 O22 1_555 1_555
O15_2 Er1_4 1_555 1_555
Er1_4 O12_2 1_555 1_555
O16_2 Er1_4 1_555 1_555
O1_2 Er1_4 1_555 1_555
O11_2 Er1_4 1_555 1_555
O2_2 Er1_4 1_555 1_555
O6_2 Er1_4 1_555 1_555
O13_2 Er1_4 1_555 1_555
O14_2 Er1_4 1_555 1_555
Er2_4 O25_2 1_555 1_555
O26_2 Er2_4 1_555 1_555
O18_2 Er2_4 1_555 1_555
O21_2 Er2_4 1_555 1_555
O17_2 Er2_4 1_555 1_555
O19_2 Er2_4 1_555 1_555
O23_2 Er2_4 1_555 1_555
O24_2 Er2_4 1_555 1_555
Er2_4 O22_2 1_555 1_555
O13 Er1_5 1_555 1_555
Er1_5 O11 1_555 1_555
O14 Er1_5 1_555 1_555
O12 Er1_5 1_555 1_555
O1 Er1_5 1_555 1_555
O15 Er1_5 1_555 1_555
O16 Er1_5 1_555 1_555
O2 Er1_5 1_555 1_555
O6 Er1_5 1_555 1_555
Er2_5 O23 1_555 1_555
O24 Er2_5 1_555 1_555
O22 Er2_5 1_555 1_555
O18 Er2_5 1_555 1_555
O25 Er2_5 1_555 1_555
O26 Er2_5 1_555 1_555
O17 Er2_5 1_555 1_555
O19 Er2_5 1_555 1_555
Er2_5 O21 1_555 1_555
Er2_6 O23_2 1_555 1_555
O24_2 Er2_6 1_555 1_555
O22_2 Er2_6 1_555 1_555
O18_2 Er2_6 1_555 1_555
O25_2 Er2_6 1_555 1_555
O26_2 Er2_6 1_555 1_555
O17_2 Er2_6 1_555 1_555
O19_2 Er2_6 1_555 1_555
Er2_6 O21_2 1_555 1_555
O13_2 Er1_6 1_555 1_555
Er1_6 O11_2 1_555 1_555
O14_2 Er1_6 1_555 1_555
O12_2 Er1_6 1_555 1_555
O1_2 Er1_6 1_555 1_555
O15_2 Er1_6 1_555 1_555
O16_2 Er1_6 1_555 1_555
O2_2 Er1_6 1_555 1_555
O6_2 Er1_6 1_555 1_555

#END
