
###############################################################################
#
# This file contains modified crystal structure data generated from the
# MOF subset of the Cambridge Structural Database (CSD) v543 
# hosted by the Cambridge Crystallographic Data Centre (CCDC).
#
# This work is licensed under the Creative Commons
# Attribution-NonCommercial-ShareAlike 4.0 International License.
# To view a copy of this license, visit
# http://creativecommons.org/licenses/by-nc-sa/4.0/
# or send a letter to
# Creative Commons, PO Box 1866, Mountain View, CA 94042, USA.
#
# CIF created using the CSD Python API on 29 September 2022
# The structure has been converted into the P1 space group
# The structure has a 3D framework
# The original CSD entry NIKDAM is in the monoclinic crystal system
# The framework has been calculated to contain at least 10.0% void space
# The void calculation uses a probe of radius 1.32A, grid spacing 0.4
# H atom positions have been added when not included in the experimental data
# Generated hydrogen atom positions removed from atoms on special positions
#
###############################################################################

data_NIKDAM
_chemical_formula_moiety         '(C88 H184 Ce6 N16 O40)n'
_symmetry_cell_setting           triclinic
_symmetry_space_group_name_H-M   'P 1'
_symmetry_Int_Tables_number      1
_space_group_name_Hall           'P 1'
loop_
_symmetry_equiv_pos_site_id
_symmetry_equiv_pos_as_xyz
1 x,y,z
_cell_length_a                   29.523(4)
_cell_length_b                   17.492(3)
_cell_length_c                   8.509(1)
_cell_angle_alpha                90
_cell_angle_beta                 98.72(1)
_cell_angle_gamma                90
_cell_volume                     4343.39
loop_
_atom_site_label
_atom_site_type_symbol
_atom_site_fract_x
_atom_site_fract_y
_atom_site_fract_z
Ce4 Ce 0.0000 0.00907(4) 0.2500
Ce3 Ce 0.0000 0.99093(4) 0.7500
O1 O 0.5420(2) 0.4674(3) 0.0149(7)
C1 C 0.5797(3) 0.4483(5) 0.1039(9)
C2 C 0.6156(3) 0.4110(5) 0.024(1)
C3 C 0.6607(3) 0.4072(5) 0.134(1)
N1 N 0.6984(2) 0.3731(4) 0.0541(9)
H3 H 0.6707 0.4630 0.1712
H4 H 0.6564 0.3730 0.2378
H5 H 0.7270 0.3765 0.1303
C7 C 0.6821(3) 0.2390(5) 0.130(1)
C8 C 0.6710(3) 0.1596(5) 0.068(1)
H12 H 0.7032 0.2430 0.2068
H13 H 0.6587 0.2565 0.1740
C9 C 0.8078(3) 0.4404(5) 0.105(1)
H15 H 0.6626 0.1248 0.1651
C10 C 0.8305(3) 0.4121(6) 0.268(1)
H16 H 0.7899 0.4905 0.1155
H17 H 0.8333 0.4710 0.0463
C11 C 0.7983(3) 0.3747(6) 0.366(1)
H18 H 0.8509 0.3720 0.2114
H19 H 0.8458 0.4618 0.3311
O4 O 0.7559(2) 0.3839(4) 0.3299(8)
O5 O 0.8162(3) 0.3375(6) 0.486(1)
Ce2 Ce 0.5000 0.50907(4) 0.2500
O11 O 0.5836(2) 0.4585(4) 0.2498(7)
N3 N 0.7095(2) 0.1229(4) 0.0010(9)
H20 H 0.8516 0.3401 0.0251
C14 C 0.7448(3) 0.0987(5) 0.128(1)
C16 C 0.8115(3) 0.2064(5) 0.004(1)
C17 C 0.7890(3) 0.0740(5) 0.072(1)
H24 H 0.7369 0.0584 0.1864
H25 H 0.7522 0.1448 0.2118
H28 H 0.8393 0.2025 0.0739
H29 H 0.7864 0.2205 0.0649
H30 H 0.7769 0.0270 0.0448
H31 H 0.8117 0.0632 0.1570
H37 H 0.8826 0.0660 0.0746
H38 H 0.8938 0.1461 0.0117
Ce4_2 Ce 1.0000 0.00907(4) 0.2500
Ce1 Ce 0.5000 0.49093(4) 0.7500
O2 O 0.5447(3) 0.3774(4) 0.6822(9)
O3 O 0.4164(2) 0.5415(4) 0.7502(7)
H1 H 0.6174 0.4340 0.9254
H2 H 0.6062 0.3539 0.9883
C4 C 0.7110(3) 0.4260(5) 0.928(1)
C5 C 0.6885(3) 0.2936(5) 0.996(1)
C6 C 0.7552(3) 0.4013(5) 0.872(1)
H6 H 0.7231 0.4730 0.9552
H7 H 0.6883 0.4368 0.8430
H8 H 0.6607 0.2975 0.9261
H9 H 0.7136 0.2795 0.9351
N2 N 0.7905(2) 0.3771(4) 0.9990(9)
H10 H 0.7631 0.4416 0.8136
H11 H 0.7478 0.3552 0.7882
H14 H 0.6484 0.1599 0.9749
O6 O 0.4553(3) 0.3774(4) 0.8178(9)
O7 O 0.4580(2) 0.4674(3) 0.4851(7)
O8 O 0.4580(2) 0.5326(3) 0.9851(7)
O9 O 0.5420(2) 0.5326(3) 0.5149(7)
O10 O 0.5836(2) 0.5415(4) 0.7498(7)
C12 C 0.8290(3) 0.3404(5) 0.932(1)
C13 C 0.8179(3) 0.2610(5) 0.870(1)
H21 H 0.8374 0.3752 0.8349
C15 C 0.6922(3) 0.0596(5) 0.895(1)
H22 H 0.7968 0.2570 0.7932
H23 H 0.8413 0.2435 0.8260
C18 C 0.6695(3) 0.0879(6) 0.732(1)
H26 H 0.7101 0.0095 0.8845
H27 H 0.6667 0.0290 0.9537
N4 N 0.8016(2) 0.1269(4) 0.9459(9)
C19 C 0.7017(3) 0.1253(6) 0.634(1)
H32 H 0.6491 0.1280 0.7886
H33 H 0.6542 0.0382 0.6689
C20 C 0.8393(3) 0.0928(5) 0.866(1)
H34 H 0.7730 0.1235 0.8697
O12 O 0.7441(2) 0.1161(4) 0.6701(8)
O13 O 0.6838(3) 0.1625(6) 0.514(1)
C21 C 0.8844(3) 0.0890(5) 0.976(1)
H35 H 0.8293 0.0370 0.8288
H36 H 0.8436 0.1270 0.7622
C22 C 0.9203(3) 0.0517(5) 0.8961(9)
O14 O 0.9580(2) 0.0326(3) 0.9851(7)
O15 O 0.9164(2) 0.0415(4) 0.7502(7)
Ce3_2 Ce 1.0000 0.99093(4) 0.7500
C1_2 C 0.4203(3) 0.4483(5) 0.3961(9)
C2_2 C 0.3844(3) 0.4110(5) 0.476(1)
C3_2 C 0.3393(3) 0.4072(5) 0.366(1)
H1_2 H 0.3826 0.4340 0.5746
H2_2 H 0.3938 0.3539 0.5117
N1_2 N 0.3016(2) 0.3731(4) 0.4459(9)
H3_2 H 0.3293 0.4630 0.3288
H4_2 H 0.3436 0.3730 0.2622
C4_2 C 0.2890(3) 0.4260(5) 0.572(1)
H5_2 H 0.2730 0.3765 0.3697
C5_2 C 0.3115(3) 0.2936(5) 0.504(1)
C6_2 C 0.2448(3) 0.4013(5) 0.628(1)
H6_2 H 0.2769 0.4730 0.5448
H7_2 H 0.3117 0.4368 0.6570
C7_2 C 0.3179(3) 0.2390(5) 0.370(1)
H8_2 H 0.3393 0.2975 0.5739
H9_2 H 0.2864 0.2795 0.5649
N2_2 N 0.2095(2) 0.3771(4) 0.5010(9)
H10_2 H 0.2369 0.4416 0.6864
H11_2 H 0.2522 0.3552 0.7118
C8_2 C 0.3290(3) 0.1596(5) 0.432(1)
H12_2 H 0.2968 0.2430 0.2932
H13_2 H 0.3413 0.2565 0.3260
C9_2 C 0.1922(3) 0.4404(5) 0.395(1)
H14_2 H 0.3516 0.1599 0.5251
H15_2 H 0.3374 0.1248 0.3349
C10_2 C 0.1695(3) 0.4121(6) 0.232(1)
H16_2 H 0.2101 0.4905 0.3845
H17_2 H 0.1667 0.4710 0.4537
C11_2 C 0.2017(3) 0.3747(6) 0.134(1)
H18_2 H 0.1491 0.3720 0.2886
H19_2 H 0.1542 0.4618 0.1689
O4_2 O 0.2441(2) 0.3839(4) 0.1701(8)
O5_2 O 0.1838(3) 0.3375(6) 0.014(1)
O11_2 O 0.4164(2) 0.4585(4) 0.2502(7)
C12_2 C 0.1710(3) 0.3404(5) 0.568(1)
N3_2 N 0.2905(2) 0.1229(4) 0.4990(9)
C13_2 C 0.1821(3) 0.2610(5) 0.630(1)
H20_2 H 0.1484 0.3401 0.4749
H21_2 H 0.1626 0.3752 0.6651
C14_2 C 0.2552(3) 0.0987(5) 0.372(1)
C15_2 C 0.3078(3) 0.0596(5) 0.605(1)
C16_2 C 0.1885(3) 0.2064(5) 0.496(1)
H22_2 H 0.2032 0.2570 0.7068
H23_2 H 0.1587 0.2435 0.6740
C17_2 C 0.2110(3) 0.0740(5) 0.428(1)
H24_2 H 0.2631 0.0584 0.3136
H25_2 H 0.2478 0.1448 0.2882
C18_2 C 0.3305(3) 0.0879(6) 0.768(1)
H26_2 H 0.2899 0.0095 0.6155
H27_2 H 0.3333 0.0290 0.5463
N4_2 N 0.1984(2) 0.1269(4) 0.5541(9)
H28_2 H 0.1607 0.2025 0.4261
H29_2 H 0.2136 0.2205 0.4351
H30_2 H 0.2231 0.0270 0.4552
H31_2 H 0.1883 0.0632 0.3430
C19_2 C 0.2983(3) 0.1253(6) 0.866(1)
H32_2 H 0.3509 0.1280 0.7114
H33_2 H 0.3458 0.0382 0.8311
C20_2 C 0.1607(3) 0.0928(5) 0.634(1)
H34_2 H 0.2270 0.1235 0.6303
O12_2 O 0.2559(2) 0.1161(4) 0.8299(8)
O13_2 O 0.3162(3) 0.1625(6) 0.986(1)
C21_2 C 0.1156(3) 0.0890(5) 0.524(1)
H35_2 H 0.1707 0.0370 0.6712
H36_2 H 0.1564 0.1270 0.7378
C22_2 C 0.0797(3) 0.0517(5) 0.6039(9)
H37_2 H 0.1174 0.0660 0.4254
H38_2 H 0.1062 0.1461 0.4883
O14_2 O 0.0420(2) 0.0326(3) 0.5149(7)
O15_2 O 0.0836(2) 0.0415(4) 0.7498(7)
O1_2 O 0.0420(2) 0.9674(3) 0.0149(7)
C1_3 C 0.0797(3) 0.9483(5) 0.1039(9)
C2_3 C 0.1156(3) 0.9110(5) 0.024(1)
C3_3 C 0.1607(3) 0.9072(5) 0.134(1)
N1_3 N 0.1984(2) 0.8731(4) 0.0541(9)
H3_3 H 0.1707 0.9630 0.1712
H4_3 H 0.1564 0.8730 0.2378
H5_3 H 0.2270 0.8765 0.1303
C7_3 C 0.1821(3) 0.7390(5) 0.130(1)
C8_3 C 0.1710(3) 0.6596(5) 0.068(1)
H12_3 H 0.2032 0.7430 0.2068
H13_3 H 0.1587 0.7565 0.1740
C9_3 C 0.3078(3) 0.9404(5) 0.105(1)
H15_3 H 0.1626 0.6248 0.1651
C10_3 C 0.3305(3) 0.9121(6) 0.268(1)
H16_3 H 0.2899 0.9905 0.1155
H17_3 H 0.3333 0.9710 0.0463
C11_3 C 0.2983(3) 0.8747(6) 0.366(1)
H18_3 H 0.3509 0.8720 0.2114
H19_3 H 0.3458 0.9618 0.3311
O4_3 O 0.2559(2) 0.8839(4) 0.3299(8)
O5_3 O 0.3162(3) 0.8375(6) 0.486(1)
O11_3 O 0.0836(2) 0.9585(4) 0.2498(7)
N3_3 N 0.2095(2) 0.6229(4) 0.0010(9)
H20_3 H 0.3516 0.8401 0.0251
C14_3 C 0.2448(3) 0.5987(5) 0.128(1)
C16_3 C 0.3115(3) 0.7064(5) 0.004(1)
C17_3 C 0.2890(3) 0.5740(5) 0.072(1)
H24_3 H 0.2369 0.5584 0.1864
H25_3 H 0.2522 0.6448 0.2118
H28_3 H 0.3393 0.7025 0.0739
H29_3 H 0.2864 0.7205 0.0649
H30_3 H 0.2769 0.5270 0.0448
H31_3 H 0.3117 0.5632 0.1570
H37_3 H 0.3826 0.5660 0.0746
H38_3 H 0.3938 0.6461 0.0117
O2_2 O 0.0447(3) 0.8774(4) 0.6822(9)
H1_3 H 0.1174 0.9340 0.9254
H2_3 H 0.1062 0.8539 0.9883
C4_3 C 0.2110(3) 0.9260(5) 0.928(1)
C5_3 C 0.1885(3) 0.7936(5) 0.996(1)
C6_3 C 0.2552(3) 0.9013(5) 0.872(1)
H6_3 H 0.2231 0.9730 0.9552
H7_3 H 0.1883 0.9368 0.8430
H8_3 H 0.1607 0.7975 0.9261
H9_3 H 0.2136 0.7795 0.9351
N2_3 N 0.2905(2) 0.8771(4) 0.9990(9)
H10_3 H 0.2631 0.9416 0.8136
H11_3 H 0.2478 0.8552 0.7882
H14_3 H 0.1484 0.6599 0.9749
C12_3 C 0.3290(3) 0.8404(5) 0.932(1)
C13_3 C 0.3179(3) 0.7610(5) 0.870(1)
H21_3 H 0.3374 0.8752 0.8349
C15_3 C 0.1922(3) 0.5596(5) 0.895(1)
H22_3 H 0.2968 0.7570 0.7932
H23_3 H 0.3413 0.7435 0.8260
C18_3 C 0.1695(3) 0.5879(6) 0.732(1)
H26_3 H 0.2101 0.5095 0.8845
H27_3 H 0.1667 0.5290 0.9537
N4_3 N 0.3016(2) 0.6269(4) 0.9459(9)
C19_3 C 0.2017(3) 0.6253(6) 0.634(1)
H32_3 H 0.1491 0.6280 0.7886
H33_3 H 0.1542 0.5382 0.6689
C20_3 C 0.3393(3) 0.5928(5) 0.866(1)
H34_3 H 0.2730 0.6235 0.8697
O12_3 O 0.2441(2) 0.6161(4) 0.6701(8)
O13_3 O 0.1838(3) 0.6625(6) 0.514(1)
C21_3 C 0.3844(3) 0.5890(5) 0.976(1)
H35_3 H 0.3293 0.5370 0.8288
H36_3 H 0.3436 0.6270 0.7622
C22_3 C 0.4203(3) 0.5517(5) 0.8961(9)
O6_2 O 0.9553(3) 0.8774(4) 0.8178(9)
O7_2 O 0.9580(2) 0.9674(3) 0.4851(7)
C1_4 C 0.9203(3) 0.9483(5) 0.3961(9)
C2_4 C 0.8844(3) 0.9110(5) 0.476(1)
C3_4 C 0.8393(3) 0.9072(5) 0.366(1)
H1_4 H 0.8826 0.9340 0.5746
H2_4 H 0.8938 0.8539 0.5117
N1_4 N 0.8016(2) 0.8731(4) 0.4459(9)
H3_4 H 0.8293 0.9630 0.3288
H4_4 H 0.8436 0.8730 0.2622
C4_4 C 0.7890(3) 0.9260(5) 0.572(1)
H5_4 H 0.7730 0.8765 0.3697
C5_4 C 0.8115(3) 0.7936(5) 0.504(1)
C6_4 C 0.7448(3) 0.9013(5) 0.628(1)
H6_4 H 0.7769 0.9730 0.5448
H7_4 H 0.8117 0.9368 0.6570
C7_4 C 0.8179(3) 0.7390(5) 0.370(1)
H8_4 H 0.8393 0.7975 0.5739
H9_4 H 0.7864 0.7795 0.5649
N2_4 N 0.7095(2) 0.8771(4) 0.5010(9)
H10_4 H 0.7369 0.9416 0.6864
H11_4 H 0.7522 0.8552 0.7118
C8_4 C 0.8290(3) 0.6596(5) 0.432(1)
H12_4 H 0.7968 0.7430 0.2932
H13_4 H 0.8413 0.7565 0.3260
C9_4 C 0.6922(3) 0.9404(5) 0.395(1)
H14_4 H 0.8516 0.6599 0.5251
H15_4 H 0.8374 0.6248 0.3349
C10_4 C 0.6695(3) 0.9121(6) 0.232(1)
H16_4 H 0.7101 0.9905 0.3845
H17_4 H 0.6667 0.9710 0.4537
C11_4 C 0.7017(3) 0.8747(6) 0.134(1)
H18_4 H 0.6491 0.8720 0.2886
H19_4 H 0.6542 0.9618 0.1689
O4_4 O 0.7441(2) 0.8839(4) 0.1701(8)
O5_4 O 0.6838(3) 0.8375(6) 0.014(1)
O11_4 O 0.9164(2) 0.9585(4) 0.2502(7)
C12_4 C 0.6710(3) 0.8404(5) 0.568(1)
N3_4 N 0.7905(2) 0.6229(4) 0.4990(9)
C13_4 C 0.6821(3) 0.7610(5) 0.630(1)
H20_4 H 0.6484 0.8401 0.4749
H21_4 H 0.6626 0.8752 0.6651
C14_4 C 0.7552(3) 0.5987(5) 0.372(1)
C15_4 C 0.8078(3) 0.5596(5) 0.605(1)
C16_4 C 0.6885(3) 0.7064(5) 0.496(1)
H22_4 H 0.7032 0.7570 0.7068
H23_4 H 0.6587 0.7435 0.6740
C17_4 C 0.7110(3) 0.5740(5) 0.428(1)
H24_4 H 0.7631 0.5584 0.3136
H25_4 H 0.7478 0.6448 0.2882
C18_4 C 0.8305(3) 0.5879(6) 0.768(1)
H26_4 H 0.7899 0.5095 0.6155
H27_4 H 0.8333 0.5290 0.5463
N4_4 N 0.6984(2) 0.6269(4) 0.5541(9)
H28_4 H 0.6607 0.7025 0.4261
H29_4 H 0.7136 0.7205 0.4351
H30_4 H 0.7231 0.5270 0.4552
H31_4 H 0.6883 0.5632 0.3430
C19_4 C 0.7983(3) 0.6253(6) 0.866(1)
H32_4 H 0.8509 0.6280 0.7114
H33_4 H 0.8458 0.5382 0.8311
C20_4 C 0.6607(3) 0.5928(5) 0.634(1)
H34_4 H 0.7270 0.6235 0.6303
O12_4 O 0.7559(2) 0.6161(4) 0.8299(8)
O13_4 O 0.8162(3) 0.6625(6) 0.986(1)
C21_4 C 0.6156(3) 0.5890(5) 0.524(1)
H35_4 H 0.6707 0.5370 0.6712
H36_4 H 0.6564 0.6270 0.7378
C22_4 C 0.5797(3) 0.5517(5) 0.6039(9)
H37_4 H 0.6174 0.5660 0.4254
H38_4 H 0.6062 0.6461 0.4883
O2_3 O 0.4553(3) 0.6226(4) 0.3178(9)
O6_3 O 0.5447(3) 0.6226(4) 0.1822(9)
O6_4 O 0.0447(3) 0.1226(4) 0.1822(9)
O2_4 O 0.9553(3) 0.1226(4) 0.3178(9)
loop_
_geom_bond_atom_site_label_1
_geom_bond_atom_site_label_2
_geom_bond_site_symmetry_1
_geom_bond_site_symmetry_2
O1 C1 1_555 1_555
C1 C2 1_555 1_555
C2 C3 1_555 1_555
C3 N1 1_555 1_555
H3 C3 1_555 1_555
H4 C3 1_555 1_555
H5 N1 1_555 1_555
C8 C7 1_555 1_555
H12 C7 1_555 1_555
H13 C7 1_555 1_555
C9 C10 1_555 1_555
H15 C8 1_555 1_555
C10 C11 1_555 1_555
H16 C9 1_555 1_555
H17 C9 1_555 1_555
C11 O4 1_555 1_555
H18 C10 1_555 1_555
H19 C10 1_555 1_555
O5 C11 1_555 1_555
Ce2 O1 1_555 1_555
O11 C1 1_555 1_555
N3 C8 1_555 1_555
C14 N3 1_555 1_555
C17 C14 1_555 1_555
H24 C14 1_555 1_555
H25 C14 1_555 1_555
H28 C16 1_555 1_555
H29 C16 1_555 1_555
H30 C17 1_555 1_555
H31 C17 1_555 1_555
Ce2 O11 1_555 1_555
O2 Ce1 1_555 1_555
O3 Ce1 1_555 1_555
C4 C6 1_555 1_555
C6 N2 1_555 1_555
H6 C4 1_555 1_555
H7 C4 1_555 1_555
H8 C5 1_555 1_555
H9 C5 1_555 1_555
H10 C6 1_555 1_555
H11 C6 1_555 1_555
O6 Ce1 1_555 1_555
O7 Ce1 1_555 1_555
O8 Ce1 1_555 1_555
O9 Ce1 1_555 1_555
O10 Ce1 1_555 1_555
C12 N2 1_555 1_555
C13 C12 1_555 1_555
H21 C12 1_555 1_555
H22 C13 1_555 1_555
H23 C13 1_555 1_555
C18 C15 1_555 1_555
H26 C15 1_555 1_555
H27 C15 1_555 1_555
C19 C18 1_555 1_555
H32 C18 1_555 1_555
H33 C18 1_555 1_555
C20 N4 1_555 1_555
H34 N4 1_555 1_555
O12 C19 1_555 1_555
O13 C19 1_555 1_555
C21 C20 1_555 1_555
H35 C20 1_555 1_555
H36 C20 1_555 1_555
C22 C21 1_555 1_555
O14 C22 1_555 1_555
O15 C22 1_555 1_555
O7 C1_2 1_555 1_555
C1_2 C2_2 1_555 1_555
C2_2 C3_2 1_555 1_555
C3_2 N1_2 1_555 1_555
H1_2 C2_2 1_555 1_555
H2_2 C2_2 1_555 1_555
N1_2 C4_2 1_555 1_555
H3_2 C3_2 1_555 1_555
H4_2 C3_2 1_555 1_555
C4_2 C6_2 1_555 1_555
H5_2 N1_2 1_555 1_555
C5_2 N1_2 1_555 1_555
C6_2 N2_2 1_555 1_555
H6_2 C4_2 1_555 1_555
H7_2 C4_2 1_555 1_555
C7_2 C5_2 1_555 1_555
H8_2 C5_2 1_555 1_555
H9_2 C5_2 1_555 1_555
N2_2 C9_2 1_555 1_555
H10_2 C6_2 1_555 1_555
H11_2 C6_2 1_555 1_555
C8_2 C7_2 1_555 1_555
H12_2 C7_2 1_555 1_555
H13_2 C7_2 1_555 1_555
C9_2 C10_2 1_555 1_555
H14_2 C8_2 1_555 1_555
H15_2 C8_2 1_555 1_555
C10_2 C11_2 1_555 1_555
H16_2 C9_2 1_555 1_555
H17_2 C9_2 1_555 1_555
C11_2 O4_2 1_555 1_555
H18_2 C10_2 1_555 1_555
H19_2 C10_2 1_555 1_555
O5_2 C11_2 1_555 1_555
Ce2 O7 1_555 1_555
O11_2 C1_2 1_555 1_555
C12_2 N2_2 1_555 1_555
N3_2 C8_2 1_555 1_555
C13_2 C12_2 1_555 1_555
H20_2 C12_2 1_555 1_555
H21_2 C12_2 1_555 1_555
C14_2 N3_2 1_555 1_555
C15_2 N3_2 1_555 1_555
C16_2 C13_2 1_555 1_555
H22_2 C13_2 1_555 1_555
H23_2 C13_2 1_555 1_555
C17_2 C14_2 1_555 1_555
H24_2 C14_2 1_555 1_555
H25_2 C14_2 1_555 1_555
C18_2 C15_2 1_555 1_555
H26_2 C15_2 1_555 1_555
H27_2 C15_2 1_555 1_555
N4_2 C16_2 1_555 1_555
H28_2 C16_2 1_555 1_555
H29_2 C16_2 1_555 1_555
H30_2 C17_2 1_555 1_555
H31_2 C17_2 1_555 1_555
C19_2 C18_2 1_555 1_555
H32_2 C18_2 1_555 1_555
H33_2 C18_2 1_555 1_555
C20_2 N4_2 1_555 1_555
H34_2 N4_2 1_555 1_555
O12_2 C19_2 1_555 1_555
O13_2 C19_2 1_555 1_555
C21_2 C20_2 1_555 1_555
H35_2 C20_2 1_555 1_555
H36_2 C20_2 1_555 1_555
C22_2 C21_2 1_555 1_555
H37_2 C21_2 1_555 1_555
H38_2 C21_2 1_555 1_555
O14_2 C22_2 1_555 1_555
O15_2 C22_2 1_555 1_555
Ce4 O14_2 1_555 1_555
O9 Ce2 1_555 1_555
Ce2 O11_2 1_555 1_555
C17_2 N4_2 1_555 1_555
O1_2 C1_3 1_555 1_555
C1_3 C2_3 1_555 1_555
C2_3 C3_3 1_555 1_555
C3_3 N1_3 1_555 1_555
H3_3 C3_3 1_555 1_555
H4_3 C3_3 1_555 1_555
H5_3 N1_3 1_555 1_555
C8_3 C7_3 1_555 1_555
H12_3 C7_3 1_555 1_555
H13_3 C7_3 1_555 1_555
C9_3 C10_3 1_555 1_555
H15_3 C8_3 1_555 1_555
C10_3 C11_3 1_555 1_555
H16_3 C9_3 1_555 1_555
H17_3 C9_3 1_555 1_555
C11_3 O4_3 1_555 1_555
H18_3 C10_3 1_555 1_555
H19_3 C10_3 1_555 1_555
O5_3 C11_3 1_555 1_555
O11_3 C1_3 1_555 1_555
N3_3 C8_3 1_555 1_555
C14_3 N3_3 1_555 1_555
C17_3 C14_3 1_555 1_555
H24_3 C14_3 1_555 1_555
H25_3 C14_3 1_555 1_555
H28_3 C16_3 1_555 1_555
H29_3 C16_3 1_555 1_555
H30_3 C17_3 1_555 1_555
H31_3 C17_3 1_555 1_555
O2_2 Ce3 1_555 1_555
C4_3 C6_3 1_555 1_555
C6_3 N2_3 1_555 1_555
H6_3 C4_3 1_555 1_555
H7_3 C4_3 1_555 1_555
H8_3 C5_3 1_555 1_555
H9_3 C5_3 1_555 1_555
H10_3 C6_3 1_555 1_555
H11_3 C6_3 1_555 1_555
C12_3 N2_3 1_555 1_555
C13_3 C12_3 1_555 1_555
H21_3 C12_3 1_555 1_555
H22_3 C13_3 1_555 1_555
H23_3 C13_3 1_555 1_555
C18_3 C15_3 1_555 1_555
H26_3 C15_3 1_555 1_555
H27_3 C15_3 1_555 1_555
C19_3 C18_3 1_555 1_555
H32_3 C18_3 1_555 1_555
H33_3 C18_3 1_555 1_555
C20_3 N4_3 1_555 1_555
H34_3 N4_3 1_555 1_555
O12_3 C19_3 1_555 1_555
O13_3 C19_3 1_555 1_555
C21_3 C20_3 1_555 1_555
H35_3 C20_3 1_555 1_555
H36_3 C20_3 1_555 1_555
C22_3 C21_3 1_555 1_555
O8 C22_3 1_555 1_555
O3 C22_3 1_555 1_555
O6_2 Ce3_2 1_555 1_555
O7_2 Ce3_2 1_555 1_555
O7_2 C1_4 1_555 1_555
C1_4 C2_4 1_555 1_555
C2_4 C3_4 1_555 1_555
C3_4 N1_4 1_555 1_555
H1_4 C2_4 1_555 1_555
H2_4 C2_4 1_555 1_555
N1_4 C4_4 1_555 1_555
H3_4 C3_4 1_555 1_555
H4_4 C3_4 1_555 1_555
C4_4 C6_4 1_555 1_555
H5_4 N1_4 1_555 1_555
C5_4 N1_4 1_555 1_555
C6_4 N2_4 1_555 1_555
H6_4 C4_4 1_555 1_555
H7_4 C4_4 1_555 1_555
C7_4 C5_4 1_555 1_555
H8_4 C5_4 1_555 1_555
H9_4 C5_4 1_555 1_555
N2_4 C9_4 1_555 1_555
H10_4 C6_4 1_555 1_555
H11_4 C6_4 1_555 1_555
C8_4 C7_4 1_555 1_555
H12_4 C7_4 1_555 1_555
H13_4 C7_4 1_555 1_555
C9_4 C10_4 1_555 1_555
H14_4 C8_4 1_555 1_555
H15_4 C8_4 1_555 1_555
C10_4 C11_4 1_555 1_555
H16_4 C9_4 1_555 1_555
H17_4 C9_4 1_555 1_555
C11_4 O4_4 1_555 1_555
H18_4 C10_4 1_555 1_555
H19_4 C10_4 1_555 1_555
O5_4 C11_4 1_555 1_555
O11_4 C1_4 1_555 1_555
C12_4 N2_4 1_555 1_555
N3_4 C8_4 1_555 1_555
C13_4 C12_4 1_555 1_555
H20_4 C12_4 1_555 1_555
H21_4 C12_4 1_555 1_555
C14_4 N3_4 1_555 1_555
C15_4 N3_4 1_555 1_555
C16_4 C13_4 1_555 1_555
H22_4 C13_4 1_555 1_555
H23_4 C13_4 1_555 1_555
C17_4 C14_4 1_555 1_555
H24_4 C14_4 1_555 1_555
H25_4 C14_4 1_555 1_555
C18_4 C15_4 1_555 1_555
H26_4 C15_4 1_555 1_555
H27_4 C15_4 1_555 1_555
N4_4 C16_4 1_555 1_555
H28_4 C16_4 1_555 1_555
H29_4 C16_4 1_555 1_555
H30_4 C17_4 1_555 1_555
H31_4 C17_4 1_555 1_555
C19_4 C18_4 1_555 1_555
H32_4 C18_4 1_555 1_555
H33_4 C18_4 1_555 1_555
C20_4 N4_4 1_555 1_555
H34_4 N4_4 1_555 1_555
O12_4 C19_4 1_555 1_555
O13_4 C19_4 1_555 1_555
C21_4 C20_4 1_555 1_555
H35_4 C20_4 1_555 1_555
H36_4 C20_4 1_555 1_555
C22_4 C21_4 1_555 1_555
H37_4 C21_4 1_555 1_555
H38_4 C21_4 1_555 1_555
O9 C22_4 1_555 1_555
O10 C22_4 1_555 1_555
C17_4 N4_4 1_555 1_555
O2_3 Ce2 1_555 1_555
O6_3 Ce2 1_555 1_555
O6_4 Ce4 1_555 1_555
O2_4 Ce4_2 1_555 1_555

#END
