
###############################################################################
#
# This file contains modified crystal structure data generated from the
# MOF subset of the Cambridge Structural Database (CSD) v543 
# hosted by the Cambridge Crystallographic Data Centre (CCDC).
#
# This work is licensed under the Creative Commons
# Attribution-NonCommercial-ShareAlike 4.0 International License.
# To view a copy of this license, visit
# http://creativecommons.org/licenses/by-nc-sa/4.0/
# or send a letter to
# Creative Commons, PO Box 1866, Mountain View, CA 94042, USA.
#
# CIF created using the CSD Python API on 29 September 2022
# The structure has been converted into the P1 space group
# The structure has a 3D framework
# The original CSD entry NIKJUN is in the monoclinic crystal system
# The framework has been calculated to contain at least 10.0% void space
# The void calculation uses a probe of radius 1.32A, grid spacing 0.4
# H atom positions have been added when not included in the experimental data
#
###############################################################################

data_NIKJUN
_chemical_formula_moiety         '(C620 H388 Cu14 Dy16 N56 O120)n'
_symmetry_cell_setting           triclinic
_symmetry_space_group_name_H-M   'P 1'
_symmetry_Int_Tables_number      1
_space_group_name_Hall           'P 1'
loop_
_symmetry_equiv_pos_site_id
_symmetry_equiv_pos_as_xyz
1 x,y,z
_cell_length_a                   21.6137(8)
_cell_length_b                   23.9695(7)
_cell_length_c                   30.9377(11)
_cell_angle_alpha                90
_cell_angle_beta                 106.1922(17)
_cell_angle_gamma                90
_cell_volume                     15392.1
loop_
_atom_site_label
_atom_site_type_symbol
_atom_site_fract_x
_atom_site_fract_y
_atom_site_fract_z
Dy1 Dy 0.086420(16) 0.224990(13) 0.300560(11)
C2 C 0.1856(3) 0.3354(3) 0.0092(2)
H1 H 0.1962 0.3736 0.0150
C3 C 0.1763(3) 0.2969(3) 0.0392(2)
H2 H 0.1778 0.3034 0.0698
C4 C 0.1637(3) 0.2445(3) 0.0157(2)
C5 C 0.1426(3) 0.1964(3) 0.0330(2)
C6 C 0.1329(3) 0.1467(3) 0.0086(2)
C7 C 0.1143(4) 0.0956(3) 0.0261(3)
H3 H 0.1011 0.0917 0.0528
H4 H 0.1093 0.0160 0.0000
C21 C 0.1269(4) 0.1999(3) 0.0765(2)
C22 C 0.1737(3) 0.2031(3) 0.1162(3)
H9 H 0.2176 0.2018 0.1164
C23 C 0.1580(3) 0.2082(3) 0.1564(2)
H10 H 0.1912 0.2098 0.1840
C24 C 0.0935(3) 0.2109(2) 0.1566(2)
C25 C 0.0461(4) 0.2064(3) 0.1159(3)
H11 H 0.0020 0.2071 0.1156
C26 C 0.0617(3) 0.2008(3) 0.0762(3)
H12 H 0.0288 0.1975 0.0486
C27 C 0.0766(4) 0.2186(3) 0.1997(2)
O1 O 0.1213(2) 0.22042(18) 0.23577(16)
O2 O 0.0175(2) 0.22300(18) 0.19883(16)
C63 C -0.0000 0.0501(3) 0.2500
C64 C -0.0000 0.1089(3) 0.2500
O9 O 0.0490(2) 0.13563(17) 0.27398(17)
O13 O 0.1847(2) 0.17105(18) 0.31958(16)
C77 C 0.2229(4) 0.1579(4) 0.2972(3)
H37 H 0.2132 0.1719 0.2674
N7 N 0.2734(3) 0.1278(3) 0.3103(3)
C78 C 0.2941(4) 0.1028(4) 0.3546(3)
H38 H 0.2968 0.1315 0.3775
H39 H 0.3365 0.0856 0.3589
H40 H 0.2630 0.0741 0.3573
C79 C 0.3128(5) 0.1144(5) 0.2796(3)
H41 H 0.3142 0.0738 0.2759
H42 H 0.3566 0.1286 0.2923
H43 H 0.2937 0.1318 0.2502
O20 O 0.1147(2) 0.20993(18) 0.37918(17)
O23 O 0.1688(2) 0.29172(17) 0.33337(14)
C138 C 0.0523(4) 0.0178(3) 0.2755(3)
H77 H 0.0890 0.0366 0.2938
O40 O 0.0492(2) 0.31367(17) 0.27276(18)
C1 C 0.1762(3) 0.3069(3) 0.9672(2)
C8 C 0.1193(4) 0.0543(3) 0.9977(3)
H4_2 H 0.1093 0.0160 1.0000
C9 C 0.1427(3) 0.0800(3) 0.9629(2)
C10 C 0.1616(3) 0.0516(3) 0.9295(2)
C11 C 0.1832(3) 0.0780(3) 0.8966(2)
C12 C 0.2060(3) 0.0483(3) 0.8633(2)
H5 H 0.2122 0.0092 0.8616
C13 C 0.2162(3) 0.0872(3) 0.8355(2)
H6 H 0.2320 0.0809 0.8102
C14 C 0.1996(3) 0.1400(3) 0.8500(2)
C15 C 0.1935(3) 0.1890(3) 0.8251(2)
C16 C 0.1724(3) 0.2390(3) 0.8402(2)
C17 C 0.1597(3) 0.2890(3) 0.8147(2)
H7 H 0.1580 0.2930 0.7839
C18 C 0.1503(3) 0.3298(3) 0.8422(2)
H8 H 0.1389 0.3674 0.8343
C19 C 0.1609(3) 0.3049(3) 0.8858(2)
C20 C 0.1690(3) 0.3331(3) 0.9260(3)
N1 N 0.1672(2) 0.2502(2) 0.97193(18)
N2 N 0.1489(3) 0.1377(2) 0.96950(18)
N3 N 0.1817(3) 0.1339(2) 0.88929(19)
N4 N 0.1690(2) 0.2475(2) 0.88276(18)
C35 C 0.2112(3) 0.1872(3) 0.7817(2)
C36 C 0.2754(3) 0.1780(3) 0.7826(2)
H17 H 0.3067 0.1705 0.8104
C37 C 0.2933(3) 0.1800(2) 0.7434(2)
H18 H 0.3371 0.1733 0.7446
C38 C 0.2499(3) 0.1913(3) 0.7026(2)
C39 C 0.1850(3) 0.1973(3) 0.7011(2)
H19 H 0.1535 0.2020 0.6730
C40 C 0.1665(3) 0.1962(3) 0.7408(2)
H20 H 0.1225 0.2018 0.7396
C41 C 0.2700(4) 0.1985(3) 0.6616(3)
O5 O 0.3312(2) 0.20828(17) 0.66663(14)
O6 O 0.2324(2) 0.19606(18) 0.62336(15)
C42 C 0.1692(3) 0.3964(3) 0.9242(3)
C43 C 0.1240(4) 0.4272(3) 0.9380(3)
H21 H 0.0924 0.4089 0.9490
C44 C 0.1251(5) 0.4858(3) 0.9358(3)
H22 H 0.0941 0.5071 0.9451
C45 C 0.1709(5) 0.5122(3) 0.9203(3)
C46 C 0.2165(4) 0.4821(3) 0.9066(3)
H23 H 0.2478 0.5005 0.8954
C47 C 0.2155(4) 0.4248(3) 0.9092(3)
H24 H 0.2475 0.4040 0.9005
C48 C 0.1722(5) 0.5748(3) 0.9181(4)
O7 O 0.1947(3) 0.5987(2) 0.8898(2)
O8 O 0.1498(4) 0.6031(2) 0.9456(2)
Cu1 Cu 0.16691(4) 0.19250(3) 0.92843(3)
Dy5 Dy 0.413580(16) 0.275010(13) 0.699440(11)
Dy11 Dy 0.324580(18) 0.191220(13) 0.587260(12)
Dy12 Dy 0.175420(18) 0.691220(13) 0.912740(12)
C49 C -0.0000 0.8673(4) 0.2500
C51 C -0.0000(4) 0.8666(3) 0.1688(3)
C52 C 0.0088(3) 0.8269(3) 0.1409(2)
H26 H 0.0136 0.8324 0.1116
C53 C 0.0098(3) 0.7742(3) 0.1631(2)
C54 C 0.0214(3) 0.7236(3) 0.1446(3)
C55 C 0.0186(3) 0.6729(3) 0.1657(2)
C56 C 0.0232(3) 0.6202(3) 0.1450(3)
H27 H 0.0302 0.6144 0.1163
C57 C 0.0156(4) 0.5803(3) 0.1737(3)
H28 H 0.0164 0.5411 0.1693
C58 C 0.0062(3) 0.6082(3) 0.2118(2)
C59 C -0.0000 0.5792(4) 0.2500
N5 N 0.0030(3) 0.7819(2) 0.20572(18)
N6 N 0.0091(3) 0.6657(2) 0.20701(19)
C60 C -0.0000 0.9303(4) 0.2500
C65 C 0.0362(4) 0.7230(3) 0.1007(3)
C66 C 0.0998(4) 0.7220(3) 0.0984(3)
H31 H 0.1348 0.7242 0.1250
C67 C 0.1113(5) 0.7176(3) 0.0554(4)
H32 H 0.1547 0.7187 0.0543
C68 C 0.0641(5) 0.7117(3) 0.0155(3)
C69 C 0.0036(5) 0.7133(4) 0.0207(3)
C72 C -0.0000 0.5176(4) 0.2500
C75 C -0.0000 0.4008(4) 0.2500
C76 C -0.0000 0.3383(4) 0.2500
Cu2 Cu -0.0000 0.72357(5) 0.2500
C128 C 0.0016(3) 0.8394(3) 0.2899(2)
C129 C -0.0000(4) 0.8666(3) 0.3312(3)
H72 H 0.0043 0.9055 0.3374
C137 C 0.0524(4) 0.9611(3) 0.2751(3)
H76 H 0.0895 0.9418 0.2924
H80 H 0.0316 0.7105 0.5057
C144 C 0.0102(4) 0.7186(4) 0.4386(3)
H81 H 0.0540 0.7191 0.4382
C146 C 0.0523(3) 0.4883(3) 0.2749(3)
H82 H 0.0889 0.5081 0.2923
C147 C 0.0532(3) 0.4306(3) 0.2753(2)
H83 H 0.0900 0.4113 0.2928
H95 H 0.0046283 0.71226 0.565557
C28 C 0.1591(4) 0.9894(3) 0.9287(2)
C29 C 0.1029(4) 0.9628(3) 0.9019(3)
H13 H 0.0649 0.9837 0.8887
C30 C 0.1046(4) 0.9044(3) 0.8953(3)
H14 H 0.0677 0.8861 0.8768
C31 C 0.1603(3) 0.8732(3) 0.9157(2)
C32 C 0.2119(4) 0.9007(3) 0.9426(2)
H15 H 0.2490 0.8797 0.9576
C33 C 0.2129(4) 0.9579(3) 0.9491(2)
H16 H 0.2505 0.9754 0.9675
C34 C 0.1624(4) 0.8128(3) 0.9074(3)
O3 O 0.2107(3) 0.78551(19) 0.92761(18)
O4 O 0.1147(2) 0.79007(18) 0.87918(17)
C71 C 0.0777(6) 0.7062(4) 0.9738(3)
O10 O 0.0335(5) 0.6873(5) 0.9405(3)
O11 O 0.1305(4) 0.7171(2) 0.9687(3)
O14 O 0.2706(3) 0.6826(4) 0.9736(2)
H44 H 0.2892 0.7197 0.9819
H45 H 0.3018 0.6592 0.9643
O15 O 0.0679(3) 0.6748(3) 0.8661(2)
H46 H 0.0386 0.6722 0.8852
H47 H 0.0670 0.6396 0.8499
Dy4 Dy 0.086420(16) 0.775010(13) 0.800560(11)
O24 O 0.1688(2) 0.70828(17) 0.83337(14)
O28 O 0.2676(2) 0.69606(18) 0.87664(15)
C62 C 0.9477(4) 0.0178(3) 0.2245(3)
H30 H 0.9110 0.0366 0.2062
C63_2 C 1.0000 0.0501(3) 0.2500
C64_2 C 1.0000 0.1089(3) 0.2500
Dy3 Dy 0.913580(16) 0.224990(13) 0.199440(11)
Dy9 Dy 0.586420(16) 0.275010(13) 0.800560(11)
Dy13 Dy 0.675420(18) 0.191220(13) 0.912740(12)
Dy14 Dy 0.824580(18) 0.691220(13) 0.587260(12)
C80 C 0.8238(3) 0.3069(3) 0.5328(2)
C81 C 0.8144(3) 0.3354(3) 0.4908(2)
H48 H 0.8038 0.3736 0.4850
C82 C 0.8237(3) 0.2969(3) 0.4608(2)
H49 H 0.8222 0.3034 0.4302
C83 C 0.8363(3) 0.2445(3) 0.4843(2)
C84 C 0.8574(3) 0.1964(3) 0.4670(2)
C85 C 0.8671(3) 0.1467(3) 0.4914(2)
C86 C 0.8857(4) 0.0956(3) 0.4739(3)
H50 H 0.8989 0.0917 0.4472
C87 C 0.8807(4) 0.0543(3) 0.5023(3)
H51 H 0.8907 0.0160 0.5000
C88 C 0.8573(3) 0.0800(3) 0.5371(2)
C89 C 0.8384(3) 0.0516(3) 0.5705(2)
C90 C 0.8168(3) 0.0780(3) 0.6034(2)
C91 C 0.7940(3) 0.0483(3) 0.6367(2)
H52 H 0.7878 0.0092 0.6384
C92 C 0.7838(3) 0.0872(3) 0.6645(2)
H53 H 0.7680 0.0809 0.6898
C93 C 0.8004(3) 0.1400(3) 0.6500(2)
C94 C 0.8065(3) 0.1890(3) 0.6749(2)
C95 C 0.8276(3) 0.2390(3) 0.6598(2)
C96 C 0.8403(3) 0.2890(3) 0.6853(2)
H54 H 0.8420 0.2930 0.7161
C97 C 0.8497(3) 0.3298(3) 0.6578(2)
H55 H 0.8611 0.3674 0.6657
C98 C 0.8391(3) 0.3049(3) 0.6142(2)
C99 C 0.8310(3) 0.3331(3) 0.5740(3)
N8 N 0.8328(2) 0.2502(2) 0.52807(18)
N9 N 0.8511(3) 0.1377(2) 0.53050(18)
N10 N 0.8183(3) 0.1339(2) 0.61071(19)
N11 N 0.8310(2) 0.2475(2) 0.61724(18)
C100 C 0.8731(4) 0.1999(3) 0.4235(2)
C101 C 0.8263(3) 0.2031(3) 0.3838(3)
H56 H 0.7824 0.2018 0.3836
C102 C 0.8420(3) 0.2082(3) 0.3436(2)
H57 H 0.8088 0.2098 0.3160
C103 C 0.9065(3) 0.2109(2) 0.3434(2)
C104 C 0.9539(4) 0.2064(3) 0.3841(3)
H58 H 0.9980 0.2071 0.3844
C105 C 0.9383(3) 0.2008(3) 0.4238(3)
H59 H 0.9712 0.1975 0.4514
C106 C 0.9234(4) 0.2186(3) 0.3003(2)
O16 O 0.8787(2) 0.22042(18) 0.26423(16)
O17 O 0.9825(2) 0.22300(18) 0.30117(16)
O21 O 0.8853(2) 0.20993(18) 0.12082(17)
C114 C 0.7888(3) 0.1872(3) 0.7183(2)
C115 C 0.7246(3) 0.1780(3) 0.7174(2)
H64 H 0.6933 0.1705 0.6896
C116 C 0.7067(3) 0.1800(2) 0.7566(2)
H65 H 0.6629 0.1733 0.7554
C117 C 0.7501(3) 0.1913(3) 0.7974(2)
C118 C 0.8150(3) 0.1973(3) 0.7989(2)
H66 H 0.8465 0.2020 0.8270
C119 C 0.8335(3) 0.1962(3) 0.7592(2)
H67 H 0.8775 0.2018 0.7604
C120 C 0.7300(4) 0.1985(3) 0.8384(3)
O22 O 0.6688(2) 0.20828(17) 0.83337(14)
O25 O 0.8312(2) 0.29172(17) 0.16663(14)
O27 O 0.7676(2) 0.19606(18) 0.87664(15)
C121 C 0.8308(3) 0.3964(3) 0.5758(3)
C122 C 0.8760(4) 0.4272(3) 0.5620(3)
H68 H 0.9076 0.4089 0.5510
C123 C 0.8749(5) 0.4858(3) 0.5642(3)
H69 H 0.9059 0.5071 0.5549
C124 C 0.8291(5) 0.5122(3) 0.5797(3)
C125 C 0.7835(4) 0.4821(3) 0.5934(3)
H70 H 0.7522 0.5005 0.6046
C126 C 0.7845(4) 0.4248(3) 0.5908(3)
H71 H 0.7525 0.4040 0.5995
C127 C 0.8278(5) 0.5748(3) 0.5819(4)
O30 O 0.8053(3) 0.5987(2) 0.6102(2)
O33 O 0.8502(4) 0.6031(2) 0.5544(2)
Cu3 Cu 0.83309(4) 0.19250(3) 0.57157(3)
O36 O 0.9510(2) 0.13563(17) 0.22602(17)
O41 O 0.9508(2) 0.31367(17) 0.22724(18)
O42 O 0.8153(2) 0.17105(18) 0.18042(16)
C148 C 0.7771(4) 0.1579(4) 0.2028(3)
H84 H 0.7868 0.1719 0.2326
N14 N 0.7266(3) 0.1278(3) 0.1897(3)
C149 C 0.7059(4) 0.1028(4) 0.1454(3)
H85 H 0.7032 0.1315 0.1225
H86 H 0.6635 0.0856 0.1411
H87 H 0.7370 0.0741 0.1427
C150 C 0.6872(5) 0.1144(5) 0.2204(3)
H88 H 0.6858 0.0738 0.2241
H89 H 0.6434 0.1286 0.2077
H90 H 0.7063 0.1318 0.2498
C49_2 C 1.0000 0.8673(4) 0.2500
C50 C 0.9984(3) 0.8394(3) 0.2101(2)
C51_2 C 1.0000(4) 0.8666(3) 0.1688(3)
H25 H 0.9957 0.9055 0.1626
C59_2 C 1.0000 0.5792(4) 0.2500
C60_2 C 1.0000 0.9303(4) 0.2500
C61 C 0.9476(4) 0.9611(3) 0.2249(3)
H29 H 0.9105 0.9418 0.2076
C70 C 0.9898(4) 0.7186(4) 0.0614(3)
H34 H 0.9460 0.7191 0.0618
C72_2 C 1.0000 0.5176(4) 0.2500
C73 C 0.9477(3) 0.4883(3) 0.2251(3)
H35 H 0.9111 0.5081 0.2077
C74 C 0.9468(3) 0.4306(3) 0.2247(2)
H36 H 0.9100 0.4113 0.2072
C75_2 C 1.0000 0.4008(4) 0.2500
C76_2 C 1.0000 0.3383(4) 0.2500
Cu2_2 Cu 1.0000 0.72357(5) 0.2500
Dy8 Dy 0.913580(16) 0.775010(13) 0.699440(11)
C107 C 0.8409(4) 0.9894(3) 0.5713(2)
C108 C 0.8971(4) 0.9628(3) 0.5981(3)
H60 H 0.9351 0.9837 0.6113
C109 C 0.8954(4) 0.9044(3) 0.6047(3)
H61 H 0.9323 0.8861 0.6232
C110 C 0.8397(3) 0.8732(3) 0.5843(2)
C111 C 0.7881(4) 0.9007(3) 0.5574(2)
H62 H 0.7510 0.8797 0.5424
C112 C 0.7871(4) 0.9579(3) 0.5509(2)
H63 H 0.7495 0.9754 0.5325
C113 C 0.8376(4) 0.8128(3) 0.5926(3)
O18 O 0.7893(3) 0.78551(19) 0.57239(18)
O19 O 0.8853(2) 0.79007(18) 0.62082(17)
O26 O 0.8312(2) 0.70828(17) 0.66663(14)
O29 O 0.7324(2) 0.69606(18) 0.62336(15)
C129_2 C 1.0000(4) 0.8666(3) 0.3312(3)
C130 C 0.9912(3) 0.8269(3) 0.3591(2)
H73 H 0.9864 0.8324 0.3884
C131 C 0.9902(3) 0.7742(3) 0.3369(2)
C132 C 0.9786(3) 0.7236(3) 0.3554(3)
C133 C 0.9814(3) 0.6729(3) 0.3343(2)
C134 C 0.9768(3) 0.6202(3) 0.3550(3)
H74 H 0.9698 0.6144 0.3837
C135 C 0.9844(4) 0.5803(3) 0.3263(3)
H75 H 0.9836 0.5411 0.3307
C136 C 0.9938(3) 0.6082(3) 0.2882(2)
N12 N 0.9970(3) 0.7819(2) 0.29428(18)
N13 N 0.9909(3) 0.6657(2) 0.29299(19)
C139 C 0.9638(4) 0.7230(3) 0.3993(3)
C140 C 0.9002(4) 0.7220(3) 0.4016(3)
H78 H 0.8652 0.7242 0.3750
C141 C 0.8887(5) 0.7176(3) 0.4446(4)
H79 H 0.8453 0.7187 0.4457
C142 C 0.9359(5) 0.7117(3) 0.4845(3)
C143 C 0.9964(5) 0.7133(4) 0.4793(3)
C145 C 0.9223(6) 0.7062(4) 0.5262(3)
O37 O 0.9665(5) 0.6873(5) 0.5595(3)
O38 O 0.8695(4) 0.7171(2) 0.5313(3)
O43 O 0.7294(3) 0.6826(4) 0.5264(2)
H91 H 0.7108 0.7197 0.5181
H92 H 0.6982 0.6592 0.5357
O44 O 0.9321(3) 0.6748(3) 0.6339(2)
H93 H 0.9614 0.6722 0.6148
H94 H 0.9330 0.6396 0.6501
H69_2 H 0.4059 0.0071 0.5549
C124_2 C 0.3291(5) 0.0122(3) 0.5797(3)
H70_2 H 0.2522 0.0005 0.6046
C127_2 C 0.3278(5) 0.0748(3) 0.5819(4)
O30_2 O 0.3053(3) 0.0987(2) 0.6102(2)
O33_2 O 0.3502(4) 0.1031(2) 0.5544(2)
H22_2 H 0.5941 0.0071 0.9451
C45_2 C 0.6709(5) 0.0122(3) 0.9203(3)
H23_2 H 0.7478 0.0005 0.8954
C48_2 C 0.6722(5) 0.0748(3) 0.9181(4)
O7_2 O 0.6947(3) 0.0987(2) 0.8898(2)
O8_2 O 0.6498(4) 0.1031(2) 0.9456(2)
Dy1_2 Dy 0.586420(16) 0.724990(13) 0.300560(11)
C2_2 C 0.6856(3) 0.8354(3) 0.0092(2)
H1_2 H 0.6962 0.8736 0.0150
C3_2 C 0.6763(3) 0.7969(3) 0.0392(2)
H2_2 H 0.6778 0.8034 0.0698
C4_2 C 0.6637(3) 0.7445(3) 0.0157(2)
C5_2 C 0.6426(3) 0.6964(3) 0.0330(2)
C6_2 C 0.6329(3) 0.6467(3) 0.0086(2)
C7_2 C 0.6143(4) 0.5956(3) 0.0261(3)
H3_2 H 0.6011 0.5917 0.0528
H4_3 H 0.6093 0.5160 0.0000
C21_2 C 0.6269(4) 0.6999(3) 0.0765(2)
C22_2 C 0.6737(3) 0.7031(3) 0.1162(3)
H9_2 H 0.7176 0.7018 0.1164
C23_2 C 0.6580(3) 0.7082(3) 0.1564(2)
H10_2 H 0.6912 0.7098 0.1840
C24_2 C 0.5935(3) 0.7109(2) 0.1566(2)
C25_2 C 0.5461(4) 0.7064(3) 0.1159(3)
H11_2 H 0.5020 0.7071 0.1156
C26_2 C 0.5617(3) 0.7008(3) 0.0762(3)
H12_2 H 0.5288 0.6975 0.0486
C27_2 C 0.5766(4) 0.7186(3) 0.1997(2)
O1_2 O 0.6213(2) 0.72042(18) 0.23577(16)
O2_2 O 0.5175(2) 0.72300(18) 0.19883(16)
C49_3 C 0.5000 0.3673(4) 0.2500
C50_2 C 0.4984(3) 0.3394(3) 0.2101(2)
C51_3 C 0.5000(4) 0.3666(3) 0.1688(3)
H25_2 H 0.4957 0.4055 0.1626
C52_2 C 0.5088(3) 0.3269(3) 0.1409(2)
H26_2 H 0.5136 0.3324 0.1116
C53_2 C 0.5098(3) 0.2742(3) 0.1631(2)
C54_2 C 0.5214(3) 0.2236(3) 0.1446(3)
C55_2 C 0.5186(3) 0.1729(3) 0.1657(2)
C56_2 C 0.5232(3) 0.1202(3) 0.1450(3)
H27_2 H 0.5302 0.1144 0.1163
C57_2 C 0.5156(4) 0.0803(3) 0.1737(3)
H28_2 H 0.5164 0.0411 0.1693
C58_2 C 0.5062(3) 0.1082(3) 0.2118(2)
C59_3 C 0.5000 0.0792(4) 0.2500
N5_2 N 0.5030(3) 0.2819(2) 0.20572(18)
N6_2 N 0.5091(3) 0.1657(2) 0.20701(19)
C60_3 C 0.5000 0.4303(4) 0.2500
C61_2 C 0.4476(4) 0.4611(3) 0.2249(3)
H29_2 H 0.4105 0.4418 0.2076
C62_2 C 0.4477(4) 0.5178(3) 0.2245(3)
H30_2 H 0.4110 0.5366 0.2062
C63_3 C 0.5000 0.5501(3) 0.2500
C64_3 C 0.5000 0.6089(3) 0.2500
O9_2 O 0.5490(2) 0.63563(17) 0.27398(17)
C65_2 C 0.5362(4) 0.2230(3) 0.1007(3)
C66_2 C 0.5998(4) 0.2220(3) 0.0984(3)
H31_2 H 0.6348 0.2242 0.1250
C67_2 C 0.6113(5) 0.2176(3) 0.0554(4)
H32_2 H 0.6547 0.2187 0.0543
C68_2 C 0.5641(5) 0.2117(3) 0.0155(3)
C69_2 C 0.5036(5) 0.2133(4) 0.0207(3)
C70_2 C 0.4898(4) 0.2186(4) 0.0614(3)
H34_2 H 0.4460 0.2191 0.0618
C72_3 C 0.5000 0.0176(4) 0.2500
H35_2 H 0.4111 0.0081 0.2077
Cu2_3 Cu 0.5000 0.22357(5) 0.2500
O13_2 O 0.6847(2) 0.67105(18) 0.31958(16)
C77_2 C 0.7229(4) 0.6579(4) 0.2972(3)
H37_2 H 0.7132 0.6719 0.2674
N7_2 N 0.7734(3) 0.6278(3) 0.3103(3)
C78_2 C 0.7941(4) 0.6028(4) 0.3546(3)
H38_2 H 0.7968 0.6315 0.3775
H39_2 H 0.8365 0.5856 0.3589
H40_2 H 0.7630 0.5741 0.3573
C79_2 C 0.8128(5) 0.6144(5) 0.2796(3)
H41_2 H 0.8142 0.5738 0.2759
H42_2 H 0.8566 0.6286 0.2923
H43_2 H 0.7937 0.6318 0.2502
Dy3_2 Dy 0.413580(16) 0.724990(13) 0.199440(11)
C80_2 C 0.3238(3) 0.8069(3) 0.5328(2)
C81_2 C 0.3144(3) 0.8354(3) 0.4908(2)
H48_2 H 0.3038 0.8736 0.4850
C82_2 C 0.3237(3) 0.7969(3) 0.4608(2)
H49_2 H 0.3222 0.8034 0.4302
C83_2 C 0.3363(3) 0.7445(3) 0.4843(2)
C84_2 C 0.3574(3) 0.6964(3) 0.4670(2)
C85_2 C 0.3671(3) 0.6467(3) 0.4914(2)
C86_2 C 0.3857(4) 0.5956(3) 0.4739(3)
H50_2 H 0.3989 0.5917 0.4472
C87_2 C 0.3807(4) 0.5543(3) 0.5023(3)
H51_2 H 0.3907 0.5160 0.5000
C88_2 C 0.3573(3) 0.5800(3) 0.5371(2)
C89_2 C 0.3384(3) 0.5516(3) 0.5705(2)
C90_2 C 0.3168(3) 0.5780(3) 0.6034(2)
C91_2 C 0.2940(3) 0.5483(3) 0.6367(2)
H52_2 H 0.2878 0.5092 0.6384
C92_2 C 0.2838(3) 0.5872(3) 0.6645(2)
H53_2 H 0.2680 0.5809 0.6898
C93_2 C 0.3004(3) 0.6400(3) 0.6500(2)
C94_2 C 0.3065(3) 0.6890(3) 0.6749(2)
C95_2 C 0.3276(3) 0.7390(3) 0.6598(2)
C96_2 C 0.3403(3) 0.7890(3) 0.6853(2)
H54_2 H 0.3420 0.7930 0.7161
C97_2 C 0.3497(3) 0.8298(3) 0.6578(2)
H55_2 H 0.3611 0.8674 0.6657
C98_2 C 0.3391(3) 0.8049(3) 0.6142(2)
C99_2 C 0.3310(3) 0.8331(3) 0.5740(3)
N8_2 N 0.3328(2) 0.7502(2) 0.52807(18)
N9_2 N 0.3511(3) 0.6377(2) 0.53050(18)
N10_2 N 0.3183(3) 0.6339(2) 0.61071(19)
N11_2 N 0.3310(2) 0.7475(2) 0.61724(18)
C100_2 C 0.3731(4) 0.6999(3) 0.4235(2)
C101_2 C 0.3263(3) 0.7031(3) 0.3838(3)
H56_2 H 0.2824 0.7018 0.3836
C102_2 C 0.3420(3) 0.7082(3) 0.3436(2)
H57_2 H 0.3088 0.7098 0.3160
C103_2 C 0.4065(3) 0.7109(2) 0.3434(2)
C104_2 C 0.4539(4) 0.7064(3) 0.3841(3)
H58_2 H 0.4980 0.7071 0.3844
C105_2 C 0.4383(3) 0.7008(3) 0.4238(3)
H59_2 H 0.4712 0.6975 0.4514
C106_2 C 0.4234(4) 0.7186(3) 0.3003(2)
O16_2 O 0.3787(2) 0.72042(18) 0.26423(16)
O17_2 O 0.4825(2) 0.72300(18) 0.30117(16)
C107_2 C 0.3409(4) 0.4894(3) 0.5713(2)
C108_2 C 0.3971(4) 0.4628(3) 0.5981(3)
H60_2 H 0.4351 0.4837 0.6113
C109_2 C 0.3954(4) 0.4044(3) 0.6047(3)
H61_2 H 0.4323 0.3861 0.6232
C110_2 C 0.3397(3) 0.3732(3) 0.5843(2)
C111_2 C 0.2881(4) 0.4007(3) 0.5574(2)
H62_2 H 0.2510 0.3797 0.5424
C112_2 C 0.2871(4) 0.4579(3) 0.5509(2)
H63_2 H 0.2495 0.4754 0.5325
C113_2 C 0.3376(4) 0.3128(3) 0.5926(3)
O18_2 O 0.2893(3) 0.28551(19) 0.57239(18)
O19_2 O 0.3853(2) 0.29007(18) 0.62082(17)
O20_2 O 0.6147(2) 0.70993(18) 0.37918(17)
O21_2 O 0.3853(2) 0.70993(18) 0.12082(17)
C114_2 C 0.2888(3) 0.6872(3) 0.7183(2)
C115_2 C 0.2246(3) 0.6780(3) 0.7174(2)
H64_2 H 0.1933 0.6705 0.6896
C116_2 C 0.2067(3) 0.6800(2) 0.7566(2)
H65_2 H 0.1629 0.6733 0.7554
C117_2 C 0.2501(3) 0.6913(3) 0.7974(2)
C118_2 C 0.3150(3) 0.6973(3) 0.7989(2)
H66_2 H 0.3465 0.7020 0.8270
C119_2 C 0.3335(3) 0.6962(3) 0.7592(2)
H67_2 H 0.3775 0.7018 0.7604
C120_2 C 0.2300(4) 0.6985(3) 0.8384(3)
O23_2 O 0.6688(2) 0.79172(17) 0.33337(14)
O25_2 O 0.3312(2) 0.79172(17) 0.16663(14)
C121_2 C 0.3308(3) 0.8964(3) 0.5758(3)
C122_2 C 0.3760(4) 0.9272(3) 0.5620(3)
H68_2 H 0.4076 0.9089 0.5510
C123_2 C 0.3749(5) 0.9858(3) 0.5642(3)
C125_2 C 0.2835(4) 0.9821(3) 0.5934(3)
C126_2 C 0.2845(4) 0.9248(3) 0.5908(3)
H71_2 H 0.2525 0.9040 0.5995
Cu3_2 Cu 0.33309(4) 0.69250(3) 0.57157(3)
C128_2 C 0.5016(3) 0.3394(3) 0.2899(2)
C129_3 C 0.5000(4) 0.3666(3) 0.3312(3)
H72_2 H 0.5043 0.4055 0.3374
C130_2 C 0.4912(3) 0.3269(3) 0.3591(2)
H73_2 H 0.4864 0.3324 0.3884
C131_2 C 0.4902(3) 0.2742(3) 0.3369(2)
C132_2 C 0.4786(3) 0.2236(3) 0.3554(3)
C133_2 C 0.4814(3) 0.1729(3) 0.3343(2)
C134_2 C 0.4768(3) 0.1202(3) 0.3550(3)
H74_2 H 0.4698 0.1144 0.3837
C135_2 C 0.4844(4) 0.0803(3) 0.3263(3)
H75_2 H 0.4836 0.0411 0.3307
C136_2 C 0.4938(3) 0.1082(3) 0.2882(2)
N12_2 N 0.4970(3) 0.2819(2) 0.29428(18)
N13_2 N 0.4909(3) 0.1657(2) 0.29299(19)
C137_2 C 0.5524(4) 0.4611(3) 0.2751(3)
H76_2 H 0.5895 0.4418 0.2924
C138_2 C 0.5523(4) 0.5178(3) 0.2755(3)
H77_2 H 0.5890 0.5366 0.2938
O36_2 O 0.4510(2) 0.63563(17) 0.22602(17)
C139_2 C 0.4638(4) 0.2230(3) 0.3993(3)
C140_2 C 0.4002(4) 0.2220(3) 0.4016(3)
H78_2 H 0.3652 0.2242 0.3750
C141_2 C 0.3887(5) 0.2176(3) 0.4446(4)
H79_2 H 0.3453 0.2187 0.4457
C142_2 C 0.4359(5) 0.2117(3) 0.4845(3)
C143_2 C 0.4964(5) 0.2133(4) 0.4793(3)
H80_2 H 0.5316 0.2105 0.5057
C144_2 C 0.5102(4) 0.2186(4) 0.4386(3)
H81_2 H 0.5540 0.2191 0.4382
C145_2 C 0.4223(6) 0.2062(4) 0.5262(3)
O37_2 O 0.4665(5) 0.1873(5) 0.5595(3)
O38_2 O 0.3695(4) 0.2171(2) 0.5313(3)
H82_2 H 0.5889 0.0081 0.2923
O40_2 O 0.5492(2) 0.81367(17) 0.27276(18)
O41_2 O 0.4508(2) 0.81367(17) 0.22724(18)
O42_2 O 0.3153(2) 0.67105(18) 0.18042(16)
C148_2 C 0.2771(4) 0.6579(4) 0.2028(3)
H84_2 H 0.2868 0.6719 0.2326
N14_2 N 0.2266(3) 0.6278(3) 0.1897(3)
C149_2 C 0.2059(4) 0.6028(4) 0.1454(3)
H85_2 H 0.2032 0.6315 0.1225
H86_2 H 0.1635 0.5856 0.1411
H87_2 H 0.2370 0.5741 0.1427
C150_2 C 0.1872(5) 0.6144(5) 0.2204(3)
H88_2 H 0.1858 0.5738 0.2241
H89_2 H 0.1434 0.6286 0.2077
H90_2 H 0.2063 0.6318 0.2498
O43_2 O 0.2294(3) 0.1826(4) 0.5264(2)
H91_2 H 0.2108 0.2197 0.5181
H92_2 H 0.1982 0.1592 0.5357
O44_2 O 0.4321(3) 0.1748(3) 0.6339(2)
H93_2 H 0.4614 0.1722 0.6148
H94_2 H 0.4330 0.1396 0.6501
H95_2 H 0.504628 0.21226 0.565557
C1_2 C 0.6762(3) 0.8069(3) 0.9672(2)
C8_2 C 0.6193(4) 0.5543(3) 0.9977(3)
H4_4 H 0.6093 0.5160 1.0000
C9_2 C 0.6427(3) 0.5800(3) 0.9629(2)
C10_2 C 0.6616(3) 0.5516(3) 0.9295(2)
C11_2 C 0.6832(3) 0.5780(3) 0.8966(2)
C12_2 C 0.7060(3) 0.5483(3) 0.8633(2)
H5_2 H 0.7122 0.5092 0.8616
C13_2 C 0.7162(3) 0.5872(3) 0.8355(2)
H6_2 H 0.7320 0.5809 0.8102
C14_2 C 0.6996(3) 0.6400(3) 0.8500(2)
C15_2 C 0.6935(3) 0.6890(3) 0.8251(2)
C16_2 C 0.6724(3) 0.7390(3) 0.8402(2)
C17_2 C 0.6597(3) 0.7890(3) 0.8147(2)
H7_2 H 0.6580 0.7930 0.7839
C18_2 C 0.6503(3) 0.8298(3) 0.8422(2)
H8_2 H 0.6389 0.8674 0.8343
C19_2 C 0.6609(3) 0.8049(3) 0.8858(2)
C20_2 C 0.6690(3) 0.8331(3) 0.9260(3)
N1_2 N 0.6672(2) 0.7502(2) 0.97193(18)
N2_2 N 0.6489(3) 0.6377(2) 0.96950(18)
N3_2 N 0.6817(3) 0.6339(2) 0.88929(19)
N4_2 N 0.6690(2) 0.7475(2) 0.88276(18)
C28_2 C 0.6591(4) 0.4894(3) 0.9287(2)
C29_2 C 0.6029(4) 0.4628(3) 0.9019(3)
H13_2 H 0.5649 0.4837 0.8887
C30_2 C 0.6046(4) 0.4044(3) 0.8953(3)
H14_2 H 0.5677 0.3861 0.8768
C31_2 C 0.6603(3) 0.3732(3) 0.9157(2)
C32_2 C 0.7119(4) 0.4007(3) 0.9426(2)
H15_2 H 0.7490 0.3797 0.9576
C33_2 C 0.7129(4) 0.4579(3) 0.9491(2)
H16_2 H 0.7505 0.4754 0.9675
C34_2 C 0.6624(4) 0.3128(3) 0.9074(3)
O3_2 O 0.7107(3) 0.28551(19) 0.92761(18)
O4_2 O 0.6147(2) 0.29007(18) 0.87918(17)
C35_2 C 0.7112(3) 0.6872(3) 0.7817(2)
C36_2 C 0.7754(3) 0.6780(3) 0.7826(2)
H17_2 H 0.8067 0.6705 0.8104
C37_2 C 0.7933(3) 0.6800(2) 0.7434(2)
H18_2 H 0.8371 0.6733 0.7446
C38_2 C 0.7499(3) 0.6913(3) 0.7026(2)
C39_2 C 0.6850(3) 0.6973(3) 0.7011(2)
H19_2 H 0.6535 0.7020 0.6730
C40_2 C 0.6665(3) 0.6962(3) 0.7408(2)
H20_2 H 0.6225 0.7018 0.7396
C41_2 C 0.7700(4) 0.6985(3) 0.6616(3)
C42_2 C 0.6692(3) 0.8964(3) 0.9242(3)
C43_2 C 0.6240(4) 0.9272(3) 0.9380(3)
H21_2 H 0.5924 0.9089 0.9490
C44_2 C 0.6251(5) 0.9858(3) 0.9358(3)
C46_2 C 0.7165(4) 0.9821(3) 0.9066(3)
C47_2 C 0.7155(4) 0.9248(3) 0.9092(3)
H24_2 H 0.7475 0.9040 0.9005
Cu1_2 Cu 0.66691(4) 0.69250(3) 0.92843(3)
H33 H 0.4684 0.2105 0.9943
C71_2 C 0.5777(6) 0.2062(4) 0.9738(3)
O10_2 O 0.5335(5) 0.1873(5) 0.9405(3)
O11_2 O 0.6305(4) 0.2171(2) 0.9687(3)
O14_2 O 0.7706(3) 0.1826(4) 0.9736(2)
H44_2 H 0.7892 0.2197 0.9819
H45_2 H 0.8018 0.1592 0.9643
O15_2 O 0.5679(3) 0.1748(3) 0.8661(2)
H46_2 H 0.5386 0.1722 0.8852
H47_2 H 0.5670 0.1396 0.8499
H96 H 0.495372 0.21226 0.934443
C73_2 C 0.4477(3) 0.9883(3) 0.2251(3)
C74_2 C 0.4468(3) 0.9306(3) 0.2247(2)
H36_2 H 0.4100 0.9113 0.2072
C75_3 C 0.5000 0.9008(4) 0.2500
C76_3 C 0.5000 0.8383(4) 0.2500
C146_2 C 0.5523(3) 0.9883(3) 0.2749(3)
C147_2 C 0.5532(3) 0.9306(3) 0.2753(2)
H83_2 H 0.5900 0.9113 0.2928
C49_4 C 0.0000 0.1327(4) 0.7500
C50_3 C 0.0016(3) 0.1606(3) 0.7899(2)
C51_4 C -0.0000(4) 0.1334(3) 0.8312(3)
H25_3 H 0.0043 0.0945 0.8374
C59_4 C 0.0000 0.4208(4) 0.7500
C60_4 C 0.0000 0.0697(4) 0.7500
C61_3 C 0.0524(4) 0.0389(3) 0.7751(3)
H29_3 H 0.0895 0.0582 0.7924
C70_3 C 0.0102(4) 0.2814(4) 0.9386(3)
H34_3 H 0.0540 0.2809 0.9382
C72_4 C 0.0000 0.4824(4) 0.7500
C73_3 C 0.0523(3) 0.5117(3) 0.7749(3)
H35_3 H 0.0889 0.4919 0.7923
C74_3 C 0.0532(3) 0.5694(3) 0.7753(2)
H36_3 H 0.0900 0.5887 0.7928
C75_4 C 0.0000 0.5992(4) 0.7500
C76_4 C 0.0000 0.6617(4) 0.7500
O12 O 0.0492(2) 0.68633(17) 0.77276(18)
Cu2_4 Cu 0.0000 0.27643(5) 0.7500
Dy10 Dy 0.175420(18) 0.308780(13) 0.412740(12)
C107_3 C 0.1591(4) 0.0106(3) 0.4287(2)
C108_3 C 0.1029(4) 0.0372(3) 0.4019(3)
H60_3 H 0.0649 0.0163 0.3887
C109_3 C 0.1046(4) 0.0956(3) 0.3953(3)
H61_3 H 0.0677 0.1139 0.3768
C110_3 C 0.1603(3) 0.1268(3) 0.4157(2)
C111_3 C 0.2119(4) 0.0993(3) 0.4426(2)
H62_3 H 0.2490 0.1203 0.4576
C112_3 C 0.2129(4) 0.0421(3) 0.4491(2)
H63_3 H 0.2505 0.0246 0.4675
C113_3 C 0.1624(4) 0.1872(3) 0.4074(3)
O18_3 O 0.2107(3) 0.21449(19) 0.42761(18)
O29_2 O 0.2676(2) 0.30394(18) 0.37664(15)
O32 O 0.1947(3) 0.4013(2) 0.3898(2)
O35 O 0.1498(4) 0.3969(2) 0.4456(2)
C129_4 C 0.0000(4) 0.1334(3) 0.6688(3)
C130_3 C 0.0088(3) 0.1731(3) 0.6409(2)
H73_3 H 0.0136 0.1676 0.6116
C131_3 C 0.0098(3) 0.2258(3) 0.6631(2)
C132_3 C 0.0214(3) 0.2764(3) 0.6446(3)
C133_3 C 0.0186(3) 0.3271(3) 0.6657(2)
C134_3 C 0.0232(3) 0.3798(3) 0.6450(3)
H74_3 H 0.0302 0.3856 0.6163
C135_3 C 0.0156(4) 0.4197(3) 0.6737(3)
H75_3 H 0.0164 0.4589 0.6693
C136_3 C 0.0062(3) 0.3918(3) 0.7118(2)
N12_3 N 0.0030(3) 0.2181(2) 0.70572(18)
N13_3 N 0.0091(3) 0.3343(2) 0.70701(19)
C139_3 C 0.0362(4) 0.2770(3) 0.6007(3)
C140_3 C 0.0998(4) 0.2780(3) 0.5984(3)
H78_3 H 0.1348 0.2758 0.6250
C141_3 C 0.1113(5) 0.2824(3) 0.5554(4)
H79_3 H 0.1547 0.2813 0.5543
C142_3 C 0.0641(5) 0.2883(3) 0.5155(3)
C143_3 C 0.0036(5) 0.2867(4) 0.5207(3)
C145_3 C 0.0777(6) 0.2938(4) 0.4738(3)
O37_3 O 0.0335(5) 0.3127(5) 0.4405(3)
O38_3 O 0.1305(4) 0.2829(2) 0.4687(3)
O43_3 O 0.2706(3) 0.3174(4) 0.4736(2)
H91_3 H 0.2892 0.2803 0.4819
H92_3 H 0.3018 0.3408 0.4643
O44_3 O 0.0679(3) 0.3252(3) 0.3661(2)
H93_3 H 0.0386 0.3278 0.3852
H94_3 H 0.0670 0.3604 0.3499
C62_3 C 0.0523(4) 0.9822(3) 0.7755(3)
H30_3 H 0.0890 0.9634 0.7938
C63_4 C 0.0000 0.9499(3) 0.7500
C64_4 C 0.0000 0.8911(3) 0.7500
Dy13_2 Dy 0.324580(18) 0.808780(13) 0.087260(12)
C80_3 C 0.1762(3) 0.6931(3) 0.4672(2)
C81_3 C 0.1856(3) 0.6646(3) 0.5092(2)
H48_3 H 0.1962 0.6264 0.5150
C82_3 C 0.1763(3) 0.7031(3) 0.5392(2)
H49_3 H 0.1778 0.6966 0.5698
C83_3 C 0.1637(3) 0.7555(3) 0.5157(2)
C84_3 C 0.1426(3) 0.8036(3) 0.5330(2)
C85_3 C 0.1329(3) 0.8533(3) 0.5086(2)
C86_3 C 0.1143(4) 0.9044(3) 0.5261(3)
H50_3 H 0.1011 0.9083 0.5528
C87_3 C 0.1193(4) 0.9457(3) 0.4977(3)
H51_3 H 0.1093 0.9840 0.5000
C88_3 C 0.1427(3) 0.9200(3) 0.4629(2)
C89_3 C 0.1616(3) 0.9484(3) 0.4295(2)
C90_3 C 0.1832(3) 0.9220(3) 0.3966(2)
C91_3 C 0.2060(3) 0.9517(3) 0.3633(2)
H52_3 H 0.2122 0.9908 0.3616
C92_3 C 0.2162(3) 0.9128(3) 0.3355(2)
H53_3 H 0.2320 0.9191 0.3102
C93_3 C 0.1996(3) 0.8600(3) 0.3500(2)
C94_3 C 0.1935(3) 0.8110(3) 0.3251(2)
C95_3 C 0.1724(3) 0.7610(3) 0.3402(2)
C96_3 C 0.1597(3) 0.7110(3) 0.3147(2)
H54_3 H 0.1580 0.7070 0.2839
C97_3 C 0.1503(3) 0.6702(3) 0.3422(2)
H55_3 H 0.1389 0.6326 0.3343
C98_3 C 0.1609(3) 0.6951(3) 0.3858(2)
C99_3 C 0.1690(3) 0.6669(3) 0.4260(3)
N8_3 N 0.1672(2) 0.7498(2) 0.47193(18)
N9_3 N 0.1489(3) 0.8623(2) 0.46950(18)
N10_3 N 0.1817(3) 0.8661(2) 0.38929(19)
N11_3 N 0.1690(2) 0.7525(2) 0.38276(18)
C100_3 C 0.1269(4) 0.8001(3) 0.5765(2)
C101_3 C 0.1737(3) 0.7969(3) 0.6162(3)
H56_3 H 0.2176 0.7982 0.6164
C102_3 C 0.1580(3) 0.7918(3) 0.6564(2)
H57_3 H 0.1912 0.7902 0.6840
C103_3 C 0.0935(3) 0.7891(2) 0.6566(2)
C104_3 C 0.0461(4) 0.7936(3) 0.6159(3)
H58_3 H 0.0020 0.7929 0.6156
C105_3 C 0.0617(3) 0.7992(3) 0.5762(3)
H59_3 H 0.0288 0.8025 0.5486
C106_3 C 0.0766(4) 0.7814(3) 0.6997(2)
O16_3 O 0.1213(2) 0.77958(18) 0.73577(16)
O17_3 O 0.0175(2) 0.77700(18) 0.69883(16)
C114_3 C 0.2112(3) 0.8128(3) 0.2817(2)
C115_3 C 0.2754(3) 0.8220(3) 0.2826(2)
H64_3 H 0.3067 0.8295 0.3104
C116_3 C 0.2933(3) 0.8200(2) 0.2434(2)
H65_3 H 0.3371 0.8267 0.2446
C117_3 C 0.2499(3) 0.8087(3) 0.2026(2)
C118_3 C 0.1850(3) 0.8027(3) 0.2011(2)
H66_3 H 0.1535 0.7980 0.1730
C119_3 C 0.1665(3) 0.8038(3) 0.2408(2)
H67_3 H 0.1225 0.7982 0.2396
C120_3 C 0.2700(4) 0.8015(3) 0.1616(3)
O27_2 O 0.2324(2) 0.80394(18) 0.12336(15)
C121_3 C 0.1692(3) 0.6036(3) 0.4242(3)
C122_3 C 0.1240(4) 0.5728(3) 0.4380(3)
H68_3 H 0.0924 0.5911 0.4490
C123_3 C 0.1251(5) 0.5142(3) 0.4358(3)
H69_3 H 0.0941 0.4929 0.4451
C124_3 C 0.1709(5) 0.4878(3) 0.4203(3)
C125_3 C 0.2165(4) 0.5179(3) 0.4066(3)
H70_3 H 0.2478 0.4995 0.3954
C126_3 C 0.2155(4) 0.5752(3) 0.4092(3)
H71_3 H 0.2475 0.5960 0.4005
C127_3 C 0.1722(5) 0.4252(3) 0.4181(4)
Cu3_3 Cu 0.16691(4) 0.80750(3) 0.42843(3)
O36_3 O 0.0490(2) 0.86437(17) 0.77398(17)
O42_3 O 0.1847(2) 0.82895(18) 0.81958(16)
C148_3 C 0.2229(4) 0.8421(4) 0.7972(3)
H84_3 H 0.2132 0.8281 0.7674
N14_3 N 0.2734(3) 0.8722(3) 0.8103(3)
C149_3 C 0.2941(4) 0.8972(4) 0.8546(3)
H85_3 H 0.2968 0.8685 0.8775
H86_3 H 0.3365 0.9144 0.8589
H87_3 H 0.2630 0.9259 0.8573
C150_3 C 0.3128(5) 0.8856(5) 0.7796(3)
H88_3 H 0.3142 0.9262 0.7759
H89_3 H 0.3566 0.8714 0.7923
H90_3 H 0.2937 0.8682 0.7502
Dy2 Dy 0.824580(18) 0.308780(13) 0.087260(12)
C28_3 C 0.8409(4) 0.0106(3) 0.0713(2)
C29_3 C 0.8971(4) 0.0372(3) 0.0981(3)
H13_3 H 0.9351 0.0163 0.1113
C30_3 C 0.8954(4) 0.0956(3) 0.1047(3)
H14_3 H 0.9323 0.1139 0.1232
C31_3 C 0.8397(3) 0.1268(3) 0.0843(2)
C32_3 C 0.7881(4) 0.0993(3) 0.0574(2)
H15_3 H 0.7510 0.1203 0.0424
C33_3 C 0.7871(4) 0.0421(3) 0.0509(2)
H16_3 H 0.7495 0.0246 0.0325
C34_3 C 0.8376(4) 0.1872(3) 0.0926(3)
O3_3 O 0.7893(3) 0.21449(19) 0.07239(18)
C71_3 C 0.9223(6) 0.2938(4) 0.0262(3)
O10_3 O 0.9665(5) 0.3127(5) 0.0595(3)
O11_3 O 0.8695(4) 0.2829(2) 0.0313(3)
O14_3 O 0.7294(3) 0.3174(4) 0.0264(2)
H44_3 H 0.7108 0.2803 0.0181
H45_3 H 0.6982 0.3408 0.0357
O15_3 O 0.9321(3) 0.3252(3) 0.1339(2)
H46_3 H 0.9614 0.3278 0.1148
H47_3 H 0.9330 0.3604 0.1501
O28_2 O 0.7324(2) 0.30394(18) 0.12336(15)
O31 O 0.8053(3) 0.4013(2) 0.1102(2)
O34 O 0.8502(4) 0.3969(2) 0.0544(2)
C49_5 C 1.0000 0.1327(4) 0.7500
C51_5 C 1.0000(4) 0.1334(3) 0.8312(3)
C52_3 C 0.9912(3) 0.1731(3) 0.8591(2)
H26_3 H 0.9864 0.1676 0.8884
C53_3 C 0.9902(3) 0.2258(3) 0.8369(2)
C54_3 C 0.9786(3) 0.2764(3) 0.8554(3)
C55_3 C 0.9814(3) 0.3271(3) 0.8343(2)
C56_3 C 0.9768(3) 0.3798(3) 0.8550(3)
H27_3 H 0.9698 0.3856 0.8837
C57_3 C 0.9844(4) 0.4197(3) 0.8263(3)
H28_3 H 0.9836 0.4589 0.8307
C58_3 C 0.9938(3) 0.3918(3) 0.7882(2)
C59_5 C 1.0000 0.4208(4) 0.7500
N5_3 N 0.9970(3) 0.2181(2) 0.79428(18)
N6_3 N 0.9909(3) 0.3343(2) 0.79299(19)
C60_5 C 1.0000 0.0697(4) 0.7500
C65_3 C 0.9638(4) 0.2770(3) 0.8993(3)
C66_3 C 0.9002(4) 0.2780(3) 0.9016(3)
H31_3 H 0.8652 0.2758 0.8750
C67_3 C 0.8887(5) 0.2824(3) 0.9446(4)
H32_3 H 0.8453 0.2813 0.9457
C68_3 C 0.9359(5) 0.2883(3) 0.9845(3)
C69_3 C 0.9964(5) 0.2867(4) 0.9793(3)
C72_5 C 1.0000 0.4824(4) 0.7500
C75_5 C 1.0000 0.5992(4) 0.7500
C76_5 C 1.0000 0.6617(4) 0.7500
Cu2_5 Cu 1.0000 0.27643(5) 0.7500
C128_3 C 0.9984(3) 0.1606(3) 0.7101(2)
C129_5 C 1.0000(4) 0.1334(3) 0.6688(3)
H72_3 H 0.9957 0.0945 0.6626
C137_3 C 0.9476(4) 0.0389(3) 0.7249(3)
H76_3 H 0.9105 0.0582 0.7076
H80_3 H 0.9684 0.2895 0.4943
C144_3 C 0.9898(4) 0.2814(4) 0.5614(3)
H81_3 H 0.9460 0.2809 0.5618
C146_3 C 0.9477(3) 0.5117(3) 0.7251(3)
H82_3 H 0.9111 0.4919 0.7077
C147_3 C 0.9468(3) 0.5694(3) 0.7247(2)
H83_3 H 0.9100 0.5887 0.7072
O39 O 0.9508(2) 0.68633(17) 0.72724(18)
H95_3 H 0.995372 0.28774 0.434443
C1_3 C 0.8238(3) 0.6931(3) 0.0328(2)
C8_3 C 0.8807(4) 0.9457(3) 0.0023(3)
H4_5 H 0.8907 0.9840 0.0000
C9_3 C 0.8573(3) 0.9200(3) 0.0371(2)
C10_3 C 0.8384(3) 0.9484(3) 0.0705(2)
C11_3 C 0.8168(3) 0.9220(3) 0.1034(2)
C12_3 C 0.7940(3) 0.9517(3) 0.1367(2)
H5_3 H 0.7878 0.9908 0.1384
C13_3 C 0.7838(3) 0.9128(3) 0.1645(2)
H6_3 H 0.7680 0.9191 0.1898
C14_3 C 0.8004(3) 0.8600(3) 0.1500(2)
C15_3 C 0.8065(3) 0.8110(3) 0.1749(2)
C16_3 C 0.8276(3) 0.7610(3) 0.1598(2)
C17_3 C 0.8403(3) 0.7110(3) 0.1853(2)
H7_3 H 0.8420 0.7070 0.2161
C18_3 C 0.8497(3) 0.6702(3) 0.1578(2)
H8_3 H 0.8611 0.6326 0.1657
C19_3 C 0.8391(3) 0.6951(3) 0.1142(2)
C20_3 C 0.8310(3) 0.6669(3) 0.0740(3)
N1_3 N 0.8328(2) 0.7498(2) 0.02807(18)
N2_3 N 0.8511(3) 0.8623(2) 0.03050(18)
N3_3 N 0.8183(3) 0.8661(2) 0.11071(19)
N4_3 N 0.8310(2) 0.7525(2) 0.11724(18)
C35_3 C 0.7888(3) 0.8128(3) 0.2183(2)
C36_3 C 0.7246(3) 0.8220(3) 0.2174(2)
H17_3 H 0.6933 0.8295 0.1896
C37_3 C 0.7067(3) 0.8200(2) 0.2566(2)
H18_3 H 0.6629 0.8267 0.2554
C38_3 C 0.7501(3) 0.8087(3) 0.2974(2)
C39_3 C 0.8150(3) 0.8027(3) 0.2989(2)
H19_3 H 0.8465 0.7980 0.3270
C40_3 C 0.8335(3) 0.8038(3) 0.2592(2)
H20_3 H 0.8775 0.7982 0.2604
C41_3 C 0.7300(4) 0.8015(3) 0.3384(3)
O6_2 O 0.7676(2) 0.80394(18) 0.37664(15)
C42_3 C 0.8308(3) 0.6036(3) 0.0758(3)
C43_3 C 0.8760(4) 0.5728(3) 0.0620(3)
H21_3 H 0.9076 0.5911 0.0510
C44_3 C 0.8749(5) 0.5142(3) 0.0642(3)
H22_3 H 0.9059 0.4929 0.0549
C45_3 C 0.8291(5) 0.4878(3) 0.0797(3)
C46_3 C 0.7835(4) 0.5179(3) 0.0934(3)
H23_3 H 0.7522 0.4995 0.1046
C47_3 C 0.7845(4) 0.5752(3) 0.0908(3)
H24_3 H 0.7525 0.5960 0.0995
C48_3 C 0.8278(5) 0.4252(3) 0.0819(4)
Cu1_3 Cu 0.83309(4) 0.80750(3) 0.07157(3)
Dy11_2 Dy 0.675420(18) 0.808780(13) 0.412740(12)
C2_3 C 0.8144(3) 0.6646(3) 0.9908(2)
H1_3 H 0.8038 0.6264 0.9850
C3_3 C 0.8237(3) 0.7031(3) 0.9608(2)
H2_3 H 0.8222 0.6966 0.9302
C4_3 C 0.8363(3) 0.7555(3) 0.9843(2)
C5_3 C 0.8574(3) 0.8036(3) 0.9670(2)
C6_3 C 0.8671(3) 0.8533(3) 0.9914(2)
C7_3 C 0.8857(4) 0.9044(3) 0.9739(3)
H3_3 H 0.8989 0.9083 0.9472
H4_6 H 0.8907 0.9840 1.0000
C21_3 C 0.8731(4) 0.8001(3) 0.9235(2)
C22_3 C 0.8263(3) 0.7969(3) 0.8838(3)
H9_3 H 0.7824 0.7982 0.8836
C23_3 C 0.8420(3) 0.7918(3) 0.8436(2)
H10_3 H 0.8088 0.7902 0.8160
C24_3 C 0.9065(3) 0.7891(2) 0.8434(2)
C25_3 C 0.9539(4) 0.7936(3) 0.8841(3)
H11_3 H 0.9980 0.7929 0.8844
C26_3 C 0.9383(3) 0.7992(3) 0.9238(3)
H12_3 H 0.9712 0.8025 0.9514
C27_3 C 0.9234(4) 0.7814(3) 0.8003(2)
O1_3 O 0.8787(2) 0.77958(18) 0.76423(16)
O2_3 O 0.9825(2) 0.77700(18) 0.80117(16)
C63_5 C 1.0000 0.9499(3) 0.7500
C64_5 C 1.0000 0.8911(3) 0.7500
O9_3 O 0.9510(2) 0.86437(17) 0.72602(17)
O13_3 O 0.8153(2) 0.82895(18) 0.68042(16)
C77_3 C 0.7771(4) 0.8421(4) 0.7028(3)
H37_3 H 0.7868 0.8281 0.7326
N7_3 N 0.7266(3) 0.8722(3) 0.6897(3)
C78_3 C 0.7059(4) 0.8972(4) 0.6454(3)
H38_3 H 0.7032 0.8685 0.6225
H39_3 H 0.6635 0.9144 0.6411
H40_3 H 0.7370 0.9259 0.6427
C79_3 C 0.6872(5) 0.8856(5) 0.7204(3)
H41_3 H 0.6858 0.9262 0.7241
H42_3 H 0.6434 0.8714 0.7077
H43_3 H 0.7063 0.8682 0.7498
C138_3 C 0.9477(4) 0.9822(3) 0.7245(3)
H77_3 H 0.9110 0.9634 0.7062
C73_4 C 0.5523(3) 0.0117(3) 0.7749(3)
C74_4 C 0.5532(3) 0.0694(3) 0.7753(2)
H36_4 H 0.5900 0.0887 0.7928
C75_6 C 0.5000 0.0992(4) 0.7500
C76_6 C 0.5000 0.1617(4) 0.7500
O12_2 O 0.5492(2) 0.18633(17) 0.77276(18)
C146_4 C 0.4477(3) 0.0117(3) 0.7251(3)
C147_4 C 0.4468(3) 0.0694(3) 0.7247(2)
H83_4 H 0.4100 0.0887 0.7072
O39_2 O 0.4508(2) 0.18633(17) 0.72724(18)
C1_4 C 0.3238(3) 0.1931(3) 0.0328(2)
C8_4 C 0.3807(4) 0.4457(3) 0.0023(3)
H4_7 H 0.3907 0.4840 0.0000
C9_4 C 0.3573(3) 0.4200(3) 0.0371(2)
C10_4 C 0.3384(3) 0.4484(3) 0.0705(2)
C11_4 C 0.3168(3) 0.4220(3) 0.1034(2)
C12_4 C 0.2940(3) 0.4517(3) 0.1367(2)
H5_4 H 0.2878 0.4908 0.1384
C13_4 C 0.2838(3) 0.4128(3) 0.1645(2)
H6_4 H 0.2680 0.4191 0.1898
C14_4 C 0.3004(3) 0.3600(3) 0.1500(2)
C15_4 C 0.3065(3) 0.3110(3) 0.1749(2)
C16_4 C 0.3276(3) 0.2610(3) 0.1598(2)
C17_4 C 0.3403(3) 0.2110(3) 0.1853(2)
H7_4 H 0.3420 0.2070 0.2161
C18_4 C 0.3497(3) 0.1702(3) 0.1578(2)
H8_4 H 0.3611 0.1326 0.1657
C19_4 C 0.3391(3) 0.1951(3) 0.1142(2)
C20_4 C 0.3310(3) 0.1669(3) 0.0740(3)
N1_4 N 0.3328(2) 0.2498(2) 0.02807(18)
N2_4 N 0.3511(3) 0.3623(2) 0.03050(18)
N3_4 N 0.3183(3) 0.3661(2) 0.11071(19)
N4_4 N 0.3310(2) 0.2525(2) 0.11724(18)
C28_4 C 0.3409(4) 0.5106(3) 0.0713(2)
C29_4 C 0.3971(4) 0.5372(3) 0.0981(3)
H13_4 H 0.4351 0.5163 0.1113
C30_4 C 0.3954(4) 0.5956(3) 0.1047(3)
H14_4 H 0.4323 0.6139 0.1232
C31_4 C 0.3397(3) 0.6268(3) 0.0843(2)
C32_4 C 0.2881(4) 0.5993(3) 0.0574(2)
H15_4 H 0.2510 0.6203 0.0424
C33_4 C 0.2871(4) 0.5421(3) 0.0509(2)
H16_4 H 0.2495 0.5246 0.0325
C34_4 C 0.3376(4) 0.6872(3) 0.0926(3)
O3_4 O 0.2893(3) 0.71449(19) 0.07239(18)
C35_4 C 0.2888(3) 0.3128(3) 0.2183(2)
C36_4 C 0.2246(3) 0.3220(3) 0.2174(2)
H17_4 H 0.1933 0.3295 0.1896
C37_4 C 0.2067(3) 0.3200(2) 0.2566(2)
H18_4 H 0.1629 0.3267 0.2554
C38_4 C 0.2501(3) 0.3087(3) 0.2974(2)
C39_4 C 0.3150(3) 0.3027(3) 0.2989(2)
H19_4 H 0.3465 0.2980 0.3270
C40_4 C 0.3335(3) 0.3038(3) 0.2592(2)
H20_4 H 0.3775 0.2982 0.2604
C41_4 C 0.2300(4) 0.3015(3) 0.3384(3)
C42_4 C 0.3308(3) 0.1036(3) 0.0758(3)
C43_4 C 0.3760(4) 0.0728(3) 0.0620(3)
H21_4 H 0.4076 0.0911 0.0510
C44_4 C 0.3749(5) 0.0142(3) 0.0642(3)
C46_4 C 0.2835(4) 0.0179(3) 0.0934(3)
C47_4 C 0.2845(4) 0.0752(3) 0.0908(3)
H24_4 H 0.2525 0.0960 0.0995
Cu1_4 Cu 0.33309(4) 0.30750(3) 0.07157(3)
H33_2 H 0.5316 0.7895 0.0057
C71_4 C 0.4223(6) 0.7938(4) 0.0262(3)
O10_4 O 0.4665(5) 0.8127(5) 0.0595(3)
O11_4 O 0.3695(4) 0.7829(2) 0.0313(3)
O14_4 O 0.2294(3) 0.8174(4) 0.0264(2)
H44_4 H 0.2108 0.7803 0.0181
H45_4 H 0.1982 0.8408 0.0357
O15_4 O 0.4321(3) 0.8252(3) 0.1339(2)
H46_4 H 0.4614 0.8278 0.1148
H47_4 H 0.4330 0.8604 0.1501
O31_2 O 0.3053(3) 0.9013(2) 0.1102(2)
O34_2 O 0.3502(4) 0.8969(2) 0.0544(2)
H96_2 H 0.504628 0.78774 0.0655575
C2_4 C 0.3144(3) 0.1646(3) 0.9908(2)
H1_4 H 0.3038 0.1264 0.9850
C3_4 C 0.3237(3) 0.2031(3) 0.9608(2)
H2_4 H 0.3222 0.1966 0.9302
C4_4 C 0.3363(3) 0.2555(3) 0.9843(2)
C5_4 C 0.3574(3) 0.3036(3) 0.9670(2)
C6_4 C 0.3671(3) 0.3533(3) 0.9914(2)
C7_4 C 0.3857(4) 0.4044(3) 0.9739(3)
H3_4 H 0.3989 0.4083 0.9472
H4_8 H 0.3907 0.4840 1.0000
C21_4 C 0.3731(4) 0.3001(3) 0.9235(2)
C22_4 C 0.3263(3) 0.2969(3) 0.8838(3)
H9_4 H 0.2824 0.2982 0.8836
C23_4 C 0.3420(3) 0.2918(3) 0.8436(2)
H10_4 H 0.3088 0.2902 0.8160
C24_4 C 0.4065(3) 0.2891(2) 0.8434(2)
C25_4 C 0.4539(4) 0.2936(3) 0.8841(3)
H11_4 H 0.4980 0.2929 0.8844
C26_4 C 0.4383(3) 0.2992(3) 0.9238(3)
H12_4 H 0.4712 0.3025 0.9514
C27_4 C 0.4234(4) 0.2814(3) 0.8003(2)
O1_4 O 0.3787(2) 0.27958(18) 0.76423(16)
O2_4 O 0.4825(2) 0.27700(18) 0.80117(16)
C49_6 C 0.5000 0.6327(4) 0.7500
C50_4 C 0.5016(3) 0.6606(3) 0.7899(2)
C51_6 C 0.5000(4) 0.6334(3) 0.8312(3)
H25_4 H 0.5043 0.5945 0.8374
C52_4 C 0.4912(3) 0.6731(3) 0.8591(2)
H26_4 H 0.4864 0.6676 0.8884
C53_4 C 0.4902(3) 0.7258(3) 0.8369(2)
C54_4 C 0.4786(3) 0.7764(3) 0.8554(3)
C55_4 C 0.4814(3) 0.8271(3) 0.8343(2)
C56_4 C 0.4768(3) 0.8798(3) 0.8550(3)
H27_4 H 0.4698 0.8856 0.8837
C57_4 C 0.4844(4) 0.9197(3) 0.8263(3)
H28_4 H 0.4836 0.9589 0.8307
C58_4 C 0.4938(3) 0.8918(3) 0.7882(2)
C59_6 C 0.5000 0.9208(4) 0.7500
N5_4 N 0.4970(3) 0.7181(2) 0.79428(18)
N6_4 N 0.4909(3) 0.8343(2) 0.79299(19)
C60_6 C 0.5000 0.5697(4) 0.7500
C61_4 C 0.5524(4) 0.5389(3) 0.7751(3)
H29_4 H 0.5895 0.5582 0.7924
C62_4 C 0.5523(4) 0.4822(3) 0.7755(3)
H30_4 H 0.5890 0.4634 0.7938
C63_6 C 0.5000 0.4499(3) 0.7500
C64_6 C 0.5000 0.3911(3) 0.7500
O9_4 O 0.4510(2) 0.36437(17) 0.72602(17)
C65_4 C 0.4638(4) 0.7770(3) 0.8993(3)
C66_4 C 0.4002(4) 0.7780(3) 0.9016(3)
H31_4 H 0.3652 0.7758 0.8750
C67_4 C 0.3887(5) 0.7824(3) 0.9446(4)
H32_4 H 0.3453 0.7813 0.9457
C68_4 C 0.4359(5) 0.7883(3) 0.9845(3)
C69_4 C 0.4964(5) 0.7867(4) 0.9793(3)
C70_4 C 0.5102(4) 0.7814(4) 0.9386(3)
H34_4 H 0.5540 0.7809 0.9382
C72_6 C 0.5000 0.9824(4) 0.7500
H35_4 H 0.5889 0.9919 0.7923
Cu2_6 Cu 0.5000 0.77643(5) 0.7500
O13_4 O 0.3153(2) 0.32895(18) 0.68042(16)
C77_4 C 0.2771(4) 0.3421(4) 0.7028(3)
H37_4 H 0.2868 0.3281 0.7326
N7_4 N 0.2266(3) 0.3722(3) 0.6897(3)
C78_4 C 0.2059(4) 0.3972(4) 0.6454(3)
H38_4 H 0.2032 0.3685 0.6225
H39_4 H 0.1635 0.4144 0.6411
H40_4 H 0.2370 0.4259 0.6427
C79_4 C 0.1872(5) 0.3856(5) 0.7204(3)
H41_4 H 0.1858 0.4262 0.7241
H42_4 H 0.1434 0.3714 0.7077
H43_4 H 0.2063 0.3682 0.7498
C80_4 C 0.6762(3) 0.1931(3) 0.4672(2)
C81_4 C 0.6856(3) 0.1646(3) 0.5092(2)
H48_4 H 0.6962 0.1264 0.5150
C82_4 C 0.6763(3) 0.2031(3) 0.5392(2)
H49_4 H 0.6778 0.1966 0.5698
C83_4 C 0.6637(3) 0.2555(3) 0.5157(2)
C84_4 C 0.6426(3) 0.3036(3) 0.5330(2)
C85_4 C 0.6329(3) 0.3533(3) 0.5086(2)
C86_4 C 0.6143(4) 0.4044(3) 0.5261(3)
H50_4 H 0.6011 0.4083 0.5528
C87_4 C 0.6193(4) 0.4457(3) 0.4977(3)
H51_4 H 0.6093 0.4840 0.5000
C88_4 C 0.6427(3) 0.4200(3) 0.4629(2)
C89_4 C 0.6616(3) 0.4484(3) 0.4295(2)
C90_4 C 0.6832(3) 0.4220(3) 0.3966(2)
C91_4 C 0.7060(3) 0.4517(3) 0.3633(2)
H52_4 H 0.7122 0.4908 0.3616
C92_4 C 0.7162(3) 0.4128(3) 0.3355(2)
H53_4 H 0.7320 0.4191 0.3102
C93_4 C 0.6996(3) 0.3600(3) 0.3500(2)
C94_4 C 0.6935(3) 0.3110(3) 0.3251(2)
C95_4 C 0.6724(3) 0.2610(3) 0.3402(2)
C96_4 C 0.6597(3) 0.2110(3) 0.3147(2)
H54_4 H 0.6580 0.2070 0.2839
C97_4 C 0.6503(3) 0.1702(3) 0.3422(2)
H55_4 H 0.6389 0.1326 0.3343
C98_4 C 0.6609(3) 0.1951(3) 0.3858(2)
C99_4 C 0.6690(3) 0.1669(3) 0.4260(3)
N8_4 N 0.6672(2) 0.2498(2) 0.47193(18)
N9_4 N 0.6489(3) 0.3623(2) 0.46950(18)
N10_4 N 0.6817(3) 0.3661(2) 0.38929(19)
N11_4 N 0.6690(2) 0.2525(2) 0.38276(18)
C100_4 C 0.6269(4) 0.3001(3) 0.5765(2)
C101_4 C 0.6737(3) 0.2969(3) 0.6162(3)
H56_4 H 0.7176 0.2982 0.6164
C102_4 C 0.6580(3) 0.2918(3) 0.6564(2)
H57_4 H 0.6912 0.2902 0.6840
C103_4 C 0.5935(3) 0.2891(2) 0.6566(2)
C104_4 C 0.5461(4) 0.2936(3) 0.6159(3)
H58_4 H 0.5020 0.2929 0.6156
C105_4 C 0.5617(3) 0.2992(3) 0.5762(3)
H59_4 H 0.5288 0.3025 0.5486
C106_4 C 0.5766(4) 0.2814(3) 0.6997(2)
O16_4 O 0.6213(2) 0.27958(18) 0.73577(16)
O17_4 O 0.5175(2) 0.27700(18) 0.69883(16)
C107_4 C 0.6591(4) 0.5106(3) 0.4287(2)
C108_4 C 0.6029(4) 0.5372(3) 0.4019(3)
H60_4 H 0.5649 0.5163 0.3887
C109_4 C 0.6046(4) 0.5956(3) 0.3953(3)
H61_4 H 0.5677 0.6139 0.3768
C110_4 C 0.6603(3) 0.6268(3) 0.4157(2)
C111_4 C 0.7119(4) 0.5993(3) 0.4426(2)
H62_4 H 0.7490 0.6203 0.4576
C112_4 C 0.7129(4) 0.5421(3) 0.4491(2)
H63_4 H 0.7505 0.5246 0.4675
C113_4 C 0.6624(4) 0.6872(3) 0.4074(3)
O18_4 O 0.7107(3) 0.71449(19) 0.42761(18)
C114_4 C 0.7112(3) 0.3128(3) 0.2817(2)
C115_4 C 0.7754(3) 0.3220(3) 0.2826(2)
H64_4 H 0.8067 0.3295 0.3104
C116_4 C 0.7933(3) 0.3200(2) 0.2434(2)
H65_4 H 0.8371 0.3267 0.2446
C117_4 C 0.7499(3) 0.3087(3) 0.2026(2)
C118_4 C 0.6850(3) 0.3027(3) 0.2011(2)
H66_4 H 0.6535 0.2980 0.1730
C119_4 C 0.6665(3) 0.3038(3) 0.2408(2)
H67_4 H 0.6225 0.2982 0.2396
C120_4 C 0.7700(4) 0.3015(3) 0.1616(3)
C121_4 C 0.6692(3) 0.1036(3) 0.4242(3)
C122_4 C 0.6240(4) 0.0728(3) 0.4380(3)
H68_4 H 0.5924 0.0911 0.4490
C123_4 C 0.6251(5) 0.0142(3) 0.4358(3)
C125_4 C 0.7165(4) 0.0179(3) 0.4066(3)
C126_4 C 0.7155(4) 0.0752(3) 0.4092(3)
H71_4 H 0.7475 0.0960 0.4005
O32_2 O 0.6947(3) 0.9013(2) 0.3898(2)
O35_2 O 0.6498(4) 0.8969(2) 0.4456(2)
Cu3_4 Cu 0.66691(4) 0.30750(3) 0.42843(3)
C128_4 C 0.4984(3) 0.6606(3) 0.7101(2)
C129_6 C 0.5000(4) 0.6334(3) 0.6688(3)
H72_4 H 0.4957 0.5945 0.6626
C130_4 C 0.5088(3) 0.6731(3) 0.6409(2)
H73_4 H 0.5136 0.6676 0.6116
C131_4 C 0.5098(3) 0.7258(3) 0.6631(2)
C132_4 C 0.5214(3) 0.7764(3) 0.6446(3)
C133_4 C 0.5186(3) 0.8271(3) 0.6657(2)
C134_4 C 0.5232(3) 0.8798(3) 0.6450(3)
H74_4 H 0.5302 0.8856 0.6163
C135_4 C 0.5156(4) 0.9197(3) 0.6737(3)
H75_4 H 0.5164 0.9589 0.6693
C136_4 C 0.5062(3) 0.8918(3) 0.7118(2)
N12_4 N 0.5030(3) 0.7181(2) 0.70572(18)
N13_4 N 0.5091(3) 0.8343(2) 0.70701(19)
C137_4 C 0.4476(4) 0.5389(3) 0.7249(3)
H76_4 H 0.4105 0.5582 0.7076
C138_4 C 0.4477(4) 0.4822(3) 0.7245(3)
H77_4 H 0.4110 0.4634 0.7062
O36_4 O 0.5490(2) 0.36437(17) 0.77398(17)
C139_4 C 0.5362(4) 0.7770(3) 0.6007(3)
C140_4 C 0.5998(4) 0.7780(3) 0.5984(3)
H78_4 H 0.6348 0.7758 0.6250
C141_4 C 0.6113(5) 0.7824(3) 0.5554(4)
H79_4 H 0.6547 0.7813 0.5543
C142_4 C 0.5641(5) 0.7883(3) 0.5155(3)
C143_4 C 0.5036(5) 0.7867(4) 0.5207(3)
H80_4 H 0.4684 0.7895 0.4943
C144_4 C 0.4898(4) 0.7814(4) 0.5614(3)
H81_4 H 0.4460 0.7809 0.5618
C145_4 C 0.5777(6) 0.7938(4) 0.4738(3)
O37_4 O 0.5335(5) 0.8127(5) 0.4405(3)
O38_4 O 0.6305(4) 0.7829(2) 0.4687(3)
H82_4 H 0.4111 0.9919 0.7077
O42_4 O 0.6847(2) 0.32895(18) 0.81958(16)
C148_4 C 0.7229(4) 0.3421(4) 0.7972(3)
H84_4 H 0.7132 0.3281 0.7674
N14_4 N 0.7734(3) 0.3722(3) 0.8103(3)
C149_4 C 0.7941(4) 0.3972(4) 0.8546(3)
H85_4 H 0.7968 0.3685 0.8775
H86_4 H 0.8365 0.4144 0.8589
H87_4 H 0.7630 0.4259 0.8573
C150_4 C 0.8128(5) 0.3856(5) 0.7796(3)
H88_4 H 0.8142 0.4262 0.7759
H89_4 H 0.8566 0.3714 0.7923
H90_4 H 0.7937 0.3682 0.7502
O43_4 O 0.7706(3) 0.8174(4) 0.4736(2)
H91_4 H 0.7892 0.7803 0.4819
H92_4 H 0.8018 0.8408 0.4643
O44_4 O 0.5679(3) 0.8252(3) 0.3661(2)
H93_4 H 0.5386 0.8278 0.3852
H94_4 H 0.5670 0.8604 0.3499
H95_4 H 0.495372 0.78774 0.434443
H22_4 H 0.4059 0.9929 0.0549
C45_4 C 0.3291(5) 0.9878(3) 0.0797(3)
H23_4 H 0.2522 0.9995 0.1046
C48_4 C 0.3278(5) 0.9252(3) 0.0819(4)
H69_4 H 0.5941 0.9929 0.4451
C124_4 C 0.6709(5) 0.9878(3) 0.4203(3)
H70_4 H 0.7478 0.9995 0.3954
C127_4 C 0.6722(5) 0.9252(3) 0.4181(4)
H33_3 H 0.9684 0.7105 0.9943
H96_3 H 0.995372 0.71226 0.934443
H33_4 H 0.0316 0.2895 0.0057
H96_4 H 0.0046283 0.28774 0.0655575
loop_
_geom_bond_atom_site_label_1
_geom_bond_atom_site_label_2
_geom_bond_site_symmetry_1
_geom_bond_site_symmetry_2
Dy1 O1 1_555 1_555
C2 H1 1_555 1_555
C3 C2 1_555 1_555
H2 C3 1_555 1_555
C4 C3 1_555 1_555
C5 C4 1_555 1_555
C6 C5 1_555 1_555
C7 C6 1_555 1_555
H3 C7 1_555 1_555
C21 C5 1_555 1_555
C22 C21 1_555 1_555
H9 C22 1_555 1_555
C23 C22 1_555 1_555
H10 C23 1_555 1_555
C24 C23 1_555 1_555
C25 C24 1_555 1_555
H11 C25 1_555 1_555
C26 C21 1_555 1_555
H12 C26 1_555 1_555
C27 C24 1_555 1_555
O1 C27 1_555 1_555
O2 C27 1_555 1_555
C64 C63 1_555 1_555
O9 Dy1 1_555 1_555
O13 Dy1 1_555 1_555
C77 O13 1_555 1_555
H37 C77 1_555 1_555
N7 C77 1_555 1_555
C78 N7 1_555 1_555
H38 C78 1_555 1_555
H39 C78 1_555 1_555
H40 C78 1_555 1_555
C79 N7 1_555 1_555
H41 C79 1_555 1_555
H42 C79 1_555 1_555
H43 C79 1_555 1_555
O20 Dy1 1_555 1_555
O23 Dy1 1_555 1_555
C138 C63 1_555 1_555
H77 C138 1_555 1_555
O40 Dy1 1_555 1_555
C25 C26 1_555 1_555
C64 O9 1_555 1_555
H4_2 C8 1_555 1_555
C9 C8 1_555 1_555
C10 C9 1_555 1_555
C11 C10 1_555 1_555
C12 C11 1_555 1_555
H5 C12 1_555 1_555
C13 C12 1_555 1_555
H6 C13 1_555 1_555
C14 C13 1_555 1_555
C15 C14 1_555 1_555
C16 C15 1_555 1_555
C17 C16 1_555 1_555
H7 C17 1_555 1_555
C18 C17 1_555 1_555
H8 C18 1_555 1_555
C19 C18 1_555 1_555
C20 C1 1_555 1_555
N1 C1 1_555 1_555
N3 C11 1_555 1_555
N4 C16 1_555 1_555
C35 C15 1_555 1_555
C36 C35 1_555 1_555
H17 C36 1_555 1_555
C37 C36 1_555 1_555
H18 C37 1_555 1_555
C38 C37 1_555 1_555
C39 C38 1_555 1_555
H19 C39 1_555 1_555
C40 C35 1_555 1_555
H20 C40 1_555 1_555
C41 C38 1_555 1_555
O5 C41 1_555 1_555
O6 C41 1_555 1_555
C42 C20 1_555 1_555
C43 C42 1_555 1_555
H21 C43 1_555 1_555
C44 C43 1_555 1_555
H22 C44 1_555 1_555
C45 C44 1_555 1_555
C46 C45 1_555 1_555
H23 C46 1_555 1_555
C47 C42 1_555 1_555
H24 C47 1_555 1_555
C48 C45 1_555 1_555
O7 C48 1_555 1_555
O8 C48 1_555 1_555
Cu1 N1 1_555 1_555
Dy5 O5 1_555 1_555
Dy11 O5 1_555 1_555
Dy12 O7 1_555 1_555
C9 N2 1_555 1_555
C14 N3 1_555 1_555
C19 C20 1_555 1_555
C19 N4 1_555 1_555
N2 Cu1 1_555 1_555
N3 Cu1 1_555 1_555
N4 Cu1 1_555 1_555
C39 C40 1_555 1_555
O6 Dy11 1_555 1_555
C46 C47 1_555 1_555
O8 Dy12 1_555 1_555
C52 C51 1_555 1_555
H26 C52 1_555 1_555
C53 C52 1_555 1_555
C54 C53 1_555 1_555
C55 C54 1_555 1_555
C56 C55 1_555 1_555
H27 C56 1_555 1_555
C57 C56 1_555 1_555
H28 C57 1_555 1_555
C58 C57 1_555 1_555
C59 C58 1_555 1_555
N6 C55 1_555 1_555
C60 C49 1_555 1_555
C65 C54 1_555 1_555
C66 C65 1_555 1_555
H31 C66 1_555 1_555
C67 C66 1_555 1_555
H32 C67 1_555 1_555
C68 C67 1_555 1_555
C69 C68 1_555 1_555
C72 C59 1_555 1_555
C76 C75 1_555 1_555
Cu2 N5 1_555 1_555
C128 C49 1_555 1_555
C129 C128 1_555 1_555
H72 C129 1_555 1_555
C137 C60 1_555 1_555
H76 C137 1_555 1_555
H81 C144 1_555 1_555
C146 C72 1_555 1_555
H82 C146 1_555 1_555
C147 C75 1_555 1_555
H83 C147 1_555 1_555
O40 C76 1_555 1_555
C53 N5 1_555 1_555
C58 N6 1_555 1_555
N6 Cu2 1_555 1_555
C146 C147 1_555 1_555
Dy12 O3 1_555 1_555
C29 C28 1_555 1_555
H13 C29 1_555 1_555
C30 C29 1_555 1_555
H14 C30 1_555 1_555
C31 C30 1_555 1_555
C32 C31 1_555 1_555
H15 C32 1_555 1_555
C33 C28 1_555 1_555
H16 C33 1_555 1_555
C34 C31 1_555 1_555
O3 C34 1_555 1_555
O4 C34 1_555 1_555
O10 C71 1_555 1_555
O11 Dy12 1_555 1_555
O14 Dy12 1_555 1_555
H44 O14 1_555 1_555
H45 O14 1_555 1_555
O15 Dy12 1_555 1_555
H46 O15 1_555 1_555
H47 O15 1_555 1_555
Dy4 O4 1_555 1_555
O24 Dy12 1_555 1_555
O28 Dy12 1_555 1_555
C32 C33 1_555 1_555
C71 O11 1_555 1_555
Dy4 O24 1_555 1_555
H30 C62 1_555 1_555
C63_2 C62 1_555 1_555
C64_2 C63_2 1_555 1_555
Dy9 O22 1_555 1_555
Dy13 O22 1_555 1_555
Dy14 O30 1_555 1_555
C80 C81 1_555 1_555
C81 H48 1_555 1_555
C82 C81 1_555 1_555
H49 C82 1_555 1_555
C83 C82 1_555 1_555
C84 C83 1_555 1_555
C85 C84 1_555 1_555
C86 C85 1_555 1_555
H50 C86 1_555 1_555
C87 C86 1_555 1_555
H51 C87 1_555 1_555
C88 C87 1_555 1_555
C89 C88 1_555 1_555
C90 C89 1_555 1_555
C91 C90 1_555 1_555
H52 C91 1_555 1_555
C92 C91 1_555 1_555
H53 C92 1_555 1_555
C93 C92 1_555 1_555
C94 C93 1_555 1_555
C95 C94 1_555 1_555
C96 C95 1_555 1_555
H54 C96 1_555 1_555
C97 C96 1_555 1_555
H55 C97 1_555 1_555
C98 C97 1_555 1_555
C99 C80 1_555 1_555
N8 C80 1_555 1_555
N9 C85 1_555 1_555
N10 C90 1_555 1_555
N11 C95 1_555 1_555
C100 C84 1_555 1_555
C101 C100 1_555 1_555
H56 C101 1_555 1_555
C102 C101 1_555 1_555
H57 C102 1_555 1_555
C103 C102 1_555 1_555
C104 C103 1_555 1_555
H58 C104 1_555 1_555
C105 C100 1_555 1_555
H59 C105 1_555 1_555
C106 C103 1_555 1_555
O16 Dy3 1_555 1_555
O21 Dy3 1_555 1_555
C114 C94 1_555 1_555
C115 C114 1_555 1_555
H64 C115 1_555 1_555
C116 C115 1_555 1_555
H65 C116 1_555 1_555
C117 C116 1_555 1_555
C118 C117 1_555 1_555
H66 C118 1_555 1_555
C119 C114 1_555 1_555
H67 C119 1_555 1_555
C120 C117 1_555 1_555
O22 C120 1_555 1_555
O25 Dy3 1_555 1_555
O27 Dy13 1_555 1_555
C121 C99 1_555 1_555
C122 C121 1_555 1_555
H68 C122 1_555 1_555
C123 C122 1_555 1_555
H69 C123 1_555 1_555
C124 C123 1_555 1_555
C125 C124 1_555 1_555
H70 C125 1_555 1_555
C126 C121 1_555 1_555
H71 C126 1_555 1_555
C127 C124 1_555 1_555
O30 C127 1_555 1_555
O33 Dy14 1_555 1_555
Cu3 N8 1_555 1_555
O36 C64_2 1_555 1_555
O41 Dy3 1_555 1_555
O42 Dy3 1_555 1_555
C148 O42 1_555 1_555
H84 C148 1_555 1_555
N14 C148 1_555 1_555
C149 N14 1_555 1_555
H85 C149 1_555 1_555
H86 C149 1_555 1_555
H87 C149 1_555 1_555
C150 N14 1_555 1_555
H88 C150 1_555 1_555
H89 C150 1_555 1_555
H90 C150 1_555 1_555
Dy3 O36 1_555 1_555
C83 N8 1_555 1_555
C88 N9 1_555 1_555
C93 N10 1_555 1_555
C98 C99 1_555 1_555
C98 N11 1_555 1_555
N9 Cu3 1_555 1_555
N10 Cu3 1_555 1_555
N11 Cu3 1_555 1_555
C104 C105 1_555 1_555
C106 O16 1_555 1_555
C106 O17 1_555 1_555
C118 C119 1_555 1_555
C120 O27 1_555 1_555
C125 C126 1_555 1_555
C127 O33 1_555 1_555
C49_2 C50 1_555 1_555
C50 C51_2 1_555 1_555
C51_2 H25 1_555 1_555
C60_2 C49_2 1_555 1_555
C61 C60_2 1_555 1_555
H29 C61 1_555 1_555
H34 C70 1_555 1_555
C72_2 C59_2 1_555 1_555
C73 C72_2 1_555 1_555
H35 C73 1_555 1_555
C74 C73 1_555 1_555
H36 C74 1_555 1_555
C75_2 C74 1_555 1_555
C76_2 C75_2 1_555 1_555
O41 C76_2 1_555 1_555
Dy8 O19 1_555 1_555
Dy14 O18 1_555 1_555
C108 C107 1_555 1_555
H60 C108 1_555 1_555
C109 C108 1_555 1_555
H61 C109 1_555 1_555
C110 C109 1_555 1_555
C111 C110 1_555 1_555
H62 C111 1_555 1_555
C112 C107 1_555 1_555
H63 C112 1_555 1_555
C113 C110 1_555 1_555
O18 C113 1_555 1_555
O19 C113 1_555 1_555
O26 Dy8 1_555 1_555
O29 Dy14 1_555 1_555
C130 C129_2 1_555 1_555
H73 C130 1_555 1_555
C131 C130 1_555 1_555
C132 C131 1_555 1_555
C133 C132 1_555 1_555
C134 C133 1_555 1_555
H74 C134 1_555 1_555
C135 C134 1_555 1_555
H75 C135 1_555 1_555
C136 C59_2 1_555 1_555
N12 Cu2_2 1_555 1_555
N13 Cu2_2 1_555 1_555
C139 C132 1_555 1_555
C140 C139 1_555 1_555
H78 C140 1_555 1_555
C141 C140 1_555 1_555
H79 C141 1_555 1_555
C142 C141 1_555 1_555
C143 C142 1_555 1_555
C145 C142 1_555 1_555
O37 C145 1_555 1_555
O38 Dy14 1_555 1_555
O43 Dy14 1_555 1_555
H91 O43 1_555 1_555
H92 O43 1_555 1_555
O44 Dy14 1_555 1_555
H93 O44 1_555 1_555
H94 O44 1_555 1_555
Dy14 O26 1_555 1_555
C111 C112 1_555 1_555
C131 N12 1_555 1_555
C133 N13 1_555 1_555
C135 C136 1_555 1_555
C136 N13 1_555 1_555
C145 O38 1_555 1_555
Dy11 O30_2 1_555 1_555
C127_2 C124_2 1_555 1_555
O30_2 C127_2 1_555 1_555
O33_2 Dy11 1_555 1_555
C127_2 O33_2 1_555 1_555
C48_2 C45_2 1_555 1_555
O7_2 C48_2 1_555 1_555
O8_2 C48_2 1_555 1_555
Dy13 O7_2 1_555 1_555
O8_2 Dy13 1_555 1_555
Dy1_2 O1_2 1_555 1_555
C2_2 H1_2 1_555 1_555
C3_2 C2_2 1_555 1_555
H2_2 C3_2 1_555 1_555
C4_2 C3_2 1_555 1_555
C5_2 C4_2 1_555 1_555
C6_2 C5_2 1_555 1_555
C7_2 C6_2 1_555 1_555
H3_2 C7_2 1_555 1_555
C21_2 C5_2 1_555 1_555
C22_2 C21_2 1_555 1_555
H9_2 C22_2 1_555 1_555
C23_2 C22_2 1_555 1_555
H10_2 C23_2 1_555 1_555
C24_2 C23_2 1_555 1_555
C25_2 C24_2 1_555 1_555
H11_2 C25_2 1_555 1_555
C26_2 C21_2 1_555 1_555
H12_2 C26_2 1_555 1_555
C27_2 C24_2 1_555 1_555
O1_2 C27_2 1_555 1_555
O2_2 C27_2 1_555 1_555
C49_3 C50_2 1_555 1_555
C50_2 C51_3 1_555 1_555
C51_3 H25_2 1_555 1_555
C52_2 C51_3 1_555 1_555
H26_2 C52_2 1_555 1_555
C53_2 C52_2 1_555 1_555
C54_2 C53_2 1_555 1_555
C55_2 C54_2 1_555 1_555
C56_2 C55_2 1_555 1_555
H27_2 C56_2 1_555 1_555
C57_2 C56_2 1_555 1_555
H28_2 C57_2 1_555 1_555
C58_2 C57_2 1_555 1_555
C59_3 C58_2 1_555 1_555
N5_2 C50_2 1_555 1_555
N6_2 C55_2 1_555 1_555
C60_3 C49_3 1_555 1_555
C61_2 C60_3 1_555 1_555
H29_2 C61_2 1_555 1_555
C62_2 C61_2 1_555 1_555
H30_2 C62_2 1_555 1_555
C63_3 C62_2 1_555 1_555
C64_3 C63_3 1_555 1_555
O9_2 Dy1_2 1_555 1_555
C65_2 C54_2 1_555 1_555
C66_2 C65_2 1_555 1_555
H31_2 C66_2 1_555 1_555
C67_2 C66_2 1_555 1_555
H32_2 C67_2 1_555 1_555
C68_2 C67_2 1_555 1_555
C69_2 C68_2 1_555 1_555
C70_2 C65_2 1_555 1_555
H34_2 C70_2 1_555 1_555
C72_3 C59_3 1_555 1_555
Cu2_3 N5_2 1_555 1_555
O13_2 Dy1_2 1_555 1_555
C77_2 O13_2 1_555 1_555
H37_2 C77_2 1_555 1_555
N7_2 C77_2 1_555 1_555
C78_2 N7_2 1_555 1_555
H38_2 C78_2 1_555 1_555
H39_2 C78_2 1_555 1_555
H40_2 C78_2 1_555 1_555
C79_2 N7_2 1_555 1_555
H41_2 C79_2 1_555 1_555
H42_2 C79_2 1_555 1_555
H43_2 C79_2 1_555 1_555
Dy3_2 O2_2 1_555 1_555
Dy5 O19_2 1_555 1_555
Dy11 O18_2 1_555 1_555
C80_2 C81_2 1_555 1_555
C81_2 H48_2 1_555 1_555
C82_2 C81_2 1_555 1_555
H49_2 C82_2 1_555 1_555
C83_2 C82_2 1_555 1_555
C84_2 C83_2 1_555 1_555
C85_2 C84_2 1_555 1_555
C86_2 C85_2 1_555 1_555
H50_2 C86_2 1_555 1_555
C87_2 C86_2 1_555 1_555
H51_2 C87_2 1_555 1_555
C88_2 C87_2 1_555 1_555
C89_2 C88_2 1_555 1_555
C90_2 C89_2 1_555 1_555
C91_2 C90_2 1_555 1_555
H52_2 C91_2 1_555 1_555
C92_2 C91_2 1_555 1_555
H53_2 C92_2 1_555 1_555
C93_2 C92_2 1_555 1_555
C94_2 C93_2 1_555 1_555
C95_2 C94_2 1_555 1_555
C96_2 C95_2 1_555 1_555
H54_2 C96_2 1_555 1_555
C97_2 C96_2 1_555 1_555
H55_2 C97_2 1_555 1_555
C98_2 C97_2 1_555 1_555
C99_2 C80_2 1_555 1_555
N8_2 C80_2 1_555 1_555
N9_2 C85_2 1_555 1_555
N10_2 C90_2 1_555 1_555
N11_2 C95_2 1_555 1_555
C100_2 C84_2 1_555 1_555
C101_2 C100_2 1_555 1_555
H56_2 C101_2 1_555 1_555
C102_2 C101_2 1_555 1_555
H57_2 C102_2 1_555 1_555
C103_2 C102_2 1_555 1_555
C104_2 C103_2 1_555 1_555
H58_2 C104_2 1_555 1_555
C105_2 C100_2 1_555 1_555
H59_2 C105_2 1_555 1_555
C106_2 C103_2 1_555 1_555
O16_2 Dy3_2 1_555 1_555
O17_2 Dy1_2 1_555 1_555
C107_2 C89_2 1_555 1_555
C108_2 C107_2 1_555 1_555
H60_2 C108_2 1_555 1_555
C109_2 C108_2 1_555 1_555
H61_2 C109_2 1_555 1_555
C110_2 C109_2 1_555 1_555
C111_2 C110_2 1_555 1_555
H62_2 C111_2 1_555 1_555
C112_2 C107_2 1_555 1_555
H63_2 C112_2 1_555 1_555
C113_2 C110_2 1_555 1_555
O18_2 C113_2 1_555 1_555
O19_2 C113_2 1_555 1_555
O20_2 Dy1_2 1_555 1_555
O21_2 Dy3_2 1_555 1_555
C114_2 C94_2 1_555 1_555
C115_2 C114_2 1_555 1_555
H64_2 C115_2 1_555 1_555
C116_2 C115_2 1_555 1_555
H65_2 C116_2 1_555 1_555
C117_2 C116_2 1_555 1_555
C118_2 C117_2 1_555 1_555
H66_2 C118_2 1_555 1_555
C119_2 C114_2 1_555 1_555
H67_2 C119_2 1_555 1_555
C120_2 C117_2 1_555 1_555
O24 C120_2 1_555 1_555
O23_2 Dy1_2 1_555 1_555
O25_2 Dy3_2 1_555 1_555
C121_2 C99_2 1_555 1_555
C122_2 C121_2 1_555 1_555
H68_2 C122_2 1_555 1_555
C123_2 C122_2 1_555 1_555
C126_2 C121_2 1_555 1_555
H71_2 C126_2 1_555 1_555
Cu3_2 N8_2 1_555 1_555
C128_2 C49_3 1_555 1_555
C129_3 C128_2 1_555 1_555
H72_2 C129_3 1_555 1_555
C130_2 C129_3 1_555 1_555
H73_2 C130_2 1_555 1_555
C131_2 C130_2 1_555 1_555
C132_2 C131_2 1_555 1_555
C133_2 C132_2 1_555 1_555
C134_2 C133_2 1_555 1_555
H74_2 C134_2 1_555 1_555
C135_2 C134_2 1_555 1_555
H75_2 C135_2 1_555 1_555
C136_2 C59_3 1_555 1_555
N12_2 Cu2_3 1_555 1_555
N13_2 Cu2_3 1_555 1_555
C137_2 C60_3 1_555 1_555
H76_2 C137_2 1_555 1_555
C138_2 C63_3 1_555 1_555
H77_2 C138_2 1_555 1_555
O36_2 C64_3 1_555 1_555
C139_2 C132_2 1_555 1_555
C140_2 C139_2 1_555 1_555
H78_2 C140_2 1_555 1_555
C141_2 C140_2 1_555 1_555
H79_2 C141_2 1_555 1_555
C142_2 C141_2 1_555 1_555
C143_2 C142_2 1_555 1_555
H80_2 C143_2 1_555 1_555
C144_2 C139_2 1_555 1_555
H81_2 C144_2 1_555 1_555
C145_2 C142_2 1_555 1_555
O37_2 C145_2 1_555 1_555
O38_2 Dy11 1_555 1_555
O40_2 Dy1_2 1_555 1_555
O41_2 Dy3_2 1_555 1_555
O42_2 Dy3_2 1_555 1_555
C148_2 O42_2 1_555 1_555
H84_2 C148_2 1_555 1_555
N14_2 C148_2 1_555 1_555
C149_2 N14_2 1_555 1_555
H85_2 C149_2 1_555 1_555
H86_2 C149_2 1_555 1_555
H87_2 C149_2 1_555 1_555
C150_2 N14_2 1_555 1_555
H88_2 C150_2 1_555 1_555
H89_2 C150_2 1_555 1_555
H90_2 C150_2 1_555 1_555
O43_2 Dy11 1_555 1_555
H91_2 O43_2 1_555 1_555
H92_2 O43_2 1_555 1_555
O44_2 Dy11 1_555 1_555
H93_2 O44_2 1_555 1_555
H94_2 O44_2 1_555 1_555
C25_2 C26_2 1_555 1_555
C53_2 N5_2 1_555 1_555
C58_2 N6_2 1_555 1_555
N6_2 Cu2_3 1_555 1_555
C64_3 O9_2 1_555 1_555
C69_2 C70_2 1_555 1_555
Dy3_2 O36_2 1_555 1_555
C83_2 N8_2 1_555 1_555
C88_2 N9_2 1_555 1_555
C93_2 N10_2 1_555 1_555
C98_2 C99_2 1_555 1_555
C98_2 N11_2 1_555 1_555
N9_2 Cu3_2 1_555 1_555
N10_2 Cu3_2 1_555 1_555
N11_2 Cu3_2 1_555 1_555
C104_2 C105_2 1_555 1_555
C106_2 O16_2 1_555 1_555
C106_2 O17_2 1_555 1_555
C111_2 C112_2 1_555 1_555
C118_2 C119_2 1_555 1_555
C120_2 O28 1_555 1_555
C125_2 C126_2 1_555 1_555
C128_2 N12_2 1_555 1_555
C131_2 N12_2 1_555 1_555
C133_2 N13_2 1_555 1_555
C135_2 C136_2 1_555 1_555
C136_2 N13_2 1_555 1_555
C137_2 C138_2 1_555 1_555
C143_2 C144_2 1_555 1_555
C145_2 O38_2 1_555 1_555
O37_2 H95_2 1_555 1_555
Dy13 O3_2 1_555 1_555
H4_4 C8_2 1_555 1_555
C9_2 C8_2 1_555 1_555
C10_2 C9_2 1_555 1_555
C11_2 C10_2 1_555 1_555
C12_2 C11_2 1_555 1_555
H5_2 C12_2 1_555 1_555
C13_2 C12_2 1_555 1_555
H6_2 C13_2 1_555 1_555
C14_2 C13_2 1_555 1_555
C15_2 C14_2 1_555 1_555
C16_2 C15_2 1_555 1_555
C17_2 C16_2 1_555 1_555
H7_2 C17_2 1_555 1_555
C18_2 C17_2 1_555 1_555
H8_2 C18_2 1_555 1_555
C19_2 C18_2 1_555 1_555
C20_2 C1_2 1_555 1_555
N1_2 C1_2 1_555 1_555
N3_2 C11_2 1_555 1_555
N4_2 C16_2 1_555 1_555
C28_2 C10_2 1_555 1_555
C29_2 C28_2 1_555 1_555
H13_2 C29_2 1_555 1_555
C30_2 C29_2 1_555 1_555
H14_2 C30_2 1_555 1_555
C31_2 C30_2 1_555 1_555
C32_2 C31_2 1_555 1_555
H15_2 C32_2 1_555 1_555
C33_2 C28_2 1_555 1_555
H16_2 C33_2 1_555 1_555
C34_2 C31_2 1_555 1_555
O3_2 C34_2 1_555 1_555
O4_2 C34_2 1_555 1_555
C35_2 C15_2 1_555 1_555
C36_2 C35_2 1_555 1_555
H17_2 C36_2 1_555 1_555
C37_2 C36_2 1_555 1_555
H18_2 C37_2 1_555 1_555
C38_2 C37_2 1_555 1_555
C39_2 C38_2 1_555 1_555
H19_2 C39_2 1_555 1_555
C40_2 C35_2 1_555 1_555
H20_2 C40_2 1_555 1_555
C41_2 C38_2 1_555 1_555
O26 C41_2 1_555 1_555
O29 C41_2 1_555 1_555
C42_2 C20_2 1_555 1_555
C43_2 C42_2 1_555 1_555
H21_2 C43_2 1_555 1_555
C44_2 C43_2 1_555 1_555
C47_2 C42_2 1_555 1_555
H24_2 C47_2 1_555 1_555
Cu1_2 N1_2 1_555 1_555
O10_2 C71_2 1_555 1_555
O11_2 Dy13 1_555 1_555
O14_2 Dy13 1_555 1_555
H44_2 O14_2 1_555 1_555
H45_2 O14_2 1_555 1_555
O15_2 Dy13 1_555 1_555
H46_2 O15_2 1_555 1_555
H47_2 O15_2 1_555 1_555
Dy9 O4_2 1_555 1_555
C9_2 N2_2 1_555 1_555
C14_2 N3_2 1_555 1_555
C19_2 C20_2 1_555 1_555
C19_2 N4_2 1_555 1_555
N2_2 Cu1_2 1_555 1_555
N3_2 Cu1_2 1_555 1_555
N4_2 Cu1_2 1_555 1_555
C32_2 C33_2 1_555 1_555
C39_2 C40_2 1_555 1_555
C46_2 C47_2 1_555 1_555
C71_2 O11_2 1_555 1_555
O10_2 H96 1_555 1_555
C74_2 C73_2 1_555 1_555
H36_2 C74_2 1_555 1_555
C75_3 C74_2 1_555 1_555
C76_3 C75_3 1_555 1_555
O41_2 C76_3 1_555 1_555
C147_2 C75_3 1_555 1_555
H83_2 C147_2 1_555 1_555
O40_2 C76_3 1_555 1_555
C146_2 C147_2 1_555 1_555
C49_4 C50_3 1_555 1_555
C50_3 C51_4 1_555 1_555
C51_4 H25_3 1_555 1_555
C60_4 C49_4 1_555 1_555
C61_3 C60_4 1_555 1_555
H29_3 C61_3 1_555 1_555
H34_3 C70_3 1_555 1_555
C72_4 C59_4 1_555 1_555
C73_3 C72_4 1_555 1_555
H35_3 C73_3 1_555 1_555
C74_3 C73_3 1_555 1_555
H36_3 C74_3 1_555 1_555
C75_4 C74_3 1_555 1_555
C76_4 C75_4 1_555 1_555
O12 C76_4 1_555 1_555
Dy4 O12 1_555 1_555
Dy10 O18_3 1_555 1_555
C108_3 C107_3 1_555 1_555
H60_3 C108_3 1_555 1_555
C109_3 C108_3 1_555 1_555
H61_3 C109_3 1_555 1_555
C110_3 C109_3 1_555 1_555
C111_3 C110_3 1_555 1_555
H62_3 C111_3 1_555 1_555
C112_3 C107_3 1_555 1_555
H63_3 C112_3 1_555 1_555
C113_3 C110_3 1_555 1_555
O18_3 C113_3 1_555 1_555
O20 C113_3 1_555 1_555
O29_2 Dy10 1_555 1_555
O32 Dy10 1_555 1_555
O35 Dy10 1_555 1_555
C130_3 C129_4 1_555 1_555
H73_3 C130_3 1_555 1_555
C131_3 C130_3 1_555 1_555
C132_3 C131_3 1_555 1_555
C133_3 C132_3 1_555 1_555
C134_3 C133_3 1_555 1_555
H74_3 C134_3 1_555 1_555
C135_3 C134_3 1_555 1_555
H75_3 C135_3 1_555 1_555
C136_3 C59_4 1_555 1_555
N12_3 Cu2_4 1_555 1_555
N13_3 Cu2_4 1_555 1_555
C139_3 C132_3 1_555 1_555
C140_3 C139_3 1_555 1_555
H78_3 C140_3 1_555 1_555
C141_3 C140_3 1_555 1_555
H79_3 C141_3 1_555 1_555
C142_3 C141_3 1_555 1_555
C143_3 C142_3 1_555 1_555
C145_3 C142_3 1_555 1_555
O37_3 C145_3 1_555 1_555
O38_3 Dy10 1_555 1_555
O43_3 Dy10 1_555 1_555
H91_3 O43_3 1_555 1_555
H92_3 O43_3 1_555 1_555
O44_3 Dy10 1_555 1_555
H93_3 O44_3 1_555 1_555
H94_3 O44_3 1_555 1_555
Dy10 O23 1_555 1_555
C111_3 C112_3 1_555 1_555
C131_3 N12_3 1_555 1_555
C133_3 N13_3 1_555 1_555
C135_3 C136_3 1_555 1_555
C136_3 N13_3 1_555 1_555
C145_3 O38_3 1_555 1_555
H30_3 C62_3 1_555 1_555
C63_4 C62_3 1_555 1_555
C64_4 C63_4 1_555 1_555
Dy13_2 O25_2 1_555 1_555
C80_3 C81_3 1_555 1_555
C81_3 H48_3 1_555 1_555
C82_3 C81_3 1_555 1_555
H49_3 C82_3 1_555 1_555
C83_3 C82_3 1_555 1_555
C84_3 C83_3 1_555 1_555
C85_3 C84_3 1_555 1_555
C86_3 C85_3 1_555 1_555
H50_3 C86_3 1_555 1_555
C87_3 C86_3 1_555 1_555
H51_3 C87_3 1_555 1_555
C88_3 C87_3 1_555 1_555
C89_3 C88_3 1_555 1_555
C90_3 C89_3 1_555 1_555
C91_3 C90_3 1_555 1_555
H52_3 C91_3 1_555 1_555
C92_3 C91_3 1_555 1_555
H53_3 C92_3 1_555 1_555
C93_3 C92_3 1_555 1_555
C94_3 C93_3 1_555 1_555
C95_3 C94_3 1_555 1_555
C96_3 C95_3 1_555 1_555
H54_3 C96_3 1_555 1_555
C97_3 C96_3 1_555 1_555
H55_3 C97_3 1_555 1_555
C98_3 C97_3 1_555 1_555
C99_3 C80_3 1_555 1_555
N8_3 C80_3 1_555 1_555
N9_3 C85_3 1_555 1_555
N10_3 C90_3 1_555 1_555
N11_3 C95_3 1_555 1_555
C100_3 C84_3 1_555 1_555
C101_3 C100_3 1_555 1_555
H56_3 C101_3 1_555 1_555
C102_3 C101_3 1_555 1_555
H57_3 C102_3 1_555 1_555
C103_3 C102_3 1_555 1_555
C104_3 C103_3 1_555 1_555
H58_3 C104_3 1_555 1_555
C105_3 C100_3 1_555 1_555
H59_3 C105_3 1_555 1_555
C106_3 C103_3 1_555 1_555
O16_3 Dy4 1_555 1_555
C114_3 C94_3 1_555 1_555
C115_3 C114_3 1_555 1_555
H64_3 C115_3 1_555 1_555
C116_3 C115_3 1_555 1_555
H65_3 C116_3 1_555 1_555
C117_3 C116_3 1_555 1_555
C118_3 C117_3 1_555 1_555
H66_3 C118_3 1_555 1_555
C119_3 C114_3 1_555 1_555
H67_3 C119_3 1_555 1_555
C120_3 C117_3 1_555 1_555
O25_2 C120_3 1_555 1_555
O27_2 Dy13_2 1_555 1_555
C121_3 C99_3 1_555 1_555
C122_3 C121_3 1_555 1_555
H68_3 C122_3 1_555 1_555
C123_3 C122_3 1_555 1_555
H69_3 C123_3 1_555 1_555
C124_3 C123_3 1_555 1_555
C125_3 C124_3 1_555 1_555
H70_3 C125_3 1_555 1_555
C126_3 C121_3 1_555 1_555
H71_3 C126_3 1_555 1_555
C127_3 C124_3 1_555 1_555
O32 C127_3 1_555 1_555
Cu3_3 N8_3 1_555 1_555
O36_3 C64_4 1_555 1_555
O42_3 Dy4 1_555 1_555
C148_3 O42_3 1_555 1_555
H84_3 C148_3 1_555 1_555
N14_3 C148_3 1_555 1_555
C149_3 N14_3 1_555 1_555
H85_3 C149_3 1_555 1_555
H86_3 C149_3 1_555 1_555
H87_3 C149_3 1_555 1_555
C150_3 N14_3 1_555 1_555
H88_3 C150_3 1_555 1_555
H89_3 C150_3 1_555 1_555
H90_3 C150_3 1_555 1_555
Dy4 O36_3 1_555 1_555
C83_3 N8_3 1_555 1_555
C88_3 N9_3 1_555 1_555
C93_3 N10_3 1_555 1_555
C98_3 C99_3 1_555 1_555
C98_3 N11_3 1_555 1_555
N9_3 Cu3_3 1_555 1_555
N10_3 Cu3_3 1_555 1_555
N11_3 Cu3_3 1_555 1_555
C104_3 C105_3 1_555 1_555
C106_3 O16_3 1_555 1_555
C106_3 O17_3 1_555 1_555
C118_3 C119_3 1_555 1_555
C120_3 O27_2 1_555 1_555
C125_3 C126_3 1_555 1_555
C127_3 O35 1_555 1_555
Dy2 O3_3 1_555 1_555
C29_3 C28_3 1_555 1_555
H13_3 C29_3 1_555 1_555
C30_3 C29_3 1_555 1_555
H14_3 C30_3 1_555 1_555
C31_3 C30_3 1_555 1_555
C32_3 C31_3 1_555 1_555
H15_3 C32_3 1_555 1_555
C33_3 C28_3 1_555 1_555
H16_3 C33_3 1_555 1_555
C34_3 C31_3 1_555 1_555
O3_3 C34_3 1_555 1_555
O21 C34_3 1_555 1_555
O10_3 C71_3 1_555 1_555
O11_3 Dy2 1_555 1_555
O14_3 Dy2 1_555 1_555
H44_3 O14_3 1_555 1_555
H45_3 O14_3 1_555 1_555
O15_3 Dy2 1_555 1_555
H46_3 O15_3 1_555 1_555
H47_3 O15_3 1_555 1_555
O25 Dy2 1_555 1_555
O28_2 Dy2 1_555 1_555
O31 Dy2 1_555 1_555
O34 Dy2 1_555 1_555
C32_3 C33_3 1_555 1_555
C71_3 O11_3 1_555 1_555
C52_3 C51_5 1_555 1_555
H26_3 C52_3 1_555 1_555
C53_3 C52_3 1_555 1_555
C54_3 C53_3 1_555 1_555
C55_3 C54_3 1_555 1_555
C56_3 C55_3 1_555 1_555
H27_3 C56_3 1_555 1_555
C57_3 C56_3 1_555 1_555
H28_3 C57_3 1_555 1_555
C58_3 C57_3 1_555 1_555
C59_5 C58_3 1_555 1_555
N6_3 C55_3 1_555 1_555
C60_5 C49_5 1_555 1_555
C65_3 C54_3 1_555 1_555
C66_3 C65_3 1_555 1_555
H31_3 C66_3 1_555 1_555
C67_3 C66_3 1_555 1_555
H32_3 C67_3 1_555 1_555
C68_3 C67_3 1_555 1_555
C69_3 C68_3 1_555 1_555
C72_5 C59_5 1_555 1_555
C76_5 C75_5 1_555 1_555
Cu2_5 N5_3 1_555 1_555
Dy8 O39 1_555 1_555
C128_3 C49_5 1_555 1_555
C129_5 C128_3 1_555 1_555
H72_3 C129_5 1_555 1_555
C137_3 C60_5 1_555 1_555
H76_3 C137_3 1_555 1_555
H81_3 C144_3 1_555 1_555
C146_3 C72_5 1_555 1_555
H82_3 C146_3 1_555 1_555
C147_3 C75_5 1_555 1_555
H83_3 C147_3 1_555 1_555
O39 C76_5 1_555 1_555
C53_3 N5_3 1_555 1_555
C58_3 N6_3 1_555 1_555
N6_3 Cu2_5 1_555 1_555
C146_3 C147_3 1_555 1_555
H4_5 C8_3 1_555 1_555
C9_3 C8_3 1_555 1_555
C10_3 C9_3 1_555 1_555
C11_3 C10_3 1_555 1_555
C12_3 C11_3 1_555 1_555
H5_3 C12_3 1_555 1_555
C13_3 C12_3 1_555 1_555
H6_3 C13_3 1_555 1_555
C14_3 C13_3 1_555 1_555
C15_3 C14_3 1_555 1_555
C16_3 C15_3 1_555 1_555
C17_3 C16_3 1_555 1_555
H7_3 C17_3 1_555 1_555
C18_3 C17_3 1_555 1_555
H8_3 C18_3 1_555 1_555
C19_3 C18_3 1_555 1_555
C20_3 C1_3 1_555 1_555
N1_3 C1_3 1_555 1_555
N3_3 C11_3 1_555 1_555
N4_3 C16_3 1_555 1_555
C35_3 C15_3 1_555 1_555
C36_3 C35_3 1_555 1_555
H17_3 C36_3 1_555 1_555
C37_3 C36_3 1_555 1_555
H18_3 C37_3 1_555 1_555
C38_3 C37_3 1_555 1_555
C39_3 C38_3 1_555 1_555
H19_3 C39_3 1_555 1_555
C40_3 C35_3 1_555 1_555
H20_3 C40_3 1_555 1_555
C41_3 C38_3 1_555 1_555
O23_2 C41_3 1_555 1_555
O6_2 C41_3 1_555 1_555
C42_3 C20_3 1_555 1_555
C43_3 C42_3 1_555 1_555
H21_3 C43_3 1_555 1_555
C44_3 C43_3 1_555 1_555
H22_3 C44_3 1_555 1_555
C45_3 C44_3 1_555 1_555
C46_3 C45_3 1_555 1_555
H23_3 C46_3 1_555 1_555
C47_3 C42_3 1_555 1_555
H24_3 C47_3 1_555 1_555
C48_3 C45_3 1_555 1_555
O31 C48_3 1_555 1_555
O34 C48_3 1_555 1_555
Cu1_3 N1_3 1_555 1_555
Dy11_2 O23_2 1_555 1_555
C9_3 N2_3 1_555 1_555
C14_3 N3_3 1_555 1_555
C19_3 C20_3 1_555 1_555
C19_3 N4_3 1_555 1_555
N2_3 Cu1_3 1_555 1_555
N3_3 Cu1_3 1_555 1_555
N4_3 Cu1_3 1_555 1_555
C39_3 C40_3 1_555 1_555
O6_2 Dy11_2 1_555 1_555
C46_3 C47_3 1_555 1_555
Dy8 O1_3 1_555 1_555
C2_3 H1_3 1_555 1_555
C3_3 C2_3 1_555 1_555
H2_3 C3_3 1_555 1_555
C4_3 C3_3 1_555 1_555
C5_3 C4_3 1_555 1_555
C6_3 C5_3 1_555 1_555
C7_3 C6_3 1_555 1_555
H3_3 C7_3 1_555 1_555
C21_3 C5_3 1_555 1_555
C22_3 C21_3 1_555 1_555
H9_3 C22_3 1_555 1_555
C23_3 C22_3 1_555 1_555
H10_3 C23_3 1_555 1_555
C24_3 C23_3 1_555 1_555
C25_3 C24_3 1_555 1_555
H11_3 C25_3 1_555 1_555
C26_3 C21_3 1_555 1_555
H12_3 C26_3 1_555 1_555
C27_3 C24_3 1_555 1_555
O1_3 C27_3 1_555 1_555
O2_3 C27_3 1_555 1_555
C64_5 C63_5 1_555 1_555
O9_3 Dy8 1_555 1_555
O13_3 Dy8 1_555 1_555
C77_3 O13_3 1_555 1_555
H37_3 C77_3 1_555 1_555
N7_3 C77_3 1_555 1_555
C78_3 N7_3 1_555 1_555
H38_3 C78_3 1_555 1_555
H39_3 C78_3 1_555 1_555
H40_3 C78_3 1_555 1_555
C79_3 N7_3 1_555 1_555
H41_3 C79_3 1_555 1_555
H42_3 C79_3 1_555 1_555
H43_3 C79_3 1_555 1_555
C138_3 C63_5 1_555 1_555
H77_3 C138_3 1_555 1_555
C25_3 C26_3 1_555 1_555
C64_5 O9_3 1_555 1_555
C74_4 C73_4 1_555 1_555
H36_4 C74_4 1_555 1_555
C75_6 C74_4 1_555 1_555
C76_6 C75_6 1_555 1_555
O12_2 C76_6 1_555 1_555
Dy9 O12_2 1_555 1_555
Dy5 O39_2 1_555 1_555
C147_4 C75_6 1_555 1_555
H83_4 C147_4 1_555 1_555
O39_2 C76_6 1_555 1_555
C146_4 C147_4 1_555 1_555
Dy13_2 O3_4 1_555 1_555
H4_7 C8_4 1_555 1_555
C9_4 C8_4 1_555 1_555
C10_4 C9_4 1_555 1_555
C11_4 C10_4 1_555 1_555
C12_4 C11_4 1_555 1_555
H5_4 C12_4 1_555 1_555
C13_4 C12_4 1_555 1_555
H6_4 C13_4 1_555 1_555
C14_4 C13_4 1_555 1_555
C15_4 C14_4 1_555 1_555
C16_4 C15_4 1_555 1_555
C17_4 C16_4 1_555 1_555
H7_4 C17_4 1_555 1_555
C18_4 C17_4 1_555 1_555
H8_4 C18_4 1_555 1_555
C19_4 C18_4 1_555 1_555
C20_4 C1_4 1_555 1_555
N1_4 C1_4 1_555 1_555
N3_4 C11_4 1_555 1_555
N4_4 C16_4 1_555 1_555
C28_4 C10_4 1_555 1_555
C29_4 C28_4 1_555 1_555
H13_4 C29_4 1_555 1_555
C30_4 C29_4 1_555 1_555
H14_4 C30_4 1_555 1_555
C31_4 C30_4 1_555 1_555
C32_4 C31_4 1_555 1_555
H15_4 C32_4 1_555 1_555
C33_4 C28_4 1_555 1_555
H16_4 C33_4 1_555 1_555
C34_4 C31_4 1_555 1_555
O3_4 C34_4 1_555 1_555
O21_2 C34_4 1_555 1_555
C35_4 C15_4 1_555 1_555
C36_4 C35_4 1_555 1_555
H17_4 C36_4 1_555 1_555
C37_4 C36_4 1_555 1_555
H18_4 C37_4 1_555 1_555
C38_4 C37_4 1_555 1_555
C39_4 C38_4 1_555 1_555
H19_4 C39_4 1_555 1_555
C40_4 C35_4 1_555 1_555
H20_4 C40_4 1_555 1_555
C41_4 C38_4 1_555 1_555
O23 C41_4 1_555 1_555
O29_2 C41_4 1_555 1_555
C42_4 C20_4 1_555 1_555
C43_4 C42_4 1_555 1_555
H21_4 C43_4 1_555 1_555
C44_4 C43_4 1_555 1_555
C47_4 C42_4 1_555 1_555
H24_4 C47_4 1_555 1_555
Cu1_4 N1_4 1_555 1_555
O10_4 C71_4 1_555 1_555
O11_4 Dy13_2 1_555 1_555
O14_4 Dy13_2 1_555 1_555
H44_4 O14_4 1_555 1_555
H45_4 O14_4 1_555 1_555
O15_4 Dy13_2 1_555 1_555
H46_4 O15_4 1_555 1_555
H47_4 O15_4 1_555 1_555
O31_2 Dy13_2 1_555 1_555
O34_2 Dy13_2 1_555 1_555
C9_4 N2_4 1_555 1_555
C14_4 N3_4 1_555 1_555
C19_4 C20_4 1_555 1_555
C19_4 N4_4 1_555 1_555
N2_4 Cu1_4 1_555 1_555
N3_4 Cu1_4 1_555 1_555
N4_4 Cu1_4 1_555 1_555
C32_4 C33_4 1_555 1_555
C39_4 C40_4 1_555 1_555
C46_4 C47_4 1_555 1_555
C71_4 O11_4 1_555 1_555
O10_4 H96_2 1_555 1_555
Dy5 O1_4 1_555 1_555
C2_4 H1_4 1_555 1_555
C3_4 C2_4 1_555 1_555
H2_4 C3_4 1_555 1_555
C4_4 C3_4 1_555 1_555
C5_4 C4_4 1_555 1_555
C6_4 C5_4 1_555 1_555
C7_4 C6_4 1_555 1_555
H3_4 C7_4 1_555 1_555
C21_4 C5_4 1_555 1_555
C22_4 C21_4 1_555 1_555
H9_4 C22_4 1_555 1_555
C23_4 C22_4 1_555 1_555
H10_4 C23_4 1_555 1_555
C24_4 C23_4 1_555 1_555
C25_4 C24_4 1_555 1_555
H11_4 C25_4 1_555 1_555
C26_4 C21_4 1_555 1_555
H12_4 C26_4 1_555 1_555
C27_4 C24_4 1_555 1_555
O1_4 C27_4 1_555 1_555
O2_4 C27_4 1_555 1_555
C49_6 C50_4 1_555 1_555
C50_4 C51_6 1_555 1_555
C51_6 H25_4 1_555 1_555
C52_4 C51_6 1_555 1_555
H26_4 C52_4 1_555 1_555
C53_4 C52_4 1_555 1_555
C54_4 C53_4 1_555 1_555
C55_4 C54_4 1_555 1_555
C56_4 C55_4 1_555 1_555
H27_4 C56_4 1_555 1_555
C57_4 C56_4 1_555 1_555
H28_4 C57_4 1_555 1_555
C58_4 C57_4 1_555 1_555
C59_6 C58_4 1_555 1_555
N5_4 C50_4 1_555 1_555
N6_4 C55_4 1_555 1_555
C60_6 C49_6 1_555 1_555
C61_4 C60_6 1_555 1_555
H29_4 C61_4 1_555 1_555
C62_4 C61_4 1_555 1_555
H30_4 C62_4 1_555 1_555
C63_6 C62_4 1_555 1_555
C64_6 C63_6 1_555 1_555
O9_4 Dy5 1_555 1_555
C65_4 C54_4 1_555 1_555
C66_4 C65_4 1_555 1_555
H31_4 C66_4 1_555 1_555
C67_4 C66_4 1_555 1_555
H32_4 C67_4 1_555 1_555
C68_4 C67_4 1_555 1_555
C69_4 C68_4 1_555 1_555
C70_4 C65_4 1_555 1_555
H34_4 C70_4 1_555 1_555
C72_6 C59_6 1_555 1_555
Cu2_6 N5_4 1_555 1_555
O13_4 Dy5 1_555 1_555
C77_4 O13_4 1_555 1_555
H37_4 C77_4 1_555 1_555
N7_4 C77_4 1_555 1_555
C78_4 N7_4 1_555 1_555
H38_4 C78_4 1_555 1_555
H39_4 C78_4 1_555 1_555
H40_4 C78_4 1_555 1_555
C79_4 N7_4 1_555 1_555
H41_4 C79_4 1_555 1_555
H42_4 C79_4 1_555 1_555
H43_4 C79_4 1_555 1_555
Dy9 O2_4 1_555 1_555
Dy11_2 O18_4 1_555 1_555
C80_4 C81_4 1_555 1_555
C81_4 H48_4 1_555 1_555
C82_4 C81_4 1_555 1_555
H49_4 C82_4 1_555 1_555
C83_4 C82_4 1_555 1_555
C84_4 C83_4 1_555 1_555
C85_4 C84_4 1_555 1_555
C86_4 C85_4 1_555 1_555
H50_4 C86_4 1_555 1_555
C87_4 C86_4 1_555 1_555
H51_4 C87_4 1_555 1_555
C88_4 C87_4 1_555 1_555
C89_4 C88_4 1_555 1_555
C90_4 C89_4 1_555 1_555
C91_4 C90_4 1_555 1_555
H52_4 C91_4 1_555 1_555
C92_4 C91_4 1_555 1_555
H53_4 C92_4 1_555 1_555
C93_4 C92_4 1_555 1_555
C94_4 C93_4 1_555 1_555
C95_4 C94_4 1_555 1_555
C96_4 C95_4 1_555 1_555
H54_4 C96_4 1_555 1_555
C97_4 C96_4 1_555 1_555
H55_4 C97_4 1_555 1_555
C98_4 C97_4 1_555 1_555
C99_4 C80_4 1_555 1_555
N8_4 C80_4 1_555 1_555
N9_4 C85_4 1_555 1_555
N10_4 C90_4 1_555 1_555
N11_4 C95_4 1_555 1_555
C100_4 C84_4 1_555 1_555
C101_4 C100_4 1_555 1_555
H56_4 C101_4 1_555 1_555
C102_4 C101_4 1_555 1_555
H57_4 C102_4 1_555 1_555
C103_4 C102_4 1_555 1_555
C104_4 C103_4 1_555 1_555
H58_4 C104_4 1_555 1_555
C105_4 C100_4 1_555 1_555
H59_4 C105_4 1_555 1_555
C106_4 C103_4 1_555 1_555
O16_4 Dy9 1_555 1_555
O17_4 Dy5 1_555 1_555
C107_4 C89_4 1_555 1_555
C108_4 C107_4 1_555 1_555
H60_4 C108_4 1_555 1_555
C109_4 C108_4 1_555 1_555
H61_4 C109_4 1_555 1_555
C110_4 C109_4 1_555 1_555
C111_4 C110_4 1_555 1_555
H62_4 C111_4 1_555 1_555
C112_4 C107_4 1_555 1_555
H63_4 C112_4 1_555 1_555
C113_4 C110_4 1_555 1_555
O18_4 C113_4 1_555 1_555
O20_2 C113_4 1_555 1_555
C114_4 C94_4 1_555 1_555
C115_4 C114_4 1_555 1_555
H64_4 C115_4 1_555 1_555
C116_4 C115_4 1_555 1_555
H65_4 C116_4 1_555 1_555
C117_4 C116_4 1_555 1_555
C118_4 C117_4 1_555 1_555
H66_4 C118_4 1_555 1_555
C119_4 C114_4 1_555 1_555
H67_4 C119_4 1_555 1_555
C120_4 C117_4 1_555 1_555
O25 C120_4 1_555 1_555
C121_4 C99_4 1_555 1_555
C122_4 C121_4 1_555 1_555
H68_4 C122_4 1_555 1_555
C123_4 C122_4 1_555 1_555
C126_4 C121_4 1_555 1_555
H71_4 C126_4 1_555 1_555
O32_2 Dy11_2 1_555 1_555
O35_2 Dy11_2 1_555 1_555
Cu3_4 N8_4 1_555 1_555
C128_4 C49_6 1_555 1_555
C129_6 C128_4 1_555 1_555
H72_4 C129_6 1_555 1_555
C130_4 C129_6 1_555 1_555
H73_4 C130_4 1_555 1_555
C131_4 C130_4 1_555 1_555
C132_4 C131_4 1_555 1_555
C133_4 C132_4 1_555 1_555
C134_4 C133_4 1_555 1_555
H74_4 C134_4 1_555 1_555
C135_4 C134_4 1_555 1_555
H75_4 C135_4 1_555 1_555
C136_4 C59_6 1_555 1_555
N12_4 Cu2_6 1_555 1_555
N13_4 Cu2_6 1_555 1_555
C137_4 C60_6 1_555 1_555
H76_4 C137_4 1_555 1_555
C138_4 C63_6 1_555 1_555
H77_4 C138_4 1_555 1_555
O36_4 C64_6 1_555 1_555
C139_4 C132_4 1_555 1_555
C140_4 C139_4 1_555 1_555
H78_4 C140_4 1_555 1_555
C141_4 C140_4 1_555 1_555
H79_4 C141_4 1_555 1_555
C142_4 C141_4 1_555 1_555
C143_4 C142_4 1_555 1_555
H80_4 C143_4 1_555 1_555
C144_4 C139_4 1_555 1_555
H81_4 C144_4 1_555 1_555
C145_4 C142_4 1_555 1_555
O37_4 C145_4 1_555 1_555
O38_4 Dy11_2 1_555 1_555
O42_4 Dy9 1_555 1_555
C148_4 O42_4 1_555 1_555
H84_4 C148_4 1_555 1_555
N14_4 C148_4 1_555 1_555
C149_4 N14_4 1_555 1_555
H85_4 C149_4 1_555 1_555
H86_4 C149_4 1_555 1_555
H87_4 C149_4 1_555 1_555
C150_4 N14_4 1_555 1_555
H88_4 C150_4 1_555 1_555
H89_4 C150_4 1_555 1_555
H90_4 C150_4 1_555 1_555
O43_4 Dy11_2 1_555 1_555
H91_4 O43_4 1_555 1_555
H92_4 O43_4 1_555 1_555
O44_4 Dy11_2 1_555 1_555
H93_4 O44_4 1_555 1_555
H94_4 O44_4 1_555 1_555
C25_4 C26_4 1_555 1_555
C53_4 N5_4 1_555 1_555
C58_4 N6_4 1_555 1_555
N6_4 Cu2_6 1_555 1_555
C64_6 O9_4 1_555 1_555
C69_4 C70_4 1_555 1_555
Dy9 O36_4 1_555 1_555
C83_4 N8_4 1_555 1_555
C88_4 N9_4 1_555 1_555
C93_4 N10_4 1_555 1_555
C98_4 C99_4 1_555 1_555
C98_4 N11_4 1_555 1_555
N9_4 Cu3_4 1_555 1_555
N10_4 Cu3_4 1_555 1_555
N11_4 Cu3_4 1_555 1_555
C104_4 C105_4 1_555 1_555
C106_4 O16_4 1_555 1_555
C106_4 O17_4 1_555 1_555
C111_4 C112_4 1_555 1_555
C118_4 C119_4 1_555 1_555
C120_4 O28_2 1_555 1_555
C125_4 C126_4 1_555 1_555
C128_4 N12_4 1_555 1_555
C131_4 N12_4 1_555 1_555
C133_4 N13_4 1_555 1_555
C135_4 C136_4 1_555 1_555
C136_4 N13_4 1_555 1_555
C137_4 C138_4 1_555 1_555
C143_4 C144_4 1_555 1_555
C145_4 O38_4 1_555 1_555
O37_4 H95_4 1_555 1_555
C48_4 C45_4 1_555 1_555
O31_2 C48_4 1_555 1_555
O34_2 C48_4 1_555 1_555
C127_4 C124_4 1_555 1_555
O32_2 C127_4 1_555 1_555
C127_4 O35_2 1_555 1_555

#END
