
###############################################################################
#
# This file contains modified crystal structure data generated from the
# MOF subset of the Cambridge Structural Database (CSD) v543 
# hosted by the Cambridge Crystallographic Data Centre (CCDC).
#
# This work is licensed under the Creative Commons
# Attribution-NonCommercial-ShareAlike 4.0 International License.
# To view a copy of this license, visit
# http://creativecommons.org/licenses/by-nc-sa/4.0/
# or send a letter to
# Creative Commons, PO Box 1866, Mountain View, CA 94042, USA.
#
# CIF created using the CSD Python API on 29 September 2022
# The structure has been converted into the P1 space group
# The structure has a 3D framework
# The original CSD entry NIKVAH is in the cubic crystal system
# The framework has been calculated to contain at least 10.0% void space
# The void calculation uses a probe of radius 1.32A, grid spacing 0.4
# H atom positions have been added when not included in the experimental data
#
###############################################################################

data_NIKVAH
_chemical_formula_moiety         '(C120 H48 N48 O128 Zr24)n'
_symmetry_cell_setting           triclinic
_symmetry_space_group_name_H-M   'P 1'
_symmetry_Int_Tables_number      1
_space_group_name_Hall           'P 1'
loop_
_symmetry_equiv_pos_site_id
_symmetry_equiv_pos_as_xyz
1 x,y,z
_cell_length_a                   19.5811(10)
_cell_length_b                   19.5811(10)
_cell_length_c                   19.5811(10)
_cell_angle_alpha                90
_cell_angle_beta                 90
_cell_angle_gamma                90
_cell_volume                     7507.78
loop_
_atom_site_label
_atom_site_type_symbol
_atom_site_fract_x
_atom_site_fract_y
_atom_site_fract_z
_atom_site_U_iso_or_equiv
_atom_site_thermal_displace_type
Zr18 Zr 0.00760(29) 0.49237(66) 0.87729(47) 0.1013 Uiso
Zr12 Zr 0.87729(47) 0.00760(29) 0.49237(66) 0.1013 Uiso
Zr15 Zr 0.49237(66) 0.87729(47) 0.00760(29) 0.1013 Uiso
Zr1 Zr 0.50760(29) 0.49237(66) 0.62271(47) 0.1013 Uiso
O1 O 0.5658(12) 0.5658(12) 0.5658(12) 0.1013 Uiso
O2 O 0.57201(82) 0.43553(84) 0.55293(99) 0.1013 Uiso
O3 O 0.93042(96) 0.4794(14) 0.8052(12) 0.1013 Uiso
O4 O 0.60770(90) 0.5008(16) 0.6695(11) 0.1013 Uiso
O5 O 0.83983(77) 0.4791(13) 0.88413(92) 0.1013 Uiso
O6 O 0.6851(11) 0.4988(14) 0.58383(88) 0.1013 Uiso
C1 C 0.669593 0.497993 0.647416 0.1013 Uiso
C2 C 0.735145 0.493735 0.688145 0.1013 Uiso
C3 C 0.867534 0.480897 0.824990 0.1013 Uiso
C4 C 0.820115 0.484933 0.764284 0.1013 Uiso
N1 N 0.795976 0.500102 0.657230 0.1013 Uiso
N2 N 0.846054 0.495069 0.701690 0.1013 Uiso
C5 C 0.74828 0.483488 0.758210 0.1013 Uiso
Zr2 Zr 0.50763(66) 0.37729(47) 0.49240(29) 0.1013 Uiso
O7 O 0.4342(12) 0.4342(12) 0.4342(12) 0.1013 Uiso
O8 O 0.56447(84) 0.44707(99) 0.42799(82) 0.1013 Uiso
Zr3 Zr 0.37729(47) 0.49240(29) 0.50763(66) 0.1013 Uiso
O9 O 0.44707(99) 0.42799(82) 0.56447(84) 0.1013 Uiso
Zr4 Zr 0.62271(47) 0.50760(29) 0.49237(66) 0.1013 Uiso
O10 O 0.55293(99) 0.57201(82) 0.43553(84) 0.1013 Uiso
Zr5 Zr 0.49237(66) 0.62271(47) 0.50760(29) 0.1013 Uiso
O11 O 0.43553(84) 0.55293(99) 0.57201(82) 0.1013 Uiso
Zr6 Zr 0.49240(29) 0.50763(66) 0.37729(47) 0.1013 Uiso
O12 O 0.42799(82) 0.56447(84) 0.44707(99) 0.1013 Uiso
O13 O 0.06958(96) 0.5206(14) 0.1948(12) 0.1013 Uiso
O14 O 0.39230(90) 0.4992(16) 0.3305(11) 0.1013 Uiso
O15 O 0.16017(77) 0.5209(13) 0.11587(92) 0.1013 Uiso
O16 O 0.3149(11) 0.5012(14) 0.41617(88) 0.1013 Uiso
C6 C 0.330407 0.502007 0.352584 0.1013 Uiso
C7 C 0.264855 0.506265 0.311855 0.1013 Uiso
C8 C 0.132466 0.519103 0.175010 0.1013 Uiso
C9 C 0.179885 0.515067 0.235716 0.1013 Uiso
N3 N 0.204024 0.499898 0.342770 0.1013 Uiso
N4 N 0.153946 0.504931 0.298310 0.1013 Uiso
C10 C 0.25172 0.516512 0.241790 0.1013 Uiso
O17 O 0.5206(14) 0.1948(12) 0.06958(96) 0.1013 Uiso
O18 O 0.4992(16) 0.3305(11) 0.39230(90) 0.1013 Uiso
O19 O 0.5209(13) 0.11587(92) 0.16017(77) 0.1013 Uiso
O20 O 0.5012(14) 0.41617(88) 0.3149(11) 0.1013 Uiso
C11 C 0.502007 0.352584 0.330407 0.1013 Uiso
C12 C 0.506265 0.311855 0.264855 0.1013 Uiso
C13 C 0.519103 0.175010 0.132466 0.1013 Uiso
C14 C 0.515067 0.235716 0.179885 0.1013 Uiso
N5 N 0.499898 0.342770 0.204024 0.1013 Uiso
N6 N 0.504931 0.298310 0.153946 0.1013 Uiso
C15 C 0.516512 0.241790 0.25172 0.1013 Uiso
O21 O 0.1948(12) 0.06958(96) 0.5206(14) 0.1013 Uiso
O22 O 0.3305(11) 0.39230(90) 0.4992(16) 0.1013 Uiso
O23 O 0.11587(92) 0.16017(77) 0.5209(13) 0.1013 Uiso
O24 O 0.41617(88) 0.3149(11) 0.5012(14) 0.1013 Uiso
C16 C 0.352584 0.330407 0.502007 0.1013 Uiso
C17 C 0.311855 0.264855 0.506265 0.1013 Uiso
C18 C 0.175010 0.132466 0.519103 0.1013 Uiso
C19 C 0.235716 0.179885 0.515067 0.1013 Uiso
N7 N 0.342770 0.204024 0.499898 0.1013 Uiso
N8 N 0.298310 0.153946 0.504931 0.1013 Uiso
C20 C 0.241790 0.25172 0.516512 0.1013 Uiso
O25 O 0.8052(12) 0.93042(96) 0.4794(14) 0.1013 Uiso
O26 O 0.6695(11) 0.60770(90) 0.5008(16) 0.1013 Uiso
O27 O 0.88413(92) 0.83983(77) 0.4791(13) 0.1013 Uiso
O28 O 0.58383(88) 0.6851(11) 0.4988(14) 0.1013 Uiso
C21 C 0.647416 0.669593 0.497993 0.1013 Uiso
C22 C 0.688145 0.735145 0.493735 0.1013 Uiso
C23 C 0.824990 0.867534 0.480897 0.1013 Uiso
C24 C 0.764284 0.820115 0.484933 0.1013 Uiso
N9 N 0.657230 0.795976 0.500102 0.1013 Uiso
N10 N 0.701690 0.846054 0.495069 0.1013 Uiso
C25 C 0.758210 0.74828 0.483488 0.1013 Uiso
O29 O 0.4794(14) 0.8052(12) 0.93042(96) 0.1013 Uiso
O30 O 0.5008(16) 0.6695(11) 0.60770(90) 0.1013 Uiso
O31 O 0.4791(13) 0.88413(92) 0.83983(77) 0.1013 Uiso
O32 O 0.4988(14) 0.58383(88) 0.6851(11) 0.1013 Uiso
C26 C 0.497993 0.647416 0.669593 0.1013 Uiso
C27 C 0.493735 0.688145 0.735145 0.1013 Uiso
C28 C 0.480897 0.824990 0.867534 0.1013 Uiso
C29 C 0.484933 0.764284 0.820115 0.1013 Uiso
N11 N 0.500102 0.657230 0.795976 0.1013 Uiso
N12 N 0.495069 0.701690 0.846054 0.1013 Uiso
C30 C 0.483488 0.758210 0.74828 0.1013 Uiso
Zr7 Zr 0.49240(29) 0.99237(66) 0.87729(47) 0.1013 Uiso
Zr10 Zr 0.00763(66) 0.12271(47) 0.50760(29) 0.1013 Uiso
Zr11 Zr 0.87729(47) 0.49240(29) 0.99237(66) 0.1013 Uiso
Zr14 Zr 0.12271(47) 0.50760(29) 0.00763(66) 0.1013 Uiso
Zr16 Zr 0.99237(66) 0.87729(47) 0.49240(29) 0.1013 Uiso
Zr17 Zr 0.50760(29) 0.00763(66) 0.12271(47) 0.1013 Uiso
O33 O 0.56958(96) 0.5206(14) 0.3052(12) 0.1013 Uiso
O34 O 0.5206(14) 0.3052(12) 0.56958(96) 0.1013 Uiso
O35 O 0.6948(12) 0.43042(96) 0.4794(14) 0.1013 Uiso
O36 O 0.3052(12) 0.56958(96) 0.5206(14) 0.1013 Uiso
O37 O 0.4794(14) 0.6948(12) 0.43042(96) 0.1013 Uiso
O38 O 0.43042(96) 0.4794(14) 0.6948(12) 0.1013 Uiso
O39 O 0.66017(77) 0.5209(13) 0.38413(92) 0.1013 Uiso
O40 O 0.5209(13) 0.38413(92) 0.66017(77) 0.1013 Uiso
O41 O 0.61587(92) 0.33983(77) 0.4791(13) 0.1013 Uiso
O42 O 0.38413(92) 0.66017(77) 0.5209(13) 0.1013 Uiso
O43 O 0.4791(13) 0.61587(92) 0.33983(77) 0.1013 Uiso
O44 O 0.33983(77) 0.4791(13) 0.61587(92) 0.1013 Uiso
H1 H 0.19754 0.49223 0.393624 . .
H2 H 0.80246 0.50777 0.606376 . .
H3 H 0.711054 0.476063 0.798856 . .
H4 H 0.288946 0.523937 0.201144 . .
H5 H 0.606376 0.80246 0.50777 . .
H6 H 0.798856 0.711054 0.476063 . .
H7 H 0.393624 0.19754 0.49223 . .
H8 H 0.523937 0.201144 0.288946 . .
H9 H 0.49223 0.393624 0.19754 . .
H10 H 0.201144 0.288946 0.523937 . .
H11 H 0.476063 0.798856 0.711054 . .
H12 H 0.50777 0.606376 0.80246 . .
Zr9 Zr 0.50763(66) 0.12271(47) 0.99240(29) 0.1013 Uiso
Zr13 Zr 0.12271(47) 0.99240(29) 0.50763(66) 0.1013 Uiso
Zr8 Zr 0.99240(29) 0.50763(66) 0.12271(47) 0.1013 Uiso
Zr8_2 Zr 0.00760(29) 0.00763(66) 0.37729(47) 0.1013 Uiso
Zr4_2 Zr 0.37729(47) 0.00760(29) 0.00763(66) 0.1013 Uiso
O10_2 O 0.44707(99) 0.07201(82) 0.06447(84) 0.1013 Uiso
O12_2 O 0.57201(82) 0.06447(84) 0.05293(99) 0.1013 Uiso
O13_2 O 0.93042(96) 0.0206(14) 0.3052(12) 0.1013 Uiso
O15_2 O 0.83983(77) 0.0209(13) 0.38413(92) 0.1013 Uiso
O16_2 O 0.6851(11) 0.0012(14) 0.08383(88) 0.1013 Uiso
C6_2 C 0.669593 0.002007 0.147416 0.1013 Uiso
C7_2 C 0.735145 0.006265 0.188145 0.1013 Uiso
C8_2 C 0.867534 0.019103 0.324990 0.1013 Uiso
C9_2 C 0.820115 0.015067 0.264284 0.1013 Uiso
N4_2 N 0.846054 0.004931 0.201690 0.1013 Uiso
C10_2 C 0.74828 0.016512 0.258210 0.1013 Uiso
O25_2 O 0.1948(12) 0.43042(96) 0.0206(14) 0.1013 Uiso
O27_2 O 0.11587(92) 0.33983(77) 0.0209(13) 0.1013 Uiso
O28_2 O 0.41617(88) 0.1851(11) 0.0012(14) 0.1013 Uiso
C21_2 C 0.352584 0.169593 0.002007 0.1013 Uiso
C22_2 C 0.311855 0.235145 0.006265 0.1013 Uiso
C23_2 C 0.175010 0.367534 0.019103 0.1013 Uiso
C24_2 C 0.235716 0.320115 0.015067 0.1013 Uiso
N10_2 N 0.298310 0.346054 0.004931 0.1013 Uiso
C25_2 C 0.241790 0.24828 0.016512 0.1013 Uiso
Zr16_2 Zr 0.00763(66) 0.37729(47) 0.00760(29) 0.1013 Uiso
O33_2 O 0.43042(96) 0.0206(14) 0.1948(12) 0.1013 Uiso
O39_2 O 0.33983(77) 0.0209(13) 0.11587(92) 0.1013 Uiso
H4_2 H 0.711054 0.0239366 0.298856 . .
H6_2 H 0.201144 0.211054 0.0239366 . .
O1_2 O 0.4342(12) 0.0658(12) 0.9342(12) 0.1013 Uiso
O4_2 O 0.39230(90) 0.0008(16) 0.8305(11) 0.1013 Uiso
N1_2 N 0.204024 0.000102 0.842770 0.1013 Uiso
O11_2 O 0.56447(84) 0.05293(99) 0.92799(82) 0.1013 Uiso
O26_2 O 0.3305(11) 0.10770(90) 0.9992(16) 0.1013 Uiso
N9_2 N 0.342770 0.295976 0.999898 0.1013 Uiso
O30_2 O 0.4992(16) 0.1695(11) 0.89230(90) 0.1013 Uiso
O32_2 O 0.5012(14) 0.08383(88) 0.8149(11) 0.1013 Uiso
C26_2 C 0.502007 0.147416 0.830407 0.1013 Uiso
C27_2 C 0.506265 0.188145 0.764855 0.1013 Uiso
C28_2 C 0.519103 0.324990 0.632466 0.1013 Uiso
C29_2 C 0.515067 0.264284 0.679885 0.1013 Uiso
N11_2 N 0.499898 0.157230 0.704024 0.1013 Uiso
N12_2 N 0.504931 0.201690 0.653946 0.1013 Uiso
C30_2 C 0.516512 0.258210 0.75172 0.1013 Uiso
O36_2 O 0.6948(12) 0.06958(96) 0.9794(14) 0.1013 Uiso
O42_2 O 0.61587(92) 0.16017(77) 0.9791(13) 0.1013 Uiso
H2_2 H 0.19754 0.00777019 0.893624 . .
H5_2 H 0.393624 0.30246 0.99223 . .
H11_2 H 0.523937 0.298856 0.788946 . .
H12_2 H 0.49223 0.106376 0.69754 . .
O7_2 O 0.5658(12) 0.9342(12) 0.0658(12) 0.1013 Uiso
O8_2 O 0.43553(84) 0.94707(99) 0.07201(82) 0.1013 Uiso
O14_2 O 0.60770(90) 0.9992(16) 0.1695(11) 0.1013 Uiso
N3_2 N 0.795976 0.999898 0.157230 0.1013 Uiso
O18_2 O 0.5008(16) 0.8305(11) 0.10770(90) 0.1013 Uiso
O20_2 O 0.4988(14) 0.91617(88) 0.1851(11) 0.1013 Uiso
C11_2 C 0.497993 0.852584 0.169593 0.1013 Uiso
C12_2 C 0.493735 0.811855 0.235145 0.1013 Uiso
C13_2 C 0.480897 0.675010 0.367534 0.1013 Uiso
C14_2 C 0.484933 0.735716 0.320115 0.1013 Uiso
N5_2 N 0.500102 0.842770 0.295976 0.1013 Uiso
N6_2 N 0.495069 0.798310 0.346054 0.1013 Uiso
C15_2 C 0.483488 0.741790 0.24828 0.1013 Uiso
O22_2 O 0.6695(11) 0.89230(90) 0.0008(16) 0.1013 Uiso
N7_2 N 0.657230 0.704024 0.000102 0.1013 Uiso
O35_2 O 0.3052(12) 0.93042(96) 0.0206(14) 0.1013 Uiso
O41_2 O 0.38413(92) 0.83983(77) 0.0209(13) 0.1013 Uiso
H1_2 H 0.80246 0.99223 0.106376 . .
H7_2 H 0.606376 0.69754 0.00777019 . .
H8_2 H 0.476063 0.701144 0.211054 . .
H9_2 H 0.50777 0.893624 0.30246 . .
O2_2 O 0.42799(82) 0.93553(84) 0.94707(99) 0.1013 Uiso
O3_2 O 0.06958(96) 0.9794(14) 0.6948(12) 0.1013 Uiso
O5_2 O 0.16017(77) 0.9791(13) 0.61587(92) 0.1013 Uiso
O6_2 O 0.3149(11) 0.9988(14) 0.91617(88) 0.1013 Uiso
C1_2 C 0.330407 0.997993 0.852584 0.1013 Uiso
C2_2 C 0.264855 0.993735 0.811855 0.1013 Uiso
C3_2 C 0.132466 0.980897 0.675010 0.1013 Uiso
C4_2 C 0.179885 0.984933 0.735716 0.1013 Uiso
N2_2 N 0.153946 0.995069 0.798310 0.1013 Uiso
C5_2 C 0.25172 0.983488 0.741790 0.1013 Uiso
Zr3_2 Zr 0.62271(47) 0.99240(29) 0.99237(66) 0.1013 Uiso
O9_2 O 0.55293(99) 0.92799(82) 0.93553(84) 0.1013 Uiso
O21_2 O 0.8052(12) 0.56958(96) 0.9794(14) 0.1013 Uiso
O23_2 O 0.88413(92) 0.66017(77) 0.9791(13) 0.1013 Uiso
O24_2 O 0.58383(88) 0.8149(11) 0.9988(14) 0.1013 Uiso
C16_2 C 0.647416 0.830407 0.997993 0.1013 Uiso
C17_2 C 0.688145 0.764855 0.993735 0.1013 Uiso
C18_2 C 0.824990 0.632466 0.980897 0.1013 Uiso
C19_2 C 0.764284 0.679885 0.984933 0.1013 Uiso
N8_2 N 0.701690 0.653946 0.995069 0.1013 Uiso
C20_2 C 0.758210 0.75172 0.983488 0.1013 Uiso
Zr10_2 Zr 0.99237(66) 0.62271(47) 0.99240(29) 0.1013 Uiso
O38_2 O 0.56958(96) 0.9794(14) 0.8052(12) 0.1013 Uiso
O44_2 O 0.66017(77) 0.9791(13) 0.88413(92) 0.1013 Uiso
H3_2 H 0.288946 0.976063 0.701144 . .
H10_2 H 0.798856 0.788946 0.976063 . .
Zr18_2 Zr 0.99240(29) 0.99237(66) 0.62271(47) 0.1013 Uiso
O9_3 O 0.05293(99) 0.57201(82) 0.06447(84) 0.1013 Uiso
O11_3 O 0.06447(84) 0.44707(99) 0.07201(82) 0.1013 Uiso
O24_3 O 0.08383(88) 0.6851(11) 0.0012(14) 0.1013 Uiso
C16_3 C 0.147416 0.669593 0.002007 0.1013 Uiso
C17_3 C 0.188145 0.735145 0.006265 0.1013 Uiso
C18_3 C 0.324990 0.867534 0.019103 0.1013 Uiso
C19_3 C 0.264284 0.820115 0.015067 0.1013 Uiso
N8_3 N 0.201690 0.846054 0.004931 0.1013 Uiso
C20_3 C 0.258210 0.74828 0.016512 0.1013 Uiso
O29_2 O 0.0206(14) 0.1948(12) 0.43042(96) 0.1013 Uiso
O31_2 O 0.0209(13) 0.11587(92) 0.33983(77) 0.1013 Uiso
O32_3 O 0.0012(14) 0.41617(88) 0.1851(11) 0.1013 Uiso
C26_3 C 0.002007 0.352584 0.169593 0.1013 Uiso
C27_3 C 0.006265 0.311855 0.235145 0.1013 Uiso
C28_3 C 0.019103 0.175010 0.367534 0.1013 Uiso
C29_3 C 0.015067 0.235716 0.320115 0.1013 Uiso
N12_3 N 0.004931 0.298310 0.346054 0.1013 Uiso
C30_3 C 0.016512 0.241790 0.24828 0.1013 Uiso
H10_3 H 0.298856 0.711054 0.0239366 . .
H11_3 H 0.0239366 0.201144 0.211054 . .
O7_3 O 0.0658(12) 0.5658(12) 0.9342(12) 0.1013 Uiso
O12_3 O 0.07201(82) 0.43553(84) 0.94707(99) 0.1013 Uiso
O14_3 O 0.10770(90) 0.5008(16) 0.8305(11) 0.1013 Uiso
O16_3 O 0.1851(11) 0.4988(14) 0.91617(88) 0.1013 Uiso
C6_3 C 0.169593 0.497993 0.852584 0.1013 Uiso
C7_3 C 0.235145 0.493735 0.811855 0.1013 Uiso
C8_3 C 0.367534 0.480897 0.675010 0.1013 Uiso
C9_3 C 0.320115 0.484933 0.735716 0.1013 Uiso
N3_3 N 0.295976 0.500102 0.842770 0.1013 Uiso
N4_3 N 0.346054 0.495069 0.798310 0.1013 Uiso
C10_3 C 0.24828 0.483488 0.741790 0.1013 Uiso
O18_3 O 0.0008(16) 0.6695(11) 0.89230(90) 0.1013 Uiso
N5_3 N 0.000102 0.657230 0.704024 0.1013 Uiso
O22_3 O 0.1695(11) 0.60770(90) 0.9992(16) 0.1013 Uiso
N7_3 N 0.157230 0.795976 0.999898 0.1013 Uiso
O37_2 O 0.0206(14) 0.3052(12) 0.93042(96) 0.1013 Uiso
O43_2 O 0.0209(13) 0.38413(92) 0.83983(77) 0.1013 Uiso
H1_3 H 0.30246 0.50777 0.893624 . .
H4_3 H 0.211054 0.476063 0.701144 . .
H7_3 H 0.106376 0.80246 0.99223 . .
H9_3 H 0.00777019 0.606376 0.69754 . .
O1_3 O 0.9342(12) 0.4342(12) 0.0658(12) 0.1013 Uiso
O2_3 O 0.92799(82) 0.56447(84) 0.05293(99) 0.1013 Uiso
O4_3 O 0.89230(90) 0.4992(16) 0.1695(11) 0.1013 Uiso
O6_3 O 0.8149(11) 0.5012(14) 0.08383(88) 0.1013 Uiso
C1_3 C 0.830407 0.502007 0.147416 0.1013 Uiso
C2_3 C 0.764855 0.506265 0.188145 0.1013 Uiso
C3_3 C 0.632466 0.519103 0.324990 0.1013 Uiso
C4_3 C 0.679885 0.515067 0.264284 0.1013 Uiso
N1_3 N 0.704024 0.499898 0.157230 0.1013 Uiso
N2_3 N 0.653946 0.504931 0.201690 0.1013 Uiso
C5_3 C 0.75172 0.516512 0.258210 0.1013 Uiso
O26_3 O 0.8305(11) 0.39230(90) 0.0008(16) 0.1013 Uiso
N9_3 N 0.842770 0.204024 0.000102 0.1013 Uiso
O30_3 O 0.9992(16) 0.3305(11) 0.10770(90) 0.1013 Uiso
N11_3 N 0.999898 0.342770 0.295976 0.1013 Uiso
O34_2 O 0.9794(14) 0.6948(12) 0.06958(96) 0.1013 Uiso
O40_2 O 0.9791(13) 0.61587(92) 0.16017(77) 0.1013 Uiso
H2_3 H 0.69754 0.49223 0.106376 . .
H3_3 H 0.788946 0.523937 0.298856 . .
H5_3 H 0.893624 0.19754 0.00777019 . .
H12_3 H 0.99223 0.393624 0.30246 . .
O8_3 O 0.93553(84) 0.55293(99) 0.92799(82) 0.1013 Uiso
O10_3 O 0.94707(99) 0.42799(82) 0.93553(84) 0.1013 Uiso
O17_2 O 0.9794(14) 0.8052(12) 0.56958(96) 0.1013 Uiso
O19_2 O 0.9791(13) 0.88413(92) 0.66017(77) 0.1013 Uiso
O20_3 O 0.9988(14) 0.58383(88) 0.8149(11) 0.1013 Uiso
C11_3 C 0.997993 0.647416 0.830407 0.1013 Uiso
C12_3 C 0.993735 0.688145 0.764855 0.1013 Uiso
C13_3 C 0.980897 0.824990 0.632466 0.1013 Uiso
C14_3 C 0.984933 0.764284 0.679885 0.1013 Uiso
N6_3 N 0.995069 0.701690 0.653946 0.1013 Uiso
C15_3 C 0.983488 0.758210 0.75172 0.1013 Uiso
O28_3 O 0.91617(88) 0.3149(11) 0.9988(14) 0.1013 Uiso
C21_3 C 0.852584 0.330407 0.997993 0.1013 Uiso
C22_3 C 0.811855 0.264855 0.993735 0.1013 Uiso
C23_3 C 0.675010 0.132466 0.980897 0.1013 Uiso
C24_3 C 0.735716 0.179885 0.984933 0.1013 Uiso
N10_3 N 0.798310 0.153946 0.995069 0.1013 Uiso
C25_3 C 0.741790 0.25172 0.983488 0.1013 Uiso
H6_3 H 0.701144 0.288946 0.976063 . .
H8_3 H 0.976063 0.798856 0.788946 . .
O9_4 O 0.06447(84) 0.05293(99) 0.57201(82) 0.1013 Uiso
O11_4 O 0.07201(82) 0.06447(84) 0.44707(99) 0.1013 Uiso
O24_4 O 0.0012(14) 0.08383(88) 0.6851(11) 0.1013 Uiso
C16_4 C 0.002007 0.147416 0.669593 0.1013 Uiso
C17_4 C 0.006265 0.188145 0.735145 0.1013 Uiso
C18_4 C 0.019103 0.324990 0.867534 0.1013 Uiso
C19_4 C 0.015067 0.264284 0.820115 0.1013 Uiso
N8_4 N 0.004931 0.201690 0.846054 0.1013 Uiso
C20_4 C 0.016512 0.258210 0.74828 0.1013 Uiso
O32_4 O 0.1851(11) 0.0012(14) 0.41617(88) 0.1013 Uiso
C26_4 C 0.169593 0.002007 0.352584 0.1013 Uiso
C27_4 C 0.235145 0.006265 0.311855 0.1013 Uiso
C28_4 C 0.367534 0.019103 0.175010 0.1013 Uiso
C29_4 C 0.320115 0.015067 0.235716 0.1013 Uiso
N12_4 N 0.346054 0.004931 0.298310 0.1013 Uiso
C30_4 C 0.24828 0.016512 0.241790 0.1013 Uiso
H10_4 H 0.0239366 0.298856 0.711054 . .
H11_4 H 0.211054 0.0239366 0.201144 . .
O1_4 O 0.0658(12) 0.9342(12) 0.4342(12) 0.1013 Uiso
O2_4 O 0.05293(99) 0.92799(82) 0.56447(84) 0.1013 Uiso
O4_4 O 0.1695(11) 0.89230(90) 0.4992(16) 0.1013 Uiso
O6_4 O 0.08383(88) 0.8149(11) 0.5012(14) 0.1013 Uiso
C1_4 C 0.147416 0.830407 0.502007 0.1013 Uiso
C2_4 C 0.188145 0.764855 0.506265 0.1013 Uiso
C3_4 C 0.324990 0.632466 0.519103 0.1013 Uiso
C4_4 C 0.264284 0.679885 0.515067 0.1013 Uiso
N1_4 N 0.157230 0.704024 0.499898 0.1013 Uiso
N2_4 N 0.201690 0.653946 0.504931 0.1013 Uiso
C5_4 C 0.258210 0.75172 0.516512 0.1013 Uiso
O26_4 O 0.0008(16) 0.8305(11) 0.39230(90) 0.1013 Uiso
N9_4 N 0.000102 0.842770 0.204024 0.1013 Uiso
O30_4 O 0.10770(90) 0.9992(16) 0.3305(11) 0.1013 Uiso
N11_4 N 0.295976 0.999898 0.342770 0.1013 Uiso
H2_4 H 0.106376 0.69754 0.49223 . .
H3_4 H 0.298856 0.788946 0.523937 . .
H5_4 H 0.00777019 0.893624 0.19754 . .
H12_4 H 0.30246 0.99223 0.393624 . .
O7_4 O 0.9342(12) 0.0658(12) 0.5658(12) 0.1013 Uiso
O12_4 O 0.94707(99) 0.07201(82) 0.43553(84) 0.1013 Uiso
O14_4 O 0.8305(11) 0.10770(90) 0.5008(16) 0.1013 Uiso
O16_4 O 0.91617(88) 0.1851(11) 0.4988(14) 0.1013 Uiso
C6_4 C 0.852584 0.169593 0.497993 0.1013 Uiso
C7_4 C 0.811855 0.235145 0.493735 0.1013 Uiso
C8_4 C 0.675010 0.367534 0.480897 0.1013 Uiso
C9_4 C 0.735716 0.320115 0.484933 0.1013 Uiso
N3_4 N 0.842770 0.295976 0.500102 0.1013 Uiso
N4_4 N 0.798310 0.346054 0.495069 0.1013 Uiso
C10_4 C 0.741790 0.24828 0.483488 0.1013 Uiso
O18_4 O 0.89230(90) 0.0008(16) 0.6695(11) 0.1013 Uiso
N5_4 N 0.704024 0.000102 0.657230 0.1013 Uiso
O22_4 O 0.9992(16) 0.1695(11) 0.60770(90) 0.1013 Uiso
N7_4 N 0.999898 0.157230 0.795976 0.1013 Uiso
H1_4 H 0.893624 0.30246 0.50777 . .
H4_4 H 0.701144 0.211054 0.476063 . .
H7_4 H 0.99223 0.106376 0.80246 . .
H9_4 H 0.69754 0.00777019 0.606376 . .
O8_4 O 0.92799(82) 0.93553(84) 0.55293(99) 0.1013 Uiso
O10_4 O 0.93553(84) 0.94707(99) 0.42799(82) 0.1013 Uiso
O20_4 O 0.8149(11) 0.9988(14) 0.58383(88) 0.1013 Uiso
C11_4 C 0.830407 0.997993 0.647416 0.1013 Uiso
C12_4 C 0.764855 0.993735 0.688145 0.1013 Uiso
C13_4 C 0.632466 0.980897 0.824990 0.1013 Uiso
C14_4 C 0.679885 0.984933 0.764284 0.1013 Uiso
N6_4 N 0.653946 0.995069 0.701690 0.1013 Uiso
C15_4 C 0.75172 0.983488 0.758210 0.1013 Uiso
O28_4 O 0.9988(14) 0.91617(88) 0.3149(11) 0.1013 Uiso
C21_4 C 0.997993 0.852584 0.330407 0.1013 Uiso
C22_4 C 0.993735 0.811855 0.264855 0.1013 Uiso
C23_4 C 0.980897 0.675010 0.132466 0.1013 Uiso
C24_4 C 0.984933 0.735716 0.179885 0.1013 Uiso
N10_4 N 0.995069 0.798310 0.153946 0.1013 Uiso
C25_4 C 0.983488 0.741790 0.25172 0.1013 Uiso
H6_4 H 0.976063 0.701144 0.288946 . .
H8_4 H 0.788946 0.976063 0.798856 . .
loop_
_geom_bond_atom_site_label_1
_geom_bond_atom_site_label_2
_geom_bond_site_symmetry_1
_geom_bond_site_symmetry_2
Zr1 O1 1_555 1_555
O1 Zr4 1_555 1_555
O2 Zr1 1_555 1_555
O3 C3 1_555 1_555
O4 Zr1 1_555 1_555
O5 C3 1_555 1_555
O6 C1 1_555 1_555
C1 O4 1_555 1_555
C2 C1 1_555 1_555
C3 C4 1_555 1_555
C4 N2 1_555 1_555
N1 C2 1_555 1_555
N2 N1 1_555 1_555
C5 C2 1_555 1_555
Zr2 O2 1_555 1_555
O7 Zr2 1_555 1_555
O8 Zr2 1_555 1_555
Zr3 O7 1_555 1_555
O9 Zr1 1_555 1_555
Zr4 O2 1_555 1_555
O10 Zr4 1_555 1_555
Zr5 O1 1_555 1_555
O11 Zr1 1_555 1_555
Zr6 O7 1_555 1_555
O12 Zr3 1_555 1_555
O13 C8 1_555 1_555
O14 Zr6 1_555 1_555
O15 C8 1_555 1_555
O16 Zr3 1_555 1_555
C6 O14 1_555 1_555
C7 C6 1_555 1_555
C8 C9 1_555 1_555
C9 N4 1_555 1_555
N3 C7 1_555 1_555
N4 N3 1_555 1_555
C10 C7 1_555 1_555
O17 C13 1_555 1_555
O18 Zr2 1_555 1_555
O19 C13 1_555 1_555
O20 Zr6 1_555 1_555
C11 O18 1_555 1_555
C12 C11 1_555 1_555
C13 C14 1_555 1_555
C14 N6 1_555 1_555
N5 C12 1_555 1_555
N6 N5 1_555 1_555
C15 C12 1_555 1_555
O21 C18 1_555 1_555
O22 Zr3 1_555 1_555
O23 C18 1_555 1_555
O24 Zr2 1_555 1_555
C16 O22 1_555 1_555
C17 C16 1_555 1_555
C18 C19 1_555 1_555
C19 N8 1_555 1_555
N7 C17 1_555 1_555
N8 N7 1_555 1_555
C20 C17 1_555 1_555
O25 C23 1_555 1_555
O26 Zr4 1_555 1_555
O27 C23 1_555 1_555
O28 Zr5 1_555 1_555
C21 O26 1_555 1_555
C22 C21 1_555 1_555
C23 C24 1_555 1_555
C24 N10 1_555 1_555
N9 C22 1_555 1_555
N10 N9 1_555 1_555
C25 C22 1_555 1_555
O29 C28 1_555 1_555
O30 Zr5 1_555 1_555
O31 C28 1_555 1_555
O32 Zr1 1_555 1_555
C26 O30 1_555 1_555
C27 C26 1_555 1_555
C28 C29 1_555 1_555
C29 N12 1_555 1_555
N11 C27 1_555 1_555
N12 N11 1_555 1_555
C30 C27 1_555 1_555
Zr7 O31 1_555 1_555
Zr10 O23 1_555 1_555
Zr11 O5 1_555 1_555
Zr14 O15 1_555 1_555
Zr16 O27 1_555 1_555
Zr17 O19 1_555 1_555
O33 Zr6 1_555 1_555
O34 Zr2 1_555 1_555
O35 Zr4 1_555 1_555
O36 Zr3 1_555 1_555
O37 Zr5 1_555 1_555
O38 Zr1 1_555 1_555
O39 Zr4 1_555 1_555
O40 Zr1 1_555 1_555
O41 Zr2 1_555 1_555
O42 Zr5 1_555 1_555
O43 Zr6 1_555 1_555
O44 Zr3 1_555 1_555
O6 Zr4 1_555 1_555
C4 C5 1_555 1_555
Zr2 O9 1_555 1_555
O8 Zr4 1_555 1_555
O8 Zr6 1_555 1_555
Zr3 O9 1_555 1_555
Zr3 O11 1_555 1_555
O10 Zr5 1_555 1_555
O10 Zr6 1_555 1_555
Zr5 O11 1_555 1_555
Zr5 O12 1_555 1_555
Zr6 O12 1_555 1_555
O16 C6 1_555 1_555
C9 C10 1_555 1_555
O20 C11 1_555 1_555
C14 C15 1_555 1_555
O24 C16 1_555 1_555
C19 C20 1_555 1_555
O28 C21 1_555 1_555
C24 C25 1_555 1_555
O32 C26 1_555 1_555
C29 C30 1_555 1_555
N3 H1 1_555 1_555
N1 H2 1_555 1_555
C5 H3 1_555 1_555
C10 H4 1_555 1_555
N9 H5 1_555 1_555
C25 H6 1_555 1_555
N7 H7 1_555 1_555
C15 H8 1_555 1_555
N5 H9 1_555 1_555
C20 H10 1_555 1_555
C30 H11 1_555 1_555
N11 H12 1_555 1_555
O10_2 Zr4_2 1_555 1_555
O13_2 C8_2 1_555 1_555
O15_2 C8_2 1_555 1_555
C7_2 C6_2 1_555 1_555
C8_2 C9_2 1_555 1_555
C9_2 N4_2 1_555 1_555
C10_2 C7_2 1_555 1_555
O25_2 C23_2 1_555 1_555
O27_2 C23_2 1_555 1_555
C22_2 C21_2 1_555 1_555
C23_2 C24_2 1_555 1_555
C24_2 N10_2 1_555 1_555
C25_2 C22_2 1_555 1_555
Zr14 O25_2 1_555 1_555
Zr12 O15_2 1_555 1_555
Zr16_2 O27_2 1_555 1_555
O33_2 Zr17 1_555 1_555
O39_2 Zr4_2 1_555 1_555
O10_2 Zr17 1_555 1_555
Zr17 O12_2 1_555 1_555
O16_2 C6_2 1_555 1_555
C9_2 C10_2 1_555 1_555
O28_2 C21_2 1_555 1_555
C24_2 C25_2 1_555 1_555
C10_2 H4_2 1_555 1_555
C25_2 H6_2 1_555 1_555
Zr9 O1_2 1_555 1_555
O34 C28_2 1_555 1_555
O30_2 Zr9 1_555 1_555
O40 C28_2 1_555 1_555
C26_2 O30_2 1_555 1_555
C27_2 C26_2 1_555 1_555
C28_2 C29_2 1_555 1_555
C29_2 N12_2 1_555 1_555
N11_2 C27_2 1_555 1_555
N12_2 N11_2 1_555 1_555
C30_2 C27_2 1_555 1_555
O42_2 Zr9 1_555 1_555
Zr9 O11_2 1_555 1_555
O32_2 C26_2 1_555 1_555
C29_2 C30_2 1_555 1_555
N1_2 H2_2 1_555 1_555
N9_2 H5_2 1_555 1_555
C30_2 H11_2 1_555 1_555
N11_2 H12_2 1_555 1_555
O7_2 Zr15 1_555 1_555
O8_2 Zr15 1_555 1_555
O37 C13_2 1_555 1_555
O18_2 Zr15 1_555 1_555
O43 C13_2 1_555 1_555
C11_2 O18_2 1_555 1_555
C12_2 C11_2 1_555 1_555
C13_2 C14_2 1_555 1_555
C14_2 N6_2 1_555 1_555
N5_2 C12_2 1_555 1_555
N6_2 N5_2 1_555 1_555
C15_2 C12_2 1_555 1_555
O41_2 Zr15 1_555 1_555
O20_2 C11_2 1_555 1_555
C14_2 C15_2 1_555 1_555
N3_2 H1_2 1_555 1_555
N7_2 H7_2 1_555 1_555
C15_2 H8_2 1_555 1_555
N5_2 H9_2 1_555 1_555
O2_2 Zr7 1_555 1_555
O3_2 C3_2 1_555 1_555
O5_2 C3_2 1_555 1_555
O6_2 C1_2 1_555 1_555
C2_2 C1_2 1_555 1_555
C3_2 C4_2 1_555 1_555
C4_2 N2_2 1_555 1_555
C5_2 C2_2 1_555 1_555
O9_2 Zr7 1_555 1_555
O21_2 C18_2 1_555 1_555
O23_2 C18_2 1_555 1_555
C17_2 C16_2 1_555 1_555
C18_2 C19_2 1_555 1_555
C19_2 N8_2 1_555 1_555
C20_2 C17_2 1_555 1_555
Zr10_2 O23_2 1_555 1_555
Zr13 O5_2 1_555 1_555
Zr11 O21_2 1_555 1_555
O38_2 Zr7 1_555 1_555
O44_2 Zr3_2 1_555 1_555
C4_2 C5_2 1_555 1_555
Zr3_2 O9_2 1_555 1_555
O24_2 C16_2 1_555 1_555
C19_2 C20_2 1_555 1_555
C5_2 H3_2 1_555 1_555
C20_2 H10_2 1_555 1_555
O35_2 C18_3 1_555 1_555
O41_2 C18_3 1_555 1_555
C17_3 C16_3 1_555 1_555
C18_3 C19_3 1_555 1_555
C19_3 N8_3 1_555 1_555
C20_3 C17_3 1_555 1_555
O29_2 C28_3 1_555 1_555
O31_2 C28_3 1_555 1_555
C27_3 C26_3 1_555 1_555
C28_3 C29_3 1_555 1_555
C29_3 N12_3 1_555 1_555
C30_3 C27_3 1_555 1_555
Zr8_2 O31_2 1_555 1_555
Zr10 O29_2 1_555 1_555
Zr14 O9_3 1_555 1_555
Zr14 O11_3 1_555 1_555
Zr16_2 O11_3 1_555 1_555
O24_3 C16_3 1_555 1_555
C19_3 C20_3 1_555 1_555
O32_3 C26_3 1_555 1_555
C29_3 C30_3 1_555 1_555
C20_3 H10_3 1_555 1_555
C30_3 H11_3 1_555 1_555
Zr18 O7_3 1_555 1_555
O38 C8_3 1_555 1_555
O14_3 Zr18 1_555 1_555
O44 C8_3 1_555 1_555
C6_3 O14_3 1_555 1_555
C7_3 C6_3 1_555 1_555
C8_3 C9_3 1_555 1_555
C9_3 N4_3 1_555 1_555
N3_3 C7_3 1_555 1_555
N4_3 N3_3 1_555 1_555
C10_3 C7_3 1_555 1_555
O43_2 Zr18 1_555 1_555
Zr18 O12_3 1_555 1_555
O16_3 C6_3 1_555 1_555
C9_3 C10_3 1_555 1_555
N3_3 H1_3 1_555 1_555
C10_3 H4_3 1_555 1_555
N7_3 H7_3 1_555 1_555
N5_3 H9_3 1_555 1_555
Zr8 O1_3 1_555 1_555
O2_3 Zr8 1_555 1_555
O33 C3_3 1_555 1_555
O4_3 Zr8 1_555 1_555
O39 C3_3 1_555 1_555
O6_3 C1_3 1_555 1_555
C1_3 O4_3 1_555 1_555
C2_3 C1_3 1_555 1_555
C3_3 C4_3 1_555 1_555
C4_3 N2_3 1_555 1_555
N1_3 C2_3 1_555 1_555
N2_3 N1_3 1_555 1_555
C5_3 C2_3 1_555 1_555
O40_2 Zr8 1_555 1_555
C4_3 C5_3 1_555 1_555
N1_3 H2_3 1_555 1_555
C5_3 H3_3 1_555 1_555
N9_3 H5_3 1_555 1_555
N11_3 H12_3 1_555 1_555
O8_3 Zr10_2 1_555 1_555
O10_3 Zr11 1_555 1_555
O17_2 C13_3 1_555 1_555
O19_2 C13_3 1_555 1_555
C12_3 C11_3 1_555 1_555
C13_3 C14_3 1_555 1_555
C14_3 N6_3 1_555 1_555
C15_3 C12_3 1_555 1_555
O36_2 C23_3 1_555 1_555
O42_2 C23_3 1_555 1_555
C22_3 C21_3 1_555 1_555
C23_3 C24_3 1_555 1_555
C24_3 N10_3 1_555 1_555
C25_3 C22_3 1_555 1_555
Zr16 O17_2 1_555 1_555
Zr18_2 O19_2 1_555 1_555
O8_3 Zr11 1_555 1_555
O20_3 C11_3 1_555 1_555
C14_3 C15_3 1_555 1_555
O28_3 C21_3 1_555 1_555
C24_3 C25_3 1_555 1_555
C25_3 H6_3 1_555 1_555
C15_3 H8_3 1_555 1_555
O37_2 C18_4 1_555 1_555
O43_2 C18_4 1_555 1_555
C17_4 C16_4 1_555 1_555
C18_4 C19_4 1_555 1_555
C19_4 N8_4 1_555 1_555
C20_4 C17_4 1_555 1_555
O33_2 C28_4 1_555 1_555
O39_2 C28_4 1_555 1_555
C27_4 C26_4 1_555 1_555
C28_4 C29_4 1_555 1_555
C29_4 N12_4 1_555 1_555
C30_4 C27_4 1_555 1_555
Zr10 O9_4 1_555 1_555
Zr10 O11_4 1_555 1_555
Zr8_2 O11_4 1_555 1_555
O24_4 C16_4 1_555 1_555
C19_4 C20_4 1_555 1_555
O32_4 C26_4 1_555 1_555
C29_4 C30_4 1_555 1_555
C20_4 H10_4 1_555 1_555
C30_4 H11_4 1_555 1_555
Zr13 O1_4 1_555 1_555
O2_4 Zr13 1_555 1_555
O36 C3_4 1_555 1_555
O4_4 Zr13 1_555 1_555
O42 C3_4 1_555 1_555
O6_4 C1_4 1_555 1_555
C1_4 O4_4 1_555 1_555
C2_4 C1_4 1_555 1_555
C3_4 C4_4 1_555 1_555
C4_4 N2_4 1_555 1_555
N1_4 C2_4 1_555 1_555
N2_4 N1_4 1_555 1_555
C5_4 C2_4 1_555 1_555
C4_4 C5_4 1_555 1_555
N1_4 H2_4 1_555 1_555
C5_4 H3_4 1_555 1_555
N9_4 H5_4 1_555 1_555
N11_4 H12_4 1_555 1_555
Zr12 O7_4 1_555 1_555
O35 C8_4 1_555 1_555
O14_4 Zr12 1_555 1_555
O41 C8_4 1_555 1_555
C6_4 O14_4 1_555 1_555
C7_4 C6_4 1_555 1_555
C8_4 C9_4 1_555 1_555
C9_4 N4_4 1_555 1_555
N3_4 C7_4 1_555 1_555
N4_4 N3_4 1_555 1_555
C10_4 C7_4 1_555 1_555
Zr12 O12_4 1_555 1_555
O16_4 C6_4 1_555 1_555
C9_4 C10_4 1_555 1_555
N3_4 H1_4 1_555 1_555
C10_4 H4_4 1_555 1_555
N7_4 H7_4 1_555 1_555
N5_4 H9_4 1_555 1_555
O8_4 Zr18_2 1_555 1_555
O10_4 Zr16 1_555 1_555
O38_2 C13_4 1_555 1_555
O44_2 C13_4 1_555 1_555
C12_4 C11_4 1_555 1_555
C13_4 C14_4 1_555 1_555
C14_4 N6_4 1_555 1_555
C15_4 C12_4 1_555 1_555
O34_2 C23_4 1_555 1_555
O40_2 C23_4 1_555 1_555
C22_4 C21_4 1_555 1_555
C23_4 C24_4 1_555 1_555
C24_4 N10_4 1_555 1_555
C25_4 C22_4 1_555 1_555
O8_4 Zr16 1_555 1_555
O20_4 C11_4 1_555 1_555
C14_4 C15_4 1_555 1_555
O28_4 C21_4 1_555 1_555
C24_4 C25_4 1_555 1_555
C25_4 H6_4 1_555 1_555
C15_4 H8_4 1_555 1_555

#END
