
###############################################################################
#
# This file contains modified crystal structure data generated from the
# MOF subset of the Cambridge Structural Database (CSD) v543 
# hosted by the Cambridge Crystallographic Data Centre (CCDC).
#
# This work is licensed under the Creative Commons
# Attribution-NonCommercial-ShareAlike 4.0 International License.
# To view a copy of this license, visit
# http://creativecommons.org/licenses/by-nc-sa/4.0/
# or send a letter to
# Creative Commons, PO Box 1866, Mountain View, CA 94042, USA.
#
# CIF created using the CSD Python API on 29 September 2022
# The structure has been converted into the P1 space group
# The structure has a 3D framework
# The original CSD entry NIKYUC01 is in the monoclinic crystal system
# The framework has been calculated to contain at least 10.0% void space
# The void calculation uses a probe of radius 1.32A, grid spacing 0.4
#
###############################################################################

data_NIKYUC01
_chemical_formula_moiety         '(C24 H24 Fe20 O48)n'
_symmetry_cell_setting           triclinic
_symmetry_space_group_name_H-M   'P 1'
_symmetry_Int_Tables_number      1
_space_group_name_Hall           'P 1'
loop_
_symmetry_equiv_pos_site_id
_symmetry_equiv_pos_as_xyz
1 x,y,z
_cell_length_a                   11.4525(2)
_cell_length_b                   9.9803(2)
_cell_length_c                   18.5592(4)
_cell_angle_alpha                90
_cell_angle_beta                 126.8140(10)
_cell_angle_gamma                90
_cell_volume                     1698.29
loop_
_atom_site_label
_atom_site_type_symbol
_atom_site_fract_x
_atom_site_fract_y
_atom_site_fract_z
Fe14 Fe 0.0000 0.0000 0.0000
Fe14_2 Fe 0.0000 0.0000 1.0000
Fe14_3 Fe 0.0000 1.0000 0.0000
Fe14_4 Fe 0.0000 1.0000 1.0000
Fe1 Fe 0.37777(3) 0.07623(3) 0.133680(19)
Fe3 Fe 0.5000 0.0000 0.0000
O1 O 0.44618(14) 0.19387(14) 0.24967(9)
O2 O 0.56527(16) 0.05686(15) 0.36889(10)
O5 O 0.45578(15) 0.25456(14) 0.10994(9)
O6 O 0.49532(16) 0.20894(15) 0.00825(10)
O11 O 0.16528(14) 0.15338(14) 0.06615(9)
O12 O 0.20524(15) 0.37098(15) 0.10283(10)
C1 C 0.5136(2) 0.1670(2) 0.33286(14)
C3 C 0.4855(2) 0.2867(2) 0.05643(15)
C6 C 0.1246(2) 0.2743(2) 0.06159(15)
H1 H 0.528(2) 0.242(2) 0.3708(14)
H3 H 0.498(2) 0.380(3) 0.0516(15)
H6 H 0.020(2) 0.292(2) 0.0217(14)
Fe7 Fe 0.62223(3) 0.57623(3) 0.366320(19)
Fe9 Fe 0.43149(3) 0.38453(3) 0.191980(19)
Fe12 Fe 0.56851(3) 0.88453(3) 0.308020(19)
Fe13 Fe 0.5000 0.5000 0.5000
Fe14_5 Fe 1.0000 0.0000 0.0000
O15 O 0.55382(14) 0.69387(14) 0.25033(9)
O17 O 0.43473(16) 0.55686(15) 0.13111(10)
O19 O 0.41238(15) 0.48642(14) 0.28522(9)
O21 O 0.32060(16) 0.48544(16) 0.36263(10)
O26 O 0.65597(14) 0.41430(14) 0.30436(9)
O29 O 0.88999(16) 0.10313(15) 0.04153(11)
C7 C 0.4864(2) 0.6670(2) 0.16714(14)
C9 C 0.3113(2) 0.4695(2) 0.29349(15)
C11 C 0.7770(2) 0.0956(2) 0.03462(15)
H7 H 0.472(2) 0.742(2) 0.1292(14)
H9 H 0.210(3) 0.444(2) 0.2387(18)
H11 H 0.769(2) 0.146(2) 0.0729(14)
Fe2 Fe 0.43149(3) 0.11547(3) 0.691980(19)
Fe3_2 Fe 0.5000 0.0000 1.0000
Fe14_6 Fe 1.0000 0.0000 1.0000
O14 O 0.44618(14) 0.30613(14) 0.74967(9)
O18 O 0.41238(15) 0.01358(14) 0.78522(9)
O20 O 0.32060(16) 0.01456(16) 0.86263(10)
O23 O 0.45578(15) 0.24544(14) 0.60994(9)
O25 O 0.65597(14) 0.08570(14) 0.80436(9)
O28 O 0.66458(15) 0.02476(14) 0.97768(9)
O33 O 0.20524(15) 0.12902(15) 0.60283(10)
C8 C 0.3113(2) 0.0305(2) 0.79349(15)
H8 H 0.210(3) 0.056(2) 0.7387(18)
Fe3_3 Fe 0.5000 1.0000 0.0000
O3 O 0.58762(15) 0.98642(14) 0.21478(9)
O4 O 0.67940(16) 0.98544(16) 0.13737(10)
O7 O 0.34403(14) 0.91430(14) 0.19564(9)
O8 O 0.10353(15) 0.88487(16) 0.11806(10)
O9 O 0.33542(15) 0.97524(14) 0.02232(9)
C2 C 0.6887(2) 0.9695(2) 0.20651(15)
C4 C 0.2308(2) 0.8618(2) 0.18190(15)
H2 H 0.790(3) 0.944(2) 0.2613(18)
H4 H 0.245(2) 0.794(2) 0.2230(14)
Fe14_7 Fe 1.0000 1.0000 0.0000
Fe3_4 Fe 0.5000 1.0000 1.0000
O10 O 0.11001(16) 0.89687(15) 0.95847(11)
C5 C 0.2230(2) 0.9044(2) 0.96538(15)
H5 H 0.231(2) 0.854(2) 0.9271(14)
Fe5 Fe 0.62223(3) 0.92377(3) 0.866320(19)
Fe10 Fe 0.56851(3) 0.61547(3) 0.808020(19)
Fe14_8 Fe 1.0000 1.0000 1.0000
O13 O 0.55382(14) 0.80613(14) 0.75033(9)
O16 O 0.43473(16) 0.94314(15) 0.63111(10)
O22 O 0.54422(15) 0.74544(14) 0.89006(9)
O24 O 0.50468(16) 0.79106(15) 0.99175(10)
O32 O 0.83472(14) 0.84662(14) 0.93385(9)
C10 C 0.5145(2) 0.7133(2) 0.94357(15)
H10 H 0.502(2) 0.620(3) 0.9484(15)
O27 O 0.89647(15) 0.11513(16) 0.88194(10)
O34 O 0.79476(15) 0.62902(15) 0.89717(10)
C12 C 0.8754(2) 0.7257(2) 0.93841(15)
H12 H 0.980(2) 0.708(2) 0.9783(14)
Fe4 Fe 0.0000 0.5000 0.5000
Fe6 Fe 0.37777(3) 0.42377(3) 0.633680(19)
O27_2 O 0.10353(15) 0.61513(16) 0.61806(10)
O30 O 0.11001(16) 0.60313(15) 0.45847(11)
O31 O 0.16528(14) 0.34662(14) 0.56615(9)
C12_2 C 0.1246(2) 0.2257(2) 0.56159(15)
H12_2 H 0.020(2) 0.208(2) 0.5217(14)
Fe4_2 Fe 1.0000 0.5000 0.5000
O5_2 O 0.54422(15) 0.75456(14) 0.39006(9)
O6_2 O 0.50468(16) 0.70894(15) 0.49175(10)
O8_2 O 0.89647(15) 0.38487(16) 0.38194(10)
O9_2 O 0.66458(15) 0.47524(14) 0.47768(9)
O10_2 O 0.88999(16) 0.39687(15) 0.54153(11)
O11_2 O 0.83472(14) 0.65338(14) 0.43385(9)
O12_2 O 0.79476(15) 0.87098(15) 0.39717(10)
C3_2 C 0.5145(2) 0.7867(2) 0.44357(15)
C4_2 C 0.7692(2) 0.3618(2) 0.31810(15)
C5_2 C 0.7770(2) 0.4044(2) 0.53462(15)
C6_2 C 0.8754(2) 0.7743(2) 0.43841(15)
H3_2 H 0.502(2) 0.880(3) 0.4484(15)
H4_2 H 0.755(2) 0.294(2) 0.2770(14)
H5_2 H 0.769(2) 0.354(2) 0.5729(14)
H6_2 H 0.980(2) 0.792(2) 0.4783(14)
O16_2 O 0.56527(16) 0.44314(15) 0.86889(10)
O18_2 O 0.58762(15) 0.51358(14) 0.71478(9)
O20_2 O 0.67940(16) 0.51456(16) 0.63737(10)
O24_2 O 0.49532(16) 0.29106(15) 0.50825(10)
O25_2 O 0.34403(14) 0.58570(14) 0.69564(9)
O28_2 O 0.33542(15) 0.52476(14) 0.52232(9)
C8_2 C 0.6887(2) 0.5305(2) 0.70651(15)
C10_2 C 0.4855(2) 0.2133(2) 0.55643(15)
C11_2 C 0.2230(2) 0.5956(2) 0.46538(15)
H8_2 H 0.790(3) 0.556(2) 0.7613(18)
H10_2 H 0.498(2) 0.120(3) 0.5516(15)
H11_2 H 0.231(2) 0.646(2) 0.4271(14)
C4_3 C 0.7692(2) 0.1382(2) 0.81810(15)
H4_3 H 0.755(2) 0.206(2) 0.7770(14)
C1_2 C 0.4864(2) 0.8330(2) 0.66714(14)
H1_2 H 0.472(2) 0.758(2) 0.6292(14)
C7_2 C 0.5136(2) 0.3330(2) 0.83286(14)
H7_2 H 0.528(2) 0.258(2) 0.8708(14)
C4_4 C 0.2308(2) 0.6382(2) 0.68190(15)
H4_4 H 0.245(2) 0.706(2) 0.7230(14)
loop_
_geom_bond_atom_site_label_1
_geom_bond_atom_site_label_2
_geom_bond_site_symmetry_1
_geom_bond_site_symmetry_2
Fe1 O1 1_555 1_555
O1 C1 1_555 1_555
O2 C1 1_555 1_555
O5 Fe1 1_555 1_555
O6 Fe3 1_555 1_555
O11 Fe1 1_555 1_555
O12 C6 1_555 1_555
C1 H1 1_555 1_555
C3 O5 1_555 1_555
C6 O11 1_555 1_555
H3 C3 1_555 1_555
H6 C6 1_555 1_555
Fe7 O15 1_555 1_555
Fe9 O1 1_555 1_555
Fe12 O15 1_555 1_555
Fe13 O21 1_555 1_555
Fe14_5 O29 1_555 1_555
O15 C7 1_555 1_555
O17 Fe9 1_555 1_555
O19 Fe7 1_555 1_555
O21 C9 1_555 1_555
O26 Fe7 1_555 1_555
O29 C11 1_555 1_555
C7 O17 1_555 1_555
C9 O19 1_555 1_555
H7 C7 1_555 1_555
H9 C9 1_555 1_555
H11 C11 1_555 1_555
Fe14 O11 1_555 1_555
O5 Fe9 1_555 1_555
O6 C3 1_555 1_555
O12 Fe9 1_555 1_555
Fe9 O19 1_555 1_555
Fe9 O26 1_555 1_555
Fe2 O14 1_555 1_555
O18 Fe2 1_555 1_555
O20 Fe3_2 1_555 1_555
O23 Fe2 1_555 1_555
O25 Fe2 1_555 1_555
O28 Fe3_2 1_555 1_555
O33 Fe2 1_555 1_555
C8 O18 1_555 1_555
H8 C8 1_555 1_555
O20 C8 1_555 1_555
Fe3_3 O4 1_555 1_555
Fe14_3 O8 1_555 1_555
O4 C2 1_555 1_555
O8 C4 1_555 1_555
C2 O3 1_555 1_555
C4 O7 1_555 1_555
H2 C2 1_555 1_555
H4 C4 1_555 1_555
Fe3_3 O9 1_555 1_555
O3 Fe12 1_555 1_555
O7 Fe12 1_555 1_555
O10 Fe14_4 1_555 1_555
H5 C5 1_555 1_555
Fe5 O13 1_555 1_555
Fe10 O13 1_555 1_555
O22 Fe5 1_555 1_555
O24 Fe3_4 1_555 1_555
O32 Fe5 1_555 1_555
C10 O22 1_555 1_555
H10 C10 1_555 1_555
O10 C5 1_555 1_555
Fe10 O22 1_555 1_555
Fe14_8 O32 1_555 1_555
O24 C10 1_555 1_555
O27 Fe14_6 1_555 1_555
Fe10 O34 1_555 1_555
O34 C12 1_555 1_555
C12 O32 1_555 1_555
H12 C12 1_555 1_555
Fe6 O31 1_555 1_555
O27_2 Fe4 1_555 1_555
O30 Fe4 1_555 1_555
O31 Fe4 1_555 1_555
O33 C12_2 1_555 1_555
C12_2 O31 1_555 1_555
H12_2 C12_2 1_555 1_555
Fe4_2 O8_2 1_555 1_555
O5_2 Fe7 1_555 1_555
O6_2 Fe13 1_555 1_555
O8_2 C4_2 1_555 1_555
O9_2 Fe7 1_555 1_555
O10_2 Fe4_2 1_555 1_555
O11_2 Fe7 1_555 1_555
O12_2 C6_2 1_555 1_555
C3_2 O5_2 1_555 1_555
C4_2 O26 1_555 1_555
C5_2 O9_2 1_555 1_555
C6_2 O11_2 1_555 1_555
H3_2 C3_2 1_555 1_555
H4_2 C4_2 1_555 1_555
H5_2 C5_2 1_555 1_555
H6_2 C6_2 1_555 1_555
Fe6 O14 1_555 1_555
O16_2 Fe10 1_555 1_555
O18_2 Fe10 1_555 1_555
O20_2 Fe13 1_555 1_555
O23 Fe6 1_555 1_555
O24_2 Fe13 1_555 1_555
O25_2 Fe10 1_555 1_555
O28_2 Fe13 1_555 1_555
O30 C11_2 1_555 1_555
C8_2 O18_2 1_555 1_555
C10_2 O23 1_555 1_555
C11_2 O28_2 1_555 1_555
H8_2 C8_2 1_555 1_555
H10_2 C10_2 1_555 1_555
H11_2 C11_2 1_555 1_555
Fe13 O9_2 1_555 1_555
Fe4_2 O11_2 1_555 1_555
O5_2 Fe12 1_555 1_555
O6_2 C3_2 1_555 1_555
O10_2 C5_2 1_555 1_555
O12_2 Fe12 1_555 1_555
Fe6 O18_2 1_555 1_555
Fe6 O25_2 1_555 1_555
Fe6 O28_2 1_555 1_555
O20_2 C8_2 1_555 1_555
O24_2 C10_2 1_555 1_555
O27 C4_3 1_555 1_555
C4_3 O25 1_555 1_555
H4_3 C4_3 1_555 1_555
O13 C1_2 1_555 1_555
O16 C1_2 1_555 1_555
C1_2 H1_2 1_555 1_555
O14 C7_2 1_555 1_555
C7_2 O16_2 1_555 1_555
H7_2 C7_2 1_555 1_555
O27_2 C4_4 1_555 1_555
C4_4 O25_2 1_555 1_555
H4_4 C4_4 1_555 1_555

#END
