
###############################################################################
#
# This file contains modified crystal structure data generated from the
# MOF subset of the Cambridge Structural Database (CSD) v543 
# hosted by the Cambridge Crystallographic Data Centre (CCDC).
#
# This work is licensed under the Creative Commons
# Attribution-NonCommercial-ShareAlike 4.0 International License.
# To view a copy of this license, visit
# http://creativecommons.org/licenses/by-nc-sa/4.0/
# or send a letter to
# Creative Commons, PO Box 1866, Mountain View, CA 94042, USA.
#
# CIF created using the CSD Python API on 29 September 2022
# The structure has been converted into the P1 space group
# The structure has a 3D framework
# The original CSD entry NIKYOW is in the monoclinic crystal system
# The framework has been calculated to contain at least 10.0% void space
# The void calculation uses a probe of radius 1.32A, grid spacing 0.4
#
###############################################################################

data_NIKYOW
_chemical_formula_moiety         '(C24 H24 Fe19 O48)n'
_symmetry_cell_setting           triclinic
_symmetry_space_group_name_H-M   'P 1'
_symmetry_Int_Tables_number      1
_space_group_name_Hall           'P 1'
loop_
_symmetry_equiv_pos_site_id
_symmetry_equiv_pos_as_xyz
1 x,y,z
_cell_length_a                   11.3369(2)
_cell_length_b                   9.8474(2)
_cell_length_c                   18.1884(5)
_cell_angle_alpha                90
_cell_angle_beta                 127.4070(10)
_cell_angle_gamma                90
_cell_volume                     1612.94
loop_
_atom_site_label
_atom_site_type_symbol
_atom_site_fract_x
_atom_site_fract_y
_atom_site_fract_z
Fe14 Fe 0.0000 0.0000 0.0000
Fe14_2 Fe -0.0000 0.0000 1.0000
Fe14_3 Fe 0.0000 1.0000 0.0000
Fe14_4 Fe -0.0000 1.0000 1.0000
Fe1 Fe 0.37706(4) 0.08218(4) 0.13235(3)
Fe3 Fe 0.5000 0.0000 0.0000
O1 O 0.4369(2) 0.20475(17) 0.24629(13)
O2 O 0.5594(2) 0.07131(18) 0.37206(13)
O3 O 0.5950(2) 0.00045(17) 0.22092(13)
O4 O 0.6885(2) 0.0089(2) 0.14267(14)
O5 O 0.4534(2) 0.26191(18) 0.10505(13)
O11 O 0.1610(2) 0.16170(18) 0.05688(13)
O12 O 0.1963(2) 0.38567(18) 0.08538(14)
C1 C 0.5024(3) 0.1803(3) 0.3320(2)
H1 H 0.5077 0.2528 0.3684
C3 C 0.4681(3) 0.2915(3) 0.0429(2)
H3 H 0.4769 0.3850 0.0341
C6 C 0.1162(3) 0.2852(3) 0.0431(2)
Fe7 Fe 0.62294(4) 0.58218(4) 0.36765(3)
Fe9 Fe 0.42441(4) 0.39607(4) 0.18536(3)
Fe12 Fe 0.57559(4) 0.89607(4) 0.31464(3)
Fe13 Fe 0.5000 0.5000 0.5000
Fe14_5 Fe 1.0000 0.0000 0.0000
O15 O 0.5631(2) 0.70475(17) 0.25371(13)
O17 O 0.4406(2) 0.57131(18) 0.12794(13)
O19 O 0.4050(2) 0.50045(17) 0.27908(13)
O21 O 0.3115(2) 0.5089(2) 0.35733(14)
O26 O 0.6534(2) 0.42045(17) 0.30115(13)
O29 O 0.8853(2) 0.12115(19) 0.03414(14)
C7 C 0.4976(3) 0.6803(3) 0.1680(2)
H7 H 0.4923 0.7528 0.1316
C9 C 0.2997(3) 0.4946(3) 0.2855(2)
H9 H 0.2030 0.4778 0.2301
C11 C 0.7733(3) 0.1115(3) 0.0295(2)
H11 H 0.7665 0.1697 0.0685
Fe2 Fe 0.42441(4) 0.10393(4) 0.68536(3)
Fe3_2 Fe 0.5000 0.0000 1.0000
O6 O 0.4719(2) 0.20950(19) 0.99273(13)
H6 H 0.0133 0.3013 0.9967
Fe14_6 Fe 1.0000 0.0000 1.0000
O14 O 0.4369(2) 0.29525(17) 0.74629(13)
O23 O 0.4534(2) 0.23809(18) 0.60505(13)
O25 O 0.6534(2) 0.07955(17) 0.80115(13)
O28 O 0.6640(2) 0.03007(18) 0.97690(13)
O33 O 0.1963(2) 0.11433(18) 0.58538(14)
C8 C 0.2997(3) 0.0054(3) 0.7855(2)
H8 H 0.2030 0.0222 0.7301
Fe3_3 Fe 0.5000 1.0000 0.0000
O7 O 0.3466(2) 0.92045(17) 0.19885(13)
O8 O 0.1031(2) 0.90609(19) 0.12899(14)
O9 O 0.3360(2) 0.96993(18) 0.02310(13)
C2 C 0.7003(3) 0.9946(3) 0.2145(2)
H2 H 0.7970 0.9778 0.2699
C4 C 0.2333(3) 0.8810(3) 0.1928(2)
H4 H 0.2517 0.8275 0.2422
Fe14_7 Fe 1.0000 1.0000 0.0000
O24 O 0.5281(2) 0.79050(19) 0.00727(13)
Fe3_4 Fe 0.5000 1.0000 1.0000
O10 O 0.1147(2) 0.87885(19) 0.96586(14)
C5 C 0.2267(3) 0.8885(3) 0.9705(2)
H5 H 0.2335 0.8303 0.9315
Fe5 Fe 0.62294(4) 0.91782(4) 0.86765(3)
Fe10 Fe 0.57559(4) 0.60393(4) 0.81464(3)
Fe14_8 Fe 1.0000 1.0000 1.0000
O13 O 0.5631(2) 0.79525(17) 0.75371(13)
O16 O 0.4406(2) 0.92869(18) 0.62794(13)
O18 O 0.4050(2) 0.99955(17) 0.77908(13)
O20 O 0.3115(2) 0.9911(2) 0.85733(14)
O22 O 0.5466(2) 0.73809(18) 0.89495(13)
O32 O 0.8390(2) 0.83830(18) 0.94312(13)
C10 C 0.5319(3) 0.7085(3) 0.9571(2)
H10 H 0.5231 0.6150 0.9659
O27 O 0.8969(2) 0.09391(19) 0.87101(14)
H12 H 0.9867 0.6987 0.0033
O34 O 0.8037(2) 0.61433(18) 0.91462(14)
C12 C 0.8838(3) 0.7148(3) 0.9569(2)
Fe4 Fe -0.0000 0.5000 0.5000
Fe6 Fe 0.37706(4) 0.41782(4) 0.63235(3)
O27_2 O 0.1031(2) 0.59391(19) 0.62899(14)
O30 O 0.1147(2) 0.62115(19) 0.46586(14)
O31 O 0.1610(2) 0.33830(18) 0.55688(13)
C12_2 C 0.1162(3) 0.2148(3) 0.5431(2)
H12_2 H 0.0133 0.1987 0.4967
Fe4_2 Fe 1.0000 0.5000 0.5000
O5_2 O 0.5466(2) 0.76191(18) 0.39495(13)
O6_2 O 0.5281(2) 0.70950(19) 0.50727(13)
O8_2 O 0.8969(2) 0.40609(19) 0.37101(14)
O9_2 O 0.6640(2) 0.46993(18) 0.47690(13)
O10_2 O 0.8853(2) 0.37885(19) 0.53414(14)
O11_2 O 0.8390(2) 0.66170(18) 0.44312(13)
O12_2 O 0.8037(2) 0.88567(18) 0.41462(14)
C3_2 C 0.5319(3) 0.7915(3) 0.4571(2)
H3_2 H 0.5231 0.8850 0.4659
C4_2 C 0.7667(3) 0.3810(3) 0.3072(2)
H4_2 H 0.7483 0.3275 0.2578
C5_2 C 0.7733(3) 0.3885(3) 0.5295(2)
H5_2 H 0.7665 0.3303 0.5685
C6_2 C 0.8838(3) 0.7852(3) 0.4569(2)
H6_2 H 0.9867 0.8013 0.5033
O16_2 O 0.5594(2) 0.42869(18) 0.87206(13)
O18_2 O 0.5950(2) 0.49955(17) 0.72092(13)
O20_2 O 0.6885(2) 0.4911(2) 0.64267(14)
O24_2 O 0.4719(2) 0.29050(19) 0.49273(13)
O25_2 O 0.3466(2) 0.57955(17) 0.69885(13)
O28_2 O 0.3360(2) 0.53007(18) 0.52310(13)
C8_2 C 0.7003(3) 0.5054(3) 0.7145(2)
H8_2 H 0.7970 0.5222 0.7699
C10_2 C 0.4681(3) 0.2085(3) 0.5429(2)
H10_2 H 0.4769 0.1150 0.5341
C11_2 C 0.2267(3) 0.6115(3) 0.4705(2)
H11_2 H 0.2335 0.6697 0.4315
C4_3 C 0.7667(3) 0.1190(3) 0.8072(2)
H4_3 H 0.7483 0.1725 0.7578
C1_2 C 0.4976(3) 0.8197(3) 0.6680(2)
H1_2 H 0.4923 0.7472 0.6316
C7_2 C 0.5024(3) 0.3197(3) 0.8320(2)
H7_2 H 0.5077 0.2472 0.8684
C4_4 C 0.2333(3) 0.6190(3) 0.6928(2)
H4_4 H 0.2517 0.6725 0.7422
loop_
_geom_bond_atom_site_label_1
_geom_bond_atom_site_label_2
_geom_bond_site_symmetry_1
_geom_bond_site_symmetry_2
Fe1 O1 1_555 1_555
Fe3 O4 1_555 1_555
O1 C1 1_555 1_555
O2 C1 1_555 1_555
O3 Fe1 1_555 1_555
O5 Fe1 1_555 1_555
O11 Fe1 1_555 1_555
O12 C6 1_555 1_555
C1 H1 1_555 1_555
C3 O5 1_555 1_555
H3 C3 1_555 1_555
C6 O11 1_555 1_555
Fe7 O15 1_555 1_555
Fe9 O1 1_555 1_555
Fe12 O15 1_555 1_555
Fe13 O21 1_555 1_555
Fe14_5 O29 1_555 1_555
O15 C7 1_555 1_555
O17 Fe9 1_555 1_555
O19 Fe7 1_555 1_555
O21 C9 1_555 1_555
O26 Fe7 1_555 1_555
O29 C11 1_555 1_555
C7 O17 1_555 1_555
H7 C7 1_555 1_555
C9 O19 1_555 1_555
H9 C9 1_555 1_555
H11 C11 1_555 1_555
Fe14 O11 1_555 1_555
O5 Fe9 1_555 1_555
O12 Fe9 1_555 1_555
Fe9 O19 1_555 1_555
Fe9 O26 1_555 1_555
Fe2 O14 1_555 1_555
O6 Fe3_2 1_555 1_555
O23 Fe2 1_555 1_555
O25 Fe2 1_555 1_555
O28 Fe3_2 1_555 1_555
O33 Fe2 1_555 1_555
H8 C8 1_555 1_555
Fe14_3 O8 1_555 1_555
O8 C4 1_555 1_555
H2 C2 1_555 1_555
C4 O7 1_555 1_555
H4 C4 1_555 1_555
O24 Fe3_3 1_555 1_555
Fe3_3 O9 1_555 1_555
O7 Fe12 1_555 1_555
O10 Fe14_4 1_555 1_555
H5 C5 1_555 1_555
Fe5 O13 1_555 1_555
Fe10 O13 1_555 1_555
O20 Fe3_4 1_555 1_555
O22 Fe5 1_555 1_555
O32 Fe5 1_555 1_555
C10 O22 1_555 1_555
H10 C10 1_555 1_555
O10 C5 1_555 1_555
Fe5 O18 1_555 1_555
Fe10 O22 1_555 1_555
Fe14_8 O32 1_555 1_555
O27 Fe14_6 1_555 1_555
Fe10 O34 1_555 1_555
O34 C12 1_555 1_555
C12 O32 1_555 1_555
Fe6 O31 1_555 1_555
O27_2 Fe4 1_555 1_555
O30 Fe4 1_555 1_555
O31 Fe4 1_555 1_555
O33 C12_2 1_555 1_555
C12_2 O31 1_555 1_555
H12_2 C12_2 1_555 1_555
Fe4_2 O8_2 1_555 1_555
O5_2 Fe7 1_555 1_555
O6_2 Fe13 1_555 1_555
O8_2 C4_2 1_555 1_555
O9_2 Fe7 1_555 1_555
O10_2 Fe4_2 1_555 1_555
O11_2 Fe7 1_555 1_555
O12_2 C6_2 1_555 1_555
C3_2 O5_2 1_555 1_555
H3_2 C3_2 1_555 1_555
C4_2 O26 1_555 1_555
H4_2 C4_2 1_555 1_555
C5_2 O9_2 1_555 1_555
H5_2 C5_2 1_555 1_555
C6_2 O11_2 1_555 1_555
H6_2 C6_2 1_555 1_555
Fe6 O14 1_555 1_555
O16_2 Fe10 1_555 1_555
O18_2 Fe10 1_555 1_555
O20_2 Fe13 1_555 1_555
O23 Fe6 1_555 1_555
O24_2 Fe13 1_555 1_555
O25_2 Fe10 1_555 1_555
O28_2 Fe13 1_555 1_555
O30 C11_2 1_555 1_555
C8_2 O18_2 1_555 1_555
H8_2 C8_2 1_555 1_555
C10_2 O23 1_555 1_555
H10_2 C10_2 1_555 1_555
C11_2 O28_2 1_555 1_555
H11_2 C11_2 1_555 1_555
Fe13 O9_2 1_555 1_555
Fe4_2 O11_2 1_555 1_555
O5_2 Fe12 1_555 1_555
O6_2 C3_2 1_555 1_555
O10_2 C5_2 1_555 1_555
O12_2 Fe12 1_555 1_555
Fe6 O18_2 1_555 1_555
Fe6 O25_2 1_555 1_555
Fe6 O28_2 1_555 1_555
O20_2 C8_2 1_555 1_555
O24_2 C10_2 1_555 1_555
O27 C4_3 1_555 1_555
C4_3 O25 1_555 1_555
H4_3 C4_3 1_555 1_555
O13 C1_2 1_555 1_555
O16 C1_2 1_555 1_555
C1_2 H1_2 1_555 1_555
O14 C7_2 1_555 1_555
C7_2 O16_2 1_555 1_555
H7_2 C7_2 1_555 1_555
O27_2 C4_4 1_555 1_555
C4_4 O25_2 1_555 1_555
H4_4 C4_4 1_555 1_555

#END
