
###############################################################################
#
# This file contains modified crystal structure data generated from the
# MOF subset of the Cambridge Structural Database (CSD) v543 
# hosted by the Cambridge Crystallographic Data Centre (CCDC).
#
# This work is licensed under the Creative Commons
# Attribution-NonCommercial-ShareAlike 4.0 International License.
# To view a copy of this license, visit
# http://creativecommons.org/licenses/by-nc-sa/4.0/
# or send a letter to
# Creative Commons, PO Box 1866, Mountain View, CA 94042, USA.
#
# CIF created using the CSD Python API on 29 September 2022
# The structure has been converted into the P1 space group
# The structure has a 3D framework
# The original CSD entry NIKYOW02 is in the monoclinic crystal system
# The framework has been calculated to contain at least 10.0% void space
# The void calculation uses a probe of radius 1.32A, grid spacing 0.4
#
###############################################################################

data_NIKYOW02
_chemical_formula_moiety         '(C24 H24 Fe20 O48)n'
_symmetry_cell_setting           triclinic
_symmetry_space_group_name_H-M   'P 1'
_symmetry_Int_Tables_number      1
_space_group_name_Hall           'P 1'
loop_
_symmetry_equiv_pos_site_id
_symmetry_equiv_pos_as_xyz
1 x,y,z
_cell_length_a                   11.4207(2)
_cell_length_b                   9.9627(2)
_cell_length_c                   18.3039(4)
_cell_angle_alpha                90
_cell_angle_beta                 127.166(2)
_cell_angle_gamma                90
_cell_volume                     1659.63
loop_
_atom_site_label
_atom_site_type_symbol
_atom_site_fract_x
_atom_site_fract_y
_atom_site_fract_z
Fe14 Fe 0.0000 0.0000 0.0000
Fe14_2 Fe 0.0000 0.0000 1.0000
Fe14_3 Fe 0.0000 1.0000 0.0000
Fe14_4 Fe 0.0000 1.0000 1.0000
Fe1 Fe 0.37727(4) 0.07967(3) 0.13273(2)
Fe3 Fe 0.5000 0.0000 0.0000
O1 O 0.4404(2) 0.20053(16) 0.24755(11)
O2 O 0.5585(2) 0.06453(18) 0.36987(12)
O5 O 0.4555(2) 0.25794(17) 0.10731(11)
O11 O 0.16297(19) 0.15765(18) 0.05970(12)
O12 O 0.2014(2) 0.37809(18) 0.09044(13)
C1 C 0.5047(3) 0.1738(3) 0.33173(18)
H1 H 0.5120 0.2433 0.3682
C3 C 0.4753(3) 0.2879(3) 0.04880(19)
H3 H 0.4869 0.3785 0.0424
C6 C 0.1215(3) 0.2802(3) 0.04915(19)
H6 H 0.0215 0.2969 0.0062
Fe7 Fe 0.62273(4) 0.57967(3) 0.36727(2)
Fe9 Fe 0.42776(4) 0.39094(3) 0.18775(2)
Fe12 Fe 0.57224(4) 0.89094(3) 0.31225(2)
Fe13 Fe 0.5000 0.5000 0.5000
Fe14_5 Fe 1.0000 0.0000 0.0000
O15 O 0.5596(2) 0.70053(16) 0.25245(11)
O17 O 0.4415(2) 0.56453(18) 0.13013(12)
O19 O 0.4090(2) 0.49433(17) 0.28141(12)
O21 O 0.3165(2) 0.4998(2) 0.35866(13)
O26 O 0.6550(2) 0.41834(17) 0.30281(12)
O29 O 0.8858(2) 0.1128(2) 0.03589(14)
C7 C 0.4953(3) 0.6738(3) 0.16827(18)
H7 H 0.4880 0.7433 0.1318
C9 C 0.3059(3) 0.4855(3) 0.28829(19)
H9 H 0.2129 0.4664 0.2349
C11 C 0.7755(3) 0.1045(3) 0.03183(19)
H11 H 0.7710 0.1591 0.0713
Fe2 Fe 0.42776(4) 0.10906(3) 0.68775(2)
Fe3_2 Fe 0.5000 0.0000 1.0000
O6 O 0.4808(2) 0.2085(2) 0.99869(13)
Fe14_6 Fe 1.0000 0.0000 1.0000
O14 O 0.4404(2) 0.29947(16) 0.74755(11)
O18 O 0.4090(2) 0.00567(17) 0.78141(12)
O20 O 0.3165(2) 0.0002(2) 0.85866(13)
O23 O 0.4555(2) 0.24206(17) 0.60731(11)
O25 O 0.6550(2) 0.08166(17) 0.80281(12)
O28 O 0.6652(2) 0.02757(18) 0.97822(12)
O33 O 0.2014(2) 0.12191(18) 0.59044(13)
C8 C 0.3059(3) 0.0145(3) 0.78829(19)
H8 H 0.2129 0.0336 0.7349
Fe3_3 Fe 0.5000 1.0000 0.0000
O3 O 0.5910(2) 0.99433(17) 0.21859(12)
O4 O 0.6835(2) 0.9998(2) 0.14134(13)
O7 O 0.3450(2) 0.91834(17) 0.19719(12)
O8 O 0.1048(2) 0.8991(2) 0.12562(14)
O9 O 0.3348(2) 0.97243(18) 0.02178(12)
C2 C 0.6941(3) 0.9855(3) 0.21171(19)
H2 H 0.7871 0.9664 0.2651
C4 C 0.2338(3) 0.8751(3) 0.18843(19)
H4 H 0.2512 0.8188 0.2346
Fe14_7 Fe 1.0000 1.0000 0.0000
O24 O 0.5192(2) 0.7915(2) 0.00131(13)
Fe3_4 Fe 0.5000 1.0000 1.0000
O10 O 0.1142(2) 0.8872(2) 0.96411(14)
C5 C 0.2245(3) 0.8955(3) 0.96817(19)
H5 H 0.2290 0.8409 0.9287
Fe5 Fe 0.62273(4) 0.92033(3) 0.86727(2)
Fe10 Fe 0.57224(4) 0.60906(3) 0.81225(2)
Fe14_8 Fe 1.0000 1.0000 1.0000
O13 O 0.5596(2) 0.79947(16) 0.75245(11)
O16 O 0.4415(2) 0.93547(18) 0.63013(12)
O22 O 0.5445(2) 0.74206(17) 0.89269(11)
O32 O 0.83703(19) 0.84235(18) 0.94030(12)
C10 C 0.5247(3) 0.7121(3) 0.95120(19)
H10 H 0.5131 0.6215 0.9576
O27 O 0.8952(2) 0.1009(2) 0.87438(14)
O34 O 0.7986(2) 0.62191(18) 0.90956(13)
C12 C 0.8785(3) 0.7198(3) 0.95085(19)
H12 H 0.9785 0.7031 0.9938
Fe4 Fe 0.0000 0.5000 0.5000
Fe6 Fe 0.37727(4) 0.42033(3) 0.63273(2)
O27_2 O 0.1048(2) 0.6009(2) 0.62562(14)
O30 O 0.1142(2) 0.6128(2) 0.46411(14)
O31 O 0.16297(19) 0.34235(18) 0.55970(12)
C12_2 C 0.1215(3) 0.2198(3) 0.54915(19)
H12_2 H 0.0215 0.2031 0.5062
Fe4_2 Fe 1.0000 0.5000 0.5000
O5_2 O 0.5445(2) 0.75794(17) 0.39269(11)
O6_2 O 0.5192(2) 0.7085(2) 0.50131(13)
O8_2 O 0.8952(2) 0.3991(2) 0.37438(14)
O9_2 O 0.6652(2) 0.47243(18) 0.47822(12)
O10_2 O 0.8858(2) 0.3872(2) 0.53589(14)
O11_2 O 0.83703(19) 0.65765(18) 0.44030(12)
O12_2 O 0.7986(2) 0.87809(18) 0.40956(13)
C3_2 C 0.5247(3) 0.7879(3) 0.45120(19)
H3_2 H 0.5131 0.8785 0.4576
C4_2 C 0.7662(3) 0.3751(3) 0.31157(19)
H4_2 H 0.7488 0.3188 0.2654
C5_2 C 0.7755(3) 0.3955(3) 0.53183(19)
H5_2 H 0.7710 0.3409 0.5713
C6_2 C 0.8785(3) 0.7802(3) 0.45085(19)
H6_2 H 0.9785 0.7969 0.4938
O16_2 O 0.5585(2) 0.43547(18) 0.86987(12)
O18_2 O 0.5910(2) 0.50567(17) 0.71859(12)
O20_2 O 0.6835(2) 0.5002(2) 0.64134(13)
O24_2 O 0.4808(2) 0.2915(2) 0.49869(13)
O25_2 O 0.3450(2) 0.58166(17) 0.69719(12)
O28_2 O 0.3348(2) 0.52757(18) 0.52178(12)
C8_2 C 0.6941(3) 0.5145(3) 0.71171(19)
H8_2 H 0.7871 0.5336 0.7651
C10_2 C 0.4753(3) 0.2121(3) 0.54880(19)
H10_2 H 0.4869 0.1215 0.5424
C11_2 C 0.2245(3) 0.6045(3) 0.46817(19)
H11_2 H 0.2290 0.6591 0.4287
C4_3 C 0.7662(3) 0.1249(3) 0.81157(19)
H4_3 H 0.7488 0.1812 0.7654
C1_2 C 0.4953(3) 0.8262(3) 0.66827(18)
H1_2 H 0.4880 0.7567 0.6318
C7_2 C 0.5047(3) 0.3262(3) 0.83173(18)
H7_2 H 0.5120 0.2567 0.8682
C4_4 C 0.2338(3) 0.6249(3) 0.68843(19)
H4_4 H 0.2512 0.6812 0.7346
loop_
_geom_bond_atom_site_label_1
_geom_bond_atom_site_label_2
_geom_bond_site_symmetry_1
_geom_bond_site_symmetry_2
Fe1 O1 1_555 1_555
O1 C1 1_555 1_555
O2 C1 1_555 1_555
O5 Fe1 1_555 1_555
O11 Fe1 1_555 1_555
O12 C6 1_555 1_555
C1 H1 1_555 1_555
C3 O5 1_555 1_555
H3 C3 1_555 1_555
C6 O11 1_555 1_555
H6 C6 1_555 1_555
Fe7 O15 1_555 1_555
Fe9 O1 1_555 1_555
Fe12 O15 1_555 1_555
Fe13 O21 1_555 1_555
Fe14_5 O29 1_555 1_555
O15 C7 1_555 1_555
O17 Fe9 1_555 1_555
O19 Fe7 1_555 1_555
O21 C9 1_555 1_555
O26 Fe7 1_555 1_555
O29 C11 1_555 1_555
C7 O17 1_555 1_555
H7 C7 1_555 1_555
C9 O19 1_555 1_555
H9 C9 1_555 1_555
H11 C11 1_555 1_555
Fe14 O11 1_555 1_555
O5 Fe9 1_555 1_555
O12 Fe9 1_555 1_555
Fe9 O19 1_555 1_555
Fe9 O26 1_555 1_555
Fe2 O14 1_555 1_555
O6 Fe3_2 1_555 1_555
O18 Fe2 1_555 1_555
O20 Fe3_2 1_555 1_555
O23 Fe2 1_555 1_555
O25 Fe2 1_555 1_555
O28 Fe3_2 1_555 1_555
O33 Fe2 1_555 1_555
C8 O18 1_555 1_555
H8 C8 1_555 1_555
O20 C8 1_555 1_555
Fe3_3 O4 1_555 1_555
Fe14_3 O8 1_555 1_555
O4 C2 1_555 1_555
O8 C4 1_555 1_555
C2 O3 1_555 1_555
H2 C2 1_555 1_555
C4 O7 1_555 1_555
H4 C4 1_555 1_555
O24 Fe3_3 1_555 1_555
Fe3_3 O9 1_555 1_555
O3 Fe12 1_555 1_555
O7 Fe12 1_555 1_555
O10 Fe14_4 1_555 1_555
H5 C5 1_555 1_555
Fe5 O13 1_555 1_555
Fe10 O13 1_555 1_555
O22 Fe5 1_555 1_555
O32 Fe5 1_555 1_555
C10 O22 1_555 1_555
H10 C10 1_555 1_555
O10 C5 1_555 1_555
Fe10 O22 1_555 1_555
Fe14_8 O32 1_555 1_555
O27 Fe14_6 1_555 1_555
Fe10 O34 1_555 1_555
O34 C12 1_555 1_555
C12 O32 1_555 1_555
H12 C12 1_555 1_555
Fe6 O31 1_555 1_555
O27_2 Fe4 1_555 1_555
O30 Fe4 1_555 1_555
O31 Fe4 1_555 1_555
O33 C12_2 1_555 1_555
C12_2 O31 1_555 1_555
H12_2 C12_2 1_555 1_555
Fe4_2 O8_2 1_555 1_555
O5_2 Fe7 1_555 1_555
O6_2 Fe13 1_555 1_555
O8_2 C4_2 1_555 1_555
O9_2 Fe7 1_555 1_555
O10_2 Fe4_2 1_555 1_555
O11_2 Fe7 1_555 1_555
O12_2 C6_2 1_555 1_555
C3_2 O5_2 1_555 1_555
H3_2 C3_2 1_555 1_555
C4_2 O26 1_555 1_555
H4_2 C4_2 1_555 1_555
C5_2 O9_2 1_555 1_555
H5_2 C5_2 1_555 1_555
C6_2 O11_2 1_555 1_555
H6_2 C6_2 1_555 1_555
Fe6 O14 1_555 1_555
O16_2 Fe10 1_555 1_555
O18_2 Fe10 1_555 1_555
O20_2 Fe13 1_555 1_555
O23 Fe6 1_555 1_555
O24_2 Fe13 1_555 1_555
O25_2 Fe10 1_555 1_555
O28_2 Fe13 1_555 1_555
O30 C11_2 1_555 1_555
C8_2 O18_2 1_555 1_555
H8_2 C8_2 1_555 1_555
C10_2 O23 1_555 1_555
H10_2 C10_2 1_555 1_555
C11_2 O28_2 1_555 1_555
H11_2 C11_2 1_555 1_555
Fe13 O9_2 1_555 1_555
Fe4_2 O11_2 1_555 1_555
O5_2 Fe12 1_555 1_555
O6_2 C3_2 1_555 1_555
O10_2 C5_2 1_555 1_555
O12_2 Fe12 1_555 1_555
Fe6 O18_2 1_555 1_555
Fe6 O25_2 1_555 1_555
Fe6 O28_2 1_555 1_555
O20_2 C8_2 1_555 1_555
O24_2 C10_2 1_555 1_555
O27 C4_3 1_555 1_555
C4_3 O25 1_555 1_555
H4_3 C4_3 1_555 1_555
O13 C1_2 1_555 1_555
O16 C1_2 1_555 1_555
C1_2 H1_2 1_555 1_555
O14 C7_2 1_555 1_555
C7_2 O16_2 1_555 1_555
H7_2 C7_2 1_555 1_555
O27_2 C4_4 1_555 1_555
C4_4 O25_2 1_555 1_555
H4_4 C4_4 1_555 1_555

#END
