
###############################################################################
#
# This file contains modified crystal structure data generated from the
# MOF subset of the Cambridge Structural Database (CSD) v543 
# hosted by the Cambridge Crystallographic Data Centre (CCDC).
#
# This work is licensed under the Creative Commons
# Attribution-NonCommercial-ShareAlike 4.0 International License.
# To view a copy of this license, visit
# http://creativecommons.org/licenses/by-nc-sa/4.0/
# or send a letter to
# Creative Commons, PO Box 1866, Mountain View, CA 94042, USA.
#
# CIF created using the CSD Python API on 29 September 2022
# The structure has been converted into the P1 space group
# The structure has a 3D framework
# The original CSD entry NIKYUC02 is in the monoclinic crystal system
# The framework has been calculated to contain at least 10.0% void space
# The void calculation uses a probe of radius 1.32A, grid spacing 0.4
#
###############################################################################

data_NIKYUC02
_chemical_formula_moiety         '(C24 H24 Fe20 O48)n'
_symmetry_cell_setting           triclinic
_symmetry_space_group_name_H-M   'P 1'
_symmetry_Int_Tables_number      1
_space_group_name_Hall           'P 1'
loop_
_symmetry_equiv_pos_site_id
_symmetry_equiv_pos_as_xyz
1 x,y,z
_cell_length_a                   11.5200(2)
_cell_length_b                   10.0853(2)
_cell_length_c                   18.6462(4)
_cell_angle_alpha                90
_cell_angle_beta                 126.6760(10)
_cell_angle_gamma                90
_cell_volume                     1737.48
loop_
_atom_site_label
_atom_site_type_symbol
_atom_site_fract_x
_atom_site_fract_y
_atom_site_fract_z
Fe14 Fe 0.0000 0.0000 0.0000
Fe14_2 Fe 0.0000 0.0000 1.0000
Fe14_3 Fe 0.0000 1.0000 0.0000
Fe14_4 Fe 0.0000 1.0000 1.0000
Fe1 Fe 0.37778(3) 0.07209(3) 0.133610(19)
Fe3 Fe 0.5000 0.0000 0.0000
O1 O 0.44848(16) 0.18812(15) 0.25048(9)
O2 O 0.56065(19) 0.04876(16) 0.36626(10)
O5 O 0.45839(16) 0.24946(15) 0.11240(9)
O6 O 0.49851(19) 0.20617(17) 0.01128(11)
O11 O 0.16706(15) 0.14972(15) 0.06733(10)
O12 O 0.21042(17) 0.36371(16) 0.10522(11)
C1 C 0.5132(3) 0.1589(2) 0.33234(15)
C3 C 0.4878(3) 0.2815(2) 0.05925(16)
C6 C 0.1295(3) 0.2690(2) 0.06394(16)
H1 H 0.526(2) 0.228(2) 0.3716(14)
H3 H 0.496(3) 0.377(3) 0.0550(17)
H6 H 0.032(3) 0.285(2) 0.0275(16)
Fe7 Fe 0.62222(3) 0.57209(3) 0.366390(19)
Fe9 Fe 0.43456(3) 0.37800(3) 0.194160(19)
Fe12 Fe 0.56544(3) 0.87800(3) 0.305840(19)
Fe13 Fe 0.5000 0.5000 0.5000
Fe14_5 Fe 1.0000 0.0000 0.0000
O15 O 0.55152(16) 0.68812(15) 0.24952(9)
O17 O 0.43935(19) 0.54876(16) 0.13374(10)
O19 O 0.41574(16) 0.47970(15) 0.28671(10)
O21 O 0.32426(18) 0.48144(19) 0.36340(11)
O26 O 0.65744(16) 0.41032(15) 0.30645(10)
O29 O 0.89025(18) 0.09854(17) 0.04217(12)
C7 C 0.4868(3) 0.6589(2) 0.16766(15)
C9 C 0.3157(3) 0.4631(3) 0.29525(16)
C11 C 0.7786(3) 0.0916(3) 0.03604(16)
H7 H 0.474(2) 0.728(2) 0.1284(14)
H9 H 0.215(3) 0.439(3) 0.2412(18)
H11 H 0.774(3) 0.138(3) 0.0759(19)
Fe2 Fe 0.43456(3) 0.12200(3) 0.694160(19)
Fe3_2 Fe 0.5000 0.0000 1.0000
Fe14_6 Fe 1.0000 0.0000 1.0000
O14 O 0.44848(16) 0.31188(15) 0.75048(9)
O18 O 0.41574(16) 0.02030(15) 0.78671(10)
O20 O 0.32426(18) 0.01856(19) 0.86340(11)
O23 O 0.45839(16) 0.25054(15) 0.61240(9)
O25 O 0.65744(16) 0.08968(15) 0.80645(10)
O28 O 0.66618(16) 0.02478(16) 0.97905(10)
O33 O 0.21042(17) 0.13629(16) 0.60522(11)
C8 C 0.3157(3) 0.0369(3) 0.79525(16)
H8 H 0.215(3) 0.061(3) 0.7412(18)
Fe3_3 Fe 0.5000 1.0000 0.0000
O3 O 0.58426(16) 0.97970(15) 0.21329(10)
O4 O 0.67574(18) 0.98144(19) 0.13660(11)
O7 O 0.34256(16) 0.91032(15) 0.19355(10)
O8 O 0.10437(18) 0.88144(18) 0.11594(11)
O9 O 0.33382(16) 0.97522(16) 0.02095(10)
C2 C 0.6843(3) 0.9631(3) 0.20475(16)
C4 C 0.2300(3) 0.8569(3) 0.17811(16)
H2 H 0.785(3) 0.939(3) 0.2588(18)
H4 H 0.245(2) 0.782(2) 0.2152(14)
Fe14_7 Fe 1.0000 1.0000 0.0000
Fe3_4 Fe 0.5000 1.0000 1.0000
O10 O 0.10975(18) 0.90146(17) 0.95783(12)
C5 C 0.2214(3) 0.9084(3) 0.96396(16)
H5 H 0.226(3) 0.862(3) 0.9241(19)
Fe5 Fe 0.62222(3) 0.92791(3) 0.866390(19)
Fe10 Fe 0.56544(3) 0.62200(3) 0.805840(19)
Fe14_8 Fe 1.0000 1.0000 1.0000
O13 O 0.55152(16) 0.81188(15) 0.74952(9)
O16 O 0.43935(19) 0.95124(16) 0.63374(10)
O22 O 0.54161(16) 0.75054(15) 0.88760(9)
O24 O 0.50149(19) 0.79383(17) 0.98872(11)
O32 O 0.83294(15) 0.85028(15) 0.93267(10)
C10 C 0.5122(3) 0.7185(2) 0.94075(16)
H10 H 0.504(3) 0.623(3) 0.9450(17)
O27 O 0.89563(18) 0.11856(18) 0.88406(11)
O34 O 0.78958(17) 0.63629(16) 0.89478(11)
C12 C 0.8705(3) 0.7310(2) 0.93606(16)
H12 H 0.968(3) 0.715(2) 0.9725(16)
Fe4 Fe -0.0000 0.5000 0.5000
Fe6 Fe 0.37778(3) 0.42791(3) 0.633610(19)
O27_2 O 0.10437(18) 0.61856(18) 0.61594(11)
O30 O 0.10975(18) 0.59854(17) 0.45783(12)
O31 O 0.16706(15) 0.35028(15) 0.56733(10)
C12_2 C 0.1295(3) 0.2310(2) 0.56394(16)
H12_2 H 0.032(3) 0.215(2) 0.5275(16)
Fe4_2 Fe 1.0000 0.5000 0.5000
O5_2 O 0.54161(16) 0.74946(15) 0.38760(9)
O6_2 O 0.50149(19) 0.70617(17) 0.48872(11)
O8_2 O 0.89563(18) 0.38144(18) 0.38406(11)
O9_2 O 0.66618(16) 0.47522(16) 0.47905(10)
O10_2 O 0.89025(18) 0.40146(17) 0.54217(12)
O11_2 O 0.83294(15) 0.64972(15) 0.43267(10)
O12_2 O 0.78958(17) 0.86371(16) 0.39478(11)
C3_2 C 0.5122(3) 0.7815(2) 0.44075(16)
C4_2 C 0.7700(3) 0.3569(3) 0.32189(16)
C5_2 C 0.7786(3) 0.4084(3) 0.53604(16)
C6_2 C 0.8705(3) 0.7690(2) 0.43606(16)
H3_2 H 0.504(3) 0.877(3) 0.4450(17)
H4_2 H 0.755(2) 0.282(2) 0.2848(14)
H5_2 H 0.774(3) 0.362(3) 0.5759(19)
H6_2 H 0.968(3) 0.785(2) 0.4725(16)
O16_2 O 0.56065(19) 0.45124(16) 0.86626(10)
O18_2 O 0.58426(16) 0.52030(15) 0.71329(10)
O20_2 O 0.67574(18) 0.51856(19) 0.63660(11)
O24_2 O 0.49851(19) 0.29383(17) 0.51128(11)
O25_2 O 0.34256(16) 0.58968(15) 0.69355(10)
O28_2 O 0.33382(16) 0.52478(16) 0.52095(10)
C8_2 C 0.6843(3) 0.5369(3) 0.70475(16)
C10_2 C 0.4878(3) 0.2185(2) 0.55925(16)
C11_2 C 0.2214(3) 0.5916(3) 0.46396(16)
H8_2 H 0.785(3) 0.561(3) 0.7588(18)
H10_2 H 0.496(3) 0.123(3) 0.5550(17)
H11_2 H 0.226(3) 0.638(3) 0.4241(19)
C4_3 C 0.7700(3) 0.1431(3) 0.82189(16)
H4_3 H 0.755(2) 0.218(2) 0.7848(14)
C1_2 C 0.4868(3) 0.8411(2) 0.66766(15)
H1_2 H 0.474(2) 0.772(2) 0.6284(14)
C7_2 C 0.5132(3) 0.3411(2) 0.83234(15)
H7_2 H 0.526(2) 0.272(2) 0.8716(14)
C4_4 C 0.2300(3) 0.6431(3) 0.67811(16)
H4_4 H 0.245(2) 0.718(2) 0.7152(14)
loop_
_geom_bond_atom_site_label_1
_geom_bond_atom_site_label_2
_geom_bond_site_symmetry_1
_geom_bond_site_symmetry_2
Fe1 O1 1_555 1_555
O1 C1 1_555 1_555
O2 C1 1_555 1_555
O5 Fe1 1_555 1_555
O6 Fe3 1_555 1_555
O11 Fe1 1_555 1_555
O12 C6 1_555 1_555
C1 H1 1_555 1_555
C3 O5 1_555 1_555
C6 O11 1_555 1_555
H3 C3 1_555 1_555
H6 C6 1_555 1_555
Fe7 O15 1_555 1_555
Fe9 O1 1_555 1_555
Fe12 O15 1_555 1_555
Fe13 O21 1_555 1_555
Fe14_5 O29 1_555 1_555
O15 C7 1_555 1_555
O17 Fe9 1_555 1_555
O19 Fe7 1_555 1_555
O21 C9 1_555 1_555
O26 Fe7 1_555 1_555
O29 C11 1_555 1_555
C7 O17 1_555 1_555
C9 O19 1_555 1_555
H7 C7 1_555 1_555
H9 C9 1_555 1_555
H11 C11 1_555 1_555
Fe14 O11 1_555 1_555
O5 Fe9 1_555 1_555
O6 C3 1_555 1_555
O12 Fe9 1_555 1_555
Fe9 O19 1_555 1_555
Fe9 O26 1_555 1_555
Fe2 O14 1_555 1_555
O18 Fe2 1_555 1_555
O20 Fe3_2 1_555 1_555
O23 Fe2 1_555 1_555
O25 Fe2 1_555 1_555
O28 Fe3_2 1_555 1_555
O33 Fe2 1_555 1_555
C8 O18 1_555 1_555
H8 C8 1_555 1_555
O20 C8 1_555 1_555
Fe3_3 O4 1_555 1_555
Fe14_3 O8 1_555 1_555
O4 C2 1_555 1_555
O8 C4 1_555 1_555
C2 O3 1_555 1_555
C4 O7 1_555 1_555
H2 C2 1_555 1_555
H4 C4 1_555 1_555
Fe3_3 O9 1_555 1_555
O3 Fe12 1_555 1_555
O7 Fe12 1_555 1_555
O10 Fe14_4 1_555 1_555
H5 C5 1_555 1_555
Fe5 O13 1_555 1_555
Fe10 O13 1_555 1_555
O22 Fe5 1_555 1_555
O24 Fe3_4 1_555 1_555
O32 Fe5 1_555 1_555
C10 O22 1_555 1_555
H10 C10 1_555 1_555
O10 C5 1_555 1_555
Fe10 O22 1_555 1_555
Fe14_8 O32 1_555 1_555
O24 C10 1_555 1_555
O27 Fe14_6 1_555 1_555
Fe10 O34 1_555 1_555
O34 C12 1_555 1_555
C12 O32 1_555 1_555
H12 C12 1_555 1_555
Fe6 O31 1_555 1_555
O27_2 Fe4 1_555 1_555
O30 Fe4 1_555 1_555
O31 Fe4 1_555 1_555
O33 C12_2 1_555 1_555
C12_2 O31 1_555 1_555
H12_2 C12_2 1_555 1_555
Fe4_2 O8_2 1_555 1_555
O5_2 Fe7 1_555 1_555
O6_2 Fe13 1_555 1_555
O8_2 C4_2 1_555 1_555
O9_2 Fe7 1_555 1_555
O10_2 Fe4_2 1_555 1_555
O11_2 Fe7 1_555 1_555
O12_2 C6_2 1_555 1_555
C3_2 O5_2 1_555 1_555
C4_2 O26 1_555 1_555
C5_2 O9_2 1_555 1_555
C6_2 O11_2 1_555 1_555
H3_2 C3_2 1_555 1_555
H4_2 C4_2 1_555 1_555
H5_2 C5_2 1_555 1_555
H6_2 C6_2 1_555 1_555
Fe6 O14 1_555 1_555
O16_2 Fe10 1_555 1_555
O18_2 Fe10 1_555 1_555
O20_2 Fe13 1_555 1_555
O23 Fe6 1_555 1_555
O24_2 Fe13 1_555 1_555
O25_2 Fe10 1_555 1_555
O28_2 Fe13 1_555 1_555
O30 C11_2 1_555 1_555
C8_2 O18_2 1_555 1_555
C10_2 O23 1_555 1_555
C11_2 O28_2 1_555 1_555
H8_2 C8_2 1_555 1_555
H10_2 C10_2 1_555 1_555
H11_2 C11_2 1_555 1_555
Fe13 O9_2 1_555 1_555
Fe4_2 O11_2 1_555 1_555
O5_2 Fe12 1_555 1_555
O6_2 C3_2 1_555 1_555
O10_2 C5_2 1_555 1_555
O12_2 Fe12 1_555 1_555
Fe6 O18_2 1_555 1_555
Fe6 O25_2 1_555 1_555
Fe6 O28_2 1_555 1_555
O20_2 C8_2 1_555 1_555
O24_2 C10_2 1_555 1_555
O27 C4_3 1_555 1_555
C4_3 O25 1_555 1_555
H4_3 C4_3 1_555 1_555
O13 C1_2 1_555 1_555
O16 C1_2 1_555 1_555
C1_2 H1_2 1_555 1_555
O14 C7_2 1_555 1_555
C7_2 O16_2 1_555 1_555
H7_2 C7_2 1_555 1_555
O27_2 C4_4 1_555 1_555
C4_4 O25_2 1_555 1_555
H4_4 C4_4 1_555 1_555

#END
