
###############################################################################
#
# This file contains modified crystal structure data generated from the
# MOF subset of the Cambridge Structural Database (CSD) v543 
# hosted by the Cambridge Crystallographic Data Centre (CCDC).
#
# This work is licensed under the Creative Commons
# Attribution-NonCommercial-ShareAlike 4.0 International License.
# To view a copy of this license, visit
# http://creativecommons.org/licenses/by-nc-sa/4.0/
# or send a letter to
# Creative Commons, PO Box 1866, Mountain View, CA 94042, USA.
#
# CIF created using the CSD Python API on 29 September 2022
# The structure has been converted into the P1 space group
# The structure has a 3D framework
# The original CSD entry NIKYOW01 is in the monoclinic crystal system
# The framework has been calculated to contain at least 10.0% void space
# The void calculation uses a probe of radius 1.32A, grid spacing 0.4
#
###############################################################################

data_NIKYOW01
_chemical_formula_moiety         '(C24 H24 Fe20 O48)n'
_symmetry_cell_setting           triclinic
_symmetry_space_group_name_H-M   'P 1'
_symmetry_Int_Tables_number      1
_space_group_name_Hall           'P 1'
loop_
_symmetry_equiv_pos_site_id
_symmetry_equiv_pos_as_xyz
1 x,y,z
_cell_length_a                   11.3577(2)
_cell_length_b                   9.8862(2)
_cell_length_c                   18.2191(5)
_cell_angle_alpha                90
_cell_angle_beta                 127.3020(10)
_cell_angle_gamma                90
_cell_volume                     1627.27
loop_
_atom_site_label
_atom_site_type_symbol
_atom_site_fract_x
_atom_site_fract_y
_atom_site_fract_z
Fe14 Fe -0.0000 0.0000 0.0000
Fe14_2 Fe -0.0000 0.0000 1.0000
Fe14_3 Fe -0.0000 1.0000 0.0000
Fe14_4 Fe 0.0000 1.0000 1.0000
Fe1 Fe 0.37704(4) 0.08141(3) 0.13244(3)
Fe3 Fe 0.5000 0.0000 0.0000
O1 O 0.4381(2) 0.20391(16) 0.24664(12)
O2 O 0.5591(2) 0.06948(17) 0.37133(13)
O4 O 0.6871(2) 0.00625(19) 0.14234(14)
O5 O 0.4540(2) 0.26050(16) 0.10581(12)
O11 O 0.16125(19) 0.16061(17) 0.05757(12)
O12 O 0.1979(2) 0.38296(17) 0.08666(14)
C1 C 0.5032(3) 0.1785(3) 0.33185(19)
H1 H 0.5094 0.2505 0.3686
C3 C 0.4701(3) 0.2902(3) 0.0446(2)
H3 H 0.4796 0.3834 0.0363
C6 C 0.1185(3) 0.2836(3) 0.04512(19)
Fe7 Fe 0.62296(4) 0.58141(3) 0.36756(3)
Fe9 Fe 0.42558(4) 0.39455(3) 0.18610(3)
Fe12 Fe 0.57442(4) 0.89455(3) 0.31390(3)
Fe13 Fe 0.5000 0.5000 0.5000
Fe14_5 Fe 1.0000 0.0000 0.0000
O15 O 0.5619(2) 0.70391(16) 0.25336(12)
O17 O 0.4409(2) 0.56948(17) 0.12867(13)
O19 O 0.4061(2) 0.49893(16) 0.27977(13)
O21 O 0.3129(2) 0.50625(19) 0.35766(14)
O26 O 0.65394(19) 0.42001(16) 0.30153(12)
O29 O 0.8853(2) 0.11882(18) 0.03452(14)
C7 C 0.4968(3) 0.6785(3) 0.16815(19)
H7 H 0.4906 0.7505 0.1314
C9 C 0.3013(3) 0.4925(3) 0.2862(2)
H9 H 0.2050 0.4755 0.2310
C11 C 0.7735(3) 0.1095(3) 0.03012(19)
H11 H 0.7672 0.1668 0.0694
Fe2 Fe 0.42558(4) 0.10545(3) 0.68610(3)
Fe3_2 Fe 0.5000 0.0000 1.0000
O6 O 0.4747(2) 0.20904(18) 0.99461(13)
H6 H 0.0158 0.3002 0.9996
Fe14_6 Fe 1.0000 0.0000 1.0000
O14 O 0.4381(2) 0.29609(16) 0.74664(12)
O18 O 0.4061(2) 0.00107(16) 0.77977(13)
O23 O 0.4540(2) 0.23950(16) 0.60581(12)
O25 O 0.65394(19) 0.07999(16) 0.80153(12)
O28 O 0.6644(2) 0.02930(17) 0.97731(13)
O33 O 0.1979(2) 0.11704(17) 0.58666(14)
C8 C 0.3013(3) 0.0075(3) 0.7862(2)
H8 H 0.2050 0.0245 0.7310
Fe3_3 Fe 0.5000 1.0000 0.0000
O3 O 0.5939(2) 0.99893(16) 0.22023(13)
O7 O 0.34606(19) 0.92001(16) 0.19847(12)
O8 O 0.1033(2) 0.90465(19) 0.12788(14)
O9 O 0.3356(2) 0.97070(17) 0.02269(13)
C2 C 0.6987(3) 0.9925(3) 0.2138(2)
H2 H 0.7950 0.9755 0.2690
C4 C 0.2332(3) 0.8798(3) 0.1914(2)
H4 H 0.2513 0.8251 0.2402
Fe14_7 Fe 1.0000 1.0000 0.0000
O24 O 0.5253(2) 0.79096(18) 0.00539(13)
Fe3_4 Fe 0.5000 1.0000 1.0000
O10 O 0.1147(2) 0.88118(18) 0.96548(14)
C5 C 0.2265(3) 0.8905(3) 0.96988(19)
H5 H 0.2328 0.8332 0.9306
Fe5 Fe 0.62296(4) 0.91859(3) 0.86756(3)
Fe10 Fe 0.57442(4) 0.60545(3) 0.81390(3)
Fe14_8 Fe 1.0000 1.0000 1.0000
O13 O 0.5619(2) 0.79609(16) 0.75336(12)
O16 O 0.4409(2) 0.93052(17) 0.62867(13)
O20 O 0.3129(2) 0.99375(19) 0.85766(14)
O22 O 0.5460(2) 0.73950(16) 0.89419(12)
O32 O 0.83875(19) 0.83939(17) 0.94243(12)
C10 C 0.5299(3) 0.7098(3) 0.9554(2)
H10 H 0.5204 0.6166 0.9637
O27 O 0.8967(2) 0.09535(19) 0.87212(14)
H12 H 0.9842 0.6998 0.0004
O34 O 0.8021(2) 0.61704(17) 0.91334(14)
C12 C 0.8815(3) 0.7164(3) 0.95488(19)
Fe4 Fe 0.0000 0.5000 0.5000
Fe6 Fe 0.37704(4) 0.41859(3) 0.63244(3)
O27_2 O 0.1033(2) 0.59535(19) 0.62788(14)
O30 O 0.1147(2) 0.61882(18) 0.46548(14)
O31 O 0.16125(19) 0.33939(17) 0.55757(12)
C12_2 C 0.1185(3) 0.2164(3) 0.54512(19)
H12_2 H 0.0158 0.1998 0.4996
Fe4_2 Fe 1.0000 0.5000 0.5000
O5_2 O 0.5460(2) 0.76050(16) 0.39419(12)
O6_2 O 0.5253(2) 0.70904(18) 0.50539(13)
O8_2 O 0.8967(2) 0.40465(19) 0.37212(14)
O9_2 O 0.6644(2) 0.47070(17) 0.47731(13)
O10_2 O 0.8853(2) 0.38118(18) 0.53452(14)
O11_2 O 0.83875(19) 0.66061(17) 0.44243(12)
O12_2 O 0.8021(2) 0.88296(17) 0.41334(14)
C3_2 C 0.5299(3) 0.7902(3) 0.4554(2)
H3_2 H 0.5204 0.8834 0.4637
C4_2 C 0.7668(3) 0.3798(3) 0.3086(2)
H4_2 H 0.7487 0.3251 0.2598
C5_2 C 0.7735(3) 0.3905(3) 0.53012(19)
H5_2 H 0.7672 0.3332 0.5694
C6_2 C 0.8815(3) 0.7836(3) 0.45488(19)
H6_2 H 0.9842 0.8002 0.5004
O16_2 O 0.5591(2) 0.43052(17) 0.87133(13)
O18_2 O 0.5939(2) 0.50107(16) 0.72023(13)
O20_2 O 0.6871(2) 0.49375(19) 0.64234(14)
O24_2 O 0.4747(2) 0.29096(18) 0.49461(13)
O25_2 O 0.34606(19) 0.57999(16) 0.69847(12)
O28_2 O 0.3356(2) 0.52930(17) 0.52269(13)
C8_2 C 0.6987(3) 0.5075(3) 0.7138(2)
H8_2 H 0.7950 0.5245 0.7690
C10_2 C 0.4701(3) 0.2098(3) 0.5446(2)
H10_2 H 0.4796 0.1166 0.5363
C11_2 C 0.2265(3) 0.6095(3) 0.46988(19)
H11_2 H 0.2328 0.6668 0.4306
C4_3 C 0.7668(3) 0.1202(3) 0.8086(2)
H4_3 H 0.7487 0.1749 0.7598
C1_2 C 0.4968(3) 0.8215(3) 0.66815(19)
H1_2 H 0.4906 0.7495 0.6314
C7_2 C 0.5032(3) 0.3215(3) 0.83185(19)
H7_2 H 0.5094 0.2495 0.8686
C4_4 C 0.2332(3) 0.6202(3) 0.6914(2)
H4_4 H 0.2513 0.6749 0.7402
loop_
_geom_bond_atom_site_label_1
_geom_bond_atom_site_label_2
_geom_bond_site_symmetry_1
_geom_bond_site_symmetry_2
Fe1 O1 1_555 1_555
Fe3 O4 1_555 1_555
O1 C1 1_555 1_555
O2 C1 1_555 1_555
O5 Fe1 1_555 1_555
O11 Fe1 1_555 1_555
O12 C6 1_555 1_555
C1 H1 1_555 1_555
C3 O5 1_555 1_555
H3 C3 1_555 1_555
C6 O11 1_555 1_555
Fe7 O15 1_555 1_555
Fe9 O1 1_555 1_555
Fe12 O15 1_555 1_555
Fe13 O21 1_555 1_555
Fe14_5 O29 1_555 1_555
O15 C7 1_555 1_555
O17 Fe9 1_555 1_555
O19 Fe7 1_555 1_555
O21 C9 1_555 1_555
O26 Fe7 1_555 1_555
O29 C11 1_555 1_555
C7 O17 1_555 1_555
H7 C7 1_555 1_555
C9 O19 1_555 1_555
H9 C9 1_555 1_555
H11 C11 1_555 1_555
Fe14 O11 1_555 1_555
O5 Fe9 1_555 1_555
O12 Fe9 1_555 1_555
Fe9 O19 1_555 1_555
Fe9 O26 1_555 1_555
Fe2 O14 1_555 1_555
O6 Fe3_2 1_555 1_555
O18 Fe2 1_555 1_555
O23 Fe2 1_555 1_555
O25 Fe2 1_555 1_555
O28 Fe3_2 1_555 1_555
O33 Fe2 1_555 1_555
C8 O18 1_555 1_555
H8 C8 1_555 1_555
Fe14_3 O8 1_555 1_555
O8 C4 1_555 1_555
C2 O3 1_555 1_555
H2 C2 1_555 1_555
C4 O7 1_555 1_555
H4 C4 1_555 1_555
O24 Fe3_3 1_555 1_555
Fe3_3 O9 1_555 1_555
O3 Fe12 1_555 1_555
O7 Fe12 1_555 1_555
O10 Fe14_4 1_555 1_555
H5 C5 1_555 1_555
Fe5 O13 1_555 1_555
Fe10 O13 1_555 1_555
O20 Fe3_4 1_555 1_555
O22 Fe5 1_555 1_555
O32 Fe5 1_555 1_555
C10 O22 1_555 1_555
H10 C10 1_555 1_555
O10 C5 1_555 1_555
Fe10 O22 1_555 1_555
Fe14_8 O32 1_555 1_555
O27 Fe14_6 1_555 1_555
Fe10 O34 1_555 1_555
O34 C12 1_555 1_555
C12 O32 1_555 1_555
Fe6 O31 1_555 1_555
O27_2 Fe4 1_555 1_555
O30 Fe4 1_555 1_555
O31 Fe4 1_555 1_555
O33 C12_2 1_555 1_555
C12_2 O31 1_555 1_555
H12_2 C12_2 1_555 1_555
Fe4_2 O8_2 1_555 1_555
O5_2 Fe7 1_555 1_555
O6_2 Fe13 1_555 1_555
O8_2 C4_2 1_555 1_555
O9_2 Fe7 1_555 1_555
O10_2 Fe4_2 1_555 1_555
O11_2 Fe7 1_555 1_555
O12_2 C6_2 1_555 1_555
C3_2 O5_2 1_555 1_555
H3_2 C3_2 1_555 1_555
C4_2 O26 1_555 1_555
H4_2 C4_2 1_555 1_555
C5_2 O9_2 1_555 1_555
H5_2 C5_2 1_555 1_555
C6_2 O11_2 1_555 1_555
H6_2 C6_2 1_555 1_555
Fe6 O14 1_555 1_555
O16_2 Fe10 1_555 1_555
O18_2 Fe10 1_555 1_555
O20_2 Fe13 1_555 1_555
O23 Fe6 1_555 1_555
O24_2 Fe13 1_555 1_555
O25_2 Fe10 1_555 1_555
O28_2 Fe13 1_555 1_555
O30 C11_2 1_555 1_555
C8_2 O18_2 1_555 1_555
H8_2 C8_2 1_555 1_555
C10_2 O23 1_555 1_555
H10_2 C10_2 1_555 1_555
C11_2 O28_2 1_555 1_555
H11_2 C11_2 1_555 1_555
Fe13 O9_2 1_555 1_555
Fe4_2 O11_2 1_555 1_555
O5_2 Fe12 1_555 1_555
O6_2 C3_2 1_555 1_555
O10_2 C5_2 1_555 1_555
O12_2 Fe12 1_555 1_555
Fe6 O18_2 1_555 1_555
Fe6 O25_2 1_555 1_555
Fe6 O28_2 1_555 1_555
O20_2 C8_2 1_555 1_555
O24_2 C10_2 1_555 1_555
O27 C4_3 1_555 1_555
C4_3 O25 1_555 1_555
H4_3 C4_3 1_555 1_555
O13 C1_2 1_555 1_555
O16 C1_2 1_555 1_555
C1_2 H1_2 1_555 1_555
O14 C7_2 1_555 1_555
C7_2 O16_2 1_555 1_555
H7_2 C7_2 1_555 1_555
O27_2 C4_4 1_555 1_555
C4_4 O25_2 1_555 1_555
H4_4 C4_4 1_555 1_555

#END
