
###############################################################################
#
# This file contains modified crystal structure data generated from the
# MOF subset of the Cambridge Structural Database (CSD) v543 
# hosted by the Cambridge Crystallographic Data Centre (CCDC).
#
# This work is licensed under the Creative Commons
# Attribution-NonCommercial-ShareAlike 4.0 International License.
# To view a copy of this license, visit
# http://creativecommons.org/licenses/by-nc-sa/4.0/
# or send a letter to
# Creative Commons, PO Box 1866, Mountain View, CA 94042, USA.
#
# CIF created using the CSD Python API on 29 September 2022
# The structure has been converted into the P1 space group
# The structure has a 3D framework
# The original CSD entry NIKZEN01 is in the monoclinic crystal system
# The framework has been calculated to contain at least 10.0% void space
# The void calculation uses a probe of radius 1.32A, grid spacing 0.4
#
###############################################################################

data_NIKZEN01
_chemical_formula_moiety         '(C24 H24 Fe20 O48)n'
_symmetry_cell_setting           triclinic
_symmetry_space_group_name_H-M   'P 1'
_symmetry_Int_Tables_number      1
_space_group_name_Hall           'P 1'
loop_
_symmetry_equiv_pos_site_id
_symmetry_equiv_pos_as_xyz
1 x,y,z
_cell_length_a                   11.4443(2)
_cell_length_b                   9.9369(2)
_cell_length_c                   18.4853(4)
_cell_angle_alpha                90
_cell_angle_beta                 126.7610(10)
_cell_angle_gamma                90
_cell_volume                     1684.13
loop_
_atom_site_label
_atom_site_type_symbol
_atom_site_fract_x
_atom_site_fract_y
_atom_site_fract_z
Fe14 Fe 0.0000 0.0000 0.0000
Fe14_2 Fe -0.0000 0.0000 1.0000
Fe14_3 Fe 0.0000 1.0000 0.0000
Fe14_4 Fe -0.0000 1.0000 1.0000
Fe1 Fe 0.37657(3) 0.07555(3) 0.13294(2)
Fe2 Fe 0.43205(3) 0.38470(3) 0.19201(2)
Fe3 Fe 0.5000 0.0000 0.0000
O1 O 0.44304(17) 0.19412(15) 0.24897(11)
O2 O 0.43788(18) 0.55665(16) 0.13127(11)
O5 O 0.45429(17) 0.25465(15) 0.10871(11)
O6 O 0.48368(19) 0.20874(17) 0.00185(12)
O11 O 0.16472(16) 0.15377(15) 0.06480(11)
O12 O 0.20506(17) 0.37319(15) 0.10055(12)
C1 C 0.5078(3) 0.1664(2) 0.33200(17)
H1 H 0.5152 0.2367 0.3694
C3 C 0.4769(3) 0.2867(2) 0.05145(17)
H3 H 0.4899 0.3797 0.0462
C6 C 0.1247(3) 0.2759(2) 0.05930(17)
H6 H 0.0229 0.2934 0.0195
Fe5 Fe 0.62343(3) 0.57555(3) 0.36706(2)
Fe9 Fe 0.56795(3) 0.88470(3) 0.30799(2)
Fe13 Fe 0.5000 0.5000 0.5000
Fe14_5 Fe 1.0000 0.0000 0.0000
O13 O 0.55696(17) 0.69412(15) 0.25103(11)
O16 O 0.56212(18) 0.05665(16) 0.36873(11)
O18 O 0.41303(17) 0.48761(15) 0.28518(11)
O21 O 0.31856(19) 0.49450(18) 0.36113(12)
O25 O 0.65670(17) 0.41278(15) 0.30530(11)
O30 O 0.88927(18) 0.10659(17) 0.04051(13)
C7 C 0.4922(3) 0.6664(2) 0.16800(17)
H7 H 0.4848 0.7367 0.1306
C8 C 0.3095(3) 0.4768(3) 0.29221(18)
H8 H 0.2164 0.4529 0.2392
C11 C 0.7754(3) 0.1022(2) 0.03332(18)
H11 H 0.7688 0.1586 0.0723
Fe3_2 Fe 0.5000 0.0000 1.0000
Fe10 Fe 0.43205(3) 0.11530(3) 0.69201(2)
Fe14_6 Fe 1.0000 0.0000 1.0000
O15 O 0.44304(17) 0.30588(15) 0.74897(11)
O19 O 0.41303(17) 0.01239(15) 0.78518(11)
O20 O 0.31856(19) 0.00550(18) 0.86113(12)
O23 O 0.45429(17) 0.24535(15) 0.60871(11)
O26 O 0.65670(17) 0.08722(15) 0.80530(11)
O28 O 0.66429(17) 0.02794(16) 0.97756(11)
O34 O 0.20506(17) 0.12681(15) 0.60055(12)
C9 C 0.3095(3) 0.0232(3) 0.79221(18)
H9 H 0.2164 0.0471 0.7392
Fe3_3 Fe 0.5000 1.0000 0.0000
O3 O 0.58697(17) 0.98761(15) 0.21482(11)
O4 O 0.68144(19) 0.99450(18) 0.13887(12)
O7 O 0.34330(17) 0.91278(15) 0.19470(11)
O8 O 0.10290(18) 0.88399(17) 0.11842(13)
O9 O 0.33571(17) 0.97206(16) 0.02244(11)
C2 C 0.6905(3) 0.9768(3) 0.20779(18)
H2 H 0.7836 0.9529 0.2608
C4 C 0.2305(3) 0.8606(2) 0.18176(17)
H4 H 0.2466 0.7973 0.2254
Fe14_7 Fe 1.0000 1.0000 0.0000
Fe3_4 Fe 0.5000 1.0000 1.0000
O10 O 0.11073(18) 0.89341(17) 0.95949(13)
C5 C 0.2246(3) 0.8978(2) 0.96668(18)
H5 H 0.2312 0.8414 0.9277
Fe6 Fe 0.62343(3) 0.92445(3) 0.86706(2)
Fe11 Fe 0.56795(3) 0.61530(3) 0.80799(2)
Fe14_8 Fe 1.0000 1.0000 1.0000
O14 O 0.55696(17) 0.80588(15) 0.75103(11)
O17 O 0.43788(18) 0.94335(16) 0.63127(11)
O22 O 0.54571(17) 0.74535(15) 0.89129(11)
O24 O 0.51632(19) 0.79126(17) 0.99815(12)
O32 O 0.83528(16) 0.84623(15) 0.93520(11)
C10 C 0.5231(3) 0.7133(2) 0.94855(17)
H10 H 0.5101 0.6203 0.9538
O27 O 0.89710(18) 0.11601(17) 0.88158(13)
O33 O 0.79494(17) 0.62681(15) 0.89945(12)
C12 C 0.8753(3) 0.7241(2) 0.94070(17)
H12 H 0.9771 0.7066 0.9805
Fe4 Fe -0.0000 0.5000 0.5000
Fe7 Fe 0.37657(3) 0.42445(3) 0.63294(2)
O27_2 O 0.10290(18) 0.61601(17) 0.61842(13)
O29 O 0.11073(18) 0.60659(17) 0.45949(13)
O31 O 0.16472(16) 0.34623(15) 0.56480(11)
C12_2 C 0.1247(3) 0.2241(2) 0.55930(17)
H12_2 H 0.0229 0.2066 0.5195
Fe4_2 Fe 1.0000 0.5000 0.5000
O5_2 O 0.54571(17) 0.75465(15) 0.39129(11)
O6_2 O 0.51632(19) 0.70874(17) 0.49815(12)
O8_2 O 0.89710(18) 0.38399(17) 0.38158(13)
O9_2 O 0.66429(17) 0.47206(16) 0.47756(11)
O10_2 O 0.88927(18) 0.39341(17) 0.54051(13)
O11_2 O 0.83528(16) 0.65377(15) 0.43520(11)
O12_2 O 0.79494(17) 0.87319(15) 0.39945(12)
C3_2 C 0.5231(3) 0.7867(2) 0.44855(17)
H3_2 H 0.5101 0.8797 0.4538
C4_2 C 0.7695(3) 0.3606(2) 0.31824(17)
H4_2 H 0.7534 0.2973 0.2746
C5_2 C 0.7754(3) 0.3978(2) 0.53332(18)
H5_2 H 0.7688 0.3414 0.5723
C6_2 C 0.8753(3) 0.7759(2) 0.44070(17)
H6_2 H 0.9771 0.7934 0.4805
O17_2 O 0.56212(18) 0.44335(16) 0.86873(11)
O19_2 O 0.58697(17) 0.51239(15) 0.71482(11)
O20_2 O 0.68144(19) 0.50550(18) 0.63887(12)
O24_2 O 0.48368(19) 0.29126(17) 0.50185(12)
O26_2 O 0.34330(17) 0.58722(15) 0.69470(11)
O28_2 O 0.33571(17) 0.52794(16) 0.52244(11)
C9_2 C 0.6905(3) 0.5232(3) 0.70779(18)
H9_2 H 0.7836 0.5471 0.7608
C10_2 C 0.4769(3) 0.2133(2) 0.55145(17)
H10_2 H 0.4899 0.1203 0.5462
C11_2 C 0.2246(3) 0.6022(2) 0.46668(18)
H11_2 H 0.2312 0.6586 0.4277
C4_3 C 0.7695(3) 0.1394(2) 0.81824(17)
H4_3 H 0.7534 0.2027 0.7746
C1_2 C 0.4922(3) 0.8336(2) 0.66800(17)
H1_2 H 0.4848 0.7633 0.6306
C7_2 C 0.5078(3) 0.3336(2) 0.83200(17)
H7_2 H 0.5152 0.2633 0.8694
C4_4 C 0.2305(3) 0.6394(2) 0.68176(17)
H4_4 H 0.2466 0.7027 0.7254
loop_
_geom_bond_atom_site_label_1
_geom_bond_atom_site_label_2
_geom_bond_site_symmetry_1
_geom_bond_site_symmetry_2
Fe1 O1 1_555 1_555
Fe2 O1 1_555 1_555
O1 C1 1_555 1_555
O2 Fe2 1_555 1_555
O5 Fe1 1_555 1_555
O6 Fe3 1_555 1_555
O11 Fe1 1_555 1_555
O12 Fe2 1_555 1_555
C1 H1 1_555 1_555
C3 O5 1_555 1_555
H3 C3 1_555 1_555
C6 O11 1_555 1_555
H6 C6 1_555 1_555
Fe5 O13 1_555 1_555
Fe9 O13 1_555 1_555
Fe13 O21 1_555 1_555
Fe14_5 O30 1_555 1_555
O13 C7 1_555 1_555
O16 C1 1_555 1_555
O18 Fe2 1_555 1_555
O21 C8 1_555 1_555
O25 Fe2 1_555 1_555
O30 C11 1_555 1_555
C7 O2 1_555 1_555
H7 C7 1_555 1_555
C8 O18 1_555 1_555
H8 C8 1_555 1_555
H11 C11 1_555 1_555
Fe2 O5 1_555 1_555
Fe14 O11 1_555 1_555
O6 C3 1_555 1_555
O12 C6 1_555 1_555
Fe5 O18 1_555 1_555
Fe5 O25 1_555 1_555
Fe10 O15 1_555 1_555
O20 Fe3_2 1_555 1_555
O23 Fe10 1_555 1_555
O28 Fe3_2 1_555 1_555
O34 Fe10 1_555 1_555
C9 O19 1_555 1_555
H9 C9 1_555 1_555
Fe10 O19 1_555 1_555
Fe10 O26 1_555 1_555
O20 C9 1_555 1_555
Fe3_3 O4 1_555 1_555
Fe14_3 O8 1_555 1_555
O4 C2 1_555 1_555
O8 C4 1_555 1_555
C2 O3 1_555 1_555
H2 C2 1_555 1_555
C4 O7 1_555 1_555
H4 C4 1_555 1_555
Fe9 O3 1_555 1_555
Fe3_3 O9 1_555 1_555
O7 Fe9 1_555 1_555
O10 Fe14_4 1_555 1_555
H5 C5 1_555 1_555
Fe6 O14 1_555 1_555
Fe11 O14 1_555 1_555
O22 Fe6 1_555 1_555
O24 Fe3_4 1_555 1_555
O32 Fe6 1_555 1_555
C10 O22 1_555 1_555
H10 C10 1_555 1_555
O10 C5 1_555 1_555
Fe11 O22 1_555 1_555
Fe14_8 O32 1_555 1_555
O24 C10 1_555 1_555
O27 Fe14_6 1_555 1_555
Fe11 O33 1_555 1_555
O33 C12 1_555 1_555
C12 O32 1_555 1_555
H12 C12 1_555 1_555
Fe7 O31 1_555 1_555
O27_2 Fe4 1_555 1_555
O29 Fe4 1_555 1_555
O31 Fe4 1_555 1_555
O34 C12_2 1_555 1_555
C12_2 O31 1_555 1_555
H12_2 C12_2 1_555 1_555
Fe4_2 O8_2 1_555 1_555
O5_2 Fe5 1_555 1_555
O6_2 Fe13 1_555 1_555
O8_2 C4_2 1_555 1_555
O9_2 Fe5 1_555 1_555
O10_2 Fe4_2 1_555 1_555
O11_2 Fe5 1_555 1_555
O12_2 Fe9 1_555 1_555
C3_2 O5_2 1_555 1_555
H3_2 C3_2 1_555 1_555
C4_2 O25 1_555 1_555
H4_2 C4_2 1_555 1_555
C5_2 O9_2 1_555 1_555
H5_2 C5_2 1_555 1_555
C6_2 O11_2 1_555 1_555
H6_2 C6_2 1_555 1_555
Fe7 O15 1_555 1_555
O17_2 Fe11 1_555 1_555
O19_2 Fe7 1_555 1_555
O20_2 Fe13 1_555 1_555
O23 Fe7 1_555 1_555
O24_2 Fe13 1_555 1_555
O26_2 Fe7 1_555 1_555
O28_2 Fe13 1_555 1_555
O29 C11_2 1_555 1_555
C9_2 O19_2 1_555 1_555
H9_2 C9_2 1_555 1_555
C10_2 O23 1_555 1_555
H10_2 C10_2 1_555 1_555
C11_2 O28_2 1_555 1_555
H11_2 C11_2 1_555 1_555
Fe9 O5_2 1_555 1_555
Fe13 O9_2 1_555 1_555
Fe4_2 O11_2 1_555 1_555
O6_2 C3_2 1_555 1_555
O10_2 C5_2 1_555 1_555
O12_2 C6_2 1_555 1_555
Fe7 O28_2 1_555 1_555
Fe11 O19_2 1_555 1_555
Fe11 O26_2 1_555 1_555
O20_2 C9_2 1_555 1_555
O24_2 C10_2 1_555 1_555
O27 C4_3 1_555 1_555
C4_3 O26 1_555 1_555
H4_3 C4_3 1_555 1_555
O14 C1_2 1_555 1_555
C1_2 H1_2 1_555 1_555
O15 C7_2 1_555 1_555
O17 C1_2 1_555 1_555
C7_2 O17_2 1_555 1_555
H7_2 C7_2 1_555 1_555
O27_2 C4_4 1_555 1_555
C4_4 O26_2 1_555 1_555
H4_4 C4_4 1_555 1_555

#END
