
###############################################################################
#
# This file contains modified crystal structure data generated from the
# MOF subset of the Cambridge Structural Database (CSD) v543 
# hosted by the Cambridge Crystallographic Data Centre (CCDC).
#
# This work is licensed under the Creative Commons
# Attribution-NonCommercial-ShareAlike 4.0 International License.
# To view a copy of this license, visit
# http://creativecommons.org/licenses/by-nc-sa/4.0/
# or send a letter to
# Creative Commons, PO Box 1866, Mountain View, CA 94042, USA.
#
# CIF created using the CSD Python API on 29 September 2022
# The structure has been converted into the P1 space group
# The structure has a 3D framework
# The original CSD entry NIKZAJ is in the monoclinic crystal system
# The framework has been calculated to contain at least 10.0% void space
# The void calculation uses a probe of radius 1.32A, grid spacing 0.4
#
###############################################################################

data_NIKZAJ
_chemical_formula_moiety         '(C24 H24 Fe19 O48)n'
_symmetry_cell_setting           triclinic
_symmetry_space_group_name_H-M   'P 1'
_symmetry_Int_Tables_number      1
_space_group_name_Hall           'P 1'
loop_
_symmetry_equiv_pos_site_id
_symmetry_equiv_pos_as_xyz
1 x,y,z
_cell_length_a                   11.3190(3)
_cell_length_b                   9.7577(2)
_cell_length_c                   18.2410(4)
_cell_angle_alpha                90
_cell_angle_beta                 127.2850(10)
_cell_angle_gamma                90
_cell_volume                     1602.94
loop_
_atom_site_label
_atom_site_type_symbol
_atom_site_fract_x
_atom_site_fract_y
_atom_site_fract_z
Fe14 Fe 0.0000 0.0000 0.0000
Fe14_2 Fe 0.0000 0.0000 1.0000
Fe14_3 Fe 0.0000 1.0000 0.0000
Fe14_4 Fe 0.0000 1.0000 1.0000
Fe1 Fe 0.37556(4) 0.08429(3) 0.13143(2)
Fe3 Fe 0.5000 0.0000 0.0000
O1 O 0.43220(18) 0.20851(15) 0.24450(11)
O2 O 0.55204(19) 0.07400(16) 0.36949(11)
O3 O 0.59577(18) 0.00630(15) 0.22109(11)
O4 O 0.68863(19) 0.01017(17) 0.14255(11)
O5 O 0.45214(17) 0.26529(15) 0.10438(10)
O11 O 0.15902(17) 0.16407(16) 0.05699(11)
O12 O 0.19501(18) 0.39015(16) 0.08679(12)
C1 C 0.4949(3) 0.1838(2) 0.32937(16)
H1 H 0.4980 0.2566 0.3651
C3 C 0.4648(3) 0.2945(2) 0.04189(16)
H3 H 0.4734 0.3888 0.0329
C6 C 0.1148(3) 0.2884(2) 0.04611(16)
H6 H 0.0111 0.3043 0.0029
Fe7 Fe 0.62444(4) 0.58429(3) 0.36857(2)
Fe9 Fe 0.42367(4) 0.40021(3) 0.18501(2)
Fe12 Fe 0.57633(4) 0.90021(3) 0.31499(2)
Fe13 Fe 0.5000 0.5000 0.5000
Fe14_5 Fe 1.0000 0.0000 0.0000
O15 O 0.56780(18) 0.70851(15) 0.25550(11)
O17 O 0.44796(19) 0.57400(16) 0.13051(11)
O19 O 0.40423(18) 0.50630(15) 0.27891(11)
O21 O 0.31137(19) 0.51017(17) 0.35745(11)
O26 O 0.65282(18) 0.42004(15) 0.30241(11)
O29 O 0.88834(18) 0.11717(17) 0.03722(12)
C7 C 0.5051(3) 0.6838(2) 0.17063(16)
H7 H 0.5020 0.7566 0.1349
C9 C 0.2987(3) 0.4991(2) 0.28547(17)
H9 H 0.2017 0.4838 0.2302
C11 C 0.7713(3) 0.1142(2) 0.02832(17)
H11 H 0.7607 0.1786 0.0631
Fe2 Fe 0.42367(4) 0.09979(3) 0.68501(2)
Fe3_2 Fe 0.5000 0.0000 1.0000
O6 O 0.46700(19) 0.21129(17) 0.99116(11)
Fe14_6 Fe 1.0000 0.0000 1.0000
O14 O 0.43220(18) 0.29149(15) 0.74450(11)
O23 O 0.45214(17) 0.23471(15) 0.60438(10)
O25 O 0.65282(18) 0.07996(15) 0.80241(11)
O28 O 0.66246(18) 0.03177(16) 0.97613(11)
O33 O 0.19501(18) 0.10985(16) 0.58679(12)
C8 C 0.2987(3) 0.0009(2) 0.78547(17)
H8 H 0.2017 0.0162 0.7302
Fe3_3 Fe 0.5000 1.0000 0.0000
O7 O 0.34718(18) 0.92004(15) 0.19759(11)
O8 O 0.10323(18) 0.89582(17) 0.12629(11)
O9 O 0.33754(18) 0.96823(16) 0.02387(11)
C2 C 0.7013(3) 0.9991(2) 0.21453(17)
H2 H 0.7983 0.9838 0.2698
C4 C 0.2348(3) 0.8736(2) 0.19007(17)
H4 H 0.2546 0.8162 0.2384
Fe14_7 Fe 1.0000 1.0000 0.0000
O24 O 0.53300(19) 0.78871(17) 0.00884(11)
Fe3_4 Fe 0.5000 1.0000 1.0000
O10 O 0.11166(18) 0.88283(17) 0.96278(12)
C5 C 0.2287(3) 0.8858(2) 0.97168(17)
H5 H 0.2393 0.8214 0.9369
Fe5 Fe 0.62444(4) 0.91571(3) 0.86857(2)
Fe10 Fe 0.57633(4) 0.59979(3) 0.81499(2)
Fe14_8 Fe 1.0000 1.0000 1.0000
O13 O 0.56780(18) 0.79149(15) 0.75550(11)
O16 O 0.44796(19) 0.92600(16) 0.63051(11)
O18 O 0.40423(18) 0.99370(15) 0.77891(11)
O20 O 0.31137(19) 0.98983(17) 0.85745(11)
O22 O 0.54786(17) 0.73471(15) 0.89562(10)
O32 O 0.84098(17) 0.83593(16) 0.94301(11)
C10 C 0.5352(3) 0.7055(2) 0.95811(16)
H10 H 0.5266 0.6112 0.9671
O27 O 0.89677(18) 0.10418(17) 0.87371(11)
O34 O 0.80499(18) 0.60985(16) 0.91321(12)
C12 C 0.8852(3) 0.7116(2) 0.95389(16)
H12 H 0.9889 0.6957 0.9971
Fe4 Fe 0.0000 0.5000 0.5000
Fe6 Fe 0.37556(4) 0.41571(3) 0.63143(2)
O27_2 O 0.10323(18) 0.60418(17) 0.62629(11)
O30 O 0.11166(18) 0.61717(17) 0.46278(12)
O31 O 0.15902(17) 0.33593(16) 0.55699(11)
C12_2 C 0.1148(3) 0.2116(2) 0.54611(16)
H12_2 H 0.0111 0.1957 0.5029
Fe4_2 Fe 1.0000 0.5000 0.5000
O5_2 O 0.54786(17) 0.76529(15) 0.39562(10)
O6_2 O 0.53300(19) 0.71129(17) 0.50884(11)
O8_2 O 0.89677(18) 0.39582(17) 0.37371(11)
O9_2 O 0.66246(18) 0.46823(16) 0.47613(11)
O10_2 O 0.88834(18) 0.38283(17) 0.53722(12)
O11_2 O 0.84098(17) 0.66407(16) 0.44301(11)
O12_2 O 0.80499(18) 0.89015(16) 0.41321(12)
C3_2 C 0.5352(3) 0.7945(2) 0.45811(16)
H3_2 H 0.5266 0.8888 0.4671
C4_2 C 0.7652(3) 0.3736(2) 0.30993(17)
H4_2 H 0.7454 0.3162 0.2616
C5_2 C 0.7713(3) 0.3858(2) 0.52832(17)
H5_2 H 0.7607 0.3214 0.5631
C6_2 C 0.8852(3) 0.7884(2) 0.45389(16)
H6_2 H 0.9889 0.8043 0.4971
O16_2 O 0.55204(19) 0.42600(16) 0.86949(11)
O18_2 O 0.59577(18) 0.49370(15) 0.72109(11)
O20_2 O 0.68863(19) 0.48983(17) 0.64255(11)
O24_2 O 0.46700(19) 0.28871(17) 0.49116(11)
O25_2 O 0.34718(18) 0.57996(15) 0.69759(11)
O28_2 O 0.33754(18) 0.53177(16) 0.52387(11)
C8_2 C 0.7013(3) 0.5009(2) 0.71453(17)
H8_2 H 0.7983 0.5162 0.7698
C10_2 C 0.4648(3) 0.2055(2) 0.54189(16)
H10_2 H 0.4734 0.1112 0.5329
C11_2 C 0.2287(3) 0.6142(2) 0.47168(17)
H11_2 H 0.2393 0.6786 0.4369
C4_3 C 0.7652(3) 0.1264(2) 0.80993(17)
H4_3 H 0.7454 0.1838 0.7616
C1_2 C 0.5051(3) 0.8162(2) 0.67063(16)
H1_2 H 0.5020 0.7434 0.6349
C7_2 C 0.4949(3) 0.3162(2) 0.82937(16)
H7_2 H 0.4980 0.2434 0.8651
C4_4 C 0.2348(3) 0.6264(2) 0.69007(17)
H4_4 H 0.2546 0.6838 0.7384
loop_
_geom_bond_atom_site_label_1
_geom_bond_atom_site_label_2
_geom_bond_site_symmetry_1
_geom_bond_site_symmetry_2
Fe1 O1 1_555 1_555
Fe3 O4 1_555 1_555
O1 C1 1_555 1_555
O2 C1 1_555 1_555
O3 Fe1 1_555 1_555
O5 Fe1 1_555 1_555
O11 Fe1 1_555 1_555
O12 C6 1_555 1_555
C1 H1 1_555 1_555
C3 O5 1_555 1_555
H3 C3 1_555 1_555
C6 O11 1_555 1_555
H6 C6 1_555 1_555
Fe7 O15 1_555 1_555
Fe9 O1 1_555 1_555
Fe12 O15 1_555 1_555
Fe13 O21 1_555 1_555
Fe14_5 O29 1_555 1_555
O15 C7 1_555 1_555
O17 Fe9 1_555 1_555
O19 Fe7 1_555 1_555
O21 C9 1_555 1_555
O26 Fe7 1_555 1_555
O29 C11 1_555 1_555
C7 O17 1_555 1_555
H7 C7 1_555 1_555
C9 O19 1_555 1_555
H9 C9 1_555 1_555
H11 C11 1_555 1_555
Fe14 O11 1_555 1_555
O5 Fe9 1_555 1_555
O12 Fe9 1_555 1_555
Fe9 O19 1_555 1_555
Fe9 O26 1_555 1_555
Fe2 O14 1_555 1_555
O6 Fe3_2 1_555 1_555
O23 Fe2 1_555 1_555
O25 Fe2 1_555 1_555
O28 Fe3_2 1_555 1_555
O33 Fe2 1_555 1_555
H8 C8 1_555 1_555
Fe14_3 O8 1_555 1_555
O8 C4 1_555 1_555
H2 C2 1_555 1_555
C4 O7 1_555 1_555
H4 C4 1_555 1_555
O24 Fe3_3 1_555 1_555
Fe3_3 O9 1_555 1_555
O7 Fe12 1_555 1_555
O10 Fe14_4 1_555 1_555
H5 C5 1_555 1_555
Fe5 O13 1_555 1_555
Fe10 O13 1_555 1_555
O20 Fe3_4 1_555 1_555
O22 Fe5 1_555 1_555
O32 Fe5 1_555 1_555
C10 O22 1_555 1_555
H10 C10 1_555 1_555
O10 C5 1_555 1_555
Fe5 O18 1_555 1_555
Fe10 O22 1_555 1_555
Fe14_8 O32 1_555 1_555
O27 Fe14_6 1_555 1_555
Fe10 O34 1_555 1_555
O34 C12 1_555 1_555
C12 O32 1_555 1_555
H12 C12 1_555 1_555
Fe6 O31 1_555 1_555
O27_2 Fe4 1_555 1_555
O30 Fe4 1_555 1_555
O31 Fe4 1_555 1_555
O33 C12_2 1_555 1_555
C12_2 O31 1_555 1_555
H12_2 C12_2 1_555 1_555
Fe4_2 O8_2 1_555 1_555
O5_2 Fe7 1_555 1_555
O6_2 Fe13 1_555 1_555
O8_2 C4_2 1_555 1_555
O9_2 Fe7 1_555 1_555
O10_2 Fe4_2 1_555 1_555
O11_2 Fe7 1_555 1_555
O12_2 C6_2 1_555 1_555
C3_2 O5_2 1_555 1_555
H3_2 C3_2 1_555 1_555
C4_2 O26 1_555 1_555
H4_2 C4_2 1_555 1_555
C5_2 O9_2 1_555 1_555
H5_2 C5_2 1_555 1_555
C6_2 O11_2 1_555 1_555
H6_2 C6_2 1_555 1_555
Fe6 O14 1_555 1_555
O16_2 Fe10 1_555 1_555
O18_2 Fe10 1_555 1_555
O20_2 Fe13 1_555 1_555
O23 Fe6 1_555 1_555
O24_2 Fe13 1_555 1_555
O25_2 Fe10 1_555 1_555
O28_2 Fe13 1_555 1_555
O30 C11_2 1_555 1_555
C8_2 O18_2 1_555 1_555
H8_2 C8_2 1_555 1_555
C10_2 O23 1_555 1_555
H10_2 C10_2 1_555 1_555
C11_2 O28_2 1_555 1_555
H11_2 C11_2 1_555 1_555
Fe13 O9_2 1_555 1_555
Fe4_2 O11_2 1_555 1_555
O5_2 Fe12 1_555 1_555
O6_2 C3_2 1_555 1_555
O10_2 C5_2 1_555 1_555
O12_2 Fe12 1_555 1_555
Fe6 O18_2 1_555 1_555
Fe6 O25_2 1_555 1_555
Fe6 O28_2 1_555 1_555
O20_2 C8_2 1_555 1_555
O24_2 C10_2 1_555 1_555
O27 C4_3 1_555 1_555
C4_3 O25 1_555 1_555
H4_3 C4_3 1_555 1_555
O13 C1_2 1_555 1_555
O16 C1_2 1_555 1_555
C1_2 H1_2 1_555 1_555
O14 C7_2 1_555 1_555
C7_2 O16_2 1_555 1_555
H7_2 C7_2 1_555 1_555
O27_2 C4_4 1_555 1_555
C4_4 O25_2 1_555 1_555
H4_4 C4_4 1_555 1_555

#END
