
###############################################################################
#
# This file contains modified crystal structure data generated from the
# MOF subset of the Cambridge Structural Database (CSD) v543 
# hosted by the Cambridge Crystallographic Data Centre (CCDC).
#
# This work is licensed under the Creative Commons
# Attribution-NonCommercial-ShareAlike 4.0 International License.
# To view a copy of this license, visit
# http://creativecommons.org/licenses/by-nc-sa/4.0/
# or send a letter to
# Creative Commons, PO Box 1866, Mountain View, CA 94042, USA.
#
# CIF created using the CSD Python API on 29 September 2022
# The structure has been converted into the P1 space group
# The structure has a 3D framework
# The original CSD entry NIKZAJ01 is in the monoclinic crystal system
# The framework has been calculated to contain at least 10.0% void space
# The void calculation uses a probe of radius 1.32A, grid spacing 0.4
#
###############################################################################

data_NIKZAJ01
_chemical_formula_moiety         '(C24 H24 Fe19 O48)n'
_symmetry_cell_setting           triclinic
_symmetry_space_group_name_H-M   'P 1'
_symmetry_Int_Tables_number      1
_space_group_name_Hall           'P 1'
loop_
_symmetry_equiv_pos_site_id
_symmetry_equiv_pos_as_xyz
1 x,y,z
_cell_length_a                   11.3416(2)
_cell_length_b                   9.8058(2)
_cell_length_c                   18.2631(4)
_cell_angle_alpha                90
_cell_angle_beta                 127.184(1)
_cell_angle_gamma                90
_cell_volume                     1618.18
loop_
_atom_site_label
_atom_site_type_symbol
_atom_site_fract_x
_atom_site_fract_y
_atom_site_fract_z
Fe14 Fe 0.0000 0.0000 0.0000
Fe14_2 Fe -0.0000 0.0000 1.0000
Fe14_3 Fe 0.0000 1.0000 0.0000
Fe14_4 Fe -0.0000 1.0000 1.0000
Fe1 Fe 0.37570(4) 0.08327(3) 0.13164(2)
Fe3 Fe 0.5000 0.0000 0.0000
O1 O 0.43396(19) 0.20656(17) 0.24494(11)
O2 O 0.5522(2) 0.07164(17) 0.36891(12)
O3 O 0.59421(19) 0.00369(16) 0.22021(12)
O4 O 0.6876(2) 0.00890(19) 0.14221(13)
O5 O 0.45271(19) 0.26367(16) 0.10509(11)
O11 O 0.15981(18) 0.16267(17) 0.05787(12)
O12 O 0.1971(2) 0.38680(17) 0.08847(13)
C1 C 0.4969(3) 0.1819(3) 0.32979(17)
H1 H 0.5017 0.2545 0.3660
C3 C 0.4663(3) 0.2929(3) 0.04309(19)
H3 H 0.4754 0.3868 0.0344
C6 C 0.1165(3) 0.2864(3) 0.04788(18)
H6 H 0.0131 0.3028 0.0055
Fe7 Fe 0.62430(4) 0.58327(3) 0.36836(2)
Fe9 Fe 0.42491(4) 0.39820(3) 0.18576(2)
Fe12 Fe 0.57509(4) 0.89820(3) 0.31424(2)
Fe13 Fe 0.5000 0.5000 0.5000
Fe14_5 Fe 1.0000 0.0000 0.0000
O15 O 0.56604(19) 0.70656(17) 0.25506(11)
O17 O 0.4478(2) 0.57164(17) 0.13109(12)
O19 O 0.40579(19) 0.50369(16) 0.27979(12)
O21 O 0.3124(2) 0.50890(19) 0.35779(13)
O26 O 0.65348(19) 0.41981(16) 0.30282(12)
O29 O 0.8878(2) 0.11538(18) 0.03718(14)
C7 C 0.5031(3) 0.6819(3) 0.17021(17)
H7 H 0.4983 0.7545 0.1340
C9 C 0.3001(3) 0.4970(3) 0.28592(19)
H9 H 0.2036 0.4815 0.2308
C11 C 0.7720(3) 0.1119(3) 0.02873(18)
H11 H 0.7624 0.1748 0.0644
Fe2 Fe 0.42491(4) 0.10180(3) 0.68576(2)
Fe3_2 Fe 0.5000 0.0000 1.0000
O6 O 0.4690(2) 0.21065(19) 0.99256(12)
Fe14_6 Fe 1.0000 0.0000 1.0000
O14 O 0.43396(19) 0.29344(17) 0.74494(11)
O23 O 0.45271(19) 0.23633(16) 0.60509(11)
O25 O 0.65348(19) 0.08019(16) 0.80282(12)
O28 O 0.66249(19) 0.03126(18) 0.97624(12)
O33 O 0.1971(2) 0.11320(17) 0.58847(13)
C8 C 0.3001(3) 0.0030(3) 0.78592(19)
H8 H 0.2036 0.0185 0.7308
Fe3_3 Fe 0.5000 1.0000 0.0000
O7 O 0.34652(19) 0.91981(16) 0.19718(12)
O8 O 0.10374(19) 0.89497(19) 0.12558(13)
O9 O 0.33751(19) 0.96874(18) 0.02376(12)
C2 C 0.6999(3) 0.9970(3) 0.21408(19)
H2 H 0.7964 0.9815 0.2692
C4 C 0.2343(3) 0.8731(3) 0.18909(18)
H4 H 0.2536 0.8154 0.2370
Fe14_7 Fe 1.0000 1.0000 0.0000
O24 O 0.5310(2) 0.78935(19) 0.00744(12)
Fe3_4 Fe 0.5000 1.0000 1.0000
O10 O 0.1122(2) 0.88462(18) 0.96282(14)
C5 C 0.2280(3) 0.8881(3) 0.97127(18)
H5 H 0.2376 0.8252 0.9356
Fe5 Fe 0.62430(4) 0.91673(3) 0.86836(2)
Fe10 Fe 0.57509(4) 0.60180(3) 0.81424(2)
Fe14_8 Fe 1.0000 1.0000 1.0000
O13 O 0.56604(19) 0.79344(17) 0.75506(11)
O16 O 0.4478(2) 0.92836(17) 0.63109(12)
O18 O 0.40579(19) 0.99631(16) 0.77979(12)
O20 O 0.3124(2) 0.99110(19) 0.85779(13)
O22 O 0.54729(19) 0.73633(16) 0.89491(11)
O32 O 0.84019(18) 0.83733(17) 0.94213(12)
C10 C 0.5337(3) 0.7071(3) 0.95691(19)
H10 H 0.5246 0.6132 0.9656
O27 O 0.89626(19) 0.10503(19) 0.87442(13)
O34 O 0.8029(2) 0.61320(17) 0.91153(13)
C12 C 0.8835(3) 0.7136(3) 0.95212(18)
H12 H 0.9869 0.6972 0.9945
Fe4 Fe -0.0000 0.5000 0.5000
Fe6 Fe 0.37570(4) 0.41673(3) 0.63164(2)
O27_2 O 0.10374(19) 0.60503(19) 0.62558(13)
O30 O 0.1122(2) 0.61538(18) 0.46282(14)
O31 O 0.15981(18) 0.33733(17) 0.55787(12)
C12_2 C 0.1165(3) 0.2136(3) 0.54788(18)
H12_2 H 0.0131 0.1972 0.5055
Fe4_2 Fe 1.0000 0.5000 0.5000
O5_2 O 0.54729(19) 0.76367(16) 0.39491(11)
O6_2 O 0.5310(2) 0.71065(19) 0.50744(12)
O8_2 O 0.89626(19) 0.39497(19) 0.37442(13)
O9_2 O 0.66249(19) 0.46874(18) 0.47624(12)
O10_2 O 0.8878(2) 0.38462(18) 0.53718(14)
O11_2 O 0.84019(18) 0.66267(17) 0.44213(12)
O12_2 O 0.8029(2) 0.88680(17) 0.41153(13)
C3_2 C 0.5337(3) 0.7929(3) 0.45691(19)
H3_2 H 0.5246 0.8868 0.4656
C4_2 C 0.7657(3) 0.3731(3) 0.31091(18)
H4_2 H 0.7464 0.3154 0.2630
C5_2 C 0.7720(3) 0.3881(3) 0.52873(18)
H5_2 H 0.7624 0.3252 0.5644
C6_2 C 0.8835(3) 0.7864(3) 0.45212(18)
H6_2 H 0.9869 0.8028 0.4945
O16_2 O 0.5522(2) 0.42836(17) 0.86891(12)
O18_2 O 0.59421(19) 0.49631(16) 0.72021(12)
O20_2 O 0.6876(2) 0.49110(19) 0.64221(13)
O24_2 O 0.4690(2) 0.28935(19) 0.49256(12)
O25_2 O 0.34652(19) 0.58019(16) 0.69718(12)
O28_2 O 0.33751(19) 0.53126(18) 0.52376(12)
C8_2 C 0.6999(3) 0.5030(3) 0.71408(19)
H8_2 H 0.7964 0.5185 0.7692
C10_2 C 0.4663(3) 0.2071(3) 0.54309(19)
H10_2 H 0.4754 0.1132 0.5344
C11_2 C 0.2280(3) 0.6119(3) 0.47127(18)
H11_2 H 0.2376 0.6748 0.4356
C4_3 C 0.7657(3) 0.1269(3) 0.81091(18)
H4_3 H 0.7464 0.1846 0.7630
C1_2 C 0.5031(3) 0.8181(3) 0.67021(17)
H1_2 H 0.4983 0.7455 0.6340
C7_2 C 0.4969(3) 0.3181(3) 0.82979(17)
H7_2 H 0.5017 0.2455 0.8660
C4_4 C 0.2343(3) 0.6269(3) 0.68909(18)
H4_4 H 0.2536 0.6846 0.7370
loop_
_geom_bond_atom_site_label_1
_geom_bond_atom_site_label_2
_geom_bond_site_symmetry_1
_geom_bond_site_symmetry_2
Fe1 O1 1_555 1_555
Fe3 O4 1_555 1_555
O1 C1 1_555 1_555
O2 C1 1_555 1_555
O3 Fe1 1_555 1_555
O5 Fe1 1_555 1_555
O11 Fe1 1_555 1_555
O12 C6 1_555 1_555
C1 H1 1_555 1_555
C3 O5 1_555 1_555
H3 C3 1_555 1_555
C6 O11 1_555 1_555
H6 C6 1_555 1_555
Fe7 O15 1_555 1_555
Fe9 O1 1_555 1_555
Fe12 O15 1_555 1_555
Fe13 O21 1_555 1_555
Fe14_5 O29 1_555 1_555
O15 C7 1_555 1_555
O17 Fe9 1_555 1_555
O19 Fe7 1_555 1_555
O21 C9 1_555 1_555
O26 Fe7 1_555 1_555
O29 C11 1_555 1_555
C7 O17 1_555 1_555
H7 C7 1_555 1_555
C9 O19 1_555 1_555
H9 C9 1_555 1_555
H11 C11 1_555 1_555
Fe14 O11 1_555 1_555
O5 Fe9 1_555 1_555
O12 Fe9 1_555 1_555
Fe9 O19 1_555 1_555
Fe9 O26 1_555 1_555
Fe2 O14 1_555 1_555
O6 Fe3_2 1_555 1_555
O23 Fe2 1_555 1_555
O25 Fe2 1_555 1_555
O28 Fe3_2 1_555 1_555
O33 Fe2 1_555 1_555
H8 C8 1_555 1_555
Fe14_3 O8 1_555 1_555
O8 C4 1_555 1_555
H2 C2 1_555 1_555
C4 O7 1_555 1_555
H4 C4 1_555 1_555
O24 Fe3_3 1_555 1_555
Fe3_3 O9 1_555 1_555
O7 Fe12 1_555 1_555
O10 Fe14_4 1_555 1_555
H5 C5 1_555 1_555
Fe5 O13 1_555 1_555
Fe10 O13 1_555 1_555
O20 Fe3_4 1_555 1_555
O22 Fe5 1_555 1_555
O32 Fe5 1_555 1_555
C10 O22 1_555 1_555
H10 C10 1_555 1_555
O10 C5 1_555 1_555
Fe5 O18 1_555 1_555
Fe10 O22 1_555 1_555
Fe14_8 O32 1_555 1_555
O27 Fe14_6 1_555 1_555
Fe10 O34 1_555 1_555
O34 C12 1_555 1_555
C12 O32 1_555 1_555
H12 C12 1_555 1_555
Fe6 O31 1_555 1_555
O27_2 Fe4 1_555 1_555
O30 Fe4 1_555 1_555
O31 Fe4 1_555 1_555
O33 C12_2 1_555 1_555
C12_2 O31 1_555 1_555
H12_2 C12_2 1_555 1_555
Fe4_2 O8_2 1_555 1_555
O5_2 Fe7 1_555 1_555
O6_2 Fe13 1_555 1_555
O8_2 C4_2 1_555 1_555
O9_2 Fe7 1_555 1_555
O10_2 Fe4_2 1_555 1_555
O11_2 Fe7 1_555 1_555
O12_2 C6_2 1_555 1_555
C3_2 O5_2 1_555 1_555
H3_2 C3_2 1_555 1_555
C4_2 O26 1_555 1_555
H4_2 C4_2 1_555 1_555
C5_2 O9_2 1_555 1_555
H5_2 C5_2 1_555 1_555
C6_2 O11_2 1_555 1_555
H6_2 C6_2 1_555 1_555
Fe6 O14 1_555 1_555
O16_2 Fe10 1_555 1_555
O18_2 Fe10 1_555 1_555
O20_2 Fe13 1_555 1_555
O23 Fe6 1_555 1_555
O24_2 Fe13 1_555 1_555
O25_2 Fe10 1_555 1_555
O28_2 Fe13 1_555 1_555
O30 C11_2 1_555 1_555
C8_2 O18_2 1_555 1_555
H8_2 C8_2 1_555 1_555
C10_2 O23 1_555 1_555
H10_2 C10_2 1_555 1_555
C11_2 O28_2 1_555 1_555
H11_2 C11_2 1_555 1_555
Fe13 O9_2 1_555 1_555
Fe4_2 O11_2 1_555 1_555
O5_2 Fe12 1_555 1_555
O6_2 C3_2 1_555 1_555
O10_2 C5_2 1_555 1_555
O12_2 Fe12 1_555 1_555
Fe6 O18_2 1_555 1_555
Fe6 O25_2 1_555 1_555
Fe6 O28_2 1_555 1_555
O20_2 C8_2 1_555 1_555
O24_2 C10_2 1_555 1_555
O27 C4_3 1_555 1_555
C4_3 O25 1_555 1_555
H4_3 C4_3 1_555 1_555
O13 C1_2 1_555 1_555
O16 C1_2 1_555 1_555
C1_2 H1_2 1_555 1_555
O14 C7_2 1_555 1_555
C7_2 O16_2 1_555 1_555
H7_2 C7_2 1_555 1_555
O27_2 C4_4 1_555 1_555
C4_4 O25_2 1_555 1_555
H4_4 C4_4 1_555 1_555

#END
