
###############################################################################
#
# This file contains modified crystal structure data generated from the
# MOF subset of the Cambridge Structural Database (CSD) v543 
# hosted by the Cambridge Crystallographic Data Centre (CCDC).
#
# This work is licensed under the Creative Commons
# Attribution-NonCommercial-ShareAlike 4.0 International License.
# To view a copy of this license, visit
# http://creativecommons.org/licenses/by-nc-sa/4.0/
# or send a letter to
# Creative Commons, PO Box 1866, Mountain View, CA 94042, USA.
#
# CIF created using the CSD Python API on 29 September 2022
# The structure has been converted into the P1 space group
# The structure has a 3D framework
# The original CSD entry NIKZAJ02 is in the monoclinic crystal system
# The framework has been calculated to contain at least 10.0% void space
# The void calculation uses a probe of radius 1.32A, grid spacing 0.4
#
###############################################################################

data_NIKZAJ02
_chemical_formula_moiety         '(C24 H24 Fe20 O48)n'
_symmetry_cell_setting           triclinic
_symmetry_space_group_name_H-M   'P 1'
_symmetry_Int_Tables_number      1
_space_group_name_Hall           'P 1'
loop_
_symmetry_equiv_pos_site_id
_symmetry_equiv_pos_as_xyz
1 x,y,z
_cell_length_a                   11.3983(3)
_cell_length_b                   9.8820(3)
_cell_length_c                   18.3252(6)
_cell_angle_alpha                90
_cell_angle_beta                 127.1280(10)
_cell_angle_gamma                90
_cell_volume                     1645.7
loop_
_atom_site_label
_atom_site_type_symbol
_atom_site_fract_x
_atom_site_fract_y
_atom_site_fract_z
Fe14 Fe 0.0000 0.0000 0.0000
Fe14_2 Fe 0.0000 0.0000 1.0000
Fe14_3 Fe 0.0000 1.0000 0.0000
Fe14_4 Fe 0.0000 1.0000 1.0000
Fe1 Fe 0.37591(4) 0.08153(3) 0.13196(2)
Fe3 Fe 0.5000 0.0000 0.0000
O1 O 0.43720(19) 0.20363(16) 0.24623(11)
O2 O 0.5532(2) 0.06743(18) 0.36829(12)
O4 O 0.6842(2) 0.0054(2) 0.14113(13)
O5 O 0.45363(19) 0.26079(16) 0.10611(11)
O11 O 0.16121(18) 0.15971(17) 0.05983(12)
O12 O 0.20018(19) 0.38160(18) 0.09116(13)
C1 C 0.4999(3) 0.1774(3) 0.33001(18)
H1 H 0.5064 0.2476 0.3661
C3 C 0.4693(3) 0.2900(3) 0.0455(2)
H3 H 0.4792 0.3812 0.0379
C6 C 0.1198(3) 0.2832(3) 0.05114(19)
H6 H 0.0192 0.2999 0.0107
Fe7 Fe 0.62409(4) 0.58153(3) 0.36804(2)
Fe9 Fe 0.42700(4) 0.39465(3) 0.18717(2)
Fe12 Fe 0.57300(4) 0.89465(3) 0.31283(2)
Fe13 Fe 0.5000 0.5000 0.5000
Fe14_5 Fe 1.0000 0.0000 0.0000
O15 O 0.56280(19) 0.70363(16) 0.25377(11)
O17 O 0.4468(2) 0.56743(18) 0.13171(12)
O19 O 0.40793(19) 0.49898(16) 0.28119(12)
O21 O 0.3158(2) 0.5054(2) 0.35887(13)
O26 O 0.65451(18) 0.41837(16) 0.30332(12)
O29 O 0.8873(2) 0.11130(19) 0.03733(14)
C7 C 0.5001(3) 0.6774(3) 0.16999(18)
H7 H 0.4936 0.7476 0.1339
C9 C 0.3040(3) 0.4919(3) 0.28791(19)
H9 H 0.2103 0.4750 0.2345
C11 C 0.7736(3) 0.1081(3) 0.02985(18)
H11 H 0.7660 0.1681 0.0660
Fe2 Fe 0.42700(4) 0.10535(3) 0.68717(2)
Fe3_2 Fe 0.5000 0.0000 1.0000
O6 O 0.4728(2) 0.20973(19) 0.99503(13)
Fe14_6 Fe 1.0000 0.0000 1.0000
O14 O 0.43720(19) 0.29637(16) 0.74623(11)
O18 O 0.40793(19) 0.00102(16) 0.78119(12)
O23 O 0.45363(19) 0.23921(16) 0.60611(11)
O25 O 0.65451(18) 0.08163(16) 0.80332(12)
O28 O 0.66359(18) 0.03008(17) 0.97697(12)
O33 O 0.20018(19) 0.11840(18) 0.59116(13)
C8 C 0.3040(3) 0.0081(3) 0.78791(19)
H8 H 0.2103 0.0250 0.7345
Fe3_3 Fe 0.5000 1.0000 0.0000
O3 O 0.59207(19) 0.99898(16) 0.21881(12)
O7 O 0.34549(18) 0.91837(16) 0.19668(12)
O8 O 0.1049(2) 0.8930(2) 0.12416(14)
O9 O 0.33641(18) 0.96992(17) 0.02303(12)
C2 C 0.6960(3) 0.9919(3) 0.21209(19)
H2 H 0.7897 0.9750 0.2655
C4 C 0.2343(3) 0.8705(3) 0.18721(19)
H4 H 0.2525 0.8120 0.2328
Fe14_7 Fe 1.0000 1.0000 0.0000
O24 O 0.5272(2) 0.79027(19) 0.00497(13)
Fe3_4 Fe 0.5000 1.0000 1.0000
O10 O 0.1127(2) 0.88870(19) 0.96267(14)
C5 C 0.2264(3) 0.8919(3) 0.97015(18)
H5 H 0.2340 0.8319 0.9340
Fe5 Fe 0.62409(4) 0.91847(3) 0.86804(2)
Fe10 Fe 0.57300(4) 0.60535(3) 0.81283(2)
Fe14_8 Fe 1.0000 1.0000 1.0000
O13 O 0.56280(19) 0.79637(16) 0.75377(11)
O16 O 0.4468(2) 0.93257(18) 0.63171(12)
O20 O 0.3158(2) 0.9946(2) 0.85887(13)
O22 O 0.54637(19) 0.73921(16) 0.89389(11)
O32 O 0.83879(18) 0.84029(17) 0.94017(12)
C10 C 0.5307(3) 0.7100(3) 0.9545(2)
H10 H 0.5208 0.6188 0.9621
O27 O 0.8951(2) 0.1070(2) 0.87584(14)
O34 O 0.79982(19) 0.61840(18) 0.90884(13)
C12 C 0.8802(3) 0.7168(3) 0.94886(19)
H12 H 0.9808 0.7001 0.9893
Fe4 Fe 0.0000 0.5000 0.5000
Fe6 Fe 0.37591(4) 0.41847(3) 0.63196(2)
O27_2 O 0.1049(2) 0.6070(2) 0.62416(14)
O30 O 0.1127(2) 0.61130(19) 0.46267(14)
O31 O 0.16121(18) 0.34029(17) 0.55983(12)
C12_2 C 0.1198(3) 0.2168(3) 0.55114(19)
H12_2 H 0.0192 0.2001 0.5107
Fe4_2 Fe 1.0000 0.5000 0.5000
O5_2 O 0.54637(19) 0.76079(16) 0.39389(11)
O6_2 O 0.5272(2) 0.70973(19) 0.50497(13)
O8_2 O 0.8951(2) 0.3930(2) 0.37584(14)
O9_2 O 0.66359(18) 0.46992(17) 0.47697(12)
O10_2 O 0.8873(2) 0.38870(19) 0.53733(14)
O11_2 O 0.83879(18) 0.65971(17) 0.44017(12)
O12_2 O 0.79982(19) 0.88160(18) 0.40884(13)
C3_2 C 0.5307(3) 0.7900(3) 0.4545(2)
H3_2 H 0.5208 0.8812 0.4621
C4_2 C 0.7657(3) 0.3705(3) 0.31279(19)
H4_2 H 0.7475 0.3120 0.2672
C5_2 C 0.7736(3) 0.3919(3) 0.52985(18)
H5_2 H 0.7660 0.3319 0.5660
C6_2 C 0.8802(3) 0.7832(3) 0.44886(19)
H6_2 H 0.9808 0.7999 0.4893
O16_2 O 0.5532(2) 0.43257(18) 0.86829(12)
O18_2 O 0.59207(19) 0.50102(16) 0.71881(12)
O20_2 O 0.6842(2) 0.4946(2) 0.64113(13)
O24_2 O 0.4728(2) 0.29027(19) 0.49503(13)
O25_2 O 0.34549(18) 0.58163(16) 0.69668(12)
O28_2 O 0.33641(18) 0.53008(17) 0.52303(12)
C8_2 C 0.6960(3) 0.5081(3) 0.71209(19)
H8_2 H 0.7897 0.5250 0.7655
C10_2 C 0.4693(3) 0.2100(3) 0.5455(2)
H10_2 H 0.4792 0.1188 0.5379
C11_2 C 0.2264(3) 0.6081(3) 0.47015(18)
H11_2 H 0.2340 0.6681 0.4340
C4_3 C 0.7657(3) 0.1295(3) 0.81279(19)
H4_3 H 0.7475 0.1880 0.7672
C1_2 C 0.5001(3) 0.8226(3) 0.66999(18)
H1_2 H 0.4936 0.7524 0.6339
C7_2 C 0.4999(3) 0.3226(3) 0.83001(18)
H7_2 H 0.5064 0.2524 0.8661
C4_4 C 0.2343(3) 0.6295(3) 0.68721(19)
H4_4 H 0.2525 0.6880 0.7328
loop_
_geom_bond_atom_site_label_1
_geom_bond_atom_site_label_2
_geom_bond_site_symmetry_1
_geom_bond_site_symmetry_2
Fe1 O1 1_555 1_555
Fe3 O4 1_555 1_555
O1 C1 1_555 1_555
O2 C1 1_555 1_555
O5 Fe1 1_555 1_555
O11 Fe1 1_555 1_555
O12 C6 1_555 1_555
C1 H1 1_555 1_555
C3 O5 1_555 1_555
H3 C3 1_555 1_555
C6 O11 1_555 1_555
H6 C6 1_555 1_555
Fe7 O15 1_555 1_555
Fe9 O1 1_555 1_555
Fe12 O15 1_555 1_555
Fe13 O21 1_555 1_555
Fe14_5 O29 1_555 1_555
O15 C7 1_555 1_555
O17 Fe9 1_555 1_555
O19 Fe7 1_555 1_555
O21 C9 1_555 1_555
O26 Fe7 1_555 1_555
O29 C11 1_555 1_555
C7 O17 1_555 1_555
H7 C7 1_555 1_555
C9 O19 1_555 1_555
H9 C9 1_555 1_555
H11 C11 1_555 1_555
Fe14 O11 1_555 1_555
O5 Fe9 1_555 1_555
O12 Fe9 1_555 1_555
Fe9 O19 1_555 1_555
Fe9 O26 1_555 1_555
Fe2 O14 1_555 1_555
O6 Fe3_2 1_555 1_555
O18 Fe2 1_555 1_555
O23 Fe2 1_555 1_555
O25 Fe2 1_555 1_555
O28 Fe3_2 1_555 1_555
O33 Fe2 1_555 1_555
C8 O18 1_555 1_555
H8 C8 1_555 1_555
Fe14_3 O8 1_555 1_555
O8 C4 1_555 1_555
C2 O3 1_555 1_555
H2 C2 1_555 1_555
C4 O7 1_555 1_555
H4 C4 1_555 1_555
O24 Fe3_3 1_555 1_555
Fe3_3 O9 1_555 1_555
O3 Fe12 1_555 1_555
O7 Fe12 1_555 1_555
O10 Fe14_4 1_555 1_555
H5 C5 1_555 1_555
Fe5 O13 1_555 1_555
Fe10 O13 1_555 1_555
O20 Fe3_4 1_555 1_555
O22 Fe5 1_555 1_555
O32 Fe5 1_555 1_555
C10 O22 1_555 1_555
H10 C10 1_555 1_555
O10 C5 1_555 1_555
Fe10 O22 1_555 1_555
Fe14_8 O32 1_555 1_555
O27 Fe14_6 1_555 1_555
Fe10 O34 1_555 1_555
O34 C12 1_555 1_555
C12 O32 1_555 1_555
H12 C12 1_555 1_555
Fe6 O31 1_555 1_555
O27_2 Fe4 1_555 1_555
O30 Fe4 1_555 1_555
O31 Fe4 1_555 1_555
O33 C12_2 1_555 1_555
C12_2 O31 1_555 1_555
H12_2 C12_2 1_555 1_555
Fe4_2 O8_2 1_555 1_555
O5_2 Fe7 1_555 1_555
O6_2 Fe13 1_555 1_555
O8_2 C4_2 1_555 1_555
O9_2 Fe7 1_555 1_555
O10_2 Fe4_2 1_555 1_555
O11_2 Fe7 1_555 1_555
O12_2 C6_2 1_555 1_555
C3_2 O5_2 1_555 1_555
H3_2 C3_2 1_555 1_555
C4_2 O26 1_555 1_555
H4_2 C4_2 1_555 1_555
C5_2 O9_2 1_555 1_555
H5_2 C5_2 1_555 1_555
C6_2 O11_2 1_555 1_555
H6_2 C6_2 1_555 1_555
Fe6 O14 1_555 1_555
O16_2 Fe10 1_555 1_555
O18_2 Fe10 1_555 1_555
O20_2 Fe13 1_555 1_555
O23 Fe6 1_555 1_555
O24_2 Fe13 1_555 1_555
O25_2 Fe10 1_555 1_555
O28_2 Fe13 1_555 1_555
O30 C11_2 1_555 1_555
C8_2 O18_2 1_555 1_555
H8_2 C8_2 1_555 1_555
C10_2 O23 1_555 1_555
H10_2 C10_2 1_555 1_555
C11_2 O28_2 1_555 1_555
H11_2 C11_2 1_555 1_555
Fe13 O9_2 1_555 1_555
Fe4_2 O11_2 1_555 1_555
O5_2 Fe12 1_555 1_555
O6_2 C3_2 1_555 1_555
O10_2 C5_2 1_555 1_555
O12_2 Fe12 1_555 1_555
Fe6 O18_2 1_555 1_555
Fe6 O25_2 1_555 1_555
Fe6 O28_2 1_555 1_555
O20_2 C8_2 1_555 1_555
O24_2 C10_2 1_555 1_555
O27 C4_3 1_555 1_555
C4_3 O25 1_555 1_555
H4_3 C4_3 1_555 1_555
O13 C1_2 1_555 1_555
O16 C1_2 1_555 1_555
C1_2 H1_2 1_555 1_555
O14 C7_2 1_555 1_555
C7_2 O16_2 1_555 1_555
H7_2 C7_2 1_555 1_555
O27_2 C4_4 1_555 1_555
C4_4 O25_2 1_555 1_555
H4_4 C4_4 1_555 1_555

#END
