
###############################################################################
#
# This file contains modified crystal structure data generated from the
# MOF subset of the Cambridge Structural Database (CSD) v543 
# hosted by the Cambridge Crystallographic Data Centre (CCDC).
#
# This work is licensed under the Creative Commons
# Attribution-NonCommercial-ShareAlike 4.0 International License.
# To view a copy of this license, visit
# http://creativecommons.org/licenses/by-nc-sa/4.0/
# or send a letter to
# Creative Commons, PO Box 1866, Mountain View, CA 94042, USA.
#
# CIF created using the CSD Python API on 29 September 2022
# The structure has been converted into the P1 space group
# The structure has a 3D framework
# The original CSD entry NIKZEN02 is in the monoclinic crystal system
# The framework has been calculated to contain at least 10.0% void space
# The void calculation uses a probe of radius 1.32A, grid spacing 0.4
#
###############################################################################

data_NIKZEN02
_chemical_formula_moiety         '(C24 H24 Fe20 O48)n'
_symmetry_cell_setting           triclinic
_symmetry_space_group_name_H-M   'P 1'
_symmetry_Int_Tables_number      1
_space_group_name_Hall           'P 1'
loop_
_symmetry_equiv_pos_site_id
_symmetry_equiv_pos_as_xyz
1 x,y,z
_cell_length_a                   11.4964(2)
_cell_length_b                   10.0205(2)
_cell_length_c                   18.5291(4)
_cell_angle_alpha                90
_cell_angle_beta                 126.7850(10)
_cell_angle_gamma                90
_cell_volume                     1709.53
loop_
_atom_site_label
_atom_site_type_symbol
_atom_site_fract_x
_atom_site_fract_y
_atom_site_fract_z
Fe14 Fe 0.0000 0.0000 0.0000
Fe14_2 Fe 0.0000 0.0000 1.0000
Fe14_3 Fe 0.0000 1.0000 0.0000
Fe14_4 Fe 0.0000 1.0000 1.0000
Fe1 Fe 0.37684(3) 0.07405(3) 0.133020(19)
Fe3 Fe 0.5000 0.0000 0.0000
O1 O 0.44578(16) 0.19145(14) 0.24934(9)
O2 O 0.56115(18) 0.05327(15) 0.36734(10)
O5 O 0.45548(16) 0.25234(14) 0.10985(10)
O6 O 0.48836(19) 0.20719(16) 0.00497(11)
O11 O 0.16550(15) 0.15193(14) 0.06550(10)
O12 O 0.20797(16) 0.36875(15) 0.10183(11)
C1 C 0.5100(2) 0.1631(2) 0.33186(15)
H1 H 0.5194 0.2313 0.3690
C3 C 0.4802(3) 0.2837(2) 0.05377(16)
H3 H 0.4937 0.3739 0.0491
C6 C 0.1275(2) 0.2722(2) 0.06105(16)
H6 H 0.0283 0.2897 0.0230
Fe7 Fe 0.62316(3) 0.57405(3) 0.366980(19)
Fe9 Fe 0.43315(3) 0.38181(3) 0.19273(2)
Fe12 Fe 0.56685(3) 0.88181(3) 0.30727(2)
Fe13 Fe 0.5000 0.5000 0.5000
Fe14_5 Fe 1.0000 0.0000 0.0000
O15 O 0.55422(16) 0.69145(14) 0.25066(9)
O17 O 0.43885(18) 0.55327(15) 0.13266(10)
O19 O 0.41474(16) 0.48391(14) 0.28580(10)
O21 O 0.32082(18) 0.49093(19) 0.36149(11)
O26 O 0.65761(15) 0.41208(14) 0.30599(10)
O29 O 0.88873(17) 0.10325(16) 0.04046(12)
C7 C 0.4900(2) 0.6631(2) 0.16814(15)
H7 H 0.4806 0.7313 0.1310
C9 C 0.3128(2) 0.4721(3) 0.29318(16)
H9 H 0.2227 0.4466 0.2417
C11 C 0.7766(3) 0.0974(2) 0.03398(16)
H11 H 0.7722 0.1500 0.0736
Fe2 Fe 0.43315(3) 0.11819(3) 0.69273(2)
Fe3_2 Fe 0.5000 0.0000 1.0000
Fe14_6 Fe 1.0000 0.0000 1.0000
O14 O 0.44578(16) 0.30855(14) 0.74934(9)
O18 O 0.41474(16) 0.01609(14) 0.78580(10)
O20 O 0.32082(18) 0.00907(19) 0.86149(11)
O23 O 0.45548(16) 0.24766(14) 0.60985(10)
O25 O 0.65761(15) 0.08792(14) 0.80599(10)
O28 O 0.66514(15) 0.02652(15) 0.97841(10)
O33 O 0.20797(16) 0.13125(15) 0.60183(11)
C8 C 0.3128(2) 0.0279(3) 0.79318(16)
H8 H 0.2227 0.0534 0.7417
Fe3_3 Fe 0.5000 1.0000 0.0000
O3 O 0.58526(16) 0.98391(14) 0.21420(10)
O4 O 0.67918(18) 0.99093(19) 0.13851(11)
O7 O 0.34239(15) 0.91208(14) 0.19401(10)
O8 O 0.10414(17) 0.88449(17) 0.11837(12)
O9 O 0.33486(15) 0.97348(15) 0.02159(10)
C2 C 0.6872(2) 0.9721(3) 0.20682(16)
H2 H 0.7773 0.9466 0.2583
C4 C 0.2309(2) 0.8610(2) 0.18114(16)
H4 H 0.2467 0.7992 0.2236
Fe14_7 Fe 1.0000 1.0000 0.0000
Fe3_4 Fe 0.5000 1.0000 1.0000
O10 O 0.11127(17) 0.89675(16) 0.95954(12)
C5 C 0.2234(3) 0.9026(2) 0.96602(16)
H5 H 0.2278 0.8500 0.9264
Fe5 Fe 0.62316(3) 0.92595(3) 0.866980(19)
Fe10 Fe 0.56685(3) 0.61819(3) 0.80727(2)
Fe14_8 Fe 1.0000 1.0000 1.0000
O13 O 0.55422(16) 0.80855(14) 0.75066(9)
O16 O 0.43885(18) 0.94673(15) 0.63266(10)
O22 O 0.54452(16) 0.74766(14) 0.89015(10)
O24 O 0.51164(19) 0.79281(16) 0.99503(11)
O32 O 0.83450(15) 0.84807(14) 0.93450(10)
C10 C 0.5198(3) 0.7163(2) 0.94623(16)
H10 H 0.5063 0.6261 0.9509
O27 O 0.89586(17) 0.11551(17) 0.88163(12)
O34 O 0.79203(16) 0.63125(15) 0.89817(11)
C12 C 0.8725(2) 0.7278(2) 0.93895(16)
H12 H 0.9717 0.7103 0.9770
Fe4 Fe 0.0000 0.5000 0.5000
Fe6 Fe 0.37684(3) 0.42595(3) 0.633020(19)
O27_2 O 0.10414(17) 0.61551(17) 0.61837(12)
O30 O 0.11127(17) 0.60325(16) 0.45954(12)
O31 O 0.16550(15) 0.34807(14) 0.56550(10)
C12_2 C 0.1275(2) 0.2278(2) 0.56105(16)
H12_2 H 0.0283 0.2103 0.5230
Fe4_2 Fe 1.0000 0.5000 0.5000
O5_2 O 0.54452(16) 0.75234(14) 0.39015(10)
O6_2 O 0.51164(19) 0.70719(16) 0.49503(11)
O8_2 O 0.89586(17) 0.38449(17) 0.38163(12)
O9_2 O 0.66514(15) 0.47348(15) 0.47841(10)
O10_2 O 0.88873(17) 0.39675(16) 0.54046(12)
O11_2 O 0.83450(15) 0.65193(14) 0.43450(10)
O12_2 O 0.79203(16) 0.86875(15) 0.39817(11)
C3_2 C 0.5198(3) 0.7837(2) 0.44623(16)
H3_2 H 0.5063 0.8739 0.4509
C4_2 C 0.7691(2) 0.3610(2) 0.31886(16)
H4_2 H 0.7533 0.2992 0.2764
C5_2 C 0.7766(3) 0.4026(2) 0.53398(16)
H5_2 H 0.7722 0.3500 0.5736
C6_2 C 0.8725(2) 0.7722(2) 0.43895(16)
H6_2 H 0.9717 0.7897 0.4770
O16_2 O 0.56115(18) 0.44673(15) 0.86734(10)
O18_2 O 0.58526(16) 0.51609(14) 0.71420(10)
O20_2 O 0.67918(18) 0.50907(19) 0.63851(11)
O24_2 O 0.48836(19) 0.29281(16) 0.50497(11)
O25_2 O 0.34239(15) 0.58792(14) 0.69401(10)
O28_2 O 0.33486(15) 0.52652(15) 0.52159(10)
C8_2 C 0.6872(2) 0.5279(3) 0.70682(16)
H8_2 H 0.7773 0.5534 0.7583
C10_2 C 0.4802(3) 0.2163(2) 0.55377(16)
H10_2 H 0.4937 0.1261 0.5491
C11_2 C 0.2234(3) 0.5974(2) 0.46602(16)
H11_2 H 0.2278 0.6500 0.4264
C4_3 C 0.7691(2) 0.1390(2) 0.81886(16)
H4_3 H 0.7533 0.2008 0.7764
C1_2 C 0.4900(2) 0.8369(2) 0.66814(15)
H1_2 H 0.4806 0.7687 0.6310
C7_2 C 0.5100(2) 0.3369(2) 0.83186(15)
H7_2 H 0.5194 0.2687 0.8690
C4_4 C 0.2309(2) 0.6390(2) 0.68114(16)
H4_4 H 0.2467 0.7008 0.7236
loop_
_geom_bond_atom_site_label_1
_geom_bond_atom_site_label_2
_geom_bond_site_symmetry_1
_geom_bond_site_symmetry_2
Fe1 O1 1_555 1_555
O1 C1 1_555 1_555
O2 C1 1_555 1_555
O5 Fe1 1_555 1_555
O6 Fe3 1_555 1_555
O11 Fe1 1_555 1_555
O12 C6 1_555 1_555
C1 H1 1_555 1_555
C3 O5 1_555 1_555
H3 C3 1_555 1_555
C6 O11 1_555 1_555
H6 C6 1_555 1_555
Fe7 O15 1_555 1_555
Fe9 O1 1_555 1_555
Fe12 O15 1_555 1_555
Fe13 O21 1_555 1_555
Fe14_5 O29 1_555 1_555
O15 C7 1_555 1_555
O17 Fe9 1_555 1_555
O19 Fe7 1_555 1_555
O21 C9 1_555 1_555
O26 Fe7 1_555 1_555
O29 C11 1_555 1_555
C7 O17 1_555 1_555
H7 C7 1_555 1_555
C9 O19 1_555 1_555
H9 C9 1_555 1_555
H11 C11 1_555 1_555
Fe14 O11 1_555 1_555
O5 Fe9 1_555 1_555
O6 C3 1_555 1_555
O12 Fe9 1_555 1_555
Fe9 O19 1_555 1_555
Fe9 O26 1_555 1_555
Fe2 O14 1_555 1_555
O18 Fe2 1_555 1_555
O20 Fe3_2 1_555 1_555
O23 Fe2 1_555 1_555
O25 Fe2 1_555 1_555
O28 Fe3_2 1_555 1_555
O33 Fe2 1_555 1_555
C8 O18 1_555 1_555
H8 C8 1_555 1_555
O20 C8 1_555 1_555
Fe3_3 O4 1_555 1_555
Fe14_3 O8 1_555 1_555
O4 C2 1_555 1_555
O8 C4 1_555 1_555
C2 O3 1_555 1_555
H2 C2 1_555 1_555
C4 O7 1_555 1_555
H4 C4 1_555 1_555
Fe3_3 O9 1_555 1_555
O3 Fe12 1_555 1_555
O7 Fe12 1_555 1_555
O10 Fe14_4 1_555 1_555
H5 C5 1_555 1_555
Fe5 O13 1_555 1_555
Fe10 O13 1_555 1_555
O22 Fe5 1_555 1_555
O24 Fe3_4 1_555 1_555
O32 Fe5 1_555 1_555
C10 O22 1_555 1_555
H10 C10 1_555 1_555
O10 C5 1_555 1_555
Fe10 O22 1_555 1_555
Fe14_8 O32 1_555 1_555
O24 C10 1_555 1_555
O27 Fe14_6 1_555 1_555
Fe10 O34 1_555 1_555
O34 C12 1_555 1_555
C12 O32 1_555 1_555
H12 C12 1_555 1_555
Fe6 O31 1_555 1_555
O27_2 Fe4 1_555 1_555
O30 Fe4 1_555 1_555
O31 Fe4 1_555 1_555
O33 C12_2 1_555 1_555
C12_2 O31 1_555 1_555
H12_2 C12_2 1_555 1_555
Fe4_2 O8_2 1_555 1_555
O5_2 Fe7 1_555 1_555
O6_2 Fe13 1_555 1_555
O8_2 C4_2 1_555 1_555
O9_2 Fe7 1_555 1_555
O10_2 Fe4_2 1_555 1_555
O11_2 Fe7 1_555 1_555
O12_2 C6_2 1_555 1_555
C3_2 O5_2 1_555 1_555
H3_2 C3_2 1_555 1_555
C4_2 O26 1_555 1_555
H4_2 C4_2 1_555 1_555
C5_2 O9_2 1_555 1_555
H5_2 C5_2 1_555 1_555
C6_2 O11_2 1_555 1_555
H6_2 C6_2 1_555 1_555
Fe6 O14 1_555 1_555
O16_2 Fe10 1_555 1_555
O18_2 Fe10 1_555 1_555
O20_2 Fe13 1_555 1_555
O23 Fe6 1_555 1_555
O24_2 Fe13 1_555 1_555
O25_2 Fe10 1_555 1_555
O28_2 Fe13 1_555 1_555
O30 C11_2 1_555 1_555
C8_2 O18_2 1_555 1_555
H8_2 C8_2 1_555 1_555
C10_2 O23 1_555 1_555
H10_2 C10_2 1_555 1_555
C11_2 O28_2 1_555 1_555
H11_2 C11_2 1_555 1_555
Fe13 O9_2 1_555 1_555
Fe4_2 O11_2 1_555 1_555
O5_2 Fe12 1_555 1_555
O6_2 C3_2 1_555 1_555
O10_2 C5_2 1_555 1_555
O12_2 Fe12 1_555 1_555
Fe6 O18_2 1_555 1_555
Fe6 O25_2 1_555 1_555
Fe6 O28_2 1_555 1_555
O20_2 C8_2 1_555 1_555
O24_2 C10_2 1_555 1_555
O27 C4_3 1_555 1_555
C4_3 O25 1_555 1_555
H4_3 C4_3 1_555 1_555
O13 C1_2 1_555 1_555
O16 C1_2 1_555 1_555
C1_2 H1_2 1_555 1_555
O14 C7_2 1_555 1_555
C7_2 O16_2 1_555 1_555
H7_2 C7_2 1_555 1_555
O27_2 C4_4 1_555 1_555
C4_4 O25_2 1_555 1_555
H4_4 C4_4 1_555 1_555

#END
