
###############################################################################
#
# This file contains modified crystal structure data generated from the
# MOF subset of the Cambridge Structural Database (CSD) v543 
# hosted by the Cambridge Crystallographic Data Centre (CCDC).
#
# This work is licensed under the Creative Commons
# Attribution-NonCommercial-ShareAlike 4.0 International License.
# To view a copy of this license, visit
# http://creativecommons.org/licenses/by-nc-sa/4.0/
# or send a letter to
# Creative Commons, PO Box 1866, Mountain View, CA 94042, USA.
#
# CIF created using the CSD Python API on 29 September 2022
# The structure has been converted into the P1 space group
# The structure has a 3D framework
# The original CSD entry NILFAS is in the monoclinic crystal system
# The framework has been calculated to contain at least 10.0% void space
# The void calculation uses a probe of radius 1.32A, grid spacing 0.4
#
###############################################################################

data_NILFAS
_chemical_formula_moiety         '(C672 H424 N48 O160 Zn30)n'
_symmetry_cell_setting           triclinic
_symmetry_space_group_name_H-M   'P 1'
_symmetry_Int_Tables_number      1
_space_group_name_Hall           'P 1'
loop_
_symmetry_equiv_pos_site_id
_symmetry_equiv_pos_as_xyz
1 x,y,z
_cell_length_a                   18.9998(6)
_cell_length_b                   18.0175(5)
_cell_length_c                   62.1271(16)
_cell_angle_alpha                90
_cell_angle_beta                 90.557(2)
_cell_angle_gamma                90
_cell_volume                     21266.9
loop_
_atom_site_label
_atom_site_type_symbol
_atom_site_fract_x
_atom_site_fract_y
_atom_site_fract_z
Zn1 Zn 0.14256(8) 0.48544(8) 0.48405(2)
Zn2 Zn 0.16092(8) 0.48348(8) 0.43668(2)
Zn3 Zn 0.43096(7) 0.52908(8) 0.90473(2)
Zn4 Zn 0.44935(7) 0.52926(8) 0.85738(2)
O1 O 0.5675(4) 0.9096(5) 0.47628(13)
O2 O 0.0793(5) 0.5515(5) 0.44353(14)
O3 O 0.0712(5) 0.5670(5) 0.47933(15)
O5 O 0.2257(5) 0.5703(5) 0.44282(14)
O7 O 0.8612(4) 0.1100(5) 0.89794(15)
O8 O 0.6009(5) 0.8923(5) 0.44166(13)
O9 O 0.3597(6) 0.4512(6) 0.89716(19)
O10 O 0.3787(6) 0.4496(6) 0.86086(16)
O11 O 0.2223(5) 0.5596(5) 0.47861(15)
O12 O 0.8729(5) 0.1098(5) 0.86213(17)
O13 O 0.0870(6) 0.4730(7) 0.59529(18)
O14 O 0.5044(6) 0.4517(6) 0.9032(2)
O15 O 0.0074(5) 0.1065(5) 0.89960(16)
C2 C 0.0547(6) 0.5838(6) 0.46001(18)
O16 O 0.0238(5) 0.1043(5) 0.86370(17)
C4 C 0.5637(6) 0.8770(6) 0.45780(18)
O17 O 0.4005(6) 0.5242(5) 0.93595(16)
H2 H 0.3707 0.5596 0.9388
H3 H 0.4359 0.5340 0.9445
N1 N 0.2064(6) 0.4732(7) 0.5952(2)
H4 H 0.2422 0.4725 0.5868
C7 C 0.1951(3) 0.4389(4) 0.52740(11)
H6 H 0.2300 0.4149 0.5196
N2 N 0.1430(4) 0.4789(4) 0.51668(8)
C8 C 0.0909(3) 0.5147(4) 0.52831(11)
H7 H 0.0560 0.5415 0.5211
C9 C 0.0908(4) 0.5104(5) 0.55065(11)
H8 H 0.0560 0.5343 0.5584
C10 C 0.1430(4) 0.4703(5) 0.56136(8)
C11 C 0.1951(4) 0.4346(5) 0.54974(11)
H9 H 0.2300 0.4078 0.5569
C13 C 0.3003(6) 0.6449(7) 0.46377(19)
C16 C 0.5106(6) 0.8164(6) 0.45559(18)
C18 C 0.4602(7) 0.8052(8) 0.4716(2)
H12 H 0.4634 0.8327 0.4842
C19 C 0.3532(6) 0.7420(7) 0.4853(2)
H13 H 0.3532 0.7718 0.4975
O18 O 0.5206(6) 0.4535(7) 0.8671(2)
C20 C 0.0951(8) 0.1847(8) 0.8854(2)
C21 C 0.2435(7) 0.5867(7) 0.46164(19)
C22 C 0.1986(7) 0.2936(7) 0.8906(2)
C23 C 0.3457(7) 0.4267(8) 0.8778(2)
H15 H 0.0166 0.6585 0.4243
C26 C 0.1017(7) 0.2210(8) 0.9049(2)
H16 H 0.0719 0.2095 0.9162
C27 C 0.6704(8) 0.3023(8) 0.9107(2)
H17 H 0.6848 0.2867 0.9243
C28 C 0.0015(6) 0.6434(6) 0.45692(19)
C29 C 0.2511(6) 0.3489(6) 0.8930(2)
H18 H 0.2571 0.3734 0.9061
C30 C 0.4051(6) 0.7543(7) 0.4692(2)
C31 C 0.3037(6) 0.6881(7) 0.4832(2)
H19 H 0.2721 0.6793 0.4943
C32 C 0.3523(7) 0.6562(8) 0.4474(2)
H20 H 0.3486 0.6301 0.4346
C33 C 0.4592(7) 0.7186(8) 0.4346(2)
H21 H 0.4586 0.6906 0.4220
C34 C 0.4079(6) 0.7050(8) 0.4505(2)
C35 C 0.2207(5) 0.4765(6) 0.61707(13)
C36 C 0.1768(5) 0.4473(7) 0.63270(17)
H22 H 0.1349 0.4242 0.6287
C37 C 0.1955(6) 0.4526(8) 0.65433(15)
H23 H 0.1661 0.4331 0.6648
C38 C 0.2581(7) 0.4871(7) 0.66033(12)
C39 C 0.3020(5) 0.5163(6) 0.64469(17)
H24 H 0.3439 0.5394 0.6487
C40 C 0.2833(5) 0.5110(6) 0.62306(15)
H25 H 0.3127 0.5305 0.6126
C41 C 0.1547(8) 0.2762(8) 0.9074(2)
H26 H 0.1599 0.3007 0.9205
C42 C 0.1410(7) 0.4709(8) 0.5853(2)
C43 C 0.5915(9) 0.3752(9) 0.8885(3)
C44 C 0.1336(7) 0.2028(9) 0.8684(2)
H27 H 0.1256 0.1790 0.8553
C45 C 0.8491(6) 0.1336(6) 0.8795(2)
C46 C 0.7576(8) 0.2197(8) 0.8948(2)
H28 H 0.7710 0.2027 0.9083
C47 C 0.7903(6) 0.1926(7) 0.8769(2)
C48 C 0.5090(7) 0.7717(8) 0.4373(2)
H29 H 0.5428 0.7784 0.4268
C49 C 0.0369(7) 0.1281(8) 0.8824(3)
C50 C 0.7039(7) 0.2733(8) 0.8928(2)
C51 C 0.2931(7) 0.3662(8) 0.8758(2)
C52 C 0.7711(9) 0.2210(10) 0.8556(3)
H30 H 0.7937 0.2035 0.8434
C53 C 0.6151(8) 0.3547(9) 0.9090(3)
H31 H 0.5949 0.3750 0.9213
C54 C 0.6844(9) 0.2975(9) 0.8718(3)
C55 C 0.1881(8) 0.2594(7) 0.8701(2)
C56 C 0.5356(8) 0.4301(7) 0.8858(3)
C57 C 0.2822(10) 0.3334(10) 0.8553(3)
H32 H 0.3090 0.3482 0.8436
C58 C 0.6243(9) 0.3477(9) 0.8697(3)
H33 H 0.6076 0.3614 0.8561
C59 C 0.2332(11) 0.2809(9) 0.8531(3)
H34 H 0.2283 0.2574 0.8398
C60 C 0.0755(5) 0.4908(9) 0.37258(19)
H35 H 0.0314 0.4977 0.3662
C61 C 0.0831(4) 0.4938(8) 0.39484(18)
H36 H 0.0441 0.5027 0.4034
N3 N 0.1490(4) 0.4835(5) 0.40430(11)
C62 C 0.2073(4) 0.4703(5) 0.39150(13)
H37 H 0.2513 0.4634 0.3978
C63 C 0.1996(6) 0.4673(6) 0.36924(13)
H38 H 0.2386 0.4584 0.3607
C64 C 0.1338(7) 0.4775(8) 0.35978(12)
C65 C 0.7226(12) 0.2707(13) 0.8539(3)
H39 H 0.7122 0.2900 0.8404
C66 C 0.4878(5) 0.5590(10) 0.8106(2)
H40 H 0.5323 0.5720 0.8157
C67 C 0.4719(8) 0.5653(13) 0.78881(18)
H41 H 0.5058 0.5824 0.7793
C68 C 0.4054(9) 0.5459(13) 0.78119(14)
C69 C 0.3548(7) 0.5203(10) 0.7954(2)
H42 H 0.3102 0.5074 0.7903
C70 C 0.3707(5) 0.5141(7) 0.81719(18)
H43 H 0.3368 0.4969 0.8267
N4 N 0.4372(5) 0.5334(5) 0.82481(14)
O19 O 0.422(3) 0.600(3) 0.7493(10)
N5 N 0.328(2) 0.539(2) 0.7483(5)
H44 H 0.2910 0.5352 0.7563
C71 C 0.387(2) 0.557(3) 0.7597(5)
O20 O 0.1878(12) 0.4927(13) 0.3257(3)
C72 C 0.1357(13) 0.4847(7) 0.3365(3)
N6 N 0.0708(14) 0.4818(14) 0.3267(3)
H45 H 0.0361 0.4760 0.3353
C73 C 0.2462(14) 0.4612(15) 0.6994(5)
H46 H 0.2108 0.4278 0.6956
C74 C 0.2853(15) 0.4955(15) 0.6834(4)
C75 C 0.3382(15) 0.5454(16) 0.6890(5)
H47 H 0.3644 0.5683 0.6783
C76 C 0.3521(15) 0.5608(17) 0.7105(5)
H48 H 0.3875 0.5942 0.7143
C77 C 0.3130(17) 0.5265(17) 0.7265(4)
C78 C 0.2601(16) 0.4766(17) 0.7209(4)
H49 H 0.2339 0.4537 0.7316
C79 C 0.0820(11) 0.502(3) 0.2675(3)
H50 H 0.1157 0.5030 0.2568
C80 C 0.0114(12) 0.512(3) 0.2624(2)
C83 C 0.0520(15) 0.4870(19) 0.3049(3)
C84 C 0.1023(13) 0.489(3) 0.2888(3)
H53 H 0.1496 0.4818 0.2922
C93 C 0.0389(12) 0.510(3) 0.2215(3)
H60 H 0.0862 0.5174 0.2250
C94 C 0.0186(14) 0.498(2) 0.2003(2)
H61 H 0.0523 0.4963 0.1895
O25 O 0.2517(5) 0.9196(5) 0.05564(14)
O27 O 0.2859(4) 0.9031(4) 0.02116(13)
C97 C 0.2479(6) 0.8910(6) 0.03750(19)
C99 C 0.1831(6) 0.7954(6) 0.01389(18)
H63 H 0.2126 0.8073 0.0026
C101 C 0.1915(6) 0.8308(6) 0.03406(18)
C102 C 0.1520(6) 0.8080(7) 0.05165(19)
H67 H 0.1598 0.8294 0.0651
C108 C 0.1003(6) 0.7527(6) 0.04914(19)
C110 C 0.0389(6) 0.6633(6) 0.02598(19)
H72 H 0.0327 0.6400 0.0127
C111 C 0.1315(5) 0.7438(6) 0.01112(18)
C113 C 0.0902(6) 0.7196(6) 0.02853(18)
C120 C 0.0598(6) 0.7266(7) 0.0666(2)
H76 H 0.0680 0.7463 0.0802
C121 C 0.0099(7) 0.6743(8) 0.0640(2)
Zn10 Zn 0.64256(8) 0.98544(8) 0.48405(2)
Zn12 Zn 0.35744(8) 0.98544(8) 0.01595(2)
Zn14 Zn 0.66092(8) 0.98348(8) 0.43668(2)
Zn16 Zn 0.33908(8) 0.98348(8) 0.06332(2)
Zn18 Zn 0.93096(7) 0.02908(8) 0.90473(2)
Zn22 Zn 0.94935(7) 0.02926(8) 0.85738(2)
O41 O 0.0675(4) 0.4096(5) 0.47628(13)
O43 O 0.2483(5) 0.4196(5) 0.44436(14)
O45 O 0.2141(4) 0.4031(4) 0.47884(13)
O47 O 0.3612(4) 0.6100(5) 0.89794(15)
O49 O 0.1009(5) 0.3923(5) 0.44166(13)
O51 O 0.3729(5) 0.6098(5) 0.86213(17)
O53 O 0.5074(5) 0.6065(5) 0.89960(16)
O55 O 0.5238(5) 0.6043(5) 0.86370(17)
O4 O 0.7483(5) 0.9196(5) 0.44436(14)
O6 O 0.7141(4) 0.9031(4) 0.47884(13)
C1 C 0.7521(6) 0.8910(6) 0.46250(19)
C3 C 0.8169(6) 0.7954(6) 0.48611(18)
H1 H 0.7874 0.8073 0.4974
C5 C 0.8085(6) 0.8308(6) 0.46594(18)
C6 C 0.8480(6) 0.8080(7) 0.44835(19)
H5 H 0.8402 0.8294 0.4349
C12 C 0.8997(6) 0.7527(6) 0.45086(19)
C14 C 0.9611(6) 0.6633(6) 0.47402(19)
H10 H 0.9673 0.6400 0.4873
C15 C 0.8685(5) 0.7438(6) 0.48888(18)
H11 H 0.8768 0.7241 0.5025
C17 C 0.9098(6) 0.7196(6) 0.47147(18)
C24 C 0.9402(6) 0.7266(7) 0.4334(2)
H14 H 0.9320 0.7463 0.4198
C25 C 0.9901(7) 0.6743(8) 0.4360(2)
C81 C 0.9611(12) 0.510(3) 0.2785(3)
H51 H 0.9138 0.5174 0.2750
C82 C 0.9814(14) 0.498(2) 0.2997(2)
H52 H 0.9477 0.4963 0.3105
C85 C 0.9245(5) 0.4908(9) 0.12742(19)
H54 H 0.9686 0.4977 0.1338
C86 C 0.9169(4) 0.4938(8) 0.10516(18)
H55 H 0.9559 0.5027 0.0966
N7 N 0.8510(4) 0.4835(5) 0.09570(11)
C87 C 0.7927(4) 0.4703(5) 0.10850(13)
H56 H 0.7487 0.4634 0.1022
C88 C 0.8004(6) 0.4673(6) 0.13076(13)
H57 H 0.7614 0.4584 0.1393
C89 C 0.8662(7) 0.4775(8) 0.14022(12)
O21 O 0.8122(12) 0.4927(13) 0.1743(3)
C90 C 0.8643(13) 0.4847(7) 0.1635(3)
N8 N 0.9292(14) 0.4818(14) 0.1733(3)
H58 H 0.9639 0.4760 0.1647
C91 C 0.9180(11) 0.502(3) 0.2325(3)
H59 H 0.8843 0.5030 0.2432
C92 C 0.9886(12) 0.512(3) 0.2376(2)
C95 C 0.9480(15) 0.4870(19) 0.1951(3)
C96 C 0.8977(13) 0.489(3) 0.2112(3)
H62 H 0.8504 0.4818 0.2078
Zn5 Zn 0.85744(8) 0.48544(8) 0.01595(2)
Zn6 Zn 0.83908(8) 0.48348(8) 0.06332(2)
O22 O 0.4325(4) 0.9096(5) 0.02372(13)
O23 O 0.9207(5) 0.5515(5) 0.05647(14)
O24 O 0.9288(5) 0.5670(5) 0.02067(15)
O26 O 0.7743(5) 0.5703(5) 0.05718(14)
O29 O 0.3991(5) 0.8923(5) 0.05834(13)
O32 O 0.7777(5) 0.5596(5) 0.02139(15)
C98 C 0.9453(6) 0.5838(6) 0.03999(18)
C100 C 0.4363(6) 0.8770(6) 0.04220(18)
C109 C 0.6997(6) 0.6449(7) 0.03623(19)
C112 C 0.4894(6) 0.8164(6) 0.04441(18)
C114 C 0.5398(7) 0.8052(8) 0.0284(2)
H74 H 0.5366 0.8327 0.0158
C115 C 0.6468(6) 0.7420(7) 0.0147(2)
H75 H 0.6468 0.7718 0.0025
C117 C 0.7565(7) 0.5867(7) 0.03836(19)
H77 H 0.9834 0.6585 0.0757
C124 C 0.9985(6) 0.6434(6) 0.04308(19)
C126 C 0.5949(6) 0.7543(7) 0.0308(2)
C127 C 0.6963(6) 0.6881(7) 0.0168(2)
H81 H 0.7279 0.6793 0.0057
C128 C 0.6477(7) 0.6562(8) 0.0526(2)
H82 H 0.6514 0.6301 0.0654
C129 C 0.5408(7) 0.7186(8) 0.0654(2)
H83 H 0.5414 0.6906 0.0780
C130 C 0.5921(6) 0.7050(8) 0.0495(2)
C144 C 0.4910(7) 0.7717(8) 0.0627(2)
H91 H 0.4572 0.7784 0.0732
O42 O 0.9325(4) 0.4096(5) 0.02372(13)
O44 O 0.7517(5) 0.4196(5) 0.05564(14)
O46 O 0.7859(4) 0.4031(4) 0.02116(13)
O50 O 0.8991(5) 0.3923(5) 0.05834(13)
C4_2 C 0.0637(6) 0.3770(6) 0.45780(18)
C16_2 C 0.0106(6) 0.3164(6) 0.45559(18)
C48_2 C 0.0090(7) 0.2717(8) 0.4373(2)
H29_2 H 0.0428 0.2784 0.4268
H40_2 H 0.0323 0.0720 0.8157
H41_2 H 0.0058 0.0824 0.7793
O14_2 O 0.0044(6) 0.9517(6) 0.9032(2)
O18_2 O 0.0206(6) 0.9535(7) 0.8671(2)
C27_2 C 0.1704(8) 0.8023(8) 0.9107(2)
H17_2 H 0.1848 0.7867 0.9243
C43_2 C 0.0915(9) 0.8752(9) 0.8885(3)
C45_2 C 0.3491(6) 0.6336(6) 0.8795(2)
C46_2 C 0.2576(8) 0.7197(8) 0.8948(2)
H28_2 H 0.2710 0.7027 0.9083
C47_2 C 0.2903(6) 0.6926(7) 0.8769(2)
C50_2 C 0.2039(7) 0.7733(8) 0.8928(2)
C52_2 C 0.2711(9) 0.7210(10) 0.8556(3)
H30_2 H 0.2937 0.7035 0.8434
C53_2 C 0.1151(8) 0.8547(9) 0.9090(3)
H31_2 H 0.0949 0.8750 0.9213
C54_2 C 0.1844(9) 0.7975(9) 0.8718(3)
C56_2 C 0.0356(8) 0.9301(7) 0.8858(3)
C58_2 C 0.1243(9) 0.8477(9) 0.8697(3)
H33_2 H 0.1076 0.8614 0.8561
C65_2 C 0.2226(12) 0.7707(13) 0.8539(3)
H39_2 H 0.2122 0.7900 0.8404
O2_2 O 0.5793(5) 0.0515(5) 0.44353(14)
O3_2 O 0.5712(5) 0.0670(5) 0.47933(15)
O5_2 O 0.7257(5) 0.0703(5) 0.44282(14)
O11_2 O 0.7223(5) 0.0596(5) 0.47861(15)
C1_2 C 0.2521(6) 0.3910(6) 0.46250(19)
C2_2 C 0.5547(6) 0.0838(6) 0.46001(18)
C3_2 C 0.3169(6) 0.2954(6) 0.48611(18)
H1_2 H 0.2874 0.3073 0.4974
O17_2 O 0.9005(6) 0.0242(5) 0.93595(16)
H2_2 H 0.8707 0.0596 0.9388
H3_2 H 0.9359 0.0340 0.9445
C5_2 C 0.3085(6) 0.3308(6) 0.46594(18)
C6_2 C 0.3480(6) 0.3080(7) 0.44835(19)
H5_2 H 0.3402 0.3294 0.4349
C8_2 C 0.5909(3) 0.0147(4) 0.52831(11)
H7_2 H 0.5560 0.0415 0.5211
C9_2 C 0.5908(4) 0.0104(5) 0.55065(11)
H8_2 H 0.5560 0.0343 0.5584
C12_2 C 0.3997(6) 0.2527(6) 0.45086(19)
C13_2 C 0.8003(6) 0.1449(7) 0.46377(19)
C14_2 C 0.4611(6) 0.1633(6) 0.47402(19)
H10_2 H 0.4673 0.1400 0.4873
C15_2 C 0.3685(5) 0.2438(6) 0.48888(18)
H11_2 H 0.3768 0.2241 0.5025
C17_2 C 0.4098(6) 0.2196(6) 0.47147(18)
C18_2 C 0.9602(7) 0.3052(8) 0.4716(2)
H12_2 H 0.9634 0.3327 0.4842
C19_2 C 0.8532(6) 0.2420(7) 0.4853(2)
H13_2 H 0.8532 0.2718 0.4975
C21_2 C 0.7435(7) 0.0867(7) 0.46164(19)
C24_2 C 0.4402(6) 0.2266(7) 0.4334(2)
H14_2 H 0.4320 0.2463 0.4198
C25_2 C 0.4901(7) 0.1743(8) 0.4360(2)
H15_2 H 0.5166 0.1585 0.4243
C28_2 C 0.5015(6) 0.1434(6) 0.45692(19)
C30_2 C 0.9051(6) 0.2543(7) 0.4692(2)
C31_2 C 0.8037(6) 0.1881(7) 0.4832(2)
H19_2 H 0.7721 0.1793 0.4943
C32_2 C 0.8523(7) 0.1562(8) 0.4474(2)
H20_2 H 0.8486 0.1301 0.4346
C33_2 C 0.9592(7) 0.2186(8) 0.4346(2)
H21_2 H 0.9586 0.1906 0.4220
C34_2 C 0.9079(6) 0.2050(8) 0.4505(2)
C39_2 C 0.8020(5) 0.0163(6) 0.64469(17)
H24_2 H 0.8439 0.0394 0.6487
C40_2 C 0.7833(5) 0.0110(6) 0.62306(15)
H25_2 H 0.8127 0.0305 0.6126
H36_2 H 0.5441 0.0027 0.4034
C66_2 C 0.9878(5) 0.0590(10) 0.8106(2)
C67_2 C 0.9719(8) 0.0653(13) 0.78881(18)
C68_2 C 0.9054(9) 0.0459(13) 0.78119(14)
C69_2 C 0.8548(7) 0.0203(10) 0.7954(2)
H42_2 H 0.8102 0.0074 0.7903
C70_2 C 0.8707(5) 0.0141(7) 0.81719(18)
N4_2 N 0.9372(5) 0.0334(5) 0.82481(14)
O19_2 O 0.922(3) 0.100(3) 0.7493(10)
N5_2 N 0.828(2) 0.039(2) 0.7483(5)
H44_2 H 0.7910 0.0352 0.7563
C71_2 C 0.887(2) 0.057(3) 0.7597(5)
C75_2 C 0.8382(15) 0.0454(16) 0.6890(5)
H47_2 H 0.8644 0.0683 0.6783
C76_2 C 0.8521(15) 0.0608(17) 0.7105(5)
H48_2 H 0.8875 0.0942 0.7143
C77_2 C 0.8130(17) 0.0265(17) 0.7265(4)
C79_2 C 0.5820(11) 0.002(3) 0.2675(3)
H50_2 H 0.6157 0.0030 0.2568
C80_2 C 0.5114(12) 0.012(3) 0.2624(2)
C81_2 C 0.4611(12) 0.010(3) 0.2785(3)
H51_2 H 0.4138 0.0174 0.2750
H55_2 H 0.4559 0.0027 0.0966
C91_2 C 0.4180(11) 0.002(3) 0.2325(3)
H59_2 H 0.3843 0.0030 0.2432
C92_2 C 0.4886(12) 0.012(3) 0.2376(2)
C93_2 C 0.5389(12) 0.010(3) 0.2215(3)
H60_2 H 0.5862 0.0174 0.2250
O23_2 O 0.4207(5) 0.0515(5) 0.05647(14)
O24_2 O 0.4288(5) 0.0670(5) 0.02067(15)
O26_2 O 0.2743(5) 0.0703(5) 0.05718(14)
O32_2 O 0.2777(5) 0.0596(5) 0.02139(15)
C97_2 C 0.7479(6) 0.3910(6) 0.03750(19)
C98_2 C 0.4453(6) 0.0838(6) 0.03999(18)
C99_2 C 0.6831(6) 0.2954(6) 0.01389(18)
H63_2 H 0.7126 0.3073 0.0026
C101_2 C 0.6915(6) 0.3308(6) 0.03406(18)
C102_2 C 0.6520(6) 0.3080(7) 0.05165(19)
H67_2 H 0.6598 0.3294 0.0651
C108_2 C 0.6003(6) 0.2527(6) 0.04914(19)
C109_2 C 0.1997(6) 0.1449(7) 0.03623(19)
C110_2 C 0.5389(6) 0.1633(6) 0.02598(19)
H72_2 H 0.5327 0.1400 0.0127
C111_2 C 0.6315(5) 0.2438(6) 0.01112(18)
C113_2 C 0.5902(6) 0.2196(6) 0.02853(18)
C114_2 C 0.0398(7) 0.3052(8) 0.0284(2)
H74_2 H 0.0366 0.3327 0.0158
C115_2 C 0.1468(6) 0.2420(7) 0.0147(2)
H75_2 H 0.1468 0.2718 0.0025
C117_2 C 0.2565(7) 0.0867(7) 0.03836(19)
C120_2 C 0.5598(6) 0.2266(7) 0.0666(2)
H76_2 H 0.5680 0.2463 0.0802
C121_2 C 0.5099(7) 0.1743(8) 0.0640(2)
H77_2 H 0.4834 0.1585 0.0757
C124_2 C 0.4985(6) 0.1434(6) 0.04308(19)
C126_2 C 0.0949(6) 0.2543(7) 0.0308(2)
C127_2 C 0.1963(6) 0.1881(7) 0.0168(2)
H81_2 H 0.2279 0.1793 0.0057
C128_2 C 0.1477(7) 0.1562(8) 0.0526(2)
H82_2 H 0.1514 0.1301 0.0654
C129_2 C 0.0408(7) 0.2186(8) 0.0654(2)
H83_2 H 0.0414 0.1906 0.0780
C130_2 C 0.0921(6) 0.2050(8) 0.0495(2)
O9_2 O 0.8597(6) 0.9512(6) 0.89716(19)
O10_2 O 0.8787(6) 0.9496(6) 0.86086(16)
O13_2 O 0.5870(6) 0.9730(7) 0.59529(18)
N1_2 N 0.7064(6) 0.9732(7) 0.5952(2)
H4_2 H 0.7422 0.9725 0.5868
C7_2 C 0.6951(3) 0.9389(4) 0.52740(11)
H6_2 H 0.7300 0.9149 0.5196
N2_2 N 0.6430(4) 0.9789(4) 0.51668(8)
C10_2 C 0.6430(4) 0.9703(5) 0.56136(8)
C11_2 C 0.6951(4) 0.9346(5) 0.54974(11)
H9_2 H 0.7300 0.9078 0.5569
C20_2 C 0.5951(8) 0.6847(8) 0.8854(2)
C22_2 C 0.6986(7) 0.7936(7) 0.8906(2)
C23_2 C 0.8457(7) 0.9267(8) 0.8778(2)
C26_2 C 0.6017(7) 0.7210(8) 0.9049(2)
H16_2 H 0.5719 0.7095 0.9162
C29_2 C 0.7511(6) 0.8489(6) 0.8930(2)
H18_2 H 0.7571 0.8734 0.9061
C35_2 C 0.7207(5) 0.9765(6) 0.61707(13)
C36_2 C 0.6768(5) 0.9473(7) 0.63270(17)
H22_2 H 0.6349 0.9242 0.6287
C37_2 C 0.6955(6) 0.9526(8) 0.65433(15)
H23_2 H 0.6661 0.9331 0.6648
C38_2 C 0.7581(7) 0.9871(7) 0.66033(12)
C41_2 C 0.6547(8) 0.7762(8) 0.9074(2)
H26_2 H 0.6599 0.8007 0.9205
C42_2 C 0.6410(7) 0.9709(8) 0.5853(2)
C44_2 C 0.6336(7) 0.7028(9) 0.8684(2)
H27_2 H 0.6256 0.6790 0.8553
C49_2 C 0.5369(7) 0.6281(8) 0.8824(3)
C51_2 C 0.7931(7) 0.8662(8) 0.8758(2)
C55_2 C 0.6881(8) 0.7594(7) 0.8701(2)
C57_2 C 0.7822(10) 0.8334(10) 0.8553(3)
H32_2 H 0.8090 0.8482 0.8436
C59_2 C 0.7332(11) 0.7809(9) 0.8531(3)
H34_2 H 0.7283 0.7574 0.8398
C60_2 C 0.5755(5) 0.9908(9) 0.37258(19)
H35_2 H 0.5314 0.9977 0.3662
C61_2 C 0.5831(4) 0.9938(8) 0.39484(18)
N3_2 N 0.6490(4) 0.9835(5) 0.40430(11)
C62_2 C 0.7073(4) 0.9703(5) 0.39150(13)
H37_2 H 0.7513 0.9634 0.3978
C63_2 C 0.6996(6) 0.9673(6) 0.36924(13)
H38_2 H 0.7386 0.9584 0.3607
C64_2 C 0.6338(7) 0.9775(8) 0.35978(12)
H43_2 H 0.8368 0.9969 0.8267
O20_2 O 0.6878(12) 0.9927(13) 0.3257(3)
C72_2 C 0.6357(13) 0.9847(7) 0.3365(3)
N6_2 N 0.5708(14) 0.9818(14) 0.3267(3)
H45_2 H 0.5361 0.9760 0.3353
C73_2 C 0.7462(14) 0.9612(15) 0.6994(5)
H46_2 H 0.7108 0.9278 0.6956
C74_2 C 0.7853(15) 0.9955(15) 0.6834(4)
C78_2 C 0.7601(16) 0.9766(17) 0.7209(4)
H49_2 H 0.7339 0.9537 0.7316
C82_2 C 0.4814(14) 0.998(2) 0.2997(2)
H52_2 H 0.4477 0.9963 0.3105
C83_2 C 0.5520(15) 0.9870(19) 0.3049(3)
C84_2 C 0.6023(13) 0.989(3) 0.2888(3)
H53_2 H 0.6496 0.9818 0.2922
C85_2 C 0.4245(5) 0.9908(9) 0.12742(19)
H54_2 H 0.4686 0.9977 0.1338
C86_2 C 0.4169(4) 0.9938(8) 0.10516(18)
N7_2 N 0.3510(4) 0.9835(5) 0.09570(11)
C87_2 C 0.2927(4) 0.9703(5) 0.10850(13)
H56_2 H 0.2487 0.9634 0.1022
C88_2 C 0.3004(6) 0.9673(6) 0.13076(13)
H57_2 H 0.2614 0.9584 0.1393
C89_2 C 0.3662(7) 0.9775(8) 0.14022(12)
O21_2 O 0.3122(12) 0.9927(13) 0.1743(3)
C90_2 C 0.3643(13) 0.9847(7) 0.1635(3)
N8_2 N 0.4292(14) 0.9818(14) 0.1733(3)
H58_2 H 0.4639 0.9760 0.1647
C94_2 C 0.5186(14) 0.998(2) 0.2003(2)
H61_2 H 0.5523 0.9963 0.1895
C95_2 C 0.4480(15) 0.9870(19) 0.1951(3)
C96_2 C 0.3977(13) 0.989(3) 0.2112(3)
H62_2 H 0.3504 0.9818 0.2078
C100_2 C 0.9363(6) 0.3770(6) 0.04220(18)
C112_2 C 0.9894(6) 0.3164(6) 0.04441(18)
C144_2 C 0.9910(7) 0.2717(8) 0.0627(2)
H91_2 H 0.9572 0.2784 0.0732
H73 H 0.1232 0.7241 0.9975
Zn20 Zn 0.06904(7) 0.02908(8) 0.59527(2)
Zn24 Zn 0.05065(7) 0.02926(8) 0.64262(2)
Zn7 Zn 0.56904(7) 0.52908(8) 0.59527(2)
Zn8 Zn 0.55065(7) 0.52926(8) 0.64262(2)
O28 O 0.1388(4) 0.1100(5) 0.60206(15)
O30 O 0.6403(6) 0.4512(6) 0.60284(19)
O31 O 0.6213(6) 0.4496(6) 0.63914(16)
O33 O 0.1271(5) 0.1098(5) 0.63787(17)
O34 O 0.9130(6) 0.4730(7) 0.90471(18)
O35 O 0.4956(6) 0.4517(6) 0.5968(2)
O36 O 0.9926(5) 0.1065(5) 0.60040(16)
O37 O 0.9762(5) 0.1043(5) 0.63630(17)
O38 O 0.5995(6) 0.5242(5) 0.56405(16)
H64 H 0.6293 0.5596 0.5612
H65 H 0.5641 0.5340 0.5555
N9 N 0.7936(6) 0.4732(7) 0.9048(2)
H66 H 0.7578 0.4725 0.9132
C103 C 0.8049(3) 0.4389(4) 0.97260(11)
H68 H 0.7700 0.4149 0.9804
N10 N 0.8570(4) 0.4789(4) 0.98332(8)
C104 C 0.9091(3) 0.5147(4) 0.97169(11)
H69 H 0.9440 0.5415 0.9789
C105 C 0.9092(4) 0.5104(5) 0.94935(11)
H70 H 0.9440 0.5343 0.9416
C106 C 0.8570(4) 0.4703(5) 0.93864(8)
C107 C 0.8049(4) 0.4346(5) 0.95026(11)
H71 H 0.7700 0.4078 0.9431
O39 O 0.4794(6) 0.4535(7) 0.6329(2)
C116 C 0.9049(8) 0.1847(8) 0.6146(2)
C118 C 0.8014(7) 0.2936(7) 0.6094(2)
C119 C 0.6543(7) 0.4267(8) 0.6222(2)
C122 C 0.8983(7) 0.2210(8) 0.5951(2)
H78 H 0.9281 0.2095 0.5838
C123 C 0.3296(8) 0.3023(8) 0.5893(2)
H79 H 0.3152 0.2867 0.5757
C125 C 0.7489(6) 0.3489(6) 0.6070(2)
H80 H 0.7429 0.3734 0.5939
C131 C 0.7793(5) 0.4765(6) 0.88293(13)
C132 C 0.8232(5) 0.4473(7) 0.86730(17)
H84 H 0.8651 0.4242 0.8713
C133 C 0.8045(6) 0.4526(8) 0.84567(15)
H85 H 0.8339 0.4331 0.8352
C134 C 0.7419(7) 0.4871(7) 0.83967(12)
C135 C 0.6980(5) 0.5163(6) 0.85531(17)
H86 H 0.6561 0.5394 0.8513
C136 C 0.7167(5) 0.5110(6) 0.87694(15)
H87 H 0.6873 0.5305 0.8874
C137 C 0.8453(8) 0.2762(8) 0.5926(2)
H88 H 0.8401 0.3007 0.5795
C138 C 0.8590(7) 0.4709(8) 0.9147(2)
C139 C 0.4085(9) 0.3752(9) 0.6115(3)
C140 C 0.8664(7) 0.2028(9) 0.6316(2)
H89 H 0.8744 0.1790 0.6447
C141 C 0.1509(6) 0.1336(6) 0.6205(2)
C142 C 0.2424(8) 0.2197(8) 0.6052(2)
H90 H 0.2290 0.2027 0.5917
C143 C 0.2097(6) 0.1926(7) 0.6231(2)
C145 C 0.9631(7) 0.1281(8) 0.6176(3)
C146 C 0.2961(7) 0.2733(8) 0.6072(2)
C147 C 0.7069(7) 0.3662(8) 0.6242(2)
C148 C 0.2289(9) 0.2210(10) 0.6444(3)
H92 H 0.2063 0.2035 0.6566
C149 C 0.3849(8) 0.3547(9) 0.5910(3)
H93 H 0.4051 0.3750 0.5787
C150 C 0.3156(9) 0.2975(9) 0.6282(3)
C151 C 0.8119(8) 0.2594(7) 0.6299(2)
C152 C 0.4644(8) 0.4301(7) 0.6142(3)
C153 C 0.7178(10) 0.3334(10) 0.6447(3)
H94 H 0.6910 0.3482 0.6564
C154 C 0.3757(9) 0.3477(9) 0.6303(3)
H95 H 0.3924 0.3614 0.6439
C155 C 0.7668(11) 0.2809(9) 0.6469(3)
H96 H 0.7717 0.2574 0.6602
C156 C 0.2774(12) 0.2707(13) 0.6461(3)
H97 H 0.2878 0.2900 0.6596
C157 C 0.5122(5) 0.5590(10) 0.6894(2)
H98 H 0.4677 0.5720 0.6843
C158 C 0.5281(8) 0.5653(13) 0.71119(18)
H99 H 0.4942 0.5824 0.7207
C159 C 0.5946(9) 0.5459(13) 0.71881(14)
C160 C 0.6452(7) 0.5203(10) 0.7046(2)
H100 H 0.6898 0.5074 0.7097
C161 C 0.6293(5) 0.5141(7) 0.68281(18)
H101 H 0.6632 0.4969 0.6733
N11 N 0.5628(5) 0.5334(5) 0.67519(14)
O40 O 0.578(3) 0.600(3) 0.7507(10)
N12 N 0.672(2) 0.539(2) 0.7517(5)
H102 H 0.7090 0.5352 0.7437
C162 C 0.613(2) 0.557(3) 0.7403(5)
C163 C 0.7538(14) 0.4612(15) 0.8006(5)
H103 H 0.7892 0.4278 0.8044
C164 C 0.7147(15) 0.4955(15) 0.8166(4)
C165 C 0.6618(15) 0.5454(16) 0.8110(5)
H104 H 0.6356 0.5683 0.8217
C166 C 0.6479(15) 0.5608(17) 0.7895(5)
H105 H 0.6125 0.5942 0.7857
C167 C 0.6870(17) 0.5265(17) 0.7735(4)
C168 C 0.7399(16) 0.4766(17) 0.7791(4)
H106 H 0.7661 0.4537 0.7684
O48 O 0.6388(4) 0.6100(5) 0.60206(15)
O52 O 0.6271(5) 0.6098(5) 0.63787(17)
O54 O 0.4926(5) 0.6065(5) 0.60040(16)
O56 O 0.4762(5) 0.6043(5) 0.63630(17)
O38_2 O 0.0995(6) 0.0242(5) 0.56405(16)
H64_2 H 0.1293 0.0596 0.5612
H65_2 H 0.0641 0.0340 0.5555
C104_2 C 0.4091(3) 0.0147(4) 0.97169(11)
H69_2 H 0.4440 0.0415 0.9789
C105_2 C 0.4092(4) 0.0104(5) 0.94935(11)
H70_2 H 0.4440 0.0343 0.9416
H73_2 H 0.6232 0.2241 0.9975
C135_2 C 0.1980(5) 0.0163(6) 0.85531(17)
H86_2 H 0.1561 0.0394 0.8513
C136_2 C 0.2167(5) 0.0110(6) 0.87694(15)
H87_2 H 0.1873 0.0305 0.8874
C157_2 C 0.0122(5) 0.0590(10) 0.6894(2)
C158_2 C 0.0281(8) 0.0653(13) 0.71119(18)
C159_2 C 0.0946(9) 0.0459(13) 0.71881(14)
C160_2 C 0.1452(7) 0.0203(10) 0.7046(2)
H100_2 H 0.1898 0.0074 0.7097
C161_2 C 0.1293(5) 0.0141(7) 0.68281(18)
N11_2 N 0.0628(5) 0.0334(5) 0.67519(14)
O40_2 O 0.078(3) 0.100(3) 0.7507(10)
N12_2 N 0.172(2) 0.039(2) 0.7517(5)
H102_2 H 0.2090 0.0352 0.7437
C162_2 C 0.113(2) 0.057(3) 0.7403(5)
C165_2 C 0.1618(15) 0.0454(16) 0.8110(5)
H104_2 H 0.1356 0.0683 0.8217
C166_2 C 0.1479(15) 0.0608(17) 0.7895(5)
H105_2 H 0.1125 0.0942 0.7857
C167_2 C 0.1870(17) 0.0265(17) 0.7735(4)
O30_2 O 0.1403(6) 0.9512(6) 0.60284(19)
O31_2 O 0.1213(6) 0.9496(6) 0.63914(16)
O34_2 O 0.4130(6) 0.9730(7) 0.90471(18)
N9_2 N 0.2936(6) 0.9732(7) 0.9048(2)
H66_2 H 0.2578 0.9725 0.9132
C103_2 C 0.3049(3) 0.9389(4) 0.97260(11)
H68_2 H 0.2700 0.9149 0.9804
N10_2 N 0.3570(4) 0.9789(4) 0.98332(8)
C106_2 C 0.3570(4) 0.9703(5) 0.93864(8)
C107_2 C 0.3049(4) 0.9346(5) 0.95026(11)
H71_2 H 0.2700 0.9078 0.9431
C116_2 C 0.4049(8) 0.6847(8) 0.6146(2)
C118_2 C 0.3014(7) 0.7936(7) 0.6094(2)
C119_2 C 0.1543(7) 0.9267(8) 0.6222(2)
C122_2 C 0.3983(7) 0.7210(8) 0.5951(2)
H78_2 H 0.4281 0.7095 0.5838
C125_2 C 0.2489(6) 0.8489(6) 0.6070(2)
H80_2 H 0.2429 0.8734 0.5939
C131_2 C 0.2793(5) 0.9765(6) 0.88293(13)
C132_2 C 0.3232(5) 0.9473(7) 0.86730(17)
H84_2 H 0.3651 0.9242 0.8713
C133_2 C 0.3045(6) 0.9526(8) 0.84567(15)
H85_2 H 0.3339 0.9331 0.8352
C134_2 C 0.2419(7) 0.9871(7) 0.83967(12)
C137_2 C 0.3453(8) 0.7762(8) 0.5926(2)
H88_2 H 0.3401 0.8007 0.5795
C138_2 C 0.3590(7) 0.9709(8) 0.9147(2)
C140_2 C 0.3664(7) 0.7028(9) 0.6316(2)
H89_2 H 0.3744 0.6790 0.6447
C145_2 C 0.4631(7) 0.6281(8) 0.6176(3)
C147_2 C 0.2069(7) 0.8662(8) 0.6242(2)
C151_2 C 0.3119(8) 0.7594(7) 0.6299(2)
C153_2 C 0.2178(10) 0.8334(10) 0.6447(3)
H94_2 H 0.1910 0.8482 0.6564
C155_2 C 0.2668(11) 0.7809(9) 0.6469(3)
H96_2 H 0.2717 0.7574 0.6602
H101_2 H 0.1632 0.9969 0.6733
C163_2 C 0.2538(14) 0.9612(15) 0.8006(5)
H103_2 H 0.2892 0.9278 0.8044
C164_2 C 0.2147(15) 0.9955(15) 0.8166(4)
C168_2 C 0.2399(16) 0.9766(17) 0.7791(4)
H106_2 H 0.2661 0.9537 0.7684
H98_2 H 0.9677 0.0720 0.6843
H99_2 H 0.9942 0.0824 0.7207
O35_2 O 0.9956(6) 0.9517(6) 0.5968(2)
O39_2 O 0.9794(6) 0.9535(7) 0.6329(2)
C123_2 C 0.8296(8) 0.8023(8) 0.5893(2)
H79_2 H 0.8152 0.7867 0.5757
C139_2 C 0.9085(9) 0.8752(9) 0.6115(3)
C141_2 C 0.6509(6) 0.6336(6) 0.6205(2)
C142_2 C 0.7424(8) 0.7197(8) 0.6052(2)
H90_2 H 0.7290 0.7027 0.5917
C143_2 C 0.7097(6) 0.6926(7) 0.6231(2)
C146_2 C 0.7961(7) 0.7733(8) 0.6072(2)
C148_2 C 0.7289(9) 0.7210(10) 0.6444(3)
H92_2 H 0.7063 0.7035 0.6566
C149_2 C 0.8849(8) 0.8547(9) 0.5910(3)
H93_2 H 0.9051 0.8750 0.5787
C150_2 C 0.8156(9) 0.7975(9) 0.6282(3)
C152_2 C 0.9644(8) 0.9301(7) 0.6142(3)
C154_2 C 0.8757(9) 0.8477(9) 0.6303(3)
H95_2 H 0.8924 0.8614 0.6439
C156_2 C 0.7774(12) 0.7707(13) 0.6461(3)
H97_2 H 0.7878 0.7900 0.6596
Zn7_2 Zn 0.43096(7) 0.47092(8) 0.40473(2)
Zn8_2 Zn 0.44935(7) 0.47074(8) 0.35738(2)
O28_2 O 0.8612(4) 0.8900(5) 0.39794(15)
O30_3 O 0.3597(6) 0.5488(6) 0.39716(19)
O31_3 O 0.3787(6) 0.5504(6) 0.36086(16)
O33_2 O 0.8729(5) 0.8902(5) 0.36213(17)
O34_3 O 0.0870(6) 0.5270(7) 0.09529(18)
O35_3 O 0.5044(6) 0.5483(6) 0.4032(2)
O36_2 O 0.0074(5) 0.8935(5) 0.39960(16)
O37_2 O 0.0238(5) 0.8957(5) 0.36370(17)
O38_3 O 0.4005(6) 0.4758(5) 0.43595(16)
H64_3 H 0.3707 0.4404 0.4388
H65_3 H 0.4359 0.4660 0.4445
N9_3 N 0.2064(6) 0.5268(7) 0.0952(2)
H66_3 H 0.2422 0.5275 0.0868
C103_3 C 0.1951(3) 0.5611(4) 0.02740(11)
H68_3 H 0.2300 0.5851 0.0196
N10_3 N 0.1430(4) 0.5211(4) 0.01668(8)
C104_3 C 0.0909(3) 0.4853(4) 0.02831(11)
H69_3 H 0.0560 0.4585 0.0211
C105_3 C 0.0908(4) 0.4896(5) 0.05065(11)
H70_3 H 0.0560 0.4657 0.0584
C106_3 C 0.1430(4) 0.5297(5) 0.06136(8)
C107_3 C 0.1951(4) 0.5654(5) 0.04974(11)
H71_3 H 0.2300 0.5922 0.0569
O39_3 O 0.5206(6) 0.5465(7) 0.3671(2)
C116_3 C 0.0951(8) 0.8153(8) 0.3854(2)
C118_3 C 0.1986(7) 0.7064(7) 0.3906(2)
C119_3 C 0.3457(7) 0.5733(8) 0.3778(2)
C122_3 C 0.1017(7) 0.7790(8) 0.4049(2)
H78_3 H 0.0719 0.7905 0.4162
C123_3 C 0.6704(8) 0.6977(8) 0.4107(2)
H79_3 H 0.6848 0.7133 0.4243
C125_3 C 0.2511(6) 0.6511(6) 0.3930(2)
H80_3 H 0.2571 0.6266 0.4061
C131_3 C 0.2207(5) 0.5235(6) 0.11707(13)
C132_3 C 0.1768(5) 0.5527(7) 0.13270(17)
H84_3 H 0.1349 0.5758 0.1287
C133_3 C 0.1955(6) 0.5474(8) 0.15433(15)
H85_3 H 0.1661 0.5669 0.1648
C134_3 C 0.2581(7) 0.5129(7) 0.16033(12)
C135_3 C 0.3020(5) 0.4837(6) 0.14469(17)
H86_3 H 0.3439 0.4606 0.1487
C136_3 C 0.2833(5) 0.4890(6) 0.12306(15)
H87_3 H 0.3127 0.4695 0.1126
C137_3 C 0.1547(8) 0.7238(8) 0.4074(2)
H88_3 H 0.1599 0.6993 0.4205
C138_3 C 0.1410(7) 0.5291(8) 0.0853(2)
C139_3 C 0.5915(9) 0.6248(9) 0.3885(3)
C140_3 C 0.1336(7) 0.7972(9) 0.3684(2)
H89_3 H 0.1256 0.8210 0.3553
C141_3 C 0.8491(6) 0.8664(6) 0.3795(2)
C142_3 C 0.7576(8) 0.7803(8) 0.3948(2)
H90_3 H 0.7710 0.7973 0.4083
C143_3 C 0.7903(6) 0.8074(7) 0.3769(2)
C145_3 C 0.0369(7) 0.8719(8) 0.3824(3)
C146_3 C 0.7039(7) 0.7267(8) 0.3928(2)
C147_3 C 0.2931(7) 0.6338(8) 0.3758(2)
C148_3 C 0.7711(9) 0.7790(10) 0.3556(3)
H92_3 H 0.7937 0.7965 0.3434
C149_3 C 0.6151(8) 0.6453(9) 0.4090(3)
H93_3 H 0.5949 0.6250 0.4213
C150_3 C 0.6844(9) 0.7025(9) 0.3718(3)
C151_3 C 0.1881(8) 0.7406(7) 0.3701(2)
C152_3 C 0.5356(8) 0.5699(7) 0.3858(3)
C153_3 C 0.2822(10) 0.6666(10) 0.3553(3)
H94_3 H 0.3090 0.6518 0.3436
C154_3 C 0.6243(9) 0.6523(9) 0.3697(3)
H95_3 H 0.6076 0.6386 0.3561
C155_3 C 0.2332(11) 0.7191(9) 0.3531(3)
H96_3 H 0.2283 0.7426 0.3398
C156_3 C 0.7226(12) 0.7293(13) 0.3539(3)
H97_3 H 0.7122 0.7100 0.3404
C157_3 C 0.4878(5) 0.4410(10) 0.3106(2)
H98_3 H 0.5323 0.4280 0.3157
C158_3 C 0.4719(8) 0.4347(13) 0.28881(18)
H99_3 H 0.5058 0.4176 0.2793
C159_3 C 0.4054(9) 0.4541(13) 0.28119(14)
C160_3 C 0.3548(7) 0.4797(10) 0.2954(2)
H100_3 H 0.3102 0.4926 0.2903
C161_3 C 0.3707(5) 0.4859(7) 0.31719(18)
H101_3 H 0.3368 0.5031 0.3267
N11_3 N 0.4372(5) 0.4666(5) 0.32481(14)
O40_3 O 0.422(3) 0.400(3) 0.2493(10)
N12_3 N 0.328(2) 0.461(2) 0.2483(5)
H102_3 H 0.2910 0.4648 0.2563
C162_3 C 0.387(2) 0.443(3) 0.2597(5)
C163_3 C 0.2462(14) 0.5388(15) 0.1994(5)
H103_3 H 0.2108 0.5722 0.1956
C164_3 C 0.2853(15) 0.5045(15) 0.1834(4)
C165_3 C 0.3382(15) 0.4546(16) 0.1890(5)
H104_3 H 0.3644 0.4317 0.1783
C166_3 C 0.3521(15) 0.4392(17) 0.2105(5)
H105_3 H 0.3875 0.4058 0.2143
C167_3 C 0.3130(17) 0.4735(17) 0.2265(4)
C168_3 C 0.2601(16) 0.5234(17) 0.2209(4)
H106_3 H 0.2339 0.5463 0.2316
Zn19 Zn 0.93096(7) 0.97092(8) 0.40473(2)
Zn23 Zn 0.94935(7) 0.97074(8) 0.35738(2)
O48_2 O 0.3612(4) 0.3900(5) 0.39794(15)
O52_2 O 0.3729(5) 0.3902(5) 0.36213(17)
O54_2 O 0.5074(5) 0.3935(5) 0.39960(16)
O56_2 O 0.5238(5) 0.3957(5) 0.36370(17)
H73_3 H 0.8768 0.2759 0.0025
O35_4 O 0.0044(6) 0.0483(6) 0.4032(2)
O39_4 O 0.0206(6) 0.0465(7) 0.3671(2)
C123_4 C 0.1704(8) 0.1977(8) 0.4107(2)
H79_4 H 0.1848 0.2133 0.4243
C139_4 C 0.0915(9) 0.1248(9) 0.3885(3)
C141_4 C 0.3491(6) 0.3664(6) 0.3795(2)
C142_4 C 0.2576(8) 0.2803(8) 0.3948(2)
H90_4 H 0.2710 0.2973 0.4083
C143_4 C 0.2903(6) 0.3074(7) 0.3769(2)
C146_4 C 0.2039(7) 0.2267(8) 0.3928(2)
C148_4 C 0.2711(9) 0.2790(10) 0.3556(3)
H92_4 H 0.2937 0.2965 0.3434
C149_4 C 0.1151(8) 0.1453(9) 0.4090(3)
H93_4 H 0.0949 0.1250 0.4213
C150_4 C 0.1844(9) 0.2025(9) 0.3718(3)
C152_4 C 0.0356(8) 0.0699(7) 0.3858(3)
C154_4 C 0.1243(9) 0.1523(9) 0.3697(3)
H95_4 H 0.1076 0.1386 0.3561
C156_4 C 0.2226(12) 0.2293(13) 0.3539(3)
H97_4 H 0.2122 0.2100 0.3404
H98_4 H 0.0323 0.9280 0.3157
H99_4 H 0.0058 0.9176 0.2793
O30_4 O 0.8597(6) 0.0488(6) 0.39716(19)
O31_4 O 0.8787(6) 0.0504(6) 0.36086(16)
O34_4 O 0.5870(6) 0.0270(7) 0.09529(18)
N9_4 N 0.7064(6) 0.0268(7) 0.0952(2)
H66_4 H 0.7422 0.0275 0.0868
C103_4 C 0.6951(3) 0.0611(4) 0.02740(11)
H68_4 H 0.7300 0.0851 0.0196
N10_4 N 0.6430(4) 0.0211(4) 0.01668(8)
C106_4 C 0.6430(4) 0.0297(5) 0.06136(8)
C107_4 C 0.6951(4) 0.0654(5) 0.04974(11)
H71_4 H 0.7300 0.0922 0.0569
C116_4 C 0.5951(8) 0.3153(8) 0.3854(2)
C118_4 C 0.6986(7) 0.2064(7) 0.3906(2)
C119_4 C 0.8457(7) 0.0733(8) 0.3778(2)
C122_4 C 0.6017(7) 0.2790(8) 0.4049(2)
H78_4 H 0.5719 0.2905 0.4162
C125_4 C 0.7511(6) 0.1511(6) 0.3930(2)
H80_4 H 0.7571 0.1266 0.4061
C131_4 C 0.7207(5) 0.0235(6) 0.11707(13)
C132_4 C 0.6768(5) 0.0527(7) 0.13270(17)
H84_4 H 0.6349 0.0758 0.1287
C133_4 C 0.6955(6) 0.0474(8) 0.15433(15)
H85_4 H 0.6661 0.0669 0.1648
C134_4 C 0.7581(7) 0.0129(7) 0.16033(12)
C137_4 C 0.6547(8) 0.2238(8) 0.4074(2)
H88_4 H 0.6599 0.1993 0.4205
C138_4 C 0.6410(7) 0.0291(8) 0.0853(2)
C140_4 C 0.6336(7) 0.2972(9) 0.3684(2)
H89_4 H 0.6256 0.3210 0.3553
C145_4 C 0.5369(7) 0.3719(8) 0.3824(3)
C147_4 C 0.7931(7) 0.1338(8) 0.3758(2)
C151_4 C 0.6881(8) 0.2406(7) 0.3701(2)
C153_4 C 0.7822(10) 0.1666(10) 0.3553(3)
H94_4 H 0.8090 0.1518 0.3436
C155_4 C 0.7332(11) 0.2191(9) 0.3531(3)
H96_4 H 0.7283 0.2426 0.3398
H101_4 H 0.8368 0.0031 0.3267
C163_4 C 0.7462(14) 0.0388(15) 0.1994(5)
H103_4 H 0.7108 0.0722 0.1956
C164_4 C 0.7853(15) 0.0045(15) 0.1834(4)
C168_4 C 0.7601(16) 0.0234(17) 0.2209(4)
H106_4 H 0.7339 0.0463 0.2316
O38_4 O 0.9005(6) 0.9758(5) 0.43595(16)
H64_4 H 0.8707 0.9404 0.4388
H65_4 H 0.9359 0.9660 0.4445
C104_4 C 0.5909(3) 0.9853(4) 0.02831(11)
H69_4 H 0.5560 0.9585 0.0211
C105_4 C 0.5908(4) 0.9896(5) 0.05065(11)
H70_4 H 0.5560 0.9657 0.0584
H73_4 H 0.3768 0.7759 0.0025
C135_4 C 0.8020(5) 0.9837(6) 0.14469(17)
H86_4 H 0.8439 0.9606 0.1487
C136_4 C 0.7833(5) 0.9890(6) 0.12306(15)
H87_4 H 0.8127 0.9695 0.1126
C157_4 C 0.9878(5) 0.9410(10) 0.3106(2)
C158_4 C 0.9719(8) 0.9347(13) 0.28881(18)
C159_4 C 0.9054(9) 0.9541(13) 0.28119(14)
C160_4 C 0.8548(7) 0.9797(10) 0.2954(2)
H100_4 H 0.8102 0.9926 0.2903
C161_4 C 0.8707(5) 0.9859(7) 0.31719(18)
N11_4 N 0.9372(5) 0.9666(5) 0.32481(14)
O40_4 O 0.922(3) 0.900(3) 0.2493(10)
N12_4 N 0.828(2) 0.961(2) 0.2483(5)
H102_4 H 0.7910 0.9648 0.2563
C162_4 C 0.887(2) 0.943(3) 0.2597(5)
C165_4 C 0.8382(15) 0.9546(16) 0.1890(5)
H104_4 H 0.8644 0.9317 0.1783
C166_4 C 0.8521(15) 0.9392(17) 0.2105(5)
H105_4 H 0.8875 0.9058 0.2143
C167_4 C 0.8130(17) 0.9735(17) 0.2265(4)
O4_2 O 0.2517(5) 0.0804(5) 0.55564(14)
O6_2 O 0.2859(4) 0.0969(4) 0.52116(13)
C1_3 C 0.2479(6) 0.1090(6) 0.53750(19)
C3_3 C 0.1831(6) 0.2046(6) 0.51389(18)
H1_3 H 0.2126 0.1927 0.5026
C5_3 C 0.1915(6) 0.1692(6) 0.53406(18)
C6_3 C 0.1520(6) 0.1920(7) 0.55165(19)
H5_3 H 0.1598 0.1706 0.5651
C12_3 C 0.1003(6) 0.2473(6) 0.54914(19)
C14_3 C 0.0389(6) 0.3367(6) 0.52598(19)
H10_3 H 0.0327 0.3600 0.5127
C15_3 C 0.1315(5) 0.2562(6) 0.51112(18)
H11_3 H 0.1232 0.2759 0.4975
C17_3 C 0.0902(6) 0.2804(6) 0.52853(18)
C24_3 C 0.0598(6) 0.2734(7) 0.5666(2)
H14_3 H 0.0680 0.2537 0.5802
C25_3 C 0.0099(7) 0.3257(8) 0.5640(2)
C81_3 C 0.0389(12) 0.490(3) 0.7215(3)
H51_3 H 0.0862 0.4826 0.7250
C82_3 C 0.0186(14) 0.502(2) 0.7003(2)
H52_3 H 0.0523 0.5037 0.6895
C85_3 C 0.0755(5) 0.5092(9) 0.87258(19)
H54_3 H 0.0314 0.5023 0.8662
C86_3 C 0.0831(4) 0.5062(8) 0.89484(18)
H55_3 H 0.0441 0.4973 0.9034
N7_3 N 0.1490(4) 0.5165(5) 0.90430(11)
C87_3 C 0.2073(4) 0.5297(5) 0.89150(13)
H56_3 H 0.2513 0.5366 0.8978
C88_3 C 0.1996(6) 0.5327(6) 0.86924(13)
H57_3 H 0.2386 0.5416 0.8607
C89_3 C 0.1338(7) 0.5225(8) 0.85978(12)
O21_3 O 0.1878(12) 0.5073(13) 0.8257(3)
C90_3 C 0.1357(13) 0.5153(7) 0.8365(3)
N8_3 N 0.0708(14) 0.5182(14) 0.8267(3)
H58_3 H 0.0361 0.5240 0.8353
C91_3 C 0.0820(11) 0.498(3) 0.7675(3)
H59_3 H 0.1157 0.4970 0.7568
C92_3 C 0.0114(12) 0.488(3) 0.7624(2)
C95_3 C 0.0520(15) 0.5130(19) 0.8049(3)
C96_3 C 0.1023(13) 0.511(3) 0.7888(3)
H62_3 H 0.1496 0.5182 0.7922
Zn5_2 Zn 0.14256(8) 0.51456(8) 0.98405(2)
Zn6_2 Zn 0.16092(8) 0.51652(8) 0.93668(2)
O22_2 O 0.5675(4) 0.0904(5) 0.97628(13)
O23_3 O 0.0793(5) 0.4485(5) 0.94353(14)
O24_3 O 0.0712(5) 0.4330(5) 0.97933(15)
O26_3 O 0.2257(5) 0.4297(5) 0.94282(14)
O29_2 O 0.6009(5) 0.1077(5) 0.94166(13)
O32_3 O 0.2223(5) 0.4404(5) 0.97861(15)
C98_3 C 0.0547(6) 0.4162(6) 0.96001(18)
C100_3 C 0.5637(6) 0.1230(6) 0.95780(18)
C109_3 C 0.3003(6) 0.3551(7) 0.96377(19)
C112_3 C 0.5106(6) 0.1836(6) 0.95559(18)
C114_3 C 0.4602(7) 0.1948(8) 0.9716(2)
H74_3 H 0.4634 0.1673 0.9842
C115_3 C 0.3532(6) 0.2580(7) 0.9853(2)
H75_3 H 0.3532 0.2282 0.9975
C117_3 C 0.2435(7) 0.4133(7) 0.96164(19)
H77_3 H 0.0166 0.3415 0.9243
C124_3 C 0.0015(6) 0.3566(6) 0.95692(19)
C126_3 C 0.4051(6) 0.2457(7) 0.9692(2)
C127_3 C 0.3037(6) 0.3119(7) 0.9832(2)
H81_3 H 0.2721 0.3207 0.9943
C128_3 C 0.3523(7) 0.3438(8) 0.9474(2)
H82_3 H 0.3486 0.3699 0.9346
C129_3 C 0.4592(7) 0.2814(8) 0.9346(2)
H83_3 H 0.4586 0.3094 0.9220
C130_3 C 0.4079(6) 0.2950(8) 0.9505(2)
C144_3 C 0.5090(7) 0.2283(8) 0.9373(2)
H91_3 H 0.5428 0.2216 0.9268
Zn9 Zn 0.35744(8) 0.01456(8) 0.51595(2)
Zn11 Zn 0.64256(8) 0.01456(8) 0.98405(2)
Zn13 Zn 0.33908(8) 0.01652(8) 0.56332(2)
Zn15 Zn 0.66092(8) 0.01652(8) 0.93668(2)
Zn17 Zn 0.06904(7) 0.97092(8) 0.09527(2)
Zn21 Zn 0.05065(7) 0.97074(8) 0.14262(2)
O42_2 O 0.0675(4) 0.5904(5) 0.97628(13)
O44_2 O 0.2483(5) 0.5804(5) 0.94436(14)
O46_2 O 0.2141(4) 0.5969(4) 0.97884(13)
O50_2 O 0.1009(5) 0.6077(5) 0.94166(13)
Zn1_2 Zn 0.85744(8) 0.51456(8) 0.51595(2)
Zn2_2 Zn 0.83908(8) 0.51652(8) 0.56332(2)
Zn3_2 Zn 0.56904(7) 0.47092(8) 0.09527(2)
Zn4_2 Zn 0.55065(7) 0.47074(8) 0.14262(2)
O1_2 O 0.4325(4) 0.0904(5) 0.52372(13)
O2_3 O 0.9207(5) 0.4485(5) 0.55647(14)
O3_3 O 0.9288(5) 0.4330(5) 0.52067(15)
O5_3 O 0.7743(5) 0.4297(5) 0.55718(14)
O7_2 O 0.1388(4) 0.8900(5) 0.10206(15)
O8_2 O 0.3991(5) 0.1077(5) 0.55834(13)
O9_3 O 0.6403(6) 0.5488(6) 0.10284(19)
O10_3 O 0.6213(6) 0.5504(6) 0.13914(16)
O11_3 O 0.7777(5) 0.4404(5) 0.52139(15)
O12_2 O 0.1271(5) 0.8902(5) 0.13787(17)
O13_3 O 0.9130(6) 0.5270(7) 0.40471(18)
O14_3 O 0.4956(6) 0.5483(6) 0.0968(2)
O15_2 O 0.9926(5) 0.8935(5) 0.10040(16)
C2_3 C 0.9453(6) 0.4162(6) 0.53999(18)
O16_2 O 0.9762(5) 0.8957(5) 0.13630(17)
C4_3 C 0.4363(6) 0.1230(6) 0.54220(18)
O17_3 O 0.5995(6) 0.4758(5) 0.06405(16)
H2_3 H 0.6293 0.4404 0.0612
H3_3 H 0.5641 0.4660 0.0555
N1_3 N 0.7936(6) 0.5268(7) 0.4048(2)
H4_3 H 0.7578 0.5275 0.4132
C7_3 C 0.8049(3) 0.5611(4) 0.47260(11)
H6_3 H 0.7700 0.5851 0.4804
N2_3 N 0.8570(4) 0.5211(4) 0.48332(8)
C8_3 C 0.9091(3) 0.4853(4) 0.47169(11)
H7_3 H 0.9440 0.4585 0.4789
C9_3 C 0.9092(4) 0.4896(5) 0.44935(11)
H8_3 H 0.9440 0.4657 0.4416
C10_3 C 0.8570(4) 0.5297(5) 0.43864(8)
C11_3 C 0.8049(4) 0.5654(5) 0.45026(11)
H9_3 H 0.7700 0.5922 0.4431
C13_3 C 0.6997(6) 0.3551(7) 0.53623(19)
C16_3 C 0.4894(6) 0.1836(6) 0.54441(18)
C18_3 C 0.5398(7) 0.1948(8) 0.5284(2)
H12_3 H 0.5366 0.1673 0.5158
C19_3 C 0.6468(6) 0.2580(7) 0.5147(2)
H13_3 H 0.6468 0.2282 0.5025
O18_3 O 0.4794(6) 0.5465(7) 0.1329(2)
C20_3 C 0.9049(8) 0.8153(8) 0.1146(2)
C21_3 C 0.7565(7) 0.4133(7) 0.53836(19)
C22_3 C 0.8014(7) 0.7064(7) 0.1094(2)
C23_3 C 0.6543(7) 0.5733(8) 0.1222(2)
H15_3 H 0.9834 0.3415 0.5757
C26_3 C 0.8983(7) 0.7790(8) 0.0951(2)
H16_3 H 0.9281 0.7905 0.0838
C27_3 C 0.3296(8) 0.6977(8) 0.0893(2)
H17_3 H 0.3152 0.7133 0.0757
C28_3 C 0.9985(6) 0.3566(6) 0.54308(19)
C29_3 C 0.7489(6) 0.6511(6) 0.1070(2)
H18_3 H 0.7429 0.6266 0.0939
C30_3 C 0.5949(6) 0.2457(7) 0.5308(2)
C31_3 C 0.6963(6) 0.3119(7) 0.5168(2)
H19_3 H 0.7279 0.3207 0.5057
C32_3 C 0.6477(7) 0.3438(8) 0.5526(2)
H20_3 H 0.6514 0.3699 0.5654
C33_3 C 0.5408(7) 0.2814(8) 0.5654(2)
H21_3 H 0.5414 0.3094 0.5780
C34_3 C 0.5921(6) 0.2950(8) 0.5495(2)
C35_3 C 0.7793(5) 0.5235(6) 0.38293(13)
C36_3 C 0.8232(5) 0.5527(7) 0.36730(17)
H22_3 H 0.8651 0.5758 0.3713
C37_3 C 0.8045(6) 0.5474(8) 0.34567(15)
H23_3 H 0.8339 0.5669 0.3352
C38_3 C 0.7419(7) 0.5129(7) 0.33967(12)
C39_3 C 0.6980(5) 0.4837(6) 0.35531(17)
H24_3 H 0.6561 0.4606 0.3513
C40_3 C 0.7167(5) 0.4890(6) 0.37694(15)
H25_3 H 0.6873 0.4695 0.3874
C41_3 C 0.8453(8) 0.7238(8) 0.0926(2)
H26_3 H 0.8401 0.6993 0.0795
C42_3 C 0.8590(7) 0.5291(8) 0.4147(2)
C43_3 C 0.4085(9) 0.6248(9) 0.1115(3)
C44_3 C 0.8664(7) 0.7972(9) 0.1316(2)
H27_3 H 0.8744 0.8210 0.1447
C45_3 C 0.1509(6) 0.8664(6) 0.1205(2)
C46_3 C 0.2424(8) 0.7803(8) 0.1052(2)
H28_3 H 0.2290 0.7973 0.0917
C47_3 C 0.2097(6) 0.8074(7) 0.1231(2)
C48_3 C 0.4910(7) 0.2283(8) 0.5627(2)
H29_3 H 0.4572 0.2216 0.5732
C49_3 C 0.9631(7) 0.8719(8) 0.1176(3)
C50_3 C 0.2961(7) 0.7267(8) 0.1072(2)
C51_3 C 0.7069(7) 0.6338(8) 0.1242(2)
C52_3 C 0.2289(9) 0.7790(10) 0.1444(3)
H30_3 H 0.2063 0.7965 0.1566
C53_3 C 0.3849(8) 0.6453(9) 0.0910(3)
H31_3 H 0.4051 0.6250 0.0787
C54_3 C 0.3156(9) 0.7025(9) 0.1282(3)
C55_3 C 0.8119(8) 0.7406(7) 0.1299(2)
C56_3 C 0.4644(8) 0.5699(7) 0.1142(3)
C57_3 C 0.7178(10) 0.6666(10) 0.1447(3)
H32_3 H 0.6910 0.6518 0.1564
C58_3 C 0.3757(9) 0.6523(9) 0.1303(3)
H33_3 H 0.3924 0.6386 0.1439
C59_3 C 0.7668(11) 0.7191(9) 0.1469(3)
H34_3 H 0.7717 0.7426 0.1602
C60_3 C 0.9245(5) 0.5092(9) 0.62742(19)
H35_3 H 0.9686 0.5023 0.6338
C61_3 C 0.9169(4) 0.5062(8) 0.60516(18)
H36_3 H 0.9559 0.4973 0.5966
N3_3 N 0.8510(4) 0.5165(5) 0.59570(11)
C62_3 C 0.7927(4) 0.5297(5) 0.60850(13)
H37_3 H 0.7487 0.5366 0.6022
C63_3 C 0.8004(6) 0.5327(6) 0.63076(13)
H38_3 H 0.7614 0.5416 0.6393
C64_3 C 0.8662(7) 0.5225(8) 0.64022(12)
C65_3 C 0.2774(12) 0.7293(13) 0.1461(3)
H39_3 H 0.2878 0.7100 0.1596
C66_3 C 0.5122(5) 0.4410(10) 0.1894(2)
H40_3 H 0.4677 0.4280 0.1843
C67_3 C 0.5281(8) 0.4347(13) 0.21119(18)
H41_3 H 0.4942 0.4176 0.2207
C68_3 C 0.5946(9) 0.4541(13) 0.21881(14)
C69_3 C 0.6452(7) 0.4797(10) 0.2046(2)
H42_3 H 0.6898 0.4926 0.2097
C70_3 C 0.6293(5) 0.4859(7) 0.18281(18)
H43_3 H 0.6632 0.5031 0.1733
N4_3 N 0.5628(5) 0.4666(5) 0.17519(14)
O19_3 O 0.578(3) 0.400(3) 0.2507(10)
N5_3 N 0.672(2) 0.461(2) 0.2517(5)
H44_3 H 0.7090 0.4648 0.2437
C71_3 C 0.613(2) 0.443(3) 0.2403(5)
O20_3 O 0.8122(12) 0.5073(13) 0.6743(3)
C72_3 C 0.8643(13) 0.5153(7) 0.6635(3)
N6_3 N 0.9292(14) 0.5182(14) 0.6733(3)
H45_3 H 0.9639 0.5240 0.6647
C73_3 C 0.7538(14) 0.5388(15) 0.3006(5)
H46_3 H 0.7892 0.5722 0.3044
C74_3 C 0.7147(15) 0.5045(15) 0.3166(4)
C75_3 C 0.6618(15) 0.4546(16) 0.3110(5)
H47_3 H 0.6356 0.4317 0.3217
C76_3 C 0.6479(15) 0.4392(17) 0.2895(5)
H48_3 H 0.6125 0.4058 0.2857
C77_3 C 0.6870(17) 0.4735(17) 0.2735(4)
C78_3 C 0.7399(16) 0.5234(17) 0.2791(4)
H49_3 H 0.7661 0.5463 0.2684
C79_3 C 0.9180(11) 0.498(3) 0.7325(3)
H50_3 H 0.8843 0.4970 0.7432
C80_3 C 0.9886(12) 0.488(3) 0.7376(2)
C83_3 C 0.9480(15) 0.5130(19) 0.6951(3)
C84_3 C 0.8977(13) 0.511(3) 0.7112(3)
H53_3 H 0.8504 0.5182 0.7078
C93_3 C 0.9611(12) 0.490(3) 0.7785(3)
H60_3 H 0.9138 0.4826 0.7750
C94_3 C 0.9814(14) 0.502(2) 0.7997(2)
H61_3 H 0.9477 0.5037 0.8105
O25_2 O 0.7483(5) 0.0804(5) 0.94436(14)
O27_2 O 0.7141(4) 0.0969(4) 0.97884(13)
C97_3 C 0.7521(6) 0.1090(6) 0.96250(19)
C99_3 C 0.8169(6) 0.2046(6) 0.98611(18)
H63_3 H 0.7874 0.1927 0.9974
C101_3 C 0.8085(6) 0.1692(6) 0.96594(18)
C102_3 C 0.8480(6) 0.1920(7) 0.94835(19)
H67_3 H 0.8402 0.1706 0.9349
C108_3 C 0.8997(6) 0.2473(6) 0.95086(19)
C110_3 C 0.9611(6) 0.3367(6) 0.97402(19)
H72_3 H 0.9673 0.3600 0.9873
C111_3 C 0.8685(5) 0.2562(6) 0.98888(18)
C113_3 C 0.9098(6) 0.2804(6) 0.97147(18)
C120_3 C 0.9402(6) 0.2734(7) 0.9334(2)
H76_3 H 0.9320 0.2537 0.9198
C121_3 C 0.9901(7) 0.3257(8) 0.9360(2)
O41_2 O 0.9325(4) 0.5904(5) 0.52372(13)
O43_2 O 0.7517(5) 0.5804(5) 0.55564(14)
O45_2 O 0.7859(4) 0.5969(4) 0.52116(13)
O47_2 O 0.6388(4) 0.3900(5) 0.10206(15)
O49_2 O 0.8991(5) 0.6077(5) 0.55834(13)
O51_2 O 0.6271(5) 0.3902(5) 0.13787(17)
O53_2 O 0.4926(5) 0.3935(5) 0.10040(16)
O55_2 O 0.4762(5) 0.3957(5) 0.13630(17)
C100_4 C 0.0637(6) 0.6230(6) 0.95780(18)
C112_4 C 0.0106(6) 0.6836(6) 0.95559(18)
C144_4 C 0.0090(7) 0.7283(8) 0.9373(2)
H91_4 H 0.0428 0.7216 0.9268
O9_4 O 0.1403(6) 0.0488(6) 0.10284(19)
O10_4 O 0.1213(6) 0.0504(6) 0.13914(16)
O13_4 O 0.4130(6) 0.0270(7) 0.40471(18)
N1_4 N 0.2936(6) 0.0268(7) 0.4048(2)
H4_4 H 0.2578 0.0275 0.4132
C7_4 C 0.3049(3) 0.0611(4) 0.47260(11)
H6_4 H 0.2700 0.0851 0.4804
N2_4 N 0.3570(4) 0.0211(4) 0.48332(8)
C10_4 C 0.3570(4) 0.0297(5) 0.43864(8)
C11_4 C 0.3049(4) 0.0654(5) 0.45026(11)
H9_4 H 0.2700 0.0922 0.4431
C20_4 C 0.4049(8) 0.3153(8) 0.1146(2)
C22_4 C 0.3014(7) 0.2064(7) 0.1094(2)
C23_4 C 0.1543(7) 0.0733(8) 0.1222(2)
C26_4 C 0.3983(7) 0.2790(8) 0.0951(2)
H16_4 H 0.4281 0.2905 0.0838
C29_4 C 0.2489(6) 0.1511(6) 0.1070(2)
H18_4 H 0.2429 0.1266 0.0939
C35_4 C 0.2793(5) 0.0235(6) 0.38293(13)
C36_4 C 0.3232(5) 0.0527(7) 0.36730(17)
H22_4 H 0.3651 0.0758 0.3713
C37_4 C 0.3045(6) 0.0474(8) 0.34567(15)
H23_4 H 0.3339 0.0669 0.3352
C38_4 C 0.2419(7) 0.0129(7) 0.33967(12)
C41_4 C 0.3453(8) 0.2238(8) 0.0926(2)
H26_4 H 0.3401 0.1993 0.0795
C42_4 C 0.3590(7) 0.0291(8) 0.4147(2)
C44_4 C 0.3664(7) 0.2972(9) 0.1316(2)
H27_4 H 0.3744 0.3210 0.1447
C49_4 C 0.4631(7) 0.3719(8) 0.1176(3)
C51_4 C 0.2069(7) 0.1338(8) 0.1242(2)
C55_4 C 0.3119(8) 0.2406(7) 0.1299(2)
C57_4 C 0.2178(10) 0.1666(10) 0.1447(3)
H32_4 H 0.1910 0.1518 0.1564
C59_4 C 0.2668(11) 0.2191(9) 0.1469(3)
H34_4 H 0.2717 0.2426 0.1602
C60_4 C 0.4245(5) 0.0092(9) 0.62742(19)
H35_4 H 0.4686 0.0023 0.6338
C61_4 C 0.4169(4) 0.0062(8) 0.60516(18)
N3_4 N 0.3510(4) 0.0165(5) 0.59570(11)
C62_4 C 0.2927(4) 0.0297(5) 0.60850(13)
H37_4 H 0.2487 0.0366 0.6022
C63_4 C 0.3004(6) 0.0327(6) 0.63076(13)
H38_4 H 0.2614 0.0416 0.6393
C64_4 C 0.3662(7) 0.0225(8) 0.64022(12)
H43_4 H 0.1632 0.0031 0.1733
O20_4 O 0.3122(12) 0.0073(13) 0.6743(3)
C72_4 C 0.3643(13) 0.0153(7) 0.6635(3)
N6_4 N 0.4292(14) 0.0182(14) 0.6733(3)
H45_4 H 0.4639 0.0240 0.6647
C73_4 C 0.2538(14) 0.0388(15) 0.3006(5)
H46_4 H 0.2892 0.0722 0.3044
C74_4 C 0.2147(15) 0.0045(15) 0.3166(4)
C78_4 C 0.2399(16) 0.0234(17) 0.2791(4)
H49_4 H 0.2661 0.0463 0.2684
C82_4 C 0.5186(14) 0.002(2) 0.7003(2)
H52_4 H 0.5523 0.0037 0.6895
C83_4 C 0.4480(15) 0.0130(19) 0.6951(3)
C84_4 C 0.3977(13) 0.011(3) 0.7112(3)
H53_4 H 0.3504 0.0182 0.7078
C85_4 C 0.5755(5) 0.0092(9) 0.87258(19)
H54_4 H 0.5314 0.0023 0.8662
C86_4 C 0.5831(4) 0.0062(8) 0.89484(18)
N7_4 N 0.6490(4) 0.0165(5) 0.90430(11)
C87_4 C 0.7073(4) 0.0297(5) 0.89150(13)
H56_4 H 0.7513 0.0366 0.8978
C88_4 C 0.6996(6) 0.0327(6) 0.86924(13)
H57_4 H 0.7386 0.0416 0.8607
C89_4 C 0.6338(7) 0.0225(8) 0.85978(12)
O21_4 O 0.6878(12) 0.0073(13) 0.8257(3)
C90_4 C 0.6357(13) 0.0153(7) 0.8365(3)
N8_4 N 0.5708(14) 0.0182(14) 0.8267(3)
H58_4 H 0.5361 0.0240 0.8353
C94_4 C 0.4814(14) 0.002(2) 0.7997(2)
H61_4 H 0.4477 0.0037 0.8105
C95_4 C 0.5520(15) 0.0130(19) 0.8049(3)
C96_4 C 0.6023(13) 0.011(3) 0.7888(3)
H62_4 H 0.6496 0.0182 0.7922
O2_4 O 0.4207(5) 0.9485(5) 0.55647(14)
O3_4 O 0.4288(5) 0.9330(5) 0.52067(15)
O5_4 O 0.2743(5) 0.9297(5) 0.55718(14)
O11_4 O 0.2777(5) 0.9404(5) 0.52139(15)
C1_4 C 0.7479(6) 0.6090(6) 0.53750(19)
C2_4 C 0.4453(6) 0.9162(6) 0.53999(18)
C3_4 C 0.6831(6) 0.7046(6) 0.51389(18)
H1_4 H 0.7126 0.6927 0.5026
O17_4 O 0.0995(6) 0.9758(5) 0.06405(16)
H2_4 H 0.1293 0.9404 0.0612
H3_4 H 0.0641 0.9660 0.0555
C5_4 C 0.6915(6) 0.6692(6) 0.53406(18)
C6_4 C 0.6520(6) 0.6920(7) 0.55165(19)
H5_4 H 0.6598 0.6706 0.5651
C8_4 C 0.4091(3) 0.9853(4) 0.47169(11)
H7_4 H 0.4440 0.9585 0.4789
C9_4 C 0.4092(4) 0.9896(5) 0.44935(11)
H8_4 H 0.4440 0.9657 0.4416
C12_4 C 0.6003(6) 0.7473(6) 0.54914(19)
C13_4 C 0.1997(6) 0.8551(7) 0.53623(19)
C14_4 C 0.5389(6) 0.8367(6) 0.52598(19)
H10_4 H 0.5327 0.8600 0.5127
C15_4 C 0.6315(5) 0.7562(6) 0.51112(18)
H11_4 H 0.6232 0.7759 0.4975
C17_4 C 0.5902(6) 0.7804(6) 0.52853(18)
C18_4 C 0.0398(7) 0.6948(8) 0.5284(2)
H12_4 H 0.0366 0.6673 0.5158
C19_4 C 0.1468(6) 0.7580(7) 0.5147(2)
H13_4 H 0.1468 0.7282 0.5025
C21_4 C 0.2565(7) 0.9133(7) 0.53836(19)
C24_4 C 0.5598(6) 0.7734(7) 0.5666(2)
H14_4 H 0.5680 0.7537 0.5802
C25_4 C 0.5099(7) 0.8257(8) 0.5640(2)
H15_4 H 0.4834 0.8415 0.5757
C28_4 C 0.4985(6) 0.8566(6) 0.54308(19)
C30_4 C 0.0949(6) 0.7457(7) 0.5308(2)
C31_4 C 0.1963(6) 0.8119(7) 0.5168(2)
H19_4 H 0.2279 0.8207 0.5057
C32_4 C 0.1477(7) 0.8438(8) 0.5526(2)
H20_4 H 0.1514 0.8699 0.5654
C33_4 C 0.0408(7) 0.7814(8) 0.5654(2)
H21_4 H 0.0414 0.8094 0.5780
C34_4 C 0.0921(6) 0.7950(8) 0.5495(2)
C39_4 C 0.1980(5) 0.9837(6) 0.35531(17)
H24_4 H 0.1561 0.9606 0.3513
C40_4 C 0.2167(5) 0.9890(6) 0.37694(15)
H25_4 H 0.1873 0.9695 0.3874
H36_4 H 0.4559 0.9973 0.5966
C66_4 C 0.0122(5) 0.9410(10) 0.1894(2)
C67_4 C 0.0281(8) 0.9347(13) 0.21119(18)
C68_4 C 0.0946(9) 0.9541(13) 0.21881(14)
C69_4 C 0.1452(7) 0.9797(10) 0.2046(2)
H42_4 H 0.1898 0.9926 0.2097
C70_4 C 0.1293(5) 0.9859(7) 0.18281(18)
N4_4 N 0.0628(5) 0.9666(5) 0.17519(14)
O19_4 O 0.078(3) 0.900(3) 0.2507(10)
N5_4 N 0.172(2) 0.961(2) 0.2517(5)
H44_4 H 0.2090 0.9648 0.2437
C71_4 C 0.113(2) 0.943(3) 0.2403(5)
C75_4 C 0.1618(15) 0.9546(16) 0.3110(5)
H47_4 H 0.1356 0.9317 0.3217
C76_4 C 0.1479(15) 0.9392(17) 0.2895(5)
H48_4 H 0.1125 0.9058 0.2857
C77_4 C 0.1870(17) 0.9735(17) 0.2735(4)
C79_4 C 0.4180(11) 0.998(3) 0.7325(3)
H50_4 H 0.3843 0.9970 0.7432
C80_4 C 0.4886(12) 0.988(3) 0.7376(2)
C81_4 C 0.5389(12) 0.990(3) 0.7215(3)
H51_4 H 0.5862 0.9826 0.7250
H55_4 H 0.5441 0.9973 0.9034
C91_4 C 0.5820(11) 0.998(3) 0.7675(3)
H59_4 H 0.6157 0.9970 0.7568
C92_4 C 0.5114(12) 0.988(3) 0.7624(2)
C93_4 C 0.4611(12) 0.990(3) 0.7785(3)
H60_4 H 0.4138 0.9826 0.7750
O23_4 O 0.5793(5) 0.9485(5) 0.94353(14)
O24_4 O 0.5712(5) 0.9330(5) 0.97933(15)
O26_4 O 0.7257(5) 0.9297(5) 0.94282(14)
O32_4 O 0.7223(5) 0.9404(5) 0.97861(15)
C97_4 C 0.2521(6) 0.6090(6) 0.96250(19)
C98_4 C 0.5547(6) 0.9162(6) 0.96001(18)
C99_4 C 0.3169(6) 0.7046(6) 0.98611(18)
H63_4 H 0.2874 0.6927 0.9974
C101_4 C 0.3085(6) 0.6692(6) 0.96594(18)
C102_4 C 0.3480(6) 0.6920(7) 0.94835(19)
H67_4 H 0.3402 0.6706 0.9349
C108_4 C 0.3997(6) 0.7473(6) 0.95086(19)
C109_4 C 0.8003(6) 0.8551(7) 0.96377(19)
C110_4 C 0.4611(6) 0.8367(6) 0.97402(19)
H72_4 H 0.4673 0.8600 0.9873
C111_4 C 0.3685(5) 0.7562(6) 0.98888(18)
C113_4 C 0.4098(6) 0.7804(6) 0.97147(18)
C114_4 C 0.9602(7) 0.6948(8) 0.9716(2)
H74_4 H 0.9634 0.6673 0.9842
C115_4 C 0.8532(6) 0.7580(7) 0.9853(2)
H75_4 H 0.8532 0.7282 0.9975
C117_4 C 0.7435(7) 0.9133(7) 0.96164(19)
C120_4 C 0.4402(6) 0.7734(7) 0.9334(2)
H76_4 H 0.4320 0.7537 0.9198
C121_4 C 0.4901(7) 0.8257(8) 0.9360(2)
H77_4 H 0.5166 0.8415 0.9243
C124_4 C 0.5015(6) 0.8566(6) 0.95692(19)
C126_4 C 0.9051(6) 0.7457(7) 0.9692(2)
C127_4 C 0.8037(6) 0.8119(7) 0.9832(2)
H81_4 H 0.7721 0.8207 0.9943
C128_4 C 0.8523(7) 0.8438(8) 0.9474(2)
H82_4 H 0.8486 0.8699 0.9346
C129_4 C 0.9592(7) 0.7814(8) 0.9346(2)
H83_4 H 0.9586 0.8094 0.9220
C130_4 C 0.9079(6) 0.7950(8) 0.9505(2)
O14_4 O 0.9956(6) 0.0483(6) 0.0968(2)
O18_4 O 0.9794(6) 0.0465(7) 0.1329(2)
C27_4 C 0.8296(8) 0.1977(8) 0.0893(2)
H17_4 H 0.8152 0.2133 0.0757
C43_4 C 0.9085(9) 0.1248(9) 0.1115(3)
C45_4 C 0.6509(6) 0.3664(6) 0.1205(2)
C46_4 C 0.7424(8) 0.2803(8) 0.1052(2)
H28_4 H 0.7290 0.2973 0.0917
C47_4 C 0.7097(6) 0.3074(7) 0.1231(2)
C50_4 C 0.7961(7) 0.2267(8) 0.1072(2)
C52_4 C 0.7289(9) 0.2790(10) 0.1444(3)
H30_4 H 0.7063 0.2965 0.1566
C53_4 C 0.8849(8) 0.1453(9) 0.0910(3)
H31_4 H 0.9051 0.1250 0.0787
C54_4 C 0.8156(9) 0.2025(9) 0.1282(3)
C56_4 C 0.9644(8) 0.0699(7) 0.1142(3)
C58_4 C 0.8757(9) 0.1523(9) 0.1303(3)
H33_4 H 0.8924 0.1386 0.1439
C65_4 C 0.7774(12) 0.2293(13) 0.1461(3)
H39_4 H 0.7878 0.2100 0.1596
C4_4 C 0.9363(6) 0.6230(6) 0.54220(18)
C16_4 C 0.9894(6) 0.6836(6) 0.54441(18)
C48_4 C 0.9910(7) 0.7283(8) 0.5627(2)
H29_4 H 0.9572 0.7216 0.5732
H40_4 H 0.9677 0.9280 0.1843
H41_4 H 0.9942 0.9176 0.2207
loop_
_geom_bond_atom_site_label_1
_geom_bond_atom_site_label_2
_geom_bond_site_symmetry_1
_geom_bond_site_symmetry_2
Zn1 O3 1_555 1_555
Zn2 O2 1_555 1_555
Zn3 O9 1_555 1_555
Zn4 O10 1_555 1_555
O1 C4 1_555 1_555
O2 C2 1_555 1_555
O3 C2 1_555 1_555
O5 Zn2 1_555 1_555
O7 C45 1_555 1_555
O8 C4 1_555 1_555
O9 C23 1_555 1_555
O10 C23 1_555 1_555
O11 Zn1 1_555 1_555
O12 C45 1_555 1_555
O13 C42 1_555 1_555
O14 Zn3 1_555 1_555
O15 C49 1_555 1_555
C2 C28 1_555 1_555
O16 C49 1_555 1_555
C4 C16 1_555 1_555
O17 Zn3 1_555 1_555
H2 O17 1_555 1_555
H3 O17 1_555 1_555
N1 H4 1_555 1_555
C7 H6 1_555 1_555
N2 Zn1 1_555 1_555
C8 N2 1_555 1_555
H7 C8 1_555 1_555
C9 C8 1_555 1_555
H8 C9 1_555 1_555
C10 C9 1_555 1_555
C11 C7 1_555 1_555
H9 C11 1_555 1_555
C13 C21 1_555 1_555
C16 C18 1_555 1_555
C18 H12 1_555 1_555
C19 H13 1_555 1_555
O18 Zn4 1_555 1_555
C20 C26 1_555 1_555
C21 O5 1_555 1_555
C22 C29 1_555 1_555
C23 C51 1_555 1_555
C26 H16 1_555 1_555
C27 H17 1_555 1_555
C29 H18 1_555 1_555
C30 C18 1_555 1_555
C31 C13 1_555 1_555
H19 C31 1_555 1_555
C32 C13 1_555 1_555
H20 C32 1_555 1_555
C33 H21 1_555 1_555
C34 C30 1_555 1_555
C35 N1 1_555 1_555
C36 C35 1_555 1_555
H22 C36 1_555 1_555
C37 C36 1_555 1_555
H23 C37 1_555 1_555
C38 C37 1_555 1_555
C39 C38 1_555 1_555
H24 C39 1_555 1_555
C40 C35 1_555 1_555
H25 C40 1_555 1_555
C41 C22 1_555 1_555
H26 C41 1_555 1_555
C42 N1 1_555 1_555
C43 C53 1_555 1_555
C44 C20 1_555 1_555
H27 C44 1_555 1_555
C45 C47 1_555 1_555
C46 H28 1_555 1_555
C47 C46 1_555 1_555
C48 C16 1_555 1_555
H29 C48 1_555 1_555
C49 C20 1_555 1_555
C50 C27 1_555 1_555
C51 C29 1_555 1_555
C52 C47 1_555 1_555
H30 C52 1_555 1_555
C53 C27 1_555 1_555
H31 C53 1_555 1_555
C54 C50 1_555 1_555
C55 C22 1_555 1_555
C56 O14 1_555 1_555
C57 C51 1_555 1_555
H32 C57 1_555 1_555
C58 C43 1_555 1_555
H33 C58 1_555 1_555
C59 C55 1_555 1_555
H34 C59 1_555 1_555
C60 H35 1_555 1_555
C61 C60 1_555 1_555
H36 C61 1_555 1_555
N3 Zn2 1_555 1_555
C62 N3 1_555 1_555
H37 C62 1_555 1_555
C63 C62 1_555 1_555
H38 C63 1_555 1_555
C64 C60 1_555 1_555
C65 C52 1_555 1_555
H39 C65 1_555 1_555
C66 H40 1_555 1_555
C67 C66 1_555 1_555
H41 C67 1_555 1_555
C68 C67 1_555 1_555
C69 C68 1_555 1_555
H42 C69 1_555 1_555
C70 C69 1_555 1_555
H43 C70 1_555 1_555
N4 Zn4 1_555 1_555
O19 C71 1_555 1_555
N5 H44 1_555 1_555
C71 C68 1_555 1_555
O20 C72 1_555 1_555
C72 C64 1_555 1_555
N6 C72 1_555 1_555
H45 N6 1_555 1_555
C73 H46 1_555 1_555
C74 C38 1_555 1_555
C75 C74 1_555 1_555
H47 C75 1_555 1_555
C76 C75 1_555 1_555
H48 C76 1_555 1_555
C77 N5 1_555 1_555
C78 C73 1_555 1_555
H49 C78 1_555 1_555
C79 H50 1_555 1_555
C80 C79 1_555 1_555
C83 N6 1_555 1_555
C84 C79 1_555 1_555
H53 C84 1_555 1_555
H60 C93 1_555 1_555
C94 C93 1_555 1_555
H61 C94 1_555 1_555
O25 C97 1_555 1_555
O27 C97 1_555 1_555
C97 C101 1_555 1_555
C99 H63 1_555 1_555
C101 C99 1_555 1_555
C102 C101 1_555 1_555
H67 C102 1_555 1_555
C108 C102 1_555 1_555
C110 H72 1_555 1_555
C111 C99 1_555 1_555
C113 C108 1_555 1_555
C120 C108 1_555 1_555
H76 C120 1_555 1_555
C121 C120 1_555 1_555
Zn10 O1 1_555 1_555
Zn12 O27 1_555 1_555
Zn14 O8 1_555 1_555
Zn16 O25 1_555 1_555
Zn18 O7 1_555 1_555
Zn22 O12 1_555 1_555
O41 Zn1 1_555 1_555
O43 Zn2 1_555 1_555
O45 Zn1 1_555 1_555
O47 Zn3 1_555 1_555
O49 Zn2 1_555 1_555
O51 Zn4 1_555 1_555
O53 Zn3 1_555 1_555
O55 Zn4 1_555 1_555
O11 C21 1_555 1_555
C7 N2 1_555 1_555
C10 C11 1_555 1_555
C10 C42 1_555 1_555
C19 C30 1_555 1_555
C19 C31 1_555 1_555
O18 C56 1_555 1_555
C26 C41 1_555 1_555
C32 C34 1_555 1_555
C33 C34 1_555 1_555
C33 C48 1_555 1_555
C39 C40 1_555 1_555
C43 C56 1_555 1_555
C44 C55 1_555 1_555
C46 C50 1_555 1_555
C54 C58 1_555 1_555
C54 C65 1_555 1_555
C57 C59 1_555 1_555
C61 N3 1_555 1_555
C63 C64 1_555 1_555
C66 N4 1_555 1_555
C70 N4 1_555 1_555
N5 C71 1_555 1_555
C73 C74 1_555 1_555
C76 C77 1_555 1_555
C77 C78 1_555 1_555
C83 C84 1_555 1_555
C110 C113 1_555 1_555
C111 C113 1_555 1_555
O4 C1 1_555 1_555
O6 C1 1_555 1_555
C1 C5 1_555 1_555
C3 H1 1_555 1_555
C5 C3 1_555 1_555
C6 C5 1_555 1_555
H5 C6 1_555 1_555
C12 C6 1_555 1_555
C14 H10 1_555 1_555
C15 C3 1_555 1_555
H11 C15 1_555 1_555
C17 C12 1_555 1_555
C24 C12 1_555 1_555
H14 C24 1_555 1_555
C25 C24 1_555 1_555
H51 C81 1_555 1_555
C82 C81 1_555 1_555
H52 C82 1_555 1_555
C85 H54 1_555 1_555
C86 C85 1_555 1_555
H55 C86 1_555 1_555
N7 C86 1_555 1_555
C87 N7 1_555 1_555
H56 C87 1_555 1_555
C88 C87 1_555 1_555
H57 C88 1_555 1_555
C89 C85 1_555 1_555
O21 C90 1_555 1_555
C90 C89 1_555 1_555
N8 C90 1_555 1_555
H58 N8 1_555 1_555
C91 H59 1_555 1_555
C95 N8 1_555 1_555
C96 C91 1_555 1_555
H62 C96 1_555 1_555
Zn5 O24 1_555 1_555
Zn6 N7 1_555 1_555
O22 C100 1_555 1_555
O23 Zn6 1_555 1_555
O24 C98 1_555 1_555
O26 Zn6 1_555 1_555
O29 C100 1_555 1_555
O32 Zn5 1_555 1_555
C98 O23 1_555 1_555
C100 C112 1_555 1_555
C109 C117 1_555 1_555
C112 C114 1_555 1_555
C114 H74 1_555 1_555
C115 H75 1_555 1_555
C117 O26 1_555 1_555
C124 C98 1_555 1_555
C126 C114 1_555 1_555
C127 C109 1_555 1_555
H81 C127 1_555 1_555
C128 C109 1_555 1_555
H82 C128 1_555 1_555
C129 H83 1_555 1_555
C130 C126 1_555 1_555
C144 C112 1_555 1_555
H91 C144 1_555 1_555
Zn10 O6 1_555 1_555
Zn12 O22 1_555 1_555
Zn14 O4 1_555 1_555
Zn16 O29 1_555 1_555
O42 Zn5 1_555 1_555
O44 Zn6 1_555 1_555
O46 Zn5 1_555 1_555
O50 Zn6 1_555 1_555
C14 C17 1_555 1_555
C15 C17 1_555 1_555
C88 C89 1_555 1_555
C91 C92 1_555 1_555
C95 C96 1_555 1_555
O32 C117 1_555 1_555
C115 C126 1_555 1_555
C115 C127 1_555 1_555
C128 C130 1_555 1_555
C129 C130 1_555 1_555
C129 C144 1_555 1_555
O41 C4_2 1_555 1_555
O49 C4_2 1_555 1_555
C4_2 C16_2 1_555 1_555
C48_2 C16_2 1_555 1_555
H29_2 C48_2 1_555 1_555
O47 C45_2 1_555 1_555
O51 C45_2 1_555 1_555
C27_2 H17_2 1_555 1_555
C43_2 C53_2 1_555 1_555
C45_2 C47_2 1_555 1_555
C46_2 H28_2 1_555 1_555
C47_2 C46_2 1_555 1_555
C50_2 C27_2 1_555 1_555
C52_2 C47_2 1_555 1_555
H30_2 C52_2 1_555 1_555
C53_2 C27_2 1_555 1_555
H31_2 C53_2 1_555 1_555
C54_2 C50_2 1_555 1_555
C56_2 O14_2 1_555 1_555
C58_2 C43_2 1_555 1_555
H33_2 C58_2 1_555 1_555
C65_2 C52_2 1_555 1_555
H39_2 C65_2 1_555 1_555
O18_2 C56_2 1_555 1_555
C43_2 C56_2 1_555 1_555
C46_2 C50_2 1_555 1_555
C54_2 C58_2 1_555 1_555
C54_2 C65_2 1_555 1_555
O2_2 C2_2 1_555 1_555
O3_2 C2_2 1_555 1_555
O43 C1_2 1_555 1_555
O45 C1_2 1_555 1_555
C1_2 C5_2 1_555 1_555
C2_2 C28_2 1_555 1_555
C3_2 H1_2 1_555 1_555
O17_2 Zn18 1_555 1_555
H2_2 O17_2 1_555 1_555
H3_2 O17_2 1_555 1_555
C5_2 C3_2 1_555 1_555
C6_2 C5_2 1_555 1_555
H5_2 C6_2 1_555 1_555
H7_2 C8_2 1_555 1_555
C9_2 C8_2 1_555 1_555
H8_2 C9_2 1_555 1_555
C12_2 C6_2 1_555 1_555
C13_2 C21_2 1_555 1_555
C14_2 H10_2 1_555 1_555
C15_2 C3_2 1_555 1_555
H11_2 C15_2 1_555 1_555
C17_2 C12_2 1_555 1_555
C18_2 H12_2 1_555 1_555
C19_2 H13_2 1_555 1_555
C21_2 O5_2 1_555 1_555
C24_2 C12_2 1_555 1_555
H14_2 C24_2 1_555 1_555
C25_2 C24_2 1_555 1_555
H15_2 C25_2 1_555 1_555
C28_2 C14_2 1_555 1_555
C30_2 C18_2 1_555 1_555
C31_2 C13_2 1_555 1_555
H19_2 C31_2 1_555 1_555
C32_2 C13_2 1_555 1_555
H20_2 C32_2 1_555 1_555
C33_2 H21_2 1_555 1_555
C34_2 C30_2 1_555 1_555
H24_2 C39_2 1_555 1_555
H25_2 C40_2 1_555 1_555
C67_2 C66_2 1_555 1_555
C68_2 C67_2 1_555 1_555
C69_2 C68_2 1_555 1_555
H42_2 C69_2 1_555 1_555
C70_2 C69_2 1_555 1_555
N4_2 Zn22 1_555 1_555
O19_2 C71_2 1_555 1_555
N5_2 H44_2 1_555 1_555
C71_2 C68_2 1_555 1_555
H47_2 C75_2 1_555 1_555
C76_2 C75_2 1_555 1_555
H48_2 C76_2 1_555 1_555
C77_2 N5_2 1_555 1_555
C79_2 H50_2 1_555 1_555
C80_2 C79_2 1_555 1_555
C81_2 C80_2 1_555 1_555
H51_2 C81_2 1_555 1_555
C91_2 H59_2 1_555 1_555
C92_2 C80_2 1_555 1_555
C93_2 C92_2 1_555 1_555
H60_2 C93_2 1_555 1_555
O24_2 C98_2 1_555 1_555
O44 C97_2 1_555 1_555
O46 C97_2 1_555 1_555
C97_2 C101_2 1_555 1_555
C98_2 O23_2 1_555 1_555
C99_2 H63_2 1_555 1_555
C101_2 C99_2 1_555 1_555
C102_2 C101_2 1_555 1_555
H67_2 C102_2 1_555 1_555
C108_2 C102_2 1_555 1_555
C109_2 C117_2 1_555 1_555
C110_2 H72_2 1_555 1_555
C111_2 C99_2 1_555 1_555
C113_2 C108_2 1_555 1_555
C114_2 H74_2 1_555 1_555
C115_2 H75_2 1_555 1_555
C117_2 O26_2 1_555 1_555
C120_2 C108_2 1_555 1_555
H76_2 C120_2 1_555 1_555
C121_2 C120_2 1_555 1_555
H77_2 C121_2 1_555 1_555
C124_2 C98_2 1_555 1_555
C126_2 C114_2 1_555 1_555
C127_2 C109_2 1_555 1_555
H81_2 C127_2 1_555 1_555
C128_2 C109_2 1_555 1_555
H82_2 C128_2 1_555 1_555
C129_2 H83_2 1_555 1_555
C130_2 C126_2 1_555 1_555
O11_2 C21_2 1_555 1_555
C14_2 C17_2 1_555 1_555
C15_2 C17_2 1_555 1_555
C19_2 C30_2 1_555 1_555
C19_2 C31_2 1_555 1_555
C25_2 C28_2 1_555 1_555
C32_2 C34_2 1_555 1_555
C33_2 C34_2 1_555 1_555
C39_2 C40_2 1_555 1_555
C66_2 N4_2 1_555 1_555
C70_2 N4_2 1_555 1_555
N5_2 C71_2 1_555 1_555
C76_2 C77_2 1_555 1_555
C91_2 C92_2 1_555 1_555
O32_2 C117_2 1_555 1_555
C110_2 C113_2 1_555 1_555
C110_2 C124_2 1_555 1_555
C111_2 C113_2 1_555 1_555
C115_2 C126_2 1_555 1_555
C115_2 C127_2 1_555 1_555
C121_2 C124_2 1_555 1_555
C128_2 C130_2 1_555 1_555
C129_2 C130_2 1_555 1_555
O9_2 C23_2 1_555 1_555
O10_2 C23_2 1_555 1_555
O13_2 C42_2 1_555 1_555
O53 C49_2 1_555 1_555
O55 C49_2 1_555 1_555
N1_2 H4_2 1_555 1_555
C7_2 H6_2 1_555 1_555
N2_2 Zn10 1_555 1_555
C11_2 C7_2 1_555 1_555
H9_2 C11_2 1_555 1_555
C20_2 C26_2 1_555 1_555
C22_2 C29_2 1_555 1_555
C23_2 C51_2 1_555 1_555
C26_2 H16_2 1_555 1_555
C29_2 H18_2 1_555 1_555
C35_2 N1_2 1_555 1_555
C36_2 C35_2 1_555 1_555
H22_2 C36_2 1_555 1_555
C37_2 C36_2 1_555 1_555
H23_2 C37_2 1_555 1_555
C38_2 C37_2 1_555 1_555
C41_2 C22_2 1_555 1_555
H26_2 C41_2 1_555 1_555
C42_2 N1_2 1_555 1_555
C44_2 C20_2 1_555 1_555
H27_2 C44_2 1_555 1_555
C49_2 C20_2 1_555 1_555
C51_2 C29_2 1_555 1_555
C55_2 C22_2 1_555 1_555
C57_2 C51_2 1_555 1_555
H32_2 C57_2 1_555 1_555
C59_2 C55_2 1_555 1_555
H34_2 C59_2 1_555 1_555
C60_2 H35_2 1_555 1_555
C61_2 C60_2 1_555 1_555
N3_2 Zn14 1_555 1_555
C62_2 N3_2 1_555 1_555
H37_2 C62_2 1_555 1_555
C63_2 C62_2 1_555 1_555
H38_2 C63_2 1_555 1_555
C64_2 C60_2 1_555 1_555
O20_2 C72_2 1_555 1_555
C72_2 C64_2 1_555 1_555
N6_2 C72_2 1_555 1_555
H45_2 N6_2 1_555 1_555
C73_2 H46_2 1_555 1_555
C74_2 C38_2 1_555 1_555
C78_2 C73_2 1_555 1_555
H49_2 C78_2 1_555 1_555
H52_2 C82_2 1_555 1_555
C83_2 N6_2 1_555 1_555
H53_2 C84_2 1_555 1_555
C85_2 H54_2 1_555 1_555
C86_2 C85_2 1_555 1_555
N7_2 C86_2 1_555 1_555
C87_2 N7_2 1_555 1_555
H56_2 C87_2 1_555 1_555
C88_2 C87_2 1_555 1_555
H57_2 C88_2 1_555 1_555
C89_2 C85_2 1_555 1_555
O21_2 C90_2 1_555 1_555
C90_2 C89_2 1_555 1_555
N8_2 C90_2 1_555 1_555
H58_2 N8_2 1_555 1_555
H61_2 C94_2 1_555 1_555
C95_2 N8_2 1_555 1_555
H62_2 C96_2 1_555 1_555
Zn16 N7_2 1_555 1_555
C7_2 N2_2 1_555 1_555
C10_2 C11_2 1_555 1_555
C10_2 C42_2 1_555 1_555
C26_2 C41_2 1_555 1_555
C44_2 C55_2 1_555 1_555
C57_2 C59_2 1_555 1_555
C61_2 N3_2 1_555 1_555
C63_2 C64_2 1_555 1_555
C73_2 C74_2 1_555 1_555
C82_2 C83_2 1_555 1_555
C83_2 C84_2 1_555 1_555
C88_2 C89_2 1_555 1_555
C94_2 C95_2 1_555 1_555
C95_2 C96_2 1_555 1_555
O42 C100_2 1_555 1_555
O50 C100_2 1_555 1_555
C100_2 C112_2 1_555 1_555
C144_2 C112_2 1_555 1_555
H91_2 C144_2 1_555 1_555
Zn7 O30 1_555 1_555
Zn8 O31 1_555 1_555
O28 C141 1_555 1_555
O30 C119 1_555 1_555
O31 C119 1_555 1_555
O33 C141 1_555 1_555
O34 C138 1_555 1_555
O35 Zn7 1_555 1_555
O36 C145 1_555 1_555
O37 C145 1_555 1_555
O38 Zn7 1_555 1_555
H64 O38 1_555 1_555
H65 O38 1_555 1_555
N9 H66 1_555 1_555
C103 H68 1_555 1_555
C104 N10 1_555 1_555
H69 C104 1_555 1_555
C105 C104 1_555 1_555
H70 C105 1_555 1_555
C106 C105 1_555 1_555
C107 C103 1_555 1_555
H71 C107 1_555 1_555
O39 Zn8 1_555 1_555
C116 C122 1_555 1_555
C118 C125 1_555 1_555
C119 C147 1_555 1_555
C122 H78 1_555 1_555
C123 H79 1_555 1_555
C125 H80 1_555 1_555
C131 N9 1_555 1_555
C132 C131 1_555 1_555
H84 C132 1_555 1_555
C133 C132 1_555 1_555
H85 C133 1_555 1_555
C134 C133 1_555 1_555
C135 C134 1_555 1_555
H86 C135 1_555 1_555
C136 C131 1_555 1_555
H87 C136 1_555 1_555
C137 C118 1_555 1_555
H88 C137 1_555 1_555
C138 N9 1_555 1_555
C139 C149 1_555 1_555
C140 C116 1_555 1_555
H89 C140 1_555 1_555
C141 C143 1_555 1_555
C142 H90 1_555 1_555
C143 C142 1_555 1_555
C145 C116 1_555 1_555
C146 C123 1_555 1_555
C147 C125 1_555 1_555
C148 C143 1_555 1_555
H92 C148 1_555 1_555
C149 C123 1_555 1_555
H93 C149 1_555 1_555
C150 C146 1_555 1_555
C151 C118 1_555 1_555
C152 O35 1_555 1_555
C153 C147 1_555 1_555
H94 C153 1_555 1_555
C154 C139 1_555 1_555
H95 C154 1_555 1_555
C155 C151 1_555 1_555
H96 C155 1_555 1_555
C156 C148 1_555 1_555
H97 C156 1_555 1_555
C157 H98 1_555 1_555
C158 C157 1_555 1_555
H99 C158 1_555 1_555
C159 C158 1_555 1_555
C160 C159 1_555 1_555
H100 C160 1_555 1_555
C161 C160 1_555 1_555
H101 C161 1_555 1_555
N11 Zn8 1_555 1_555
O40 C162 1_555 1_555
N12 H102 1_555 1_555
C162 C159 1_555 1_555
C163 H103 1_555 1_555
C164 C134 1_555 1_555
C165 C164 1_555 1_555
H104 C165 1_555 1_555
C166 C165 1_555 1_555
H105 C166 1_555 1_555
C167 N12 1_555 1_555
C168 C163 1_555 1_555
H106 C168 1_555 1_555
Zn20 O28 1_555 1_555
Zn24 O33 1_555 1_555
O48 Zn7 1_555 1_555
O52 Zn8 1_555 1_555
O54 Zn7 1_555 1_555
O56 Zn8 1_555 1_555
C103 N10 1_555 1_555
C106 C107 1_555 1_555
C106 C138 1_555 1_555
O39 C152 1_555 1_555
C122 C137 1_555 1_555
C135 C136 1_555 1_555
C139 C152 1_555 1_555
C140 C151 1_555 1_555
C142 C146 1_555 1_555
C150 C154 1_555 1_555
C150 C156 1_555 1_555
C153 C155 1_555 1_555
C157 N11 1_555 1_555
C161 N11 1_555 1_555
N12 C162 1_555 1_555
C163 C164 1_555 1_555
C166 C167 1_555 1_555
C167 C168 1_555 1_555
O38_2 Zn20 1_555 1_555
H64_2 O38_2 1_555 1_555
H65_2 O38_2 1_555 1_555
H69_2 C104_2 1_555 1_555
C105_2 C104_2 1_555 1_555
H70_2 C105_2 1_555 1_555
H86_2 C135_2 1_555 1_555
H87_2 C136_2 1_555 1_555
C158_2 C157_2 1_555 1_555
C159_2 C158_2 1_555 1_555
C160_2 C159_2 1_555 1_555
H100_2 C160_2 1_555 1_555
C161_2 C160_2 1_555 1_555
N11_2 Zn24 1_555 1_555
O40_2 C162_2 1_555 1_555
N12_2 H102_2 1_555 1_555
C162_2 C159_2 1_555 1_555
H104_2 C165_2 1_555 1_555
C166_2 C165_2 1_555 1_555
H105_2 C166_2 1_555 1_555
C167_2 N12_2 1_555 1_555
C135_2 C136_2 1_555 1_555
C157_2 N11_2 1_555 1_555
C161_2 N11_2 1_555 1_555
N12_2 C162_2 1_555 1_555
C166_2 C167_2 1_555 1_555
O30_2 C119_2 1_555 1_555
O31_2 C119_2 1_555 1_555
O34_2 C138_2 1_555 1_555
O54 C145_2 1_555 1_555
O56 C145_2 1_555 1_555
N9_2 H66_2 1_555 1_555
C103_2 H68_2 1_555 1_555
C107_2 C103_2 1_555 1_555
H71_2 C107_2 1_555 1_555
C116_2 C122_2 1_555 1_555
C118_2 C125_2 1_555 1_555
C119_2 C147_2 1_555 1_555
C122_2 H78_2 1_555 1_555
C125_2 H80_2 1_555 1_555
C131_2 N9_2 1_555 1_555
C132_2 C131_2 1_555 1_555
H84_2 C132_2 1_555 1_555
C133_2 C132_2 1_555 1_555
H85_2 C133_2 1_555 1_555
C134_2 C133_2 1_555 1_555
C137_2 C118_2 1_555 1_555
H88_2 C137_2 1_555 1_555
C138_2 N9_2 1_555 1_555
C140_2 C116_2 1_555 1_555
H89_2 C140_2 1_555 1_555
C145_2 C116_2 1_555 1_555
C147_2 C125_2 1_555 1_555
C151_2 C118_2 1_555 1_555
C153_2 C147_2 1_555 1_555
H94_2 C153_2 1_555 1_555
C155_2 C151_2 1_555 1_555
H96_2 C155_2 1_555 1_555
C163_2 H103_2 1_555 1_555
C164_2 C134_2 1_555 1_555
C168_2 C163_2 1_555 1_555
H106_2 C168_2 1_555 1_555
C103_2 N10_2 1_555 1_555
C106_2 C107_2 1_555 1_555
C106_2 C138_2 1_555 1_555
C122_2 C137_2 1_555 1_555
C140_2 C151_2 1_555 1_555
C153_2 C155_2 1_555 1_555
C163_2 C164_2 1_555 1_555
O48 C141_2 1_555 1_555
O52 C141_2 1_555 1_555
C123_2 H79_2 1_555 1_555
C139_2 C149_2 1_555 1_555
C141_2 C143_2 1_555 1_555
C142_2 H90_2 1_555 1_555
C143_2 C142_2 1_555 1_555
C146_2 C123_2 1_555 1_555
C148_2 C143_2 1_555 1_555
H92_2 C148_2 1_555 1_555
C149_2 C123_2 1_555 1_555
H93_2 C149_2 1_555 1_555
C150_2 C146_2 1_555 1_555
C152_2 O35_2 1_555 1_555
C154_2 C139_2 1_555 1_555
H95_2 C154_2 1_555 1_555
C156_2 C148_2 1_555 1_555
H97_2 C156_2 1_555 1_555
O39_2 C152_2 1_555 1_555
C139_2 C152_2 1_555 1_555
C142_2 C146_2 1_555 1_555
C150_2 C154_2 1_555 1_555
C150_2 C156_2 1_555 1_555
Zn7_2 O30_3 1_555 1_555
Zn8_2 O31_3 1_555 1_555
O28_2 C141_3 1_555 1_555
O30_3 C119_3 1_555 1_555
O31_3 C119_3 1_555 1_555
O33_2 C141_3 1_555 1_555
O34_3 C138_3 1_555 1_555
O35_3 Zn7_2 1_555 1_555
O36_2 C145_3 1_555 1_555
O37_2 C145_3 1_555 1_555
O38_3 Zn7_2 1_555 1_555
H64_3 O38_3 1_555 1_555
H65_3 O38_3 1_555 1_555
N9_3 H66_3 1_555 1_555
C103_3 H68_3 1_555 1_555
C104_3 N10_3 1_555 1_555
H69_3 C104_3 1_555 1_555
C105_3 C104_3 1_555 1_555
H70_3 C105_3 1_555 1_555
C106_3 C105_3 1_555 1_555
C107_3 C103_3 1_555 1_555
H71_3 C107_3 1_555 1_555
O39_3 Zn8_2 1_555 1_555
C116_3 C122_3 1_555 1_555
C118_3 C125_3 1_555 1_555
C119_3 C147_3 1_555 1_555
C122_3 H78_3 1_555 1_555
C123_3 H79_3 1_555 1_555
C125_3 H80_3 1_555 1_555
C131_3 N9_3 1_555 1_555
C132_3 C131_3 1_555 1_555
H84_3 C132_3 1_555 1_555
C133_3 C132_3 1_555 1_555
H85_3 C133_3 1_555 1_555
C134_3 C133_3 1_555 1_555
C135_3 C134_3 1_555 1_555
H86_3 C135_3 1_555 1_555
C136_3 C131_3 1_555 1_555
H87_3 C136_3 1_555 1_555
C137_3 C118_3 1_555 1_555
H88_3 C137_3 1_555 1_555
C138_3 N9_3 1_555 1_555
C139_3 C149_3 1_555 1_555
C140_3 C116_3 1_555 1_555
H89_3 C140_3 1_555 1_555
C141_3 C143_3 1_555 1_555
C142_3 H90_3 1_555 1_555
C143_3 C142_3 1_555 1_555
C145_3 C116_3 1_555 1_555
C146_3 C123_3 1_555 1_555
C147_3 C125_3 1_555 1_555
C148_3 C143_3 1_555 1_555
H92_3 C148_3 1_555 1_555
C149_3 C123_3 1_555 1_555
H93_3 C149_3 1_555 1_555
C150_3 C146_3 1_555 1_555
C151_3 C118_3 1_555 1_555
C152_3 O35_3 1_555 1_555
C153_3 C147_3 1_555 1_555
H94_3 C153_3 1_555 1_555
C154_3 C139_3 1_555 1_555
H95_3 C154_3 1_555 1_555
C155_3 C151_3 1_555 1_555
H96_3 C155_3 1_555 1_555
C156_3 C148_3 1_555 1_555
H97_3 C156_3 1_555 1_555
C157_3 H98_3 1_555 1_555
C158_3 C157_3 1_555 1_555
H99_3 C158_3 1_555 1_555
C159_3 C158_3 1_555 1_555
C160_3 C159_3 1_555 1_555
H100_3 C160_3 1_555 1_555
C161_3 C160_3 1_555 1_555
H101_3 C161_3 1_555 1_555
N11_3 Zn8_2 1_555 1_555
O40_3 C162_3 1_555 1_555
N12_3 H102_3 1_555 1_555
C162_3 C159_3 1_555 1_555
C163_3 H103_3 1_555 1_555
C164_3 C134_3 1_555 1_555
C165_3 C164_3 1_555 1_555
H104_3 C165_3 1_555 1_555
C166_3 C165_3 1_555 1_555
H105_3 C166_3 1_555 1_555
C167_3 N12_3 1_555 1_555
C168_3 C163_3 1_555 1_555
H106_3 C168_3 1_555 1_555
Zn19 O28_2 1_555 1_555
Zn23 O33_2 1_555 1_555
O48_2 Zn7_2 1_555 1_555
O52_2 Zn8_2 1_555 1_555
O54_2 Zn7_2 1_555 1_555
O56_2 Zn8_2 1_555 1_555
C103_3 N10_3 1_555 1_555
C106_3 C107_3 1_555 1_555
C106_3 C138_3 1_555 1_555
O39_3 C152_3 1_555 1_555
C122_3 C137_3 1_555 1_555
C135_3 C136_3 1_555 1_555
C139_3 C152_3 1_555 1_555
C140_3 C151_3 1_555 1_555
C142_3 C146_3 1_555 1_555
C150_3 C154_3 1_555 1_555
C150_3 C156_3 1_555 1_555
C153_3 C155_3 1_555 1_555
C157_3 N11_3 1_555 1_555
C161_3 N11_3 1_555 1_555
N12_3 C162_3 1_555 1_555
C163_3 C164_3 1_555 1_555
C166_3 C167_3 1_555 1_555
C167_3 C168_3 1_555 1_555
O48_2 C141_4 1_555 1_555
O52_2 C141_4 1_555 1_555
C123_4 H79_4 1_555 1_555
C139_4 C149_4 1_555 1_555
C141_4 C143_4 1_555 1_555
C142_4 H90_4 1_555 1_555
C143_4 C142_4 1_555 1_555
C146_4 C123_4 1_555 1_555
C148_4 C143_4 1_555 1_555
H92_4 C148_4 1_555 1_555
C149_4 C123_4 1_555 1_555
H93_4 C149_4 1_555 1_555
C150_4 C146_4 1_555 1_555
C152_4 O35_4 1_555 1_555
C154_4 C139_4 1_555 1_555
H95_4 C154_4 1_555 1_555
C156_4 C148_4 1_555 1_555
H97_4 C156_4 1_555 1_555
O39_4 C152_4 1_555 1_555
C139_4 C152_4 1_555 1_555
C142_4 C146_4 1_555 1_555
C150_4 C154_4 1_555 1_555
C150_4 C156_4 1_555 1_555
O30_4 C119_4 1_555 1_555
O31_4 C119_4 1_555 1_555
O34_4 C138_4 1_555 1_555
O54_2 C145_4 1_555 1_555
O56_2 C145_4 1_555 1_555
N9_4 H66_4 1_555 1_555
C103_4 H68_4 1_555 1_555
C107_4 C103_4 1_555 1_555
H71_4 C107_4 1_555 1_555
C116_4 C122_4 1_555 1_555
C118_4 C125_4 1_555 1_555
C119_4 C147_4 1_555 1_555
C122_4 H78_4 1_555 1_555
C125_4 H80_4 1_555 1_555
C131_4 N9_4 1_555 1_555
C132_4 C131_4 1_555 1_555
H84_4 C132_4 1_555 1_555
C133_4 C132_4 1_555 1_555
H85_4 C133_4 1_555 1_555
C134_4 C133_4 1_555 1_555
C137_4 C118_4 1_555 1_555
H88_4 C137_4 1_555 1_555
C138_4 N9_4 1_555 1_555
C140_4 C116_4 1_555 1_555
H89_4 C140_4 1_555 1_555
C145_4 C116_4 1_555 1_555
C147_4 C125_4 1_555 1_555
C151_4 C118_4 1_555 1_555
C153_4 C147_4 1_555 1_555
H94_4 C153_4 1_555 1_555
C155_4 C151_4 1_555 1_555
H96_4 C155_4 1_555 1_555
C163_4 H103_4 1_555 1_555
C164_4 C134_4 1_555 1_555
C168_4 C163_4 1_555 1_555
H106_4 C168_4 1_555 1_555
C103_4 N10_4 1_555 1_555
C106_4 C107_4 1_555 1_555
C106_4 C138_4 1_555 1_555
C122_4 C137_4 1_555 1_555
C140_4 C151_4 1_555 1_555
C153_4 C155_4 1_555 1_555
C163_4 C164_4 1_555 1_555
O38_4 Zn19 1_555 1_555
H64_4 O38_4 1_555 1_555
H65_4 O38_4 1_555 1_555
H69_4 C104_4 1_555 1_555
C105_4 C104_4 1_555 1_555
H70_4 C105_4 1_555 1_555
H86_4 C135_4 1_555 1_555
H87_4 C136_4 1_555 1_555
C158_4 C157_4 1_555 1_555
C159_4 C158_4 1_555 1_555
C160_4 C159_4 1_555 1_555
H100_4 C160_4 1_555 1_555
C161_4 C160_4 1_555 1_555
N11_4 Zn23 1_555 1_555
O40_4 C162_4 1_555 1_555
N12_4 H102_4 1_555 1_555
C162_4 C159_4 1_555 1_555
H104_4 C165_4 1_555 1_555
C166_4 C165_4 1_555 1_555
H105_4 C166_4 1_555 1_555
C167_4 N12_4 1_555 1_555
C135_4 C136_4 1_555 1_555
C157_4 N11_4 1_555 1_555
C161_4 N11_4 1_555 1_555
N12_4 C162_4 1_555 1_555
C166_4 C167_4 1_555 1_555
O4_2 C1_3 1_555 1_555
O6_2 C1_3 1_555 1_555
C1_3 C5_3 1_555 1_555
C3_3 H1_3 1_555 1_555
C5_3 C3_3 1_555 1_555
C6_3 C5_3 1_555 1_555
H5_3 C6_3 1_555 1_555
C12_3 C6_3 1_555 1_555
C14_3 H10_3 1_555 1_555
C15_3 C3_3 1_555 1_555
H11_3 C15_3 1_555 1_555
C17_3 C12_3 1_555 1_555
C24_3 C12_3 1_555 1_555
H14_3 C24_3 1_555 1_555
C25_3 C24_3 1_555 1_555
H51_3 C81_3 1_555 1_555
C82_3 C81_3 1_555 1_555
H52_3 C82_3 1_555 1_555
C85_3 H54_3 1_555 1_555
C86_3 C85_3 1_555 1_555
H55_3 C86_3 1_555 1_555
N7_3 C86_3 1_555 1_555
C87_3 N7_3 1_555 1_555
H56_3 C87_3 1_555 1_555
C88_3 C87_3 1_555 1_555
H57_3 C88_3 1_555 1_555
C89_3 C85_3 1_555 1_555
O21_3 C90_3 1_555 1_555
C90_3 C89_3 1_555 1_555
N8_3 C90_3 1_555 1_555
H58_3 N8_3 1_555 1_555
C91_3 H59_3 1_555 1_555
C95_3 N8_3 1_555 1_555
C96_3 C91_3 1_555 1_555
H62_3 C96_3 1_555 1_555
Zn5_2 O24_3 1_555 1_555
Zn6_2 N7_3 1_555 1_555
O22_2 C100_3 1_555 1_555
O23_3 Zn6_2 1_555 1_555
O24_3 C98_3 1_555 1_555
O26_3 Zn6_2 1_555 1_555
O29_2 C100_3 1_555 1_555
O32_3 Zn5_2 1_555 1_555
C98_3 O23_3 1_555 1_555
C100_3 C112_3 1_555 1_555
C109_3 C117_3 1_555 1_555
C112_3 C114_3 1_555 1_555
C114_3 H74_3 1_555 1_555
C115_3 H75_3 1_555 1_555
C117_3 O26_3 1_555 1_555
C124_3 C98_3 1_555 1_555
C126_3 C114_3 1_555 1_555
C127_3 C109_3 1_555 1_555
H81_3 C127_3 1_555 1_555
C128_3 C109_3 1_555 1_555
H82_3 C128_3 1_555 1_555
C129_3 H83_3 1_555 1_555
C130_3 C126_3 1_555 1_555
C144_3 C112_3 1_555 1_555
H91_3 C144_3 1_555 1_555
Zn9 O6_2 1_555 1_555
Zn11 O22_2 1_555 1_555
Zn13 O4_2 1_555 1_555
Zn15 O29_2 1_555 1_555
O42_2 Zn5_2 1_555 1_555
O44_2 Zn6_2 1_555 1_555
O46_2 Zn5_2 1_555 1_555
O50_2 Zn6_2 1_555 1_555
C14_3 C17_3 1_555 1_555
C15_3 C17_3 1_555 1_555
C88_3 C89_3 1_555 1_555
C91_3 C92_3 1_555 1_555
C95_3 C96_3 1_555 1_555
O32_3 C117_3 1_555 1_555
C115_3 C126_3 1_555 1_555
C115_3 C127_3 1_555 1_555
C128_3 C130_3 1_555 1_555
C129_3 C130_3 1_555 1_555
C129_3 C144_3 1_555 1_555
Zn1_2 O3_3 1_555 1_555
Zn2_2 O2_3 1_555 1_555
Zn3_2 O9_3 1_555 1_555
Zn4_2 O10_3 1_555 1_555
O1_2 C4_3 1_555 1_555
O2_3 C2_3 1_555 1_555
O3_3 C2_3 1_555 1_555
O5_3 Zn2_2 1_555 1_555
O7_2 C45_3 1_555 1_555
O8_2 C4_3 1_555 1_555
O9_3 C23_3 1_555 1_555
O10_3 C23_3 1_555 1_555
O11_3 Zn1_2 1_555 1_555
O12_2 C45_3 1_555 1_555
O13_3 C42_3 1_555 1_555
O14_3 Zn3_2 1_555 1_555
O15_2 C49_3 1_555 1_555
C2_3 C28_3 1_555 1_555
O16_2 C49_3 1_555 1_555
C4_3 C16_3 1_555 1_555
O17_3 Zn3_2 1_555 1_555
H2_3 O17_3 1_555 1_555
H3_3 O17_3 1_555 1_555
N1_3 H4_3 1_555 1_555
C7_3 H6_3 1_555 1_555
N2_3 Zn1_2 1_555 1_555
C8_3 N2_3 1_555 1_555
H7_3 C8_3 1_555 1_555
C9_3 C8_3 1_555 1_555
H8_3 C9_3 1_555 1_555
C10_3 C9_3 1_555 1_555
C11_3 C7_3 1_555 1_555
H9_3 C11_3 1_555 1_555
C13_3 C21_3 1_555 1_555
C16_3 C18_3 1_555 1_555
C18_3 H12_3 1_555 1_555
C19_3 H13_3 1_555 1_555
O18_3 Zn4_2 1_555 1_555
C20_3 C26_3 1_555 1_555
C21_3 O5_3 1_555 1_555
C22_3 C29_3 1_555 1_555
C23_3 C51_3 1_555 1_555
C26_3 H16_3 1_555 1_555
C27_3 H17_3 1_555 1_555
C29_3 H18_3 1_555 1_555
C30_3 C18_3 1_555 1_555
C31_3 C13_3 1_555 1_555
H19_3 C31_3 1_555 1_555
C32_3 C13_3 1_555 1_555
H20_3 C32_3 1_555 1_555
C33_3 H21_3 1_555 1_555
C34_3 C30_3 1_555 1_555
C35_3 N1_3 1_555 1_555
C36_3 C35_3 1_555 1_555
H22_3 C36_3 1_555 1_555
C37_3 C36_3 1_555 1_555
H23_3 C37_3 1_555 1_555
C38_3 C37_3 1_555 1_555
C39_3 C38_3 1_555 1_555
H24_3 C39_3 1_555 1_555
C40_3 C35_3 1_555 1_555
H25_3 C40_3 1_555 1_555
C41_3 C22_3 1_555 1_555
H26_3 C41_3 1_555 1_555
C42_3 N1_3 1_555 1_555
C43_3 C53_3 1_555 1_555
C44_3 C20_3 1_555 1_555
H27_3 C44_3 1_555 1_555
C45_3 C47_3 1_555 1_555
C46_3 H28_3 1_555 1_555
C47_3 C46_3 1_555 1_555
C48_3 C16_3 1_555 1_555
H29_3 C48_3 1_555 1_555
C49_3 C20_3 1_555 1_555
C50_3 C27_3 1_555 1_555
C51_3 C29_3 1_555 1_555
C52_3 C47_3 1_555 1_555
H30_3 C52_3 1_555 1_555
C53_3 C27_3 1_555 1_555
H31_3 C53_3 1_555 1_555
C54_3 C50_3 1_555 1_555
C55_3 C22_3 1_555 1_555
C56_3 O14_3 1_555 1_555
C57_3 C51_3 1_555 1_555
H32_3 C57_3 1_555 1_555
C58_3 C43_3 1_555 1_555
H33_3 C58_3 1_555 1_555
C59_3 C55_3 1_555 1_555
H34_3 C59_3 1_555 1_555
C60_3 H35_3 1_555 1_555
C61_3 C60_3 1_555 1_555
H36_3 C61_3 1_555 1_555
N3_3 Zn2_2 1_555 1_555
C62_3 N3_3 1_555 1_555
H37_3 C62_3 1_555 1_555
C63_3 C62_3 1_555 1_555
H38_3 C63_3 1_555 1_555
C64_3 C60_3 1_555 1_555
C65_3 C52_3 1_555 1_555
H39_3 C65_3 1_555 1_555
C66_3 H40_3 1_555 1_555
C67_3 C66_3 1_555 1_555
H41_3 C67_3 1_555 1_555
C68_3 C67_3 1_555 1_555
C69_3 C68_3 1_555 1_555
H42_3 C69_3 1_555 1_555
C70_3 C69_3 1_555 1_555
H43_3 C70_3 1_555 1_555
N4_3 Zn4_2 1_555 1_555
O19_3 C71_3 1_555 1_555
N5_3 H44_3 1_555 1_555
C71_3 C68_3 1_555 1_555
O20_3 C72_3 1_555 1_555
C72_3 C64_3 1_555 1_555
N6_3 C72_3 1_555 1_555
H45_3 N6_3 1_555 1_555
C73_3 H46_3 1_555 1_555
C74_3 C38_3 1_555 1_555
C75_3 C74_3 1_555 1_555
H47_3 C75_3 1_555 1_555
C76_3 C75_3 1_555 1_555
H48_3 C76_3 1_555 1_555
C77_3 N5_3 1_555 1_555
C78_3 C73_3 1_555 1_555
H49_3 C78_3 1_555 1_555
C79_3 H50_3 1_555 1_555
C80_3 C79_3 1_555 1_555
C83_3 N6_3 1_555 1_555
C84_3 C79_3 1_555 1_555
H53_3 C84_3 1_555 1_555
H60_3 C93_3 1_555 1_555
C94_3 C93_3 1_555 1_555
H61_3 C94_3 1_555 1_555
O25_2 C97_3 1_555 1_555
O27_2 C97_3 1_555 1_555
C97_3 C101_3 1_555 1_555
C99_3 H63_3 1_555 1_555
C101_3 C99_3 1_555 1_555
C102_3 C101_3 1_555 1_555
H67_3 C102_3 1_555 1_555
C108_3 C102_3 1_555 1_555
C110_3 H72_3 1_555 1_555
C111_3 C99_3 1_555 1_555
C113_3 C108_3 1_555 1_555
C120_3 C108_3 1_555 1_555
H76_3 C120_3 1_555 1_555
C121_3 C120_3 1_555 1_555
Zn9 O1_2 1_555 1_555
Zn11 O27_2 1_555 1_555
Zn13 O8_2 1_555 1_555
Zn15 O25_2 1_555 1_555
Zn17 O7_2 1_555 1_555
Zn21 O12_2 1_555 1_555
O41_2 Zn1_2 1_555 1_555
O43_2 Zn2_2 1_555 1_555
O45_2 Zn1_2 1_555 1_555
O47_2 Zn3_2 1_555 1_555
O49_2 Zn2_2 1_555 1_555
O51_2 Zn4_2 1_555 1_555
O53_2 Zn3_2 1_555 1_555
O55_2 Zn4_2 1_555 1_555
O11_3 C21_3 1_555 1_555
C7_3 N2_3 1_555 1_555
C10_3 C11_3 1_555 1_555
C10_3 C42_3 1_555 1_555
C19_3 C30_3 1_555 1_555
C19_3 C31_3 1_555 1_555
O18_3 C56_3 1_555 1_555
C26_3 C41_3 1_555 1_555
C32_3 C34_3 1_555 1_555
C33_3 C34_3 1_555 1_555
C33_3 C48_3 1_555 1_555
C39_3 C40_3 1_555 1_555
C43_3 C56_3 1_555 1_555
C44_3 C55_3 1_555 1_555
C46_3 C50_3 1_555 1_555
C54_3 C58_3 1_555 1_555
C54_3 C65_3 1_555 1_555
C57_3 C59_3 1_555 1_555
C61_3 N3_3 1_555 1_555
C63_3 C64_3 1_555 1_555
C66_3 N4_3 1_555 1_555
C70_3 N4_3 1_555 1_555
N5_3 C71_3 1_555 1_555
C73_3 C74_3 1_555 1_555
C76_3 C77_3 1_555 1_555
C77_3 C78_3 1_555 1_555
C83_3 C84_3 1_555 1_555
C110_3 C113_3 1_555 1_555
C111_3 C113_3 1_555 1_555
O42_2 C100_4 1_555 1_555
O50_2 C100_4 1_555 1_555
C100_4 C112_4 1_555 1_555
C144_4 C112_4 1_555 1_555
H91_4 C144_4 1_555 1_555
O9_4 C23_4 1_555 1_555
O10_4 C23_4 1_555 1_555
O13_4 C42_4 1_555 1_555
O53_2 C49_4 1_555 1_555
O55_2 C49_4 1_555 1_555
N1_4 H4_4 1_555 1_555
C7_4 H6_4 1_555 1_555
N2_4 Zn9 1_555 1_555
C11_4 C7_4 1_555 1_555
H9_4 C11_4 1_555 1_555
C20_4 C26_4 1_555 1_555
C22_4 C29_4 1_555 1_555
C23_4 C51_4 1_555 1_555
C26_4 H16_4 1_555 1_555
C29_4 H18_4 1_555 1_555
C35_4 N1_4 1_555 1_555
C36_4 C35_4 1_555 1_555
H22_4 C36_4 1_555 1_555
C37_4 C36_4 1_555 1_555
H23_4 C37_4 1_555 1_555
C38_4 C37_4 1_555 1_555
C41_4 C22_4 1_555 1_555
H26_4 C41_4 1_555 1_555
C42_4 N1_4 1_555 1_555
C44_4 C20_4 1_555 1_555
H27_4 C44_4 1_555 1_555
C49_4 C20_4 1_555 1_555
C51_4 C29_4 1_555 1_555
C55_4 C22_4 1_555 1_555
C57_4 C51_4 1_555 1_555
H32_4 C57_4 1_555 1_555
C59_4 C55_4 1_555 1_555
H34_4 C59_4 1_555 1_555
C60_4 H35_4 1_555 1_555
C61_4 C60_4 1_555 1_555
N3_4 Zn13 1_555 1_555
C62_4 N3_4 1_555 1_555
H37_4 C62_4 1_555 1_555
C63_4 C62_4 1_555 1_555
H38_4 C63_4 1_555 1_555
C64_4 C60_4 1_555 1_555
O20_4 C72_4 1_555 1_555
C72_4 C64_4 1_555 1_555
N6_4 C72_4 1_555 1_555
H45_4 N6_4 1_555 1_555
C73_4 H46_4 1_555 1_555
C74_4 C38_4 1_555 1_555
C78_4 C73_4 1_555 1_555
H49_4 C78_4 1_555 1_555
H52_4 C82_4 1_555 1_555
C83_4 N6_4 1_555 1_555
H53_4 C84_4 1_555 1_555
C85_4 H54_4 1_555 1_555
C86_4 C85_4 1_555 1_555
N7_4 C86_4 1_555 1_555
C87_4 N7_4 1_555 1_555
H56_4 C87_4 1_555 1_555
C88_4 C87_4 1_555 1_555
H57_4 C88_4 1_555 1_555
C89_4 C85_4 1_555 1_555
O21_4 C90_4 1_555 1_555
C90_4 C89_4 1_555 1_555
N8_4 C90_4 1_555 1_555
H58_4 N8_4 1_555 1_555
H61_4 C94_4 1_555 1_555
C95_4 N8_4 1_555 1_555
H62_4 C96_4 1_555 1_555
Zn15 N7_4 1_555 1_555
C7_4 N2_4 1_555 1_555
C10_4 C11_4 1_555 1_555
C10_4 C42_4 1_555 1_555
C26_4 C41_4 1_555 1_555
C44_4 C55_4 1_555 1_555
C57_4 C59_4 1_555 1_555
C61_4 N3_4 1_555 1_555
C63_4 C64_4 1_555 1_555
C73_4 C74_4 1_555 1_555
C82_4 C83_4 1_555 1_555
C83_4 C84_4 1_555 1_555
C88_4 C89_4 1_555 1_555
C94_4 C95_4 1_555 1_555
C95_4 C96_4 1_555 1_555
O2_4 C2_4 1_555 1_555
O3_4 C2_4 1_555 1_555
O43_2 C1_4 1_555 1_555
O45_2 C1_4 1_555 1_555
C1_4 C5_4 1_555 1_555
C2_4 C28_4 1_555 1_555
C3_4 H1_4 1_555 1_555
O17_4 Zn17 1_555 1_555
H2_4 O17_4 1_555 1_555
H3_4 O17_4 1_555 1_555
C5_4 C3_4 1_555 1_555
C6_4 C5_4 1_555 1_555
H5_4 C6_4 1_555 1_555
H7_4 C8_4 1_555 1_555
C9_4 C8_4 1_555 1_555
H8_4 C9_4 1_555 1_555
C12_4 C6_4 1_555 1_555
C13_4 C21_4 1_555 1_555
C14_4 H10_4 1_555 1_555
C15_4 C3_4 1_555 1_555
H11_4 C15_4 1_555 1_555
C17_4 C12_4 1_555 1_555
C18_4 H12_4 1_555 1_555
C19_4 H13_4 1_555 1_555
C21_4 O5_4 1_555 1_555
C24_4 C12_4 1_555 1_555
H14_4 C24_4 1_555 1_555
C25_4 C24_4 1_555 1_555
H15_4 C25_4 1_555 1_555
C28_4 C14_4 1_555 1_555
C30_4 C18_4 1_555 1_555
C31_4 C13_4 1_555 1_555
H19_4 C31_4 1_555 1_555
C32_4 C13_4 1_555 1_555
H20_4 C32_4 1_555 1_555
C33_4 H21_4 1_555 1_555
C34_4 C30_4 1_555 1_555
H24_4 C39_4 1_555 1_555
H25_4 C40_4 1_555 1_555
C67_4 C66_4 1_555 1_555
C68_4 C67_4 1_555 1_555
C69_4 C68_4 1_555 1_555
H42_4 C69_4 1_555 1_555
C70_4 C69_4 1_555 1_555
N4_4 Zn21 1_555 1_555
O19_4 C71_4 1_555 1_555
N5_4 H44_4 1_555 1_555
C71_4 C68_4 1_555 1_555
H47_4 C75_4 1_555 1_555
C76_4 C75_4 1_555 1_555
H48_4 C76_4 1_555 1_555
C77_4 N5_4 1_555 1_555
C79_4 H50_4 1_555 1_555
C80_4 C79_4 1_555 1_555
C81_4 C80_4 1_555 1_555
H51_4 C81_4 1_555 1_555
C91_4 H59_4 1_555 1_555
C92_4 C80_4 1_555 1_555
C93_4 C92_4 1_555 1_555
H60_4 C93_4 1_555 1_555
O24_4 C98_4 1_555 1_555
O44_2 C97_4 1_555 1_555
O46_2 C97_4 1_555 1_555
C97_4 C101_4 1_555 1_555
C98_4 O23_4 1_555 1_555
C99_4 H63_4 1_555 1_555
C101_4 C99_4 1_555 1_555
C102_4 C101_4 1_555 1_555
H67_4 C102_4 1_555 1_555
C108_4 C102_4 1_555 1_555
C109_4 C117_4 1_555 1_555
C110_4 H72_4 1_555 1_555
C111_4 C99_4 1_555 1_555
C113_4 C108_4 1_555 1_555
C114_4 H74_4 1_555 1_555
C115_4 H75_4 1_555 1_555
C117_4 O26_4 1_555 1_555
C120_4 C108_4 1_555 1_555
H76_4 C120_4 1_555 1_555
C121_4 C120_4 1_555 1_555
H77_4 C121_4 1_555 1_555
C124_4 C98_4 1_555 1_555
C126_4 C114_4 1_555 1_555
C127_4 C109_4 1_555 1_555
H81_4 C127_4 1_555 1_555
C128_4 C109_4 1_555 1_555
H82_4 C128_4 1_555 1_555
C129_4 H83_4 1_555 1_555
C130_4 C126_4 1_555 1_555
O11_4 C21_4 1_555 1_555
C14_4 C17_4 1_555 1_555
C15_4 C17_4 1_555 1_555
C19_4 C30_4 1_555 1_555
C19_4 C31_4 1_555 1_555
C25_4 C28_4 1_555 1_555
C32_4 C34_4 1_555 1_555
C33_4 C34_4 1_555 1_555
C39_4 C40_4 1_555 1_555
C66_4 N4_4 1_555 1_555
C70_4 N4_4 1_555 1_555
N5_4 C71_4 1_555 1_555
C76_4 C77_4 1_555 1_555
C91_4 C92_4 1_555 1_555
O32_4 C117_4 1_555 1_555
C110_4 C113_4 1_555 1_555
C110_4 C124_4 1_555 1_555
C111_4 C113_4 1_555 1_555
C115_4 C126_4 1_555 1_555
C115_4 C127_4 1_555 1_555
C121_4 C124_4 1_555 1_555
C128_4 C130_4 1_555 1_555
C129_4 C130_4 1_555 1_555
O47_2 C45_4 1_555 1_555
O51_2 C45_4 1_555 1_555
C27_4 H17_4 1_555 1_555
C43_4 C53_4 1_555 1_555
C45_4 C47_4 1_555 1_555
C46_4 H28_4 1_555 1_555
C47_4 C46_4 1_555 1_555
C50_4 C27_4 1_555 1_555
C52_4 C47_4 1_555 1_555
H30_4 C52_4 1_555 1_555
C53_4 C27_4 1_555 1_555
H31_4 C53_4 1_555 1_555
C54_4 C50_4 1_555 1_555
C56_4 O14_4 1_555 1_555
C58_4 C43_4 1_555 1_555
H33_4 C58_4 1_555 1_555
C65_4 C52_4 1_555 1_555
H39_4 C65_4 1_555 1_555
O18_4 C56_4 1_555 1_555
C43_4 C56_4 1_555 1_555
C46_4 C50_4 1_555 1_555
C54_4 C58_4 1_555 1_555
C54_4 C65_4 1_555 1_555
O41_2 C4_4 1_555 1_555
O49_2 C4_4 1_555 1_555
C4_4 C16_4 1_555 1_555
C48_4 C16_4 1_555 1_555
H29_4 C48_4 1_555 1_555

#END
