
###############################################################################
#
# This file contains modified crystal structure data generated from the
# MOF subset of the Cambridge Structural Database (CSD) v543 
# hosted by the Cambridge Crystallographic Data Centre (CCDC).
#
# This work is licensed under the Creative Commons
# Attribution-NonCommercial-ShareAlike 4.0 International License.
# To view a copy of this license, visit
# http://creativecommons.org/licenses/by-nc-sa/4.0/
# or send a letter to
# Creative Commons, PO Box 1866, Mountain View, CA 94042, USA.
#
# CIF created using the CSD Python API on 29 September 2022
# The structure has been converted into the P1 space group
# The structure has a 3D framework
# The original CSD entry NILGIB01 is in the monoclinic crystal system
# The framework has been calculated to contain at least 10.0% void space
# The void calculation uses a probe of radius 1.32A, grid spacing 0.4
#
###############################################################################

data_NILGIB01
_chemical_formula_moiety         '(C288 H192 Cl48 N96 Zn24)n'
_symmetry_cell_setting           triclinic
_symmetry_space_group_name_H-M   'P 1'
_symmetry_Int_Tables_number      1
_space_group_name_Hall           'P 1'
loop_
_symmetry_equiv_pos_site_id
_symmetry_equiv_pos_as_xyz
1 x,y,z
_cell_length_a                   31.6354(15)
_cell_length_b                   14.3676(5)
_cell_length_c                   30.9363(12)
_cell_angle_alpha                90
_cell_angle_beta                 97.991(3)
_cell_angle_gamma                90
_cell_volume                     13924.8
loop_
_atom_site_label
_atom_site_type_symbol
_atom_site_fract_x
_atom_site_fract_y
_atom_site_fract_z
Zn3 Zn 0.12724(2) 0.12930(3) 0.54956(2)
Cl5 Cl 0.10842(4) 0.25749(6) 0.58132(4)
Cl6 Cl 0.15340(3) 0.11307(9) 0.48749(4)
N8 N 0.16948(10) 0.06057(19) 0.59531(10)
C27 C 0.22581(11) 0.0679(2) 0.65479(12)
H19 H 0.2433 0.1046 0.6756
C28 C 0.19469(12) 0.1088(2) 0.62525(13)
H20 H 0.1911 0.1743 0.6263
N9 N 0.38757(9) 0.06686(18) 0.84992(9)
C32 C 0.33727(12) 0.0700(2) 0.78486(12)
H23 H 0.3192 0.1057 0.7640
C33 C 0.36171(13) 0.1127(2) 0.81966(12)
H24 H 0.3600 0.1785 0.8221
Zn4 Zn 0.42502(2) 0.14488(3) 0.89678(2)
N13 N 0.07548(9) 0.0400(2) 0.54308(10)
C15 C 0.04428(13) 0.0512(3) 0.56710(15)
H12 H 0.0437 0.1065 0.5838
Cl1 Cl 0.38198(4) 0.24659(6) 0.92186(3)
Cl2 Cl 0.48433(3) 0.17985(8) 0.87048(3)
N1 N 0.44048(8) 0.04508(18) 0.94419(8)
C1 C 0.41537(10) 0.0339(2) 0.97525(11)
H1 H 0.3945 0.0801 0.9784
Zn2 Zn 0.29336(2) 0.35171(3) 0.70827(2)
Cl3 Cl 0.23067(4) 0.30595(7) 0.67605(4)
Cl4 Cl 0.32260(5) 0.31362(7) 0.77436(3)
C2 C 0.41851(10) 0.0418(2) 0.50278(11)
H2 H 0.4004 0.0474 0.5247
C3 C 0.44861(9) 0.1100(2) 0.49796(9)
C4 C 0.47556(10) 0.0969(2) 0.46696(10)
H3 H 0.4971 0.1413 0.4637
C5 C 0.47084(10) 0.0187(2) 0.44085(10)
H4 H 0.4897 0.0098 0.4198
N2 N 0.33518(11) 0.3228(2) 0.66549(10)
C6 C 0.32499(13) 0.2700(3) 0.63022(13)
H5 H 0.2972 0.2435 0.6249
C7 C 0.35316(12) 0.2523(3) 0.60114(12)
H6 H 0.3451 0.2131 0.5766
C8 C 0.39357(11) 0.2923(2) 0.60791(11)
C9 C 0.40392(14) 0.3469(3) 0.64435(13)
H7 H 0.4312 0.3756 0.6501
C10 C 0.37427(15) 0.3593(3) 0.67234(14)
H8 H 0.3820 0.3956 0.6978
N3 N 0.57548(9) 0.5400(2) 0.54308(10)
C11 C 0.57503(12) 0.4649(3) 0.51823(12)
H9 H 0.5965 0.4580 0.4998
C12 C 0.54438(11) 0.3957(2) 0.51818(12)
H10 H 0.5451 0.3423 0.5002
C13 C 0.51330(10) 0.4051(2) 0.54424(10)
C14 C 0.51262(13) 0.4862(3) 0.56881(14)
H11 H 0.4907 0.4964 0.5864
C15_2 C 0.54428(13) 0.5512(3) 0.56710(15)
H12_2 H 0.5437 0.6065 0.5838
C16 C 0.45036(10) 0.1950(2) 0.52550(10)
N4 N 0.42138(8) 0.20200(18) 0.55264(8)
C17 C 0.42425(10) 0.2794(2) 0.57665(10)
N5 N 0.45301(9) 0.34686(18) 0.57480(9)
C18 C 0.48023(10) 0.3322(2) 0.54670(10)
N6 N 0.48064(8) 0.25768(17) 0.52070(8)
N7 N 0.29320(10) 0.49493(19) 0.70913(9)
C19 C 0.26812(12) 0.5430(2) 0.67896(13)
H13 H 0.2495 0.5101 0.6575
C20 C 0.26818(12) 0.6386(2) 0.67769(13)
H14 H 0.2498 0.6709 0.6558
C21 C 0.29514(10) 0.6869(2) 0.70855(10)
C22 C 0.32079(15) 0.6374(2) 0.74022(12)
H15 H 0.3395 0.6688 0.7622
C23 C 0.31883(15) 0.5415(2) 0.73940(12)
H16 H 0.3364 0.5075 0.7613
C24 C 0.17415(14) 0.9686(2) 0.59488(14)
H17 H 0.1557 0.9335 0.5741
C25 C 0.20442(14) 0.9218(2) 0.62304(13)
H18 H 0.2069 0.8560 0.6215
C26 C 0.23106(11) 0.9721(2) 0.65354(11)
C29 C 0.38880(12) 0.9735(2) 0.84633(12)
H21 H 0.4067 0.9394 0.8679
C30 C 0.36541(12) 0.9257(2) 0.81291(12)
H22 H 0.3670 0.8597 0.8118
C31 C 0.33945(10) 0.9740(2) 0.78079(11)
C34 C 0.29472(10) 0.7903(2) 0.70951(10)
N10 N 0.26719(8) 0.83217(17) 0.67936(9)
C35 C 0.26348(10) 0.9238(2) 0.68505(10)
N11 N 0.28508(9) 0.97289(17) 0.71746(9)
C36 C 0.31370(10) 0.9244(2) 0.74410(10)
N12 N 0.32064(8) 0.83234(17) 0.74107(8)
Zn5 Zn 0.62724(2) 0.62930(3) 0.54956(2)
Cl5_2 Cl 0.60842(4) 0.75749(6) 0.58132(4)
Cl6_2 Cl 0.65340(3) 0.61307(9) 0.48749(4)
C19_2 C 0.76812(12) 0.0430(2) 0.67896(13)
H13_2 H 0.7495 0.0101 0.6575
C20_2 C 0.76818(12) 0.1386(2) 0.67769(13)
H14_2 H 0.7498 0.1709 0.6558
C21_2 C 0.79514(10) 0.1869(2) 0.70855(10)
C22_2 C 0.82079(15) 0.1374(2) 0.74022(12)
H15_2 H 0.8395 0.1688 0.7622
C23_2 C 0.81883(15) 0.0415(2) 0.73940(12)
H16_2 H 0.8364 0.0075 0.7613
N8_2 N 0.66948(10) 0.56057(19) 0.59531(10)
C24_2 C 0.67415(14) 0.4686(2) 0.59488(14)
H17_2 H 0.6557 0.4335 0.5741
C25_2 C 0.70442(14) 0.4218(2) 0.62304(13)
H18_2 H 0.7069 0.3560 0.6215
C26_2 C 0.73106(11) 0.4721(2) 0.65354(11)
C27_2 C 0.72581(11) 0.5679(2) 0.65479(12)
H19_2 H 0.7433 0.6046 0.6756
C28_2 C 0.69469(12) 0.6088(2) 0.62525(13)
H20_2 H 0.6911 0.6743 0.6263
N9_2 N 0.88757(9) 0.56686(18) 0.84992(9)
C29_2 C 0.88880(12) 0.4735(2) 0.84633(12)
H21_2 H 0.9067 0.4394 0.8679
C30_2 C 0.86541(12) 0.4257(2) 0.81291(12)
H22_2 H 0.8670 0.3597 0.8118
C31_2 C 0.83945(10) 0.4740(2) 0.78079(11)
C32_2 C 0.83727(12) 0.5700(2) 0.78486(12)
H23_2 H 0.8192 0.6057 0.7640
C33_2 C 0.86171(13) 0.6127(2) 0.81966(12)
H24_2 H 0.8600 0.6785 0.8221
C34_2 C 0.79472(10) 0.2903(2) 0.70951(10)
N10_2 N 0.76719(8) 0.33217(17) 0.67936(9)
C35_2 C 0.76348(10) 0.4238(2) 0.68505(10)
N11_2 N 0.78508(9) 0.47289(17) 0.71746(9)
C36_2 C 0.81370(10) 0.4244(2) 0.74410(10)
N12_2 N 0.82064(8) 0.33234(17) 0.74107(8)
Zn4_2 Zn 0.92502(2) 0.64488(3) 0.89678(2)
Cl1_2 Cl 0.88198(4) 0.74659(6) 0.92186(3)
Cl2_2 Cl 0.98433(3) 0.67985(8) 0.87048(3)
N1_2 N 0.94048(8) 0.54508(18) 0.94419(8)
C1_2 C 0.91537(10) 0.5339(2) 0.97525(11)
H1_2 H 0.8945 0.5801 0.9784
C3_2 C 0.94861(9) 0.3900(2) 0.99796(9)
C4_2 C 0.97556(10) 0.4031(2) 0.96696(10)
H3_2 H 0.9971 0.3587 0.9637
C5_2 C 0.97084(10) 0.4813(2) 0.94085(10)
H4_2 H 0.9897 0.4902 0.9198
Zn1 Zn 0.42502(2) 0.85512(3) 0.39678(2)
Cl1_3 Cl 0.38198(4) 0.75341(6) 0.42186(3)
Cl2_3 Cl 0.48433(3) 0.82015(8) 0.37048(3)
N1_3 N 0.44048(8) 0.95492(18) 0.44419(8)
C1_3 C 0.41537(10) 0.9661(2) 0.47525(11)
H1_3 H 0.3945 0.9199 0.4784
N14 N 0.38757(9) 0.93314(18) 0.34992(9)
Zn3_2 Zn 0.12724(2) 0.87070(3) 0.04956(2)
Cl5_3 Cl 0.10842(4) 0.74251(6) 0.08132(4)
N8_3 N 0.16948(10) 0.93943(19) 0.09531(10)
C27_3 C 0.22581(11) 0.9321(2) 0.15479(12)
H19_3 H 0.2433 0.8954 0.1756
C28_3 C 0.19469(12) 0.8912(2) 0.12525(13)
H20_3 H 0.1911 0.8257 0.1263
C32_3 C 0.33727(12) 0.9300(2) 0.28486(12)
H23_3 H 0.3192 0.8943 0.2640
C33_3 C 0.36171(13) 0.8873(2) 0.31966(12)
H24_3 H 0.3600 0.8215 0.3221
N13_2 N 0.07548(9) 0.9600(2) 0.04308(10)
C15_3 C 0.04428(13) 0.9488(3) 0.06710(15)
H12_3 H 0.0437 0.8935 0.0838
Cl6_3 Cl 0.84660(3) 0.11307(9) 0.01251(4)
Zn3_3 Zn 0.87276(2) 0.12930(3) 0.95044(2)
Cl5_4 Cl 0.89158(4) 0.25749(6) 0.91868(4)
N8_4 N 0.83052(10) 0.06057(19) 0.90469(10)
C27_4 C 0.77419(11) 0.0679(2) 0.84521(12)
H19_4 H 0.7567 0.1046 0.8244
C28_4 C 0.80531(12) 0.1088(2) 0.87475(13)
H20_4 H 0.8089 0.1743 0.8737
N9_3 N 0.61243(9) 0.06686(18) 0.65008(9)
C32_4 C 0.66273(12) 0.0700(2) 0.71514(12)
H23_4 H 0.6808 0.1057 0.7360
C33_4 C 0.63829(13) 0.1127(2) 0.68034(12)
H24_4 H 0.6400 0.1785 0.6779
Zn4_3 Zn 0.57498(2) 0.14488(3) 0.60322(2)
N13_3 N 0.92452(9) 0.0400(2) 0.95692(10)
C15_4 C 0.95572(13) 0.0512(3) 0.93290(15)
H12_4 H 0.9563 0.1065 0.9162
Cl1_4 Cl 0.61802(4) 0.24659(6) 0.57814(3)
Cl2_4 Cl 0.51567(3) 0.17985(8) 0.62952(3)
N1_4 N 0.55952(8) 0.04508(18) 0.55581(8)
C1_4 C 0.58463(10) 0.0339(2) 0.52475(11)
H1_4 H 0.6055 0.0801 0.5216
C3_3 C 0.55139(9) 0.1100(2) 0.00204(9)
C4_3 C 0.52444(10) 0.0969(2) 0.03304(10)
H3_3 H 0.5029 0.1413 0.0363
C5_3 C 0.52916(10) 0.0187(2) 0.05915(10)
H4_3 H 0.5103 0.0098 0.0802
H9_2 H 0.4035 0.4580 0.0002
Zn2_2 Zn 0.70664(2) 0.35171(3) 0.79173(2)
Cl3_2 Cl 0.76933(4) 0.30595(7) 0.82395(4)
Cl4_2 Cl 0.67740(5) 0.31362(7) 0.72564(3)
C2_2 C 0.58149(10) 0.0418(2) 0.99722(11)
H2_2 H 0.5996 0.0474 0.9753
N2_2 N 0.66482(11) 0.3228(2) 0.83451(10)
C6_2 C 0.67501(13) 0.2700(3) 0.86978(13)
H5_2 H 0.7028 0.2435 0.8751
C7_2 C 0.64684(12) 0.2523(3) 0.89886(12)
H6_2 H 0.6549 0.2131 0.9234
C8_2 C 0.60643(11) 0.2923(2) 0.89209(11)
C9_2 C 0.59608(14) 0.3469(3) 0.85565(13)
H7_2 H 0.5688 0.3756 0.8499
C10_2 C 0.62573(15) 0.3593(3) 0.82766(14)
H8_2 H 0.6180 0.3956 0.8022
N3_2 N 0.42452(9) 0.5400(2) 0.95692(10)
C11_2 C 0.42497(12) 0.4649(3) 0.98177(12)
C12_2 C 0.45562(11) 0.3957(2) 0.98182(12)
H10_2 H 0.4549 0.3423 0.9998
C13_2 C 0.48670(10) 0.4051(2) 0.95576(10)
C14_2 C 0.48738(13) 0.4862(3) 0.93119(14)
H11_2 H 0.5093 0.4964 0.9136
C15_5 C 0.45572(13) 0.5512(3) 0.93290(15)
H12_5 H 0.4563 0.6065 0.9162
C16_2 C 0.54964(10) 0.1950(2) 0.97450(10)
N4_2 N 0.57862(8) 0.20200(18) 0.94736(8)
C17_2 C 0.57575(10) 0.2794(2) 0.92335(10)
N5_2 N 0.54699(9) 0.34686(18) 0.92520(9)
C18_2 C 0.51977(10) 0.3322(2) 0.95330(10)
N6_2 N 0.51936(8) 0.25768(17) 0.97930(8)
N7_2 N 0.70680(10) 0.49493(19) 0.79087(9)
C19_3 C 0.73188(12) 0.5430(2) 0.82104(13)
H13_3 H 0.7505 0.5101 0.8425
C20_3 C 0.73182(12) 0.6386(2) 0.82231(13)
H14_3 H 0.7502 0.6709 0.8442
C21_3 C 0.70486(10) 0.6869(2) 0.79145(10)
C22_3 C 0.67921(15) 0.6374(2) 0.75978(12)
H15_3 H 0.6605 0.6688 0.7378
C23_3 C 0.68117(15) 0.5415(2) 0.76060(12)
H16_3 H 0.6636 0.5075 0.7387
C24_3 C 0.82585(14) 0.9686(2) 0.90512(14)
H17_3 H 0.8443 0.9335 0.9259
C25_3 C 0.79558(14) 0.9218(2) 0.87696(13)
H18_3 H 0.7931 0.8560 0.8785
C26_3 C 0.76894(11) 0.9721(2) 0.84646(11)
C29_3 C 0.61120(12) 0.9735(2) 0.65367(12)
H21_3 H 0.5933 0.9394 0.6321
C30_3 C 0.63459(12) 0.9257(2) 0.68709(12)
H22_3 H 0.6330 0.8597 0.6882
C31_3 C 0.66055(10) 0.9740(2) 0.71921(11)
C34_3 C 0.70528(10) 0.7903(2) 0.79049(10)
N10_3 N 0.73281(8) 0.83217(17) 0.82064(9)
C35_3 C 0.73652(10) 0.9238(2) 0.81495(10)
N11_3 N 0.71492(9) 0.97289(17) 0.78254(9)
C36_3 C 0.68630(10) 0.9244(2) 0.75590(10)
N12_3 N 0.67936(8) 0.83234(17) 0.75893(8)
Zn5_2 Zn 0.37276(2) 0.62930(3) 0.95044(2)
Cl5_5 Cl 0.39158(4) 0.75749(6) 0.91868(4)
C19_4 C 0.23188(12) 0.0430(2) 0.82104(13)
H13_4 H 0.2505 0.0101 0.8425
C20_4 C 0.23182(12) 0.1386(2) 0.82231(13)
H14_4 H 0.2502 0.1709 0.8442
C21_4 C 0.20486(10) 0.1869(2) 0.79145(10)
C22_4 C 0.17921(15) 0.1374(2) 0.75978(12)
H15_4 H 0.1605 0.1688 0.7378
C23_4 C 0.18117(15) 0.0415(2) 0.76060(12)
H16_4 H 0.1636 0.0075 0.7387
N8_5 N 0.33052(10) 0.56057(19) 0.90469(10)
C24_4 C 0.32585(14) 0.4686(2) 0.90512(14)
H17_4 H 0.3443 0.4335 0.9259
C25_4 C 0.29558(14) 0.4218(2) 0.87696(13)
H18_4 H 0.2931 0.3560 0.8785
C26_4 C 0.26894(11) 0.4721(2) 0.84646(11)
C27_5 C 0.27419(11) 0.5679(2) 0.84521(12)
H19_5 H 0.2567 0.6046 0.8244
C28_5 C 0.30531(12) 0.6088(2) 0.87475(13)
H20_5 H 0.3089 0.6743 0.8737
N9_4 N 0.11243(9) 0.56686(18) 0.65008(9)
C29_4 C 0.11120(12) 0.4735(2) 0.65367(12)
H21_4 H 0.0933 0.4394 0.6321
C30_4 C 0.13459(12) 0.4257(2) 0.68709(12)
H22_4 H 0.1330 0.3597 0.6882
C31_4 C 0.16055(10) 0.4740(2) 0.71921(11)
C32_5 C 0.16273(12) 0.5700(2) 0.71514(12)
H23_5 H 0.1808 0.6057 0.7360
C33_5 C 0.13829(13) 0.6127(2) 0.68034(12)
H24_5 H 0.1400 0.6785 0.6779
C34_4 C 0.20528(10) 0.2903(2) 0.79049(10)
N10_4 N 0.23281(8) 0.33217(17) 0.82064(9)
C35_4 C 0.23652(10) 0.4238(2) 0.81495(10)
N11_4 N 0.21492(9) 0.47289(17) 0.78254(9)
C36_4 C 0.18630(10) 0.4244(2) 0.75590(10)
N12_4 N 0.17936(8) 0.33234(17) 0.75893(8)
Zn4_4 Zn 0.07498(2) 0.64488(3) 0.60322(2)
Zn2_3 Zn 0.20664(2) 0.14829(3) 0.29173(2)
Cl1_5 Cl 0.11802(4) 0.74659(6) 0.57814(3)
Cl2_5 Cl 0.01567(3) 0.67985(8) 0.62952(3)
Cl3_3 Cl 0.26933(4) 0.19405(7) 0.32395(4)
Cl4_3 Cl 0.17740(5) 0.18638(7) 0.22564(3)
N1_5 N 0.05952(8) 0.54508(18) 0.55581(8)
C1_5 C 0.08463(10) 0.5339(2) 0.52475(11)
H1_5 H 0.1055 0.5801 0.5216
C2_3 C 0.08149(10) 0.4582(2) 0.49722(11)
H2_3 H 0.0996 0.4526 0.4753
C3_4 C 0.05139(9) 0.3900(2) 0.50204(9)
C4_4 C 0.02444(10) 0.4031(2) 0.53304(10)
H3_4 H 0.0029 0.3587 0.5363
C5_4 C 0.02916(10) 0.4813(2) 0.55915(10)
H4_4 H 0.0103 0.4902 0.5802
N2_3 N 0.16482(11) 0.1772(2) 0.33451(10)
C6_3 C 0.17501(13) 0.2300(3) 0.36978(13)
H5_3 H 0.2028 0.2565 0.3751
C7_3 C 0.14684(12) 0.2477(3) 0.39886(12)
H6_3 H 0.1549 0.2869 0.4234
C8_3 C 0.10643(11) 0.2077(2) 0.39209(11)
C9_3 C 0.09608(14) 0.1531(3) 0.35565(13)
H7_3 H 0.0688 0.1244 0.3499
C10_3 C 0.12573(15) 0.1407(3) 0.32766(14)
H8_3 H 0.1180 0.1044 0.3022
H11_3 H 0.0093 0.0036 0.4136
C16_3 C 0.04964(10) 0.3050(2) 0.47450(10)
N4_3 N 0.07862(8) 0.29800(18) 0.44736(8)
C17_3 C 0.07575(10) 0.2206(2) 0.42335(10)
N5_3 N 0.04699(9) 0.15314(18) 0.42520(9)
C18_3 C 0.01977(10) 0.1678(2) 0.45330(10)
N6_3 N 0.01936(8) 0.24232(17) 0.47930(8)
N7_3 N 0.20680(10) 0.00507(19) 0.29087(9)
Zn1_2 Zn 0.57498(2) 0.85512(3) 0.10322(2)
Cl1_6 Cl 0.61802(4) 0.75341(6) 0.07814(3)
Cl2_6 Cl 0.51567(3) 0.82015(8) 0.12952(3)
N1_6 N 0.55952(8) 0.95492(18) 0.05581(8)
C1_6 C 0.58463(10) 0.9661(2) 0.02475(11)
H1_6 H 0.6055 0.9199 0.0216
N14_2 N 0.61243(9) 0.93314(18) 0.15008(9)
Zn3_4 Zn 0.87276(2) 0.87070(3) 0.45044(2)
Cl5_6 Cl 0.89158(4) 0.74251(6) 0.41868(4)
Cl6_4 Cl 0.84660(3) 0.88693(9) 0.51251(4)
N8_6 N 0.83052(10) 0.93943(19) 0.40469(10)
C27_6 C 0.77419(11) 0.9321(2) 0.34521(12)
H19_6 H 0.7567 0.8954 0.3244
C28_6 C 0.80531(12) 0.8912(2) 0.37475(13)
H20_6 H 0.8089 0.8257 0.3737
C32_6 C 0.66273(12) 0.9300(2) 0.21514(12)
H23_6 H 0.6808 0.8943 0.2360
C33_6 C 0.63829(13) 0.8873(2) 0.18034(12)
H24_6 H 0.6400 0.8215 0.1779
N13_4 N 0.92452(9) 0.9600(2) 0.45692(10)
C15_6 C 0.95572(13) 0.9488(3) 0.43290(15)
H12_6 H 0.9563 0.8935 0.4162
C11_3 C 0.07503(12) 0.9649(3) 0.51823(12)
H9_3 H 0.0965 0.9580 0.4998
C12_3 C 0.04438(11) 0.8957(2) 0.51818(12)
H10_3 H 0.0451 0.8423 0.5002
C13_3 C 0.01330(10) 0.9051(2) 0.54424(10)
C14_3 C 0.01262(13) 0.9862(3) 0.56881(14)
Zn1_3 Zn 0.92502(2) 0.35512(3) 0.39678(2)
Zn2_4 Zn 0.79336(2) 0.85171(3) 0.70827(2)
Cl1_7 Cl 0.88198(4) 0.25341(6) 0.42186(3)
Cl2_7 Cl 0.98433(3) 0.32015(8) 0.37048(3)
Cl3_4 Cl 0.73067(4) 0.80595(7) 0.67605(4)
Cl4_4 Cl 0.82260(5) 0.81362(7) 0.77436(3)
N1_7 N 0.94048(8) 0.45492(18) 0.44419(8)
C1_7 C 0.91537(10) 0.4661(2) 0.47525(11)
H1_7 H 0.8945 0.4199 0.4784
C2_4 C 0.91851(10) 0.5418(2) 0.50278(11)
H2_4 H 0.9004 0.5474 0.5247
C3_5 C 0.94861(9) 0.6100(2) 0.49796(9)
C4_5 C 0.97556(10) 0.5969(2) 0.46696(10)
H3_5 H 0.9971 0.6413 0.4637
C5_5 C 0.97084(10) 0.5187(2) 0.44085(10)
H4_5 H 0.9897 0.5098 0.4198
N2_4 N 0.83518(11) 0.8228(2) 0.66549(10)
C6_4 C 0.82499(13) 0.7700(3) 0.63022(13)
H5_4 H 0.7972 0.7435 0.6249
C7_4 C 0.85316(12) 0.7523(3) 0.60114(12)
H6_4 H 0.8451 0.7131 0.5766
C8_4 C 0.89357(11) 0.7923(2) 0.60791(11)
C9_4 C 0.90392(14) 0.8469(3) 0.64435(13)
H7_4 H 0.9312 0.8756 0.6501
C10_4 C 0.87427(15) 0.8593(3) 0.67234(14)
H8_4 H 0.8820 0.8956 0.6978
H11_4 H 0.9907 0.9964 0.5864
C16_4 C 0.95036(10) 0.6950(2) 0.52550(10)
N4_4 N 0.92138(8) 0.70200(18) 0.55264(8)
C17_4 C 0.92425(10) 0.7794(2) 0.57665(10)
N5_4 N 0.95301(9) 0.84686(18) 0.57480(9)
C18_4 C 0.98023(10) 0.8322(2) 0.54670(10)
N6_4 N 0.98064(8) 0.75768(17) 0.52070(8)
N7_4 N 0.79320(10) 0.99493(19) 0.70913(9)
N14_3 N 0.88757(9) 0.43314(18) 0.34992(9)
Zn2_5 Zn 0.29336(2) 0.64829(3) 0.20827(2)
Cl3_5 Cl 0.23067(4) 0.69405(7) 0.17605(4)
Cl4_5 Cl 0.32260(5) 0.68638(7) 0.27436(3)
C2_5 C 0.41851(10) 0.9582(2) 0.00278(11)
H2_5 H 0.4004 0.9526 0.0247
N2_5 N 0.33518(11) 0.6772(2) 0.16549(10)
C6_5 C 0.32499(13) 0.7300(3) 0.13022(13)
H5_5 H 0.2972 0.7565 0.1249
C7_5 C 0.35316(12) 0.7477(3) 0.10114(12)
H6_5 H 0.3451 0.7869 0.0766
C8_5 C 0.39357(11) 0.7077(2) 0.10791(11)
C9_5 C 0.40392(14) 0.6531(3) 0.14435(13)
H7_5 H 0.4312 0.6244 0.1501
C10_5 C 0.37427(15) 0.6407(3) 0.17234(14)
H8_5 H 0.3820 0.6044 0.1978
N3_3 N 0.57548(9) 0.4600(2) 0.04308(10)
C11_4 C 0.57503(12) 0.5351(3) 0.01823(12)
C12_4 C 0.54438(11) 0.6043(2) 0.01818(12)
H10_4 H 0.5451 0.6577 0.0002
C13_4 C 0.51330(10) 0.5949(2) 0.04424(10)
C14_4 C 0.51262(13) 0.5138(3) 0.06881(14)
H11_5 H 0.4907 0.5036 0.0864
C15_7 C 0.54428(13) 0.4488(3) 0.06710(15)
H12_7 H 0.5437 0.3935 0.0838
C16_5 C 0.45036(10) 0.8050(2) 0.02550(10)
N4_5 N 0.42138(8) 0.79800(18) 0.05264(8)
C17_5 C 0.42425(10) 0.7206(2) 0.07665(10)
N5_5 N 0.45301(9) 0.65314(18) 0.07480(9)
C18_5 C 0.48023(10) 0.6678(2) 0.04670(10)
N6_5 N 0.48064(8) 0.74232(17) 0.02070(8)
N7_5 N 0.29320(10) 0.50507(19) 0.20913(9)
C19_5 C 0.26812(12) 0.4570(2) 0.17896(13)
H13_5 H 0.2495 0.4899 0.1575
C20_5 C 0.26818(12) 0.3614(2) 0.17769(13)
H14_5 H 0.2498 0.3291 0.1558
C21_5 C 0.29514(10) 0.3131(2) 0.20855(10)
C22_5 C 0.32079(15) 0.3626(2) 0.24022(12)
H15_5 H 0.3395 0.3312 0.2622
C23_5 C 0.31883(15) 0.4585(2) 0.23940(12)
H16_5 H 0.3364 0.4925 0.2613
C24_5 C 0.17415(14) 0.0314(2) 0.09488(14)
H17_5 H 0.1557 0.0665 0.0741
C25_5 C 0.20442(14) 0.0782(2) 0.12304(13)
H18_5 H 0.2069 0.1440 0.1215
C26_5 C 0.23106(11) 0.0279(2) 0.15354(11)
C29_5 C 0.38880(12) 0.0265(2) 0.34633(12)
H21_5 H 0.4067 0.0606 0.3679
C30_5 C 0.36541(12) 0.0743(2) 0.31291(12)
H22_5 H 0.3670 0.1403 0.3118
C31_5 C 0.33945(10) 0.0260(2) 0.28079(11)
C34_5 C 0.29472(10) 0.2097(2) 0.20951(10)
N10_5 N 0.26719(8) 0.16783(17) 0.17936(9)
C35_5 C 0.26348(10) 0.0762(2) 0.18505(10)
N11_5 N 0.28508(9) 0.02711(17) 0.21746(9)
C36_5 C 0.31370(10) 0.0756(2) 0.24410(10)
N12_5 N 0.32064(8) 0.16766(17) 0.24107(8)
Zn5_3 Zn 0.62724(2) 0.37070(3) 0.04956(2)
Cl5_7 Cl 0.60842(4) 0.24251(6) 0.08132(4)
C19_6 C 0.76812(12) 0.9570(2) 0.17896(13)
H13_6 H 0.7495 0.9899 0.1575
C20_6 C 0.76818(12) 0.8614(2) 0.17769(13)
H14_6 H 0.7498 0.8291 0.1558
C21_6 C 0.79514(10) 0.8131(2) 0.20855(10)
C22_6 C 0.82079(15) 0.8626(2) 0.24022(12)
H15_6 H 0.8395 0.8312 0.2622
C23_6 C 0.81883(15) 0.9585(2) 0.23940(12)
H16_6 H 0.8364 0.9925 0.2613
N8_7 N 0.66948(10) 0.43943(19) 0.09531(10)
C24_6 C 0.67415(14) 0.5314(2) 0.09488(14)
H17_6 H 0.6557 0.5665 0.0741
C25_6 C 0.70442(14) 0.5782(2) 0.12304(13)
H18_6 H 0.7069 0.6440 0.1215
C26_6 C 0.73106(11) 0.5279(2) 0.15354(11)
C27_7 C 0.72581(11) 0.4321(2) 0.15479(12)
H19_7 H 0.7433 0.3954 0.1756
C28_7 C 0.69469(12) 0.3912(2) 0.12525(13)
H20_7 H 0.6911 0.3257 0.1263
C29_6 C 0.88880(12) 0.5265(2) 0.34633(12)
H21_6 H 0.9067 0.5606 0.3679
C30_6 C 0.86541(12) 0.5743(2) 0.31291(12)
H22_6 H 0.8670 0.6403 0.3118
C31_6 C 0.83945(10) 0.5260(2) 0.28079(11)
C32_7 C 0.83727(12) 0.4300(2) 0.28486(12)
H23_7 H 0.8192 0.3943 0.2640
C33_7 C 0.86171(13) 0.3873(2) 0.31966(12)
H24_7 H 0.8600 0.3215 0.3221
C34_6 C 0.79472(10) 0.7097(2) 0.20951(10)
N10_6 N 0.76719(8) 0.66783(17) 0.17936(9)
C35_6 C 0.76348(10) 0.5762(2) 0.18505(10)
N11_6 N 0.78508(9) 0.52711(17) 0.21746(9)
C36_6 C 0.81370(10) 0.5756(2) 0.24410(10)
N12_6 N 0.82064(8) 0.66766(17) 0.24107(8)
Cl6_5 Cl 0.34660(3) 0.61307(9) 0.01251(4)
Zn1_4 Zn 0.07498(2) 0.35512(3) 0.10322(2)
Cl1_8 Cl 0.11802(4) 0.25341(6) 0.07814(3)
Cl2_8 Cl 0.01567(3) 0.32015(8) 0.12952(3)
N1_8 N 0.05952(8) 0.45492(18) 0.05581(8)
C1_8 C 0.08463(10) 0.4661(2) 0.02475(11)
H1_8 H 0.1055 0.4199 0.0216
C3_6 C 0.05139(9) 0.6100(2) 0.00204(9)
C4_6 C 0.02444(10) 0.5969(2) 0.03304(10)
H3_6 H 0.0029 0.6413 0.0363
C5_6 C 0.02916(10) 0.5187(2) 0.05915(10)
H4_6 H 0.0103 0.5098 0.0802
N14_4 N 0.11243(9) 0.43314(18) 0.15008(9)
Zn2_6 Zn 0.70664(2) 0.64829(3) 0.29173(2)
Cl3_6 Cl 0.76933(4) 0.69405(7) 0.32395(4)
Cl4_6 Cl 0.67740(5) 0.68638(7) 0.22564(3)
C2_6 C 0.58149(10) 0.9582(2) 0.49722(11)
H2_6 H 0.5996 0.9526 0.4753
C3_7 C 0.55139(9) 0.8900(2) 0.50204(9)
C4_7 C 0.52444(10) 0.9031(2) 0.53304(10)
H3_7 H 0.5029 0.8587 0.5363
C5_7 C 0.52916(10) 0.9813(2) 0.55915(10)
H4_7 H 0.5103 0.9902 0.5802
N2_6 N 0.66482(11) 0.6772(2) 0.33451(10)
C6_6 C 0.67501(13) 0.7300(3) 0.36978(13)
H5_6 H 0.7028 0.7565 0.3751
C7_6 C 0.64684(12) 0.7477(3) 0.39886(12)
H6_6 H 0.6549 0.7869 0.4234
C8_6 C 0.60643(11) 0.7077(2) 0.39209(11)
C9_6 C 0.59608(14) 0.6531(3) 0.35565(13)
H7_6 H 0.5688 0.6244 0.3499
C10_6 C 0.62573(15) 0.6407(3) 0.32766(14)
H8_6 H 0.6180 0.6044 0.3022
N3_4 N 0.42452(9) 0.4600(2) 0.45692(10)
C11_5 C 0.42497(12) 0.5351(3) 0.48177(12)
H9_4 H 0.4035 0.5420 0.5002
C12_5 C 0.45562(11) 0.6043(2) 0.48182(12)
H10_5 H 0.4549 0.6577 0.4998
C13_5 C 0.48670(10) 0.5949(2) 0.45576(10)
C14_5 C 0.48738(13) 0.5138(3) 0.43119(14)
H11_6 H 0.5093 0.5036 0.4136
C15_8 C 0.45572(13) 0.4488(3) 0.43290(15)
H12_8 H 0.4563 0.3935 0.4162
C16_6 C 0.54964(10) 0.8050(2) 0.47450(10)
N4_6 N 0.57862(8) 0.79800(18) 0.44736(8)
C17_6 C 0.57575(10) 0.7206(2) 0.42335(10)
N5_6 N 0.54699(9) 0.65314(18) 0.42520(9)
C18_6 C 0.51977(10) 0.6678(2) 0.45330(10)
N6_6 N 0.51936(8) 0.74232(17) 0.47930(8)
N7_6 N 0.70680(10) 0.50507(19) 0.29087(9)
C19_7 C 0.73188(12) 0.4570(2) 0.32104(13)
H13_7 H 0.7505 0.4899 0.3425
C20_7 C 0.73182(12) 0.3614(2) 0.32231(13)
H14_7 H 0.7502 0.3291 0.3442
C21_7 C 0.70486(10) 0.3131(2) 0.29145(10)
C22_7 C 0.67921(15) 0.3626(2) 0.25978(12)
H15_7 H 0.6605 0.3312 0.2378
C23_7 C 0.68117(15) 0.4585(2) 0.26060(12)
H16_7 H 0.6636 0.4925 0.2387
C24_7 C 0.82585(14) 0.0314(2) 0.40512(14)
H17_7 H 0.8443 0.0665 0.4259
C25_7 C 0.79558(14) 0.0782(2) 0.37696(13)
H18_7 H 0.7931 0.1440 0.3785
C26_7 C 0.76894(11) 0.0279(2) 0.34646(11)
C29_7 C 0.61120(12) 0.0265(2) 0.15367(12)
H21_7 H 0.5933 0.0606 0.1321
C30_7 C 0.63459(12) 0.0743(2) 0.18709(12)
H22_7 H 0.6330 0.1403 0.1882
C31_7 C 0.66055(10) 0.0260(2) 0.21921(11)
C34_7 C 0.70528(10) 0.2097(2) 0.29049(10)
N10_7 N 0.73281(8) 0.16783(17) 0.32064(9)
C35_7 C 0.73652(10) 0.0762(2) 0.31495(10)
N11_7 N 0.71492(9) 0.02711(17) 0.28254(9)
C36_7 C 0.68630(10) 0.0756(2) 0.25590(10)
N12_7 N 0.67936(8) 0.16766(17) 0.25893(8)
Zn5_4 Zn 0.37276(2) 0.37070(3) 0.45044(2)
Cl5_8 Cl 0.39158(4) 0.24251(6) 0.41868(4)
Cl6_6 Cl 0.34660(3) 0.38693(9) 0.51251(4)
C19_8 C 0.23188(12) 0.9570(2) 0.32104(13)
H13_8 H 0.2505 0.9899 0.3425
C20_8 C 0.23182(12) 0.8614(2) 0.32231(13)
H14_8 H 0.2502 0.8291 0.3442
C21_8 C 0.20486(10) 0.8131(2) 0.29145(10)
C22_8 C 0.17921(15) 0.8626(2) 0.25978(12)
H15_8 H 0.1605 0.8312 0.2378
C23_8 C 0.18117(15) 0.9585(2) 0.26060(12)
H16_8 H 0.1636 0.9925 0.2387
N8_8 N 0.33052(10) 0.43943(19) 0.40469(10)
C24_8 C 0.32585(14) 0.5314(2) 0.40512(14)
H17_8 H 0.3443 0.5665 0.4259
C25_8 C 0.29558(14) 0.5782(2) 0.37696(13)
H18_8 H 0.2931 0.6440 0.3785
C26_8 C 0.26894(11) 0.5279(2) 0.34646(11)
C27_8 C 0.27419(11) 0.4321(2) 0.34521(12)
H19_8 H 0.2567 0.3954 0.3244
C28_8 C 0.30531(12) 0.3912(2) 0.37475(13)
H20_8 H 0.3089 0.3257 0.3737
C29_8 C 0.11120(12) 0.5265(2) 0.15367(12)
H21_8 H 0.0933 0.5606 0.1321
C30_8 C 0.13459(12) 0.5743(2) 0.18709(12)
H22_8 H 0.1330 0.6403 0.1882
C31_8 C 0.16055(10) 0.5260(2) 0.21921(11)
C32_8 C 0.16273(12) 0.4300(2) 0.21514(12)
H23_8 H 0.1808 0.3943 0.2360
C33_8 C 0.13829(13) 0.3873(2) 0.18034(12)
H24_8 H 0.1400 0.3215 0.1779
C34_8 C 0.20528(10) 0.7097(2) 0.29049(10)
N10_8 N 0.23281(8) 0.66783(17) 0.32064(9)
C35_8 C 0.23652(10) 0.5762(2) 0.31495(10)
N11_8 N 0.21492(9) 0.52711(17) 0.28254(9)
C36_8 C 0.18630(10) 0.5756(2) 0.25590(10)
N12_8 N 0.17936(8) 0.66766(17) 0.25893(8)
Zn2_7 Zn 0.20664(2) 0.85171(3) 0.79173(2)
Cl3_7 Cl 0.26933(4) 0.80595(7) 0.82395(4)
Cl4_7 Cl 0.17740(5) 0.81362(7) 0.72564(3)
C2_7 C 0.08149(10) 0.5418(2) 0.99722(11)
H2_7 H 0.0996 0.5474 0.9753
N2_7 N 0.16482(11) 0.8228(2) 0.83451(10)
C6_7 C 0.17501(13) 0.7700(3) 0.86978(13)
H5_7 H 0.2028 0.7435 0.8751
C7_7 C 0.14684(12) 0.7523(3) 0.89886(12)
H6_7 H 0.1549 0.7131 0.9234
C8_7 C 0.10643(11) 0.7923(2) 0.89209(11)
C9_7 C 0.09608(14) 0.8469(3) 0.85565(13)
H7_7 H 0.0688 0.8756 0.8499
C10_7 C 0.12573(15) 0.8593(3) 0.82766(14)
H8_7 H 0.1180 0.8956 0.8022
H11_7 H 0.0093 0.9964 0.9136
C16_7 C 0.04964(10) 0.6950(2) 0.97450(10)
N4_7 N 0.07862(8) 0.70200(18) 0.94736(8)
C17_7 C 0.07575(10) 0.7794(2) 0.92335(10)
N5_7 N 0.04699(9) 0.84686(18) 0.92520(9)
C18_7 C 0.01977(10) 0.8322(2) 0.95330(10)
N6_7 N 0.01936(8) 0.75768(17) 0.97930(8)
N7_7 N 0.20680(10) 0.99493(19) 0.79087(9)
H9_5 H 0.9035 0.9580 0.0002
C11_6 C 0.92497(12) 0.9649(3) 0.98177(12)
C12_6 C 0.95562(11) 0.8957(2) 0.98182(12)
H10_6 H 0.9549 0.8423 0.9998
C13_6 C 0.98670(10) 0.9051(2) 0.95576(10)
C14_6 C 0.98738(13) 0.9862(3) 0.93119(14)
C3_8 C 0.44861(9) 0.8900(2) 0.99796(9)
C4_8 C 0.47556(10) 0.9031(2) 0.96696(10)
H3_8 H 0.4971 0.8587 0.9637
C5_8 C 0.47084(10) 0.9813(2) 0.94085(10)
H4_8 H 0.4897 0.9902 0.9198
H9_6 H 0.5965 0.5420 0.9998
Cl6_7 Cl 0.15340(3) 0.88693(9) 0.98749(4)
C11_7 C 0.92497(12) 0.0351(3) 0.48177(12)
H9_7 H 0.9035 0.0420 0.5002
C12_7 C 0.95562(11) 0.1043(2) 0.48182(12)
H10_7 H 0.9549 0.1577 0.4998
C13_7 C 0.98670(10) 0.0949(2) 0.45576(10)
C14_7 C 0.98738(13) 0.0138(3) 0.43119(14)
C11_8 C 0.07503(12) 0.0351(3) 0.01823(12)
C12_8 C 0.04438(11) 0.1043(2) 0.01818(12)
H10_8 H 0.0451 0.1577 0.0002
C13_8 C 0.01330(10) 0.0949(2) 0.04424(10)
C14_8 C 0.01262(13) 0.0138(3) 0.06881(14)
H9_8 H 0.0965 0.0420 0.9998
Zn2_8 Zn 0.79336(2) 0.14829(3) 0.20827(2)
Cl3_8 Cl 0.73067(4) 0.19405(7) 0.17605(4)
Cl4_8 Cl 0.82260(5) 0.18638(7) 0.27436(3)
C2_8 C 0.91851(10) 0.4582(2) 0.00278(11)
H2_8 H 0.9004 0.4526 0.0247
N2_8 N 0.83518(11) 0.1772(2) 0.16549(10)
C6_8 C 0.82499(13) 0.2300(3) 0.13022(13)
H5_8 H 0.7972 0.2565 0.1249
C7_8 C 0.85316(12) 0.2477(3) 0.10114(12)
H6_8 H 0.8451 0.2869 0.0766
C8_8 C 0.89357(11) 0.2077(2) 0.10791(11)
C9_8 C 0.90392(14) 0.1531(3) 0.14435(13)
H7_8 H 0.9312 0.1244 0.1501
C10_8 C 0.87427(15) 0.1407(3) 0.17234(14)
H8_8 H 0.8820 0.1044 0.1978
H11_8 H 0.9907 0.0036 0.0864
C16_8 C 0.95036(10) 0.3050(2) 0.02550(10)
N4_8 N 0.92138(8) 0.29800(18) 0.05264(8)
C17_8 C 0.92425(10) 0.2206(2) 0.07665(10)
N5_8 N 0.95301(9) 0.15314(18) 0.07480(9)
C18_8 C 0.98023(10) 0.1678(2) 0.04670(10)
N6_8 N 0.98064(8) 0.24232(17) 0.02070(8)
N7_8 N 0.79320(10) 0.00507(19) 0.20913(9)
Cl6_8 Cl 0.65340(3) 0.38693(9) 0.98749(4)
loop_
_geom_bond_atom_site_label_1
_geom_bond_atom_site_label_2
_geom_bond_site_symmetry_1
_geom_bond_site_symmetry_2
Zn3 Cl5 1_555 1_555
Cl6 Zn3 1_555 1_555
N8 Zn3 1_555 1_555
H19 C27 1_555 1_555
C28 N8 1_555 1_555
H20 C28 1_555 1_555
H23 C32 1_555 1_555
C33 N9 1_555 1_555
H24 C33 1_555 1_555
Zn4 N9 1_555 1_555
N13 Zn3 1_555 1_555
C27 C28 1_555 1_555
C32 C33 1_555 1_555
C15 N13 1_555 1_555
H12 C15 1_555 1_555
Zn4 Cl1 1_555 1_555
Cl2 Zn4 1_555 1_555
N1 Zn4 1_555 1_555
C1 N1 1_555 1_555
H1 C1 1_555 1_555
Zn2 Cl3 1_555 1_555
Cl4 Zn2 1_555 1_555
H2 C2 1_555 1_555
C3 C2 1_555 1_555
C4 C3 1_555 1_555
H3 C4 1_555 1_555
H4 C5 1_555 1_555
N2 Zn2 1_555 1_555
C6 N2 1_555 1_555
H5 C6 1_555 1_555
C7 C6 1_555 1_555
H6 C7 1_555 1_555
C8 C7 1_555 1_555
C9 C8 1_555 1_555
H7 C9 1_555 1_555
C10 N2 1_555 1_555
H8 C10 1_555 1_555
N3 C11 1_555 1_555
C11 H9 1_555 1_555
C12 C11 1_555 1_555
H10 C12 1_555 1_555
C13 C12 1_555 1_555
C14 C13 1_555 1_555
H11 C14 1_555 1_555
C15_2 N3 1_555 1_555
H12_2 C15_2 1_555 1_555
C16 C3 1_555 1_555
N4 C16 1_555 1_555
C17 C8 1_555 1_555
N5 C17 1_555 1_555
C18 C13 1_555 1_555
N6 C16 1_555 1_555
N7 Zn2 1_555 1_555
C19 N7 1_555 1_555
H13 C19 1_555 1_555
C20 C19 1_555 1_555
H14 C20 1_555 1_555
C21 C20 1_555 1_555
C22 C21 1_555 1_555
H15 C22 1_555 1_555
C23 N7 1_555 1_555
H16 C23 1_555 1_555
H17 C24 1_555 1_555
C25 C24 1_555 1_555
H18 C25 1_555 1_555
C26 C25 1_555 1_555
C29 H21 1_555 1_555
C30 C29 1_555 1_555
H22 C30 1_555 1_555
C31 C30 1_555 1_555
C34 C21 1_555 1_555
N10 C34 1_555 1_555
C35 C26 1_555 1_555
N11 C35 1_555 1_555
C36 C31 1_555 1_555
N12 C34 1_555 1_555
Zn5 N3 1_555 1_555
C4 C5 1_555 1_555
C9 C10 1_555 1_555
C14 C15_2 1_555 1_555
N4 C17 1_555 1_555
N5 C18 1_555 1_555
C18 N6 1_555 1_555
C22 C23 1_555 1_555
N10 C35 1_555 1_555
N11 C36 1_555 1_555
C36 N12 1_555 1_555
Zn5 Cl5_2 1_555 1_555
Cl6_2 Zn5 1_555 1_555
H13_2 C19_2 1_555 1_555
C20_2 C19_2 1_555 1_555
H14_2 C20_2 1_555 1_555
C21_2 C20_2 1_555 1_555
C22_2 C21_2 1_555 1_555
H15_2 C22_2 1_555 1_555
H16_2 C23_2 1_555 1_555
N8_2 Zn5 1_555 1_555
C24_2 N8_2 1_555 1_555
H17_2 C24_2 1_555 1_555
C25_2 C24_2 1_555 1_555
H18_2 C25_2 1_555 1_555
C26_2 C25_2 1_555 1_555
C27_2 C26_2 1_555 1_555
H19_2 C27_2 1_555 1_555
C28_2 N8_2 1_555 1_555
H20_2 C28_2 1_555 1_555
N9_2 C29_2 1_555 1_555
C29_2 H21_2 1_555 1_555
C30_2 C29_2 1_555 1_555
H22_2 C30_2 1_555 1_555
C31_2 C30_2 1_555 1_555
C32_2 C31_2 1_555 1_555
H23_2 C32_2 1_555 1_555
C33_2 N9_2 1_555 1_555
H24_2 C33_2 1_555 1_555
C34_2 C21_2 1_555 1_555
N10_2 C34_2 1_555 1_555
C35_2 C26_2 1_555 1_555
N11_2 C35_2 1_555 1_555
C36_2 C31_2 1_555 1_555
N12_2 C34_2 1_555 1_555
Zn4_2 N9_2 1_555 1_555
C22_2 C23_2 1_555 1_555
C27_2 C28_2 1_555 1_555
C32_2 C33_2 1_555 1_555
N10_2 C35_2 1_555 1_555
N11_2 C36_2 1_555 1_555
C36_2 N12_2 1_555 1_555
Zn4_2 Cl1_2 1_555 1_555
Cl2_2 Zn4_2 1_555 1_555
N1_2 Zn4_2 1_555 1_555
C1_2 N1_2 1_555 1_555
H1_2 C1_2 1_555 1_555
C4_2 C3_2 1_555 1_555
H3_2 C4_2 1_555 1_555
C5_2 N1_2 1_555 1_555
H4_2 C5_2 1_555 1_555
C4_2 C5_2 1_555 1_555
Zn1 Cl1_3 1_555 1_555
Cl2_3 Zn1 1_555 1_555
N1_3 Zn1 1_555 1_555
C1_3 N1_3 1_555 1_555
H1_3 C1_3 1_555 1_555
N14 Zn1 1_555 1_555
Zn3_2 Cl5_3 1_555 1_555
N8_3 Zn3_2 1_555 1_555
H19_3 C27_3 1_555 1_555
C28_3 N8_3 1_555 1_555
H20_3 C28_3 1_555 1_555
H23_3 C32_3 1_555 1_555
C33_3 N14 1_555 1_555
H24_3 C33_3 1_555 1_555
N13_2 Zn3_2 1_555 1_555
C27_3 C28_3 1_555 1_555
C32_3 C33_3 1_555 1_555
C15_3 N13_2 1_555 1_555
H12_3 C15_3 1_555 1_555
Zn3_3 Cl5_4 1_555 1_555
N8_4 Zn3_3 1_555 1_555
H19_4 C27_4 1_555 1_555
C28_4 N8_4 1_555 1_555
H20_4 C28_4 1_555 1_555
H23_4 C32_4 1_555 1_555
C33_4 N9_3 1_555 1_555
H24_4 C33_4 1_555 1_555
Zn4_3 N9_3 1_555 1_555
N13_3 Zn3_3 1_555 1_555
C27_4 C28_4 1_555 1_555
C32_4 C33_4 1_555 1_555
C15_4 N13_3 1_555 1_555
H12_4 C15_4 1_555 1_555
Zn4_3 Cl1_4 1_555 1_555
Cl2_4 Zn4_3 1_555 1_555
N1_4 Zn4_3 1_555 1_555
C1_4 N1_4 1_555 1_555
H1_4 C1_4 1_555 1_555
C4_3 C3_3 1_555 1_555
H3_3 C4_3 1_555 1_555
H4_3 C5_3 1_555 1_555
C4_3 C5_3 1_555 1_555
Zn2_2 Cl3_2 1_555 1_555
Cl4_2 Zn2_2 1_555 1_555
H2_2 C2_2 1_555 1_555
N2_2 Zn2_2 1_555 1_555
C6_2 N2_2 1_555 1_555
H5_2 C6_2 1_555 1_555
C7_2 C6_2 1_555 1_555
H6_2 C7_2 1_555 1_555
C8_2 C7_2 1_555 1_555
C9_2 C8_2 1_555 1_555
H7_2 C9_2 1_555 1_555
C10_2 N2_2 1_555 1_555
H8_2 C10_2 1_555 1_555
N3_2 C11_2 1_555 1_555
C12_2 C11_2 1_555 1_555
H10_2 C12_2 1_555 1_555
C13_2 C12_2 1_555 1_555
C14_2 C13_2 1_555 1_555
H11_2 C14_2 1_555 1_555
C15_5 N3_2 1_555 1_555
H12_5 C15_5 1_555 1_555
N4_2 C16_2 1_555 1_555
C17_2 C8_2 1_555 1_555
N5_2 C17_2 1_555 1_555
C18_2 C13_2 1_555 1_555
N6_2 C16_2 1_555 1_555
N7_2 Zn2_2 1_555 1_555
C19_3 N7_2 1_555 1_555
H13_3 C19_3 1_555 1_555
C20_3 C19_3 1_555 1_555
H14_3 C20_3 1_555 1_555
C21_3 C20_3 1_555 1_555
C22_3 C21_3 1_555 1_555
H15_3 C22_3 1_555 1_555
C23_3 N7_2 1_555 1_555
H16_3 C23_3 1_555 1_555
H17_3 C24_3 1_555 1_555
C25_3 C24_3 1_555 1_555
H18_3 C25_3 1_555 1_555
C26_3 C25_3 1_555 1_555
C29_3 H21_3 1_555 1_555
C30_3 C29_3 1_555 1_555
H22_3 C30_3 1_555 1_555
C31_3 C30_3 1_555 1_555
C34_3 C21_3 1_555 1_555
N10_3 C34_3 1_555 1_555
C35_3 C26_3 1_555 1_555
N11_3 C35_3 1_555 1_555
C36_3 C31_3 1_555 1_555
N12_3 C34_3 1_555 1_555
Zn5_2 N3_2 1_555 1_555
C9_2 C10_2 1_555 1_555
C14_2 C15_5 1_555 1_555
N4_2 C17_2 1_555 1_555
N5_2 C18_2 1_555 1_555
C18_2 N6_2 1_555 1_555
C22_3 C23_3 1_555 1_555
N10_3 C35_3 1_555 1_555
N11_3 C36_3 1_555 1_555
C36_3 N12_3 1_555 1_555
Zn5_2 Cl5_5 1_555 1_555
H13_4 C19_4 1_555 1_555
C20_4 C19_4 1_555 1_555
H14_4 C20_4 1_555 1_555
C21_4 C20_4 1_555 1_555
C22_4 C21_4 1_555 1_555
H15_4 C22_4 1_555 1_555
H16_4 C23_4 1_555 1_555
N8_5 Zn5_2 1_555 1_555
C24_4 N8_5 1_555 1_555
H17_4 C24_4 1_555 1_555
C25_4 C24_4 1_555 1_555
H18_4 C25_4 1_555 1_555
C26_4 C25_4 1_555 1_555
C27_5 C26_4 1_555 1_555
H19_5 C27_5 1_555 1_555
C28_5 N8_5 1_555 1_555
H20_5 C28_5 1_555 1_555
N9_4 C29_4 1_555 1_555
C29_4 H21_4 1_555 1_555
C30_4 C29_4 1_555 1_555
H22_4 C30_4 1_555 1_555
C31_4 C30_4 1_555 1_555
C32_5 C31_4 1_555 1_555
H23_5 C32_5 1_555 1_555
C33_5 N9_4 1_555 1_555
H24_5 C33_5 1_555 1_555
C34_4 C21_4 1_555 1_555
N10_4 C34_4 1_555 1_555
C35_4 C26_4 1_555 1_555
N11_4 C35_4 1_555 1_555
C36_4 C31_4 1_555 1_555
N12_4 C34_4 1_555 1_555
Zn4_4 N9_4 1_555 1_555
C22_4 C23_4 1_555 1_555
C27_5 C28_5 1_555 1_555
C32_5 C33_5 1_555 1_555
N10_4 C35_4 1_555 1_555
N11_4 C36_4 1_555 1_555
C36_4 N12_4 1_555 1_555
Zn4_4 Cl1_5 1_555 1_555
Zn2_3 Cl3_3 1_555 1_555
Cl2_5 Zn4_4 1_555 1_555
Cl4_3 Zn2_3 1_555 1_555
N1_5 Zn4_4 1_555 1_555
C1_5 N1_5 1_555 1_555
H1_5 C1_5 1_555 1_555
C2_3 C1_5 1_555 1_555
H2_3 C2_3 1_555 1_555
C3_4 C2_3 1_555 1_555
C4_4 C3_4 1_555 1_555
H3_4 C4_4 1_555 1_555
C5_4 N1_5 1_555 1_555
H4_4 C5_4 1_555 1_555
N2_3 Zn2_3 1_555 1_555
C6_3 N2_3 1_555 1_555
H5_3 C6_3 1_555 1_555
C7_3 C6_3 1_555 1_555
H6_3 C7_3 1_555 1_555
C8_3 C7_3 1_555 1_555
C9_3 C8_3 1_555 1_555
H7_3 C9_3 1_555 1_555
C10_3 N2_3 1_555 1_555
H8_3 C10_3 1_555 1_555
C16_3 C3_4 1_555 1_555
N4_3 C16_3 1_555 1_555
C17_3 C8_3 1_555 1_555
N5_3 C17_3 1_555 1_555
N6_3 C16_3 1_555 1_555
N7_3 Zn2_3 1_555 1_555
C4_4 C5_4 1_555 1_555
C9_3 C10_3 1_555 1_555
N4_3 C17_3 1_555 1_555
N5_3 C18_3 1_555 1_555
C18_3 N6_3 1_555 1_555
Zn1_2 Cl1_6 1_555 1_555
Cl2_6 Zn1_2 1_555 1_555
N1_6 Zn1_2 1_555 1_555
C1_6 N1_6 1_555 1_555
H1_6 C1_6 1_555 1_555
N14_2 Zn1_2 1_555 1_555
Zn3_4 Cl5_6 1_555 1_555
Cl6_4 Zn3_4 1_555 1_555
N8_6 Zn3_4 1_555 1_555
H19_6 C27_6 1_555 1_555
C28_6 N8_6 1_555 1_555
H20_6 C28_6 1_555 1_555
H23_6 C32_6 1_555 1_555
C33_6 N14_2 1_555 1_555
H24_6 C33_6 1_555 1_555
N13_4 Zn3_4 1_555 1_555
C27_6 C28_6 1_555 1_555
C32_6 C33_6 1_555 1_555
C15_6 N13_4 1_555 1_555
H12_6 C15_6 1_555 1_555
C11_3 H9_3 1_555 1_555
C12_3 C11_3 1_555 1_555
H10_3 C12_3 1_555 1_555
C13_3 C12_3 1_555 1_555
C14_3 C13_3 1_555 1_555
Zn1_3 Cl1_7 1_555 1_555
Zn2_4 Cl3_4 1_555 1_555
Cl2_7 Zn1_3 1_555 1_555
Cl4_4 Zn2_4 1_555 1_555
N1_7 Zn1_3 1_555 1_555
C1_7 N1_7 1_555 1_555
H1_7 C1_7 1_555 1_555
C2_4 C1_7 1_555 1_555
H2_4 C2_4 1_555 1_555
C3_5 C2_4 1_555 1_555
C4_5 C3_5 1_555 1_555
H3_5 C4_5 1_555 1_555
C5_5 N1_7 1_555 1_555
H4_5 C5_5 1_555 1_555
N2_4 Zn2_4 1_555 1_555
C6_4 N2_4 1_555 1_555
H5_4 C6_4 1_555 1_555
C7_4 C6_4 1_555 1_555
H6_4 C7_4 1_555 1_555
C8_4 C7_4 1_555 1_555
C9_4 C8_4 1_555 1_555
H7_4 C9_4 1_555 1_555
C10_4 N2_4 1_555 1_555
H8_4 C10_4 1_555 1_555
C16_4 C3_5 1_555 1_555
N4_4 C16_4 1_555 1_555
C17_4 C8_4 1_555 1_555
N5_4 C17_4 1_555 1_555
N6_4 C16_4 1_555 1_555
N7_4 Zn2_4 1_555 1_555
N14_3 Zn1_3 1_555 1_555
C4_5 C5_5 1_555 1_555
C9_4 C10_4 1_555 1_555
N4_4 C17_4 1_555 1_555
N5_4 C18_4 1_555 1_555
C18_4 N6_4 1_555 1_555
Zn2_5 Cl3_5 1_555 1_555
Cl4_5 Zn2_5 1_555 1_555
H2_5 C2_5 1_555 1_555
N2_5 Zn2_5 1_555 1_555
C6_5 N2_5 1_555 1_555
H5_5 C6_5 1_555 1_555
C7_5 C6_5 1_555 1_555
H6_5 C7_5 1_555 1_555
C8_5 C7_5 1_555 1_555
C9_5 C8_5 1_555 1_555
H7_5 C9_5 1_555 1_555
C10_5 N2_5 1_555 1_555
H8_5 C10_5 1_555 1_555
N3_3 C11_4 1_555 1_555
C12_4 C11_4 1_555 1_555
H10_4 C12_4 1_555 1_555
C13_4 C12_4 1_555 1_555
C14_4 C13_4 1_555 1_555
H11_5 C14_4 1_555 1_555
C15_7 N3_3 1_555 1_555
H12_7 C15_7 1_555 1_555
N4_5 C16_5 1_555 1_555
C17_5 C8_5 1_555 1_555
N5_5 C17_5 1_555 1_555
C18_5 C13_4 1_555 1_555
N6_5 C16_5 1_555 1_555
N7_5 Zn2_5 1_555 1_555
C19_5 N7_5 1_555 1_555
H13_5 C19_5 1_555 1_555
C20_5 C19_5 1_555 1_555
H14_5 C20_5 1_555 1_555
C21_5 C20_5 1_555 1_555
C22_5 C21_5 1_555 1_555
H15_5 C22_5 1_555 1_555
C23_5 N7_5 1_555 1_555
H16_5 C23_5 1_555 1_555
H17_5 C24_5 1_555 1_555
C25_5 C24_5 1_555 1_555
H18_5 C25_5 1_555 1_555
C26_5 C25_5 1_555 1_555
C29_5 H21_5 1_555 1_555
C30_5 C29_5 1_555 1_555
H22_5 C30_5 1_555 1_555
C31_5 C30_5 1_555 1_555
C34_5 C21_5 1_555 1_555
N10_5 C34_5 1_555 1_555
C35_5 C26_5 1_555 1_555
N11_5 C35_5 1_555 1_555
C36_5 C31_5 1_555 1_555
N12_5 C34_5 1_555 1_555
Zn5_3 N3_3 1_555 1_555
C9_5 C10_5 1_555 1_555
C14_4 C15_7 1_555 1_555
N4_5 C17_5 1_555 1_555
N5_5 C18_5 1_555 1_555
C18_5 N6_5 1_555 1_555
C22_5 C23_5 1_555 1_555
N10_5 C35_5 1_555 1_555
N11_5 C36_5 1_555 1_555
C36_5 N12_5 1_555 1_555
Zn5_3 Cl5_7 1_555 1_555
H13_6 C19_6 1_555 1_555
C20_6 C19_6 1_555 1_555
H14_6 C20_6 1_555 1_555
C21_6 C20_6 1_555 1_555
C22_6 C21_6 1_555 1_555
H15_6 C22_6 1_555 1_555
H16_6 C23_6 1_555 1_555
N8_7 Zn5_3 1_555 1_555
C24_6 N8_7 1_555 1_555
H17_6 C24_6 1_555 1_555
C25_6 C24_6 1_555 1_555
H18_6 C25_6 1_555 1_555
C26_6 C25_6 1_555 1_555
C27_7 C26_6 1_555 1_555
H19_7 C27_7 1_555 1_555
C28_7 N8_7 1_555 1_555
H20_7 C28_7 1_555 1_555
N14_3 C29_6 1_555 1_555
C29_6 H21_6 1_555 1_555
C30_6 C29_6 1_555 1_555
H22_6 C30_6 1_555 1_555
C31_6 C30_6 1_555 1_555
C32_7 C31_6 1_555 1_555
H23_7 C32_7 1_555 1_555
C33_7 N14_3 1_555 1_555
H24_7 C33_7 1_555 1_555
C34_6 C21_6 1_555 1_555
N10_6 C34_6 1_555 1_555
C35_6 C26_6 1_555 1_555
N11_6 C35_6 1_555 1_555
C36_6 C31_6 1_555 1_555
N12_6 C34_6 1_555 1_555
C22_6 C23_6 1_555 1_555
C27_7 C28_7 1_555 1_555
C32_7 C33_7 1_555 1_555
N10_6 C35_6 1_555 1_555
N11_6 C36_6 1_555 1_555
C36_6 N12_6 1_555 1_555
Zn1_4 Cl1_8 1_555 1_555
Cl2_8 Zn1_4 1_555 1_555
N1_8 Zn1_4 1_555 1_555
C1_8 N1_8 1_555 1_555
H1_8 C1_8 1_555 1_555
C4_6 C3_6 1_555 1_555
H3_6 C4_6 1_555 1_555
C5_6 N1_8 1_555 1_555
H4_6 C5_6 1_555 1_555
N14_4 Zn1_4 1_555 1_555
C4_6 C5_6 1_555 1_555
Zn2_6 Cl3_6 1_555 1_555
Cl4_6 Zn2_6 1_555 1_555
H2_6 C2_6 1_555 1_555
C3_7 C2_6 1_555 1_555
C4_7 C3_7 1_555 1_555
H3_7 C4_7 1_555 1_555
H4_7 C5_7 1_555 1_555
N2_6 Zn2_6 1_555 1_555
C6_6 N2_6 1_555 1_555
H5_6 C6_6 1_555 1_555
C7_6 C6_6 1_555 1_555
H6_6 C7_6 1_555 1_555
C8_6 C7_6 1_555 1_555
C9_6 C8_6 1_555 1_555
H7_6 C9_6 1_555 1_555
C10_6 N2_6 1_555 1_555
H8_6 C10_6 1_555 1_555
N3_4 C11_5 1_555 1_555
C11_5 H9_4 1_555 1_555
C12_5 C11_5 1_555 1_555
H10_5 C12_5 1_555 1_555
C13_5 C12_5 1_555 1_555
C14_5 C13_5 1_555 1_555
H11_6 C14_5 1_555 1_555
C15_8 N3_4 1_555 1_555
H12_8 C15_8 1_555 1_555
C16_6 C3_7 1_555 1_555
N4_6 C16_6 1_555 1_555
C17_6 C8_6 1_555 1_555
N5_6 C17_6 1_555 1_555
C18_6 C13_5 1_555 1_555
N6_6 C16_6 1_555 1_555
N7_6 Zn2_6 1_555 1_555
C19_7 N7_6 1_555 1_555
H13_7 C19_7 1_555 1_555
C20_7 C19_7 1_555 1_555
H14_7 C20_7 1_555 1_555
C21_7 C20_7 1_555 1_555
C22_7 C21_7 1_555 1_555
H15_7 C22_7 1_555 1_555
C23_7 N7_6 1_555 1_555
H16_7 C23_7 1_555 1_555
H17_7 C24_7 1_555 1_555
C25_7 C24_7 1_555 1_555
H18_7 C25_7 1_555 1_555
C26_7 C25_7 1_555 1_555
C29_7 H21_7 1_555 1_555
C30_7 C29_7 1_555 1_555
H22_7 C30_7 1_555 1_555
C31_7 C30_7 1_555 1_555
C34_7 C21_7 1_555 1_555
N10_7 C34_7 1_555 1_555
C35_7 C26_7 1_555 1_555
N11_7 C35_7 1_555 1_555
C36_7 C31_7 1_555 1_555
N12_7 C34_7 1_555 1_555
Zn5_4 N3_4 1_555 1_555
C4_7 C5_7 1_555 1_555
C9_6 C10_6 1_555 1_555
C14_5 C15_8 1_555 1_555
N4_6 C17_6 1_555 1_555
N5_6 C18_6 1_555 1_555
C18_6 N6_6 1_555 1_555
C22_7 C23_7 1_555 1_555
N10_7 C35_7 1_555 1_555
N11_7 C36_7 1_555 1_555
C36_7 N12_7 1_555 1_555
Zn5_4 Cl5_8 1_555 1_555
Cl6_6 Zn5_4 1_555 1_555
H13_8 C19_8 1_555 1_555
C20_8 C19_8 1_555 1_555
H14_8 C20_8 1_555 1_555
C21_8 C20_8 1_555 1_555
C22_8 C21_8 1_555 1_555
H15_8 C22_8 1_555 1_555
H16_8 C23_8 1_555 1_555
N8_8 Zn5_4 1_555 1_555
C24_8 N8_8 1_555 1_555
H17_8 C24_8 1_555 1_555
C25_8 C24_8 1_555 1_555
H18_8 C25_8 1_555 1_555
C26_8 C25_8 1_555 1_555
C27_8 C26_8 1_555 1_555
H19_8 C27_8 1_555 1_555
C28_8 N8_8 1_555 1_555
H20_8 C28_8 1_555 1_555
N14_4 C29_8 1_555 1_555
C29_8 H21_8 1_555 1_555
C30_8 C29_8 1_555 1_555
H22_8 C30_8 1_555 1_555
C31_8 C30_8 1_555 1_555
C32_8 C31_8 1_555 1_555
H23_8 C32_8 1_555 1_555
C33_8 N14_4 1_555 1_555
H24_8 C33_8 1_555 1_555
C34_8 C21_8 1_555 1_555
N10_8 C34_8 1_555 1_555
C35_8 C26_8 1_555 1_555
N11_8 C35_8 1_555 1_555
C36_8 C31_8 1_555 1_555
N12_8 C34_8 1_555 1_555
C22_8 C23_8 1_555 1_555
C27_8 C28_8 1_555 1_555
C32_8 C33_8 1_555 1_555
N10_8 C35_8 1_555 1_555
N11_8 C36_8 1_555 1_555
C36_8 N12_8 1_555 1_555
Zn2_7 Cl3_7 1_555 1_555
Cl4_7 Zn2_7 1_555 1_555
H2_7 C2_7 1_555 1_555
N2_7 Zn2_7 1_555 1_555
C6_7 N2_7 1_555 1_555
H5_7 C6_7 1_555 1_555
C7_7 C6_7 1_555 1_555
H6_7 C7_7 1_555 1_555
C8_7 C7_7 1_555 1_555
C9_7 C8_7 1_555 1_555
H7_7 C9_7 1_555 1_555
C10_7 N2_7 1_555 1_555
H8_7 C10_7 1_555 1_555
N4_7 C16_7 1_555 1_555
C17_7 C8_7 1_555 1_555
N5_7 C17_7 1_555 1_555
N6_7 C16_7 1_555 1_555
N7_7 Zn2_7 1_555 1_555
C9_7 C10_7 1_555 1_555
N4_7 C17_7 1_555 1_555
N5_7 C18_7 1_555 1_555
C18_7 N6_7 1_555 1_555
C12_6 C11_6 1_555 1_555
H10_6 C12_6 1_555 1_555
C13_6 C12_6 1_555 1_555
C14_6 C13_6 1_555 1_555
C4_8 C3_8 1_555 1_555
H3_8 C4_8 1_555 1_555
H4_8 C5_8 1_555 1_555
C4_8 C5_8 1_555 1_555
C11_7 H9_7 1_555 1_555
C12_7 C11_7 1_555 1_555
H10_7 C12_7 1_555 1_555
C13_7 C12_7 1_555 1_555
C14_7 C13_7 1_555 1_555
C12_8 C11_8 1_555 1_555
H10_8 C12_8 1_555 1_555
C13_8 C12_8 1_555 1_555
C14_8 C13_8 1_555 1_555
Zn2_8 Cl3_8 1_555 1_555
Cl4_8 Zn2_8 1_555 1_555
H2_8 C2_8 1_555 1_555
N2_8 Zn2_8 1_555 1_555
C6_8 N2_8 1_555 1_555
H5_8 C6_8 1_555 1_555
C7_8 C6_8 1_555 1_555
H6_8 C7_8 1_555 1_555
C8_8 C7_8 1_555 1_555
C9_8 C8_8 1_555 1_555
H7_8 C9_8 1_555 1_555
C10_8 N2_8 1_555 1_555
H8_8 C10_8 1_555 1_555
N4_8 C16_8 1_555 1_555
C17_8 C8_8 1_555 1_555
N5_8 C17_8 1_555 1_555
N6_8 C16_8 1_555 1_555
N7_8 Zn2_8 1_555 1_555
C9_8 C10_8 1_555 1_555
N4_8 C17_8 1_555 1_555
N5_8 C18_8 1_555 1_555
C18_8 N6_8 1_555 1_555

#END
