
###############################################################################
#
# This file contains modified crystal structure data generated from the
# MOF subset of the Cambridge Structural Database (CSD) v543 
# hosted by the Cambridge Crystallographic Data Centre (CCDC).
#
# This work is licensed under the Creative Commons
# Attribution-NonCommercial-ShareAlike 4.0 International License.
# To view a copy of this license, visit
# http://creativecommons.org/licenses/by-nc-sa/4.0/
# or send a letter to
# Creative Commons, PO Box 1866, Mountain View, CA 94042, USA.
#
# CIF created using the CSD Python API on 29 September 2022
# The structure has been converted into the P1 space group
# The structure has a 3D framework
# The original CSD entry NILGOG is in the orthorhombic crystal system
# The framework has been calculated to contain at least 10.0% void space
# The void calculation uses a probe of radius 1.32A, grid spacing 0.4
# H atom positions have been added when not included in the experimental data
#
###############################################################################

data_NILGOG
_chemical_formula_moiety         '(C168 H176 Co9 N48 O160 V6 W48)n'
_symmetry_cell_setting           triclinic
_symmetry_space_group_name_H-M   'P 1'
_symmetry_Int_Tables_number      1
_space_group_name_Hall           'P 1'
loop_
_symmetry_equiv_pos_site_id
_symmetry_equiv_pos_as_xyz
1 x,y,z
_cell_length_a                   22.024(4)
_cell_length_b                   15.065(3)
_cell_length_c                   24.120(5)
_cell_angle_alpha                90
_cell_angle_beta                 90
_cell_angle_gamma                90
_cell_volume                     8002.81
loop_
_atom_site_label
_atom_site_type_symbol
_atom_site_fract_x
_atom_site_fract_y
_atom_site_fract_z
N7 N 0.0033(9) 0.3644(13) 0.5211(9)
C17 C 0.0117(12) 0.2446(17) 0.5720(10)
H16 H 0.0218 0.2059 0.6006
C23 C 0.0228(13) 0.3304(19) 0.5704(13)
H22 H 0.0412 0.3628 0.5985
Co3 Co -0.0000 0.5000 0.5000
Co1 Co 0.5000 -0.0000 0.5000
N1 N 0.4067(9) 0.0035(14) 0.4863(9)
H1 H 0.1813 0.0395 0.4108
H4 H 0.0866 0.0076 0.4499
C13 C 0.3119(12) 0.053(2) 0.4755(15)
H13 H 0.2769 0.0871 0.4794
C14 C 0.3641(14) 0.063(2) 0.5027(14)
H14 H 0.3706 0.1061 0.5298
N6 N 0.6793(9) 0.0193(15) 0.5605(10)
N8 N 0.9825(9) 0.2228(13) 0.5237(9)
C15 C 0.8262(12) 0.0169(19) 0.5751(12)
C16 C 0.8959(11) 0.1182(15) 0.5311(11)
C18 C 0.9795(13) 0.2976(19) 0.4930(12)
H17 H 0.9632 0.3015 0.4575
C19 C 0.8837(12) 0.036(2) 0.5515(13)
C20 C 0.6211(11) 0.0459(18) 0.5523(11)
H19 H 0.6028 0.0925 0.5712
C21 C 0.9567(14) 0.1388(17) 0.5052(13)
H20 H 0.9521 0.1404 0.4652
H21 H 0.9848 0.0913 0.5140
C22 C 0.7826(11) 0.079(2) 0.5773(11)
C24 C 0.8509(13) 0.183(2) 0.5335(12)
H23 H 0.8585 0.2397 0.5195
C25 C 0.7950(12) 0.1637(18) 0.5567(12)
H24 H 0.7654 0.2075 0.5586
C26 C 0.7206(12) 0.057(2) 0.6018(12)
H25 H 0.7028 0.1112 0.6167
H26 H 0.7255 0.0157 0.6321
Co3_2 Co 1.0000 0.5000 0.5000
Co4 Co 0.5000 0.0000 0.0000
O41 O 0.4861(7) 0.0295(11) 0.5943(7)
N10 N 0.5033(9) 0.1356(13) 0.4789(9)
Co4_2 Co 0.5000 -0.0000 1.0000
Co1_2 Co 0.5000 1.0000 0.5000
V1 V 0.5000 0.7340(5) 0.2500
W1 W 0.51995(5) 0.89880(6) 0.35111(4)
W2 W 0.61188(5) 0.89840(7) 0.24136(5)
W3 W 0.62609(5) 0.74145(7) 0.33905(5)
W4 W 0.49140(5) 0.56770(7) 0.14839(4)
W5 W 0.59691(5) 0.72435(7) 0.13469(4)
W6 W 0.61176(5) 0.56872(7) 0.23194(5)
O1 O 0.6434(7) 0.6358(11) 0.1711(6)
O2 O 0.6646(8) 0.9767(11) 0.2222(7)
O3 O 0.4683(7) 0.8075(10) 0.3754(6)
O4 O 0.6404(7) 0.6615(11) 0.2802(7)
O5 O 0.4326(7) 0.6598(10) 0.1351(6)
O6 O 0.6602(7) 0.8318(10) 0.2921(7)
O7 O 0.5874(7) 0.8337(10) 0.3804(7)
O8 O 0.5756(7) 0.9596(10) 0.3043(7)
O9 O 0.5471(7) 0.7957(10) 0.2835(6)
O10 O 0.5139(7) 0.9705(11) 0.4057(7)
O11 O 0.4570(7) 0.9324(11) 0.3032(7)
O12 O 0.5458(8) 0.6351(11) 0.1035(7)
O13 O 0.4415(8) 0.5368(11) 0.2110(7)
O14 O 0.5588(7) 0.5087(10) 0.1803(7)
O15 O 0.6257(7) 0.8079(10) 0.1885(6)
O16 O 0.4700(9) 0.4918(13) 0.1007(7)
O17 O 0.6432(8) 0.7461(11) 0.0794(7)
O18 O 0.5371(7) 0.6719(10) 0.2065(6)
O19 O 0.6853(9) 0.7201(13) 0.3820(8)
O20 O 0.6674(8) 0.4915(12) 0.2383(7)
N2 N 0.3207(9) 0.9807(15) 0.4395(10)
N4 N 0.0175(9) 0.7772(13) 0.4763(9)
C1 C 0.1738(12) 0.9831(19) 0.4249(12)
C2 C 0.1041(11) 0.8818(15) 0.4689(11)
C4 C 0.0205(13) 0.7024(19) 0.5070(12)
H3 H 0.0368 0.6985 0.5425
C5 C 0.1163(12) 0.964(2) 0.4485(13)
C6 C 0.3789(11) 0.9541(18) 0.4477(11)
H5 H 0.3972 0.9075 0.4288
C7 C 0.0433(14) 0.8612(17) 0.4948(13)
H6 H 0.0479 0.8596 0.5348
H7 H 0.0152 0.9087 0.4860
C8 C 0.2174(11) 0.921(2) 0.4227(11)
C10 C 0.1491(13) 0.817(2) 0.4665(12)
H9 H 0.1415 0.7603 0.4805
C11 C 0.2050(12) 0.8363(18) 0.4433(12)
H10 H 0.2346 0.7925 0.4414
C12 C 0.2794(12) 0.943(2) 0.3982(12)
H11 H 0.2972 0.8888 0.3833
H12 H 0.2745 0.9843 0.3679
W7 W 0.48005(5) 0.89880(6) 0.14889(4)
W8 W 0.38812(5) 0.89840(7) 0.25864(5)
W9 W 0.37391(5) 0.74145(7) 0.16095(5)
W10 W 0.50860(5) 0.56770(7) 0.35161(4)
W11 W 0.40309(5) 0.72435(7) 0.36531(4)
W12 W 0.38824(5) 0.56872(7) 0.26806(5)
O21 O 0.3566(7) 0.6358(11) 0.3289(6)
O22 O 0.3354(8) 0.9767(11) 0.2778(7)
O23 O 0.5317(7) 0.8075(10) 0.1246(6)
O24 O 0.3596(7) 0.6615(11) 0.2198(7)
O25 O 0.5674(7) 0.6598(10) 0.3649(6)
O26 O 0.3398(7) 0.8318(10) 0.2079(7)
O27 O 0.4126(7) 0.8337(10) 0.1196(7)
O28 O 0.4244(7) 0.9596(10) 0.1957(7)
O29 O 0.4529(7) 0.7957(10) 0.2165(6)
O30 O 0.4861(7) 0.9705(11) 0.0943(7)
O31 O 0.5430(7) 0.9324(11) 0.1968(7)
O32 O 0.4542(8) 0.6351(11) 0.3965(7)
O33 O 0.5585(8) 0.5368(11) 0.2890(7)
O34 O 0.4412(7) 0.5087(10) 0.3197(7)
O35 O 0.3743(7) 0.8079(10) 0.3115(6)
O36 O 0.5300(9) 0.4918(13) 0.3993(7)
O37 O 0.3568(8) 0.7461(11) 0.4206(7)
O38 O 0.4629(7) 0.6719(10) 0.2935(6)
O39 O 0.3147(9) 0.7201(13) 0.1180(8)
O40 O 0.3326(8) 0.4915(12) 0.2617(7)
N5 N 0.5933(9) 0.9965(14) 0.5137(9)
H15 H 0.8187 0.9605 0.5892
H18 H 0.9134 0.9924 0.5501
C27 C 0.6881(12) 0.947(2) 0.5245(15)
H27 H 0.7231 0.9129 0.5206
C28 C 0.6359(14) 0.937(2) 0.4973(14)
H28 H 0.6294 0.8939 0.4702
Co4_3 Co 0.5000 1.0000 0.0000
N9 N 0.4967(9) 0.8644(13) 0.5211(9)
Co4_4 Co 0.5000 1.0000 1.0000
N3 N 0.9967(9) 0.6356(13) 0.4789(9)
C3 C 0.9883(12) 0.7554(17) 0.4280(10)
H2 H 0.9782 0.7941 0.3994
C9 C 0.9772(13) 0.6696(19) 0.4296(13)
H8 H 0.9588 0.6372 0.4015
O16_2 O 0.0300(9) 0.0082(13) 0.6007(7)
O40_2 O 0.1674(8) 0.0085(12) 0.7617(7)
Co1_3 Co 0.0000 0.5000 0.0000
C4_2 C 0.4795(13) 0.7976(19) 0.0070(12)
H3_2 H 0.4632 0.8015 0.0425
H6_2 H 0.4521 0.6404 0.0348
C14_2 C 0.1359(14) 0.437(2) 0.0027(14)
H14_2 H 0.1294 0.3939 0.0298
O41_2 O 0.0139(7) 0.4705(11) 0.0943(7)
N9_2 N 0.0033(9) 0.6356(13) 0.0211(9)
Co1_4 Co 0.0000 0.5000 1.0000
V1_2 V 0.0000 0.7660(5) 0.7500
W4_2 W 0.00860(5) 0.93230(7) 0.64839(4)
O3_2 O 0.0317(7) 0.6925(10) 0.8754(6)
O5_2 O 0.0674(7) 0.8402(10) 0.6351(6)
O11_2 O 0.0430(7) 0.5676(11) 0.8032(7)
O13_2 O 0.0585(8) 0.9632(11) 0.7110(7)
N1_2 N 0.0933(9) 0.4965(14) 0.9863(9)
N2_2 N 0.1793(9) 0.5193(15) 0.9395(10)
N3_2 N 0.5033(9) 0.8644(13) 0.9789(9)
N4_2 N 0.4825(9) 0.7228(13) 0.9763(9)
C1_2 C 0.3262(12) 0.5169(19) 0.9249(12)
H1_2 H 0.3187 0.4605 0.9108
C2_2 C 0.3959(11) 0.6182(15) 0.9689(11)
C3_2 C 0.5117(12) 0.7446(17) 0.9280(10)
H2_2 H 0.5218 0.7059 0.8994
C5_2 C 0.3837(12) 0.536(2) 0.9485(13)
H4_2 H 0.4134 0.4924 0.9499
C6_2 C 0.1211(11) 0.5459(18) 0.9477(11)
H5_2 H 0.1028 0.5925 0.9288
C7_2 C 0.4567(14) 0.6388(17) 0.9948(13)
H7_2 H 0.4848 0.5913 0.9860
C8_2 C 0.2826(11) 0.579(2) 0.9227(11)
C9_2 C 0.5228(13) 0.8304(19) 0.9296(13)
H8_2 H 0.5412 0.8628 0.9015
C10_2 C 0.3509(13) 0.683(2) 0.9665(12)
H9_2 H 0.3585 0.7397 0.9805
C11_2 C 0.2950(12) 0.6637(18) 0.9433(12)
H10_2 H 0.2654 0.7075 0.9414
C12_2 C 0.2206(12) 0.557(2) 0.8982(12)
H11_2 H 0.2028 0.6112 0.8833
H12_2 H 0.2255 0.5157 0.8679
C13_2 C 0.1881(12) 0.447(2) 0.9755(15)
H13_2 H 0.2231 0.4129 0.9794
W7_2 W 0.01995(5) 0.60120(6) 0.64889(4)
W8_2 W 0.11188(5) 0.60160(7) 0.75864(5)
W9_2 W 0.12609(5) 0.75855(7) 0.66095(5)
W11_2 W 0.09691(5) 0.77565(7) 0.86531(4)
W12_2 W 0.11176(5) 0.93128(7) 0.76806(5)
O21_2 O 0.1434(7) 0.8642(11) 0.8289(6)
O22_2 O 0.1646(8) 0.5233(11) 0.7778(7)
O24_2 O 0.1404(7) 0.8385(11) 0.7198(7)
O26_2 O 0.1602(7) 0.6682(10) 0.7079(7)
O27_2 O 0.0874(7) 0.6663(10) 0.6196(7)
O28_2 O 0.0756(7) 0.5404(10) 0.6957(7)
O29_2 O 0.0471(7) 0.7043(10) 0.7165(6)
O30_2 O 0.0139(7) 0.5295(11) 0.5943(7)
O32_2 O 0.0458(8) 0.8649(11) 0.8965(7)
O34_2 O 0.0588(7) 0.9913(10) 0.8197(7)
O35_2 O 0.1257(7) 0.6921(10) 0.8115(6)
O37_2 O 0.1432(8) 0.7539(11) 0.9206(7)
O38_2 O 0.0371(7) 0.8281(10) 0.7935(6)
O39_2 O 0.1853(9) 0.7799(13) 0.6180(8)
O20_2 O 0.8326(8) 0.0085(12) 0.7383(7)
O36_2 O 0.9700(9) 0.0082(13) 0.8993(7)
Co1_5 Co 1.0000 0.5000 0.0000
N5_2 N 0.9067(9) 0.5035(14) 0.0137(9)
N6_2 N 0.8207(9) 0.4807(15) 0.0605(10)
N7_2 N 0.4967(9) 0.1356(13) 0.0211(9)
N8_2 N 0.5175(9) 0.2772(13) 0.0237(9)
C15_2 C 0.6738(12) 0.4831(19) 0.0751(12)
H15_2 H 0.6813 0.5395 0.0892
C16_2 C 0.6041(11) 0.3818(15) 0.0311(11)
C17_2 C 0.4883(12) 0.2554(17) 0.0720(10)
H16_2 H 0.4782 0.2941 0.1006
C19_2 C 0.6163(12) 0.464(2) 0.0515(13)
H18_2 H 0.5866 0.5076 0.0501
C20_2 C 0.8789(11) 0.4541(18) 0.0523(11)
H19_2 H 0.8972 0.4075 0.0712
C21_2 C 0.5433(14) 0.3612(17) 0.0052(13)
H21_2 H 0.5152 0.4087 0.0140
C22_2 C 0.7174(11) 0.421(2) 0.0773(11)
C23_2 C 0.4772(13) 0.1696(19) 0.0704(13)
H22_2 H 0.4588 0.1372 0.0985
C24_2 C 0.6491(13) 0.317(2) 0.0335(12)
H23_2 H 0.6415 0.2603 0.0195
C25_2 C 0.7050(12) 0.3363(18) 0.0567(12)
H24_2 H 0.7346 0.2925 0.0586
C26_2 C 0.7794(12) 0.443(2) 0.1018(12)
H25_2 H 0.7972 0.3888 0.1167
H26_2 H 0.7745 0.4843 0.1321
C27_2 C 0.8119(12) 0.553(2) 0.0245(15)
H27_2 H 0.7769 0.5871 0.0206
Co1_6 Co 1.0000 0.5000 1.0000
V1_3 V 1.0000 0.7660(5) 0.7500
W1_2 W 0.98005(5) 0.60120(6) 0.85111(4)
W2_2 W 0.88812(5) 0.60160(7) 0.74136(5)
W3_2 W 0.87391(5) 0.75855(7) 0.83905(5)
W5_2 W 0.90309(5) 0.77565(7) 0.63469(4)
W6_2 W 0.88824(5) 0.93128(7) 0.73194(5)
O1_2 O 0.8566(7) 0.8642(11) 0.6711(6)
O2_2 O 0.8354(8) 0.5233(11) 0.7222(7)
O4_2 O 0.8596(7) 0.8385(11) 0.7802(7)
O6_2 O 0.8398(7) 0.6682(10) 0.7921(7)
O7_2 O 0.9126(7) 0.6663(10) 0.8804(7)
O8_2 O 0.9244(7) 0.5404(10) 0.8043(7)
O9_2 O 0.9529(7) 0.7043(10) 0.7835(6)
O10_2 O 0.9861(7) 0.5295(11) 0.9057(7)
O12_2 O 0.9542(8) 0.8649(11) 0.6035(7)
O14_2 O 0.9412(7) 0.9913(10) 0.6803(7)
O15_2 O 0.8743(7) 0.6921(10) 0.6885(6)
O17_2 O 0.8568(8) 0.7539(11) 0.5794(7)
O18_2 O 0.9629(7) 0.8281(10) 0.7065(6)
O19_2 O 0.8147(9) 0.7799(13) 0.8820(8)
W10_2 W 0.99140(5) 0.93230(7) 0.85161(4)
O23_2 O 0.9683(7) 0.6925(10) 0.6246(6)
O25_2 O 0.9326(7) 0.8402(10) 0.8649(6)
O31_2 O 0.9570(7) 0.5676(11) 0.6968(7)
O33_2 O 0.9415(8) 0.9632(11) 0.7890(7)
C18_2 C 0.5205(13) 0.2024(19) 0.9930(12)
H17_2 H 0.5368 0.1985 0.9575
H20_2 H 0.5479 0.3596 0.9652
C28_2 C 0.8641(14) 0.563(2) 0.9973(14)
H28_2 H 0.8706 0.6061 0.9702
N10_2 N 0.9967(9) 0.3644(13) 0.9789(9)
N5_3 N 0.0933(9) 0.5035(14) 0.4863(9)
N6_3 N 0.1793(9) 0.4807(15) 0.4395(10)
N8_3 N 0.4825(9) 0.2772(13) 0.4763(9)
C15_3 C 0.3262(12) 0.4831(19) 0.4249(12)
H15_3 H 0.3187 0.5395 0.4108
C16_3 C 0.3959(11) 0.3818(15) 0.4689(11)
C17_3 C 0.5117(12) 0.2554(17) 0.4280(10)
H16_3 H 0.5218 0.2941 0.3994
C18_3 C 0.4795(13) 0.2024(19) 0.5070(12)
H17_3 H 0.4632 0.1985 0.5425
C19_3 C 0.3837(12) 0.464(2) 0.4485(13)
H18_3 H 0.4134 0.5076 0.4499
C20_3 C 0.1211(11) 0.4541(18) 0.4477(11)
H19_3 H 0.1028 0.4075 0.4288
C21_3 C 0.4567(14) 0.3612(17) 0.4948(13)
H20_3 H 0.4521 0.3596 0.5348
H21_3 H 0.4848 0.4087 0.4860
C22_3 C 0.2826(11) 0.421(2) 0.4227(11)
C23_3 C 0.5228(13) 0.1696(19) 0.4296(13)
H22_3 H 0.5412 0.1372 0.4015
C24_3 C 0.3509(13) 0.317(2) 0.4665(12)
H23_3 H 0.3585 0.2603 0.4805
C25_3 C 0.2950(12) 0.3363(18) 0.4433(12)
H24_3 H 0.2654 0.2925 0.4414
C26_3 C 0.2206(12) 0.443(2) 0.3982(12)
H25_3 H 0.2028 0.3888 0.3833
H26_3 H 0.2255 0.4843 0.3679
C27_3 C 0.1881(12) 0.553(2) 0.4755(15)
H27_3 H 0.2231 0.5871 0.4794
C28_3 C 0.1359(14) 0.563(2) 0.5027(14)
H28_3 H 0.1294 0.6061 0.5298
N1_3 N 0.9067(9) 0.4965(14) 0.5137(9)
N2_3 N 0.8207(9) 0.5193(15) 0.5605(10)
N4_3 N 0.5175(9) 0.7228(13) 0.5237(9)
C1_3 C 0.6738(12) 0.5169(19) 0.5751(12)
H1_3 H 0.6813 0.4605 0.5892
C2_3 C 0.6041(11) 0.6182(15) 0.5311(11)
C3_3 C 0.4883(12) 0.7446(17) 0.5720(10)
H2_3 H 0.4782 0.7059 0.6006
C4_3 C 0.5205(13) 0.7976(19) 0.4930(12)
H3_3 H 0.5368 0.8015 0.4575
C5_3 C 0.6163(12) 0.536(2) 0.5515(13)
H4_3 H 0.5866 0.4924 0.5501
C6_3 C 0.8789(11) 0.5459(18) 0.5523(11)
H5_3 H 0.8972 0.5925 0.5712
C7_3 C 0.5433(14) 0.6388(17) 0.5052(13)
H6_3 H 0.5479 0.6404 0.4652
H7_3 H 0.5152 0.5913 0.5140
C8_3 C 0.7174(11) 0.579(2) 0.5773(11)
C9_3 C 0.4772(13) 0.8304(19) 0.5704(13)
H8_3 H 0.4588 0.8628 0.5985
C10_3 C 0.6491(13) 0.683(2) 0.5335(12)
H9_3 H 0.6415 0.7397 0.5195
C11_3 C 0.7050(12) 0.6637(18) 0.5567(12)
H10_3 H 0.7346 0.7075 0.5586
C12_3 C 0.7794(12) 0.557(2) 0.6018(12)
H11_3 H 0.7972 0.6112 0.6167
H12_3 H 0.7745 0.5157 0.6321
C13_3 C 0.8119(12) 0.447(2) 0.5245(15)
H13_3 H 0.7769 0.4129 0.5206
C14_3 C 0.8641(14) 0.437(2) 0.4973(14)
H14_3 H 0.8706 0.3939 0.4702
O41_3 O 0.9861(7) 0.4705(11) 0.4057(7)
C3_4 C 0.0117(12) 0.7554(17) 0.0720(10)
H2_4 H 0.0218 0.7941 0.1006
C9_4 C 0.0228(13) 0.6696(19) 0.0704(13)
H8_4 H 0.0412 0.6372 0.0985
N1_4 N 0.5933(9) 0.0035(14) 0.0137(9)
H1_4 H 0.8187 0.0395 0.0892
H4_4 H 0.9134 0.0076 0.0501
C13_4 C 0.6881(12) 0.053(2) 0.0245(15)
H13_4 H 0.7231 0.0871 0.0206
C18_4 C 0.0205(13) 0.2976(19) 0.0070(12)
H17_4 H 0.0368 0.3015 0.0425
H20_4 H 0.0479 0.1404 0.0348
C14_4 C 0.6359(14) 0.063(2) 0.9973(14)
H14_4 H 0.6294 0.1061 0.9702
N6_4 N 0.3207(9) 0.0193(15) 0.9395(10)
N8_4 N 0.0175(9) 0.2228(13) 0.9763(9)
C15_4 C 0.1738(12) 0.0169(19) 0.9249(12)
C16_4 C 0.1041(11) 0.1182(15) 0.9689(11)
C19_4 C 0.1163(12) 0.036(2) 0.9485(13)
C20_4 C 0.3789(11) 0.0459(18) 0.9477(11)
H19_4 H 0.3972 0.0925 0.9288
C21_4 C 0.0433(14) 0.1388(17) 0.9948(13)
H21_4 H 0.0152 0.0913 0.9860
C22_4 C 0.2174(11) 0.079(2) 0.9227(11)
C24_4 C 0.1491(13) 0.183(2) 0.9665(12)
H23_4 H 0.1415 0.2397 0.9805
C25_4 C 0.2050(12) 0.1637(18) 0.9433(12)
H24_4 H 0.2346 0.2075 0.9414
C26_4 C 0.2794(12) 0.057(2) 0.8982(12)
H25_4 H 0.2972 0.1112 0.8833
H26_4 H 0.2745 0.0157 0.8679
O41_4 O 0.5139(7) 0.0295(11) 0.9057(7)
N2_4 N 0.6793(9) 0.9807(15) 0.0605(10)
N4_4 N 0.9825(9) 0.7772(13) 0.0237(9)
C1_4 C 0.8262(12) 0.9831(19) 0.0751(12)
C2_4 C 0.8959(11) 0.8818(15) 0.0311(11)
C5_4 C 0.8837(12) 0.964(2) 0.0515(13)
C6_4 C 0.6211(11) 0.9541(18) 0.0523(11)
H5_4 H 0.6028 0.9075 0.0712
C7_4 C 0.9567(14) 0.8612(17) 0.0052(13)
H7_4 H 0.9848 0.9087 0.0140
C8_4 C 0.7826(11) 0.921(2) 0.0773(11)
C10_4 C 0.8509(13) 0.817(2) 0.0335(12)
H9_4 H 0.8585 0.7603 0.0195
C11_4 C 0.7950(12) 0.8363(18) 0.0567(12)
H10_4 H 0.7654 0.7925 0.0586
C12_4 C 0.7206(12) 0.943(2) 0.1018(12)
H11_4 H 0.7028 0.8888 0.1167
H12_4 H 0.7255 0.9843 0.1321
C28_4 C 0.3641(14) 0.937(2) 0.0027(14)
H28_4 H 0.3706 0.8939 0.0298
C4_4 C 0.9795(13) 0.7024(19) 0.9930(12)
H3_4 H 0.9632 0.6985 0.9575
H6_4 H 0.9521 0.8596 0.9652
N5_4 N 0.4067(9) 0.9965(14) 0.9863(9)
H15_4 H 0.1813 0.9605 0.9108
H18_4 H 0.0866 0.9924 0.9499
C27_4 C 0.3119(12) 0.947(2) 0.9755(15)
H27_4 H 0.2769 0.9129 0.9794
C17_4 C 0.9883(12) 0.2446(17) 0.9280(10)
H16_4 H 0.9782 0.2059 0.8994
C23_4 C 0.9772(13) 0.3304(19) 0.9296(13)
H22_4 H 0.9588 0.3628 0.9015
V1_4 V 0.5000 0.2660(5) 0.7500
W1_3 W 0.48005(5) 0.10120(6) 0.64889(4)
W2_3 W 0.38812(5) 0.10160(7) 0.75864(5)
W3_3 W 0.37391(5) 0.25855(7) 0.66095(5)
W4_3 W 0.50860(5) 0.43230(7) 0.85161(4)
W5_3 W 0.40309(5) 0.27565(7) 0.86531(4)
W6_3 W 0.38824(5) 0.43128(7) 0.76806(5)
O1_3 O 0.3566(7) 0.3642(11) 0.8289(6)
O2_3 O 0.3354(8) 0.0233(11) 0.7778(7)
O3_3 O 0.5317(7) 0.1925(10) 0.6246(6)
O4_3 O 0.3596(7) 0.3385(11) 0.7198(7)
O5_3 O 0.5674(7) 0.3402(10) 0.8649(6)
O6_3 O 0.3398(7) 0.1682(10) 0.7079(7)
O7_3 O 0.4126(7) 0.1663(10) 0.6196(7)
O8_3 O 0.4244(7) 0.0404(10) 0.6957(7)
O9_3 O 0.4529(7) 0.2043(10) 0.7165(6)
O11_3 O 0.5430(7) 0.0676(11) 0.6968(7)
O12_3 O 0.4542(8) 0.3649(11) 0.8965(7)
O13_3 O 0.5585(8) 0.4632(11) 0.7890(7)
O14_3 O 0.4412(7) 0.4913(10) 0.8197(7)
O15_3 O 0.3743(7) 0.1921(10) 0.8115(6)
O16_3 O 0.5300(9) 0.5082(13) 0.8993(7)
O17_3 O 0.3568(8) 0.2539(11) 0.9206(7)
O18_3 O 0.4629(7) 0.3281(10) 0.7935(6)
O19_3 O 0.3147(9) 0.2799(13) 0.6180(8)
O20_3 O 0.3326(8) 0.5085(12) 0.7617(7)
W7_3 W 0.51995(5) 0.10120(6) 0.85111(4)
W8_3 W 0.61188(5) 0.10160(7) 0.74136(5)
W9_3 W 0.62609(5) 0.25855(7) 0.83905(5)
W10_3 W 0.49140(5) 0.43230(7) 0.64839(4)
W11_3 W 0.59691(5) 0.27565(7) 0.63469(4)
W12_3 W 0.61176(5) 0.43128(7) 0.73194(5)
O21_3 O 0.6434(7) 0.3642(11) 0.6711(6)
O22_3 O 0.6646(8) 0.0233(11) 0.7222(7)
O23_3 O 0.4683(7) 0.1925(10) 0.8754(6)
O24_3 O 0.6404(7) 0.3385(11) 0.7802(7)
O25_3 O 0.4326(7) 0.3402(10) 0.6351(6)
O26_3 O 0.6602(7) 0.1682(10) 0.7921(7)
O27_3 O 0.5874(7) 0.1663(10) 0.8804(7)
O28_3 O 0.5756(7) 0.0404(10) 0.8043(7)
O29_3 O 0.5471(7) 0.2043(10) 0.7835(6)
O31_3 O 0.4570(7) 0.0676(11) 0.8032(7)
O32_3 O 0.5458(8) 0.3649(11) 0.6035(7)
O33_3 O 0.4415(8) 0.4632(11) 0.7110(7)
O34_3 O 0.5588(7) 0.4913(10) 0.6803(7)
O35_3 O 0.6257(7) 0.1921(10) 0.6885(6)
O36_3 O 0.4700(9) 0.5082(13) 0.6007(7)
O37_3 O 0.6432(8) 0.2539(11) 0.5794(7)
O38_3 O 0.5371(7) 0.3281(10) 0.7065(6)
O39_3 O 0.6853(9) 0.2799(13) 0.8820(8)
O40_3 O 0.6674(8) 0.5085(12) 0.7383(7)
V1_5 V -0.0000 0.2340(5) 0.2500
W1_4 W 0.01995(5) 0.39880(6) 0.14889(4)
W2_4 W 0.11188(5) 0.39840(7) 0.25864(5)
W3_4 W 0.12609(5) 0.24145(7) 0.16095(5)
W5_4 W 0.09691(5) 0.22435(7) 0.36531(4)
W6_4 W 0.11176(5) 0.06872(7) 0.26806(5)
O1_4 O 0.1434(7) 0.1358(11) 0.3289(6)
O2_4 O 0.1646(8) 0.4767(11) 0.2778(7)
O4_4 O 0.1404(7) 0.1615(11) 0.2198(7)
O6_4 O 0.1602(7) 0.3318(10) 0.2079(7)
O7_4 O 0.0874(7) 0.3337(10) 0.1196(7)
O8_4 O 0.0756(7) 0.4596(10) 0.1957(7)
O9_4 O 0.0471(7) 0.2957(10) 0.2165(6)
O12_4 O 0.0458(8) 0.1351(11) 0.3965(7)
O14_4 O 0.0588(7) 0.0087(10) 0.3197(7)
O15_4 O 0.1257(7) 0.3079(10) 0.3115(6)
O17_4 O 0.1432(8) 0.2461(11) 0.4206(7)
O18_4 O 0.0371(7) 0.1719(10) 0.2935(6)
O19_4 O 0.1853(9) 0.2201(13) 0.1180(8)
W10_4 W 0.00860(5) 0.06770(7) 0.14839(4)
O23_4 O 0.0317(7) 0.3075(10) 0.3754(6)
O25_4 O 0.0674(7) 0.1598(10) 0.1351(6)
O31_4 O 0.0430(7) 0.4324(11) 0.3032(7)
O33_4 O 0.0585(8) 0.0368(11) 0.2110(7)
O20_4 O 0.1674(8) 0.9915(12) 0.2617(7)
O36_4 O 0.0300(9) 0.9918(13) 0.1007(7)
V1_6 V 1.0000 0.2340(5) 0.2500
W4_4 W 0.99140(5) 0.06770(7) 0.35161(4)
O3_4 O 0.9683(7) 0.3075(10) 0.1246(6)
O5_4 O 0.9326(7) 0.1598(10) 0.3649(6)
O11_4 O 0.9570(7) 0.4324(11) 0.1968(7)
O13_4 O 0.9415(8) 0.0368(11) 0.2890(7)
W7_4 W 0.98005(5) 0.39880(6) 0.35111(4)
W8_4 W 0.88812(5) 0.39840(7) 0.24136(5)
W9_4 W 0.87391(5) 0.24145(7) 0.33905(5)
W11_4 W 0.90309(5) 0.22435(7) 0.13469(4)
W12_4 W 0.88824(5) 0.06872(7) 0.23194(5)
O21_4 O 0.8566(7) 0.1358(11) 0.1711(6)
O22_4 O 0.8354(8) 0.4767(11) 0.2222(7)
O24_4 O 0.8596(7) 0.1615(11) 0.2802(7)
O26_4 O 0.8398(7) 0.3318(10) 0.2921(7)
O27_4 O 0.9126(7) 0.3337(10) 0.3804(7)
O28_4 O 0.9244(7) 0.4596(10) 0.3043(7)
O29_4 O 0.9529(7) 0.2957(10) 0.2835(6)
O32_4 O 0.9542(8) 0.1351(11) 0.1035(7)
O34_4 O 0.9412(7) 0.0087(10) 0.1803(7)
O35_4 O 0.8743(7) 0.3079(10) 0.1885(6)
O37_4 O 0.8568(8) 0.2461(11) 0.0794(7)
O38_4 O 0.9629(7) 0.1719(10) 0.2065(6)
O39_4 O 0.8147(9) 0.2201(13) 0.3820(8)
O16_4 O 0.9700(9) 0.9918(13) 0.3993(7)
O40_4 O 0.8326(8) 0.9915(12) 0.2383(7)
N11 N 0.2520(10) 0.2345(14) 0.2771(8)
N12 N 0.3430(14) 0.224(2) 0.3074(13)
C29 C 0.277(2) 0.308(3) 0.2861(19)
C30 C 0.289(2) 0.165(3) 0.293(2)
C31 C 0.336(2) 0.301(3) 0.310(3)
C32 C 0.4594(18) 0.216(2) 0.2869(16)
C33 C 0.476(2) 0.311(2) 0.279(2)
C34 C 0.475(3) 0.137(2) 0.263(3)
C35 C 0.419(2) 0.246(5) 0.3363(19)
N13 N 0.7480(10) 0.2345(14) 0.2229(8)
N14 N 0.6570(14) 0.224(2) 0.1926(13)
C36 C 0.723(2) 0.308(3) 0.2139(19)
C37 C 0.711(2) 0.165(3) 0.207(2)
C38 C 0.664(2) 0.301(3) 0.190(3)
C39 C 0.5406(18) 0.216(2) 0.2131(16)
C40 C 0.524(2) 0.311(2) 0.221(2)
C41 C 0.525(3) 0.137(2) 0.237(3)
C42 C 0.581(2) 0.246(5) 0.1637(19)
H29 H 0.255568 0.371313 0.276523
H30 H 0.744432 0.371313 0.223477
H31 H 0.365963 0.352433 0.326061
H32 H 0.55353 0.0781654 0.233923
H33 H 0.634037 0.352433 0.173939
H34 H 0.572385 0.206576 0.126683
H35 H 0.574673 0.316053 0.154179
H36 H 0.210041 0.227117 0.260316
H37 H 0.427615 0.206576 0.373317
H38 H 0.425327 0.316053 0.345821
H39 H 0.538431 0.367718 0.196304
H40 H 0.282071 0.093476 0.294662
H41 H 0.44647 0.0781654 0.266077
H42 H 0.461569 0.367718 0.303696
H43 H 0.789959 0.227117 0.239684
H44 H 0.717929 0.093476 0.205338
N11_2 N 0.2480(10) 0.2655(14) 0.7771(8)
N12_2 N 0.1570(14) 0.276(2) 0.8074(13)
C29_2 C 0.223(2) 0.192(3) 0.7861(19)
C30_2 C 0.211(2) 0.335(3) 0.793(2)
C31_2 C 0.164(2) 0.199(3) 0.810(3)
C32_2 C 0.0406(18) 0.284(2) 0.7869(16)
C33_2 C 0.024(2) 0.189(2) 0.779(2)
C34_2 C 0.025(3) 0.363(2) 0.763(3)
C35_2 C 0.081(2) 0.254(5) 0.8363(19)
H29_2 H 0.244432 0.128687 0.776523
H31_2 H 0.134037 0.147567 0.826061
H36_2 H 0.289959 0.272883 0.760316
H37_2 H 0.0723852 0.293424 0.873317
H38_2 H 0.0746727 0.183947 0.845821
H40_2 H 0.217929 0.406524 0.794662
H41_2 H 0.0535297 0.421835 0.766077
H42_2 H 0.0384306 0.132282 0.803696
N13_2 N 0.7520(10) 0.2655(14) 0.7229(8)
N14_2 N 0.8430(14) 0.276(2) 0.6926(13)
C36_2 C 0.777(2) 0.192(3) 0.7139(19)
C37_2 C 0.789(2) 0.335(3) 0.707(2)
C38_2 C 0.836(2) 0.199(3) 0.690(3)
C39_2 C 0.9594(18) 0.284(2) 0.7131(16)
C40_2 C 0.976(2) 0.189(2) 0.721(2)
C41_2 C 0.975(3) 0.363(2) 0.737(3)
C42_2 C 0.919(2) 0.254(5) 0.6637(19)
H30_2 H 0.755568 0.128687 0.723477
H32_2 H 0.94647 0.421835 0.733923
H33_2 H 0.865963 0.147567 0.673939
H34_2 H 0.927615 0.293424 0.626683
H35_2 H 0.925327 0.183947 0.654179
H39_2 H 0.961569 0.132282 0.696304
H43_2 H 0.710041 0.272883 0.739684
H44_2 H 0.782071 0.406524 0.705338
N11_3 N 0.7480(10) 0.7655(14) 0.7229(8)
N12_3 N 0.6570(14) 0.776(2) 0.6926(13)
C29_3 C 0.723(2) 0.692(3) 0.7139(19)
C30_3 C 0.711(2) 0.835(3) 0.707(2)
C31_3 C 0.664(2) 0.699(3) 0.690(3)
C32_3 C 0.5406(18) 0.784(2) 0.7131(16)
C33_3 C 0.524(2) 0.689(2) 0.721(2)
C34_3 C 0.525(3) 0.863(2) 0.737(3)
C35_3 C 0.581(2) 0.754(5) 0.6637(19)
N13_3 N 0.2520(10) 0.7655(14) 0.7771(8)
N14_3 N 0.3430(14) 0.776(2) 0.8074(13)
C36_3 C 0.277(2) 0.692(3) 0.7861(19)
C37_3 C 0.289(2) 0.835(3) 0.793(2)
C38_3 C 0.336(2) 0.699(3) 0.810(3)
C39_3 C 0.4594(18) 0.784(2) 0.7869(16)
C40_3 C 0.476(2) 0.689(2) 0.779(2)
C41_3 C 0.475(3) 0.863(2) 0.763(3)
C42_3 C 0.419(2) 0.754(5) 0.8363(19)
H29_3 H 0.744432 0.628687 0.723477
H30_3 H 0.255568 0.628687 0.776523
H31_3 H 0.634037 0.647567 0.673939
H32_3 H 0.44647 0.921835 0.766077
H33_3 H 0.365963 0.647567 0.826061
H34_3 H 0.427615 0.793424 0.873317
H35_3 H 0.425327 0.683947 0.845821
H36_3 H 0.789959 0.772883 0.739684
H37_3 H 0.572385 0.793424 0.626683
H38_3 H 0.574673 0.683947 0.654179
H39_3 H 0.461569 0.632282 0.803696
H40_3 H 0.717929 0.906524 0.705338
H41_3 H 0.55353 0.921835 0.733923
H42_3 H 0.538431 0.632282 0.696304
H43_3 H 0.210041 0.772883 0.760316
H44_3 H 0.282071 0.906524 0.794662
N13_4 N 0.2480(10) 0.7345(14) 0.2771(8)
N14_4 N 0.1570(14) 0.724(2) 0.3074(13)
C36_4 C 0.223(2) 0.808(3) 0.2861(19)
C37_4 C 0.211(2) 0.665(3) 0.293(2)
C38_4 C 0.164(2) 0.801(3) 0.310(3)
C39_4 C 0.0406(18) 0.716(2) 0.2869(16)
C40_4 C 0.024(2) 0.811(2) 0.279(2)
C41_4 C 0.025(3) 0.637(2) 0.263(3)
C42_4 C 0.081(2) 0.746(5) 0.3363(19)
H30_4 H 0.244432 0.871313 0.276523
H32_4 H 0.0535297 0.578165 0.266077
H33_4 H 0.134037 0.852433 0.326061
H34_4 H 0.0723852 0.706576 0.373317
H35_4 H 0.0746727 0.816053 0.345821
H39_4 H 0.0384306 0.867718 0.303696
H43_4 H 0.289959 0.727117 0.260316
H44_4 H 0.217929 0.593476 0.294662
N11_4 N 0.7520(10) 0.7345(14) 0.2229(8)
N12_4 N 0.8430(14) 0.724(2) 0.1926(13)
C29_4 C 0.777(2) 0.808(3) 0.2139(19)
C30_4 C 0.789(2) 0.665(3) 0.207(2)
C31_4 C 0.836(2) 0.801(3) 0.190(3)
C32_4 C 0.9594(18) 0.716(2) 0.2131(16)
C33_4 C 0.976(2) 0.811(2) 0.221(2)
C34_4 C 0.975(3) 0.637(2) 0.237(3)
C35_4 C 0.919(2) 0.746(5) 0.1637(19)
H29_4 H 0.755568 0.871313 0.223477
H31_4 H 0.865963 0.852433 0.173939
H36_4 H 0.710041 0.727117 0.239684
H37_4 H 0.927615 0.706576 0.126683
H38_4 H 0.925327 0.816053 0.154179
H40_4 H 0.782071 0.593476 0.205338
H41_4 H 0.94647 0.578165 0.233923
H42_4 H 0.961569 0.867718 0.196304
loop_
_geom_bond_atom_site_label_1
_geom_bond_atom_site_label_2
_geom_bond_site_symmetry_1
_geom_bond_site_symmetry_2
C17 H16 1_555 1_555
C23 N7 1_555 1_555
H22 C23 1_555 1_555
Co3 N7 1_555 1_555
C17 C23 1_555 1_555
N1 Co1 1_555 1_555
H13 C13 1_555 1_555
C14 N1 1_555 1_555
H14 C14 1_555 1_555
N6 C20 1_555 1_555
C16 C19 1_555 1_555
C18 N8 1_555 1_555
H17 C18 1_555 1_555
C19 C15 1_555 1_555
H19 C20 1_555 1_555
C21 N8 1_555 1_555
H20 C21 1_555 1_555
H21 C21 1_555 1_555
C22 C15 1_555 1_555
C24 C16 1_555 1_555
H23 C24 1_555 1_555
C25 C22 1_555 1_555
H24 C25 1_555 1_555
C26 N6 1_555 1_555
H25 C26 1_555 1_555
H26 C26 1_555 1_555
O41 Co1 1_555 1_555
N10 Co1 1_555 1_555
C13 C14 1_555 1_555
C16 C21 1_555 1_555
C22 C26 1_555 1_555
C24 C25 1_555 1_555
Co1_2 O10 1_555 1_555
V1 O9 1_555 1_555
W1 O3 1_555 1_555
W2 O2 1_555 1_555
W3 O4 1_555 1_555
W4 O5 1_555 1_555
W5 O1 1_555 1_555
W6 O1 1_555 1_555
O3 W11 1_555 1_555
O4 W6 1_555 1_555
O5 W9 1_555 1_555
O6 W2 1_555 1_555
O7 W1 1_555 1_555
O8 W1 1_555 1_555
O9 W1 1_555 1_555
O10 W1 1_555 1_555
O11 W1 1_555 1_555
O12 W4 1_555 1_555
O13 W4 1_555 1_555
O14 W4 1_555 1_555
O15 W2 1_555 1_555
O16 W4 1_555 1_555
O17 W5 1_555 1_555
O18 V1 1_555 1_555
O19 W3 1_555 1_555
O20 W6 1_555 1_555
N2 C6 1_555 1_555
C2 C5 1_555 1_555
C4 N4 1_555 1_555
H3 C4 1_555 1_555
C5 C1 1_555 1_555
H5 C6 1_555 1_555
C7 N4 1_555 1_555
H6 C7 1_555 1_555
H7 C7 1_555 1_555
C8 C1 1_555 1_555
C10 C2 1_555 1_555
H9 C10 1_555 1_555
C11 C8 1_555 1_555
H10 C11 1_555 1_555
C12 N2 1_555 1_555
H11 C12 1_555 1_555
H12 C12 1_555 1_555
W7 O23 1_555 1_555
W8 O11 1_555 1_555
W9 O24 1_555 1_555
W10 O25 1_555 1_555
W11 O21 1_555 1_555
W12 O13 1_555 1_555
O21 W12 1_555 1_555
O22 W8 1_555 1_555
O23 W5 1_555 1_555
O24 W12 1_555 1_555
O25 W3 1_555 1_555
O26 W8 1_555 1_555
O27 W7 1_555 1_555
O28 W7 1_555 1_555
O29 V1 1_555 1_555
O30 W7 1_555 1_555
O31 W2 1_555 1_555
O32 W10 1_555 1_555
O33 W6 1_555 1_555
O34 W10 1_555 1_555
O35 W8 1_555 1_555
O36 W10 1_555 1_555
O37 W11 1_555 1_555
O38 V1 1_555 1_555
O39 W9 1_555 1_555
O40 W12 1_555 1_555
N5 Co1_2 1_555 1_555
H27 C27 1_555 1_555
C28 N5 1_555 1_555
H28 C28 1_555 1_555
Co4_3 O30 1_555 1_555
N9 Co1_2 1_555 1_555
W2 O8 1_555 1_555
W2 O9 1_555 1_555
W3 O6 1_555 1_555
W3 O7 1_555 1_555
W3 O9 1_555 1_555
W4 O18 1_555 1_555
W5 O12 1_555 1_555
W5 O15 1_555 1_555
W5 O18 1_555 1_555
W6 O14 1_555 1_555
W6 O18 1_555 1_555
C2 C7 1_555 1_555
C8 C12 1_555 1_555
C10 C11 1_555 1_555
W7 O29 1_555 1_555
W7 O31 1_555 1_555
W8 O28 1_555 1_555
W8 O29 1_555 1_555
W9 O26 1_555 1_555
W9 O27 1_555 1_555
W9 O29 1_555 1_555
W10 O33 1_555 1_555
W10 O38 1_555 1_555
W11 O32 1_555 1_555
W11 O35 1_555 1_555
W11 O38 1_555 1_555
W12 O34 1_555 1_555
W12 O38 1_555 1_555
C27 C28 1_555 1_555
C3 H2 1_555 1_555
C9 N3 1_555 1_555
H8 C9 1_555 1_555
Co3_2 N3 1_555 1_555
C3 C9 1_555 1_555
H3_2 C4_2 1_555 1_555
H14_2 C14_2 1_555 1_555
O41_2 Co1_3 1_555 1_555
N9_2 Co1_3 1_555 1_555
W4_2 O5_2 1_555 1_555
O3_2 W11_2 1_555 1_555
O5_2 W9_2 1_555 1_555
O13_2 W4_2 1_555 1_555
N1_2 Co1_4 1_555 1_555
N2_2 C6_2 1_555 1_555
N4_2 C3_2 1_555 1_555
C1_2 H1_2 1_555 1_555
C2_2 C5_2 1_555 1_555
C3_2 H2_2 1_555 1_555
C5_2 C1_2 1_555 1_555
H4_2 C5_2 1_555 1_555
C6_2 N1_2 1_555 1_555
H5_2 C6_2 1_555 1_555
C7_2 N4_2 1_555 1_555
H7_2 C7_2 1_555 1_555
C8_2 C1_2 1_555 1_555
C9_2 N3_2 1_555 1_555
H8_2 C9_2 1_555 1_555
C10_2 C2_2 1_555 1_555
H9_2 C10_2 1_555 1_555
C11_2 C8_2 1_555 1_555
H10_2 C11_2 1_555 1_555
C12_2 N2_2 1_555 1_555
H11_2 C12_2 1_555 1_555
H12_2 C12_2 1_555 1_555
C13_2 N2_2 1_555 1_555
H13_2 C13_2 1_555 1_555
W8_2 O11_2 1_555 1_555
W9_2 O24_2 1_555 1_555
W11_2 O21_2 1_555 1_555
W12_2 O13_2 1_555 1_555
O21_2 W12_2 1_555 1_555
O22_2 W8_2 1_555 1_555
O24_2 W12_2 1_555 1_555
O26_2 W8_2 1_555 1_555
O27_2 W7_2 1_555 1_555
O28_2 W7_2 1_555 1_555
O29_2 V1_2 1_555 1_555
O30_2 W7_2 1_555 1_555
O35_2 W8_2 1_555 1_555
O37_2 W11_2 1_555 1_555
O38_2 V1_2 1_555 1_555
O39_2 W9_2 1_555 1_555
Co4_4 N3_2 1_555 1_555
Co3 O30_2 1_555 1_555
C2_2 C7_2 1_555 1_555
C3_2 C9_2 1_555 1_555
C8_2 C12_2 1_555 1_555
C10_2 C11_2 1_555 1_555
W7_2 O29_2 1_555 1_555
W8_2 O28_2 1_555 1_555
W8_2 O29_2 1_555 1_555
W9_2 O26_2 1_555 1_555
W9_2 O27_2 1_555 1_555
W9_2 O29_2 1_555 1_555
W11_2 O32_2 1_555 1_555
W11_2 O35_2 1_555 1_555
W11_2 O38_2 1_555 1_555
W12_2 O34_2 1_555 1_555
W12_2 O38_2 1_555 1_555
N5_2 Co1_5 1_555 1_555
N6_2 C20_2 1_555 1_555
N8_2 C17_2 1_555 1_555
C15_2 H15_2 1_555 1_555
C16_2 C19_2 1_555 1_555
C17_2 H16_2 1_555 1_555
C19_2 C15_2 1_555 1_555
H18_2 C19_2 1_555 1_555
C20_2 N5_2 1_555 1_555
H19_2 C20_2 1_555 1_555
C21_2 N8_2 1_555 1_555
H21_2 C21_2 1_555 1_555
C22_2 C15_2 1_555 1_555
C23_2 N7_2 1_555 1_555
H22_2 C23_2 1_555 1_555
C24_2 C16_2 1_555 1_555
H23_2 C24_2 1_555 1_555
C25_2 C22_2 1_555 1_555
H24_2 C25_2 1_555 1_555
C26_2 N6_2 1_555 1_555
H25_2 C26_2 1_555 1_555
H26_2 C26_2 1_555 1_555
C27_2 N6_2 1_555 1_555
H27_2 C27_2 1_555 1_555
Co4 N7_2 1_555 1_555
C16_2 C21_2 1_555 1_555
C17_2 C23_2 1_555 1_555
C22_2 C26_2 1_555 1_555
C24_2 C25_2 1_555 1_555
Co1_6 O10_2 1_555 1_555
V1_3 O9_2 1_555 1_555
W2_2 O2_2 1_555 1_555
W3_2 O4_2 1_555 1_555
W5_2 O1_2 1_555 1_555
W6_2 O1_2 1_555 1_555
O4_2 W6_2 1_555 1_555
O6_2 W2_2 1_555 1_555
O7_2 W1_2 1_555 1_555
O8_2 W1_2 1_555 1_555
O9_2 W1_2 1_555 1_555
O10_2 W1_2 1_555 1_555
O15_2 W2_2 1_555 1_555
O17_2 W5_2 1_555 1_555
O18_2 V1_3 1_555 1_555
O19_2 W3_2 1_555 1_555
W10_2 O25_2 1_555 1_555
O23_2 W5_2 1_555 1_555
O25_2 W3_2 1_555 1_555
O31_2 W2_2 1_555 1_555
O33_2 W6_2 1_555 1_555
H17_2 C18_2 1_555 1_555
H28_2 C28_2 1_555 1_555
N10_2 Co1_6 1_555 1_555
W2_2 O8_2 1_555 1_555
W2_2 O9_2 1_555 1_555
W3_2 O6_2 1_555 1_555
W3_2 O7_2 1_555 1_555
W3_2 O9_2 1_555 1_555
W5_2 O12_2 1_555 1_555
W5_2 O15_2 1_555 1_555
W5_2 O18_2 1_555 1_555
W6_2 O14_2 1_555 1_555
W6_2 O18_2 1_555 1_555
W10_2 O33_2 1_555 1_555
N5_3 Co3 1_555 1_555
N6_3 C20_3 1_555 1_555
N10 C18_3 1_555 1_555
N8_3 C17_3 1_555 1_555
C15_3 H15_3 1_555 1_555
C16_3 C19_3 1_555 1_555
C17_3 H16_3 1_555 1_555
C18_3 N8_3 1_555 1_555
H17_3 C18_3 1_555 1_555
C19_3 C15_3 1_555 1_555
H18_3 C19_3 1_555 1_555
C20_3 N5_3 1_555 1_555
H19_3 C20_3 1_555 1_555
C21_3 N8_3 1_555 1_555
H20_3 C21_3 1_555 1_555
H21_3 C21_3 1_555 1_555
C22_3 C15_3 1_555 1_555
C23_3 N10 1_555 1_555
H22_3 C23_3 1_555 1_555
C24_3 C16_3 1_555 1_555
H23_3 C24_3 1_555 1_555
C25_3 C22_3 1_555 1_555
H24_3 C25_3 1_555 1_555
C26_3 N6_3 1_555 1_555
H25_3 C26_3 1_555 1_555
H26_3 C26_3 1_555 1_555
C27_3 N6_3 1_555 1_555
H27_3 C27_3 1_555 1_555
C28_3 N5_3 1_555 1_555
H28_3 C28_3 1_555 1_555
C16_3 C21_3 1_555 1_555
C17_3 C23_3 1_555 1_555
C22_3 C26_3 1_555 1_555
C24_3 C25_3 1_555 1_555
C27_3 C28_3 1_555 1_555
N1_3 Co3_2 1_555 1_555
N2_3 C6_3 1_555 1_555
N9 C4_3 1_555 1_555
N4_3 C3_3 1_555 1_555
C1_3 H1_3 1_555 1_555
C2_3 C5_3 1_555 1_555
C3_3 H2_3 1_555 1_555
C4_3 N4_3 1_555 1_555
H3_3 C4_3 1_555 1_555
C5_3 C1_3 1_555 1_555
H4_3 C5_3 1_555 1_555
C6_3 N1_3 1_555 1_555
H5_3 C6_3 1_555 1_555
C7_3 N4_3 1_555 1_555
H6_3 C7_3 1_555 1_555
H7_3 C7_3 1_555 1_555
C8_3 C1_3 1_555 1_555
C9_3 N9 1_555 1_555
H8_3 C9_3 1_555 1_555
C10_3 C2_3 1_555 1_555
H9_3 C10_3 1_555 1_555
C11_3 C8_3 1_555 1_555
H10_3 C11_3 1_555 1_555
C12_3 N2_3 1_555 1_555
H11_3 C12_3 1_555 1_555
H12_3 C12_3 1_555 1_555
C13_3 N2_3 1_555 1_555
H13_3 C13_3 1_555 1_555
C14_3 N1_3 1_555 1_555
H14_3 C14_3 1_555 1_555
O41_3 Co3_2 1_555 1_555
C2_3 C7_3 1_555 1_555
C3_3 C9_3 1_555 1_555
C8_3 C12_3 1_555 1_555
C10_3 C11_3 1_555 1_555
C13_3 C14_3 1_555 1_555
C3_4 H2_4 1_555 1_555
C9_4 N9_2 1_555 1_555
H8_4 C9_4 1_555 1_555
C3_4 C9_4 1_555 1_555
N1_4 Co4 1_555 1_555
H13_4 C13_4 1_555 1_555
H17_4 C18_4 1_555 1_555
H14_4 C14_4 1_555 1_555
N6_4 C20_4 1_555 1_555
C16_4 C19_4 1_555 1_555
C19_4 C15_4 1_555 1_555
H19_4 C20_4 1_555 1_555
C21_4 N8_4 1_555 1_555
H21_4 C21_4 1_555 1_555
C22_4 C15_4 1_555 1_555
C24_4 C16_4 1_555 1_555
H23_4 C24_4 1_555 1_555
C25_4 C22_4 1_555 1_555
H24_4 C25_4 1_555 1_555
C26_4 N6_4 1_555 1_555
H25_4 C26_4 1_555 1_555
H26_4 C26_4 1_555 1_555
O41_4 Co4_2 1_555 1_555
C16_4 C21_4 1_555 1_555
C22_4 C26_4 1_555 1_555
C24_4 C25_4 1_555 1_555
N2_4 C6_4 1_555 1_555
C2_4 C5_4 1_555 1_555
C5_4 C1_4 1_555 1_555
H5_4 C6_4 1_555 1_555
C7_4 N4_4 1_555 1_555
H7_4 C7_4 1_555 1_555
C8_4 C1_4 1_555 1_555
C10_4 C2_4 1_555 1_555
H9_4 C10_4 1_555 1_555
C11_4 C8_4 1_555 1_555
H10_4 C11_4 1_555 1_555
C12_4 N2_4 1_555 1_555
H11_4 C12_4 1_555 1_555
H12_4 C12_4 1_555 1_555
H28_4 C28_4 1_555 1_555
C2_4 C7_4 1_555 1_555
C8_4 C12_4 1_555 1_555
C10_4 C11_4 1_555 1_555
H3_4 C4_4 1_555 1_555
N5_4 Co4_4 1_555 1_555
H27_4 C27_4 1_555 1_555
C17_4 H16_4 1_555 1_555
C23_4 N10_2 1_555 1_555
H22_4 C23_4 1_555 1_555
C17_4 C23_4 1_555 1_555
V1_4 O9_3 1_555 1_555
W1_3 O3_3 1_555 1_555
W2_3 O2_3 1_555 1_555
W3_3 O4_3 1_555 1_555
W4_3 O5_3 1_555 1_555
W5_3 O1_3 1_555 1_555
W6_3 O1_3 1_555 1_555
O3_3 W11_3 1_555 1_555
O4_3 W6_3 1_555 1_555
O5_3 W9_3 1_555 1_555
O6_3 W2_3 1_555 1_555
O7_3 W1_3 1_555 1_555
O8_3 W1_3 1_555 1_555
O9_3 W1_3 1_555 1_555
O41 W1_3 1_555 1_555
O11_3 W1_3 1_555 1_555
O12_3 W4_3 1_555 1_555
O13_3 W4_3 1_555 1_555
O14_3 W4_3 1_555 1_555
O15_3 W2_3 1_555 1_555
O16_3 W4_3 1_555 1_555
O17_3 W5_3 1_555 1_555
O18_3 V1_4 1_555 1_555
O19_3 W3_3 1_555 1_555
O20_3 W6_3 1_555 1_555
W7_3 O23_3 1_555 1_555
W8_3 O11_3 1_555 1_555
W9_3 O24_3 1_555 1_555
W10_3 O25_3 1_555 1_555
W11_3 O21_3 1_555 1_555
W12_3 O13_3 1_555 1_555
O21_3 W12_3 1_555 1_555
O22_3 W8_3 1_555 1_555
O23_3 W5_3 1_555 1_555
O24_3 W12_3 1_555 1_555
O25_3 W3_3 1_555 1_555
O26_3 W8_3 1_555 1_555
O27_3 W7_3 1_555 1_555
O28_3 W7_3 1_555 1_555
O29_3 V1_4 1_555 1_555
O41_4 W7_3 1_555 1_555
O31_3 W2_3 1_555 1_555
O32_3 W10_3 1_555 1_555
O33_3 W6_3 1_555 1_555
O34_3 W10_3 1_555 1_555
O35_3 W8_3 1_555 1_555
O36_3 W10_3 1_555 1_555
O37_3 W11_3 1_555 1_555
O38_3 V1_4 1_555 1_555
O39_3 W9_3 1_555 1_555
O40_3 W12_3 1_555 1_555
W2_3 O8_3 1_555 1_555
W2_3 O9_3 1_555 1_555
W3_3 O6_3 1_555 1_555
W3_3 O7_3 1_555 1_555
W3_3 O9_3 1_555 1_555
W4_3 O18_3 1_555 1_555
W5_3 O12_3 1_555 1_555
W5_3 O15_3 1_555 1_555
W5_3 O18_3 1_555 1_555
W6_3 O14_3 1_555 1_555
W6_3 O18_3 1_555 1_555
W7_3 O29_3 1_555 1_555
W7_3 O31_3 1_555 1_555
W8_3 O28_3 1_555 1_555
W8_3 O29_3 1_555 1_555
W9_3 O26_3 1_555 1_555
W9_3 O27_3 1_555 1_555
W9_3 O29_3 1_555 1_555
W10_3 O33_3 1_555 1_555
W10_3 O38_3 1_555 1_555
W11_3 O32_3 1_555 1_555
W11_3 O35_3 1_555 1_555
W11_3 O38_3 1_555 1_555
W12_3 O34_3 1_555 1_555
W12_3 O38_3 1_555 1_555
V1_5 O9_4 1_555 1_555
W2_4 O2_4 1_555 1_555
W3_4 O4_4 1_555 1_555
W5_4 O1_4 1_555 1_555
W6_4 O1_4 1_555 1_555
O4_4 W6_4 1_555 1_555
O6_4 W2_4 1_555 1_555
O7_4 W1_4 1_555 1_555
O8_4 W1_4 1_555 1_555
O9_4 W1_4 1_555 1_555
O41_2 W1_4 1_555 1_555
O15_4 W2_4 1_555 1_555
O17_4 W5_4 1_555 1_555
O18_4 V1_5 1_555 1_555
O19_4 W3_4 1_555 1_555
W10_4 O25_4 1_555 1_555
O23_4 W5_4 1_555 1_555
O25_4 W3_4 1_555 1_555
O31_4 W2_4 1_555 1_555
O33_4 W6_4 1_555 1_555
W2_4 O8_4 1_555 1_555
W2_4 O9_4 1_555 1_555
W3_4 O6_4 1_555 1_555
W3_4 O7_4 1_555 1_555
W3_4 O9_4 1_555 1_555
W5_4 O12_4 1_555 1_555
W5_4 O15_4 1_555 1_555
W5_4 O18_4 1_555 1_555
W6_4 O14_4 1_555 1_555
W6_4 O18_4 1_555 1_555
W10_4 O33_4 1_555 1_555
W4_4 O5_4 1_555 1_555
O3_4 W11_4 1_555 1_555
O5_4 W9_4 1_555 1_555
O13_4 W4_4 1_555 1_555
W8_4 O11_4 1_555 1_555
W9_4 O24_4 1_555 1_555
W11_4 O21_4 1_555 1_555
W12_4 O13_4 1_555 1_555
O21_4 W12_4 1_555 1_555
O22_4 W8_4 1_555 1_555
O24_4 W12_4 1_555 1_555
O26_4 W8_4 1_555 1_555
O27_4 W7_4 1_555 1_555
O28_4 W7_4 1_555 1_555
O29_4 V1_6 1_555 1_555
O41_3 W7_4 1_555 1_555
O35_4 W8_4 1_555 1_555
O37_4 W11_4 1_555 1_555
O38_4 V1_6 1_555 1_555
O39_4 W9_4 1_555 1_555
W7_4 O29_4 1_555 1_555
W8_4 O28_4 1_555 1_555
W8_4 O29_4 1_555 1_555
W9_4 O26_4 1_555 1_555
W9_4 O27_4 1_555 1_555
W9_4 O29_4 1_555 1_555
W11_4 O32_4 1_555 1_555
W11_4 O35_4 1_555 1_555
W11_4 O38_4 1_555 1_555
W12_4 O34_4 1_555 1_555
W12_4 O38_4 1_555 1_555
N11 C29 1_555 1_555
N12 C30 1_555 1_555
C29 C31 1_555 1_555
C30 N11 1_555 1_555
C31 N12 1_555 1_555
C32 C33 1_555 1_555
C33 C40 1_555 1_555
C34 C32 1_555 1_555
C35 N12 1_555 1_555
N13 C36 1_555 1_555
N14 C37 1_555 1_555
C36 C38 1_555 1_555
C37 N13 1_555 1_555
C38 N14 1_555 1_555
C39 C40 1_555 1_555
C41 C34 1_555 1_555
C42 N14 1_555 1_555
C32 C35 1_555 1_555
C39 C41 1_555 1_555
C39 C42 1_555 1_555
C29 H29 1_555 1_555
C36 H30 1_555 1_555
C31 H31 1_555 1_555
C41 H32 1_555 1_555
C38 H33 1_555 1_555
C42 H34 1_555 1_555
C42 H35 1_555 1_555
N11 H36 1_555 1_555
C35 H37 1_555 1_555
C35 H38 1_555 1_555
C40 H39 1_555 1_555
C30 H40 1_555 1_555
C34 H41 1_555 1_555
C33 H42 1_555 1_555
N13 H43 1_555 1_555
C37 H44 1_555 1_555
N11_2 C29_2 1_555 1_555
N12_2 C30_2 1_555 1_555
C29_2 C31_2 1_555 1_555
C30_2 N11_2 1_555 1_555
C31_2 N12_2 1_555 1_555
C32_2 C33_2 1_555 1_555
C34_2 C32_2 1_555 1_555
C35_2 N12_2 1_555 1_555
C32_2 C35_2 1_555 1_555
C29_2 H29_2 1_555 1_555
C31_2 H31_2 1_555 1_555
N11_2 H36_2 1_555 1_555
C35_2 H37_2 1_555 1_555
C35_2 H38_2 1_555 1_555
C30_2 H40_2 1_555 1_555
C34_2 H41_2 1_555 1_555
C33_2 H42_2 1_555 1_555
N13_2 C36_2 1_555 1_555
N14_2 C37_2 1_555 1_555
C36_2 C38_2 1_555 1_555
C37_2 N13_2 1_555 1_555
C38_2 N14_2 1_555 1_555
C39_2 C40_2 1_555 1_555
C42_2 N14_2 1_555 1_555
C39_2 C41_2 1_555 1_555
C39_2 C42_2 1_555 1_555
C36_2 H30_2 1_555 1_555
C41_2 H32_2 1_555 1_555
C38_2 H33_2 1_555 1_555
C42_2 H34_2 1_555 1_555
C42_2 H35_2 1_555 1_555
C40_2 H39_2 1_555 1_555
N13_2 H43_2 1_555 1_555
C37_2 H44_2 1_555 1_555
N11_3 C29_3 1_555 1_555
N12_3 C30_3 1_555 1_555
C29_3 C31_3 1_555 1_555
C30_3 N11_3 1_555 1_555
C31_3 N12_3 1_555 1_555
C32_3 C33_3 1_555 1_555
C33_3 C40_3 1_555 1_555
C34_3 C32_3 1_555 1_555
C35_3 N12_3 1_555 1_555
N13_3 C36_3 1_555 1_555
N14_3 C37_3 1_555 1_555
C36_3 C38_3 1_555 1_555
C37_3 N13_3 1_555 1_555
C38_3 N14_3 1_555 1_555
C39_3 C40_3 1_555 1_555
C41_3 C34_3 1_555 1_555
C42_3 N14_3 1_555 1_555
C32_3 C35_3 1_555 1_555
C39_3 C41_3 1_555 1_555
C39_3 C42_3 1_555 1_555
C29_3 H29_3 1_555 1_555
C36_3 H30_3 1_555 1_555
C31_3 H31_3 1_555 1_555
C41_3 H32_3 1_555 1_555
C38_3 H33_3 1_555 1_555
C42_3 H34_3 1_555 1_555
C42_3 H35_3 1_555 1_555
N11_3 H36_3 1_555 1_555
C35_3 H37_3 1_555 1_555
C35_3 H38_3 1_555 1_555
C40_3 H39_3 1_555 1_555
C30_3 H40_3 1_555 1_555
C34_3 H41_3 1_555 1_555
C33_3 H42_3 1_555 1_555
N13_3 H43_3 1_555 1_555
C37_3 H44_3 1_555 1_555
N13_4 C36_4 1_555 1_555
N14_4 C37_4 1_555 1_555
C36_4 C38_4 1_555 1_555
C37_4 N13_4 1_555 1_555
C38_4 N14_4 1_555 1_555
C39_4 C40_4 1_555 1_555
C42_4 N14_4 1_555 1_555
C39_4 C41_4 1_555 1_555
C39_4 C42_4 1_555 1_555
C36_4 H30_4 1_555 1_555
C41_4 H32_4 1_555 1_555
C38_4 H33_4 1_555 1_555
C42_4 H34_4 1_555 1_555
C42_4 H35_4 1_555 1_555
C40_4 H39_4 1_555 1_555
N13_4 H43_4 1_555 1_555
C37_4 H44_4 1_555 1_555
N11_4 C29_4 1_555 1_555
N12_4 C30_4 1_555 1_555
C29_4 C31_4 1_555 1_555
C30_4 N11_4 1_555 1_555
C31_4 N12_4 1_555 1_555
C32_4 C33_4 1_555 1_555
C34_4 C32_4 1_555 1_555
C35_4 N12_4 1_555 1_555
C32_4 C35_4 1_555 1_555
C29_4 H29_4 1_555 1_555
C31_4 H31_4 1_555 1_555
N11_4 H36_4 1_555 1_555
C35_4 H37_4 1_555 1_555
C35_4 H38_4 1_555 1_555
C30_4 H40_4 1_555 1_555
C34_4 H41_4 1_555 1_555
C33_4 H42_4 1_555 1_555

#END
