
###############################################################################
#
# This file contains modified crystal structure data generated from the
# MOF subset of the Cambridge Structural Database (CSD) v543 
# hosted by the Cambridge Crystallographic Data Centre (CCDC).
#
# This work is licensed under the Creative Commons
# Attribution-NonCommercial-ShareAlike 4.0 International License.
# To view a copy of this license, visit
# http://creativecommons.org/licenses/by-nc-sa/4.0/
# or send a letter to
# Creative Commons, PO Box 1866, Mountain View, CA 94042, USA.
#
# CIF created using the CSD Python API on 29 September 2022
# The structure has been converted into the P1 space group
# The structure has a 3D framework
# The original CSD entry NILGIA is in the orthorhombic crystal system
# The framework has been calculated to contain at least 10.0% void space
# The void calculation uses a probe of radius 1.32A, grid spacing 0.4
# H atom positions have been added when not included in the experimental data
#
###############################################################################

data_NILGIA
_chemical_formula_moiety         '(C168 H176 N48 Ni9 O160 V6 W48)n'
_symmetry_cell_setting           triclinic
_symmetry_space_group_name_H-M   'P 1'
_symmetry_Int_Tables_number      1
_space_group_name_Hall           'P 1'
loop_
_symmetry_equiv_pos_site_id
_symmetry_equiv_pos_as_xyz
1 x,y,z
_cell_length_a                   22.000(4)
_cell_length_b                   15.000(3)
_cell_length_c                   24.000(5)
_cell_angle_alpha                90
_cell_angle_beta                 90
_cell_angle_gamma                90
_cell_volume                     7920
loop_
_atom_site_label
_atom_site_type_symbol
_atom_site_fract_x
_atom_site_fract_y
_atom_site_fract_z
O3 O 0.1675(7) 0.0057(10) 0.2394(6)
O21 O 0.0297(7) 0.0063(10) 0.4011(6)
Ni3 Ni 0.5000 0.0000 0.0000
Ni3_2 Ni 0.5000 -0.0000 1.0000
W4 W 0.09738(4) 0.77473(5) 0.13452(3)
W6 W 0.11132(4) 0.93056(5) 0.23197(4)
V1 V -0.0000 0.7643(4) 0.2500
Ni1 Ni 0.0000 0.5000 0.0000
O4 O 0.1437(6) 0.7534(9) 0.0793(5)
O6 O 0.0590(6) 0.9912(9) 0.1802(6)
O8 O 0.0370(5) 0.8267(8) 0.2070(5)
O12 O 0.0476(6) 0.8635(8) 0.1024(5)
O17 O 0.0325(5) 0.6928(8) 0.1235(5)
O19 O 0.1436(5) 0.8644(8) 0.1703(5)
W7 W 0.11109(4) 0.60022(5) 0.24171(3)
W8 W 0.01972(4) 0.60077(5) 0.35248(3)
W9 W 0.12590(4) 0.75727(5) 0.33956(3)
W11 W 0.00818(4) 0.93075(6) 0.35246(3)
O22 O 0.1848(7) 0.7780(10) 0.3823(6)
O25 O 0.0574(6) 0.9612(9) 0.2894(6)
O27 O 0.0469(5) 0.7020(8) 0.2840(5)
O29 O 0.0129(5) 0.5304(9) 0.4084(5)
O30 O 0.0430(5) 0.5669(8) 0.1972(5)
O31 O 0.1639(6) 0.5227(9) 0.2226(6)
O33 O 0.0755(5) 0.5404(8) 0.3047(5)
O34 O 0.1610(5) 0.6679(8) 0.2933(5)
O35 O 0.0864(5) 0.6669(8) 0.3814(5)
O36 O 0.1264(5) 0.6910(8) 0.1883(5)
O38 O 0.0676(6) 0.8393(9) 0.3658(5)
O40 O 0.1412(6) 0.8394(9) 0.2804(5)
N5 N 0.0927(7) 0.4967(11) 0.0138(7)
N6 N 0.1796(7) 0.5205(11) 0.0602(7)
N7 N 0.4829(7) 0.7246(11) 0.0258(7)
N8 N 0.5032(7) 0.8657(10) 0.0226(6)
C15 C 0.1203(9) 0.5451(15) 0.0522(9)
H15 H 0.1014 0.5910 0.0718
C16 C 0.2190(9) 0.5568(15) 0.1000(9)
H16 H 0.2010 0.6108 0.1150
H17 H 0.2236 0.5148 0.1304
C18 C 0.1872(10) 0.4482(16) 0.0245(10)
H19 H 0.2221 0.4135 0.0212
C19 C 0.3955(8) 0.6206(13) 0.0324(8)
C21 C 0.5106(10) 0.7472(15) 0.0737(9)
H21 H 0.5204 0.7094 0.1030
C22 C 0.4569(10) 0.6402(15) 0.0057(9)
H23 H 0.4848 0.5919 0.0140
C23 C 0.3835(10) 0.5371(15) 0.0525(10)
H24 H 0.4136 0.4936 0.0514
C24 C 0.2813(9) 0.5787(16) 0.0763(9)
C25 C 0.3260(9) 0.5164(15) 0.0748(9)
H25 H 0.3186 0.4595 0.0886
C26 C 0.2934(10) 0.6625(14) 0.0564(9)
H26 H 0.2635 0.7063 0.0576
C27 C 0.3499(9) 0.6823(14) 0.0346(9)
H27 H 0.3571 0.7393 0.0210
C28 C 0.5211(10) 0.8326(15) 0.0708(9)
H28 H 0.5389 0.8660 0.0990
Ni3_3 Ni 0.5000 1.0000 0.0000
Ni4 Ni 0.0000 0.5000 0.5000
Ni1_2 Ni 0.0000 0.5000 1.0000
C17 C 0.1346(10) 0.4373(16) 0.9954(12)
H18 H 0.1284 0.3957 0.9672
C20 C 0.4797(10) 0.8011(15) 0.9939(8)
H20 H 0.4636 0.8055 0.9582
H22 H 0.4521 0.6431 0.9656
Ni3_4 Ni 0.5000 1.0000 1.0000
O41 O 0.0129(5) 0.4696(9) 0.9084(5)
N10 N 0.0032(7) 0.6343(10) 0.9774(6)
O1 O 0.9703(7) 0.0063(10) 0.0989(6)
O23 O 0.8325(7) 0.0057(10) 0.2606(6)
W1 W 0.88891(4) 0.60022(5) 0.25829(3)
W2 W 0.98028(4) 0.60077(5) 0.14752(3)
W3 W 0.87410(4) 0.75727(5) 0.16044(3)
W5 W 0.99182(4) 0.93075(6) 0.14754(3)
V1_2 V 1.0000 0.7643(4) 0.2500
Ni1_3 Ni 1.0000 0.5000 0.0000
O2 O 0.8152(7) 0.7780(10) 0.1177(6)
O5 O 0.9426(6) 0.9612(9) 0.2106(6)
O7 O 0.9531(5) 0.7020(8) 0.2160(5)
O9 O 0.9871(5) 0.5304(9) 0.0916(5)
O10 O 0.9570(5) 0.5669(8) 0.3028(5)
O11 O 0.8361(6) 0.5227(9) 0.2774(6)
O13 O 0.9245(5) 0.5404(8) 0.1953(5)
O14 O 0.8390(5) 0.6679(8) 0.2067(5)
O15 O 0.9136(5) 0.6669(8) 0.1186(5)
O16 O 0.8736(5) 0.6910(8) 0.3117(5)
O18 O 0.9324(6) 0.8393(9) 0.1342(5)
O20 O 0.8588(6) 0.8394(9) 0.2196(5)
C3 C 0.8654(10) 0.5627(16) 0.0046(12)
H4 H 0.8716 0.6043 0.0328
C6 C 0.5203(10) 0.1989(15) 0.0061(8)
H6 H 0.5364 0.1945 0.0418
H8 H 0.5479 0.3569 0.0344
W10 W 0.90262(4) 0.77473(5) 0.36548(3)
W12 W 0.88868(4) 0.93056(5) 0.26803(4)
O24 O 0.8563(6) 0.7534(9) 0.4207(5)
O26 O 0.9410(6) 0.9912(9) 0.3198(6)
O28 O 0.9630(5) 0.8267(8) 0.2930(5)
O32 O 0.9524(6) 0.8635(8) 0.3976(5)
O37 O 0.9675(5) 0.6928(8) 0.3765(5)
O39 O 0.8564(5) 0.8644(8) 0.3297(5)
Ni4_2 Ni 1.0000 0.5000 0.5000
N9 N 0.9968(7) 0.3657(10) 0.0226(6)
Ni1_4 Ni 1.0000 0.5000 1.0000
N1 N 0.9073(7) 0.5033(11) 0.9862(7)
N2 N 0.8204(7) 0.4795(11) 0.9398(7)
N3 N 0.5171(7) 0.2754(11) 0.9742(7)
N4 N 0.4968(7) 0.1343(10) 0.9774(6)
C1 C 0.8797(9) 0.4549(15) 0.9478(9)
H1 H 0.8986 0.4090 0.9282
C2 C 0.7810(9) 0.4432(15) 0.9000(9)
H2 H 0.7990 0.3892 0.8850
H3 H 0.7764 0.4852 0.8696
C4 C 0.8128(10) 0.5518(16) 0.9755(10)
H5 H 0.7779 0.5865 0.9788
C5 C 0.6045(8) 0.3794(13) 0.9676(8)
C7 C 0.4894(10) 0.2528(15) 0.9263(9)
H7 H 0.4796 0.2906 0.8970
C8 C 0.5431(10) 0.3598(15) 0.9943(9)
H9 H 0.5152 0.4081 0.9860
C9 C 0.6165(10) 0.4629(15) 0.9475(10)
H10 H 0.5864 0.5064 0.9486
C10 C 0.7187(9) 0.4213(16) 0.9237(9)
C11 C 0.6740(9) 0.4836(15) 0.9252(9)
H11 H 0.6814 0.5405 0.9114
C12 C 0.7066(10) 0.3375(14) 0.9436(9)
H12 H 0.7365 0.2937 0.9424
C13 C 0.6501(9) 0.3177(14) 0.9654(9)
H13 H 0.6429 0.2607 0.9790
C14 C 0.4789(10) 0.1674(15) 0.9292(9)
H14 H 0.4611 0.1340 0.9010
N4_2 N 0.0032(7) 0.3657(10) 0.4774(6)
C7_2 C 0.0106(10) 0.2472(15) 0.4263(9)
H7_2 H 0.0204 0.2094 0.3970
C14_2 C 0.0211(10) 0.3326(15) 0.4292(9)
H14_2 H 0.0389 0.3660 0.4010
Ni1_5 Ni 0.5000 -0.0000 0.5000
N2_2 N 0.6796(7) 0.0205(11) 0.4398(7)
N3_2 N 0.9829(7) 0.2246(11) 0.4742(7)
C1_2 C 0.6203(9) 0.0451(15) 0.4478(9)
H1_2 H 0.6014 0.0910 0.4282
C2_2 C 0.7190(9) 0.0568(15) 0.4000(9)
H2_2 H 0.7010 0.1108 0.3850
H3_2 H 0.7236 0.0148 0.3696
C5_2 C 0.8955(8) 0.1206(13) 0.4676(8)
C6_2 C 0.9797(10) 0.3011(15) 0.5061(8)
H6_2 H 0.9636 0.3055 0.5418
C8_2 C 0.9569(10) 0.1402(15) 0.4943(9)
H8_2 H 0.9521 0.1431 0.5344
H9_2 H 0.9848 0.0919 0.4860
C9_2 C 0.8835(10) 0.0371(15) 0.4475(10)
C10_2 C 0.7813(9) 0.0787(16) 0.4237(9)
C11_2 C 0.8260(9) 0.0164(15) 0.4252(9)
C12_2 C 0.7934(10) 0.1625(14) 0.4436(9)
H12_2 H 0.7635 0.2063 0.4424
C13_2 C 0.8499(9) 0.1823(14) 0.4654(9)
H13_2 H 0.8571 0.2393 0.4790
N5_2 N 0.4073(7) 0.0033(11) 0.5138(7)
C17_2 C 0.3654(10) 0.0627(16) 0.4954(12)
H18_2 H 0.3716 0.1043 0.4672
C18_2 C 0.3128(10) 0.0518(16) 0.5245(10)
H19_2 H 0.2779 0.0865 0.5212
H24_2 H 0.0864 0.0064 0.5514
H25_2 H 0.1814 0.0405 0.5886
O41_2 O 0.4871(5) 0.0304(9) 0.4084(5)
N9_2 N 0.5032(7) 0.1343(10) 0.5226(6)
W1_2 W 0.61109(4) 0.89978(5) 0.75829(3)
W2_2 W 0.51972(4) 0.89923(5) 0.64752(3)
W3_2 W 0.62590(4) 0.74273(5) 0.66044(3)
W4_2 W 0.40262(4) 0.72527(5) 0.63452(3)
W5_2 W 0.50818(4) 0.56925(6) 0.64754(3)
W6_2 W 0.38868(4) 0.56944(5) 0.73197(4)
V1_3 V 0.5000 0.7357(4) 0.7500
Ni1_6 Ni 0.5000 1.0000 0.5000
O1_2 O 0.5297(7) 0.4937(10) 0.5989(6)
O2_2 O 0.6848(7) 0.7220(10) 0.6177(6)
O3_2 O 0.3325(7) 0.4943(10) 0.7394(6)
O4_2 O 0.3563(6) 0.7466(9) 0.5793(5)
O5_2 O 0.5574(6) 0.5388(9) 0.7106(6)
O6_2 O 0.4410(6) 0.5088(9) 0.6802(6)
O7_2 O 0.5469(5) 0.7980(8) 0.7160(5)
O8_2 O 0.4630(5) 0.6733(8) 0.7070(5)
O9_2 O 0.5129(5) 0.9696(9) 0.5916(5)
O10_2 O 0.5430(5) 0.9331(8) 0.8028(5)
O11_2 O 0.6639(6) 0.9773(9) 0.7774(6)
O12_2 O 0.4524(6) 0.6365(8) 0.6024(5)
O13_2 O 0.5755(5) 0.9596(8) 0.6953(5)
O14_2 O 0.6610(5) 0.8321(8) 0.7067(5)
O15_2 O 0.5864(5) 0.8331(8) 0.6186(5)
O16_2 O 0.6264(5) 0.8090(8) 0.8117(5)
O17_2 O 0.4675(5) 0.8072(8) 0.6235(5)
O18_2 O 0.5676(6) 0.6607(9) 0.6342(5)
O19_2 O 0.3564(5) 0.6356(8) 0.6703(5)
O20_2 O 0.6412(6) 0.6606(9) 0.7196(5)
N1_2 N 0.5927(7) 0.9967(11) 0.4862(7)
C3_2 C 0.6346(10) 0.9373(16) 0.5046(12)
H4_2 H 0.6284 0.8957 0.5328
C4_2 C 0.6872(10) 0.9482(16) 0.4755(10)
H5_2 H 0.7221 0.9135 0.4788
H10_2 H 0.9136 0.9936 0.4486
H11_2 H 0.8186 0.9595 0.4114
W7_2 W 0.38891(4) 0.89978(5) 0.74171(3)
W8_2 W 0.48028(4) 0.89923(5) 0.85248(3)
W9_2 W 0.37410(4) 0.74273(5) 0.83956(3)
W10_2 W 0.59738(4) 0.72527(5) 0.86548(3)
W11_2 W 0.49182(4) 0.56925(6) 0.85246(3)
W12_2 W 0.61132(4) 0.56944(5) 0.76803(4)
O21_2 O 0.4703(7) 0.4937(10) 0.9011(6)
O22_2 O 0.3152(7) 0.7220(10) 0.8823(6)
O23_2 O 0.6675(7) 0.4943(10) 0.7606(6)
O24_2 O 0.6437(6) 0.7466(9) 0.9207(5)
O25_2 O 0.4426(6) 0.5388(9) 0.7894(6)
O26_2 O 0.5590(6) 0.5088(9) 0.8198(6)
O27_2 O 0.4531(5) 0.7980(8) 0.7840(5)
O28_2 O 0.5370(5) 0.6733(8) 0.7930(5)
O29_2 O 0.4871(5) 0.9696(9) 0.9084(5)
O30_2 O 0.4570(5) 0.9331(8) 0.6972(5)
O31_2 O 0.3361(6) 0.9773(9) 0.7226(6)
O32_2 O 0.5476(6) 0.6365(8) 0.8976(5)
O33_2 O 0.4245(5) 0.9596(8) 0.8047(5)
O34_2 O 0.3390(5) 0.8321(8) 0.7933(5)
O35_2 O 0.4136(5) 0.8331(8) 0.8814(5)
O36_2 O 0.3736(5) 0.8090(8) 0.6883(5)
O37_2 O 0.5325(5) 0.8072(8) 0.8765(5)
O38_2 O 0.4324(6) 0.6607(9) 0.8658(5)
O39_2 O 0.6436(5) 0.6356(8) 0.8297(5)
O40_2 O 0.3588(6) 0.6606(9) 0.7804(5)
N6_2 N 0.3204(7) 0.9795(11) 0.5602(7)
N7_2 N 0.0171(7) 0.7754(11) 0.5258(7)
C15_2 C 0.3797(9) 0.9549(15) 0.5522(9)
H15_2 H 0.3986 0.9090 0.5718
C16_2 C 0.2810(9) 0.9432(15) 0.6000(9)
H16_2 H 0.2990 0.8892 0.6150
H17_2 H 0.2764 0.9852 0.6304
C19_2 C 0.1045(8) 0.8794(13) 0.5324(8)
C20_2 C 0.0203(10) 0.6989(15) 0.4939(8)
H20_2 H 0.0364 0.6945 0.4582
C22_2 C 0.0431(10) 0.8598(15) 0.5057(9)
H22_2 H 0.0479 0.8569 0.4656
H23_2 H 0.0152 0.9081 0.5140
C23_2 C 0.1165(10) 0.9629(15) 0.5525(10)
C24_2 C 0.2187(9) 0.9213(16) 0.5763(9)
C25_2 C 0.1740(9) 0.9836(15) 0.5748(9)
C26_2 C 0.2066(10) 0.8375(14) 0.5564(9)
H26_2 H 0.2365 0.7937 0.5576
C27_2 C 0.1501(9) 0.8177(14) 0.5346(9)
H27_2 H 0.1429 0.7607 0.5210
N10_2 N 0.4968(7) 0.8657(10) 0.4774(6)
N8_2 N 0.9968(7) 0.6343(10) 0.5226(6)
C21_2 C 0.9894(10) 0.7528(15) 0.5737(9)
H21_2 H 0.9796 0.7906 0.6030
C28_2 C 0.9789(10) 0.6674(15) 0.5708(9)
H28_2 H 0.9611 0.6340 0.5990
C21_3 C 0.0106(10) 0.7528(15) 0.9263(9)
H21_3 H 0.0204 0.7906 0.8970
C28_3 C 0.0211(10) 0.6674(15) 0.9292(9)
H28_3 H 0.0389 0.6340 0.9010
N2_3 N 0.3204(7) 0.0205(11) 0.0602(7)
N3_3 N 0.0171(7) 0.2246(11) 0.0258(7)
C1_3 C 0.3797(9) 0.0451(15) 0.0522(9)
H1_3 H 0.3986 0.0910 0.0718
C2_3 C 0.2810(9) 0.0568(15) 0.1000(9)
H2_3 H 0.2990 0.1108 0.1150
H3_3 H 0.2764 0.0148 0.1304
C5_3 C 0.1045(8) 0.1206(13) 0.0324(8)
C8_3 C 0.0431(10) 0.1402(15) 0.0057(9)
H9_3 H 0.0152 0.0919 0.0140
C9_3 C 0.1165(10) 0.0371(15) 0.0525(10)
C10_3 C 0.2187(9) 0.0787(16) 0.0763(9)
C11_3 C 0.1740(9) 0.0164(15) 0.0748(9)
C12_3 C 0.2066(10) 0.1625(14) 0.0564(9)
H12_3 H 0.2365 0.2063 0.0576
C13_3 C 0.1501(9) 0.1823(14) 0.0346(9)
H13_3 H 0.1429 0.2393 0.0210
C17_3 C 0.6346(10) 0.0627(16) 0.0046(12)
H18_3 H 0.6284 0.1043 0.0328
O41_3 O 0.5129(5) 0.0304(9) 0.0916(5)
C6_3 C 0.0203(10) 0.3011(15) 0.9939(8)
H6_3 H 0.0364 0.3055 0.9582
H8_3 H 0.0479 0.1431 0.9656
N5_3 N 0.5927(7) 0.0033(11) 0.9862(7)
C18_3 C 0.6872(10) 0.0518(16) 0.9755(10)
H19_3 H 0.7221 0.0865 0.9788
H24_3 H 0.9136 0.0064 0.9486
H25_3 H 0.8186 0.0405 0.9114
N1_3 N 0.4073(7) 0.9967(11) 0.0138(7)
C4_3 C 0.3128(10) 0.9482(16) 0.0245(10)
H5_3 H 0.2779 0.9135 0.0212
H10_3 H 0.0864 0.9936 0.0514
H11_3 H 0.1814 0.9595 0.0886
C20_3 C 0.9797(10) 0.6989(15) 0.0061(8)
H20_3 H 0.9636 0.6945 0.0418
H22_3 H 0.9521 0.8569 0.0344
C3_3 C 0.3654(10) 0.9373(16) 0.9954(12)
H4_3 H 0.3716 0.8957 0.9672
N6_3 N 0.6796(7) 0.9795(11) 0.9398(7)
N7_3 N 0.9829(7) 0.7754(11) 0.9742(7)
C15_3 C 0.6203(9) 0.9549(15) 0.9478(9)
H15_3 H 0.6014 0.9090 0.9282
C16_3 C 0.7190(9) 0.9432(15) 0.9000(9)
H16_3 H 0.7010 0.8892 0.8850
H17_3 H 0.7236 0.9852 0.8696
C19_3 C 0.8955(8) 0.8794(13) 0.9676(8)
C22_3 C 0.9569(10) 0.8598(15) 0.9943(9)
H23_3 H 0.9848 0.9081 0.9860
C23_3 C 0.8835(10) 0.9629(15) 0.9475(10)
C24_3 C 0.7813(9) 0.9213(16) 0.9237(9)
C25_3 C 0.8260(9) 0.9836(15) 0.9252(9)
C26_3 C 0.7934(10) 0.8375(14) 0.9436(9)
H26_3 H 0.7635 0.7937 0.9424
C27_3 C 0.8499(9) 0.8177(14) 0.9654(9)
H27_3 H 0.8571 0.7607 0.9790
C7_3 C 0.9894(10) 0.2472(15) 0.0737(9)
H7_3 H 0.9796 0.2094 0.1030
C14_3 C 0.9789(10) 0.3326(15) 0.0708(9)
H14_3 H 0.9611 0.3660 0.0990
N1_4 N 0.0927(7) 0.5033(11) 0.5138(7)
N2_4 N 0.1796(7) 0.4795(11) 0.5602(7)
N3_4 N 0.4829(7) 0.2754(11) 0.5258(7)
C1_4 C 0.1203(9) 0.4549(15) 0.5522(9)
H1_4 H 0.1014 0.4090 0.5718
C2_4 C 0.2190(9) 0.4432(15) 0.6000(9)
H2_4 H 0.2010 0.3892 0.6150
H3_4 H 0.2236 0.4852 0.6304
C3_4 C 0.1346(10) 0.5627(16) 0.4954(12)
H4_4 H 0.1284 0.6043 0.4672
C4_4 C 0.1872(10) 0.5518(16) 0.5245(10)
H5_4 H 0.2221 0.5865 0.5212
C5_4 C 0.3955(8) 0.3794(13) 0.5324(8)
C6_4 C 0.4797(10) 0.1989(15) 0.4939(8)
H6_4 H 0.4636 0.1945 0.4582
C7_4 C 0.5106(10) 0.2528(15) 0.5737(9)
H7_4 H 0.5204 0.2906 0.6030
C8_4 C 0.4569(10) 0.3598(15) 0.5057(9)
H8_4 H 0.4521 0.3569 0.4656
H9_4 H 0.4848 0.4081 0.5140
C9_4 C 0.3835(10) 0.4629(15) 0.5525(10)
H10_4 H 0.4136 0.5064 0.5514
C10_4 C 0.2813(9) 0.4213(16) 0.5763(9)
C11_4 C 0.3260(9) 0.4836(15) 0.5748(9)
H11_4 H 0.3186 0.5405 0.5886
C12_4 C 0.2934(10) 0.3375(14) 0.5564(9)
H12_4 H 0.2635 0.2937 0.5576
C13_4 C 0.3499(9) 0.3177(14) 0.5346(9)
H13_4 H 0.3571 0.2607 0.5210
C14_4 C 0.5211(10) 0.1674(15) 0.5708(9)
H14_4 H 0.5389 0.1340 0.5990
N5_4 N 0.9073(7) 0.4967(11) 0.4862(7)
N6_4 N 0.8204(7) 0.5205(11) 0.4398(7)
N7_4 N 0.5171(7) 0.7246(11) 0.4742(7)
C15_4 C 0.8797(9) 0.5451(15) 0.4478(9)
H15_4 H 0.8986 0.5910 0.4282
C16_4 C 0.7810(9) 0.5568(15) 0.4000(9)
H16_4 H 0.7990 0.6108 0.3850
H17_4 H 0.7764 0.5148 0.3696
C17_4 C 0.8654(10) 0.4373(16) 0.5046(12)
H18_4 H 0.8716 0.3957 0.5328
C18_4 C 0.8128(10) 0.4482(16) 0.4755(10)
H19_4 H 0.7779 0.4135 0.4788
C19_4 C 0.6045(8) 0.6206(13) 0.4676(8)
C20_4 C 0.5203(10) 0.8011(15) 0.5061(8)
H20_4 H 0.5364 0.8055 0.5418
C21_4 C 0.4894(10) 0.7472(15) 0.4263(9)
H21_4 H 0.4796 0.7094 0.3970
C22_4 C 0.5431(10) 0.6402(15) 0.4943(9)
H22_4 H 0.5479 0.6431 0.5344
H23_4 H 0.5152 0.5919 0.4860
C23_4 C 0.6165(10) 0.5371(15) 0.4475(10)
H24_4 H 0.5864 0.4936 0.4486
C24_4 C 0.7187(9) 0.5787(16) 0.4237(9)
C25_4 C 0.6740(9) 0.5164(15) 0.4252(9)
H25_4 H 0.6814 0.4595 0.4114
C26_4 C 0.7066(10) 0.6625(14) 0.4436(9)
H26_4 H 0.7365 0.7063 0.4424
C27_4 C 0.6501(9) 0.6823(14) 0.4654(9)
H27_4 H 0.6429 0.7393 0.4790
C28_4 C 0.4789(10) 0.8326(15) 0.4292(9)
H28_4 H 0.4611 0.8660 0.4010
O41_4 O 0.9871(5) 0.4696(9) 0.5916(5)
W1_3 W 0.11109(4) 0.39978(5) 0.74171(3)
W2_3 W 0.01972(4) 0.39923(5) 0.85248(3)
W3_3 W 0.12590(4) 0.24273(5) 0.83956(3)
W5_3 W 0.00818(4) 0.06925(6) 0.85246(3)
V1_4 V 0.0000 0.2357(4) 0.7500
O2_3 O 0.1848(7) 0.2220(10) 0.8823(6)
O5_3 O 0.0574(6) 0.0388(9) 0.7894(6)
O7_3 O 0.0469(5) 0.2980(8) 0.7840(5)
O10_3 O 0.0430(5) 0.4331(8) 0.6972(5)
O11_3 O 0.1639(6) 0.4773(9) 0.7226(6)
O13_3 O 0.0755(5) 0.4596(8) 0.8047(5)
O14_3 O 0.1610(5) 0.3321(8) 0.7933(5)
O15_3 O 0.0864(5) 0.3331(8) 0.8814(5)
O16_3 O 0.1264(5) 0.3090(8) 0.6883(5)
O18_3 O 0.0676(6) 0.1607(9) 0.8658(5)
O20_3 O 0.1412(6) 0.1606(9) 0.7804(5)
W10_3 W 0.09738(4) 0.22527(5) 0.63452(3)
W12_3 W 0.11132(4) 0.06944(5) 0.73197(4)
O24_3 O 0.1437(6) 0.2466(9) 0.5793(5)
O26_3 O 0.0590(6) 0.0088(9) 0.6802(6)
O28_3 O 0.0370(5) 0.1733(8) 0.7070(5)
O32_3 O 0.0476(6) 0.1365(8) 0.6024(5)
O37_3 O 0.0325(5) 0.3072(8) 0.6235(5)
O39_3 O 0.1436(5) 0.1356(8) 0.6703(5)
O1_3 O 0.0297(7) 0.9937(10) 0.9011(6)
O23_3 O 0.1675(7) 0.9943(10) 0.7394(6)
W4_3 W 0.90262(4) 0.22527(5) 0.86548(3)
W6_3 W 0.88868(4) 0.06944(5) 0.76803(4)
V1_5 V 1.0000 0.2357(4) 0.7500
O4_3 O 0.8563(6) 0.2466(9) 0.9207(5)
O6_3 O 0.9410(6) 0.0088(9) 0.8198(6)
O8_3 O 0.9630(5) 0.1733(8) 0.7930(5)
O12_3 O 0.9524(6) 0.1365(8) 0.8976(5)
O17_3 O 0.9675(5) 0.3072(8) 0.8765(5)
O19_3 O 0.8564(5) 0.1356(8) 0.8297(5)
W7_3 W 0.88891(4) 0.39978(5) 0.75829(3)
W8_3 W 0.98028(4) 0.39923(5) 0.64752(3)
W9_3 W 0.87410(4) 0.24273(5) 0.66044(3)
W11_3 W 0.99182(4) 0.06925(6) 0.64754(3)
O22_3 O 0.8152(7) 0.2220(10) 0.6177(6)
O25_3 O 0.9426(6) 0.0388(9) 0.7106(6)
O27_3 O 0.9531(5) 0.2980(8) 0.7160(5)
O30_3 O 0.9570(5) 0.4331(8) 0.8028(5)
O31_3 O 0.8361(6) 0.4773(9) 0.7774(6)
O33_3 O 0.9245(5) 0.4596(8) 0.6953(5)
O34_3 O 0.8390(5) 0.3321(8) 0.7067(5)
O35_3 O 0.9136(5) 0.3331(8) 0.6186(5)
O36_3 O 0.8736(5) 0.3090(8) 0.8117(5)
O38_3 O 0.9324(6) 0.1607(9) 0.6342(5)
O40_3 O 0.8588(6) 0.1606(9) 0.7196(5)
O3_3 O 0.8325(7) 0.9943(10) 0.7606(6)
O21_3 O 0.9703(7) 0.9937(10) 0.5989(6)
W1_4 W 0.38891(4) 0.10022(5) 0.24171(3)
W2_4 W 0.48028(4) 0.10077(5) 0.35248(3)
W3_4 W 0.37410(4) 0.25727(5) 0.33956(3)
W4_4 W 0.59738(4) 0.27473(5) 0.36548(3)
W5_4 W 0.49182(4) 0.43075(6) 0.35246(3)
W6_4 W 0.61132(4) 0.43056(5) 0.26803(4)
V1_6 V 0.5000 0.2643(4) 0.2500
O1_4 O 0.4703(7) 0.5063(10) 0.4011(6)
O2_4 O 0.3152(7) 0.2780(10) 0.3823(6)
O3_4 O 0.6675(7) 0.5057(10) 0.2606(6)
O4_4 O 0.6437(6) 0.2534(9) 0.4207(5)
O5_4 O 0.4426(6) 0.4612(9) 0.2894(6)
O6_4 O 0.5590(6) 0.4912(9) 0.3198(6)
O7_4 O 0.4531(5) 0.2020(8) 0.2840(5)
O8_4 O 0.5370(5) 0.3267(8) 0.2930(5)
O10_4 O 0.4570(5) 0.0669(8) 0.1972(5)
O11_4 O 0.3361(6) 0.0227(9) 0.2226(6)
O12_4 O 0.5476(6) 0.3635(8) 0.3976(5)
O13_4 O 0.4245(5) 0.0404(8) 0.3047(5)
O14_4 O 0.3390(5) 0.1679(8) 0.2933(5)
O15_4 O 0.4136(5) 0.1669(8) 0.3814(5)
O16_4 O 0.3736(5) 0.1910(8) 0.1883(5)
O17_4 O 0.5325(5) 0.1928(8) 0.3765(5)
O18_4 O 0.4324(6) 0.3393(9) 0.3658(5)
O19_4 O 0.6436(5) 0.3644(8) 0.3297(5)
O20_4 O 0.3588(6) 0.3394(9) 0.2804(5)
W7_4 W 0.61109(4) 0.10022(5) 0.25829(3)
W8_4 W 0.51972(4) 0.10077(5) 0.14752(3)
W9_4 W 0.62590(4) 0.25727(5) 0.16044(3)
W10_4 W 0.40262(4) 0.27473(5) 0.13452(3)
W11_4 W 0.50818(4) 0.43075(6) 0.14754(3)
W12_4 W 0.38868(4) 0.43056(5) 0.23197(4)
O21_4 O 0.5297(7) 0.5063(10) 0.0989(6)
O22_4 O 0.6848(7) 0.2780(10) 0.1177(6)
O23_4 O 0.3325(7) 0.5057(10) 0.2394(6)
O24_4 O 0.3563(6) 0.2534(9) 0.0793(5)
O25_4 O 0.5574(6) 0.4612(9) 0.2106(6)
O26_4 O 0.4410(6) 0.4912(9) 0.1802(6)
O27_4 O 0.5469(5) 0.2020(8) 0.2160(5)
O28_4 O 0.4630(5) 0.3267(8) 0.2070(5)
O30_4 O 0.5430(5) 0.0669(8) 0.3028(5)
O31_4 O 0.6639(6) 0.0227(9) 0.2774(6)
O32_4 O 0.4524(6) 0.3635(8) 0.1024(5)
O33_4 O 0.5755(5) 0.0404(8) 0.1953(5)
O34_4 O 0.6610(5) 0.1679(8) 0.2067(5)
O35_4 O 0.5864(5) 0.1669(8) 0.1186(5)
O36_4 O 0.6264(5) 0.1910(8) 0.3117(5)
O37_4 O 0.4675(5) 0.1928(8) 0.1235(5)
O38_4 O 0.5676(6) 0.3393(9) 0.1342(5)
O39_4 O 0.3564(5) 0.3644(8) 0.1703(5)
O40_4 O 0.6412(6) 0.3394(9) 0.2196(5)
N11 N 0.2506(8) 0.7672(13) 0.2229(9)
N12 N 0.3455(9) 0.7765(13) 0.1906(10)
C29 C 0.2826(10) 0.6887(13) 0.2157(15)
H29 H 0.2664 0.6363 0.2300
C30 C 0.2951(18) 0.831(3) 0.2050(17)
H30 H 0.2918 0.8923 0.2033
C31 C 0.4769(14) 0.841(2) 0.2347(14)
H31 H 0.4586 0.8961 0.2278
C32 C 0.3378(12) 0.6847(13) 0.1880(15)
C33 C 0.4497(18) 0.764(2) 0.2093(18)
C34 C 0.478(2) 0.687(3) 0.235(2)
H32 H 0.4614 0.6314 0.2268
C35 C 0.4016(11) 0.812(2) 0.1728(17)
H33 H 0.4030 0.8758 0.1788
H34 H 0.4082 0.7997 0.1336
N13 N 0.7494(8) 0.7672(13) 0.2771(9)
N14 N 0.6545(9) 0.7765(13) 0.3094(10)
C36 C 0.7174(10) 0.6887(13) 0.2843(15)
H35 H 0.7336 0.6363 0.2700
C37 C 0.7049(18) 0.831(3) 0.2950(17)
H36 H 0.7082 0.8923 0.2967
C38 C 0.5231(14) 0.841(2) 0.2653(14)
H37 H 0.5414 0.8961 0.2722
C39 C 0.6622(12) 0.6847(13) 0.3120(15)
C40 C 0.5503(18) 0.764(2) 0.2907(18)
C41 C 0.522(2) 0.687(3) 0.265(2)
H38 H 0.5386 0.6314 0.2732
C42 C 0.5984(11) 0.812(2) 0.3272(17)
H39 H 0.5970 0.8758 0.3212
H40 H 0.5918 0.7997 0.3664
H41 H 0.207594 0.776973 0.236942
H42 H 0.364782 0.630413 0.170797
H43 H 0.792406 0.776973 0.263058
H44 H 0.635218 0.630413 0.329203
N11_2 N 0.2494(8) 0.7328(13) 0.7229(9)
N12_2 N 0.1545(9) 0.7235(13) 0.6906(10)
C29_2 C 0.2174(10) 0.8113(13) 0.7157(15)
H29_2 H 0.2336 0.8637 0.7300
C30_2 C 0.2049(18) 0.669(3) 0.7050(17)
H30_2 H 0.2082 0.6077 0.7033
C31_2 C 0.0231(14) 0.659(2) 0.7347(14)
H31_2 H 0.0414 0.6039 0.7278
C32_2 C 0.1622(12) 0.8153(13) 0.6880(15)
C33_2 C 0.0503(18) 0.736(2) 0.7093(18)
C34_2 C 0.022(2) 0.813(3) 0.735(2)
H32_2 H 0.0386 0.8686 0.7268
C35_2 C 0.0984(11) 0.688(2) 0.6728(17)
H33_2 H 0.0970 0.6242 0.6788
H34_2 H 0.0918 0.7003 0.6336
H41_2 H 0.292406 0.723027 0.736942
H42_2 H 0.135218 0.869587 0.670797
N13_2 N 0.7506(8) 0.7328(13) 0.7771(9)
N14_2 N 0.8455(9) 0.7235(13) 0.8094(10)
C36_2 C 0.7826(10) 0.8113(13) 0.7843(15)
H35_2 H 0.7664 0.8637 0.7700
C37_2 C 0.7951(18) 0.669(3) 0.7950(17)
H36_2 H 0.7918 0.6077 0.7967
C38_2 C 0.9769(14) 0.659(2) 0.7653(14)
H37_2 H 0.9586 0.6039 0.7722
C39_2 C 0.8378(12) 0.8153(13) 0.8120(15)
C40_2 C 0.9497(18) 0.736(2) 0.7907(18)
C41_2 C 0.978(2) 0.813(3) 0.765(2)
H38_2 H 0.9614 0.8686 0.7732
C42_2 C 0.9016(11) 0.688(2) 0.8272(17)
H39_2 H 0.9030 0.6242 0.8212
H40_2 H 0.9082 0.7003 0.8664
H43_2 H 0.707594 0.723027 0.763058
H44_2 H 0.864782 0.869587 0.829203
N11_3 N 0.7494(8) 0.2328(13) 0.7771(9)
N12_3 N 0.6545(9) 0.2235(13) 0.8094(10)
C29_3 C 0.7174(10) 0.3113(13) 0.7843(15)
H29_3 H 0.7336 0.3637 0.7700
C30_3 C 0.7049(18) 0.169(3) 0.7950(17)
H30_3 H 0.7082 0.1077 0.7967
C31_3 C 0.5231(14) 0.159(2) 0.7653(14)
H31_3 H 0.5414 0.1039 0.7722
C32_3 C 0.6622(12) 0.3153(13) 0.8120(15)
C33_3 C 0.5503(18) 0.236(2) 0.7907(18)
C34_3 C 0.522(2) 0.313(3) 0.765(2)
H32_3 H 0.5386 0.3686 0.7732
C35_3 C 0.5984(11) 0.188(2) 0.8272(17)
H33_3 H 0.5970 0.1242 0.8212
H34_3 H 0.5918 0.2003 0.8664
N13_3 N 0.2506(8) 0.2328(13) 0.7229(9)
N14_3 N 0.3455(9) 0.2235(13) 0.6906(10)
C36_3 C 0.2826(10) 0.3113(13) 0.7157(15)
H35_3 H 0.2664 0.3637 0.7300
C37_3 C 0.2951(18) 0.169(3) 0.7050(17)
H36_3 H 0.2918 0.1077 0.7033
C38_3 C 0.4769(14) 0.159(2) 0.7347(14)
H37_3 H 0.4586 0.1039 0.7278
C39_3 C 0.3378(12) 0.3153(13) 0.6880(15)
C40_3 C 0.4497(18) 0.236(2) 0.7093(18)
C41_3 C 0.478(2) 0.313(3) 0.735(2)
H38_3 H 0.4614 0.3686 0.7268
C42_3 C 0.4016(11) 0.188(2) 0.6728(17)
H39_3 H 0.4030 0.1242 0.6788
H40_3 H 0.4082 0.2003 0.6336
H41_3 H 0.792406 0.223027 0.763058
H42_3 H 0.635218 0.369587 0.829203
H43_3 H 0.207594 0.223027 0.736942
H44_3 H 0.364782 0.369587 0.670797
N13_4 N 0.2494(8) 0.2672(13) 0.2229(9)
N14_4 N 0.1545(9) 0.2765(13) 0.1906(10)
C36_4 C 0.2174(10) 0.1887(13) 0.2157(15)
H35_4 H 0.2336 0.1363 0.2300
C37_4 C 0.2049(18) 0.331(3) 0.2050(17)
H36_4 H 0.2082 0.3923 0.2033
C38_4 C 0.0231(14) 0.341(2) 0.2347(14)
H37_4 H 0.0414 0.3961 0.2278
C39_4 C 0.1622(12) 0.1847(13) 0.1880(15)
C40_4 C 0.0503(18) 0.264(2) 0.2093(18)
C41_4 C 0.022(2) 0.187(3) 0.235(2)
H38_4 H 0.0386 0.1314 0.2268
C42_4 C 0.0984(11) 0.312(2) 0.1728(17)
H39_4 H 0.0970 0.3758 0.1788
H40_4 H 0.0918 0.2997 0.1336
H43_4 H 0.292406 0.276973 0.236942
H44_4 H 0.135218 0.130413 0.170797
N11_4 N 0.7506(8) 0.2672(13) 0.2771(9)
N12_4 N 0.8455(9) 0.2765(13) 0.3094(10)
C29_4 C 0.7826(10) 0.1887(13) 0.2843(15)
H29_4 H 0.7664 0.1363 0.2700
C30_4 C 0.7951(18) 0.331(3) 0.2950(17)
H30_4 H 0.7918 0.3923 0.2967
C31_4 C 0.9769(14) 0.341(2) 0.2653(14)
H31_4 H 0.9586 0.3961 0.2722
C32_4 C 0.8378(12) 0.1847(13) 0.3120(15)
C33_4 C 0.9497(18) 0.264(2) 0.2907(18)
C34_4 C 0.978(2) 0.187(3) 0.265(2)
H32_4 H 0.9614 0.1314 0.2732
C35_4 C 0.9016(11) 0.312(2) 0.3272(17)
H33_4 H 0.9030 0.3758 0.3212
H34_4 H 0.9082 0.2997 0.3664
H41_4 H 0.707594 0.276973 0.263058
H42_4 H 0.864782 0.130413 0.329203
loop_
_geom_bond_atom_site_label_1
_geom_bond_atom_site_label_2
_geom_bond_site_symmetry_1
_geom_bond_site_symmetry_2
W4 O4 1_555 1_555
O8 W4 1_555 1_555
O12 W4 1_555 1_555
O19 W4 1_555 1_555
W7 O27 1_555 1_555
W9 O22 1_555 1_555
O25 W6 1_555 1_555
O27 V1 1_555 1_555
O29 W8 1_555 1_555
O31 W7 1_555 1_555
O33 W7 1_555 1_555
O34 W7 1_555 1_555
O35 W8 1_555 1_555
O36 W4 1_555 1_555
O38 W9 1_555 1_555
O40 W6 1_555 1_555
N5 Ni1 1_555 1_555
N6 C15 1_555 1_555
C15 N5 1_555 1_555
H15 C15 1_555 1_555
C16 N6 1_555 1_555
H16 C16 1_555 1_555
H17 C16 1_555 1_555
C18 N6 1_555 1_555
H19 C18 1_555 1_555
C19 C22 1_555 1_555
C21 N7 1_555 1_555
H21 C21 1_555 1_555
C22 N7 1_555 1_555
H23 C22 1_555 1_555
C23 C19 1_555 1_555
H24 C23 1_555 1_555
C24 C16 1_555 1_555
C25 C23 1_555 1_555
H25 C25 1_555 1_555
C26 C24 1_555 1_555
H26 C26 1_555 1_555
C27 C19 1_555 1_555
H27 C27 1_555 1_555
C28 N8 1_555 1_555
H28 C28 1_555 1_555
Ni3_3 N8 1_555 1_555
Ni4 O29 1_555 1_555
W4 O17 1_555 1_555
W6 O6 1_555 1_555
W6 O8 1_555 1_555
W6 O19 1_555 1_555
V1 O8 1_555 1_555
W7 O30 1_555 1_555
W7 O36 1_555 1_555
W8 O27 1_555 1_555
W8 O33 1_555 1_555
W9 O27 1_555 1_555
W9 O34 1_555 1_555
W9 O35 1_555 1_555
W9 O40 1_555 1_555
W11 O25 1_555 1_555
W11 O38 1_555 1_555
C21 C28 1_555 1_555
C24 C25 1_555 1_555
C26 C27 1_555 1_555
H18 C17 1_555 1_555
C20 H20 1_555 1_555
O41 Ni1_2 1_555 1_555
N10 Ni1_2 1_555 1_555
W1 O7 1_555 1_555
W2 O7 1_555 1_555
W3 O2 1_555 1_555
V1_2 O7 1_555 1_555
Ni1_3 O9 1_555 1_555
O5 W5 1_555 1_555
O7 W3 1_555 1_555
O9 W2 1_555 1_555
O10 W1 1_555 1_555
O11 W1 1_555 1_555
O13 W1 1_555 1_555
O14 W1 1_555 1_555
O15 W2 1_555 1_555
O16 W1 1_555 1_555
O18 W3 1_555 1_555
O20 W3 1_555 1_555
H4 C3 1_555 1_555
C6 H6 1_555 1_555
W10 O16 1_555 1_555
W12 O5 1_555 1_555
O24 W10 1_555 1_555
O28 V1_2 1_555 1_555
O32 W10 1_555 1_555
O39 W10 1_555 1_555
N9 Ni1_3 1_555 1_555
W2 O13 1_555 1_555
W3 O14 1_555 1_555
W3 O15 1_555 1_555
W5 O18 1_555 1_555
O20 W12 1_555 1_555
W10 O28 1_555 1_555
W10 O37 1_555 1_555
W12 O26 1_555 1_555
W12 O28 1_555 1_555
W12 O39 1_555 1_555
N1 Ni1_4 1_555 1_555
N2 C1 1_555 1_555
C1 N1 1_555 1_555
H1 C1 1_555 1_555
C2 N2 1_555 1_555
H2 C2 1_555 1_555
H3 C2 1_555 1_555
C4 N2 1_555 1_555
H5 C4 1_555 1_555
C5 C8 1_555 1_555
C7 N3 1_555 1_555
H7 C7 1_555 1_555
C8 N3 1_555 1_555
H9 C8 1_555 1_555
C9 C5 1_555 1_555
H10 C9 1_555 1_555
C10 C2 1_555 1_555
C11 C9 1_555 1_555
H11 C11 1_555 1_555
C12 C10 1_555 1_555
H12 C12 1_555 1_555
C13 C5 1_555 1_555
H13 C13 1_555 1_555
C14 N4 1_555 1_555
H14 C14 1_555 1_555
Ni3_2 N4 1_555 1_555
C7 C14 1_555 1_555
C10 C11 1_555 1_555
C12 C13 1_555 1_555
H7_2 C7_2 1_555 1_555
C14_2 N4_2 1_555 1_555
H14_2 C14_2 1_555 1_555
Ni4 N4_2 1_555 1_555
C7_2 C14_2 1_555 1_555
N2_2 C1_2 1_555 1_555
N3_2 C6_2 1_555 1_555
H1_2 C1_2 1_555 1_555
C2_2 N2_2 1_555 1_555
H2_2 C2_2 1_555 1_555
H3_2 C2_2 1_555 1_555
C5_2 C8_2 1_555 1_555
C6_2 H6_2 1_555 1_555
C8_2 N3_2 1_555 1_555
H8_2 C8_2 1_555 1_555
H9_2 C8_2 1_555 1_555
C9_2 C5_2 1_555 1_555
C10_2 C2_2 1_555 1_555
C11_2 C9_2 1_555 1_555
C12_2 C10_2 1_555 1_555
H12_2 C12_2 1_555 1_555
C13_2 C5_2 1_555 1_555
H13_2 C13_2 1_555 1_555
N5_2 Ni1_5 1_555 1_555
C17_2 N5_2 1_555 1_555
H18_2 C17_2 1_555 1_555
H19_2 C18_2 1_555 1_555
O41_2 Ni1_5 1_555 1_555
N9_2 Ni1_5 1_555 1_555
C10_2 C11_2 1_555 1_555
C12_2 C13_2 1_555 1_555
C17_2 C18_2 1_555 1_555
W1_2 O7_2 1_555 1_555
W2_2 O7_2 1_555 1_555
W3_2 O2_2 1_555 1_555
W4_2 O4_2 1_555 1_555
W5_2 O1_2 1_555 1_555
W6_2 O3_2 1_555 1_555
V1_3 O7_2 1_555 1_555
Ni1_6 O9_2 1_555 1_555
O5_2 W5_2 1_555 1_555
O6_2 W5_2 1_555 1_555
O7_2 W3_2 1_555 1_555
O8_2 W4_2 1_555 1_555
O9_2 W2_2 1_555 1_555
O10_2 W1_2 1_555 1_555
O11_2 W1_2 1_555 1_555
O12_2 W4_2 1_555 1_555
O13_2 W1_2 1_555 1_555
O14_2 W1_2 1_555 1_555
O15_2 W2_2 1_555 1_555
O16_2 W1_2 1_555 1_555
O17_2 W2_2 1_555 1_555
O18_2 W3_2 1_555 1_555
O19_2 W4_2 1_555 1_555
O20_2 W3_2 1_555 1_555
N1_2 Ni1_6 1_555 1_555
C3_2 N1_2 1_555 1_555
H4_2 C3_2 1_555 1_555
H5_2 C4_2 1_555 1_555
W7_2 O27_2 1_555 1_555
W8_2 O10_2 1_555 1_555
W9_2 O22_2 1_555 1_555
W10_2 O16_2 1_555 1_555
W11_2 O21_2 1_555 1_555
W12_2 O5_2 1_555 1_555
O23_2 W12_2 1_555 1_555
O24_2 W10_2 1_555 1_555
O25_2 W6_2 1_555 1_555
O26_2 W11_2 1_555 1_555
O27_2 V1_3 1_555 1_555
O28_2 V1_3 1_555 1_555
O29_2 W8_2 1_555 1_555
O30_2 W2_2 1_555 1_555
O31_2 W7_2 1_555 1_555
O32_2 W10_2 1_555 1_555
O33_2 W7_2 1_555 1_555
O34_2 W7_2 1_555 1_555
O35_2 W8_2 1_555 1_555
O36_2 W4_2 1_555 1_555
O37_2 W8_2 1_555 1_555
O38_2 W9_2 1_555 1_555
O39_2 W10_2 1_555 1_555
O40_2 W6_2 1_555 1_555
N6_2 C15_2 1_555 1_555
N7_2 C20_2 1_555 1_555
H15_2 C15_2 1_555 1_555
C16_2 N6_2 1_555 1_555
H16_2 C16_2 1_555 1_555
H17_2 C16_2 1_555 1_555
C19_2 C22_2 1_555 1_555
C20_2 H20_2 1_555 1_555
C22_2 N7_2 1_555 1_555
H22_2 C22_2 1_555 1_555
H23_2 C22_2 1_555 1_555
C23_2 C19_2 1_555 1_555
C24_2 C16_2 1_555 1_555
C25_2 C23_2 1_555 1_555
C26_2 C24_2 1_555 1_555
H26_2 C26_2 1_555 1_555
C27_2 C19_2 1_555 1_555
H27_2 C27_2 1_555 1_555
Ni3_4 O29_2 1_555 1_555
N10_2 Ni1_6 1_555 1_555
W2_2 O13_2 1_555 1_555
W3_2 O14_2 1_555 1_555
W3_2 O15_2 1_555 1_555
W4_2 O17_2 1_555 1_555
W5_2 O8_2 1_555 1_555
W5_2 O12_2 1_555 1_555
W5_2 O18_2 1_555 1_555
W6_2 O6_2 1_555 1_555
W6_2 O8_2 1_555 1_555
W6_2 O19_2 1_555 1_555
V1_3 O8_2 1_555 1_555
O20_2 W12_2 1_555 1_555
C3_2 C4_2 1_555 1_555
W7_2 O30_2 1_555 1_555
W7_2 O36_2 1_555 1_555
W8_2 O27_2 1_555 1_555
W8_2 O33_2 1_555 1_555
W9_2 O27_2 1_555 1_555
W9_2 O34_2 1_555 1_555
W9_2 O35_2 1_555 1_555
W9_2 O40_2 1_555 1_555
W10_2 O28_2 1_555 1_555
W10_2 O37_2 1_555 1_555
W11_2 O25_2 1_555 1_555
W11_2 O28_2 1_555 1_555
W11_2 O32_2 1_555 1_555
W11_2 O38_2 1_555 1_555
W12_2 O26_2 1_555 1_555
W12_2 O28_2 1_555 1_555
W12_2 O39_2 1_555 1_555
C24_2 C25_2 1_555 1_555
C26_2 C27_2 1_555 1_555
H21_2 C21_2 1_555 1_555
C28_2 N8_2 1_555 1_555
H28_2 C28_2 1_555 1_555
Ni4_2 N8_2 1_555 1_555
C21_2 C28_2 1_555 1_555
H21_3 C21_3 1_555 1_555
C28_3 N10 1_555 1_555
H28_3 C28_3 1_555 1_555
C21_3 C28_3 1_555 1_555
N2_3 C1_3 1_555 1_555
H1_3 C1_3 1_555 1_555
C2_3 N2_3 1_555 1_555
H2_3 C2_3 1_555 1_555
H3_3 C2_3 1_555 1_555
C5_3 C8_3 1_555 1_555
C8_3 N3_3 1_555 1_555
H9_3 C8_3 1_555 1_555
C9_3 C5_3 1_555 1_555
C10_3 C2_3 1_555 1_555
C11_3 C9_3 1_555 1_555
C12_3 C10_3 1_555 1_555
H12_3 C12_3 1_555 1_555
C13_3 C5_3 1_555 1_555
H13_3 C13_3 1_555 1_555
H18_3 C17_3 1_555 1_555
O41_3 Ni3 1_555 1_555
C10_3 C11_3 1_555 1_555
C12_3 C13_3 1_555 1_555
C6_3 H6_3 1_555 1_555
N5_3 Ni3_2 1_555 1_555
H19_3 C18_3 1_555 1_555
N1_3 Ni3_3 1_555 1_555
H5_3 C4_3 1_555 1_555
C20_3 H20_3 1_555 1_555
H4_3 C3_3 1_555 1_555
N6_3 C15_3 1_555 1_555
H15_3 C15_3 1_555 1_555
C16_3 N6_3 1_555 1_555
H16_3 C16_3 1_555 1_555
H17_3 C16_3 1_555 1_555
C19_3 C22_3 1_555 1_555
C22_3 N7_3 1_555 1_555
H23_3 C22_3 1_555 1_555
C23_3 C19_3 1_555 1_555
C24_3 C16_3 1_555 1_555
C25_3 C23_3 1_555 1_555
C26_3 C24_3 1_555 1_555
H26_3 C26_3 1_555 1_555
C27_3 C19_3 1_555 1_555
H27_3 C27_3 1_555 1_555
C24_3 C25_3 1_555 1_555
C26_3 C27_3 1_555 1_555
H7_3 C7_3 1_555 1_555
C14_3 N9 1_555 1_555
H14_3 C14_3 1_555 1_555
C7_3 C14_3 1_555 1_555
N1_4 Ni4 1_555 1_555
N2_4 C1_4 1_555 1_555
N3_4 C6_4 1_555 1_555
N9_2 C6_4 1_555 1_555
C1_4 N1_4 1_555 1_555
H1_4 C1_4 1_555 1_555
C2_4 N2_4 1_555 1_555
H2_4 C2_4 1_555 1_555
H3_4 C2_4 1_555 1_555
C3_4 N1_4 1_555 1_555
H4_4 C3_4 1_555 1_555
C4_4 N2_4 1_555 1_555
H5_4 C4_4 1_555 1_555
C5_4 C8_4 1_555 1_555
C6_4 H6_4 1_555 1_555
C7_4 N3_4 1_555 1_555
H7_4 C7_4 1_555 1_555
C8_4 N3_4 1_555 1_555
H8_4 C8_4 1_555 1_555
H9_4 C8_4 1_555 1_555
C9_4 C5_4 1_555 1_555
H10_4 C9_4 1_555 1_555
C10_4 C2_4 1_555 1_555
C11_4 C9_4 1_555 1_555
H11_4 C11_4 1_555 1_555
C12_4 C10_4 1_555 1_555
H12_4 C12_4 1_555 1_555
C13_4 C5_4 1_555 1_555
H13_4 C13_4 1_555 1_555
C14_4 N9_2 1_555 1_555
H14_4 C14_4 1_555 1_555
C3_4 C4_4 1_555 1_555
C7_4 C14_4 1_555 1_555
C10_4 C11_4 1_555 1_555
C12_4 C13_4 1_555 1_555
N5_4 Ni4_2 1_555 1_555
N6_4 C15_4 1_555 1_555
N7_4 C20_4 1_555 1_555
N10_2 C20_4 1_555 1_555
C15_4 N5_4 1_555 1_555
H15_4 C15_4 1_555 1_555
C16_4 N6_4 1_555 1_555
H16_4 C16_4 1_555 1_555
H17_4 C16_4 1_555 1_555
C17_4 N5_4 1_555 1_555
H18_4 C17_4 1_555 1_555
C18_4 N6_4 1_555 1_555
H19_4 C18_4 1_555 1_555
C19_4 C22_4 1_555 1_555
C20_4 H20_4 1_555 1_555
C21_4 N7_4 1_555 1_555
H21_4 C21_4 1_555 1_555
C22_4 N7_4 1_555 1_555
H22_4 C22_4 1_555 1_555
H23_4 C22_4 1_555 1_555
C23_4 C19_4 1_555 1_555
H24_4 C23_4 1_555 1_555
C24_4 C16_4 1_555 1_555
C25_4 C23_4 1_555 1_555
H25_4 C25_4 1_555 1_555
C26_4 C24_4 1_555 1_555
H26_4 C26_4 1_555 1_555
C27_4 C19_4 1_555 1_555
H27_4 C27_4 1_555 1_555
C28_4 N10_2 1_555 1_555
H28_4 C28_4 1_555 1_555
O41_4 Ni4_2 1_555 1_555
C17_4 C18_4 1_555 1_555
C21_4 C28_4 1_555 1_555
C24_4 C25_4 1_555 1_555
C26_4 C27_4 1_555 1_555
W1_3 O7_3 1_555 1_555
W2_3 O7_3 1_555 1_555
W3_3 O2_3 1_555 1_555
V1_4 O7_3 1_555 1_555
O5_3 W5_3 1_555 1_555
O7_3 W3_3 1_555 1_555
O41 W2_3 1_555 1_555
O10_3 W1_3 1_555 1_555
O11_3 W1_3 1_555 1_555
O13_3 W1_3 1_555 1_555
O14_3 W1_3 1_555 1_555
O15_3 W2_3 1_555 1_555
O16_3 W1_3 1_555 1_555
O18_3 W3_3 1_555 1_555
O20_3 W3_3 1_555 1_555
W10_3 O16_3 1_555 1_555
W12_3 O5_3 1_555 1_555
O24_3 W10_3 1_555 1_555
O28_3 V1_4 1_555 1_555
O32_3 W10_3 1_555 1_555
O39_3 W10_3 1_555 1_555
W2_3 O13_3 1_555 1_555
W3_3 O14_3 1_555 1_555
W3_3 O15_3 1_555 1_555
W5_3 O18_3 1_555 1_555
O20_3 W12_3 1_555 1_555
W10_3 O28_3 1_555 1_555
W10_3 O37_3 1_555 1_555
W12_3 O26_3 1_555 1_555
W12_3 O28_3 1_555 1_555
W12_3 O39_3 1_555 1_555
W4_3 O4_3 1_555 1_555
O8_3 W4_3 1_555 1_555
O12_3 W4_3 1_555 1_555
O19_3 W4_3 1_555 1_555
W7_3 O27_3 1_555 1_555
W9_3 O22_3 1_555 1_555
O25_3 W6_3 1_555 1_555
O27_3 V1_5 1_555 1_555
O41_4 W8_3 1_555 1_555
O31_3 W7_3 1_555 1_555
O33_3 W7_3 1_555 1_555
O34_3 W7_3 1_555 1_555
O35_3 W8_3 1_555 1_555
O36_3 W4_3 1_555 1_555
O38_3 W9_3 1_555 1_555
O40_3 W6_3 1_555 1_555
W4_3 O17_3 1_555 1_555
W6_3 O6_3 1_555 1_555
W6_3 O8_3 1_555 1_555
W6_3 O19_3 1_555 1_555
V1_5 O8_3 1_555 1_555
W7_3 O30_3 1_555 1_555
W7_3 O36_3 1_555 1_555
W8_3 O27_3 1_555 1_555
W8_3 O33_3 1_555 1_555
W9_3 O27_3 1_555 1_555
W9_3 O34_3 1_555 1_555
W9_3 O35_3 1_555 1_555
W9_3 O40_3 1_555 1_555
W11_3 O25_3 1_555 1_555
W11_3 O38_3 1_555 1_555
W1_4 O7_4 1_555 1_555
W2_4 O7_4 1_555 1_555
W3_4 O2_4 1_555 1_555
W4_4 O4_4 1_555 1_555
W5_4 O1_4 1_555 1_555
W6_4 O3_4 1_555 1_555
V1_6 O7_4 1_555 1_555
O5_4 W5_4 1_555 1_555
O6_4 W5_4 1_555 1_555
O7_4 W3_4 1_555 1_555
O8_4 W4_4 1_555 1_555
O41_2 W2_4 1_555 1_555
O10_4 W1_4 1_555 1_555
O11_4 W1_4 1_555 1_555
O12_4 W4_4 1_555 1_555
O13_4 W1_4 1_555 1_555
O14_4 W1_4 1_555 1_555
O15_4 W2_4 1_555 1_555
O16_4 W1_4 1_555 1_555
O17_4 W2_4 1_555 1_555
O18_4 W3_4 1_555 1_555
O19_4 W4_4 1_555 1_555
O20_4 W3_4 1_555 1_555
W7_4 O27_4 1_555 1_555
W8_4 O10_4 1_555 1_555
W9_4 O22_4 1_555 1_555
W10_4 O16_4 1_555 1_555
W11_4 O21_4 1_555 1_555
W12_4 O5_4 1_555 1_555
O23_4 W12_4 1_555 1_555
O24_4 W10_4 1_555 1_555
O25_4 W6_4 1_555 1_555
O26_4 W11_4 1_555 1_555
O27_4 V1_6 1_555 1_555
O28_4 V1_6 1_555 1_555
O41_3 W8_4 1_555 1_555
O30_4 W2_4 1_555 1_555
O31_4 W7_4 1_555 1_555
O32_4 W10_4 1_555 1_555
O33_4 W7_4 1_555 1_555
O34_4 W7_4 1_555 1_555
O35_4 W8_4 1_555 1_555
O36_4 W4_4 1_555 1_555
O37_4 W8_4 1_555 1_555
O38_4 W9_4 1_555 1_555
O39_4 W10_4 1_555 1_555
O40_4 W6_4 1_555 1_555
W2_4 O13_4 1_555 1_555
W3_4 O14_4 1_555 1_555
W3_4 O15_4 1_555 1_555
W4_4 O17_4 1_555 1_555
W5_4 O8_4 1_555 1_555
W5_4 O12_4 1_555 1_555
W5_4 O18_4 1_555 1_555
W6_4 O6_4 1_555 1_555
W6_4 O8_4 1_555 1_555
W6_4 O19_4 1_555 1_555
V1_6 O8_4 1_555 1_555
O20_4 W12_4 1_555 1_555
W7_4 O30_4 1_555 1_555
W7_4 O36_4 1_555 1_555
W8_4 O27_4 1_555 1_555
W8_4 O33_4 1_555 1_555
W9_4 O27_4 1_555 1_555
W9_4 O34_4 1_555 1_555
W9_4 O35_4 1_555 1_555
W9_4 O40_4 1_555 1_555
W10_4 O28_4 1_555 1_555
W10_4 O37_4 1_555 1_555
W11_4 O25_4 1_555 1_555
W11_4 O28_4 1_555 1_555
W11_4 O32_4 1_555 1_555
W11_4 O38_4 1_555 1_555
W12_4 O26_4 1_555 1_555
W12_4 O28_4 1_555 1_555
W12_4 O39_4 1_555 1_555
N11 C29 1_555 1_555
N12 C30 1_555 1_555
C29 H29 1_555 1_555
C30 N11 1_555 1_555
H30 C30 1_555 1_555
C31 H31 1_555 1_555
C32 N12 1_555 1_555
C33 C31 1_555 1_555
C34 C33 1_555 1_555
H32 C34 1_555 1_555
C35 N12 1_555 1_555
H33 C35 1_555 1_555
H34 C35 1_555 1_555
N13 C36 1_555 1_555
N14 C37 1_555 1_555
C36 H35 1_555 1_555
C37 N13 1_555 1_555
H36 C37 1_555 1_555
C38 C31 1_555 1_555
H37 C38 1_555 1_555
C39 N14 1_555 1_555
C40 C38 1_555 1_555
C41 C34 1_555 1_555
H38 C41 1_555 1_555
C42 N14 1_555 1_555
H39 C42 1_555 1_555
H40 C42 1_555 1_555
C29 C32 1_555 1_555
C33 C35 1_555 1_555
C36 C39 1_555 1_555
C40 C41 1_555 1_555
C40 C42 1_555 1_555
N11 H41 1_555 1_555
C32 H42 1_555 1_555
N13 H43 1_555 1_555
C39 H44 1_555 1_555
N11_2 C29_2 1_555 1_555
N12_2 C30_2 1_555 1_555
C29_2 H29_2 1_555 1_555
C30_2 N11_2 1_555 1_555
H30_2 C30_2 1_555 1_555
C31_2 H31_2 1_555 1_555
C32_2 N12_2 1_555 1_555
C33_2 C31_2 1_555 1_555
C34_2 C33_2 1_555 1_555
H32_2 C34_2 1_555 1_555
C35_2 N12_2 1_555 1_555
H33_2 C35_2 1_555 1_555
H34_2 C35_2 1_555 1_555
C29_2 C32_2 1_555 1_555
C33_2 C35_2 1_555 1_555
N11_2 H41_2 1_555 1_555
C32_2 H42_2 1_555 1_555
N13_2 C36_2 1_555 1_555
N14_2 C37_2 1_555 1_555
C36_2 H35_2 1_555 1_555
C37_2 N13_2 1_555 1_555
H36_2 C37_2 1_555 1_555
H37_2 C38_2 1_555 1_555
C39_2 N14_2 1_555 1_555
C40_2 C38_2 1_555 1_555
H38_2 C41_2 1_555 1_555
C42_2 N14_2 1_555 1_555
H39_2 C42_2 1_555 1_555
H40_2 C42_2 1_555 1_555
C36_2 C39_2 1_555 1_555
C40_2 C41_2 1_555 1_555
C40_2 C42_2 1_555 1_555
N13_2 H43_2 1_555 1_555
C39_2 H44_2 1_555 1_555
N11_3 C29_3 1_555 1_555
N12_3 C30_3 1_555 1_555
C29_3 H29_3 1_555 1_555
C30_3 N11_3 1_555 1_555
H30_3 C30_3 1_555 1_555
C31_3 H31_3 1_555 1_555
C32_3 N12_3 1_555 1_555
C33_3 C31_3 1_555 1_555
C34_3 C33_3 1_555 1_555
H32_3 C34_3 1_555 1_555
C35_3 N12_3 1_555 1_555
H33_3 C35_3 1_555 1_555
H34_3 C35_3 1_555 1_555
N13_3 C36_3 1_555 1_555
N14_3 C37_3 1_555 1_555
C36_3 H35_3 1_555 1_555
C37_3 N13_3 1_555 1_555
H36_3 C37_3 1_555 1_555
C38_3 C31_3 1_555 1_555
H37_3 C38_3 1_555 1_555
C39_3 N14_3 1_555 1_555
C40_3 C38_3 1_555 1_555
C41_3 C34_3 1_555 1_555
H38_3 C41_3 1_555 1_555
C42_3 N14_3 1_555 1_555
H39_3 C42_3 1_555 1_555
H40_3 C42_3 1_555 1_555
C29_3 C32_3 1_555 1_555
C33_3 C35_3 1_555 1_555
C36_3 C39_3 1_555 1_555
C40_3 C41_3 1_555 1_555
C40_3 C42_3 1_555 1_555
N11_3 H41_3 1_555 1_555
C32_3 H42_3 1_555 1_555
N13_3 H43_3 1_555 1_555
C39_3 H44_3 1_555 1_555
N13_4 C36_4 1_555 1_555
N14_4 C37_4 1_555 1_555
C36_4 H35_4 1_555 1_555
C37_4 N13_4 1_555 1_555
H36_4 C37_4 1_555 1_555
H37_4 C38_4 1_555 1_555
C39_4 N14_4 1_555 1_555
C40_4 C38_4 1_555 1_555
H38_4 C41_4 1_555 1_555
C42_4 N14_4 1_555 1_555
H39_4 C42_4 1_555 1_555
H40_4 C42_4 1_555 1_555
C36_4 C39_4 1_555 1_555
C40_4 C41_4 1_555 1_555
C40_4 C42_4 1_555 1_555
N13_4 H43_4 1_555 1_555
C39_4 H44_4 1_555 1_555
N11_4 C29_4 1_555 1_555
N12_4 C30_4 1_555 1_555
C29_4 H29_4 1_555 1_555
C30_4 N11_4 1_555 1_555
H30_4 C30_4 1_555 1_555
C31_4 H31_4 1_555 1_555
C32_4 N12_4 1_555 1_555
C33_4 C31_4 1_555 1_555
C34_4 C33_4 1_555 1_555
H32_4 C34_4 1_555 1_555
C35_4 N12_4 1_555 1_555
H33_4 C35_4 1_555 1_555
H34_4 C35_4 1_555 1_555
C29_4 C32_4 1_555 1_555
C33_4 C35_4 1_555 1_555
N11_4 H41_4 1_555 1_555
C32_4 H42_4 1_555 1_555

#END
