
###############################################################################
#
# This file contains modified crystal structure data generated from the
# MOF subset of the Cambridge Structural Database (CSD) v543 
# hosted by the Cambridge Crystallographic Data Centre (CCDC).
#
# This work is licensed under the Creative Commons
# Attribution-NonCommercial-ShareAlike 4.0 International License.
# To view a copy of this license, visit
# http://creativecommons.org/licenses/by-nc-sa/4.0/
# or send a letter to
# Creative Commons, PO Box 1866, Mountain View, CA 94042, USA.
#
# CIF created using the CSD Python API on 29 September 2022
# The structure has been converted into the P1 space group
# The structure has a 3D framework
# The original CSD entry NILGIB is in the monoclinic crystal system
# The framework has been calculated to contain at least 10.0% void space
# The void calculation uses a probe of radius 1.32A, grid spacing 0.4
#
###############################################################################

data_NILGIB
_chemical_formula_moiety         '(C288 H192 Cl48 N92 Zn24)n'
_symmetry_cell_setting           triclinic
_symmetry_space_group_name_H-M   'P 1'
_symmetry_Int_Tables_number      1
_space_group_name_Hall           'P 1'
loop_
_symmetry_equiv_pos_site_id
_symmetry_equiv_pos_as_xyz
1 x,y,z
_cell_length_a                   31.6612(17)
_cell_length_b                   14.3589(6)
_cell_length_c                   30.9517(13)
_cell_angle_alpha                90
_cell_angle_beta                 97.985(3)
_cell_angle_gamma                90
_cell_volume                     13934.8
loop_
_atom_site_label
_atom_site_type_symbol
_atom_site_fract_x
_atom_site_fract_y
_atom_site_fract_z
N2 N 0.29318(10) 0.00536(19) 0.20908(9)
N8 N 0.57516(10) 0.0401(2) 0.54335(10)
C28 C 0.54412(13) 0.0513(3) 0.56701(15)
H20 H 0.5436 0.1067 0.5838
Zn4 Zn 0.62703(2) 0.12939(3) 0.55002(2)
Zn5 Zn 0.29323(2) 0.14843(3) 0.20820(2)
Cl5 Cl 0.23057(4) 0.19415(7) 0.17615(4)
Cl6 Cl 0.32248(5) 0.18673(7) 0.27417(4)
C22 C 0.41841(10) 0.4583(2) 0.00258(11)
H15 H 0.4003 0.4530 0.0245
C24 C 0.57501(12) 0.0355(3) 0.01859(13)
H17 H 0.5966 0.0424 0.0004
C25 C 0.54448(12) 0.1045(3) 0.01845(12)
H18 H 0.5453 0.1580 0.0005
C26 C 0.51307(10) 0.0949(2) 0.04439(11)
C27 C 0.51227(13) 0.0133(3) 0.06868(15)
H19 H 0.4902 0.0025 0.0860
N9 N 0.33497(11) 0.1772(2) 0.16536(10)
C29 C 0.32464(13) 0.2303(3) 0.13004(13)
H21 H 0.2970 0.2570 0.1248
C30 C 0.35286(13) 0.2474(3) 0.10101(13)
H22 H 0.3447 0.2861 0.0764
C31 C 0.39334(11) 0.2081(2) 0.10765(11)
C32 C 0.40376(15) 0.1531(3) 0.14445(14)
H23 H 0.4309 0.1240 0.1501
C33 C 0.37427(16) 0.1416(3) 0.17242(15)
H24 H 0.3822 0.1064 0.1982
C34 C 0.45021(9) 0.3052(2) 0.02530(10)
N10 N 0.48048(8) 0.24244(18) 0.02060(8)
C35 C 0.48009(10) 0.1677(2) 0.04679(10)
N11 N 0.45286(9) 0.15315(19) 0.07487(9)
C36 C 0.42405(10) 0.2204(2) 0.07657(10)
N12 N 0.42122(8) 0.29813(19) 0.05249(9)
Zn2 Zn 0.92523(2) 0.14454(3) 0.89655(2)
Cl1 Cl 0.60816(4) 0.25726(7) 0.58182(5)
Cl2 Cl 0.65336(4) 0.11369(10) 0.48801(4)
Cl3 Cl 0.88210(4) 0.24641(7) 0.92148(4)
Cl4 Cl 0.98464(4) 0.17946(8) 0.87054(3)
N1 N 0.66907(10) 0.0604(2) 0.59577(11)
C4 C 0.72571(12) 0.0673(2) 0.65497(12)
H3 H 0.7433 0.1041 0.6758
C5 C 0.69460(12) 0.1087(2) 0.62536(13)
H4 H 0.6913 0.1744 0.6262
N3 N 0.88772(9) 0.06680(19) 0.84950(9)
C11 C 0.86171(13) 0.1125(2) 0.81954(12)
H9 H 0.8598 0.1782 0.8221
C12 C 0.83729(13) 0.0696(2) 0.78478(12)
H10 H 0.8192 0.1052 0.7640
N7 N 0.94036(8) 0.04471(18) 0.94391(8)
C23 C 0.91525(11) 0.0338(2) 0.97483(11)
H16 H 0.8943 0.0799 0.9778
Zn1 Zn 0.12703(2) 0.37061(3) 0.05002(2)
Zn2_2 Zn 0.42523(2) 0.35546(3) 0.39655(2)
Zn3 Zn 0.29323(2) 0.85157(3) 0.70820(2)
Cl1_2 Cl 0.10816(4) 0.24274(7) 0.08182(5)
Cl3_2 Cl 0.38210(4) 0.25359(7) 0.42148(4)
Cl4_2 Cl 0.48464(4) 0.32054(8) 0.37054(3)
Cl5_2 Cl 0.23057(4) 0.80585(7) 0.67615(4)
Cl6_2 Cl 0.32248(5) 0.81327(7) 0.77417(4)
N1_2 N 0.16907(10) 0.4396(2) 0.09577(11)
C1 C 0.17378(15) 0.5313(3) 0.09539(15)
H1 H 0.1553 0.5664 0.0747
C2 C 0.20406(14) 0.5782(3) 0.12354(14)
H2 H 0.2064 0.6440 0.1221
C3 C 0.23088(11) 0.5280(2) 0.15387(11)
C4_2 C 0.22571(12) 0.4327(2) 0.15497(12)
H3_2 H 0.2433 0.3959 0.1758
C5_2 C 0.19460(12) 0.3913(2) 0.12536(13)
H4_2 H 0.1913 0.3256 0.1262
C6 C 0.26806(13) 0.9573(3) 0.17893(13)
H5 H 0.2495 0.9904 0.1575
C7 C 0.26805(12) 0.8615(2) 0.17760(13)
H6 H 0.2497 0.8290 0.1558
C8 C 0.29516(10) 0.8134(2) 0.20858(10)
C9 C 0.32068(15) 0.8623(2) 0.24044(12)
H7 H 0.3392 0.8309 0.2626
C10 C 0.31854(16) 0.9587(3) 0.23920(13)
H8 H 0.3361 0.9929 0.2610
N3_2 N 0.38772(9) 0.43320(19) 0.34950(9)
C11_2 C 0.36171(13) 0.3875(2) 0.31954(12)
H9_2 H 0.3598 0.3218 0.3221
C12_2 C 0.33729(13) 0.4304(2) 0.28478(12)
H10_2 H 0.3192 0.3948 0.2640
C13 C 0.33957(10) 0.5261(2) 0.28065(11)
C14 C 0.36571(12) 0.5742(2) 0.31264(12)
H11 H 0.3674 0.6401 0.3114
C15 C 0.38913(12) 0.5268(2) 0.34594(12)
H12 H 0.4071 0.5610 0.3674
C16 C 0.26317(10) 0.5762(2) 0.18536(11)
N4 N 0.26708(9) 0.66808(18) 0.17944(9)
C17 C 0.29480(10) 0.7098(2) 0.20946(10)
N5 N 0.32050(8) 0.66784(18) 0.24089(8)
C18 C 0.31378(10) 0.5758(2) 0.24413(10)
N6 N 0.28495(9) 0.52740(18) 0.21746(9)
N7_2 N 0.44036(8) 0.45529(18) 0.44391(8)
C19 C 0.47087(10) 0.5191(2) 0.44069(10)
H13 H 0.4897 0.5102 0.4197
C20 C 0.47560(10) 0.5969(2) 0.46693(10)
H14 H 0.4972 0.6413 0.4638
C21 C 0.44848(9) 0.6098(2) 0.49786(10)
C22_2 C 0.41841(10) 0.5417(2) 0.50258(11)
H15_2 H 0.4003 0.5470 0.5245
C23_2 C 0.41525(11) 0.4662(2) 0.47483(11)
H16_2 H 0.3943 0.4201 0.4778
C24_2 C 0.57501(12) 0.9645(3) 0.51859(13)
H17_2 H 0.5966 0.9576 0.5004
C25_2 C 0.54448(12) 0.8955(3) 0.51845(12)
H18_2 H 0.5453 0.8420 0.5005
C26_2 C 0.51307(10) 0.9051(2) 0.54439(11)
C27_2 C 0.51227(13) 0.9867(3) 0.56868(15)
H19_2 H 0.4902 0.9975 0.5860
N9_2 N 0.33497(11) 0.8228(2) 0.66536(10)
C29_2 C 0.32464(13) 0.7697(3) 0.63004(13)
H21_2 H 0.2970 0.7430 0.6248
C30_2 C 0.35286(13) 0.7526(3) 0.60101(13)
H22_2 H 0.3447 0.7139 0.5764
C31_2 C 0.39334(11) 0.7919(2) 0.60765(11)
C32_2 C 0.40376(15) 0.8469(3) 0.64445(14)
H23_2 H 0.4309 0.8760 0.6501
C33_2 C 0.37427(16) 0.8584(3) 0.67242(15)
H24_2 H 0.3822 0.8936 0.6982
C34_2 C 0.45021(9) 0.6948(2) 0.52530(10)
N10_2 N 0.48048(8) 0.75756(18) 0.52060(8)
C35_2 C 0.48009(10) 0.8323(2) 0.54679(10)
N11_2 N 0.45286(9) 0.84685(19) 0.57487(9)
C36_2 C 0.42405(10) 0.7796(2) 0.57657(10)
N12_2 N 0.42122(8) 0.70187(19) 0.55249(9)
N13 N 0.29318(10) 0.99464(19) 0.70908(9)
N14 N 0.07516(10) 0.4599(2) 0.04335(10)
C24_3 C 0.07501(12) 0.5355(3) 0.01859(13)
H17_3 H 0.0966 0.5424 0.0004
C25_3 C 0.04448(12) 0.6045(3) 0.01845(12)
H18_3 H 0.0453 0.6580 0.0005
C26_3 C 0.01307(10) 0.5949(2) 0.04439(11)
C27_3 C 0.01227(13) 0.5133(3) 0.06868(15)
C28_2 C 0.04412(13) 0.4487(3) 0.06701(15)
H20_2 H 0.0436 0.3933 0.0838
Cl2_2 Cl 0.15336(4) 0.38631(10) 0.98801(4)
N2_2 N 0.70682(10) 0.00536(19) 0.29092(9)
Zn5_2 Zn 0.70677(2) 0.14843(3) 0.29180(2)
N8_2 N 0.92484(10) 0.5401(2) 0.95665(10)
C24_4 C 0.92499(12) 0.4645(3) 0.98141(13)
H17_4 H 0.9034 0.4576 0.9996
C25_4 C 0.95552(12) 0.3955(3) 0.98155(12)
H18_4 H 0.9547 0.3420 0.9995
C26_4 C 0.98693(10) 0.4051(2) 0.95561(11)
C27_4 C 0.98773(13) 0.4867(3) 0.93132(15)
C28_3 C 0.95588(13) 0.5513(3) 0.93299(15)
H20_3 H 0.9564 0.6067 0.9162
Zn4_2 Zn 0.87297(2) 0.62939(3) 0.94998(2)
Zn2_3 Zn 0.57477(2) 0.64454(3) 0.60345(2)
Cl1_3 Cl 0.89184(4) 0.75726(7) 0.91818(5)
Cl3_3 Cl 0.61790(4) 0.74641(7) 0.57852(4)
Cl4_3 Cl 0.51536(4) 0.67946(8) 0.62946(3)
Cl5_3 Cl 0.76943(4) 0.19415(7) 0.32385(4)
Cl6_3 Cl 0.67752(5) 0.18673(7) 0.22583(4)
N1_3 N 0.83093(10) 0.5604(2) 0.90423(11)
C1_2 C 0.82622(15) 0.4687(3) 0.90461(15)
H1_2 H 0.8447 0.4336 0.9253
C2_2 C 0.79594(14) 0.4218(3) 0.87646(14)
H2_2 H 0.7936 0.3560 0.8779
C3_2 C 0.76912(11) 0.4720(2) 0.84613(11)
C4_3 C 0.77429(12) 0.5673(2) 0.84503(12)
H3_3 H 0.7567 0.6041 0.8242
C5_3 C 0.80540(12) 0.6087(2) 0.87464(13)
H4_3 H 0.8087 0.6744 0.8738
C6_2 C 0.73194(13) 0.0427(3) 0.82107(13)
H5_2 H 0.7505 0.0096 0.8425
C7_2 C 0.73195(12) 0.1385(2) 0.82240(13)
H6_2 H 0.7503 0.1710 0.8442
C8_2 C 0.70484(10) 0.1866(2) 0.79142(10)
C9_2 C 0.67932(15) 0.1377(2) 0.75956(12)
H7_2 H 0.6608 0.1691 0.7374
C10_2 C 0.68146(16) 0.0413(3) 0.76080(13)
H8_2 H 0.6639 0.0071 0.7390
N3_3 N 0.61228(9) 0.56680(19) 0.65050(9)
C11_3 C 0.63829(13) 0.6125(2) 0.68046(12)
H9_3 H 0.6402 0.6782 0.6779
C12_3 C 0.66271(13) 0.5696(2) 0.71522(12)
H10_3 H 0.6808 0.6052 0.7360
C13_2 C 0.66043(10) 0.4739(2) 0.71935(11)
C14_2 C 0.63429(12) 0.4258(2) 0.68736(12)
H11_2 H 0.6326 0.3599 0.6886
C15_2 C 0.61087(12) 0.4732(2) 0.65406(12)
H12_2 H 0.5929 0.4390 0.6326
C16_2 C 0.73683(10) 0.4238(2) 0.81464(11)
N4_2 N 0.73292(9) 0.33192(18) 0.82056(9)
C17_2 C 0.70520(10) 0.2902(2) 0.79054(10)
N5_2 N 0.67950(8) 0.33216(18) 0.75911(8)
C18_2 C 0.68622(10) 0.4242(2) 0.75587(10)
N6_2 N 0.71505(9) 0.47260(18) 0.78254(9)
N7_3 N 0.55964(8) 0.54471(18) 0.55609(8)
C19_2 C 0.52913(10) 0.4809(2) 0.55931(10)
H13_2 H 0.5103 0.4898 0.5803
C20_2 C 0.52440(10) 0.4031(2) 0.53307(10)
H14_2 H 0.5028 0.3587 0.5362
C21_2 C 0.55152(9) 0.3902(2) 0.50214(10)
C22_3 C 0.58159(10) 0.4583(2) 0.49742(11)
H15_3 H 0.5997 0.4530 0.4755
C23_3 C 0.58475(11) 0.5338(2) 0.52517(11)
H16_3 H 0.6057 0.5799 0.5222
C24_5 C 0.42499(12) 0.0355(3) 0.48141(13)
H17_5 H 0.4034 0.0424 0.4996
C25_5 C 0.45552(12) 0.1045(3) 0.48155(12)
H18_5 H 0.4547 0.1580 0.4995
C26_5 C 0.48693(10) 0.0949(2) 0.45561(11)
C27_5 C 0.48773(13) 0.0133(3) 0.43132(15)
H19_3 H 0.5098 0.0025 0.4140
N9_3 N 0.66503(11) 0.1772(2) 0.33464(10)
C29_3 C 0.67536(13) 0.2303(3) 0.36996(13)
H21_3 H 0.7030 0.2570 0.3752
C30_3 C 0.64714(13) 0.2474(3) 0.39899(13)
H22_3 H 0.6553 0.2861 0.4236
C31_3 C 0.60666(11) 0.2081(2) 0.39235(11)
C32_3 C 0.59624(15) 0.1531(3) 0.35555(14)
H23_3 H 0.5691 0.1240 0.3499
C33_3 C 0.62573(16) 0.1416(3) 0.32758(15)
H24_3 H 0.6178 0.1064 0.3018
C34_3 C 0.54979(9) 0.3052(2) 0.47470(10)
N10_3 N 0.51952(8) 0.24244(18) 0.47940(8)
C35_3 C 0.51991(10) 0.1677(2) 0.45321(10)
N11_3 N 0.54714(9) 0.15315(19) 0.42513(9)
C36_3 C 0.57595(10) 0.2204(2) 0.42343(10)
N12_3 N 0.57878(8) 0.29813(19) 0.44751(9)
N8_3 N 0.42484(10) 0.0401(2) 0.95665(10)
C28_4 C 0.45588(13) 0.0513(3) 0.93299(15)
H20_4 H 0.4564 0.1067 0.9162
Zn4_3 Zn 0.37297(2) 0.12939(3) 0.94998(2)
Zn2_4 Zn 0.07477(2) 0.14454(3) 0.60345(2)
Cl1_4 Cl 0.39184(4) 0.25726(7) 0.91818(5)
Cl3_4 Cl 0.11790(4) 0.24641(7) 0.57852(4)
Cl4_4 Cl 0.01536(4) 0.17946(8) 0.62946(3)
N1_4 N 0.33093(10) 0.0604(2) 0.90423(11)
C4_4 C 0.27429(12) 0.0673(2) 0.84503(12)
H3_4 H 0.2567 0.1041 0.8242
C5_4 C 0.30540(12) 0.1087(2) 0.87464(13)
H4_4 H 0.3087 0.1744 0.8738
N3_4 N 0.11228(9) 0.06680(19) 0.65050(9)
C11_4 C 0.13829(13) 0.1125(2) 0.68046(12)
H9_4 H 0.1402 0.1782 0.6779
C12_4 C 0.16271(13) 0.0696(2) 0.71522(12)
H10_4 H 0.1808 0.1052 0.7360
N7_4 N 0.05964(8) 0.04471(18) 0.55609(8)
C23_4 C 0.08475(11) 0.0338(2) 0.52517(11)
H16_4 H 0.1057 0.0799 0.5222
Zn1_2 Zn 0.87297(2) 0.37061(3) 0.44998(2)
Zn2_5 Zn 0.57477(2) 0.35546(3) 0.10345(2)
Cl1_5 Cl 0.89184(4) 0.24274(7) 0.41818(5)
Cl2_3 Cl 0.84664(4) 0.38631(10) 0.51199(4)
Cl3_5 Cl 0.61790(4) 0.25359(7) 0.07852(4)
Cl4_5 Cl 0.51536(4) 0.32054(8) 0.12946(3)
N1_5 N 0.83093(10) 0.4396(2) 0.40423(11)
C1_3 C 0.82622(15) 0.5313(3) 0.40461(15)
H1_3 H 0.8447 0.5664 0.4253
C2_3 C 0.79594(14) 0.5782(3) 0.37646(14)
H2_3 H 0.7936 0.6440 0.3779
C3_3 C 0.76912(11) 0.5280(2) 0.34613(11)
C4_5 C 0.77429(12) 0.4327(2) 0.34503(12)
H3_5 H 0.7567 0.3959 0.3242
C5_5 C 0.80540(12) 0.3913(2) 0.37464(13)
H4_5 H 0.8087 0.3256 0.3738
C6_3 C 0.73194(13) 0.9573(3) 0.32107(13)
H5_3 H 0.7505 0.9904 0.3425
C7_3 C 0.73195(12) 0.8615(2) 0.32240(13)
H6_3 H 0.7503 0.8290 0.3442
C8_3 C 0.70484(10) 0.8134(2) 0.29142(10)
C9_3 C 0.67932(15) 0.8623(2) 0.25956(12)
H7_3 H 0.6608 0.8309 0.2374
C10_3 C 0.68146(16) 0.9587(3) 0.26080(13)
H8_3 H 0.6639 0.9929 0.2390
N3_5 N 0.61228(9) 0.43320(19) 0.15050(9)
C11_5 C 0.63829(13) 0.3875(2) 0.18046(12)
H9_5 H 0.6402 0.3218 0.1779
C12_5 C 0.66271(13) 0.4304(2) 0.21522(12)
H10_5 H 0.6808 0.3948 0.2360
C13_3 C 0.66043(10) 0.5261(2) 0.21935(11)
C14_3 C 0.63429(12) 0.5742(2) 0.18736(12)
H11_3 H 0.6326 0.6401 0.1886
C15_3 C 0.61087(12) 0.5268(2) 0.15406(12)
H12_3 H 0.5929 0.5610 0.1326
C16_3 C 0.73683(10) 0.5762(2) 0.31464(11)
N4_3 N 0.73292(9) 0.66808(18) 0.32056(9)
C17_3 C 0.70520(10) 0.7098(2) 0.29054(10)
N5_3 N 0.67950(8) 0.66784(18) 0.25911(8)
C18_3 C 0.68622(10) 0.5758(2) 0.25587(10)
N6_3 N 0.71505(9) 0.52740(18) 0.28254(9)
N7_5 N 0.55964(8) 0.45529(18) 0.05609(8)
C19_3 C 0.52913(10) 0.5191(2) 0.05931(10)
H13_3 H 0.5103 0.5102 0.0803
C20_3 C 0.52440(10) 0.5969(2) 0.03307(10)
H14_3 H 0.5028 0.6413 0.0362
C21_3 C 0.55152(9) 0.6098(2) 0.00214(10)
C23_5 C 0.58475(11) 0.4662(2) 0.02517(11)
H16_5 H 0.6057 0.4201 0.0222
N14_2 N 0.92484(10) 0.4599(2) 0.45665(10)
C24_6 C 0.92499(12) 0.5355(3) 0.48141(13)
H17_6 H 0.9034 0.5424 0.4996
C25_6 C 0.95552(12) 0.6045(3) 0.48155(12)
H18_6 H 0.9547 0.6580 0.4995
C26_6 C 0.98693(10) 0.5949(2) 0.45561(11)
C27_6 C 0.98773(13) 0.5133(3) 0.43132(15)
C28_5 C 0.95588(13) 0.4487(3) 0.43299(15)
H20_5 H 0.9564 0.3933 0.4162
Zn3_2 Zn 0.70677(2) 0.85157(3) 0.79180(2)
Cl5_4 Cl 0.76943(4) 0.80585(7) 0.82385(4)
Cl6_4 Cl 0.67752(5) 0.81327(7) 0.72583(4)
C22_4 C 0.58159(10) 0.5417(2) 0.99742(11)
H15_4 H 0.5997 0.5470 0.9755
C24_7 C 0.42499(12) 0.9645(3) 0.98141(13)
H17_7 H 0.4034 0.9576 0.9996
C25_7 C 0.45552(12) 0.8955(3) 0.98155(12)
H18_7 H 0.4547 0.8420 0.9995
C26_7 C 0.48693(10) 0.9051(2) 0.95561(11)
C27_7 C 0.48773(13) 0.9867(3) 0.93132(15)
H19_4 H 0.5098 0.9975 0.9140
N9_4 N 0.66503(11) 0.8228(2) 0.83464(10)
C29_4 C 0.67536(13) 0.7697(3) 0.86996(13)
H21_4 H 0.7030 0.7430 0.8752
C30_4 C 0.64714(13) 0.7526(3) 0.89899(13)
H22_4 H 0.6553 0.7139 0.9236
C31_4 C 0.60666(11) 0.7919(2) 0.89235(11)
C32_4 C 0.59624(15) 0.8469(3) 0.85555(14)
H23_4 H 0.5691 0.8760 0.8499
C33_4 C 0.62573(16) 0.8584(3) 0.82758(15)
H24_4 H 0.6178 0.8936 0.8018
C34_4 C 0.54979(9) 0.6948(2) 0.97470(10)
N10_4 N 0.51952(8) 0.75756(18) 0.97940(8)
C35_4 C 0.51991(10) 0.8323(2) 0.95321(10)
N11_4 N 0.54714(9) 0.84685(19) 0.92513(9)
C36_4 C 0.57595(10) 0.7796(2) 0.92343(10)
N12_4 N 0.57878(8) 0.70187(19) 0.94751(9)
N13_2 N 0.70682(10) 0.99464(19) 0.79092(9)
Zn1_3 Zn 0.37297(2) 0.87061(3) 0.44998(2)
Zn2_6 Zn 0.07477(2) 0.85546(3) 0.10345(2)
Cl1_6 Cl 0.39184(4) 0.74274(7) 0.41818(5)
Cl2_4 Cl 0.34664(4) 0.88631(10) 0.51199(4)
Cl3_6 Cl 0.11790(4) 0.75359(7) 0.07852(4)
Cl4_6 Cl 0.01536(4) 0.82054(8) 0.12946(3)
N1_6 N 0.33093(10) 0.9396(2) 0.40423(11)
C4_6 C 0.27429(12) 0.9327(2) 0.34503(12)
H3_6 H 0.2567 0.8959 0.3242
C5_6 C 0.30540(12) 0.8913(2) 0.37464(13)
H4_6 H 0.3087 0.8256 0.3738
N3_6 N 0.11228(9) 0.93320(19) 0.15050(9)
C11_6 C 0.13829(13) 0.8875(2) 0.18046(12)
H9_6 H 0.1402 0.8218 0.1779
C12_6 C 0.16271(13) 0.9304(2) 0.21522(12)
H10_6 H 0.1808 0.8948 0.2360
N7_6 N 0.05964(8) 0.95529(18) 0.05609(8)
C23_6 C 0.08475(11) 0.9662(2) 0.02517(11)
H16_6 H 0.1057 0.9201 0.0222
N14_3 N 0.42484(10) 0.9599(2) 0.45665(10)
C28_6 C 0.45588(13) 0.9487(3) 0.43299(15)
H20_6 H 0.4564 0.8933 0.4162
N8_4 N 0.07516(10) 0.5401(2) 0.54335(10)
C24_8 C 0.07501(12) 0.4645(3) 0.51859(13)
H17_8 H 0.0966 0.4576 0.5004
C25_8 C 0.04448(12) 0.3955(3) 0.51845(12)
H18_8 H 0.0453 0.3420 0.5005
C26_8 C 0.01307(10) 0.4051(2) 0.54439(11)
C27_8 C 0.01227(13) 0.4867(3) 0.56868(15)
C28_7 C 0.04412(13) 0.5513(3) 0.56701(15)
H20_7 H 0.0436 0.6067 0.5838
Zn4_4 Zn 0.12703(2) 0.62939(3) 0.55002(2)
Zn2_7 Zn 0.42523(2) 0.64454(3) 0.89655(2)
Cl1_7 Cl 0.10816(4) 0.75726(7) 0.58182(5)
Cl2_5 Cl 0.15336(4) 0.61369(10) 0.48801(4)
Cl3_7 Cl 0.38210(4) 0.74641(7) 0.92148(4)
Cl4_7 Cl 0.48464(4) 0.67946(8) 0.87054(3)
N1_7 N 0.16907(10) 0.5604(2) 0.59577(11)
C1_4 C 0.17378(15) 0.4687(3) 0.59539(15)
H1_4 H 0.1553 0.4336 0.5747
C2_4 C 0.20406(14) 0.4218(3) 0.62354(14)
H2_4 H 0.2064 0.3560 0.6221
C3_4 C 0.23088(11) 0.4720(2) 0.65387(11)
C4_7 C 0.22571(12) 0.5673(2) 0.65497(12)
H3_7 H 0.2433 0.6041 0.6758
C5_7 C 0.19460(12) 0.6087(2) 0.62536(13)
H4_7 H 0.1913 0.6744 0.6262
C6_4 C 0.26806(13) 0.0427(3) 0.67893(13)
H5_4 H 0.2495 0.0096 0.6575
C7_4 C 0.26805(12) 0.1385(2) 0.67760(13)
H6_4 H 0.2497 0.1710 0.6558
C8_4 C 0.29516(10) 0.1866(2) 0.70858(10)
C9_4 C 0.32068(15) 0.1377(2) 0.74044(12)
H7_4 H 0.3392 0.1691 0.7626
C10_4 C 0.31854(16) 0.0413(3) 0.73920(13)
H8_4 H 0.3361 0.0071 0.7610
N3_7 N 0.38772(9) 0.56680(19) 0.84950(9)
C11_7 C 0.36171(13) 0.6125(2) 0.81954(12)
H9_7 H 0.3598 0.6782 0.8221
C12_7 C 0.33729(13) 0.5696(2) 0.78478(12)
H10_7 H 0.3192 0.6052 0.7640
C13_4 C 0.33957(10) 0.4739(2) 0.78065(11)
C14_4 C 0.36571(12) 0.4258(2) 0.81264(12)
H11_4 H 0.3674 0.3599 0.8114
C15_4 C 0.38913(12) 0.4732(2) 0.84594(12)
H12_4 H 0.4071 0.4390 0.8674
C16_4 C 0.26317(10) 0.4238(2) 0.68536(11)
N4_4 N 0.26708(9) 0.33192(18) 0.67944(9)
C17_4 C 0.29480(10) 0.2902(2) 0.70946(10)
N5_4 N 0.32050(8) 0.33216(18) 0.74089(8)
C18_4 C 0.31378(10) 0.4242(2) 0.74413(10)
N6_4 N 0.28495(9) 0.47260(18) 0.71746(9)
N7_7 N 0.44036(8) 0.54471(18) 0.94391(8)
C19_4 C 0.47087(10) 0.4809(2) 0.94069(10)
H13_4 H 0.4897 0.4898 0.9197
C20_4 C 0.47560(10) 0.4031(2) 0.96693(10)
H14_4 H 0.4972 0.3587 0.9638
C21_4 C 0.44848(9) 0.3902(2) 0.99786(10)
C23_7 C 0.41525(11) 0.5338(2) 0.97483(11)
H16_7 H 0.3943 0.5799 0.9778
Zn3_3 Zn 0.79323(2) 0.35157(3) 0.70820(2)
Cl5_5 Cl 0.73057(4) 0.30585(7) 0.67615(4)
Cl6_5 Cl 0.82248(5) 0.31327(7) 0.77417(4)
C1_5 C 0.67378(15) 0.0313(3) 0.09539(15)
H1_5 H 0.6553 0.0664 0.0747
C2_5 C 0.70406(14) 0.0782(3) 0.12354(14)
H2_5 H 0.7064 0.1440 0.1221
C3_5 C 0.73088(11) 0.0280(2) 0.15387(11)
N2_3 N 0.79318(10) 0.50536(19) 0.20908(9)
C6_5 C 0.76806(13) 0.4573(3) 0.17893(13)
H5_5 H 0.7495 0.4904 0.1575
C7_5 C 0.76805(12) 0.3615(2) 0.17760(13)
H6_5 H 0.7497 0.3290 0.1558
C8_5 C 0.79516(10) 0.3134(2) 0.20858(10)
C9_5 C 0.82068(15) 0.3623(2) 0.24044(12)
H7_5 H 0.8392 0.3309 0.2626
C10_5 C 0.81854(16) 0.4587(3) 0.23920(13)
H8_5 H 0.8361 0.4929 0.2610
C13_5 C 0.83957(10) 0.0261(2) 0.28065(11)
C14_5 C 0.86571(12) 0.0742(2) 0.31264(12)
H11_5 H 0.8674 0.1401 0.3114
C15_5 C 0.88913(12) 0.0268(2) 0.34594(12)
H12_5 H 0.9071 0.0610 0.3674
C16_5 C 0.76317(10) 0.0762(2) 0.18536(11)
N4_5 N 0.76708(9) 0.16808(18) 0.17944(9)
C17_5 C 0.79480(10) 0.2098(2) 0.20946(10)
N5_5 N 0.82050(8) 0.16784(18) 0.24089(8)
C18_5 C 0.81378(10) 0.0758(2) 0.24413(10)
N6_5 N 0.78495(9) 0.02740(18) 0.21746(9)
C19_5 C 0.97087(10) 0.0191(2) 0.44069(10)
H13_5 H 0.9897 0.0102 0.4197
C20_5 C 0.97560(10) 0.0969(2) 0.46693(10)
H14_5 H 0.9972 0.1413 0.4638
C21_5 C 0.94848(9) 0.1098(2) 0.49786(10)
C22_5 C 0.91841(10) 0.0417(2) 0.50258(11)
H15_5 H 0.9003 0.0470 0.5245
H19_5 H 0.9902 0.4975 0.5860
N9_5 N 0.83497(11) 0.3228(2) 0.66536(10)
C29_5 C 0.82464(13) 0.2697(3) 0.63004(13)
H21_5 H 0.7970 0.2430 0.6248
C30_5 C 0.85286(13) 0.2526(3) 0.60101(13)
H22_5 H 0.8447 0.2139 0.5764
C31_5 C 0.89334(11) 0.2919(2) 0.60765(11)
C32_5 C 0.90376(15) 0.3469(3) 0.64445(14)
H23_5 H 0.9309 0.3760 0.6501
C33_5 C 0.87427(16) 0.3584(3) 0.67242(15)
H24_5 H 0.8822 0.3936 0.6982
C34_5 C 0.95021(9) 0.1948(2) 0.52530(10)
N10_5 N 0.98048(8) 0.25756(18) 0.52060(8)
C35_5 C 0.98009(10) 0.3323(2) 0.54679(10)
N11_5 N 0.95286(9) 0.34685(19) 0.57487(9)
C36_5 C 0.92405(10) 0.2796(2) 0.57657(10)
N12_5 N 0.92122(8) 0.20187(19) 0.55249(9)
Zn5_3 Zn 0.79323(2) 0.64843(3) 0.20820(2)
N13_3 N 0.79318(10) 0.49464(19) 0.70908(9)
Cl5_6 Cl 0.73057(4) 0.69415(7) 0.17615(4)
Cl6_6 Cl 0.82248(5) 0.68673(7) 0.27417(4)
C22_6 C 0.91841(10) 0.9583(2) 0.00258(11)
H15_6 H 0.9003 0.9530 0.0245
H19_6 H 0.9902 0.5025 0.0860
N9_6 N 0.83497(11) 0.6772(2) 0.16536(10)
C29_6 C 0.82464(13) 0.7303(3) 0.13004(13)
H21_6 H 0.7970 0.7570 0.1248
C30_6 C 0.85286(13) 0.7474(3) 0.10101(13)
H22_6 H 0.8447 0.7861 0.0764
C31_6 C 0.89334(11) 0.7081(2) 0.10765(11)
C32_6 C 0.90376(15) 0.6531(3) 0.14445(14)
H23_6 H 0.9309 0.6240 0.1501
C33_6 C 0.87427(16) 0.6416(3) 0.17242(15)
H24_6 H 0.8822 0.6064 0.1982
C34_6 C 0.95021(9) 0.8052(2) 0.02530(10)
N10_6 N 0.98048(8) 0.74244(18) 0.02060(8)
C35_6 C 0.98009(10) 0.6677(2) 0.04679(10)
N11_6 N 0.95286(9) 0.65315(19) 0.07487(9)
C36_6 C 0.92405(10) 0.7204(2) 0.07657(10)
N12_6 N 0.92122(8) 0.79813(19) 0.05249(9)
C1_6 C 0.67378(15) 0.9687(3) 0.59539(15)
H1_6 H 0.6553 0.9336 0.5747
C2_6 C 0.70406(14) 0.9218(3) 0.62354(14)
H2_6 H 0.7064 0.8560 0.6221
C3_6 C 0.73088(11) 0.9720(2) 0.65387(11)
C6_6 C 0.76806(13) 0.5427(3) 0.67893(13)
H5_6 H 0.7495 0.5096 0.6575
C7_6 C 0.76805(12) 0.6385(2) 0.67760(13)
H6_6 H 0.7497 0.6710 0.6558
C8_6 C 0.79516(10) 0.6866(2) 0.70858(10)
C9_6 C 0.82068(15) 0.6377(2) 0.74044(12)
H7_6 H 0.8392 0.6691 0.7626
C10_6 C 0.81854(16) 0.5413(3) 0.73920(13)
H8_6 H 0.8361 0.5071 0.7610
C13_6 C 0.83957(10) 0.9739(2) 0.78065(11)
C14_6 C 0.86571(12) 0.9258(2) 0.81264(12)
H11_6 H 0.8674 0.8599 0.8114
C15_6 C 0.88913(12) 0.9732(2) 0.84594(12)
H12_6 H 0.9071 0.9390 0.8674
C16_6 C 0.76317(10) 0.9238(2) 0.68536(11)
N4_6 N 0.76708(9) 0.83192(18) 0.67944(9)
C17_6 C 0.79480(10) 0.7902(2) 0.70946(10)
N5_6 N 0.82050(8) 0.83216(18) 0.74089(8)
C18_6 C 0.81378(10) 0.9242(2) 0.74413(10)
N6_6 N 0.78495(9) 0.97260(18) 0.71746(9)
C19_6 C 0.97087(10) 0.9809(2) 0.94069(10)
H13_6 H 0.9897 0.9898 0.9197
C20_6 C 0.97560(10) 0.9031(2) 0.96693(10)
H14_6 H 0.9972 0.8587 0.9638
C21_6 C 0.94848(9) 0.8902(2) 0.99786(10)
Zn1_4 Zn 0.62703(2) 0.87061(3) 0.05002(2)
Zn2_8 Zn 0.92523(2) 0.85546(3) 0.39655(2)
Cl1_8 Cl 0.60816(4) 0.74274(7) 0.08182(5)
Cl3_8 Cl 0.88210(4) 0.75359(7) 0.42148(4)
Cl4_8 Cl 0.98464(4) 0.82054(8) 0.37054(3)
N1_8 N 0.66907(10) 0.9396(2) 0.09577(11)
C4_8 C 0.72571(12) 0.9327(2) 0.15497(12)
H3_8 H 0.7433 0.8959 0.1758
C5_8 C 0.69460(12) 0.8913(2) 0.12536(13)
H4_8 H 0.6913 0.8256 0.1262
N3_8 N 0.88772(9) 0.93320(19) 0.34950(9)
C11_8 C 0.86171(13) 0.8875(2) 0.31954(12)
H9_8 H 0.8598 0.8218 0.3221
C12_8 C 0.83729(13) 0.9304(2) 0.28478(12)
H10_8 H 0.8192 0.8948 0.2640
N7_8 N 0.94036(8) 0.95529(18) 0.44391(8)
C23_8 C 0.91525(11) 0.9662(2) 0.47483(11)
H16_8 H 0.8943 0.9201 0.4778
N14_4 N 0.57516(10) 0.9599(2) 0.04335(10)
C28_8 C 0.54412(13) 0.9487(3) 0.06701(15)
H20_8 H 0.5436 0.8933 0.0838
Cl2_6 Cl 0.65336(4) 0.88631(10) 0.98801(4)
C1_7 C 0.32622(15) 0.0313(3) 0.40461(15)
H1_7 H 0.3447 0.0664 0.4253
C2_7 C 0.29594(14) 0.0782(3) 0.37646(14)
H2_7 H 0.2936 0.1440 0.3779
C3_7 C 0.26912(11) 0.0280(2) 0.34613(11)
N2_4 N 0.20682(10) 0.50536(19) 0.29092(9)
C6_7 C 0.23194(13) 0.4573(3) 0.32107(13)
H5_7 H 0.2505 0.4904 0.3425
C7_7 C 0.23195(12) 0.3615(2) 0.32240(13)
H6_7 H 0.2503 0.3290 0.3442
C8_7 C 0.20484(10) 0.3134(2) 0.29142(10)
C9_7 C 0.17932(15) 0.3623(2) 0.25956(12)
H7_7 H 0.1608 0.3309 0.2374
C10_7 C 0.18146(16) 0.4587(3) 0.26080(13)
H8_7 H 0.1639 0.4929 0.2390
C13_7 C 0.16043(10) 0.0261(2) 0.21935(11)
C14_7 C 0.13429(12) 0.0742(2) 0.18736(12)
H11_7 H 0.1326 0.1401 0.1886
C15_7 C 0.11087(12) 0.0268(2) 0.15406(12)
H12_7 H 0.0929 0.0610 0.1326
C16_7 C 0.23683(10) 0.0762(2) 0.31464(11)
N4_7 N 0.23292(9) 0.16808(18) 0.32056(9)
C17_7 C 0.20520(10) 0.2098(2) 0.29054(10)
N5_7 N 0.17950(8) 0.16784(18) 0.25911(8)
C18_7 C 0.18622(10) 0.0758(2) 0.25587(10)
N6_7 N 0.21505(9) 0.02740(18) 0.28254(9)
C19_7 C 0.02913(10) 0.0191(2) 0.05931(10)
H13_7 H 0.0103 0.0102 0.0803
C20_7 C 0.02440(10) 0.0969(2) 0.03307(10)
H14_7 H 0.0028 0.1413 0.0362
C21_7 C 0.05152(9) 0.1098(2) 0.00214(10)
Zn5_4 Zn 0.20677(2) 0.64843(3) 0.29180(2)
Zn3_4 Zn 0.20677(2) 0.35157(3) 0.79180(2)
Cl5_7 Cl 0.26943(4) 0.30585(7) 0.82385(4)
Cl6_7 Cl 0.17752(5) 0.31327(7) 0.72583(4)
C22_7 C 0.08159(10) 0.0417(2) 0.99742(11)
H15_7 H 0.0997 0.0470 0.9755
H19_7 H 0.0098 0.4975 0.9140
N9_7 N 0.16503(11) 0.3228(2) 0.83464(10)
C29_7 C 0.17536(13) 0.2697(3) 0.86996(13)
H21_7 H 0.2030 0.2430 0.8752
C30_7 C 0.14714(13) 0.2526(3) 0.89899(13)
H22_7 H 0.1553 0.2139 0.9236
C31_7 C 0.10666(11) 0.2919(2) 0.89235(11)
C32_7 C 0.09624(15) 0.3469(3) 0.85555(14)
H23_7 H 0.0691 0.3760 0.8499
C33_7 C 0.12573(16) 0.3584(3) 0.82758(15)
H24_7 H 0.1178 0.3936 0.8018
C34_7 C 0.04979(9) 0.1948(2) 0.97470(10)
N10_7 N 0.01952(8) 0.25756(18) 0.97940(8)
C35_7 C 0.01991(10) 0.3323(2) 0.95321(10)
N11_7 N 0.04714(9) 0.34685(19) 0.92513(9)
C36_7 C 0.07595(10) 0.2796(2) 0.92343(10)
N12_7 N 0.07878(8) 0.20187(19) 0.94751(9)
N13_4 N 0.20682(10) 0.49464(19) 0.79092(9)
Cl5_8 Cl 0.26943(4) 0.69415(7) 0.32385(4)
Cl6_8 Cl 0.17752(5) 0.68673(7) 0.22583(4)
C1_8 C 0.32622(15) 0.9687(3) 0.90461(15)
H1_8 H 0.3447 0.9336 0.9253
C2_8 C 0.29594(14) 0.9218(3) 0.87646(14)
H2_8 H 0.2936 0.8560 0.8779
C3_8 C 0.26912(11) 0.9720(2) 0.84613(11)
C6_8 C 0.23194(13) 0.5427(3) 0.82107(13)
H5_8 H 0.2505 0.5096 0.8425
C7_8 C 0.23195(12) 0.6385(2) 0.82240(13)
H6_8 H 0.2503 0.6710 0.8442
C8_8 C 0.20484(10) 0.6866(2) 0.79142(10)
C9_8 C 0.17932(15) 0.6377(2) 0.75956(12)
H7_8 H 0.1608 0.6691 0.7374
C10_8 C 0.18146(16) 0.5413(3) 0.76080(13)
H8_8 H 0.1639 0.5071 0.7390
C13_8 C 0.16043(10) 0.9739(2) 0.71935(11)
C14_8 C 0.13429(12) 0.9258(2) 0.68736(12)
H11_8 H 0.1326 0.8599 0.6886
C15_8 C 0.11087(12) 0.9732(2) 0.65406(12)
H12_8 H 0.0929 0.9390 0.6326
C16_8 C 0.23683(10) 0.9238(2) 0.81464(11)
N4_8 N 0.23292(9) 0.83192(18) 0.82056(9)
C17_8 C 0.20520(10) 0.7902(2) 0.79054(10)
N5_8 N 0.17950(8) 0.83216(18) 0.75911(8)
C18_8 C 0.18622(10) 0.9242(2) 0.75587(10)
N6_8 N 0.21505(9) 0.97260(18) 0.78254(9)
C19_8 C 0.02913(10) 0.9809(2) 0.55931(10)
H13_8 H 0.0103 0.9898 0.5803
C20_8 C 0.02440(10) 0.9031(2) 0.53307(10)
H14_8 H 0.0028 0.8587 0.5362
C21_8 C 0.05152(9) 0.8902(2) 0.50214(10)
C22_8 C 0.08159(10) 0.9583(2) 0.49742(11)
H15_8 H 0.0997 0.9530 0.4755
H19_8 H 0.0098 0.5025 0.4140
N9_8 N 0.16503(11) 0.6772(2) 0.33464(10)
C29_8 C 0.17536(13) 0.7303(3) 0.36996(13)
H21_8 H 0.2030 0.7570 0.3752
C30_8 C 0.14714(13) 0.7474(3) 0.39899(13)
H22_8 H 0.1553 0.7861 0.4236
C31_8 C 0.10666(11) 0.7081(2) 0.39235(11)
C32_8 C 0.09624(15) 0.6531(3) 0.35555(14)
H23_8 H 0.0691 0.6240 0.3499
C33_8 C 0.12573(16) 0.6416(3) 0.32758(15)
H24_8 H 0.1178 0.6064 0.3018
C34_8 C 0.04979(9) 0.8052(2) 0.47470(10)
N10_8 N 0.01952(8) 0.74244(18) 0.47940(8)
C35_8 C 0.01991(10) 0.6677(2) 0.45321(10)
N11_8 N 0.04714(9) 0.65315(19) 0.42513(9)
C36_8 C 0.07595(10) 0.7204(2) 0.42343(10)
N12_8 N 0.07878(8) 0.79813(19) 0.44751(9)
Cl2_7 Cl 0.84664(4) 0.61369(10) 0.01199(4)
Cl2_8 Cl 0.34664(4) 0.11369(10) 0.01199(4)
loop_
_geom_bond_atom_site_label_1
_geom_bond_atom_site_label_2
_geom_bond_site_symmetry_1
_geom_bond_site_symmetry_2
C28 N8 1_555 1_555
H20 C28 1_555 1_555
Zn4 N8 1_555 1_555
Zn5 N2 1_555 1_555
Zn5 Cl5 1_555 1_555
Cl6 Zn5 1_555 1_555
H15 C22 1_555 1_555
C24 H17 1_555 1_555
C25 C24 1_555 1_555
H18 C25 1_555 1_555
C26 C25 1_555 1_555
C27 C26 1_555 1_555
H19 C27 1_555 1_555
N9 Zn5 1_555 1_555
C29 N9 1_555 1_555
H21 C29 1_555 1_555
C30 C29 1_555 1_555
H22 C30 1_555 1_555
C31 C30 1_555 1_555
C32 C31 1_555 1_555
H23 C32 1_555 1_555
C33 N9 1_555 1_555
H24 C33 1_555 1_555
N10 C34 1_555 1_555
C35 C26 1_555 1_555
N11 C35 1_555 1_555
C36 C31 1_555 1_555
N12 C34 1_555 1_555
C32 C33 1_555 1_555
N10 C35 1_555 1_555
N11 C36 1_555 1_555
C36 N12 1_555 1_555
Zn4 Cl1 1_555 1_555
Zn2 Cl3 1_555 1_555
Cl2 Zn4 1_555 1_555
Cl4 Zn2 1_555 1_555
N1 Zn4 1_555 1_555
H3 C4 1_555 1_555
C5 N1 1_555 1_555
H4 C5 1_555 1_555
N3 Zn2 1_555 1_555
C11 N3 1_555 1_555
H9 C11 1_555 1_555
C12 C11 1_555 1_555
H10 C12 1_555 1_555
N7 Zn2 1_555 1_555
C23 N7 1_555 1_555
H16 C23 1_555 1_555
C4 C5 1_555 1_555
Zn1 Cl1_2 1_555 1_555
Zn2_2 Cl3_2 1_555 1_555
Zn3 Cl5_2 1_555 1_555
Cl4_2 Zn2_2 1_555 1_555
Cl6_2 Zn3 1_555 1_555
N1_2 Zn1 1_555 1_555
C1 N1_2 1_555 1_555
H1 C1 1_555 1_555
C2 C1 1_555 1_555
H2 C2 1_555 1_555
C3 C2 1_555 1_555
C4_2 C3 1_555 1_555
H3_2 C4_2 1_555 1_555
C5_2 N1_2 1_555 1_555
H4_2 C5_2 1_555 1_555
C6 H5 1_555 1_555
C7 C6 1_555 1_555
H6 C7 1_555 1_555
C8 C7 1_555 1_555
C9 C8 1_555 1_555
H7 C9 1_555 1_555
H8 C10 1_555 1_555
N3_2 Zn2_2 1_555 1_555
C11_2 N3_2 1_555 1_555
H9_2 C11_2 1_555 1_555
C12_2 C11_2 1_555 1_555
H10_2 C12_2 1_555 1_555
C13 C12_2 1_555 1_555
C14 C13 1_555 1_555
H11 C14 1_555 1_555
C15 N3_2 1_555 1_555
H12 C15 1_555 1_555
C16 C3 1_555 1_555
N4 C16 1_555 1_555
C17 C8 1_555 1_555
N5 C17 1_555 1_555
C18 C13 1_555 1_555
N6 C16 1_555 1_555
N7_2 Zn2_2 1_555 1_555
C19 N7_2 1_555 1_555
H13 C19 1_555 1_555
C20 C19 1_555 1_555
H14 C20 1_555 1_555
C21 C20 1_555 1_555
C22_2 C21 1_555 1_555
H15_2 C22_2 1_555 1_555
C23_2 N7_2 1_555 1_555
H16_2 C23_2 1_555 1_555
C24_2 H17_2 1_555 1_555
C25_2 C24_2 1_555 1_555
H18_2 C25_2 1_555 1_555
C26_2 C25_2 1_555 1_555
C27_2 C26_2 1_555 1_555
H19_2 C27_2 1_555 1_555
N9_2 Zn3 1_555 1_555
C29_2 N9_2 1_555 1_555
H21_2 C29_2 1_555 1_555
C30_2 C29_2 1_555 1_555
H22_2 C30_2 1_555 1_555
C31_2 C30_2 1_555 1_555
C32_2 C31_2 1_555 1_555
H23_2 C32_2 1_555 1_555
C33_2 N9_2 1_555 1_555
H24_2 C33_2 1_555 1_555
C34_2 C21 1_555 1_555
N10_2 C34_2 1_555 1_555
C35_2 C26_2 1_555 1_555
N11_2 C35_2 1_555 1_555
C36_2 C31_2 1_555 1_555
N12_2 C34_2 1_555 1_555
N13 Zn3 1_555 1_555
N14 Zn1 1_555 1_555
C4_2 C5_2 1_555 1_555
C9 C10 1_555 1_555
C14 C15 1_555 1_555
N4 C17 1_555 1_555
N5 C18 1_555 1_555
C18 N6 1_555 1_555
C22_2 C23_2 1_555 1_555
C32_2 C33_2 1_555 1_555
N10_2 C35_2 1_555 1_555
N11_2 C36_2 1_555 1_555
C36_2 N12_2 1_555 1_555
N14 C24_3 1_555 1_555
C24_3 H17_3 1_555 1_555
C25_3 C24_3 1_555 1_555
H18_3 C25_3 1_555 1_555
C26_3 C25_3 1_555 1_555
C27_3 C26_3 1_555 1_555
C28_2 N14 1_555 1_555
H20_2 C28_2 1_555 1_555
C27_3 C28_2 1_555 1_555
Zn5_2 N2_2 1_555 1_555
N8_2 C24_4 1_555 1_555
C24_4 H17_4 1_555 1_555
C25_4 C24_4 1_555 1_555
H18_4 C25_4 1_555 1_555
C26_4 C25_4 1_555 1_555
C27_4 C26_4 1_555 1_555
C28_3 N8_2 1_555 1_555
H20_3 C28_3 1_555 1_555
Zn4_2 N8_2 1_555 1_555
C27_4 C28_3 1_555 1_555
Zn4_2 Cl1_3 1_555 1_555
Zn2_3 Cl3_3 1_555 1_555
Zn5_2 Cl5_3 1_555 1_555
Cl4_3 Zn2_3 1_555 1_555
Cl6_3 Zn5_2 1_555 1_555
N1_3 Zn4_2 1_555 1_555
C1_2 N1_3 1_555 1_555
H1_2 C1_2 1_555 1_555
C2_2 C1_2 1_555 1_555
H2_2 C2_2 1_555 1_555
C3_2 C2_2 1_555 1_555
C4_3 C3_2 1_555 1_555
H3_3 C4_3 1_555 1_555
C5_3 N1_3 1_555 1_555
H4_3 C5_3 1_555 1_555
C6_2 H5_2 1_555 1_555
C7_2 C6_2 1_555 1_555
H6_2 C7_2 1_555 1_555
C8_2 C7_2 1_555 1_555
C9_2 C8_2 1_555 1_555
H7_2 C9_2 1_555 1_555
H8_2 C10_2 1_555 1_555
N3_3 Zn2_3 1_555 1_555
C11_3 N3_3 1_555 1_555
H9_3 C11_3 1_555 1_555
C12_3 C11_3 1_555 1_555
H10_3 C12_3 1_555 1_555
C13_2 C12_3 1_555 1_555
C14_2 C13_2 1_555 1_555
H11_2 C14_2 1_555 1_555
C15_2 N3_3 1_555 1_555
H12_2 C15_2 1_555 1_555
C16_2 C3_2 1_555 1_555
N4_2 C16_2 1_555 1_555
C17_2 C8_2 1_555 1_555
N5_2 C17_2 1_555 1_555
C18_2 C13_2 1_555 1_555
N6_2 C16_2 1_555 1_555
N7_3 Zn2_3 1_555 1_555
C19_2 N7_3 1_555 1_555
H13_2 C19_2 1_555 1_555
C20_2 C19_2 1_555 1_555
H14_2 C20_2 1_555 1_555
C21_2 C20_2 1_555 1_555
C22_3 C21_2 1_555 1_555
H15_3 C22_3 1_555 1_555
C23_3 N7_3 1_555 1_555
H16_3 C23_3 1_555 1_555
C24_5 H17_5 1_555 1_555
C25_5 C24_5 1_555 1_555
H18_5 C25_5 1_555 1_555
C26_5 C25_5 1_555 1_555
C27_5 C26_5 1_555 1_555
H19_3 C27_5 1_555 1_555
N9_3 Zn5_2 1_555 1_555
C29_3 N9_3 1_555 1_555
H21_3 C29_3 1_555 1_555
C30_3 C29_3 1_555 1_555
H22_3 C30_3 1_555 1_555
C31_3 C30_3 1_555 1_555
C32_3 C31_3 1_555 1_555
H23_3 C32_3 1_555 1_555
C33_3 N9_3 1_555 1_555
H24_3 C33_3 1_555 1_555
C34_3 C21_2 1_555 1_555
N10_3 C34_3 1_555 1_555
C35_3 C26_5 1_555 1_555
N11_3 C35_3 1_555 1_555
C36_3 C31_3 1_555 1_555
N12_3 C34_3 1_555 1_555
C4_3 C5_3 1_555 1_555
C9_2 C10_2 1_555 1_555
C14_2 C15_2 1_555 1_555
N4_2 C17_2 1_555 1_555
N5_2 C18_2 1_555 1_555
C18_2 N6_2 1_555 1_555
C22_3 C23_3 1_555 1_555
C32_3 C33_3 1_555 1_555
N10_3 C35_3 1_555 1_555
N11_3 C36_3 1_555 1_555
C36_3 N12_3 1_555 1_555
C28_4 N8_3 1_555 1_555
H20_4 C28_4 1_555 1_555
Zn4_3 N8_3 1_555 1_555
Zn4_3 Cl1_4 1_555 1_555
Zn2_4 Cl3_4 1_555 1_555
Cl4_4 Zn2_4 1_555 1_555
N1_4 Zn4_3 1_555 1_555
H3_4 C4_4 1_555 1_555
C5_4 N1_4 1_555 1_555
H4_4 C5_4 1_555 1_555
N3_4 Zn2_4 1_555 1_555
C11_4 N3_4 1_555 1_555
H9_4 C11_4 1_555 1_555
C12_4 C11_4 1_555 1_555
H10_4 C12_4 1_555 1_555
N7_4 Zn2_4 1_555 1_555
C23_4 N7_4 1_555 1_555
H16_4 C23_4 1_555 1_555
C4_4 C5_4 1_555 1_555
Zn1_2 Cl1_5 1_555 1_555
Zn2_5 Cl3_5 1_555 1_555
Cl2_3 Zn1_2 1_555 1_555
Cl4_5 Zn2_5 1_555 1_555
N1_5 Zn1_2 1_555 1_555
C1_3 N1_5 1_555 1_555
H1_3 C1_3 1_555 1_555
C2_3 C1_3 1_555 1_555
H2_3 C2_3 1_555 1_555
C3_3 C2_3 1_555 1_555
C4_5 C3_3 1_555 1_555
H3_5 C4_5 1_555 1_555
C5_5 N1_5 1_555 1_555
H4_5 C5_5 1_555 1_555
C6_3 H5_3 1_555 1_555
C7_3 C6_3 1_555 1_555
H6_3 C7_3 1_555 1_555
C8_3 C7_3 1_555 1_555
C9_3 C8_3 1_555 1_555
H7_3 C9_3 1_555 1_555
H8_3 C10_3 1_555 1_555
N3_5 Zn2_5 1_555 1_555
C11_5 N3_5 1_555 1_555
H9_5 C11_5 1_555 1_555
C12_5 C11_5 1_555 1_555
H10_5 C12_5 1_555 1_555
C13_3 C12_5 1_555 1_555
C14_3 C13_3 1_555 1_555
H11_3 C14_3 1_555 1_555
C15_3 N3_5 1_555 1_555
H12_3 C15_3 1_555 1_555
C16_3 C3_3 1_555 1_555
N4_3 C16_3 1_555 1_555
C17_3 C8_3 1_555 1_555
N5_3 C17_3 1_555 1_555
C18_3 C13_3 1_555 1_555
N6_3 C16_3 1_555 1_555
N7_5 Zn2_5 1_555 1_555
C19_3 N7_5 1_555 1_555
H13_3 C19_3 1_555 1_555
C20_3 C19_3 1_555 1_555
H14_3 C20_3 1_555 1_555
C21_3 C20_3 1_555 1_555
C23_5 N7_5 1_555 1_555
H16_5 C23_5 1_555 1_555
N14_2 Zn1_2 1_555 1_555
C4_5 C5_5 1_555 1_555
C9_3 C10_3 1_555 1_555
C14_3 C15_3 1_555 1_555
N4_3 C17_3 1_555 1_555
N5_3 C18_3 1_555 1_555
C18_3 N6_3 1_555 1_555
N14_2 C24_6 1_555 1_555
C24_6 H17_6 1_555 1_555
C25_6 C24_6 1_555 1_555
H18_6 C25_6 1_555 1_555
C26_6 C25_6 1_555 1_555
C27_6 C26_6 1_555 1_555
C28_5 N14_2 1_555 1_555
H20_5 C28_5 1_555 1_555
C27_6 C28_5 1_555 1_555
Zn3_2 Cl5_4 1_555 1_555
Cl6_4 Zn3_2 1_555 1_555
H15_4 C22_4 1_555 1_555
C24_7 H17_7 1_555 1_555
C25_7 C24_7 1_555 1_555
H18_7 C25_7 1_555 1_555
C26_7 C25_7 1_555 1_555
C27_7 C26_7 1_555 1_555
H19_4 C27_7 1_555 1_555
N9_4 Zn3_2 1_555 1_555
C29_4 N9_4 1_555 1_555
H21_4 C29_4 1_555 1_555
C30_4 C29_4 1_555 1_555
H22_4 C30_4 1_555 1_555
C31_4 C30_4 1_555 1_555
C32_4 C31_4 1_555 1_555
H23_4 C32_4 1_555 1_555
C33_4 N9_4 1_555 1_555
H24_4 C33_4 1_555 1_555
N10_4 C34_4 1_555 1_555
C35_4 C26_7 1_555 1_555
N11_4 C35_4 1_555 1_555
C36_4 C31_4 1_555 1_555
N12_4 C34_4 1_555 1_555
N13_2 Zn3_2 1_555 1_555
C32_4 C33_4 1_555 1_555
N10_4 C35_4 1_555 1_555
N11_4 C36_4 1_555 1_555
C36_4 N12_4 1_555 1_555
Zn1_3 Cl1_6 1_555 1_555
Zn2_6 Cl3_6 1_555 1_555
Cl2_4 Zn1_3 1_555 1_555
Cl4_6 Zn2_6 1_555 1_555
N1_6 Zn1_3 1_555 1_555
H3_6 C4_6 1_555 1_555
C5_6 N1_6 1_555 1_555
H4_6 C5_6 1_555 1_555
N3_6 Zn2_6 1_555 1_555
C11_6 N3_6 1_555 1_555
H9_6 C11_6 1_555 1_555
C12_6 C11_6 1_555 1_555
H10_6 C12_6 1_555 1_555
N7_6 Zn2_6 1_555 1_555
C23_6 N7_6 1_555 1_555
H16_6 C23_6 1_555 1_555
N14_3 Zn1_3 1_555 1_555
C4_6 C5_6 1_555 1_555
C28_6 N14_3 1_555 1_555
H20_6 C28_6 1_555 1_555
N8_4 C24_8 1_555 1_555
C24_8 H17_8 1_555 1_555
C25_8 C24_8 1_555 1_555
H18_8 C25_8 1_555 1_555
C26_8 C25_8 1_555 1_555
C27_8 C26_8 1_555 1_555
C28_7 N8_4 1_555 1_555
H20_7 C28_7 1_555 1_555
Zn4_4 N8_4 1_555 1_555
C27_8 C28_7 1_555 1_555
Zn4_4 Cl1_7 1_555 1_555
Zn2_7 Cl3_7 1_555 1_555
Cl2_5 Zn4_4 1_555 1_555
Cl4_7 Zn2_7 1_555 1_555
N1_7 Zn4_4 1_555 1_555
C1_4 N1_7 1_555 1_555
H1_4 C1_4 1_555 1_555
C2_4 C1_4 1_555 1_555
H2_4 C2_4 1_555 1_555
C3_4 C2_4 1_555 1_555
C4_7 C3_4 1_555 1_555
H3_7 C4_7 1_555 1_555
C5_7 N1_7 1_555 1_555
H4_7 C5_7 1_555 1_555
C6_4 H5_4 1_555 1_555
C7_4 C6_4 1_555 1_555
H6_4 C7_4 1_555 1_555
C8_4 C7_4 1_555 1_555
C9_4 C8_4 1_555 1_555
H7_4 C9_4 1_555 1_555
H8_4 C10_4 1_555 1_555
N3_7 Zn2_7 1_555 1_555
C11_7 N3_7 1_555 1_555
H9_7 C11_7 1_555 1_555
C12_7 C11_7 1_555 1_555
H10_7 C12_7 1_555 1_555
C13_4 C12_7 1_555 1_555
C14_4 C13_4 1_555 1_555
H11_4 C14_4 1_555 1_555
C15_4 N3_7 1_555 1_555
H12_4 C15_4 1_555 1_555
C16_4 C3_4 1_555 1_555
N4_4 C16_4 1_555 1_555
C17_4 C8_4 1_555 1_555
N5_4 C17_4 1_555 1_555
C18_4 C13_4 1_555 1_555
N6_4 C16_4 1_555 1_555
N7_7 Zn2_7 1_555 1_555
C19_4 N7_7 1_555 1_555
H13_4 C19_4 1_555 1_555
C20_4 C19_4 1_555 1_555
H14_4 C20_4 1_555 1_555
C21_4 C20_4 1_555 1_555
C23_7 N7_7 1_555 1_555
H16_7 C23_7 1_555 1_555
C4_7 C5_7 1_555 1_555
C9_4 C10_4 1_555 1_555
C14_4 C15_4 1_555 1_555
N4_4 C17_4 1_555 1_555
N5_4 C18_4 1_555 1_555
C18_4 N6_4 1_555 1_555
Zn3_3 Cl5_5 1_555 1_555
Cl6_5 Zn3_3 1_555 1_555
H1_5 C1_5 1_555 1_555
C2_5 C1_5 1_555 1_555
H2_5 C2_5 1_555 1_555
C3_5 C2_5 1_555 1_555
N2_3 C6_5 1_555 1_555
C6_5 H5_5 1_555 1_555
C7_5 C6_5 1_555 1_555
H6_5 C7_5 1_555 1_555
C8_5 C7_5 1_555 1_555
C9_5 C8_5 1_555 1_555
H7_5 C9_5 1_555 1_555
C10_5 N2_3 1_555 1_555
H8_5 C10_5 1_555 1_555
C14_5 C13_5 1_555 1_555
H11_5 C14_5 1_555 1_555
H12_5 C15_5 1_555 1_555
C16_5 C3_5 1_555 1_555
N4_5 C16_5 1_555 1_555
C17_5 C8_5 1_555 1_555
N5_5 C17_5 1_555 1_555
C18_5 C13_5 1_555 1_555
N6_5 C16_5 1_555 1_555
H13_5 C19_5 1_555 1_555
C20_5 C19_5 1_555 1_555
H14_5 C20_5 1_555 1_555
C21_5 C20_5 1_555 1_555
C22_5 C21_5 1_555 1_555
H15_5 C22_5 1_555 1_555
N9_5 Zn3_3 1_555 1_555
C29_5 N9_5 1_555 1_555
H21_5 C29_5 1_555 1_555
C30_5 C29_5 1_555 1_555
H22_5 C30_5 1_555 1_555
C31_5 C30_5 1_555 1_555
C32_5 C31_5 1_555 1_555
H23_5 C32_5 1_555 1_555
C33_5 N9_5 1_555 1_555
H24_5 C33_5 1_555 1_555
C34_5 C21_5 1_555 1_555
N10_5 C34_5 1_555 1_555
N11_5 C35_5 1_555 1_555
C36_5 C31_5 1_555 1_555
N12_5 C34_5 1_555 1_555
Zn5_3 N2_3 1_555 1_555
N13_3 Zn3_3 1_555 1_555
C9_5 C10_5 1_555 1_555
C14_5 C15_5 1_555 1_555
N4_5 C17_5 1_555 1_555
N5_5 C18_5 1_555 1_555
C18_5 N6_5 1_555 1_555
C32_5 C33_5 1_555 1_555
N10_5 C35_5 1_555 1_555
N11_5 C36_5 1_555 1_555
C36_5 N12_5 1_555 1_555
Zn5_3 Cl5_6 1_555 1_555
Cl6_6 Zn5_3 1_555 1_555
H15_6 C22_6 1_555 1_555
N9_6 Zn5_3 1_555 1_555
C29_6 N9_6 1_555 1_555
H21_6 C29_6 1_555 1_555
C30_6 C29_6 1_555 1_555
H22_6 C30_6 1_555 1_555
C31_6 C30_6 1_555 1_555
C32_6 C31_6 1_555 1_555
H23_6 C32_6 1_555 1_555
C33_6 N9_6 1_555 1_555
H24_6 C33_6 1_555 1_555
N10_6 C34_6 1_555 1_555
N11_6 C35_6 1_555 1_555
C36_6 C31_6 1_555 1_555
N12_6 C34_6 1_555 1_555
C32_6 C33_6 1_555 1_555
N10_6 C35_6 1_555 1_555
N11_6 C36_6 1_555 1_555
C36_6 N12_6 1_555 1_555
H1_6 C1_6 1_555 1_555
C2_6 C1_6 1_555 1_555
H2_6 C2_6 1_555 1_555
C3_6 C2_6 1_555 1_555
N13_3 C6_6 1_555 1_555
C6_6 H5_6 1_555 1_555
C7_6 C6_6 1_555 1_555
H6_6 C7_6 1_555 1_555
C8_6 C7_6 1_555 1_555
C9_6 C8_6 1_555 1_555
H7_6 C9_6 1_555 1_555
C10_6 N13_3 1_555 1_555
H8_6 C10_6 1_555 1_555
C14_6 C13_6 1_555 1_555
H11_6 C14_6 1_555 1_555
H12_6 C15_6 1_555 1_555
C16_6 C3_6 1_555 1_555
N4_6 C16_6 1_555 1_555
C17_6 C8_6 1_555 1_555
N5_6 C17_6 1_555 1_555
C18_6 C13_6 1_555 1_555
N6_6 C16_6 1_555 1_555
H13_6 C19_6 1_555 1_555
C20_6 C19_6 1_555 1_555
H14_6 C20_6 1_555 1_555
C21_6 C20_6 1_555 1_555
C9_6 C10_6 1_555 1_555
C14_6 C15_6 1_555 1_555
N4_6 C17_6 1_555 1_555
N5_6 C18_6 1_555 1_555
C18_6 N6_6 1_555 1_555
Zn1_4 Cl1_8 1_555 1_555
Zn2_8 Cl3_8 1_555 1_555
Cl4_8 Zn2_8 1_555 1_555
N1_8 Zn1_4 1_555 1_555
H3_8 C4_8 1_555 1_555
C5_8 N1_8 1_555 1_555
H4_8 C5_8 1_555 1_555
N3_8 Zn2_8 1_555 1_555
C11_8 N3_8 1_555 1_555
H9_8 C11_8 1_555 1_555
C12_8 C11_8 1_555 1_555
H10_8 C12_8 1_555 1_555
N7_8 Zn2_8 1_555 1_555
C23_8 N7_8 1_555 1_555
H16_8 C23_8 1_555 1_555
N14_4 Zn1_4 1_555 1_555
C4_8 C5_8 1_555 1_555
C28_8 N14_4 1_555 1_555
H20_8 C28_8 1_555 1_555
H1_7 C1_7 1_555 1_555
C2_7 C1_7 1_555 1_555
H2_7 C2_7 1_555 1_555
C3_7 C2_7 1_555 1_555
N2_4 C6_7 1_555 1_555
C6_7 H5_7 1_555 1_555
C7_7 C6_7 1_555 1_555
H6_7 C7_7 1_555 1_555
C8_7 C7_7 1_555 1_555
C9_7 C8_7 1_555 1_555
H7_7 C9_7 1_555 1_555
C10_7 N2_4 1_555 1_555
H8_7 C10_7 1_555 1_555
C14_7 C13_7 1_555 1_555
H11_7 C14_7 1_555 1_555
H12_7 C15_7 1_555 1_555
C16_7 C3_7 1_555 1_555
N4_7 C16_7 1_555 1_555
C17_7 C8_7 1_555 1_555
N5_7 C17_7 1_555 1_555
C18_7 C13_7 1_555 1_555
N6_7 C16_7 1_555 1_555
H13_7 C19_7 1_555 1_555
C20_7 C19_7 1_555 1_555
H14_7 C20_7 1_555 1_555
C21_7 C20_7 1_555 1_555
Zn5_4 N2_4 1_555 1_555
C9_7 C10_7 1_555 1_555
C14_7 C15_7 1_555 1_555
N4_7 C17_7 1_555 1_555
N5_7 C18_7 1_555 1_555
C18_7 N6_7 1_555 1_555
Zn3_4 Cl5_7 1_555 1_555
Cl6_7 Zn3_4 1_555 1_555
H15_7 C22_7 1_555 1_555
N9_7 Zn3_4 1_555 1_555
C29_7 N9_7 1_555 1_555
H21_7 C29_7 1_555 1_555
C30_7 C29_7 1_555 1_555
H22_7 C30_7 1_555 1_555
C31_7 C30_7 1_555 1_555
C32_7 C31_7 1_555 1_555
H23_7 C32_7 1_555 1_555
C33_7 N9_7 1_555 1_555
H24_7 C33_7 1_555 1_555
N10_7 C34_7 1_555 1_555
N11_7 C35_7 1_555 1_555
C36_7 C31_7 1_555 1_555
N12_7 C34_7 1_555 1_555
N13_4 Zn3_4 1_555 1_555
C32_7 C33_7 1_555 1_555
N10_7 C35_7 1_555 1_555
N11_7 C36_7 1_555 1_555
C36_7 N12_7 1_555 1_555
Zn5_4 Cl5_8 1_555 1_555
Cl6_8 Zn5_4 1_555 1_555
H1_8 C1_8 1_555 1_555
C2_8 C1_8 1_555 1_555
H2_8 C2_8 1_555 1_555
C3_8 C2_8 1_555 1_555
N13_4 C6_8 1_555 1_555
C6_8 H5_8 1_555 1_555
C7_8 C6_8 1_555 1_555
H6_8 C7_8 1_555 1_555
C8_8 C7_8 1_555 1_555
C9_8 C8_8 1_555 1_555
H7_8 C9_8 1_555 1_555
C10_8 N13_4 1_555 1_555
H8_8 C10_8 1_555 1_555
C14_8 C13_8 1_555 1_555
H11_8 C14_8 1_555 1_555
H12_8 C15_8 1_555 1_555
C16_8 C3_8 1_555 1_555
N4_8 C16_8 1_555 1_555
C17_8 C8_8 1_555 1_555
N5_8 C17_8 1_555 1_555
C18_8 C13_8 1_555 1_555
N6_8 C16_8 1_555 1_555
H13_8 C19_8 1_555 1_555
C20_8 C19_8 1_555 1_555
H14_8 C20_8 1_555 1_555
C21_8 C20_8 1_555 1_555
C22_8 C21_8 1_555 1_555
H15_8 C22_8 1_555 1_555
N9_8 Zn5_4 1_555 1_555
C29_8 N9_8 1_555 1_555
H21_8 C29_8 1_555 1_555
C30_8 C29_8 1_555 1_555
H22_8 C30_8 1_555 1_555
C31_8 C30_8 1_555 1_555
C32_8 C31_8 1_555 1_555
H23_8 C32_8 1_555 1_555
C33_8 N9_8 1_555 1_555
H24_8 C33_8 1_555 1_555
C34_8 C21_8 1_555 1_555
N10_8 C34_8 1_555 1_555
N11_8 C35_8 1_555 1_555
C36_8 C31_8 1_555 1_555
N12_8 C34_8 1_555 1_555
C9_8 C10_8 1_555 1_555
C14_8 C15_8 1_555 1_555
N4_8 C17_8 1_555 1_555
N5_8 C18_8 1_555 1_555
C18_8 N6_8 1_555 1_555
C32_8 C33_8 1_555 1_555
N10_8 C35_8 1_555 1_555
N11_8 C36_8 1_555 1_555
C36_8 N12_8 1_555 1_555

#END
