
###############################################################################
#
# This file contains modified crystal structure data generated from the
# MOF subset of the Cambridge Structural Database (CSD) v543 
# hosted by the Cambridge Crystallographic Data Centre (CCDC).
#
# This work is licensed under the Creative Commons
# Attribution-NonCommercial-ShareAlike 4.0 International License.
# To view a copy of this license, visit
# http://creativecommons.org/licenses/by-nc-sa/4.0/
# or send a letter to
# Creative Commons, PO Box 1866, Mountain View, CA 94042, USA.
#
# CIF created using the CSD Python API on 29 September 2022
# The structure has been converted into the P1 space group
# The structure has a 3D framework
# The original CSD entry NILGUN is in the monoclinic crystal system
# The framework has been calculated to contain at least 10.0% void space
# The void calculation uses a probe of radius 1.32A, grid spacing 0.4
#
###############################################################################

data_NILGUN
_chemical_formula_moiety         '(C288 H192 Cl48 N92 Zn24)n'
_symmetry_cell_setting           triclinic
_symmetry_space_group_name_H-M   'P 1'
_symmetry_Int_Tables_number      1
_space_group_name_Hall           'P 1'
loop_
_symmetry_equiv_pos_site_id
_symmetry_equiv_pos_as_xyz
1 x,y,z
_cell_length_a                   32.7082(17)
_cell_length_b                   14.4816(6)
_cell_length_c                   30.4226(13)
_cell_angle_alpha                90
_cell_angle_beta                 99.836(3)
_cell_angle_gamma                90
_cell_volume                     14198.4
loop_
_atom_site_label
_atom_site_type_symbol
_atom_site_fract_x
_atom_site_fract_y
_atom_site_fract_z
Zn1 Zn 0.07925(2) 0.35235(3) 0.59592(2)
Cl1 Cl 0.02529(4) 0.32510(9) 0.62856(3)
Cl2 Cl 0.11610(4) 0.24976(6) 0.56615(4)
Zn3 Zn 0.19836(4) 0.85415(4) 0.29073(4)
Cl3 Cl 0.17038(10) 0.81723(12) 0.22253(6)
Cl4 Cl 0.25735(6) 0.79812(10) 0.32581(9)
N1 N 0.06119(9) 0.45399(18) 0.54909(9)
C1 C 0.08207(11) 0.4656(2) 0.51560(12)
H1 H 0.1006 0.4184 0.5097
C2 C 0.07788(11) 0.5435(2) 0.48906(11)
H2 H 0.0934 0.5499 0.4655
C3 C 0.05060(10) 0.6123(2) 0.49729(10)
C4 C 0.02778(10) 0.5987(2) 0.53088(10)
H3 H 0.0083 0.6438 0.5367
C5 C 0.03352(10) 0.5188(2) 0.55593(10)
H4 H 0.0174 0.5094 0.5787
N2 N 0.15454(14) 0.8326(2) 0.33013(15)
C6 C 0.1624(2) 0.7756(4) 0.3628(2)
H5 H 0.1882 0.7437 0.3670
C7 C 0.13545(18) 0.7582(4) 0.3922(2)
H6 H 0.1430 0.7156 0.4159
C8 C 0.09836(13) 0.8014(2) 0.38728(13)
C9 C 0.0897(2) 0.8640(4) 0.3537(2)
H7 H 0.0647 0.8986 0.3494
C10 C 0.1195(3) 0.8757(5) 0.3254(3)
H8 H 0.1133 0.9180 0.3013
C16 C 0.04722(10) 0.6983(2) 0.47067(10)
N4 N 0.07348(9) 0.70861(19) 0.44226(9)
C17 C 0.06921(11) 0.7860(2) 0.41831(11)
N5 N 0.04051(10) 0.85091(19) 0.42079(10)
C18 C 0.01591(11) 0.8338(2) 0.45026(11)
N6 N 0.01797(8) 0.75975(18) 0.47704(8)
N13 N 0.12042(9) 0.43033(17) 0.64073(9)
N14 N 0.20091(13) 0.9959(2) 0.28684(14)
Zn1_2 Zn 0.57925(2) 0.85235(3) 0.59592(2)
Cl1_2 Cl 0.52529(4) 0.82510(9) 0.62856(3)
Cl2_2 Cl 0.61610(4) 0.74976(6) 0.56615(4)
N1_2 N 0.56119(9) 0.95399(18) 0.54909(9)
C1_2 C 0.58207(11) 0.9656(2) 0.51560(12)
H1_2 H 0.6006 0.9184 0.5097
N13_2 N 0.62042(9) 0.93033(17) 0.64073(9)
C11 C 0.93102(12) 0.0300(2) 0.98857(13)
C12 C 0.96155(12) 0.0969(2) 0.98764(12)
C13 C 0.98323(11) 0.0971(2) 0.95344(12)
C14 C 0.97383(17) 0.0304(4) 0.92039(16)
H11 H 0.9887 0.0278 0.8961
C21 C 0.77176(10) 0.0335(2) 0.84423(10)
C22 C 0.79845(12) 0.0835(2) 0.87609(12)
H15 H 0.7971 0.1490 0.8769
C23 C 0.82682(13) 0.0360(2) 0.90640(13)
H16 H 0.8449 0.0703 0.9282
C26 C 0.66907(10) 0.0255(2) 0.70982(11)
C27 C 0.64740(13) 0.0714(2) 0.67369(12)
H19 H 0.6488 0.1368 0.6719
C28 C 0.62367(13) 0.0223(2) 0.64015(13)
H20 H 0.6089 0.0550 0.6154
N9 N 0.70091(13) 0.5041(2) 0.78684(14)
C29 C 0.72653(16) 0.4594(3) 0.81810(18)
H21 H 0.7432 0.4938 0.8411
C30 C 0.72970(14) 0.3650(2) 0.81827(17)
H22 H 0.7483 0.3348 0.8412
C31 C 0.70584(12) 0.3138(2) 0.78498(12)
C32 C 0.68001(16) 0.3597(2) 0.75190(14)
H23 H 0.6638 0.3269 0.7280
C33 C 0.67806(18) 0.4555(3) 0.75411(16)
H24 H 0.6598 0.4876 0.7316
C34 C 0.74119(10) 0.08115(19) 0.81046(10)
N10 N 0.72079(8) 0.03070(16) 0.77676(8)
C35 C 0.69319(10) 0.07738(19) 0.74801(10)
N11 N 0.68578(9) 0.16777(17) 0.75009(9)
C36 C 0.70943(11) 0.2117(2) 0.78384(11)
N12 N 0.73670(9) 0.17215(17) 0.81553(9)
Zn5 Zn 0.69836(4) 0.64585(4) 0.79073(4)
Zn2 Zn 0.87233(2) 0.87732(3) 0.95411(2)
Cl6 Cl 0.88872(11) 0.74706(18) 0.92177(10)
N3 N 0.92205(10) 0.9667(2) 0.95718(10)
C15 C 0.94273(17) 0.9683(4) 0.92344(17)
H12 H 0.9357 0.9243 0.9002
N7 N 0.83021(10) 0.94399(19) 0.90678(10)
C19 C 0.80474(12) 0.8961(2) 0.87597(12)
H13 H 0.8071 0.8308 0.8757
C20 C 0.77525(11) 0.9379(2) 0.84458(12)
H14 H 0.7574 0.9018 0.8233
C24 C 0.64339(14) 0.8862(2) 0.67446(13)
H17 H 0.6427 0.8206 0.6746
C25 C 0.66800(13) 0.9304(2) 0.70910(13)
H18 H 0.6841 0.8958 0.7324
Zn2_2 Zn 0.37233(2) 0.37732(3) 0.95411(2)
Cl3_2 Cl 0.67038(10) 0.68277(12) 0.72253(6)
Cl4_2 Cl 0.75735(6) 0.70188(10) 0.82581(9)
Cl6_2 Cl 0.38872(11) 0.24706(18) 0.92177(10)
C2_2 C 0.57788(11) 0.9565(2) 0.98906(11)
H2_2 H 0.5934 0.9501 0.9655
C3_2 C 0.55060(10) 0.8877(2) 0.99729(10)
N2_2 N 0.65454(14) 0.6674(2) 0.83013(15)
C6_2 C 0.6624(2) 0.7244(4) 0.8628(2)
H5_2 H 0.6882 0.7563 0.8670
C7_2 C 0.63545(18) 0.7418(4) 0.8922(2)
H6_2 H 0.6430 0.7844 0.9159
C8_2 C 0.59836(13) 0.6986(2) 0.88728(13)
C9_2 C 0.5897(2) 0.6360(4) 0.8537(2)
H7_2 H 0.5647 0.6014 0.8494
C10_2 C 0.6195(3) 0.6243(5) 0.8254(3)
H8_2 H 0.6133 0.5820 0.8013
N3_2 N 0.42205(10) 0.4667(2) 0.95718(10)
C11_2 C 0.43102(12) 0.5300(2) 0.98857(13)
C12_2 C 0.46155(12) 0.5969(2) 0.98764(12)
C13_2 C 0.48323(11) 0.5971(2) 0.95344(12)
C14_2 C 0.47383(17) 0.5304(4) 0.92039(16)
H11_2 H 0.4887 0.5278 0.8961
C15_2 C 0.44273(17) 0.4683(4) 0.92344(17)
H12_2 H 0.4357 0.4243 0.9002
C16_2 C 0.54722(10) 0.8017(2) 0.97067(10)
N4_2 N 0.57348(9) 0.79139(19) 0.94226(9)
C17_2 C 0.56921(11) 0.7140(2) 0.91831(11)
N5_2 N 0.54051(10) 0.64909(19) 0.92079(10)
C18_2 C 0.51591(11) 0.6662(2) 0.95026(11)
N6_2 N 0.51797(8) 0.74025(18) 0.97704(8)
N7_2 N 0.33021(10) 0.44399(19) 0.90678(10)
C19_2 C 0.30474(12) 0.3961(2) 0.87597(12)
H13_2 H 0.3071 0.3308 0.8757
C20_2 C 0.27525(11) 0.4379(2) 0.84458(12)
H14_2 H 0.2574 0.4018 0.8233
C21_2 C 0.27176(10) 0.5335(2) 0.84423(10)
C22_2 C 0.29845(12) 0.5835(2) 0.87609(12)
H15_2 H 0.2971 0.6490 0.8769
C23_2 C 0.32682(13) 0.5360(2) 0.90640(13)
H16_2 H 0.3449 0.5703 0.9282
C24_2 C 0.14339(14) 0.3862(2) 0.67446(13)
H17_2 H 0.1427 0.3206 0.6746
C25_2 C 0.16800(13) 0.4304(2) 0.70910(13)
H18_2 H 0.1841 0.3958 0.7324
C26_2 C 0.16907(10) 0.5255(2) 0.70982(11)
C27_2 C 0.14740(13) 0.5714(2) 0.67369(12)
H19_2 H 0.1488 0.6368 0.6719
C28_2 C 0.12367(13) 0.5223(2) 0.64015(13)
H20_2 H 0.1089 0.5550 0.6154
C29_2 C 0.22653(16) 0.9594(3) 0.81810(18)
H21_2 H 0.2432 0.9938 0.8411
C30_2 C 0.22970(14) 0.8650(2) 0.81827(17)
H22_2 H 0.2483 0.8348 0.8412
C31_2 C 0.20584(12) 0.8138(2) 0.78498(12)
C32_2 C 0.18001(16) 0.8597(2) 0.75190(14)
H23_2 H 0.1638 0.8269 0.7280
C33_2 C 0.17806(18) 0.9555(3) 0.75411(16)
H24_2 H 0.1598 0.9876 0.7316
C34_2 C 0.24119(10) 0.58115(19) 0.81046(10)
N10_2 N 0.22079(8) 0.53070(16) 0.77676(8)
C35_2 C 0.19319(10) 0.57738(19) 0.74801(10)
N11_2 N 0.18578(9) 0.66777(17) 0.75009(9)
C36_2 C 0.20943(11) 0.7117(2) 0.78384(11)
N12_2 N 0.23670(9) 0.67215(17) 0.81553(9)
Zn2_3 Zn 0.87233(2) 0.12268(3) 0.45411(2)
Cl5 Cl 0.85066(15) 0.1077(3) 0.51760(12)
Cl6_3 Cl 0.88872(11) 0.25294(18) 0.42177(10)
N3_3 N 0.92205(10) 0.0333(2) 0.45718(10)
C15_3 C 0.94273(17) 0.0317(4) 0.42344(17)
H12_3 H 0.9357 0.0757 0.4002
N7_3 N 0.83021(10) 0.05601(19) 0.40678(10)
C19_3 C 0.80474(12) 0.1039(2) 0.37597(12)
H13_3 H 0.8071 0.1692 0.3757
C20_3 C 0.77525(11) 0.0621(2) 0.34458(12)
H14_3 H 0.7574 0.0982 0.3233
N8 N 0.62042(9) 0.06967(17) 0.14073(9)
C24_3 C 0.64339(14) 0.1138(2) 0.17446(13)
H17_3 H 0.6427 0.1794 0.1746
C25_3 C 0.66800(13) 0.0696(2) 0.20910(13)
H18_3 H 0.6841 0.1042 0.2324
Zn4 Zn 0.57925(2) 0.14765(3) 0.09592(2)
Cl1_3 Cl 0.52529(4) 0.17490(9) 0.12856(3)
Cl2_3 Cl 0.61610(4) 0.25024(6) 0.06615(4)
N1_3 N 0.56119(9) 0.04601(18) 0.04909(9)
C1_3 C 0.58207(11) 0.0344(2) 0.01560(12)
H1_3 H 0.6006 0.0816 0.0097
C11_3 C 0.93102(12) 0.9700(2) 0.48857(13)
H9 H 0.9161 0.9701 0.5128
C12_3 C 0.96155(12) 0.9031(2) 0.48764(12)
H10 H 0.9671 0.8582 0.5107
C13_3 C 0.98323(11) 0.9029(2) 0.45344(12)
C14_3 C 0.97383(17) 0.9696(4) 0.42039(16)
H11_3 H 0.9887 0.9722 0.3961
C21_3 C 0.77176(10) 0.9665(2) 0.34423(10)
C22_3 C 0.79845(12) 0.9165(2) 0.37609(12)
H15_3 H 0.7971 0.8510 0.3769
C23_3 C 0.82682(13) 0.9640(2) 0.40640(13)
H16_3 H 0.8449 0.9297 0.4282
C26_3 C 0.66907(10) 0.9745(2) 0.20982(11)
C27_3 C 0.64740(13) 0.9286(2) 0.17369(12)
H19_3 H 0.6488 0.8632 0.1719
C28_3 C 0.62367(13) 0.9777(2) 0.14015(13)
H20_3 H 0.6089 0.9450 0.1154
N9_2 N 0.70091(13) 0.4959(2) 0.28684(14)
C29_3 C 0.72653(16) 0.5406(3) 0.31810(18)
H21_3 H 0.7432 0.5062 0.3411
C30_3 C 0.72970(14) 0.6350(2) 0.31827(17)
H22_3 H 0.7483 0.6652 0.3412
C31_3 C 0.70584(12) 0.6862(2) 0.28498(12)
C32_3 C 0.68001(16) 0.6403(2) 0.25190(14)
H23_3 H 0.6638 0.6731 0.2280
C33_3 C 0.67806(18) 0.5445(3) 0.25411(16)
H24_3 H 0.6598 0.5124 0.2316
C34_3 C 0.74119(10) 0.91885(19) 0.31046(10)
N10_3 N 0.72079(8) 0.96930(16) 0.27676(8)
C35_3 C 0.69319(10) 0.92262(19) 0.24801(10)
N11_3 N 0.68578(9) 0.83223(17) 0.25009(9)
C36_3 C 0.70943(11) 0.7883(2) 0.28384(11)
N12_3 N 0.73670(9) 0.82785(17) 0.31553(9)
Zn5_2 Zn 0.69836(4) 0.35415(4) 0.29073(4)
Zn2_4 Zn 0.37233(2) 0.62268(3) 0.45411(2)
Cl3_3 Cl 0.67038(10) 0.31723(12) 0.22253(6)
Cl4_3 Cl 0.75735(6) 0.29812(10) 0.32581(9)
Cl5_2 Cl 0.35066(15) 0.6077(3) 0.51760(12)
Cl6_4 Cl 0.38872(11) 0.75294(18) 0.42177(10)
C2_3 C 0.57788(11) 0.0435(2) 0.48906(11)
H2_3 H 0.5934 0.0499 0.4655
C3_3 C 0.55060(10) 0.1123(2) 0.49729(10)
C4_2 C 0.52778(10) 0.0987(2) 0.53088(10)
H3_2 H 0.5083 0.1438 0.5367
C5_2 C 0.53352(10) 0.0188(2) 0.55593(10)
H4_2 H 0.5174 0.0094 0.5787
N2_3 N 0.65454(14) 0.3326(2) 0.33013(15)
C6_3 C 0.6624(2) 0.2756(4) 0.3628(2)
H5_3 H 0.6882 0.2437 0.3670
C7_3 C 0.63545(18) 0.2582(4) 0.3922(2)
H6_3 H 0.6430 0.2156 0.4159
C8_3 C 0.59836(13) 0.3014(2) 0.38728(13)
C9_3 C 0.5897(2) 0.3640(4) 0.3537(2)
H7_3 H 0.5647 0.3986 0.3494
C10_3 C 0.6195(3) 0.3757(5) 0.3254(3)
H8_3 H 0.6133 0.4180 0.3013
N3_4 N 0.42205(10) 0.5333(2) 0.45718(10)
C11_4 C 0.43102(12) 0.4700(2) 0.48857(13)
H9_2 H 0.4161 0.4701 0.5128
C12_4 C 0.46155(12) 0.4031(2) 0.48764(12)
H10_2 H 0.4671 0.3582 0.5107
C13_4 C 0.48323(11) 0.4029(2) 0.45344(12)
C14_4 C 0.47383(17) 0.4696(4) 0.42039(16)
H11_4 H 0.4887 0.4722 0.3961
C15_4 C 0.44273(17) 0.5317(4) 0.42344(17)
H12_4 H 0.4357 0.5757 0.4002
C16_3 C 0.54722(10) 0.1983(2) 0.47067(10)
N4_3 N 0.57348(9) 0.20861(19) 0.44226(9)
C17_3 C 0.56921(11) 0.2860(2) 0.41831(11)
N5_3 N 0.54051(10) 0.35091(19) 0.42079(10)
C18_3 C 0.51591(11) 0.3338(2) 0.45026(11)
N6_3 N 0.51797(8) 0.25975(18) 0.47704(8)
N7_4 N 0.33021(10) 0.55601(19) 0.40678(10)
C19_4 C 0.30474(12) 0.6039(2) 0.37597(12)
H13_4 H 0.3071 0.6692 0.3757
C20_4 C 0.27525(11) 0.5621(2) 0.34458(12)
H14_4 H 0.2574 0.5982 0.3233
C21_4 C 0.27176(10) 0.4665(2) 0.34423(10)
C22_4 C 0.29845(12) 0.4165(2) 0.37609(12)
H15_4 H 0.2971 0.3510 0.3769
C23_4 C 0.32682(13) 0.4640(2) 0.40640(13)
H16_4 H 0.3449 0.4297 0.4282
N8_2 N 0.12042(9) 0.56967(17) 0.14073(9)
C24_4 C 0.14339(14) 0.6138(2) 0.17446(13)
H17_4 H 0.1427 0.6794 0.1746
C25_4 C 0.16800(13) 0.5696(2) 0.20910(13)
H18_4 H 0.1841 0.6042 0.2324
C26_4 C 0.16907(10) 0.4745(2) 0.20982(11)
C27_4 C 0.14740(13) 0.4286(2) 0.17369(12)
H19_4 H 0.1488 0.3632 0.1719
C28_4 C 0.12367(13) 0.4777(2) 0.14015(13)
H20_4 H 0.1089 0.4450 0.1154
C29_4 C 0.22653(16) 0.0406(3) 0.31810(18)
H21_4 H 0.2432 0.0062 0.3411
C30_4 C 0.22970(14) 0.1350(2) 0.31827(17)
H22_4 H 0.2483 0.1652 0.3412
C31_4 C 0.20584(12) 0.1862(2) 0.28498(12)
C32_4 C 0.18001(16) 0.1403(2) 0.25190(14)
H23_4 H 0.1638 0.1731 0.2280
C33_4 C 0.17806(18) 0.0445(3) 0.25411(16)
H24_4 H 0.1598 0.0124 0.2316
C34_4 C 0.24119(10) 0.41885(19) 0.31046(10)
N10_4 N 0.22079(8) 0.46930(16) 0.27676(8)
C35_4 C 0.19319(10) 0.42262(19) 0.24801(10)
N11_4 N 0.18578(9) 0.33223(17) 0.25009(9)
C36_4 C 0.20943(11) 0.2883(2) 0.28384(11)
N12_4 N 0.23670(9) 0.32785(17) 0.31553(9)
Zn4_2 Zn 0.07925(2) 0.64765(3) 0.09592(2)
Cl1_4 Cl 0.02529(4) 0.67490(9) 0.12856(3)
Cl2_4 Cl 0.11610(4) 0.75024(6) 0.06615(4)
N1_4 N 0.06119(9) 0.54601(18) 0.04909(9)
C1_4 C 0.08207(11) 0.5344(2) 0.01560(12)
H1_4 H 0.1006 0.5816 0.0097
C4_3 C 0.02778(10) 0.4013(2) 0.03088(10)
H3_3 H 0.0083 0.3562 0.0367
C5_3 C 0.03352(10) 0.4812(2) 0.05593(10)
H4_3 H 0.0174 0.4906 0.0787
Zn2_5 Zn 0.12767(2) 0.12268(3) 0.04589(2)
Cl6_5 Cl 0.11128(11) 0.25294(18) 0.07823(10)
N3_5 N 0.07795(10) 0.0333(2) 0.04282(10)
C15_5 C 0.05727(17) 0.0317(4) 0.07656(17)
H12_5 H 0.0643 0.0757 0.0998
N7_5 N 0.16979(10) 0.05601(19) 0.09322(10)
C19_5 C 0.19526(12) 0.1039(2) 0.12403(12)
H13_5 H 0.1929 0.1692 0.1243
C20_5 C 0.22475(11) 0.0621(2) 0.15542(12)
H14_5 H 0.2426 0.0982 0.1767
N8_3 N 0.37958(9) 0.06967(17) 0.35927(9)
C24_5 C 0.35661(14) 0.1138(2) 0.32554(13)
H17_5 H 0.3573 0.1794 0.3254
C25_5 C 0.33200(13) 0.0696(2) 0.29090(13)
H18_5 H 0.3159 0.1042 0.2676
Zn4_3 Zn 0.42075(2) 0.14765(3) 0.40408(2)
C11_5 C 0.06898(12) 0.9700(2) 0.01143(13)
C12_5 C 0.03845(12) 0.9031(2) 0.01236(12)
C13_5 C 0.01677(11) 0.9029(2) 0.04656(12)
C14_5 C 0.02617(17) 0.9696(4) 0.07961(16)
H11_5 H 0.0113 0.9722 0.1039
C21_5 C 0.22824(10) 0.9665(2) 0.15577(10)
C22_5 C 0.20155(12) 0.9165(2) 0.12391(12)
H15_5 H 0.2029 0.8510 0.1231
C23_5 C 0.17318(13) 0.9640(2) 0.09360(13)
H16_5 H 0.1551 0.9297 0.0718
C26_5 C 0.33093(10) 0.9745(2) 0.29018(11)
C27_5 C 0.35260(13) 0.9286(2) 0.32631(12)
H19_5 H 0.3512 0.8632 0.3281
C28_5 C 0.37633(13) 0.9777(2) 0.35985(13)
H20_5 H 0.3911 0.9450 0.3846
N9_3 N 0.29909(13) 0.4959(2) 0.21316(14)
C29_5 C 0.27347(16) 0.5406(3) 0.18190(18)
H21_5 H 0.2568 0.5062 0.1589
C30_5 C 0.27030(14) 0.6350(2) 0.18173(17)
H22_5 H 0.2517 0.6652 0.1588
C31_5 C 0.29416(12) 0.6862(2) 0.21502(12)
C32_5 C 0.31999(16) 0.6403(2) 0.24810(14)
H23_5 H 0.3362 0.6731 0.2720
C33_5 C 0.32194(18) 0.5445(3) 0.24589(16)
H24_5 H 0.3402 0.5124 0.2684
C34_5 C 0.25881(10) 0.91885(19) 0.18954(10)
N10_5 N 0.27921(8) 0.96930(16) 0.22324(8)
C35_5 C 0.30681(10) 0.92262(19) 0.25199(10)
N11_5 N 0.31422(9) 0.83223(17) 0.24991(9)
C36_5 C 0.29057(11) 0.7883(2) 0.21616(11)
N12_5 N 0.26330(9) 0.82785(17) 0.18447(9)
Zn5_3 Zn 0.30164(4) 0.35415(4) 0.20927(4)
Zn2_6 Zn 0.62767(2) 0.62268(3) 0.04589(2)
Cl3_4 Cl 0.32962(10) 0.31723(12) 0.27747(6)
Cl4_4 Cl 0.24265(6) 0.29812(10) 0.17419(9)
Cl6_6 Cl 0.61128(11) 0.75294(18) 0.07823(10)
C2_4 C 0.42212(11) 0.0435(2) 0.01094(11)
H2_4 H 0.4066 0.0499 0.0345
C3_4 C 0.44940(10) 0.1123(2) 0.00271(10)
N2_4 N 0.34546(14) 0.3326(2) 0.16987(15)
C6_4 C 0.3376(2) 0.2756(4) 0.1372(2)
H5_4 H 0.3118 0.2437 0.1330
C7_4 C 0.36455(18) 0.2582(4) 0.1078(2)
H6_4 H 0.3570 0.2156 0.0841
C8_4 C 0.40164(13) 0.3014(2) 0.11272(13)
C9_4 C 0.4103(2) 0.3640(4) 0.1463(2)
H7_4 H 0.4353 0.3986 0.1506
C10_4 C 0.3805(3) 0.3757(5) 0.1746(3)
H8_4 H 0.3867 0.4180 0.1987
N3_6 N 0.57795(10) 0.5333(2) 0.04282(10)
C11_6 C 0.56898(12) 0.4700(2) 0.01143(13)
C12_6 C 0.53845(12) 0.4031(2) 0.01236(12)
C13_6 C 0.51677(11) 0.4029(2) 0.04656(12)
C14_6 C 0.52617(17) 0.4696(4) 0.07961(16)
H11_6 H 0.5113 0.4722 0.1039
C15_6 C 0.55727(17) 0.5317(4) 0.07656(17)
H12_6 H 0.5643 0.5757 0.0998
C16_4 C 0.45278(10) 0.1983(2) 0.02933(10)
N4_4 N 0.42652(9) 0.20861(19) 0.05774(9)
C17_4 C 0.43079(11) 0.2860(2) 0.08169(11)
N5_4 N 0.45949(10) 0.35091(19) 0.07921(10)
C18_4 C 0.48409(11) 0.3338(2) 0.04974(11)
N6_4 N 0.48203(8) 0.25975(18) 0.02296(8)
N7_6 N 0.66979(10) 0.55601(19) 0.09322(10)
C19_6 C 0.69526(12) 0.6039(2) 0.12403(12)
H13_6 H 0.6929 0.6692 0.1243
C20_6 C 0.72475(11) 0.5621(2) 0.15542(12)
H14_6 H 0.7426 0.5982 0.1767
C21_6 C 0.72824(10) 0.4665(2) 0.15577(10)
C22_6 C 0.70155(12) 0.4165(2) 0.12391(12)
H15_6 H 0.7029 0.3510 0.1231
C23_6 C 0.67318(13) 0.4640(2) 0.09360(13)
H16_6 H 0.6551 0.4297 0.0718
N8_4 N 0.87958(9) 0.56967(17) 0.35927(9)
C24_6 C 0.85661(14) 0.6138(2) 0.32554(13)
H17_6 H 0.8573 0.6794 0.3254
C25_6 C 0.83200(13) 0.5696(2) 0.29090(13)
H18_6 H 0.8159 0.6042 0.2676
C26_6 C 0.83093(10) 0.4745(2) 0.29018(11)
C27_6 C 0.85260(13) 0.4286(2) 0.32631(12)
H19_6 H 0.8512 0.3632 0.3281
C28_6 C 0.87633(13) 0.4777(2) 0.35985(13)
H20_6 H 0.8911 0.4450 0.3846
C29_6 C 0.77347(16) 0.0406(3) 0.18190(18)
H21_6 H 0.7568 0.0062 0.1589
C30_6 C 0.77030(14) 0.1350(2) 0.18173(17)
H22_6 H 0.7517 0.1652 0.1588
C31_6 C 0.79416(12) 0.1862(2) 0.21502(12)
C32_6 C 0.81999(16) 0.1403(2) 0.24810(14)
H23_6 H 0.8362 0.1731 0.2720
C33_6 C 0.82194(18) 0.0445(3) 0.24589(16)
H24_6 H 0.8402 0.0124 0.2684
C34_6 C 0.75881(10) 0.41885(19) 0.18954(10)
N10_6 N 0.77921(8) 0.46930(16) 0.22324(8)
C35_6 C 0.80681(10) 0.42262(19) 0.25199(10)
N11_6 N 0.81422(9) 0.33223(17) 0.24991(9)
C36_6 C 0.79057(11) 0.2883(2) 0.21616(11)
N12_6 N 0.76330(9) 0.32785(17) 0.18447(9)
Zn4_4 Zn 0.92075(2) 0.64765(3) 0.40408(2)
Cl1_5 Cl 0.97471(4) 0.67490(9) 0.37144(3)
Cl2_5 Cl 0.88390(4) 0.75024(6) 0.43385(4)
Zn3_2 Zn 0.80164(4) 0.14585(4) 0.70927(4)
Cl3_5 Cl 0.82962(10) 0.18277(12) 0.77747(6)
Cl4_5 Cl 0.74265(6) 0.20188(10) 0.67419(9)
N1_5 N 0.93881(9) 0.54601(18) 0.45091(9)
C1_5 C 0.91793(11) 0.5344(2) 0.48440(12)
H1_5 H 0.8994 0.5816 0.4903
C2_5 C 0.92212(11) 0.4565(2) 0.51094(11)
H2_5 H 0.9066 0.4501 0.5345
C3_5 C 0.94940(10) 0.3877(2) 0.50271(10)
C4_4 C 0.97222(10) 0.4013(2) 0.46912(10)
H3_4 H 0.9917 0.3562 0.4633
C5_4 C 0.96648(10) 0.4812(2) 0.44407(10)
H4_4 H 0.9826 0.4906 0.4213
N2_5 N 0.84546(14) 0.1674(2) 0.66987(15)
C6_5 C 0.8376(2) 0.2244(4) 0.6372(2)
H5_5 H 0.8118 0.2563 0.6330
C7_5 C 0.86455(18) 0.2418(4) 0.6078(2)
H6_5 H 0.8570 0.2844 0.5841
C8_5 C 0.90164(13) 0.1986(2) 0.61272(13)
C9_5 C 0.9103(2) 0.1360(4) 0.6463(2)
H7_5 H 0.9353 0.1014 0.6506
C10_5 C 0.8805(3) 0.1243(5) 0.6746(3)
H8_5 H 0.8867 0.0820 0.6987
C16_5 C 0.95278(10) 0.3017(2) 0.52933(10)
N4_5 N 0.92652(9) 0.29139(19) 0.55774(9)
C17_5 C 0.93079(11) 0.2140(2) 0.58169(11)
N5_5 N 0.95949(10) 0.14909(19) 0.57921(10)
C18_5 C 0.98409(11) 0.1662(2) 0.54974(11)
N6_5 N 0.98203(8) 0.24025(18) 0.52296(8)
N14_2 N 0.79909(13) 0.0041(2) 0.71316(14)
Cl1_6 Cl 0.47471(4) 0.17490(9) 0.37144(3)
Cl2_6 Cl 0.38390(4) 0.25024(6) 0.43385(4)
N1_6 N 0.43881(9) 0.04601(18) 0.45091(9)
C1_6 C 0.41793(11) 0.0344(2) 0.48440(12)
H1_6 H 0.3994 0.0816 0.4903
Cl5_3 Cl 0.14934(15) 0.1077(3) 0.98240(12)
H9_3 H 0.0839 0.9701 0.9872
H10_3 H 0.0329 0.8582 0.9893
Zn3_3 Zn 0.80164(4) 0.85415(4) 0.20927(4)
Cl3_6 Cl 0.82962(10) 0.81723(12) 0.27747(6)
Cl4_6 Cl 0.74265(6) 0.79812(10) 0.17419(9)
C2_6 C 0.92212(11) 0.5435(2) 0.01094(11)
H2_6 H 0.9066 0.5499 0.0345
C3_6 C 0.94940(10) 0.6123(2) 0.00271(10)
N2_6 N 0.84546(14) 0.8326(2) 0.16987(15)
C6_6 C 0.8376(2) 0.7756(4) 0.1372(2)
H5_6 H 0.8118 0.7437 0.1330
C7_6 C 0.86455(18) 0.7582(4) 0.1078(2)
H6_6 H 0.8570 0.7156 0.0841
C8_6 C 0.90164(13) 0.8014(2) 0.11272(13)
C9_6 C 0.9103(2) 0.8640(4) 0.1463(2)
H7_6 H 0.9353 0.8986 0.1506
C10_6 C 0.8805(3) 0.8757(5) 0.1746(3)
H8_6 H 0.8867 0.9180 0.1987
C16_6 C 0.95278(10) 0.6983(2) 0.02933(10)
N4_6 N 0.92652(9) 0.70861(19) 0.05774(9)
C17_6 C 0.93079(11) 0.7860(2) 0.08169(11)
N5_6 N 0.95949(10) 0.85091(19) 0.07921(10)
C18_6 C 0.98409(11) 0.8338(2) 0.04974(11)
N6_6 N 0.98203(8) 0.75975(18) 0.02296(8)
N14_3 N 0.79909(13) 0.9959(2) 0.21316(14)
Zn1_3 Zn 0.92075(2) 0.35235(3) 0.90408(2)
Cl1_7 Cl 0.97471(4) 0.32510(9) 0.87144(3)
Cl2_7 Cl 0.88390(4) 0.24976(6) 0.93385(4)
N1_7 N 0.93881(9) 0.45399(18) 0.95091(9)
C1_7 C 0.91793(11) 0.4656(2) 0.98440(12)
H1_7 H 0.8994 0.4184 0.9903
C4_5 C 0.97222(10) 0.5987(2) 0.96912(10)
H3_5 H 0.9917 0.6438 0.9633
C5_5 C 0.96648(10) 0.5188(2) 0.94407(10)
H4_5 H 0.9826 0.5094 0.9213
N13_3 N 0.87958(9) 0.43033(17) 0.85927(9)
C11_7 C 0.06898(12) 0.0300(2) 0.51143(13)
H9_4 H 0.0839 0.0299 0.4872
C12_7 C 0.03845(12) 0.0969(2) 0.51236(12)
H10_4 H 0.0329 0.1418 0.4893
C13_7 C 0.01677(11) 0.0971(2) 0.54656(12)
C14_7 C 0.02617(17) 0.0304(4) 0.57961(16)
H11_7 H 0.0113 0.0278 0.6039
C21_7 C 0.22824(10) 0.0335(2) 0.65577(10)
C22_7 C 0.20155(12) 0.0835(2) 0.62391(12)
H15_7 H 0.2029 0.1490 0.6231
C23_7 C 0.17318(13) 0.0360(2) 0.59360(13)
H16_7 H 0.1551 0.0703 0.5718
C26_7 C 0.33093(10) 0.0255(2) 0.79018(11)
C27_7 C 0.35260(13) 0.0714(2) 0.82631(12)
H19_7 H 0.3512 0.1368 0.8281
C28_7 C 0.37633(13) 0.0223(2) 0.85985(13)
H20_7 H 0.3911 0.0550 0.8846
N9_4 N 0.29909(13) 0.5041(2) 0.71316(14)
C29_7 C 0.27347(16) 0.4594(3) 0.68190(18)
H21_7 H 0.2568 0.4938 0.6589
C30_7 C 0.27030(14) 0.3650(2) 0.68173(17)
H22_7 H 0.2517 0.3348 0.6588
C31_7 C 0.29416(12) 0.3138(2) 0.71502(12)
C32_7 C 0.31999(16) 0.3597(2) 0.74810(14)
H23_7 H 0.3362 0.3269 0.7720
C33_7 C 0.32194(18) 0.4555(3) 0.74589(16)
H24_7 H 0.3402 0.4876 0.7684
C34_7 C 0.25881(10) 0.08115(19) 0.68954(10)
N10_7 N 0.27921(8) 0.03070(16) 0.72324(8)
C35_7 C 0.30681(10) 0.07738(19) 0.75199(10)
N11_7 N 0.31422(9) 0.16777(17) 0.74991(9)
C36_7 C 0.29057(11) 0.2117(2) 0.71616(11)
N12_7 N 0.26330(9) 0.17215(17) 0.68447(9)
Zn5_4 Zn 0.30164(4) 0.64585(4) 0.70927(4)
Zn2_7 Zn 0.62767(2) 0.37732(3) 0.54589(2)
Cl3_7 Cl 0.32962(10) 0.68277(12) 0.77747(6)
Cl4_7 Cl 0.24265(6) 0.70188(10) 0.67419(9)
Cl5_4 Cl 0.64934(15) 0.3923(3) 0.48240(12)
Cl6_7 Cl 0.61128(11) 0.24706(18) 0.57823(10)
C2_7 C 0.42212(11) 0.9565(2) 0.51094(11)
H2_7 H 0.4066 0.9501 0.5345
C3_7 C 0.44940(10) 0.8877(2) 0.50271(10)
C4_6 C 0.47222(10) 0.9013(2) 0.46912(10)
H3_6 H 0.4917 0.8562 0.4633
C5_6 C 0.46648(10) 0.9812(2) 0.44407(10)
H4_6 H 0.4826 0.9906 0.4213
N2_7 N 0.34546(14) 0.6674(2) 0.66987(15)
C6_7 C 0.3376(2) 0.7244(4) 0.6372(2)
H5_7 H 0.3118 0.7563 0.6330
C7_7 C 0.36455(18) 0.7418(4) 0.6078(2)
H6_7 H 0.3570 0.7844 0.5841
C8_7 C 0.40164(13) 0.6986(2) 0.61272(13)
C9_7 C 0.4103(2) 0.6360(4) 0.6463(2)
H7_7 H 0.4353 0.6014 0.6506
C10_7 C 0.3805(3) 0.6243(5) 0.6746(3)
H8_7 H 0.3867 0.5820 0.6987
N3_7 N 0.57795(10) 0.4667(2) 0.54282(10)
C11_8 C 0.56898(12) 0.5300(2) 0.51143(13)
H9_5 H 0.5839 0.5299 0.4872
C12_8 C 0.53845(12) 0.5969(2) 0.51236(12)
H10_5 H 0.5329 0.6418 0.4893
C13_8 C 0.51677(11) 0.5971(2) 0.54656(12)
C14_8 C 0.52617(17) 0.5304(4) 0.57961(16)
H11_8 H 0.5113 0.5278 0.6039
C15_7 C 0.55727(17) 0.4683(4) 0.57656(17)
H12_7 H 0.5643 0.4243 0.5998
C16_7 C 0.45278(10) 0.8017(2) 0.52933(10)
N4_7 N 0.42652(9) 0.79139(19) 0.55774(9)
C17_7 C 0.43079(11) 0.7140(2) 0.58169(11)
N5_7 N 0.45949(10) 0.64909(19) 0.57921(10)
C18_7 C 0.48409(11) 0.6662(2) 0.54974(11)
N6_7 N 0.48203(8) 0.74025(18) 0.52296(8)
N7_7 N 0.66979(10) 0.44399(19) 0.59322(10)
C19_7 C 0.69526(12) 0.3961(2) 0.62403(12)
H13_7 H 0.6929 0.3308 0.6243
C20_7 C 0.72475(11) 0.4379(2) 0.65542(12)
H14_7 H 0.7426 0.4018 0.6767
C21_8 C 0.72824(10) 0.5335(2) 0.65577(10)
C22_8 C 0.70155(12) 0.5835(2) 0.62391(12)
H15_8 H 0.7029 0.6490 0.6231
C23_8 C 0.67318(13) 0.5360(2) 0.59360(13)
H16_8 H 0.6551 0.5703 0.5718
C24_7 C 0.85661(14) 0.3862(2) 0.82554(13)
H17_7 H 0.8573 0.3206 0.8254
C25_7 C 0.83200(13) 0.4304(2) 0.79090(13)
H18_7 H 0.8159 0.3958 0.7676
C26_8 C 0.83093(10) 0.5255(2) 0.79018(11)
C27_8 C 0.85260(13) 0.5714(2) 0.82631(12)
H19_8 H 0.8512 0.6368 0.8281
C28_8 C 0.87633(13) 0.5223(2) 0.85985(13)
H20_8 H 0.8911 0.5550 0.8846
C29_8 C 0.77347(16) 0.9594(3) 0.68190(18)
H21_8 H 0.7568 0.9938 0.6589
C30_8 C 0.77030(14) 0.8650(2) 0.68173(17)
H22_8 H 0.7517 0.8348 0.6588
C31_8 C 0.79416(12) 0.8138(2) 0.71502(12)
C32_8 C 0.81999(16) 0.8597(2) 0.74810(14)
H23_8 H 0.8362 0.8269 0.7720
C33_8 C 0.82194(18) 0.9555(3) 0.74589(16)
H24_8 H 0.8402 0.9876 0.7684
C34_8 C 0.75881(10) 0.58115(19) 0.68954(10)
N10_8 N 0.77921(8) 0.53070(16) 0.72324(8)
C35_8 C 0.80681(10) 0.57738(19) 0.75199(10)
N11_8 N 0.81422(9) 0.66777(17) 0.74991(9)
C36_8 C 0.79057(11) 0.7117(2) 0.71616(11)
N12_8 N 0.76330(9) 0.67215(17) 0.68447(9)
Cl5_5 Cl 0.64934(15) 0.6077(3) 0.98240(12)
C4_7 C 0.47222(10) 0.0987(2) 0.96912(10)
H3_7 H 0.4917 0.1438 0.9633
C5_7 C 0.46648(10) 0.0188(2) 0.94407(10)
H4_7 H 0.4826 0.0094 0.9213
H9_6 H 0.5839 0.4701 0.9872
H10_6 H 0.5329 0.3582 0.9893
Zn1_4 Zn 0.42075(2) 0.85235(3) 0.90408(2)
Cl1_8 Cl 0.47471(4) 0.82510(9) 0.87144(3)
Cl2_8 Cl 0.38390(4) 0.74976(6) 0.93385(4)
N1_8 N 0.43881(9) 0.95399(18) 0.95091(9)
C1_8 C 0.41793(11) 0.9656(2) 0.98440(12)
H1_8 H 0.3994 0.9184 0.9903
N13_4 N 0.37958(9) 0.93033(17) 0.85927(9)
Zn2_8 Zn 0.12767(2) 0.87732(3) 0.54589(2)
Cl5_6 Cl 0.14934(15) 0.8923(3) 0.48240(12)
Cl6_8 Cl 0.11128(11) 0.74706(18) 0.57823(10)
N3_8 N 0.07795(10) 0.9667(2) 0.54282(10)
C15_8 C 0.05727(17) 0.9683(4) 0.57656(17)
H12_8 H 0.0643 0.9243 0.5998
N7_8 N 0.16979(10) 0.94399(19) 0.59322(10)
C19_8 C 0.19526(12) 0.8961(2) 0.62403(12)
H13_8 H 0.1929 0.8308 0.6243
C20_8 C 0.22475(11) 0.9379(2) 0.65542(12)
H14_8 H 0.2426 0.9018 0.6767
C24_8 C 0.35661(14) 0.8862(2) 0.82554(13)
H17_8 H 0.3573 0.8206 0.8254
C25_8 C 0.33200(13) 0.9304(2) 0.79090(13)
H18_8 H 0.3159 0.8958 0.7676
Zn3_4 Zn 0.19836(4) 0.14585(4) 0.79073(4)
Cl3_8 Cl 0.17038(10) 0.18277(12) 0.72253(6)
Cl4_8 Cl 0.25735(6) 0.20188(10) 0.82581(9)
C2_8 C 0.07788(11) 0.4565(2) 0.98906(11)
H2_8 H 0.0934 0.4501 0.9655
C3_8 C 0.05060(10) 0.3877(2) 0.99729(10)
N2_8 N 0.15454(14) 0.1674(2) 0.83013(15)
C6_8 C 0.1624(2) 0.2244(4) 0.8628(2)
H5_8 H 0.1882 0.2563 0.8670
C7_8 C 0.13545(18) 0.2418(4) 0.8922(2)
H6_8 H 0.1430 0.2844 0.9159
C8_8 C 0.09836(13) 0.1986(2) 0.88728(13)
C9_8 C 0.0897(2) 0.1360(4) 0.8537(2)
H7_8 H 0.0647 0.1014 0.8494
C10_8 C 0.1195(3) 0.1243(5) 0.8254(3)
H8_8 H 0.1133 0.0820 0.8013
C16_8 C 0.04722(10) 0.3017(2) 0.97067(10)
N4_8 N 0.07348(9) 0.29139(19) 0.94226(9)
C17_8 C 0.06921(11) 0.2140(2) 0.91831(11)
N5_8 N 0.04051(10) 0.14909(19) 0.92079(10)
C18_8 C 0.01591(11) 0.1662(2) 0.95026(11)
N6_8 N 0.01797(8) 0.24025(18) 0.97704(8)
N14_4 N 0.20091(13) 0.0041(2) 0.78684(14)
H9_7 H 0.9161 0.0299 0.0128
H10_7 H 0.9671 0.1418 0.0107
Cl5_7 Cl 0.85066(15) 0.8923(3) 0.01760(12)
Cl5_8 Cl 0.35066(15) 0.3923(3) 0.01760(12)
C4_8 C 0.52778(10) 0.9013(2) 0.03088(10)
H3_8 H 0.5083 0.8562 0.0367
C5_8 C 0.53352(10) 0.9812(2) 0.05593(10)
H4_8 H 0.5174 0.9906 0.0787
H9_8 H 0.4161 0.5299 0.0128
H10_8 H 0.4671 0.6418 0.0107
loop_
_geom_bond_atom_site_label_1
_geom_bond_atom_site_label_2
_geom_bond_site_symmetry_1
_geom_bond_site_symmetry_2
Zn1 Cl1 1_555 1_555
Cl2 Zn1 1_555 1_555
Zn3 Cl3 1_555 1_555
Cl4 Zn3 1_555 1_555
N1 Zn1 1_555 1_555
C1 N1 1_555 1_555
H1 C1 1_555 1_555
C2 C1 1_555 1_555
H2 C2 1_555 1_555
C3 C2 1_555 1_555
C4 C3 1_555 1_555
H3 C4 1_555 1_555
C5 N1 1_555 1_555
H4 C5 1_555 1_555
N2 Zn3 1_555 1_555
C6 N2 1_555 1_555
H5 C6 1_555 1_555
C7 C6 1_555 1_555
H6 C7 1_555 1_555
C8 C7 1_555 1_555
C9 C8 1_555 1_555
H7 C9 1_555 1_555
C10 N2 1_555 1_555
H8 C10 1_555 1_555
C16 C3 1_555 1_555
N4 C16 1_555 1_555
C17 C8 1_555 1_555
N5 C17 1_555 1_555
N6 C16 1_555 1_555
N13 Zn1 1_555 1_555
N14 Zn3 1_555 1_555
C4 C5 1_555 1_555
C9 C10 1_555 1_555
N4 C17 1_555 1_555
N5 C18 1_555 1_555
C18 N6 1_555 1_555
Zn1_2 Cl1_2 1_555 1_555
Cl2_2 Zn1_2 1_555 1_555
N1_2 Zn1_2 1_555 1_555
C1_2 N1_2 1_555 1_555
H1_2 C1_2 1_555 1_555
N13_2 Zn1_2 1_555 1_555
C12 C11 1_555 1_555
C13 C12 1_555 1_555
C14 C13 1_555 1_555
H11 C14 1_555 1_555
C22 C21 1_555 1_555
H15 C22 1_555 1_555
H16 C23 1_555 1_555
C27 C26 1_555 1_555
H19 C27 1_555 1_555
H20 C28 1_555 1_555
N9 C29 1_555 1_555
C29 H21 1_555 1_555
C30 C29 1_555 1_555
H22 C30 1_555 1_555
C31 C30 1_555 1_555
C32 C31 1_555 1_555
H23 C32 1_555 1_555
C33 N9 1_555 1_555
H24 C33 1_555 1_555
C34 C21 1_555 1_555
N10 C34 1_555 1_555
C35 C26 1_555 1_555
N11 C35 1_555 1_555
C36 C31 1_555 1_555
N12 C34 1_555 1_555
Zn5 N9 1_555 1_555
C22 C23 1_555 1_555
C27 C28 1_555 1_555
C32 C33 1_555 1_555
N10 C35 1_555 1_555
N11 C36 1_555 1_555
C36 N12 1_555 1_555
Cl6 Zn2 1_555 1_555
N3 Zn2 1_555 1_555
C15 N3 1_555 1_555
H12 C15 1_555 1_555
N7 Zn2 1_555 1_555
C19 N7 1_555 1_555
H13 C19 1_555 1_555
C20 C19 1_555 1_555
H14 C20 1_555 1_555
N13_2 C24 1_555 1_555
C24 H17 1_555 1_555
C25 C24 1_555 1_555
H18 C25 1_555 1_555
Zn5 Cl3_2 1_555 1_555
Cl4_2 Zn5 1_555 1_555
Cl6_2 Zn2_2 1_555 1_555
H2_2 C2_2 1_555 1_555
C3_2 C2_2 1_555 1_555
N2_2 Zn5 1_555 1_555
C6_2 N2_2 1_555 1_555
H5_2 C6_2 1_555 1_555
C7_2 C6_2 1_555 1_555
H6_2 C7_2 1_555 1_555
C8_2 C7_2 1_555 1_555
C9_2 C8_2 1_555 1_555
H7_2 C9_2 1_555 1_555
C10_2 N2_2 1_555 1_555
H8_2 C10_2 1_555 1_555
N3_2 Zn2_2 1_555 1_555
C11_2 N3_2 1_555 1_555
C12_2 C11_2 1_555 1_555
C13_2 C12_2 1_555 1_555
C14_2 C13_2 1_555 1_555
H11_2 C14_2 1_555 1_555
C15_2 N3_2 1_555 1_555
H12_2 C15_2 1_555 1_555
C16_2 C3_2 1_555 1_555
N4_2 C16_2 1_555 1_555
C17_2 C8_2 1_555 1_555
N5_2 C17_2 1_555 1_555
C18_2 C13_2 1_555 1_555
N6_2 C16_2 1_555 1_555
N7_2 Zn2_2 1_555 1_555
C19_2 N7_2 1_555 1_555
H13_2 C19_2 1_555 1_555
C20_2 C19_2 1_555 1_555
H14_2 C20_2 1_555 1_555
C21_2 C20_2 1_555 1_555
C22_2 C21_2 1_555 1_555
H15_2 C22_2 1_555 1_555
C23_2 N7_2 1_555 1_555
H16_2 C23_2 1_555 1_555
N13 C24_2 1_555 1_555
C24_2 H17_2 1_555 1_555
C25_2 C24_2 1_555 1_555
H18_2 C25_2 1_555 1_555
C26_2 C25_2 1_555 1_555
C27_2 C26_2 1_555 1_555
H19_2 C27_2 1_555 1_555
C28_2 N13 1_555 1_555
H20_2 C28_2 1_555 1_555
C29_2 H21_2 1_555 1_555
C30_2 C29_2 1_555 1_555
H22_2 C30_2 1_555 1_555
C31_2 C30_2 1_555 1_555
C32_2 C31_2 1_555 1_555
H23_2 C32_2 1_555 1_555
H24_2 C33_2 1_555 1_555
C34_2 C21_2 1_555 1_555
N10_2 C34_2 1_555 1_555
C35_2 C26_2 1_555 1_555
N11_2 C35_2 1_555 1_555
C36_2 C31_2 1_555 1_555
N12_2 C34_2 1_555 1_555
C9_2 C10_2 1_555 1_555
C14_2 C15_2 1_555 1_555
N4_2 C17_2 1_555 1_555
N5_2 C18_2 1_555 1_555
C18_2 N6_2 1_555 1_555
C22_2 C23_2 1_555 1_555
C27_2 C28_2 1_555 1_555
C32_2 C33_2 1_555 1_555
N10_2 C35_2 1_555 1_555
N11_2 C36_2 1_555 1_555
C36_2 N12_2 1_555 1_555
Zn2_3 Cl5 1_555 1_555
Cl6_3 Zn2_3 1_555 1_555
N3_3 Zn2_3 1_555 1_555
C15_3 N3_3 1_555 1_555
H12_3 C15_3 1_555 1_555
N7_3 Zn2_3 1_555 1_555
C19_3 N7_3 1_555 1_555
H13_3 C19_3 1_555 1_555
C20_3 C19_3 1_555 1_555
H14_3 C20_3 1_555 1_555
N8 C24_3 1_555 1_555
C24_3 H17_3 1_555 1_555
C25_3 C24_3 1_555 1_555
H18_3 C25_3 1_555 1_555
Zn4 N8 1_555 1_555
Zn4 Cl1_3 1_555 1_555
Cl2_3 Zn4 1_555 1_555
N1_3 Zn4 1_555 1_555
C1_3 N1_3 1_555 1_555
H1_3 C1_3 1_555 1_555
H9 C11_3 1_555 1_555
C12_3 C11_3 1_555 1_555
H10 C12_3 1_555 1_555
C13_3 C12_3 1_555 1_555
C14_3 C13_3 1_555 1_555
H11_3 C14_3 1_555 1_555
C22_3 C21_3 1_555 1_555
H15_3 C22_3 1_555 1_555
H16_3 C23_3 1_555 1_555
C27_3 C26_3 1_555 1_555
H19_3 C27_3 1_555 1_555
H20_3 C28_3 1_555 1_555
N9_2 C29_3 1_555 1_555
C29_3 H21_3 1_555 1_555
C30_3 C29_3 1_555 1_555
H22_3 C30_3 1_555 1_555
C31_3 C30_3 1_555 1_555
C32_3 C31_3 1_555 1_555
H23_3 C32_3 1_555 1_555
C33_3 N9_2 1_555 1_555
H24_3 C33_3 1_555 1_555
C34_3 C21_3 1_555 1_555
N10_3 C34_3 1_555 1_555
C35_3 C26_3 1_555 1_555
N11_3 C35_3 1_555 1_555
C36_3 C31_3 1_555 1_555
N12_3 C34_3 1_555 1_555
Zn5_2 N9_2 1_555 1_555
C22_3 C23_3 1_555 1_555
C27_3 C28_3 1_555 1_555
C32_3 C33_3 1_555 1_555
N10_3 C35_3 1_555 1_555
N11_3 C36_3 1_555 1_555
C36_3 N12_3 1_555 1_555
Zn2_4 Cl5_2 1_555 1_555
Zn5_2 Cl3_3 1_555 1_555
Cl4_3 Zn5_2 1_555 1_555
Cl6_4 Zn2_4 1_555 1_555
H2_3 C2_3 1_555 1_555
C3_3 C2_3 1_555 1_555
C4_2 C3_3 1_555 1_555
H3_2 C4_2 1_555 1_555
H4_2 C5_2 1_555 1_555
N2_3 Zn5_2 1_555 1_555
C6_3 N2_3 1_555 1_555
H5_3 C6_3 1_555 1_555
C7_3 C6_3 1_555 1_555
H6_3 C7_3 1_555 1_555
C8_3 C7_3 1_555 1_555
C9_3 C8_3 1_555 1_555
H7_3 C9_3 1_555 1_555
C10_3 N2_3 1_555 1_555
H8_3 C10_3 1_555 1_555
N3_4 Zn2_4 1_555 1_555
C11_4 N3_4 1_555 1_555
H9_2 C11_4 1_555 1_555
C12_4 C11_4 1_555 1_555
H10_2 C12_4 1_555 1_555
C13_4 C12_4 1_555 1_555
C14_4 C13_4 1_555 1_555
H11_4 C14_4 1_555 1_555
C15_4 N3_4 1_555 1_555
H12_4 C15_4 1_555 1_555
C16_3 C3_3 1_555 1_555
N4_3 C16_3 1_555 1_555
C17_3 C8_3 1_555 1_555
N5_3 C17_3 1_555 1_555
C18_3 C13_4 1_555 1_555
N6_3 C16_3 1_555 1_555
N7_4 Zn2_4 1_555 1_555
C19_4 N7_4 1_555 1_555
H13_4 C19_4 1_555 1_555
C20_4 C19_4 1_555 1_555
H14_4 C20_4 1_555 1_555
C21_4 C20_4 1_555 1_555
C22_4 C21_4 1_555 1_555
H15_4 C22_4 1_555 1_555
C23_4 N7_4 1_555 1_555
H16_4 C23_4 1_555 1_555
N8_2 C24_4 1_555 1_555
C24_4 H17_4 1_555 1_555
C25_4 C24_4 1_555 1_555
H18_4 C25_4 1_555 1_555
C26_4 C25_4 1_555 1_555
C27_4 C26_4 1_555 1_555
H19_4 C27_4 1_555 1_555
C28_4 N8_2 1_555 1_555
H20_4 C28_4 1_555 1_555
C29_4 H21_4 1_555 1_555
C30_4 C29_4 1_555 1_555
H22_4 C30_4 1_555 1_555
C31_4 C30_4 1_555 1_555
C32_4 C31_4 1_555 1_555
H23_4 C32_4 1_555 1_555
H24_4 C33_4 1_555 1_555
C34_4 C21_4 1_555 1_555
N10_4 C34_4 1_555 1_555
C35_4 C26_4 1_555 1_555
N11_4 C35_4 1_555 1_555
C36_4 C31_4 1_555 1_555
N12_4 C34_4 1_555 1_555
Zn4_2 N8_2 1_555 1_555
C4_2 C5_2 1_555 1_555
C9_3 C10_3 1_555 1_555
C14_4 C15_4 1_555 1_555
N4_3 C17_3 1_555 1_555
N5_3 C18_3 1_555 1_555
C18_3 N6_3 1_555 1_555
C22_4 C23_4 1_555 1_555
C27_4 C28_4 1_555 1_555
C32_4 C33_4 1_555 1_555
N10_4 C35_4 1_555 1_555
N11_4 C36_4 1_555 1_555
C36_4 N12_4 1_555 1_555
Zn4_2 Cl1_4 1_555 1_555
Cl2_4 Zn4_2 1_555 1_555
N1_4 Zn4_2 1_555 1_555
C1_4 N1_4 1_555 1_555
H1_4 C1_4 1_555 1_555
H3_3 C4_3 1_555 1_555
C5_3 N1_4 1_555 1_555
H4_3 C5_3 1_555 1_555
C4_3 C5_3 1_555 1_555
Cl6_5 Zn2_5 1_555 1_555
N3_5 Zn2_5 1_555 1_555
C15_5 N3_5 1_555 1_555
H12_5 C15_5 1_555 1_555
N7_5 Zn2_5 1_555 1_555
C19_5 N7_5 1_555 1_555
H13_5 C19_5 1_555 1_555
C20_5 C19_5 1_555 1_555
H14_5 C20_5 1_555 1_555
N8_3 C24_5 1_555 1_555
C24_5 H17_5 1_555 1_555
C25_5 C24_5 1_555 1_555
H18_5 C25_5 1_555 1_555
Zn4_3 N8_3 1_555 1_555
C12_5 C11_5 1_555 1_555
C13_5 C12_5 1_555 1_555
C14_5 C13_5 1_555 1_555
H11_5 C14_5 1_555 1_555
C22_5 C21_5 1_555 1_555
H15_5 C22_5 1_555 1_555
H16_5 C23_5 1_555 1_555
C27_5 C26_5 1_555 1_555
H19_5 C27_5 1_555 1_555
H20_5 C28_5 1_555 1_555
N9_3 C29_5 1_555 1_555
C29_5 H21_5 1_555 1_555
C30_5 C29_5 1_555 1_555
H22_5 C30_5 1_555 1_555
C31_5 C30_5 1_555 1_555
C32_5 C31_5 1_555 1_555
H23_5 C32_5 1_555 1_555
C33_5 N9_3 1_555 1_555
H24_5 C33_5 1_555 1_555
C34_5 C21_5 1_555 1_555
N10_5 C34_5 1_555 1_555
C35_5 C26_5 1_555 1_555
N11_5 C35_5 1_555 1_555
C36_5 C31_5 1_555 1_555
N12_5 C34_5 1_555 1_555
Zn5_3 N9_3 1_555 1_555
C22_5 C23_5 1_555 1_555
C27_5 C28_5 1_555 1_555
C32_5 C33_5 1_555 1_555
N10_5 C35_5 1_555 1_555
N11_5 C36_5 1_555 1_555
C36_5 N12_5 1_555 1_555
Zn5_3 Cl3_4 1_555 1_555
Cl4_4 Zn5_3 1_555 1_555
Cl6_6 Zn2_6 1_555 1_555
H2_4 C2_4 1_555 1_555
C3_4 C2_4 1_555 1_555
N2_4 Zn5_3 1_555 1_555
C6_4 N2_4 1_555 1_555
H5_4 C6_4 1_555 1_555
C7_4 C6_4 1_555 1_555
H6_4 C7_4 1_555 1_555
C8_4 C7_4 1_555 1_555
C9_4 C8_4 1_555 1_555
H7_4 C9_4 1_555 1_555
C10_4 N2_4 1_555 1_555
H8_4 C10_4 1_555 1_555
N3_6 Zn2_6 1_555 1_555
C11_6 N3_6 1_555 1_555
C12_6 C11_6 1_555 1_555
C13_6 C12_6 1_555 1_555
C14_6 C13_6 1_555 1_555
H11_6 C14_6 1_555 1_555
C15_6 N3_6 1_555 1_555
H12_6 C15_6 1_555 1_555
C16_4 C3_4 1_555 1_555
N4_4 C16_4 1_555 1_555
C17_4 C8_4 1_555 1_555
N5_4 C17_4 1_555 1_555
C18_4 C13_6 1_555 1_555
N6_4 C16_4 1_555 1_555
N7_6 Zn2_6 1_555 1_555
C19_6 N7_6 1_555 1_555
H13_6 C19_6 1_555 1_555
C20_6 C19_6 1_555 1_555
H14_6 C20_6 1_555 1_555
C21_6 C20_6 1_555 1_555
C22_6 C21_6 1_555 1_555
H15_6 C22_6 1_555 1_555
C23_6 N7_6 1_555 1_555
H16_6 C23_6 1_555 1_555
N8_4 C24_6 1_555 1_555
C24_6 H17_6 1_555 1_555
C25_6 C24_6 1_555 1_555
H18_6 C25_6 1_555 1_555
C26_6 C25_6 1_555 1_555
C27_6 C26_6 1_555 1_555
H19_6 C27_6 1_555 1_555
C28_6 N8_4 1_555 1_555
H20_6 C28_6 1_555 1_555
C29_6 H21_6 1_555 1_555
C30_6 C29_6 1_555 1_555
H22_6 C30_6 1_555 1_555
C31_6 C30_6 1_555 1_555
C32_6 C31_6 1_555 1_555
H23_6 C32_6 1_555 1_555
H24_6 C33_6 1_555 1_555
C34_6 C21_6 1_555 1_555
N10_6 C34_6 1_555 1_555
C35_6 C26_6 1_555 1_555
N11_6 C35_6 1_555 1_555
C36_6 C31_6 1_555 1_555
N12_6 C34_6 1_555 1_555
Zn4_4 N8_4 1_555 1_555
C9_4 C10_4 1_555 1_555
C14_6 C15_6 1_555 1_555
N4_4 C17_4 1_555 1_555
N5_4 C18_4 1_555 1_555
C18_4 N6_4 1_555 1_555
C22_6 C23_6 1_555 1_555
C27_6 C28_6 1_555 1_555
C32_6 C33_6 1_555 1_555
N10_6 C35_6 1_555 1_555
N11_6 C36_6 1_555 1_555
C36_6 N12_6 1_555 1_555
Zn4_4 Cl1_5 1_555 1_555
Cl2_5 Zn4_4 1_555 1_555
Zn3_2 Cl3_5 1_555 1_555
Cl4_5 Zn3_2 1_555 1_555
N1_5 Zn4_4 1_555 1_555
C1_5 N1_5 1_555 1_555
H1_5 C1_5 1_555 1_555
C2_5 C1_5 1_555 1_555
H2_5 C2_5 1_555 1_555
C3_5 C2_5 1_555 1_555
C4_4 C3_5 1_555 1_555
H3_4 C4_4 1_555 1_555
C5_4 N1_5 1_555 1_555
H4_4 C5_4 1_555 1_555
N2_5 Zn3_2 1_555 1_555
C6_5 N2_5 1_555 1_555
H5_5 C6_5 1_555 1_555
C7_5 C6_5 1_555 1_555
H6_5 C7_5 1_555 1_555
C8_5 C7_5 1_555 1_555
C9_5 C8_5 1_555 1_555
H7_5 C9_5 1_555 1_555
C10_5 N2_5 1_555 1_555
H8_5 C10_5 1_555 1_555
C16_5 C3_5 1_555 1_555
N4_5 C16_5 1_555 1_555
C17_5 C8_5 1_555 1_555
N5_5 C17_5 1_555 1_555
N6_5 C16_5 1_555 1_555
N14_2 Zn3_2 1_555 1_555
C4_4 C5_4 1_555 1_555
C9_5 C10_5 1_555 1_555
N4_5 C17_5 1_555 1_555
N5_5 C18_5 1_555 1_555
C18_5 N6_5 1_555 1_555
Zn4_3 Cl1_6 1_555 1_555
Cl2_6 Zn4_3 1_555 1_555
N1_6 Zn4_3 1_555 1_555
C1_6 N1_6 1_555 1_555
H1_6 C1_6 1_555 1_555
Zn3_3 Cl3_6 1_555 1_555
Cl4_6 Zn3_3 1_555 1_555
H2_6 C2_6 1_555 1_555
C3_6 C2_6 1_555 1_555
N2_6 Zn3_3 1_555 1_555
C6_6 N2_6 1_555 1_555
H5_6 C6_6 1_555 1_555
C7_6 C6_6 1_555 1_555
H6_6 C7_6 1_555 1_555
C8_6 C7_6 1_555 1_555
C9_6 C8_6 1_555 1_555
H7_6 C9_6 1_555 1_555
C10_6 N2_6 1_555 1_555
H8_6 C10_6 1_555 1_555
C16_6 C3_6 1_555 1_555
N4_6 C16_6 1_555 1_555
C17_6 C8_6 1_555 1_555
N5_6 C17_6 1_555 1_555
N6_6 C16_6 1_555 1_555
N14_3 Zn3_3 1_555 1_555
C9_6 C10_6 1_555 1_555
N4_6 C17_6 1_555 1_555
N5_6 C18_6 1_555 1_555
C18_6 N6_6 1_555 1_555
Zn1_3 Cl1_7 1_555 1_555
Cl2_7 Zn1_3 1_555 1_555
N1_7 Zn1_3 1_555 1_555
C1_7 N1_7 1_555 1_555
H1_7 C1_7 1_555 1_555
H3_5 C4_5 1_555 1_555
C5_5 N1_7 1_555 1_555
H4_5 C5_5 1_555 1_555
N13_3 Zn1_3 1_555 1_555
C4_5 C5_5 1_555 1_555
H9_4 C11_7 1_555 1_555
C12_7 C11_7 1_555 1_555
H10_4 C12_7 1_555 1_555
C13_7 C12_7 1_555 1_555
C14_7 C13_7 1_555 1_555
H11_7 C14_7 1_555 1_555
C22_7 C21_7 1_555 1_555
H15_7 C22_7 1_555 1_555
H16_7 C23_7 1_555 1_555
C27_7 C26_7 1_555 1_555
H19_7 C27_7 1_555 1_555
H20_7 C28_7 1_555 1_555
N9_4 C29_7 1_555 1_555
C29_7 H21_7 1_555 1_555
C30_7 C29_7 1_555 1_555
H22_7 C30_7 1_555 1_555
C31_7 C30_7 1_555 1_555
C32_7 C31_7 1_555 1_555
H23_7 C32_7 1_555 1_555
C33_7 N9_4 1_555 1_555
H24_7 C33_7 1_555 1_555
C34_7 C21_7 1_555 1_555
N10_7 C34_7 1_555 1_555
C35_7 C26_7 1_555 1_555
N11_7 C35_7 1_555 1_555
C36_7 C31_7 1_555 1_555
N12_7 C34_7 1_555 1_555
Zn5_4 N9_4 1_555 1_555
C22_7 C23_7 1_555 1_555
C27_7 C28_7 1_555 1_555
C32_7 C33_7 1_555 1_555
N10_7 C35_7 1_555 1_555
N11_7 C36_7 1_555 1_555
C36_7 N12_7 1_555 1_555
Zn2_7 Cl5_4 1_555 1_555
Zn5_4 Cl3_7 1_555 1_555
Cl4_7 Zn5_4 1_555 1_555
Cl6_7 Zn2_7 1_555 1_555
H2_7 C2_7 1_555 1_555
C3_7 C2_7 1_555 1_555
C4_6 C3_7 1_555 1_555
H3_6 C4_6 1_555 1_555
H4_6 C5_6 1_555 1_555
N2_7 Zn5_4 1_555 1_555
C6_7 N2_7 1_555 1_555
H5_7 C6_7 1_555 1_555
C7_7 C6_7 1_555 1_555
H6_7 C7_7 1_555 1_555
C8_7 C7_7 1_555 1_555
C9_7 C8_7 1_555 1_555
H7_7 C9_7 1_555 1_555
C10_7 N2_7 1_555 1_555
H8_7 C10_7 1_555 1_555
N3_7 Zn2_7 1_555 1_555
C11_8 N3_7 1_555 1_555
H9_5 C11_8 1_555 1_555
C12_8 C11_8 1_555 1_555
H10_5 C12_8 1_555 1_555
C13_8 C12_8 1_555 1_555
C14_8 C13_8 1_555 1_555
H11_8 C14_8 1_555 1_555
C15_7 N3_7 1_555 1_555
H12_7 C15_7 1_555 1_555
C16_7 C3_7 1_555 1_555
N4_7 C16_7 1_555 1_555
C17_7 C8_7 1_555 1_555
N5_7 C17_7 1_555 1_555
C18_7 C13_8 1_555 1_555
N6_7 C16_7 1_555 1_555
N7_7 Zn2_7 1_555 1_555
C19_7 N7_7 1_555 1_555
H13_7 C19_7 1_555 1_555
C20_7 C19_7 1_555 1_555
H14_7 C20_7 1_555 1_555
C21_8 C20_7 1_555 1_555
C22_8 C21_8 1_555 1_555
H15_8 C22_8 1_555 1_555
C23_8 N7_7 1_555 1_555
H16_8 C23_8 1_555 1_555
N13_3 C24_7 1_555 1_555
C24_7 H17_7 1_555 1_555
C25_7 C24_7 1_555 1_555
H18_7 C25_7 1_555 1_555
C26_8 C25_7 1_555 1_555
C27_8 C26_8 1_555 1_555
H19_8 C27_8 1_555 1_555
C28_8 N13_3 1_555 1_555
H20_8 C28_8 1_555 1_555
C29_8 H21_8 1_555 1_555
C30_8 C29_8 1_555 1_555
H22_8 C30_8 1_555 1_555
C31_8 C30_8 1_555 1_555
C32_8 C31_8 1_555 1_555
H23_8 C32_8 1_555 1_555
H24_8 C33_8 1_555 1_555
C34_8 C21_8 1_555 1_555
N10_8 C34_8 1_555 1_555
C35_8 C26_8 1_555 1_555
N11_8 C35_8 1_555 1_555
C36_8 C31_8 1_555 1_555
N12_8 C34_8 1_555 1_555
C4_6 C5_6 1_555 1_555
C9_7 C10_7 1_555 1_555
C14_8 C15_7 1_555 1_555
N4_7 C17_7 1_555 1_555
N5_7 C18_7 1_555 1_555
C18_7 N6_7 1_555 1_555
C22_8 C23_8 1_555 1_555
C27_8 C28_8 1_555 1_555
C32_8 C33_8 1_555 1_555
N10_8 C35_8 1_555 1_555
N11_8 C36_8 1_555 1_555
C36_8 N12_8 1_555 1_555
H3_7 C4_7 1_555 1_555
H4_7 C5_7 1_555 1_555
C4_7 C5_7 1_555 1_555
Zn1_4 Cl1_8 1_555 1_555
Cl2_8 Zn1_4 1_555 1_555
N1_8 Zn1_4 1_555 1_555
C1_8 N1_8 1_555 1_555
H1_8 C1_8 1_555 1_555
N13_4 Zn1_4 1_555 1_555
Zn2_8 Cl5_6 1_555 1_555
Cl6_8 Zn2_8 1_555 1_555
N3_8 Zn2_8 1_555 1_555
C15_8 N3_8 1_555 1_555
H12_8 C15_8 1_555 1_555
N7_8 Zn2_8 1_555 1_555
C19_8 N7_8 1_555 1_555
H13_8 C19_8 1_555 1_555
C20_8 C19_8 1_555 1_555
H14_8 C20_8 1_555 1_555
N13_4 C24_8 1_555 1_555
C24_8 H17_8 1_555 1_555
C25_8 C24_8 1_555 1_555
H18_8 C25_8 1_555 1_555
Zn3_4 Cl3_8 1_555 1_555
Cl4_8 Zn3_4 1_555 1_555
H2_8 C2_8 1_555 1_555
C3_8 C2_8 1_555 1_555
N2_8 Zn3_4 1_555 1_555
C6_8 N2_8 1_555 1_555
H5_8 C6_8 1_555 1_555
C7_8 C6_8 1_555 1_555
H6_8 C7_8 1_555 1_555
C8_8 C7_8 1_555 1_555
C9_8 C8_8 1_555 1_555
H7_8 C9_8 1_555 1_555
C10_8 N2_8 1_555 1_555
H8_8 C10_8 1_555 1_555
C16_8 C3_8 1_555 1_555
N4_8 C16_8 1_555 1_555
C17_8 C8_8 1_555 1_555
N5_8 C17_8 1_555 1_555
N6_8 C16_8 1_555 1_555
N14_4 Zn3_4 1_555 1_555
C9_8 C10_8 1_555 1_555
N4_8 C17_8 1_555 1_555
N5_8 C18_8 1_555 1_555
C18_8 N6_8 1_555 1_555
H3_8 C4_8 1_555 1_555
H4_8 C5_8 1_555 1_555
C4_8 C5_8 1_555 1_555

#END
