
###############################################################################
#
# This file contains modified crystal structure data generated from the
# MOF subset of the Cambridge Structural Database (CSD) v543 
# hosted by the Cambridge Crystallographic Data Centre (CCDC).
#
# This work is licensed under the Creative Commons
# Attribution-NonCommercial-ShareAlike 4.0 International License.
# To view a copy of this license, visit
# http://creativecommons.org/licenses/by-nc-sa/4.0/
# or send a letter to
# Creative Commons, PO Box 1866, Mountain View, CA 94042, USA.
#
# CIF created using the CSD Python API on 29 September 2022
# The structure has been converted into the P1 space group
# The structure has a 3D framework
# The original CSD entry NILHIC is in the monoclinic crystal system
# The framework has been calculated to contain at least 10.0% void space
# The void calculation uses a probe of radius 1.32A, grid spacing 0.4
#
###############################################################################

data_NILHIC
_chemical_formula_moiety         '(C288 H192 I48 N88 Zn24)n'
_symmetry_cell_setting           triclinic
_symmetry_space_group_name_H-M   'P 1'
_symmetry_Int_Tables_number      1
_space_group_name_Hall           'P 1'
loop_
_symmetry_equiv_pos_site_id
_symmetry_equiv_pos_as_xyz
1 x,y,z
_cell_length_a                   33.7917(17)
_cell_length_b                   15.1571(6)
_cell_length_c                   31.8176(14)
_cell_angle_alpha                90
_cell_angle_beta                 101.239(4)
_cell_angle_gamma                90
_cell_volume                     15983.9
loop_
_atom_site_label
_atom_site_type_symbol
_atom_site_fract_x
_atom_site_fract_y
_atom_site_fract_z
I1 I 0.3617(3) 0.3205(3) 0.29279(15)
I2 I 0.2534(3) 0.2760(2) 0.1912(2)
I3 I 0.88735(3) 0.73196(3) 0.42275(2)
I4 I 0.99006(3) 0.62394(5) 0.36947(2)
I5 I 0.60940(2) 0.73204(3) 0.09697(3)
Zn1 Zn 0.92532(4) 0.60592(6) 0.39756(3)
Zn2 Zn 0.31313(5) 0.35113(5) 0.21403(4)
Zn3 Zn 0.62733(3) 0.59318(6) 0.06069(4)
N1 N 0.8857(2) 0.5368(3) 0.35124(18)
C1 C 0.8572(3) 0.5776(4) 0.3242(3)
H1 H 0.8533 0.6390 0.3279
C2 C 0.8327(3) 0.5345(4) 0.2907(2)
H2 H 0.8122 0.5661 0.2719
C3 C 0.8378(2) 0.4454(4) 0.28447(19)
C4 C 0.8668(2) 0.4032(4) 0.3133(3)
H3 H 0.8708 0.3415 0.3108
C5 C 0.8901(3) 0.4501(5) 0.3461(3)
H4 H 0.9102 0.4196 0.3658
C6 C 0.8278(4) 0.0352(5) 0.2433(3)
H5 H 0.8460 0.0052 0.2652
C7 C 0.8259(3) 0.1281(5) 0.2455(3)
H6 H 0.8426 0.1602 0.2678
C8 C 0.7990(2) 0.1697(4) 0.2139(2)
C9 C 0.7759(3) 0.1211(5) 0.1826(3)
H7 H 0.7569 0.1477 0.1603
C10 C 0.7814(4) 0.0283(5) 0.1852(4)
N3 N 0.67028(17) 0.5274(3) 0.1045(2)
C11 C 0.6949(2) 0.5697(4) 0.1362(3)
H9 H 0.6916 0.6315 0.1392
C12 C 0.7243(2) 0.5278(4) 0.1642(3)
H10 H 0.7412 0.5607 0.1861
C13 C 0.7301(2) 0.4383(4) 0.1613(2)
C14 C 0.7049(2) 0.3932(4) 0.1286(2)
H11 H 0.7074 0.3313 0.1254
C15 C 0.6763(2) 0.4406(4) 0.1011(2)
H12 H 0.6598 0.4098 0.0782
C16 C 0.81220(19) 0.3956(3) 0.24876(19)
N4 N 0.81957(15) 0.3092(3) 0.24643(16)
C17 C 0.79451(19) 0.2665(3) 0.2153(2)
N5 N 0.76559(16) 0.3044(3) 0.18671(16)
C18 C 0.7616(2) 0.3918(4) 0.1917(2)
N6 N 0.78395(16) 0.4398(3) 0.22297(16)
N7 N 0.57901(19) 0.5084(4) 0.0561(3)
C19 C 0.5654(2) 0.4578(4) 0.0225(2)
C20 C 0.5345(2) 0.3998(4) 0.0208(2)
C21 C 0.51502(19) 0.3934(4) 0.0551(2)
C22 C 0.5297(4) 0.4436(11) 0.0901(4)
H15 H 0.5183 0.4394 0.1151
C23 C 0.5612(4) 0.5003(11) 0.0892(5)
H16 H 0.5706 0.5357 0.1137
C26 C 0.44282(19) 0.1319(4) 0.00115(19)
H19 H 0.3896 0.0875 0.0122
N9 N 0.3505(2) 0.3307(4) 0.1708(2)
C29 C 0.3885(3) 0.3574(5) 0.1803(3)
H21 H 0.3979 0.3869 0.2067
C30 C 0.4150(3) 0.3433(6) 0.1526(3)
H22 H 0.4420 0.3639 0.1597
C31 C 0.4013(2) 0.2986(4) 0.1142(2)
C32 C 0.3629(2) 0.2681(5) 0.1056(3)
H23 H 0.3531 0.2347 0.0804
C33 C 0.3385(2) 0.2873(5) 0.1346(3)
H24 H 0.3112 0.2679 0.1280
C34 C 0.48143(18) 0.3308(4) 0.0553(2)
N10 N 0.47676(14) 0.2666(3) 0.02664(17)
C35 C 0.44668(17) 0.2097(3) 0.02999(19)
N11 N 0.42148(15) 0.2174(3) 0.05637(16)
C36 C 0.42903(19) 0.2867(4) 0.0837(2)
N12 N 0.45894(16) 0.3432(3) 0.08556(18)
N13 N 0.3061(2) 0.4883(3) 0.2131(2)
N14 N 0.93522(18) 0.5104(3) 0.44462(17)
I3_2 I 0.38735(3) 0.23196(3) 0.42275(2)
I4_2 I 0.49006(3) 0.12394(5) 0.36947(2)
I5_2 I 0.10940(2) 0.23204(3) 0.09697(3)
Zn1_2 Zn 0.42532(4) 0.10592(6) 0.39756(3)
Zn3_2 Zn 0.12733(3) 0.09318(6) 0.06069(4)
N1_2 N 0.3857(2) 0.0368(3) 0.35124(18)
C1_2 C 0.3572(3) 0.0776(4) 0.3242(3)
H1_2 H 0.3533 0.1390 0.3279
C2_2 C 0.3327(3) 0.0345(4) 0.2907(2)
H2_2 H 0.3122 0.0661 0.2719
N3_2 N 0.17028(17) 0.0274(3) 0.1045(2)
C11_2 C 0.1949(2) 0.0697(4) 0.1362(3)
H9_2 H 0.1916 0.1315 0.1392
C12_2 C 0.2243(2) 0.0278(4) 0.1642(3)
H10_2 H 0.2412 0.0607 0.1861
N7_2 N 0.07901(19) 0.0084(4) 0.0561(3)
C23_2 C 0.0612(4) 0.0003(11) 0.0892(5)
H16_2 H 0.0706 0.0357 0.1137
N14_2 N 0.43522(18) 0.0104(3) 0.44462(17)
C3_2 C 0.3378(2) 0.9454(4) 0.28447(19)
C4_2 C 0.3668(2) 0.9032(4) 0.3133(3)
H3_2 H 0.3708 0.8415 0.3108
C5_2 C 0.3901(3) 0.9501(5) 0.3461(3)
H4_2 H 0.4102 0.9196 0.3658
C6_2 C 0.3278(4) 0.5352(5) 0.2433(3)
H5_2 H 0.3460 0.5052 0.2652
C7_2 C 0.3259(3) 0.6281(5) 0.2455(3)
H6_2 H 0.3426 0.6602 0.2678
C8_2 C 0.2990(2) 0.6697(4) 0.2139(2)
C9_2 C 0.2759(3) 0.6211(5) 0.1826(3)
H7_2 H 0.2569 0.6477 0.1603
C10_2 C 0.2814(4) 0.5283(5) 0.1852(4)
H8 H 0.2649 0.4936 0.1638
C13_2 C 0.2301(2) 0.9383(4) 0.1613(2)
C14_2 C 0.2049(2) 0.8932(4) 0.1286(2)
H11_2 H 0.2074 0.8313 0.1254
C15_2 C 0.1763(2) 0.9406(4) 0.1011(2)
H12_2 H 0.1598 0.9098 0.0782
C16_2 C 0.31220(19) 0.8956(3) 0.24876(19)
N4_2 N 0.31957(15) 0.8092(3) 0.24643(16)
C17_2 C 0.29451(19) 0.7665(3) 0.2153(2)
N5_2 N 0.26559(16) 0.8044(3) 0.18671(16)
C18_2 C 0.2616(2) 0.8918(4) 0.1917(2)
N6_2 N 0.28395(16) 0.9398(3) 0.22297(16)
C19_2 C 0.0654(2) 0.9578(4) 0.0225(2)
C20_2 C 0.0345(2) 0.8998(4) 0.0208(2)
C21_2 C 0.01502(19) 0.8934(4) 0.0551(2)
C22_2 C 0.0297(4) 0.9436(11) 0.0901(4)
H15_2 H 0.0183 0.9394 0.1151
N2 N 0.8061(2) 0.0117(3) 0.7131(2)
H8_2 H 0.7649 0.0064 0.6638
H20 H 0.3839 0.0313 0.4652
Zn5 Zn 0.81313(5) 0.14887(5) 0.71403(4)
I1_2 I 0.8617(3) 0.1795(3) 0.79279(15)
I2_2 I 0.7534(3) 0.2240(2) 0.6912(2)
C24 C 0.9672(2) 0.4583(5) 0.4506(2)
H17 H 0.9879 0.4706 0.4352
C25 C 0.9718(2) 0.3868(4) 0.4781(2)
H18 H 0.9952 0.3508 0.4809
C26_2 C 0.94282(19) 0.3681(4) 0.50115(19)
C27 C 0.9102(2) 0.4229(5) 0.4962(2)
H19_2 H 0.8896 0.4125 0.5122
C28 C 0.9068(3) 0.4937(5) 0.4680(3)
H20_2 H 0.8839 0.5313 0.4652
N9_2 N 0.8505(2) 0.1693(4) 0.6708(2)
C29_2 C 0.8885(3) 0.1426(5) 0.6803(3)
H21_2 H 0.8979 0.1131 0.7067
C30_2 C 0.9150(3) 0.1567(6) 0.6526(3)
H22_2 H 0.9420 0.1361 0.6597
C31_2 C 0.9013(2) 0.2014(4) 0.6142(2)
C32_2 C 0.8629(2) 0.2319(5) 0.6056(3)
H23_2 H 0.8531 0.2653 0.5804
C33_2 C 0.8385(2) 0.2127(5) 0.6346(3)
H24_2 H 0.8112 0.2321 0.6280
C34_2 C 0.98143(18) 0.1692(4) 0.5553(2)
N10_2 N 0.97676(14) 0.2334(3) 0.52664(17)
C35_2 C 0.94668(17) 0.2903(3) 0.52999(19)
N11_2 N 0.92148(15) 0.2826(3) 0.55637(16)
C36_2 C 0.92903(19) 0.2133(4) 0.5837(2)
N12_2 N 0.95894(16) 0.1568(3) 0.58556(18)
I6 I 0.65167(2) 0.59242(5) 0.99062(2)
H13 H 0.5779 0.4622 0.9983
H14 H 0.5263 0.3638 0.9962
C24_2 C 0.4672(2) 0.0417(5) 0.9506(2)
H17_2 H 0.4879 0.0294 0.9352
C25_2 C 0.4718(2) 0.1132(4) 0.9781(2)
H18_2 H 0.4952 0.1492 0.9809
C27_2 C 0.4102(2) 0.0771(5) 0.9962(2)
C28_2 C 0.4068(3) 0.0063(5) 0.9680(3)
N2_2 N 0.8061(2) 0.9883(3) 0.2131(2)
H8_3 H 0.7649 0.9936 0.1638
Zn5_2 Zn 0.81313(5) 0.85113(5) 0.21403(4)
I1_3 I 0.8617(3) 0.8205(3) 0.29279(15)
I2_3 I 0.7534(3) 0.7760(2) 0.1912(2)
C26_3 C 0.94282(19) 0.6319(4) 0.00115(19)
H19_3 H 0.8896 0.5875 0.0122
N9_3 N 0.8505(2) 0.8307(4) 0.1708(2)
C29_3 C 0.8885(3) 0.8574(5) 0.1803(3)
H21_3 H 0.8979 0.8869 0.2067
C30_3 C 0.9150(3) 0.8433(6) 0.1526(3)
H22_3 H 0.9420 0.8639 0.1597
C31_3 C 0.9013(2) 0.7986(4) 0.1142(2)
C32_3 C 0.8629(2) 0.7681(5) 0.1056(3)
H23_3 H 0.8531 0.7347 0.0804
C33_3 C 0.8385(2) 0.7873(5) 0.1346(3)
H24_3 H 0.8112 0.7679 0.1280
C34_3 C 0.98143(18) 0.8308(4) 0.0553(2)
N10_3 N 0.97676(14) 0.7666(3) 0.02664(17)
C35_3 C 0.94668(17) 0.7097(3) 0.02999(19)
N11_3 N 0.92148(15) 0.7174(3) 0.05637(16)
C36_3 C 0.92903(19) 0.7867(4) 0.0837(2)
N12_3 N 0.95894(16) 0.8432(3) 0.08556(18)
N8 N 0.43522(18) 0.9896(3) 0.94462(17)
H20_3 H 0.3839 0.9687 0.9652
Zn4 Zn 0.42532(4) 0.89408(6) 0.89756(3)
I3_3 I 0.38735(3) 0.76804(3) 0.92275(2)
I4_3 I 0.49006(3) 0.87606(5) 0.86947(2)
I5_3 I 0.10940(2) 0.76796(3) 0.59697(3)
I6_2 I 0.15167(2) 0.90758(5) 0.49062(2)
Zn3_3 Zn 0.12733(3) 0.90682(6) 0.56069(4)
N1_3 N 0.3857(2) 0.9632(3) 0.85124(18)
C1_3 C 0.3572(3) 0.9224(4) 0.8242(3)
H1_3 H 0.3533 0.8610 0.8279
C2_3 C 0.3327(3) 0.9655(4) 0.7907(2)
H2_3 H 0.3122 0.9339 0.7719
N3_3 N 0.17028(17) 0.9726(3) 0.6045(2)
C11_3 C 0.1949(2) 0.9303(4) 0.6362(3)
H9_3 H 0.1916 0.8685 0.6392
C12_3 C 0.2243(2) 0.9722(4) 0.6642(3)
H10_3 H 0.2412 0.9393 0.6861
N7_3 N 0.07901(19) 0.9916(4) 0.5561(3)
C23_3 C 0.0612(4) 0.9997(11) 0.5892(5)
H16_3 H 0.0706 0.9643 0.6137
I1_4 I 0.6383(3) 0.3205(3) 0.20721(15)
I2_4 I 0.7466(3) 0.2760(2) 0.3088(2)
I3_4 I 0.11265(3) 0.73196(3) 0.07725(2)
I4_4 I 0.00994(3) 0.62394(5) 0.13053(2)
I5_4 I 0.39060(2) 0.73204(3) 0.40303(3)
I6_3 I 0.34833(2) 0.59242(5) 0.50938(2)
Zn1_3 Zn 0.07468(4) 0.60592(6) 0.10244(3)
Zn2_2 Zn 0.68687(5) 0.35113(5) 0.28597(4)
Zn3_4 Zn 0.37267(3) 0.59318(6) 0.43931(4)
N1_4 N 0.1143(2) 0.5368(3) 0.14876(18)
C1_4 C 0.1428(3) 0.5776(4) 0.1758(3)
H1_4 H 0.1467 0.6390 0.1721
C2_4 C 0.1673(3) 0.5345(4) 0.2093(2)
H2_4 H 0.1878 0.5661 0.2281
C3_3 C 0.1622(2) 0.4454(4) 0.21553(19)
C4_3 C 0.1332(2) 0.4032(4) 0.1867(3)
H3_3 H 0.1292 0.3415 0.1892
C5_3 C 0.1099(3) 0.4501(5) 0.1539(3)
H4_3 H 0.0898 0.4196 0.1342
C6_3 C 0.1722(4) 0.0352(5) 0.2567(3)
H5_3 H 0.1540 0.0052 0.2348
C7_3 C 0.1741(3) 0.1281(5) 0.2545(3)
H6_3 H 0.1574 0.1602 0.2322
C8_3 C 0.2010(2) 0.1697(4) 0.2861(2)
C9_3 C 0.2241(3) 0.1211(5) 0.3174(3)
H7_3 H 0.2431 0.1477 0.3397
C10_3 C 0.2186(4) 0.0283(5) 0.3148(4)
N3_4 N 0.32972(17) 0.5274(3) 0.3955(2)
C11_4 C 0.3051(2) 0.5697(4) 0.3638(3)
H9_4 H 0.3084 0.6315 0.3608
C12_4 C 0.2757(2) 0.5278(4) 0.3358(3)
H10_4 H 0.2588 0.5607 0.3139
C13_3 C 0.2699(2) 0.4383(4) 0.3387(2)
C14_3 C 0.2951(2) 0.3932(4) 0.3714(2)
H11_3 H 0.2926 0.3313 0.3746
C15_3 C 0.3237(2) 0.4406(4) 0.3989(2)
H12_3 H 0.3402 0.4098 0.4218
C16_3 C 0.18780(19) 0.3956(3) 0.25124(19)
N4_3 N 0.18043(15) 0.3092(3) 0.25357(16)
C17_3 C 0.20549(19) 0.2665(3) 0.2847(2)
N5_3 N 0.23441(16) 0.3044(3) 0.31329(16)
C18_3 C 0.2384(2) 0.3918(4) 0.3083(2)
N6_3 N 0.21605(16) 0.4398(3) 0.27703(16)
N7_4 N 0.42099(19) 0.5084(4) 0.4439(3)
C19_3 C 0.4346(2) 0.4578(4) 0.4775(2)
H13_2 H 0.4221 0.4622 0.5017
C20_3 C 0.4655(2) 0.3998(4) 0.4792(2)
H14_2 H 0.4737 0.3638 0.5038
C21_3 C 0.48498(19) 0.3934(4) 0.4449(2)
C22_3 C 0.4703(4) 0.4436(11) 0.4099(4)
H15_3 H 0.4817 0.4394 0.3849
C23_4 C 0.4388(4) 0.5003(11) 0.4108(5)
H16_4 H 0.4294 0.5357 0.3863
C24_3 C 0.5328(2) 0.0417(5) 0.5494(2)
H17_3 H 0.5121 0.0294 0.5648
C25_3 C 0.5282(2) 0.1132(4) 0.5219(2)
H18_3 H 0.5048 0.1492 0.5191
C26_4 C 0.55718(19) 0.1319(4) 0.49885(19)
C27_3 C 0.5898(2) 0.0771(5) 0.5038(2)
H19_4 H 0.6104 0.0875 0.4878
C28_3 C 0.5932(3) 0.0063(5) 0.5320(3)
N9_4 N 0.6495(2) 0.3307(4) 0.3292(2)
C29_4 C 0.6115(3) 0.3574(5) 0.3197(3)
H21_4 H 0.6021 0.3869 0.2933
C30_4 C 0.5850(3) 0.3433(6) 0.3474(3)
H22_4 H 0.5580 0.3639 0.3403
C31_4 C 0.5987(2) 0.2986(4) 0.3858(2)
C32_4 C 0.6371(2) 0.2681(5) 0.3944(3)
H23_4 H 0.6469 0.2347 0.4196
C33_4 C 0.6615(2) 0.2873(5) 0.3654(3)
H24_4 H 0.6888 0.2679 0.3720
C34_4 C 0.51857(18) 0.3308(4) 0.4447(2)
N10_4 N 0.52324(14) 0.2666(3) 0.47336(17)
C35_4 C 0.55332(17) 0.2097(3) 0.47001(19)
N11_4 N 0.57852(15) 0.2174(3) 0.44363(16)
C36_4 C 0.57097(19) 0.2867(4) 0.4163(2)
N12_4 N 0.54106(16) 0.3432(3) 0.41444(18)
N13_2 N 0.6939(2) 0.4883(3) 0.2869(2)
N14_3 N 0.06478(18) 0.5104(3) 0.05538(17)
C3_4 C 0.6622(2) 0.9454(4) 0.21553(19)
C4_4 C 0.6332(2) 0.9032(4) 0.1867(3)
H3_4 H 0.6292 0.8415 0.1892
C5_4 C 0.6099(3) 0.9501(5) 0.1539(3)
H4_4 H 0.5898 0.9196 0.1342
C6_4 C 0.6722(4) 0.5352(5) 0.2567(3)
H5_4 H 0.6540 0.5052 0.2348
C7_4 C 0.6741(3) 0.6281(5) 0.2545(3)
H6_4 H 0.6574 0.6602 0.2322
C8_4 C 0.7010(2) 0.6697(4) 0.2861(2)
C9_4 C 0.7241(3) 0.6211(5) 0.3174(3)
H7_4 H 0.7431 0.6477 0.3397
C10_4 C 0.7186(4) 0.5283(5) 0.3148(4)
H8_4 H 0.7351 0.4936 0.3362
C13_4 C 0.7699(2) 0.9383(4) 0.3387(2)
C14_4 C 0.7951(2) 0.8932(4) 0.3714(2)
H11_4 H 0.7926 0.8313 0.3746
C15_4 C 0.8237(2) 0.9406(4) 0.3989(2)
H12_4 H 0.8402 0.9098 0.4218
C16_4 C 0.68780(19) 0.8956(3) 0.25124(19)
N4_4 N 0.68043(15) 0.8092(3) 0.25357(16)
C17_4 C 0.70549(19) 0.7665(3) 0.2847(2)
N5_4 N 0.73441(16) 0.8044(3) 0.31329(16)
C18_4 C 0.7384(2) 0.8918(4) 0.3083(2)
N6_4 N 0.71605(16) 0.9398(3) 0.27703(16)
C19_4 C 0.9346(2) 0.9578(4) 0.4775(2)
H13_3 H 0.9221 0.9622 0.5017
C20_4 C 0.9655(2) 0.8998(4) 0.4792(2)
H14_3 H 0.9737 0.8638 0.5038
C21_4 C 0.98498(19) 0.8934(4) 0.4449(2)
C22_4 C 0.9703(4) 0.9436(11) 0.4099(4)
H15_4 H 0.9817 0.9394 0.3849
C24_4 C 0.0328(2) 0.4583(5) 0.0494(2)
H17_4 H 0.0121 0.4706 0.0648
C25_4 C 0.0282(2) 0.3868(4) 0.0219(2)
H18_4 H 0.0048 0.3508 0.0191
C27_4 C 0.0898(2) 0.4229(5) 0.0038(2)
C28_4 C 0.0932(3) 0.4937(5) 0.0320(3)
H20_4 H 0.1161 0.5313 0.0348
N2_3 N 0.1939(2) 0.9883(3) 0.2869(2)
H8_5 H 0.2351 0.9936 0.3362
N8_2 N 0.56478(18) 0.9896(3) 0.55538(17)
H20_5 H 0.6161 0.9687 0.5348
Zn4_2 Zn 0.57468(4) 0.89408(6) 0.60244(3)
Zn5_3 Zn 0.18687(5) 0.85113(5) 0.28597(4)
I1_5 I 0.1383(3) 0.8205(3) 0.20721(15)
I2_5 I 0.2466(3) 0.7760(2) 0.3088(2)
N8_3 N 0.06478(18) 0.4896(3) 0.55538(17)
C24_5 C 0.0328(2) 0.5417(5) 0.5494(2)
H17_5 H 0.0121 0.5294 0.5648
C25_5 C 0.0282(2) 0.6132(4) 0.5219(2)
H18_5 H 0.0048 0.6492 0.5191
C26_5 C 0.05718(19) 0.6319(4) 0.49885(19)
C27_5 C 0.0898(2) 0.5771(5) 0.5038(2)
H19_5 H 0.1104 0.5875 0.4878
C28_5 C 0.0932(3) 0.5063(5) 0.5320(3)
H20_6 H 0.1161 0.4687 0.5348
N9_5 N 0.1495(2) 0.8307(4) 0.3292(2)
C29_5 C 0.1115(3) 0.8574(5) 0.3197(3)
H21_5 H 0.1021 0.8869 0.2933
C30_5 C 0.0850(3) 0.8433(6) 0.3474(3)
H22_5 H 0.0580 0.8639 0.3403
C31_5 C 0.0987(2) 0.7986(4) 0.3858(2)
C32_5 C 0.1371(2) 0.7681(5) 0.3944(3)
H23_5 H 0.1469 0.7347 0.4196
C33_5 C 0.1615(2) 0.7873(5) 0.3654(3)
H24_5 H 0.1888 0.7679 0.3720
C34_5 C 0.01857(18) 0.8308(4) 0.4447(2)
N10_5 N 0.02324(14) 0.7666(3) 0.47336(17)
C35_5 C 0.05332(17) 0.7097(3) 0.47001(19)
N11_5 N 0.07852(15) 0.7174(3) 0.44363(16)
C36_5 C 0.07097(19) 0.7867(4) 0.4163(2)
N12_5 N 0.04106(16) 0.8432(3) 0.41444(18)
Zn4_3 Zn 0.07468(4) 0.39408(6) 0.60244(3)
I1_6 I 0.6383(3) 0.6795(3) 0.70721(15)
I2_6 I 0.7466(3) 0.7240(2) 0.8088(2)
I3_5 I 0.11265(3) 0.26804(3) 0.57725(2)
I4_5 I 0.00994(3) 0.37606(5) 0.63053(2)
I5_5 I 0.39060(2) 0.26796(3) 0.90303(3)
Zn2_3 Zn 0.68687(5) 0.64887(5) 0.78597(4)
Zn3_5 Zn 0.37267(3) 0.40682(6) 0.93931(4)
N1_5 N 0.1143(2) 0.4632(3) 0.64876(18)
C1_5 C 0.1428(3) 0.4224(4) 0.6758(3)
H1_5 H 0.1467 0.3610 0.6721
C2_5 C 0.1673(3) 0.4655(4) 0.7093(2)
H2_5 H 0.1878 0.4339 0.7281
C3_5 C 0.1622(2) 0.5546(4) 0.71553(19)
C4_5 C 0.1332(2) 0.5968(4) 0.6867(3)
H3_5 H 0.1292 0.6585 0.6892
C5_5 C 0.1099(3) 0.5499(5) 0.6539(3)
H4_5 H 0.0898 0.5804 0.6342
C6_5 C 0.1722(4) 0.9648(5) 0.7567(3)
H5_5 H 0.1540 0.9948 0.7348
C7_5 C 0.1741(3) 0.8719(5) 0.7545(3)
H6_5 H 0.1574 0.8398 0.7322
C8_5 C 0.2010(2) 0.8303(4) 0.7861(2)
C9_5 C 0.2241(3) 0.8789(5) 0.8174(3)
H7_5 H 0.2431 0.8523 0.8397
C10_5 C 0.2186(4) 0.9717(5) 0.8148(4)
N3_5 N 0.32972(17) 0.4726(3) 0.8955(2)
C11_5 C 0.3051(2) 0.4303(4) 0.8638(3)
H9_5 H 0.3084 0.3685 0.8608
C12_5 C 0.2757(2) 0.4722(4) 0.8358(3)
H10_5 H 0.2588 0.4393 0.8139
C13_5 C 0.2699(2) 0.5617(4) 0.8387(2)
C14_5 C 0.2951(2) 0.6068(4) 0.8714(2)
H11_5 H 0.2926 0.6687 0.8746
C15_5 C 0.3237(2) 0.5594(4) 0.8989(2)
H12_5 H 0.3402 0.5902 0.9218
C16_5 C 0.18780(19) 0.6044(3) 0.75124(19)
N4_5 N 0.18043(15) 0.6908(3) 0.75357(16)
C17_5 C 0.20549(19) 0.7335(3) 0.7847(2)
N5_5 N 0.23441(16) 0.6956(3) 0.81329(16)
C18_5 C 0.2384(2) 0.6082(4) 0.8083(2)
N6_5 N 0.21605(16) 0.5602(3) 0.77703(16)
N7_5 N 0.42099(19) 0.4916(4) 0.9439(3)
C19_5 C 0.4346(2) 0.5422(4) 0.9775(2)
C20_5 C 0.4655(2) 0.6002(4) 0.9792(2)
C21_5 C 0.48498(19) 0.6066(4) 0.9449(2)
C22_5 C 0.4703(4) 0.5564(11) 0.9099(4)
H15_5 H 0.4817 0.5606 0.8849
C23_5 C 0.4388(4) 0.4997(11) 0.9108(5)
H16_5 H 0.4294 0.4643 0.8863
C26_6 C 0.55718(19) 0.8681(4) 0.99885(19)
H19_6 H 0.6104 0.9125 0.9878
N9_6 N 0.6495(2) 0.6693(4) 0.8292(2)
C29_6 C 0.6115(3) 0.6426(5) 0.8197(3)
H21_6 H 0.6021 0.6131 0.7933
C30_6 C 0.5850(3) 0.6567(6) 0.8474(3)
H22_6 H 0.5580 0.6361 0.8403
C31_6 C 0.5987(2) 0.7014(4) 0.8858(2)
C32_6 C 0.6371(2) 0.7319(5) 0.8944(3)
H23_6 H 0.6469 0.7653 0.9196
C33_6 C 0.6615(2) 0.7127(5) 0.8654(3)
H24_6 H 0.6888 0.7321 0.8720
C34_6 C 0.51857(18) 0.6692(4) 0.9447(2)
N10_6 N 0.52324(14) 0.7334(3) 0.97336(17)
C35_6 C 0.55332(17) 0.7903(3) 0.97001(19)
N11_6 N 0.57852(15) 0.7826(3) 0.94363(16)
C36_6 C 0.57097(19) 0.7133(4) 0.9163(2)
N12_6 N 0.54106(16) 0.6568(3) 0.91444(18)
N13_3 N 0.6939(2) 0.5117(3) 0.7869(2)
C3_6 C 0.6622(2) 0.0546(4) 0.71553(19)
C4_6 C 0.6332(2) 0.0968(4) 0.6867(3)
H3_6 H 0.6292 0.1585 0.6892
C5_6 C 0.6099(3) 0.0499(5) 0.6539(3)
H4_6 H 0.5898 0.0804 0.6342
C6_6 C 0.6722(4) 0.4648(5) 0.7567(3)
H5_6 H 0.6540 0.4948 0.7348
C7_6 C 0.6741(3) 0.3719(5) 0.7545(3)
H6_6 H 0.6574 0.3398 0.7322
C8_6 C 0.7010(2) 0.3303(4) 0.7861(2)
C9_6 C 0.7241(3) 0.3789(5) 0.8174(3)
H7_6 H 0.7431 0.3523 0.8397
C10_6 C 0.7186(4) 0.4717(5) 0.8148(4)
H8_6 H 0.7351 0.5064 0.8362
C13_6 C 0.7699(2) 0.0617(4) 0.8387(2)
C14_6 C 0.7951(2) 0.1068(4) 0.8714(2)
H11_6 H 0.7926 0.1687 0.8746
C15_6 C 0.8237(2) 0.0594(4) 0.8989(2)
H12_6 H 0.8402 0.0902 0.9218
C16_6 C 0.68780(19) 0.1044(3) 0.75124(19)
N4_6 N 0.68043(15) 0.1908(3) 0.75357(16)
C17_6 C 0.70549(19) 0.2335(3) 0.7847(2)
N5_6 N 0.73441(16) 0.1956(3) 0.81329(16)
C18_6 C 0.7384(2) 0.1082(4) 0.8083(2)
N6_6 N 0.71605(16) 0.0602(3) 0.77703(16)
C19_6 C 0.9346(2) 0.0422(4) 0.9775(2)
C20_6 C 0.9655(2) 0.1002(4) 0.9792(2)
C21_6 C 0.98498(19) 0.1066(4) 0.9449(2)
C22_6 C 0.9703(4) 0.0564(11) 0.9099(4)
H15_6 H 0.9817 0.0606 0.8849
I3_6 I 0.61265(3) 0.76804(3) 0.57725(2)
I4_6 I 0.50994(3) 0.87606(5) 0.63053(2)
I5_6 I 0.89060(2) 0.76796(3) 0.90303(3)
Zn3_6 Zn 0.87267(3) 0.90682(6) 0.93931(4)
N1_6 N 0.6143(2) 0.9632(3) 0.64876(18)
C1_6 C 0.6428(3) 0.9224(4) 0.6758(3)
H1_6 H 0.6467 0.8610 0.6721
C2_6 C 0.6673(3) 0.9655(4) 0.7093(2)
H2_6 H 0.6878 0.9339 0.7281
N3_6 N 0.82972(17) 0.9726(3) 0.8955(2)
C11_6 C 0.8051(2) 0.9303(4) 0.8638(3)
H9_6 H 0.8084 0.8685 0.8608
C12_6 C 0.7757(2) 0.9722(4) 0.8358(3)
H10_6 H 0.7588 0.9393 0.8139
N7_6 N 0.92099(19) 0.9916(4) 0.9439(3)
C23_6 C 0.9388(4) 0.9997(11) 0.9108(5)
H16_6 H 0.9294 0.9643 0.8863
I6_4 I 0.15167(2) 0.09242(5) 0.99062(2)
H13_4 H 0.0779 0.9622 0.9983
H14_4 H 0.0263 0.8638 0.9962
N8_4 N 0.93522(18) 0.4896(3) 0.94462(17)
C24_6 C 0.9672(2) 0.5417(5) 0.9506(2)
H17_6 H 0.9879 0.5294 0.9352
C25_6 C 0.9718(2) 0.6132(4) 0.9781(2)
H18_6 H 0.9952 0.6492 0.9809
C27_6 C 0.9102(2) 0.5771(5) 0.9962(2)
C28_6 C 0.9068(3) 0.5063(5) 0.9680(3)
H20_7 H 0.8839 0.4687 0.9652
Zn4_4 Zn 0.92532(4) 0.39408(6) 0.89756(3)
I1_7 I 0.3617(3) 0.6795(3) 0.79279(15)
I2_7 I 0.2534(3) 0.7240(2) 0.6912(2)
I3_7 I 0.88735(3) 0.26804(3) 0.92275(2)
I4_7 I 0.99006(3) 0.37606(5) 0.86947(2)
I5_7 I 0.60940(2) 0.26796(3) 0.59697(3)
I6_5 I 0.65167(2) 0.40758(5) 0.49062(2)
Zn2_4 Zn 0.31313(5) 0.64887(5) 0.71403(4)
Zn3_7 Zn 0.62733(3) 0.40682(6) 0.56069(4)
N1_7 N 0.8857(2) 0.4632(3) 0.85124(18)
C1_7 C 0.8572(3) 0.4224(4) 0.8242(3)
H1_7 H 0.8533 0.3610 0.8279
C2_7 C 0.8327(3) 0.4655(4) 0.7907(2)
H2_7 H 0.8122 0.4339 0.7719
C3_7 C 0.8378(2) 0.5546(4) 0.78447(19)
C4_7 C 0.8668(2) 0.5968(4) 0.8133(3)
H3_7 H 0.8708 0.6585 0.8108
C5_7 C 0.8901(3) 0.5499(5) 0.8461(3)
H4_7 H 0.9102 0.5804 0.8658
C6_7 C 0.8278(4) 0.9648(5) 0.7433(3)
H5_7 H 0.8460 0.9948 0.7652
C7_7 C 0.8259(3) 0.8719(5) 0.7455(3)
H6_7 H 0.8426 0.8398 0.7678
C8_7 C 0.7990(2) 0.8303(4) 0.7139(2)
C9_7 C 0.7759(3) 0.8789(5) 0.6826(3)
H7_7 H 0.7569 0.8523 0.6603
C10_7 C 0.7814(4) 0.9717(5) 0.6852(4)
N3_7 N 0.67028(17) 0.4726(3) 0.6045(2)
C11_7 C 0.6949(2) 0.4303(4) 0.6362(3)
H9_7 H 0.6916 0.3685 0.6392
C12_7 C 0.7243(2) 0.4722(4) 0.6642(3)
H10_7 H 0.7412 0.4393 0.6861
C13_7 C 0.7301(2) 0.5617(4) 0.6613(2)
C14_7 C 0.7049(2) 0.6068(4) 0.6286(2)
H11_7 H 0.7074 0.6687 0.6254
C15_7 C 0.6763(2) 0.5594(4) 0.6011(2)
H12_7 H 0.6598 0.5902 0.5782
C16_7 C 0.81220(19) 0.6044(3) 0.74876(19)
N4_7 N 0.81957(15) 0.6908(3) 0.74643(16)
C17_7 C 0.79451(19) 0.7335(3) 0.7153(2)
N5_7 N 0.76559(16) 0.6956(3) 0.68671(16)
C18_7 C 0.7616(2) 0.6082(4) 0.6917(2)
N6_7 N 0.78395(16) 0.5602(3) 0.72297(16)
N7_7 N 0.57901(19) 0.4916(4) 0.5561(3)
C19_7 C 0.5654(2) 0.5422(4) 0.5225(2)
H13_5 H 0.5779 0.5378 0.4983
C20_7 C 0.5345(2) 0.6002(4) 0.5208(2)
H14_5 H 0.5263 0.6362 0.4962
C21_7 C 0.51502(19) 0.6066(4) 0.5551(2)
C22_7 C 0.5297(4) 0.5564(11) 0.5901(4)
H15_7 H 0.5183 0.5606 0.6151
C23_7 C 0.5612(4) 0.4997(11) 0.5892(5)
H16_7 H 0.5706 0.4643 0.6137
C24_7 C 0.4672(2) 0.9583(5) 0.4506(2)
H17_7 H 0.4879 0.9706 0.4352
C25_7 C 0.4718(2) 0.8868(4) 0.4781(2)
H18_7 H 0.4952 0.8508 0.4809
C26_7 C 0.44282(19) 0.8681(4) 0.50115(19)
C27_7 C 0.4102(2) 0.9229(5) 0.4962(2)
H19_7 H 0.3896 0.9125 0.5122
C28_7 C 0.4068(3) 0.9937(5) 0.4680(3)
N9_7 N 0.3505(2) 0.6693(4) 0.6708(2)
C29_7 C 0.3885(3) 0.6426(5) 0.6803(3)
H21_7 H 0.3979 0.6131 0.7067
C30_7 C 0.4150(3) 0.6567(6) 0.6526(3)
H22_7 H 0.4420 0.6361 0.6597
C31_7 C 0.4013(2) 0.7014(4) 0.6142(2)
C32_7 C 0.3629(2) 0.7319(5) 0.6056(3)
H23_7 H 0.3531 0.7653 0.5804
C33_7 C 0.3385(2) 0.7127(5) 0.6346(3)
H24_7 H 0.3112 0.7321 0.6280
C34_7 C 0.48143(18) 0.6692(4) 0.5553(2)
N10_7 N 0.47676(14) 0.7334(3) 0.52664(17)
C35_7 C 0.44668(17) 0.7903(3) 0.52999(19)
N11_7 N 0.42148(15) 0.7826(3) 0.55637(16)
C36_7 C 0.42903(19) 0.7133(4) 0.5837(2)
N12_7 N 0.45894(16) 0.6568(3) 0.58556(18)
N13_4 N 0.3061(2) 0.5117(3) 0.7131(2)
C3_8 C 0.3378(2) 0.0546(4) 0.78447(19)
C4_8 C 0.3668(2) 0.0968(4) 0.8133(3)
H3_8 H 0.3708 0.1585 0.8108
C5_8 C 0.3901(3) 0.0499(5) 0.8461(3)
H4_8 H 0.4102 0.0804 0.8658
C6_8 C 0.3278(4) 0.4648(5) 0.7433(3)
H5_8 H 0.3460 0.4948 0.7652
C7_8 C 0.3259(3) 0.3719(5) 0.7455(3)
H6_8 H 0.3426 0.3398 0.7678
C8_8 C 0.2990(2) 0.3303(4) 0.7139(2)
C9_8 C 0.2759(3) 0.3789(5) 0.6826(3)
H7_8 H 0.2569 0.3523 0.6603
C10_8 C 0.2814(4) 0.4717(5) 0.6852(4)
H8_7 H 0.2649 0.5064 0.6638
C13_8 C 0.2301(2) 0.0617(4) 0.6613(2)
C14_8 C 0.2049(2) 0.1068(4) 0.6286(2)
H11_8 H 0.2074 0.1687 0.6254
C15_8 C 0.1763(2) 0.0594(4) 0.6011(2)
H12_8 H 0.1598 0.0902 0.5782
C16_8 C 0.31220(19) 0.1044(3) 0.74876(19)
N4_8 N 0.31957(15) 0.1908(3) 0.74643(16)
C17_8 C 0.29451(19) 0.2335(3) 0.7153(2)
N5_8 N 0.26559(16) 0.1956(3) 0.68671(16)
C18_8 C 0.2616(2) 0.1082(4) 0.6917(2)
N6_8 N 0.28395(16) 0.0602(3) 0.72297(16)
C19_8 C 0.0654(2) 0.0422(4) 0.5225(2)
H13_6 H 0.0779 0.0378 0.4983
C20_8 C 0.0345(2) 0.1002(4) 0.5208(2)
H14_6 H 0.0263 0.1362 0.4962
C21_8 C 0.01502(19) 0.1066(4) 0.5551(2)
C22_8 C 0.0297(4) 0.0564(11) 0.5901(4)
H15_8 H 0.0183 0.0606 0.6151
I3_8 I 0.61265(3) 0.23196(3) 0.07725(2)
I4_8 I 0.50994(3) 0.12394(5) 0.13053(2)
I5_8 I 0.89060(2) 0.23204(3) 0.40303(3)
I6_6 I 0.84833(2) 0.09242(5) 0.50938(2)
Zn1_4 Zn 0.57468(4) 0.10592(6) 0.10244(3)
Zn3_8 Zn 0.87267(3) 0.09318(6) 0.43931(4)
N1_8 N 0.6143(2) 0.0368(3) 0.14876(18)
C1_8 C 0.6428(3) 0.0776(4) 0.1758(3)
H1_8 H 0.6467 0.1390 0.1721
C2_8 C 0.6673(3) 0.0345(4) 0.2093(2)
H2_8 H 0.6878 0.0661 0.2281
N3_8 N 0.82972(17) 0.0274(3) 0.3955(2)
C11_8 C 0.8051(2) 0.0697(4) 0.3638(3)
H9_8 H 0.8084 0.1315 0.3608
C12_8 C 0.7757(2) 0.0278(4) 0.3358(3)
H10_8 H 0.7588 0.0607 0.3139
N7_8 N 0.92099(19) 0.0084(4) 0.4439(3)
C23_8 C 0.9388(4) 0.0003(11) 0.4108(5)
H16_8 H 0.9294 0.0357 0.3863
N14_4 N 0.56478(18) 0.0104(3) 0.05538(17)
H20_8 H 0.6161 0.0313 0.0348
N2_4 N 0.1939(2) 0.0117(3) 0.7869(2)
H8_8 H 0.2351 0.0064 0.8362
Zn5_4 Zn 0.18687(5) 0.14887(5) 0.78597(4)
I1_8 I 0.1383(3) 0.1795(3) 0.70721(15)
I2_8 I 0.2466(3) 0.2240(2) 0.8088(2)
C26_8 C 0.05718(19) 0.3681(4) 0.99885(19)
H19_8 H 0.1104 0.4125 0.9878
N9_8 N 0.1495(2) 0.1693(4) 0.8292(2)
C29_8 C 0.1115(3) 0.1426(5) 0.8197(3)
H21_8 H 0.1021 0.1131 0.7933
C30_8 C 0.0850(3) 0.1567(6) 0.8474(3)
H22_8 H 0.0580 0.1361 0.8403
C31_8 C 0.0987(2) 0.2014(4) 0.8858(2)
C32_8 C 0.1371(2) 0.2319(5) 0.8944(3)
H23_8 H 0.1469 0.2653 0.9196
C33_8 C 0.1615(2) 0.2127(5) 0.8654(3)
H24_8 H 0.1888 0.2321 0.8720
C34_8 C 0.01857(18) 0.1692(4) 0.9447(2)
N10_8 N 0.02324(14) 0.2334(3) 0.97336(17)
C35_8 C 0.05332(17) 0.2903(3) 0.97001(19)
N11_8 N 0.07852(15) 0.2826(3) 0.94363(16)
C36_8 C 0.07097(19) 0.2133(4) 0.9163(2)
N12_8 N 0.04106(16) 0.1568(3) 0.91444(18)
I6_7 I 0.34833(2) 0.40758(5) 0.00938(2)
H13_7 H 0.4221 0.5378 0.0017
H14_7 H 0.4737 0.6362 0.0038
C24_8 C 0.5328(2) 0.9583(5) 0.0494(2)
H17_8 H 0.5121 0.9706 0.0648
C25_8 C 0.5282(2) 0.8868(4) 0.0219(2)
H18_8 H 0.5048 0.8508 0.0191
C27_8 C 0.5898(2) 0.9229(5) 0.0038(2)
C28_8 C 0.5932(3) 0.9937(5) 0.0320(3)
H13_8 H 0.9221 0.0378 0.0017
H14_8 H 0.9737 0.1362 0.0038
I6_8 I 0.84833(2) 0.90758(5) 0.00938(2)
loop_
_geom_bond_atom_site_label_1
_geom_bond_atom_site_label_2
_geom_bond_site_symmetry_1
_geom_bond_site_symmetry_2
I1 Zn2 1_555 1_555
I2 Zn2 1_555 1_555
I3 Zn1 1_555 1_555
I4 Zn1 1_555 1_555
I5 Zn3 1_555 1_555
Zn1 N1 1_555 1_555
Zn2 N9 1_555 1_555
Zn3 N3 1_555 1_555
N1 C1 1_555 1_555
C1 H1 1_555 1_555
C2 C1 1_555 1_555
H2 C2 1_555 1_555
C3 C2 1_555 1_555
C4 C3 1_555 1_555
H3 C4 1_555 1_555
C5 N1 1_555 1_555
H4 C5 1_555 1_555
C6 H5 1_555 1_555
C7 C6 1_555 1_555
H6 C7 1_555 1_555
C8 C7 1_555 1_555
C9 C8 1_555 1_555
H7 C9 1_555 1_555
N3 C11 1_555 1_555
C11 H9 1_555 1_555
C12 C11 1_555 1_555
H10 C12 1_555 1_555
C13 C12 1_555 1_555
C14 C13 1_555 1_555
H11 C14 1_555 1_555
C15 N3 1_555 1_555
H12 C15 1_555 1_555
C16 C3 1_555 1_555
N4 C16 1_555 1_555
C17 C8 1_555 1_555
N5 C17 1_555 1_555
C18 C13 1_555 1_555
N6 C16 1_555 1_555
N7 Zn3 1_555 1_555
C19 N7 1_555 1_555
C20 C19 1_555 1_555
C21 C20 1_555 1_555
C22 C21 1_555 1_555
H15 C22 1_555 1_555
C23 N7 1_555 1_555
H16 C23 1_555 1_555
N9 C29 1_555 1_555
C29 H21 1_555 1_555
C30 C29 1_555 1_555
H22 C30 1_555 1_555
C31 C30 1_555 1_555
C32 C31 1_555 1_555
H23 C32 1_555 1_555
C33 N9 1_555 1_555
H24 C33 1_555 1_555
C34 C21 1_555 1_555
N10 C34 1_555 1_555
C35 C26 1_555 1_555
N11 C35 1_555 1_555
C36 C31 1_555 1_555
N12 C34 1_555 1_555
N13 Zn2 1_555 1_555
N14 Zn1 1_555 1_555
C4 C5 1_555 1_555
C9 C10 1_555 1_555
C14 C15 1_555 1_555
N4 C17 1_555 1_555
N5 C18 1_555 1_555
C18 N6 1_555 1_555
C22 C23 1_555 1_555
C32 C33 1_555 1_555
N10 C35 1_555 1_555
N11 C36 1_555 1_555
C36 N12 1_555 1_555
I3_2 Zn1_2 1_555 1_555
I4_2 Zn1_2 1_555 1_555
I5_2 Zn3_2 1_555 1_555
Zn1_2 N1_2 1_555 1_555
Zn3_2 N3_2 1_555 1_555
N1_2 C1_2 1_555 1_555
C1_2 H1_2 1_555 1_555
C2_2 C1_2 1_555 1_555
H2_2 C2_2 1_555 1_555
N3_2 C11_2 1_555 1_555
C11_2 H9_2 1_555 1_555
C12_2 C11_2 1_555 1_555
H10_2 C12_2 1_555 1_555
N7_2 Zn3_2 1_555 1_555
C23_2 N7_2 1_555 1_555
H16_2 C23_2 1_555 1_555
N14_2 Zn1_2 1_555 1_555
C4_2 C3_2 1_555 1_555
H3_2 C4_2 1_555 1_555
H4_2 C5_2 1_555 1_555
N13 C6_2 1_555 1_555
C6_2 H5_2 1_555 1_555
C7_2 C6_2 1_555 1_555
H6_2 C7_2 1_555 1_555
C8_2 C7_2 1_555 1_555
C9_2 C8_2 1_555 1_555
H7_2 C9_2 1_555 1_555
C10_2 N13 1_555 1_555
H8 C10_2 1_555 1_555
C14_2 C13_2 1_555 1_555
H11_2 C14_2 1_555 1_555
H12_2 C15_2 1_555 1_555
C16_2 C3_2 1_555 1_555
N4_2 C16_2 1_555 1_555
C17_2 C8_2 1_555 1_555
N5_2 C17_2 1_555 1_555
C18_2 C13_2 1_555 1_555
N6_2 C16_2 1_555 1_555
C20_2 C19_2 1_555 1_555
C21_2 C20_2 1_555 1_555
C22_2 C21_2 1_555 1_555
H15_2 C22_2 1_555 1_555
C4_2 C5_2 1_555 1_555
C9_2 C10_2 1_555 1_555
C14_2 C15_2 1_555 1_555
N4_2 C17_2 1_555 1_555
N5_2 C18_2 1_555 1_555
C18_2 N6_2 1_555 1_555
Zn5 N2 1_555 1_555
I1_2 Zn5 1_555 1_555
I2_2 Zn5 1_555 1_555
Zn5 N9_2 1_555 1_555
N14 C24 1_555 1_555
C24 H17 1_555 1_555
C25 C24 1_555 1_555
H18 C25 1_555 1_555
C26_2 C25 1_555 1_555
C27 C26_2 1_555 1_555
H19_2 C27 1_555 1_555
C28 N14 1_555 1_555
H20_2 C28 1_555 1_555
N9_2 C29_2 1_555 1_555
C29_2 H21_2 1_555 1_555
C30_2 C29_2 1_555 1_555
H22_2 C30_2 1_555 1_555
C31_2 C30_2 1_555 1_555
C32_2 C31_2 1_555 1_555
H23_2 C32_2 1_555 1_555
C33_2 N9_2 1_555 1_555
H24_2 C33_2 1_555 1_555
N10_2 C34_2 1_555 1_555
C35_2 C26_2 1_555 1_555
N11_2 C35_2 1_555 1_555
C36_2 C31_2 1_555 1_555
N12_2 C34_2 1_555 1_555
C27 C28 1_555 1_555
C32_2 C33_2 1_555 1_555
N10_2 C35_2 1_555 1_555
N11_2 C36_2 1_555 1_555
C36_2 N12_2 1_555 1_555
C24_2 H17_2 1_555 1_555
C25_2 C24_2 1_555 1_555
H18_2 C25_2 1_555 1_555
C27_2 C28_2 1_555 1_555
Zn5_2 N2_2 1_555 1_555
I1_3 Zn5_2 1_555 1_555
I2_3 Zn5_2 1_555 1_555
Zn5_2 N9_3 1_555 1_555
N9_3 C29_3 1_555 1_555
C29_3 H21_3 1_555 1_555
C30_3 C29_3 1_555 1_555
H22_3 C30_3 1_555 1_555
C31_3 C30_3 1_555 1_555
C32_3 C31_3 1_555 1_555
H23_3 C32_3 1_555 1_555
C33_3 N9_3 1_555 1_555
H24_3 C33_3 1_555 1_555
N10_3 C34_3 1_555 1_555
C35_3 C26_3 1_555 1_555
N11_3 C35_3 1_555 1_555
C36_3 C31_3 1_555 1_555
N12_3 C34_3 1_555 1_555
C32_3 C33_3 1_555 1_555
N10_3 C35_3 1_555 1_555
N11_3 C36_3 1_555 1_555
C36_3 N12_3 1_555 1_555
Zn4 N8 1_555 1_555
I3_3 Zn4 1_555 1_555
I4_3 Zn4 1_555 1_555
I5_3 Zn3_3 1_555 1_555
I6_2 Zn3_3 1_555 1_555
Zn4 N1_3 1_555 1_555
Zn3_3 N3_3 1_555 1_555
N1_3 C1_3 1_555 1_555
C1_3 H1_3 1_555 1_555
C2_3 C1_3 1_555 1_555
H2_3 C2_3 1_555 1_555
N3_3 C11_3 1_555 1_555
C11_3 H9_3 1_555 1_555
C12_3 C11_3 1_555 1_555
H10_3 C12_3 1_555 1_555
N7_3 Zn3_3 1_555 1_555
C23_3 N7_3 1_555 1_555
H16_3 C23_3 1_555 1_555
I1_4 Zn2_2 1_555 1_555
I2_4 Zn2_2 1_555 1_555
I3_4 Zn1_3 1_555 1_555
I4_4 Zn1_3 1_555 1_555
I5_4 Zn3_4 1_555 1_555
I6_3 Zn3_4 1_555 1_555
Zn1_3 N1_4 1_555 1_555
Zn2_2 N9_4 1_555 1_555
Zn3_4 N3_4 1_555 1_555
N1_4 C1_4 1_555 1_555
C1_4 H1_4 1_555 1_555
C2_4 C1_4 1_555 1_555
H2_4 C2_4 1_555 1_555
C3_3 C2_4 1_555 1_555
C4_3 C3_3 1_555 1_555
H3_3 C4_3 1_555 1_555
C5_3 N1_4 1_555 1_555
H4_3 C5_3 1_555 1_555
C6_3 H5_3 1_555 1_555
C7_3 C6_3 1_555 1_555
H6_3 C7_3 1_555 1_555
C8_3 C7_3 1_555 1_555
C9_3 C8_3 1_555 1_555
H7_3 C9_3 1_555 1_555
N3_4 C11_4 1_555 1_555
C11_4 H9_4 1_555 1_555
C12_4 C11_4 1_555 1_555
H10_4 C12_4 1_555 1_555
C13_3 C12_4 1_555 1_555
C14_3 C13_3 1_555 1_555
H11_3 C14_3 1_555 1_555
C15_3 N3_4 1_555 1_555
H12_3 C15_3 1_555 1_555
C16_3 C3_3 1_555 1_555
N4_3 C16_3 1_555 1_555
C17_3 C8_3 1_555 1_555
N5_3 C17_3 1_555 1_555
C18_3 C13_3 1_555 1_555
N6_3 C16_3 1_555 1_555
N7_4 Zn3_4 1_555 1_555
C19_3 N7_4 1_555 1_555
H13_2 C19_3 1_555 1_555
C20_3 C19_3 1_555 1_555
H14_2 C20_3 1_555 1_555
C21_3 C20_3 1_555 1_555
C22_3 C21_3 1_555 1_555
H15_3 C22_3 1_555 1_555
C23_4 N7_4 1_555 1_555
H16_4 C23_4 1_555 1_555
C24_3 H17_3 1_555 1_555
C25_3 C24_3 1_555 1_555
H18_3 C25_3 1_555 1_555
C26_4 C25_3 1_555 1_555
C27_3 C26_4 1_555 1_555
H19_4 C27_3 1_555 1_555
N9_4 C29_4 1_555 1_555
C29_4 H21_4 1_555 1_555
C30_4 C29_4 1_555 1_555
H22_4 C30_4 1_555 1_555
C31_4 C30_4 1_555 1_555
C32_4 C31_4 1_555 1_555
H23_4 C32_4 1_555 1_555
C33_4 N9_4 1_555 1_555
H24_4 C33_4 1_555 1_555
C34_4 C21_3 1_555 1_555
N10_4 C34_4 1_555 1_555
C35_4 C26_4 1_555 1_555
N11_4 C35_4 1_555 1_555
C36_4 C31_4 1_555 1_555
N12_4 C34_4 1_555 1_555
N13_2 Zn2_2 1_555 1_555
N14_3 Zn1_3 1_555 1_555
C4_3 C5_3 1_555 1_555
C9_3 C10_3 1_555 1_555
C14_3 C15_3 1_555 1_555
N4_3 C17_3 1_555 1_555
N5_3 C18_3 1_555 1_555
C18_3 N6_3 1_555 1_555
C22_3 C23_4 1_555 1_555
C27_3 C28_3 1_555 1_555
C32_4 C33_4 1_555 1_555
N10_4 C35_4 1_555 1_555
N11_4 C36_4 1_555 1_555
C36_4 N12_4 1_555 1_555
C4_4 C3_4 1_555 1_555
H3_4 C4_4 1_555 1_555
H4_4 C5_4 1_555 1_555
N13_2 C6_4 1_555 1_555
C6_4 H5_4 1_555 1_555
C7_4 C6_4 1_555 1_555
H6_4 C7_4 1_555 1_555
C8_4 C7_4 1_555 1_555
C9_4 C8_4 1_555 1_555
H7_4 C9_4 1_555 1_555
C10_4 N13_2 1_555 1_555
H8_4 C10_4 1_555 1_555
C14_4 C13_4 1_555 1_555
H11_4 C14_4 1_555 1_555
H12_4 C15_4 1_555 1_555
C16_4 C3_4 1_555 1_555
N4_4 C16_4 1_555 1_555
C17_4 C8_4 1_555 1_555
N5_4 C17_4 1_555 1_555
C18_4 C13_4 1_555 1_555
N6_4 C16_4 1_555 1_555
H13_3 C19_4 1_555 1_555
C20_4 C19_4 1_555 1_555
H14_3 C20_4 1_555 1_555
C21_4 C20_4 1_555 1_555
C22_4 C21_4 1_555 1_555
H15_4 C22_4 1_555 1_555
C4_4 C5_4 1_555 1_555
C9_4 C10_4 1_555 1_555
C14_4 C15_4 1_555 1_555
N4_4 C17_4 1_555 1_555
N5_4 C18_4 1_555 1_555
C18_4 N6_4 1_555 1_555
N14_3 C24_4 1_555 1_555
C24_4 H17_4 1_555 1_555
C25_4 C24_4 1_555 1_555
H18_4 C25_4 1_555 1_555
C28_4 N14_3 1_555 1_555
H20_4 C28_4 1_555 1_555
C27_4 C28_4 1_555 1_555
Zn4_2 N8_2 1_555 1_555
Zn5_3 N2_3 1_555 1_555
I1_5 Zn5_3 1_555 1_555
I2_5 Zn5_3 1_555 1_555
Zn5_3 N9_5 1_555 1_555
N8_3 C24_5 1_555 1_555
C24_5 H17_5 1_555 1_555
C25_5 C24_5 1_555 1_555
H18_5 C25_5 1_555 1_555
C26_5 C25_5 1_555 1_555
C27_5 C26_5 1_555 1_555
H19_5 C27_5 1_555 1_555
C28_5 N8_3 1_555 1_555
H20_6 C28_5 1_555 1_555
N9_5 C29_5 1_555 1_555
C29_5 H21_5 1_555 1_555
C30_5 C29_5 1_555 1_555
H22_5 C30_5 1_555 1_555
C31_5 C30_5 1_555 1_555
C32_5 C31_5 1_555 1_555
H23_5 C32_5 1_555 1_555
C33_5 N9_5 1_555 1_555
H24_5 C33_5 1_555 1_555
N10_5 C34_5 1_555 1_555
C35_5 C26_5 1_555 1_555
N11_5 C35_5 1_555 1_555
C36_5 C31_5 1_555 1_555
N12_5 C34_5 1_555 1_555
Zn4_3 N8_3 1_555 1_555
C27_5 C28_5 1_555 1_555
C32_5 C33_5 1_555 1_555
N10_5 C35_5 1_555 1_555
N11_5 C36_5 1_555 1_555
C36_5 N12_5 1_555 1_555
I1_6 Zn2_3 1_555 1_555
I2_6 Zn2_3 1_555 1_555
I3_5 Zn4_3 1_555 1_555
I4_5 Zn4_3 1_555 1_555
I5_5 Zn3_5 1_555 1_555
Zn4_3 N1_5 1_555 1_555
Zn2_3 N9_6 1_555 1_555
Zn3_5 N3_5 1_555 1_555
N1_5 C1_5 1_555 1_555
C1_5 H1_5 1_555 1_555
C2_5 C1_5 1_555 1_555
H2_5 C2_5 1_555 1_555
C3_5 C2_5 1_555 1_555
C4_5 C3_5 1_555 1_555
H3_5 C4_5 1_555 1_555
C5_5 N1_5 1_555 1_555
H4_5 C5_5 1_555 1_555
C6_5 H5_5 1_555 1_555
C7_5 C6_5 1_555 1_555
H6_5 C7_5 1_555 1_555
C8_5 C7_5 1_555 1_555
C9_5 C8_5 1_555 1_555
H7_5 C9_5 1_555 1_555
N3_5 C11_5 1_555 1_555
C11_5 H9_5 1_555 1_555
C12_5 C11_5 1_555 1_555
H10_5 C12_5 1_555 1_555
C13_5 C12_5 1_555 1_555
C14_5 C13_5 1_555 1_555
H11_5 C14_5 1_555 1_555
C15_5 N3_5 1_555 1_555
H12_5 C15_5 1_555 1_555
C16_5 C3_5 1_555 1_555
N4_5 C16_5 1_555 1_555
C17_5 C8_5 1_555 1_555
N5_5 C17_5 1_555 1_555
C18_5 C13_5 1_555 1_555
N6_5 C16_5 1_555 1_555
N7_5 Zn3_5 1_555 1_555
C19_5 N7_5 1_555 1_555
C20_5 C19_5 1_555 1_555
C21_5 C20_5 1_555 1_555
C22_5 C21_5 1_555 1_555
H15_5 C22_5 1_555 1_555
C23_5 N7_5 1_555 1_555
H16_5 C23_5 1_555 1_555
N9_6 C29_6 1_555 1_555
C29_6 H21_6 1_555 1_555
C30_6 C29_6 1_555 1_555
H22_6 C30_6 1_555 1_555
C31_6 C30_6 1_555 1_555
C32_6 C31_6 1_555 1_555
H23_6 C32_6 1_555 1_555
C33_6 N9_6 1_555 1_555
H24_6 C33_6 1_555 1_555
C34_6 C21_5 1_555 1_555
N10_6 C34_6 1_555 1_555
C35_6 C26_6 1_555 1_555
N11_6 C35_6 1_555 1_555
C36_6 C31_6 1_555 1_555
N12_6 C34_6 1_555 1_555
N13_3 Zn2_3 1_555 1_555
C4_5 C5_5 1_555 1_555
C9_5 C10_5 1_555 1_555
C14_5 C15_5 1_555 1_555
N4_5 C17_5 1_555 1_555
N5_5 C18_5 1_555 1_555
C18_5 N6_5 1_555 1_555
C22_5 C23_5 1_555 1_555
C32_6 C33_6 1_555 1_555
N10_6 C35_6 1_555 1_555
N11_6 C36_6 1_555 1_555
C36_6 N12_6 1_555 1_555
C4_6 C3_6 1_555 1_555
H3_6 C4_6 1_555 1_555
H4_6 C5_6 1_555 1_555
N13_3 C6_6 1_555 1_555
C6_6 H5_6 1_555 1_555
C7_6 C6_6 1_555 1_555
H6_6 C7_6 1_555 1_555
C8_6 C7_6 1_555 1_555
C9_6 C8_6 1_555 1_555
H7_6 C9_6 1_555 1_555
C10_6 N13_3 1_555 1_555
H8_6 C10_6 1_555 1_555
C14_6 C13_6 1_555 1_555
H11_6 C14_6 1_555 1_555
H12_6 C15_6 1_555 1_555
C16_6 C3_6 1_555 1_555
N4_6 C16_6 1_555 1_555
C17_6 C8_6 1_555 1_555
N5_6 C17_6 1_555 1_555
C18_6 C13_6 1_555 1_555
N6_6 C16_6 1_555 1_555
C20_6 C19_6 1_555 1_555
C21_6 C20_6 1_555 1_555
C22_6 C21_6 1_555 1_555
H15_6 C22_6 1_555 1_555
C4_6 C5_6 1_555 1_555
C9_6 C10_6 1_555 1_555
C14_6 C15_6 1_555 1_555
N4_6 C17_6 1_555 1_555
N5_6 C18_6 1_555 1_555
C18_6 N6_6 1_555 1_555
I3_6 Zn4_2 1_555 1_555
I4_6 Zn4_2 1_555 1_555
I5_6 Zn3_6 1_555 1_555
Zn4_2 N1_6 1_555 1_555
Zn3_6 N3_6 1_555 1_555
N1_6 C1_6 1_555 1_555
C1_6 H1_6 1_555 1_555
C2_6 C1_6 1_555 1_555
H2_6 C2_6 1_555 1_555
N3_6 C11_6 1_555 1_555
C11_6 H9_6 1_555 1_555
C12_6 C11_6 1_555 1_555
H10_6 C12_6 1_555 1_555
N7_6 Zn3_6 1_555 1_555
C23_6 N7_6 1_555 1_555
H16_6 C23_6 1_555 1_555
N8_4 C24_6 1_555 1_555
C24_6 H17_6 1_555 1_555
C25_6 C24_6 1_555 1_555
H18_6 C25_6 1_555 1_555
C28_6 N8_4 1_555 1_555
H20_7 C28_6 1_555 1_555
Zn4_4 N8_4 1_555 1_555
C27_6 C28_6 1_555 1_555
I1_7 Zn2_4 1_555 1_555
I2_7 Zn2_4 1_555 1_555
I3_7 Zn4_4 1_555 1_555
I4_7 Zn4_4 1_555 1_555
I5_7 Zn3_7 1_555 1_555
I6_5 Zn3_7 1_555 1_555
Zn4_4 N1_7 1_555 1_555
Zn2_4 N9_7 1_555 1_555
Zn3_7 N3_7 1_555 1_555
N1_7 C1_7 1_555 1_555
C1_7 H1_7 1_555 1_555
C2_7 C1_7 1_555 1_555
H2_7 C2_7 1_555 1_555
C3_7 C2_7 1_555 1_555
C4_7 C3_7 1_555 1_555
H3_7 C4_7 1_555 1_555
C5_7 N1_7 1_555 1_555
H4_7 C5_7 1_555 1_555
C6_7 H5_7 1_555 1_555
C7_7 C6_7 1_555 1_555
H6_7 C7_7 1_555 1_555
C8_7 C7_7 1_555 1_555
C9_7 C8_7 1_555 1_555
H7_7 C9_7 1_555 1_555
N3_7 C11_7 1_555 1_555
C11_7 H9_7 1_555 1_555
C12_7 C11_7 1_555 1_555
H10_7 C12_7 1_555 1_555
C13_7 C12_7 1_555 1_555
C14_7 C13_7 1_555 1_555
H11_7 C14_7 1_555 1_555
C15_7 N3_7 1_555 1_555
H12_7 C15_7 1_555 1_555
C16_7 C3_7 1_555 1_555
N4_7 C16_7 1_555 1_555
C17_7 C8_7 1_555 1_555
N5_7 C17_7 1_555 1_555
C18_7 C13_7 1_555 1_555
N6_7 C16_7 1_555 1_555
N7_7 Zn3_7 1_555 1_555
C19_7 N7_7 1_555 1_555
H13_5 C19_7 1_555 1_555
C20_7 C19_7 1_555 1_555
H14_5 C20_7 1_555 1_555
C21_7 C20_7 1_555 1_555
C22_7 C21_7 1_555 1_555
H15_7 C22_7 1_555 1_555
C23_7 N7_7 1_555 1_555
H16_7 C23_7 1_555 1_555
C24_7 H17_7 1_555 1_555
C25_7 C24_7 1_555 1_555
H18_7 C25_7 1_555 1_555
C26_7 C25_7 1_555 1_555
C27_7 C26_7 1_555 1_555
H19_7 C27_7 1_555 1_555
N9_7 C29_7 1_555 1_555
C29_7 H21_7 1_555 1_555
C30_7 C29_7 1_555 1_555
H22_7 C30_7 1_555 1_555
C31_7 C30_7 1_555 1_555
C32_7 C31_7 1_555 1_555
H23_7 C32_7 1_555 1_555
C33_7 N9_7 1_555 1_555
H24_7 C33_7 1_555 1_555
C34_7 C21_7 1_555 1_555
N10_7 C34_7 1_555 1_555
C35_7 C26_7 1_555 1_555
N11_7 C35_7 1_555 1_555
C36_7 C31_7 1_555 1_555
N12_7 C34_7 1_555 1_555
N13_4 Zn2_4 1_555 1_555
C4_7 C5_7 1_555 1_555
C9_7 C10_7 1_555 1_555
C14_7 C15_7 1_555 1_555
N4_7 C17_7 1_555 1_555
N5_7 C18_7 1_555 1_555
C18_7 N6_7 1_555 1_555
C22_7 C23_7 1_555 1_555
C27_7 C28_7 1_555 1_555
C32_7 C33_7 1_555 1_555
N10_7 C35_7 1_555 1_555
N11_7 C36_7 1_555 1_555
C36_7 N12_7 1_555 1_555
C4_8 C3_8 1_555 1_555
H3_8 C4_8 1_555 1_555
H4_8 C5_8 1_555 1_555
N13_4 C6_8 1_555 1_555
C6_8 H5_8 1_555 1_555
C7_8 C6_8 1_555 1_555
H6_8 C7_8 1_555 1_555
C8_8 C7_8 1_555 1_555
C9_8 C8_8 1_555 1_555
H7_8 C9_8 1_555 1_555
C10_8 N13_4 1_555 1_555
H8_7 C10_8 1_555 1_555
C14_8 C13_8 1_555 1_555
H11_8 C14_8 1_555 1_555
H12_8 C15_8 1_555 1_555
C16_8 C3_8 1_555 1_555
N4_8 C16_8 1_555 1_555
C17_8 C8_8 1_555 1_555
N5_8 C17_8 1_555 1_555
C18_8 C13_8 1_555 1_555
N6_8 C16_8 1_555 1_555
H13_6 C19_8 1_555 1_555
C20_8 C19_8 1_555 1_555
H14_6 C20_8 1_555 1_555
C21_8 C20_8 1_555 1_555
C22_8 C21_8 1_555 1_555
H15_8 C22_8 1_555 1_555
C4_8 C5_8 1_555 1_555
C9_8 C10_8 1_555 1_555
C14_8 C15_8 1_555 1_555
N4_8 C17_8 1_555 1_555
N5_8 C18_8 1_555 1_555
C18_8 N6_8 1_555 1_555
I3_8 Zn1_4 1_555 1_555
I4_8 Zn1_4 1_555 1_555
I5_8 Zn3_8 1_555 1_555
I6_6 Zn3_8 1_555 1_555
Zn1_4 N1_8 1_555 1_555
Zn3_8 N3_8 1_555 1_555
N1_8 C1_8 1_555 1_555
C1_8 H1_8 1_555 1_555
C2_8 C1_8 1_555 1_555
H2_8 C2_8 1_555 1_555
N3_8 C11_8 1_555 1_555
C11_8 H9_8 1_555 1_555
C12_8 C11_8 1_555 1_555
H10_8 C12_8 1_555 1_555
N7_8 Zn3_8 1_555 1_555
C23_8 N7_8 1_555 1_555
H16_8 C23_8 1_555 1_555
N14_4 Zn1_4 1_555 1_555
Zn5_4 N2_4 1_555 1_555
I1_8 Zn5_4 1_555 1_555
I2_8 Zn5_4 1_555 1_555
Zn5_4 N9_8 1_555 1_555
N9_8 C29_8 1_555 1_555
C29_8 H21_8 1_555 1_555
C30_8 C29_8 1_555 1_555
H22_8 C30_8 1_555 1_555
C31_8 C30_8 1_555 1_555
C32_8 C31_8 1_555 1_555
H23_8 C32_8 1_555 1_555
C33_8 N9_8 1_555 1_555
H24_8 C33_8 1_555 1_555
N10_8 C34_8 1_555 1_555
C35_8 C26_8 1_555 1_555
N11_8 C35_8 1_555 1_555
C36_8 C31_8 1_555 1_555
N12_8 C34_8 1_555 1_555
C32_8 C33_8 1_555 1_555
N10_8 C35_8 1_555 1_555
N11_8 C36_8 1_555 1_555
C36_8 N12_8 1_555 1_555
C24_8 H17_8 1_555 1_555
C25_8 C24_8 1_555 1_555
H18_8 C25_8 1_555 1_555
C27_8 C28_8 1_555 1_555

#END
