
###############################################################################
#
# This file contains modified crystal structure data generated from the
# MOF subset of the Cambridge Structural Database (CSD) v543 
# hosted by the Cambridge Crystallographic Data Centre (CCDC).
#
# This work is licensed under the Creative Commons
# Attribution-NonCommercial-ShareAlike 4.0 International License.
# To view a copy of this license, visit
# http://creativecommons.org/licenses/by-nc-sa/4.0/
# or send a letter to
# Creative Commons, PO Box 1866, Mountain View, CA 94042, USA.
#
# CIF created using the CSD Python API on 29 September 2022
# The structure has been converted into the P1 space group
# The structure has a 3D framework
# The original CSD entry NILQOQ is in the cubic crystal system
# The framework has been calculated to contain at least 10.0% void space
# The void calculation uses a probe of radius 1.32A, grid spacing 0.4
#
###############################################################################

data_NILQOQ
_chemical_formula_moiety         '(C918 H480 O576 P32 Zn54)n'
_symmetry_cell_setting           triclinic
_symmetry_space_group_name_H-M   'P 1'
_symmetry_Int_Tables_number      1
_space_group_name_Hall           'P 1'
loop_
_symmetry_equiv_pos_site_id
_symmetry_equiv_pos_as_xyz
1 x,y,z
_cell_length_a                   30.6399(14)
_cell_length_b                   30.6399(14)
_cell_length_c                   30.6399(14)
_cell_angle_alpha                90
_cell_angle_beta                 90
_cell_angle_gamma                90
_cell_volume                     28764.8
loop_
_atom_site_label
_atom_site_type_symbol
_atom_site_fract_x
_atom_site_fract_y
_atom_site_fract_z
C1 C 0.3073(3) 0.4131(3) 0.1713(3)
C2 C 0.3331(3) 0.4550(2) 0.1736(3)
C3 C 0.3125(2) 0.4948(3) 0.1650(3)
H1 H 0.2836 0.4955 0.1558
C4 C 0.3361(3) 0.5332(2) 0.1704(3)
C5 C 0.3798(2) 0.5315(2) 0.1822(3)
H2 H 0.3956 0.5572 0.1859
C6 C 0.3995(2) 0.4925(2) 0.1881(2)
C7 C 0.3767(2) 0.4544(2) 0.1846(3)
H3 H 0.3907 0.4280 0.1897
C8 C 0.4649(2) 0.5214(2) 0.2214(3)
H4 H 0.4434 0.5361 0.2396
H5 H 0.4780 0.5428 0.2021
C9 C 0.5000 0.5000 0.2500
C10 C 0.3135(3) 0.5755(3) 0.1622(3)
O1 O 0.27486(17) 0.41318(17) 0.1470(2)
O2 O 0.32205(19) 0.38061(16) 0.1930(2)
O3 O 0.24450(18) 0.31839(17) 0.18357(17)
O4 O 0.3273(2) 0.60983(18) 0.1829(2)
O5 O 0.28347(16) 0.57802(17) 0.13605(18)
O6 O 0.44483(16) 0.48786(17) 0.19700(18)
Zn1 Zn 0.23391(3) 0.36445(3) 0.14072(3)
Zn2 Zn 0.31358(3) 0.31358(3) 0.18642(3)
P1 P 0.20904(13) 0.29096(13) 0.20904(13)
C11 C 0.6927(3) 0.5869(3) 0.1713(3)
C12 C 0.6669(3) 0.5450(2) 0.1736(3)
C13 C 0.6875(2) 0.5052(3) 0.1650(3)
H6 H 0.7164 0.5045 0.1558
C14 C 0.6639(3) 0.4668(2) 0.1704(3)
C15 C 0.6202(2) 0.4685(2) 0.1822(3)
H7 H 0.6044 0.4428 0.1859
C16 C 0.6005(2) 0.5075(2) 0.1881(2)
C17 C 0.6233(2) 0.5456(2) 0.1846(3)
H8 H 0.6093 0.5720 0.1897
C18 C 0.5351(2) 0.4786(2) 0.2214(3)
H9 H 0.5566 0.4639 0.2396
H10 H 0.5220 0.4572 0.2021
C19 C 0.6865(3) 0.4245(3) 0.1622(3)
O7 O 0.72514(17) 0.58682(17) 0.1470(2)
O8 O 0.67795(19) 0.61939(16) 0.1930(2)
O9 O 0.6727(2) 0.39017(18) 0.1829(2)
O10 O 0.71653(16) 0.42198(17) 0.13605(18)
O11 O 0.55517(16) 0.51214(17) 0.19700(18)
C20 C 0.4131(3) 0.6927(3) 0.3287(3)
C21 C 0.4550(2) 0.6669(3) 0.3264(3)
C22 C 0.4948(3) 0.6875(2) 0.3350(3)
H11 H 0.4955 0.7164 0.3442
C23 C 0.5332(2) 0.6639(3) 0.3296(3)
C24 C 0.5315(2) 0.6202(2) 0.3178(3)
H12 H 0.5572 0.6044 0.3141
C25 C 0.4925(2) 0.6005(2) 0.3119(2)
C26 C 0.4544(2) 0.6233(2) 0.3154(3)
H13 H 0.4280 0.6093 0.3103
C27 C 0.5214(2) 0.5351(2) 0.2786(3)
H14 H 0.5361 0.5566 0.2604
H15 H 0.5428 0.5220 0.2979
C28 C 0.5755(3) 0.6865(3) 0.3378(3)
O12 O 0.41318(17) 0.72514(17) 0.3530(2)
O13 O 0.38061(16) 0.67795(19) 0.3070(2)
O14 O 0.60983(18) 0.6727(2) 0.3171(2)
O15 O 0.57802(17) 0.71653(16) 0.36395(18)
O16 O 0.48786(17) 0.55517(16) 0.30300(18)
C29 C 0.5869(3) 0.3073(3) 0.3287(3)
C30 C 0.5450(2) 0.3331(3) 0.3264(3)
C31 C 0.5052(3) 0.3125(2) 0.3350(3)
H16 H 0.5045 0.2836 0.3442
C32 C 0.4668(2) 0.3361(3) 0.3296(3)
C33 C 0.4685(2) 0.3798(2) 0.3178(3)
H17 H 0.4428 0.3956 0.3141
C34 C 0.5075(2) 0.3995(2) 0.3119(2)
C35 C 0.5456(2) 0.3767(2) 0.3154(3)
H18 H 0.5720 0.3907 0.3103
C36 C 0.4786(2) 0.4649(2) 0.2786(3)
H19 H 0.4639 0.4434 0.2604
H20 H 0.4572 0.4780 0.2979
C37 C 0.4245(3) 0.3135(3) 0.3378(3)
O17 O 0.58682(17) 0.27486(17) 0.3530(2)
O18 O 0.61939(16) 0.32205(19) 0.3070(2)
O19 O 0.39017(18) 0.3273(2) 0.3171(2)
O20 O 0.42198(17) 0.28347(16) 0.36395(18)
O21 O 0.51214(17) 0.44483(16) 0.30300(18)
O22 O 0.18357(17) 0.25550(18) 0.18161(17)
O23 O 0.18161(17) 0.31643(17) 0.24450(18)
Zn3 Zn 0.76609(3) 0.63555(3) 0.14072(3)
Zn4 Zn 0.68642(3) 0.68642(3) 0.18642(3)
C38 C 0.1713(3) 0.3073(3) 0.4131(3)
C39 C 0.1736(3) 0.3331(3) 0.4550(2)
C40 C 0.1650(3) 0.3125(2) 0.4948(3)
H21 H 0.1558 0.2836 0.4955
C41 C 0.1704(3) 0.3361(3) 0.5332(2)
C42 C 0.1822(3) 0.3798(2) 0.5315(2)
H22 H 0.1859 0.3956 0.5572
C43 C 0.1881(2) 0.3995(2) 0.4925(2)
C44 C 0.1846(3) 0.3767(2) 0.4544(2)
H23 H 0.1897 0.3907 0.4280
C45 C 0.2214(3) 0.4649(2) 0.5214(2)
H24 H 0.2396 0.4434 0.5361
H25 H 0.2021 0.4780 0.5428
C46 C 0.2500 0.5000 0.5000
C47 C 0.1622(3) 0.3135(3) 0.5755(3)
O24 O 0.1470(2) 0.27486(17) 0.41318(17)
O25 O 0.1930(2) 0.32205(19) 0.38061(16)
O26 O 0.18357(17) 0.24450(18) 0.31839(17)
O27 O 0.1829(2) 0.3273(2) 0.60983(18)
O28 O 0.13605(18) 0.28347(16) 0.57802(17)
O29 O 0.19700(18) 0.44483(16) 0.48786(17)
Zn5 Zn 0.14072(3) 0.23391(3) 0.36445(3)
Zn6 Zn 0.18642(3) 0.31358(3) 0.31358(3)
P2 P 0.20904(13) 0.20904(13) 0.29096(13)
C48 C 0.1713(3) 0.6927(3) 0.5869(3)
C49 C 0.1736(3) 0.6669(3) 0.5450(2)
C50 C 0.1650(3) 0.6875(2) 0.5052(3)
H26 H 0.1558 0.7164 0.5045
C51 C 0.1704(3) 0.6639(3) 0.4668(2)
C52 C 0.1822(3) 0.6202(2) 0.4685(2)
H27 H 0.1859 0.6044 0.4428
C53 C 0.1881(2) 0.6005(2) 0.5075(2)
C54 C 0.1846(3) 0.6233(2) 0.5456(2)
H28 H 0.1897 0.6093 0.5720
C55 C 0.2214(3) 0.5351(2) 0.4786(2)
H29 H 0.2396 0.5566 0.4639
H30 H 0.2021 0.5220 0.4572
C56 C 0.1622(3) 0.6865(3) 0.4245(3)
O30 O 0.1470(2) 0.72514(17) 0.58682(17)
O31 O 0.1930(2) 0.67795(19) 0.61939(16)
O32 O 0.1829(2) 0.6727(2) 0.39017(18)
O33 O 0.13605(18) 0.71653(16) 0.42198(17)
O34 O 0.19700(18) 0.55517(16) 0.51214(17)
C57 C 0.3287(3) 0.4131(3) 0.6927(3)
C58 C 0.3264(3) 0.4550(2) 0.6669(3)
C59 C 0.3350(3) 0.4948(3) 0.6875(2)
H31 H 0.3442 0.4955 0.7164
C60 C 0.3296(3) 0.5332(2) 0.6639(3)
C61 C 0.3178(3) 0.5315(2) 0.6202(2)
H32 H 0.3141 0.5572 0.6044
C62 C 0.3119(2) 0.4925(2) 0.6005(2)
C63 C 0.3154(3) 0.4544(2) 0.6233(2)
H33 H 0.3103 0.4280 0.6093
C64 C 0.2786(3) 0.5214(2) 0.5351(2)
H34 H 0.2604 0.5361 0.5566
H35 H 0.2979 0.5428 0.5220
C65 C 0.3378(3) 0.5755(3) 0.6865(3)
O35 O 0.3530(2) 0.41318(17) 0.72514(17)
O36 O 0.3070(2) 0.38061(16) 0.67795(19)
O37 O 0.3171(2) 0.60983(18) 0.6727(2)
O38 O 0.36395(18) 0.57802(17) 0.71653(16)
O39 O 0.30300(18) 0.48786(17) 0.55517(16)
C66 C 0.3287(3) 0.5869(3) 0.3073(3)
C67 C 0.3264(3) 0.5450(2) 0.3331(3)
C68 C 0.3350(3) 0.5052(3) 0.3125(2)
H36 H 0.3442 0.5045 0.2836
C69 C 0.3296(3) 0.4668(2) 0.3361(3)
C70 C 0.3178(3) 0.4685(2) 0.3798(2)
H37 H 0.3141 0.4428 0.3956
C71 C 0.3119(2) 0.5075(2) 0.3995(2)
C72 C 0.3154(3) 0.5456(2) 0.3767(2)
H38 H 0.3103 0.5720 0.3907
C73 C 0.2786(3) 0.4786(2) 0.4649(2)
H39 H 0.2604 0.4639 0.4434
H40 H 0.2979 0.4572 0.4780
C74 C 0.3378(3) 0.4245(3) 0.3135(3)
O40 O 0.3530(2) 0.58682(17) 0.27486(17)
O41 O 0.3070(2) 0.61939(16) 0.32205(19)
O42 O 0.3171(2) 0.39017(18) 0.3273(2)
O43 O 0.36395(18) 0.42198(17) 0.28347(16)
O44 O 0.30300(18) 0.51214(17) 0.44483(16)
O45 O 0.18161(17) 0.18357(17) 0.25550(18)
O46 O 0.24450(18) 0.18161(17) 0.31643(17)
Zn7 Zn 0.14072(3) 0.76609(3) 0.63555(3)
O47 O 0.31839(17) 0.18357(17) 0.24450(18)
Zn8 Zn 0.36445(3) 0.14072(3) 0.23391(3)
Zn9 Zn 0.31358(3) 0.18642(3) 0.31358(3)
P3 P 0.29096(13) 0.20904(13) 0.20904(13)
O48 O 0.25550(18) 0.18161(17) 0.18357(17)
O49 O 0.31643(17) 0.24450(18) 0.18161(17)
C75 C 0.1927(3) 0.6713(3) 0.0869(3)
C76 C 0.1669(3) 0.6736(3) 0.0450(2)
C77 C 0.1875(2) 0.6650(3) 0.0052(3)
H41 H 0.2164 0.6558 0.0045
C80 C 0.1005(2) 0.6881(2) 0.0075(2)
C81 C 0.1233(2) 0.6846(3) 0.0456(2)
H43 H 0.1093 0.6897 0.0720
C83 C 0.0000 0.7500 0.0000
O50 O 0.22514(17) 0.6470(2) 0.08682(17)
O51 O 0.17795(19) 0.6930(2) 0.11939(16)
O54 O 0.05517(16) 0.69700(18) 0.01214(17)
Zn10 Zn 0.26609(3) 0.64072(3) 0.13555(3)
C106 C 0.0332(2) 0.8296(3) 0.1639(3)
C107 C 0.0315(2) 0.8178(3) 0.1202(2)
H57 H 0.0572 0.8141 0.1044
C110 C 0.0214(2) 0.7786(3) 0.0351(2)
H59 H 0.0361 0.7604 0.0566
H60 H 0.0428 0.7979 0.0220
C111 C 0.0755(3) 0.8378(3) 0.1865(3)
O67 O 0.10983(18) 0.8171(2) 0.1727(2)
O68 O 0.07802(17) 0.86395(18) 0.21653(16)
O70 O 0.31643(17) 0.68161(17) 0.24450(18)
Zn12 Zn 0.35928(3) 0.63555(3) 0.23391(3)
P4 P 0.29096(13) 0.70904(13) 0.20904(13)
O71 O 0.31839(17) 0.74450(18) 0.18357(17)
O72 O 0.25550(18) 0.68357(17) 0.18161(17)
Zn13 Zn 0.64072(3) 0.36445(3) 0.23391(3)
Zn14 Zn 0.73391(3) 0.35928(3) 0.13555(3)
Zn15 Zn 0.36445(3) 0.76609(3) 0.35928(3)
Zn16 Zn 0.63555(3) 0.64072(3) 0.26609(3)
O73 O 0.41318(17) 0.1470(2) 0.27486(17)
O74 O 0.77486(17) 0.3530(2) 0.08682(17)
O75 O 0.58682(17) 0.6470(2) 0.22514(17)
O76 O 0.6470(2) 0.41318(17) 0.27486(17)
O77 O 0.38061(16) 0.1930(2) 0.32205(19)
O78 O 0.32205(19) 0.11939(16) 0.3070(2)
O79 O 0.61939(16) 0.6930(2) 0.17795(19)
O80 O 0.38061(16) 0.3070(2) 0.17795(19)
O81 O 0.17795(19) 0.38061(16) 0.3070(2)
O82 O 0.6930(2) 0.67795(19) 0.11939(16)
O83 O 0.3070(2) 0.32205(19) 0.11939(16)
O84 O 0.3070(2) 0.17795(19) 0.38061(16)
O85 O 0.11939(16) 0.3070(2) 0.32205(19)
O86 O 0.75550(18) 0.68161(17) 0.18357(17)
O87 O 0.18357(17) 0.75550(18) 0.68161(17)
O89 O 0.74450(18) 0.31643(17) 0.18161(17)
O90 O 0.68161(17) 0.68357(17) 0.25550(18)
O91 O 0.31839(17) 0.31643(17) 0.25550(18)
O92 O 0.68357(17) 0.31839(17) 0.24450(18)
O93 O 0.25550(18) 0.31839(17) 0.31643(17)
O94 O 0.68357(17) 0.75550(18) 0.18161(17)
O95 O 0.31643(17) 0.25550(18) 0.31839(17)
O96 O 0.31839(17) 0.75550(18) 0.31643(17)
O97 O 0.39017(18) 0.8171(2) 0.3273(2)
O98 O 0.1727(2) 0.1829(2) 0.39017(18)
O99 O 0.1727(2) 0.8171(2) 0.60983(18)
O100 O 0.6829(2) 0.3273(2) 0.10983(18)
O102 O 0.3171(2) 0.6727(2) 0.10983(18)
O103 O 0.39017(18) 0.1727(2) 0.1829(2)
O104 O 0.1829(2) 0.39017(18) 0.1727(2)
O105 O 0.8171(2) 0.60983(18) 0.1727(2)
O107 O 0.07802(17) 0.78347(16) 0.63605(18)
O108 O 0.07802(17) 0.21653(16) 0.36395(18)
O109 O 0.78347(16) 0.63605(18) 0.07802(17)
O110 O 0.21653(16) 0.36395(18) 0.07802(17)
O111 O 0.36395(18) 0.07802(17) 0.21653(16)
O112 O 0.42198(17) 0.63605(18) 0.21653(16)
O113 O 0.57802(17) 0.36395(18) 0.21653(16)
O114 O 0.63605(18) 0.57802(17) 0.28347(16)
O115 O 0.36395(18) 0.78347(16) 0.42198(17)
Zn19 Zn 0.13555(3) 0.26609(3) 0.64072(3)
Zn20 Zn 0.13555(3) 0.73391(3) 0.35928(3)
Zn21 Zn 0.23391(3) 0.13555(3) 0.35928(3)
Zn23 Zn 0.14072(3) 0.26609(3) 0.13555(3)
Zn25 Zn 0.36445(3) 0.64072(3) 0.73391(3)
Zn26 Zn 0.36445(3) 0.35928(3) 0.26609(3)
Zn27 Zn 0.13555(3) 0.76609(3) 0.14072(3)
Zn29 Zn 0.35928(3) 0.36445(3) 0.76609(3)
Zn30 Zn 0.26609(3) 0.63555(3) 0.64072(3)
Zn31 Zn 0.26609(3) 0.36445(3) 0.35928(3)
Zn32 Zn 0.35928(3) 0.23391(3) 0.13555(3)
Zn33 Zn 0.13555(3) 0.14072(3) 0.26609(3)
Zn36 Zn 0.36445(3) 0.73391(3) 0.14072(3)
Zn37 Zn 0.23391(3) 0.64072(3) 0.36445(3)
Zn38 Zn 0.23391(3) 0.35928(3) 0.63555(3)
Zn39 Zn 0.14072(3) 0.86445(3) 0.23391(3)
Zn41 Zn 0.26609(3) 0.13555(3) 0.14072(3)
Zn42 Zn 0.64072(3) 0.73391(3) 0.36445(3)
Zn43 Zn 0.35928(3) 0.26609(3) 0.36445(3)
Zn44 Zn 0.13555(3) 0.35928(3) 0.23391(3)
Zn45 Zn 0.63555(3) 0.23391(3) 0.35928(3)
Zn46 Zn 0.18642(3) 0.68642(3) 0.68642(3)
Zn48 Zn 0.18642(3) 0.68642(3) 0.18642(3)
Zn49 Zn 0.31358(3) 0.81358(3) 0.18642(3)
Zn51 Zn 0.18642(3) 0.18642(3) 0.18642(3)
Zn53 Zn 0.68642(3) 0.31358(3) 0.31358(3)
Zn54 Zn 0.31358(3) 0.31358(3) 0.68642(3)
Zn55 Zn 0.31358(3) 0.68642(3) 0.31358(3)
C78 C 0.1639(3) 0.6704(3) 0.9668(2)
C79 C 0.1202(2) 0.6822(3) 0.9685(2)
H42 H 0.1044 0.6859 0.9428
C82 C 0.0351(2) 0.7214(3) 0.9786(2)
H44 H 0.0566 0.7396 0.9639
H45 H 0.0220 0.7021 0.9572
C83_2 C 0.0000 0.7500 1.0000
C84 C 0.1865(3) 0.6622(3) 0.9245(3)
O52 O 0.1727(2) 0.6829(2) 0.89017(18)
O53 O 0.21653(16) 0.63605(18) 0.92198(17)
C94 C 0.0869(3) 0.8287(3) 0.8073(3)
C95 C 0.0450(2) 0.8264(3) 0.8331(3)
C96 C 0.0052(3) 0.8350(3) 0.8125(2)
H51 H 0.0045 0.8442 0.7836
C99 C 0.0075(2) 0.8119(2) 0.8995(2)
C100 C 0.0456(2) 0.8154(3) 0.8767(2)
H53 H 0.0720 0.8103 0.8907
O60 O 0.08682(17) 0.8530(2) 0.77486(17)
O61 O 0.11939(16) 0.8070(2) 0.82205(19)
O64 O 0.01214(17) 0.80300(18) 0.94483(16)
Zn18 Zn 0.23391(3) 0.63555(3) 0.85928(3)
Zn22 Zn 0.14072(3) 0.73391(3) 0.86445(3)
Zn35 Zn 0.13555(3) 0.85928(3) 0.73391(3)
Zn50 Zn 0.18642(3) 0.81358(3) 0.81358(3)
C83_3 C 1.0000 0.7500 0.0000
C88 C 0.8361(3) 0.6704(3) 0.0332(2)
C89 C 0.8798(2) 0.6822(3) 0.0315(2)
H47 H 0.8956 0.6859 0.0572
C92 C 0.9649(2) 0.7214(3) 0.0214(2)
H49 H 0.9434 0.7396 0.0361
H50 H 0.9780 0.7021 0.0428
C93 C 0.8135(3) 0.6622(3) 0.0755(3)
O57 O 0.8273(2) 0.6829(2) 0.10983(18)
C103 C 0.9131(3) 0.8287(3) 0.1927(3)
C104 C 0.9550(2) 0.8264(3) 0.1669(3)
C105 C 0.9948(3) 0.8350(3) 0.1875(2)
H56 H 0.9955 0.8442 0.2164
C108 C 0.9925(2) 0.8119(2) 0.1005(2)
C109 C 0.9544(2) 0.8154(3) 0.1233(2)
H58 H 0.9280 0.8103 0.1093
O65 O 0.91318(17) 0.8530(2) 0.22514(17)
O66 O 0.88061(16) 0.8070(2) 0.17795(19)
O69 O 0.98786(17) 0.80300(18) 0.05517(16)
Zn24 Zn 0.85928(3) 0.73391(3) 0.13555(3)
Zn34 Zn 0.86445(3) 0.85928(3) 0.26609(3)
Zn52 Zn 0.81358(3) 0.81358(3) 0.18642(3)
C83_4 C 1.0000 0.7500 1.0000
C85 C 0.8073(3) 0.6713(3) 0.9131(3)
C86 C 0.8331(3) 0.6736(3) 0.9550(2)
C87 C 0.8125(2) 0.6650(3) 0.9948(3)
H46 H 0.7836 0.6558 0.9955
C90 C 0.8995(2) 0.6881(2) 0.9925(2)
C91 C 0.8767(2) 0.6846(3) 0.9544(2)
H48 H 0.8907 0.6897 0.9280
O55 O 0.77486(17) 0.6470(2) 0.91318(17)
O56 O 0.82205(19) 0.6930(2) 0.88061(16)
O59 O 0.94483(16) 0.69700(18) 0.98786(17)
C97 C 0.9668(2) 0.8296(3) 0.8361(3)
C98 C 0.9685(2) 0.8178(3) 0.8798(2)
H52 H 0.9428 0.8141 0.8956
C101 C 0.9786(2) 0.7786(3) 0.9649(2)
H54 H 0.9639 0.7604 0.9434
H55 H 0.9572 0.7979 0.9780
C102 C 0.9245(3) 0.8378(3) 0.8135(3)
O62 O 0.89017(18) 0.8171(2) 0.8273(2)
O63 O 0.92198(17) 0.86395(18) 0.78347(16)
Zn11 Zn 0.73391(3) 0.64072(3) 0.86445(3)
O88 O 0.74450(18) 0.68357(17) 0.81839(17)
O101 O 0.6829(2) 0.6727(2) 0.89017(18)
O106 O 0.71653(16) 0.57802(17) 0.86395(18)
Zn28 Zn 0.86445(3) 0.76609(3) 0.85928(3)
Zn40 Zn 0.85928(3) 0.86445(3) 0.76609(3)
Zn47 Zn 0.81358(3) 0.68642(3) 0.81358(3)
C83_5 C -0.0000 0.2500 0.0000
C88_2 C 0.1639(3) 0.3296(3) 0.0332(2)
C89_2 C 0.1202(2) 0.3178(3) 0.0315(2)
H47_2 H 0.1044 0.3141 0.0572
C92_2 C 0.0351(2) 0.2786(3) 0.0214(2)
H49_2 H 0.0566 0.2604 0.0361
H50_2 H 0.0220 0.2979 0.0428
C93_2 C 0.1865(3) 0.3378(3) 0.0755(3)
O57_2 O 0.1727(2) 0.3171(2) 0.10983(18)
C103_2 C 0.0869(3) 0.1713(3) 0.1927(3)
C104_2 C 0.0450(2) 0.1736(3) 0.1669(3)
C105_2 C 0.0052(3) 0.1650(3) 0.1875(2)
H56_2 H 0.0045 0.1558 0.2164
C108_2 C 0.0075(2) 0.1881(2) 0.1005(2)
C109_2 C 0.0456(2) 0.1846(3) 0.1233(2)
H58_2 H 0.0720 0.1897 0.1093
O65_2 O 0.08682(17) 0.1470(2) 0.22514(17)
O66_2 O 0.11939(16) 0.1930(2) 0.17795(19)
O69_2 O 0.01214(17) 0.19700(18) 0.05517(16)
C83_6 C -0.0000 0.2500 1.0000
C85_2 C 0.1927(3) 0.3287(3) 0.9131(3)
C86_2 C 0.1669(3) 0.3264(3) 0.9550(2)
C87_2 C 0.1875(2) 0.3350(3) 0.9948(3)
H46_2 H 0.2164 0.3442 0.9955
C90_2 C 0.1005(2) 0.3119(2) 0.9925(2)
C91_2 C 0.1233(2) 0.3154(3) 0.9544(2)
H48_2 H 0.1093 0.3103 0.9280
O55_2 O 0.22514(17) 0.3530(2) 0.91318(17)
O56_2 O 0.17795(19) 0.3070(2) 0.88061(16)
O59_2 O 0.05517(16) 0.30300(18) 0.98786(17)
C97_2 C 0.0332(2) 0.1704(3) 0.8361(3)
C98_2 C 0.0315(2) 0.1822(3) 0.8798(2)
H52_2 H 0.0572 0.1859 0.8956
C101_2 C 0.0214(2) 0.2214(3) 0.9649(2)
H54_2 H 0.0361 0.2396 0.9434
H55_2 H 0.0428 0.2021 0.9780
C102_2 C 0.0755(3) 0.1622(3) 0.8135(3)
O62_2 O 0.10983(18) 0.1829(2) 0.8273(2)
O63_2 O 0.07802(17) 0.13605(18) 0.78347(16)
Zn11_2 Zn 0.26609(3) 0.35928(3) 0.86445(3)
O88_2 O 0.25550(18) 0.31643(17) 0.81839(17)
O101_2 O 0.3171(2) 0.3273(2) 0.89017(18)
O106_2 O 0.28347(16) 0.42198(17) 0.86395(18)
Zn28_2 Zn 0.13555(3) 0.23391(3) 0.85928(3)
Zn40_2 Zn 0.14072(3) 0.13555(3) 0.76609(3)
Zn47_2 Zn 0.18642(3) 0.31358(3) 0.81358(3)
P1_2 P 0.79096(13) 0.70904(13) 0.20904(13)
O22_2 O 0.81643(17) 0.74450(18) 0.18161(17)
O23_2 O 0.81839(17) 0.68357(17) 0.24450(18)
C38_2 C 0.8287(3) 0.6927(3) 0.4131(3)
C39_2 C 0.8264(3) 0.6669(3) 0.4550(2)
C40_2 C 0.8350(3) 0.6875(2) 0.4948(3)
H21_2 H 0.8442 0.7164 0.4955
C41_2 C 0.8296(3) 0.6639(3) 0.5332(2)
C42_2 C 0.8178(3) 0.6202(2) 0.5315(2)
H22_2 H 0.8141 0.6044 0.5572
C43_2 C 0.8119(2) 0.6005(2) 0.4925(2)
C44_2 C 0.8154(3) 0.6233(2) 0.4544(2)
H23_2 H 0.8103 0.6093 0.4280
C45_2 C 0.7786(3) 0.5351(2) 0.5214(2)
H24_2 H 0.7604 0.5566 0.5361
H25_2 H 0.7979 0.5220 0.5428
C46_2 C 0.7500 0.5000 0.5000
C47_2 C 0.8378(3) 0.6865(3) 0.5755(3)
O24_2 O 0.8530(2) 0.72514(17) 0.41318(17)
O25_2 O 0.8070(2) 0.67795(19) 0.38061(16)
O26_2 O 0.81643(17) 0.75550(18) 0.31839(17)
O27_2 O 0.8171(2) 0.6727(2) 0.60983(18)
O28_2 O 0.86395(18) 0.71653(16) 0.57802(17)
O29_2 O 0.80300(18) 0.55517(16) 0.48786(17)
Zn5_2 Zn 0.85928(3) 0.76609(3) 0.36445(3)
Zn6_2 Zn 0.81358(3) 0.68642(3) 0.31358(3)
P2_2 P 0.79096(13) 0.79096(13) 0.29096(13)
C48_2 C 0.8287(3) 0.3073(3) 0.5869(3)
C49_2 C 0.8264(3) 0.3331(3) 0.5450(2)
C50_2 C 0.8350(3) 0.3125(2) 0.5052(3)
H26_2 H 0.8442 0.2836 0.5045
C51_2 C 0.8296(3) 0.3361(3) 0.4668(2)
C52_2 C 0.8178(3) 0.3798(2) 0.4685(2)
H27_2 H 0.8141 0.3956 0.4428
C53_2 C 0.8119(2) 0.3995(2) 0.5075(2)
C54_2 C 0.8154(3) 0.3767(2) 0.5456(2)
H28_2 H 0.8103 0.3907 0.5720
C55_2 C 0.7786(3) 0.4649(2) 0.4786(2)
H29_2 H 0.7604 0.4434 0.4639
H30_2 H 0.7979 0.4780 0.4572
C56_2 C 0.8378(3) 0.3135(3) 0.4245(3)
O30_2 O 0.8530(2) 0.27486(17) 0.58682(17)
O31_2 O 0.8070(2) 0.32205(19) 0.61939(16)
O32_2 O 0.8171(2) 0.3273(2) 0.39017(18)
O33_2 O 0.86395(18) 0.28347(16) 0.42198(17)
O34_2 O 0.80300(18) 0.44483(16) 0.51214(17)
C57_2 C 0.6713(3) 0.5869(3) 0.6927(3)
C58_2 C 0.6736(3) 0.5450(2) 0.6669(3)
C59_2 C 0.6650(3) 0.5052(3) 0.6875(2)
H31_2 H 0.6558 0.5045 0.7164
C60_2 C 0.6704(3) 0.4668(2) 0.6639(3)
C61_2 C 0.6822(3) 0.4685(2) 0.6202(2)
H32_2 H 0.6859 0.4428 0.6044
C62_2 C 0.6881(2) 0.5075(2) 0.6005(2)
C63_2 C 0.6846(3) 0.5456(2) 0.6233(2)
H33_2 H 0.6897 0.5720 0.6093
C64_2 C 0.7214(3) 0.4786(2) 0.5351(2)
H34_2 H 0.7396 0.4639 0.5566
H35_2 H 0.7021 0.4572 0.5220
C65_2 C 0.6622(3) 0.4245(3) 0.6865(3)
O35_2 O 0.6470(2) 0.58682(17) 0.72514(17)
O36_2 O 0.6930(2) 0.61939(16) 0.67795(19)
O37_2 O 0.6829(2) 0.39017(18) 0.6727(2)
O38_2 O 0.63605(18) 0.42198(17) 0.71653(16)
O39_2 O 0.69700(18) 0.51214(17) 0.55517(16)
C66_2 C 0.6713(3) 0.4131(3) 0.3073(3)
C67_2 C 0.6736(3) 0.4550(2) 0.3331(3)
C68_2 C 0.6650(3) 0.4948(3) 0.3125(2)
H36_2 H 0.6558 0.4955 0.2836
C69_2 C 0.6704(3) 0.5332(2) 0.3361(3)
C70_2 C 0.6822(3) 0.5315(2) 0.3798(2)
H37_2 H 0.6859 0.5572 0.3956
C71_2 C 0.6881(2) 0.4925(2) 0.3995(2)
C72_2 C 0.6846(3) 0.4544(2) 0.3767(2)
H38_2 H 0.6897 0.4280 0.3907
C73_2 C 0.7214(3) 0.5214(2) 0.4649(2)
H39_2 H 0.7396 0.5361 0.4434
H40_2 H 0.7021 0.5428 0.4780
C74_2 C 0.6622(3) 0.5755(3) 0.3135(3)
O41_2 O 0.6930(2) 0.38061(16) 0.32205(19)
O42_2 O 0.6829(2) 0.60983(18) 0.3273(2)
O44_2 O 0.69700(18) 0.48786(17) 0.44483(16)
O45_2 O 0.81839(17) 0.81643(17) 0.25550(18)
O46_2 O 0.75550(18) 0.81839(17) 0.31643(17)
Zn7_2 Zn 0.85928(3) 0.23391(3) 0.63555(3)
O47_2 O 0.68161(17) 0.81643(17) 0.24450(18)
Zn8_2 Zn 0.63555(3) 0.85928(3) 0.23391(3)
Zn9_2 Zn 0.68642(3) 0.81358(3) 0.31358(3)
P3_2 P 0.70904(13) 0.79096(13) 0.20904(13)
O48_2 O 0.74450(18) 0.81839(17) 0.18357(17)
C75_2 C 0.8073(3) 0.3287(3) 0.0869(3)
C76_2 C 0.8331(3) 0.3264(3) 0.0450(2)
C77_2 C 0.8125(2) 0.3350(3) 0.0052(3)
H41_2 H 0.7836 0.3442 0.0045
C80_2 C 0.8995(2) 0.3119(2) 0.0075(2)
C81_2 C 0.8767(2) 0.3154(3) 0.0456(2)
H43_2 H 0.8907 0.3103 0.0720
C83_7 C 1.0000 0.2500 0.0000
O51_2 O 0.82205(19) 0.3070(2) 0.11939(16)
O54_2 O 0.94483(16) 0.30300(18) 0.01214(17)
C106_2 C 0.9668(2) 0.1704(3) 0.1639(3)
C107_2 C 0.9685(2) 0.1822(3) 0.1202(2)
H57_2 H 0.9428 0.1859 0.1044
C110_2 C 0.9786(2) 0.2214(3) 0.0351(2)
H59_2 H 0.9639 0.2396 0.0566
H60_2 H 0.9572 0.2021 0.0220
C111_2 C 0.9245(3) 0.1622(3) 0.1865(3)
O67_2 O 0.89017(18) 0.1829(2) 0.1727(2)
O68_2 O 0.92198(17) 0.13605(18) 0.21653(16)
P4_2 P 0.70904(13) 0.29096(13) 0.20904(13)
O71_2 O 0.68161(17) 0.25550(18) 0.18357(17)
O73_2 O 0.58682(17) 0.8530(2) 0.27486(17)
O75_2 O 0.41318(17) 0.3530(2) 0.22514(17)
O77_2 O 0.61939(16) 0.8070(2) 0.32205(19)
O78_2 O 0.67795(19) 0.88061(16) 0.3070(2)
O81_2 O 0.82205(19) 0.61939(16) 0.3070(2)
O84_2 O 0.6930(2) 0.82205(19) 0.38061(16)
O85_2 O 0.88061(16) 0.6930(2) 0.32205(19)
O87_2 O 0.81643(17) 0.24450(18) 0.68161(17)
O93_2 O 0.74450(18) 0.68161(17) 0.31643(17)
O95_2 O 0.68357(17) 0.74450(18) 0.31839(17)
O96_2 O 0.68161(17) 0.24450(18) 0.31643(17)
O97_2 O 0.60983(18) 0.1829(2) 0.3273(2)
O98_2 O 0.8273(2) 0.8171(2) 0.39017(18)
O99_2 O 0.8273(2) 0.1829(2) 0.60983(18)
O103_2 O 0.60983(18) 0.8273(2) 0.1829(2)
O107_2 O 0.92198(17) 0.21653(16) 0.63605(18)
O108_2 O 0.92198(17) 0.78347(16) 0.36395(18)
O111_2 O 0.63605(18) 0.92198(17) 0.21653(16)
O115_2 O 0.63605(18) 0.21653(16) 0.42198(17)
Zn19_2 Zn 0.86445(3) 0.73391(3) 0.64072(3)
Zn20_2 Zn 0.86445(3) 0.26609(3) 0.35928(3)
Zn21_2 Zn 0.76609(3) 0.86445(3) 0.35928(3)
Zn25_2 Zn 0.63555(3) 0.35928(3) 0.73391(3)
Zn27_2 Zn 0.86445(3) 0.23391(3) 0.14072(3)
Zn29_2 Zn 0.64072(3) 0.63555(3) 0.76609(3)
Zn30_2 Zn 0.73391(3) 0.36445(3) 0.64072(3)
Zn31_2 Zn 0.73391(3) 0.63555(3) 0.35928(3)
Zn32_2 Zn 0.64072(3) 0.76609(3) 0.13555(3)
Zn36_2 Zn 0.63555(3) 0.26609(3) 0.14072(3)
Zn37_2 Zn 0.76609(3) 0.35928(3) 0.36445(3)
Zn38_2 Zn 0.76609(3) 0.64072(3) 0.63555(3)
Zn39_2 Zn 0.85928(3) 0.13555(3) 0.23391(3)
Zn41_2 Zn 0.73391(3) 0.86445(3) 0.14072(3)
Zn44_2 Zn 0.86445(3) 0.64072(3) 0.23391(3)
Zn46_2 Zn 0.81358(3) 0.31358(3) 0.68642(3)
Zn48_2 Zn 0.81358(3) 0.31358(3) 0.18642(3)
Zn49_2 Zn 0.68642(3) 0.18642(3) 0.18642(3)
Zn54_2 Zn 0.68642(3) 0.68642(3) 0.68642(3)
C78_2 C 0.8361(3) 0.3296(3) 0.9668(2)
C79_2 C 0.8798(2) 0.3178(3) 0.9685(2)
H42_2 H 0.8956 0.3141 0.9428
C82_2 C 0.9649(2) 0.2786(3) 0.9786(2)
H44_2 H 0.9434 0.2604 0.9639
H45_2 H 0.9780 0.2979 0.9572
C83_8 C 1.0000 0.2500 1.0000
C84_2 C 0.8135(3) 0.3378(3) 0.9245(3)
O52_2 O 0.8273(2) 0.3171(2) 0.89017(18)
O53_2 O 0.78347(16) 0.36395(18) 0.92198(17)
C94_2 C 0.9131(3) 0.1713(3) 0.8073(3)
C95_2 C 0.9550(2) 0.1736(3) 0.8331(3)
C96_2 C 0.9948(3) 0.1650(3) 0.8125(2)
H51_2 H 0.9955 0.1558 0.7836
C99_2 C 0.9925(2) 0.1881(2) 0.8995(2)
C100_2 C 0.9544(2) 0.1846(3) 0.8767(2)
H53_2 H 0.9280 0.1897 0.8907
O60_2 O 0.91318(17) 0.1470(2) 0.77486(17)
O61_2 O 0.88061(16) 0.1930(2) 0.82205(19)
O64_2 O 0.98786(17) 0.19700(18) 0.94483(16)
Zn18_2 Zn 0.76609(3) 0.36445(3) 0.85928(3)
Zn22_2 Zn 0.85928(3) 0.26609(3) 0.86445(3)
Zn35_2 Zn 0.86445(3) 0.14072(3) 0.73391(3)
Zn50_2 Zn 0.81358(3) 0.18642(3) 0.81358(3)
C1_2 C 0.6927(3) 0.4131(3) 0.8287(3)
C2_2 C 0.6669(3) 0.4550(2) 0.8264(3)
C3_2 C 0.6875(2) 0.4948(3) 0.8350(3)
H1_2 H 0.7164 0.4955 0.8442
C4_2 C 0.6639(3) 0.5332(2) 0.8296(3)
C5_2 C 0.6202(2) 0.5315(2) 0.8178(3)
H2_2 H 0.6044 0.5572 0.8141
C6_2 C 0.6005(2) 0.4925(2) 0.8119(2)
C7_2 C 0.6233(2) 0.4544(2) 0.8154(3)
H3_2 H 0.6093 0.4280 0.8103
C8_2 C 0.5351(2) 0.5214(2) 0.7786(3)
H4_2 H 0.5566 0.5361 0.7604
H5_2 H 0.5220 0.5428 0.7979
C9_2 C 0.5000 0.5000 0.7500
C10_2 C 0.6865(3) 0.5755(3) 0.8378(3)
O1_2 O 0.72514(17) 0.41318(17) 0.8530(2)
O2_2 O 0.67795(19) 0.38061(16) 0.8070(2)
O3_2 O 0.75550(18) 0.31839(17) 0.81643(17)
O4_2 O 0.6727(2) 0.60983(18) 0.8171(2)
O6_2 O 0.55517(16) 0.48786(17) 0.80300(18)
Zn2_2 Zn 0.68642(3) 0.31358(3) 0.81358(3)
P1_3 P 0.79096(13) 0.29096(13) 0.79096(13)
C11_2 C 0.3073(3) 0.5869(3) 0.8287(3)
C12_2 C 0.3331(3) 0.5450(2) 0.8264(3)
C13_2 C 0.3125(2) 0.5052(3) 0.8350(3)
H6_2 H 0.2836 0.5045 0.8442
C14_2 C 0.3361(3) 0.4668(2) 0.8296(3)
C15_2 C 0.3798(2) 0.4685(2) 0.8178(3)
H7_2 H 0.3956 0.4428 0.8141
C16_2 C 0.3995(2) 0.5075(2) 0.8119(2)
C17_2 C 0.3767(2) 0.5456(2) 0.8154(3)
H8_2 H 0.3907 0.5720 0.8103
C18_2 C 0.4649(2) 0.4786(2) 0.7786(3)
H9_2 H 0.4434 0.4639 0.7604
H10_2 H 0.4780 0.4572 0.7979
C19_2 C 0.3135(3) 0.4245(3) 0.8378(3)
O7_2 O 0.27486(17) 0.58682(17) 0.8530(2)
O8_2 O 0.32205(19) 0.61939(16) 0.8070(2)
O9_2 O 0.3273(2) 0.39017(18) 0.8171(2)
O11_2 O 0.44483(16) 0.51214(17) 0.80300(18)
C20_2 C 0.5869(3) 0.6927(3) 0.6713(3)
C21_2 C 0.5450(2) 0.6669(3) 0.6736(3)
C22_2 C 0.5052(3) 0.6875(2) 0.6650(3)
H11_2 H 0.5045 0.7164 0.6558
C23_2 C 0.4668(2) 0.6639(3) 0.6704(3)
C24_2 C 0.4685(2) 0.6202(2) 0.6822(3)
H12_2 H 0.4428 0.6044 0.6859
C25_2 C 0.5075(2) 0.6005(2) 0.6881(2)
C26_2 C 0.5456(2) 0.6233(2) 0.6846(3)
H13_2 H 0.5720 0.6093 0.6897
C27_2 C 0.4786(2) 0.5351(2) 0.7214(3)
H14_2 H 0.4639 0.5566 0.7396
H15_2 H 0.4572 0.5220 0.7021
C28_2 C 0.4245(3) 0.6865(3) 0.6622(3)
O12_2 O 0.58682(17) 0.72514(17) 0.6470(2)
O13_2 O 0.61939(16) 0.67795(19) 0.6930(2)
O14_2 O 0.39017(18) 0.6727(2) 0.6829(2)
O15_2 O 0.42198(17) 0.71653(16) 0.63605(18)
O16_2 O 0.51214(17) 0.55517(16) 0.69700(18)
C29_2 C 0.4131(3) 0.3073(3) 0.6713(3)
C30_2 C 0.4550(2) 0.3331(3) 0.6736(3)
C31_2 C 0.4948(3) 0.3125(2) 0.6650(3)
H16_2 H 0.4955 0.2836 0.6558
C32_2 C 0.5332(2) 0.3361(3) 0.6704(3)
C33_2 C 0.5315(2) 0.3798(2) 0.6822(3)
H17_2 H 0.5572 0.3956 0.6859
C34_2 C 0.4925(2) 0.3995(2) 0.6881(2)
C35_2 C 0.4544(2) 0.3767(2) 0.6846(3)
H18_2 H 0.4280 0.3907 0.6897
C36_2 C 0.5214(2) 0.4649(2) 0.7214(3)
H19_2 H 0.5361 0.4434 0.7396
H20_2 H 0.5428 0.4780 0.7021
C37_2 C 0.5755(3) 0.3135(3) 0.6622(3)
O17_2 O 0.41318(17) 0.27486(17) 0.6470(2)
O18_2 O 0.38061(16) 0.32205(19) 0.6930(2)
O19_2 O 0.60983(18) 0.3273(2) 0.6829(2)
O20_2 O 0.57802(17) 0.28347(16) 0.63605(18)
O21_2 O 0.48786(17) 0.44483(16) 0.69700(18)
O22_3 O 0.81643(17) 0.25550(18) 0.81839(17)
O23_3 O 0.81839(17) 0.31643(17) 0.75550(18)
Zn4_2 Zn 0.31358(3) 0.68642(3) 0.81358(3)
P2_3 P 0.79096(13) 0.20904(13) 0.70904(13)
O45_3 O 0.81839(17) 0.18357(17) 0.74450(18)
O46_3 O 0.75550(18) 0.18161(17) 0.68357(17)
O47_3 O 0.68161(17) 0.18357(17) 0.75550(18)
Zn8_3 Zn 0.63555(3) 0.14072(3) 0.76609(3)
Zn9_3 Zn 0.68642(3) 0.18642(3) 0.68642(3)
P3_3 P 0.70904(13) 0.20904(13) 0.79096(13)
O48_3 O 0.74450(18) 0.18161(17) 0.81643(17)
O49_2 O 0.68357(17) 0.24450(18) 0.81839(17)
O70_2 O 0.68357(17) 0.68161(17) 0.75550(18)
P4_3 P 0.70904(13) 0.70904(13) 0.79096(13)
O71_3 O 0.68161(17) 0.74450(18) 0.81643(17)
Zn15_2 Zn 0.63555(3) 0.76609(3) 0.64072(3)
O73_3 O 0.58682(17) 0.1470(2) 0.72514(17)
O75_3 O 0.41318(17) 0.6470(2) 0.77486(17)
O77_3 O 0.61939(16) 0.1930(2) 0.67795(19)
O78_3 O 0.67795(19) 0.11939(16) 0.6930(2)
O79_2 O 0.38061(16) 0.6930(2) 0.82205(19)
O80_2 O 0.61939(16) 0.3070(2) 0.82205(19)
O81_3 O 0.82205(19) 0.38061(16) 0.6930(2)
O82_2 O 0.3070(2) 0.67795(19) 0.88061(16)
O83_2 O 0.6930(2) 0.32205(19) 0.88061(16)
O84_3 O 0.6930(2) 0.17795(19) 0.61939(16)
O85_3 O 0.88061(16) 0.3070(2) 0.67795(19)
O86_2 O 0.24450(18) 0.68161(17) 0.81643(17)
O90_2 O 0.31839(17) 0.68357(17) 0.74450(18)
O91_2 O 0.68161(17) 0.31643(17) 0.74450(18)
O92_2 O 0.31643(17) 0.31839(17) 0.75550(18)
O93_3 O 0.74450(18) 0.31839(17) 0.68357(17)
O94_2 O 0.31643(17) 0.75550(18) 0.81839(17)
O95_3 O 0.68357(17) 0.25550(18) 0.68161(17)
O96_3 O 0.68161(17) 0.75550(18) 0.68357(17)
O97_3 O 0.60983(18) 0.8171(2) 0.6727(2)
O103_3 O 0.60983(18) 0.1727(2) 0.8171(2)
O104_2 O 0.8171(2) 0.39017(18) 0.8273(2)
O105_2 O 0.1829(2) 0.60983(18) 0.8273(2)
O111_3 O 0.63605(18) 0.07802(17) 0.78347(16)
O112_2 O 0.57802(17) 0.63605(18) 0.78347(16)
O113_2 O 0.42198(17) 0.36395(18) 0.78347(16)
O115_3 O 0.63605(18) 0.78347(16) 0.57802(17)
Zn21_3 Zn 0.76609(3) 0.13555(3) 0.64072(3)
Zn32_3 Zn 0.64072(3) 0.23391(3) 0.86445(3)
Zn36_3 Zn 0.63555(3) 0.73391(3) 0.85928(3)
Zn41_3 Zn 0.73391(3) 0.13555(3) 0.85928(3)
Zn42_2 Zn 0.35928(3) 0.73391(3) 0.63555(3)
Zn43_2 Zn 0.64072(3) 0.26609(3) 0.63555(3)
Zn44_3 Zn 0.86445(3) 0.35928(3) 0.76609(3)
Zn45_2 Zn 0.36445(3) 0.23391(3) 0.64072(3)
Zn49_3 Zn 0.68642(3) 0.81358(3) 0.81358(3)
P1_4 P 0.20904(13) 0.70904(13) 0.79096(13)
O22_4 O 0.18357(17) 0.74450(18) 0.81839(17)
O23_4 O 0.18161(17) 0.68357(17) 0.75550(18)
P2_4 P 0.20904(13) 0.79096(13) 0.70904(13)
O45_4 O 0.18161(17) 0.81643(17) 0.74450(18)
O46_4 O 0.24450(18) 0.81839(17) 0.68357(17)
O47_4 O 0.31839(17) 0.81643(17) 0.75550(18)
Zn8_4 Zn 0.36445(3) 0.85928(3) 0.76609(3)
Zn9_4 Zn 0.31358(3) 0.81358(3) 0.68642(3)
P3_4 P 0.29096(13) 0.79096(13) 0.79096(13)
O48_4 O 0.25550(18) 0.81839(17) 0.81643(17)
P4_4 P 0.29096(13) 0.29096(13) 0.79096(13)
O71_4 O 0.31839(17) 0.25550(18) 0.81643(17)
O73_4 O 0.41318(17) 0.8530(2) 0.72514(17)
O75_4 O 0.58682(17) 0.3530(2) 0.77486(17)
O77_4 O 0.38061(16) 0.8070(2) 0.67795(19)
O78_4 O 0.32205(19) 0.88061(16) 0.6930(2)
O81_4 O 0.17795(19) 0.61939(16) 0.6930(2)
O84_4 O 0.3070(2) 0.82205(19) 0.61939(16)
O85_4 O 0.11939(16) 0.6930(2) 0.67795(19)
O93_4 O 0.25550(18) 0.68161(17) 0.68357(17)
O95_4 O 0.31643(17) 0.74450(18) 0.68161(17)
O96_4 O 0.31839(17) 0.24450(18) 0.68357(17)
O97_4 O 0.39017(18) 0.1829(2) 0.6727(2)
O103_4 O 0.39017(18) 0.8273(2) 0.8171(2)
O111_4 O 0.36395(18) 0.92198(17) 0.78347(16)
O115_4 O 0.36395(18) 0.21653(16) 0.57802(17)
Zn21_4 Zn 0.23391(3) 0.86445(3) 0.64072(3)
Zn32_4 Zn 0.35928(3) 0.76609(3) 0.86445(3)
Zn36_4 Zn 0.36445(3) 0.26609(3) 0.85928(3)
Zn41_4 Zn 0.26609(3) 0.86445(3) 0.85928(3)
Zn44_4 Zn 0.13555(3) 0.64072(3) 0.76609(3)
Zn49_4 Zn 0.31358(3) 0.18642(3) 0.81358(3)
C38_3 C 0.4131(3) 0.1713(3) 0.3073(3)
C39_3 C 0.4550(2) 0.1736(3) 0.3331(3)
C40_3 C 0.4948(3) 0.1650(3) 0.3125(2)
H21_3 H 0.4955 0.1558 0.2836
C41_3 C 0.5332(2) 0.1704(3) 0.3361(3)
C42_3 C 0.5315(2) 0.1822(3) 0.3798(2)
H22_3 H 0.5572 0.1859 0.3956
C43_3 C 0.4925(2) 0.1881(2) 0.3995(2)
C44_3 C 0.4544(2) 0.1846(3) 0.3767(2)
H23_3 H 0.4280 0.1897 0.3907
C45_3 C 0.5214(2) 0.2214(3) 0.4649(2)
H24_3 H 0.5361 0.2396 0.4434
H25_3 H 0.5428 0.2021 0.4780
C46_3 C 0.5000 0.2500 0.5000
C47_3 C 0.5755(3) 0.1622(3) 0.3135(3)
O28_3 O 0.57802(17) 0.13605(18) 0.28347(16)
O29_3 O 0.48786(17) 0.19700(18) 0.44483(16)
C48_3 C 0.5869(3) 0.1713(3) 0.6927(3)
C49_3 C 0.5450(2) 0.1736(3) 0.6669(3)
C50_3 C 0.5052(3) 0.1650(3) 0.6875(2)
H26_3 H 0.5045 0.1558 0.7164
C51_3 C 0.4668(2) 0.1704(3) 0.6639(3)
C52_3 C 0.4685(2) 0.1822(3) 0.6202(2)
H27_3 H 0.4428 0.1859 0.6044
C53_3 C 0.5075(2) 0.1881(2) 0.6005(2)
C54_3 C 0.5456(2) 0.1846(3) 0.6233(2)
H28_3 H 0.5720 0.1897 0.6093
C55_3 C 0.4786(2) 0.2214(3) 0.5351(2)
H29_3 H 0.4639 0.2396 0.5566
H30_3 H 0.4572 0.2021 0.5220
C56_3 C 0.4245(3) 0.1622(3) 0.6865(3)
O33_3 O 0.42198(17) 0.13605(18) 0.71653(16)
O34_3 O 0.51214(17) 0.19700(18) 0.55517(16)
C57_3 C 0.6927(3) 0.3287(3) 0.4131(3)
C58_3 C 0.6669(3) 0.3264(3) 0.4550(2)
C59_3 C 0.6875(2) 0.3350(3) 0.4948(3)
H31_3 H 0.7164 0.3442 0.4955
C60_3 C 0.6639(3) 0.3296(3) 0.5332(2)
C61_3 C 0.6202(2) 0.3178(3) 0.5315(2)
H32_3 H 0.6044 0.3141 0.5572
C62_3 C 0.6005(2) 0.3119(2) 0.4925(2)
C63_3 C 0.6233(2) 0.3154(3) 0.4544(2)
H33_3 H 0.6093 0.3103 0.4280
C64_3 C 0.5351(2) 0.2786(3) 0.5214(2)
H34_3 H 0.5566 0.2604 0.5361
H35_3 H 0.5220 0.2979 0.5428
C65_3 C 0.6865(3) 0.3378(3) 0.5755(3)
O35_3 O 0.72514(17) 0.3530(2) 0.41318(17)
O36_3 O 0.67795(19) 0.3070(2) 0.38061(16)
O37_3 O 0.6727(2) 0.3171(2) 0.60983(18)
O38_3 O 0.71653(16) 0.36395(18) 0.57802(17)
O39_3 O 0.55517(16) 0.30300(18) 0.48786(17)
C66_3 C 0.3073(3) 0.3287(3) 0.5869(3)
C67_3 C 0.3331(3) 0.3264(3) 0.5450(2)
C68_3 C 0.3125(2) 0.3350(3) 0.5052(3)
H36_3 H 0.2836 0.3442 0.5045
C69_3 C 0.3361(3) 0.3296(3) 0.4668(2)
C70_3 C 0.3798(2) 0.3178(3) 0.4685(2)
H37_3 H 0.3956 0.3141 0.4428
C71_3 C 0.3995(2) 0.3119(2) 0.5075(2)
C72_3 C 0.3767(2) 0.3154(3) 0.5456(2)
H38_3 H 0.3907 0.3103 0.5720
C73_3 C 0.4649(2) 0.2786(3) 0.4786(2)
H39_3 H 0.4434 0.2604 0.4639
H40_3 H 0.4780 0.2979 0.4572
C74_3 C 0.3135(3) 0.3378(3) 0.4245(3)
O40_2 O 0.27486(17) 0.3530(2) 0.58682(17)
O41_3 O 0.32205(19) 0.3070(2) 0.61939(16)
O42_3 O 0.3273(2) 0.3171(2) 0.39017(18)
O43_2 O 0.28347(16) 0.36395(18) 0.42198(17)
O44_3 O 0.44483(16) 0.30300(18) 0.51214(17)
C75_3 C 0.0869(3) 0.1927(3) 0.6713(3)
C76_3 C 0.0450(2) 0.1669(3) 0.6736(3)
C77_3 C 0.0052(3) 0.1875(2) 0.6650(3)
H41_3 H 0.0045 0.2164 0.6558
C80_3 C 0.0075(2) 0.1005(2) 0.6881(2)
C81_3 C 0.0456(2) 0.1233(2) 0.6846(3)
H43_3 H 0.0720 0.1093 0.6897
C83_9 C 0.0000 0.0000 0.7500
O50_2 O 0.08682(17) 0.22514(17) 0.6470(2)
O51_3 O 0.11939(16) 0.17795(19) 0.6930(2)
O54_3 O 0.01214(17) 0.05517(16) 0.69700(18)
C106_3 C 0.1639(3) 0.0332(2) 0.8296(3)
C107_3 C 0.1202(2) 0.0315(2) 0.8178(3)
H57_3 H 0.1044 0.0572 0.8141
C110_3 C 0.0351(2) 0.0214(2) 0.7786(3)
H59_3 H 0.0566 0.0361 0.7604
H60_3 H 0.0220 0.0428 0.7979
C111_3 C 0.1865(3) 0.0755(3) 0.8378(3)
O67_3 O 0.1727(2) 0.10983(18) 0.8171(2)
O68_3 O 0.21653(16) 0.07802(17) 0.86395(18)
O70_3 O 0.24450(18) 0.31643(17) 0.68161(17)
P4_5 P 0.20904(13) 0.29096(13) 0.70904(13)
O71_5 O 0.18357(17) 0.31839(17) 0.74450(18)
O72_2 O 0.18161(17) 0.25550(18) 0.68357(17)
O74_2 O 0.08682(17) 0.77486(17) 0.3530(2)
O75_5 O 0.22514(17) 0.58682(17) 0.6470(2)
O76_2 O 0.27486(17) 0.6470(2) 0.41318(17)
O89_2 O 0.18161(17) 0.74450(18) 0.31643(17)
O92_3 O 0.24450(18) 0.68357(17) 0.31839(17)
O100_2 O 0.10983(18) 0.6829(2) 0.3273(2)
O102_2 O 0.10983(18) 0.3171(2) 0.6727(2)
O112_3 O 0.21653(16) 0.42198(17) 0.63605(18)
O113_3 O 0.21653(16) 0.57802(17) 0.36395(18)
O114_2 O 0.28347(16) 0.63605(18) 0.57802(17)
Zn19_3 Zn 0.64072(3) 0.13555(3) 0.26609(3)
Zn20_3 Zn 0.35928(3) 0.13555(3) 0.73391(3)
Zn36_5 Zn 0.14072(3) 0.36445(3) 0.73391(3)
Zn39_3 Zn 0.23391(3) 0.14072(3) 0.86445(3)
Zn48_3 Zn 0.18642(3) 0.18642(3) 0.68642(3)
C83_10 C 0.0000 1.0000 0.7500
C88_3 C 0.0332(2) 0.8361(3) 0.6704(3)
C89_3 C 0.0315(2) 0.8798(2) 0.6822(3)
H47_3 H 0.0572 0.8956 0.6859
C92_3 C 0.0214(2) 0.9649(2) 0.7214(3)
H49_3 H 0.0361 0.9434 0.7396
H50_3 H 0.0428 0.9780 0.7021
C93_3 C 0.0755(3) 0.8135(3) 0.6622(3)
O57_3 O 0.10983(18) 0.8273(2) 0.6829(2)
C103_3 C 0.1927(3) 0.9131(3) 0.8287(3)
C104_3 C 0.1669(3) 0.9550(2) 0.8264(3)
C105_3 C 0.1875(2) 0.9948(3) 0.8350(3)
H56_3 H 0.2164 0.9955 0.8442
C108_3 C 0.1005(2) 0.9925(2) 0.8119(2)
C109_3 C 0.1233(2) 0.9544(2) 0.8154(3)
H58_3 H 0.1093 0.9280 0.8103
O65_3 O 0.22514(17) 0.91318(17) 0.8530(2)
O66_3 O 0.17795(19) 0.88061(16) 0.8070(2)
O69_3 O 0.05517(16) 0.98786(17) 0.80300(18)
C78_3 C 0.9668(2) 0.1639(3) 0.6704(3)
C79_3 C 0.9685(2) 0.1202(2) 0.6822(3)
H42_3 H 0.9428 0.1044 0.6859
C82_3 C 0.9786(2) 0.0351(2) 0.7214(3)
H44_3 H 0.9639 0.0566 0.7396
H45_3 H 0.9572 0.0220 0.7021
C83_11 C 1.0000 0.0000 0.7500
C84_3 C 0.9245(3) 0.1865(3) 0.6622(3)
O52_3 O 0.89017(18) 0.1727(2) 0.6829(2)
C94_3 C 0.8073(3) 0.0869(3) 0.8287(3)
C95_3 C 0.8331(3) 0.0450(2) 0.8264(3)
C96_3 C 0.8125(2) 0.0052(3) 0.8350(3)
H51_3 H 0.7836 0.0045 0.8442
C99_3 C 0.8995(2) 0.0075(2) 0.8119(2)
C100_3 C 0.8767(2) 0.0456(2) 0.8154(3)
H53_3 H 0.8907 0.0720 0.8103
O60_3 O 0.77486(17) 0.08682(17) 0.8530(2)
O61_3 O 0.82205(19) 0.11939(16) 0.8070(2)
O64_3 O 0.94483(16) 0.01214(17) 0.80300(18)
C83_12 C 1.0000 1.0000 0.7500
C85_3 C 0.9131(3) 0.8073(3) 0.6713(3)
C86_3 C 0.9550(2) 0.8331(3) 0.6736(3)
C87_3 C 0.9948(3) 0.8125(2) 0.6650(3)
H46_3 H 0.9955 0.7836 0.6558
C90_3 C 0.9925(2) 0.8995(2) 0.6881(2)
C91_3 C 0.9544(2) 0.8767(2) 0.6846(3)
H48_3 H 0.9280 0.8907 0.6897
O55_3 O 0.91318(17) 0.77486(17) 0.6470(2)
O56_3 O 0.88061(16) 0.82205(19) 0.6930(2)
O59_3 O 0.98786(17) 0.94483(16) 0.69700(18)
C97_3 C 0.8361(3) 0.9668(2) 0.8296(3)
C98_3 C 0.8798(2) 0.9685(2) 0.8178(3)
H52_3 H 0.8956 0.9428 0.8141
C101_3 C 0.9649(2) 0.9786(2) 0.7786(3)
H54_3 H 0.9434 0.9639 0.7604
H55_3 H 0.9780 0.9572 0.7979
C102_3 C 0.8135(3) 0.9245(3) 0.8378(3)
O62_3 O 0.8273(2) 0.89017(18) 0.8171(2)
O63_3 O 0.78347(16) 0.92198(17) 0.86395(18)
O88_3 O 0.81839(17) 0.74450(18) 0.68357(17)
O101_3 O 0.89017(18) 0.6829(2) 0.6727(2)
Zn40_3 Zn 0.76609(3) 0.85928(3) 0.86445(3)
Zn47_3 Zn 0.81358(3) 0.81358(3) 0.68642(3)
C83_13 C 0.0000 -0.0000 0.2500
C88_4 C 0.0332(2) 0.1639(3) 0.3296(3)
C89_4 C 0.0315(2) 0.1202(2) 0.3178(3)
H47_4 H 0.0572 0.1044 0.3141
C92_4 C 0.0214(2) 0.0351(2) 0.2786(3)
H49_4 H 0.0361 0.0566 0.2604
H50_4 H 0.0428 0.0220 0.2979
C93_4 C 0.0755(3) 0.1865(3) 0.3378(3)
O57_4 O 0.10983(18) 0.1727(2) 0.3171(2)
C103_4 C 0.1927(3) 0.0869(3) 0.1713(3)
C104_4 C 0.1669(3) 0.0450(2) 0.1736(3)
C105_4 C 0.1875(2) 0.0052(3) 0.1650(3)
H56_4 H 0.2164 0.0045 0.1558
C108_4 C 0.1005(2) 0.0075(2) 0.1881(2)
C109_4 C 0.1233(2) 0.0456(2) 0.1846(3)
H58_4 H 0.1093 0.0720 0.1897
O65_4 O 0.22514(17) 0.08682(17) 0.1470(2)
O66_4 O 0.17795(19) 0.11939(16) 0.1930(2)
O69_4 O 0.05517(16) 0.01214(17) 0.19700(18)
C38_4 C 0.4131(3) 0.8287(3) 0.6927(3)
C39_4 C 0.4550(2) 0.8264(3) 0.6669(3)
C40_4 C 0.4948(3) 0.8350(3) 0.6875(2)
H21_4 H 0.4955 0.8442 0.7164
C41_4 C 0.5332(2) 0.8296(3) 0.6639(3)
C42_4 C 0.5315(2) 0.8178(3) 0.6202(2)
H22_4 H 0.5572 0.8141 0.6044
C43_4 C 0.4925(2) 0.8119(2) 0.6005(2)
C44_4 C 0.4544(2) 0.8154(3) 0.6233(2)
H23_4 H 0.4280 0.8103 0.6093
C45_4 C 0.5214(2) 0.7786(3) 0.5351(2)
H24_4 H 0.5361 0.7604 0.5566
H25_4 H 0.5428 0.7979 0.5220
C46_4 C 0.5000 0.7500 0.5000
C47_4 C 0.5755(3) 0.8378(3) 0.6865(3)
O28_4 O 0.57802(17) 0.86395(18) 0.71653(16)
O29_4 O 0.48786(17) 0.80300(18) 0.55517(16)
C48_4 C 0.5869(3) 0.8287(3) 0.3073(3)
C49_4 C 0.5450(2) 0.8264(3) 0.3331(3)
C50_4 C 0.5052(3) 0.8350(3) 0.3125(2)
H26_4 H 0.5045 0.8442 0.2836
C51_4 C 0.4668(2) 0.8296(3) 0.3361(3)
C52_4 C 0.4685(2) 0.8178(3) 0.3798(2)
H27_4 H 0.4428 0.8141 0.3956
C53_4 C 0.5075(2) 0.8119(2) 0.3995(2)
C54_4 C 0.5456(2) 0.8154(3) 0.3767(2)
H28_4 H 0.5720 0.8103 0.3907
C55_4 C 0.4786(2) 0.7786(3) 0.4649(2)
H29_4 H 0.4639 0.7604 0.4434
H30_4 H 0.4572 0.7979 0.4780
C56_4 C 0.4245(3) 0.8378(3) 0.3135(3)
O33_4 O 0.42198(17) 0.86395(18) 0.28347(16)
O34_4 O 0.51214(17) 0.80300(18) 0.44483(16)
C57_4 C 0.6927(3) 0.6713(3) 0.5869(3)
C58_4 C 0.6669(3) 0.6736(3) 0.5450(2)
C59_4 C 0.6875(2) 0.6650(3) 0.5052(3)
H31_4 H 0.7164 0.6558 0.5045
C60_4 C 0.6639(3) 0.6704(3) 0.4668(2)
C61_4 C 0.6202(2) 0.6822(3) 0.4685(2)
H32_4 H 0.6044 0.6859 0.4428
C62_4 C 0.6005(2) 0.6881(2) 0.5075(2)
C63_4 C 0.6233(2) 0.6846(3) 0.5456(2)
H33_4 H 0.6093 0.6897 0.5720
C64_4 C 0.5351(2) 0.7214(3) 0.4786(2)
H34_4 H 0.5566 0.7396 0.4639
H35_4 H 0.5220 0.7021 0.4572
C65_4 C 0.6865(3) 0.6622(3) 0.4245(3)
O35_4 O 0.72514(17) 0.6470(2) 0.58682(17)
O36_4 O 0.67795(19) 0.6930(2) 0.61939(16)
O37_4 O 0.6727(2) 0.6829(2) 0.39017(18)
O38_4 O 0.71653(16) 0.63605(18) 0.42198(17)
O39_4 O 0.55517(16) 0.69700(18) 0.51214(17)
C66_4 C 0.3073(3) 0.6713(3) 0.4131(3)
C67_4 C 0.3331(3) 0.6736(3) 0.4550(2)
C68_4 C 0.3125(2) 0.6650(3) 0.4948(3)
H36_4 H 0.2836 0.6558 0.4955
C69_4 C 0.3361(3) 0.6704(3) 0.5332(2)
C70_4 C 0.3798(2) 0.6822(3) 0.5315(2)
H37_4 H 0.3956 0.6859 0.5572
C71_4 C 0.3995(2) 0.6881(2) 0.4925(2)
C72_4 C 0.3767(2) 0.6846(3) 0.4544(2)
H38_4 H 0.3907 0.6897 0.4280
C73_4 C 0.4649(2) 0.7214(3) 0.5214(2)
H39_4 H 0.4434 0.7396 0.5361
H40_4 H 0.4780 0.7021 0.5428
C74_4 C 0.3135(3) 0.6622(3) 0.5755(3)
O41_4 O 0.32205(19) 0.6930(2) 0.38061(16)
O42_4 O 0.3273(2) 0.6829(2) 0.60983(18)
O44_4 O 0.44483(16) 0.69700(18) 0.48786(17)
C75_4 C 0.0869(3) 0.8073(3) 0.3287(3)
C76_4 C 0.0450(2) 0.8331(3) 0.3264(3)
C77_4 C 0.0052(3) 0.8125(2) 0.3350(3)
H41_4 H 0.0045 0.7836 0.3442
C80_4 C 0.0075(2) 0.8995(2) 0.3119(2)
C81_4 C 0.0456(2) 0.8767(2) 0.3154(3)
H43_4 H 0.0720 0.8907 0.3103
C83_14 C 0.0000 1.0000 0.2500
O51_4 O 0.11939(16) 0.82205(19) 0.3070(2)
O54_4 O 0.01214(17) 0.94483(16) 0.30300(18)
C106_4 C 0.1639(3) 0.9668(2) 0.1704(3)
C107_4 C 0.1202(2) 0.9685(2) 0.1822(3)
H57_4 H 0.1044 0.9428 0.1859
C110_4 C 0.0351(2) 0.9786(2) 0.2214(3)
H59_4 H 0.0566 0.9639 0.2396
H60_4 H 0.0220 0.9572 0.2021
C111_4 C 0.1865(3) 0.9245(3) 0.1622(3)
O67_4 O 0.1727(2) 0.89017(18) 0.1829(2)
O68_4 O 0.21653(16) 0.92198(17) 0.13605(18)
P4_6 P 0.20904(13) 0.70904(13) 0.29096(13)
O71_6 O 0.18357(17) 0.68161(17) 0.25550(18)
O75_6 O 0.22514(17) 0.41318(17) 0.3530(2)
Zn19_4 Zn 0.64072(3) 0.86445(3) 0.73391(3)
Zn20_4 Zn 0.35928(3) 0.86445(3) 0.26609(3)
Zn36_6 Zn 0.14072(3) 0.63555(3) 0.26609(3)
Zn39_4 Zn 0.23391(3) 0.85928(3) 0.13555(3)
Zn48_4 Zn 0.18642(3) 0.81358(3) 0.31358(3)
C83_15 C 1.0000 -0.0000 0.2500
C85_4 C 0.9131(3) 0.1927(3) 0.3287(3)
C86_4 C 0.9550(2) 0.1669(3) 0.3264(3)
C87_4 C 0.9948(3) 0.1875(2) 0.3350(3)
H46_4 H 0.9955 0.2164 0.3442
C90_4 C 0.9925(2) 0.1005(2) 0.3119(2)
C91_4 C 0.9544(2) 0.1233(2) 0.3154(3)
H48_4 H 0.9280 0.1093 0.3103
O55_4 O 0.91318(17) 0.22514(17) 0.3530(2)
O56_4 O 0.88061(16) 0.17795(19) 0.3070(2)
O59_4 O 0.98786(17) 0.05517(16) 0.30300(18)
C97_4 C 0.8361(3) 0.0332(2) 0.1704(3)
C98_4 C 0.8798(2) 0.0315(2) 0.1822(3)
H52_4 H 0.8956 0.0572 0.1859
C101_4 C 0.9649(2) 0.0214(2) 0.2214(3)
H54_4 H 0.9434 0.0361 0.2396
H55_4 H 0.9780 0.0428 0.2021
C102_4 C 0.8135(3) 0.0755(3) 0.1622(3)
O62_4 O 0.8273(2) 0.10983(18) 0.1829(2)
O63_4 O 0.78347(16) 0.07802(17) 0.13605(18)
O88_4 O 0.81839(17) 0.25550(18) 0.31643(17)
O101_4 O 0.89017(18) 0.3171(2) 0.3273(2)
Zn40_4 Zn 0.76609(3) 0.14072(3) 0.13555(3)
Zn47_4 Zn 0.81358(3) 0.18642(3) 0.31358(3)
C78_4 C 0.9668(2) 0.8361(3) 0.3296(3)
C79_4 C 0.9685(2) 0.8798(2) 0.3178(3)
H42_4 H 0.9428 0.8956 0.3141
C82_4 C 0.9786(2) 0.9649(2) 0.2786(3)
H44_4 H 0.9639 0.9434 0.2604
H45_4 H 0.9572 0.9780 0.2979
C83_16 C 1.0000 1.0000 0.2500
C84_4 C 0.9245(3) 0.8135(3) 0.3378(3)
O52_4 O 0.89017(18) 0.8273(2) 0.3171(2)
C94_4 C 0.8073(3) 0.9131(3) 0.1713(3)
C95_4 C 0.8331(3) 0.9550(2) 0.1736(3)
C96_4 C 0.8125(2) 0.9948(3) 0.1650(3)
H51_4 H 0.7836 0.9955 0.1558
C99_4 C 0.8995(2) 0.9925(2) 0.1881(2)
C100_4 C 0.8767(2) 0.9544(2) 0.1846(3)
H53_4 H 0.8907 0.9280 0.1897
O60_4 O 0.77486(17) 0.91318(17) 0.1470(2)
O61_4 O 0.82205(19) 0.88061(16) 0.1930(2)
O64_4 O 0.94483(16) 0.98786(17) 0.19700(18)
O70_4 O 0.75550(18) 0.68357(17) 0.68161(17)
P4_7 P 0.79096(13) 0.70904(13) 0.70904(13)
O71_7 O 0.81643(17) 0.68161(17) 0.74450(18)
O75_7 O 0.77486(17) 0.41318(17) 0.6470(2)
O92_4 O 0.75550(18) 0.31643(17) 0.31839(17)
O112_4 O 0.78347(16) 0.57802(17) 0.63605(18)
O113_4 O 0.78347(16) 0.42198(17) 0.36395(18)
Zn36_7 Zn 0.85928(3) 0.63555(3) 0.73391(3)
P4_8 P 0.79096(13) 0.29096(13) 0.29096(13)
O71_8 O 0.81643(17) 0.31839(17) 0.25550(18)
O75_8 O 0.77486(17) 0.58682(17) 0.3530(2)
Zn36_8 Zn 0.85928(3) 0.36445(3) 0.26609(3)
C75_5 C 0.6713(3) 0.0869(3) 0.1927(3)
C76_5 C 0.6736(3) 0.0450(2) 0.1669(3)
C77_5 C 0.6650(3) 0.0052(3) 0.1875(2)
H41_5 H 0.6558 0.0045 0.2164
C80_5 C 0.6881(2) 0.0075(2) 0.1005(2)
C81_5 C 0.6846(3) 0.0456(2) 0.1233(2)
H43_5 H 0.6897 0.0720 0.1093
C83_17 C 0.7500 0.0000 0.0000
O50_3 O 0.6470(2) 0.08682(17) 0.22514(17)
O51_5 O 0.6930(2) 0.11939(16) 0.17795(19)
O54_5 O 0.69700(18) 0.01214(17) 0.05517(16)
C106_5 C 0.8296(3) 0.1639(3) 0.0332(2)
C107_5 C 0.8178(3) 0.1202(2) 0.0315(2)
H57_5 H 0.8141 0.1044 0.0572
C110_5 C 0.7786(3) 0.0351(2) 0.0214(2)
H59_5 H 0.7604 0.0566 0.0361
H60_5 H 0.7979 0.0220 0.0428
C111_5 C 0.8378(3) 0.1865(3) 0.0755(3)
O67_5 O 0.8171(2) 0.1727(2) 0.10983(18)
O68_5 O 0.86395(18) 0.21653(16) 0.07802(17)
P4_9 P 0.70904(13) 0.20904(13) 0.29096(13)
O71_9 O 0.74450(18) 0.18357(17) 0.31839(17)
O72_3 O 0.68357(17) 0.18161(17) 0.25550(18)
O74_3 O 0.3530(2) 0.08682(17) 0.77486(17)
O75_9 O 0.6470(2) 0.22514(17) 0.58682(17)
O89_3 O 0.31643(17) 0.18161(17) 0.74450(18)
O100_3 O 0.3273(2) 0.10983(18) 0.6829(2)
O102_3 O 0.6727(2) 0.10983(18) 0.3171(2)
Zn36_9 Zn 0.73391(3) 0.14072(3) 0.36445(3)
C83_18 C 0.7500 0.0000 1.0000
C88_5 C 0.6704(3) 0.0332(2) 0.8361(3)
C89_5 C 0.6822(3) 0.0315(2) 0.8798(2)
H47_5 H 0.6859 0.0572 0.8956
C92_5 C 0.7214(3) 0.0214(2) 0.9649(2)
H49_5 H 0.7396 0.0361 0.9434
H50_5 H 0.7021 0.0428 0.9780
C93_5 C 0.6622(3) 0.0755(3) 0.8135(3)
O57_5 O 0.6829(2) 0.10983(18) 0.8273(2)
C103_5 C 0.8287(3) 0.1927(3) 0.9131(3)
C104_5 C 0.8264(3) 0.1669(3) 0.9550(2)
C105_5 C 0.8350(3) 0.1875(2) 0.9948(3)
H56_5 H 0.8442 0.2164 0.9955
C108_5 C 0.8119(2) 0.1005(2) 0.9925(2)
C109_5 C 0.8154(3) 0.1233(2) 0.9544(2)
H58_5 H 0.8103 0.1093 0.9280
O65_5 O 0.8530(2) 0.22514(17) 0.91318(17)
O66_5 O 0.8070(2) 0.17795(19) 0.88061(16)
O69_5 O 0.80300(18) 0.05517(16) 0.98786(17)
C78_5 C 0.6704(3) 0.9668(2) 0.1639(3)
C79_5 C 0.6822(3) 0.9685(2) 0.1202(2)
H42_5 H 0.6859 0.9428 0.1044
C82_5 C 0.7214(3) 0.9786(2) 0.0351(2)
H44_5 H 0.7396 0.9639 0.0566
H45_5 H 0.7021 0.9572 0.0220
C83_19 C 0.7500 1.0000 0.0000
C84_5 C 0.6622(3) 0.9245(3) 0.1865(3)
O52_5 O 0.6829(2) 0.89017(18) 0.1727(2)
C94_5 C 0.8287(3) 0.8073(3) 0.0869(3)
C95_5 C 0.8264(3) 0.8331(3) 0.0450(2)
C96_5 C 0.8350(3) 0.8125(2) 0.0052(3)
H51_5 H 0.8442 0.7836 0.0045
C99_5 C 0.8119(2) 0.8995(2) 0.0075(2)
C100_5 C 0.8154(3) 0.8767(2) 0.0456(2)
H53_5 H 0.8103 0.8907 0.0720
O60_5 O 0.8530(2) 0.77486(17) 0.08682(17)
O61_5 O 0.8070(2) 0.82205(19) 0.11939(16)
O64_5 O 0.80300(18) 0.94483(16) 0.01214(17)
C83_20 C 0.7500 1.0000 1.0000
C85_5 C 0.6713(3) 0.9131(3) 0.8073(3)
C86_5 C 0.6736(3) 0.9550(2) 0.8331(3)
C87_5 C 0.6650(3) 0.9948(3) 0.8125(2)
H46_5 H 0.6558 0.9955 0.7836
C90_5 C 0.6881(2) 0.9925(2) 0.8995(2)
C91_5 C 0.6846(3) 0.9544(2) 0.8767(2)
H48_5 H 0.6897 0.9280 0.8907
O55_5 O 0.6470(2) 0.91318(17) 0.77486(17)
O56_5 O 0.6930(2) 0.88061(16) 0.82205(19)
O59_5 O 0.69700(18) 0.98786(17) 0.94483(16)
C97_5 C 0.8296(3) 0.8361(3) 0.9668(2)
C98_5 C 0.8178(3) 0.8798(2) 0.9685(2)
H52_5 H 0.8141 0.8956 0.9428
C101_5 C 0.7786(3) 0.9649(2) 0.9786(2)
H54_5 H 0.7604 0.9434 0.9639
H55_5 H 0.7979 0.9780 0.9572
C102_5 C 0.8378(3) 0.8135(3) 0.9245(3)
O62_5 O 0.8171(2) 0.8273(2) 0.89017(18)
O63_5 O 0.86395(18) 0.78347(16) 0.92198(17)
O88_5 O 0.68357(17) 0.81839(17) 0.74450(18)
O101_5 O 0.6727(2) 0.89017(18) 0.6829(2)
C83_21 C 0.2500 -0.0000 -0.0000
C88_6 C 0.3296(3) 0.0332(2) 0.1639(3)
C89_6 C 0.3178(3) 0.0315(2) 0.1202(2)
H47_6 H 0.3141 0.0572 0.1044
C92_6 C 0.2786(3) 0.0214(2) 0.0351(2)
H49_6 H 0.2604 0.0361 0.0566
H50_6 H 0.2979 0.0428 0.0220
C93_6 C 0.3378(3) 0.0755(3) 0.1865(3)
O57_6 O 0.3171(2) 0.10983(18) 0.1727(2)
C103_6 C 0.1713(3) 0.1927(3) 0.0869(3)
C104_6 C 0.1736(3) 0.1669(3) 0.0450(2)
C105_6 C 0.1650(3) 0.1875(2) 0.0052(3)
H56_6 H 0.1558 0.2164 0.0045
C108_6 C 0.1881(2) 0.1005(2) 0.0075(2)
C109_6 C 0.1846(3) 0.1233(2) 0.0456(2)
H58_6 H 0.1897 0.1093 0.0720
O65_6 O 0.1470(2) 0.22514(17) 0.08682(17)
O66_6 O 0.1930(2) 0.17795(19) 0.11939(16)
O69_6 O 0.19700(18) 0.05517(16) 0.01214(17)
C75_6 C 0.3287(3) 0.0869(3) 0.8073(3)
C76_6 C 0.3264(3) 0.0450(2) 0.8331(3)
C77_6 C 0.3350(3) 0.0052(3) 0.8125(2)
H41_6 H 0.3442 0.0045 0.7836
C80_6 C 0.3119(2) 0.0075(2) 0.8995(2)
C81_6 C 0.3154(3) 0.0456(2) 0.8767(2)
H43_6 H 0.3103 0.0720 0.8907
C83_22 C 0.2500 0.0000 1.0000
O51_6 O 0.3070(2) 0.11939(16) 0.82205(19)
O54_6 O 0.30300(18) 0.01214(17) 0.94483(16)
C106_6 C 0.1704(3) 0.1639(3) 0.9668(2)
C107_6 C 0.1822(3) 0.1202(2) 0.9685(2)
H57_6 H 0.1859 0.1044 0.9428
C110_6 C 0.2214(3) 0.0351(2) 0.9786(2)
H59_6 H 0.2396 0.0566 0.9639
H60_6 H 0.2021 0.0220 0.9572
C111_6 C 0.1622(3) 0.1865(3) 0.9245(3)
O67_6 O 0.1829(2) 0.1727(2) 0.89017(18)
O68_6 O 0.13605(18) 0.21653(16) 0.92198(17)
P4_10 P 0.29096(13) 0.20904(13) 0.70904(13)
O71_10 O 0.25550(18) 0.18357(17) 0.68161(17)
O75_10 O 0.3530(2) 0.22514(17) 0.41318(17)
Zn36_10 Zn 0.26609(3) 0.14072(3) 0.63555(3)
C83_23 C 0.2500 1.0000 -0.0000
C85_6 C 0.3287(3) 0.9131(3) 0.1927(3)
C86_6 C 0.3264(3) 0.9550(2) 0.1669(3)
C87_6 C 0.3350(3) 0.9948(3) 0.1875(2)
H46_6 H 0.3442 0.9955 0.2164
C90_6 C 0.3119(2) 0.9925(2) 0.1005(2)
C91_6 C 0.3154(3) 0.9544(2) 0.1233(2)
H48_6 H 0.3103 0.9280 0.1093
O55_6 O 0.3530(2) 0.91318(17) 0.22514(17)
O56_6 O 0.3070(2) 0.88061(16) 0.17795(19)
O59_6 O 0.30300(18) 0.98786(17) 0.05517(16)
C97_6 C 0.1704(3) 0.8361(3) 0.0332(2)
C98_6 C 0.1822(3) 0.8798(2) 0.0315(2)
H52_6 H 0.1859 0.8956 0.0572
C101_6 C 0.2214(3) 0.9649(2) 0.0214(2)
H54_6 H 0.2396 0.9434 0.0361
H55_6 H 0.2021 0.9780 0.0428
C102_6 C 0.1622(3) 0.8135(3) 0.0755(3)
O62_6 O 0.1829(2) 0.8273(2) 0.10983(18)
O63_6 O 0.13605(18) 0.78347(16) 0.07802(17)
O88_6 O 0.31643(17) 0.81839(17) 0.25550(18)
O101_6 O 0.3273(2) 0.89017(18) 0.3171(2)
C78_6 C 0.3296(3) 0.9668(2) 0.8361(3)
C79_6 C 0.3178(3) 0.9685(2) 0.8798(2)
H42_6 H 0.3141 0.9428 0.8956
C82_6 C 0.2786(3) 0.9786(2) 0.9649(2)
H44_6 H 0.2604 0.9639 0.9434
H45_6 H 0.2979 0.9572 0.9780
C83_24 C 0.2500 1.0000 1.0000
C84_6 C 0.3378(3) 0.9245(3) 0.8135(3)
O52_6 O 0.3171(2) 0.89017(18) 0.8273(2)
C94_6 C 0.1713(3) 0.8073(3) 0.9131(3)
C95_6 C 0.1736(3) 0.8331(3) 0.9550(2)
C96_6 C 0.1650(3) 0.8125(2) 0.9948(3)
H51_6 H 0.1558 0.7836 0.9955
C99_6 C 0.1881(2) 0.8995(2) 0.9925(2)
C100_6 C 0.1846(3) 0.8767(2) 0.9544(2)
H53_6 H 0.1897 0.8907 0.9280
O60_6 O 0.1470(2) 0.77486(17) 0.91318(17)
O61_6 O 0.1930(2) 0.82205(19) 0.88061(16)
O64_6 O 0.19700(18) 0.94483(16) 0.98786(17)
P4_11 P 0.70904(13) 0.79096(13) 0.70904(13)
O71_11 O 0.74450(18) 0.81643(17) 0.68161(17)
O75_11 O 0.6470(2) 0.77486(17) 0.41318(17)
Zn36_11 Zn 0.73391(3) 0.85928(3) 0.63555(3)
P4_12 P 0.29096(13) 0.79096(13) 0.29096(13)
O71_12 O 0.25550(18) 0.81643(17) 0.31839(17)
O75_12 O 0.3530(2) 0.77486(17) 0.58682(17)
Zn36_12 Zn 0.26609(3) 0.85928(3) 0.36445(3)
O75_13 O 0.1470(2) 0.08682(17) 0.72514(17)
O79_3 O 0.1930(2) 0.11939(16) 0.67795(19)
O82_3 O 0.17795(19) 0.1930(2) 0.61939(16)
O90_3 O 0.18357(17) 0.18161(17) 0.75550(18)
O112_5 O 0.13605(18) 0.92198(17) 0.71653(16)
O115_5 O 0.28347(16) 0.86395(18) 0.92198(17)
O113_5 O 0.86395(18) 0.07802(17) 0.71653(16)
O78_5 O 0.61939(16) 0.82205(19) 0.8070(2)
O80_3 O 0.8070(2) 0.88061(16) 0.67795(19)
O81_5 O 0.88061(16) 0.67795(19) 0.8070(2)
O83_3 O 0.82205(19) 0.8070(2) 0.61939(16)
O84_5 O 0.67795(19) 0.8070(2) 0.88061(16)
O85_5 O 0.8070(2) 0.61939(16) 0.82205(19)
O91_3 O 0.81643(17) 0.81839(17) 0.75550(18)
O93_5 O 0.81839(17) 0.75550(18) 0.81643(17)
O95_5 O 0.75550(18) 0.81643(17) 0.81839(17)
O78_6 O 0.38061(16) 0.17795(19) 0.8070(2)
O81_6 O 0.11939(16) 0.32205(19) 0.8070(2)
O84_6 O 0.32205(19) 0.1930(2) 0.88061(16)
O85_6 O 0.1930(2) 0.38061(16) 0.82205(19)
O93_6 O 0.18161(17) 0.24450(18) 0.81643(17)
O95_6 O 0.24450(18) 0.18357(17) 0.81839(17)
O115_6 O 0.71653(16) 0.13605(18) 0.92198(17)
O75_14 O 0.8530(2) 0.91318(17) 0.72514(17)
O112_6 O 0.13605(18) 0.07802(17) 0.28347(16)
O115_7 O 0.28347(16) 0.13605(18) 0.07802(17)
O75_15 O 0.1470(2) 0.91318(17) 0.27486(17)
O79_4 O 0.1930(2) 0.88061(16) 0.32205(19)
O82_4 O 0.17795(19) 0.8070(2) 0.38061(16)
O90_4 O 0.18357(17) 0.81839(17) 0.24450(18)
O78_7 O 0.61939(16) 0.17795(19) 0.1930(2)
O80_4 O 0.8070(2) 0.11939(16) 0.32205(19)
O81_7 O 0.88061(16) 0.32205(19) 0.1930(2)
O83_4 O 0.82205(19) 0.1930(2) 0.38061(16)
O84_7 O 0.67795(19) 0.1930(2) 0.11939(16)
O85_7 O 0.8070(2) 0.38061(16) 0.17795(19)
O91_4 O 0.81643(17) 0.18161(17) 0.24450(18)
O93_7 O 0.81839(17) 0.24450(18) 0.18357(17)
O95_7 O 0.75550(18) 0.18357(17) 0.18161(17)
O113_6 O 0.86395(18) 0.92198(17) 0.28347(16)
O78_8 O 0.38061(16) 0.82205(19) 0.1930(2)
O81_8 O 0.11939(16) 0.67795(19) 0.1930(2)
O84_8 O 0.32205(19) 0.8070(2) 0.11939(16)
O85_8 O 0.1930(2) 0.61939(16) 0.17795(19)
O93_8 O 0.18161(17) 0.75550(18) 0.18357(17)
O95_8 O 0.24450(18) 0.81643(17) 0.18161(17)
O75_16 O 0.8530(2) 0.08682(17) 0.27486(17)
O115_8 O 0.71653(16) 0.86395(18) 0.07802(17)
O75_17 O 0.08682(17) 0.72514(17) 0.1470(2)
O113_7 O 0.07802(17) 0.71653(16) 0.86395(18)
O112_7 O 0.92198(17) 0.71653(16) 0.13605(18)
O75_18 O 0.91318(17) 0.72514(17) 0.8530(2)
O112_8 O 0.07802(17) 0.28347(16) 0.13605(18)
O75_19 O 0.91318(17) 0.27486(17) 0.1470(2)
O113_8 O 0.92198(17) 0.28347(16) 0.86395(18)
O75_20 O 0.08682(17) 0.27486(17) 0.8530(2)
O75_21 O 0.72514(17) 0.1470(2) 0.08682(17)
O75_22 O 0.72514(17) 0.8530(2) 0.91318(17)
O75_23 O 0.27486(17) 0.1470(2) 0.91318(17)
O75_24 O 0.27486(17) 0.8530(2) 0.08682(17)
C4_3 C 0.3361(3) 0.0332(2) 0.6704(3)
C5_3 C 0.3798(2) 0.0315(2) 0.6822(3)
H2_3 H 0.3956 0.0572 0.6859
C8_3 C 0.4649(2) 0.0214(2) 0.7214(3)
H4_3 H 0.4434 0.0361 0.7396
H5_3 H 0.4780 0.0428 0.7021
C9_3 C 0.5000 -0.0000 0.7500
C10_3 C 0.3135(3) 0.0755(3) 0.6622(3)
O5_2 O 0.28347(16) 0.07802(17) 0.63605(18)
C11_3 C 0.6927(3) 0.0869(3) 0.6713(3)
C12_3 C 0.6669(3) 0.0450(2) 0.6736(3)
C13_3 C 0.6875(2) 0.0052(3) 0.6650(3)
H6_3 H 0.7164 0.0045 0.6558
C16_3 C 0.6005(2) 0.0075(2) 0.6881(2)
C17_3 C 0.6233(2) 0.0456(2) 0.6846(3)
H8_3 H 0.6093 0.0720 0.6897
O7_3 O 0.72514(17) 0.08682(17) 0.6470(2)
O11_3 O 0.55517(16) 0.01214(17) 0.69700(18)
C20_3 C 0.4131(3) 0.1927(3) 0.8287(3)
C21_3 C 0.4550(2) 0.1669(3) 0.8264(3)
C22_3 C 0.4948(3) 0.1875(2) 0.8350(3)
H11_3 H 0.4955 0.2164 0.8442
C23_3 C 0.5332(2) 0.1639(3) 0.8296(3)
C24_3 C 0.5315(2) 0.1202(2) 0.8178(3)
H12_3 H 0.5572 0.1044 0.8141
C25_3 C 0.4925(2) 0.1005(2) 0.8119(2)
C26_3 C 0.4544(2) 0.1233(2) 0.8154(3)
H13_3 H 0.4280 0.1093 0.8103
C27_3 C 0.5214(2) 0.0351(2) 0.7786(3)
H14_3 H 0.5361 0.0566 0.7604
H15_3 H 0.5428 0.0220 0.7979
C28_3 C 0.5755(3) 0.1865(3) 0.8378(3)
O12_3 O 0.41318(17) 0.22514(17) 0.8530(2)
O15_3 O 0.57802(17) 0.21653(16) 0.86395(18)
O16_3 O 0.48786(17) 0.05517(16) 0.80300(18)
C75_7 C 0.1927(3) 0.1713(3) 0.5869(3)
C76_7 C 0.1669(3) 0.1736(3) 0.5450(2)
C77_7 C 0.1875(2) 0.1650(3) 0.5052(3)
H41_7 H 0.2164 0.1558 0.5045
C78_7 C 0.1639(3) 0.1704(3) 0.4668(2)
C79_7 C 0.1202(2) 0.1822(3) 0.4685(2)
H42_7 H 0.1044 0.1859 0.4428
C80_7 C 0.1005(2) 0.1881(2) 0.5075(2)
C81_7 C 0.1233(2) 0.1846(3) 0.5456(2)
H43_7 H 0.1093 0.1897 0.5720
C82_7 C 0.0351(2) 0.2214(3) 0.4786(2)
H44_7 H 0.0566 0.2396 0.4639
H45_7 H 0.0220 0.2021 0.4572
C83_25 C 0.0000 0.2500 0.5000
C84_7 C 0.1865(3) 0.1622(3) 0.4245(3)
O50_4 O 0.22514(17) 0.1470(2) 0.58682(17)
O53_3 O 0.21653(16) 0.13605(18) 0.42198(17)
O54_7 O 0.05517(16) 0.19700(18) 0.51214(17)
C94_7 C 0.0869(3) 0.3287(3) 0.3073(3)
C95_7 C 0.0450(2) 0.3264(3) 0.3331(3)
C96_7 C 0.0052(3) 0.3350(3) 0.3125(2)
H51_7 H 0.0045 0.3442 0.2836
C99_7 C 0.0075(2) 0.3119(2) 0.3995(2)
C100_7 C 0.0456(2) 0.3154(3) 0.3767(2)
H53_7 H 0.0720 0.3103 0.3907
O60_7 O 0.08682(17) 0.3530(2) 0.27486(17)
O64_7 O 0.01214(17) 0.30300(18) 0.44483(16)
C106_7 C 0.0332(2) 0.3296(3) 0.6639(3)
C107_7 C 0.0315(2) 0.3178(3) 0.6202(2)
H57_7 H 0.0572 0.3141 0.6044
C110_7 C 0.0214(2) 0.2786(3) 0.5351(2)
H59_7 H 0.0361 0.2604 0.5566
H60_7 H 0.0428 0.2979 0.5220
C111_7 C 0.0755(3) 0.3378(3) 0.6865(3)
O68_7 O 0.07802(17) 0.36395(18) 0.71653(16)
O97_5 O 0.39017(18) 0.3171(2) 0.8273(2)
O102_4 O 0.3171(2) 0.1727(2) 0.60983(18)
O105_3 O 0.8171(2) 0.10983(18) 0.6727(2)
O109_2 O 0.78347(16) 0.13605(18) 0.57802(17)
O115_9 O 0.36395(18) 0.28347(16) 0.92198(17)
C1_3 C 0.3073(3) 0.9131(3) 0.6713(3)
C2_3 C 0.3331(3) 0.9550(2) 0.6736(3)
C3_3 C 0.3125(2) 0.9948(3) 0.6650(3)
H1_3 H 0.2836 0.9955 0.6558
C6_3 C 0.3995(2) 0.9925(2) 0.6881(2)
C7_3 C 0.3767(2) 0.9544(2) 0.6846(3)
H3_3 H 0.3907 0.9280 0.6897
C9_4 C 0.5000 1.0000 0.7500
O1_3 O 0.27486(17) 0.91318(17) 0.6470(2)
O6_3 O 0.44483(16) 0.98786(17) 0.69700(18)
C14_3 C 0.6639(3) 0.9668(2) 0.6704(3)
C15_3 C 0.6202(2) 0.9685(2) 0.6822(3)
H7_3 H 0.6044 0.9428 0.6859
C18_3 C 0.5351(2) 0.9786(2) 0.7214(3)
H9_3 H 0.5566 0.9639 0.7396
H10_3 H 0.5220 0.9572 0.7021
C19_3 C 0.6865(3) 0.9245(3) 0.6622(3)
O10_2 O 0.71653(16) 0.92198(17) 0.63605(18)
C29_3 C 0.5869(3) 0.8073(3) 0.8287(3)
C30_3 C 0.5450(2) 0.8331(3) 0.8264(3)
C31_3 C 0.5052(3) 0.8125(2) 0.8350(3)
H16_3 H 0.5045 0.7836 0.8442
C32_3 C 0.4668(2) 0.8361(3) 0.8296(3)
C33_3 C 0.4685(2) 0.8798(2) 0.8178(3)
H17_3 H 0.4428 0.8956 0.8141
C34_3 C 0.5075(2) 0.8995(2) 0.8119(2)
C35_3 C 0.5456(2) 0.8767(2) 0.8154(3)
H18_3 H 0.5720 0.8907 0.8103
C36_3 C 0.4786(2) 0.9649(2) 0.7786(3)
H19_3 H 0.4639 0.9434 0.7604
H20_3 H 0.4572 0.9780 0.7979
C37_3 C 0.4245(3) 0.8135(3) 0.8378(3)
O17_3 O 0.58682(17) 0.77486(17) 0.8530(2)
O20_3 O 0.42198(17) 0.78347(16) 0.86395(18)
O21_3 O 0.51214(17) 0.94483(16) 0.80300(18)
P3_5 P 0.29096(13) 0.70904(13) 0.70904(13)
O74_4 O 0.77486(17) 0.8530(2) 0.58682(17)
O100_4 O 0.6829(2) 0.8273(2) 0.60983(18)
O104_3 O 0.1829(2) 0.89017(18) 0.6727(2)
O110_2 O 0.21653(16) 0.86395(18) 0.57802(17)
C83_26 C 1.0000 0.2500 0.5000
C85_7 C 0.8073(3) 0.1713(3) 0.4131(3)
C86_7 C 0.8331(3) 0.1736(3) 0.4550(2)
C87_7 C 0.8125(2) 0.1650(3) 0.4948(3)
H46_7 H 0.7836 0.1558 0.4955
C88_7 C 0.8361(3) 0.1704(3) 0.5332(2)
C89_7 C 0.8798(2) 0.1822(3) 0.5315(2)
H47_7 H 0.8956 0.1859 0.5572
C90_7 C 0.8995(2) 0.1881(2) 0.4925(2)
C91_7 C 0.8767(2) 0.1846(3) 0.4544(2)
H48_7 H 0.8907 0.1897 0.4280
C92_7 C 0.9649(2) 0.2214(3) 0.5214(2)
H49_7 H 0.9434 0.2396 0.5361
H50_7 H 0.9780 0.2021 0.5428
C93_7 C 0.8135(3) 0.1622(3) 0.5755(3)
O55_7 O 0.77486(17) 0.1470(2) 0.41318(17)
O59_7 O 0.94483(16) 0.19700(18) 0.48786(17)
C97_7 C 0.9668(2) 0.3296(3) 0.3361(3)
C98_7 C 0.9685(2) 0.3178(3) 0.3798(2)
H52_7 H 0.9428 0.3141 0.3956
C101_7 C 0.9786(2) 0.2786(3) 0.4649(2)
H54_7 H 0.9639 0.2604 0.4434
H55_7 H 0.9572 0.2979 0.4780
C102_7 C 0.9245(3) 0.3378(3) 0.3135(3)
O63_7 O 0.92198(17) 0.36395(18) 0.28347(16)
C103_7 C 0.9131(3) 0.3287(3) 0.6927(3)
C104_7 C 0.9550(2) 0.3264(3) 0.6669(3)
C105_7 C 0.9948(3) 0.3350(3) 0.6875(2)
H56_7 H 0.9955 0.3442 0.7164
C108_7 C 0.9925(2) 0.3119(2) 0.6005(2)
C109_7 C 0.9544(2) 0.3154(3) 0.6233(2)
H58_7 H 0.9280 0.3103 0.6093
O65_7 O 0.91318(17) 0.3530(2) 0.72514(17)
O69_7 O 0.98786(17) 0.30300(18) 0.55517(16)
O101_7 O 0.6829(2) 0.1727(2) 0.39017(18)
O106_3 O 0.71653(16) 0.07802(17) 0.36395(18)
C83_27 C -0.0000 0.7500 0.5000
C85_8 C 0.1927(3) 0.8287(3) 0.4131(3)
C86_8 C 0.1669(3) 0.8264(3) 0.4550(2)
C87_8 C 0.1875(2) 0.8350(3) 0.4948(3)
H46_8 H 0.2164 0.8442 0.4955
C88_8 C 0.1639(3) 0.8296(3) 0.5332(2)
C89_8 C 0.1202(2) 0.8178(3) 0.5315(2)
H47_8 H 0.1044 0.8141 0.5572
C90_8 C 0.1005(2) 0.8119(2) 0.4925(2)
C91_8 C 0.1233(2) 0.8154(3) 0.4544(2)
H48_8 H 0.1093 0.8103 0.4280
C92_8 C 0.0351(2) 0.7786(3) 0.5214(2)
H49_8 H 0.0566 0.7604 0.5361
H50_8 H 0.0220 0.7979 0.5428
C93_8 C 0.1865(3) 0.8378(3) 0.5755(3)
O55_8 O 0.22514(17) 0.8530(2) 0.41318(17)
O59_8 O 0.05517(16) 0.80300(18) 0.48786(17)
C97_8 C 0.0332(2) 0.6704(3) 0.3361(3)
C98_8 C 0.0315(2) 0.6822(3) 0.3798(2)
H52_8 H 0.0572 0.6859 0.3956
C101_8 C 0.0214(2) 0.7214(3) 0.4649(2)
H54_8 H 0.0361 0.7396 0.4434
H55_8 H 0.0428 0.7021 0.4780
C102_8 C 0.0755(3) 0.6622(3) 0.3135(3)
O63_8 O 0.07802(17) 0.63605(18) 0.28347(16)
C103_8 C 0.0869(3) 0.6713(3) 0.6927(3)
C104_8 C 0.0450(2) 0.6736(3) 0.6669(3)
C105_8 C 0.0052(3) 0.6650(3) 0.6875(2)
H56_8 H 0.0045 0.6558 0.7164
C108_8 C 0.0075(2) 0.6881(2) 0.6005(2)
C109_8 C 0.0456(2) 0.6846(3) 0.6233(2)
H58_8 H 0.0720 0.6897 0.6093
O65_8 O 0.08682(17) 0.6470(2) 0.72514(17)
O69_8 O 0.01214(17) 0.69700(18) 0.55517(16)
O101_8 O 0.3171(2) 0.8273(2) 0.39017(18)
O106_4 O 0.28347(16) 0.92198(17) 0.36395(18)
P3_6 P 0.70904(13) 0.29096(13) 0.70904(13)
C75_8 C 0.8073(3) 0.8287(3) 0.5869(3)
C76_8 C 0.8331(3) 0.8264(3) 0.5450(2)
C77_8 C 0.8125(2) 0.8350(3) 0.5052(3)
H41_8 H 0.7836 0.8442 0.5045
C78_8 C 0.8361(3) 0.8296(3) 0.4668(2)
C79_8 C 0.8798(2) 0.8178(3) 0.4685(2)
H42_8 H 0.8956 0.8141 0.4428
C80_8 C 0.8995(2) 0.8119(2) 0.5075(2)
C81_8 C 0.8767(2) 0.8154(3) 0.5456(2)
H43_8 H 0.8907 0.8103 0.5720
C82_8 C 0.9649(2) 0.7786(3) 0.4786(2)
H44_8 H 0.9434 0.7604 0.4639
H45_8 H 0.9780 0.7979 0.4572
C83_28 C 1.0000 0.7500 0.5000
C84_8 C 0.8135(3) 0.8378(3) 0.4245(3)
O53_4 O 0.78347(16) 0.86395(18) 0.42198(17)
O54_8 O 0.94483(16) 0.80300(18) 0.51214(17)
C94_8 C 0.9131(3) 0.6713(3) 0.3073(3)
C95_8 C 0.9550(2) 0.6736(3) 0.3331(3)
C96_8 C 0.9948(3) 0.6650(3) 0.3125(2)
H51_8 H 0.9955 0.6558 0.2836
C99_8 C 0.9925(2) 0.6881(2) 0.3995(2)
C100_8 C 0.9544(2) 0.6846(3) 0.3767(2)
H53_8 H 0.9280 0.6897 0.3907
O60_8 O 0.91318(17) 0.6470(2) 0.27486(17)
O64_8 O 0.98786(17) 0.69700(18) 0.44483(16)
C106_8 C 0.9668(2) 0.6704(3) 0.6639(3)
C107_8 C 0.9685(2) 0.6822(3) 0.6202(2)
H57_8 H 0.9428 0.6859 0.6044
C110_8 C 0.9786(2) 0.7214(3) 0.5351(2)
H59_8 H 0.9639 0.7396 0.5566
H60_8 H 0.9572 0.7021 0.5220
C111_8 C 0.9245(3) 0.6622(3) 0.6865(3)
O68_8 O 0.92198(17) 0.63605(18) 0.71653(16)
O97_6 O 0.60983(18) 0.6829(2) 0.8273(2)
O115_10 O 0.63605(18) 0.71653(16) 0.92198(17)
C4_4 C 0.6639(3) 0.0332(2) 0.3296(3)
C5_4 C 0.6202(2) 0.0315(2) 0.3178(3)
H2_4 H 0.6044 0.0572 0.3141
C8_4 C 0.5351(2) 0.0214(2) 0.2786(3)
H4_4 H 0.5566 0.0361 0.2604
H5_4 H 0.5220 0.0428 0.2979
C9_5 C 0.5000 -0.0000 0.2500
C10_4 C 0.6865(3) 0.0755(3) 0.3378(3)
C11_4 C 0.3073(3) 0.0869(3) 0.3287(3)
C12_4 C 0.3331(3) 0.0450(2) 0.3264(3)
C13_4 C 0.3125(2) 0.0052(3) 0.3350(3)
H6_4 H 0.2836 0.0045 0.3442
C16_4 C 0.3995(2) 0.0075(2) 0.3119(2)
C17_4 C 0.3767(2) 0.0456(2) 0.3154(3)
H8_4 H 0.3907 0.0720 0.3103
O7_4 O 0.27486(17) 0.08682(17) 0.3530(2)
O11_4 O 0.44483(16) 0.01214(17) 0.30300(18)
C20_4 C 0.5869(3) 0.1927(3) 0.1713(3)
C21_4 C 0.5450(2) 0.1669(3) 0.1736(3)
C22_4 C 0.5052(3) 0.1875(2) 0.1650(3)
H11_4 H 0.5045 0.2164 0.1558
C23_4 C 0.4668(2) 0.1639(3) 0.1704(3)
C24_4 C 0.4685(2) 0.1202(2) 0.1822(3)
H12_4 H 0.4428 0.1044 0.1859
C25_4 C 0.5075(2) 0.1005(2) 0.1881(2)
C26_4 C 0.5456(2) 0.1233(2) 0.1846(3)
H13_4 H 0.5720 0.1093 0.1897
C27_4 C 0.4786(2) 0.0351(2) 0.2214(3)
H14_4 H 0.4639 0.0566 0.2396
H15_4 H 0.4572 0.0220 0.2021
C28_4 C 0.4245(3) 0.1865(3) 0.1622(3)
O12_4 O 0.58682(17) 0.22514(17) 0.1470(2)
O15_4 O 0.42198(17) 0.21653(16) 0.13605(18)
O16_4 O 0.51214(17) 0.05517(16) 0.19700(18)
O97_7 O 0.60983(18) 0.3171(2) 0.1727(2)
O105_4 O 0.1829(2) 0.10983(18) 0.3273(2)
O115_11 O 0.63605(18) 0.28347(16) 0.07802(17)
C1_4 C 0.6927(3) 0.9131(3) 0.3287(3)
C2_4 C 0.6669(3) 0.9550(2) 0.3264(3)
C3_4 C 0.6875(2) 0.9948(3) 0.3350(3)
H1_4 H 0.7164 0.9955 0.3442
C6_4 C 0.6005(2) 0.9925(2) 0.3119(2)
C7_4 C 0.6233(2) 0.9544(2) 0.3154(3)
H3_4 H 0.6093 0.9280 0.3103
C9_6 C 0.5000 1.0000 0.2500
O1_4 O 0.72514(17) 0.91318(17) 0.3530(2)
O6_4 O 0.55517(16) 0.98786(17) 0.30300(18)
C14_4 C 0.3361(3) 0.9668(2) 0.3296(3)
C15_4 C 0.3798(2) 0.9685(2) 0.3178(3)
H7_4 H 0.3956 0.9428 0.3141
C18_4 C 0.4649(2) 0.9786(2) 0.2786(3)
H9_4 H 0.4434 0.9639 0.2604
H10_4 H 0.4780 0.9572 0.2979
C19_4 C 0.3135(3) 0.9245(3) 0.3378(3)
C29_4 C 0.4131(3) 0.8073(3) 0.1713(3)
C30_4 C 0.4550(2) 0.8331(3) 0.1736(3)
C31_4 C 0.4948(3) 0.8125(2) 0.1650(3)
H16_4 H 0.4955 0.7836 0.1558
C32_4 C 0.5332(2) 0.8361(3) 0.1704(3)
C33_4 C 0.5315(2) 0.8798(2) 0.1822(3)
H17_4 H 0.5572 0.8956 0.1859
C34_4 C 0.4925(2) 0.8995(2) 0.1881(2)
C35_4 C 0.4544(2) 0.8767(2) 0.1846(3)
H18_4 H 0.4280 0.8907 0.1897
C36_4 C 0.5214(2) 0.9649(2) 0.2214(3)
H19_4 H 0.5361 0.9434 0.2396
H20_4 H 0.5428 0.9780 0.2021
C37_4 C 0.5755(3) 0.8135(3) 0.1622(3)
O17_4 O 0.41318(17) 0.77486(17) 0.1470(2)
O20_4 O 0.57802(17) 0.78347(16) 0.13605(18)
O21_4 O 0.48786(17) 0.94483(16) 0.19700(18)
P3_7 P 0.70904(13) 0.70904(13) 0.29096(13)
O104_4 O 0.8171(2) 0.89017(18) 0.3273(2)
P3_8 P 0.29096(13) 0.29096(13) 0.29096(13)
O97_8 O 0.39017(18) 0.6829(2) 0.1727(2)
O115_12 O 0.36395(18) 0.71653(16) 0.07802(17)
C46_5 C 0.5000 0.7500 -0.0000
C48_5 C 0.5869(3) 0.6713(3) 0.1927(3)
C49_5 C 0.5450(2) 0.6736(3) 0.1669(3)
C50_5 C 0.5052(3) 0.6650(3) 0.1875(2)
H26_5 H 0.5045 0.6558 0.2164
C51_5 C 0.4668(2) 0.6704(3) 0.1639(3)
C52_5 C 0.4685(2) 0.6822(3) 0.1202(2)
H27_5 H 0.4428 0.6859 0.1044
C53_5 C 0.5075(2) 0.6881(2) 0.1005(2)
C54_5 C 0.5456(2) 0.6846(3) 0.1233(2)
H28_5 H 0.5720 0.6897 0.1093
C55_5 C 0.4786(2) 0.7214(3) 0.0351(2)
H29_5 H 0.4639 0.7396 0.0566
H30_5 H 0.4572 0.7021 0.0220
C56_5 C 0.4245(3) 0.6622(3) 0.1865(3)
O34_5 O 0.51214(17) 0.69700(18) 0.05517(16)
C60_5 C 0.6639(3) 0.8296(3) 0.0332(2)
C61_5 C 0.6202(2) 0.8178(3) 0.0315(2)
H32_5 H 0.6044 0.8141 0.0572
C64_5 C 0.5351(2) 0.7786(3) 0.0214(2)
H34_5 H 0.5566 0.7604 0.0361
H35_5 H 0.5220 0.7979 0.0428
C65_5 C 0.6865(3) 0.8378(3) 0.0755(3)
O37_5 O 0.6727(2) 0.8171(2) 0.10983(18)
C66_5 C 0.3073(3) 0.8287(3) 0.0869(3)
C67_5 C 0.3331(3) 0.8264(3) 0.0450(2)
C68_5 C 0.3125(2) 0.8350(3) 0.0052(3)
H36_5 H 0.2836 0.8442 0.0045
C71_5 C 0.3995(2) 0.8119(2) 0.0075(2)
C72_5 C 0.3767(2) 0.8154(3) 0.0456(2)
H38_5 H 0.3907 0.8103 0.0720
O44_5 O 0.44483(16) 0.80300(18) 0.01214(17)
C75_9 C 0.0869(3) 0.6927(3) 0.1713(3)
C76_9 C 0.0450(2) 0.6669(3) 0.1736(3)
C77_9 C 0.0052(3) 0.6875(2) 0.1650(3)
H41_9 H 0.0045 0.7164 0.1558
C80_9 C 0.0075(2) 0.6005(2) 0.1881(2)
C81_9 C 0.0456(2) 0.6233(2) 0.1846(3)
H43_9 H 0.0720 0.6093 0.1897
C83_29 C 0.0000 0.5000 0.2500
O54_9 O 0.01214(17) 0.55517(16) 0.19700(18)
C88_9 C 0.0332(2) 0.3361(3) 0.1704(3)
C89_9 C 0.0315(2) 0.3798(2) 0.1822(3)
H47_9 H 0.0572 0.3956 0.1859
C92_9 C 0.0214(2) 0.4649(2) 0.2214(3)
H49_9 H 0.0361 0.4434 0.2396
H50_9 H 0.0428 0.4780 0.2021
C93_9 C 0.0755(3) 0.3135(3) 0.1622(3)
O57_7 O 0.10983(18) 0.3273(2) 0.1829(2)
C103_9 C 0.1927(3) 0.4131(3) 0.3287(3)
C104_9 C 0.1669(3) 0.4550(2) 0.3264(3)
C105_9 C 0.1875(2) 0.4948(3) 0.3350(3)
H56_9 H 0.2164 0.4955 0.3442
C106_9 C 0.1639(3) 0.5332(2) 0.3296(3)
C107_9 C 0.1202(2) 0.5315(2) 0.3178(3)
H57_9 H 0.1044 0.5572 0.3141
C108_9 C 0.1005(2) 0.4925(2) 0.3119(2)
C109_9 C 0.1233(2) 0.4544(2) 0.3154(3)
H58_9 H 0.1093 0.4280 0.3103
C110_9 C 0.0351(2) 0.5214(2) 0.2786(3)
H59_9 H 0.0566 0.5361 0.2604
H60_9 H 0.0220 0.5428 0.2979
C111_9 C 0.1865(3) 0.5755(3) 0.3378(3)
O67_7 O 0.1727(2) 0.60983(18) 0.3171(2)
O69_9 O 0.05517(16) 0.48786(17) 0.30300(18)
P4_13 P 0.20904(13) 0.79096(13) 0.20904(13)
C38_5 C 0.4131(3) 0.6713(3) 0.8073(3)
C39_5 C 0.4550(2) 0.6736(3) 0.8331(3)
C40_5 C 0.4948(3) 0.6650(3) 0.8125(2)
H21_5 H 0.4955 0.6558 0.7836
C41_5 C 0.5332(2) 0.6704(3) 0.8361(3)
C42_5 C 0.5315(2) 0.6822(3) 0.8798(2)
H22_5 H 0.5572 0.6859 0.8956
C43_5 C 0.4925(2) 0.6881(2) 0.8995(2)
C44_5 C 0.4544(2) 0.6846(3) 0.8767(2)
H23_5 H 0.4280 0.6897 0.8907
C45_5 C 0.5214(2) 0.7214(3) 0.9649(2)
H24_5 H 0.5361 0.7396 0.9434
H25_5 H 0.5428 0.7021 0.9780
C46_6 C 0.5000 0.7500 1.0000
C47_5 C 0.5755(3) 0.6622(3) 0.8135(3)
O29_5 O 0.48786(17) 0.69700(18) 0.94483(16)
C57_5 C 0.6927(3) 0.8287(3) 0.9131(3)
C58_5 C 0.6669(3) 0.8264(3) 0.9550(2)
C59_5 C 0.6875(2) 0.8350(3) 0.9948(3)
H31_5 H 0.7164 0.8442 0.9955
C62_5 C 0.6005(2) 0.8119(2) 0.9925(2)
C63_5 C 0.6233(2) 0.8154(3) 0.9544(2)
H33_5 H 0.6093 0.8103 0.9280
O39_5 O 0.55517(16) 0.80300(18) 0.98786(17)
C69_5 C 0.3361(3) 0.8296(3) 0.9668(2)
C70_5 C 0.3798(2) 0.8178(3) 0.9685(2)
H37_5 H 0.3956 0.8141 0.9428
C73_5 C 0.4649(2) 0.7786(3) 0.9786(2)
H39_5 H 0.4434 0.7604 0.9639
H40_5 H 0.4780 0.7979 0.9572
C74_5 C 0.3135(3) 0.8378(3) 0.9245(3)
O42_5 O 0.3273(2) 0.8171(2) 0.89017(18)
C78_9 C 0.9668(2) 0.6639(3) 0.1704(3)
C79_9 C 0.9685(2) 0.6202(2) 0.1822(3)
H42_9 H 0.9428 0.6044 0.1859
C82_9 C 0.9786(2) 0.5351(2) 0.2214(3)
H44_9 H 0.9639 0.5566 0.2396
H45_9 H 0.9572 0.5220 0.2021
C83_30 C 1.0000 0.5000 0.2500
C84_9 C 0.9245(3) 0.6865(3) 0.1622(3)
O52_7 O 0.89017(18) 0.6727(2) 0.1829(2)
C85_9 C 0.9131(3) 0.3073(3) 0.1713(3)
C86_9 C 0.9550(2) 0.3331(3) 0.1736(3)
C87_9 C 0.9948(3) 0.3125(2) 0.1650(3)
H46_9 H 0.9955 0.2836 0.1558
C90_9 C 0.9925(2) 0.3995(2) 0.1881(2)
C91_9 C 0.9544(2) 0.3767(2) 0.1846(3)
H48_9 H 0.9280 0.3907 0.1897
O59_9 O 0.98786(17) 0.44483(16) 0.19700(18)
C94_9 C 0.8073(3) 0.5869(3) 0.3287(3)
C95_9 C 0.8331(3) 0.5450(2) 0.3264(3)
C96_9 C 0.8125(2) 0.5052(3) 0.3350(3)
H51_9 H 0.7836 0.5045 0.3442
C97_9 C 0.8361(3) 0.4668(2) 0.3296(3)
C98_9 C 0.8798(2) 0.4685(2) 0.3178(3)
H52_9 H 0.8956 0.4428 0.3141
C99_9 C 0.8995(2) 0.5075(2) 0.3119(2)
C100_9 C 0.8767(2) 0.5456(2) 0.3154(3)
H53_9 H 0.8907 0.5720 0.3103
C101_9 C 0.9649(2) 0.4786(2) 0.2786(3)
H54_9 H 0.9434 0.4639 0.2604
H55_9 H 0.9780 0.4572 0.2979
C102_9 C 0.8135(3) 0.4245(3) 0.3378(3)
O62_7 O 0.8273(2) 0.39017(18) 0.3171(2)
O64_9 O 0.94483(16) 0.51214(17) 0.30300(18)
C38_6 C 0.4131(3) 0.3287(3) 0.1927(3)
C39_6 C 0.4550(2) 0.3264(3) 0.1669(3)
C40_6 C 0.4948(3) 0.3350(3) 0.1875(2)
H21_6 H 0.4955 0.3442 0.2164
C41_6 C 0.5332(2) 0.3296(3) 0.1639(3)
C42_6 C 0.5315(2) 0.3178(3) 0.1202(2)
H22_6 H 0.5572 0.3141 0.1044
C43_6 C 0.4925(2) 0.3119(2) 0.1005(2)
C44_6 C 0.4544(2) 0.3154(3) 0.1233(2)
H23_6 H 0.4280 0.3103 0.1093
C45_6 C 0.5214(2) 0.2786(3) 0.0351(2)
H24_6 H 0.5361 0.2604 0.0566
H25_6 H 0.5428 0.2979 0.0220
C46_7 C 0.5000 0.2500 0.0000
C47_6 C 0.5755(3) 0.3378(3) 0.1865(3)
O29_6 O 0.48786(17) 0.30300(18) 0.05517(16)
C57_6 C 0.6927(3) 0.1713(3) 0.0869(3)
C58_6 C 0.6669(3) 0.1736(3) 0.0450(2)
C59_6 C 0.6875(2) 0.1650(3) 0.0052(3)
H31_6 H 0.7164 0.1558 0.0045
C62_6 C 0.6005(2) 0.1881(2) 0.0075(2)
C63_6 C 0.6233(2) 0.1846(3) 0.0456(2)
H33_6 H 0.6093 0.1897 0.0720
O39_6 O 0.55517(16) 0.19700(18) 0.01214(17)
C69_6 C 0.3361(3) 0.1704(3) 0.0332(2)
C70_6 C 0.3798(2) 0.1822(3) 0.0315(2)
H37_6 H 0.3956 0.1859 0.0572
C73_6 C 0.4649(2) 0.2214(3) 0.0214(2)
H39_6 H 0.4434 0.2396 0.0361
H40_6 H 0.4780 0.2021 0.0428
C74_6 C 0.3135(3) 0.1622(3) 0.0755(3)
O42_6 O 0.3273(2) 0.1829(2) 0.10983(18)
C46_8 C 0.5000 0.2500 1.0000
C48_6 C 0.5869(3) 0.3287(3) 0.8073(3)
C49_6 C 0.5450(2) 0.3264(3) 0.8331(3)
C50_6 C 0.5052(3) 0.3350(3) 0.8125(2)
H26_6 H 0.5045 0.3442 0.7836
C51_6 C 0.4668(2) 0.3296(3) 0.8361(3)
C52_6 C 0.4685(2) 0.3178(3) 0.8798(2)
H27_6 H 0.4428 0.3141 0.8956
C53_6 C 0.5075(2) 0.3119(2) 0.8995(2)
C54_6 C 0.5456(2) 0.3154(3) 0.8767(2)
H28_6 H 0.5720 0.3103 0.8907
C55_6 C 0.4786(2) 0.2786(3) 0.9649(2)
H29_6 H 0.4639 0.2604 0.9434
H30_6 H 0.4572 0.2979 0.9780
C56_6 C 0.4245(3) 0.3378(3) 0.8135(3)
O34_6 O 0.51214(17) 0.30300(18) 0.94483(16)
C60_6 C 0.6639(3) 0.1704(3) 0.9668(2)
C61_6 C 0.6202(2) 0.1822(3) 0.9685(2)
H32_6 H 0.6044 0.1859 0.9428
C64_6 C 0.5351(2) 0.2214(3) 0.9786(2)
H34_6 H 0.5566 0.2396 0.9639
H35_6 H 0.5220 0.2021 0.9572
C65_6 C 0.6865(3) 0.1622(3) 0.9245(3)
O37_6 O 0.6727(2) 0.1829(2) 0.89017(18)
C66_6 C 0.3073(3) 0.1713(3) 0.9131(3)
C67_6 C 0.3331(3) 0.1736(3) 0.9550(2)
C68_6 C 0.3125(2) 0.1650(3) 0.9948(3)
H36_6 H 0.2836 0.1558 0.9955
C71_6 C 0.3995(2) 0.1881(2) 0.9925(2)
C72_6 C 0.3767(2) 0.1846(3) 0.9544(2)
H38_6 H 0.3907 0.1897 0.9280
O44_6 O 0.44483(16) 0.19700(18) 0.98786(17)
C75_10 C 0.0869(3) 0.3073(3) 0.8287(3)
C76_10 C 0.0450(2) 0.3331(3) 0.8264(3)
C77_10 C 0.0052(3) 0.3125(2) 0.8350(3)
H41_10 H 0.0045 0.2836 0.8442
C80_10 C 0.0075(2) 0.3995(2) 0.8119(2)
C81_10 C 0.0456(2) 0.3767(2) 0.8154(3)
H43_10 H 0.0720 0.3907 0.8103
C83_31 C 0.0000 0.5000 0.7500
O54_10 O 0.01214(17) 0.44483(16) 0.80300(18)
C88_10 C 0.0332(2) 0.6639(3) 0.8296(3)
C89_10 C 0.0315(2) 0.6202(2) 0.8178(3)
H47_10 H 0.0572 0.6044 0.8141
C92_10 C 0.0214(2) 0.5351(2) 0.7786(3)
H49_10 H 0.0361 0.5566 0.7604
H50_10 H 0.0428 0.5220 0.7979
C93_10 C 0.0755(3) 0.6865(3) 0.8378(3)
O57_8 O 0.10983(18) 0.6727(2) 0.8171(2)
C103_10 C 0.1927(3) 0.5869(3) 0.6713(3)
C104_10 C 0.1669(3) 0.5450(2) 0.6736(3)
C105_10 C 0.1875(2) 0.5052(3) 0.6650(3)
H56_10 H 0.2164 0.5045 0.6558
C106_10 C 0.1639(3) 0.4668(2) 0.6704(3)
C107_10 C 0.1202(2) 0.4685(2) 0.6822(3)
H57_10 H 0.1044 0.4428 0.6859
C108_10 C 0.1005(2) 0.5075(2) 0.6881(2)
C109_10 C 0.1233(2) 0.5456(2) 0.6846(3)
H58_10 H 0.1093 0.5720 0.6897
C110_10 C 0.0351(2) 0.4786(2) 0.7214(3)
H59_10 H 0.0566 0.4639 0.7396
H60_10 H 0.0220 0.4572 0.7021
C111_10 C 0.1865(3) 0.4245(3) 0.6622(3)
O67_8 O 0.1727(2) 0.39017(18) 0.6829(2)
O69_10 O 0.05517(16) 0.51214(17) 0.69700(18)
P4_14 P 0.20904(13) 0.20904(13) 0.79096(13)
C78_10 C 0.9668(2) 0.3361(3) 0.8296(3)
C79_10 C 0.9685(2) 0.3798(2) 0.8178(3)
H42_10 H 0.9428 0.3956 0.8141
C82_10 C 0.9786(2) 0.4649(2) 0.7786(3)
H44_10 H 0.9639 0.4434 0.7604
H45_10 H 0.9572 0.4780 0.7979
C83_32 C 1.0000 0.5000 0.7500
C84_10 C 0.9245(3) 0.3135(3) 0.8378(3)
O52_8 O 0.89017(18) 0.3273(2) 0.8171(2)
C85_10 C 0.9131(3) 0.6927(3) 0.8287(3)
C86_10 C 0.9550(2) 0.6669(3) 0.8264(3)
C87_10 C 0.9948(3) 0.6875(2) 0.8350(3)
H46_10 H 0.9955 0.7164 0.8442
C90_10 C 0.9925(2) 0.6005(2) 0.8119(2)
C91_10 C 0.9544(2) 0.6233(2) 0.8154(3)
H48_10 H 0.9280 0.6093 0.8103
O59_10 O 0.98786(17) 0.55517(16) 0.80300(18)
C94_10 C 0.8073(3) 0.4131(3) 0.6713(3)
C95_10 C 0.8331(3) 0.4550(2) 0.6736(3)
C96_10 C 0.8125(2) 0.4948(3) 0.6650(3)
H51_10 H 0.7836 0.4955 0.6558
C97_10 C 0.8361(3) 0.5332(2) 0.6704(3)
C98_10 C 0.8798(2) 0.5315(2) 0.6822(3)
H52_10 H 0.8956 0.5572 0.6859
C99_10 C 0.8995(2) 0.4925(2) 0.6881(2)
C100_10 C 0.8767(2) 0.4544(2) 0.6846(3)
H53_10 H 0.8907 0.4280 0.6897
C101_10 C 0.9649(2) 0.5214(2) 0.7214(3)
H54_10 H 0.9434 0.5361 0.7396
H55_10 H 0.9780 0.5428 0.7021
C102_10 C 0.8135(3) 0.5755(3) 0.6622(3)
O62_8 O 0.8273(2) 0.60983(18) 0.6829(2)
O64_10 O 0.94483(16) 0.48786(17) 0.69700(18)
P4_15 P 0.79096(13) 0.20904(13) 0.20904(13)
P4_16 P 0.79096(13) 0.79096(13) 0.79096(13)
O75_25 O 0.6470(2) 0.72514(17) 0.08682(17)
O75_26 O 0.3530(2) 0.72514(17) 0.91318(17)
O75_27 O 0.6470(2) 0.27486(17) 0.91318(17)
O75_28 O 0.3530(2) 0.27486(17) 0.08682(17)
O75_29 O 0.1470(2) 0.58682(17) 0.22514(17)
O112_9 O 0.13605(18) 0.42198(17) 0.21653(16)
O113_9 O 0.86395(18) 0.57802(17) 0.21653(16)
O75_30 O 0.8530(2) 0.41318(17) 0.22514(17)
O75_31 O 0.1470(2) 0.41318(17) 0.77486(17)
O112_10 O 0.13605(18) 0.57802(17) 0.78347(16)
O113_10 O 0.86395(18) 0.42198(17) 0.78347(16)
O75_32 O 0.8530(2) 0.58682(17) 0.77486(17)
C41_7 C 0.6704(3) 0.3361(3) 0.0332(2)
C42_7 C 0.6822(3) 0.3798(2) 0.0315(2)
H22_7 H 0.6859 0.3956 0.0572
C45_7 C 0.7214(3) 0.4649(2) 0.0214(2)
H24_7 H 0.7396 0.4434 0.0361
H25_7 H 0.7021 0.4780 0.0428
C46_9 C 0.7500 0.5000 -0.0000
C47_7 C 0.6622(3) 0.3135(3) 0.0755(3)
C48_7 C 0.6713(3) 0.6927(3) 0.0869(3)
C49_7 C 0.6736(3) 0.6669(3) 0.0450(2)
C50_7 C 0.6650(3) 0.6875(2) 0.0052(3)
H26_7 H 0.6558 0.7164 0.0045
C53_7 C 0.6881(2) 0.6005(2) 0.0075(2)
C54_7 C 0.6846(3) 0.6233(2) 0.0456(2)
H28_7 H 0.6897 0.6093 0.0720
O34_7 O 0.69700(18) 0.55517(16) 0.01214(17)
C57_7 C 0.8287(3) 0.4131(3) 0.1927(3)
C58_7 C 0.8264(3) 0.4550(2) 0.1669(3)
C59_7 C 0.8350(3) 0.4948(3) 0.1875(2)
H31_7 H 0.8442 0.4955 0.2164
C60_7 C 0.8296(3) 0.5332(2) 0.1639(3)
C61_7 C 0.8178(3) 0.5315(2) 0.1202(2)
H32_7 H 0.8141 0.5572 0.1044
C62_7 C 0.8119(2) 0.4925(2) 0.1005(2)
C63_7 C 0.8154(3) 0.4544(2) 0.1233(2)
H33_7 H 0.8103 0.4280 0.1093
C64_7 C 0.7786(3) 0.5214(2) 0.0351(2)
H34_7 H 0.7604 0.5361 0.0566
H35_7 H 0.7979 0.5428 0.0220
C65_7 C 0.8378(3) 0.5755(3) 0.1865(3)
O39_7 O 0.80300(18) 0.48786(17) 0.05517(16)
C38_7 C 0.6713(3) 0.3073(3) 0.9131(3)
C39_7 C 0.6736(3) 0.3331(3) 0.9550(2)
C40_7 C 0.6650(3) 0.3125(2) 0.9948(3)
H21_7 H 0.6558 0.2836 0.9955
C43_7 C 0.6881(2) 0.3995(2) 0.9925(2)
C44_7 C 0.6846(3) 0.3767(2) 0.9544(2)
H23_7 H 0.6897 0.3907 0.9280
C46_10 C 0.7500 0.5000 1.0000
O29_7 O 0.69700(18) 0.44483(16) 0.98786(17)
C51_7 C 0.6704(3) 0.6639(3) 0.9668(2)
C52_7 C 0.6822(3) 0.6202(2) 0.9685(2)
H27_7 H 0.6859 0.6044 0.9428
C55_7 C 0.7214(3) 0.5351(2) 0.9786(2)
H29_7 H 0.7396 0.5566 0.9639
H30_7 H 0.7021 0.5220 0.9572
C56_7 C 0.6622(3) 0.6865(3) 0.9245(3)
C66_7 C 0.8287(3) 0.5869(3) 0.8073(3)
C67_7 C 0.8264(3) 0.5450(2) 0.8331(3)
C68_7 C 0.8350(3) 0.5052(3) 0.8125(2)
H36_7 H 0.8442 0.5045 0.7836
C69_7 C 0.8296(3) 0.4668(2) 0.8361(3)
C70_7 C 0.8178(3) 0.4685(2) 0.8798(2)
H37_7 H 0.8141 0.4428 0.8956
C71_7 C 0.8119(2) 0.5075(2) 0.8995(2)
C72_7 C 0.8154(3) 0.5456(2) 0.8767(2)
H38_7 H 0.8103 0.5720 0.8907
C73_7 C 0.7786(3) 0.4786(2) 0.9649(2)
H39_7 H 0.7604 0.4639 0.9434
H40_7 H 0.7979 0.4572 0.9780
C74_7 C 0.8378(3) 0.4245(3) 0.8135(3)
O44_7 O 0.80300(18) 0.51214(17) 0.94483(16)
C41_8 C 0.3296(3) 0.6639(3) 0.0332(2)
C42_8 C 0.3178(3) 0.6202(2) 0.0315(2)
H22_8 H 0.3141 0.6044 0.0572
C45_8 C 0.2786(3) 0.5351(2) 0.0214(2)
H24_8 H 0.2604 0.5566 0.0361
H25_8 H 0.2979 0.5220 0.0428
C46_11 C 0.2500 0.5000 -0.0000
C47_8 C 0.3378(3) 0.6865(3) 0.0755(3)
C48_8 C 0.3287(3) 0.3073(3) 0.0869(3)
C49_8 C 0.3264(3) 0.3331(3) 0.0450(2)
C50_8 C 0.3350(3) 0.3125(2) 0.0052(3)
H26_8 H 0.3442 0.2836 0.0045
C53_8 C 0.3119(2) 0.3995(2) 0.0075(2)
C54_8 C 0.3154(3) 0.3767(2) 0.0456(2)
H28_8 H 0.3103 0.3907 0.0720
O34_8 O 0.30300(18) 0.44483(16) 0.01214(17)
C57_8 C 0.1713(3) 0.5869(3) 0.1927(3)
C58_8 C 0.1736(3) 0.5450(2) 0.1669(3)
C59_8 C 0.1650(3) 0.5052(3) 0.1875(2)
H31_8 H 0.1558 0.5045 0.2164
C60_8 C 0.1704(3) 0.4668(2) 0.1639(3)
C61_8 C 0.1822(3) 0.4685(2) 0.1202(2)
H32_8 H 0.1859 0.4428 0.1044
C62_8 C 0.1881(2) 0.5075(2) 0.1005(2)
C63_8 C 0.1846(3) 0.5456(2) 0.1233(2)
H33_8 H 0.1897 0.5720 0.1093
C64_8 C 0.2214(3) 0.4786(2) 0.0351(2)
H34_8 H 0.2396 0.4639 0.0566
H35_8 H 0.2021 0.4572 0.0220
C65_8 C 0.1622(3) 0.4245(3) 0.1865(3)
O39_8 O 0.19700(18) 0.51214(17) 0.05517(16)
C38_8 C 0.3287(3) 0.6927(3) 0.9131(3)
C39_8 C 0.3264(3) 0.6669(3) 0.9550(2)
C40_8 C 0.3350(3) 0.6875(2) 0.9948(3)
H21_8 H 0.3442 0.7164 0.9955
C43_8 C 0.3119(2) 0.6005(2) 0.9925(2)
C44_8 C 0.3154(3) 0.6233(2) 0.9544(2)
H23_8 H 0.3103 0.6093 0.9280
C46_12 C 0.2500 0.5000 1.0000
O29_8 O 0.30300(18) 0.55517(16) 0.98786(17)
C51_8 C 0.3296(3) 0.3361(3) 0.9668(2)
C52_8 C 0.3178(3) 0.3798(2) 0.9685(2)
H27_8 H 0.3141 0.3956 0.9428
C55_8 C 0.2786(3) 0.4649(2) 0.9786(2)
H29_8 H 0.2604 0.4434 0.9639
H30_8 H 0.2979 0.4780 0.9572
C56_8 C 0.3378(3) 0.3135(3) 0.9245(3)
C66_8 C 0.1713(3) 0.4131(3) 0.8073(3)
C67_8 C 0.1736(3) 0.4550(2) 0.8331(3)
C68_8 C 0.1650(3) 0.4948(3) 0.8125(2)
H36_8 H 0.1558 0.4955 0.7836
C69_8 C 0.1704(3) 0.5332(2) 0.8361(3)
C70_8 C 0.1822(3) 0.5315(2) 0.8798(2)
H37_8 H 0.1859 0.5572 0.8956
C71_8 C 0.1881(2) 0.4925(2) 0.8995(2)
C72_8 C 0.1846(3) 0.4544(2) 0.8767(2)
H38_8 H 0.1897 0.4280 0.8907
C73_8 C 0.2214(3) 0.5214(2) 0.9649(2)
H39_8 H 0.2396 0.5361 0.9434
H40_8 H 0.2021 0.5428 0.9780
C74_8 C 0.1622(3) 0.5755(3) 0.8135(3)
O44_8 O 0.19700(18) 0.48786(17) 0.94483(16)
C75_11 C 0.1713(3) 0.0869(3) 0.6927(3)
C76_11 C 0.1736(3) 0.0450(2) 0.6669(3)
C77_11 C 0.1650(3) 0.0052(3) 0.6875(2)
H41_11 H 0.1558 0.0045 0.7164
C80_11 C 0.1881(2) 0.0075(2) 0.6005(2)
C81_11 C 0.1846(3) 0.0456(2) 0.6233(2)
H43_11 H 0.1897 0.0720 0.6093
C83_33 C 0.2500 0.0000 0.5000
O54_11 O 0.19700(18) 0.01214(17) 0.55517(16)
C88_11 C 0.1704(3) 0.0332(2) 0.3361(3)
C89_11 C 0.1822(3) 0.0315(2) 0.3798(2)
H47_11 H 0.1859 0.0572 0.3956
C92_11 C 0.2214(3) 0.0214(2) 0.4649(2)
H49_11 H 0.2396 0.0361 0.4434
H50_11 H 0.2021 0.0428 0.4780
C93_11 C 0.1622(3) 0.0755(3) 0.3135(3)
C103_11 C 0.3287(3) 0.1927(3) 0.4131(3)
C104_11 C 0.3264(3) 0.1669(3) 0.4550(2)
C105_11 C 0.3350(3) 0.1875(2) 0.4948(3)
H56_11 H 0.3442 0.2164 0.4955
C106_11 C 0.3296(3) 0.1639(3) 0.5332(2)
C107_11 C 0.3178(3) 0.1202(2) 0.5315(2)
H57_11 H 0.3141 0.1044 0.5572
C108_11 C 0.3119(2) 0.1005(2) 0.4925(2)
C109_11 C 0.3154(3) 0.1233(2) 0.4544(2)
H58_11 H 0.3103 0.1093 0.4280
C110_11 C 0.2786(3) 0.0351(2) 0.5214(2)
H59_11 H 0.2604 0.0566 0.5361
H60_11 H 0.2979 0.0220 0.5428
C111_11 C 0.3378(3) 0.1865(3) 0.5755(3)
O69_11 O 0.30300(18) 0.05517(16) 0.48786(17)
C78_11 C 0.1704(3) 0.9668(2) 0.6639(3)
C79_11 C 0.1822(3) 0.9685(2) 0.6202(2)
H42_11 H 0.1859 0.9428 0.6044
C82_11 C 0.2214(3) 0.9786(2) 0.5351(2)
H44_11 H 0.2396 0.9639 0.5566
H45_11 H 0.2021 0.9572 0.5220
C83_34 C 0.2500 1.0000 0.5000
C84_11 C 0.1622(3) 0.9245(3) 0.6865(3)
C85_11 C 0.1713(3) 0.9131(3) 0.3073(3)
C86_11 C 0.1736(3) 0.9550(2) 0.3331(3)
C87_11 C 0.1650(3) 0.9948(3) 0.3125(2)
H46_11 H 0.1558 0.9955 0.2836
C90_11 C 0.1881(2) 0.9925(2) 0.3995(2)
C91_11 C 0.1846(3) 0.9544(2) 0.3767(2)
H48_11 H 0.1897 0.9280 0.3907
O59_11 O 0.19700(18) 0.98786(17) 0.44483(16)
C94_11 C 0.3287(3) 0.8073(3) 0.5869(3)
C95_11 C 0.3264(3) 0.8331(3) 0.5450(2)
C96_11 C 0.3350(3) 0.8125(2) 0.5052(3)
H51_11 H 0.3442 0.7836 0.5045
C97_11 C 0.3296(3) 0.8361(3) 0.4668(2)
C98_11 C 0.3178(3) 0.8798(2) 0.4685(2)
H52_11 H 0.3141 0.8956 0.4428
C99_11 C 0.3119(2) 0.8995(2) 0.5075(2)
C100_11 C 0.3154(3) 0.8767(2) 0.5456(2)
H53_11 H 0.3103 0.8907 0.5720
C101_11 C 0.2786(3) 0.9649(2) 0.4786(2)
H54_11 H 0.2604 0.9434 0.4639
H55_11 H 0.2979 0.9780 0.4572
C102_11 C 0.3378(3) 0.8135(3) 0.4245(3)
O64_11 O 0.30300(18) 0.94483(16) 0.51214(17)
C75_12 C 0.8287(3) 0.0869(3) 0.3073(3)
C76_12 C 0.8264(3) 0.0450(2) 0.3331(3)
C77_12 C 0.8350(3) 0.0052(3) 0.3125(2)
H41_12 H 0.8442 0.0045 0.2836
C80_12 C 0.8119(2) 0.0075(2) 0.3995(2)
C81_12 C 0.8154(3) 0.0456(2) 0.3767(2)
H43_12 H 0.8103 0.0720 0.3907
C83_35 C 0.7500 0.0000 0.5000
O54_12 O 0.80300(18) 0.01214(17) 0.44483(16)
C88_12 C 0.8296(3) 0.0332(2) 0.6639(3)
C89_12 C 0.8178(3) 0.0315(2) 0.6202(2)
H47_12 H 0.8141 0.0572 0.6044
C92_12 C 0.7786(3) 0.0214(2) 0.5351(2)
H49_12 H 0.7604 0.0361 0.5566
H50_12 H 0.7979 0.0428 0.5220
C93_12 C 0.8378(3) 0.0755(3) 0.6865(3)
C103_12 C 0.6713(3) 0.1927(3) 0.5869(3)
C104_12 C 0.6736(3) 0.1669(3) 0.5450(2)
C105_12 C 0.6650(3) 0.1875(2) 0.5052(3)
H56_12 H 0.6558 0.2164 0.5045
C106_12 C 0.6704(3) 0.1639(3) 0.4668(2)
C107_12 C 0.6822(3) 0.1202(2) 0.4685(2)
H57_12 H 0.6859 0.1044 0.4428
C108_12 C 0.6881(2) 0.1005(2) 0.5075(2)
C109_12 C 0.6846(3) 0.1233(2) 0.5456(2)
H58_12 H 0.6897 0.1093 0.5720
C110_12 C 0.7214(3) 0.0351(2) 0.4786(2)
H59_12 H 0.7396 0.0566 0.4639
H60_12 H 0.7021 0.0220 0.4572
C111_12 C 0.6622(3) 0.1865(3) 0.4245(3)
O69_12 O 0.69700(18) 0.05517(16) 0.51214(17)
C78_12 C 0.8296(3) 0.9668(2) 0.3361(3)
C79_12 C 0.8178(3) 0.9685(2) 0.3798(2)
H42_12 H 0.8141 0.9428 0.3956
C82_12 C 0.7786(3) 0.9786(2) 0.4649(2)
H44_12 H 0.7604 0.9639 0.4434
H45_12 H 0.7979 0.9572 0.4780
C83_36 C 0.7500 1.0000 0.5000
C84_12 C 0.8378(3) 0.9245(3) 0.3135(3)
C85_12 C 0.8287(3) 0.9131(3) 0.6927(3)
C86_12 C 0.8264(3) 0.9550(2) 0.6669(3)
C87_12 C 0.8350(3) 0.9948(3) 0.6875(2)
H46_12 H 0.8442 0.9955 0.7164
C90_12 C 0.8119(2) 0.9925(2) 0.6005(2)
C91_12 C 0.8154(3) 0.9544(2) 0.6233(2)
H48_12 H 0.8103 0.9280 0.6093
O59_12 O 0.80300(18) 0.98786(17) 0.55517(16)
C94_12 C 0.6713(3) 0.8073(3) 0.4131(3)
C95_12 C 0.6736(3) 0.8331(3) 0.4550(2)
C96_12 C 0.6650(3) 0.8125(2) 0.4948(3)
H51_12 H 0.6558 0.7836 0.4955
C97_12 C 0.6704(3) 0.8361(3) 0.5332(2)
C98_12 C 0.6822(3) 0.8798(2) 0.5315(2)
H52_12 H 0.6859 0.8956 0.5572
C99_12 C 0.6881(2) 0.8995(2) 0.4925(2)
C100_12 C 0.6846(3) 0.8767(2) 0.4544(2)
H53_12 H 0.6897 0.8907 0.4280
C101_12 C 0.7214(3) 0.9649(2) 0.5214(2)
H54_12 H 0.7396 0.9434 0.5361
H55_12 H 0.7021 0.9780 0.5428
C102_12 C 0.6622(3) 0.8135(3) 0.5755(3)
O64_12 O 0.69700(18) 0.94483(16) 0.48786(17)
loop_
_geom_bond_atom_site_label_1
_geom_bond_atom_site_label_2
_geom_bond_site_symmetry_1
_geom_bond_site_symmetry_2
C1 C2 1_555 1_555
C2 C3 1_555 1_555
C3 H1 1_555 1_555
C4 C3 1_555 1_555
C5 C4 1_555 1_555
H2 C5 1_555 1_555
C6 C5 1_555 1_555
C7 C2 1_555 1_555
H3 C7 1_555 1_555
C8 H4 1_555 1_555
H5 C8 1_555 1_555
C9 C8 1_555 1_555
C10 C4 1_555 1_555
O1 C1 1_555 1_555
O2 C1 1_555 1_555
O3 Zn1 1_555 1_555
O4 C10 1_555 1_555
O5 C10 1_555 1_555
O6 C6 1_555 1_555
Zn1 O1 1_555 1_555
Zn2 O2 1_555 1_555
P1 O3 1_555 1_555
C11 C12 1_555 1_555
C12 C13 1_555 1_555
C13 H6 1_555 1_555
C14 C13 1_555 1_555
C15 C14 1_555 1_555
H7 C15 1_555 1_555
C16 C15 1_555 1_555
C17 C12 1_555 1_555
H8 C17 1_555 1_555
C18 C9 1_555 1_555
H9 C18 1_555 1_555
H10 C18 1_555 1_555
C19 C14 1_555 1_555
O7 C11 1_555 1_555
O8 C11 1_555 1_555
O9 C19 1_555 1_555
O10 C19 1_555 1_555
O11 C16 1_555 1_555
C20 C21 1_555 1_555
C21 C22 1_555 1_555
C22 H11 1_555 1_555
C23 C22 1_555 1_555
C24 C23 1_555 1_555
H12 C24 1_555 1_555
C25 C24 1_555 1_555
C26 C21 1_555 1_555
H13 C26 1_555 1_555
C27 C9 1_555 1_555
H14 C27 1_555 1_555
H15 C27 1_555 1_555
C28 C23 1_555 1_555
O12 C20 1_555 1_555
O13 C20 1_555 1_555
O14 C28 1_555 1_555
O15 C28 1_555 1_555
O16 C25 1_555 1_555
C29 C30 1_555 1_555
C30 C31 1_555 1_555
C31 H16 1_555 1_555
C32 C31 1_555 1_555
C33 C32 1_555 1_555
H17 C33 1_555 1_555
C34 C33 1_555 1_555
C35 C30 1_555 1_555
H18 C35 1_555 1_555
C36 C9 1_555 1_555
H19 C36 1_555 1_555
H20 C36 1_555 1_555
C37 C32 1_555 1_555
O17 C29 1_555 1_555
O18 C29 1_555 1_555
O19 C37 1_555 1_555
O20 C37 1_555 1_555
O21 C34 1_555 1_555
O22 P1 1_555 1_555
O23 P1 1_555 1_555
Zn3 O7 1_555 1_555
Zn4 O8 1_555 1_555
C38 C39 1_555 1_555
C39 C40 1_555 1_555
C40 H21 1_555 1_555
C41 C40 1_555 1_555
C42 C41 1_555 1_555
H22 C42 1_555 1_555
C43 C42 1_555 1_555
C44 C39 1_555 1_555
H23 C44 1_555 1_555
C45 H24 1_555 1_555
H25 C45 1_555 1_555
C46 C45 1_555 1_555
C47 C41 1_555 1_555
O24 C38 1_555 1_555
O25 C38 1_555 1_555
O26 Zn5 1_555 1_555
O27 C47 1_555 1_555
O28 C47 1_555 1_555
O29 C43 1_555 1_555
Zn5 O24 1_555 1_555
Zn6 O23 1_555 1_555
P2 O26 1_555 1_555
C48 C49 1_555 1_555
C49 C50 1_555 1_555
C50 H26 1_555 1_555
C51 C50 1_555 1_555
C52 C51 1_555 1_555
H27 C52 1_555 1_555
C53 C52 1_555 1_555
C54 C49 1_555 1_555
H28 C54 1_555 1_555
C55 C46 1_555 1_555
H29 C55 1_555 1_555
H30 C55 1_555 1_555
C56 C51 1_555 1_555
O30 C48 1_555 1_555
O31 C48 1_555 1_555
O32 C56 1_555 1_555
O33 C56 1_555 1_555
O34 C53 1_555 1_555
C57 C58 1_555 1_555
C58 C59 1_555 1_555
C59 H31 1_555 1_555
C60 C59 1_555 1_555
C61 C60 1_555 1_555
H32 C61 1_555 1_555
C62 C61 1_555 1_555
C63 C58 1_555 1_555
H33 C63 1_555 1_555
C64 C46 1_555 1_555
H34 C64 1_555 1_555
H35 C64 1_555 1_555
C65 C60 1_555 1_555
O35 C57 1_555 1_555
O36 C57 1_555 1_555
O37 C65 1_555 1_555
O38 C65 1_555 1_555
O39 C62 1_555 1_555
C66 C67 1_555 1_555
C67 C68 1_555 1_555
C68 H36 1_555 1_555
C69 C68 1_555 1_555
C70 C69 1_555 1_555
H37 C70 1_555 1_555
C71 C70 1_555 1_555
C72 C67 1_555 1_555
H38 C72 1_555 1_555
C73 C46 1_555 1_555
H39 C73 1_555 1_555
H40 C73 1_555 1_555
C74 C69 1_555 1_555
O40 C66 1_555 1_555
O41 C66 1_555 1_555
O42 C74 1_555 1_555
O43 C74 1_555 1_555
O44 C71 1_555 1_555
O45 P2 1_555 1_555
O46 P2 1_555 1_555
Zn7 O30 1_555 1_555
O47 Zn8 1_555 1_555
Zn8 O73 1_555 1_555
Zn9 O46 1_555 1_555
P3 O47 1_555 1_555
O48 P3 1_555 1_555
O49 Zn2 1_555 1_555
C75 C76 1_555 1_555
C76 C77 1_555 1_555
C77 H41 1_555 1_555
C81 C76 1_555 1_555
H43 C81 1_555 1_555
O50 C75 1_555 1_555
O51 C75 1_555 1_555
O54 C80 1_555 1_555
Zn10 O5 1_555 1_555
C107 C106 1_555 1_555
H57 C107 1_555 1_555
C110 C83 1_555 1_555
H59 C110 1_555 1_555
H60 C110 1_555 1_555
C111 C106 1_555 1_555
O67 C111 1_555 1_555
O68 C111 1_555 1_555
O70 Zn12 1_555 1_555
Zn12 O4 1_555 1_555
P4 O70 1_555 1_555
O71 P4 1_555 1_555
O72 Zn10 1_555 1_555
Zn13 O9 1_555 1_555
Zn14 O10 1_555 1_555
Zn15 O12 1_555 1_555
Zn16 O14 1_555 1_555
O74 Zn14 1_555 1_555
O75 Zn16 1_555 1_555
O76 Zn13 1_555 1_555
O77 Zn9 1_555 1_555
O78 Zn9 1_555 1_555
O79 Zn4 1_555 1_555
O80 Zn2 1_555 1_555
O81 Zn6 1_555 1_555
O82 Zn4 1_555 1_555
O83 Zn2 1_555 1_555
O84 Zn9 1_555 1_555
O85 Zn6 1_555 1_555
O86 Zn3 1_555 1_555
O87 Zn7 1_555 1_555
O89 Zn14 1_555 1_555
O90 Zn4 1_555 1_555
O91 Zn2 1_555 1_555
O92 Zn13 1_555 1_555
O93 Zn6 1_555 1_555
O94 Zn4 1_555 1_555
O95 Zn9 1_555 1_555
O96 Zn15 1_555 1_555
O97 Zn15 1_555 1_555
O98 Zn5 1_555 1_555
O99 Zn7 1_555 1_555
O100 Zn14 1_555 1_555
O102 Zn10 1_555 1_555
O103 Zn8 1_555 1_555
O104 Zn1 1_555 1_555
O105 Zn3 1_555 1_555
O107 Zn7 1_555 1_555
O108 Zn5 1_555 1_555
O109 Zn3 1_555 1_555
O110 Zn1 1_555 1_555
O111 Zn8 1_555 1_555
O112 Zn12 1_555 1_555
O113 Zn13 1_555 1_555
O114 Zn16 1_555 1_555
O115 Zn15 1_555 1_555
Zn19 O28 1_555 1_555
Zn20 O33 1_555 1_555
Zn21 O46 1_555 1_555
Zn23 O22 1_555 1_555
Zn25 O38 1_555 1_555
Zn26 O19 1_555 1_555
Zn27 O67 1_555 1_555
Zn29 O35 1_555 1_555
Zn30 O37 1_555 1_555
Zn31 O42 1_555 1_555
Zn32 O49 1_555 1_555
Zn33 O45 1_555 1_555
Zn36 O71 1_555 1_555
Zn37 O32 1_555 1_555
Zn38 O27 1_555 1_555
Zn39 O68 1_555 1_555
Zn41 O48 1_555 1_555
Zn42 O15 1_555 1_555
Zn43 O20 1_555 1_555
Zn44 O23 1_555 1_555
Zn45 O17 1_555 1_555
Zn46 O31 1_555 1_555
Zn48 O51 1_555 1_555
Zn49 O71 1_555 1_555
Zn51 O22 1_555 1_555
Zn53 O18 1_555 1_555
Zn54 O36 1_555 1_555
Zn55 O13 1_555 1_555
C6 C7 1_555 1_555
C8 O6 1_555 1_555
O3 Zn2 1_555 1_555
C16 C17 1_555 1_555
C18 O11 1_555 1_555
C25 C26 1_555 1_555
C27 O16 1_555 1_555
C34 C35 1_555 1_555
C36 O21 1_555 1_555
Zn4 O86 1_555 1_555
C43 C44 1_555 1_555
C45 O29 1_555 1_555
O25 Zn6 1_555 1_555
O26 Zn6 1_555 1_555
C53 C54 1_555 1_555
C55 O34 1_555 1_555
C62 C63 1_555 1_555
C64 O39 1_555 1_555
C71 C72 1_555 1_555
C73 O44 1_555 1_555
O40 Zn12 1_555 1_555
O41 Zn55 1_555 1_555
O43 Zn26 1_555 1_555
O45 Zn51 1_555 1_555
O47 Zn9 1_555 1_555
P3 O49 1_555 1_555
O48 Zn51 1_555 1_555
C80 C81 1_555 1_555
O50 Zn10 1_555 1_555
O70 Zn55 1_555 1_555
P4 O72 1_555 1_555
O72 Zn48 1_555 1_555
Zn16 O90 1_555 1_555
O87 Zn46 1_555 1_555
O91 Zn26 1_555 1_555
O92 Zn53 1_555 1_555
O93 Zn31 1_555 1_555
O95 Zn43 1_555 1_555
O96 Zn55 1_555 1_555
C79 C78 1_555 1_555
H42 C79 1_555 1_555
C82 H44 1_555 1_555
H45 C82 1_555 1_555
C83_2 C82 1_555 1_555
C84 C78 1_555 1_555
O52 C84 1_555 1_555
O53 C84 1_555 1_555
C94 C95 1_555 1_555
C95 C96 1_555 1_555
C96 H51 1_555 1_555
C100 C95 1_555 1_555
H53 C100 1_555 1_555
O60 C94 1_555 1_555
O61 C94 1_555 1_555
O64 C99 1_555 1_555
Zn18 O53 1_555 1_555
Zn22 O52 1_555 1_555
Zn35 O60 1_555 1_555
Zn50 O61 1_555 1_555
C99 C100 1_555 1_555
C89 C88 1_555 1_555
H47 C89 1_555 1_555
C92 C83_3 1_555 1_555
H49 C92 1_555 1_555
H50 C92 1_555 1_555
C93 C88 1_555 1_555
O57 C93 1_555 1_555
O109 C93 1_555 1_555
C103 C104 1_555 1_555
C104 C105 1_555 1_555
C105 H56 1_555 1_555
C109 C104 1_555 1_555
H58 C109 1_555 1_555
O65 C103 1_555 1_555
O66 C103 1_555 1_555
O69 C108 1_555 1_555
Zn24 O57 1_555 1_555
Zn34 O65 1_555 1_555
Zn52 O66 1_555 1_555
C108 C109 1_555 1_555
C85 C86 1_555 1_555
C86 C87 1_555 1_555
C87 H46 1_555 1_555
C91 C86 1_555 1_555
H48 C91 1_555 1_555
O55 C85 1_555 1_555
O56 C85 1_555 1_555
O59 C90 1_555 1_555
C98 C97 1_555 1_555
H52 C98 1_555 1_555
C101 C83_4 1_555 1_555
H54 C101 1_555 1_555
H55 C101 1_555 1_555
C102 C97 1_555 1_555
O62 C102 1_555 1_555
O63 C102 1_555 1_555
Zn11 O55 1_555 1_555
O88 Zn11 1_555 1_555
O101 Zn11 1_555 1_555
O106 Zn11 1_555 1_555
Zn28 O62 1_555 1_555
Zn40 O63 1_555 1_555
Zn47 O56 1_555 1_555
C90 C91 1_555 1_555
O88 Zn47 1_555 1_555
C89_2 C88_2 1_555 1_555
H47_2 C89_2 1_555 1_555
C92_2 C83_5 1_555 1_555
H49_2 C92_2 1_555 1_555
H50_2 C92_2 1_555 1_555
C93_2 C88_2 1_555 1_555
O57_2 C93_2 1_555 1_555
O110 C93_2 1_555 1_555
C103_2 C104_2 1_555 1_555
C104_2 C105_2 1_555 1_555
C105_2 H56_2 1_555 1_555
C109_2 C104_2 1_555 1_555
H58_2 C109_2 1_555 1_555
O65_2 C103_2 1_555 1_555
O66_2 C103_2 1_555 1_555
O69_2 C108_2 1_555 1_555
Zn23 O57_2 1_555 1_555
Zn33 O65_2 1_555 1_555
Zn51 O66_2 1_555 1_555
C108_2 C109_2 1_555 1_555
C85_2 C86_2 1_555 1_555
C86_2 C87_2 1_555 1_555
C87_2 H46_2 1_555 1_555
C91_2 C86_2 1_555 1_555
H48_2 C91_2 1_555 1_555
O55_2 C85_2 1_555 1_555
O56_2 C85_2 1_555 1_555
O59_2 C90_2 1_555 1_555
C98_2 C97_2 1_555 1_555
H52_2 C98_2 1_555 1_555
C101_2 C83_6 1_555 1_555
H54_2 C101_2 1_555 1_555
H55_2 C101_2 1_555 1_555
C102_2 C97_2 1_555 1_555
O62_2 C102_2 1_555 1_555
O63_2 C102_2 1_555 1_555
Zn11_2 O55_2 1_555 1_555
O88_2 Zn11_2 1_555 1_555
O101_2 Zn11_2 1_555 1_555
O106_2 Zn11_2 1_555 1_555
Zn28_2 O62_2 1_555 1_555
Zn40_2 O63_2 1_555 1_555
Zn47_2 O56_2 1_555 1_555
C90_2 C91_2 1_555 1_555
O88_2 Zn47_2 1_555 1_555
P1_2 O86 1_555 1_555
O22_2 P1_2 1_555 1_555
O23_2 P1_2 1_555 1_555
C38_2 C39_2 1_555 1_555
C39_2 C40_2 1_555 1_555
C40_2 H21_2 1_555 1_555
C41_2 C40_2 1_555 1_555
C42_2 C41_2 1_555 1_555
H22_2 C42_2 1_555 1_555
C43_2 C42_2 1_555 1_555
C44_2 C39_2 1_555 1_555
H23_2 C44_2 1_555 1_555
C45_2 H24_2 1_555 1_555
H25_2 C45_2 1_555 1_555
C46_2 C45_2 1_555 1_555
C47_2 C41_2 1_555 1_555
O24_2 C38_2 1_555 1_555
O25_2 C38_2 1_555 1_555
O26_2 Zn5_2 1_555 1_555
O27_2 C47_2 1_555 1_555
O28_2 C47_2 1_555 1_555
O29_2 C43_2 1_555 1_555
Zn5_2 O24_2 1_555 1_555
Zn6_2 O23_2 1_555 1_555
P2_2 O26_2 1_555 1_555
C48_2 C49_2 1_555 1_555
C49_2 C50_2 1_555 1_555
C50_2 H26_2 1_555 1_555
C51_2 C50_2 1_555 1_555
C52_2 C51_2 1_555 1_555
H27_2 C52_2 1_555 1_555
C53_2 C52_2 1_555 1_555
C54_2 C49_2 1_555 1_555
H28_2 C54_2 1_555 1_555
C55_2 C46_2 1_555 1_555
H29_2 C55_2 1_555 1_555
H30_2 C55_2 1_555 1_555
C56_2 C51_2 1_555 1_555
O30_2 C48_2 1_555 1_555
O31_2 C48_2 1_555 1_555
O32_2 C56_2 1_555 1_555
O33_2 C56_2 1_555 1_555
O34_2 C53_2 1_555 1_555
C57_2 C58_2 1_555 1_555
C58_2 C59_2 1_555 1_555
C59_2 H31_2 1_555 1_555
C60_2 C59_2 1_555 1_555
C61_2 C60_2 1_555 1_555
H32_2 C61_2 1_555 1_555
C62_2 C61_2 1_555 1_555
C63_2 C58_2 1_555 1_555
H33_2 C63_2 1_555 1_555
C64_2 C46_2 1_555 1_555
H34_2 C64_2 1_555 1_555
H35_2 C64_2 1_555 1_555
C65_2 C60_2 1_555 1_555
O35_2 C57_2 1_555 1_555
O36_2 C57_2 1_555 1_555
O37_2 C65_2 1_555 1_555
O38_2 C65_2 1_555 1_555
O39_2 C62_2 1_555 1_555
C66_2 C67_2 1_555 1_555
C67_2 C68_2 1_555 1_555
C68_2 H36_2 1_555 1_555
C69_2 C68_2 1_555 1_555
C70_2 C69_2 1_555 1_555
H37_2 C70_2 1_555 1_555
C71_2 C70_2 1_555 1_555
C72_2 C67_2 1_555 1_555
H38_2 C72_2 1_555 1_555
C73_2 C46_2 1_555 1_555
H39_2 C73_2 1_555 1_555
H40_2 C73_2 1_555 1_555
C74_2 C69_2 1_555 1_555
O76 C66_2 1_555 1_555
O41_2 C66_2 1_555 1_555
O42_2 C74_2 1_555 1_555
O114 C74_2 1_555 1_555
O44_2 C71_2 1_555 1_555
O45_2 P2_2 1_555 1_555
O46_2 P2_2 1_555 1_555
Zn7_2 O30_2 1_555 1_555
O47_2 Zn8_2 1_555 1_555
Zn8_2 O73_2 1_555 1_555
Zn9_2 O46_2 1_555 1_555
P3_2 O47_2 1_555 1_555
O48_2 P3_2 1_555 1_555
C75_2 C76_2 1_555 1_555
C76_2 C77_2 1_555 1_555
C77_2 H41_2 1_555 1_555
C81_2 C76_2 1_555 1_555
H43_2 C81_2 1_555 1_555
O74 C75_2 1_555 1_555
O51_2 C75_2 1_555 1_555
O54_2 C80_2 1_555 1_555
C107_2 C106_2 1_555 1_555
H57_2 C107_2 1_555 1_555
C110_2 C83_7 1_555 1_555
H59_2 C110_2 1_555 1_555
H60_2 C110_2 1_555 1_555
C111_2 C106_2 1_555 1_555
O67_2 C111_2 1_555 1_555
O68_2 C111_2 1_555 1_555
P4_2 O92 1_555 1_555
O71_2 P4_2 1_555 1_555
O75_2 Zn26 1_555 1_555
O77_2 Zn9_2 1_555 1_555
O78_2 Zn9_2 1_555 1_555
O81_2 Zn6_2 1_555 1_555
O84_2 Zn9_2 1_555 1_555
O85_2 Zn6_2 1_555 1_555
O87_2 Zn7_2 1_555 1_555
O93_2 Zn6_2 1_555 1_555
O95_2 Zn9_2 1_555 1_555
O96_2 Zn45 1_555 1_555
O97_2 Zn45 1_555 1_555
O98_2 Zn5_2 1_555 1_555
O99_2 Zn7_2 1_555 1_555
O103_2 Zn8_2 1_555 1_555
O107_2 Zn7_2 1_555 1_555
O108_2 Zn5_2 1_555 1_555
O111_2 Zn8_2 1_555 1_555
O115_2 Zn45 1_555 1_555
Zn19_2 O28_2 1_555 1_555
Zn20_2 O33_2 1_555 1_555
Zn21_2 O46_2 1_555 1_555
Zn24 O22_2 1_555 1_555
Zn25_2 O38_2 1_555 1_555
Zn27_2 O67_2 1_555 1_555
Zn29_2 O35_2 1_555 1_555
Zn30_2 O37_2 1_555 1_555
Zn31_2 O42_2 1_555 1_555
Zn32_2 O94 1_555 1_555
Zn34 O45_2 1_555 1_555
Zn36_2 O71_2 1_555 1_555
Zn37_2 O32_2 1_555 1_555
Zn38_2 O27_2 1_555 1_555
Zn39_2 O68_2 1_555 1_555
Zn41_2 O48_2 1_555 1_555
Zn44_2 O23_2 1_555 1_555
Zn46_2 O31_2 1_555 1_555
Zn48_2 O51_2 1_555 1_555
Zn49_2 O71_2 1_555 1_555
Zn52 O22_2 1_555 1_555
Zn54_2 O36_2 1_555 1_555
C43_2 C44_2 1_555 1_555
C45_2 O29_2 1_555 1_555
O25_2 Zn6_2 1_555 1_555
O26_2 Zn6_2 1_555 1_555
C53_2 C54_2 1_555 1_555
C55_2 O34_2 1_555 1_555
C62_2 C63_2 1_555 1_555
C64_2 O39_2 1_555 1_555
C71_2 C72_2 1_555 1_555
C73_2 O44_2 1_555 1_555
O41_2 Zn53 1_555 1_555
O45_2 Zn52 1_555 1_555
O47_2 Zn9_2 1_555 1_555
P3_2 O94 1_555 1_555
O48_2 Zn52 1_555 1_555
C80_2 C81_2 1_555 1_555
P4_2 O89 1_555 1_555
O89 Zn48_2 1_555 1_555
O87_2 Zn46_2 1_555 1_555
O93_2 Zn31_2 1_555 1_555
O95_2 Zn42 1_555 1_555
O96_2 Zn53 1_555 1_555
C79_2 C78_2 1_555 1_555
H42_2 C79_2 1_555 1_555
C82_2 H44_2 1_555 1_555
H45_2 C82_2 1_555 1_555
C83_8 C82_2 1_555 1_555
C84_2 C78_2 1_555 1_555
O52_2 C84_2 1_555 1_555
O53_2 C84_2 1_555 1_555
C94_2 C95_2 1_555 1_555
C95_2 C96_2 1_555 1_555
C96_2 H51_2 1_555 1_555
C100_2 C95_2 1_555 1_555
H53_2 C100_2 1_555 1_555
O60_2 C94_2 1_555 1_555
O61_2 C94_2 1_555 1_555
O64_2 C99_2 1_555 1_555
Zn18_2 O53_2 1_555 1_555
Zn22_2 O52_2 1_555 1_555
Zn35_2 O60_2 1_555 1_555
Zn50_2 O61_2 1_555 1_555
C99_2 C100_2 1_555 1_555
C1_2 C2_2 1_555 1_555
C2_2 C3_2 1_555 1_555
C3_2 H1_2 1_555 1_555
C4_2 C3_2 1_555 1_555
C5_2 C4_2 1_555 1_555
H2_2 C5_2 1_555 1_555
C6_2 C5_2 1_555 1_555
C7_2 C2_2 1_555 1_555
H3_2 C7_2 1_555 1_555
C8_2 H4_2 1_555 1_555
H5_2 C8_2 1_555 1_555
C9_2 C8_2 1_555 1_555
C10_2 C4_2 1_555 1_555
O1_2 C1_2 1_555 1_555
O2_2 C1_2 1_555 1_555
O3_2 Zn18_2 1_555 1_555
O4_2 C10_2 1_555 1_555
O106 C10_2 1_555 1_555
O6_2 C6_2 1_555 1_555
Zn18_2 O1_2 1_555 1_555
Zn2_2 O2_2 1_555 1_555
P1_3 O3_2 1_555 1_555
C11_2 C12_2 1_555 1_555
C12_2 C13_2 1_555 1_555
C13_2 H6_2 1_555 1_555
C14_2 C13_2 1_555 1_555
C15_2 C14_2 1_555 1_555
H7_2 C15_2 1_555 1_555
C16_2 C15_2 1_555 1_555
C17_2 C12_2 1_555 1_555
H8_2 C17_2 1_555 1_555
C18_2 C9_2 1_555 1_555
H9_2 C18_2 1_555 1_555
H10_2 C18_2 1_555 1_555
C19_2 C14_2 1_555 1_555
O7_2 C11_2 1_555 1_555
O8_2 C11_2 1_555 1_555
O9_2 C19_2 1_555 1_555
O106_2 C19_2 1_555 1_555
O11_2 C16_2 1_555 1_555
C20_2 C21_2 1_555 1_555
C21_2 C22_2 1_555 1_555
C22_2 H11_2 1_555 1_555
C23_2 C22_2 1_555 1_555
C24_2 C23_2 1_555 1_555
H12_2 C24_2 1_555 1_555
C25_2 C24_2 1_555 1_555
C26_2 C21_2 1_555 1_555
H13_2 C26_2 1_555 1_555
C27_2 C9_2 1_555 1_555
H14_2 C27_2 1_555 1_555
H15_2 C27_2 1_555 1_555
C28_2 C23_2 1_555 1_555
O12_2 C20_2 1_555 1_555
O13_2 C20_2 1_555 1_555
O14_2 C28_2 1_555 1_555
O15_2 C28_2 1_555 1_555
O16_2 C25_2 1_555 1_555
C29_2 C30_2 1_555 1_555
C30_2 C31_2 1_555 1_555
C31_2 H16_2 1_555 1_555
C32_2 C31_2 1_555 1_555
C33_2 C32_2 1_555 1_555
H17_2 C33_2 1_555 1_555
C34_2 C33_2 1_555 1_555
C35_2 C30_2 1_555 1_555
H18_2 C35_2 1_555 1_555
C36_2 C9_2 1_555 1_555
H19_2 C36_2 1_555 1_555
H20_2 C36_2 1_555 1_555
C37_2 C32_2 1_555 1_555
O17_2 C29_2 1_555 1_555
O18_2 C29_2 1_555 1_555
O19_2 C37_2 1_555 1_555
O20_2 C37_2 1_555 1_555
O21_2 C34_2 1_555 1_555
O22_3 P1_3 1_555 1_555
O23_3 P1_3 1_555 1_555
Zn18 O7_2 1_555 1_555
Zn4_2 O8_2 1_555 1_555
Zn46_2 O23_3 1_555 1_555
P2_3 O87_2 1_555 1_555
O45_3 P2_3 1_555 1_555
O46_3 P2_3 1_555 1_555
O47_3 Zn8_3 1_555 1_555
Zn8_3 O73_3 1_555 1_555
Zn9_3 O46_3 1_555 1_555
P3_3 O47_3 1_555 1_555
O48_3 P3_3 1_555 1_555
O49_2 Zn2_2 1_555 1_555
O70_2 Zn29_2 1_555 1_555
Zn29_2 O4_2 1_555 1_555
P4_3 O70_2 1_555 1_555
O71_3 P4_3 1_555 1_555
Zn29 O9_2 1_555 1_555
Zn15_2 O12_2 1_555 1_555
Zn25 O14_2 1_555 1_555
O75_3 Zn25 1_555 1_555
O77_3 Zn9_3 1_555 1_555
O78_3 Zn9_3 1_555 1_555
O79_2 Zn4_2 1_555 1_555
O80_2 Zn2_2 1_555 1_555
O81_3 Zn46_2 1_555 1_555
O82_2 Zn4_2 1_555 1_555
O83_2 Zn2_2 1_555 1_555
O84_3 Zn9_3 1_555 1_555
O85_3 Zn46_2 1_555 1_555
O86_2 Zn18 1_555 1_555
O90_2 Zn4_2 1_555 1_555
O91_2 Zn2_2 1_555 1_555
O92_2 Zn29 1_555 1_555
O93_3 Zn46_2 1_555 1_555
O94_2 Zn4_2 1_555 1_555
O95_3 Zn9_3 1_555 1_555
O96_3 Zn15_2 1_555 1_555
O97_3 Zn15_2 1_555 1_555
O103_3 Zn8_3 1_555 1_555
O104_2 Zn18_2 1_555 1_555
O105_2 Zn18 1_555 1_555
O111_3 Zn8_3 1_555 1_555
O112_2 Zn29_2 1_555 1_555
O113_2 Zn29 1_555 1_555
O115_3 Zn15_2 1_555 1_555
Zn21_3 O46_3 1_555 1_555
Zn22_2 O22_3 1_555 1_555
Zn25_2 O19_2 1_555 1_555
Zn32_3 O49_2 1_555 1_555
Zn35_2 O45_3 1_555 1_555
Zn36_3 O71_3 1_555 1_555
Zn41_3 O48_3 1_555 1_555
Zn42_2 O15_2 1_555 1_555
Zn43_2 O20_2 1_555 1_555
Zn44_3 O23_3 1_555 1_555
Zn45_2 O17_2 1_555 1_555
Zn49_3 O71_3 1_555 1_555
Zn50_2 O22_3 1_555 1_555
Zn54 O18_2 1_555 1_555
Zn54_2 O13_2 1_555 1_555
C6_2 C7_2 1_555 1_555
C8_2 O6_2 1_555 1_555
O3_2 Zn2_2 1_555 1_555
C16_2 C17_2 1_555 1_555
C18_2 O11_2 1_555 1_555
C25_2 C26_2 1_555 1_555
C27_2 O16_2 1_555 1_555
C34_2 C35_2 1_555 1_555
C36_2 O21_2 1_555 1_555
Zn4_2 O86_2 1_555 1_555
O45_3 Zn50_2 1_555 1_555
O47_3 Zn9_3 1_555 1_555
P3_3 O49_2 1_555 1_555
O48_3 Zn50_2 1_555 1_555
O70_2 Zn54_2 1_555 1_555
P4_3 O88 1_555 1_555
Zn25 O90_2 1_555 1_555
O91_2 Zn25_2 1_555 1_555
O92_2 Zn54 1_555 1_555
O93_3 Zn30_2 1_555 1_555
O95_3 Zn43_2 1_555 1_555
O96_3 Zn54_2 1_555 1_555
P1_4 O86_2 1_555 1_555
O22_4 P1_4 1_555 1_555
O23_4 P1_4 1_555 1_555
Zn46 O23_4 1_555 1_555
P2_4 O87 1_555 1_555
O45_4 P2_4 1_555 1_555
O46_4 P2_4 1_555 1_555
O47_4 Zn8_4 1_555 1_555
Zn8_4 O73_4 1_555 1_555
Zn9_4 O46_4 1_555 1_555
P3_4 O47_4 1_555 1_555
O48_4 P3_4 1_555 1_555
P4_4 O92_2 1_555 1_555
O71_4 P4_4 1_555 1_555
O75_4 Zn25_2 1_555 1_555
O77_4 Zn9_4 1_555 1_555
O78_4 Zn9_4 1_555 1_555
O81_4 Zn46 1_555 1_555
O84_4 Zn9_4 1_555 1_555
O85_4 Zn46 1_555 1_555
O93_4 Zn46 1_555 1_555
O95_4 Zn9_4 1_555 1_555
O96_4 Zn45_2 1_555 1_555
O97_4 Zn45_2 1_555 1_555
O103_4 Zn8_4 1_555 1_555
O111_4 Zn8_4 1_555 1_555
O115_4 Zn45_2 1_555 1_555
Zn21_4 O46_4 1_555 1_555
Zn22 O22_4 1_555 1_555
Zn32_4 O94_2 1_555 1_555
Zn35 O45_4 1_555 1_555
Zn36_4 O71_4 1_555 1_555
Zn41_4 O48_4 1_555 1_555
Zn44_4 O23_4 1_555 1_555
Zn49_4 O71_4 1_555 1_555
Zn50 O22_4 1_555 1_555
O45_4 Zn50 1_555 1_555
O47_4 Zn9_4 1_555 1_555
P3_4 O94_2 1_555 1_555
O48_4 Zn50 1_555 1_555
P4_4 O88_2 1_555 1_555
O93_4 Zn30 1_555 1_555
O95_4 Zn42_2 1_555 1_555
O96_4 Zn54 1_555 1_555
C38_3 C39_3 1_555 1_555
C39_3 C40_3 1_555 1_555
C40_3 H21_3 1_555 1_555
C41_3 C40_3 1_555 1_555
C42_3 C41_3 1_555 1_555
H22_3 C42_3 1_555 1_555
C43_3 C42_3 1_555 1_555
C44_3 C39_3 1_555 1_555
H23_3 C44_3 1_555 1_555
C45_3 H24_3 1_555 1_555
H25_3 C45_3 1_555 1_555
C46_3 C45_3 1_555 1_555
C47_3 C41_3 1_555 1_555
O73 C38_3 1_555 1_555
O77 C38_3 1_555 1_555
O97_2 C47_3 1_555 1_555
O28_3 C47_3 1_555 1_555
O29_3 C43_3 1_555 1_555
C48_3 C49_3 1_555 1_555
C49_3 C50_3 1_555 1_555
C50_3 H26_3 1_555 1_555
C51_3 C50_3 1_555 1_555
C52_3 C51_3 1_555 1_555
H27_3 C52_3 1_555 1_555
C53_3 C52_3 1_555 1_555
C54_3 C49_3 1_555 1_555
H28_3 C54_3 1_555 1_555
C55_3 C46_3 1_555 1_555
H29_3 C55_3 1_555 1_555
H30_3 C55_3 1_555 1_555
C56_3 C51_3 1_555 1_555
O73_3 C48_3 1_555 1_555
O77_3 C48_3 1_555 1_555
O97_4 C56_3 1_555 1_555
O33_3 C56_3 1_555 1_555
O34_3 C53_3 1_555 1_555
C57_3 C58_3 1_555 1_555
C58_3 C59_3 1_555 1_555
C59_3 H31_3 1_555 1_555
C60_3 C59_3 1_555 1_555
C61_3 C60_3 1_555 1_555
H32_3 C61_3 1_555 1_555
C62_3 C61_3 1_555 1_555
C63_3 C58_3 1_555 1_555
H33_3 C63_3 1_555 1_555
C64_3 C46_3 1_555 1_555
H34_3 C64_3 1_555 1_555
H35_3 C64_3 1_555 1_555
C65_3 C60_3 1_555 1_555
O35_3 C57_3 1_555 1_555
O36_3 C57_3 1_555 1_555
O37_3 C65_3 1_555 1_555
O38_3 C65_3 1_555 1_555
O39_3 C62_3 1_555 1_555
C66_3 C67_3 1_555 1_555
C67_3 C68_3 1_555 1_555
C68_3 H36_3 1_555 1_555
C69_3 C68_3 1_555 1_555
C70_3 C69_3 1_555 1_555
H37_3 C70_3 1_555 1_555
C71_3 C70_3 1_555 1_555
C72_3 C67_3 1_555 1_555
H38_3 C72_3 1_555 1_555
C73_3 C46_3 1_555 1_555
H39_3 C73_3 1_555 1_555
H40_3 C73_3 1_555 1_555
C74_3 C69_3 1_555 1_555
O40_2 C66_3 1_555 1_555
O41_3 C66_3 1_555 1_555
O42_3 C74_3 1_555 1_555
O43_2 C74_3 1_555 1_555
O44_3 C71_3 1_555 1_555
C75_3 C76_3 1_555 1_555
C76_3 C77_3 1_555 1_555
C77_3 H41_3 1_555 1_555
C81_3 C76_3 1_555 1_555
H43_3 C81_3 1_555 1_555
O50_2 C75_3 1_555 1_555
O51_3 C75_3 1_555 1_555
O54_3 C80_3 1_555 1_555
C107_3 C106_3 1_555 1_555
H57_3 C107_3 1_555 1_555
C110_3 C83_9 1_555 1_555
H59_3 C110_3 1_555 1_555
H60_3 C110_3 1_555 1_555
C111_3 C106_3 1_555 1_555
O67_3 C111_3 1_555 1_555
O68_3 C111_3 1_555 1_555
O70_3 Zn38 1_555 1_555
P4_5 O70_3 1_555 1_555
O71_5 P4_5 1_555 1_555
O72_2 Zn19 1_555 1_555
O74_2 Zn20 1_555 1_555
O75_5 Zn30 1_555 1_555
O76_2 Zn37 1_555 1_555
O89_2 Zn20 1_555 1_555
O92_3 Zn37 1_555 1_555
O100_2 Zn20 1_555 1_555
O102_2 Zn19 1_555 1_555
O112_3 Zn38 1_555 1_555
O113_3 Zn37 1_555 1_555
O114_2 Zn30 1_555 1_555
Zn19_3 O28_3 1_555 1_555
Zn20_3 O33_3 1_555 1_555
Zn30_2 O38_3 1_555 1_555
Zn40_2 O67_3 1_555 1_555
Zn37_2 O35_3 1_555 1_555
Zn43_2 O37_3 1_555 1_555
Zn43 O42_3 1_555 1_555
Zn36_5 O71_5 1_555 1_555
Zn39_3 O68_3 1_555 1_555
Zn48_3 O51_3 1_555 1_555
Zn47_2 O71_5 1_555 1_555
Zn53 O36_3 1_555 1_555
C43_3 C44_3 1_555 1_555
C45_3 O29_3 1_555 1_555
C53_3 C54_3 1_555 1_555
C55_3 O34_3 1_555 1_555
C62_3 C63_3 1_555 1_555
C64_3 O39_3 1_555 1_555
C71_3 C72_3 1_555 1_555
C73_3 O44_3 1_555 1_555
O40_2 Zn38 1_555 1_555
O41_3 Zn54 1_555 1_555
O43_2 Zn31 1_555 1_555
C80_3 C81_3 1_555 1_555
O50_2 Zn19 1_555 1_555
O70_3 Zn54 1_555 1_555
P4_5 O72_2 1_555 1_555
O72_2 Zn48_3 1_555 1_555
O92_3 Zn55 1_555 1_555
C89_3 C88_3 1_555 1_555
H47_3 C89_3 1_555 1_555
C92_3 C83_10 1_555 1_555
H49_3 C92_3 1_555 1_555
H50_3 C92_3 1_555 1_555
C93_3 C88_3 1_555 1_555
O57_3 C93_3 1_555 1_555
O107 C93_3 1_555 1_555
C103_3 C104_3 1_555 1_555
C104_3 C105_3 1_555 1_555
C105_3 H56_3 1_555 1_555
C109_3 C104_3 1_555 1_555
H58_3 C109_3 1_555 1_555
O65_3 C103_3 1_555 1_555
O66_3 C103_3 1_555 1_555
O69_3 C108_3 1_555 1_555
Zn35 O57_3 1_555 1_555
Zn41_4 O65_3 1_555 1_555
Zn50 O66_3 1_555 1_555
C108_3 C109_3 1_555 1_555
C79_3 C78_3 1_555 1_555
H42_3 C79_3 1_555 1_555
C82_3 H44_3 1_555 1_555
H45_3 C82_3 1_555 1_555
C83_11 C82_3 1_555 1_555
C84_3 C78_3 1_555 1_555
O52_3 C84_3 1_555 1_555
O107_2 C84_3 1_555 1_555
C94_3 C95_3 1_555 1_555
C95_3 C96_3 1_555 1_555
C96_3 H51_3 1_555 1_555
C100_3 C95_3 1_555 1_555
H53_3 C100_3 1_555 1_555
O60_3 C94_3 1_555 1_555
O61_3 C94_3 1_555 1_555
O64_3 C99_3 1_555 1_555
Zn35_2 O52_3 1_555 1_555
Zn41_3 O60_3 1_555 1_555
Zn50_2 O61_3 1_555 1_555
C99_3 C100_3 1_555 1_555
C85_3 C86_3 1_555 1_555
C86_3 C87_3 1_555 1_555
C87_3 H46_3 1_555 1_555
C91_3 C86_3 1_555 1_555
H48_3 C91_3 1_555 1_555
O55_3 C85_3 1_555 1_555
O56_3 C85_3 1_555 1_555
O59_3 C90_3 1_555 1_555
C98_3 C97_3 1_555 1_555
H52_3 C98_3 1_555 1_555
C101_3 C83_12 1_555 1_555
H54_3 C101_3 1_555 1_555
H55_3 C101_3 1_555 1_555
C102_3 C97_3 1_555 1_555
O62_3 C102_3 1_555 1_555
O63_3 C102_3 1_555 1_555
Zn19_2 O55_3 1_555 1_555
O88_3 Zn19_2 1_555 1_555
O101_3 Zn19_2 1_555 1_555
Zn40 O62_3 1_555 1_555
Zn40_3 O63_3 1_555 1_555
Zn47_3 O56_3 1_555 1_555
C90_3 C91_3 1_555 1_555
O88_3 Zn47_3 1_555 1_555
C89_4 C88_4 1_555 1_555
H47_4 C89_4 1_555 1_555
C92_4 C83_13 1_555 1_555
H49_4 C92_4 1_555 1_555
H50_4 C92_4 1_555 1_555
C93_4 C88_4 1_555 1_555
O57_4 C93_4 1_555 1_555
O108 C93_4 1_555 1_555
C103_4 C104_4 1_555 1_555
C104_4 C105_4 1_555 1_555
C105_4 H56_4 1_555 1_555
C109_4 C104_4 1_555 1_555
H58_4 C109_4 1_555 1_555
O65_4 C103_4 1_555 1_555
O66_4 C103_4 1_555 1_555
O69_4 C108_4 1_555 1_555
Zn33 O57_4 1_555 1_555
Zn41 O65_4 1_555 1_555
Zn51 O66_4 1_555 1_555
C108_4 C109_4 1_555 1_555
C38_4 C39_4 1_555 1_555
C39_4 C40_4 1_555 1_555
C40_4 H21_4 1_555 1_555
C41_4 C40_4 1_555 1_555
C42_4 C41_4 1_555 1_555
H22_4 C42_4 1_555 1_555
C43_4 C42_4 1_555 1_555
C44_4 C39_4 1_555 1_555
H23_4 C44_4 1_555 1_555
C45_4 H24_4 1_555 1_555
H25_4 C45_4 1_555 1_555
C46_4 C45_4 1_555 1_555
C47_4 C41_4 1_555 1_555
O73_4 C38_4 1_555 1_555
O77_4 C38_4 1_555 1_555
O97_3 C47_4 1_555 1_555
O28_4 C47_4 1_555 1_555
O29_4 C43_4 1_555 1_555
C48_4 C49_4 1_555 1_555
C49_4 C50_4 1_555 1_555
C50_4 H26_4 1_555 1_555
C51_4 C50_4 1_555 1_555
C52_4 C51_4 1_555 1_555
H27_4 C52_4 1_555 1_555
C53_4 C52_4 1_555 1_555
C54_4 C49_4 1_555 1_555
H28_4 C54_4 1_555 1_555
C55_4 C46_4 1_555 1_555
H29_4 C55_4 1_555 1_555
H30_4 C55_4 1_555 1_555
C56_4 C51_4 1_555 1_555
O73_2 C48_4 1_555 1_555
O77_2 C48_4 1_555 1_555
O97 C56_4 1_555 1_555
O33_4 C56_4 1_555 1_555
O34_4 C53_4 1_555 1_555
C57_4 C58_4 1_555 1_555
C58_4 C59_4 1_555 1_555
C59_4 H31_4 1_555 1_555
C60_4 C59_4 1_555 1_555
C61_4 C60_4 1_555 1_555
H32_4 C61_4 1_555 1_555
C62_4 C61_4 1_555 1_555
C63_4 C58_4 1_555 1_555
H33_4 C63_4 1_555 1_555
C64_4 C46_4 1_555 1_555
H34_4 C64_4 1_555 1_555
H35_4 C64_4 1_555 1_555
C65_4 C60_4 1_555 1_555
O35_4 C57_4 1_555 1_555
O36_4 C57_4 1_555 1_555
O37_4 C65_4 1_555 1_555
O38_4 C65_4 1_555 1_555
O39_4 C62_4 1_555 1_555
C66_4 C67_4 1_555 1_555
C67_4 C68_4 1_555 1_555
C68_4 H36_4 1_555 1_555
C69_4 C68_4 1_555 1_555
C70_4 C69_4 1_555 1_555
H37_4 C70_4 1_555 1_555
C71_4 C70_4 1_555 1_555
C72_4 C67_4 1_555 1_555
H38_4 C72_4 1_555 1_555
C73_4 C46_4 1_555 1_555
H39_4 C73_4 1_555 1_555
H40_4 C73_4 1_555 1_555
C74_4 C69_4 1_555 1_555
O76_2 C66_4 1_555 1_555
O41_4 C66_4 1_555 1_555
O42_4 C74_4 1_555 1_555
O114_2 C74_4 1_555 1_555
O44_4 C71_4 1_555 1_555
C75_4 C76_4 1_555 1_555
C76_4 C77_4 1_555 1_555
C77_4 H41_4 1_555 1_555
C81_4 C76_4 1_555 1_555
H43_4 C81_4 1_555 1_555
O74_2 C75_4 1_555 1_555
O51_4 C75_4 1_555 1_555
O54_4 C80_4 1_555 1_555
C107_4 C106_4 1_555 1_555
H57_4 C107_4 1_555 1_555
C110_4 C83_14 1_555 1_555
H59_4 C110_4 1_555 1_555
H60_4 C110_4 1_555 1_555
C111_4 C106_4 1_555 1_555
O67_4 C111_4 1_555 1_555
O68_4 C111_4 1_555 1_555
P4_6 O92_3 1_555 1_555
O71_6 P4_6 1_555 1_555
O75_6 Zn31 1_555 1_555
Zn19_4 O28_4 1_555 1_555
Zn20_4 O33_4 1_555 1_555
Zn31_2 O38_4 1_555 1_555
Zn39 O67_4 1_555 1_555
Zn38_2 O35_4 1_555 1_555
Zn42 O37_4 1_555 1_555
Zn42_2 O42_4 1_555 1_555
Zn36_6 O71_6 1_555 1_555
Zn39_4 O68_4 1_555 1_555
Zn48_4 O51_4 1_555 1_555
Zn48 O71_6 1_555 1_555
Zn54_2 O36_4 1_555 1_555
C43_4 C44_4 1_555 1_555
C45_4 O29_4 1_555 1_555
C53_4 C54_4 1_555 1_555
C55_4 O34_4 1_555 1_555
C62_4 C63_4 1_555 1_555
C64_4 O39_4 1_555 1_555
C71_4 C72_4 1_555 1_555
C73_4 O44_4 1_555 1_555
O41_4 Zn55 1_555 1_555
C80_4 C81_4 1_555 1_555
P4_6 O89_2 1_555 1_555
O89_2 Zn48_4 1_555 1_555
C85_4 C86_4 1_555 1_555
C86_4 C87_4 1_555 1_555
C87_4 H46_4 1_555 1_555
C91_4 C86_4 1_555 1_555
H48_4 C91_4 1_555 1_555
O55_4 C85_4 1_555 1_555
O56_4 C85_4 1_555 1_555
O59_4 C90_4 1_555 1_555
C98_4 C97_4 1_555 1_555
H52_4 C98_4 1_555 1_555
C101_4 C83_15 1_555 1_555
H54_4 C101_4 1_555 1_555
H55_4 C101_4 1_555 1_555
C102_4 C97_4 1_555 1_555
O62_4 C102_4 1_555 1_555
O63_4 C102_4 1_555 1_555
Zn20_2 O55_4 1_555 1_555
O88_4 Zn20_2 1_555 1_555
O101_4 Zn20_2 1_555 1_555
Zn39_2 O62_4 1_555 1_555
Zn40_4 O63_4 1_555 1_555
Zn47_4 O56_4 1_555 1_555
C90_4 C91_4 1_555 1_555
O88_4 Zn47_4 1_555 1_555
C79_4 C78_4 1_555 1_555
H42_4 C79_4 1_555 1_555
C82_4 H44_4 1_555 1_555
H45_4 C82_4 1_555 1_555
C83_16 C82_4 1_555 1_555
C84_4 C78_4 1_555 1_555
O52_4 C84_4 1_555 1_555
O108_2 C84_4 1_555 1_555
C94_4 C95_4 1_555 1_555
C95_4 C96_4 1_555 1_555
C96_4 H51_4 1_555 1_555
C100_4 C95_4 1_555 1_555
H53_4 C100_4 1_555 1_555
O60_4 C94_4 1_555 1_555
O61_4 C94_4 1_555 1_555
O64_4 C99_4 1_555 1_555
Zn34 O52_4 1_555 1_555
Zn41_2 O60_4 1_555 1_555
Zn52 O61_4 1_555 1_555
C99_4 C100_4 1_555 1_555
O70_4 Zn38_2 1_555 1_555
P4_7 O70_4 1_555 1_555
O71_7 P4_7 1_555 1_555
O75_7 Zn30_2 1_555 1_555
O92_4 Zn37_2 1_555 1_555
O112_4 Zn38_2 1_555 1_555
O113_4 Zn37_2 1_555 1_555
Zn36_7 O71_7 1_555 1_555
Zn47 O71_7 1_555 1_555
O70_4 Zn54_2 1_555 1_555
P4_7 O88_3 1_555 1_555
O92_4 Zn53 1_555 1_555
P4_8 O92_4 1_555 1_555
O71_8 P4_8 1_555 1_555
O75_8 Zn31_2 1_555 1_555
Zn36_8 O71_8 1_555 1_555
Zn48_2 O71_8 1_555 1_555
P4_8 O88_4 1_555 1_555
C75_5 C76_5 1_555 1_555
C76_5 C77_5 1_555 1_555
C77_5 H41_5 1_555 1_555
C81_5 C76_5 1_555 1_555
H43_5 C81_5 1_555 1_555
O50_3 C75_5 1_555 1_555
O51_5 C75_5 1_555 1_555
O54_5 C80_5 1_555 1_555
C107_5 C106_5 1_555 1_555
H57_5 C107_5 1_555 1_555
C110_5 C83_17 1_555 1_555
H59_5 C110_5 1_555 1_555
H60_5 C110_5 1_555 1_555
C111_5 C106_5 1_555 1_555
O67_5 C111_5 1_555 1_555
O68_5 C111_5 1_555 1_555
P4_9 O96_2 1_555 1_555
O71_9 P4_9 1_555 1_555
O72_3 Zn19_3 1_555 1_555
O74_3 Zn20_3 1_555 1_555
O75_9 Zn43_2 1_555 1_555
O89_3 Zn20_3 1_555 1_555
O100_3 Zn20_3 1_555 1_555
O102_3 Zn19_3 1_555 1_555
Zn40_4 O67_5 1_555 1_555
Zn36_9 O71_9 1_555 1_555
Zn27_2 O68_5 1_555 1_555
Zn49_2 O51_5 1_555 1_555
Zn47_4 O71_9 1_555 1_555
C80_5 C81_5 1_555 1_555
O50_3 Zn19_3 1_555 1_555
P4_9 O72_3 1_555 1_555
O72_3 Zn49_2 1_555 1_555
C89_5 C88_5 1_555 1_555
H47_5 C89_5 1_555 1_555
C92_5 C83_18 1_555 1_555
H49_5 C92_5 1_555 1_555
H50_5 C92_5 1_555 1_555
C93_5 C88_5 1_555 1_555
O57_5 C93_5 1_555 1_555
O111_3 C93_5 1_555 1_555
C103_5 C104_5 1_555 1_555
C104_5 C105_5 1_555 1_555
C105_5 H56_5 1_555 1_555
C109_5 C104_5 1_555 1_555
H58_5 C109_5 1_555 1_555
O65_5 C103_5 1_555 1_555
O66_5 C103_5 1_555 1_555
O69_5 C108_5 1_555 1_555
Zn41_3 O57_5 1_555 1_555
Zn22_2 O65_5 1_555 1_555
Zn50_2 O66_5 1_555 1_555
C108_5 C109_5 1_555 1_555
C79_5 C78_5 1_555 1_555
H42_5 C79_5 1_555 1_555
C82_5 H44_5 1_555 1_555
H45_5 C82_5 1_555 1_555
C83_19 C82_5 1_555 1_555
C84_5 C78_5 1_555 1_555
O52_5 C84_5 1_555 1_555
O111_2 C84_5 1_555 1_555
C94_5 C95_5 1_555 1_555
C95_5 C96_5 1_555 1_555
C96_5 H51_5 1_555 1_555
C100_5 C95_5 1_555 1_555
H53_5 C100_5 1_555 1_555
O60_5 C94_5 1_555 1_555
O61_5 C94_5 1_555 1_555
O64_5 C99_5 1_555 1_555
Zn41_2 O52_5 1_555 1_555
Zn24 O60_5 1_555 1_555
Zn52 O61_5 1_555 1_555
C99_5 C100_5 1_555 1_555
C85_5 C86_5 1_555 1_555
C86_5 C87_5 1_555 1_555
C87_5 H46_5 1_555 1_555
C91_5 C86_5 1_555 1_555
H48_5 C91_5 1_555 1_555
O55_5 C85_5 1_555 1_555
O56_5 C85_5 1_555 1_555
O59_5 C90_5 1_555 1_555
C98_5 C97_5 1_555 1_555
H52_5 C98_5 1_555 1_555
C101_5 C83_20 1_555 1_555
H54_5 C101_5 1_555 1_555
H55_5 C101_5 1_555 1_555
C102_5 C97_5 1_555 1_555
O62_5 C102_5 1_555 1_555
O63_5 C102_5 1_555 1_555
Zn19_4 O55_5 1_555 1_555
O88_5 Zn19_4 1_555 1_555
O101_5 Zn19_4 1_555 1_555
Zn40_3 O62_5 1_555 1_555
Zn28 O63_5 1_555 1_555
Zn49_3 O56_5 1_555 1_555
C90_5 C91_5 1_555 1_555
O88_5 Zn49_3 1_555 1_555
C89_6 C88_6 1_555 1_555
H47_6 C89_6 1_555 1_555
C92_6 C83_21 1_555 1_555
H49_6 C92_6 1_555 1_555
H50_6 C92_6 1_555 1_555
C93_6 C88_6 1_555 1_555
O57_6 C93_6 1_555 1_555
O111 C93_6 1_555 1_555
C103_6 C104_6 1_555 1_555
C104_6 C105_6 1_555 1_555
C105_6 H56_6 1_555 1_555
C109_6 C104_6 1_555 1_555
H58_6 C109_6 1_555 1_555
O65_6 C103_6 1_555 1_555
O66_6 C103_6 1_555 1_555
O69_6 C108_6 1_555 1_555
Zn41 O57_6 1_555 1_555
Zn23 O65_6 1_555 1_555
Zn51 O66_6 1_555 1_555
C108_6 C109_6 1_555 1_555
C75_6 C76_6 1_555 1_555
C76_6 C77_6 1_555 1_555
C77_6 H41_6 1_555 1_555
C81_6 C76_6 1_555 1_555
H43_6 C81_6 1_555 1_555
O74_3 C75_6 1_555 1_555
O51_6 C75_6 1_555 1_555
O54_6 C80_6 1_555 1_555
C107_6 C106_6 1_555 1_555
H57_6 C107_6 1_555 1_555
C110_6 C83_22 1_555 1_555
H59_6 C110_6 1_555 1_555
H60_6 C110_6 1_555 1_555
C111_6 C106_6 1_555 1_555
O67_6 C111_6 1_555 1_555
O68_6 C111_6 1_555 1_555
P4_10 O96_4 1_555 1_555
O71_10 P4_10 1_555 1_555
O75_10 Zn43 1_555 1_555
Zn39_3 O67_6 1_555 1_555
Zn36_10 O71_10 1_555 1_555
Zn28_2 O68_6 1_555 1_555
Zn49_4 O51_6 1_555 1_555
Zn48_3 O71_10 1_555 1_555
C80_6 C81_6 1_555 1_555
P4_10 O89_3 1_555 1_555
O89_3 Zn49_4 1_555 1_555
C85_6 C86_6 1_555 1_555
C86_6 C87_6 1_555 1_555
C87_6 H46_6 1_555 1_555
C91_6 C86_6 1_555 1_555
H48_6 C91_6 1_555 1_555
O55_6 C85_6 1_555 1_555
O56_6 C85_6 1_555 1_555
O59_6 C90_6 1_555 1_555
C98_6 C97_6 1_555 1_555
H52_6 C98_6 1_555 1_555
C101_6 C83_23 1_555 1_555
H54_6 C101_6 1_555 1_555
H55_6 C101_6 1_555 1_555
C102_6 C97_6 1_555 1_555
O62_6 C102_6 1_555 1_555
O63_6 C102_6 1_555 1_555
Zn20_4 O55_6 1_555 1_555
O88_6 Zn20_4 1_555 1_555
O101_6 Zn20_4 1_555 1_555
Zn39_4 O62_6 1_555 1_555
Zn27 O63_6 1_555 1_555
Zn49 O56_6 1_555 1_555
C90_6 C91_6 1_555 1_555
O88_6 Zn49 1_555 1_555
C79_6 C78_6 1_555 1_555
H42_6 C79_6 1_555 1_555
C82_6 H44_6 1_555 1_555
H45_6 C82_6 1_555 1_555
C83_24 C82_6 1_555 1_555
C84_6 C78_6 1_555 1_555
O52_6 C84_6 1_555 1_555
O111_4 C84_6 1_555 1_555
C94_6 C95_6 1_555 1_555
C95_6 C96_6 1_555 1_555
C96_6 H51_6 1_555 1_555
C100_6 C95_6 1_555 1_555
H53_6 C100_6 1_555 1_555
O60_6 C94_6 1_555 1_555
O61_6 C94_6 1_555 1_555
O64_6 C99_6 1_555 1_555
Zn41_4 O52_6 1_555 1_555
Zn22 O60_6 1_555 1_555
Zn50 O61_6 1_555 1_555
C99_6 C100_6 1_555 1_555
P4_11 O96_3 1_555 1_555
O71_11 P4_11 1_555 1_555
O75_11 Zn42 1_555 1_555
Zn36_11 O71_11 1_555 1_555
Zn47_3 O71_11 1_555 1_555
P4_11 O88_5 1_555 1_555
P4_12 O96 1_555 1_555
O71_12 P4_12 1_555 1_555
O75_12 Zn42_2 1_555 1_555
Zn36_12 O71_12 1_555 1_555
Zn48_4 O71_12 1_555 1_555
P4_12 O88_6 1_555 1_555
O75_13 Zn40_2 1_555 1_555
O79_3 Zn48_3 1_555 1_555
O82_3 Zn48_3 1_555 1_555
O90_3 Zn48_3 1_555 1_555
Zn40_2 O90_3 1_555 1_555
O112_5 Zn35 1_555 1_555
O115_5 Zn41_4 1_555 1_555
O113_5 Zn35_2 1_555 1_555
O78_5 Zn49_3 1_555 1_555
O80_3 Zn47_3 1_555 1_555
O81_5 Zn47 1_555 1_555
O83_3 Zn47_3 1_555 1_555
O84_5 Zn49_3 1_555 1_555
O85_5 Zn47 1_555 1_555
O91_3 Zn47_3 1_555 1_555
O93_5 Zn47 1_555 1_555
O95_5 Zn49_3 1_555 1_555
O91_3 Zn40 1_555 1_555
O93_5 Zn28 1_555 1_555
O95_5 Zn40_3 1_555 1_555
O78_6 Zn49_4 1_555 1_555
O81_6 Zn47_2 1_555 1_555
O84_6 Zn49_4 1_555 1_555
O85_6 Zn47_2 1_555 1_555
O93_6 Zn47_2 1_555 1_555
O95_6 Zn49_4 1_555 1_555
O93_6 Zn28_2 1_555 1_555
O95_6 Zn39_3 1_555 1_555
O115_6 Zn41_3 1_555 1_555
O75_14 Zn40 1_555 1_555
O112_6 Zn33 1_555 1_555
O115_7 Zn41 1_555 1_555
O75_15 Zn39 1_555 1_555
O79_4 Zn48_4 1_555 1_555
O82_4 Zn48_4 1_555 1_555
O90_4 Zn48_4 1_555 1_555
Zn39 O90_4 1_555 1_555
O78_7 Zn49_2 1_555 1_555
O80_4 Zn47_4 1_555 1_555
O81_7 Zn48_2 1_555 1_555
O83_4 Zn47_4 1_555 1_555
O84_7 Zn49_2 1_555 1_555
O85_7 Zn48_2 1_555 1_555
O91_4 Zn47_4 1_555 1_555
O93_7 Zn48_2 1_555 1_555
O95_7 Zn49_2 1_555 1_555
O91_4 Zn39_2 1_555 1_555
O93_7 Zn27_2 1_555 1_555
O95_7 Zn40_4 1_555 1_555
O113_6 Zn34 1_555 1_555
O78_8 Zn49 1_555 1_555
O81_8 Zn48 1_555 1_555
O84_8 Zn49 1_555 1_555
O85_8 Zn48 1_555 1_555
O93_8 Zn48 1_555 1_555
O95_8 Zn49 1_555 1_555
O93_8 Zn27 1_555 1_555
O95_8 Zn39_4 1_555 1_555
O75_16 Zn39_2 1_555 1_555
O115_8 Zn41_2 1_555 1_555
O75_17 Zn27 1_555 1_555
O113_7 Zn22 1_555 1_555
O112_7 Zn24 1_555 1_555
O75_18 Zn28 1_555 1_555
O112_8 Zn23 1_555 1_555
O75_19 Zn27_2 1_555 1_555
O113_8 Zn22_2 1_555 1_555
O75_20 Zn28_2 1_555 1_555
O75_21 Zn40_4 1_555 1_555
O75_22 Zn40_3 1_555 1_555
O75_23 Zn39_3 1_555 1_555
O75_24 Zn39_4 1_555 1_555
C5_3 C4_3 1_555 1_555
H2_3 C5_3 1_555 1_555
C8_3 H4_3 1_555 1_555
H5_3 C8_3 1_555 1_555
C9_3 C8_3 1_555 1_555
C10_3 C4_3 1_555 1_555
O100_3 C10_3 1_555 1_555
O5_2 C10_3 1_555 1_555
C11_3 C12_3 1_555 1_555
C12_3 C13_3 1_555 1_555
C13_3 H6_3 1_555 1_555
C17_3 C12_3 1_555 1_555
H8_3 C17_3 1_555 1_555
O7_3 C11_3 1_555 1_555
O78_3 C11_3 1_555 1_555
O11_3 C16_3 1_555 1_555
C20_3 C21_3 1_555 1_555
C21_3 C22_3 1_555 1_555
C22_3 H11_3 1_555 1_555
C23_3 C22_3 1_555 1_555
C24_3 C23_3 1_555 1_555
H12_3 C24_3 1_555 1_555
C25_3 C24_3 1_555 1_555
C26_3 C21_3 1_555 1_555
H13_3 C26_3 1_555 1_555
C27_3 C9_3 1_555 1_555
H14_3 C27_3 1_555 1_555
H15_3 C27_3 1_555 1_555
C28_3 C23_3 1_555 1_555
O12_3 C20_3 1_555 1_555
O78_6 C20_3 1_555 1_555
O103_3 C28_3 1_555 1_555
O15_3 C28_3 1_555 1_555
O16_3 C25_3 1_555 1_555
Zn21_3 O7_3 1_555 1_555
C75_7 C76_7 1_555 1_555
C76_7 C77_7 1_555 1_555
C77_7 H41_7 1_555 1_555
C78_7 C77_7 1_555 1_555
C79_7 C78_7 1_555 1_555
H42_7 C79_7 1_555 1_555
C80_7 C79_7 1_555 1_555
C81_7 C76_7 1_555 1_555
H43_7 C81_7 1_555 1_555
C82_7 H44_7 1_555 1_555
H45_7 C82_7 1_555 1_555
C83_25 C82_7 1_555 1_555
C84_7 C78_7 1_555 1_555
O50_4 C75_7 1_555 1_555
O82_3 C75_7 1_555 1_555
O98 C84_7 1_555 1_555
O53_3 C84_7 1_555 1_555
O54_7 C80_7 1_555 1_555
Zn36_10 O5_2 1_555 1_555
C94_7 C95_7 1_555 1_555
C95_7 C96_7 1_555 1_555
C96_7 H51_7 1_555 1_555
C100_7 C95_7 1_555 1_555
H53_7 C100_7 1_555 1_555
O60_7 C94_7 1_555 1_555
O85 C94_7 1_555 1_555
O64_7 C99_7 1_555 1_555
C107_7 C106_7 1_555 1_555
H57_7 C107_7 1_555 1_555
C110_7 C83_25 1_555 1_555
H59_7 C110_7 1_555 1_555
H60_7 C110_7 1_555 1_555
C111_7 C106_7 1_555 1_555
O102_2 C111_7 1_555 1_555
O68_7 C111_7 1_555 1_555
Zn36_4 O12_3 1_555 1_555
O97_5 Zn36_4 1_555 1_555
O102_4 Zn36_10 1_555 1_555
O105_3 Zn21_3 1_555 1_555
O109_2 Zn21_3 1_555 1_555
O115_9 Zn36_4 1_555 1_555
Zn21 O53_3 1_555 1_555
Zn44 O60_7 1_555 1_555
Zn36_5 O68_7 1_555 1_555
Zn32_3 O15_3 1_555 1_555
C16_3 C17_3 1_555 1_555
C25_3 C26_3 1_555 1_555
C27_3 O16_3 1_555 1_555
C80_7 C81_7 1_555 1_555
C82_7 O54_7 1_555 1_555
O50_4 Zn36_10 1_555 1_555
C99_7 C100_7 1_555 1_555
C1_3 C2_3 1_555 1_555
C2_3 C3_3 1_555 1_555
C3_3 H1_3 1_555 1_555
C7_3 C2_3 1_555 1_555
H3_3 C7_3 1_555 1_555
O1_3 C1_3 1_555 1_555
O78_4 C1_3 1_555 1_555
O6_3 C6_3 1_555 1_555
Zn21_4 O1_3 1_555 1_555
C15_3 C14_3 1_555 1_555
H7_3 C15_3 1_555 1_555
C18_3 C9_4 1_555 1_555
H9_3 C18_3 1_555 1_555
H10_3 C18_3 1_555 1_555
C19_3 C14_3 1_555 1_555
O101_5 C19_3 1_555 1_555
O10_2 C19_3 1_555 1_555
C29_3 C30_3 1_555 1_555
C30_3 C31_3 1_555 1_555
C31_3 H16_3 1_555 1_555
C32_3 C31_3 1_555 1_555
C33_3 C32_3 1_555 1_555
H17_3 C33_3 1_555 1_555
C34_3 C33_3 1_555 1_555
C35_3 C30_3 1_555 1_555
H18_3 C35_3 1_555 1_555
C36_3 C9_4 1_555 1_555
H19_3 C36_3 1_555 1_555
H20_3 C36_3 1_555 1_555
C37_3 C32_3 1_555 1_555
O17_3 C29_3 1_555 1_555
O78_5 C29_3 1_555 1_555
O103_4 C37_3 1_555 1_555
O20_3 C37_3 1_555 1_555
O21_3 C34_3 1_555 1_555
P3_5 O90_2 1_555 1_555
O93_4 P3_5 1_555 1_555
Zn36_11 O10_2 1_555 1_555
O74_4 Zn36_11 1_555 1_555
O100_4 Zn36_11 1_555 1_555
O104_3 Zn21_4 1_555 1_555
O110_2 Zn21_4 1_555 1_555
Zn32_4 O20_3 1_555 1_555
Zn36_3 O17_3 1_555 1_555
C6_3 C7_3 1_555 1_555
C34_3 C35_3 1_555 1_555
C36_3 O21_3 1_555 1_555
P3_5 O95_4 1_555 1_555
C85_7 C86_7 1_555 1_555
C86_7 C87_7 1_555 1_555
C87_7 H46_7 1_555 1_555
C88_7 C87_7 1_555 1_555
C89_7 C88_7 1_555 1_555
H47_7 C89_7 1_555 1_555
C90_7 C89_7 1_555 1_555
C91_7 C86_7 1_555 1_555
H48_7 C91_7 1_555 1_555
C92_7 C83_26 1_555 1_555
H49_7 C92_7 1_555 1_555
H50_7 C92_7 1_555 1_555
C93_7 C88_7 1_555 1_555
O55_7 C85_7 1_555 1_555
O83_4 C85_7 1_555 1_555
O99_2 C93_7 1_555 1_555
O109_2 C93_7 1_555 1_555
O59_7 C90_7 1_555 1_555
C98_7 C97_7 1_555 1_555
H52_7 C98_7 1_555 1_555
C101_7 C83_26 1_555 1_555
H54_7 C101_7 1_555 1_555
H55_7 C101_7 1_555 1_555
C102_7 C97_7 1_555 1_555
O101_4 C102_7 1_555 1_555
O63_7 C102_7 1_555 1_555
C103_7 C104_7 1_555 1_555
C104_7 C105_7 1_555 1_555
C105_7 H56_7 1_555 1_555
C109_7 C104_7 1_555 1_555
H58_7 C109_7 1_555 1_555
O65_7 C103_7 1_555 1_555
O85_3 C103_7 1_555 1_555
O69_7 C108_7 1_555 1_555
Zn36_9 O55_7 1_555 1_555
O101_7 Zn36_9 1_555 1_555
O106_3 Zn36_9 1_555 1_555
Zn44_3 O65_7 1_555 1_555
Zn36_8 O63_7 1_555 1_555
C90_7 C91_7 1_555 1_555
C92_7 O59_7 1_555 1_555
C108_7 C109_7 1_555 1_555
C85_8 C86_8 1_555 1_555
C86_8 C87_8 1_555 1_555
C87_8 H46_8 1_555 1_555
C88_8 C87_8 1_555 1_555
C89_8 C88_8 1_555 1_555
H47_8 C89_8 1_555 1_555
C90_8 C89_8 1_555 1_555
C91_8 C86_8 1_555 1_555
H48_8 C91_8 1_555 1_555
C92_8 C83_27 1_555 1_555
H49_8 C92_8 1_555 1_555
H50_8 C92_8 1_555 1_555
C93_8 C88_8 1_555 1_555
O55_8 C85_8 1_555 1_555
O82_4 C85_8 1_555 1_555
O99 C93_8 1_555 1_555
O110_2 C93_8 1_555 1_555
O59_8 C90_8 1_555 1_555
C98_8 C97_8 1_555 1_555
H52_8 C98_8 1_555 1_555
C101_8 C83_27 1_555 1_555
H54_8 C101_8 1_555 1_555
H55_8 C101_8 1_555 1_555
C102_8 C97_8 1_555 1_555
O100_2 C102_8 1_555 1_555
O63_8 C102_8 1_555 1_555
C103_8 C104_8 1_555 1_555
C104_8 C105_8 1_555 1_555
C105_8 H56_8 1_555 1_555
C109_8 C104_8 1_555 1_555
H58_8 C109_8 1_555 1_555
O65_8 C103_8 1_555 1_555
O85_4 C103_8 1_555 1_555
O69_8 C108_8 1_555 1_555
Zn36_12 O55_8 1_555 1_555
O101_8 Zn36_12 1_555 1_555
O106_4 Zn36_12 1_555 1_555
Zn44_4 O65_8 1_555 1_555
Zn36_6 O63_8 1_555 1_555
C90_8 C91_8 1_555 1_555
C92_8 O59_8 1_555 1_555
C108_8 C109_8 1_555 1_555
P3_6 O91_2 1_555 1_555
O93_3 P3_6 1_555 1_555
P3_6 O95_3 1_555 1_555
C75_8 C76_8 1_555 1_555
C76_8 C77_8 1_555 1_555
C77_8 H41_8 1_555 1_555
C78_8 C77_8 1_555 1_555
C79_8 C78_8 1_555 1_555
H42_8 C79_8 1_555 1_555
C80_8 C79_8 1_555 1_555
C81_8 C76_8 1_555 1_555
H43_8 C81_8 1_555 1_555
C82_8 H44_8 1_555 1_555
H45_8 C82_8 1_555 1_555
C83_28 C82_8 1_555 1_555
C84_8 C78_8 1_555 1_555
O74_4 C75_8 1_555 1_555
O83_3 C75_8 1_555 1_555
O98_2 C84_8 1_555 1_555
O53_4 C84_8 1_555 1_555
O54_8 C80_8 1_555 1_555
C94_8 C95_8 1_555 1_555
C95_8 C96_8 1_555 1_555
C96_8 H51_8 1_555 1_555
C100_8 C95_8 1_555 1_555
H53_8 C100_8 1_555 1_555
O60_8 C94_8 1_555 1_555
O85_2 C94_8 1_555 1_555
O64_8 C99_8 1_555 1_555
C107_8 C106_8 1_555 1_555
H57_8 C107_8 1_555 1_555
C110_8 C83_28 1_555 1_555
H59_8 C110_8 1_555 1_555
H60_8 C110_8 1_555 1_555
C111_8 C106_8 1_555 1_555
O101_3 C111_8 1_555 1_555
O68_8 C111_8 1_555 1_555
O97_6 Zn36_3 1_555 1_555
O115_10 Zn36_3 1_555 1_555
Zn21_2 O53_4 1_555 1_555
Zn44_2 O60_8 1_555 1_555
Zn36_7 O68_8 1_555 1_555
C80_8 C81_8 1_555 1_555
C82_8 O54_8 1_555 1_555
C99_8 C100_8 1_555 1_555
C5_4 C4_4 1_555 1_555
H2_4 C5_4 1_555 1_555
C8_4 H4_4 1_555 1_555
H5_4 C8_4 1_555 1_555
C9_5 C8_4 1_555 1_555
C10_4 C4_4 1_555 1_555
O102_3 C10_4 1_555 1_555
O106_3 C10_4 1_555 1_555
C11_4 C12_4 1_555 1_555
C12_4 C13_4 1_555 1_555
C13_4 H6_4 1_555 1_555
C17_4 C12_4 1_555 1_555
H8_4 C17_4 1_555 1_555
O7_4 C11_4 1_555 1_555
O78 C11_4 1_555 1_555
O11_4 C16_4 1_555 1_555
C20_4 C21_4 1_555 1_555
C21_4 C22_4 1_555 1_555
C22_4 H11_4 1_555 1_555
C23_4 C22_4 1_555 1_555
C24_4 C23_4 1_555 1_555
H12_4 C24_4 1_555 1_555
C25_4 C24_4 1_555 1_555
C26_4 C21_4 1_555 1_555
H13_4 C26_4 1_555 1_555
C27_4 C9_5 1_555 1_555
H14_4 C27_4 1_555 1_555
H15_4 C27_4 1_555 1_555
C28_4 C23_4 1_555 1_555
O12_4 C20_4 1_555 1_555
O78_7 C20_4 1_555 1_555
O103 C28_4 1_555 1_555
O15_4 C28_4 1_555 1_555
O16_4 C25_4 1_555 1_555
Zn21 O7_4 1_555 1_555
Zn36_2 O12_4 1_555 1_555
O97_7 Zn36_2 1_555 1_555
O105_4 Zn21 1_555 1_555
O115_11 Zn36_2 1_555 1_555
Zn32 O15_4 1_555 1_555
C16_4 C17_4 1_555 1_555
C25_4 C26_4 1_555 1_555
C27_4 O16_4 1_555 1_555
C1_4 C2_4 1_555 1_555
C2_4 C3_4 1_555 1_555
C3_4 H1_4 1_555 1_555
C7_4 C2_4 1_555 1_555
H3_4 C7_4 1_555 1_555
O1_4 C1_4 1_555 1_555
O78_2 C1_4 1_555 1_555
O6_4 C6_4 1_555 1_555
Zn21_2 O1_4 1_555 1_555
C15_4 C14_4 1_555 1_555
H7_4 C15_4 1_555 1_555
C18_4 C9_6 1_555 1_555
H9_4 C18_4 1_555 1_555
H10_4 C18_4 1_555 1_555
C19_4 C14_4 1_555 1_555
O101_6 C19_4 1_555 1_555
O106_4 C19_4 1_555 1_555
C29_4 C30_4 1_555 1_555
C30_4 C31_4 1_555 1_555
C31_4 H16_4 1_555 1_555
C32_4 C31_4 1_555 1_555
C33_4 C32_4 1_555 1_555
H17_4 C33_4 1_555 1_555
C34_4 C33_4 1_555 1_555
C35_4 C30_4 1_555 1_555
H18_4 C35_4 1_555 1_555
C36_4 C9_6 1_555 1_555
H19_4 C36_4 1_555 1_555
H20_4 C36_4 1_555 1_555
C37_4 C32_4 1_555 1_555
O17_4 C29_4 1_555 1_555
O78_8 C29_4 1_555 1_555
O103_2 C37_4 1_555 1_555
O20_4 C37_4 1_555 1_555
O21_4 C34_4 1_555 1_555
P3_7 O90 1_555 1_555
O93_2 P3_7 1_555 1_555
O104_4 Zn21_2 1_555 1_555
Zn32_2 O20_4 1_555 1_555
Zn36 O17_4 1_555 1_555
C6_4 C7_4 1_555 1_555
C34_4 C35_4 1_555 1_555
C36_4 O21_4 1_555 1_555
P3_7 O95_2 1_555 1_555
P3_8 O91 1_555 1_555
O93 P3_8 1_555 1_555
P3_8 O95 1_555 1_555
O97_8 Zn36 1_555 1_555
O115_12 Zn36 1_555 1_555
C48_5 C49_5 1_555 1_555
C49_5 C50_5 1_555 1_555
C50_5 H26_5 1_555 1_555
C51_5 C50_5 1_555 1_555
C52_5 C51_5 1_555 1_555
H27_5 C52_5 1_555 1_555
C53_5 C52_5 1_555 1_555
C54_5 C49_5 1_555 1_555
H28_5 C54_5 1_555 1_555
C55_5 C46_5 1_555 1_555
H29_5 C55_5 1_555 1_555
H30_5 C55_5 1_555 1_555
C56_5 C51_5 1_555 1_555
O75 C48_5 1_555 1_555
O79 C48_5 1_555 1_555
O97_8 C56_5 1_555 1_555
O112 C56_5 1_555 1_555
O34_5 C53_5 1_555 1_555
C61_5 C60_5 1_555 1_555
H32_5 C61_5 1_555 1_555
C64_5 C46_5 1_555 1_555
H34_5 C64_5 1_555 1_555
H35_5 C64_5 1_555 1_555
C65_5 C60_5 1_555 1_555
O37_5 C65_5 1_555 1_555
O115_8 C65_5 1_555 1_555
C66_5 C67_5 1_555 1_555
C67_5 C68_5 1_555 1_555
C68_5 H36_5 1_555 1_555
C72_5 C67_5 1_555 1_555
H38_5 C72_5 1_555 1_555
O75_24 C66_5 1_555 1_555
O84_8 C66_5 1_555 1_555
O44_5 C71_5 1_555 1_555
C75_9 C76_9 1_555 1_555
C76_9 C77_9 1_555 1_555
C77_9 H41_9 1_555 1_555
C81_9 C76_9 1_555 1_555
H43_9 C81_9 1_555 1_555
O75_17 C75_9 1_555 1_555
O81_8 C75_9 1_555 1_555
O54_9 C80_9 1_555 1_555
C89_9 C88_9 1_555 1_555
H47_9 C89_9 1_555 1_555
C92_9 C83_29 1_555 1_555
H49_9 C92_9 1_555 1_555
H50_9 C92_9 1_555 1_555
C93_9 C88_9 1_555 1_555
O57_7 C93_9 1_555 1_555
O112_8 C93_9 1_555 1_555
C103_9 C104_9 1_555 1_555
C104_9 C105_9 1_555 1_555
C105_9 H56_9 1_555 1_555
C106_9 C105_9 1_555 1_555
C107_9 C106_9 1_555 1_555
H57_9 C107_9 1_555 1_555
C108_9 C107_9 1_555 1_555
C109_9 C104_9 1_555 1_555
H58_9 C109_9 1_555 1_555
C110_9 C83_29 1_555 1_555
H59_9 C110_9 1_555 1_555
H60_9 C110_9 1_555 1_555
C111_9 C106_9 1_555 1_555
O75_6 C103_9 1_555 1_555
O81 C103_9 1_555 1_555
O67_7 C111_9 1_555 1_555
O113_3 C111_9 1_555 1_555
O69_9 C108_9 1_555 1_555
P4_13 O95_8 1_555 1_555
O90_4 P4_13 1_555 1_555
Zn44 O57_7 1_555 1_555
Zn36_6 O67_7 1_555 1_555
Zn32_2 O37_5 1_555 1_555
C53_5 C54_5 1_555 1_555
C55_5 O34_5 1_555 1_555
C71_5 C72_5 1_555 1_555
C80_9 C81_9 1_555 1_555
C108_9 C109_9 1_555 1_555
C110_9 O69_9 1_555 1_555
P4_13 O93_8 1_555 1_555
C38_5 C39_5 1_555 1_555
C39_5 C40_5 1_555 1_555
C40_5 H21_5 1_555 1_555
C41_5 C40_5 1_555 1_555
C42_5 C41_5 1_555 1_555
H22_5 C42_5 1_555 1_555
C43_5 C42_5 1_555 1_555
C44_5 C39_5 1_555 1_555
H23_5 C44_5 1_555 1_555
C45_5 H24_5 1_555 1_555
H25_5 C45_5 1_555 1_555
C46_6 C45_5 1_555 1_555
C47_5 C41_5 1_555 1_555
O75_3 C38_5 1_555 1_555
O79_2 C38_5 1_555 1_555
O97_6 C47_5 1_555 1_555
O112_2 C47_5 1_555 1_555
O29_5 C43_5 1_555 1_555
C57_5 C58_5 1_555 1_555
C58_5 C59_5 1_555 1_555
C59_5 H31_5 1_555 1_555
C63_5 C58_5 1_555 1_555
H33_5 C63_5 1_555 1_555
O75_22 C57_5 1_555 1_555
O84_5 C57_5 1_555 1_555
O39_5 C62_5 1_555 1_555
C70_5 C69_5 1_555 1_555
H37_5 C70_5 1_555 1_555
C73_5 C46_6 1_555 1_555
H39_5 C73_5 1_555 1_555
H40_5 C73_5 1_555 1_555
C74_5 C69_5 1_555 1_555
O42_5 C74_5 1_555 1_555
O115_5 C74_5 1_555 1_555
Zn32_4 O42_5 1_555 1_555
C43_5 C44_5 1_555 1_555
C45_5 O29_5 1_555 1_555
C62_5 C63_5 1_555 1_555
C79_9 C78_9 1_555 1_555
H42_9 C79_9 1_555 1_555
C82_9 H44_9 1_555 1_555
H45_9 C82_9 1_555 1_555
C83_30 C82_9 1_555 1_555
C84_9 C78_9 1_555 1_555
O52_7 C84_9 1_555 1_555
O112_7 C84_9 1_555 1_555
C85_9 C86_9 1_555 1_555
C86_9 C87_9 1_555 1_555
C87_9 H46_9 1_555 1_555
C91_9 C86_9 1_555 1_555
H48_9 C91_9 1_555 1_555
O75_19 C85_9 1_555 1_555
O81_7 C85_9 1_555 1_555
O59_9 C90_9 1_555 1_555
C94_9 C95_9 1_555 1_555
C95_9 C96_9 1_555 1_555
C96_9 H51_9 1_555 1_555
C97_9 C96_9 1_555 1_555
C98_9 C97_9 1_555 1_555
H52_9 C98_9 1_555 1_555
C99_9 C98_9 1_555 1_555
C100_9 C95_9 1_555 1_555
H53_9 C100_9 1_555 1_555
C101_9 C83_30 1_555 1_555
H54_9 C101_9 1_555 1_555
H55_9 C101_9 1_555 1_555
C102_9 C97_9 1_555 1_555
O75_8 C94_9 1_555 1_555
O81_2 C94_9 1_555 1_555
O62_7 C102_9 1_555 1_555
O113_4 C102_9 1_555 1_555
O64_9 C99_9 1_555 1_555
Zn44_2 O52_7 1_555 1_555
Zn36_8 O62_7 1_555 1_555
C90_9 C91_9 1_555 1_555
C99_9 C100_9 1_555 1_555
C101_9 O64_9 1_555 1_555
C38_6 C39_6 1_555 1_555
C39_6 C40_6 1_555 1_555
C40_6 H21_6 1_555 1_555
C41_6 C40_6 1_555 1_555
C42_6 C41_6 1_555 1_555
H22_6 C42_6 1_555 1_555
C43_6 C42_6 1_555 1_555
C44_6 C39_6 1_555 1_555
H23_6 C44_6 1_555 1_555
C45_6 H24_6 1_555 1_555
H25_6 C45_6 1_555 1_555
C46_7 C45_6 1_555 1_555
C47_6 C41_6 1_555 1_555
O75_2 C38_6 1_555 1_555
O80 C38_6 1_555 1_555
O97_7 C47_6 1_555 1_555
O113 C47_6 1_555 1_555
O29_6 C43_6 1_555 1_555
C57_6 C58_6 1_555 1_555
C58_6 C59_6 1_555 1_555
C59_6 H31_6 1_555 1_555
C63_6 C58_6 1_555 1_555
H33_6 C63_6 1_555 1_555
O75_21 C57_6 1_555 1_555
O84_7 C57_6 1_555 1_555
O39_6 C62_6 1_555 1_555
C70_6 C69_6 1_555 1_555
H37_6 C70_6 1_555 1_555
C73_6 C46_7 1_555 1_555
H39_6 C73_6 1_555 1_555
H40_6 C73_6 1_555 1_555
C74_6 C69_6 1_555 1_555
O42_6 C74_6 1_555 1_555
O115_7 C74_6 1_555 1_555
Zn32 O42_6 1_555 1_555
C43_6 C44_6 1_555 1_555
C45_6 O29_6 1_555 1_555
C62_6 C63_6 1_555 1_555
C48_6 C49_6 1_555 1_555
C49_6 C50_6 1_555 1_555
C50_6 H26_6 1_555 1_555
C51_6 C50_6 1_555 1_555
C52_6 C51_6 1_555 1_555
H27_6 C52_6 1_555 1_555
C53_6 C52_6 1_555 1_555
C54_6 C49_6 1_555 1_555
H28_6 C54_6 1_555 1_555
C55_6 C46_8 1_555 1_555
H29_6 C55_6 1_555 1_555
H30_6 C55_6 1_555 1_555
C56_6 C51_6 1_555 1_555
O75_4 C48_6 1_555 1_555
O80_2 C48_6 1_555 1_555
O97_5 C56_6 1_555 1_555
O113_2 C56_6 1_555 1_555
O34_6 C53_6 1_555 1_555
C61_6 C60_6 1_555 1_555
H32_6 C61_6 1_555 1_555
C64_6 C46_8 1_555 1_555
H34_6 C64_6 1_555 1_555
H35_6 C64_6 1_555 1_555
C65_6 C60_6 1_555 1_555
O37_6 C65_6 1_555 1_555
O115_6 C65_6 1_555 1_555
C66_6 C67_6 1_555 1_555
C67_6 C68_6 1_555 1_555
C68_6 H36_6 1_555 1_555
C72_6 C67_6 1_555 1_555
H38_6 C72_6 1_555 1_555
O75_23 C66_6 1_555 1_555
O84_6 C66_6 1_555 1_555
O44_6 C71_6 1_555 1_555
C75_10 C76_10 1_555 1_555
C76_10 C77_10 1_555 1_555
C77_10 H41_10 1_555 1_555
C81_10 C76_10 1_555 1_555
H43_10 C81_10 1_555 1_555
O75_20 C75_10 1_555 1_555
O81_6 C75_10 1_555 1_555
O54_10 C80_10 1_555 1_555
C89_10 C88_10 1_555 1_555
H47_10 C89_10 1_555 1_555
C92_10 C83_31 1_555 1_555
H49_10 C92_10 1_555 1_555
H50_10 C92_10 1_555 1_555
C93_10 C88_10 1_555 1_555
O57_8 C93_10 1_555 1_555
O113_7 C93_10 1_555 1_555
C103_10 C104_10 1_555 1_555
C104_10 C105_10 1_555 1_555
C105_10 H56_10 1_555 1_555
C106_10 C105_10 1_555 1_555
C107_10 C106_10 1_555 1_555
H57_10 C107_10 1_555 1_555
C108_10 C107_10 1_555 1_555
C109_10 C104_10 1_555 1_555
H58_10 C109_10 1_555 1_555
C110_10 C83_31 1_555 1_555
H59_10 C110_10 1_555 1_555
H60_10 C110_10 1_555 1_555
C111_10 C106_10 1_555 1_555
O75_5 C103_10 1_555 1_555
O81_4 C103_10 1_555 1_555
O67_8 C111_10 1_555 1_555
O112_3 C111_10 1_555 1_555
O69_10 C108_10 1_555 1_555
P4_14 O95_6 1_555 1_555
O90_3 P4_14 1_555 1_555
Zn44_4 O57_8 1_555 1_555
Zn36_5 O67_8 1_555 1_555
Zn32_3 O37_6 1_555 1_555
C53_6 C54_6 1_555 1_555
C55_6 O34_6 1_555 1_555
C71_6 C72_6 1_555 1_555
C80_10 C81_10 1_555 1_555
C108_10 C109_10 1_555 1_555
C110_10 O69_10 1_555 1_555
P4_14 O93_6 1_555 1_555
C79_10 C78_10 1_555 1_555
H42_10 C79_10 1_555 1_555
C82_10 H44_10 1_555 1_555
H45_10 C82_10 1_555 1_555
C83_32 C82_10 1_555 1_555
C84_10 C78_10 1_555 1_555
O52_8 C84_10 1_555 1_555
O113_8 C84_10 1_555 1_555
C85_10 C86_10 1_555 1_555
C86_10 C87_10 1_555 1_555
C87_10 H46_10 1_555 1_555
C91_10 C86_10 1_555 1_555
H48_10 C91_10 1_555 1_555
O75_18 C85_10 1_555 1_555
O81_5 C85_10 1_555 1_555
O59_10 C90_10 1_555 1_555
C94_10 C95_10 1_555 1_555
C95_10 C96_10 1_555 1_555
C96_10 H51_10 1_555 1_555
C97_10 C96_10 1_555 1_555
C98_10 C97_10 1_555 1_555
H52_10 C98_10 1_555 1_555
C99_10 C98_10 1_555 1_555
C100_10 C95_10 1_555 1_555
H53_10 C100_10 1_555 1_555
C101_10 C83_32 1_555 1_555
H54_10 C101_10 1_555 1_555
H55_10 C101_10 1_555 1_555
C102_10 C97_10 1_555 1_555
O75_7 C94_10 1_555 1_555
O81_3 C94_10 1_555 1_555
O62_8 C102_10 1_555 1_555
O112_4 C102_10 1_555 1_555
O64_10 C99_10 1_555 1_555
Zn44_3 O52_8 1_555 1_555
Zn36_7 O62_8 1_555 1_555
C90_10 C91_10 1_555 1_555
C99_10 C100_10 1_555 1_555
C101_10 O64_10 1_555 1_555
P4_15 O95_7 1_555 1_555
O91_4 P4_15 1_555 1_555
P4_15 O93_7 1_555 1_555
P4_16 O95_5 1_555 1_555
O91_3 P4_16 1_555 1_555
P4_16 O93_5 1_555 1_555
O75_25 Zn32_2 1_555 1_555
O75_26 Zn32_4 1_555 1_555
O75_27 Zn32_3 1_555 1_555
O75_28 Zn32 1_555 1_555
O75_29 Zn36_6 1_555 1_555
O112_9 Zn44 1_555 1_555
O113_9 Zn44_2 1_555 1_555
O75_30 Zn36_8 1_555 1_555
O75_31 Zn36_5 1_555 1_555
O112_10 Zn44_4 1_555 1_555
O113_10 Zn44_3 1_555 1_555
O75_32 Zn36_7 1_555 1_555
C42_7 C41_7 1_555 1_555
H22_7 C42_7 1_555 1_555
C45_7 H24_7 1_555 1_555
H25_7 C45_7 1_555 1_555
C46_9 C45_7 1_555 1_555
C47_7 C41_7 1_555 1_555
O100 C47_7 1_555 1_555
O115_11 C47_7 1_555 1_555
C48_7 C49_7 1_555 1_555
C49_7 C50_7 1_555 1_555
C50_7 H26_7 1_555 1_555
C54_7 C49_7 1_555 1_555
H28_7 C54_7 1_555 1_555
O75_25 C48_7 1_555 1_555
O82 C48_7 1_555 1_555
O34_7 C53_7 1_555 1_555
C57_7 C58_7 1_555 1_555
C58_7 C59_7 1_555 1_555
C59_7 H31_7 1_555 1_555
C60_7 C59_7 1_555 1_555
C61_7 C60_7 1_555 1_555
H32_7 C61_7 1_555 1_555
C62_7 C61_7 1_555 1_555
C63_7 C58_7 1_555 1_555
H33_7 C63_7 1_555 1_555
C64_7 C46_9 1_555 1_555
H34_7 C64_7 1_555 1_555
H35_7 C64_7 1_555 1_555
C65_7 C60_7 1_555 1_555
O75_30 C57_7 1_555 1_555
O85_7 C57_7 1_555 1_555
O105 C65_7 1_555 1_555
O113_9 C65_7 1_555 1_555
O39_7 C62_7 1_555 1_555
C53_7 C54_7 1_555 1_555
C62_7 C63_7 1_555 1_555
C64_7 O39_7 1_555 1_555
C38_7 C39_7 1_555 1_555
C39_7 C40_7 1_555 1_555
C40_7 H21_7 1_555 1_555
C44_7 C39_7 1_555 1_555
H23_7 C44_7 1_555 1_555
O75_27 C38_7 1_555 1_555
O83_2 C38_7 1_555 1_555
O29_7 C43_7 1_555 1_555
C52_7 C51_7 1_555 1_555
H27_7 C52_7 1_555 1_555
C55_7 C46_10 1_555 1_555
H29_7 C55_7 1_555 1_555
H30_7 C55_7 1_555 1_555
C56_7 C51_7 1_555 1_555
O101 C56_7 1_555 1_555
O115_10 C56_7 1_555 1_555
C66_7 C67_7 1_555 1_555
C67_7 C68_7 1_555 1_555
C68_7 H36_7 1_555 1_555
C69_7 C68_7 1_555 1_555
C70_7 C69_7 1_555 1_555
H37_7 C70_7 1_555 1_555
C71_7 C70_7 1_555 1_555
C72_7 C67_7 1_555 1_555
H38_7 C72_7 1_555 1_555
C73_7 C46_10 1_555 1_555
H39_7 C73_7 1_555 1_555
H40_7 C73_7 1_555 1_555
C74_7 C69_7 1_555 1_555
O75_32 C66_7 1_555 1_555
O85_5 C66_7 1_555 1_555
O104_2 C74_7 1_555 1_555
O113_10 C74_7 1_555 1_555
O44_7 C71_7 1_555 1_555
C43_7 C44_7 1_555 1_555
C71_7 C72_7 1_555 1_555
C73_7 O44_7 1_555 1_555
C42_8 C41_8 1_555 1_555
H22_8 C42_8 1_555 1_555
C45_8 H24_8 1_555 1_555
H25_8 C45_8 1_555 1_555
C46_11 C45_8 1_555 1_555
C47_8 C41_8 1_555 1_555
O102 C47_8 1_555 1_555
O115_12 C47_8 1_555 1_555
C48_8 C49_8 1_555 1_555
C49_8 C50_8 1_555 1_555
C50_8 H26_8 1_555 1_555
C54_8 C49_8 1_555 1_555
H28_8 C54_8 1_555 1_555
O75_28 C48_8 1_555 1_555
O83 C48_8 1_555 1_555
O34_8 C53_8 1_555 1_555
C57_8 C58_8 1_555 1_555
C58_8 C59_8 1_555 1_555
C59_8 H31_8 1_555 1_555
C60_8 C59_8 1_555 1_555
C61_8 C60_8 1_555 1_555
H32_8 C61_8 1_555 1_555
C62_8 C61_8 1_555 1_555
C63_8 C58_8 1_555 1_555
H33_8 C63_8 1_555 1_555
C64_8 C46_11 1_555 1_555
H34_8 C64_8 1_555 1_555
H35_8 C64_8 1_555 1_555
C65_8 C60_8 1_555 1_555
O75_29 C57_8 1_555 1_555
O85_8 C57_8 1_555 1_555
O104 C65_8 1_555 1_555
O112_9 C65_8 1_555 1_555
O39_8 C62_8 1_555 1_555
C53_8 C54_8 1_555 1_555
C62_8 C63_8 1_555 1_555
C64_8 O39_8 1_555 1_555
C38_8 C39_8 1_555 1_555
C39_8 C40_8 1_555 1_555
C40_8 H21_8 1_555 1_555
C44_8 C39_8 1_555 1_555
H23_8 C44_8 1_555 1_555
O75_26 C38_8 1_555 1_555
O82_2 C38_8 1_555 1_555
O29_8 C43_8 1_555 1_555
C52_8 C51_8 1_555 1_555
H27_8 C52_8 1_555 1_555
C55_8 C46_12 1_555 1_555
H29_8 C55_8 1_555 1_555
H30_8 C55_8 1_555 1_555
C56_8 C51_8 1_555 1_555
O101_2 C56_8 1_555 1_555
O115_9 C56_8 1_555 1_555
C66_8 C67_8 1_555 1_555
C67_8 C68_8 1_555 1_555
C68_8 H36_8 1_555 1_555
C69_8 C68_8 1_555 1_555
C70_8 C69_8 1_555 1_555
H37_8 C70_8 1_555 1_555
C71_8 C70_8 1_555 1_555
C72_8 C67_8 1_555 1_555
H38_8 C72_8 1_555 1_555
C73_8 C46_12 1_555 1_555
H39_8 C73_8 1_555 1_555
H40_8 C73_8 1_555 1_555
C74_8 C69_8 1_555 1_555
O75_31 C66_8 1_555 1_555
O85_6 C66_8 1_555 1_555
O105_2 C74_8 1_555 1_555
O112_10 C74_8 1_555 1_555
O44_8 C71_8 1_555 1_555
C43_8 C44_8 1_555 1_555
C71_8 C72_8 1_555 1_555
C73_8 O44_8 1_555 1_555
C75_11 C76_11 1_555 1_555
C76_11 C77_11 1_555 1_555
C77_11 H41_11 1_555 1_555
C81_11 C76_11 1_555 1_555
H43_11 C81_11 1_555 1_555
O75_13 C75_11 1_555 1_555
O79_3 C75_11 1_555 1_555
O54_11 C80_11 1_555 1_555
C89_11 C88_11 1_555 1_555
H47_11 C89_11 1_555 1_555
C92_11 C83_33 1_555 1_555
H49_11 C92_11 1_555 1_555
H50_11 C92_11 1_555 1_555
C93_11 C88_11 1_555 1_555
O105_4 C93_11 1_555 1_555
O112_6 C93_11 1_555 1_555
C103_11 C104_11 1_555 1_555
C104_11 C105_11 1_555 1_555
C105_11 H56_11 1_555 1_555
C106_11 C105_11 1_555 1_555
C107_11 C106_11 1_555 1_555
H57_11 C107_11 1_555 1_555
C108_11 C107_11 1_555 1_555
C109_11 C104_11 1_555 1_555
H58_11 C109_11 1_555 1_555
C110_11 C83_33 1_555 1_555
H59_11 C110_11 1_555 1_555
H60_11 C110_11 1_555 1_555
C111_11 C106_11 1_555 1_555
O75_10 C103_11 1_555 1_555
O84 C103_11 1_555 1_555
O102_4 C111_11 1_555 1_555
O115_4 C111_11 1_555 1_555
O69_11 C108_11 1_555 1_555
C80_11 C81_11 1_555 1_555
C108_11 C109_11 1_555 1_555
C110_11 O69_11 1_555 1_555
C79_11 C78_11 1_555 1_555
H42_11 C79_11 1_555 1_555
C82_11 H44_11 1_555 1_555
H45_11 C82_11 1_555 1_555
C83_34 C82_11 1_555 1_555
C84_11 C78_11 1_555 1_555
O104_3 C84_11 1_555 1_555
O112_5 C84_11 1_555 1_555
C85_11 C86_11 1_555 1_555
C86_11 C87_11 1_555 1_555
C87_11 H46_11 1_555 1_555
C91_11 C86_11 1_555 1_555
H48_11 C91_11 1_555 1_555
O75_15 C85_11 1_555 1_555
O79_4 C85_11 1_555 1_555
O59_11 C90_11 1_555 1_555
C94_11 C95_11 1_555 1_555
C95_11 C96_11 1_555 1_555
C96_11 H51_11 1_555 1_555
C97_11 C96_11 1_555 1_555
C98_11 C97_11 1_555 1_555
H52_11 C98_11 1_555 1_555
C99_11 C98_11 1_555 1_555
C100_11 C95_11 1_555 1_555
H53_11 C100_11 1_555 1_555
C101_11 C83_34 1_555 1_555
H54_11 C101_11 1_555 1_555
H55_11 C101_11 1_555 1_555
C102_11 C97_11 1_555 1_555
O75_12 C94_11 1_555 1_555
O84_4 C94_11 1_555 1_555
O101_8 C102_11 1_555 1_555
O115 C102_11 1_555 1_555
O64_11 C99_11 1_555 1_555
C90_11 C91_11 1_555 1_555
C99_11 C100_11 1_555 1_555
C101_11 O64_11 1_555 1_555
C75_12 C76_12 1_555 1_555
C76_12 C77_12 1_555 1_555
C77_12 H41_12 1_555 1_555
C81_12 C76_12 1_555 1_555
H43_12 C81_12 1_555 1_555
O75_16 C75_12 1_555 1_555
O80_4 C75_12 1_555 1_555
O54_12 C80_12 1_555 1_555
C89_12 C88_12 1_555 1_555
H47_12 C89_12 1_555 1_555
C92_12 C83_35 1_555 1_555
H49_12 C92_12 1_555 1_555
H50_12 C92_12 1_555 1_555
C93_12 C88_12 1_555 1_555
O105_3 C93_12 1_555 1_555
O113_5 C93_12 1_555 1_555
C103_12 C104_12 1_555 1_555
C104_12 C105_12 1_555 1_555
C105_12 H56_12 1_555 1_555
C106_12 C105_12 1_555 1_555
C107_12 C106_12 1_555 1_555
H57_12 C107_12 1_555 1_555
C108_12 C107_12 1_555 1_555
C109_12 C104_12 1_555 1_555
H58_12 C109_12 1_555 1_555
C110_12 C83_35 1_555 1_555
H59_12 C110_12 1_555 1_555
H60_12 C110_12 1_555 1_555
C111_12 C106_12 1_555 1_555
O75_9 C103_12 1_555 1_555
O84_3 C103_12 1_555 1_555
O101_7 C111_12 1_555 1_555
O115_2 C111_12 1_555 1_555
O69_12 C108_12 1_555 1_555
C80_12 C81_12 1_555 1_555
C108_12 C109_12 1_555 1_555
C110_12 O69_12 1_555 1_555
C79_12 C78_12 1_555 1_555
H42_12 C79_12 1_555 1_555
C82_12 H44_12 1_555 1_555
H45_12 C82_12 1_555 1_555
C83_36 C82_12 1_555 1_555
C84_12 C78_12 1_555 1_555
O104_4 C84_12 1_555 1_555
O113_6 C84_12 1_555 1_555
C85_12 C86_12 1_555 1_555
C86_12 C87_12 1_555 1_555
C87_12 H46_12 1_555 1_555
C91_12 C86_12 1_555 1_555
H48_12 C91_12 1_555 1_555
O75_14 C85_12 1_555 1_555
O80_3 C85_12 1_555 1_555
O59_12 C90_12 1_555 1_555
C94_12 C95_12 1_555 1_555
C95_12 C96_12 1_555 1_555
C96_12 H51_12 1_555 1_555
C97_12 C96_12 1_555 1_555
C98_12 C97_12 1_555 1_555
H52_12 C98_12 1_555 1_555
C99_12 C98_12 1_555 1_555
C100_12 C95_12 1_555 1_555
H53_12 C100_12 1_555 1_555
C101_12 C83_36 1_555 1_555
H54_12 C101_12 1_555 1_555
H55_12 C101_12 1_555 1_555
C102_12 C97_12 1_555 1_555
O75_11 C94_12 1_555 1_555
O84_2 C94_12 1_555 1_555
O100_4 C102_12 1_555 1_555
O115_3 C102_12 1_555 1_555
O64_12 C99_12 1_555 1_555
C90_12 C91_12 1_555 1_555
C99_12 C100_12 1_555 1_555
C101_12 O64_12 1_555 1_555

#END
