
###############################################################################
#
# This file contains modified crystal structure data generated from the
# MOF subset of the Cambridge Structural Database (CSD) v543 
# hosted by the Cambridge Crystallographic Data Centre (CCDC).
#
# This work is licensed under the Creative Commons
# Attribution-NonCommercial-ShareAlike 4.0 International License.
# To view a copy of this license, visit
# http://creativecommons.org/licenses/by-nc-sa/4.0/
# or send a letter to
# Creative Commons, PO Box 1866, Mountain View, CA 94042, USA.
#
# CIF created using the CSD Python API on 29 September 2022
# The structure has been converted into the P1 space group
# The structure has a 3D framework
# The original CSD entry NIMLAZ is in the rhombohedral crystal system
# The original CSD entry NIMLAZ is in a Sohncke space group
# The framework has been calculated to contain at least 10.0% void space
# The void calculation uses a probe of radius 1.32A, grid spacing 0.4
# H atom positions have been added when not included in the experimental data
#
###############################################################################

data_NIMLAZ
_chemical_formula_moiety         '(C162 H126 Ce7 N11 Na24 O68 11+)n'
_symmetry_cell_setting           triclinic
_symmetry_space_group_name_H-M   'P 1'
_symmetry_Int_Tables_number      1
_space_group_name_Hall           'P 1'
loop_
_symmetry_equiv_pos_site_id
_symmetry_equiv_pos_as_xyz
1 x,y,z
_cell_length_a                   12.8523(4)
_cell_length_b                   12.8523(4)
_cell_length_c                   45.7558(17)
_cell_angle_alpha                90
_cell_angle_beta                 90
_cell_angle_gamma                120
_cell_volume                     6545.43
loop_
_atom_site_label
_atom_site_type_symbol
_atom_site_fract_x
_atom_site_fract_y
_atom_site_fract_z
C12 C 0.0285(9) 0.1863(13) 0.0663(2)
H7 H 0.0838 0.1934 0.0804
C13 C 0.0615(10) 0.2058(14) 0.0369(2)
H8 H 0.1387 0.2243 0.0316
C1 C 0.1251(9) 0.2586(7) 0.89409(16)
C2 C 0.0884(8) 0.2444(8) 0.92559(18)
C5 C 0.0176(10) 0.2159(10) 0.98440(19)
C6 C 0.1349(10) 0.3047(11) 0.9760(2)
H3 H 0.1893 0.3547 0.9901
C7 C 0.1686(8) 0.3172(9) 0.94698(18)
H4 H 0.2461 0.3753 0.9417
Ce1 Ce 0.17776(5) 0.3333 0.8333
O1 O 0.0489(6) 0.1903(5) 0.87511(12)
O2 O 0.2299(6) 0.3376(6) 0.88711(12)
N2 N 0.3832(9) 0.3333 0.8333
O9 O 0.1919(8) 0.4764(5) 0.79156(12)
O10 O 0.2256(8) 0.3291(6) 0.77956(12)
O11 O 0.0855(9) 0.4433(7) 0.85391(14)
O12 O 0.1677(8) 0.1365(6) 0.82651(15)
O13 O 0.3645(6) 0.5302(6) 0.84016(15)
C10 C 0.8749(9) 0.1335(11) 0.10591(16)
C11 C 0.9116(8) 0.1560(11) 0.07441(18)
C14 C 0.9824(10) 0.1983(14) 0.01560(19)
C15 C 0.8651(10) 0.1698(15) 0.0240(2)
H9 H 0.8107 0.1654 0.0099
C16 C 0.8314(8) 0.1486(12) 0.05302(18)
H10 H 0.7539 0.1292 0.0583
O5 O 0.9511(6) 0.1414(8) 0.12489(12)
O6 O 0.7701(6) 0.1077(8) 0.11289(12)
Ce4 Ce 0.82224(5) 0.15554(5) 0.1667
C3 C 0.9715(9) 0.1578(9) 0.9337(2)
H1 H 0.9162 0.1096 0.9196
C4 C 0.9385(10) 0.1443(10) 0.9631(2)
H2 H 0.8613 0.0856 0.9684
C8 C 0.8783(8) 0.1334(8) 0.82149(18)
C9 C 0.7732(13) 0.1505(11) 0.8264(7)
H5 H 0.7933 0.2085 0.8420
H6 H 0.7610 0.1852 0.8088
N1 N 0.6667 0.0499(9) 0.8333
O3 O 0.9756(5) 0.2234(7) 0.81276(14)
O4 O 0.8635(6) 0.0312(6) 0.82651(15)
C18 C 0.5601(13) 0.0440(17) 0.8403(7)
H11 H 0.5400 0.0819 0.8247
H12 H 0.5723 0.0909 0.8579
H13 H 0.643131 0.0381707 0.811871
C17 C 0.4550(8) 0.9218(11) 0.84518(18)
O7 O 0.3577(5) 0.9145(9) 0.85391(14)
O8 O 0.4698(6) 0.8344(8) 0.84016(15)
Ce2 Ce 0.6667 0.84446(5) 0.8333
Ce3 Ce 0.15554(5) 0.82224(5) 0.8333
C17_2 C 0.0782(11) 0.5333(14) 0.84518(18)
O8_2 O 0.1656(8) 0.6355(10) 0.84016(15)
C10_2 C 0.8665(11) 0.7414(14) 0.10591(16)
C11_2 C 0.8440(11) 0.7556(14) 0.07441(18)
C12_2 C 0.8137(13) 0.8422(16) 0.0663(2)
H7_2 H 0.8066 0.8904 0.0804
C13_2 C 0.7942(14) 0.8557(17) 0.0369(2)
H8_2 H 0.7757 0.9144 0.0316
C14_2 C 0.8017(14) 0.7841(17) 0.01560(19)
C15_2 C 0.8302(15) 0.6953(18) 0.0240(2)
H9_2 H 0.8346 0.6453 0.0099
C16_2 C 0.8514(12) 0.6828(14) 0.05302(18)
H10_2 H 0.8708 0.6247 0.0583
O5_2 O 0.8586(8) 0.8097(10) 0.12489(12)
O6_2 O 0.8923(8) 0.6624(10) 0.11289(12)
Ce4_2 Ce 0.84446(5) 0.66670(7) 0.1667
C1_2 C 0.7414(7) 0.8665(11) 0.89409(16)
C2_2 C 0.7556(8) 0.8440(11) 0.92559(18)
C3_2 C 0.8422(9) 0.8137(13) 0.9337(2)
H1_2 H 0.8904 0.8066 0.9196
C4_2 C 0.8557(10) 0.7942(14) 0.9631(2)
H2_2 H 0.9144 0.7757 0.9684
C5_2 C 0.7841(10) 0.8017(14) 0.98440(19)
C6_2 C 0.6953(11) 0.8302(15) 0.9760(2)
H3_2 H 0.6453 0.8346 0.9901
C7_2 C 0.6828(9) 0.8514(12) 0.94698(18)
H4_2 H 0.6247 0.8708 0.9417
C8_2 C 0.8666(8) 0.7449(11) 0.82149(18)
C9_2 C 0.8495(11) 0.6227(17) 0.8264(7)
H5_2 H 0.7915 0.5848 0.8420
H6_2 H 0.8148 0.5758 0.8088
N1_2 N 0.9501(9) 0.6168(9) 0.8333
O1_2 O 0.8097(5) 0.8586(8) 0.87511(12)
O2_2 O 0.6624(6) 0.8923(8) 0.88711(12)
O3_2 O 0.7766(7) 0.7522(9) 0.81276(14)
O4_2 O 0.9688(6) 0.8323(8) 0.82651(15)
C18_2 C 0.9560(17) 0.5162(21) 0.8403(7)
H11_2 H 0.9181 0.4582 0.8247
H12_2 H 0.9091 0.4815 0.8579
O9_2 O 0.5236(5) 0.7156(9) 0.79156(12)
O10_2 O 0.6709(6) 0.8966(10) 0.77956(12)
O11_2 O 0.5567(7) 0.6423(11) 0.85391(14)
H13_2 H 0.961829 0.604961 0.811871
C10_3 C 0.2586(14) 0.1251(9) 0.10591(16)
C11_3 C 0.2444(14) 0.0884(8) 0.07441(18)
C14_3 C 0.2159(17) 0.0176(10) 0.01560(19)
C15_3 C 0.3047(18) 0.1349(10) 0.0240(2)
H9_3 H 0.3547 0.1893 0.0099
C16_3 C 0.3172(14) 0.1686(8) 0.05302(18)
H10_3 H 0.3753 0.2461 0.0583
O5_3 O 0.1903(10) 0.0489(6) 0.12489(12)
O6_3 O 0.3376(10) 0.2299(6) 0.11289(12)
Ce4_3 Ce 0.33330(7) 0.17776(5) 0.1667
C3_3 C 0.1863(13) 0.0285(9) 0.9337(2)
H1_3 H 0.1934 0.0838 0.9196
C4_3 C 0.2058(14) 0.0615(10) 0.9631(2)
H2_3 H 0.2243 0.1387 0.9684
C8_3 C 0.2551(11) 0.1217(8) 0.82149(18)
C9_3 C 0.3773(17) 0.2268(13) 0.8264(7)
H5_3 H 0.4152 0.2067 0.8420
H6_3 H 0.4242 0.2390 0.8088
O3_3 O 0.2478(9) 0.0244(5) 0.81276(14)
C17_3 C 0.4667(14) 0.5450(8) 0.84518(18)
C18_3 C 0.4838(21) 0.4399(13) 0.8403(7)
H11_3 H 0.5418 0.4600 0.8247
H12_3 H 0.5185 0.4277 0.8579
H13_3 H 0.395039 0.356869 0.811871
C12_3 C 0.1578(16) 0.9715(9) 0.0663(2)
H7_3 H 0.1096 0.9162 0.0804
C13_3 C 0.1443(17) 0.9385(10) 0.0369(2)
H8_3 H 0.0856 0.8613 0.0316
C1_3 C 0.1335(11) 0.8749(9) 0.89409(16)
C2_3 C 0.1560(11) 0.9116(8) 0.92559(18)
C5_3 C 0.1983(14) 0.9824(10) 0.98440(19)
C6_3 C 0.1698(15) 0.8651(10) 0.9760(2)
H3_3 H 0.1654 0.8107 0.9901
C7_3 C 0.1486(12) 0.8314(8) 0.94698(18)
H4_3 H 0.1292 0.7539 0.9417
O1_3 O 0.1414(8) 0.9511(6) 0.87511(12)
O2_3 O 0.1077(8) 0.7701(6) 0.88711(12)
O9_3 O 0.2844(9) 0.8081(8) 0.79156(12)
O10_3 O 0.1034(10) 0.7744(8) 0.77956(12)
N2_2 N 0.0499(9) 0.6667 0.1667
O12_2 O 0.0312(10) 0.8635(6) 0.17349(15)
C17_4 C 0.5333(14) 0.0782(11) 0.15482(18)
O7_2 O 0.4433(10) 0.0855(9) 0.14609(14)
O8_3 O 0.6355(10) 0.1656(8) 0.15984(15)
C8_4 C 0.7449(11) 0.8666(8) 0.17851(18)
C9_4 C 0.6227(17) 0.8495(11) 0.1736(7)
H5_4 H 0.5848 0.7915 0.1580
H6_4 H 0.5758 0.8148 0.1912
N1_3 N 0.6168(9) 0.9501(9) 0.1667
O3_4 O 0.7522(9) 0.7766(7) 0.18724(14)
O4_3 O 0.8323(8) 0.9688(6) 0.17349(15)
C18_4 C 0.5162(21) 0.9560(17) 0.1597(7)
H11_4 H 0.4582 0.9181 0.1753
H12_4 H 0.4815 0.9091 0.1421
O9_4 O 0.7156(9) 0.5236(5) 0.20844(12)
O10_4 O 0.8966(10) 0.6709(6) 0.22044(12)
O11_3 O 0.6423(11) 0.5567(7) 0.14609(14)
O13_2 O 0.8344(8) 0.4698(6) 0.15984(15)
H13_4 H 0.604961 0.961829 0.188129
N2_3 N 0.3333 0.3832(9) 0.1667
O9_5 O 0.4764(5) 0.1919(8) 0.20844(12)
O10_5 O 0.3291(6) 0.2256(8) 0.22044(12)
O12_3 O 0.1365(6) 0.1677(8) 0.17349(15)
O13_3 O 0.5302(6) 0.3645(6) 0.15984(15)
C8_5 C 0.1334(8) 0.8783(8) 0.17851(18)
C9_5 C 0.1505(11) 0.7732(13) 0.1736(7)
H5_5 H 0.2085 0.7933 0.1580
H6_5 H 0.1852 0.7610 0.1912
O3_5 O 0.2234(7) 0.9756(5) 0.18724(14)
C18_5 C 0.0440(17) 0.5601(13) 0.1597(7)
H11_5 H 0.0819 0.5400 0.1753
H12_5 H 0.0909 0.5723 0.1421
H13_5 H 0.0381707 0.643131 0.188129
C17_5 C 0.9218(11) 0.4550(8) 0.15482(18)
O7_3 O 0.9145(9) 0.3577(5) 0.14609(14)
C8_6 C 0.1217(8) 0.2551(11) 0.17851(18)
C9_6 C 0.2268(13) 0.3773(17) 0.1736(7)
H5_6 H 0.2067 0.4152 0.1580
H6_6 H 0.2390 0.4242 0.1912
O3_6 O 0.0244(5) 0.2478(9) 0.18724(14)
C17_6 C 0.5450(8) 0.4667(14) 0.15482(18)
C18_6 C 0.4399(13) 0.4838(21) 0.1597(7)
H11_6 H 0.4600 0.5418 0.1753
H12_6 H 0.4277 0.5185 0.1421
H13_6 H 0.356869 0.395039 0.188129
O9_6 O 0.8081(8) 0.2844(9) 0.20844(12)
O10_6 O 0.7744(8) 0.1034(10) 0.22044(12)
C1_4 C 0.7918(9) 0.5919(7) 0.22742(16)
C2_4 C 0.7551(8) 0.5777(8) 0.25892(18)
C3_4 C 0.6382(9) 0.4911(9) 0.2670(2)
H1_4 H 0.5829 0.4429 0.2529
C4_4 C 0.6052(10) 0.4776(10) 0.2964(2)
H2_4 H 0.5280 0.4189 0.3017
C5_4 C 0.6843(10) 0.5492(10) 0.31773(19)
C6_4 C 0.8016(10) 0.6380(11) 0.3093(2)
H3_4 H 0.8560 0.6880 0.3234
C7_4 C 0.8353(8) 0.6505(9) 0.28031(18)
H4_4 H 0.9128 0.7086 0.2750
C10_4 C 0.5416(9) 0.4668(11) 0.43924(16)
C11_4 C 0.5783(8) 0.4893(11) 0.40774(18)
C12_4 C 0.6952(9) 0.5196(13) 0.3996(2)
H7_4 H 0.7505 0.5267 0.4137
C13_4 C 0.7282(10) 0.5391(14) 0.3702(2)
H8_4 H 0.8054 0.5576 0.3649
C14_4 C 0.6491(10) 0.5316(14) 0.34893(19)
C15_4 C 0.5318(10) 0.5031(15) 0.3573(2)
H9_4 H 0.4774 0.4987 0.3432
C16_4 C 0.4981(8) 0.4819(12) 0.38635(18)
H10_4 H 0.4206 0.4625 0.3916
O5_4 O 0.6178(6) 0.4747(8) 0.45822(12)
O6_4 O 0.4368(6) 0.4410(8) 0.44622(12)
Ce4_4 Ce 0.48891(5) 0.48887(5) 0.5000
H13_7 H 0.309798 0.371504 0.145204
C1_5 C 0.4081(7) 0.1998(11) 0.22742(16)
C2_5 C 0.4223(8) 0.1773(11) 0.25892(18)
C3_5 C 0.5089(9) 0.1470(13) 0.2670(2)
H1_5 H 0.5571 0.1399 0.2529
C4_5 C 0.5224(10) 0.1275(14) 0.2964(2)
H2_5 H 0.5811 0.1090 0.3017
C5_5 C 0.4508(10) 0.1350(14) 0.31773(19)
C6_5 C 0.3620(11) 0.1635(15) 0.3093(2)
H3_5 H 0.3120 0.1679 0.3234
C7_5 C 0.3495(9) 0.1847(12) 0.28031(18)
H4_5 H 0.2914 0.2041 0.2750
C10_5 C 0.5332(11) 0.0747(14) 0.43924(16)
C11_5 C 0.5107(11) 0.0889(14) 0.40774(18)
C12_5 C 0.4804(13) 0.1755(16) 0.3996(2)
H7_5 H 0.4733 0.2237 0.4137
C13_5 C 0.4609(14) 0.1890(17) 0.3702(2)
H8_5 H 0.4424 0.2477 0.3649
C14_5 C 0.4684(14) 0.1174(17) 0.34893(19)
C15_5 C 0.4969(15) 0.0286(18) 0.3573(2)
C16_5 C 0.5181(12) 0.0161(14) 0.38635(18)
O5_5 O 0.5253(8) 0.1430(10) 0.45822(12)
Ce4_5 Ce 0.51113(5) 0.00003(7) 0.5000
H9_5 H 0.5013 0.9786 0.3432
H10_5 H 0.5375 0.9580 0.3916
O6_5 O 0.5590(8) 0.9957(10) 0.44622(12)
Ce4_6 Ce 0.51113(5) 1.00003(7) 0.5000
H13_8 H 0.628496 0.938294 0.145204
H9_6 H 0.0214 0.5226 0.3432
H10_6 H 0.0420 0.5794 0.3916
O6_6 O 0.0043(10) 0.5632(6) 0.44622(12)
Ce4_7 Ce -0.00003(7) 0.51109(5) 0.5000
H13_9 H 0.0617059 0.690202 0.145204
C1_6 C 0.8002(11) 0.2082(9) 0.22742(16)
C2_6 C 0.8227(11) 0.2449(8) 0.25892(18)
C3_6 C 0.8530(13) 0.3618(9) 0.2670(2)
H1_6 H 0.8601 0.4171 0.2529
C4_6 C 0.8725(14) 0.3948(10) 0.2964(2)
H2_6 H 0.8910 0.4720 0.3017
C5_6 C 0.8650(14) 0.3157(10) 0.31773(19)
C6_6 C 0.8365(15) 0.1984(10) 0.3093(2)
H3_6 H 0.8321 0.1440 0.3234
C7_6 C 0.8153(12) 0.1647(8) 0.28031(18)
H4_6 H 0.7959 0.0872 0.2750
C10_6 C 0.9253(14) 0.4584(9) 0.43924(16)
C11_6 C 0.9111(14) 0.4217(8) 0.40774(18)
C12_6 C 0.8245(16) 0.3048(9) 0.3996(2)
H7_6 H 0.7763 0.2495 0.4137
C13_6 C 0.8110(17) 0.2718(10) 0.3702(2)
H8_6 H 0.7523 0.1946 0.3649
C14_6 C 0.8826(17) 0.3509(10) 0.34893(19)
C15_6 C 0.9714(18) 0.4682(10) 0.3573(2)
C16_6 C 0.9839(14) 0.5019(8) 0.38635(18)
O5_6 O 0.8570(10) 0.3822(6) 0.45822(12)
Ce4_8 Ce 0.99997(7) 0.51109(5) 0.5000
C8_7 C 0.4116(11) 0.1999(8) 0.51184(18)
C9_7 C 0.2894(17) 0.1828(11) 0.5069(7)
H5_7 H 0.2515 0.1248 0.4913
H6_7 H 0.2425 0.1481 0.5245
N1_4 N 0.2835(9) 0.2834(9) 0.5000
O3_7 O 0.4189(9) 0.1099(7) 0.52057(14)
O4_4 O 0.4990(8) 0.3021(6) 0.50682(15)
C17_7 C 0.1999(14) 0.4116(11) 0.48816(18)
C18_7 C 0.1828(21) 0.2894(17) 0.4931(7)
H11_7 H 0.1248 0.2515 0.5087
H12_7 H 0.1481 0.2425 0.4755
O7_4 O 0.1099(10) 0.4189(9) 0.47943(14)
O8_4 O 0.3021(10) 0.4990(8) 0.49318(15)
N2_4 N 0.7166(9) 0.0000 0.5000
O10_7 O 0.5632(10) 0.0043(6) 0.55378(12)
O12_4 O 0.6979(10) 0.1968(6) 0.50682(15)
H13_10 H 0.271627 0.295163 0.521463
N2_5 N 0.7166(9) 1.0000 0.5000
O9_7 O 0.3822(9) 0.8570(5) 0.54178(12)
O11_4 O 0.3089(11) 0.8901(7) 0.47943(14)
O13_4 O 0.5010(8) 0.8032(6) 0.49318(15)
N2_6 N -0.0000 0.7165(9) 0.5000
O9_8 O 0.1430(5) 0.5253(8) 0.54178(12)
O13_5 O 0.1968(6) 0.6979(6) 0.49318(15)
C8_8 C 0.8001(8) 0.2116(8) 0.51184(18)
C9_8 C 0.8172(11) 0.1065(13) 0.5069(7)
H5_8 H 0.8752 0.1266 0.4913
H6_8 H 0.8519 0.0943 0.5245
O3_8 O 0.8901(7) 0.3089(5) 0.52057(14)
N2_7 N 1.0000 0.7165(9) 0.5000
O10_8 O 0.9957(6) 0.5590(8) 0.55378(12)
O12_5 O 0.8032(6) 0.5010(8) 0.50682(15)
C17_8 C 0.5884(11) 0.7884(8) 0.48816(18)
C18_8 C 0.7106(17) 0.8935(13) 0.4931(7)
H11_8 H 0.7485 0.8734 0.5087
H12_8 H 0.7575 0.9057 0.4755
O7_5 O 0.5811(9) 0.6911(5) 0.47943(14)
H13_11 H 0.704837 0.976465 0.521463
C17_9 C 0.2116(8) 0.8001(14) 0.48816(18)
C18_9 C 0.1065(13) 0.8172(21) 0.4931(7)
H11_9 H 0.1266 0.8752 0.5087
H12_9 H 0.0943 0.8519 0.4755
H13_12 H 0.0235352 0.728373 0.521463
C8_9 C 0.7884(8) 0.5884(11) 0.51184(18)
C9_9 C 0.8935(13) 0.7106(17) 0.5069(7)
H5_9 H 0.8734 0.7485 0.4913
H6_9 H 0.9057 0.7575 0.5245
O3_9 O 0.6911(5) 0.5811(9) 0.52057(14)
O9_9 O 0.4747(8) 0.6178(9) 0.54178(12)
O10_9 O 0.4410(8) 0.4368(10) 0.55378(12)
H3_7 H 0.5226 0.0214 0.6568
H4_7 H 0.5794 0.0420 0.6084
C1_7 C 0.4584(9) 0.9253(7) 0.56076(16)
C2_7 C 0.4217(8) 0.9111(8) 0.59226(18)
C3_7 C 0.3048(9) 0.8245(9) 0.6004(2)
H1_7 H 0.2495 0.7763 0.5863
C4_7 C 0.2718(10) 0.8110(10) 0.6298(2)
H2_7 H 0.1946 0.7523 0.6351
C5_7 C 0.3509(10) 0.8826(10) 0.65107(19)
C6_7 C 0.4682(10) 0.9714(11) 0.6427(2)
C7_7 C 0.5019(8) 0.9839(9) 0.61365(18)
C10_7 C 0.2082(9) 0.8002(11) 0.77258(16)
C11_7 C 0.2449(8) 0.8227(11) 0.74108(18)
C12_7 C 0.3618(9) 0.8530(13) 0.7330(2)
H7_7 H 0.4171 0.8601 0.7471
C13_7 C 0.3948(10) 0.8725(14) 0.7036(2)
H8_7 H 0.4720 0.8910 0.6983
C14_7 C 0.3157(10) 0.8650(14) 0.68227(19)
C15_7 C 0.1984(10) 0.8365(15) 0.6907(2)
H9_7 H 0.1440 0.8321 0.6766
C16_7 C 0.1647(8) 0.8153(12) 0.71969(18)
H10_7 H 0.0872 0.7959 0.7250
H13_13 H 0.976465 0.704837 0.478537
C1_8 C 0.0747(7) 0.5332(11) 0.56076(16)
C2_8 C 0.0889(8) 0.5107(11) 0.59226(18)
C3_8 C 0.1755(9) 0.4804(13) 0.6004(2)
H1_8 H 0.2237 0.4733 0.5863
C4_8 C 0.1890(10) 0.4609(14) 0.6298(2)
H2_8 H 0.2477 0.4424 0.6351
C5_8 C 0.1174(10) 0.4684(14) 0.65107(19)
C6_8 C 0.0286(11) 0.4969(15) 0.6427(2)
C7_8 C 0.0161(9) 0.5181(12) 0.61365(18)
C10_8 C 0.1998(11) 0.4081(14) 0.77258(16)
C11_8 C 0.1773(11) 0.4223(14) 0.74108(18)
C12_8 C 0.1470(13) 0.5089(16) 0.7330(2)
H7_8 H 0.1399 0.5571 0.7471
C13_8 C 0.1275(14) 0.5224(17) 0.7036(2)
H8_8 H 0.1090 0.5811 0.6983
C14_8 C 0.1350(14) 0.4508(17) 0.68227(19)
C15_8 C 0.1635(15) 0.3620(18) 0.6907(2)
H9_8 H 0.1679 0.3120 0.6766
C16_8 C 0.1847(12) 0.3495(14) 0.71969(18)
H10_8 H 0.2041 0.2914 0.7250
H13_14 H 0.295163 0.271627 0.478537
H3_8 H 0.9786 0.5013 0.6568
H4_8 H 0.9580 0.5375 0.6084
H13_15 H 0.728373 0.0235352 0.478537
C1_9 C 0.4668(11) 0.5416(9) 0.56076(16)
C2_9 C 0.4893(11) 0.5783(8) 0.59226(18)
C3_9 C 0.5196(13) 0.6952(9) 0.6004(2)
H1_9 H 0.5267 0.7505 0.5863
C4_9 C 0.5391(14) 0.7282(10) 0.6298(2)
H2_9 H 0.5576 0.8054 0.6351
C5_9 C 0.5316(14) 0.6491(10) 0.65107(19)
C6_9 C 0.5031(15) 0.5318(10) 0.6427(2)
H3_9 H 0.4987 0.4774 0.6568
C7_9 C 0.4819(12) 0.4981(8) 0.61365(18)
H4_9 H 0.4625 0.4206 0.6084
C10_9 C 0.5919(14) 0.7918(9) 0.77258(16)
C11_9 C 0.5777(14) 0.7551(8) 0.74108(18)
C12_9 C 0.4911(16) 0.6382(9) 0.7330(2)
H7_9 H 0.4429 0.5829 0.7471
C13_9 C 0.4776(17) 0.6052(10) 0.7036(2)
H8_9 H 0.4189 0.5280 0.6983
C14_9 C 0.5492(17) 0.6843(10) 0.68227(19)
C15_9 C 0.6380(18) 0.8016(10) 0.6907(2)
H9_9 H 0.6880 0.8560 0.6766
C16_9 C 0.6505(14) 0.8353(8) 0.71969(18)
H10_9 H 0.7086 0.9128 0.7250
H13_16 H 0.938294 0.628496 0.854796
H13_17 H 0.371504 0.309798 0.854796
H13_18 H 0.690202 0.0617059 0.854796
Na1 Na -0.0000 0.0000 0.85505(11)
Na1_2 Na -0.0000 1.0000 0.85505(11)
Na1_3 Na 1.0000 0.0000 0.85505(11)
Na1_4 Na 1.0000 1.0000 0.85505(11)
Na1_5 Na -0.0000 0.0000 0.14495(11)
Na1_6 Na -0.0000 1.0000 0.14495(11)
Na1_7 Na 1.0000 0.0000 0.14495(11)
Na1_8 Na 1.0000 1.0000 0.14495(11)
Na1_9 Na 0.6667 0.3333 0.18838(11)
Na1_10 Na 0.6667 0.3333 0.47828(11)
Na1_11 Na 0.3333 0.6667 0.52172(11)
Na1_12 Na 0.3333 0.6667 0.81162(11)
Na2 Na -0.0000 0.0000 0.7647(5)
Na2_2 Na -0.0000 1.0000 0.7647(5)
Na2_3 Na 1.0000 0.0000 0.7647(5)
Na2_4 Na 1.0000 1.0000 0.7647(5)
Na2_5 Na -0.0000 0.0000 0.2353(5)
Na2_6 Na -0.0000 1.0000 0.2353(5)
Na2_7 Na 1.0000 0.0000 0.2353(5)
Na2_8 Na 1.0000 1.0000 0.2353(5)
Na2_9 Na 0.6667 0.3333 0.0980(5)
Na2_10 Na 0.6667 0.3333 0.5686(5)
Na2_11 Na 0.3333 0.6667 0.4314(5)
Na2_12 Na 0.3333 0.6667 0.9020(5)
loop_
_geom_bond_atom_site_label_1
_geom_bond_atom_site_label_2
_geom_bond_site_symmetry_1
_geom_bond_site_symmetry_2
C12 H7 1_555 1_555
C13 C12 1_555 1_555
H8 C13 1_555 1_555
C1 C2 1_555 1_555
C6 C5 1_555 1_555
H3 C6 1_555 1_555
C7 C2 1_555 1_555
H4 C7 1_555 1_555
Ce1 O1 1_555 1_555
O1 C1 1_555 1_555
O2 C1 1_555 1_555
N2 Ce1 1_555 1_555
O9 Ce1 1_555 1_555
O10 Ce1 1_555 1_555
O11 Ce1 1_555 1_555
O12 Ce1 1_555 1_555
O13 Ce1 1_555 1_555
C6 C7 1_555 1_555
Ce1 O2 1_555 1_555
C10 C11 1_555 1_555
C15 C14 1_555 1_555
H9 C15 1_555 1_555
C16 C11 1_555 1_555
H10 C16 1_555 1_555
O5 C10 1_555 1_555
O6 C10 1_555 1_555
Ce4 O5 1_555 1_555
C15 C16 1_555 1_555
O6 Ce4 1_555 1_555
C3 H1 1_555 1_555
C4 C3 1_555 1_555
H2 C4 1_555 1_555
C8 C9 1_555 1_555
C9 H5 1_555 1_555
H6 C9 1_555 1_555
N1 C9 1_555 1_555
O3 C8 1_555 1_555
O4 C8 1_555 1_555
C18 N1 1_555 1_555
H11 C18 1_555 1_555
H12 C18 1_555 1_555
N1 H13 1_555 1_555
O7 C17 1_555 1_555
O8 C17 1_555 1_555
Ce3 O7 1_555 1_555
O8 Ce2 1_555 1_555
O11 C17_2 1_555 1_555
O8_2 C17_2 1_555 1_555
O8_2 Ce3 1_555 1_555
C10_2 C11_2 1_555 1_555
C11_2 C12_2 1_555 1_555
C12_2 H7_2 1_555 1_555
C13_2 C12_2 1_555 1_555
H8_2 C13_2 1_555 1_555
C15_2 C14_2 1_555 1_555
H9_2 C15_2 1_555 1_555
C16_2 C11_2 1_555 1_555
H10_2 C16_2 1_555 1_555
O5_2 C10_2 1_555 1_555
O6_2 C10_2 1_555 1_555
Ce4_2 O5_2 1_555 1_555
C13_2 C14_2 1_555 1_555
C15_2 C16_2 1_555 1_555
O6_2 Ce4_2 1_555 1_555
C1_2 C2_2 1_555 1_555
C2_2 C3_2 1_555 1_555
C3_2 H1_2 1_555 1_555
C4_2 C3_2 1_555 1_555
H2_2 C4_2 1_555 1_555
C5_2 C4_2 1_555 1_555
C6_2 C5_2 1_555 1_555
H3_2 C6_2 1_555 1_555
C7_2 C2_2 1_555 1_555
H4_2 C7_2 1_555 1_555
C8_2 C9_2 1_555 1_555
C9_2 H5_2 1_555 1_555
H6_2 C9_2 1_555 1_555
Ce2 O1_2 1_555 1_555
N1_2 C9_2 1_555 1_555
O1_2 C1_2 1_555 1_555
O2_2 C1_2 1_555 1_555
O3_2 C8_2 1_555 1_555
O4_2 C8_2 1_555 1_555
C18_2 N1_2 1_555 1_555
H11_2 C18_2 1_555 1_555
H12_2 C18_2 1_555 1_555
O9_2 Ce2 1_555 1_555
O10_2 Ce2 1_555 1_555
O11_2 Ce2 1_555 1_555
C6_2 C7_2 1_555 1_555
Ce2 O2_2 1_555 1_555
Ce2 O3_2 1_555 1_555
N1_2 H13_2 1_555 1_555
C10_3 C11_3 1_555 1_555
C15_3 C14_3 1_555 1_555
H9_3 C15_3 1_555 1_555
C16_3 C11_3 1_555 1_555
H10_3 C16_3 1_555 1_555
O5_3 C10_3 1_555 1_555
O6_3 C10_3 1_555 1_555
Ce4_3 O5_3 1_555 1_555
C15_3 C16_3 1_555 1_555
O6_3 Ce4_3 1_555 1_555
C3_3 H1_3 1_555 1_555
C4_3 C3_3 1_555 1_555
H2_3 C4_3 1_555 1_555
C8_3 C9_3 1_555 1_555
C9_3 H5_3 1_555 1_555
H6_3 C9_3 1_555 1_555
N2 C9_3 1_555 1_555
O3_3 C8_3 1_555 1_555
O12 C8_3 1_555 1_555
C17_3 C18_3 1_555 1_555
C18_3 N2 1_555 1_555
H11_3 C18_3 1_555 1_555
H12_3 C18_3 1_555 1_555
O11_2 C17_3 1_555 1_555
O13 C17_3 1_555 1_555
N2 H13_3 1_555 1_555
C12_3 H7_3 1_555 1_555
C13_3 C12_3 1_555 1_555
H8_3 C13_3 1_555 1_555
C1_3 C2_3 1_555 1_555
C6_3 C5_3 1_555 1_555
H3_3 C6_3 1_555 1_555
C7_3 C2_3 1_555 1_555
H4_3 C7_3 1_555 1_555
Ce3 O1_3 1_555 1_555
O1_3 C1_3 1_555 1_555
O2_3 C1_3 1_555 1_555
O9_3 Ce3 1_555 1_555
O10_3 Ce3 1_555 1_555
C6_3 C7_3 1_555 1_555
Ce3 O2_3 1_555 1_555
O7_2 C17_4 1_555 1_555
O8_3 C17_4 1_555 1_555
Ce4_3 O7_2 1_555 1_555
O8_3 Ce4 1_555 1_555
C8_4 C9_4 1_555 1_555
C9_4 H5_4 1_555 1_555
H6_4 C9_4 1_555 1_555
N1_3 C9_4 1_555 1_555
O3_4 C8_4 1_555 1_555
O4_3 C8_4 1_555 1_555
C18_4 N1_3 1_555 1_555
H11_4 C18_4 1_555 1_555
H12_4 C18_4 1_555 1_555
O9_4 Ce4_2 1_555 1_555
O10_4 Ce4_2 1_555 1_555
O11_3 Ce4_2 1_555 1_555
O13_2 Ce4_2 1_555 1_555
Ce4_2 O3_4 1_555 1_555
N1_3 H13_4 1_555 1_555
N2_3 Ce4_3 1_555 1_555
O9_5 Ce4_3 1_555 1_555
O10_5 Ce4_3 1_555 1_555
O12_3 Ce4_3 1_555 1_555
O13_3 Ce4_3 1_555 1_555
C8_5 C9_5 1_555 1_555
C9_5 H5_5 1_555 1_555
H6_5 C9_5 1_555 1_555
N2_2 C9_5 1_555 1_555
O3_5 C8_5 1_555 1_555
O12_2 C8_5 1_555 1_555
C18_5 N2_2 1_555 1_555
H11_5 C18_5 1_555 1_555
H12_5 C18_5 1_555 1_555
N2_2 H13_5 1_555 1_555
O7_3 C17_5 1_555 1_555
O13_2 C17_5 1_555 1_555
Ce4 O7_3 1_555 1_555
C8_6 C9_6 1_555 1_555
C9_6 H5_6 1_555 1_555
H6_6 C9_6 1_555 1_555
N2_3 C9_6 1_555 1_555
O3_6 C8_6 1_555 1_555
O12_3 C8_6 1_555 1_555
C17_6 C18_6 1_555 1_555
C18_6 N2_3 1_555 1_555
H11_6 C18_6 1_555 1_555
H12_6 C18_6 1_555 1_555
O11_3 C17_6 1_555 1_555
O13_3 C17_6 1_555 1_555
N2_3 H13_6 1_555 1_555
O9_6 Ce4 1_555 1_555
O10_6 Ce4 1_555 1_555
C1_4 C2_4 1_555 1_555
C2_4 C3_4 1_555 1_555
C3_4 H1_4 1_555 1_555
C4_4 C3_4 1_555 1_555
H2_4 C4_4 1_555 1_555
C5_4 C4_4 1_555 1_555
C6_4 C5_4 1_555 1_555
H3_4 C6_4 1_555 1_555
C7_4 C2_4 1_555 1_555
H4_4 C7_4 1_555 1_555
O9_4 C1_4 1_555 1_555
O10_4 C1_4 1_555 1_555
C10_4 C11_4 1_555 1_555
C11_4 C12_4 1_555 1_555
C12_4 H7_4 1_555 1_555
C13_4 C12_4 1_555 1_555
H8_4 C13_4 1_555 1_555
C14_4 C5_4 1_555 1_555
C15_4 C14_4 1_555 1_555
H9_4 C15_4 1_555 1_555
C16_4 C11_4 1_555 1_555
H10_4 C16_4 1_555 1_555
O5_4 C10_4 1_555 1_555
O6_4 C10_4 1_555 1_555
Ce4_4 O5_4 1_555 1_555
C6_4 C7_4 1_555 1_555
C13_4 C14_4 1_555 1_555
C15_4 C16_4 1_555 1_555
O6_4 Ce4_4 1_555 1_555
N2_3 H13_7 1_555 1_555
C1_5 C2_5 1_555 1_555
C2_5 C3_5 1_555 1_555
C3_5 H1_5 1_555 1_555
C4_5 C3_5 1_555 1_555
H2_5 C4_5 1_555 1_555
C5_5 C4_5 1_555 1_555
C6_5 C5_5 1_555 1_555
H3_5 C6_5 1_555 1_555
C7_5 C2_5 1_555 1_555
H4_5 C7_5 1_555 1_555
O9_5 C1_5 1_555 1_555
O10_5 C1_5 1_555 1_555
C10_5 C11_5 1_555 1_555
C11_5 C12_5 1_555 1_555
C12_5 H7_5 1_555 1_555
C13_5 C12_5 1_555 1_555
H8_5 C13_5 1_555 1_555
C14_5 C5_5 1_555 1_555
C15_5 C14_5 1_555 1_555
C16_5 C11_5 1_555 1_555
O5_5 C10_5 1_555 1_555
Ce4_5 O5_5 1_555 1_555
C6_5 C7_5 1_555 1_555
C13_5 C14_5 1_555 1_555
C15_5 C16_5 1_555 1_555
O6_5 Ce4_6 1_555 1_555
N1_3 H13_8 1_555 1_555
O6_6 Ce4_7 1_555 1_555
N2_2 H13_9 1_555 1_555
C1_6 C2_6 1_555 1_555
C2_6 C3_6 1_555 1_555
C3_6 H1_6 1_555 1_555
C4_6 C3_6 1_555 1_555
H2_6 C4_6 1_555 1_555
C5_6 C4_6 1_555 1_555
C6_6 C5_6 1_555 1_555
H3_6 C6_6 1_555 1_555
C7_6 C2_6 1_555 1_555
H4_6 C7_6 1_555 1_555
O9_6 C1_6 1_555 1_555
O10_6 C1_6 1_555 1_555
C10_6 C11_6 1_555 1_555
C11_6 C12_6 1_555 1_555
C12_6 H7_6 1_555 1_555
C13_6 C12_6 1_555 1_555
H8_6 C13_6 1_555 1_555
C14_6 C5_6 1_555 1_555
C15_6 C14_6 1_555 1_555
C16_6 C11_6 1_555 1_555
O5_6 C10_6 1_555 1_555
Ce4_8 O5_6 1_555 1_555
C6_6 C7_6 1_555 1_555
C13_6 C14_6 1_555 1_555
C15_6 C16_6 1_555 1_555
C8_7 C9_7 1_555 1_555
C9_7 H5_7 1_555 1_555
H6_7 C9_7 1_555 1_555
N1_4 C9_7 1_555 1_555
O3_7 C8_7 1_555 1_555
O4_4 C8_7 1_555 1_555
C17_7 C18_7 1_555 1_555
C18_7 N1_4 1_555 1_555
H11_7 C18_7 1_555 1_555
H12_7 C18_7 1_555 1_555
O7_4 C17_7 1_555 1_555
O8_4 C17_7 1_555 1_555
Ce4_4 N1_4 1_555 1_555
Ce4_7 O7_4 1_555 1_555
N2_4 Ce4_5 1_555 1_555
O10_7 Ce4_5 1_555 1_555
O12_4 Ce4_5 1_555 1_555
Ce4_5 O3_7 1_555 1_555
O4_4 Ce4_4 1_555 1_555
O8_4 Ce4_4 1_555 1_555
N1_4 H13_10 1_555 1_555
N2_5 Ce4_6 1_555 1_555
O9_7 Ce4_6 1_555 1_555
O11_4 Ce4_6 1_555 1_555
O13_4 Ce4_6 1_555 1_555
N2_6 Ce4_7 1_555 1_555
O9_8 Ce4_7 1_555 1_555
O13_5 Ce4_7 1_555 1_555
C8_8 C9_8 1_555 1_555
C9_8 H5_8 1_555 1_555
H6_8 C9_8 1_555 1_555
N2_4 C9_8 1_555 1_555
O3_8 C8_8 1_555 1_555
O12_4 C8_8 1_555 1_555
N2_7 Ce4_8 1_555 1_555
O10_8 Ce4_8 1_555 1_555
O12_5 Ce4_8 1_555 1_555
Ce4_8 O3_8 1_555 1_555
C17_8 C18_8 1_555 1_555
C18_8 N2_5 1_555 1_555
H11_8 C18_8 1_555 1_555
H12_8 C18_8 1_555 1_555
O7_5 C17_8 1_555 1_555
O13_4 C17_8 1_555 1_555
Ce4_4 O7_5 1_555 1_555
N2_5 H13_11 1_555 1_555
C17_9 C18_9 1_555 1_555
C18_9 N2_6 1_555 1_555
H11_9 C18_9 1_555 1_555
H12_9 C18_9 1_555 1_555
O11_4 C17_9 1_555 1_555
O13_5 C17_9 1_555 1_555
N2_6 H13_12 1_555 1_555
C8_9 C9_9 1_555 1_555
C9_9 H5_9 1_555 1_555
H6_9 C9_9 1_555 1_555
N2_7 C9_9 1_555 1_555
O3_9 C8_9 1_555 1_555
O12_5 C8_9 1_555 1_555
O9_9 Ce4_4 1_555 1_555
O10_9 Ce4_4 1_555 1_555
Ce4_4 O3_9 1_555 1_555
C1_7 C2_7 1_555 1_555
C2_7 C3_7 1_555 1_555
C3_7 H1_7 1_555 1_555
C4_7 C3_7 1_555 1_555
H2_7 C4_7 1_555 1_555
C5_7 C4_7 1_555 1_555
C6_7 C5_7 1_555 1_555
C7_7 C2_7 1_555 1_555
O9_7 C1_7 1_555 1_555
C10_7 C11_7 1_555 1_555
C11_7 C12_7 1_555 1_555
C12_7 H7_7 1_555 1_555
C13_7 C12_7 1_555 1_555
H8_7 C13_7 1_555 1_555
C14_7 C5_7 1_555 1_555
C15_7 C14_7 1_555 1_555
H9_7 C15_7 1_555 1_555
C16_7 C11_7 1_555 1_555
H10_7 C16_7 1_555 1_555
O9_3 C10_7 1_555 1_555
O10_3 C10_7 1_555 1_555
C6_7 C7_7 1_555 1_555
C13_7 C14_7 1_555 1_555
C15_7 C16_7 1_555 1_555
N2_7 H13_13 1_555 1_555
C1_8 C2_8 1_555 1_555
C2_8 C3_8 1_555 1_555
C3_8 H1_8 1_555 1_555
C4_8 C3_8 1_555 1_555
H2_8 C4_8 1_555 1_555
C5_8 C4_8 1_555 1_555
C6_8 C5_8 1_555 1_555
C7_8 C2_8 1_555 1_555
O9_8 C1_8 1_555 1_555
C10_8 C11_8 1_555 1_555
C11_8 C12_8 1_555 1_555
C12_8 H7_8 1_555 1_555
C13_8 C12_8 1_555 1_555
H8_8 C13_8 1_555 1_555
C14_8 C5_8 1_555 1_555
C15_8 C14_8 1_555 1_555
H9_8 C15_8 1_555 1_555
C16_8 C11_8 1_555 1_555
H10_8 C16_8 1_555 1_555
O9 C10_8 1_555 1_555
O10 C10_8 1_555 1_555
C6_8 C7_8 1_555 1_555
C13_8 C14_8 1_555 1_555
C15_8 C16_8 1_555 1_555
N1_4 H13_14 1_555 1_555
N2_4 H13_15 1_555 1_555
C1_9 C2_9 1_555 1_555
C2_9 C3_9 1_555 1_555
C3_9 H1_9 1_555 1_555
C4_9 C3_9 1_555 1_555
H2_9 C4_9 1_555 1_555
C5_9 C4_9 1_555 1_555
C6_9 C5_9 1_555 1_555
H3_9 C6_9 1_555 1_555
C7_9 C2_9 1_555 1_555
H4_9 C7_9 1_555 1_555
O9_9 C1_9 1_555 1_555
O10_9 C1_9 1_555 1_555
C10_9 C11_9 1_555 1_555
C11_9 C12_9 1_555 1_555
C12_9 H7_9 1_555 1_555
C13_9 C12_9 1_555 1_555
H8_9 C13_9 1_555 1_555
C14_9 C5_9 1_555 1_555
C15_9 C14_9 1_555 1_555
H9_9 C15_9 1_555 1_555
C16_9 C11_9 1_555 1_555
H10_9 C16_9 1_555 1_555
O9_2 C10_9 1_555 1_555
O10_2 C10_9 1_555 1_555
C6_9 C7_9 1_555 1_555
C13_9 C14_9 1_555 1_555
C15_9 C16_9 1_555 1_555
N1_2 H13_16 1_555 1_555
N2 H13_17 1_555 1_555
N1 H13_18 1_555 1_555

#END
