
###############################################################################
#
# This file contains modified crystal structure data generated from the
# MOF subset of the Cambridge Structural Database (CSD) v543 
# hosted by the Cambridge Crystallographic Data Centre (CCDC).
#
# This work is licensed under the Creative Commons
# Attribution-NonCommercial-ShareAlike 4.0 International License.
# To view a copy of this license, visit
# http://creativecommons.org/licenses/by-nc-sa/4.0/
# or send a letter to
# Creative Commons, PO Box 1866, Mountain View, CA 94042, USA.
#
# CIF created using the CSD Python API on 29 September 2022
# The structure has been converted into the P1 space group
# The structure has a 3D framework
# The original CSD entry NIMPOQ is in the triclinic crystal system
# The framework has been calculated to contain at least 10.0% void space
# The void calculation uses a probe of radius 1.32A, grid spacing 0.4
# H atom positions have been added when not included in the experimental data
#
###############################################################################

data_NIMPOQ
_chemical_formula_moiety         '(C180 H144 Cu8 O48)n'
_symmetry_cell_setting           triclinic
_symmetry_space_group_name_H-M   'P 1'
_symmetry_Int_Tables_number      1
_space_group_name_Hall           'P 1'
loop_
_symmetry_equiv_pos_site_id
_symmetry_equiv_pos_as_xyz
1 x,y,z
_cell_length_a                   20.639(9)
_cell_length_b                   22.923(10)
_cell_length_c                   23.247(10)
_cell_angle_alpha                82.718(6)
_cell_angle_beta                 71.061(6)
_cell_angle_gamma                80.352(7)
_cell_volume                     10224.9
loop_
_atom_site_label
_atom_site_type_symbol
_atom_site_fract_x
_atom_site_fract_y
_atom_site_fract_z
Cu4 Cu 0.04179(14) 0.26287(14) 0.27723(13)
O7 O 0.1197(6) 0.2744(5) 0.3227(5)
O9 O 0.0186(8) 0.1610(7) 0.2092(6)
O10 O 0.0859(7) 0.1824(7) 0.2588(7)
O11 O 0.4101(7) 0.1989(7) 0.2666(6)
O12 O 0.5024(6) 0.1579(6) 0.2908(4)
C55 C 0.1502(8) 0.0048(7) 0.1585(5)
C56 C 0.1061(6) 0.0573(7) 0.1737(6)
H28 H 0.0695 0.0691 0.1565
C57 C 0.1155(7) 0.0925(5) 0.2141(7)
C58 C 0.1690(8) 0.0752(7) 0.2393(6)
H29 H 0.1754 0.0992 0.2669
C59 C 0.2131(6) 0.0227(8) 0.2240(6)
H30 H 0.2496 0.0109 0.2412
C60 C 0.0687(12) 0.1481(12) 0.2289(11)
C61 C 0.4483(12) 0.1564(11) 0.2825(10)
C62 C 0.4147(8) 0.0992(5) 0.3065(6)
C63 C 0.3447(7) 0.0986(6) 0.3166(6)
H31 H 0.3155 0.1346 0.3124
C64 C 0.3172(5) 0.0453(8) 0.3328(6)
H32 H 0.2693 0.0448 0.3397
C67 C 0.4573(5) 0.0465(7) 0.3126(5)
H34 H 0.5052 0.0469 0.3057
H59 H 0.2973 0.0116 0.0074
H61 H 0.3019 0.0116 0.0749
H62 H 0.2072 0.0121 0.5003
H64 H 0.2081 0.0108 0.4314
Cu6 Cu 0.55545(15) 0.22554(14) 0.26267(13)
Cu8 Cu 0.44393(15) 0.27489(14) 0.23729(13)
O29 O 0.0202(8) 0.2699(7) 0.1494(7)
O30 O 0.0925(7) 0.2919(7) 0.1965(7)
H67 H 0.16683 0.269602 0.292801
H68 H 0.109158 0.314638 0.337771
O13 O 0.0202(8) 0.7698(7) 0.6498(7)
O14 O 0.0924(7) 0.7914(7) 0.6960(7)
O23 O 0.2608(5) 0.9487(4) 0.0624(4)
O24 O 0.2771(5) 0.9550(5) 0.4543(5)
C16 C 0.1014(6) 0.3149(7) 0.0366(7)
H8 H 0.0578 0.3045 0.0392
C17 C 0.1216(7) 0.3106(7) 0.0886(6)
C18 C 0.1854(8) 0.3258(7) 0.0847(6)
H9 H 0.1992 0.3229 0.1203
C19 C 0.2290(6) 0.3454(7) 0.0287(7)
H10 H 0.2726 0.3558 0.0260
C20 C 0.0738(13) 0.2878(11) 0.1500(11)
H22 H 0.2737 0.8641 0.0100
C45 C 0.3606(8) 0.8434(6) 0.0359(5)
C46 C 0.4298(8) 0.8188(7) 0.0170(7)
H23 H 0.4569 0.8161 0.0435
C48 C 0.3304(8) 0.8638(8) 0.0988(5)
C49 C 0.2829(8) 0.9151(7) 0.1097(7)
C50 C 0.2516(7) 0.9317(6) 0.1690(8)
C51 C 0.2679(7) 0.8971(7) 0.2173(5)
H25 H 0.2465 0.9084 0.2578
C52 C 0.3153(8) 0.8458(7) 0.2063(6)
C53 C 0.3466(7) 0.8292(6) 0.1471(8)
H26 H 0.3790 0.7942 0.1396
C54 C 0.2037(7) 0.9876(5) 0.1836(7)
H27 H 0.1438 0.9808 0.1309
C65 C 0.3598(8) 0.9926(6) 0.3389(6)
C66 C 0.4298(7) 0.9932(5) 0.3288(6)
H33 H 0.4590 0.9572 0.3329
C68 C 0.3324(8) 0.9347(6) 0.3517(8)
C69 C 0.3502(6) 0.8966(7) 0.3054(5)
H35 H 0.3834 0.9057 0.2673
C70 C 0.3195(8) 0.8452(7) 0.3147(6)
C71 C 0.2710(7) 0.8319(6) 0.3703(8)
H36 H 0.2500 0.7968 0.3767
C72 C 0.2531(6) 0.8700(8) 0.4167(5)
C73 C 0.2838(8) 0.9214(7) 0.4074(6)
C74 C 0.2077(7) 0.8507(7) 0.4775(5)
C75 C 0.1440(8) 0.8354(7) 0.4811(6)
H37 H 0.1301 0.8388 0.4456
C76 C 0.1007(6) 0.8149(7) 0.5369(7)
H38 H 0.0572 0.8044 0.5394
C77 C 0.1210(7) 0.8099(6) 0.5889(6)
C78 C 0.1847(8) 0.8253(7) 0.5853(6)
H39 H 0.1986 0.8218 0.6208
C79 C 0.2280(6) 0.8457(7) 0.5295(7)
H40 H 0.2715 0.8562 0.5270
C80 C 0.0749(13) 0.7878(11) 0.6503(11)
C84 C 0.3036(6) 0.7541(7) 0.2746(7)
H47 H 0.2532 0.7636 0.2876
H48 H 0.3180 0.7307 0.3078
H49 H 0.3188 0.7312 0.2386
C85 C 0.3340(12) 0.8076(11) 0.2599(10)
C86 C 0.4178(8) 0.7885(8) 0.2371(6)
H50 H 0.4320 0.7649 0.2702
H51 H 0.4408 0.8242 0.2256
H52 H 0.4308 0.7649 0.2017
H56 H 0.1890 0.5206 0.0066
C89 C 0.3061(7) 0.9866(5) 0.0422(6)
H60 H 0.3529 0.9648 0.0295
C90 C 0.2134(5) 0.9864(6) 0.4678(5)
H63 H 0.1785 0.9592 0.4815
Cu11 Cu 0.04141(14) 0.76321(14) 0.77723(13)
Cu1 Cu 0.44455(15) 0.77446(14) 0.73733(13)
Cu2 Cu 0.55607(15) 0.72511(14) 0.76271(13)
O1 O 0.4124(7) 0.6983(7) 0.7638(6)
O2 O 0.3556(7) 0.8220(6) 0.7175(5)
O3 O 0.6459(7) 0.6738(6) 0.7872(5)
O4 O 0.5062(6) 0.6552(6) 0.7837(4)
O6 O 0.4140(8) 0.7955(7) 0.8220(7)
O8 O 0.5111(8) 0.7535(7) 0.8421(7)
O17 O 0.5097(8) 0.2553(7) 0.3428(7)
O18 O 0.4135(8) 0.2952(7) 0.3222(7)
O19 O 0.0190(8) 0.6603(7) 0.7115(6)
O20 O 0.0869(7) 0.6815(7) 0.7585(7)
O21 O 0.2735(5) 0.4543(5) 0.5605(4)
O22 O 0.2685(6) 0.4603(5) 0.9514(5)
C1 C 0.4450(12) 0.6580(11) 0.7832(10)
C2 C 0.4176(8) 0.5970(5) 0.8032(6)
C3 C 0.3469(7) 0.5974(6) 0.8164(6)
H1 H 0.3179 0.6338 0.8132
C4 C 0.3184(5) 0.5447(8) 0.8341(6)
H2 H 0.2701 0.5449 0.8431
C5 C 0.3608(8) 0.4915(6) 0.8387(6)
C6 C 0.4315(7) 0.4910(5) 0.8255(6)
H3 H 0.4604 0.4547 0.8287
C7 C 0.4599(5) 0.5438(7) 0.8078(5)
H4 H 0.5083 0.5435 0.7988
C8 C 0.3310(8) 0.4355(6) 0.8510(8)
C9 C 0.2844(8) 0.4207(7) 0.9073(6)
C10 C 0.2543(6) 0.3690(8) 0.9164(5)
C11 C 0.2709(7) 0.3320(6) 0.8693(8)
H5 H 0.2503 0.2967 0.8756
C12 C 0.3175(8) 0.3468(7) 0.8130(6)
C13 C 0.3475(6) 0.3985(7) 0.8038(5)
H6 H 0.3794 0.4085 0.7653
C14 C 0.2088(7) 0.3497(7) 0.9766(5)
C15 C 0.1450(8) 0.3344(7) 0.9806(6)
H7 H 0.1312 0.3374 0.9450
C21 C 0.0706(12) 0.6483(12) 0.7297(11)
C22 C 0.1157(7) 0.5920(5) 0.7143(7)
C23 C 0.1701(8) 0.5748(7) 0.7385(6)
H11 H 0.1777 0.5993 0.7651
C24 C 0.2133(6) 0.5219(8) 0.7237(6)
H12 H 0.2504 0.5101 0.7402
C25 C 0.2022(7) 0.4861(5) 0.6847(7)
C26 C 0.1478(8) 0.5033(7) 0.6606(5)
H13 H 0.1402 0.4788 0.6340
C27 C 0.1046(6) 0.5562(7) 0.6754(6)
H14 H 0.0675 0.5680 0.6589
C28 C 0.2502(7) 0.4320(6) 0.6681(8)
C29 C 0.2674(7) 0.3981(7) 0.7163(5)
H15 H 0.2462 0.4096 0.7567
C30 C 0.3155(8) 0.3472(7) 0.7054(6)
C31 C 0.3464(7) 0.3303(6) 0.6462(8)
H16 H 0.3793 0.2955 0.6387
C32 C 0.3292(8) 0.3642(8) 0.5980(5)
C33 C 0.2811(8) 0.4150(7) 0.6089(7)
C34 C 0.3590(8) 0.3436(6) 0.5354(5)
C35 C 0.4284(8) 0.3199(7) 0.5163(7)
H17 H 0.4556 0.3174 0.5428
C36 C 0.4581(6) 0.2997(6) 0.4583(7)
H18 H 0.5055 0.2835 0.4452
C37 C 0.4184(8) 0.3033(6) 0.4195(5)
C38 C 0.3490(8) 0.3270(7) 0.4387(7)
H19 H 0.3218 0.3295 0.4121
C39 C 0.3193(5) 0.3472(6) 0.4966(7)
H20 H 0.2719 0.3634 0.5097
C40 C 0.4496(12) 0.2814(11) 0.3581(10)
C41 C 0.4508(13) 0.7819(11) 0.8553(10)
C42 C 0.4194(8) 0.8020(6) 0.9204(5)
C43 C 0.3503(8) 0.8266(7) 0.9393(7)
H21 H 0.3231 0.8293 0.9127
C44 C 0.3209(5) 0.8473(6) 0.9970(7)
C47 C 0.4591(6) 0.7981(6) 0.9592(7)
H24 H 0.5064 0.7813 0.9463
C81 C 0.2888(6) 0.2585(7) 0.7721(7)
H41 H 0.2400 0.2756 0.7822
H42 H 0.2962 0.2317 0.8064
H43 H 0.3016 0.2363 0.7358
C82 C 0.3335(12) 0.3082(11) 0.7596(10)
C83 C 0.4111(8) 0.2853(8) 0.7455(6)
H44 H 0.4190 0.2609 0.7810
H45 H 0.4373 0.3191 0.7364
H46 H 0.4263 0.2614 0.7103
C87 C 0.3104(7) 0.5034(5) 0.5381(6)
H53 H 0.2941 0.5265 0.5058
H54 H 0.3599 0.4893 0.5216
H55 H 0.3029 0.5286 0.5714
C88 C 0.1922(5) 0.4961(6) 0.9739(5)
H57 H 0.1584 0.4679 0.9893
H58 H 0.1825 0.5215 0.9397
O25 O 0.5899(7) 0.8011(7) 0.7334(6)
O26 O 0.4976(6) 0.8421(6) 0.7092(4)
O31 O 0.4903(8) 0.7447(7) 0.6572(7)
O32 O 0.5865(8) 0.7048(7) 0.6778(7)
H65 H 0.315098 0.821872 0.755006
H66 H 0.363668 0.86356 0.702768
H69 H 0.665271 0.639922 0.76121
H70 H 0.681875 0.699951 0.780593
Cu3 Cu 0.95859(14) 0.23679(14) 0.22277(13)
O5 O 0.8870(6) 0.2181(5) 0.1812(5)
O27 O 0.9798(8) 0.2302(7) 0.3502(7)
O28 O 0.9076(7) 0.2086(7) 0.3040(7)
O33 O 0.9810(8) 0.3397(7) 0.2885(6)
O34 O 0.9131(7) 0.3185(7) 0.2415(7)
H71 H 0.865707 0.182551 0.203102
H72 H 0.85035 0.252618 0.183257
Cu14 Cu 0.95821(14) 0.73713(14) 0.72277(13)
O5_2 O 0.1130(6) 0.7819(5) 0.8188(5)
H71_2 H 0.134293 0.817449 0.796898
H72_2 H 0.14965 0.747382 0.816743
O1_2 O 0.5876(7) 0.3017(7) 0.2362(6)
O2_2 O 0.6444(7) 0.1780(6) 0.2825(5)
O3_2 O 0.3541(7) 0.3262(6) 0.2128(5)
O4_2 O 0.4938(6) 0.3448(6) 0.2163(4)
O6_2 O 0.5860(8) 0.2045(7) 0.1780(7)
O8_2 O 0.4889(8) 0.2465(7) 0.1579(7)
O21_2 O 0.7265(5) 0.5457(5) 0.4395(4)
O22_2 O 0.7315(6) 0.5397(5) 0.0486(5)
C1_2 C 0.5550(12) 0.3420(11) 0.2168(10)
C2_2 C 0.5824(8) 0.4030(5) 0.1968(6)
C3_2 C 0.6531(7) 0.4026(6) 0.1836(6)
H1_2 H 0.6821 0.3662 0.1868
C4_2 C 0.6816(5) 0.4553(8) 0.1659(6)
H2_2 H 0.7299 0.4551 0.1569
C5_2 C 0.6392(8) 0.5085(6) 0.1613(6)
C6_2 C 0.5685(7) 0.5090(5) 0.1745(6)
H3_2 H 0.5396 0.5453 0.1713
C7_2 C 0.5401(5) 0.4562(7) 0.1922(5)
H4_2 H 0.4917 0.4565 0.2012
C8_2 C 0.6690(8) 0.5645(6) 0.1490(8)
C9_2 C 0.7156(8) 0.5793(7) 0.0927(6)
C10_2 C 0.7457(6) 0.6310(8) 0.0836(5)
C11_2 C 0.7291(7) 0.6680(6) 0.1307(8)
H5_2 H 0.7497 0.7033 0.1244
C12_2 C 0.6825(8) 0.6532(7) 0.1870(6)
C13_2 C 0.6525(6) 0.6015(7) 0.1962(5)
H6_2 H 0.6206 0.5915 0.2347
C14_2 C 0.7912(7) 0.6503(7) 0.0234(5)
C15_2 C 0.8550(8) 0.6656(7) 0.0194(6)
H7_2 H 0.8688 0.6626 0.0550
C21_2 C 0.9294(12) 0.3517(12) 0.2703(11)
C22_2 C 0.8843(7) 0.4080(5) 0.2857(7)
C23_2 C 0.8299(8) 0.4252(7) 0.2615(6)
H11_2 H 0.8223 0.4007 0.2349
C24_2 C 0.7867(6) 0.4781(8) 0.2763(6)
H12_2 H 0.7496 0.4899 0.2598
C25_2 C 0.7978(7) 0.5139(5) 0.3153(7)
C26_2 C 0.8522(8) 0.4967(7) 0.3394(5)
H13_2 H 0.8598 0.5212 0.3660
C27_2 C 0.8954(6) 0.4438(7) 0.3246(6)
H14_2 H 0.9325 0.4320 0.3411
C28_2 C 0.7498(7) 0.5680(6) 0.3319(8)
C29_2 C 0.7326(7) 0.6019(7) 0.2837(5)
H15_2 H 0.7538 0.5904 0.2433
C30_2 C 0.6845(8) 0.6528(7) 0.2946(6)
C31_2 C 0.6536(7) 0.6697(6) 0.3538(8)
H16_2 H 0.6207 0.7045 0.3613
C32_2 C 0.6708(8) 0.6358(8) 0.4020(5)
C33_2 C 0.7189(8) 0.5850(7) 0.3911(7)
C34_2 C 0.6410(8) 0.6564(6) 0.4646(5)
C35_2 C 0.5716(8) 0.6801(7) 0.4837(7)
H17_2 H 0.5444 0.6826 0.4572
C36_2 C 0.5419(6) 0.7003(6) 0.5417(7)
H18_2 H 0.4945 0.7165 0.5548
C37_2 C 0.5816(8) 0.6967(6) 0.5805(5)
C38_2 C 0.6510(8) 0.6730(7) 0.5613(7)
H19_2 H 0.6782 0.6705 0.5879
C39_2 C 0.6807(5) 0.6528(6) 0.5034(7)
H20_2 H 0.7281 0.6366 0.4903
C40_2 C 0.5504(12) 0.7186(11) 0.6419(10)
C41_2 C 0.5492(13) 0.2181(11) 0.1447(10)
C42_2 C 0.5806(8) 0.1980(6) 0.0796(5)
C43_2 C 0.6497(8) 0.1734(7) 0.0607(7)
H21_2 H 0.6769 0.1707 0.0873
C44_2 C 0.6791(5) 0.1527(6) 0.0030(7)
C47_2 C 0.5409(6) 0.2019(6) 0.0408(7)
H24_2 H 0.4936 0.2187 0.0537
C81_2 C 0.7112(6) 0.7415(7) 0.2279(7)
H41_2 H 0.7600 0.7244 0.2178
H42_2 H 0.7038 0.7683 0.1936
H43_2 H 0.6984 0.7637 0.2642
C82_2 C 0.6665(12) 0.6918(11) 0.2404(10)
C83_2 C 0.5889(8) 0.7147(8) 0.2545(6)
H44_2 H 0.5810 0.7391 0.2190
H45_2 H 0.5627 0.6809 0.2636
H46_2 H 0.5737 0.7386 0.2897
C87_2 C 0.6896(7) 0.4966(5) 0.4619(6)
H53_2 H 0.7059 0.4735 0.4942
H54_2 H 0.6401 0.5107 0.4784
H55_2 H 0.6971 0.4714 0.4286
C88_2 C 0.8078(5) 0.5039(6) 0.0261(5)
H57_2 H 0.8416 0.5321 0.0107
H58_2 H 0.8175 0.4785 0.0603
H65_2 H 0.684902 0.178128 0.244994
H66_2 H 0.636332 0.13644 0.297232
H69_2 H 0.334729 0.360078 0.23879
H70_2 H 0.318125 0.300049 0.219407
O15 O 0.9798(8) 0.7301(7) 0.8506(7)
O16 O 0.9075(7) 0.7081(7) 0.8035(7)
O23_2 O 0.7392(5) 0.0513(4) 0.9376(4)
O24_2 O 0.7229(5) 0.0450(5) 0.5457(5)
C16_2 C 0.8986(6) 0.6851(7) 0.9634(7)
H8_2 H 0.9422 0.6955 0.9608
C17_2 C 0.8784(7) 0.6894(7) 0.9114(6)
C18_2 C 0.8146(8) 0.6742(7) 0.9153(6)
H9_2 H 0.8008 0.6771 0.8797
C19_2 C 0.7710(6) 0.6546(7) 0.9713(7)
H10_2 H 0.7274 0.6442 0.9740
C20_2 C 0.9262(13) 0.7122(11) 0.8500(11)
H22_2 H 0.7263 0.1359 0.9900
C45_2 C 0.6394(8) 0.1566(6) 0.9641(5)
C46_2 C 0.5702(8) 0.1812(7) 0.9830(7)
H23_2 H 0.5431 0.1839 0.9565
C48_2 C 0.6696(8) 0.1362(8) 0.9012(5)
C49_2 C 0.7171(8) 0.0849(7) 0.8903(7)
C50_2 C 0.7484(7) 0.0683(6) 0.8310(8)
C51_2 C 0.7321(7) 0.1029(7) 0.7827(5)
H25_2 H 0.7535 0.0916 0.7422
C52_2 C 0.6847(8) 0.1542(7) 0.7937(6)
C53_2 C 0.6534(7) 0.1708(6) 0.8529(8)
H26_2 H 0.6210 0.2058 0.8604
C54_2 C 0.7963(7) 0.0124(5) 0.8164(7)
H27_2 H 0.8562 0.0192 0.8691
C65_2 C 0.6402(8) 0.0074(6) 0.6611(6)
C66_2 C 0.5702(7) 0.0068(5) 0.6712(6)
H33_2 H 0.5410 0.0428 0.6671
C68_2 C 0.6676(8) 0.0653(6) 0.6483(8)
C69_2 C 0.6498(6) 0.1034(7) 0.6946(5)
H35_2 H 0.6166 0.0943 0.7327
C70_2 C 0.6805(8) 0.1548(7) 0.6853(6)
C71_2 C 0.7290(7) 0.1681(6) 0.6297(8)
H36_2 H 0.7500 0.2032 0.6233
C72_2 C 0.7469(6) 0.1300(8) 0.5833(5)
C73_2 C 0.7162(8) 0.0786(7) 0.5926(6)
C74_2 C 0.7923(7) 0.1493(7) 0.5225(5)
C75_2 C 0.8560(8) 0.1646(7) 0.5189(6)
H37_2 H 0.8699 0.1612 0.5544
C76_2 C 0.8993(6) 0.1851(7) 0.4631(7)
H38_2 H 0.9428 0.1956 0.4606
C77_2 C 0.8790(7) 0.1901(6) 0.4111(6)
C78_2 C 0.8153(8) 0.1747(7) 0.4147(6)
H39_2 H 0.8014 0.1782 0.3792
C79_2 C 0.7720(6) 0.1543(7) 0.4705(7)
H40_2 H 0.7285 0.1438 0.4730
C80_2 C 0.9251(13) 0.2122(11) 0.3497(11)
C84_2 C 0.6964(6) 0.2459(7) 0.7254(7)
H47_2 H 0.7468 0.2364 0.7124
H48_2 H 0.6820 0.2693 0.6922
H49_2 H 0.6812 0.2688 0.7614
C85_2 C 0.6660(12) 0.1924(11) 0.7401(10)
C86_2 C 0.5822(8) 0.2115(8) 0.7629(6)
H50_2 H 0.5680 0.2351 0.7298
H51_2 H 0.5592 0.1758 0.7744
H52_2 H 0.5692 0.2351 0.7983
H56_2 H 0.8110 0.4794 0.9934
C89_2 C 0.6939(7) 0.0134(5) 0.9578(6)
H60_2 H 0.6471 0.0352 0.9705
C90_2 C 0.7866(5) 0.0136(6) 0.5322(5)
H63_2 H 0.8215 0.0408 0.5185
O7_2 O 0.8803(6) 0.7256(5) 0.6773(5)
O9_2 O 0.9814(8) 0.8390(7) 0.7908(6)
O10_2 O 0.9141(7) 0.8176(7) 0.7412(7)
C55_2 C 0.8498(8) 0.9952(7) 0.8415(5)
C56_2 C 0.8939(6) 0.9427(7) 0.8263(6)
H28_2 H 0.9305 0.9309 0.8435
C57_2 C 0.8845(7) 0.9075(5) 0.7859(7)
C58_2 C 0.8310(8) 0.9248(7) 0.7607(6)
H29_2 H 0.8246 0.9008 0.7331
C59_2 C 0.7869(6) 0.9773(8) 0.7760(6)
H30_2 H 0.7504 0.9891 0.7588
C60_2 C 0.9313(12) 0.8519(12) 0.7711(11)
C61_2 C 0.5517(12) 0.8436(11) 0.7175(10)
C62_2 C 0.5853(8) 0.9008(5) 0.6935(6)
C63_2 C 0.6553(7) 0.9014(6) 0.6834(6)
H31_2 H 0.6845 0.8654 0.6876
C64_2 C 0.6828(5) 0.9547(8) 0.6672(6)
H32_2 H 0.7307 0.9552 0.6603
C67_2 C 0.5427(5) 0.9535(7) 0.6874(5)
H34_2 H 0.4948 0.9531 0.6943
H59_2 H 0.7027 0.9884 0.9926
H61_2 H 0.6981 0.9884 0.9251
H62_2 H 0.7928 0.9879 0.4997
H64_2 H 0.7919 0.9892 0.5686
H67_2 H 0.83317 0.730398 0.707199
H68_2 H 0.890842 0.685362 0.662229
loop_
_geom_bond_atom_site_label_1
_geom_bond_atom_site_label_2
_geom_bond_site_symmetry_1
_geom_bond_site_symmetry_2
Cu4 O7 1_555 1_555
O10 Cu4 1_555 1_555
O11 C61 1_555 1_555
O12 C61 1_555 1_555
C56 C55 1_555 1_555
H28 C56 1_555 1_555
C57 C56 1_555 1_555
C58 C57 1_555 1_555
H29 C58 1_555 1_555
H30 C59 1_555 1_555
C60 O9 1_555 1_555
C61 C62 1_555 1_555
C62 C63 1_555 1_555
C63 H31 1_555 1_555
C64 C63 1_555 1_555
H32 C64 1_555 1_555
C67 C62 1_555 1_555
H34 C67 1_555 1_555
Cu6 O12 1_555 1_555
Cu8 O11 1_555 1_555
O30 Cu4 1_555 1_555
O10 C60 1_555 1_555
C57 C60 1_555 1_555
C58 C59 1_555 1_555
O7 H67 1_555 1_555
O7 H68 1_555 1_555
O13 C80 1_555 1_555
O14 C80 1_555 1_555
O29 C20 1_555 1_555
O30 C20 1_555 1_555
O23 C49 1_555 1_555
O24 C73 1_555 1_555
H8 C16 1_555 1_555
C17 C16 1_555 1_555
C18 C17 1_555 1_555
H9 C18 1_555 1_555
H10 C19 1_555 1_555
C20 C17 1_555 1_555
C46 C45 1_555 1_555
H23 C46 1_555 1_555
C48 C45 1_555 1_555
C49 C48 1_555 1_555
C50 C49 1_555 1_555
C51 C50 1_555 1_555
H25 C51 1_555 1_555
C52 C51 1_555 1_555
C53 C48 1_555 1_555
H26 C53 1_555 1_555
C54 C50 1_555 1_555
C66 C65 1_555 1_555
H33 C66 1_555 1_555
C68 C65 1_555 1_555
C69 C68 1_555 1_555
H35 C69 1_555 1_555
C70 C69 1_555 1_555
C71 C70 1_555 1_555
H36 C71 1_555 1_555
C72 C71 1_555 1_555
C73 C68 1_555 1_555
C74 C72 1_555 1_555
C75 C74 1_555 1_555
H37 C75 1_555 1_555
C76 C75 1_555 1_555
H38 C76 1_555 1_555
C77 C76 1_555 1_555
C78 C77 1_555 1_555
H39 C78 1_555 1_555
C79 C74 1_555 1_555
H40 C79 1_555 1_555
C80 C77 1_555 1_555
C84 H47 1_555 1_555
H48 C84 1_555 1_555
H49 C84 1_555 1_555
C85 C52 1_555 1_555
C86 C85 1_555 1_555
H50 C86 1_555 1_555
H51 C86 1_555 1_555
H52 C86 1_555 1_555
C89 O23 1_555 1_555
H60 C89 1_555 1_555
C90 O24 1_555 1_555
H63 C90 1_555 1_555
Cu11 O14 1_555 1_555
C18 C19 1_555 1_555
C52 C53 1_555 1_555
C70 C85 1_555 1_555
C72 C73 1_555 1_555
C78 C79 1_555 1_555
C84 C85 1_555 1_555
Cu1 O1 1_555 1_555
Cu2 O3 1_555 1_555
O1 C1 1_555 1_555
O2 Cu1 1_555 1_555
O4 Cu2 1_555 1_555
O6 Cu1 1_555 1_555
O8 Cu2 1_555 1_555
O17 C40 1_555 1_555
O18 C40 1_555 1_555
O19 C21 1_555 1_555
O20 C21 1_555 1_555
O21 C33 1_555 1_555
O22 C9 1_555 1_555
C1 O4 1_555 1_555
C2 C1 1_555 1_555
C3 C2 1_555 1_555
H1 C3 1_555 1_555
C4 C3 1_555 1_555
H2 C4 1_555 1_555
C5 C4 1_555 1_555
C6 C5 1_555 1_555
H3 C6 1_555 1_555
C7 C2 1_555 1_555
H4 C7 1_555 1_555
C8 C5 1_555 1_555
C9 C8 1_555 1_555
C10 C9 1_555 1_555
C11 C10 1_555 1_555
H5 C11 1_555 1_555
C12 C11 1_555 1_555
C13 C8 1_555 1_555
H6 C13 1_555 1_555
C14 C10 1_555 1_555
C15 C14 1_555 1_555
H7 C15 1_555 1_555
C21 C22 1_555 1_555
C22 C23 1_555 1_555
C23 H11 1_555 1_555
C24 C23 1_555 1_555
H12 C24 1_555 1_555
C25 C24 1_555 1_555
C26 C25 1_555 1_555
H13 C26 1_555 1_555
C27 C22 1_555 1_555
H14 C27 1_555 1_555
C28 C25 1_555 1_555
C29 C28 1_555 1_555
H15 C29 1_555 1_555
C30 C29 1_555 1_555
C31 C30 1_555 1_555
H16 C31 1_555 1_555
C32 C31 1_555 1_555
C33 C28 1_555 1_555
C34 C32 1_555 1_555
C35 C34 1_555 1_555
H17 C35 1_555 1_555
C36 C35 1_555 1_555
H18 C36 1_555 1_555
C37 C36 1_555 1_555
C38 C37 1_555 1_555
H19 C38 1_555 1_555
C39 C34 1_555 1_555
H20 C39 1_555 1_555
C40 C37 1_555 1_555
C41 O6 1_555 1_555
C42 C41 1_555 1_555
C43 C42 1_555 1_555
H21 C43 1_555 1_555
C44 C43 1_555 1_555
C47 C42 1_555 1_555
H24 C47 1_555 1_555
C81 H41 1_555 1_555
H42 C81 1_555 1_555
H43 C81 1_555 1_555
C82 C12 1_555 1_555
C83 C82 1_555 1_555
H44 C83 1_555 1_555
H45 C83 1_555 1_555
H46 C83 1_555 1_555
C87 O21 1_555 1_555
H53 C87 1_555 1_555
H54 C87 1_555 1_555
H55 C87 1_555 1_555
C88 O22 1_555 1_555
H57 C88 1_555 1_555
H58 C88 1_555 1_555
Cu6 O17 1_555 1_555
Cu8 O18 1_555 1_555
Cu11 O20 1_555 1_555
O25 Cu2 1_555 1_555
O26 Cu1 1_555 1_555
O31 Cu1 1_555 1_555
O32 Cu2 1_555 1_555
O8 C41 1_555 1_555
C6 C7 1_555 1_555
C12 C13 1_555 1_555
C26 C27 1_555 1_555
C30 C82 1_555 1_555
C32 C33 1_555 1_555
C38 C39 1_555 1_555
C81 C82 1_555 1_555
O2 H65 1_555 1_555
O2 H66 1_555 1_555
O3 H69 1_555 1_555
O3 H70 1_555 1_555
Cu3 O5 1_555 1_555
O28 Cu3 1_555 1_555
O34 Cu3 1_555 1_555
O5 H71 1_555 1_555
O5 H72 1_555 1_555
Cu11 O5_2 1_555 1_555
O5_2 H71_2 1_555 1_555
O5_2 H72_2 1_555 1_555
Cu6 O1_2 1_555 1_555
Cu8 O3_2 1_555 1_555
O1_2 C1_2 1_555 1_555
O2_2 Cu6 1_555 1_555
O4_2 Cu8 1_555 1_555
O6_2 Cu6 1_555 1_555
O8_2 Cu8 1_555 1_555
O31 C40_2 1_555 1_555
O32 C40_2 1_555 1_555
O33 C21_2 1_555 1_555
O34 C21_2 1_555 1_555
O21_2 C33_2 1_555 1_555
O22_2 C9_2 1_555 1_555
C1_2 O4_2 1_555 1_555
C2_2 C1_2 1_555 1_555
C3_2 C2_2 1_555 1_555
H1_2 C3_2 1_555 1_555
C4_2 C3_2 1_555 1_555
H2_2 C4_2 1_555 1_555
C5_2 C4_2 1_555 1_555
C6_2 C5_2 1_555 1_555
H3_2 C6_2 1_555 1_555
C7_2 C2_2 1_555 1_555
H4_2 C7_2 1_555 1_555
C8_2 C5_2 1_555 1_555
C9_2 C8_2 1_555 1_555
C10_2 C9_2 1_555 1_555
C11_2 C10_2 1_555 1_555
H5_2 C11_2 1_555 1_555
C12_2 C11_2 1_555 1_555
C13_2 C8_2 1_555 1_555
H6_2 C13_2 1_555 1_555
C14_2 C10_2 1_555 1_555
C15_2 C14_2 1_555 1_555
H7_2 C15_2 1_555 1_555
C21_2 C22_2 1_555 1_555
C22_2 C23_2 1_555 1_555
C23_2 H11_2 1_555 1_555
C24_2 C23_2 1_555 1_555
H12_2 C24_2 1_555 1_555
C25_2 C24_2 1_555 1_555
C26_2 C25_2 1_555 1_555
H13_2 C26_2 1_555 1_555
C27_2 C22_2 1_555 1_555
H14_2 C27_2 1_555 1_555
C28_2 C25_2 1_555 1_555
C29_2 C28_2 1_555 1_555
H15_2 C29_2 1_555 1_555
C30_2 C29_2 1_555 1_555
C31_2 C30_2 1_555 1_555
H16_2 C31_2 1_555 1_555
C32_2 C31_2 1_555 1_555
C33_2 C28_2 1_555 1_555
C34_2 C32_2 1_555 1_555
C35_2 C34_2 1_555 1_555
H17_2 C35_2 1_555 1_555
C36_2 C35_2 1_555 1_555
H18_2 C36_2 1_555 1_555
C37_2 C36_2 1_555 1_555
C38_2 C37_2 1_555 1_555
H19_2 C38_2 1_555 1_555
C39_2 C34_2 1_555 1_555
H20_2 C39_2 1_555 1_555
C40_2 C37_2 1_555 1_555
C41_2 O6_2 1_555 1_555
C42_2 C41_2 1_555 1_555
C43_2 C42_2 1_555 1_555
H21_2 C43_2 1_555 1_555
C44_2 C43_2 1_555 1_555
C47_2 C42_2 1_555 1_555
H24_2 C47_2 1_555 1_555
C81_2 H41_2 1_555 1_555
H42_2 C81_2 1_555 1_555
H43_2 C81_2 1_555 1_555
C82_2 C12_2 1_555 1_555
C83_2 C82_2 1_555 1_555
H44_2 C83_2 1_555 1_555
H45_2 C83_2 1_555 1_555
H46_2 C83_2 1_555 1_555
C87_2 O21_2 1_555 1_555
H53_2 C87_2 1_555 1_555
H54_2 C87_2 1_555 1_555
H55_2 C87_2 1_555 1_555
C88_2 O22_2 1_555 1_555
H57_2 C88_2 1_555 1_555
H58_2 C88_2 1_555 1_555
O8_2 C41_2 1_555 1_555
C6_2 C7_2 1_555 1_555
C12_2 C13_2 1_555 1_555
C26_2 C27_2 1_555 1_555
C30_2 C82_2 1_555 1_555
C32_2 C33_2 1_555 1_555
C38_2 C39_2 1_555 1_555
C81_2 C82_2 1_555 1_555
O2_2 H65_2 1_555 1_555
O2_2 H66_2 1_555 1_555
O3_2 H69_2 1_555 1_555
O3_2 H70_2 1_555 1_555
O27 C80_2 1_555 1_555
O28 C80_2 1_555 1_555
O15 C20_2 1_555 1_555
O16 C20_2 1_555 1_555
O23_2 C49_2 1_555 1_555
O24_2 C73_2 1_555 1_555
H8_2 C16_2 1_555 1_555
C17_2 C16_2 1_555 1_555
C18_2 C17_2 1_555 1_555
H9_2 C18_2 1_555 1_555
H10_2 C19_2 1_555 1_555
C20_2 C17_2 1_555 1_555
C46_2 C45_2 1_555 1_555
H23_2 C46_2 1_555 1_555
C48_2 C45_2 1_555 1_555
C49_2 C48_2 1_555 1_555
C50_2 C49_2 1_555 1_555
C51_2 C50_2 1_555 1_555
H25_2 C51_2 1_555 1_555
C52_2 C51_2 1_555 1_555
C53_2 C48_2 1_555 1_555
H26_2 C53_2 1_555 1_555
C54_2 C50_2 1_555 1_555
C66_2 C65_2 1_555 1_555
H33_2 C66_2 1_555 1_555
C68_2 C65_2 1_555 1_555
C69_2 C68_2 1_555 1_555
H35_2 C69_2 1_555 1_555
C70_2 C69_2 1_555 1_555
C71_2 C70_2 1_555 1_555
H36_2 C71_2 1_555 1_555
C72_2 C71_2 1_555 1_555
C73_2 C68_2 1_555 1_555
C74_2 C72_2 1_555 1_555
C75_2 C74_2 1_555 1_555
H37_2 C75_2 1_555 1_555
C76_2 C75_2 1_555 1_555
H38_2 C76_2 1_555 1_555
C77_2 C76_2 1_555 1_555
C78_2 C77_2 1_555 1_555
H39_2 C78_2 1_555 1_555
C79_2 C74_2 1_555 1_555
H40_2 C79_2 1_555 1_555
C80_2 C77_2 1_555 1_555
C84_2 H47_2 1_555 1_555
H48_2 C84_2 1_555 1_555
H49_2 C84_2 1_555 1_555
C85_2 C52_2 1_555 1_555
C86_2 C85_2 1_555 1_555
H50_2 C86_2 1_555 1_555
H51_2 C86_2 1_555 1_555
H52_2 C86_2 1_555 1_555
C89_2 O23_2 1_555 1_555
H60_2 C89_2 1_555 1_555
C90_2 O24_2 1_555 1_555
H63_2 C90_2 1_555 1_555
Cu14 O16 1_555 1_555
C18_2 C19_2 1_555 1_555
C52_2 C53_2 1_555 1_555
C70_2 C85_2 1_555 1_555
C72_2 C73_2 1_555 1_555
C78_2 C79_2 1_555 1_555
C84_2 C85_2 1_555 1_555
Cu14 O7_2 1_555 1_555
O10_2 Cu14 1_555 1_555
O25 C61_2 1_555 1_555
O26 C61_2 1_555 1_555
C56_2 C55_2 1_555 1_555
H28_2 C56_2 1_555 1_555
C57_2 C56_2 1_555 1_555
C58_2 C57_2 1_555 1_555
H29_2 C58_2 1_555 1_555
H30_2 C59_2 1_555 1_555
C60_2 O9_2 1_555 1_555
C61_2 C62_2 1_555 1_555
C62_2 C63_2 1_555 1_555
C63_2 H31_2 1_555 1_555
C64_2 C63_2 1_555 1_555
H32_2 C64_2 1_555 1_555
C67_2 C62_2 1_555 1_555
H34_2 C67_2 1_555 1_555
O10_2 C60_2 1_555 1_555
C57_2 C60_2 1_555 1_555
C58_2 C59_2 1_555 1_555
O7_2 H67_2 1_555 1_555
O7_2 H68_2 1_555 1_555

#END
