
###############################################################################
#
# This file contains modified crystal structure data generated from the
# MOF subset of the Cambridge Structural Database (CSD) v543 
# hosted by the Cambridge Crystallographic Data Centre (CCDC).
#
# This work is licensed under the Creative Commons
# Attribution-NonCommercial-ShareAlike 4.0 International License.
# To view a copy of this license, visit
# http://creativecommons.org/licenses/by-nc-sa/4.0/
# or send a letter to
# Creative Commons, PO Box 1866, Mountain View, CA 94042, USA.
#
# CIF created using the CSD Python API on 29 September 2022
# The structure has been converted into the P1 space group
# The structure has a 3D framework
# The original CSD entry NIMPEG is in the monoclinic crystal system
# The framework has been calculated to contain at least 10.0% void space
# The void calculation uses a probe of radius 1.32A, grid spacing 0.4
# H atom positions have been added when not included in the experimental data
#
###############################################################################

data_NIMPEG
_chemical_formula_moiety         '(C190 H160 Cu8 O40)n'
_symmetry_cell_setting           triclinic
_symmetry_space_group_name_H-M   'P 1'
_symmetry_Int_Tables_number      1
_space_group_name_Hall           'P 1'
loop_
_symmetry_equiv_pos_site_id
_symmetry_equiv_pos_as_xyz
1 x,y,z
_cell_length_a                   20.530(5)
_cell_length_b                   20.773(5)
_cell_length_c                   18.804(4)
_cell_angle_alpha                90
_cell_angle_beta                 90.945(3)
_cell_angle_gamma                90
_cell_volume                     8018.25
loop_
_atom_site_label
_atom_site_type_symbol
_atom_site_fract_x
_atom_site_fract_y
_atom_site_fract_z
O14 O 0.04415(12) 0.54313(15) 0.09885(12)
Cu6 Cu 0.036572(17) 0.48851(2) 0.944680(19)
O5 O 0.44734(13) 0.09690(12) 0.01418(14)
Cu2 Cu 0.963428(17) 0.51149(2) 0.055320(19)
O12 O 0.90091(12) 0.51913(16) 0.14534(13)
Cu4 Cu 0.463428(17) 0.01149(2) 0.055320(19)
O15 O 0.99133(12) 0.42386(13) 0.07936(12)
O17 O 0.94734(13) 0.59690(12) 0.01418(14)
H39 H 0.883597 0.47591 0.157348
H40 H 0.926069 0.536452 0.186636
Cu1 Cu 0.036572(17) 0.51149(2) 0.444680(19)
O1 O 0.10587(10) 0.47759(12) 0.50593(12)
O2 O 0.09909(12) 0.51913(16) 0.35466(13)
O3 O 0.04415(12) 0.45687(15) 0.59885(12)
O4 O 0.50867(12) 0.07614(13) 0.92064(12)
O6 O 0.29236(16) 0.31438(19) 0.78746(17)
C1 C 0.09826(16) 0.46075(17) 0.56812(17)
C2 C 0.15801(15) 0.44385(17) 0.61172(16)
C3 C 0.21745(16) 0.44523(19) 0.5800(2)
H1 H 0.2206 0.4544 0.5307
C4 C 0.27386(17) 0.43294(19) 0.6213(2)
H2 H 0.3150 0.4337 0.5989
C5 C 0.27149(19) 0.42016(19) 0.6915(2)
C6 C 0.2098(2) 0.4165(2) 0.7220(2)
H3 H 0.2062 0.4051 0.7707
C7 C 0.15409(19) 0.4294(2) 0.6821(2)
H4 H 0.1128 0.4280 0.7041
C8 C 0.3313(2) 0.4097(2) 0.7330(2)
C9 C 0.3823(2) 0.4528(2) 0.7251(2)
H5 H 0.3767 0.4881 0.6934
C10 C 0.4408(2) 0.4467(2) 0.7613(3)
C11 C 0.4480(2) 0.3957(2) 0.8083(3)
H6 H 0.4869 0.3921 0.8359
C12 C 0.3997(2) 0.3499(2) 0.8160(2)
C13 C 0.3404(2) 0.3580(2) 0.7792(2)
C14 C 0.5000 0.4905(3) 0.7500
C15 C 0.4893(3) 0.5332(3) 0.6858(4)
H7 H 0.4565 0.5660 0.6966
H8 H 0.4740 0.5071 0.6455
H9 H 0.5303 0.5543 0.6737
C16 C 0.2877(4) 0.2706(4) 0.7342(6)
H10 H 0.3226 0.2380 0.7390
H11 H 0.2914 0.2920 0.6874
C17 C 0.2188(5) 0.2385(8) 0.7417(11)
H12 H 0.2053 0.2408 0.7913
H13 H 0.2212 0.1933 0.7269
H14 H 0.1871 0.2613 0.7114
C18 C 0.4174(2) 0.2903(2) 0.8551(3)
C19 C 0.4755(2) 0.2573(3) 0.8335(3)
H15 H 0.5017 0.2733 0.7963
C20 C 0.4918(2) 0.2009(3) 0.8695(3)
H16 H 0.5307 0.1791 0.8569
C21 C 0.45365(19) 0.1743(2) 0.9238(2)
C22 C 0.4000(3) 0.2099(2) 0.9433(3)
H17 H 0.3743 0.1951 0.9815
C23 C 0.3822(3) 0.2677(2) 0.9083(3)
H18 H 0.3446 0.2905 0.9229
C24 C 0.47065(16) 0.11054(19) 0.9558(2)
O7 O 0.89413(10) 0.47759(12) 0.99407(12)
O8 O 0.95585(12) 0.45687(15) 0.90115(12)
O9 O 0.49133(12) 0.07614(13) 0.57936(12)
O10 O 0.55266(13) 0.09690(12) 0.48582(14)
O11 O 0.70764(16) 0.31438(19) 0.71254(17)
C25 C 0.90174(16) 0.46075(17) 0.93188(17)
C26 C 0.84199(15) 0.44385(17) 0.88828(16)
C27 C 0.78255(16) 0.44523(19) 0.9200(2)
H19 H 0.7794 0.4544 0.9693
C28 C 0.72614(17) 0.43294(19) 0.8787(2)
H20 H 0.6850 0.4337 0.9011
C29 C 0.72851(19) 0.42016(19) 0.8085(2)
C30 C 0.7902(2) 0.4165(2) 0.7780(2)
H21 H 0.7938 0.4051 0.7293
C31 C 0.84591(19) 0.4294(2) 0.8179(2)
H22 H 0.8872 0.4280 0.7959
C32 C 0.6687(2) 0.4097(2) 0.7670(2)
C33 C 0.6177(2) 0.4528(2) 0.7749(2)
H23 H 0.6233 0.4881 0.8066
C34 C 0.5592(2) 0.4467(2) 0.7387(3)
C35 C 0.5520(2) 0.3957(2) 0.6917(3)
H24 H 0.5131 0.3921 0.6641
C36 C 0.6003(2) 0.3499(2) 0.6840(2)
C37 C 0.6596(2) 0.3580(2) 0.7208(2)
C38 C 0.5107(3) 0.5332(3) 0.8142(4)
H25 H 0.5435 0.5660 0.8034
H26 H 0.5260 0.5071 0.8545
H27 H 0.4697 0.5543 0.8263
C39 C 0.7123(4) 0.2706(4) 0.7658(6)
H28 H 0.6774 0.2380 0.7610
H29 H 0.7086 0.2920 0.8126
C40 C 0.7812(5) 0.2385(8) 0.7583(11)
H30 H 0.7947 0.2408 0.7087
H31 H 0.7788 0.1933 0.7731
H32 H 0.8129 0.2613 0.7886
C41 C 0.5826(2) 0.2903(2) 0.6449(3)
C42 C 0.5245(2) 0.2573(3) 0.6665(3)
H33 H 0.4983 0.2733 0.7037
C43 C 0.5082(2) 0.2009(3) 0.6305(3)
H34 H 0.4693 0.1791 0.6431
C44 C 0.54635(19) 0.1743(2) 0.5762(2)
C45 C 0.6000(3) 0.2099(2) 0.5567(3)
H35 H 0.6257 0.1951 0.5185
C46 C 0.6178(3) 0.2677(2) 0.5917(3)
H36 H 0.6554 0.2905 0.5771
C47 C 0.52935(16) 0.11054(19) 0.5442(2)
Cu3 Cu 0.536572(17) 0.01149(2) 0.444680(19)
O16 O 0.00867(12) 0.42386(13) 0.42064(12)
O18 O 0.05266(13) 0.59690(12) 0.48582(14)
H37 H 0.116403 0.47591 0.342652
H38 H 0.0739309 0.536452 0.313364
Cu7 Cu 0.463428(17) 0.98851(2) 0.555320(19)
Cu8 Cu 0.536572(17) 0.98851(2) 0.944680(19)
Cu5 Cu 0.963428(17) 0.48851(2) 0.555320(19)
O13 O 0.95585(12) 0.54313(15) 0.40115(12)
O12_2 O 0.40091(12) 0.01913(16) 0.14534(13)
O14_2 O 0.54415(12) 0.04313(15) 0.09885(12)
H40_2 H 0.426069 0.0364522 0.186636
O15_2 O 0.49133(12) 0.92386(13) 0.07936(12)
H39_2 H 0.383597 0.97591 0.157348
O4_2 O 0.00867(12) 0.57614(13) 0.92064(12)
C14_2 C -0.0000 0.9905(3) 0.7500
H15_2 H 0.0017 0.7733 0.7963
H16_2 H 0.0307 0.6791 0.8569
O7_2 O 0.39413(10) 0.97759(12) 0.99407(12)
O8_2 O 0.45585(12) 0.95687(15) 0.90115(12)
O11_2 O 0.20764(16) 0.81438(19) 0.71254(17)
C25_2 C 0.40174(16) 0.96075(17) 0.93188(17)
C26_2 C 0.34199(15) 0.94385(17) 0.88828(16)
C27_2 C 0.28255(16) 0.94523(19) 0.9200(2)
H19_2 H 0.2794 0.9544 0.9693
C28_2 C 0.22614(17) 0.93294(19) 0.8787(2)
H20_2 H 0.1850 0.9337 0.9011
C29_2 C 0.22851(19) 0.92016(19) 0.8085(2)
C30_2 C 0.2902(2) 0.9165(2) 0.7780(2)
H21_2 H 0.2938 0.9051 0.7293
C31_2 C 0.34591(19) 0.9294(2) 0.8179(2)
H22_2 H 0.3872 0.9280 0.7959
C32_2 C 0.1687(2) 0.9097(2) 0.7670(2)
C33_2 C 0.1177(2) 0.9528(2) 0.7749(2)
H23_2 H 0.1233 0.9881 0.8066
C34_2 C 0.0592(2) 0.9467(2) 0.7387(3)
C35_2 C 0.0520(2) 0.8957(2) 0.6917(3)
H24_2 H 0.0131 0.8921 0.6641
C36_2 C 0.1003(2) 0.8499(2) 0.6840(2)
C37_2 C 0.1596(2) 0.8580(2) 0.7208(2)
C39_2 C 0.2123(4) 0.7706(4) 0.7658(6)
H28_2 H 0.1774 0.7380 0.7610
H29_2 H 0.2086 0.7920 0.8126
C40_2 C 0.2812(5) 0.7385(8) 0.7583(11)
H30_2 H 0.2947 0.7408 0.7087
H31_2 H 0.2788 0.6933 0.7731
H32_2 H 0.3129 0.7613 0.7886
C41_2 C 0.0826(2) 0.7903(2) 0.6449(3)
C42_2 C 0.0245(2) 0.7573(3) 0.6665(3)
C43_2 C 0.0082(2) 0.7009(3) 0.6305(3)
C44_2 C 0.04635(19) 0.6743(2) 0.5762(2)
C45_2 C 0.1000(3) 0.7099(2) 0.5567(3)
H35_2 H 0.1257 0.6951 0.5185
C46_2 C 0.1178(3) 0.7677(2) 0.5917(3)
H36_2 H 0.1554 0.7905 0.5771
C47_2 C 0.02935(16) 0.61054(19) 0.5442(2)
O2_2 O 0.59909(12) 0.01913(16) 0.35466(13)
C15_2 C 0.9893(3) 0.0332(3) 0.6858(4)
H7_2 H 0.9565 0.0660 0.6966
H8_2 H 0.9740 0.0071 0.6455
H27_2 H 0.9697 0.0543 0.8263
O13_2 O 0.45585(12) 0.04313(15) 0.40115(12)
H38_2 H 0.573931 0.0364522 0.313364
O1_2 O 0.60587(10) 0.97759(12) 0.50593(12)
O3_2 O 0.54415(12) 0.95687(15) 0.59885(12)
O6_2 O 0.79236(16) 0.81438(19) 0.78746(17)
C1_2 C 0.59826(16) 0.96075(17) 0.56812(17)
C2_2 C 0.65801(15) 0.94385(17) 0.61172(16)
C3_2 C 0.71745(16) 0.94523(19) 0.5800(2)
H1_2 H 0.7206 0.9544 0.5307
C4_2 C 0.77386(17) 0.93294(19) 0.6213(2)
H2_2 H 0.8150 0.9337 0.5989
C5_2 C 0.77149(19) 0.92016(19) 0.6915(2)
C6_2 C 0.7098(2) 0.9165(2) 0.7220(2)
H3_2 H 0.7062 0.9051 0.7707
C7_2 C 0.65409(19) 0.9294(2) 0.6821(2)
H4_2 H 0.6128 0.9280 0.7041
C8_2 C 0.8313(2) 0.9097(2) 0.7330(2)
C9_2 C 0.8823(2) 0.9528(2) 0.7251(2)
H5_2 H 0.8767 0.9881 0.6934
C10_2 C 0.9408(2) 0.9467(2) 0.7613(3)
C11_2 C 0.9480(2) 0.8957(2) 0.8083(3)
H6_2 H 0.9869 0.8921 0.8359
C12_2 C 0.8997(2) 0.8499(2) 0.8160(2)
C13_2 C 0.8404(2) 0.8580(2) 0.7792(2)
C14_3 C 1.0000 0.9905(3) 0.7500
C16_2 C 0.7877(4) 0.7706(4) 0.7342(6)
H10_2 H 0.8226 0.7380 0.7390
H11_2 H 0.7914 0.7920 0.6874
C17_2 C 0.7188(5) 0.7385(8) 0.7417(11)
H12_2 H 0.7053 0.7408 0.7913
H13_2 H 0.7212 0.6933 0.7269
H14_2 H 0.6871 0.7613 0.7114
C18_2 C 0.9174(2) 0.7903(2) 0.8551(3)
C19_2 C 0.9755(2) 0.7573(3) 0.8335(3)
C20_2 C 0.9918(2) 0.7009(3) 0.8695(3)
C21_2 C 0.95365(19) 0.6743(2) 0.9238(2)
C22_2 C 0.9000(3) 0.7099(2) 0.9433(3)
H17_2 H 0.8743 0.6951 0.9815
C23_2 C 0.8822(3) 0.7677(2) 0.9083(3)
H18_2 H 0.8446 0.7905 0.9229
C24_2 C 0.97065(16) 0.61054(19) 0.9558(2)
O9_2 O 0.99133(12) 0.57614(13) 0.57936(12)
H33_2 H 0.9983 0.7733 0.7037
H34_2 H 0.9693 0.6791 0.6431
O16_2 O 0.50867(12) 0.92386(13) 0.42064(12)
H37_2 H 0.616403 0.97591 0.342652
O1_3 O 0.89413(10) 0.52241(12) 0.49407(12)
O2_3 O 0.90091(12) 0.48087(16) 0.64534(13)
O6_3 O 0.70764(16) 0.68562(19) 0.21254(17)
C1_3 C 0.90174(16) 0.53925(17) 0.43188(17)
C2_3 C 0.84199(15) 0.55615(17) 0.38828(16)
C3_3 C 0.78255(16) 0.55477(19) 0.4200(2)
H1_3 H 0.7794 0.5456 0.4693
C4_3 C 0.72614(17) 0.56706(19) 0.3787(2)
H2_3 H 0.6850 0.5663 0.4011
C5_3 C 0.72851(19) 0.57984(19) 0.3085(2)
C6_3 C 0.7902(2) 0.5835(2) 0.2780(2)
H3_3 H 0.7938 0.5949 0.2293
C7_3 C 0.84591(19) 0.5706(2) 0.3179(2)
H4_3 H 0.8872 0.5720 0.2959
C8_3 C 0.6687(2) 0.5903(2) 0.2670(2)
C9_3 C 0.6177(2) 0.5472(2) 0.2749(2)
H5_3 H 0.6233 0.5119 0.3066
C10_3 C 0.5592(2) 0.5533(2) 0.2387(3)
C11_3 C 0.5520(2) 0.6043(2) 0.1917(3)
H6_3 H 0.5131 0.6079 0.1641
C12_3 C 0.6003(2) 0.6501(2) 0.1840(2)
C13_3 C 0.6596(2) 0.6420(2) 0.2208(2)
C14_4 C 0.5000 0.5095(3) 0.2500
C15_3 C 0.5107(3) 0.4668(3) 0.3142(4)
H7_3 H 0.5435 0.4340 0.3034
H8_3 H 0.5260 0.4929 0.3545
H9_2 H 0.4697 0.4457 0.3263
C16_3 C 0.7123(4) 0.7294(4) 0.2658(6)
H10_3 H 0.6774 0.7620 0.2610
H11_3 H 0.7086 0.7080 0.3126
C17_3 C 0.7812(5) 0.7615(8) 0.2583(11)
H12_3 H 0.7947 0.7592 0.2087
H13_3 H 0.7788 0.8067 0.2731
H14_3 H 0.8129 0.7387 0.2886
C18_3 C 0.5826(2) 0.7097(2) 0.1449(3)
C19_3 C 0.5245(2) 0.7427(3) 0.1665(3)
H15_3 H 0.4983 0.7267 0.2037
C20_3 C 0.5082(2) 0.7991(3) 0.1305(3)
H16_3 H 0.4693 0.8209 0.1431
C21_3 C 0.54635(19) 0.8257(2) 0.0762(2)
C22_3 C 0.6000(3) 0.7901(2) 0.0567(3)
H17_3 H 0.6257 0.8049 0.0185
C23_3 C 0.6178(3) 0.7323(2) 0.0917(3)
H18_3 H 0.6554 0.7095 0.0771
C24_3 C 0.52935(16) 0.88946(19) 0.0442(2)
O7_3 O 0.10587(10) 0.52241(12) 0.00593(12)
O10_2 O 0.44734(13) 0.90310(12) 0.51418(14)
O11_3 O 0.29236(16) 0.68562(19) 0.28746(17)
C25_3 C 0.09826(16) 0.53925(17) 0.06812(17)
C26_3 C 0.15801(15) 0.55615(17) 0.11172(16)
C27_3 C 0.21745(16) 0.55477(19) 0.0800(2)
H19_3 H 0.2206 0.5456 0.0307
C28_3 C 0.27386(17) 0.56706(19) 0.1213(2)
H20_3 H 0.3150 0.5663 0.0989
C29_3 C 0.27149(19) 0.57984(19) 0.1915(2)
C30_3 C 0.2098(2) 0.5835(2) 0.2220(2)
H21_3 H 0.2062 0.5949 0.2707
C31_3 C 0.15409(19) 0.5706(2) 0.1821(2)
H22_3 H 0.1128 0.5720 0.2041
C32_3 C 0.3313(2) 0.5903(2) 0.2330(2)
C33_3 C 0.3823(2) 0.5472(2) 0.2251(2)
H23_3 H 0.3767 0.5119 0.1934
C34_3 C 0.4408(2) 0.5533(2) 0.2613(3)
C35_3 C 0.4480(2) 0.6043(2) 0.3083(3)
H24_3 H 0.4869 0.6079 0.3359
C36_3 C 0.3997(2) 0.6501(2) 0.3160(2)
C37_3 C 0.3404(2) 0.6420(2) 0.2792(2)
C38_2 C 0.4893(3) 0.4668(3) 0.1858(4)
H25_2 H 0.4565 0.4340 0.1966
H26_2 H 0.4740 0.4929 0.1455
H27_3 H 0.5303 0.4457 0.1737
C39_3 C 0.2877(4) 0.7294(4) 0.2342(6)
H28_3 H 0.3226 0.7620 0.2390
H29_3 H 0.2914 0.7080 0.1874
C40_3 C 0.2188(5) 0.7615(8) 0.2417(11)
H30_3 H 0.2053 0.7592 0.2913
H31_3 H 0.2212 0.8067 0.2269
H32_3 H 0.1871 0.7387 0.2114
C41_3 C 0.4174(2) 0.7097(2) 0.3551(3)
C42_3 C 0.4755(2) 0.7427(3) 0.3335(3)
H33_3 H 0.5017 0.7267 0.2963
C43_3 C 0.4918(2) 0.7991(3) 0.3695(3)
H34_3 H 0.5307 0.8209 0.3569
C44_3 C 0.45365(19) 0.8257(2) 0.4238(2)
C45_3 C 0.4000(3) 0.7901(2) 0.4433(3)
H35_3 H 0.3743 0.8049 0.4815
C46_3 C 0.3822(3) 0.7323(2) 0.4083(3)
H36_3 H 0.3446 0.7095 0.4229
C47_3 C 0.47065(16) 0.88946(19) 0.4558(2)
O18_2 O 0.94734(13) 0.40310(12) 0.51418(14)
H37_3 H 0.883597 0.52409 0.657348
H38_3 H 0.926069 0.463548 0.686636
O5_2 O 0.55266(13) 0.90310(12) 0.98582(14)
O12_3 O 0.09909(12) 0.48087(16) 0.85466(13)
O17_2 O 0.05266(13) 0.40310(12) 0.98582(14)
H39_3 H 0.116403 0.52409 0.842652
H40_3 H 0.0739309 0.463548 0.813364
O1_4 O 0.39413(10) 0.02241(12) 0.49407(12)
O6_4 O 0.20764(16) 0.18562(19) 0.21254(17)
C1_4 C 0.40174(16) 0.03925(17) 0.43188(17)
C2_4 C 0.34199(15) 0.05615(17) 0.38828(16)
C3_4 C 0.28255(16) 0.05477(19) 0.4200(2)
H1_4 H 0.2794 0.0456 0.4693
C4_4 C 0.22614(17) 0.06706(19) 0.3787(2)
H2_4 H 0.1850 0.0663 0.4011
C5_4 C 0.22851(19) 0.07984(19) 0.3085(2)
C6_4 C 0.2902(2) 0.0835(2) 0.2780(2)
H3_4 H 0.2938 0.0949 0.2293
C7_4 C 0.34591(19) 0.0706(2) 0.3179(2)
H4_4 H 0.3872 0.0720 0.2959
C8_4 C 0.1687(2) 0.0903(2) 0.2670(2)
C9_4 C 0.1177(2) 0.0472(2) 0.2749(2)
H5_4 H 0.1233 0.0119 0.3066
C10_4 C 0.0592(2) 0.0533(2) 0.2387(3)
C11_4 C 0.0520(2) 0.1043(2) 0.1917(3)
H6_4 H 0.0131 0.1079 0.1641
C12_4 C 0.1003(2) 0.1501(2) 0.1840(2)
C13_4 C 0.1596(2) 0.1420(2) 0.2208(2)
C14_5 C 0.0000 0.0095(3) 0.2500
C16_4 C 0.2123(4) 0.2294(4) 0.2658(6)
H10_4 H 0.1774 0.2620 0.2610
H11_4 H 0.2086 0.2080 0.3126
C17_4 C 0.2812(5) 0.2615(8) 0.2583(11)
H12_4 H 0.2947 0.2592 0.2087
H13_4 H 0.2788 0.3067 0.2731
H14_4 H 0.3129 0.2387 0.2886
C18_4 C 0.0826(2) 0.2097(2) 0.1449(3)
C19_4 C 0.0245(2) 0.2427(3) 0.1665(3)
C20_4 C 0.0082(2) 0.2991(3) 0.1305(3)
C21_4 C 0.04635(19) 0.3257(2) 0.0762(2)
C22_4 C 0.1000(3) 0.2901(2) 0.0567(3)
H17_4 H 0.1257 0.3049 0.0185
C23_4 C 0.1178(3) 0.2323(2) 0.0917(3)
H18_4 H 0.1554 0.2095 0.0771
C24_4 C 0.02935(16) 0.38946(19) 0.0442(2)
H33_4 H 0.0017 0.2267 0.2963
H34_4 H 0.0307 0.3209 0.3569
H37_4 H 0.383597 0.0240903 0.657348
O2_4 O 0.40091(12) 0.98087(16) 0.64534(13)
C15_4 C 0.0107(3) 0.9668(3) 0.3142(4)
H7_4 H 0.0435 0.9340 0.3034
H8_4 H 0.0260 0.9929 0.3545
H27_4 H 0.0303 0.9457 0.1737
H38_4 H 0.426069 0.963548 0.686636
C14_6 C 1.0000 0.0095(3) 0.2500
H15_4 H 0.9983 0.2267 0.2037
H16_4 H 0.9693 0.3209 0.1431
O7_4 O 0.60587(10) 0.02241(12) 0.00593(12)
O11_4 O 0.79236(16) 0.18562(19) 0.28746(17)
C25_4 C 0.59826(16) 0.03925(17) 0.06812(17)
C26_4 C 0.65801(15) 0.05615(17) 0.11172(16)
C27_4 C 0.71745(16) 0.05477(19) 0.0800(2)
H19_4 H 0.7206 0.0456 0.0307
C28_4 C 0.77386(17) 0.06706(19) 0.1213(2)
H20_4 H 0.8150 0.0663 0.0989
C29_4 C 0.77149(19) 0.07984(19) 0.1915(2)
C30_4 C 0.7098(2) 0.0835(2) 0.2220(2)
H21_4 H 0.7062 0.0949 0.2707
C31_4 C 0.65409(19) 0.0706(2) 0.1821(2)
H22_4 H 0.6128 0.0720 0.2041
C32_4 C 0.8313(2) 0.0903(2) 0.2330(2)
C33_4 C 0.8823(2) 0.0472(2) 0.2251(2)
H23_4 H 0.8767 0.0119 0.1934
C34_4 C 0.9408(2) 0.0533(2) 0.2613(3)
C35_4 C 0.9480(2) 0.1043(2) 0.3083(3)
H24_4 H 0.9869 0.1079 0.3359
C36_4 C 0.8997(2) 0.1501(2) 0.3160(2)
C37_4 C 0.8404(2) 0.1420(2) 0.2792(2)
C39_4 C 0.7877(4) 0.2294(4) 0.2342(6)
H28_4 H 0.8226 0.2620 0.2390
H29_4 H 0.7914 0.2080 0.1874
C40_4 C 0.7188(5) 0.2615(8) 0.2417(11)
H30_4 H 0.7053 0.2592 0.2913
H31_4 H 0.7212 0.3067 0.2269
H32_4 H 0.6871 0.2387 0.2114
C41_4 C 0.9174(2) 0.2097(2) 0.3551(3)
C42_4 C 0.9755(2) 0.2427(3) 0.3335(3)
C43_4 C 0.9918(2) 0.2991(3) 0.3695(3)
C44_4 C 0.95365(19) 0.3257(2) 0.4238(2)
C45_4 C 0.9000(3) 0.2901(2) 0.4433(3)
H35_4 H 0.8743 0.3049 0.4815
C46_4 C 0.8822(3) 0.2323(2) 0.4083(3)
H36_4 H 0.8446 0.2095 0.4229
C47_4 C 0.97065(16) 0.38946(19) 0.4558(2)
H39_4 H 0.616403 0.0240903 0.842652
O12_4 O 0.59909(12) 0.98087(16) 0.85466(13)
H40_4 H 0.573931 0.963548 0.813364
H9_3 H 0.0303 0.0543 0.6737
C38_3 C 0.0107(3) 0.0332(3) 0.8142(4)
H25_3 H 0.0435 0.0660 0.8034
H26_3 H 0.0260 0.0071 0.8545
H9_4 H 0.9697 0.9457 0.3263
C38_4 C 0.9893(3) 0.9668(3) 0.1858(4)
H25_4 H 0.9565 0.9340 0.1966
H26_4 H 0.9740 0.9929 0.1455
loop_
_geom_bond_atom_site_label_1
_geom_bond_atom_site_label_2
_geom_bond_site_symmetry_1
_geom_bond_site_symmetry_2
O12 Cu2 1_555 1_555
Cu4 O5 1_555 1_555
O15 Cu2 1_555 1_555
O17 Cu2 1_555 1_555
O12 H39 1_555 1_555
O12 H40 1_555 1_555
Cu1 O1 1_555 1_555
O1 C1 1_555 1_555
O2 Cu1 1_555 1_555
O3 C1 1_555 1_555
O4 C24 1_555 1_555
O6 C13 1_555 1_555
C1 C2 1_555 1_555
C2 C3 1_555 1_555
C3 H1 1_555 1_555
C4 C3 1_555 1_555
H2 C4 1_555 1_555
C5 C4 1_555 1_555
C6 C5 1_555 1_555
H3 C6 1_555 1_555
C7 C2 1_555 1_555
H4 C7 1_555 1_555
C8 C5 1_555 1_555
C9 C8 1_555 1_555
H5 C9 1_555 1_555
C10 C9 1_555 1_555
C11 C10 1_555 1_555
H6 C11 1_555 1_555
C12 C11 1_555 1_555
C13 C8 1_555 1_555
C14 C10 1_555 1_555
C15 C14 1_555 1_555
H7 C15 1_555 1_555
H8 C15 1_555 1_555
H9 C15 1_555 1_555
C16 O6 1_555 1_555
H10 C16 1_555 1_555
H11 C16 1_555 1_555
C17 C16 1_555 1_555
H12 C17 1_555 1_555
H13 C17 1_555 1_555
H14 C17 1_555 1_555
C18 C12 1_555 1_555
C19 C18 1_555 1_555
H15 C19 1_555 1_555
C20 C19 1_555 1_555
H16 C20 1_555 1_555
C21 C20 1_555 1_555
C22 C21 1_555 1_555
H17 C22 1_555 1_555
C23 C18 1_555 1_555
H18 C23 1_555 1_555
C24 C21 1_555 1_555
O7 C25 1_555 1_555
O8 C25 1_555 1_555
O9 C47 1_555 1_555
O10 C47 1_555 1_555
O11 C37 1_555 1_555
C25 C26 1_555 1_555
C26 C27 1_555 1_555
C27 H19 1_555 1_555
C28 C27 1_555 1_555
H20 C28 1_555 1_555
C29 C28 1_555 1_555
C30 C29 1_555 1_555
H21 C30 1_555 1_555
C31 C26 1_555 1_555
H22 C31 1_555 1_555
C32 C29 1_555 1_555
C33 C32 1_555 1_555
H23 C33 1_555 1_555
C34 C14 1_555 1_555
C35 C34 1_555 1_555
H24 C35 1_555 1_555
C36 C35 1_555 1_555
C37 C32 1_555 1_555
C38 C14 1_555 1_555
H25 C38 1_555 1_555
H26 C38 1_555 1_555
H27 C38 1_555 1_555
C39 O11 1_555 1_555
H28 C39 1_555 1_555
H29 C39 1_555 1_555
C40 C39 1_555 1_555
H30 C40 1_555 1_555
H31 C40 1_555 1_555
H32 C40 1_555 1_555
C41 C36 1_555 1_555
C42 C41 1_555 1_555
H33 C42 1_555 1_555
C43 C42 1_555 1_555
H34 C43 1_555 1_555
C44 C43 1_555 1_555
C45 C44 1_555 1_555
H35 C45 1_555 1_555
C46 C41 1_555 1_555
H36 C46 1_555 1_555
C47 C44 1_555 1_555
Cu3 O10 1_555 1_555
O16 Cu1 1_555 1_555
O18 Cu1 1_555 1_555
C6 C7 1_555 1_555
C12 C13 1_555 1_555
C22 C23 1_555 1_555
C30 C31 1_555 1_555
C33 C34 1_555 1_555
C36 C37 1_555 1_555
C45 C46 1_555 1_555
O2 H37 1_555 1_555
O2 H38 1_555 1_555
O12_2 Cu4 1_555 1_555
O14_2 Cu4 1_555 1_555
O12_2 H40_2 1_555 1_555
O7_2 C25_2 1_555 1_555
O8_2 C25_2 1_555 1_555
O18 C47_2 1_555 1_555
O11_2 C37_2 1_555 1_555
C25_2 C26_2 1_555 1_555
C26_2 C27_2 1_555 1_555
C27_2 H19_2 1_555 1_555
C28_2 C27_2 1_555 1_555
H20_2 C28_2 1_555 1_555
C29_2 C28_2 1_555 1_555
C30_2 C29_2 1_555 1_555
H21_2 C30_2 1_555 1_555
C31_2 C26_2 1_555 1_555
H22_2 C31_2 1_555 1_555
C32_2 C29_2 1_555 1_555
C33_2 C32_2 1_555 1_555
H23_2 C33_2 1_555 1_555
C34_2 C14_2 1_555 1_555
C35_2 C34_2 1_555 1_555
H24_2 C35_2 1_555 1_555
C36_2 C35_2 1_555 1_555
C37_2 C32_2 1_555 1_555
C39_2 O11_2 1_555 1_555
H28_2 C39_2 1_555 1_555
H29_2 C39_2 1_555 1_555
C40_2 C39_2 1_555 1_555
H30_2 C40_2 1_555 1_555
H31_2 C40_2 1_555 1_555
H32_2 C40_2 1_555 1_555
C41_2 C36_2 1_555 1_555
C42_2 C41_2 1_555 1_555
C43_2 C42_2 1_555 1_555
C44_2 C43_2 1_555 1_555
C45_2 C44_2 1_555 1_555
H35_2 C45_2 1_555 1_555
C46_2 C41_2 1_555 1_555
H36_2 C46_2 1_555 1_555
C47_2 C44_2 1_555 1_555
Cu8 O8_2 1_555 1_555
Cu6 O4_2 1_555 1_555
C30_2 C31_2 1_555 1_555
C33_2 C34_2 1_555 1_555
C36_2 C37_2 1_555 1_555
C45_2 C46_2 1_555 1_555
O2_2 Cu3 1_555 1_555
H7_2 C15_2 1_555 1_555
H8_2 C15_2 1_555 1_555
O13_2 Cu3 1_555 1_555
O2_2 H38_2 1_555 1_555
O1_2 C1_2 1_555 1_555
O3_2 C1_2 1_555 1_555
O6_2 C13_2 1_555 1_555
C1_2 C2_2 1_555 1_555
C2_2 C3_2 1_555 1_555
C3_2 H1_2 1_555 1_555
C4_2 C3_2 1_555 1_555
H2_2 C4_2 1_555 1_555
C5_2 C4_2 1_555 1_555
C6_2 C5_2 1_555 1_555
H3_2 C6_2 1_555 1_555
C7_2 C2_2 1_555 1_555
H4_2 C7_2 1_555 1_555
C8_2 C5_2 1_555 1_555
C9_2 C8_2 1_555 1_555
H5_2 C9_2 1_555 1_555
C10_2 C9_2 1_555 1_555
C11_2 C10_2 1_555 1_555
H6_2 C11_2 1_555 1_555
C12_2 C11_2 1_555 1_555
C13_2 C8_2 1_555 1_555
C14_3 C10_2 1_555 1_555
C16_2 O6_2 1_555 1_555
H10_2 C16_2 1_555 1_555
H11_2 C16_2 1_555 1_555
C17_2 C16_2 1_555 1_555
H12_2 C17_2 1_555 1_555
H13_2 C17_2 1_555 1_555
H14_2 C17_2 1_555 1_555
C18_2 C12_2 1_555 1_555
C19_2 C18_2 1_555 1_555
C20_2 C19_2 1_555 1_555
C21_2 C20_2 1_555 1_555
C22_2 C21_2 1_555 1_555
H17_2 C22_2 1_555 1_555
C23_2 C18_2 1_555 1_555
H18_2 C23_2 1_555 1_555
C24_2 C21_2 1_555 1_555
Cu7 O3_2 1_555 1_555
Cu5 O9_2 1_555 1_555
C6_2 C7_2 1_555 1_555
C12_2 C13_2 1_555 1_555
C22_2 C23_2 1_555 1_555
Cu5 O1_3 1_555 1_555
O1_3 C1_3 1_555 1_555
O2_3 Cu5 1_555 1_555
O13 C1_3 1_555 1_555
O15_2 C24_3 1_555 1_555
O6_3 C13_3 1_555 1_555
C1_3 C2_3 1_555 1_555
C2_3 C3_3 1_555 1_555
C3_3 H1_3 1_555 1_555
C4_3 C3_3 1_555 1_555
H2_3 C4_3 1_555 1_555
C5_3 C4_3 1_555 1_555
C6_3 C5_3 1_555 1_555
H3_3 C6_3 1_555 1_555
C7_3 C2_3 1_555 1_555
H4_3 C7_3 1_555 1_555
C8_3 C5_3 1_555 1_555
C9_3 C8_3 1_555 1_555
H5_3 C9_3 1_555 1_555
C10_3 C9_3 1_555 1_555
C11_3 C10_3 1_555 1_555
H6_3 C11_3 1_555 1_555
C12_3 C11_3 1_555 1_555
C13_3 C8_3 1_555 1_555
C14_4 C10_3 1_555 1_555
C15_3 C14_4 1_555 1_555
H7_3 C15_3 1_555 1_555
H8_3 C15_3 1_555 1_555
H9_2 C15_3 1_555 1_555
C16_3 O6_3 1_555 1_555
H10_3 C16_3 1_555 1_555
H11_3 C16_3 1_555 1_555
C17_3 C16_3 1_555 1_555
H12_3 C17_3 1_555 1_555
H13_3 C17_3 1_555 1_555
H14_3 C17_3 1_555 1_555
C18_3 C12_3 1_555 1_555
C19_3 C18_3 1_555 1_555
H15_3 C19_3 1_555 1_555
C20_3 C19_3 1_555 1_555
H16_3 C20_3 1_555 1_555
C21_3 C20_3 1_555 1_555
C22_3 C21_3 1_555 1_555
H17_3 C22_3 1_555 1_555
C23_3 C18_3 1_555 1_555
H18_3 C23_3 1_555 1_555
C24_3 C21_3 1_555 1_555
O7_3 C25_3 1_555 1_555
O14 C25_3 1_555 1_555
O16_2 C47_3 1_555 1_555
O10_2 C47_3 1_555 1_555
O11_3 C37_3 1_555 1_555
C25_3 C26_3 1_555 1_555
C26_3 C27_3 1_555 1_555
C27_3 H19_3 1_555 1_555
C28_3 C27_3 1_555 1_555
H20_3 C28_3 1_555 1_555
C29_3 C28_3 1_555 1_555
C30_3 C29_3 1_555 1_555
H21_3 C30_3 1_555 1_555
C31_3 C26_3 1_555 1_555
H22_3 C31_3 1_555 1_555
C32_3 C29_3 1_555 1_555
C33_3 C32_3 1_555 1_555
H23_3 C33_3 1_555 1_555
C34_3 C14_4 1_555 1_555
C35_3 C34_3 1_555 1_555
H24_3 C35_3 1_555 1_555
C36_3 C35_3 1_555 1_555
C37_3 C32_3 1_555 1_555
C38_2 C14_4 1_555 1_555
H25_2 C38_2 1_555 1_555
H26_2 C38_2 1_555 1_555
H27_3 C38_2 1_555 1_555
C39_3 O11_3 1_555 1_555
H28_3 C39_3 1_555 1_555
H29_3 C39_3 1_555 1_555
C40_3 C39_3 1_555 1_555
H30_3 C40_3 1_555 1_555
H31_3 C40_3 1_555 1_555
H32_3 C40_3 1_555 1_555
C41_3 C36_3 1_555 1_555
C42_3 C41_3 1_555 1_555
H33_3 C42_3 1_555 1_555
C43_3 C42_3 1_555 1_555
H34_3 C43_3 1_555 1_555
C44_3 C43_3 1_555 1_555
C45_3 C44_3 1_555 1_555
H35_3 C45_3 1_555 1_555
C46_3 C41_3 1_555 1_555
H36_3 C46_3 1_555 1_555
C47_3 C44_3 1_555 1_555
Cu7 O10_2 1_555 1_555
O18_2 Cu5 1_555 1_555
C6_3 C7_3 1_555 1_555
C12_3 C13_3 1_555 1_555
C22_3 C23_3 1_555 1_555
C30_3 C31_3 1_555 1_555
C33_3 C34_3 1_555 1_555
C36_3 C37_3 1_555 1_555
C45_3 C46_3 1_555 1_555
O2_3 H37_3 1_555 1_555
O2_3 H38_3 1_555 1_555
O12_3 Cu6 1_555 1_555
Cu8 O5_2 1_555 1_555
O17_2 Cu6 1_555 1_555
O12_3 H39_3 1_555 1_555
O12_3 H40_3 1_555 1_555
O1_4 C1_4 1_555 1_555
O13_2 C1_4 1_555 1_555
O6_4 C13_4 1_555 1_555
C1_4 C2_4 1_555 1_555
C2_4 C3_4 1_555 1_555
C3_4 H1_4 1_555 1_555
C4_4 C3_4 1_555 1_555
H2_4 C4_4 1_555 1_555
C5_4 C4_4 1_555 1_555
C6_4 C5_4 1_555 1_555
H3_4 C6_4 1_555 1_555
C7_4 C2_4 1_555 1_555
H4_4 C7_4 1_555 1_555
C8_4 C5_4 1_555 1_555
C9_4 C8_4 1_555 1_555
H5_4 C9_4 1_555 1_555
C10_4 C9_4 1_555 1_555
C11_4 C10_4 1_555 1_555
H6_4 C11_4 1_555 1_555
C12_4 C11_4 1_555 1_555
C13_4 C8_4 1_555 1_555
C14_5 C10_4 1_555 1_555
C16_4 O6_4 1_555 1_555
H10_4 C16_4 1_555 1_555
H11_4 C16_4 1_555 1_555
C17_4 C16_4 1_555 1_555
H12_4 C17_4 1_555 1_555
H13_4 C17_4 1_555 1_555
H14_4 C17_4 1_555 1_555
C18_4 C12_4 1_555 1_555
C19_4 C18_4 1_555 1_555
C20_4 C19_4 1_555 1_555
C21_4 C20_4 1_555 1_555
C22_4 C21_4 1_555 1_555
H17_4 C22_4 1_555 1_555
C23_4 C18_4 1_555 1_555
H18_4 C23_4 1_555 1_555
C24_4 C21_4 1_555 1_555
C6_4 C7_4 1_555 1_555
C12_4 C13_4 1_555 1_555
C22_4 C23_4 1_555 1_555
O2_4 Cu7 1_555 1_555
H7_4 C15_4 1_555 1_555
H8_4 C15_4 1_555 1_555
O2_4 H38_4 1_555 1_555
O7_4 C25_4 1_555 1_555
O14_2 C25_4 1_555 1_555
O18_2 C47_4 1_555 1_555
O11_4 C37_4 1_555 1_555
C25_4 C26_4 1_555 1_555
C26_4 C27_4 1_555 1_555
C27_4 H19_4 1_555 1_555
C28_4 C27_4 1_555 1_555
H20_4 C28_4 1_555 1_555
C29_4 C28_4 1_555 1_555
C30_4 C29_4 1_555 1_555
H21_4 C30_4 1_555 1_555
C31_4 C26_4 1_555 1_555
H22_4 C31_4 1_555 1_555
C32_4 C29_4 1_555 1_555
C33_4 C32_4 1_555 1_555
H23_4 C33_4 1_555 1_555
C34_4 C14_6 1_555 1_555
C35_4 C34_4 1_555 1_555
H24_4 C35_4 1_555 1_555
C36_4 C35_4 1_555 1_555
C37_4 C32_4 1_555 1_555
C39_4 O11_4 1_555 1_555
H28_4 C39_4 1_555 1_555
H29_4 C39_4 1_555 1_555
C40_4 C39_4 1_555 1_555
H30_4 C40_4 1_555 1_555
H31_4 C40_4 1_555 1_555
H32_4 C40_4 1_555 1_555
C41_4 C36_4 1_555 1_555
C42_4 C41_4 1_555 1_555
C43_4 C42_4 1_555 1_555
C44_4 C43_4 1_555 1_555
C45_4 C44_4 1_555 1_555
H35_4 C45_4 1_555 1_555
C46_4 C41_4 1_555 1_555
H36_4 C46_4 1_555 1_555
C47_4 C44_4 1_555 1_555
C30_4 C31_4 1_555 1_555
C33_4 C34_4 1_555 1_555
C36_4 C37_4 1_555 1_555
C45_4 C46_4 1_555 1_555
O12_4 Cu8 1_555 1_555
O12_4 H40_4 1_555 1_555
H25_3 C38_3 1_555 1_555
H26_3 C38_3 1_555 1_555
H25_4 C38_4 1_555 1_555
H26_4 C38_4 1_555 1_555

#END
