
###############################################################################
#
# This file contains modified crystal structure data generated from the
# MOF subset of the Cambridge Structural Database (CSD) v543 
# hosted by the Cambridge Crystallographic Data Centre (CCDC).
#
# This work is licensed under the Creative Commons
# Attribution-NonCommercial-ShareAlike 4.0 International License.
# To view a copy of this license, visit
# http://creativecommons.org/licenses/by-nc-sa/4.0/
# or send a letter to
# Creative Commons, PO Box 1866, Mountain View, CA 94042, USA.
#
# CIF created using the CSD Python API on 29 September 2022
# The structure has been converted into the P1 space group
# The structure has a 3D framework
# The original CSD entry NIMRAD is in the rhombohedral crystal system
# The framework has been calculated to contain at least 10.0% void space
# The void calculation uses a probe of radius 1.32A, grid spacing 0.4
# H atom positions have been added when not included in the experimental data
#
###############################################################################

data_NIMRAD
_chemical_formula_moiety         '(C216 H180 Cu9 N36 O54)n'
_symmetry_cell_setting           triclinic
_symmetry_space_group_name_H-M   'P 1'
_symmetry_Int_Tables_number      1
_space_group_name_Hall           'P 1'
loop_
_symmetry_equiv_pos_site_id
_symmetry_equiv_pos_as_xyz
1 x,y,z
_cell_length_a                   18.604(3)
_cell_length_b                   18.604(3)
_cell_length_c                   19.756(4)
_cell_angle_alpha                90
_cell_angle_beta                 90
_cell_angle_gamma                120.00
_cell_volume                     5921.64
loop_
_atom_site_label
_atom_site_type_symbol
_atom_site_fract_x
_atom_site_fract_y
_atom_site_fract_z
Cu6 Cu 0.0000 0.5000 0.0000
Cu6_2 Cu -0.0000 0.5000 1.0000
Cu5 Cu 0.5000 0.0000 0.0000
Cu5_2 Cu 0.5000 0.0000 1.0000
Cu8 Cu 0.5000 0.5000 0.0000
C31 C 0.5238(3) 0.5482(3) 0.1440(2)
C32 C 0.4762(3) 0.4518(3) 0.8560(2)
H17 H 0.5556 0.6013 0.1262
H18 H 0.4444 0.3987 0.8738
C36 C 0.5158(3) 0.5393(3) 0.2134(2)
C37 C 0.4842(3) 0.4607(3) 0.7866(2)
H22 H 0.5415 0.5857 0.2413
H23 H 0.4585 0.4143 0.7587
C41 C 0.4699(2) 0.4619(2) 0.24086(18)
C42 C 0.5301(2) 0.5381(2) 0.75914(18)
C46 C 0.4337(3) 0.3965(3) 0.19655(19)
C47 C 0.5663(3) 0.6035(3) 0.80345(19)
H27 H 0.4019 0.3427 0.2129
H28 H 0.5981 0.6573 0.7871
C51 C 0.4444(3) 0.4104(2) 0.12816(19)
C52 C 0.5556(3) 0.5896(2) 0.87184(19)
H32 H 0.4194 0.3652 0.0989
H33 H 0.5806 0.6348 0.9011
C56 C 0.4559(3) 0.4418(2) 0.31541(18)
C57 C 0.5441(3) 0.5582(2) 0.68459(18)
C61 C 0.4949(2) 0.5002(2) 0.42956(19)
C62 C 0.5051(2) 0.4998(2) 0.57044(19)
C66 C 0.5091(3) 0.5687(2) 0.46648(19)
C67 C 0.4909(3) 0.4313(2) 0.53352(19)
H37 H 0.5154 0.6156 0.4442
H38 H 0.4846 0.3844 0.5558
C71 C 0.4858(3) 0.4310(3) 0.46379(19)
C72 C 0.5142(3) 0.5690(3) 0.53621(19)
H42 H 0.4762 0.3842 0.4396
H43 H 0.5238 0.6158 0.5604
Cu8_2 Cu 0.5000 0.5000 1.0000
H47 H 0.514(4) 0.559(3) 0.341(3)
H48 H 0.486(4) 0.441(3) 0.659(3)
N6 N 0.48894(18) 0.48584(17) 0.10218(15)
N7 N 0.51106(18) 0.51416(17) 0.89782(15)
N12 N 0.4944(2) 0.5059(2) 0.35835(17)
N13 N 0.5056(2) 0.4941(2) 0.64165(17)
O14 O 0.47928(13) 0.59172(14) 0.00489(11)
O21 O 0.4114(3) 0.3702(2) 0.33325(16)
O22 O 0.5886(3) 0.6298(2) 0.66675(16)
C1 C 0.4004(2) 0.55666(19) 0.00059(16)
C13 C 0.15626(28) 0.5996(2) 0.00059(16)
C14 C 0.44334(19) 0.84374(28) 0.00059(16)
C20 C 0.63436(19) 0.38642(18) 0.00279(17)
C21 C 0.75206(26) 0.36564(19) 0.00279(17)
C22 C 0.61358(18) 0.24794(26) 0.00279(17)
C25 C 0.71967(19) 0.41882(19) 0.00290(17)
C26 C 0.69915(27) 0.28033(19) 0.00290(17)
C27 C 0.58118(19) 0.30085(27) 0.00290(17)
H11 H 0.7552 0.4760 0.0031
H12 H 0.5240 0.2792 0.0031
H13 H 0.7208 0.2448 0.0031
Cu5_3 Cu 0.5000 1.0000 0.0000
Cu6_3 Cu 1.0000 0.5000 0.0000
O6 O 0.64595(15) 0.51972(14) 0.00062(13)
O7 O 0.87377(21) 0.35405(15) 0.00062(13)
O8 O 0.48028(14) 0.12623(21) 0.00062(13)
O9 O 0.11244(19) 0.52072(13) 0.00489(11)
O10 O 0.40828(14) 0.88756(19) 0.00489(11)
O15 O 0.52072(13) 0.40828(14) 0.99511(11)
C2 C 0.36564(19) 0.61358(18) 0.99721(17)
C3 C 0.28033(19) 0.58118(19) 0.99710(17)
H1 H 0.2448 0.5240 0.9969
O1 O 0.35405(15) 0.48028(14) 0.99938(13)
C15 C 0.5996(2) 0.44334(19) 0.99941(16)
C16 C 0.84374(28) 0.4004(2) 0.99941(16)
C17 C 0.55666(19) 0.15626(28) 0.99941(16)
C18 C 0.24794(26) 0.63436(19) 0.99721(17)
C19 C 0.38642(18) 0.75206(26) 0.99721(17)
C23 C 0.30085(27) 0.71967(19) 0.99710(17)
C24 C 0.41882(19) 0.69915(27) 0.99710(17)
H9 H 0.4760 0.7208 0.9969
H10 H 0.2792 0.7552 0.9969
Cu5_4 Cu 0.5000 1.0000 1.0000
Cu6_4 Cu 1.0000 0.5000 1.0000
O4 O 0.12623(21) 0.64595(15) 0.99938(13)
O5 O 0.51972(14) 0.87377(21) 0.99938(13)
O12 O 0.88756(19) 0.47928(13) 0.99511(11)
O13 O 0.59172(14) 0.11244(19) 0.99511(11)
H49 H 0.535952 0.857643 0.956602
H50 H 0.46291 0.147494 0.9615
C32_2 C 0.5482(3) 0.0244(4) 0.8560(2)
H18_2 H 0.6013 0.0457 0.8738
C37_2 C 0.5393(3) 0.0235(4) 0.7866(2)
H23_2 H 0.5857 0.0442 0.7587
C41_2 C 0.5381(2) 0.0080(3) 0.24086(18)
C46_2 C 0.6035(3) 0.0372(4) 0.19655(19)
H27_2 H 0.6573 0.0592 0.2129
C51_2 C 0.5896(2) 0.0340(4) 0.12816(19)
H32_2 H 0.6348 0.0542 0.0989
C56_2 C 0.5582(2) 0.0141(4) 0.31541(18)
C62_2 C 0.5002(2) 0.0053(3) 0.57044(19)
C67_2 C 0.5687(2) 0.0596(4) 0.53352(19)
H38_2 H 0.6156 0.1002 0.5558
C71_2 C 0.5690(3) 0.0548(4) 0.46379(19)
H42_2 H 0.6158 0.0920 0.4396
H48_2 H 0.559(3) 0.045(5) 0.659(3)
N6_2 N 0.51416(17) 0.00310(25) 0.10218(15)
N13_2 N 0.5059(2) 0.0115(3) 0.64165(17)
O21_2 O 0.6298(2) 0.0412(4) 0.33325(16)
H50_2 H 0.852506 0.315416 0.9615
C31_2 C 0.4518(3) 0.9756(4) 0.1440(2)
H17_2 H 0.3987 0.9543 0.1262
C36_2 C 0.4607(3) 0.9765(4) 0.2134(2)
H22_2 H 0.4143 0.9558 0.2413
C42_2 C 0.4619(2) 0.9920(3) 0.75914(18)
C47_2 C 0.3965(3) 0.9628(4) 0.80345(19)
H28_2 H 0.3427 0.9408 0.7871
C52_2 C 0.4104(2) 0.9660(4) 0.87184(19)
H33_2 H 0.3652 0.9458 0.9011
C57_2 C 0.4418(2) 0.9859(4) 0.68459(18)
C61_2 C 0.4998(2) 0.9947(3) 0.42956(19)
C66_2 C 0.4313(2) 0.9404(4) 0.46648(19)
H37_2 H 0.3844 0.8998 0.4442
C72_2 C 0.4310(3) 0.9452(4) 0.53621(19)
H43_2 H 0.3842 0.9080 0.5604
H47_2 H 0.441(3) 0.955(5) 0.341(3)
N7_2 N 0.48584(17) 0.99690(25) 0.89782(15)
N12_2 N 0.4941(2) 0.9885(3) 0.35835(17)
O22_2 O 0.3702(2) 0.9588(4) 0.66675(16)
H49_2 H 0.142357 0.678309 0.956602
C31_3 C 0.0244(4) 0.4762(3) 0.1440(2)
H17_3 H 0.0457 0.4444 0.1262
C36_3 C 0.0235(4) 0.4842(3) 0.2134(2)
H22_3 H 0.0442 0.4585 0.2413
C42_3 C 0.0080(3) 0.4699(2) 0.75914(18)
C47_3 C 0.0372(4) 0.4337(3) 0.80345(19)
H28_3 H 0.0592 0.4019 0.7871
C52_3 C 0.0340(4) 0.4444(3) 0.87184(19)
H33_3 H 0.0542 0.4194 0.9011
C57_3 C 0.0141(4) 0.4559(3) 0.68459(18)
C61_3 C 0.0053(3) 0.5051(2) 0.42956(19)
C66_3 C 0.0596(4) 0.4909(3) 0.46648(19)
H37_3 H 0.1002 0.4846 0.4442
C72_3 C 0.0548(4) 0.4858(3) 0.53621(19)
H43_3 H 0.0920 0.4762 0.5604
H47_3 H 0.045(5) 0.486(4) 0.341(3)
N7_3 N 0.00310(25) 0.48894(18) 0.89782(15)
N12_3 N 0.0115(3) 0.5056(2) 0.35835(17)
O22_3 O 0.0412(4) 0.4114(3) 0.66675(16)
H49_3 H 0.321691 0.464048 0.956602
C32_3 C 0.9756(4) 0.5238(3) 0.8560(2)
H18_3 H 0.9543 0.5556 0.8738
C37_3 C 0.9765(4) 0.5158(3) 0.7866(2)
H23_3 H 0.9558 0.5415 0.7587
C41_3 C 0.9920(3) 0.5301(2) 0.24086(18)
C46_3 C 0.9628(4) 0.5663(3) 0.19655(19)
H27_3 H 0.9408 0.5981 0.2129
C51_3 C 0.9660(4) 0.5556(3) 0.12816(19)
H32_3 H 0.9458 0.5806 0.0989
C56_3 C 0.9859(4) 0.5441(3) 0.31541(18)
C62_3 C 0.9947(3) 0.4949(2) 0.57044(19)
C67_3 C 0.9404(4) 0.5091(3) 0.53352(19)
H38_3 H 0.8998 0.5154 0.5558
C71_3 C 0.9452(4) 0.5142(3) 0.46379(19)
H42_3 H 0.9080 0.5238 0.4396
H48_3 H 0.955(5) 0.514(4) 0.659(3)
N6_3 N 0.99690(25) 0.51106(18) 0.10218(15)
N13_3 N 0.9885(3) 0.4944(2) 0.64165(17)
O21_3 O 0.9588(4) 0.5886(3) 0.33325(16)
H50_3 H 0.684584 0.53709 0.9615
H49_4 H 0.464048 0.142357 0.0433984
H50_4 H 0.53709 0.852506 0.0384997
H49_5 H 0.857643 0.321691 0.0433984
H50_5 H 0.147494 0.684584 0.0384997
H50_6 H 0.315416 0.46291 0.0384997
H49_6 H 0.678309 0.535952 0.0433984
C14_2 C 0.11001(19) 0.17707(28) 0.33392(16)
C19_2 C 0.05309(18) 0.08539(26) 0.33054(17)
C24_2 C 0.08549(19) 0.03248(27) 0.33043(17)
H9_2 H 0.1427 0.0541 0.3302
Cu5_5 Cu 0.1667 0.3333 0.3333
O5_2 O 0.18639(14) 0.20710(21) 0.33271(13)
O10_2 O 0.07495(14) 0.22089(19) 0.33822(11)
H49_7 H 0.202618 0.190976 0.289935
C32_4 C 0.1429(3) 0.7851(3) 0.1893(2)
H18_4 H 0.1111 0.7320 0.2071
C37_4 C 0.1509(3) 0.7940(3) 0.1199(2)
H23_4 H 0.1252 0.7476 0.0920
C42_4 C 0.1968(2) 0.8714(2) 0.09247(18)
C47_4 C 0.2330(3) 0.9368(3) 0.13678(19)
H28_4 H 0.2648 0.9906 0.1204
C52_4 C 0.2223(3) 0.9229(2) 0.20517(19)
H33_4 H 0.2473 0.9681 0.2344
C57_4 C 0.2108(3) 0.8915(2) 0.01792(18)
Cu8_3 Cu 0.1667 0.8333 0.3333
N7_4 N 0.17773(18) 0.84749(17) 0.23115(15)
O22_4 O 0.2553(3) 0.9631(2) 0.00008(16)
C31_4 C 0.1905(3) 0.8815(3) 0.4773(2)
H17_4 H 0.2223 0.9346 0.4595
C36_4 C 0.1825(3) 0.8726(3) 0.5467(2)
H22_4 H 0.2082 0.9190 0.5746
C41_4 C 0.1366(2) 0.7952(2) 0.57419(18)
C46_4 C 0.1004(3) 0.7298(3) 0.52988(19)
H27_4 H 0.0686 0.6760 0.5462
C51_4 C 0.1111(3) 0.7437(2) 0.46149(19)
H32_4 H 0.0861 0.6985 0.4322
C56_4 C 0.1226(3) 0.7751(2) 0.64874(18)
C61_4 C 0.1616(2) 0.8335(2) 0.76289(19)
C62_4 C 0.1718(2) 0.8331(2) 0.90377(19)
C66_4 C 0.1758(3) 0.9020(2) 0.79981(19)
C67_4 C 0.1576(3) 0.7646(2) 0.86685(19)
H37_4 H 0.1821 0.9489 0.7775
H38_4 H 0.1513 0.7177 0.8891
C71_4 C 0.1525(3) 0.7643(3) 0.79712(19)
C72_4 C 0.1809(3) 0.9023(3) 0.86954(19)
H42_4 H 0.1429 0.7175 0.7729
H43_4 H 0.1905 0.9491 0.8937
H47_4 H 0.181(4) 0.892(3) 0.674(3)
H48_4 H 0.153(4) 0.774(3) 0.992(3)
N6_4 N 0.15561(18) 0.81917(17) 0.43551(15)
N12_4 N 0.1611(2) 0.8392(2) 0.69168(17)
N13_4 N 0.1723(2) 0.8274(2) 0.97498(17)
O14_2 O 0.14595(13) 0.92505(14) 0.33822(11)
O15_2 O 0.18739(13) 0.74161(14) 0.32844(11)
O21_4 O 0.0781(3) 0.7035(2) 0.66658(16)
C1_2 C 0.0671(2) 0.88999(19) 0.33392(16)
C2_2 C 0.03231(19) 0.94691(18) 0.33054(17)
O1_2 O 0.02072(15) 0.81361(14) 0.33271(13)
C15_2 C 0.2663(2) 0.77667(19) 0.33274(16)
C16_2 C 0.51041(28) 0.7337(2) 0.33274(16)
C17_2 C 0.22333(19) 0.48959(28) 0.33274(16)
C20_2 C 0.30103(19) 0.71975(18) 0.33612(17)
C21_2 C 0.41873(26) 0.69897(19) 0.33612(17)
C22_2 C 0.28025(18) 0.58127(26) 0.33612(17)
C25_2 C 0.38634(19) 0.75215(19) 0.33623(17)
C26_2 C 0.36582(27) 0.61366(19) 0.33623(17)
C27_2 C 0.24785(19) 0.63418(27) 0.33623(17)
H11_2 H 0.4219 0.8093 0.3364
H12_2 H 0.1907 0.6125 0.3364
H13_2 H 0.3875 0.5781 0.3364
Cu6_5 Cu 0.6667 0.8333 0.3333
O6_2 O 0.31262(15) 0.85305(14) 0.33395(13)
O7_2 O 0.54044(21) 0.68738(15) 0.33395(13)
O8_2 O 0.14695(14) 0.45956(21) 0.33395(13)
O12_2 O 0.55423(19) 0.81261(13) 0.32844(11)
O13_2 O 0.25839(14) 0.44577(19) 0.32844(11)
H50_7 H 0.129577 0.480827 0.294834
C3_2 C 0.94700(19) 0.91451(19) 0.33043(17)
H1_2 H 0.9115 0.8573 0.3302
C13_2 C 0.82293(28) 0.9329(2) 0.33392(16)
C18_2 C 0.91461(26) 0.96769(19) 0.33054(17)
O4_2 O 0.79290(21) 0.97928(15) 0.33271(13)
O9_2 O 0.77911(19) 0.85405(13) 0.33822(11)
C32_5 C 0.2149(3) 0.3577(4) 0.1893(2)
H18_5 H 0.2680 0.3790 0.2071
C37_5 C 0.2060(3) 0.3568(4) 0.1199(2)
H23_5 H 0.2524 0.3775 0.0920
C42_5 C 0.1286(2) 0.3253(3) 0.09247(18)
C47_5 C 0.0632(3) 0.2961(4) 0.13678(19)
H28_5 H 0.0094 0.2741 0.1204
C52_5 C 0.0771(2) 0.2993(4) 0.20517(19)
H33_5 H 0.0319 0.2791 0.2344
C57_5 C 0.1085(2) 0.3192(4) 0.01792(18)
N7_5 N 0.15251(17) 0.33023(25) 0.23115(15)
O22_5 O 0.0369(2) 0.2921(4) 0.00008(16)
C31_5 C 0.1185(3) 0.3089(4) 0.4773(2)
H17_5 H 0.0654 0.2876 0.4595
C36_5 C 0.1274(3) 0.3098(4) 0.5467(2)
H22_5 H 0.0810 0.2891 0.5746
C41_5 C 0.2048(2) 0.3413(3) 0.57419(18)
C46_5 C 0.2702(3) 0.3705(4) 0.52988(19)
H27_5 H 0.3240 0.3925 0.5462
C51_5 C 0.2563(2) 0.3673(4) 0.46149(19)
H32_5 H 0.3015 0.3875 0.4322
C56_5 C 0.2249(2) 0.3474(4) 0.64874(18)
C61_5 C 0.1665(2) 0.3280(3) 0.76289(19)
C62_5 C 0.1669(2) 0.3386(3) 0.90377(19)
C66_5 C 0.0980(2) 0.2737(4) 0.79981(19)
C67_5 C 0.2354(2) 0.3929(4) 0.86685(19)
H37_5 H 0.0511 0.2331 0.7775
H38_5 H 0.2823 0.4335 0.8891
C71_5 C 0.2357(3) 0.3881(4) 0.79712(19)
C72_5 C 0.0977(3) 0.2785(4) 0.86954(19)
H42_5 H 0.2825 0.4253 0.7729
H43_5 H 0.0509 0.2413 0.8937
H47_5 H 0.108(3) 0.288(5) 0.674(3)
H48_5 H 0.226(3) 0.378(5) 0.992(3)
N6_5 N 0.18083(17) 0.33643(25) 0.43551(15)
N12_5 N 0.1608(2) 0.3218(3) 0.69168(17)
N13_5 N 0.1726(2) 0.3448(3) 0.97498(17)
O21_5 O 0.2965(2) 0.3745(4) 0.66658(16)
H50_8 H 0.519173 0.64875 0.294834
C32_6 C 0.6423(4) 0.8571(3) 0.1893(2)
H18_6 H 0.6210 0.8889 0.2071
C37_6 C 0.6432(4) 0.8491(3) 0.1199(2)
H23_6 H 0.6225 0.8748 0.0920
C42_6 C 0.6747(3) 0.8032(2) 0.09247(18)
C47_6 C 0.7039(4) 0.7670(3) 0.13678(19)
H28_6 H 0.7259 0.7352 0.1204
C52_6 C 0.7007(4) 0.7777(3) 0.20517(19)
H33_6 H 0.7209 0.7527 0.2344
C57_6 C 0.6808(4) 0.7892(3) 0.01792(18)
N7_6 N 0.66977(25) 0.82227(18) 0.23115(15)
O22_6 O 0.7079(4) 0.7447(3) 0.00008(16)
C31_6 C 0.6911(4) 0.8095(3) 0.4773(2)
H17_6 H 0.7124 0.7777 0.4595
C36_6 C 0.6902(4) 0.8175(3) 0.5467(2)
H22_6 H 0.7109 0.7918 0.5746
C41_6 C 0.6587(3) 0.8634(2) 0.57419(18)
C46_6 C 0.6295(4) 0.8996(3) 0.52988(19)
H27_6 H 0.6075 0.9314 0.5462
C51_6 C 0.6327(4) 0.8889(3) 0.46149(19)
H32_6 H 0.6125 0.9139 0.4322
C56_6 C 0.6526(4) 0.8774(3) 0.64874(18)
C61_6 C 0.6720(3) 0.8384(2) 0.76289(19)
C62_6 C 0.6614(3) 0.8282(2) 0.90377(19)
C66_6 C 0.7263(4) 0.8242(3) 0.79981(19)
C67_6 C 0.6071(4) 0.8424(3) 0.86685(19)
H37_6 H 0.7669 0.8179 0.7775
H38_6 H 0.5665 0.8487 0.8891
C71_6 C 0.6119(4) 0.8475(3) 0.79712(19)
C72_6 C 0.7215(4) 0.8191(3) 0.86954(19)
H42_6 H 0.5747 0.8571 0.7729
H43_6 H 0.7587 0.8095 0.8937
H47_6 H 0.712(5) 0.819(4) 0.674(3)
H48_6 H 0.622(5) 0.847(4) 0.992(3)
N6_6 N 0.66357(25) 0.84439(18) 0.43551(15)
N12_6 N 0.6782(3) 0.8389(2) 0.69168(17)
N13_6 N 0.6552(3) 0.8277(2) 0.97498(17)
O21_6 O 0.6255(4) 0.9219(3) 0.66658(16)
H49_8 H 0.988358 0.797382 0.289935
H50_9 H 0.35125 0.870423 0.294834
H50_10 H 0.203756 0.185839 0.371833
H49_9 H 0.130715 0.47569 0.376732
H49_10 H 0.52431 0.655025 0.376732
H49_11 H 0.344975 0.869285 0.376732
H50_11 H 0.982083 0.796244 0.371833
C23_2 C 0.96752(27) 0.05300(19) 0.33043(17)
H10_2 H 0.9459 0.0885 0.3302
H49_12 H 0.809024 0.0116419 0.289935
H50_12 H 0.814161 0.017917 0.371833
C16_3 C 0.17707(28) 0.0671(2) 0.66608(16)
C21_3 C 0.08539(26) 0.03231(19) 0.66946(17)
C25_3 C 0.05300(19) 0.08549(19) 0.66957(17)
H11_3 H 0.0885 0.1427 0.6698
Cu6_6 Cu 0.3333 0.1667 0.6667
O7_3 O 0.20710(21) 0.02072(15) 0.66729(13)
O12_3 O 0.22089(19) 0.14595(13) 0.66178(11)
C32_7 C 0.8095(3) 0.1185(3) 0.5227(2)
H18_7 H 0.7777 0.0654 0.5405
C37_7 C 0.8175(3) 0.1274(3) 0.4533(2)
H23_7 H 0.7918 0.0810 0.4254
C42_7 C 0.8634(2) 0.2048(2) 0.42581(18)
C47_7 C 0.8996(3) 0.2702(3) 0.47012(19)
H28_7 H 0.9314 0.3240 0.4538
C52_7 C 0.8889(3) 0.2563(2) 0.53851(19)
H33_7 H 0.9139 0.3015 0.5678
C57_7 C 0.8774(3) 0.2249(2) 0.35126(18)
C61_7 C 0.8282(2) 0.1669(2) 0.09623(19)
C62_7 C 0.8384(2) 0.1665(2) 0.23711(19)
C66_7 C 0.8424(3) 0.2354(2) 0.13315(19)
C67_7 C 0.8242(3) 0.0980(2) 0.20019(19)
H37_7 H 0.8487 0.2823 0.1109
H38_7 H 0.8179 0.0511 0.2225
C71_7 C 0.8191(3) 0.0977(3) 0.13046(19)
C72_7 C 0.8475(3) 0.2357(3) 0.20288(19)
H42_7 H 0.8095 0.0509 0.1063
H43_7 H 0.8571 0.2825 0.2271
Cu8_4 Cu 0.8333 0.1667 0.6667
H47_7 H 0.847(4) 0.226(3) 0.008(3)
H48_7 H 0.819(4) 0.108(3) 0.326(3)
N7_7 N 0.84439(18) 0.18083(17) 0.56449(15)
N12_7 N 0.8277(2) 0.1726(2) 0.02502(17)
N13_7 N 0.8389(2) 0.1608(2) 0.30832(17)
O22_7 O 0.9219(3) 0.2965(2) 0.33342(16)
C31_7 C 0.8571(3) 0.2149(3) 0.8107(2)
H17_7 H 0.8889 0.2680 0.7929
C36_7 C 0.8491(3) 0.2060(3) 0.8801(2)
H22_7 H 0.8748 0.2524 0.9080
C41_7 C 0.8032(2) 0.1286(2) 0.90753(18)
C46_7 C 0.7670(3) 0.0632(3) 0.86322(19)
H27_7 H 0.7352 0.0094 0.8796
C51_7 C 0.7777(3) 0.0771(2) 0.79483(19)
H32_7 H 0.7527 0.0319 0.7656
C56_7 C 0.7892(3) 0.1085(2) 0.98208(18)
N6_7 N 0.82227(18) 0.15251(17) 0.76885(15)
O14_3 O 0.81261(13) 0.25839(14) 0.67156(11)
O15_3 O 0.85405(13) 0.07495(14) 0.66178(11)
O21_7 O 0.7447(3) 0.0369(2) 0.99992(16)
C1_3 C 0.7337(2) 0.22333(19) 0.66726(16)
C2_3 C 0.69897(19) 0.28025(18) 0.66388(17)
C3_3 C 0.61366(19) 0.24785(19) 0.66377(17)
H1_3 H 0.5781 0.1907 0.6636
O1_3 O 0.68738(15) 0.14695(14) 0.66605(13)
C13_3 C 0.48959(28) 0.2663(2) 0.66726(16)
C14_3 C 0.77667(19) 0.51041(28) 0.66726(16)
C15_3 C 0.9329(2) 0.11001(19) 0.66608(16)
C18_3 C 0.58127(26) 0.30103(19) 0.66388(17)
C19_3 C 0.71975(18) 0.41873(26) 0.66388(17)
C20_3 C 0.96769(19) 0.05309(18) 0.66946(17)
C23_3 C 0.63418(27) 0.38634(19) 0.66377(17)
C24_3 C 0.75215(19) 0.36582(27) 0.66377(17)
H9_3 H 0.8093 0.3875 0.6636
H10_3 H 0.6125 0.4219 0.6636
Cu5_6 Cu 0.8333 0.6667 0.6667
O4_3 O 0.45956(21) 0.31262(15) 0.66605(13)
O5_3 O 0.85305(14) 0.54044(21) 0.66605(13)
O6_3 O 0.97928(15) 0.18639(14) 0.66729(13)
O9_3 O 0.44577(19) 0.18739(13) 0.67156(11)
O10_3 O 0.74161(14) 0.55423(19) 0.67156(11)
H49_13 H 0.869285 0.52431 0.623268
C17_3 C 0.88999(19) 0.82293(28) 0.66608(16)
C22_3 C 0.94691(18) 0.91461(26) 0.66946(17)
C27_3 C 0.91451(19) 0.96752(27) 0.66957(17)
H12_3 H 0.8573 0.9459 0.6698
O8_3 O 0.81361(14) 0.79290(21) 0.66729(13)
O13_3 O 0.92505(14) 0.77911(19) 0.66178(11)
H50_13 H 0.796244 0.814161 0.628167
C32_8 C 0.8815(3) 0.6911(4) 0.5227(2)
H18_8 H 0.9346 0.7124 0.5405
C37_8 C 0.8726(3) 0.6902(4) 0.4533(2)
H23_8 H 0.9190 0.7109 0.4254
C42_8 C 0.7952(2) 0.6587(3) 0.42581(18)
C47_8 C 0.7298(3) 0.6295(4) 0.47012(19)
H28_8 H 0.6760 0.6075 0.4538
C52_8 C 0.7437(2) 0.6327(4) 0.53851(19)
H33_8 H 0.6985 0.6125 0.5678
C57_8 C 0.7751(2) 0.6526(4) 0.35126(18)
C61_8 C 0.8331(2) 0.6614(3) 0.09623(19)
C62_8 C 0.8335(2) 0.6720(3) 0.23711(19)
C66_8 C 0.7646(2) 0.6071(4) 0.13315(19)
C67_8 C 0.9020(2) 0.7263(4) 0.20019(19)
H37_8 H 0.7177 0.5665 0.1109
H38_8 H 0.9489 0.7669 0.2225
C71_8 C 0.9023(3) 0.7215(4) 0.13046(19)
C72_8 C 0.7643(3) 0.6119(4) 0.20288(19)
H42_8 H 0.9491 0.7587 0.1063
H43_8 H 0.7175 0.5747 0.2271
H47_8 H 0.774(3) 0.622(5) 0.008(3)
H48_8 H 0.892(3) 0.712(5) 0.326(3)
N7_8 N 0.81917(17) 0.66357(25) 0.56449(15)
N12_8 N 0.8274(2) 0.6552(3) 0.02502(17)
N13_8 N 0.8392(2) 0.6782(3) 0.30832(17)
O22_8 O 0.7035(2) 0.6255(4) 0.33342(16)
C31_8 C 0.7851(3) 0.6423(4) 0.8107(2)
H17_8 H 0.7320 0.6210 0.7929
C36_8 C 0.7940(3) 0.6432(4) 0.8801(2)
H22_8 H 0.7476 0.6225 0.9080
C41_8 C 0.8714(2) 0.6747(3) 0.90753(18)
C46_8 C 0.9368(3) 0.7039(4) 0.86322(19)
H27_8 H 0.9906 0.7259 0.8796
C51_8 C 0.9229(2) 0.7007(4) 0.79483(19)
H32_8 H 0.9681 0.7209 0.7656
C56_8 C 0.8915(2) 0.6808(4) 0.98208(18)
N6_8 N 0.84749(17) 0.66977(25) 0.76885(15)
O21_8 O 0.9631(2) 0.7079(4) 0.99992(16)
H49_14 H 0.47569 0.344975 0.623268
C32_9 C 0.3089(4) 0.1905(3) 0.5227(2)
H18_9 H 0.2876 0.2223 0.5405
C37_9 C 0.3098(4) 0.1825(3) 0.4533(2)
H23_9 H 0.2891 0.2082 0.4254
C42_9 C 0.3413(3) 0.1366(2) 0.42581(18)
C47_9 C 0.3705(4) 0.1004(3) 0.47012(19)
H28_9 H 0.3925 0.0686 0.4538
C52_9 C 0.3673(4) 0.1111(3) 0.53851(19)
H33_9 H 0.3875 0.0861 0.5678
C57_9 C 0.3474(4) 0.1226(3) 0.35126(18)
C61_9 C 0.3386(3) 0.1718(2) 0.09623(19)
C62_9 C 0.3280(3) 0.1616(2) 0.23711(19)
C66_9 C 0.3929(4) 0.1576(3) 0.13315(19)
C67_9 C 0.2737(4) 0.1758(3) 0.20019(19)
H37_9 H 0.4335 0.1513 0.1109
H38_9 H 0.2331 0.1821 0.2225
C71_9 C 0.2785(4) 0.1809(3) 0.13046(19)
C72_9 C 0.3881(4) 0.1525(3) 0.20288(19)
H42_9 H 0.2413 0.1905 0.1063
H43_9 H 0.4253 0.1429 0.2271
H47_9 H 0.378(5) 0.153(4) 0.008(3)
H48_9 H 0.288(5) 0.181(4) 0.326(3)
N7_9 N 0.33643(25) 0.15561(18) 0.56449(15)
N12_9 N 0.3448(3) 0.1723(2) 0.02502(17)
N13_9 N 0.3218(3) 0.1611(2) 0.30832(17)
O22_9 O 0.3745(4) 0.0781(3) 0.33342(16)
C31_9 C 0.3577(4) 0.1429(3) 0.8107(2)
H17_9 H 0.3790 0.1111 0.7929
C36_9 C 0.3568(4) 0.1509(3) 0.8801(2)
H22_9 H 0.3775 0.1252 0.9080
C41_9 C 0.3253(3) 0.1968(2) 0.90753(18)
C46_9 C 0.2961(4) 0.2330(3) 0.86322(19)
H27_9 H 0.2741 0.2648 0.8796
C51_9 C 0.2993(4) 0.2223(3) 0.79483(19)
H32_9 H 0.2791 0.2473 0.7656
C56_9 C 0.3192(4) 0.2108(3) 0.98208(18)
N6_9 N 0.33023(25) 0.17773(18) 0.76885(15)
O21_9 O 0.2921(4) 0.2553(3) 0.99992(16)
H49_15 H 0.655025 0.130715 0.623268
H50_14 H 0.017917 0.203756 0.628167
H50_15 H 0.870423 0.519173 0.705166
H49_16 H 0.797382 0.809024 0.710065
H50_16 H 0.480827 0.35125 0.705166
H49_17 H 0.0116419 0.202618 0.710065
H50_17 H 0.64875 0.129577 0.705166
C26_3 C 0.03248(27) 0.94700(19) 0.66957(17)
H13_3 H 0.0541 0.9115 0.6698
H50_18 H 0.185839 0.982083 0.628167
H49_18 H 0.190976 0.988358 0.710065
loop_
_geom_bond_atom_site_label_1
_geom_bond_atom_site_label_2
_geom_bond_site_symmetry_1
_geom_bond_site_symmetry_2
C31 H17 1_555 1_555
C32 H18 1_555 1_555
C36 C31 1_555 1_555
C37 C32 1_555 1_555
H22 C36 1_555 1_555
H23 C37 1_555 1_555
C41 C36 1_555 1_555
C42 C37 1_555 1_555
C46 C41 1_555 1_555
C47 C42 1_555 1_555
H27 C46 1_555 1_555
H28 C47 1_555 1_555
C51 C46 1_555 1_555
C52 C47 1_555 1_555
H32 C51 1_555 1_555
H33 C52 1_555 1_555
C56 C41 1_555 1_555
C57 C42 1_555 1_555
C61 C66 1_555 1_555
C62 C67 1_555 1_555
C66 H37 1_555 1_555
C67 H38 1_555 1_555
C71 C61 1_555 1_555
C72 C62 1_555 1_555
H42 C71 1_555 1_555
H43 C72 1_555 1_555
Cu8_2 N7 1_555 1_555
H47 N12 1_555 1_555
H48 N13 1_555 1_555
N6 C31 1_555 1_555
N7 C32 1_555 1_555
N12 C56 1_555 1_555
N13 C57 1_555 1_555
O14 Cu8 1_555 1_555
O21 C56 1_555 1_555
O22 C57 1_555 1_555
C51 N6 1_555 1_555
C52 N7 1_555 1_555
C61 N12 1_555 1_555
C62 N13 1_555 1_555
C66 C72 1_555 1_555
C67 C71 1_555 1_555
Cu8 N6 1_555 1_555
O14 C1 1_555 1_555
C20 C25 1_555 1_555
C21 C25 1_555 1_555
C22 C26 1_555 1_555
C25 H11 1_555 1_555
C26 C21 1_555 1_555
C27 C20 1_555 1_555
H12 C27 1_555 1_555
H13 C26 1_555 1_555
Cu6 O9 1_555 1_555
Cu5_3 O10 1_555 1_555
O9 C13 1_555 1_555
O10 C14 1_555 1_555
O15 Cu8_2 1_555 1_555
C22 C27 1_555 1_555
C2 C3 1_555 1_555
C3 H1 1_555 1_555
C18 C3 1_555 1_555
C19 C23 1_555 1_555
C23 C18 1_555 1_555
C24 C2 1_555 1_555
H9 C24 1_555 1_555
H10 C23 1_555 1_555
Cu6_4 O12 1_555 1_555
Cu5_2 O13 1_555 1_555
O12 C16 1_555 1_555
O13 C17 1_555 1_555
C15 O15 1_555 1_555
C19 C24 1_555 1_555
O5 H49 1_555 1_555
C32_2 H18_2 1_555 1_555
C37_2 C32_2 1_555 1_555
H23_2 C37_2 1_555 1_555
C46_2 C41_2 1_555 1_555
H27_2 C46_2 1_555 1_555
C51_2 C46_2 1_555 1_555
H32_2 C51_2 1_555 1_555
C56_2 C41_2 1_555 1_555
C62_2 C67_2 1_555 1_555
C67_2 H38_2 1_555 1_555
H42_2 C71_2 1_555 1_555
H48_2 N13_2 1_555 1_555
O21_2 C56_2 1_555 1_555
C51_2 N6_2 1_555 1_555
C62_2 N13_2 1_555 1_555
C67_2 C71_2 1_555 1_555
Cu5 N6_2 1_555 1_555
C31_2 H17_2 1_555 1_555
C36_2 C31_2 1_555 1_555
H22_2 C36_2 1_555 1_555
C47_2 C42_2 1_555 1_555
H28_2 C47_2 1_555 1_555
C52_2 C47_2 1_555 1_555
H33_2 C52_2 1_555 1_555
C57_2 C42_2 1_555 1_555
C61_2 C66_2 1_555 1_555
C66_2 H37_2 1_555 1_555
H43_2 C72_2 1_555 1_555
Cu5_4 N7_2 1_555 1_555
H47_2 N12_2 1_555 1_555
O22_2 C57_2 1_555 1_555
C52_2 N7_2 1_555 1_555
C61_2 N12_2 1_555 1_555
C66_2 C72_2 1_555 1_555
O4 H49_2 1_555 1_555
C31_3 H17_3 1_555 1_555
C36_3 C31_3 1_555 1_555
H22_3 C36_3 1_555 1_555
C47_3 C42_3 1_555 1_555
H28_3 C47_3 1_555 1_555
C52_3 C47_3 1_555 1_555
H33_3 C52_3 1_555 1_555
C57_3 C42_3 1_555 1_555
C61_3 C66_3 1_555 1_555
C66_3 H37_3 1_555 1_555
H43_3 C72_3 1_555 1_555
Cu6_2 N7_3 1_555 1_555
H47_3 N12_3 1_555 1_555
O22_3 C57_3 1_555 1_555
C52_3 N7_3 1_555 1_555
C61_3 N12_3 1_555 1_555
C66_3 C72_3 1_555 1_555
O1 H49_3 1_555 1_555
C32_3 H18_3 1_555 1_555
C37_3 C32_3 1_555 1_555
H23_3 C37_3 1_555 1_555
C46_3 C41_3 1_555 1_555
H27_3 C46_3 1_555 1_555
C51_3 C46_3 1_555 1_555
H32_3 C51_3 1_555 1_555
C56_3 C41_3 1_555 1_555
C62_3 C67_3 1_555 1_555
C67_3 H38_3 1_555 1_555
H42_3 C71_3 1_555 1_555
H48_3 N13_3 1_555 1_555
O21_3 C56_3 1_555 1_555
C51_3 N6_3 1_555 1_555
C62_3 N13_3 1_555 1_555
C67_3 C71_3 1_555 1_555
Cu6_3 N6_3 1_555 1_555
O8 H49_4 1_555 1_555
O7 H49_5 1_555 1_555
O6 H49_6 1_555 1_555
C14_2 C19_2 1_555 1_555
H9_2 C24_2 1_555 1_555
Cu5_5 O10_2 1_555 1_555
O5_2 C14_2 1_555 1_555
O10_2 C14_2 1_555 1_555
C19_2 C24_2 1_555 1_555
O5_2 H49_7 1_555 1_555
C32_4 H18_4 1_555 1_555
C37_4 C32_4 1_555 1_555
H23_4 C37_4 1_555 1_555
C42_4 C37_4 1_555 1_555
C47_4 C42_4 1_555 1_555
H28_4 C47_4 1_555 1_555
C52_4 C47_4 1_555 1_555
H33_4 C52_4 1_555 1_555
C57_4 C42_4 1_555 1_555
Cu8_3 N7_4 1_555 1_555
N7_4 C32_4 1_555 1_555
O22_4 C57_4 1_555 1_555
C52_4 N7_4 1_555 1_555
C31_4 H17_4 1_555 1_555
C36_4 C31_4 1_555 1_555
H22_4 C36_4 1_555 1_555
C41_4 C36_4 1_555 1_555
C46_4 C41_4 1_555 1_555
H27_4 C46_4 1_555 1_555
C51_4 C46_4 1_555 1_555
H32_4 C51_4 1_555 1_555
C56_4 C41_4 1_555 1_555
C61_4 C66_4 1_555 1_555
C62_4 C67_4 1_555 1_555
C66_4 H37_4 1_555 1_555
C67_4 H38_4 1_555 1_555
C71_4 C61_4 1_555 1_555
C72_4 C62_4 1_555 1_555
H42_4 C71_4 1_555 1_555
H43_4 C72_4 1_555 1_555
H47_4 N12_4 1_555 1_555
H48_4 N13_4 1_555 1_555
N6_4 C31_4 1_555 1_555
N12_4 C56_4 1_555 1_555
O14_2 Cu8_3 1_555 1_555
O15_2 Cu8_3 1_555 1_555
O21_4 C56_4 1_555 1_555
C51_4 N6_4 1_555 1_555
C61_4 N12_4 1_555 1_555
C62_4 N13_4 1_555 1_555
C66_4 C72_4 1_555 1_555
C67_4 C71_4 1_555 1_555
Cu8_3 N6_4 1_555 1_555
C1_2 C2_2 1_555 1_555
O1_2 C1_2 1_555 1_555
O14_2 C1_2 1_555 1_555
C15_2 C20_2 1_555 1_555
C16_2 C21_2 1_555 1_555
C17_2 C22_2 1_555 1_555
C20_2 C25_2 1_555 1_555
C21_2 C25_2 1_555 1_555
C22_2 C26_2 1_555 1_555
C25_2 H11_2 1_555 1_555
C26_2 C21_2 1_555 1_555
C27_2 C20_2 1_555 1_555
H12_2 C27_2 1_555 1_555
H13_2 C26_2 1_555 1_555
Cu6_5 O12_2 1_555 1_555
Cu5_5 O13_2 1_555 1_555
O6_2 C15_2 1_555 1_555
O7_2 C16_2 1_555 1_555
O8_2 C17_2 1_555 1_555
O12_2 C16_2 1_555 1_555
O13_2 C17_2 1_555 1_555
C15_2 O15_2 1_555 1_555
C22_2 C27_2 1_555 1_555
O8_2 H50_7 1_555 1_555
C3_2 H1_2 1_555 1_555
C13_2 C18_2 1_555 1_555
C18_2 C3_2 1_555 1_555
Cu6_5 O9_2 1_555 1_555
O4_2 C13_2 1_555 1_555
O9_2 C13_2 1_555 1_555
C32_5 H18_5 1_555 1_555
C37_5 C32_5 1_555 1_555
H23_5 C37_5 1_555 1_555
C42_5 C37_5 1_555 1_555
C47_5 C42_5 1_555 1_555
H28_5 C47_5 1_555 1_555
C52_5 C47_5 1_555 1_555
H33_5 C52_5 1_555 1_555
C57_5 C42_5 1_555 1_555
Cu5_5 N7_5 1_555 1_555
N7_5 C32_5 1_555 1_555
O22_5 C57_5 1_555 1_555
C52_5 N7_5 1_555 1_555
C31_5 H17_5 1_555 1_555
C36_5 C31_5 1_555 1_555
H22_5 C36_5 1_555 1_555
C41_5 C36_5 1_555 1_555
C46_5 C41_5 1_555 1_555
H27_5 C46_5 1_555 1_555
C51_5 C46_5 1_555 1_555
H32_5 C51_5 1_555 1_555
C56_5 C41_5 1_555 1_555
C61_5 C66_5 1_555 1_555
C62_5 C67_5 1_555 1_555
C66_5 H37_5 1_555 1_555
C67_5 H38_5 1_555 1_555
C71_5 C61_5 1_555 1_555
C72_5 C62_5 1_555 1_555
H42_5 C71_5 1_555 1_555
H43_5 C72_5 1_555 1_555
H47_5 N12_5 1_555 1_555
H48_5 N13_5 1_555 1_555
N6_5 C31_5 1_555 1_555
N12_5 C56_5 1_555 1_555
O21_5 C56_5 1_555 1_555
C51_5 N6_5 1_555 1_555
C61_5 N12_5 1_555 1_555
C62_5 N13_5 1_555 1_555
C66_5 C72_5 1_555 1_555
C67_5 C71_5 1_555 1_555
Cu5_5 N6_5 1_555 1_555
O7_2 H50_8 1_555 1_555
C32_6 H18_6 1_555 1_555
C37_6 C32_6 1_555 1_555
H23_6 C37_6 1_555 1_555
C42_6 C37_6 1_555 1_555
C47_6 C42_6 1_555 1_555
H28_6 C47_6 1_555 1_555
C52_6 C47_6 1_555 1_555
H33_6 C52_6 1_555 1_555
C57_6 C42_6 1_555 1_555
Cu6_5 N7_6 1_555 1_555
N7_6 C32_6 1_555 1_555
O22_6 C57_6 1_555 1_555
C52_6 N7_6 1_555 1_555
C31_6 H17_6 1_555 1_555
C36_6 C31_6 1_555 1_555
H22_6 C36_6 1_555 1_555
C41_6 C36_6 1_555 1_555
C46_6 C41_6 1_555 1_555
H27_6 C46_6 1_555 1_555
C51_6 C46_6 1_555 1_555
H32_6 C51_6 1_555 1_555
C56_6 C41_6 1_555 1_555
C61_6 C66_6 1_555 1_555
C62_6 C67_6 1_555 1_555
C66_6 H37_6 1_555 1_555
C67_6 H38_6 1_555 1_555
C71_6 C61_6 1_555 1_555
C72_6 C62_6 1_555 1_555
H42_6 C71_6 1_555 1_555
H43_6 C72_6 1_555 1_555
H47_6 N12_6 1_555 1_555
H48_6 N13_6 1_555 1_555
N6_6 C31_6 1_555 1_555
N12_6 C56_6 1_555 1_555
O21_6 C56_6 1_555 1_555
C51_6 N6_6 1_555 1_555
C61_6 N12_6 1_555 1_555
C62_6 N13_6 1_555 1_555
C66_6 C72_6 1_555 1_555
C67_6 C71_6 1_555 1_555
Cu6_5 N6_6 1_555 1_555
O6_2 H50_9 1_555 1_555
O5_2 H50_10 1_555 1_555
O8_2 H49_9 1_555 1_555
O7_2 H49_10 1_555 1_555
O6_2 H49_11 1_555 1_555
H10_2 C23_2 1_555 1_555
C16_3 C21_3 1_555 1_555
C21_3 C25_3 1_555 1_555
C25_3 H11_3 1_555 1_555
Cu6_6 O12_3 1_555 1_555
O7_3 C16_3 1_555 1_555
O12_3 C16_3 1_555 1_555
C32_7 H18_7 1_555 1_555
C37_7 C32_7 1_555 1_555
H23_7 C37_7 1_555 1_555
C42_7 C37_7 1_555 1_555
C47_7 C42_7 1_555 1_555
H28_7 C47_7 1_555 1_555
C52_7 C47_7 1_555 1_555
H33_7 C52_7 1_555 1_555
C57_7 C42_7 1_555 1_555
C61_7 C66_7 1_555 1_555
C62_7 C67_7 1_555 1_555
C66_7 H37_7 1_555 1_555
C67_7 H38_7 1_555 1_555
C71_7 C61_7 1_555 1_555
C72_7 C62_7 1_555 1_555
H42_7 C71_7 1_555 1_555
H43_7 C72_7 1_555 1_555
Cu8_4 N7_7 1_555 1_555
H47_7 N12_7 1_555 1_555
H48_7 N13_7 1_555 1_555
N7_7 C32_7 1_555 1_555
N13_7 C57_7 1_555 1_555
O22_7 C57_7 1_555 1_555
C52_7 N7_7 1_555 1_555
C61_7 N12_7 1_555 1_555
C62_7 N13_7 1_555 1_555
C66_7 C72_7 1_555 1_555
C67_7 C71_7 1_555 1_555
C31_7 H17_7 1_555 1_555
C36_7 C31_7 1_555 1_555
H22_7 C36_7 1_555 1_555
C41_7 C36_7 1_555 1_555
C46_7 C41_7 1_555 1_555
H27_7 C46_7 1_555 1_555
C51_7 C46_7 1_555 1_555
H32_7 C51_7 1_555 1_555
C56_7 C41_7 1_555 1_555
N6_7 C31_7 1_555 1_555
O14_3 Cu8_4 1_555 1_555
O15_3 Cu8_4 1_555 1_555
O21_7 C56_7 1_555 1_555
C51_7 N6_7 1_555 1_555
Cu8_4 N6_7 1_555 1_555
C1_3 C2_3 1_555 1_555
C2_3 C3_3 1_555 1_555
C3_3 H1_3 1_555 1_555
O1_3 C1_3 1_555 1_555
O14_3 C1_3 1_555 1_555
C13_3 C18_3 1_555 1_555
C14_3 C19_3 1_555 1_555
C15_3 C20_3 1_555 1_555
C18_3 C3_3 1_555 1_555
C19_3 C23_3 1_555 1_555
C23_3 C18_3 1_555 1_555
C24_3 C2_3 1_555 1_555
H9_3 C24_3 1_555 1_555
H10_3 C23_3 1_555 1_555
Cu6_6 O9_3 1_555 1_555
Cu5_6 O10_3 1_555 1_555
O4_3 C13_3 1_555 1_555
O5_3 C14_3 1_555 1_555
O6_3 C15_3 1_555 1_555
O9_3 C13_3 1_555 1_555
O10_3 C14_3 1_555 1_555
C15_3 O15_3 1_555 1_555
C19_3 C24_3 1_555 1_555
O5_3 H49_13 1_555 1_555
C17_3 C22_3 1_555 1_555
H12_3 C27_3 1_555 1_555
Cu5_6 O13_3 1_555 1_555
O8_3 C17_3 1_555 1_555
O13_3 C17_3 1_555 1_555
C22_3 C27_3 1_555 1_555
O8_3 H50_13 1_555 1_555
C32_8 H18_8 1_555 1_555
C37_8 C32_8 1_555 1_555
H23_8 C37_8 1_555 1_555
C42_8 C37_8 1_555 1_555
C47_8 C42_8 1_555 1_555
H28_8 C47_8 1_555 1_555
C52_8 C47_8 1_555 1_555
H33_8 C52_8 1_555 1_555
C57_8 C42_8 1_555 1_555
C61_8 C66_8 1_555 1_555
C62_8 C67_8 1_555 1_555
C66_8 H37_8 1_555 1_555
C67_8 H38_8 1_555 1_555
C71_8 C61_8 1_555 1_555
C72_8 C62_8 1_555 1_555
H42_8 C71_8 1_555 1_555
H43_8 C72_8 1_555 1_555
Cu5_6 N7_8 1_555 1_555
H47_8 N12_8 1_555 1_555
H48_8 N13_8 1_555 1_555
N7_8 C32_8 1_555 1_555
N13_8 C57_8 1_555 1_555
O22_8 C57_8 1_555 1_555
C52_8 N7_8 1_555 1_555
C61_8 N12_8 1_555 1_555
C62_8 N13_8 1_555 1_555
C66_8 C72_8 1_555 1_555
C67_8 C71_8 1_555 1_555
C31_8 H17_8 1_555 1_555
C36_8 C31_8 1_555 1_555
H22_8 C36_8 1_555 1_555
C41_8 C36_8 1_555 1_555
C46_8 C41_8 1_555 1_555
H27_8 C46_8 1_555 1_555
C51_8 C46_8 1_555 1_555
H32_8 C51_8 1_555 1_555
C56_8 C41_8 1_555 1_555
N6_8 C31_8 1_555 1_555
O21_8 C56_8 1_555 1_555
C51_8 N6_8 1_555 1_555
Cu5_6 N6_8 1_555 1_555
O4_3 H49_14 1_555 1_555
C32_9 H18_9 1_555 1_555
C37_9 C32_9 1_555 1_555
H23_9 C37_9 1_555 1_555
C42_9 C37_9 1_555 1_555
C47_9 C42_9 1_555 1_555
H28_9 C47_9 1_555 1_555
C52_9 C47_9 1_555 1_555
H33_9 C52_9 1_555 1_555
C57_9 C42_9 1_555 1_555
C61_9 C66_9 1_555 1_555
C62_9 C67_9 1_555 1_555
C66_9 H37_9 1_555 1_555
C67_9 H38_9 1_555 1_555
C71_9 C61_9 1_555 1_555
C72_9 C62_9 1_555 1_555
H42_9 C71_9 1_555 1_555
H43_9 C72_9 1_555 1_555
Cu6_6 N7_9 1_555 1_555
H47_9 N12_9 1_555 1_555
H48_9 N13_9 1_555 1_555
N7_9 C32_9 1_555 1_555
N13_9 C57_9 1_555 1_555
O22_9 C57_9 1_555 1_555
C52_9 N7_9 1_555 1_555
C61_9 N12_9 1_555 1_555
C62_9 N13_9 1_555 1_555
C66_9 C72_9 1_555 1_555
C67_9 C71_9 1_555 1_555
C31_9 H17_9 1_555 1_555
C36_9 C31_9 1_555 1_555
H22_9 C36_9 1_555 1_555
C41_9 C36_9 1_555 1_555
C46_9 C41_9 1_555 1_555
H27_9 C46_9 1_555 1_555
C51_9 C46_9 1_555 1_555
H32_9 C51_9 1_555 1_555
C56_9 C41_9 1_555 1_555
N6_9 C31_9 1_555 1_555
O21_9 C56_9 1_555 1_555
C51_9 N6_9 1_555 1_555
Cu6_6 N6_9 1_555 1_555
O1_3 H49_15 1_555 1_555
O5_3 H50_15 1_555 1_555
O8_3 H49_16 1_555 1_555
O4_3 H50_16 1_555 1_555
O1_3 H50_17 1_555 1_555
H13_3 C26_3 1_555 1_555

#END
