
###############################################################################
#
# This file contains modified crystal structure data generated from the
# MOF subset of the Cambridge Structural Database (CSD) v543 
# hosted by the Cambridge Crystallographic Data Centre (CCDC).
#
# This work is licensed under the Creative Commons
# Attribution-NonCommercial-ShareAlike 4.0 International License.
# To view a copy of this license, visit
# http://creativecommons.org/licenses/by-nc-sa/4.0/
# or send a letter to
# Creative Commons, PO Box 1866, Mountain View, CA 94042, USA.
#
# CIF created using the CSD Python API on 29 September 2022
# The structure has been converted into the P1 space group
# The structure has a 3D framework
# The original CSD entry NIMTAE is in the orthorhombic crystal system
# The framework has been calculated to contain at least 10.0% void space
# The void calculation uses a probe of radius 1.32A, grid spacing 0.4
# The framework is charged, counterions have been retained in the structure
#
###############################################################################

data_NIMTAE
_chemical_formula_moiety         '(C384 H320 Ag8 N64 4+)n'
_symmetry_cell_setting           triclinic
_symmetry_space_group_name_H-M   'P 1'
_symmetry_Int_Tables_number      1
_space_group_name_Hall           'P 1'
loop_
_symmetry_equiv_pos_site_id
_symmetry_equiv_pos_as_xyz
1 x,y,z
_cell_length_a                   10.292(2)
_cell_length_b                   29.887(6)
_cell_length_c                   38.593(8)
_cell_angle_alpha                90
_cell_angle_beta                 90
_cell_angle_gamma                90
_cell_volume                     11871.1
loop_
_atom_site_label
_atom_site_type_symbol
_atom_site_fract_x
_atom_site_fract_y
_atom_site_fract_z
C1 C 0.0073(5) 0.6787(2) 0.0857(1)
C2 C 0.0174(5) 0.6694(2) 0.0504(1)
C4 C 0.1281(5) 0.6922(2) 0.1048(1)
C5 C 0.0989(6) 0.8112(2) 0.0243(2)
C6 C 0.1569(6) 0.7846(2) 0.0495(2)
C7 C 0.0903(5) 0.7738(2) 0.0794(1)
C10 C 0.1513(5) 0.7448(2) 0.1061(1)
H1 H 0.0995(5) 0.6707(2) 0.0392(1)
H3 H 0.2063(5) 0.6759(2) 0.0960(1)
H4 H 0.1028(6) 0.8175(2) 0.2461(2)
H5 H 0.0072(6) 0.7738(2) 0.2038(2)
H8 H 0.0031(5) 0.7507(2) 0.1434(1)
C13 C 0.1219(5) 0.6922(2) 0.1452(1)
C14 C 0.0987(5) 0.7448(2) 0.1439(1)
C15 C 0.2427(5) 0.6787(2) 0.1643(1)
C16 C 0.3656(5) 0.6769(2) 0.1497(1)
C17 C 0.4700(5) 0.6658(2) 0.1704(1)
N3 N 0.4610(4) 0.6563(1) 0.2041(1)
C18 C 0.3421(5) 0.6582(2) 0.2179(1)
C19 C 0.2326(5) 0.6694(2) 0.1996(1)
H11 H 0.1505(5) 0.6707(2) 0.2108(1)
H12 H 0.3328(5) 0.6515(2) 0.2418(1)
Ag3 Ag 0.6250 0.6250 0.2366(1)
H13 H 0.5536(5) 0.6649(2) 0.1600(1)
H14 H 0.3778(5) 0.6831(2) 0.1258(1)
H15 H 0.0437(5) 0.6759(2) 0.1540(1)
C20 C 0.1597(5) 0.7738(2) 0.1706(1)
C21 C 0.0931(6) 0.7846(2) 0.2005(2)
C22 C 0.1511(6) 0.8112(2) 0.2257(2)
N4 N 0.2694(4) 0.8281(1) 0.2230(1)
Ag4 Ag 0.3750 0.8750 0.2634(1)
N5 N 0.2110(4) 0.9063(1) 0.2959(1)
N6 N 0.5390(4) 0.8437(1) 0.2959(1)
N7 N 0.4806(4) 0.9219(1) 0.2230(1)
C23 C 0.3315(6) 0.8184(2) 0.1942(2)
C24 C 0.2833(7) 0.7911(2) 0.1680(2)
H16 H 0.3355(7) 0.7843(2) 0.1484(2)
H17 H 0.4154(6) 0.8310(2) 0.1910(2)
H18 H 0.2469(5) 0.7507(2) 0.1066(1)
H19 H 0.2428(6) 0.7738(2) 0.0462(2)
H20 H 0.1472(6) 0.8175(2) 0.0039(2)
C3 C 0.9079(5) 0.6582(2) 0.0321(1)
N1 N 0.9806(4) 0.8281(1) 0.0270(1)
C8 C 0.9667(7) 0.7911(2) 0.0820(2)
C9 C 0.9185(6) 0.8184(2) 0.0558(2)
H2 H 0.9172(5) 0.6515(2) 0.0082(1)
H6 H 0.9145(7) 0.7843(2) 0.1016(2)
H7 H 0.8346(6) 0.8310(2) 0.0590(2)
C11 C 0.8844(5) 0.6769(2) 0.1003(1)
C12 C 0.7800(5) 0.6658(2) 0.0796(1)
N2 N 0.7890(4) 0.6563(1) 0.0459(1)
Ag2 Ag 0.6250 0.6250 0.0134(1)
H9 H 0.6964(5) 0.6649(2) 0.0900(1)
H10 H 0.8722(5) 0.6831(2) 0.1242(1)
Ag1 Ag 0.8750 0.8750 0.9866(1)
C1_2 C 0.2427(5) 0.5713(2) 0.0857(1)
C2_2 C 0.2326(5) 0.5806(2) 0.0504(1)
C3_2 C 0.3421(5) 0.5918(2) 0.0321(1)
C4_2 C 0.1219(5) 0.5578(2) 0.1048(1)
N1_2 N 0.2694(4) 0.4219(1) 0.0270(1)
C5_2 C 0.1511(6) 0.4388(2) 0.0243(2)
C6_2 C 0.0931(6) 0.4654(2) 0.0495(2)
C7_2 C 0.1597(5) 0.4762(2) 0.0794(1)
C8_2 C 0.2833(7) 0.4589(2) 0.0820(2)
C9_2 C 0.3315(6) 0.4316(2) 0.0558(2)
C10_2 C 0.0987(5) 0.5052(2) 0.1061(1)
H1_2 H 0.1505(5) 0.5793(2) 0.0392(1)
H2_2 H 0.3328(5) 0.5985(2) 0.0082(1)
H3_2 H 0.0437(5) 0.5741(2) 0.0960(1)
H4_2 H 0.1472(6) 0.4325(2) 0.2461(2)
H5_2 H 0.2428(6) 0.4762(2) 0.2038(2)
H6_2 H 0.3355(7) 0.4657(2) 0.1016(2)
H7_2 H 0.4154(6) 0.4190(2) 0.0590(2)
H8_2 H 0.2469(5) 0.4993(2) 0.1434(1)
C11_2 C 0.3656(5) 0.5731(2) 0.1003(1)
C12_2 C 0.4700(5) 0.5842(2) 0.0796(1)
N2_2 N 0.4610(4) 0.5937(1) 0.0459(1)
H9_2 H 0.5536(5) 0.5851(2) 0.0900(1)
H10_2 H 0.3778(5) 0.5669(2) 0.1242(1)
C13_2 C 0.1281(5) 0.5578(2) 0.1452(1)
C14_2 C 0.1513(5) 0.5052(2) 0.1439(1)
C15_2 C 0.0073(5) 0.5713(2) 0.1643(1)
C19_2 C 0.0174(5) 0.5806(2) 0.1996(1)
H11_2 H 0.0995(5) 0.5793(2) 0.2108(1)
H15_2 H 0.2063(5) 0.5741(2) 0.1540(1)
C20_2 C 0.0903(5) 0.4762(2) 0.1706(1)
C21_2 C 0.1569(6) 0.4654(2) 0.2005(2)
C22_2 C 0.0989(6) 0.4388(2) 0.2257(2)
N5_2 N 0.0390(4) 0.3437(1) 0.2959(1)
H18_2 H 0.0031(5) 0.4993(2) 0.1066(1)
H19_2 H 0.0072(6) 0.4762(2) 0.0462(2)
H20_2 H 0.1028(6) 0.4325(2) 0.0039(2)
Ag1_2 Ag 0.3750 0.3750 0.9866(1)
C16_2 C 0.8844(5) 0.5731(2) 0.1497(1)
C17_2 C 0.7800(5) 0.5842(2) 0.1704(1)
N3_2 N 0.7890(4) 0.5937(1) 0.2041(1)
C18_2 C 0.9079(5) 0.5918(2) 0.2179(1)
H12_2 H 0.9172(5) 0.5985(2) 0.2418(1)
H13_2 H 0.6964(5) 0.5851(2) 0.1600(1)
H14_2 H 0.8722(5) 0.5669(2) 0.1258(1)
N4_2 N 0.9806(4) 0.4219(1) 0.2230(1)
Ag4_2 Ag 0.8750 0.3750 0.2634(1)
N6_2 N 0.7110(4) 0.4063(1) 0.2959(1)
N7_2 N 0.7694(4) 0.3281(1) 0.2230(1)
C23_2 C 0.9185(6) 0.4316(2) 0.1942(2)
C24_2 C 0.9667(7) 0.4589(2) 0.1680(2)
H16_2 H 0.9145(7) 0.4657(2) 0.1484(2)
H17_2 H 0.8346(6) 0.4190(2) 0.1910(2)
N7_3 N 0.4806(4) 0.3281(1) 0.0270(1)
N5_3 N 0.2110(4) 0.3437(1) 0.9541(1)
N6_3 N 0.5390(4) 0.4063(1) 0.9541(1)
N5_4 N 0.0390(4) 0.9063(1) 0.9541(1)
N7_4 N 0.7694(4) 0.9219(1) 0.0270(1)
N6_4 N 0.7110(4) 0.8437(1) 0.9541(1)
C1_3 C 0.0073(5) 0.1787(2) 0.5857(1)
C2_3 C 0.0174(5) 0.1694(2) 0.5504(1)
C4_3 C 0.1281(5) 0.1922(2) 0.6048(1)
C5_3 C 0.0989(6) 0.3112(2) 0.5243(2)
C6_3 C 0.1569(6) 0.2846(2) 0.5495(2)
C7_3 C 0.0903(5) 0.2738(2) 0.5794(1)
C10_3 C 0.1513(5) 0.2448(2) 0.6061(1)
H1_3 H 0.0995(5) 0.1707(2) 0.5392(1)
H3_3 H 0.2063(5) 0.1759(2) 0.5960(1)
H4_3 H 0.1028(6) 0.3175(2) 0.7461(2)
H5_3 H 0.0072(6) 0.2738(2) 0.7038(2)
H8_3 H 0.0031(5) 0.2507(2) 0.6434(1)
C13_3 C 0.1219(5) 0.1922(2) 0.6452(1)
C14_3 C 0.0987(5) 0.2448(2) 0.6439(1)
C15_3 C 0.2427(5) 0.1787(2) 0.6643(1)
C16_3 C 0.3656(5) 0.1769(2) 0.6497(1)
C17_3 C 0.4700(5) 0.1658(2) 0.6704(1)
N3_3 N 0.4610(4) 0.1563(1) 0.7041(1)
C18_3 C 0.3421(5) 0.1582(2) 0.7179(1)
C19_3 C 0.2326(5) 0.1694(2) 0.6996(1)
H11_3 H 0.1505(5) 0.1707(2) 0.7108(1)
H12_3 H 0.3328(5) 0.1515(2) 0.7418(1)
Ag3_2 Ag 0.6250 0.1250 0.7366(1)
H13_3 H 0.5536(5) 0.1649(2) 0.6600(1)
H14_3 H 0.3778(5) 0.1831(2) 0.6258(1)
H15_3 H 0.0437(5) 0.1759(2) 0.6540(1)
C20_3 C 0.1597(5) 0.2738(2) 0.6706(1)
C21_3 C 0.0931(6) 0.2846(2) 0.7005(2)
C22_3 C 0.1511(6) 0.3112(2) 0.7257(2)
N4_3 N 0.2694(4) 0.3281(1) 0.7230(1)
Ag4_3 Ag 0.3750 0.3750 0.7634(1)
N5_5 N 0.2110(4) 0.4063(1) 0.7959(1)
N6_5 N 0.5390(4) 0.3437(1) 0.7959(1)
N7_5 N 0.4806(4) 0.4219(1) 0.7230(1)
C23_3 C 0.3315(6) 0.3184(2) 0.6942(2)
C24_3 C 0.2833(7) 0.2911(2) 0.6680(2)
H16_3 H 0.3355(7) 0.2843(2) 0.6484(2)
H17_3 H 0.4154(6) 0.3310(2) 0.6910(2)
H18_3 H 0.2469(5) 0.2507(2) 0.6066(1)
H19_3 H 0.2428(6) 0.2738(2) 0.5462(2)
H20_3 H 0.1472(6) 0.3175(2) 0.5039(2)
C3_3 C 0.9079(5) 0.1582(2) 0.5321(1)
Ag1_3 Ag 0.8750 0.3750 0.4866(1)
N1_3 N 0.9806(4) 0.3281(1) 0.5270(1)
C8_3 C 0.9667(7) 0.2911(2) 0.5820(2)
C9_3 C 0.9185(6) 0.3184(2) 0.5558(2)
H2_3 H 0.9172(5) 0.1515(2) 0.5082(1)
H6_3 H 0.9145(7) 0.2843(2) 0.6016(2)
H7_3 H 0.8346(6) 0.3310(2) 0.5590(2)
C11_3 C 0.8844(5) 0.1769(2) 0.6003(1)
C12_3 C 0.7800(5) 0.1658(2) 0.5796(1)
N2_3 N 0.7890(4) 0.1563(1) 0.5459(1)
Ag2_2 Ag 0.6250 0.1250 0.5134(1)
H9_3 H 0.6964(5) 0.1649(2) 0.5900(1)
H10_3 H 0.8722(5) 0.1831(2) 0.6242(1)
C1_4 C 0.2427(5) 0.0713(2) 0.5857(1)
C2_4 C 0.2326(5) 0.0806(2) 0.5504(1)
C3_4 C 0.3421(5) 0.0918(2) 0.5321(1)
C4_4 C 0.1219(5) 0.0578(2) 0.6048(1)
C10_4 C 0.0987(5) 0.0052(2) 0.6061(1)
H1_4 H 0.1505(5) 0.0793(2) 0.5392(1)
H2_4 H 0.3328(5) 0.0985(2) 0.5082(1)
H3_4 H 0.0437(5) 0.0741(2) 0.5960(1)
C11_4 C 0.3656(5) 0.0731(2) 0.6003(1)
C12_4 C 0.4700(5) 0.0842(2) 0.5796(1)
N2_4 N 0.4610(4) 0.0937(1) 0.5459(1)
H9_4 H 0.5536(5) 0.0851(2) 0.5900(1)
H10_4 H 0.3778(5) 0.0669(2) 0.6242(1)
C13_4 C 0.1281(5) 0.0578(2) 0.6452(1)
C14_4 C 0.1513(5) 0.0052(2) 0.6439(1)
C15_4 C 0.0073(5) 0.0713(2) 0.6643(1)
C19_4 C 0.0174(5) 0.0806(2) 0.6996(1)
H11_4 H 0.0995(5) 0.0793(2) 0.7108(1)
H15_4 H 0.2063(5) 0.0741(2) 0.6540(1)
Ag1_4 Ag 0.3750 0.8750 0.4866(1)
N1_4 N 0.2694(4) 0.9219(1) 0.5270(1)
C5_4 C 0.1511(6) 0.9388(2) 0.5243(2)
C6_4 C 0.0931(6) 0.9654(2) 0.5495(2)
C7_4 C 0.1597(5) 0.9762(2) 0.5794(1)
C8_4 C 0.2833(7) 0.9589(2) 0.5820(2)
C9_4 C 0.3315(6) 0.9316(2) 0.5558(2)
H4_4 H 0.1472(6) 0.9325(2) 0.7461(2)
H5_4 H 0.2428(6) 0.9762(2) 0.7038(2)
H6_4 H 0.3355(7) 0.9657(2) 0.6016(2)
H7_4 H 0.4154(6) 0.9190(2) 0.5590(2)
H8_4 H 0.2469(5) 0.9993(2) 0.6434(1)
C20_4 C 0.0903(5) 0.9762(2) 0.6706(1)
C21_4 C 0.1569(6) 0.9654(2) 0.7005(2)
C22_4 C 0.0989(6) 0.9388(2) 0.7257(2)
N5_6 N 0.0390(4) 0.8437(1) 0.7959(1)
H18_4 H 0.0031(5) 0.9993(2) 0.6066(1)
H19_4 H 0.0072(6) 0.9762(2) 0.5462(2)
H20_4 H 0.1028(6) 0.9325(2) 0.5039(2)
C16_4 C 0.8844(5) 0.0731(2) 0.6497(1)
C17_4 C 0.7800(5) 0.0842(2) 0.6704(1)
N3_4 N 0.7890(4) 0.0937(1) 0.7041(1)
C18_4 C 0.9079(5) 0.0918(2) 0.7179(1)
H12_4 H 0.9172(5) 0.0985(2) 0.7418(1)
H13_4 H 0.6964(5) 0.0851(2) 0.6600(1)
H14_4 H 0.8722(5) 0.0669(2) 0.6258(1)
N4_4 N 0.9806(4) 0.9219(1) 0.7230(1)
Ag4_4 Ag 0.8750 0.8750 0.7634(1)
N6_6 N 0.7110(4) 0.9063(1) 0.7959(1)
N7_6 N 0.7694(4) 0.8281(1) 0.7230(1)
C23_4 C 0.9185(6) 0.9316(2) 0.6942(2)
C24_4 C 0.9667(7) 0.9589(2) 0.6680(2)
H16_4 H 0.9145(7) 0.9657(2) 0.6484(2)
H17_4 H 0.8346(6) 0.9190(2) 0.6910(2)
N5_7 N 0.2110(4) 0.8437(1) 0.4541(1)
N6_7 N 0.5390(4) 0.9063(1) 0.4541(1)
N7_7 N 0.4806(4) 0.8281(1) 0.5270(1)
N5_8 N 0.0390(4) 0.4063(1) 0.4541(1)
N6_8 N 0.7110(4) 0.3437(1) 0.4541(1)
N7_8 N 0.7694(4) 0.4219(1) 0.5270(1)
Ag3_3 Ag 0.1250 0.6250 0.7366(1)
H13_5 H 0.0536(5) 0.6649(2) 0.6600(1)
C1_5 C 0.5073(5) 0.6787(2) 0.5857(1)
C2_5 C 0.5174(5) 0.6694(2) 0.5504(1)
C3_5 C 0.4079(5) 0.6582(2) 0.5321(1)
C4_5 C 0.6281(5) 0.6922(2) 0.6048(1)
C5_5 C 0.5989(6) 0.8112(2) 0.5243(2)
C6_5 C 0.6569(6) 0.7846(2) 0.5495(2)
C7_5 C 0.5903(5) 0.7738(2) 0.5794(1)
C8_5 C 0.4667(7) 0.7911(2) 0.5820(2)
C9_5 C 0.4185(6) 0.8184(2) 0.5558(2)
C10_5 C 0.6513(5) 0.7448(2) 0.6061(1)
H1_5 H 0.5995(5) 0.6707(2) 0.5392(1)
H2_5 H 0.4172(5) 0.6515(2) 0.5082(1)
H3_5 H 0.7063(5) 0.6759(2) 0.5960(1)
H4_5 H 0.6028(6) 0.8175(2) 0.7461(2)
H5_5 H 0.5072(6) 0.7738(2) 0.7038(2)
H6_5 H 0.4145(7) 0.7843(2) 0.6016(2)
H7_5 H 0.3346(6) 0.8310(2) 0.5590(2)
H8_5 H 0.5031(5) 0.7507(2) 0.6434(1)
C11_5 C 0.3844(5) 0.6769(2) 0.6003(1)
C12_5 C 0.2800(5) 0.6658(2) 0.5796(1)
N2_5 N 0.2890(4) 0.6563(1) 0.5459(1)
Ag2_3 Ag 0.1250 0.6250 0.5134(1)
H9_5 H 0.1964(5) 0.6649(2) 0.5900(1)
H10_5 H 0.3722(5) 0.6831(2) 0.6242(1)
C13_5 C 0.6219(5) 0.6922(2) 0.6452(1)
C14_5 C 0.5987(5) 0.7448(2) 0.6439(1)
C15_5 C 0.7427(5) 0.6787(2) 0.6643(1)
C16_5 C 0.8656(5) 0.6769(2) 0.6497(1)
C17_5 C 0.9700(5) 0.6658(2) 0.6704(1)
N3_5 N 0.9610(4) 0.6563(1) 0.7041(1)
C18_5 C 0.8421(5) 0.6582(2) 0.7179(1)
C19_5 C 0.7326(5) 0.6694(2) 0.6996(1)
H11_5 H 0.6505(5) 0.6707(2) 0.7108(1)
H12_5 H 0.8328(5) 0.6515(2) 0.7418(1)
H14_5 H 0.8778(5) 0.6831(2) 0.6258(1)
H15_5 H 0.5437(5) 0.6759(2) 0.6540(1)
C20_5 C 0.6597(5) 0.7738(2) 0.6706(1)
C21_5 C 0.5931(6) 0.7846(2) 0.7005(2)
C22_5 C 0.6511(6) 0.8112(2) 0.7257(2)
C23_5 C 0.8315(6) 0.8184(2) 0.6942(2)
C24_5 C 0.7833(7) 0.7911(2) 0.6680(2)
H16_5 H 0.8355(7) 0.7843(2) 0.6484(2)
H17_5 H 0.9154(6) 0.8310(2) 0.6910(2)
H18_5 H 0.7469(5) 0.7507(2) 0.6066(1)
H19_5 H 0.7428(6) 0.7738(2) 0.5462(2)
H20_5 H 0.6472(6) 0.8175(2) 0.5039(2)
H9_6 H 0.0536(5) 0.5851(2) 0.5900(1)
C1_6 C 0.7427(5) 0.5713(2) 0.5857(1)
C2_6 C 0.7326(5) 0.5806(2) 0.5504(1)
C3_6 C 0.8421(5) 0.5918(2) 0.5321(1)
C4_6 C 0.6219(5) 0.5578(2) 0.6048(1)
C5_6 C 0.6511(6) 0.4388(2) 0.5243(2)
C6_6 C 0.5931(6) 0.4654(2) 0.5495(2)
C7_6 C 0.6597(5) 0.4762(2) 0.5794(1)
C8_6 C 0.7833(7) 0.4589(2) 0.5820(2)
C9_6 C 0.8315(6) 0.4316(2) 0.5558(2)
C10_6 C 0.5987(5) 0.5052(2) 0.6061(1)
H1_6 H 0.6505(5) 0.5793(2) 0.5392(1)
H2_6 H 0.8328(5) 0.5985(2) 0.5082(1)
H3_6 H 0.5437(5) 0.5741(2) 0.5960(1)
H4_6 H 0.6472(6) 0.4325(2) 0.7461(2)
H5_6 H 0.7428(6) 0.4762(2) 0.7038(2)
H6_6 H 0.8355(7) 0.4657(2) 0.6016(2)
H7_6 H 0.9154(6) 0.4190(2) 0.5590(2)
H8_6 H 0.7469(5) 0.4993(2) 0.6434(1)
C11_6 C 0.8656(5) 0.5731(2) 0.6003(1)
C12_6 C 0.9700(5) 0.5842(2) 0.5796(1)
N2_6 N 0.9610(4) 0.5937(1) 0.5459(1)
H10_6 H 0.8778(5) 0.5669(2) 0.6242(1)
C13_6 C 0.6281(5) 0.5578(2) 0.6452(1)
C14_6 C 0.6513(5) 0.5052(2) 0.6439(1)
C15_6 C 0.5073(5) 0.5713(2) 0.6643(1)
C16_6 C 0.3844(5) 0.5731(2) 0.6497(1)
C17_6 C 0.2800(5) 0.5842(2) 0.6704(1)
N3_6 N 0.2890(4) 0.5937(1) 0.7041(1)
C18_6 C 0.4079(5) 0.5918(2) 0.7179(1)
C19_6 C 0.5174(5) 0.5806(2) 0.6996(1)
H11_6 H 0.5995(5) 0.5793(2) 0.7108(1)
H12_6 H 0.4172(5) 0.5985(2) 0.7418(1)
H13_6 H 0.1964(5) 0.5851(2) 0.6600(1)
H14_6 H 0.3722(5) 0.5669(2) 0.6258(1)
H15_6 H 0.7063(5) 0.5741(2) 0.6540(1)
C20_6 C 0.5903(5) 0.4762(2) 0.6706(1)
C21_6 C 0.6569(6) 0.4654(2) 0.7005(2)
C22_6 C 0.5989(6) 0.4388(2) 0.7257(2)
C23_6 C 0.4185(6) 0.4316(2) 0.6942(2)
C24_6 C 0.4667(7) 0.4589(2) 0.6680(2)
H16_6 H 0.4145(7) 0.4657(2) 0.6484(2)
H17_6 H 0.3346(6) 0.4190(2) 0.6910(2)
H18_6 H 0.5031(5) 0.4993(2) 0.6066(1)
H19_6 H 0.5072(6) 0.4762(2) 0.5462(2)
H20_6 H 0.6028(6) 0.4325(2) 0.5039(2)
Ag3_4 Ag 0.1250 0.1250 0.2366(1)
H13_7 H 0.0536(5) 0.1649(2) 0.1600(1)
C1_7 C 0.5073(5) 0.1787(2) 0.0857(1)
C2_7 C 0.5174(5) 0.1694(2) 0.0504(1)
C3_7 C 0.4079(5) 0.1582(2) 0.0321(1)
C4_7 C 0.6281(5) 0.1922(2) 0.1048(1)
C5_7 C 0.5989(6) 0.3112(2) 0.0243(2)
C6_7 C 0.6569(6) 0.2846(2) 0.0495(2)
C7_7 C 0.5903(5) 0.2738(2) 0.0794(1)
C8_7 C 0.4667(7) 0.2911(2) 0.0820(2)
C9_7 C 0.4185(6) 0.3184(2) 0.0558(2)
C10_7 C 0.6513(5) 0.2448(2) 0.1061(1)
H1_7 H 0.5995(5) 0.1707(2) 0.0392(1)
H2_7 H 0.4172(5) 0.1515(2) 0.0082(1)
H3_7 H 0.7063(5) 0.1759(2) 0.0960(1)
H4_7 H 0.6028(6) 0.3175(2) 0.2461(2)
H5_7 H 0.5072(6) 0.2738(2) 0.2038(2)
H6_7 H 0.4145(7) 0.2843(2) 0.1016(2)
H7_7 H 0.3346(6) 0.3310(2) 0.0590(2)
H8_7 H 0.5031(5) 0.2507(2) 0.1434(1)
C11_7 C 0.3844(5) 0.1769(2) 0.1003(1)
C12_7 C 0.2800(5) 0.1658(2) 0.0796(1)
N2_7 N 0.2890(4) 0.1563(1) 0.0459(1)
Ag2_4 Ag 0.1250 0.1250 0.0134(1)
H9_7 H 0.1964(5) 0.1649(2) 0.0900(1)
H10_7 H 0.3722(5) 0.1831(2) 0.1242(1)
C13_7 C 0.6219(5) 0.1922(2) 0.1452(1)
C14_7 C 0.5987(5) 0.2448(2) 0.1439(1)
C15_7 C 0.7427(5) 0.1787(2) 0.1643(1)
C16_7 C 0.8656(5) 0.1769(2) 0.1497(1)
C17_7 C 0.9700(5) 0.1658(2) 0.1704(1)
N3_7 N 0.9610(4) 0.1563(1) 0.2041(1)
C18_7 C 0.8421(5) 0.1582(2) 0.2179(1)
C19_7 C 0.7326(5) 0.1694(2) 0.1996(1)
H11_7 H 0.6505(5) 0.1707(2) 0.2108(1)
H12_7 H 0.8328(5) 0.1515(2) 0.2418(1)
H14_7 H 0.8778(5) 0.1831(2) 0.1258(1)
H15_7 H 0.5437(5) 0.1759(2) 0.1540(1)
C20_7 C 0.6597(5) 0.2738(2) 0.1706(1)
C21_7 C 0.5931(6) 0.2846(2) 0.2005(2)
C22_7 C 0.6511(6) 0.3112(2) 0.2257(2)
C23_7 C 0.8315(6) 0.3184(2) 0.1942(2)
C24_7 C 0.7833(7) 0.2911(2) 0.1680(2)
H16_7 H 0.8355(7) 0.2843(2) 0.1484(2)
H17_7 H 0.9154(6) 0.3310(2) 0.1910(2)
H18_7 H 0.7469(5) 0.2507(2) 0.1066(1)
H19_7 H 0.7428(6) 0.2738(2) 0.0462(2)
H20_7 H 0.6472(6) 0.3175(2) 0.0039(2)
H9_8 H 0.0536(5) 0.0851(2) 0.0900(1)
C1_8 C 0.7427(5) 0.0713(2) 0.0857(1)
C2_8 C 0.7326(5) 0.0806(2) 0.0504(1)
C3_8 C 0.8421(5) 0.0918(2) 0.0321(1)
C4_8 C 0.6219(5) 0.0578(2) 0.1048(1)
C10_8 C 0.5987(5) 0.0052(2) 0.1061(1)
H1_8 H 0.6505(5) 0.0793(2) 0.0392(1)
H2_8 H 0.8328(5) 0.0985(2) 0.0082(1)
H3_8 H 0.5437(5) 0.0741(2) 0.0960(1)
C11_8 C 0.8656(5) 0.0731(2) 0.1003(1)
C12_8 C 0.9700(5) 0.0842(2) 0.0796(1)
N2_8 N 0.9610(4) 0.0937(1) 0.0459(1)
H10_8 H 0.8778(5) 0.0669(2) 0.1242(1)
C13_8 C 0.6281(5) 0.0578(2) 0.1452(1)
C14_8 C 0.6513(5) 0.0052(2) 0.1439(1)
C15_8 C 0.5073(5) 0.0713(2) 0.1643(1)
C16_8 C 0.3844(5) 0.0731(2) 0.1497(1)
C17_8 C 0.2800(5) 0.0842(2) 0.1704(1)
N3_8 N 0.2890(4) 0.0937(1) 0.2041(1)
C18_8 C 0.4079(5) 0.0918(2) 0.2179(1)
C19_8 C 0.5174(5) 0.0806(2) 0.1996(1)
H11_8 H 0.5995(5) 0.0793(2) 0.2108(1)
H12_8 H 0.4172(5) 0.0985(2) 0.2418(1)
H13_8 H 0.1964(5) 0.0851(2) 0.1600(1)
H14_8 H 0.3722(5) 0.0669(2) 0.1258(1)
H15_8 H 0.7063(5) 0.0741(2) 0.1540(1)
C5_8 C 0.6511(6) 0.9388(2) 0.0243(2)
C6_8 C 0.5931(6) 0.9654(2) 0.0495(2)
C7_8 C 0.6597(5) 0.9762(2) 0.0794(1)
C8_8 C 0.7833(7) 0.9589(2) 0.0820(2)
C9_8 C 0.8315(6) 0.9316(2) 0.0558(2)
H4_8 H 0.6472(6) 0.9325(2) 0.2461(2)
H5_8 H 0.7428(6) 0.9762(2) 0.2038(2)
H6_8 H 0.8355(7) 0.9657(2) 0.1016(2)
H7_8 H 0.9154(6) 0.9190(2) 0.0590(2)
H8_8 H 0.7469(5) 0.9993(2) 0.1434(1)
C20_8 C 0.5903(5) 0.9762(2) 0.1706(1)
C21_8 C 0.6569(6) 0.9654(2) 0.2005(2)
C22_8 C 0.5989(6) 0.9388(2) 0.2257(2)
C23_8 C 0.4185(6) 0.9316(2) 0.1942(2)
C24_8 C 0.4667(7) 0.9589(2) 0.1680(2)
H16_8 H 0.4145(7) 0.9657(2) 0.1484(2)
H17_8 H 0.3346(6) 0.9190(2) 0.1910(2)
H18_8 H 0.5031(5) 0.9993(2) 0.1066(1)
H19_8 H 0.5072(6) 0.9762(2) 0.0462(2)
H20_8 H 0.6028(6) 0.9325(2) 0.0039(2)
C3_9 C 0.0921(5) 0.3418(2) 0.9679(1)
N1_5 N 0.0194(4) 0.1719(1) 0.9730(1)
C8_9 C 0.0333(7) 0.2089(2) 0.9180(2)
C9_9 C 0.0815(6) 0.1816(2) 0.9442(2)
H2_9 H 0.0828(5) 0.3485(2) 0.9918(1)
H6_9 H 0.0855(7) 0.2157(2) 0.8984(2)
H7_9 H 0.1654(6) 0.1690(2) 0.9410(2)
C11_9 C 0.1156(5) 0.3231(2) 0.8997(1)
C12_9 C 0.2200(5) 0.3342(2) 0.9204(1)
H9_9 H 0.3036(5) 0.3351(2) 0.9100(1)
H10_9 H 0.1278(5) 0.3169(2) 0.8758(1)
C1_9 C 0.9927(5) 0.3213(2) 0.9143(1)
C2_9 C 0.9826(5) 0.3306(2) 0.9496(1)
C4_9 C 0.8719(5) 0.3078(2) 0.8952(1)
C5_9 C 0.9011(6) 0.1888(2) 0.9757(2)
C6_9 C 0.8431(6) 0.2154(2) 0.9505(2)
C7_9 C 0.9097(5) 0.2262(2) 0.9206(1)
C10_9 C 0.8487(5) 0.2552(2) 0.8939(1)
H1_9 H 0.9005(5) 0.3293(2) 0.9608(1)
H3_9 H 0.7937(5) 0.3241(2) 0.9040(1)
H4_9 H 0.8972(6) 0.1825(2) 0.7539(2)
H5_9 H 0.9928(6) 0.2262(2) 0.7962(2)
H8_9 H 0.9969(5) 0.2493(2) 0.8566(1)
C13_9 C 0.8781(5) 0.3078(2) 0.8548(1)
C14_9 C 0.9013(5) 0.2552(2) 0.8561(1)
C15_9 C 0.7573(5) 0.3213(2) 0.8357(1)
C16_9 C 0.6344(5) 0.3231(2) 0.8503(1)
C17_9 C 0.5300(5) 0.3342(2) 0.8296(1)
C18_9 C 0.6579(5) 0.3418(2) 0.7821(1)
C19_9 C 0.7674(5) 0.3306(2) 0.8004(1)
H11_9 H 0.8495(5) 0.3293(2) 0.7892(1)
H12_9 H 0.6672(5) 0.3485(2) 0.7582(1)
H13_9 H 0.4464(5) 0.3351(2) 0.8400(1)
H14_9 H 0.6222(5) 0.3169(2) 0.8742(1)
H15_9 H 0.9563(5) 0.3241(2) 0.8460(1)
C20_9 C 0.8403(5) 0.2262(2) 0.8294(1)
C21_9 C 0.9069(6) 0.2154(2) 0.7995(2)
C22_9 C 0.8489(6) 0.1888(2) 0.7743(2)
N4_5 N 0.7306(4) 0.1719(1) 0.7770(1)
N7_9 N 0.5194(4) 0.0781(1) 0.7770(1)
C23_9 C 0.6685(6) 0.1816(2) 0.8058(2)
C24_9 C 0.7167(7) 0.2089(2) 0.8320(2)
H16_9 H 0.6645(7) 0.2157(2) 0.8516(2)
H17_9 H 0.5846(6) 0.1690(2) 0.8090(2)
H18_9 H 0.7531(5) 0.2493(2) 0.8934(1)
H19_9 H 0.7572(6) 0.2262(2) 0.9538(2)
H20_9 H 0.8528(6) 0.1825(2) 0.9961(2)
C16_10 C 0.1156(5) 0.4269(2) 0.8503(1)
C17_10 C 0.2200(5) 0.4158(2) 0.8296(1)
C18_10 C 0.0921(5) 0.4082(2) 0.7821(1)
H12_10 H 0.0828(5) 0.4015(2) 0.7582(1)
H13_10 H 0.3036(5) 0.4149(2) 0.8400(1)
H14_10 H 0.1278(5) 0.4331(2) 0.8742(1)
N4_6 N 0.0194(4) 0.5781(1) 0.7770(1)
N7_10 N 0.2306(4) 0.6719(1) 0.7770(1)
C23_10 C 0.0815(6) 0.5684(2) 0.8058(2)
C24_10 C 0.0333(7) 0.5411(2) 0.8320(2)
H16_10 H 0.0855(7) 0.5343(2) 0.8516(2)
H17_10 H 0.1654(6) 0.5810(2) 0.8090(2)
C1_10 C 0.7573(5) 0.4287(2) 0.9143(1)
C2_10 C 0.7674(5) 0.4194(2) 0.9496(1)
C3_10 C 0.6579(5) 0.4082(2) 0.9679(1)
C4_10 C 0.8781(5) 0.4422(2) 0.8952(1)
N1_6 N 0.7306(4) 0.5781(1) 0.9730(1)
C5_10 C 0.8489(6) 0.5612(2) 0.9757(2)
C6_10 C 0.9069(6) 0.5346(2) 0.9505(2)
C7_10 C 0.8403(5) 0.5238(2) 0.9206(1)
C8_10 C 0.7167(7) 0.5411(2) 0.9180(2)
C9_10 C 0.6685(6) 0.5684(2) 0.9442(2)
C10_10 C 0.9013(5) 0.4948(2) 0.8939(1)
H1_10 H 0.8495(5) 0.4207(2) 0.9608(1)
H2_10 H 0.6672(5) 0.4015(2) 0.9918(1)
H3_10 H 0.9563(5) 0.4259(2) 0.9040(1)
H4_10 H 0.8528(6) 0.5675(2) 0.7539(2)
H5_10 H 0.7572(6) 0.5238(2) 0.7962(2)
H6_10 H 0.6645(7) 0.5343(2) 0.8984(2)
H7_10 H 0.5846(6) 0.5810(2) 0.9410(2)
H8_10 H 0.7531(5) 0.5007(2) 0.8566(1)
C11_10 C 0.6344(5) 0.4269(2) 0.8997(1)
C12_10 C 0.5300(5) 0.4158(2) 0.9204(1)
H9_10 H 0.4464(5) 0.4149(2) 0.9100(1)
H10_10 H 0.6222(5) 0.4331(2) 0.8758(1)
C13_10 C 0.8719(5) 0.4422(2) 0.8548(1)
C14_10 C 0.8487(5) 0.4948(2) 0.8561(1)
C15_10 C 0.9927(5) 0.4287(2) 0.8357(1)
C19_10 C 0.9826(5) 0.4194(2) 0.8004(1)
H11_10 H 0.9005(5) 0.4207(2) 0.7892(1)
H15_10 H 0.7937(5) 0.4259(2) 0.8460(1)
C20_10 C 0.9097(5) 0.5238(2) 0.8294(1)
C21_10 C 0.8431(6) 0.5346(2) 0.7995(2)
C22_10 C 0.9011(6) 0.5612(2) 0.7743(2)
H18_10 H 0.9969(5) 0.5007(2) 0.8934(1)
H19_10 H 0.9928(6) 0.5238(2) 0.9538(2)
H20_10 H 0.8972(6) 0.5675(2) 0.9961(2)
N7_11 N 0.5194(4) 0.6719(1) 0.9730(1)
N7_12 N 0.2306(4) 0.0781(1) 0.9730(1)
C3_11 C 0.0921(5) 0.8418(2) 0.4679(1)
N1_7 N 0.0194(4) 0.6719(1) 0.4730(1)
C8_11 C 0.0333(7) 0.7089(2) 0.4180(2)
C9_11 C 0.0815(6) 0.6816(2) 0.4442(2)
H2_11 H 0.0828(5) 0.8485(2) 0.4918(1)
H6_11 H 0.0855(7) 0.7157(2) 0.3984(2)
H7_11 H 0.1654(6) 0.6690(2) 0.4410(2)
C11_11 C 0.1156(5) 0.8231(2) 0.3997(1)
C12_11 C 0.2200(5) 0.8342(2) 0.4204(1)
H9_11 H 0.3036(5) 0.8351(2) 0.4100(1)
H10_11 H 0.1278(5) 0.8169(2) 0.3758(1)
C1_11 C 0.9927(5) 0.8213(2) 0.4143(1)
C2_11 C 0.9826(5) 0.8306(2) 0.4496(1)
C4_11 C 0.8719(5) 0.8078(2) 0.3952(1)
C5_11 C 0.9011(6) 0.6888(2) 0.4757(2)
C6_11 C 0.8431(6) 0.7154(2) 0.4505(2)
C7_11 C 0.9097(5) 0.7262(2) 0.4206(1)
C10_11 C 0.8487(5) 0.7552(2) 0.3939(1)
H1_11 H 0.9005(5) 0.8293(2) 0.4608(1)
H3_11 H 0.7937(5) 0.8241(2) 0.4040(1)
H4_11 H 0.8972(6) 0.6825(2) 0.2539(2)
H5_11 H 0.9928(6) 0.7262(2) 0.2962(2)
H8_11 H 0.9969(5) 0.7493(2) 0.3566(1)
C13_11 C 0.8781(5) 0.8078(2) 0.3548(1)
C14_11 C 0.9013(5) 0.7552(2) 0.3561(1)
C15_11 C 0.7573(5) 0.8213(2) 0.3357(1)
C16_11 C 0.6344(5) 0.8231(2) 0.3503(1)
C17_11 C 0.5300(5) 0.8342(2) 0.3296(1)
C18_11 C 0.6579(5) 0.8418(2) 0.2821(1)
C19_11 C 0.7674(5) 0.8306(2) 0.3004(1)
H11_11 H 0.8495(5) 0.8293(2) 0.2892(1)
H12_11 H 0.6672(5) 0.8485(2) 0.2582(1)
H13_11 H 0.4464(5) 0.8351(2) 0.3400(1)
H14_11 H 0.6222(5) 0.8169(2) 0.3742(1)
H15_11 H 0.9563(5) 0.8241(2) 0.3460(1)
C20_11 C 0.8403(5) 0.7262(2) 0.3294(1)
C21_11 C 0.9069(6) 0.7154(2) 0.2995(2)
C22_11 C 0.8489(6) 0.6888(2) 0.2743(2)
N4_7 N 0.7306(4) 0.6719(1) 0.2770(1)
N7_13 N 0.5194(4) 0.5781(1) 0.2770(1)
C23_11 C 0.6685(6) 0.6816(2) 0.3058(2)
C24_11 C 0.7167(7) 0.7089(2) 0.3320(2)
H16_11 H 0.6645(7) 0.7157(2) 0.3516(2)
H17_11 H 0.5846(6) 0.6690(2) 0.3090(2)
H18_11 H 0.7531(5) 0.7493(2) 0.3934(1)
H19_11 H 0.7572(6) 0.7262(2) 0.4538(2)
H20_11 H 0.8528(6) 0.6825(2) 0.4961(2)
N4_8 N 0.0194(4) 0.0781(1) 0.2770(1)
N7_14 N 0.2306(4) 0.1719(1) 0.2770(1)
C23_12 C 0.0815(6) 0.0684(2) 0.3058(2)
C24_12 C 0.0333(7) 0.0411(2) 0.3320(2)
H16_12 H 0.0855(7) 0.0343(2) 0.3516(2)
H17_12 H 0.1654(6) 0.0810(2) 0.3090(2)
C16_12 C 0.1156(5) 0.9269(2) 0.3503(1)
C17_12 C 0.2200(5) 0.9158(2) 0.3296(1)
C18_12 C 0.0921(5) 0.9082(2) 0.2821(1)
H12_12 H 0.0828(5) 0.9015(2) 0.2582(1)
H13_12 H 0.3036(5) 0.9149(2) 0.3400(1)
H14_12 H 0.1278(5) 0.9331(2) 0.3742(1)
N1_8 N 0.7306(4) 0.0781(1) 0.4730(1)
C5_12 C 0.8489(6) 0.0612(2) 0.4757(2)
C6_12 C 0.9069(6) 0.0346(2) 0.4505(2)
C7_12 C 0.8403(5) 0.0238(2) 0.4206(1)
C8_12 C 0.7167(7) 0.0411(2) 0.4180(2)
C9_12 C 0.6685(6) 0.0684(2) 0.4442(2)
H4_12 H 0.8528(6) 0.0675(2) 0.2539(2)
H5_12 H 0.7572(6) 0.0238(2) 0.2962(2)
H6_12 H 0.6645(7) 0.0343(2) 0.3984(2)
H7_12 H 0.5846(6) 0.0810(2) 0.4410(2)
H8_12 H 0.7531(5) 0.0007(2) 0.3566(1)
C20_12 C 0.9097(5) 0.0238(2) 0.3294(1)
C21_12 C 0.8431(6) 0.0346(2) 0.2995(2)
C22_12 C 0.9011(6) 0.0612(2) 0.2743(2)
H18_12 H 0.9969(5) 0.0007(2) 0.3934(1)
H19_12 H 0.9928(6) 0.0238(2) 0.4538(2)
H20_12 H 0.8972(6) 0.0675(2) 0.4961(2)
C1_12 C 0.7573(5) 0.9287(2) 0.4143(1)
C2_12 C 0.7674(5) 0.9194(2) 0.4496(1)
C3_12 C 0.6579(5) 0.9082(2) 0.4679(1)
C4_12 C 0.8781(5) 0.9422(2) 0.3952(1)
C10_12 C 0.9013(5) 0.9948(2) 0.3939(1)
H1_12 H 0.8495(5) 0.9207(2) 0.4608(1)
H2_12 H 0.6672(5) 0.9015(2) 0.4918(1)
H3_12 H 0.9563(5) 0.9259(2) 0.4040(1)
C11_12 C 0.6344(5) 0.9269(2) 0.3997(1)
C12_12 C 0.5300(5) 0.9158(2) 0.4204(1)
H9_12 H 0.4464(5) 0.9149(2) 0.4100(1)
H10_12 H 0.6222(5) 0.9331(2) 0.3758(1)
C13_12 C 0.8719(5) 0.9422(2) 0.3548(1)
C14_12 C 0.8487(5) 0.9948(2) 0.3561(1)
C15_12 C 0.9927(5) 0.9287(2) 0.3357(1)
C19_12 C 0.9826(5) 0.9194(2) 0.3004(1)
H11_12 H 0.9005(5) 0.9207(2) 0.2892(1)
H15_12 H 0.7937(5) 0.9259(2) 0.3460(1)
N7_15 N 0.5194(4) 0.1719(1) 0.4730(1)
N7_16 N 0.2306(4) 0.5781(1) 0.4730(1)
C1_13 C 0.4927(5) 0.3213(2) 0.4143(1)
C2_13 C 0.4826(5) 0.3306(2) 0.4496(1)
C3_13 C 0.5921(5) 0.3418(2) 0.4679(1)
C4_13 C 0.3719(5) 0.3078(2) 0.3952(1)
C5_13 C 0.4011(6) 0.1888(2) 0.4757(2)
C6_13 C 0.3431(6) 0.2154(2) 0.4505(2)
C7_13 C 0.4097(5) 0.2262(2) 0.4206(1)
C8_13 C 0.5333(7) 0.2089(2) 0.4180(2)
C9_13 C 0.5815(6) 0.1816(2) 0.4442(2)
C10_13 C 0.3487(5) 0.2552(2) 0.3939(1)
H1_13 H 0.4005(5) 0.3293(2) 0.4608(1)
H2_13 H 0.5828(5) 0.3485(2) 0.4918(1)
H3_13 H 0.2937(5) 0.3241(2) 0.4040(1)
H4_13 H 0.3972(6) 0.1825(2) 0.2539(2)
H5_13 H 0.4928(6) 0.2262(2) 0.2962(2)
H6_13 H 0.5855(7) 0.2157(2) 0.3984(2)
H7_13 H 0.6654(6) 0.1690(2) 0.4410(2)
H8_13 H 0.4969(5) 0.2493(2) 0.3566(1)
C11_13 C 0.6156(5) 0.3231(2) 0.3997(1)
C12_13 C 0.7200(5) 0.3342(2) 0.4204(1)
H9_13 H 0.8036(5) 0.3351(2) 0.4100(1)
H10_13 H 0.6278(5) 0.3169(2) 0.3758(1)
C13_13 C 0.3781(5) 0.3078(2) 0.3548(1)
C14_13 C 0.4013(5) 0.2552(2) 0.3561(1)
C15_13 C 0.2573(5) 0.3213(2) 0.3357(1)
C16_13 C 0.1344(5) 0.3231(2) 0.3503(1)
C17_13 C 0.0300(5) 0.3342(2) 0.3296(1)
C18_13 C 0.1579(5) 0.3418(2) 0.2821(1)
C19_13 C 0.2674(5) 0.3306(2) 0.3004(1)
H11_13 H 0.3495(5) 0.3293(2) 0.2892(1)
H12_13 H 0.1672(5) 0.3485(2) 0.2582(1)
H14_13 H 0.1222(5) 0.3169(2) 0.3742(1)
H15_13 H 0.4563(5) 0.3241(2) 0.3460(1)
C20_13 C 0.3403(5) 0.2262(2) 0.3294(1)
C21_13 C 0.4069(6) 0.2154(2) 0.2995(2)
C22_13 C 0.3489(6) 0.1888(2) 0.2743(2)
C23_13 C 0.1685(6) 0.1816(2) 0.3058(2)
C24_13 C 0.2167(7) 0.2089(2) 0.3320(2)
H16_13 H 0.1645(7) 0.2157(2) 0.3516(2)
H17_13 H 0.0846(6) 0.1690(2) 0.3090(2)
H18_13 H 0.2531(5) 0.2493(2) 0.3934(1)
H19_13 H 0.2572(6) 0.2262(2) 0.4538(2)
H20_13 H 0.3528(6) 0.1825(2) 0.4961(2)
H13_13 H 0.9464(5) 0.3351(2) 0.3400(1)
C1_14 C 0.2573(5) 0.4287(2) 0.4143(1)
C2_14 C 0.2674(5) 0.4194(2) 0.4496(1)
C3_14 C 0.1579(5) 0.4082(2) 0.4679(1)
C4_14 C 0.3781(5) 0.4422(2) 0.3952(1)
C5_14 C 0.3489(6) 0.5612(2) 0.4757(2)
C6_14 C 0.4069(6) 0.5346(2) 0.4505(2)
C7_14 C 0.3403(5) 0.5238(2) 0.4206(1)
C8_14 C 0.2167(7) 0.5411(2) 0.4180(2)
C9_14 C 0.1685(6) 0.5684(2) 0.4442(2)
C10_14 C 0.4013(5) 0.4948(2) 0.3939(1)
H1_14 H 0.3495(5) 0.4207(2) 0.4608(1)
H2_14 H 0.1672(5) 0.4015(2) 0.4918(1)
H3_14 H 0.4563(5) 0.4259(2) 0.4040(1)
H4_14 H 0.3528(6) 0.5675(2) 0.2539(2)
H5_14 H 0.2572(6) 0.5238(2) 0.2962(2)
H6_14 H 0.1645(7) 0.5343(2) 0.3984(2)
H7_14 H 0.0846(6) 0.5810(2) 0.4410(2)
H8_14 H 0.2531(5) 0.5007(2) 0.3566(1)
C11_14 C 0.1344(5) 0.4269(2) 0.3997(1)
C12_14 C 0.0300(5) 0.4158(2) 0.4204(1)
H10_14 H 0.1222(5) 0.4331(2) 0.3758(1)
C13_14 C 0.3719(5) 0.4422(2) 0.3548(1)
C14_14 C 0.3487(5) 0.4948(2) 0.3561(1)
C15_14 C 0.4927(5) 0.4287(2) 0.3357(1)
C16_14 C 0.6156(5) 0.4269(2) 0.3503(1)
C17_14 C 0.7200(5) 0.4158(2) 0.3296(1)
C18_14 C 0.5921(5) 0.4082(2) 0.2821(1)
C19_14 C 0.4826(5) 0.4194(2) 0.3004(1)
H11_14 H 0.4005(5) 0.4207(2) 0.2892(1)
H12_14 H 0.5828(5) 0.4015(2) 0.2582(1)
H13_14 H 0.8036(5) 0.4149(2) 0.3400(1)
H14_14 H 0.6278(5) 0.4331(2) 0.3742(1)
H15_14 H 0.2937(5) 0.4259(2) 0.3460(1)
C20_14 C 0.4097(5) 0.5238(2) 0.3294(1)
C21_14 C 0.3431(6) 0.5346(2) 0.2995(2)
C22_14 C 0.4011(6) 0.5612(2) 0.2743(2)
C23_14 C 0.5815(6) 0.5684(2) 0.3058(2)
C24_14 C 0.5333(7) 0.5411(2) 0.3320(2)
H16_14 H 0.5855(7) 0.5343(2) 0.3516(2)
H17_14 H 0.6654(6) 0.5810(2) 0.3090(2)
H18_14 H 0.4969(5) 0.5007(2) 0.3934(1)
H19_14 H 0.4928(6) 0.5238(2) 0.4538(2)
H20_14 H 0.3972(6) 0.5675(2) 0.4961(2)
H9_14 H 0.9464(5) 0.4149(2) 0.4100(1)
C1_15 C 0.4927(5) 0.8213(2) 0.9143(1)
C2_15 C 0.4826(5) 0.8306(2) 0.9496(1)
C3_15 C 0.5921(5) 0.8418(2) 0.9679(1)
C4_15 C 0.3719(5) 0.8078(2) 0.8952(1)
C5_15 C 0.4011(6) 0.6888(2) 0.9757(2)
C6_15 C 0.3431(6) 0.7154(2) 0.9505(2)
C7_15 C 0.4097(5) 0.7262(2) 0.9206(1)
C8_15 C 0.5333(7) 0.7089(2) 0.9180(2)
C9_15 C 0.5815(6) 0.6816(2) 0.9442(2)
C10_15 C 0.3487(5) 0.7552(2) 0.8939(1)
H1_15 H 0.4005(5) 0.8293(2) 0.9608(1)
H2_15 H 0.5828(5) 0.8485(2) 0.9918(1)
H3_15 H 0.2937(5) 0.8241(2) 0.9040(1)
H4_15 H 0.3972(6) 0.6825(2) 0.7539(2)
H5_15 H 0.4928(6) 0.7262(2) 0.7962(2)
H6_15 H 0.5855(7) 0.7157(2) 0.8984(2)
H7_15 H 0.6654(6) 0.6690(2) 0.9410(2)
H8_15 H 0.4969(5) 0.7493(2) 0.8566(1)
C11_15 C 0.6156(5) 0.8231(2) 0.8997(1)
C12_15 C 0.7200(5) 0.8342(2) 0.9204(1)
H9_15 H 0.8036(5) 0.8351(2) 0.9100(1)
H10_15 H 0.6278(5) 0.8169(2) 0.8758(1)
C13_15 C 0.3781(5) 0.8078(2) 0.8548(1)
C14_15 C 0.4013(5) 0.7552(2) 0.8561(1)
C15_15 C 0.2573(5) 0.8213(2) 0.8357(1)
C16_15 C 0.1344(5) 0.8231(2) 0.8503(1)
C17_15 C 0.0300(5) 0.8342(2) 0.8296(1)
C18_15 C 0.1579(5) 0.8418(2) 0.7821(1)
C19_15 C 0.2674(5) 0.8306(2) 0.8004(1)
H11_15 H 0.3495(5) 0.8293(2) 0.7892(1)
H12_15 H 0.1672(5) 0.8485(2) 0.7582(1)
H14_15 H 0.1222(5) 0.8169(2) 0.8742(1)
H15_15 H 0.4563(5) 0.8241(2) 0.8460(1)
C20_15 C 0.3403(5) 0.7262(2) 0.8294(1)
C21_15 C 0.4069(6) 0.7154(2) 0.7995(2)
C22_15 C 0.3489(6) 0.6888(2) 0.7743(2)
C23_15 C 0.1685(6) 0.6816(2) 0.8058(2)
C24_15 C 0.2167(7) 0.7089(2) 0.8320(2)
H16_15 H 0.1645(7) 0.7157(2) 0.8516(2)
H17_15 H 0.0846(6) 0.6690(2) 0.8090(2)
H18_15 H 0.2531(5) 0.7493(2) 0.8934(1)
H19_15 H 0.2572(6) 0.7262(2) 0.9538(2)
H20_15 H 0.3528(6) 0.6825(2) 0.9961(2)
H13_15 H 0.9464(5) 0.8351(2) 0.8400(1)
C5_16 C 0.3489(6) 0.0612(2) 0.9757(2)
C6_16 C 0.4069(6) 0.0346(2) 0.9505(2)
C7_16 C 0.3403(5) 0.0238(2) 0.9206(1)
C8_16 C 0.2167(7) 0.0411(2) 0.9180(2)
C9_16 C 0.1685(6) 0.0684(2) 0.9442(2)
H4_16 H 0.3528(6) 0.0675(2) 0.7539(2)
H5_16 H 0.2572(6) 0.0238(2) 0.7962(2)
H6_16 H 0.1645(7) 0.0343(2) 0.8984(2)
H7_16 H 0.0846(6) 0.0810(2) 0.9410(2)
H8_16 H 0.2531(5) 0.0007(2) 0.8566(1)
C20_16 C 0.4097(5) 0.0238(2) 0.8294(1)
C21_16 C 0.3431(6) 0.0346(2) 0.7995(2)
C22_16 C 0.4011(6) 0.0612(2) 0.7743(2)
C23_16 C 0.5815(6) 0.0684(2) 0.8058(2)
C24_16 C 0.5333(7) 0.0411(2) 0.8320(2)
H16_16 H 0.5855(7) 0.0343(2) 0.8516(2)
H17_16 H 0.6654(6) 0.0810(2) 0.8090(2)
H18_16 H 0.4969(5) 0.0007(2) 0.8934(1)
H19_16 H 0.4928(6) 0.0238(2) 0.9538(2)
H20_16 H 0.3972(6) 0.0675(2) 0.9961(2)
C1_16 C 0.2573(5) 0.9287(2) 0.9143(1)
C2_16 C 0.2674(5) 0.9194(2) 0.9496(1)
C3_16 C 0.1579(5) 0.9082(2) 0.9679(1)
C4_16 C 0.3781(5) 0.9422(2) 0.8952(1)
C10_16 C 0.4013(5) 0.9948(2) 0.8939(1)
H1_16 H 0.3495(5) 0.9207(2) 0.9608(1)
H2_16 H 0.1672(5) 0.9015(2) 0.9918(1)
H3_16 H 0.4563(5) 0.9259(2) 0.9040(1)
C11_16 C 0.1344(5) 0.9269(2) 0.8997(1)
C12_16 C 0.0300(5) 0.9158(2) 0.9204(1)
H10_16 H 0.1222(5) 0.9331(2) 0.8758(1)
C13_16 C 0.3719(5) 0.9422(2) 0.8548(1)
C14_16 C 0.3487(5) 0.9948(2) 0.8561(1)
C15_16 C 0.4927(5) 0.9287(2) 0.8357(1)
C16_16 C 0.6156(5) 0.9269(2) 0.8503(1)
C17_16 C 0.7200(5) 0.9158(2) 0.8296(1)
C18_16 C 0.5921(5) 0.9082(2) 0.7821(1)
C19_16 C 0.4826(5) 0.9194(2) 0.8004(1)
H11_16 H 0.4005(5) 0.9207(2) 0.7892(1)
H12_16 H 0.5828(5) 0.9015(2) 0.7582(1)
H13_16 H 0.8036(5) 0.9149(2) 0.8400(1)
H14_16 H 0.6278(5) 0.9331(2) 0.8742(1)
H15_16 H 0.2937(5) 0.9259(2) 0.8460(1)
H9_16 H 0.9464(5) 0.9149(2) 0.9100(1)
loop_
_geom_bond_atom_site_label_1
_geom_bond_atom_site_label_2
_geom_bond_site_symmetry_1
_geom_bond_site_symmetry_2
C1 C2 1_555 1_555
C4 C1 1_555 1_555
C5 C6 1_555 1_555
C6 C7 1_555 1_555
C10 C4 1_555 1_555
H1 C2 1_555 1_555
H3 C4 1_555 1_555
H4 C22 1_555 1_555
H5 C21 1_555 1_555
H8 C14 1_555 1_555
C13 C4 1_555 1_555
C14 C10 1_555 1_555
C15 C13 1_555 1_555
C16 C15 1_555 1_555
C17 C16 1_555 1_555
N3 C17 1_555 1_555
C18 N3 1_555 1_555
C19 C15 1_555 1_555
H11 C19 1_555 1_555
H12 C18 1_555 1_555
Ag3 N3 1_555 1_555
H13 C17 1_555 1_555
H14 C16 1_555 1_555
H15 C13 1_555 1_555
C20 C14 1_555 1_555
C21 C20 1_555 1_555
C22 C21 1_555 1_555
N4 C22 1_555 1_555
Ag4 N4 1_555 1_555
N5 Ag4 1_555 1_555
N6 Ag4 1_555 1_555
N7 Ag4 1_555 1_555
C23 N4 1_555 1_555
C24 C20 1_555 1_555
H16 C24 1_555 1_555
H17 C23 1_555 1_555
H18 C10 1_555 1_555
H19 C6 1_555 1_555
H20 C5 1_555 1_555
C7 C10 1_555 1_555
C13 C14 1_555 1_555
C18 C19 1_555 1_555
C23 C24 1_555 1_555
C3 H2 1_555 1_555
C8 C9 1_555 1_555
C9 N1 1_555 1_555
H6 C8 1_555 1_555
H7 C9 1_555 1_555
C12 C11 1_555 1_555
N2 C3 1_555 1_555
Ag2 N2 1_555 1_555
H9 C12 1_555 1_555
H10 C11 1_555 1_555
C12 N2 1_555 1_555
C1_2 C2_2 1_555 1_555
C2_2 C3_2 1_555 1_555
C3_2 H2_2 1_555 1_555
C4_2 C1_2 1_555 1_555
N1_2 C5_2 1_555 1_555
C5_2 C6_2 1_555 1_555
C6_2 C7_2 1_555 1_555
C7_2 C8_2 1_555 1_555
C8_2 C9_2 1_555 1_555
C9_2 N1_2 1_555 1_555
C10_2 C4_2 1_555 1_555
H1_2 C2_2 1_555 1_555
H3_2 C4_2 1_555 1_555
H4_2 C22_2 1_555 1_555
H5_2 C21_2 1_555 1_555
H6_2 C8_2 1_555 1_555
H7_2 C9_2 1_555 1_555
H8_2 C14_2 1_555 1_555
C11_2 C1_2 1_555 1_555
C12_2 C11_2 1_555 1_555
N2_2 C3_2 1_555 1_555
Ag2 N2_2 1_555 1_555
H9_2 C12_2 1_555 1_555
H10_2 C11_2 1_555 1_555
C13_2 C4_2 1_555 1_555
C14_2 C10_2 1_555 1_555
C15_2 C13_2 1_555 1_555
C19_2 C15_2 1_555 1_555
H11_2 C19_2 1_555 1_555
H15_2 C13_2 1_555 1_555
C20_2 C14_2 1_555 1_555
C21_2 C20_2 1_555 1_555
C22_2 C21_2 1_555 1_555
H18_2 C10_2 1_555 1_555
H19_2 C6_2 1_555 1_555
H20_2 C5_2 1_555 1_555
C7_2 C10_2 1_555 1_555
C12_2 N2_2 1_555 1_555
C13_2 C14_2 1_555 1_555
C17_2 C16_2 1_555 1_555
N3_2 C17_2 1_555 1_555
C18_2 N3_2 1_555 1_555
H12_2 C18_2 1_555 1_555
Ag3 N3_2 1_555 1_555
H13_2 C17_2 1_555 1_555
H14_2 C16_2 1_555 1_555
Ag4_2 N4_2 1_555 1_555
N6_2 Ag4_2 1_555 1_555
N7_2 Ag4_2 1_555 1_555
C23_2 N4_2 1_555 1_555
H16_2 C24_2 1_555 1_555
H17_2 C23_2 1_555 1_555
C23_2 C24_2 1_555 1_555
N5_3 Ag1_2 1_555 1_555
N6_3 Ag1_2 1_555 1_555
N6_4 Ag1 1_555 1_555
C1_3 C2_3 1_555 1_555
C4_3 C1_3 1_555 1_555
C5_3 C6_3 1_555 1_555
C6_3 C7_3 1_555 1_555
C10_3 C4_3 1_555 1_555
H1_3 C2_3 1_555 1_555
H3_3 C4_3 1_555 1_555
H4_3 C22_3 1_555 1_555
H5_3 C21_3 1_555 1_555
H8_3 C14_3 1_555 1_555
C13_3 C4_3 1_555 1_555
C14_3 C10_3 1_555 1_555
C15_3 C13_3 1_555 1_555
C16_3 C15_3 1_555 1_555
C17_3 C16_3 1_555 1_555
N3_3 C17_3 1_555 1_555
C18_3 N3_3 1_555 1_555
C19_3 C15_3 1_555 1_555
H11_3 C19_3 1_555 1_555
H12_3 C18_3 1_555 1_555
Ag3_2 N3_3 1_555 1_555
H13_3 C17_3 1_555 1_555
H14_3 C16_3 1_555 1_555
H15_3 C13_3 1_555 1_555
C20_3 C14_3 1_555 1_555
C21_3 C20_3 1_555 1_555
C22_3 C21_3 1_555 1_555
N4_3 C22_3 1_555 1_555
Ag4_3 N4_3 1_555 1_555
N5_5 Ag4_3 1_555 1_555
N6_5 Ag4_3 1_555 1_555
N7_5 Ag4_3 1_555 1_555
C23_3 N4_3 1_555 1_555
C24_3 C20_3 1_555 1_555
H16_3 C24_3 1_555 1_555
H17_3 C23_3 1_555 1_555
H18_3 C10_3 1_555 1_555
H19_3 C6_3 1_555 1_555
H20_3 C5_3 1_555 1_555
C7_3 C10_3 1_555 1_555
C13_3 C14_3 1_555 1_555
C18_3 C19_3 1_555 1_555
C23_3 C24_3 1_555 1_555
C3_3 H2_3 1_555 1_555
Ag1_3 N1_3 1_555 1_555
C8_3 C9_3 1_555 1_555
C9_3 N1_3 1_555 1_555
H6_3 C8_3 1_555 1_555
H7_3 C9_3 1_555 1_555
C12_3 C11_3 1_555 1_555
N2_3 C3_3 1_555 1_555
Ag2_2 N2_3 1_555 1_555
H9_3 C12_3 1_555 1_555
H10_3 C11_3 1_555 1_555
C12_3 N2_3 1_555 1_555
C1_4 C2_4 1_555 1_555
C2_4 C3_4 1_555 1_555
C3_4 H2_4 1_555 1_555
C4_4 C1_4 1_555 1_555
C10_4 C4_4 1_555 1_555
H1_4 C2_4 1_555 1_555
H3_4 C4_4 1_555 1_555
C11_4 C1_4 1_555 1_555
C12_4 C11_4 1_555 1_555
N2_4 C3_4 1_555 1_555
Ag2_2 N2_4 1_555 1_555
H9_4 C12_4 1_555 1_555
H10_4 C11_4 1_555 1_555
C13_4 C4_4 1_555 1_555
C14_4 C10_4 1_555 1_555
C15_4 C13_4 1_555 1_555
C19_4 C15_4 1_555 1_555
H11_4 C19_4 1_555 1_555
H15_4 C13_4 1_555 1_555
C12_4 N2_4 1_555 1_555
C13_4 C14_4 1_555 1_555
Ag1_4 N1_4 1_555 1_555
N1_4 C5_4 1_555 1_555
C5_4 C6_4 1_555 1_555
C6_4 C7_4 1_555 1_555
C7_4 C8_4 1_555 1_555
C8_4 C9_4 1_555 1_555
C9_4 N1_4 1_555 1_555
H4_4 C22_4 1_555 1_555
H5_4 C21_4 1_555 1_555
H6_4 C8_4 1_555 1_555
H7_4 C9_4 1_555 1_555
C21_4 C20_4 1_555 1_555
C22_4 C21_4 1_555 1_555
H19_4 C6_4 1_555 1_555
H20_4 C5_4 1_555 1_555
C17_4 C16_4 1_555 1_555
N3_4 C17_4 1_555 1_555
C18_4 N3_4 1_555 1_555
H12_4 C18_4 1_555 1_555
Ag3_2 N3_4 1_555 1_555
H13_4 C17_4 1_555 1_555
H14_4 C16_4 1_555 1_555
Ag4_4 N4_4 1_555 1_555
N6_6 Ag4_4 1_555 1_555
N7_6 Ag4_4 1_555 1_555
C23_4 N4_4 1_555 1_555
H16_4 C24_4 1_555 1_555
H17_4 C23_4 1_555 1_555
C23_4 C24_4 1_555 1_555
N5_7 Ag1_4 1_555 1_555
N6_7 Ag1_4 1_555 1_555
N7_7 Ag1_4 1_555 1_555
N6_8 Ag1_3 1_555 1_555
N7_8 Ag1_3 1_555 1_555
C1_5 C2_5 1_555 1_555
C2_5 C3_5 1_555 1_555
C3_5 H2_5 1_555 1_555
C4_5 C1_5 1_555 1_555
N7_7 C5_5 1_555 1_555
C5_5 C6_5 1_555 1_555
C6_5 C7_5 1_555 1_555
C7_5 C8_5 1_555 1_555
C8_5 C9_5 1_555 1_555
C9_5 N7_7 1_555 1_555
C10_5 C4_5 1_555 1_555
H1_5 C2_5 1_555 1_555
H3_5 C4_5 1_555 1_555
H4_5 C22_5 1_555 1_555
H5_5 C21_5 1_555 1_555
H6_5 C8_5 1_555 1_555
H7_5 C9_5 1_555 1_555
H8_5 C14_5 1_555 1_555
C11_5 C1_5 1_555 1_555
C12_5 C11_5 1_555 1_555
N2_5 C3_5 1_555 1_555
Ag2_3 N2_5 1_555 1_555
H9_5 C12_5 1_555 1_555
H10_5 C11_5 1_555 1_555
C13_5 C4_5 1_555 1_555
C14_5 C10_5 1_555 1_555
C15_5 C13_5 1_555 1_555
C16_5 C15_5 1_555 1_555
C17_5 C16_5 1_555 1_555
N3_5 C17_5 1_555 1_555
C18_5 N3_5 1_555 1_555
C19_5 C15_5 1_555 1_555
H11_5 C19_5 1_555 1_555
H12_5 C18_5 1_555 1_555
H14_5 C16_5 1_555 1_555
H15_5 C13_5 1_555 1_555
C20_5 C14_5 1_555 1_555
C21_5 C20_5 1_555 1_555
C22_5 C21_5 1_555 1_555
N7_6 C22_5 1_555 1_555
C23_5 N7_6 1_555 1_555
C24_5 C20_5 1_555 1_555
H16_5 C24_5 1_555 1_555
H17_5 C23_5 1_555 1_555
H18_5 C10_5 1_555 1_555
H19_5 C6_5 1_555 1_555
H20_5 C5_5 1_555 1_555
C7_5 C10_5 1_555 1_555
C12_5 N2_5 1_555 1_555
C13_5 C14_5 1_555 1_555
C18_5 C19_5 1_555 1_555
C23_5 C24_5 1_555 1_555
C1_6 C2_6 1_555 1_555
C2_6 C3_6 1_555 1_555
C3_6 H2_6 1_555 1_555
C4_6 C1_6 1_555 1_555
N7_8 C5_6 1_555 1_555
C5_6 C6_6 1_555 1_555
C6_6 C7_6 1_555 1_555
C7_6 C8_6 1_555 1_555
C8_6 C9_6 1_555 1_555
C9_6 N7_8 1_555 1_555
C10_6 C4_6 1_555 1_555
H1_6 C2_6 1_555 1_555
H3_6 C4_6 1_555 1_555
H4_6 C22_6 1_555 1_555
H5_6 C21_6 1_555 1_555
H6_6 C8_6 1_555 1_555
H7_6 C9_6 1_555 1_555
H8_6 C14_6 1_555 1_555
C11_6 C1_6 1_555 1_555
C12_6 C11_6 1_555 1_555
N2_6 C3_6 1_555 1_555
H10_6 C11_6 1_555 1_555
C13_6 C4_6 1_555 1_555
C14_6 C10_6 1_555 1_555
C15_6 C13_6 1_555 1_555
C16_6 C15_6 1_555 1_555
C17_6 C16_6 1_555 1_555
N3_6 C17_6 1_555 1_555
C18_6 N3_6 1_555 1_555
C19_6 C15_6 1_555 1_555
H11_6 C19_6 1_555 1_555
H12_6 C18_6 1_555 1_555
Ag3_3 N3_6 1_555 1_555
H13_6 C17_6 1_555 1_555
H14_6 C16_6 1_555 1_555
H15_6 C13_6 1_555 1_555
C20_6 C14_6 1_555 1_555
C21_6 C20_6 1_555 1_555
C22_6 C21_6 1_555 1_555
N7_5 C22_6 1_555 1_555
C23_6 N7_5 1_555 1_555
C24_6 C20_6 1_555 1_555
H16_6 C24_6 1_555 1_555
H17_6 C23_6 1_555 1_555
H18_6 C10_6 1_555 1_555
H19_6 C6_6 1_555 1_555
H20_6 C5_6 1_555 1_555
C7_6 C10_6 1_555 1_555
C12_6 N2_6 1_555 1_555
C13_6 C14_6 1_555 1_555
C18_6 C19_6 1_555 1_555
C23_6 C24_6 1_555 1_555
C1_7 C2_7 1_555 1_555
C2_7 C3_7 1_555 1_555
C3_7 H2_7 1_555 1_555
C4_7 C1_7 1_555 1_555
N7_3 C5_7 1_555 1_555
C5_7 C6_7 1_555 1_555
C6_7 C7_7 1_555 1_555
C7_7 C8_7 1_555 1_555
C8_7 C9_7 1_555 1_555
C9_7 N7_3 1_555 1_555
C10_7 C4_7 1_555 1_555
H1_7 C2_7 1_555 1_555
H3_7 C4_7 1_555 1_555
H4_7 C22_7 1_555 1_555
H5_7 C21_7 1_555 1_555
H6_7 C8_7 1_555 1_555
H7_7 C9_7 1_555 1_555
H8_7 C14_7 1_555 1_555
C11_7 C1_7 1_555 1_555
C12_7 C11_7 1_555 1_555
N2_7 C3_7 1_555 1_555
Ag2_4 N2_7 1_555 1_555
H9_7 C12_7 1_555 1_555
H10_7 C11_7 1_555 1_555
C13_7 C4_7 1_555 1_555
C14_7 C10_7 1_555 1_555
C15_7 C13_7 1_555 1_555
C16_7 C15_7 1_555 1_555
C17_7 C16_7 1_555 1_555
N3_7 C17_7 1_555 1_555
C18_7 N3_7 1_555 1_555
C19_7 C15_7 1_555 1_555
H11_7 C19_7 1_555 1_555
H12_7 C18_7 1_555 1_555
H14_7 C16_7 1_555 1_555
H15_7 C13_7 1_555 1_555
C20_7 C14_7 1_555 1_555
C21_7 C20_7 1_555 1_555
C22_7 C21_7 1_555 1_555
N7_2 C22_7 1_555 1_555
C23_7 N7_2 1_555 1_555
C24_7 C20_7 1_555 1_555
H16_7 C24_7 1_555 1_555
H17_7 C23_7 1_555 1_555
H18_7 C10_7 1_555 1_555
H19_7 C6_7 1_555 1_555
H20_7 C5_7 1_555 1_555
C7_7 C10_7 1_555 1_555
C12_7 N2_7 1_555 1_555
C13_7 C14_7 1_555 1_555
C18_7 C19_7 1_555 1_555
C23_7 C24_7 1_555 1_555
C1_8 C2_8 1_555 1_555
C2_8 C3_8 1_555 1_555
C3_8 H2_8 1_555 1_555
C4_8 C1_8 1_555 1_555
C10_8 C4_8 1_555 1_555
H1_8 C2_8 1_555 1_555
H3_8 C4_8 1_555 1_555
C11_8 C1_8 1_555 1_555
C12_8 C11_8 1_555 1_555
N2_8 C3_8 1_555 1_555
H10_8 C11_8 1_555 1_555
C13_8 C4_8 1_555 1_555
C14_8 C10_8 1_555 1_555
C15_8 C13_8 1_555 1_555
C16_8 C15_8 1_555 1_555
C17_8 C16_8 1_555 1_555
N3_8 C17_8 1_555 1_555
C18_8 N3_8 1_555 1_555
C19_8 C15_8 1_555 1_555
H11_8 C19_8 1_555 1_555
H12_8 C18_8 1_555 1_555
Ag3_4 N3_8 1_555 1_555
H13_8 C17_8 1_555 1_555
H14_8 C16_8 1_555 1_555
H15_8 C13_8 1_555 1_555
C12_8 N2_8 1_555 1_555
C13_8 C14_8 1_555 1_555
C18_8 C19_8 1_555 1_555
N7_4 C5_8 1_555 1_555
C5_8 C6_8 1_555 1_555
C6_8 C7_8 1_555 1_555
C7_8 C8_8 1_555 1_555
C8_8 C9_8 1_555 1_555
C9_8 N7_4 1_555 1_555
H4_8 C22_8 1_555 1_555
H5_8 C21_8 1_555 1_555
H6_8 C8_8 1_555 1_555
H7_8 C9_8 1_555 1_555
C21_8 C20_8 1_555 1_555
C22_8 C21_8 1_555 1_555
N7 C22_8 1_555 1_555
C23_8 N7 1_555 1_555
C24_8 C20_8 1_555 1_555
H16_8 C24_8 1_555 1_555
H17_8 C23_8 1_555 1_555
H19_8 C6_8 1_555 1_555
H20_8 C5_8 1_555 1_555
C23_8 C24_8 1_555 1_555
C3_9 H2_9 1_555 1_555
C8_9 C9_9 1_555 1_555
C9_9 N1_5 1_555 1_555
H6_9 C8_9 1_555 1_555
H7_9 C9_9 1_555 1_555
C12_9 C11_9 1_555 1_555
N5_3 C3_9 1_555 1_555
H9_9 C12_9 1_555 1_555
H10_9 C11_9 1_555 1_555
C12_9 N5_3 1_555 1_555
C1_9 C2_9 1_555 1_555
C4_9 C1_9 1_555 1_555
C5_9 C6_9 1_555 1_555
C6_9 C7_9 1_555 1_555
C10_9 C4_9 1_555 1_555
H1_9 C2_9 1_555 1_555
H3_9 C4_9 1_555 1_555
H4_9 C22_9 1_555 1_555
H5_9 C21_9 1_555 1_555
H8_9 C14_9 1_555 1_555
C13_9 C4_9 1_555 1_555
C14_9 C10_9 1_555 1_555
C15_9 C13_9 1_555 1_555
C16_9 C15_9 1_555 1_555
C17_9 C16_9 1_555 1_555
N6_5 C17_9 1_555 1_555
C18_9 N6_5 1_555 1_555
C19_9 C15_9 1_555 1_555
H11_9 C19_9 1_555 1_555
H12_9 C18_9 1_555 1_555
H13_9 C17_9 1_555 1_555
H14_9 C16_9 1_555 1_555
H15_9 C13_9 1_555 1_555
C20_9 C14_9 1_555 1_555
C21_9 C20_9 1_555 1_555
C22_9 C21_9 1_555 1_555
N4_5 C22_9 1_555 1_555
Ag3_2 N4_5 1_555 1_555
N7_9 Ag3_2 1_555 1_555
C23_9 N4_5 1_555 1_555
C24_9 C20_9 1_555 1_555
H16_9 C24_9 1_555 1_555
H17_9 C23_9 1_555 1_555
H18_9 C10_9 1_555 1_555
H19_9 C6_9 1_555 1_555
H20_9 C5_9 1_555 1_555
C7_9 C10_9 1_555 1_555
C13_9 C14_9 1_555 1_555
C18_9 C19_9 1_555 1_555
C23_9 C24_9 1_555 1_555
C17_10 C16_10 1_555 1_555
N5_5 C17_10 1_555 1_555
C18_10 N5_5 1_555 1_555
H12_10 C18_10 1_555 1_555
H13_10 C17_10 1_555 1_555
H14_10 C16_10 1_555 1_555
Ag3_3 N4_6 1_555 1_555
N7_10 Ag3_3 1_555 1_555
C23_10 N4_6 1_555 1_555
H16_10 C24_10 1_555 1_555
H17_10 C23_10 1_555 1_555
C23_10 C24_10 1_555 1_555
C1_10 C2_10 1_555 1_555
C2_10 C3_10 1_555 1_555
C3_10 H2_10 1_555 1_555
C4_10 C1_10 1_555 1_555
N1_6 C5_10 1_555 1_555
C5_10 C6_10 1_555 1_555
C6_10 C7_10 1_555 1_555
C7_10 C8_10 1_555 1_555
C8_10 C9_10 1_555 1_555
C9_10 N1_6 1_555 1_555
C10_10 C4_10 1_555 1_555
H1_10 C2_10 1_555 1_555
H3_10 C4_10 1_555 1_555
H4_10 C22_10 1_555 1_555
H5_10 C21_10 1_555 1_555
H6_10 C8_10 1_555 1_555
H7_10 C9_10 1_555 1_555
H8_10 C14_10 1_555 1_555
C11_10 C1_10 1_555 1_555
C12_10 C11_10 1_555 1_555
N6_3 C3_10 1_555 1_555
H9_10 C12_10 1_555 1_555
H10_10 C11_10 1_555 1_555
C13_10 C4_10 1_555 1_555
C14_10 C10_10 1_555 1_555
C15_10 C13_10 1_555 1_555
C19_10 C15_10 1_555 1_555
H11_10 C19_10 1_555 1_555
H15_10 C13_10 1_555 1_555
C20_10 C14_10 1_555 1_555
C21_10 C20_10 1_555 1_555
C22_10 C21_10 1_555 1_555
H18_10 C10_10 1_555 1_555
H19_10 C6_10 1_555 1_555
H20_10 C5_10 1_555 1_555
C7_10 C10_10 1_555 1_555
C12_10 N6_3 1_555 1_555
C13_10 C14_10 1_555 1_555
C3_11 H2_11 1_555 1_555
Ag2_3 N1_7 1_555 1_555
C8_11 C9_11 1_555 1_555
C9_11 N1_7 1_555 1_555
H6_11 C8_11 1_555 1_555
H7_11 C9_11 1_555 1_555
C12_11 C11_11 1_555 1_555
N5_7 C3_11 1_555 1_555
H9_11 C12_11 1_555 1_555
H10_11 C11_11 1_555 1_555
C12_11 N5_7 1_555 1_555
C1_11 C2_11 1_555 1_555
C4_11 C1_11 1_555 1_555
C5_11 C6_11 1_555 1_555
C6_11 C7_11 1_555 1_555
C10_11 C4_11 1_555 1_555
H1_11 C2_11 1_555 1_555
H3_11 C4_11 1_555 1_555
H4_11 C22_11 1_555 1_555
H5_11 C21_11 1_555 1_555
H8_11 C14_11 1_555 1_555
C13_11 C4_11 1_555 1_555
C14_11 C10_11 1_555 1_555
C15_11 C13_11 1_555 1_555
C16_11 C15_11 1_555 1_555
C17_11 C16_11 1_555 1_555
N6 C17_11 1_555 1_555
C18_11 N6 1_555 1_555
C19_11 C15_11 1_555 1_555
H11_11 C19_11 1_555 1_555
H12_11 C18_11 1_555 1_555
H13_11 C17_11 1_555 1_555
H14_11 C16_11 1_555 1_555
H15_11 C13_11 1_555 1_555
C20_11 C14_11 1_555 1_555
C21_11 C20_11 1_555 1_555
C22_11 C21_11 1_555 1_555
N4_7 C22_11 1_555 1_555
Ag3 N4_7 1_555 1_555
N7_13 Ag3 1_555 1_555
C23_11 N4_7 1_555 1_555
C24_11 C20_11 1_555 1_555
H16_11 C24_11 1_555 1_555
H17_11 C23_11 1_555 1_555
H18_11 C10_11 1_555 1_555
H19_11 C6_11 1_555 1_555
H20_11 C5_11 1_555 1_555
C7_11 C10_11 1_555 1_555
C13_11 C14_11 1_555 1_555
C18_11 C19_11 1_555 1_555
C23_11 C24_11 1_555 1_555
Ag3_4 N4_8 1_555 1_555
N7_14 Ag3_4 1_555 1_555
C23_12 N4_8 1_555 1_555
H16_12 C24_12 1_555 1_555
H17_12 C23_12 1_555 1_555
C23_12 C24_12 1_555 1_555
C17_12 C16_12 1_555 1_555
N5 C17_12 1_555 1_555
C18_12 N5 1_555 1_555
H12_12 C18_12 1_555 1_555
H13_12 C17_12 1_555 1_555
H14_12 C16_12 1_555 1_555
Ag2_2 N1_8 1_555 1_555
N1_8 C5_12 1_555 1_555
C5_12 C6_12 1_555 1_555
C6_12 C7_12 1_555 1_555
C7_12 C8_12 1_555 1_555
C8_12 C9_12 1_555 1_555
C9_12 N1_8 1_555 1_555
H4_12 C22_12 1_555 1_555
H5_12 C21_12 1_555 1_555
H6_12 C8_12 1_555 1_555
H7_12 C9_12 1_555 1_555
C21_12 C20_12 1_555 1_555
C22_12 C21_12 1_555 1_555
H19_12 C6_12 1_555 1_555
H20_12 C5_12 1_555 1_555
C1_12 C2_12 1_555 1_555
C2_12 C3_12 1_555 1_555
C3_12 H2_12 1_555 1_555
C4_12 C1_12 1_555 1_555
C10_12 C4_12 1_555 1_555
H1_12 C2_12 1_555 1_555
H3_12 C4_12 1_555 1_555
C11_12 C1_12 1_555 1_555
C12_12 C11_12 1_555 1_555
N6_7 C3_12 1_555 1_555
H9_12 C12_12 1_555 1_555
H10_12 C11_12 1_555 1_555
C13_12 C4_12 1_555 1_555
C14_12 C10_12 1_555 1_555
C15_12 C13_12 1_555 1_555
C19_12 C15_12 1_555 1_555
H11_12 C19_12 1_555 1_555
H15_12 C13_12 1_555 1_555
C12_12 N6_7 1_555 1_555
C13_12 C14_12 1_555 1_555
N7_15 Ag2_2 1_555 1_555
N7_16 Ag2_3 1_555 1_555
C1_13 C2_13 1_555 1_555
C2_13 C3_13 1_555 1_555
C3_13 H2_13 1_555 1_555
C4_13 C1_13 1_555 1_555
N7_15 C5_13 1_555 1_555
C5_13 C6_13 1_555 1_555
C6_13 C7_13 1_555 1_555
C7_13 C8_13 1_555 1_555
C8_13 C9_13 1_555 1_555
C9_13 N7_15 1_555 1_555
C10_13 C4_13 1_555 1_555
H1_13 C2_13 1_555 1_555
H3_13 C4_13 1_555 1_555
H4_13 C22_13 1_555 1_555
H5_13 C21_13 1_555 1_555
H6_13 C8_13 1_555 1_555
H7_13 C9_13 1_555 1_555
H8_13 C14_13 1_555 1_555
C11_13 C1_13 1_555 1_555
C12_13 C11_13 1_555 1_555
N6_8 C3_13 1_555 1_555
H9_13 C12_13 1_555 1_555
H10_13 C11_13 1_555 1_555
C13_13 C4_13 1_555 1_555
C14_13 C10_13 1_555 1_555
C15_13 C13_13 1_555 1_555
C16_13 C15_13 1_555 1_555
C17_13 C16_13 1_555 1_555
N5_2 C17_13 1_555 1_555
C18_13 N5_2 1_555 1_555
C19_13 C15_13 1_555 1_555
H11_13 C19_13 1_555 1_555
H12_13 C18_13 1_555 1_555
H14_13 C16_13 1_555 1_555
H15_13 C13_13 1_555 1_555
C20_13 C14_13 1_555 1_555
C21_13 C20_13 1_555 1_555
C22_13 C21_13 1_555 1_555
N7_14 C22_13 1_555 1_555
C23_13 N7_14 1_555 1_555
C24_13 C20_13 1_555 1_555
H16_13 C24_13 1_555 1_555
H17_13 C23_13 1_555 1_555
H18_13 C10_13 1_555 1_555
H19_13 C6_13 1_555 1_555
H20_13 C5_13 1_555 1_555
C7_13 C10_13 1_555 1_555
C12_13 N6_8 1_555 1_555
C13_13 C14_13 1_555 1_555
C18_13 C19_13 1_555 1_555
C23_13 C24_13 1_555 1_555
C1_14 C2_14 1_555 1_555
C2_14 C3_14 1_555 1_555
C3_14 H2_14 1_555 1_555
C4_14 C1_14 1_555 1_555
N7_16 C5_14 1_555 1_555
C5_14 C6_14 1_555 1_555
C6_14 C7_14 1_555 1_555
C7_14 C8_14 1_555 1_555
C8_14 C9_14 1_555 1_555
C9_14 N7_16 1_555 1_555
C10_14 C4_14 1_555 1_555
H1_14 C2_14 1_555 1_555
H3_14 C4_14 1_555 1_555
H4_14 C22_14 1_555 1_555
H5_14 C21_14 1_555 1_555
H6_14 C8_14 1_555 1_555
H7_14 C9_14 1_555 1_555
H8_14 C14_14 1_555 1_555
C11_14 C1_14 1_555 1_555
C12_14 C11_14 1_555 1_555
N5_8 C3_14 1_555 1_555
H10_14 C11_14 1_555 1_555
C13_14 C4_14 1_555 1_555
C14_14 C10_14 1_555 1_555
C15_14 C13_14 1_555 1_555
C16_14 C15_14 1_555 1_555
C17_14 C16_14 1_555 1_555
N6_2 C17_14 1_555 1_555
C18_14 N6_2 1_555 1_555
C19_14 C15_14 1_555 1_555
H11_14 C19_14 1_555 1_555
H12_14 C18_14 1_555 1_555
H13_14 C17_14 1_555 1_555
H14_14 C16_14 1_555 1_555
H15_14 C13_14 1_555 1_555
C20_14 C14_14 1_555 1_555
C21_14 C20_14 1_555 1_555
C22_14 C21_14 1_555 1_555
N7_13 C22_14 1_555 1_555
C23_14 N7_13 1_555 1_555
C24_14 C20_14 1_555 1_555
H16_14 C24_14 1_555 1_555
H17_14 C23_14 1_555 1_555
H18_14 C10_14 1_555 1_555
H19_14 C6_14 1_555 1_555
H20_14 C5_14 1_555 1_555
C7_14 C10_14 1_555 1_555
C12_14 N5_8 1_555 1_555
C13_14 C14_14 1_555 1_555
C18_14 C19_14 1_555 1_555
C23_14 C24_14 1_555 1_555
C1_15 C2_15 1_555 1_555
C2_15 C3_15 1_555 1_555
C3_15 H2_15 1_555 1_555
C4_15 C1_15 1_555 1_555
N7_11 C5_15 1_555 1_555
C5_15 C6_15 1_555 1_555
C6_15 C7_15 1_555 1_555
C7_15 C8_15 1_555 1_555
C8_15 C9_15 1_555 1_555
C9_15 N7_11 1_555 1_555
C10_15 C4_15 1_555 1_555
H1_15 C2_15 1_555 1_555
H3_15 C4_15 1_555 1_555
H4_15 C22_15 1_555 1_555
H5_15 C21_15 1_555 1_555
H6_15 C8_15 1_555 1_555
H7_15 C9_15 1_555 1_555
H8_15 C14_15 1_555 1_555
C11_15 C1_15 1_555 1_555
C12_15 C11_15 1_555 1_555
N6_4 C3_15 1_555 1_555
H9_15 C12_15 1_555 1_555
H10_15 C11_15 1_555 1_555
C13_15 C4_15 1_555 1_555
C14_15 C10_15 1_555 1_555
C15_15 C13_15 1_555 1_555
C16_15 C15_15 1_555 1_555
C17_15 C16_15 1_555 1_555
N5_6 C17_15 1_555 1_555
C18_15 N5_6 1_555 1_555
C19_15 C15_15 1_555 1_555
H11_15 C19_15 1_555 1_555
H12_15 C18_15 1_555 1_555
H14_15 C16_15 1_555 1_555
H15_15 C13_15 1_555 1_555
C20_15 C14_15 1_555 1_555
C21_15 C20_15 1_555 1_555
C22_15 C21_15 1_555 1_555
N7_10 C22_15 1_555 1_555
C23_15 N7_10 1_555 1_555
C24_15 C20_15 1_555 1_555
H16_15 C24_15 1_555 1_555
H17_15 C23_15 1_555 1_555
H18_15 C10_15 1_555 1_555
H19_15 C6_15 1_555 1_555
H20_15 C5_15 1_555 1_555
C7_15 C10_15 1_555 1_555
C12_15 N6_4 1_555 1_555
C13_15 C14_15 1_555 1_555
C18_15 C19_15 1_555 1_555
C23_15 C24_15 1_555 1_555
N7_12 C5_16 1_555 1_555
C5_16 C6_16 1_555 1_555
C6_16 C7_16 1_555 1_555
C7_16 C8_16 1_555 1_555
C8_16 C9_16 1_555 1_555
C9_16 N7_12 1_555 1_555
H4_16 C22_16 1_555 1_555
H5_16 C21_16 1_555 1_555
H6_16 C8_16 1_555 1_555
H7_16 C9_16 1_555 1_555
C21_16 C20_16 1_555 1_555
C22_16 C21_16 1_555 1_555
N7_9 C22_16 1_555 1_555
C23_16 N7_9 1_555 1_555
C24_16 C20_16 1_555 1_555
H16_16 C24_16 1_555 1_555
H17_16 C23_16 1_555 1_555
H19_16 C6_16 1_555 1_555
H20_16 C5_16 1_555 1_555
C23_16 C24_16 1_555 1_555
C1_16 C2_16 1_555 1_555
C2_16 C3_16 1_555 1_555
C3_16 H2_16 1_555 1_555
C4_16 C1_16 1_555 1_555
C10_16 C4_16 1_555 1_555
H1_16 C2_16 1_555 1_555
H3_16 C4_16 1_555 1_555
C11_16 C1_16 1_555 1_555
C12_16 C11_16 1_555 1_555
N5_4 C3_16 1_555 1_555
H10_16 C11_16 1_555 1_555
C13_16 C4_16 1_555 1_555
C14_16 C10_16 1_555 1_555
C15_16 C13_16 1_555 1_555
C16_16 C15_16 1_555 1_555
C17_16 C16_16 1_555 1_555
N6_6 C17_16 1_555 1_555
C18_16 N6_6 1_555 1_555
C19_16 C15_16 1_555 1_555
H11_16 C19_16 1_555 1_555
H12_16 C18_16 1_555 1_555
H13_16 C17_16 1_555 1_555
H14_16 C16_16 1_555 1_555
H15_16 C13_16 1_555 1_555
C12_16 N5_4 1_555 1_555
C13_16 C14_16 1_555 1_555
C18_16 C19_16 1_555 1_555

#END
