
###############################################################################
#
# This file contains modified crystal structure data generated from the
# MOF subset of the Cambridge Structural Database (CSD) v543 
# hosted by the Cambridge Crystallographic Data Centre (CCDC).
#
# This work is licensed under the Creative Commons
# Attribution-NonCommercial-ShareAlike 4.0 International License.
# To view a copy of this license, visit
# http://creativecommons.org/licenses/by-nc-sa/4.0/
# or send a letter to
# Creative Commons, PO Box 1866, Mountain View, CA 94042, USA.
#
# CIF created using the CSD Python API on 29 September 2022
# The structure has been converted into the P1 space group
# The structure has a 3D framework
# The original CSD entry NIMXIS is in the monoclinic crystal system
# The framework has been calculated to contain at least 10.0% void space
# The void calculation uses a probe of radius 1.32A, grid spacing 0.4
# H atom positions have been added when not included in the experimental data
# Generated hydrogen atom positions removed from atoms on special positions
#
###############################################################################

data_NIMXIS
_chemical_formula_moiety         '(C84 H48 N8 O64 Zn17)n'
_symmetry_cell_setting           triclinic
_symmetry_space_group_name_H-M   'P 1'
_symmetry_Int_Tables_number      1
_space_group_name_Hall           'P 1'
loop_
_symmetry_equiv_pos_site_id
_symmetry_equiv_pos_as_xyz
1 x,y,z
_cell_length_a                   18.3609(8)
_cell_length_b                   18.2320(9)
_cell_length_c                   14.1621(7)
_cell_angle_alpha                90
_cell_angle_beta                 96.973(4)
_cell_angle_gamma                90
_cell_volume                     4705.78
loop_
_atom_site_label
_atom_site_type_symbol
_atom_site_fract_x
_atom_site_fract_y
_atom_site_fract_z
Zn1 Zn -0.0000 0.0000 0.5000
O37 O 0.09276(19) -0.0000 0.5837(3)
O39 O 0.05997(17) 0.08090(18) 0.4238(2)
C12 C 0.0698(4) -0.0000 0.8290(6)
C13 C 0.0374(4) 0.0000 0.9196(6)
O11 O 0.0829(2) 0.0625(2) 0.7937(3)
C15 C 0.0183(4) 0.0658(3) 0.9598(5)
Zn4 Zn 0.16584(4) 0.0000 0.49486(7)
O20 O 0.1947(3) 0.0000 0.3637(4)
C25 C 0.4600(2) 0.3582(3) 0.6076(4)
Zn6 Zn 0.10230(3) 0.08506(3) 0.66483(5)
O21 O 0.52523(15) 0.33874(16) 0.6342(2)
O22 O 0.23301(16) 0.08598(18) 0.5348(3)
C26 C 0.3388(2) 0.1968(3) 0.5292(4)
C27 C 0.3909(2) 0.2513(3) 0.5331(4)
C28 C 0.3054(3) 0.2375(3) 0.6794(5)
C29 C 0.2942(2) 0.1904(3) 0.6022(4)
C30 C 0.3588(3) 0.2895(3) 0.6820(4)
C31 C 0.4024(2) 0.2998(3) 0.6084(4)
N3 N 0.3709(3) 0.3359(4) 0.7656(5)
O23 O 0.18957(17) 0.14251(19) 0.6588(3)
C32 C 0.2344(2) 0.1345(3) 0.5969(4)
O24 O 0.4176(2) 0.3805(3) 0.7743(3)
O25 O 0.3348(6) 0.3252(6) 0.8290(6)
O26 O 0.44003(17) 0.41910(18) 0.5762(2)
Zn12 Zn 0.5000 0.5000 0.5000
Zn14 Zn 0.33416(4) 0.5000 0.50514(7)
Zn18 Zn 0.60230(3) 0.41494(3) 0.66483(5)
O34 O 0.02523(15) 0.16126(16) 0.6342(2)
H5 H 0.0320912 0.117629 0.92812
H13 H 0.168003 0.0396435 0.325863
H16 H 0.424216 0.256389 0.474847
H18 H 0.271801 0.232953 0.737429
H20 H 0.332284 0.158755 0.469491
Zn1_2 Zn -0.0000 1.0000 0.5000
O37_2 O 0.09276(19) 1.0000 0.5837(3)
O43 O 0.05997(17) 0.91910(18) 0.4238(2)
O10 O 0.0829(2) 0.9375(2) 0.7937(3)
C12_2 C 0.0698(4) 1.0000 0.8290(6)
C13_2 C 0.0374(4) 1.0000 0.9196(6)
C14 C 0.0183(4) 0.9342(3) 0.9598(5)
C17 C 0.4600(2) 0.6418(3) 0.6076(4)
Zn4_2 Zn 0.16584(4) 1.0000 0.49486(7)
Zn5 Zn 0.10230(3) 0.91494(3) 0.66483(5)
O13 O 0.52523(15) 0.66126(16) 0.6342(2)
O14 O 0.23301(16) 0.91402(18) 0.5348(3)
C18 C 0.3388(2) 0.8032(3) 0.5292(4)
C19 C 0.3909(2) 0.7487(3) 0.5331(4)
C20 C 0.3054(3) 0.7625(3) 0.6794(5)
C21 C 0.2942(2) 0.8096(3) 0.6022(4)
C22 C 0.3588(3) 0.7105(3) 0.6820(4)
C23 C 0.4024(2) 0.7002(3) 0.6084(4)
N2 N 0.3709(3) 0.6641(4) 0.7656(5)
O15 O 0.18957(17) 0.85749(19) 0.6588(3)
C24 C 0.2344(2) 0.8655(3) 0.5969(4)
O17 O 0.4176(2) 0.6195(3) 0.7743(3)
O18 O 0.3348(6) 0.6748(6) 0.8290(6)
O19 O 0.44003(17) 0.58090(18) 0.5762(2)
O20_2 O 0.1947(3) 1.0000 0.3637(4)
Zn19 Zn 0.60230(3) 0.58506(3) 0.66483(5)
O35 O 0.02523(15) 0.83874(16) 0.6342(2)
H6 H 0.0320912 0.882371 0.92812
H10 H 0.332284 0.841245 0.469491
H11 H 0.271801 0.767047 0.737429
H12 H 0.182113 0.951914 0.333054
H14 H 0.424216 0.743611 0.474847
Zn1_3 Zn 1.0000 0.0000 0.5000
Zn2 Zn 0.83416(4) 0.0000 0.50514(7)
C8 C 0.9302(4) 0.0000 0.1710(6)
C9 C 0.9626(4) 0.0000 0.0804(6)
O5 O 0.90724(19) 0.0000 0.4163(3)
O9 O 0.8053(3) 0.0000 0.6363(4)
O12 O 0.9171(2) 0.0625(2) 0.2063(3)
C16 C 0.9817(4) 0.0658(3) 0.0402(5)
C33 C 0.5400(2) 0.3582(3) 0.3924(4)
Zn7 Zn 0.89770(3) 0.08506(3) 0.33517(5)
O27 O 0.47477(15) 0.33874(16) 0.3658(2)
O28 O 0.76699(16) 0.08598(18) 0.4652(3)
C34 C 0.6612(2) 0.1968(3) 0.4708(4)
C35 C 0.6091(2) 0.2513(3) 0.4669(4)
C36 C 0.6946(3) 0.2375(3) 0.3206(5)
C37 C 0.7058(2) 0.1904(3) 0.3978(4)
C38 C 0.6412(3) 0.2895(3) 0.3180(4)
C39 C 0.5976(2) 0.2998(3) 0.3916(4)
N4 N 0.6291(3) 0.3359(4) 0.2344(5)
O29 O 0.81043(17) 0.14251(19) 0.3412(3)
C40 C 0.7656(2) 0.1345(3) 0.4031(4)
O30 O 0.5824(2) 0.3805(3) 0.2257(3)
O31 O 0.6652(6) 0.3252(6) 0.1710(6)
O32 O 0.55997(17) 0.41910(18) 0.4238(2)
Zn16 Zn 0.66584(4) 0.5000 0.49486(7)
Zn17 Zn 0.39770(3) 0.41494(3) 0.33517(5)
O33 O 0.97477(15) 0.16126(16) 0.3658(2)
O40 O 0.94003(17) 0.08090(18) 0.5762(2)
H8 H 0.831997 0.0396435 0.674137
H9 H 0.967909 0.117629 0.0718796
H15 H 0.575784 0.256389 0.525153
H17 H 0.728199 0.232953 0.262571
H19 H 0.667716 0.158755 0.530509
C1 C 0.5400(2) 0.6418(3) 0.3924(4)
Zn1_4 Zn 1.0000 1.0000 0.5000
Zn2_2 Zn 0.83416(4) 1.0000 0.50514(7)
Zn3 Zn 0.89770(3) 0.91494(3) 0.33517(5)
O1 O 0.47477(15) 0.66126(16) 0.3658(2)
O2 O 0.76699(16) 0.91402(18) 0.4652(3)
C2 C 0.6612(2) 0.8032(3) 0.4708(4)
C3 C 0.6091(2) 0.7487(3) 0.4669(4)
C4 C 0.6946(3) 0.7625(3) 0.3206(5)
C5 C 0.7058(2) 0.8096(3) 0.3978(4)
C6 C 0.6412(3) 0.7105(3) 0.3180(4)
C7 C 0.5976(2) 0.7002(3) 0.3916(4)
N1 N 0.6291(3) 0.6641(4) 0.2344(5)
O3 O 0.9171(2) 0.9375(2) 0.2063(3)
C8_2 C 0.9302(4) 1.0000 0.1710(6)
C9_2 C 0.9626(4) 1.0000 0.0804(6)
C10 C 0.9817(4) 0.9342(3) 0.0402(5)
O4 O 0.81043(17) 0.85749(19) 0.3412(3)
C11 C 0.7656(2) 0.8655(3) 0.4031(4)
O5_2 O 0.90724(19) 1.0000 0.4163(3)
O6 O 0.5824(2) 0.6195(3) 0.2257(3)
O7 O 0.6652(6) 0.6748(6) 0.1710(6)
O8 O 0.55997(17) 0.58090(18) 0.4238(2)
O9_2 O 0.8053(3) 1.0000 0.6363(4)
Zn20 Zn 0.39770(3) 0.58506(3) 0.33517(5)
O36 O 0.97477(15) 0.83874(16) 0.3658(2)
O41 O 0.94003(17) 0.91910(18) 0.5762(2)
H1 H 0.967909 0.882371 0.0718796
H2 H 0.667716 0.841245 0.530509
H3 H 0.575784 0.743611 0.525153
H4 H 0.728199 0.767047 0.262571
H7 H 0.817887 0.951914 0.666946
C1_2 C 0.0400(2) 0.1418(3) 0.3924(4)
O2_2 O 0.26699(16) 0.41402(18) 0.4652(3)
C2_2 C 0.1612(2) 0.3032(3) 0.4708(4)
C3_2 C 0.1091(2) 0.2487(3) 0.4669(4)
C4_2 C 0.1946(3) 0.2625(3) 0.3206(5)
C5_2 C 0.2058(2) 0.3096(3) 0.3978(4)
C6_2 C 0.1412(3) 0.2105(3) 0.3180(4)
C7_2 C 0.0976(2) 0.2002(3) 0.3916(4)
N1_2 N 0.1291(3) 0.1641(4) 0.2344(5)
O3_2 O 0.4171(2) 0.4375(2) 0.2063(3)
C8_3 C 0.4302(4) 0.5000 0.1710(6)
C9_3 C 0.4626(4) 0.5000 0.0804(6)
C10_2 C 0.4817(4) 0.4342(3) 0.0402(5)
O4_2 O 0.31043(17) 0.35749(19) 0.3412(3)
C11_2 C 0.2656(2) 0.3655(3) 0.4031(4)
O5_3 O 0.40724(19) 0.5000 0.4163(3)
O6_2 O 0.0824(2) 0.1195(3) 0.2257(3)
O7_2 O 0.1652(6) 0.1748(6) 0.1710(6)
O9_3 O 0.3053(3) 0.5000 0.6363(4)
O12_2 O 0.4171(2) 0.5625(2) 0.2063(3)
C16_2 C 0.4817(4) 0.5658(3) 0.0402(5)
C33_2 C 0.0400(2) 0.8582(3) 0.3924(4)
O28_2 O 0.26699(16) 0.58598(18) 0.4652(3)
C34_2 C 0.1612(2) 0.6968(3) 0.4708(4)
C35_2 C 0.1091(2) 0.7513(3) 0.4669(4)
C36_2 C 0.1946(3) 0.7375(3) 0.3206(5)
C37_2 C 0.2058(2) 0.6904(3) 0.3978(4)
C38_2 C 0.1412(3) 0.7895(3) 0.3180(4)
C39_2 C 0.0976(2) 0.7998(3) 0.3916(4)
N4_2 N 0.1291(3) 0.8359(4) 0.2344(5)
O29_2 O 0.31043(17) 0.64251(19) 0.3412(3)
C40_2 C 0.2656(2) 0.6345(3) 0.4031(4)
O30_2 O 0.0824(2) 0.8805(3) 0.2257(3)
O31_2 O 0.1652(6) 0.8252(6) 0.1710(6)
O37_3 O 0.59276(19) 0.5000 0.5837(3)
H1_2 H 0.467909 0.382371 0.0718796
H2_2 H 0.167716 0.341245 0.530509
H3_2 H 0.0757842 0.243611 0.525153
H4_2 H 0.228199 0.267047 0.262571
H9_2 H 0.467909 0.617629 0.0718796
H15_2 H 0.0757842 0.756389 0.525153
H17_2 H 0.228199 0.732953 0.262571
H19_2 H 0.167716 0.658755 0.530509
O10_2 O 0.5829(2) 0.4375(2) 0.7937(3)
C12_3 C 0.5698(4) 0.5000 0.8290(6)
C13_3 C 0.5374(4) 0.5000 0.9196(6)
C14_2 C 0.5183(4) 0.4342(3) 0.9598(5)
O11_2 O 0.5829(2) 0.5625(2) 0.7937(3)
C15_2 C 0.5183(4) 0.5658(3) 0.9598(5)
C17_2 C 0.9600(2) 0.1418(3) 0.6076(4)
O14_2 O 0.73301(16) 0.41402(18) 0.5348(3)
C18_2 C 0.8388(2) 0.3032(3) 0.5292(4)
C19_2 C 0.8909(2) 0.2487(3) 0.5331(4)
C20_2 C 0.8054(3) 0.2625(3) 0.6794(5)
C21_2 C 0.7942(2) 0.3096(3) 0.6022(4)
C22_2 C 0.8588(3) 0.2105(3) 0.6820(4)
C23_2 C 0.9024(2) 0.2002(3) 0.6084(4)
N2_2 N 0.8709(3) 0.1641(4) 0.7656(5)
O15_2 O 0.68957(17) 0.35749(19) 0.6588(3)
C24_2 C 0.7344(2) 0.3655(3) 0.5969(4)
O17_2 O 0.9176(2) 0.1195(3) 0.7743(3)
O18_2 O 0.8348(6) 0.1748(6) 0.8290(6)
O20_3 O 0.6947(3) 0.5000 0.3637(4)
C25_2 C 0.9600(2) 0.8582(3) 0.6076(4)
O22_2 O 0.73301(16) 0.58598(18) 0.5348(3)
C26_2 C 0.8388(2) 0.6968(3) 0.5292(4)
C27_2 C 0.8909(2) 0.7513(3) 0.5331(4)
C28_2 C 0.8054(3) 0.7375(3) 0.6794(5)
C29_2 C 0.7942(2) 0.6904(3) 0.6022(4)
C30_2 C 0.8588(3) 0.7895(3) 0.6820(4)
C31_2 C 0.9024(2) 0.7998(3) 0.6084(4)
N3_2 N 0.8709(3) 0.8359(4) 0.7656(5)
O23_2 O 0.68957(17) 0.64251(19) 0.6588(3)
C32_2 C 0.7344(2) 0.6345(3) 0.5969(4)
O24_2 O 0.9176(2) 0.8805(3) 0.7743(3)
O25_2 O 0.8348(6) 0.8252(6) 0.8290(6)
H5_2 H 0.532091 0.617629 0.92812
H6_2 H 0.532091 0.382371 0.92812
H10_2 H 0.832284 0.341245 0.469491
H11_2 H 0.771801 0.267047 0.737429
H14_2 H 0.924216 0.243611 0.474847
H16_2 H 0.924216 0.756389 0.474847
H18_2 H 0.771801 0.732953 0.737429
H20_2 H 0.832284 0.658755 0.469491
H7_2 H 0.182113 0.0480865 0.333054
H8_2 H 0.168003 0.960356 0.325863
H12_2 H 0.817887 0.0480865 0.666946
H13_2 H 0.831997 0.960356 0.674137
loop_
_geom_bond_atom_site_label_1
_geom_bond_atom_site_label_2
_geom_bond_site_symmetry_1
_geom_bond_site_symmetry_2
O37 Zn1 1_555 1_555
O39 Zn1 1_555 1_555
C12 C13 1_555 1_555
O11 C12 1_555 1_555
C15 C13 1_555 1_555
O37 Zn4 1_555 1_555
O20 Zn4 1_555 1_555
C25 O21 1_555 1_555
Zn6 O11 1_555 1_555
O21 Zn18 1_555 1_555
O22 Zn4 1_555 1_555
C26 C27 1_555 1_555
C27 C31 1_555 1_555
C28 C29 1_555 1_555
C29 C26 1_555 1_555
C30 C28 1_555 1_555
C31 C25 1_555 1_555
N3 C30 1_555 1_555
O23 Zn6 1_555 1_555
C32 O22 1_555 1_555
O24 N3 1_555 1_555
O25 N3 1_555 1_555
O26 C25 1_555 1_555
Zn12 O26 1_555 1_555
Zn14 O26 1_555 1_555
O34 Zn6 1_555 1_555
O39 Zn4 1_555 1_555
O37 Zn6 1_555 1_555
C29 C32 1_555 1_555
C30 C31 1_555 1_555
O23 C32 1_555 1_555
C15 H5 1_555 1_555
O20 H13 1_555 1_555
C27 H16 1_555 1_555
C28 H18 1_555 1_555
C26 H20 1_555 1_555
O37_2 Zn1_2 1_555 1_555
O43 Zn1_2 1_555 1_555
O10 C12_2 1_555 1_555
C12_2 C13_2 1_555 1_555
C13_2 C14 1_555 1_555
C17 O13 1_555 1_555
Zn4_2 O14 1_555 1_555
Zn5 O10 1_555 1_555
O13 Zn19 1_555 1_555
O14 C24 1_555 1_555
C18 C19 1_555 1_555
C19 C23 1_555 1_555
C20 C21 1_555 1_555
C21 C18 1_555 1_555
C22 C20 1_555 1_555
C23 C17 1_555 1_555
N2 C22 1_555 1_555
O15 Zn5 1_555 1_555
C24 C21 1_555 1_555
O37_2 Zn4_2 1_555 1_555
O17 N2 1_555 1_555
O18 N2 1_555 1_555
O19 C17 1_555 1_555
O20_2 Zn4_2 1_555 1_555
Zn12 O19 1_555 1_555
Zn14 O19 1_555 1_555
O35 Zn5 1_555 1_555
O43 Zn4_2 1_555 1_555
Zn5 O37_2 1_555 1_555
C22 C23 1_555 1_555
O15 C24 1_555 1_555
C14 H6 1_555 1_555
C18 H10 1_555 1_555
C20 H11 1_555 1_555
O20_2 H12 1_555 1_555
C19 H14 1_555 1_555
Zn1_3 O5 1_555 1_555
C8 C9 1_555 1_555
O5 Zn2 1_555 1_555
O9 Zn2 1_555 1_555
O12 C8 1_555 1_555
C16 C9 1_555 1_555
C33 O27 1_555 1_555
Zn7 O5 1_555 1_555
O27 Zn17 1_555 1_555
O28 Zn2 1_555 1_555
C34 C35 1_555 1_555
C35 C39 1_555 1_555
C36 C37 1_555 1_555
C37 C34 1_555 1_555
C38 C36 1_555 1_555
C39 C33 1_555 1_555
N4 C38 1_555 1_555
O29 Zn7 1_555 1_555
C40 O28 1_555 1_555
O30 N4 1_555 1_555
O31 N4 1_555 1_555
O32 C33 1_555 1_555
Zn12 O32 1_555 1_555
Zn16 O32 1_555 1_555
O33 Zn7 1_555 1_555
O40 Zn1_3 1_555 1_555
Zn2 O40 1_555 1_555
O12 Zn7 1_555 1_555
C37 C40 1_555 1_555
C38 C39 1_555 1_555
O29 C40 1_555 1_555
O9 H8 1_555 1_555
C16 H9 1_555 1_555
C35 H15 1_555 1_555
C36 H17 1_555 1_555
C34 H19 1_555 1_555
C1 O1 1_555 1_555
Zn1_4 O5_2 1_555 1_555
Zn2_2 O2 1_555 1_555
Zn3 O3 1_555 1_555
O1 Zn20 1_555 1_555
O2 C11 1_555 1_555
C2 C3 1_555 1_555
C3 C7 1_555 1_555
C4 C5 1_555 1_555
C5 C2 1_555 1_555
C6 C4 1_555 1_555
C7 C1 1_555 1_555
N1 C6 1_555 1_555
O3 C8_2 1_555 1_555
C8_2 C9_2 1_555 1_555
C9_2 C10 1_555 1_555
O4 Zn3 1_555 1_555
C11 C5 1_555 1_555
O5_2 Zn2_2 1_555 1_555
O6 N1 1_555 1_555
O7 N1 1_555 1_555
O8 C1 1_555 1_555
O9_2 Zn2_2 1_555 1_555
Zn12 O8 1_555 1_555
Zn16 O8 1_555 1_555
O36 Zn3 1_555 1_555
O41 Zn1_4 1_555 1_555
Zn2_2 O41 1_555 1_555
Zn3 O5_2 1_555 1_555
C6 C7 1_555 1_555
O4 C11 1_555 1_555
C10 H1 1_555 1_555
C2 H2 1_555 1_555
C3 H3 1_555 1_555
C4 H4 1_555 1_555
O9_2 H7 1_555 1_555
Zn12 O5_3 1_555 1_555
Zn14 O2_2 1_555 1_555
Zn17 O3_2 1_555 1_555
O2_2 C11_2 1_555 1_555
C2_2 C3_2 1_555 1_555
C3_2 C7_2 1_555 1_555
C4_2 C5_2 1_555 1_555
C5_2 C2_2 1_555 1_555
C6_2 C4_2 1_555 1_555
C7_2 C1_2 1_555 1_555
N1_2 C6_2 1_555 1_555
O3_2 C8_3 1_555 1_555
C8_3 C9_3 1_555 1_555
C9_3 C10_2 1_555 1_555
O4_2 Zn17 1_555 1_555
C11_2 C5_2 1_555 1_555
O5_3 Zn14 1_555 1_555
O6_2 N1_2 1_555 1_555
O7_2 N1_2 1_555 1_555
O39 C1_2 1_555 1_555
O9_3 Zn14 1_555 1_555
O12_2 C8_3 1_555 1_555
C16_2 C9_3 1_555 1_555
Zn20 O5_3 1_555 1_555
O28_2 Zn14 1_555 1_555
C34_2 C35_2 1_555 1_555
C35_2 C39_2 1_555 1_555
C36_2 C37_2 1_555 1_555
C37_2 C34_2 1_555 1_555
C38_2 C36_2 1_555 1_555
C39_2 C33_2 1_555 1_555
N4_2 C38_2 1_555 1_555
O29_2 Zn20 1_555 1_555
C40_2 O28_2 1_555 1_555
O30_2 N4_2 1_555 1_555
O31_2 N4_2 1_555 1_555
O43 C33_2 1_555 1_555
O37_3 Zn12 1_555 1_555
Zn17 O5_3 1_555 1_555
C6_2 C7_2 1_555 1_555
O4_2 C11_2 1_555 1_555
O12_2 Zn20 1_555 1_555
C37_2 C40_2 1_555 1_555
C38_2 C39_2 1_555 1_555
O29_2 C40_2 1_555 1_555
C10_2 H1_2 1_555 1_555
C2_2 H2_2 1_555 1_555
C3_2 H3_2 1_555 1_555
C4_2 H4_2 1_555 1_555
C16_2 H9_2 1_555 1_555
C35_2 H15_2 1_555 1_555
C36_2 H17_2 1_555 1_555
C34_2 H19_2 1_555 1_555
O10_2 C12_3 1_555 1_555
C12_3 C13_3 1_555 1_555
C13_3 C14_2 1_555 1_555
O11_2 C12_3 1_555 1_555
C15_2 C13_3 1_555 1_555
Zn16 O14_2 1_555 1_555
Zn18 O10_2 1_555 1_555
O14_2 C24_2 1_555 1_555
C18_2 C19_2 1_555 1_555
C19_2 C23_2 1_555 1_555
C20_2 C21_2 1_555 1_555
C21_2 C18_2 1_555 1_555
C22_2 C20_2 1_555 1_555
C23_2 C17_2 1_555 1_555
N2_2 C22_2 1_555 1_555
O15_2 Zn18 1_555 1_555
C24_2 C21_2 1_555 1_555
O37_3 Zn16 1_555 1_555
O17_2 N2_2 1_555 1_555
O18_2 N2_2 1_555 1_555
O40 C17_2 1_555 1_555
O20_3 Zn16 1_555 1_555
Zn19 O11_2 1_555 1_555
O22_2 Zn16 1_555 1_555
C26_2 C27_2 1_555 1_555
C27_2 C31_2 1_555 1_555
C28_2 C29_2 1_555 1_555
C29_2 C26_2 1_555 1_555
C30_2 C28_2 1_555 1_555
C31_2 C25_2 1_555 1_555
N3_2 C30_2 1_555 1_555
O23_2 Zn19 1_555 1_555
C32_2 O22_2 1_555 1_555
O24_2 N3_2 1_555 1_555
O25_2 N3_2 1_555 1_555
O41 C25_2 1_555 1_555
Zn18 O37_3 1_555 1_555
C22_2 C23_2 1_555 1_555
O15_2 C24_2 1_555 1_555
O37_3 Zn19 1_555 1_555
C29_2 C32_2 1_555 1_555
C30_2 C31_2 1_555 1_555
O23_2 C32_2 1_555 1_555
C15_2 H5_2 1_555 1_555
C14_2 H6_2 1_555 1_555
C18_2 H10_2 1_555 1_555
C20_2 H11_2 1_555 1_555
C19_2 H14_2 1_555 1_555
C27_2 H16_2 1_555 1_555
C28_2 H18_2 1_555 1_555
C26_2 H20_2 1_555 1_555
O20 H7_2 1_555 1_555
O20_2 H8_2 1_555 1_555
O9 H12_2 1_555 1_555
O9_2 H13_2 1_555 1_555

#END
