
###############################################################################
#
# This file contains modified crystal structure data generated from the
# MOF subset of the Cambridge Structural Database (CSD) v543 
# hosted by the Cambridge Crystallographic Data Centre (CCDC).
#
# This work is licensed under the Creative Commons
# Attribution-NonCommercial-ShareAlike 4.0 International License.
# To view a copy of this license, visit
# http://creativecommons.org/licenses/by-nc-sa/4.0/
# or send a letter to
# Creative Commons, PO Box 1866, Mountain View, CA 94042, USA.
#
# CIF created using the CSD Python API on 29 September 2022
# The structure has been converted into the P1 space group
# The structure has a 3D framework
# The original CSD entry NINDIA is in the monoclinic crystal system
# The framework has been calculated to contain at least 10.0% void space
# The void calculation uses a probe of radius 1.32A, grid spacing 0.4
# H atom positions have been added when not included in the experimental data
#
###############################################################################

data_NINDIA
_chemical_formula_moiety         '(C300 H324 Mn8 N4 O80)n'
_symmetry_cell_setting           triclinic
_symmetry_space_group_name_H-M   'P 1'
_symmetry_Int_Tables_number      1
_space_group_name_Hall           'P 1'
loop_
_symmetry_equiv_pos_site_id
_symmetry_equiv_pos_as_xyz
1 x,y,z
_cell_length_a                   22.6740(7)
_cell_length_b                   23.9660(7)
_cell_length_c                   16.3470(6)
_cell_angle_alpha                90
_cell_angle_beta                 106.301(3)
_cell_angle_gamma                90
_cell_volume                     8525.95
loop_
_atom_site_label
_atom_site_type_symbol
_atom_site_fract_x
_atom_site_fract_y
_atom_site_fract_z
H81 H 0.378712 0.0329673 0.173921
C33 C 0.4679(2) 0.0020(2) 0.7042(3)
H39 H 0.0827 0.0041 0.8204
O7 O 0.5102(2) 0.0139(2) 0.7695(3)
O8 O 0.46014(18) 0.02310(15) 0.6328(2)
Mn4 Mn 0.50103(3) 0.09428(3) 0.59669(4)
Mn6 Mn 0.57905(3) 0.07462(3) 0.81130(4)
Mn2 Mn 0.42095(3) 0.92538(3) 0.18870(4)
H6 H 0.0559 0.7705 0.0146
C10 C 0.1681(2) 0.8012(2) 0.0690(3)
H8 H 0.1541 0.7827 0.1099
C11 C 0.2279(2) 0.8217(2) 0.0901(3)
H9 H 0.2533 0.8173 0.1453
C12 C 0.2498(2) 0.84818(17) 0.0304(3)
C15 C 0.3143(2) 0.87130(19) 0.0525(3)
O3 O 0.34578(16) 0.87081(15) 0.1293(2)
O18 O 0.3562(3) 0.9978(2) 0.1536(4)
O19 O 0.4437(2) 0.9240(3) 0.0661(3)
O21 O 0.4898(2) 0.9861(2) 0.2305(3)
O25 O 0.40025(14) 0.91826(13) 0.3106(2)
O26 O 0.48470(19) 0.86150(19) 0.2511(3)
H76 H 0.408452 0.938768 0.0204518
H77 H 0.48048 0.947547 0.0703881
H80 H 0.322361 0.993243 0.180623
H40 H 0.8972 0.0271 0.7051
C45 C 0.8058(2) 0.0092(3) 0.6814(4)
C47 C 0.7005(3) 0.0023(5) 0.6000(5)
C48 C 0.6828(2) 0.0370(2) 0.6529(3)
C49 C 0.7271(2) 0.0609(2) 0.7173(4)
H44 H 0.7159 0.0871 0.7522
C50 C 0.7880(2) 0.0471(2) 0.7318(4)
H45 H 0.8173 0.0638 0.7766
C51 C 0.6168(2) 0.0528(2) 0.6356(3)
O11 O 0.57894(14) 0.03958(16) 0.5661(2)
O12 O 0.59975(14) 0.08174(13) 0.6894(2)
Mn1 Mn 0.49897(3) 0.59428(3) 0.90331(4)
C1 C 0.93937(18) 0.71956(17) 0.7008(2)
H1 H 0.9379 0.7040 0.6482
C2 C 0.99549(17) 0.72080(16) 0.7622(2)
C3 C 0.99727(18) 0.74735(18) 0.8381(2)
C4 C 0.9443(2) 0.7682(2) 0.8540(3)
H2 H 0.9461 0.7847 0.9061
C5 C 0.88863(19) 0.7639(2) 0.7911(3)
C6 C 0.88504(18) 0.74009(18) 0.7126(3)
C7 C 0.8246(4) 0.7723(5) 0.8804(6)
H3 H 0.7859 0.7883 0.8815
H4 H 0.8569 0.7881 0.9255
H5 H 0.8234 0.7327 0.8879
H16 H 0.9674 0.6114 0.6920
C39 C 0.98913(18) 0.94867(18) 0.7074(3)
H35 H 0.9857 0.9680 0.7551
C40 C 0.93780(17) 0.94012(17) 0.6383(3)
C41 C 0.94139(18) 0.91039(15) 0.5663(3)
C42 C 0.99891(18) 0.88959(16) 0.5676(3)
C44 C 0.8724(3) 0.9937(4) 0.7003(4)
H41 H 0.8853 0.9737 0.7540
C46 C 0.7619(3) 0.9889(5) 0.6137(6)
H42 H 0.7733 0.9654 0.5755
H43 H 0.6713 0.9871 0.5536
C52 C 0.88364(18) 0.90374(17) 0.4923(3)
H46 H 0.8645 0.9407 0.4832
C53 C 0.8959(2) 0.8879(2) 0.4078(3)
H47 H 0.8572 0.8786 0.3665
H48 H 0.9219 0.8551 0.4163
C54 C 0.9272(3) 0.9352(3) 0.3718(4)
H49 H 0.9342 0.9234 0.3193
H50 H 0.9657 0.9443 0.4121
H51 H 0.9011 0.9676 0.3617
C55 C 0.83631(17) 0.86535(16) 0.5117(2)
C56 C 0.85182(17) 0.82025(17) 0.5677(2)
H52 H 0.8932 0.8134 0.5941
C57 C 0.80811(17) 0.78498(17) 0.5859(2)
C58 C 0.74628(18) 0.79767(18) 0.5468(3)
C59 C 0.72892(19) 0.84106(19) 0.4900(3)
H53 H 0.6876 0.8478 0.4636
C60 C 0.77363(19) 0.87463(18) 0.4726(3)
C61 C 0.6969(3) 0.9352(3) 0.3867(6)
H54 H 0.6935 0.9665 0.3491
H55 H 0.6815 0.9453 0.4337
H56 H 0.6733 0.9045 0.3563
C62 C 0.6464(2) 0.7885(3) 0.5686(4)
H57 H 0.6189 0.7902 0.5113
H58 H 0.6529 0.8260 0.5914
C63 C 0.6194(2) 0.7520(2) 0.6244(4)
C64 C 0.6500(2) 0.7434(3) 0.7092(4)
H59 H 0.6889 0.7588 0.7315
C65 C 0.6244(2) 0.7126(2) 0.7615(4)
H60 H 0.6460 0.7075 0.8184
C66 C 0.5675(2) 0.6893(2) 0.7301(3)
C67 C 0.5376(3) 0.6966(3) 0.6441(4)
H61 H 0.4998 0.6796 0.6207
C68 C 0.5632(3) 0.7286(3) 0.5929(4)
H62 H 0.5416 0.7342 0.5361
C69 C 0.5374(2) 0.6566(2) 0.7860(4)
C70 C 0.82341(18) 0.73527(19) 0.6448(3)
H63 H 0.7920 0.7342 0.6756
C71 C 0.8167(2) 0.6811(2) 0.5942(3)
H64 H 0.8494 0.6787 0.5668
H65 H 0.7779 0.6816 0.5498
C72 C 0.8189(4) 0.6294(3) 0.6505(5)
H66 H 0.8152 0.5964 0.6163
H67 H 0.7856 0.6309 0.6760
H68 H 0.8572 0.6287 0.6945
C75 C 0.3976(4) 0.7657(3) 0.9595(6)
H73 H 0.3757 0.7949 0.9785
H74 H 0.3738 0.7526 0.9047
H75 H 0.4363 0.7798 0.9552
O1 O 0.83503(16) 0.78359(19) 0.8045(2)
O10 O 0.88049(13) 0.96032(14) 0.6352(2)
O13 O 0.75967(15) 0.91906(14) 0.4180(2)
O14 O 0.70379(13) 0.76360(14) 0.5680(2)
O15 O 0.48470(19) 0.63850(19) 0.7511(3)
O16 O 0.5637(2) 0.64964(17) 0.8627(3)
O17 O 0.45839(18) 0.66780(15) 0.9451(2)
Mn7 Mn 0.42095(3) 0.57462(3) 0.68870(4)
O22 O 0.53986(18) 0.52310(15) 0.8672(2)
O23 O 0.42106(14) 0.53958(16) 0.9339(2)
O24 O 0.40025(14) 0.58174(13) 0.8106(2)
C1_2 C 0.06063(18) 0.21956(17) 0.7992(2)
H1_2 H 0.0621 0.2040 0.8518
C2_2 C 0.00451(17) 0.22080(16) 0.7378(2)
C3_2 C 0.00273(18) 0.24735(18) 0.6619(2)
C4_2 C 0.0557(2) 0.2682(2) 0.6460(3)
H2_2 H 0.0539 0.2847 0.5939
C5_2 C 0.11137(19) 0.2639(2) 0.7089(3)
C6_2 C 0.11496(18) 0.24009(18) 0.7874(3)
C7_2 C 0.1754(4) 0.2723(5) 0.6196(6)
H3_2 H 0.2141 0.2883 0.6185
H4_2 H 0.1431 0.2881 0.5745
H5_2 H 0.1766 0.2327 0.6121
H16_2 H 0.0326 0.1114 0.8080
C39_2 C 0.01087(18) 0.44867(18) 0.7926(3)
H35_2 H 0.0143 0.4680 0.7449
C40_2 C 0.06220(17) 0.44012(17) 0.8617(3)
C41_2 C 0.05861(18) 0.41039(15) 0.9337(3)
C42_2 C 0.00109(18) 0.38959(16) 0.9324(3)
C44_2 C 0.1276(3) 0.4937(4) 0.7997(4)
H40_2 H 0.1028 0.5271 0.7949
H41_2 H 0.1147 0.4737 0.7460
C45_2 C 0.1942(2) 0.5092(3) 0.8186(4)
C46_2 C 0.2381(3) 0.4889(5) 0.8863(6)
H42_2 H 0.2267 0.4654 0.9245
C47_2 C 0.2995(3) 0.5023(5) 0.9000(5)
H43_2 H 0.3287 0.4871 0.9464
C48_2 C 0.3172(2) 0.5370(2) 0.8471(3)
C49_2 C 0.2729(2) 0.5609(2) 0.7827(4)
H44_2 H 0.2841 0.5871 0.7478
C50_2 C 0.2120(2) 0.5471(2) 0.7682(4)
H45_2 H 0.1827 0.5638 0.7234
C51_2 C 0.3832(2) 0.5528(2) 0.8644(3)
C55_2 C 0.16369(17) 0.36535(16) 0.9883(2)
C56_2 C 0.14818(17) 0.32025(17) 0.9323(2)
H52_2 H 0.1068 0.3134 0.9059
C57_2 C 0.19189(17) 0.28498(17) 0.9141(2)
C58_2 C 0.25372(18) 0.29767(18) 0.9532(3)
C62_2 C 0.3536(2) 0.2885(3) 0.9314(4)
H57_2 H 0.3811 0.2902 0.9887
H58_2 H 0.3471 0.3260 0.9086
C63_2 C 0.3806(2) 0.2520(2) 0.8756(4)
C64_2 C 0.3500(2) 0.2434(3) 0.7908(4)
H59_2 H 0.3111 0.2588 0.7685
C65_2 C 0.3756(2) 0.2126(2) 0.7385(4)
H60_2 H 0.3540 0.2075 0.6816
C66_2 C 0.4325(2) 0.1893(2) 0.7699(3)
C67_2 C 0.4624(3) 0.1966(3) 0.8559(4)
H61_2 H 0.5002 0.1796 0.8793
C68_2 C 0.4368(3) 0.2286(3) 0.9071(4)
H62_2 H 0.4584 0.2342 0.9639
C69_2 C 0.4626(2) 0.1566(2) 0.7140(4)
C70_2 C 0.17659(18) 0.23527(19) 0.8552(3)
H63_2 H 0.2080 0.2342 0.8244
C71_2 C 0.1833(2) 0.1811(2) 0.9058(3)
H64_2 H 0.1506 0.1787 0.9332
H65_2 H 0.2221 0.1816 0.9502
C72_2 C 0.1811(4) 0.1294(3) 0.8495(5)
H66_2 H 0.1848 0.0964 0.8837
H67_2 H 0.2144 0.1309 0.8240
H68_2 H 0.1428 0.1287 0.8055
C73 C 0.5616(3) 0.1746(3) 0.4944(4)
H69 H 0.5557 0.1460 0.4544
C74 C 0.6135(5) 0.2257(5) 0.4039(7)
H70 H 0.6339 0.2610 0.4050
H71 H 0.5791 0.2237 0.3539
H72 H 0.6417 0.1960 0.4029
C75_2 C 0.6024(4) 0.2657(3) 0.5405(6)
H73_2 H 0.6243 0.2949 0.5215
H74_2 H 0.6262 0.2526 0.5953
H75_2 H 0.5637 0.2798 0.5448
O1_2 O 0.16497(16) 0.28359(19) 0.6955(2)
O10_2 O 0.11951(13) 0.46032(14) 0.8648(2)
O14_2 O 0.29621(13) 0.26360(14) 0.9320(2)
O15_2 O 0.51530(19) 0.13850(19) 0.7489(3)
O16_2 O 0.4363(2) 0.14964(17) 0.6373(3)
O17_2 O 0.54161(18) 0.16780(15) 0.5549(2)
O20 O 0.44429(17) 0.07548(15) 0.4681(2)
N1 N 0.5917(3) 0.2205(2) 0.4806(4)
H78 H 0.434213 0.110642 0.434979
H79 H 0.467101 0.0501814 0.439669
Mn2_2 Mn 0.57905(3) 0.42538(3) 0.31130(4)
C8 C 0.9359(2) 0.2886(2) 0.5341(3)
H6_2 H 0.9441 0.2705 0.4854
H7 H 0.9635 0.3203 0.5501
C9 C 0.8702(2) 0.30800(19) 0.5118(3)
C10_2 C 0.8319(2) 0.3012(2) 0.4310(3)
H8_2 H 0.8459 0.2827 0.3901
C11_2 C 0.7721(2) 0.3217(2) 0.4099(3)
H9_2 H 0.7467 0.3173 0.3547
C12_2 C 0.7502(2) 0.34818(17) 0.4696(3)
C13 C 0.7884(2) 0.3543(2) 0.5518(3)
H10 H 0.7741 0.3720 0.5931
C14 C 0.8478(2) 0.3339(2) 0.5723(3)
H11 H 0.8731 0.3377 0.6277
C15_2 C 0.6857(2) 0.37130(19) 0.4475(3)
C16 C 0.94653(18) 0.19407(16) 0.7478(3)
H12 H 0.9288 0.1728 0.6954
C17 C 0.9563(2) 0.15186(19) 0.8222(3)
H13 H 0.9776 0.1705 0.8748
H14 H 0.9165 0.1401 0.8270
C18 C 0.9928(3) 0.1004(2) 0.8119(5)
H15 H 0.9974 0.0763 0.8602
H17 H 0.9714 0.0808 0.7609
C19 C 0.89836(17) 0.23605(15) 0.7542(2)
C20 C 0.83598(18) 0.22561(16) 0.7135(3)
C21 C 0.79080(18) 0.26272(17) 0.7225(3)
H18 H 0.7496 0.2553 0.6959
C22 C 0.80701(17) 0.31044(16) 0.7708(3)
C23 C 0.86883(17) 0.32326(15) 0.8114(2)
C24 C 0.91249(16) 0.28469(15) 0.8013(2)
H19 H 0.9537 0.2922 0.8279
C25 C 0.7670(3) 0.1751(3) 0.6023(4)
H20 H 0.7634 0.1393 0.5749
H21 H 0.7663 0.2039 0.5612
H22 H 0.7334 0.1803 0.6264
C26 C 0.7020(2) 0.3371(2) 0.7390(5)
H23 H 0.6908 0.3015 0.7584
H24 H 0.6966 0.3346 0.6781
C27 C 0.6609(2) 0.3820(2) 0.7566(4)
C28 C 0.6168(3) 0.4036(3) 0.6902(4)
H25 H 0.6143 0.3922 0.6349
C29 C 0.5764(3) 0.4415(2) 0.7036(4)
H26 H 0.5470 0.4564 0.6571
C30 C 0.57762(19) 0.45902(18) 0.7853(3)
C31 C 0.6211(2) 0.4380(2) 0.8533(4)
H27 H 0.6225 0.4490 0.9084
C32 C 0.6642(2) 0.3991(2) 0.8390(4)
H28 H 0.6947 0.3850 0.8849
C33_2 C 0.5321(2) 0.5020(2) 0.7958(3)
C34 C 0.88529(17) 0.37521(16) 0.8658(3)
H29 H 0.8553 0.4038 0.8386
C35 C 0.8772(2) 0.3656(2) 0.9548(3)
H30 H 0.8385 0.3465 0.9488
H31 H 0.9099 0.3413 0.9865
H33 H 0.8448 0.4427 0.9767
C37 C 0.94839(17) 0.39797(15) 0.8662(3)
C38 C 0.95417(18) 0.42782(17) 0.7960(3)
H36 H 0.9978 0.3688 0.9789
C43 C 0.9042(3) 0.4669(3) 0.6612(4)
H37 H 0.8643 0.4682 0.6208
H38 H 0.9330 0.4505 0.6349
H39_2 H 0.9173 0.5041 0.6796
O2 O 0.94569(13) 0.25031(14) 0.60389(19)
O3_2 O 0.65422(16) 0.37081(15) 0.3707(2)
O4 O 0.66716(18) 0.38976(18) 0.5074(2)
O5 O 0.82251(14) 0.17766(13) 0.6670(2)
O6 O 0.76423(12) 0.34869(12) 0.7810(2)
O7_2 O 0.4898(2) 0.5139(2) 0.7305(3)
O9 O 0.90162(13) 0.43522(14) 0.7307(2)
O18_2 O 0.6438(3) 0.4978(2) 0.3464(4)
O19_2 O 0.5563(2) 0.4240(3) 0.4339(3)
O21_2 O 0.5102(2) 0.4861(2) 0.2695(3)
O25_2 O 0.59975(14) 0.41826(13) 0.1894(2)
O26_2 O 0.51530(19) 0.36150(19) 0.2489(3)
H76_2 H 0.591548 0.438768 0.479548
H77_2 H 0.51952 0.447547 0.429612
H80_2 H 0.677639 0.493243 0.319377
H81_2 H 0.621288 0.532967 0.326079
Mn1_2 Mn 0.50103(3) 0.40572(3) 0.09669(4)
C1_3 C 0.06063(18) 0.28044(17) 0.2992(2)
H1_3 H 0.0621 0.2960 0.3518
C2_3 C 0.00451(17) 0.27920(16) 0.2378(2)
C3_3 C 0.00273(18) 0.25265(18) 0.1619(2)
C4_3 C 0.0557(2) 0.2318(2) 0.1460(3)
H2_3 H 0.0539 0.2153 0.0939
C5_3 C 0.11137(19) 0.2361(2) 0.2089(3)
C6_3 C 0.11496(18) 0.25991(18) 0.2874(3)
C7_3 C 0.1754(4) 0.2277(5) 0.1196(6)
H3_3 H 0.2141 0.2117 0.1185
H4_3 H 0.1431 0.2119 0.0745
H5_3 H 0.1766 0.2673 0.1121
H16_3 H 0.0326 0.3886 0.3080
C39_3 C 0.01087(18) 0.05133(18) 0.2926(3)
H35_3 H 0.0143 0.0320 0.2449
C40_3 C 0.06220(17) 0.05988(17) 0.3617(3)
C41_3 C 0.05861(18) 0.08961(15) 0.4337(3)
C42_3 C 0.00109(18) 0.11041(16) 0.4324(3)
C44_3 C 0.1276(3) 0.0063(4) 0.2997(4)
H41_3 H 0.1147 0.0263 0.2460
C46_3 C 0.2381(3) 0.0111(5) 0.3863(6)
H42_3 H 0.2267 0.0346 0.4245
H43_3 H 0.3287 0.0129 0.4464
C52_2 C 0.11636(18) 0.09626(17) 0.5077(3)
H46_2 H 0.1355 0.0593 0.5168
C53_2 C 0.1041(2) 0.1121(2) 0.5922(3)
H47_2 H 0.1428 0.1214 0.6335
H48_2 H 0.0781 0.1449 0.5837
C54_2 C 0.0728(3) 0.0648(3) 0.6282(4)
H49_2 H 0.0658 0.0766 0.6807
H50_2 H 0.0343 0.0557 0.5879
H51_2 H 0.0989 0.0324 0.6383
C55_3 C 0.16369(17) 0.13465(16) 0.4883(2)
C56_3 C 0.14818(17) 0.17975(17) 0.4323(2)
H52_3 H 0.1068 0.1866 0.4059
C57_3 C 0.19189(17) 0.21502(17) 0.4141(2)
C58_3 C 0.25372(18) 0.20233(18) 0.4532(3)
C59_2 C 0.27108(19) 0.15894(19) 0.5100(3)
H53_2 H 0.3124 0.1522 0.5364
C60_2 C 0.22637(19) 0.12537(18) 0.5274(3)
C61_2 C 0.3031(3) 0.0648(3) 0.6133(6)
H54_2 H 0.3065 0.0335 0.6509
H55_2 H 0.3185 0.0547 0.5663
H56_2 H 0.3267 0.0955 0.6437
C62_3 C 0.3536(2) 0.2115(3) 0.4314(4)
H57_3 H 0.3811 0.2098 0.4887
H58_3 H 0.3471 0.1740 0.4086
C63_3 C 0.3806(2) 0.2480(2) 0.3756(4)
C64_3 C 0.3500(2) 0.2566(3) 0.2908(4)
H59_3 H 0.3111 0.2412 0.2685
C65_3 C 0.3756(2) 0.2874(2) 0.2385(4)
H60_3 H 0.3540 0.2925 0.1816
C66_3 C 0.4325(2) 0.3107(2) 0.2699(3)
C67_3 C 0.4624(3) 0.3034(3) 0.3559(4)
H61_3 H 0.5002 0.3204 0.3793
C68_3 C 0.4368(3) 0.2714(3) 0.4071(4)
H62_3 H 0.4584 0.2658 0.4639
C69_3 C 0.4626(2) 0.3434(2) 0.2140(4)
C70_3 C 0.17659(18) 0.26473(19) 0.3552(3)
H63_3 H 0.2080 0.2658 0.3244
C71_3 C 0.1833(2) 0.3189(2) 0.4058(3)
H64_3 H 0.1506 0.3213 0.4332
H65_3 H 0.2221 0.3184 0.4502
C72_3 C 0.1811(4) 0.3706(3) 0.3495(5)
H66_3 H 0.1848 0.4036 0.3837
H67_3 H 0.2144 0.3691 0.3240
H68_3 H 0.1428 0.3713 0.3055
C75_3 C 0.6024(4) 0.2343(3) 0.0405(6)
H73_3 H 0.6243 0.2051 0.0215
H74_3 H 0.6262 0.2474 0.0953
H75_3 H 0.5637 0.2202 0.0448
O1_3 O 0.16497(16) 0.21641(19) 0.1955(2)
O10_3 O 0.11951(13) 0.03968(14) 0.3648(2)
O13_2 O 0.24033(15) 0.08094(14) 0.5820(2)
O14_3 O 0.29621(13) 0.23640(14) 0.4320(2)
O16_3 O 0.4363(2) 0.35036(17) 0.1373(3)
O17_3 O 0.54161(18) 0.33220(15) 0.0549(2)
O22_2 O 0.46014(18) 0.47690(15) 0.1328(2)
O23_2 O 0.57894(14) 0.46042(16) 0.0661(2)
H40_3 H 0.1028 0.9729 0.2949
C45_3 C 0.1942(2) 0.9908(3) 0.3186(4)
C47_3 C 0.2995(3) 0.9977(5) 0.4000(5)
C48_3 C 0.3172(2) 0.9630(2) 0.3471(3)
C49_3 C 0.2729(2) 0.9391(2) 0.2827(4)
H44_3 H 0.2841 0.9129 0.2478
C50_3 C 0.2120(2) 0.9529(2) 0.2682(4)
H45_3 H 0.1827 0.9362 0.2234
C51_3 C 0.3832(2) 0.9472(2) 0.3644(3)
O11_2 O 0.42106(14) 0.96042(16) 0.4339(2)
Mn3 Mn 0.49897(3) 0.90572(3) 0.40331(4)
H6_3 H 0.9441 0.2295 0.9854
C10_3 C 0.8319(2) 0.1988(2) 0.9310(3)
H8_3 H 0.8459 0.2173 0.8901
C11_3 C 0.7721(2) 0.1783(2) 0.9099(3)
H9_3 H 0.7467 0.1827 0.8547
C12_3 C 0.7502(2) 0.15182(17) 0.9696(3)
C15_3 C 0.6857(2) 0.12870(19) 0.9475(3)
O3_3 O 0.65422(16) 0.12919(15) 0.8707(2)
O18_3 O 0.6438(3) 0.0022(2) 0.8464(4)
O19_3 O 0.5563(2) 0.0760(3) 0.9339(3)
H76_3 H 0.591548 0.0612317 0.979548
H77_3 H 0.51952 0.0524531 0.929612
H80_3 H 0.677639 0.00675682 0.819377
C33_3 C 0.5321(2) 0.9980(2) 0.2958(3)
H39_3 H 0.9173 0.9959 0.1796
O8_2 O 0.53986(18) 0.97690(15) 0.3672(2)
C8_2 C 0.0641(2) 0.7114(2) 0.4659(3)
H6_4 H 0.0559 0.7295 0.5146
H7_2 H 0.0365 0.6797 0.4499
C9_2 C 0.1298(2) 0.69200(19) 0.4882(3)
C10_4 C 0.1681(2) 0.6988(2) 0.5690(3)
H8_4 H 0.1541 0.7173 0.6099
C11_4 C 0.2279(2) 0.6783(2) 0.5901(3)
H9_4 H 0.2533 0.6827 0.6453
C12_4 C 0.2498(2) 0.65182(17) 0.5304(3)
C13_2 C 0.2116(2) 0.6457(2) 0.4482(3)
H10_2 H 0.2259 0.6280 0.4069
C14_2 C 0.1522(2) 0.6661(2) 0.4277(3)
H11_2 H 0.1269 0.6623 0.3723
C15_4 C 0.3143(2) 0.62870(19) 0.5525(3)
C16_2 C 0.05347(18) 0.80593(16) 0.2522(3)
H12_2 H 0.0712 0.8272 0.3046
C17_2 C 0.0437(2) 0.84814(19) 0.1778(3)
H13_2 H 0.0224 0.8295 0.1252
H14_2 H 0.0835 0.8599 0.1730
C18_2 C 0.0072(3) 0.8996(2) 0.1881(5)
H15_2 H 0.0026 0.9237 0.1398
H17_2 H 0.0286 0.9192 0.2391
C19_2 C 0.10164(17) 0.76395(15) 0.2458(2)
C20_2 C 0.16402(18) 0.77439(16) 0.2865(3)
C21_2 C 0.20920(18) 0.73728(17) 0.2775(3)
H18_2 H 0.2504 0.7447 0.3041
C22_2 C 0.19299(17) 0.68956(16) 0.2292(3)
C23_2 C 0.13117(17) 0.67674(15) 0.1886(2)
C24_2 C 0.08751(16) 0.71531(15) 0.1987(2)
H19_2 H 0.0463 0.7078 0.1721
C25_2 C 0.2330(3) 0.8249(3) 0.3977(4)
H20_2 H 0.2366 0.8607 0.4251
H21_2 H 0.2337 0.7961 0.4388
H22_2 H 0.2666 0.8197 0.3736
C26_2 C 0.2980(2) 0.6629(2) 0.2610(5)
H23_2 H 0.3092 0.6985 0.2416
H24_2 H 0.3034 0.6654 0.3219
C27_2 C 0.3391(2) 0.6180(2) 0.2434(4)
C28_2 C 0.3832(3) 0.5964(3) 0.3098(4)
H25_2 H 0.3857 0.6078 0.3651
C29_2 C 0.4236(3) 0.5585(2) 0.2964(4)
H26_2 H 0.4530 0.5436 0.3429
C30_2 C 0.42238(19) 0.54098(18) 0.2147(3)
C31_2 C 0.3789(2) 0.5620(2) 0.1467(4)
H27_2 H 0.3775 0.5510 0.0916
C32_2 C 0.3358(2) 0.6009(2) 0.1610(4)
H28_2 H 0.3053 0.6150 0.1151
C33_4 C 0.4679(2) 0.4980(2) 0.2042(3)
C34_2 C 0.11471(17) 0.62479(16) 0.1342(3)
H29_2 H 0.1447 0.5962 0.1614
C35_2 C 0.1228(2) 0.6344(2) 0.0452(3)
H30_2 H 0.1615 0.6535 0.0512
H31_2 H 0.0901 0.6587 0.0135
H33_2 H 0.1552 0.5573 0.0233
C37_2 C 0.05161(17) 0.60203(15) 0.1338(3)
C38_2 C 0.04583(18) 0.57218(17) 0.2040(3)
H36_2 H 0.0022 0.6312 0.0211
C43_2 C 0.0958(3) 0.5331(3) 0.3388(4)
H37_2 H 0.1357 0.5318 0.3792
H38_2 H 0.0670 0.5495 0.3651
H39_4 H 0.0827 0.4959 0.3204
O2_2 O 0.05431(13) 0.74969(14) 0.39611(19)
O3_4 O 0.34578(16) 0.62919(15) 0.6293(2)
O4_2 O 0.33284(18) 0.61024(18) 0.4926(2)
O5_2 O 0.17749(14) 0.82234(13) 0.3330(2)
O6_2 O 0.23577(12) 0.65131(12) 0.2190(2)
O9_2 O 0.09838(13) 0.56478(14) 0.2693(2)
O18_4 O 0.3562(3) 0.5022(2) 0.6536(4)
O19_4 O 0.4437(2) 0.5760(3) 0.5661(3)
H76_4 H 0.408452 0.561232 0.520452
H77_4 H 0.48048 0.552453 0.570388
H80_4 H 0.322361 0.506757 0.680623
H81_3 H 0.378712 0.467033 0.673921
C1_4 C 0.93937(18) 0.78044(17) 0.2008(2)
H1_4 H 0.9379 0.7960 0.1482
C2_4 C 0.99549(17) 0.77920(16) 0.2622(2)
C3_4 C 0.99727(18) 0.75265(18) 0.3381(2)
C4_4 C 0.9443(2) 0.7318(2) 0.3540(3)
H2_4 H 0.9461 0.7153 0.4061
C5_4 C 0.88863(19) 0.7361(2) 0.2911(3)
C6_4 C 0.88504(18) 0.75991(18) 0.2126(3)
C7_4 C 0.8246(4) 0.7277(5) 0.3804(6)
H3_4 H 0.7859 0.7117 0.3815
H4_4 H 0.8569 0.7119 0.4255
H5_4 H 0.8234 0.7673 0.3879
H16_4 H 0.9674 0.8886 0.1920
C39_4 C 0.98913(18) 0.55133(18) 0.2074(3)
H35_4 H 0.9857 0.5320 0.2551
C40_4 C 0.93780(17) 0.55988(17) 0.1383(3)
C41_4 C 0.94139(18) 0.58961(15) 0.0663(3)
C42_4 C 0.99891(18) 0.61041(16) 0.0676(3)
C44_4 C 0.8724(3) 0.5063(4) 0.2003(4)
H40_4 H 0.8972 0.4729 0.2051
H41_4 H 0.8853 0.5263 0.2540
C45_4 C 0.8058(2) 0.4908(3) 0.1814(4)
C46_4 C 0.7619(3) 0.5111(5) 0.1137(6)
H42_4 H 0.7733 0.5346 0.0755
C47_4 C 0.7005(3) 0.4977(5) 0.1000(5)
H43_4 H 0.6713 0.5129 0.0536
C48_4 C 0.6828(2) 0.4630(2) 0.1529(3)
C49_4 C 0.7271(2) 0.4391(2) 0.2173(4)
H44_4 H 0.7159 0.4129 0.2522
C50_4 C 0.7880(2) 0.4529(2) 0.2318(4)
H45_4 H 0.8173 0.4362 0.2766
C51_4 C 0.6168(2) 0.4472(2) 0.1356(3)
C55_4 C 0.83631(17) 0.63465(16) 0.0117(2)
C56_4 C 0.85182(17) 0.67975(17) 0.0677(2)
H52_4 H 0.8932 0.6866 0.0941
C57_4 C 0.80811(17) 0.71502(17) 0.0859(2)
C58_4 C 0.74628(18) 0.70233(18) 0.0468(3)
C62_4 C 0.6464(2) 0.7115(3) 0.0686(4)
H57_4 H 0.6189 0.7098 0.0113
H58_4 H 0.6529 0.6740 0.0914
C63_4 C 0.6194(2) 0.7480(2) 0.1244(4)
C64_4 C 0.6500(2) 0.7566(3) 0.2092(4)
H59_4 H 0.6889 0.7412 0.2315
C65_4 C 0.6244(2) 0.7874(2) 0.2615(4)
H60_4 H 0.6460 0.7925 0.3184
C66_4 C 0.5675(2) 0.8107(2) 0.2301(3)
C67_4 C 0.5376(3) 0.8034(3) 0.1441(4)
H61_4 H 0.4998 0.8204 0.1207
C68_4 C 0.5632(3) 0.7714(3) 0.0929(4)
H62_4 H 0.5416 0.7658 0.0361
C69_4 C 0.5374(2) 0.8434(2) 0.2860(4)
C70_4 C 0.82341(18) 0.76473(19) 0.1448(3)
H63_4 H 0.7920 0.7658 0.1756
C71_4 C 0.8167(2) 0.8189(2) 0.0942(3)
H64_4 H 0.8494 0.8213 0.0668
H65_4 H 0.7779 0.8184 0.0498
C72_4 C 0.8189(4) 0.8706(3) 0.1505(5)
H66_4 H 0.8152 0.9036 0.1163
H67_4 H 0.7856 0.8691 0.1760
H68_4 H 0.8572 0.8713 0.1945
C73_2 C 0.4384(3) 0.8254(3) 0.5056(4)
H69_2 H 0.4443 0.8540 0.5456
C74_2 C 0.3865(5) 0.7743(5) 0.5961(7)
H70_2 H 0.3661 0.7390 0.5950
H71_2 H 0.4209 0.7763 0.6461
H72_2 H 0.3583 0.8040 0.5971
C75_4 C 0.3976(4) 0.7343(3) 0.4595(6)
H73_4 H 0.3757 0.7051 0.4785
H74_4 H 0.3738 0.7474 0.4047
H75_4 H 0.4363 0.7202 0.4552
O1_4 O 0.83503(16) 0.71641(19) 0.3045(2)
O10_4 O 0.88049(13) 0.53968(14) 0.1352(2)
O14_4 O 0.70379(13) 0.73640(14) 0.0680(2)
O16_4 O 0.5637(2) 0.85036(17) 0.3627(3)
O17_4 O 0.45839(18) 0.83220(15) 0.4451(2)
O20_2 O 0.55571(17) 0.92452(15) 0.5319(2)
N1_2 N 0.4083(3) 0.7795(2) 0.5194(4)
H78_2 H 0.565787 0.889358 0.565021
H79_2 H 0.532899 0.949819 0.560331
C8_3 C 0.0641(2) 0.7886(2) 0.9659(3)
H7_3 H 0.0365 0.8203 0.9499
C9_3 C 0.1298(2) 0.80800(19) 0.9882(3)
C13_3 C 0.2116(2) 0.8543(2) 0.9482(3)
H10_3 H 0.2259 0.8720 0.9069
C14_3 C 0.1522(2) 0.8339(2) 0.9277(3)
H11_3 H 0.1269 0.8377 0.8723
C16_3 C 0.05347(18) 0.69407(16) 0.7522(3)
H12_3 H 0.0712 0.6728 0.8046
C17_3 C 0.0437(2) 0.65186(19) 0.6778(3)
H13_3 H 0.0224 0.6705 0.6252
H14_3 H 0.0835 0.6401 0.6730
C18_3 C 0.0072(3) 0.6004(2) 0.6881(5)
H15_3 H 0.0026 0.5763 0.6398
H17_3 H 0.0286 0.5808 0.7391
C19_3 C 0.10164(17) 0.73605(15) 0.7458(2)
C20_3 C 0.16402(18) 0.72561(16) 0.7865(3)
C21_3 C 0.20920(18) 0.76272(17) 0.7775(3)
H18_3 H 0.2504 0.7553 0.8041
C22_3 C 0.19299(17) 0.81044(16) 0.7292(3)
C23_3 C 0.13117(17) 0.82326(15) 0.6886(2)
C24_3 C 0.08751(16) 0.78469(15) 0.6987(2)
H19_3 H 0.0463 0.7922 0.6721
C25_3 C 0.2330(3) 0.6751(3) 0.8977(4)
H20_3 H 0.2366 0.6393 0.9251
H21_3 H 0.2337 0.7039 0.9388
H22_3 H 0.2666 0.6803 0.8736
C26_3 C 0.2980(2) 0.8371(2) 0.7610(5)
H23_3 H 0.3092 0.8015 0.7416
H24_3 H 0.3034 0.8346 0.8219
C27_3 C 0.3391(2) 0.8820(2) 0.7434(4)
C28_3 C 0.3832(3) 0.9036(3) 0.8098(4)
H25_3 H 0.3857 0.8922 0.8651
C29_3 C 0.4236(3) 0.9415(2) 0.7964(4)
H26_3 H 0.4530 0.9564 0.8429
C30_3 C 0.42238(19) 0.95902(18) 0.7147(3)
C31_3 C 0.3789(2) 0.9380(2) 0.6467(4)
H27_3 H 0.3775 0.9490 0.5916
C32_3 C 0.3358(2) 0.8991(2) 0.6610(4)
H28_3 H 0.3053 0.8850 0.6151
C34_3 C 0.11471(17) 0.87521(16) 0.6342(3)
H29_3 H 0.1447 0.9038 0.6614
C35_3 C 0.1228(2) 0.8656(2) 0.5452(3)
H30_3 H 0.1615 0.8465 0.5512
H31_3 H 0.0901 0.8413 0.5135
C36 C 0.1220(3) 0.9188(3) 0.4936(4)
H32 H 0.1269 0.9094 0.4388
H33_3 H 0.1552 0.9427 0.5233
H34 H 0.0836 0.9378 0.4863
C37_3 C 0.05161(17) 0.89797(15) 0.6338(3)
C38_3 C 0.04583(18) 0.92782(17) 0.7040(3)
H36_3 H 0.0022 0.8688 0.5211
C43_3 C 0.0958(3) 0.9669(3) 0.8388(4)
H37_3 H 0.1357 0.9682 0.8792
H38_3 H 0.0670 0.9505 0.8651
O2_3 O 0.05431(13) 0.75031(14) 0.89611(19)
O4_3 O 0.33284(18) 0.88976(18) 0.9926(2)
O5_3 O 0.17749(14) 0.67766(13) 0.8330(2)
O6_3 O 0.23577(12) 0.84869(12) 0.7190(2)
O9_3 O 0.09838(13) 0.93522(14) 0.7693(2)
C73_3 C 0.4384(3) 0.6746(3) 0.0056(4)
H69_3 H 0.4443 0.6460 0.0456
C74_3 C 0.3865(5) 0.7257(5) 0.0961(7)
H70_3 H 0.3661 0.7610 0.0950
H71_3 H 0.4209 0.7237 0.1461
H72_3 H 0.3583 0.6960 0.0971
O20_3 O 0.55571(17) 0.57548(15) 0.0319(2)
N1_3 N 0.4083(3) 0.7205(2) 0.0194(4)
H78_3 H 0.565787 0.610642 0.065021
H79_3 H 0.532899 0.550181 0.0603306
C52_3 C 0.11636(18) 0.40374(17) 0.0077(3)
H46_3 H 0.1355 0.4407 0.0168
C53_3 C 0.1041(2) 0.3879(2) 0.0922(3)
H47_3 H 0.1428 0.3786 0.1335
H48_3 H 0.0781 0.3551 0.0837
C54_3 C 0.0728(3) 0.4352(3) 0.1282(4)
H49_3 H 0.0658 0.4234 0.1807
H50_3 H 0.0343 0.4443 0.0879
H51_3 H 0.0989 0.4676 0.1383
C59_3 C 0.27108(19) 0.34106(19) 0.0100(3)
H53_3 H 0.3124 0.3478 0.0364
C60_3 C 0.22637(19) 0.37463(18) 0.0274(3)
C61_3 C 0.3031(3) 0.4352(3) 0.1133(6)
H54_3 H 0.3065 0.4665 0.1509
H55_3 H 0.3185 0.4453 0.0663
H56_3 H 0.3267 0.4045 0.1437
O13_3 O 0.24033(15) 0.41906(14) 0.0820(2)
C36_2 C 0.8780(3) 0.4188(3) 0.0064(4)
H32_2 H 0.8731 0.4094 0.0612
H34_2 H 0.9164 0.4378 0.0137
C73_4 C 0.5616(3) 0.3254(3) 0.9944(4)
H69_4 H 0.5557 0.3540 0.9544
C74_4 C 0.6135(5) 0.2743(5) 0.9039(7)
H70_4 H 0.6339 0.2390 0.9050
H71_4 H 0.5791 0.2763 0.8539
H72_4 H 0.6417 0.3040 0.9029
O20_4 O 0.44429(17) 0.42452(15) 0.9681(2)
N1_4 N 0.5917(3) 0.2795(2) 0.9806(4)
H78_4 H 0.434213 0.389358 0.934979
H79_4 H 0.467101 0.449819 0.939669
C8_4 C 0.9359(2) 0.2114(2) 0.0341(3)
H7_4 H 0.9635 0.1797 0.0501
C9_4 C 0.8702(2) 0.19200(19) 0.0118(3)
C13_4 C 0.7884(2) 0.1457(2) 0.0518(3)
H10_4 H 0.7741 0.1280 0.0931
C14_4 C 0.8478(2) 0.1661(2) 0.0723(3)
H11_4 H 0.8731 0.1623 0.1277
C16_4 C 0.94653(18) 0.30593(16) 0.2478(3)
H12_4 H 0.9288 0.3272 0.1954
C17_4 C 0.9563(2) 0.34814(19) 0.3222(3)
H13_4 H 0.9776 0.3295 0.3748
H14_4 H 0.9165 0.3599 0.3270
C18_4 C 0.9928(3) 0.3996(2) 0.3119(5)
H15_4 H 0.9974 0.4237 0.3602
H17_4 H 0.9714 0.4192 0.2609
C19_4 C 0.89836(17) 0.26395(15) 0.2542(2)
C20_4 C 0.83598(18) 0.27439(16) 0.2135(3)
C21_4 C 0.79080(18) 0.23728(17) 0.2225(3)
H18_4 H 0.7496 0.2447 0.1959
C22_4 C 0.80701(17) 0.18956(16) 0.2708(3)
C23_4 C 0.86883(17) 0.17674(15) 0.3114(2)
C24_4 C 0.91249(16) 0.21531(15) 0.3013(2)
H19_4 H 0.9537 0.2078 0.3279
C25_4 C 0.7670(3) 0.3249(3) 0.1023(4)
H20_4 H 0.7634 0.3607 0.0749
H21_4 H 0.7663 0.2961 0.0612
H22_4 H 0.7334 0.3197 0.1264
C26_4 C 0.7020(2) 0.1629(2) 0.2390(5)
H23_4 H 0.6908 0.1985 0.2584
H24_4 H 0.6966 0.1654 0.1781
C27_4 C 0.6609(2) 0.1180(2) 0.2566(4)
C28_4 C 0.6168(3) 0.0964(3) 0.1902(4)
H25_4 H 0.6143 0.1078 0.1349
C29_4 C 0.5764(3) 0.0585(2) 0.2036(4)
H26_4 H 0.5470 0.0436 0.1571
C30_4 C 0.57762(19) 0.04098(18) 0.2853(3)
C31_4 C 0.6211(2) 0.0620(2) 0.3533(4)
H27_4 H 0.6225 0.0510 0.4084
C32_4 C 0.6642(2) 0.1009(2) 0.3390(4)
H28_4 H 0.6947 0.1150 0.3849
C34_4 C 0.88529(17) 0.12479(16) 0.3658(3)
H29_4 H 0.8553 0.0962 0.3386
C35_4 C 0.8772(2) 0.1344(2) 0.4548(3)
H30_4 H 0.8385 0.1535 0.4488
H31_4 H 0.9099 0.1587 0.4865
C36_3 C 0.8780(3) 0.0812(3) 0.5064(4)
H32_3 H 0.8731 0.0906 0.5612
H33_4 H 0.8448 0.0573 0.4767
H34_3 H 0.9164 0.0622 0.5137
C37_4 C 0.94839(17) 0.10203(15) 0.3662(3)
C38_4 C 0.95417(18) 0.07218(17) 0.2960(3)
H36_4 H 0.9978 0.1312 0.4789
C43_4 C 0.9042(3) 0.0331(3) 0.1612(4)
H37_4 H 0.8643 0.0318 0.1208
H38_4 H 0.9330 0.0495 0.1349
O2_4 O 0.94569(13) 0.24969(14) 0.10389(19)
O4_4 O 0.66716(18) 0.11024(18) 0.0074(2)
O5_4 O 0.82251(14) 0.32234(13) 0.1670(2)
O6_4 O 0.76423(12) 0.15131(12) 0.2810(2)
O9_4 O 0.90162(13) 0.06478(14) 0.2307(2)
H81_4 H 0.621288 0.967033 0.826079
C36_4 C 0.1220(3) 0.5812(3) 0.9936(4)
H32_4 H 0.1269 0.5906 0.9388
H34_4 H 0.0836 0.5622 0.9863
C52_4 C 0.88364(18) 0.59626(17) 0.9923(3)
H46_4 H 0.8645 0.5593 0.9832
C53_4 C 0.8959(2) 0.6121(2) 0.9078(3)
H47_4 H 0.8572 0.6214 0.8665
H48_4 H 0.9219 0.6449 0.9163
C54_4 C 0.9272(3) 0.5648(3) 0.8718(4)
H49_4 H 0.9342 0.5766 0.8193
H50_4 H 0.9657 0.5557 0.9121
H51_4 H 0.9011 0.5324 0.8617
C59_4 C 0.72892(19) 0.65894(19) 0.9900(3)
H53_4 H 0.6876 0.6522 0.9636
C60_4 C 0.77363(19) 0.62537(18) 0.9726(3)
C61_4 C 0.6969(3) 0.5648(3) 0.8867(6)
H54_4 H 0.6935 0.5335 0.8491
H55_4 H 0.6815 0.5547 0.9337
H56_4 H 0.6733 0.5955 0.8563
O13_4 O 0.75967(15) 0.58094(14) 0.9180(2)
loop_
_geom_bond_atom_site_label_1
_geom_bond_atom_site_label_2
_geom_bond_site_symmetry_1
_geom_bond_site_symmetry_2
O7 C33 1_555 1_555
O8 C33 1_555 1_555
Mn4 O8 1_555 1_555
Mn6 O7 1_555 1_555
Mn2 O3 1_555 1_555
H8 C10 1_555 1_555
C11 C10 1_555 1_555
H9 C11 1_555 1_555
C12 C11 1_555 1_555
C15 C12 1_555 1_555
O3 C15 1_555 1_555
O18 Mn2 1_555 1_555
O19 Mn2 1_555 1_555
O21 Mn2 1_555 1_555
O25 Mn2 1_555 1_555
O26 Mn2 1_555 1_555
O19 H76 1_555 1_555
O19 H77 1_555 1_555
O18 H80 1_555 1_555
C48 C47 1_555 1_555
C49 C48 1_555 1_555
H44 C49 1_555 1_555
C50 C45 1_555 1_555
H45 C50 1_555 1_555
C51 C48 1_555 1_555
O11 C51 1_555 1_555
O12 C51 1_555 1_555
Mn4 O11 1_555 1_555
Mn6 O12 1_555 1_555
C49 C50 1_555 1_555
O12 Mn4 1_555 1_555
Mn1 O16 1_555 1_555
C1 H1 1_555 1_555
C2 C1 1_555 1_555
C3 C2 1_555 1_555
C4 C3 1_555 1_555
H2 C4 1_555 1_555
C5 C4 1_555 1_555
C6 C1 1_555 1_555
C7 H3 1_555 1_555
H4 C7 1_555 1_555
H5 C7 1_555 1_555
H35 C39 1_555 1_555
C40 C39 1_555 1_555
C41 C40 1_555 1_555
H41 C44 1_555 1_555
H42 C46 1_555 1_555
C52 C41 1_555 1_555
H46 C52 1_555 1_555
C53 C52 1_555 1_555
H47 C53 1_555 1_555
H48 C53 1_555 1_555
C54 C53 1_555 1_555
H49 C54 1_555 1_555
H50 C54 1_555 1_555
H51 C54 1_555 1_555
C55 C52 1_555 1_555
C56 C55 1_555 1_555
H52 C56 1_555 1_555
C57 C56 1_555 1_555
C58 C57 1_555 1_555
C59 C58 1_555 1_555
H53 C59 1_555 1_555
C60 C55 1_555 1_555
C61 H54 1_555 1_555
H55 C61 1_555 1_555
H56 C61 1_555 1_555
C62 H57 1_555 1_555
H58 C62 1_555 1_555
C63 C62 1_555 1_555
C64 C63 1_555 1_555
H59 C64 1_555 1_555
C65 C64 1_555 1_555
H60 C65 1_555 1_555
C66 C65 1_555 1_555
C67 C66 1_555 1_555
H61 C67 1_555 1_555
C68 C63 1_555 1_555
H62 C68 1_555 1_555
C69 C66 1_555 1_555
C70 C6 1_555 1_555
H63 C70 1_555 1_555
C71 C70 1_555 1_555
H64 C71 1_555 1_555
H65 C71 1_555 1_555
C72 C71 1_555 1_555
H66 C72 1_555 1_555
H67 C72 1_555 1_555
H68 C72 1_555 1_555
C75 H73 1_555 1_555
H74 C75 1_555 1_555
H75 C75 1_555 1_555
O1 C5 1_555 1_555
O10 C40 1_555 1_555
O13 C60 1_555 1_555
O14 C58 1_555 1_555
O15 C69 1_555 1_555
O16 C69 1_555 1_555
O17 Mn1 1_555 1_555
Mn7 O15 1_555 1_555
O22 Mn1 1_555 1_555
O23 Mn1 1_555 1_555
O24 Mn1 1_555 1_555
C5 C6 1_555 1_555
C7 O1 1_555 1_555
C41 C42 1_555 1_555
C44 O10 1_555 1_555
C57 C70 1_555 1_555
C59 C60 1_555 1_555
C61 O13 1_555 1_555
C62 O14 1_555 1_555
C67 C68 1_555 1_555
Mn7 O24 1_555 1_555
Mn4 O16_2 1_555 1_555
C1_2 H1_2 1_555 1_555
C2_2 C1_2 1_555 1_555
C3_2 C2_2 1_555 1_555
C4_2 C3_2 1_555 1_555
H2_2 C4_2 1_555 1_555
C5_2 C4_2 1_555 1_555
C6_2 C1_2 1_555 1_555
C7_2 H3_2 1_555 1_555
H4_2 C7_2 1_555 1_555
H5_2 C7_2 1_555 1_555
H35_2 C39_2 1_555 1_555
C40_2 C39_2 1_555 1_555
C41_2 C40_2 1_555 1_555
C44_2 H40_2 1_555 1_555
H41_2 C44_2 1_555 1_555
C45_2 C44_2 1_555 1_555
C46_2 C45_2 1_555 1_555
H42_2 C46_2 1_555 1_555
C47_2 C46_2 1_555 1_555
H43_2 C47_2 1_555 1_555
C48_2 C47_2 1_555 1_555
C49_2 C48_2 1_555 1_555
H44_2 C49_2 1_555 1_555
C50_2 C45_2 1_555 1_555
H45_2 C50_2 1_555 1_555
C51_2 C48_2 1_555 1_555
C56_2 C55_2 1_555 1_555
H52_2 C56_2 1_555 1_555
C57_2 C56_2 1_555 1_555
C58_2 C57_2 1_555 1_555
C62_2 H57_2 1_555 1_555
H58_2 C62_2 1_555 1_555
C63_2 C62_2 1_555 1_555
C64_2 C63_2 1_555 1_555
H59_2 C64_2 1_555 1_555
C65_2 C64_2 1_555 1_555
H60_2 C65_2 1_555 1_555
C66_2 C65_2 1_555 1_555
C67_2 C66_2 1_555 1_555
H61_2 C67_2 1_555 1_555
C68_2 C63_2 1_555 1_555
H62_2 C68_2 1_555 1_555
C69_2 C66_2 1_555 1_555
C70_2 C6_2 1_555 1_555
H63_2 C70_2 1_555 1_555
C71_2 C70_2 1_555 1_555
H64_2 C71_2 1_555 1_555
H65_2 C71_2 1_555 1_555
C72_2 C71_2 1_555 1_555
H66_2 C72_2 1_555 1_555
H67_2 C72_2 1_555 1_555
H68_2 C72_2 1_555 1_555
C73 H69 1_555 1_555
C74 H70 1_555 1_555
H71 C74 1_555 1_555
H72 C74 1_555 1_555
C75_2 H73_2 1_555 1_555
H74_2 C75_2 1_555 1_555
H75_2 C75_2 1_555 1_555
O1_2 C5_2 1_555 1_555
O10_2 C40_2 1_555 1_555
O23 C51_2 1_555 1_555
O24 C51_2 1_555 1_555
O14_2 C58_2 1_555 1_555
O15_2 C69_2 1_555 1_555
O16_2 C69_2 1_555 1_555
O17_2 Mn4 1_555 1_555
O20 Mn4 1_555 1_555
N1 C73 1_555 1_555
Mn6 O15_2 1_555 1_555
C5_2 C6_2 1_555 1_555
C7_2 O1_2 1_555 1_555
C41_2 C42_2 1_555 1_555
C44_2 O10_2 1_555 1_555
C49_2 C50_2 1_555 1_555
C57_2 C70_2 1_555 1_555
C62_2 O14_2 1_555 1_555
C67_2 C68_2 1_555 1_555
C73 O17_2 1_555 1_555
C74 N1 1_555 1_555
C75_2 N1 1_555 1_555
O20 H78 1_555 1_555
O20 H79 1_555 1_555
Mn2_2 O3_2 1_555 1_555
C8 H6_2 1_555 1_555
H7 C8 1_555 1_555
C9 C8 1_555 1_555
C10_2 C9 1_555 1_555
H8_2 C10_2 1_555 1_555
C11_2 C10_2 1_555 1_555
H9_2 C11_2 1_555 1_555
C12_2 C11_2 1_555 1_555
C13 C12_2 1_555 1_555
H10 C13 1_555 1_555
C14 C9 1_555 1_555
H11 C14 1_555 1_555
C15_2 C12_2 1_555 1_555
H12 C16 1_555 1_555
C17 C16 1_555 1_555
H13 C17 1_555 1_555
H14 C17 1_555 1_555
C18 C17 1_555 1_555
H15 C18 1_555 1_555
H17 C18 1_555 1_555
C19 C16 1_555 1_555
C20 C19 1_555 1_555
C21 C20 1_555 1_555
H18 C21 1_555 1_555
C22 C21 1_555 1_555
C23 C22 1_555 1_555
C24 C19 1_555 1_555
H19 C24 1_555 1_555
C25 H20 1_555 1_555
H21 C25 1_555 1_555
H22 C25 1_555 1_555
C26 H23 1_555 1_555
H24 C26 1_555 1_555
C27 C26 1_555 1_555
C28 C27 1_555 1_555
H25 C28 1_555 1_555
C29 C28 1_555 1_555
H26 C29 1_555 1_555
C30 C29 1_555 1_555
C31 C30 1_555 1_555
H27 C31 1_555 1_555
C32 C27 1_555 1_555
H28 C32 1_555 1_555
C33_2 C30 1_555 1_555
C34 C23 1_555 1_555
H29 C34 1_555 1_555
C35 C34 1_555 1_555
H30 C35 1_555 1_555
H31 C35 1_555 1_555
C37 C34 1_555 1_555
C38 C37 1_555 1_555
C43 H37 1_555 1_555
H38 C43 1_555 1_555
H39_2 C43 1_555 1_555
O3_2 C15_2 1_555 1_555
O4 C15_2 1_555 1_555
O5 C20 1_555 1_555
O6 C22 1_555 1_555
O7_2 C33_2 1_555 1_555
O22 C33_2 1_555 1_555
O9 C38 1_555 1_555
O18_2 Mn2_2 1_555 1_555
O19_2 Mn2_2 1_555 1_555
Mn7 O7_2 1_555 1_555
O21_2 Mn2_2 1_555 1_555
O25_2 Mn2_2 1_555 1_555
O26_2 Mn2_2 1_555 1_555
C8 O2 1_555 1_555
C13 C14 1_555 1_555
C23 C24 1_555 1_555
C25 O5 1_555 1_555
C26 O6 1_555 1_555
C31 C32 1_555 1_555
C43 O9 1_555 1_555
O19_2 H76_2 1_555 1_555
O19_2 H77_2 1_555 1_555
O18_2 H80_2 1_555 1_555
O18_2 H81_2 1_555 1_555
Mn1_2 O16_3 1_555 1_555
C1_3 H1_3 1_555 1_555
C2_3 C1_3 1_555 1_555
C3_3 C2_3 1_555 1_555
C4_3 C3_3 1_555 1_555
H2_3 C4_3 1_555 1_555
C5_3 C4_3 1_555 1_555
C6_3 C1_3 1_555 1_555
C7_3 H3_3 1_555 1_555
H4_3 C7_3 1_555 1_555
H5_3 C7_3 1_555 1_555
H35_3 C39_3 1_555 1_555
C40_3 C39_3 1_555 1_555
C41_3 C40_3 1_555 1_555
H41_3 C44_3 1_555 1_555
H42_3 C46_3 1_555 1_555
C52_2 C41_3 1_555 1_555
H46_2 C52_2 1_555 1_555
C53_2 C52_2 1_555 1_555
H47_2 C53_2 1_555 1_555
H48_2 C53_2 1_555 1_555
C54_2 C53_2 1_555 1_555
H49_2 C54_2 1_555 1_555
H50_2 C54_2 1_555 1_555
H51_2 C54_2 1_555 1_555
C55_3 C52_2 1_555 1_555
C56_3 C55_3 1_555 1_555
H52_3 C56_3 1_555 1_555
C57_3 C56_3 1_555 1_555
C58_3 C57_3 1_555 1_555
C59_2 C58_3 1_555 1_555
H53_2 C59_2 1_555 1_555
C60_2 C55_3 1_555 1_555
C61_2 H54_2 1_555 1_555
H55_2 C61_2 1_555 1_555
H56_2 C61_2 1_555 1_555
C62_3 H57_3 1_555 1_555
H58_3 C62_3 1_555 1_555
C63_3 C62_3 1_555 1_555
C64_3 C63_3 1_555 1_555
H59_3 C64_3 1_555 1_555
C65_3 C64_3 1_555 1_555
H60_3 C65_3 1_555 1_555
C66_3 C65_3 1_555 1_555
C67_3 C66_3 1_555 1_555
H61_3 C67_3 1_555 1_555
C68_3 C63_3 1_555 1_555
H62_3 C68_3 1_555 1_555
C69_3 C66_3 1_555 1_555
C70_3 C6_3 1_555 1_555
H63_3 C70_3 1_555 1_555
C71_3 C70_3 1_555 1_555
H64_3 C71_3 1_555 1_555
H65_3 C71_3 1_555 1_555
C72_3 C71_3 1_555 1_555
H66_3 C72_3 1_555 1_555
H67_3 C72_3 1_555 1_555
H68_3 C72_3 1_555 1_555
C75_3 H73_3 1_555 1_555
H74_3 C75_3 1_555 1_555
H75_3 C75_3 1_555 1_555
O1_3 C5_3 1_555 1_555
O10_3 C40_3 1_555 1_555
O13_2 C60_2 1_555 1_555
O14_3 C58_3 1_555 1_555
O26_2 C69_3 1_555 1_555
O16_3 C69_3 1_555 1_555
O17_3 Mn1_2 1_555 1_555
O22_2 Mn1_2 1_555 1_555
O23_2 Mn1_2 1_555 1_555
O25_2 Mn1_2 1_555 1_555
C5_3 C6_3 1_555 1_555
C7_3 O1_3 1_555 1_555
C41_3 C42_3 1_555 1_555
C44_3 O10_3 1_555 1_555
C57_3 C70_3 1_555 1_555
C59_2 C60_2 1_555 1_555
C61_2 O13_2 1_555 1_555
C62_3 O14_3 1_555 1_555
C67_3 C68_3 1_555 1_555
C48_3 C47_3 1_555 1_555
C49_3 C48_3 1_555 1_555
H44_3 C49_3 1_555 1_555
C50_3 C45_3 1_555 1_555
H45_3 C50_3 1_555 1_555
C51_3 C48_3 1_555 1_555
O11_2 C51_3 1_555 1_555
O25 C51_3 1_555 1_555
Mn3 O11_2 1_555 1_555
C49_3 C50_3 1_555 1_555
O25 Mn3 1_555 1_555
Mn6 O3_3 1_555 1_555
H8_3 C10_3 1_555 1_555
C11_3 C10_3 1_555 1_555
H9_3 C11_3 1_555 1_555
C12_3 C11_3 1_555 1_555
C15_3 C12_3 1_555 1_555
O3_3 C15_3 1_555 1_555
O18_3 Mn6 1_555 1_555
O19_3 Mn6 1_555 1_555
O19_3 H76_3 1_555 1_555
O19_3 H77_3 1_555 1_555
O18_3 H80_3 1_555 1_555
O21 C33_3 1_555 1_555
O8_2 C33_3 1_555 1_555
Mn3 O8_2 1_555 1_555
Mn7 O3_4 1_555 1_555
C8_2 H6_4 1_555 1_555
H7_2 C8_2 1_555 1_555
C9_2 C8_2 1_555 1_555
C10_4 C9_2 1_555 1_555
H8_4 C10_4 1_555 1_555
C11_4 C10_4 1_555 1_555
H9_4 C11_4 1_555 1_555
C12_4 C11_4 1_555 1_555
C13_2 C12_4 1_555 1_555
H10_2 C13_2 1_555 1_555
C14_2 C9_2 1_555 1_555
H11_2 C14_2 1_555 1_555
C15_4 C12_4 1_555 1_555
H12_2 C16_2 1_555 1_555
C17_2 C16_2 1_555 1_555
H13_2 C17_2 1_555 1_555
H14_2 C17_2 1_555 1_555
C18_2 C17_2 1_555 1_555
H15_2 C18_2 1_555 1_555
H17_2 C18_2 1_555 1_555
C19_2 C16_2 1_555 1_555
C20_2 C19_2 1_555 1_555
C21_2 C20_2 1_555 1_555
H18_2 C21_2 1_555 1_555
C22_2 C21_2 1_555 1_555
C23_2 C22_2 1_555 1_555
C24_2 C19_2 1_555 1_555
H19_2 C24_2 1_555 1_555
C25_2 H20_2 1_555 1_555
H21_2 C25_2 1_555 1_555
H22_2 C25_2 1_555 1_555
C26_2 H23_2 1_555 1_555
H24_2 C26_2 1_555 1_555
C27_2 C26_2 1_555 1_555
C28_2 C27_2 1_555 1_555
H25_2 C28_2 1_555 1_555
C29_2 C28_2 1_555 1_555
H26_2 C29_2 1_555 1_555
C30_2 C29_2 1_555 1_555
C31_2 C30_2 1_555 1_555
H27_2 C31_2 1_555 1_555
C32_2 C27_2 1_555 1_555
H28_2 C32_2 1_555 1_555
C33_4 C30_2 1_555 1_555
C34_2 C23_2 1_555 1_555
H29_2 C34_2 1_555 1_555
C35_2 C34_2 1_555 1_555
H30_2 C35_2 1_555 1_555
H31_2 C35_2 1_555 1_555
C37_2 C34_2 1_555 1_555
C38_2 C37_2 1_555 1_555
C43_2 H37_2 1_555 1_555
H38_2 C43_2 1_555 1_555
H39_4 C43_2 1_555 1_555
O3_4 C15_4 1_555 1_555
O4_2 C15_4 1_555 1_555
O5_2 C20_2 1_555 1_555
O6_2 C22_2 1_555 1_555
O21_2 C33_4 1_555 1_555
O22_2 C33_4 1_555 1_555
O9_2 C38_2 1_555 1_555
O18_4 Mn7 1_555 1_555
O19_4 Mn7 1_555 1_555
C8_2 O2_2 1_555 1_555
C13_2 C14_2 1_555 1_555
C23_2 C24_2 1_555 1_555
C25_2 O5_2 1_555 1_555
C26_2 O6_2 1_555 1_555
C31_2 C32_2 1_555 1_555
C43_2 O9_2 1_555 1_555
O19_4 H76_4 1_555 1_555
O19_4 H77_4 1_555 1_555
O18_4 H80_4 1_555 1_555
O18_4 H81_3 1_555 1_555
Mn3 O16_4 1_555 1_555
C1_4 H1_4 1_555 1_555
C2_4 C1_4 1_555 1_555
C3_4 C2_4 1_555 1_555
C4_4 C3_4 1_555 1_555
H2_4 C4_4 1_555 1_555
C5_4 C4_4 1_555 1_555
C6_4 C1_4 1_555 1_555
C7_4 H3_4 1_555 1_555
H4_4 C7_4 1_555 1_555
H5_4 C7_4 1_555 1_555
H35_4 C39_4 1_555 1_555
C40_4 C39_4 1_555 1_555
C41_4 C40_4 1_555 1_555
C44_4 H40_4 1_555 1_555
H41_4 C44_4 1_555 1_555
C45_4 C44_4 1_555 1_555
C46_4 C45_4 1_555 1_555
H42_4 C46_4 1_555 1_555
C47_4 C46_4 1_555 1_555
H43_4 C47_4 1_555 1_555
C48_4 C47_4 1_555 1_555
C49_4 C48_4 1_555 1_555
H44_4 C49_4 1_555 1_555
C50_4 C45_4 1_555 1_555
H45_4 C50_4 1_555 1_555
C51_4 C48_4 1_555 1_555
C56_4 C55_4 1_555 1_555
H52_4 C56_4 1_555 1_555
C57_4 C56_4 1_555 1_555
C58_4 C57_4 1_555 1_555
C62_4 H57_4 1_555 1_555
H58_4 C62_4 1_555 1_555
C63_4 C62_4 1_555 1_555
C64_4 C63_4 1_555 1_555
H59_4 C64_4 1_555 1_555
C65_4 C64_4 1_555 1_555
H60_4 C65_4 1_555 1_555
C66_4 C65_4 1_555 1_555
C67_4 C66_4 1_555 1_555
H61_4 C67_4 1_555 1_555
C68_4 C63_4 1_555 1_555
H62_4 C68_4 1_555 1_555
C69_4 C66_4 1_555 1_555
C70_4 C6_4 1_555 1_555
H63_4 C70_4 1_555 1_555
C71_4 C70_4 1_555 1_555
H64_4 C71_4 1_555 1_555
H65_4 C71_4 1_555 1_555
C72_4 C71_4 1_555 1_555
H66_4 C72_4 1_555 1_555
H67_4 C72_4 1_555 1_555
H68_4 C72_4 1_555 1_555
C73_2 H69_2 1_555 1_555
C74_2 H70_2 1_555 1_555
H71_2 C74_2 1_555 1_555
H72_2 C74_2 1_555 1_555
C75_4 H73_4 1_555 1_555
H74_4 C75_4 1_555 1_555
H75_4 C75_4 1_555 1_555
O1_4 C5_4 1_555 1_555
O10_4 C40_4 1_555 1_555
O23_2 C51_4 1_555 1_555
O25_2 C51_4 1_555 1_555
O14_4 C58_4 1_555 1_555
O26 C69_4 1_555 1_555
O16_4 C69_4 1_555 1_555
O17_4 Mn3 1_555 1_555
O20_2 Mn3 1_555 1_555
N1_2 C73_2 1_555 1_555
C5_4 C6_4 1_555 1_555
C7_4 O1_4 1_555 1_555
C41_4 C42_4 1_555 1_555
C44_4 O10_4 1_555 1_555
C49_4 C50_4 1_555 1_555
C57_4 C70_4 1_555 1_555
C62_4 O14_4 1_555 1_555
C67_4 C68_4 1_555 1_555
C73_2 O17_4 1_555 1_555
C74_2 N1_2 1_555 1_555
C75_4 N1_2 1_555 1_555
O20_2 H78_2 1_555 1_555
O20_2 H79_2 1_555 1_555
H7_3 C8_3 1_555 1_555
C9_3 C8_3 1_555 1_555
H10_3 C13_3 1_555 1_555
C14_3 C9_3 1_555 1_555
H11_3 C14_3 1_555 1_555
H12_3 C16_3 1_555 1_555
C17_3 C16_3 1_555 1_555
H13_3 C17_3 1_555 1_555
H14_3 C17_3 1_555 1_555
C18_3 C17_3 1_555 1_555
H15_3 C18_3 1_555 1_555
H17_3 C18_3 1_555 1_555
C19_3 C16_3 1_555 1_555
C20_3 C19_3 1_555 1_555
C21_3 C20_3 1_555 1_555
H18_3 C21_3 1_555 1_555
C22_3 C21_3 1_555 1_555
C23_3 C22_3 1_555 1_555
C24_3 C19_3 1_555 1_555
H19_3 C24_3 1_555 1_555
C25_3 H20_3 1_555 1_555
H21_3 C25_3 1_555 1_555
H22_3 C25_3 1_555 1_555
C26_3 H23_3 1_555 1_555
H24_3 C26_3 1_555 1_555
C27_3 C26_3 1_555 1_555
C28_3 C27_3 1_555 1_555
H25_3 C28_3 1_555 1_555
C29_3 C28_3 1_555 1_555
H26_3 C29_3 1_555 1_555
C30_3 C29_3 1_555 1_555
C31_3 C30_3 1_555 1_555
H27_3 C31_3 1_555 1_555
C32_3 C27_3 1_555 1_555
H28_3 C32_3 1_555 1_555
C34_3 C23_3 1_555 1_555
H29_3 C34_3 1_555 1_555
C35_3 C34_3 1_555 1_555
H30_3 C35_3 1_555 1_555
H31_3 C35_3 1_555 1_555
C36 C35_3 1_555 1_555
H32 C36 1_555 1_555
H33_3 C36 1_555 1_555
H34 C36 1_555 1_555
C37_3 C34_3 1_555 1_555
C38_3 C37_3 1_555 1_555
C43_3 H37_3 1_555 1_555
H38_3 C43_3 1_555 1_555
O5_3 C20_3 1_555 1_555
O6_3 C22_3 1_555 1_555
O9_3 C38_3 1_555 1_555
C8_3 O2_3 1_555 1_555
C13_3 C14_3 1_555 1_555
C23_3 C24_3 1_555 1_555
C25_3 O5_3 1_555 1_555
C26_3 O6_3 1_555 1_555
C31_3 C32_3 1_555 1_555
C43_3 O9_3 1_555 1_555
C73_3 H69_3 1_555 1_555
C74_3 H70_3 1_555 1_555
H71_3 C74_3 1_555 1_555
H72_3 C74_3 1_555 1_555
N1_3 C73_3 1_555 1_555
C74_3 N1_3 1_555 1_555
O20_3 H78_3 1_555 1_555
O20_3 H79_3 1_555 1_555
H46_3 C52_3 1_555 1_555
C53_3 C52_3 1_555 1_555
H47_3 C53_3 1_555 1_555
H48_3 C53_3 1_555 1_555
C54_3 C53_3 1_555 1_555
H49_3 C54_3 1_555 1_555
H50_3 C54_3 1_555 1_555
H51_3 C54_3 1_555 1_555
H53_3 C59_3 1_555 1_555
C61_3 H54_3 1_555 1_555
H55_3 C61_3 1_555 1_555
H56_3 C61_3 1_555 1_555
O13_3 C60_3 1_555 1_555
C59_3 C60_3 1_555 1_555
C61_3 O13_3 1_555 1_555
H32_2 C36_2 1_555 1_555
H34_2 C36_2 1_555 1_555
C73_4 H69_4 1_555 1_555
C74_4 H70_4 1_555 1_555
H71_4 C74_4 1_555 1_555
H72_4 C74_4 1_555 1_555
N1_4 C73_4 1_555 1_555
C74_4 N1_4 1_555 1_555
O20_4 H78_4 1_555 1_555
O20_4 H79_4 1_555 1_555
H7_4 C8_4 1_555 1_555
C9_4 C8_4 1_555 1_555
H10_4 C13_4 1_555 1_555
C14_4 C9_4 1_555 1_555
H11_4 C14_4 1_555 1_555
H12_4 C16_4 1_555 1_555
C17_4 C16_4 1_555 1_555
H13_4 C17_4 1_555 1_555
H14_4 C17_4 1_555 1_555
C18_4 C17_4 1_555 1_555
H15_4 C18_4 1_555 1_555
H17_4 C18_4 1_555 1_555
C19_4 C16_4 1_555 1_555
C20_4 C19_4 1_555 1_555
C21_4 C20_4 1_555 1_555
H18_4 C21_4 1_555 1_555
C22_4 C21_4 1_555 1_555
C23_4 C22_4 1_555 1_555
C24_4 C19_4 1_555 1_555
H19_4 C24_4 1_555 1_555
C25_4 H20_4 1_555 1_555
H21_4 C25_4 1_555 1_555
H22_4 C25_4 1_555 1_555
C26_4 H23_4 1_555 1_555
H24_4 C26_4 1_555 1_555
C27_4 C26_4 1_555 1_555
C28_4 C27_4 1_555 1_555
H25_4 C28_4 1_555 1_555
C29_4 C28_4 1_555 1_555
H26_4 C29_4 1_555 1_555
C30_4 C29_4 1_555 1_555
C31_4 C30_4 1_555 1_555
H27_4 C31_4 1_555 1_555
C32_4 C27_4 1_555 1_555
H28_4 C32_4 1_555 1_555
C34_4 C23_4 1_555 1_555
H29_4 C34_4 1_555 1_555
C35_4 C34_4 1_555 1_555
H30_4 C35_4 1_555 1_555
H31_4 C35_4 1_555 1_555
C36_3 C35_4 1_555 1_555
H32_3 C36_3 1_555 1_555
H33_4 C36_3 1_555 1_555
H34_3 C36_3 1_555 1_555
C37_4 C34_4 1_555 1_555
C38_4 C37_4 1_555 1_555
C43_4 H37_4 1_555 1_555
H38_4 C43_4 1_555 1_555
O5_4 C20_4 1_555 1_555
O6_4 C22_4 1_555 1_555
O9_4 C38_4 1_555 1_555
C8_4 O2_4 1_555 1_555
C13_4 C14_4 1_555 1_555
C23_4 C24_4 1_555 1_555
C25_4 O5_4 1_555 1_555
C26_4 O6_4 1_555 1_555
C31_4 C32_4 1_555 1_555
C43_4 O9_4 1_555 1_555
H32_4 C36_4 1_555 1_555
H34_4 C36_4 1_555 1_555
H46_4 C52_4 1_555 1_555
C53_4 C52_4 1_555 1_555
H47_4 C53_4 1_555 1_555
H48_4 C53_4 1_555 1_555
C54_4 C53_4 1_555 1_555
H49_4 C54_4 1_555 1_555
H50_4 C54_4 1_555 1_555
H51_4 C54_4 1_555 1_555
H53_4 C59_4 1_555 1_555
C61_4 H54_4 1_555 1_555
H55_4 C61_4 1_555 1_555
H56_4 C61_4 1_555 1_555
O13_4 C60_4 1_555 1_555
C59_4 C60_4 1_555 1_555
C61_4 O13_4 1_555 1_555

#END
