
###############################################################################
#
# This file contains modified crystal structure data generated from the
# MOF subset of the Cambridge Structural Database (CSD) v543 
# hosted by the Cambridge Crystallographic Data Centre (CCDC).
#
# This work is licensed under the Creative Commons
# Attribution-NonCommercial-ShareAlike 4.0 International License.
# To view a copy of this license, visit
# http://creativecommons.org/licenses/by-nc-sa/4.0/
# or send a letter to
# Creative Commons, PO Box 1866, Mountain View, CA 94042, USA.
#
# CIF created using the CSD Python API on 29 September 2022
# The structure has been converted into the P1 space group
# The structure has a 3D framework
# The original CSD entry NINDEW is in the monoclinic crystal system
# The framework has been calculated to contain at least 10.0% void space
# The void calculation uses a probe of radius 1.32A, grid spacing 0.4
# H atom positions have been added when not included in the experimental data
#
###############################################################################

data_NINDEW
_chemical_formula_moiety         '(C288 H280 O66 Zn4)n'
_symmetry_cell_setting           triclinic
_symmetry_space_group_name_H-M   'P 1'
_symmetry_Int_Tables_number      1
_space_group_name_Hall           'P 1'
loop_
_symmetry_equiv_pos_site_id
_symmetry_equiv_pos_as_xyz
1 x,y,z
_cell_length_a                   20.8060(11)
_cell_length_b                   16.3130(9)
_cell_length_c                   21.7240(12)
_cell_angle_alpha                90
_cell_angle_beta                 104.404(5)
_cell_angle_gamma                90
_cell_volume                     7141.53
loop_
_atom_site_label
_atom_site_type_symbol
_atom_site_fract_x
_atom_site_fract_y
_atom_site_fract_z
Zn1 Zn 0.00368(2) 0.88967(3) 0.76288(3)
O7 O 0.01336(13) 0.77570(19) 0.73692(13)
O17 O 0.0002(2) 0.8749(3) 0.85086(18)
Zn2 Zn 0.00620(2) 0.89793(3) 0.30416(2)
O18 O 0.08878(15) 0.9365(2) 0.7662(2)
O21 O 0.07346(16) 0.9605(2) 0.27205(17)
O22 O 0.0527(2) 0.8820(4) 0.3913(2)
Zn7 Zn 0.00620(2) 0.60207(3) 0.80416(2)
H69 H 0.0418183 0.84844 0.875062
C7 C 0.3576(2) 0.0218(3) 0.2030(3)
H3 H 0.3143 0.0425 0.2026
H4 H 0.3717 0.0440 0.1676
H5 H 0.3883 0.0376 0.2419
H7 H 0.5905 0.0323 0.2313
C12 C 0.82137(18) 0.0038(2) 0.2634(2)
C13 C 0.7765(2) 0.0380(3) 0.2135(3)
H10 H 0.7912 0.0665 0.1826
C14 C 0.7090(2) 0.0306(4) 0.2085(3)
H11 H 0.6791 0.0547 0.1741
H37 H 0.6745 0.0135 0.4308
H38 H 0.6158 0.0154 0.4641
H39 H 0.6010 0.0101 0.3899
H41 H 0.4038 0.0161 0.4372
C45 C 0.2806(2) 0.0521(3) 0.3983(2)
H42 H 0.3029 0.0868 0.4306
C46 C 0.2133(2) 0.0630(3) 0.3710(2)
H43 H 0.1908 0.1063 0.3841
C47 C 0.17950(18) 0.0100(2) 0.32469(19)
C50 C 0.1080(2) 0.0212(3) 0.2939(2)
C72 C 0.89425(19) 0.0126(3) 0.2693(2)
O4 O 0.91122(15) 0.0635(2) 0.2338(2)
O11 O 0.08535(15) 0.0916(2) 0.28760(19)
Zn4 Zn 0.99632(2) 0.11033(3) 0.23712(3)
C1 C 0.46247(16) 0.7661(2) 0.19193(14)
H1 H 0.4591 0.7093 0.1892
C2 C 0.52380(16) 0.8015(2) 0.19564(15)
C3 C 0.52768(16) 0.8856(2) 0.20171(17)
C4 C 0.47314(18) 0.9328(2) 0.20340(18)
H2 H 0.4770 0.9894 0.2078
C5 C 0.41231(16) 0.8947(2) 0.19843(16)
C6 C 0.40568(15) 0.8106(2) 0.19211(14)
C8 C 0.6124(2) 0.9808(4) 0.2457(3)
H6 H 0.6040 0.9674 0.2865
C9 C 0.6854(2) 0.9890(3) 0.2526(3)
C10 C 0.7310(3) 0.9546(3) 0.3029(3)
H8 H 0.7163 0.9261 0.3338
C11 C 0.7981(2) 0.9617(3) 0.3081(2)
H9 H 0.8281 0.9376 0.3423
C15 C 0.58513(17) 0.7529(2) 0.19212(15)
H12 H 0.6067 0.7839 0.1642
C16 C 0.56944(18) 0.6684(2) 0.16190(16)
H13 H 0.5439 0.6377 0.1858
H14 H 0.6107 0.6392 0.1650
C17 C 0.5307(2) 0.6712(3) 0.09223(18)
H15 H 0.5226 0.6163 0.0762
H16 H 0.5561 0.7003 0.0679
H17 H 0.4892 0.6987 0.0888
C18 C 0.63546(16) 0.7470(2) 0.25633(15)
C19 C 0.70280(18) 0.7446(3) 0.25832(16)
C20 C 0.75014(18) 0.7403(3) 0.31556(18)
H18 H 0.7950 0.7383 0.3164
C21 C 0.72986(17) 0.7389(3) 0.37189(17)
C22 C 0.66356(17) 0.7416(2) 0.37242(15)
C23 C 0.61769(16) 0.7455(2) 0.31349(15)
H19 H 0.5728 0.7471 0.3126
C24 C 0.7858(2) 0.7602(4) 0.2005(2)
H20 H 0.7900 0.7602 0.1574
H21 H 0.8129 0.7174 0.2239
H22 H 0.8001 0.8122 0.2198
C25 C 0.8280(3) 0.7855(4) 0.4455(2)
H23 H 0.8119 0.8415 0.4406
H24 H 0.8570 0.7772 0.4173
C26 C 0.8657(2) 0.7706(3) 0.5133(2)
C27 C 0.9111(2) 0.8269(3) 0.5447(2)
H25 H 0.9179 0.8749 0.5241
C28 C 0.9469(2) 0.8134(3) 0.6063(2)
H26 H 0.9777 0.8521 0.6270
C29 C 0.93699(19) 0.7420(3) 0.63757(18)
C30 C 0.8923(2) 0.6860(3) 0.60606(19)
H27 H 0.8858 0.6375 0.6262
C31 C 0.8565(2) 0.7004(3) 0.5443(2)
H28 H 0.8258 0.6618 0.5236
C32 C 0.9747(2) 0.7243(3) 0.70435(18)
C33 C 0.64394(17) 0.7395(2) 0.43564(15)
H29 H 0.6773 0.7722 0.4654
C34 C 0.6495(2) 0.6525(3) 0.46270(19)
H30 H 0.6130 0.6200 0.4382
H31 H 0.6904 0.6281 0.4576
C35 C 0.6488(3) 0.6481(4) 0.5328(2)
H32 H 0.6525 0.5920 0.5465
H33 H 0.6080 0.6707 0.5383
H34 H 0.6855 0.6789 0.5577
C36 C 0.57792(16) 0.7809(2) 0.43199(14)
C37 C 0.57419(16) 0.8659(2) 0.43122(16)
C38 C 0.51455(16) 0.9058(2) 0.42880(16)
H35 H 0.5126 0.9628 0.4282
C39 C 0.45829(15) 0.8602(2) 0.42723(15)
C40 C 0.45935(16) 0.7750(2) 0.42761(14)
C41 C 0.52002(17) 0.7380(2) 0.42986(14)
H36 H 0.5218 0.6810 0.4299
C42 C 0.6307(2) 0.9934(3) 0.4291(2)
C43 C 0.38708(18) 0.9776(3) 0.4029(2)
H40 H 0.4101 0.9871 0.3699
C44 C 0.31428(18) 0.9895(2) 0.37704(19)
C48 C 0.2135(2) 0.9483(3) 0.3050(2)
H44 H 0.1912 0.9116 0.2742
C49 C 0.2808(2) 0.9398(3) 0.3304(2)
H45 H 0.3036 0.8987 0.3150
C51 C 0.39634(17) 0.7274(2) 0.42566(15)
H46 H 0.3763 0.7526 0.4574
C52 C 0.4060(2) 0.6367(2) 0.44341(19)
H47 H 0.4305 0.6112 0.4159
H48 H 0.3628 0.6108 0.4349
C53 C 0.4426(3) 0.6194(3) 0.5127(2)
H49 H 0.4464 0.5612 0.5194
H50 H 0.4183 0.6428 0.5405
H51 H 0.4862 0.6432 0.5215
C54 C 0.34599(17) 0.7366(2) 0.36199(15)
C55 C 0.36447(16) 0.7477(2) 0.30493(15)
H52 H 0.4095 0.7487 0.3062
C56 C 0.31921(16) 0.7571(2) 0.24651(15)
C57 C 0.25224(17) 0.7541(2) 0.24548(15)
C58 C 0.23156(18) 0.7439(3) 0.30065(16)
H53 H 0.1865 0.7424 0.2993
C59 C 0.27858(18) 0.7359(3) 0.35827(16)
C60 C 0.1959(2) 0.7512(4) 0.4163(2)
H54 H 0.1895 0.7419 0.4580
H55 H 0.1641 0.7199 0.3858
H56 H 0.1902 0.8084 0.4061
C61 C 0.14065(19) 0.7488(3) 0.17974(18)
H57 H 0.1193 0.7959 0.1934
H58 H 0.1346 0.7018 0.2050
C62 C 0.11165(19) 0.7323(3) 0.11043(19)
C63 C 0.1274(3) 0.6605(4) 0.0846(2)
H59 H 0.1556 0.6229 0.1100
C64 C 0.1011(3) 0.6440(4) 0.0204(3)
H60 H 0.1124 0.5955 0.0031
C66 C 0.0424(3) 0.7692(4) 0.0080(2)
C67 C 0.0698(2) 0.7862(4) 0.0717(2)
H62 H 0.0595 0.8355 0.0885
C68 C 0.33845(16) 0.7707(2) 0.18412(14)
H63 H 0.3061 0.8098 0.1599
C70 C 0.32910(18) 0.6909(2) 0.14449(16)
H64 H 0.3647 0.6531 0.1630
H65 H 0.2875 0.6654 0.1464
C71 C 0.3288(3) 0.7060(3) 0.07557(19)
H66 H 0.3229 0.6550 0.0529
H67 H 0.3702 0.7303 0.0734
H68 H 0.2931 0.7425 0.0568
O1 O 0.35520(12) 0.93693(16) 0.19862(15)
O2 O 0.58835(13) 0.92075(19) 0.20305(15)
O3 O 0.93257(16) 0.9701(3) 0.30958(16)
O5 O 0.71871(13) 0.7468(2) 0.20081(12)
O6 O 0.77543(13) 0.7320(2) 0.43007(13)
O8 O 0.96664(19) 0.6536(2) 0.72432(15)
O9 O 0.63209(13) 0.90676(17) 0.43288(14)
O10 O 0.39812(12) 0.89579(15) 0.42584(12)
O13 O 0.26075(13) 0.7268(2) 0.41493(12)
O14 O 0.20916(12) 0.76446(19) 0.18680(11)
O19 O 0.96664(19) 0.8464(2) 0.22432(15)
O20 O 0.91465(15) 0.9084(2) 0.71240(19)
H70 H 0.995246 0.929107 0.869961
C65 C 0.0587(2) 0.6981(4) 0.9822(2)
H61 H 0.0131 0.8060 0.9829
C69 C 0.0292(3) 0.6799(5) 0.9129(3)
O15 O 0.0527(2) 0.6180(4) 0.8913(2)
O16 O 0.0147(3) 0.2234(3) 0.62050(19)
Zn3 Zn 0.00368(2) 0.61033(3) 0.26288(3)
C1_2 C 0.53753(16) 0.2661(2) 0.30807(14)
H1_2 H 0.5409 0.2093 0.3108
C2_2 C 0.47620(16) 0.3015(2) 0.30436(15)
C3_2 C 0.47232(16) 0.3856(2) 0.29829(17)
C4_2 C 0.52686(18) 0.4328(2) 0.29660(18)
H2_2 H 0.5230 0.4894 0.2922
C5_2 C 0.58769(16) 0.3947(2) 0.30157(16)
C6_2 C 0.59432(15) 0.3106(2) 0.30789(14)
C7_2 C 0.6424(2) 0.5218(3) 0.2970(3)
H3_2 H 0.6857 0.5425 0.2974
H4_2 H 0.6283 0.5440 0.3324
H5_2 H 0.6117 0.5376 0.2581
C8_2 C 0.3876(2) 0.4808(4) 0.2543(3)
H6_2 H 0.3960 0.4674 0.2135
H7_2 H 0.4095 0.5323 0.2687
C9_2 C 0.3146(2) 0.4890(3) 0.2474(3)
C10_2 C 0.2690(3) 0.4546(3) 0.1971(3)
H8_2 H 0.2837 0.4261 0.1662
C11_2 C 0.2019(2) 0.4617(3) 0.1919(2)
H9_2 H 0.1719 0.4376 0.1577
C12_2 C 0.17863(18) 0.5038(2) 0.2366(2)
C13_2 C 0.2235(2) 0.5380(3) 0.2865(3)
H10_2 H 0.2088 0.5665 0.3174
C14_2 C 0.2910(2) 0.5306(4) 0.2915(3)
H11_2 H 0.3209 0.5547 0.3259
C15_2 C 0.41487(17) 0.2529(2) 0.30788(15)
H12_2 H 0.3933 0.2839 0.3358
C16_2 C 0.43056(18) 0.1684(2) 0.33810(16)
H13_2 H 0.4561 0.1377 0.3142
H14_2 H 0.3893 0.1392 0.3350
C17_2 C 0.4693(2) 0.1712(3) 0.40777(18)
H15_2 H 0.4774 0.1163 0.4238
H16_2 H 0.4439 0.2003 0.4321
H17_2 H 0.5108 0.1987 0.4112
C18_2 C 0.36454(16) 0.2470(2) 0.24367(15)
C19_2 C 0.29720(18) 0.2446(3) 0.24168(16)
C20_2 C 0.24986(18) 0.2403(3) 0.18444(18)
H18_2 H 0.2050 0.2383 0.1836
C21_2 C 0.27014(17) 0.2389(3) 0.12811(17)
C22_2 C 0.33644(17) 0.2416(2) 0.12758(15)
C23_2 C 0.38231(16) 0.2455(2) 0.18651(15)
H19_2 H 0.4272 0.2471 0.1874
C24_2 C 0.2142(2) 0.2602(4) 0.2995(2)
H20_2 H 0.2100 0.2602 0.3426
H21_2 H 0.1871 0.2174 0.2761
H22_2 H 0.1999 0.3122 0.2802
C25_2 C 0.1720(3) 0.2855(4) 0.0545(2)
H23_2 H 0.1881 0.3415 0.0594
H24_2 H 0.1430 0.2772 0.0827
C33_2 C 0.35606(17) 0.2395(2) 0.06436(15)
H29_2 H 0.3227 0.2722 0.0346
C34_2 C 0.3505(2) 0.1525(3) 0.03730(19)
H30_2 H 0.3870 0.1200 0.0618
H31_2 H 0.3096 0.1281 0.0424
C36_2 C 0.42208(16) 0.2809(2) 0.06801(14)
C37_2 C 0.42581(16) 0.3659(2) 0.06878(16)
C38_2 C 0.48545(16) 0.4058(2) 0.07120(16)
H35_2 H 0.4874 0.4628 0.0718
C39_2 C 0.54171(15) 0.3602(2) 0.07277(15)
C40_2 C 0.54065(16) 0.2750(2) 0.07239(14)
C41_2 C 0.47998(17) 0.2380(2) 0.07014(14)
H36_2 H 0.4782 0.1810 0.0701
C42_2 C 0.3693(2) 0.4934(3) 0.0709(2)
H37_2 H 0.3255 0.5135 0.0692
H38_2 H 0.3842 0.5154 0.0359
H39_2 H 0.3990 0.5101 0.1101
C43_2 C 0.61292(18) 0.4776(3) 0.0971(2)
H40_2 H 0.5899 0.4871 0.1301
H41_2 H 0.5962 0.5161 0.0628
C44_2 C 0.68572(18) 0.4895(2) 0.12296(19)
C45_2 C 0.7194(2) 0.5521(3) 0.1017(2)
H42_2 H 0.6971 0.5868 0.0694
C46_2 C 0.7867(2) 0.5630(3) 0.1290(2)
H43_2 H 0.8092 0.6063 0.1159
C47_2 C 0.82050(18) 0.5100(2) 0.17531(19)
C48_2 C 0.7865(2) 0.4483(3) 0.1950(2)
H44_2 H 0.8088 0.4116 0.2258
C49_2 C 0.7192(2) 0.4398(3) 0.1696(2)
H45_2 H 0.6964 0.3987 0.1850
C50_2 C 0.8920(2) 0.5212(3) 0.2061(2)
C51_2 C 0.60366(17) 0.2274(2) 0.07434(15)
H46_2 H 0.6237 0.2526 0.0426
C52_2 C 0.5940(2) 0.1367(2) 0.05659(19)
H47_2 H 0.5695 0.1112 0.0841
H48_2 H 0.6372 0.1108 0.0651
C54_2 C 0.65401(17) 0.2366(2) 0.13801(15)
C55_2 C 0.63553(16) 0.2477(2) 0.19507(15)
H52_2 H 0.5905 0.2487 0.1938
C56_2 C 0.68079(16) 0.2571(2) 0.25349(15)
C57_2 C 0.74776(17) 0.2541(2) 0.25452(15)
C58_2 C 0.76844(18) 0.2439(3) 0.19935(16)
H53_2 H 0.8135 0.2424 0.2007
C59_2 C 0.72142(18) 0.2359(3) 0.14173(16)
C60_2 C 0.8041(2) 0.2512(4) 0.0837(2)
H54_2 H 0.8105 0.2419 0.0420
H55_2 H 0.8359 0.2199 0.1142
H56_2 H 0.8098 0.3084 0.0939
C61_2 C 0.85935(19) 0.2488(3) 0.32026(18)
H57_2 H 0.8807 0.2959 0.3066
H58_2 H 0.8654 0.2018 0.2950
C62_2 C 0.88835(19) 0.2323(3) 0.38957(19)
C63_2 C 0.8726(3) 0.1605(4) 0.4154(2)
H59_2 H 0.8444 0.1229 0.3900
C64_2 C 0.8989(3) 0.1440(4) 0.4796(3)
H60_2 H 0.8876 0.0955 0.4969
C65_2 C 0.9413(2) 0.1981(4) 0.5178(2)
C66_2 C 0.9576(3) 0.2692(4) 0.4920(2)
H61_2 H 0.9869 0.3060 0.5171
C67_2 C 0.9302(2) 0.2862(4) 0.4283(2)
H62_2 H 0.9405 0.3355 0.4115
C68_2 C 0.66155(16) 0.2707(2) 0.31588(14)
H63_2 H 0.6939 0.3098 0.3401
C69_2 C 0.9708(3) 0.1799(5) 0.5871(3)
C70_2 C 0.67090(18) 0.1909(2) 0.35551(16)
H64_2 H 0.6353 0.1531 0.3370
H65_2 H 0.7125 0.1654 0.3536
C71_2 C 0.6712(3) 0.2060(3) 0.42443(19)
H66_2 H 0.6771 0.1550 0.4471
H67_2 H 0.6298 0.2303 0.4266
H68_2 H 0.7069 0.2425 0.4432
C72_2 C 0.10575(19) 0.5126(3) 0.2307(2)
O1_2 O 0.64480(12) 0.43693(16) 0.30138(15)
O2_2 O 0.41165(13) 0.42075(19) 0.29695(15)
O3_2 O 0.06743(16) 0.4701(3) 0.19042(16)
O4_2 O 0.08878(15) 0.5635(2) 0.2662(2)
O5_2 O 0.28129(13) 0.2468(2) 0.29919(12)
O6_2 O 0.22457(13) 0.2320(2) 0.06993(13)
O9_2 O 0.36791(13) 0.40676(17) 0.06712(14)
O10_2 O 0.60188(12) 0.39579(15) 0.07416(12)
O11_2 O 0.91465(15) 0.5916(2) 0.21240(19)
O12 O 0.92654(16) 0.4605(2) 0.22795(17)
O13_2 O 0.73925(13) 0.2268(2) 0.08507(12)
O14_2 O 0.79084(12) 0.26446(19) 0.31320(11)
O15_2 O 0.9473(2) 0.1180(4) 0.6087(2)
O19_2 O 0.03336(19) 0.3464(2) 0.27568(15)
Zn5 Zn 0.99380(2) 0.39793(3) 0.19584(2)
Zn6 Zn 0.99380(2) 0.10207(3) 0.69584(2)
C26_2 C 0.1343(2) 0.2706(3) 0.9867(2)
C27_2 C 0.0889(2) 0.3269(3) 0.9553(2)
H25_2 H 0.0821 0.3749 0.9759
C28_2 C 0.0531(2) 0.3134(3) 0.8937(2)
H26_2 H 0.0223 0.3521 0.8730
C29_2 C 0.06301(19) 0.2420(3) 0.86243(18)
C30_2 C 0.1077(2) 0.1860(3) 0.89394(19)
H27_2 H 0.1142 0.1375 0.8738
C31_2 C 0.1435(2) 0.2004(3) 0.9557(2)
H28_2 H 0.1742 0.1618 0.9764
C32_2 C 0.0253(2) 0.2243(3) 0.79565(18)
C35_2 C 0.3512(3) 0.1481(4) 0.9672(2)
H32_2 H 0.3475 0.0920 0.9535
H33_2 H 0.3920 0.1707 0.9617
H34_2 H 0.3145 0.1789 0.9423
C53_2 C 0.5574(3) 0.1194(3) 0.9873(2)
H49_2 H 0.5536 0.0612 0.9806
H50_2 H 0.5817 0.1428 0.9595
H51_2 H 0.5138 0.1432 0.9785
O8_2 O 0.03336(19) 0.1536(2) 0.77568(15)
O20_2 O 0.08535(15) 0.4084(2) 0.78760(19)
H70_2 H 0.00475414 0.429107 0.630039
O22_2 O 0.9473(2) 0.3820(4) 0.1087(2)
Zn1_2 Zn 0.99632(2) 0.38967(3) 0.73712(3)
O7_2 O 0.98664(13) 0.27570(19) 0.76308(13)
O17_2 O 0.9998(2) 0.3749(3) 0.64914(18)
O18_2 O 0.91122(15) 0.4365(2) 0.7338(2)
H69_2 H 0.958182 0.34844 0.624938
C65_3 C 0.9413(2) 0.3019(4) 0.0178(2)
H61_3 H 0.9869 0.1940 0.0171
C69_3 C 0.9708(3) 0.3201(5) 0.0871(3)
C1_3 C 0.53753(16) 0.2339(2) 0.80807(14)
H1_3 H 0.5409 0.2907 0.8108
C2_3 C 0.47620(16) 0.1985(2) 0.80436(15)
C3_3 C 0.47232(16) 0.1144(2) 0.79829(17)
C4_3 C 0.52686(18) 0.0672(2) 0.79660(18)
H2_3 H 0.5230 0.0106 0.7922
C5_3 C 0.58769(16) 0.1053(2) 0.80157(16)
C6_3 C 0.59432(15) 0.1894(2) 0.80789(14)
C8_3 C 0.3876(2) 0.0192(4) 0.7543(3)
H6_3 H 0.3960 0.0326 0.7135
C9_3 C 0.3146(2) 0.0110(3) 0.7474(3)
C10_3 C 0.2690(3) 0.0454(3) 0.6971(3)
H8_3 H 0.2837 0.0739 0.6662
C11_3 C 0.2019(2) 0.0383(3) 0.6919(2)
H9_3 H 0.1719 0.0624 0.6577
C15_3 C 0.41487(17) 0.2471(2) 0.80788(15)
H12_3 H 0.3933 0.2161 0.8358
C16_3 C 0.43056(18) 0.3316(2) 0.83810(16)
H13_3 H 0.4561 0.3623 0.8142
H14_3 H 0.3893 0.3608 0.8350
C17_3 C 0.4693(2) 0.3288(3) 0.90777(18)
H15_3 H 0.4774 0.3837 0.9238
H16_3 H 0.4439 0.2997 0.9321
H17_3 H 0.5108 0.3013 0.9112
C18_3 C 0.36454(16) 0.2530(2) 0.74367(15)
C19_3 C 0.29720(18) 0.2554(3) 0.74168(16)
C20_3 C 0.24986(18) 0.2597(3) 0.68444(18)
H18_3 H 0.2050 0.2617 0.6836
C21_3 C 0.27014(17) 0.2611(3) 0.62811(17)
C22_3 C 0.33644(17) 0.2584(2) 0.62758(15)
C23_3 C 0.38231(16) 0.2545(2) 0.68651(15)
H19_3 H 0.4272 0.2529 0.6874
C24_3 C 0.2142(2) 0.2398(4) 0.7995(2)
H20_3 H 0.2100 0.2398 0.8426
H21_3 H 0.1871 0.2826 0.7761
H22_3 H 0.1999 0.1878 0.7802
C25_3 C 0.1720(3) 0.2145(4) 0.5545(2)
H23_3 H 0.1881 0.1585 0.5594
H24_3 H 0.1430 0.2228 0.5827
C26_3 C 0.1343(2) 0.2294(3) 0.4867(2)
C27_3 C 0.0889(2) 0.1731(3) 0.4553(2)
H25_3 H 0.0821 0.1251 0.4759
C28_3 C 0.0531(2) 0.1866(3) 0.3937(2)
H26_3 H 0.0223 0.1479 0.3730
C29_3 C 0.06301(19) 0.2580(3) 0.36243(18)
C30_3 C 0.1077(2) 0.3140(3) 0.39394(19)
H27_3 H 0.1142 0.3625 0.3738
C31_3 C 0.1435(2) 0.2996(3) 0.4557(2)
H28_3 H 0.1742 0.3382 0.4764
C32_3 C 0.0253(2) 0.2757(3) 0.29565(18)
C33_3 C 0.35606(17) 0.2605(2) 0.56436(15)
H29_3 H 0.3227 0.2278 0.5346
C34_3 C 0.3505(2) 0.3475(3) 0.53730(19)
H30_3 H 0.3870 0.3800 0.5618
H31_3 H 0.3096 0.3719 0.5424
C35_3 C 0.3512(3) 0.3519(4) 0.4672(2)
H32_3 H 0.3475 0.4080 0.4535
H33_3 H 0.3920 0.3293 0.4617
H34_3 H 0.3145 0.3211 0.4423
C36_3 C 0.42208(16) 0.2191(2) 0.56801(14)
C37_3 C 0.42581(16) 0.1341(2) 0.56878(16)
C38_3 C 0.48545(16) 0.0942(2) 0.57120(16)
H35_3 H 0.4874 0.0372 0.5718
C39_3 C 0.54171(15) 0.1398(2) 0.57277(15)
C40_3 C 0.54065(16) 0.2250(2) 0.57239(14)
C41_3 C 0.47998(17) 0.2620(2) 0.57014(14)
H36_3 H 0.4782 0.3190 0.5701
C42_3 C 0.3693(2) 0.0066(3) 0.5709(2)
C43_3 C 0.61292(18) 0.0224(3) 0.5971(2)
H40_3 H 0.5899 0.0129 0.6301
C44_3 C 0.68572(18) 0.0105(2) 0.62296(19)
C48_3 C 0.7865(2) 0.0517(3) 0.6950(2)
H44_3 H 0.8088 0.0884 0.7258
C49_3 C 0.7192(2) 0.0602(3) 0.6696(2)
H45_3 H 0.6964 0.1013 0.6850
C51_3 C 0.60366(17) 0.2726(2) 0.57434(15)
H46_3 H 0.6237 0.2474 0.5426
C52_3 C 0.5940(2) 0.3633(2) 0.55659(19)
H47_3 H 0.5695 0.3888 0.5841
H48_3 H 0.6372 0.3892 0.5651
C53_3 C 0.5574(3) 0.3806(3) 0.4873(2)
H49_3 H 0.5536 0.4388 0.4806
H50_3 H 0.5817 0.3572 0.4595
H51_3 H 0.5138 0.3568 0.4785
C54_3 C 0.65401(17) 0.2634(2) 0.63801(15)
C55_3 C 0.63553(16) 0.2523(2) 0.69507(15)
H52_3 H 0.5905 0.2513 0.6938
C56_3 C 0.68079(16) 0.2429(2) 0.75349(15)
C57_3 C 0.74776(17) 0.2459(2) 0.75452(15)
C58_3 C 0.76844(18) 0.2561(3) 0.69935(16)
H53_3 H 0.8135 0.2576 0.7007
C59_3 C 0.72142(18) 0.2641(3) 0.64173(16)
C60_3 C 0.8041(2) 0.2488(4) 0.5837(2)
H54_3 H 0.8105 0.2581 0.5420
H55_3 H 0.8359 0.2801 0.6142
H56_3 H 0.8098 0.1916 0.5939
C61_3 C 0.85935(19) 0.2512(3) 0.82026(18)
H57_3 H 0.8807 0.2041 0.8066
H58_3 H 0.8654 0.2982 0.7950
C62_3 C 0.88835(19) 0.2677(3) 0.88957(19)
C63_3 C 0.8726(3) 0.3395(4) 0.9154(2)
H59_3 H 0.8444 0.3771 0.8900
C64_3 C 0.8989(3) 0.3560(4) 0.9796(3)
H60_3 H 0.8876 0.4045 0.9969
C66_3 C 0.9576(3) 0.2308(4) 0.9920(2)
C67_3 C 0.9302(2) 0.2138(4) 0.9283(2)
H62_3 H 0.9405 0.1645 0.9115
C68_3 C 0.66155(16) 0.2293(2) 0.81588(14)
H63_3 H 0.6939 0.1902 0.8401
C70_3 C 0.67090(18) 0.3091(2) 0.85551(16)
H64_3 H 0.6353 0.3469 0.8370
H65_3 H 0.7125 0.3346 0.8536
C71_3 C 0.6712(3) 0.2940(3) 0.92443(19)
H66_3 H 0.6771 0.3450 0.9471
H67_3 H 0.6298 0.2697 0.9266
H68_3 H 0.7069 0.2575 0.9432
O1_3 O 0.64480(12) 0.06307(16) 0.80138(15)
O2_3 O 0.41165(13) 0.07925(19) 0.79695(15)
O3_3 O 0.06743(16) 0.0299(3) 0.69042(16)
O5_3 O 0.28129(13) 0.2532(2) 0.79919(12)
O6_3 O 0.22457(13) 0.2680(2) 0.56993(13)
O9_3 O 0.36791(13) 0.09324(17) 0.56712(14)
O10_3 O 0.60188(12) 0.10421(15) 0.57416(12)
O12_2 O 0.92654(16) 0.0395(2) 0.72795(17)
O13_3 O 0.73925(13) 0.2732(2) 0.58507(12)
O14_3 O 0.79084(12) 0.23554(19) 0.81320(11)
H70_3 H 0.00475414 0.0708927 0.130039
C7_3 C 0.6424(2) 0.9782(3) 0.7970(3)
H3_3 H 0.6857 0.9575 0.7974
H4_3 H 0.6283 0.9560 0.8324
H5_3 H 0.6117 0.9624 0.7581
H7_3 H 0.4095 0.9677 0.7687
C12_3 C 0.17863(18) 0.9962(2) 0.7366(2)
C13_3 C 0.2235(2) 0.9620(3) 0.7865(3)
H10_3 H 0.2088 0.9335 0.8174
C14_3 C 0.2910(2) 0.9694(4) 0.7915(3)
H11_3 H 0.3209 0.9453 0.8259
H37_3 H 0.3255 0.9865 0.5692
H38_3 H 0.3842 0.9846 0.5359
H39_3 H 0.3990 0.9899 0.6101
H41_3 H 0.5962 0.9839 0.5628
C45_3 C 0.7194(2) 0.9479(3) 0.6017(2)
H42_3 H 0.6971 0.9132 0.5694
C46_3 C 0.7867(2) 0.9370(3) 0.6290(2)
H43_3 H 0.8092 0.8937 0.6159
C47_3 C 0.82050(18) 0.9900(2) 0.67531(19)
C50_3 C 0.8920(2) 0.9788(3) 0.7061(2)
C72_3 C 0.10575(19) 0.9874(3) 0.7307(2)
O7_3 O 0.98664(13) 0.22430(19) 0.26308(13)
O17_3 O 0.9998(2) 0.1251(3) 0.14914(18)
H69_3 H 0.958182 0.15156 0.124938
O7_4 O 0.01336(13) 0.72430(19) 0.23692(13)
O17_4 O 0.0002(2) 0.6251(3) 0.35086(18)
H69_4 H 0.0418183 0.65156 0.375062
O21_2 O 0.07346(16) 0.5395(2) 0.77205(17)
C26_4 C 0.8657(2) 0.7294(3) 0.0133(2)
C27_4 C 0.9111(2) 0.6731(3) 0.0447(2)
H25_4 H 0.9179 0.6251 0.0241
C28_4 C 0.9469(2) 0.6866(3) 0.1063(2)
H26_4 H 0.9777 0.6479 0.1270
C29_4 C 0.93699(19) 0.7580(3) 0.13757(18)
C30_4 C 0.8923(2) 0.8140(3) 0.10606(19)
H27_4 H 0.8858 0.8625 0.1262
C31_4 C 0.8565(2) 0.7996(3) 0.0443(2)
H28_4 H 0.8258 0.8382 0.0236
C32_4 C 0.9747(2) 0.7757(3) 0.20435(18)
C35_4 C 0.6488(3) 0.8519(4) 0.0328(2)
H32_4 H 0.6525 0.9080 0.0465
H33_4 H 0.6080 0.8293 0.0383
H34_4 H 0.6855 0.8211 0.0577
C53_4 C 0.4426(3) 0.8806(3) 0.0127(2)
H49_4 H 0.4464 0.9388 0.0194
H50_4 H 0.4183 0.8572 0.0405
H51_4 H 0.4862 0.8568 0.0215
H70_4 H 0.995246 0.570893 0.369961
C1_4 C 0.46247(16) 0.7339(2) 0.69193(14)
H1_4 H 0.4591 0.7907 0.6892
C2_4 C 0.52380(16) 0.6985(2) 0.69564(15)
C3_4 C 0.52768(16) 0.6144(2) 0.70171(17)
C4_4 C 0.47314(18) 0.5672(2) 0.70340(18)
H2_4 H 0.4770 0.5106 0.7078
C5_4 C 0.41231(16) 0.6053(2) 0.69843(16)
C6_4 C 0.40568(15) 0.6894(2) 0.69211(14)
C7_4 C 0.3576(2) 0.4782(3) 0.7030(3)
H3_4 H 0.3143 0.4575 0.7026
H4_4 H 0.3717 0.4560 0.6676
H5_4 H 0.3883 0.4624 0.7419
C8_4 C 0.6124(2) 0.5192(4) 0.7457(3)
H6_4 H 0.6040 0.5326 0.7865
H7_4 H 0.5905 0.4677 0.7313
C9_4 C 0.6854(2) 0.5110(3) 0.7526(3)
C10_4 C 0.7310(3) 0.5454(3) 0.8029(3)
H8_4 H 0.7163 0.5739 0.8338
C11_4 C 0.7981(2) 0.5383(3) 0.8081(2)
H9_4 H 0.8281 0.5624 0.8423
C12_4 C 0.82137(18) 0.4962(2) 0.7634(2)
C13_4 C 0.7765(2) 0.4620(3) 0.7135(3)
H10_4 H 0.7912 0.4335 0.6826
C14_4 C 0.7090(2) 0.4694(4) 0.7085(3)
H11_4 H 0.6791 0.4453 0.6741
C15_4 C 0.58513(17) 0.7471(2) 0.69212(15)
H12_4 H 0.6067 0.7161 0.6642
C16_4 C 0.56944(18) 0.8316(2) 0.66190(16)
H13_4 H 0.5439 0.8623 0.6858
H14_4 H 0.6107 0.8608 0.6650
C17_4 C 0.5307(2) 0.8288(3) 0.59223(18)
H15_4 H 0.5226 0.8837 0.5762
H16_4 H 0.5561 0.7997 0.5679
H17_4 H 0.4892 0.8013 0.5888
C18_4 C 0.63546(16) 0.7530(2) 0.75633(15)
C19_4 C 0.70280(18) 0.7554(3) 0.75832(16)
C20_4 C 0.75014(18) 0.7597(3) 0.81556(18)
H18_4 H 0.7950 0.7617 0.8164
C21_4 C 0.72986(17) 0.7611(3) 0.87189(17)
C22_4 C 0.66356(17) 0.7584(2) 0.87242(15)
C23_4 C 0.61769(16) 0.7545(2) 0.81349(15)
H19_4 H 0.5728 0.7529 0.8126
C24_4 C 0.7858(2) 0.7398(4) 0.7005(2)
H20_4 H 0.7900 0.7398 0.6574
H21_4 H 0.8129 0.7826 0.7239
H22_4 H 0.8001 0.6878 0.7198
C25_4 C 0.8280(3) 0.7145(4) 0.9455(2)
H23_4 H 0.8119 0.6585 0.9406
H24_4 H 0.8570 0.7228 0.9173
C33_4 C 0.64394(17) 0.7605(2) 0.93564(15)
H29_4 H 0.6773 0.7278 0.9654
C34_4 C 0.6495(2) 0.8475(3) 0.96270(19)
H30_4 H 0.6130 0.8800 0.9382
H31_4 H 0.6904 0.8719 0.9576
C36_4 C 0.57792(16) 0.7191(2) 0.93199(14)
C37_4 C 0.57419(16) 0.6341(2) 0.93122(16)
C38_4 C 0.51455(16) 0.5942(2) 0.92880(16)
H35_4 H 0.5126 0.5372 0.9282
C39_4 C 0.45829(15) 0.6398(2) 0.92723(15)
C40_4 C 0.45935(16) 0.7250(2) 0.92761(14)
C41_4 C 0.52002(17) 0.7620(2) 0.92986(14)
H36_4 H 0.5218 0.8190 0.9299
C42_4 C 0.6307(2) 0.5066(3) 0.9291(2)
H37_4 H 0.6745 0.4865 0.9308
H38_4 H 0.6158 0.4846 0.9641
H39_4 H 0.6010 0.4899 0.8899
C43_4 C 0.38708(18) 0.5224(3) 0.9029(2)
H40_4 H 0.4101 0.5129 0.8699
H41_4 H 0.4038 0.4839 0.9372
C44_4 C 0.31428(18) 0.5105(2) 0.87704(19)
C45_4 C 0.2806(2) 0.4479(3) 0.8983(2)
H42_4 H 0.3029 0.4132 0.9306
C46_4 C 0.2133(2) 0.4370(3) 0.8710(2)
H43_4 H 0.1908 0.3937 0.8841
C47_4 C 0.17950(18) 0.4900(2) 0.82469(19)
C48_4 C 0.2135(2) 0.5517(3) 0.8050(2)
H44_4 H 0.1912 0.5884 0.7742
C49_4 C 0.2808(2) 0.5602(3) 0.8304(2)
H45_4 H 0.3036 0.6013 0.8150
C50_4 C 0.1080(2) 0.4788(3) 0.7939(2)
C51_4 C 0.39634(17) 0.7726(2) 0.92566(15)
H46_4 H 0.3763 0.7474 0.9574
C52_4 C 0.4060(2) 0.8633(2) 0.94341(19)
H47_4 H 0.4305 0.8888 0.9159
H48_4 H 0.3628 0.8892 0.9349
C54_4 C 0.34599(17) 0.7634(2) 0.86199(15)
C55_4 C 0.36447(16) 0.7523(2) 0.80493(15)
H52_4 H 0.4095 0.7513 0.8062
C56_4 C 0.31921(16) 0.7429(2) 0.74651(15)
C57_4 C 0.25224(17) 0.7459(2) 0.74548(15)
C58_4 C 0.23156(18) 0.7561(3) 0.80065(16)
H53_4 H 0.1865 0.7576 0.7993
C59_4 C 0.27858(18) 0.7641(3) 0.85827(16)
C60_4 C 0.1959(2) 0.7488(4) 0.9163(2)
H54_4 H 0.1895 0.7581 0.9580
H55_4 H 0.1641 0.7801 0.8858
H56_4 H 0.1902 0.6916 0.9061
C61_4 C 0.14065(19) 0.7512(3) 0.67974(18)
H57_4 H 0.1193 0.7041 0.6934
H58_4 H 0.1346 0.7982 0.7050
C62_4 C 0.11165(19) 0.7677(3) 0.61043(19)
C63_4 C 0.1274(3) 0.8395(4) 0.5846(2)
H59_4 H 0.1556 0.8771 0.6100
C64_4 C 0.1011(3) 0.8560(4) 0.5204(3)
H60_4 H 0.1124 0.9045 0.5031
C65_4 C 0.0587(2) 0.8019(4) 0.4822(2)
C66_4 C 0.0424(3) 0.7308(4) 0.5080(2)
H61_4 H 0.0131 0.6940 0.4829
C67_4 C 0.0698(2) 0.7138(4) 0.5717(2)
H62_4 H 0.0595 0.6645 0.5885
C68_4 C 0.33845(16) 0.7293(2) 0.68412(14)
H63_4 H 0.3061 0.6902 0.6599
C69_4 C 0.0292(3) 0.8201(5) 0.4129(3)
C70_4 C 0.32910(18) 0.8091(2) 0.64449(16)
H64_4 H 0.3647 0.8469 0.6630
H65_4 H 0.2875 0.8346 0.6464
C71_4 C 0.3288(3) 0.7940(3) 0.57557(19)
H66_4 H 0.3229 0.8450 0.5529
H67_4 H 0.3702 0.7697 0.5734
H68_4 H 0.2931 0.7575 0.5568
C72_4 C 0.89425(19) 0.4874(3) 0.7693(2)
O1_4 O 0.35520(12) 0.56307(16) 0.69862(15)
O2_4 O 0.58835(13) 0.57925(19) 0.70305(15)
O3_4 O 0.93257(16) 0.5299(3) 0.80958(16)
O5_4 O 0.71871(13) 0.7532(2) 0.70081(12)
O6_4 O 0.77543(13) 0.7680(2) 0.93007(13)
O9_4 O 0.63209(13) 0.59324(17) 0.93288(14)
O10_4 O 0.39812(12) 0.60421(15) 0.92584(12)
O13_4 O 0.26075(13) 0.7732(2) 0.91493(12)
O14_4 O 0.20916(12) 0.73554(19) 0.68680(11)
O16_2 O 0.9853(3) 0.7766(3) 0.37950(19)
O16_3 O 0.9853(3) 0.7234(3) 0.87950(19)
O16_4 O 0.0147(3) 0.2766(3) 0.12050(19)
loop_
_geom_bond_atom_site_label_1
_geom_bond_atom_site_label_2
_geom_bond_site_symmetry_1
_geom_bond_site_symmetry_2
Zn1 O7 1_555 1_555
O17 Zn1 1_555 1_555
O18 Zn1 1_555 1_555
O21 Zn2 1_555 1_555
O22 Zn2 1_555 1_555
O17 H69 1_555 1_555
C7 H3 1_555 1_555
H4 C7 1_555 1_555
H5 C7 1_555 1_555
C13 C12 1_555 1_555
H10 C13 1_555 1_555
H11 C14 1_555 1_555
H42 C45 1_555 1_555
C46 C45 1_555 1_555
H43 C46 1_555 1_555
C47 C46 1_555 1_555
C50 C47 1_555 1_555
C72 C12 1_555 1_555
O4 C72 1_555 1_555
O11 C50 1_555 1_555
Zn4 O4 1_555 1_555
C13 C14 1_555 1_555
C1 H1 1_555 1_555
C2 C1 1_555 1_555
C3 C2 1_555 1_555
C4 C3 1_555 1_555
H2 C4 1_555 1_555
C5 C4 1_555 1_555
C6 C1 1_555 1_555
C8 H6 1_555 1_555
C9 C8 1_555 1_555
C10 C9 1_555 1_555
H8 C10 1_555 1_555
C11 C10 1_555 1_555
H9 C11 1_555 1_555
C15 C2 1_555 1_555
H12 C15 1_555 1_555
C16 C15 1_555 1_555
H13 C16 1_555 1_555
H14 C16 1_555 1_555
C17 C16 1_555 1_555
H15 C17 1_555 1_555
H16 C17 1_555 1_555
H17 C17 1_555 1_555
C18 C15 1_555 1_555
C19 C18 1_555 1_555
C20 C19 1_555 1_555
H18 C20 1_555 1_555
C21 C20 1_555 1_555
C22 C21 1_555 1_555
C23 C18 1_555 1_555
H19 C23 1_555 1_555
C24 H20 1_555 1_555
H21 C24 1_555 1_555
H22 C24 1_555 1_555
C25 H23 1_555 1_555
H24 C25 1_555 1_555
C26 C25 1_555 1_555
C27 C26 1_555 1_555
H25 C27 1_555 1_555
C28 C27 1_555 1_555
H26 C28 1_555 1_555
C29 C28 1_555 1_555
C30 C29 1_555 1_555
H27 C30 1_555 1_555
C31 C26 1_555 1_555
H28 C31 1_555 1_555
C32 C29 1_555 1_555
C33 C22 1_555 1_555
H29 C33 1_555 1_555
C34 C33 1_555 1_555
H30 C34 1_555 1_555
H31 C34 1_555 1_555
C35 C34 1_555 1_555
H32 C35 1_555 1_555
H33 C35 1_555 1_555
H34 C35 1_555 1_555
C36 C33 1_555 1_555
C37 C36 1_555 1_555
C38 C37 1_555 1_555
H35 C38 1_555 1_555
C39 C38 1_555 1_555
C40 C39 1_555 1_555
C41 C36 1_555 1_555
H36 C41 1_555 1_555
C43 H40 1_555 1_555
C44 C43 1_555 1_555
H44 C48 1_555 1_555
C49 C44 1_555 1_555
H45 C49 1_555 1_555
C51 C40 1_555 1_555
H46 C51 1_555 1_555
C52 C51 1_555 1_555
H47 C52 1_555 1_555
H48 C52 1_555 1_555
C53 C52 1_555 1_555
H49 C53 1_555 1_555
H50 C53 1_555 1_555
H51 C53 1_555 1_555
C54 C51 1_555 1_555
C55 C54 1_555 1_555
H52 C55 1_555 1_555
C56 C55 1_555 1_555
C57 C56 1_555 1_555
C58 C57 1_555 1_555
H53 C58 1_555 1_555
C59 C54 1_555 1_555
C60 H54 1_555 1_555
H55 C60 1_555 1_555
H56 C60 1_555 1_555
C61 H57 1_555 1_555
H58 C61 1_555 1_555
C62 C61 1_555 1_555
C63 C62 1_555 1_555
H59 C63 1_555 1_555
C64 C63 1_555 1_555
H60 C64 1_555 1_555
C67 C62 1_555 1_555
H62 C67 1_555 1_555
C68 C6 1_555 1_555
H63 C68 1_555 1_555
C70 C68 1_555 1_555
H64 C70 1_555 1_555
H65 C70 1_555 1_555
C71 C70 1_555 1_555
H66 C71 1_555 1_555
H67 C71 1_555 1_555
H68 C71 1_555 1_555
O1 C5 1_555 1_555
O2 C3 1_555 1_555
O5 C19 1_555 1_555
O6 C21 1_555 1_555
O8 C32 1_555 1_555
O9 C37 1_555 1_555
O10 C39 1_555 1_555
O13 C59 1_555 1_555
O14 C57 1_555 1_555
C5 C6 1_555 1_555
C8 O2 1_555 1_555
C22 C23 1_555 1_555
C24 O5 1_555 1_555
C25 O6 1_555 1_555
C30 C31 1_555 1_555
C40 C41 1_555 1_555
C42 O9 1_555 1_555
C43 O10 1_555 1_555
C48 C49 1_555 1_555
C56 C68 1_555 1_555
C58 C59 1_555 1_555
C60 O13 1_555 1_555
C61 O14 1_555 1_555
C66 C67 1_555 1_555
C69 C65 1_555 1_555
O15 C69 1_555 1_555
Zn7 O15 1_555 1_555
C1_2 H1_2 1_555 1_555
C2_2 C1_2 1_555 1_555
C3_2 C2_2 1_555 1_555
C4_2 C3_2 1_555 1_555
H2_2 C4_2 1_555 1_555
C5_2 C4_2 1_555 1_555
C6_2 C1_2 1_555 1_555
C7_2 H3_2 1_555 1_555
H4_2 C7_2 1_555 1_555
H5_2 C7_2 1_555 1_555
C8_2 H6_2 1_555 1_555
H7_2 C8_2 1_555 1_555
C9_2 C8_2 1_555 1_555
C10_2 C9_2 1_555 1_555
H8_2 C10_2 1_555 1_555
C11_2 C10_2 1_555 1_555
H9_2 C11_2 1_555 1_555
C12_2 C11_2 1_555 1_555
C13_2 C12_2 1_555 1_555
H10_2 C13_2 1_555 1_555
C14_2 C9_2 1_555 1_555
H11_2 C14_2 1_555 1_555
C15_2 C2_2 1_555 1_555
H12_2 C15_2 1_555 1_555
C16_2 C15_2 1_555 1_555
H13_2 C16_2 1_555 1_555
H14_2 C16_2 1_555 1_555
C17_2 C16_2 1_555 1_555
H15_2 C17_2 1_555 1_555
H16_2 C17_2 1_555 1_555
H17_2 C17_2 1_555 1_555
C18_2 C15_2 1_555 1_555
C19_2 C18_2 1_555 1_555
C20_2 C19_2 1_555 1_555
H18_2 C20_2 1_555 1_555
C21_2 C20_2 1_555 1_555
C22_2 C21_2 1_555 1_555
C23_2 C18_2 1_555 1_555
H19_2 C23_2 1_555 1_555
C24_2 H20_2 1_555 1_555
H21_2 C24_2 1_555 1_555
H22_2 C24_2 1_555 1_555
C25_2 H23_2 1_555 1_555
H24_2 C25_2 1_555 1_555
C33_2 C22_2 1_555 1_555
H29_2 C33_2 1_555 1_555
C34_2 C33_2 1_555 1_555
H30_2 C34_2 1_555 1_555
H31_2 C34_2 1_555 1_555
C36_2 C33_2 1_555 1_555
C37_2 C36_2 1_555 1_555
C38_2 C37_2 1_555 1_555
H35_2 C38_2 1_555 1_555
C39_2 C38_2 1_555 1_555
C40_2 C39_2 1_555 1_555
C41_2 C36_2 1_555 1_555
H36_2 C41_2 1_555 1_555
C42_2 H37_2 1_555 1_555
H38_2 C42_2 1_555 1_555
H39_2 C42_2 1_555 1_555
C43_2 H40_2 1_555 1_555
H41_2 C43_2 1_555 1_555
C44_2 C43_2 1_555 1_555
C45_2 C44_2 1_555 1_555
H42_2 C45_2 1_555 1_555
C46_2 C45_2 1_555 1_555
H43_2 C46_2 1_555 1_555
C47_2 C46_2 1_555 1_555
C48_2 C47_2 1_555 1_555
H44_2 C48_2 1_555 1_555
C49_2 C44_2 1_555 1_555
H45_2 C49_2 1_555 1_555
C50_2 C47_2 1_555 1_555
C51_2 C40_2 1_555 1_555
H46_2 C51_2 1_555 1_555
C52_2 C51_2 1_555 1_555
H47_2 C52_2 1_555 1_555
H48_2 C52_2 1_555 1_555
C54_2 C51_2 1_555 1_555
C55_2 C54_2 1_555 1_555
H52_2 C55_2 1_555 1_555
C56_2 C55_2 1_555 1_555
C57_2 C56_2 1_555 1_555
C58_2 C57_2 1_555 1_555
H53_2 C58_2 1_555 1_555
C59_2 C54_2 1_555 1_555
C60_2 H54_2 1_555 1_555
H55_2 C60_2 1_555 1_555
H56_2 C60_2 1_555 1_555
C61_2 H57_2 1_555 1_555
H58_2 C61_2 1_555 1_555
C62_2 C61_2 1_555 1_555
C63_2 C62_2 1_555 1_555
H59_2 C63_2 1_555 1_555
C64_2 C63_2 1_555 1_555
H60_2 C64_2 1_555 1_555
C65_2 C64_2 1_555 1_555
C66_2 C65_2 1_555 1_555
H61_2 C66_2 1_555 1_555
C67_2 C62_2 1_555 1_555
H62_2 C67_2 1_555 1_555
C68_2 C6_2 1_555 1_555
H63_2 C68_2 1_555 1_555
C69_2 C65_2 1_555 1_555
C70_2 C68_2 1_555 1_555
H64_2 C70_2 1_555 1_555
H65_2 C70_2 1_555 1_555
C71_2 C70_2 1_555 1_555
H66_2 C71_2 1_555 1_555
H67_2 C71_2 1_555 1_555
H68_2 C71_2 1_555 1_555
C72_2 C12_2 1_555 1_555
O1_2 C5_2 1_555 1_555
O2_2 C3_2 1_555 1_555
O3_2 C72_2 1_555 1_555
O4_2 C72_2 1_555 1_555
O5_2 C19_2 1_555 1_555
O6_2 C21_2 1_555 1_555
O9_2 C37_2 1_555 1_555
O10_2 C39_2 1_555 1_555
O11_2 C50_2 1_555 1_555
O12 C50_2 1_555 1_555
O13_2 C59_2 1_555 1_555
O14_2 C57_2 1_555 1_555
O15_2 C69_2 1_555 1_555
Zn3 O4_2 1_555 1_555
Zn5 O12 1_555 1_555
Zn6 O15_2 1_555 1_555
C5_2 C6_2 1_555 1_555
C7_2 O1_2 1_555 1_555
C8_2 O2_2 1_555 1_555
C13_2 C14_2 1_555 1_555
C22_2 C23_2 1_555 1_555
C24_2 O5_2 1_555 1_555
C25_2 O6_2 1_555 1_555
C40_2 C41_2 1_555 1_555
C42_2 O9_2 1_555 1_555
C43_2 O10_2 1_555 1_555
C48_2 C49_2 1_555 1_555
C56_2 C68_2 1_555 1_555
C58_2 C59_2 1_555 1_555
C60_2 O13_2 1_555 1_555
C61_2 O14_2 1_555 1_555
C66_2 C67_2 1_555 1_555
C27_2 C26_2 1_555 1_555
H25_2 C27_2 1_555 1_555
C28_2 C27_2 1_555 1_555
H26_2 C28_2 1_555 1_555
C29_2 C28_2 1_555 1_555
C30_2 C29_2 1_555 1_555
H27_2 C30_2 1_555 1_555
C31_2 C26_2 1_555 1_555
H28_2 C31_2 1_555 1_555
C32_2 C29_2 1_555 1_555
H32_2 C35_2 1_555 1_555
H33_2 C35_2 1_555 1_555
H34_2 C35_2 1_555 1_555
H49_2 C53_2 1_555 1_555
H50_2 C53_2 1_555 1_555
H51_2 C53_2 1_555 1_555
O8_2 C32_2 1_555 1_555
C30_2 C31_2 1_555 1_555
O22_2 Zn5 1_555 1_555
Zn1_2 O7_2 1_555 1_555
O17_2 Zn1_2 1_555 1_555
O18_2 Zn1_2 1_555 1_555
O17_2 H69_2 1_555 1_555
C69_3 C65_3 1_555 1_555
O22_2 C69_3 1_555 1_555
C1_3 H1_3 1_555 1_555
C2_3 C1_3 1_555 1_555
C3_3 C2_3 1_555 1_555
C4_3 C3_3 1_555 1_555
H2_3 C4_3 1_555 1_555
C5_3 C4_3 1_555 1_555
C6_3 C1_3 1_555 1_555
C8_3 H6_3 1_555 1_555
C9_3 C8_3 1_555 1_555
C10_3 C9_3 1_555 1_555
H8_3 C10_3 1_555 1_555
C11_3 C10_3 1_555 1_555
H9_3 C11_3 1_555 1_555
C15_3 C2_3 1_555 1_555
H12_3 C15_3 1_555 1_555
C16_3 C15_3 1_555 1_555
H13_3 C16_3 1_555 1_555
H14_3 C16_3 1_555 1_555
C17_3 C16_3 1_555 1_555
H15_3 C17_3 1_555 1_555
H16_3 C17_3 1_555 1_555
H17_3 C17_3 1_555 1_555
C18_3 C15_3 1_555 1_555
C19_3 C18_3 1_555 1_555
C20_3 C19_3 1_555 1_555
H18_3 C20_3 1_555 1_555
C21_3 C20_3 1_555 1_555
C22_3 C21_3 1_555 1_555
C23_3 C18_3 1_555 1_555
H19_3 C23_3 1_555 1_555
C24_3 H20_3 1_555 1_555
H21_3 C24_3 1_555 1_555
H22_3 C24_3 1_555 1_555
C25_3 H23_3 1_555 1_555
H24_3 C25_3 1_555 1_555
C26_3 C25_3 1_555 1_555
C27_3 C26_3 1_555 1_555
H25_3 C27_3 1_555 1_555
C28_3 C27_3 1_555 1_555
H26_3 C28_3 1_555 1_555
C29_3 C28_3 1_555 1_555
C30_3 C29_3 1_555 1_555
H27_3 C30_3 1_555 1_555
C31_3 C26_3 1_555 1_555
H28_3 C31_3 1_555 1_555
C32_3 C29_3 1_555 1_555
C33_3 C22_3 1_555 1_555
H29_3 C33_3 1_555 1_555
C34_3 C33_3 1_555 1_555
H30_3 C34_3 1_555 1_555
H31_3 C34_3 1_555 1_555
C35_3 C34_3 1_555 1_555
H32_3 C35_3 1_555 1_555
H33_3 C35_3 1_555 1_555
H34_3 C35_3 1_555 1_555
C36_3 C33_3 1_555 1_555
C37_3 C36_3 1_555 1_555
C38_3 C37_3 1_555 1_555
H35_3 C38_3 1_555 1_555
C39_3 C38_3 1_555 1_555
C40_3 C39_3 1_555 1_555
C41_3 C36_3 1_555 1_555
H36_3 C41_3 1_555 1_555
C43_3 H40_3 1_555 1_555
C44_3 C43_3 1_555 1_555
H44_3 C48_3 1_555 1_555
C49_3 C44_3 1_555 1_555
H45_3 C49_3 1_555 1_555
C51_3 C40_3 1_555 1_555
H46_3 C51_3 1_555 1_555
C52_3 C51_3 1_555 1_555
H47_3 C52_3 1_555 1_555
H48_3 C52_3 1_555 1_555
C53_3 C52_3 1_555 1_555
H49_3 C53_3 1_555 1_555
H50_3 C53_3 1_555 1_555
H51_3 C53_3 1_555 1_555
C54_3 C51_3 1_555 1_555
C55_3 C54_3 1_555 1_555
H52_3 C55_3 1_555 1_555
C56_3 C55_3 1_555 1_555
C57_3 C56_3 1_555 1_555
C58_3 C57_3 1_555 1_555
H53_3 C58_3 1_555 1_555
C59_3 C54_3 1_555 1_555
C60_3 H54_3 1_555 1_555
H55_3 C60_3 1_555 1_555
H56_3 C60_3 1_555 1_555
C61_3 H57_3 1_555 1_555
H58_3 C61_3 1_555 1_555
C62_3 C61_3 1_555 1_555
C63_3 C62_3 1_555 1_555
H59_3 C63_3 1_555 1_555
C64_3 C63_3 1_555 1_555
H60_3 C64_3 1_555 1_555
C67_3 C62_3 1_555 1_555
H62_3 C67_3 1_555 1_555
C68_3 C6_3 1_555 1_555
H63_3 C68_3 1_555 1_555
C70_3 C68_3 1_555 1_555
H64_3 C70_3 1_555 1_555
H65_3 C70_3 1_555 1_555
C71_3 C70_3 1_555 1_555
H66_3 C71_3 1_555 1_555
H67_3 C71_3 1_555 1_555
H68_3 C71_3 1_555 1_555
O1_3 C5_3 1_555 1_555
O2_3 C3_3 1_555 1_555
O5_3 C19_3 1_555 1_555
O6_3 C21_3 1_555 1_555
O19_2 C32_3 1_555 1_555
O9_3 C37_3 1_555 1_555
O10_3 C39_3 1_555 1_555
O13_3 C59_3 1_555 1_555
O14_3 C57_3 1_555 1_555
Zn6 O12_2 1_555 1_555
C5_3 C6_3 1_555 1_555
C8_3 O2_3 1_555 1_555
C22_3 C23_3 1_555 1_555
C24_3 O5_3 1_555 1_555
C25_3 O6_3 1_555 1_555
C30_3 C31_3 1_555 1_555
C40_3 C41_3 1_555 1_555
C42_3 O9_3 1_555 1_555
C43_3 O10_3 1_555 1_555
C48_3 C49_3 1_555 1_555
C56_3 C68_3 1_555 1_555
C58_3 C59_3 1_555 1_555
C60_3 O13_3 1_555 1_555
C61_3 O14_3 1_555 1_555
C66_3 C67_3 1_555 1_555
C7_3 H3_3 1_555 1_555
H4_3 C7_3 1_555 1_555
H5_3 C7_3 1_555 1_555
C13_3 C12_3 1_555 1_555
H10_3 C13_3 1_555 1_555
H11_3 C14_3 1_555 1_555
H42_3 C45_3 1_555 1_555
C46_3 C45_3 1_555 1_555
H43_3 C46_3 1_555 1_555
C47_3 C46_3 1_555 1_555
C50_3 C47_3 1_555 1_555
C72_3 C12_3 1_555 1_555
O18 C72_3 1_555 1_555
O20 C50_3 1_555 1_555
C13_3 C14_3 1_555 1_555
Zn4 O7_3 1_555 1_555
O17_3 Zn4 1_555 1_555
O17_3 H69_3 1_555 1_555
Zn3 O7_4 1_555 1_555
O17_4 Zn3 1_555 1_555
O17_4 H69_4 1_555 1_555
O21_2 Zn7 1_555 1_555
C27_4 C26_4 1_555 1_555
H25_4 C27_4 1_555 1_555
C28_4 C27_4 1_555 1_555
H26_4 C28_4 1_555 1_555
C29_4 C28_4 1_555 1_555
C30_4 C29_4 1_555 1_555
H27_4 C30_4 1_555 1_555
C31_4 C26_4 1_555 1_555
H28_4 C31_4 1_555 1_555
C32_4 C29_4 1_555 1_555
H32_4 C35_4 1_555 1_555
H33_4 C35_4 1_555 1_555
H34_4 C35_4 1_555 1_555
H49_4 C53_4 1_555 1_555
H50_4 C53_4 1_555 1_555
H51_4 C53_4 1_555 1_555
O19 C32_4 1_555 1_555
C30_4 C31_4 1_555 1_555
C1_4 H1_4 1_555 1_555
C2_4 C1_4 1_555 1_555
C3_4 C2_4 1_555 1_555
C4_4 C3_4 1_555 1_555
H2_4 C4_4 1_555 1_555
C5_4 C4_4 1_555 1_555
C6_4 C1_4 1_555 1_555
C7_4 H3_4 1_555 1_555
H4_4 C7_4 1_555 1_555
H5_4 C7_4 1_555 1_555
C8_4 H6_4 1_555 1_555
H7_4 C8_4 1_555 1_555
C9_4 C8_4 1_555 1_555
C10_4 C9_4 1_555 1_555
H8_4 C10_4 1_555 1_555
C11_4 C10_4 1_555 1_555
H9_4 C11_4 1_555 1_555
C12_4 C11_4 1_555 1_555
C13_4 C12_4 1_555 1_555
H10_4 C13_4 1_555 1_555
C14_4 C9_4 1_555 1_555
H11_4 C14_4 1_555 1_555
C15_4 C2_4 1_555 1_555
H12_4 C15_4 1_555 1_555
C16_4 C15_4 1_555 1_555
H13_4 C16_4 1_555 1_555
H14_4 C16_4 1_555 1_555
C17_4 C16_4 1_555 1_555
H15_4 C17_4 1_555 1_555
H16_4 C17_4 1_555 1_555
H17_4 C17_4 1_555 1_555
C18_4 C15_4 1_555 1_555
C19_4 C18_4 1_555 1_555
C20_4 C19_4 1_555 1_555
H18_4 C20_4 1_555 1_555
C21_4 C20_4 1_555 1_555
C22_4 C21_4 1_555 1_555
C23_4 C18_4 1_555 1_555
H19_4 C23_4 1_555 1_555
C24_4 H20_4 1_555 1_555
H21_4 C24_4 1_555 1_555
H22_4 C24_4 1_555 1_555
C25_4 H23_4 1_555 1_555
H24_4 C25_4 1_555 1_555
C33_4 C22_4 1_555 1_555
H29_4 C33_4 1_555 1_555
C34_4 C33_4 1_555 1_555
H30_4 C34_4 1_555 1_555
H31_4 C34_4 1_555 1_555
C36_4 C33_4 1_555 1_555
C37_4 C36_4 1_555 1_555
C38_4 C37_4 1_555 1_555
H35_4 C38_4 1_555 1_555
C39_4 C38_4 1_555 1_555
C40_4 C39_4 1_555 1_555
C41_4 C36_4 1_555 1_555
H36_4 C41_4 1_555 1_555
C42_4 H37_4 1_555 1_555
H38_4 C42_4 1_555 1_555
H39_4 C42_4 1_555 1_555
C43_4 H40_4 1_555 1_555
H41_4 C43_4 1_555 1_555
C44_4 C43_4 1_555 1_555
C45_4 C44_4 1_555 1_555
H42_4 C45_4 1_555 1_555
C46_4 C45_4 1_555 1_555
H43_4 C46_4 1_555 1_555
C47_4 C46_4 1_555 1_555
C48_4 C47_4 1_555 1_555
H44_4 C48_4 1_555 1_555
C49_4 C44_4 1_555 1_555
H45_4 C49_4 1_555 1_555
C50_4 C47_4 1_555 1_555
C51_4 C40_4 1_555 1_555
H46_4 C51_4 1_555 1_555
C52_4 C51_4 1_555 1_555
H47_4 C52_4 1_555 1_555
H48_4 C52_4 1_555 1_555
C54_4 C51_4 1_555 1_555
C55_4 C54_4 1_555 1_555
H52_4 C55_4 1_555 1_555
C56_4 C55_4 1_555 1_555
C57_4 C56_4 1_555 1_555
C58_4 C57_4 1_555 1_555
H53_4 C58_4 1_555 1_555
C59_4 C54_4 1_555 1_555
C60_4 H54_4 1_555 1_555
H55_4 C60_4 1_555 1_555
H56_4 C60_4 1_555 1_555
C61_4 H57_4 1_555 1_555
H58_4 C61_4 1_555 1_555
C62_4 C61_4 1_555 1_555
C63_4 C62_4 1_555 1_555
H59_4 C63_4 1_555 1_555
C64_4 C63_4 1_555 1_555
H60_4 C64_4 1_555 1_555
C65_4 C64_4 1_555 1_555
C66_4 C65_4 1_555 1_555
H61_4 C66_4 1_555 1_555
C67_4 C62_4 1_555 1_555
H62_4 C67_4 1_555 1_555
C68_4 C6_4 1_555 1_555
H63_4 C68_4 1_555 1_555
C69_4 C65_4 1_555 1_555
C70_4 C68_4 1_555 1_555
H64_4 C70_4 1_555 1_555
H65_4 C70_4 1_555 1_555
C71_4 C70_4 1_555 1_555
H66_4 C71_4 1_555 1_555
H67_4 C71_4 1_555 1_555
H68_4 C71_4 1_555 1_555
C72_4 C12_4 1_555 1_555
O1_4 C5_4 1_555 1_555
O2_4 C3_4 1_555 1_555
O3_4 C72_4 1_555 1_555
O18_2 C72_4 1_555 1_555
O5_4 C19_4 1_555 1_555
O6_4 C21_4 1_555 1_555
O9_4 C37_4 1_555 1_555
O10_4 C39_4 1_555 1_555
O20_2 C50_4 1_555 1_555
O21_2 C50_4 1_555 1_555
O13_4 C59_4 1_555 1_555
O14_4 C57_4 1_555 1_555
O22 C69_4 1_555 1_555
C5_4 C6_4 1_555 1_555
C7_4 O1_4 1_555 1_555
C8_4 O2_4 1_555 1_555
C13_4 C14_4 1_555 1_555
C22_4 C23_4 1_555 1_555
C24_4 O5_4 1_555 1_555
C25_4 O6_4 1_555 1_555
C40_4 C41_4 1_555 1_555
C42_4 O9_4 1_555 1_555
C43_4 O10_4 1_555 1_555
C48_4 C49_4 1_555 1_555
C56_4 C68_4 1_555 1_555
C58_4 C59_4 1_555 1_555
C60_4 O13_4 1_555 1_555
C61_4 O14_4 1_555 1_555
C66_4 C67_4 1_555 1_555

#END
