
###############################################################################
#
# This file contains modified crystal structure data generated from the
# MOF subset of the Cambridge Structural Database (CSD) v543 
# hosted by the Cambridge Crystallographic Data Centre (CCDC).
#
# This work is licensed under the Creative Commons
# Attribution-NonCommercial-ShareAlike 4.0 International License.
# To view a copy of this license, visit
# http://creativecommons.org/licenses/by-nc-sa/4.0/
# or send a letter to
# Creative Commons, PO Box 1866, Mountain View, CA 94042, USA.
#
# CIF created using the CSD Python API on 29 September 2022
# The structure has been converted into the P1 space group
# The structure has a 3D framework
# The original CSD entry NINVAI is in the cubic crystal system
# The framework has been calculated to contain at least 10.0% void space
# The void calculation uses a probe of radius 1.32A, grid spacing 0.4
# The framework is charged, counterions have been retained in the structure
# H atom positions have been added when not included in the experimental data
# Generated hydrogen atom positions removed from atoms on special positions
#
###############################################################################

data_NINVAI
_chemical_formula_moiety         '(C288 H672 Fe72 O264 6+)n'
_symmetry_cell_setting           triclinic
_symmetry_space_group_name_H-M   'P 1'
_symmetry_Int_Tables_number      1
_space_group_name_Hall           'P 1'
loop_
_symmetry_equiv_pos_site_id
_symmetry_equiv_pos_as_xyz
1 x,y,z
_cell_length_a                   26.6328(4)
_cell_length_b                   26.6328(4)
_cell_length_c                   26.6328(4)
_cell_angle_alpha                90
_cell_angle_beta                 90
_cell_angle_gamma                90
_cell_volume                     18890.8
loop_
_atom_site_label
_atom_site_type_symbol
_atom_site_fract_x
_atom_site_fract_y
_atom_site_fract_z
C1 C 0.2021(2) 0.2979(2) 0.0693(3)
C2 C 0.17764(19) 0.32236(19) 0.1137(2)
Fe1 Fe 0.21032(3) 0.21032(3) 0.0000
O1 O 0.18341(19) 0.25845(16) 0.05356(13)
C3 C 0.1987(3) 0.36502(19) 0.13498(19)
H1 H 0.232(2) 0.3860(15) 0.1140(15)
O2 O 0.14771(19) 0.14771(19) 0.0000
C4 C 0.2021(2) 0.4307(3) 0.2021(2)
C5 C 0.0693(3) 0.2979(2) 0.2021(2)
C12 C 0.2979(2) 0.2021(2) 0.0693(3)
C13 C 0.4307(3) 0.2021(2) 0.2021(2)
C14 C 0.2979(2) 0.0693(3) 0.2021(2)
C15 C 0.17764(19) 0.3863(2) 0.17764(19)
C16 C 0.1137(2) 0.32236(19) 0.17764(19)
C23 C 0.32236(19) 0.17764(19) 0.1137(2)
C24 C 0.3863(2) 0.17764(19) 0.17764(19)
C25 C 0.32236(19) 0.1137(2) 0.17764(19)
Fe2 Fe 0.21032(3) 0.5000 0.28968(3)
Fe3 Fe 0.28968(3) 0.5000 0.21032(3)
Fe4 Fe 0.0000 0.21032(3) 0.21032(3)
Fe5 Fe -0.0000 0.28968(3) 0.28968(3)
Fe6 Fe 0.28968(3) 0.28968(3) 0.0000
Fe15 Fe 0.5000 0.21032(3) 0.28968(3)
Fe16 Fe 0.5000 0.28968(3) 0.21032(3)
Fe17 Fe 0.21032(3) 0.0000 0.21032(3)
Fe18 Fe 0.28968(3) -0.0000 0.28968(3)
O3 O 0.18341(19) 0.44644(13) 0.24155(16)
O4 O 0.24155(16) 0.44644(13) 0.18341(19)
O5 O 0.05356(13) 0.25845(16) 0.18341(19)
O6 O 0.05356(13) 0.31659(19) 0.24155(16)
O7 O 0.24155(16) 0.31659(19) 0.05356(13)
O20 O 0.25845(16) 0.18341(19) 0.05356(13)
O21 O 0.44644(13) 0.18341(19) 0.24155(16)
O22 O 0.44644(13) 0.24155(16) 0.18341(19)
O23 O 0.25845(16) 0.05356(13) 0.18341(19)
O24 O 0.31659(19) 0.05356(13) 0.24155(16)
O25 O 0.31659(19) 0.24155(16) 0.05356(13)
O26 O 0.18341(19) 0.55356(13) 0.24155(16)
O27 O 0.25845(16) 0.55356(13) 0.31659(19)
O28 O 0.25845(16) 0.44644(13) 0.31659(19)
O29 O 0.31659(19) 0.55356(13) 0.25845(16)
O30 O 0.24155(16) 0.55356(13) 0.18341(19)
O31 O 0.31659(19) 0.44644(13) 0.25845(16)
O32 O 0.05356(13) 0.18341(19) 0.25845(16)
O36 O 0.05356(13) 0.24155(16) 0.31659(19)
C26 C 0.13498(19) 0.36502(19) 0.1987(3)
C27 C 0.13498(19) 0.3013(3) 0.13498(19)
C34 C 0.36502(19) 0.1987(3) 0.13498(19)
C35 C 0.36502(19) 0.13498(19) 0.1987(3)
C36 C 0.3013(3) 0.13498(19) 0.13498(19)
H2 H 0.1140(15) 0.268(2) 0.1140(15)
H3 H 0.1140(15) 0.3860(15) 0.232(2)
H10 H 0.3860(15) 0.232(2) 0.1140(15)
H11 H 0.268(2) 0.1140(15) 0.1140(15)
H12 H 0.3860(15) 0.1140(15) 0.232(2)
O38 O 0.14771(19) 0.5000 0.35229(19)
O39 O 0.35229(19) 0.5000 0.14771(19)
O40 O -0.0000 0.14771(19) 0.14771(19)
O41 O -0.0000 0.35229(19) 0.35229(19)
O42 O 0.35229(19) 0.35229(19) 0.0000
Fe1_2 Fe 0.21032(3) 0.21032(3) 1.0000
O2_2 O 0.14771(19) 0.14771(19) 1.0000
C6 C 0.2979(2) 0.2021(2) 0.9307(3)
C7 C 0.4307(3) 0.2021(2) 0.7979(2)
C8 C 0.2979(2) 0.0693(3) 0.7979(2)
C9 C 0.2021(2) 0.2979(2) 0.9307(3)
C10 C 0.2021(2) 0.4307(3) 0.7979(2)
C11 C 0.0693(3) 0.2979(2) 0.7979(2)
C17 C 0.32236(19) 0.17764(19) 0.8863(2)
C18 C 0.3863(2) 0.17764(19) 0.82236(19)
C19 C 0.32236(19) 0.1137(2) 0.82236(19)
C20 C 0.17764(19) 0.32236(19) 0.8863(2)
C21 C 0.17764(19) 0.3863(2) 0.82236(19)
C22 C 0.1137(2) 0.32236(19) 0.82236(19)
Fe6_2 Fe 0.28968(3) 0.28968(3) 1.0000
Fe7 Fe 0.5000 0.21032(3) 0.71032(3)
Fe8 Fe 0.5000 0.28968(3) 0.78968(3)
Fe9 Fe 0.21032(3) 0.0000 0.78968(3)
Fe10 Fe 0.28968(3) 0.0000 0.71032(3)
Fe11 Fe 0.21032(3) 0.5000 0.71032(3)
Fe12 Fe 0.28968(3) 0.5000 0.78968(3)
Fe13 Fe -0.0000 0.21032(3) 0.78968(3)
Fe14 Fe -0.0000 0.28968(3) 0.71032(3)
O8 O 0.25845(16) 0.18341(19) 0.94644(13)
O9 O 0.44644(13) 0.18341(19) 0.75845(16)
O10 O 0.44644(13) 0.24155(16) 0.81659(19)
O11 O 0.25845(16) 0.05356(13) 0.81659(19)
O12 O 0.31659(19) 0.05356(13) 0.75845(16)
O13 O 0.31659(19) 0.24155(16) 0.94644(13)
O14 O 0.18341(19) 0.25845(16) 0.94644(13)
O15 O 0.18341(19) 0.44644(13) 0.75845(16)
O16 O 0.24155(16) 0.44644(13) 0.81659(19)
O17 O 0.05356(13) 0.25845(16) 0.81659(19)
O18 O 0.05356(13) 0.31659(19) 0.75845(16)
O19 O 0.24155(16) 0.31659(19) 0.94644(13)
C28 C 0.36502(19) 0.1987(3) 0.86502(19)
C29 C 0.36502(19) 0.13498(19) 0.8013(3)
C30 C 0.3013(3) 0.13498(19) 0.86502(19)
C31 C 0.1987(3) 0.36502(19) 0.86502(19)
C32 C 0.13498(19) 0.36502(19) 0.8013(3)
C33 C 0.13498(19) 0.3013(3) 0.86502(19)
H4 H 0.3860(15) 0.232(2) 0.8860(15)
H5 H 0.268(2) 0.1140(15) 0.8860(15)
H6 H 0.3860(15) 0.1140(15) 0.768(2)
H7 H 0.232(2) 0.3860(15) 0.8860(15)
H8 H 0.1140(15) 0.268(2) 0.8860(15)
H9 H 0.1140(15) 0.3860(15) 0.768(2)
O42_2 O 0.35229(19) 0.35229(19) 1.0000
Fe17_2 Fe 0.21032(3) 1.0000 0.21032(3)
Fe18_2 Fe 0.28968(3) 1.0000 0.28968(3)
Fe9_2 Fe 0.21032(3) 1.0000 0.78968(3)
Fe10_2 Fe 0.28968(3) 1.0000 0.71032(3)
Fe4_2 Fe 1.0000 0.21032(3) 0.21032(3)
Fe5_2 Fe 1.0000 0.28968(3) 0.28968(3)
O33 O 0.94644(13) 0.25845(16) 0.18341(19)
O34 O 0.94644(13) 0.18341(19) 0.25845(16)
O35 O 0.94644(13) 0.31659(19) 0.24155(16)
O37 O 0.94644(13) 0.24155(16) 0.31659(19)
O40_2 O 1.0000 0.14771(19) 0.14771(19)
O41_2 O 1.0000 0.35229(19) 0.35229(19)
Fe13_2 Fe 1.0000 0.21032(3) 0.78968(3)
Fe14_2 Fe 1.0000 0.28968(3) 0.71032(3)
C1_2 C 0.0693(3) 0.2021(2) 0.2979(2)
C2_2 C 0.1137(2) 0.17764(19) 0.32236(19)
C3_2 C 0.13498(19) 0.1987(3) 0.36502(19)
H1_2 H 0.1140(15) 0.232(2) 0.3860(15)
C4_2 C 0.2021(2) 0.2021(2) 0.4307(3)
C5_2 C 0.2021(2) 0.0693(3) 0.2979(2)
C15_2 C 0.17764(19) 0.17764(19) 0.3863(2)
C16_2 C 0.17764(19) 0.1137(2) 0.32236(19)
Fe2_2 Fe 0.28968(3) 0.21032(3) 0.5000
Fe3_2 Fe 0.21032(3) 0.28968(3) 0.5000
O3_2 O 0.24155(16) 0.18341(19) 0.44644(13)
O4_2 O 0.18341(19) 0.24155(16) 0.44644(13)
O5_2 O 0.18341(19) 0.05356(13) 0.25845(16)
O6_2 O 0.24155(16) 0.05356(13) 0.31659(19)
O26_2 O 0.24155(16) 0.18341(19) 0.55356(13)
O27_2 O 0.31659(19) 0.25845(16) 0.55356(13)
O28_2 O 0.31659(19) 0.25845(16) 0.44644(13)
O29_2 O 0.25845(16) 0.31659(19) 0.55356(13)
O30_2 O 0.18341(19) 0.24155(16) 0.55356(13)
O31_2 O 0.25845(16) 0.31659(19) 0.44644(13)
C26_2 C 0.1987(3) 0.13498(19) 0.36502(19)
C27_2 C 0.13498(19) 0.13498(19) 0.3013(3)
H2_2 H 0.1140(15) 0.1140(15) 0.268(2)
H3_2 H 0.232(2) 0.1140(15) 0.3860(15)
O38_2 O 0.35229(19) 0.14771(19) 0.5000
O39_2 O 0.14771(19) 0.35229(19) 0.5000
O40_3 O 0.14771(19) -0.0000 0.14771(19)
O41_3 O 0.35229(19) -0.0000 0.35229(19)
O33_2 O 0.18341(19) 0.94644(13) 0.25845(16)
O34_2 O 0.25845(16) 0.94644(13) 0.18341(19)
O35_2 O 0.24155(16) 0.94644(13) 0.31659(19)
O37_2 O 0.31659(19) 0.94644(13) 0.24155(16)
O40_4 O 0.14771(19) 1.0000 0.14771(19)
O41_4 O 0.35229(19) 1.0000 0.35229(19)
C6_2 C 0.9307(3) 0.2979(2) 0.2021(2)
C7_2 C 0.7979(2) 0.4307(3) 0.2021(2)
C8_2 C 0.7979(2) 0.2979(2) 0.0693(3)
C9_2 C 0.9307(3) 0.2021(2) 0.2979(2)
C10_2 C 0.7979(2) 0.2021(2) 0.4307(3)
C11_2 C 0.7979(2) 0.0693(3) 0.2979(2)
C17_2 C 0.8863(2) 0.32236(19) 0.17764(19)
C18_2 C 0.82236(19) 0.3863(2) 0.17764(19)
C19_2 C 0.82236(19) 0.32236(19) 0.1137(2)
C20_2 C 0.8863(2) 0.17764(19) 0.32236(19)
C21_2 C 0.82236(19) 0.17764(19) 0.3863(2)
C22_2 C 0.82236(19) 0.1137(2) 0.32236(19)
Fe7_2 Fe 0.71032(3) 0.5000 0.21032(3)
Fe8_2 Fe 0.78968(3) 0.5000 0.28968(3)
Fe9_3 Fe 0.78968(3) 0.21032(3) -0.0000
Fe10_3 Fe 0.71032(3) 0.28968(3) 0.0000
Fe11_2 Fe 0.71032(3) 0.21032(3) 0.5000
Fe12_2 Fe 0.78968(3) 0.28968(3) 0.5000
Fe13_3 Fe 0.78968(3) 0.0000 0.21032(3)
Fe14_3 Fe 0.71032(3) 0.0000 0.28968(3)
O9_2 O 0.75845(16) 0.44644(13) 0.18341(19)
O10_2 O 0.81659(19) 0.44644(13) 0.24155(16)
O11_2 O 0.81659(19) 0.25845(16) 0.05356(13)
O12_2 O 0.75845(16) 0.31659(19) 0.05356(13)
O15_2 O 0.75845(16) 0.18341(19) 0.44644(13)
O16_2 O 0.81659(19) 0.24155(16) 0.44644(13)
O17_2 O 0.81659(19) 0.05356(13) 0.25845(16)
O18_2 O 0.75845(16) 0.05356(13) 0.31659(19)
C28_2 C 0.86502(19) 0.36502(19) 0.1987(3)
C29_2 C 0.8013(3) 0.36502(19) 0.13498(19)
C30_2 C 0.86502(19) 0.3013(3) 0.13498(19)
C31_2 C 0.86502(19) 0.1987(3) 0.36502(19)
C32_2 C 0.8013(3) 0.13498(19) 0.36502(19)
C33_2 C 0.86502(19) 0.13498(19) 0.3013(3)
H4_2 H 0.8860(15) 0.3860(15) 0.232(2)
H5_2 H 0.8860(15) 0.268(2) 0.1140(15)
H6_2 H 0.768(2) 0.3860(15) 0.1140(15)
H7_2 H 0.8860(15) 0.232(2) 0.3860(15)
H8_2 H 0.8860(15) 0.1140(15) 0.268(2)
H9_2 H 0.768(2) 0.1140(15) 0.3860(15)
Fe9_4 Fe 0.78968(3) 0.21032(3) 1.0000
Fe10_4 Fe 0.71032(3) 0.28968(3) 1.0000
Fe13_4 Fe 0.78968(3) 1.0000 0.21032(3)
Fe14_4 Fe 0.71032(3) 1.0000 0.28968(3)
O26_3 O 0.55356(13) 0.24155(16) 0.18341(19)
O27_3 O 0.55356(13) 0.31659(19) 0.25845(16)
O28_3 O 0.44644(13) 0.31659(19) 0.25845(16)
O29_3 O 0.55356(13) 0.25845(16) 0.31659(19)
O30_3 O 0.55356(13) 0.18341(19) 0.24155(16)
O31_3 O 0.44644(13) 0.25845(16) 0.31659(19)
O38_3 O 0.5000 0.35229(19) 0.14771(19)
O39_3 O 0.5000 0.14771(19) 0.35229(19)
C6_3 C 0.2021(2) 0.9307(3) 0.2979(2)
C7_3 C 0.2021(2) 0.7979(2) 0.4307(3)
C8_3 C 0.0693(3) 0.7979(2) 0.2979(2)
C9_3 C 0.2979(2) 0.9307(3) 0.2021(2)
C10_3 C 0.4307(3) 0.7979(2) 0.2021(2)
C11_3 C 0.2979(2) 0.7979(2) 0.0693(3)
C17_3 C 0.17764(19) 0.8863(2) 0.32236(19)
C18_3 C 0.17764(19) 0.82236(19) 0.3863(2)
C19_3 C 0.1137(2) 0.82236(19) 0.32236(19)
C20_3 C 0.32236(19) 0.8863(2) 0.17764(19)
C21_3 C 0.3863(2) 0.82236(19) 0.17764(19)
C22_3 C 0.32236(19) 0.82236(19) 0.1137(2)
Fe7_3 Fe 0.21032(3) 0.71032(3) 0.5000
Fe8_3 Fe 0.28968(3) 0.78968(3) 0.5000
Fe9_5 Fe -0.0000 0.78968(3) 0.21032(3)
Fe10_5 Fe -0.0000 0.71032(3) 0.28968(3)
Fe11_3 Fe 0.5000 0.71032(3) 0.21032(3)
Fe12_3 Fe 0.5000 0.78968(3) 0.28968(3)
Fe13_5 Fe 0.21032(3) 0.78968(3) 0.0000
Fe14_5 Fe 0.28968(3) 0.71032(3) 0.0000
O9_3 O 0.18341(19) 0.75845(16) 0.44644(13)
O10_3 O 0.24155(16) 0.81659(19) 0.44644(13)
O11_3 O 0.05356(13) 0.81659(19) 0.25845(16)
O12_3 O 0.05356(13) 0.75845(16) 0.31659(19)
O15_3 O 0.44644(13) 0.75845(16) 0.18341(19)
O16_3 O 0.44644(13) 0.81659(19) 0.24155(16)
O17_3 O 0.25845(16) 0.81659(19) 0.05356(13)
O18_3 O 0.31659(19) 0.75845(16) 0.05356(13)
C28_3 C 0.1987(3) 0.86502(19) 0.36502(19)
C29_3 C 0.13498(19) 0.8013(3) 0.36502(19)
C30_3 C 0.13498(19) 0.86502(19) 0.3013(3)
C31_3 C 0.36502(19) 0.86502(19) 0.1987(3)
C32_3 C 0.36502(19) 0.8013(3) 0.13498(19)
C33_3 C 0.3013(3) 0.86502(19) 0.13498(19)
H4_3 H 0.232(2) 0.8860(15) 0.3860(15)
H5_3 H 0.1140(15) 0.8860(15) 0.268(2)
H6_3 H 0.1140(15) 0.768(2) 0.3860(15)
H7_3 H 0.3860(15) 0.8860(15) 0.232(2)
H8_3 H 0.268(2) 0.8860(15) 0.1140(15)
H9_3 H 0.3860(15) 0.768(2) 0.1140(15)
Fe13_6 Fe 0.21032(3) 0.78968(3) 1.0000
Fe14_6 Fe 0.28968(3) 0.71032(3) 1.0000
Fe9_6 Fe 1.0000 0.78968(3) 0.21032(3)
Fe10_6 Fe 1.0000 0.71032(3) 0.28968(3)
O26_4 O 0.55356(13) 0.18341(19) 0.75845(16)
O27_4 O 0.55356(13) 0.25845(16) 0.68341(19)
O28_4 O 0.44644(13) 0.25845(16) 0.68341(19)
O29_4 O 0.55356(13) 0.31659(19) 0.74155(16)
O30_4 O 0.55356(13) 0.24155(16) 0.81659(19)
O31_4 O 0.44644(13) 0.31659(19) 0.74155(16)
O32_2 O 0.18341(19) 0.05356(13) 0.74155(16)
O36_2 O 0.24155(16) 0.05356(13) 0.68341(19)
O38_4 O 0.5000 0.14771(19) 0.64771(19)
O39_4 O 0.5000 0.35229(19) 0.85229(19)
O40_5 O 0.14771(19) -0.0000 0.85229(19)
O41_5 O 0.35229(19) -0.0000 0.64771(19)
O33_3 O 0.25845(16) 0.94644(13) 0.81659(19)
O34_3 O 0.18341(19) 0.94644(13) 0.74155(16)
O35_3 O 0.31659(19) 0.94644(13) 0.75845(16)
O37_3 O 0.24155(16) 0.94644(13) 0.68341(19)
O40_6 O 0.14771(19) 1.0000 0.85229(19)
O41_6 O 0.35229(19) 1.0000 0.64771(19)
O2_3 O 0.14771(19) 0.85229(19) 0.0000
C12_2 C 0.2021(2) 0.7021(2) 0.0693(3)
C13_2 C 0.2021(2) 0.5693(3) 0.2021(2)
C14_2 C 0.0693(3) 0.7021(2) 0.2021(2)
C23_2 C 0.17764(19) 0.67764(19) 0.1137(2)
C24_2 C 0.17764(19) 0.6137(2) 0.17764(19)
C25_2 C 0.1137(2) 0.67764(19) 0.17764(19)
O20_2 O 0.18341(19) 0.74155(16) 0.05356(13)
O23_2 O 0.05356(13) 0.74155(16) 0.18341(19)
O24_2 O 0.05356(13) 0.68341(19) 0.24155(16)
O25_2 O 0.24155(16) 0.68341(19) 0.05356(13)
O26_5 O 0.55356(13) 0.81659(19) 0.24155(16)
O27_5 O 0.55356(13) 0.74155(16) 0.31659(19)
O28_5 O 0.44644(13) 0.74155(16) 0.31659(19)
O29_5 O 0.55356(13) 0.68341(19) 0.25845(16)
O30_5 O 0.55356(13) 0.75845(16) 0.18341(19)
O31_5 O 0.44644(13) 0.68341(19) 0.25845(16)
C34_2 C 0.1987(3) 0.63498(19) 0.13498(19)
C35_2 C 0.13498(19) 0.63498(19) 0.1987(3)
C36_2 C 0.13498(19) 0.6987(3) 0.13498(19)
H10_2 H 0.232(2) 0.6140(15) 0.1140(15)
H11_2 H 0.1140(15) 0.732(2) 0.1140(15)
H12_2 H 0.1140(15) 0.6140(15) 0.232(2)
O38_5 O 0.5000 0.85229(19) 0.35229(19)
O39_5 O 0.5000 0.64771(19) 0.14771(19)
O42_3 O 0.35229(19) 0.64771(19) 0.0000
O2_4 O 0.14771(19) 0.85229(19) 1.0000
C6_4 C 0.2021(2) 0.7021(2) 0.9307(3)
C7_4 C 0.2021(2) 0.5693(3) 0.7979(2)
C8_4 C 0.0693(3) 0.7021(2) 0.7979(2)
C9_4 C 0.2979(2) 0.7979(2) 0.9307(3)
C10_4 C 0.4307(3) 0.7979(2) 0.7979(2)
C11_4 C 0.2979(2) 0.9307(3) 0.7979(2)
C17_4 C 0.17764(19) 0.67764(19) 0.8863(2)
C18_4 C 0.17764(19) 0.6137(2) 0.82236(19)
C19_4 C 0.1137(2) 0.67764(19) 0.82236(19)
C20_4 C 0.32236(19) 0.82236(19) 0.8863(2)
C21_4 C 0.3863(2) 0.82236(19) 0.82236(19)
C22_4 C 0.32236(19) 0.8863(2) 0.82236(19)
Fe9_7 Fe 0.0000 0.78968(3) 0.78968(3)
Fe10_7 Fe 0.0000 0.71032(3) 0.71032(3)
Fe11_4 Fe 0.5000 0.78968(3) 0.71032(3)
Fe12_4 Fe 0.5000 0.71032(3) 0.78968(3)
O8_2 O 0.18341(19) 0.74155(16) 0.94644(13)
O9_4 O 0.18341(19) 0.55356(13) 0.75845(16)
O10_4 O 0.24155(16) 0.55356(13) 0.81659(19)
O11_4 O 0.05356(13) 0.74155(16) 0.81659(19)
O12_4 O 0.05356(13) 0.68341(19) 0.75845(16)
O13_2 O 0.24155(16) 0.68341(19) 0.94644(13)
O14_2 O 0.25845(16) 0.81659(19) 0.94644(13)
O15_4 O 0.44644(13) 0.81659(19) 0.75845(16)
O16_4 O 0.44644(13) 0.75845(16) 0.81659(19)
O19_2 O 0.31659(19) 0.75845(16) 0.94644(13)
C28_4 C 0.1987(3) 0.63498(19) 0.86502(19)
C29_4 C 0.13498(19) 0.63498(19) 0.8013(3)
C30_4 C 0.13498(19) 0.6987(3) 0.86502(19)
C31_4 C 0.36502(19) 0.8013(3) 0.86502(19)
C32_4 C 0.36502(19) 0.86502(19) 0.8013(3)
C33_4 C 0.3013(3) 0.86502(19) 0.86502(19)
H4_4 H 0.232(2) 0.6140(15) 0.8860(15)
H5_4 H 0.1140(15) 0.732(2) 0.8860(15)
H6_4 H 0.1140(15) 0.6140(15) 0.768(2)
H7_4 H 0.3860(15) 0.768(2) 0.8860(15)
H8_4 H 0.268(2) 0.8860(15) 0.8860(15)
H9_4 H 0.3860(15) 0.8860(15) 0.768(2)
O42_4 O 0.35229(19) 0.64771(19) 1.0000
Fe9_8 Fe 1.0000 0.78968(3) 0.78968(3)
Fe10_8 Fe 1.0000 0.71032(3) 0.71032(3)
C1_3 C 0.7021(2) 0.2021(2) 0.0693(3)
C2_3 C 0.67764(19) 0.17764(19) 0.1137(2)
O1_2 O 0.74155(16) 0.18341(19) 0.05356(13)
C3_3 C 0.63498(19) 0.1987(3) 0.13498(19)
H1_3 H 0.6140(15) 0.232(2) 0.1140(15)
O2_5 O 0.85229(19) 0.14771(19) 0.0000
C4_3 C 0.5693(3) 0.2021(2) 0.2021(2)
C5_3 C 0.7021(2) 0.0693(3) 0.2021(2)
C15_3 C 0.6137(2) 0.17764(19) 0.17764(19)
C16_3 C 0.67764(19) 0.1137(2) 0.17764(19)
O5_3 O 0.74155(16) 0.05356(13) 0.18341(19)
O6_3 O 0.68341(19) 0.05356(13) 0.24155(16)
O7_2 O 0.68341(19) 0.24155(16) 0.05356(13)
C26_3 C 0.63498(19) 0.13498(19) 0.1987(3)
C27_3 C 0.6987(3) 0.13498(19) 0.13498(19)
H2_3 H 0.732(2) 0.1140(15) 0.1140(15)
H3_3 H 0.6140(15) 0.1140(15) 0.232(2)
O40_7 O 0.85229(19) -0.0000 0.14771(19)
O41_7 O 0.64771(19) -0.0000 0.35229(19)
O42_5 O 0.64771(19) 0.35229(19) 0.0000
O2_6 O 0.85229(19) 0.14771(19) 1.0000
C6_5 C 0.7979(2) 0.2979(2) 0.9307(3)
C7_5 C 0.7979(2) 0.4307(3) 0.7979(2)
C8_5 C 0.9307(3) 0.2979(2) 0.7979(2)
C9_5 C 0.7021(2) 0.2021(2) 0.9307(3)
C10_5 C 0.5693(3) 0.2021(2) 0.7979(2)
C11_5 C 0.7021(2) 0.0693(3) 0.7979(2)
C17_5 C 0.82236(19) 0.32236(19) 0.8863(2)
C18_5 C 0.82236(19) 0.3863(2) 0.82236(19)
C19_5 C 0.8863(2) 0.32236(19) 0.82236(19)
C20_5 C 0.67764(19) 0.17764(19) 0.8863(2)
C21_5 C 0.6137(2) 0.17764(19) 0.82236(19)
C22_5 C 0.67764(19) 0.1137(2) 0.82236(19)
Fe7_4 Fe 0.78968(3) 0.5000 0.71032(3)
Fe8_4 Fe 0.71032(3) 0.5000 0.78968(3)
Fe13_7 Fe 0.78968(3) 0.0000 0.78968(3)
Fe14_7 Fe 0.71032(3) 0.0000 0.71032(3)
O8_3 O 0.81659(19) 0.25845(16) 0.94644(13)
O9_5 O 0.81659(19) 0.44644(13) 0.75845(16)
O10_5 O 0.75845(16) 0.44644(13) 0.81659(19)
O11_5 O 0.94644(13) 0.25845(16) 0.81659(19)
O12_5 O 0.94644(13) 0.31659(19) 0.75845(16)
O13_3 O 0.75845(16) 0.31659(19) 0.94644(13)
O14_3 O 0.74155(16) 0.18341(19) 0.94644(13)
O17_4 O 0.74155(16) 0.05356(13) 0.81659(19)
O18_4 O 0.68341(19) 0.05356(13) 0.75845(16)
O19_3 O 0.68341(19) 0.24155(16) 0.94644(13)
C28_5 C 0.8013(3) 0.36502(19) 0.86502(19)
C29_5 C 0.86502(19) 0.36502(19) 0.8013(3)
C30_5 C 0.86502(19) 0.3013(3) 0.86502(19)
C31_5 C 0.63498(19) 0.1987(3) 0.86502(19)
C32_5 C 0.63498(19) 0.13498(19) 0.8013(3)
C33_5 C 0.6987(3) 0.13498(19) 0.86502(19)
H4_5 H 0.768(2) 0.3860(15) 0.8860(15)
H5_5 H 0.8860(15) 0.268(2) 0.8860(15)
H6_5 H 0.8860(15) 0.3860(15) 0.768(2)
H7_5 H 0.6140(15) 0.232(2) 0.8860(15)
H8_5 H 0.732(2) 0.1140(15) 0.8860(15)
H9_5 H 0.6140(15) 0.1140(15) 0.768(2)
O42_6 O 0.64771(19) 0.35229(19) 1.0000
O33_4 O 0.74155(16) 0.94644(13) 0.18341(19)
O34_4 O 0.81659(19) 0.94644(13) 0.25845(16)
O35_4 O 0.68341(19) 0.94644(13) 0.24155(16)
O37_4 O 0.75845(16) 0.94644(13) 0.31659(19)
O40_8 O 0.85229(19) 1.0000 0.14771(19)
O41_8 O 0.64771(19) 1.0000 0.35229(19)
Fe13_8 Fe 0.78968(3) 1.0000 0.78968(3)
Fe14_8 Fe 0.71032(3) 1.0000 0.71032(3)
C1_4 C 0.2021(2) 0.0693(3) 0.7021(2)
C2_4 C 0.17764(19) 0.1137(2) 0.67764(19)
C3_4 C 0.1987(3) 0.13498(19) 0.63498(19)
H1_4 H 0.232(2) 0.1140(15) 0.6140(15)
C4_4 C 0.2021(2) 0.2021(2) 0.5693(3)
C5_4 C 0.0693(3) 0.2021(2) 0.7021(2)
C15_4 C 0.17764(19) 0.17764(19) 0.6137(2)
C16_4 C 0.1137(2) 0.17764(19) 0.67764(19)
O5_4 O 0.05356(13) 0.18341(19) 0.74155(16)
O6_4 O 0.05356(13) 0.24155(16) 0.68341(19)
C26_4 C 0.13498(19) 0.1987(3) 0.63498(19)
C27_4 C 0.13498(19) 0.13498(19) 0.6987(3)
H2_4 H 0.1140(15) 0.1140(15) 0.732(2)
H3_4 H 0.1140(15) 0.232(2) 0.6140(15)
O40_9 O -0.0000 0.14771(19) 0.85229(19)
O41_9 O -0.0000 0.35229(19) 0.64771(19)
C9_6 C 0.2021(2) 0.9307(3) 0.7021(2)
C10_6 C 0.2021(2) 0.7979(2) 0.5693(3)
C11_6 C 0.0693(3) 0.7979(2) 0.7021(2)
C20_6 C 0.17764(19) 0.8863(2) 0.67764(19)
C21_6 C 0.17764(19) 0.82236(19) 0.6137(2)
C22_6 C 0.1137(2) 0.82236(19) 0.67764(19)
O15_5 O 0.18341(19) 0.75845(16) 0.55356(13)
O16_5 O 0.24155(16) 0.81659(19) 0.55356(13)
O17_5 O 0.05356(13) 0.81659(19) 0.74155(16)
O18_5 O 0.05356(13) 0.75845(16) 0.68341(19)
C31_6 C 0.1987(3) 0.86502(19) 0.63498(19)
C32_6 C 0.13498(19) 0.8013(3) 0.63498(19)
C33_6 C 0.13498(19) 0.86502(19) 0.6987(3)
H7_6 H 0.232(2) 0.8860(15) 0.6140(15)
H8_6 H 0.1140(15) 0.8860(15) 0.732(2)
H9_6 H 0.1140(15) 0.768(2) 0.6140(15)
O33_5 O 0.94644(13) 0.18341(19) 0.74155(16)
O35_5 O 0.94644(13) 0.24155(16) 0.68341(19)
O40_10 O 1.0000 0.14771(19) 0.85229(19)
O41_10 O 1.0000 0.35229(19) 0.64771(19)
O26_6 O 0.81659(19) 0.24155(16) 0.55356(13)
O27_6 O 0.74155(16) 0.31659(19) 0.55356(13)
O28_6 O 0.74155(16) 0.31659(19) 0.44644(13)
O29_6 O 0.68341(19) 0.25845(16) 0.55356(13)
O30_6 O 0.75845(16) 0.18341(19) 0.55356(13)
O31_6 O 0.68341(19) 0.25845(16) 0.44644(13)
O38_6 O 0.85229(19) 0.35229(19) 0.5000
O39_6 O 0.64771(19) 0.14771(19) 0.5000
C6_6 C 0.7021(2) 0.9307(3) 0.2021(2)
C7_6 C 0.5693(3) 0.7979(2) 0.2021(2)
C8_6 C 0.7021(2) 0.7979(2) 0.0693(3)
C9_7 C 0.7979(2) 0.9307(3) 0.2979(2)
C10_7 C 0.7979(2) 0.7979(2) 0.4307(3)
C11_7 C 0.9307(3) 0.7979(2) 0.2979(2)
C17_6 C 0.67764(19) 0.8863(2) 0.17764(19)
C18_6 C 0.6137(2) 0.82236(19) 0.17764(19)
C19_6 C 0.67764(19) 0.82236(19) 0.1137(2)
C20_7 C 0.82236(19) 0.8863(2) 0.32236(19)
C21_7 C 0.82236(19) 0.82236(19) 0.3863(2)
C22_7 C 0.8863(2) 0.82236(19) 0.32236(19)
Fe9_9 Fe 0.78968(3) 0.78968(3) -0.0000
Fe10_9 Fe 0.71032(3) 0.71032(3) 0.0000
Fe11_5 Fe 0.78968(3) 0.71032(3) 0.5000
Fe12_5 Fe 0.71032(3) 0.78968(3) 0.5000
O11_6 O 0.74155(16) 0.81659(19) 0.05356(13)
O12_6 O 0.68341(19) 0.75845(16) 0.05356(13)
O15_6 O 0.81659(19) 0.75845(16) 0.44644(13)
O16_6 O 0.75845(16) 0.81659(19) 0.44644(13)
O17_6 O 0.94644(13) 0.81659(19) 0.25845(16)
O18_6 O 0.94644(13) 0.75845(16) 0.31659(19)
C28_6 C 0.63498(19) 0.86502(19) 0.1987(3)
C29_6 C 0.63498(19) 0.8013(3) 0.13498(19)
C30_6 C 0.6987(3) 0.86502(19) 0.13498(19)
C31_7 C 0.8013(3) 0.86502(19) 0.36502(19)
C32_7 C 0.86502(19) 0.8013(3) 0.36502(19)
C33_7 C 0.86502(19) 0.86502(19) 0.3013(3)
H4_6 H 0.6140(15) 0.8860(15) 0.232(2)
H5_6 H 0.732(2) 0.8860(15) 0.1140(15)
H6_6 H 0.6140(15) 0.768(2) 0.1140(15)
H7_7 H 0.768(2) 0.8860(15) 0.3860(15)
H8_7 H 0.8860(15) 0.8860(15) 0.268(2)
H9_7 H 0.8860(15) 0.768(2) 0.3860(15)
Fe9_10 Fe 0.78968(3) 0.78968(3) 1.0000
Fe10_10 Fe 0.71032(3) 0.71032(3) 1.0000
O27_7 O 0.25845(16) 0.68341(19) 0.55356(13)
O28_7 O 0.25845(16) 0.68341(19) 0.44644(13)
O29_7 O 0.31659(19) 0.74155(16) 0.55356(13)
O31_7 O 0.31659(19) 0.74155(16) 0.44644(13)
O38_7 O 0.14771(19) 0.64771(19) 0.5000
O39_7 O 0.35229(19) 0.85229(19) 0.5000
O40_11 O -0.0000 0.85229(19) 0.14771(19)
O41_11 O -0.0000 0.64771(19) 0.35229(19)
O34_5 O 0.94644(13) 0.74155(16) 0.18341(19)
O37_5 O 0.94644(13) 0.68341(19) 0.24155(16)
O40_12 O 1.0000 0.85229(19) 0.14771(19)
O41_12 O 1.0000 0.64771(19) 0.35229(19)
O27_8 O 0.31659(19) 0.55356(13) 0.74155(16)
O28_8 O 0.31659(19) 0.44644(13) 0.74155(16)
O29_8 O 0.25845(16) 0.55356(13) 0.68341(19)
O31_8 O 0.25845(16) 0.44644(13) 0.68341(19)
O38_8 O 0.35229(19) 0.5000 0.85229(19)
O39_8 O 0.14771(19) 0.5000 0.64771(19)
C6_7 C 0.9307(3) 0.2021(2) 0.7021(2)
C7_7 C 0.7979(2) 0.2021(2) 0.5693(3)
C8_7 C 0.7979(2) 0.0693(3) 0.7021(2)
C17_7 C 0.8863(2) 0.17764(19) 0.67764(19)
C18_7 C 0.82236(19) 0.17764(19) 0.6137(2)
C19_7 C 0.82236(19) 0.1137(2) 0.67764(19)
O11_7 O 0.81659(19) 0.05356(13) 0.74155(16)
O12_7 O 0.75845(16) 0.05356(13) 0.68341(19)
C28_7 C 0.86502(19) 0.1987(3) 0.63498(19)
C29_7 C 0.8013(3) 0.13498(19) 0.63498(19)
C30_7 C 0.86502(19) 0.13498(19) 0.6987(3)
H4_7 H 0.8860(15) 0.232(2) 0.6140(15)
H5_7 H 0.8860(15) 0.1140(15) 0.732(2)
H6_7 H 0.768(2) 0.1140(15) 0.6140(15)
C9_8 C 0.9307(3) 0.7021(2) 0.2021(2)
C10_8 C 0.7979(2) 0.5693(3) 0.2021(2)
C11_8 C 0.7979(2) 0.7021(2) 0.0693(3)
C20_8 C 0.8863(2) 0.67764(19) 0.17764(19)
C21_8 C 0.82236(19) 0.6137(2) 0.17764(19)
C22_8 C 0.82236(19) 0.67764(19) 0.1137(2)
O15_7 O 0.75845(16) 0.55356(13) 0.18341(19)
O16_7 O 0.81659(19) 0.55356(13) 0.24155(16)
O17_7 O 0.81659(19) 0.74155(16) 0.05356(13)
O18_7 O 0.75845(16) 0.68341(19) 0.05356(13)
C31_8 C 0.86502(19) 0.63498(19) 0.1987(3)
C32_8 C 0.8013(3) 0.63498(19) 0.13498(19)
C33_8 C 0.86502(19) 0.6987(3) 0.13498(19)
H7_8 H 0.8860(15) 0.6140(15) 0.232(2)
H8_8 H 0.8860(15) 0.732(2) 0.1140(15)
H9_8 H 0.768(2) 0.6140(15) 0.1140(15)
O27_9 O 0.68341(19) 0.55356(13) 0.25845(16)
O28_9 O 0.68341(19) 0.44644(13) 0.25845(16)
O29_9 O 0.74155(16) 0.55356(13) 0.31659(19)
O31_9 O 0.74155(16) 0.44644(13) 0.31659(19)
O38_9 O 0.64771(19) 0.5000 0.14771(19)
O39_9 O 0.85229(19) 0.5000 0.35229(19)
C6_8 C 0.2979(2) 0.7021(2) 0.4307(3)
C7_8 C 0.4307(3) 0.7021(2) 0.2979(2)
C8_8 C 0.2979(2) 0.5693(3) 0.2979(2)
C12_3 C 0.2979(2) 0.7021(2) 0.5693(3)
C13_3 C 0.4307(3) 0.7021(2) 0.7021(2)
C14_3 C 0.2979(2) 0.5693(3) 0.7021(2)
C17_8 C 0.32236(19) 0.67764(19) 0.3863(2)
C18_8 C 0.3863(2) 0.67764(19) 0.32236(19)
C19_8 C 0.32236(19) 0.6137(2) 0.32236(19)
C23_3 C 0.32236(19) 0.67764(19) 0.6137(2)
C24_3 C 0.3863(2) 0.67764(19) 0.67764(19)
C25_3 C 0.32236(19) 0.6137(2) 0.67764(19)
O21_2 O 0.44644(13) 0.68341(19) 0.74155(16)
O22_2 O 0.44644(13) 0.74155(16) 0.68341(19)
C28_8 C 0.36502(19) 0.6987(3) 0.36502(19)
C29_8 C 0.36502(19) 0.63498(19) 0.3013(3)
C30_8 C 0.3013(3) 0.63498(19) 0.36502(19)
C34_3 C 0.36502(19) 0.6987(3) 0.63498(19)
C35_3 C 0.36502(19) 0.63498(19) 0.6987(3)
C36_3 C 0.3013(3) 0.63498(19) 0.63498(19)
H4_8 H 0.3860(15) 0.732(2) 0.3860(15)
H5_8 H 0.268(2) 0.6140(15) 0.3860(15)
H6_8 H 0.3860(15) 0.6140(15) 0.268(2)
H10_3 H 0.3860(15) 0.732(2) 0.6140(15)
H11_3 H 0.268(2) 0.6140(15) 0.6140(15)
H12_3 H 0.3860(15) 0.6140(15) 0.732(2)
O40_13 O -0.0000 0.64771(19) 0.64771(19)
O41_13 O -0.0000 0.85229(19) 0.85229(19)
O33_6 O 0.94644(13) 0.75845(16) 0.68341(19)
O34_6 O 0.94644(13) 0.68341(19) 0.75845(16)
O35_6 O 0.94644(13) 0.81659(19) 0.74155(16)
O37_6 O 0.94644(13) 0.74155(16) 0.81659(19)
O40_14 O 1.0000 0.64771(19) 0.64771(19)
O41_14 O 1.0000 0.85229(19) 0.85229(19)
C6_9 C 0.9307(3) 0.7979(2) 0.7021(2)
C7_9 C 0.7979(2) 0.9307(3) 0.7021(2)
C8_9 C 0.7979(2) 0.7979(2) 0.5693(3)
C9_9 C 0.9307(3) 0.7021(2) 0.7979(2)
C10_9 C 0.7979(2) 0.7021(2) 0.9307(3)
C11_9 C 0.7979(2) 0.5693(3) 0.7979(2)
C17_9 C 0.8863(2) 0.82236(19) 0.67764(19)
C18_9 C 0.82236(19) 0.8863(2) 0.67764(19)
C19_9 C 0.82236(19) 0.82236(19) 0.6137(2)
C20_9 C 0.8863(2) 0.67764(19) 0.82236(19)
C21_9 C 0.82236(19) 0.67764(19) 0.8863(2)
C22_9 C 0.82236(19) 0.6137(2) 0.82236(19)
O9_6 O 0.75845(16) 0.94644(13) 0.68341(19)
O10_6 O 0.81659(19) 0.94644(13) 0.74155(16)
O11_8 O 0.81659(19) 0.75845(16) 0.55356(13)
O12_8 O 0.75845(16) 0.81659(19) 0.55356(13)
O15_8 O 0.75845(16) 0.68341(19) 0.94644(13)
O16_8 O 0.81659(19) 0.74155(16) 0.94644(13)
O17_8 O 0.81659(19) 0.55356(13) 0.75845(16)
O18_8 O 0.75845(16) 0.55356(13) 0.81659(19)
C28_9 C 0.86502(19) 0.86502(19) 0.6987(3)
C29_9 C 0.8013(3) 0.86502(19) 0.63498(19)
C30_9 C 0.86502(19) 0.8013(3) 0.63498(19)
C31_9 C 0.86502(19) 0.6987(3) 0.86502(19)
C32_9 C 0.8013(3) 0.63498(19) 0.86502(19)
C33_9 C 0.86502(19) 0.63498(19) 0.8013(3)
H4_9 H 0.8860(15) 0.8860(15) 0.732(2)
H5_9 H 0.8860(15) 0.768(2) 0.6140(15)
H6_9 H 0.768(2) 0.8860(15) 0.6140(15)
H7_9 H 0.8860(15) 0.732(2) 0.8860(15)
H8_9 H 0.8860(15) 0.6140(15) 0.768(2)
H9_9 H 0.768(2) 0.6140(15) 0.8860(15)
C9_10 C 0.2979(2) 0.4307(3) 0.7021(2)
C10_10 C 0.4307(3) 0.2979(2) 0.7021(2)
C11_10 C 0.2979(2) 0.2979(2) 0.5693(3)
C20_10 C 0.32236(19) 0.3863(2) 0.67764(19)
C21_10 C 0.3863(2) 0.32236(19) 0.67764(19)
C22_10 C 0.32236(19) 0.32236(19) 0.6137(2)
O26_7 O 0.55356(13) 0.74155(16) 0.68341(19)
O27_10 O 0.55356(13) 0.81659(19) 0.75845(16)
O29_10 O 0.55356(13) 0.75845(16) 0.81659(19)
O30_7 O 0.55356(13) 0.68341(19) 0.74155(16)
C31_10 C 0.36502(19) 0.36502(19) 0.6987(3)
C32_10 C 0.36502(19) 0.3013(3) 0.63498(19)
C33_10 C 0.3013(3) 0.36502(19) 0.63498(19)
H7_10 H 0.3860(15) 0.3860(15) 0.732(2)
H8_10 H 0.268(2) 0.3860(15) 0.6140(15)
H9_10 H 0.3860(15) 0.268(2) 0.6140(15)
O38_10 O 0.5000 0.85229(19) 0.64771(19)
O39_10 O 0.5000 0.64771(19) 0.85229(19)
C9_11 C 0.2979(2) 0.2979(2) 0.4307(3)
C10_11 C 0.4307(3) 0.2979(2) 0.2979(2)
C11_11 C 0.2979(2) 0.4307(3) 0.2979(2)
C20_11 C 0.32236(19) 0.32236(19) 0.3863(2)
C21_11 C 0.3863(2) 0.32236(19) 0.32236(19)
C22_11 C 0.32236(19) 0.3863(2) 0.32236(19)
C31_11 C 0.36502(19) 0.3013(3) 0.36502(19)
C32_11 C 0.36502(19) 0.36502(19) 0.3013(3)
C33_11 C 0.3013(3) 0.36502(19) 0.36502(19)
H7_11 H 0.3860(15) 0.268(2) 0.3860(15)
H8_11 H 0.268(2) 0.3860(15) 0.3860(15)
H9_11 H 0.3860(15) 0.3860(15) 0.268(2)
C1_5 C 0.7021(2) 0.7021(2) 0.5693(3)
C2_5 C 0.67764(19) 0.67764(19) 0.6137(2)
O1_3 O 0.74155(16) 0.68341(19) 0.55356(13)
C3_5 C 0.63498(19) 0.6987(3) 0.63498(19)
H1_5 H 0.6140(15) 0.732(2) 0.6140(15)
O2_7 O 0.85229(19) 0.64771(19) 0.5000
C4_5 C 0.5693(3) 0.7021(2) 0.7021(2)
C5_5 C 0.7021(2) 0.5693(3) 0.7021(2)
C9_12 C 0.7021(2) 0.7021(2) 0.4307(3)
C10_12 C 0.5693(3) 0.7021(2) 0.2979(2)
C11_12 C 0.7021(2) 0.5693(3) 0.2979(2)
C15_5 C 0.6137(2) 0.67764(19) 0.67764(19)
C16_5 C 0.67764(19) 0.6137(2) 0.67764(19)
C20_12 C 0.67764(19) 0.67764(19) 0.3863(2)
C21_12 C 0.6137(2) 0.67764(19) 0.32236(19)
C22_12 C 0.67764(19) 0.6137(2) 0.32236(19)
O5_5 O 0.74155(16) 0.55356(13) 0.68341(19)
O6_5 O 0.68341(19) 0.55356(13) 0.74155(16)
O7_3 O 0.68341(19) 0.74155(16) 0.55356(13)
O14_4 O 0.74155(16) 0.68341(19) 0.44644(13)
O19_4 O 0.68341(19) 0.74155(16) 0.44644(13)
O33_7 O 0.74155(16) 0.44644(13) 0.68341(19)
O35_7 O 0.68341(19) 0.44644(13) 0.74155(16)
C26_5 C 0.63498(19) 0.63498(19) 0.6987(3)
C27_5 C 0.6987(3) 0.63498(19) 0.63498(19)
C31_12 C 0.63498(19) 0.6987(3) 0.36502(19)
C32_12 C 0.63498(19) 0.63498(19) 0.3013(3)
C33_12 C 0.6987(3) 0.63498(19) 0.36502(19)
H2_5 H 0.732(2) 0.6140(15) 0.6140(15)
H3_5 H 0.6140(15) 0.6140(15) 0.732(2)
H7_12 H 0.6140(15) 0.732(2) 0.3860(15)
H8_12 H 0.732(2) 0.6140(15) 0.3860(15)
H9_12 H 0.6140(15) 0.6140(15) 0.268(2)
O40_15 O 0.85229(19) 0.5000 0.64771(19)
O41_15 O 0.64771(19) 0.5000 0.85229(19)
O42_7 O 0.64771(19) 0.85229(19) 0.5000
O38_11 O 0.85229(19) 0.85229(19) -0.0000
O39_11 O 0.64771(19) 0.64771(19) -0.0000
C6_10 C 0.7021(2) 0.4307(3) 0.7021(2)
C7_10 C 0.5693(3) 0.2979(2) 0.7021(2)
C8_10 C 0.7021(2) 0.2979(2) 0.5693(3)
C17_10 C 0.67764(19) 0.3863(2) 0.67764(19)
C18_10 C 0.6137(2) 0.32236(19) 0.67764(19)
C19_10 C 0.67764(19) 0.32236(19) 0.6137(2)
O28_10 O 0.74155(16) 0.81659(19) 0.94644(13)
O31_10 O 0.68341(19) 0.75845(16) 0.94644(13)
C28_10 C 0.63498(19) 0.36502(19) 0.6987(3)
C29_10 C 0.63498(19) 0.3013(3) 0.63498(19)
C30_10 C 0.6987(3) 0.36502(19) 0.63498(19)
H4_10 H 0.6140(15) 0.3860(15) 0.732(2)
H5_10 H 0.732(2) 0.3860(15) 0.6140(15)
H6_10 H 0.6140(15) 0.268(2) 0.6140(15)
O38_12 O 0.85229(19) 0.85229(19) 1.0000
O39_12 O 0.64771(19) 0.64771(19) 1.0000
O38_13 O 0.64771(19) -0.0000 0.64771(19)
O39_13 O 0.85229(19) -0.0000 0.85229(19)
O28_11 O 0.68341(19) 0.94644(13) 0.75845(16)
O31_11 O 0.74155(16) 0.94644(13) 0.81659(19)
O38_14 O 0.64771(19) 1.0000 0.64771(19)
O39_14 O 0.85229(19) 1.0000 0.85229(19)
C9_13 C 0.7021(2) 0.2979(2) 0.4307(3)
C10_13 C 0.7021(2) 0.4307(3) 0.2979(2)
C11_13 C 0.5693(3) 0.2979(2) 0.2979(2)
C20_13 C 0.67764(19) 0.32236(19) 0.3863(2)
C21_13 C 0.67764(19) 0.3863(2) 0.32236(19)
C22_13 C 0.6137(2) 0.32236(19) 0.32236(19)
C31_13 C 0.6987(3) 0.36502(19) 0.36502(19)
C32_13 C 0.63498(19) 0.36502(19) 0.3013(3)
C33_13 C 0.63498(19) 0.3013(3) 0.36502(19)
H7_13 H 0.732(2) 0.3860(15) 0.3860(15)
H8_13 H 0.6140(15) 0.268(2) 0.3860(15)
H9_13 H 0.6140(15) 0.3860(15) 0.268(2)
C6_11 C 0.7021(2) 0.9307(3) 0.7979(2)
C7_11 C 0.7021(2) 0.7979(2) 0.9307(3)
C8_11 C 0.5693(3) 0.7979(2) 0.7979(2)
C17_11 C 0.67764(19) 0.8863(2) 0.82236(19)
C18_11 C 0.67764(19) 0.82236(19) 0.8863(2)
C19_11 C 0.6137(2) 0.82236(19) 0.82236(19)
C28_11 C 0.6987(3) 0.86502(19) 0.86502(19)
C29_11 C 0.63498(19) 0.8013(3) 0.86502(19)
C30_11 C 0.63498(19) 0.86502(19) 0.8013(3)
H4_11 H 0.732(2) 0.8860(15) 0.8860(15)
H5_11 H 0.6140(15) 0.8860(15) 0.768(2)
H6_11 H 0.6140(15) 0.768(2) 0.8860(15)
loop_
_geom_bond_atom_site_label_1
_geom_bond_atom_site_label_2
_geom_bond_site_symmetry_1
_geom_bond_site_symmetry_2
C1 C2 1_555 1_555
C2 C3 1_555 1_555
Fe1 O1 1_555 1_555
O1 C1 1_555 1_555
C3 H1 1_555 1_555
O2 Fe1 1_555 1_555
C4 C15 1_555 1_555
C5 C16 1_555 1_555
C12 C23 1_555 1_555
C13 C24 1_555 1_555
C14 C25 1_555 1_555
C15 C3 1_555 1_555
C16 C26 1_555 1_555
C23 C34 1_555 1_555
C24 C34 1_555 1_555
C25 C35 1_555 1_555
Fe2 O3 1_555 1_555
Fe3 O4 1_555 1_555
Fe4 O5 1_555 1_555
Fe5 O6 1_555 1_555
Fe6 O7 1_555 1_555
Fe15 O21 1_555 1_555
Fe16 O22 1_555 1_555
Fe17 O23 1_555 1_555
Fe18 O24 1_555 1_555
O3 C4 1_555 1_555
O4 C4 1_555 1_555
O5 C5 1_555 1_555
O6 C5 1_555 1_555
O7 C1 1_555 1_555
O20 Fe1 1_555 1_555
O21 C13 1_555 1_555
O22 C13 1_555 1_555
O23 C14 1_555 1_555
O24 C14 1_555 1_555
O25 C12 1_555 1_555
O26 Fe2 1_555 1_555
O27 Fe2 1_555 1_555
O28 Fe2 1_555 1_555
O29 Fe3 1_555 1_555
O30 Fe3 1_555 1_555
O31 Fe3 1_555 1_555
O32 Fe4 1_555 1_555
O36 Fe5 1_555 1_555
C26 C15 1_555 1_555
C27 C2 1_555 1_555
C34 H10 1_555 1_555
C35 C24 1_555 1_555
C36 C23 1_555 1_555
H2 C27 1_555 1_555
H3 C26 1_555 1_555
H11 C36 1_555 1_555
H12 C35 1_555 1_555
O38 Fe2 1_555 1_555
O39 Fe3 1_555 1_555
O40 Fe4 1_555 1_555
O41 Fe5 1_555 1_555
O42 Fe6 1_555 1_555
C12 O20 1_555 1_555
C16 C27 1_555 1_555
C25 C36 1_555 1_555
Fe6 O25 1_555 1_555
O2_2 Fe1_2 1_555 1_555
C6 C17 1_555 1_555
C7 C18 1_555 1_555
C8 C19 1_555 1_555
C9 C20 1_555 1_555
C10 C21 1_555 1_555
C11 C22 1_555 1_555
C17 C28 1_555 1_555
C18 C28 1_555 1_555
C19 C29 1_555 1_555
C20 C31 1_555 1_555
C21 C31 1_555 1_555
C22 C32 1_555 1_555
Fe7 O9 1_555 1_555
Fe8 O10 1_555 1_555
Fe9 O11 1_555 1_555
Fe10 O12 1_555 1_555
Fe11 O15 1_555 1_555
Fe12 O16 1_555 1_555
Fe13 O17 1_555 1_555
Fe14 O18 1_555 1_555
O8 Fe1_2 1_555 1_555
O9 C7 1_555 1_555
O10 C7 1_555 1_555
O11 C8 1_555 1_555
O12 C8 1_555 1_555
O13 C6 1_555 1_555
O14 Fe1_2 1_555 1_555
O15 C10 1_555 1_555
O16 C10 1_555 1_555
O17 C11 1_555 1_555
O18 C11 1_555 1_555
O19 C9 1_555 1_555
C28 H4 1_555 1_555
C29 C18 1_555 1_555
C30 C17 1_555 1_555
C31 H7 1_555 1_555
C32 C21 1_555 1_555
C33 C20 1_555 1_555
H5 C30 1_555 1_555
H6 C29 1_555 1_555
H8 C33 1_555 1_555
H9 C32 1_555 1_555
O42_2 Fe6_2 1_555 1_555
C6 O8 1_555 1_555
C9 O14 1_555 1_555
C19 C30 1_555 1_555
C22 C33 1_555 1_555
Fe6_2 O13 1_555 1_555
Fe6_2 O19 1_555 1_555
O33 Fe4_2 1_555 1_555
O34 Fe4_2 1_555 1_555
O35 Fe5_2 1_555 1_555
O37 Fe5_2 1_555 1_555
O40_2 Fe4_2 1_555 1_555
O41_2 Fe5_2 1_555 1_555
C1_2 C2_2 1_555 1_555
C2_2 C3_2 1_555 1_555
O32 C1_2 1_555 1_555
C3_2 H1_2 1_555 1_555
C4_2 C15_2 1_555 1_555
C5_2 C16_2 1_555 1_555
C15_2 C3_2 1_555 1_555
C16_2 C26_2 1_555 1_555
Fe2_2 O3_2 1_555 1_555
Fe3_2 O4_2 1_555 1_555
Fe17 O5_2 1_555 1_555
Fe18 O6_2 1_555 1_555
O3_2 C4_2 1_555 1_555
O4_2 C4_2 1_555 1_555
O5_2 C5_2 1_555 1_555
O6_2 C5_2 1_555 1_555
O36 C1_2 1_555 1_555
O26_2 Fe2_2 1_555 1_555
O27_2 Fe2_2 1_555 1_555
O28_2 Fe2_2 1_555 1_555
O29_2 Fe3_2 1_555 1_555
O30_2 Fe3_2 1_555 1_555
O31_2 Fe3_2 1_555 1_555
C26_2 C15_2 1_555 1_555
C27_2 C2_2 1_555 1_555
H2_2 C27_2 1_555 1_555
H3_2 C26_2 1_555 1_555
O38_2 Fe2_2 1_555 1_555
O39_2 Fe3_2 1_555 1_555
O40_3 Fe17 1_555 1_555
O41_3 Fe18 1_555 1_555
C16_2 C27_2 1_555 1_555
O33_2 Fe17_2 1_555 1_555
O34_2 Fe17_2 1_555 1_555
O35_2 Fe18_2 1_555 1_555
O37_2 Fe18_2 1_555 1_555
O40_4 Fe17_2 1_555 1_555
O41_4 Fe18_2 1_555 1_555
C6_2 C17_2 1_555 1_555
C7_2 C18_2 1_555 1_555
C8_2 C19_2 1_555 1_555
C9_2 C20_2 1_555 1_555
C10_2 C21_2 1_555 1_555
C11_2 C22_2 1_555 1_555
C17_2 C28_2 1_555 1_555
C18_2 C28_2 1_555 1_555
C19_2 C29_2 1_555 1_555
C20_2 C31_2 1_555 1_555
C21_2 C31_2 1_555 1_555
C22_2 C32_2 1_555 1_555
Fe7_2 O9_2 1_555 1_555
Fe8_2 O10_2 1_555 1_555
Fe9_3 O11_2 1_555 1_555
Fe10_3 O12_2 1_555 1_555
Fe11_2 O15_2 1_555 1_555
Fe12_2 O16_2 1_555 1_555
Fe13_3 O17_2 1_555 1_555
Fe14_3 O18_2 1_555 1_555
O9_2 C7_2 1_555 1_555
O10_2 C7_2 1_555 1_555
O11_2 C8_2 1_555 1_555
O12_2 C8_2 1_555 1_555
O35 C6_2 1_555 1_555
O15_2 C10_2 1_555 1_555
O16_2 C10_2 1_555 1_555
O17_2 C11_2 1_555 1_555
O18_2 C11_2 1_555 1_555
O37 C9_2 1_555 1_555
C28_2 H4_2 1_555 1_555
C29_2 C18_2 1_555 1_555
C30_2 C17_2 1_555 1_555
C31_2 H7_2 1_555 1_555
C32_2 C21_2 1_555 1_555
C33_2 C20_2 1_555 1_555
H5_2 C30_2 1_555 1_555
H6_2 C29_2 1_555 1_555
H8_2 C33_2 1_555 1_555
H9_2 C32_2 1_555 1_555
C6_2 O33 1_555 1_555
C9_2 O34 1_555 1_555
C19_2 C30_2 1_555 1_555
C22_2 C33_2 1_555 1_555
O26_3 Fe16 1_555 1_555
O27_3 Fe16 1_555 1_555
O28_3 Fe16 1_555 1_555
O29_3 Fe15 1_555 1_555
O30_3 Fe15 1_555 1_555
O31_3 Fe15 1_555 1_555
O38_3 Fe16 1_555 1_555
O39_3 Fe15 1_555 1_555
C6_3 C17_3 1_555 1_555
C7_3 C18_3 1_555 1_555
C8_3 C19_3 1_555 1_555
C9_3 C20_3 1_555 1_555
C10_3 C21_3 1_555 1_555
C11_3 C22_3 1_555 1_555
C17_3 C28_3 1_555 1_555
C18_3 C28_3 1_555 1_555
C19_3 C29_3 1_555 1_555
C20_3 C31_3 1_555 1_555
C21_3 C31_3 1_555 1_555
C22_3 C32_3 1_555 1_555
Fe7_3 O9_3 1_555 1_555
Fe8_3 O10_3 1_555 1_555
Fe9_5 O11_3 1_555 1_555
Fe10_5 O12_3 1_555 1_555
Fe11_3 O15_3 1_555 1_555
Fe12_3 O16_3 1_555 1_555
Fe13_5 O17_3 1_555 1_555
Fe14_5 O18_3 1_555 1_555
O9_3 C7_3 1_555 1_555
O10_3 C7_3 1_555 1_555
O11_3 C8_3 1_555 1_555
O12_3 C8_3 1_555 1_555
O35_2 C6_3 1_555 1_555
O15_3 C10_3 1_555 1_555
O16_3 C10_3 1_555 1_555
O17_3 C11_3 1_555 1_555
O18_3 C11_3 1_555 1_555
O37_2 C9_3 1_555 1_555
C28_3 H4_3 1_555 1_555
C29_3 C18_3 1_555 1_555
C30_3 C17_3 1_555 1_555
C31_3 H7_3 1_555 1_555
C32_3 C21_3 1_555 1_555
C33_3 C20_3 1_555 1_555
H5_3 C30_3 1_555 1_555
H6_3 C29_3 1_555 1_555
H8_3 C33_3 1_555 1_555
H9_3 C32_3 1_555 1_555
C6_3 O33_2 1_555 1_555
C9_3 O34_2 1_555 1_555
C19_3 C30_3 1_555 1_555
C22_3 C33_3 1_555 1_555
O26_4 Fe7 1_555 1_555
O27_4 Fe7 1_555 1_555
O28_4 Fe7 1_555 1_555
O29_4 Fe8 1_555 1_555
O30_4 Fe8 1_555 1_555
O31_4 Fe8 1_555 1_555
O32_2 Fe9 1_555 1_555
O36_2 Fe10 1_555 1_555
O38_4 Fe7 1_555 1_555
O39_4 Fe8 1_555 1_555
O40_5 Fe9 1_555 1_555
O41_5 Fe10 1_555 1_555
O33_3 Fe9_2 1_555 1_555
O34_3 Fe9_2 1_555 1_555
O35_3 Fe10_2 1_555 1_555
O37_3 Fe10_2 1_555 1_555
O40_6 Fe9_2 1_555 1_555
O41_6 Fe10_2 1_555 1_555
O2_3 Fe13_5 1_555 1_555
C12_2 C23_2 1_555 1_555
C13_2 C24_2 1_555 1_555
C14_2 C25_2 1_555 1_555
C23_2 C34_2 1_555 1_555
C24_2 C34_2 1_555 1_555
C25_2 C35_2 1_555 1_555
Fe9_5 O23_2 1_555 1_555
Fe10_5 O24_2 1_555 1_555
O20_2 Fe13_5 1_555 1_555
O26 C13_2 1_555 1_555
O30 C13_2 1_555 1_555
O23_2 C14_2 1_555 1_555
O24_2 C14_2 1_555 1_555
O25_2 C12_2 1_555 1_555
O26_5 Fe12_3 1_555 1_555
O27_5 Fe12_3 1_555 1_555
O28_5 Fe12_3 1_555 1_555
O29_5 Fe11_3 1_555 1_555
O30_5 Fe11_3 1_555 1_555
O31_5 Fe11_3 1_555 1_555
C34_2 H10_2 1_555 1_555
C35_2 C24_2 1_555 1_555
C36_2 C23_2 1_555 1_555
H11_2 C36_2 1_555 1_555
H12_2 C35_2 1_555 1_555
O38_5 Fe12_3 1_555 1_555
O39_5 Fe11_3 1_555 1_555
O42_3 Fe14_5 1_555 1_555
C12_2 O20_2 1_555 1_555
C25_2 C36_2 1_555 1_555
Fe14_5 O25_2 1_555 1_555
O2_4 Fe13_6 1_555 1_555
C6_4 C17_4 1_555 1_555
C7_4 C18_4 1_555 1_555
C8_4 C19_4 1_555 1_555
C9_4 C20_4 1_555 1_555
C10_4 C21_4 1_555 1_555
C11_4 C22_4 1_555 1_555
C17_4 C28_4 1_555 1_555
C18_4 C28_4 1_555 1_555
C19_4 C29_4 1_555 1_555
C20_4 C31_4 1_555 1_555
C21_4 C31_4 1_555 1_555
C22_4 C32_4 1_555 1_555
Fe11 O9_4 1_555 1_555
Fe12 O10_4 1_555 1_555
Fe9_7 O11_4 1_555 1_555
Fe10_7 O12_4 1_555 1_555
Fe11_4 O15_4 1_555 1_555
Fe12_4 O16_4 1_555 1_555
O8_2 Fe13_6 1_555 1_555
O9_4 C7_4 1_555 1_555
O10_4 C7_4 1_555 1_555
O11_4 C8_4 1_555 1_555
O12_4 C8_4 1_555 1_555
O13_2 C6_4 1_555 1_555
O14_2 Fe13_6 1_555 1_555
O15_4 C10_4 1_555 1_555
O16_4 C10_4 1_555 1_555
O33_3 C11_4 1_555 1_555
O35_3 C11_4 1_555 1_555
O19_2 C9_4 1_555 1_555
C28_4 H4_4 1_555 1_555
C29_4 C18_4 1_555 1_555
C30_4 C17_4 1_555 1_555
C31_4 H7_4 1_555 1_555
C32_4 C21_4 1_555 1_555
C33_4 C20_4 1_555 1_555
H5_4 C30_4 1_555 1_555
H6_4 C29_4 1_555 1_555
H8_4 C33_4 1_555 1_555
H9_4 C32_4 1_555 1_555
O42_4 Fe14_6 1_555 1_555
C6_4 O8_2 1_555 1_555
C9_4 O14_2 1_555 1_555
C19_4 C30_4 1_555 1_555
C22_4 C33_4 1_555 1_555
Fe14_6 O13_2 1_555 1_555
Fe14_6 O19_2 1_555 1_555
C1_3 C2_3 1_555 1_555
C2_3 C3_3 1_555 1_555
Fe9_3 O1_2 1_555 1_555
O1_2 C1_3 1_555 1_555
C3_3 H1_3 1_555 1_555
O2_5 Fe9_3 1_555 1_555
C4_3 C15_3 1_555 1_555
C5_3 C16_3 1_555 1_555
C15_3 C3_3 1_555 1_555
C16_3 C26_3 1_555 1_555
Fe13_3 O5_3 1_555 1_555
Fe14_3 O6_3 1_555 1_555
Fe10_3 O7_2 1_555 1_555
O30_3 C4_3 1_555 1_555
O26_3 C4_3 1_555 1_555
O5_3 C5_3 1_555 1_555
O6_3 C5_3 1_555 1_555
O7_2 C1_3 1_555 1_555
C26_3 C15_3 1_555 1_555
C27_3 C2_3 1_555 1_555
H2_3 C27_3 1_555 1_555
H3_3 C26_3 1_555 1_555
O40_7 Fe13_3 1_555 1_555
O41_7 Fe14_3 1_555 1_555
O42_5 Fe10_3 1_555 1_555
C16_3 C27_3 1_555 1_555
O2_6 Fe9_4 1_555 1_555
C6_5 C17_5 1_555 1_555
C7_5 C18_5 1_555 1_555
C8_5 C19_5 1_555 1_555
C9_5 C20_5 1_555 1_555
C10_5 C21_5 1_555 1_555
C11_5 C22_5 1_555 1_555
C17_5 C28_5 1_555 1_555
C18_5 C28_5 1_555 1_555
C19_5 C29_5 1_555 1_555
C20_5 C31_5 1_555 1_555
C21_5 C31_5 1_555 1_555
C22_5 C32_5 1_555 1_555
Fe7_4 O9_5 1_555 1_555
Fe8_4 O10_5 1_555 1_555
Fe13_2 O11_5 1_555 1_555
Fe14_2 O12_5 1_555 1_555
Fe13_7 O17_4 1_555 1_555
Fe14_7 O18_4 1_555 1_555
O8_3 Fe9_4 1_555 1_555
O9_5 C7_5 1_555 1_555
O10_5 C7_5 1_555 1_555
O11_5 C8_5 1_555 1_555
O12_5 C8_5 1_555 1_555
O13_3 C6_5 1_555 1_555
O14_3 Fe9_4 1_555 1_555
O26_4 C10_5 1_555 1_555
O30_4 C10_5 1_555 1_555
O17_4 C11_5 1_555 1_555
O18_4 C11_5 1_555 1_555
O19_3 C9_5 1_555 1_555
C28_5 H4_5 1_555 1_555
C29_5 C18_5 1_555 1_555
C30_5 C17_5 1_555 1_555
C31_5 H7_5 1_555 1_555
C32_5 C21_5 1_555 1_555
C33_5 C20_5 1_555 1_555
H5_5 C30_5 1_555 1_555
H6_5 C29_5 1_555 1_555
H8_5 C33_5 1_555 1_555
H9_5 C32_5 1_555 1_555
O42_6 Fe10_4 1_555 1_555
C6_5 O8_3 1_555 1_555
C9_5 O14_3 1_555 1_555
C19_5 C30_5 1_555 1_555
C22_5 C33_5 1_555 1_555
Fe10_4 O13_3 1_555 1_555
Fe10_4 O19_3 1_555 1_555
O33_4 Fe13_4 1_555 1_555
O34_4 Fe13_4 1_555 1_555
O35_4 Fe14_4 1_555 1_555
O37_4 Fe14_4 1_555 1_555
O40_8 Fe13_4 1_555 1_555
O41_8 Fe14_4 1_555 1_555
C1_4 C2_4 1_555 1_555
C2_4 C3_4 1_555 1_555
O32_2 C1_4 1_555 1_555
C3_4 H1_4 1_555 1_555
C4_4 C15_4 1_555 1_555
C5_4 C16_4 1_555 1_555
C15_4 C3_4 1_555 1_555
C16_4 C26_4 1_555 1_555
Fe13 O5_4 1_555 1_555
Fe14 O6_4 1_555 1_555
O30_2 C4_4 1_555 1_555
O26_2 C4_4 1_555 1_555
O5_4 C5_4 1_555 1_555
O6_4 C5_4 1_555 1_555
O36_2 C1_4 1_555 1_555
C26_4 C15_4 1_555 1_555
C27_4 C2_4 1_555 1_555
H2_4 C27_4 1_555 1_555
H3_4 C26_4 1_555 1_555
O40_9 Fe13 1_555 1_555
O41_9 Fe14 1_555 1_555
C16_4 C27_4 1_555 1_555
C9_6 C20_6 1_555 1_555
C10_6 C21_6 1_555 1_555
C11_6 C22_6 1_555 1_555
C20_6 C31_6 1_555 1_555
C21_6 C31_6 1_555 1_555
C22_6 C32_6 1_555 1_555
Fe7_3 O15_5 1_555 1_555
Fe8_3 O16_5 1_555 1_555
Fe9_7 O17_5 1_555 1_555
Fe10_7 O18_5 1_555 1_555
O15_5 C10_6 1_555 1_555
O16_5 C10_6 1_555 1_555
O17_5 C11_6 1_555 1_555
O18_5 C11_6 1_555 1_555
O37_3 C9_6 1_555 1_555
C31_6 H7_6 1_555 1_555
C32_6 C21_6 1_555 1_555
C33_6 C20_6 1_555 1_555
H8_6 C33_6 1_555 1_555
H9_6 C32_6 1_555 1_555
C9_6 O34_3 1_555 1_555
C22_6 C33_6 1_555 1_555
O33_5 Fe13_2 1_555 1_555
O35_5 Fe14_2 1_555 1_555
O40_10 Fe13_2 1_555 1_555
O41_10 Fe14_2 1_555 1_555
O26_6 Fe12_2 1_555 1_555
O27_6 Fe12_2 1_555 1_555
O28_6 Fe12_2 1_555 1_555
O29_6 Fe11_2 1_555 1_555
O30_6 Fe11_2 1_555 1_555
O31_6 Fe11_2 1_555 1_555
O38_6 Fe12_2 1_555 1_555
O39_6 Fe11_2 1_555 1_555
C6_6 C17_6 1_555 1_555
C7_6 C18_6 1_555 1_555
C8_6 C19_6 1_555 1_555
C9_7 C20_7 1_555 1_555
C10_7 C21_7 1_555 1_555
C11_7 C22_7 1_555 1_555
C17_6 C28_6 1_555 1_555
C18_6 C28_6 1_555 1_555
C19_6 C29_6 1_555 1_555
C20_7 C31_7 1_555 1_555
C21_7 C31_7 1_555 1_555
C22_7 C32_7 1_555 1_555
Fe9_9 O11_6 1_555 1_555
Fe10_9 O12_6 1_555 1_555
Fe11_5 O15_6 1_555 1_555
Fe12_5 O16_6 1_555 1_555
Fe9_6 O17_6 1_555 1_555
Fe10_6 O18_6 1_555 1_555
O30_5 C7_6 1_555 1_555
O26_5 C7_6 1_555 1_555
O11_6 C8_6 1_555 1_555
O12_6 C8_6 1_555 1_555
O35_4 C6_6 1_555 1_555
O15_6 C10_7 1_555 1_555
O16_6 C10_7 1_555 1_555
O17_6 C11_7 1_555 1_555
O18_6 C11_7 1_555 1_555
O37_4 C9_7 1_555 1_555
C28_6 H4_6 1_555 1_555
C29_6 C18_6 1_555 1_555
C30_6 C17_6 1_555 1_555
C31_7 H7_7 1_555 1_555
C32_7 C21_7 1_555 1_555
C33_7 C20_7 1_555 1_555
H5_6 C30_6 1_555 1_555
H6_6 C29_6 1_555 1_555
H8_7 C33_7 1_555 1_555
H9_7 C32_7 1_555 1_555
C6_6 O33_4 1_555 1_555
C9_7 O34_4 1_555 1_555
C19_6 C30_6 1_555 1_555
C22_7 C33_7 1_555 1_555
O27_7 Fe7_3 1_555 1_555
O28_7 Fe7_3 1_555 1_555
O29_7 Fe8_3 1_555 1_555
O31_7 Fe8_3 1_555 1_555
O38_7 Fe7_3 1_555 1_555
O39_7 Fe8_3 1_555 1_555
O40_11 Fe9_5 1_555 1_555
O41_11 Fe10_5 1_555 1_555
O34_5 Fe9_6 1_555 1_555
O37_5 Fe10_6 1_555 1_555
O40_12 Fe9_6 1_555 1_555
O41_12 Fe10_6 1_555 1_555
O27_8 Fe12 1_555 1_555
O28_8 Fe12 1_555 1_555
O29_8 Fe11 1_555 1_555
O31_8 Fe11 1_555 1_555
O38_8 Fe12 1_555 1_555
O39_8 Fe11 1_555 1_555
C6_7 C17_7 1_555 1_555
C7_7 C18_7 1_555 1_555
C8_7 C19_7 1_555 1_555
C17_7 C28_7 1_555 1_555
C18_7 C28_7 1_555 1_555
C19_7 C29_7 1_555 1_555
Fe13_7 O11_7 1_555 1_555
Fe14_7 O12_7 1_555 1_555
O30_6 C7_7 1_555 1_555
O26_6 C7_7 1_555 1_555
O11_7 C8_7 1_555 1_555
O12_7 C8_7 1_555 1_555
O35_5 C6_7 1_555 1_555
C28_7 H4_7 1_555 1_555
C29_7 C18_7 1_555 1_555
C30_7 C17_7 1_555 1_555
H5_7 C30_7 1_555 1_555
H6_7 C29_7 1_555 1_555
C6_7 O33_5 1_555 1_555
C19_7 C30_7 1_555 1_555
C9_8 C20_8 1_555 1_555
C10_8 C21_8 1_555 1_555
C11_8 C22_8 1_555 1_555
C20_8 C31_8 1_555 1_555
C21_8 C31_8 1_555 1_555
C22_8 C32_8 1_555 1_555
Fe7_2 O15_7 1_555 1_555
Fe8_2 O16_7 1_555 1_555
Fe9_9 O17_7 1_555 1_555
Fe10_9 O18_7 1_555 1_555
O15_7 C10_8 1_555 1_555
O16_7 C10_8 1_555 1_555
O17_7 C11_8 1_555 1_555
O18_7 C11_8 1_555 1_555
O37_5 C9_8 1_555 1_555
C31_8 H7_8 1_555 1_555
C32_8 C21_8 1_555 1_555
C33_8 C20_8 1_555 1_555
H8_8 C33_8 1_555 1_555
H9_8 C32_8 1_555 1_555
C9_8 O34_5 1_555 1_555
C22_8 C33_8 1_555 1_555
O27_9 Fe7_2 1_555 1_555
O28_9 Fe7_2 1_555 1_555
O29_9 Fe8_2 1_555 1_555
O31_9 Fe8_2 1_555 1_555
O38_9 Fe7_2 1_555 1_555
O39_9 Fe8_2 1_555 1_555
C6_8 C17_8 1_555 1_555
C7_8 C18_8 1_555 1_555
C8_8 C19_8 1_555 1_555
C12_3 C23_3 1_555 1_555
C13_3 C24_3 1_555 1_555
C14_3 C25_3 1_555 1_555
C17_8 C28_8 1_555 1_555
C18_8 C28_8 1_555 1_555
C19_8 C29_8 1_555 1_555
C23_3 C34_3 1_555 1_555
C24_3 C34_3 1_555 1_555
C25_3 C35_3 1_555 1_555
Fe12_4 O21_2 1_555 1_555
Fe11_4 O22_2 1_555 1_555
O31_5 C7_8 1_555 1_555
O28_5 C7_8 1_555 1_555
O27 C8_8 1_555 1_555
O29 C8_8 1_555 1_555
O31_7 C6_8 1_555 1_555
O21_2 C13_3 1_555 1_555
O22_2 C13_3 1_555 1_555
O29_8 C14_3 1_555 1_555
O27_8 C14_3 1_555 1_555
O29_7 C12_3 1_555 1_555
C28_8 H4_8 1_555 1_555
C29_8 C18_8 1_555 1_555
C30_8 C17_8 1_555 1_555
C34_3 H10_3 1_555 1_555
C35_3 C24_3 1_555 1_555
C36_3 C23_3 1_555 1_555
H5_8 C30_8 1_555 1_555
H6_8 C29_8 1_555 1_555
H11_3 C36_3 1_555 1_555
H12_3 C35_3 1_555 1_555
O40_13 Fe10_7 1_555 1_555
O41_13 Fe9_7 1_555 1_555
C6_8 O28_7 1_555 1_555
C12_3 O27_7 1_555 1_555
C19_8 C30_8 1_555 1_555
C25_3 C36_3 1_555 1_555
O33_6 Fe10_8 1_555 1_555
O34_6 Fe10_8 1_555 1_555
O35_6 Fe9_8 1_555 1_555
O37_6 Fe9_8 1_555 1_555
O40_14 Fe10_8 1_555 1_555
O41_14 Fe9_8 1_555 1_555
C6_9 C17_9 1_555 1_555
C7_9 C18_9 1_555 1_555
C8_9 C19_9 1_555 1_555
C9_9 C20_9 1_555 1_555
C10_9 C21_9 1_555 1_555
C11_9 C22_9 1_555 1_555
C17_9 C28_9 1_555 1_555
C18_9 C28_9 1_555 1_555
C19_9 C29_9 1_555 1_555
C20_9 C31_9 1_555 1_555
C21_9 C31_9 1_555 1_555
C22_9 C32_9 1_555 1_555
Fe14_8 O9_6 1_555 1_555
Fe13_8 O10_6 1_555 1_555
Fe11_5 O11_8 1_555 1_555
Fe12_5 O12_8 1_555 1_555
Fe10_10 O15_8 1_555 1_555
Fe9_10 O16_8 1_555 1_555
Fe7_4 O17_8 1_555 1_555
Fe8_4 O18_8 1_555 1_555
O9_6 C7_9 1_555 1_555
O10_6 C7_9 1_555 1_555
O11_8 C8_9 1_555 1_555
O12_8 C8_9 1_555 1_555
O35_6 C6_9 1_555 1_555
O15_8 C10_9 1_555 1_555
O16_8 C10_9 1_555 1_555
O17_8 C11_9 1_555 1_555
O18_8 C11_9 1_555 1_555
O37_6 C9_9 1_555 1_555
C28_9 H4_9 1_555 1_555
C29_9 C18_9 1_555 1_555
C30_9 C17_9 1_555 1_555
C31_9 H7_9 1_555 1_555
C32_9 C21_9 1_555 1_555
C33_9 C20_9 1_555 1_555
H5_9 C30_9 1_555 1_555
H6_9 C29_9 1_555 1_555
H8_9 C33_9 1_555 1_555
H9_9 C32_9 1_555 1_555
C6_9 O33_6 1_555 1_555
C9_9 O34_6 1_555 1_555
C19_9 C30_9 1_555 1_555
C22_9 C33_9 1_555 1_555
C9_10 C20_10 1_555 1_555
C10_10 C21_10 1_555 1_555
C11_10 C22_10 1_555 1_555
C20_10 C31_10 1_555 1_555
C21_10 C31_10 1_555 1_555
C22_10 C32_10 1_555 1_555
O28_4 C10_10 1_555 1_555
O31_4 C10_10 1_555 1_555
O29_2 C11_10 1_555 1_555
O27_2 C11_10 1_555 1_555
O28_8 C9_10 1_555 1_555
O26_7 Fe11_4 1_555 1_555
O27_10 Fe11_4 1_555 1_555
O29_10 Fe12_4 1_555 1_555
O30_7 Fe12_4 1_555 1_555
C31_10 H7_10 1_555 1_555
C32_10 C21_10 1_555 1_555
C33_10 C20_10 1_555 1_555
H8_10 C33_10 1_555 1_555
H9_10 C32_10 1_555 1_555
O38_10 Fe11_4 1_555 1_555
O39_10 Fe12_4 1_555 1_555
C9_10 O31_8 1_555 1_555
C22_10 C33_10 1_555 1_555
C9_11 C20_11 1_555 1_555
C10_11 C21_11 1_555 1_555
C11_11 C22_11 1_555 1_555
C20_11 C31_11 1_555 1_555
C21_11 C31_11 1_555 1_555
C22_11 C32_11 1_555 1_555
O28_3 C10_11 1_555 1_555
O31_3 C10_11 1_555 1_555
O28 C11_11 1_555 1_555
O31 C11_11 1_555 1_555
O28_2 C9_11 1_555 1_555
C31_11 H7_11 1_555 1_555
C32_11 C21_11 1_555 1_555
C33_11 C20_11 1_555 1_555
H8_11 C33_11 1_555 1_555
H9_11 C32_11 1_555 1_555
C9_11 O31_2 1_555 1_555
C22_11 C33_11 1_555 1_555
C1_5 C2_5 1_555 1_555
C2_5 C3_5 1_555 1_555
Fe11_5 O1_3 1_555 1_555
O1_3 C1_5 1_555 1_555
C3_5 H1_5 1_555 1_555
O2_7 Fe11_5 1_555 1_555
C4_5 C15_5 1_555 1_555
C5_5 C16_5 1_555 1_555
C9_12 C20_12 1_555 1_555
C10_12 C21_12 1_555 1_555
C11_12 C22_12 1_555 1_555
C15_5 C3_5 1_555 1_555
C16_5 C26_5 1_555 1_555
C20_12 C31_12 1_555 1_555
C21_12 C31_12 1_555 1_555
C22_12 C32_12 1_555 1_555
Fe7_4 O5_5 1_555 1_555
Fe8_4 O6_5 1_555 1_555
Fe12_5 O7_3 1_555 1_555
O30_7 C4_5 1_555 1_555
O26_7 C4_5 1_555 1_555
O5_5 C5_5 1_555 1_555
O6_5 C5_5 1_555 1_555
O7_3 C1_5 1_555 1_555
O14_4 Fe11_5 1_555 1_555
O29_5 C10_12 1_555 1_555
O27_5 C10_12 1_555 1_555
O29_9 C11_12 1_555 1_555
O27_9 C11_12 1_555 1_555
O19_4 C9_12 1_555 1_555
O33_7 Fe7_4 1_555 1_555
O35_7 Fe8_4 1_555 1_555
C26_5 C15_5 1_555 1_555
C27_5 C2_5 1_555 1_555
C31_12 H7_12 1_555 1_555
C32_12 C21_12 1_555 1_555
C33_12 C20_12 1_555 1_555
H2_5 C27_5 1_555 1_555
H3_5 C26_5 1_555 1_555
H8_12 C33_12 1_555 1_555
H9_12 C32_12 1_555 1_555
O40_15 Fe7_4 1_555 1_555
O41_15 Fe8_4 1_555 1_555
O42_7 Fe12_5 1_555 1_555
C9_12 O14_4 1_555 1_555
C16_5 C27_5 1_555 1_555
C22_12 C33_12 1_555 1_555
Fe12_5 O19_4 1_555 1_555
O38_11 Fe9_9 1_555 1_555
O39_11 Fe10_9 1_555 1_555
C6_10 C17_10 1_555 1_555
C7_10 C18_10 1_555 1_555
C8_10 C19_10 1_555 1_555
C17_10 C28_10 1_555 1_555
C18_10 C28_10 1_555 1_555
C19_10 C29_10 1_555 1_555
O27_4 C7_10 1_555 1_555
O29_4 C7_10 1_555 1_555
O27_6 C8_10 1_555 1_555
O29_6 C8_10 1_555 1_555
O35_7 C6_10 1_555 1_555
O28_10 Fe9_10 1_555 1_555
O31_10 Fe10_10 1_555 1_555
C28_10 H4_10 1_555 1_555
C29_10 C18_10 1_555 1_555
C30_10 C17_10 1_555 1_555
H5_10 C30_10 1_555 1_555
H6_10 C29_10 1_555 1_555
O38_12 Fe9_10 1_555 1_555
O39_12 Fe10_10 1_555 1_555
C6_10 O33_7 1_555 1_555
C19_10 C30_10 1_555 1_555
O38_13 Fe14_7 1_555 1_555
O39_13 Fe13_7 1_555 1_555
O28_11 Fe14_8 1_555 1_555
O31_11 Fe13_8 1_555 1_555
O38_14 Fe14_8 1_555 1_555
O39_14 Fe13_8 1_555 1_555
C9_13 C20_13 1_555 1_555
C10_13 C21_13 1_555 1_555
C11_13 C22_13 1_555 1_555
C20_13 C31_13 1_555 1_555
C21_13 C31_13 1_555 1_555
C22_13 C32_13 1_555 1_555
O28_9 C10_13 1_555 1_555
O31_9 C10_13 1_555 1_555
O29_3 C11_13 1_555 1_555
O27_3 C11_13 1_555 1_555
O28_6 C9_13 1_555 1_555
C31_13 H7_13 1_555 1_555
C32_13 C21_13 1_555 1_555
C33_13 C20_13 1_555 1_555
H8_13 C33_13 1_555 1_555
H9_13 C32_13 1_555 1_555
C9_13 O31_6 1_555 1_555
C22_13 C33_13 1_555 1_555
C6_11 C17_11 1_555 1_555
C7_11 C18_11 1_555 1_555
C8_11 C19_11 1_555 1_555
C17_11 C28_11 1_555 1_555
C18_11 C28_11 1_555 1_555
C19_11 C29_11 1_555 1_555
O31_10 C7_11 1_555 1_555
O28_10 C7_11 1_555 1_555
O27_10 C8_11 1_555 1_555
O29_10 C8_11 1_555 1_555
O31_11 C6_11 1_555 1_555
C28_11 H4_11 1_555 1_555
C29_11 C18_11 1_555 1_555
C30_11 C17_11 1_555 1_555
H5_11 C30_11 1_555 1_555
H6_11 C29_11 1_555 1_555
C6_11 O28_11 1_555 1_555
C19_11 C30_11 1_555 1_555

#END
