
###############################################################################
#
# This file contains modified crystal structure data generated from the
# MOF subset of the Cambridge Structural Database (CSD) v543 
# hosted by the Cambridge Crystallographic Data Centre (CCDC).
#
# This work is licensed under the Creative Commons
# Attribution-NonCommercial-ShareAlike 4.0 International License.
# To view a copy of this license, visit
# http://creativecommons.org/licenses/by-nc-sa/4.0/
# or send a letter to
# Creative Commons, PO Box 1866, Mountain View, CA 94042, USA.
#
# CIF created using the CSD Python API on 29 September 2022
# The structure has been converted into the P1 space group
# The structure has a 3D framework
# The original CSD entry NIPHAY is in the trigonal crystal system
# The original CSD entry NIPHAY is in a Sohncke space group
# The framework has been calculated to contain at least 10.0% void space
# The void calculation uses a probe of radius 1.32A, grid spacing 0.4
#
###############################################################################

data_NIPHAY
_chemical_formula_moiety         '(C144 H106 Cu12 N36 O34)n'
_symmetry_cell_setting           triclinic
_symmetry_space_group_name_H-M   'P 1'
_symmetry_Int_Tables_number      1
_space_group_name_Hall           'P 1'
loop_
_symmetry_equiv_pos_site_id
_symmetry_equiv_pos_as_xyz
1 x,y,z
_cell_length_a                   26.0992(4)
_cell_length_b                   26.0992(4)
_cell_length_c                   9.2584(2)
_cell_angle_alpha                90
_cell_angle_beta                 90
_cell_angle_gamma                120
_cell_volume                     5461.61
loop_
_atom_site_label
_atom_site_type_symbol
_atom_site_fract_x
_atom_site_fract_y
_atom_site_fract_z
H18 H 0.0070 0.6349 0.0721
C48 C 0.0081(4) 0.3543(4) 0.5977(10)
H30 H 0.0089 0.3876 0.6437
H31 H 0.0130 0.3609 0.4954
H32 H 0.0397 0.3493 0.6350
O11 O 0.0568(2) 0.2101(3) 0.8472(9)
H35 H 0.053(5) 0.178(3) 0.875(12)
Cu7 Cu 0.13558(7) 0.27125(5) 0.78848(11)
N15 N 0.0553(2) 0.3104(3) 0.8776(5)
Cu1 Cu 0.76629(5) 0.00011(5) 0.78871(12)
Cu3 Cu 0.86437(5) 0.13566(5) 0.78859(11)
Cu4 Cu 0.99989(5) 0.23370(5) 0.78848(12)
O1 O 0.8858(3) 0.6032(2) 0.2941(6)
O2 O 0.8847(3) 0.2821(3) 0.2843(6)
N1 N 0.8840(2) 0.5564(2) 0.0846(5)
C1 C 0.7901(3) 0.1976(4) 0.5956(9)
H1 H 0.7689 0.1983 0.6796
H2 H 0.7788 0.1574 0.5728
H3 H 0.7809 0.2150 0.5156
H5 H 0.7828 0.5792 0.0833
C3 C 0.8564(3) 0.2327(3) 0.6256(7)
N5 N 0.8841(2) 0.3279(2) 0.4939(5)
N6 N 0.9447(2) 0.2550(2) 0.6992(5)
C6 C 0.8762(3) 0.4147(3) 0.3294(7)
C8 C 0.8779(3) 0.3684(3) 0.2578(6)
C9 C 0.8820(3) 0.5602(3) 0.2361(7)
C10 C 0.8781(3) 0.5105(3) 0.3196(7)
C11 C 0.8825(3) 0.3227(3) 0.3404(7)
C12 C 0.8769(3) 0.4611(3) 0.2469(7)
C21 C 0.8774(3) 0.4179(3) 0.4850(7)
C23 C 0.6531(4) 0.0086(3) 0.5992(10)
H11 H 0.6240 0.0112 0.6574
H12 H 0.6454 0.0115 0.4990
H13 H 0.6918 0.0403 0.6240
C24 C 0.8762(3) 0.5100(3) 0.4684(7)
H14 H 0.8748 0.5406 0.5165
O5 O 0.8792(3) 0.3719(2) 0.6986(5)
C26 C 0.8950(3) 0.2881(3) 0.5778(7)
C27 C 0.8762(3) 0.4650(3) 0.5484(7)
H15 H 0.8755 0.4668 0.6487
C28 C 0.9505(3) 0.3002(3) 0.6273(7)
C31 C 0.8956(3) 0.6074(4) 0.0012(7)
N10 N 0.8846(2) 0.2117(2) 0.6990(6)
C35 C 0.8802(3) 0.3733(3) 0.5687(7)
O8 O 0.8469(3) 0.0561(2) 0.8486(9)
C36 C 0.8763(3) 0.3661(3) 0.1097(7)
H20 H 0.8750 0.3340 0.0628
C37 C 0.8780(3) 0.4586(3) 0.0945(7)
C38 C 0.8798(3) 0.5071(3) 0.0090(7)
C41 C 0.8767(3) 0.4118(3) 0.0275(7)
H27 H 0.3734 0.0067 0.0697
O12 O 0.9437(2) 0.1531(3) 0.7289(9)
H34 H 0.872(3) 0.047(4) 0.880(10)
H36 H 0.949(5) 0.125(3) 0.707(13)
N13 N 0.7884(4) 0.1149(2) 0.8783(5)
N14 N 0.7456(4) 0.0554(2) 0.8781(6)
C2 C 0.7901(3) 0.5931(4) 0.9853(9)
H4 H 0.7764 0.6207 0.9712
H6 H 0.7695 0.5603 0.9208
N4 N 0.8851(2) 0.6735(3) 0.8783(5)
C5 C 0.8557(3) 0.6233(4) 0.9547(6)
N7 N 0.9446(2) 0.6902(3) 0.8781(6)
C33 C 0.9511(3) 0.6505(4) 0.9537(7)
O7 O 0.8795(3) 0.5074(2) 0.8788(5)
H23 H 0.8760 0.4098 0.9272
C47 C 0.3551(4) 0.0091(4) 0.9819(9)
H28 H 0.3446 0.0394 0.9913
H29 H 0.3824 0.0187 0.9031
Cu5 Cu 0.99989(5) 0.76618(7) 0.78871(12)
Cu8 Cu 0.86434(5) 0.72871(7) 0.78859(11)
Cu9 Cu 0.23381(7) 0.00011(5) 0.78848(12)
Cu2 Cu 0.72875(5) 0.86433(5) 0.78848(11)
O3 O 0.6035(3) 0.8853(3) 0.2844(6)
O4 O 0.2811(3) 0.8845(3) 0.2929(6)
N2 N 0.5561(2) 0.8841(2) 0.4935(5)
N3 N 0.3283(2) 0.8845(2) 0.0846(5)
C4 C 0.5926(4) 0.7894(3) 0.5946(10)
H7 H 0.6002 0.7832 0.4965
H8 H 0.5507 0.7715 0.6094
H9 H 0.6083 0.7717 0.6588
N8 N 0.6736(2) 0.8849(2) 0.6986(5)
C7 C 0.6221(3) 0.8552(3) 0.6248(7)
C13 C 0.3691(3) 0.8777(3) 0.3193(7)
C14 C 0.4589(3) 0.8775(3) 0.4815(7)
C15 C 0.5098(3) 0.8785(3) 0.2580(7)
N9 N 0.6899(2) 0.9447(2) 0.7003(6)
C16 C 0.3232(3) 0.8819(3) 0.2362(7)
C17 C 0.6071(3) 0.8957(3) 0.5773(7)
C18 C 0.3669(3) 0.8763(3) 0.4687(7)
H10 H 0.3347 0.8752 0.5150
C19 C 0.4182(3) 0.8772(3) 0.0939(7)
C20 C 0.4151(3) 0.8762(3) 0.2493(7)
C22 C 0.6500(3) 0.9512(3) 0.6258(7)
C25 C 0.5602(3) 0.8827(3) 0.3420(6)
C29 C 0.5069(3) 0.8805(4) 0.5652(8)
C30 C 0.4611(3) 0.8767(3) 0.3286(7)
C32 C 0.4109(3) 0.8765(3) 0.5504(7)
H16 H 0.4087 0.8759 0.6507
O6 O 0.5070(2) 0.8800(3) 0.6986(5)
O9 O 0.7902(3) 0.9429(2) 0.7282(9)
C39 C 0.5108(3) 0.8768(3) 0.1096(7)
H21 H 0.5420 0.8759 0.0633
C40 C 0.4647(3) 0.8763(4) 0.0257(8)
C44 C 0.2885(3) 0.8952(3) 0.0012(7)
C45 C 0.3737(3) 0.8803(3) 0.0093(8)
H26 H 0.1834 0.7859 0.0835
H33 H 0.825(2) 0.953(5) 0.704(14)
N16 N 0.6729(3) 0.7879(2) 0.8780(5)
O13 O 0.7899(3) 0.8467(4) 0.8472(9)
H22 H 0.1247 0.5907 0.9254
O10 O 0.1211(3) 0.4935(4) 0.8782(5)
C42 C 0.1448(3) 0.3776(4) 0.9528(6)
C43 C 0.0494(3) 0.3498(4) 0.9531(7)
C46 C 0.2088(3) 0.4060(4) 0.9855(9)
H24 H 0.2268 0.4479 0.9729
H25 H 0.2270 0.3909 0.9212
N12 N 0.1150(2) 0.3271(3) 0.8780(5)
Cu4_2 Cu 0.76630(5) 0.76619(7) 0.78848(12)
O1_2 O 0.3968(2) 0.2826(4) 0.2941(6)
O2_2 O 0.7179(3) 0.6026(4) 0.2843(6)
N1_2 N 0.4436(2) 0.3276(3) 0.0846(5)
C1_2 C 0.8024(4) 0.5925(5) 0.5956(9)
H1_2 H 0.8017 0.5706 0.6796
H2_2 H 0.8426 0.6214 0.5728
H3_2 H 0.7850 0.5659 0.5156
H5_2 H 0.4208 0.2036 0.0833
C3_2 C 0.7673(3) 0.6237(4) 0.6256(7)
N5_2 N 0.6721(2) 0.5562(3) 0.4939(5)
N6_2 N 0.7450(2) 0.6897(3) 0.6992(5)
C6_2 C 0.5853(3) 0.4615(4) 0.3294(7)
C8_2 C 0.6316(3) 0.5095(4) 0.2578(6)
C9_2 C 0.4398(3) 0.3218(4) 0.2361(7)
C10_2 C 0.4895(3) 0.3676(4) 0.3196(7)
C11_2 C 0.6773(3) 0.5598(4) 0.3404(7)
C12_2 C 0.5389(3) 0.4158(4) 0.2469(7)
C21_2 C 0.5821(3) 0.4595(4) 0.4850(7)
C23_2 C 0.9914(3) 0.6445(5) 0.5992(10)
H11_2 H 0.9888 0.6128 0.6574
H12_2 H 0.9885 0.6339 0.4990
H13_2 H 0.9597 0.6515 0.6240
C24_2 C 0.4900(3) 0.3662(4) 0.4684(7)
H14_2 H 0.4594 0.3342 0.5165
O5_2 O 0.6281(2) 0.5073(4) 0.6986(5)
C26_2 C 0.7119(3) 0.6069(4) 0.5778(7)
C27_2 C 0.5350(3) 0.4112(4) 0.5484(7)
H15_2 H 0.5332 0.4087 0.6487
C28_2 C 0.6998(3) 0.6503(4) 0.6273(7)
C31_2 C 0.3926(4) 0.2882(5) 0.0012(7)
N10_2 N 0.7883(2) 0.6729(3) 0.6990(6)
H18_2 H 0.3651 0.3721 0.0721
C35_2 C 0.6267(3) 0.5069(4) 0.5687(7)
O8_2 O 0.9439(2) 0.7908(4) 0.8486(9)
C36_2 C 0.6339(3) 0.5102(4) 0.1097(7)
H20_2 H 0.6660 0.5410 0.0628
C37_2 C 0.5414(3) 0.4194(4) 0.0945(7)
C38_2 C 0.4929(3) 0.3727(4) 0.0090(7)
C41_2 C 0.5882(3) 0.4649(4) 0.0275(7)
H27_2 H 0.9933 0.3667 0.0697
C48_2 C 0.6457(4) 0.6538(6) 0.5977(10)
H30_2 H 0.6124 0.6213 0.6437
H31_2 H 0.6391 0.6521 0.4954
H32_2 H 0.6507 0.6904 0.6350
O12_2 O 0.8469(3) 0.7906(4) 0.7289(9)
H34_2 H 0.953(4) 0.825(5) 0.880(10)
H35_2 H 0.822(3) 0.875(6) 0.875(12)
H36_2 H 0.875(3) 0.824(6) 0.707(13)
N15_2 N 0.6896(3) 0.7449(4) 0.8776(5)
C2_2 C 0.4069(4) 0.1970(5) 0.9853(9)
H4_2 H 0.3793 0.1557 0.9712
H6_2 H 0.4397 0.2092 0.9208
N4_2 N 0.3265(3) 0.2116(4) 0.8783(5)
C5_2 C 0.3767(4) 0.2324(5) 0.9547(6)
N7_2 N 0.3098(3) 0.2544(4) 0.8781(6)
C33_2 C 0.3495(4) 0.3006(5) 0.9537(7)
C34 C 0.3479(6) 0.3561(7) 0.9797(9)
H17 H 0.3699 0.3843 0.9055
H19 H 0.3076 0.3476 0.9783
O7_2 O 0.4926(2) 0.3721(4) 0.8788(5)
H23_2 H 0.5902 0.4662 0.9272
C47_2 C 0.9909(4) 0.3460(6) 0.9819(9)
H28_2 H 0.9606 0.3052 0.9913
H29_2 H 0.9813 0.3637 0.9031
Cu5_2 Cu 0.23382(7) 0.23371(9) 0.78871(12)
Cu8_2 Cu 0.27129(7) 0.13563(9) 0.78859(11)
O1_3 O 0.7174(4) 0.1142(3) 0.2941(6)
O2_3 O 0.3974(4) 0.1153(3) 0.2843(6)
O3_2 O 0.2818(4) 0.3965(3) 0.2844(6)
O4_2 O 0.6034(4) 0.7189(3) 0.2929(6)
N1_3 N 0.6724(3) 0.1160(2) 0.0846(5)
C1_3 C 0.4075(5) 0.2099(3) 0.5956(9)
H1_3 H 0.4294 0.2311 0.6796
H2_3 H 0.3786 0.2212 0.5728
H3_3 H 0.4341 0.2191 0.5156
H5_3 H 0.7964 0.2172 0.0833
C3_3 C 0.3763(4) 0.1436(3) 0.6256(7)
N2_2 N 0.3280(3) 0.4439(2) 0.4935(5)
N3_2 N 0.5562(3) 0.6717(2) 0.0846(5)
N5_3 N 0.4438(3) 0.1159(2) 0.4939(5)
C4_2 C 0.1968(5) 0.4074(4) 0.5946(10)
H7_2 H 0.1830 0.3998 0.4965
H8_2 H 0.2208 0.4493 0.6094
H9_2 H 0.1634 0.3917 0.6588
N6_3 N 0.3103(3) 0.0553(2) 0.6992(5)
C6_3 C 0.5385(4) 0.1238(3) 0.3294(7)
N8_2 N 0.2113(3) 0.3264(2) 0.6986(5)
C7_2 C 0.2331(4) 0.3779(3) 0.6248(7)
C8_3 C 0.4905(4) 0.1221(3) 0.2578(6)
C9_3 C 0.6782(4) 0.1180(3) 0.2361(7)
C10_3 C 0.6324(4) 0.1219(3) 0.3196(7)
C11_3 C 0.4402(4) 0.1175(3) 0.3404(7)
C12_3 C 0.5842(4) 0.1231(3) 0.2469(7)
C13_2 C 0.5086(4) 0.6309(3) 0.3193(7)
C14_2 C 0.4186(4) 0.5411(3) 0.4815(7)
C15_2 C 0.3687(4) 0.4902(3) 0.2580(7)
N9_2 N 0.2548(3) 0.3101(2) 0.7003(6)
C16_2 C 0.5587(4) 0.6768(3) 0.2362(7)
C17_2 C 0.2886(4) 0.3929(3) 0.5773(7)
C18_2 C 0.5094(4) 0.6331(3) 0.4687(7)
H10_2 H 0.5405 0.6653 0.5150
C19_2 C 0.4590(4) 0.5818(3) 0.0939(7)
C20_2 C 0.4611(4) 0.5849(3) 0.2493(7)
C21_3 C 0.5405(4) 0.1226(3) 0.4850(7)
C22_2 C 0.3012(4) 0.3500(3) 0.6258(7)
C23_3 C 0.3555(5) 0.3469(4) 0.5992(10)
H11_3 H 0.3872 0.3760 0.6574
H12_3 H 0.3661 0.3546 0.4990
H13_3 H 0.3485 0.3082 0.6240
C24_3 C 0.6338(4) 0.1238(3) 0.4684(7)
H14_3 H 0.6658 0.1252 0.5165
O5_3 O 0.4927(4) 0.1208(3) 0.6986(5)
C25_2 C 0.3225(4) 0.4398(3) 0.3420(6)
C26_3 C 0.3931(4) 0.1050(3) 0.5778(7)
C27_3 C 0.5888(4) 0.1238(3) 0.5484(7)
H15_3 H 0.5913 0.1245 0.6487
C28_3 C 0.3497(4) 0.0495(3) 0.6273(7)
C29_2 C 0.3736(5) 0.4931(3) 0.5652(8)
C30_2 C 0.4156(4) 0.5389(3) 0.3286(7)
C31_3 C 0.7118(5) 0.1044(3) 0.0012(7)
N10_3 N 0.3271(3) 0.1154(2) 0.6990(6)
C32_2 C 0.4656(4) 0.5891(3) 0.5504(7)
H16_2 H 0.4672 0.5913 0.6507
O6_2 O 0.3730(4) 0.4930(2) 0.6986(5)
C35_3 C 0.4931(4) 0.1198(3) 0.5687(7)
O8_3 O 0.2092(4) 0.1531(3) 0.8486(9)
O9_2 O 0.1527(4) 0.2098(3) 0.7282(9)
C36_3 C 0.4898(4) 0.1237(3) 0.1097(7)
H20_3 H 0.4590 0.1250 0.0628
C37_3 C 0.5806(4) 0.1220(3) 0.0945(7)
C38_3 C 0.6273(4) 0.1202(3) 0.0090(7)
C39_2 C 0.3660(4) 0.4892(3) 0.1096(7)
H21_2 H 0.3339 0.4580 0.0633
C40_2 C 0.4116(5) 0.5353(3) 0.0257(8)
C41_3 C 0.5351(4) 0.1233(3) 0.0275(7)
C44_2 C 0.6067(4) 0.7115(3) 0.0012(7)
C45_2 C 0.5066(4) 0.6263(3) 0.0093(8)
H26_2 H 0.6025 0.8166 0.0835
H27_3 H 0.6333 0.6266 0.0697
O12_3 O 0.2094(4) 0.0563(2) 0.7289(9)
H33_2 H 0.128(5) 0.175(2) 0.704(14)
H34_3 H 0.175(5) 0.128(3) 0.880(10)
H36_3 H 0.176(6) 0.051(5) 0.707(13)
C2_3 C 0.8030(5) 0.2099(3) 0.9853(9)
H4_3 H 0.8443 0.2236 0.9712
H6_3 H 0.7908 0.2305 0.9208
C5_3 C 0.7676(5) 0.1443(3) 0.9547(6)
C33_3 C 0.6994(5) 0.0489(3) 0.9537(7)
O7_3 O 0.6279(4) 0.1205(3) 0.8788(5)
H22_2 H 0.4093 0.5340 0.9254
H23_3 H 0.5338 0.1240 0.9272
O10_2 O 0.5065(4) 0.6276(2) 0.8782(5)
C42_2 C 0.6224(4) 0.7672(3) 0.9528(6)
C43_2 C 0.6502(4) 0.6996(3) 0.9531(7)
C46_2 C 0.5940(4) 0.8028(3) 0.9855(9)
H24_2 H 0.5521 0.7789 0.9729
H25_2 H 0.6091 0.8361 0.9212
C47_3 C 0.6540(6) 0.6449(4) 0.9819(9)
H28_3 H 0.6948 0.6554 0.9913
H29_3 H 0.6363 0.6176 0.9031
C34_2 C 0.0082(4) 0.6521(6) 0.9797(9)
H17_2 H 0.0144 0.6301 0.9055
H19_2 H 0.0400 0.6924 0.9783
H22_3 H 0.4660 0.8753 0.9254
O10_3 O 0.3724(2) 0.8789(3) 0.8782(5)
C42_3 C 0.2328(3) 0.8552(3) 0.9528(6)
C43_3 C 0.3004(3) 0.9506(3) 0.9531(7)
C46_3 C 0.1972(3) 0.7912(3) 0.9855(9)
H24_3 H 0.2211 0.7732 0.9729
H25_3 H 0.1639 0.7730 0.9212
N11 N 0.2551(2) 0.9447(2) 0.8776(5)
N12_2 N 0.2121(2) 0.8850(2) 0.8780(5)
Cu6 Cu 0.13567(5) 0.86442(7) 0.78848(11)
O3_3 O 0.1147(3) 0.7182(4) 0.2844(6)
O4_3 O 0.1155(3) 0.3966(4) 0.2929(6)
N2_3 N 0.1159(2) 0.6720(3) 0.4935(5)
N3_3 N 0.1155(2) 0.4438(3) 0.0846(5)
C4_3 C 0.2106(3) 0.8032(5) 0.5946(10)
H7_3 H 0.2168 0.8170 0.4965
H8_3 H 0.2285 0.7792 0.6094
H9_3 H 0.2283 0.8366 0.6588
N8_3 N 0.1151(2) 0.7887(3) 0.6986(5)
C7_3 C 0.1448(3) 0.7669(4) 0.6248(7)
C13_3 C 0.1223(3) 0.4914(4) 0.3193(7)
C14_3 C 0.1225(3) 0.5814(4) 0.4815(7)
C15_3 C 0.1215(3) 0.6313(4) 0.2580(7)
N9_3 N 0.0553(2) 0.7452(3) 0.7003(6)
C16_3 C 0.1181(3) 0.4413(4) 0.2362(7)
C17_3 C 0.1043(3) 0.7114(4) 0.5773(7)
C18_3 C 0.1237(3) 0.4906(4) 0.4687(7)
H10_3 H 0.1248 0.4595 0.5150
C19_3 C 0.1228(3) 0.5410(4) 0.0939(7)
C20_3 C 0.1238(3) 0.5389(4) 0.2493(7)
C22_3 C 0.0488(3) 0.6988(4) 0.6258(7)
C25_3 C 0.1173(3) 0.6775(4) 0.3420(6)
C29_3 C 0.1195(4) 0.6264(5) 0.5652(8)
C30_3 C 0.1233(3) 0.5844(4) 0.3286(7)
C32_3 C 0.1235(3) 0.5344(4) 0.5504(7)
H16_3 H 0.1241 0.5328 0.6507
O6_3 O 0.1200(3) 0.6270(4) 0.6986(5)
O9_3 O 0.0571(2) 0.8473(4) 0.7282(9)
C39_3 C 0.1232(3) 0.6340(4) 0.1096(7)
H21_3 H 0.1241 0.6661 0.0633
C40_3 C 0.1237(4) 0.5884(5) 0.0257(8)
C44_3 C 0.1048(3) 0.3933(4) 0.0012(7)
C45_3 C 0.1197(3) 0.4934(4) 0.0093(8)
H26_3 H 0.2141 0.3975 0.0835
H33_3 H 0.047(5) 0.872(5) 0.704(14)
O13_2 O 0.1533(4) 0.9432(5) 0.8472(9)
H18_3 H 0.6279 0.9930 0.0721
C48_3 C 0.3462(6) 0.9919(4) 0.5977(10)
H30_3 H 0.3787 0.9911 0.6437
H31_3 H 0.3479 0.9870 0.4954
H32_3 H 0.3096 0.9603 0.6350
H35_3 H 0.125(6) 0.947(5) 0.875(12)
C34_3 C 0.6439(7) 0.9918(4) 0.9797(9)
H17_3 H 0.6157 0.9856 0.9055
H19_3 H 0.6524 0.9600 0.9783
loop_
_geom_bond_atom_site_label_1
_geom_bond_atom_site_label_2
_geom_bond_site_symmetry_1
_geom_bond_site_symmetry_2
H30 C48 1_555 1_555
H31 C48 1_555 1_555
H32 C48 1_555 1_555
H35 O11 1_555 1_555
Cu7 O11 1_555 1_555
Cu3 N10 1_555 1_555
Cu4 N6 1_555 1_555
O1 C9 1_555 1_555
O2 C11 1_555 1_555
N1 C9 1_555 1_555
C1 H1 1_555 1_555
H2 C1 1_555 1_555
H3 C1 1_555 1_555
C3 C1 1_555 1_555
N5 C11 1_555 1_555
N6 C28 1_555 1_555
C6 C8 1_555 1_555
C8 C11 1_555 1_555
C9 C10 1_555 1_555
C10 C12 1_555 1_555
C12 C6 1_555 1_555
C21 C6 1_555 1_555
H11 C23 1_555 1_555
H12 C23 1_555 1_555
H13 C23 1_555 1_555
C24 C10 1_555 1_555
H14 C24 1_555 1_555
O5 C35 1_555 1_555
C26 C3 1_555 1_555
C27 C21 1_555 1_555
H15 C27 1_555 1_555
C28 C26 1_555 1_555
C31 N1 1_555 1_555
N10 C3 1_555 1_555
C35 N5 1_555 1_555
O8 Cu1 1_555 1_555
C36 C8 1_555 1_555
H20 C36 1_555 1_555
C37 C12 1_555 1_555
C38 N1 1_555 1_555
C41 C36 1_555 1_555
O12 Cu3 1_555 1_555
H34 O8 1_555 1_555
H36 O12 1_555 1_555
N13 Cu3 1_555 1_555
N14 Cu1 1_555 1_555
Cu3 O8 1_555 1_555
Cu4 O12 1_555 1_555
N5 C26 1_555 1_555
N6 N10 1_555 1_555
C21 C35 1_555 1_555
C24 C27 1_555 1_555
C37 C38 1_555 1_555
C37 C41 1_555 1_555
N13 N14 1_555 1_555
C2 H4 1_555 1_555
H6 C2 1_555 1_555
N4 C5 1_555 1_555
C5 C2 1_555 1_555
N7 N4 1_555 1_555
C33 N7 1_555 1_555
H28 C47 1_555 1_555
H29 C47 1_555 1_555
Cu5 N7 1_555 1_555
Cu8 N4 1_555 1_555
Cu2 N8 1_555 1_555
O3 C25 1_555 1_555
O4 C16 1_555 1_555
N2 C17 1_555 1_555
N3 C16 1_555 1_555
C4 H7 1_555 1_555
H8 C4 1_555 1_555
H9 C4 1_555 1_555
N8 C7 1_555 1_555
C7 C4 1_555 1_555
C13 C16 1_555 1_555
C14 C29 1_555 1_555
C15 C25 1_555 1_555
N9 N8 1_555 1_555
C17 C7 1_555 1_555
C18 C13 1_555 1_555
H10 C18 1_555 1_555
C19 C20 1_555 1_555
C20 C13 1_555 1_555
C22 N9 1_555 1_555
C25 N2 1_555 1_555
C29 N2 1_555 1_555
C30 C14 1_555 1_555
C32 C14 1_555 1_555
H16 C32 1_555 1_555
O6 C29 1_555 1_555
C39 C15 1_555 1_555
H21 C39 1_555 1_555
C40 C19 1_555 1_555
C44 N3 1_555 1_555
C45 N3 1_555 1_555
H33 O9 1_555 1_555
N16 Cu2 1_555 1_555
O13 Cu2 1_555 1_555
Cu2 O9 1_555 1_555
C15 C30 1_555 1_555
C17 C22 1_555 1_555
C18 C32 1_555 1_555
C19 C45 1_555 1_555
C20 C30 1_555 1_555
C39 C40 1_555 1_555
C46 C42 1_555 1_555
H24 C46 1_555 1_555
H25 C46 1_555 1_555
N15 C43 1_555 1_555
N12 C42 1_555 1_555
Cu7 N12 1_555 1_555
N15 N12 1_555 1_555
Cu8 N10_2 1_555 1_555
Cu4_2 N6_2 1_555 1_555
O1_2 C9_2 1_555 1_555
O2_2 C11_2 1_555 1_555
N1_2 C9_2 1_555 1_555
C1_2 H1_2 1_555 1_555
H2_2 C1_2 1_555 1_555
H3_2 C1_2 1_555 1_555
C3_2 C1_2 1_555 1_555
N5_2 C11_2 1_555 1_555
N6_2 C28_2 1_555 1_555
C6_2 C8_2 1_555 1_555
C8_2 C11_2 1_555 1_555
C9_2 C10_2 1_555 1_555
C10_2 C12_2 1_555 1_555
C12_2 C6_2 1_555 1_555
C21_2 C6_2 1_555 1_555
H11_2 C23_2 1_555 1_555
H12_2 C23_2 1_555 1_555
H13_2 C23_2 1_555 1_555
C24_2 C10_2 1_555 1_555
H14_2 C24_2 1_555 1_555
O5_2 C35_2 1_555 1_555
C26_2 C3_2 1_555 1_555
C27_2 C21_2 1_555 1_555
H15_2 C27_2 1_555 1_555
C28_2 C26_2 1_555 1_555
C31_2 N1_2 1_555 1_555
N10_2 C3_2 1_555 1_555
C35_2 N5_2 1_555 1_555
O8_2 Cu5 1_555 1_555
C36_2 C8_2 1_555 1_555
H20_2 C36_2 1_555 1_555
C37_2 C12_2 1_555 1_555
C38_2 N1_2 1_555 1_555
C41_2 C36_2 1_555 1_555
C48_2 C28_2 1_555 1_555
H30_2 C48_2 1_555 1_555
H31_2 C48_2 1_555 1_555
H32_2 C48_2 1_555 1_555
O13 Cu4_2 1_555 1_555
O12_2 Cu8 1_555 1_555
H34_2 O8_2 1_555 1_555
H35_2 O13 1_555 1_555
H36_2 O12_2 1_555 1_555
N15_2 Cu4_2 1_555 1_555
Cu8 O8_2 1_555 1_555
Cu4_2 O12_2 1_555 1_555
N5_2 C26_2 1_555 1_555
N6_2 N10_2 1_555 1_555
C21_2 C35_2 1_555 1_555
C24_2 C27_2 1_555 1_555
C37_2 C38_2 1_555 1_555
C37_2 C41_2 1_555 1_555
C2_2 H4_2 1_555 1_555
H6_2 C2_2 1_555 1_555
N4_2 C5_2 1_555 1_555
C5_2 C2_2 1_555 1_555
N7_2 N4_2 1_555 1_555
C33_2 N7_2 1_555 1_555
C34 C33_2 1_555 1_555
H17 C34 1_555 1_555
H19 C34 1_555 1_555
H28_2 C47_2 1_555 1_555
H29_2 C47_2 1_555 1_555
Cu5_2 N7_2 1_555 1_555
Cu8_2 N4_2 1_555 1_555
Cu5_2 N9_2 1_555 1_555
Cu7 N8_2 1_555 1_555
Cu8_2 N10_3 1_555 1_555
Cu9 N6_3 1_555 1_555
O1_3 C9_3 1_555 1_555
O2_3 C11_3 1_555 1_555
O3_2 C25_2 1_555 1_555
O4_2 C16_2 1_555 1_555
N1_3 C9_3 1_555 1_555
C1_3 H1_3 1_555 1_555
H2_3 C1_3 1_555 1_555
H3_3 C1_3 1_555 1_555
C3_3 C1_3 1_555 1_555
N2_2 C17_2 1_555 1_555
N3_2 C16_2 1_555 1_555
N5_3 C11_3 1_555 1_555
C4_2 H7_2 1_555 1_555
H8_2 C4_2 1_555 1_555
H9_2 C4_2 1_555 1_555
N6_3 C28_3 1_555 1_555
C6_3 C8_3 1_555 1_555
N8_2 C7_2 1_555 1_555
C7_2 C4_2 1_555 1_555
C8_3 C11_3 1_555 1_555
C9_3 C10_3 1_555 1_555
C10_3 C12_3 1_555 1_555
C12_3 C6_3 1_555 1_555
C13_2 C16_2 1_555 1_555
C14_2 C29_2 1_555 1_555
C15_2 C25_2 1_555 1_555
N9_2 N8_2 1_555 1_555
C17_2 C7_2 1_555 1_555
C18_2 C13_2 1_555 1_555
H10_2 C18_2 1_555 1_555
C19_2 C20_2 1_555 1_555
C20_2 C13_2 1_555 1_555
C21_3 C6_3 1_555 1_555
C22_2 N9_2 1_555 1_555
C23_3 C22_2 1_555 1_555
H11_3 C23_3 1_555 1_555
H12_3 C23_3 1_555 1_555
H13_3 C23_3 1_555 1_555
C24_3 C10_3 1_555 1_555
H14_3 C24_3 1_555 1_555
O5_3 C35_3 1_555 1_555
C25_2 N2_2 1_555 1_555
C26_3 C3_3 1_555 1_555
C27_3 C21_3 1_555 1_555
H15_3 C27_3 1_555 1_555
C28_3 C26_3 1_555 1_555
C29_2 N2_2 1_555 1_555
C30_2 C14_2 1_555 1_555
C31_3 N1_3 1_555 1_555
N10_3 C3_3 1_555 1_555
C32_2 C14_2 1_555 1_555
H16_2 C32_2 1_555 1_555
O6_2 C29_2 1_555 1_555
C35_3 N5_3 1_555 1_555
O8_3 Cu5_2 1_555 1_555
O9_2 Cu5_2 1_555 1_555
C36_3 C8_3 1_555 1_555
H20_3 C36_3 1_555 1_555
C37_3 C12_3 1_555 1_555
C38_3 N1_3 1_555 1_555
C39_2 C15_2 1_555 1_555
H21_2 C39_2 1_555 1_555
C40_2 C19_2 1_555 1_555
C41_3 C36_3 1_555 1_555
C44_2 N3_2 1_555 1_555
C45_2 N3_2 1_555 1_555
O12_3 Cu8_2 1_555 1_555
H33_2 O9_2 1_555 1_555
H34_3 O8_3 1_555 1_555
H36_3 O12_3 1_555 1_555
Cu7 O9_2 1_555 1_555
Cu8_2 O8_3 1_555 1_555
Cu9 O12_3 1_555 1_555
N5_3 C26_3 1_555 1_555
N6_3 N10_3 1_555 1_555
C15_2 C30_2 1_555 1_555
C17_2 C22_2 1_555 1_555
C18_2 C32_2 1_555 1_555
C19_2 C45_2 1_555 1_555
C20_2 C30_2 1_555 1_555
C21_3 C35_3 1_555 1_555
C24_3 C27_3 1_555 1_555
C37_3 C38_3 1_555 1_555
C37_3 C41_3 1_555 1_555
C39_2 C40_2 1_555 1_555
C2_3 H4_3 1_555 1_555
H6_3 C2_3 1_555 1_555
N13 C5_3 1_555 1_555
C5_3 C2_3 1_555 1_555
C33_3 N14 1_555 1_555
C46_2 C42_2 1_555 1_555
H24_2 C46_2 1_555 1_555
H25_2 C46_2 1_555 1_555
C47_3 C43_2 1_555 1_555
H28_3 C47_3 1_555 1_555
H29_3 C47_3 1_555 1_555
N15_2 C43_2 1_555 1_555
N16 C42_2 1_555 1_555
N15_2 N16 1_555 1_555
H17_2 C34_2 1_555 1_555
H19_2 C34_2 1_555 1_555
C46_3 C42_3 1_555 1_555
H24_3 C46_3 1_555 1_555
H25_3 C46_3 1_555 1_555
N11 C43_3 1_555 1_555
N12_2 C42_3 1_555 1_555
Cu6 N12_2 1_555 1_555
N11 N12_2 1_555 1_555
Cu6 N8_3 1_555 1_555
O3_3 C25_3 1_555 1_555
O4_3 C16_3 1_555 1_555
N2_3 C17_3 1_555 1_555
N3_3 C16_3 1_555 1_555
C4_3 H7_3 1_555 1_555
H8_3 C4_3 1_555 1_555
H9_3 C4_3 1_555 1_555
N8_3 C7_3 1_555 1_555
C7_3 C4_3 1_555 1_555
C13_3 C16_3 1_555 1_555
C14_3 C29_3 1_555 1_555
C15_3 C25_3 1_555 1_555
N9_3 N8_3 1_555 1_555
C17_3 C7_3 1_555 1_555
C18_3 C13_3 1_555 1_555
H10_3 C18_3 1_555 1_555
C19_3 C20_3 1_555 1_555
C20_3 C13_3 1_555 1_555
C22_3 N9_3 1_555 1_555
C25_3 N2_3 1_555 1_555
C29_3 N2_3 1_555 1_555
C30_3 C14_3 1_555 1_555
C32_3 C14_3 1_555 1_555
H16_3 C32_3 1_555 1_555
O6_3 C29_3 1_555 1_555
C39_3 C15_3 1_555 1_555
H21_3 C39_3 1_555 1_555
C40_3 C19_3 1_555 1_555
C44_3 N3_3 1_555 1_555
C45_3 N3_3 1_555 1_555
H33_3 O9_3 1_555 1_555
O13_2 Cu6 1_555 1_555
Cu6 O9_3 1_555 1_555
C15_3 C30_3 1_555 1_555
C17_3 C22_3 1_555 1_555
C18_3 C32_3 1_555 1_555
C19_3 C45_3 1_555 1_555
C20_3 C30_3 1_555 1_555
C39_3 C40_3 1_555 1_555
H30_3 C48_3 1_555 1_555
H31_3 C48_3 1_555 1_555
H32_3 C48_3 1_555 1_555
H35_3 O13_2 1_555 1_555
H17_3 C34_3 1_555 1_555
H19_3 C34_3 1_555 1_555

#END
