
###############################################################################
#
# This file contains modified crystal structure data generated from the
# MOF subset of the Cambridge Structural Database (CSD) v543 
# hosted by the Cambridge Crystallographic Data Centre (CCDC).
#
# This work is licensed under the Creative Commons
# Attribution-NonCommercial-ShareAlike 4.0 International License.
# To view a copy of this license, visit
# http://creativecommons.org/licenses/by-nc-sa/4.0/
# or send a letter to
# Creative Commons, PO Box 1866, Mountain View, CA 94042, USA.
#
# CIF created using the CSD Python API on 29 September 2022
# The structure has been converted into the P1 space group
# The structure has a 3D framework
# The original CSD entry NIPJUU is in the monoclinic crystal system
# The framework has been calculated to contain at least 10.0% void space
# The void calculation uses a probe of radius 1.32A, grid spacing 0.4
#
###############################################################################

data_NIPJUU
_chemical_formula_moiety         '(C120 H120 N48 O70 P24 Zn24)n'
_symmetry_cell_setting           triclinic
_symmetry_space_group_name_H-M   'P 1'
_symmetry_Int_Tables_number      1
_space_group_name_Hall           'P 1'
loop_
_symmetry_equiv_pos_site_id
_symmetry_equiv_pos_as_xyz
1 x,y,z
_cell_length_a                   10.1876(8)
_cell_length_b                   26.5744(19)
_cell_length_c                   20.1478(16)
_cell_angle_alpha                90
_cell_angle_beta                 92.089(7)
_cell_angle_gamma                90
_cell_volume                     5450.98
loop_
_atom_site_label
_atom_site_type_symbol
_atom_site_fract_x
_atom_site_fract_y
_atom_site_fract_z
O1 O 0.1174(4) 0.99992(15) 0.0893(2)
O2 O 0.0286(4) 0.91654(17) 0.0542(3)
O7 O 0.0849(5) 0.80234(18) 0.1041(3)
O8 O 0.2937(6) 0.83383(19) 0.0615(2)
O9 O 0.2986(5) 0.76680(16) 0.1494(2)
O10 O 0.3738(6) 0.6987(2) 0.0214(2)
O13 O 0.6380(5) 0.6390(2) 0.1111(2)
O14 O 0.4316(5) 0.6587(2) 0.1702(3)
O15 O 0.5155(7) 0.57075(18) 0.1671(3)
O17 O 0.3463(5) 0.53897(17) 0.0405(2)
P1 P 0.13730(17) 0.95406(6) 0.04629(8)
P3 P 0.22849(18) 0.81178(6) 0.11951(9)
P5 P 0.54930(17) 0.62540(7) 0.16609(8)
Zn4 Zn 0.32688(8) 0.70064(3) 0.11157(4)
Zn5 Zn 0.63332(8) 0.63549(3) 0.01701(4)
Zn6 Zn 0.46789(8) 0.51583(3) 0.11061(4)
H26 H 0.620480 0.634255 0.222767
H28 H 0.232305 0.847115 0.167385
H30 H 0.249154 0.931847 0.069447
N14 N 0.1535(6) 0.6661(2) 0.1115(3)
N16 N 0.3563(6) 0.4704(2) 0.1666(3)
O21 O 0.6150(5) 0.47940(16) 0.0804(2)
O3 O 0.1617(5) 0.96769(18) 0.9744(2)
O5 O 0.1965(5) 0.84364(19) 0.9081(3)
O6 O 0.0010(5) 0.89480(15) 0.8731(2)
O11 O 0.4409(6) 0.76933(18) 0.9461(3)
O12 O 0.5963(5) 0.69907(19) 0.9729(3)
O16 O 0.5226(4) 0.58417(18) 0.9800(2)
O18 O 0.3850(5) 0.52060(16) 0.9196(2)
P2 P 0.05040(19) 0.84386(6) 0.89707(9)
P4 P 0.4535(2) 0.71552(7) 0.96513(10)
P6 P 0.38946(17) 0.55936(7) 0.97439(9)
Zn3 Zn 0.33802(8) 0.82567(3) 0.97138(4)
H25 H 0.302338 0.595595 0.956853
H27 H 0.407878 0.689098 0.911609
H29 H 0.023644 0.811941 0.846265
N13 N 0.8101(5) 0.6171(2) 0.9828(3)
N15 N 0.4664(6) 0.8808(2) 0.9555(3)
Zn7 Zn 0.04157(8) 0.96327(3) 0.89844(4)
Zn12 Zn 0.53211(8) 0.48417(3) 0.88939(4)
C3 C 0.7815(7) 0.0200(3) 0.2142(3)
H3 H 0.740147 0.050729 0.206596
C7 C 0.5527(7) 0.1472(3) 0.3677(3)
H7 H 0.640619 0.149486 0.357135
C8 C 0.4676(7) 0.1855(3) 0.3744(4)
H8 H 0.487386 0.219520 0.370200
C9 C 0.3600(7) 0.1175(3) 0.3910(4)
H9 H 0.292953 0.094946 0.399649
C13 C 0.4738(6) 0.0152(2) 0.4081(3)
H11 H 0.413293 0.021533 0.440606
C14 C 0.5286(6) 0.0543(2) 0.3709(3)
C15 C 0.6208(7) 0.0450(3) 0.3236(3)
H12 H 0.656580 0.071314 0.299811
C19 C 0.4017(7) 0.1235(3) 0.0504(3)
H16 H 0.352280 0.151706 0.038484
C20 C 0.3533(7) 0.0814(3) 0.0758(4)
H17 H 0.266367 0.075076 0.085579
C21 C 0.5632(7) 0.0735(2) 0.0655(3)
H18 H 0.647507 0.059989 0.066672
H21 H 0.233854 0.020768 0.277654
H23 H 0.321436 0.024736 0.184140
C29 C 0.4602(7) 0.0032(2) 0.1204(3)
N1 N 0.8751(6) 0.0024(2) 0.1791(3)
N5 N 0.3465(6) 0.1661(2) 0.3885(3)
N6 N 0.4837(5) 0.10458(19) 0.3795(3)
N9 N 0.5336(6) 0.1192(2) 0.0445(3)
N10 N 0.4578(5) 0.04922(19) 0.0846(3)
Zn1 Zn 0.95843(8) 0.03673(3) 0.10156(4)
O19 O 0.8383(5) 0.03231(18) 0.0256(2)
O20 O 0.9990(5) 0.10520(15) 0.1269(2)
Zn8 Zn 0.66198(8) 0.17433(3) 0.02862(4)
Zn9 Zn 0.17312(8) 0.20064(3) 0.38843(4)
Zn11 Zn 0.03211(8) 0.01583(3) 0.38939(4)
C4 C 0.0023(7) 0.3769(3) 0.0696(4)
C5 C 0.0915(8) 0.3510(3) 0.0357(4)
H5 H 0.087312 0.316813 0.026219
C6 C 0.1586(6) 0.4271(2) 0.0390(3)
H6 H 0.208432 0.456038 0.033139
C8_2 C 0.0324(7) 0.6855(3) 0.1256(4)
H8_2 H 0.012614 0.719520 0.129800
C9_2 C 0.1400(7) 0.6175(3) 0.1090(4)
H9_2 H 0.207047 0.594946 0.100351
C13_2 C 0.0262(6) 0.5152(2) 0.0919(3)
H11_2 H 0.086707 0.521533 0.059394
C19_2 C 0.0983(7) 0.6235(3) 0.4496(3)
H16_2 H 0.147720 0.651706 0.461516
C20_2 C 0.1467(7) 0.5814(3) 0.4242(4)
H17_2 H 0.233633 0.575076 0.414421
C22 C 0.2533(7) 0.4041(2) 0.2099(3)
H19 H 0.226151 0.371424 0.218790
C23 C 0.3411(7) 0.4185(2) 0.1657(3)
H20 H 0.385726 0.396761 0.138255
C24 C 0.2766(7) 0.4871(2) 0.2113(3)
H21_2 H 0.266146 0.520768 0.222346
C26 C 0.0379(7) 0.4145(2) 0.3076(3)
H22 H 0.034854 0.384856 0.282999
C27 C 0.1225(7) 0.4532(2) 0.2915(3)
C28 C 0.1233(6) 0.4985(2) 0.3271(3)
H23_2 H 0.178564 0.524736 0.315860
C29_2 C 0.0398(7) 0.5032(2) 0.3796(3)
N3 N 0.1899(5) 0.3829(2) 0.0172(3)
N4 N 0.0447(5) 0.42594(19) 0.0711(3)
N6_2 N 0.0163(5) 0.60458(19) 0.1205(3)
N10_2 N 0.0422(5) 0.54922(19) 0.4154(3)
N12 N 0.2115(5) 0.44821(19) 0.2394(2)
Zn10 Zn 0.36668(8) 0.36451(3) 0.98299(4)
C1 C 0.5915(7) 0.4566(3) 0.2931(3)
H1 H 0.527446 0.435001 0.308444
C2 C 0.6651(7) 0.4479(3) 0.2407(3)
H2 H 0.660222 0.420183 0.212583
C3_2 C 0.7185(7) 0.5200(3) 0.2858(3)
H3_2 H 0.759853 0.550729 0.293404
H4 H 0.927017 0.364128 0.088211
C7_2 C 0.9473(7) 0.6472(3) 0.1323(3)
H7_2 H 0.859381 0.649486 0.142865
C10 C 0.8414(6) 0.4961(2) 0.1875(3)
C11 C 0.8950(6) 0.4565(2) 0.1541(3)
H10 H 0.871458 0.423495 0.163363
C12 C 0.9852(6) 0.4672(2) 0.1062(3)
C14_2 C 0.9714(6) 0.5543(2) 0.1291(3)
C15_2 C 0.8792(7) 0.5450(3) 0.1764(3)
H12_2 H 0.843420 0.571314 0.200189
C16 C 0.7804(8) 0.3103(3) 0.4010(4)
H13 H 0.765493 0.275932 0.405670
C17 C 0.8904(7) 0.3310(3) 0.3766(4)
H14 H 0.963072 0.314046 0.361024
C18 C 0.7539(7) 0.3894(2) 0.4051(3)
H15 H 0.717463 0.420819 0.413021
C21_2 C 0.9368(7) 0.5735(2) 0.4345(3)
H18_2 H 0.852493 0.559989 0.433328
C25 C 0.9589(6) 0.4209(2) 0.3609(3)
C30 C 0.9593(6) 0.4646(2) 0.3977(3)
H24 H 0.906088 0.467870 0.433967
N1_2 N 0.6249(6) 0.5024(2) 0.3209(3)
N2 N 0.7483(5) 0.48765(19) 0.2367(3)
N7 N 0.6966(5) 0.3466(2) 0.4173(3)
N8 N 0.8723(5) 0.38215(19) 0.3796(3)
N9_2 N 0.9664(6) 0.6192(2) 0.4555(3)
O1_2 O 0.3826(4) 0.49992(15) 0.4107(2)
O2_2 O 0.4714(4) 0.41654(17) 0.4458(3)
O3_2 O 0.3383(5) 0.46769(18) 0.5256(2)
O4 O 0.5243(5) 0.32301(18) 0.5454(2)
O5_2 O 0.3035(5) 0.34364(19) 0.5919(3)
O6_2 O 0.4990(5) 0.39480(15) 0.6269(2)
O7_2 O 0.4151(5) 0.30234(18) 0.3959(3)
O8_2 O 0.2063(6) 0.33383(19) 0.4385(2)
O9_2 O 0.2014(5) 0.26680(16) 0.3506(2)
O10_2 O 0.1262(6) 0.1987(2) 0.4786(2)
O11_2 O 0.0591(6) 0.26933(18) 0.5539(3)
O14_2 O 0.0684(5) 0.1587(2) 0.3298(3)
O17_2 O 0.1537(5) 0.03897(17) 0.4595(2)
O18_2 O 0.1150(5) 0.02060(16) 0.5804(2)
P1_2 P 0.36270(17) 0.45406(6) 0.45371(8)
P2_2 P 0.44960(19) 0.34386(6) 0.60293(9)
P3_2 P 0.27151(18) 0.31178(6) 0.38049(9)
P4_2 P 0.0465(2) 0.21552(7) 0.53487(10)
P6_2 P 0.11054(17) 0.05936(7) 0.52561(9)
Zn1_2 Zn 0.54157(8) 0.53673(3) 0.39844(4)
Zn2 Zn 0.51612(8) 0.34614(3) 0.45428(4)
Zn3_2 Zn 0.16198(8) 0.32567(3) 0.52862(4)
H25_2 H 0.197662 0.095595 0.543147
H27_2 H 0.092122 0.189098 0.588391
H28_2 H 0.267695 0.347115 0.332615
H29_2 H 0.476356 0.311941 0.653735
H30_2 H 0.250846 0.431847 0.430553
N15_2 N 0.0336(6) 0.3808(2) 0.5445(3)
O19_2 O 0.6617(5) 0.53231(18) 0.4744(2)
O20_2 O 0.5010(5) 0.60520(15) 0.3731(2)
Zn7_2 Zn 0.45843(8) 0.46327(3) 0.60156(4)
Zn8_2 Zn 0.83802(8) 0.67433(3) 0.47138(4)
O21_2 O 0.8850(5) 0.97940(16) 0.4196(2)
Zn12_2 Zn 0.96789(8) 0.98417(3) 0.61061(4)
C3_3 C 0.2185(7) 0.9800(3) 0.7858(3)
H3_3 H 0.259853 0.949271 0.793404
C7_3 C 0.4473(7) 0.8528(3) 0.6323(3)
H7_3 H 0.359381 0.850514 0.642865
C8_3 C 0.5324(7) 0.8145(3) 0.6256(4)
H8_3 H 0.512614 0.780480 0.629800
C9_3 C 0.6400(7) 0.8825(3) 0.6090(4)
H9_3 H 0.707047 0.905054 0.600351
C13_3 C 0.5262(6) 0.9848(2) 0.5919(3)
H11_3 H 0.586707 0.978467 0.559394
C14_3 C 0.4714(6) 0.9457(2) 0.6291(3)
C15_3 C 0.3792(7) 0.9550(3) 0.6764(3)
H12_3 H 0.343420 0.928686 0.700189
C19_3 C 0.5983(7) 0.8765(3) 0.9496(3)
H16_3 H 0.647720 0.848294 0.961516
C20_3 C 0.6467(7) 0.9186(3) 0.9242(4)
H17_3 H 0.733633 0.924924 0.914421
C21_3 C 0.4368(7) 0.9265(2) 0.9345(3)
H18_3 H 0.352493 0.940011 0.933328
H21_3 H 0.766146 0.979232 0.722346
H23_3 H 0.678564 0.975264 0.815860
C29_3 C 0.5398(7) 0.9968(2) 0.8796(3)
N1_3 N 0.1249(6) 0.9976(2) 0.8209(3)
N5_2 N 0.6535(6) 0.8339(2) 0.6115(3)
N6_3 N 0.5163(5) 0.89542(19) 0.6205(3)
N10_3 N 0.5422(5) 0.95078(19) 0.9154(3)
Zn9_2 Zn 0.82688(8) 0.79936(3) 0.61157(4)
O5_3 O 0.8035(5) 0.15636(19) 0.0919(3)
O11_3 O 0.5591(6) 0.23067(18) 0.0539(3)
O12_2 O 0.4037(5) 0.30093(19) 0.0271(3)
O16_2 O 0.4774(4) 0.41583(18) 0.0200(2)
P2_3 P 0.94960(19) 0.15614(6) 0.10293(9)
P4_3 P 0.5465(2) 0.28448(7) 0.03487(10)
P6_3 P 0.61054(17) 0.44064(7) 0.02561(9)
H25_3 H 0.697662 0.404405 0.043147
H27_3 H 0.592122 0.310902 0.088391
H29_3 H 0.976356 0.188059 0.153735
O1_3 O 0.8826(4) 0.00008(15) 0.9107(2)
O2_3 O 0.9714(4) 0.08346(17) 0.9458(3)
O7_3 O 0.9151(5) 0.19766(18) 0.8959(3)
O8_3 O 0.7063(6) 0.16617(19) 0.9385(2)
O9_3 O 0.7014(5) 0.23320(16) 0.8506(2)
O10_3 O 0.6262(6) 0.3013(2) 0.9786(2)
O13_2 O 0.3620(5) 0.3610(2) 0.8889(2)
O14_3 O 0.5684(5) 0.3413(2) 0.8298(3)
O15_2 O 0.4845(7) 0.42925(18) 0.8329(3)
O17_3 O 0.6537(5) 0.46103(17) 0.9595(2)
P1_3 P 0.86270(17) 0.04594(6) 0.95371(8)
P3_3 P 0.77151(18) 0.18822(6) 0.88049(9)
P5_2 P 0.45070(17) 0.37460(7) 0.83391(8)
Zn4_2 Zn 0.67312(8) 0.29936(3) 0.88843(4)
H26_2 H 0.379520 0.365745 0.777233
H28_3 H 0.767695 0.152885 0.832615
H30_3 H 0.750846 0.068153 0.930553
N14_2 N 0.8465(6) 0.3339(2) 0.8885(3)
N16_2 N 0.6437(6) 0.5296(2) 0.8334(3)
C1_2 C 0.4085(7) 0.5434(3) 0.7069(3)
H1_2 H 0.472554 0.564999 0.691556
C2_2 C 0.3349(7) 0.5521(3) 0.7593(3)
H2_2 H 0.339778 0.579817 0.787417
C3_4 C 0.2815(7) 0.4800(3) 0.7142(3)
H3_4 H 0.240147 0.449271 0.706596
H4_2 H 0.072983 0.635872 0.911789
C7_4 C 0.0527(7) 0.3528(3) 0.8677(3)
H7_4 H 0.140619 0.350514 0.857135
C10_2 C 0.1586(6) 0.5039(2) 0.8125(3)
C11_2 C 0.1050(6) 0.5435(2) 0.8459(3)
H10_2 H 0.128542 0.576505 0.836637
C12_2 C 0.0148(6) 0.5328(2) 0.8938(3)
C14_4 C 0.0286(6) 0.4457(2) 0.8709(3)
C15_4 C 0.1208(7) 0.4550(3) 0.8236(3)
H12_4 H 0.156580 0.428686 0.799811
C16_2 C 0.2196(8) 0.6897(3) 0.5990(4)
H13_2 H 0.234507 0.724068 0.594330
C17_2 C 0.1096(7) 0.6690(3) 0.6234(4)
H14_2 H 0.036928 0.685954 0.638976
C18_2 C 0.2461(7) 0.6106(2) 0.5949(3)
H15_2 H 0.282537 0.579181 0.586979
C21_4 C 0.0632(7) 0.4265(2) 0.5655(3)
H18_4 H 0.147507 0.440011 0.566672
C25_2 C 0.0411(6) 0.5791(2) 0.6391(3)
C30_2 C 0.0407(6) 0.5354(2) 0.6023(3)
H24_2 H 0.093912 0.532130 0.566033
N1_4 N 0.3751(6) 0.4976(2) 0.6791(3)
N2_2 N 0.2517(5) 0.51235(19) 0.7633(3)
N7_2 N 0.3034(5) 0.6534(2) 0.5827(3)
N8_2 N 0.1277(5) 0.61785(19) 0.6204(3)
O1_4 O 0.6174(4) 0.50008(15) 0.5893(2)
O2_4 O 0.5286(4) 0.58346(17) 0.5542(3)
O4_2 O 0.4757(5) 0.67699(18) 0.4546(2)
O5_4 O 0.6965(5) 0.65636(19) 0.4081(3)
O7_4 O 0.5849(5) 0.69766(18) 0.6041(3)
O8_4 O 0.7937(6) 0.66617(19) 0.5615(2)
O9_4 O 0.7986(5) 0.73320(16) 0.6494(2)
O10_4 O 0.8738(6) 0.8013(2) 0.5214(2)
O11_4 O 0.9409(6) 0.73067(18) 0.4461(3)
O14_4 O 0.9316(5) 0.8413(2) 0.6702(3)
O17_4 O 0.8463(5) 0.96103(17) 0.5405(2)
P1_4 P 0.63730(17) 0.54594(6) 0.54629(8)
P2_4 P 0.55040(19) 0.65614(6) 0.39707(9)
P3_4 P 0.72849(18) 0.68822(6) 0.61951(9)
P4_4 P 0.9535(2) 0.78448(7) 0.46513(10)
P6_4 P 0.88946(17) 0.94064(7) 0.47439(9)
Zn2_2 Zn 0.48388(8) 0.65386(3) 0.54572(4)
H25_4 H 0.802338 0.904405 0.456853
H27_4 H 0.907878 0.810902 0.411609
H28_4 H 0.732305 0.652885 0.667385
H29_4 H 0.523644 0.688059 0.346265
H30_4 H 0.749154 0.568153 0.569447
C4_2 C 0.9977(7) 0.6231(3) 0.9304(4)
C5_2 C 0.9085(8) 0.6490(3) 0.9643(4)
H5_2 H 0.912688 0.683187 0.973781
C6_2 C 0.8414(6) 0.5729(2) 0.9610(3)
H6_2 H 0.791568 0.543962 0.966861
C8_4 C 0.9676(7) 0.3145(3) 0.8744(4)
H8_4 H 0.987386 0.280480 0.870200
C9_4 C 0.8600(7) 0.3825(3) 0.8910(4)
H9_4 H 0.792953 0.405054 0.899649
C13_4 C 0.9738(6) 0.4848(2) 0.9081(3)
H11_4 H 0.913293 0.478467 0.940606
C19_4 C 0.9017(7) 0.3765(3) 0.5504(3)
H16_4 H 0.852280 0.348294 0.538484
C20_4 C 0.8533(7) 0.4186(3) 0.5758(4)
H17_4 H 0.766367 0.424924 0.585579
C22_2 C 0.7467(7) 0.5959(2) 0.7901(3)
H19_2 H 0.773849 0.628576 0.781210
C23_2 C 0.6589(7) 0.5815(2) 0.8343(3)
H20_2 H 0.614274 0.603239 0.861745
C24_2 C 0.7234(7) 0.5129(2) 0.7887(3)
H21_4 H 0.733854 0.479232 0.777654
C26_2 C 0.9621(7) 0.5855(2) 0.6924(3)
H22_2 H 0.965146 0.615144 0.717001
C27_2 C 0.8775(7) 0.5468(2) 0.7085(3)
C28_2 C 0.8767(6) 0.5015(2) 0.6729(3)
H23_4 H 0.821436 0.475264 0.684140
C29_4 C 0.9602(7) 0.4968(2) 0.6204(3)
N4_2 N 0.9553(5) 0.57406(19) 0.9289(3)
N6_4 N 0.9837(5) 0.39542(19) 0.8795(3)
N10_4 N 0.9578(5) 0.45078(19) 0.5846(3)
N12_2 N 0.7885(5) 0.55179(19) 0.7606(2)
C1_3 C 0.9085(7) 0.9566(3) 0.2069(3)
H1_3 H 0.972554 0.935001 0.191556
C2_3 C 0.8349(7) 0.9479(3) 0.2593(3)
H2_3 H 0.839778 0.920183 0.287417
C4_3 C 0.4977(7) 0.8769(3) 0.4304(4)
H4_3 H 0.572983 0.864128 0.411789
C5_3 C 0.4085(8) 0.8510(3) 0.4643(4)
H5_3 H 0.412688 0.816813 0.473781
C6_3 C 0.3414(6) 0.9271(2) 0.4610(3)
H6_3 H 0.291568 0.956038 0.466861
C10_3 C 0.6586(6) 0.9961(2) 0.3125(3)
C11_3 C 0.6050(6) 0.9565(2) 0.3459(3)
H10_3 H 0.628542 0.923495 0.336637
C12_3 C 0.5148(6) 0.9672(2) 0.3938(3)
C16_3 C 0.7196(8) 0.8103(3) 0.0990(4)
H13_3 H 0.734507 0.775932 0.094330
C17_3 C 0.6096(7) 0.8310(3) 0.1234(4)
H14_3 H 0.536928 0.814046 0.138976
C18_3 C 0.7461(7) 0.8894(2) 0.0949(3)
H15_3 H 0.782537 0.920819 0.086979
C22_3 C 0.2467(7) 0.9041(2) 0.2901(3)
H19_3 H 0.273849 0.871424 0.281210
C23_3 C 0.1589(7) 0.9185(2) 0.3343(3)
H20_3 H 0.114274 0.896761 0.361745
C24_3 C 0.2234(7) 0.9871(2) 0.2887(3)
C25_3 C 0.5411(6) 0.9209(2) 0.1391(3)
C26_3 C 0.4621(7) 0.9145(2) 0.1924(3)
H22_3 H 0.465146 0.884856 0.217001
C27_3 C 0.3775(7) 0.9532(2) 0.2085(3)
C28_3 C 0.3767(6) 0.9985(2) 0.1729(3)
C30_3 C 0.5407(6) 0.9646(2) 0.1023(3)
H24_3 H 0.593912 0.967870 0.066033
N2_3 N 0.7517(5) 0.98765(19) 0.2633(3)
N3_2 N 0.3101(5) 0.8829(2) 0.4828(3)
N4_3 N 0.4553(5) 0.92594(19) 0.4289(3)
N7_3 N 0.8034(5) 0.8466(2) 0.0827(3)
N8_3 N 0.6277(5) 0.88215(19) 0.1204(3)
N11 N 0.1437(6) 0.9704(2) 0.3334(3)
N12_3 N 0.2885(5) 0.94821(19) 0.2606(2)
Zn2_3 Zn 0.98388(8) 0.84614(3) 0.04572(4)
Zn10_2 Zn 0.13332(8) 0.86451(3) 0.51701(4)
O12_3 O 0.0963(5) 0.80093(19) 0.4729(3)
O13_3 O 0.1380(5) 0.8610(2) 0.6111(2)
O15_3 O 0.0155(7) 0.92925(18) 0.6671(3)
O16_3 O 0.0226(4) 0.91583(18) 0.4800(2)
P5_3 P 0.04930(17) 0.87460(7) 0.66609(8)
H26_3 H 0.120480 0.865745 0.722767
O4_3 O 0.9757(5) 0.82301(18) 0.9546(2)
O12_4 O 0.9037(5) 0.19907(19) 0.5271(3)
O13_4 O 0.8620(5) 0.1390(2) 0.3889(2)
O15_4 O 0.9845(7) 0.07075(18) 0.3329(3)
O16_4 O 0.9774(4) 0.08417(18) 0.5200(2)
P5_4 P 0.95070(17) 0.12540(7) 0.33391(8)
Zn5_2 Zn 0.86668(8) 0.13549(3) 0.48299(4)
H26_4 H 0.879520 0.134255 0.277233
N13_2 N 0.6899(5) 0.1171(2) 0.5172(3)
C1_4 C 0.0915(7) 0.0434(3) 0.7931(3)
H1_4 H 0.027446 0.064999 0.808444
C2_4 C 0.1651(7) 0.0521(3) 0.7407(3)
H2_4 H 0.160222 0.079817 0.712583
C4_4 C 0.5023(7) 0.1231(3) 0.5696(4)
H4_4 H 0.427017 0.135872 0.588211
C5_4 C 0.5915(8) 0.1490(3) 0.5357(4)
H5_4 H 0.587312 0.183187 0.526219
C6_4 C 0.6586(6) 0.0729(2) 0.5390(3)
H6_4 H 0.708432 0.043962 0.533139
C10_4 C 0.3414(6) 0.0039(2) 0.6875(3)
C11_4 C 0.3950(6) 0.0435(2) 0.6541(3)
H10_4 H 0.371458 0.076505 0.663363
C12_4 C 0.4852(6) 0.0328(2) 0.6062(3)
C16_4 C 0.2804(8) 0.1897(3) 0.9010(4)
H13_4 H 0.265493 0.224068 0.905670
C17_4 C 0.3904(7) 0.1690(3) 0.8766(4)
H14_4 H 0.463072 0.185954 0.861024
C18_4 C 0.2539(7) 0.1106(2) 0.9051(3)
H15_4 H 0.217463 0.079181 0.913021
C22_4 C 0.7533(7) 0.0959(2) 0.7099(3)
H19_4 H 0.726151 0.128576 0.718790
C23_4 C 0.8411(7) 0.0815(2) 0.6657(3)
H20_4 H 0.885726 0.103239 0.638255
C24_4 C 0.7766(7) 0.0129(2) 0.7113(3)
C25_4 C 0.4589(6) 0.0791(2) 0.8609(3)
C26_4 C 0.5379(7) 0.0855(2) 0.8076(3)
H22_4 H 0.534854 0.115144 0.782999
C27_4 C 0.6225(7) 0.0468(2) 0.7915(3)
C28_4 C 0.6233(6) 0.0015(2) 0.8271(3)
C30_4 C 0.4593(6) 0.0354(2) 0.8977(3)
H24_4 H 0.406088 0.032130 0.933967
N2_4 N 0.2483(5) 0.01235(19) 0.7367(3)
N4_4 N 0.5447(5) 0.07406(19) 0.5711(3)
N7_4 N 0.1966(5) 0.1534(2) 0.9173(3)
N8_4 N 0.3723(5) 0.11785(19) 0.8796(3)
N11_2 N 0.8563(6) 0.0296(2) 0.6666(3)
N12_4 N 0.7115(5) 0.05179(19) 0.7394(2)
Zn2_4 Zn 0.01612(8) 0.15386(3) 0.95428(4)
O4_4 O 0.0243(5) 0.17699(18) 0.0454(2)
loop_
_geom_bond_atom_site_label_1
_geom_bond_atom_site_label_2
_geom_bond_site_symmetry_1
_geom_bond_site_symmetry_2
O1 P1 1_555 1_555
O2 P1 1_555 1_555
O7 P3 1_555 1_555
O8 P3 1_555 1_555
O9 P3 1_555 1_555
O13 P5 1_555 1_555
O14 P5 1_555 1_555
O15 P5 1_555 1_555
P1 H30 1_555 1_555
P3 H28 1_555 1_555
P5 H26 1_555 1_555
Zn4 O9 1_555 1_555
Zn6 O15 1_555 1_555
N14 Zn4 1_555 1_555
N16 Zn6 1_555 1_555
O21 Zn6 1_555 1_555
O10 Zn4 1_555 1_555
O13 Zn5 1_555 1_555
O14 Zn4 1_555 1_555
O17 Zn6 1_555 1_555
O5 P2 1_555 1_555
O6 P2 1_555 1_555
O11 P4 1_555 1_555
O12 P4 1_555 1_555
O16 P6 1_555 1_555
O18 P6 1_555 1_555
P2 H29 1_555 1_555
P4 H27 1_555 1_555
P6 H25 1_555 1_555
Zn3 O5 1_555 1_555
N15 Zn3 1_555 1_555
Zn7 O3 1_555 1_555
Zn12 O18 1_555 1_555
O6 Zn7 1_555 1_555
O11 Zn3 1_555 1_555
C3 H3 1_555 1_555
C7 H7 1_555 1_555
C8 C7 1_555 1_555
H8 C8 1_555 1_555
C9 H9 1_555 1_555
H11 C13 1_555 1_555
C14 C13 1_555 1_555
H12 C15 1_555 1_555
C19 H16 1_555 1_555
C20 C19 1_555 1_555
H17 C20 1_555 1_555
C21 H18 1_555 1_555
N5 C8 1_555 1_555
N6 C7 1_555 1_555
N9 C19 1_555 1_555
N10 C20 1_555 1_555
Zn1 N1 1_555 1_555
O19 Zn1 1_555 1_555
O20 Zn1 1_555 1_555
Zn8 N9 1_555 1_555
Zn9 N5 1_555 1_555
C3 N1 1_555 1_555
C9 N5 1_555 1_555
C9 N6 1_555 1_555
C14 C15 1_555 1_555
C14 N6 1_555 1_555
C21 N9 1_555 1_555
C21 N10 1_555 1_555
C29 N10 1_555 1_555
C5 C4 1_555 1_555
H5 C5 1_555 1_555
C6 H6 1_555 1_555
H8_2 C8_2 1_555 1_555
C9_2 H9_2 1_555 1_555
H11_2 C13_2 1_555 1_555
C19_2 H16_2 1_555 1_555
C20_2 C19_2 1_555 1_555
H17_2 C20_2 1_555 1_555
C22 H19 1_555 1_555
C23 C22 1_555 1_555
H20 C23 1_555 1_555
C24 H21_2 1_555 1_555
C26 H22 1_555 1_555
C27 C26 1_555 1_555
C28 C27 1_555 1_555
H23_2 C28 1_555 1_555
C29_2 C28 1_555 1_555
N3 C5 1_555 1_555
N4 C4 1_555 1_555
N14 C8_2 1_555 1_555
N10_2 C20_2 1_555 1_555
N16 C23 1_555 1_555
N12 C22 1_555 1_555
C6 N3 1_555 1_555
C6 N4 1_555 1_555
C9_2 N14 1_555 1_555
C9_2 N6_2 1_555 1_555
C24 N16 1_555 1_555
C24 N12 1_555 1_555
C27 N12 1_555 1_555
C29_2 N10_2 1_555 1_555
C1 H1 1_555 1_555
C2 C1 1_555 1_555
H2 C2 1_555 1_555
C3_2 H3_2 1_555 1_555
C7_2 H7_2 1_555 1_555
C10 C11 1_555 1_555
C11 H10 1_555 1_555
C12 C11 1_555 1_555
C15_2 C10 1_555 1_555
H12_2 C15_2 1_555 1_555
C16 H13 1_555 1_555
C17 C16 1_555 1_555
H14 C17 1_555 1_555
C18 H15 1_555 1_555
C21_2 H18_2 1_555 1_555
C30 C25 1_555 1_555
H24 C30 1_555 1_555
N1_2 C1 1_555 1_555
N2 C2 1_555 1_555
N7 C16 1_555 1_555
N8 C17 1_555 1_555
O1_2 P1_2 1_555 1_555
O2_2 P1_2 1_555 1_555
O3_2 P1_2 1_555 1_555
O4 P2_2 1_555 1_555
O5_2 P2_2 1_555 1_555
O6_2 P2_2 1_555 1_555
O7_2 P3_2 1_555 1_555
O8_2 P3_2 1_555 1_555
O9_2 P3_2 1_555 1_555
O10_2 P4_2 1_555 1_555
O11_2 P4_2 1_555 1_555
O17_2 P6_2 1_555 1_555
O18_2 P6_2 1_555 1_555
P1_2 H30_2 1_555 1_555
P2_2 H29_2 1_555 1_555
P3_2 H28_2 1_555 1_555
P4_2 H27_2 1_555 1_555
P6_2 H25_2 1_555 1_555
Zn1_2 N1_2 1_555 1_555
Zn2 N7 1_555 1_555
Zn3_2 O5_2 1_555 1_555
Zn9 O9_2 1_555 1_555
N15_2 Zn3_2 1_555 1_555
O19_2 Zn1_2 1_555 1_555
O20_2 Zn1_2 1_555 1_555
Zn7_2 O3_2 1_555 1_555
Zn8_2 N9_2 1_555 1_555
C3_2 N1_2 1_555 1_555
C3_2 N2 1_555 1_555
C10 N2 1_555 1_555
C14_2 C15_2 1_555 1_555
C18 N7 1_555 1_555
C18 N8 1_555 1_555
C21_2 N9_2 1_555 1_555
C25 N8 1_555 1_555
O1_2 Zn1_2 1_555 1_555
O2_2 Zn2 1_555 1_555
O4 Zn2 1_555 1_555
O6_2 Zn7_2 1_555 1_555
O7_2 Zn2 1_555 1_555
O8_2 Zn3_2 1_555 1_555
O10_2 Zn9 1_555 1_555
O11_2 Zn3_2 1_555 1_555
O14_2 Zn9 1_555 1_555
O17_2 Zn11 1_555 1_555
C3_3 H3_3 1_555 1_555
C7_3 H7_3 1_555 1_555
C8_3 C7_3 1_555 1_555
H8_3 C8_3 1_555 1_555
C9_3 H9_3 1_555 1_555
H11_3 C13_3 1_555 1_555
C14_3 C13_3 1_555 1_555
H12_3 C15_3 1_555 1_555
C19_3 H16_3 1_555 1_555
C20_3 C19_3 1_555 1_555
H17_3 C20_3 1_555 1_555
C21_3 H18_3 1_555 1_555
N5_2 C8_3 1_555 1_555
N6_3 C7_3 1_555 1_555
N15 C19_3 1_555 1_555
N10_3 C20_3 1_555 1_555
Zn7 N1_3 1_555 1_555
Zn9_2 N5_2 1_555 1_555
C3_3 N1_3 1_555 1_555
C9_3 N5_2 1_555 1_555
C9_3 N6_3 1_555 1_555
C14_3 C15_3 1_555 1_555
C14_3 N6_3 1_555 1_555
C21_3 N15 1_555 1_555
C21_3 N10_3 1_555 1_555
C29_3 N10_3 1_555 1_555
O5_3 P2_3 1_555 1_555
O20 P2_3 1_555 1_555
O11_3 P4_3 1_555 1_555
O12_2 P4_3 1_555 1_555
O16_2 P6_3 1_555 1_555
O21 P6_3 1_555 1_555
P2_3 H29_3 1_555 1_555
P4_3 H27_3 1_555 1_555
P6_3 H25_3 1_555 1_555
Zn8 O5_3 1_555 1_555
O11_3 Zn8 1_555 1_555
O1_3 P1_3 1_555 1_555
O2_3 P1_3 1_555 1_555
O7_3 P3_3 1_555 1_555
O8_3 P3_3 1_555 1_555
O9_3 P3_3 1_555 1_555
O13_2 P5_2 1_555 1_555
O14_3 P5_2 1_555 1_555
O15_2 P5_2 1_555 1_555
P1_3 H30_3 1_555 1_555
P3_3 H28_3 1_555 1_555
P5_2 H26_2 1_555 1_555
Zn4_2 O9_3 1_555 1_555
Zn12 O15_2 1_555 1_555
N14_2 Zn4_2 1_555 1_555
N16_2 Zn12 1_555 1_555
O10_3 Zn4_2 1_555 1_555
O13_2 Zn10 1_555 1_555
O14_3 Zn4_2 1_555 1_555
O17_3 Zn12 1_555 1_555
C1_2 H1_2 1_555 1_555
C2_2 C1_2 1_555 1_555
H2_2 C2_2 1_555 1_555
C3_4 H3_4 1_555 1_555
C7_4 H7_4 1_555 1_555
C10_2 C11_2 1_555 1_555
C11_2 H10_2 1_555 1_555
C12_2 C11_2 1_555 1_555
C15_4 C10_2 1_555 1_555
H12_4 C15_4 1_555 1_555
C16_2 H13_2 1_555 1_555
C17_2 C16_2 1_555 1_555
H14_2 C17_2 1_555 1_555
C18_2 H15_2 1_555 1_555
C21_4 H18_4 1_555 1_555
C30_2 C25_2 1_555 1_555
H24_2 C30_2 1_555 1_555
N1_4 C1_2 1_555 1_555
N2_2 C2_2 1_555 1_555
N7_2 C16_2 1_555 1_555
N8_2 C17_2 1_555 1_555
O1_4 P1_4 1_555 1_555
O2_4 P1_4 1_555 1_555
O19_2 P1_4 1_555 1_555
O4_2 P2_4 1_555 1_555
O5_4 P2_4 1_555 1_555
O20_2 P2_4 1_555 1_555
O7_4 P3_4 1_555 1_555
O8_4 P3_4 1_555 1_555
O9_4 P3_4 1_555 1_555
O10_4 P4_4 1_555 1_555
O11_4 P4_4 1_555 1_555
O17_4 P6_4 1_555 1_555
O21_2 P6_4 1_555 1_555
P1_4 H30_4 1_555 1_555
P2_4 H29_4 1_555 1_555
P3_4 H28_4 1_555 1_555
P4_4 H27_4 1_555 1_555
P6_4 H25_4 1_555 1_555
Zn7_2 N1_4 1_555 1_555
Zn2_2 N7_2 1_555 1_555
Zn8_2 O5_4 1_555 1_555
Zn9_2 O9_4 1_555 1_555
C3_4 N1_4 1_555 1_555
C3_4 N2_2 1_555 1_555
C10_2 N2_2 1_555 1_555
C14_4 C15_4 1_555 1_555
C18_2 N7_2 1_555 1_555
C18_2 N8_2 1_555 1_555
C21_4 N15_2 1_555 1_555
C25_2 N8_2 1_555 1_555
O1_4 Zn7_2 1_555 1_555
O2_4 Zn2_2 1_555 1_555
O4_2 Zn2_2 1_555 1_555
O7_4 Zn2_2 1_555 1_555
O8_4 Zn8_2 1_555 1_555
O10_4 Zn9_2 1_555 1_555
O11_4 Zn8_2 1_555 1_555
O14_4 Zn9_2 1_555 1_555
O17_4 Zn12_2 1_555 1_555
C5_2 C4_2 1_555 1_555
H5_2 C5_2 1_555 1_555
C6_2 H6_2 1_555 1_555
H8_4 C8_4 1_555 1_555
C9_4 H9_4 1_555 1_555
H11_4 C13_4 1_555 1_555
C19_4 H16_4 1_555 1_555
C20_4 C19_4 1_555 1_555
H17_4 C20_4 1_555 1_555
C22_2 H19_2 1_555 1_555
C23_2 C22_2 1_555 1_555
H20_2 C23_2 1_555 1_555
C24_2 H21_4 1_555 1_555
C26_2 H22_2 1_555 1_555
C27_2 C26_2 1_555 1_555
C28_2 C27_2 1_555 1_555
H23_4 C28_2 1_555 1_555
C29_4 C28_2 1_555 1_555
N13 C5_2 1_555 1_555
N4_2 C4_2 1_555 1_555
N14_2 C8_4 1_555 1_555
N10_4 C20_4 1_555 1_555
N16_2 C23_2 1_555 1_555
N12_2 C22_2 1_555 1_555
C6_2 N13 1_555 1_555
C6_2 N4_2 1_555 1_555
C9_4 N14_2 1_555 1_555
C9_4 N6_4 1_555 1_555
C24_2 N16_2 1_555 1_555
C24_2 N12_2 1_555 1_555
C27_2 N12_2 1_555 1_555
C29_4 N10_4 1_555 1_555
C1_3 H1_3 1_555 1_555
C2_3 C1_3 1_555 1_555
H2_3 C2_3 1_555 1_555
C4_3 H4_3 1_555 1_555
C5_3 C4_3 1_555 1_555
H5_3 C5_3 1_555 1_555
C6_3 H6_3 1_555 1_555
C10_3 C11_3 1_555 1_555
C11_3 H10_3 1_555 1_555
C12_3 C11_3 1_555 1_555
C16_3 H13_3 1_555 1_555
C17_3 C16_3 1_555 1_555
H14_3 C17_3 1_555 1_555
C18_3 H15_3 1_555 1_555
C22_3 H19_3 1_555 1_555
C23_3 C22_3 1_555 1_555
H20_3 C23_3 1_555 1_555
C25_3 C26_3 1_555 1_555
C26_3 H22_3 1_555 1_555
C27_3 C26_3 1_555 1_555
C28_3 C27_3 1_555 1_555
C30_3 C25_3 1_555 1_555
H24_3 C30_3 1_555 1_555
N2_3 C2_3 1_555 1_555
N3_2 C5_3 1_555 1_555
N4_3 C4_3 1_555 1_555
N7_3 C16_3 1_555 1_555
N8_3 C17_3 1_555 1_555
N11 C23_3 1_555 1_555
N12_3 C22_3 1_555 1_555
Zn2_3 N7_3 1_555 1_555
Zn10_2 N3_2 1_555 1_555
C6_3 N3_2 1_555 1_555
C6_3 N4_3 1_555 1_555
C10_3 N2_3 1_555 1_555
C12_3 N4_3 1_555 1_555
C18_3 N7_3 1_555 1_555
C18_3 N8_3 1_555 1_555
C24_3 N11 1_555 1_555
C24_3 N12_3 1_555 1_555
C25_3 N8_3 1_555 1_555
C27_3 N12_3 1_555 1_555
O13_3 P5_3 1_555 1_555
O15_3 P5_3 1_555 1_555
P5_3 H26_3 1_555 1_555
Zn10_2 O12_3 1_555 1_555
O13_3 Zn10_2 1_555 1_555
O16_3 Zn10_2 1_555 1_555
O13_4 P5_4 1_555 1_555
O15_4 P5_4 1_555 1_555
P5_4 H26_4 1_555 1_555
Zn5_2 O12_4 1_555 1_555
N13_2 Zn5_2 1_555 1_555
O13_4 Zn5_2 1_555 1_555
O16_4 Zn5_2 1_555 1_555
C1_4 H1_4 1_555 1_555
C2_4 C1_4 1_555 1_555
H2_4 C2_4 1_555 1_555
C4_4 H4_4 1_555 1_555
C5_4 C4_4 1_555 1_555
H5_4 C5_4 1_555 1_555
C6_4 H6_4 1_555 1_555
C10_4 C11_4 1_555 1_555
C11_4 H10_4 1_555 1_555
C12_4 C11_4 1_555 1_555
C16_4 H13_4 1_555 1_555
C17_4 C16_4 1_555 1_555
H14_4 C17_4 1_555 1_555
C18_4 H15_4 1_555 1_555
C22_4 H19_4 1_555 1_555
C23_4 C22_4 1_555 1_555
H20_4 C23_4 1_555 1_555
C25_4 C26_4 1_555 1_555
C26_4 H22_4 1_555 1_555
C27_4 C26_4 1_555 1_555
C28_4 C27_4 1_555 1_555
C30_4 C25_4 1_555 1_555
H24_4 C30_4 1_555 1_555
N2_4 C2_4 1_555 1_555
N13_2 C5_4 1_555 1_555
N4_4 C4_4 1_555 1_555
N7_4 C16_4 1_555 1_555
N8_4 C17_4 1_555 1_555
N11_2 C23_4 1_555 1_555
N12_4 C22_4 1_555 1_555
Zn2_4 N7_4 1_555 1_555
C6_4 N13_2 1_555 1_555
C6_4 N4_4 1_555 1_555
C10_4 N2_4 1_555 1_555
C12_4 N4_4 1_555 1_555
C18_4 N7_4 1_555 1_555
C18_4 N8_4 1_555 1_555
C24_4 N11_2 1_555 1_555
C24_4 N12_4 1_555 1_555
C25_4 N8_4 1_555 1_555
C27_4 N12_4 1_555 1_555

#END
