
###############################################################################
#
# This file contains modified crystal structure data generated from the
# MOF subset of the Cambridge Structural Database (CSD) v543 
# hosted by the Cambridge Crystallographic Data Centre (CCDC).
#
# This work is licensed under the Creative Commons
# Attribution-NonCommercial-ShareAlike 4.0 International License.
# To view a copy of this license, visit
# http://creativecommons.org/licenses/by-nc-sa/4.0/
# or send a letter to
# Creative Commons, PO Box 1866, Mountain View, CA 94042, USA.
#
# CIF created using the CSD Python API on 29 September 2022
# The structure has been converted into the P1 space group
# The structure has a 3D framework
# The original CSD entry NIPKAB is in the monoclinic crystal system
# The framework has been calculated to contain at least 10.0% void space
# The void calculation uses a probe of radius 1.32A, grid spacing 0.4
#
###############################################################################

data_NIPKAB
_chemical_formula_moiety         '(C120 H120 N48 O70 P24 Zn22)n'
_symmetry_cell_setting           triclinic
_symmetry_space_group_name_H-M   'P 1'
_symmetry_Int_Tables_number      1
_space_group_name_Hall           'P 1'
loop_
_symmetry_equiv_pos_site_id
_symmetry_equiv_pos_as_xyz
1 x,y,z
_cell_length_a                   10.1955(8)
_cell_length_b                   26.678(2)
_cell_length_c                   20.1328(15)
_cell_angle_alpha                90
_cell_angle_beta                 92.010(7)
_cell_angle_gamma                90
_cell_volume                     5472.66
loop_
_atom_site_label
_atom_site_type_symbol
_atom_site_fract_x
_atom_site_fract_y
_atom_site_fract_z
P5 P 0.04860(17) 0.62592(7) 0.16500(8)
O14 O 0.1357(5) 0.6400(2) 0.1096(2)
O16 O 0.0175(7) 0.5718(2) 0.1671(3)
H26 H 0.119874 0.635992 0.221264
Zn10 Zn 0.13127(7) 0.63550(3) 0.01557(4)
O27 O 0.1154(4) 0.47989(18) 0.0802(2)
Zn1 Zn 0.45903(7) 0.03641(3) 0.10145(4)
N1 N 0.3744(5) 0.0026(2) 0.1791(3)
C1 C 0.2826(7) 0.0200(3) 0.2145(3)
H1 H 0.241986 0.050865 0.207440
Zn3 Zn 0.16395(8) 0.17450(3) 0.02941(4)
C5 C 0.1217(6) 0.0450(3) 0.3252(3)
N4 N 0.0358(5) 0.1196(2) 0.0449(3)
H5 H 0.159459 0.071463 0.302628
C7 C 0.0279(6) 0.0539(3) 0.3715(3)
C11 C 0.0629(6) 0.0746(3) 0.0662(3)
H11 H 0.147067 0.061033 0.067893
C17 C 0.0529(7) 0.1473(3) 0.3694(4)
H17 H 0.140861 0.149768 0.359058
O19 O 0.3382(4) 0.03218(19) 0.0261(2)
O20 O 0.4998(5) 0.10494(17) 0.1258(2)
O21 O 0.3055(5) 0.1559(2) 0.0916(3)
O23 O 0.0644(5) 0.23117(19) 0.0553(3)
O6 O 0.5274(5) 0.1766(2) 0.0453(2)
P2 P 0.45189(18) 0.15572(7) 0.10299(8)
H7 H 0.478817 0.187372 0.153815
P4 P 0.0502(2) 0.28476(8) 0.03579(11)
H25 H 0.092912 0.311561 0.089287
P6 P 0.11171(17) 0.44116(7) 0.02582(8)
H30 H 0.199267 0.405336 0.043912
O13 O 0.0940(5) 0.6989(2) 0.9717(3)
O15 O 0.0204(4) 0.5831(2) 0.9788(2)
Zn12 Zn 0.03154(7) 0.48365(3) 0.88939(4)
O22 O 0.2053(5) 0.1668(2) 0.9383(2)
C12 C 0.9017(6) 0.1241(3) 0.0508(3)
C13 C 0.9744(6) 0.0155(3) 0.4077(3)
N5 N 0.9852(5) 0.1038(2) 0.3807(3)
N8 N 0.9573(5) 0.0500(2) 0.0854(2)
C15 C 0.8525(7) 0.0823(3) 0.0754(3)
H12 H 0.852783 0.152344 0.039116
H13 H 0.914733 0.022082 0.440464
C16 C 0.8621(7) 0.1183(3) 0.3914(4)
C21 C 0.9592(6) 0.0036(3) 0.1202(3)
H15 H 0.765104 0.076060 0.084297
H16 H 0.793978 0.096307 0.399928
N9 N 0.8486(6) 0.1663(2) 0.3886(3)
C22 C 0.9688(7) 0.1855(3) 0.3759(4)
H20 H 0.989187 0.219330 0.372398
H24 H 0.822150 0.025380 0.184964
H27 H 0.732197 0.021213 0.276857
Zn9 Zn 0.67503(8) 0.20057(3) 0.38898(4)
Zn11 Zn 0.53154(7) 0.01635(3) 0.38939(4)
O1 O 0.8820(4) 0.49982(16) 0.4114(2)
O2 O 0.8382(4) 0.46782(19) 0.5261(2)
O3 O 0.9998(5) 0.39506(17) 0.6258(2)
P1 P 0.86212(16) 0.45414(7) 0.45393(8)
O4 O 0.9719(4) 0.41638(19) 0.4464(2)
H3 H 0.751464 0.431289 0.431069
O5 O 0.8055(5) 0.3441(2) 0.5916(3)
O7 O 0.9165(5) 0.3022(2) 0.3971(3)
O8 O 0.7053(5) 0.3332(2) 0.4383(2)
O9 O 0.5644(5) 0.26883(19) 0.5553(3)
P2_2 P 0.95189(18) 0.34428(7) 0.60299(8)
P3 P 0.77248(17) 0.31144(7) 0.38123(9)
H7_2 H 0.978817 0.312628 0.653815
O10 O 0.7044(5) 0.26651(17) 0.3508(2)
H8 H 0.772028 0.346463 0.332784
O11 O 0.6298(6) 0.1979(2) 0.4801(2)
O12 O 0.5708(5) 0.1585(2) 0.3309(3)
P4_2 P 0.5502(2) 0.21524(8) 0.53579(11)
P5_2 P 0.45140(17) 0.12592(7) 0.33500(8)
O13_2 O 0.4060(5) 0.1989(2) 0.5283(3)
O14_2 O 0.3643(5) 0.1400(2) 0.3904(2)
O15_2 O 0.4796(4) 0.0831(2) 0.5212(2)
H25_2 H 0.592912 0.188439 0.589287
O16_2 O 0.4825(7) 0.0718(2) 0.3329(3)
H26_2 H 0.380126 0.135992 0.278736
O17 O 0.6541(4) 0.03869(18) 0.4599(2)
O18 O 0.6154(4) 0.02011(18) 0.5802(2)
P6_2 P 0.61171(17) 0.05884(7) 0.52582(8)
H30_2 H 0.699267 0.094664 0.543912
Zn7 Zn 0.95903(7) 0.46359(3) 0.60145(4)
Zn8 Zn 0.66395(8) 0.32550(3) 0.52941(4)
Zn10_2 Zn 0.36873(7) 0.13550(3) 0.48443(4)
N6 N 0.0464(5) 0.0740(2) 0.5719(3)
C18 C 0.1595(6) 0.0725(3) 0.5398(3)
C19 C 0.0037(7) 0.1232(3) 0.5706(4)
H18 H 0.208350 0.043557 0.533336
N10 N 0.1920(5) 0.1173(2) 0.5188(3)
C23 C 0.0933(7) 0.1489(3) 0.5374(4)
C24 C 0.0399(6) 0.0843(3) 0.8084(3)
C26 C 0.1235(6) 0.0009(3) 0.8269(3)
H21 H 0.089302 0.183092 0.528335
C27 C 0.1227(6) 0.0456(3) 0.7925(3)
H22 H 0.038421 0.113849 0.783931
N11 N 0.2130(5) 0.0511(2) 0.7400(2)
C28 C 0.2780(7) 0.0124(3) 0.7121(3)
C29 C 0.2559(7) 0.0951(3) 0.7105(3)
N12 N 0.3577(5) 0.0294(2) 0.6669(3)
H28 H 0.229791 0.127686 0.719703
C30 C 0.3423(7) 0.0806(3) 0.6663(3)
H29 H 0.386446 0.102242 0.638682
O1_2 O 0.3820(4) 0.00018(16) 0.9114(2)
C2 C 0.5909(7) 0.0428(3) 0.7936(3)
P1_2 P 0.36212(16) 0.04586(7) 0.95393(8)
N2 N 0.7475(5) 0.0124(2) 0.7362(2)
H2 H 0.525388 0.063653 0.808806
C3 C 0.6660(7) 0.0525(3) 0.7415(3)
O4_2 O 0.4719(4) 0.08362(19) 0.9464(2)
H3_2 H 0.251464 0.068711 0.931069
C4 C 0.8416(6) 0.0035(3) 0.6871(3)
H4 H 0.662868 0.080883 0.714637
Zn2 Zn 0.51688(7) 0.15355(3) 0.95452(4)
C6 C 0.8949(6) 0.0439(3) 0.6541(3)
O7_2 O 0.4165(5) 0.1978(2) 0.8971(3)
N3 N 0.6956(5) 0.1529(2) 0.9181(3)
C8 C 0.9876(6) 0.0334(3) 0.6065(3)
H6 H 0.869977 0.076669 0.663269
P3_2 P 0.27248(17) 0.18856(7) 0.88123(9)
C9 C 0.7548(6) 0.1099(3) 0.9050(3)
C10 C 0.7832(7) 0.1890(3) 0.9000(4)
O10_2 O 0.2044(5) 0.23349(17) 0.8508(2)
H8_2 H 0.272028 0.153537 0.832784
H9 H 0.718366 0.078502 0.912353
N7 N 0.8726(5) 0.1169(2) 0.8799(3)
C14 C 0.8915(7) 0.1678(3) 0.8763(4)
H10 H 0.769560 0.223370 0.903683
Zn4 Zn 0.17503(8) 0.29943(3) 0.88898(4)
C20 C 0.9595(6) 0.0782(2) 0.8612(3)
H14 H 0.964620 0.184269 0.860547
H19 H 0.928157 0.135880 0.589087
O11_2 O 0.1298(6) 0.3021(2) 0.9801(2)
O12_2 O 0.0708(5) 0.3415(2) 0.8309(3)
C25 C 0.9609(6) 0.0343(3) 0.8984(3)
H23 H 0.908547 0.030927 0.934994
O17_2 O 0.1541(4) 0.46131(18) 0.9599(2)
N13 N 0.3486(6) 0.3337(2) 0.8886(3)
N14 N 0.1423(5) 0.5294(2) 0.8331(3)
N1_2 N 0.8744(5) 0.4974(2) 0.6791(3)
C1_2 C 0.7826(7) 0.4800(3) 0.7145(3)
C2_2 C 0.9091(7) 0.5428(3) 0.7064(3)
H1_2 H 0.741986 0.449135 0.707440
N2_2 N 0.7525(5) 0.5124(2) 0.7638(2)
H2_2 H 0.974612 0.563653 0.691194
C3_2 C 0.8340(7) 0.5525(3) 0.7585(3)
C4_2 C 0.6584(6) 0.5035(3) 0.8129(3)
H4_2 H 0.837132 0.580883 0.785363
Zn2_2 Zn 0.98312(7) 0.65355(3) 0.54548(4)
C5_2 C 0.6217(6) 0.4550(3) 0.8252(3)
C6_2 C 0.6051(6) 0.5439(3) 0.8459(3)
O6_2 O 0.9726(5) 0.6766(2) 0.4547(2)
N3_2 N 0.8044(5) 0.6529(2) 0.5819(3)
N4_2 N 0.5358(5) 0.3804(2) 0.5449(3)
H5_2 H 0.659459 0.428537 0.802628
C7_2 C 0.5279(6) 0.4461(3) 0.8715(3)
C8_2 C 0.5124(6) 0.5334(3) 0.8935(3)
H6_2 H 0.630023 0.576669 0.836731
C9_2 C 0.7452(6) 0.6099(3) 0.5950(3)
C10_2 C 0.7168(7) 0.6890(3) 0.6000(4)
C11_2 C 0.5629(6) 0.4254(3) 0.5662(3)
C12_2 C 0.4017(6) 0.3759(3) 0.5508(3)
C13_2 C 0.4744(6) 0.4845(3) 0.9077(3)
N5_2 N 0.4852(5) 0.3962(2) 0.8807(3)
N6_2 N 0.4536(5) 0.5740(2) 0.9281(3)
H9_2 H 0.781634 0.578502 0.587647
N7_2 N 0.6274(5) 0.6169(2) 0.6201(3)
C14_2 C 0.6085(7) 0.6678(3) 0.6237(4)
H10_2 H 0.730440 0.723370 0.596317
N8_2 N 0.4573(5) 0.4500(2) 0.5854(2)
H11_2 H 0.647067 0.438967 0.567893
C15_2 C 0.3525(7) 0.4177(3) 0.5754(3)
H12_2 H 0.352783 0.347656 0.539116
H13_2 H 0.414733 0.477918 0.940464
C16_2 C 0.3621(7) 0.3817(3) 0.8914(4)
C17_2 C 0.5529(7) 0.3527(3) 0.8694(4)
C18_2 C 0.3405(6) 0.5725(3) 0.9602(3)
C19_2 C 0.4963(7) 0.6232(3) 0.9294(4)
C20_2 C 0.5405(6) 0.5782(2) 0.6388(3)
H14_2 H 0.535380 0.684269 0.639453
C21_2 C 0.4592(6) 0.4964(3) 0.6202(3)
H15_2 H 0.265104 0.423940 0.584297
H16_2 H 0.293978 0.403693 0.899928
H17_2 H 0.640861 0.350232 0.859058
C22_2 C 0.4688(7) 0.3145(3) 0.8759(4)
H18_2 H 0.291650 0.543557 0.966664
N10_2 N 0.3080(5) 0.6173(2) 0.9812(3)
H19_2 H 0.571843 0.635880 0.910913
C23_2 C 0.4067(7) 0.6489(3) 0.9626(4)
C24_2 C 0.4601(6) 0.5843(3) 0.6916(3)
C25_2 C 0.5391(6) 0.5343(3) 0.6016(3)
C26_2 C 0.3765(6) 0.5009(3) 0.6731(3)
H20_2 H 0.489187 0.280670 0.872398
H21_2 H 0.410698 0.683092 0.971665
C27_2 C 0.3773(6) 0.5456(3) 0.7075(3)
H22_2 H 0.461579 0.613849 0.716069
H23_2 H 0.591453 0.530927 0.565006
H24_2 H 0.322150 0.474620 0.684964
N11_2 N 0.2870(5) 0.5511(2) 0.7600(2)
C28_2 C 0.2220(7) 0.5124(3) 0.7879(3)
C29_2 C 0.2441(7) 0.5951(3) 0.7895(3)
H27_2 H 0.232197 0.478787 0.776857
H28_2 H 0.270209 0.627686 0.780297
C30_2 C 0.1577(7) 0.5806(3) 0.8337(3)
H29_2 H 0.113554 0.602242 0.861318
O1_3 O 0.6180(4) 0.99982(16) 0.0886(2)
C2_3 C 0.4091(7) 0.9572(3) 0.2064(3)
P1_3 P 0.63788(16) 0.95414(7) 0.04607(8)
N2_3 N 0.2525(5) 0.9876(2) 0.2638(2)
H2_3 H 0.474612 0.936347 0.191194
C3_3 C 0.3340(7) 0.9475(3) 0.2585(3)
O4_3 O 0.5281(4) 0.91638(19) 0.0536(2)
H3_3 H 0.748536 0.931289 0.068931
C4_3 C 0.1584(6) 0.9965(3) 0.3129(3)
H4_3 H 0.337132 0.919117 0.285363
Zn2_3 Zn 0.48312(7) 0.84645(3) 0.04548(4)
C6_3 C 0.1051(6) 0.9561(3) 0.3459(3)
O7_3 O 0.5835(5) 0.8022(2) 0.1029(3)
N3_3 N 0.3044(5) 0.8471(2) 0.0819(3)
O8_2 O 0.7947(5) 0.8332(2) 0.0617(2)
C8_3 C 0.0124(6) 0.9666(3) 0.3935(3)
H6_3 H 0.130023 0.923331 0.336731
P3_3 P 0.72752(17) 0.81144(7) 0.11877(9)
C9_3 C 0.2452(6) 0.8901(3) 0.0950(3)
C10_3 C 0.2168(7) 0.8110(3) 0.1000(4)
O10_3 O 0.7956(5) 0.76651(17) 0.1492(2)
H8_3 H 0.727972 0.846463 0.167216
H9_3 H 0.281634 0.921498 0.087647
N7_3 N 0.1274(5) 0.8831(2) 0.1201(3)
C14_3 C 0.1085(7) 0.8322(3) 0.1237(4)
H10_3 H 0.230440 0.776630 0.096317
Zn4_2 Zn 0.82497(8) 0.70057(3) 0.11102(4)
C20_3 C 0.0405(6) 0.9218(2) 0.1388(3)
H14_3 H 0.035380 0.815731 0.139453
H19_3 H 0.071843 0.864120 0.410913
O11_3 O 0.8702(6) 0.6979(2) 0.0199(2)
O12_3 O 0.9292(5) 0.6585(2) 0.1691(3)
C25_3 C 0.0391(6) 0.9657(3) 0.1016(3)
H23_3 H 0.091453 0.969073 0.065006
Zn6 Zn 0.96846(7) 0.51635(3) 0.11061(4)
O17_3 O 0.8459(4) 0.53869(18) 0.0401(2)
N13_2 N 0.6514(6) 0.6663(2) 0.1114(3)
N14_2 N 0.8577(5) 0.4706(2) 0.1669(3)
N6_3 N 0.9536(5) 0.9260(2) 0.4281(3)
C18_3 C 0.8405(6) 0.9275(3) 0.4602(3)
C19_3 C 0.9963(7) 0.8768(3) 0.4294(4)
H18_3 H 0.791650 0.956443 0.466664
N10_3 N 0.8080(5) 0.8827(2) 0.4812(3)
C23_3 C 0.9067(7) 0.8511(3) 0.4626(4)
C24_3 C 0.9601(6) 0.9157(3) 0.1916(3)
C26_3 C 0.8765(6) 0.9991(3) 0.1731(3)
Zn5 Zn 0.63127(7) 0.86450(3) 0.51557(4)
H21_3 H 0.910698 0.816908 0.471665
C27_3 C 0.8773(6) 0.9544(3) 0.2075(3)
H22_3 H 0.961579 0.886151 0.216069
N11_3 N 0.7870(5) 0.9489(2) 0.2600(2)
C28_3 C 0.7220(7) 0.9876(3) 0.2879(3)
C29_3 C 0.7441(7) 0.9049(3) 0.2895(3)
N12_2 N 0.6423(5) 0.9706(2) 0.3331(3)
H28_3 H 0.770209 0.872314 0.280297
C30_3 C 0.6577(7) 0.9194(3) 0.3337(3)
H29_3 H 0.613554 0.897758 0.361318
O24 O 0.5940(5) 0.8011(2) 0.4717(3)
O25 O 0.6357(5) 0.8600(2) 0.6096(2)
O26 O 0.5204(4) 0.9169(2) 0.4788(2)
Zn1_2 Zn 0.04097(7) 0.53641(3) 0.39855(4)
N1_3 N 0.1256(5) 0.5026(2) 0.3209(3)
C1_3 C 0.2174(7) 0.5200(3) 0.2855(3)
C2_4 C 0.0909(7) 0.4572(3) 0.2936(3)
H1_3 H 0.258014 0.550865 0.292560
N2_4 N 0.2475(5) 0.4876(2) 0.2362(2)
H2_4 H 0.025388 0.436347 0.308806
C3_4 C 0.1660(7) 0.4475(3) 0.2415(3)
C4_4 C 0.3416(6) 0.4965(3) 0.1871(3)
H4_4 H 0.162868 0.419117 0.214637
Zn2_4 Zn 0.01688(7) 0.34645(3) 0.45452(4)
Zn3_2 Zn 0.33605(8) 0.67450(3) 0.47059(4)
C5_3 C 0.3783(6) 0.5450(3) 0.1748(3)
C6_4 C 0.3949(6) 0.4561(3) 0.1541(3)
O6_3 O 0.0274(5) 0.3234(2) 0.5453(2)
N3_4 N 0.1956(5) 0.3471(2) 0.4181(3)
N4_3 N 0.4642(5) 0.6196(2) 0.4551(3)
H5_3 H 0.340541 0.571463 0.197372
C7_3 C 0.4721(6) 0.5539(3) 0.1285(3)
C8_4 C 0.4876(6) 0.4666(3) 0.1065(3)
H6_4 H 0.369977 0.423331 0.163269
C9_4 C 0.2548(6) 0.3901(3) 0.4050(3)
C10_4 C 0.2832(7) 0.3110(3) 0.4000(4)
C11_3 C 0.4371(6) 0.5746(3) 0.4338(3)
C12_3 C 0.5983(6) 0.6241(3) 0.4492(3)
C13_3 C 0.5256(6) 0.5155(3) 0.0923(3)
N5_3 N 0.5148(5) 0.6038(2) 0.1193(3)
N6_4 N 0.5464(5) 0.4260(2) 0.0719(3)
H9_4 H 0.218366 0.421498 0.412353
N7_4 N 0.3726(5) 0.3831(2) 0.3799(3)
C14_4 C 0.3915(7) 0.3322(3) 0.3763(4)
H10_4 H 0.269560 0.276630 0.403683
N8_3 N 0.5427(5) 0.5500(2) 0.4146(2)
H11_3 H 0.352933 0.561033 0.432107
C15_3 C 0.6475(7) 0.5823(3) 0.4246(3)
H12_3 H 0.647217 0.652344 0.460884
H13_3 H 0.585267 0.522082 0.059536
C16_3 C 0.6379(7) 0.6183(3) 0.1086(4)
C17_3 C 0.4471(7) 0.6473(3) 0.1306(4)
C18_4 C 0.6595(6) 0.4275(3) 0.0398(3)
C19_4 C 0.5037(7) 0.3768(3) 0.0706(4)
C20_4 C 0.4595(6) 0.4218(2) 0.3612(3)
H14_4 H 0.464620 0.315731 0.360547
C21_3 C 0.5408(6) 0.5036(3) 0.3798(3)
H15_3 H 0.734896 0.576060 0.415703
H16_3 H 0.706022 0.596307 0.100072
H17_3 H 0.359139 0.649768 0.140942
C22_3 C 0.5312(7) 0.6855(3) 0.1241(4)
H18_4 H 0.708350 0.456443 0.033336
N10_4 N 0.6920(5) 0.3827(2) 0.0188(3)
H19_4 H 0.428157 0.364120 0.089087
C23_4 C 0.5933(7) 0.3511(3) 0.0374(4)
C24_4 C 0.5399(6) 0.4157(3) 0.3084(3)
C25_4 C 0.4609(6) 0.4657(3) 0.3984(3)
C26_4 C 0.6235(6) 0.4991(3) 0.3269(3)
H20_3 H 0.510813 0.719330 0.127602
H21_4 H 0.589302 0.316908 0.028335
C27_4 C 0.6227(6) 0.4544(3) 0.2925(3)
H22_4 H 0.538421 0.386151 0.283931
H23_4 H 0.408547 0.469073 0.434994
H24_3 H 0.677850 0.525380 0.315036
N11_4 N 0.7130(5) 0.4489(2) 0.2400(2)
C28_4 C 0.7780(7) 0.4876(3) 0.2121(3)
C29_4 C 0.7559(7) 0.4049(3) 0.2105(3)
H27_3 H 0.767803 0.521213 0.223143
H28_4 H 0.729791 0.372314 0.219703
C30_4 C 0.8423(7) 0.4194(3) 0.1663(3)
H29_4 H 0.886446 0.397758 0.138682
O19_2 O 0.1618(4) 0.53218(19) 0.4739(2)
O20_2 O 0.0002(5) 0.60494(17) 0.3742(2)
O21_2 O 0.1945(5) 0.6559(2) 0.4084(3)
O22_2 O 0.2947(5) 0.6668(2) 0.5617(2)
O23_2 O 0.4356(5) 0.73117(19) 0.4447(3)
O24_2 O 0.9060(5) 0.3011(2) 0.0283(3)
O26_2 O 0.9796(4) 0.4169(2) 0.0212(2)
Zn12_2 Zn 0.46846(7) 0.98365(3) 0.61061(4)
O27_2 O 0.3846(4) 0.97989(18) 0.4198(2)
C12_4 C 0.0983(6) 0.8759(3) 0.9492(3)
C13_4 C 0.0256(6) 0.9845(3) 0.5923(3)
N5_4 N 0.0148(5) 0.8962(2) 0.6193(3)
N8_4 N 0.0427(5) 0.9500(2) 0.9146(2)
C15_4 C 0.1475(7) 0.9177(3) 0.9246(3)
H12_4 H 0.147217 0.847656 0.960884
H13_4 H 0.085267 0.977918 0.559536
C16_4 C 0.1379(7) 0.8817(3) 0.6086(4)
C21_4 C 0.0408(6) 0.9964(3) 0.8798(3)
H15_4 H 0.234896 0.923940 0.915703
H16_4 H 0.206022 0.903693 0.600072
N9_2 N 0.1514(6) 0.8337(2) 0.6114(3)
C22_4 C 0.0312(7) 0.8145(3) 0.6241(4)
H20_4 H 0.010813 0.780670 0.627602
H24_4 H 0.177850 0.974620 0.815036
H27_4 H 0.267803 0.978787 0.723143
Zn9_2 Zn 0.32497(8) 0.79943(3) 0.61102(4)
O1_4 O 0.1180(4) 0.50018(16) 0.5886(2)
P1_4 P 0.13788(16) 0.54586(7) 0.54607(8)
O4_4 O 0.0281(4) 0.58362(19) 0.5536(2)
H3_4 H 0.248536 0.568711 0.568931
O7_4 O 0.0835(5) 0.6978(2) 0.6029(3)
P2_3 P 0.04811(18) 0.65572(7) 0.39701(8)
P3_4 P 0.22752(17) 0.68856(7) 0.61877(9)
H7_3 H 0.021183 0.687372 0.346185
O10_4 O 0.2956(5) 0.73349(17) 0.6492(2)
H8_4 H 0.227972 0.653537 0.667216
O11_4 O 0.3702(6) 0.8021(2) 0.5199(2)
O12_4 O 0.4292(5) 0.8415(2) 0.6691(3)
P4_3 P 0.4498(2) 0.78476(8) 0.46421(11)
P5_3 P 0.54860(17) 0.87408(7) 0.66500(8)
H25_3 H 0.407088 0.811561 0.410713
O16_3 O 0.5175(7) 0.9282(2) 0.6671(3)
H26_3 H 0.619874 0.864008 0.721264
O17_4 O 0.3459(4) 0.96131(18) 0.5401(2)
P6_3 P 0.38829(17) 0.94116(7) 0.47418(8)
H30_3 H 0.300733 0.905336 0.456088
O2_2 O 0.6618(4) 0.96782(19) 0.9739(2)
O3_2 O 0.5002(5) 0.89506(17) 0.8742(2)
O5_2 O 0.6945(5) 0.8441(2) 0.9084(3)
O6_4 O 0.4726(5) 0.8234(2) 0.9547(2)
O9_2 O 0.9356(5) 0.76883(19) 0.9447(3)
P2_4 P 0.54811(18) 0.84428(7) 0.89701(8)
H7_4 H 0.521183 0.812628 0.846185
P4_4 P 0.9498(2) 0.71524(8) 0.96421(11)
H25_4 H 0.907088 0.688439 0.910713
O18_2 O 0.8846(4) 0.52011(18) 0.9198(2)
P6_4 P 0.88829(17) 0.55884(7) 0.97418(8)
H30_4 H 0.800733 0.594664 0.956088
Zn7_2 Zn 0.54097(7) 0.96359(3) 0.89855(4)
Zn8_2 Zn 0.83605(8) 0.82550(3) 0.97059(4)
Zn5_2 Zn 0.86873(7) 0.36450(3) 0.98443(4)
O25_2 O 0.8643(5) 0.3600(2) 0.8904(2)
N1_4 N 0.6256(5) 0.9974(2) 0.8209(3)
C1_4 C 0.7174(7) 0.9800(3) 0.7855(3)
H1_4 H 0.758014 0.949135 0.792560
C5_4 C 0.8783(6) 0.9550(3) 0.6748(3)
N4_4 N 0.9642(5) 0.8804(2) 0.9551(3)
H5_4 H 0.840541 0.928537 0.697372
C7_4 C 0.9721(6) 0.9461(3) 0.6285(3)
C11_4 C 0.9371(6) 0.9254(3) 0.9338(3)
H11_4 H 0.852933 0.938967 0.932107
C17_4 C 0.9471(7) 0.8527(3) 0.6306(4)
H17_4 H 0.859139 0.850232 0.640942
P5_4 P 0.95140(17) 0.37408(7) 0.83500(8)
O16_4 O 0.9825(7) 0.4282(2) 0.8329(3)
H26_4 H 0.880126 0.364008 0.778736
loop_
_geom_bond_atom_site_label_1
_geom_bond_atom_site_label_2
_geom_bond_site_symmetry_1
_geom_bond_site_symmetry_2
O14 P5 1_555 1_555
O16 P5 1_555 1_555
H26 P5 1_555 1_555
O14 Zn10 1_555 1_555
Zn1 N1 1_555 1_555
N1 C1 1_555 1_555
C1 H1 1_555 1_555
Zn3 N4 1_555 1_555
N4 C11 1_555 1_555
H5 C5 1_555 1_555
C7 C5 1_555 1_555
H11 C11 1_555 1_555
H17 C17 1_555 1_555
O19 Zn1 1_555 1_555
O20 Zn1 1_555 1_555
O21 Zn3 1_555 1_555
O23 Zn3 1_555 1_555
O20 P2 1_555 1_555
O21 P2 1_555 1_555
O23 P4 1_555 1_555
P2 O6 1_555 1_555
H7 P2 1_555 1_555
H25 P4 1_555 1_555
O27 P6 1_555 1_555
H30 P6 1_555 1_555
N8 C15 1_555 1_555
C15 C12 1_555 1_555
H12 C12 1_555 1_555
H13 C13 1_555 1_555
C16 N5 1_555 1_555
C21 N8 1_555 1_555
H15 C15 1_555 1_555
H16 C16 1_555 1_555
N9 C16 1_555 1_555
H20 C22 1_555 1_555
Zn9 N9 1_555 1_555
N9 C22 1_555 1_555
O2 P1 1_555 1_555
O3 P2_2 1_555 1_555
P1 O1 1_555 1_555
O4 P1 1_555 1_555
H3 P1 1_555 1_555
O5 P2_2 1_555 1_555
O8 P3 1_555 1_555
O9 P4_2 1_555 1_555
P3 O7 1_555 1_555
H7_2 P2_2 1_555 1_555
O10 P3 1_555 1_555
H8 P3 1_555 1_555
Zn9 O10 1_555 1_555
O11 Zn9 1_555 1_555
O12 Zn9 1_555 1_555
P4_2 O11 1_555 1_555
P5_2 O12 1_555 1_555
O13_2 P4_2 1_555 1_555
O14_2 P5_2 1_555 1_555
O15_2 P6_2 1_555 1_555
H25_2 P4_2 1_555 1_555
O16_2 P5_2 1_555 1_555
H26_2 P5_2 1_555 1_555
Zn11 O16_2 1_555 1_555
O17 Zn11 1_555 1_555
O18 P6_2 1_555 1_555
P6_2 O17 1_555 1_555
H30_2 P6_2 1_555 1_555
Zn7 O2 1_555 1_555
Zn8 O5 1_555 1_555
Zn10_2 O13_2 1_555 1_555
O3 Zn7 1_555 1_555
O8 Zn8 1_555 1_555
O9 Zn8 1_555 1_555
O14_2 Zn10_2 1_555 1_555
O15_2 Zn10_2 1_555 1_555
C18 N6 1_555 1_555
C19 N6 1_555 1_555
H18 C18 1_555 1_555
N10 C18 1_555 1_555
C23 C19 1_555 1_555
Zn10_2 N10 1_555 1_555
H21 C23 1_555 1_555
C27 C24 1_555 1_555
H22 C24 1_555 1_555
N11 C27 1_555 1_555
C28 N11 1_555 1_555
C29 N11 1_555 1_555
N12 C28 1_555 1_555
H28 C29 1_555 1_555
C30 C29 1_555 1_555
H29 C30 1_555 1_555
N10 C23 1_555 1_555
C26 C27 1_555 1_555
N12 C30 1_555 1_555
P1_2 O1_2 1_555 1_555
H2 C2 1_555 1_555
C3 C2 1_555 1_555
O4_2 P1_2 1_555 1_555
H3_2 P1_2 1_555 1_555
C4 N2 1_555 1_555
H4 C3 1_555 1_555
Zn2 O4_2 1_555 1_555
C6 C4 1_555 1_555
O7_2 Zn2 1_555 1_555
N3 Zn2 1_555 1_555
O22 P3_2 1_555 1_555
C8 C6 1_555 1_555
H6 C6 1_555 1_555
P3_2 O7_2 1_555 1_555
C9 N3 1_555 1_555
C10 N3 1_555 1_555
O10_2 P3_2 1_555 1_555
H8_2 P3_2 1_555 1_555
H9 C9 1_555 1_555
N7 C9 1_555 1_555
C14 C10 1_555 1_555
H10 C10 1_555 1_555
Zn4 O10_2 1_555 1_555
C20 N7 1_555 1_555
H14 C14 1_555 1_555
O11_2 Zn4 1_555 1_555
O12_2 Zn4 1_555 1_555
C25 C20 1_555 1_555
H23 C25 1_555 1_555
O17_2 Zn12 1_555 1_555
N13 Zn4 1_555 1_555
N14 Zn12 1_555 1_555
N2 C3 1_555 1_555
N7 C14 1_555 1_555
Zn7 N1_2 1_555 1_555
N1_2 C1_2 1_555 1_555
C1_2 H1_2 1_555 1_555
C2_2 N1_2 1_555 1_555
N2_2 C1_2 1_555 1_555
H2_2 C2_2 1_555 1_555
C3_2 C2_2 1_555 1_555
C4_2 N2_2 1_555 1_555
H4_2 C3_2 1_555 1_555
Zn8 N4_2 1_555 1_555
C5_2 C4_2 1_555 1_555
C6_2 C4_2 1_555 1_555
O6_2 Zn2_2 1_555 1_555
N3_2 Zn2_2 1_555 1_555
N4_2 C11_2 1_555 1_555
H5_2 C5_2 1_555 1_555
C7_2 C5_2 1_555 1_555
C8_2 C6_2 1_555 1_555
H6_2 C6_2 1_555 1_555
C9_2 N3_2 1_555 1_555
C10_2 N3_2 1_555 1_555
C11_2 N8_2 1_555 1_555
C12_2 N4_2 1_555 1_555
C13_2 C7_2 1_555 1_555
N5_2 C7_2 1_555 1_555
N6_2 C8_2 1_555 1_555
H9_2 C9_2 1_555 1_555
N7_2 C9_2 1_555 1_555
C14_2 C10_2 1_555 1_555
H10_2 C10_2 1_555 1_555
N8_2 C15_2 1_555 1_555
H11_2 C11_2 1_555 1_555
C15_2 C12_2 1_555 1_555
H12_2 C12_2 1_555 1_555
H13_2 C13_2 1_555 1_555
C16_2 N5_2 1_555 1_555
C17_2 N5_2 1_555 1_555
C18_2 N6_2 1_555 1_555
C19_2 N6_2 1_555 1_555
C20_2 N7_2 1_555 1_555
H14_2 C14_2 1_555 1_555
C21_2 N8_2 1_555 1_555
H15_2 C15_2 1_555 1_555
H16_2 C16_2 1_555 1_555
N13 C16_2 1_555 1_555
H17_2 C17_2 1_555 1_555
C22_2 C17_2 1_555 1_555
H18_2 C18_2 1_555 1_555
N10_2 C18_2 1_555 1_555
H19_2 C19_2 1_555 1_555
C23_2 C19_2 1_555 1_555
C24_2 C20_2 1_555 1_555
C25_2 C20_2 1_555 1_555
C26_2 C21_2 1_555 1_555
H20_2 C22_2 1_555 1_555
H21_2 C23_2 1_555 1_555
C27_2 C24_2 1_555 1_555
H22_2 C24_2 1_555 1_555
H23_2 C25_2 1_555 1_555
H24_2 C26_2 1_555 1_555
N11_2 C27_2 1_555 1_555
C28_2 N11_2 1_555 1_555
C29_2 N11_2 1_555 1_555
N14 C28_2 1_555 1_555
H27_2 C28_2 1_555 1_555
H28_2 C29_2 1_555 1_555
C30_2 C29_2 1_555 1_555
H29_2 C30_2 1_555 1_555
N2_2 C3_2 1_555 1_555
C8_2 C13_2 1_555 1_555
N7_2 C14_2 1_555 1_555
C21_2 C25_2 1_555 1_555
N13 C22_2 1_555 1_555
N10_2 C23_2 1_555 1_555
C26_2 C27_2 1_555 1_555
N14 C30_2 1_555 1_555
P1_3 O1_3 1_555 1_555
H2_3 C2_3 1_555 1_555
C3_3 C2_3 1_555 1_555
O4_3 P1_3 1_555 1_555
H3_3 P1_3 1_555 1_555
C4_3 N2_3 1_555 1_555
H4_3 C3_3 1_555 1_555
Zn2_3 O4_3 1_555 1_555
C6_3 C4_3 1_555 1_555
O7_3 Zn2_3 1_555 1_555
N3_3 Zn2_3 1_555 1_555
O8_2 P3_3 1_555 1_555
C8_3 C6_3 1_555 1_555
H6_3 C6_3 1_555 1_555
P3_3 O7_3 1_555 1_555
C9_3 N3_3 1_555 1_555
C10_3 N3_3 1_555 1_555
O10_3 P3_3 1_555 1_555
H8_3 P3_3 1_555 1_555
H9_3 C9_3 1_555 1_555
N7_3 C9_3 1_555 1_555
C14_3 C10_3 1_555 1_555
H10_3 C10_3 1_555 1_555
Zn4_2 O10_3 1_555 1_555
C20_3 N7_3 1_555 1_555
H14_3 C14_3 1_555 1_555
O11_3 Zn4_2 1_555 1_555
O12_3 Zn4_2 1_555 1_555
C25_3 C20_3 1_555 1_555
H23_3 C25_3 1_555 1_555
O17_3 Zn6 1_555 1_555
N13_2 Zn4_2 1_555 1_555
N14_2 Zn6 1_555 1_555
N2_3 C3_3 1_555 1_555
N7_3 C14_3 1_555 1_555
C18_3 N6_3 1_555 1_555
C19_3 N6_3 1_555 1_555
H18_3 C18_3 1_555 1_555
N10_3 C18_3 1_555 1_555
C23_3 C19_3 1_555 1_555
Zn5 N10_3 1_555 1_555
H21_3 C23_3 1_555 1_555
C27_3 C24_3 1_555 1_555
H22_3 C24_3 1_555 1_555
N11_3 C27_3 1_555 1_555
C28_3 N11_3 1_555 1_555
C29_3 N11_3 1_555 1_555
N12_2 C28_3 1_555 1_555
H28_3 C29_3 1_555 1_555
C30_3 C29_3 1_555 1_555
H29_3 C30_3 1_555 1_555
O24 Zn5 1_555 1_555
O25 Zn5 1_555 1_555
O26 Zn5 1_555 1_555
N10_3 C23_3 1_555 1_555
C26_3 C27_3 1_555 1_555
N12_2 C30_3 1_555 1_555
Zn1_2 N1_3 1_555 1_555
N1_3 C1_3 1_555 1_555
C1_3 H1_3 1_555 1_555
C2_4 N1_3 1_555 1_555
N2_4 C1_3 1_555 1_555
H2_4 C2_4 1_555 1_555
C3_4 C2_4 1_555 1_555
C4_4 N2_4 1_555 1_555
H4_4 C3_4 1_555 1_555
Zn3_2 N4_3 1_555 1_555
C5_3 C4_4 1_555 1_555
C6_4 C4_4 1_555 1_555
O6_3 Zn2_4 1_555 1_555
N3_4 Zn2_4 1_555 1_555
N4_3 C11_3 1_555 1_555
H5_3 C5_3 1_555 1_555
C7_3 C5_3 1_555 1_555
C8_4 C6_4 1_555 1_555
H6_4 C6_4 1_555 1_555
C9_4 N3_4 1_555 1_555
C10_4 N3_4 1_555 1_555
C11_3 N8_3 1_555 1_555
C12_3 N4_3 1_555 1_555
C13_3 C7_3 1_555 1_555
N5_3 C7_3 1_555 1_555
N6_4 C8_4 1_555 1_555
H9_4 C9_4 1_555 1_555
N7_4 C9_4 1_555 1_555
C14_4 C10_4 1_555 1_555
H10_4 C10_4 1_555 1_555
N8_3 C15_3 1_555 1_555
H11_3 C11_3 1_555 1_555
C15_3 C12_3 1_555 1_555
H12_3 C12_3 1_555 1_555
H13_3 C13_3 1_555 1_555
C16_3 N5_3 1_555 1_555
C17_3 N5_3 1_555 1_555
C18_4 N6_4 1_555 1_555
C19_4 N6_4 1_555 1_555
C20_4 N7_4 1_555 1_555
H14_4 C14_4 1_555 1_555
C21_3 N8_3 1_555 1_555
H15_3 C15_3 1_555 1_555
H16_3 C16_3 1_555 1_555
N13_2 C16_3 1_555 1_555
H17_3 C17_3 1_555 1_555
C22_3 C17_3 1_555 1_555
H18_4 C18_4 1_555 1_555
N10_4 C18_4 1_555 1_555
H19_4 C19_4 1_555 1_555
C23_4 C19_4 1_555 1_555
C24_4 C20_4 1_555 1_555
C25_4 C20_4 1_555 1_555
C26_4 C21_3 1_555 1_555
H20_3 C22_3 1_555 1_555
H21_4 C23_4 1_555 1_555
C27_4 C24_4 1_555 1_555
H22_4 C24_4 1_555 1_555
H23_4 C25_4 1_555 1_555
H24_3 C26_4 1_555 1_555
N11_4 C27_4 1_555 1_555
C28_4 N11_4 1_555 1_555
C29_4 N11_4 1_555 1_555
N14_2 C28_4 1_555 1_555
H27_3 C28_4 1_555 1_555
H28_4 C29_4 1_555 1_555
C30_4 C29_4 1_555 1_555
H29_4 C30_4 1_555 1_555
O19_2 Zn1_2 1_555 1_555
O20_2 Zn1_2 1_555 1_555
O21_2 Zn3_2 1_555 1_555
O22_2 Zn3_2 1_555 1_555
O23_2 Zn3_2 1_555 1_555
N2_4 C3_4 1_555 1_555
C8_4 C13_3 1_555 1_555
N7_4 C14_4 1_555 1_555
C21_3 C25_4 1_555 1_555
N13_2 C22_3 1_555 1_555
N10_4 C23_4 1_555 1_555
C26_4 C27_4 1_555 1_555
N14_2 C30_4 1_555 1_555
N8_4 C15_4 1_555 1_555
C15_4 C12_4 1_555 1_555
H12_4 C12_4 1_555 1_555
H13_4 C13_4 1_555 1_555
C16_4 N5_4 1_555 1_555
C21_4 N8_4 1_555 1_555
H15_4 C15_4 1_555 1_555
H16_4 C16_4 1_555 1_555
N9_2 C16_4 1_555 1_555
H20_4 C22_4 1_555 1_555
Zn9_2 N9_2 1_555 1_555
N9_2 C22_4 1_555 1_555
O19_2 P1_4 1_555 1_555
O20_2 P2_3 1_555 1_555
P1_4 O1_4 1_555 1_555
O4_4 P1_4 1_555 1_555
H3_4 P1_4 1_555 1_555
O21_2 P2_3 1_555 1_555
O22_2 P3_4 1_555 1_555
O23_2 P4_3 1_555 1_555
P3_4 O7_4 1_555 1_555
H7_3 P2_3 1_555 1_555
O10_4 P3_4 1_555 1_555
H8_4 P3_4 1_555 1_555
Zn9_2 O10_4 1_555 1_555
O11_4 Zn9_2 1_555 1_555
O12_4 Zn9_2 1_555 1_555
P4_3 O11_4 1_555 1_555
P5_3 O12_4 1_555 1_555
O24 P4_3 1_555 1_555
O25 P5_3 1_555 1_555
O26 P6_3 1_555 1_555
H25_3 P4_3 1_555 1_555
O16_3 P5_3 1_555 1_555
H26_3 P5_3 1_555 1_555
Zn12_2 O16_3 1_555 1_555
O17_4 Zn12_2 1_555 1_555
O27_2 P6_3 1_555 1_555
P6_3 O17_4 1_555 1_555
H30_3 P6_3 1_555 1_555
O3_2 P2_4 1_555 1_555
O5_2 P2_4 1_555 1_555
O9_2 P4_4 1_555 1_555
P2_4 O6_4 1_555 1_555
H7_4 P2_4 1_555 1_555
H25_4 P4_4 1_555 1_555
O18_2 P6_4 1_555 1_555
H30_4 P6_4 1_555 1_555
Zn7_2 O2_2 1_555 1_555
Zn8_2 O5_2 1_555 1_555
O3_2 Zn7_2 1_555 1_555
O9_2 Zn8_2 1_555 1_555
O25_2 Zn5_2 1_555 1_555
Zn7_2 N1_4 1_555 1_555
N1_4 C1_4 1_555 1_555
C1_4 H1_4 1_555 1_555
Zn8_2 N4_4 1_555 1_555
N4_4 C11_4 1_555 1_555
H5_4 C5_4 1_555 1_555
C7_4 C5_4 1_555 1_555
H11_4 C11_4 1_555 1_555
H17_4 C17_4 1_555 1_555
O25_2 P5_4 1_555 1_555
O16_4 P5_4 1_555 1_555
H26_4 P5_4 1_555 1_555

#END
