
###############################################################################
#
# This file contains modified crystal structure data generated from the
# MOF subset of the Cambridge Structural Database (CSD) v543 
# hosted by the Cambridge Crystallographic Data Centre (CCDC).
#
# This work is licensed under the Creative Commons
# Attribution-NonCommercial-ShareAlike 4.0 International License.
# To view a copy of this license, visit
# http://creativecommons.org/licenses/by-nc-sa/4.0/
# or send a letter to
# Creative Commons, PO Box 1866, Mountain View, CA 94042, USA.
#
# CIF created using the CSD Python API on 29 September 2022
# The structure has been converted into the P1 space group
# The structure has a 3D framework
# The original CSD entry NIQXUH is in the rhombohedral crystal system
# The framework has been calculated to contain at least 10.0% void space
# The void calculation uses a probe of radius 1.32A, grid spacing 0.4
# H atom positions have been added when not included in the experimental data
#
###############################################################################

data_NIQXUH
_chemical_formula_moiety         '(C216 H180 Cu9 N36 O54)n'
_symmetry_cell_setting           triclinic
_symmetry_space_group_name_H-M   'P 1'
_symmetry_Int_Tables_number      1
_space_group_name_Hall           'P 1'
loop_
_symmetry_equiv_pos_site_id
_symmetry_equiv_pos_as_xyz
1 x,y,z
_cell_length_a                   18.5943(16)
_cell_length_b                   18.5943(16)
_cell_length_c                   19.761(3)
_cell_angle_alpha                90
_cell_angle_beta                 90
_cell_angle_gamma                120.00
_cell_volume                     5916.97
loop_
_atom_site_label
_atom_site_type_symbol
_atom_site_fract_x
_atom_site_fract_y
_atom_site_fract_z
Cu4 Cu 0.0000 0.5000 0.0000
Cu4_2 Cu 0.0000 0.5000 1.0000
Cu3 Cu 0.5000 -0.0000 0.0000
N8 N 0.5157(2) 0.0073(2) 0.10139(19)
C29 C 0.5911(3) 0.0395(4) 0.1279(3)
H15 H 0.6365 0.0611 0.0989
C34 C 0.6048(3) 0.0423(4) 0.1958(3)
H20 H 0.6588 0.0645 0.2119
C40 C 0.5477(3) 0.0222(4) 0.8557(3)
H26 H 0.6010 0.0450 0.8734
C45 C 0.5389(4) 0.0208(4) 0.7864(3)
H31 H 0.5852 0.0421 0.7584
C49 C 0.5398(3) 0.0126(3) 0.2408(2)
C54 C 0.5595(4) 0.0179(4) 0.3156(2)
C60 C 0.4998(3) 0.0041(3) 0.5707(2)
C65 C 0.5677(3) 0.0597(4) 0.5341(3)
H36 H 0.6139 0.1005 0.5569
C69 C 0.5691(3) 0.0567(4) 0.4637(2)
H40 H 0.6159 0.0950 0.4399
Cu3_2 Cu 0.5000 -0.0000 1.0000
Cu4_3 Cu 1.0000 0.5000 0.0000
Cu5 Cu 0.5000 0.5000 0.0000
H46 H 0.558(4) 0.041(4) 0.657(3)
N11 N 0.5044(3) 0.0096(3) 0.6419(2)
O11 O 0.5915(2) 0.11200(19) 0.99152(16)
O19 O 0.6314(3) 0.0469(4) 0.3332(2)
C1 C 0.5558(3) 0.1560(3) 0.9927(2)
C2 C 0.6134(3) 0.2480(3) 0.9913(3)
C3 C 0.6990(3) 0.2804(3) 0.9912(3)
H1 H 0.7206 0.2448 0.9909
O2 O 0.4795(2) 0.1260(2) 0.99553(18)
C13 C 0.8440(3) 0.3998(4) 0.9927(2)
C14 C 0.6002(4) 0.4442(3) 0.9927(2)
C18 C 0.7520(3) 0.3654(4) 0.9913(3)
C19 C 0.6346(4) 0.3866(3) 0.9913(3)
C23 C 0.7196(3) 0.4186(4) 0.9912(3)
C24 C 0.5814(4) 0.3010(3) 0.9912(3)
H9 H 0.5242 0.2794 0.9909
H10 H 0.7552 0.4758 0.9909
Cu4_4 Cu 1.0000 0.5000 1.0000
Cu5_2 Cu 0.5000 0.5000 1.0000
O4 O 0.88800(19) 0.47950(28) 0.99152(16)
O5 O 0.52050(28) 0.4085(2) 0.99152(16)
O13 O 0.8740(2) 0.3535(3) 0.99553(18)
O14 O 0.6465(3) 0.5205(2) 0.99553(18)
H49 H 0.683669 0.539533 0.955436
Cu3_3 Cu 0.5000 1.0000 0.0000
O12 O 0.4085(2) 0.88800(19) 0.00848(16)
C15 C 0.4442(3) 0.8440(3) 0.0073(2)
C16 C 0.1560(3) 0.6002(4) 0.0073(2)
C17 C 0.3998(4) 0.5558(3) 0.0073(2)
C20 C 0.3866(3) 0.7520(3) 0.0087(3)
C21 C 0.2480(3) 0.6346(4) 0.0087(3)
C22 C 0.3654(4) 0.6134(3) 0.0087(3)
C25 C 0.3010(3) 0.7196(3) 0.0088(3)
C26 C 0.2804(3) 0.5814(4) 0.0088(3)
C27 C 0.4186(4) 0.6990(3) 0.0088(3)
H11 H 0.2794 0.7552 0.0091
H12 H 0.4758 0.7206 0.0091
H13 H 0.2448 0.5242 0.0091
C30 C 0.4089(3) 0.9605(4) 0.8721(3)
H16 H 0.3635 0.9389 0.9011
C35 C 0.3952(3) 0.9577(4) 0.8042(3)
H21 H 0.3412 0.9355 0.7881
C39 C 0.4523(3) 0.9778(4) 0.1443(3)
H25 H 0.3990 0.9550 0.1266
C44 C 0.4611(4) 0.9792(4) 0.2136(3)
H30 H 0.4148 0.9579 0.2416
C50 C 0.4602(3) 0.9874(3) 0.7592(2)
C55 C 0.4405(4) 0.9821(4) 0.6844(2)
C59 C 0.5002(3) 0.9959(3) 0.4293(2)
C64 C 0.4323(3) 0.9403(4) 0.4659(3)
H35 H 0.3861 0.8995 0.4431
C70 C 0.4309(3) 0.9433(4) 0.5363(2)
H41 H 0.3841 0.9050 0.5601
Cu3_4 Cu 0.5000 1.0000 1.0000
H45 H 0.442(4) 0.959(4) 0.343(3)
N5 N 0.4843(2) 0.9927(2) 0.89861(19)
N10 N 0.4956(3) 0.9904(3) 0.3581(2)
O7 O 0.11200(19) 0.52050(28) 0.00848(16)
O8 O 0.47950(28) 0.5915(2) 0.00848(16)
O15 O 0.5205(2) 0.8740(2) 0.00447(18)
O16 O 0.1260(2) 0.6465(3) 0.00447(18)
O17 O 0.3535(3) 0.4795(2) 0.00447(18)
O20 O 0.3686(3) 0.9531(4) 0.6668(2)
H50 H 0.319533 0.464906 0.96259
C30_2 C 0.0395(4) 0.4484(5) 0.8721(3)
H16_2 H 0.0611 0.4246 0.9011
C35_2 C 0.0423(4) 0.4375(5) 0.8042(3)
H21_2 H 0.0645 0.4057 0.7881
C39_2 C 0.0222(4) 0.4745(5) 0.1443(3)
H25_2 H 0.0450 0.4440 0.1266
C44_2 C 0.0208(4) 0.4819(6) 0.2136(3)
H30_2 H 0.0421 0.4569 0.2416
C50_2 C 0.0126(3) 0.4728(4) 0.7592(2)
C55_2 C 0.0179(4) 0.4584(6) 0.6844(2)
C59_2 C 0.0041(3) 0.5043(4) 0.4293(2)
C64_2 C 0.0597(4) 0.4920(5) 0.4659(3)
H35_2 H 0.1005 0.4866 0.4431
C70_2 C 0.0567(4) 0.4876(5) 0.5363(2)
H41_2 H 0.0950 0.4791 0.5601
H45_2 H 0.041(4) 0.483(6) 0.343(3)
N5_2 N 0.0073(2) 0.4916(3) 0.89861(19)
N10_2 N 0.0096(3) 0.5052(4) 0.3581(2)
O20_2 O 0.0469(4) 0.4155(5) 0.6668(2)
H50_2 H 0.535094 0.854628 0.96259
N8_2 N 0.9927(2) 0.5084(3) 0.10139(19)
C29_2 C 0.9605(4) 0.5516(5) 0.1279(3)
H15_2 H 0.9389 0.5754 0.0989
C34_2 C 0.9577(4) 0.5625(5) 0.1958(3)
H20_2 H 0.9355 0.5943 0.2119
C40_2 C 0.9778(4) 0.5255(5) 0.8557(3)
H26_2 H 0.9550 0.5560 0.8734
C45_2 C 0.9792(4) 0.5181(6) 0.7864(3)
H31_2 H 0.9579 0.5431 0.7584
C49_2 C 0.9874(3) 0.5272(4) 0.2408(2)
C54_2 C 0.9821(4) 0.5416(6) 0.3156(2)
C60_2 C 0.9959(3) 0.4957(4) 0.5707(2)
C65_2 C 0.9403(4) 0.5080(5) 0.5341(3)
H36_2 H 0.8995 0.5134 0.5569
C69_2 C 0.9433(4) 0.5124(5) 0.4637(2)
H40_2 H 0.9050 0.5209 0.4399
H46_2 H 0.959(4) 0.517(6) 0.657(3)
N11_2 N 0.9904(3) 0.4948(4) 0.6419(2)
O19_2 O 0.9531(4) 0.5845(5) 0.3332(2)
H49_2 H 0.460467 0.144136 0.955436
N8_3 N 0.4916(3) 0.4843(2) 0.10139(19)
C29_3 C 0.4484(5) 0.4089(3) 0.1279(3)
C30_3 C 0.5516(5) 0.5911(3) 0.8721(3)
H15_3 H 0.4246 0.3635 0.0989
H16_3 H 0.5754 0.6365 0.9011
C34_3 C 0.4375(5) 0.3952(3) 0.1958(3)
C35_3 C 0.5625(5) 0.6048(3) 0.8042(3)
H20_3 H 0.4057 0.3412 0.2119
H21_3 H 0.5943 0.6588 0.7881
C39_3 C 0.5255(5) 0.5477(3) 0.1443(3)
C40_3 C 0.4745(5) 0.4523(3) 0.8557(3)
H25_3 H 0.5560 0.6010 0.1266
H26_3 H 0.4440 0.3990 0.8734
C44_3 C 0.5181(6) 0.5389(4) 0.2136(3)
C45_3 C 0.4819(6) 0.4611(4) 0.7864(3)
H30_3 H 0.5431 0.5852 0.2416
H31_3 H 0.4569 0.4148 0.7584
C49_3 C 0.4728(4) 0.4602(3) 0.2408(2)
C50_3 C 0.5272(4) 0.5398(3) 0.7592(2)
C54_3 C 0.4584(6) 0.4405(4) 0.3156(2)
C55_3 C 0.5416(6) 0.5595(4) 0.6844(2)
C59_3 C 0.4957(4) 0.4998(3) 0.4293(2)
C60_3 C 0.5043(4) 0.5002(3) 0.5707(2)
C64_3 C 0.5080(5) 0.5677(3) 0.4659(3)
C65_3 C 0.4920(5) 0.4323(3) 0.5341(3)
H35_3 H 0.5134 0.6139 0.4431
H36_3 H 0.4866 0.3861 0.5569
C69_3 C 0.4876(5) 0.4309(3) 0.4637(2)
C70_3 C 0.5124(5) 0.5691(3) 0.5363(2)
H40_3 H 0.4791 0.3841 0.4399
H41_3 H 0.5209 0.6159 0.5601
H45_3 H 0.517(6) 0.558(4) 0.343(3)
H46_3 H 0.483(6) 0.442(4) 0.657(3)
N5_3 N 0.5084(3) 0.5157(2) 0.89861(19)
N10_3 N 0.4948(4) 0.5044(3) 0.3581(2)
N11_3 N 0.5052(4) 0.4956(3) 0.6419(2)
O19_3 O 0.4155(5) 0.3686(3) 0.3332(2)
O20_3 O 0.5845(5) 0.6314(3) 0.6668(2)
H49_3 H 0.855864 0.316331 0.955436
H50_3 H 0.145372 0.680467 0.96259
H50_4 H 0.680467 0.535094 0.0374098
H49_4 H 0.316331 0.460467 0.0445639
H49_5 H 0.539533 0.855864 0.0445639
H50_5 H 0.464906 0.145372 0.0374098
H49_6 H 0.144136 0.683669 0.0445639
H50_6 H 0.854628 0.319533 0.0374098
C30_4 C 0.0756(3) 0.2938(4) 0.2054(3)
H16_4 H 0.0302 0.2722 0.2344
C35_4 C 0.0619(3) 0.2910(4) 0.1375(3)
H21_4 H 0.0079 0.2688 0.1214
C40_4 C 0.2144(3) 0.3555(4) 0.1890(3)
H26_4 H 0.2677 0.3783 0.2067
C45_4 C 0.2056(4) 0.3541(4) 0.1197(3)
H31_4 H 0.2519 0.3754 0.0917
C50_4 C 0.1269(3) 0.3207(3) 0.0925(2)
C55_4 C 0.1072(4) 0.3154(4) 0.0177(2)
Cu3_5 Cu 0.1667 0.3333 0.3333
N5_4 N 0.1510(2) 0.3260(2) 0.23194(19)
N8_4 N 0.1824(2) 0.3406(2) 0.43472(19)
O11_2 O 0.2582(2) 0.44533(19) 0.32485(16)
O12_2 O 0.0752(2) 0.22133(19) 0.34181(16)
O20_4 O 0.0353(3) 0.2864(4) 0.0001(2)
C1_2 C 0.2225(3) 0.4893(3) 0.3260(2)
C2_2 C 0.2801(3) 0.5813(3) 0.3246(3)
C3_2 C 0.3657(3) 0.6137(3) 0.3245(3)
H1_2 H 0.3873 0.5781 0.3242
O2_2 O 0.1462(2) 0.4593(2) 0.32886(18)
C13_2 C 0.5107(3) 0.7331(4) 0.3260(2)
C14_2 C 0.2669(4) 0.7775(3) 0.3260(2)
C15_2 C 0.1109(3) 0.1773(3) 0.3406(2)
C18_2 C 0.4187(3) 0.6987(4) 0.3246(3)
C19_2 C 0.3013(4) 0.7199(3) 0.3246(3)
C20_2 C 0.0533(3) 0.0853(3) 0.3420(3)
C23_2 C 0.3863(3) 0.7519(4) 0.3245(3)
C24_2 C 0.2481(4) 0.6343(3) 0.3245(3)
C27_2 C 0.0853(4) 0.0323(3) 0.3421(3)
H9_2 H 0.1909 0.6127 0.3242
H10_2 H 0.4219 0.8091 0.3242
H12_2 H 0.1425 0.0539 0.3424
C29_4 C 0.2578(3) 0.3728(4) 0.4612(3)
H15_4 H 0.3032 0.3944 0.4322
C34_4 C 0.2715(3) 0.3756(4) 0.5291(3)
H20_4 H 0.3255 0.3978 0.5452
C39_4 C 0.1190(3) 0.3111(4) 0.4776(3)
H25_4 H 0.0657 0.2883 0.4599
C44_4 C 0.1278(4) 0.3125(4) 0.5469(3)
H30_4 H 0.0815 0.2912 0.5749
C49_4 C 0.2065(3) 0.3459(3) 0.5741(2)
C54_4 C 0.2262(4) 0.3512(4) 0.6489(2)
C59_4 C 0.1669(3) 0.3292(3) 0.7626(2)
C60_4 C 0.1665(3) 0.3374(3) 0.9040(2)
C64_4 C 0.0990(3) 0.2736(4) 0.7992(3)
C65_4 C 0.2344(3) 0.3930(4) 0.8674(3)
H35_4 H 0.0528 0.2328 0.7764
H36_4 H 0.2806 0.4338 0.8902
C69_4 C 0.2358(3) 0.3900(4) 0.7970(2)
C70_4 C 0.0976(3) 0.2766(4) 0.8696(2)
H40_4 H 0.2826 0.4283 0.7732
H41_4 H 0.0508 0.2383 0.8934
Cu4_5 Cu 0.6667 0.8333 0.3333
Cu5_3 Cu 0.1667 0.8333 0.3333
H45_4 H 0.109(4) 0.292(4) 0.676(3)
H46_4 H 0.225(4) 0.374(4) 0.990(3)
N10_4 N 0.1623(3) 0.3237(3) 0.6914(2)
N11_4 N 0.1711(3) 0.3429(3) 0.9752(2)
O4_2 O 0.55467(19) 0.81283(28) 0.32485(16)
O5_2 O 0.18717(28) 0.7418(2) 0.32485(16)
O13_2 O 0.5407(2) 0.6868(3) 0.32886(18)
O14_2 O 0.3132(3) 0.8538(2) 0.32886(18)
O15_2 O 0.1872(2) 0.2073(2) 0.33780(18)
O19_4 O 0.2981(3) 0.3802(4) 0.6665(2)
H49_7 H 0.350336 0.872866 0.288769
C17_2 C 0.0665(4) 0.8891(3) 0.3406(2)
C22_2 C 0.0321(4) 0.9467(3) 0.3420(3)
O8_2 O 0.14617(28) 0.9248(2) 0.34181(16)
O17_2 O 0.0202(3) 0.8128(2) 0.33780(18)
C16_2 C 0.8227(3) 0.9335(4) 0.3406(2)
C21_2 C 0.9147(3) 0.9679(4) 0.3420(3)
C26_2 C 0.9471(3) 0.9147(4) 0.3421(3)
H13_2 H 0.9115 0.8575 0.3424
O7_2 O 0.77867(19) 0.85383(28) 0.34181(16)
O16_2 O 0.7927(2) 0.9798(3) 0.33780(18)
H50_7 H 0.9862 0.798239 0.295924
H50_8 H 0.201761 0.187961 0.295924
C30_5 C 0.7062(4) 0.7817(5) 0.2054(3)
H16_5 H 0.7278 0.7579 0.2344
C35_5 C 0.7090(4) 0.7708(5) 0.1375(3)
H21_5 H 0.7312 0.7390 0.1214
C40_5 C 0.6445(4) 0.8588(5) 0.1890(3)
H26_5 H 0.6217 0.8893 0.2067
C45_5 C 0.6459(4) 0.8514(6) 0.1197(3)
H31_5 H 0.6246 0.8764 0.0917
C50_5 C 0.6793(3) 0.8061(4) 0.0925(2)
C55_5 C 0.6846(4) 0.7917(6) 0.0177(2)
N5_5 N 0.6740(2) 0.8249(3) 0.23194(19)
N8_5 N 0.6594(2) 0.8417(3) 0.43472(19)
O20_5 O 0.7136(4) 0.7488(5) 0.0001(2)
C29_5 C 0.6272(4) 0.8849(5) 0.4612(3)
H15_5 H 0.6056 0.9087 0.4322
C34_5 C 0.6244(4) 0.8958(5) 0.5291(3)
H20_5 H 0.6022 0.9276 0.5452
C39_5 C 0.6889(4) 0.8078(5) 0.4776(3)
H25_5 H 0.7117 0.7773 0.4599
C44_5 C 0.6875(4) 0.8152(6) 0.5469(3)
H30_5 H 0.7088 0.7902 0.5749
C49_5 C 0.6541(3) 0.8605(4) 0.5741(2)
C54_5 C 0.6488(4) 0.8749(6) 0.6489(2)
C59_5 C 0.6708(3) 0.8376(4) 0.7626(2)
C60_5 C 0.6626(3) 0.8290(4) 0.9040(2)
C64_5 C 0.7264(4) 0.8253(5) 0.7992(3)
C65_5 C 0.6070(4) 0.8413(5) 0.8674(3)
H35_5 H 0.7672 0.8199 0.7764
H36_5 H 0.5662 0.8467 0.8902
C69_5 C 0.6100(4) 0.8457(5) 0.7970(2)
C70_5 C 0.7234(4) 0.8209(5) 0.8696(2)
H40_5 H 0.5717 0.8542 0.7732
H41_5 H 0.7617 0.8124 0.8934
H45_5 H 0.708(4) 0.816(6) 0.676(3)
H46_5 H 0.626(4) 0.850(6) 0.990(3)
N10_5 N 0.6763(3) 0.8385(4) 0.6914(2)
N11_5 N 0.6571(3) 0.8281(4) 0.9752(2)
O19_5 O 0.6198(4) 0.9178(5) 0.6665(2)
H49_8 H 0.127134 0.477469 0.288769
C30_6 C 0.2183(5) 0.9244(3) 0.2054(3)
H16_6 H 0.2421 0.9698 0.2344
C35_6 C 0.2292(5) 0.9381(3) 0.1375(3)
H21_6 H 0.2610 0.9921 0.1214
C40_6 C 0.1412(5) 0.7856(3) 0.1890(3)
H26_6 H 0.1107 0.7323 0.2067
C45_6 C 0.1486(6) 0.7944(4) 0.1197(3)
H31_6 H 0.1236 0.7481 0.0917
C50_6 C 0.1939(4) 0.8731(3) 0.0925(2)
C55_6 C 0.2083(6) 0.8928(4) 0.0177(2)
N5_6 N 0.1751(3) 0.8490(2) 0.23194(19)
N8_6 N 0.1583(3) 0.8176(2) 0.43472(19)
O20_6 O 0.2512(5) 0.9647(3) 0.0001(2)
C29_6 C 0.1151(5) 0.7422(3) 0.4612(3)
H15_6 H 0.0913 0.6968 0.4322
C34_6 C 0.1042(5) 0.7285(3) 0.5291(3)
H20_6 H 0.0724 0.6745 0.5452
C39_6 C 0.1922(5) 0.8810(3) 0.4776(3)
H25_6 H 0.2227 0.9343 0.4599
C44_6 C 0.1848(6) 0.8722(4) 0.5469(3)
H30_6 H 0.2098 0.9185 0.5749
C49_6 C 0.1395(4) 0.7935(3) 0.5741(2)
C54_6 C 0.1251(6) 0.7738(4) 0.6489(2)
C59_6 C 0.1624(4) 0.8331(3) 0.7626(2)
C60_6 C 0.1710(4) 0.8335(3) 0.9040(2)
C64_6 C 0.1747(5) 0.9010(3) 0.7992(3)
C65_6 C 0.1587(5) 0.7656(3) 0.8674(3)
H35_6 H 0.1801 0.9472 0.7764
H36_6 H 0.1533 0.7194 0.8902
C69_6 C 0.1543(5) 0.7642(3) 0.7970(2)
C70_6 C 0.1791(5) 0.9024(3) 0.8696(2)
H40_6 H 0.1458 0.7174 0.7732
H41_6 H 0.1876 0.9492 0.8934
H45_6 H 0.184(6) 0.891(4) 0.676(3)
H46_6 H 0.150(6) 0.775(4) 0.990(3)
N10_6 N 0.1615(4) 0.8377(3) 0.6914(2)
N11_6 N 0.1719(4) 0.8289(3) 0.9752(2)
O19_6 O 0.0822(5) 0.7019(3) 0.6665(2)
H49_9 H 0.522531 0.649664 0.288769
H50_9 H 0.347133 0.868428 0.370743
H49_10 H 0.982998 0.7938 0.377897
H49_11 H 0.2062 0.189197 0.377897
H50_10 H 0.131572 0.478706 0.370743
H50_11 H 0.521294 0.652867 0.370743
C25_2 C 0.9677(3) 0.0529(3) 0.3421(3)
H11_2 H 0.9461 0.0885 0.3424
H50_12 H 0.812039 0.0137999 0.295924
H49_12 H 0.810803 0.0170023 0.377897
C13_3 C 0.1773(3) 0.0665(4) 0.6594(2)
C18_3 C 0.0853(3) 0.0321(4) 0.6580(3)
C23_3 C 0.0529(3) 0.0853(4) 0.6579(3)
H10_3 H 0.0885 0.1425 0.6576
Cu4_6 Cu 0.3333 0.1667 0.6667
O4_3 O 0.22133(19) 0.14617(28) 0.65819(16)
O13_3 O 0.2073(2) 0.0202(3) 0.66220(18)
H49_13 H 0.0170023 0.2062 0.622103
C14_3 C 0.9335(4) 0.1109(3) 0.6594(2)
C19_3 C 0.9679(4) 0.0533(3) 0.6580(3)
Cu5_4 Cu 0.8333 0.1667 0.6667
O5_3 O 0.85383(28) 0.0752(2) 0.65819(16)
O14_3 O 0.9798(3) 0.1872(2) 0.66220(18)
C30_7 C 0.7422(3) 0.6272(4) 0.5388(3)
H16_7 H 0.6968 0.6056 0.5678
C35_7 C 0.7285(3) 0.6244(4) 0.4709(3)
H21_7 H 0.6745 0.6022 0.4548
C40_7 C 0.8810(3) 0.6889(4) 0.5224(3)
H26_7 H 0.9343 0.7117 0.5401
C45_7 C 0.8722(4) 0.6875(4) 0.4531(3)
H31_7 H 0.9185 0.7088 0.4251
C50_7 C 0.7935(3) 0.6541(3) 0.4259(2)
C55_7 C 0.7738(4) 0.6488(4) 0.3511(2)
C59_7 C 0.8335(3) 0.6626(3) 0.0960(2)
C60_7 C 0.8331(3) 0.6708(3) 0.2374(2)
C64_7 C 0.7656(3) 0.6070(4) 0.1326(3)
C65_7 C 0.9010(3) 0.7264(4) 0.2008(3)
H35_7 H 0.7194 0.5662 0.1098
H36_7 H 0.9472 0.7672 0.2236
C69_7 C 0.9024(3) 0.7234(4) 0.1304(2)
C70_7 C 0.7642(3) 0.6100(4) 0.2030(2)
H40_7 H 0.9492 0.7617 0.1066
H41_7 H 0.7174 0.5717 0.2268
Cu3_6 Cu 0.8333 0.6667 0.6667
H45_7 H 0.775(4) 0.626(4) 0.010(3)
H46_7 H 0.891(4) 0.708(4) 0.324(3)
N5_7 N 0.8176(2) 0.6594(2) 0.56528(19)
N8_7 N 0.8490(2) 0.6740(2) 0.76806(19)
N10_7 N 0.8289(3) 0.6571(3) 0.0248(2)
N11_7 N 0.8377(3) 0.6763(3) 0.3086(2)
O11_3 O 0.9248(2) 0.77867(19) 0.65819(16)
O12_3 O 0.7418(2) 0.55467(19) 0.67515(16)
O20_7 O 0.7019(3) 0.6198(4) 0.3335(2)
C1_3 C 0.8891(3) 0.8227(3) 0.6594(2)
C2_3 C 0.9467(3) 0.9147(3) 0.6580(3)
O2_3 O 0.8128(2) 0.7927(2) 0.66220(18)
C15_3 C 0.7775(3) 0.5107(3) 0.6740(2)
C16_3 C 0.4893(3) 0.2669(4) 0.6740(2)
C17_3 C 0.7331(4) 0.2225(3) 0.6740(2)
C20_3 C 0.7199(3) 0.4187(3) 0.6754(3)
C21_3 C 0.5813(3) 0.3013(4) 0.6754(3)
C22_3 C 0.6987(4) 0.2801(3) 0.6754(3)
C24_3 C 0.9147(4) 0.9677(3) 0.6579(3)
C25_3 C 0.6343(3) 0.3863(3) 0.6755(3)
C26_3 C 0.6137(3) 0.2481(4) 0.6755(3)
C27_3 C 0.7519(4) 0.3657(3) 0.6755(3)
H9_3 H 0.8575 0.9461 0.6576
H11_3 H 0.6127 0.4219 0.6758
H12_3 H 0.8091 0.3873 0.6758
H13_3 H 0.5781 0.1909 0.6758
C29_7 C 0.9244(3) 0.7062(4) 0.7946(3)
H15_7 H 0.9698 0.7278 0.7656
C34_7 C 0.9381(3) 0.7090(4) 0.8625(3)
H20_7 H 0.9921 0.7312 0.8786
C39_7 C 0.7856(3) 0.6445(4) 0.8110(3)
H25_7 H 0.7323 0.6217 0.7933
C44_7 C 0.7944(4) 0.6459(4) 0.8803(3)
H30_7 H 0.7481 0.6246 0.9083
C49_7 C 0.8731(3) 0.6793(3) 0.9075(2)
C54_7 C 0.8928(4) 0.6846(4) 0.9823(2)
O7_3 O 0.44533(19) 0.18717(28) 0.67515(16)
O8_3 O 0.81283(28) 0.2582(2) 0.67515(16)
O15_3 O 0.8538(2) 0.5407(2) 0.67114(18)
O16_3 O 0.4593(2) 0.3132(3) 0.67114(18)
O17_3 O 0.6868(3) 0.1462(2) 0.67114(18)
O19_7 O 0.9647(3) 0.7136(4) 0.9999(2)
H50_13 H 0.652867 0.131572 0.629257
C30_8 C 0.3728(4) 0.1151(5) 0.5388(3)
H16_8 H 0.3944 0.0913 0.5678
C35_8 C 0.3756(4) 0.1042(5) 0.4709(3)
H21_8 H 0.3978 0.0724 0.4548
C40_8 C 0.3111(4) 0.1922(5) 0.5224(3)
H26_8 H 0.2883 0.2227 0.5401
C45_8 C 0.3125(4) 0.1848(6) 0.4531(3)
H31_8 H 0.2912 0.2098 0.4251
C50_8 C 0.3459(3) 0.1395(4) 0.4259(2)
C55_8 C 0.3512(4) 0.1251(6) 0.3511(2)
C59_8 C 0.3374(3) 0.1710(4) 0.0960(2)
C60_8 C 0.3292(3) 0.1624(4) 0.2374(2)
C64_8 C 0.3930(4) 0.1587(5) 0.1326(3)
C65_8 C 0.2736(4) 0.1747(5) 0.2008(3)
H35_8 H 0.4338 0.1533 0.1098
H36_8 H 0.2328 0.1801 0.2236
C69_8 C 0.2766(4) 0.1791(5) 0.1304(2)
C70_8 C 0.3900(4) 0.1543(5) 0.2030(2)
H40_8 H 0.2383 0.1876 0.1066
H41_8 H 0.4283 0.1458 0.2268
H45_8 H 0.374(4) 0.150(6) 0.010(3)
H46_8 H 0.292(4) 0.184(6) 0.324(3)
N5_8 N 0.3406(2) 0.1583(3) 0.56528(19)
N8_8 N 0.3260(2) 0.1751(3) 0.76806(19)
N10_8 N 0.3429(3) 0.1719(4) 0.0248(2)
N11_8 N 0.3237(3) 0.1615(4) 0.3086(2)
O20_8 O 0.3802(4) 0.0822(5) 0.3335(2)
C29_8 C 0.2938(4) 0.2183(5) 0.7946(3)
H15_8 H 0.2722 0.2421 0.7656
C34_8 C 0.2910(4) 0.2292(5) 0.8625(3)
H20_8 H 0.2688 0.2610 0.8786
C39_8 C 0.3555(4) 0.1412(5) 0.8110(3)
H25_8 H 0.3783 0.1107 0.7933
C44_8 C 0.3541(4) 0.1486(6) 0.8803(3)
H30_8 H 0.3754 0.1236 0.9083
C49_8 C 0.3207(3) 0.1939(4) 0.9075(2)
C54_8 C 0.3154(4) 0.2083(6) 0.9823(2)
O19_8 O 0.2864(4) 0.2512(5) 0.9999(2)
H50_14 H 0.868428 0.521294 0.629257
H49_14 H 0.7938 0.810803 0.622103
C30_9 C 0.8849(5) 0.2578(3) 0.5388(3)
H16_9 H 0.9087 0.3032 0.5678
C35_9 C 0.8958(5) 0.2715(3) 0.4709(3)
H21_9 H 0.9276 0.3255 0.4548
C40_9 C 0.8078(5) 0.1190(3) 0.5224(3)
H26_9 H 0.7773 0.0657 0.5401
C45_9 C 0.8152(6) 0.1278(4) 0.4531(3)
H31_9 H 0.7902 0.0815 0.4251
C50_9 C 0.8605(4) 0.2065(3) 0.4259(2)
C55_9 C 0.8749(6) 0.2262(4) 0.3511(2)
C59_9 C 0.8290(4) 0.1665(3) 0.0960(2)
C60_9 C 0.8376(4) 0.1669(3) 0.2374(2)
C64_9 C 0.8413(5) 0.2344(3) 0.1326(3)
C65_9 C 0.8253(5) 0.0990(3) 0.2008(3)
H35_9 H 0.8467 0.2806 0.1098
H36_9 H 0.8199 0.0528 0.2236
C69_9 C 0.8209(5) 0.0976(3) 0.1304(2)
C70_9 C 0.8457(5) 0.2358(3) 0.2030(2)
H40_9 H 0.8124 0.0508 0.1066
H41_9 H 0.8542 0.2826 0.2268
H45_9 H 0.850(6) 0.225(4) 0.010(3)
H46_9 H 0.816(6) 0.109(4) 0.324(3)
N5_9 N 0.8417(3) 0.1824(2) 0.56528(19)
N8_9 N 0.8249(3) 0.1510(2) 0.76806(19)
N10_9 N 0.8281(4) 0.1711(3) 0.0248(2)
N11_9 N 0.8385(4) 0.1623(3) 0.3086(2)
O20_9 O 0.9178(5) 0.2981(3) 0.3335(2)
C29_9 C 0.7817(5) 0.0756(3) 0.7946(3)
H15_9 H 0.7579 0.0302 0.7656
C34_9 C 0.7708(5) 0.0619(3) 0.8625(3)
H20_9 H 0.7390 0.0079 0.8786
C39_9 C 0.8588(5) 0.2144(3) 0.8110(3)
H25_9 H 0.8893 0.2677 0.7933
C44_9 C 0.8514(6) 0.2056(4) 0.8803(3)
H30_9 H 0.8764 0.2519 0.9083
C49_9 C 0.8061(4) 0.1269(3) 0.9075(2)
C54_9 C 0.7917(6) 0.1072(4) 0.9823(2)
O19_9 O 0.7488(5) 0.0353(3) 0.9999(2)
H50_15 H 0.478706 0.347133 0.629257
H50_16 H 0.0137999 0.201761 0.704076
H49_15 H 0.649664 0.127134 0.711231
H49_16 H 0.872866 0.522531 0.711231
H50_17 H 0.798239 0.812039 0.704076
H49_17 H 0.477469 0.350336 0.711231
C3_3 C 0.0323(3) 0.9471(3) 0.6579(3)
H1_3 H 0.0539 0.9115 0.6576
H49_18 H 0.189197 0.982998 0.622103
H50_18 H 0.187961 0.9862 0.704076
loop_
_geom_bond_atom_site_label_1
_geom_bond_atom_site_label_2
_geom_bond_site_symmetry_1
_geom_bond_site_symmetry_2
N8 Cu3 1_555 1_555
C29 H15 1_555 1_555
C34 C29 1_555 1_555
H20 C34 1_555 1_555
C40 H26 1_555 1_555
C45 C40 1_555 1_555
H31 C45 1_555 1_555
C49 C34 1_555 1_555
C54 C49 1_555 1_555
C60 C65 1_555 1_555
C65 H36 1_555 1_555
H40 C69 1_555 1_555
H46 N11 1_555 1_555
O11 Cu3_2 1_555 1_555
O19 C54 1_555 1_555
C29 N8 1_555 1_555
C60 N11 1_555 1_555
C65 C69 1_555 1_555
C1 C2 1_555 1_555
C2 C3 1_555 1_555
C3 H1 1_555 1_555
O11 C1 1_555 1_555
O2 C1 1_555 1_555
C13 C18 1_555 1_555
C14 C19 1_555 1_555
C18 C3 1_555 1_555
C19 C23 1_555 1_555
C23 C18 1_555 1_555
C24 C2 1_555 1_555
H9 C24 1_555 1_555
H10 C23 1_555 1_555
Cu4_4 O4 1_555 1_555
Cu5_2 O5 1_555 1_555
O4 C13 1_555 1_555
O5 C14 1_555 1_555
O13 C13 1_555 1_555
O14 C14 1_555 1_555
C19 C24 1_555 1_555
O14 H49 1_555 1_555
O12 Cu3_3 1_555 1_555
C15 C20 1_555 1_555
C16 C21 1_555 1_555
C17 C22 1_555 1_555
C20 C25 1_555 1_555
C21 C25 1_555 1_555
C22 C26 1_555 1_555
C25 H11 1_555 1_555
C26 C21 1_555 1_555
C27 C20 1_555 1_555
H12 C27 1_555 1_555
H13 C26 1_555 1_555
C30 H16 1_555 1_555
C35 C30 1_555 1_555
H21 C35 1_555 1_555
C39 H25 1_555 1_555
C44 C39 1_555 1_555
H30 C44 1_555 1_555
C50 C35 1_555 1_555
C55 C50 1_555 1_555
C59 C64 1_555 1_555
C64 H35 1_555 1_555
H41 C70 1_555 1_555
Cu3_4 N5 1_555 1_555
Cu4 O7 1_555 1_555
Cu5 O8 1_555 1_555
H45 N10 1_555 1_555
N5 C30 1_555 1_555
O7 C16 1_555 1_555
O8 C17 1_555 1_555
O15 C15 1_555 1_555
O16 C16 1_555 1_555
O17 C17 1_555 1_555
O20 C55 1_555 1_555
C15 O12 1_555 1_555
C22 C27 1_555 1_555
C59 N10 1_555 1_555
C64 C70 1_555 1_555
C30_2 H16_2 1_555 1_555
C35_2 C30_2 1_555 1_555
H21_2 C35_2 1_555 1_555
C39_2 H25_2 1_555 1_555
C44_2 C39_2 1_555 1_555
H30_2 C44_2 1_555 1_555
C50_2 C35_2 1_555 1_555
C55_2 C50_2 1_555 1_555
C59_2 C64_2 1_555 1_555
C64_2 H35_2 1_555 1_555
H41_2 C70_2 1_555 1_555
Cu4_2 N5_2 1_555 1_555
H45_2 N10_2 1_555 1_555
N5_2 C30_2 1_555 1_555
O20_2 C55_2 1_555 1_555
C59_2 N10_2 1_555 1_555
C64_2 C70_2 1_555 1_555
N8_2 Cu4_3 1_555 1_555
C29_2 H15_2 1_555 1_555
C34_2 C29_2 1_555 1_555
H20_2 C34_2 1_555 1_555
C40_2 H26_2 1_555 1_555
C45_2 C40_2 1_555 1_555
H31_2 C45_2 1_555 1_555
C49_2 C34_2 1_555 1_555
C54_2 C49_2 1_555 1_555
C60_2 C65_2 1_555 1_555
C65_2 H36_2 1_555 1_555
H40_2 C69_2 1_555 1_555
H46_2 N11_2 1_555 1_555
O19_2 C54_2 1_555 1_555
C29_2 N8_2 1_555 1_555
C60_2 N11_2 1_555 1_555
C65_2 C69_2 1_555 1_555
O2 H49_2 1_555 1_555
N8_3 Cu5 1_555 1_555
C29_3 H15_3 1_555 1_555
C30_3 H16_3 1_555 1_555
C34_3 C29_3 1_555 1_555
C35_3 C30_3 1_555 1_555
H20_3 C34_3 1_555 1_555
H21_3 C35_3 1_555 1_555
C39_3 H25_3 1_555 1_555
C40_3 H26_3 1_555 1_555
C44_3 C39_3 1_555 1_555
C45_3 C40_3 1_555 1_555
H30_3 C44_3 1_555 1_555
H31_3 C45_3 1_555 1_555
C49_3 C34_3 1_555 1_555
C50_3 C35_3 1_555 1_555
C54_3 C49_3 1_555 1_555
C55_3 C50_3 1_555 1_555
C59_3 C64_3 1_555 1_555
C60_3 C65_3 1_555 1_555
C64_3 H35_3 1_555 1_555
C65_3 H36_3 1_555 1_555
C69_3 C59_3 1_555 1_555
C70_3 C60_3 1_555 1_555
H40_3 C69_3 1_555 1_555
H41_3 C70_3 1_555 1_555
Cu5_2 N5_3 1_555 1_555
H45_3 N10_3 1_555 1_555
H46_3 N11_3 1_555 1_555
N5_3 C30_3 1_555 1_555
N10_3 C54_3 1_555 1_555
N11_3 C55_3 1_555 1_555
O19_3 C54_3 1_555 1_555
O20_3 C55_3 1_555 1_555
C29_3 N8_3 1_555 1_555
C39_3 N8_3 1_555 1_555
C40_3 N5_3 1_555 1_555
C44_3 C49_3 1_555 1_555
C45_3 C50_3 1_555 1_555
C59_3 N10_3 1_555 1_555
C60_3 N11_3 1_555 1_555
C64_3 C70_3 1_555 1_555
C65_3 C69_3 1_555 1_555
O13 H49_3 1_555 1_555
O17 H49_4 1_555 1_555
O15 H49_5 1_555 1_555
O16 H49_6 1_555 1_555
C30_4 H16_4 1_555 1_555
C35_4 C30_4 1_555 1_555
H21_4 C35_4 1_555 1_555
C40_4 H26_4 1_555 1_555
C45_4 C40_4 1_555 1_555
H31_4 C45_4 1_555 1_555
C50_4 C35_4 1_555 1_555
C55_4 C50_4 1_555 1_555
Cu3_5 N5_4 1_555 1_555
N5_4 C30_4 1_555 1_555
N8_4 Cu3_5 1_555 1_555
O11_2 Cu3_5 1_555 1_555
O12_2 Cu3_5 1_555 1_555
O20_4 C55_4 1_555 1_555
C40_4 N5_4 1_555 1_555
C45_4 C50_4 1_555 1_555
C1_2 C2_2 1_555 1_555
C2_2 C3_2 1_555 1_555
C3_2 H1_2 1_555 1_555
O11_2 C1_2 1_555 1_555
O2_2 C1_2 1_555 1_555
C13_2 C18_2 1_555 1_555
C14_2 C19_2 1_555 1_555
C15_2 C20_2 1_555 1_555
C18_2 C3_2 1_555 1_555
C19_2 C23_2 1_555 1_555
C23_2 C18_2 1_555 1_555
C24_2 C2_2 1_555 1_555
C27_2 C20_2 1_555 1_555
H9_2 C24_2 1_555 1_555
H10_2 C23_2 1_555 1_555
H12_2 C27_2 1_555 1_555
C29_4 H15_4 1_555 1_555
C34_4 C29_4 1_555 1_555
H20_4 C34_4 1_555 1_555
C39_4 H25_4 1_555 1_555
C44_4 C39_4 1_555 1_555
H30_4 C44_4 1_555 1_555
C49_4 C34_4 1_555 1_555
C54_4 C49_4 1_555 1_555
C59_4 C64_4 1_555 1_555
C60_4 C65_4 1_555 1_555
C64_4 H35_4 1_555 1_555
C65_4 H36_4 1_555 1_555
C69_4 C59_4 1_555 1_555
C70_4 C60_4 1_555 1_555
H40_4 C69_4 1_555 1_555
H41_4 C70_4 1_555 1_555
Cu4_5 O4_2 1_555 1_555
Cu5_3 O5_2 1_555 1_555
H45_4 N10_4 1_555 1_555
H46_4 N11_4 1_555 1_555
N10_4 C54_4 1_555 1_555
O4_2 C13_2 1_555 1_555
O5_2 C14_2 1_555 1_555
O13_2 C13_2 1_555 1_555
O14_2 C14_2 1_555 1_555
O15_2 C15_2 1_555 1_555
O19_4 C54_4 1_555 1_555
C15_2 O12_2 1_555 1_555
C19_2 C24_2 1_555 1_555
C29_4 N8_4 1_555 1_555
C39_4 N8_4 1_555 1_555
C44_4 C49_4 1_555 1_555
C59_4 N10_4 1_555 1_555
C60_4 N11_4 1_555 1_555
C64_4 C70_4 1_555 1_555
C65_4 C69_4 1_555 1_555
O14_2 H49_7 1_555 1_555
C17_2 C22_2 1_555 1_555
Cu5_3 O8_2 1_555 1_555
O8_2 C17_2 1_555 1_555
O17_2 C17_2 1_555 1_555
C16_2 C21_2 1_555 1_555
C26_2 C21_2 1_555 1_555
H13_2 C26_2 1_555 1_555
Cu4_5 O7_2 1_555 1_555
O7_2 C16_2 1_555 1_555
O16_2 C16_2 1_555 1_555
O15_2 H50_8 1_555 1_555
C30_5 H16_5 1_555 1_555
C35_5 C30_5 1_555 1_555
H21_5 C35_5 1_555 1_555
C40_5 H26_5 1_555 1_555
C45_5 C40_5 1_555 1_555
H31_5 C45_5 1_555 1_555
C50_5 C35_5 1_555 1_555
C55_5 C50_5 1_555 1_555
Cu4_5 N5_5 1_555 1_555
N5_5 C30_5 1_555 1_555
N8_5 Cu4_5 1_555 1_555
O20_5 C55_5 1_555 1_555
C40_5 N5_5 1_555 1_555
C45_5 C50_5 1_555 1_555
C29_5 H15_5 1_555 1_555
C34_5 C29_5 1_555 1_555
H20_5 C34_5 1_555 1_555
C39_5 H25_5 1_555 1_555
C44_5 C39_5 1_555 1_555
H30_5 C44_5 1_555 1_555
C49_5 C34_5 1_555 1_555
C54_5 C49_5 1_555 1_555
C59_5 C64_5 1_555 1_555
C60_5 C65_5 1_555 1_555
C64_5 H35_5 1_555 1_555
C65_5 H36_5 1_555 1_555
C69_5 C59_5 1_555 1_555
C70_5 C60_5 1_555 1_555
H40_5 C69_5 1_555 1_555
H41_5 C70_5 1_555 1_555
H45_5 N10_5 1_555 1_555
H46_5 N11_5 1_555 1_555
N10_5 C54_5 1_555 1_555
O19_5 C54_5 1_555 1_555
C29_5 N8_5 1_555 1_555
C39_5 N8_5 1_555 1_555
C44_5 C49_5 1_555 1_555
C59_5 N10_5 1_555 1_555
C60_5 N11_5 1_555 1_555
C64_5 C70_5 1_555 1_555
C65_5 C69_5 1_555 1_555
O2_2 H49_8 1_555 1_555
C30_6 H16_6 1_555 1_555
C35_6 C30_6 1_555 1_555
H21_6 C35_6 1_555 1_555
C40_6 H26_6 1_555 1_555
C45_6 C40_6 1_555 1_555
H31_6 C45_6 1_555 1_555
C50_6 C35_6 1_555 1_555
C55_6 C50_6 1_555 1_555
Cu5_3 N5_6 1_555 1_555
N5_6 C30_6 1_555 1_555
N8_6 Cu5_3 1_555 1_555
O20_6 C55_6 1_555 1_555
C40_6 N5_6 1_555 1_555
C45_6 C50_6 1_555 1_555
C29_6 H15_6 1_555 1_555
C34_6 C29_6 1_555 1_555
H20_6 C34_6 1_555 1_555
C39_6 H25_6 1_555 1_555
C44_6 C39_6 1_555 1_555
H30_6 C44_6 1_555 1_555
C49_6 C34_6 1_555 1_555
C54_6 C49_6 1_555 1_555
C59_6 C64_6 1_555 1_555
C60_6 C65_6 1_555 1_555
C64_6 H35_6 1_555 1_555
C65_6 H36_6 1_555 1_555
C69_6 C59_6 1_555 1_555
C70_6 C60_6 1_555 1_555
H40_6 C69_6 1_555 1_555
H41_6 C70_6 1_555 1_555
H45_6 N10_6 1_555 1_555
H46_6 N11_6 1_555 1_555
N10_6 C54_6 1_555 1_555
O19_6 C54_6 1_555 1_555
C29_6 N8_6 1_555 1_555
C39_6 N8_6 1_555 1_555
C44_6 C49_6 1_555 1_555
C59_6 N10_6 1_555 1_555
C60_6 N11_6 1_555 1_555
C64_6 C70_6 1_555 1_555
C65_6 C69_6 1_555 1_555
O13_2 H49_9 1_555 1_555
O14_2 H50_9 1_555 1_555
O15_2 H49_11 1_555 1_555
O2_2 H50_10 1_555 1_555
O13_2 H50_11 1_555 1_555
C25_2 H11_2 1_555 1_555
C13_3 C18_3 1_555 1_555
C23_3 C18_3 1_555 1_555
H10_3 C23_3 1_555 1_555
Cu4_6 O4_3 1_555 1_555
O4_3 C13_3 1_555 1_555
O13_3 C13_3 1_555 1_555
C14_3 C19_3 1_555 1_555
Cu5_4 O5_3 1_555 1_555
O5_3 C14_3 1_555 1_555
O14_3 C14_3 1_555 1_555
C30_7 H16_7 1_555 1_555
C35_7 C30_7 1_555 1_555
H21_7 C35_7 1_555 1_555
C40_7 H26_7 1_555 1_555
C45_7 C40_7 1_555 1_555
H31_7 C45_7 1_555 1_555
C50_7 C35_7 1_555 1_555
C55_7 C50_7 1_555 1_555
C59_7 C64_7 1_555 1_555
C60_7 C65_7 1_555 1_555
C64_7 H35_7 1_555 1_555
C65_7 H36_7 1_555 1_555
C69_7 C59_7 1_555 1_555
C70_7 C60_7 1_555 1_555
H40_7 C69_7 1_555 1_555
H41_7 C70_7 1_555 1_555
Cu3_6 N5_7 1_555 1_555
H45_7 N10_7 1_555 1_555
H46_7 N11_7 1_555 1_555
N5_7 C30_7 1_555 1_555
N8_7 Cu3_6 1_555 1_555
N11_7 C55_7 1_555 1_555
O11_3 Cu3_6 1_555 1_555
O12_3 Cu3_6 1_555 1_555
O20_7 C55_7 1_555 1_555
C40_7 N5_7 1_555 1_555
C45_7 C50_7 1_555 1_555
C59_7 N10_7 1_555 1_555
C60_7 N11_7 1_555 1_555
C64_7 C70_7 1_555 1_555
C65_7 C69_7 1_555 1_555
C1_3 C2_3 1_555 1_555
O11_3 C1_3 1_555 1_555
O2_3 C1_3 1_555 1_555
C15_3 C20_3 1_555 1_555
C16_3 C21_3 1_555 1_555
C17_3 C22_3 1_555 1_555
C20_3 C25_3 1_555 1_555
C21_3 C25_3 1_555 1_555
C22_3 C26_3 1_555 1_555
C24_3 C2_3 1_555 1_555
C25_3 H11_3 1_555 1_555
C26_3 C21_3 1_555 1_555
C27_3 C20_3 1_555 1_555
H9_3 C24_3 1_555 1_555
H12_3 C27_3 1_555 1_555
H13_3 C26_3 1_555 1_555
C29_7 H15_7 1_555 1_555
C34_7 C29_7 1_555 1_555
H20_7 C34_7 1_555 1_555
C39_7 H25_7 1_555 1_555
C44_7 C39_7 1_555 1_555
H30_7 C44_7 1_555 1_555
C49_7 C34_7 1_555 1_555
C54_7 C49_7 1_555 1_555
Cu4_6 O7_3 1_555 1_555
Cu5_4 O8_3 1_555 1_555
O7_3 C16_3 1_555 1_555
O8_3 C17_3 1_555 1_555
O15_3 C15_3 1_555 1_555
O16_3 C16_3 1_555 1_555
O17_3 C17_3 1_555 1_555
O19_7 C54_7 1_555 1_555
C15_3 O12_3 1_555 1_555
C22_3 C27_3 1_555 1_555
C29_7 N8_7 1_555 1_555
C39_7 N8_7 1_555 1_555
C44_7 C49_7 1_555 1_555
O17_3 H50_13 1_555 1_555
C30_8 H16_8 1_555 1_555
C35_8 C30_8 1_555 1_555
H21_8 C35_8 1_555 1_555
C40_8 H26_8 1_555 1_555
C45_8 C40_8 1_555 1_555
H31_8 C45_8 1_555 1_555
C50_8 C35_8 1_555 1_555
C55_8 C50_8 1_555 1_555
C59_8 C64_8 1_555 1_555
C60_8 C65_8 1_555 1_555
C64_8 H35_8 1_555 1_555
C65_8 H36_8 1_555 1_555
C69_8 C59_8 1_555 1_555
C70_8 C60_8 1_555 1_555
H40_8 C69_8 1_555 1_555
H41_8 C70_8 1_555 1_555
Cu4_6 N5_8 1_555 1_555
H45_8 N10_8 1_555 1_555
H46_8 N11_8 1_555 1_555
N5_8 C30_8 1_555 1_555
N8_8 Cu4_6 1_555 1_555
N11_8 C55_8 1_555 1_555
O20_8 C55_8 1_555 1_555
C40_8 N5_8 1_555 1_555
C45_8 C50_8 1_555 1_555
C59_8 N10_8 1_555 1_555
C60_8 N11_8 1_555 1_555
C64_8 C70_8 1_555 1_555
C65_8 C69_8 1_555 1_555
C29_8 H15_8 1_555 1_555
C34_8 C29_8 1_555 1_555
H20_8 C34_8 1_555 1_555
C39_8 H25_8 1_555 1_555
C44_8 C39_8 1_555 1_555
H30_8 C44_8 1_555 1_555
C49_8 C34_8 1_555 1_555
C54_8 C49_8 1_555 1_555
O19_8 C54_8 1_555 1_555
C29_8 N8_8 1_555 1_555
C39_8 N8_8 1_555 1_555
C44_8 C49_8 1_555 1_555
O15_3 H50_14 1_555 1_555
O2_3 H49_14 1_555 1_555
C30_9 H16_9 1_555 1_555
C35_9 C30_9 1_555 1_555
H21_9 C35_9 1_555 1_555
C40_9 H26_9 1_555 1_555
C45_9 C40_9 1_555 1_555
H31_9 C45_9 1_555 1_555
C50_9 C35_9 1_555 1_555
C55_9 C50_9 1_555 1_555
C59_9 C64_9 1_555 1_555
C60_9 C65_9 1_555 1_555
C64_9 H35_9 1_555 1_555
C65_9 H36_9 1_555 1_555
C69_9 C59_9 1_555 1_555
C70_9 C60_9 1_555 1_555
H40_9 C69_9 1_555 1_555
H41_9 C70_9 1_555 1_555
Cu5_4 N5_9 1_555 1_555
H45_9 N10_9 1_555 1_555
H46_9 N11_9 1_555 1_555
N5_9 C30_9 1_555 1_555
N8_9 Cu5_4 1_555 1_555
N11_9 C55_9 1_555 1_555
O20_9 C55_9 1_555 1_555
C40_9 N5_9 1_555 1_555
C45_9 C50_9 1_555 1_555
C59_9 N10_9 1_555 1_555
C60_9 N11_9 1_555 1_555
C64_9 C70_9 1_555 1_555
C65_9 C69_9 1_555 1_555
C29_9 H15_9 1_555 1_555
C34_9 C29_9 1_555 1_555
H20_9 C34_9 1_555 1_555
C39_9 H25_9 1_555 1_555
C44_9 C39_9 1_555 1_555
H30_9 C44_9 1_555 1_555
C49_9 C34_9 1_555 1_555
C54_9 C49_9 1_555 1_555
O19_9 C54_9 1_555 1_555
C29_9 N8_9 1_555 1_555
C39_9 N8_9 1_555 1_555
C44_9 C49_9 1_555 1_555
O16_3 H50_15 1_555 1_555
O17_3 H49_15 1_555 1_555
O15_3 H49_16 1_555 1_555
O2_3 H50_17 1_555 1_555
O16_3 H49_17 1_555 1_555
C3_3 H1_3 1_555 1_555

#END
