
###############################################################################
#
# This file contains modified crystal structure data generated from the
# MOF subset of the Cambridge Structural Database (CSD) v543 
# hosted by the Cambridge Crystallographic Data Centre (CCDC).
#
# This work is licensed under the Creative Commons
# Attribution-NonCommercial-ShareAlike 4.0 International License.
# To view a copy of this license, visit
# http://creativecommons.org/licenses/by-nc-sa/4.0/
# or send a letter to
# Creative Commons, PO Box 1866, Mountain View, CA 94042, USA.
#
# CIF created using the CSD Python API on 29 September 2022
# The structure has been converted into the P1 space group
# The structure has a 3D framework
# The original CSD entry NIRDOI is in the monoclinic crystal system
# The framework has been calculated to contain at least 10.0% void space
# The void calculation uses a probe of radius 1.32A, grid spacing 0.4
#
###############################################################################

data_NIRDOI
_chemical_formula_moiety         '(C176 H120 N8 O40 Zn14)n'
_symmetry_cell_setting           triclinic
_symmetry_space_group_name_H-M   'P 1'
_symmetry_Int_Tables_number      1
_space_group_name_Hall           'P 1'
loop_
_symmetry_equiv_pos_site_id
_symmetry_equiv_pos_as_xyz
1 x,y,z
_cell_length_a                   16.9840(18)
_cell_length_b                   16.3420(19)
_cell_length_c                   15.648(2)
_cell_angle_alpha                90
_cell_angle_beta                 103.230(2)
_cell_angle_gamma                90
_cell_volume                     4227.87
loop_
_atom_site_label
_atom_site_type_symbol
_atom_site_fract_x
_atom_site_fract_y
_atom_site_fract_z
Zn3 Zn 0.0000 0.0000 0.0000
H42 H 0.0177 0.0425 0.3082
H45 H 0.1654 0.0562 0.3561
H47 H 0.1186 0.0358 0.2006
O29 O 0.00100(17) 0.0879(2) 0.0951(2)
Zn3_2 Zn 0.0000 0.0000 1.0000
C1 C 0.3454(4) 0.0764(5) 0.2437(5)
H1 H 0.3469 0.0367 0.2015
C2 C 0.3122(5) 0.1505(5) 0.2152(6)
H2 H 0.2908 0.1581 0.1555
C3 C 0.3093(4) 0.2131(6) 0.2708(5)
H3 H 0.2908 0.2646 0.2503
C4 C 0.3380(4) 0.1954(4) 0.3688(7)
C5 C 0.3678(3) 0.1205(3) 0.3865(4)
H4 H 0.3865 0.1066 0.4453
C6 C 0.3468(3) 0.2352(4) 0.5104(4)
H5 H 0.3594 0.2850 0.5445
H6 H 0.3919 0.1977 0.5286
C7 C 0.2704(3) 0.1966(3) 0.5289(3)
C8 C 0.2716(4) 0.1238(4) 0.5702(4)
H7 H 0.3202 0.0956 0.5877
C9 C 0.2007(4) 0.0902(4) 0.5872(5)
H8 H 0.2032 0.0403 0.6163
C10 C 0.1280(3) 0.1295(3) 0.5618(3)
C11 C 0.1288(4) 0.2049(4) 0.5196(4)
H9 H 0.0810 0.2343 0.5018
C12 C 0.1994(4) 0.2360(4) 0.5042(4)
H10 H 0.1980 0.2860 0.4756
C13 C 0.0523(3) 0.0964(3) 0.5802(3)
C14 C 0.0526(4) 0.0317(4) 0.6390(4)
H11 H 0.1014 0.0087 0.6681
N1 N 0.3737(3) 0.0582(4) 0.3216(3)
O12 O 0.3363(3) 0.2546(3) 0.4148(4)
Zn8 Zn 0.55877(4) 0.04109(4) 0.63423(5)
Zn14 Zn 0.0000 0.5000 0.5000
C78 C 0.0615(2) 0.2838(3) 0.7074(3)
H55 H 0.0956 0.3063 0.6749
C82 C 0.0381(2) 0.1871(2) 0.8145(3)
C83 C 0.0881(2) 0.2202(2) 0.7655(3)
H58 H 0.1401 0.1997 0.7714
C84 C 0.0648(2) 0.1170(2) 0.8740(3)
O19 O 0.4497(3) 0.0051(2) 0.5702(3)
O22 O 0.01631(18) 0.0895(2) 0.9152(2)
O23 O 0.13438(17) 0.08897(19) 0.8784(2)
O27 O 0.00100(17) 0.4121(2) 0.5951(2)
Zn3_3 Zn 0.0000 1.0000 0.0000
C33 C 0.0473(2) 0.6200(2) 0.3665(3)
C35 C 0.0172(2) 0.6859(2) 0.3020(3)
C36 C 0.0659(3) 0.7180(3) 0.2498(3)
H26 H 0.1177 0.6972 0.2545
C37 C 0.0382(3) 0.7802(3) 0.1915(3)
H27 H 0.0708 0.8003 0.1560
O7 O 0.12076(17) 0.6012(2) 0.3767(2)
Zn10 Zn 0.17468(2) 0.50780(2) 0.44659(3)
C59 C 0.0193(5) 0.9982(4) 0.3458(5)
C60 C 0.0925(4) 0.9648(4) 0.3843(3)
C61 C 0.0934(4) 0.9009(5) 0.4394(4)
H43 H 0.1423 0.8761 0.4651
C62 C 0.0221(4) 0.8715(4) 0.4584(4)
H44 H 0.0251 0.8289 0.4984
C63 C 0.1698(4) 0.9975(4) 0.3647(4)
H46 H 0.2147 0.9869 0.4143
C64 C 0.1515(3) 0.9899(3) 0.2035(3)
C65 C 0.1641(2) 0.9558(2) 0.1265(3)
C66 C 0.2135(3) 0.8865(3) 0.1346(3)
H48 H 0.2235 0.8613 0.0849
C67 C 0.2474(3) 0.8557(4) 0.2173(4)
H49 H 0.2813 0.8104 0.2227
C68 C 0.2323(3) 0.8902(4) 0.2906(4)
H50 H 0.2536 0.8674 0.3455
N4 N 0.1863(3) 0.9574(3) 0.2830(2)
O33 O 0.12882(15) 0.98789(17) 0.05069(18)
Zn1 Zn 0.44123(4) 0.95891(4) 0.36577(5)
Zn3_4 Zn 0.0000 1.0000 1.0000
C25 C 0.4546(5) 0.8444(6) 0.2683(6)
C26 C 0.4502(4) 0.7723(4) 0.2067(4)
C27 C 0.4410(5) 0.7804(4) 0.1206(4)
H21 H 0.4417 0.8321 0.0961
C28 C 0.4304(5) 0.7119(4) 0.0672(4)
H22 H 0.4230 0.7185 0.0068
C29 C 0.4305(3) 0.6348(3) 0.1010(3)
C30 C 0.4219(3) 0.5622(4) 0.0417(4)
C31 C 0.4429(4) 0.6253(4) 0.1900(4)
H23 H 0.4442 0.5731 0.2139
C32 C 0.4537(4) 0.6931(4) 0.2447(4)
H24 H 0.4630 0.6868 0.3053
O1 O 0.4434(5) 0.9136(4) 0.2414(5)
O2 O 0.4606(6) 0.8345(4) 0.3449(5)
O4 O 0.4497(3) 0.4949(2) 0.0702(3)
Zn6 Zn 0.55877(4) 0.45891(4) 0.13423(5)
Zn7 Zn 0.44123(4) 0.54109(4) 0.86577(5)
Zn9 Zn 0.17468(2) 0.99220(2) 0.94659(3)
C69 C 0.4546(5) 0.6556(6) 0.7683(6)
C70 C 0.4502(4) 0.7277(4) 0.7067(4)
C71 C 0.4410(5) 0.7196(4) 0.6206(4)
H51 H 0.4417 0.6679 0.5961
C72 C 0.4304(5) 0.7881(4) 0.5672(4)
H52 H 0.4230 0.7815 0.5068
C73 C 0.4305(3) 0.8652(3) 0.6010(3)
C74 C 0.4219(3) 0.9378(4) 0.5417(4)
C75 C 0.4429(4) 0.8747(4) 0.6900(4)
H53 H 0.4442 0.9269 0.7139
C76 C 0.4537(4) 0.8069(4) 0.7447(4)
H54 H 0.4630 0.8132 0.8053
O13 O 0.4434(5) 0.5864(4) 0.7414(5)
O15 O 0.4606(6) 0.6655(4) 0.8449(5)
O17 O 0.3874(3) 0.9270(3) 0.4609(3)
O20 O 0.5503(3) 0.9949(2) 0.4298(3)
O26 O 0.12076(17) 0.8988(2) 0.8767(2)
O32 O 0.28428(19) 0.9573(2) 0.9422(3)
O3 O 0.3874(3) 0.5730(3) 0.9609(3)
Zn2 Zn 0.82532(2) 0.00780(2) 0.05341(3)
Zn3_5 Zn 1.0000 0.0000 0.0000
C43 C 0.5530(3) 0.0446(4) 0.0617(4)
H29 H 0.5885 0.0748 0.1043
O10 O 0.71572(19) 0.0427(2) 0.0578(3)
C88 C 0.4696(3) 0.0490(4) 0.0552(4)
H60 H 0.4494 0.0831 0.0928
O14 O 0.5566(5) 0.0864(4) 0.7586(5)
O16 O 0.5394(6) 0.1655(4) 0.6551(5)
O18 O 0.6126(3) 0.0730(3) 0.5391(3)
O25 O 0.87924(17) 0.1012(2) 0.1233(2)
O30 O 0.3005(2) 0.0593(3) 0.0336(3)
Zn3_6 Zn 1.0000 0.0000 1.0000
C15 C 0.9807(5) 0.0018(4) 0.6542(5)
C16 C 0.9075(4) 0.0352(4) 0.6157(3)
C17 C 0.9066(4) 0.0991(5) 0.5606(4)
H13 H 0.8577 0.1239 0.5349
C18 C 0.9779(4) 0.1285(4) 0.5416(4)
H14 H 0.9749 0.1711 0.5016
C19 C 0.8302(4) 0.0025(4) 0.6353(4)
H16 H 0.7853 0.0131 0.5857
C20 C 0.8485(3) 0.0101(3) 0.7965(3)
C21 C 0.8359(2) 0.0442(2) 0.8735(3)
C22 C 0.7865(3) 0.1135(3) 0.8654(3)
H18 H 0.7765 0.1387 0.9151
C23 C 0.7526(3) 0.1443(4) 0.7827(4)
H19 H 0.7187 0.1896 0.7773
C24 C 0.7677(3) 0.1098(4) 0.7094(4)
H20 H 0.7464 0.1326 0.6545
N2 N 0.8137(3) 0.0426(3) 0.7170(2)
O11 O 0.87118(15) 0.01211(17) 0.94931(18)
Zn12 Zn 0.82532(2) 0.49220(2) 0.55341(3)
Zn14_2 Zn 1.0000 0.5000 0.5000
C77 C 0.9527(2) 0.3800(2) 0.6335(3)
C79 C 0.9828(2) 0.3141(2) 0.6980(3)
C80 C 0.9341(3) 0.2820(3) 0.7502(3)
H56 H 0.8823 0.3028 0.7455
C81 C 0.9618(3) 0.2198(3) 0.8085(3)
H57 H 0.9292 0.1997 0.8440
C85 C 0.3287(3) 0.0084(3) 0.9892(4)
C86 C 0.4183(3) 0.0042(3) 0.9948(4)
O24 O 0.87924(17) 0.3988(2) 0.6233(2)
Zn3_7 Zn 1.0000 1.0000 0.0000
C34 C 0.9385(2) 0.7162(3) 0.2926(3)
H25 H 0.9044 0.6937 0.3251
C38 C 0.9619(2) 0.8129(2) 0.1855(3)
C39 C 0.9119(2) 0.7798(2) 0.2345(3)
H28 H 0.8599 0.8003 0.2286
C40 C 0.9352(2) 0.8830(2) 0.1260(3)
C41 C 0.6713(3) 0.9916(3) 0.0108(4)
C42 C 0.5817(3) 0.9958(3) 0.0052(4)
O5 O 0.98369(18) 0.9105(2) 0.0848(2)
O6 O 0.86562(17) 0.91103(19) 0.1216(2)
O8 O 0.99900(17) 0.5879(2) 0.4049(2)
C45 C 0.6546(4) 0.9236(5) 0.7563(5)
H31 H 0.6531 0.9633 0.7985
C46 C 0.6878(5) 0.8495(5) 0.7848(6)
H32 H 0.7092 0.8419 0.8445
C47 C 0.6907(4) 0.7869(6) 0.7292(5)
H33 H 0.7092 0.7354 0.7497
C48 C 0.6620(4) 0.8046(4) 0.6312(7)
C49 C 0.6322(3) 0.8795(3) 0.6135(4)
H34 H 0.6135 0.8934 0.5547
C50 C 0.6532(3) 0.7648(4) 0.4896(4)
H35 H 0.6406 0.7150 0.4555
H36 H 0.6081 0.8023 0.4714
C51 C 0.7296(3) 0.8034(3) 0.4711(3)
C52 C 0.7284(4) 0.8762(4) 0.4298(4)
H37 H 0.6798 0.9044 0.4123
C53 C 0.7993(4) 0.9098(4) 0.4128(5)
H38 H 0.7968 0.9597 0.3837
C54 C 0.8720(3) 0.8705(3) 0.4382(3)
C55 C 0.8712(4) 0.7951(4) 0.4804(4)
H39 H 0.9190 0.7657 0.4982
C56 C 0.8006(4) 0.7640(4) 0.4958(4)
H40 H 0.8020 0.7140 0.5244
C57 C 0.9477(3) 0.9036(3) 0.4198(3)
C58 C 0.9474(4) 0.9683(4) 0.3610(4)
H41 H 0.8986 0.9913 0.3319
N3 N 0.6263(3) 0.9418(4) 0.6784(3)
O34 O 0.6637(3) 0.7454(3) 0.5852(4)
Zn3_8 Zn 1.0000 1.0000 1.0000
H12 H 0.9823 0.9575 0.6918
H15 H 0.8346 0.9438 0.6439
H17 H 0.8814 0.9642 0.7994
C44 C 0.5304(3) 0.9510(4) 0.9448(4)
H30 H 0.5506 0.9169 0.9072
O9 O 0.6995(2) 0.9407(3) 0.9664(3)
C87 C 0.4470(3) 0.9554(4) 0.9383(4)
H59 H 0.4115 0.9252 0.8957
O28 O 0.99900(17) 0.9121(2) 0.9049(2)
C15_2 C 0.0193(5) 0.5018(4) 0.8458(5)
H12_2 H 0.0177 0.4575 0.8082
C16_2 C 0.0925(4) 0.5352(4) 0.8843(3)
C17_2 C 0.0934(4) 0.5991(5) 0.9394(4)
H13_2 H 0.1423 0.6239 0.9651
C18_2 C 0.0221(4) 0.6285(4) 0.9584(4)
H14_2 H 0.0251 0.6711 0.9984
C19_2 C 0.1698(4) 0.5025(4) 0.8647(4)
H15_2 H 0.1654 0.4438 0.8561
H16_2 H 0.2147 0.5131 0.9143
C20_2 C 0.1515(3) 0.5101(3) 0.7035(3)
H17_2 H 0.1186 0.4642 0.7006
C21_2 C 0.1641(2) 0.5442(2) 0.6265(3)
C22_2 C 0.2135(3) 0.6135(3) 0.6346(3)
H18_2 H 0.2235 0.6387 0.5849
C23_2 C 0.2474(3) 0.6443(4) 0.7173(4)
H19_2 H 0.2813 0.6896 0.7227
C24_2 C 0.2323(3) 0.6098(4) 0.7906(4)
H20_2 H 0.2536 0.6326 0.8455
C34_2 C 0.0615(2) 0.2162(3) 0.2074(3)
H25_2 H 0.0956 0.1937 0.1749
C38_2 C 0.0381(2) 0.3129(2) 0.3145(3)
C39_2 C 0.0881(2) 0.2798(2) 0.2655(3)
H28_2 H 0.1401 0.3003 0.2714
C40_2 C 0.0648(2) 0.3830(2) 0.3740(3)
C41_2 C 0.3287(3) 0.4916(3) 0.4892(4)
C42_2 C 0.4183(3) 0.4958(3) 0.4948(4)
C43_2 C 0.4470(3) 0.5446(4) 0.4383(4)
H29_2 H 0.4115 0.5748 0.3957
C44_2 C 0.4696(3) 0.4510(4) 0.5552(4)
H30_2 H 0.4494 0.4169 0.5928
N2_2 N 0.1863(3) 0.5426(3) 0.7830(2)
O5_2 O 0.01631(18) 0.4105(2) 0.4152(2)
O6_2 O 0.13438(17) 0.41103(19) 0.3784(2)
O9_2 O 0.3005(2) 0.4407(3) 0.5336(3)
O10_2 O 0.28428(19) 0.5427(2) 0.4422(3)
O11_2 O 0.12882(15) 0.51211(17) 0.55069(18)
C50_2 C 0.3468(3) 0.2648(4) 0.0104(4)
H35_2 H 0.3594 0.2150 0.0445
H36_2 H 0.3919 0.3023 0.0286
C51_2 C 0.2704(3) 0.3034(3) 0.0289(3)
C52_2 C 0.2716(4) 0.3762(4) 0.0702(4)
H37_2 H 0.3202 0.4044 0.0877
C53_2 C 0.2007(4) 0.4098(4) 0.0872(5)
H38_2 H 0.2032 0.4597 0.1163
C54_2 C 0.1280(3) 0.3705(3) 0.0618(3)
C55_2 C 0.1288(4) 0.2951(4) 0.0196(4)
H39_2 H 0.0810 0.2657 0.0018
C56_2 C 0.1994(4) 0.2640(4) 0.0042(4)
C57_2 C 0.0523(3) 0.4036(3) 0.0802(3)
C58_2 C 0.0526(4) 0.4683(4) 0.1390(4)
H41_2 H 0.1014 0.4913 0.1681
C77_2 C 0.0473(2) 0.8800(2) 0.8665(3)
C79_2 C 0.0172(2) 0.8141(2) 0.8020(3)
C80_2 C 0.0659(3) 0.7820(3) 0.7498(3)
H56_2 H 0.1177 0.8028 0.7545
C81_2 C 0.0382(3) 0.7198(3) 0.6915(3)
H57_2 H 0.0708 0.6997 0.6560
C85_2 C 0.6713(3) 0.5084(3) 0.5108(4)
C86_2 C 0.5817(3) 0.5042(3) 0.5052(4)
C87_2 C 0.5530(3) 0.4554(4) 0.5617(4)
H59_2 H 0.5885 0.4252 0.6043
C88_2 C 0.5304(3) 0.5490(4) 0.4448(4)
H60_2 H 0.5506 0.5831 0.4072
O30_2 O 0.6995(2) 0.5593(3) 0.4664(3)
O31 O 0.71572(19) 0.4573(2) 0.5578(3)
C45_2 C 0.3454(4) 0.4236(5) 0.7437(5)
H31_2 H 0.3469 0.4633 0.7015
C46_2 C 0.3122(5) 0.3495(5) 0.7152(6)
H32_2 H 0.2908 0.3419 0.6555
C47_2 C 0.3093(4) 0.2869(6) 0.7708(5)
H33_2 H 0.2908 0.2354 0.7503
C48_2 C 0.3380(4) 0.3046(4) 0.8688(7)
C49_2 C 0.3678(3) 0.3795(3) 0.8865(4)
H34_2 H 0.3865 0.3934 0.9453
H40_2 H 0.1980 0.2140 0.9756
N3_2 N 0.3737(3) 0.4418(4) 0.8216(3)
O21 O 0.5503(3) 0.5051(2) 0.9298(3)
O34_2 O 0.3363(3) 0.2454(3) 0.9148(4)
C1_2 C 0.6546(4) 0.5764(5) 0.2563(5)
H1_2 H 0.6531 0.5367 0.2985
C2_2 C 0.6878(5) 0.6505(5) 0.2848(6)
H2_2 H 0.7092 0.6581 0.3445
C3_2 C 0.6907(4) 0.7131(6) 0.2292(5)
H3_2 H 0.7092 0.7646 0.2497
C4_2 C 0.6620(4) 0.6954(4) 0.1312(7)
C5_2 C 0.6322(3) 0.6205(3) 0.1135(4)
H4_2 H 0.6135 0.6066 0.0547
H10_2 H 0.8020 0.7860 0.0244
C25_2 C 0.5454(5) 0.3444(6) 0.2317(6)
C26_2 C 0.5498(4) 0.2723(4) 0.2933(4)
C27_2 C 0.5590(5) 0.2804(4) 0.3794(4)
H21_2 H 0.5583 0.3321 0.4039
C28_2 C 0.5696(5) 0.2119(4) 0.4328(4)
H22_2 H 0.5770 0.2185 0.4932
C29_2 C 0.5695(3) 0.1348(3) 0.3990(3)
C30_2 C 0.5781(3) 0.0622(4) 0.4583(4)
C31_2 C 0.5571(4) 0.1253(4) 0.3100(4)
H23_2 H 0.5558 0.0731 0.2861
C32_2 C 0.5463(4) 0.1931(4) 0.2553(4)
H24_2 H 0.5370 0.1868 0.1947
N1_2 N 0.6263(3) 0.5582(4) 0.1784(3)
O1_2 O 0.5566(5) 0.4136(4) 0.2586(5)
O2_2 O 0.5394(6) 0.3345(4) 0.1551(5)
O12_2 O 0.6637(3) 0.7546(3) 0.0852(4)
O17_2 O 0.6126(3) 0.4270(3) 0.0391(3)
C6_2 C 0.6532(3) 0.7352(4) 0.9896(4)
H5_2 H 0.6406 0.7850 0.9555
H6_2 H 0.6081 0.6977 0.9714
C7_2 C 0.7296(3) 0.6966(3) 0.9711(3)
C8_2 C 0.7284(4) 0.6238(4) 0.9298(4)
H7_2 H 0.6798 0.5956 0.9123
C9_2 C 0.7993(4) 0.5902(4) 0.9128(5)
H8_2 H 0.7968 0.5403 0.8837
C10_2 C 0.8720(3) 0.6295(3) 0.9382(3)
C11_2 C 0.8712(4) 0.7049(4) 0.9804(4)
H9_2 H 0.9190 0.7343 0.9982
C12_2 C 0.8006(4) 0.7360(4) 0.9958(4)
C13_2 C 0.9477(3) 0.5964(3) 0.9198(3)
C14_2 C 0.9474(4) 0.5317(4) 0.8610(4)
H11_2 H 0.8986 0.5087 0.8319
C33_2 C 0.9527(2) 0.1200(2) 0.1335(3)
C35_2 C 0.9828(2) 0.1859(2) 0.1980(3)
C36_2 C 0.9341(3) 0.2180(3) 0.2502(3)
H26_2 H 0.8823 0.1972 0.2455
C37_2 C 0.9618(3) 0.2802(3) 0.3085(3)
H27_2 H 0.9292 0.3003 0.3440
C59_2 C 0.9807(5) 0.4982(4) 0.1542(5)
H42_2 H 0.9823 0.5425 0.1918
C60_2 C 0.9075(4) 0.4648(4) 0.1157(3)
C61_2 C 0.9066(4) 0.4009(5) 0.0606(4)
H43_2 H 0.8577 0.3761 0.0349
C62_2 C 0.9779(4) 0.3715(4) 0.0416(4)
H44_2 H 0.9749 0.3289 0.0016
C63_2 C 0.8302(4) 0.4975(4) 0.1353(4)
H45_2 H 0.8346 0.5562 0.1439
H46_2 H 0.7853 0.4869 0.0857
C64_2 C 0.8485(3) 0.4899(3) 0.2965(3)
H47_2 H 0.8814 0.5358 0.2994
C65_2 C 0.8359(2) 0.4558(2) 0.3735(3)
C66_2 C 0.7865(3) 0.3865(3) 0.3654(3)
H48_2 H 0.7765 0.3613 0.4151
C67_2 C 0.7526(3) 0.3557(4) 0.2827(4)
H49_2 H 0.7187 0.3104 0.2773
C68_2 C 0.7677(3) 0.3902(4) 0.2094(4)
H50_2 H 0.7464 0.3674 0.1545
C69_2 C 0.5454(5) 0.1556(6) 0.7317(6)
C70_2 C 0.5498(4) 0.2277(4) 0.7933(4)
C71_2 C 0.5590(5) 0.2196(4) 0.8794(4)
H51_2 H 0.5583 0.1679 0.9039
C72_2 C 0.5696(5) 0.2881(4) 0.9328(4)
H52_2 H 0.5770 0.2815 0.9932
C73_2 C 0.5695(3) 0.3652(3) 0.8990(3)
C74_2 C 0.5781(3) 0.4378(4) 0.9583(4)
C75_2 C 0.5571(4) 0.3747(4) 0.8100(4)
H53_2 H 0.5558 0.4269 0.7861
C76_2 C 0.5463(4) 0.3069(4) 0.7553(4)
H54_2 H 0.5370 0.3132 0.6947
C78_2 C 0.9385(2) 0.7838(3) 0.7926(3)
H55_2 H 0.9044 0.8063 0.8251
C82_2 C 0.9619(2) 0.6871(2) 0.6855(3)
C83_2 C 0.9119(2) 0.7202(2) 0.7345(3)
H58_2 H 0.8599 0.6997 0.7286
C84_2 C 0.9352(2) 0.6170(2) 0.6260(3)
N4_2 N 0.8137(3) 0.4574(3) 0.2170(2)
O22_2 O 0.98369(18) 0.5895(2) 0.5848(2)
O23_2 O 0.86562(17) 0.58897(19) 0.6216(2)
O33_2 O 0.87118(15) 0.48789(17) 0.44931(18)
loop_
_geom_bond_atom_site_label_1
_geom_bond_atom_site_label_2
_geom_bond_site_symmetry_1
_geom_bond_site_symmetry_2
O29 Zn3 1_555 1_555
C1 H1 1_555 1_555
C2 C1 1_555 1_555
H2 C2 1_555 1_555
C3 C2 1_555 1_555
H3 C3 1_555 1_555
C4 C3 1_555 1_555
C5 C4 1_555 1_555
H4 C5 1_555 1_555
C6 H5 1_555 1_555
H6 C6 1_555 1_555
C7 C6 1_555 1_555
C8 C7 1_555 1_555
H7 C8 1_555 1_555
C9 C8 1_555 1_555
H8 C9 1_555 1_555
C10 C9 1_555 1_555
C11 C10 1_555 1_555
H9 C11 1_555 1_555
C12 C7 1_555 1_555
H10 C12 1_555 1_555
C13 C10 1_555 1_555
C14 C13 1_555 1_555
H11 C14 1_555 1_555
N1 C1 1_555 1_555
O12 C4 1_555 1_555
Zn8 O19 1_555 1_555
Zn14 O27 1_555 1_555
C78 H55 1_555 1_555
C83 C78 1_555 1_555
H58 C83 1_555 1_555
C84 C82 1_555 1_555
O22 Zn3_2 1_555 1_555
O23 C84 1_555 1_555
C5 N1 1_555 1_555
C6 O12 1_555 1_555
C11 C12 1_555 1_555
C82 C83 1_555 1_555
C84 O22 1_555 1_555
C33 C35 1_555 1_555
C36 C35 1_555 1_555
H26 C36 1_555 1_555
C37 C36 1_555 1_555
H27 C37 1_555 1_555
O7 C33 1_555 1_555
Zn10 O7 1_555 1_555
C60 C59 1_555 1_555
C61 C60 1_555 1_555
H43 C61 1_555 1_555
H44 C62 1_555 1_555
C63 C60 1_555 1_555
H46 C63 1_555 1_555
C65 C64 1_555 1_555
C66 C65 1_555 1_555
H48 C66 1_555 1_555
C67 C66 1_555 1_555
H49 C67 1_555 1_555
C68 C67 1_555 1_555
H50 C68 1_555 1_555
N4 C63 1_555 1_555
O33 Zn3_3 1_555 1_555
C61 C62 1_555 1_555
C64 N4 1_555 1_555
C65 O33 1_555 1_555
C68 N4 1_555 1_555
C25 C26 1_555 1_555
C26 C27 1_555 1_555
C27 H21 1_555 1_555
C28 C27 1_555 1_555
H22 C28 1_555 1_555
C29 C28 1_555 1_555
C30 C29 1_555 1_555
C31 C29 1_555 1_555
H23 C31 1_555 1_555
C32 C26 1_555 1_555
H24 C32 1_555 1_555
O1 Zn1 1_555 1_555
O2 Zn1 1_555 1_555
O4 C30 1_555 1_555
Zn6 O4 1_555 1_555
Zn7 O13 1_555 1_555
C69 C70 1_555 1_555
C70 C71 1_555 1_555
C71 H51 1_555 1_555
C72 C71 1_555 1_555
H52 C72 1_555 1_555
C73 C72 1_555 1_555
C74 C73 1_555 1_555
C75 C73 1_555 1_555
H53 C75 1_555 1_555
C76 C70 1_555 1_555
H54 C76 1_555 1_555
O13 C69 1_555 1_555
O15 Zn7 1_555 1_555
O17 Zn1 1_555 1_555
O20 Zn1 1_555 1_555
O26 Zn9 1_555 1_555
O32 Zn9 1_555 1_555
C25 O1 1_555 1_555
C25 O2 1_555 1_555
C31 C32 1_555 1_555
C69 O15 1_555 1_555
C74 O17 1_555 1_555
C75 C76 1_555 1_555
Zn7 O3 1_555 1_555
C43 H29 1_555 1_555
O10 Zn2 1_555 1_555
C88 C43 1_555 1_555
H60 C88 1_555 1_555
O14 Zn8 1_555 1_555
O16 Zn8 1_555 1_555
O18 Zn8 1_555 1_555
O25 Zn2 1_555 1_555
C16 C15 1_555 1_555
C17 C16 1_555 1_555
H13 C17 1_555 1_555
H14 C18 1_555 1_555
C19 C16 1_555 1_555
H16 C19 1_555 1_555
C21 C20 1_555 1_555
C22 C21 1_555 1_555
H18 C22 1_555 1_555
C23 C22 1_555 1_555
H19 C23 1_555 1_555
C24 C23 1_555 1_555
H20 C24 1_555 1_555
N2 C19 1_555 1_555
Zn12 O24 1_555 1_555
C77 C79 1_555 1_555
C80 C79 1_555 1_555
H56 C80 1_555 1_555
C81 C80 1_555 1_555
H57 C81 1_555 1_555
C85 C86 1_555 1_555
O24 C77 1_555 1_555
Zn3_6 O11 1_555 1_555
C17 C18 1_555 1_555
C20 N2 1_555 1_555
C21 O11 1_555 1_555
C24 N2 1_555 1_555
Zn3_7 O5 1_555 1_555
C34 H25 1_555 1_555
C39 C34 1_555 1_555
H28 C39 1_555 1_555
C40 C38 1_555 1_555
C41 C42 1_555 1_555
O5 C40 1_555 1_555
O6 C40 1_555 1_555
Zn14_2 O8 1_555 1_555
C45 H31 1_555 1_555
C46 C45 1_555 1_555
H32 C46 1_555 1_555
C47 C46 1_555 1_555
H33 C47 1_555 1_555
C48 C47 1_555 1_555
C49 C48 1_555 1_555
H34 C49 1_555 1_555
C50 H35 1_555 1_555
H36 C50 1_555 1_555
C51 C50 1_555 1_555
C52 C51 1_555 1_555
H37 C52 1_555 1_555
C53 C52 1_555 1_555
H38 C53 1_555 1_555
C54 C53 1_555 1_555
C55 C54 1_555 1_555
H39 C55 1_555 1_555
C56 C51 1_555 1_555
H40 C56 1_555 1_555
C57 C54 1_555 1_555
C58 C57 1_555 1_555
H41 C58 1_555 1_555
N3 C45 1_555 1_555
O34 C48 1_555 1_555
C38 C39 1_555 1_555
C49 N3 1_555 1_555
C50 O34 1_555 1_555
C55 C56 1_555 1_555
H30 C44 1_555 1_555
C87 C44 1_555 1_555
H59 C87 1_555 1_555
O28 Zn3_8 1_555 1_555
Zn10 O6_2 1_555 1_555
Zn14 O5_2 1_555 1_555
H12_2 C15_2 1_555 1_555
C16_2 C15_2 1_555 1_555
C17_2 C16_2 1_555 1_555
H13_2 C17_2 1_555 1_555
H14_2 C18_2 1_555 1_555
C19_2 C16_2 1_555 1_555
H15_2 C19_2 1_555 1_555
H16_2 C19_2 1_555 1_555
C20_2 H17_2 1_555 1_555
C21_2 C20_2 1_555 1_555
C22_2 C21_2 1_555 1_555
H18_2 C22_2 1_555 1_555
C23_2 C22_2 1_555 1_555
H19_2 C23_2 1_555 1_555
C24_2 C23_2 1_555 1_555
H20_2 C24_2 1_555 1_555
C34_2 H25_2 1_555 1_555
C39_2 C34_2 1_555 1_555
H28_2 C39_2 1_555 1_555
C40_2 C38_2 1_555 1_555
C41_2 C42_2 1_555 1_555
C42_2 C43_2 1_555 1_555
C43_2 H29_2 1_555 1_555
C44_2 C42_2 1_555 1_555
H30_2 C44_2 1_555 1_555
N2_2 C19_2 1_555 1_555
O5_2 C40_2 1_555 1_555
O6_2 C40_2 1_555 1_555
O9_2 C41_2 1_555 1_555
O10_2 Zn10 1_555 1_555
O11_2 Zn10 1_555 1_555
Zn12 O31 1_555 1_555
C50_2 H35_2 1_555 1_555
H36_2 C50_2 1_555 1_555
C51_2 C50_2 1_555 1_555
C52_2 C51_2 1_555 1_555
H37_2 C52_2 1_555 1_555
C53_2 C52_2 1_555 1_555
H38_2 C53_2 1_555 1_555
C54_2 C53_2 1_555 1_555
C55_2 C54_2 1_555 1_555
H39_2 C55_2 1_555 1_555
C56_2 C51_2 1_555 1_555
C57_2 C54_2 1_555 1_555
C58_2 C57_2 1_555 1_555
H41_2 C58_2 1_555 1_555
C77_2 C79_2 1_555 1_555
C80_2 C79_2 1_555 1_555
H56_2 C80_2 1_555 1_555
C81_2 C80_2 1_555 1_555
H57_2 C81_2 1_555 1_555
C85_2 C86_2 1_555 1_555
C86_2 C87_2 1_555 1_555
C87_2 C44_2 1_555 1_555
H59_2 C87_2 1_555 1_555
C88_2 C43_2 1_555 1_555
H60_2 C88_2 1_555 1_555
O26 C77_2 1_555 1_555
O30_2 C85_2 1_555 1_555
O31 C85_2 1_555 1_555
Zn14 O11_2 1_555 1_555
C17_2 C18_2 1_555 1_555
C20_2 N2_2 1_555 1_555
C21_2 O11_2 1_555 1_555
C24_2 N2_2 1_555 1_555
C38_2 C39_2 1_555 1_555
C41_2 O10_2 1_555 1_555
C55_2 C56_2 1_555 1_555
C86_2 C88_2 1_555 1_555
Zn7 N3_2 1_555 1_555
C45_2 H31_2 1_555 1_555
C46_2 C45_2 1_555 1_555
H32_2 C46_2 1_555 1_555
C47_2 C46_2 1_555 1_555
H33_2 C47_2 1_555 1_555
C48_2 C47_2 1_555 1_555
C49_2 C48_2 1_555 1_555
H34_2 C49_2 1_555 1_555
N3_2 C45_2 1_555 1_555
O21 Zn7 1_555 1_555
O34_2 C48_2 1_555 1_555
C49_2 N3_2 1_555 1_555
Zn6 N1_2 1_555 1_555
C1_2 H1_2 1_555 1_555
C2_2 C1_2 1_555 1_555
H2_2 C2_2 1_555 1_555
C3_2 C2_2 1_555 1_555
H3_2 C3_2 1_555 1_555
C4_2 C3_2 1_555 1_555
C5_2 C4_2 1_555 1_555
H4_2 C5_2 1_555 1_555
C25_2 C26_2 1_555 1_555
C26_2 C27_2 1_555 1_555
C27_2 H21_2 1_555 1_555
C28_2 C27_2 1_555 1_555
H22_2 C28_2 1_555 1_555
C29_2 C28_2 1_555 1_555
C30_2 C29_2 1_555 1_555
C31_2 C29_2 1_555 1_555
H23_2 C31_2 1_555 1_555
C32_2 C26_2 1_555 1_555
H24_2 C32_2 1_555 1_555
N1_2 C1_2 1_555 1_555
O1_2 Zn6 1_555 1_555
O2_2 Zn6 1_555 1_555
O18 C30_2 1_555 1_555
O12_2 C4_2 1_555 1_555
O17_2 Zn6 1_555 1_555
C5_2 N1_2 1_555 1_555
C25_2 O1_2 1_555 1_555
C25_2 O2_2 1_555 1_555
C31_2 C32_2 1_555 1_555
C6_2 H5_2 1_555 1_555
H6_2 C6_2 1_555 1_555
C7_2 C6_2 1_555 1_555
C8_2 C7_2 1_555 1_555
H7_2 C8_2 1_555 1_555
C9_2 C8_2 1_555 1_555
H8_2 C9_2 1_555 1_555
C10_2 C9_2 1_555 1_555
C11_2 C10_2 1_555 1_555
H9_2 C11_2 1_555 1_555
C12_2 C7_2 1_555 1_555
C13_2 C10_2 1_555 1_555
C14_2 C13_2 1_555 1_555
H11_2 C14_2 1_555 1_555
C33_2 C35_2 1_555 1_555
C36_2 C35_2 1_555 1_555
H26_2 C36_2 1_555 1_555
C37_2 C36_2 1_555 1_555
H27_2 C37_2 1_555 1_555
O25 C33_2 1_555 1_555
Zn12 O23_2 1_555 1_555
H42_2 C59_2 1_555 1_555
C60_2 C59_2 1_555 1_555
C61_2 C60_2 1_555 1_555
H43_2 C61_2 1_555 1_555
H44_2 C62_2 1_555 1_555
C63_2 C60_2 1_555 1_555
H45_2 C63_2 1_555 1_555
H46_2 C63_2 1_555 1_555
C64_2 H47_2 1_555 1_555
C65_2 C64_2 1_555 1_555
C66_2 C65_2 1_555 1_555
H48_2 C66_2 1_555 1_555
C67_2 C66_2 1_555 1_555
H49_2 C67_2 1_555 1_555
C68_2 C67_2 1_555 1_555
H50_2 C68_2 1_555 1_555
C69_2 C70_2 1_555 1_555
C70_2 C71_2 1_555 1_555
C71_2 H51_2 1_555 1_555
C72_2 C71_2 1_555 1_555
H52_2 C72_2 1_555 1_555
C73_2 C72_2 1_555 1_555
C74_2 C73_2 1_555 1_555
C75_2 C73_2 1_555 1_555
H53_2 C75_2 1_555 1_555
C76_2 C70_2 1_555 1_555
H54_2 C76_2 1_555 1_555
C78_2 H55_2 1_555 1_555
C83_2 C78_2 1_555 1_555
H58_2 C83_2 1_555 1_555
C84_2 C82_2 1_555 1_555
N4_2 C63_2 1_555 1_555
O14 C69_2 1_555 1_555
O21 C74_2 1_555 1_555
O22_2 Zn14_2 1_555 1_555
O23_2 C84_2 1_555 1_555
O33_2 Zn14_2 1_555 1_555
C11_2 C12_2 1_555 1_555
Zn12 O33_2 1_555 1_555
C61_2 C62_2 1_555 1_555
C64_2 N4_2 1_555 1_555
C65_2 O33_2 1_555 1_555
C68_2 N4_2 1_555 1_555
C69_2 O16 1_555 1_555
C75_2 C76_2 1_555 1_555
C82_2 C83_2 1_555 1_555
C84_2 O22_2 1_555 1_555

#END
