
###############################################################################
#
# This file contains modified crystal structure data generated from the
# MOF subset of the Cambridge Structural Database (CSD) v543 
# hosted by the Cambridge Crystallographic Data Centre (CCDC).
#
# This work is licensed under the Creative Commons
# Attribution-NonCommercial-ShareAlike 4.0 International License.
# To view a copy of this license, visit
# http://creativecommons.org/licenses/by-nc-sa/4.0/
# or send a letter to
# Creative Commons, PO Box 1866, Mountain View, CA 94042, USA.
#
# CIF created using the CSD Python API on 29 September 2022
# The structure has been converted into the P1 space group
# The structure has a 3D framework
# The original CSD entry NIRGAY is in the triclinic crystal system
# The framework has been calculated to contain at least 10.0% void space
# The void calculation uses a probe of radius 1.32A, grid spacing 0.4
# H atom positions have been added when not included in the experimental data
#
###############################################################################

data_NIRGAY
_chemical_formula_moiety         '(C144 H144 Mn6 N4 O44)n'
_symmetry_cell_setting           triclinic
_symmetry_space_group_name_H-M   'P 1'
_symmetry_Int_Tables_number      1
_space_group_name_Hall           'P 1'
loop_
_symmetry_equiv_pos_site_id
_symmetry_equiv_pos_as_xyz
1 x,y,z
_cell_length_a                   16.1796(15)
_cell_length_b                   19.1505(17)
_cell_length_c                   19.5848(12)
_cell_angle_alpha                112.451(2)
_cell_angle_beta                 93.548(3)
_cell_angle_gamma                104.215(2)
_cell_volume                     5353.95
loop_
_atom_site_label
_atom_site_type_symbol
_atom_site_fract_x
_atom_site_fract_y
_atom_site_fract_z
O7 O 0.05460(18) 0.87632(17) 0.00664(14)
Mn9 Mn 0.21415(3) 0.88145(3) 0.09345(2)
C16 C 0.0545(2) 0.6496(2) 0.29623(19)
C17 C 0.0111(2) 0.6767(2) 0.25379(19)
C18 C 0.0572(2) 0.7148(2) 0.21360(19)
H10 H 0.0274 0.7328 0.1849
C19 C 0.1444(2) 0.72683(19) 0.21462(18)
C20 C 0.1876(2) 0.6995(2) 0.25801(19)
H11 H 0.2468 0.7069 0.2601
C21 C 0.1433(2) 0.6615(2) 0.29826(19)
H12 H 0.1733 0.6436 0.3271
C22 C 0.1951(2) 0.77206(19) 0.17396(18)
H14 H 0.0348 0.6352 0.6070
C27 C 0.0459(2) 0.7845(2) 0.88095(18)
C28 C 0.0836(2) 0.7358(2) 0.83244(18)
H17 H 0.1342 0.7295 0.8511
C29 C 0.0509(2) 0.6945(2) 0.75602(18)
H18 H 0.0816 0.6648 0.7241
C30 C 0.0867(3) 0.8297(2) 0.9633(2)
C32 C 0.0046(2) 0.69323(19) 0.51106(19)
H22 H 0.0566 0.6942 0.4899
H23 H 0.0189 0.7128 0.5646
O4 O 0.15438(13) 0.79746(12) 0.13695(11)
O5 O 0.27643(13) 0.78190(11) 0.18183(11)
O6 O 0.01728(14) 0.61082(14) 0.33718(13)
O8 O 0.15229(16) 0.81665(14) 0.98273(13)
Mn6 Mn 0.38596(3) 0.88711(3) 0.21689(2)
C34 C 0.3957(2) 0.81982(19) 0.06724(17)
H31 H 0.4828 0.7171 0.0044
C67 C 0.6947(3) 0.9242(2) 0.1034(2)
H55 H 0.7515 0.9281 0.1197
C69 C 0.5937(3) 0.9928(2) 0.0712(2)
H59 H 0.5771 0.9615 0.0181
H61 H 0.5529 0.9715 0.0969
Mn3 Mn 0.57313(3) 0.82291(3) 0.17399(3)
N1 N 0.6807(2) 0.99140(19) 0.09653(18)
O1 O 0.60701(15) 0.94617(14) 0.23939(13)
O2 O 0.49126(13) 0.99014(11) 0.24959(11)
O10 O 0.44464(14) 0.81725(13) 0.11778(11)
O11 O 0.34416(14) 0.86129(13) 0.08426(11)
O19 O 0.63589(14) 0.85637(12) 0.08918(11)
O20 O 0.28022(16) 0.98207(15) 0.06727(14)
O21 O 0.70226(17) 0.83058(16) 0.22635(14)
O22 O 0.55931(15) 0.70099(13) 0.10808(12)
O26 O 0.30129(14) 0.95948(12) 0.23720(11)
O27 O 0.18736(17) 0.97625(14) 0.18778(13)
O28 O 0.51063(17) 0.79001(15) 0.25097(14)
O29 O 0.42007(13) 0.85712(12) 0.30604(11)
H69 H 0.705955 0.850928 0.281635
H70 H 0.710935 0.777298 0.206945
H71 H 0.591569 0.680449 0.137137
H72 H 0.49707 0.670494 0.0952388
C35 C 0.3980(2) 0.7731(2) 0.98680(17)
C36 C 0.3497(2) 0.7813(2) 0.93022(18)
H28 H 0.3167 0.8165 0.9425
C37 C 0.3511(2) 0.73740(19) 0.85701(17)
H29 H 0.3186 0.7430 0.8196
C38 C 0.4002(2) 0.6840(2) 0.83656(17)
C39 C 0.4506(2) 0.6782(2) 0.89186(17)
H30 H 0.4858 0.6450 0.8792
C40 C 0.4493(2) 0.7220(2) 0.96707(18)
C41 C 0.4400(2) 0.57958(19) 0.73738(17)
H32 H 0.4214 0.5423 0.7597
H33 H 0.5023 0.6027 0.7518
C42 C 0.4131(2) 0.53907(19) 0.65124(17)
C43 C 0.4469(2) 0.58019(19) 0.60866(17)
C44 C 0.4171(2) 0.54486(19) 0.53071(18)
C45 C 0.3549(2) 0.4709(2) 0.49651(17)
C46 C 0.3246(2) 0.42930(19) 0.53942(17)
C47 C 0.3562(2) 0.46302(19) 0.61680(17)
C48 C 0.2637(2) 0.34531(19) 0.5047(2)
H34 H 0.2295 0.3347 0.5405
H35 H 0.2250 0.3369 0.4606
C49 C 0.29615(14) 0.22239(10) 0.42595(10)
C50 C 0.21985(13) 0.19160(12) 0.37413(12)
H36 H 0.1796 0.2198 0.3797
C51 C 0.20375(12) 0.11866(13) 0.31402(11)
H37 H 0.1527 0.0981 0.2793
C52 C 0.26395(14) 0.07652(10) 0.30573(10)
C53 C 0.34025(12) 0.10730(11) 0.35755(12)
H38 H 0.3805 0.0791 0.3520
C54 C 0.35635(11) 0.18024(12) 0.41766(11)
H39 H 0.4074 0.2008 0.4523
C56 C 0.4539(2) 0.5863(2) 0.48185(19)
H40 H 0.5146 0.6150 0.5011
H41 H 0.4483 0.5482 0.4307
C57 C 0.4217(2) 0.6821(2) 0.44030(18)
C58 C 0.4869(2) 0.6750(2) 0.39538(19)
H42 H 0.5218 0.6429 0.3951
C59 C 0.4969(2) 0.7185(2) 0.35111(19)
H43 H 0.5390 0.7136 0.3208
C60 C 0.4495(2) 0.7668(2) 0.34966(19)
C61 C 0.3848(2) 0.7742(2) 0.3952(2)
H44 H 0.3502 0.8061 0.3942
C62 C 0.3721(2) 0.7320(2) 0.44350(19)
H45 H 0.3318 0.7385 0.4755
C63 C 0.4598(2) 0.8090(2) 0.2984(2)
C64 C 0.5100(2) 0.6624(2) 0.6489(2)
H46 H 0.5152 0.6888 0.6158
H47 H 0.5656 0.6584 0.6641
H48 H 0.4891 0.6920 0.6924
C65 C 0.3239(2) 0.4144(2) 0.66301(19)
H49 H 0.3692 0.4266 0.7034
H50 H 0.3081 0.3590 0.6311
H51 H 0.2744 0.4276 0.6831
C66 C 0.3219(3) 0.4437(2) 0.41073(18)
H52 H 0.3117 0.4872 0.4022
H53 H 0.2691 0.4012 0.3949
H54 H 0.3649 0.4260 0.3826
O12 O 0.39516(14) 0.64124(13) 0.76040(11)
O15 O 0.32058(15) 0.29532(13) 0.48471(12)
O18 O 0.40335(15) 0.64087(14) 0.48433(12)
C55 C 0.2511(2) 0.9993(2) 0.23917(19)
C1 C 0.5724(2) 0.00059(19) 0.25756(19)
C2 C 0.6308(2) 0.0839(2) 0.29073(19)
C3 C 0.5965(2) 0.1460(2) 0.3131(2)
H1 H 0.5368 0.1360 0.3087
C4 C 0.6496(2) 0.22435(18) 0.34261(18)
H2 H 0.6253 0.2659 0.3582
C5 C 0.7376(2) 0.23910(18) 0.34824(18)
C6 C 0.7738(2) 0.17822(19) 0.3308(2)
H3 H 0.8337 0.1887 0.3385
C7 C 0.7194(2) 0.0986(2) 0.3006(2)
H4 H 0.7436 0.0570 0.2878
C8 C 0.7577(2) 0.37930(18) 0.39439(17)
H5 H 0.7229 0.3789 0.4329
H6 H 0.7204 0.3736 0.3507
C9 C 0.8282(2) 0.45578(17) 0.42245(17)
C10 C 0.8531(2) 0.49220(18) 0.37408(16)
C11 C 0.9069(2) 0.56939(18) 0.40331(17)
C12 C 0.9452(2) 0.60868(18) 0.47954(17)
C13 C 0.9267(2) 0.56944(19) 0.52661(17)
C14 C 0.8681(2) 0.49296(19) 0.49940(16)
C15 C 0.9297(2) 0.6105(2) 0.34986(19)
H7 H 0.8895 0.5822 0.3027
H8 H 0.9261 0.6642 0.3721
H9 H 0.9519 0.6698 0.2519
C23 C 0.9762(2) 0.6055(2) 0.60528(16)
H13 H 0.9791 0.5642 0.6218
C24 C 0.9726(2) 0.6981(2) 0.72833(17)
C25 C 0.9327(3) 0.7478(2) 0.7774(2)
H15 H 0.8790 0.7502 0.7601
C26 C 0.9702(3) 0.7929(2) 0.8500(2)
H16 H 0.9454 0.8302 0.8799
C31 C 0.8200(2) 0.4471(2) 0.29094(17)
H19 H 0.7765 0.4671 0.2761
H20 H 0.7955 0.3921 0.2797
H21 H 0.8670 0.4533 0.2641
H24 H 0.9756 0.7260 0.4985
C33 C 0.8464(2) 0.45045(19) 0.55097(17)
H25 H 0.8949 0.4340 0.5627
H26 H 0.7969 0.4050 0.5262
H27 H 0.8337 0.4856 0.5964
C68 C 0.7518(3) 0.0654(2) 0.1200(2)
H56 H 0.7638 0.0917 0.1738
H57 H 0.7352 0.0992 0.0995
H58 H 0.8028 0.0535 0.1021
H60 H 0.5943 0.0462 0.0820
C70 C 0.2683(3) 0.0465(2) 0.0857(2)
H62 H 0.2137 0.0481 0.0698
C71 C 0.4197(3) 0.1255(3) 0.1603(2)
H63 H 0.4167 0.0902 0.1847
H64 H 0.4478 0.1787 0.1958
H65 H 0.4521 0.1115 0.1202
C72 C 0.3096(3) 0.1940(2) 0.1509(2)
H66 H 0.3036 0.2059 0.1078
H67 H 0.3547 0.2357 0.1892
H68 H 0.2560 0.1891 0.1697
N2 N 0.3316(2) 0.11950(19) 0.12969(18)
O3 O 0.79519(14) 0.31344(12) 0.37459(12)
O9 O 0.93198(14) 0.65795(13) 0.65461(12)
C55_2 C 0.7489(2) 0.0007(2) 0.76083(19)
O13 O 0.69871(14) 0.04052(12) 0.76280(11)
O14 O 0.81264(17) 0.02375(14) 0.81222(13)
Mn4 Mn 0.61404(3) 0.11289(3) 0.78311(2)
Mn7 Mn 0.78585(3) 0.11855(3) 0.90655(2)
C35_2 C 0.6020(2) 0.2269(2) 0.01320(17)
C36_2 C 0.6503(2) 0.2187(2) 0.06978(18)
H28_2 H 0.6833 0.1835 0.0575
C37_2 C 0.6489(2) 0.26260(19) 0.14299(17)
H29_2 H 0.6814 0.2570 0.1804
C38_2 C 0.5998(2) 0.3160(2) 0.16344(17)
C39_2 C 0.5494(2) 0.3218(2) 0.10814(17)
H30_2 H 0.5142 0.3550 0.1208
C40_2 C 0.5507(2) 0.2780(2) 0.03293(18)
C41_2 C 0.5600(2) 0.42042(19) 0.26262(17)
H32_2 H 0.5786 0.4577 0.2403
H33_2 H 0.4977 0.3973 0.2482
C42_2 C 0.5869(2) 0.46093(19) 0.34876(17)
C43_2 C 0.5531(2) 0.41981(19) 0.39134(17)
C44_2 C 0.5829(2) 0.45514(19) 0.46929(18)
C45_2 C 0.6451(2) 0.5291(2) 0.50349(17)
C46_2 C 0.6754(2) 0.57070(19) 0.46058(17)
C47_2 C 0.6438(2) 0.53698(19) 0.38320(17)
C48_2 C 0.7363(2) 0.65469(19) 0.4953(2)
H34_2 H 0.7705 0.6653 0.4595
H35_2 H 0.7750 0.6631 0.5394
C49_2 C 0.70385(14) 0.77761(10) 0.57405(10)
C50_2 C 0.78015(13) 0.80840(12) 0.62587(12)
H36_2 H 0.8204 0.7802 0.6203
C51_2 C 0.79625(12) 0.88134(13) 0.68598(11)
H37_2 H 0.8473 0.9019 0.7207
C52_2 C 0.73605(14) 0.92348(10) 0.69427(10)
C53_2 C 0.65975(12) 0.89270(11) 0.64245(12)
H38_2 H 0.6195 0.9209 0.6480
C54_2 C 0.64365(11) 0.81976(12) 0.58234(11)
H39_2 H 0.5926 0.7992 0.5477
C56_2 C 0.5461(2) 0.4137(2) 0.51815(19)
H40_2 H 0.4854 0.3850 0.4989
H41_2 H 0.5517 0.4518 0.5693
C57_2 C 0.5783(2) 0.3179(2) 0.55970(18)
C58_2 C 0.5131(2) 0.3250(2) 0.60462(19)
H42_2 H 0.4782 0.3571 0.6049
C59_2 C 0.5031(2) 0.2815(2) 0.64889(19)
H43_2 H 0.4610 0.2864 0.6792
C60_2 C 0.5505(2) 0.2332(2) 0.65034(19)
C61_2 C 0.6152(2) 0.2258(2) 0.6048(2)
H44_2 H 0.6498 0.1939 0.6058
C62_2 C 0.6279(2) 0.2680(2) 0.55650(19)
H45_2 H 0.6682 0.2615 0.5245
C63_2 C 0.5402(2) 0.1910(2) 0.7016(2)
C64_2 C 0.4900(2) 0.3376(2) 0.3511(2)
H46_2 H 0.4848 0.3112 0.3842
H47_2 H 0.4344 0.3416 0.3359
H48_2 H 0.5109 0.3080 0.3076
C65_2 C 0.6761(2) 0.5856(2) 0.33699(19)
H49_2 H 0.6308 0.5734 0.2966
H50_2 H 0.6919 0.6410 0.3689
H51_2 H 0.7256 0.5724 0.3169
C66_2 C 0.6781(3) 0.5563(2) 0.58927(18)
H52_2 H 0.6883 0.5128 0.5978
H53_2 H 0.7309 0.5988 0.6051
H54_2 H 0.6351 0.5740 0.6174
O12_2 O 0.60484(14) 0.35876(13) 0.23960(11)
O15_2 O 0.67942(15) 0.70468(13) 0.51529(12)
O16 O 0.48937(17) 0.20999(15) 0.74903(14)
O17 O 0.57993(13) 0.14288(12) 0.69396(11)
O18_2 O 0.59665(15) 0.35913(14) 0.51567(12)
Mn10 Mn 0.42687(3) 0.17709(3) 0.82601(3)
O25 O 0.84771(16) 0.18335(14) 0.01727(13)
C34_2 C 0.6043(2) 0.18018(19) 0.93276(17)
H31_2 H 0.5172 0.2829 0.9956
C67_2 C 0.3053(3) 0.0758(2) 0.8966(2)
H55_2 H 0.2485 0.0719 0.8803
C69_2 C 0.4063(3) 0.0072(2) 0.9288(2)
H59_2 H 0.4229 0.0385 0.9819
H61_2 H 0.4471 0.0285 0.9031
N1_2 N 0.3193(2) 0.00860(19) 0.90347(18)
O1_2 O 0.39299(15) 0.05383(14) 0.76061(13)
O2_2 O 0.50874(13) 0.00986(11) 0.75041(11)
O10_2 O 0.55536(14) 0.18275(13) 0.88222(11)
O11_2 O 0.65584(14) 0.13871(13) 0.91574(11)
O19_2 O 0.36411(14) 0.14363(12) 0.91082(11)
O20_2 O 0.71978(16) 0.01793(15) 0.93273(14)
O21_2 O 0.29774(17) 0.16942(16) 0.77365(14)
O22_2 O 0.44069(15) 0.29901(13) 0.89192(12)
O23 O 0.84562(13) 0.20254(12) 0.86305(11)
O24 O 0.72357(13) 0.21810(11) 0.81817(11)
H69_2 H 0.294045 0.149072 0.718365
H70_2 H 0.289065 0.222702 0.793055
H71_2 H 0.408431 0.319551 0.862863
H72_2 H 0.50293 0.329506 0.904761
C16_2 C 0.9455(2) 0.3504(2) 0.70377(19)
C17_2 C 0.9889(2) 0.3233(2) 0.74621(19)
C18_2 C 0.9428(2) 0.2852(2) 0.78640(19)
H10_2 H 0.9726 0.2672 0.8151
C19_2 C 0.8556(2) 0.27317(19) 0.78538(18)
C20_2 C 0.8124(2) 0.3005(2) 0.74199(19)
H11_2 H 0.7532 0.2931 0.7399
C21_2 C 0.8567(2) 0.3385(2) 0.70174(19)
H12_2 H 0.8267 0.3564 0.6729
C22_2 C 0.8049(2) 0.22794(19) 0.82604(18)
H14_2 H 0.9652 0.3648 0.3930
C27_2 C 0.9541(2) 0.2155(2) 0.11905(18)
C28_2 C 0.9164(2) 0.2642(2) 0.16756(18)
H17_2 H 0.8658 0.2705 0.1489
C29_2 C 0.9491(2) 0.3055(2) 0.24398(18)
H18_2 H 0.9184 0.3352 0.2759
C30_2 C 0.9133(3) 0.1703(2) 0.0367(2)
C32_2 C 0.9954(2) 0.30677(19) 0.48894(19)
H22_2 H 0.9434 0.3058 0.5101
H23_2 H 0.9811 0.2872 0.4354
O6_2 O 0.98272(14) 0.38918(14) 0.66282(13)
O7_2 O 0.94540(18) 0.12368(17) 0.99336(14)
C1_2 C 0.4276(2) 0.99941(19) 0.74244(19)
C2_2 C 0.3692(2) 0.9161(2) 0.70927(19)
C3_2 C 0.4035(2) 0.8540(2) 0.6869(2)
H1_2 H 0.4632 0.8640 0.6913
C4_2 C 0.3504(2) 0.77565(18) 0.65739(18)
H2_2 H 0.3747 0.7341 0.6418
C5_2 C 0.2624(2) 0.76090(18) 0.65176(18)
C6_2 C 0.2262(2) 0.82178(19) 0.6692(2)
H3_2 H 0.1663 0.8113 0.6615
C7_2 C 0.2806(2) 0.9014(2) 0.6994(2)
H4_2 H 0.2564 0.9430 0.7122
C8_2 C 0.2423(2) 0.62070(18) 0.60561(17)
H5_2 H 0.2771 0.6211 0.5671
H6_2 H 0.2796 0.6264 0.6493
C9_2 C 0.1718(2) 0.54422(17) 0.57755(17)
C10_2 C 0.1469(2) 0.50780(18) 0.62592(16)
C11_2 C 0.0931(2) 0.43061(18) 0.59669(17)
C12_2 C 0.0548(2) 0.39132(18) 0.52046(17)
C13_2 C 0.0733(2) 0.43056(19) 0.47339(17)
C14_2 C 0.1319(2) 0.50704(19) 0.50060(16)
C15_2 C 0.0703(2) 0.3895(2) 0.65014(19)
H7_2 H 0.1105 0.4178 0.6973
H8_2 H 0.0739 0.3358 0.6279
H9_2 H 0.0481 0.3302 0.7481
C23_2 C 0.0238(2) 0.3945(2) 0.39472(16)
H13_2 H 0.0209 0.4358 0.3782
C24_2 C 0.0274(2) 0.3019(2) 0.27167(17)
C25_2 C 0.0673(3) 0.2522(2) 0.2226(2)
H15_2 H 0.1210 0.2498 0.2399
C26_2 C 0.0298(3) 0.2071(2) 0.1500(2)
H16_2 H 0.0546 0.1698 0.1201
C31_2 C 0.1800(2) 0.5529(2) 0.70906(17)
H19_2 H 0.2235 0.5329 0.7239
H20_2 H 0.2045 0.6079 0.7203
H21_2 H 0.1330 0.5467 0.7359
H24_2 H 0.0244 0.2740 0.5015
C33_2 C 0.1536(2) 0.54955(19) 0.44903(17)
H25_2 H 0.1051 0.5660 0.4373
H26_2 H 0.2031 0.5950 0.4738
H27_2 H 0.1663 0.5144 0.4036
C68_2 C 0.2482(3) 0.9346(2) 0.8800(2)
H56_2 H 0.2362 0.9083 0.8262
H57_2 H 0.2648 0.9008 0.9005
H58_2 H 0.1972 0.9465 0.8979
H60_2 H 0.4057 0.9538 0.9180
C70_2 C 0.7317(3) 0.9535(2) 0.9143(2)
H62_2 H 0.7863 0.9519 0.9302
C71_2 C 0.5803(3) 0.8745(3) 0.8397(2)
H63_2 H 0.5833 0.9098 0.8153
H64_2 H 0.5522 0.8213 0.8042
H65_2 H 0.5479 0.8885 0.8798
C72_2 C 0.6904(3) 0.8060(2) 0.8491(2)
H66_2 H 0.6964 0.7941 0.8922
H67_2 H 0.6453 0.7643 0.8108
H68_2 H 0.7440 0.8109 0.8303
N2_2 N 0.6684(2) 0.88050(19) 0.87031(18)
O3_2 O 0.20481(14) 0.68656(12) 0.62541(12)
O9_2 O 0.06802(14) 0.34205(13) 0.34539(12)
loop_
_geom_bond_atom_site_label_1
_geom_bond_atom_site_label_2
_geom_bond_site_symmetry_1
_geom_bond_site_symmetry_2
C16 C17 1_555 1_555
C18 C17 1_555 1_555
H10 C18 1_555 1_555
C19 C18 1_555 1_555
C20 C19 1_555 1_555
H11 C20 1_555 1_555
C21 C16 1_555 1_555
H12 C21 1_555 1_555
C22 C19 1_555 1_555
C28 C27 1_555 1_555
H17 C28 1_555 1_555
H18 C29 1_555 1_555
C30 C27 1_555 1_555
H22 C32 1_555 1_555
H23 C32 1_555 1_555
O4 C22 1_555 1_555
O5 C22 1_555 1_555
O8 C30 1_555 1_555
Mn6 O5 1_555 1_555
Mn9 O4 1_555 1_555
C16 O6 1_555 1_555
C20 C21 1_555 1_555
C28 C29 1_555 1_555
C67 H55 1_555 1_555
C69 H59 1_555 1_555
H61 C69 1_555 1_555
Mn6 O2 1_555 1_555
Mn9 O11 1_555 1_555
Mn3 O1 1_555 1_555
N1 C67 1_555 1_555
O10 C34 1_555 1_555
O11 C34 1_555 1_555
O19 C67 1_555 1_555
O21 Mn3 1_555 1_555
O22 Mn3 1_555 1_555
O26 Mn6 1_555 1_555
O27 Mn9 1_555 1_555
O28 Mn3 1_555 1_555
O29 Mn6 1_555 1_555
C69 N1 1_555 1_555
Mn6 O10 1_555 1_555
Mn6 O11 1_555 1_555
Mn9 O20 1_555 1_555
Mn3 O10 1_555 1_555
Mn3 O19 1_555 1_555
O21 H69 1_555 1_555
O21 H70 1_555 1_555
O22 H71 1_555 1_555
O22 H72 1_555 1_555
C35 C36 1_555 1_555
C36 H28 1_555 1_555
C37 C36 1_555 1_555
H29 C37 1_555 1_555
C38 C37 1_555 1_555
C39 C38 1_555 1_555
H30 C39 1_555 1_555
C40 C35 1_555 1_555
C41 H32 1_555 1_555
H33 C41 1_555 1_555
C42 C41 1_555 1_555
C43 C42 1_555 1_555
C44 C43 1_555 1_555
C45 C44 1_555 1_555
C46 C45 1_555 1_555
C47 C42 1_555 1_555
C48 C46 1_555 1_555
H34 C48 1_555 1_555
H35 C48 1_555 1_555
C49 C50 1_555 1_555
C50 H36 1_555 1_555
C51 C50 1_555 1_555
H37 C51 1_555 1_555
C52 C51 1_555 1_555
C53 C52 1_555 1_555
H38 C53 1_555 1_555
C54 C49 1_555 1_555
H39 C54 1_555 1_555
C56 C44 1_555 1_555
H40 C56 1_555 1_555
H41 C56 1_555 1_555
C57 C58 1_555 1_555
C58 H42 1_555 1_555
C59 C58 1_555 1_555
H43 C59 1_555 1_555
C60 C59 1_555 1_555
C61 C60 1_555 1_555
H44 C61 1_555 1_555
C62 C57 1_555 1_555
H45 C62 1_555 1_555
C63 C60 1_555 1_555
C64 C43 1_555 1_555
H46 C64 1_555 1_555
H47 C64 1_555 1_555
H48 C64 1_555 1_555
C65 C47 1_555 1_555
H49 C65 1_555 1_555
H50 C65 1_555 1_555
H51 C65 1_555 1_555
C66 C45 1_555 1_555
H52 C66 1_555 1_555
H53 C66 1_555 1_555
H54 C66 1_555 1_555
O12 C38 1_555 1_555
O15 C48 1_555 1_555
O28 C63 1_555 1_555
O29 C63 1_555 1_555
O18 C56 1_555 1_555
C39 C40 1_555 1_555
C41 O12 1_555 1_555
C46 C47 1_555 1_555
C49 O15 1_555 1_555
C53 C54 1_555 1_555
C57 O18 1_555 1_555
C61 C62 1_555 1_555
O26 C55 1_555 1_555
O27 C55 1_555 1_555
C1 C2 1_555 1_555
C2 C3 1_555 1_555
C3 H1 1_555 1_555
C4 C3 1_555 1_555
H2 C4 1_555 1_555
C5 C4 1_555 1_555
C6 C5 1_555 1_555
H3 C6 1_555 1_555
C7 C2 1_555 1_555
H4 C7 1_555 1_555
C8 H5 1_555 1_555
H6 C8 1_555 1_555
C9 C8 1_555 1_555
C10 C9 1_555 1_555
C11 C10 1_555 1_555
C12 C11 1_555 1_555
C13 C12 1_555 1_555
C14 C9 1_555 1_555
C15 C11 1_555 1_555
H7 C15 1_555 1_555
H8 C15 1_555 1_555
C23 C13 1_555 1_555
H13 C23 1_555 1_555
C24 C25 1_555 1_555
C25 H15 1_555 1_555
C26 C25 1_555 1_555
H16 C26 1_555 1_555
C31 C10 1_555 1_555
H19 C31 1_555 1_555
H20 C31 1_555 1_555
H21 C31 1_555 1_555
C33 C14 1_555 1_555
H25 C33 1_555 1_555
H26 C33 1_555 1_555
H27 C33 1_555 1_555
C68 H56 1_555 1_555
H57 C68 1_555 1_555
H58 C68 1_555 1_555
C70 H62 1_555 1_555
C71 H63 1_555 1_555
H64 C71 1_555 1_555
H65 C71 1_555 1_555
C72 H66 1_555 1_555
H67 C72 1_555 1_555
H68 C72 1_555 1_555
N2 C70 1_555 1_555
O3 C5 1_555 1_555
O9 C23 1_555 1_555
C6 C7 1_555 1_555
C8 O3 1_555 1_555
C13 C14 1_555 1_555
C24 O9 1_555 1_555
C71 N2 1_555 1_555
C72 N2 1_555 1_555
O13 C55_2 1_555 1_555
O14 C55_2 1_555 1_555
Mn4 O13 1_555 1_555
Mn7 O14 1_555 1_555
C35_2 C36_2 1_555 1_555
C36_2 H28_2 1_555 1_555
C37_2 C36_2 1_555 1_555
H29_2 C37_2 1_555 1_555
C38_2 C37_2 1_555 1_555
C39_2 C38_2 1_555 1_555
H30_2 C39_2 1_555 1_555
C40_2 C35_2 1_555 1_555
C41_2 H32_2 1_555 1_555
H33_2 C41_2 1_555 1_555
C42_2 C41_2 1_555 1_555
C43_2 C42_2 1_555 1_555
C44_2 C43_2 1_555 1_555
C45_2 C44_2 1_555 1_555
C46_2 C45_2 1_555 1_555
C47_2 C42_2 1_555 1_555
C48_2 C46_2 1_555 1_555
H34_2 C48_2 1_555 1_555
H35_2 C48_2 1_555 1_555
C49_2 C50_2 1_555 1_555
C50_2 H36_2 1_555 1_555
C51_2 C50_2 1_555 1_555
H37_2 C51_2 1_555 1_555
C52_2 C51_2 1_555 1_555
C53_2 C52_2 1_555 1_555
H38_2 C53_2 1_555 1_555
C54_2 C49_2 1_555 1_555
H39_2 C54_2 1_555 1_555
C56_2 C44_2 1_555 1_555
H40_2 C56_2 1_555 1_555
H41_2 C56_2 1_555 1_555
C57_2 C58_2 1_555 1_555
C58_2 H42_2 1_555 1_555
C59_2 C58_2 1_555 1_555
H43_2 C59_2 1_555 1_555
C60_2 C59_2 1_555 1_555
C61_2 C60_2 1_555 1_555
H44_2 C61_2 1_555 1_555
C62_2 C57_2 1_555 1_555
H45_2 C62_2 1_555 1_555
C63_2 C60_2 1_555 1_555
C64_2 C43_2 1_555 1_555
H46_2 C64_2 1_555 1_555
H47_2 C64_2 1_555 1_555
H48_2 C64_2 1_555 1_555
C65_2 C47_2 1_555 1_555
H49_2 C65_2 1_555 1_555
H50_2 C65_2 1_555 1_555
H51_2 C65_2 1_555 1_555
C66_2 C45_2 1_555 1_555
H52_2 C66_2 1_555 1_555
H53_2 C66_2 1_555 1_555
H54_2 C66_2 1_555 1_555
O12_2 C38_2 1_555 1_555
O15_2 C48_2 1_555 1_555
O16 C63_2 1_555 1_555
O17 C63_2 1_555 1_555
O18_2 C56_2 1_555 1_555
Mn4 O17 1_555 1_555
Mn10 O16 1_555 1_555
C39_2 C40_2 1_555 1_555
C41_2 O12_2 1_555 1_555
C46_2 C47_2 1_555 1_555
C49_2 O15_2 1_555 1_555
C53_2 C54_2 1_555 1_555
C57_2 O18_2 1_555 1_555
C61_2 C62_2 1_555 1_555
C67_2 H55_2 1_555 1_555
C69_2 H59_2 1_555 1_555
H61_2 C69_2 1_555 1_555
Mn4 O2_2 1_555 1_555
Mn7 O11_2 1_555 1_555
Mn10 O1_2 1_555 1_555
N1_2 C67_2 1_555 1_555
O10_2 C34_2 1_555 1_555
O11_2 C34_2 1_555 1_555
O19_2 C67_2 1_555 1_555
O21_2 Mn10 1_555 1_555
O22_2 Mn10 1_555 1_555
O23 Mn7 1_555 1_555
O24 Mn4 1_555 1_555
C69_2 N1_2 1_555 1_555
Mn4 O10_2 1_555 1_555
Mn4 O11_2 1_555 1_555
Mn7 O20_2 1_555 1_555
Mn10 O10_2 1_555 1_555
Mn10 O19_2 1_555 1_555
O21_2 H69_2 1_555 1_555
O21_2 H70_2 1_555 1_555
O22_2 H71_2 1_555 1_555
O22_2 H72_2 1_555 1_555
C16_2 C17_2 1_555 1_555
C18_2 C17_2 1_555 1_555
H10_2 C18_2 1_555 1_555
C19_2 C18_2 1_555 1_555
C20_2 C19_2 1_555 1_555
H11_2 C20_2 1_555 1_555
C21_2 C16_2 1_555 1_555
H12_2 C21_2 1_555 1_555
C22_2 C19_2 1_555 1_555
C28_2 C27_2 1_555 1_555
H17_2 C28_2 1_555 1_555
H18_2 C29_2 1_555 1_555
C30_2 C27_2 1_555 1_555
H22_2 C32_2 1_555 1_555
H23_2 C32_2 1_555 1_555
O23 C22_2 1_555 1_555
O24 C22_2 1_555 1_555
O25 C30_2 1_555 1_555
C16_2 O6_2 1_555 1_555
C20_2 C21_2 1_555 1_555
C28_2 C29_2 1_555 1_555
C1_2 C2_2 1_555 1_555
C2_2 C3_2 1_555 1_555
C3_2 H1_2 1_555 1_555
C4_2 C3_2 1_555 1_555
H2_2 C4_2 1_555 1_555
C5_2 C4_2 1_555 1_555
C6_2 C5_2 1_555 1_555
H3_2 C6_2 1_555 1_555
C7_2 C2_2 1_555 1_555
H4_2 C7_2 1_555 1_555
C8_2 H5_2 1_555 1_555
H6_2 C8_2 1_555 1_555
C9_2 C8_2 1_555 1_555
C10_2 C9_2 1_555 1_555
C11_2 C10_2 1_555 1_555
C12_2 C11_2 1_555 1_555
C13_2 C12_2 1_555 1_555
C14_2 C9_2 1_555 1_555
C15_2 C11_2 1_555 1_555
H7_2 C15_2 1_555 1_555
H8_2 C15_2 1_555 1_555
C23_2 C13_2 1_555 1_555
H13_2 C23_2 1_555 1_555
C24_2 C25_2 1_555 1_555
C25_2 H15_2 1_555 1_555
C26_2 C25_2 1_555 1_555
H16_2 C26_2 1_555 1_555
C31_2 C10_2 1_555 1_555
H19_2 C31_2 1_555 1_555
H20_2 C31_2 1_555 1_555
H21_2 C31_2 1_555 1_555
C33_2 C14_2 1_555 1_555
H25_2 C33_2 1_555 1_555
H26_2 C33_2 1_555 1_555
H27_2 C33_2 1_555 1_555
C68_2 H56_2 1_555 1_555
H57_2 C68_2 1_555 1_555
H58_2 C68_2 1_555 1_555
C70_2 H62_2 1_555 1_555
C71_2 H63_2 1_555 1_555
H64_2 C71_2 1_555 1_555
H65_2 C71_2 1_555 1_555
C72_2 H66_2 1_555 1_555
H67_2 C72_2 1_555 1_555
H68_2 C72_2 1_555 1_555
N2_2 C70_2 1_555 1_555
O3_2 C5_2 1_555 1_555
O9_2 C23_2 1_555 1_555
C6_2 C7_2 1_555 1_555
C8_2 O3_2 1_555 1_555
C13_2 C14_2 1_555 1_555
C24_2 O9_2 1_555 1_555
C71_2 N2_2 1_555 1_555
C72_2 N2_2 1_555 1_555

#END
