
###############################################################################
#
# This file contains modified crystal structure data generated from the
# MOF subset of the Cambridge Structural Database (CSD) v543 
# hosted by the Cambridge Crystallographic Data Centre (CCDC).
#
# This work is licensed under the Creative Commons
# Attribution-NonCommercial-ShareAlike 4.0 International License.
# To view a copy of this license, visit
# http://creativecommons.org/licenses/by-nc-sa/4.0/
# or send a letter to
# Creative Commons, PO Box 1866, Mountain View, CA 94042, USA.
#
# CIF created using the CSD Python API on 29 September 2022
# The structure has been converted into the P1 space group
# The structure has a 3D framework
# The original CSD entry NIRSAL is in the monoclinic crystal system
# The framework has been calculated to contain at least 10.0% void space
# The void calculation uses a probe of radius 1.32A, grid spacing 0.4
#
###############################################################################

data_NIRSAL
_chemical_formula_moiety         '(C208 H128 N8 O40 Zn8)n'
_symmetry_cell_setting           triclinic
_symmetry_space_group_name_H-M   'P 1'
_symmetry_Int_Tables_number      1
_space_group_name_Hall           'P 1'
loop_
_symmetry_equiv_pos_site_id
_symmetry_equiv_pos_as_xyz
1 x,y,z
_cell_length_a                   31.393(4)
_cell_length_b                   23.820(3)
_cell_length_c                   7.1066(9)
_cell_angle_alpha                90
_cell_angle_beta                 102.731(2)
_cell_angle_gamma                90
_cell_volume                     5183.54
loop_
_atom_site_label
_atom_site_type_symbol
_atom_site_fract_x
_atom_site_fract_y
_atom_site_fract_z
O9 O 0.44127(14) 0.44588(19) 0.1814(5)
H21 H 0.462732 0.444978 0.271237
O10 O 0.49106(15) 0.4348(3) 0.0208(6)
C52 C 0.45270(18) 0.4377(2) 0.0285(7)
O12 O 0.22346(7) 0.50775(9) 0.1120(3)
C35 C 0.31709(12) 0.23642(14) 0.0250(5)
H23 H 0.321511 0.233823 0.158446
C39 C 0.29803(11) 0.33736(14) 0.0478(5)
C40 C 0.32691(11) 0.34914(14) 0.2224(5)
H26 H 0.350241 0.324981 0.266548
C41 C 0.22023(10) 0.46063(14) 0.0278(4)
C42 C 0.25821(10) 0.42152(13) 0.0937(5)
C44 C 0.28748(11) 0.43215(13) 0.2671(5)
H28 H 0.283932 0.463688 0.339228
C45 C 0.32189(11) 0.39584(15) 0.3324(5)
C46 C 0.35498(12) 0.40775(14) 0.5161(5)
C47 C 0.39845(13) 0.3980(2) 0.5236(6)
H29 H 0.407107 0.384108 0.415546
C48 C 0.42944(15) 0.4087(2) 0.6908(7)
H30 H 0.458758 0.402177 0.693269
C49 C 0.41770(15) 0.42888(19) 0.8527(6)
C50 C 0.37434(15) 0.43909(16) 0.8458(6)
H31 H 0.365991 0.452790 0.954856
C51 C 0.34273(13) 0.42930(15) 0.6787(5)
H32 H 0.313540 0.437087 0.675295
Zn3 Zn 0.17576(2) 0.55925(2) 0.10938(5)
N2 N 0.11151(8) 0.46301(12) 0.5649(4)
C27 C 0.08067(12) 0.42412(17) 0.5456(7)
H17 H 0.088954 0.386570 0.550614
C28 C 0.09921(11) 0.51671(15) 0.5563(5)
H18 H 0.120367 0.544546 0.566595
C29 C 0.05589(11) 0.53221(16) 0.5327(5)
H19 H 0.048509 0.570055 0.530007
C30 C 0.02345(10) 0.49201(14) 0.5131(5)
C31 C 0.03666(12) 0.43680(15) 0.5184(7)
H20 H 0.016104 0.408103 0.503812
Zn2 Zn 0.17576(2) 0.44075(2) 0.60938(5)
O7 O 0.33021(10) 0.09497(10) 0.6882(4)
O8 O 0.31648(9) 0.14360(10) 0.4234(4)
O11 O 0.18738(7) 0.44493(9) 0.9039(3)
C32 C 0.32141(10) 0.14114(14) 0.6039(5)
C33 C 0.31636(11) 0.19221(14) 0.7172(5)
C34 C 0.32354(11) 0.18902(14) 0.9151(5)
H22 H 0.332733 0.155336 0.977000
C36 C 0.30406(10) 0.28708(14) 0.9320(5)
C37 C 0.29683(12) 0.28960(14) 0.7339(5)
H24 H 0.287803 0.323225 0.671094
C38 C 0.30278(12) 0.24279(15) 0.6265(5)
H25 H 0.297649 0.245299 0.492745
C43 C 0.26352(10) 0.37431(13) 0.9829(5)
H27 H 0.243993 0.367688 0.866116
Zn4 Zn 0.32424(2) 0.05925(2) 0.39062(5)
O13 O 0.16979(10) 0.40503(10) 0.3118(4)
O15 O 0.18352(9) 0.35640(10) 0.5766(4)
O17 O 0.22346(7) 0.49225(9) 0.6120(3)
Zn1 Zn 0.82424(2) 0.55925(2) 0.39062(5)
O1 O 0.66979(10) 0.90503(10) 0.3118(4)
O2 O 0.68352(9) 0.85640(10) 0.5766(4)
O5 O 0.81262(7) 0.55507(9) 0.0961(3)
N1 N 0.88849(8) 0.53699(12) 0.4351(4)
C1 C 0.91933(12) 0.57588(17) 0.4544(7)
H2 H 0.911046 0.613430 0.449386
C2 C 0.90079(11) 0.48329(15) 0.4437(5)
H3 H 0.879633 0.455454 0.433405
C3 C 0.94411(11) 0.46779(16) 0.4673(5)
H4 H 0.951491 0.429945 0.469993
C4 C 0.97655(10) 0.50799(14) 0.4869(5)
C5 C 0.96334(12) 0.56320(15) 0.4816(7)
H5 H 0.983896 0.591897 0.496188
C6 C 0.67859(10) 0.85886(14) 0.3961(5)
C7 C 0.68364(11) 0.80779(14) 0.2828(5)
C8 C 0.67646(11) 0.81098(14) 0.0849(5)
H6 H 0.667267 0.844664 0.023000
C10 C 0.69594(10) 0.71292(14) 0.0680(5)
C11 C 0.70317(12) 0.71040(14) 0.2661(5)
H8 H 0.712197 0.676775 0.328906
C12 C 0.69722(12) 0.75721(15) 0.3735(5)
H9 H 0.702351 0.754701 0.507255
C17 C 0.73648(10) 0.62569(13) 0.0171(5)
H11 H 0.756007 0.632312 0.133884
Zn6 Zn 0.67576(2) 0.94075(2) 0.60938(5)
O14 O 0.83021(10) 0.59497(10) 0.6882(4)
O16 O 0.81648(9) 0.64360(10) 0.4234(4)
O18 O 0.77654(7) 0.50775(9) 0.3880(3)
O6 O 0.77654(7) 0.49225(9) 0.8880(3)
C9 C 0.68291(12) 0.76358(14) 0.9750(5)
H7 H 0.678489 0.766177 0.841554
C13 C 0.70197(11) 0.66264(14) 0.9522(5)
C14 C 0.67309(11) 0.65086(14) 0.7776(5)
H10 H 0.649759 0.675019 0.733452
C15 C 0.77977(10) 0.53937(14) 0.9722(4)
C16 C 0.74179(10) 0.57848(13) 0.9063(5)
C18 C 0.71252(11) 0.56785(13) 0.7329(5)
H12 H 0.716068 0.536312 0.660772
C19 C 0.67811(11) 0.60416(15) 0.6676(5)
C20 C 0.64502(12) 0.59225(14) 0.4839(5)
C21 C 0.60155(13) 0.6020(2) 0.4764(6)
H13 H 0.592893 0.615892 0.584454
C22 C 0.57056(15) 0.5913(2) 0.3092(7)
H14 H 0.541242 0.597823 0.306731
C23 C 0.58230(15) 0.57112(19) 0.1473(6)
C24 C 0.62566(15) 0.56091(16) 0.1542(6)
H15 H 0.634009 0.547210 0.045144
C25 C 0.65727(13) 0.57070(15) 0.3213(5)
H16 H 0.686460 0.562913 0.324705
Zn5 Zn 0.82424(2) 0.44075(2) 0.89062(5)
O1_2 O 0.33021(10) 0.90503(10) 0.1882(4)
O5_2 O 0.18738(7) 0.55507(9) 0.4039(3)
N1_2 N 0.11151(8) 0.53699(12) 0.0649(4)
C1_2 C 0.08067(12) 0.57588(17) 0.0456(7)
H2_2 H 0.088954 0.613430 0.050614
C2_2 C 0.09921(11) 0.48329(15) 0.0563(5)
H3_2 H 0.120367 0.455454 0.066595
C3_2 C 0.05589(11) 0.46779(16) 0.0327(5)
H4_2 H 0.048509 0.429945 0.030007
C4_2 C 0.02345(10) 0.50799(14) 0.0131(5)
C5_2 C 0.03666(12) 0.56320(15) 0.0184(7)
H5_2 H 0.016104 0.591897 0.003812
C6_2 C 0.32141(10) 0.85886(14) 0.1039(5)
C7_2 C 0.31636(11) 0.80779(14) 0.2172(5)
C8_2 C 0.32354(11) 0.81098(14) 0.4151(5)
H6_2 H 0.332733 0.844664 0.477000
C9_2 C 0.31709(12) 0.76358(14) 0.5250(5)
H7_2 H 0.321511 0.766177 0.658446
C10_2 C 0.30406(10) 0.71292(14) 0.4320(5)
C11_2 C 0.29683(12) 0.71040(14) 0.2339(5)
H8_2 H 0.287803 0.676775 0.171094
C12_2 C 0.30278(12) 0.75721(15) 0.1265(5)
C13_2 C 0.29803(11) 0.66264(14) 0.5478(5)
C14_2 C 0.32691(11) 0.65086(14) 0.7224(5)
H10_2 H 0.350241 0.675019 0.766548
C15_2 C 0.22023(10) 0.53937(14) 0.5278(4)
C16_2 C 0.25821(10) 0.57848(13) 0.5937(5)
C17_2 C 0.26352(10) 0.62569(13) 0.4829(5)
H11_2 H 0.243993 0.632312 0.366116
C18_2 C 0.28748(11) 0.56785(13) 0.7671(5)
H12_2 H 0.283932 0.536312 0.839228
C19_2 C 0.32189(11) 0.60416(15) 0.8324(5)
H13_2 H 0.407107 0.615892 0.915546
O16_2 O 0.18352(9) 0.64360(10) 0.0766(4)
N2_2 N 0.88849(8) 0.46301(12) 0.9351(4)
C27_2 C 0.91933(12) 0.42412(17) 0.9544(7)
H17_2 H 0.911046 0.386570 0.949386
C28_2 C 0.90079(11) 0.51671(15) 0.9437(5)
H18_2 H 0.879633 0.544546 0.933405
C29_2 C 0.94411(11) 0.53221(16) 0.9673(5)
H19_2 H 0.951491 0.570055 0.969993
C30_2 C 0.97655(10) 0.49201(14) 0.9869(5)
C31_2 C 0.96334(12) 0.43680(15) 0.9816(7)
H20_2 H 0.983896 0.408103 0.996188
O7_2 O 0.66979(10) 0.09497(10) 0.8118(4)
O11_2 O 0.81262(7) 0.44493(9) 0.5961(3)
C32_2 C 0.67859(10) 0.14114(14) 0.8961(5)
C33_2 C 0.68364(11) 0.19221(14) 0.7828(5)
C34_2 C 0.67646(11) 0.18902(14) 0.5849(5)
H22_2 H 0.667267 0.155336 0.523000
C35_2 C 0.68291(12) 0.23642(14) 0.4750(5)
H23_2 H 0.678489 0.233823 0.341554
C36_2 C 0.69594(10) 0.28708(14) 0.5680(5)
C37_2 C 0.70317(12) 0.28960(14) 0.7661(5)
H24_2 H 0.712197 0.323225 0.828906
C38_2 C 0.69722(12) 0.24279(15) 0.8735(5)
C39_2 C 0.70197(11) 0.33736(14) 0.4522(5)
C40_2 C 0.67309(11) 0.34914(14) 0.2776(5)
H26_2 H 0.649759 0.324981 0.233452
C41_2 C 0.77977(10) 0.46063(14) 0.4722(4)
C42_2 C 0.74179(10) 0.42152(13) 0.4063(5)
C43_2 C 0.73648(10) 0.37431(13) 0.5171(5)
H27_2 H 0.756007 0.367688 0.633884
C44_2 C 0.71252(11) 0.43215(13) 0.2329(5)
H28_2 H 0.716068 0.463688 0.160772
C45_2 C 0.67811(11) 0.39584(15) 0.1676(5)
H29_2 H 0.592893 0.384108 0.084454
O15_2 O 0.81648(9) 0.35640(10) 0.9234(4)
O5_3 O 0.31262(7) 0.05507(9) 0.0961(3)
N1_3 N 0.38849(8) 0.03699(12) 0.4351(4)
C1_3 C 0.41933(12) 0.07588(17) 0.4544(7)
H2_3 H 0.411046 0.113430 0.449386
C4_3 C 0.47655(10) 0.00799(14) 0.4869(5)
C5_3 C 0.46334(12) 0.06320(15) 0.4816(7)
H5_3 H 0.483896 0.091897 0.496188
C6_3 C 0.17859(10) 0.35886(14) 0.3961(5)
C7_3 C 0.18364(11) 0.30779(14) 0.2828(5)
C8_3 C 0.17646(11) 0.31098(14) 0.0849(5)
H6_3 H 0.167267 0.344664 0.023000
C10_3 C 0.19594(10) 0.21292(14) 0.0680(5)
C11_3 C 0.20317(12) 0.21040(14) 0.2661(5)
H8_3 H 0.212197 0.176775 0.328906
C12_3 C 0.19722(12) 0.25721(15) 0.3735(5)
H9_2 H 0.202351 0.254701 0.507255
C17_3 C 0.23648(10) 0.12569(13) 0.0171(5)
H11_3 H 0.256007 0.132312 0.133884
C28_3 C 0.59921(11) 0.01671(15) 0.5563(5)
H18_3 H 0.620367 0.044546 0.566595
C29_3 C 0.55589(11) 0.03221(16) 0.5327(5)
H19_3 H 0.548509 0.070055 0.530007
O18_2 O 0.27654(7) 0.00775(9) 0.3880(3)
C2_3 C 0.40079(11) 0.98329(15) 0.4437(5)
H3_3 H 0.379633 0.955454 0.433405
C3_3 C 0.44411(11) 0.96779(16) 0.4673(5)
H4_3 H 0.451491 0.929945 0.469993
N2_3 N 0.61151(8) 0.96301(12) 0.5649(4)
C27_3 C 0.58067(12) 0.92412(17) 0.5456(7)
H17_3 H 0.588954 0.886570 0.550614
C30_3 C 0.52345(10) 0.99201(14) 0.5131(5)
C31_3 C 0.53666(12) 0.93680(15) 0.5184(7)
H20_3 H 0.516104 0.908103 0.503812
O11_3 O 0.68738(7) 0.94493(9) 0.9039(3)
C32_3 C 0.82141(10) 0.64114(14) 0.6039(5)
C33_3 C 0.81636(11) 0.69221(14) 0.7172(5)
C34_3 C 0.82354(11) 0.68902(14) 0.9151(5)
H22_3 H 0.832733 0.655336 0.977000
C36_3 C 0.80406(10) 0.78708(14) 0.9320(5)
C37_3 C 0.79683(12) 0.78960(14) 0.7339(5)
H24_3 H 0.787803 0.823225 0.671094
C38_3 C 0.80278(12) 0.74279(15) 0.6265(5)
H25_2 H 0.797649 0.745299 0.492745
C43_3 C 0.76352(10) 0.87431(13) 0.9829(5)
H27_3 H 0.743993 0.867688 0.866116
O17_2 O 0.72346(7) 0.99225(9) 0.6120(3)
H9_3 H 0.797649 0.254701 0.992745
C28_4 C 0.40079(11) 0.01671(15) 0.9437(5)
H18_4 H 0.379633 0.044546 0.933405
C29_4 C 0.44411(11) 0.03221(16) 0.9673(5)
H19_4 H 0.451491 0.070055 0.969993
C2_4 C 0.59921(11) 0.98329(15) 0.0563(5)
H3_4 H 0.620367 0.955454 0.066595
C3_4 C 0.55589(11) 0.96779(16) 0.0327(5)
H4_4 H 0.548509 0.929945 0.030007
H25_3 H 0.202351 0.745299 0.007255
O3 O 0.55873(14) 0.55412(19) 0.8186(5)
H1 H 0.537268 0.555022 0.728763
O4 O 0.50894(15) 0.5652(3) 0.9792(6)
C26 C 0.54730(18) 0.5623(2) 0.9715(7)
O3_2 O 0.44127(14) 0.55412(19) 0.6814(5)
H1_2 H 0.462732 0.555022 0.771237
O4_2 O 0.49106(15) 0.5652(3) 0.5208(6)
C20_2 C 0.35498(12) 0.59225(14) 0.0161(5)
C21_2 C 0.39845(13) 0.6020(2) 0.0236(6)
C22_2 C 0.42944(15) 0.5913(2) 0.1908(7)
H14_2 H 0.458758 0.597823 0.193269
C23_2 C 0.41770(15) 0.57112(19) 0.3527(6)
C24_2 C 0.37434(15) 0.56091(16) 0.3458(6)
H15_2 H 0.365991 0.547210 0.454856
C25_2 C 0.34273(13) 0.57070(15) 0.1787(5)
H16_2 H 0.313540 0.562913 0.175295
C26_2 C 0.45270(18) 0.5623(2) 0.5285(7)
O2_2 O 0.31648(9) 0.85640(10) 0.9234(4)
H9_4 H 0.297649 0.754701 0.992745
Zn6_2 Zn 0.32424(2) 0.94075(2) 0.89062(5)
O14_2 O 0.16979(10) 0.59497(10) 0.8118(4)
O6_2 O 0.27654(7) 0.99225(9) 0.8880(3)
N2_4 N 0.38849(8) 0.96301(12) 0.9351(4)
C27_4 C 0.41933(12) 0.92412(17) 0.9544(7)
H17_4 H 0.411046 0.886570 0.949386
C30_4 C 0.47655(10) 0.99201(14) 0.9869(5)
C31_4 C 0.46334(12) 0.93680(15) 0.9816(7)
H20_4 H 0.483896 0.908103 0.996188
O11_4 O 0.31262(7) 0.94493(9) 0.5961(3)
C32_4 C 0.17859(10) 0.64114(14) 0.8961(5)
C33_4 C 0.18364(11) 0.69221(14) 0.7828(5)
C34_4 C 0.17646(11) 0.68902(14) 0.5849(5)
H22_4 H 0.167267 0.655336 0.523000
C35_3 C 0.18291(12) 0.73642(14) 0.4750(5)
H23_3 H 0.178489 0.733823 0.341554
C36_4 C 0.19594(10) 0.78708(14) 0.5680(5)
C37_4 C 0.20317(12) 0.78960(14) 0.7661(5)
H24_4 H 0.212197 0.823225 0.828906
C38_4 C 0.19722(12) 0.74279(15) 0.8735(5)
C39_3 C 0.20197(11) 0.83736(14) 0.4522(5)
C40_3 C 0.17309(11) 0.84914(14) 0.2776(5)
H26_3 H 0.149759 0.824981 0.233452
C41_3 C 0.27977(10) 0.96063(14) 0.4722(4)
C42_3 C 0.24179(10) 0.92152(13) 0.4063(5)
C43_4 C 0.23648(10) 0.87431(13) 0.5171(5)
H27_4 H 0.256007 0.867688 0.633884
C44_3 C 0.21252(11) 0.93215(13) 0.2329(5)
H28_3 H 0.216068 0.963688 0.160772
C45_3 C 0.17811(11) 0.89584(15) 0.1676(5)
H29_3 H 0.092893 0.884108 0.084454
O8_2 O 0.68352(9) 0.14360(10) 0.0766(4)
H25_4 H 0.702351 0.245299 0.007255
Zn4_2 Zn 0.67576(2) 0.05925(2) 0.10938(5)
O13_2 O 0.83021(10) 0.40503(10) 0.1882(4)
O12_2 O 0.72346(7) 0.00775(9) 0.1120(3)
O5_4 O 0.68738(7) 0.05507(9) 0.4039(3)
N1_4 N 0.61151(8) 0.03699(12) 0.0649(4)
C1_4 C 0.58067(12) 0.07588(17) 0.0456(7)
H2_4 H 0.588954 0.113430 0.050614
C4_4 C 0.52345(10) 0.00799(14) 0.0131(5)
C5_4 C 0.53666(12) 0.06320(15) 0.0184(7)
H5_4 H 0.516104 0.091897 0.003812
C6_4 C 0.82141(10) 0.35886(14) 0.1039(5)
C7_4 C 0.81636(11) 0.30779(14) 0.2172(5)
C8_4 C 0.82354(11) 0.31098(14) 0.4151(5)
H6_4 H 0.832733 0.344664 0.477000
C9_3 C 0.81709(12) 0.26358(14) 0.5250(5)
H7_3 H 0.821511 0.266177 0.658446
C10_4 C 0.80406(10) 0.21292(14) 0.4320(5)
C11_4 C 0.79683(12) 0.21040(14) 0.2339(5)
H8_4 H 0.787803 0.176775 0.171094
C12_4 C 0.80278(12) 0.25721(15) 0.1265(5)
C13_3 C 0.79803(11) 0.16264(14) 0.5478(5)
C14_3 C 0.82691(11) 0.15086(14) 0.7224(5)
H10_3 H 0.850241 0.175019 0.766548
C15_3 C 0.72023(10) 0.03937(14) 0.5278(4)
C16_3 C 0.75821(10) 0.07848(13) 0.5937(5)
C17_4 C 0.76352(10) 0.12569(13) 0.4829(5)
H11_4 H 0.743993 0.132312 0.366116
C18_3 C 0.78748(11) 0.06785(13) 0.7671(5)
H12_3 H 0.783932 0.036312 0.839228
C19_3 C 0.82189(11) 0.10416(15) 0.8324(5)
H13_3 H 0.907107 0.115892 0.915546
O9_2 O 0.55873(14) 0.44588(19) 0.3186(5)
H21_2 H 0.537268 0.444978 0.228763
O10_2 O 0.50894(15) 0.4348(3) 0.4792(6)
C46_2 C 0.64502(12) 0.40775(14) 0.9839(5)
C47_2 C 0.60155(13) 0.3980(2) 0.9764(6)
C48_2 C 0.57056(15) 0.4087(2) 0.8092(7)
H30_2 H 0.541242 0.402177 0.806731
C49_2 C 0.58230(15) 0.42888(19) 0.6473(6)
C50_2 C 0.62566(15) 0.43909(16) 0.6542(6)
H31_2 H 0.634009 0.452790 0.545144
C51_2 C 0.65727(13) 0.42930(15) 0.8213(5)
H32_2 H 0.686460 0.437087 0.824705
C52_2 C 0.54730(18) 0.4377(2) 0.4715(7)
C9_4 C 0.18291(12) 0.26358(14) 0.9750(5)
H7_4 H 0.178489 0.266177 0.841554
C13_4 C 0.20197(11) 0.16264(14) 0.9522(5)
C14_4 C 0.17309(11) 0.15086(14) 0.7776(5)
H10_4 H 0.149759 0.175019 0.733452
C15_4 C 0.27977(10) 0.03937(14) 0.9722(4)
C16_4 C 0.24179(10) 0.07848(13) 0.9063(5)
C18_4 C 0.21252(11) 0.06785(13) 0.7329(5)
H12_4 H 0.216068 0.036312 0.660772
C19_4 C 0.17811(11) 0.10416(15) 0.6676(5)
C20_3 C 0.14502(12) 0.09225(14) 0.4839(5)
C21_3 C 0.10155(13) 0.1020(2) 0.4764(6)
H13_4 H 0.092893 0.115892 0.584454
C22_3 C 0.07056(15) 0.0913(2) 0.3092(7)
H14_3 H 0.041242 0.097823 0.306731
C23_3 C 0.08230(15) 0.07112(19) 0.1473(6)
C24_3 C 0.12566(15) 0.06091(16) 0.1542(6)
H15_3 H 0.134009 0.047210 0.045144
C25_3 C 0.15727(13) 0.07070(15) 0.3213(5)
H16_3 H 0.186460 0.062913 0.324705
O3_3 O 0.05873(14) 0.05412(19) 0.8186(5)
H1_3 H 0.037268 0.055022 0.728763
O4_3 O 0.00894(15) 0.0652(3) 0.9792(6)
C26_3 C 0.04730(18) 0.0623(2) 0.9715(7)
O9_3 O 0.94127(14) 0.94588(19) 0.1814(5)
H21_3 H 0.962732 0.944978 0.271237
O10_3 O 0.99106(15) 0.9348(3) 0.0208(6)
C52_3 C 0.95270(18) 0.9377(2) 0.0285(7)
C35_4 C 0.81709(12) 0.73642(14) 0.0250(5)
H23_4 H 0.821511 0.733823 0.158446
C39_4 C 0.79803(11) 0.83736(14) 0.0478(5)
C40_4 C 0.82691(11) 0.84914(14) 0.2224(5)
H26_4 H 0.850241 0.824981 0.266548
C41_4 C 0.72023(10) 0.96063(14) 0.0278(4)
C42_4 C 0.75821(10) 0.92152(13) 0.0937(5)
C44_4 C 0.78748(11) 0.93215(13) 0.2671(5)
H28_4 H 0.783932 0.963688 0.339228
C45_4 C 0.82189(11) 0.89584(15) 0.3324(5)
C46_3 C 0.85498(12) 0.90775(14) 0.5161(5)
C47_3 C 0.89845(13) 0.8980(2) 0.5236(6)
H29_4 H 0.907107 0.884108 0.415546
C48_3 C 0.92944(15) 0.9087(2) 0.6908(7)
H30_3 H 0.958758 0.902177 0.693269
C49_3 C 0.91770(15) 0.92888(19) 0.8527(6)
C50_3 C 0.87434(15) 0.93909(16) 0.8458(6)
H31_3 H 0.865991 0.952790 0.954856
C51_3 C 0.84273(13) 0.92930(15) 0.6787(5)
H32_3 H 0.813540 0.937087 0.675295
O3_4 O 0.94127(14) 0.05412(19) 0.6814(5)
H1_4 H 0.962732 0.055022 0.771237
O4_4 O 0.99106(15) 0.0652(3) 0.5208(6)
C20_4 C 0.85498(12) 0.09225(14) 0.0161(5)
C21_4 C 0.89845(13) 0.1020(2) 0.0236(6)
C22_4 C 0.92944(15) 0.0913(2) 0.1908(7)
H14_4 H 0.958758 0.097823 0.193269
C23_4 C 0.91770(15) 0.07112(19) 0.3527(6)
C24_4 C 0.87434(15) 0.06091(16) 0.3458(6)
H15_4 H 0.865991 0.047210 0.454856
C25_4 C 0.84273(13) 0.07070(15) 0.1787(5)
H16_4 H 0.813540 0.062913 0.175295
C26_4 C 0.95270(18) 0.0623(2) 0.5285(7)
O9_4 O 0.05873(14) 0.94588(19) 0.3186(5)
H21_4 H 0.037268 0.944978 0.228763
O10_4 O 0.00894(15) 0.9348(3) 0.4792(6)
C46_4 C 0.14502(12) 0.90775(14) 0.9839(5)
C47_4 C 0.10155(13) 0.8980(2) 0.9764(6)
C48_4 C 0.07056(15) 0.9087(2) 0.8092(7)
H30_4 H 0.041242 0.902177 0.806731
C49_4 C 0.08230(15) 0.92888(19) 0.6473(6)
C50_4 C 0.12566(15) 0.93909(16) 0.6542(6)
H31_4 H 0.134009 0.952790 0.545144
C51_4 C 0.15727(13) 0.92930(15) 0.8213(5)
H32_4 H 0.186460 0.937087 0.824705
C52_4 C 0.04730(18) 0.9377(2) 0.4715(7)
loop_
_geom_bond_atom_site_label_1
_geom_bond_atom_site_label_2
_geom_bond_site_symmetry_1
_geom_bond_site_symmetry_2
O9 H21 1_555 1_555
O10 C52 1_555 1_555
C52 O9 1_555 1_555
O12 C41 1_555 1_555
H23 C35 1_555 1_555
C40 C39 1_555 1_555
H26 C40 1_555 1_555
C42 C41 1_555 1_555
C44 C42 1_555 1_555
H28 C44 1_555 1_555
C45 C40 1_555 1_555
C46 C45 1_555 1_555
C47 C46 1_555 1_555
H29 C47 1_555 1_555
C48 C47 1_555 1_555
H30 C48 1_555 1_555
C49 C48 1_555 1_555
C50 C49 1_555 1_555
H31 C50 1_555 1_555
C51 C46 1_555 1_555
H32 C51 1_555 1_555
Zn3 O12 1_555 1_555
C44 C45 1_555 1_555
C50 C51 1_555 1_555
N2 C27 1_555 1_555
C27 H17 1_555 1_555
C28 N2 1_555 1_555
H18 C28 1_555 1_555
C29 C28 1_555 1_555
H19 C29 1_555 1_555
C31 C27 1_555 1_555
H20 C31 1_555 1_555
Zn2 N2 1_555 1_555
O7 C32 1_555 1_555
O8 C32 1_555 1_555
O11 Zn2 1_555 1_555
C32 C33 1_555 1_555
C33 C34 1_555 1_555
C34 H22 1_555 1_555
C37 C36 1_555 1_555
H24 C37 1_555 1_555
C38 C33 1_555 1_555
H25 C38 1_555 1_555
H27 C43 1_555 1_555
Zn4 O7 1_555 1_555
O13 Zn2 1_555 1_555
O15 Zn2 1_555 1_555
O17 Zn2 1_555 1_555
C29 C30 1_555 1_555
C30 C31 1_555 1_555
O8 Zn4 1_555 1_555
C37 C38 1_555 1_555
Zn1 O5 1_555 1_555
O1 C6 1_555 1_555
O2 C6 1_555 1_555
N1 Zn1 1_555 1_555
C1 N1 1_555 1_555
H2 C1 1_555 1_555
C2 N1 1_555 1_555
H3 C2 1_555 1_555
C3 C2 1_555 1_555
H4 C3 1_555 1_555
C4 C3 1_555 1_555
C5 C1 1_555 1_555
H5 C5 1_555 1_555
C6 C7 1_555 1_555
C7 C8 1_555 1_555
C8 H6 1_555 1_555
C11 C10 1_555 1_555
H8 C11 1_555 1_555
C12 C7 1_555 1_555
H9 C12 1_555 1_555
H11 C17 1_555 1_555
Zn6 O1 1_555 1_555
O14 Zn1 1_555 1_555
O16 Zn1 1_555 1_555
O18 Zn1 1_555 1_555
O2 Zn6 1_555 1_555
C4 C5 1_555 1_555
C11 C12 1_555 1_555
O6 C15 1_555 1_555
H7 C9 1_555 1_555
C14 C13 1_555 1_555
H10 C14 1_555 1_555
C15 C16 1_555 1_555
C18 C16 1_555 1_555
H12 C18 1_555 1_555
C19 C14 1_555 1_555
C20 C19 1_555 1_555
C21 C20 1_555 1_555
H13 C21 1_555 1_555
C22 C21 1_555 1_555
H14 C22 1_555 1_555
C23 C22 1_555 1_555
C24 C23 1_555 1_555
H15 C24 1_555 1_555
C25 C20 1_555 1_555
H16 C25 1_555 1_555
Zn5 O6 1_555 1_555
C18 C19 1_555 1_555
C24 C25 1_555 1_555
Zn3 O5_2 1_555 1_555
O1_2 C6_2 1_555 1_555
O5_2 C15_2 1_555 1_555
O17 C15_2 1_555 1_555
N1_2 Zn3 1_555 1_555
C1_2 N1_2 1_555 1_555
H2_2 C1_2 1_555 1_555
C2_2 N1_2 1_555 1_555
H3_2 C2_2 1_555 1_555
C3_2 C2_2 1_555 1_555
H4_2 C3_2 1_555 1_555
C4_2 C3_2 1_555 1_555
C5_2 C1_2 1_555 1_555
H5_2 C5_2 1_555 1_555
C6_2 C7_2 1_555 1_555
C7_2 C8_2 1_555 1_555
C8_2 H6_2 1_555 1_555
C9_2 C8_2 1_555 1_555
H7_2 C9_2 1_555 1_555
C10_2 C9_2 1_555 1_555
C11_2 C10_2 1_555 1_555
H8_2 C11_2 1_555 1_555
C12_2 C7_2 1_555 1_555
C13_2 C10_2 1_555 1_555
C14_2 C13_2 1_555 1_555
H10_2 C14_2 1_555 1_555
C15_2 C16_2 1_555 1_555
C16_2 C17_2 1_555 1_555
C17_2 C13_2 1_555 1_555
H11_2 C17_2 1_555 1_555
C18_2 C16_2 1_555 1_555
H12_2 C18_2 1_555 1_555
C19_2 C14_2 1_555 1_555
O16_2 Zn3 1_555 1_555
C4_2 C5_2 1_555 1_555
C11_2 C12_2 1_555 1_555
C18_2 C19_2 1_555 1_555
N2_2 C27_2 1_555 1_555
C27_2 H17_2 1_555 1_555
C28_2 N2_2 1_555 1_555
H18_2 C28_2 1_555 1_555
C29_2 C28_2 1_555 1_555
H19_2 C29_2 1_555 1_555
C31_2 C27_2 1_555 1_555
H20_2 C31_2 1_555 1_555
Zn5 N2_2 1_555 1_555
O7_2 C32_2 1_555 1_555
O11_2 Zn5 1_555 1_555
O18 C41_2 1_555 1_555
C32_2 C33_2 1_555 1_555
C33_2 C34_2 1_555 1_555
C34_2 H22_2 1_555 1_555
C35_2 C34_2 1_555 1_555
H23_2 C35_2 1_555 1_555
C36_2 C35_2 1_555 1_555
C37_2 C36_2 1_555 1_555
H24_2 C37_2 1_555 1_555
C38_2 C33_2 1_555 1_555
C39_2 C36_2 1_555 1_555
C40_2 C39_2 1_555 1_555
H26_2 C40_2 1_555 1_555
C41_2 O11_2 1_555 1_555
C42_2 C41_2 1_555 1_555
C43_2 C39_2 1_555 1_555
H27_2 C43_2 1_555 1_555
C44_2 C42_2 1_555 1_555
H28_2 C44_2 1_555 1_555
C45_2 C40_2 1_555 1_555
O15_2 Zn5 1_555 1_555
C29_2 C30_2 1_555 1_555
C30_2 C31_2 1_555 1_555
C37_2 C38_2 1_555 1_555
C42_2 C43_2 1_555 1_555
C44_2 C45_2 1_555 1_555
Zn4 O5_3 1_555 1_555
O13 C6_3 1_555 1_555
O15 C6_3 1_555 1_555
N1_3 Zn4 1_555 1_555
C1_3 N1_3 1_555 1_555
H2_3 C1_3 1_555 1_555
C5_3 C1_3 1_555 1_555
H5_3 C5_3 1_555 1_555
C6_3 C7_3 1_555 1_555
C7_3 C8_3 1_555 1_555
C8_3 H6_3 1_555 1_555
C11_3 C10_3 1_555 1_555
H8_3 C11_3 1_555 1_555
C12_3 C7_3 1_555 1_555
H9_2 C12_3 1_555 1_555
H11_3 C17_3 1_555 1_555
H18_3 C28_3 1_555 1_555
C29_3 C28_3 1_555 1_555
H19_3 C29_3 1_555 1_555
O18_2 Zn4 1_555 1_555
C4_3 C5_3 1_555 1_555
C11_3 C12_3 1_555 1_555
H3_3 C2_3 1_555 1_555
C3_3 C2_3 1_555 1_555
H4_3 C3_3 1_555 1_555
N2_3 C27_3 1_555 1_555
C27_3 H17_3 1_555 1_555
C31_3 C27_3 1_555 1_555
H20_3 C31_3 1_555 1_555
Zn6 N2_3 1_555 1_555
O14 C32_3 1_555 1_555
O16 C32_3 1_555 1_555
O11_3 Zn6 1_555 1_555
C32_3 C33_3 1_555 1_555
C33_3 C34_3 1_555 1_555
C34_3 H22_3 1_555 1_555
C37_3 C36_3 1_555 1_555
H24_3 C37_3 1_555 1_555
C38_3 C33_3 1_555 1_555
H25_2 C38_3 1_555 1_555
H27_3 C43_3 1_555 1_555
O17_2 Zn6 1_555 1_555
C30_3 C31_3 1_555 1_555
C37_3 C38_3 1_555 1_555
H18_4 C28_4 1_555 1_555
C29_4 C28_4 1_555 1_555
H19_4 C29_4 1_555 1_555
H3_4 C2_4 1_555 1_555
C3_4 C2_4 1_555 1_555
H4_4 C3_4 1_555 1_555
O3 H1 1_555 1_555
O4 C26 1_555 1_555
C26 O3 1_555 1_555
O3_2 H1_2 1_555 1_555
O4_2 C26_2 1_555 1_555
C21_2 C20_2 1_555 1_555
C22_2 C21_2 1_555 1_555
H14_2 C22_2 1_555 1_555
C23_2 C22_2 1_555 1_555
C24_2 C23_2 1_555 1_555
H15_2 C24_2 1_555 1_555
C25_2 C20_2 1_555 1_555
H16_2 C25_2 1_555 1_555
C26_2 O3_2 1_555 1_555
C23_2 C26_2 1_555 1_555
C24_2 C25_2 1_555 1_555
O2_2 Zn6_2 1_555 1_555
Zn6_2 O6_2 1_555 1_555
N2_4 C27_4 1_555 1_555
C27_4 H17_4 1_555 1_555
C31_4 C27_4 1_555 1_555
H20_4 C31_4 1_555 1_555
Zn6_2 N2_4 1_555 1_555
O14_2 C32_4 1_555 1_555
O11_4 Zn6_2 1_555 1_555
C32_4 C33_4 1_555 1_555
C33_4 C34_4 1_555 1_555
C34_4 H22_4 1_555 1_555
C35_3 C34_4 1_555 1_555
H23_3 C35_3 1_555 1_555
C36_4 C35_3 1_555 1_555
C37_4 C36_4 1_555 1_555
H24_4 C37_4 1_555 1_555
C38_4 C33_4 1_555 1_555
C39_3 C36_4 1_555 1_555
C40_3 C39_3 1_555 1_555
H26_3 C40_3 1_555 1_555
C41_3 O11_4 1_555 1_555
C42_3 C41_3 1_555 1_555
C43_4 C39_3 1_555 1_555
H27_4 C43_4 1_555 1_555
C44_3 C42_3 1_555 1_555
H28_3 C44_3 1_555 1_555
C45_3 C40_3 1_555 1_555
C30_4 C31_4 1_555 1_555
C37_4 C38_4 1_555 1_555
C42_3 C43_4 1_555 1_555
C44_3 C45_3 1_555 1_555
O8_2 Zn4_2 1_555 1_555
Zn4_2 O12_2 1_555 1_555
Zn4_2 O5_4 1_555 1_555
O13_2 C6_4 1_555 1_555
O5_4 C15_3 1_555 1_555
N1_4 Zn4_2 1_555 1_555
C1_4 N1_4 1_555 1_555
H2_4 C1_4 1_555 1_555
C5_4 C1_4 1_555 1_555
H5_4 C5_4 1_555 1_555
C6_4 C7_4 1_555 1_555
C7_4 C8_4 1_555 1_555
C8_4 H6_4 1_555 1_555
C9_3 C8_4 1_555 1_555
H7_3 C9_3 1_555 1_555
C10_4 C9_3 1_555 1_555
C11_4 C10_4 1_555 1_555
H8_4 C11_4 1_555 1_555
C12_4 C7_4 1_555 1_555
C13_3 C10_4 1_555 1_555
C14_3 C13_3 1_555 1_555
H10_3 C14_3 1_555 1_555
C15_3 C16_3 1_555 1_555
C16_3 C17_4 1_555 1_555
C17_4 C13_3 1_555 1_555
H11_4 C17_4 1_555 1_555
C18_3 C16_3 1_555 1_555
H12_3 C18_3 1_555 1_555
C19_3 C14_3 1_555 1_555
C4_4 C5_4 1_555 1_555
C11_4 C12_4 1_555 1_555
C18_3 C19_3 1_555 1_555
O9_2 H21_2 1_555 1_555
O10_2 C52_2 1_555 1_555
C47_2 C46_2 1_555 1_555
C48_2 C47_2 1_555 1_555
H30_2 C48_2 1_555 1_555
C49_2 C48_2 1_555 1_555
C50_2 C49_2 1_555 1_555
H31_2 C50_2 1_555 1_555
C51_2 C46_2 1_555 1_555
H32_2 C51_2 1_555 1_555
C52_2 O9_2 1_555 1_555
C49_2 C52_2 1_555 1_555
C50_2 C51_2 1_555 1_555
H7_4 C9_4 1_555 1_555
C14_4 C13_4 1_555 1_555
H10_4 C14_4 1_555 1_555
C15_4 C16_4 1_555 1_555
C18_4 C16_4 1_555 1_555
H12_4 C18_4 1_555 1_555
C19_4 C14_4 1_555 1_555
C20_3 C19_4 1_555 1_555
C21_3 C20_3 1_555 1_555
H13_4 C21_3 1_555 1_555
C22_3 C21_3 1_555 1_555
H14_3 C22_3 1_555 1_555
C23_3 C22_3 1_555 1_555
C24_3 C23_3 1_555 1_555
H15_3 C24_3 1_555 1_555
C25_3 C20_3 1_555 1_555
H16_3 C25_3 1_555 1_555
C18_4 C19_4 1_555 1_555
C24_3 C25_3 1_555 1_555
O3_3 H1_3 1_555 1_555
O4_3 C26_3 1_555 1_555
C26_3 O3_3 1_555 1_555
O9_3 H21_3 1_555 1_555
O10_3 C52_3 1_555 1_555
C52_3 O9_3 1_555 1_555
H23_4 C35_4 1_555 1_555
C40_4 C39_4 1_555 1_555
H26_4 C40_4 1_555 1_555
C42_4 C41_4 1_555 1_555
C44_4 C42_4 1_555 1_555
H28_4 C44_4 1_555 1_555
C45_4 C40_4 1_555 1_555
C46_3 C45_4 1_555 1_555
C47_3 C46_3 1_555 1_555
H29_4 C47_3 1_555 1_555
C48_3 C47_3 1_555 1_555
H30_3 C48_3 1_555 1_555
C49_3 C48_3 1_555 1_555
C50_3 C49_3 1_555 1_555
H31_3 C50_3 1_555 1_555
C51_3 C46_3 1_555 1_555
H32_3 C51_3 1_555 1_555
C44_4 C45_4 1_555 1_555
C50_3 C51_3 1_555 1_555
O3_4 H1_4 1_555 1_555
O4_4 C26_4 1_555 1_555
C21_4 C20_4 1_555 1_555
C22_4 C21_4 1_555 1_555
H14_4 C22_4 1_555 1_555
C23_4 C22_4 1_555 1_555
C24_4 C23_4 1_555 1_555
H15_4 C24_4 1_555 1_555
C25_4 C20_4 1_555 1_555
H16_4 C25_4 1_555 1_555
C26_4 O3_4 1_555 1_555
C23_4 C26_4 1_555 1_555
C24_4 C25_4 1_555 1_555
O9_4 H21_4 1_555 1_555
O10_4 C52_4 1_555 1_555
C47_4 C46_4 1_555 1_555
C48_4 C47_4 1_555 1_555
H30_4 C48_4 1_555 1_555
C49_4 C48_4 1_555 1_555
C50_4 C49_4 1_555 1_555
H31_4 C50_4 1_555 1_555
C51_4 C46_4 1_555 1_555
H32_4 C51_4 1_555 1_555
C52_4 O9_4 1_555 1_555
C49_4 C52_4 1_555 1_555
C50_4 C51_4 1_555 1_555

#END
