
###############################################################################
#
# This file contains modified crystal structure data generated from the
# MOF subset of the Cambridge Structural Database (CSD) v543 
# hosted by the Cambridge Crystallographic Data Centre (CCDC).
#
# This work is licensed under the Creative Commons
# Attribution-NonCommercial-ShareAlike 4.0 International License.
# To view a copy of this license, visit
# http://creativecommons.org/licenses/by-nc-sa/4.0/
# or send a letter to
# Creative Commons, PO Box 1866, Mountain View, CA 94042, USA.
#
# CIF created using the CSD Python API on 29 September 2022
# The structure has been converted into the P1 space group
# The structure has a 3D framework
# The original CSD entry NISBEX is in the monoclinic crystal system
# The framework has been calculated to contain at least 10.0% void space
# The void calculation uses a probe of radius 1.32A, grid spacing 0.4
# H atom positions have been added when not included in the experimental data
#
###############################################################################

data_NISBEX
_chemical_formula_moiety         '(C72 H64 La4 N36 O32)n'
_symmetry_cell_setting           triclinic
_symmetry_space_group_name_H-M   'P 1'
_symmetry_Int_Tables_number      1
_space_group_name_Hall           'P 1'
loop_
_symmetry_equiv_pos_site_id
_symmetry_equiv_pos_as_xyz
1 x,y,z
_cell_length_a                   12.4011(9)
_cell_length_b                   24.8971(18)
_cell_length_c                   8.7794(5)
_cell_angle_alpha                90
_cell_angle_beta                 92.262(3)
_cell_angle_gamma                90
_cell_volume                     2708.54
loop_
_atom_site_label
_atom_site_type_symbol
_atom_site_fract_x
_atom_site_fract_y
_atom_site_fract_z
La3 La 0.00204(2) 0.008463(10) 0.75475(3)
La4 La 0.00204(2) 0.491537(10) 0.25475(3)
O3 O 0.7938(3) 0.00242(14) 0.2989(4)
O6 O 0.8909(3) 0.00364(13) 0.5137(4)
O7 O 0.8484(3) 0.42206(15) 0.3083(4)
O8 O 0.9162(2) 0.46116(13) 0.5164(3)
C5 C 0.4054(4) 0.2252(2) 0.0813(5)
C6 C 0.4555(4) 0.2724(2) 0.1354(5)
H4 H 0.4332 0.3060 0.0971
C7 C 0.5395(4) 0.2688(2) 0.2479(5)
C8 C 0.5894(4) 0.3174(2) 0.3164(5)
N4 N 0.5470(4) 0.36707(19) 0.2951(5)
N5 N 0.6052(4) 0.40198(19) 0.3773(6)
N6 N 0.6834(3) 0.37437(17) 0.4506(4)
C9 C 0.6784(4) 0.3220(2) 0.4163(6)
H5 H 0.7248 0.2944 0.4519
C10 C 0.5723(4) 0.2186(2) 0.3006(5)
H6 H 0.6301 0.2163 0.3728
C11 C 0.5214(3) 0.1715(2) 0.2490(5)
C12 C 0.4373(4) 0.17560(19) 0.1384(5)
H7 H 0.4021 0.1444 0.1025
C13 C 0.5540(4) 0.1195(2) 0.3104(6)
C14 C 0.6292(4) 0.1075(2) 0.4250(6)
H8 H 0.6725 0.1318 0.4819
N7 N 0.6276(3) 0.05444(18) 0.4386(5)
N8 N 0.5556(4) 0.03195(19) 0.3381(5)
N9 N 0.5101(4) 0.07206(18) 0.2609(5)
C15 C 0.8009(3) 0.00815(19) 0.4404(5)
C16 C 0.7010(4) 0.0204(2) 0.5295(5)
H9 H 0.7221 0.0386 0.6250
C17 C 0.8471(4) 0.43000(18) 0.4477(5)
C18 C 0.7634(4) 0.4039(2) 0.5443(5)
H11 H 0.7269 0.4316 0.6026
H12 H 0.7992 0.3792 0.6170
La5 La 0.99796(2) 0.508463(10) 0.74525(3)
O1 O 0.0311(3) 0.09862(15) 0.6190(4)
O2 O 0.0918(3) 0.10350(14) 0.8573(4)
C1 C 0.0791(4) 0.12358(19) 0.7272(5)
C2 C 0.1177(4) 0.1790(2) 0.6861(6)
H1 H 0.1544 0.1766 0.5895
H2 H 0.0545 0.2021 0.6689
N1 N 0.1906(3) 0.20500(16) 0.7981(4)
N2 N 0.1912(4) 0.25855(16) 0.8097(5)
N3 N 0.2677(3) 0.27163(17) 0.9111(5)
C3 C 0.3171(4) 0.2264(2) 0.9649(5)
C4 C 0.2683(4) 0.1833(2) 0.8910(5)
H3 H 0.2855 0.1467 0.9028
H10 H 0.6647 0.9868 0.5548
La2 La 0.99796(2) 0.991537(10) 0.24525(3)
O4 O 0.0250(3) 0.90947(14) 0.6779(4)
O9 O 0.2062(3) 0.99758(14) 0.7011(4)
O11 O 0.1091(3) 0.99636(13) 0.4863(4)
O14 O 0.0838(2) 0.96116(13) 0.9836(3)
H13 H 0.101305 0.902808 0.653221
H14 H 0.00518552 0.885919 0.763687
O13 O 0.9162(2) 0.03884(13) 0.0164(3)
O12 O 0.8484(3) 0.07794(15) 0.8083(4)
O5 O 0.1658(3) 0.45322(16) 0.6862(4)
O10 O 0.1091(3) 0.50364(13) 0.9863(4)
O12_2 O 0.1516(3) 0.57794(15) 0.6917(4)
O13_2 O 0.0838(2) 0.53884(13) 0.4836(3)
H15 H 0.205169 0.443495 0.782972
H16 H 0.143525 0.419994 0.630866
O11_2 O 0.8909(3) 0.49636(13) 0.0137(4)
O1_2 O 0.9689(3) 0.59862(15) 0.8810(4)
O2_2 O 0.9082(3) 0.60350(14) 0.6427(4)
O3_2 O 0.2062(3) 0.50242(14) 0.2011(4)
O4_2 O 0.9750(3) 0.40947(14) 0.8221(4)
O7_2 O 0.1516(3) 0.92206(15) 0.1917(4)
C1_2 C 0.9209(4) 0.62358(19) 0.7728(5)
C2_2 C 0.8823(4) 0.6790(2) 0.8139(6)
H1_2 H 0.8456 0.6766 0.9105
H2_2 H 0.9455 0.7021 0.8311
N1_2 N 0.8094(3) 0.70500(16) 0.7019(4)
N2_2 N 0.8088(4) 0.75855(16) 0.6903(5)
N3_2 N 0.7323(3) 0.77163(17) 0.5889(5)
C3_2 C 0.6829(4) 0.7264(2) 0.5351(5)
C4_2 C 0.7317(4) 0.6833(2) 0.6090(5)
H3_2 H 0.7145 0.6467 0.5972
C5_2 C 0.5946(4) 0.7252(2) 0.4187(5)
C6_2 C 0.5445(4) 0.7724(2) 0.3646(5)
H4_2 H 0.5668 0.8060 0.4029
C7_2 C 0.4605(4) 0.7688(2) 0.2521(5)
C8_2 C 0.4106(4) 0.8174(2) 0.1836(5)
N4_2 N 0.4530(4) 0.86707(19) 0.2049(5)
N5_2 N 0.3948(4) 0.90198(19) 0.1227(6)
N6_2 N 0.3166(3) 0.87437(17) 0.0494(4)
C9_2 C 0.3216(4) 0.8220(2) 0.0837(6)
H5_2 H 0.2752 0.7944 0.0481
C10_2 C 0.4277(4) 0.7186(2) 0.1994(5)
H6_2 H 0.3699 0.7163 0.1272
C11_2 C 0.4786(3) 0.6715(2) 0.2510(5)
C12_2 C 0.5627(4) 0.67560(19) 0.3616(5)
H7_2 H 0.5979 0.6444 0.3975
C13_2 C 0.4460(4) 0.6195(2) 0.1896(6)
C14_2 C 0.3708(4) 0.6075(2) 0.0750(6)
H8_2 H 0.3275 0.6318 0.0181
N7_2 N 0.3724(3) 0.55444(18) 0.0614(5)
N8_2 N 0.4444(4) 0.53195(19) 0.1619(5)
N9_2 N 0.4899(4) 0.57206(18) 0.2391(5)
C15_2 C 0.1991(3) 0.50815(19) 0.0596(5)
C17_2 C 0.1529(4) 0.93000(18) 0.0523(5)
O9_2 O 0.7938(3) 0.49758(14) 0.7989(4)
H13_2 H 0.898695 0.402808 0.846779
H14_2 H 0.994814 0.385919 0.736313
C16_2 C 0.2990(4) 0.5204(2) 0.9705(5)
H9_2 H 0.2779 0.5386 0.8750
H10_2 H 0.3353 0.4868 0.9452
C18_2 C 0.2366(4) 0.9039(2) 0.9557(5)
H11_2 H 0.2731 0.9316 0.8974
H12_2 H 0.2008 0.8792 0.8830
O4_3 O 0.9750(3) 0.09053(14) 0.3221(4)
H13_3 H 0.898695 0.0971916 0.346779
H14_3 H 0.994814 0.114081 0.236313
H10_3 H 0.3353 0.0132 0.4452
O1_3 O 0.9689(3) 0.90138(15) 0.3810(4)
O2_3 O 0.9082(3) 0.89650(14) 0.1427(4)
C1_3 C 0.9209(4) 0.87642(19) 0.2728(5)
C2_3 C 0.8823(4) 0.8210(2) 0.3139(6)
H1_3 H 0.8456 0.8234 0.4105
H2_3 H 0.9455 0.7979 0.3311
N1_3 N 0.8094(3) 0.79500(16) 0.2019(4)
N2_3 N 0.8088(4) 0.74145(16) 0.1903(5)
N3_3 N 0.7323(3) 0.72837(17) 0.0889(5)
C3_3 C 0.6829(4) 0.7736(2) 0.0351(5)
C4_3 C 0.7317(4) 0.8167(2) 0.1090(5)
H3_3 H 0.7145 0.8533 0.0972
C5_3 C 0.5946(4) 0.7748(2) 0.9187(5)
C6_3 C 0.5445(4) 0.7276(2) 0.8646(5)
H4_3 H 0.5668 0.6940 0.9029
C7_3 C 0.4605(4) 0.7312(2) 0.7521(5)
C8_3 C 0.4106(4) 0.6826(2) 0.6836(5)
N4_3 N 0.4530(4) 0.63293(19) 0.7049(5)
N5_3 N 0.3948(4) 0.59802(19) 0.6227(6)
N6_3 N 0.3166(3) 0.62563(17) 0.5494(4)
C9_3 C 0.3216(4) 0.6780(2) 0.5837(6)
H5_3 H 0.2752 0.7056 0.5481
C10_3 C 0.4277(4) 0.7814(2) 0.6994(5)
H6_3 H 0.3699 0.7837 0.6272
C11_3 C 0.4786(3) 0.8285(2) 0.7510(5)
C12_3 C 0.5627(4) 0.82440(19) 0.8616(5)
H7_3 H 0.5979 0.8556 0.8975
C13_3 C 0.4460(4) 0.8805(2) 0.6896(6)
C14_3 C 0.3708(4) 0.8925(2) 0.5750(6)
H8_3 H 0.3275 0.8682 0.5181
N7_3 N 0.3724(3) 0.94556(18) 0.5614(5)
N8_3 N 0.4444(4) 0.96805(19) 0.6619(5)
N9_3 N 0.4899(4) 0.92794(18) 0.7391(5)
C15_3 C 0.1991(3) 0.99185(19) 0.5596(5)
C16_3 C 0.2990(4) 0.9796(2) 0.4705(5)
H9_3 H 0.2779 0.9614 0.3750
C17_3 C 0.1529(4) 0.57000(18) 0.5523(5)
C18_3 C 0.2366(4) 0.5961(2) 0.4557(5)
H11_3 H 0.2731 0.5684 0.3974
H12_3 H 0.2008 0.6208 0.3830
C16_4 C 0.7010(4) 0.4796(2) 0.0295(5)
H9_4 H 0.7221 0.4614 0.1250
H10_4 H 0.6647 0.5132 0.0548
C18_4 C 0.7634(4) 0.0961(2) 0.0443(5)
H11_4 H 0.7269 0.0684 0.1026
H12_4 H 0.7992 0.1208 0.1170
O1_4 O 0.0311(3) 0.40138(15) 0.1190(4)
O2_4 O 0.0918(3) 0.39650(14) 0.3573(4)
O4_4 O 0.0250(3) 0.59053(14) 0.1779(4)
C1_4 C 0.0791(4) 0.37642(19) 0.2272(5)
C2_4 C 0.1177(4) 0.3210(2) 0.1861(6)
H1_4 H 0.1544 0.3234 0.0895
H2_4 H 0.0545 0.2979 0.1689
N1_4 N 0.1906(3) 0.29500(16) 0.2981(4)
N2_4 N 0.1912(4) 0.24145(16) 0.3097(5)
N3_4 N 0.2677(3) 0.22837(17) 0.4111(5)
C3_4 C 0.3171(4) 0.2736(2) 0.4649(5)
C4_4 C 0.2683(4) 0.3167(2) 0.3910(5)
H3_4 H 0.2855 0.3533 0.4028
C5_4 C 0.4054(4) 0.2748(2) 0.5813(5)
C6_4 C 0.4555(4) 0.2276(2) 0.6354(5)
H4_4 H 0.4332 0.1940 0.5971
C7_4 C 0.5395(4) 0.2312(2) 0.7479(5)
C8_4 C 0.5894(4) 0.1826(2) 0.8164(5)
N4_4 N 0.5470(4) 0.13293(19) 0.7951(5)
N5_4 N 0.6052(4) 0.09802(19) 0.8773(6)
N6_4 N 0.6834(3) 0.12563(17) 0.9506(4)
C9_4 C 0.6784(4) 0.1780(2) 0.9163(6)
H5_4 H 0.7248 0.2056 0.9519
C10_4 C 0.5723(4) 0.2814(2) 0.8006(5)
H6_4 H 0.6301 0.2837 0.8728
C11_4 C 0.5214(3) 0.3285(2) 0.7490(5)
C12_4 C 0.4373(4) 0.32440(19) 0.6384(5)
H7_4 H 0.4021 0.3556 0.6025
C13_4 C 0.5540(4) 0.3805(2) 0.8104(6)
C14_4 C 0.6292(4) 0.3925(2) 0.9250(6)
H8_4 H 0.6725 0.3682 0.9819
N7_4 N 0.6276(3) 0.44556(18) 0.9386(5)
N8_4 N 0.5556(4) 0.46805(19) 0.8381(5)
N9_4 N 0.5101(4) 0.42794(18) 0.7609(5)
C15_4 C 0.8009(3) 0.49185(19) 0.9404(5)
C17_4 C 0.8471(4) 0.07000(18) 0.9477(5)
H13_4 H 0.101305 0.597192 0.153221
H14_4 H 0.00518552 0.614081 0.263687
O5_2 O 0.8342(3) 0.54678(16) 0.3138(4)
H15_2 H 0.794831 0.556505 0.217028
H16_2 H 0.856475 0.580006 0.369134
O5_3 O 0.8342(3) 0.95322(16) 0.8138(4)
H15_3 H 0.794831 0.943495 0.717028
H16_3 H 0.856475 0.919994 0.869134
O5_4 O 0.1658(3) 0.04678(16) 0.1862(4)
H15_4 H 0.205169 0.0565048 0.282972
H16_4 H 0.143525 0.0800065 0.130866
loop_
_geom_bond_atom_site_label_1
_geom_bond_atom_site_label_2
_geom_bond_site_symmetry_1
_geom_bond_site_symmetry_2
O3 C15 1_555 1_555
O6 C15 1_555 1_555
O7 C17 1_555 1_555
O8 C17 1_555 1_555
C6 C5 1_555 1_555
H4 C6 1_555 1_555
C7 C6 1_555 1_555
C8 C7 1_555 1_555
N4 C8 1_555 1_555
N5 N4 1_555 1_555
N6 N5 1_555 1_555
C9 C8 1_555 1_555
H5 C9 1_555 1_555
C10 C7 1_555 1_555
H6 C10 1_555 1_555
C11 C10 1_555 1_555
C12 C5 1_555 1_555
H7 C12 1_555 1_555
C13 C11 1_555 1_555
C14 C13 1_555 1_555
H8 C14 1_555 1_555
N7 C14 1_555 1_555
N8 N7 1_555 1_555
N9 C13 1_555 1_555
C15 C16 1_555 1_555
C16 N7 1_555 1_555
H9 C16 1_555 1_555
C17 C18 1_555 1_555
C18 N6 1_555 1_555
H11 C18 1_555 1_555
H12 C18 1_555 1_555
La5 O8 1_555 1_555
N6 C9 1_555 1_555
C11 C12 1_555 1_555
N8 N9 1_555 1_555
La3 O1 1_555 1_555
O1 C1 1_555 1_555
O2 La3 1_555 1_555
C1 O2 1_555 1_555
C2 C1 1_555 1_555
H1 C2 1_555 1_555
H2 C2 1_555 1_555
N1 C2 1_555 1_555
N2 N1 1_555 1_555
N3 N2 1_555 1_555
C3 N3 1_555 1_555
C4 N1 1_555 1_555
H3 C4 1_555 1_555
C3 C4 1_555 1_555
O4 H13 1_555 1_555
O4 H14 1_555 1_555
O5 H15 1_555 1_555
O5 H16 1_555 1_555
La5 O1_2 1_555 1_555
O1_2 C1_2 1_555 1_555
O2_2 La5 1_555 1_555
O3_2 C15_2 1_555 1_555
O4_2 La5 1_555 1_555
O7_2 C17_2 1_555 1_555
C1_2 O2_2 1_555 1_555
C2_2 C1_2 1_555 1_555
H1_2 C2_2 1_555 1_555
H2_2 C2_2 1_555 1_555
N1_2 C2_2 1_555 1_555
N2_2 N1_2 1_555 1_555
N3_2 N2_2 1_555 1_555
C3_2 N3_2 1_555 1_555
C4_2 N1_2 1_555 1_555
H3_2 C4_2 1_555 1_555
C5_2 C3_2 1_555 1_555
C6_2 C5_2 1_555 1_555
H4_2 C6_2 1_555 1_555
C7_2 C6_2 1_555 1_555
C8_2 C7_2 1_555 1_555
N4_2 C8_2 1_555 1_555
N5_2 N4_2 1_555 1_555
N6_2 N5_2 1_555 1_555
C9_2 C8_2 1_555 1_555
H5_2 C9_2 1_555 1_555
C10_2 C7_2 1_555 1_555
H6_2 C10_2 1_555 1_555
C11_2 C10_2 1_555 1_555
C12_2 C5_2 1_555 1_555
H7_2 C12_2 1_555 1_555
C13_2 C11_2 1_555 1_555
C14_2 C13_2 1_555 1_555
H8_2 C14_2 1_555 1_555
N7_2 C14_2 1_555 1_555
N8_2 N7_2 1_555 1_555
N9_2 C13_2 1_555 1_555
La4 O3_2 1_555 1_555
O9_2 La5 1_555 1_555
C3_2 C4_2 1_555 1_555
N6_2 C9_2 1_555 1_555
C11_2 C12_2 1_555 1_555
N8_2 N9_2 1_555 1_555
O4_2 H13_2 1_555 1_555
O4_2 H14_2 1_555 1_555
H9_2 C16_2 1_555 1_555
H10_2 C16_2 1_555 1_555
H11_2 C18_2 1_555 1_555
H12_2 C18_2 1_555 1_555
O4_3 H13_3 1_555 1_555
O4_3 H14_3 1_555 1_555
La2 O1_3 1_555 1_555
O1_3 C1_3 1_555 1_555
O2_3 La2 1_555 1_555
C1_3 O2_3 1_555 1_555
C2_3 C1_3 1_555 1_555
H1_3 C2_3 1_555 1_555
H2_3 C2_3 1_555 1_555
N1_3 C2_3 1_555 1_555
N2_3 N1_3 1_555 1_555
N3_3 N2_3 1_555 1_555
C3_3 N3_3 1_555 1_555
C4_3 N1_3 1_555 1_555
H3_3 C4_3 1_555 1_555
C3_3 C4_3 1_555 1_555
O9 C15_3 1_555 1_555
O11 C15_3 1_555 1_555
O12_2 C17_3 1_555 1_555
O13_2 C17_3 1_555 1_555
C6_3 C5_3 1_555 1_555
H4_3 C6_3 1_555 1_555
C7_3 C6_3 1_555 1_555
C8_3 C7_3 1_555 1_555
N4_3 C8_3 1_555 1_555
N5_3 N4_3 1_555 1_555
N6_3 N5_3 1_555 1_555
C9_3 C8_3 1_555 1_555
H5_3 C9_3 1_555 1_555
C10_3 C7_3 1_555 1_555
H6_3 C10_3 1_555 1_555
C11_3 C10_3 1_555 1_555
C12_3 C5_3 1_555 1_555
H7_3 C12_3 1_555 1_555
C13_3 C11_3 1_555 1_555
C14_3 C13_3 1_555 1_555
H8_3 C14_3 1_555 1_555
N7_3 C14_3 1_555 1_555
N8_3 N7_3 1_555 1_555
N9_3 C13_3 1_555 1_555
C15_3 C16_3 1_555 1_555
C16_3 N7_3 1_555 1_555
H9_3 C16_3 1_555 1_555
C17_3 C18_3 1_555 1_555
C18_3 N6_3 1_555 1_555
H11_3 C18_3 1_555 1_555
H12_3 C18_3 1_555 1_555
La4 O13_2 1_555 1_555
N6_3 C9_3 1_555 1_555
C11_3 C12_3 1_555 1_555
N8_3 N9_3 1_555 1_555
H9_4 C16_4 1_555 1_555
H10_4 C16_4 1_555 1_555
H11_4 C18_4 1_555 1_555
H12_4 C18_4 1_555 1_555
La4 O1_4 1_555 1_555
O1_4 C1_4 1_555 1_555
O2_4 La4 1_555 1_555
O9_2 C15_4 1_555 1_555
O4_4 La4 1_555 1_555
O12 C17_4 1_555 1_555
C1_4 O2_4 1_555 1_555
C2_4 C1_4 1_555 1_555
H1_4 C2_4 1_555 1_555
H2_4 C2_4 1_555 1_555
N1_4 C2_4 1_555 1_555
N2_4 N1_4 1_555 1_555
N3_4 N2_4 1_555 1_555
C3_4 N3_4 1_555 1_555
C4_4 N1_4 1_555 1_555
H3_4 C4_4 1_555 1_555
C5_4 C3_4 1_555 1_555
C6_4 C5_4 1_555 1_555
H4_4 C6_4 1_555 1_555
C7_4 C6_4 1_555 1_555
C8_4 C7_4 1_555 1_555
N4_4 C8_4 1_555 1_555
N5_4 N4_4 1_555 1_555
N6_4 N5_4 1_555 1_555
C9_4 C8_4 1_555 1_555
H5_4 C9_4 1_555 1_555
C10_4 C7_4 1_555 1_555
H6_4 C10_4 1_555 1_555
C11_4 C10_4 1_555 1_555
C12_4 C5_4 1_555 1_555
H7_4 C12_4 1_555 1_555
C13_4 C11_4 1_555 1_555
C14_4 C13_4 1_555 1_555
H8_4 C14_4 1_555 1_555
N7_4 C14_4 1_555 1_555
N8_4 N7_4 1_555 1_555
N9_4 C13_4 1_555 1_555
C3_4 C4_4 1_555 1_555
N6_4 C9_4 1_555 1_555
C11_4 C12_4 1_555 1_555
N8_4 N9_4 1_555 1_555
O4_4 H13_4 1_555 1_555
O4_4 H14_4 1_555 1_555
O5_2 H15_2 1_555 1_555
O5_2 H16_2 1_555 1_555
O5_3 H15_3 1_555 1_555
O5_3 H16_3 1_555 1_555
O5_4 H15_4 1_555 1_555
O5_4 H16_4 1_555 1_555

#END
