
###############################################################################
#
# This file contains modified crystal structure data generated from the
# MOF subset of the Cambridge Structural Database (CSD) v543 
# hosted by the Cambridge Crystallographic Data Centre (CCDC).
#
# This work is licensed under the Creative Commons
# Attribution-NonCommercial-ShareAlike 4.0 International License.
# To view a copy of this license, visit
# http://creativecommons.org/licenses/by-nc-sa/4.0/
# or send a letter to
# Creative Commons, PO Box 1866, Mountain View, CA 94042, USA.
#
# CIF created using the CSD Python API on 29 September 2022
# The structure has been converted into the P1 space group
# The structure has a 3D framework
# The original CSD entry NISGII is in the monoclinic crystal system
# The framework has been calculated to contain at least 10.0% void space
# The void calculation uses a probe of radius 1.32A, grid spacing 0.4
#
###############################################################################

data_NISGII
_chemical_formula_moiety         '(C264 H144 Cu20 O113 S24)n'
_symmetry_cell_setting           triclinic
_symmetry_space_group_name_H-M   'P 1'
_symmetry_Int_Tables_number      1
_space_group_name_Hall           'P 1'
loop_
_symmetry_equiv_pos_site_id
_symmetry_equiv_pos_as_xyz
1 x,y,z
_cell_length_a                   32.1419(9)
_cell_length_b                   18.5746(2)
_cell_length_c                   28.3151(6)
_cell_angle_alpha                90
_cell_angle_beta                 112.511(3)
_cell_angle_gamma                90
_cell_volume                     15616.7
loop_
_atom_site_label
_atom_site_type_symbol
_atom_site_fract_x
_atom_site_fract_y
_atom_site_fract_z
Cu1 Cu 0.23662(2) 0.49275(3) 0.20160(2)
Cu2 Cu 0.24059(2) 0.42172(3) 0.28473(2)
Cu3 Cu 0.461397(17) 0.69391(4) 0.20738(2)
S1 S 0.48562(12) 0.40174(18) 0.52361(9)
O1 O 0.17156(12) 0.47374(19) 0.17718(13)
O2 O 0.17579(12) 0.40903(19) 0.24749(13)
O3 O 0.05172(12) 0.2665(2) 0.24719(15)
O5 O 0.30214(12) 0.50330(19) 0.23570(14)
O6 O 0.30428(13) 0.4468(2) 0.30625(13)
O7 O 0.50138(10) 0.6239(2) 0.31303(12)
O8 O 0.43938(12) 0.6195(2) 0.23914(13)
O9 O 0.25065(13) 0.33720(16) 0.24986(12)
O10 O 0.24478(13) 0.39607(15) 0.17833(12)
O11 O 0.26958(18) 0.01721(17) 0.19173(14)
O12 O 0.27000(15) 0.07782(16) 0.25972(12)
O13 O 0.22651(18) 0.5394(3) 0.12757(16)
H1 H 0.1990 0.5506 0.1122
H2 H 0.2333 0.5086 0.1095
O14 O 0.2458(2) 0.3656(3) 0.3531(2)
H3 H 0.2355 0.3230 0.3474
H4 H 0.2339 0.3885 0.3707
O15 O 0.4003(2) 0.6958(4) 0.1418(3)
H5 H 0.3785 0.7061 0.1505
H6 H 0.3955 0.6545 0.1279
C1 C 0.37099(12) 0.4954(2) 0.30708(13)
C2 C 0.39332(11) 0.5370(2) 0.28301(12)
H7 H 0.3783 0.5517 0.2493
C3 C 0.43826(11) 0.5565(2) 0.30954(12)
C4 C 0.46084(13) 0.5345(3) 0.36013(13)
H8 H 0.4908 0.5475 0.3778
C5 C 0.43851(14) 0.4929(3) 0.38419(14)
C6 C 0.39357(14) 0.4734(3) 0.35767(14)
H9 H 0.3787 0.4458 0.3737
C7 C 0.32202(19) 0.4796(3) 0.28159(18)
C8 C 0.46130(14) 0.6018(3) 0.28521(19)
C9 C 0.4613(3) 0.4739(6) 0.4399(3)
C10 C 0.4566(4) 0.4112(6) 0.4600(3)
H10 H 0.4385 0.3747 0.4402
C11 C 0.4928(2) 0.5134(5) 0.4765(2)
C12 C 0.10735(11) 0.4135(2) 0.17830(13)
C13 C 0.08910(10) 0.3646(2) 0.20254(13)
H11 H 0.1066 0.3472 0.2349
C14 C 0.04457(11) 0.3416(3) 0.17818(14)
C15 C 0.01828(11) 0.3676(3) 0.12959(16)
C16 C 0.03652(12) 0.4166(3) 0.10534(17)
C17 C 0.08105(12) 0.4395(3) 0.12971(15)
H13 H 0.0932 0.4722 0.1136
C18 C 0.15576(17) 0.4337(2) 0.20337(18)
C19 C 0.02593(17) 0.2897(3) 0.2042(2)
C20 C 0.0099(2) 0.4402(7) 0.0524(4)
C22 C 0.0158(3) 0.4908(5) 0.0237(3)
C23 C 0.25864(13) 0.27134(14) 0.18339(11)
C24 C 0.26236(12) 0.20693(13) 0.21011(11)
H15 H 0.2615 0.2073 0.2425
C25 C 0.26745(15) 0.14191(14) 0.18814(12)
C26 C 0.26881(17) 0.14133(15) 0.13943(13)
H16 H 0.2722 0.0980 0.1248
C27 C 0.26507(17) 0.20575(16) 0.11270(13)
C28 C 0.25999(16) 0.27076(15) 0.13468(12)
H17 H 0.2575 0.3137 0.1169
C29 C 0.25139(16) 0.3388(2) 0.20622(16)
C30 C 0.2673(2) 0.0706(3) 0.2142(2)
C31 C 0.2657(4) 0.2064(3) 0.0607(3)
C32 C 0.2952(5) 0.1606(5) 0.0492(4)
H18 H 0.3162 0.1300 0.0721
C33 C 0.2506(3) 0.2574(3) 0.0243(2)
S4 S 0.51438(12) 0.59826(18) 0.47639(9)
O16 O 0.69786(12) 0.49670(19) 0.76430(14)
O17 O 0.69572(13) 0.5532(2) 0.69375(13)
O18 O 0.49862(10) 0.3761(2) 0.68697(12)
O19 O 0.56062(12) 0.3805(2) 0.76086(13)
C34 C 0.62901(12) 0.5046(2) 0.69292(13)
C35 C 0.60668(11) 0.4630(2) 0.71699(12)
H19 H 0.6217 0.4483 0.7507
C36 C 0.56174(11) 0.4435(2) 0.69046(12)
C37 C 0.53916(13) 0.4655(3) 0.63987(13)
H20 H 0.5092 0.4525 0.6222
C38 C 0.56149(14) 0.5071(3) 0.61581(14)
C39 C 0.60643(14) 0.5266(3) 0.64233(14)
H21 H 0.6213 0.5542 0.6263
C40 C 0.67798(19) 0.5204(3) 0.71841(18)
C41 C 0.53870(14) 0.3982(3) 0.71479(19)
C42 C 0.5387(3) 0.5261(6) 0.5601(3)
C43 C 0.5434(4) 0.5888(6) 0.5400(3)
H22 H 0.5615 0.6253 0.5598
C44 C 0.5072(2) 0.4866(5) 0.5235(2)
S5 S 0.04364(15) 0.5732(2) 0.04653(15)
S6 S 0.21431(14) 0.32950(14) 0.01650(9)
Cu4 Cu 0.538603(17) 0.69391(4) 0.29262(2)
O28 O 0.5997(2) 0.6958(4) 0.3582(3)
H31 H 0.6215 0.7061 0.3495
H32 H 0.6045 0.6545 0.3721
O29 O 0.27349(18) 0.0394(3) 0.37243(16)
H33 H 0.3010 0.0506 0.3878
H34 H 0.2667 0.0086 0.3905
Cu8 Cu 0.76338(2) 0.50725(3) 0.79840(2)
Cu12 Cu 0.75941(2) 0.57828(3) 0.71527(2)
Cu16 Cu 0.038603(17) 0.19391(4) 0.29262(2)
Cu17 Cu 0.538603(17) 0.30609(4) 0.79262(2)
Cu18 Cu 0.461397(17) 0.30609(4) 0.70738(2)
O33 O 0.55172(12) 0.7665(2) 0.24719(15)
O34 O 0.44828(12) 0.7665(2) 0.25281(15)
O35 O 0.48537(12) 0.7684(2) 0.17984(17)
O36 O 0.51463(12) 0.7684(2) 0.32016(17)
O37 O 0.19786(12) 0.00330(19) 0.26430(14)
O39 O 0.49862(10) 0.6239(2) 0.18697(12)
O40 O 0.56062(12) 0.6195(2) 0.26086(13)
O43 O 0.23042(18) 0.51721(17) 0.30827(14)
O44 O 0.23000(15) 0.57782(16) 0.24028(12)
S3 S 0.28569(14) 0.17050(14) 0.98350(9)
O23 O 0.01463(12) 0.7316(2) 0.82016(17)
H24 H 0.0114 0.6477 0.8866
C54 C 0.0202(5) 0.6058(9) 0.9801(8)
H26 H 0.0282 0.6494 0.9699
O24 O 0.24935(13) 0.16280(16) 0.75014(12)
O25 O 0.25522(13) 0.10393(15) 0.82167(12)
O26 O 0.23042(18) 0.48279(17) 0.80827(14)
O27 O 0.23000(15) 0.42218(16) 0.74028(12)
C56 C 0.24136(13) 0.22866(14) 0.81661(11)
C57 C 0.23764(12) 0.29307(13) 0.78989(11)
H27 H 0.2385 0.2927 0.7575
C58 C 0.23255(15) 0.35809(14) 0.81186(12)
C59 C 0.23119(17) 0.35867(15) 0.86057(13)
H28 H 0.2278 0.4020 0.8752
C60 C 0.23493(17) 0.29425(16) 0.88730(13)
C61 C 0.24001(16) 0.22924(15) 0.86532(12)
H29 H 0.2425 0.1863 0.8831
C62 C 0.24861(16) 0.1612(2) 0.79378(16)
C63 C 0.2327(2) 0.4294(3) 0.7858(2)
C64 C 0.2343(4) 0.2936(3) 0.9393(3)
C65 C 0.2048(5) 0.3394(5) 0.9508(4)
H30 H 0.1838 0.3700 0.9279
C66 C 0.2494(3) 0.2426(3) 0.9757(2)
Cu9 Cu 0.23662(2) 0.50725(3) 0.70160(2)
Cu10 Cu 0.26338(2) 0.00725(3) 0.79840(2)
Cu13 Cu 0.24059(2) 0.57828(3) 0.78473(2)
Cu14 Cu 0.25941(2) 0.07828(3) 0.71527(2)
Cu19 Cu 0.038603(17) 0.80609(4) 0.79262(2)
Cu5 Cu 0.26338(2) 0.99275(3) 0.29840(2)
Cu6 Cu 0.25941(2) 0.92172(3) 0.21527(2)
O30 O 0.2542(2) 0.8656(3) 0.1469(2)
H35 H 0.2645 0.8230 0.1526
H36 H 0.2661 0.8885 0.1293
O31 O 0.32844(12) 0.97374(19) 0.32282(13)
O32 O 0.32421(12) 0.90903(19) 0.25251(13)
O38 O 0.19572(13) 0.9468(2) 0.19375(13)
O41 O 0.24935(13) 0.83720(16) 0.25014(12)
O42 O 0.25522(13) 0.89607(15) 0.32167(12)
O4 O 0.98537(12) 0.2684(2) 0.17984(17)
H12 H 0.9886 0.3523 0.1134
C21 C 0.9798(5) 0.3942(9) 0.0199(8)
H14 H 0.9718 0.3506 0.0301
Cu15 Cu 0.961397(17) 0.19391(4) 0.20738(2)
S2 S 0.95636(15) 0.4268(2) 0.95347(15)
O20 O 0.82844(12) 0.52626(19) 0.82282(13)
O21 O 0.82421(12) 0.59097(19) 0.75251(13)
O22 O 0.94828(12) 0.7335(2) 0.75281(15)
C45 C 0.89265(11) 0.5865(2) 0.82170(13)
C46 C 0.91090(10) 0.6354(2) 0.79746(13)
H23 H 0.8934 0.6528 0.7651
C47 C 0.95543(11) 0.6584(3) 0.82182(14)
C48 C 0.98172(11) 0.6324(3) 0.87041(16)
C49 C 0.96348(12) 0.5834(3) 0.89466(17)
C50 C 0.91895(12) 0.5605(3) 0.87029(15)
H25 H 0.9068 0.5278 0.8864
C51 C 0.84424(17) 0.5663(2) 0.79663(18)
C52 C 0.97407(17) 0.7103(3) 0.7958(2)
C53 C 0.9901(2) 0.5598(7) 0.9476(4)
C55 C 0.9842(3) 0.5092(5) 0.9763(3)
Cu20 Cu 0.961397(17) 0.80609(4) 0.70738(2)
S2_2 S 0.04364(15) 0.4268(2) 0.54653(15)
O4_2 O 0.01463(12) 0.2684(2) 0.32016(17)
H12_2 H 0.0114 0.3523 0.3866
C21_2 C 0.0202(5) 0.3942(9) 0.4801(8)
H14_2 H 0.0282 0.3506 0.4699
O20_2 O 0.17156(12) 0.52626(19) 0.67718(13)
O21_2 O 0.17579(12) 0.59097(19) 0.74749(13)
O22_2 O 0.05172(12) 0.7335(2) 0.74719(15)
C45_2 C 0.10735(11) 0.5865(2) 0.67830(13)
C46_2 C 0.08910(10) 0.6354(2) 0.70254(13)
H23_2 H 0.1066 0.6528 0.7349
C47_2 C 0.04457(11) 0.6584(3) 0.67818(14)
C48_2 C 0.01828(11) 0.6324(3) 0.62959(16)
C49_2 C 0.03652(12) 0.5834(3) 0.60534(17)
C50_2 C 0.08105(12) 0.5605(3) 0.62971(15)
H25_2 H 0.0932 0.5278 0.6136
C51_2 C 0.15576(17) 0.5663(2) 0.70337(18)
C52_2 C 0.02593(17) 0.7103(3) 0.7042(2)
C53_2 C 0.0099(2) 0.5598(7) 0.5524(4)
C55_2 C 0.0158(3) 0.5092(5) 0.5237(3)
Cu1_2 Cu 0.76338(2) 0.49275(3) 0.29840(2)
Cu2_2 Cu 0.75941(2) 0.42172(3) 0.21527(2)
S3_2 S 0.71431(14) 0.17050(14) 0.51650(9)
O1_2 O 0.82844(12) 0.47374(19) 0.32282(13)
O2_2 O 0.82421(12) 0.40903(19) 0.25251(13)
O3_2 O 0.94828(12) 0.2665(2) 0.25281(15)
O5_2 O 0.69786(12) 0.50330(19) 0.26430(14)
O6_2 O 0.69572(13) 0.4468(2) 0.19375(13)
O9_2 O 0.74935(13) 0.33720(16) 0.25014(12)
O10_2 O 0.75522(13) 0.39607(15) 0.32167(12)
O11_2 O 0.73042(18) 0.01721(17) 0.30827(14)
O12_2 O 0.73000(15) 0.07782(16) 0.24028(12)
O13_2 O 0.77349(18) 0.5394(3) 0.37243(16)
H1_2 H 0.8010 0.5506 0.3878
H2_2 H 0.7667 0.5086 0.3905
O14_2 O 0.7542(2) 0.3656(3) 0.1469(2)
H3_2 H 0.7645 0.3230 0.1526
H4_2 H 0.7661 0.3885 0.1293
C1_2 C 0.62901(12) 0.4954(2) 0.19292(13)
C2_2 C 0.60668(11) 0.5370(2) 0.21699(12)
H7_2 H 0.6217 0.5517 0.2507
C3_2 C 0.56174(11) 0.5565(2) 0.19046(12)
C4_2 C 0.53916(13) 0.5345(3) 0.13987(13)
H8_2 H 0.5092 0.5475 0.1222
C5_2 C 0.56149(14) 0.4929(3) 0.11581(14)
C6_2 C 0.60643(14) 0.4734(3) 0.14233(14)
H9_2 H 0.6213 0.4458 0.1263
C7_2 C 0.67798(19) 0.4796(3) 0.21841(18)
C8_2 C 0.53870(14) 0.6018(3) 0.21479(19)
C9_2 C 0.5387(3) 0.4739(6) 0.0601(3)
C10_2 C 0.5434(4) 0.4112(6) 0.0400(3)
H10_2 H 0.5615 0.3747 0.0598
C11_2 C 0.5072(2) 0.5134(5) 0.0235(2)
C12_2 C 0.89265(11) 0.4135(2) 0.32170(13)
C13_2 C 0.91090(10) 0.3646(2) 0.29746(13)
H11_2 H 0.8934 0.3472 0.2651
C14_2 C 0.95543(11) 0.3416(3) 0.32182(14)
C15_2 C 0.98172(11) 0.3676(3) 0.37041(16)
C16_2 C 0.96348(12) 0.4166(3) 0.39466(17)
C17_2 C 0.91895(12) 0.4395(3) 0.37029(15)
H13_2 H 0.9068 0.4722 0.3864
C18_2 C 0.84424(17) 0.4337(2) 0.29663(18)
C19_2 C 0.97407(17) 0.2897(3) 0.2958(2)
C20_2 C 0.9901(2) 0.4402(7) 0.4476(4)
C22_2 C 0.9842(3) 0.4908(5) 0.4763(3)
C23_2 C 0.74136(13) 0.27134(14) 0.31661(11)
C24_2 C 0.73764(12) 0.20693(13) 0.28989(11)
H15_2 H 0.7385 0.2073 0.2575
C25_2 C 0.73255(15) 0.14191(14) 0.31186(12)
C26_2 C 0.73119(17) 0.14133(15) 0.36057(13)
H16_2 H 0.7278 0.0980 0.3752
C27_2 C 0.73493(17) 0.20575(16) 0.38730(13)
C28_2 C 0.74001(16) 0.27076(15) 0.36532(12)
H17_2 H 0.7425 0.3137 0.3831
C29_2 C 0.74861(16) 0.3388(2) 0.29378(16)
C30_2 C 0.7327(2) 0.0706(3) 0.2858(2)
C31_2 C 0.7343(4) 0.2064(3) 0.4393(3)
C32_2 C 0.7048(5) 0.1606(5) 0.4508(4)
H18_2 H 0.6838 0.1300 0.4279
C33_2 C 0.7494(3) 0.2574(3) 0.4757(2)
S4_2 S 0.48562(12) 0.59826(18) 0.02361(9)
S5_2 S 0.95636(15) 0.5732(2) 0.45347(15)
O23_2 O 0.98537(12) 0.7316(2) 0.67984(17)
H24_2 H 0.9886 0.6477 0.6134
C54_2 C 0.9798(5) 0.6058(9) 0.5199(8)
H26_2 H 0.9718 0.6494 0.5301
S6_2 S 0.78569(14) 0.32950(14) 0.48350(9)
O24_2 O 0.75065(13) 0.16280(16) 0.74986(12)
O25_2 O 0.74478(13) 0.10393(15) 0.67833(12)
O26_2 O 0.76958(18) 0.48279(17) 0.69173(14)
O27_2 O 0.77000(15) 0.42218(16) 0.75972(12)
C56_2 C 0.75864(13) 0.22866(14) 0.68339(11)
C57_2 C 0.76236(12) 0.29307(13) 0.71011(11)
H27_2 H 0.7615 0.2927 0.7425
C58_2 C 0.76745(15) 0.35809(14) 0.68814(12)
C59_2 C 0.76881(17) 0.35867(15) 0.63943(13)
H28_2 H 0.7722 0.4020 0.6248
C60_2 C 0.76507(17) 0.29425(16) 0.61270(13)
C61_2 C 0.75999(16) 0.22924(15) 0.63468(12)
H29_2 H 0.7575 0.1863 0.6169
C62_2 C 0.75139(16) 0.1612(2) 0.70622(16)
C63_2 C 0.7673(2) 0.4294(3) 0.7142(2)
C64_2 C 0.7657(4) 0.2936(3) 0.5607(3)
C65_2 C 0.7952(5) 0.3394(5) 0.5492(4)
H30_2 H 0.8162 0.3700 0.5721
C66_2 C 0.7506(3) 0.2426(3) 0.5243(2)
O29_2 O 0.72651(18) 0.0394(3) 0.12757(16)
H33_2 H 0.6990 0.0506 0.1122
H34_2 H 0.7333 0.0086 0.1095
Cu10_2 Cu 0.73662(2) 0.00725(3) 0.70160(2)
Cu14_2 Cu 0.74059(2) 0.07828(3) 0.78473(2)
O37_2 O 0.80214(12) 0.00330(19) 0.23570(14)
O43_2 O 0.76958(18) 0.51721(17) 0.19173(14)
O44_2 O 0.77000(15) 0.57782(16) 0.25972(12)
S1_2 S 0.51438(12) 0.40174(18) 0.97639(9)
O16_2 O 0.30214(12) 0.49670(19) 0.73570(14)
O17_2 O 0.30428(13) 0.5532(2) 0.80625(13)
O18_2 O 0.50138(10) 0.3761(2) 0.81303(12)
O19_2 O 0.43938(12) 0.3805(2) 0.73914(13)
C34_2 C 0.37099(12) 0.5046(2) 0.80708(13)
C35_2 C 0.39332(11) 0.4630(2) 0.78301(12)
H19_2 H 0.3783 0.4483 0.7493
C36_2 C 0.43826(11) 0.4435(2) 0.80954(12)
C37_2 C 0.46084(13) 0.4655(3) 0.86013(13)
H20_2 H 0.4908 0.4525 0.8778
C38_2 C 0.43851(14) 0.5071(3) 0.88419(14)
C39_2 C 0.39357(14) 0.5266(3) 0.85767(14)
H21_2 H 0.3787 0.5542 0.8737
C40_2 C 0.32202(19) 0.5204(3) 0.78159(18)
C41_2 C 0.46130(14) 0.3982(3) 0.78521(19)
C42_2 C 0.4613(3) 0.5261(6) 0.9399(3)
C43_2 C 0.4566(4) 0.5888(6) 0.9600(3)
H22_2 H 0.4385 0.6253 0.9402
C44_2 C 0.4928(2) 0.4866(5) 0.9765(2)
Cu5_2 Cu 0.73662(2) 0.99275(3) 0.20160(2)
Cu6_2 Cu 0.74059(2) 0.92172(3) 0.28473(2)
O30_2 O 0.7458(2) 0.8656(3) 0.3531(2)
H35_2 H 0.7355 0.8230 0.3474
H36_2 H 0.7339 0.8885 0.3707
O31_2 O 0.67156(12) 0.97374(19) 0.17718(13)
O32_2 O 0.67579(12) 0.90903(19) 0.24749(13)
O38_2 O 0.80428(13) 0.9468(2) 0.30625(13)
O41_2 O 0.75065(13) 0.83720(16) 0.24986(12)
O42_2 O 0.74478(13) 0.89607(15) 0.17833(12)
O7_2 O 0.00138(10) 0.1239(2) 0.31303(12)
S4_3 S 0.01438(12) 0.09826(18) 0.47639(9)
O17_3 O 0.19572(13) 0.0532(2) 0.69375(13)
C34_3 C 0.12901(12) 0.0046(2) 0.69292(13)
C38_3 C 0.06149(14) 0.0071(3) 0.61581(14)
C39_3 C 0.10643(14) 0.0266(3) 0.64233(14)
H21_3 H 0.1213 0.0542 0.6263
C40_3 C 0.17798(19) 0.0204(3) 0.71841(18)
C42_3 C 0.0387(3) 0.0261(6) 0.5601(3)
C43_3 C 0.0434(4) 0.0888(6) 0.5400(3)
H22_3 H 0.0615 0.1253 0.5598
O28_2 O 0.0997(2) 0.1958(4) 0.3582(3)
H31_2 H 0.1215 0.2061 0.3495
H32_2 H 0.1045 0.1545 0.3721
O40_2 O 0.06062(12) 0.1195(2) 0.26086(13)
O16_3 O 0.19786(12) 0.99670(19) 0.76430(14)
O19_3 O 0.06062(12) 0.8805(2) 0.76086(13)
C35_3 C 0.10668(11) 0.9630(2) 0.71699(12)
H19_3 H 0.1217 0.9483 0.7507
C36_3 C 0.06174(11) 0.9435(2) 0.69046(12)
C37_3 C 0.03916(13) 0.9655(3) 0.63987(13)
H20_3 H 0.0092 0.9525 0.6222
C41_3 C 0.03870(14) 0.8982(3) 0.71479(19)
C44_3 C 0.0072(2) 0.9866(5) 0.5235(2)
O8_2 O 0.93938(12) 0.1195(2) 0.23914(13)
O15_2 O 0.9003(2) 0.1958(4) 0.1418(3)
H5_2 H 0.8785 0.2061 0.1505
H6_2 H 0.8955 0.1545 0.1279
C2_3 C 0.89332(11) 0.0370(2) 0.28301(12)
H7_3 H 0.8783 0.0517 0.2493
C3_3 C 0.93826(11) 0.0565(2) 0.30954(12)
C4_3 C 0.96084(13) 0.0345(3) 0.36013(13)
H8_3 H 0.9908 0.0475 0.3778
C8_3 C 0.96130(14) 0.1018(3) 0.28521(19)
C11_3 C 0.9928(2) 0.0134(5) 0.4765(2)
S5_3 S 0.54364(15) 0.0732(2) 0.04653(15)
O39_2 O 0.99862(10) 0.1239(2) 0.18697(12)
O20_3 O 0.32844(12) 0.02626(19) 0.82282(13)
O21_3 O 0.32421(12) 0.09097(19) 0.75251(13)
O22_3 O 0.44828(12) 0.2335(2) 0.75281(15)
O23_3 O 0.51463(12) 0.2316(2) 0.82016(17)
C45_3 C 0.39265(11) 0.0865(2) 0.82170(13)
C46_3 C 0.41090(10) 0.1354(2) 0.79746(13)
H23_3 H 0.3934 0.1528 0.7651
C47_3 C 0.45543(11) 0.1584(3) 0.82182(14)
C48_3 C 0.48172(11) 0.1324(3) 0.87041(16)
H24_3 H 0.5114 0.1477 0.8866
C49_3 C 0.46348(12) 0.0834(3) 0.89466(17)
C50_3 C 0.41895(12) 0.0605(3) 0.87029(15)
H25_3 H 0.4068 0.0278 0.8864
C51_3 C 0.34424(17) 0.0663(2) 0.79663(18)
C52_3 C 0.47407(17) 0.2103(3) 0.7958(2)
C53_3 C 0.4901(2) 0.0598(7) 0.9476(4)
C54_3 C 0.5202(5) 0.1058(9) 0.9801(8)
H26_3 H 0.5282 0.1494 0.9699
C55_3 C 0.4842(3) 0.0092(5) 0.9763(3)
S1_3 S 0.98562(12) 0.90174(18) 0.52361(9)
C1_3 C 0.87099(12) 0.9954(2) 0.30708(13)
C5_3 C 0.93851(14) 0.9929(3) 0.38419(14)
C6_3 C 0.89357(14) 0.9734(3) 0.35767(14)
H9_3 H 0.8787 0.9458 0.3737
C7_3 C 0.82202(19) 0.9796(3) 0.28159(18)
C9_3 C 0.9613(3) 0.9739(6) 0.4399(3)
C10_3 C 0.9566(4) 0.9112(6) 0.4600(3)
H10_3 H 0.9385 0.8747 0.4402
C12_3 C 0.60735(11) 0.9135(2) 0.17830(13)
C13_3 C 0.58910(10) 0.8646(2) 0.20254(13)
H11_3 H 0.6066 0.8472 0.2349
C14_3 C 0.54457(11) 0.8416(3) 0.17818(14)
C15_3 C 0.51828(11) 0.8676(3) 0.12959(16)
H12_3 H 0.4886 0.8523 0.1134
C16_3 C 0.53652(12) 0.9166(3) 0.10534(17)
C17_3 C 0.58105(12) 0.9395(3) 0.12971(15)
H13_3 H 0.5932 0.9722 0.1136
C18_3 C 0.65576(17) 0.9337(2) 0.20337(18)
C19_3 C 0.52593(17) 0.7897(3) 0.2042(2)
C20_3 C 0.5099(2) 0.9402(7) 0.0524(4)
C21_3 C 0.4798(5) 0.8942(9) 0.0199(8)
H14_3 H 0.4718 0.8506 0.0301
C22_3 C 0.5158(3) 0.9908(5) 0.0237(3)
C23_3 C 0.75864(13) 0.77134(14) 0.18339(11)
C24_3 C 0.76236(12) 0.70693(13) 0.21011(11)
H15_3 H 0.7615 0.7073 0.2425
C25_3 C 0.76745(15) 0.64191(14) 0.18814(12)
C26_3 C 0.76881(17) 0.64133(15) 0.13943(13)
H16_3 H 0.7722 0.5980 0.1248
C27_3 C 0.76507(17) 0.70575(16) 0.11270(13)
C28_3 C 0.75999(16) 0.77076(15) 0.13468(12)
H17_3 H 0.7575 0.8137 0.1169
C29_3 C 0.75139(16) 0.8388(2) 0.20622(16)
C30_3 C 0.7673(2) 0.5706(3) 0.2142(2)
C31_3 C 0.7657(4) 0.7064(3) 0.0607(3)
C32_3 C 0.7952(5) 0.6606(5) 0.0492(4)
H18_3 H 0.8162 0.6300 0.0721
C33_3 C 0.7506(3) 0.7574(3) 0.0243(2)
O18_3 O 0.99862(10) 0.8761(2) 0.68697(12)
S6_3 S 0.71431(14) 0.82950(14) 0.01650(9)
S2_3 S 0.45636(15) 0.9268(2) 0.95347(15)
S3_3 S 0.78569(14) 0.67050(14) 0.98350(9)
O24_3 O 0.74935(13) 0.66280(16) 0.75014(12)
O25_3 O 0.75522(13) 0.60393(15) 0.82167(12)
O26_3 O 0.73042(18) 0.98279(17) 0.80827(14)
O27_3 O 0.73000(15) 0.92218(16) 0.74028(12)
C56_3 C 0.74136(13) 0.72866(14) 0.81661(11)
C57_3 C 0.73764(12) 0.79307(13) 0.78989(11)
H27_3 H 0.7385 0.7927 0.7575
C58_3 C 0.73255(15) 0.85809(14) 0.81186(12)
C59_3 C 0.73119(17) 0.85867(15) 0.86057(13)
H28_3 H 0.7278 0.9020 0.8752
C60_3 C 0.73493(17) 0.79425(16) 0.88730(13)
C61_3 C 0.74001(16) 0.72924(15) 0.86532(12)
H29_3 H 0.7425 0.6863 0.8831
C62_3 C 0.74861(16) 0.6612(2) 0.79378(16)
C63_3 C 0.7327(2) 0.9294(3) 0.7858(2)
C64_3 C 0.7343(4) 0.7936(3) 0.9393(3)
C65_3 C 0.7048(5) 0.8394(5) 0.9508(4)
H30_3 H 0.6838 0.8700 0.9279
C66_3 C 0.7494(3) 0.7426(3) 0.9757(2)
C2_4 C 0.10668(11) 0.0370(2) 0.21699(12)
H7_4 H 0.1217 0.0517 0.2507
C3_4 C 0.06174(11) 0.0565(2) 0.19046(12)
C4_4 C 0.03916(13) 0.0345(3) 0.13987(13)
H8_4 H 0.0092 0.0475 0.1222
C8_4 C 0.03870(14) 0.1018(3) 0.21479(19)
C11_4 C 0.0072(2) 0.0134(5) 0.0235(2)
S5_4 S 0.45636(15) 0.0732(2) 0.45347(15)
O20_4 O 0.67156(12) 0.02626(19) 0.67718(13)
O21_4 O 0.67579(12) 0.09097(19) 0.74749(13)
O22_4 O 0.55172(12) 0.2335(2) 0.74719(15)
O23_4 O 0.48537(12) 0.2316(2) 0.67984(17)
C45_4 C 0.60735(11) 0.0865(2) 0.67830(13)
C46_4 C 0.58910(10) 0.1354(2) 0.70254(13)
H23_4 H 0.6066 0.1528 0.7349
C47_4 C 0.54457(11) 0.1584(3) 0.67818(14)
C48_4 C 0.51828(11) 0.1324(3) 0.62959(16)
H24_4 H 0.4886 0.1477 0.6134
C49_4 C 0.53652(12) 0.0834(3) 0.60534(17)
C50_4 C 0.58105(12) 0.0605(3) 0.62971(15)
H25_4 H 0.5932 0.0278 0.6136
C51_4 C 0.65576(17) 0.0663(2) 0.70337(18)
C52_4 C 0.52593(17) 0.2103(3) 0.7042(2)
C53_4 C 0.5099(2) 0.0598(7) 0.5524(4)
C54_4 C 0.4798(5) 0.1058(9) 0.5199(8)
H26_4 H 0.4718 0.1494 0.5301
C55_4 C 0.5158(3) 0.0092(5) 0.5237(3)
S2_4 S 0.54364(15) 0.9268(2) 0.54653(15)
S3_4 S 0.21431(14) 0.67050(14) 0.51650(9)
C1_4 C 0.12901(12) 0.9954(2) 0.19292(13)
C5_4 C 0.06149(14) 0.9929(3) 0.11581(14)
C6_4 C 0.10643(14) 0.9734(3) 0.14233(14)
H9_4 H 0.1213 0.9458 0.1263
C7_4 C 0.17798(19) 0.9796(3) 0.21841(18)
C9_4 C 0.0387(3) 0.9739(6) 0.0601(3)
C10_4 C 0.0434(4) 0.9112(6) 0.0400(3)
H10_4 H 0.0615 0.8747 0.0598
C12_4 C 0.39265(11) 0.9135(2) 0.32170(13)
C13_4 C 0.41090(10) 0.8646(2) 0.29746(13)
H11_4 H 0.3934 0.8472 0.2651
C14_4 C 0.45543(11) 0.8416(3) 0.32182(14)
C15_4 C 0.48172(11) 0.8676(3) 0.37041(16)
H12_4 H 0.5114 0.8523 0.3866
C16_4 C 0.46348(12) 0.9166(3) 0.39466(17)
C17_4 C 0.41895(12) 0.9395(3) 0.37029(15)
H13_4 H 0.4068 0.9722 0.3864
C18_4 C 0.34424(17) 0.9337(2) 0.29663(18)
C19_4 C 0.47407(17) 0.7897(3) 0.2958(2)
C20_4 C 0.4901(2) 0.9402(7) 0.4476(4)
C21_4 C 0.5202(5) 0.8942(9) 0.4801(8)
H14_4 H 0.5282 0.8506 0.4699
C22_4 C 0.4842(3) 0.9908(5) 0.4763(3)
C23_4 C 0.24136(13) 0.77134(14) 0.31661(11)
C24_4 C 0.23764(12) 0.70693(13) 0.28989(11)
H15_4 H 0.2385 0.7073 0.2575
C25_4 C 0.23255(15) 0.64191(14) 0.31186(12)
C26_4 C 0.23119(17) 0.64133(15) 0.36057(13)
H16_4 H 0.2278 0.5980 0.3752
C27_4 C 0.23493(17) 0.70575(16) 0.38730(13)
C28_4 C 0.24001(16) 0.77076(15) 0.36532(12)
H17_4 H 0.2425 0.8137 0.3831
C29_4 C 0.24861(16) 0.8388(2) 0.29378(16)
C30_4 C 0.2327(2) 0.5706(3) 0.2858(2)
C31_4 C 0.2343(4) 0.7064(3) 0.4393(3)
C32_4 C 0.2048(5) 0.6606(5) 0.4508(4)
H18_4 H 0.1838 0.6300 0.4279
C33_4 C 0.2494(3) 0.7574(3) 0.4757(2)
S6_4 S 0.28569(14) 0.82950(14) 0.48350(9)
O24_4 O 0.25065(13) 0.66280(16) 0.74986(12)
O25_4 O 0.24478(13) 0.60393(15) 0.67833(12)
O26_4 O 0.26958(18) 0.98279(17) 0.69173(14)
O27_4 O 0.27000(15) 0.92218(16) 0.75972(12)
C56_4 C 0.25864(13) 0.72866(14) 0.68339(11)
C57_4 C 0.26236(12) 0.79307(13) 0.71011(11)
H27_4 H 0.2615 0.7927 0.7425
C58_4 C 0.26745(15) 0.85809(14) 0.68814(12)
C59_4 C 0.26881(17) 0.85867(15) 0.63943(13)
H28_4 H 0.2722 0.9020 0.6248
C60_4 C 0.26507(17) 0.79425(16) 0.61270(13)
C61_4 C 0.25999(16) 0.72924(15) 0.63468(12)
H29_4 H 0.2575 0.6863 0.6169
C62_4 C 0.25139(16) 0.6612(2) 0.70622(16)
C63_4 C 0.2673(2) 0.9294(3) 0.7142(2)
C64_4 C 0.2657(4) 0.7936(3) 0.5607(3)
C65_4 C 0.2952(5) 0.8394(5) 0.5492(4)
H30_4 H 0.3162 0.8700 0.5721
C66_4 C 0.2506(3) 0.7426(3) 0.5243(2)
S1_4 S 0.01438(12) 0.90174(18) 0.97639(9)
O18_4 O 0.00138(10) 0.8761(2) 0.81303(12)
S4_4 S 0.98562(12) 0.09826(18) 0.02361(9)
O17_4 O 0.80428(13) 0.0532(2) 0.80625(13)
C34_4 C 0.87099(12) 0.0046(2) 0.80708(13)
C38_4 C 0.93851(14) 0.0071(3) 0.88419(14)
C39_4 C 0.89357(14) 0.0266(3) 0.85767(14)
H21_4 H 0.8787 0.0542 0.8737
C40_4 C 0.82202(19) 0.0204(3) 0.78159(18)
C42_4 C 0.9613(3) 0.0261(6) 0.9399(3)
C43_4 C 0.9566(4) 0.0888(6) 0.9600(3)
H22_4 H 0.9385 0.1253 0.9402
O16_4 O 0.80214(12) 0.99670(19) 0.73570(14)
O19_4 O 0.93938(12) 0.8805(2) 0.73914(13)
C35_4 C 0.89332(11) 0.9630(2) 0.78301(12)
H19_4 H 0.8783 0.9483 0.7493
C36_4 C 0.93826(11) 0.9435(2) 0.80954(12)
C37_4 C 0.96084(13) 0.9655(3) 0.86013(13)
H20_4 H 0.9908 0.9525 0.8778
C41_4 C 0.96130(14) 0.8982(3) 0.78521(19)
C44_4 C 0.9928(2) 0.9866(5) 0.9765(2)
O30_3 O 0.7458(2) 0.1344(3) 0.8531(2)
H35_3 H 0.7355 0.1770 0.8474
H36_3 H 0.7339 0.1115 0.8707
O13_3 O 0.77349(18) 0.4606(3) 0.87243(16)
H1_3 H 0.8010 0.4494 0.8878
H2_3 H 0.7667 0.4914 0.8905
O14_3 O 0.7542(2) 0.6344(3) 0.6469(2)
H3_3 H 0.7645 0.6770 0.6526
H4_3 H 0.7661 0.6115 0.6293
O15_3 O 0.5997(2) 0.3042(4) 0.8582(3)
H5_3 H 0.6215 0.2939 0.8495
H6_3 H 0.6045 0.3455 0.8721
O28_3 O 0.4003(2) 0.3042(4) 0.6418(3)
H31_3 H 0.3785 0.2939 0.6505
H32_3 H 0.3955 0.3455 0.6279
O29_3 O 0.72651(18) 0.9606(3) 0.62757(16)
H33_3 H 0.6990 0.9494 0.6122
H34_3 H 0.7333 0.9914 0.6095
O30_4 O 0.2542(2) 0.1344(3) 0.6469(2)
H35_4 H 0.2645 0.1770 0.6526
H36_4 H 0.2661 0.1115 0.6293
O13_4 O 0.22651(18) 0.4606(3) 0.62757(16)
H1_4 H 0.1990 0.4494 0.6122
H2_4 H 0.2333 0.4914 0.6095
O14_4 O 0.2458(2) 0.6344(3) 0.8531(2)
H3_4 H 0.2355 0.6770 0.8474
H4_4 H 0.2339 0.6115 0.8707
O29_4 O 0.27349(18) 0.9606(3) 0.87243(16)
H33_4 H 0.3010 0.9494 0.8878
H34_4 H 0.2667 0.9914 0.8905
O15_4 O 0.0997(2) 0.8042(4) 0.8582(3)
H5_4 H 0.1215 0.7939 0.8495
H6_4 H 0.1045 0.8455 0.8721
O28_4 O 0.9003(2) 0.8042(4) 0.6418(3)
H31_4 H 0.8785 0.7939 0.6505
H32_4 H 0.8955 0.8455 0.6279
loop_
_geom_bond_atom_site_label_1
_geom_bond_atom_site_label_2
_geom_bond_site_symmetry_1
_geom_bond_site_symmetry_2
Cu1 O1 1_555 1_555
Cu2 O2 1_555 1_555
Cu3 O8 1_555 1_555
S1 C10 1_555 1_555
O1 C18 1_555 1_555
O2 C18 1_555 1_555
O3 C19 1_555 1_555
O5 Cu1 1_555 1_555
O6 Cu2 1_555 1_555
O7 C8 1_555 1_555
O8 C8 1_555 1_555
O9 Cu2 1_555 1_555
O10 Cu1 1_555 1_555
O11 C30 1_555 1_555
O12 C30 1_555 1_555
O13 Cu1 1_555 1_555
H1 O13 1_555 1_555
H2 O13 1_555 1_555
O14 Cu2 1_555 1_555
H3 O14 1_555 1_555
H4 O14 1_555 1_555
O15 Cu3 1_555 1_555
H5 O15 1_555 1_555
H6 O15 1_555 1_555
C1 C2 1_555 1_555
C2 H7 1_555 1_555
C3 C2 1_555 1_555
C4 C3 1_555 1_555
H8 C4 1_555 1_555
C5 C4 1_555 1_555
C6 C1 1_555 1_555
H9 C6 1_555 1_555
C7 O5 1_555 1_555
C8 C3 1_555 1_555
C9 C5 1_555 1_555
C10 C9 1_555 1_555
H10 C10 1_555 1_555
C11 C9 1_555 1_555
C12 C13 1_555 1_555
C13 H11 1_555 1_555
C14 C13 1_555 1_555
C15 C14 1_555 1_555
C16 C15 1_555 1_555
C17 C12 1_555 1_555
H13 C17 1_555 1_555
C18 C12 1_555 1_555
C19 C14 1_555 1_555
C20 C16 1_555 1_555
C22 C20 1_555 1_555
C23 C24 1_555 1_555
C24 H15 1_555 1_555
C25 C24 1_555 1_555
C26 C25 1_555 1_555
H16 C26 1_555 1_555
C27 C26 1_555 1_555
C28 C23 1_555 1_555
H17 C28 1_555 1_555
C29 O9 1_555 1_555
C30 C25 1_555 1_555
C31 C27 1_555 1_555
C32 C31 1_555 1_555
H18 C32 1_555 1_555
C33 C31 1_555 1_555
S4 C11 1_555 1_555
O16 C40 1_555 1_555
O17 C40 1_555 1_555
O18 C41 1_555 1_555
O19 C41 1_555 1_555
C34 C35 1_555 1_555
C35 H19 1_555 1_555
C36 C35 1_555 1_555
C37 C36 1_555 1_555
H20 C37 1_555 1_555
C38 C37 1_555 1_555
C39 C34 1_555 1_555
H21 C39 1_555 1_555
C40 C34 1_555 1_555
C41 C36 1_555 1_555
C42 C38 1_555 1_555
C43 S4 1_555 1_555
H22 C43 1_555 1_555
C44 S1 1_555 1_555
S5 C22 1_555 1_555
S6 C33 1_555 1_555
Cu4 O7 1_555 1_555
O28 Cu4 1_555 1_555
H31 O28 1_555 1_555
H32 O28 1_555 1_555
H33 O29 1_555 1_555
H34 O29 1_555 1_555
Cu8 O16 1_555 1_555
Cu12 O17 1_555 1_555
Cu16 O3 1_555 1_555
Cu17 O19 1_555 1_555
Cu18 O18 1_555 1_555
O33 Cu4 1_555 1_555
O34 Cu3 1_555 1_555
O35 Cu3 1_555 1_555
O36 Cu4 1_555 1_555
O39 Cu3 1_555 1_555
O40 Cu4 1_555 1_555
O43 Cu2 1_555 1_555
O44 Cu1 1_555 1_555
O6 C7 1_555 1_555
O10 C29 1_555 1_555
C1 C7 1_555 1_555
C5 C6 1_555 1_555
C11 C44 1_555 1_555
C16 C17 1_555 1_555
C23 C29 1_555 1_555
C27 C28 1_555 1_555
C38 C39 1_555 1_555
C42 C43 1_555 1_555
C42 C44 1_555 1_555
H26 C54 1_555 1_555
O24 C62 1_555 1_555
O25 C62 1_555 1_555
O26 C63 1_555 1_555
O27 C63 1_555 1_555
C56 C57 1_555 1_555
C57 H27 1_555 1_555
C58 C57 1_555 1_555
C59 C58 1_555 1_555
H28 C59 1_555 1_555
C60 C59 1_555 1_555
C61 C56 1_555 1_555
H29 C61 1_555 1_555
C62 C56 1_555 1_555
C63 C58 1_555 1_555
C64 C60 1_555 1_555
H30 C65 1_555 1_555
C66 S3 1_555 1_555
Cu9 O27 1_555 1_555
Cu10 O25 1_555 1_555
Cu13 O26 1_555 1_555
Cu14 O24 1_555 1_555
Cu19 O23 1_555 1_555
C60 C61 1_555 1_555
C64 C65 1_555 1_555
C64 C66 1_555 1_555
O30 Cu6 1_555 1_555
H35 O30 1_555 1_555
H36 O30 1_555 1_555
O31 Cu5 1_555 1_555
O32 Cu6 1_555 1_555
O38 Cu6 1_555 1_555
O41 Cu6 1_555 1_555
O42 Cu5 1_555 1_555
H14 C21 1_555 1_555
Cu15 O4 1_555 1_555
O20 C51 1_555 1_555
O21 C51 1_555 1_555
O22 C52 1_555 1_555
C45 C46 1_555 1_555
C46 H23 1_555 1_555
C47 C46 1_555 1_555
C48 C47 1_555 1_555
C49 C48 1_555 1_555
C50 C45 1_555 1_555
H25 C50 1_555 1_555
C51 C45 1_555 1_555
C52 C47 1_555 1_555
C53 C49 1_555 1_555
C55 S2 1_555 1_555
Cu8 O20 1_555 1_555
Cu12 O21 1_555 1_555
Cu20 O22 1_555 1_555
C49 C50 1_555 1_555
C53 C55 1_555 1_555
S2_2 C21_2 1_555 1_555
H14_2 C21_2 1_555 1_555
O20_2 C51_2 1_555 1_555
O21_2 C51_2 1_555 1_555
O22_2 C52_2 1_555 1_555
C45_2 C46_2 1_555 1_555
C46_2 H23_2 1_555 1_555
C47_2 C46_2 1_555 1_555
C48_2 C47_2 1_555 1_555
C49_2 C48_2 1_555 1_555
C50_2 C45_2 1_555 1_555
H25_2 C50_2 1_555 1_555
C51_2 C45_2 1_555 1_555
C52_2 C47_2 1_555 1_555
C53_2 C49_2 1_555 1_555
C55_2 S2_2 1_555 1_555
Cu9 O20_2 1_555 1_555
Cu13 O21_2 1_555 1_555
Cu16 O4_2 1_555 1_555
Cu19 O22_2 1_555 1_555
C49_2 C50_2 1_555 1_555
C53_2 C55_2 1_555 1_555
Cu1_2 O1_2 1_555 1_555
Cu2_2 O2_2 1_555 1_555
S3_2 C32_2 1_555 1_555
O1_2 C18_2 1_555 1_555
O2_2 C18_2 1_555 1_555
O3_2 C19_2 1_555 1_555
O5_2 Cu1_2 1_555 1_555
O6_2 Cu2_2 1_555 1_555
O39 C8_2 1_555 1_555
O40 C8_2 1_555 1_555
O9_2 Cu2_2 1_555 1_555
O10_2 Cu1_2 1_555 1_555
O11_2 C30_2 1_555 1_555
O12_2 C30_2 1_555 1_555
O13_2 Cu1_2 1_555 1_555
H1_2 O13_2 1_555 1_555
H2_2 O13_2 1_555 1_555
O14_2 Cu2_2 1_555 1_555
H3_2 O14_2 1_555 1_555
H4_2 O14_2 1_555 1_555
C1_2 C2_2 1_555 1_555
C2_2 H7_2 1_555 1_555
C3_2 C2_2 1_555 1_555
C4_2 C3_2 1_555 1_555
H8_2 C4_2 1_555 1_555
C5_2 C4_2 1_555 1_555
C6_2 C1_2 1_555 1_555
H9_2 C6_2 1_555 1_555
C7_2 O5_2 1_555 1_555
C8_2 C3_2 1_555 1_555
C9_2 C5_2 1_555 1_555
C10_2 C9_2 1_555 1_555
H10_2 C10_2 1_555 1_555
C11_2 C9_2 1_555 1_555
C12_2 C13_2 1_555 1_555
C13_2 H11_2 1_555 1_555
C14_2 C13_2 1_555 1_555
C15_2 C14_2 1_555 1_555
C16_2 C15_2 1_555 1_555
C17_2 C12_2 1_555 1_555
H13_2 C17_2 1_555 1_555
C18_2 C12_2 1_555 1_555
C19_2 C14_2 1_555 1_555
C20_2 C16_2 1_555 1_555
C22_2 C20_2 1_555 1_555
C23_2 C24_2 1_555 1_555
C24_2 H15_2 1_555 1_555
C25_2 C24_2 1_555 1_555
C26_2 C25_2 1_555 1_555
H16_2 C26_2 1_555 1_555
C27_2 C26_2 1_555 1_555
C28_2 C23_2 1_555 1_555
H17_2 C28_2 1_555 1_555
C29_2 O9_2 1_555 1_555
C30_2 C25_2 1_555 1_555
C31_2 C27_2 1_555 1_555
C32_2 C31_2 1_555 1_555
H18_2 C32_2 1_555 1_555
C33_2 C31_2 1_555 1_555
S4_2 C11_2 1_555 1_555
S5_2 C22_2 1_555 1_555
C54_2 S5_2 1_555 1_555
H26_2 C54_2 1_555 1_555
S6_2 C33_2 1_555 1_555
O24_2 C62_2 1_555 1_555
O25_2 C62_2 1_555 1_555
O26_2 C63_2 1_555 1_555
O27_2 C63_2 1_555 1_555
C56_2 C57_2 1_555 1_555
C57_2 H27_2 1_555 1_555
C58_2 C57_2 1_555 1_555
C59_2 C58_2 1_555 1_555
H28_2 C59_2 1_555 1_555
C60_2 C59_2 1_555 1_555
C61_2 C56_2 1_555 1_555
H29_2 C61_2 1_555 1_555
C62_2 C56_2 1_555 1_555
C63_2 C58_2 1_555 1_555
C64_2 C60_2 1_555 1_555
C65_2 S6_2 1_555 1_555
H30_2 C65_2 1_555 1_555
C66_2 S3_2 1_555 1_555
H33_2 O29_2 1_555 1_555
H34_2 O29_2 1_555 1_555
Cu8 O27_2 1_555 1_555
Cu10_2 O25_2 1_555 1_555
Cu12 O26_2 1_555 1_555
Cu14_2 O24_2 1_555 1_555
Cu15 O3_2 1_555 1_555
Cu20 O23_2 1_555 1_555
O43_2 Cu2_2 1_555 1_555
O44_2 Cu1_2 1_555 1_555
O6_2 C7_2 1_555 1_555
O10_2 C29_2 1_555 1_555
C1_2 C7_2 1_555 1_555
C5_2 C6_2 1_555 1_555
C16_2 C17_2 1_555 1_555
C23_2 C29_2 1_555 1_555
C27_2 C28_2 1_555 1_555
C33_2 C66_2 1_555 1_555
C60_2 C61_2 1_555 1_555
C64_2 C65_2 1_555 1_555
C64_2 C66_2 1_555 1_555
O16_2 C40_2 1_555 1_555
O17_2 C40_2 1_555 1_555
O18_2 C41_2 1_555 1_555
O19_2 C41_2 1_555 1_555
C34_2 C35_2 1_555 1_555
C35_2 H19_2 1_555 1_555
C36_2 C35_2 1_555 1_555
C37_2 C36_2 1_555 1_555
H20_2 C37_2 1_555 1_555
C38_2 C37_2 1_555 1_555
C39_2 C34_2 1_555 1_555
H21_2 C39_2 1_555 1_555
C40_2 C34_2 1_555 1_555
C41_2 C36_2 1_555 1_555
C42_2 C38_2 1_555 1_555
H22_2 C43_2 1_555 1_555
C44_2 S1_2 1_555 1_555
Cu9 O16_2 1_555 1_555
Cu13 O17_2 1_555 1_555
Cu18 O19_2 1_555 1_555
Cu17 O18_2 1_555 1_555
C38_2 C39_2 1_555 1_555
C42_2 C43_2 1_555 1_555
C42_2 C44_2 1_555 1_555
O30_2 Cu6_2 1_555 1_555
H35_2 O30_2 1_555 1_555
H36_2 O30_2 1_555 1_555
O31_2 Cu5_2 1_555 1_555
O32_2 Cu6_2 1_555 1_555
O38_2 Cu6_2 1_555 1_555
O41_2 Cu6_2 1_555 1_555
O42_2 Cu5_2 1_555 1_555
O17_3 C40_3 1_555 1_555
C39_3 C34_3 1_555 1_555
H21_3 C39_3 1_555 1_555
C40_3 C34_3 1_555 1_555
C42_3 C38_3 1_555 1_555
C43_3 S4_3 1_555 1_555
H22_3 C43_3 1_555 1_555
Cu16 O7_2 1_555 1_555
O28_2 Cu16 1_555 1_555
H31_2 O28_2 1_555 1_555
H32_2 O28_2 1_555 1_555
Cu14 O17_3 1_555 1_555
O40_2 Cu16 1_555 1_555
C38_3 C39_3 1_555 1_555
C42_3 C43_3 1_555 1_555
O19_3 C41_3 1_555 1_555
C35_3 H19_3 1_555 1_555
C36_3 C35_3 1_555 1_555
C37_3 C36_3 1_555 1_555
H20_3 C37_3 1_555 1_555
C41_3 C36_3 1_555 1_555
Cu19 O19_3 1_555 1_555
Cu15 O8_2 1_555 1_555
O8_2 C8_3 1_555 1_555
O15_2 Cu15 1_555 1_555
H5_2 O15_2 1_555 1_555
H6_2 O15_2 1_555 1_555
C2_3 H7_3 1_555 1_555
C3_3 C2_3 1_555 1_555
C4_3 C3_3 1_555 1_555
H8_3 C4_3 1_555 1_555
C8_3 C3_3 1_555 1_555
O39_2 Cu15 1_555 1_555
O20_3 C51_3 1_555 1_555
O21_3 C51_3 1_555 1_555
O22_3 C52_3 1_555 1_555
O23_3 C52_3 1_555 1_555
C45_3 C46_3 1_555 1_555
C46_3 H23_3 1_555 1_555
C47_3 C46_3 1_555 1_555
C48_3 C47_3 1_555 1_555
H24_3 C48_3 1_555 1_555
C49_3 C48_3 1_555 1_555
C50_3 C45_3 1_555 1_555
H25_3 C50_3 1_555 1_555
C51_3 C45_3 1_555 1_555
C52_3 C47_3 1_555 1_555
C53_3 C49_3 1_555 1_555
H26_3 C54_3 1_555 1_555
Cu10 O20_3 1_555 1_555
Cu14 O21_3 1_555 1_555
Cu17 O23_3 1_555 1_555
Cu18 O22_3 1_555 1_555
C49_3 C50_3 1_555 1_555
C53_3 C54_3 1_555 1_555
C53_3 C55_3 1_555 1_555
S1_3 C10_3 1_555 1_555
O31_2 C18_3 1_555 1_555
O32_2 C18_3 1_555 1_555
O33 C19_3 1_555 1_555
O35 C19_3 1_555 1_555
O43_2 C30_3 1_555 1_555
O44_2 C30_3 1_555 1_555
C6_3 C1_3 1_555 1_555
H9_3 C6_3 1_555 1_555
C9_3 C5_3 1_555 1_555
C10_3 C9_3 1_555 1_555
H10_3 C10_3 1_555 1_555
C12_3 C13_3 1_555 1_555
C13_3 H11_3 1_555 1_555
C14_3 C13_3 1_555 1_555
C15_3 C14_3 1_555 1_555
H12_3 C15_3 1_555 1_555
C16_3 C15_3 1_555 1_555
C17_3 C12_3 1_555 1_555
H13_3 C17_3 1_555 1_555
C18_3 C12_3 1_555 1_555
C19_3 C14_3 1_555 1_555
C20_3 C16_3 1_555 1_555
C21_3 C20_3 1_555 1_555
H14_3 C21_3 1_555 1_555
C22_3 C20_3 1_555 1_555
C23_3 C24_3 1_555 1_555
C24_3 H15_3 1_555 1_555
C25_3 C24_3 1_555 1_555
C26_3 C25_3 1_555 1_555
H16_3 C26_3 1_555 1_555
C27_3 C26_3 1_555 1_555
C28_3 C23_3 1_555 1_555
H17_3 C28_3 1_555 1_555
C29_3 O41_2 1_555 1_555
C30_3 C25_3 1_555 1_555
C31_3 C27_3 1_555 1_555
C32_3 C31_3 1_555 1_555
H18_3 C32_3 1_555 1_555
C33_3 C31_3 1_555 1_555
S6_3 C33_3 1_555 1_555
Cu20 O18_3 1_555 1_555
O38_2 C7_3 1_555 1_555
O42_2 C29_3 1_555 1_555
C1_3 C7_3 1_555 1_555
C5_3 C6_3 1_555 1_555
C16_3 C17_3 1_555 1_555
C23_3 C29_3 1_555 1_555
C27_3 C28_3 1_555 1_555
O24_3 C62_3 1_555 1_555
O25_3 C62_3 1_555 1_555
O26_3 C63_3 1_555 1_555
O27_3 C63_3 1_555 1_555
C56_3 C57_3 1_555 1_555
C57_3 H27_3 1_555 1_555
C58_3 C57_3 1_555 1_555
C59_3 C58_3 1_555 1_555
H28_3 C59_3 1_555 1_555
C60_3 C59_3 1_555 1_555
C61_3 C56_3 1_555 1_555
H29_3 C61_3 1_555 1_555
C62_3 C56_3 1_555 1_555
C63_3 C58_3 1_555 1_555
C64_3 C60_3 1_555 1_555
H30_3 C65_3 1_555 1_555
C66_3 S3_3 1_555 1_555
Cu8 O25_3 1_555 1_555
Cu12 O24_3 1_555 1_555
C60_3 C61_3 1_555 1_555
C64_3 C65_3 1_555 1_555
C64_3 C66_3 1_555 1_555
O40_2 C8_4 1_555 1_555
C2_4 H7_4 1_555 1_555
C3_4 C2_4 1_555 1_555
C4_4 C3_4 1_555 1_555
H8_4 C4_4 1_555 1_555
C8_4 C3_4 1_555 1_555
O20_4 C51_4 1_555 1_555
O21_4 C51_4 1_555 1_555
O22_4 C52_4 1_555 1_555
O23_4 C52_4 1_555 1_555
C45_4 C46_4 1_555 1_555
C46_4 H23_4 1_555 1_555
C47_4 C46_4 1_555 1_555
C48_4 C47_4 1_555 1_555
H24_4 C48_4 1_555 1_555
C49_4 C48_4 1_555 1_555
C50_4 C45_4 1_555 1_555
H25_4 C50_4 1_555 1_555
C51_4 C45_4 1_555 1_555
C52_4 C47_4 1_555 1_555
C53_4 C49_4 1_555 1_555
C54_4 S5_4 1_555 1_555
H26_4 C54_4 1_555 1_555
Cu10_2 O20_4 1_555 1_555
Cu14_2 O21_4 1_555 1_555
Cu18 O23_4 1_555 1_555
Cu17 O22_4 1_555 1_555
C49_4 C50_4 1_555 1_555
C53_4 C54_4 1_555 1_555
C53_4 C55_4 1_555 1_555
S2_4 C21_4 1_555 1_555
S3_4 C32_4 1_555 1_555
O31 C18_4 1_555 1_555
O32 C18_4 1_555 1_555
O34 C19_4 1_555 1_555
O36 C19_4 1_555 1_555
O43 C30_4 1_555 1_555
O44 C30_4 1_555 1_555
C6_4 C1_4 1_555 1_555
H9_4 C6_4 1_555 1_555
C9_4 C5_4 1_555 1_555
C10_4 C9_4 1_555 1_555
H10_4 C10_4 1_555 1_555
C12_4 C13_4 1_555 1_555
C13_4 H11_4 1_555 1_555
C14_4 C13_4 1_555 1_555
C15_4 C14_4 1_555 1_555
H12_4 C15_4 1_555 1_555
C16_4 C15_4 1_555 1_555
C17_4 C12_4 1_555 1_555
H13_4 C17_4 1_555 1_555
C18_4 C12_4 1_555 1_555
C19_4 C14_4 1_555 1_555
C20_4 C16_4 1_555 1_555
C21_4 C20_4 1_555 1_555
H14_4 C21_4 1_555 1_555
C22_4 C20_4 1_555 1_555
C23_4 C24_4 1_555 1_555
C24_4 H15_4 1_555 1_555
C25_4 C24_4 1_555 1_555
C26_4 C25_4 1_555 1_555
H16_4 C26_4 1_555 1_555
C27_4 C26_4 1_555 1_555
C28_4 C23_4 1_555 1_555
H17_4 C28_4 1_555 1_555
C29_4 O41 1_555 1_555
C30_4 C25_4 1_555 1_555
C31_4 C27_4 1_555 1_555
C32_4 C31_4 1_555 1_555
H18_4 C32_4 1_555 1_555
C33_4 C31_4 1_555 1_555
S6_4 C33_4 1_555 1_555
O24_4 C62_4 1_555 1_555
O25_4 C62_4 1_555 1_555
O26_4 C63_4 1_555 1_555
O27_4 C63_4 1_555 1_555
C56_4 C57_4 1_555 1_555
C57_4 H27_4 1_555 1_555
C58_4 C57_4 1_555 1_555
C59_4 C58_4 1_555 1_555
H28_4 C59_4 1_555 1_555
C60_4 C59_4 1_555 1_555
C61_4 C56_4 1_555 1_555
H29_4 C61_4 1_555 1_555
C62_4 C56_4 1_555 1_555
C63_4 C58_4 1_555 1_555
C64_4 C60_4 1_555 1_555
C65_4 S6_4 1_555 1_555
H30_4 C65_4 1_555 1_555
C66_4 S3_4 1_555 1_555
Cu9 O25_4 1_555 1_555
Cu13 O24_4 1_555 1_555
O38 C7_4 1_555 1_555
O42 C29_4 1_555 1_555
C1_4 C7_4 1_555 1_555
C5_4 C6_4 1_555 1_555
C16_4 C17_4 1_555 1_555
C23_4 C29_4 1_555 1_555
C27_4 C28_4 1_555 1_555
C33_4 C66_4 1_555 1_555
C60_4 C61_4 1_555 1_555
C64_4 C65_4 1_555 1_555
C64_4 C66_4 1_555 1_555
Cu19 O18_4 1_555 1_555
O17_4 C40_4 1_555 1_555
C39_4 C34_4 1_555 1_555
H21_4 C39_4 1_555 1_555
C40_4 C34_4 1_555 1_555
C42_4 C38_4 1_555 1_555
H22_4 C43_4 1_555 1_555
Cu14_2 O17_4 1_555 1_555
C38_4 C39_4 1_555 1_555
C42_4 C43_4 1_555 1_555
O19_4 C41_4 1_555 1_555
C35_4 H19_4 1_555 1_555
C36_4 C35_4 1_555 1_555
C37_4 C36_4 1_555 1_555
H20_4 C37_4 1_555 1_555
C41_4 C36_4 1_555 1_555
Cu20 O19_4 1_555 1_555
O30_3 Cu14_2 1_555 1_555
H35_3 O30_3 1_555 1_555
H36_3 O30_3 1_555 1_555
O13_3 Cu8 1_555 1_555
H1_3 O13_3 1_555 1_555
H2_3 O13_3 1_555 1_555
O14_3 Cu12 1_555 1_555
H3_3 O14_3 1_555 1_555
H4_3 O14_3 1_555 1_555
O15_3 Cu17 1_555 1_555
H5_3 O15_3 1_555 1_555
H6_3 O15_3 1_555 1_555
O28_3 Cu18 1_555 1_555
H31_3 O28_3 1_555 1_555
H32_3 O28_3 1_555 1_555
H33_3 O29_3 1_555 1_555
H34_3 O29_3 1_555 1_555
O30_4 Cu14 1_555 1_555
H35_4 O30_4 1_555 1_555
H36_4 O30_4 1_555 1_555
O13_4 Cu9 1_555 1_555
H1_4 O13_4 1_555 1_555
H2_4 O13_4 1_555 1_555
O14_4 Cu13 1_555 1_555
H3_4 O14_4 1_555 1_555
H4_4 O14_4 1_555 1_555
H33_4 O29_4 1_555 1_555
H34_4 O29_4 1_555 1_555
O15_4 Cu19 1_555 1_555
H5_4 O15_4 1_555 1_555
H6_4 O15_4 1_555 1_555
O28_4 Cu20 1_555 1_555
H31_4 O28_4 1_555 1_555
H32_4 O28_4 1_555 1_555

#END
