
###############################################################################
#
# This file contains modified crystal structure data generated from the
# MOF subset of the Cambridge Structural Database (CSD) v543 
# hosted by the Cambridge Crystallographic Data Centre (CCDC).
#
# This work is licensed under the Creative Commons
# Attribution-NonCommercial-ShareAlike 4.0 International License.
# To view a copy of this license, visit
# http://creativecommons.org/licenses/by-nc-sa/4.0/
# or send a letter to
# Creative Commons, PO Box 1866, Mountain View, CA 94042, USA.
#
# CIF created using the CSD Python API on 29 September 2022
# The structure has been converted into the P1 space group
# The structure has a 3D framework
# The original CSD entry NISPEL is in the monoclinic crystal system
# The framework has been calculated to contain at least 10.0% void space
# The void calculation uses a probe of radius 1.32A, grid spacing 0.4
# The framework is charged, counterions have been retained in the structure
# H atom positions have been added when not included in the experimental data
# Generated hydrogen atom positions removed from atoms on special positions
#
###############################################################################

data_NISPEL
_chemical_formula_moiety         '(C128 H176 N8 O96 P16 Zn12 8+)n'
_symmetry_cell_setting           triclinic
_symmetry_space_group_name_H-M   'P 1'
_symmetry_Int_Tables_number      1
_space_group_name_Hall           'P 1'
loop_
_symmetry_equiv_pos_site_id
_symmetry_equiv_pos_as_xyz
1 x,y,z
_cell_length_a                   25.997(13)
_cell_length_b                   8.577(4)
_cell_length_c                   25.822(13)
_cell_angle_alpha                90
_cell_angle_beta                 92.424(7)
_cell_angle_gamma                90
_cell_volume                     5752.54
loop_
_atom_site_label
_atom_site_type_symbol
_atom_site_fract_x
_atom_site_fract_y
_atom_site_fract_z
O9 O 0.3780(2) 0.0265(8) 0.2837(2)
Zn1 Zn 0.14122(2) 0.45695(6) 0.10828(2)
O1 O 0.16349(13) 0.3058(4) 0.05739(12)
P2 P 0.22526(5) 0.73686(14) 0.08797(4)
O6 O 0.20904(13) 0.8870(4) 0.06029(13)
O7 O 0.26379(14) 0.6451(5) 0.05902(13)
O8 O 0.17822(14) 0.6489(5) 0.10265(14)
C8 C 0.25963(19) 0.7915(6) 0.14737(18)
C9 C 0.2993(4) 0.8941(12) 0.1463(3)
H5 H 0.3073 0.9410 0.1152
C10 C 0.3283(3) 0.9300(12) 0.1915(3)
H6 H 0.3565 0.9961 0.1897
C11 C 0.3163(2) 0.8710(7) 0.23734(19)
C12 C 0.2769(3) 0.7707(10) 0.2389(2)
H7 H 0.2690 0.7248 0.2703
C13 C 0.2474(3) 0.7340(10) 0.1936(2)
H8 H 0.2190 0.6689 0.1957
C14 C 0.3457(2) 0.9214(8) 0.2860(2)
O10 O 0.33362(16) 0.8573(5) 0.32769(14)
Zn4 Zn 0.35878(2) 0.95695(6) 0.39172(2)
Zn5 Zn 0.270590(19) 0.50697(6) 0.00162(2)
O11 O 0.28987(12) 0.1023(4) 0.02118(14)
O12 O 0.07033(13) 0.5206(5) 0.09503(15)
O15 O 0.16638(16) 0.3573(5) 0.17231(14)
P1 P 0.16716(4) 0.29987(14) 0.99915(5)
O2 O 0.17045(12) 0.1302(4) 0.98146(14)
O3 O 0.21013(12) 0.3977(4) 0.97882(14)
C1 C 0.10877(17) 0.3810(5) 0.97042(18)
C2 C 0.0683(2) 0.2897(6) 0.9535(3)
H1 H 0.0715 0.1819 0.9556
C3 C 0.0228(2) 0.3534(7) 0.9335(3)
C4 C 0.01605(18) 0.5114(6) 0.9313(2)
C5 C 0.0565(2) 0.6045(7) 0.9474(2)
H3 H 0.0530 0.7124 0.9460
C6 C 0.1031(2) 0.5392(6) 0.9659(2)
H4 H 0.1306 0.6042 0.9753
Zn6 Zn 0.229410(19) 0.99303(6) 0.99838(2)
O14 O 0.23621(14) 0.8549(5) 0.94098(13)
H2 H 0.9964 0.2879 0.9213
C7 C 0.96508(18) 0.5772(7) 0.9125(2)
O4 O 0.92967(13) 0.4794(5) 0.90497(15)
O5 O 0.95985(15) 0.7221(5) 0.90655(19)
Zn3 Zn 0.85878(2) 0.54305(6) 0.89172(2)
P2_2 P 0.72526(5) 0.23686(14) 0.08797(4)
O6_2 O 0.70904(13) 0.3870(4) 0.06029(13)
O7_2 O 0.76379(14) 0.1451(5) 0.05902(13)
O8_2 O 0.67822(14) 0.1489(5) 0.10265(14)
C8_2 C 0.75963(19) 0.2915(6) 0.14737(18)
C9_2 C 0.7993(4) 0.3941(12) 0.1463(3)
H5_2 H 0.8073 0.4410 0.1152
C10_2 C 0.8283(3) 0.4300(12) 0.1915(3)
H6_2 H 0.8565 0.4961 0.1897
C11_2 C 0.8163(2) 0.3710(7) 0.23734(19)
C12_2 C 0.7769(3) 0.2707(10) 0.2389(2)
H7_2 H 0.7690 0.2248 0.2703
C13_2 C 0.7474(3) 0.2340(10) 0.1936(2)
H8_2 H 0.7190 0.1689 0.1957
C14_2 C 0.8457(2) 0.4214(8) 0.2860(2)
O9_2 O 0.8780(2) 0.5265(8) 0.2837(2)
O10_2 O 0.83362(16) 0.3573(5) 0.32769(14)
Zn4_2 Zn 0.85878(2) 0.45695(6) 0.39172(2)
Zn5_2 Zn 0.770590(19) 0.00697(6) 0.00162(2)
O12_2 O 0.57033(13) 0.0206(5) 0.09503(15)
C4_2 C 0.51605(18) 0.0114(6) 0.9313(2)
C5_2 C 0.5565(2) 0.1045(7) 0.9474(2)
H3_2 H 0.5530 0.2124 0.9460
C6_2 C 0.6031(2) 0.0392(6) 0.9659(2)
H4_2 H 0.6306 0.1042 0.9753
C7_2 C 0.46508(18) 0.0772(7) 0.9125(2)
O5_2 O 0.45985(15) 0.2221(5) 0.90655(19)
Zn3_2 Zn 0.35878(2) 0.04305(6) 0.89172(2)
Zn6_2 Zn 0.729410(19) 0.49303(6) 0.99838(2)
Zn1_2 Zn 0.64122(2) 0.95695(6) 0.10828(2)
O1_2 O 0.66349(13) 0.8058(4) 0.05739(12)
O11_2 O 0.78987(12) 0.6023(4) 0.02118(14)
O15_2 O 0.66638(16) 0.8573(5) 0.17231(14)
P1_2 P 0.66716(4) 0.79987(14) 0.99915(5)
O2_2 O 0.67045(12) 0.6302(4) 0.98146(14)
O3_2 O 0.71013(12) 0.8977(4) 0.97882(14)
C1_2 C 0.60877(17) 0.8810(5) 0.97042(18)
C2_2 C 0.5683(2) 0.7897(6) 0.9535(3)
H1_2 H 0.5715 0.6819 0.9556
C3_2 C 0.5228(2) 0.8534(7) 0.9335(3)
H2_2 H 0.4964 0.7879 0.9213
O4_2 O 0.42967(13) 0.9794(5) 0.90497(15)
O14_2 O 0.73621(14) 0.3549(5) 0.94098(13)
H2_3 H 0.0036 0.2879 0.5787
C7_3 C 0.03492(18) 0.5772(7) 0.5875(2)
O4_3 O 0.07033(13) 0.4794(5) 0.59503(15)
O5_3 O 0.04015(15) 0.7221(5) 0.59345(19)
Zn3_3 Zn 0.14122(2) 0.54305(6) 0.60828(2)
P1_3 P 0.83284(4) 0.29987(14) 0.50085(5)
O1_3 O 0.83651(13) 0.3058(4) 0.44261(12)
O2_3 O 0.82955(12) 0.1302(4) 0.51854(14)
O3_3 O 0.78987(12) 0.3977(4) 0.52118(14)
C1_3 C 0.89123(17) 0.3810(5) 0.52958(18)
C2_3 C 0.9317(2) 0.2897(6) 0.5465(3)
H1_3 H 0.9285 0.1819 0.5444
C3_3 C 0.9772(2) 0.3534(7) 0.5665(3)
C4_3 C 0.98395(18) 0.5114(6) 0.5687(2)
C5_3 C 0.9435(2) 0.6045(7) 0.5526(2)
H3_3 H 0.9470 0.7124 0.5540
C6_3 C 0.8969(2) 0.5392(6) 0.5341(2)
H4_3 H 0.8694 0.6042 0.5247
P2_3 P 0.77474(5) 0.73686(14) 0.41203(4)
O6_3 O 0.79096(13) 0.8870(4) 0.43971(13)
O7_3 O 0.73621(14) 0.6451(5) 0.44098(13)
O8_3 O 0.82178(14) 0.6489(5) 0.39735(14)
C8_3 C 0.74037(19) 0.7915(6) 0.35263(18)
C9_3 C 0.7007(4) 0.8941(12) 0.3537(3)
H5_3 H 0.6927 0.9410 0.3848
C10_3 C 0.6717(3) 0.9300(12) 0.3085(3)
H6_3 H 0.6435 0.9961 0.3103
C11_3 C 0.6837(2) 0.8710(7) 0.26266(19)
C12_3 C 0.7231(3) 0.7707(10) 0.2611(2)
H7_3 H 0.7310 0.7248 0.2297
C13_3 C 0.7526(3) 0.7340(10) 0.3064(2)
H8_3 H 0.7810 0.6689 0.3043
C14_3 C 0.6543(2) 0.9214(8) 0.2140(2)
Zn5_3 Zn 0.729410(19) 0.50697(6) 0.49838(2)
Zn6_3 Zn 0.770590(19) 0.99303(6) 0.50162(2)
O11_3 O 0.71013(12) 0.1023(4) 0.47882(14)
O12_3 O 0.92967(13) 0.5206(5) 0.40497(15)
O14_3 O 0.76379(14) 0.8549(5) 0.55902(13)
C4_4 C 0.48395(18) 0.0114(6) 0.5687(2)
C5_4 C 0.4435(2) 0.1045(7) 0.5526(2)
H3_4 H 0.4470 0.2124 0.5540
C6_4 C 0.3969(2) 0.0392(6) 0.5341(2)
H4_4 H 0.3694 0.1042 0.5247
C7_4 C 0.53492(18) 0.0772(7) 0.5875(2)
O5_4 O 0.54015(15) 0.2221(5) 0.59345(19)
P2_4 P 0.27474(5) 0.23686(14) 0.41203(4)
O6_4 O 0.29096(13) 0.3870(4) 0.43971(13)
O7_4 O 0.23621(14) 0.1451(5) 0.44098(13)
O8_4 O 0.32178(14) 0.1489(5) 0.39735(14)
C8_4 C 0.24037(19) 0.2915(6) 0.35263(18)
C9_4 C 0.2007(4) 0.3941(12) 0.3537(3)
H5_4 H 0.1927 0.4410 0.3848
C10_4 C 0.1717(3) 0.4300(12) 0.3085(3)
H6_4 H 0.1435 0.4961 0.3103
C11_4 C 0.1837(2) 0.3710(7) 0.26266(19)
C12_4 C 0.2231(3) 0.2707(10) 0.2611(2)
H7_4 H 0.2310 0.2248 0.2297
C13_4 C 0.2526(3) 0.2340(10) 0.3064(2)
H8_4 H 0.2810 0.1689 0.3043
C14_4 C 0.1543(2) 0.4214(8) 0.2140(2)
O9_3 O 0.1220(2) 0.5265(8) 0.2163(2)
Zn3_4 Zn 0.64122(2) 0.04305(6) 0.60828(2)
Zn5_4 Zn 0.229410(19) 0.00697(6) 0.49838(2)
Zn6_4 Zn 0.270590(19) 0.49303(6) 0.50162(2)
O12_4 O 0.42967(13) 0.0206(5) 0.40497(15)
P1_4 P 0.33284(4) 0.79987(14) 0.50085(5)
O1_4 O 0.33651(13) 0.8058(4) 0.44261(12)
O2_4 O 0.32955(12) 0.6302(4) 0.51854(14)
O3_4 O 0.28987(12) 0.8977(4) 0.52118(14)
C1_4 C 0.39123(17) 0.8810(5) 0.52958(18)
C2_4 C 0.4317(2) 0.7897(6) 0.5465(3)
H1_4 H 0.4285 0.6819 0.5444
C3_4 C 0.4772(2) 0.8534(7) 0.5665(3)
H2_4 H 0.5036 0.7879 0.5787
O4_4 O 0.57033(13) 0.9794(5) 0.59503(15)
O11_4 O 0.21013(12) 0.6023(4) 0.47882(14)
O14_4 O 0.26379(14) 0.3549(5) 0.55902(13)
H2_5 H 0.0036 0.7121 0.0787
C7_5 C 0.03492(18) 0.4228(7) 0.0875(2)
O5_5 O 0.04015(15) 0.2779(5) 0.09345(19)
O13 O 0.79096(13) 0.1130(4) 0.93971(13)
P1_5 P 0.83284(4) 0.70013(14) 0.00085(5)
O2_5 O 0.82955(12) 0.8698(4) 0.01854(14)
C1_5 C 0.89123(17) 0.6190(5) 0.02958(18)
C2_5 C 0.9317(2) 0.7103(6) 0.0465(3)
H1_5 H 0.9285 0.8181 0.0444
C3_5 C 0.9772(2) 0.6466(7) 0.0665(3)
C4_5 C 0.98395(18) 0.4886(6) 0.0687(2)
C5_5 C 0.9435(2) 0.3955(7) 0.0526(2)
H3_5 H 0.9470 0.2876 0.0540
C6_5 C 0.8969(2) 0.4608(6) 0.0341(2)
H4_5 H 0.8694 0.3958 0.0247
O1_5 O 0.83651(13) 0.6942(4) 0.94261(12)
P2_5 P 0.77474(5) 0.26314(14) 0.91203(4)
O8_5 O 0.82178(14) 0.3511(5) 0.89735(14)
C8_5 C 0.74037(19) 0.2085(6) 0.85263(18)
C9_5 C 0.7007(4) 0.1059(12) 0.8537(3)
H5_5 H 0.6927 0.0590 0.8848
C10_5 C 0.6717(3) 0.0700(12) 0.8085(3)
H6_5 H 0.6435 0.0039 0.8103
C11_5 C 0.6837(2) 0.1290(7) 0.76266(19)
C12_5 C 0.7231(3) 0.2293(10) 0.7611(2)
H7_5 H 0.7310 0.2752 0.7297
C13_5 C 0.7526(3) 0.2660(10) 0.8064(2)
H8_5 H 0.7810 0.3311 0.8043
C14_5 C 0.6543(2) 0.0786(8) 0.7140(2)
O10_3 O 0.66638(16) 0.1427(5) 0.67231(14)
O15_3 O 0.83362(16) 0.6427(5) 0.82769(14)
P1_6 P 0.33284(4) 0.20013(14) 0.00085(5)
O2_6 O 0.32955(12) 0.3698(4) 0.01854(14)
C1_6 C 0.39123(17) 0.1190(5) 0.02958(18)
C2_6 C 0.4317(2) 0.2103(6) 0.0465(3)
H1_6 H 0.4285 0.3181 0.0444
C3_6 C 0.4772(2) 0.1466(7) 0.0665(3)
H2_6 H 0.5036 0.2121 0.0787
O1_6 O 0.33651(13) 0.1942(4) 0.94261(12)
O13_2 O 0.29096(13) 0.6130(4) 0.93971(13)
O15_4 O 0.33362(16) 0.1427(5) 0.82769(14)
C4_6 C 0.48395(18) 0.9886(6) 0.0687(2)
C5_6 C 0.4435(2) 0.8955(7) 0.0526(2)
H3_6 H 0.4470 0.7876 0.0540
C6_6 C 0.3969(2) 0.9608(6) 0.0341(2)
H4_6 H 0.3694 0.8958 0.0247
C7_6 C 0.53492(18) 0.9228(7) 0.0875(2)
O5_6 O 0.54015(15) 0.7779(5) 0.09345(19)
P2_6 P 0.27474(5) 0.76314(14) 0.91203(4)
O8_6 O 0.32178(14) 0.8511(5) 0.89735(14)
C8_6 C 0.24037(19) 0.7085(6) 0.85263(18)
C9_6 C 0.2007(4) 0.6059(12) 0.8537(3)
H5_6 H 0.1927 0.5590 0.8848
C10_6 C 0.1717(3) 0.5700(12) 0.8085(3)
H6_6 H 0.1435 0.5039 0.8103
C11_6 C 0.1837(2) 0.6290(7) 0.76266(19)
C12_6 C 0.2231(3) 0.7293(10) 0.7611(2)
H7_6 H 0.2310 0.7752 0.7297
C13_6 C 0.2526(3) 0.7660(10) 0.8064(2)
H8_6 H 0.2810 0.8311 0.8043
C14_6 C 0.1543(2) 0.5786(8) 0.7140(2)
O9_4 O 0.1220(2) 0.4735(8) 0.7163(2)
O10_4 O 0.16638(16) 0.6427(5) 0.67231(14)
O13_3 O 0.20904(13) 0.1130(4) 0.56029(13)
P1_7 P 0.16716(4) 0.70013(14) 0.49915(5)
O1_7 O 0.16349(13) 0.6942(4) 0.55739(12)
O2_7 O 0.17045(12) 0.8698(4) 0.48146(14)
C1_7 C 0.10877(17) 0.6190(5) 0.47042(18)
C2_7 C 0.0683(2) 0.7103(6) 0.4535(3)
H1_7 H 0.0715 0.8181 0.4556
C3_7 C 0.0228(2) 0.6466(7) 0.4335(3)
C4_7 C 0.01605(18) 0.4886(6) 0.4313(2)
C5_7 C 0.0565(2) 0.3955(7) 0.4474(2)
H3_7 H 0.0530 0.2876 0.4460
C6_7 C 0.1031(2) 0.4608(6) 0.4659(2)
H4_7 H 0.1306 0.3958 0.4753
P2_7 P 0.22526(5) 0.26314(14) 0.58797(4)
O8_7 O 0.17822(14) 0.3511(5) 0.60265(14)
C8_7 C 0.25963(19) 0.2085(6) 0.64737(18)
C9_7 C 0.2993(4) 0.1059(12) 0.6463(3)
H5_7 H 0.3073 0.0590 0.6152
C10_7 C 0.3283(3) 0.0700(12) 0.6915(3)
H6_7 H 0.3565 0.0039 0.6897
C11_7 C 0.3163(2) 0.1290(7) 0.73734(19)
C12_7 C 0.2769(3) 0.2293(10) 0.7389(2)
H7_7 H 0.2690 0.2752 0.7703
C13_7 C 0.2474(3) 0.2660(10) 0.6936(2)
H8_7 H 0.2190 0.3311 0.6957
C14_7 C 0.3457(2) 0.0786(8) 0.7860(2)
H2_7 H 0.9964 0.7121 0.4213
C7_7 C 0.96508(18) 0.4228(7) 0.4125(2)
O5_7 O 0.95985(15) 0.2779(5) 0.40655(19)
P1_8 P 0.66716(4) 0.20013(14) 0.49915(5)
O1_8 O 0.66349(13) 0.1942(4) 0.55739(12)
O2_8 O 0.67045(12) 0.3698(4) 0.48146(14)
C1_8 C 0.60877(17) 0.1190(5) 0.47042(18)
C2_8 C 0.5683(2) 0.2103(6) 0.4535(3)
H1_8 H 0.5715 0.3181 0.4556
C3_8 C 0.5228(2) 0.1466(7) 0.4335(3)
H2_8 H 0.4964 0.2121 0.4213
O13_4 O 0.70904(13) 0.6130(4) 0.56029(13)
C4_8 C 0.51605(18) 0.9886(6) 0.4313(2)
C5_8 C 0.5565(2) 0.8955(7) 0.4474(2)
H3_8 H 0.5530 0.7876 0.4460
C6_8 C 0.6031(2) 0.9608(6) 0.4659(2)
H4_8 H 0.6306 0.8958 0.4753
C7_8 C 0.46508(18) 0.9228(7) 0.4125(2)
O5_8 O 0.45985(15) 0.7779(5) 0.40655(19)
P2_8 P 0.72526(5) 0.76314(14) 0.58797(4)
O8_8 O 0.67822(14) 0.8511(5) 0.60265(14)
C8_8 C 0.75963(19) 0.7085(6) 0.64737(18)
C9_8 C 0.7993(4) 0.6059(12) 0.6463(3)
H5_8 H 0.8073 0.5590 0.6152
C10_8 C 0.8283(3) 0.5700(12) 0.6915(3)
H6_8 H 0.8565 0.5039 0.6897
C11_8 C 0.8163(2) 0.6290(7) 0.73734(19)
C12_8 C 0.7769(3) 0.7293(10) 0.7389(2)
H7_8 H 0.7690 0.7752 0.7703
C13_8 C 0.7474(3) 0.7660(10) 0.6936(2)
H8_8 H 0.7190 0.8311 0.6957
C14_8 C 0.8457(2) 0.5786(8) 0.7860(2)
O9_5 O 0.8780(2) 0.4735(8) 0.7837(2)
O9_6 O 0.6220(2) 0.0265(8) 0.2163(2)
O9_7 O 0.6220(2) 0.9735(8) 0.7163(2)
O9_8 O 0.3780(2) 0.9735(8) 0.7837(2)
N1 N 0.3832(3) 0.4841(7) 0.9091(3)
H9 H 0.3512 0.5036 0.9194
H10 H 0.3893 0.3818 0.9141
C15 C 0.3842(5) 0.5159(13) 0.8536(5)
H11 H 0.3593 0.4513 0.8354
H12 H 0.4179 0.4937 0.8417
H13 H 0.3761 0.6236 0.8473
C16 C 0.4193(3) 0.5713(10) 0.9423(4)
H14 H 0.4155 0.5407 0.9777
H15 H 0.4124 0.6808 0.9387
H16 H 0.4538 0.5500 0.9325
H9_2 H 0.8512 0.0036 0.9194
C15_2 C 0.8842(5) 0.0159(13) 0.8536(5)
H13_2 H 0.8761 0.1236 0.8473
C16_2 C 0.9193(3) 0.0713(10) 0.9423(4)
H14_2 H 0.9155 0.0407 0.9777
H15_2 H 0.9124 0.1808 0.9387
H16_2 H 0.9538 0.0500 0.9325
N1_2 N 0.8832(3) 0.9841(7) 0.9091(3)
H10_2 H 0.8893 0.8818 0.9141
H11_2 H 0.8593 0.9513 0.8354
H12_2 H 0.9179 0.9937 0.8417
N1_3 N 0.6168(3) 0.4841(7) 0.5909(3)
H9_3 H 0.6488 0.5036 0.5806
H10_3 H 0.6107 0.3818 0.5859
C15_3 C 0.6158(5) 0.5159(13) 0.6464(5)
H11_3 H 0.6407 0.4513 0.6646
H12_3 H 0.5821 0.4937 0.6583
H13_3 H 0.6239 0.6236 0.6527
C16_3 C 0.5807(3) 0.5713(10) 0.5577(4)
H14_3 H 0.5845 0.5407 0.5223
H15_3 H 0.5876 0.6808 0.5613
H16_3 H 0.5462 0.5500 0.5675
H9_4 H 0.1488 0.0036 0.5806
C15_4 C 0.1158(5) 0.0159(13) 0.6464(5)
H13_4 H 0.1239 0.1236 0.6527
C16_4 C 0.0807(3) 0.0713(10) 0.5577(4)
H14_4 H 0.0845 0.0407 0.5223
H15_4 H 0.0876 0.1808 0.5613
H16_4 H 0.0462 0.0500 0.5675
N1_4 N 0.1168(3) 0.9841(7) 0.5909(3)
H10_4 H 0.1107 0.8818 0.5859
H11_4 H 0.1407 0.9513 0.6646
H12_4 H 0.0821 0.9937 0.6583
N1_5 N 0.6168(3) 0.5159(7) 0.0909(3)
H9_5 H 0.6488 0.4964 0.0806
H10_5 H 0.6107 0.6182 0.0859
C15_5 C 0.6158(5) 0.4841(13) 0.1464(5)
H11_5 H 0.6407 0.5487 0.1646
H12_5 H 0.5821 0.5063 0.1583
H13_5 H 0.6239 0.3764 0.1527
C16_5 C 0.5807(3) 0.4287(10) 0.0577(4)
H14_5 H 0.5845 0.4593 0.0223
H15_5 H 0.5876 0.3192 0.0613
H16_5 H 0.5462 0.4500 0.0675
N1_6 N 0.1168(3) 0.0159(7) 0.0909(3)
H10_6 H 0.1107 0.1182 0.0859
H11_6 H 0.1407 0.0487 0.1646
H12_6 H 0.0821 0.0063 0.1583
H9_6 H 0.1488 0.9964 0.0806
C15_6 C 0.1158(5) 0.9841(13) 0.1464(5)
H13_6 H 0.1239 0.8764 0.1527
C16_6 C 0.0807(3) 0.9287(10) 0.0577(4)
H14_6 H 0.0845 0.9593 0.0223
H15_6 H 0.0876 0.8192 0.0613
H16_6 H 0.0462 0.9500 0.0675
N1_7 N 0.3832(3) 0.5159(7) 0.4091(3)
H9_7 H 0.3512 0.4964 0.4194
H10_7 H 0.3893 0.6182 0.4141
C15_7 C 0.3842(5) 0.4841(13) 0.3536(5)
H11_7 H 0.3593 0.5487 0.3354
H12_7 H 0.4179 0.5063 0.3417
H13_7 H 0.3761 0.3764 0.3473
C16_7 C 0.4193(3) 0.4287(10) 0.4423(4)
H14_7 H 0.4155 0.4593 0.4777
H15_7 H 0.4124 0.3192 0.4387
H16_7 H 0.4538 0.4500 0.4325
N1_8 N 0.8832(3) 0.0159(7) 0.4091(3)
H10_8 H 0.8893 0.1182 0.4141
H11_8 H 0.8593 0.0487 0.3354
H12_8 H 0.9179 0.0063 0.3417
H9_8 H 0.8512 0.9964 0.4194
C15_8 C 0.8842(5) 0.9841(13) 0.3536(5)
H13_8 H 0.8761 0.8764 0.3473
C16_8 C 0.9193(3) 0.9287(10) 0.4423(4)
H14_8 H 0.9155 0.9593 0.4777
H15_8 H 0.9124 0.8192 0.4387
H16_8 H 0.9538 0.9500 0.4325
O16 O 0.2738(6) 0.726(2) 0.6318(5)
O16_2 O 0.7738(6) 0.226(2) 0.6318(5)
O16_3 O 0.7262(6) 0.726(2) 0.8682(5)
O16_4 O 0.2262(6) 0.226(2) 0.8682(5)
O16_5 O 0.7262(6) 0.274(2) 0.3682(5)
O16_6 O 0.2262(6) 0.774(2) 0.3682(5)
O16_7 O 0.2738(6) 0.274(2) 0.1318(5)
O16_8 O 0.7738(6) 0.774(2) 0.1318(5)
H21 H 0.0134055 0.0105297 0.840256
O17 O 0.0269(5) 0.916(2) 0.8584(7)
H20 H 0.0650967 0.916 0.8584
H22 H 0.0134055 0.82147 0.840256
O17_2 O 0.5269(5) 0.416(2) 0.8584(7)
H21_2 H 0.986594 0.0105297 0.659744
O17_3 O 0.9731(5) 0.916(2) 0.6416(7)
H20_2 H 0.934903 0.916 0.6416
H22_2 H 0.986594 0.82147 0.659744
O17_4 O 0.4731(5) 0.416(2) 0.6416(7)
O17_5 O 0.9731(5) 0.084(2) 0.1416(7)
H20_3 H 0.934903 0.084 0.1416
H22_3 H 0.986594 0.17853 0.159744
H21_3 H 0.986594 0.98947 0.159744
O17_6 O 0.4731(5) 0.584(2) 0.1416(7)
O17_7 O 0.0269(5) 0.084(2) 0.3584(7)
H20_4 H 0.0650967 0.084 0.3584
H22_4 H 0.0134055 0.17853 0.340256
H21_4 H 0.0134055 0.98947 0.340256
O17_8 O 0.5269(5) 0.584(2) 0.3584(7)
loop_
_geom_bond_atom_site_label_1
_geom_bond_atom_site_label_2
_geom_bond_site_symmetry_1
_geom_bond_site_symmetry_2
Zn1 O1 1_555 1_555
P2 O6 1_555 1_555
O7 P2 1_555 1_555
O8 Zn1 1_555 1_555
C8 P2 1_555 1_555
C9 C8 1_555 1_555
H5 C9 1_555 1_555
C10 C9 1_555 1_555
H6 C10 1_555 1_555
C11 C10 1_555 1_555
C12 C11 1_555 1_555
H7 C12 1_555 1_555
C13 C8 1_555 1_555
H8 C13 1_555 1_555
C14 C11 1_555 1_555
O10 C14 1_555 1_555
Zn4 O10 1_555 1_555
O12 Zn1 1_555 1_555
O15 Zn1 1_555 1_555
P2 O8 1_555 1_555
O7 Zn5 1_555 1_555
C12 C13 1_555 1_555
O2 P1 1_555 1_555
O3 P1 1_555 1_555
C1 P1 1_555 1_555
C2 C1 1_555 1_555
H1 C2 1_555 1_555
C3 C2 1_555 1_555
C4 C3 1_555 1_555
C5 C4 1_555 1_555
H3 C5 1_555 1_555
C6 C1 1_555 1_555
H4 C6 1_555 1_555
C5 C6 1_555 1_555
O14 Zn6 1_555 1_555
O4 C7 1_555 1_555
O5 C7 1_555 1_555
Zn3 O4 1_555 1_555
P2_2 O6_2 1_555 1_555
O7_2 P2_2 1_555 1_555
C8_2 P2_2 1_555 1_555
C9_2 C8_2 1_555 1_555
H5_2 C9_2 1_555 1_555
C10_2 C9_2 1_555 1_555
H6_2 C10_2 1_555 1_555
C11_2 C10_2 1_555 1_555
C12_2 C11_2 1_555 1_555
H7_2 C12_2 1_555 1_555
C13_2 C8_2 1_555 1_555
H8_2 C13_2 1_555 1_555
C14_2 C11_2 1_555 1_555
O9_2 C14_2 1_555 1_555
O10_2 C14_2 1_555 1_555
Zn4_2 O10_2 1_555 1_555
P2_2 O8_2 1_555 1_555
O7_2 Zn5_2 1_555 1_555
C12_2 C13_2 1_555 1_555
C5_2 C4_2 1_555 1_555
H3_2 C5_2 1_555 1_555
H4_2 C6_2 1_555 1_555
C7_2 C4_2 1_555 1_555
O5_2 C7_2 1_555 1_555
C5_2 C6_2 1_555 1_555
Zn1_2 O1_2 1_555 1_555
O15_2 Zn1_2 1_555 1_555
Zn6_2 O2_2 1_555 1_555
O2_2 P1_2 1_555 1_555
O3_2 P1_2 1_555 1_555
C1_2 P1_2 1_555 1_555
C2_2 C1_2 1_555 1_555
H1_2 C2_2 1_555 1_555
C3_2 C2_2 1_555 1_555
H2_2 C3_2 1_555 1_555
O14_2 Zn6_2 1_555 1_555
O4_3 C7_3 1_555 1_555
O5_3 C7_3 1_555 1_555
Zn3_3 O4_3 1_555 1_555
Zn4_2 O1_3 1_555 1_555
P1_3 O1_3 1_555 1_555
O2_3 P1_3 1_555 1_555
O3_3 P1_3 1_555 1_555
C1_3 P1_3 1_555 1_555
C2_3 C1_3 1_555 1_555
H1_3 C2_3 1_555 1_555
C3_3 C2_3 1_555 1_555
C4_3 C3_3 1_555 1_555
C5_3 C4_3 1_555 1_555
H3_3 C5_3 1_555 1_555
C6_3 C1_3 1_555 1_555
H4_3 C6_3 1_555 1_555
P2_3 O6_3 1_555 1_555
O6_3 Zn6_3 1_555 1_555
O7_3 P2_3 1_555 1_555
O8_3 Zn4_2 1_555 1_555
C8_3 P2_3 1_555 1_555
C9_3 C8_3 1_555 1_555
H5_3 C9_3 1_555 1_555
C10_3 C9_3 1_555 1_555
H6_3 C10_3 1_555 1_555
C11_3 C10_3 1_555 1_555
C12_3 C11_3 1_555 1_555
H7_3 C12_3 1_555 1_555
C13_3 C8_3 1_555 1_555
H8_3 C13_3 1_555 1_555
C14_3 C11_3 1_555 1_555
O15_2 C14_3 1_555 1_555
Zn5_3 O3_3 1_555 1_555
O12_3 Zn4_2 1_555 1_555
C5_3 C6_3 1_555 1_555
P2_3 O8_3 1_555 1_555
O7_3 Zn5_3 1_555 1_555
C12_3 C13_3 1_555 1_555
O14_3 Zn6_3 1_555 1_555
C5_4 C4_4 1_555 1_555
H3_4 C5_4 1_555 1_555
H4_4 C6_4 1_555 1_555
C7_4 C4_4 1_555 1_555
O5_4 C7_4 1_555 1_555
P2_4 O6_4 1_555 1_555
O6_4 Zn6_4 1_555 1_555
O7_4 P2_4 1_555 1_555
C8_4 P2_4 1_555 1_555
C9_4 C8_4 1_555 1_555
H5_4 C9_4 1_555 1_555
C10_4 C9_4 1_555 1_555
H6_4 C10_4 1_555 1_555
C11_4 C10_4 1_555 1_555
C12_4 C11_4 1_555 1_555
H7_4 C12_4 1_555 1_555
C13_4 C8_4 1_555 1_555
H8_4 C13_4 1_555 1_555
C14_4 C11_4 1_555 1_555
O9_3 C14_4 1_555 1_555
O15 C14_4 1_555 1_555
C5_4 C6_4 1_555 1_555
P2_4 O8_4 1_555 1_555
O7_4 Zn5_4 1_555 1_555
C12_4 C13_4 1_555 1_555
Zn4 O1_4 1_555 1_555
Zn6_4 O2_4 1_555 1_555
P1_4 O1_4 1_555 1_555
O2_4 P1_4 1_555 1_555
O3_4 P1_4 1_555 1_555
C1_4 P1_4 1_555 1_555
C2_4 C1_4 1_555 1_555
H1_4 C2_4 1_555 1_555
C3_4 C2_4 1_555 1_555
H2_4 C3_4 1_555 1_555
O11_4 Zn6_4 1_555 1_555
O14_4 Zn6_4 1_555 1_555
O12 C7_5 1_555 1_555
O5_5 C7_5 1_555 1_555
O2_5 P1_5 1_555 1_555
O11_2 P1_5 1_555 1_555
C1_5 P1_5 1_555 1_555
C2_5 C1_5 1_555 1_555
H1_5 C2_5 1_555 1_555
C3_5 C2_5 1_555 1_555
C4_5 C3_5 1_555 1_555
C5_5 C4_5 1_555 1_555
H3_5 C5_5 1_555 1_555
C6_5 C1_5 1_555 1_555
H4_5 C6_5 1_555 1_555
C5_5 C6_5 1_555 1_555
Zn3 O1_5 1_555 1_555
P2_5 O13 1_555 1_555
O14_2 P2_5 1_555 1_555
O8_5 Zn3 1_555 1_555
C8_5 P2_5 1_555 1_555
C9_5 C8_5 1_555 1_555
H5_5 C9_5 1_555 1_555
C10_5 C9_5 1_555 1_555
H6_5 C10_5 1_555 1_555
C11_5 C10_5 1_555 1_555
C12_5 C11_5 1_555 1_555
H7_5 C12_5 1_555 1_555
C13_5 C8_5 1_555 1_555
H8_5 C13_5 1_555 1_555
C14_5 C11_5 1_555 1_555
O10_3 C14_5 1_555 1_555
Zn3_4 O10_3 1_555 1_555
O15_3 Zn3 1_555 1_555
P2_5 O8_5 1_555 1_555
C12_5 C13_5 1_555 1_555
Zn5 O2_6 1_555 1_555
O2_6 P1_6 1_555 1_555
O11 P1_6 1_555 1_555
C1_6 P1_6 1_555 1_555
C2_6 C1_6 1_555 1_555
H1_6 C2_6 1_555 1_555
C3_6 C2_6 1_555 1_555
H2_6 C3_6 1_555 1_555
Zn3_2 O1_6 1_555 1_555
O15_4 Zn3_2 1_555 1_555
C5_6 C4_6 1_555 1_555
H3_6 C5_6 1_555 1_555
H4_6 C6_6 1_555 1_555
C7_6 C4_6 1_555 1_555
O5_6 C7_6 1_555 1_555
C5_6 C6_6 1_555 1_555
P2_6 O13_2 1_555 1_555
O14 P2_6 1_555 1_555
C8_6 P2_6 1_555 1_555
C9_6 C8_6 1_555 1_555
H5_6 C9_6 1_555 1_555
C10_6 C9_6 1_555 1_555
H6_6 C10_6 1_555 1_555
C11_6 C10_6 1_555 1_555
C12_6 C11_6 1_555 1_555
H7_6 C12_6 1_555 1_555
C13_6 C8_6 1_555 1_555
H8_6 C13_6 1_555 1_555
C14_6 C11_6 1_555 1_555
O9_4 C14_6 1_555 1_555
O10_4 C14_6 1_555 1_555
Zn3_3 O10_4 1_555 1_555
P2_6 O8_6 1_555 1_555
C12_6 C13_6 1_555 1_555
O13_3 Zn5_4 1_555 1_555
Zn3_3 O1_7 1_555 1_555
P1_7 O1_7 1_555 1_555
O2_7 P1_7 1_555 1_555
O11_4 P1_7 1_555 1_555
C1_7 P1_7 1_555 1_555
C2_7 C1_7 1_555 1_555
H1_7 C2_7 1_555 1_555
C3_7 C2_7 1_555 1_555
C4_7 C3_7 1_555 1_555
C5_7 C4_7 1_555 1_555
H3_7 C5_7 1_555 1_555
C6_7 C1_7 1_555 1_555
H4_7 C6_7 1_555 1_555
P2_7 O13_3 1_555 1_555
O14_4 P2_7 1_555 1_555
O8_7 Zn3_3 1_555 1_555
C8_7 P2_7 1_555 1_555
C9_7 C8_7 1_555 1_555
H5_7 C9_7 1_555 1_555
C10_7 C9_7 1_555 1_555
H6_7 C10_7 1_555 1_555
C11_7 C10_7 1_555 1_555
C12_7 C11_7 1_555 1_555
H7_7 C12_7 1_555 1_555
C13_7 C8_7 1_555 1_555
H8_7 C13_7 1_555 1_555
C14_7 C11_7 1_555 1_555
O15_4 C14_7 1_555 1_555
C5_7 C6_7 1_555 1_555
P2_7 O8_7 1_555 1_555
C12_7 C13_7 1_555 1_555
O12_3 C7_7 1_555 1_555
O5_7 C7_7 1_555 1_555
Zn3_4 O1_8 1_555 1_555
Zn5_3 O2_8 1_555 1_555
P1_8 O1_8 1_555 1_555
O2_8 P1_8 1_555 1_555
O11_3 P1_8 1_555 1_555
C1_8 P1_8 1_555 1_555
C2_8 C1_8 1_555 1_555
H1_8 C2_8 1_555 1_555
C3_8 C2_8 1_555 1_555
H2_8 C3_8 1_555 1_555
O13_4 Zn5_3 1_555 1_555
C5_8 C4_8 1_555 1_555
H3_8 C5_8 1_555 1_555
H4_8 C6_8 1_555 1_555
C7_8 C4_8 1_555 1_555
O5_8 C7_8 1_555 1_555
P2_8 O13_4 1_555 1_555
O14_3 P2_8 1_555 1_555
C8_8 P2_8 1_555 1_555
C9_8 C8_8 1_555 1_555
H5_8 C9_8 1_555 1_555
C10_8 C9_8 1_555 1_555
H6_8 C10_8 1_555 1_555
C11_8 C10_8 1_555 1_555
C12_8 C11_8 1_555 1_555
H7_8 C12_8 1_555 1_555
C13_8 C8_8 1_555 1_555
H8_8 C13_8 1_555 1_555
C14_8 C11_8 1_555 1_555
O9_5 C14_8 1_555 1_555
O15_3 C14_8 1_555 1_555
C5_8 C6_8 1_555 1_555
P2_8 O8_8 1_555 1_555
C12_8 C13_8 1_555 1_555
N1 H9 1_555 1_555
H10 N1 1_555 1_555
C15 N1 1_555 1_555
H11 C15 1_555 1_555
H12 C15 1_555 1_555
H13 C15 1_555 1_555
C16 N1 1_555 1_555
H14 C16 1_555 1_555
H15 C16 1_555 1_555
H16 C16 1_555 1_555
H13_2 C15_2 1_555 1_555
H14_2 C16_2 1_555 1_555
H15_2 C16_2 1_555 1_555
H16_2 C16_2 1_555 1_555
H10_2 N1_2 1_555 1_555
N1_3 H9_3 1_555 1_555
H10_3 N1_3 1_555 1_555
C15_3 N1_3 1_555 1_555
H11_3 C15_3 1_555 1_555
H12_3 C15_3 1_555 1_555
H13_3 C15_3 1_555 1_555
C16_3 N1_3 1_555 1_555
H14_3 C16_3 1_555 1_555
H15_3 C16_3 1_555 1_555
H16_3 C16_3 1_555 1_555
H13_4 C15_4 1_555 1_555
H14_4 C16_4 1_555 1_555
H15_4 C16_4 1_555 1_555
H16_4 C16_4 1_555 1_555
H10_4 N1_4 1_555 1_555
N1_5 H9_5 1_555 1_555
H10_5 N1_5 1_555 1_555
C15_5 N1_5 1_555 1_555
H11_5 C15_5 1_555 1_555
H12_5 C15_5 1_555 1_555
H13_5 C15_5 1_555 1_555
C16_5 N1_5 1_555 1_555
H14_5 C16_5 1_555 1_555
H15_5 C16_5 1_555 1_555
H16_5 C16_5 1_555 1_555
H10_6 N1_6 1_555 1_555
H13_6 C15_6 1_555 1_555
H14_6 C16_6 1_555 1_555
H15_6 C16_6 1_555 1_555
H16_6 C16_6 1_555 1_555
N1_7 H9_7 1_555 1_555
H10_7 N1_7 1_555 1_555
C15_7 N1_7 1_555 1_555
H11_7 C15_7 1_555 1_555
H12_7 C15_7 1_555 1_555
H13_7 C15_7 1_555 1_555
C16_7 N1_7 1_555 1_555
H14_7 C16_7 1_555 1_555
H15_7 C16_7 1_555 1_555
H16_7 C16_7 1_555 1_555
H10_8 N1_8 1_555 1_555
H13_8 C15_8 1_555 1_555
H14_8 C16_8 1_555 1_555
H15_8 C16_8 1_555 1_555
H16_8 C16_8 1_555 1_555
O17 H20 1_555 1_555
O17 H22 1_555 1_555
O17_3 H20_2 1_555 1_555
O17_3 H22_2 1_555 1_555
O17_5 H20_3 1_555 1_555
O17_5 H22_3 1_555 1_555
O17_7 H20_4 1_555 1_555
O17_7 H22_4 1_555 1_555

#END
