
###############################################################################
#
# This file contains modified crystal structure data generated from the
# MOF subset of the Cambridge Structural Database (CSD) v543 
# hosted by the Cambridge Crystallographic Data Centre (CCDC).
#
# This work is licensed under the Creative Commons
# Attribution-NonCommercial-ShareAlike 4.0 International License.
# To view a copy of this license, visit
# http://creativecommons.org/licenses/by-nc-sa/4.0/
# or send a letter to
# Creative Commons, PO Box 1866, Mountain View, CA 94042, USA.
#
# CIF created using the CSD Python API on 29 September 2022
# The structure has been converted into the P1 space group
# The structure has a 3D framework
# The original CSD entry NIVNUC is in the monoclinic crystal system
# The framework has been calculated to contain at least 10.0% void space
# The void calculation uses a probe of radius 1.32A, grid spacing 0.4
# H atom positions have been added when not included in the experimental data
# Generated hydrogen atom positions removed from atoms on special positions
#
###############################################################################

data_NIVNUC
_chemical_formula_moiety         '(C104 H64 Cu20 N88 O8 W12)n'
_symmetry_cell_setting           triclinic
_symmetry_space_group_name_H-M   'P 1'
_symmetry_Int_Tables_number      1
_space_group_name_Hall           'P 1'
loop_
_symmetry_equiv_pos_site_id
_symmetry_equiv_pos_as_xyz
1 x,y,z
_cell_length_a                   26.7378(19)
_cell_length_b                   14.7776(9)
_cell_length_c                   11.5160(8)
_cell_angle_alpha                90
_cell_angle_beta                 108.695(2)
_cell_angle_gamma                90
_cell_volume                     4310.13
loop_
_atom_site_label
_atom_site_type_symbol
_atom_site_fract_x
_atom_site_fract_y
_atom_site_fract_z
Cu5 Cu 0.2500 0.2500 -0.0000
Cu7 Cu 0.5000 0.23576(4) -0.0000
W1 W 0.349487(6) -0.0000 0.801523(15)
N2 N 0.4275(3) -0.0000 0.6307(7)
N5 N 0.21882(19) 0.0000 0.7129(6)
C2 C 0.4002(2) 0.0000 0.6886(5)
C5 C 0.2640(2) -0.0000 0.7440(5)
W4 W 0.138416(7) -0.0000 0.140182(15)
Cu4 Cu 0.2500 0.2500 0.5000
Cu5_2 Cu 0.2500 0.2500 1.0000
Cu7_2 Cu 0.5000 0.23576(4) 1.0000
N13 N 0.30314(12) 0.16267(19) 0.6002(2)
N15 N 0.44651(13) 0.1417(2) 0.9290(3)
N17 N 0.31334(14) 0.1472(2) 0.9747(3)
C15 C 0.32152(13) 0.1079(2) 0.6698(2)
C17 C 0.41354(14) 0.0915(2) 0.8858(3)
C18 C 0.32645(14) 0.0938(2) 0.9193(3)
Cu2 Cu 0.2500 0.7500 -0.0000
Cu3 Cu 0.5000 0.76424(4) -0.0000
N10 N 0.4111(3) 0.5000 0.1627(5)
C10 C 0.3943(2) 0.5000 0.0579(5)
W5 W 0.638416(7) 0.5000 0.140182(15)
O2 O 0.4747(2) 0.7568(4) 0.1888(4)
N16 N 0.55349(13) 0.8583(2) 0.0710(3)
N18 N 0.18666(14) 0.6472(2) 0.0253(3)
N19 N 0.55436(13) 0.6696(2) 0.0615(3)
N21 N 0.21115(12) 0.85317(19) 0.0475(2)
N24 N 0.29390(12) 0.73131(19) 0.1800(2)
C19 C 0.58405(14) 0.6125(2) 0.0896(3)
W1_2 W 0.349487(6) 1.0000 0.801523(15)
W2 W 0.361584(7) 0.5000 0.859818(15)
Cu1 Cu 0.2500 0.7500 0.5000
Cu2_2 Cu 0.2500 0.7500 1.0000
Cu3_2 Cu 0.5000 0.76424(4) 1.0000
O1 O 0.5253(2) 0.7568(4) 0.8112(4)
N1 N 0.30314(12) 0.83733(19) 0.6002(2)
N2_2 N 0.4275(3) 1.0000 0.6307(7)
N3 N 0.44651(13) 0.8583(2) 0.9290(3)
N4 N 0.31334(14) 0.8528(2) 0.9747(3)
N5_2 N 0.21882(19) 1.0000 0.7129(6)
N6 N 0.44564(13) 0.6696(2) 0.9385(3)
N7 N 0.4303(3) 0.5000 0.6676(8)
N8 N 0.29881(14) 0.6362(2) 0.6323(2)
N9 N 0.28885(12) 0.64683(19) 0.9525(2)
N11 N 0.20623(12) 0.7701(2) 0.6154(2)
N12 N 0.20610(12) 0.76869(19) 0.8200(2)
C1 C 0.32152(13) 0.8921(2) 0.6698(2)
C2_2 C 0.4002(2) 1.0000 0.6886(5)
C3 C 0.41354(14) 0.9085(2) 0.8858(3)
C4 C 0.32645(14) 0.9062(2) 0.9193(3)
C5_2 C 0.2640(2) 1.0000 0.7440(5)
C6 C 0.41595(14) 0.6125(2) 0.9104(3)
C7 C 0.4072(3) 0.5000 0.7353(6)
C8 C 0.32049(14) 0.5888(2) 0.7112(3)
C9 C 0.31295(13) 0.5934(2) 0.9220(2)
C11 C 0.15494(17) 0.7881(3) 0.5774(3)
H1 H 0.1373 0.7947 0.4940
C12 C 0.12726(18) 0.7970(4) 0.6597(4)
H2 H 0.0913 0.8099 0.6331
C13 C 0.15463(16) 0.7860(3) 0.7820(3)
H3 H 0.1369 0.7908 0.8391
C14 C 0.22982(14) 0.7623(2) 0.7357(2)
H4 H 0.2660 0.7514 0.7627
W3 W 0.150513(6) 0.5000 0.198477(15)
W4_2 W 0.138416(7) 1.0000 0.140182(15)
N14 N 0.19686(12) 0.66267(19) 0.3998(2)
N20 N 0.20119(14) 0.8638(2) 0.3677(2)
N22 N 0.29377(12) 0.7299(2) 0.3846(2)
C16 C 0.17848(13) 0.6079(2) 0.3302(2)
C20 C 0.41595(14) 0.3875(2) 0.9104(3)
C21 C 0.17951(14) 0.9112(2) 0.2888(3)
C22 C 0.32049(14) 0.4112(2) 0.7112(3)
C23 C 0.31295(13) 0.4066(2) 0.9220(2)
C24 C 0.34506(17) 0.7119(3) 0.4226(3)
H5 H 0.3627 0.7053 0.5060
C25 C 0.37274(18) 0.7030(4) 0.3403(4)
H6 H 0.4087 0.6901 0.3669
C26 C 0.34537(16) 0.7140(3) 0.2180(3)
H7 H 0.3631 0.7092 0.1609
C27 C 0.27018(14) 0.7377(2) 0.2643(2)
H8 H 0.2340 0.7486 0.2373
Cu3_3 Cu -0.0000 0.26424(4) -0.0000
Cu7_3 Cu -0.0000 0.73576(4) -0.0000
N16_2 N 0.05349(13) 0.3583(2) 0.0710(3)
N19_2 N 0.05436(13) 0.1696(2) 0.0615(3)
C19_2 C 0.08405(14) 0.1125(2) 0.0896(3)
H11 H 0.00245396 0.224161 0.253673
Cu3_4 Cu -0.0000 0.26424(4) 1.0000
O1_2 O 0.0253(2) 0.2568(4) 0.8112(4)
Cu7_4 Cu 0.0000 0.73576(4) 1.0000
Cu2_3 Cu 0.7500 0.2500 -0.0000
Cu3_5 Cu 1.0000 0.26424(4) -0.0000
N10_2 N 0.9111(3) -0.0000 0.1627(5)
C10_2 C 0.8943(2) -0.0000 0.0579(5)
Cu5_3 Cu 0.7500 0.7500 -0.0000
Cu7_5 Cu 1.0000 0.73576(4) -0.0000
O2_2 O 0.9747(2) 0.2568(4) 0.1888(4)
N18_2 N 0.68666(14) 0.1472(2) 0.0253(3)
N21_2 N 0.71115(12) 0.35317(19) 0.0475(2)
N24_2 N 0.79390(12) 0.23131(19) 0.1800(2)
W1_3 W 0.849487(6) 0.5000 0.801523(15)
W2_2 W 0.861584(7) -0.0000 0.859818(15)
Cu1_2 Cu 0.7500 0.2500 0.5000
Cu2_4 Cu 0.7500 0.2500 1.0000
Cu3_6 Cu 1.0000 0.26424(4) 1.0000
N1_2 N 0.80314(12) 0.33733(19) 0.6002(2)
N2_3 N 0.9275(3) 0.5000 0.6307(7)
N3_2 N 0.94651(13) 0.3583(2) 0.9290(3)
N4_2 N 0.81334(14) 0.3528(2) 0.9747(3)
N5_3 N 0.71882(19) 0.5000 0.7129(6)
N6_2 N 0.94564(13) 0.1696(2) 0.9385(3)
N7_2 N 0.9303(3) -0.0000 0.6676(8)
N8_2 N 0.79881(14) 0.1362(2) 0.6323(2)
N9_2 N 0.78885(12) 0.14683(19) 0.9525(2)
N11_2 N 0.70623(12) 0.2701(2) 0.6154(2)
N12_2 N 0.70610(12) 0.26869(19) 0.8200(2)
C1_2 C 0.82152(13) 0.3921(2) 0.6698(2)
C2_3 C 0.9002(2) 0.5000 0.6886(5)
C3_2 C 0.91354(14) 0.4085(2) 0.8858(3)
C4_2 C 0.82645(14) 0.4062(2) 0.9193(3)
C5_3 C 0.7640(2) 0.5000 0.7440(5)
C6_2 C 0.91595(14) 0.1125(2) 0.9104(3)
C7_2 C 0.9072(3) -0.0000 0.7353(6)
C8_2 C 0.82049(14) 0.0888(2) 0.7112(3)
C9_2 C 0.81295(13) 0.0934(2) 0.9220(2)
C11_2 C 0.65494(17) 0.2881(3) 0.5774(3)
H1_2 H 0.6373 0.2947 0.4940
C12_2 C 0.62726(18) 0.2970(4) 0.6597(4)
H2_2 H 0.5913 0.3099 0.6331
C13_2 C 0.65463(16) 0.2860(3) 0.7820(3)
H3_2 H 0.6369 0.2908 0.8391
C14_2 C 0.72982(14) 0.2623(2) 0.7357(2)
H4_2 H 0.7660 0.2514 0.7627
W3_2 W 0.650513(6) -0.0000 0.198477(15)
Cu4_2 Cu 0.7500 0.7500 0.5000
Cu5_4 Cu 0.7500 0.7500 1.0000
Cu7_6 Cu 1.0000 0.73576(4) 1.0000
N13_2 N 0.80314(12) 0.66267(19) 0.6002(2)
N14_2 N 0.69686(12) 0.16267(19) 0.3998(2)
N15_2 N 0.94651(13) 0.6417(2) 0.9290(3)
N17_2 N 0.81334(14) 0.6472(2) 0.9747(3)
N20_2 N 0.70119(14) 0.3638(2) 0.3677(2)
N22_2 N 0.79377(12) 0.2299(2) 0.3846(2)
C15_2 C 0.82152(13) 0.6079(2) 0.6698(2)
C16_2 C 0.67848(13) 0.1079(2) 0.3302(2)
C17_2 C 0.91354(14) 0.5915(2) 0.8858(3)
C18_2 C 0.82645(14) 0.5938(2) 0.9193(3)
C21_2 C 0.67951(14) 0.4112(2) 0.2888(3)
C24_2 C 0.84506(17) 0.2119(3) 0.4226(3)
H5_2 H 0.8627 0.2053 0.5060
C25_2 C 0.87274(18) 0.2030(4) 0.3403(4)
H6_2 H 0.9087 0.1901 0.3669
C26_2 C 0.84537(16) 0.2140(3) 0.2180(3)
H7_2 H 0.8631 0.2092 0.1609
C27_2 C 0.77018(14) 0.2377(2) 0.2643(2)
H8_2 H 0.7340 0.2486 0.2373
N10_3 N 0.9111(3) 1.0000 0.1627(5)
C10_3 C 0.8943(2) 1.0000 0.0579(5)
W2_3 W 0.861584(7) 1.0000 0.859818(15)
N7_3 N 0.9303(3) 1.0000 0.6676(8)
C7_3 C 0.9072(3) 1.0000 0.7353(6)
W3_3 W 0.650513(6) 1.0000 0.198477(15)
C20_2 C 0.91595(14) 0.8875(2) 0.9104(3)
C22_2 C 0.82049(14) 0.9112(2) 0.7112(3)
C23_2 C 0.81295(13) 0.9066(2) 0.9220(2)
N2_4 N 0.5725(3) 0.0000 0.3693(7)
N5_4 N 0.78118(19) 0.0000 0.2871(6)
C2_4 C 0.5998(2) 0.0000 0.3114(5)
C5_4 C 0.7360(2) 0.0000 0.2560(5)
N15_3 N 0.55349(13) 0.1417(2) 0.0710(3)
C17_3 C 0.58646(14) 0.0915(2) 0.1142(3)
C18_3 C 0.67355(14) 0.0938(2) 0.0807(3)
N1_3 N 0.69686(12) 0.83733(19) 0.3998(2)
N2_5 N 0.5725(3) 1.0000 0.3693(7)
N4_3 N 0.68666(14) 0.8528(2) 0.0253(3)
N5_5 N 0.78118(19) 1.0000 0.2871(6)
N7_4 N 0.5697(3) 0.5000 0.3324(8)
N8_3 N 0.70119(14) 0.6362(2) 0.3677(2)
N9_3 N 0.71115(12) 0.64683(19) 0.0475(2)
N11_3 N 0.79377(12) 0.7701(2) 0.3846(2)
N12_3 N 0.79390(12) 0.76869(19) 0.1800(2)
C1_3 C 0.67848(13) 0.8921(2) 0.3302(2)
C2_5 C 0.5998(2) 1.0000 0.3114(5)
C3_3 C 0.58646(14) 0.9085(2) 0.1142(3)
C4_3 C 0.67355(14) 0.9062(2) 0.0807(3)
C5_5 C 0.7360(2) 1.0000 0.2560(5)
C7_4 C 0.5928(3) 0.5000 0.2647(6)
C8_3 C 0.67951(14) 0.5888(2) 0.2888(3)
C9_3 C 0.68705(13) 0.5934(2) 0.0780(2)
C11_3 C 0.84506(17) 0.7881(3) 0.4226(3)
H1_3 H 0.8627 0.7947 0.5060
C12_3 C 0.87274(18) 0.7970(4) 0.3403(4)
H2_3 H 0.9087 0.8099 0.3669
C13_3 C 0.84537(16) 0.7860(3) 0.2180(3)
H3_3 H 0.8631 0.7908 0.1609
C14_3 C 0.77018(14) 0.7623(2) 0.2643(2)
H4_3 H 0.7340 0.7514 0.2373
N20_3 N 0.79881(14) 0.8638(2) 0.6323(2)
N22_3 N 0.70623(12) 0.7299(2) 0.6154(2)
N23 N 0.70610(12) 0.73131(19) 0.8200(2)
C20_3 C 0.58405(14) 0.3875(2) 0.0896(3)
C23_3 C 0.68705(13) 0.4066(2) 0.0780(2)
C24_3 C 0.65494(17) 0.7119(3) 0.5774(3)
H5_3 H 0.6373 0.7053 0.4940
C25_3 C 0.62726(18) 0.7030(4) 0.6597(4)
H6_3 H 0.5913 0.6901 0.6331
C26_3 C 0.65463(16) 0.7140(3) 0.7820(3)
H7_3 H 0.6369 0.7092 0.8391
C27_3 C 0.72982(14) 0.7377(2) 0.7357(2)
H8_3 H 0.7660 0.7486 0.7627
N10_4 N 0.5889(3) 0.5000 0.8373(5)
C10_4 C 0.6057(2) 0.5000 0.9421(5)
N21_3 N 0.78885(12) 0.85317(19) 0.9525(2)
N1_4 N 0.19686(12) 0.33733(19) 0.3998(2)
N2_6 N 0.0725(3) 0.5000 0.3693(7)
N4_4 N 0.18666(14) 0.3528(2) 0.0253(3)
N5_6 N 0.28118(19) 0.5000 0.2871(6)
N7_5 N 0.0697(3) -0.0000 0.3324(8)
N8_4 N 0.20119(14) 0.1362(2) 0.3677(2)
N9_4 N 0.21115(12) 0.14683(19) 0.0475(2)
N11_4 N 0.29377(12) 0.2701(2) 0.3846(2)
N12_4 N 0.29390(12) 0.26869(19) 0.1800(2)
C1_4 C 0.17848(13) 0.3921(2) 0.3302(2)
C2_6 C 0.0998(2) 0.5000 0.3114(5)
C3_4 C 0.08646(14) 0.4085(2) 0.1142(3)
C4_4 C 0.17355(14) 0.4062(2) 0.0807(3)
C5_6 C 0.2360(2) 0.5000 0.2560(5)
C7_5 C 0.0928(3) -0.0000 0.2647(6)
C8_4 C 0.17951(14) 0.0888(2) 0.2888(3)
C9_4 C 0.18705(13) 0.0934(2) 0.0780(2)
C11_4 C 0.34506(17) 0.2881(3) 0.4226(3)
H1_4 H 0.3627 0.2947 0.5060
C12_4 C 0.37274(18) 0.2970(4) 0.3403(4)
H2_4 H 0.4087 0.3099 0.3669
C13_4 C 0.34537(16) 0.2860(3) 0.2180(3)
H3_4 H 0.3631 0.2908 0.1609
C14_4 C 0.27018(14) 0.2623(2) 0.2643(2)
H4_4 H 0.2340 0.2514 0.2373
N15_4 N 0.05349(13) 0.6417(2) 0.0710(3)
N20_4 N 0.29881(14) 0.3638(2) 0.6323(2)
N22_4 N 0.20623(12) 0.2299(2) 0.6154(2)
N23_2 N 0.20610(12) 0.23131(19) 0.8200(2)
C17_4 C 0.08646(14) 0.5915(2) 0.1142(3)
C18_4 C 0.17355(14) 0.5938(2) 0.0807(3)
C24_4 C 0.15494(17) 0.2119(3) 0.5774(3)
H5_4 H 0.1373 0.2053 0.4940
C25_4 C 0.12726(18) 0.2030(4) 0.6597(4)
H6_4 H 0.0913 0.1901 0.6331
C26_4 C 0.15463(16) 0.2140(3) 0.7820(3)
H7_4 H 0.1369 0.2092 0.8391
C27_4 C 0.22982(14) 0.2377(2) 0.7357(2)
H8_4 H 0.2660 0.2486 0.7627
N10_5 N 0.0889(3) -0.0000 0.8373(5)
C10_5 C 0.1057(2) -0.0000 0.9421(5)
N21_4 N 0.28885(12) 0.35317(19) 0.9525(2)
N7_6 N 0.0697(3) 1.0000 0.3324(8)
C7_6 C 0.0928(3) 1.0000 0.2647(6)
C20_4 C 0.08405(14) 0.8875(2) 0.0896(3)
C23_4 C 0.18705(13) 0.9066(2) 0.0780(2)
N10_6 N 0.0889(3) 1.0000 0.8373(5)
C10_6 C 0.1057(2) 1.0000 0.9421(5)
H11_2 H 0.997546 0.224161 0.746327
O1_3 O 0.4747(2) 0.2432(4) 0.1888(4)
N6_3 N 0.55436(13) 0.3304(2) 0.0615(3)
O2_3 O 0.5253(2) 0.2432(4) 0.8112(4)
N19_3 N 0.44564(13) 0.3304(2) 0.9385(3)
N6_4 N 0.05436(13) 0.8304(2) 0.0615(3)
O2_4 O 0.0253(2) 0.7432(4) 0.8112(4)
O1_4 O 0.9747(2) 0.7432(4) 0.1888(4)
N19_4 N 0.94564(13) 0.8304(2) 0.9385(3)
H11_3 H 0.997546 0.775839 0.746327
H11_4 H 0.00245396 0.775839 0.253673
loop_
_geom_bond_atom_site_label_1
_geom_bond_atom_site_label_2
_geom_bond_site_symmetry_1
_geom_bond_site_symmetry_2
N2 C2 1_555 1_555
N5 C5 1_555 1_555
C2 W1 1_555 1_555
C5 W1 1_555 1_555
Cu4 N13 1_555 1_555
Cu5_2 N17 1_555 1_555
Cu7_2 N15 1_555 1_555
N13 C15 1_555 1_555
N15 C17 1_555 1_555
N17 C18 1_555 1_555
C15 W1 1_555 1_555
C17 W1 1_555 1_555
C18 W1 1_555 1_555
N10 C10 1_555 1_555
W5 C19 1_555 1_555
O2 Cu3 1_555 1_555
N16 Cu3 1_555 1_555
N18 Cu2 1_555 1_555
N19 Cu3 1_555 1_555
N21 Cu2 1_555 1_555
N24 Cu2 1_555 1_555
C19 N19 1_555 1_555
W1_2 C1 1_555 1_555
W2 C6 1_555 1_555
Cu1 N1 1_555 1_555
Cu2_2 N4 1_555 1_555
Cu3_2 O1 1_555 1_555
N1 C1 1_555 1_555
N2_2 C2_2 1_555 1_555
N3 Cu3_2 1_555 1_555
N4 C4 1_555 1_555
N5_2 C5_2 1_555 1_555
N6 Cu3_2 1_555 1_555
N7 C7 1_555 1_555
N8 Cu1 1_555 1_555
N9 Cu2_2 1_555 1_555
N11 Cu1 1_555 1_555
N12 Cu2_2 1_555 1_555
C2_2 W1_2 1_555 1_555
C3 W1_2 1_555 1_555
C4 W1_2 1_555 1_555
C5_2 W1_2 1_555 1_555
C6 N6 1_555 1_555
C7 W2 1_555 1_555
C8 W2 1_555 1_555
C9 W2 1_555 1_555
C11 N11 1_555 1_555
H1 C11 1_555 1_555
C12 C11 1_555 1_555
H2 C12 1_555 1_555
C13 N12 1_555 1_555
H3 C13 1_555 1_555
C14 N11 1_555 1_555
H4 C14 1_555 1_555
W3 C16 1_555 1_555
W4_2 C21 1_555 1_555
N14 Cu1 1_555 1_555
N20 Cu1 1_555 1_555
N22 Cu1 1_555 1_555
N24 C26 1_555 1_555
C16 N14 1_555 1_555
C20 W2 1_555 1_555
C21 N20 1_555 1_555
C22 W2 1_555 1_555
C23 W2 1_555 1_555
C24 N22 1_555 1_555
H5 C24 1_555 1_555
C25 C24 1_555 1_555
H6 C25 1_555 1_555
C26 C25 1_555 1_555
H7 C26 1_555 1_555
C27 N22 1_555 1_555
H8 C27 1_555 1_555
N3 C3 1_555 1_555
N8 C8 1_555 1_555
N9 C9 1_555 1_555
N12 C14 1_555 1_555
C12 C13 1_555 1_555
N24 C27 1_555 1_555
W4 C19_2 1_555 1_555
N16_2 Cu3_3 1_555 1_555
N19_2 Cu3_3 1_555 1_555
C19_2 N19_2 1_555 1_555
Cu3_4 O1_2 1_555 1_555
N10_2 C10_2 1_555 1_555
O2_2 Cu3_5 1_555 1_555
N18_2 Cu2_3 1_555 1_555
N21_2 Cu2_3 1_555 1_555
N24_2 Cu2_3 1_555 1_555
W1_3 C1_2 1_555 1_555
W2_2 C6_2 1_555 1_555
Cu1_2 N1_2 1_555 1_555
Cu2_4 N4_2 1_555 1_555
N1_2 C1_2 1_555 1_555
N2_3 C2_3 1_555 1_555
N3_2 Cu3_6 1_555 1_555
N4_2 C4_2 1_555 1_555
N5_3 C5_3 1_555 1_555
N6_2 Cu3_6 1_555 1_555
N7_2 C7_2 1_555 1_555
N8_2 Cu1_2 1_555 1_555
N9_2 Cu2_4 1_555 1_555
N11_2 Cu1_2 1_555 1_555
N12_2 Cu2_4 1_555 1_555
C2_3 W1_3 1_555 1_555
C3_2 W1_3 1_555 1_555
C4_2 W1_3 1_555 1_555
C5_3 W1_3 1_555 1_555
C6_2 N6_2 1_555 1_555
C7_2 W2_2 1_555 1_555
C8_2 W2_2 1_555 1_555
C9_2 W2_2 1_555 1_555
C11_2 N11_2 1_555 1_555
H1_2 C11_2 1_555 1_555
C12_2 C11_2 1_555 1_555
H2_2 C12_2 1_555 1_555
C13_2 N12_2 1_555 1_555
H3_2 C13_2 1_555 1_555
C14_2 N11_2 1_555 1_555
H4_2 C14_2 1_555 1_555
W3_2 C16_2 1_555 1_555
W5 C21_2 1_555 1_555
Cu4_2 N13_2 1_555 1_555
Cu5_4 N17_2 1_555 1_555
Cu7_6 N15_2 1_555 1_555
N13_2 C15_2 1_555 1_555
N14_2 Cu1_2 1_555 1_555
N15_2 C17_2 1_555 1_555
N17_2 C18_2 1_555 1_555
N20_2 Cu1_2 1_555 1_555
N22_2 Cu1_2 1_555 1_555
N24_2 C26_2 1_555 1_555
C15_2 W1_3 1_555 1_555
C16_2 N14_2 1_555 1_555
C17_2 W1_3 1_555 1_555
C18_2 W1_3 1_555 1_555
C21_2 N20_2 1_555 1_555
C24_2 N22_2 1_555 1_555
H5_2 C24_2 1_555 1_555
C25_2 C24_2 1_555 1_555
H6_2 C25_2 1_555 1_555
C26_2 C25_2 1_555 1_555
H7_2 C26_2 1_555 1_555
C27_2 N22_2 1_555 1_555
H8_2 C27_2 1_555 1_555
N3_2 C3_2 1_555 1_555
N8_2 C8_2 1_555 1_555
N9_2 C9_2 1_555 1_555
N12_2 C14_2 1_555 1_555
C12_2 C13_2 1_555 1_555
N24_2 C27_2 1_555 1_555
N10_3 C10_3 1_555 1_555
N7_3 C7_3 1_555 1_555
C7_3 W2_3 1_555 1_555
C20_2 W2_3 1_555 1_555
C22_2 W2_3 1_555 1_555
C23_2 W2_3 1_555 1_555
N2_4 C2_4 1_555 1_555
N5_4 C5_4 1_555 1_555
C2_4 W3_2 1_555 1_555
C5_4 W3_2 1_555 1_555
Cu7 N15_3 1_555 1_555
N15_3 C17_3 1_555 1_555
N18_2 C18_3 1_555 1_555
C17_3 W3_2 1_555 1_555
C18_3 W3_2 1_555 1_555
W3_3 C1_3 1_555 1_555
Cu4_2 N1_3 1_555 1_555
Cu5_3 N4_3 1_555 1_555
N1_3 C1_3 1_555 1_555
N2_5 C2_5 1_555 1_555
N4_3 C4_3 1_555 1_555
N5_5 C5_5 1_555 1_555
N7_4 C7_4 1_555 1_555
N8_3 Cu4_2 1_555 1_555
N9_3 Cu5_3 1_555 1_555
N11_3 Cu4_2 1_555 1_555
N12_3 Cu5_3 1_555 1_555
C2_5 W3_3 1_555 1_555
C3_3 W3_3 1_555 1_555
C4_3 W3_3 1_555 1_555
C5_5 W3_3 1_555 1_555
C7_4 W5 1_555 1_555
C8_3 W5 1_555 1_555
C9_3 W5 1_555 1_555
C11_3 N11_3 1_555 1_555
H1_3 C11_3 1_555 1_555
C12_3 C11_3 1_555 1_555
H2_3 C12_3 1_555 1_555
C13_3 N12_3 1_555 1_555
H3_3 C13_3 1_555 1_555
C14_3 N11_3 1_555 1_555
H4_3 C14_3 1_555 1_555
Cu5_4 N23 1_555 1_555
N20_3 Cu4_2 1_555 1_555
N22_3 Cu4_2 1_555 1_555
N23 C26_3 1_555 1_555
C20_3 W5 1_555 1_555
C22_2 N20_3 1_555 1_555
C23_3 W5 1_555 1_555
C24_3 N22_3 1_555 1_555
H5_3 C24_3 1_555 1_555
C25_3 C24_3 1_555 1_555
H6_3 C25_3 1_555 1_555
C26_3 C25_3 1_555 1_555
H7_3 C26_3 1_555 1_555
C27_3 N22_3 1_555 1_555
H8_3 C27_3 1_555 1_555
N16 C3_3 1_555 1_555
N8_3 C8_3 1_555 1_555
N9_3 C9_3 1_555 1_555
N12_3 C14_3 1_555 1_555
C12_3 C13_3 1_555 1_555
N23 C27_3 1_555 1_555
N10_4 C10_4 1_555 1_555
N21_3 Cu5_4 1_555 1_555
W3 C1_4 1_555 1_555
Cu4 N1_4 1_555 1_555
Cu5 N4_4 1_555 1_555
N1_4 C1_4 1_555 1_555
N2_6 C2_6 1_555 1_555
N4_4 C4_4 1_555 1_555
N5_6 C5_6 1_555 1_555
N7_5 C7_5 1_555 1_555
N8_4 Cu4 1_555 1_555
N9_4 Cu5 1_555 1_555
N11_4 Cu4 1_555 1_555
N12_4 Cu5 1_555 1_555
C2_6 W3 1_555 1_555
C3_4 W3 1_555 1_555
C4_4 W3 1_555 1_555
C5_6 W3 1_555 1_555
C7_5 W4 1_555 1_555
C8_4 W4 1_555 1_555
C9_4 W4 1_555 1_555
C11_4 N11_4 1_555 1_555
H1_4 C11_4 1_555 1_555
C12_4 C11_4 1_555 1_555
H2_4 C12_4 1_555 1_555
C13_4 N12_4 1_555 1_555
H3_4 C13_4 1_555 1_555
C14_4 N11_4 1_555 1_555
H4_4 C14_4 1_555 1_555
Cu5_2 N23_2 1_555 1_555
Cu7_3 N15_4 1_555 1_555
N15_4 C17_4 1_555 1_555
N18 C18_4 1_555 1_555
N20_4 Cu4 1_555 1_555
N22_4 Cu4 1_555 1_555
N23_2 C26_4 1_555 1_555
C17_4 W3 1_555 1_555
C18_4 W3 1_555 1_555
C22 N20_4 1_555 1_555
C24_4 N22_4 1_555 1_555
H5_4 C24_4 1_555 1_555
C25_4 C24_4 1_555 1_555
H6_4 C25_4 1_555 1_555
C26_4 C25_4 1_555 1_555
H7_4 C26_4 1_555 1_555
C27_4 N22_4 1_555 1_555
H8_4 C27_4 1_555 1_555
N16_2 C3_4 1_555 1_555
N8_4 C8_4 1_555 1_555
N9_4 C9_4 1_555 1_555
N12_4 C14_4 1_555 1_555
C12_4 C13_4 1_555 1_555
N23_2 C27_4 1_555 1_555
N10_5 C10_5 1_555 1_555
N21_4 Cu5_2 1_555 1_555
N7_6 C7_6 1_555 1_555
C7_6 W4_2 1_555 1_555
C20_4 W4_2 1_555 1_555
C23_4 W4_2 1_555 1_555
N10_6 C10_6 1_555 1_555
Cu7 O1_3 1_555 1_555
N6_3 Cu7 1_555 1_555
C20_3 N6_3 1_555 1_555
N21_2 C23_3 1_555 1_555
O2_3 Cu7_2 1_555 1_555
N19_3 Cu7_2 1_555 1_555
C20 N19_3 1_555 1_555
N6_4 Cu7_3 1_555 1_555
C20_4 N6_4 1_555 1_555
N21 C23_4 1_555 1_555
O2_4 Cu7_4 1_555 1_555
Cu7_5 O1_4 1_555 1_555
N19_4 Cu7_6 1_555 1_555
C20_2 N19_4 1_555 1_555
N21_4 C23 1_555 1_555
N21_3 C23_2 1_555 1_555

#END
