
###############################################################################
#
# This file contains modified crystal structure data generated from the
# MOF subset of the Cambridge Structural Database (CSD) v543 
# hosted by the Cambridge Crystallographic Data Centre (CCDC).
#
# This work is licensed under the Creative Commons
# Attribution-NonCommercial-ShareAlike 4.0 International License.
# To view a copy of this license, visit
# http://creativecommons.org/licenses/by-nc-sa/4.0/
# or send a letter to
# Creative Commons, PO Box 1866, Mountain View, CA 94042, USA.
#
# CIF created using the CSD Python API on 29 September 2022
# The structure has been converted into the P1 space group
# The structure has a 3D framework
# The original CSD entry NIVWIY is in the orthorhombic crystal system
# The framework has been calculated to contain at least 10.0% void space
# The void calculation uses a probe of radius 1.32A, grid spacing 0.4
# H atom positions have been added when not included in the experimental data
# Generated hydrogen atom positions removed from atoms on special positions
#
###############################################################################

data_NIVWIY
_chemical_formula_moiety         '(C14 H28 Gd6 O28)n'
_symmetry_cell_setting           triclinic
_symmetry_space_group_name_H-M   'P 1'
_symmetry_Int_Tables_number      1
_space_group_name_Hall           'P 1'
loop_
_symmetry_equiv_pos_site_id
_symmetry_equiv_pos_as_xyz
1 x,y,z
_cell_length_a                   7.8941(9)
_cell_length_b                   15.127(2)
_cell_length_c                   4.7931(4)
_cell_angle_alpha                90
_cell_angle_beta                 90
_cell_angle_gamma                90
_cell_volume                     572.363
loop_
_atom_site_label
_atom_site_type_symbol
_atom_site_fract_x
_atom_site_fract_y
_atom_site_fract_z
C1 C 0.1034(6) -0.00000 0.5
Gd6 Gd -0.0000 0.20718(2) 0.5
O19 O 0.1721(5) 0.0745(5) 0.5
O5 O 0.0113(6) 0.6336(3) 0.5
C4 C 0.3078(5) 0.7249(4) -0.0000
Gd5 Gd 0.0000 0.79282(2) 0.5
O10 O 0.1721(5) 0.9255(5) 0.5
O13 O 0.2463(6) 0.7458(6) 0.2356(5)
O14 O 0.2463(6) 0.7458(6) 0.7644(5)
Gd7 Gd 0.5000 0.70718(2) 0.5
O20 O 0.4479(5) 0.6806(3) -0.0000
C1_2 C 0.1034(6) 1.00000 0.5
C4_2 C 0.3078(5) 0.7249(4) 1.0000
O20_2 O 0.4479(5) 0.6806(3) 1.0000
C2 C 0.9083(6) -0.00000 0.5
O18 O 0.8338(5) 0.0733(5) 0.5
Gd6_2 Gd 1.0000 0.20718(2) 0.5
O15 O 0.9479(5) 0.8194(3) 0.0000
O3 O 0.7463(6) 0.7542(6) 0.2356(5)
C3 C 0.8078(5) 0.7751(4) -0.0000
Gd5_2 Gd 1.0000 0.79282(2) 0.5
O11 O 0.8338(5) 0.9267(5) 0.5
O12 O 0.7463(6) 0.7542(6) 0.7644(5)
O15_2 O 0.9479(5) 0.8194(3) 1.0000
C2_2 C 0.9083(6) 1.00000 0.5
C3_2 C 0.8078(5) 0.7751(4) 1.0000
H4 H 0.894337 0.609443 0.5
O8 O 0.2463(6) 0.2542(6) 0.7644(5)
Gd4 Gd 0.5000 0.29282(2) 0.5
O9 O 0.2463(6) 0.2542(6) 0.2356(5)
C4_3 C 0.3078(5) 0.2751(4) 0.0000
O17 O 0.0113(6) 0.3664(3) 0.5
O20_3 O 0.4479(5) 0.3194(3) 0.0000
C4_4 C 0.3078(5) 0.2751(4) 1.0000
O20_4 O 0.4479(5) 0.3194(3) 1.0000
O16 O 0.9479(5) 0.1806(3) 0.0000
C3_3 C 0.8078(5) 0.2249(4) 0.0000
O6 O 0.7463(6) 0.2458(6) 0.2356(5)
O7 O 0.7463(6) 0.2458(6) 0.7644(5)
O16_2 O 0.9479(5) 0.1806(3) 1.0000
H4_2 H 0.894337 0.390557 0.5
C3_4 C 0.8078(5) 0.2249(4) 1.0000
O5_2 O 0.5113(6) 0.1336(3) 0.5
O10_2 O 0.6721(5) 0.4255(5) 0.5
O11_2 O 0.3338(5) 0.4267(5) 0.5
C1_3 C 0.6034(6) 0.50000 0.5
C2_3 C 0.4083(6) 0.50000 0.5
O18_2 O 0.3338(5) 0.5733(5) 0.5
O19_2 O 0.6721(5) 0.5745(5) 0.5
O17_2 O 0.5113(6) 0.8664(3) 0.5
loop_
_geom_bond_atom_site_label_1
_geom_bond_atom_site_label_2
_geom_bond_site_symmetry_1
_geom_bond_site_symmetry_2
Gd6 O19 1_555 1_555
O19 C1 1_555 1_555
O5 Gd5 1_555 1_555
O10 Gd5 1_555 1_555
O13 C4 1_555 1_555
O14 Gd5 1_555 1_555
Gd7 O13 1_555 1_555
C4 O20 1_555 1_555
Gd5 O13 1_555 1_555
O14 Gd7 1_555 1_555
Gd7 O20 1_555 1_555
O10 C1_2 1_555 1_555
C4_2 O14 1_555 1_555
O20_2 Gd7 1_555 1_555
C4_2 O20_2 1_555 1_555
C2 O18 1_555 1_555
O18 Gd6_2 1_555 1_555
O3 C3 1_555 1_555
O15 C3 1_555 1_555
Gd7 O3 1_555 1_555
Gd5_2 O3 1_555 1_555
O11 Gd5_2 1_555 1_555
O12 Gd7 1_555 1_555
O15_2 Gd5_2 1_555 1_555
O15 Gd5_2 1_555 1_555
Gd5_2 O12 1_555 1_555
O11 C2_2 1_555 1_555
O15_2 C3_2 1_555 1_555
C3_2 O12 1_555 1_555
O8 Gd6 1_555 1_555
Gd4 O8 1_555 1_555
O9 Gd6 1_555 1_555
C4_3 O9 1_555 1_555
O17 Gd6 1_555 1_555
O20_3 Gd4 1_555 1_555
Gd4 O9 1_555 1_555
C4_3 O20_3 1_555 1_555
O8 C4_4 1_555 1_555
C4_4 O20_4 1_555 1_555
Gd4 O20_4 1_555 1_555
O16 C3_3 1_555 1_555
C3_3 O6 1_555 1_555
O6 Gd6_2 1_555 1_555
O7 Gd6_2 1_555 1_555
Gd4 O6 1_555 1_555
O16_2 Gd6_2 1_555 1_555
O16 Gd6_2 1_555 1_555
O7 Gd4 1_555 1_555
O7 C3_4 1_555 1_555
O16_2 C3_4 1_555 1_555
O5_2 Gd4 1_555 1_555
O10_2 Gd4 1_555 1_555
O11_2 Gd4 1_555 1_555
O10_2 C1_3 1_555 1_555
O11_2 C2_3 1_555 1_555
C1_3 C2_3 1_555 1_555
C2_3 O18_2 1_555 1_555
O18_2 Gd7 1_555 1_555
Gd7 O19_2 1_555 1_555
O19_2 C1_3 1_555 1_555
O17_2 Gd7 1_555 1_555

#END
