
###############################################################################
#
# This file contains modified crystal structure data generated from the
# MOF subset of the Cambridge Structural Database (CSD) v543 
# hosted by the Cambridge Crystallographic Data Centre (CCDC).
#
# This work is licensed under the Creative Commons
# Attribution-NonCommercial-ShareAlike 4.0 International License.
# To view a copy of this license, visit
# http://creativecommons.org/licenses/by-nc-sa/4.0/
# or send a letter to
# Creative Commons, PO Box 1866, Mountain View, CA 94042, USA.
#
# CIF created using the CSD Python API on 29 September 2022
# The structure has been converted into the P1 space group
# The structure has a 3D framework
# The original CSD entry NIWYAV is in the tetragonal crystal system
# The framework has been calculated to contain at least 10.0% void space
# The void calculation uses a probe of radius 1.32A, grid spacing 0.4
# H atom positions have been added when not included in the experimental data
# Generated hydrogen atom positions removed from atoms on special positions
#
###############################################################################

data_NIWYAV
_chemical_formula_moiety         '(C144 H120 O128 Zn24)n'
_symmetry_cell_setting           triclinic
_symmetry_space_group_name_H-M   'P 1'
_symmetry_Int_Tables_number      1
_space_group_name_Hall           'P 1'
loop_
_symmetry_equiv_pos_site_id
_symmetry_equiv_pos_as_xyz
1 x,y,z
_cell_length_a                   20.780(3)
_cell_length_b                   20.780(3)
_cell_length_c                   17.677(4)
_cell_angle_alpha                90
_cell_angle_beta                 90
_cell_angle_gamma                90
_cell_volume                     7633.08
loop_
_atom_site_label
_atom_site_type_symbol
_atom_site_fract_x
_atom_site_fract_y
_atom_site_fract_z
Zn1 Zn 0.33692(4) 0.16308(4) 0.84598(6)
Zn2 Zn 0.37464(5) 0.24631(5) 0.69815(9)
O1 O 0.3400(5) 0.1600(5) 0.9640(7)
O2 O 0.3354(3) 0.1646(3) 0.7255(5)
O3 O 0.2636(3) 0.3342(5) 0.3543(4)
O4 O 0.5634(3) 0.1700(3) 0.3413(4)
O5 O 0.3721(4) 0.2650(5) 0.5914(5)
O6 O 0.3134(4) 0.3194(4) 0.2441(3)
O7 O 0.4142(3) 0.1451(3) 0.6754(3)
C1 C 0.4679(4) 0.2287(5) 0.3523(5)
O8 O 0.4382(5) 0.1829(6) 0.5818(4)
C2 C 0.4085(5) 0.2361(5) 0.4674(5)
C3 C 0.3093(4) 0.3120(5) 0.3137(5)
C4 C 0.3632(4) 0.2793(5) 0.3537(5)
C5 C 0.4066(5) 0.2254(6) 0.5529(5)
C6 C 0.4617(5) 0.2159(5) 0.4285(5)
H1 H 0.4940 0.1933 0.4536
O9 O 0.5426(4) 0.2452(4) 0.2524(4)
C7 C 0.3595(5) 0.2674(5) 0.4315(5)
H2 H 0.3236 0.2807 0.4588
C8 C 0.4177(4) 0.2608(6) 0.3139(5)
H3 H 0.4211 0.2695 0.2624
C9 C 0.5296(5) 0.2127(6) 0.3110(5)
Zn3 Zn 0.25369(5) 0.12536(5) 0.69815(9)
O10 O 0.1658(5) 0.2364(3) 0.3543(4)
O12 O 0.2350(5) 0.1279(4) 0.5914(5)
O13 O 0.1806(4) 0.1866(4) 0.2441(3)
O14 O 0.3549(3) 0.0858(3) 0.6754(3)
C10 C 0.2713(5) 0.0321(4) 0.3523(5)
O15 O 0.3171(6) 0.0618(5) 0.5818(4)
C11 C 0.2639(5) 0.0915(5) 0.4674(5)
C12 C 0.1880(5) 0.1907(4) 0.3137(5)
C13 C 0.2207(5) 0.1368(4) 0.3537(5)
C14 C 0.2746(6) 0.0934(5) 0.5529(5)
C15 C 0.2841(5) 0.0383(5) 0.4285(5)
H4 H 0.3067 0.0060 0.4536
C16 C 0.2326(5) 0.1405(5) 0.4315(5)
H5 H 0.2193 0.1764 0.4588
C17 C 0.2392(6) 0.0823(4) 0.3139(5)
H6 H 0.2305 0.0789 0.2624
Zn5 Zn 0.66308(4) 0.16308(4) 0.34598(6)
Zn6 Zn 0.16308(4) 0.33692(4) 0.34598(6)
Zn7 Zn 0.62536(5) 0.24631(5) 0.19815(9)
Zn8 Zn 0.24631(5) 0.37464(5) 0.19815(9)
Zn9 Zn 0.12536(5) 0.25369(5) 0.19815(9)
O17 O 0.3342(5) 0.2636(3) 0.8543(4)
O18 O 0.2364(3) 0.1658(5) 0.8543(4)
O19 O 0.4366(3) 0.1700(3) 0.8413(4)
O20 O 0.3300(3) 0.0634(3) 0.8413(4)
O21 O 0.3194(4) 0.3134(4) 0.7441(3)
O22 O 0.1866(4) 0.1806(4) 0.7441(3)
O23 O 0.4574(4) 0.2452(4) 0.7524(4)
O24 O 0.2548(4) 0.0426(4) 0.7524(4)
O11 O 0.3300(3) 0.9366(3) 0.3413(4)
O16 O 0.2548(4) 0.9574(4) 0.2524(4)
C18 C 0.2873(6) 0.9704(5) 0.3110(5)
Zn4 Zn 0.33692(4) 0.83692(4) 0.34598(6)
Zn10 Zn 0.25369(5) 0.87464(5) 0.19815(9)
O11_2 O 0.6700(3) 0.0634(3) 0.3413(4)
O16_2 O 0.7452(4) 0.0426(4) 0.2524(4)
C18_2 C 0.7127(6) 0.0296(5) 0.3110(5)
Zn10_2 Zn 0.74631(5) 0.12536(5) 0.19815(9)
Zn1_2 Zn 0.66308(4) 0.83692(4) 0.84598(6)
Zn2_2 Zn 0.62536(5) 0.75369(5) 0.69815(9)
O1_2 O 0.6600(5) 0.8400(5) 0.9640(7)
O2_2 O 0.6646(3) 0.8354(3) 0.7255(5)
O3_2 O 0.7364(3) 0.6658(5) 0.3543(4)
O4_2 O 0.4366(3) 0.8300(3) 0.3413(4)
O5_2 O 0.6279(4) 0.7350(5) 0.5914(5)
O6_2 O 0.6866(4) 0.6806(4) 0.2441(3)
O7_2 O 0.5858(3) 0.8549(3) 0.6754(3)
C1_2 C 0.5321(4) 0.7713(5) 0.3523(5)
O8_2 O 0.5618(5) 0.8171(6) 0.5818(4)
C2_2 C 0.5915(5) 0.7639(5) 0.4674(5)
C3_2 C 0.6907(4) 0.6880(5) 0.3137(5)
C4_2 C 0.6368(4) 0.7207(5) 0.3537(5)
C5_2 C 0.5934(5) 0.7746(6) 0.5529(5)
C6_2 C 0.5383(5) 0.7841(5) 0.4285(5)
H1_2 H 0.5060 0.8067 0.4536
O9_2 O 0.4574(4) 0.7548(4) 0.2524(4)
C7_2 C 0.6405(5) 0.7326(5) 0.4315(5)
H2_2 H 0.6764 0.7193 0.4588
C8_2 C 0.5823(4) 0.7392(6) 0.3139(5)
H3_2 H 0.5789 0.7305 0.2624
C9_2 C 0.4704(5) 0.7873(6) 0.3110(5)
Zn3_2 Zn 0.74631(5) 0.87464(5) 0.69815(9)
O10_2 O 0.8342(5) 0.7636(3) 0.3543(4)
O12_2 O 0.7650(5) 0.8721(4) 0.5914(5)
O13_2 O 0.8194(4) 0.8134(4) 0.2441(3)
O14_2 O 0.6451(3) 0.9142(3) 0.6754(3)
C10_2 C 0.7287(5) 0.9679(4) 0.3523(5)
O15_2 O 0.6829(6) 0.9382(5) 0.5818(4)
C11_2 C 0.7361(5) 0.9085(5) 0.4674(5)
C12_2 C 0.8120(5) 0.8093(4) 0.3137(5)
C13_2 C 0.7793(5) 0.8632(4) 0.3537(5)
C14_2 C 0.7254(6) 0.9066(5) 0.5529(5)
C15_2 C 0.7159(5) 0.9617(5) 0.4285(5)
H4_2 H 0.6933 0.9940 0.4536
C16_2 C 0.7674(5) 0.8595(5) 0.4315(5)
H5_2 H 0.7807 0.8236 0.4588
C17_2 C 0.7608(6) 0.9177(4) 0.3139(5)
H6_2 H 0.7695 0.9211 0.2624
Zn6_2 Zn 0.83692(4) 0.66308(4) 0.34598(6)
Zn7_2 Zn 0.37464(5) 0.75369(5) 0.19815(9)
Zn8_2 Zn 0.75369(5) 0.62536(5) 0.19815(9)
Zn9_2 Zn 0.87464(5) 0.74631(5) 0.19815(9)
O17_2 O 0.6658(5) 0.7364(3) 0.8543(4)
O18_2 O 0.7636(3) 0.8342(5) 0.8543(4)
O19_2 O 0.5634(3) 0.8300(3) 0.8413(4)
O20_2 O 0.6700(3) 0.9366(3) 0.8413(4)
O21_2 O 0.6806(4) 0.6866(4) 0.7441(3)
O22_2 O 0.8134(4) 0.8194(4) 0.7441(3)
O23_2 O 0.5426(4) 0.7548(4) 0.7524(4)
O24_2 O 0.7452(4) 0.9574(4) 0.7524(4)
O11_3 O 0.0634(3) 0.3300(3) 0.3413(4)
O16_3 O 0.0426(4) 0.2548(4) 0.2524(4)
C18_3 C 0.0296(5) 0.2873(6) 0.3110(5)
Zn1_3 Zn 0.83692(4) 0.33692(4) 0.84598(6)
Zn2_3 Zn 0.75369(5) 0.37464(5) 0.69815(9)
O1_3 O 0.8400(5) 0.3400(5) 0.9640(7)
O2_3 O 0.8354(3) 0.3354(3) 0.7255(5)
O3_3 O 0.6658(5) 0.2636(3) 0.3543(4)
O4_3 O 0.8300(3) 0.5634(3) 0.3413(4)
O5_3 O 0.7350(5) 0.3721(4) 0.5914(5)
O6_3 O 0.6806(4) 0.3134(4) 0.2441(3)
O7_3 O 0.8549(3) 0.4142(3) 0.6754(3)
C1_3 C 0.7713(5) 0.4679(4) 0.3523(5)
O8_3 O 0.8171(6) 0.4382(5) 0.5818(4)
C2_3 C 0.7639(5) 0.4085(5) 0.4674(5)
C3_3 C 0.6880(5) 0.3093(4) 0.3137(5)
C4_3 C 0.7207(5) 0.3632(4) 0.3537(5)
C5_3 C 0.7746(6) 0.4066(5) 0.5529(5)
C6_3 C 0.7841(5) 0.4617(5) 0.4285(5)
H1_3 H 0.8067 0.4940 0.4536
O9_3 O 0.7548(4) 0.5426(4) 0.2524(4)
C7_3 C 0.7326(5) 0.3595(5) 0.4315(5)
H2_3 H 0.7193 0.3236 0.4588
C8_3 C 0.7392(6) 0.4177(4) 0.3139(5)
H3_3 H 0.7305 0.4211 0.2624
C9_3 C 0.7873(6) 0.5296(5) 0.3110(5)
Zn3_3 Zn 0.87464(5) 0.25369(5) 0.69815(9)
O10_3 O 0.7636(3) 0.1658(5) 0.3543(4)
O12_3 O 0.8721(4) 0.2350(5) 0.5914(5)
O13_3 O 0.8134(4) 0.1806(4) 0.2441(3)
O14_3 O 0.9142(3) 0.3549(3) 0.6754(3)
C10_3 C 0.9679(4) 0.2713(5) 0.3523(5)
O15_3 O 0.9382(5) 0.3171(6) 0.5818(4)
C11_3 C 0.9085(5) 0.2639(5) 0.4674(5)
C12_3 C 0.8093(4) 0.1880(5) 0.3137(5)
C13_3 C 0.8632(4) 0.2207(5) 0.3537(5)
C14_3 C 0.9066(5) 0.2746(6) 0.5529(5)
C15_3 C 0.9617(5) 0.2841(5) 0.4285(5)
H4_3 H 0.9940 0.3067 0.4536
C16_3 C 0.8595(5) 0.2326(5) 0.4315(5)
H5_3 H 0.8236 0.2193 0.4588
C17_3 C 0.9177(4) 0.2392(6) 0.3139(5)
H6_3 H 0.9211 0.2305 0.2624
O17_3 O 0.7364(3) 0.3342(5) 0.8543(4)
O18_3 O 0.8342(5) 0.2364(3) 0.8543(4)
O19_3 O 0.8300(3) 0.4366(3) 0.8413(4)
O20_3 O 0.9366(3) 0.3300(3) 0.8413(4)
O21_3 O 0.6866(4) 0.3194(4) 0.7441(3)
O22_3 O 0.8194(4) 0.1866(4) 0.7441(3)
O23_3 O 0.7548(4) 0.4574(4) 0.7524(4)
O24_3 O 0.9574(4) 0.2548(4) 0.7524(4)
Zn1_4 Zn 0.16308(4) 0.66308(4) 0.84598(6)
Zn2_4 Zn 0.24631(5) 0.62536(5) 0.69815(9)
O1_4 O 0.1600(5) 0.6600(5) 0.9640(7)
O2_4 O 0.1646(3) 0.6646(3) 0.7255(5)
O3_4 O 0.3342(5) 0.7364(3) 0.3543(4)
O4_4 O 0.1700(3) 0.4366(3) 0.3413(4)
O5_4 O 0.2650(5) 0.6279(4) 0.5914(5)
O6_4 O 0.3194(4) 0.6866(4) 0.2441(3)
O7_4 O 0.1451(3) 0.5858(3) 0.6754(3)
C1_4 C 0.2287(5) 0.5321(4) 0.3523(5)
O8_4 O 0.1829(6) 0.5618(5) 0.5818(4)
C2_4 C 0.2361(5) 0.5915(5) 0.4674(5)
C3_4 C 0.3120(5) 0.6907(4) 0.3137(5)
C4_4 C 0.2793(5) 0.6368(4) 0.3537(5)
C5_4 C 0.2254(6) 0.5934(5) 0.5529(5)
C6_4 C 0.2159(5) 0.5383(5) 0.4285(5)
H1_4 H 0.1933 0.5060 0.4536
O9_4 O 0.2452(4) 0.4574(4) 0.2524(4)
C7_4 C 0.2674(5) 0.6405(5) 0.4315(5)
H2_4 H 0.2807 0.6764 0.4588
C8_4 C 0.2608(6) 0.5823(4) 0.3139(5)
H3_4 H 0.2695 0.5789 0.2624
C9_4 C 0.2127(6) 0.4704(5) 0.3110(5)
Zn3_4 Zn 0.12536(5) 0.74631(5) 0.69815(9)
O10_4 O 0.2364(3) 0.8342(5) 0.3543(4)
O12_4 O 0.1279(4) 0.7650(5) 0.5914(5)
O13_4 O 0.1866(4) 0.8194(4) 0.2441(3)
O14_4 O 0.0858(3) 0.6451(3) 0.6754(3)
C10_4 C 0.0321(4) 0.7287(5) 0.3523(5)
O15_4 O 0.0618(5) 0.6829(6) 0.5818(4)
C11_4 C 0.0915(5) 0.7361(5) 0.4674(5)
C12_4 C 0.1907(4) 0.8120(5) 0.3137(5)
C13_4 C 0.1368(4) 0.7793(5) 0.3537(5)
C14_4 C 0.0934(5) 0.7254(6) 0.5529(5)
C15_4 C 0.0383(5) 0.7159(5) 0.4285(5)
H4_4 H 0.0060 0.6933 0.4536
C16_4 C 0.1405(5) 0.7674(5) 0.4315(5)
H5_4 H 0.1764 0.7807 0.4588
C17_4 C 0.0823(4) 0.7608(6) 0.3139(5)
H6_4 H 0.0789 0.7695 0.2624
O17_4 O 0.2636(3) 0.6658(5) 0.8543(4)
O18_4 O 0.1658(5) 0.7636(3) 0.8543(4)
O19_4 O 0.1700(3) 0.5634(3) 0.8413(4)
O20_4 O 0.0634(3) 0.6700(3) 0.8413(4)
O21_4 O 0.3134(4) 0.6806(4) 0.7441(3)
O22_4 O 0.1806(4) 0.8134(4) 0.7441(3)
O23_4 O 0.2452(4) 0.5426(4) 0.7524(4)
O24_4 O 0.0426(4) 0.7452(4) 0.7524(4)
O11_4 O 0.9366(3) 0.6700(3) 0.3413(4)
O16_4 O 0.9574(4) 0.7452(4) 0.2524(4)
C18_4 C 0.9704(5) 0.7127(6) 0.3110(5)
C18_5 C 0.2873(6) 0.0296(5) 0.8110(5)
O1_5 O 0.3400(5) 0.8400(5) 0.4640(7)
O2_5 O 0.3354(3) 0.8354(3) 0.2255(5)
O5_5 O 0.3721(4) 0.7350(5) 0.0914(5)
O7_5 O 0.4142(3) 0.8549(3) 0.1754(3)
O8_5 O 0.4382(5) 0.8171(6) 0.0818(4)
C5_5 C 0.4066(5) 0.7746(6) 0.0529(5)
O12_5 O 0.2350(5) 0.8721(4) 0.0914(5)
O14_5 O 0.3549(3) 0.9142(3) 0.1754(3)
O15_5 O 0.3171(6) 0.9382(5) 0.0818(4)
C14_5 C 0.2746(6) 0.9066(5) 0.0529(5)
C1_5 C 0.4679(4) 0.7713(5) 0.8523(5)
C2_5 C 0.4085(5) 0.7639(5) 0.9674(5)
C3_5 C 0.3093(4) 0.6880(5) 0.8137(5)
C4_5 C 0.3632(4) 0.7207(5) 0.8537(5)
C6_5 C 0.4617(5) 0.7841(5) 0.9285(5)
H1_5 H 0.4940 0.8067 0.9536
C7_5 C 0.3595(5) 0.7326(5) 0.9315(5)
H2_5 H 0.3236 0.7193 0.9588
C8_5 C 0.4177(4) 0.7392(6) 0.8139(5)
H3_5 H 0.4211 0.7305 0.7624
C9_5 C 0.5296(5) 0.7873(6) 0.8110(5)
C10_5 C 0.2713(5) 0.9679(4) 0.8523(5)
C11_5 C 0.2639(5) 0.9085(5) 0.9674(5)
C12_5 C 0.1880(5) 0.8093(4) 0.8137(5)
C13_5 C 0.2207(5) 0.8632(4) 0.8537(5)
C15_5 C 0.2841(5) 0.9617(5) 0.9285(5)
H4_5 H 0.3067 0.9940 0.9536
C16_5 C 0.2326(5) 0.8595(5) 0.9315(5)
H5_5 H 0.2193 0.8236 0.9588
C17_5 C 0.2392(6) 0.9177(4) 0.8139(5)
H6_5 H 0.2305 0.9211 0.7624
O1_6 O 0.6600(5) 0.1600(5) 0.4640(7)
O2_6 O 0.6646(3) 0.1646(3) 0.2255(5)
O5_6 O 0.6279(4) 0.2650(5) 0.0914(5)
O7_6 O 0.5858(3) 0.1451(3) 0.1754(3)
O8_6 O 0.5618(5) 0.1829(6) 0.0818(4)
C5_6 C 0.5934(5) 0.2254(6) 0.0529(5)
O12_6 O 0.7650(5) 0.1279(4) 0.0914(5)
O14_6 O 0.6451(3) 0.0858(3) 0.1754(3)
O15_6 O 0.6829(6) 0.0618(5) 0.0818(4)
C14_6 C 0.7254(6) 0.0934(5) 0.0529(5)
C1_6 C 0.5321(4) 0.2287(5) 0.8523(5)
C2_6 C 0.5915(5) 0.2361(5) 0.9674(5)
C3_6 C 0.6907(4) 0.3120(5) 0.8137(5)
C4_6 C 0.6368(4) 0.2793(5) 0.8537(5)
C6_6 C 0.5383(5) 0.2159(5) 0.9285(5)
H1_6 H 0.5060 0.1933 0.9536
C7_6 C 0.6405(5) 0.2674(5) 0.9315(5)
H2_6 H 0.6764 0.2807 0.9588
C8_6 C 0.5823(4) 0.2608(6) 0.8139(5)
H3_6 H 0.5789 0.2695 0.7624
C9_6 C 0.4704(5) 0.2127(6) 0.8110(5)
C10_6 C 0.7287(5) 0.0321(4) 0.8523(5)
C11_6 C 0.7361(5) 0.0915(5) 0.9674(5)
C12_6 C 0.8120(5) 0.1907(4) 0.8137(5)
C13_6 C 0.7793(5) 0.1368(4) 0.8537(5)
C15_6 C 0.7159(5) 0.0383(5) 0.9285(5)
H4_6 H 0.6933 0.0060 0.9536
C16_6 C 0.7674(5) 0.1405(5) 0.9315(5)
H5_6 H 0.7807 0.1764 0.9588
C17_6 C 0.7608(6) 0.0823(4) 0.8139(5)
H6_6 H 0.7695 0.0789 0.7624
C18_6 C 0.7127(6) 0.9704(5) 0.8110(5)
C18_7 C 0.0296(5) 0.7127(6) 0.8110(5)
O1_7 O 0.8400(5) 0.6600(5) 0.4640(7)
O2_7 O 0.8354(3) 0.6646(3) 0.2255(5)
O5_7 O 0.7350(5) 0.6279(4) 0.0914(5)
O7_7 O 0.8549(3) 0.5858(3) 0.1754(3)
O8_7 O 0.8171(6) 0.5618(5) 0.0818(4)
C5_7 C 0.7746(6) 0.5934(5) 0.0529(5)
O12_7 O 0.8721(4) 0.7650(5) 0.0914(5)
O14_7 O 0.9142(3) 0.6451(3) 0.1754(3)
O15_7 O 0.9382(5) 0.6829(6) 0.0818(4)
C14_7 C 0.9066(5) 0.7254(6) 0.0529(5)
C1_7 C 0.7713(5) 0.5321(4) 0.8523(5)
C2_7 C 0.7639(5) 0.5915(5) 0.9674(5)
C3_7 C 0.6880(5) 0.6907(4) 0.8137(5)
C4_7 C 0.7207(5) 0.6368(4) 0.8537(5)
C6_7 C 0.7841(5) 0.5383(5) 0.9285(5)
H1_7 H 0.8067 0.5060 0.9536
C7_7 C 0.7326(5) 0.6405(5) 0.9315(5)
H2_7 H 0.7193 0.6764 0.9588
C8_7 C 0.7392(6) 0.5823(4) 0.8139(5)
H3_7 H 0.7305 0.5789 0.7624
C9_7 C 0.7873(6) 0.4704(5) 0.8110(5)
C10_7 C 0.9679(4) 0.7287(5) 0.8523(5)
C11_7 C 0.9085(5) 0.7361(5) 0.9674(5)
C12_7 C 0.8093(4) 0.8120(5) 0.8137(5)
C13_7 C 0.8632(4) 0.7793(5) 0.8537(5)
C15_7 C 0.9617(5) 0.7159(5) 0.9285(5)
H4_7 H 0.9940 0.6933 0.9536
C16_7 C 0.8595(5) 0.7674(5) 0.9315(5)
H5_7 H 0.8236 0.7807 0.9588
C17_7 C 0.9177(4) 0.7608(6) 0.8139(5)
H6_7 H 0.9211 0.7695 0.7624
O1_8 O 0.1600(5) 0.3400(5) 0.4640(7)
O2_8 O 0.1646(3) 0.3354(3) 0.2255(5)
O5_8 O 0.2650(5) 0.3721(4) 0.0914(5)
O7_8 O 0.1451(3) 0.4142(3) 0.1754(3)
O8_8 O 0.1829(6) 0.4382(5) 0.0818(4)
C5_8 C 0.2254(6) 0.4066(5) 0.0529(5)
O12_8 O 0.1279(4) 0.2350(5) 0.0914(5)
O14_8 O 0.0858(3) 0.3549(3) 0.1754(3)
O15_8 O 0.0618(5) 0.3171(6) 0.0818(4)
C14_8 C 0.0934(5) 0.2746(6) 0.0529(5)
C1_8 C 0.2287(5) 0.4679(4) 0.8523(5)
C2_8 C 0.2361(5) 0.4085(5) 0.9674(5)
C3_8 C 0.3120(5) 0.3093(4) 0.8137(5)
C4_8 C 0.2793(5) 0.3632(4) 0.8537(5)
C6_8 C 0.2159(5) 0.4617(5) 0.9285(5)
H1_8 H 0.1933 0.4940 0.9536
C7_8 C 0.2674(5) 0.3595(5) 0.9315(5)
H2_8 H 0.2807 0.3236 0.9588
C8_8 C 0.2608(6) 0.4177(4) 0.8139(5)
H3_8 H 0.2695 0.4211 0.7624
C9_8 C 0.2127(6) 0.5296(5) 0.8110(5)
C10_8 C 0.0321(4) 0.2713(5) 0.8523(5)
C11_8 C 0.0915(5) 0.2639(5) 0.9674(5)
C12_8 C 0.1907(4) 0.1880(5) 0.8137(5)
C13_8 C 0.1368(4) 0.2207(5) 0.8537(5)
C15_8 C 0.0383(5) 0.2841(5) 0.9285(5)
H4_8 H 0.0060 0.3067 0.9536
C16_8 C 0.1405(5) 0.2326(5) 0.9315(5)
H5_8 H 0.1764 0.2193 0.9588
C17_8 C 0.0823(4) 0.2392(6) 0.8139(5)
H6_8 H 0.0789 0.2305 0.7624
C18_8 C 0.9704(5) 0.2873(6) 0.8110(5)
loop_
_geom_bond_atom_site_label_1
_geom_bond_atom_site_label_2
_geom_bond_site_symmetry_1
_geom_bond_site_symmetry_2
Zn1 O1 1_555 1_555
Zn2 O2 1_555 1_555
O2 Zn1 1_555 1_555
O3 C3 1_555 1_555
O4 C9 1_555 1_555
O5 Zn2 1_555 1_555
O6 C3 1_555 1_555
O7 Zn2 1_555 1_555
C1 C6 1_555 1_555
O8 C5 1_555 1_555
C2 C5 1_555 1_555
C3 C4 1_555 1_555
C4 C7 1_555 1_555
C5 O5 1_555 1_555
C6 C2 1_555 1_555
H1 C6 1_555 1_555
O9 C9 1_555 1_555
C7 C2 1_555 1_555
H2 C7 1_555 1_555
C8 C1 1_555 1_555
H3 C8 1_555 1_555
C9 C1 1_555 1_555
Zn3 O2 1_555 1_555
O10 C12 1_555 1_555
O12 Zn3 1_555 1_555
O13 C12 1_555 1_555
O14 Zn3 1_555 1_555
C10 C15 1_555 1_555
O15 C14 1_555 1_555
C11 C14 1_555 1_555
C12 C13 1_555 1_555
C13 C16 1_555 1_555
C14 O12 1_555 1_555
C15 C11 1_555 1_555
H4 C15 1_555 1_555
C16 C11 1_555 1_555
H5 C16 1_555 1_555
C17 C10 1_555 1_555
H6 C17 1_555 1_555
Zn5 O4 1_555 1_555
Zn6 O3 1_555 1_555
Zn7 O9 1_555 1_555
Zn8 O6 1_555 1_555
Zn9 O13 1_555 1_555
O17 Zn1 1_555 1_555
O18 Zn1 1_555 1_555
O19 Zn1 1_555 1_555
O20 Zn1 1_555 1_555
O21 Zn2 1_555 1_555
O22 Zn3 1_555 1_555
O23 Zn2 1_555 1_555
O24 Zn3 1_555 1_555
C4 C8 1_555 1_555
O10 Zn6 1_555 1_555
C13 C17 1_555 1_555
O11 C18 1_555 1_555
O16 C18 1_555 1_555
Zn4 O11 1_555 1_555
Zn10 O16 1_555 1_555
O11_2 C18_2 1_555 1_555
O16_2 C18_2 1_555 1_555
Zn5 O11_2 1_555 1_555
Zn10_2 O16_2 1_555 1_555
Zn1_2 O1_2 1_555 1_555
Zn2_2 O2_2 1_555 1_555
O2_2 Zn1_2 1_555 1_555
O3_2 C3_2 1_555 1_555
O4_2 C9_2 1_555 1_555
O5_2 Zn2_2 1_555 1_555
O6_2 C3_2 1_555 1_555
O7_2 Zn2_2 1_555 1_555
C1_2 C6_2 1_555 1_555
O8_2 C5_2 1_555 1_555
C2_2 C5_2 1_555 1_555
C3_2 C4_2 1_555 1_555
C4_2 C7_2 1_555 1_555
C5_2 O5_2 1_555 1_555
C6_2 C2_2 1_555 1_555
H1_2 C6_2 1_555 1_555
O9_2 C9_2 1_555 1_555
C7_2 C2_2 1_555 1_555
H2_2 C7_2 1_555 1_555
C8_2 C1_2 1_555 1_555
H3_2 C8_2 1_555 1_555
C9_2 C1_2 1_555 1_555
Zn3_2 O2_2 1_555 1_555
O10_2 C12_2 1_555 1_555
O12_2 Zn3_2 1_555 1_555
O13_2 C12_2 1_555 1_555
O14_2 Zn3_2 1_555 1_555
C10_2 C15_2 1_555 1_555
O15_2 C14_2 1_555 1_555
C11_2 C14_2 1_555 1_555
C12_2 C13_2 1_555 1_555
C13_2 C16_2 1_555 1_555
C14_2 O12_2 1_555 1_555
C15_2 C11_2 1_555 1_555
H4_2 C15_2 1_555 1_555
C16_2 C11_2 1_555 1_555
H5_2 C16_2 1_555 1_555
C17_2 C10_2 1_555 1_555
H6_2 C17_2 1_555 1_555
Zn4 O4_2 1_555 1_555
Zn6_2 O3_2 1_555 1_555
Zn7_2 O9_2 1_555 1_555
Zn8_2 O6_2 1_555 1_555
Zn9_2 O13_2 1_555 1_555
O17_2 Zn1_2 1_555 1_555
O18_2 Zn1_2 1_555 1_555
O19_2 Zn1_2 1_555 1_555
O20_2 Zn1_2 1_555 1_555
O21_2 Zn2_2 1_555 1_555
O22_2 Zn3_2 1_555 1_555
O23_2 Zn2_2 1_555 1_555
O24_2 Zn3_2 1_555 1_555
C4_2 C8_2 1_555 1_555
O10_2 Zn6_2 1_555 1_555
C13_2 C17_2 1_555 1_555
O11_3 C18_3 1_555 1_555
O16_3 C18_3 1_555 1_555
Zn6 O11_3 1_555 1_555
Zn9 O16_3 1_555 1_555
Zn1_3 O1_3 1_555 1_555
Zn2_3 O2_3 1_555 1_555
O2_3 Zn1_3 1_555 1_555
O3_3 C3_3 1_555 1_555
O4_3 C9_3 1_555 1_555
O5_3 Zn2_3 1_555 1_555
O6_3 C3_3 1_555 1_555
O7_3 Zn2_3 1_555 1_555
C1_3 C6_3 1_555 1_555
O8_3 C5_3 1_555 1_555
C2_3 C5_3 1_555 1_555
C3_3 C4_3 1_555 1_555
C4_3 C7_3 1_555 1_555
C5_3 O5_3 1_555 1_555
C6_3 C2_3 1_555 1_555
H1_3 C6_3 1_555 1_555
O9_3 C9_3 1_555 1_555
C7_3 C2_3 1_555 1_555
H2_3 C7_3 1_555 1_555
C8_3 C1_3 1_555 1_555
H3_3 C8_3 1_555 1_555
C9_3 C1_3 1_555 1_555
Zn3_3 O2_3 1_555 1_555
O10_3 C12_3 1_555 1_555
O12_3 Zn3_3 1_555 1_555
O13_3 C12_3 1_555 1_555
O14_3 Zn3_3 1_555 1_555
C10_3 C15_3 1_555 1_555
O15_3 C14_3 1_555 1_555
C11_3 C14_3 1_555 1_555
C12_3 C13_3 1_555 1_555
C13_3 C16_3 1_555 1_555
C14_3 O12_3 1_555 1_555
C15_3 C11_3 1_555 1_555
H4_3 C15_3 1_555 1_555
C16_3 C11_3 1_555 1_555
H5_3 C16_3 1_555 1_555
C17_3 C10_3 1_555 1_555
H6_3 C17_3 1_555 1_555
Zn6_2 O4_3 1_555 1_555
Zn5 O3_3 1_555 1_555
Zn8_2 O9_3 1_555 1_555
Zn7 O6_3 1_555 1_555
Zn10_2 O13_3 1_555 1_555
O17_3 Zn1_3 1_555 1_555
O18_3 Zn1_3 1_555 1_555
O19_3 Zn1_3 1_555 1_555
O20_3 Zn1_3 1_555 1_555
O21_3 Zn2_3 1_555 1_555
O22_3 Zn3_3 1_555 1_555
O23_3 Zn2_3 1_555 1_555
O24_3 Zn3_3 1_555 1_555
C4_3 C8_3 1_555 1_555
O10_3 Zn5 1_555 1_555
C13_3 C17_3 1_555 1_555
Zn1_4 O1_4 1_555 1_555
Zn2_4 O2_4 1_555 1_555
O2_4 Zn1_4 1_555 1_555
O3_4 C3_4 1_555 1_555
O4_4 C9_4 1_555 1_555
O5_4 Zn2_4 1_555 1_555
O6_4 C3_4 1_555 1_555
O7_4 Zn2_4 1_555 1_555
C1_4 C6_4 1_555 1_555
O8_4 C5_4 1_555 1_555
C2_4 C5_4 1_555 1_555
C3_4 C4_4 1_555 1_555
C4_4 C7_4 1_555 1_555
C5_4 O5_4 1_555 1_555
C6_4 C2_4 1_555 1_555
H1_4 C6_4 1_555 1_555
O9_4 C9_4 1_555 1_555
C7_4 C2_4 1_555 1_555
H2_4 C7_4 1_555 1_555
C8_4 C1_4 1_555 1_555
H3_4 C8_4 1_555 1_555
C9_4 C1_4 1_555 1_555
Zn3_4 O2_4 1_555 1_555
O10_4 C12_4 1_555 1_555
O12_4 Zn3_4 1_555 1_555
O13_4 C12_4 1_555 1_555
O14_4 Zn3_4 1_555 1_555
C10_4 C15_4 1_555 1_555
O15_4 C14_4 1_555 1_555
C11_4 C14_4 1_555 1_555
C12_4 C13_4 1_555 1_555
C13_4 C16_4 1_555 1_555
C14_4 O12_4 1_555 1_555
C15_4 C11_4 1_555 1_555
H4_4 C15_4 1_555 1_555
C16_4 C11_4 1_555 1_555
H5_4 C16_4 1_555 1_555
C17_4 C10_4 1_555 1_555
H6_4 C17_4 1_555 1_555
Zn6 O4_4 1_555 1_555
Zn4 O3_4 1_555 1_555
Zn8 O9_4 1_555 1_555
Zn7_2 O6_4 1_555 1_555
Zn10 O13_4 1_555 1_555
O17_4 Zn1_4 1_555 1_555
O18_4 Zn1_4 1_555 1_555
O19_4 Zn1_4 1_555 1_555
O20_4 Zn1_4 1_555 1_555
O21_4 Zn2_4 1_555 1_555
O22_4 Zn3_4 1_555 1_555
O23_4 Zn2_4 1_555 1_555
O24_4 Zn3_4 1_555 1_555
C4_4 C8_4 1_555 1_555
O10_4 Zn4 1_555 1_555
C13_4 C17_4 1_555 1_555
O11_4 C18_4 1_555 1_555
O16_4 C18_4 1_555 1_555
Zn6_2 O11_4 1_555 1_555
Zn9_2 O16_4 1_555 1_555
O20 C18_5 1_555 1_555
O24 C18_5 1_555 1_555
Zn4 O1_5 1_555 1_555
Zn7_2 O2_5 1_555 1_555
O2_5 Zn4 1_555 1_555
O5_5 Zn7_2 1_555 1_555
O7_5 Zn7_2 1_555 1_555
O8_5 C5_5 1_555 1_555
C5_5 O5_5 1_555 1_555
Zn10 O2_5 1_555 1_555
O12_5 Zn10 1_555 1_555
O14_5 Zn10 1_555 1_555
O15_5 C14_5 1_555 1_555
C14_5 O12_5 1_555 1_555
O17_4 C3_5 1_555 1_555
O19_2 C9_5 1_555 1_555
O21_4 C3_5 1_555 1_555
C1_5 C6_5 1_555 1_555
C3_5 C4_5 1_555 1_555
C4_5 C7_5 1_555 1_555
C6_5 C2_5 1_555 1_555
H1_5 C6_5 1_555 1_555
O23_2 C9_5 1_555 1_555
C7_5 C2_5 1_555 1_555
H2_5 C7_5 1_555 1_555
C8_5 C1_5 1_555 1_555
H3_5 C8_5 1_555 1_555
C9_5 C1_5 1_555 1_555
O18_4 C12_5 1_555 1_555
O22_4 C12_5 1_555 1_555
C10_5 C15_5 1_555 1_555
C12_5 C13_5 1_555 1_555
C13_5 C16_5 1_555 1_555
C15_5 C11_5 1_555 1_555
H4_5 C15_5 1_555 1_555
C16_5 C11_5 1_555 1_555
H5_5 C16_5 1_555 1_555
C17_5 C10_5 1_555 1_555
H6_5 C17_5 1_555 1_555
C4_5 C8_5 1_555 1_555
C13_5 C17_5 1_555 1_555
Zn5 O1_6 1_555 1_555
Zn7 O2_6 1_555 1_555
O2_6 Zn5 1_555 1_555
O5_6 Zn7 1_555 1_555
O7_6 Zn7 1_555 1_555
O8_6 C5_6 1_555 1_555
C5_6 O5_6 1_555 1_555
Zn10_2 O2_6 1_555 1_555
O12_6 Zn10_2 1_555 1_555
O14_6 Zn10_2 1_555 1_555
O15_6 C14_6 1_555 1_555
C14_6 O12_6 1_555 1_555
O17_3 C3_6 1_555 1_555
O19 C9_6 1_555 1_555
O21_3 C3_6 1_555 1_555
C1_6 C6_6 1_555 1_555
C3_6 C4_6 1_555 1_555
C4_6 C7_6 1_555 1_555
C6_6 C2_6 1_555 1_555
H1_6 C6_6 1_555 1_555
O23 C9_6 1_555 1_555
C7_6 C2_6 1_555 1_555
H2_6 C7_6 1_555 1_555
C8_6 C1_6 1_555 1_555
H3_6 C8_6 1_555 1_555
C9_6 C1_6 1_555 1_555
O18_3 C12_6 1_555 1_555
O22_3 C12_6 1_555 1_555
C10_6 C15_6 1_555 1_555
C12_6 C13_6 1_555 1_555
C13_6 C16_6 1_555 1_555
C15_6 C11_6 1_555 1_555
H4_6 C15_6 1_555 1_555
C16_6 C11_6 1_555 1_555
H5_6 C16_6 1_555 1_555
C17_6 C10_6 1_555 1_555
H6_6 C17_6 1_555 1_555
C4_6 C8_6 1_555 1_555
C13_6 C17_6 1_555 1_555
O20_2 C18_6 1_555 1_555
O24_2 C18_6 1_555 1_555
O20_4 C18_7 1_555 1_555
O24_4 C18_7 1_555 1_555
Zn6_2 O1_7 1_555 1_555
Zn8_2 O2_7 1_555 1_555
O2_7 Zn6_2 1_555 1_555
O5_7 Zn8_2 1_555 1_555
O7_7 Zn8_2 1_555 1_555
O8_7 C5_7 1_555 1_555
C5_7 O5_7 1_555 1_555
Zn9_2 O2_7 1_555 1_555
O12_7 Zn9_2 1_555 1_555
O14_7 Zn9_2 1_555 1_555
O15_7 C14_7 1_555 1_555
C14_7 O12_7 1_555 1_555
O17_2 C3_7 1_555 1_555
O19_3 C9_7 1_555 1_555
O21_2 C3_7 1_555 1_555
C1_7 C6_7 1_555 1_555
C3_7 C4_7 1_555 1_555
C4_7 C7_7 1_555 1_555
C6_7 C2_7 1_555 1_555
H1_7 C6_7 1_555 1_555
O23_3 C9_7 1_555 1_555
C7_7 C2_7 1_555 1_555
H2_7 C7_7 1_555 1_555
C8_7 C1_7 1_555 1_555
H3_7 C8_7 1_555 1_555
C9_7 C1_7 1_555 1_555
O18_2 C12_7 1_555 1_555
O22_2 C12_7 1_555 1_555
C10_7 C15_7 1_555 1_555
C12_7 C13_7 1_555 1_555
C13_7 C16_7 1_555 1_555
C15_7 C11_7 1_555 1_555
H4_7 C15_7 1_555 1_555
C16_7 C11_7 1_555 1_555
H5_7 C16_7 1_555 1_555
C17_7 C10_7 1_555 1_555
H6_7 C17_7 1_555 1_555
C4_7 C8_7 1_555 1_555
C13_7 C17_7 1_555 1_555
Zn6 O1_8 1_555 1_555
Zn8 O2_8 1_555 1_555
O2_8 Zn6 1_555 1_555
O5_8 Zn8 1_555 1_555
O7_8 Zn8 1_555 1_555
O8_8 C5_8 1_555 1_555
C5_8 O5_8 1_555 1_555
Zn9 O2_8 1_555 1_555
O12_8 Zn9 1_555 1_555
O14_8 Zn9 1_555 1_555
O15_8 C14_8 1_555 1_555
C14_8 O12_8 1_555 1_555
O17 C3_8 1_555 1_555
O19_4 C9_8 1_555 1_555
O21 C3_8 1_555 1_555
C1_8 C6_8 1_555 1_555
C3_8 C4_8 1_555 1_555
C4_8 C7_8 1_555 1_555
C6_8 C2_8 1_555 1_555
H1_8 C6_8 1_555 1_555
O23_4 C9_8 1_555 1_555
C7_8 C2_8 1_555 1_555
H2_8 C7_8 1_555 1_555
C8_8 C1_8 1_555 1_555
H3_8 C8_8 1_555 1_555
C9_8 C1_8 1_555 1_555
O18 C12_8 1_555 1_555
O22 C12_8 1_555 1_555
C10_8 C15_8 1_555 1_555
C12_8 C13_8 1_555 1_555
C13_8 C16_8 1_555 1_555
C15_8 C11_8 1_555 1_555
H4_8 C15_8 1_555 1_555
C16_8 C11_8 1_555 1_555
H5_8 C16_8 1_555 1_555
C17_8 C10_8 1_555 1_555
H6_8 C17_8 1_555 1_555
C4_8 C8_8 1_555 1_555
C13_8 C17_8 1_555 1_555
O20_3 C18_8 1_555 1_555
O24_3 C18_8 1_555 1_555

#END
