
###############################################################################
#
# This file contains modified crystal structure data generated from the
# MOF subset of the Cambridge Structural Database (CSD) v543 
# hosted by the Cambridge Crystallographic Data Centre (CCDC).
#
# This work is licensed under the Creative Commons
# Attribution-NonCommercial-ShareAlike 4.0 International License.
# To view a copy of this license, visit
# http://creativecommons.org/licenses/by-nc-sa/4.0/
# or send a letter to
# Creative Commons, PO Box 1866, Mountain View, CA 94042, USA.
#
# CIF created using the CSD Python API on 29 September 2022
# The structure has been converted into the P1 space group
# The structure has a 3D framework
# The original CSD entry NIWYOJ is in the orthorhombic crystal system
# The framework has been calculated to contain at least 10.0% void space
# The void calculation uses a probe of radius 1.32A, grid spacing 0.4
#
###############################################################################

data_NIWYOJ
_chemical_formula_moiety         '(C432 H144 O300 Zn75)n'
_symmetry_cell_setting           triclinic
_symmetry_space_group_name_H-M   'P 1'
_symmetry_Int_Tables_number      1
_space_group_name_Hall           'P 1'
loop_
_symmetry_equiv_pos_site_id
_symmetry_equiv_pos_as_xyz
1 x,y,z
_cell_length_a                   29.928(10)
_cell_length_b                   43.631(9)
_cell_length_c                   16.789(3)
_cell_angle_alpha                90
_cell_angle_beta                 90
_cell_angle_gamma                90
_cell_volume                     21922.9
loop_
_atom_site_label
_atom_site_type_symbol
_atom_site_fract_x
_atom_site_fract_y
_atom_site_fract_z
Zn1 Zn 0.09637(4) 0.27808(2) 0.06356(6)
Zn2 Zn 0.04557(4) 0.30414(2) 0.21899(6)
Zn3 Zn 0.14652(4) 0.28638(2) 0.22714(6)
Zn4 Zn 0.11259(4) 0.34488(2) 0.13018(7)
O1 O 0.1014(2) 0.30225(15) 0.1592(4)
O3 O 0.0359(2) 0.26763(16) 0.0315(4)
O4 O 0.1238(2) 0.23582(15) 0.0773(5)
O6 O 0.1745(3) 0.09541(16) 0.0374(4)
O7 O 0.0089(3) 0.27084(17) 0.1571(4)
O9 O 0.2992(2) 0.18929(15) 0.2290(4)
O11 O 0.1657(3) 0.24649(17) 0.1859(5)
O13 O 0.3181(2) 0.15136(17) 0.1432(5)
O14 O 0.1221(3) 0.34551(18) 0.0131(5)
C3 C 0.0053(3) 0.2655(2) 0.0859(6)
C4 C 0.2263(3) 0.1463(2) 0.0998(6)
H1 H 0.2427 0.1284 0.0931
C5 C 0.1611(3) 0.1771(2) 0.0715(6)
H2 H 0.1344 0.1799 0.0441
C10 C 0.1785(3) 0.1999(2) 0.1182(5)
C12 C 0.1684(4) 0.1223(2) 0.0151(6)
C13 C 0.1853(4) 0.14888(19) 0.0664(6)
C14 C 0.1530(3) 0.2306(2) 0.1267(7)
C15 C 0.2901(4) 0.1705(3) 0.1726(6)
C18 C 0.2440(3) 0.1708(2) 0.1451(6)
C25 C 0.2183(4) 0.1969(2) 0.1517(7)
H8 H 0.2295 0.2133 0.1811
Zn6 Zn 0.40363(4) 0.22192(2) 0.06356(6)
Zn7 Zn 0.45443(4) 0.19586(2) 0.21899(6)
Zn8 Zn 0.35348(4) 0.21362(2) 0.22714(6)
Zn9 Zn 0.38741(4) 0.15512(2) 0.13018(7)
O20 O 0.3986(2) 0.19775(15) 0.1592(4)
O22 O 0.4641(2) 0.23237(16) 0.0315(4)
O23 O 0.3762(2) 0.26418(15) 0.0773(5)
O25 O 0.3255(3) 0.40459(16) 0.0374(4)
O26 O 0.4911(3) 0.22916(17) 0.1571(4)
O28 O 0.2008(2) 0.31071(15) 0.2290(4)
O30 O 0.3343(3) 0.25351(17) 0.1859(5)
O32 O 0.1819(2) 0.34864(17) 0.1432(5)
O33 O 0.3779(3) 0.15449(18) 0.0131(5)
O35 O 0.6976(2) 0.24841(19) 0.0827(4)
O38 O 0.6563(3) 0.2406(3) 0.1889(5)
C30 C 0.4947(3) 0.2345(2) 0.0859(6)
C31 C 0.2737(3) 0.3537(2) 0.0998(6)
H10 H 0.2573 0.3716 0.0931
C32 C 0.3389(3) 0.3229(2) 0.0715(6)
H11 H 0.3656 0.3201 0.0441
C37 C 0.3215(3) 0.3001(2) 0.1182(5)
C38 C 0.6185(3) 0.2478(2) 0.0670(6)
C39 C 0.3316(4) 0.3777(2) 0.0151(6)
C40 C 0.3147(4) 0.35112(19) 0.0664(6)
C41 C 0.3470(3) 0.2694(2) 0.1267(7)
C42 C 0.2099(4) 0.3295(3) 0.1726(6)
C45 C 0.2560(3) 0.3292(2) 0.1451(6)
C48 C 0.5404(3) 0.2435(2) 0.0502(6)
C49 C 0.5785(4) 0.2408(3) 0.0986(6)
H15 H 0.5761 0.2343 0.1512
C50 C 0.6604(4) 0.2443(3) 0.1170(7)
C52 C 0.2817(4) 0.3031(2) 0.1517(7)
H17 H 0.2705 0.2867 0.1811
Zn19 Zn 0.7500 0.2500 0.15341(9)
O39 O 0.0526(2) 0.28022(15) 0.3213(4)
O40 O 0.4474(2) 0.21978(15) 0.3213(4)
O41 O 0.0755(3) 0.34541(16) 0.2874(4)
O42 O 0.4245(3) 0.15459(16) 0.2874(4)
O44 O 0.5043(3) 0.16600(17) 0.2022(5)
O45 O 0.1270(3) 0.27897(18) 0.3360(4)
O46 O 0.3730(3) 0.22103(18) 0.3360(4)
O47 O 0.1015(2) 0.37983(16) 0.1997(4)
O48 O 0.3985(2) 0.12017(16) 0.1997(4)
O49 O 0.0379(3) 0.3438(2) 0.0989(4)
O50 O 0.4621(3) 0.1562(2) 0.0989(4)
Zn5 Zn 0.2500 0.2500 0.65341(9)
O2 O 0.1299(3) 0.29682(15) 0.9755(4)
O8 O 0.2457(3) 0.41600(17) 0.9522(5)
O12 O 0.1485(2) 0.12983(16) 0.9497(4)
O15 O 0.2879(3) 0.4062(2) 0.8489(4)
O17 O 0.2340(4) 0.2807(2) 0.7274(6)
O18 O 0.2318(7) 0.3216(3) 0.6550(7)
C6 C 0.1852(4) 0.3173(2) 0.8453(6)
H3 H 0.1720 0.2983 0.8373
C7 C 0.1402(4) 0.3250(3) 0.9707(6)
C9 C 0.2286(3) 0.3719(2) 0.8718(6)
C16 C 0.2377(4) 0.3554(3) 0.8067(6)
H5 H 0.2592 0.3621 0.7707
C17 C 0.2291(5) 0.3091(3) 0.7190(9)
C19 C 0.1741(4) 0.3352(3) 0.9129(6)
C20 C 0.2153(4) 0.3283(2) 0.7929(7)
C24 C 0.1950(4) 0.3621(2) 0.9245(6)
H7 H 0.1872 0.3743 0.9678
C26 C 0.2573(4) 0.3998(3) 0.8915(8)
O21 O 0.3701(3) 0.20318(15) 0.9755(4)
O24 O 0.5526(2) 0.28022(15) 0.8213(4)
O27 O 0.2543(3) 0.08400(17) 0.9522(5)
O29 O 0.6270(3) 0.27897(18) 0.8360(4)
O31 O 0.3515(2) 0.37017(16) 0.9497(4)
O34 O 0.2121(3) 0.0938(2) 0.8489(4)
O36 O 0.2660(4) 0.2193(2) 0.7274(6)
O37 O 0.2682(7) 0.1784(3) 0.6550(7)
C28 C 0.5875(3) 0.2752(2) 0.8599(6)
C29 C 0.5830(3) 0.2623(2) 0.9428(6)
C33 C 0.3148(4) 0.1827(2) 0.8453(6)
H12 H 0.3280 0.2017 0.8373
C34 C 0.3598(4) 0.1750(3) 0.9707(6)
C35 C 0.5432(3) 0.2546(2) 0.9724(6)
H13 H 0.5175 0.2565 0.9415
C36 C 0.2714(3) 0.1281(2) 0.8718(6)
C43 C 0.2623(4) 0.1446(3) 0.8067(6)
H14 H 0.2408 0.1379 0.7707
C44 C 0.2709(5) 0.1909(3) 0.7190(9)
C46 C 0.3259(4) 0.1648(3) 0.9129(6)
C47 C 0.2847(4) 0.1717(2) 0.7929(7)
C51 C 0.3050(4) 0.1379(2) 0.9245(6)
H16 H 0.3128 0.1257 0.9678
C53 C 0.2427(4) 0.1002(3) 0.8915(8)
C54 C 0.6227(3) 0.2595(3) 0.9894(6)
H18 H 0.6504 0.2652 0.9691
Zn11 Zn 0.20443(4) 0.05414(2) 0.96899(6)
Zn12 Zn 0.54557(4) 0.30414(2) 0.71899(6)
Zn13 Zn 0.29557(4) 0.44586(2) 0.96899(6)
Zn15 Zn 0.64652(4) 0.28638(2) 0.72714(6)
Zn16 Zn 0.13741(4) 0.09488(2) 0.88018(7)
Zn17 Zn 0.36259(4) 0.40512(2) 0.88018(7)
O51 O 0.1976(2) 0.24841(19) 0.5827(4)
O52 O 0.3024(2) 0.25159(19) 0.5827(4)
O16 O 0.8024(2) 0.25159(19) 0.0827(4)
O19 O 0.8437(3) 0.2594(3) 0.1889(5)
C11 C 0.8815(3) 0.2522(2) 0.0670(6)
C21 C 0.9596(3) 0.2565(2) 0.0502(6)
C22 C 0.9215(4) 0.2592(3) 0.0986(6)
H6 H 0.9239 0.2657 0.1512
C23 C 0.8396(4) 0.2557(3) 0.1170(7)
O43 O 0.9957(3) 0.33400(17) 0.2022(5)
O5 O 0.9474(2) 0.21978(15) 0.8213(4)
O10 O 0.8730(3) 0.22103(18) 0.8360(4)
C1 C 0.9125(3) 0.2248(2) 0.8599(6)
C2 C 0.9170(3) 0.2377(2) 0.9428(6)
C8 C 0.9568(3) 0.2454(2) 0.9724(6)
H4 H 0.9825 0.2435 0.9415
C27 C 0.8773(3) 0.2405(3) 0.9894(6)
H9 H 0.8496 0.2348 0.9691
Zn10 Zn 0.95443(4) 0.19586(2) 0.71899(6)
Zn14 Zn 0.85348(4) 0.21362(2) 0.72714(6)
O16_2 O 0.1976(2) 0.74841(19) 0.0827(4)
O19_2 O 0.1563(3) 0.7406(3) 0.1889(5)
C11_2 C 0.1185(3) 0.7478(2) 0.0670(6)
C21_2 C 0.0404(3) 0.7435(2) 0.0502(6)
C22_2 C 0.0785(4) 0.7408(3) 0.0986(6)
H6_2 H 0.0761 0.7343 0.1512
C23_2 C 0.1604(4) 0.7443(3) 0.1170(7)
Zn18 Zn 0.2500 0.7500 0.15341(9)
O43_2 O 0.0043(3) 0.66600(17) 0.2022(5)
O5_2 O 0.0526(2) 0.78022(15) 0.8213(4)
O10_2 O 0.1270(3) 0.77897(18) 0.8360(4)
C1_2 C 0.0875(3) 0.7752(2) 0.8599(6)
C2_2 C 0.0830(3) 0.7623(2) 0.9428(6)
C8_2 C 0.0432(3) 0.7546(2) 0.9724(6)
H4_2 H 0.0175 0.7565 0.9415
C27_2 C 0.1227(3) 0.7595(3) 0.9894(6)
H9_2 H 0.1504 0.7652 0.9691
Zn10_2 Zn 0.04557(4) 0.80414(2) 0.71899(6)
Zn14_2 Zn 0.14652(4) 0.78638(2) 0.72714(6)
Zn1_2 Zn 0.90363(4) 0.72192(2) 0.06356(6)
Zn2_2 Zn 0.95443(4) 0.69586(2) 0.21899(6)
Zn3_2 Zn 0.85348(4) 0.71362(2) 0.22714(6)
Zn4_2 Zn 0.88741(4) 0.65512(2) 0.13018(7)
O1_2 O 0.8986(2) 0.69775(15) 0.1592(4)
O3_2 O 0.9641(2) 0.73237(16) 0.0315(4)
O4_2 O 0.8762(2) 0.76418(15) 0.0773(5)
O6_2 O 0.8255(3) 0.90459(16) 0.0374(4)
O7_2 O 0.9911(3) 0.72916(17) 0.1571(4)
O9_2 O 0.7008(2) 0.81071(15) 0.2290(4)
O11_2 O 0.8343(3) 0.75351(17) 0.1859(5)
O13_2 O 0.6819(2) 0.84864(17) 0.1432(5)
O14_2 O 0.8779(3) 0.65449(18) 0.0131(5)
C3_2 C 0.9947(3) 0.7345(2) 0.0859(6)
C4_2 C 0.7737(3) 0.8537(2) 0.0998(6)
H1_2 H 0.7573 0.8716 0.0931
C5_2 C 0.8389(3) 0.8229(2) 0.0715(6)
H2_2 H 0.8656 0.8201 0.0441
C10_2 C 0.8215(3) 0.8001(2) 0.1182(5)
C12_2 C 0.8316(4) 0.8777(2) 0.0151(6)
C13_2 C 0.8147(4) 0.85112(19) 0.0664(6)
C14_2 C 0.8470(3) 0.7694(2) 0.1267(7)
C15_2 C 0.7099(4) 0.8295(3) 0.1726(6)
C18_2 C 0.7560(3) 0.8292(2) 0.1451(6)
C25_2 C 0.7817(4) 0.8031(2) 0.1517(7)
H8_2 H 0.7705 0.7867 0.1811
Zn6_2 Zn 0.59637(4) 0.77808(2) 0.06356(6)
Zn7_2 Zn 0.54557(4) 0.80414(2) 0.21899(6)
Zn8_2 Zn 0.64652(4) 0.78638(2) 0.22714(6)
Zn9_2 Zn 0.61259(4) 0.84488(2) 0.13018(7)
O20_2 O 0.6014(2) 0.80225(15) 0.1592(4)
O22_2 O 0.5359(2) 0.76763(16) 0.0315(4)
O23_2 O 0.6238(2) 0.73582(15) 0.0773(5)
O25_2 O 0.6745(3) 0.59541(16) 0.0374(4)
O26_2 O 0.5089(3) 0.77084(17) 0.1571(4)
O28_2 O 0.7992(2) 0.68929(15) 0.2290(4)
O30_2 O 0.6657(3) 0.74649(17) 0.1859(5)
O32_2 O 0.8181(2) 0.65136(17) 0.1432(5)
O33_2 O 0.6221(3) 0.84551(18) 0.0131(5)
O35_2 O 0.3024(2) 0.75159(19) 0.0827(4)
O38_2 O 0.3437(3) 0.7594(3) 0.1889(5)
C30_2 C 0.5053(3) 0.7655(2) 0.0859(6)
C31_2 C 0.7263(3) 0.6463(2) 0.0998(6)
H10_2 H 0.7427 0.6284 0.0931
C32_2 C 0.6611(3) 0.6771(2) 0.0715(6)
H11_2 H 0.6344 0.6799 0.0441
C37_2 C 0.6785(3) 0.6999(2) 0.1182(5)
C38_2 C 0.3815(3) 0.7522(2) 0.0670(6)
C39_2 C 0.6684(4) 0.6223(2) 0.0151(6)
C40_2 C 0.6853(4) 0.64888(19) 0.0664(6)
C41_2 C 0.6530(3) 0.7306(2) 0.1267(7)
C42_2 C 0.7901(4) 0.6705(3) 0.1726(6)
C45_2 C 0.7440(3) 0.6708(2) 0.1451(6)
C48_2 C 0.4596(3) 0.7565(2) 0.0502(6)
C49_2 C 0.4215(4) 0.7592(3) 0.0986(6)
H15_2 H 0.4239 0.7657 0.1512
C50_2 C 0.3396(4) 0.7557(3) 0.1170(7)
C52_2 C 0.7183(4) 0.6969(2) 0.1517(7)
H17_2 H 0.7295 0.7133 0.1811
O39_2 O 0.9474(2) 0.71978(15) 0.3213(4)
O40_2 O 0.5526(2) 0.78022(15) 0.3213(4)
O41_2 O 0.9245(3) 0.65459(16) 0.2874(4)
O42_2 O 0.5755(3) 0.84541(16) 0.2874(4)
O44_2 O 0.4957(3) 0.83400(17) 0.2022(5)
O45_2 O 0.8730(3) 0.72103(18) 0.3360(4)
O46_2 O 0.6270(3) 0.77897(18) 0.3360(4)
O47_2 O 0.8985(2) 0.62017(16) 0.1997(4)
O48_2 O 0.6015(2) 0.87983(16) 0.1997(4)
O49_2 O 0.9621(3) 0.6562(2) 0.0989(4)
O50_2 O 0.5379(3) 0.8438(2) 0.0989(4)
Zn5_2 Zn 0.7500 0.7500 0.65341(9)
O2_2 O 0.8701(3) 0.70318(15) 0.9755(4)
O8_2 O 0.7543(3) 0.58400(17) 0.9522(5)
O12_2 O 0.8515(2) 0.87017(16) 0.9497(4)
O15_2 O 0.7121(3) 0.5938(2) 0.8489(4)
O17_2 O 0.7660(4) 0.7193(2) 0.7274(6)
O18_2 O 0.7682(7) 0.6784(3) 0.6550(7)
C6_2 C 0.8148(4) 0.6827(2) 0.8453(6)
H3_2 H 0.8280 0.7017 0.8373
C7_2 C 0.8598(4) 0.6750(3) 0.9707(6)
C9_2 C 0.7714(3) 0.6281(2) 0.8718(6)
C16_2 C 0.7623(4) 0.6446(3) 0.8067(6)
H5_2 H 0.7408 0.6379 0.7707
C17_2 C 0.7709(5) 0.6909(3) 0.7190(9)
C19_2 C 0.8259(4) 0.6648(3) 0.9129(6)
C20_2 C 0.7847(4) 0.6717(2) 0.7929(7)
C24_2 C 0.8050(4) 0.6379(2) 0.9245(6)
H7_2 H 0.8128 0.6257 0.9678
C26_2 C 0.7427(4) 0.6002(3) 0.8915(8)
O21_2 O 0.6299(3) 0.79682(15) 0.9755(4)
O24_2 O 0.4474(2) 0.71978(15) 0.8213(4)
O27_2 O 0.7457(3) 0.91600(17) 0.9522(5)
O29_2 O 0.3730(3) 0.72103(18) 0.8360(4)
O31_2 O 0.6485(2) 0.62983(16) 0.9497(4)
O34_2 O 0.7879(3) 0.9062(2) 0.8489(4)
O36_2 O 0.7340(4) 0.7807(2) 0.7274(6)
O37_2 O 0.7318(7) 0.8216(3) 0.6550(7)
C28_2 C 0.4125(3) 0.7248(2) 0.8599(6)
C29_2 C 0.4170(3) 0.7377(2) 0.9428(6)
C33_2 C 0.6852(4) 0.8173(2) 0.8453(6)
H12_2 H 0.6720 0.7983 0.8373
C34_2 C 0.6402(4) 0.8250(3) 0.9707(6)
C35_2 C 0.4568(3) 0.7454(2) 0.9724(6)
H13_2 H 0.4825 0.7435 0.9415
C36_2 C 0.7286(3) 0.8719(2) 0.8718(6)
C43_2 C 0.7377(4) 0.8554(3) 0.8067(6)
H14_2 H 0.7592 0.8621 0.7707
C44_2 C 0.7291(5) 0.8091(3) 0.7190(9)
C46_2 C 0.6741(4) 0.8352(3) 0.9129(6)
C47_2 C 0.7153(4) 0.8283(2) 0.7929(7)
C51_2 C 0.6950(4) 0.8621(2) 0.9245(6)
H16_2 H 0.6872 0.8743 0.9678
C53_2 C 0.7573(4) 0.8998(3) 0.8915(8)
C54_2 C 0.3773(3) 0.7405(3) 0.9894(6)
H18_2 H 0.3496 0.7348 0.9691
Zn11_2 Zn 0.79557(4) 0.94586(2) 0.96899(6)
Zn12_2 Zn 0.45443(4) 0.69586(2) 0.71899(6)
Zn13_2 Zn 0.70443(4) 0.55414(2) 0.96899(6)
Zn15_2 Zn 0.35348(4) 0.71362(2) 0.72714(6)
Zn16_2 Zn 0.86259(4) 0.90512(2) 0.88018(7)
Zn17_2 Zn 0.63741(4) 0.59488(2) 0.88018(7)
O51_2 O 0.8024(2) 0.75159(19) 0.5827(4)
O52_2 O 0.6976(2) 0.74841(19) 0.5827(4)
Zn1_3 Zn 0.15363(4) 0.52808(2) 0.31356(6)
Zn2_3 Zn 0.20443(4) 0.55414(2) 0.46899(6)
Zn3_3 Zn 0.10348(4) 0.53638(2) 0.47714(6)
Zn4_3 Zn 0.13741(4) 0.59488(2) 0.38018(7)
O1_3 O 0.1486(2) 0.55225(15) 0.4092(4)
O2_3 O 0.1201(3) 0.54682(15) 0.2255(4)
O3_3 O 0.2141(2) 0.51763(16) 0.2815(4)
O4_3 O 0.1262(2) 0.48582(15) 0.3273(5)
O5_3 O 0.3026(2) 0.46978(15) 0.0713(4)
O7_3 O 0.2411(3) 0.52084(17) 0.4071(4)
O10_3 O 0.3770(3) 0.47103(18) 0.0860(4)
O11_3 O 0.0843(3) 0.49649(17) 0.4359(5)
O14_3 O 0.1279(3) 0.59551(18) 0.2631(5)
O16_3 O 0.4476(2) 0.50159(19) 0.3327(4)
O19_3 O 0.4063(3) 0.5094(3) 0.4389(5)
C1_3 C 0.3375(3) 0.4748(2) 0.1099(6)
C2_3 C 0.3330(3) 0.4877(2) 0.1928(6)
C3_3 C 0.2447(3) 0.5155(2) 0.3359(6)
C4_3 C 0.0237(3) 0.3963(2) 0.3498(6)
H1_3 H 0.0073 0.3784 0.3431
C5_3 C 0.0889(3) 0.4271(2) 0.3215(6)
H2_3 H 0.1156 0.4299 0.2941
C6_3 C 0.0648(4) 0.5673(2) 0.0953(6)
H3_3 H 0.0780 0.5483 0.0873
C7_3 C 0.1098(4) 0.5750(3) 0.2207(6)
C8_3 C 0.2932(3) 0.4954(2) 0.2224(6)
H4_3 H 0.2675 0.4935 0.1915
C9_3 C 0.0214(3) 0.6219(2) 0.1218(6)
C10_3 C 0.0715(3) 0.4499(2) 0.3682(5)
C11_3 C 0.3685(3) 0.5022(2) 0.3170(6)
C12_3 C 0.0816(4) 0.3723(2) 0.2651(6)
C13_3 C 0.0647(4) 0.39888(19) 0.3164(6)
C14_3 C 0.0970(3) 0.4806(2) 0.3767(7)
C16_3 C 0.0123(4) 0.6054(3) 0.0567(6)
C18_3 C 0.0060(3) 0.4208(2) 0.3951(6)
C19_3 C 0.0759(4) 0.5852(3) 0.1629(6)
C20_3 C 0.0347(4) 0.5783(2) 0.0429(7)
C21_3 C 0.2904(3) 0.5065(2) 0.3002(6)
C22_3 C 0.3285(4) 0.5092(3) 0.3486(6)
H6_3 H 0.3261 0.5157 0.4012
C23_3 C 0.4104(4) 0.5057(3) 0.3670(7)
C24_3 C 0.0550(4) 0.6121(2) 0.1745(6)
H7_3 H 0.0628 0.6243 0.2178
C25_3 C 0.0317(4) 0.4469(2) 0.4017(7)
H8_3 H 0.0205 0.4633 0.4311
C27_3 C 0.3727(3) 0.4905(3) 0.2394(6)
H9_3 H 0.4004 0.4848 0.2191
O28_3 O 0.0492(2) 0.56071(15) 0.4790(4)
O32_3 O 0.0681(2) 0.59864(17) 0.3932(5)
C42_3 C 0.0401(4) 0.5795(3) 0.4226(6)
H14_3 H 0.0092 0.3879 0.0207
C53_3 C 0.0073(4) 0.3502(3) 0.1415(8)
Zn18_2 Zn 0.5000 0.5000 0.40341(9)
O39_3 O 0.1974(2) 0.53022(15) 0.5713(4)
O41_3 O 0.1745(3) 0.59541(16) 0.5374(4)
O43_3 O 0.2543(3) 0.58400(17) 0.4522(5)
O45_3 O 0.1230(3) 0.52897(18) 0.5860(4)
O47_3 O 0.1485(2) 0.62983(16) 0.4497(4)
O49_3 O 0.2121(3) 0.5938(2) 0.3489(4)
Zn5_3 Zn -0.0000 0.5000 0.90341(9)
O17_3 O 0.0160(4) 0.5307(2) 0.9774(6)
O18_3 O 0.0182(7) 0.5716(3) 0.9050(7)
C17_3 C 0.0209(5) 0.5591(3) 0.9690(9)
Zn14_3 Zn 0.39652(4) 0.46362(2) 0.97714(6)
O51_3 O 0.0524(2) 0.49841(19) 0.8327(4)
O9_3 O 0.9508(2) 0.43929(15) 0.4790(4)
O13_3 O 0.9319(2) 0.40136(17) 0.3932(5)
C15_3 C 0.9599(4) 0.4205(3) 0.4226(6)
H5_3 H 0.9908 0.6121 0.0207
C26_3 C 0.9927(4) 0.6498(3) 0.1415(8)
Zn6_3 Zn 0.84637(4) 0.47192(2) 0.31356(6)
Zn7_3 Zn 0.79557(4) 0.44586(2) 0.46899(6)
Zn8_3 Zn 0.89652(4) 0.46362(2) 0.47714(6)
Zn9_3 Zn 0.86259(4) 0.40512(2) 0.38018(7)
O20_3 O 0.8514(2) 0.44775(15) 0.4092(4)
O21_3 O 0.8799(3) 0.45318(15) 0.2255(4)
O22_3 O 0.7859(2) 0.48237(16) 0.2815(4)
O23_3 O 0.8738(2) 0.51418(15) 0.3273(5)
O24_3 O 0.6974(2) 0.53022(15) 0.0713(4)
O26_3 O 0.7589(3) 0.47916(17) 0.4071(4)
O29_3 O 0.6230(3) 0.52897(18) 0.0860(4)
O30_3 O 0.9157(3) 0.50351(17) 0.4359(5)
O33_3 O 0.8721(3) 0.40449(18) 0.2631(5)
O35_3 O 0.5524(2) 0.49841(19) 0.3327(4)
O38_3 O 0.5937(3) 0.4906(3) 0.4389(5)
C28_3 C 0.6625(3) 0.5252(2) 0.1099(6)
C29_3 C 0.6670(3) 0.5123(2) 0.1928(6)
C30_3 C 0.7553(3) 0.4845(2) 0.3359(6)
C31_3 C 0.9763(3) 0.6037(2) 0.3498(6)
H10_3 H 0.9927 0.6216 0.3431
C32_3 C 0.9111(3) 0.5729(2) 0.3215(6)
H11_3 H 0.8844 0.5701 0.2941
C33_3 C 0.9352(4) 0.4327(2) 0.0953(6)
H12_3 H 0.9220 0.4517 0.0873
C34_3 C 0.8902(4) 0.4250(3) 0.2207(6)
C35_3 C 0.7068(3) 0.5046(2) 0.2224(6)
H13_3 H 0.7325 0.5065 0.1915
C36_3 C 0.9786(3) 0.3781(2) 0.1218(6)
C37_3 C 0.9285(3) 0.5501(2) 0.3682(5)
C38_3 C 0.6315(3) 0.4978(2) 0.3170(6)
C39_3 C 0.9184(4) 0.6277(2) 0.2651(6)
C40_3 C 0.9353(4) 0.60112(19) 0.3164(6)
C41_3 C 0.9030(3) 0.5194(2) 0.3767(7)
C43_3 C 0.9877(4) 0.3946(3) 0.0567(6)
C45_3 C 0.9940(3) 0.5792(2) 0.3951(6)
C46_3 C 0.9241(4) 0.4148(3) 0.1629(6)
C47_3 C 0.9653(4) 0.4217(2) 0.0429(7)
C48_3 C 0.7096(3) 0.4935(2) 0.3002(6)
C49_3 C 0.6715(4) 0.4908(3) 0.3486(6)
H15_3 H 0.6739 0.4843 0.4012
C50_3 C 0.5896(4) 0.4943(3) 0.3670(7)
C51_3 C 0.9450(4) 0.3879(2) 0.1745(6)
H16_3 H 0.9372 0.3757 0.2178
C52_3 C 0.9683(4) 0.5531(2) 0.4017(7)
H17_3 H 0.9795 0.5367 0.4311
C54_3 C 0.6273(3) 0.5095(3) 0.2394(6)
H18_3 H 0.5996 0.5152 0.2191
O40_3 O 0.8026(2) 0.46978(15) 0.5713(4)
O42_3 O 0.8255(3) 0.40459(16) 0.5374(4)
O44_3 O 0.7457(3) 0.41600(17) 0.4522(5)
O46_3 O 0.8770(3) 0.47103(18) 0.5860(4)
O48_3 O 0.8515(2) 0.37017(16) 0.4497(4)
O50_3 O 0.7879(3) 0.4062(2) 0.3489(4)
Zn5_4 Zn 1.0000 0.5000 0.90341(9)
O36_3 O 0.9840(4) 0.4693(2) 0.9774(6)
O37_3 O 0.9818(7) 0.4284(3) 0.9050(7)
C44_3 C 0.9791(5) 0.4409(3) 0.9690(9)
Zn15_3 Zn 0.60348(4) 0.53638(2) 0.97714(6)
O52_3 O 0.9476(2) 0.50159(19) 0.8327(4)
Zn1_4 Zn 0.09637(4) 0.77808(2) 0.56356(6)
Zn4_4 Zn 0.11259(4) 0.84488(2) 0.63018(7)
O1_4 O 0.1014(2) 0.80225(15) 0.6592(4)
O2_4 O 0.1299(3) 0.79682(15) 0.4755(4)
O3_4 O 0.0359(2) 0.76763(16) 0.5315(4)
O4_4 O 0.1238(2) 0.73582(15) 0.5773(5)
O7_4 O 0.0089(3) 0.77084(17) 0.6571(4)
O8_3 O 0.2457(3) 0.91600(17) 0.4522(5)
O9_4 O 0.2992(2) 0.68929(15) 0.7290(4)
O11_4 O 0.1657(3) 0.74649(17) 0.6859(5)
O13_4 O 0.3181(2) 0.65136(17) 0.6432(5)
O14_4 O 0.1221(3) 0.84551(18) 0.5131(5)
O15_3 O 0.2879(3) 0.9062(2) 0.3489(4)
O17_4 O 0.2340(4) 0.7807(2) 0.2274(6)
O18_4 O 0.2318(7) 0.8216(3) 0.1550(7)
C3_4 C 0.0053(3) 0.7655(2) 0.5859(6)
C4_4 C 0.2263(3) 0.6463(2) 0.5998(6)
H1_4 H 0.2427 0.6284 0.5931
C5_4 C 0.1611(3) 0.6771(2) 0.5715(6)
H2_4 H 0.1344 0.6799 0.5441
C6_4 C 0.1852(4) 0.8173(2) 0.3453(6)
H3_4 H 0.1720 0.7983 0.3373
C7_4 C 0.1402(4) 0.8250(3) 0.4707(6)
C9_4 C 0.2286(3) 0.8719(2) 0.3718(6)
C10_4 C 0.1785(3) 0.6999(2) 0.6182(5)
C12_4 C 0.1684(4) 0.6223(2) 0.5151(6)
C13_4 C 0.1853(4) 0.64888(19) 0.5664(6)
C14_4 C 0.1530(3) 0.7306(2) 0.6267(7)
C15_4 C 0.2901(4) 0.6705(3) 0.6726(6)
C16_4 C 0.2377(4) 0.8554(3) 0.3067(6)
H5_4 H 0.2592 0.8621 0.2707
C17_4 C 0.2291(5) 0.8091(3) 0.2190(9)
C18_4 C 0.2440(3) 0.6708(2) 0.6451(6)
C19_4 C 0.1741(4) 0.8352(3) 0.4129(6)
C20_4 C 0.2153(4) 0.8283(2) 0.2929(7)
C24_4 C 0.1950(4) 0.8621(2) 0.4245(6)
H7_4 H 0.1872 0.8743 0.4678
C25_4 C 0.2183(4) 0.6969(2) 0.6517(7)
H8_4 H 0.2295 0.7133 0.6811
C26_4 C 0.2573(4) 0.8998(3) 0.3915(8)
Zn6_4 Zn 0.40363(4) 0.72192(2) 0.56356(6)
Zn9_4 Zn 0.38741(4) 0.65512(2) 0.63018(7)
O20_4 O 0.3986(2) 0.69775(15) 0.6592(4)
O21_4 O 0.3701(3) 0.70318(15) 0.4755(4)
O22_4 O 0.4641(2) 0.73237(16) 0.5315(4)
O23_4 O 0.3762(2) 0.76418(15) 0.5773(5)
O25_3 O 0.3255(3) 0.90459(16) 0.5374(4)
O26_4 O 0.4911(3) 0.72916(17) 0.6571(4)
O28_4 O 0.2008(2) 0.81071(15) 0.7290(4)
O30_4 O 0.3343(3) 0.75351(17) 0.6859(5)
O31_3 O 0.3515(2) 0.87017(16) 0.4497(4)
O32_4 O 0.1819(2) 0.84864(17) 0.6432(5)
O33_4 O 0.3779(3) 0.65449(18) 0.5131(5)
O36_4 O 0.2660(4) 0.7193(2) 0.2274(6)
O37_4 O 0.2682(7) 0.6784(3) 0.1550(7)
O38_4 O 0.6563(3) 0.7406(3) 0.6889(5)
C28_4 C 0.5875(3) 0.7752(2) 0.3599(6)
C29_4 C 0.5830(3) 0.7623(2) 0.4428(6)
C30_4 C 0.4947(3) 0.7345(2) 0.5859(6)
C31_4 C 0.2737(3) 0.8537(2) 0.5998(6)
H10_4 H 0.2573 0.8716 0.5931
C32_4 C 0.3389(3) 0.8229(2) 0.5715(6)
H11_4 H 0.3656 0.8201 0.5441
C33_4 C 0.3148(4) 0.6827(2) 0.3453(6)
H12_4 H 0.3280 0.7017 0.3373
C34_4 C 0.3598(4) 0.6750(3) 0.4707(6)
C35_4 C 0.5432(3) 0.7546(2) 0.4724(6)
H13_4 H 0.5175 0.7565 0.4415
C36_4 C 0.2714(3) 0.6281(2) 0.3718(6)
C37_4 C 0.3215(3) 0.8001(2) 0.6182(5)
C38_4 C 0.6185(3) 0.7478(2) 0.5670(6)
C39_4 C 0.3316(4) 0.8777(2) 0.5151(6)
C40_4 C 0.3147(4) 0.85112(19) 0.5664(6)
C41_4 C 0.3470(3) 0.7694(2) 0.6267(7)
C42_4 C 0.2099(4) 0.8295(3) 0.6726(6)
C43_4 C 0.2623(4) 0.6446(3) 0.3067(6)
H14_4 H 0.2408 0.6379 0.2707
C44_4 C 0.2709(5) 0.6909(3) 0.2190(9)
C45_4 C 0.2560(3) 0.8292(2) 0.6451(6)
C46_4 C 0.3259(4) 0.6648(3) 0.4129(6)
C47_4 C 0.2847(4) 0.6717(2) 0.2929(7)
C48_4 C 0.5404(3) 0.7435(2) 0.5502(6)
C49_4 C 0.5785(4) 0.7408(3) 0.5986(6)
H15_4 H 0.5761 0.7343 0.6512
C50_4 C 0.6604(4) 0.7443(3) 0.6170(7)
C51_4 C 0.3050(4) 0.6379(2) 0.4245(6)
H16_4 H 0.3128 0.6257 0.4678
C52_4 C 0.2817(4) 0.8031(2) 0.6517(7)
H17_4 H 0.2705 0.7867 0.6811
C53_4 C 0.2427(4) 0.6002(3) 0.3915(8)
C54_4 C 0.6227(3) 0.7595(3) 0.4894(6)
H18_4 H 0.6504 0.7652 0.4691
Zn13_3 Zn 0.29557(4) 0.94586(2) 0.46899(6)
Zn17_3 Zn 0.36259(4) 0.90512(2) 0.38018(7)
O41_4 O 0.0755(3) 0.84541(16) 0.7874(4)
O42_4 O 0.4245(3) 0.65459(16) 0.7874(4)
O44_4 O 0.5043(3) 0.66600(17) 0.7022(5)
O47_4 O 0.1015(2) 0.87983(16) 0.6997(4)
O48_4 O 0.3985(2) 0.62017(16) 0.6997(4)
O49_4 O 0.0379(3) 0.8438(2) 0.5989(4)
O50_4 O 0.4621(3) 0.6562(2) 0.5989(4)
O19_4 O 0.8437(3) 0.7594(3) 0.6889(5)
C1_4 C 0.9125(3) 0.7248(2) 0.3599(6)
C2_4 C 0.9170(3) 0.7377(2) 0.4428(6)
C8_4 C 0.9568(3) 0.7454(2) 0.4724(6)
H4_4 H 0.9825 0.7435 0.4415
C11_4 C 0.8815(3) 0.7522(2) 0.5670(6)
C21_4 C 0.9596(3) 0.7565(2) 0.5502(6)
C22_4 C 0.9215(4) 0.7592(3) 0.5986(6)
H6_4 H 0.9239 0.7657 0.6512
C23_4 C 0.8396(4) 0.7557(3) 0.6170(7)
C27_4 C 0.8773(3) 0.7405(3) 0.4894(6)
H9_4 H 0.8496 0.7348 0.4691
O43_4 O 0.9957(3) 0.83400(17) 0.7022(5)
O19_5 O 0.1563(3) 0.2406(3) 0.6889(5)
C1_5 C 0.0875(3) 0.2752(2) 0.3599(6)
C2_5 C 0.0830(3) 0.2623(2) 0.4428(6)
C8_5 C 0.0432(3) 0.2546(2) 0.4724(6)
H4_5 H 0.0175 0.2565 0.4415
C11_5 C 0.1185(3) 0.2478(2) 0.5670(6)
C21_5 C 0.0404(3) 0.2435(2) 0.5502(6)
C22_5 C 0.0785(4) 0.2408(3) 0.5986(6)
H6_5 H 0.0761 0.2343 0.6512
C23_5 C 0.1604(4) 0.2443(3) 0.6170(7)
C27_5 C 0.1227(3) 0.2595(3) 0.4894(6)
H9_5 H 0.1504 0.2652 0.4691
O43_5 O 0.0043(3) 0.16600(17) 0.7022(5)
Zn1_5 Zn 0.90363(4) 0.22192(2) 0.56356(6)
Zn4_5 Zn 0.88741(4) 0.15512(2) 0.63018(7)
O1_5 O 0.8986(2) 0.19775(15) 0.6592(4)
O2_5 O 0.8701(3) 0.20318(15) 0.4755(4)
O3_5 O 0.9641(2) 0.23237(16) 0.5315(4)
O4_5 O 0.8762(2) 0.26418(15) 0.5773(5)
O7_5 O 0.9911(3) 0.22916(17) 0.6571(4)
O8_4 O 0.7543(3) 0.08400(17) 0.4522(5)
O9_5 O 0.7008(2) 0.31071(15) 0.7290(4)
O11_5 O 0.8343(3) 0.25351(17) 0.6859(5)
O13_5 O 0.6819(2) 0.34864(17) 0.6432(5)
O14_5 O 0.8779(3) 0.15449(18) 0.5131(5)
O15_4 O 0.7121(3) 0.0938(2) 0.3489(4)
O17_5 O 0.7660(4) 0.2193(2) 0.2274(6)
O18_5 O 0.7682(7) 0.1784(3) 0.1550(7)
C3_5 C 0.9947(3) 0.2345(2) 0.5859(6)
C4_5 C 0.7737(3) 0.3537(2) 0.5998(6)
H1_5 H 0.7573 0.3716 0.5931
C5_5 C 0.8389(3) 0.3229(2) 0.5715(6)
H2_5 H 0.8656 0.3201 0.5441
C6_5 C 0.8148(4) 0.1827(2) 0.3453(6)
H3_5 H 0.8280 0.2017 0.3373
C7_5 C 0.8598(4) 0.1750(3) 0.4707(6)
C9_5 C 0.7714(3) 0.1281(2) 0.3718(6)
C10_5 C 0.8215(3) 0.3001(2) 0.6182(5)
C12_5 C 0.8316(4) 0.3777(2) 0.5151(6)
C13_5 C 0.8147(4) 0.35112(19) 0.5664(6)
C14_5 C 0.8470(3) 0.2694(2) 0.6267(7)
C15_5 C 0.7099(4) 0.3295(3) 0.6726(6)
C16_5 C 0.7623(4) 0.1446(3) 0.3067(6)
H5_5 H 0.7408 0.1379 0.2707
C17_5 C 0.7709(5) 0.1909(3) 0.2190(9)
C18_5 C 0.7560(3) 0.3292(2) 0.6451(6)
C19_5 C 0.8259(4) 0.1648(3) 0.4129(6)
C20_5 C 0.7847(4) 0.1717(2) 0.2929(7)
C24_5 C 0.8050(4) 0.1379(2) 0.4245(6)
H7_5 H 0.8128 0.1257 0.4678
C25_5 C 0.7817(4) 0.3031(2) 0.6517(7)
H8_5 H 0.7705 0.2867 0.6811
C26_5 C 0.7427(4) 0.1002(3) 0.3915(8)
Zn6_5 Zn 0.59637(4) 0.27808(2) 0.56356(6)
Zn9_5 Zn 0.61259(4) 0.34488(2) 0.63018(7)
O20_5 O 0.6014(2) 0.30225(15) 0.6592(4)
O21_5 O 0.6299(3) 0.29682(15) 0.4755(4)
O22_5 O 0.5359(2) 0.26763(16) 0.5315(4)
O23_5 O 0.6238(2) 0.23582(15) 0.5773(5)
O25_4 O 0.6745(3) 0.09541(16) 0.5374(4)
O26_5 O 0.5089(3) 0.27084(17) 0.6571(4)
O28_5 O 0.7992(2) 0.18929(15) 0.7290(4)
O30_5 O 0.6657(3) 0.24649(17) 0.6859(5)
O31_4 O 0.6485(2) 0.12983(16) 0.4497(4)
O32_5 O 0.8181(2) 0.15136(17) 0.6432(5)
O33_5 O 0.6221(3) 0.34551(18) 0.5131(5)
O36_5 O 0.7340(4) 0.2807(2) 0.2274(6)
O37_5 O 0.7318(7) 0.3216(3) 0.1550(7)
O38_5 O 0.3437(3) 0.2594(3) 0.6889(5)
C28_5 C 0.4125(3) 0.2248(2) 0.3599(6)
C29_5 C 0.4170(3) 0.2377(2) 0.4428(6)
C30_5 C 0.5053(3) 0.2655(2) 0.5859(6)
C31_5 C 0.7263(3) 0.1463(2) 0.5998(6)
H10_5 H 0.7427 0.1284 0.5931
C32_5 C 0.6611(3) 0.1771(2) 0.5715(6)
H11_5 H 0.6344 0.1799 0.5441
C33_5 C 0.6852(4) 0.3173(2) 0.3453(6)
H12_5 H 0.6720 0.2983 0.3373
C34_5 C 0.6402(4) 0.3250(3) 0.4707(6)
C35_5 C 0.4568(3) 0.2454(2) 0.4724(6)
H13_5 H 0.4825 0.2435 0.4415
C36_5 C 0.7286(3) 0.3719(2) 0.3718(6)
C37_5 C 0.6785(3) 0.1999(2) 0.6182(5)
C38_5 C 0.3815(3) 0.2522(2) 0.5670(6)
C39_5 C 0.6684(4) 0.1223(2) 0.5151(6)
C40_5 C 0.6853(4) 0.14888(19) 0.5664(6)
C41_5 C 0.6530(3) 0.2306(2) 0.6267(7)
C42_5 C 0.7901(4) 0.1705(3) 0.6726(6)
C43_5 C 0.7377(4) 0.3554(3) 0.3067(6)
H14_5 H 0.7592 0.3621 0.2707
C44_5 C 0.7291(5) 0.3091(3) 0.2190(9)
C45_5 C 0.7440(3) 0.1708(2) 0.6451(6)
C46_5 C 0.6741(4) 0.3352(3) 0.4129(6)
C47_5 C 0.7153(4) 0.3283(2) 0.2929(7)
C48_5 C 0.4596(3) 0.2565(2) 0.5502(6)
C49_5 C 0.4215(4) 0.2592(3) 0.5986(6)
H15_5 H 0.4239 0.2657 0.6512
C50_5 C 0.3396(4) 0.2557(3) 0.6170(7)
C51_5 C 0.6950(4) 0.3621(2) 0.4245(6)
H16_5 H 0.6872 0.3743 0.4678
C52_5 C 0.7183(4) 0.1969(2) 0.6517(7)
H17_5 H 0.7295 0.2133 0.6811
C53_5 C 0.7573(4) 0.3998(3) 0.3915(8)
C54_5 C 0.3773(3) 0.2405(3) 0.4894(6)
H18_5 H 0.3496 0.2348 0.4691
Zn13_4 Zn 0.70443(4) 0.05414(2) 0.46899(6)
Zn17_4 Zn 0.63741(4) 0.09488(2) 0.38018(7)
O41_5 O 0.9245(3) 0.15459(16) 0.7874(4)
O42_5 O 0.5755(3) 0.34541(16) 0.7874(4)
O44_5 O 0.4957(3) 0.33400(17) 0.7022(5)
O47_5 O 0.8985(2) 0.12017(16) 0.6997(4)
O48_5 O 0.6015(2) 0.37983(16) 0.6997(4)
O49_5 O 0.9621(3) 0.1562(2) 0.5989(4)
O50_5 O 0.5379(3) 0.3438(2) 0.5989(4)
O39_4 O 0.1974(2) 0.03022(15) 0.0713(4)
O45_4 O 0.1230(3) 0.02897(18) 0.0860(4)
Zn1_6 Zn 0.15363(4) 0.02808(2) 0.81356(6)
Zn3_4 Zn 0.10348(4) 0.03638(2) 0.97714(6)
Zn5_5 Zn -0.0000 0.0000 0.40341(9)
O1_6 O 0.1486(2) 0.05225(15) 0.9092(4)
O2_6 O 0.1201(3) 0.04682(15) 0.7255(4)
O3_6 O 0.2141(2) 0.01763(16) 0.7815(4)
O7_6 O 0.2411(3) 0.02084(17) 0.9071(4)
O14_6 O 0.1279(3) 0.09551(18) 0.7631(5)
O16_4 O 0.4476(2) 0.00159(19) 0.8327(4)
O17_6 O 0.0160(4) 0.0307(2) 0.4774(6)
O18_6 O 0.0182(7) 0.0716(3) 0.4050(7)
O19_6 O 0.4063(3) 0.0094(3) 0.9389(5)
C3_6 C 0.2447(3) 0.0155(2) 0.8359(6)
C6_6 C 0.0648(4) 0.0673(2) 0.5953(6)
H3_6 H 0.0780 0.0483 0.5873
C7_6 C 0.1098(4) 0.0750(3) 0.7207(6)
C9_6 C 0.0214(3) 0.1219(2) 0.6218(6)
C11_6 C 0.3685(3) 0.0022(2) 0.8170(6)
C16_6 C 0.0123(4) 0.1054(3) 0.5567(6)
C17_6 C 0.0209(5) 0.0591(3) 0.4690(9)
C19_6 C 0.0759(4) 0.0852(3) 0.6629(6)
C20_6 C 0.0347(4) 0.0783(2) 0.5429(7)
C21_6 C 0.2904(3) 0.0065(2) 0.8002(6)
C22_6 C 0.3285(4) 0.0092(3) 0.8486(6)
H6_6 H 0.3261 0.0157 0.9012
C23_6 C 0.4104(4) 0.0057(3) 0.8670(7)
C24_6 C 0.0550(4) 0.1121(2) 0.6745(6)
H7_6 H 0.0628 0.1243 0.7178
O28_6 O 0.0492(2) 0.06071(15) 0.9790(4)
O32_6 O 0.0681(2) 0.09864(17) 0.8932(5)
C42_6 C 0.0401(4) 0.0795(3) 0.9226(6)
Zn18_3 Zn 0.5000 0.0000 0.90341(9)
Zn5_6 Zn -0.0000 1.0000 0.40341(9)
O4_6 O 0.1262(2) 0.98582(15) 0.8273(5)
O5_4 O 0.3026(2) 0.96978(15) 0.5713(4)
O10_4 O 0.3770(3) 0.97103(18) 0.5860(4)
O11_6 O 0.0843(3) 0.99649(17) 0.9359(5)
C1_6 C 0.3375(3) 0.9748(2) 0.6099(6)
C2_6 C 0.3330(3) 0.9877(2) 0.6928(6)
C4_6 C 0.0237(3) 0.8963(2) 0.8498(6)
H1_6 H 0.0073 0.8784 0.8431
C5_6 C 0.0889(3) 0.9271(2) 0.8215(6)
H2_6 H 0.1156 0.9299 0.7941
C8_6 C 0.2932(3) 0.9954(2) 0.7224(6)
H4_6 H 0.2675 0.9935 0.6915
C10_6 C 0.0715(3) 0.9499(2) 0.8682(5)
C12_6 C 0.0816(4) 0.8723(2) 0.7651(6)
C13_6 C 0.0647(4) 0.89888(19) 0.8164(6)
C14_6 C 0.0970(3) 0.9806(2) 0.8767(7)
C18_6 C 0.0060(3) 0.9208(2) 0.8951(6)
C25_6 C 0.0317(4) 0.9469(2) 0.9017(7)
H8_6 H 0.0205 0.9633 0.9311
C27_6 C 0.3727(3) 0.9905(3) 0.7394(6)
H9_6 H 0.4004 0.9848 0.7191
H14_6 H 0.0092 0.8879 0.5207
C53_6 C 0.0073(4) 0.8502(3) 0.6415(8)
Zn14_4 Zn 0.39652(4) 0.96362(2) 0.47714(6)
Zn18_4 Zn 0.5000 1.0000 0.90341(9)
O51_4 O 0.0524(2) 0.99841(19) 0.3327(4)
Zn5_7 Zn 1.0000 0.0000 0.40341(9)
H5_6 H 0.9908 0.1121 0.5207
C26_6 C 0.9927(4) 0.1498(3) 0.6415(8)
O23_6 O 0.8738(2) 0.01418(15) 0.8273(5)
O24_4 O 0.6974(2) 0.03022(15) 0.5713(4)
O29_4 O 0.6230(3) 0.02897(18) 0.5860(4)
O30_6 O 0.9157(3) 0.00351(17) 0.9359(5)
C28_6 C 0.6625(3) 0.0252(2) 0.6099(6)
C29_6 C 0.6670(3) 0.0123(2) 0.6928(6)
C31_6 C 0.9763(3) 0.1037(2) 0.8498(6)
H10_6 H 0.9927 0.1216 0.8431
C32_6 C 0.9111(3) 0.0729(2) 0.8215(6)
H11_6 H 0.8844 0.0701 0.7941
C35_6 C 0.7068(3) 0.0046(2) 0.7224(6)
H13_6 H 0.7325 0.0065 0.6915
C37_6 C 0.9285(3) 0.0501(2) 0.8682(5)
C39_6 C 0.9184(4) 0.1277(2) 0.7651(6)
C40_6 C 0.9353(4) 0.10112(19) 0.8164(6)
C41_6 C 0.9030(3) 0.0194(2) 0.8767(7)
C45_6 C 0.9940(3) 0.0792(2) 0.8951(6)
C52_6 C 0.9683(4) 0.0531(2) 0.9017(7)
H17_6 H 0.9795 0.0367 0.9311
C54_6 C 0.6273(3) 0.0095(3) 0.7394(6)
H18_6 H 0.5996 0.0152 0.7191
Zn15_4 Zn 0.60348(4) 0.03638(2) 0.47714(6)
O52_4 O 0.9476(2) 0.00159(19) 0.3327(4)
O40_4 O 0.8026(2) 0.96978(15) 0.0713(4)
O46_4 O 0.8770(3) 0.97103(18) 0.0860(4)
Zn5_8 Zn 1.0000 1.0000 0.40341(9)
O9_6 O 0.9508(2) 0.93929(15) 0.9790(4)
O13_6 O 0.9319(2) 0.90136(17) 0.8932(5)
C15_6 C 0.9599(4) 0.9205(3) 0.9226(6)
Zn6_6 Zn 0.84637(4) 0.97192(2) 0.81356(6)
Zn8_4 Zn 0.89652(4) 0.96362(2) 0.97714(6)
O20_6 O 0.8514(2) 0.94775(15) 0.9092(4)
O21_6 O 0.8799(3) 0.95318(15) 0.7255(4)
O22_6 O 0.7859(2) 0.98237(16) 0.7815(4)
O26_6 O 0.7589(3) 0.97916(17) 0.9071(4)
O33_6 O 0.8721(3) 0.90449(18) 0.7631(5)
O35_4 O 0.5524(2) 0.99841(19) 0.8327(4)
O36_6 O 0.9840(4) 0.9693(2) 0.4774(6)
O37_6 O 0.9818(7) 0.9284(3) 0.4050(7)
O38_6 O 0.5937(3) 0.9906(3) 0.9389(5)
C30_6 C 0.7553(3) 0.9845(2) 0.8359(6)
C33_6 C 0.9352(4) 0.9327(2) 0.5953(6)
H12_6 H 0.9220 0.9517 0.5873
C34_6 C 0.8902(4) 0.9250(3) 0.7207(6)
C36_6 C 0.9786(3) 0.8781(2) 0.6218(6)
C38_6 C 0.6315(3) 0.9978(2) 0.8170(6)
C43_6 C 0.9877(4) 0.8946(3) 0.5567(6)
C44_6 C 0.9791(5) 0.9409(3) 0.4690(9)
C46_6 C 0.9241(4) 0.9148(3) 0.6629(6)
C47_6 C 0.9653(4) 0.9217(2) 0.5429(7)
C48_6 C 0.7096(3) 0.9935(2) 0.8002(6)
C49_6 C 0.6715(4) 0.9908(3) 0.8486(6)
H15_6 H 0.6739 0.9843 0.9012
C50_6 C 0.5896(4) 0.9943(3) 0.8670(7)
C51_6 C 0.9450(4) 0.8879(2) 0.6745(6)
H16_6 H 0.9372 0.8757 0.7178
Zn1_7 Zn 0.65363(4) 0.52808(2) 0.81356(6)
O1_7 O 0.6486(2) 0.55225(15) 0.9092(4)
O2_7 O 0.6201(3) 0.54682(15) 0.7255(4)
O3_7 O 0.7141(2) 0.51763(16) 0.7815(4)
O4_7 O 0.6262(2) 0.48582(15) 0.8273(5)
O7_7 O 0.7411(3) 0.52084(17) 0.9071(4)
O9_7 O 0.4508(2) 0.43929(15) 0.9790(4)
O11_7 O 0.5843(3) 0.49649(17) 0.9359(5)
O13_7 O 0.4319(2) 0.40136(17) 0.8932(5)
O14_7 O 0.6279(3) 0.59551(18) 0.7631(5)
O17_7 O 0.5160(4) 0.5307(2) 0.4774(6)
O18_7 O 0.5182(7) 0.5716(3) 0.4050(7)
O19_7 O 0.9063(3) 0.5094(3) 0.9389(5)
C1_7 C 0.8375(3) 0.4748(2) 0.6099(6)
C2_7 C 0.8330(3) 0.4877(2) 0.6928(6)
C3_7 C 0.7447(3) 0.5155(2) 0.8359(6)
C4_7 C 0.5237(3) 0.3963(2) 0.8498(6)
H1_7 H 0.5073 0.3784 0.8431
C5_7 C 0.5889(3) 0.4271(2) 0.8215(6)
H2_7 H 0.6156 0.4299 0.7941
C6_7 C 0.5648(4) 0.5673(2) 0.5953(6)
H3_7 H 0.5780 0.5483 0.5873
C7_7 C 0.6098(4) 0.5750(3) 0.7207(6)
C8_7 C 0.7932(3) 0.4954(2) 0.7224(6)
H4_7 H 0.7675 0.4935 0.6915
C9_7 C 0.5214(3) 0.6219(2) 0.6218(6)
C10_7 C 0.5715(3) 0.4499(2) 0.8682(5)
C11_7 C 0.8685(3) 0.5022(2) 0.8170(6)
C12_7 C 0.5816(4) 0.3723(2) 0.7651(6)
C13_7 C 0.5647(4) 0.39888(19) 0.8164(6)
C14_7 C 0.5970(3) 0.4806(2) 0.8767(7)
C15_7 C 0.4599(4) 0.4205(3) 0.9226(6)
C16_7 C 0.5123(4) 0.6054(3) 0.5567(6)
H5_7 H 0.4908 0.6121 0.5207
C17_7 C 0.5209(5) 0.5591(3) 0.4690(9)
C18_7 C 0.5060(3) 0.4208(2) 0.8951(6)
C19_7 C 0.5759(4) 0.5852(3) 0.6629(6)
C20_7 C 0.5347(4) 0.5783(2) 0.5429(7)
C21_7 C 0.7904(3) 0.5065(2) 0.8002(6)
C22_7 C 0.8285(4) 0.5092(3) 0.8486(6)
H6_7 H 0.8261 0.5157 0.9012
C23_7 C 0.9104(4) 0.5057(3) 0.8670(7)
C24_7 C 0.5550(4) 0.6121(2) 0.6745(6)
H7_7 H 0.5628 0.6243 0.7178
C25_7 C 0.5317(4) 0.4469(2) 0.9017(7)
H8_7 H 0.5205 0.4633 0.9311
C26_7 C 0.4927(4) 0.6498(3) 0.6415(8)
C27_7 C 0.8727(3) 0.4905(3) 0.7394(6)
H9_7 H 0.9004 0.4848 0.7191
Zn6_7 Zn 0.34637(4) 0.47192(2) 0.81356(6)
O20_7 O 0.3514(2) 0.44775(15) 0.9092(4)
O21_7 O 0.3799(3) 0.45318(15) 0.7255(4)
O22_7 O 0.2859(2) 0.48237(16) 0.7815(4)
O23_7 O 0.3738(2) 0.51418(15) 0.8273(5)
O26_7 O 0.2589(3) 0.47916(17) 0.9071(4)
O28_7 O 0.5492(2) 0.56071(15) 0.9790(4)
O30_7 O 0.4157(3) 0.50351(17) 0.9359(5)
O32_7 O 0.5681(2) 0.59864(17) 0.8932(5)
O33_7 O 0.3721(3) 0.40449(18) 0.7631(5)
O36_7 O 0.4840(4) 0.4693(2) 0.4774(6)
O37_7 O 0.4818(7) 0.4284(3) 0.4050(7)
O38_7 O 0.0937(3) 0.4906(3) 0.9389(5)
C28_7 C 0.1625(3) 0.5252(2) 0.6099(6)
C29_7 C 0.1670(3) 0.5123(2) 0.6928(6)
C30_7 C 0.2553(3) 0.4845(2) 0.8359(6)
C31_7 C 0.4763(3) 0.6037(2) 0.8498(6)
H10_7 H 0.4927 0.6216 0.8431
C32_7 C 0.4111(3) 0.5729(2) 0.8215(6)
H11_7 H 0.3844 0.5701 0.7941
C33_7 C 0.4352(4) 0.4327(2) 0.5953(6)
H12_7 H 0.4220 0.4517 0.5873
C34_7 C 0.3902(4) 0.4250(3) 0.7207(6)
C35_7 C 0.2068(3) 0.5046(2) 0.7224(6)
H13_7 H 0.2325 0.5065 0.6915
C36_7 C 0.4786(3) 0.3781(2) 0.6218(6)
C37_7 C 0.4285(3) 0.5501(2) 0.8682(5)
C38_7 C 0.1315(3) 0.4978(2) 0.8170(6)
C39_7 C 0.4184(4) 0.6277(2) 0.7651(6)
C40_7 C 0.4353(4) 0.60112(19) 0.8164(6)
C41_7 C 0.4030(3) 0.5194(2) 0.8767(7)
C42_7 C 0.5401(4) 0.5795(3) 0.9226(6)
C43_7 C 0.4877(4) 0.3946(3) 0.5567(6)
H14_7 H 0.5092 0.3879 0.5207
C44_7 C 0.4791(5) 0.4409(3) 0.4690(9)
C45_7 C 0.4940(3) 0.5792(2) 0.8951(6)
C46_7 C 0.4241(4) 0.4148(3) 0.6629(6)
C47_7 C 0.4653(4) 0.4217(2) 0.5429(7)
C48_7 C 0.2096(3) 0.4935(2) 0.8002(6)
C49_7 C 0.1715(4) 0.4908(3) 0.8486(6)
H15_7 H 0.1739 0.4843 0.9012
C50_7 C 0.0896(4) 0.4943(3) 0.8670(7)
C51_7 C 0.4450(4) 0.3879(2) 0.6745(6)
H16_7 H 0.4372 0.3757 0.7178
C52_7 C 0.4683(4) 0.5531(2) 0.9017(7)
H17_7 H 0.4795 0.5367 0.9311
C53_7 C 0.5073(4) 0.3502(3) 0.6415(8)
C54_7 C 0.1273(3) 0.5095(3) 0.7394(6)
H18_7 H 0.0996 0.5152 0.7191
Zn1_8 Zn 0.65363(4) 0.02808(2) 0.31356(6)
O1_8 O 0.6486(2) 0.05225(15) 0.4092(4)
O2_8 O 0.6201(3) 0.04682(15) 0.2255(4)
O3_8 O 0.7141(2) 0.01763(16) 0.2815(4)
O7_8 O 0.7411(3) 0.02084(17) 0.4071(4)
O14_8 O 0.6279(3) 0.09551(18) 0.2631(5)
O19_8 O 0.9063(3) 0.0094(3) 0.4389(5)
C3_8 C 0.7447(3) 0.0155(2) 0.3359(6)
C6_8 C 0.5648(4) 0.0673(2) 0.0953(6)
H3_8 H 0.5780 0.0483 0.0873
C7_8 C 0.6098(4) 0.0750(3) 0.2207(6)
C9_8 C 0.5214(3) 0.1219(2) 0.1218(6)
C11_8 C 0.8685(3) 0.0022(2) 0.3170(6)
C16_8 C 0.5123(4) 0.1054(3) 0.0567(6)
H5_8 H 0.4908 0.1121 0.0207
C19_8 C 0.5759(4) 0.0852(3) 0.1629(6)
C20_8 C 0.5347(4) 0.0783(2) 0.0429(7)
C21_8 C 0.7904(3) 0.0065(2) 0.3002(6)
C22_8 C 0.8285(4) 0.0092(3) 0.3486(6)
H6_8 H 0.8261 0.0157 0.4012
C23_8 C 0.9104(4) 0.0057(3) 0.3670(7)
C24_8 C 0.5550(4) 0.1121(2) 0.1745(6)
H7_8 H 0.5628 0.1243 0.2178
C26_8 C 0.4927(4) 0.1498(3) 0.1415(8)
O23_8 O 0.3738(2) 0.01418(15) 0.3273(5)
O28_8 O 0.5492(2) 0.06071(15) 0.4790(4)
O30_8 O 0.4157(3) 0.00351(17) 0.4359(5)
O32_8 O 0.5681(2) 0.09864(17) 0.3932(5)
C28_8 C 0.1625(3) 0.0252(2) 0.1099(6)
C29_8 C 0.1670(3) 0.0123(2) 0.1928(6)
C31_8 C 0.4763(3) 0.1037(2) 0.3498(6)
H10_8 H 0.4927 0.1216 0.3431
C32_8 C 0.4111(3) 0.0729(2) 0.3215(6)
H11_8 H 0.3844 0.0701 0.2941
C35_8 C 0.2068(3) 0.0046(2) 0.2224(6)
H13_8 H 0.2325 0.0065 0.1915
C37_8 C 0.4285(3) 0.0501(2) 0.3682(5)
C39_8 C 0.4184(4) 0.1277(2) 0.2651(6)
C40_8 C 0.4353(4) 0.10112(19) 0.3164(6)
C41_8 C 0.4030(3) 0.0194(2) 0.3767(7)
C42_8 C 0.5401(4) 0.0795(3) 0.4226(6)
C45_8 C 0.4940(3) 0.0792(2) 0.3951(6)
C52_8 C 0.4683(4) 0.0531(2) 0.4017(7)
H17_8 H 0.4795 0.0367 0.4311
C54_8 C 0.1273(3) 0.0095(3) 0.2394(6)
H18_8 H 0.0996 0.0152 0.2191
O17_8 O 0.5160(4) 0.0307(2) 0.9774(6)
O18_8 O 0.5182(7) 0.0716(3) 0.9050(7)
C17_8 C 0.5209(5) 0.0591(3) 0.9690(9)
O4_8 O 0.6262(2) 0.98582(15) 0.3273(5)
O9_8 O 0.4508(2) 0.93929(15) 0.4790(4)
O11_8 O 0.5843(3) 0.99649(17) 0.4359(5)
O13_8 O 0.4319(2) 0.90136(17) 0.3932(5)
C1_8 C 0.8375(3) 0.9748(2) 0.1099(6)
C2_8 C 0.8330(3) 0.9877(2) 0.1928(6)
C4_8 C 0.5237(3) 0.8963(2) 0.3498(6)
H1_8 H 0.5073 0.8784 0.3431
C5_8 C 0.5889(3) 0.9271(2) 0.3215(6)
H2_8 H 0.6156 0.9299 0.2941
C8_8 C 0.7932(3) 0.9954(2) 0.2224(6)
H4_8 H 0.7675 0.9935 0.1915
C10_8 C 0.5715(3) 0.9499(2) 0.3682(5)
C12_8 C 0.5816(4) 0.8723(2) 0.2651(6)
C13_8 C 0.5647(4) 0.89888(19) 0.3164(6)
C14_8 C 0.5970(3) 0.9806(2) 0.3767(7)
C15_8 C 0.4599(4) 0.9205(3) 0.4226(6)
C18_8 C 0.5060(3) 0.9208(2) 0.3951(6)
C25_8 C 0.5317(4) 0.9469(2) 0.4017(7)
H8_8 H 0.5205 0.9633 0.4311
C27_8 C 0.8727(3) 0.9905(3) 0.2394(6)
H9_8 H 0.9004 0.9848 0.2191
Zn6_8 Zn 0.34637(4) 0.97192(2) 0.31356(6)
O20_8 O 0.3514(2) 0.94775(15) 0.4092(4)
O21_8 O 0.3799(3) 0.95318(15) 0.2255(4)
O22_8 O 0.2859(2) 0.98237(16) 0.2815(4)
O26_8 O 0.2589(3) 0.97916(17) 0.4071(4)
O33_8 O 0.3721(3) 0.90449(18) 0.2631(5)
O38_8 O 0.0937(3) 0.9906(3) 0.4389(5)
C30_8 C 0.2553(3) 0.9845(2) 0.3359(6)
C33_8 C 0.4352(4) 0.9327(2) 0.0953(6)
H12_8 H 0.4220 0.9517 0.0873
C34_8 C 0.3902(4) 0.9250(3) 0.2207(6)
C36_8 C 0.4786(3) 0.8781(2) 0.1218(6)
C38_8 C 0.1315(3) 0.9978(2) 0.3170(6)
C43_8 C 0.4877(4) 0.8946(3) 0.0567(6)
H14_8 H 0.5092 0.8879 0.0207
C46_8 C 0.4241(4) 0.9148(3) 0.1629(6)
C47_8 C 0.4653(4) 0.9217(2) 0.0429(7)
C48_8 C 0.2096(3) 0.9935(2) 0.3002(6)
C49_8 C 0.1715(4) 0.9908(3) 0.3486(6)
H15_8 H 0.1739 0.9843 0.4012
C50_8 C 0.0896(4) 0.9943(3) 0.3670(7)
C51_8 C 0.4450(4) 0.8879(2) 0.1745(6)
H16_8 H 0.4372 0.8757 0.2178
C53_8 C 0.5073(4) 0.8502(3) 0.1415(8)
O36_8 O 0.4840(4) 0.9693(2) 0.9774(6)
O37_8 O 0.4818(7) 0.9284(3) 0.9050(7)
C44_8 C 0.4791(5) 0.9409(3) 0.9690(9)
loop_
_geom_bond_atom_site_label_1
_geom_bond_atom_site_label_2
_geom_bond_site_symmetry_1
_geom_bond_site_symmetry_2
Zn1 O1 1_555 1_555
Zn2 O1 1_555 1_555
Zn3 O1 1_555 1_555
Zn4 O1 1_555 1_555
O3 Zn1 1_555 1_555
O4 Zn1 1_555 1_555
O6 C12 1_555 1_555
O7 Zn2 1_555 1_555
O9 C15 1_555 1_555
O11 Zn3 1_555 1_555
O13 C15 1_555 1_555
O14 Zn4 1_555 1_555
C3 O3 1_555 1_555
C4 H1 1_555 1_555
C5 H2 1_555 1_555
C10 C5 1_555 1_555
C12 C13 1_555 1_555
C13 C4 1_555 1_555
C14 O4 1_555 1_555
C15 C18 1_555 1_555
C18 C4 1_555 1_555
C25 C10 1_555 1_555
H8 C25 1_555 1_555
Zn6 O20 1_555 1_555
Zn7 O20 1_555 1_555
Zn8 O9 1_555 1_555
Zn9 O13 1_555 1_555
O20 Zn8 1_555 1_555
O22 Zn6 1_555 1_555
O23 Zn6 1_555 1_555
O25 C39 1_555 1_555
O26 Zn7 1_555 1_555
O28 Zn3 1_555 1_555
O30 Zn8 1_555 1_555
O32 Zn4 1_555 1_555
O33 Zn9 1_555 1_555
O35 C50 1_555 1_555
O38 C50 1_555 1_555
C30 O22 1_555 1_555
C31 H10 1_555 1_555
C32 H11 1_555 1_555
C37 C32 1_555 1_555
C38 C49 1_555 1_555
C39 C40 1_555 1_555
C40 C31 1_555 1_555
C41 O23 1_555 1_555
C42 O28 1_555 1_555
C45 C31 1_555 1_555
C48 C30 1_555 1_555
C49 C48 1_555 1_555
H15 C49 1_555 1_555
C50 C38 1_555 1_555
C52 C37 1_555 1_555
H17 C52 1_555 1_555
Zn19 O35 1_555 1_555
O39 Zn2 1_555 1_555
O40 Zn7 1_555 1_555
O41 Zn2 1_555 1_555
O42 Zn7 1_555 1_555
O44 Zn7 1_555 1_555
O45 Zn3 1_555 1_555
O46 Zn8 1_555 1_555
O47 Zn4 1_555 1_555
O48 Zn9 1_555 1_555
O49 Zn4 1_555 1_555
O50 Zn9 1_555 1_555
O7 C3 1_555 1_555
O11 C14 1_555 1_555
C5 C13 1_555 1_555
C10 C14 1_555 1_555
C18 C25 1_555 1_555
Zn9 O20 1_555 1_555
O26 C30 1_555 1_555
O30 C41 1_555 1_555
O32 C42 1_555 1_555
C32 C40 1_555 1_555
C37 C41 1_555 1_555
C42 C45 1_555 1_555
C45 C52 1_555 1_555
Zn5 O17 1_555 1_555
O8 C26 1_555 1_555
O15 C26 1_555 1_555
O17 C17 1_555 1_555
O18 C17 1_555 1_555
C6 H3 1_555 1_555
C7 O2 1_555 1_555
C9 C16 1_555 1_555
C16 H5 1_555 1_555
C17 C20 1_555 1_555
C19 C6 1_555 1_555
C20 C6 1_555 1_555
C24 C9 1_555 1_555
H7 C24 1_555 1_555
C26 C9 1_555 1_555
O24 C28 1_555 1_555
O27 C53 1_555 1_555
O29 C28 1_555 1_555
O34 C53 1_555 1_555
O36 Zn5 1_555 1_555
O37 C44 1_555 1_555
C28 C29 1_555 1_555
C29 C35 1_555 1_555
C33 H12 1_555 1_555
C34 O21 1_555 1_555
C35 H13 1_555 1_555
C36 C43 1_555 1_555
C43 H14 1_555 1_555
C44 O36 1_555 1_555
C46 C33 1_555 1_555
C47 C33 1_555 1_555
C51 C36 1_555 1_555
H16 C51 1_555 1_555
C53 C36 1_555 1_555
C54 C29 1_555 1_555
H18 C54 1_555 1_555
Zn12 O24 1_555 1_555
Zn13 O8 1_555 1_555
Zn15 O29 1_555 1_555
Zn16 O12 1_555 1_555
Zn17 O15 1_555 1_555
O51 Zn5 1_555 1_555
O52 Zn5 1_555 1_555
C7 C19 1_555 1_555
C16 C20 1_555 1_555
C19 C24 1_555 1_555
O27 Zn11 1_555 1_555
O31 Zn17 1_555 1_555
O34 Zn16 1_555 1_555
C34 C46 1_555 1_555
C43 C47 1_555 1_555
C44 C47 1_555 1_555
C46 C51 1_555 1_555
O16 C23 1_555 1_555
O19 C23 1_555 1_555
C11 C22 1_555 1_555
C22 C21 1_555 1_555
H6 C22 1_555 1_555
C23 C11 1_555 1_555
Zn19 O16 1_555 1_555
O5 C1 1_555 1_555
O10 C1 1_555 1_555
C1 C2 1_555 1_555
C2 C8 1_555 1_555
C8 H4 1_555 1_555
C27 C2 1_555 1_555
H9 C27 1_555 1_555
Zn10 O5 1_555 1_555
Zn14 O10 1_555 1_555
O16_2 C23_2 1_555 1_555
O19_2 C23_2 1_555 1_555
C11_2 C22_2 1_555 1_555
C22_2 C21_2 1_555 1_555
H6_2 C22_2 1_555 1_555
C23_2 C11_2 1_555 1_555
Zn18 O16_2 1_555 1_555
O5_2 C1_2 1_555 1_555
O10_2 C1_2 1_555 1_555
C1_2 C2_2 1_555 1_555
C2_2 C8_2 1_555 1_555
C8_2 H4_2 1_555 1_555
C27_2 C2_2 1_555 1_555
H9_2 C27_2 1_555 1_555
Zn10_2 O5_2 1_555 1_555
Zn14_2 O10_2 1_555 1_555
Zn1_2 O1_2 1_555 1_555
Zn2_2 O1_2 1_555 1_555
Zn3_2 O1_2 1_555 1_555
Zn4_2 O1_2 1_555 1_555
O3_2 Zn1_2 1_555 1_555
O4_2 Zn1_2 1_555 1_555
O6_2 C12_2 1_555 1_555
O7_2 Zn2_2 1_555 1_555
O9_2 C15_2 1_555 1_555
O11_2 Zn3_2 1_555 1_555
O13_2 C15_2 1_555 1_555
O14_2 Zn4_2 1_555 1_555
C3_2 O3_2 1_555 1_555
C4_2 H1_2 1_555 1_555
C5_2 H2_2 1_555 1_555
C10_2 C5_2 1_555 1_555
C12_2 C13_2 1_555 1_555
C13_2 C4_2 1_555 1_555
C14_2 O4_2 1_555 1_555
C15_2 C18_2 1_555 1_555
C18_2 C4_2 1_555 1_555
C25_2 C10_2 1_555 1_555
H8_2 C25_2 1_555 1_555
Zn6_2 O20_2 1_555 1_555
Zn7_2 O20_2 1_555 1_555
Zn8_2 O9_2 1_555 1_555
Zn9_2 O13_2 1_555 1_555
O20_2 Zn8_2 1_555 1_555
O22_2 Zn6_2 1_555 1_555
O23_2 Zn6_2 1_555 1_555
O25_2 C39_2 1_555 1_555
O26_2 Zn7_2 1_555 1_555
O28_2 Zn3_2 1_555 1_555
O30_2 Zn8_2 1_555 1_555
O32_2 Zn4_2 1_555 1_555
O33_2 Zn9_2 1_555 1_555
O35_2 C50_2 1_555 1_555
O38_2 C50_2 1_555 1_555
C30_2 O22_2 1_555 1_555
C31_2 H10_2 1_555 1_555
C32_2 H11_2 1_555 1_555
C37_2 C32_2 1_555 1_555
C38_2 C49_2 1_555 1_555
C39_2 C40_2 1_555 1_555
C40_2 C31_2 1_555 1_555
C41_2 O23_2 1_555 1_555
C42_2 O28_2 1_555 1_555
C45_2 C31_2 1_555 1_555
C48_2 C30_2 1_555 1_555
C49_2 C48_2 1_555 1_555
H15_2 C49_2 1_555 1_555
C50_2 C38_2 1_555 1_555
C52_2 C37_2 1_555 1_555
H17_2 C52_2 1_555 1_555
Zn18 O35_2 1_555 1_555
O39_2 Zn2_2 1_555 1_555
O40_2 Zn7_2 1_555 1_555
O41_2 Zn2_2 1_555 1_555
O42_2 Zn7_2 1_555 1_555
O44_2 Zn7_2 1_555 1_555
O45_2 Zn3_2 1_555 1_555
O46_2 Zn8_2 1_555 1_555
O47_2 Zn4_2 1_555 1_555
O48_2 Zn9_2 1_555 1_555
O49_2 Zn4_2 1_555 1_555
O50_2 Zn9_2 1_555 1_555
O7_2 C3_2 1_555 1_555
O11_2 C14_2 1_555 1_555
C5_2 C13_2 1_555 1_555
C10_2 C14_2 1_555 1_555
C18_2 C25_2 1_555 1_555
Zn9_2 O20_2 1_555 1_555
O26_2 C30_2 1_555 1_555
O30_2 C41_2 1_555 1_555
O32_2 C42_2 1_555 1_555
C32_2 C40_2 1_555 1_555
C37_2 C41_2 1_555 1_555
C42_2 C45_2 1_555 1_555
C45_2 C52_2 1_555 1_555
Zn5_2 O17_2 1_555 1_555
O8_2 C26_2 1_555 1_555
O15_2 C26_2 1_555 1_555
O17_2 C17_2 1_555 1_555
O18_2 C17_2 1_555 1_555
C6_2 H3_2 1_555 1_555
C7_2 O2_2 1_555 1_555
C9_2 C16_2 1_555 1_555
C16_2 H5_2 1_555 1_555
C17_2 C20_2 1_555 1_555
C19_2 C6_2 1_555 1_555
C20_2 C6_2 1_555 1_555
C24_2 C9_2 1_555 1_555
H7_2 C24_2 1_555 1_555
C26_2 C9_2 1_555 1_555
O24_2 C28_2 1_555 1_555
O27_2 C53_2 1_555 1_555
O29_2 C28_2 1_555 1_555
O34_2 C53_2 1_555 1_555
O36_2 Zn5_2 1_555 1_555
O37_2 C44_2 1_555 1_555
C28_2 C29_2 1_555 1_555
C29_2 C35_2 1_555 1_555
C33_2 H12_2 1_555 1_555
C34_2 O21_2 1_555 1_555
C35_2 H13_2 1_555 1_555
C36_2 C43_2 1_555 1_555
C43_2 H14_2 1_555 1_555
C44_2 O36_2 1_555 1_555
C46_2 C33_2 1_555 1_555
C47_2 C33_2 1_555 1_555
C51_2 C36_2 1_555 1_555
H16_2 C51_2 1_555 1_555
C53_2 C36_2 1_555 1_555
C54_2 C29_2 1_555 1_555
H18_2 C54_2 1_555 1_555
Zn12_2 O24_2 1_555 1_555
Zn13_2 O8_2 1_555 1_555
Zn15_2 O29_2 1_555 1_555
Zn16_2 O12_2 1_555 1_555
Zn17_2 O15_2 1_555 1_555
O51_2 Zn5_2 1_555 1_555
O52_2 Zn5_2 1_555 1_555
C7_2 C19_2 1_555 1_555
C16_2 C20_2 1_555 1_555
C19_2 C24_2 1_555 1_555
O27_2 Zn11_2 1_555 1_555
O31_2 Zn17_2 1_555 1_555
O34_2 Zn16_2 1_555 1_555
C34_2 C46_2 1_555 1_555
C43_2 C47_2 1_555 1_555
C44_2 C47_2 1_555 1_555
C46_2 C51_2 1_555 1_555
Zn1_3 O1_3 1_555 1_555
Zn2_3 O1_3 1_555 1_555
Zn3_3 O1_3 1_555 1_555
Zn4_3 O1_3 1_555 1_555
O2_3 Zn1_3 1_555 1_555
O3_3 Zn1_3 1_555 1_555
O4_3 Zn1_3 1_555 1_555
O5_3 C1_3 1_555 1_555
O41 C12_3 1_555 1_555
O7_3 Zn2_3 1_555 1_555
O10_3 C1_3 1_555 1_555
O11_3 Zn3_3 1_555 1_555
O47 C12_3 1_555 1_555
O14_3 Zn4_3 1_555 1_555
O16_3 C23_3 1_555 1_555
O19_3 C23_3 1_555 1_555
C1_3 C2_3 1_555 1_555
C2_3 C8_3 1_555 1_555
C3_3 O3_3 1_555 1_555
C4_3 H1_3 1_555 1_555
C5_3 H2_3 1_555 1_555
C6_3 H3_3 1_555 1_555
C7_3 O2_3 1_555 1_555
C8_3 H4_3 1_555 1_555
C9_3 C16_3 1_555 1_555
C10_3 C5_3 1_555 1_555
C11_3 C22_3 1_555 1_555
C12_3 C13_3 1_555 1_555
C13_3 C4_3 1_555 1_555
C14_3 O4_3 1_555 1_555
C18_3 C4_3 1_555 1_555
C19_3 C6_3 1_555 1_555
C20_3 C6_3 1_555 1_555
C21_3 C3_3 1_555 1_555
C22_3 C21_3 1_555 1_555
H6_3 C22_3 1_555 1_555
C23_3 C11_3 1_555 1_555
C24_3 C9_3 1_555 1_555
H7_3 C24_3 1_555 1_555
C25_3 C10_3 1_555 1_555
H8_3 C25_3 1_555 1_555
C27_3 C2_3 1_555 1_555
H9_3 C27_3 1_555 1_555
O28_3 Zn3_3 1_555 1_555
O32_3 Zn4_3 1_555 1_555
O49 C53_3 1_555 1_555
C42_3 O28_3 1_555 1_555
Zn18_2 O16_3 1_555 1_555
O39_3 Zn2_3 1_555 1_555
O41_3 Zn2_3 1_555 1_555
O43_3 Zn2_3 1_555 1_555
O45_3 Zn3_3 1_555 1_555
O47_3 Zn4_3 1_555 1_555
O49_3 Zn4_3 1_555 1_555
O7_3 C3_3 1_555 1_555
O11_3 C14_3 1_555 1_555
O14_3 C7_3 1_555 1_555
C5_3 C13_3 1_555 1_555
C7_3 C19_3 1_555 1_555
C8_3 C21_3 1_555 1_555
C10_3 C14_3 1_555 1_555
C11_3 C27_3 1_555 1_555
C16_3 C20_3 1_555 1_555
C18_3 C25_3 1_555 1_555
C19_3 C24_3 1_555 1_555
O32_3 C42_3 1_555 1_555
Zn5_3 O17_3 1_555 1_555
O17_3 C17_3 1_555 1_555
O18_3 C17_3 1_555 1_555
O51_3 Zn5_3 1_555 1_555
O9_3 C15_3 1_555 1_555
O13_3 C15_3 1_555 1_555
O49_2 C26_3 1_555 1_555
Zn6_3 O20_3 1_555 1_555
Zn7_3 O20_3 1_555 1_555
Zn8_3 O9_3 1_555 1_555
Zn9_3 O13_3 1_555 1_555
O20_3 Zn8_3 1_555 1_555
O21_3 Zn6_3 1_555 1_555
O22_3 Zn6_3 1_555 1_555
O23_3 Zn6_3 1_555 1_555
O24_3 C28_3 1_555 1_555
O41_2 C39_3 1_555 1_555
O26_3 Zn7_3 1_555 1_555
O29_3 C28_3 1_555 1_555
O30_3 Zn8_3 1_555 1_555
O47_2 C39_3 1_555 1_555
O33_3 Zn9_3 1_555 1_555
O35_3 C50_3 1_555 1_555
O38_3 C50_3 1_555 1_555
C28_3 C29_3 1_555 1_555
C29_3 C35_3 1_555 1_555
C30_3 O22_3 1_555 1_555
C31_3 H10_3 1_555 1_555
C32_3 H11_3 1_555 1_555
C33_3 H12_3 1_555 1_555
C34_3 O21_3 1_555 1_555
C35_3 H13_3 1_555 1_555
C36_3 C43_3 1_555 1_555
C37_3 C32_3 1_555 1_555
C38_3 C49_3 1_555 1_555
C39_3 C40_3 1_555 1_555
C40_3 C31_3 1_555 1_555
C41_3 O23_3 1_555 1_555
C45_3 C31_3 1_555 1_555
C46_3 C33_3 1_555 1_555
C47_3 C33_3 1_555 1_555
C48_3 C30_3 1_555 1_555
C49_3 C48_3 1_555 1_555
H15_3 C49_3 1_555 1_555
C50_3 C38_3 1_555 1_555
C51_3 C36_3 1_555 1_555
H16_3 C51_3 1_555 1_555
C52_3 C37_3 1_555 1_555
H17_3 C52_3 1_555 1_555
C54_3 C29_3 1_555 1_555
H18_3 C54_3 1_555 1_555
Zn18_2 O35_3 1_555 1_555
O40_3 Zn7_3 1_555 1_555
O42_3 Zn7_3 1_555 1_555
O44_3 Zn7_3 1_555 1_555
O46_3 Zn8_3 1_555 1_555
O48_3 Zn9_3 1_555 1_555
O50_3 Zn9_3 1_555 1_555
Zn9_3 O20_3 1_555 1_555
O26_3 C30_3 1_555 1_555
O30_3 C41_3 1_555 1_555
O33_3 C34_3 1_555 1_555
C32_3 C40_3 1_555 1_555
C34_3 C46_3 1_555 1_555
C35_3 C48_3 1_555 1_555
C37_3 C41_3 1_555 1_555
C38_3 C54_3 1_555 1_555
C43_3 C47_3 1_555 1_555
C45_3 C52_3 1_555 1_555
C46_3 C51_3 1_555 1_555
O36_3 Zn5_4 1_555 1_555
O37_3 C44_3 1_555 1_555
C44_3 O36_3 1_555 1_555
O52_3 Zn5_4 1_555 1_555
Zn1_4 O1_4 1_555 1_555
Zn10_2 O1_4 1_555 1_555
Zn14_2 O1_4 1_555 1_555
Zn4_4 O1_4 1_555 1_555
Zn18 O17_4 1_555 1_555
O2_4 Zn1_4 1_555 1_555
O3_4 Zn1_4 1_555 1_555
O4_4 Zn1_4 1_555 1_555
O41_3 C12_4 1_555 1_555
O7_4 Zn10_2 1_555 1_555
O8_3 C26_4 1_555 1_555
O9_4 C15_4 1_555 1_555
O11_4 Zn14_2 1_555 1_555
O47_3 C12_4 1_555 1_555
O13_4 C15_4 1_555 1_555
O14_4 Zn4_4 1_555 1_555
O15_3 C26_4 1_555 1_555
O17_4 C17_4 1_555 1_555
O18_4 C17_4 1_555 1_555
C3_4 O3_4 1_555 1_555
C4_4 H1_4 1_555 1_555
C5_4 H2_4 1_555 1_555
C6_4 H3_4 1_555 1_555
C7_4 O2_4 1_555 1_555
C9_4 C16_4 1_555 1_555
C10_4 C5_4 1_555 1_555
C12_4 C13_4 1_555 1_555
C13_4 C4_4 1_555 1_555
C14_4 O4_4 1_555 1_555
C15_4 C18_4 1_555 1_555
C16_4 H5_4 1_555 1_555
C17_4 C20_4 1_555 1_555
C18_4 C4_4 1_555 1_555
C19_4 C6_4 1_555 1_555
C20_4 C6_4 1_555 1_555
C24_4 C9_4 1_555 1_555
H7_4 C24_4 1_555 1_555
C25_4 C10_4 1_555 1_555
H8_4 C25_4 1_555 1_555
C26_4 C9_4 1_555 1_555
Zn6_4 O20_4 1_555 1_555
Zn12_2 O20_4 1_555 1_555
Zn15_2 O9_4 1_555 1_555
Zn9_4 O13_4 1_555 1_555
O20_4 Zn15_2 1_555 1_555
O21_4 Zn6_4 1_555 1_555
O22_4 Zn6_4 1_555 1_555
O23_4 Zn6_4 1_555 1_555
O40_2 C28_4 1_555 1_555
O25_3 C39_4 1_555 1_555
O26_4 Zn12_2 1_555 1_555
O43_3 C53_4 1_555 1_555
O28_4 Zn14_2 1_555 1_555
O46_2 C28_4 1_555 1_555
O30_4 Zn15_2 1_555 1_555
O31_3 C39_4 1_555 1_555
O32_4 Zn4_4 1_555 1_555
O33_4 Zn9_4 1_555 1_555
O49_3 C53_4 1_555 1_555
O52_2 C50_4 1_555 1_555
O36_4 Zn18 1_555 1_555
O37_4 C44_4 1_555 1_555
O38_4 C50_4 1_555 1_555
C28_4 C29_4 1_555 1_555
C29_4 C35_4 1_555 1_555
C30_4 O22_4 1_555 1_555
C31_4 H10_4 1_555 1_555
C32_4 H11_4 1_555 1_555
C33_4 H12_4 1_555 1_555
C34_4 O21_4 1_555 1_555
C35_4 H13_4 1_555 1_555
C36_4 C43_4 1_555 1_555
C37_4 C32_4 1_555 1_555
C38_4 C49_4 1_555 1_555
C39_4 C40_4 1_555 1_555
C40_4 C31_4 1_555 1_555
C41_4 O23_4 1_555 1_555
C42_4 O28_4 1_555 1_555
C43_4 H14_4 1_555 1_555
C44_4 O36_4 1_555 1_555
C45_4 C31_4 1_555 1_555
C46_4 C33_4 1_555 1_555
C47_4 C33_4 1_555 1_555
C48_4 C30_4 1_555 1_555
C49_4 C48_4 1_555 1_555
H15_4 C49_4 1_555 1_555
C50_4 C38_4 1_555 1_555
C51_4 C36_4 1_555 1_555
H16_4 C51_4 1_555 1_555
C52_4 C37_4 1_555 1_555
H17_4 C52_4 1_555 1_555
C53_4 C36_4 1_555 1_555
C54_4 C29_4 1_555 1_555
H18_4 C54_4 1_555 1_555
Zn13_3 O8_3 1_555 1_555
Zn17_3 O15_3 1_555 1_555
O41_4 Zn10_2 1_555 1_555
O42_4 Zn12_2 1_555 1_555
O44_4 Zn12_2 1_555 1_555
O47_4 Zn4_4 1_555 1_555
O48_4 Zn9_4 1_555 1_555
O49_4 Zn4_4 1_555 1_555
O50_4 Zn9_4 1_555 1_555
O7_4 C3_4 1_555 1_555
O11_4 C14_4 1_555 1_555
O14_4 C7_4 1_555 1_555
C5_4 C13_4 1_555 1_555
C7_4 C19_4 1_555 1_555
C10_4 C14_4 1_555 1_555
C16_4 C20_4 1_555 1_555
C18_4 C25_4 1_555 1_555
C19_4 C24_4 1_555 1_555
Zn9_4 O20_4 1_555 1_555
O25_3 Zn13_3 1_555 1_555
O26_4 C30_4 1_555 1_555
O30_4 C41_4 1_555 1_555
O31_3 Zn17_3 1_555 1_555
O32_4 C42_4 1_555 1_555
O33_4 C34_4 1_555 1_555
C32_4 C40_4 1_555 1_555
C34_4 C46_4 1_555 1_555
C35_4 C48_4 1_555 1_555
C37_4 C41_4 1_555 1_555
C38_4 C54_4 1_555 1_555
C42_4 C45_4 1_555 1_555
C43_4 C47_4 1_555 1_555
C44_4 C47_4 1_555 1_555
C45_4 C52_4 1_555 1_555
C46_4 C51_4 1_555 1_555
O39_2 C1_4 1_555 1_555
O45_2 C1_4 1_555 1_555
O51_2 C23_4 1_555 1_555
O19_4 C23_4 1_555 1_555
C1_4 C2_4 1_555 1_555
C2_4 C8_4 1_555 1_555
C8_4 H4_4 1_555 1_555
C11_4 C22_4 1_555 1_555
C22_4 C21_4 1_555 1_555
H6_4 C22_4 1_555 1_555
C23_4 C11_4 1_555 1_555
C27_4 C2_4 1_555 1_555
H9_4 C27_4 1_555 1_555
C8_4 C21_4 1_555 1_555
C11_4 C27_4 1_555 1_555
O39 C1_5 1_555 1_555
O45 C1_5 1_555 1_555
O51 C23_5 1_555 1_555
O19_5 C23_5 1_555 1_555
C1_5 C2_5 1_555 1_555
C2_5 C8_5 1_555 1_555
C8_5 H4_5 1_555 1_555
C11_5 C22_5 1_555 1_555
C22_5 C21_5 1_555 1_555
H6_5 C22_5 1_555 1_555
C23_5 C11_5 1_555 1_555
C27_5 C2_5 1_555 1_555
H9_5 C27_5 1_555 1_555
C8_5 C21_5 1_555 1_555
C11_5 C27_5 1_555 1_555
Zn1_5 O1_5 1_555 1_555
Zn10 O1_5 1_555 1_555
Zn14 O1_5 1_555 1_555
Zn4_5 O1_5 1_555 1_555
Zn19 O17_5 1_555 1_555
O2_5 Zn1_5 1_555 1_555
O3_5 Zn1_5 1_555 1_555
O4_5 Zn1_5 1_555 1_555
O42_3 C12_5 1_555 1_555
O7_5 Zn10 1_555 1_555
O8_4 C26_5 1_555 1_555
O9_5 C15_5 1_555 1_555
O11_5 Zn14 1_555 1_555
O48_3 C12_5 1_555 1_555
O13_5 C15_5 1_555 1_555
O14_5 Zn4_5 1_555 1_555
O15_4 C26_5 1_555 1_555
O17_5 C17_5 1_555 1_555
O18_5 C17_5 1_555 1_555
C3_5 O3_5 1_555 1_555
C4_5 H1_5 1_555 1_555
C5_5 H2_5 1_555 1_555
C6_5 H3_5 1_555 1_555
C7_5 O2_5 1_555 1_555
C9_5 C16_5 1_555 1_555
C10_5 C5_5 1_555 1_555
C12_5 C13_5 1_555 1_555
C13_5 C4_5 1_555 1_555
C14_5 O4_5 1_555 1_555
C15_5 C18_5 1_555 1_555
C16_5 H5_5 1_555 1_555
C17_5 C20_5 1_555 1_555
C18_5 C4_5 1_555 1_555
C19_5 C6_5 1_555 1_555
C20_5 C6_5 1_555 1_555
C24_5 C9_5 1_555 1_555
H7_5 C24_5 1_555 1_555
C25_5 C10_5 1_555 1_555
H8_5 C25_5 1_555 1_555
C26_5 C9_5 1_555 1_555
Zn6_5 O20_5 1_555 1_555
Zn12 O20_5 1_555 1_555
Zn15 O9_5 1_555 1_555
Zn9_5 O13_5 1_555 1_555
O20_5 Zn15 1_555 1_555
O21_5 Zn6_5 1_555 1_555
O22_5 Zn6_5 1_555 1_555
O23_5 Zn6_5 1_555 1_555
O40 C28_5 1_555 1_555
O25_4 C39_5 1_555 1_555
O26_5 Zn12 1_555 1_555
O44_3 C53_5 1_555 1_555
O28_5 Zn14 1_555 1_555
O46 C28_5 1_555 1_555
O30_5 Zn15 1_555 1_555
O31_4 C39_5 1_555 1_555
O32_5 Zn4_5 1_555 1_555
O33_5 Zn9_5 1_555 1_555
O50_3 C53_5 1_555 1_555
O52 C50_5 1_555 1_555
O36_5 Zn19 1_555 1_555
O37_5 C44_5 1_555 1_555
O38_5 C50_5 1_555 1_555
C28_5 C29_5 1_555 1_555
C29_5 C35_5 1_555 1_555
C30_5 O22_5 1_555 1_555
C31_5 H10_5 1_555 1_555
C32_5 H11_5 1_555 1_555
C33_5 H12_5 1_555 1_555
C34_5 O21_5 1_555 1_555
C35_5 H13_5 1_555 1_555
C36_5 C43_5 1_555 1_555
C37_5 C32_5 1_555 1_555
C38_5 C49_5 1_555 1_555
C39_5 C40_5 1_555 1_555
C40_5 C31_5 1_555 1_555
C41_5 O23_5 1_555 1_555
C42_5 O28_5 1_555 1_555
C43_5 H14_5 1_555 1_555
C44_5 O36_5 1_555 1_555
C45_5 C31_5 1_555 1_555
C46_5 C33_5 1_555 1_555
C47_5 C33_5 1_555 1_555
C48_5 C30_5 1_555 1_555
C49_5 C48_5 1_555 1_555
H15_5 C49_5 1_555 1_555
C50_5 C38_5 1_555 1_555
C51_5 C36_5 1_555 1_555
H16_5 C51_5 1_555 1_555
C52_5 C37_5 1_555 1_555
H17_5 C52_5 1_555 1_555
C53_5 C36_5 1_555 1_555
C54_5 C29_5 1_555 1_555
H18_5 C54_5 1_555 1_555
Zn13_4 O8_4 1_555 1_555
Zn17_4 O15_4 1_555 1_555
O41_5 Zn10 1_555 1_555
O42_5 Zn12 1_555 1_555
O44_5 Zn12 1_555 1_555
O47_5 Zn4_5 1_555 1_555
O48_5 Zn9_5 1_555 1_555
O49_5 Zn4_5 1_555 1_555
O50_5 Zn9_5 1_555 1_555
O7_5 C3_5 1_555 1_555
O11_5 C14_5 1_555 1_555
O14_5 C7_5 1_555 1_555
C5_5 C13_5 1_555 1_555
C7_5 C19_5 1_555 1_555
C10_5 C14_5 1_555 1_555
C16_5 C20_5 1_555 1_555
C18_5 C25_5 1_555 1_555
C19_5 C24_5 1_555 1_555
Zn9_5 O20_5 1_555 1_555
O25_4 Zn13_4 1_555 1_555
O26_5 C30_5 1_555 1_555
O30_5 C41_5 1_555 1_555
O31_4 Zn17_4 1_555 1_555
O32_5 C42_5 1_555 1_555
O33_5 C34_5 1_555 1_555
C32_5 C40_5 1_555 1_555
C34_5 C46_5 1_555 1_555
C35_5 C48_5 1_555 1_555
C37_5 C41_5 1_555 1_555
C38_5 C54_5 1_555 1_555
C42_5 C45_5 1_555 1_555
C43_5 C47_5 1_555 1_555
C44_5 C47_5 1_555 1_555
C45_5 C52_5 1_555 1_555
C46_5 C51_5 1_555 1_555
Zn1_6 O1_6 1_555 1_555
Zn11 O1_6 1_555 1_555
Zn3_4 O1_6 1_555 1_555
Zn16 O1_6 1_555 1_555
Zn5_5 O17_6 1_555 1_555
O2_6 Zn1_6 1_555 1_555
O3_6 Zn1_6 1_555 1_555
O7_6 Zn11 1_555 1_555
O14_6 Zn16 1_555 1_555
O16_4 C23_6 1_555 1_555
O17_6 C17_6 1_555 1_555
O18_6 C17_6 1_555 1_555
O19_6 C23_6 1_555 1_555
C3_6 O3_6 1_555 1_555
C6_6 H3_6 1_555 1_555
C7_6 O2_6 1_555 1_555
C9_6 C16_6 1_555 1_555
C11_6 C22_6 1_555 1_555
C17_6 C20_6 1_555 1_555
C19_6 C6_6 1_555 1_555
C20_6 C6_6 1_555 1_555
C21_6 C3_6 1_555 1_555
C22_6 C21_6 1_555 1_555
H6_6 C22_6 1_555 1_555
C23_6 C11_6 1_555 1_555
C24_6 C9_6 1_555 1_555
H7_6 C24_6 1_555 1_555
O28_6 Zn3_4 1_555 1_555
O32_6 Zn16 1_555 1_555
C42_6 O28_6 1_555 1_555
Zn18_3 O16_4 1_555 1_555
O7_6 C3_6 1_555 1_555
O14_6 C7_6 1_555 1_555
C7_6 C19_6 1_555 1_555
C16_6 C20_6 1_555 1_555
C19_6 C24_6 1_555 1_555
O32_6 C42_6 1_555 1_555
O5_4 C1_6 1_555 1_555
O41_4 C12_6 1_555 1_555
O10_4 C1_6 1_555 1_555
O47_4 C12_6 1_555 1_555
C1_6 C2_6 1_555 1_555
C2_6 C8_6 1_555 1_555
C4_6 H1_6 1_555 1_555
C5_6 H2_6 1_555 1_555
C8_6 H4_6 1_555 1_555
C10_6 C5_6 1_555 1_555
C12_6 C13_6 1_555 1_555
C13_6 C4_6 1_555 1_555
C14_6 O4_6 1_555 1_555
C18_6 C4_6 1_555 1_555
C25_6 C10_6 1_555 1_555
H8_6 C25_6 1_555 1_555
C27_6 C2_6 1_555 1_555
H9_6 C27_6 1_555 1_555
O49_4 C53_6 1_555 1_555
Zn13_3 O5_4 1_555 1_555
Zn14_4 O10_4 1_555 1_555
O51_4 Zn5_6 1_555 1_555
O11_6 C14_6 1_555 1_555
C5_6 C13_6 1_555 1_555
C10_6 C14_6 1_555 1_555
C18_6 C25_6 1_555 1_555
O49_5 C26_6 1_555 1_555
O24_4 C28_6 1_555 1_555
O41_5 C39_6 1_555 1_555
O29_4 C28_6 1_555 1_555
O47_5 C39_6 1_555 1_555
C28_6 C29_6 1_555 1_555
C29_6 C35_6 1_555 1_555
C31_6 H10_6 1_555 1_555
C32_6 H11_6 1_555 1_555
C35_6 H13_6 1_555 1_555
C37_6 C32_6 1_555 1_555
C39_6 C40_6 1_555 1_555
C40_6 C31_6 1_555 1_555
C41_6 O23_6 1_555 1_555
C45_6 C31_6 1_555 1_555
C52_6 C37_6 1_555 1_555
H17_6 C52_6 1_555 1_555
C54_6 C29_6 1_555 1_555
H18_6 C54_6 1_555 1_555
Zn13_4 O24_4 1_555 1_555
Zn15_4 O29_4 1_555 1_555
O52_4 Zn5_7 1_555 1_555
O30_6 C41_6 1_555 1_555
C32_6 C40_6 1_555 1_555
C37_6 C41_6 1_555 1_555
C45_6 C52_6 1_555 1_555
O9_6 C15_6 1_555 1_555
O13_6 C15_6 1_555 1_555
Zn6_6 O20_6 1_555 1_555
Zn11_2 O20_6 1_555 1_555
Zn8_4 O9_6 1_555 1_555
Zn16_2 O13_6 1_555 1_555
O20_6 Zn8_4 1_555 1_555
O21_6 Zn6_6 1_555 1_555
O22_6 Zn6_6 1_555 1_555
O26_6 Zn11_2 1_555 1_555
O33_6 Zn16_2 1_555 1_555
O35_4 C50_6 1_555 1_555
O36_6 Zn5_8 1_555 1_555
O37_6 C44_6 1_555 1_555
O38_6 C50_6 1_555 1_555
C30_6 O22_6 1_555 1_555
C33_6 H12_6 1_555 1_555
C34_6 O21_6 1_555 1_555
C36_6 C43_6 1_555 1_555
C38_6 C49_6 1_555 1_555
C44_6 O36_6 1_555 1_555
C46_6 C33_6 1_555 1_555
C47_6 C33_6 1_555 1_555
C48_6 C30_6 1_555 1_555
C49_6 C48_6 1_555 1_555
H15_6 C49_6 1_555 1_555
C50_6 C38_6 1_555 1_555
C51_6 C36_6 1_555 1_555
H16_6 C51_6 1_555 1_555
Zn18_4 O35_4 1_555 1_555
Zn16_2 O20_6 1_555 1_555
O26_6 C30_6 1_555 1_555
O33_6 C34_6 1_555 1_555
C34_6 C46_6 1_555 1_555
C43_6 C47_6 1_555 1_555
C44_6 C47_6 1_555 1_555
C46_6 C51_6 1_555 1_555
Zn1_7 O1_7 1_555 1_555
Zn13_2 O1_7 1_555 1_555
Zn15_3 O1_7 1_555 1_555
Zn17_2 O1_7 1_555 1_555
Zn18_2 O17_7 1_555 1_555
O2_7 Zn1_7 1_555 1_555
O3_7 Zn1_7 1_555 1_555
O4_7 Zn1_7 1_555 1_555
O40_3 C1_7 1_555 1_555
O42_5 C12_7 1_555 1_555
O7_7 Zn13_2 1_555 1_555
O44_4 C26_7 1_555 1_555
O9_7 C15_7 1_555 1_555
O46_3 C1_7 1_555 1_555
O11_7 Zn15_3 1_555 1_555
O48_5 C12_7 1_555 1_555
O13_7 C15_7 1_555 1_555
O14_7 Zn17_2 1_555 1_555
O50_4 C26_7 1_555 1_555
O52_3 C23_7 1_555 1_555
O17_7 C17_7 1_555 1_555
O18_7 C17_7 1_555 1_555
O19_7 C23_7 1_555 1_555
C1_7 C2_7 1_555 1_555
C2_7 C8_7 1_555 1_555
C3_7 O3_7 1_555 1_555
C4_7 H1_7 1_555 1_555
C5_7 H2_7 1_555 1_555
C6_7 H3_7 1_555 1_555
C7_7 O2_7 1_555 1_555
C8_7 H4_7 1_555 1_555
C9_7 C16_7 1_555 1_555
C10_7 C5_7 1_555 1_555
C11_7 C22_7 1_555 1_555
C12_7 C13_7 1_555 1_555
C13_7 C4_7 1_555 1_555
C14_7 O4_7 1_555 1_555
C15_7 C18_7 1_555 1_555
C16_7 H5_7 1_555 1_555
C17_7 C20_7 1_555 1_555
C18_7 C4_7 1_555 1_555
C19_7 C6_7 1_555 1_555
C20_7 C6_7 1_555 1_555
C21_7 C3_7 1_555 1_555
C22_7 C21_7 1_555 1_555
H6_7 C22_7 1_555 1_555
C23_7 C11_7 1_555 1_555
C24_7 C9_7 1_555 1_555
H7_7 C24_7 1_555 1_555
C25_7 C10_7 1_555 1_555
H8_7 C25_7 1_555 1_555
C26_7 C9_7 1_555 1_555
C27_7 C2_7 1_555 1_555
H9_7 C27_7 1_555 1_555
Zn6_7 O20_7 1_555 1_555
Zn13 O20_7 1_555 1_555
Zn14_3 O9_7 1_555 1_555
Zn17 O13_7 1_555 1_555
O20_7 Zn14_3 1_555 1_555
O21_7 Zn6_7 1_555 1_555
O22_7 Zn6_7 1_555 1_555
O23_7 Zn6_7 1_555 1_555
O39_3 C28_7 1_555 1_555
O42_4 C39_7 1_555 1_555
O26_7 Zn13 1_555 1_555
O44_5 C53_7 1_555 1_555
O28_7 Zn15_3 1_555 1_555
O45_3 C28_7 1_555 1_555
O30_7 Zn14_3 1_555 1_555
O48_4 C39_7 1_555 1_555
O32_7 Zn17_2 1_555 1_555
O33_7 Zn17 1_555 1_555
O50_5 C53_7 1_555 1_555
O51_3 C50_7 1_555 1_555
O36_7 Zn18_2 1_555 1_555
O37_7 C44_7 1_555 1_555
O38_7 C50_7 1_555 1_555
C28_7 C29_7 1_555 1_555
C29_7 C35_7 1_555 1_555
C30_7 O22_7 1_555 1_555
C31_7 H10_7 1_555 1_555
C32_7 H11_7 1_555 1_555
C33_7 H12_7 1_555 1_555
C34_7 O21_7 1_555 1_555
C35_7 H13_7 1_555 1_555
C36_7 C43_7 1_555 1_555
C37_7 C32_7 1_555 1_555
C38_7 C49_7 1_555 1_555
C39_7 C40_7 1_555 1_555
C40_7 C31_7 1_555 1_555
C41_7 O23_7 1_555 1_555
C42_7 O28_7 1_555 1_555
C43_7 H14_7 1_555 1_555
C44_7 O36_7 1_555 1_555
C45_7 C31_7 1_555 1_555
C46_7 C33_7 1_555 1_555
C47_7 C33_7 1_555 1_555
C48_7 C30_7 1_555 1_555
C49_7 C48_7 1_555 1_555
H15_7 C49_7 1_555 1_555
C50_7 C38_7 1_555 1_555
C51_7 C36_7 1_555 1_555
H16_7 C51_7 1_555 1_555
C52_7 C37_7 1_555 1_555
H17_7 C52_7 1_555 1_555
C53_7 C36_7 1_555 1_555
C54_7 C29_7 1_555 1_555
H18_7 C54_7 1_555 1_555
O7_7 C3_7 1_555 1_555
O11_7 C14_7 1_555 1_555
O14_7 C7_7 1_555 1_555
C5_7 C13_7 1_555 1_555
C7_7 C19_7 1_555 1_555
C8_7 C21_7 1_555 1_555
C10_7 C14_7 1_555 1_555
C11_7 C27_7 1_555 1_555
C16_7 C20_7 1_555 1_555
C18_7 C25_7 1_555 1_555
C19_7 C24_7 1_555 1_555
Zn17 O20_7 1_555 1_555
O26_7 C30_7 1_555 1_555
O30_7 C41_7 1_555 1_555
O32_7 C42_7 1_555 1_555
O33_7 C34_7 1_555 1_555
C32_7 C40_7 1_555 1_555
C34_7 C46_7 1_555 1_555
C35_7 C48_7 1_555 1_555
C37_7 C41_7 1_555 1_555
C38_7 C54_7 1_555 1_555
C42_7 C45_7 1_555 1_555
C43_7 C47_7 1_555 1_555
C44_7 C47_7 1_555 1_555
C45_7 C52_7 1_555 1_555
C46_7 C51_7 1_555 1_555
Zn1_8 O1_8 1_555 1_555
Zn13_4 O1_8 1_555 1_555
Zn15_4 O1_8 1_555 1_555
Zn17_4 O1_8 1_555 1_555
O2_8 Zn1_8 1_555 1_555
O3_8 Zn1_8 1_555 1_555
O7_8 Zn13_4 1_555 1_555
O44 C26_8 1_555 1_555
O14_8 Zn17_4 1_555 1_555
O50 C26_8 1_555 1_555
O52_4 C23_8 1_555 1_555
O19_8 C23_8 1_555 1_555
C3_8 O3_8 1_555 1_555
C6_8 H3_8 1_555 1_555
C7_8 O2_8 1_555 1_555
C9_8 C16_8 1_555 1_555
C11_8 C22_8 1_555 1_555
C16_8 H5_8 1_555 1_555
C19_8 C6_8 1_555 1_555
C20_8 C6_8 1_555 1_555
C21_8 C3_8 1_555 1_555
C22_8 C21_8 1_555 1_555
H6_8 C22_8 1_555 1_555
C23_8 C11_8 1_555 1_555
C24_8 C9_8 1_555 1_555
H7_8 C24_8 1_555 1_555
C26_8 C9_8 1_555 1_555
O39_4 C28_8 1_555 1_555
O42 C39_8 1_555 1_555
O28_8 Zn15_4 1_555 1_555
O45_4 C28_8 1_555 1_555
O48 C39_8 1_555 1_555
O32_8 Zn17_4 1_555 1_555
C28_8 C29_8 1_555 1_555
C29_8 C35_8 1_555 1_555
C31_8 H10_8 1_555 1_555
C32_8 H11_8 1_555 1_555
C35_8 H13_8 1_555 1_555
C37_8 C32_8 1_555 1_555
C39_8 C40_8 1_555 1_555
C40_8 C31_8 1_555 1_555
C41_8 O23_8 1_555 1_555
C42_8 O28_8 1_555 1_555
C45_8 C31_8 1_555 1_555
C52_8 C37_8 1_555 1_555
H17_8 C52_8 1_555 1_555
C54_8 C29_8 1_555 1_555
H18_8 C54_8 1_555 1_555
O7_8 C3_8 1_555 1_555
O14_8 C7_8 1_555 1_555
C7_8 C19_8 1_555 1_555
C16_8 C20_8 1_555 1_555
C19_8 C24_8 1_555 1_555
O30_8 C41_8 1_555 1_555
O32_8 C42_8 1_555 1_555
C32_8 C40_8 1_555 1_555
C37_8 C41_8 1_555 1_555
C42_8 C45_8 1_555 1_555
C45_8 C52_8 1_555 1_555
Zn18_3 O17_8 1_555 1_555
O17_8 C17_8 1_555 1_555
O18_8 C17_8 1_555 1_555
O40_4 C1_8 1_555 1_555
O42_2 C12_8 1_555 1_555
O9_8 C15_8 1_555 1_555
O46_4 C1_8 1_555 1_555
O48_2 C12_8 1_555 1_555
O13_8 C15_8 1_555 1_555
C1_8 C2_8 1_555 1_555
C2_8 C8_8 1_555 1_555
C4_8 H1_8 1_555 1_555
C5_8 H2_8 1_555 1_555
C8_8 H4_8 1_555 1_555
C10_8 C5_8 1_555 1_555
C12_8 C13_8 1_555 1_555
C13_8 C4_8 1_555 1_555
C14_8 O4_8 1_555 1_555
C15_8 C18_8 1_555 1_555
C18_8 C4_8 1_555 1_555
C25_8 C10_8 1_555 1_555
H8_8 C25_8 1_555 1_555
C27_8 C2_8 1_555 1_555
H9_8 C27_8 1_555 1_555
Zn6_8 O20_8 1_555 1_555
Zn13_3 O20_8 1_555 1_555
Zn14_4 O9_8 1_555 1_555
Zn17_3 O13_8 1_555 1_555
O20_8 Zn14_4 1_555 1_555
O21_8 Zn6_8 1_555 1_555
O22_8 Zn6_8 1_555 1_555
O26_8 Zn13_3 1_555 1_555
O44_2 C53_8 1_555 1_555
O33_8 Zn17_3 1_555 1_555
O50_2 C53_8 1_555 1_555
O51_4 C50_8 1_555 1_555
O38_8 C50_8 1_555 1_555
C30_8 O22_8 1_555 1_555
C33_8 H12_8 1_555 1_555
C34_8 O21_8 1_555 1_555
C36_8 C43_8 1_555 1_555
C38_8 C49_8 1_555 1_555
C43_8 H14_8 1_555 1_555
C46_8 C33_8 1_555 1_555
C47_8 C33_8 1_555 1_555
C48_8 C30_8 1_555 1_555
C49_8 C48_8 1_555 1_555
H15_8 C49_8 1_555 1_555
C50_8 C38_8 1_555 1_555
C51_8 C36_8 1_555 1_555
H16_8 C51_8 1_555 1_555
C53_8 C36_8 1_555 1_555
O11_8 C14_8 1_555 1_555
C5_8 C13_8 1_555 1_555
C10_8 C14_8 1_555 1_555
C18_8 C25_8 1_555 1_555
Zn17_3 O20_8 1_555 1_555
O26_8 C30_8 1_555 1_555
O33_8 C34_8 1_555 1_555
C34_8 C46_8 1_555 1_555
C43_8 C47_8 1_555 1_555
C46_8 C51_8 1_555 1_555
O36_8 Zn18_4 1_555 1_555
O37_8 C44_8 1_555 1_555
C44_8 O36_8 1_555 1_555

#END
