
###############################################################################
#
# This file contains modified crystal structure data generated from the
# MOF subset of the Cambridge Structural Database (CSD) v543 
# hosted by the Cambridge Crystallographic Data Centre (CCDC).
#
# This work is licensed under the Creative Commons
# Attribution-NonCommercial-ShareAlike 4.0 International License.
# To view a copy of this license, visit
# http://creativecommons.org/licenses/by-nc-sa/4.0/
# or send a letter to
# Creative Commons, PO Box 1866, Mountain View, CA 94042, USA.
#
# CIF created using the CSD Python API on 29 September 2022
# The structure has been converted into the P1 space group
# The structure has a 3D framework
# The original CSD entry NIWYEZ is in the cubic crystal system
# The original CSD entry NIWYEZ is in a Sohncke space group
# The framework has been calculated to contain at least 10.0% void space
# The void calculation uses a probe of radius 1.32A, grid spacing 0.4
# H atom positions have been added when not included in the experimental data
# Generated hydrogen atom positions removed from atoms on special positions
#
###############################################################################

data_NIWYEZ
_chemical_formula_moiety         '(C216 H168 O171 Zn48)n'
_symmetry_cell_setting           triclinic
_symmetry_space_group_name_H-M   'P 1'
_symmetry_Int_Tables_number      1
_space_group_name_Hall           'P 1'
loop_
_symmetry_equiv_pos_site_id
_symmetry_equiv_pos_as_xyz
1 x,y,z
_cell_length_a                   23.550(8)
_cell_length_b                   23.550(8)
_cell_length_c                   23.550(8)
_cell_angle_alpha                90
_cell_angle_beta                 90
_cell_angle_gamma                90
_cell_volume                     13060.9
loop_
_atom_site_label
_atom_site_type_symbol
_atom_site_fract_x
_atom_site_fract_y
_atom_site_fract_z
Zn10 Zn 0.5000 -0.0000 0.56337(4)
Zn12 Zn 0.5000 0.0000 0.43663(4)
Zn1 Zn 0.0000 0.56337(4) 0.5000
Zn2 Zn 0.20492(4) 0.26111(4) 0.31839(4)
O1 O 0.0536(3) 0.5436(3) 0.4327(2)
O2 O 0.0650(3) 0.4508(3) 0.4476(3)
O3 O 0.1537(4) 0.6360(3) 0.2766(4)
O4 O 0.2016(3) 0.3433(3) 0.3343(3)
O5 O 0.2370(3) 0.3820(3) 0.2544(3)
O6 O 0.0000 0.6459(6) 0.5000
C1 C 0.2091(3) 0.3848(4) 0.3010(3)
C2 C 0.0757(3) 0.4974(5) 0.4222(3)
C3 C 0.1447(3) 0.4429(4) 0.3615(3)
H1 H 0.1369 0.4105 0.3826
C4 C 0.1837(3) 0.4407(3) 0.3154(4)
C5 C 0.1189(4) 0.4931(4) 0.3743(3)
C6 C 0.1950(4) 0.4877(4) 0.2848(4)
H2 H 0.2208 0.4857 0.2549
C7 C 0.1298(4) 0.5426(4) 0.3411(4)
H3 H 0.1110 0.5764 0.3489
C8 C 0.1682(5) 0.5400(4) 0.2976(5)
C9 C 0.1801(5) 0.5922(4) 0.2618(5)
O7 O 0.2185(5) 0.5893(4) 0.2239(5)
O8 O 0.23071(11) 0.23071(11) 0.23071(11)
Zn3 Zn 0.0000 0.43663(4) 0.5000
O14 O 0.0000 0.3541(6) 0.5000
Zn5 Zn 0.20492(4) 0.73889(4) 0.68161(4)
O16 O 0.0536(3) 0.4564(3) 0.5673(2)
O17 O 0.0650(3) 0.5492(3) 0.5524(3)
O18 O 0.1537(4) 0.3640(3) 0.7234(4)
O19 O 0.2016(3) 0.6567(3) 0.6657(3)
O20 O 0.2370(3) 0.6180(3) 0.7456(3)
C19 C 0.2091(3) 0.6152(4) 0.6990(3)
C20 C 0.0757(3) 0.5026(5) 0.5778(3)
C21 C 0.1447(3) 0.5571(4) 0.6385(3)
H7 H 0.1369 0.5895 0.6174
C22 C 0.1837(3) 0.5593(3) 0.6846(4)
C23 C 0.1189(4) 0.5069(4) 0.6257(3)
C24 C 0.1950(4) 0.5123(4) 0.7152(4)
H8 H 0.2208 0.5143 0.7451
C25 C 0.1298(4) 0.4574(4) 0.6589(4)
H9 H 0.1110 0.4236 0.6511
C26 C 0.1682(5) 0.4600(4) 0.7024(5)
C27 C 0.1801(5) 0.4078(4) 0.7382(5)
O21 O 0.2185(5) 0.4107(4) 0.7761(5)
O22 O 0.23071(11) 0.76929(11) 0.76929(11)
Zn8 Zn 0.31839(4) 0.20492(4) 0.26111(4)
O29 O 0.4327(2) 0.0536(3) 0.5436(3)
O30 O 0.4476(3) 0.0650(3) 0.4508(3)
O31 O 0.2766(4) 0.1537(4) 0.6360(3)
O32 O 0.3343(3) 0.2016(3) 0.3433(3)
O33 O 0.2544(3) 0.2370(3) 0.3820(3)
O34 O 0.5000 0.0000 0.6459(6)
C37 C 0.3010(3) 0.2091(3) 0.3848(4)
C38 C 0.4222(3) 0.0757(3) 0.4974(5)
C39 C 0.3615(3) 0.1447(3) 0.4429(4)
H13 H 0.3826 0.1369 0.4105
C40 C 0.3154(4) 0.1837(3) 0.4407(3)
C41 C 0.3743(3) 0.1189(4) 0.4931(4)
C42 C 0.2848(4) 0.1950(4) 0.4877(4)
H14 H 0.2549 0.2208 0.4857
C43 C 0.3411(4) 0.1298(4) 0.5426(4)
H15 H 0.3489 0.1110 0.5764
C44 C 0.2976(5) 0.1682(5) 0.5400(4)
C45 C 0.2618(5) 0.1801(5) 0.5922(4)
O35 O 0.2239(5) 0.2185(5) 0.5893(4)
Zn9 Zn 0.31839(4) 0.79508(4) 0.73889(4)
O36 O 0.4327(2) 0.9464(3) 0.4564(3)
O37 O 0.4476(3) 0.9350(3) 0.5492(3)
O38 O 0.2766(4) 0.8463(4) 0.3640(3)
O39 O 0.3343(3) 0.7984(3) 0.6567(3)
O40 O 0.2544(3) 0.7630(3) 0.6180(3)
C46 C 0.3010(3) 0.7909(3) 0.6152(4)
C47 C 0.4222(3) 0.9243(3) 0.5026(5)
C48 C 0.3615(3) 0.8553(3) 0.5571(4)
H16 H 0.3826 0.8631 0.5895
C49 C 0.3154(4) 0.8163(3) 0.5593(3)
C50 C 0.3743(3) 0.8811(4) 0.5069(4)
C51 C 0.2848(4) 0.8050(4) 0.5123(4)
H17 H 0.2549 0.7792 0.5143
C52 C 0.3411(4) 0.8702(4) 0.4574(4)
H18 H 0.3489 0.8890 0.4236
C53 C 0.2976(5) 0.8318(5) 0.4600(4)
C54 C 0.2618(5) 0.8199(5) 0.4078(4)
O41 O 0.2239(5) 0.7815(5) 0.4107(4)
Zn10_2 Zn 0.5000 1.0000 0.56337(4)
Zn12_2 Zn 0.5000 1.0000 0.43663(4)
Zn13 Zn 0.26111(4) 0.31839(4) 0.20492(4)
Zn14 Zn 0.26111(4) 0.68161(4) 0.79508(4)
Zn18 Zn 0.18161(4) 0.29508(4) 0.76111(4)
Zn20 Zn 0.18161(4) 0.70492(4) 0.23889(4)
Zn21 Zn 0.23889(4) 0.81839(4) 0.29508(4)
Zn22 Zn 0.23889(4) 0.18161(4) 0.70492(4)
O44 O 0.5524(3) 0.0650(3) 0.5492(3)
O45 O 0.3463(4) 0.8640(3) 0.7766(4)
O46 O 0.3463(4) 0.1360(3) 0.2234(4)
O47 O 0.1360(3) 0.7766(4) 0.6537(4)
O48 O 0.1360(3) 0.2234(4) 0.3463(4)
O53 O 0.3820(3) 0.2544(3) 0.2370(3)
O54 O 0.3820(3) 0.7456(3) 0.7630(3)
O34_2 O 0.5000 1.0000 0.6459(6)
O42 O 0.5673(2) 0.9464(3) 0.5436(3)
Zn1_2 Zn 1.0000 0.56337(4) 0.5000
O6_2 O 1.0000 0.6459(6) 0.5000
Zn3_2 Zn 1.0000 0.43663(4) 0.5000
Zn4 Zn 0.79508(4) 0.73889(4) 0.31839(4)
O9 O 0.9464(3) 0.4564(3) 0.4327(2)
O10 O 0.9350(3) 0.5492(3) 0.4476(3)
O11 O 0.8463(4) 0.3640(3) 0.2766(4)
O12 O 0.7984(3) 0.6567(3) 0.3343(3)
O13 O 0.7630(3) 0.6180(3) 0.2544(3)
O14_2 O 1.0000 0.3541(6) 0.5000
C10 C 0.7909(3) 0.6152(4) 0.3010(3)
C11 C 0.9243(3) 0.5026(5) 0.4222(3)
C12 C 0.8553(3) 0.5571(4) 0.3615(3)
H4 H 0.8631 0.5895 0.3826
C13 C 0.8163(3) 0.5593(3) 0.3154(4)
C14 C 0.8811(4) 0.5069(4) 0.3743(3)
C15 C 0.8050(4) 0.5123(4) 0.2848(4)
H5 H 0.7792 0.5143 0.2549
C16 C 0.8702(4) 0.4574(4) 0.3411(4)
H6 H 0.8890 0.4236 0.3489
C17 C 0.8318(5) 0.4600(4) 0.2976(5)
C18 C 0.8199(5) 0.4078(4) 0.2618(5)
O15 O 0.7815(5) 0.4107(4) 0.2239(5)
Zn6 Zn 0.79508(4) 0.26111(4) 0.68161(4)
O23 O 0.9464(3) 0.5436(3) 0.5673(2)
O24 O 0.9350(3) 0.4508(3) 0.5524(3)
O25 O 0.8463(4) 0.6360(3) 0.7234(4)
O26 O 0.7984(3) 0.3433(3) 0.6657(3)
O27 O 0.7630(3) 0.3820(3) 0.7456(3)
C28 C 0.7909(3) 0.3848(4) 0.6990(3)
C29 C 0.9243(3) 0.4974(5) 0.5778(3)
C30 C 0.8553(3) 0.4429(4) 0.6385(3)
H10 H 0.8631 0.4105 0.6174
C31 C 0.8163(3) 0.4407(3) 0.6846(4)
C32 C 0.8811(4) 0.4931(4) 0.6257(3)
C33 C 0.8050(4) 0.4877(4) 0.7152(4)
H11 H 0.7792 0.4857 0.7451
C34 C 0.8702(4) 0.5426(4) 0.6589(4)
H12 H 0.8890 0.5764 0.6511
C35 C 0.8318(5) 0.5400(4) 0.7024(5)
C36 C 0.8199(5) 0.5922(4) 0.7382(5)
O28 O 0.7815(5) 0.5893(4) 0.7761(5)
Zn15 Zn 0.73889(4) 0.31839(4) 0.79508(4)
Zn16 Zn 0.73889(4) 0.68161(4) 0.20492(4)
Zn17 Zn 0.81839(4) 0.70492(4) 0.76111(4)
Zn19 Zn 0.81839(4) 0.29508(4) 0.23889(4)
O49 O 0.8640(3) 0.7766(4) 0.3463(4)
O50 O 0.8640(3) 0.2234(4) 0.6537(4)
O51 O 0.7456(3) 0.7630(3) 0.3820(3)
O52 O 0.7456(3) 0.2370(3) 0.6180(3)
O55 O 0.76929(11) 0.76929(11) 0.23071(11)
O56 O 0.76929(11) 0.23071(11) 0.76929(11)
Zn8_2 Zn 0.68161(4) 0.79508(4) 0.26111(4)
O30_2 O 0.5524(3) 0.9350(3) 0.4508(3)
O31_2 O 0.7234(4) 0.8463(4) 0.6360(3)
O32_2 O 0.6657(3) 0.7984(3) 0.3433(3)
C37_2 C 0.6990(3) 0.7909(3) 0.3848(4)
C38_2 C 0.5778(3) 0.9243(3) 0.4974(5)
C39_2 C 0.6385(3) 0.8553(3) 0.4429(4)
H13_2 H 0.6174 0.8631 0.4105
C40_2 C 0.6846(4) 0.8163(3) 0.4407(3)
C41_2 C 0.6257(3) 0.8811(4) 0.4931(4)
C42_2 C 0.7152(4) 0.8050(4) 0.4877(4)
H14_2 H 0.7451 0.7792 0.4857
C43_2 C 0.6589(4) 0.8702(4) 0.5426(4)
H15_2 H 0.6511 0.8890 0.5764
C44_2 C 0.7024(5) 0.8318(5) 0.5400(4)
C45_2 C 0.7382(5) 0.8199(5) 0.5922(4)
O35_2 O 0.7761(5) 0.7815(5) 0.5893(4)
Zn9_2 Zn 0.68161(4) 0.20492(4) 0.73889(4)
O36_2 O 0.5673(2) 0.0536(3) 0.4564(3)
O38_2 O 0.7234(4) 0.1537(4) 0.3640(3)
O39_2 O 0.6657(3) 0.2016(3) 0.6567(3)
C46_2 C 0.6990(3) 0.2091(3) 0.6152(4)
C47_2 C 0.5778(3) 0.0757(3) 0.5026(5)
C48_2 C 0.6385(3) 0.1447(3) 0.5571(4)
H16_2 H 0.6174 0.1369 0.5895
C49_2 C 0.6846(4) 0.1837(3) 0.5593(3)
C50_2 C 0.6257(3) 0.1189(4) 0.5069(4)
C51_2 C 0.7152(4) 0.1950(4) 0.5123(4)
H17_2 H 0.7451 0.2208 0.5143
C52_2 C 0.6589(4) 0.1298(4) 0.4574(4)
H18_2 H 0.6511 0.1110 0.4236
C53_2 C 0.7024(5) 0.1682(5) 0.4600(4)
C54_2 C 0.7382(5) 0.1801(5) 0.4078(4)
O41_2 O 0.7761(5) 0.2185(5) 0.4107(4)
Zn21_2 Zn 0.76111(4) 0.18161(4) 0.29508(4)
Zn22_2 Zn 0.76111(4) 0.81839(4) 0.70492(4)
O45_2 O 0.6537(4) 0.1360(3) 0.7766(4)
O46_2 O 0.6537(4) 0.8640(3) 0.2234(4)
O53_2 O 0.6180(3) 0.7456(3) 0.2370(3)
O54_2 O 0.6180(3) 0.2544(3) 0.7630(3)
O34_3 O 0.5000 -0.0000 0.3541(6)
O34_4 O 0.5000 1.0000 0.3541(6)
Zn10_3 Zn 0.56337(4) 0.5000 0.0000
Zn12_3 Zn 0.43663(4) 0.5000 0.0000
O29_2 O 0.5436(3) 0.4327(2) 0.0536(3)
O30_3 O 0.4508(3) 0.4476(3) 0.0650(3)
O31_3 O 0.6360(3) 0.2766(4) 0.1537(4)
O32_3 O 0.3433(3) 0.3343(3) 0.2016(3)
O34_5 O 0.6459(6) 0.5000 0.0000
C37_3 C 0.3848(4) 0.3010(3) 0.2091(3)
C38_3 C 0.4974(5) 0.4222(3) 0.0757(3)
C39_3 C 0.4429(4) 0.3615(3) 0.1447(3)
H13_3 H 0.4105 0.3826 0.1369
C40_3 C 0.4407(3) 0.3154(4) 0.1837(3)
C41_3 C 0.4931(4) 0.3743(3) 0.1189(4)
C42_3 C 0.4877(4) 0.2848(4) 0.1950(4)
H14_3 H 0.4857 0.2549 0.2208
C43_3 C 0.5426(4) 0.3411(4) 0.1298(4)
H15_3 H 0.5764 0.3489 0.1110
C44_3 C 0.5400(4) 0.2976(5) 0.1682(5)
C45_3 C 0.5922(4) 0.2618(5) 0.1801(5)
O35_3 O 0.5893(4) 0.2239(5) 0.2185(5)
O36_3 O 0.4564(3) 0.4327(2) 0.9464(3)
O37_2 O 0.5492(3) 0.4476(3) 0.9350(3)
O38_3 O 0.3640(3) 0.2766(4) 0.8463(4)
O39_3 O 0.6567(3) 0.3343(3) 0.7984(3)
C46_3 C 0.6152(4) 0.3010(3) 0.7909(3)
C47_3 C 0.5026(5) 0.4222(3) 0.9243(3)
C48_3 C 0.5571(4) 0.3615(3) 0.8553(3)
H16_3 H 0.5895 0.3826 0.8631
C49_3 C 0.5593(3) 0.3154(4) 0.8163(3)
C50_3 C 0.5069(4) 0.3743(3) 0.8811(4)
C51_3 C 0.5123(4) 0.2848(4) 0.8050(4)
H17_3 H 0.5143 0.2549 0.7792
C52_3 C 0.4574(4) 0.3411(4) 0.8702(4)
H18_3 H 0.4236 0.3489 0.8890
C53_3 C 0.4600(4) 0.2976(5) 0.8318(5)
C54_3 C 0.4078(4) 0.2618(5) 0.8199(5)
O41_3 O 0.4107(4) 0.2239(5) 0.7815(5)
Zn10_4 Zn 0.56337(4) 0.5000 1.0000
Zn12_4 Zn 0.43663(4) 0.5000 1.0000
Zn21_3 Zn 0.29508(4) 0.23889(4) 0.81839(4)
Zn22_3 Zn 0.70492(4) 0.23889(4) 0.18161(4)
O44_2 O 0.5492(3) 0.5524(3) 0.0650(3)
O45_3 O 0.7766(4) 0.3463(4) 0.8640(3)
O46_3 O 0.2234(4) 0.3463(4) 0.1360(3)
O34_6 O 0.6459(6) 0.5000 1.0000
O42_2 O 0.5436(3) 0.5673(2) 0.9464(3)
O29_3 O 0.4564(3) 0.5673(2) 0.0536(3)
O31_4 O 0.3640(3) 0.7234(4) 0.1537(4)
O32_4 O 0.6567(3) 0.6657(3) 0.2016(3)
O34_7 O 0.3541(6) 0.5000 0.0000
C37_4 C 0.6152(4) 0.6990(3) 0.2091(3)
C38_4 C 0.5026(5) 0.5778(3) 0.0757(3)
C39_4 C 0.5571(4) 0.6385(3) 0.1447(3)
H13_4 H 0.5895 0.6174 0.1369
C40_4 C 0.5593(3) 0.6846(4) 0.1837(3)
C41_4 C 0.5069(4) 0.6257(3) 0.1189(4)
C42_4 C 0.5123(4) 0.7152(4) 0.1950(4)
H14_4 H 0.5143 0.7451 0.2208
C43_4 C 0.4574(4) 0.6589(4) 0.1298(4)
H15_4 H 0.4236 0.6511 0.1110
C44_4 C 0.4600(4) 0.7024(5) 0.1682(5)
C45_4 C 0.4078(4) 0.7382(5) 0.1801(5)
O35_4 O 0.4107(4) 0.7761(5) 0.2185(5)
O37_3 O 0.4508(3) 0.5524(3) 0.9350(3)
O38_4 O 0.6360(3) 0.7234(4) 0.8463(4)
O39_4 O 0.3433(3) 0.6657(3) 0.7984(3)
C46_4 C 0.3848(4) 0.6990(3) 0.7909(3)
C47_4 C 0.4974(5) 0.5778(3) 0.9243(3)
C48_4 C 0.4429(4) 0.6385(3) 0.8553(3)
H16_4 H 0.4105 0.6174 0.8631
C49_4 C 0.4407(3) 0.6846(4) 0.8163(3)
C50_4 C 0.4931(4) 0.6257(3) 0.8811(4)
C51_4 C 0.4877(4) 0.7152(4) 0.8050(4)
H17_4 H 0.4857 0.7451 0.7792
C52_4 C 0.5426(4) 0.6589(4) 0.8702(4)
H18_4 H 0.5764 0.6511 0.8890
C53_4 C 0.5400(4) 0.7024(5) 0.8318(5)
C54_4 C 0.5922(4) 0.7382(5) 0.8199(5)
O41_4 O 0.5893(4) 0.7761(5) 0.7815(5)
Zn21_4 Zn 0.70492(4) 0.76111(4) 0.81839(4)
Zn22_4 Zn 0.29508(4) 0.76111(4) 0.18161(4)
O45_4 O 0.2234(4) 0.6537(4) 0.8640(3)
O46_4 O 0.7766(4) 0.6537(4) 0.1360(3)
O34_8 O 0.3541(6) 0.5000 1.0000
Zn10_5 Zn -0.0000 0.5000 0.06337(4)
Zn12_5 Zn -0.0000 0.5000 0.93663(4)
O34_9 O 0.0000 0.5000 0.1459(6)
O42_3 O 0.0673(2) 0.4464(3) 0.0436(3)
O44_3 O 0.0524(3) 0.5650(3) 0.0492(3)
Zn1_3 Zn 0.5000 0.06337(4) 0.0000
O6_3 O 0.5000 0.1459(6) 0.0000
O17_2 O 0.5650(3) 0.0492(3) 0.0524(3)
O19_2 O 0.7016(3) 0.1567(3) 0.1657(3)
O20_2 O 0.7370(3) 0.1180(3) 0.2456(3)
C19_2 C 0.7091(3) 0.1152(4) 0.1990(3)
C20_2 C 0.5757(3) 0.0026(5) 0.0778(3)
C21_2 C 0.6447(3) 0.0571(4) 0.1385(3)
H7_2 H 0.6369 0.0895 0.1174
C22_2 C 0.6837(3) 0.0593(3) 0.1846(4)
C23_2 C 0.6189(4) 0.0069(4) 0.1257(3)
C24_2 C 0.6950(4) 0.0123(4) 0.2152(4)
H8_2 H 0.7208 0.0143 0.2451
O22_2 O 0.73071(11) 0.26929(11) 0.26929(11)
O23_2 O 0.4464(3) 0.0436(3) 0.0673(2)
C34_2 C 0.3702(4) 0.0426(4) 0.1589(4)
H12_2 H 0.3890 0.0764 0.1511
C35_2 C 0.3318(5) 0.0400(4) 0.2024(5)
C36_2 C 0.3199(5) 0.0922(4) 0.2382(5)
O28_2 O 0.2815(5) 0.0893(4) 0.2761(5)
O37_4 O 0.9476(3) 0.4350(3) 0.0492(3)
O39_5 O 0.8343(3) 0.2984(3) 0.1567(3)
O40_2 O 0.7544(3) 0.2630(3) 0.1180(3)
C46_5 C 0.8010(3) 0.2909(3) 0.1152(4)
C47_5 C 0.9222(3) 0.4243(3) 0.0026(5)
C48_5 C 0.8615(3) 0.3553(3) 0.0571(4)
H16_5 H 0.8826 0.3631 0.0895
C49_5 C 0.8154(4) 0.3163(3) 0.0593(3)
C50_5 C 0.8743(3) 0.3811(4) 0.0069(4)
C51_5 C 0.7848(4) 0.3050(4) 0.0123(4)
H17_5 H 0.7549 0.2792 0.0143
Zn10_6 Zn 1.0000 0.5000 0.06337(4)
O54_3 O 0.8820(3) 0.2456(3) 0.2630(3)
Zn1_4 Zn 0.5000 0.06337(4) 1.0000
O1_2 O 0.5536(3) 0.0436(3) 0.9327(2)
O6_4 O 0.5000 0.1459(6) 1.0000
C7_2 C 0.6298(4) 0.0426(4) 0.8411(4)
H3_2 H 0.6110 0.0764 0.8489
C8_2 C 0.6682(5) 0.0400(4) 0.7976(5)
C9_2 C 0.6801(5) 0.0922(4) 0.7618(5)
O7_2 O 0.7185(5) 0.0893(4) 0.7239(5)
O10_2 O 0.4350(3) 0.0492(3) 0.9476(3)
O12_2 O 0.2984(3) 0.1567(3) 0.8343(3)
O13_2 O 0.2630(3) 0.1180(3) 0.7544(3)
C10_2 C 0.2909(3) 0.1152(4) 0.8010(3)
C11_2 C 0.4243(3) 0.0026(5) 0.9222(3)
C12_2 C 0.3553(3) 0.0571(4) 0.8615(3)
H4_2 H 0.3631 0.0895 0.8826
C13_2 C 0.3163(3) 0.0593(3) 0.8154(4)
C14_2 C 0.3811(4) 0.0069(4) 0.8743(3)
C15_2 C 0.3050(4) 0.0123(4) 0.7848(4)
H5_2 H 0.2792 0.0143 0.7549
O36_4 O 0.9327(2) 0.4464(3) 0.9564(3)
C52_5 C 0.8411(4) 0.3702(4) 0.9574(4)
H18_5 H 0.8489 0.3890 0.9236
C53_5 C 0.7976(5) 0.3318(5) 0.9600(4)
C54_5 C 0.7618(5) 0.3199(5) 0.9078(4)
O41_5 O 0.7239(5) 0.2815(5) 0.9107(4)
Zn12_6 Zn 1.0000 0.5000 0.93663(4)
O51_2 O 0.2456(3) 0.2630(3) 0.8820(3)
O55_2 O 0.26929(11) 0.26929(11) 0.73071(11)
Zn3_3 Zn 0.5000 0.93663(4) 0.0000
O14_3 O 0.5000 0.8541(6) 0.0000
O16_2 O 0.5536(3) 0.9564(3) 0.0673(2)
C25_2 C 0.6298(4) 0.9574(4) 0.1589(4)
H9_2 H 0.6110 0.9236 0.1511
C26_2 C 0.6682(5) 0.9600(4) 0.2024(5)
C27_2 C 0.6801(5) 0.9078(4) 0.2382(5)
O21_2 O 0.7185(5) 0.9107(4) 0.2761(5)
O24_2 O 0.4350(3) 0.9508(3) 0.0524(3)
O26_2 O 0.2984(3) 0.8433(3) 0.1657(3)
O27_2 O 0.2630(3) 0.8820(3) 0.2456(3)
C28_2 C 0.2909(3) 0.8848(4) 0.1990(3)
C29_2 C 0.4243(3) 0.9974(5) 0.0778(3)
C30_2 C 0.3553(3) 0.9429(4) 0.1385(3)
H10_2 H 0.3631 0.9105 0.1174
C31_2 C 0.3163(3) 0.9407(3) 0.1846(4)
C32_2 C 0.3811(4) 0.9931(4) 0.1257(3)
C33_2 C 0.3050(4) 0.9877(4) 0.2152(4)
H11_2 H 0.2792 0.9857 0.2451
O29_4 O 0.9327(2) 0.5536(3) 0.0436(3)
O34_10 O 1.0000 0.5000 0.1459(6)
C43_5 C 0.8411(4) 0.6298(4) 0.0426(4)
H15_5 H 0.8489 0.6110 0.0764
C44_5 C 0.7976(5) 0.6682(5) 0.0400(4)
C45_5 C 0.7618(5) 0.6801(5) 0.0922(4)
O35_5 O 0.7239(5) 0.7185(5) 0.0893(4)
O52_2 O 0.2456(3) 0.7370(3) 0.1180(3)
O56_2 O 0.26929(11) 0.73071(11) 0.26929(11)
O2_2 O 0.5650(3) 0.9508(3) 0.9476(3)
O4_2 O 0.7016(3) 0.8433(3) 0.8343(3)
O5_2 O 0.7370(3) 0.8820(3) 0.7544(3)
C1_2 C 0.7091(3) 0.8848(4) 0.8010(3)
C2_2 C 0.5757(3) 0.9974(5) 0.9222(3)
C3_2 C 0.6447(3) 0.9429(4) 0.8615(3)
H1_2 H 0.6369 0.9105 0.8826
C4_2 C 0.6837(3) 0.9407(3) 0.8154(4)
C5_2 C 0.6189(4) 0.9931(4) 0.8743(3)
C6_2 C 0.6950(4) 0.9877(4) 0.7848(4)
H2_2 H 0.7208 0.9857 0.7549
O8_2 O 0.73071(11) 0.73071(11) 0.73071(11)
Zn3_4 Zn 0.5000 0.93663(4) 1.0000
O9_2 O 0.4464(3) 0.9564(3) 0.9327(2)
O14_4 O 0.5000 0.8541(6) 1.0000
C16_2 C 0.3702(4) 0.9574(4) 0.8411(4)
H6_2 H 0.3890 0.9236 0.8489
C17_2 C 0.3318(5) 0.9600(4) 0.7976(5)
C18_2 C 0.3199(5) 0.9078(4) 0.7618(5)
O15_2 O 0.2815(5) 0.9107(4) 0.7239(5)
O30_4 O 0.9476(3) 0.5650(3) 0.9508(3)
O32_5 O 0.8343(3) 0.7016(3) 0.8433(3)
O33_2 O 0.7544(3) 0.7370(3) 0.8820(3)
C37_5 C 0.8010(3) 0.7091(3) 0.8848(4)
C38_5 C 0.9222(3) 0.5757(3) 0.9974(5)
C39_5 C 0.8615(3) 0.6447(3) 0.9429(4)
H13_5 H 0.8826 0.6369 0.9105
C40_5 C 0.8154(4) 0.6837(3) 0.9407(3)
C41_5 C 0.8743(3) 0.6189(4) 0.9931(4)
C42_5 C 0.7848(4) 0.6950(4) 0.9877(4)
H14_5 H 0.7549 0.7208 0.9857
O53_3 O 0.8820(3) 0.7544(3) 0.7370(3)
C43_6 C 0.1589(4) 0.3702(4) 0.0426(4)
H15_6 H 0.1511 0.3890 0.0764
C44_6 C 0.2024(5) 0.3318(5) 0.0400(4)
C45_6 C 0.2382(5) 0.3199(5) 0.0922(4)
O35_6 O 0.2761(5) 0.2815(5) 0.0893(4)
O30_5 O 0.0524(3) 0.4350(3) 0.9508(3)
O32_6 O 0.1657(3) 0.2984(3) 0.8433(3)
C37_6 C 0.1990(3) 0.2909(3) 0.8848(4)
C38_6 C 0.0778(3) 0.4243(3) 0.9974(5)
C39_6 C 0.1385(3) 0.3553(3) 0.9429(4)
H13_6 H 0.1174 0.3631 0.9105
C40_6 C 0.1846(4) 0.3163(3) 0.9407(3)
C41_6 C 0.1257(3) 0.3811(4) 0.9931(4)
C42_6 C 0.2152(4) 0.3050(4) 0.9877(4)
H14_6 H 0.2451 0.2792 0.9857
O53_4 O 0.1180(3) 0.2456(3) 0.7370(3)
O39_6 O 0.1657(3) 0.7016(3) 0.1567(3)
C46_6 C 0.1990(3) 0.7091(3) 0.1152(4)
C47_6 C 0.0778(3) 0.5757(3) 0.0026(5)
C48_6 C 0.1385(3) 0.6447(3) 0.0571(4)
H16_6 H 0.1174 0.6369 0.0895
C49_6 C 0.1846(4) 0.6837(3) 0.0593(3)
C50_6 C 0.1257(3) 0.6189(4) 0.0069(4)
C51_6 C 0.2152(4) 0.6950(4) 0.0123(4)
H17_6 H 0.2451 0.7208 0.0143
O54_4 O 0.1180(3) 0.7544(3) 0.2630(3)
O36_5 O 0.0673(2) 0.5536(3) 0.9564(3)
C52_6 C 0.1589(4) 0.6298(4) 0.9574(4)
H18_6 H 0.1511 0.6110 0.9236
C53_6 C 0.2024(5) 0.6682(5) 0.9600(4)
C54_6 C 0.2382(5) 0.6801(5) 0.9078(4)
O41_6 O 0.2761(5) 0.7185(5) 0.9107(4)
O34_11 O 0.0000 0.5000 0.8541(6)
O34_12 O 1.0000 0.5000 0.8541(6)
Zn10_7 Zn 0.06337(4) -0.0000 0.5000
O34_13 O 0.1459(6) 0.0000 0.5000
O42_4 O 0.0436(3) 0.0673(2) 0.4464(3)
O44_4 O 0.0492(3) 0.0524(3) 0.5650(3)
O37_5 O 0.0492(3) 0.9476(3) 0.4350(3)
O39_7 O 0.1567(3) 0.8343(3) 0.2984(3)
C46_7 C 0.1152(4) 0.8010(3) 0.2909(3)
C47_7 C 0.0026(5) 0.9222(3) 0.4243(3)
C48_7 C 0.0571(4) 0.8615(3) 0.3553(3)
H16_7 H 0.0895 0.8826 0.3631
C49_7 C 0.0593(3) 0.8154(4) 0.3163(3)
C50_7 C 0.0069(4) 0.8743(3) 0.3811(4)
C51_7 C 0.0123(4) 0.7848(4) 0.3050(4)
H17_7 H 0.0143 0.7549 0.2792
Zn10_8 Zn 0.06337(4) 1.0000 0.5000
O29_5 O 0.0436(3) 0.9327(2) 0.5536(3)
O34_14 O 0.1459(6) 1.0000 0.5000
C43_7 C 0.0426(4) 0.8411(4) 0.6298(4)
H15_7 H 0.0764 0.8489 0.6110
C44_7 C 0.0400(4) 0.7976(5) 0.6682(5)
C45_7 C 0.0922(4) 0.7618(5) 0.6801(5)
O35_7 O 0.0893(4) 0.7239(5) 0.7185(5)
Zn12_7 Zn 0.93663(4) 0.0000 0.5000
O36_6 O 0.9564(3) 0.9327(2) 0.4464(3)
C52_7 C 0.9574(4) 0.8411(4) 0.3702(4)
H18_7 H 0.9236 0.8489 0.3890
C53_7 C 0.9600(4) 0.7976(5) 0.3318(5)
C54_7 C 0.9078(4) 0.7618(5) 0.3199(5)
O41_7 O 0.9107(4) 0.7239(5) 0.2815(5)
Zn12_8 Zn 0.93663(4) 1.0000 0.5000
O30_6 O 0.9508(3) 0.9476(3) 0.5650(3)
O32_7 O 0.8433(3) 0.8343(3) 0.7016(3)
C37_7 C 0.8848(4) 0.8010(3) 0.7091(3)
C38_7 C 0.9974(5) 0.9222(3) 0.5757(3)
C39_7 C 0.9429(4) 0.8615(3) 0.6447(3)
H13_7 H 0.9105 0.8826 0.6369
C40_7 C 0.9407(3) 0.8154(4) 0.6837(3)
C41_7 C 0.9931(4) 0.8743(3) 0.6189(4)
C42_7 C 0.9877(4) 0.7848(4) 0.6950(4)
H14_7 H 0.9857 0.7549 0.7208
C52_8 C 0.0426(4) 0.1589(4) 0.3702(4)
H18_8 H 0.0764 0.1511 0.3890
C53_8 C 0.0400(4) 0.2024(5) 0.3318(5)
C54_8 C 0.0922(4) 0.2382(5) 0.3199(5)
O41_8 O 0.0893(4) 0.2761(5) 0.2815(5)
O32_8 O 0.1567(3) 0.1657(3) 0.7016(3)
C37_8 C 0.1152(4) 0.1990(3) 0.7091(3)
C38_8 C 0.0026(5) 0.0778(3) 0.5757(3)
C39_8 C 0.0571(4) 0.1385(3) 0.6447(3)
H13_8 H 0.0895 0.1174 0.6369
C40_8 C 0.0593(3) 0.1846(4) 0.6837(3)
C41_8 C 0.0069(4) 0.1257(3) 0.6189(4)
C42_8 C 0.0123(4) 0.2152(4) 0.6950(4)
H14_8 H 0.0143 0.2451 0.7208
O37_6 O 0.9508(3) 0.0524(3) 0.4350(3)
O39_8 O 0.8433(3) 0.1657(3) 0.2984(3)
C46_8 C 0.8848(4) 0.1990(3) 0.2909(3)
C47_8 C 0.9974(5) 0.0778(3) 0.4243(3)
C48_8 C 0.9429(4) 0.1385(3) 0.3553(3)
H16_8 H 0.9105 0.1174 0.3631
C49_8 C 0.9407(3) 0.1846(4) 0.3163(3)
C50_8 C 0.9931(4) 0.1257(3) 0.3811(4)
C51_8 C 0.9877(4) 0.2152(4) 0.3050(4)
H17_8 H 0.9857 0.2451 0.2792
O29_6 O 0.9564(3) 0.0673(2) 0.5536(3)
O34_15 O 0.8541(6) -0.0000 0.5000
C43_8 C 0.9574(4) 0.1589(4) 0.6298(4)
H15_8 H 0.9236 0.1511 0.6110
C44_8 C 0.9600(4) 0.2024(5) 0.6682(5)
C45_8 C 0.9078(4) 0.2382(5) 0.6801(5)
O35_8 O 0.9107(4) 0.2761(5) 0.7185(5)
O34_16 O 0.8541(6) 1.0000 0.5000
loop_
_geom_bond_atom_site_label_1
_geom_bond_atom_site_label_2
_geom_bond_site_symmetry_1
_geom_bond_site_symmetry_2
Zn1 O1 1_555 1_555
Zn2 O4 1_555 1_555
O1 C2 1_555 1_555
O2 C2 1_555 1_555
O3 C9 1_555 1_555
O4 C1 1_555 1_555
O5 C1 1_555 1_555
O6 Zn1 1_555 1_555
C1 C4 1_555 1_555
C2 C5 1_555 1_555
C3 H1 1_555 1_555
C4 C3 1_555 1_555
C5 C3 1_555 1_555
C6 C4 1_555 1_555
H2 C6 1_555 1_555
C7 C5 1_555 1_555
H3 C7 1_555 1_555
C8 C6 1_555 1_555
C9 C8 1_555 1_555
O7 C9 1_555 1_555
O8 Zn2 1_555 1_555
Zn3 O2 1_555 1_555
O14 Zn3 1_555 1_555
Zn5 O19 1_555 1_555
O16 Zn3 1_555 1_555
O17 Zn1 1_555 1_555
O18 C27 1_555 1_555
O19 C19 1_555 1_555
O20 C19 1_555 1_555
C19 C22 1_555 1_555
C20 O16 1_555 1_555
C21 H7 1_555 1_555
C22 C21 1_555 1_555
C23 C20 1_555 1_555
C24 C22 1_555 1_555
H8 C24 1_555 1_555
C25 C23 1_555 1_555
H9 C25 1_555 1_555
C26 C24 1_555 1_555
C27 C26 1_555 1_555
O21 C27 1_555 1_555
O22 Zn5 1_555 1_555
Zn10 O29 1_555 1_555
Zn8 O8 1_555 1_555
O29 C38 1_555 1_555
O30 C38 1_555 1_555
O31 C45 1_555 1_555
O32 Zn8 1_555 1_555
O33 Zn2 1_555 1_555
O34 Zn10 1_555 1_555
C37 O32 1_555 1_555
C38 C41 1_555 1_555
C39 H13 1_555 1_555
C40 C37 1_555 1_555
C41 C39 1_555 1_555
C42 C40 1_555 1_555
H14 C42 1_555 1_555
C43 C41 1_555 1_555
H15 C43 1_555 1_555
C44 C42 1_555 1_555
C45 C44 1_555 1_555
O35 C45 1_555 1_555
Zn9 O22 1_555 1_555
O36 C47 1_555 1_555
O37 C47 1_555 1_555
O38 C54 1_555 1_555
O39 Zn9 1_555 1_555
O40 Zn5 1_555 1_555
C46 O39 1_555 1_555
C47 C50 1_555 1_555
C48 H16 1_555 1_555
C49 C46 1_555 1_555
C50 C48 1_555 1_555
C51 C49 1_555 1_555
H17 C51 1_555 1_555
C52 C50 1_555 1_555
H18 C52 1_555 1_555
C53 C51 1_555 1_555
C54 C53 1_555 1_555
O41 C54 1_555 1_555
Zn10_2 O37 1_555 1_555
Zn12 O30 1_555 1_555
Zn12_2 O36 1_555 1_555
Zn13 O5 1_555 1_555
Zn14 O20 1_555 1_555
Zn18 O18 1_555 1_555
Zn20 O3 1_555 1_555
Zn21 O38 1_555 1_555
Zn22 O31 1_555 1_555
O44 Zn10 1_555 1_555
O45 Zn9 1_555 1_555
O46 Zn8 1_555 1_555
O47 Zn5 1_555 1_555
O48 Zn2 1_555 1_555
O53 Zn8 1_555 1_555
O54 Zn9 1_555 1_555
C7 C8 1_555 1_555
O8 Zn13 1_555 1_555
O17 C20 1_555 1_555
C21 C23 1_555 1_555
C25 C26 1_555 1_555
O22 Zn14 1_555 1_555
O33 C37 1_555 1_555
C39 C40 1_555 1_555
C43 C44 1_555 1_555
O40 C46 1_555 1_555
C48 C49 1_555 1_555
C52 C53 1_555 1_555
O34_2 Zn10_2 1_555 1_555
O42 Zn10_2 1_555 1_555
O6_2 Zn1_2 1_555 1_555
Zn4 O12 1_555 1_555
O9 Zn3_2 1_555 1_555
O10 Zn1_2 1_555 1_555
O11 C18 1_555 1_555
O12 C10 1_555 1_555
O13 C10 1_555 1_555
O14_2 Zn3_2 1_555 1_555
C10 C13 1_555 1_555
C11 O9 1_555 1_555
C12 H4 1_555 1_555
C13 C12 1_555 1_555
C14 C11 1_555 1_555
C15 C13 1_555 1_555
H5 C15 1_555 1_555
C16 C14 1_555 1_555
H6 C16 1_555 1_555
C17 C15 1_555 1_555
C18 C17 1_555 1_555
O15 C18 1_555 1_555
Zn6 O26 1_555 1_555
O23 Zn1_2 1_555 1_555
O24 Zn3_2 1_555 1_555
O25 C36 1_555 1_555
O26 C28 1_555 1_555
O27 C28 1_555 1_555
C28 C31 1_555 1_555
C29 O23 1_555 1_555
C30 H10 1_555 1_555
C31 C30 1_555 1_555
C32 C29 1_555 1_555
C33 C31 1_555 1_555
H11 C33 1_555 1_555
C34 C32 1_555 1_555
H12 C34 1_555 1_555
C35 C33 1_555 1_555
C36 C35 1_555 1_555
O28 C36 1_555 1_555
Zn15 O27 1_555 1_555
Zn16 O13 1_555 1_555
Zn17 O25 1_555 1_555
Zn19 O11 1_555 1_555
O49 Zn4 1_555 1_555
O50 Zn6 1_555 1_555
O51 Zn4 1_555 1_555
O52 Zn6 1_555 1_555
O55 Zn4 1_555 1_555
O56 Zn6 1_555 1_555
O10 C11 1_555 1_555
C12 C14 1_555 1_555
C16 C17 1_555 1_555
O24 C29 1_555 1_555
C30 C32 1_555 1_555
C34 C35 1_555 1_555
Zn15 O56 1_555 1_555
Zn16 O55 1_555 1_555
Zn8_2 O55 1_555 1_555
O42 C38_2 1_555 1_555
O30_2 C38_2 1_555 1_555
O31_2 C45_2 1_555 1_555
O32_2 Zn8_2 1_555 1_555
C37_2 O32_2 1_555 1_555
C38_2 C41_2 1_555 1_555
C39_2 H13_2 1_555 1_555
C40_2 C37_2 1_555 1_555
C41_2 C39_2 1_555 1_555
C42_2 C40_2 1_555 1_555
H14_2 C42_2 1_555 1_555
C43_2 C41_2 1_555 1_555
H15_2 C43_2 1_555 1_555
C44_2 C42_2 1_555 1_555
C45_2 C44_2 1_555 1_555
O35_2 C45_2 1_555 1_555
Zn9_2 O56 1_555 1_555
O36_2 C47_2 1_555 1_555
O44 C47_2 1_555 1_555
O38_2 C54_2 1_555 1_555
O39_2 Zn9_2 1_555 1_555
C46_2 O39_2 1_555 1_555
C47_2 C50_2 1_555 1_555
C48_2 H16_2 1_555 1_555
C49_2 C46_2 1_555 1_555
C50_2 C48_2 1_555 1_555
C51_2 C49_2 1_555 1_555
H17_2 C51_2 1_555 1_555
C52_2 C50_2 1_555 1_555
H18_2 C52_2 1_555 1_555
C53_2 C51_2 1_555 1_555
C54_2 C53_2 1_555 1_555
O41_2 C54_2 1_555 1_555
Zn12_2 O30_2 1_555 1_555
Zn12 O36_2 1_555 1_555
Zn21_2 O38_2 1_555 1_555
Zn22_2 O31_2 1_555 1_555
O45_2 Zn9_2 1_555 1_555
O46_2 Zn8_2 1_555 1_555
O53_2 Zn8_2 1_555 1_555
O54_2 Zn9_2 1_555 1_555
O51 C37_2 1_555 1_555
C39_2 C40_2 1_555 1_555
C43_2 C44_2 1_555 1_555
O52 C46_2 1_555 1_555
C48_2 C49_2 1_555 1_555
C52_2 C53_2 1_555 1_555
O34_3 Zn12 1_555 1_555
O34_4 Zn12_2 1_555 1_555
Zn10_3 O29_2 1_555 1_555
O29_2 C38_3 1_555 1_555
O30_3 C38_3 1_555 1_555
O31_3 C45_3 1_555 1_555
O32_3 Zn13 1_555 1_555
O34_5 Zn10_3 1_555 1_555
C37_3 O32_3 1_555 1_555
C38_3 C41_3 1_555 1_555
C39_3 H13_3 1_555 1_555
C40_3 C37_3 1_555 1_555
C41_3 C39_3 1_555 1_555
C42_3 C40_3 1_555 1_555
H14_3 C42_3 1_555 1_555
C43_3 C41_3 1_555 1_555
H15_3 C43_3 1_555 1_555
C44_3 C42_3 1_555 1_555
C45_3 C44_3 1_555 1_555
O35_3 C45_3 1_555 1_555
O36_3 C47_3 1_555 1_555
O37_2 C47_3 1_555 1_555
O38_3 C54_3 1_555 1_555
O39_3 Zn15 1_555 1_555
C46_3 O39_3 1_555 1_555
C47_3 C50_3 1_555 1_555
C48_3 H16_3 1_555 1_555
C49_3 C46_3 1_555 1_555
C50_3 C48_3 1_555 1_555
C51_3 C49_3 1_555 1_555
H17_3 C51_3 1_555 1_555
C52_3 C50_3 1_555 1_555
H18_3 C52_3 1_555 1_555
C53_3 C51_3 1_555 1_555
C54_3 C53_3 1_555 1_555
O41_3 C54_3 1_555 1_555
Zn10_4 O37_2 1_555 1_555
Zn12_3 O30_3 1_555 1_555
Zn12_4 O36_3 1_555 1_555
Zn21_3 O38_3 1_555 1_555
Zn22_3 O31_3 1_555 1_555
O44_2 Zn10_3 1_555 1_555
O45_3 Zn15 1_555 1_555
O46_3 Zn13 1_555 1_555
O53 C37_3 1_555 1_555
C39_3 C40_3 1_555 1_555
C43_3 C44_3 1_555 1_555
O54_2 C46_3 1_555 1_555
C48_3 C49_3 1_555 1_555
C52_3 C53_3 1_555 1_555
O34_6 Zn10_4 1_555 1_555
O42_2 Zn10_4 1_555 1_555
Zn12_3 O29_3 1_555 1_555
O29_3 C38_4 1_555 1_555
O44_2 C38_4 1_555 1_555
O31_4 C45_4 1_555 1_555
O32_4 Zn16 1_555 1_555
O34_7 Zn12_3 1_555 1_555
C37_4 O32_4 1_555 1_555
C38_4 C41_4 1_555 1_555
C39_4 H13_4 1_555 1_555
C40_4 C37_4 1_555 1_555
C41_4 C39_4 1_555 1_555
C42_4 C40_4 1_555 1_555
H14_4 C42_4 1_555 1_555
C43_4 C41_4 1_555 1_555
H15_4 C43_4 1_555 1_555
C44_4 C42_4 1_555 1_555
C45_4 C44_4 1_555 1_555
O35_4 C45_4 1_555 1_555
O42_2 C47_4 1_555 1_555
O37_3 C47_4 1_555 1_555
O38_4 C54_4 1_555 1_555
O39_4 Zn14 1_555 1_555
C46_4 O39_4 1_555 1_555
C47_4 C50_4 1_555 1_555
C48_4 H16_4 1_555 1_555
C49_4 C46_4 1_555 1_555
C50_4 C48_4 1_555 1_555
C51_4 C49_4 1_555 1_555
H17_4 C51_4 1_555 1_555
C52_4 C50_4 1_555 1_555
H18_4 C52_4 1_555 1_555
C53_4 C51_4 1_555 1_555
C54_4 C53_4 1_555 1_555
O41_4 C54_4 1_555 1_555
Zn12_4 O37_3 1_555 1_555
Zn21_4 O38_4 1_555 1_555
Zn22_4 O31_4 1_555 1_555
O45_4 Zn14 1_555 1_555
O46_4 Zn16 1_555 1_555
O53_2 C37_4 1_555 1_555
C39_4 C40_4 1_555 1_555
C43_4 C44_4 1_555 1_555
O54 C46_4 1_555 1_555
C48_4 C49_4 1_555 1_555
C52_4 C53_4 1_555 1_555
O34_8 Zn12_4 1_555 1_555
O34_9 Zn10_5 1_555 1_555
O42_3 Zn10_5 1_555 1_555
O44_3 Zn10_5 1_555 1_555
O6_3 Zn1_3 1_555 1_555
Zn22_3 O19_2 1_555 1_555
O17_2 Zn1_3 1_555 1_555
O19_2 C19_2 1_555 1_555
O20_2 C19_2 1_555 1_555
C19_2 C22_2 1_555 1_555
C21_2 H7_2 1_555 1_555
C22_2 C21_2 1_555 1_555
C23_2 C20_2 1_555 1_555
C24_2 C22_2 1_555 1_555
H8_2 C24_2 1_555 1_555
O22_2 Zn22_3 1_555 1_555
O23_2 Zn1_3 1_555 1_555
O46 C36_2 1_555 1_555
H12_2 C34_2 1_555 1_555
C36_2 C35_2 1_555 1_555
O28_2 C36_2 1_555 1_555
Zn19 O22_2 1_555 1_555
O37_4 C47_5 1_555 1_555
O39_5 Zn19 1_555 1_555
O40_2 Zn22_3 1_555 1_555
C46_5 O39_5 1_555 1_555
C47_5 C50_5 1_555 1_555
C48_5 H16_5 1_555 1_555
C49_5 C46_5 1_555 1_555
C50_5 C48_5 1_555 1_555
C51_5 C49_5 1_555 1_555
H17_5 C51_5 1_555 1_555
Zn10_6 O37_4 1_555 1_555
Zn21_2 O20_2 1_555 1_555
O54_3 Zn19 1_555 1_555
O17_2 C20_2 1_555 1_555
C21_2 C23_2 1_555 1_555
O22_2 Zn21_2 1_555 1_555
C34_2 C35_2 1_555 1_555
O40_2 C46_5 1_555 1_555
C48_5 C49_5 1_555 1_555
Zn1_4 O1_2 1_555 1_555
O45_2 C9_2 1_555 1_555
O6_4 Zn1_4 1_555 1_555
H3_2 C7_2 1_555 1_555
C9_2 C8_2 1_555 1_555
O7_2 C9_2 1_555 1_555
Zn21_3 O12_2 1_555 1_555
O10_2 Zn1_4 1_555 1_555
O12_2 C10_2 1_555 1_555
O13_2 C10_2 1_555 1_555
C10_2 C13_2 1_555 1_555
C12_2 H4_2 1_555 1_555
C13_2 C12_2 1_555 1_555
C14_2 C11_2 1_555 1_555
C15_2 C13_2 1_555 1_555
H5_2 C15_2 1_555 1_555
O45_3 C54_5 1_555 1_555
H18_5 C52_5 1_555 1_555
C54_5 C53_5 1_555 1_555
O41_5 C54_5 1_555 1_555
Zn12_6 O36_4 1_555 1_555
Zn22 O13_2 1_555 1_555
O51_2 Zn21_3 1_555 1_555
O55_2 Zn21_3 1_555 1_555
C7_2 C8_2 1_555 1_555
O10_2 C11_2 1_555 1_555
C12_2 C14_2 1_555 1_555
C52_5 C53_5 1_555 1_555
Zn22 O55_2 1_555 1_555
O14_3 Zn3_3 1_555 1_555
O16_2 Zn3_3 1_555 1_555
O46_2 C27_2 1_555 1_555
H9_2 C25_2 1_555 1_555
C27_2 C26_2 1_555 1_555
O21_2 C27_2 1_555 1_555
Zn22_4 O26_2 1_555 1_555
O24_2 Zn3_3 1_555 1_555
O26_2 C28_2 1_555 1_555
O27_2 C28_2 1_555 1_555
C28_2 C31_2 1_555 1_555
C30_2 H10_2 1_555 1_555
C31_2 C30_2 1_555 1_555
C32_2 C29_2 1_555 1_555
C33_2 C31_2 1_555 1_555
H11_2 C33_2 1_555 1_555
Zn10_6 O29_4 1_555 1_555
O46_4 C45_5 1_555 1_555
O34_10 Zn10_6 1_555 1_555
H15_5 C43_5 1_555 1_555
C45_5 C44_5 1_555 1_555
O35_5 C45_5 1_555 1_555
Zn21 O27_2 1_555 1_555
O52_2 Zn22_4 1_555 1_555
O56_2 Zn22_4 1_555 1_555
C25_2 C26_2 1_555 1_555
O24_2 C29_2 1_555 1_555
C30_2 C32_2 1_555 1_555
C43_5 C44_5 1_555 1_555
Zn21 O56_2 1_555 1_555
Zn21_4 O4_2 1_555 1_555
O2_2 C2_2 1_555 1_555
O4_2 C1_2 1_555 1_555
O5_2 C1_2 1_555 1_555
C1_2 C4_2 1_555 1_555
C2_2 C5_2 1_555 1_555
C3_2 H1_2 1_555 1_555
C4_2 C3_2 1_555 1_555
C5_2 C3_2 1_555 1_555
C6_2 C4_2 1_555 1_555
H2_2 C6_2 1_555 1_555
O8_2 Zn21_4 1_555 1_555
Zn3_4 O2_2 1_555 1_555
O9_2 Zn3_4 1_555 1_555
O45 C18_2 1_555 1_555
O14_4 Zn3_4 1_555 1_555
H6_2 C16_2 1_555 1_555
C18_2 C17_2 1_555 1_555
O15_2 C18_2 1_555 1_555
Zn17 O8_2 1_555 1_555
O30_4 C38_5 1_555 1_555
O32_5 Zn17 1_555 1_555
O33_2 Zn21_4 1_555 1_555
C37_5 O32_5 1_555 1_555
C38_5 C41_5 1_555 1_555
C39_5 H13_5 1_555 1_555
C40_5 C37_5 1_555 1_555
C41_5 C39_5 1_555 1_555
C42_5 C40_5 1_555 1_555
H14_5 C42_5 1_555 1_555
Zn12_6 O30_4 1_555 1_555
Zn22_2 O5_2 1_555 1_555
O53_3 Zn17 1_555 1_555
O8_2 Zn22_2 1_555 1_555
C16_2 C17_2 1_555 1_555
O33_2 C37_5 1_555 1_555
C39_5 C40_5 1_555 1_555
O46_3 C45_6 1_555 1_555
H15_6 C43_6 1_555 1_555
C45_6 C44_6 1_555 1_555
O35_6 C45_6 1_555 1_555
C43_6 C44_6 1_555 1_555
Zn18 O55_2 1_555 1_555
O30_5 C38_6 1_555 1_555
O32_6 Zn18 1_555 1_555
C37_6 O32_6 1_555 1_555
C38_6 C41_6 1_555 1_555
C39_6 H13_6 1_555 1_555
C40_6 C37_6 1_555 1_555
C41_6 C39_6 1_555 1_555
C42_6 C40_6 1_555 1_555
H14_6 C42_6 1_555 1_555
Zn12_5 O30_5 1_555 1_555
O53_4 Zn18 1_555 1_555
O51_2 C37_6 1_555 1_555
C39_6 C40_6 1_555 1_555
Zn20 O56_2 1_555 1_555
O44_3 C47_6 1_555 1_555
O39_6 Zn20 1_555 1_555
C46_6 O39_6 1_555 1_555
C47_6 C50_6 1_555 1_555
C48_6 H16_6 1_555 1_555
C49_6 C46_6 1_555 1_555
C50_6 C48_6 1_555 1_555
C51_6 C49_6 1_555 1_555
H17_6 C51_6 1_555 1_555
O54_4 Zn20 1_555 1_555
O52_2 C46_6 1_555 1_555
C48_6 C49_6 1_555 1_555
O45_4 C54_6 1_555 1_555
H18_6 C52_6 1_555 1_555
C54_6 C53_6 1_555 1_555
O41_6 C54_6 1_555 1_555
Zn12_5 O36_5 1_555 1_555
C52_6 C53_6 1_555 1_555
O34_11 Zn12_5 1_555 1_555
O34_12 Zn12_6 1_555 1_555
O34_13 Zn10_7 1_555 1_555
O42_4 Zn10_7 1_555 1_555
O44_4 Zn10_7 1_555 1_555
O37_5 C47_7 1_555 1_555
O39_7 Zn21 1_555 1_555
C46_7 O39_7 1_555 1_555
C47_7 C50_7 1_555 1_555
C48_7 H16_7 1_555 1_555
C49_7 C46_7 1_555 1_555
C50_7 C48_7 1_555 1_555
C51_7 C49_7 1_555 1_555
H17_7 C51_7 1_555 1_555
Zn10_8 O37_5 1_555 1_555
O54_4 C46_7 1_555 1_555
C48_7 C49_7 1_555 1_555
Zn10_8 O29_5 1_555 1_555
O47 C45_7 1_555 1_555
O34_14 Zn10_8 1_555 1_555
H15_7 C43_7 1_555 1_555
C45_7 C44_7 1_555 1_555
O35_7 C45_7 1_555 1_555
C43_7 C44_7 1_555 1_555
O49 C54_7 1_555 1_555
H18_7 C52_7 1_555 1_555
C54_7 C53_7 1_555 1_555
O41_7 C54_7 1_555 1_555
Zn12_8 O36_6 1_555 1_555
C52_7 C53_7 1_555 1_555
O30_6 C38_7 1_555 1_555
O32_7 Zn22_2 1_555 1_555
C37_7 O32_7 1_555 1_555
C38_7 C41_7 1_555 1_555
C39_7 H13_7 1_555 1_555
C40_7 C37_7 1_555 1_555
C41_7 C39_7 1_555 1_555
C42_7 C40_7 1_555 1_555
H14_7 C42_7 1_555 1_555
Zn12_8 O30_6 1_555 1_555
O53_3 C37_7 1_555 1_555
C39_7 C40_7 1_555 1_555
O48 C54_8 1_555 1_555
H18_8 C52_8 1_555 1_555
C54_8 C53_8 1_555 1_555
O41_8 C54_8 1_555 1_555
C52_8 C53_8 1_555 1_555
O44_4 C38_8 1_555 1_555
O32_8 Zn22 1_555 1_555
C37_8 O32_8 1_555 1_555
C38_8 C41_8 1_555 1_555
C39_8 H13_8 1_555 1_555
C40_8 C37_8 1_555 1_555
C41_8 C39_8 1_555 1_555
C42_8 C40_8 1_555 1_555
H14_8 C42_8 1_555 1_555
O53_4 C37_8 1_555 1_555
C39_8 C40_8 1_555 1_555
O37_6 C47_8 1_555 1_555
O39_8 Zn21_2 1_555 1_555
C46_8 O39_8 1_555 1_555
C47_8 C50_8 1_555 1_555
C48_8 H16_8 1_555 1_555
C49_8 C46_8 1_555 1_555
C50_8 C48_8 1_555 1_555
C51_8 C49_8 1_555 1_555
H17_8 C51_8 1_555 1_555
Zn12_7 O37_6 1_555 1_555
O54_3 C46_8 1_555 1_555
C48_8 C49_8 1_555 1_555
Zn12_7 O29_6 1_555 1_555
O50 C45_8 1_555 1_555
O34_15 Zn12_7 1_555 1_555
H15_8 C43_8 1_555 1_555
C45_8 C44_8 1_555 1_555
O35_8 C45_8 1_555 1_555
C43_8 C44_8 1_555 1_555
O34_16 Zn12_8 1_555 1_555

#END
