
###############################################################################
#
# This file contains modified crystal structure data generated from the
# MOF subset of the Cambridge Structural Database (CSD) v543 
# hosted by the Cambridge Crystallographic Data Centre (CCDC).
#
# This work is licensed under the Creative Commons
# Attribution-NonCommercial-ShareAlike 4.0 International License.
# To view a copy of this license, visit
# http://creativecommons.org/licenses/by-nc-sa/4.0/
# or send a letter to
# Creative Commons, PO Box 1866, Mountain View, CA 94042, USA.
#
# CIF created using the CSD Python API on 29 September 2022
# The structure has been converted into the P1 space group
# The structure has a 3D framework
# The original CSD entry NIWZIE14 is in the hexagonal crystal system
# The original CSD entry NIWZIE14 is in a Sohncke space group
# The framework has been calculated to contain at least 10.0% void space
# The void calculation uses a probe of radius 1.32A, grid spacing 0.4
# The framework is charged, counterions have been retained in the structure
#
###############################################################################

data_NIWZIE14
_chemical_formula_moiety         '(C15 H15 Mg2 O12 1-)n'
_symmetry_cell_setting           triclinic
_symmetry_space_group_name_H-M   'P 1'
_symmetry_Int_Tables_number      1
_space_group_name_Hall           'P 1'
loop_
_symmetry_equiv_pos_site_id
_symmetry_equiv_pos_as_xyz
1 x,y,z
_cell_length_a                   7.2680(2)
_cell_length_b                   7.2680(2)
_cell_length_c                   8.2104(2)
_cell_angle_alpha                90
_cell_angle_beta                 90
_cell_angle_gamma                120
_cell_volume                     375.599
loop_
_atom_site_label
_atom_site_type_symbol
_atom_site_fract_x
_atom_site_fract_y
_atom_site_fract_z
C1 C 0.0000 0.4399(2) 0.0000
H1 H 0.0000 0.5679 0.0000
O2 O 0.10935(12) 0.41957(18) 0.10595(9)
Mg4 Mg 0.3333 0.6667 0.2500
C1_2 C -0.0000 0.4399(2) 1.0000
H1_2 H -0.0000 0.5679 1.0000
C1_3 C 1.0000 0.4399(2) 0.0000
H1_3 H 1.0000 0.5679 0.0000
C2 C 0.5601(2) 0.5601(2) 0.0000
H2 H 0.4321 0.4321 0.0000
O4 O 0.58043(18) 0.68978(13) 0.10595(9)
C3 C 0.4399(2) -0.0000 0.0000
H3 H 0.5679 -0.0000 0.0000
Mg1 Mg 0.6667 0.3333 0.7500
O1 O 0.89065(12) 0.31022(13) 0.89405(9)
C1_4 C 1.0000 0.4399(2) 1.0000
H1_4 H 1.0000 0.5679 1.0000
O3 O 0.68978(13) 0.58043(18) 0.89405(9)
C2_2 C 0.5601(2) 0.5601(2) 1.0000
H2_2 H 0.4321 0.4321 1.0000
O5 O 0.41957(18) 0.10935(12) 0.89405(9)
C3_2 C 0.4399(2) -0.0000 1.0000
H3_2 H 0.5679 -0.0000 1.0000
O7 O 0.68978(13) 0.10935(12) 0.60595(9)
O8 O 0.41957(18) 0.31022(13) 0.60595(9)
O9 O 0.89065(12) 0.58043(18) 0.60595(9)
C3_3 C 0.4399(2) 1.0000 0.0000
H3_3 H 0.5679 1.0000 0.0000
O6 O 0.31022(13) 0.89065(12) 0.10595(9)
C3_4 C 0.4399(2) 1.0000 1.0000
H3_4 H 0.5679 1.0000 1.0000
C3_5 C 0.5601(2) 0.0000 0.5000
H3_5 H 0.4321 0.0000 0.5000
O1_2 O 0.10935(12) 0.68978(13) 0.39405(9)
C1_5 C -0.0000 0.5601(2) 0.5000
H1_5 H -0.0000 0.4321 0.5000
O3_2 O 0.31022(13) 0.41957(18) 0.39405(9)
C2_3 C 0.4399(2) 0.4399(2) 0.5000
H2_3 H 0.5679 0.5679 0.5000
O5_2 O 0.58043(18) 0.89065(12) 0.39405(9)
C3_6 C 0.5601(2) 1.0000 0.5000
H3_6 H 0.4321 1.0000 0.5000
C1_6 C 1.0000 0.5601(2) 0.5000
H1_6 H 1.0000 0.4321 0.5000
loop_
_geom_bond_atom_site_label_1
_geom_bond_atom_site_label_2
_geom_bond_site_symmetry_1
_geom_bond_site_symmetry_2
C1 H1 1_555 1_555
O2 C1 1_555 1_555
Mg4 O2 1_555 1_555
C1_2 H1_2 1_555 1_555
C1_3 H1_3 1_555 1_555
H2 C2 1_555 1_555
O4 C2 1_555 1_555
H3 C3 1_555 1_555
Mg4 O4 1_555 1_555
Mg1 O1 1_555 1_555
O1 C1_4 1_555 1_555
C1_4 H1_4 1_555 1_555
O3 Mg1 1_555 1_555
C2_2 O3 1_555 1_555
H2_2 C2_2 1_555 1_555
O5 Mg1 1_555 1_555
C3_2 O5 1_555 1_555
H3_2 C3_2 1_555 1_555
O7 Mg1 1_555 1_555
O8 Mg1 1_555 1_555
O9 Mg1 1_555 1_555
H3_3 C3_3 1_555 1_555
O6 C3_3 1_555 1_555
Mg4 O6 1_555 1_555
H3_4 C3_4 1_555 1_555
H3_5 C3_5 1_555 1_555
O7 C3_5 1_555 1_555
Mg4 O1_2 1_555 1_555
O1_2 C1_5 1_555 1_555
C1_5 H1_5 1_555 1_555
O3_2 Mg4 1_555 1_555
C2_3 O3_2 1_555 1_555
H2_3 C2_3 1_555 1_555
O8 C2_3 1_555 1_555
O5_2 Mg4 1_555 1_555
C3_6 O5_2 1_555 1_555
H3_6 C3_6 1_555 1_555
C1_6 H1_6 1_555 1_555
O9 C1_6 1_555 1_555

#END
