
###############################################################################
#
# This file contains modified crystal structure data generated from the
# MOF subset of the Cambridge Structural Database (CSD) v543 
# hosted by the Cambridge Crystallographic Data Centre (CCDC).
#
# This work is licensed under the Creative Commons
# Attribution-NonCommercial-ShareAlike 4.0 International License.
# To view a copy of this license, visit
# http://creativecommons.org/licenses/by-nc-sa/4.0/
# or send a letter to
# Creative Commons, PO Box 1866, Mountain View, CA 94042, USA.
#
# CIF created using the CSD Python API on 29 September 2022
# The structure has been converted into the P1 space group
# The structure has a 3D framework
# The original CSD entry NIYJAI is in the monoclinic crystal system
# The framework has been calculated to contain at least 10.0% void space
# The void calculation uses a probe of radius 1.32A, grid spacing 0.4
#
###############################################################################

data_NIYJAI
_chemical_formula_moiety         '(C256 H272 Br8 Cd6 N16 O16 S20)n'
_symmetry_cell_setting           triclinic
_symmetry_space_group_name_H-M   'P 1'
_symmetry_Int_Tables_number      1
_space_group_name_Hall           'P 1'
loop_
_symmetry_equiv_pos_site_id
_symmetry_equiv_pos_as_xyz
1 x,y,z
_cell_length_a                   27.1683(11)
_cell_length_b                   15.3846(5)
_cell_length_c                   19.2713(9)
_cell_angle_alpha                90
_cell_angle_beta                 98.162(2)
_cell_angle_gamma                90
_cell_volume                     7973.3
loop_
_atom_site_label
_atom_site_type_symbol
_atom_site_fract_x
_atom_site_fract_y
_atom_site_fract_z
Cd1 Cd 0.2500 0.7500 0.5000
Br1 Br 0.18388(2) 0.64376(4) 0.42336(3)
S1 S 0.5000 0.88248(11) 0.2500
C1 C 0.53018(16) 0.8135(3) 0.3163(3)
C2 C 0.50538(16) 0.7491(3) 0.3487(3)
C3 C 0.53214(17) 0.7008(3) 0.4027(3)
C4 C 0.58149(17) 0.7226(3) 0.4275(3)
H1 H 0.5993 0.6895 0.4645
C5 C 0.60506(17) 0.7921(3) 0.3991(3)
C6 C 0.57943(17) 0.8344(3) 0.3425(3)
H2 H 0.5956 0.8792 0.3204
O1 O 0.45509(12) 0.7359(2) 0.3299(2)
C7 C 0.42888(19) 0.7922(4) 0.3731(3)
H3 H 0.4360 0.8538 0.3635
H4 H 0.4404 0.7807 0.4233
C8 C 0.37373(18) 0.7756(4) 0.3570(3)
C9 C 0.34609(18) 0.7747(4) 0.4116(3)
H5 H 0.3630 0.7806 0.4580
N1 N 0.29627(16) 0.7657(3) 0.4027(3)
C10 C 0.2733(2) 0.7568(4) 0.3376(4)
H6 H 0.2382 0.7503 0.3303
C11 C 0.2982(2) 0.7566(6) 0.2802(4)
H7 H 0.2805 0.7508 0.2343
C12 C 0.3497(2) 0.7648(5) 0.2904(4)
H8 H 0.3678 0.7629 0.2517
C13 C 0.65810(19) 0.8188(4) 0.4305(3)
C14 C 0.6933(2) 0.7430(4) 0.4247(4)
H9 H 0.7275 0.7613 0.4413
H10 H 0.6908 0.7245 0.3756
H11 H 0.6844 0.6945 0.4534
C15 C 0.6768(2) 0.8973(4) 0.3919(4)
H12 H 0.6540 0.9463 0.3937
H13 H 0.6782 0.8817 0.3430
H14 H 0.7100 0.9137 0.4147
C16 C 0.6586(3) 0.8439(5) 0.5078(4)
H15 H 0.6437 0.7970 0.5322
H16 H 0.6395 0.8975 0.5106
H17 H 0.6930 0.8531 0.5298
S2 S 0.50367(5) 0.62185(9) 0.45109(7)
C17 C 0.47130(17) 0.5506(3) 0.3877(3)
C18 C 0.49685(17) 0.4967(3) 0.3474(3)
C19 C 0.46976(18) 0.4367(3) 0.3021(3)
C20 C 0.41910(18) 0.4283(3) 0.3012(3)
H18 H 0.4013 0.3875 0.2702
C21 C 0.39324(17) 0.4782(3) 0.3446(3)
C22 C 0.42005(17) 0.5412(3) 0.3857(3)
H19 H 0.4030 0.5790 0.4132
O2 O 0.54803(12) 0.5009(2) 0.3523(2)
C23 C 0.57046(19) 0.4376(4) 0.4017(3)
H20 H 0.5594 0.3787 0.3859
H21 H 0.5598 0.4481 0.4480
C24 C 0.62610(18) 0.4431(4) 0.4082(3)
C25 C 0.65373(19) 0.3726(4) 0.4343(3)
H22 H 0.6365 0.3207 0.4425
N2 N 0.70376(16) 0.3724(3) 0.4491(3)
C26 C 0.72732(19) 0.4449(4) 0.4340(3)
H23 H 0.7626 0.4466 0.4442
C27 C 0.7029(2) 0.5168(4) 0.4045(4)
H24 H 0.7211 0.5660 0.3926
C28 C 0.6513(2) 0.5168(4) 0.3922(4)
H25 H 0.6336 0.5666 0.3732
C29 C 0.3379(3) 0.4624(8) 0.3481(6)
C30 C 0.3350(3) 0.3907(8) 0.4025(6)
H26 H 0.3534 0.4087 0.4476
H27 H 0.3495 0.3371 0.3868
H28 H 0.3001 0.3804 0.4078
C31 C 0.3115(3) 0.4254(8) 0.2832(6)
H29 H 0.3255 0.3682 0.2750
H30 H 0.3152 0.4640 0.2439
H31 H 0.2761 0.4192 0.2875
C32 C 0.3121(3) 0.5377(8) 0.3760(6)
H32 H 0.3201 0.5911 0.3521
H33 H 0.3231 0.5435 0.4264
H34 H 0.2761 0.5281 0.3677
S3 S 0.5000 0.36429(12) 0.2500
C33 C 0.46982(16) 0.8135(3) 0.1837(3)
C34 C 0.49462(16) 0.7491(3) 0.1513(3)
C35 C 0.46786(17) 0.7008(3) 0.0973(3)
C36 C 0.41851(17) 0.7226(3) 0.0725(3)
H35 H 0.4007 0.6895 0.0355
C37 C 0.39494(17) 0.7921(3) 0.1009(3)
C38 C 0.42057(17) 0.8344(3) 0.1575(3)
H36 H 0.4044 0.8792 0.1796
O3 O 0.54491(12) 0.7359(2) 0.1701(2)
C39 C 0.57112(19) 0.7922(4) 0.1269(3)
H37 H 0.5640 0.8538 0.1365
H38 H 0.5596 0.7807 0.0767
C40 C 0.62627(18) 0.7756(4) 0.1430(3)
C41 C 0.65391(18) 0.7747(4) 0.0884(3)
H39 H 0.6370 0.7806 0.0420
N3 N 0.70373(16) 0.7657(3) 0.0973(3)
C42 C 0.7267(2) 0.7568(4) 0.1624(4)
H40 H 0.7618 0.7503 0.1697
C43 C 0.7018(2) 0.7566(6) 0.2198(4)
H41 H 0.7195 0.7508 0.2657
C44 C 0.6503(2) 0.7648(5) 0.2096(4)
H42 H 0.6322 0.7629 0.2483
C45 C 0.34190(19) 0.8188(4) 0.0695(3)
C46 C 0.3067(2) 0.7430(4) 0.0753(4)
H43 H 0.2725 0.7613 0.0587
H44 H 0.3092 0.7245 0.1244
H45 H 0.3156 0.6945 0.0466
C47 C 0.3232(2) 0.8973(4) 0.1081(4)
H46 H 0.3460 0.9463 0.1063
H47 H 0.3218 0.8817 0.1570
H48 H 0.2900 0.9137 0.0853
S4 S 0.49633(5) 0.62185(9) 0.04891(7)
C49 C 0.52870(17) 0.5506(3) 0.1123(3)
C50 C 0.50315(17) 0.4967(3) 0.1526(3)
C51 C 0.53024(18) 0.4367(3) 0.1979(3)
C52 C 0.58090(18) 0.4283(3) 0.1988(3)
H52 H 0.5987 0.3875 0.2298
C53 C 0.60676(17) 0.4782(3) 0.1554(3)
C54 C 0.57995(17) 0.5412(3) 0.1143(3)
H53 H 0.5970 0.5790 0.0868
O4 O 0.45197(12) 0.5009(2) 0.1477(2)
C55 C 0.42954(19) 0.4376(4) 0.0983(3)
H54 H 0.4406 0.3787 0.1141
H55 H 0.4402 0.4481 0.0520
C56 C 0.37390(18) 0.4431(4) 0.0918(3)
C57 C 0.34627(19) 0.3726(4) 0.0657(3)
H56 H 0.3635 0.3207 0.0575
N4 N 0.29624(16) 0.3724(3) 0.0509(3)
C58 C 0.27268(19) 0.4449(4) 0.0660(3)
H57 H 0.2374 0.4466 0.0558
C59 C 0.2971(2) 0.5168(4) 0.0955(4)
H58 H 0.2789 0.5660 0.1074
C60 C 0.3487(2) 0.5168(4) 0.1078(4)
H59 H 0.3664 0.5666 0.1268
C61 C 0.6621(3) 0.4624(8) 0.1519(6)
C62 C 0.6650(3) 0.3907(8) 0.0975(6)
H60 H 0.6466 0.4087 0.0524
H61 H 0.6505 0.3371 0.1132
H62 H 0.6999 0.3804 0.0922
C63 C 0.6885(3) 0.4254(8) 0.2168(6)
H63 H 0.6745 0.3682 0.2250
H64 H 0.6848 0.4640 0.2561
H65 H 0.7239 0.4192 0.2125
C64 C 0.6879(3) 0.5377(8) 0.1240(6)
H66 H 0.6799 0.5911 0.1479
H67 H 0.6769 0.5435 0.0736
H68 H 0.7239 0.5281 0.1323
Br2 Br 0.31612(2) 0.85624(4) 0.57664(3)
Cd2 Cd 0.7500 0.7500 0.0000
Cd3 Cd 0.7500 0.2500 0.5000
Cd4 Cd 0.2500 0.2500 0.0000
N5 N 0.20373(16) 0.7343(3) 0.5973(3)
N6 N 0.20376(16) 0.8724(3) 0.4491(3)
N7 N 0.29624(16) 0.6276(3) 0.5509(3)
C48 C 0.3414(3) 0.8439(5) 0.9922(4)
H49 H 0.3563 0.7970 0.9678
H50 H 0.3605 0.8975 0.9894
H51 H 0.3070 0.8531 0.9702
Cd2_2 Cd 0.7500 0.7500 1.0000
Cd4_2 Cd 0.2500 0.2500 1.0000
Br1_2 Br 0.81612(2) 0.64376(4) 0.07664(3)
N6_2 N 0.79624(16) 0.8724(3) 0.0509(3)
Br2_2 Br 0.68388(2) 0.85624(4) 0.92336(3)
N5_2 N 0.79627(16) 0.7343(3) 0.9027(3)
N7_2 N 0.70376(16) 0.6276(3) 0.9491(3)
S1_2 S -0.0000 0.38248(11) 0.2500
C1_2 C 0.03018(16) 0.3135(3) 0.3163(3)
C2_2 C 0.00538(16) 0.2491(3) 0.3487(3)
C3_2 C 0.03214(17) 0.2008(3) 0.4027(3)
C4_2 C 0.08149(17) 0.2226(3) 0.4275(3)
H1_2 H 0.0993 0.1895 0.4645
C5_2 C 0.10506(17) 0.2921(3) 0.3991(3)
C6_2 C 0.07943(17) 0.3344(3) 0.3425(3)
H2_2 H 0.0956 0.3792 0.3204
C13_2 C 0.15810(19) 0.3188(4) 0.4305(3)
C14_2 C 0.1933(2) 0.2430(4) 0.4247(4)
H9_2 H 0.2275 0.2613 0.4413
H10_2 H 0.1908 0.2245 0.3756
H11_2 H 0.1844 0.1945 0.4534
C15_2 C 0.1768(2) 0.3973(4) 0.3919(4)
H12_2 H 0.1540 0.4463 0.3937
H13_2 H 0.1782 0.3817 0.3430
H14_2 H 0.2100 0.4137 0.4147
C16_2 C 0.1586(3) 0.3439(5) 0.5078(4)
H15_2 H 0.1437 0.2970 0.5322
H16_2 H 0.1395 0.3975 0.5106
H17_2 H 0.1930 0.3531 0.5298
S2_2 S 0.00367(5) 0.12185(9) 0.45109(7)
O2_2 O 0.04803(12) 0.0009(2) 0.3523(2)
C27_2 C 0.2029(2) 0.0168(4) 0.4045(4)
H24_2 H 0.2211 0.0660 0.3926
C28_2 C 0.1513(2) 0.0168(4) 0.3922(4)
H25_2 H 0.1336 0.0666 0.3732
O3_2 O 0.04491(12) 0.2359(2) 0.1701(2)
C39_2 C 0.07112(19) 0.2922(4) 0.1269(3)
H37_2 H 0.0640 0.3538 0.1365
H38_2 H 0.0596 0.2807 0.0767
C40_2 C 0.12627(18) 0.2756(4) 0.1430(3)
C41_2 C 0.15391(18) 0.2747(4) 0.0884(3)
H39_2 H 0.1370 0.2806 0.0420
N3_2 N 0.20373(16) 0.2657(3) 0.0973(3)
C42_2 C 0.2267(2) 0.2568(4) 0.1624(4)
H40_2 H 0.2618 0.2503 0.1697
C43_2 C 0.2018(2) 0.2566(6) 0.2198(4)
H41_2 H 0.2195 0.2508 0.2657
C44_2 C 0.1503(2) 0.2648(5) 0.2096(4)
H42_2 H 0.1322 0.2629 0.2483
C49_2 C 0.02870(17) 0.0506(3) 0.1123(3)
C54_2 C 0.07995(17) 0.0412(3) 0.1143(3)
H53_2 H 0.0970 0.0790 0.0868
C64_2 C 0.1879(3) 0.0377(8) 0.1240(6)
H66_2 H 0.1799 0.0911 0.1479
H67_2 H 0.1769 0.0435 0.0736
H68_2 H 0.2239 0.0281 0.1323
C23_2 C 0.07046(19) 0.9376(4) 0.4017(3)
H20_2 H 0.0594 0.8787 0.3859
H21_2 H 0.0598 0.9481 0.4480
C24_2 C 0.12610(18) 0.9431(4) 0.4082(3)
C25_2 C 0.15373(19) 0.8726(4) 0.4343(3)
H22_2 H 0.1365 0.8207 0.4425
C26_2 C 0.22732(19) 0.9449(4) 0.4340(3)
H23_2 H 0.2626 0.9466 0.4442
S3_2 S 0.0000 0.86429(12) 0.2500
C50_2 C 0.00315(17) 0.9967(3) 0.1526(3)
C51_2 C 0.03024(18) 0.9367(3) 0.1979(3)
C52_2 C 0.08090(18) 0.9283(3) 0.1988(3)
H52_2 H 0.0987 0.8875 0.2298
C53_2 C 0.10676(17) 0.9782(3) 0.1554(3)
C61_2 C 0.1621(3) 0.9624(8) 0.1519(6)
C62_2 C 0.1650(3) 0.8907(8) 0.0975(6)
H60_2 H 0.1466 0.9087 0.0524
H61_2 H 0.1505 0.8371 0.1132
H62_2 H 0.1999 0.8804 0.0922
C63_2 C 0.1885(3) 0.9254(8) 0.2168(6)
H63_2 H 0.1745 0.8682 0.2250
H64_2 H 0.1848 0.9640 0.2561
H65_2 H 0.2239 0.9192 0.2125
Br1_3 Br 0.68388(2) 0.14376(4) 0.42336(3)
S1_3 S 1.0000 0.38248(11) 0.2500
O1_2 O 0.95509(12) 0.2359(2) 0.3299(2)
C7_2 C 0.92888(19) 0.2922(4) 0.3731(3)
H3_2 H 0.9360 0.3538 0.3635
H4_2 H 0.9404 0.2807 0.4233
C8_2 C 0.87373(18) 0.2756(4) 0.3570(3)
C9_2 C 0.84609(18) 0.2747(4) 0.4116(3)
H5_2 H 0.8630 0.2806 0.4580
N1_2 N 0.79627(16) 0.2657(3) 0.4027(3)
C10_2 C 0.7733(2) 0.2568(4) 0.3376(4)
H6_2 H 0.7382 0.2503 0.3303
C11_2 C 0.7982(2) 0.2566(6) 0.2802(4)
H7_2 H 0.7805 0.2508 0.2343
C12_2 C 0.8497(2) 0.2648(5) 0.2904(4)
H8_2 H 0.8678 0.2629 0.2517
C17_2 C 0.97130(17) 0.0506(3) 0.3877(3)
C22_2 C 0.92005(17) 0.0412(3) 0.3857(3)
H19_2 H 0.9030 0.0790 0.4132
C32_2 C 0.8121(3) 0.0377(8) 0.3760(6)
H32_2 H 0.8201 0.0911 0.3521
H33_2 H 0.8231 0.0435 0.4264
H34_2 H 0.7761 0.0281 0.3677
C33_2 C 0.96982(16) 0.3135(3) 0.1837(3)
C34_2 C 0.99462(16) 0.2491(3) 0.1513(3)
C35_2 C 0.96786(17) 0.2008(3) 0.0973(3)
C36_2 C 0.91851(17) 0.2226(3) 0.0725(3)
H35_2 H 0.9007 0.1895 0.0355
C37_2 C 0.89494(17) 0.2921(3) 0.1009(3)
C38_2 C 0.92057(17) 0.3344(3) 0.1575(3)
H36_2 H 0.9044 0.3792 0.1796
C45_2 C 0.84190(19) 0.3188(4) 0.0695(3)
C46_2 C 0.8067(2) 0.2430(4) 0.0753(4)
H43_2 H 0.7725 0.2613 0.0587
H44_2 H 0.8092 0.2245 0.1244
H45_2 H 0.8156 0.1945 0.0466
C47_2 C 0.8232(2) 0.3973(4) 0.1081(4)
H46_2 H 0.8460 0.4463 0.1063
H47_2 H 0.8218 0.3817 0.1570
H48_2 H 0.7900 0.4137 0.0853
S4_2 S 0.99633(5) 0.12185(9) 0.04891(7)
O4_2 O 0.95197(12) 0.0009(2) 0.1477(2)
C59_2 C 0.7971(2) 0.0168(4) 0.0955(4)
H58_2 H 0.7789 0.0660 0.1074
C60_2 C 0.8487(2) 0.0168(4) 0.1078(4)
H59_2 H 0.8664 0.0666 0.1268
Br2_3 Br 0.81612(2) 0.35624(4) 0.57664(3)
N5_3 N 0.70373(16) 0.2343(3) 0.5973(3)
N7_3 N 0.79624(16) 0.1276(3) 0.5509(3)
C18_2 C 0.99685(17) 0.9967(3) 0.3474(3)
C19_2 C 0.96976(18) 0.9367(3) 0.3021(3)
C20_2 C 0.91910(18) 0.9283(3) 0.3012(3)
H18_2 H 0.9013 0.8875 0.2702
C21_2 C 0.89324(17) 0.9782(3) 0.3446(3)
C29_2 C 0.8379(3) 0.9624(8) 0.3481(6)
C30_2 C 0.8350(3) 0.8907(8) 0.4025(6)
H26_2 H 0.8534 0.9087 0.4476
H27_2 H 0.8495 0.8371 0.3868
H28_2 H 0.8001 0.8804 0.4078
C31_2 C 0.8115(3) 0.9254(8) 0.2832(6)
H29_2 H 0.8255 0.8682 0.2750
H30_2 H 0.8152 0.9640 0.2439
H31_2 H 0.7761 0.9192 0.2875
S3_3 S 1.0000 0.86429(12) 0.2500
C55_2 C 0.92954(19) 0.9376(4) 0.0983(3)
H54_2 H 0.9406 0.8787 0.1141
H55_2 H 0.9402 0.9481 0.0520
C56_2 C 0.87390(18) 0.9431(4) 0.0918(3)
C57_2 C 0.84627(19) 0.8726(4) 0.0657(3)
H56_2 H 0.8635 0.8207 0.0575
C58_2 C 0.77268(19) 0.9449(4) 0.0660(3)
H57_2 H 0.7374 0.9466 0.0558
Br1_4 Br 0.31612(2) 0.14376(4) 0.07664(3)
Br2_4 Br 0.18388(2) 0.35624(4) 0.92336(3)
N5_4 N 0.29627(16) 0.2343(3) 0.9027(3)
N7_4 N 0.20376(16) 0.1276(3) 0.9491(3)
C48_2 C 0.6586(3) 0.1561(5) 0.0078(4)
H49_2 H 0.6437 0.2030 0.0322
H50_2 H 0.6395 0.1025 0.0106
H51_2 H 0.6930 0.1469 0.0298
S1_4 S 0.5000 0.11752(11) 0.7500
C1_3 C 0.46982(16) 0.1865(3) 0.6837(3)
C2_3 C 0.49462(16) 0.2509(3) 0.6513(3)
C3_3 C 0.46786(17) 0.2992(3) 0.5973(3)
C4_3 C 0.41851(17) 0.2774(3) 0.5725(3)
H1_3 H 0.4007 0.3105 0.5355
C5_3 C 0.39494(17) 0.2079(3) 0.6009(3)
C6_3 C 0.42057(17) 0.1656(3) 0.6575(3)
H2_3 H 0.4044 0.1208 0.6796
O1_3 O 0.54491(12) 0.2641(2) 0.6701(2)
C7_3 C 0.57112(19) 0.2078(4) 0.6269(3)
H3_3 H 0.5640 0.1462 0.6365
H4_3 H 0.5596 0.2193 0.5767
C8_3 C 0.62627(18) 0.2244(4) 0.6430(3)
C9_3 C 0.65391(18) 0.2253(4) 0.5884(3)
H5_3 H 0.6370 0.2194 0.5420
C10_3 C 0.7267(2) 0.2432(4) 0.6624(4)
H6_3 H 0.7618 0.2497 0.6697
C11_3 C 0.7018(2) 0.2434(6) 0.7198(4)
H7_3 H 0.7195 0.2492 0.7657
C12_3 C 0.6503(2) 0.2352(5) 0.7096(4)
H8_3 H 0.6322 0.2371 0.7483
C13_3 C 0.34190(19) 0.1812(4) 0.5695(3)
C14_3 C 0.3067(2) 0.2570(4) 0.5753(4)
H9_3 H 0.2725 0.2387 0.5587
H10_3 H 0.3092 0.2755 0.6244
H11_3 H 0.3156 0.3055 0.5466
C15_3 C 0.3232(2) 0.1027(4) 0.6081(4)
H12_3 H 0.3460 0.0537 0.6063
H13_3 H 0.3218 0.1183 0.6570
H14_3 H 0.2900 0.0863 0.5853
C16_3 C 0.3414(3) 0.1561(5) 0.4922(4)
H15_3 H 0.3563 0.2030 0.4678
H16_3 H 0.3605 0.1025 0.4894
H17_3 H 0.3070 0.1469 0.4702
S2_3 S 0.49633(5) 0.37815(9) 0.54891(7)
C17_3 C 0.52870(17) 0.4494(3) 0.6123(3)
C18_3 C 0.50315(17) 0.5033(3) 0.6526(3)
C19_3 C 0.53024(18) 0.5633(3) 0.6979(3)
C20_3 C 0.58090(18) 0.5717(3) 0.6988(3)
H18_3 H 0.5987 0.6125 0.7298
C21_3 C 0.60676(17) 0.5218(3) 0.6554(3)
C22_3 C 0.57995(17) 0.4588(3) 0.6143(3)
H19_3 H 0.5970 0.4210 0.5868
O2_3 O 0.45197(12) 0.4991(2) 0.6477(2)
C23_3 C 0.42954(19) 0.5624(4) 0.5983(3)
H20_3 H 0.4406 0.6213 0.6141
H21_3 H 0.4402 0.5519 0.5520
C24_3 C 0.37390(18) 0.5569(4) 0.5918(3)
C25_3 C 0.34627(19) 0.6274(4) 0.5657(3)
H22_3 H 0.3635 0.6793 0.5575
C26_3 C 0.27268(19) 0.5551(4) 0.5660(3)
H23_3 H 0.2374 0.5534 0.5558
C27_3 C 0.2971(2) 0.4832(4) 0.5955(4)
H24_3 H 0.2789 0.4340 0.6074
C28_3 C 0.3487(2) 0.4832(4) 0.6078(4)
H25_3 H 0.3664 0.4334 0.6268
C29_3 C 0.6621(3) 0.5376(8) 0.6519(6)
C30_3 C 0.6650(3) 0.6093(8) 0.5975(6)
H26_3 H 0.6466 0.5913 0.5524
H27_3 H 0.6505 0.6629 0.6132
H28_3 H 0.6999 0.6196 0.5922
C31_3 C 0.6885(3) 0.5746(8) 0.7168(6)
H29_3 H 0.6745 0.6318 0.7250
H30_3 H 0.6848 0.5360 0.7561
H31_3 H 0.7239 0.5808 0.7125
C32_3 C 0.6879(3) 0.4623(8) 0.6240(6)
H32_3 H 0.6799 0.4089 0.6479
H33_3 H 0.6769 0.4565 0.5736
H34_3 H 0.7239 0.4719 0.6323
S3_4 S 0.5000 0.63571(12) 0.7500
C33_3 C 0.53018(16) 0.1865(3) 0.8163(3)
C34_3 C 0.50538(16) 0.2509(3) 0.8487(3)
C35_3 C 0.53214(17) 0.2992(3) 0.9027(3)
C36_3 C 0.58149(17) 0.2774(3) 0.9275(3)
H35_3 H 0.5993 0.3105 0.9645
C37_3 C 0.60506(17) 0.2079(3) 0.8991(3)
C38_3 C 0.57943(17) 0.1656(3) 0.8425(3)
H36_3 H 0.5956 0.1208 0.8204
O3_3 O 0.45509(12) 0.2641(2) 0.8299(2)
C39_3 C 0.42888(19) 0.2078(4) 0.8731(3)
H37_3 H 0.4360 0.1462 0.8635
H38_3 H 0.4404 0.2193 0.9233
C40_3 C 0.37373(18) 0.2244(4) 0.8570(3)
C41_3 C 0.34609(18) 0.2253(4) 0.9116(3)
H39_3 H 0.3630 0.2194 0.9580
C42_3 C 0.2733(2) 0.2432(4) 0.8376(4)
H40_3 H 0.2382 0.2497 0.8303
C43_3 C 0.2982(2) 0.2434(6) 0.7802(4)
H41_3 H 0.2805 0.2492 0.7343
C44_3 C 0.3497(2) 0.2352(5) 0.7904(4)
H42_3 H 0.3678 0.2371 0.7517
C45_3 C 0.65810(19) 0.1812(4) 0.9305(3)
C46_3 C 0.6933(2) 0.2570(4) 0.9247(4)
H43_3 H 0.7275 0.2387 0.9413
H44_3 H 0.6908 0.2755 0.8756
H45_3 H 0.6844 0.3055 0.9534
C47_3 C 0.6768(2) 0.1027(4) 0.8919(4)
H46_3 H 0.6540 0.0537 0.8937
H47_3 H 0.6782 0.1183 0.8430
H48_3 H 0.7100 0.0863 0.9147
S4_3 S 0.50367(5) 0.37815(9) 0.95109(7)
C49_3 C 0.47130(17) 0.4494(3) 0.8877(3)
C50_3 C 0.49685(17) 0.5033(3) 0.8474(3)
C51_3 C 0.46976(18) 0.5633(3) 0.8021(3)
C52_3 C 0.41910(18) 0.5717(3) 0.8012(3)
H52_3 H 0.4013 0.6125 0.7702
C53_3 C 0.39324(17) 0.5218(3) 0.8446(3)
C54_3 C 0.42005(17) 0.4588(3) 0.8857(3)
H53_3 H 0.4030 0.4210 0.9132
O4_3 O 0.54803(12) 0.4991(2) 0.8523(2)
C55_3 C 0.57046(19) 0.5624(4) 0.9017(3)
H54_3 H 0.5594 0.6213 0.8859
H55_3 H 0.5598 0.5519 0.9480
C56_3 C 0.62610(18) 0.5569(4) 0.9082(3)
C57_3 C 0.65373(19) 0.6274(4) 0.9343(3)
H56_3 H 0.6365 0.6793 0.9425
C58_3 C 0.72732(19) 0.5551(4) 0.9340(3)
H57_3 H 0.7626 0.5534 0.9442
C59_3 C 0.7029(2) 0.4832(4) 0.9045(4)
H58_3 H 0.7211 0.4340 0.8926
C60_3 C 0.6513(2) 0.4832(4) 0.8922(4)
H59_3 H 0.6336 0.4334 0.8732
C61_3 C 0.3379(3) 0.5376(8) 0.8481(6)
C62_3 C 0.3350(3) 0.6093(8) 0.9025(6)
H60_3 H 0.3534 0.5913 0.9476
H61_3 H 0.3495 0.6629 0.8868
H62_3 H 0.3001 0.6196 0.9078
C63_3 C 0.3115(3) 0.5746(8) 0.7832(6)
H63_3 H 0.3255 0.6318 0.7750
H64_3 H 0.3152 0.5360 0.7439
H65_3 H 0.2761 0.5808 0.7875
C64_3 C 0.3121(3) 0.4623(8) 0.8760(6)
H66_3 H 0.3201 0.4089 0.8521
H67_3 H 0.3231 0.4565 0.9264
H68_3 H 0.2761 0.4719 0.8677
C18_4 C 0.00315(17) 0.0033(3) 0.6526(3)
C19_4 C 0.03024(18) 0.0633(3) 0.6979(3)
C20_4 C 0.08090(18) 0.0717(3) 0.6988(3)
H18_4 H 0.0987 0.1125 0.7298
C21_4 C 0.10676(17) 0.0218(3) 0.6554(3)
C29_4 C 0.1621(3) 0.0376(8) 0.6519(6)
C30_4 C 0.1650(3) 0.1093(8) 0.5975(6)
H26_4 H 0.1466 0.0913 0.5524
H27_4 H 0.1505 0.1629 0.6132
H28_4 H 0.1999 0.1196 0.5922
C31_4 C 0.1885(3) 0.0746(8) 0.7168(6)
H29_4 H 0.1745 0.1318 0.7250
H30_4 H 0.1848 0.0360 0.7561
H31_4 H 0.2239 0.0808 0.7125
S3_5 S 0.0000 0.13571(12) 0.7500
C55_4 C 0.07046(19) 0.0624(4) 0.9017(3)
H54_4 H 0.0594 0.1213 0.8859
H55_4 H 0.0598 0.0519 0.9480
C56_4 C 0.12610(18) 0.0569(4) 0.9082(3)
C57_4 C 0.15373(19) 0.1274(4) 0.9343(3)
H56_4 H 0.1365 0.1793 0.9425
C58_4 C 0.22732(19) 0.0551(4) 0.9340(3)
H57_4 H 0.2626 0.0534 0.9442
S1_5 S 0.0000 0.61752(11) 0.7500
O1_4 O 0.04491(12) 0.7641(2) 0.6701(2)
C7_4 C 0.07112(19) 0.7078(4) 0.6269(3)
H3_4 H 0.0640 0.6462 0.6365
H4_4 H 0.0596 0.7193 0.5767
C8_4 C 0.12627(18) 0.7244(4) 0.6430(3)
C9_4 C 0.15391(18) 0.7253(4) 0.5884(3)
H5_4 H 0.1370 0.7194 0.5420
C10_4 C 0.2267(2) 0.7432(4) 0.6624(4)
H6_4 H 0.2618 0.7497 0.6697
C11_4 C 0.2018(2) 0.7434(6) 0.7198(4)
H7_4 H 0.2195 0.7492 0.7657
C12_4 C 0.1503(2) 0.7352(5) 0.7096(4)
H8_4 H 0.1322 0.7371 0.7483
C17_4 C 0.02870(17) 0.9494(3) 0.6123(3)
C22_4 C 0.07995(17) 0.9588(3) 0.6143(3)
H19_4 H 0.0970 0.9210 0.5868
C32_4 C 0.1879(3) 0.9623(8) 0.6240(6)
H32_4 H 0.1799 0.9089 0.6479
H33_4 H 0.1769 0.9565 0.5736
H34_4 H 0.2239 0.9719 0.6323
C33_4 C 0.03018(16) 0.6865(3) 0.8163(3)
C34_4 C 0.00538(16) 0.7509(3) 0.8487(3)
C35_4 C 0.03214(17) 0.7992(3) 0.9027(3)
C36_4 C 0.08149(17) 0.7774(3) 0.9275(3)
H35_4 H 0.0993 0.8105 0.9645
C37_4 C 0.10506(17) 0.7079(3) 0.8991(3)
C38_4 C 0.07943(17) 0.6656(3) 0.8425(3)
H36_4 H 0.0956 0.6208 0.8204
C45_4 C 0.15810(19) 0.6812(4) 0.9305(3)
C46_4 C 0.1933(2) 0.7570(4) 0.9247(4)
H43_4 H 0.2275 0.7387 0.9413
H44_4 H 0.1908 0.7755 0.8756
H45_4 H 0.1844 0.8055 0.9534
C47_4 C 0.1768(2) 0.6027(4) 0.8919(4)
H46_4 H 0.1540 0.5537 0.8937
H47_4 H 0.1782 0.6183 0.8430
H48_4 H 0.2100 0.5863 0.9147
S4_4 S 0.00367(5) 0.87815(9) 0.95109(7)
O4_4 O 0.04803(12) 0.9991(2) 0.8523(2)
C59_4 C 0.2029(2) 0.9832(4) 0.9045(4)
H58_4 H 0.2211 0.9340 0.8926
C60_4 C 0.1513(2) 0.9832(4) 0.8922(4)
H59_4 H 0.1336 0.9334 0.8732
C23_4 C 0.92954(19) 0.0624(4) 0.5983(3)
H20_4 H 0.9406 0.1213 0.6141
H21_4 H 0.9402 0.0519 0.5520
C24_4 C 0.87390(18) 0.0569(4) 0.5918(3)
C25_4 C 0.84627(19) 0.1274(4) 0.5657(3)
H22_4 H 0.8635 0.1793 0.5575
C26_4 C 0.77268(19) 0.0551(4) 0.5660(3)
H23_4 H 0.7374 0.0534 0.5558
S3_6 S 1.0000 0.13571(12) 0.7500
C50_4 C 0.99685(17) 0.0033(3) 0.8474(3)
C51_4 C 0.96976(18) 0.0633(3) 0.8021(3)
C52_4 C 0.91910(18) 0.0717(3) 0.8012(3)
H52_4 H 0.9013 0.1125 0.7702
C53_4 C 0.89324(17) 0.0218(3) 0.8446(3)
C61_4 C 0.8379(3) 0.0376(8) 0.8481(6)
C62_4 C 0.8350(3) 0.1093(8) 0.9025(6)
H60_4 H 0.8534 0.0913 0.9476
H61_4 H 0.8495 0.1629 0.8868
H62_4 H 0.8001 0.1196 0.9078
C63_4 C 0.8115(3) 0.0746(8) 0.7832(6)
H63_4 H 0.8255 0.1318 0.7750
H64_4 H 0.8152 0.0360 0.7439
H65_4 H 0.7761 0.0808 0.7875
S1_6 S 1.0000 0.61752(11) 0.7500
C1_4 C 0.96982(16) 0.6865(3) 0.6837(3)
C2_4 C 0.99462(16) 0.7509(3) 0.6513(3)
C3_4 C 0.96786(17) 0.7992(3) 0.5973(3)
C4_4 C 0.91851(17) 0.7774(3) 0.5725(3)
H1_4 H 0.9007 0.8105 0.5355
C5_4 C 0.89494(17) 0.7079(3) 0.6009(3)
C6_4 C 0.92057(17) 0.6656(3) 0.6575(3)
H2_4 H 0.9044 0.6208 0.6796
C13_4 C 0.84190(19) 0.6812(4) 0.5695(3)
C14_4 C 0.8067(2) 0.7570(4) 0.5753(4)
H9_4 H 0.7725 0.7387 0.5587
H10_4 H 0.8092 0.7755 0.6244
H11_4 H 0.8156 0.8055 0.5466
C15_4 C 0.8232(2) 0.6027(4) 0.6081(4)
H12_4 H 0.8460 0.5537 0.6063
H13_4 H 0.8218 0.6183 0.6570
H14_4 H 0.7900 0.5863 0.5853
C16_4 C 0.8414(3) 0.6561(5) 0.4922(4)
H15_4 H 0.8563 0.7030 0.4678
H16_4 H 0.8605 0.6025 0.4894
H17_4 H 0.8070 0.6469 0.4702
S2_4 S 0.99633(5) 0.87815(9) 0.54891(7)
O2_4 O 0.95197(12) 0.9991(2) 0.6477(2)
C27_4 C 0.7971(2) 0.9832(4) 0.5955(4)
H24_4 H 0.7789 0.9340 0.6074
C28_4 C 0.8487(2) 0.9832(4) 0.6078(4)
H25_4 H 0.8664 0.9334 0.6268
O3_4 O 0.95509(12) 0.7641(2) 0.8299(2)
C39_4 C 0.92888(19) 0.7078(4) 0.8731(3)
H37_4 H 0.9360 0.6462 0.8635
H38_4 H 0.9404 0.7193 0.9233
C40_4 C 0.87373(18) 0.7244(4) 0.8570(3)
C41_4 C 0.84609(18) 0.7253(4) 0.9116(3)
H39_4 H 0.8630 0.7194 0.9580
C42_4 C 0.7733(2) 0.7432(4) 0.8376(4)
H40_4 H 0.7382 0.7497 0.8303
C43_4 C 0.7982(2) 0.7434(6) 0.7802(4)
H41_4 H 0.7805 0.7492 0.7343
C44_4 C 0.8497(2) 0.7352(5) 0.7904(4)
H42_4 H 0.8678 0.7371 0.7517
C49_4 C 0.97130(17) 0.9494(3) 0.8877(3)
C54_4 C 0.92005(17) 0.9588(3) 0.8857(3)
H53_4 H 0.9030 0.9210 0.9132
C64_4 C 0.8121(3) 0.9623(8) 0.8760(6)
H66_4 H 0.8201 0.9089 0.8521
H67_4 H 0.8231 0.9565 0.9264
H68_4 H 0.7761 0.9719 0.8677
C48_3 C 0.8414(3) 0.3439(5) 0.9922(4)
H49_3 H 0.8563 0.2970 0.9678
H50_3 H 0.8605 0.3975 0.9894
H51_3 H 0.8070 0.3531 0.9702
C48_4 C 0.1586(3) 0.6561(5) 0.0078(4)
H49_4 H 0.1437 0.7030 0.0322
H50_4 H 0.1395 0.6025 0.0106
H51_4 H 0.1930 0.6469 0.0298
loop_
_geom_bond_atom_site_label_1
_geom_bond_atom_site_label_2
_geom_bond_site_symmetry_1
_geom_bond_site_symmetry_2
Cd1 Br1 1_555 1_555
S1 C1 1_555 1_555
C1 C2 1_555 1_555
C2 C3 1_555 1_555
C3 C4 1_555 1_555
C4 H1 1_555 1_555
C5 C4 1_555 1_555
C6 C1 1_555 1_555
H2 C6 1_555 1_555
O1 C2 1_555 1_555
C7 O1 1_555 1_555
H3 C7 1_555 1_555
H4 C7 1_555 1_555
C8 C7 1_555 1_555
C9 C8 1_555 1_555
H5 C9 1_555 1_555
N1 Cd1 1_555 1_555
C10 N1 1_555 1_555
H6 C10 1_555 1_555
C11 C10 1_555 1_555
H7 C11 1_555 1_555
C12 C8 1_555 1_555
H8 C12 1_555 1_555
C13 C5 1_555 1_555
C14 C13 1_555 1_555
H9 C14 1_555 1_555
H10 C14 1_555 1_555
H11 C14 1_555 1_555
C15 C13 1_555 1_555
H12 C15 1_555 1_555
H13 C15 1_555 1_555
H14 C15 1_555 1_555
C16 C13 1_555 1_555
H15 C16 1_555 1_555
H16 C16 1_555 1_555
H17 C16 1_555 1_555
S2 C3 1_555 1_555
C17 S2 1_555 1_555
C18 C17 1_555 1_555
C19 C18 1_555 1_555
C20 C19 1_555 1_555
H18 C20 1_555 1_555
C21 C20 1_555 1_555
C22 C17 1_555 1_555
H19 C22 1_555 1_555
O2 C18 1_555 1_555
C23 O2 1_555 1_555
H20 C23 1_555 1_555
H21 C23 1_555 1_555
C24 C23 1_555 1_555
C25 C24 1_555 1_555
H22 C25 1_555 1_555
N2 C25 1_555 1_555
C26 N2 1_555 1_555
H23 C26 1_555 1_555
C27 C26 1_555 1_555
H24 C27 1_555 1_555
C28 C24 1_555 1_555
H25 C28 1_555 1_555
C29 C21 1_555 1_555
C30 C29 1_555 1_555
H26 C30 1_555 1_555
H27 C30 1_555 1_555
H28 C30 1_555 1_555
C31 C29 1_555 1_555
H29 C31 1_555 1_555
H30 C31 1_555 1_555
H31 C31 1_555 1_555
C32 C29 1_555 1_555
H32 C32 1_555 1_555
H33 C32 1_555 1_555
H34 C32 1_555 1_555
S3 C19 1_555 1_555
C33 S1 1_555 1_555
C34 C33 1_555 1_555
C35 C34 1_555 1_555
C36 C35 1_555 1_555
H35 C36 1_555 1_555
C37 C36 1_555 1_555
C38 C33 1_555 1_555
H36 C38 1_555 1_555
O3 C34 1_555 1_555
C39 O3 1_555 1_555
H37 C39 1_555 1_555
H38 C39 1_555 1_555
C40 C39 1_555 1_555
C41 C40 1_555 1_555
H39 C41 1_555 1_555
N3 C41 1_555 1_555
C42 N3 1_555 1_555
H40 C42 1_555 1_555
C43 C42 1_555 1_555
H41 C43 1_555 1_555
C44 C40 1_555 1_555
H42 C44 1_555 1_555
C45 C37 1_555 1_555
C46 C45 1_555 1_555
H43 C46 1_555 1_555
H44 C46 1_555 1_555
H45 C46 1_555 1_555
C47 C45 1_555 1_555
H46 C47 1_555 1_555
H47 C47 1_555 1_555
H48 C47 1_555 1_555
S4 C35 1_555 1_555
C49 S4 1_555 1_555
C50 C49 1_555 1_555
C51 S3 1_555 1_555
C52 C51 1_555 1_555
H52 C52 1_555 1_555
C53 C52 1_555 1_555
C54 C49 1_555 1_555
H53 C54 1_555 1_555
O4 C50 1_555 1_555
C55 O4 1_555 1_555
H54 C55 1_555 1_555
H55 C55 1_555 1_555
C56 C55 1_555 1_555
C57 C56 1_555 1_555
H56 C57 1_555 1_555
N4 C57 1_555 1_555
C58 N4 1_555 1_555
H57 C58 1_555 1_555
C59 C58 1_555 1_555
H58 C59 1_555 1_555
C60 C56 1_555 1_555
H59 C60 1_555 1_555
C61 C53 1_555 1_555
C62 C61 1_555 1_555
H60 C62 1_555 1_555
H61 C62 1_555 1_555
H62 C62 1_555 1_555
C63 C61 1_555 1_555
H63 C63 1_555 1_555
H64 C63 1_555 1_555
H65 C63 1_555 1_555
C64 C61 1_555 1_555
H66 C64 1_555 1_555
H67 C64 1_555 1_555
H68 C64 1_555 1_555
Br2 Cd1 1_555 1_555
Cd2 N3 1_555 1_555
Cd3 N2 1_555 1_555
Cd4 N4 1_555 1_555
N5 Cd1 1_555 1_555
N6 Cd1 1_555 1_555
N7 Cd1 1_555 1_555
C5 C6 1_555 1_555
C9 N1 1_555 1_555
C11 C12 1_555 1_555
C21 C22 1_555 1_555
C27 C28 1_555 1_555
C37 C38 1_555 1_555
C43 C44 1_555 1_555
C50 C51 1_555 1_555
C53 C54 1_555 1_555
C59 C60 1_555 1_555
H49 C48 1_555 1_555
H50 C48 1_555 1_555
H51 C48 1_555 1_555
Cd2 Br1_2 1_555 1_555
N6_2 Cd2 1_555 1_555
Br2_2 Cd2_2 1_555 1_555
N5_2 Cd2_2 1_555 1_555
N7_2 Cd2_2 1_555 1_555
S1_2 C1_2 1_555 1_555
C1_2 C2_2 1_555 1_555
C2_2 C3_2 1_555 1_555
C3_2 C4_2 1_555 1_555
C4_2 H1_2 1_555 1_555
C5_2 C4_2 1_555 1_555
C6_2 C1_2 1_555 1_555
H2_2 C6_2 1_555 1_555
C13_2 C5_2 1_555 1_555
C14_2 C13_2 1_555 1_555
H9_2 C14_2 1_555 1_555
H10_2 C14_2 1_555 1_555
H11_2 C14_2 1_555 1_555
C15_2 C13_2 1_555 1_555
H12_2 C15_2 1_555 1_555
H13_2 C15_2 1_555 1_555
H14_2 C15_2 1_555 1_555
C16_2 C13_2 1_555 1_555
H15_2 C16_2 1_555 1_555
H16_2 C16_2 1_555 1_555
H17_2 C16_2 1_555 1_555
S2_2 C3_2 1_555 1_555
H24_2 C27_2 1_555 1_555
H25_2 C28_2 1_555 1_555
C39_2 O3_2 1_555 1_555
H37_2 C39_2 1_555 1_555
H38_2 C39_2 1_555 1_555
C40_2 C39_2 1_555 1_555
C41_2 C40_2 1_555 1_555
H39_2 C41_2 1_555 1_555
N3_2 C41_2 1_555 1_555
C42_2 N3_2 1_555 1_555
H40_2 C42_2 1_555 1_555
C43_2 C42_2 1_555 1_555
H41_2 C43_2 1_555 1_555
C44_2 C40_2 1_555 1_555
H42_2 C44_2 1_555 1_555
C54_2 C49_2 1_555 1_555
H53_2 C54_2 1_555 1_555
H66_2 C64_2 1_555 1_555
H67_2 C64_2 1_555 1_555
H68_2 C64_2 1_555 1_555
Cd4 N3_2 1_555 1_555
C5_2 C6_2 1_555 1_555
C27_2 C28_2 1_555 1_555
C43_2 C44_2 1_555 1_555
H20_2 C23_2 1_555 1_555
H21_2 C23_2 1_555 1_555
C24_2 C23_2 1_555 1_555
C25_2 C24_2 1_555 1_555
H22_2 C25_2 1_555 1_555
N6 C25_2 1_555 1_555
C26_2 N6 1_555 1_555
H23_2 C26_2 1_555 1_555
C51_2 S3_2 1_555 1_555
C52_2 C51_2 1_555 1_555
H52_2 C52_2 1_555 1_555
C53_2 C52_2 1_555 1_555
C61_2 C53_2 1_555 1_555
C62_2 C61_2 1_555 1_555
H60_2 C62_2 1_555 1_555
H61_2 C62_2 1_555 1_555
H62_2 C62_2 1_555 1_555
C63_2 C61_2 1_555 1_555
H63_2 C63_2 1_555 1_555
H64_2 C63_2 1_555 1_555
H65_2 C63_2 1_555 1_555
C50_2 C51_2 1_555 1_555
Cd3 Br1_3 1_555 1_555
C7_2 O1_2 1_555 1_555
H3_2 C7_2 1_555 1_555
H4_2 C7_2 1_555 1_555
C8_2 C7_2 1_555 1_555
C9_2 C8_2 1_555 1_555
H5_2 C9_2 1_555 1_555
N1_2 Cd3 1_555 1_555
C10_2 N1_2 1_555 1_555
H6_2 C10_2 1_555 1_555
C11_2 C10_2 1_555 1_555
H7_2 C11_2 1_555 1_555
C12_2 C8_2 1_555 1_555
H8_2 C12_2 1_555 1_555
C22_2 C17_2 1_555 1_555
H19_2 C22_2 1_555 1_555
H32_2 C32_2 1_555 1_555
H33_2 C32_2 1_555 1_555
H34_2 C32_2 1_555 1_555
C33_2 S1_3 1_555 1_555
C34_2 C33_2 1_555 1_555
C35_2 C34_2 1_555 1_555
C36_2 C35_2 1_555 1_555
H35_2 C36_2 1_555 1_555
C37_2 C36_2 1_555 1_555
C38_2 C33_2 1_555 1_555
H36_2 C38_2 1_555 1_555
C45_2 C37_2 1_555 1_555
C46_2 C45_2 1_555 1_555
H43_2 C46_2 1_555 1_555
H44_2 C46_2 1_555 1_555
H45_2 C46_2 1_555 1_555
C47_2 C45_2 1_555 1_555
H46_2 C47_2 1_555 1_555
H47_2 C47_2 1_555 1_555
H48_2 C47_2 1_555 1_555
S4_2 C35_2 1_555 1_555
H58_2 C59_2 1_555 1_555
H59_2 C60_2 1_555 1_555
Br2_3 Cd3 1_555 1_555
N5_3 Cd3 1_555 1_555
N7_3 Cd3 1_555 1_555
C9_2 N1_2 1_555 1_555
C11_2 C12_2 1_555 1_555
C37_2 C38_2 1_555 1_555
C59_2 C60_2 1_555 1_555
C19_2 C18_2 1_555 1_555
C20_2 C19_2 1_555 1_555
H18_2 C20_2 1_555 1_555
C21_2 C20_2 1_555 1_555
C29_2 C21_2 1_555 1_555
C30_2 C29_2 1_555 1_555
H26_2 C30_2 1_555 1_555
H27_2 C30_2 1_555 1_555
H28_2 C30_2 1_555 1_555
C31_2 C29_2 1_555 1_555
H29_2 C31_2 1_555 1_555
H30_2 C31_2 1_555 1_555
H31_2 C31_2 1_555 1_555
S3_3 C19_2 1_555 1_555
H54_2 C55_2 1_555 1_555
H55_2 C55_2 1_555 1_555
C56_2 C55_2 1_555 1_555
C57_2 C56_2 1_555 1_555
H56_2 C57_2 1_555 1_555
N6_2 C57_2 1_555 1_555
C58_2 N6_2 1_555 1_555
H57_2 C58_2 1_555 1_555
Cd4 Br1_4 1_555 1_555
Br2_4 Cd4_2 1_555 1_555
N5_4 Cd4_2 1_555 1_555
N7_4 Cd4_2 1_555 1_555
H49_2 C48_2 1_555 1_555
H50_2 C48_2 1_555 1_555
H51_2 C48_2 1_555 1_555
S1_4 C1_3 1_555 1_555
C1_3 C2_3 1_555 1_555
C2_3 C3_3 1_555 1_555
C3_3 C4_3 1_555 1_555
C4_3 H1_3 1_555 1_555
C5_3 C4_3 1_555 1_555
C6_3 C1_3 1_555 1_555
H2_3 C6_3 1_555 1_555
O1_3 C2_3 1_555 1_555
C7_3 O1_3 1_555 1_555
H3_3 C7_3 1_555 1_555
H4_3 C7_3 1_555 1_555
C8_3 C7_3 1_555 1_555
C9_3 C8_3 1_555 1_555
H5_3 C9_3 1_555 1_555
C10_3 N5_3 1_555 1_555
H6_3 C10_3 1_555 1_555
C11_3 C10_3 1_555 1_555
H7_3 C11_3 1_555 1_555
C12_3 C8_3 1_555 1_555
H8_3 C12_3 1_555 1_555
C13_3 C5_3 1_555 1_555
C14_3 C13_3 1_555 1_555
H9_3 C14_3 1_555 1_555
H10_3 C14_3 1_555 1_555
H11_3 C14_3 1_555 1_555
C15_3 C13_3 1_555 1_555
H12_3 C15_3 1_555 1_555
H13_3 C15_3 1_555 1_555
H14_3 C15_3 1_555 1_555
C16_3 C13_3 1_555 1_555
H15_3 C16_3 1_555 1_555
H16_3 C16_3 1_555 1_555
H17_3 C16_3 1_555 1_555
S2_3 C3_3 1_555 1_555
C17_3 S2_3 1_555 1_555
C18_3 C17_3 1_555 1_555
C19_3 C18_3 1_555 1_555
C20_3 C19_3 1_555 1_555
H18_3 C20_3 1_555 1_555
C21_3 C20_3 1_555 1_555
C22_3 C17_3 1_555 1_555
H19_3 C22_3 1_555 1_555
O2_3 C18_3 1_555 1_555
C23_3 O2_3 1_555 1_555
H20_3 C23_3 1_555 1_555
H21_3 C23_3 1_555 1_555
C24_3 C23_3 1_555 1_555
C25_3 C24_3 1_555 1_555
H22_3 C25_3 1_555 1_555
N7 C25_3 1_555 1_555
C26_3 N7 1_555 1_555
H23_3 C26_3 1_555 1_555
C27_3 C26_3 1_555 1_555
H24_3 C27_3 1_555 1_555
C28_3 C24_3 1_555 1_555
H25_3 C28_3 1_555 1_555
C29_3 C21_3 1_555 1_555
C30_3 C29_3 1_555 1_555
H26_3 C30_3 1_555 1_555
H27_3 C30_3 1_555 1_555
H28_3 C30_3 1_555 1_555
C31_3 C29_3 1_555 1_555
H29_3 C31_3 1_555 1_555
H30_3 C31_3 1_555 1_555
H31_3 C31_3 1_555 1_555
C32_3 C29_3 1_555 1_555
H32_3 C32_3 1_555 1_555
H33_3 C32_3 1_555 1_555
H34_3 C32_3 1_555 1_555
S3_4 C19_3 1_555 1_555
C33_3 S1_4 1_555 1_555
C34_3 C33_3 1_555 1_555
C35_3 C34_3 1_555 1_555
C36_3 C35_3 1_555 1_555
H35_3 C36_3 1_555 1_555
C37_3 C36_3 1_555 1_555
C38_3 C33_3 1_555 1_555
H36_3 C38_3 1_555 1_555
O3_3 C34_3 1_555 1_555
C39_3 O3_3 1_555 1_555
H37_3 C39_3 1_555 1_555
H38_3 C39_3 1_555 1_555
C40_3 C39_3 1_555 1_555
C41_3 C40_3 1_555 1_555
H39_3 C41_3 1_555 1_555
N5_4 C41_3 1_555 1_555
C42_3 N5_4 1_555 1_555
H40_3 C42_3 1_555 1_555
C43_3 C42_3 1_555 1_555
H41_3 C43_3 1_555 1_555
C44_3 C40_3 1_555 1_555
H42_3 C44_3 1_555 1_555
C45_3 C37_3 1_555 1_555
C46_3 C45_3 1_555 1_555
H43_3 C46_3 1_555 1_555
H44_3 C46_3 1_555 1_555
H45_3 C46_3 1_555 1_555
C47_3 C45_3 1_555 1_555
H46_3 C47_3 1_555 1_555
H47_3 C47_3 1_555 1_555
H48_3 C47_3 1_555 1_555
S4_3 C35_3 1_555 1_555
C49_3 S4_3 1_555 1_555
C50_3 C49_3 1_555 1_555
C51_3 S3_4 1_555 1_555
C52_3 C51_3 1_555 1_555
H52_3 C52_3 1_555 1_555
C53_3 C52_3 1_555 1_555
C54_3 C49_3 1_555 1_555
H53_3 C54_3 1_555 1_555
O4_3 C50_3 1_555 1_555
C55_3 O4_3 1_555 1_555
H54_3 C55_3 1_555 1_555
H55_3 C55_3 1_555 1_555
C56_3 C55_3 1_555 1_555
C57_3 C56_3 1_555 1_555
H56_3 C57_3 1_555 1_555
N7_2 C57_3 1_555 1_555
C58_3 N7_2 1_555 1_555
H57_3 C58_3 1_555 1_555
C59_3 C58_3 1_555 1_555
H58_3 C59_3 1_555 1_555
C60_3 C56_3 1_555 1_555
H59_3 C60_3 1_555 1_555
C61_3 C53_3 1_555 1_555
C62_3 C61_3 1_555 1_555
H60_3 C62_3 1_555 1_555
H61_3 C62_3 1_555 1_555
H62_3 C62_3 1_555 1_555
C63_3 C61_3 1_555 1_555
H63_3 C63_3 1_555 1_555
H64_3 C63_3 1_555 1_555
H65_3 C63_3 1_555 1_555
C64_3 C61_3 1_555 1_555
H66_3 C64_3 1_555 1_555
H67_3 C64_3 1_555 1_555
H68_3 C64_3 1_555 1_555
C5_3 C6_3 1_555 1_555
C9_3 N5_3 1_555 1_555
C11_3 C12_3 1_555 1_555
C21_3 C22_3 1_555 1_555
C27_3 C28_3 1_555 1_555
C37_3 C38_3 1_555 1_555
C43_3 C44_3 1_555 1_555
C50_3 C51_3 1_555 1_555
C53_3 C54_3 1_555 1_555
C59_3 C60_3 1_555 1_555
C19_4 C18_4 1_555 1_555
C20_4 C19_4 1_555 1_555
H18_4 C20_4 1_555 1_555
C21_4 C20_4 1_555 1_555
C29_4 C21_4 1_555 1_555
C30_4 C29_4 1_555 1_555
H26_4 C30_4 1_555 1_555
H27_4 C30_4 1_555 1_555
H28_4 C30_4 1_555 1_555
C31_4 C29_4 1_555 1_555
H29_4 C31_4 1_555 1_555
H30_4 C31_4 1_555 1_555
H31_4 C31_4 1_555 1_555
S3_5 C19_4 1_555 1_555
H54_4 C55_4 1_555 1_555
H55_4 C55_4 1_555 1_555
C56_4 C55_4 1_555 1_555
C57_4 C56_4 1_555 1_555
H56_4 C57_4 1_555 1_555
N7_4 C57_4 1_555 1_555
C58_4 N7_4 1_555 1_555
H57_4 C58_4 1_555 1_555
C7_4 O1_4 1_555 1_555
H3_4 C7_4 1_555 1_555
H4_4 C7_4 1_555 1_555
C8_4 C7_4 1_555 1_555
C9_4 C8_4 1_555 1_555
H5_4 C9_4 1_555 1_555
C10_4 N5 1_555 1_555
H6_4 C10_4 1_555 1_555
C11_4 C10_4 1_555 1_555
H7_4 C11_4 1_555 1_555
C12_4 C8_4 1_555 1_555
H8_4 C12_4 1_555 1_555
C22_4 C17_4 1_555 1_555
H19_4 C22_4 1_555 1_555
H32_4 C32_4 1_555 1_555
H33_4 C32_4 1_555 1_555
H34_4 C32_4 1_555 1_555
C33_4 S1_5 1_555 1_555
C34_4 C33_4 1_555 1_555
C35_4 C34_4 1_555 1_555
C36_4 C35_4 1_555 1_555
H35_4 C36_4 1_555 1_555
C37_4 C36_4 1_555 1_555
C38_4 C33_4 1_555 1_555
H36_4 C38_4 1_555 1_555
C45_4 C37_4 1_555 1_555
C46_4 C45_4 1_555 1_555
H43_4 C46_4 1_555 1_555
H44_4 C46_4 1_555 1_555
H45_4 C46_4 1_555 1_555
C47_4 C45_4 1_555 1_555
H46_4 C47_4 1_555 1_555
H47_4 C47_4 1_555 1_555
H48_4 C47_4 1_555 1_555
S4_4 C35_4 1_555 1_555
H58_4 C59_4 1_555 1_555
H59_4 C60_4 1_555 1_555
C9_4 N5 1_555 1_555
C11_4 C12_4 1_555 1_555
C37_4 C38_4 1_555 1_555
C59_4 C60_4 1_555 1_555
H20_4 C23_4 1_555 1_555
H21_4 C23_4 1_555 1_555
C24_4 C23_4 1_555 1_555
C25_4 C24_4 1_555 1_555
H22_4 C25_4 1_555 1_555
N7_3 C25_4 1_555 1_555
C26_4 N7_3 1_555 1_555
H23_4 C26_4 1_555 1_555
C51_4 S3_6 1_555 1_555
C52_4 C51_4 1_555 1_555
H52_4 C52_4 1_555 1_555
C53_4 C52_4 1_555 1_555
C61_4 C53_4 1_555 1_555
C62_4 C61_4 1_555 1_555
H60_4 C62_4 1_555 1_555
H61_4 C62_4 1_555 1_555
H62_4 C62_4 1_555 1_555
C63_4 C61_4 1_555 1_555
H63_4 C63_4 1_555 1_555
H64_4 C63_4 1_555 1_555
H65_4 C63_4 1_555 1_555
C50_4 C51_4 1_555 1_555
S1_6 C1_4 1_555 1_555
C1_4 C2_4 1_555 1_555
C2_4 C3_4 1_555 1_555
C3_4 C4_4 1_555 1_555
C4_4 H1_4 1_555 1_555
C5_4 C4_4 1_555 1_555
C6_4 C1_4 1_555 1_555
H2_4 C6_4 1_555 1_555
C13_4 C5_4 1_555 1_555
C14_4 C13_4 1_555 1_555
H9_4 C14_4 1_555 1_555
H10_4 C14_4 1_555 1_555
H11_4 C14_4 1_555 1_555
C15_4 C13_4 1_555 1_555
H12_4 C15_4 1_555 1_555
H13_4 C15_4 1_555 1_555
H14_4 C15_4 1_555 1_555
C16_4 C13_4 1_555 1_555
H15_4 C16_4 1_555 1_555
H16_4 C16_4 1_555 1_555
H17_4 C16_4 1_555 1_555
S2_4 C3_4 1_555 1_555
H24_4 C27_4 1_555 1_555
H25_4 C28_4 1_555 1_555
C39_4 O3_4 1_555 1_555
H37_4 C39_4 1_555 1_555
H38_4 C39_4 1_555 1_555
C40_4 C39_4 1_555 1_555
C41_4 C40_4 1_555 1_555
H39_4 C41_4 1_555 1_555
N5_2 C41_4 1_555 1_555
C42_4 N5_2 1_555 1_555
H40_4 C42_4 1_555 1_555
C43_4 C42_4 1_555 1_555
H41_4 C43_4 1_555 1_555
C44_4 C40_4 1_555 1_555
H42_4 C44_4 1_555 1_555
C54_4 C49_4 1_555 1_555
H53_4 C54_4 1_555 1_555
H66_4 C64_4 1_555 1_555
H67_4 C64_4 1_555 1_555
H68_4 C64_4 1_555 1_555
C5_4 C6_4 1_555 1_555
C27_4 C28_4 1_555 1_555
C43_4 C44_4 1_555 1_555
H49_3 C48_3 1_555 1_555
H50_3 C48_3 1_555 1_555
H51_3 C48_3 1_555 1_555
H49_4 C48_4 1_555 1_555
H50_4 C48_4 1_555 1_555
H51_4 C48_4 1_555 1_555

#END
