
###############################################################################
#
# This file contains modified crystal structure data generated from the
# MOF subset of the Cambridge Structural Database (CSD) v543 
# hosted by the Cambridge Crystallographic Data Centre (CCDC).
#
# This work is licensed under the Creative Commons
# Attribution-NonCommercial-ShareAlike 4.0 International License.
# To view a copy of this license, visit
# http://creativecommons.org/licenses/by-nc-sa/4.0/
# or send a letter to
# Creative Commons, PO Box 1866, Mountain View, CA 94042, USA.
#
# CIF created using the CSD Python API on 29 September 2022
# The structure has been converted into the P1 space group
# The structure has a 3D framework
# The original CSD entry NIYZIG is in the monoclinic crystal system
# The framework has been calculated to contain at least 10.0% void space
# The void calculation uses a probe of radius 1.32A, grid spacing 0.4
#
###############################################################################

data_NIYZIG
_chemical_formula_moiety         '(C84 H58 O32 P4 Zn5)n'
_symmetry_cell_setting           triclinic
_symmetry_space_group_name_H-M   'P 1'
_symmetry_Int_Tables_number      1
_space_group_name_Hall           'P 1'
loop_
_symmetry_equiv_pos_site_id
_symmetry_equiv_pos_as_xyz
1 x,y,z
_cell_length_a                   13.710(3)
_cell_length_b                   14.753(3)
_cell_length_c                   20.027(4)
_cell_angle_alpha                90
_cell_angle_beta                 107.969(3)
_cell_angle_gamma                90
_cell_volume                     3853.15
loop_
_atom_site_label
_atom_site_type_symbol
_atom_site_fract_x
_atom_site_fract_y
_atom_site_fract_z
O3 O 0.21072(16) 0.06765(18) 0.49370(12)
C10 C 0.1854(2) 0.0076(2) 0.44694(15)
C13 C 0.0019(2) 0.0560(3) 0.42765(19)
H7 H 0.0259 0.1003 0.4618
Zn8 Zn 0.35162(2) 0.09889(3) 0.552852(15)
O6 O 0.24359(16) 0.95582(18) 0.42823(15)
C8 C 0.0710(2) 0.9985(2) 0.41064(15)
C18 C 0.0341(3) 0.9340(3) 0.3606(3)
H12 H 0.0796 0.8945 0.3494
Zn3 Zn 0.40155(2) 0.974803(19) 0.437866(15)
O2 O 0.45182(17) 0.31415(14) 0.11301(12)
C3 C 0.6784(2) 0.07458(17) 0.25363(14)
O5 O 0.60718(19) 0.35672(16) 0.10874(13)
C4 C 0.5939(2) 0.22473(18) 0.17097(15)
C5 C 0.5469(2) 0.30510(18) 0.12709(14)
C6 C 0.5319(2) 0.1652(2) 0.1940(2)
H1 H 0.4617 0.1755 0.1819
C7 C 0.6975(2) 0.2065(2) 0.1888(2)
H2 H 0.7398 0.2448 0.1732
H3 H 0.567(3) 0.0513(19) 0.435(2)
O8 O 0.56004(14) 0.00525(15) 0.45858(10)
C9 C 0.5744(2) 0.0911(2) 0.2345(2)
H4 H 0.5322 0.0517 0.2493
C12 C 0.8986(2) 0.0478(3) 0.3945(2)
H6 H 0.8533 0.0862 0.4070
C14 C 0.7393(2) 0.1322(2) 0.2294(2)
H8 H 0.8092 0.1208 0.2406
Zn5 Zn 0.59845(2) 0.474803(19) 0.062134(15)
Zn6 Zn 0.59845(2) 0.025197(19) 0.562134(15)
Zn7 Zn 0.35162(2) 0.40111(3) 0.052852(15)
O12 O 0.36358(19) 0.08086(16) 0.37464(12)
Zn2 Zn 0.64838(2) 0.90111(3) 0.447148(15)
P1 P 0.72426(5) 0.97341(4) 0.30400(3)
O1 O 0.67001(14) 0.95921(13) 0.35710(9)
C1 C 0.70116(19) 0.88159(18) 0.24157(13)
C2 C 0.8604(2) 0.98347(18) 0.34254(14)
O4 O 0.63642(19) 0.58086(16) 0.12536(12)
O7 O 0.6284(2) 0.67218(18) 0.03597(12)
C11 C 0.6722(3) 0.8000(2) 0.26099(17)
H5 H 0.6652 0.7927 0.3054
C15 C 0.7126(4) 0.8913(2) 0.17612(19)
H9 H 0.7333 0.9466 0.1628
C16 C 0.6531(4) 0.7274(2) 0.21437(19)
H10 H 0.6333 0.6719 0.2280
C17 C 0.6931(4) 0.8184(3) 0.12984(18)
H11 H 0.7006 0.8254 0.0855
C19 C 0.9298(3) 0.9260(3) 0.3258(3)
H13 H 0.9063 0.8821 0.2913
H14 H 0.731(3) 0.7155(12) 0.435(3)
H15 H 0.8140(11) 0.760(3) 0.455(3)
O9 O 0.7456(5) 0.7752(4) 0.4365(3)
C20 C 0.6629(2) 0.7367(2) 0.14880(15)
C21 C 0.6405(2) 0.6573(2) 0.09895(16)
O10 O 0.54818(17) 0.81415(14) 0.38699(12)
O11 O 0.78928(16) 0.93235(18) 0.50630(12)
O13 O 0.39282(19) 0.85672(16) 0.39126(13)
O15 O 0.6284(2) 0.82782(18) 0.53597(12)
O16 O 0.43996(14) 0.99475(15) 0.54142(10)
Zn9 Zn 0.64838(2) 0.59889(3) 0.947148(15)
P1_2 P 0.27574(5) 0.47341(4) 0.19600(3)
O1_2 O 0.32999(14) 0.45921(13) 0.14290(9)
C1_2 C 0.29884(19) 0.38159(18) 0.25843(13)
C2_2 C 0.1396(2) 0.48347(18) 0.15746(14)
C3_2 C 0.3216(2) 0.57458(17) 0.24637(14)
C4_2 C 0.4061(2) 0.72473(18) 0.32903(15)
C5_2 C 0.4531(2) 0.80510(18) 0.37291(14)
O7_2 O 0.3716(2) 0.17218(18) 0.46403(12)
C6_2 C 0.4681(2) 0.6652(2) 0.3060(2)
H1_2 H 0.5383 0.6755 0.3181
C7_2 C 0.3025(2) 0.7065(2) 0.3112(2)
H2_2 H 0.2602 0.7448 0.3268
H3_2 H 0.433(3) 0.5513(19) 0.065(2)
O8_2 O 0.43996(14) 0.50525(15) 0.04142(10)
C9_2 C 0.4256(2) 0.5911(2) 0.2655(2)
H4_2 H 0.4678 0.5517 0.2507
C11_2 C 0.3278(3) 0.3000(2) 0.23901(17)
H5_2 H 0.3348 0.2927 0.1946
C12_2 C 0.1014(2) 0.5478(3) 0.1055(2)
H6_2 H 0.1467 0.5862 0.0930
C14_2 C 0.2607(2) 0.6322(2) 0.2706(2)
H8_2 H 0.1908 0.6208 0.2594
C15_2 C 0.2874(4) 0.3913(2) 0.32388(19)
H9_2 H 0.2667 0.4466 0.3372
C16_2 C 0.3469(4) 0.2274(2) 0.28563(19)
H10_2 H 0.3667 0.1719 0.2720
C17_2 C 0.3069(4) 0.3184(3) 0.37016(18)
H11_2 H 0.2994 0.3254 0.4145
C19_2 C 0.0702(3) 0.4260(3) 0.1742(3)
H13_2 H 0.0937 0.3821 0.2087
H14_2 H 0.269(3) 0.2155(12) 0.065(3)
H15_2 H 0.1860(11) 0.260(3) 0.045(3)
O9_2 O 0.2544(5) 0.2752(4) 0.0635(3)
C20_2 C 0.3371(2) 0.2367(2) 0.35120(15)
C21_2 C 0.3595(2) 0.1573(2) 0.40105(16)
O14 O 0.75641(16) 0.45582(18) 0.07177(15)
Zn6_2 Zn 0.40155(2) 0.525197(19) 0.937866(15)
O11_2 O 0.21072(16) 0.43235(18) 0.99370(12)
O15_2 O 0.3716(2) 0.32782(18) 0.96403(12)
O16_2 O 0.56004(14) 0.49475(15) 0.95858(10)
O3_2 O 0.78928(16) 0.56765(18) 0.00630(12)
C8_2 C 0.9290(2) 0.4985(2) 0.08936(15)
C10_2 C 0.8146(2) 0.5076(2) 0.05306(15)
C13_2 C 0.9981(2) 0.5560(3) 0.07235(19)
H7_2 H 0.9741 0.6003 0.0382
C18_2 C 0.9659(3) 0.4340(3) 0.1394(3)
H12_2 H 0.9204 0.3945 0.1506
P1_3 P 0.27574(5) 0.02659(4) 0.69600(3)
O1_3 O 0.32999(14) 0.04079(13) 0.64290(9)
C1_3 C 0.29884(19) 0.11841(18) 0.75843(13)
C2_3 C 0.1396(2) 0.01653(18) 0.65746(14)
O4_2 O 0.36358(19) 0.41914(16) 0.87464(12)
C11_3 C 0.3278(3) 0.2000(2) 0.73901(17)
H5_3 H 0.3348 0.2073 0.6946
C15_3 C 0.2874(4) 0.1087(2) 0.82388(19)
H9_3 H 0.2667 0.0534 0.8372
C16_3 C 0.3469(4) 0.2726(2) 0.78563(19)
H10_3 H 0.3667 0.3281 0.7720
C17_3 C 0.3069(4) 0.1816(3) 0.87016(18)
H11_3 H 0.2994 0.1746 0.9145
C19_3 C 0.0702(3) 0.0740(3) 0.6742(3)
H13_3 H 0.0937 0.1179 0.7087
H14_3 H 0.269(3) 0.2845(12) 0.565(3)
H15_3 H 0.1860(11) 0.240(3) 0.545(3)
O9_3 O 0.2544(5) 0.2248(4) 0.5635(3)
C20_3 C 0.3371(2) 0.2633(2) 0.85120(15)
C21_3 C 0.3595(2) 0.3427(2) 0.90105(16)
O10_2 O 0.45182(17) 0.18585(14) 0.61301(12)
O13_2 O 0.60718(19) 0.14328(16) 0.60874(13)
O14_2 O 0.75641(16) 0.04418(18) 0.57177(15)
O2_2 O 0.54818(17) 0.68585(14) 0.88699(12)
C3_3 C 0.3216(2) 0.92542(17) 0.74637(14)
O5_2 O 0.39282(19) 0.64328(16) 0.89126(13)
C4_3 C 0.4061(2) 0.77527(18) 0.82903(15)
C5_3 C 0.4531(2) 0.69490(18) 0.87291(14)
C6_3 C 0.4681(2) 0.8348(2) 0.8060(2)
H1_3 H 0.5383 0.8245 0.8181
C7_3 C 0.3025(2) 0.7935(2) 0.8112(2)
H2_3 H 0.2602 0.7552 0.8268
H3_3 H 0.433(3) 0.9487(19) 0.565(2)
C9_3 C 0.4256(2) 0.9089(2) 0.7655(2)
H4_3 H 0.4678 0.9483 0.7507
C12_3 C 0.1014(2) 0.9522(3) 0.6055(2)
H6_3 H 0.1467 0.9138 0.5930
C14_3 C 0.2607(2) 0.8678(2) 0.7706(2)
H8_3 H 0.1908 0.8792 0.7594
O12_2 O 0.63642(19) 0.91914(16) 0.62536(12)
C8_3 C 0.9290(2) 0.0015(2) 0.58936(15)
C18_3 C 0.9659(3) 0.0660(3) 0.6394(3)
H12_3 H 0.9204 0.1055 0.6506
C10_3 C 0.8146(2) 0.9924(2) 0.55306(15)
C13_3 C 0.9981(2) 0.9440(3) 0.57235(19)
H7_3 H 0.9741 0.8997 0.5382
O6_2 O 0.24359(16) 0.54418(18) 0.92823(15)
C8_4 C 0.0710(2) 0.5015(2) 0.91064(15)
C10_4 C 0.1854(2) 0.4924(2) 0.94694(15)
C13_4 C 0.0019(2) 0.4440(3) 0.92765(19)
H7_4 H 0.0259 0.3997 0.9618
C18_4 C 0.0341(3) 0.5660(3) 0.8606(3)
H12_4 H 0.0796 0.6055 0.8494
P1_4 P 0.72426(5) 0.52659(4) 0.80400(3)
O1_4 O 0.67001(14) 0.54079(13) 0.85710(9)
C1_4 C 0.70116(19) 0.61841(18) 0.74157(13)
C2_4 C 0.8604(2) 0.51653(18) 0.84254(14)
C3_4 C 0.6784(2) 0.42542(17) 0.75363(14)
C4_4 C 0.5939(2) 0.27527(18) 0.67097(15)
C5_4 C 0.5469(2) 0.19490(18) 0.62709(14)
C6_4 C 0.5319(2) 0.3348(2) 0.6940(2)
H1_4 H 0.4617 0.3245 0.6819
C7_4 C 0.6975(2) 0.2935(2) 0.6888(2)
H2_4 H 0.7398 0.2552 0.6732
H3_4 H 0.567(3) 0.4487(19) 0.935(2)
C9_4 C 0.5744(2) 0.4089(2) 0.7345(2)
H4_4 H 0.5322 0.4483 0.7493
C11_4 C 0.6722(3) 0.7000(2) 0.76099(17)
H5_4 H 0.6652 0.7073 0.8054
C12_4 C 0.8986(2) 0.4522(3) 0.8945(2)
H6_4 H 0.8533 0.4138 0.9070
C14_4 C 0.7393(2) 0.3678(2) 0.7294(2)
H8_4 H 0.8092 0.3792 0.7406
C15_4 C 0.7126(4) 0.6087(2) 0.67612(19)
H9_4 H 0.7333 0.5534 0.6628
C16_4 C 0.6531(4) 0.7726(2) 0.71437(19)
H10_4 H 0.6333 0.8281 0.7280
C17_4 C 0.6931(4) 0.6816(3) 0.62984(18)
H11_4 H 0.7006 0.6746 0.5855
C19_4 C 0.9298(3) 0.5740(3) 0.8258(3)
H13_4 H 0.9063 0.6179 0.7913
H14_4 H 0.731(3) 0.7845(12) 0.935(3)
H15_4 H 0.8140(11) 0.740(3) 0.955(3)
O9_4 O 0.7456(5) 0.7248(4) 0.9365(3)
C20_4 C 0.6629(2) 0.7633(2) 0.64880(15)
C21_4 C 0.6405(2) 0.8427(2) 0.59895(16)
loop_
_geom_bond_atom_site_label_1
_geom_bond_atom_site_label_2
_geom_bond_site_symmetry_1
_geom_bond_site_symmetry_2
O3 C10 1_555 1_555
H7 C13 1_555 1_555
Zn8 O3 1_555 1_555
C18 C8 1_555 1_555
H12 C18 1_555 1_555
Zn3 O6 1_555 1_555
O2 C5 1_555 1_555
O5 C5 1_555 1_555
C4 C5 1_555 1_555
C6 C4 1_555 1_555
H1 C6 1_555 1_555
C7 C4 1_555 1_555
H2 C7 1_555 1_555
H3 O8 1_555 1_555
C9 C3 1_555 1_555
H4 C9 1_555 1_555
H6 C12 1_555 1_555
C14 C3 1_555 1_555
H8 C14 1_555 1_555
Zn5 O5 1_555 1_555
Zn6 O8 1_555 1_555
Zn7 O2 1_555 1_555
C6 C9 1_555 1_555
C7 C14 1_555 1_555
Zn2 O1 1_555 1_555
P1 O1 1_555 1_555
C1 P1 1_555 1_555
C2 P1 1_555 1_555
O4 C21 1_555 1_555
O7 C21 1_555 1_555
C11 C1 1_555 1_555
H5 C11 1_555 1_555
C15 C1 1_555 1_555
H9 C15 1_555 1_555
C16 C11 1_555 1_555
H10 C16 1_555 1_555
C17 C15 1_555 1_555
H11 C17 1_555 1_555
C19 C2 1_555 1_555
H13 C19 1_555 1_555
H14 O9 1_555 1_555
H15 O9 1_555 1_555
O9 Zn2 1_555 1_555
C20 C16 1_555 1_555
C21 C20 1_555 1_555
Zn5 O4 1_555 1_555
O10 Zn2 1_555 1_555
O11 Zn2 1_555 1_555
O13 Zn3 1_555 1_555
O15 Zn2 1_555 1_555
O16 Zn3 1_555 1_555
C17 C20 1_555 1_555
Zn5 O8_2 1_555 1_555
Zn7 O1_2 1_555 1_555
P1_2 O1_2 1_555 1_555
O10 C5_2 1_555 1_555
C1_2 P1_2 1_555 1_555
C2_2 P1_2 1_555 1_555
O12 C21_2 1_555 1_555
C3_2 P1_2 1_555 1_555
O13 C5_2 1_555 1_555
C4_2 C5_2 1_555 1_555
O7_2 C21_2 1_555 1_555
C6_2 C4_2 1_555 1_555
H1_2 C6_2 1_555 1_555
C7_2 C4_2 1_555 1_555
H2_2 C7_2 1_555 1_555
H3_2 O8_2 1_555 1_555
O8_2 Zn7 1_555 1_555
C9_2 C3_2 1_555 1_555
H4_2 C9_2 1_555 1_555
C11_2 C1_2 1_555 1_555
H5_2 C11_2 1_555 1_555
C12_2 C2_2 1_555 1_555
H6_2 C12_2 1_555 1_555
C14_2 C3_2 1_555 1_555
H8_2 C14_2 1_555 1_555
C15_2 C1_2 1_555 1_555
H9_2 C15_2 1_555 1_555
C16_2 C11_2 1_555 1_555
H10_2 C16_2 1_555 1_555
C17_2 C15_2 1_555 1_555
H11_2 C17_2 1_555 1_555
C19_2 C2_2 1_555 1_555
H13_2 C19_2 1_555 1_555
H14_2 O9_2 1_555 1_555
H15_2 O9_2 1_555 1_555
O9_2 Zn7 1_555 1_555
C20_2 C16_2 1_555 1_555
C21_2 C20_2 1_555 1_555
Zn8 O7_2 1_555 1_555
O14 Zn5 1_555 1_555
C6_2 C9_2 1_555 1_555
C7_2 C14_2 1_555 1_555
C17_2 C20_2 1_555 1_555
Zn6_2 O16_2 1_555 1_555
O3_2 C10_2 1_555 1_555
O14 C10_2 1_555 1_555
C8_2 C10_2 1_555 1_555
C13_2 C8_2 1_555 1_555
H7_2 C13_2 1_555 1_555
C18_2 C8_2 1_555 1_555
H12_2 C18_2 1_555 1_555
Zn8 O1_3 1_555 1_555
P1_3 O1_3 1_555 1_555
C1_3 P1_3 1_555 1_555
C2_3 P1_3 1_555 1_555
O4_2 C21_3 1_555 1_555
O15_2 C21_3 1_555 1_555
C11_3 C1_3 1_555 1_555
H5_3 C11_3 1_555 1_555
C15_3 C1_3 1_555 1_555
H9_3 C15_3 1_555 1_555
C16_3 C11_3 1_555 1_555
H10_3 C16_3 1_555 1_555
C17_3 C15_3 1_555 1_555
H11_3 C17_3 1_555 1_555
C19_3 C2_3 1_555 1_555
H13_3 C19_3 1_555 1_555
H14_3 O9_3 1_555 1_555
H15_3 O9_3 1_555 1_555
O9_3 Zn8 1_555 1_555
C20_3 C16_3 1_555 1_555
C21_3 C20_3 1_555 1_555
Zn6_2 O4_2 1_555 1_555
O10_2 Zn8 1_555 1_555
O13_2 Zn6 1_555 1_555
O14_2 Zn6 1_555 1_555
C17_3 C20_3 1_555 1_555
O2_2 C5_3 1_555 1_555
O5_2 C5_3 1_555 1_555
C4_3 C5_3 1_555 1_555
C6_3 C4_3 1_555 1_555
H1_3 C6_3 1_555 1_555
C7_3 C4_3 1_555 1_555
H2_3 C7_3 1_555 1_555
H3_3 O16 1_555 1_555
C9_3 C3_3 1_555 1_555
H4_3 C9_3 1_555 1_555
H6_3 C12_3 1_555 1_555
C14_3 C3_3 1_555 1_555
H8_3 C14_3 1_555 1_555
Zn6_2 O5_2 1_555 1_555
Zn9 O2_2 1_555 1_555
C6_3 C9_3 1_555 1_555
C7_3 C14_3 1_555 1_555
C18_3 C8_3 1_555 1_555
H12_3 C18_3 1_555 1_555
O11 C10_3 1_555 1_555
H7_3 C13_3 1_555 1_555
O11_2 C10_4 1_555 1_555
O6_2 C10_4 1_555 1_555
C8_4 C10_4 1_555 1_555
C13_4 C8_4 1_555 1_555
H7_4 C13_4 1_555 1_555
C18_4 C8_4 1_555 1_555
H12_4 C18_4 1_555 1_555
Zn6_2 O6_2 1_555 1_555
Zn9 O1_4 1_555 1_555
P1_4 O1_4 1_555 1_555
O10_2 C5_4 1_555 1_555
C1_4 P1_4 1_555 1_555
C2_4 P1_4 1_555 1_555
O12_2 C21_4 1_555 1_555
C3_4 P1_4 1_555 1_555
O13_2 C5_4 1_555 1_555
C4_4 C5_4 1_555 1_555
O15 C21_4 1_555 1_555
C6_4 C4_4 1_555 1_555
H1_4 C6_4 1_555 1_555
C7_4 C4_4 1_555 1_555
H2_4 C7_4 1_555 1_555
H3_4 O16_2 1_555 1_555
O16_2 Zn9 1_555 1_555
C9_4 C3_4 1_555 1_555
H4_4 C9_4 1_555 1_555
C11_4 C1_4 1_555 1_555
H5_4 C11_4 1_555 1_555
C12_4 C2_4 1_555 1_555
H6_4 C12_4 1_555 1_555
C14_4 C3_4 1_555 1_555
H8_4 C14_4 1_555 1_555
C15_4 C1_4 1_555 1_555
H9_4 C15_4 1_555 1_555
C16_4 C11_4 1_555 1_555
H10_4 C16_4 1_555 1_555
C17_4 C15_4 1_555 1_555
H11_4 C17_4 1_555 1_555
C19_4 C2_4 1_555 1_555
H13_4 C19_4 1_555 1_555
H14_4 O9_4 1_555 1_555
H15_4 O9_4 1_555 1_555
O9_4 Zn9 1_555 1_555
C20_4 C16_4 1_555 1_555
C21_4 C20_4 1_555 1_555
C6_4 C9_4 1_555 1_555
C7_4 C14_4 1_555 1_555
C17_4 C20_4 1_555 1_555

#END
