
###############################################################################
#
# This file contains modified crystal structure data generated from the
# MOF subset of the Cambridge Structural Database (CSD) v543 
# hosted by the Cambridge Crystallographic Data Centre (CCDC).
#
# This work is licensed under the Creative Commons
# Attribution-NonCommercial-ShareAlike 4.0 International License.
# To view a copy of this license, visit
# http://creativecommons.org/licenses/by-nc-sa/4.0/
# or send a letter to
# Creative Commons, PO Box 1866, Mountain View, CA 94042, USA.
#
# CIF created using the CSD Python API on 29 September 2022
# The structure has been converted into the P1 space group
# The structure has a 3D framework
# The original CSD entry NIZNOC is in the orthorhombic crystal system
# The framework has been calculated to contain at least 10.0% void space
# The void calculation uses a probe of radius 1.32A, grid spacing 0.4
# H atom positions have been added when not included in the experimental data
# Generated hydrogen atom positions removed from atoms on special positions
#
###############################################################################

data_NIZNOC
_chemical_formula_moiety         '(C408 H318 N34 O88 Y12)n'
_symmetry_cell_setting           triclinic
_symmetry_space_group_name_H-M   'P 1'
_symmetry_Int_Tables_number      1
_space_group_name_Hall           'P 1'
loop_
_symmetry_equiv_pos_site_id
_symmetry_equiv_pos_as_xyz
1 x,y,z
_cell_length_a                   34.7478(7)
_cell_length_b                   35.0023(8)
_cell_length_c                   20.0699(6)
_cell_angle_alpha                90
_cell_angle_beta                 90
_cell_angle_gamma                90
_cell_volume                     24410.1
loop_
_atom_site_label
_atom_site_type_symbol
_atom_site_fract_x
_atom_site_fract_y
_atom_site_fract_z
N2 N 0.44241(11) 0.00804(12) 0.0000
N3 N 0.00203(11) 0.05892(14) 0.0000
O19 O 0.27317(11) 0.20306(10) 0.35933(19)
O20 O 0.28450(10) 0.22111(11) 0.2580(2)
N6 N 0.5000 0.0000 0.1018(2)
C78 C 0.48077(11) 0.00242(13) 0.2104(2)
H42 H 0.4651 0.0044 0.2479
C79 C 0.46829(11) 0.00408(11) 0.1422(2)
C80 C 0.43072(10) 0.00934(10) 0.1213(2)
C81 C 0.41906(10) 0.01115(11) 0.0549(2)
C82 C 0.37986(11) 0.01558(12) 0.03284(19)
H43 H 0.3584 0.0180 0.0601
C83 C 0.40020(10) 0.01248(12) 0.1731(2)
C84 C 0.38587(11) 0.04751(12) 0.1914(2)
H44 H 0.3961 0.0694 0.1719
C85 C 0.35638(12) 0.05145(13) 0.2385(2)
C86 C 0.34183(12) 0.01859(12) 0.2676(2)
H45 H 0.3225 0.0206 0.2995
C96 C 0.34038(12) 0.08872(14) 0.2558(3)
C97 C 0.33647(15) 0.11727(16) 0.2092(3)
H51 H 0.3447 0.1124 0.1660
C98 C 0.32081(15) 0.15321(16) 0.2233(3)
H52 H 0.3202 0.1723 0.1910
C99 C 0.30624(14) 0.15966(14) 0.2870(3)
C100 C 0.31054(15) 0.13254(16) 0.3344(3)
H53 H 0.3025 0.1376 0.3777
C101 C 0.32692(15) 0.09685(16) 0.3196(3)
H54 H 0.3288 0.0784 0.3528
C102 C 0.28726(14) 0.19673(14) 0.3055(4)
O21 O 0.71204(9) 0.18233(10) 0.33724(19)
O22 O 0.73905(12) 0.14538(10) 0.4086(3)
C112 C 0.64466(12) 0.01665(13) 0.2502(2)
C113 C 0.61510(11) 0.01948(12) 0.2031(2)
H59 H 0.6056 0.0435 0.1918
C114 C 0.66095(12) 0.05312(14) 0.2806(3)
C115 C 0.67825(18) 0.05220(15) 0.3415(3)
H60 H 0.6782 0.0296 0.3659
C116 C 0.69609(18) 0.08451(17) 0.3676(3)
H61 H 0.7083 0.0829 0.4087
C117 C 0.69616(14) 0.11787(14) 0.3351(3)
C118 C 0.67881(15) 0.11864(14) 0.2765(3)
H62 H 0.6785 0.1415 0.2529
C119 C 0.66129(16) 0.08761(14) 0.2488(3)
H63 H 0.6493 0.0900 0.2076
C120 C 0.71607(16) 0.15219(18) 0.3617(3)
O31 O 0.19912(11) 0.23231(14) 0.2583(2)
O32 O 0.18412(9) 0.23605(11) 0.36240(19)
N8 N -0.0000 0.0000 0.1008(2)
C153 C 0.00178(11) 0.12043(12) 0.0333(2)
H81 H 0.0020 0.1420 0.0605
C154 C 0.00135(9) 0.08164(12) 0.0555(2)
C155 C 0.00090(9) 0.06954(13) 0.1206(2)
C156 C 0.00038(9) 0.03122(13) 0.1412(2)
C158 C 0.00121(10) 0.09959(12) 0.1733(2)
C161 C 0.00083(11) 0.15554(13) 0.2716(2)
H84 H 0.0009 0.1744 0.3043
C162 C 0.03553(11) 0.14541(13) 0.2419(2)
C163 C 0.03493(11) 0.11782(12) 0.1920(2)
H85 H 0.0578 0.1114 0.1706
C171 C 0.07204(12) 0.16609(14) 0.2582(3)
C172 C 0.07916(13) 0.17908(18) 0.3198(3)
H90 H 0.0609 0.1755 0.3531
C173 C 0.11394(15) 0.19819(16) 0.3349(3)
H91 H 0.1176 0.2073 0.3779
C174 C 0.14038(13) 0.20333(15) 0.2919(3)
C175 C 0.13299(14) 0.19277(19) 0.2268(3)
H92 H 0.1511 0.1983 0.1941
C176 C 0.09913(15) 0.17412(19) 0.2088(3)
H93 H 0.0947 0.1672 0.1647
C177 C 0.17655(13) 0.22433(16) 0.3088(4)
Y10 Y 0.745136(9) 0.238290(10) 0.32652(2)
Y13 Y 0.245136(9) 0.261710(10) 0.32652(2)
Y22 Y 0.766807(14) 0.170503(15) 0.5000
H111 H 4.526e-20 1.77562e-18 0.0502268
H129 H 0.471361 0.00418399 2.22045e-16
Y1 Y 0.245136(9) 0.261710(10) 0.67348(2)
Y2 Y 0.266807(14) 0.329497(15) 0.5000
O3 O 0.27317(11) 0.20306(10) 0.64067(19)
O4 O 0.28450(10) 0.22111(11) 0.7420(2)
O7 O 0.19912(11) 0.23231(14) 0.7417(2)
O8 O 0.18412(9) 0.23605(11) 0.63760(19)
O9 O 0.24850(6) 0.26894(6) 0.55455(14)
O10 O 0.25196(13) 0.29532(11) 0.7792(2)
O11 O 0.1911(2) 0.3239(2) 0.5000
O12 O 0.29056(17) 0.39436(15) 0.5000
N1 N 0.5000 0.0000 0.8982(2)
N2_2 N 0.44241(11) 0.00804(12) 1.0000
N3_2 N 0.00203(11) 0.05892(14) 1.0000
N4 N -0.0000 0.0000 0.8992(2)
C1 C 0.48077(11) 0.00242(13) 0.7896(2)
H1 H 0.4651 0.0044 0.7521
C2 C 0.46829(11) 0.00408(11) 0.8578(2)
C3 C 0.43072(10) 0.00934(10) 0.8787(2)
C4 C 0.41906(10) 0.01115(11) 0.9451(2)
C5 C 0.37986(11) 0.01558(12) 0.96716(19)
H2 H 0.3584 0.0180 0.9399
C6 C 0.40020(10) 0.01248(12) 0.8269(2)
C7 C 0.38587(11) 0.04751(12) 0.8086(2)
H3 H 0.3961 0.0694 0.8281
C8 C 0.35638(12) 0.05145(13) 0.7615(2)
C9 C 0.34183(12) 0.01859(12) 0.7324(2)
H4 H 0.3225 0.0206 0.7005
C19 C 0.34038(12) 0.08872(14) 0.7442(3)
C20 C 0.33647(15) 0.11727(16) 0.7908(3)
H10 H 0.3447 0.1124 0.8340
C21 C 0.32081(15) 0.15321(16) 0.7767(3)
H11 H 0.3202 0.1723 0.8090
C22 C 0.30624(14) 0.15966(14) 0.7130(3)
C23 C 0.31054(15) 0.13254(16) 0.6656(3)
H12 H 0.3025 0.1376 0.6223
C24 C 0.32692(15) 0.09685(16) 0.6804(3)
H13 H 0.3288 0.0784 0.6472
C25 C 0.28726(14) 0.19673(14) 0.6945(4)
C26 C 0.00178(11) 0.12043(12) 0.9667(2)
H14 H 0.0020 0.1420 0.9395
C27 C 0.00135(9) 0.08164(12) 0.9445(2)
C28 C 0.00090(9) 0.06954(13) 0.8794(2)
C29 C 0.00038(9) 0.03122(13) 0.8588(2)
C31 C 0.00121(10) 0.09959(12) 0.8267(2)
C34 C 0.00083(11) 0.15554(13) 0.7284(2)
H17 H 0.0009 0.1744 0.6957
C35 C 0.03553(11) 0.14541(13) 0.7581(2)
C36 C 0.03493(11) 0.11782(12) 0.8080(2)
H18 H 0.0578 0.1114 0.8294
C44 C 0.07204(12) 0.16609(14) 0.7418(3)
C45 C 0.07916(13) 0.17908(18) 0.6802(3)
H23 H 0.0609 0.1755 0.6469
C46 C 0.11394(15) 0.19819(16) 0.6651(3)
H24 H 0.1176 0.2073 0.6221
C47 C 0.14038(13) 0.20333(15) 0.7081(3)
C48 C 0.13299(14) 0.19277(19) 0.7732(3)
H25 H 0.1511 0.1983 0.8059
C49 C 0.09913(15) 0.17412(19) 0.7912(3)
H26 H 0.0947 0.1672 0.8353
C50 C 0.17655(13) 0.22433(16) 0.6912(4)
C51 C 0.24288(13) 0.25150(16) 0.5000
C52 C 0.22843(18) 0.21016(18) 0.5000
H27 H 0.2497 0.1930 0.5000
H28 H 0.2129 0.2058 0.5391
O13 O 0.71204(9) 0.18233(10) 0.66276(19)
O14 O 0.73905(12) 0.14538(10) 0.5914(3)
C62 C 0.64466(12) 0.01665(13) 0.7498(2)
C63 C 0.61510(11) 0.01948(12) 0.7969(2)
H33 H 0.6056 0.0435 0.8082
C64 C 0.66095(12) 0.05312(14) 0.7194(3)
C65 C 0.67825(18) 0.05220(15) 0.6585(3)
H34 H 0.6782 0.0296 0.6341
C66 C 0.69609(18) 0.08451(17) 0.6324(3)
H35 H 0.7083 0.0829 0.5913
C67 C 0.69616(14) 0.11787(14) 0.6649(3)
C68 C 0.67881(15) 0.11864(14) 0.7235(3)
H36 H 0.6785 0.1415 0.7471
C69 C 0.66129(16) 0.08761(14) 0.7512(3)
H37 H 0.6493 0.0900 0.7924
C70 C 0.71607(16) 0.15219(18) 0.6383(3)
O37 O 0.24850(6) 0.26894(6) 0.44545(14)
H107 H 0.2129 0.2058 0.4609
O44 O 0.25196(13) 0.29532(11) 0.2208(2)
Y15 Y 0.745136(9) 0.238290(10) 0.67348(2)
O45 O 0.21204(9) 0.31767(10) 0.33724(19)
O48 O 0.21204(9) 0.31767(10) 0.66276(19)
O49 O 0.23905(12) 0.35462(10) 0.4086(3)
O52 O 0.23905(12) 0.35462(10) 0.5914(3)
O60 O 0.30210(9) 0.29300(10) 0.33752(18)
O61 O 0.30210(9) 0.29300(10) 0.66248(18)
O64 O 0.31652(9) 0.32280(14) 0.4310(3)
O65 O 0.31652(9) 0.32280(14) 0.5690(3)
H124 H 3.97823e-20 -1.77562e-18 0.949773
H129_2 H 0.471361 0.00418399 1
N5 N 0.55759(11) 0.99196(12) 0.0000
O17 O 0.28796(9) 0.81767(10) 0.33724(19)
O18 O 0.26095(12) 0.85462(10) 0.4086(3)
N6_2 N 0.5000 1.0000 0.1018(2)
C87 C 0.35534(12) 0.98335(13) 0.2502(2)
C88 C 0.38490(11) 0.98052(12) 0.2031(2)
H46 H 0.3944 0.9565 0.1918
C89 C 0.33905(12) 0.94688(14) 0.2806(3)
C90 C 0.32175(18) 0.94780(15) 0.3415(3)
H47 H 0.3218 0.9704 0.3659
C91 C 0.30391(18) 0.91549(17) 0.3676(3)
H48 H 0.2917 0.9171 0.4087
C92 C 0.30384(14) 0.88213(14) 0.3351(3)
C93 C 0.32119(15) 0.88136(14) 0.2765(3)
H49 H 0.3215 0.8585 0.2529
C94 C 0.33871(16) 0.91239(14) 0.2488(3)
H50 H 0.3507 0.9100 0.2076
C95 C 0.28393(16) 0.84781(18) 0.3617(3)
O23 O 0.72683(11) 0.79694(10) 0.35933(19)
O24 O 0.71550(10) 0.77889(11) 0.2580(2)
C103 C 0.51923(11) 0.99758(13) 0.2104(2)
H55 H 0.5349 0.9956 0.2479
C104 C 0.53171(11) 0.99592(11) 0.1422(2)
C105 C 0.56928(10) 0.99066(10) 0.1213(2)
C106 C 0.58094(10) 0.98885(11) 0.0549(2)
C107 C 0.62014(11) 0.98442(12) 0.03284(19)
H56 H 0.6416 0.9820 0.0601
C108 C 0.59980(10) 0.98752(12) 0.1731(2)
C109 C 0.61413(11) 0.95249(12) 0.1914(2)
H57 H 0.6039 0.9306 0.1719
C110 C 0.64362(12) 0.94855(13) 0.2385(2)
C111 C 0.65817(12) 0.98141(12) 0.2676(2)
H58 H 0.6775 0.9794 0.2995
C121 C 0.65962(12) 0.91128(14) 0.2558(3)
C122 C 0.66353(15) 0.88273(16) 0.2092(3)
H64 H 0.6553 0.8876 0.1660
C123 C 0.67919(15) 0.84679(16) 0.2233(3)
H65 H 0.6798 0.8277 0.1910
C124 C 0.69376(14) 0.84034(14) 0.2870(3)
C125 C 0.68946(15) 0.86746(16) 0.3344(3)
H66 H 0.6975 0.8624 0.3777
C126 C 0.67308(15) 0.90315(16) 0.3196(3)
H67 H 0.6712 0.9216 0.3528
C127 C 0.71274(14) 0.80327(14) 0.3055(4)
N8_2 N -0.0000 1.0000 0.1008(2)
O33 O 0.19790(9) 0.79300(10) 0.33752(18)
O34 O 0.18348(9) 0.82280(14) 0.4310(3)
C182 C 0.00032(13) 0.98093(11) 0.2087(2)
H95 H 0.0011 0.9652 0.2460
C184 C 0.03316(11) 0.88971(12) 0.2048(2)
H96 H 0.0560 0.9016 0.1927
C185 C 0.03366(11) 0.86138(13) 0.2543(2)
C189 C 0.06988(12) 0.84928(15) 0.2842(3)
C190 C 0.10043(17) 0.8390(2) 0.2489(3)
H99 H 0.0991 0.8407 0.2027
C191 C 0.13442(16) 0.8258(2) 0.2777(3)
H100 H 0.1537 0.8163 0.2501
C192 C 0.14018(12) 0.82615(14) 0.3411(3)
C193 C 0.10931(17) 0.8352(2) 0.3784(3)
H101 H 0.1115 0.8332 0.4245
C194 C 0.07455(15) 0.8473(2) 0.3522(4)
H102 H 0.0544 0.8540 0.3804
C195 C 0.17739(14) 0.81261(17) 0.3715(4)
Y8 Y 0.254864(9) 0.761710(10) 0.32652(2)
Y12 Y 0.754864(9) 0.738290(10) 0.32652(2)
Y18 Y 0.233193(14) 0.829497(15) 0.5000
H111_2 H 4.526e-20 1 0.0502268
H130 H 0.528639 0.995816 2.22045e-16
O1 O 0.28796(9) 0.81767(10) 0.66276(19)
O2 O 0.26095(12) 0.85462(10) 0.5914(3)
N1_2 N 0.5000 1.0000 0.8982(2)
N4_2 N -0.0000 1.0000 0.8992(2)
C10 C 0.35534(12) 0.98335(13) 0.7498(2)
C11 C 0.38490(11) 0.98052(12) 0.7969(2)
H5 H 0.3944 0.9565 0.8082
C12 C 0.33905(12) 0.94688(14) 0.7194(3)
C13 C 0.32175(18) 0.94780(15) 0.6585(3)
H6 H 0.3218 0.9704 0.6341
C14 C 0.30391(18) 0.91549(17) 0.6324(3)
H7 H 0.2917 0.9171 0.5913
C15 C 0.30384(14) 0.88213(14) 0.6649(3)
C16 C 0.32119(15) 0.88136(14) 0.7235(3)
H8 H 0.3215 0.8585 0.7471
C17 C 0.33871(16) 0.91239(14) 0.7512(3)
H9 H 0.3507 0.9100 0.7924
C18 C 0.28393(16) 0.84781(18) 0.6383(3)
O15 O 0.72683(11) 0.79694(10) 0.64067(19)
O16 O 0.71550(10) 0.77889(11) 0.7420(2)
N5_2 N 0.55759(11) 0.99196(12) 1.0000
C53 C 0.51923(11) 0.99758(13) 0.7896(2)
H29 H 0.5349 0.9956 0.7521
C54 C 0.53171(11) 0.99592(11) 0.8578(2)
C55 C 0.56928(10) 0.99066(10) 0.8787(2)
C56 C 0.58094(10) 0.98885(11) 0.9451(2)
C57 C 0.62014(11) 0.98442(12) 0.96716(19)
H30 H 0.6416 0.9820 0.9399
C58 C 0.59980(10) 0.98752(12) 0.8269(2)
C59 C 0.61413(11) 0.95249(12) 0.8086(2)
H31 H 0.6039 0.9306 0.8281
C60 C 0.64362(12) 0.94855(13) 0.7615(2)
C61 C 0.65817(12) 0.98141(12) 0.7324(2)
H32 H 0.6775 0.9794 0.7005
C71 C 0.65962(12) 0.91128(14) 0.7442(3)
C72 C 0.66353(15) 0.88273(16) 0.7908(3)
H38 H 0.6553 0.8876 0.8340
C73 C 0.67919(15) 0.84679(16) 0.7767(3)
H39 H 0.6798 0.8277 0.8090
C74 C 0.69376(14) 0.84034(14) 0.7130(3)
C75 C 0.68946(15) 0.86746(16) 0.6656(3)
H40 H 0.6975 0.8624 0.6223
C76 C 0.67308(15) 0.90315(16) 0.6804(3)
H41 H 0.6712 0.9216 0.6472
C77 C 0.71274(14) 0.80327(14) 0.6945(4)
O25 O 0.19790(9) 0.79300(10) 0.66248(18)
O26 O 0.18348(9) 0.82280(14) 0.5690(3)
C132 C 0.00032(13) 0.98093(11) 0.7913(2)
H69 H 0.0011 0.9652 0.7540
C134 C 0.03316(11) 0.88971(12) 0.7952(2)
H70 H 0.0560 0.9016 0.8073
C135 C 0.03366(11) 0.86138(13) 0.7457(2)
C139 C 0.06988(12) 0.84928(15) 0.7158(3)
C140 C 0.10043(17) 0.8390(2) 0.7511(3)
H73 H 0.0991 0.8407 0.7973
C141 C 0.13442(16) 0.8258(2) 0.7223(3)
H74 H 0.1537 0.8163 0.7499
C142 C 0.14018(12) 0.82615(14) 0.6589(3)
C143 C 0.10931(17) 0.8352(2) 0.6216(3)
H75 H 0.1115 0.8332 0.5755
C144 C 0.07455(15) 0.8473(2) 0.6478(4)
H76 H 0.0544 0.8540 0.6196
C145 C 0.17739(14) 0.81261(17) 0.6285(4)
Y7 Y 0.754864(9) 0.738290(10) 0.67348(2)
Y16 Y 0.254864(9) 0.761710(10) 0.67348(2)
H124_2 H 3.97823e-20 1 0.949773
H130_2 H 0.528639 0.995816 1
O29 O 0.80210(9) 0.20700(10) 0.33752(18)
O30 O 0.81652(9) 0.17720(14) 0.4310(3)
N8_3 N 1.0000 0.0000 0.1008(2)
C157 C 0.99968(13) 0.01907(11) 0.2087(2)
H82 H 0.9989 0.0348 0.2460
C159 C 0.96684(11) 0.11029(12) 0.2048(2)
H83 H 0.9440 0.0984 0.1927
C160 C 0.96634(11) 0.13862(13) 0.2543(2)
C164 C 0.93012(12) 0.15072(15) 0.2842(3)
C165 C 0.89957(17) 0.1610(2) 0.2489(3)
H86 H 0.9009 0.1593 0.2027
C166 C 0.86558(16) 0.1742(2) 0.2777(3)
H87 H 0.8463 0.1837 0.2501
C167 C 0.85982(12) 0.17385(14) 0.3411(3)
C168 C 0.89069(17) 0.1648(2) 0.3784(3)
H88 H 0.8885 0.1668 0.4245
C169 C 0.92545(15) 0.1527(2) 0.3522(4)
H89 H 0.9456 0.1460 0.3804
C170 C 0.82261(14) 0.18739(17) 0.3715(4)
H111_3 H 1 1.77562e-18 0.0502268
O5 O 0.80210(9) 0.20700(10) 0.66248(18)
O6 O 0.81652(9) 0.17720(14) 0.5690(3)
N4_3 N 1.0000 0.0000 0.8992(2)
C30 C 0.99968(13) 0.01907(11) 0.7913(2)
H15 H 0.9989 0.0348 0.7540
C32 C 0.96684(11) 0.11029(12) 0.7952(2)
H16 H 0.9440 0.0984 0.8073
C33 C 0.96634(11) 0.13862(13) 0.7457(2)
C37 C 0.93012(12) 0.15072(15) 0.7158(3)
C38 C 0.89957(17) 0.1610(2) 0.7511(3)
H19 H 0.9009 0.1593 0.7973
C39 C 0.86558(16) 0.1742(2) 0.7223(3)
H20 H 0.8463 0.1837 0.7499
C40 C 0.85982(12) 0.17385(14) 0.6589(3)
C41 C 0.89069(17) 0.1648(2) 0.6216(3)
H21 H 0.8885 0.1668 0.5755
C42 C 0.92545(15) 0.1527(2) 0.6478(4)
H22 H 0.9456 0.1460 0.6196
C43 C 0.82261(14) 0.18739(17) 0.6285(4)
H124_3 H 1 -1.77562e-18 0.949773
N7 N 0.99797(11) 0.94108(14) 0.0000
N8_4 N 1.0000 1.0000 0.1008(2)
O35 O 0.80088(11) 0.76769(14) 0.2583(2)
O36 O 0.81588(9) 0.76395(11) 0.36240(19)
C178 C 0.99822(11) 0.87957(12) 0.0333(2)
H94 H 0.9980 0.8580 0.0605
C179 C 0.99865(9) 0.91836(12) 0.0555(2)
C180 C 0.99910(9) 0.93046(13) 0.1206(2)
C181 C 0.99962(9) 0.96878(13) 0.1412(2)
C183 C 0.99879(10) 0.90041(12) 0.1733(2)
C186 C 0.99917(11) 0.84446(13) 0.2716(2)
H97 H 0.9991 0.8256 0.3043
C187 C 0.96447(11) 0.85459(13) 0.2419(2)
C188 C 0.96507(11) 0.88218(12) 0.1920(2)
H98 H 0.9422 0.8886 0.1706
C196 C 0.92796(12) 0.83391(14) 0.2582(3)
C197 C 0.92084(13) 0.82092(18) 0.3198(3)
H103 H 0.9391 0.8245 0.3531
C198 C 0.88606(15) 0.80181(16) 0.3349(3)
H104 H 0.8824 0.7927 0.3779
C199 C 0.85962(13) 0.79667(15) 0.2919(3)
C200 C 0.86701(14) 0.80723(19) 0.2268(3)
H105 H 0.8489 0.8017 0.1941
C201 C 0.90087(15) 0.82588(19) 0.2088(3)
H106 H 0.9053 0.8328 0.1647
C202 C 0.82345(13) 0.77567(16) 0.3088(4)
H111_4 H 1 1 0.0502268
N4_4 N 1.0000 1.0000 0.8992(2)
O27 O 0.80088(11) 0.76769(14) 0.7417(2)
O28 O 0.81588(9) 0.76395(11) 0.63760(19)
N7_2 N 0.99797(11) 0.94108(14) 1.0000
C128 C 0.99822(11) 0.87957(12) 0.9667(2)
H68 H 0.9980 0.8580 0.9395
C129 C 0.99865(9) 0.91836(12) 0.9445(2)
C130 C 0.99910(9) 0.93046(13) 0.8794(2)
C131 C 0.99962(9) 0.96878(13) 0.8588(2)
C133 C 0.99879(10) 0.90041(12) 0.8267(2)
C136 C 0.99917(11) 0.84446(13) 0.7284(2)
H71 H 0.9991 0.8256 0.6957
C137 C 0.96447(11) 0.85459(13) 0.7581(2)
C138 C 0.96507(11) 0.88218(12) 0.8080(2)
H72 H 0.9422 0.8886 0.8294
C146 C 0.92796(12) 0.83391(14) 0.7418(3)
C147 C 0.92084(13) 0.82092(18) 0.6802(3)
H77 H 0.9391 0.8245 0.6469
C148 C 0.88606(15) 0.80181(16) 0.6651(3)
H78 H 0.8824 0.7927 0.6221
C149 C 0.85962(13) 0.79667(15) 0.7081(3)
C150 C 0.86701(14) 0.80723(19) 0.7732(3)
H79 H 0.8489 0.8017 0.8059
C151 C 0.90087(15) 0.82588(19) 0.7912(3)
H80 H 0.9053 0.8328 0.8353
C152 C 0.82345(13) 0.77567(16) 0.6912(4)
Y4 Y 0.733193(14) 0.670503(15) 0.5000
O38 O 0.75150(6) 0.73106(6) 0.55455(14)
O39 O 0.74804(13) 0.70468(11) 0.7792(2)
O40 O 0.8089(2) 0.6761(2) 0.5000
O41 O 0.70944(17) 0.60564(15) 0.5000
C203 C 0.75712(13) 0.74850(16) 0.5000
C204 C 0.77157(18) 0.78984(18) 0.5000
H108 H 0.7503 0.8070 0.5000
H109 H 0.7871 0.7942 0.5391
O42 O 0.75150(6) 0.73106(6) 0.44545(14)
H110 H 0.7871 0.7942 0.4609
O43 O 0.74804(13) 0.70468(11) 0.2208(2)
O46 O 0.78796(9) 0.68233(10) 0.33724(19)
O47 O 0.78796(9) 0.68233(10) 0.66276(19)
O50 O 0.76095(12) 0.64538(10) 0.4086(3)
O51 O 0.76095(12) 0.64538(10) 0.5914(3)
O59 O 0.69790(9) 0.70700(10) 0.33752(18)
O62 O 0.69790(9) 0.70700(10) 0.66248(18)
O63 O 0.68348(9) 0.67720(14) 0.4310(3)
O66 O 0.68348(9) 0.67720(14) 0.5690(3)
H124_4 H 1 1 0.949773
O3_2 O 0.22683(11) 0.70306(10) 0.35933(19)
O4_2 O 0.21550(10) 0.72111(11) 0.2580(2)
O7_2 O 0.30088(11) 0.73231(14) 0.2583(2)
O8_2 O 0.31588(9) 0.73605(11) 0.36240(19)
O9_2 O 0.25150(6) 0.76894(6) 0.44545(14)
O10_2 O 0.24804(13) 0.79532(11) 0.2208(2)
O11_2 O 0.3089(2) 0.8239(2) 0.5000
O12_2 O 0.20944(17) 0.89436(15) 0.5000
N1_3 N 0.0000 0.5000 0.1018(2)
N2_3 N 0.05759(11) 0.50804(12) -0.0000
N3_3 N 0.49797(11) 0.55892(14) -0.0000
N4_5 N 0.5000 0.5000 0.1008(2)
C1_2 C 0.01923(11) 0.50242(13) 0.2104(2)
H1_2 H 0.0349 0.5044 0.2479
C2_2 C 0.03171(11) 0.50408(11) 0.1422(2)
C3_2 C 0.06928(10) 0.50934(10) 0.1213(2)
C4_2 C 0.08094(10) 0.51115(11) 0.0549(2)
C5_2 C 0.12014(11) 0.51558(12) 0.03284(19)
H2_2 H 0.1416 0.5180 0.0601
C6_2 C 0.09980(10) 0.51248(12) 0.1731(2)
C7_2 C 0.11413(11) 0.54751(12) 0.1914(2)
H3_2 H 0.1039 0.5694 0.1719
C8_2 C 0.14362(12) 0.55145(13) 0.2385(2)
C9_2 C 0.15817(12) 0.51859(12) 0.2676(2)
H4_2 H 0.1775 0.5206 0.2995
C10_2 C 0.14466(12) 0.48335(13) 0.2502(2)
C11_2 C 0.11510(11) 0.48052(12) 0.2031(2)
H5_2 H 0.1056 0.4565 0.1918
C12_2 C 0.16095(12) 0.44688(14) 0.2806(3)
C13_2 C 0.17825(18) 0.44780(15) 0.3415(3)
H6_2 H 0.1782 0.4704 0.3659
C14_2 C 0.19609(18) 0.41549(17) 0.3676(3)
H7_2 H 0.2083 0.4171 0.4087
C15_2 C 0.19616(14) 0.38213(14) 0.3351(3)
C16_2 C 0.17881(15) 0.38136(14) 0.2765(3)
H8_2 H 0.1785 0.3585 0.2529
C17_2 C 0.16129(16) 0.41239(14) 0.2488(3)
H9_2 H 0.1493 0.4100 0.2076
C18_2 C 0.21607(16) 0.34781(18) 0.3617(3)
C19_2 C 0.15962(12) 0.58872(14) 0.2558(3)
C20_2 C 0.16353(15) 0.61727(16) 0.2092(3)
H10_2 H 0.1553 0.6124 0.1660
C21_2 C 0.17919(15) 0.65321(16) 0.2233(3)
H11_2 H 0.1798 0.6723 0.1910
C22_2 C 0.19376(14) 0.65966(14) 0.2870(3)
C23_2 C 0.18946(15) 0.63254(16) 0.3344(3)
H12_2 H 0.1975 0.6376 0.3777
C24_2 C 0.17308(15) 0.59685(16) 0.3196(3)
H13_2 H 0.1712 0.5784 0.3528
C25_2 C 0.21274(14) 0.69673(14) 0.3055(4)
C26_2 C 0.49822(11) 0.62043(12) 0.0333(2)
H14_2 H 0.4980 0.6420 0.0605
C27_2 C 0.49865(9) 0.58164(12) 0.0555(2)
C28_2 C 0.49910(9) 0.56954(13) 0.1206(2)
C29_2 C 0.49962(9) 0.53122(13) 0.1412(2)
C30_2 C 0.50032(13) 0.51907(11) 0.2087(2)
H15_2 H 0.5011 0.5348 0.2460
C31_2 C 0.49879(10) 0.59959(12) 0.1733(2)
C32_2 C 0.53316(11) 0.61029(12) 0.2048(2)
H16_2 H 0.5560 0.5984 0.1927
C33_2 C 0.53366(11) 0.63862(13) 0.2543(2)
C34_2 C 0.49917(11) 0.65554(13) 0.2716(2)
H17_2 H 0.4991 0.6744 0.3043
C35_2 C 0.46447(11) 0.64541(13) 0.2419(2)
C36_2 C 0.46507(11) 0.61782(12) 0.1920(2)
H18_2 H 0.4422 0.6114 0.1706
C37_2 C 0.56988(12) 0.65072(15) 0.2842(3)
C38_2 C 0.60043(17) 0.6610(2) 0.2489(3)
H19_2 H 0.5991 0.6593 0.2027
C39_2 C 0.63442(16) 0.6742(2) 0.2777(3)
H20_2 H 0.6537 0.6837 0.2501
C40_2 C 0.64018(12) 0.67385(14) 0.3411(3)
C41_2 C 0.60931(17) 0.6648(2) 0.3784(3)
H21_2 H 0.6115 0.6668 0.4245
C42_2 C 0.57455(15) 0.6527(2) 0.3522(4)
H22_2 H 0.5544 0.6460 0.3804
C43_2 C 0.67739(14) 0.68739(17) 0.3715(4)
C44_2 C 0.42796(12) 0.66609(14) 0.2582(3)
C45_2 C 0.42084(13) 0.67908(18) 0.3198(3)
H23_2 H 0.4391 0.6755 0.3531
C46_2 C 0.38606(15) 0.69819(16) 0.3349(3)
H24_2 H 0.3824 0.7073 0.3779
C47_2 C 0.35962(13) 0.70333(15) 0.2919(3)
C48_2 C 0.36701(14) 0.69277(19) 0.2268(3)
H25_2 H 0.3489 0.6983 0.1941
C49_2 C 0.40087(15) 0.67412(19) 0.2088(3)
H26_2 H 0.4053 0.6672 0.1647
C50_2 C 0.32345(13) 0.72433(16) 0.3088(4)
C51_2 C 0.25712(13) 0.75150(16) 0.5000
C52_2 C 0.27157(18) 0.71016(18) 0.5000
H27_2 H 0.2503 0.6930 0.5000
H28_2 H 0.2871 0.7058 0.4609
O27_2 O 0.69912(11) 0.26769(14) 0.2583(2)
O28_2 O 0.68412(9) 0.26395(11) 0.36240(19)
N7_3 N 0.50203(11) 0.44108(14) -0.0000
C128_2 C 0.50178(11) 0.37957(12) 0.0333(2)
H68_2 H 0.5020 0.3580 0.0605
C129_2 C 0.50135(9) 0.41836(12) 0.0555(2)
C130_2 C 0.50090(9) 0.43046(13) 0.1206(2)
C131_2 C 0.50038(9) 0.46878(13) 0.1412(2)
C132_2 C 0.49968(13) 0.48093(11) 0.2087(2)
H69_2 H 0.4989 0.4652 0.2460
C133_2 C 0.50121(10) 0.40041(12) 0.1733(2)
C134_2 C 0.46684(11) 0.38971(12) 0.2048(2)
H70_2 H 0.4440 0.4016 0.1927
C135_2 C 0.46634(11) 0.36138(13) 0.2543(2)
C136_2 C 0.50083(11) 0.34446(13) 0.2716(2)
H71_2 H 0.5009 0.3256 0.3043
C137_2 C 0.53553(11) 0.35459(13) 0.2419(2)
C138_2 C 0.53493(11) 0.38218(12) 0.1920(2)
H72_2 H 0.5578 0.3886 0.1706
C139_2 C 0.43012(12) 0.34928(15) 0.2842(3)
C140_2 C 0.39957(17) 0.3390(2) 0.2489(3)
H73_2 H 0.4009 0.3407 0.2027
C141_2 C 0.36558(16) 0.3258(2) 0.2777(3)
H74_2 H 0.3463 0.3163 0.2501
C142_2 C 0.35982(12) 0.32615(14) 0.3411(3)
C143_2 C 0.39069(17) 0.3352(2) 0.3784(3)
H75_2 H 0.3885 0.3332 0.4245
C144_2 C 0.42545(15) 0.3473(2) 0.3522(4)
H76_2 H 0.4456 0.3540 0.3804
C145_2 C 0.32261(14) 0.31261(17) 0.3715(4)
C146_2 C 0.57204(12) 0.33391(14) 0.2582(3)
C147_2 C 0.57916(13) 0.32092(18) 0.3198(3)
H77_2 H 0.5609 0.3245 0.3531
C148_2 C 0.61394(15) 0.30181(16) 0.3349(3)
H78_2 H 0.6176 0.2927 0.3779
C149_2 C 0.64038(13) 0.29667(15) 0.2919(3)
C150_2 C 0.63299(14) 0.30723(19) 0.2268(3)
H79_2 H 0.6511 0.3017 0.1941
C151_2 C 0.59913(15) 0.32588(19) 0.2088(3)
H80_2 H 0.5947 0.3328 0.1647
C152_2 C 0.67655(13) 0.27567(16) 0.3088(4)
O37_2 O 0.25150(6) 0.76894(6) 0.55455(14)
H107_2 H 0.2871 0.7058 0.5391
O38_2 O 0.74850(6) 0.23106(6) 0.44545(14)
O39_2 O 0.75196(13) 0.20468(11) 0.2208(2)
O40_2 O 0.6911(2) 0.1761(2) 0.5000
O41_2 O 0.79056(17) 0.10564(15) 0.5000
C203_2 C 0.74288(13) 0.24850(16) 0.5000
C204_2 C 0.72843(18) 0.28984(18) 0.5000
H108_2 H 0.7497 0.3070 0.5000
H109_2 H 0.7129 0.2942 0.4609
O42_2 O 0.74850(6) 0.23106(6) 0.55455(14)
H110_2 H 0.7129 0.2942 0.5391
O43_2 O 0.75196(13) 0.20468(11) 0.7792(2)
O44_2 O 0.24804(13) 0.79532(11) 0.7792(2)
O53 O 0.77317(11) 0.29694(10) 0.35933(19)
O54 O 0.77317(11) 0.29694(10) 0.64067(19)
O55 O 0.22683(11) 0.70306(10) 0.64067(19)
O56 O 0.78450(10) 0.27889(11) 0.2580(2)
O57 O 0.78450(10) 0.27889(11) 0.7420(2)
O58 O 0.21550(10) 0.72111(11) 0.7420(2)
O67 O 0.69912(11) 0.26769(14) 0.7417(2)
O68 O 0.30088(11) 0.73231(14) 0.7417(2)
O69 O 0.68412(9) 0.26395(11) 0.63760(19)
O70 O 0.31588(9) 0.73605(11) 0.63760(19)
H124_5 H 0.5 0.5 0.0502268
H129_3 H 0.0286389 0.504184 -2.22045e-16
N2_4 N 0.05759(11) 0.50804(12) 1.0000
N3_4 N 0.49797(11) 0.55892(14) 1.0000
N6_3 N 0.0000 0.5000 0.8982(2)
C78_2 C 0.01923(11) 0.50242(13) 0.7896(2)
H42_2 H 0.0349 0.5044 0.7521
C79_2 C 0.03171(11) 0.50408(11) 0.8578(2)
C80_2 C 0.06928(10) 0.50934(10) 0.8787(2)
C81_2 C 0.08094(10) 0.51115(11) 0.9451(2)
C82_2 C 0.12014(11) 0.51558(12) 0.96716(19)
H43_2 H 0.1416 0.5180 0.9399
C83_2 C 0.09980(10) 0.51248(12) 0.8269(2)
C84_2 C 0.11413(11) 0.54751(12) 0.8086(2)
H44_2 H 0.1039 0.5694 0.8281
C85_2 C 0.14362(12) 0.55145(13) 0.7615(2)
C86_2 C 0.15817(12) 0.51859(12) 0.7324(2)
H45_2 H 0.1775 0.5206 0.7005
C87_2 C 0.14466(12) 0.48335(13) 0.7498(2)
C88_2 C 0.11510(11) 0.48052(12) 0.7969(2)
H46_2 H 0.1056 0.4565 0.8082
C89_2 C 0.16095(12) 0.44688(14) 0.7194(3)
C90_2 C 0.17825(18) 0.44780(15) 0.6585(3)
H47_2 H 0.1782 0.4704 0.6341
C91_2 C 0.19609(18) 0.41549(17) 0.6324(3)
H48_2 H 0.2083 0.4171 0.5913
C92_2 C 0.19616(14) 0.38213(14) 0.6649(3)
C93_2 C 0.17881(15) 0.38136(14) 0.7235(3)
H49_2 H 0.1785 0.3585 0.7471
C94_2 C 0.16129(16) 0.41239(14) 0.7512(3)
H50_2 H 0.1493 0.4100 0.7924
C95_2 C 0.21607(16) 0.34781(18) 0.6383(3)
C96_2 C 0.15962(12) 0.58872(14) 0.7442(3)
C97_2 C 0.16353(15) 0.61727(16) 0.7908(3)
H51_2 H 0.1553 0.6124 0.8340
C98_2 C 0.17919(15) 0.65321(16) 0.7767(3)
H52_2 H 0.1798 0.6723 0.8090
C99_2 C 0.19376(14) 0.65966(14) 0.7130(3)
C100_2 C 0.18946(15) 0.63254(16) 0.6656(3)
H53_2 H 0.1975 0.6376 0.6223
C101_2 C 0.17308(15) 0.59685(16) 0.6804(3)
H54_2 H 0.1712 0.5784 0.6472
C102_2 C 0.21274(14) 0.69673(14) 0.6945(4)
N7_4 N 0.50203(11) 0.44108(14) 1.0000
N8_5 N 0.5000 0.5000 0.8992(2)
C153_2 C 0.49822(11) 0.62043(12) 0.9667(2)
H81_2 H 0.4980 0.6420 0.9395
C154_2 C 0.49865(9) 0.58164(12) 0.9445(2)
C155_2 C 0.49910(9) 0.56954(13) 0.8794(2)
C156_2 C 0.49962(9) 0.53122(13) 0.8588(2)
C157_2 C 0.50032(13) 0.51907(11) 0.7913(2)
H82_2 H 0.5011 0.5348 0.7540
C158_2 C 0.49879(10) 0.59959(12) 0.8267(2)
C159_2 C 0.53316(11) 0.61029(12) 0.7952(2)
H83_2 H 0.5560 0.5984 0.8073
C160_2 C 0.53366(11) 0.63862(13) 0.7457(2)
C161_2 C 0.49917(11) 0.65554(13) 0.7284(2)
H84_2 H 0.4991 0.6744 0.6957
C162_2 C 0.46447(11) 0.64541(13) 0.7581(2)
C163_2 C 0.46507(11) 0.61782(12) 0.8080(2)
H85_2 H 0.4422 0.6114 0.8294
C164_2 C 0.56988(12) 0.65072(15) 0.7158(3)
C165_2 C 0.60043(17) 0.6610(2) 0.7511(3)
H86_2 H 0.5991 0.6593 0.7973
C166_2 C 0.63442(16) 0.6742(2) 0.7223(3)
H87_2 H 0.6537 0.6837 0.7499
C167_2 C 0.64018(12) 0.67385(14) 0.6589(3)
C168_2 C 0.60931(17) 0.6648(2) 0.6216(3)
H88_2 H 0.6115 0.6668 0.5755
C169_2 C 0.57455(15) 0.6527(2) 0.6478(4)
H89_2 H 0.5544 0.6460 0.6196
C170_2 C 0.67739(14) 0.68739(17) 0.6285(4)
C171_2 C 0.42796(12) 0.66609(14) 0.7418(3)
C172_2 C 0.42084(13) 0.67908(18) 0.6802(3)
H90_2 H 0.4391 0.6755 0.6469
C173_2 C 0.38606(15) 0.69819(16) 0.6651(3)
H91_2 H 0.3824 0.7073 0.6221
C174_2 C 0.35962(13) 0.70333(15) 0.7081(3)
C175_2 C 0.36701(14) 0.69277(19) 0.7732(3)
H92_2 H 0.3489 0.6983 0.8059
C176_2 C 0.40087(15) 0.67412(19) 0.7912(3)
H93_2 H 0.4053 0.6672 0.8353
C177_2 C 0.32345(13) 0.72433(16) 0.6912(4)
C178_2 C 0.50178(11) 0.37957(12) 0.9667(2)
H94_2 H 0.5020 0.3580 0.9395
C179_2 C 0.50135(9) 0.41836(12) 0.9445(2)
C180_2 C 0.50090(9) 0.43046(13) 0.8794(2)
C181_2 C 0.50038(9) 0.46878(13) 0.8588(2)
C182_2 C 0.49968(13) 0.48093(11) 0.7913(2)
H95_2 H 0.4989 0.4652 0.7540
C183_2 C 0.50121(10) 0.40041(12) 0.8267(2)
C184_2 C 0.46684(11) 0.38971(12) 0.7952(2)
H96_2 H 0.4440 0.4016 0.8073
C185_2 C 0.46634(11) 0.36138(13) 0.7457(2)
C186_2 C 0.50083(11) 0.34446(13) 0.7284(2)
H97_2 H 0.5009 0.3256 0.6957
C187_2 C 0.53553(11) 0.35459(13) 0.7581(2)
C188_2 C 0.53493(11) 0.38218(12) 0.8080(2)
H98_2 H 0.5578 0.3886 0.8294
C189_2 C 0.43012(12) 0.34928(15) 0.7158(3)
C190_2 C 0.39957(17) 0.3390(2) 0.7511(3)
H99_2 H 0.4009 0.3407 0.7973
C191_2 C 0.36558(16) 0.3258(2) 0.7223(3)
H100_2 H 0.3463 0.3163 0.7499
C192_2 C 0.35982(12) 0.32615(14) 0.6589(3)
C193_2 C 0.39069(17) 0.3352(2) 0.6216(3)
H101_2 H 0.3885 0.3332 0.5755
C194_2 C 0.42545(15) 0.3473(2) 0.6478(4)
H102_2 H 0.4456 0.3540 0.6196
C195_2 C 0.32261(14) 0.31261(17) 0.6285(4)
C196_2 C 0.57204(12) 0.33391(14) 0.7418(3)
C197_2 C 0.57916(13) 0.32092(18) 0.6802(3)
H103_2 H 0.5609 0.3245 0.6469
C198_2 C 0.61394(15) 0.30181(16) 0.6651(3)
H104_2 H 0.6176 0.2927 0.6221
C199_2 C 0.64038(13) 0.29667(15) 0.7081(3)
C200_2 C 0.63299(14) 0.30723(19) 0.7732(3)
H105_2 H 0.6511 0.3017 0.8059
C201_2 C 0.59913(15) 0.32588(19) 0.7912(3)
H106_2 H 0.5947 0.3328 0.8353
C202_2 C 0.67655(13) 0.27567(16) 0.6912(4)
H111_5 H 0.5 0.5 0.949773
H129_4 H 0.0286389 0.504184 1
N1_4 N 1.0000 0.5000 0.1018(2)
N5_3 N 0.94241(11) 0.49196(12) -0.0000
C53_2 C 0.98077(11) 0.49758(13) 0.2104(2)
H29_2 H 0.9651 0.4956 0.2479
C54_2 C 0.96829(11) 0.49592(11) 0.1422(2)
C55_2 C 0.93072(10) 0.49066(10) 0.1213(2)
C56_2 C 0.91906(10) 0.48885(11) 0.0549(2)
C57_2 C 0.87986(11) 0.48442(12) 0.03284(19)
H30_2 H 0.8584 0.4820 0.0601
C58_2 C 0.90020(10) 0.48752(12) 0.1731(2)
C59_2 C 0.88587(11) 0.45249(12) 0.1914(2)
H31_2 H 0.8961 0.4306 0.1719
C60_2 C 0.85638(12) 0.44855(13) 0.2385(2)
C61_2 C 0.84183(12) 0.48141(12) 0.2676(2)
H32_2 H 0.8225 0.4794 0.2995
C62_2 C 0.85534(12) 0.51665(13) 0.2502(2)
C63_2 C 0.88490(11) 0.51948(12) 0.2031(2)
H33_2 H 0.8944 0.5435 0.1918
C64_2 C 0.83905(12) 0.55312(14) 0.2806(3)
C65_2 C 0.82175(18) 0.55220(15) 0.3415(3)
H34_2 H 0.8218 0.5296 0.3659
C66_2 C 0.80391(18) 0.58451(17) 0.3676(3)
H35_2 H 0.7917 0.5829 0.4087
C67_2 C 0.80384(14) 0.61787(14) 0.3351(3)
C68_2 C 0.82119(15) 0.61864(14) 0.2765(3)
H36_2 H 0.8215 0.6415 0.2529
C69_2 C 0.83871(16) 0.58761(14) 0.2488(3)
H37_2 H 0.8507 0.5900 0.2076
C70_2 C 0.78393(16) 0.65219(18) 0.3617(3)
C71_2 C 0.84038(12) 0.41128(14) 0.2558(3)
C72_2 C 0.83647(15) 0.38273(16) 0.2092(3)
H38_2 H 0.8447 0.3876 0.1660
C73_2 C 0.82081(15) 0.34679(16) 0.2233(3)
H39_2 H 0.8202 0.3277 0.1910
C74_2 C 0.80624(14) 0.34034(14) 0.2870(3)
C75_2 C 0.81054(15) 0.36746(16) 0.3344(3)
H40_2 H 0.8025 0.3624 0.3777
C76_2 C 0.82692(15) 0.40315(16) 0.3196(3)
H41_2 H 0.8288 0.4216 0.3528
C77_2 C 0.78726(14) 0.30327(14) 0.3055(4)
H130_3 H 0.971361 0.495816 -2.22045e-16
N5_4 N 0.94241(11) 0.49196(12) 1.0000
N6_4 N 1.0000 0.5000 0.8982(2)
C103_2 C 0.98077(11) 0.49758(13) 0.7896(2)
H55_2 H 0.9651 0.4956 0.7521
C104_2 C 0.96829(11) 0.49592(11) 0.8578(2)
C105_2 C 0.93072(10) 0.49066(10) 0.8787(2)
C106_2 C 0.91906(10) 0.48885(11) 0.9451(2)
C107_2 C 0.87986(11) 0.48442(12) 0.96716(19)
H56_2 H 0.8584 0.4820 0.9399
C108_2 C 0.90020(10) 0.48752(12) 0.8269(2)
C109_2 C 0.88587(11) 0.45249(12) 0.8086(2)
H57_2 H 0.8961 0.4306 0.8281
C110_2 C 0.85638(12) 0.44855(13) 0.7615(2)
C111_2 C 0.84183(12) 0.48141(12) 0.7324(2)
H58_2 H 0.8225 0.4794 0.7005
C112_2 C 0.85534(12) 0.51665(13) 0.7498(2)
C113_2 C 0.88490(11) 0.51948(12) 0.7969(2)
H59_2 H 0.8944 0.5435 0.8082
C114_2 C 0.83905(12) 0.55312(14) 0.7194(3)
C115_2 C 0.82175(18) 0.55220(15) 0.6585(3)
H60_2 H 0.8218 0.5296 0.6341
C116_2 C 0.80391(18) 0.58451(17) 0.6324(3)
H61_2 H 0.7917 0.5829 0.5913
C117_2 C 0.80384(14) 0.61787(14) 0.6649(3)
C118_2 C 0.82119(15) 0.61864(14) 0.7235(3)
H62_2 H 0.8215 0.6415 0.7471
C119_2 C 0.83871(16) 0.58761(14) 0.7512(3)
H63_2 H 0.8507 0.5900 0.7924
C120_2 C 0.78393(16) 0.65219(18) 0.6383(3)
C121_2 C 0.84038(12) 0.41128(14) 0.7442(3)
C122_2 C 0.83647(15) 0.38273(16) 0.7908(3)
H64_2 H 0.8447 0.3876 0.8340
C123_2 C 0.82081(15) 0.34679(16) 0.7767(3)
H65_2 H 0.8202 0.3277 0.8090
C124_2 C 0.80624(14) 0.34034(14) 0.7130(3)
C125_2 C 0.81054(15) 0.36746(16) 0.6656(3)
H66_2 H 0.8025 0.3624 0.6223
C126_2 C 0.82692(15) 0.40315(16) 0.6804(3)
H67_2 H 0.8288 0.4216 0.6472
C127_2 C 0.78726(14) 0.30327(14) 0.6945(4)
H130_4 H 0.971361 0.495816 1
loop_
_geom_bond_atom_site_label_1
_geom_bond_atom_site_label_2
_geom_bond_site_symmetry_1
_geom_bond_site_symmetry_2
O19 C102 1_555 1_555
O20 C102 1_555 1_555
N6 C79 1_555 1_555
C78 H42 1_555 1_555
C79 C78 1_555 1_555
C80 C79 1_555 1_555
C81 N2 1_555 1_555
H43 C82 1_555 1_555
C83 C80 1_555 1_555
C84 C83 1_555 1_555
H44 C84 1_555 1_555
C85 C84 1_555 1_555
C86 C85 1_555 1_555
H45 C86 1_555 1_555
C96 C85 1_555 1_555
C97 C96 1_555 1_555
H51 C97 1_555 1_555
C98 C97 1_555 1_555
H52 C98 1_555 1_555
C99 C98 1_555 1_555
C100 C99 1_555 1_555
H53 C100 1_555 1_555
C101 C96 1_555 1_555
H54 C101 1_555 1_555
C102 C99 1_555 1_555
O21 C120 1_555 1_555
O22 C120 1_555 1_555
H59 C113 1_555 1_555
C114 C112 1_555 1_555
C115 C114 1_555 1_555
H60 C115 1_555 1_555
C116 C115 1_555 1_555
H61 C116 1_555 1_555
C117 C116 1_555 1_555
C118 C117 1_555 1_555
H62 C118 1_555 1_555
C119 C114 1_555 1_555
H63 C119 1_555 1_555
C120 C117 1_555 1_555
O31 C177 1_555 1_555
O32 C177 1_555 1_555
N8 C156 1_555 1_555
H81 C153 1_555 1_555
C154 N3 1_555 1_555
C155 C154 1_555 1_555
C156 C155 1_555 1_555
C158 C155 1_555 1_555
H84 C161 1_555 1_555
C162 C161 1_555 1_555
C163 C158 1_555 1_555
H85 C163 1_555 1_555
C171 C162 1_555 1_555
C172 C171 1_555 1_555
H90 C172 1_555 1_555
C173 C172 1_555 1_555
H91 C173 1_555 1_555
C174 C173 1_555 1_555
C175 C174 1_555 1_555
H92 C175 1_555 1_555
C176 C171 1_555 1_555
H93 C176 1_555 1_555
C177 C174 1_555 1_555
Y10 O21 1_555 1_555
Y13 O19 1_555 1_555
Y22 O22 1_555 1_555
O20 Y13 1_555 1_555
C80 C81 1_555 1_555
C81 C82 1_555 1_555
C100 C101 1_555 1_555
C112 C113 1_555 1_555
C118 C119 1_555 1_555
O31 Y13 1_555 1_555
O32 Y13 1_555 1_555
C153 C154 1_555 1_555
C162 C163 1_555 1_555
C175 C176 1_555 1_555
N8 H111 1_555 1_555
N2 H129 1_555 1_555
Y1 O3 1_555 1_555
Y2 O9 1_555 1_555
O3 C25 1_555 1_555
O4 Y1 1_555 1_555
O7 Y1 1_555 1_555
O8 Y1 1_555 1_555
O9 Y1 1_555 1_555
O10 Y1 1_555 1_555
O11 Y2 1_555 1_555
O12 Y2 1_555 1_555
N1 C2 1_555 1_555
N2_2 C4 1_555 1_555
N3_2 C27 1_555 1_555
N4 C29 1_555 1_555
C1 H1 1_555 1_555
C2 C1 1_555 1_555
C3 C2 1_555 1_555
C4 C3 1_555 1_555
C5 C4 1_555 1_555
H2 C5 1_555 1_555
C6 C3 1_555 1_555
C7 C6 1_555 1_555
H3 C7 1_555 1_555
C8 C7 1_555 1_555
C9 C8 1_555 1_555
H4 C9 1_555 1_555
C19 C8 1_555 1_555
C20 C19 1_555 1_555
H10 C20 1_555 1_555
C21 C20 1_555 1_555
H11 C21 1_555 1_555
C22 C21 1_555 1_555
C23 C22 1_555 1_555
H12 C23 1_555 1_555
C24 C19 1_555 1_555
H13 C24 1_555 1_555
C25 O4 1_555 1_555
C26 H14 1_555 1_555
C27 C26 1_555 1_555
C28 C27 1_555 1_555
C29 C28 1_555 1_555
C31 C28 1_555 1_555
H17 C34 1_555 1_555
C35 C34 1_555 1_555
C36 C31 1_555 1_555
H18 C36 1_555 1_555
C44 C35 1_555 1_555
C45 C44 1_555 1_555
H23 C45 1_555 1_555
C46 C45 1_555 1_555
H24 C46 1_555 1_555
C47 C46 1_555 1_555
C48 C47 1_555 1_555
H25 C48 1_555 1_555
C49 C44 1_555 1_555
H26 C49 1_555 1_555
C50 O7 1_555 1_555
C51 O9 1_555 1_555
C52 C51 1_555 1_555
H27 C52 1_555 1_555
H28 C52 1_555 1_555
O13 C70 1_555 1_555
O14 C70 1_555 1_555
H33 C63 1_555 1_555
C64 C62 1_555 1_555
C65 C64 1_555 1_555
H34 C65 1_555 1_555
C66 C65 1_555 1_555
H35 C66 1_555 1_555
C67 C66 1_555 1_555
C68 C67 1_555 1_555
H36 C68 1_555 1_555
C69 C64 1_555 1_555
H37 C69 1_555 1_555
C70 C67 1_555 1_555
O37 Y2 1_555 1_555
H107 C52 1_555 1_555
Y13 O37 1_555 1_555
O44 Y13 1_555 1_555
Y15 O13 1_555 1_555
Y22 O14 1_555 1_555
O45 Y13 1_555 1_555
O48 Y1 1_555 1_555
O49 Y2 1_555 1_555
O52 Y2 1_555 1_555
O60 Y13 1_555 1_555
O61 Y1 1_555 1_555
O64 Y2 1_555 1_555
O65 Y2 1_555 1_555
O8 C50 1_555 1_555
C22 C25 1_555 1_555
C23 C24 1_555 1_555
C35 C36 1_555 1_555
C47 C50 1_555 1_555
C48 C49 1_555 1_555
C51 O37 1_555 1_555
C62 C63 1_555 1_555
C68 C69 1_555 1_555
N4 H124 1_555 1_555
N2_2 H129_2 1_555 1_555
O17 C95 1_555 1_555
O18 C95 1_555 1_555
H46 C88 1_555 1_555
C89 C87 1_555 1_555
C90 C89 1_555 1_555
H47 C90 1_555 1_555
C91 C90 1_555 1_555
H48 C91 1_555 1_555
C92 C91 1_555 1_555
C93 C92 1_555 1_555
H49 C93 1_555 1_555
C94 C89 1_555 1_555
H50 C94 1_555 1_555
C95 C92 1_555 1_555
O23 C127 1_555 1_555
O24 C127 1_555 1_555
H55 C103 1_555 1_555
C104 N6_2 1_555 1_555
C105 C104 1_555 1_555
C106 N5 1_555 1_555
H56 C107 1_555 1_555
C108 C105 1_555 1_555
C109 C108 1_555 1_555
H57 C109 1_555 1_555
C110 C109 1_555 1_555
C111 C110 1_555 1_555
H58 C111 1_555 1_555
C121 C110 1_555 1_555
C122 C121 1_555 1_555
H64 C122 1_555 1_555
C123 C122 1_555 1_555
H65 C123 1_555 1_555
C124 C123 1_555 1_555
C125 C124 1_555 1_555
H66 C125 1_555 1_555
C126 C121 1_555 1_555
H67 C126 1_555 1_555
C127 C124 1_555 1_555
O33 C195 1_555 1_555
O34 C195 1_555 1_555
H95 C182 1_555 1_555
H96 C184 1_555 1_555
C185 C184 1_555 1_555
C189 C185 1_555 1_555
C190 C189 1_555 1_555
H99 C190 1_555 1_555
C191 C190 1_555 1_555
H100 C191 1_555 1_555
C192 C191 1_555 1_555
C193 C192 1_555 1_555
H101 C193 1_555 1_555
C194 C189 1_555 1_555
H102 C194 1_555 1_555
C195 C192 1_555 1_555
Y8 O17 1_555 1_555
Y12 O23 1_555 1_555
Y18 O18 1_555 1_555
C87 C88 1_555 1_555
C93 C94 1_555 1_555
O24 Y12 1_555 1_555
C103 C104 1_555 1_555
C105 C106 1_555 1_555
C106 C107 1_555 1_555
C125 C126 1_555 1_555
O33 Y8 1_555 1_555
O34 Y18 1_555 1_555
C193 C194 1_555 1_555
N8_2 H111_2 1_555 1_555
N5 H130 1_555 1_555
O1 C18 1_555 1_555
O2 C18 1_555 1_555
H5 C11 1_555 1_555
C12 C10 1_555 1_555
C13 C12 1_555 1_555
H6 C13 1_555 1_555
C14 C13 1_555 1_555
H7 C14 1_555 1_555
C15 C14 1_555 1_555
C16 C15 1_555 1_555
H8 C16 1_555 1_555
C17 C12 1_555 1_555
H9 C17 1_555 1_555
C18 C15 1_555 1_555
O15 C77 1_555 1_555
O16 C77 1_555 1_555
N5_2 C56 1_555 1_555
H29 C53 1_555 1_555
C54 N1_2 1_555 1_555
C55 C54 1_555 1_555
C56 C55 1_555 1_555
C57 C56 1_555 1_555
H30 C57 1_555 1_555
C58 C55 1_555 1_555
C59 C58 1_555 1_555
H31 C59 1_555 1_555
C60 C59 1_555 1_555
C61 C60 1_555 1_555
H32 C61 1_555 1_555
C71 C60 1_555 1_555
C72 C71 1_555 1_555
H38 C72 1_555 1_555
C73 C72 1_555 1_555
H39 C73 1_555 1_555
C74 C73 1_555 1_555
C75 C74 1_555 1_555
H40 C75 1_555 1_555
C76 C71 1_555 1_555
H41 C76 1_555 1_555
C77 C74 1_555 1_555
O25 C145 1_555 1_555
O26 C145 1_555 1_555
H69 C132 1_555 1_555
H70 C134 1_555 1_555
C135 C134 1_555 1_555
C139 C135 1_555 1_555
C140 C139 1_555 1_555
H73 C140 1_555 1_555
C141 C140 1_555 1_555
H74 C141 1_555 1_555
C142 C141 1_555 1_555
C143 C142 1_555 1_555
H75 C143 1_555 1_555
C144 C139 1_555 1_555
H76 C144 1_555 1_555
C145 C142 1_555 1_555
Y7 O15 1_555 1_555
Y16 O1 1_555 1_555
Y18 O2 1_555 1_555
C10 C11 1_555 1_555
C16 C17 1_555 1_555
O16 Y7 1_555 1_555
C53 C54 1_555 1_555
C75 C76 1_555 1_555
O25 Y16 1_555 1_555
O26 Y18 1_555 1_555
C143 C144 1_555 1_555
N4_2 H124_2 1_555 1_555
N5_2 H130_2 1_555 1_555
O29 C170 1_555 1_555
O30 C170 1_555 1_555
H82 C157 1_555 1_555
H83 C159 1_555 1_555
C160 C159 1_555 1_555
C164 C160 1_555 1_555
C165 C164 1_555 1_555
H86 C165 1_555 1_555
C166 C165 1_555 1_555
H87 C166 1_555 1_555
C167 C166 1_555 1_555
C168 C167 1_555 1_555
H88 C168 1_555 1_555
C169 C164 1_555 1_555
H89 C169 1_555 1_555
C170 C167 1_555 1_555
Y10 O29 1_555 1_555
Y22 O30 1_555 1_555
C168 C169 1_555 1_555
N8_3 H111_3 1_555 1_555
O5 C43 1_555 1_555
O6 C43 1_555 1_555
H15 C30 1_555 1_555
H16 C32 1_555 1_555
C33 C32 1_555 1_555
C37 C33 1_555 1_555
C38 C37 1_555 1_555
H19 C38 1_555 1_555
C39 C38 1_555 1_555
H20 C39 1_555 1_555
C40 C39 1_555 1_555
C41 C40 1_555 1_555
H21 C41 1_555 1_555
C42 C37 1_555 1_555
H22 C42 1_555 1_555
C43 C40 1_555 1_555
Y15 O5 1_555 1_555
Y22 O6 1_555 1_555
C41 C42 1_555 1_555
N4_3 H124_3 1_555 1_555
O35 C202 1_555 1_555
O36 C202 1_555 1_555
H94 C178 1_555 1_555
C179 N7 1_555 1_555
C180 C179 1_555 1_555
C181 N8_4 1_555 1_555
C183 C180 1_555 1_555
H97 C186 1_555 1_555
C187 C186 1_555 1_555
C188 C183 1_555 1_555
H98 C188 1_555 1_555
C196 C187 1_555 1_555
C197 C196 1_555 1_555
H103 C197 1_555 1_555
C198 C197 1_555 1_555
H104 C198 1_555 1_555
C199 C198 1_555 1_555
C200 C199 1_555 1_555
H105 C200 1_555 1_555
C201 C196 1_555 1_555
H106 C201 1_555 1_555
C202 C199 1_555 1_555
Y12 O35 1_555 1_555
O36 Y12 1_555 1_555
C178 C179 1_555 1_555
C180 C181 1_555 1_555
C187 C188 1_555 1_555
C200 C201 1_555 1_555
N8_4 H111_4 1_555 1_555
O27 C152 1_555 1_555
O28 C152 1_555 1_555
N7_2 C129 1_555 1_555
C128 H68 1_555 1_555
C129 C128 1_555 1_555
C130 C129 1_555 1_555
C131 N4_4 1_555 1_555
C133 C130 1_555 1_555
H71 C136 1_555 1_555
C137 C136 1_555 1_555
C138 C133 1_555 1_555
H72 C138 1_555 1_555
C146 C137 1_555 1_555
C147 C146 1_555 1_555
H77 C147 1_555 1_555
C148 C147 1_555 1_555
H78 C148 1_555 1_555
C149 C148 1_555 1_555
C150 C149 1_555 1_555
H79 C150 1_555 1_555
C151 C146 1_555 1_555
H80 C151 1_555 1_555
C152 C149 1_555 1_555
Y7 O27 1_555 1_555
Y4 O38 1_555 1_555
O38 Y7 1_555 1_555
O39 Y7 1_555 1_555
O40 Y4 1_555 1_555
O41 Y4 1_555 1_555
C203 O38 1_555 1_555
C204 C203 1_555 1_555
H108 C204 1_555 1_555
H109 C204 1_555 1_555
O42 Y4 1_555 1_555
H110 C204 1_555 1_555
Y12 O42 1_555 1_555
O43 Y12 1_555 1_555
O46 Y12 1_555 1_555
O47 Y7 1_555 1_555
O50 Y4 1_555 1_555
O51 Y4 1_555 1_555
O59 Y12 1_555 1_555
O62 Y7 1_555 1_555
O63 Y4 1_555 1_555
O66 Y4 1_555 1_555
O28 Y7 1_555 1_555
C130 C131 1_555 1_555
C137 C138 1_555 1_555
C150 C151 1_555 1_555
C203 O42 1_555 1_555
N4_4 H124_4 1_555 1_555
Y8 O3_2 1_555 1_555
Y18 O9_2 1_555 1_555
O45 C18_2 1_555 1_555
O49 C18_2 1_555 1_555
O3_2 C25_2 1_555 1_555
O4_2 Y8 1_555 1_555
O59 C43_2 1_555 1_555
O63 C43_2 1_555 1_555
O7_2 Y8 1_555 1_555
O8_2 Y8 1_555 1_555
O9_2 Y8 1_555 1_555
O10_2 Y8 1_555 1_555
O11_2 Y18 1_555 1_555
O12_2 Y18 1_555 1_555
N1_3 C2_2 1_555 1_555
N2_3 C4_2 1_555 1_555
N3_3 C27_2 1_555 1_555
N4_5 C29_2 1_555 1_555
C1_2 H1_2 1_555 1_555
C2_2 C1_2 1_555 1_555
C3_2 C2_2 1_555 1_555
C4_2 C3_2 1_555 1_555
C5_2 C4_2 1_555 1_555
H2_2 C5_2 1_555 1_555
C6_2 C3_2 1_555 1_555
C7_2 C6_2 1_555 1_555
H3_2 C7_2 1_555 1_555
C8_2 C7_2 1_555 1_555
C9_2 C8_2 1_555 1_555
H4_2 C9_2 1_555 1_555
C10_2 C9_2 1_555 1_555
C11_2 C6_2 1_555 1_555
H5_2 C11_2 1_555 1_555
C12_2 C10_2 1_555 1_555
C13_2 C12_2 1_555 1_555
H6_2 C13_2 1_555 1_555
C14_2 C13_2 1_555 1_555
H7_2 C14_2 1_555 1_555
C15_2 C14_2 1_555 1_555
C16_2 C15_2 1_555 1_555
H8_2 C16_2 1_555 1_555
C17_2 C12_2 1_555 1_555
H9_2 C17_2 1_555 1_555
C18_2 C15_2 1_555 1_555
C19_2 C8_2 1_555 1_555
C20_2 C19_2 1_555 1_555
H10_2 C20_2 1_555 1_555
C21_2 C20_2 1_555 1_555
H11_2 C21_2 1_555 1_555
C22_2 C21_2 1_555 1_555
C23_2 C22_2 1_555 1_555
H12_2 C23_2 1_555 1_555
C24_2 C19_2 1_555 1_555
H13_2 C24_2 1_555 1_555
C25_2 O4_2 1_555 1_555
C26_2 H14_2 1_555 1_555
C27_2 C26_2 1_555 1_555
C28_2 C27_2 1_555 1_555
C29_2 C28_2 1_555 1_555
C30_2 C29_2 1_555 1_555
H15_2 C30_2 1_555 1_555
C31_2 C28_2 1_555 1_555
C32_2 C31_2 1_555 1_555
H16_2 C32_2 1_555 1_555
C33_2 C32_2 1_555 1_555
C34_2 C33_2 1_555 1_555
H17_2 C34_2 1_555 1_555
C35_2 C34_2 1_555 1_555
C36_2 C31_2 1_555 1_555
H18_2 C36_2 1_555 1_555
C37_2 C33_2 1_555 1_555
C38_2 C37_2 1_555 1_555
H19_2 C38_2 1_555 1_555
C39_2 C38_2 1_555 1_555
H20_2 C39_2 1_555 1_555
C40_2 C39_2 1_555 1_555
C41_2 C40_2 1_555 1_555
H21_2 C41_2 1_555 1_555
C42_2 C37_2 1_555 1_555
H22_2 C42_2 1_555 1_555
C43_2 C40_2 1_555 1_555
C44_2 C35_2 1_555 1_555
C45_2 C44_2 1_555 1_555
H23_2 C45_2 1_555 1_555
C46_2 C45_2 1_555 1_555
H24_2 C46_2 1_555 1_555
C47_2 C46_2 1_555 1_555
C48_2 C47_2 1_555 1_555
H25_2 C48_2 1_555 1_555
C49_2 C44_2 1_555 1_555
H26_2 C49_2 1_555 1_555
C50_2 O7_2 1_555 1_555
C51_2 O9_2 1_555 1_555
C52_2 C51_2 1_555 1_555
H27_2 C52_2 1_555 1_555
H28_2 C52_2 1_555 1_555
O60 C145_2 1_555 1_555
O64 C145_2 1_555 1_555
O27_2 C152_2 1_555 1_555
O28_2 C152_2 1_555 1_555
N7_3 C129_2 1_555 1_555
C128_2 H68_2 1_555 1_555
C129_2 C128_2 1_555 1_555
C130_2 C129_2 1_555 1_555
C131_2 N4_5 1_555 1_555
C132_2 C30_2 1_555 1_555
H69_2 C132_2 1_555 1_555
C133_2 C130_2 1_555 1_555
C134_2 C133_2 1_555 1_555
H70_2 C134_2 1_555 1_555
C135_2 C134_2 1_555 1_555
C136_2 C135_2 1_555 1_555
H71_2 C136_2 1_555 1_555
C137_2 C136_2 1_555 1_555
C138_2 C133_2 1_555 1_555
H72_2 C138_2 1_555 1_555
C139_2 C135_2 1_555 1_555
C140_2 C139_2 1_555 1_555
H73_2 C140_2 1_555 1_555
C141_2 C140_2 1_555 1_555
H74_2 C141_2 1_555 1_555
C142_2 C141_2 1_555 1_555
C143_2 C142_2 1_555 1_555
H75_2 C143_2 1_555 1_555
C144_2 C139_2 1_555 1_555
H76_2 C144_2 1_555 1_555
C145_2 C142_2 1_555 1_555
C146_2 C137_2 1_555 1_555
C147_2 C146_2 1_555 1_555
H77_2 C147_2 1_555 1_555
C148_2 C147_2 1_555 1_555
H78_2 C148_2 1_555 1_555
C149_2 C148_2 1_555 1_555
C150_2 C149_2 1_555 1_555
H79_2 C150_2 1_555 1_555
C151_2 C146_2 1_555 1_555
H80_2 C151_2 1_555 1_555
C152_2 C149_2 1_555 1_555
O37_2 Y18 1_555 1_555
H107_2 C52_2 1_555 1_555
Y10 O27_2 1_555 1_555
Y22 O38_2 1_555 1_555
O38_2 Y10 1_555 1_555
O39_2 Y10 1_555 1_555
O40_2 Y22 1_555 1_555
O41_2 Y22 1_555 1_555
C203_2 O38_2 1_555 1_555
C204_2 C203_2 1_555 1_555
H108_2 C204_2 1_555 1_555
H109_2 C204_2 1_555 1_555
O42_2 Y22 1_555 1_555
H110_2 C204_2 1_555 1_555
Y15 O42_2 1_555 1_555
O43_2 Y15 1_555 1_555
Y16 O37_2 1_555 1_555
O44_2 Y16 1_555 1_555
O53 Y10 1_555 1_555
O54 Y15 1_555 1_555
O55 Y16 1_555 1_555
O56 Y10 1_555 1_555
O57 Y15 1_555 1_555
O58 Y16 1_555 1_555
O67 Y15 1_555 1_555
O68 Y16 1_555 1_555
O69 Y15 1_555 1_555
O70 Y16 1_555 1_555
O8_2 C50_2 1_555 1_555
C10_2 C11_2 1_555 1_555
C16_2 C17_2 1_555 1_555
C22_2 C25_2 1_555 1_555
C23_2 C24_2 1_555 1_555
C35_2 C36_2 1_555 1_555
C41_2 C42_2 1_555 1_555
C47_2 C50_2 1_555 1_555
C48_2 C49_2 1_555 1_555
C51_2 O37_2 1_555 1_555
O28_2 Y10 1_555 1_555
C130_2 C131_2 1_555 1_555
C131_2 C132_2 1_555 1_555
C137_2 C138_2 1_555 1_555
C143_2 C144_2 1_555 1_555
C150_2 C151_2 1_555 1_555
C203_2 O42_2 1_555 1_555
N4_5 H124_5 1_555 1_555
N2_3 H129_3 1_555 1_555
O48 C95_2 1_555 1_555
O52 C95_2 1_555 1_555
O55 C102_2 1_555 1_555
O58 C102_2 1_555 1_555
N6_3 C79_2 1_555 1_555
C78_2 H42_2 1_555 1_555
C79_2 C78_2 1_555 1_555
C80_2 C79_2 1_555 1_555
C81_2 N2_4 1_555 1_555
H43_2 C82_2 1_555 1_555
C83_2 C80_2 1_555 1_555
C84_2 C83_2 1_555 1_555
H44_2 C84_2 1_555 1_555
C85_2 C84_2 1_555 1_555
C86_2 C85_2 1_555 1_555
H45_2 C86_2 1_555 1_555
C87_2 C86_2 1_555 1_555
C88_2 C83_2 1_555 1_555
H46_2 C88_2 1_555 1_555
C89_2 C87_2 1_555 1_555
C90_2 C89_2 1_555 1_555
H47_2 C90_2 1_555 1_555
C91_2 C90_2 1_555 1_555
H48_2 C91_2 1_555 1_555
C92_2 C91_2 1_555 1_555
C93_2 C92_2 1_555 1_555
H49_2 C93_2 1_555 1_555
C94_2 C89_2 1_555 1_555
H50_2 C94_2 1_555 1_555
C95_2 C92_2 1_555 1_555
C96_2 C85_2 1_555 1_555
C97_2 C96_2 1_555 1_555
H51_2 C97_2 1_555 1_555
C98_2 C97_2 1_555 1_555
H52_2 C98_2 1_555 1_555
C99_2 C98_2 1_555 1_555
C100_2 C99_2 1_555 1_555
H53_2 C100_2 1_555 1_555
C101_2 C96_2 1_555 1_555
H54_2 C101_2 1_555 1_555
C102_2 C99_2 1_555 1_555
O62 C170_2 1_555 1_555
O66 C170_2 1_555 1_555
O68 C177_2 1_555 1_555
O70 C177_2 1_555 1_555
N8_5 C156_2 1_555 1_555
H81_2 C153_2 1_555 1_555
C154_2 N3_4 1_555 1_555
C155_2 C154_2 1_555 1_555
C156_2 C155_2 1_555 1_555
C157_2 C156_2 1_555 1_555
H82_2 C157_2 1_555 1_555
C158_2 C155_2 1_555 1_555
C159_2 C158_2 1_555 1_555
H83_2 C159_2 1_555 1_555
C160_2 C159_2 1_555 1_555
C161_2 C160_2 1_555 1_555
H84_2 C161_2 1_555 1_555
C162_2 C161_2 1_555 1_555
C163_2 C158_2 1_555 1_555
H85_2 C163_2 1_555 1_555
C164_2 C160_2 1_555 1_555
C165_2 C164_2 1_555 1_555
H86_2 C165_2 1_555 1_555
C166_2 C165_2 1_555 1_555
H87_2 C166_2 1_555 1_555
C167_2 C166_2 1_555 1_555
C168_2 C167_2 1_555 1_555
H88_2 C168_2 1_555 1_555
C169_2 C164_2 1_555 1_555
H89_2 C169_2 1_555 1_555
C170_2 C167_2 1_555 1_555
C171_2 C162_2 1_555 1_555
C172_2 C171_2 1_555 1_555
H90_2 C172_2 1_555 1_555
C173_2 C172_2 1_555 1_555
H91_2 C173_2 1_555 1_555
C174_2 C173_2 1_555 1_555
C175_2 C174_2 1_555 1_555
H92_2 C175_2 1_555 1_555
C176_2 C171_2 1_555 1_555
H93_2 C176_2 1_555 1_555
C177_2 C174_2 1_555 1_555
O61 C195_2 1_555 1_555
O65 C195_2 1_555 1_555
O67 C202_2 1_555 1_555
O69 C202_2 1_555 1_555
H94_2 C178_2 1_555 1_555
C179_2 N7_4 1_555 1_555
C180_2 C179_2 1_555 1_555
C181_2 N8_5 1_555 1_555
C182_2 C157_2 1_555 1_555
H95_2 C182_2 1_555 1_555
C183_2 C180_2 1_555 1_555
C184_2 C183_2 1_555 1_555
H96_2 C184_2 1_555 1_555
C185_2 C184_2 1_555 1_555
C186_2 C185_2 1_555 1_555
H97_2 C186_2 1_555 1_555
C187_2 C186_2 1_555 1_555
C188_2 C183_2 1_555 1_555
H98_2 C188_2 1_555 1_555
C189_2 C185_2 1_555 1_555
C190_2 C189_2 1_555 1_555
H99_2 C190_2 1_555 1_555
C191_2 C190_2 1_555 1_555
H100_2 C191_2 1_555 1_555
C192_2 C191_2 1_555 1_555
C193_2 C192_2 1_555 1_555
H101_2 C193_2 1_555 1_555
C194_2 C189_2 1_555 1_555
H102_2 C194_2 1_555 1_555
C195_2 C192_2 1_555 1_555
C196_2 C187_2 1_555 1_555
C197_2 C196_2 1_555 1_555
H103_2 C197_2 1_555 1_555
C198_2 C197_2 1_555 1_555
H104_2 C198_2 1_555 1_555
C199_2 C198_2 1_555 1_555
C200_2 C199_2 1_555 1_555
H105_2 C200_2 1_555 1_555
C201_2 C196_2 1_555 1_555
H106_2 C201_2 1_555 1_555
C202_2 C199_2 1_555 1_555
C80_2 C81_2 1_555 1_555
C81_2 C82_2 1_555 1_555
C87_2 C88_2 1_555 1_555
C93_2 C94_2 1_555 1_555
C100_2 C101_2 1_555 1_555
C153_2 C154_2 1_555 1_555
C162_2 C163_2 1_555 1_555
C168_2 C169_2 1_555 1_555
C175_2 C176_2 1_555 1_555
C178_2 C179_2 1_555 1_555
C180_2 C181_2 1_555 1_555
C181_2 C182_2 1_555 1_555
C187_2 C188_2 1_555 1_555
C193_2 C194_2 1_555 1_555
C200_2 C201_2 1_555 1_555
N8_5 H111_5 1_555 1_555
N2_4 H129_4 1_555 1_555
O46 C70_2 1_555 1_555
O50 C70_2 1_555 1_555
O53 C77_2 1_555 1_555
O56 C77_2 1_555 1_555
N5_3 C56_2 1_555 1_555
H29_2 C53_2 1_555 1_555
C54_2 N1_4 1_555 1_555
C55_2 C54_2 1_555 1_555
C56_2 C55_2 1_555 1_555
C57_2 C56_2 1_555 1_555
H30_2 C57_2 1_555 1_555
C58_2 C55_2 1_555 1_555
C59_2 C58_2 1_555 1_555
H31_2 C59_2 1_555 1_555
C60_2 C59_2 1_555 1_555
C61_2 C60_2 1_555 1_555
H32_2 C61_2 1_555 1_555
C62_2 C61_2 1_555 1_555
C63_2 C58_2 1_555 1_555
H33_2 C63_2 1_555 1_555
C64_2 C62_2 1_555 1_555
C65_2 C64_2 1_555 1_555
H34_2 C65_2 1_555 1_555
C66_2 C65_2 1_555 1_555
H35_2 C66_2 1_555 1_555
C67_2 C66_2 1_555 1_555
C68_2 C67_2 1_555 1_555
H36_2 C68_2 1_555 1_555
C69_2 C64_2 1_555 1_555
H37_2 C69_2 1_555 1_555
C70_2 C67_2 1_555 1_555
C71_2 C60_2 1_555 1_555
C72_2 C71_2 1_555 1_555
H38_2 C72_2 1_555 1_555
C73_2 C72_2 1_555 1_555
H39_2 C73_2 1_555 1_555
C74_2 C73_2 1_555 1_555
C75_2 C74_2 1_555 1_555
H40_2 C75_2 1_555 1_555
C76_2 C71_2 1_555 1_555
H41_2 C76_2 1_555 1_555
C77_2 C74_2 1_555 1_555
C53_2 C54_2 1_555 1_555
C62_2 C63_2 1_555 1_555
C68_2 C69_2 1_555 1_555
C75_2 C76_2 1_555 1_555
N5_3 H130_3 1_555 1_555
O47 C120_2 1_555 1_555
O51 C120_2 1_555 1_555
O54 C127_2 1_555 1_555
O57 C127_2 1_555 1_555
H55_2 C103_2 1_555 1_555
C104_2 N6_4 1_555 1_555
C105_2 C104_2 1_555 1_555
C106_2 N5_4 1_555 1_555
H56_2 C107_2 1_555 1_555
C108_2 C105_2 1_555 1_555
C109_2 C108_2 1_555 1_555
H57_2 C109_2 1_555 1_555
C110_2 C109_2 1_555 1_555
C111_2 C110_2 1_555 1_555
H58_2 C111_2 1_555 1_555
C112_2 C111_2 1_555 1_555
C113_2 C108_2 1_555 1_555
H59_2 C113_2 1_555 1_555
C114_2 C112_2 1_555 1_555
C115_2 C114_2 1_555 1_555
H60_2 C115_2 1_555 1_555
C116_2 C115_2 1_555 1_555
H61_2 C116_2 1_555 1_555
C117_2 C116_2 1_555 1_555
C118_2 C117_2 1_555 1_555
H62_2 C118_2 1_555 1_555
C119_2 C114_2 1_555 1_555
H63_2 C119_2 1_555 1_555
C120_2 C117_2 1_555 1_555
C121_2 C110_2 1_555 1_555
C122_2 C121_2 1_555 1_555
H64_2 C122_2 1_555 1_555
C123_2 C122_2 1_555 1_555
H65_2 C123_2 1_555 1_555
C124_2 C123_2 1_555 1_555
C125_2 C124_2 1_555 1_555
H66_2 C125_2 1_555 1_555
C126_2 C121_2 1_555 1_555
H67_2 C126_2 1_555 1_555
C127_2 C124_2 1_555 1_555
C103_2 C104_2 1_555 1_555
C105_2 C106_2 1_555 1_555
C106_2 C107_2 1_555 1_555
C112_2 C113_2 1_555 1_555
C118_2 C119_2 1_555 1_555
C125_2 C126_2 1_555 1_555
N5_4 H130_4 1_555 1_555

#END
