
###############################################################################
#
# This file contains modified crystal structure data generated from the
# MOF subset of the Cambridge Structural Database (CSD) v543 
# hosted by the Cambridge Crystallographic Data Centre (CCDC).
#
# This work is licensed under the Creative Commons
# Attribution-NonCommercial-ShareAlike 4.0 International License.
# To view a copy of this license, visit
# http://creativecommons.org/licenses/by-nc-sa/4.0/
# or send a letter to
# Creative Commons, PO Box 1866, Mountain View, CA 94042, USA.
#
# CIF created using the CSD Python API on 29 September 2022
# The structure has been converted into the P1 space group
# The structure has a 3D framework
# The original CSD entry NIZNIV is in the monoclinic crystal system
# The framework has been calculated to contain at least 10.0% void space
# The void calculation uses a probe of radius 1.32A, grid spacing 0.4
#
###############################################################################

data_NIZNIV
_chemical_formula_moiety         '(C96 H112 Cu24 N48 O86 S8)n'
_symmetry_cell_setting           triclinic
_symmetry_space_group_name_H-M   'P 1'
_symmetry_Int_Tables_number      1
_space_group_name_Hall           'P 1'
loop_
_symmetry_equiv_pos_site_id
_symmetry_equiv_pos_as_xyz
1 x,y,z
_cell_length_a                   10.4774(6)
_cell_length_b                   21.9744(12)
_cell_length_c                   19.6644(10)
_cell_angle_alpha                90
_cell_angle_beta                 103.2840(10)
_cell_angle_gamma                90
_cell_volume                     4406.28
loop_
_atom_site_label
_atom_site_type_symbol
_atom_site_fract_x
_atom_site_fract_y
_atom_site_fract_z
Cu1 Cu 0.08153(6) 0.19474(3) 0.41524(4)
Cu3 Cu 0.12401(6) 0.28448(3) 0.68677(4)
O17 O 0.0907(5) 0.3687(3) 0.6184(3)
H3 H 0.0918 0.3758 0.5761
H4 H 0.0386 0.3941 0.6301
N1 N 0.1882(4) 0.2140(2) 0.5090(2)
N2 N 0.1243(4) 0.2372(2) 0.5540(2)
N3 N 0.2029(5) 0.2439(2) 0.6157(3)
N5 N 0.0346(4) 0.2968(2) 0.7622(2)
N6 N 0.0773(4) 0.2877(2) 0.8303(2)
C1 C 0.3224(6) 0.2240(3) 0.6108(3)
H15 H 0.3978 0.2233 0.6466
C2 C 0.3123(5) 0.2053(3) 0.5438(3)
H16 H 0.3796 0.1894 0.5256
H22 H 0.0697 0.1254 0.2680
Cu10 Cu 0.25705(6) 0.25896(3) 0.87262(4)
O23 O 0.1881(5) 0.2800(2) 0.3652(3)
O24 O 0.2095(4) 0.13396(17) 0.4031(2)
O25 O 0.0920(4) 0.07996(18) 0.4615(2)
N14 N 0.2935(4) 0.3175(2) 0.7404(3)
S1 S 0.77850(13) 0.64529(6) 0.97909(8)
O10 O 0.7095(4) 0.36604(17) 0.9031(2)
O11 O 0.5920(4) 0.42004(18) 0.9615(2)
O12 O 0.6457(4) 0.65987(19) 0.9416(3)
O13 O 0.8748(4) 0.68795(18) 0.9653(2)
C17 C 0.9443(6) 0.5149(3) 0.8837(3)
C18 C 0.8677(5) 0.4649(3) 0.8894(3)
H26 H 0.8839 0.4280 0.8697
C19 C 0.7664(5) 0.4689(3) 0.9245(3)
C20 C 0.7411(6) 0.5247(3) 0.9531(3)
H27 H 0.6741 0.5281 0.9766
C21 C 0.8164(5) 0.5746(3) 0.9459(3)
C22 C 0.9188(5) 0.5705(3) 0.9122(3)
H28 H 0.9699 0.6044 0.9086
C24 C 0.6837(5) 0.4153(3) 0.9308(3)
Cu8 Cu 0.58153(6) 0.30526(3) 0.91524(4)
Cu12 Cu 0.55844(6) 0.75775(3) 0.96874(4)
S2 S 0.60155(14) 0.17492(7) 0.82695(8)
O5 O 0.6881(5) 0.2200(2) 0.8652(3)
O6 O 0.5322(6) 0.1962(3) 0.7603(3)
O7 O 0.5159(6) 0.1515(2) 0.8688(4)
C9 C 0.7425(5) 0.0053(3) 0.8145(3)
C10 C 0.8424(5) 0.0154(3) 0.7807(3)
C11 C 0.8715(5) 0.0740(3) 0.7628(3)
C12 C 0.7994(6) 0.1230(3) 0.7780(3)
H24 H 0.8188 0.1624 0.7662
C13 C 0.6981(5) 0.1125(3) 0.8112(3)
C14 C 0.6679(5) 0.0545(3) 0.8287(3)
H25 H 0.5983 0.0481 0.8498
C16 C 0.9825(5) 0.0856(3) 0.7274(3)
Cu3_2 Cu 0.37599(6) 0.78448(3) 0.81323(4)
Cu5 Cu 0.69236(6) 0.82331(3) 0.84832(4)
O1 O 0.6185(4) 0.93694(19) 0.8678(3)
O2 O 0.7764(4) 0.89798(17) 0.8227(2)
O16 O 0.5560(3) 0.76454(17) 0.8696(2)
H2 H 0.5779 0.7242 0.8544
O17_2 O 0.4093(5) 0.8687(3) 0.8816(3)
H3_2 H 0.4082 0.8758 0.9239
H4_2 H 0.4614 0.8941 0.8699
O19 O 0.8339(5) 0.7498(2) 0.8382(3)
H7 H 0.8554 0.7300 0.8055
H8 H 0.8429 0.7262 0.8732
N1_2 N 0.3118(4) 0.7140(2) 0.9910(2)
N2_2 N 0.3757(4) 0.7372(2) 0.9460(2)
N3_2 N 0.2971(5) 0.7439(2) 0.8843(3)
N4 N 0.5898(4) 0.8138(2) 0.7514(3)
N5_2 N 0.4654(4) 0.7968(2) 0.7378(2)
N6_2 N 0.4227(4) 0.7877(2) 0.6697(2)
N7 N 0.7815(4) 0.8264(2) 0.9498(2)
N8 N 0.7264(4) 0.7964(2) 0.9941(2)
C1_2 C 0.1776(6) 0.7240(3) 0.8892(3)
H15_2 H 0.1022 0.7233 0.8534
C2_2 C 0.1877(5) 0.7053(3) 0.9562(3)
H16_2 H 0.1204 0.6894 0.9744
C3 C 0.5222(6) 0.7993(3) 0.6397(3)
H17 H 0.5195 0.7969 0.5922
C4 C 0.6274(5) 0.8152(3) 0.6904(3)
H18 H 0.7103 0.8253 0.6844
C6 C 0.9009(6) 0.8442(3) 0.9872(3)
H20 H 0.9631 0.8657 0.9700
H23 H 0.8905 0.9827 0.7699
C15 C 0.7080(5) 0.9428(3) 0.8363(3)
Cu10_2 Cu 0.24295(6) 0.75896(3) 0.62738(4)
N14_2 N 0.2065(4) 0.8175(2) 0.7596(3)
O14 O 0.2164(5) 0.3624(2) 0.9473(2)
Cu4 Cu 0.05844(6) 0.74225(3) 0.46874(4)
Cu5_2 Cu 0.19236(6) 0.67669(3) 0.34832(4)
Cu6 Cu 0.69508(7) 0.46104(4) 0.17463(4)
S2_2 S 0.10155(14) 0.32508(7) 0.32695(8)
O1_2 O 0.1185(4) 0.56306(19) 0.3678(3)
O2_2 O 0.2764(4) 0.60202(17) 0.3227(2)
O3 O 0.5387(4) 0.4617(2) 0.2113(3)
O4 O 0.5129(4) 0.3612(2) 0.2169(3)
O6_2 O 0.0322(6) 0.3038(3) 0.2603(3)
O7_2 O 0.0159(6) 0.3485(2) 0.3688(4)
O8 O 0.8587(4) 0.4518(2) 0.1442(3)
O9 O 0.9568(5) 0.5353(2) 0.1966(3)
O15 O 0.0612(3) 0.74947(17) 0.56896(19)
H1 H 0.0340 0.7091 0.5816
O16_2 O 0.0560(3) 0.73546(17) 0.3696(2)
H2_2 H 0.0779 0.7758 0.3544
O18 O 0.2574(5) 0.6832(3) 0.7107(3)
H5 H 0.3273 0.6679 0.7356
H6 H 0.1933 0.6633 0.7193
O19_2 O 0.3339(5) 0.7502(2) 0.3382(3)
H7_2 H 0.3554 0.7700 0.3055
H8_2 H 0.3429 0.7738 0.3732
O20 O 0.7825(6) 0.5065(3) 0.2608(3)
H9 H 0.8272 0.4782 0.2954
H10 H 0.8447 0.5347 0.2497
O21 O 0.6524(5) 0.5483(2) 0.1185(3)
H11 H 0.7120 0.5538 0.0885
H12 H 0.5640 0.5477 0.0909
O22 O 0.6132(4) 0.4043(2) 0.0999(3)
H13 H 0.5219 0.3998 0.0997
H14 H 0.6216 0.4202 0.0557
N4_2 N 0.0898(4) 0.6862(2) 0.2514(3)
N7_2 N 0.2815(4) 0.6736(2) 0.4498(2)
N8_2 N 0.2264(4) 0.7036(2) 0.4941(2)
N9 N 0.3041(4) 0.7052(2) 0.5575(2)
N10 N 0.0362(4) 0.8278(2) 0.6742(3)
N11 N 0.1568(4) 0.8050(2) 0.6930(2)
C3_2 C 0.0222(6) 0.7007(3) 0.1397(3)
H17_2 H 0.0195 0.7031 0.0922
C4_2 C 0.1274(5) 0.6848(3) 0.1904(3)
H18_2 H 0.2103 0.6747 0.1844
C5 C 0.4141(6) 0.6744(3) 0.5535(3)
H19 H 0.4860 0.6674 0.5903
C6_2 C 0.4009(6) 0.6558(3) 0.4872(3)
H20_2 H 0.4631 0.6343 0.4700
C7 C 0.1168(6) 0.8481(3) 0.7839(3)
H21 H 0.1262 0.8624 0.8294
C8 C 0.0080(6) 0.8550(3) 0.7301(3)
C9_2 C 0.2425(5) 0.4947(3) 0.3145(3)
C10_2 C 0.3424(5) 0.4846(3) 0.2807(3)
H23_2 H 0.3905 0.5173 0.2699
C11_2 C 0.3715(5) 0.4260(3) 0.2628(3)
C12_2 C 0.2994(6) 0.3770(3) 0.2780(3)
H24_2 H 0.3188 0.3376 0.2662
C13_2 C 0.1981(5) 0.3875(3) 0.3112(3)
C14_2 C 0.1679(5) 0.4455(3) 0.3287(3)
H25_2 H 0.0983 0.4519 0.3498
C15_2 C 0.2080(5) 0.5572(3) 0.3363(3)
C16_2 C 0.4825(5) 0.4144(3) 0.2274(3)
C23 C 0.9487(6) 0.4918(3) 0.1559(4)
O26 O 0.1457(4) 0.84013(19) 0.4416(3)
O27 O 0.2836(5) 0.8624(2) 0.5527(2)
O15_2 O 0.4388(3) 0.24947(17) 0.93104(19)
H1_2 H 0.4660 0.2091 0.9184
O18_2 O 0.2426(5) 0.1832(3) 0.7893(3)
H5_2 H 0.1727 0.1679 0.7644
H6_2 H 0.3067 0.1633 0.7807
N9_2 N 0.1959(4) 0.2052(2) 0.9425(2)
N10_2 N 0.4638(4) 0.3278(2) 0.8258(3)
N11_2 N 0.3432(4) 0.3050(2) 0.8070(2)
C5_2 C 0.0859(6) 0.1744(3) 0.9465(3)
H19_2 H 0.0140 0.1674 0.9097
C7_2 C 0.3832(6) 0.3481(3) 0.7161(3)
H21_2 H 0.3738 0.3624 0.6706
C8_2 C 0.4920(6) 0.3550(3) 0.7699(3)
H22_2 H 0.5697 0.3746 0.7680
O9_2 O 0.5432(5) 0.0353(2) 0.3034(3)
O20_2 O 0.7175(6) 0.0065(3) 0.2392(3)
H10_2 H 0.6553 0.0347 0.2503
O21_2 O 0.8476(5) 0.0483(2) 0.3815(3)
H11_2 H 0.7880 0.0538 0.4115
H12_2 H 0.9360 0.0477 0.4091
C18_2 C 0.3677(5) 0.0351(3) 0.3894(3)
H26_2 H 0.3839 0.0720 0.3697
C19_2 C 0.2664(5) 0.0311(3) 0.4245(3)
C24_2 C 0.1837(5) 0.0847(3) 0.4308(3)
Cu6_2 Cu 0.80492(7) 0.96104(4) 0.32537(4)
S1_2 S 0.27850(13) 0.85471(6) 0.47909(8)
O3_2 O 0.9613(4) 0.9617(2) 0.2887(3)
O4_2 O 0.9871(4) 0.8612(2) 0.2831(3)
O8_2 O 0.6413(4) 0.9518(2) 0.3558(3)
O13_2 O 0.3748(4) 0.81205(18) 0.4653(2)
H9_2 H 0.6728 0.9782 0.2046
O22_2 O 0.8868(4) 0.9043(2) 0.4001(3)
H13_2 H 0.9781 0.8998 0.4003
H14_2 H 0.8784 0.9202 0.4443
C17_2 C 0.4443(6) 0.9851(3) 0.3837(3)
C20_2 C 0.2411(6) 0.9753(3) 0.4531(3)
H27_2 H 0.1741 0.9719 0.4766
C21_2 C 0.3164(5) 0.9254(3) 0.4459(3)
C22_2 C 0.4188(5) 0.9295(3) 0.4122(3)
H28_2 H 0.4699 0.8956 0.4086
C23_2 C 0.5513(6) 0.9918(3) 0.3441(4)
Cu2 Cu 0.75705(6) 0.24104(3) 0.37262(4)
Cu4_2 Cu 0.94156(6) 0.25775(3) 0.53126(4)
Cu5_3 Cu 0.80764(6) 0.32331(3) 0.65168(4)
Cu6_3 Cu 0.30492(7) 0.53896(4) 0.82537(4)
S2_3 S 0.89845(14) 0.67492(7) 0.67305(8)
O1_3 O 0.8815(4) 0.43694(19) 0.6322(3)
O2_3 O 0.7236(4) 0.39798(17) 0.6773(2)
O3_3 O 0.4613(4) 0.5383(2) 0.7887(3)
O4_3 O 0.4871(4) 0.6388(2) 0.7831(3)
O5_2 O 0.8119(5) 0.7200(2) 0.6348(3)
O6_3 O 0.9678(6) 0.6962(3) 0.7397(3)
O7_3 O 0.9841(6) 0.6515(2) 0.6312(4)
O8_3 O 0.1413(4) 0.5482(2) 0.8558(3)
O9_3 O 0.0432(5) 0.4647(2) 0.8034(3)
O15_3 O 0.9388(3) 0.25053(17) 0.43104(19)
H1_3 H 0.9660 0.2909 0.4184
O16_3 O 0.9440(3) 0.26454(17) 0.6304(2)
H2_3 H 0.9221 0.2242 0.6456
O18_3 O 0.7426(5) 0.3168(3) 0.2893(3)
H5_3 H 0.6727 0.3321 0.2644
H6_3 H 0.8067 0.3367 0.2807
O19_3 O 0.6661(5) 0.2498(2) 0.6618(3)
H7_3 H 0.6446 0.2300 0.6945
H8_3 H 0.6571 0.2262 0.6268
O20_3 O 0.2175(6) 0.4935(3) 0.7392(3)
H9_3 H 0.1728 0.5218 0.7046
H10_3 H 0.1553 0.4653 0.7503
O21_3 O 0.3476(5) 0.4517(2) 0.8815(3)
H11_3 H 0.2880 0.4462 0.9115
H12_3 H 0.4360 0.4523 0.9091
O22_3 O 0.3868(4) 0.5957(2) 0.9001(3)
H13_3 H 0.4781 0.6002 0.9003
H14_3 H 0.3784 0.5798 0.9443
N4_3 N 0.9102(4) 0.3138(2) 0.7486(3)
N7_3 N 0.7185(4) 0.3264(2) 0.5502(2)
N8_3 N 0.7736(4) 0.2964(2) 0.5059(2)
N9_3 N 0.6959(4) 0.2948(2) 0.4425(2)
N10_3 N 0.9638(4) 0.1722(2) 0.3258(3)
N11_3 N 0.8432(4) 0.1950(2) 0.3070(2)
N12 N 0.7935(4) 0.1825(2) 0.2404(3)
C3_3 C 0.9778(6) 0.2993(3) 0.8603(3)
H17_3 H 0.9805 0.2969 0.9078
C4_3 C 0.8726(5) 0.3152(3) 0.8096(3)
H18_3 H 0.7897 0.3253 0.8156
C5_3 C 0.5859(6) 0.3256(3) 0.4465(3)
H19_3 H 0.5140 0.3326 0.4097
C6_3 C 0.5991(6) 0.3442(3) 0.5128(3)
H20_3 H 0.5369 0.3657 0.5300
C7_3 C 0.8832(6) 0.1519(3) 0.2161(3)
H21_3 H 0.8738 0.1376 0.1706
C8_3 C 0.9920(6) 0.1450(3) 0.2699(3)
C9_3 C 0.7575(5) 0.5053(3) 0.6855(3)
C10_3 C 0.6576(5) 0.5154(3) 0.7193(3)
H23_3 H 0.6095 0.4827 0.7301
C11_3 C 0.6285(5) 0.5740(3) 0.7372(3)
C12_3 C 0.7006(6) 0.6230(3) 0.7220(3)
H24_3 H 0.6812 0.6624 0.7338
C13_3 C 0.8019(5) 0.6125(3) 0.6888(3)
C14_3 C 0.8321(5) 0.5545(3) 0.6713(3)
H25_3 H 0.9017 0.5481 0.6502
C15_3 C 0.7920(5) 0.4428(3) 0.6637(3)
C16_3 C 0.5175(5) 0.5856(3) 0.7726(3)
C23_3 C 0.0513(6) 0.5082(3) 0.8441(4)
Cu7 Cu 0.91847(6) 0.80526(3) 0.58476(4)
Cu11 Cu 0.62401(6) 0.21552(3) 0.18677(4)
O26_2 O 0.8543(4) 0.15987(19) 0.5584(3)
O27_2 O 0.7164(5) 0.1376(2) 0.4473(2)
N13 N 0.5773(4) 0.2123(2) 0.3303(2)
O14_2 O 0.7836(5) 0.6376(2) 0.0527(2)
Cu9 Cu 0.74295(6) 0.74104(3) 0.12738(4)
Cu6_4 Cu 0.19508(7) 0.03896(4) 0.67463(4)
S1_3 S 0.72150(13) 0.14529(6) 0.52091(8)
O3_4 O 0.0387(4) 0.0383(2) 0.7113(3)
O4_4 O 0.0129(4) 0.1388(2) 0.7169(3)
O8_4 O 0.3587(4) 0.0482(2) 0.6442(3)
O13_3 O 0.6252(4) 0.18795(18) 0.5347(2)
H9_4 H 0.3272 0.0218 0.7954
O22_4 O 0.1132(4) 0.0957(2) 0.5999(3)
H13_4 H 0.0219 0.1002 0.5997
H14_4 H 0.1216 0.0798 0.5557
C17_3 C 0.5557(6) 0.0149(3) 0.6163(3)
C20_3 C 0.7589(6) 0.0247(3) 0.5469(3)
H27_3 H 0.8259 0.0281 0.5234
C21_3 C 0.6836(5) 0.0746(3) 0.5541(3)
C22_3 C 0.5812(5) 0.0705(3) 0.5878(3)
H28_3 H 0.5301 0.1044 0.5914
C23_4 C 0.4487(6) 0.0082(3) 0.6559(4)
O9_4 O 0.4568(5) 0.9647(2) 0.6966(3)
O10_2 O 0.7905(4) 0.86604(17) 0.5969(2)
O11_2 O 0.9080(4) 0.92004(18) 0.5385(2)
O20_4 O 0.2825(6) 0.9935(3) 0.7608(3)
H10_4 H 0.3447 0.9653 0.7497
O21_4 O 0.1524(5) 0.9517(2) 0.6185(3)
H11_4 H 0.2120 0.9462 0.5885
H12_4 H 0.0640 0.9523 0.5909
C18_3 C 0.6323(5) 0.9649(3) 0.6106(3)
H26_3 H 0.6161 0.9280 0.6303
C19_3 C 0.7336(5) 0.9689(3) 0.5755(3)
C24_3 C 0.8163(5) 0.9153(3) 0.5692(3)
Cu1_2 Cu 0.41847(6) 0.69474(3) 0.08476(4)
O15_4 O 0.5612(3) 0.75053(17) 0.06896(19)
H1_4 H 0.5340 0.7909 0.0816
O18_4 O 0.7574(5) 0.8168(3) 0.2107(3)
H5_4 H 0.8273 0.8321 0.2356
H6_4 H 0.6933 0.8367 0.2193
N9_4 N 0.8041(4) 0.7948(2) 0.0575(2)
N10_4 N 0.5362(4) 0.6722(2) 0.1742(3)
N11_4 N 0.6568(4) 0.6950(2) 0.1930(2)
N12_2 N 0.7065(4) 0.6825(2) 0.2596(3)
C5_4 C 0.9141(6) 0.8256(3) 0.0535(3)
H19_4 H 0.9860 0.8326 0.0903
C7_4 C 0.6168(6) 0.6519(3) 0.2839(3)
H21_4 H 0.6262 0.6376 0.3294
C8_4 C 0.5080(6) 0.6450(3) 0.2301(3)
H22_3 H 0.4303 0.6254 0.2320
Cu11_2 Cu 0.87599(6) 0.71552(3) 0.31323(4)
O23_2 O 0.3119(5) 0.7800(2) 0.1348(3)
O24_2 O 0.2905(4) 0.63396(17) 0.0969(2)
O25_2 O 0.4080(4) 0.57996(18) 0.0385(2)
N13_2 N 0.9227(4) 0.7123(2) 0.1697(2)
S1_4 S 0.22150(13) 0.35471(6) 0.02091(8)
O12_2 O 0.3543(4) 0.34013(19) 0.0584(3)
O13_4 O 0.1252(4) 0.31205(18) 0.0347(2)
C17_4 C 0.0557(6) 0.4851(3) 0.1163(3)
C18_4 C 0.1323(5) 0.5351(3) 0.1106(3)
H26_4 H 0.1161 0.5720 0.1303
C19_4 C 0.2336(5) 0.5311(3) 0.0755(3)
C20_4 C 0.2589(6) 0.4753(3) 0.0469(3)
H27_4 H 0.3259 0.4719 0.0234
C21_4 C 0.1836(5) 0.4254(3) 0.0541(3)
C22_4 C 0.0812(5) 0.4295(3) 0.0878(3)
H28_4 H 0.0301 0.3956 0.0914
C24_4 C 0.3163(5) 0.5847(3) 0.0692(3)
Cu12_2 Cu 0.44156(6) 0.24225(3) 0.03126(4)
O17_3 O 0.9093(5) 0.6313(3) 0.3816(3)
H3_3 H 0.9082 0.6242 0.4239
H4_3 H 0.9614 0.6059 0.3699
N1_3 N 0.8118(4) 0.7860(2) 0.4910(2)
N2_3 N 0.8757(4) 0.7628(2) 0.4460(2)
N3_3 N 0.7971(5) 0.7561(2) 0.3843(3)
N5_3 N 0.9654(4) 0.7032(2) 0.2378(2)
C1_3 C 0.6776(6) 0.7760(3) 0.3892(3)
H15_3 H 0.6022 0.7767 0.3534
C2_3 C 0.6877(5) 0.7947(3) 0.4562(3)
H16_3 H 0.6204 0.8106 0.4744
H22_4 H 0.9303 0.8746 0.7320
Cu5_4 Cu 0.30764(6) 0.17669(3) 0.15168(4)
O1_4 O 0.3815(4) 0.06306(19) 0.1322(3)
O2_4 O 0.2236(4) 0.10202(17) 0.1773(2)
O16_4 O 0.4440(3) 0.23546(17) 0.1304(2)
H2_4 H 0.4221 0.2758 0.1456
O17_4 O 0.5907(5) 0.1313(3) 0.1184(3)
H3_4 H 0.5918 0.1242 0.0761
H4_4 H 0.5386 0.1059 0.1301
O19_4 O 0.1661(5) 0.2502(2) 0.1618(3)
H7_4 H 0.1446 0.2700 0.1945
H8_4 H 0.1571 0.2738 0.1268
N1_4 N 0.6882(4) 0.2860(2) 0.0090(2)
N2_4 N 0.6243(4) 0.2628(2) 0.0540(2)
N3_4 N 0.7029(5) 0.2561(2) 0.1157(3)
N4_4 N 0.4102(4) 0.1862(2) 0.2486(3)
N5_4 N 0.5346(4) 0.2032(2) 0.2622(2)
N7_4 N 0.2185(4) 0.1736(2) 0.0502(2)
N8_4 N 0.2736(4) 0.2036(2) 0.0059(2)
C1_4 C 0.8224(6) 0.2760(3) 0.1108(3)
H15_4 H 0.8978 0.2767 0.1466
C2_4 C 0.8123(5) 0.2947(3) 0.0438(3)
H16_4 H 0.8796 0.3106 0.0256
C3_4 C 0.4778(6) 0.2007(3) 0.3603(3)
H17_4 H 0.4805 0.2031 0.4078
C4_4 C 0.3726(5) 0.1848(3) 0.3096(3)
H18_4 H 0.2897 0.1747 0.3156
C6_4 C 0.0991(6) 0.1558(3) 0.0128(3)
H20_4 H 0.0369 0.1343 0.0300
H23_4 H 0.1095 0.0173 0.2301
C15_4 C 0.2920(5) 0.0572(3) 0.1637(3)
S2_4 S 0.39845(14) 0.82508(7) 0.17305(8)
O6_4 O 0.4678(6) 0.8038(3) 0.2397(3)
O7_4 O 0.4841(6) 0.8485(2) 0.1312(4)
C9_4 C 0.2575(5) 0.9947(3) 0.1855(3)
C10_4 C 0.1576(5) 0.9846(3) 0.2193(3)
C11_4 C 0.1285(5) 0.9260(3) 0.2372(3)
C12_4 C 0.2006(6) 0.8770(3) 0.2220(3)
H24_4 H 0.1812 0.8376 0.2338
C13_4 C 0.3019(5) 0.8875(3) 0.1888(3)
C14_4 C 0.3321(5) 0.9455(3) 0.1713(3)
H25_4 H 0.4017 0.9519 0.1502
C16_4 C 0.0175(5) 0.9144(3) 0.2726(3)
loop_
_geom_bond_atom_site_label_1
_geom_bond_atom_site_label_2
_geom_bond_site_symmetry_1
_geom_bond_site_symmetry_2
O17 Cu3 1_555 1_555
H3 O17 1_555 1_555
H4 O17 1_555 1_555
N1 Cu1 1_555 1_555
N3 Cu3 1_555 1_555
N5 Cu3 1_555 1_555
N6 N5 1_555 1_555
C1 N3 1_555 1_555
H15 C1 1_555 1_555
C2 N1 1_555 1_555
H16 C2 1_555 1_555
Cu10 N6 1_555 1_555
O23 Cu1 1_555 1_555
O24 Cu1 1_555 1_555
O25 Cu1 1_555 1_555
N14 Cu3 1_555 1_555
N1 N2 1_555 1_555
N2 N3 1_555 1_555
C1 C2 1_555 1_555
S1 O12 1_555 1_555
O10 C24 1_555 1_555
O11 C24 1_555 1_555
O12 Cu12 1_555 1_555
O13 S1 1_555 1_555
C17 C18 1_555 1_555
C18 H26 1_555 1_555
C19 C18 1_555 1_555
C20 C19 1_555 1_555
H27 C20 1_555 1_555
C21 S1 1_555 1_555
C22 C17 1_555 1_555
H28 C22 1_555 1_555
C24 C19 1_555 1_555
Cu8 O10 1_555 1_555
O11 Cu8 1_555 1_555
C20 C21 1_555 1_555
C21 C22 1_555 1_555
S2 O5 1_555 1_555
O5 Cu8 1_555 1_555
O6 S2 1_555 1_555
O7 S2 1_555 1_555
C9 C10 1_555 1_555
C11 C10 1_555 1_555
C12 C11 1_555 1_555
H24 C12 1_555 1_555
C13 S2 1_555 1_555
C14 C9 1_555 1_555
H25 C14 1_555 1_555
C16 C11 1_555 1_555
C12 C13 1_555 1_555
C13 C14 1_555 1_555
Cu3_2 O16 1_555 1_555
Cu5 O1 1_555 1_555
O1 C15 1_555 1_555
O2 Cu5 1_555 1_555
O16 Cu12 1_555 1_555
H2 O16 1_555 1_555
O17_2 Cu3_2 1_555 1_555
H3_2 O17_2 1_555 1_555
H4_2 O17_2 1_555 1_555
O19 Cu5 1_555 1_555
H7 O19 1_555 1_555
H8 O19 1_555 1_555
N2_2 Cu12 1_555 1_555
N3_2 Cu3_2 1_555 1_555
N4 Cu5 1_555 1_555
N5_2 Cu3_2 1_555 1_555
N6_2 N5_2 1_555 1_555
N7 Cu5 1_555 1_555
N8 Cu12 1_555 1_555
C1_2 N3_2 1_555 1_555
H15_2 C1_2 1_555 1_555
C2_2 N1_2 1_555 1_555
H16_2 C2_2 1_555 1_555
C3 N6_2 1_555 1_555
H17 C3 1_555 1_555
C4 N4 1_555 1_555
H18 C4 1_555 1_555
C6 N7 1_555 1_555
H20 C6 1_555 1_555
C15 O2 1_555 1_555
Cu10_2 N6_2 1_555 1_555
N14_2 Cu3_2 1_555 1_555
Cu5 O16 1_555 1_555
N1_2 N2_2 1_555 1_555
N2_2 N3_2 1_555 1_555
N4 N5_2 1_555 1_555
N7 N8 1_555 1_555
C1_2 C2_2 1_555 1_555
C3 C4 1_555 1_555
Cu10 O14 1_555 1_555
Cu10_2 O15 1_555 1_555
Cu4 O15 1_555 1_555
Cu5_2 O1_2 1_555 1_555
Cu6 O3 1_555 1_555
S2_2 O23 1_555 1_555
O1_2 C15_2 1_555 1_555
O2_2 Cu5_2 1_555 1_555
O3 C16_2 1_555 1_555
O4 C16_2 1_555 1_555
O6_2 S2_2 1_555 1_555
O7_2 S2_2 1_555 1_555
O8 Cu6 1_555 1_555
O9 C23 1_555 1_555
O15 H1 1_555 1_555
O16_2 Cu4 1_555 1_555
H2_2 O16_2 1_555 1_555
O18 Cu10_2 1_555 1_555
H5 O18 1_555 1_555
H6 O18 1_555 1_555
O19_2 Cu5_2 1_555 1_555
H7_2 O19_2 1_555 1_555
H8_2 O19_2 1_555 1_555
O20 Cu6 1_555 1_555
H9 O20 1_555 1_555
H10 O20 1_555 1_555
O21 Cu6 1_555 1_555
H11 O21 1_555 1_555
H12 O21 1_555 1_555
O22 Cu6 1_555 1_555
H13 O22 1_555 1_555
H14 O22 1_555 1_555
N4_2 Cu5_2 1_555 1_555
N7_2 Cu5_2 1_555 1_555
N8_2 Cu4 1_555 1_555
N9 Cu10_2 1_555 1_555
N11 Cu10_2 1_555 1_555
N14_2 N11 1_555 1_555
H17_2 C3_2 1_555 1_555
C4_2 N4_2 1_555 1_555
H18_2 C4_2 1_555 1_555
C5 N9 1_555 1_555
H19 C5 1_555 1_555
C6_2 N7_2 1_555 1_555
H20_2 C6_2 1_555 1_555
C7 N14_2 1_555 1_555
H21 C7 1_555 1_555
C8 N10 1_555 1_555
C9_2 C10_2 1_555 1_555
C10_2 H23_2 1_555 1_555
C11_2 C10_2 1_555 1_555
C12_2 C11_2 1_555 1_555
H24_2 C12_2 1_555 1_555
C13_2 S2_2 1_555 1_555
C14_2 C9_2 1_555 1_555
H25_2 C14_2 1_555 1_555
C15_2 O2_2 1_555 1_555
C16_2 C11_2 1_555 1_555
C23 O8 1_555 1_555
O26 Cu4 1_555 1_555
O27 Cu10_2 1_555 1_555
Cu5_2 O16_2 1_555 1_555
N7_2 N8_2 1_555 1_555
N8_2 N9 1_555 1_555
N10 N11 1_555 1_555
C3_2 C4_2 1_555 1_555
C5 C6_2 1_555 1_555
C7 C8 1_555 1_555
C9_2 C15_2 1_555 1_555
C12_2 C13_2 1_555 1_555
C13_2 C14_2 1_555 1_555
Cu8 O15_2 1_555 1_555
Cu10 O15_2 1_555 1_555
O15_2 H1_2 1_555 1_555
O18_2 Cu10 1_555 1_555
H5_2 O18_2 1_555 1_555
H6_2 O18_2 1_555 1_555
N9_2 Cu10 1_555 1_555
N10_2 Cu8 1_555 1_555
N11_2 Cu10 1_555 1_555
N14 N11_2 1_555 1_555
C5_2 N9_2 1_555 1_555
H19_2 C5_2 1_555 1_555
C7_2 N14 1_555 1_555
H21_2 C7_2 1_555 1_555
C8_2 N10_2 1_555 1_555
H22_2 C8_2 1_555 1_555
N10_2 N11_2 1_555 1_555
C7_2 C8_2 1_555 1_555
O24 C24_2 1_555 1_555
O25 C24_2 1_555 1_555
H10_2 O20_2 1_555 1_555
H11_2 O21_2 1_555 1_555
H12_2 O21_2 1_555 1_555
C18_2 H26_2 1_555 1_555
C19_2 C18_2 1_555 1_555
C24_2 C19_2 1_555 1_555
Cu6_2 O3_2 1_555 1_555
S1_2 O26 1_555 1_555
O8_2 Cu6_2 1_555 1_555
O13_2 S1_2 1_555 1_555
O27 S1_2 1_555 1_555
O22_2 Cu6_2 1_555 1_555
H13_2 O22_2 1_555 1_555
H14_2 O22_2 1_555 1_555
H27_2 C20_2 1_555 1_555
C21_2 S1_2 1_555 1_555
C22_2 C17_2 1_555 1_555
H28_2 C22_2 1_555 1_555
C23_2 O8_2 1_555 1_555
C17_2 C23_2 1_555 1_555
C20_2 C21_2 1_555 1_555
C21_2 C22_2 1_555 1_555
Cu2 O15_3 1_555 1_555
Cu4_2 O15_3 1_555 1_555
Cu5_3 O1_3 1_555 1_555
Cu6_3 O3_3 1_555 1_555
S2_3 O5_2 1_555 1_555
O1_3 C15_3 1_555 1_555
O2_3 Cu5_3 1_555 1_555
O3_3 C16_3 1_555 1_555
O4_3 C16_3 1_555 1_555
O5_2 Cu7 1_555 1_555
O6_3 S2_3 1_555 1_555
O7_3 S2_3 1_555 1_555
O8_3 Cu6_3 1_555 1_555
O9_3 C23_3 1_555 1_555
O15_3 H1_3 1_555 1_555
O16_3 Cu4_2 1_555 1_555
H2_3 O16_3 1_555 1_555
O18_3 Cu2 1_555 1_555
H5_3 O18_3 1_555 1_555
H6_3 O18_3 1_555 1_555
O19_3 Cu5_3 1_555 1_555
H7_3 O19_3 1_555 1_555
H8_3 O19_3 1_555 1_555
O20_3 Cu6_3 1_555 1_555
H9_3 O20_3 1_555 1_555
H10_3 O20_3 1_555 1_555
O21_3 Cu6_3 1_555 1_555
H11_3 O21_3 1_555 1_555
H12_3 O21_3 1_555 1_555
O22_3 Cu6_3 1_555 1_555
H13_3 O22_3 1_555 1_555
H14_3 O22_3 1_555 1_555
N4_3 Cu5_3 1_555 1_555
N7_3 Cu5_3 1_555 1_555
N8_3 Cu4_2 1_555 1_555
N9_3 Cu2 1_555 1_555
N11_3 Cu2 1_555 1_555
N12 N11_3 1_555 1_555
H17_3 C3_3 1_555 1_555
C4_3 N4_3 1_555 1_555
H18_3 C4_3 1_555 1_555
C5_3 N9_3 1_555 1_555
H19_3 C5_3 1_555 1_555
C6_3 N7_3 1_555 1_555
H20_3 C6_3 1_555 1_555
C7_3 N12 1_555 1_555
H21_3 C7_3 1_555 1_555
C8_3 N10_3 1_555 1_555
C9_3 C10_3 1_555 1_555
C10_3 H23_3 1_555 1_555
C11_3 C10_3 1_555 1_555
C12_3 C11_3 1_555 1_555
H24_3 C12_3 1_555 1_555
C13_3 S2_3 1_555 1_555
C14_3 C9_3 1_555 1_555
H25_3 C14_3 1_555 1_555
C15_3 O2_3 1_555 1_555
C16_3 C11_3 1_555 1_555
C23_3 O8_3 1_555 1_555
Cu11 N12 1_555 1_555
O26_2 Cu4_2 1_555 1_555
O27_2 Cu2 1_555 1_555
N13 Cu2 1_555 1_555
Cu5_3 O16_3 1_555 1_555
N7_3 N8_3 1_555 1_555
N8_3 N9_3 1_555 1_555
N10_3 N11_3 1_555 1_555
C3_3 C4_3 1_555 1_555
C5_3 C6_3 1_555 1_555
C7_3 C8_3 1_555 1_555
C9_3 C15_3 1_555 1_555
C12_3 C13_3 1_555 1_555
C13_3 C14_3 1_555 1_555
Cu9 O14_2 1_555 1_555
Cu6_4 O3_4 1_555 1_555
S1_3 O26_2 1_555 1_555
O8_4 Cu6_4 1_555 1_555
O13_3 S1_3 1_555 1_555
O27_2 S1_3 1_555 1_555
O22_4 Cu6_4 1_555 1_555
H13_4 O22_4 1_555 1_555
H14_4 O22_4 1_555 1_555
H27_3 C20_3 1_555 1_555
C21_3 S1_3 1_555 1_555
C22_3 C17_3 1_555 1_555
H28_3 C22_3 1_555 1_555
C23_4 O8_4 1_555 1_555
C17_3 C23_4 1_555 1_555
C20_3 C21_3 1_555 1_555
C21_3 C22_3 1_555 1_555
O10_2 C24_3 1_555 1_555
O11_2 C24_3 1_555 1_555
H10_4 O20_4 1_555 1_555
H11_4 O21_4 1_555 1_555
H12_4 O21_4 1_555 1_555
C18_3 H26_3 1_555 1_555
C19_3 C18_3 1_555 1_555
C24_3 C19_3 1_555 1_555
Cu7 O10_2 1_555 1_555
O11_2 Cu7 1_555 1_555
Cu1_2 O15_4 1_555 1_555
Cu9 O15_4 1_555 1_555
O15_4 H1_4 1_555 1_555
O18_4 Cu9 1_555 1_555
H5_4 O18_4 1_555 1_555
H6_4 O18_4 1_555 1_555
N9_4 Cu9 1_555 1_555
N10_4 Cu1_2 1_555 1_555
N11_4 Cu9 1_555 1_555
N12_2 N11_4 1_555 1_555
C5_4 N9_4 1_555 1_555
H19_4 C5_4 1_555 1_555
C7_4 N12_2 1_555 1_555
H21_4 C7_4 1_555 1_555
C8_4 N10_4 1_555 1_555
H22_3 C8_4 1_555 1_555
Cu11_2 N12_2 1_555 1_555
O23_2 Cu1_2 1_555 1_555
O24_2 Cu1_2 1_555 1_555
O25_2 Cu1_2 1_555 1_555
N13_2 Cu9 1_555 1_555
N10_4 N11_4 1_555 1_555
C7_4 C8_4 1_555 1_555
S1_4 O12_2 1_555 1_555
O24_2 C24_4 1_555 1_555
O25_2 C24_4 1_555 1_555
O12_2 Cu12_2 1_555 1_555
O13_4 S1_4 1_555 1_555
C17_4 C18_4 1_555 1_555
C18_4 H26_4 1_555 1_555
C19_4 C18_4 1_555 1_555
C20_4 C19_4 1_555 1_555
H27_4 C20_4 1_555 1_555
C21_4 S1_4 1_555 1_555
C22_4 C17_4 1_555 1_555
H28_4 C22_4 1_555 1_555
C24_4 C19_4 1_555 1_555
C20_4 C21_4 1_555 1_555
C21_4 C22_4 1_555 1_555
O17_3 Cu11_2 1_555 1_555
H3_3 O17_3 1_555 1_555
H4_3 O17_3 1_555 1_555
N1_3 Cu7 1_555 1_555
N3_3 Cu11_2 1_555 1_555
N5_3 Cu11_2 1_555 1_555
N13_2 N5_3 1_555 1_555
C1_3 N3_3 1_555 1_555
H15_3 C1_3 1_555 1_555
C2_3 N1_3 1_555 1_555
H16_3 C2_3 1_555 1_555
N1_3 N2_3 1_555 1_555
N2_3 N3_3 1_555 1_555
C1_3 C2_3 1_555 1_555
Cu11 O16_4 1_555 1_555
Cu5_4 O1_4 1_555 1_555
O1_4 C15_4 1_555 1_555
O2_4 Cu5_4 1_555 1_555
O16_4 Cu12_2 1_555 1_555
H2_4 O16_4 1_555 1_555
O17_4 Cu11 1_555 1_555
H3_4 O17_4 1_555 1_555
H4_4 O17_4 1_555 1_555
O19_4 Cu5_4 1_555 1_555
H7_4 O19_4 1_555 1_555
H8_4 O19_4 1_555 1_555
N2_4 Cu12_2 1_555 1_555
N3_4 Cu11 1_555 1_555
N4_4 Cu5_4 1_555 1_555
N5_4 Cu11 1_555 1_555
N13 N5_4 1_555 1_555
N7_4 Cu5_4 1_555 1_555
N8_4 Cu12_2 1_555 1_555
C1_4 N3_4 1_555 1_555
H15_4 C1_4 1_555 1_555
C2_4 N1_4 1_555 1_555
H16_4 C2_4 1_555 1_555
C3_4 N13 1_555 1_555
H17_4 C3_4 1_555 1_555
C4_4 N4_4 1_555 1_555
H18_4 C4_4 1_555 1_555
C6_4 N7_4 1_555 1_555
H20_4 C6_4 1_555 1_555
C15_4 O2_4 1_555 1_555
Cu5_4 O16_4 1_555 1_555
N1_4 N2_4 1_555 1_555
N2_4 N3_4 1_555 1_555
N4_4 N5_4 1_555 1_555
N7_4 N8_4 1_555 1_555
C1_4 C2_4 1_555 1_555
C3_4 C4_4 1_555 1_555
S2_4 O23_2 1_555 1_555
O6_4 S2_4 1_555 1_555
O7_4 S2_4 1_555 1_555
C9_4 C10_4 1_555 1_555
C11_4 C10_4 1_555 1_555
C12_4 C11_4 1_555 1_555
H24_4 C12_4 1_555 1_555
C13_4 S2_4 1_555 1_555
C14_4 C9_4 1_555 1_555
H25_4 C14_4 1_555 1_555
C16_4 C11_4 1_555 1_555
C12_4 C13_4 1_555 1_555
C13_4 C14_4 1_555 1_555

#END
