
###############################################################################
#
# This file contains modified crystal structure data generated from the
# MOF subset of the Cambridge Structural Database (CSD) v543 
# hosted by the Cambridge Crystallographic Data Centre (CCDC).
#
# This work is licensed under the Creative Commons
# Attribution-NonCommercial-ShareAlike 4.0 International License.
# To view a copy of this license, visit
# http://creativecommons.org/licenses/by-nc-sa/4.0/
# or send a letter to
# Creative Commons, PO Box 1866, Mountain View, CA 94042, USA.
#
# CIF created using the CSD Python API on 29 September 2022
# The structure has been converted into the P1 space group
# The structure has a 3D framework
# The original CSD entry NOBQEB is in the monoclinic crystal system
# The framework has been calculated to contain at least 10.0% void space
# The void calculation uses a probe of radius 1.32A, grid spacing 0.4
#
###############################################################################

data_NOBQEB
_chemical_formula_moiety         '(C48 H64 F8 K3 N4 O11)n'
_symmetry_cell_setting           triclinic
_symmetry_space_group_name_H-M   'P 1'
_symmetry_Int_Tables_number      1
_space_group_name_Hall           'P 1'
loop_
_symmetry_equiv_pos_site_id
_symmetry_equiv_pos_as_xyz
1 x,y,z
_cell_length_a                   10.8620(3)
_cell_length_b                   12.3064(5)
_cell_length_c                   12.4436(4)
_cell_angle_alpha                90
_cell_angle_beta                 96.024(2)
_cell_angle_gamma                90
_cell_volume                     1654.18
loop_
_atom_site_label
_atom_site_type_symbol
_atom_site_fract_x
_atom_site_fract_y
_atom_site_fract_z
C24 C 0.0732(2) 0.0854(2) 0.4696(2)
H30 H 0.0637 0.0787 0.3899
H31 H 0.1271 0.1487 0.4895
K4 K 0.37294(4) 0.99571(4) 0.58450(4)
O8 O 0.12901(15) 0.98894(15) 0.51676(15)
C23 C 0.0515(2) 0.8976(2) 0.4906(2)
H28 H 0.0413 0.8870 0.4113
H29 H 0.0906 0.8315 0.5242
K1 K 0.62706(4) 0.00429(4) 0.41550(4)
F1 F 0.54346(19) 0.20091(17) 0.50223(15)
F2 F 0.21724(18) 0.1841(2) 0.22495(18)
O1 O 0.72588(16) 0.12294(14) 0.24964(15)
O2 O 0.82395(16) 0.32509(13) 0.19364(15)
O3 O 0.87099(15) 0.01106(15) 0.48324(15)
N1 N 0.3813(2) 0.07419(19) 0.37461(19)
C1 C 0.3782(2) 0.1834(2) 0.3637(2)
C2 C 0.4590(3) 0.2516(2) 0.4271(2)
C3 C 0.4678(4) 0.3662(3) 0.4198(4)
H1 H 0.5255 0.4081 0.4651
C4 C 0.3817(5) 0.4129(3) 0.3378(4)
H2 H 0.3815 0.4894 0.3279
C5 C 0.2987(4) 0.3501(3) 0.2725(4)
H3 H 0.2430 0.3828 0.2179
C6 C 0.2985(3) 0.2430(3) 0.2877(3)
C7 C 0.8369(2) 0.1303(2) 0.1978(2)
H4 H 0.8164 0.1250 0.1186
H5 H 0.8921 0.0688 0.2213
C8 C 0.9029(2) 0.2349(2) 0.2246(2)
H6 H 0.9287 0.2382 0.3032
H7 H 0.9782 0.2388 0.1863
C9 C 0.7135(2) 0.3176(2) 0.2452(2)
H8 H 0.6585 0.3795 0.2225
H9 H 0.7340 0.3218 0.3245
C10 C 0.6477(2) 0.2132(2) 0.2165(2)
H10 H 0.5709 0.2094 0.2527
H11 H 0.6245 0.2100 0.1375
C11 C 0.9485(2) 0.1024(2) 0.5094(2)
H12 H 0.9587 0.1130 0.5887
H13 H 0.9094 0.1685 0.4758
H16 H 0.340(4) 0.057(4) 0.338(4)
K3 K 0.87294(4) 0.50429(4) 0.08450(4)
O7 O 0.32395(16) 0.17491(13) 0.69364(15)
C12 C 0.9268(2) 0.9146(2) 0.5304(2)
H14 H 0.9363 0.9213 0.6101
H15 H 0.8729 0.8513 0.5105
F3 F 0.45654(19) 0.79909(17) 0.49777(15)
F4 F 0.78276(18) 0.8159(2) 0.77505(18)
O4 O 0.77412(16) 0.62294(14) 0.25036(15)
O5 O 0.27412(16) 0.87706(14) 0.75036(15)
O6 O 0.67605(16) 0.82509(13) 0.30636(15)
N2 N 0.6187(2) 0.92581(19) 0.62539(19)
C13 C 0.6218(2) 0.8166(2) 0.6363(2)
C14 C 0.5410(3) 0.7484(2) 0.5729(2)
C15 C 0.5322(4) 0.6338(3) 0.5802(4)
H17 H 0.4745 0.5919 0.5349
C16 C 0.6183(5) 0.5871(3) 0.6622(4)
H18 H 0.6185 0.5106 0.6721
C17 C 0.7013(4) 0.6499(3) 0.7275(4)
H19 H 0.7570 0.6172 0.7821
C18 C 0.7015(3) 0.7570(3) 0.7123(3)
C19 C 0.6631(2) 0.6303(2) 0.3022(2)
H20 H 0.6836 0.6250 0.3814
H21 H 0.6079 0.5688 0.2787
C20 C 0.5971(2) 0.7349(2) 0.2754(2)
H22 H 0.5713 0.7382 0.1968
H23 H 0.5218 0.7388 0.3137
C21 C 0.7865(2) 0.8176(2) 0.2548(2)
H24 H 0.8415 0.8795 0.2775
H25 H 0.7660 0.8218 0.1755
C22 C 0.8523(2) 0.7132(2) 0.2835(2)
H26 H 0.9291 0.7094 0.2473
H27 H 0.8755 0.7100 0.3625
H32 H 0.660(4) 0.943(4) 0.662(4)
F2_2 F 0.28276(18) 0.6841(2) 0.27505(18)
N1_2 N 0.1187(2) 0.57419(19) 0.12539(19)
C1_2 C 0.1218(2) 0.6834(2) 0.1363(2)
C2_2 C 0.0410(3) 0.7516(2) 0.0729(2)
C3_2 C 0.0322(4) 0.8662(3) 0.0802(4)
C4_2 C 0.1183(5) 0.9129(3) 0.1622(4)
H2_2 H 0.1185 0.9894 0.1721
C5_2 C 0.2013(4) 0.8501(3) 0.2275(4)
H3_2 H 0.2570 0.8828 0.2821
C6_2 C 0.2015(3) 0.7430(3) 0.2123(3)
H16_2 H 0.160(4) 0.557(4) 0.162(4)
F3_2 F 0.04346(19) 0.29909(17) 0.00223(15)
K2 K 0.12706(4) 0.49571(4) 0.91550(4)
O5_2 O 0.22588(16) 0.37706(14) 0.74964(15)
O7_2 O 0.17605(16) 0.67491(13) 0.80636(15)
O9 O 0.37099(15) 0.48894(15) 0.98324(15)
H17_2 H 0.0255 0.0919 0.9651
O3_2 O 0.62901(15) 0.51106(15) 0.01676(15)
H1_2 H 0.9745 0.9081 0.0349
H13_2 H 0.5906 0.6685 0.0242
C23_2 C 0.4485(2) 0.3976(2) 0.0094(2)
H28_2 H 0.4587 0.3870 0.0887
C24_2 C 0.4268(2) 0.5854(2) 0.0304(2)
H30_2 H 0.4363 0.5787 0.1101
H31_2 H 0.3729 0.6487 0.0105
F1_2 F 0.95654(19) 0.70091(17) 0.99777(15)
C11_2 C 0.5515(2) 0.6024(2) 0.9906(2)
H12_2 H 0.5413 0.6130 0.9113
C12_2 C 0.5732(2) 0.4146(2) 0.9696(2)
H14_2 H 0.5637 0.4213 0.8899
H15_2 H 0.6271 0.3513 0.9895
F4_2 F 0.71724(18) 0.3159(2) 0.72495(18)
N2_2 N 0.8813(2) 0.42581(19) 0.87461(19)
C13_2 C 0.8782(2) 0.3166(2) 0.8637(2)
C14_2 C 0.9590(3) 0.2484(2) 0.9271(2)
C15_2 C 0.9678(4) 0.1338(3) 0.9198(4)
C16_2 C 0.8817(5) 0.0871(3) 0.8378(4)
H18_2 H 0.8815 0.0106 0.8279
C17_2 C 0.7987(4) 0.1499(3) 0.7725(4)
H19_2 H 0.7430 0.1172 0.7179
C18_2 C 0.7985(3) 0.2570(3) 0.7877(3)
H29_2 H 0.4094 0.3315 0.9758
H32_2 H 0.840(4) 0.443(4) 0.838(4)
C19_2 C 0.3369(2) 0.3697(2) 0.6978(2)
H20_2 H 0.3164 0.3750 0.6186
H21_2 H 0.3921 0.4312 0.7213
C20_2 C 0.4029(2) 0.2651(2) 0.7246(2)
H22_2 H 0.4287 0.2618 0.8032
H23_2 H 0.4782 0.2612 0.6863
C21_2 C 0.2135(2) 0.1824(2) 0.7452(2)
H24_2 H 0.1585 0.1205 0.7225
H25_2 H 0.2340 0.1782 0.8245
C22_2 C 0.1477(2) 0.2868(2) 0.7165(2)
H26_2 H 0.0709 0.2906 0.7527
H27_2 H 0.1245 0.2900 0.6375
C7_2 C 0.1631(2) 0.8697(2) 0.8022(2)
H4_2 H 0.1836 0.8750 0.8814
H5_2 H 0.1079 0.9312 0.7787
C8_2 C 0.0971(2) 0.7651(2) 0.7754(2)
H6_2 H 0.0713 0.7618 0.6968
H7_2 H 0.0218 0.7612 0.8137
C9_2 C 0.2865(2) 0.6824(2) 0.7548(2)
H8_2 H 0.3415 0.6205 0.7775
H9_2 H 0.2660 0.6782 0.6755
C10_2 C 0.3523(2) 0.7868(2) 0.7835(2)
H10_2 H 0.4291 0.7906 0.7473
H11_2 H 0.3755 0.7900 0.8625
loop_
_geom_bond_atom_site_label_1
_geom_bond_atom_site_label_2
_geom_bond_site_symmetry_1
_geom_bond_site_symmetry_2
H30 C24 1_555 1_555
H31 C24 1_555 1_555
K4 O8 1_555 1_555
O8 C23 1_555 1_555
H28 C23 1_555 1_555
H29 C23 1_555 1_555
K1 F1 1_555 1_555
F1 C2 1_555 1_555
F2 C6 1_555 1_555
O1 K1 1_555 1_555
O2 C8 1_555 1_555
O3 K1 1_555 1_555
N1 K1 1_555 1_555
C1 N1 1_555 1_555
C2 C1 1_555 1_555
C3 C2 1_555 1_555
H1 C3 1_555 1_555
C4 C3 1_555 1_555
H2 C4 1_555 1_555
C5 C4 1_555 1_555
H3 C5 1_555 1_555
C6 C1 1_555 1_555
C7 O1 1_555 1_555
H4 C7 1_555 1_555
H5 C7 1_555 1_555
C8 C7 1_555 1_555
H6 C8 1_555 1_555
H7 C8 1_555 1_555
C9 O2 1_555 1_555
H8 C9 1_555 1_555
H9 C9 1_555 1_555
C10 O1 1_555 1_555
H10 C10 1_555 1_555
H11 C10 1_555 1_555
C11 O3 1_555 1_555
H12 C11 1_555 1_555
H13 C11 1_555 1_555
H16 N1 1_555 1_555
K3 O2 1_555 1_555
C5 C6 1_555 1_555
C9 C10 1_555 1_555
H14 C12 1_555 1_555
H15 C12 1_555 1_555
K3 O4 1_555 1_555
F4 C18 1_555 1_555
O4 C19 1_555 1_555
O5 K4 1_555 1_555
C13 N2 1_555 1_555
C14 F3 1_555 1_555
C15 C14 1_555 1_555
H17 C15 1_555 1_555
C16 C15 1_555 1_555
H18 C16 1_555 1_555
C17 C16 1_555 1_555
H19 C17 1_555 1_555
C18 C13 1_555 1_555
C19 H20 1_555 1_555
H21 C19 1_555 1_555
C20 O6 1_555 1_555
H22 C20 1_555 1_555
H23 C20 1_555 1_555
C21 O6 1_555 1_555
H24 C21 1_555 1_555
H25 C21 1_555 1_555
C22 O4 1_555 1_555
H26 C22 1_555 1_555
H27 C22 1_555 1_555
H32 N2 1_555 1_555
K4 F3 1_555 1_555
K4 N2 1_555 1_555
C13 C14 1_555 1_555
C17 C18 1_555 1_555
C19 C20 1_555 1_555
C21 C22 1_555 1_555
F2_2 C6_2 1_555 1_555
C1_2 N1_2 1_555 1_555
C2_2 C1_2 1_555 1_555
C3_2 C2_2 1_555 1_555
C4_2 C3_2 1_555 1_555
H2_2 C4_2 1_555 1_555
C5_2 C4_2 1_555 1_555
H3_2 C5_2 1_555 1_555
C6_2 C1_2 1_555 1_555
H16_2 N1_2 1_555 1_555
C5_2 C6_2 1_555 1_555
O5_2 K2 1_555 1_555
O7_2 K2 1_555 1_555
O9 K2 1_555 1_555
O3_2 K3 1_555 1_555
H28_2 C23_2 1_555 1_555
H30_2 C24_2 1_555 1_555
H31_2 C24_2 1_555 1_555
H12_2 C11_2 1_555 1_555
H14_2 C12_2 1_555 1_555
H15_2 C12_2 1_555 1_555
F4_2 C18_2 1_555 1_555
C13_2 N2_2 1_555 1_555
C15_2 C14_2 1_555 1_555
C16_2 C15_2 1_555 1_555
H18_2 C16_2 1_555 1_555
C17_2 C16_2 1_555 1_555
H19_2 C17_2 1_555 1_555
C18_2 C13_2 1_555 1_555
H32_2 N2_2 1_555 1_555
C13_2 C14_2 1_555 1_555
C17_2 C18_2 1_555 1_555
O5_2 C19_2 1_555 1_555
C19_2 H20_2 1_555 1_555
H21_2 C19_2 1_555 1_555
C20_2 O7 1_555 1_555
H22_2 C20_2 1_555 1_555
H23_2 C20_2 1_555 1_555
C21_2 O7 1_555 1_555
H24_2 C21_2 1_555 1_555
H25_2 C21_2 1_555 1_555
C22_2 O5_2 1_555 1_555
H26_2 C22_2 1_555 1_555
H27_2 C22_2 1_555 1_555
C19_2 C20_2 1_555 1_555
C21_2 C22_2 1_555 1_555
O7_2 C8_2 1_555 1_555
C7_2 O5 1_555 1_555
H4_2 C7_2 1_555 1_555
H5_2 C7_2 1_555 1_555
C8_2 C7_2 1_555 1_555
H6_2 C8_2 1_555 1_555
H7_2 C8_2 1_555 1_555
C9_2 O7_2 1_555 1_555
H8_2 C9_2 1_555 1_555
H9_2 C9_2 1_555 1_555
C10_2 O5 1_555 1_555
H10_2 C10_2 1_555 1_555
H11_2 C10_2 1_555 1_555
C9_2 C10_2 1_555 1_555

#END
