
###############################################################################
#
# This file contains modified crystal structure data generated from the
# MOF subset of the Cambridge Structural Database (CSD) v543 
# hosted by the Cambridge Crystallographic Data Centre (CCDC).
#
# This work is licensed under the Creative Commons
# Attribution-NonCommercial-ShareAlike 4.0 International License.
# To view a copy of this license, visit
# http://creativecommons.org/licenses/by-nc-sa/4.0/
# or send a letter to
# Creative Commons, PO Box 1866, Mountain View, CA 94042, USA.
#
# CIF created using the CSD Python API on 29 September 2022
# The structure has been converted into the P1 space group
# The structure has a 3D framework
# The original CSD entry NOBVOR is in the triclinic crystal system
# The framework has been calculated to contain at least 10.0% void space
# The void calculation uses a probe of radius 1.32A, grid spacing 0.4
#
###############################################################################

data_NOBVOR
_chemical_formula_moiety         '(C38 H24 Co10 N12 O8)n'
_symmetry_cell_setting           triclinic
_symmetry_space_group_name_H-M   'P 1'
_symmetry_Int_Tables_number      1
_space_group_name_Hall           'P 1'
loop_
_symmetry_equiv_pos_site_id
_symmetry_equiv_pos_as_xyz
1 x,y,z
_cell_length_a                   11.4527(14)
_cell_length_b                   11.6239(9)
_cell_length_c                   11.7754(10)
_cell_angle_alpha                64.825(8)
_cell_angle_beta                 81.406(9)
_cell_angle_gamma                72.316(9)
_cell_volume                     1351.29
loop_
_atom_site_label
_atom_site_type_symbol
_atom_site_fract_x
_atom_site_fract_y
_atom_site_fract_z
Co6 Co 0.0000 -0.0000 0.0000
Co6_2 Co 0.0000 -0.0000 1.0000
Co6_3 Co 0.0000 1.0000 0.0000
Co6_4 Co 0.0000 1.0000 1.0000
Co3 Co 0.0000 -0.0000 0.5000
Co6_5 Co 1.0000 -0.0000 0.0000
O10 O 0.0794(5) 0.1549(4) 0.4491(4)
C7 C 0.2212(8) 0.1046(8) 0.9950(8)
H2 H 0.1589 0.1806 0.9867
C19 C 0.3360(7) 0.1093(7) 0.9917(8)
H12 H 0.3509 0.1873 0.9820
N7 N 0.8109(6) 0.0029(6) 0.9905(5)
C20 C 0.5642(7) 0.0011(7) 0.9976(6)
C22 C 0.7185(8) 0.1099(8) 0.9754(9)
H14 H 0.7374 0.1874 0.9612
C23 C 0.5986(8) 0.1134(8) 0.9793(10)
H15 H 0.5386 0.1914 0.9698
Co6_6 Co 1.0000 -0.0000 1.0000
Co1 Co 0.0000 0.5000 0.5000
Co3_2 Co 0.0000 1.0000 0.5000
N1 N 0.0044(5) 0.6751(5) 0.3477(5)
N2 N 0.0241(5) 0.7158(5) 0.2251(5)
N3 N 0.0100(5) 0.8461(5) 0.1756(5)
N5 N 0.1891(6) 0.9971(6) 0.0095(5)
C5 C 0.4358(7) 0.9989(7) 0.0024(6)
C12 C 0.2815(8) 0.8901(8) 0.0246(9)
H6 H 0.2626 0.8126 0.0388
C14 C 0.4014(8) 0.8866(8) 0.0207(10)
H8 H 0.4614 0.8086 0.0302
C21 C 0.7788(8) 0.8954(8) 0.0050(8)
H13 H 0.8411 0.8194 0.0133
C24 C 0.6640(7) 0.8907(7) 0.0083(8)
H16 H 0.6491 0.8127 0.0180
O6 O 0.0446(5) 0.3656(4) 0.4140(4)
C36 C 0.0192(6) 0.1107(6) 0.7302(6)
C37 C 0.0489(6) 0.2479(6) 0.4858(6)
C38 C 0.0209(6) 0.2202(6) 0.6203(6)
Co6_7 Co 1.0000 1.0000 0.0000
O11 O 0.0462(5) 0.9221(4) 0.6871(4)
N14 N 0.1965(5) 0.4553(5) 0.5212(6)
N16 N 0.1733(5) 0.8765(5) 0.4718(5)
Co6_8 Co 1.0000 1.0000 1.0000
O9 O 0.0490(5) 0.8961(4) 0.8834(4)
C35 C 0.0386(6) 0.9674(6) 0.7677(6)
Co3_3 Co 1.0000 -0.0000 0.5000
O1 O 0.9510(5) 0.1039(4) 0.1166(4)
O4 O 0.9538(5) 0.0779(4) 0.3129(4)
C1 C 0.9614(6) 0.0326(6) 0.2323(6)
H3 H 0.2212 0.0008 0.3088
N9 N 0.8267(5) 0.1235(5) 0.5282(5)
C25 C 0.2516(7) 0.3845(7) 0.6313(7)
H17 H 0.2042 0.3734 0.7047
C26 C 0.7501(7) 0.0808(7) 0.6258(7)
C27 C 0.3751(7) 0.3275(8) 0.6403(8)
H19 H 0.4094 0.2777 0.7192
C28 C 0.4511(7) 0.3429(7) 0.5324(7)
C29 C 0.3930(7) 0.4197(7) 0.4208(7)
H20 H 0.4384 0.4351 0.3459
C30 C 0.6310(7) 0.1528(8) 0.6329(7)
H21 H 0.5824 0.1206 0.7035
C31 C 0.5837(7) 0.2713(7) 0.5369(7)
C32 C 0.6639(7) 0.3188(7) 0.4390(7)
H22 H 0.6384 0.4019 0.3745
C33 C 0.7803(7) 0.2423(7) 0.4387(7)
H23 H 0.8316 0.2753 0.3710
C34 C 0.2691(8) 0.4741(8) 0.4179(7)
H24 H 0.2331 0.5271 0.3402
N13 N 0.9900(5) 0.1539(5) 0.8244(5)
Co1_2 Co 1.0000 0.5000 0.5000
Co3_4 Co 1.0000 1.0000 0.5000
O2 O 0.9554(5) 0.6344(4) 0.5860(4)
O3 O 0.9206(5) 0.8451(4) 0.5509(4)
C2 C 0.9808(6) 0.8893(6) 0.2698(6)
C3 C 0.9511(6) 0.7521(6) 0.5142(6)
C4 C 0.9791(6) 0.7798(6) 0.3797(6)
N4 N 0.8035(5) 0.5447(5) 0.4788(6)
C6 C 0.7484(7) 0.6155(7) 0.3687(7)
H1 H 0.7958 0.6266 0.2953
C8 C 0.2499(7) 0.9192(7) 0.3742(7)
C9 C 0.6249(7) 0.6725(8) 0.3597(8)
H4 H 0.5906 0.7223 0.2808
C10 C 0.5489(7) 0.6571(7) 0.4676(7)
C11 C 0.6070(7) 0.5803(7) 0.5792(7)
H5 H 0.5616 0.5649 0.6541
C13 C 0.3690(7) 0.8472(8) 0.3671(7)
H7 H 0.4176 0.8794 0.2965
C15 C 0.4163(7) 0.7287(7) 0.4631(7)
C16 C 0.3361(7) 0.6812(7) 0.5610(7)
H9 H 0.3616 0.5981 0.6255
C17 C 0.2197(7) 0.7577(7) 0.5613(7)
H10 H 0.1684 0.7247 0.6290
C18 C 0.7309(8) 0.5259(8) 0.5821(7)
H11 H 0.7669 0.4729 0.6598
H18 H 0.7788 0.9992 0.6912
N10 N 0.9956(5) 0.3249(5) 0.6523(5)
N11 N 0.9759(5) 0.2842(5) 0.7749(5)
loop_
_geom_bond_atom_site_label_1
_geom_bond_atom_site_label_2
_geom_bond_site_symmetry_1
_geom_bond_site_symmetry_2
O10 Co3 1_555 1_555
H2 C7 1_555 1_555
H12 C19 1_555 1_555
C22 N7 1_555 1_555
H14 C22 1_555 1_555
C23 C20 1_555 1_555
H15 C23 1_555 1_555
Co6_6 N7 1_555 1_555
C7 C19 1_555 1_555
C22 C23 1_555 1_555
N1 Co1 1_555 1_555
N2 N1 1_555 1_555
N3 Co6_3 1_555 1_555
N5 Co6_3 1_555 1_555
C5 C14 1_555 1_555
C12 N5 1_555 1_555
H6 C12 1_555 1_555
C14 C12 1_555 1_555
H8 C14 1_555 1_555
C21 H13 1_555 1_555
H16 C24 1_555 1_555
O6 Co1 1_555 1_555
O10 C37 1_555 1_555
C37 O6 1_555 1_555
O11 Co3_2 1_555 1_555
N14 Co1 1_555 1_555
N16 Co3_2 1_555 1_555
N2 N3 1_555 1_555
C21 C24 1_555 1_555
C36 C38 1_555 1_555
C37 C38 1_555 1_555
O9 Co6_4 1_555 1_555
O9 C35 1_555 1_555
O11 C35 1_555 1_555
Co6_5 O1 1_555 1_555
O1 C1 1_555 1_555
O4 Co3_3 1_555 1_555
C1 O4 1_555 1_555
N14 C25 1_555 1_555
N9 Co3_3 1_555 1_555
C25 H17 1_555 1_555
C26 N9 1_555 1_555
C27 C25 1_555 1_555
H19 C27 1_555 1_555
C28 C27 1_555 1_555
C29 C28 1_555 1_555
H20 C29 1_555 1_555
C30 C26 1_555 1_555
H21 C30 1_555 1_555
C31 C28 1_555 1_555
C32 C31 1_555 1_555
H22 C32 1_555 1_555
C33 N9 1_555 1_555
H23 C33 1_555 1_555
C34 N14 1_555 1_555
H24 C34 1_555 1_555
C29 C34 1_555 1_555
C30 C31 1_555 1_555
C32 C33 1_555 1_555
N13 Co6_6 1_555 1_555
Co1_2 O2 1_555 1_555
Co3_4 O3 1_555 1_555
O2 C3 1_555 1_555
O3 C3 1_555 1_555
C3 C4 1_555 1_555
N4 Co1_2 1_555 1_555
N16 C8 1_555 1_555
C6 N4 1_555 1_555
H1 C6 1_555 1_555
C9 C6 1_555 1_555
H4 C9 1_555 1_555
C10 C9 1_555 1_555
C11 C10 1_555 1_555
H5 C11 1_555 1_555
C13 C8 1_555 1_555
H7 C13 1_555 1_555
C15 C10 1_555 1_555
C16 C15 1_555 1_555
H9 C16 1_555 1_555
C17 N16 1_555 1_555
H10 C17 1_555 1_555
C18 N4 1_555 1_555
H11 C18 1_555 1_555
N10 Co1_2 1_555 1_555
N11 N10 1_555 1_555
N13 N11 1_555 1_555
C2 C4 1_555 1_555
C11 C18 1_555 1_555
C13 C15 1_555 1_555
C16 C17 1_555 1_555

#END
