
###############################################################################
#
# This file contains modified crystal structure data generated from the
# MOF subset of the Cambridge Structural Database (CSD) v543 
# hosted by the Cambridge Crystallographic Data Centre (CCDC).
#
# This work is licensed under the Creative Commons
# Attribution-NonCommercial-ShareAlike 4.0 International License.
# To view a copy of this license, visit
# http://creativecommons.org/licenses/by-nc-sa/4.0/
# or send a letter to
# Creative Commons, PO Box 1866, Mountain View, CA 94042, USA.
#
# CIF created using the CSD Python API on 29 September 2022
# The structure has been converted into the P1 space group
# The structure has a 3D framework
# The original CSD entry NOBXAG is in the hexagonal crystal system
# The framework has been calculated to contain at least 10.0% void space
# The void calculation uses a probe of radius 1.32A, grid spacing 0.4
#
###############################################################################

data_NOBXAG
_chemical_formula_moiety         '(C204 H120 Co18 N36 O48)n'
_symmetry_cell_setting           triclinic
_symmetry_space_group_name_H-M   'P 1'
_symmetry_Int_Tables_number      1
_space_group_name_Hall           'P 1'
loop_
_symmetry_equiv_pos_site_id
_symmetry_equiv_pos_as_xyz
1 x,y,z
_cell_length_a                   19.4081(15)
_cell_length_b                   19.4081(15)
_cell_length_c                   24.197(2)
_cell_angle_alpha                90
_cell_angle_beta                 90
_cell_angle_gamma                120
_cell_volume                     7893.29
loop_
_atom_site_label
_atom_site_type_symbol
_atom_site_fract_x
_atom_site_fract_y
_atom_site_fract_z
Co14 Co -0.0000 0.5000 0.5000
Co18 Co 0.0000 0.5000 0.0000
Co18_2 Co -0.0000 0.5000 1.0000
Co1 Co 0.34302(6) 0.56686(6) 0.2500
Co2 Co 0.5000 0.5000 0.5000
N1 N 0.5107(2) 0.6039(2) 0.46464(13)
N2 N 0.3578(3) 0.4649(3) 0.2500
N3 N 0.4845(3) 0.0740(4) 0.43707(15)
N4 N 0.4478(4) 0.1530(3) 0.2500
O1 O 0.58756(18) 0.5861(2) 0.54943(11)
O2 O 0.6416(2) 0.7155(2) 0.57201(13)
O3 O 0.4272(2) 0.61418(19) 0.31375(12)
O4 O 0.48755(19) 0.74805(28) 0.31453(12)
O5 O 0.3333 0.6667 0.2500
C1 C 0.6028(3) 0.6579(3) 0.54166(17)
C2 C 0.4688(3) 0.6809(3) 0.33417(17)
C3 C 0.5675(3) 0.6709(3) 0.48898(16)
C4 C 0.5925(3) 0.7456(3) 0.46653(18)
H1 H 0.6301 0.7914 0.4846
C5 C 0.5600(3) 0.7500(3) 0.41645(17)
H2 H 0.5761 0.7993 0.4004
C6 C 0.5037(3) 0.6810(3) 0.39046(17)
C7 C 0.4790(3) 0.6089(3) 0.41655(17)
H3 H 0.4394 0.5625 0.4003
C8 C 0.3646(3) 0.4314(3) 0.29671(16)
H4 H 0.3592 0.4521 0.3300
C9 C 0.3788(3) 0.3690(3) 0.29901(17)
H5 H 0.3831 0.3490 0.3329
C10 C 0.3867(4) 0.3362(4) 0.2500
C11 C 0.5075(4) 0.0691(5) 0.38583(18)
H6 H 0.5348 0.0417 0.3802
C12 C 0.4922(4) 0.1034(5) 0.34085(19)
H7 H 0.5085 0.0979 0.3058
C13 C 0.4524(3) 0.1462(4) 0.34749(17)
C14 C 0.4300(4) 0.1519(5) 0.40054(17)
H8 H 0.4039 0.1802 0.4075
C15 C 0.4466(4) 0.1150(5) 0.44350(19)
H9 H 0.4303 0.1191 0.4789
C16 C 0.4056(5) 0.2712(4) 0.2500
C17 C 0.4153(3) 0.2405(3) 0.29943(18)
H10 H 0.4071 0.2582 0.3332
C18 C 0.4378(3) 0.1823(3) 0.29716(17)
C19 C 0.3646(3) 0.4314(3) 0.20329(16)
H11 H 0.3592 0.4521 0.1700
C20 C 0.3788(3) 0.3690(3) 0.20099(17)
H12 H 0.3831 0.3490 0.1671
C21 C 0.4153(3) 0.2405(3) 0.20057(18)
H13 H 0.4071 0.2582 0.1668
C22 C 0.4378(3) 0.1823(3) 0.20284(17)
N5 N 0.4845(3) 0.0740(4) 0.06293(15)
C23 C 0.5075(4) 0.0691(5) 0.11417(18)
H14 H 0.5348 0.0417 0.1198
C24 C 0.4922(4) 0.1034(5) 0.15915(19)
H15 H 0.5085 0.0979 0.1942
C25 C 0.4524(3) 0.1462(4) 0.15251(17)
C26 C 0.4300(4) 0.1519(5) 0.09946(17)
H16 H 0.4039 0.1802 0.0925
C27 C 0.4466(4) 0.1150(5) 0.05650(19)
H17 H 0.4303 0.1191 0.0211
Co4 Co 0.5000 0.0000 0.5000
N8 N 0.9260(4) 0.4105(5) 0.43707(15)
N9 N 0.8470(3) 0.2948(5) 0.2500
O6 O 0.4139(2) 0.00146(27) 0.54943(11)
C36 C 0.6310(3) 0.0098(4) 0.29901(17)
H22 H 0.6510 0.0341 0.3329
C37 C 0.6638(4) 0.0505(6) 0.2500
C38 C 0.9309(5) 0.4384(6) 0.38583(18)
H23 H 0.9583 0.4931 0.3802
C39 C 0.8966(5) 0.3888(6) 0.34085(19)
H24 H 0.9021 0.4106 0.3058
C40 C 0.8538(4) 0.3062(5) 0.34749(17)
C41 C 0.8481(5) 0.2781(6) 0.40054(17)
H25 H 0.8198 0.2237 0.4075
C42 C 0.8850(5) 0.3316(6) 0.44350(19)
H26 H 0.8809 0.3112 0.4789
C43 C 0.7288(4) 0.1344(6) 0.2500
C44 C 0.7595(3) 0.1748(4) 0.29943(18)
H27 H 0.7418 0.1489 0.3332
C45 C 0.8177(3) 0.2555(4) 0.29716(17)
C47 C 0.6310(3) 0.0098(4) 0.20099(17)
H29 H 0.6510 0.0341 0.1671
C48 C 0.7595(3) 0.1748(4) 0.20057(18)
H30 H 0.7418 0.1489 0.1668
C49 C 0.8177(3) 0.2555(4) 0.20284(17)
N10 N 0.9260(4) 0.4105(5) 0.06293(15)
C50 C 0.9309(5) 0.4384(6) 0.11417(18)
H31 H 0.9583 0.4931 0.1198
C51 C 0.8966(5) 0.3888(6) 0.15915(19)
H32 H 0.9021 0.4106 0.1942
C52 C 0.8538(4) 0.3062(5) 0.15251(17)
C53 C 0.8481(5) 0.2781(6) 0.09946(17)
H33 H 0.8198 0.2237 0.0925
C54 C 0.8850(5) 0.3316(6) 0.05650(19)
H34 H 0.8809 0.3112 0.0211
Co5 Co 0.22384(8) 0.65698(6) 0.2500
N11 N 0.0932(3) 0.4893(2) 0.46464(13)
N12 N 0.1071(4) 0.6422(3) 0.2500
O11 O 0.0739(3) 0.3584(2) 0.57201(13)
O12 O 0.18698(28) 0.5728(2) 0.31375(12)
O13 O 0.26050(34) 0.51245(19) 0.31453(12)
C55 C 0.0551(4) 0.3972(3) 0.54166(17)
C56 C 0.2121(4) 0.5312(3) 0.33417(17)
C57 C 0.1034(4) 0.4325(3) 0.48898(16)
C58 C 0.1531(4) 0.4075(3) 0.46653(18)
H35 H 0.1613 0.3699 0.4846
C59 C 0.1900(4) 0.4400(3) 0.41645(17)
H36 H 0.2232 0.4239 0.4004
C60 C 0.1773(4) 0.4963(3) 0.39046(17)
C61 C 0.1299(4) 0.5210(3) 0.41655(17)
H37 H 0.1231 0.5606 0.4003
C62 C 0.0668(4) 0.6354(3) 0.29671(16)
H38 H 0.0929 0.6408 0.3300
C73 C 0.0668(4) 0.6354(3) 0.20329(16)
H45 H 0.0929 0.6408 0.1700
N16 N 0.6039(2) 0.0932(3) 0.53536(13)
O15 O 0.7155(2) 0.0739(3) 0.42799(13)
O16 O 0.61418(19) 0.18698(28) 0.68625(12)
O17 O 0.74805(28) 0.26050(34) 0.68547(12)
C82 C 0.6579(3) 0.0551(4) 0.45834(17)
C83 C 0.6809(3) 0.2121(4) 0.66583(17)
C84 C 0.6709(3) 0.1034(4) 0.51102(16)
C85 C 0.7456(3) 0.1531(4) 0.53347(18)
H52 H 0.7914 0.1613 0.5154
C86 C 0.7500(3) 0.1900(4) 0.58355(17)
H53 H 0.7993 0.2232 0.5996
C87 C 0.6810(3) 0.1773(4) 0.60954(17)
C88 C 0.6089(3) 0.1299(4) 0.58345(17)
H54 H 0.5625 0.1231 0.5997
O18 O 0.00146(27) 0.58756(18) 0.45057(11)
N18 N 0.5107(2) 0.6039(2) 0.03536(13)
O24 O 0.4272(2) 0.61418(19) 0.18625(12)
O25 O 0.48755(19) 0.74805(28) 0.18547(12)
C97 C 0.4688(3) 0.6809(3) 0.16583(17)
C98 C 0.5675(3) 0.6709(3) 0.01102(16)
C99 C 0.5925(3) 0.7456(3) 0.03347(18)
H58 H 0.6301 0.7914 0.0154
C100 C 0.5600(3) 0.7500(3) 0.08355(17)
H59 H 0.5761 0.7993 0.0996
C101 C 0.5037(3) 0.6810(3) 0.10954(17)
C102 C 0.4790(3) 0.6089(3) 0.08345(17)
H60 H 0.4394 0.5625 0.0997
Co7 Co 0.43314(6) 0.77616(8) 0.2500
Co10 Co 0.56686(6) 0.22384(8) 0.7500
Co12 Co 0.77616(8) 0.34302(6) 0.7500
Co14_2 Co 1.0000 0.5000 0.5000
Co16 Co 0.5000 0.5000 0.0000
Co17 Co 0.5000 0.0000 0.0000
Co18_3 Co 1.0000 0.5000 0.0000
N19 N 0.4893(2) 0.3961(2) 0.53536(13)
N21 N 0.5895(5) 0.5155(3) 0.43707(15)
N23 N 0.0740(4) 0.5895(5) 0.56293(15)
N24 N 0.4105(5) 0.4845(3) 0.56293(15)
O26 O 0.41244(18) 0.4139(2) 0.45057(11)
O28 O 0.18698(28) 0.5728(2) 0.18625(12)
O30 O 0.25195(28) 0.73950(34) 0.31453(12)
O32 O 0.25195(28) 0.73950(34) 0.18547(12)
O33 O 0.26050(34) 0.51245(19) 0.18547(12)
O22 O 0.58756(18) 0.5861(2) 0.95057(11)
O23 O 0.6416(2) 0.7155(2) 0.92799(13)
C96 C 0.6028(3) 0.6579(3) 0.95834(17)
Co16_2 Co 0.5000 0.5000 1.0000
Co17_2 Co 0.5000 0.0000 1.0000
Co18_4 Co 1.0000 0.5000 1.0000
Co4_2 Co 0.5000 1.0000 0.5000
N6 N 0.3961(2) 0.9068(3) 0.46464(13)
N7 N 0.5351(3) 0.8929(4) 0.2500
O7 O 0.2845(2) 0.9261(3) 0.57201(13)
O8 O 0.38582(19) 0.81302(28) 0.31375(12)
C28 C 0.3421(3) 0.9449(4) 0.54166(17)
C29 C 0.3191(3) 0.7879(4) 0.33417(17)
C30 C 0.3291(3) 0.8966(4) 0.48898(16)
C31 C 0.2544(3) 0.8469(4) 0.46653(18)
H18 H 0.2086 0.8387 0.4846
C32 C 0.2500(3) 0.8100(4) 0.41645(17)
H19 H 0.2007 0.7768 0.4004
C33 C 0.3190(3) 0.8227(4) 0.39046(17)
C34 C 0.3911(3) 0.8701(4) 0.41655(17)
H20 H 0.4375 0.8769 0.4003
C35 C 0.5686(3) 0.9332(4) 0.29671(16)
H21 H 0.5479 0.9071 0.3300
C46 C 0.5686(3) 0.9332(4) 0.20329(16)
H28 H 0.5479 0.9071 0.1700
O14 O 0.5861(2) 0.99854(27) 0.45057(11)
Co17_3 Co 0.5000 1.0000 0.0000
N22 N 0.5155(3) 0.9260(4) 0.56293(15)
O27 O 0.38582(19) 0.81302(28) 0.18625(12)
Co17_4 Co 0.5000 1.0000 1.0000
N14 N 0.7052(5) 0.5522(4) 0.2500
O10 O 0.99854(27) 0.41244(18) 0.54943(11)
C63 C 0.9902(4) 0.6212(3) 0.29901(17)
H39 H 0.9659 0.6169 0.3329
C64 C 0.9495(6) 0.6133(4) 0.2500
C65 C 0.5616(6) 0.4925(4) 0.38583(18)
H40 H 0.5069 0.4652 0.3802
C66 C 0.6112(6) 0.5078(4) 0.34085(19)
H41 H 0.5894 0.4915 0.3058
C67 C 0.6938(5) 0.5476(3) 0.34749(17)
C68 C 0.7219(6) 0.5700(4) 0.40054(17)
H42 H 0.7763 0.5961 0.4075
C69 C 0.6684(6) 0.5534(4) 0.44350(19)
H43 H 0.6888 0.5697 0.4789
C70 C 0.8656(6) 0.5944(5) 0.2500
C71 C 0.8252(4) 0.5847(3) 0.29943(18)
H44 H 0.8511 0.5929 0.3332
C72 C 0.7445(4) 0.5622(3) 0.29716(17)
C74 C 0.9902(4) 0.6212(3) 0.20099(17)
H46 H 0.9659 0.6169 0.1671
C75 C 0.8252(4) 0.5847(3) 0.20057(18)
H47 H 0.8511 0.5929 0.1668
C76 C 0.7445(4) 0.5622(3) 0.20284(17)
N15 N 0.5895(5) 0.5155(3) 0.06293(15)
C77 C 0.5616(6) 0.4925(4) 0.11417(18)
H48 H 0.5069 0.4652 0.1198
C78 C 0.6112(6) 0.5078(4) 0.15915(19)
H49 H 0.5894 0.4915 0.1942
C79 C 0.6938(5) 0.5476(3) 0.15251(17)
C80 C 0.7219(6) 0.5700(4) 0.09946(17)
H50 H 0.7763 0.5961 0.0925
C81 C 0.6684(6) 0.5534(4) 0.05650(19)
H51 H 0.6888 0.5697 0.0211
N17 N 0.9068(3) 0.5107(2) 0.53536(13)
O19 O 0.9261(3) 0.6416(2) 0.42799(13)
O20 O 0.81302(28) 0.4272(2) 0.68625(12)
O21 O 0.73950(34) 0.48755(19) 0.68547(12)
C89 C 0.9449(4) 0.6028(3) 0.45834(17)
C90 C 0.7879(4) 0.4688(3) 0.66583(17)
C91 C 0.8966(4) 0.5675(3) 0.51102(16)
C92 C 0.8469(4) 0.5925(3) 0.53347(18)
H55 H 0.8387 0.6301 0.5154
C93 C 0.8100(4) 0.5600(3) 0.58355(17)
H56 H 0.7768 0.5761 0.5996
C94 C 0.8227(4) 0.5037(3) 0.60954(17)
C95 C 0.8701(4) 0.4790(3) 0.58345(17)
H57 H 0.8769 0.4394 0.5997
Co9 Co 0.65698(6) 0.43314(6) 0.7500
O22_2 O 0.4139(2) 0.00146(27) 0.95057(11)
O19_2 O 0.3584(2) 0.2845(4) 0.42799(13)
O20_2 O 0.5728(2) 0.38582(34) 0.68625(12)
O21_2 O 0.51245(19) 0.25195(39) 0.68547(12)
C89_2 C 0.3972(3) 0.3421(5) 0.45834(17)
C90_2 C 0.5312(3) 0.3191(5) 0.66583(17)
C91_2 C 0.4325(3) 0.3291(5) 0.51102(16)
C92_2 C 0.4075(3) 0.2544(5) 0.53347(18)
H55_2 H 0.3699 0.2086 0.5154
C93_2 C 0.4400(3) 0.2500(5) 0.58355(17)
H56_2 H 0.4239 0.2007 0.5996
C94_2 C 0.4963(3) 0.3190(5) 0.60954(17)
C95_2 C 0.5210(3) 0.3911(5) 0.58345(17)
H57_2 H 0.5606 0.4375 0.5997
N18_2 N 0.3961(2) 0.9068(3) 0.03536(13)
C97_2 C 0.3191(3) 0.7879(4) 0.16583(17)
C98_2 C 0.3291(3) 0.8966(4) 0.01102(16)
C99_2 C 0.2544(3) 0.8469(4) 0.03347(18)
H58_2 H 0.2086 0.8387 0.0154
C100_2 C 0.2500(3) 0.8100(4) 0.08355(17)
H59_2 H 0.2007 0.7768 0.0996
C101_2 C 0.3190(3) 0.8227(4) 0.10954(17)
C102_2 C 0.3911(3) 0.8701(4) 0.08345(17)
H60_2 H 0.4375 0.8769 0.0997
O23_2 O 0.2845(2) 0.9261(3) 0.92799(13)
C96_2 C 0.3421(3) 0.9449(4) 0.95834(17)
N18_3 N 0.0932(3) 0.4893(2) 0.03536(13)
C97_3 C 0.2121(4) 0.5312(3) 0.16583(17)
C98_3 C 0.1034(4) 0.4325(3) 0.01102(16)
C99_3 C 0.1531(4) 0.4075(3) 0.03347(18)
H58_3 H 0.1613 0.3699 0.0154
C100_3 C 0.1900(4) 0.4400(3) 0.08355(17)
H59_3 H 0.2232 0.4239 0.0996
C101_3 C 0.1773(4) 0.4963(3) 0.10954(17)
C102_3 C 0.1299(4) 0.5210(3) 0.08345(17)
H60_3 H 0.1231 0.5606 0.0997
O23_3 O 0.0739(3) 0.3584(2) 0.92799(13)
C96_3 C 0.0551(4) 0.3972(3) 0.95834(17)
O22_3 O 0.99854(27) 0.41244(18) 0.95057(11)
O10_2 O 0.00146(27) 0.58756(18) 0.04943(11)
N13 N 0.4105(5) 0.4845(3) 0.93707(15)
N14_2 N 0.2948(5) 0.4478(4) 0.7500
C63_2 C 0.0098(4) 0.3788(3) 0.79901(17)
H39_2 H 0.0341 0.3831 0.8329
C64_2 C 0.0505(6) 0.3867(4) 0.7500
C65_2 C 0.4384(6) 0.5075(4) 0.88583(18)
H40_2 H 0.4931 0.5348 0.8802
C66_2 C 0.3888(6) 0.4922(4) 0.84085(19)
H41_2 H 0.4106 0.5085 0.8058
C67_2 C 0.3062(5) 0.4524(3) 0.84749(17)
C68_2 C 0.2781(6) 0.4300(4) 0.90054(17)
H42_2 H 0.2237 0.4039 0.9075
C69_2 C 0.3316(6) 0.4466(4) 0.94350(19)
H43_2 H 0.3112 0.4303 0.9789
C70_2 C 0.1344(6) 0.4056(5) 0.7500
C71_2 C 0.1748(4) 0.4153(3) 0.79943(18)
H44_2 H 0.1489 0.4071 0.8332
C72_2 C 0.2555(4) 0.4378(3) 0.79716(17)
C74_2 C 0.0098(4) 0.3788(3) 0.70099(17)
H46_2 H 0.0341 0.3831 0.6671
C75_2 C 0.1748(4) 0.4153(3) 0.70057(18)
H47_2 H 0.1489 0.4071 0.6668
C76_2 C 0.2555(4) 0.4378(3) 0.70284(17)
C77_2 C 0.4384(6) 0.5075(4) 0.61417(18)
H48_2 H 0.4931 0.5348 0.6198
C78_2 C 0.3888(6) 0.4922(4) 0.65915(19)
H49_2 H 0.4106 0.5085 0.6942
C79_2 C 0.3062(5) 0.4524(3) 0.65251(17)
C80_2 C 0.2781(6) 0.4300(4) 0.59946(17)
H50_2 H 0.2237 0.4039 0.5925
C81_2 C 0.3316(6) 0.4466(4) 0.55650(19)
H51_2 H 0.3112 0.4303 0.5211
N20 N 0.0740(4) 0.5895(5) 0.93707(15)
O7_2 O 0.7155(2) 0.0739(3) 0.07201(13)
C28_2 C 0.6579(3) 0.0551(4) 0.04166(17)
N6_2 N 0.6039(2) 0.0932(3) 0.96464(13)
N7_2 N 0.4649(3) 0.1071(4) 0.7500
O8_2 O 0.61418(19) 0.18698(28) 0.81375(12)
O9 O 0.74805(28) 0.26050(34) 0.81453(12)
C29_2 C 0.6809(3) 0.2121(4) 0.83417(17)
C30_2 C 0.6709(3) 0.1034(4) 0.98898(16)
C31_2 C 0.7456(3) 0.1531(4) 0.96653(18)
H18_2 H 0.7914 0.1613 0.9846
C32_2 C 0.7500(3) 0.1900(4) 0.91645(17)
H19_2 H 0.7993 0.2232 0.9004
C33_2 C 0.6810(3) 0.1773(4) 0.89046(17)
C34_2 C 0.6089(3) 0.1299(4) 0.91655(17)
H20_2 H 0.5625 0.1231 0.9003
C35_2 C 0.4314(3) 0.0668(4) 0.79671(16)
H21_2 H 0.4521 0.0929 0.8300
C46_2 C 0.4314(3) 0.0668(4) 0.70329(16)
H28_2 H 0.4521 0.0929 0.6700
O29 O 0.51245(19) 0.25195(28) 0.81453(12)
O34 O 0.6667 0.3333 0.7500
O1_2 O 0.41244(18) 0.4139(2) 0.04943(11)
O2_2 O 0.3584(2) 0.2845(2) 0.07201(13)
C1_2 C 0.3972(3) 0.3421(3) 0.04166(17)
O6_2 O 0.5861(2) 0.99854(27) 0.04943(11)
O11_2 O 0.9261(3) 0.6416(2) 0.07201(13)
C55_2 C 0.9449(4) 0.6028(3) 0.04166(17)
N1_2 N 0.4893(2) 0.3961(2) 0.96464(13)
N2_2 N 0.6422(3) 0.5351(3) 0.7500
N3_2 N 0.5155(3) 0.9260(4) 0.93707(15)
N4_2 N 0.5522(4) 0.8470(3) 0.7500
O3_2 O 0.5728(2) 0.38582(19) 0.81375(12)
C2_2 C 0.5312(3) 0.3191(3) 0.83417(17)
C3_2 C 0.4325(3) 0.3291(3) 0.98898(16)
C4_2 C 0.4075(3) 0.2544(3) 0.96653(18)
H1_2 H 0.3699 0.2086 0.9846
C5_2 C 0.4400(3) 0.2500(3) 0.91645(17)
H2_2 H 0.4239 0.2007 0.9004
C6_2 C 0.4963(3) 0.3190(3) 0.89046(17)
C7_2 C 0.5210(3) 0.3911(3) 0.91655(17)
H3_2 H 0.5606 0.4375 0.9003
C8_2 C 0.6354(3) 0.5686(3) 0.79671(16)
H4_2 H 0.6408 0.5479 0.8300
C9_2 C 0.6212(3) 0.6310(3) 0.79901(17)
H5_2 H 0.6169 0.6510 0.8329
C10_2 C 0.6133(4) 0.6638(4) 0.7500
C11_2 C 0.4925(4) 0.9309(5) 0.88583(18)
H6_2 H 0.4652 0.9583 0.8802
C12_2 C 0.5078(4) 0.8966(5) 0.84085(19)
H7_2 H 0.4915 0.9021 0.8058
C13_2 C 0.5476(3) 0.8538(4) 0.84749(17)
C14_2 C 0.5700(4) 0.8481(5) 0.90054(17)
H8_2 H 0.5961 0.8198 0.9075
C15_2 C 0.5534(4) 0.8850(5) 0.94350(19)
H9_2 H 0.5697 0.8809 0.9789
C16_2 C 0.5944(5) 0.7288(4) 0.7500
C17_2 C 0.5847(3) 0.7595(3) 0.79943(18)
H10_2 H 0.5929 0.7418 0.8332
C18_2 C 0.5622(3) 0.8177(3) 0.79716(17)
C19_2 C 0.6354(3) 0.5686(3) 0.70329(16)
H11_2 H 0.6408 0.5479 0.6700
C20_2 C 0.6212(3) 0.6310(3) 0.70099(17)
H12_2 H 0.6169 0.6510 0.6671
C21_2 C 0.5847(3) 0.7595(3) 0.70057(18)
H13_2 H 0.5929 0.7418 0.6668
C22_2 C 0.5622(3) 0.8177(3) 0.70284(17)
C23_2 C 0.4925(4) 0.9309(5) 0.61417(18)
H14_2 H 0.4652 0.9583 0.6198
C24_2 C 0.5078(4) 0.8966(5) 0.65915(19)
H15_2 H 0.4915 0.9021 0.6942
C25_2 C 0.5476(3) 0.8538(4) 0.65251(17)
C26_2 C 0.5700(4) 0.8481(5) 0.59946(17)
H16_2 H 0.5961 0.8198 0.5925
C27_2 C 0.5534(4) 0.8850(5) 0.55650(19)
H17_2 H 0.5697 0.8809 0.5211
N9_2 N 0.1530(3) 0.7052(5) 0.7500
C36_2 C 0.3690(3) 0.9902(4) 0.79901(17)
H22_2 H 0.3490 0.9659 0.8329
C37_2 C 0.3362(4) 0.9495(6) 0.7500
C38_2 C 0.0691(5) 0.5616(6) 0.88583(18)
H23_2 H 0.0417 0.5069 0.8802
C39_2 C 0.1034(5) 0.6112(6) 0.84085(19)
H24_2 H 0.0979 0.5894 0.8058
C40_2 C 0.1462(4) 0.6938(5) 0.84749(17)
C41_2 C 0.1519(5) 0.7219(6) 0.90054(17)
H25_2 H 0.1802 0.7763 0.9075
C42_2 C 0.1150(5) 0.6684(6) 0.94350(19)
H26_2 H 0.1191 0.6888 0.9789
C43_2 C 0.2712(4) 0.8656(6) 0.7500
C44_2 C 0.2405(3) 0.8252(4) 0.79943(18)
H27_2 H 0.2582 0.8511 0.8332
C45_2 C 0.1823(3) 0.7445(4) 0.79716(17)
C47_2 C 0.3690(3) 0.9902(4) 0.70099(17)
H29_2 H 0.3490 0.9659 0.6671
C48_2 C 0.2405(3) 0.8252(4) 0.70057(18)
H30_2 H 0.2582 0.8511 0.6668
C49_2 C 0.1823(3) 0.7445(4) 0.70284(17)
C50_2 C 0.0691(5) 0.5616(6) 0.61417(18)
H31_2 H 0.0417 0.5069 0.6198
C51_2 C 0.1034(5) 0.6112(6) 0.65915(19)
H32_2 H 0.0979 0.5894 0.6942
C52_2 C 0.1462(4) 0.6938(5) 0.65251(17)
C53_2 C 0.1519(5) 0.7219(6) 0.59946(17)
H33_2 H 0.1802 0.7763 0.5925
C54_2 C 0.1150(5) 0.6684(6) 0.55650(19)
H34_2 H 0.1191 0.6888 0.5211
N11_2 N 0.9068(3) 0.5107(2) 0.96464(13)
N12_2 N 0.8929(4) 0.3578(3) 0.7500
O12_2 O 0.81302(28) 0.4272(2) 0.81375(12)
O13_2 O 0.73950(34) 0.48755(19) 0.81453(12)
C56_2 C 0.7879(4) 0.4688(3) 0.83417(17)
C57_2 C 0.8966(4) 0.5675(3) 0.98898(16)
C58_2 C 0.8469(4) 0.5925(3) 0.96653(18)
H35_2 H 0.8387 0.6301 0.9846
C59_2 C 0.8100(4) 0.5600(3) 0.91645(17)
H36_2 H 0.7768 0.5761 0.9004
C60_2 C 0.8227(4) 0.5037(3) 0.89046(17)
C61_2 C 0.8701(4) 0.4790(3) 0.91655(17)
H37_2 H 0.8769 0.4394 0.9003
C62_2 C 0.9332(4) 0.3646(3) 0.79671(16)
H38_2 H 0.9071 0.3592 0.8300
C73_2 C 0.9332(4) 0.3646(3) 0.70329(16)
H45_2 H 0.9071 0.3592 0.6700
loop_
_geom_bond_atom_site_label_1
_geom_bond_atom_site_label_2
_geom_bond_site_symmetry_1
_geom_bond_site_symmetry_2
Co1 N2 1_555 1_555
Co2 N1 1_555 1_555
N1 C3 1_555 1_555
N2 C8 1_555 1_555
N3 C11 1_555 1_555
N4 C18 1_555 1_555
O1 Co2 1_555 1_555
O2 C1 1_555 1_555
O3 Co1 1_555 1_555
O4 C2 1_555 1_555
O5 Co1 1_555 1_555
C1 O1 1_555 1_555
C2 O3 1_555 1_555
C3 C1 1_555 1_555
C4 C3 1_555 1_555
H1 C4 1_555 1_555
C5 C4 1_555 1_555
H2 C5 1_555 1_555
C6 C2 1_555 1_555
C7 N1 1_555 1_555
H3 C7 1_555 1_555
C8 H4 1_555 1_555
C9 C8 1_555 1_555
H5 C9 1_555 1_555
C10 C9 1_555 1_555
C11 H6 1_555 1_555
C12 C11 1_555 1_555
H7 C12 1_555 1_555
C13 C12 1_555 1_555
C14 C13 1_555 1_555
H8 C14 1_555 1_555
C15 N3 1_555 1_555
H9 C15 1_555 1_555
C16 C10 1_555 1_555
C17 C16 1_555 1_555
H10 C17 1_555 1_555
C18 C13 1_555 1_555
C19 N2 1_555 1_555
H11 C19 1_555 1_555
C20 C10 1_555 1_555
H12 C20 1_555 1_555
C21 C16 1_555 1_555
H13 C21 1_555 1_555
C22 N4 1_555 1_555
N5 C23 1_555 1_555
C23 H14 1_555 1_555
C24 C23 1_555 1_555
H15 C24 1_555 1_555
C25 C22 1_555 1_555
C26 C25 1_555 1_555
H16 C26 1_555 1_555
C27 N5 1_555 1_555
H17 C27 1_555 1_555
Co4 N3 1_555 1_555
N8 C38 1_555 1_555
N9 C45 1_555 1_555
O6 Co4 1_555 1_555
H22 C36 1_555 1_555
C37 C36 1_555 1_555
C38 H23 1_555 1_555
C39 C38 1_555 1_555
H24 C39 1_555 1_555
C40 C39 1_555 1_555
C41 C40 1_555 1_555
H25 C41 1_555 1_555
C42 N8 1_555 1_555
H26 C42 1_555 1_555
C43 C37 1_555 1_555
C44 C43 1_555 1_555
H27 C44 1_555 1_555
C45 C40 1_555 1_555
C47 C37 1_555 1_555
H29 C47 1_555 1_555
C48 C43 1_555 1_555
H30 C48 1_555 1_555
C49 N9 1_555 1_555
N10 C50 1_555 1_555
C50 H31 1_555 1_555
C51 C50 1_555 1_555
H32 C51 1_555 1_555
C52 C49 1_555 1_555
C53 C52 1_555 1_555
H33 C53 1_555 1_555
C54 N10 1_555 1_555
H34 C54 1_555 1_555
Co5 O5 1_555 1_555
Co14 N11 1_555 1_555
N11 C57 1_555 1_555
N12 Co5 1_555 1_555
O11 C55 1_555 1_555
O12 Co5 1_555 1_555
O13 Co1 1_555 1_555
C56 O12 1_555 1_555
C57 C55 1_555 1_555
C58 C57 1_555 1_555
H35 C58 1_555 1_555
C59 C58 1_555 1_555
H36 C59 1_555 1_555
C60 C56 1_555 1_555
C61 N11 1_555 1_555
H37 C61 1_555 1_555
C62 N12 1_555 1_555
H38 C62 1_555 1_555
C73 N12 1_555 1_555
H45 C73 1_555 1_555
N16 Co4 1_555 1_555
O15 C82 1_555 1_555
O16 C83 1_555 1_555
O17 C83 1_555 1_555
C83 C87 1_555 1_555
C84 N16 1_555 1_555
C85 C84 1_555 1_555
H52 C85 1_555 1_555
C86 C85 1_555 1_555
H53 C86 1_555 1_555
C87 C86 1_555 1_555
C88 N16 1_555 1_555
H54 C88 1_555 1_555
O18 Co14 1_555 1_555
N18 C98 1_555 1_555
O24 Co1 1_555 1_555
O25 C97 1_555 1_555
C97 O24 1_555 1_555
C98 C99 1_555 1_555
C99 H58 1_555 1_555
C100 C99 1_555 1_555
H59 C100 1_555 1_555
C101 C97 1_555 1_555
C102 N18 1_555 1_555
H60 C102 1_555 1_555
Co7 O4 1_555 1_555
Co10 O16 1_555 1_555
Co12 O17 1_555 1_555
Co14_2 N8 1_555 1_555
Co16 N18 1_555 1_555
Co17 N5 1_555 1_555
Co18_3 N10 1_555 1_555
N19 Co2 1_555 1_555
N21 Co2 1_555 1_555
N23 Co14 1_555 1_555
N24 Co2 1_555 1_555
O26 Co2 1_555 1_555
O28 Co5 1_555 1_555
O30 Co5 1_555 1_555
O32 Co5 1_555 1_555
O33 Co1 1_555 1_555
O5 Co7 1_555 1_555
C5 C6 1_555 1_555
C6 C7 1_555 1_555
C14 C15 1_555 1_555
C17 C18 1_555 1_555
C19 C20 1_555 1_555
C21 C22 1_555 1_555
C24 C25 1_555 1_555
C26 C27 1_555 1_555
C41 C42 1_555 1_555
C44 C45 1_555 1_555
C48 C49 1_555 1_555
C51 C52 1_555 1_555
C53 C54 1_555 1_555
O13 C56 1_555 1_555
C59 C60 1_555 1_555
C60 C61 1_555 1_555
C82 C84 1_555 1_555
C87 C88 1_555 1_555
O25 Co7 1_555 1_555
C100 C101 1_555 1_555
C101 C102 1_555 1_555
O22 C96 1_555 1_555
O23 C96 1_555 1_555
O22 Co16_2 1_555 1_555
Co7 N7 1_555 1_555
N6 Co4_2 1_555 1_555
N7 C35 1_555 1_555
O7 C28 1_555 1_555
O8 Co7 1_555 1_555
O30 C29 1_555 1_555
C29 O8 1_555 1_555
C30 N6 1_555 1_555
C31 C30 1_555 1_555
H18 C31 1_555 1_555
C32 C31 1_555 1_555
H19 C32 1_555 1_555
C33 C29 1_555 1_555
C34 N6 1_555 1_555
H20 C34 1_555 1_555
C35 H21 1_555 1_555
C46 N7 1_555 1_555
H28 C46 1_555 1_555
O14 Co4_2 1_555 1_555
N22 Co4_2 1_555 1_555
O27 Co7 1_555 1_555
C28 C30 1_555 1_555
C32 C33 1_555 1_555
C33 C34 1_555 1_555
N21 C65 1_555 1_555
N14 C72 1_555 1_555
O10 Co14_2 1_555 1_555
H39 C63 1_555 1_555
C64 C63 1_555 1_555
C65 H40 1_555 1_555
C66 C65 1_555 1_555
H41 C66 1_555 1_555
C67 C66 1_555 1_555
C68 C67 1_555 1_555
H42 C68 1_555 1_555
C69 N21 1_555 1_555
H43 C69 1_555 1_555
C70 C64 1_555 1_555
C71 C70 1_555 1_555
H44 C71 1_555 1_555
C72 C67 1_555 1_555
C74 C64 1_555 1_555
H46 C74 1_555 1_555
C75 C70 1_555 1_555
H47 C75 1_555 1_555
C76 N14 1_555 1_555
N15 C77 1_555 1_555
C77 H48 1_555 1_555
C78 C77 1_555 1_555
H49 C78 1_555 1_555
C79 C76 1_555 1_555
C80 C79 1_555 1_555
H50 C80 1_555 1_555
C81 N15 1_555 1_555
H51 C81 1_555 1_555
N17 Co14_2 1_555 1_555
O19 C89 1_555 1_555
O20 C90 1_555 1_555
O21 C90 1_555 1_555
C90 C94 1_555 1_555
C91 N17 1_555 1_555
C92 C91 1_555 1_555
H55 C92 1_555 1_555
C93 C92 1_555 1_555
H56 C93 1_555 1_555
C94 C93 1_555 1_555
C95 N17 1_555 1_555
H57 C95 1_555 1_555
Co9 O21 1_555 1_555
Co12 O20 1_555 1_555
Co16 N15 1_555 1_555
C68 C69 1_555 1_555
C71 C72 1_555 1_555
C75 C76 1_555 1_555
C78 C79 1_555 1_555
C80 C81 1_555 1_555
C89 C91 1_555 1_555
C94 C95 1_555 1_555
O22_2 Co17_2 1_555 1_555
O19_2 C89_2 1_555 1_555
O20_2 C90_2 1_555 1_555
O21_2 C90_2 1_555 1_555
C89_2 O26 1_555 1_555
C90_2 C94_2 1_555 1_555
C91_2 N19 1_555 1_555
C92_2 C91_2 1_555 1_555
H55_2 C92_2 1_555 1_555
C93_2 C92_2 1_555 1_555
H56_2 C93_2 1_555 1_555
C94_2 C93_2 1_555 1_555
C95_2 N19 1_555 1_555
H57_2 C95_2 1_555 1_555
N18_2 C98_2 1_555 1_555
O32 C97_2 1_555 1_555
C97_2 O27 1_555 1_555
C98_2 C99_2 1_555 1_555
C99_2 H58_2 1_555 1_555
C100_2 C99_2 1_555 1_555
H59_2 C100_2 1_555 1_555
C101_2 C97_2 1_555 1_555
C102_2 N18_2 1_555 1_555
H60_2 C102_2 1_555 1_555
Co10 O21_2 1_555 1_555
Co9 O20_2 1_555 1_555
Co17_3 N18_2 1_555 1_555
C89_2 C91_2 1_555 1_555
C94_2 C95_2 1_555 1_555
C100_2 C101_2 1_555 1_555
C101_2 C102_2 1_555 1_555
O23_2 C96_2 1_555 1_555
N18_3 C98_3 1_555 1_555
O33 C97_3 1_555 1_555
C97_3 O28 1_555 1_555
C98_3 C99_3 1_555 1_555
C99_3 H58_3 1_555 1_555
C100_3 C99_3 1_555 1_555
H59_3 C100_3 1_555 1_555
C101_3 C97_3 1_555 1_555
C102_3 N18_3 1_555 1_555
H60_3 C102_3 1_555 1_555
Co18 N18_3 1_555 1_555
C100_3 C101_3 1_555 1_555
C101_3 C102_3 1_555 1_555
O23_3 C96_3 1_555 1_555
O22_3 Co18_4 1_555 1_555
O10_2 Co18 1_555 1_555
N13 C65_2 1_555 1_555
N14_2 C72_2 1_555 1_555
H39_2 C63_2 1_555 1_555
C64_2 C63_2 1_555 1_555
C65_2 H40_2 1_555 1_555
C66_2 C65_2 1_555 1_555
H41_2 C66_2 1_555 1_555
C67_2 C66_2 1_555 1_555
C68_2 C67_2 1_555 1_555
H42_2 C68_2 1_555 1_555
C69_2 N13 1_555 1_555
H43_2 C69_2 1_555 1_555
C70_2 C64_2 1_555 1_555
C71_2 C70_2 1_555 1_555
H44_2 C71_2 1_555 1_555
C72_2 C67_2 1_555 1_555
C74_2 C64_2 1_555 1_555
H46_2 C74_2 1_555 1_555
C75_2 C70_2 1_555 1_555
H47_2 C75_2 1_555 1_555
C76_2 N14_2 1_555 1_555
N24 C77_2 1_555 1_555
C77_2 H48_2 1_555 1_555
C78_2 C77_2 1_555 1_555
H49_2 C78_2 1_555 1_555
C79_2 C76_2 1_555 1_555
C80_2 C79_2 1_555 1_555
H50_2 C80_2 1_555 1_555
C81_2 N24 1_555 1_555
H51_2 C81_2 1_555 1_555
Co16_2 N13 1_555 1_555
N20 Co18_2 1_555 1_555
C68_2 C69_2 1_555 1_555
C71_2 C72_2 1_555 1_555
C75_2 C76_2 1_555 1_555
C78_2 C79_2 1_555 1_555
C80_2 C81_2 1_555 1_555
O7_2 C28_2 1_555 1_555
Co10 N7_2 1_555 1_555
N6_2 Co17_2 1_555 1_555
N7_2 C35_2 1_555 1_555
O8_2 Co10 1_555 1_555
O9 C29_2 1_555 1_555
C29_2 O8_2 1_555 1_555
C30_2 N6_2 1_555 1_555
C31_2 C30_2 1_555 1_555
H18_2 C31_2 1_555 1_555
C32_2 C31_2 1_555 1_555
H19_2 C32_2 1_555 1_555
C33_2 C29_2 1_555 1_555
C34_2 N6_2 1_555 1_555
H20_2 C34_2 1_555 1_555
C35_2 H21_2 1_555 1_555
C46_2 N7_2 1_555 1_555
H28_2 C46_2 1_555 1_555
Co12 O9 1_555 1_555
O29 Co10 1_555 1_555
O34 Co10 1_555 1_555
C32_2 C33_2 1_555 1_555
C33_2 C34_2 1_555 1_555
Co12 O34 1_555 1_555
O1_2 Co16 1_555 1_555
O2_2 C1_2 1_555 1_555
C1_2 O1_2 1_555 1_555
O6_2 Co17_3 1_555 1_555
O11_2 C55_2 1_555 1_555
Co9 N2_2 1_555 1_555
Co16_2 N1_2 1_555 1_555
N1_2 C3_2 1_555 1_555
N2_2 C8_2 1_555 1_555
N3_2 C11_2 1_555 1_555
N4_2 C18_2 1_555 1_555
O3_2 Co9 1_555 1_555
O29 C2_2 1_555 1_555
O34 Co9 1_555 1_555
C2_2 O3_2 1_555 1_555
C4_2 C3_2 1_555 1_555
H1_2 C4_2 1_555 1_555
C5_2 C4_2 1_555 1_555
H2_2 C5_2 1_555 1_555
C6_2 C2_2 1_555 1_555
C7_2 N1_2 1_555 1_555
H3_2 C7_2 1_555 1_555
C8_2 H4_2 1_555 1_555
C9_2 C8_2 1_555 1_555
H5_2 C9_2 1_555 1_555
C10_2 C9_2 1_555 1_555
C11_2 H6_2 1_555 1_555
C12_2 C11_2 1_555 1_555
H7_2 C12_2 1_555 1_555
C13_2 C12_2 1_555 1_555
C14_2 C13_2 1_555 1_555
H8_2 C14_2 1_555 1_555
C15_2 N3_2 1_555 1_555
H9_2 C15_2 1_555 1_555
C16_2 C10_2 1_555 1_555
C17_2 C16_2 1_555 1_555
H10_2 C17_2 1_555 1_555
C18_2 C13_2 1_555 1_555
C19_2 N2_2 1_555 1_555
H11_2 C19_2 1_555 1_555
C20_2 C10_2 1_555 1_555
H12_2 C20_2 1_555 1_555
C21_2 C16_2 1_555 1_555
H13_2 C21_2 1_555 1_555
C22_2 N4_2 1_555 1_555
N22 C23_2 1_555 1_555
C23_2 H14_2 1_555 1_555
C24_2 C23_2 1_555 1_555
H15_2 C24_2 1_555 1_555
C25_2 C22_2 1_555 1_555
C26_2 C25_2 1_555 1_555
H16_2 C26_2 1_555 1_555
C27_2 N22 1_555 1_555
H17_2 C27_2 1_555 1_555
Co17_4 N3_2 1_555 1_555
N20 C38_2 1_555 1_555
N9_2 C45_2 1_555 1_555
H22_2 C36_2 1_555 1_555
C37_2 C36_2 1_555 1_555
C38_2 H23_2 1_555 1_555
C39_2 C38_2 1_555 1_555
H24_2 C39_2 1_555 1_555
C40_2 C39_2 1_555 1_555
C41_2 C40_2 1_555 1_555
H25_2 C41_2 1_555 1_555
C42_2 N20 1_555 1_555
H26_2 C42_2 1_555 1_555
C43_2 C37_2 1_555 1_555
C44_2 C43_2 1_555 1_555
H27_2 C44_2 1_555 1_555
C45_2 C40_2 1_555 1_555
C47_2 C37_2 1_555 1_555
H29_2 C47_2 1_555 1_555
C48_2 C43_2 1_555 1_555
H30_2 C48_2 1_555 1_555
C49_2 N9_2 1_555 1_555
N23 C50_2 1_555 1_555
C50_2 H31_2 1_555 1_555
C51_2 C50_2 1_555 1_555
H32_2 C51_2 1_555 1_555
C52_2 C49_2 1_555 1_555
C53_2 C52_2 1_555 1_555
H33_2 C53_2 1_555 1_555
C54_2 N23 1_555 1_555
H34_2 C54_2 1_555 1_555
Co18_4 N11_2 1_555 1_555
N11_2 C57_2 1_555 1_555
N12_2 Co12 1_555 1_555
O12_2 Co12 1_555 1_555
O13_2 Co9 1_555 1_555
C56_2 O12_2 1_555 1_555
C58_2 C57_2 1_555 1_555
H35_2 C58_2 1_555 1_555
C59_2 C58_2 1_555 1_555
H36_2 C59_2 1_555 1_555
C60_2 C56_2 1_555 1_555
C61_2 N11_2 1_555 1_555
H37_2 C61_2 1_555 1_555
C62_2 N12_2 1_555 1_555
H38_2 C62_2 1_555 1_555
C73_2 N12_2 1_555 1_555
H45_2 C73_2 1_555 1_555
C5_2 C6_2 1_555 1_555
C6_2 C7_2 1_555 1_555
C14_2 C15_2 1_555 1_555
C17_2 C18_2 1_555 1_555
C19_2 C20_2 1_555 1_555
C21_2 C22_2 1_555 1_555
C24_2 C25_2 1_555 1_555
C26_2 C27_2 1_555 1_555
C41_2 C42_2 1_555 1_555
C44_2 C45_2 1_555 1_555
C48_2 C49_2 1_555 1_555
C51_2 C52_2 1_555 1_555
C53_2 C54_2 1_555 1_555
O13_2 C56_2 1_555 1_555
C59_2 C60_2 1_555 1_555
C60_2 C61_2 1_555 1_555

#END
