
###############################################################################
#
# This file contains modified crystal structure data generated from the
# MOF subset of the Cambridge Structural Database (CSD) v543 
# hosted by the Cambridge Crystallographic Data Centre (CCDC).
#
# This work is licensed under the Creative Commons
# Attribution-NonCommercial-ShareAlike 4.0 International License.
# To view a copy of this license, visit
# http://creativecommons.org/licenses/by-nc-sa/4.0/
# or send a letter to
# Creative Commons, PO Box 1866, Mountain View, CA 94042, USA.
#
# CIF created using the CSD Python API on 29 September 2022
# The structure has been converted into the P1 space group
# The structure has a 3D framework
# The original CSD entry NOBXEK is in the hexagonal crystal system
# The framework has been calculated to contain at least 10.0% void space
# The void calculation uses a probe of radius 1.32A, grid spacing 0.4
#
###############################################################################

data_NOBXEK
_chemical_formula_moiety         '(C204 H120 N36 Ni19 O48)n'
_symmetry_cell_setting           triclinic
_symmetry_space_group_name_H-M   'P 1'
_symmetry_Int_Tables_number      1
_space_group_name_Hall           'P 1'
loop_
_symmetry_equiv_pos_site_id
_symmetry_equiv_pos_as_xyz
1 x,y,z
_cell_length_a                   19.2359(13)
_cell_length_b                   19.2359(13)
_cell_length_c                   24.063(2)
_cell_angle_alpha                90
_cell_angle_beta                 90
_cell_angle_gamma                120
_cell_volume                     7710.91
loop_
_atom_site_label
_atom_site_type_symbol
_atom_site_fract_x
_atom_site_fract_y
_atom_site_fract_z
Ni1 Ni 0.34163(7) 0.56641(7) 0.2500
Ni2 Ni 0.0000 0.5000 0.0000
N1 N 0.0902(3) 0.4889(3) 0.03554(14)
N2 N 0.3536(3) 0.4649(3) 0.2500
N3 N 0.4884(3) 0.0741(3) 0.06118(15)
N4 N 0.4533(5) 0.1565(4) 0.2500
O3 O 0.2595(2) 0.5139(2) 0.18666(12)
O4 O 0.1870(3) 0.5753(2) 0.18713(12)
O5 O 0.3333 0.6667 0.2500
C2 C 0.2118(3) 0.5318(3) 0.16619(18)
C3 C 0.1012(3) 0.4315(3) 0.01175(19)
C4 C 0.1507(4) 0.4072(4) 0.0340(2)
H1 H 0.1592 0.3696 0.0155
C5 C 0.1885(4) 0.4392(4) 0.0848(2)
H2 H 0.2207 0.4217 0.1014
C6 C 0.1772(3) 0.4970(3) 0.10946(19)
C7 C 0.1275(3) 0.5207(3) 0.08363(19)
H3 H 0.1201 0.5600 0.1004
C8 C 0.3616(3) 0.4331(3) 0.29694(18)
H4 H 0.3580 0.4555 0.3303
C9 C 0.3751(4) 0.3687(3) 0.29948(18)
H5 H 0.3773 0.3472 0.3336
C10 C 0.3852(5) 0.3365(4) 0.2500
C11 C 0.4068(5) 0.2718(5) 0.2500
C12 C 0.4186(4) 0.2415(4) 0.2005(2)
H6 H 0.4108 0.2597 0.1665
C13 C 0.4416(4) 0.1847(4) 0.2021(2)
C14 C 0.4505(5) 0.1162(4) 0.0550(2)
H7 H 0.4332 0.1195 0.0195
C15 C 0.4354(5) 0.1552(4) 0.0982(2)
H8 H 0.4103 0.1849 0.0911
C16 C 0.4583(4) 0.1492(4) 0.1518(2)
C17 C 0.4969(5) 0.1056(5) 0.1590(2)
H9 H 0.5133 0.0997 0.1942
C18 C 0.5107(4) 0.0707(4) 0.1133(2)
H10 H 0.5377 0.0425 0.1192
N5 N 0.4884(3) 0.0741(3) 0.43882(15)
C19 C 0.3616(3) 0.4331(3) 0.20306(18)
H11 H 0.3580 0.4555 0.1697
C20 C 0.3751(4) 0.3687(3) 0.20052(18)
H12 H 0.3773 0.3472 0.1664
C21 C 0.4186(4) 0.2415(4) 0.2995(2)
H13 H 0.4108 0.2597 0.3335
C22 C 0.4416(4) 0.1847(4) 0.2979(2)
C23 C 0.4505(5) 0.1162(4) 0.4450(2)
H14 H 0.4332 0.1195 0.4805
C24 C 0.4354(5) 0.1552(4) 0.4018(2)
H15 H 0.4103 0.1849 0.4089
C25 C 0.4583(4) 0.1492(4) 0.3482(2)
C26 C 0.4969(5) 0.1056(5) 0.3410(2)
H16 H 0.5133 0.0997 0.3058
C27 C 0.5107(4) 0.0707(4) 0.3867(2)
H17 H 0.5377 0.0425 0.3808
Ni6 Ni 0.5000 0.0000 0.0000
O14 O 0.0059(2) 0.5901(2) 0.04908(12)
N17 N 0.0902(3) 0.4889(3) 0.46446(14)
O19 O 0.0707(3) 0.3556(3) 0.57164(17)
O20 O 0.2595(2) 0.5139(2) 0.31334(12)
O21 O 0.1870(3) 0.5753(2) 0.31287(12)
C89 C 0.0510(4) 0.3953(4) 0.5405(2)
C90 C 0.2118(3) 0.5318(3) 0.33381(18)
C91 C 0.1012(3) 0.4315(3) 0.48825(19)
C92 C 0.1507(4) 0.4072(4) 0.4660(2)
H55 H 0.1592 0.3696 0.4845
C93 C 0.1885(4) 0.4392(4) 0.4152(2)
H56 H 0.2207 0.4217 0.3986
C94 C 0.1772(3) 0.4970(3) 0.39054(19)
C95 C 0.1275(3) 0.5207(3) 0.41637(19)
H57 H 0.1201 0.5600 0.3996
N18 N 0.5111(3) 0.6013(4) 0.46446(14)
O22 O 0.5901(2) 0.5842(3) 0.54908(12)
O23 O 0.6444(3) 0.7151(4) 0.57164(17)
O24 O 0.4861(2) 0.7456(3) 0.31334(12)
O25 O 0.4247(2) 0.6117(4) 0.31287(12)
C96 C 0.6047(4) 0.6557(6) 0.5405(2)
C97 C 0.4682(3) 0.6800(4) 0.33381(18)
C98 C 0.5685(3) 0.6697(4) 0.48825(19)
C99 C 0.5928(4) 0.7435(6) 0.4660(2)
H58 H 0.6304 0.7896 0.4845
C100 C 0.5608(4) 0.7493(6) 0.4152(2)
H59 H 0.5783 0.7990 0.3986
C101 C 0.5030(3) 0.6802(4) 0.39054(19)
C102 C 0.4793(3) 0.6068(4) 0.41637(19)
H60 H 0.4400 0.5601 0.3996
Ni10 Ni 0.43359(7) 0.77522(10) 0.2500
Ni12 Ni 0.22478(10) 0.65837(7) 0.2500
Ni13 Ni 0.5000 0.0000 0.5000
Ni14 Ni 0.0000 0.5000 0.5000
Ni16 Ni 0.5000 0.5000 0.5000
O31 O 0.4247(2) 0.6117(4) 0.18713(12)
Ni2_2 Ni 0.0000 0.5000 1.0000
O2 O 0.0707(3) 0.3556(3) 0.92836(17)
C1 C 0.0510(4) 0.3953(4) 0.9595(2)
Ni6_2 Ni 0.5000 0.0000 1.0000
O10 O 0.4158(3) 0.0059(2) 0.95092(12)
N20 N 0.6013(4) 0.0902(3) 0.96446(14)
N22 N 0.0741(3) 0.5857(4) 0.93882(15)
Ni6_3 Ni 0.5000 1.0000 0.0000
N11 N 0.3987(4) 0.9098(3) 0.03554(14)
N12 N 0.1113(4) 0.6464(3) 0.2500
O12 O 0.2544(3) 0.7405(2) 0.18666(12)
O13 O 0.3883(4) 0.8130(3) 0.18713(12)
C56 C 0.3200(4) 0.7882(3) 0.16619(18)
C57 C 0.3303(4) 0.8988(3) 0.01175(19)
C58 C 0.2565(6) 0.8493(4) 0.0340(2)
H35 H 0.2104 0.8408 0.0155
C59 C 0.2507(6) 0.8115(4) 0.0848(2)
H36 H 0.2010 0.7793 0.1014
C60 C 0.3198(4) 0.8228(3) 0.10946(19)
C61 C 0.3932(4) 0.8725(3) 0.08363(19)
H37 H 0.4399 0.8799 0.1004
C62 C 0.0715(4) 0.6384(3) 0.29694(18)
H38 H 0.0975 0.6420 0.3303
C73 C 0.0715(4) 0.6384(3) 0.20306(18)
H45 H 0.0975 0.6420 0.1697
Ni13_2 Ni 0.5000 1.0000 0.5000
O27 O 0.5842(3) 0.9941(2) 0.04908(12)
O28 O 0.2544(3) 0.7405(2) 0.31334(12)
Ni6_4 Ni 0.5000 1.0000 1.0000
O11 O 0.2849(4) 0.9293(3) 0.92836(17)
C55 C 0.3443(6) 0.9490(4) 0.9595(2)
N21 N 0.5116(3) 0.9259(3) 0.93882(15)
Ni2_3 Ni 1.0000 0.5000 0.0000
N8 N 0.9259(3) 0.4143(4) 0.06118(15)
N9 N 0.8435(4) 0.2968(6) 0.2500
C36 C 0.6313(3) 0.0064(5) 0.29948(18)
H22 H 0.6528 0.0301 0.3336
C37 C 0.6635(4) 0.0487(6) 0.2500
C38 C 0.7282(5) 0.1350(7) 0.2500
C39 C 0.7585(4) 0.1771(6) 0.2005(2)
H23 H 0.7403 0.1511 0.1665
C40 C 0.8153(4) 0.2569(6) 0.2021(2)
C41 C 0.8838(4) 0.3343(6) 0.0550(2)
H24 H 0.8805 0.3137 0.0195
C42 C 0.8448(4) 0.2802(6) 0.0982(2)
H25 H 0.8151 0.2254 0.0911
C43 C 0.8508(4) 0.3091(6) 0.1518(2)
C44 C 0.8944(5) 0.3913(7) 0.1590(2)
H26 H 0.9003 0.4136 0.1942
C45 C 0.9293(4) 0.4400(6) 0.1133(2)
H27 H 0.9575 0.4952 0.1192
N10 N 0.9259(3) 0.4143(4) 0.43882(15)
C47 C 0.6313(3) 0.0064(5) 0.20052(18)
H29 H 0.6528 0.0301 0.1664
C48 C 0.7585(4) 0.1771(6) 0.2995(2)
H30 H 0.7403 0.1511 0.3335
C49 C 0.8153(4) 0.2569(6) 0.2979(2)
C50 C 0.8838(4) 0.3343(6) 0.4450(2)
H31 H 0.8805 0.3137 0.4805
C51 C 0.8448(4) 0.2802(6) 0.4018(2)
H32 H 0.8151 0.2254 0.4089
C52 C 0.8508(4) 0.3091(6) 0.3482(2)
C53 C 0.8944(5) 0.3913(7) 0.3410(2)
H33 H 0.9003 0.4136 0.3058
C54 C 0.9293(4) 0.4400(6) 0.3867(2)
H34 H 0.9575 0.4952 0.3808
O15 O 0.9293(3) 0.6444(3) 0.07164(17)
C82 C 0.9490(4) 0.6047(4) 0.0405(2)
O18 O 0.9941(2) 0.4099(2) 0.54908(12)
Ni14_2 Ni 1.0000 0.5000 0.5000
Ni2_4 Ni 1.0000 0.5000 1.0000
O1 O 0.9941(2) 0.4099(2) 0.95092(12)
N16 N 0.9098(3) 0.5111(3) 0.96446(14)
O16 O 0.7405(2) 0.4861(2) 0.81334(12)
O17 O 0.8130(3) 0.4247(2) 0.81287(12)
C83 C 0.7882(3) 0.4682(3) 0.83381(18)
C84 C 0.8988(3) 0.5685(3) 0.98825(19)
C85 C 0.8493(4) 0.5928(4) 0.9660(2)
H52 H 0.8408 0.6304 0.9845
C86 C 0.8115(4) 0.5608(4) 0.9152(2)
H53 H 0.7793 0.5783 0.8986
C87 C 0.8228(3) 0.5030(3) 0.89054(19)
C88 C 0.8725(3) 0.4793(3) 0.91637(19)
H54 H 0.8799 0.4400 0.8996
Ni8 Ni 0.77522(10) 0.34163(7) 0.7500
Ni11 Ni 0.65837(7) 0.43359(7) 0.7500
Ni4 Ni 0.5000 0.5000 0.0000
N6 N 0.5111(3) 0.6013(4) 0.03554(14)
N7 N 0.5351(3) 0.8887(4) 0.2500
O8 O 0.4861(2) 0.7456(3) 0.18666(12)
C29 C 0.4682(3) 0.6800(4) 0.16619(18)
C30 C 0.5685(3) 0.6697(4) 0.01175(19)
C31 C 0.5928(4) 0.7435(6) 0.0340(2)
H18 H 0.6304 0.7896 0.0155
C32 C 0.5608(4) 0.7493(6) 0.0848(2)
H19 H 0.5783 0.7990 0.1014
C33 C 0.5030(3) 0.6802(4) 0.10946(19)
C34 C 0.4793(3) 0.6068(4) 0.08363(19)
H20 H 0.4400 0.5601 0.1004
C35 C 0.5669(3) 0.9285(4) 0.29694(18)
H21 H 0.5445 0.9025 0.3303
C46 C 0.5669(3) 0.9285(4) 0.20306(18)
H28 H 0.5445 0.9025 0.1697
N13 N 0.5857(4) 0.5116(3) 0.06118(15)
N14 N 0.7032(6) 0.5467(5) 0.2500
C63 C 0.9936(5) 0.6249(4) 0.29948(18)
H39 H 0.9699 0.6227 0.3336
C64 C 0.9513(6) 0.6148(5) 0.2500
C65 C 0.8650(7) 0.5932(5) 0.2500
C66 C 0.8229(6) 0.5814(4) 0.2005(2)
H40 H 0.8489 0.5892 0.1665
C67 C 0.7431(6) 0.5584(4) 0.2021(2)
C68 C 0.6657(6) 0.5495(5) 0.0550(2)
H41 H 0.6863 0.5668 0.0195
C69 C 0.7198(6) 0.5646(5) 0.0982(2)
H42 H 0.7746 0.5897 0.0911
C70 C 0.6909(6) 0.5417(4) 0.1518(2)
C71 C 0.6087(7) 0.5031(5) 0.1590(2)
H43 H 0.5864 0.4867 0.1942
C72 C 0.5600(6) 0.4893(4) 0.1133(2)
H44 H 0.5048 0.4623 0.1192
N15 N 0.5857(4) 0.5116(3) 0.43882(15)
C74 C 0.9936(5) 0.6249(4) 0.20052(18)
H46 H 0.9699 0.6227 0.1664
C75 C 0.8229(6) 0.5814(4) 0.2995(2)
H47 H 0.8489 0.5892 0.3335
C76 C 0.7431(6) 0.5584(4) 0.2979(2)
C77 C 0.6657(6) 0.5495(5) 0.4450(2)
H48 H 0.6863 0.5668 0.4805
C78 C 0.7198(6) 0.5646(5) 0.4018(2)
H49 H 0.7746 0.5897 0.4089
C79 C 0.6909(6) 0.5417(4) 0.3482(2)
C80 C 0.6087(7) 0.5031(5) 0.3410(2)
H50 H 0.5864 0.4867 0.3058
C81 C 0.5600(6) 0.4893(4) 0.3867(2)
H51 H 0.5048 0.4623 0.3808
O26 O 0.4099(2) 0.4158(3) 0.04908(12)
O33 O 0.3883(4) 0.8130(3) 0.31287(12)
Ni4_2 Ni 0.5000 0.5000 1.0000
O6 O 0.5901(2) 0.5842(3) 0.95092(12)
O7 O 0.6444(3) 0.7151(4) 0.92836(17)
C28 C 0.6047(4) 0.6557(6) 0.9595(2)
N19 N 0.4889(3) 0.3987(4) 0.96446(14)
N23 N 0.4143(4) 0.4884(3) 0.93882(15)
N3_2 N 0.4143(4) 0.4884(3) 0.56118(15)
N4_2 N 0.2968(6) 0.4533(5) 0.7500
C9_2 C 0.0064(5) 0.3751(4) 0.79948(18)
H5_2 H 0.0301 0.3773 0.8336
C10_2 C 0.0487(6) 0.3852(5) 0.7500
C11_2 C 0.1350(7) 0.4068(5) 0.7500
C12_2 C 0.1771(6) 0.4186(4) 0.7005(2)
H6_2 H 0.1511 0.4108 0.6665
C13_2 C 0.2569(6) 0.4416(4) 0.7021(2)
C14_2 C 0.3343(6) 0.4505(5) 0.5550(2)
H7_2 H 0.3137 0.4332 0.5195
C15_2 C 0.2802(6) 0.4354(5) 0.5982(2)
H8_2 H 0.2254 0.4103 0.5911
C16_2 C 0.3091(6) 0.4583(4) 0.6518(2)
C17_2 C 0.3913(7) 0.4969(5) 0.6590(2)
H9_2 H 0.4136 0.5133 0.6942
C18_2 C 0.4400(6) 0.5107(4) 0.6133(2)
H10_2 H 0.4952 0.5377 0.6192
C20_2 C 0.0064(5) 0.3751(4) 0.70052(18)
H12_2 H 0.0301 0.3773 0.6664
C21_2 C 0.1771(6) 0.4186(4) 0.7995(2)
H13_2 H 0.1511 0.4108 0.8335
C22_2 C 0.2569(6) 0.4416(4) 0.7979(2)
C23_2 C 0.3343(6) 0.4505(5) 0.9450(2)
H14_2 H 0.3137 0.4332 0.9805
C24_2 C 0.2802(6) 0.4354(5) 0.9018(2)
H15_2 H 0.2254 0.4103 0.9089
C25_2 C 0.3091(6) 0.4583(4) 0.8482(2)
C26_2 C 0.3913(7) 0.4969(5) 0.8410(2)
H16_2 H 0.4136 0.5133 0.8058
C27_2 C 0.4400(6) 0.5107(4) 0.8867(2)
H17_2 H 0.4952 0.5377 0.8808
Ni5 Ni 0.56641(12) 0.22478(10) 0.7500
N11_2 N 0.4889(5) 0.3987(4) 0.53554(14)
N12_2 N 0.4649(5) 0.1113(4) 0.7500
O10_2 O 0.4099(4) 0.4158(3) 0.45092(12)
O11_2 O 0.3556(5) 0.2849(4) 0.42836(17)
O12_2 O 0.5139(4) 0.2544(3) 0.68666(12)
O13_2 O 0.5753(5) 0.3883(4) 0.68713(12)
C55_2 C 0.3953(7) 0.3443(6) 0.4595(2)
C56_2 C 0.5318(5) 0.3200(4) 0.66619(18)
C57_2 C 0.4315(5) 0.3303(4) 0.51175(19)
C58_2 C 0.4072(7) 0.2565(6) 0.5340(2)
H35_2 H 0.3696 0.2104 0.5155
C59_2 C 0.4392(7) 0.2507(6) 0.5848(2)
H36_2 H 0.4217 0.2010 0.6014
C60_2 C 0.4970(5) 0.3198(4) 0.60946(19)
C61_2 C 0.5207(5) 0.3932(4) 0.58363(19)
H37_2 H 0.5600 0.4399 0.6004
C62_2 C 0.4331(5) 0.0715(4) 0.79694(18)
H38_2 H 0.4555 0.0975 0.8303
C73_2 C 0.4331(5) 0.0715(4) 0.70306(18)
H45_2 H 0.4555 0.0975 0.6697
O28_2 O 0.5139(4) 0.2544(3) 0.81334(12)
O30 O 0.6117(4) 0.1870(3) 0.68713(12)
O34 O 0.6117(4) 0.1870(3) 0.81287(12)
O36 O 0.6666 0.3333 0.7500
O6_2 O 0.0059(4) 0.5901(2) 0.45092(12)
N13_2 N 0.0741(5) 0.5857(4) 0.56118(15)
N14_2 N 0.1565(8) 0.7032(6) 0.7500
C63_2 C 0.3687(6) 0.9936(5) 0.79948(18)
H39_2 H 0.3472 0.9699 0.8336
C64_2 C 0.3365(8) 0.9513(6) 0.7500
C65_2 C 0.2718(9) 0.8650(7) 0.7500
C66_2 C 0.2415(7) 0.8229(6) 0.7005(2)
H40_2 H 0.2597 0.8489 0.6665
C67_2 C 0.1847(7) 0.7431(6) 0.7021(2)
C68_2 C 0.1162(8) 0.6657(6) 0.5550(2)
H41_2 H 0.1195 0.6863 0.5195
C69_2 C 0.1552(8) 0.7198(6) 0.5982(2)
H42_2 H 0.1849 0.7746 0.5911
C70_2 C 0.1492(7) 0.6909(6) 0.6518(2)
C71_2 C 0.1056(9) 0.6087(7) 0.6590(2)
H43_2 H 0.0997 0.5864 0.6942
C72_2 C 0.0707(7) 0.5600(6) 0.6133(2)
H44_2 H 0.0425 0.5048 0.6192
C74_2 C 0.3687(6) 0.9936(5) 0.70052(18)
H46_2 H 0.3472 0.9699 0.6664
C75_2 C 0.2415(7) 0.8229(6) 0.7995(2)
H47_2 H 0.2597 0.8489 0.8335
C76_2 C 0.1847(7) 0.7431(6) 0.7979(2)
C77_2 C 0.1162(8) 0.6657(6) 0.9450(2)
H48_2 H 0.1195 0.6863 0.9805
C78_2 C 0.1552(8) 0.7198(6) 0.9018(2)
H49_2 H 0.1849 0.7746 0.9089
C79_2 C 0.1492(7) 0.6909(6) 0.8482(2)
C80_2 C 0.1056(9) 0.6087(7) 0.8410(2)
H50_2 H 0.0997 0.5864 0.8058
C81_2 C 0.0707(7) 0.5600(6) 0.8867(2)
H51_2 H 0.0425 0.5048 0.8808
O19_2 O 0.7151(4) 0.0707(3) 0.07164(17)
C89_2 C 0.6557(6) 0.0510(4) 0.0405(2)
N1_2 N 0.6013(4) 0.0902(3) 0.53554(14)
N2_2 N 0.8887(4) 0.3536(3) 0.7500
O2_2 O 0.7151(4) 0.0707(3) 0.42836(17)
O3_2 O 0.7456(3) 0.2595(2) 0.68666(12)
C1_2 C 0.6557(6) 0.0510(4) 0.4595(2)
C2_2 C 0.6800(4) 0.2118(3) 0.66619(18)
C3_2 C 0.6697(4) 0.1012(3) 0.51175(19)
C4_2 C 0.7435(6) 0.1507(4) 0.5340(2)
H1_2 H 0.7896 0.1592 0.5155
C5_2 C 0.7493(6) 0.1885(4) 0.5848(2)
H2_2 H 0.7990 0.2207 0.6014
C6_2 C 0.6802(4) 0.1772(3) 0.60946(19)
C7_2 C 0.6068(4) 0.1275(3) 0.58363(19)
H3_2 H 0.5601 0.1201 0.6004
C8_2 C 0.9285(4) 0.3616(3) 0.79694(18)
H4_2 H 0.9025 0.3580 0.8303
C19_2 C 0.9285(4) 0.3616(3) 0.70306(18)
H11_2 H 0.9025 0.3580 0.6697
O14_2 O 0.4158(3) 0.0059(2) 0.54908(12)
O20_2 O 0.7456(3) 0.2595(2) 0.81334(12)
C90_2 C 0.6800(4) 0.2118(3) 0.83381(18)
C91_2 C 0.6697(4) 0.1012(3) 0.98825(19)
C92_2 C 0.7435(6) 0.1507(4) 0.9660(2)
H55_2 H 0.7896 0.1592 0.9845
C93_2 C 0.7493(6) 0.1885(4) 0.9152(2)
H56_2 H 0.7990 0.2207 0.8986
C94_2 C 0.6802(4) 0.1772(3) 0.89054(19)
C95_2 C 0.6068(4) 0.1275(3) 0.91637(19)
H57_2 H 0.5601 0.1201 0.8996
O31_2 O 0.8130(4) 0.4247(2) 0.68713(12)
O1_2 O 0.5842(3) 0.9941(2) 0.45092(12)
N6_2 N 0.9098(5) 0.5111(3) 0.53554(14)
N7_2 N 0.6464(5) 0.5351(3) 0.7500
N8_2 N 0.5116(5) 0.9259(3) 0.56118(15)
N9_2 N 0.5467(7) 0.8435(4) 0.7500
O7_2 O 0.9293(5) 0.6444(3) 0.42836(17)
O8_2 O 0.7405(4) 0.4861(2) 0.68666(12)
C28_2 C 0.9490(7) 0.6047(4) 0.4595(2)
C29_2 C 0.7882(5) 0.4682(3) 0.66619(18)
C30_2 C 0.8988(5) 0.5685(3) 0.51175(19)
C31_2 C 0.8493(7) 0.5928(4) 0.5340(2)
H18_2 H 0.8408 0.6304 0.5155
C32_2 C 0.8115(7) 0.5608(4) 0.5848(2)
H19_2 H 0.7793 0.5783 0.6014
C33_2 C 0.8228(5) 0.5030(3) 0.60946(19)
C34_2 C 0.8725(5) 0.4793(3) 0.58363(19)
H20_2 H 0.8799 0.4400 0.6004
C35_2 C 0.6384(5) 0.5669(3) 0.79694(18)
H21_2 H 0.6420 0.5445 0.8303
C36_2 C 0.6249(6) 0.6313(3) 0.79948(18)
H22_2 H 0.6227 0.6528 0.8336
C37_2 C 0.6148(7) 0.6635(4) 0.7500
C38_2 C 0.5932(9) 0.7282(5) 0.7500
C39_2 C 0.5814(7) 0.7585(4) 0.7005(2)
H23_2 H 0.5892 0.7403 0.6665
C40_2 C 0.5584(7) 0.8153(4) 0.7021(2)
C41_2 C 0.5495(7) 0.8838(4) 0.5550(2)
H24_2 H 0.5668 0.8805 0.5195
C42_2 C 0.5646(7) 0.8448(4) 0.5982(2)
H25_2 H 0.5897 0.8151 0.5911
C43_2 C 0.5417(7) 0.8508(4) 0.6518(2)
C44_2 C 0.5031(9) 0.8944(5) 0.6590(2)
H26_2 H 0.4867 0.9003 0.6942
C45_2 C 0.4893(7) 0.9293(4) 0.6133(2)
H27_2 H 0.4623 0.9575 0.6192
C46_2 C 0.6384(5) 0.5669(3) 0.70306(18)
H28_2 H 0.6420 0.5445 0.6697
C47_2 C 0.6249(6) 0.6313(3) 0.70052(18)
H29_2 H 0.6227 0.6528 0.6664
C48_2 C 0.5814(7) 0.7585(4) 0.7995(2)
H30_2 H 0.5892 0.7403 0.8335
C49_2 C 0.5584(7) 0.8153(4) 0.7979(2)
C50_2 C 0.5495(7) 0.8838(4) 0.9450(2)
H31_2 H 0.5668 0.8805 0.9805
C51_2 C 0.5646(7) 0.8448(4) 0.9018(2)
H32_2 H 0.5897 0.8151 0.9089
C52_2 C 0.5417(7) 0.8508(4) 0.8482(2)
C53_2 C 0.5031(9) 0.8944(5) 0.8410(2)
H33_2 H 0.4867 0.9003 0.8058
C54_2 C 0.4893(7) 0.9293(4) 0.8867(2)
H34_2 H 0.4623 0.9575 0.8808
N16_2 N 0.3987(4) 0.9098(3) 0.46446(14)
O15_2 O 0.2849(4) 0.9293(3) 0.57164(17)
C82_2 C 0.3443(6) 0.9490(4) 0.5405(2)
C83_2 C 0.3200(4) 0.7882(3) 0.33381(18)
C84_2 C 0.3303(4) 0.8988(3) 0.48825(19)
C85_2 C 0.2565(6) 0.8493(4) 0.4660(2)
H52_2 H 0.2104 0.8408 0.4845
C86_2 C 0.2507(6) 0.8115(4) 0.4152(2)
H53_2 H 0.2010 0.7793 0.3986
C87_2 C 0.3198(4) 0.8228(3) 0.39054(19)
C88_2 C 0.3932(4) 0.8725(3) 0.41637(19)
H54_2 H 0.4399 0.8799 0.3996
O33_2 O 0.5753(5) 0.3883(4) 0.81287(12)
O15_3 O 0.3556(3) 0.2849(4) 0.07164(17)
C82_3 C 0.3953(4) 0.3443(6) 0.0405(2)
C83_3 C 0.5318(3) 0.3200(4) 0.83381(18)
C84_3 C 0.4315(3) 0.3303(4) 0.98825(19)
C85_3 C 0.4072(4) 0.2565(6) 0.9660(2)
H52_3 H 0.3696 0.2104 0.9845
C86_3 C 0.4392(4) 0.2507(6) 0.9152(2)
H53_3 H 0.4217 0.2010 0.8986
C87_3 C 0.4970(3) 0.3198(4) 0.89054(19)
C88_3 C 0.5207(3) 0.3932(4) 0.91637(19)
H54_3 H 0.5600 0.4399 0.8996
loop_
_geom_bond_atom_site_label_1
_geom_bond_atom_site_label_2
_geom_bond_site_symmetry_1
_geom_bond_site_symmetry_2
Ni1 N2 1_555 1_555
Ni2 N1 1_555 1_555
N1 C3 1_555 1_555
N2 C8 1_555 1_555
N3 C14 1_555 1_555
N4 C13 1_555 1_555
O3 Ni1 1_555 1_555
O4 C2 1_555 1_555
O5 Ni1 1_555 1_555
C2 O3 1_555 1_555
C4 C3 1_555 1_555
H1 C4 1_555 1_555
C5 C4 1_555 1_555
H2 C5 1_555 1_555
C6 C2 1_555 1_555
C7 N1 1_555 1_555
H3 C7 1_555 1_555
C8 H4 1_555 1_555
C9 C8 1_555 1_555
H5 C9 1_555 1_555
C10 C9 1_555 1_555
C11 C10 1_555 1_555
C12 C11 1_555 1_555
H6 C12 1_555 1_555
C13 C12 1_555 1_555
C14 H7 1_555 1_555
C15 C14 1_555 1_555
H8 C15 1_555 1_555
C16 C13 1_555 1_555
C17 C16 1_555 1_555
H9 C17 1_555 1_555
C18 N3 1_555 1_555
H10 C18 1_555 1_555
N5 C23 1_555 1_555
C19 N2 1_555 1_555
H11 C19 1_555 1_555
C20 C10 1_555 1_555
H12 C20 1_555 1_555
C21 C11 1_555 1_555
H13 C21 1_555 1_555
C22 N4 1_555 1_555
C23 H14 1_555 1_555
C24 C23 1_555 1_555
H15 C24 1_555 1_555
C25 C22 1_555 1_555
C26 C25 1_555 1_555
H16 C26 1_555 1_555
C27 N5 1_555 1_555
H17 C27 1_555 1_555
Ni6 N3 1_555 1_555
O14 Ni2 1_555 1_555
N17 C91 1_555 1_555
O19 C89 1_555 1_555
O20 Ni1 1_555 1_555
O21 C90 1_555 1_555
C89 C91 1_555 1_555
C90 O20 1_555 1_555
C91 C92 1_555 1_555
C92 H55 1_555 1_555
C93 C92 1_555 1_555
H56 C93 1_555 1_555
C94 C90 1_555 1_555
C95 N17 1_555 1_555
H57 C95 1_555 1_555
N18 C98 1_555 1_555
O22 C96 1_555 1_555
O23 C96 1_555 1_555
O24 C97 1_555 1_555
O25 Ni1 1_555 1_555
C96 C98 1_555 1_555
C97 O25 1_555 1_555
C98 C99 1_555 1_555
C99 H58 1_555 1_555
C100 C99 1_555 1_555
H59 C100 1_555 1_555
C101 C97 1_555 1_555
C102 N18 1_555 1_555
H60 C102 1_555 1_555
Ni10 O5 1_555 1_555
Ni12 O4 1_555 1_555
Ni13 N5 1_555 1_555
Ni16 N18 1_555 1_555
O31 Ni1 1_555 1_555
O5 Ni12 1_555 1_555
C5 C6 1_555 1_555
C6 C7 1_555 1_555
C15 C16 1_555 1_555
C17 C18 1_555 1_555
C19 C20 1_555 1_555
C21 C22 1_555 1_555
C24 C25 1_555 1_555
C26 C27 1_555 1_555
N17 Ni14 1_555 1_555
O21 Ni12 1_555 1_555
C93 C94 1_555 1_555
C94 C95 1_555 1_555
O22 Ni16 1_555 1_555
O24 Ni10 1_555 1_555
C100 C101 1_555 1_555
C101 C102 1_555 1_555
O2 C1 1_555 1_555
O10 Ni6_2 1_555 1_555
N20 Ni6_2 1_555 1_555
N22 Ni2_2 1_555 1_555
Ni12 N12 1_555 1_555
N11 Ni6_3 1_555 1_555
N12 C62 1_555 1_555
O12 Ni12 1_555 1_555
O13 C56 1_555 1_555
C56 O12 1_555 1_555
C57 N11 1_555 1_555
C58 C57 1_555 1_555
H35 C58 1_555 1_555
C59 C58 1_555 1_555
H36 C59 1_555 1_555
C60 C56 1_555 1_555
C61 N11 1_555 1_555
H37 C61 1_555 1_555
C62 H38 1_555 1_555
C73 N12 1_555 1_555
H45 C73 1_555 1_555
Ni10 O13 1_555 1_555
O27 Ni6_3 1_555 1_555
O28 Ni12 1_555 1_555
C59 C60 1_555 1_555
C60 C61 1_555 1_555
O11 C55 1_555 1_555
N21 Ni6_4 1_555 1_555
N8 Ni2_3 1_555 1_555
N9 C40 1_555 1_555
H22 C36 1_555 1_555
C37 C36 1_555 1_555
C38 C37 1_555 1_555
C39 C38 1_555 1_555
H23 C39 1_555 1_555
C40 C39 1_555 1_555
C41 N8 1_555 1_555
H24 C41 1_555 1_555
C42 C41 1_555 1_555
H25 C42 1_555 1_555
C43 C40 1_555 1_555
C44 C43 1_555 1_555
H26 C44 1_555 1_555
C45 N8 1_555 1_555
H27 C45 1_555 1_555
N10 C50 1_555 1_555
C47 C37 1_555 1_555
H29 C47 1_555 1_555
C48 C38 1_555 1_555
H30 C48 1_555 1_555
C49 N9 1_555 1_555
C50 H31 1_555 1_555
C51 C50 1_555 1_555
H32 C51 1_555 1_555
C52 C49 1_555 1_555
C53 C52 1_555 1_555
H33 C53 1_555 1_555
C54 N10 1_555 1_555
H34 C54 1_555 1_555
O15 C82 1_555 1_555
Ni14_2 N10 1_555 1_555
C42 C43 1_555 1_555
C44 C45 1_555 1_555
C48 C49 1_555 1_555
C51 C52 1_555 1_555
C53 C54 1_555 1_555
O18 Ni14_2 1_555 1_555
O1 Ni2_4 1_555 1_555
N16 Ni2_4 1_555 1_555
O16 C83 1_555 1_555
O17 C83 1_555 1_555
C83 C87 1_555 1_555
C84 N16 1_555 1_555
C85 C84 1_555 1_555
H52 C85 1_555 1_555
C86 C85 1_555 1_555
H53 C86 1_555 1_555
C87 C86 1_555 1_555
C88 N16 1_555 1_555
H54 C88 1_555 1_555
Ni8 O17 1_555 1_555
Ni11 O16 1_555 1_555
C87 C88 1_555 1_555
Ni10 N7 1_555 1_555
Ni4 N6 1_555 1_555
N6 C30 1_555 1_555
N7 C35 1_555 1_555
O8 Ni10 1_555 1_555
O31 C29 1_555 1_555
C29 O8 1_555 1_555
C31 C30 1_555 1_555
H18 C31 1_555 1_555
C32 C31 1_555 1_555
H19 C32 1_555 1_555
C33 C29 1_555 1_555
C34 N6 1_555 1_555
H20 C34 1_555 1_555
C35 H21 1_555 1_555
C46 N7 1_555 1_555
H28 C46 1_555 1_555
N13 Ni4 1_555 1_555
N14 C67 1_555 1_555
H39 C63 1_555 1_555
C64 C63 1_555 1_555
C65 C64 1_555 1_555
C66 C65 1_555 1_555
H40 C66 1_555 1_555
C67 C66 1_555 1_555
C68 N13 1_555 1_555
H41 C68 1_555 1_555
C69 C68 1_555 1_555
H42 C69 1_555 1_555
C70 C67 1_555 1_555
C71 C70 1_555 1_555
H43 C71 1_555 1_555
C72 N13 1_555 1_555
H44 C72 1_555 1_555
N15 C77 1_555 1_555
C74 C64 1_555 1_555
H46 C74 1_555 1_555
C75 C65 1_555 1_555
H47 C75 1_555 1_555
C76 N14 1_555 1_555
C77 H48 1_555 1_555
C78 C77 1_555 1_555
H49 C78 1_555 1_555
C79 C76 1_555 1_555
C80 C79 1_555 1_555
H50 C80 1_555 1_555
C81 N15 1_555 1_555
H51 C81 1_555 1_555
Ni16 N15 1_555 1_555
O26 Ni4 1_555 1_555
O33 Ni10 1_555 1_555
C32 C33 1_555 1_555
C33 C34 1_555 1_555
C69 C70 1_555 1_555
C71 C72 1_555 1_555
C75 C76 1_555 1_555
C78 C79 1_555 1_555
C80 C81 1_555 1_555
O6 Ni4_2 1_555 1_555
O7 C28 1_555 1_555
C28 O6 1_555 1_555
N19 Ni4_2 1_555 1_555
N23 Ni4_2 1_555 1_555
N3_2 C14_2 1_555 1_555
N4_2 C13_2 1_555 1_555
H5_2 C9_2 1_555 1_555
C10_2 C9_2 1_555 1_555
C11_2 C10_2 1_555 1_555
C12_2 C11_2 1_555 1_555
H6_2 C12_2 1_555 1_555
C13_2 C12_2 1_555 1_555
C14_2 H7_2 1_555 1_555
C15_2 C14_2 1_555 1_555
H8_2 C15_2 1_555 1_555
C16_2 C13_2 1_555 1_555
C17_2 C16_2 1_555 1_555
H9_2 C17_2 1_555 1_555
C18_2 N3_2 1_555 1_555
H10_2 C18_2 1_555 1_555
N23 C23_2 1_555 1_555
C20_2 C10_2 1_555 1_555
H12_2 C20_2 1_555 1_555
C21_2 C11_2 1_555 1_555
H13_2 C21_2 1_555 1_555
C22_2 N4_2 1_555 1_555
C23_2 H14_2 1_555 1_555
C24_2 C23_2 1_555 1_555
H15_2 C24_2 1_555 1_555
C25_2 C22_2 1_555 1_555
C26_2 C25_2 1_555 1_555
H16_2 C26_2 1_555 1_555
C27_2 N23 1_555 1_555
H17_2 C27_2 1_555 1_555
Ni5 N12_2 1_555 1_555
Ni16 N3_2 1_555 1_555
N11_2 Ni16 1_555 1_555
N12_2 C62_2 1_555 1_555
O10_2 Ni16 1_555 1_555
O11_2 C55_2 1_555 1_555
O12_2 Ni5 1_555 1_555
O13_2 C56_2 1_555 1_555
C55_2 O10_2 1_555 1_555
C56_2 O12_2 1_555 1_555
C57_2 N11_2 1_555 1_555
C58_2 C57_2 1_555 1_555
H35_2 C58_2 1_555 1_555
C59_2 C58_2 1_555 1_555
H36_2 C59_2 1_555 1_555
C60_2 C56_2 1_555 1_555
C61_2 N11_2 1_555 1_555
H37_2 C61_2 1_555 1_555
C62_2 H38_2 1_555 1_555
C73_2 N12_2 1_555 1_555
H45_2 C73_2 1_555 1_555
Ni11 O13_2 1_555 1_555
O28_2 Ni5 1_555 1_555
O30 Ni5 1_555 1_555
O34 Ni5 1_555 1_555
O36 Ni5 1_555 1_555
C15_2 C16_2 1_555 1_555
C17_2 C18_2 1_555 1_555
C21_2 C22_2 1_555 1_555
C24_2 C25_2 1_555 1_555
C26_2 C27_2 1_555 1_555
C55_2 C57_2 1_555 1_555
C59_2 C60_2 1_555 1_555
C60_2 C61_2 1_555 1_555
Ni11 O36 1_555 1_555
O6_2 Ni14 1_555 1_555
N13_2 Ni14 1_555 1_555
N14_2 C67_2 1_555 1_555
H39_2 C63_2 1_555 1_555
C64_2 C63_2 1_555 1_555
C65_2 C64_2 1_555 1_555
C66_2 C65_2 1_555 1_555
H40_2 C66_2 1_555 1_555
C67_2 C66_2 1_555 1_555
C68_2 N13_2 1_555 1_555
H41_2 C68_2 1_555 1_555
C69_2 C68_2 1_555 1_555
H42_2 C69_2 1_555 1_555
C70_2 C67_2 1_555 1_555
C71_2 C70_2 1_555 1_555
H43_2 C71_2 1_555 1_555
C72_2 N13_2 1_555 1_555
H44_2 C72_2 1_555 1_555
N22 C77_2 1_555 1_555
C74_2 C64_2 1_555 1_555
H46_2 C74_2 1_555 1_555
C75_2 C65_2 1_555 1_555
H47_2 C75_2 1_555 1_555
C76_2 N14_2 1_555 1_555
C77_2 H48_2 1_555 1_555
C78_2 C77_2 1_555 1_555
H49_2 C78_2 1_555 1_555
C79_2 C76_2 1_555 1_555
C80_2 C79_2 1_555 1_555
H50_2 C80_2 1_555 1_555
C81_2 N22 1_555 1_555
H51_2 C81_2 1_555 1_555
C69_2 C70_2 1_555 1_555
C71_2 C72_2 1_555 1_555
C75_2 C76_2 1_555 1_555
C78_2 C79_2 1_555 1_555
C80_2 C81_2 1_555 1_555
O19_2 C89_2 1_555 1_555
Ni8 N2_2 1_555 1_555
Ni13 N1_2 1_555 1_555
N1_2 C3_2 1_555 1_555
N2_2 C8_2 1_555 1_555
O2_2 C1_2 1_555 1_555
O3_2 Ni8 1_555 1_555
O30 C2_2 1_555 1_555
O36 Ni8 1_555 1_555
C2_2 O3_2 1_555 1_555
C3_2 C1_2 1_555 1_555
C4_2 C3_2 1_555 1_555
H1_2 C4_2 1_555 1_555
C5_2 C4_2 1_555 1_555
H2_2 C5_2 1_555 1_555
C6_2 C2_2 1_555 1_555
C7_2 N1_2 1_555 1_555
H3_2 C7_2 1_555 1_555
C8_2 H4_2 1_555 1_555
C19_2 N2_2 1_555 1_555
H11_2 C19_2 1_555 1_555
O14_2 Ni13 1_555 1_555
N20 C91_2 1_555 1_555
O20_2 Ni8 1_555 1_555
O34 C90_2 1_555 1_555
C90_2 O20_2 1_555 1_555
C91_2 C92_2 1_555 1_555
C92_2 H55_2 1_555 1_555
C93_2 C92_2 1_555 1_555
H56_2 C93_2 1_555 1_555
C94_2 C90_2 1_555 1_555
C95_2 N20 1_555 1_555
H57_2 C95_2 1_555 1_555
O31_2 Ni8 1_555 1_555
C5_2 C6_2 1_555 1_555
C6_2 C7_2 1_555 1_555
C93_2 C94_2 1_555 1_555
C94_2 C95_2 1_555 1_555
O1_2 Ni13_2 1_555 1_555
Ni11 N7_2 1_555 1_555
Ni14_2 N6_2 1_555 1_555
N6_2 C30_2 1_555 1_555
N7_2 C35_2 1_555 1_555
N8_2 Ni13_2 1_555 1_555
N9_2 C40_2 1_555 1_555
O7_2 C28_2 1_555 1_555
O8_2 Ni11 1_555 1_555
O31_2 C29_2 1_555 1_555
C29_2 O8_2 1_555 1_555
C30_2 C28_2 1_555 1_555
C31_2 C30_2 1_555 1_555
H18_2 C31_2 1_555 1_555
C32_2 C31_2 1_555 1_555
H19_2 C32_2 1_555 1_555
C33_2 C29_2 1_555 1_555
C34_2 N6_2 1_555 1_555
H20_2 C34_2 1_555 1_555
C35_2 H21_2 1_555 1_555
C36_2 C35_2 1_555 1_555
H22_2 C36_2 1_555 1_555
C37_2 C36_2 1_555 1_555
C38_2 C37_2 1_555 1_555
C39_2 C38_2 1_555 1_555
H23_2 C39_2 1_555 1_555
C40_2 C39_2 1_555 1_555
C41_2 N8_2 1_555 1_555
H24_2 C41_2 1_555 1_555
C42_2 C41_2 1_555 1_555
H25_2 C42_2 1_555 1_555
C43_2 C40_2 1_555 1_555
C44_2 C43_2 1_555 1_555
H26_2 C44_2 1_555 1_555
C45_2 N8_2 1_555 1_555
H27_2 C45_2 1_555 1_555
N21 C50_2 1_555 1_555
C46_2 N7_2 1_555 1_555
H28_2 C46_2 1_555 1_555
C47_2 C37_2 1_555 1_555
H29_2 C47_2 1_555 1_555
C48_2 C38_2 1_555 1_555
H30_2 C48_2 1_555 1_555
C49_2 N9_2 1_555 1_555
C50_2 H31_2 1_555 1_555
C51_2 C50_2 1_555 1_555
H32_2 C51_2 1_555 1_555
C52_2 C49_2 1_555 1_555
C53_2 C52_2 1_555 1_555
H33_2 C53_2 1_555 1_555
C54_2 N21 1_555 1_555
H34_2 C54_2 1_555 1_555
N16_2 Ni13_2 1_555 1_555
O15_2 C82_2 1_555 1_555
O28 C83_2 1_555 1_555
O33 C83_2 1_555 1_555
C83_2 C87_2 1_555 1_555
C84_2 N16_2 1_555 1_555
C85_2 C84_2 1_555 1_555
H52_2 C85_2 1_555 1_555
C86_2 C85_2 1_555 1_555
H53_2 C86_2 1_555 1_555
C87_2 C86_2 1_555 1_555
C88_2 N16_2 1_555 1_555
H54_2 C88_2 1_555 1_555
O33_2 Ni11 1_555 1_555
C32_2 C33_2 1_555 1_555
C33_2 C34_2 1_555 1_555
C42_2 C43_2 1_555 1_555
C44_2 C45_2 1_555 1_555
C46_2 C47_2 1_555 1_555
C48_2 C49_2 1_555 1_555
C51_2 C52_2 1_555 1_555
C53_2 C54_2 1_555 1_555
C82_2 C84_2 1_555 1_555
C87_2 C88_2 1_555 1_555
O15_3 C82_3 1_555 1_555
C82_3 O26 1_555 1_555
O28_2 C83_3 1_555 1_555
O33_2 C83_3 1_555 1_555
C83_3 C87_3 1_555 1_555
C84_3 N19 1_555 1_555
C85_3 C84_3 1_555 1_555
H52_3 C85_3 1_555 1_555
C86_3 C85_3 1_555 1_555
H53_3 C86_3 1_555 1_555
C87_3 C86_3 1_555 1_555
C88_3 N19 1_555 1_555
H54_3 C88_3 1_555 1_555
C87_3 C88_3 1_555 1_555

#END
