
###############################################################################
#
# This file contains modified crystal structure data generated from the
# MOF subset of the Cambridge Structural Database (CSD) v543 
# hosted by the Cambridge Crystallographic Data Centre (CCDC).
#
# This work is licensed under the Creative Commons
# Attribution-NonCommercial-ShareAlike 4.0 International License.
# To view a copy of this license, visit
# http://creativecommons.org/licenses/by-nc-sa/4.0/
# or send a letter to
# Creative Commons, PO Box 1866, Mountain View, CA 94042, USA.
#
# CIF created using the CSD Python API on 29 September 2022
# The structure has been converted into the P1 space group
# The structure has a 3D framework
# The original CSD entry NOBXIO is in the hexagonal crystal system
# The framework has been calculated to contain at least 10.0% void space
# The void calculation uses a probe of radius 1.32A, grid spacing 0.4
#
###############################################################################

data_NOBXIO
_chemical_formula_moiety         '(C192 H108 Co12 N48 O43)n'
_symmetry_cell_setting           triclinic
_symmetry_space_group_name_H-M   'P 1'
_symmetry_Int_Tables_number      1
_space_group_name_Hall           'P 1'
loop_
_symmetry_equiv_pos_site_id
_symmetry_equiv_pos_as_xyz
1 x,y,z
_cell_length_a                   19.2411(6)
_cell_length_b                   19.2411(6)
_cell_length_c                   23.8936(11)
_cell_angle_alpha                90
_cell_angle_beta                 90
_cell_angle_gamma                120
_cell_volume                     7660.76
loop_
_atom_site_label
_atom_site_type_symbol
_atom_site_fract_x
_atom_site_fract_y
_atom_site_fract_z
O5 O -0.0000 0.0000 0.7500
Co9 Co 0.00516(11) 0.10763(8) 0.7500
O4 O 0.0642(3) 0.9094(3) 0.8137(2)
O5_2 O -0.0000 1.0000 0.7500
C4 C 0.0610(6) 0.7793(7) 0.9556(4)
H1 H 0.1068 0.7829 0.9714
C5 C 0.0654(5) 0.8244(6) 0.9070(4)
H2 H 0.1148 0.8610 0.8915
N9 N 0.0011(6) 0.2164(4) 0.7500
H19 H 0.0001 0.2277 0.8311
H25 H 0.0001 0.2277 0.6689
O15 O 0.0415(5) 0.7006(6) 0.4427(3)
O17 O 0.0642(3) 0.9094(3) 0.6863(2)
C79 C 0.0610(6) 0.7793(7) 0.5444(4)
H46 H 0.1068 0.7829 0.5286
C80 C 0.0654(5) 0.8244(6) 0.5930(4)
H47 H 0.1148 0.8610 0.6085
Co10 Co 0.10247(7) 0.99484(11) 0.7500
O31 O 0.0906(3) 0.1548(4) 0.8137(2)
O34 O 0.0906(3) 0.1548(4) 0.6863(2)
O5_3 O 1.0000 0.0000 0.7500
Co2 Co 0.81411(4) 0.62822(8) 0.0000
O1 O 0.9059(3) 0.6356(3) 0.0469(2)
C1 C 0.9791(5) 0.6865(6) 0.0323(3)
Co5 Co 0.37178(8) 0.18589(9) 0.0000
O10 O 0.3644(3) 0.2703(4) 0.0469(2)
O11 O 0.2994(6) 0.3409(8) 0.0573(3)
C51 C 0.3135(6) 0.2926(8) 0.0323(3)
Co6 Co 0.81411(9) 0.18589(4) 0.0000
O18 O 0.7297(4) 0.0941(3) 0.0469(2)
C83 C 0.7074(8) 0.0209(5) 0.0323(3)
N25 N 0.2812(4) 0.0818(3) 0.0458(2)
N26 N 0.9182(3) 0.1994(5) 0.0458(2)
N27 N 0.8006(5) 0.7188(4) 0.0458(2)
N28 N 0.8108(6) 0.2695(4) 0.0582(2)
N29 N 0.7305(4) 0.5413(4) 0.0582(2)
N30 N 0.4587(4) 0.1892(6) 0.0582(2)
Co1 Co 0.89237(8) 0.89753(7) 0.7500
Co2_2 Co 0.81411(4) 0.62822(8) 1.0000
N1 N 0.9182(3) 0.7188(4) 0.9542(2)
N2 N 0.7836(4) 0.7847(4) 0.7500
N3 N 0.6053(4) 0.4953(4) 0.7004(2)
N4 N 0.5447(6) 0.3717(5) 0.7500
N5 N 0.4587(4) 0.2695(4) 0.5582(2)
O3 O 0.9298(3) 0.8464(3) 0.8134(2)
O5_4 O 1.0000 1.0000 0.7500
C2 C 0.9973(5) 0.8613(4) 0.8314(2)
C3 C 0.9874(5) 0.7309(5) 0.9777(3)
C6 C 0.9944(5) 0.8123(4) 0.8832(2)
C7 C 0.9233(4) 0.7578(5) 0.9081(3)
H3 H 0.8758 0.7480 0.8910
C8 C 0.7548(4) 0.7441(4) 0.7023(2)
H4 H 0.7723 0.7724 0.6689
C9 C 0.7009(4) 0.6630(5) 0.6996(3)
H5 H 0.6816 0.6373 0.6655
C10 C 0.6763(7) 0.6209(6) 0.7500
C11 C 0.6244(6) 0.5310(5) 0.7500
C12 C 0.5633(5) 0.4116(4) 0.7021(3)
C13 C 0.4706(6) 0.2397(5) 0.6057(3)
H6 H 0.4539 0.1852 0.6068
C14 C 0.5060(6) 0.2849(5) 0.6528(4)
H7 H 0.5102 0.2610 0.6855
C15 C 0.5351(5) 0.3665(4) 0.6505(3)
C16 C 0.5302(5) 0.4003(5) 0.6006(3)
H8 H 0.5539 0.4556 0.5968
C17 C 0.4896(6) 0.3500(5) 0.5567(3)
H9 H 0.4830 0.3725 0.5241
N6 N 0.6053(4) 0.4953(4) 0.7996(2)
N7 N 0.4587(4) 0.2695(4) 0.9418(2)
C18 C 0.7548(4) 0.7441(4) 0.7977(2)
H10 H 0.7723 0.7724 0.8311
C19 C 0.7009(4) 0.6630(5) 0.8004(3)
H11 H 0.6816 0.6373 0.8345
C20 C 0.5633(5) 0.4116(4) 0.7979(3)
C21 C 0.4706(6) 0.2397(5) 0.8943(3)
H12 H 0.4539 0.1852 0.8932
C22 C 0.5060(6) 0.2849(5) 0.8472(4)
H13 H 0.5102 0.2610 0.8145
C23 C 0.5351(5) 0.3665(4) 0.8495(3)
C24 C 0.5302(5) 0.4003(5) 0.8994(3)
H14 H 0.5539 0.4556 0.9032
C25 C 0.4896(6) 0.3500(5) 0.9433(3)
H15 H 0.4830 0.3725 0.9759
N8 N 0.8006(5) 0.0818(3) 0.5458(2)
N10 N 0.8900(6) 0.3947(4) 0.7996(2)
N11 N 0.8270(8) 0.4553(6) 0.7500
N12 N 0.8108(6) 0.5413(4) 0.9418(2)
O6 O 0.7297(4) 0.0941(3) 0.4531(2)
O8 O 0.9166(4) 0.0702(3) 0.6866(2)
C26 C 0.7074(8) 0.0209(5) 0.4677(3)
C27 C 0.8640(6) 0.0027(5) 0.6686(2)
C28 C 0.7435(7) 0.0126(5) 0.5223(3)
C31 C 0.8179(6) 0.0056(5) 0.6168(2)
C32 C 0.8345(6) 0.0767(4) 0.5919(3)
H18 H 0.8722 0.1242 0.6090
C33 C 0.9893(6) 0.2452(4) 0.7977(2)
C34 C 0.9621(6) 0.2991(4) 0.8004(3)
H20 H 0.9557 0.3184 0.8345
C35 C 0.9446(9) 0.3237(7) 0.7500
C36 C 0.9066(8) 0.3756(6) 0.7500
C37 C 0.8483(6) 0.4367(5) 0.7979(3)
C38 C 0.7691(8) 0.5294(6) 0.8943(3)
H21 H 0.7313 0.5461 0.8932
C39 C 0.7789(8) 0.4940(6) 0.8472(4)
H22 H 0.7508 0.4898 0.8145
C40 C 0.8314(6) 0.4649(5) 0.8495(3)
C41 C 0.8701(7) 0.4698(5) 0.8994(3)
H23 H 0.9017 0.4461 0.9032
C42 C 0.8604(8) 0.5104(6) 0.9433(3)
H24 H 0.8895 0.5170 0.9759
N13 N 0.8900(6) 0.3947(4) 0.7004(2)
N14 N 0.8108(6) 0.5413(4) 0.5582(2)
C43 C 0.9893(6) 0.2452(4) 0.7023(2)
C44 C 0.9621(6) 0.2991(4) 0.6996(3)
H26 H 0.9557 0.3184 0.6655
C45 C 0.8483(6) 0.4367(5) 0.7021(3)
C46 C 0.7691(8) 0.5294(6) 0.6057(3)
H27 H 0.7313 0.5461 0.6068
C47 C 0.7789(8) 0.4940(6) 0.6528(4)
H28 H 0.7508 0.4898 0.6855
C48 C 0.8314(6) 0.4649(5) 0.6505(3)
C49 C 0.8701(7) 0.4698(5) 0.6006(3)
H29 H 0.9017 0.4461 0.5968
C50 C 0.8604(8) 0.5104(6) 0.5567(3)
H30 H 0.8895 0.5170 0.5241
Co5_2 Co 0.37178(8) 0.18589(9) 1.0000
N15 N 0.2812(4) 0.1994(5) 0.9542(2)
N17 N 0.5047(4) 0.1100(6) 0.7004(2)
N18 N 0.6283(5) 0.1730(8) 0.7500
N19 N 0.7305(4) 0.1892(6) 0.5582(2)
O12 O 0.1536(3) 0.0834(4) 0.8134(2)
C52 C 0.1387(4) 0.1360(6) 0.8314(2)
C53 C 0.2691(5) 0.2565(7) 0.9777(3)
C54 C 0.2207(7) 0.2817(9) 0.9556(4)
H31 H 0.2171 0.3239 0.9714
C55 C 0.1756(6) 0.2410(8) 0.9070(4)
H32 H 0.1390 0.2538 0.8915
C56 C 0.1877(4) 0.1821(6) 0.8832(2)
C57 C 0.2422(5) 0.1655(6) 0.9081(3)
H33 H 0.2520 0.1278 0.8910
C58 C 0.2559(4) 0.0107(6) 0.7023(2)
C59 C 0.3370(5) 0.0379(6) 0.6996(3)
H35 H 0.3627 0.0443 0.6655
C60 C 0.3791(6) 0.0554(9) 0.7500
C61 C 0.4690(5) 0.0934(8) 0.7500
C62 C 0.5884(4) 0.1517(6) 0.7021(3)
C63 C 0.7603(5) 0.2309(8) 0.6057(3)
H36 H 0.8148 0.2687 0.6068
C64 C 0.7151(5) 0.2211(8) 0.6528(4)
H37 H 0.7390 0.2492 0.6855
C65 C 0.6335(4) 0.1686(6) 0.6505(3)
C66 C 0.5997(5) 0.1299(7) 0.6006(3)
H38 H 0.5444 0.0983 0.5968
C67 C 0.6500(5) 0.1396(8) 0.5567(3)
H39 H 0.6275 0.1105 0.5241
N20 N 0.5047(4) 0.1100(6) 0.7996(2)
N21 N 0.7305(4) 0.1892(6) 0.9418(2)
C68 C 0.2559(4) 0.0107(6) 0.7977(2)
C69 C 0.3370(5) 0.0379(6) 0.8004(3)
H41 H 0.3627 0.0443 0.8345
C70 C 0.5884(4) 0.1517(6) 0.7979(3)
C71 C 0.7603(5) 0.2309(8) 0.8943(3)
H42 H 0.8148 0.2687 0.8932
C72 C 0.7151(5) 0.2211(8) 0.8472(4)
H43 H 0.7390 0.2492 0.8145
C73 C 0.6335(4) 0.1686(6) 0.8495(3)
C74 C 0.5997(5) 0.1299(7) 0.8994(3)
H44 H 0.5444 0.0983 0.9032
C75 C 0.6500(5) 0.1396(8) 0.9433(3)
H45 H 0.6275 0.1105 0.9759
N22 N 0.9182(3) 0.7188(4) 0.5458(2)
O14 O 0.9059(3) 0.6356(3) 0.4531(2)
O16 O 0.9298(3) 0.8464(3) 0.6866(2)
C76 C 0.9791(5) 0.6865(6) 0.4677(3)
C77 C 0.9973(5) 0.8613(4) 0.6686(2)
C78 C 0.9874(5) 0.7309(5) 0.5223(3)
C81 C 0.9944(5) 0.8123(4) 0.6168(2)
C82 C 0.9233(4) 0.7578(5) 0.5919(3)
H48 H 0.8758 0.7480 0.6090
Co6_2 Co 0.81411(9) 0.18589(4) 1.0000
N23 N 0.8006(5) 0.0818(3) 0.9542(2)
O20 O 0.9166(4) 0.0702(3) 0.8134(2)
C84 C 0.8640(6) 0.0027(5) 0.8314(2)
C85 C 0.7435(7) 0.0126(5) 0.9777(3)
C88 C 0.8179(6) 0.0056(5) 0.8832(2)
C89 C 0.8345(6) 0.0767(4) 0.9081(3)
H51 H 0.8722 0.1242 0.8910
N24 N 0.2812(4) 0.1994(5) 0.5458(2)
O22 O 0.3644(3) 0.2703(4) 0.4531(2)
O23 O 0.2994(6) 0.3409(8) 0.4427(3)
O24 O 0.1536(3) 0.0834(4) 0.6866(2)
C90 C 0.3135(6) 0.2926(8) 0.4677(3)
C91 C 0.1387(4) 0.1360(6) 0.6686(2)
C92 C 0.2691(5) 0.2565(7) 0.5223(3)
C93 C 0.2207(7) 0.2817(9) 0.5444(4)
H52 H 0.2171 0.3239 0.5286
C94 C 0.1756(6) 0.2410(8) 0.5930(4)
H53 H 0.1390 0.2538 0.6085
C95 C 0.1877(4) 0.1821(6) 0.6168(2)
C96 C 0.2422(5) 0.1655(6) 0.5919(3)
H54 H 0.2520 0.1278 0.6090
Co11 Co 0.81411(9) 0.18589(4) 0.5000
Co12 Co 0.81411(4) 0.62822(8) 0.5000
Co13 Co 0.37178(8) 0.18589(9) 0.5000
O26 O 0.3644(3) 0.0941(3) 0.9531(2)
O27 O 0.9059(3) 0.2703(4) 0.9531(2)
O28 O 0.7297(4) 0.6356(3) 0.9531(2)
O30 O 0.8452(4) 0.9358(3) 0.6863(2)
O33 O 0.8452(4) 0.9358(3) 0.8137(2)
O7 O 0.6591(8) 0.9585(5) 0.4427(3)
C29 C 0.7183(9) 0.9390(6) 0.5444(4)
H16 H 0.6761 0.8932 0.5286
C30 C 0.7590(8) 0.9346(5) 0.5930(4)
H17 H 0.7462 0.8852 0.6085
N16 N 0.2153(4) 0.9989(6) 0.7500
H34 H 0.2276 0.9999 0.6689
H40 H 0.2276 0.9999 0.8311
C86 C 0.7183(9) 0.9390(6) 0.9556(4)
H49 H 0.6761 0.8932 0.9714
C87 C 0.7590(8) 0.9346(5) 0.9070(4)
H50 H 0.7462 0.8852 0.8915
N25_2 N 0.8006(5) 0.7188(4) 0.4542(2)
N26_2 N 0.2812(6) 0.0818(3) 0.4542(2)
N27_2 N 0.9182(6) 0.1994(5) 0.4542(2)
N28_2 N 0.4587(7) 0.1892(6) 0.4418(2)
N29_2 N 0.8108(6) 0.2695(4) 0.4418(2)
N30_2 N 0.7305(7) 0.5413(4) 0.4418(2)
O26_2 O 0.7297(4) 0.6356(3) 0.5469(2)
O27_2 O 0.3644(5) 0.0941(3) 0.5469(2)
O28_2 O 0.9059(5) 0.2703(4) 0.5469(2)
O35 O 0.0000 0.0000 0.2500
O7_2 O 0.0415(5) 0.3409(8) 0.5573(3)
O9 O 0.0642(3) 0.1548(4) 0.3137(2)
C29_2 C 0.0610(6) 0.2817(9) 0.4556(4)
H16_2 H 0.1068 0.3239 0.4714
C30_2 C 0.0654(5) 0.2410(8) 0.4070(4)
H17_2 H 0.1148 0.2538 0.3915
Co4 Co 0.00516(11) 0.89753(7) 0.2500
N16_2 N 0.0011(6) 0.7847(4) 0.2500
H34_2 H 0.0001 0.7724 0.3311
H40_2 H 0.0001 0.7724 0.1689
O21 O 0.0642(3) 0.1548(4) 0.1863(2)
C86_2 C 0.0610(6) 0.2817(9) 0.0444(4)
H49_2 H 0.1068 0.3239 0.0286
C87_2 C 0.0654(5) 0.2410(8) 0.0930(4)
H50_2 H 0.1148 0.2538 0.1085
Co7 Co 0.10247(7) 0.10763(8) 0.2500
O29 O 0.0906(3) 0.9358(3) 0.1863(2)
O32 O 0.0906(3) 0.9358(3) 0.3137(2)
O35_2 O -0.0000 1.0000 0.2500
O35_3 O 1.0000 0.0000 0.2500
N2_2 N 0.2153(4) 0.2164(4) 0.2500
N3_2 N 0.5047(4) 0.3947(4) 0.2996(2)
N4_2 N 0.6283(5) 0.4553(6) 0.2500
O3_2 O 0.1536(3) 0.0702(3) 0.1866(2)
C2_2 C 0.1387(4) 0.0027(5) 0.1686(2)
C3_2 C 0.2691(5) 0.0126(5) 0.0223(3)
C6_2 C 0.1877(4) 0.0056(5) 0.1168(2)
C7_2 C 0.2422(5) 0.0767(4) 0.0919(3)
H3_2 H 0.2520 0.1242 0.1090
C8_2 C 0.2559(4) 0.2452(4) 0.2977(2)
H4_2 H 0.2276 0.2277 0.3311
C9_2 C 0.3370(5) 0.2991(4) 0.3004(3)
H5_2 H 0.3627 0.3184 0.3345
C10_2 C 0.3791(6) 0.3237(7) 0.2500
C11_2 C 0.4690(5) 0.3756(6) 0.2500
C12_2 C 0.5884(4) 0.4367(5) 0.2979(3)
C13_2 C 0.7603(5) 0.5294(6) 0.3943(3)
H6_2 H 0.8148 0.5461 0.3932
C14_2 C 0.7151(5) 0.4940(6) 0.3472(4)
H7_2 H 0.7390 0.4898 0.3145
C15_2 C 0.6335(4) 0.4649(5) 0.3495(3)
C16_2 C 0.5997(5) 0.4698(5) 0.3994(3)
H8_2 H 0.5444 0.4461 0.4032
C17_2 C 0.6500(5) 0.5104(6) 0.4433(3)
H9_2 H 0.6275 0.5170 0.4759
N6_2 N 0.5047(4) 0.3947(4) 0.2004(2)
C18_2 C 0.2559(4) 0.2452(4) 0.2023(2)
H10_2 H 0.2276 0.2277 0.1689
C19_2 C 0.3370(5) 0.2991(4) 0.1996(3)
H11_2 H 0.3627 0.3184 0.1655
C20_2 C 0.5884(4) 0.4367(5) 0.2021(3)
C21_2 C 0.7603(5) 0.5294(6) 0.1057(3)
H12_2 H 0.8148 0.5461 0.1068
C22_2 C 0.7151(5) 0.4940(6) 0.1528(4)
H13_2 H 0.7390 0.4898 0.1855
C23_2 C 0.6335(4) 0.4649(5) 0.1505(3)
C24_2 C 0.5997(5) 0.4698(5) 0.1006(3)
H14_2 H 0.5444 0.4461 0.0968
C25_2 C 0.6500(5) 0.5104(6) 0.0567(3)
H15_2 H 0.6275 0.5170 0.0241
N10_2 N 0.6053(4) 0.1100(6) 0.2004(2)
N11_2 N 0.5447(6) 0.1730(8) 0.2500
O8_2 O 0.9298(3) 0.0834(4) 0.3134(2)
C26_2 C 0.9791(5) 0.2926(8) 0.5323(3)
C27_2 C 0.9973(5) 0.1360(6) 0.3314(2)
C28_2 C 0.9874(5) 0.2565(7) 0.4777(3)
C31_2 C 0.9944(5) 0.1821(6) 0.3832(2)
C32_2 C 0.9233(4) 0.1655(6) 0.4081(3)
H18_2 H 0.8758 0.1278 0.3910
C33_2 C 0.7548(4) 0.0107(6) 0.2023(2)
C34_2 C 0.7009(4) 0.0379(6) 0.1996(3)
H20_2 H 0.6816 0.0443 0.1655
C35_2 C 0.6763(7) 0.0554(9) 0.2500
C36_2 C 0.6244(6) 0.0934(8) 0.2500
C37_2 C 0.5633(5) 0.1517(6) 0.2021(3)
C38_2 C 0.4706(6) 0.2309(8) 0.1057(3)
H21_2 H 0.4539 0.2687 0.1068
C39_2 C 0.5060(6) 0.2211(8) 0.1528(4)
H22_2 H 0.5102 0.2492 0.1855
C40_2 C 0.5351(5) 0.1686(6) 0.1505(3)
C41_2 C 0.5302(5) 0.1299(7) 0.1006(3)
H23_2 H 0.5539 0.0983 0.0968
C42_2 C 0.4896(6) 0.1396(8) 0.0567(3)
H24_2 H 0.4830 0.1105 0.0241
N13_2 N 0.6053(4) 0.1100(6) 0.2996(2)
C43_2 C 0.7548(4) 0.0107(6) 0.2977(2)
C44_2 C 0.7009(4) 0.0379(6) 0.3004(3)
H26_2 H 0.6816 0.0443 0.3345
C45_2 C 0.5633(5) 0.1517(6) 0.2979(3)
C46_2 C 0.4706(6) 0.2309(8) 0.3943(3)
H27_2 H 0.4539 0.2687 0.3932
C47_2 C 0.5060(6) 0.2211(8) 0.3472(4)
H28_2 H 0.5102 0.2492 0.3145
C48_2 C 0.5351(5) 0.1686(6) 0.3495(3)
C49_2 C 0.5302(5) 0.1299(7) 0.3994(3)
H29_2 H 0.5539 0.0983 0.4032
C50_2 C 0.4896(6) 0.1396(8) 0.4433(3)
H30_2 H 0.4830 0.1105 0.4759
N17_2 N 0.8900(6) 0.4953(4) 0.2996(2)
N18_2 N 0.8270(8) 0.3717(5) 0.2500
O12_2 O 0.9166(4) 0.8464(3) 0.1866(2)
O13 O 0.8452(4) 0.9094(3) 0.1863(2)
C52_2 C 0.8640(6) 0.8613(4) 0.1686(2)
C53_2 C 0.7435(7) 0.7309(5) 0.0223(3)
C54_2 C 0.7183(9) 0.7793(7) 0.0444(4)
H31_2 H 0.6761 0.7829 0.0286
C55_2 C 0.7590(8) 0.8244(6) 0.0930(4)
H32_2 H 0.7462 0.8610 0.1085
C56_2 C 0.8179(6) 0.8123(4) 0.1168(2)
C57_2 C 0.8345(6) 0.7578(5) 0.0919(3)
H33_2 H 0.8722 0.7480 0.1090
C58_2 C 0.9893(6) 0.7441(4) 0.2977(2)
C59_2 C 0.9621(6) 0.6630(5) 0.3004(3)
H35_2 H 0.9557 0.6373 0.3345
C60_2 C 0.9446(9) 0.6209(6) 0.2500
C61_2 C 0.9066(8) 0.5310(5) 0.2500
C62_2 C 0.8483(6) 0.4116(4) 0.2979(3)
C63_2 C 0.7691(8) 0.2397(5) 0.3943(3)
H36_2 H 0.7313 0.1852 0.3932
C64_2 C 0.7789(8) 0.2849(5) 0.3472(4)
H37_2 H 0.7508 0.2610 0.3145
C65_2 C 0.8314(6) 0.3665(4) 0.3495(3)
C66_2 C 0.8701(7) 0.4003(5) 0.3994(3)
H38_2 H 0.9017 0.4556 0.4032
C67_2 C 0.8604(8) 0.3500(5) 0.4433(3)
H39_2 H 0.8895 0.3725 0.4759
N20_2 N 0.8900(6) 0.4953(4) 0.2004(2)
C68_2 C 0.9893(6) 0.7441(4) 0.2023(2)
C69_2 C 0.9621(6) 0.6630(5) 0.1996(3)
H41_2 H 0.9557 0.6373 0.1655
C70_2 C 0.8483(6) 0.4116(4) 0.2021(3)
C71_2 C 0.7691(8) 0.2397(5) 0.1057(3)
H42_2 H 0.7313 0.1852 0.1068
C72_2 C 0.7789(8) 0.2849(5) 0.1528(4)
H43_2 H 0.7508 0.2610 0.1855
C73_2 C 0.8314(6) 0.3665(4) 0.1505(3)
C74_2 C 0.8701(7) 0.4003(5) 0.1006(3)
H44_2 H 0.9017 0.4556 0.0968
C75_2 C 0.8604(8) 0.3500(5) 0.0567(3)
H45_2 H 0.8895 0.3725 0.0241
O16_2 O 0.1536(3) 0.0702(3) 0.3134(2)
C76_2 C 0.3135(6) 0.0209(5) 0.5323(3)
C77_2 C 0.1387(4) 0.0027(5) 0.3314(2)
C78_2 C 0.2691(5) 0.0126(5) 0.4777(3)
C81_2 C 0.1877(4) 0.0056(5) 0.3832(2)
C82_2 C 0.2422(5) 0.0767(4) 0.4081(3)
H48_2 H 0.2520 0.1242 0.3910
O20_2 O 0.9298(3) 0.0834(4) 0.1866(2)
C84_2 C 0.9973(5) 0.1360(6) 0.1686(2)
C85_2 C 0.9874(5) 0.2565(7) 0.0223(3)
C88_2 C 0.9944(5) 0.1821(6) 0.1168(2)
C89_2 C 0.9233(4) 0.1655(6) 0.0919(3)
H51_2 H 0.8758 0.1278 0.1090
O23_2 O 0.6591(8) 0.7006(6) 0.5573(3)
O24_2 O 0.9166(4) 0.8464(3) 0.3134(2)
O25 O 0.8452(4) 0.9094(3) 0.3137(2)
C90_2 C 0.7074(8) 0.6865(6) 0.5323(3)
C91_2 C 0.8640(6) 0.8613(4) 0.3314(2)
C92_2 C 0.7435(7) 0.7309(5) 0.4777(3)
C93_2 C 0.7183(9) 0.7793(7) 0.4556(4)
H52_2 H 0.6761 0.7829 0.4714
C94_2 C 0.7590(8) 0.8244(6) 0.4070(4)
H53_2 H 0.7462 0.8610 0.3915
C95_2 C 0.8179(6) 0.8123(4) 0.3832(2)
C96_2 C 0.8345(6) 0.7578(5) 0.4081(3)
H54_2 H 0.8722 0.7480 0.3910
Co8 Co 0.89237(8) 0.99484(11) 0.2500
O35_4 O 1.0000 1.0000 0.2500
C1_2 C 0.3135(6) 0.0209(5) 0.9677(3)
O11_2 O 0.6591(8) 0.7006(6) 0.9427(3)
C51_2 C 0.7074(8) 0.6865(6) 0.9677(3)
C83_2 C 0.9791(5) 0.2926(8) 0.9677(3)
C4_2 C 0.2207(7) 0.9390(6) 0.0444(4)
H1_2 H 0.2171 0.8932 0.0286
C5_2 C 0.1756(6) 0.9346(5) 0.0930(4)
H2_2 H 0.1390 0.8852 0.1085
N9_2 N 0.7836(4) 0.9989(6) 0.2500
H19_2 H 0.7723 0.9999 0.1689
H25_2 H 0.7723 0.9999 0.3311
O15_2 O 0.2994(6) 0.9585(5) 0.5573(3)
C79_2 C 0.2207(7) 0.9390(6) 0.4556(4)
H46_2 H 0.2171 0.8932 0.4714
C80_2 C 0.1756(6) 0.9346(5) 0.4070(4)
H47_2 H 0.1390 0.8852 0.3915
O2 O 0.0415(5) 0.7006(6) 0.0573(3)
O19 O 0.6591(8) 0.9585(5) 0.0573(3)
O19_2 O 0.0415(5) 0.3409(8) 0.9427(3)
O2_2 O 0.2994(6) 0.9585(5) 0.9427(3)
loop_
_geom_bond_atom_site_label_1
_geom_bond_atom_site_label_2
_geom_bond_site_symmetry_1
_geom_bond_site_symmetry_2
Co9 O5 1_555 1_555
H1 C4 1_555 1_555
C5 C4 1_555 1_555
H2 C5 1_555 1_555
Co9 N9 1_555 1_555
C79 H46 1_555 1_555
C80 C79 1_555 1_555
H47 C80 1_555 1_555
Co10 O4 1_555 1_555
O31 Co9 1_555 1_555
O34 Co9 1_555 1_555
O5_2 Co10 1_555 1_555
O17 Co10 1_555 1_555
O1 Co2 1_555 1_555
C1 O1 1_555 1_555
O10 Co5 1_555 1_555
O11 C51 1_555 1_555
C51 O10 1_555 1_555
O18 Co6 1_555 1_555
C83 O18 1_555 1_555
N25 Co5 1_555 1_555
N26 Co6 1_555 1_555
N27 Co2 1_555 1_555
N28 Co6 1_555 1_555
N29 Co2 1_555 1_555
N30 Co5 1_555 1_555
Co1 N2 1_555 1_555
Co2_2 N1 1_555 1_555
N1 C3 1_555 1_555
N2 C8 1_555 1_555
N3 C11 1_555 1_555
N4 C12 1_555 1_555
N5 C13 1_555 1_555
O3 Co1 1_555 1_555
O5_4 Co1 1_555 1_555
C2 O3 1_555 1_555
C6 C2 1_555 1_555
C7 N1 1_555 1_555
H3 C7 1_555 1_555
C8 H4 1_555 1_555
C9 C8 1_555 1_555
H5 C9 1_555 1_555
C10 C9 1_555 1_555
C11 C10 1_555 1_555
C12 N3 1_555 1_555
C13 H6 1_555 1_555
C14 C13 1_555 1_555
H7 C14 1_555 1_555
C15 C12 1_555 1_555
C16 C15 1_555 1_555
H8 C16 1_555 1_555
C17 N5 1_555 1_555
H9 C17 1_555 1_555
N6 C11 1_555 1_555
N7 C21 1_555 1_555
C18 N2 1_555 1_555
H10 C18 1_555 1_555
C19 C10 1_555 1_555
H11 C19 1_555 1_555
C20 N4 1_555 1_555
C21 H12 1_555 1_555
C22 C21 1_555 1_555
H13 C22 1_555 1_555
C23 C20 1_555 1_555
C24 C23 1_555 1_555
H14 C24 1_555 1_555
C25 N7 1_555 1_555
H15 C25 1_555 1_555
N8 C28 1_555 1_555
N10 C36 1_555 1_555
N11 C37 1_555 1_555
N12 Co2_2 1_555 1_555
O6 C26 1_555 1_555
C26 C28 1_555 1_555
C27 O8 1_555 1_555
C31 C27 1_555 1_555
C32 N8 1_555 1_555
H18 C32 1_555 1_555
C34 C33 1_555 1_555
H20 C34 1_555 1_555
C35 C34 1_555 1_555
C36 C35 1_555 1_555
C37 N10 1_555 1_555
C38 N12 1_555 1_555
H21 C38 1_555 1_555
C39 C38 1_555 1_555
H22 C39 1_555 1_555
C40 C37 1_555 1_555
C41 C40 1_555 1_555
H23 C41 1_555 1_555
C42 N12 1_555 1_555
H24 C42 1_555 1_555
N13 C36 1_555 1_555
N14 C46 1_555 1_555
C44 C35 1_555 1_555
H26 C44 1_555 1_555
C45 N11 1_555 1_555
C46 H27 1_555 1_555
C47 C46 1_555 1_555
H28 C47 1_555 1_555
C48 C45 1_555 1_555
C49 C48 1_555 1_555
H29 C49 1_555 1_555
C50 N14 1_555 1_555
H30 C50 1_555 1_555
Co5_2 N7 1_555 1_555
N15 Co5_2 1_555 1_555
N17 C61 1_555 1_555
N18 C62 1_555 1_555
N19 C63 1_555 1_555
O31 C52 1_555 1_555
C52 O12 1_555 1_555
C53 N15 1_555 1_555
C54 C53 1_555 1_555
H31 C54 1_555 1_555
C55 C54 1_555 1_555
H32 C55 1_555 1_555
C56 C52 1_555 1_555
C57 N15 1_555 1_555
H33 C57 1_555 1_555
C59 C58 1_555 1_555
H35 C59 1_555 1_555
C60 C59 1_555 1_555
C61 C60 1_555 1_555
C62 N17 1_555 1_555
C63 H36 1_555 1_555
C64 C63 1_555 1_555
H37 C64 1_555 1_555
C65 C62 1_555 1_555
C66 C65 1_555 1_555
H38 C66 1_555 1_555
C67 N19 1_555 1_555
H39 C67 1_555 1_555
N20 C61 1_555 1_555
N21 C71 1_555 1_555
C69 C60 1_555 1_555
H41 C69 1_555 1_555
C70 N18 1_555 1_555
C71 H42 1_555 1_555
C72 C71 1_555 1_555
H43 C72 1_555 1_555
C73 C70 1_555 1_555
C74 C73 1_555 1_555
H44 C74 1_555 1_555
C75 N21 1_555 1_555
H45 C75 1_555 1_555
N22 C78 1_555 1_555
O14 C76 1_555 1_555
O16 Co1 1_555 1_555
C76 C78 1_555 1_555
C77 O16 1_555 1_555
C81 C77 1_555 1_555
C82 N22 1_555 1_555
H48 C82 1_555 1_555
Co6_2 N21 1_555 1_555
N23 Co6_2 1_555 1_555
C84 O20 1_555 1_555
C85 N23 1_555 1_555
C88 C84 1_555 1_555
C89 N23 1_555 1_555
H51 C89 1_555 1_555
N24 C92 1_555 1_555
O22 C90 1_555 1_555
O23 C90 1_555 1_555
O34 C91 1_555 1_555
C90 C92 1_555 1_555
C91 O24 1_555 1_555
C92 C93 1_555 1_555
C93 H52 1_555 1_555
C94 C93 1_555 1_555
H53 C94 1_555 1_555
C95 C91 1_555 1_555
C96 N24 1_555 1_555
H54 C96 1_555 1_555
Co11 N8 1_555 1_555
Co12 N14 1_555 1_555
Co13 N5 1_555 1_555
O26 Co5_2 1_555 1_555
O27 Co6_2 1_555 1_555
O28 Co2_2 1_555 1_555
O30 Co1 1_555 1_555
O33 Co1 1_555 1_555
C6 C7 1_555 1_555
C14 C15 1_555 1_555
C16 C17 1_555 1_555
N6 C20 1_555 1_555
C18 C19 1_555 1_555
C22 C23 1_555 1_555
C24 C25 1_555 1_555
O6 Co11 1_555 1_555
C31 C32 1_555 1_555
C39 C40 1_555 1_555
C41 C42 1_555 1_555
N13 C45 1_555 1_555
C43 C44 1_555 1_555
C47 C48 1_555 1_555
C49 C50 1_555 1_555
N19 Co11 1_555 1_555
C55 C56 1_555 1_555
C56 C57 1_555 1_555
C64 C65 1_555 1_555
C66 C67 1_555 1_555
N20 C70 1_555 1_555
C68 C69 1_555 1_555
C72 C73 1_555 1_555
C74 C75 1_555 1_555
N22 Co12 1_555 1_555
O14 Co12 1_555 1_555
C81 C82 1_555 1_555
C88 C89 1_555 1_555
N24 Co13 1_555 1_555
O22 Co13 1_555 1_555
C94 C95 1_555 1_555
C95 C96 1_555 1_555
C29 H16 1_555 1_555
C30 C29 1_555 1_555
H17 C30 1_555 1_555
Co10 N16 1_555 1_555
H49 C86 1_555 1_555
C87 C86 1_555 1_555
H50 C87 1_555 1_555
N25_2 Co12 1_555 1_555
N26_2 Co13 1_555 1_555
N27_2 Co11 1_555 1_555
N28_2 Co13 1_555 1_555
N29_2 Co11 1_555 1_555
N30_2 Co12 1_555 1_555
O26_2 Co12 1_555 1_555
O27_2 Co13 1_555 1_555
O28_2 Co11 1_555 1_555
C29_2 H16_2 1_555 1_555
C30_2 C29_2 1_555 1_555
H17_2 C30_2 1_555 1_555
Co4 N16_2 1_555 1_555
H49_2 C86_2 1_555 1_555
C87_2 C86_2 1_555 1_555
H50_2 C87_2 1_555 1_555
Co7 O9 1_555 1_555
O29 Co4 1_555 1_555
O32 Co4 1_555 1_555
O35_2 Co4 1_555 1_555
O21 Co7 1_555 1_555
Co7 O35 1_555 1_555
Co7 N2_2 1_555 1_555
N25 C3_2 1_555 1_555
N2_2 C8_2 1_555 1_555
N3_2 C11_2 1_555 1_555
N4_2 C12_2 1_555 1_555
N30_2 C13_2 1_555 1_555
O3_2 Co7 1_555 1_555
C2_2 O3_2 1_555 1_555
C6_2 C2_2 1_555 1_555
C7_2 N25 1_555 1_555
H3_2 C7_2 1_555 1_555
C8_2 H4_2 1_555 1_555
C9_2 C8_2 1_555 1_555
H5_2 C9_2 1_555 1_555
C10_2 C9_2 1_555 1_555
C11_2 C10_2 1_555 1_555
C12_2 N3_2 1_555 1_555
C13_2 H6_2 1_555 1_555
C14_2 C13_2 1_555 1_555
H7_2 C14_2 1_555 1_555
C15_2 C12_2 1_555 1_555
C16_2 C15_2 1_555 1_555
H8_2 C16_2 1_555 1_555
C17_2 N30_2 1_555 1_555
H9_2 C17_2 1_555 1_555
N6_2 C11_2 1_555 1_555
N29 C21_2 1_555 1_555
C18_2 N2_2 1_555 1_555
H10_2 C18_2 1_555 1_555
C19_2 C10_2 1_555 1_555
H11_2 C19_2 1_555 1_555
C20_2 N4_2 1_555 1_555
C21_2 H12_2 1_555 1_555
C22_2 C21_2 1_555 1_555
H13_2 C22_2 1_555 1_555
C23_2 C20_2 1_555 1_555
C24_2 C23_2 1_555 1_555
H14_2 C24_2 1_555 1_555
C25_2 N29 1_555 1_555
H15_2 C25_2 1_555 1_555
N27_2 C28_2 1_555 1_555
N10_2 C36_2 1_555 1_555
N11_2 C37_2 1_555 1_555
O28_2 C26_2 1_555 1_555
C26_2 C28_2 1_555 1_555
C27_2 O8_2 1_555 1_555
C31_2 C27_2 1_555 1_555
C32_2 N27_2 1_555 1_555
H18_2 C32_2 1_555 1_555
C34_2 C33_2 1_555 1_555
H20_2 C34_2 1_555 1_555
C35_2 C34_2 1_555 1_555
C36_2 C35_2 1_555 1_555
C37_2 N10_2 1_555 1_555
C38_2 N30 1_555 1_555
H21_2 C38_2 1_555 1_555
C39_2 C38_2 1_555 1_555
H22_2 C39_2 1_555 1_555
C40_2 C37_2 1_555 1_555
C41_2 C40_2 1_555 1_555
H23_2 C41_2 1_555 1_555
C42_2 N30 1_555 1_555
H24_2 C42_2 1_555 1_555
N13_2 C36_2 1_555 1_555
N28_2 C46_2 1_555 1_555
C44_2 C35_2 1_555 1_555
H26_2 C44_2 1_555 1_555
C45_2 N11_2 1_555 1_555
C46_2 H27_2 1_555 1_555
C47_2 C46_2 1_555 1_555
H28_2 C47_2 1_555 1_555
C48_2 C45_2 1_555 1_555
C49_2 C48_2 1_555 1_555
H29_2 C49_2 1_555 1_555
C50_2 N28_2 1_555 1_555
H30_2 C50_2 1_555 1_555
N17_2 C61_2 1_555 1_555
N18_2 C62_2 1_555 1_555
N29_2 C63_2 1_555 1_555
O13 C52_2 1_555 1_555
C52_2 O12_2 1_555 1_555
C53_2 N27 1_555 1_555
C54_2 C53_2 1_555 1_555
H31_2 C54_2 1_555 1_555
C55_2 C54_2 1_555 1_555
H32_2 C55_2 1_555 1_555
C56_2 C52_2 1_555 1_555
C57_2 N27 1_555 1_555
H33_2 C57_2 1_555 1_555
C59_2 C58_2 1_555 1_555
H35_2 C59_2 1_555 1_555
C60_2 C59_2 1_555 1_555
C61_2 C60_2 1_555 1_555
C62_2 N17_2 1_555 1_555
C63_2 H36_2 1_555 1_555
C64_2 C63_2 1_555 1_555
H37_2 C64_2 1_555 1_555
C65_2 C62_2 1_555 1_555
C66_2 C65_2 1_555 1_555
H38_2 C66_2 1_555 1_555
C67_2 N29_2 1_555 1_555
H39_2 C67_2 1_555 1_555
N20_2 C61_2 1_555 1_555
N28 C71_2 1_555 1_555
C69_2 C60_2 1_555 1_555
H41_2 C69_2 1_555 1_555
C70_2 N18_2 1_555 1_555
C71_2 H42_2 1_555 1_555
C72_2 C71_2 1_555 1_555
H43_2 C72_2 1_555 1_555
C73_2 C70_2 1_555 1_555
C74_2 C73_2 1_555 1_555
H44_2 C74_2 1_555 1_555
C75_2 N28 1_555 1_555
H45_2 C75_2 1_555 1_555
N26_2 C78_2 1_555 1_555
O27_2 C76_2 1_555 1_555
O16_2 Co7 1_555 1_555
C76_2 C78_2 1_555 1_555
C77_2 O16_2 1_555 1_555
C81_2 C77_2 1_555 1_555
C82_2 N26_2 1_555 1_555
H48_2 C82_2 1_555 1_555
C84_2 O20_2 1_555 1_555
C85_2 N26 1_555 1_555
C88_2 C84_2 1_555 1_555
C89_2 N26 1_555 1_555
H51_2 C89_2 1_555 1_555
N25_2 C92_2 1_555 1_555
O26_2 C90_2 1_555 1_555
O23_2 C90_2 1_555 1_555
O25 C91_2 1_555 1_555
C90_2 C92_2 1_555 1_555
C91_2 O24_2 1_555 1_555
C92_2 C93_2 1_555 1_555
C93_2 H52_2 1_555 1_555
C94_2 C93_2 1_555 1_555
H53_2 C94_2 1_555 1_555
C95_2 C91_2 1_555 1_555
C96_2 N25_2 1_555 1_555
H54_2 C96_2 1_555 1_555
Co8 O13 1_555 1_555
C6_2 C7_2 1_555 1_555
C14_2 C15_2 1_555 1_555
C16_2 C17_2 1_555 1_555
N6_2 C20_2 1_555 1_555
C18_2 C19_2 1_555 1_555
C22_2 C23_2 1_555 1_555
C24_2 C25_2 1_555 1_555
C31_2 C32_2 1_555 1_555
C39_2 C40_2 1_555 1_555
C41_2 C42_2 1_555 1_555
N13_2 C45_2 1_555 1_555
C43_2 C44_2 1_555 1_555
C47_2 C48_2 1_555 1_555
C49_2 C50_2 1_555 1_555
C55_2 C56_2 1_555 1_555
C56_2 C57_2 1_555 1_555
C64_2 C65_2 1_555 1_555
C66_2 C67_2 1_555 1_555
N20_2 C70_2 1_555 1_555
C68_2 C69_2 1_555 1_555
C72_2 C73_2 1_555 1_555
C74_2 C75_2 1_555 1_555
C81_2 C82_2 1_555 1_555
C88_2 C89_2 1_555 1_555
O25 Co8 1_555 1_555
C94_2 C95_2 1_555 1_555
C95_2 C96_2 1_555 1_555
Co8 O35_4 1_555 1_555
C1_2 O26 1_555 1_555
O11_2 C51_2 1_555 1_555
C51_2 O28 1_555 1_555
C83_2 O27 1_555 1_555
H1_2 C4_2 1_555 1_555
C5_2 C4_2 1_555 1_555
H2_2 C5_2 1_555 1_555
Co8 N9_2 1_555 1_555
C79_2 H46_2 1_555 1_555
C80_2 C79_2 1_555 1_555
H47_2 C80_2 1_555 1_555

#END
