
###############################################################################
#
# This file contains modified crystal structure data generated from the
# MOF subset of the Cambridge Structural Database (CSD) v543 
# hosted by the Cambridge Crystallographic Data Centre (CCDC).
#
# This work is licensed under the Creative Commons
# Attribution-NonCommercial-ShareAlike 4.0 International License.
# To view a copy of this license, visit
# http://creativecommons.org/licenses/by-nc-sa/4.0/
# or send a letter to
# Creative Commons, PO Box 1866, Mountain View, CA 94042, USA.
#
# CIF created using the CSD Python API on 29 September 2022
# The structure has been converted into the P1 space group
# The structure has a 3D framework
# The original CSD entry NODTEH is in the cubic crystal system
# The framework has been calculated to contain at least 10.0% void space
# The void calculation uses a probe of radius 1.32A, grid spacing 0.4
# H atom positions have been added when not included in the experimental data
#
###############################################################################

data_NODTEH
_chemical_formula_moiety         '(C192 H96 O100 Zn24)n'
_symmetry_cell_setting           triclinic
_symmetry_space_group_name_H-M   'P 1'
_symmetry_Int_Tables_number      1
_space_group_name_Hall           'P 1'
loop_
_symmetry_equiv_pos_site_id
_symmetry_equiv_pos_as_xyz
1 x,y,z
_cell_length_a                   25.5553(18)
_cell_length_b                   25.5553(18)
_cell_length_c                   25.5553(18)
_cell_angle_alpha                90
_cell_angle_beta                 90
_cell_angle_gamma                90
_cell_volume                     16689.5
loop_
_atom_site_label
_atom_site_type_symbol
_atom_site_fract_x
_atom_site_fract_y
_atom_site_fract_z
O1 O 0.2500 0.2500 0.2500
O2 O 0.28179(15) 0.21821(15) 0.13431(19)
C1 C 0.2500 0.2500 0.1118(4)
C2 C 0.2500 0.2500 0.0541(3)
C3 C 0.2171(3) 0.2829(3) 0.0266(3)
Zn1 Zn 0.29350(2) 0.20650(2) 0.20650(2)
O3 O 0.21821(15) 0.28179(15) 0.13431(19)
C4 C 0.2829(3) 0.2171(3) 0.0266(3)
O6 O 0.13431(19) 0.28179(15) 0.21821(15)
C9 C 0.1118(4) 0.2500 0.2500
C10 C 0.0541(3) 0.2500 0.2500
C11 C 0.0266(3) 0.2171(3) 0.2829(3)
Zn2 Zn 0.20650(2) 0.29350(2) 0.20650(2)
O7 O 0.13431(19) 0.21821(15) 0.28179(15)
C12 C 0.0266(3) 0.2829(3) 0.2171(3)
O10 O 0.21821(15) 0.13431(19) 0.28179(15)
C17 C 0.2500 0.1118(4) 0.2500
C18 C 0.2500 0.0541(3) 0.2500
C19 C 0.2829(3) 0.0266(3) 0.2171(3)
Zn3 Zn 0.20650(2) 0.20650(2) 0.29350(2)
O11 O 0.28179(15) 0.13431(19) 0.21821(15)
C20 C 0.2171(3) 0.0266(3) 0.2829(3)
O16 O 0.21821(15) 0.36569(19) 0.21821(15)
O17 O 0.21821(15) 0.21821(15) 0.36569(19)
O19 O 0.36569(19) 0.21821(15) 0.21821(15)
Zn10 Zn 0.29350(2) 0.29350(2) 0.29350(2)
H1 H 0.190928 0.309072 0.047718
H2 H 0.309072 0.190928 0.047718
H3 H 0.047718 0.190928 0.309072
H5 H 0.190928 0.047718 0.309072
H7 H 0.309072 0.047718 0.190928
H11 H 0.047718 0.309072 0.190928
O4 O 0.28179(15) 0.21821(15) 0.86569(19)
C5 C 0.2500 0.2500 0.8882(4)
C6 C 0.2500 0.2500 0.9459(3)
C7 C 0.2171(3) 0.2829(3) 0.9734(3)
O5 O 0.21821(15) 0.28179(15) 0.86569(19)
C8 C 0.2829(3) 0.2171(3) 0.9734(3)
Zn4 Zn 0.29350(2) 0.20650(2) 0.79350(2)
O14 O 0.2500 0.2500 0.7500
O15 O 0.28179(15) 0.13431(19) 0.78179(15)
O18 O 0.36569(19) 0.21821(15) 0.78179(15)
Zn5 Zn 0.20650(2) 0.29350(2) 0.79350(2)
H4 H 0.190928 0.309072 0.952282
H12 H 0.309072 0.190928 0.952282
O12 O 0.21821(15) 0.86569(19) 0.28179(15)
C21 C 0.2500 0.8882(4) 0.2500
C22 C 0.2500 0.9459(3) 0.2500
C23 C 0.2829(3) 0.9734(3) 0.2171(3)
O13 O 0.28179(15) 0.86569(19) 0.21821(15)
C24 C 0.2171(3) 0.9734(3) 0.2829(3)
Zn7 Zn 0.29350(2) 0.79350(2) 0.20650(2)
Zn8 Zn 0.20650(2) 0.79350(2) 0.29350(2)
H6 H 0.309072 0.952282 0.190928
H8 H 0.190928 0.952282 0.309072
O8 O 0.86569(19) 0.28179(15) 0.21821(15)
C13 C 0.8882(4) 0.2500 0.2500
C14 C 0.9459(3) 0.2500 0.2500
C15 C 0.9734(3) 0.2171(3) 0.2829(3)
O9 O 0.86569(19) 0.21821(15) 0.28179(15)
C16 C 0.9734(3) 0.2829(3) 0.2171(3)
Zn6 Zn 0.79350(2) 0.29350(2) 0.20650(2)
Zn9 Zn 0.79350(2) 0.20650(2) 0.29350(2)
H9 H 0.952282 0.190928 0.309072
H10 H 0.952282 0.309072 0.190928
O8_2 O 0.13431(19) 0.71821(15) 0.21821(15)
C13_2 C 0.1118(4) 0.7500 0.2500
C14_2 C 0.0541(3) 0.7500 0.2500
C15_2 C 0.0266(3) 0.7829(3) 0.2829(3)
O9_2 O 0.13431(19) 0.78179(15) 0.28179(15)
C16_2 C 0.0266(3) 0.7171(3) 0.2171(3)
Zn6_2 Zn 0.20650(2) 0.70650(2) 0.20650(2)
H9_2 H 0.047718 0.809072 0.309072
H10_2 H 0.047718 0.690928 0.190928
O12_2 O 0.78179(15) 0.13431(19) 0.28179(15)
C21_2 C 0.7500 0.1118(4) 0.2500
C22_2 C 0.7500 0.0541(3) 0.2500
C23_2 C 0.7171(3) 0.0266(3) 0.2171(3)
O13_2 O 0.71821(15) 0.13431(19) 0.21821(15)
C24_2 C 0.7829(3) 0.0266(3) 0.2829(3)
Zn7_2 Zn 0.70650(2) 0.20650(2) 0.20650(2)
H6_2 H 0.690928 0.047718 0.190928
H8_2 H 0.809072 0.047718 0.309072
O1_2 O 0.7500 0.7500 0.2500
O2_2 O 0.71821(15) 0.78179(15) 0.13431(19)
C1_2 C 0.7500 0.7500 0.1118(4)
C2_2 C 0.7500 0.7500 0.0541(3)
C3_2 C 0.7829(3) 0.7171(3) 0.0266(3)
Zn1_2 Zn 0.70650(2) 0.79350(2) 0.20650(2)
O3_2 O 0.78179(15) 0.71821(15) 0.13431(19)
C4_2 C 0.7171(3) 0.7829(3) 0.0266(3)
O6_2 O 0.86569(19) 0.71821(15) 0.21821(15)
C9_2 C 0.8882(4) 0.7500 0.2500
C10_2 C 0.9459(3) 0.7500 0.2500
C11_2 C 0.9734(3) 0.7829(3) 0.2829(3)
Zn2_2 Zn 0.79350(2) 0.70650(2) 0.20650(2)
O7_2 O 0.86569(19) 0.78179(15) 0.28179(15)
C12_2 C 0.9734(3) 0.7171(3) 0.2171(3)
O10_2 O 0.78179(15) 0.86569(19) 0.28179(15)
C17_2 C 0.7500 0.8882(4) 0.2500
C18_2 C 0.7500 0.9459(3) 0.2500
C19_2 C 0.7171(3) 0.9734(3) 0.2171(3)
Zn3_2 Zn 0.79350(2) 0.79350(2) 0.29350(2)
O11_2 O 0.71821(15) 0.86569(19) 0.21821(15)
C20_2 C 0.7829(3) 0.9734(3) 0.2829(3)
O16_2 O 0.78179(15) 0.63431(19) 0.21821(15)
O17_2 O 0.78179(15) 0.78179(15) 0.36569(19)
O19_2 O 0.63431(19) 0.78179(15) 0.21821(15)
Zn10_2 Zn 0.70650(2) 0.70650(2) 0.29350(2)
H1_2 H 0.809072 0.690928 0.047718
H2_2 H 0.690928 0.809072 0.047718
H3_2 H 0.952282 0.809072 0.309072
H5_2 H 0.809072 0.952282 0.309072
H7_2 H 0.690928 0.952282 0.190928
H11_2 H 0.952282 0.690928 0.190928
O4_2 O 0.71821(15) 0.78179(15) 0.86569(19)
C5_2 C 0.7500 0.7500 0.8882(4)
C6_2 C 0.7500 0.7500 0.9459(3)
C7_2 C 0.7829(3) 0.7171(3) 0.9734(3)
O5_2 O 0.78179(15) 0.71821(15) 0.86569(19)
C8_2 C 0.7171(3) 0.7829(3) 0.9734(3)
Zn4_2 Zn 0.70650(2) 0.79350(2) 0.79350(2)
O14_2 O 0.7500 0.7500 0.7500
O15_2 O 0.71821(15) 0.86569(19) 0.78179(15)
O18_2 O 0.63431(19) 0.78179(15) 0.78179(15)
Zn5_2 Zn 0.79350(2) 0.70650(2) 0.79350(2)
H4_2 H 0.809072 0.690928 0.952282
H12_2 H 0.690928 0.809072 0.952282
O8_3 O 0.13431(19) 0.28179(15) 0.78179(15)
C13_3 C 0.1118(4) 0.2500 0.7500
C14_3 C 0.0541(3) 0.2500 0.7500
C15_3 C 0.0266(3) 0.2171(3) 0.7171(3)
O9_3 O 0.13431(19) 0.21821(15) 0.71821(15)
C16_3 C 0.0266(3) 0.2829(3) 0.7829(3)
Zn9_2 Zn 0.20650(2) 0.20650(2) 0.70650(2)
H9_3 H 0.047718 0.190928 0.690928
H10_3 H 0.047718 0.309072 0.809072
O4_3 O 0.71821(15) 0.21821(15) 0.13431(19)
C5_3 C 0.7500 0.2500 0.1118(4)
C6_3 C 0.7500 0.2500 0.0541(3)
C7_3 C 0.7829(3) 0.2829(3) 0.0266(3)
O5_3 O 0.78179(15) 0.28179(15) 0.13431(19)
C8_3 C 0.7171(3) 0.2171(3) 0.0266(3)
O14_3 O 0.7500 0.2500 0.2500
O18_3 O 0.63431(19) 0.21821(15) 0.21821(15)
H4_3 H 0.809072 0.309072 0.047718
H12_3 H 0.690928 0.190928 0.047718
O1_3 O 0.7500 0.2500 0.7500
O2_3 O 0.71821(15) 0.21821(15) 0.86569(19)
C1_3 C 0.7500 0.2500 0.8882(4)
C2_3 C 0.7500 0.2500 0.9459(3)
C3_3 C 0.7829(3) 0.2829(3) 0.9734(3)
Zn1_3 Zn 0.70650(2) 0.20650(2) 0.79350(2)
O3_3 O 0.78179(15) 0.28179(15) 0.86569(19)
C4_3 C 0.7171(3) 0.2171(3) 0.9734(3)
O6_3 O 0.86569(19) 0.28179(15) 0.78179(15)
C9_3 C 0.8882(4) 0.2500 0.7500
C10_3 C 0.9459(3) 0.2500 0.7500
C11_3 C 0.9734(3) 0.2171(3) 0.7171(3)
Zn2_3 Zn 0.79350(2) 0.29350(2) 0.79350(2)
O7_3 O 0.86569(19) 0.21821(15) 0.71821(15)
C12_3 C 0.9734(3) 0.2829(3) 0.7829(3)
O10_3 O 0.78179(15) 0.13431(19) 0.71821(15)
C17_3 C 0.7500 0.1118(4) 0.7500
C18_3 C 0.7500 0.0541(3) 0.7500
C19_3 C 0.7171(3) 0.0266(3) 0.7829(3)
Zn3_3 Zn 0.79350(2) 0.20650(2) 0.70650(2)
O11_3 O 0.71821(15) 0.13431(19) 0.78179(15)
C20_3 C 0.7829(3) 0.0266(3) 0.7171(3)
O16_3 O 0.78179(15) 0.36569(19) 0.78179(15)
O17_3 O 0.78179(15) 0.21821(15) 0.63431(19)
O19_3 O 0.63431(19) 0.21821(15) 0.78179(15)
Zn10_3 Zn 0.70650(2) 0.29350(2) 0.70650(2)
H1_3 H 0.809072 0.309072 0.952282
H2_3 H 0.690928 0.190928 0.952282
H3_3 H 0.952282 0.190928 0.690928
H5_3 H 0.809072 0.047718 0.690928
H7_3 H 0.690928 0.047718 0.809072
H11_3 H 0.952282 0.309072 0.809072
O12_3 O 0.78179(15) 0.86569(19) 0.71821(15)
C21_3 C 0.7500 0.8882(4) 0.7500
C22_3 C 0.7500 0.9459(3) 0.7500
C23_3 C 0.7171(3) 0.9734(3) 0.7829(3)
C24_3 C 0.7829(3) 0.9734(3) 0.7171(3)
Zn8_2 Zn 0.79350(2) 0.79350(2) 0.70650(2)
H6_3 H 0.690928 0.952282 0.809072
H8_3 H 0.809072 0.952282 0.690928
O12_4 O 0.21821(15) 0.13431(19) 0.71821(15)
C21_4 C 0.2500 0.1118(4) 0.7500
C22_4 C 0.2500 0.0541(3) 0.7500
C23_4 C 0.2829(3) 0.0266(3) 0.7829(3)
C24_4 C 0.2171(3) 0.0266(3) 0.7171(3)
H6_4 H 0.309072 0.047718 0.809072
H8_4 H 0.190928 0.047718 0.690928
O4_4 O 0.28179(15) 0.78179(15) 0.13431(19)
C5_4 C 0.2500 0.7500 0.1118(4)
C6_4 C 0.2500 0.7500 0.0541(3)
C7_4 C 0.2171(3) 0.7171(3) 0.0266(3)
O5_4 O 0.21821(15) 0.71821(15) 0.13431(19)
C8_4 C 0.2829(3) 0.7829(3) 0.0266(3)
O14_4 O 0.2500 0.7500 0.2500
O18_4 O 0.36569(19) 0.78179(15) 0.21821(15)
H4_4 H 0.190928 0.690928 0.047718
H12_4 H 0.309072 0.809072 0.047718
O1_4 O 0.2500 0.7500 0.7500
O2_4 O 0.28179(15) 0.78179(15) 0.86569(19)
C1_4 C 0.2500 0.7500 0.8882(4)
C2_4 C 0.2500 0.7500 0.9459(3)
C3_4 C 0.2171(3) 0.7171(3) 0.9734(3)
Zn1_4 Zn 0.29350(2) 0.79350(2) 0.79350(2)
O3_4 O 0.21821(15) 0.71821(15) 0.86569(19)
C4_4 C 0.2829(3) 0.7829(3) 0.9734(3)
O6_4 O 0.13431(19) 0.71821(15) 0.78179(15)
C9_4 C 0.1118(4) 0.7500 0.7500
C10_4 C 0.0541(3) 0.7500 0.7500
C11_4 C 0.0266(3) 0.7829(3) 0.7171(3)
Zn2_4 Zn 0.20650(2) 0.70650(2) 0.79350(2)
O7_4 O 0.13431(19) 0.78179(15) 0.71821(15)
C12_4 C 0.0266(3) 0.7171(3) 0.7829(3)
O10_4 O 0.21821(15) 0.86569(19) 0.71821(15)
C17_4 C 0.2500 0.8882(4) 0.7500
C18_4 C 0.2500 0.9459(3) 0.7500
C19_4 C 0.2829(3) 0.9734(3) 0.7829(3)
Zn3_4 Zn 0.20650(2) 0.79350(2) 0.70650(2)
O11_4 O 0.28179(15) 0.86569(19) 0.78179(15)
C20_4 C 0.2171(3) 0.9734(3) 0.7171(3)
O16_4 O 0.21821(15) 0.63431(19) 0.78179(15)
O17_4 O 0.21821(15) 0.78179(15) 0.63431(19)
O19_4 O 0.36569(19) 0.78179(15) 0.78179(15)
Zn10_4 Zn 0.29350(2) 0.70650(2) 0.70650(2)
H1_4 H 0.190928 0.690928 0.952282
H2_4 H 0.309072 0.809072 0.952282
H3_4 H 0.047718 0.809072 0.690928
H5_4 H 0.190928 0.952282 0.690928
H7_4 H 0.309072 0.952282 0.809072
H11_4 H 0.047718 0.690928 0.809072
O8_4 O 0.86569(19) 0.71821(15) 0.78179(15)
C13_4 C 0.8882(4) 0.7500 0.7500
C14_4 C 0.9459(3) 0.7500 0.7500
C15_4 C 0.9734(3) 0.7829(3) 0.7171(3)
O9_4 O 0.86569(19) 0.78179(15) 0.71821(15)
C16_4 C 0.9734(3) 0.7171(3) 0.7829(3)
H9_4 H 0.952282 0.809072 0.690928
H10_4 H 0.952282 0.690928 0.809072
O18_5 O 0.78179(15) 0.36569(19) 0.21821(15)
O18_6 O 0.78179(15) 0.63431(19) 0.78179(15)
O18_7 O 0.21821(15) 0.63431(19) 0.21821(15)
O18_8 O 0.21821(15) 0.36569(19) 0.78179(15)
O18_9 O 0.21821(15) 0.78179(15) 0.36569(19)
O18_10 O 0.78179(15) 0.78179(15) 0.63431(19)
O18_11 O 0.21821(15) 0.21821(15) 0.63431(19)
O18_12 O 0.78179(15) 0.21821(15) 0.36569(19)
Zn10_5 Zn 0.29350(2) 0.29350(2) 0.70650(2)
Zn10_6 Zn 0.70650(2) 0.70650(2) 0.70650(2)
Zn10_7 Zn 0.29350(2) 0.70650(2) 0.29350(2)
Zn10_8 Zn 0.70650(2) 0.29350(2) 0.29350(2)
O2_5 O 0.28179(15) 0.71821(15) 0.63431(19)
C1_5 C 0.2500 0.7500 0.6118(4)
C2_5 C 0.2500 0.7500 0.5541(3)
C3_5 C 0.2171(3) 0.7829(3) 0.5266(3)
C4_5 C 0.2829(3) 0.7171(3) 0.5266(3)
O4_5 O 0.28179(15) 0.71821(15) 0.36569(19)
C5_5 C 0.2500 0.7500 0.3882(4)
C6_5 C 0.2500 0.7500 0.4459(3)
C7_5 C 0.2171(3) 0.7829(3) 0.4734(3)
C8_5 C 0.2829(3) 0.7171(3) 0.4734(3)
C17_5 C 0.2500 0.6118(4) 0.7500
C18_5 C 0.2500 0.5541(3) 0.7500
C19_5 C 0.2829(3) 0.5266(3) 0.7171(3)
O11_5 O 0.28179(15) 0.63431(19) 0.71821(15)
C20_5 C 0.2171(3) 0.5266(3) 0.7829(3)
C21_5 C 0.2500 0.3882(4) 0.7500
C22_5 C 0.2500 0.4459(3) 0.7500
C23_5 C 0.2829(3) 0.4734(3) 0.7171(3)
O13_3 O 0.28179(15) 0.36569(19) 0.71821(15)
C24_5 C 0.2171(3) 0.4734(3) 0.7829(3)
O15_3 O 0.28179(15) 0.63431(19) 0.28179(15)
O18_13 O 0.36569(19) 0.71821(15) 0.28179(15)
O19_5 O 0.36569(19) 0.71821(15) 0.71821(15)
H1_5 H 0.190928 0.809072 0.547718
H2_5 H 0.309072 0.690928 0.547718
H4_5 H 0.190928 0.809072 0.452282
H5_5 H 0.190928 0.547718 0.809072
H6_5 H 0.309072 0.452282 0.690928
H7_5 H 0.309072 0.547718 0.690928
H8_5 H 0.190928 0.452282 0.809072
H12_5 H 0.309072 0.690928 0.452282
O2_6 O 0.71821(15) 0.28179(15) 0.63431(19)
C1_6 C 0.7500 0.2500 0.6118(4)
C2_6 C 0.7500 0.2500 0.5541(3)
C3_6 C 0.7829(3) 0.2171(3) 0.5266(3)
C4_6 C 0.7171(3) 0.2829(3) 0.5266(3)
O4_6 O 0.71821(15) 0.28179(15) 0.36569(19)
C5_6 C 0.7500 0.2500 0.3882(4)
C6_6 C 0.7500 0.2500 0.4459(3)
C7_6 C 0.7829(3) 0.2171(3) 0.4734(3)
C8_6 C 0.7171(3) 0.2829(3) 0.4734(3)
C17_6 C 0.7500 0.3882(4) 0.7500
C18_6 C 0.7500 0.4459(3) 0.7500
C19_6 C 0.7171(3) 0.4734(3) 0.7171(3)
O11_6 O 0.71821(15) 0.36569(19) 0.71821(15)
C20_6 C 0.7829(3) 0.4734(3) 0.7829(3)
C21_6 C 0.7500 0.6118(4) 0.7500
C22_6 C 0.7500 0.5541(3) 0.7500
C23_6 C 0.7171(3) 0.5266(3) 0.7171(3)
O13_4 O 0.71821(15) 0.63431(19) 0.71821(15)
C24_6 C 0.7829(3) 0.5266(3) 0.7829(3)
O15_4 O 0.71821(15) 0.36569(19) 0.28179(15)
O18_14 O 0.63431(19) 0.28179(15) 0.28179(15)
O19_6 O 0.63431(19) 0.28179(15) 0.71821(15)
H1_6 H 0.809072 0.190928 0.547718
H2_6 H 0.690928 0.309072 0.547718
H4_6 H 0.809072 0.190928 0.452282
H5_6 H 0.809072 0.452282 0.809072
H6_6 H 0.690928 0.547718 0.690928
H7_6 H 0.690928 0.452282 0.690928
H8_6 H 0.809072 0.547718 0.809072
H12_6 H 0.690928 0.309072 0.452282
O2_7 O 0.71821(15) 0.71821(15) 0.36569(19)
C1_7 C 0.7500 0.7500 0.3882(4)
C2_7 C 0.7500 0.7500 0.4459(3)
C3_7 C 0.7829(3) 0.7829(3) 0.4734(3)
C4_7 C 0.7171(3) 0.7171(3) 0.4734(3)
O4_7 O 0.71821(15) 0.71821(15) 0.63431(19)
C5_7 C 0.7500 0.7500 0.6118(4)
C6_7 C 0.7500 0.7500 0.5541(3)
C7_7 C 0.7829(3) 0.7829(3) 0.5266(3)
C8_7 C 0.7171(3) 0.7171(3) 0.5266(3)
C17_7 C 0.7500 0.6118(4) 0.2500
C18_7 C 0.7500 0.5541(3) 0.2500
C19_7 C 0.7171(3) 0.5266(3) 0.2829(3)
O11_7 O 0.71821(15) 0.63431(19) 0.28179(15)
C20_7 C 0.7829(3) 0.5266(3) 0.2171(3)
C21_7 C 0.7500 0.3882(4) 0.2500
C22_7 C 0.7500 0.4459(3) 0.2500
C23_7 C 0.7171(3) 0.4734(3) 0.2829(3)
C24_7 C 0.7829(3) 0.4734(3) 0.2171(3)
O18_15 O 0.63431(19) 0.71821(15) 0.71821(15)
O19_7 O 0.63431(19) 0.71821(15) 0.28179(15)
H1_7 H 0.809072 0.809072 0.452282
H2_7 H 0.690928 0.690928 0.452282
H4_7 H 0.809072 0.809072 0.547718
H5_7 H 0.809072 0.547718 0.190928
H6_7 H 0.690928 0.452282 0.309072
H7_7 H 0.690928 0.547718 0.309072
H8_7 H 0.809072 0.452282 0.190928
H12_7 H 0.690928 0.690928 0.547718
O2_8 O 0.28179(15) 0.28179(15) 0.36569(19)
C1_8 C 0.2500 0.2500 0.3882(4)
C2_8 C 0.2500 0.2500 0.4459(3)
C3_8 C 0.2171(3) 0.2171(3) 0.4734(3)
C4_8 C 0.2829(3) 0.2829(3) 0.4734(3)
O4_8 O 0.28179(15) 0.28179(15) 0.63431(19)
C5_8 C 0.2500 0.2500 0.6118(4)
C6_8 C 0.2500 0.2500 0.5541(3)
C7_8 C 0.2171(3) 0.2171(3) 0.5266(3)
C8_8 C 0.2829(3) 0.2829(3) 0.5266(3)
C17_8 C 0.2500 0.3882(4) 0.2500
C18_8 C 0.2500 0.4459(3) 0.2500
C19_8 C 0.2829(3) 0.4734(3) 0.2829(3)
O11_8 O 0.28179(15) 0.36569(19) 0.28179(15)
C20_8 C 0.2171(3) 0.4734(3) 0.2171(3)
C21_8 C 0.2500 0.6118(4) 0.2500
C22_8 C 0.2500 0.5541(3) 0.2500
C23_8 C 0.2829(3) 0.5266(3) 0.2829(3)
C24_8 C 0.2171(3) 0.5266(3) 0.2171(3)
O18_16 O 0.36569(19) 0.28179(15) 0.71821(15)
O19_8 O 0.36569(19) 0.28179(15) 0.28179(15)
H1_8 H 0.190928 0.190928 0.452282
H2_8 H 0.309072 0.309072 0.452282
H4_8 H 0.190928 0.190928 0.547718
H5_8 H 0.190928 0.452282 0.190928
H6_8 H 0.309072 0.547718 0.309072
H7_8 H 0.309072 0.452282 0.309072
H8_8 H 0.190928 0.547718 0.190928
H12_8 H 0.309072 0.309072 0.547718
C9_5 C 0.6118(4) 0.2500 0.7500
C10_5 C 0.5541(3) 0.2500 0.7500
C11_5 C 0.5266(3) 0.2171(3) 0.7829(3)
C12_5 C 0.5266(3) 0.2829(3) 0.7171(3)
C13_5 C 0.3882(4) 0.2500 0.7500
C14_5 C 0.4459(3) 0.2500 0.7500
C15_5 C 0.4734(3) 0.2171(3) 0.7829(3)
C16_5 C 0.4734(3) 0.2829(3) 0.7171(3)
H3_5 H 0.547718 0.190928 0.809072
H9_5 H 0.452282 0.190928 0.809072
H10_5 H 0.452282 0.309072 0.690928
H11_5 H 0.547718 0.309072 0.690928
C9_6 C 0.3882(4) 0.7500 0.7500
C10_6 C 0.4459(3) 0.7500 0.7500
C11_6 C 0.4734(3) 0.7829(3) 0.7829(3)
C12_6 C 0.4734(3) 0.7171(3) 0.7171(3)
C13_6 C 0.6118(4) 0.7500 0.7500
C14_6 C 0.5541(3) 0.7500 0.7500
C15_6 C 0.5266(3) 0.7829(3) 0.7829(3)
C16_6 C 0.5266(3) 0.7171(3) 0.7171(3)
H3_6 H 0.452282 0.809072 0.809072
H9_6 H 0.547718 0.809072 0.809072
H10_6 H 0.547718 0.690928 0.690928
H11_6 H 0.452282 0.690928 0.690928
C9_7 C 0.3882(4) 0.2500 0.2500
C10_7 C 0.4459(3) 0.2500 0.2500
C11_7 C 0.4734(3) 0.2171(3) 0.2171(3)
C12_7 C 0.4734(3) 0.2829(3) 0.2829(3)
C13_7 C 0.6118(4) 0.2500 0.2500
C14_7 C 0.5541(3) 0.2500 0.2500
C15_7 C 0.5266(3) 0.2171(3) 0.2171(3)
C16_7 C 0.5266(3) 0.2829(3) 0.2829(3)
H3_7 H 0.452282 0.190928 0.190928
H9_7 H 0.547718 0.190928 0.190928
H10_7 H 0.547718 0.309072 0.309072
H11_7 H 0.452282 0.309072 0.309072
C9_8 C 0.6118(4) 0.7500 0.2500
C10_8 C 0.5541(3) 0.7500 0.2500
C11_8 C 0.5266(3) 0.7829(3) 0.2171(3)
C12_8 C 0.5266(3) 0.7171(3) 0.2829(3)
C13_8 C 0.3882(4) 0.7500 0.2500
C14_8 C 0.4459(3) 0.7500 0.2500
C15_8 C 0.4734(3) 0.7829(3) 0.2171(3)
C16_8 C 0.4734(3) 0.7171(3) 0.2829(3)
H3_8 H 0.547718 0.809072 0.190928
H9_8 H 0.452282 0.809072 0.190928
H10_8 H 0.452282 0.690928 0.309072
H11_8 H 0.547718 0.690928 0.309072
loop_
_geom_bond_atom_site_label_1
_geom_bond_atom_site_label_2
_geom_bond_site_symmetry_1
_geom_bond_site_symmetry_2
O1 Zn1 1_555 1_555
O2 C1 1_555 1_555
C1 C2 1_555 1_555
C2 C3 1_555 1_555
Zn1 O2 1_555 1_555
O3 C1 1_555 1_555
C4 C2 1_555 1_555
O6 C9 1_555 1_555
C9 C10 1_555 1_555
C10 C11 1_555 1_555
Zn2 O1 1_555 1_555
O7 C9 1_555 1_555
C12 C10 1_555 1_555
O10 C17 1_555 1_555
C17 C18 1_555 1_555
C18 C19 1_555 1_555
Zn3 O1 1_555 1_555
O11 Zn1 1_555 1_555
C20 C18 1_555 1_555
O16 Zn2 1_555 1_555
O17 Zn3 1_555 1_555
O19 Zn1 1_555 1_555
Zn10 O1 1_555 1_555
O3 Zn2 1_555 1_555
O6 Zn2 1_555 1_555
O7 Zn3 1_555 1_555
O10 Zn3 1_555 1_555
C17 O11 1_555 1_555
C3 H1 1_555 1_555
C4 H2 1_555 1_555
C11 H3 1_555 1_555
C20 H5 1_555 1_555
C19 H7 1_555 1_555
C12 H11 1_555 1_555
O4 C5 1_555 1_555
C5 C6 1_555 1_555
C6 C7 1_555 1_555
O5 C5 1_555 1_555
Zn4 O4 1_555 1_555
O14 Zn4 1_555 1_555
O15 Zn4 1_555 1_555
O18 Zn4 1_555 1_555
Zn5 O5 1_555 1_555
C6 C8 1_555 1_555
O14 Zn5 1_555 1_555
C7 H4 1_555 1_555
C8 H12 1_555 1_555
O12 C21 1_555 1_555
C21 C22 1_555 1_555
C22 C23 1_555 1_555
O13 C21 1_555 1_555
Zn7 O13 1_555 1_555
Zn8 O12 1_555 1_555
C22 C24 1_555 1_555
C23 H6 1_555 1_555
C24 H8 1_555 1_555
O8 C13 1_555 1_555
C13 C14 1_555 1_555
C14 C15 1_555 1_555
O9 C13 1_555 1_555
Zn6 O8 1_555 1_555
Zn9 O9 1_555 1_555
C14 C16 1_555 1_555
C15 H9 1_555 1_555
C16 H10 1_555 1_555
O8_2 C13_2 1_555 1_555
C13_2 C14_2 1_555 1_555
C14_2 C15_2 1_555 1_555
O9_2 C13_2 1_555 1_555
Zn6_2 O8_2 1_555 1_555
Zn8 O9_2 1_555 1_555
C14_2 C16_2 1_555 1_555
C15_2 H9_2 1_555 1_555
C16_2 H10_2 1_555 1_555
O12_2 C21_2 1_555 1_555
C21_2 C22_2 1_555 1_555
C22_2 C23_2 1_555 1_555
O13_2 C21_2 1_555 1_555
Zn7_2 O13_2 1_555 1_555
Zn9 O12_2 1_555 1_555
C22_2 C24_2 1_555 1_555
C23_2 H6_2 1_555 1_555
C24_2 H8_2 1_555 1_555
O1_2 Zn1_2 1_555 1_555
O2_2 C1_2 1_555 1_555
C1_2 C2_2 1_555 1_555
C2_2 C3_2 1_555 1_555
Zn1_2 O2_2 1_555 1_555
O3_2 C1_2 1_555 1_555
C4_2 C2_2 1_555 1_555
O6_2 C9_2 1_555 1_555
C9_2 C10_2 1_555 1_555
C10_2 C11_2 1_555 1_555
Zn2_2 O1_2 1_555 1_555
O7_2 C9_2 1_555 1_555
C12_2 C10_2 1_555 1_555
O10_2 C17_2 1_555 1_555
C17_2 C18_2 1_555 1_555
C18_2 C19_2 1_555 1_555
Zn3_2 O1_2 1_555 1_555
O11_2 Zn1_2 1_555 1_555
C20_2 C18_2 1_555 1_555
O16_2 Zn2_2 1_555 1_555
O17_2 Zn3_2 1_555 1_555
O19_2 Zn1_2 1_555 1_555
Zn10_2 O1_2 1_555 1_555
O3_2 Zn2_2 1_555 1_555
O6_2 Zn2_2 1_555 1_555
O7_2 Zn3_2 1_555 1_555
O10_2 Zn3_2 1_555 1_555
C17_2 O11_2 1_555 1_555
C3_2 H1_2 1_555 1_555
C4_2 H2_2 1_555 1_555
C11_2 H3_2 1_555 1_555
C20_2 H5_2 1_555 1_555
C19_2 H7_2 1_555 1_555
C12_2 H11_2 1_555 1_555
O4_2 C5_2 1_555 1_555
C5_2 C6_2 1_555 1_555
C6_2 C7_2 1_555 1_555
O5_2 C5_2 1_555 1_555
Zn4_2 O4_2 1_555 1_555
O14_2 Zn4_2 1_555 1_555
O15_2 Zn4_2 1_555 1_555
O18_2 Zn4_2 1_555 1_555
Zn5_2 O5_2 1_555 1_555
C6_2 C8_2 1_555 1_555
O14_2 Zn5_2 1_555 1_555
C7_2 H4_2 1_555 1_555
C8_2 H12_2 1_555 1_555
O8_3 C13_3 1_555 1_555
C13_3 C14_3 1_555 1_555
C14_3 C15_3 1_555 1_555
O9_3 C13_3 1_555 1_555
Zn5 O8_3 1_555 1_555
Zn9_2 O9_3 1_555 1_555
C14_3 C16_3 1_555 1_555
C15_3 H9_3 1_555 1_555
C16_3 H10_3 1_555 1_555
O4_3 C5_3 1_555 1_555
C5_3 C6_3 1_555 1_555
C6_3 C7_3 1_555 1_555
O5_3 C5_3 1_555 1_555
Zn7_2 O4_3 1_555 1_555
O14_3 Zn7_2 1_555 1_555
O18_3 Zn7_2 1_555 1_555
Zn6 O5_3 1_555 1_555
C6_3 C8_3 1_555 1_555
O14_3 Zn6 1_555 1_555
C7_3 H4_3 1_555 1_555
C8_3 H12_3 1_555 1_555
O1_3 Zn1_3 1_555 1_555
O2_3 C1_3 1_555 1_555
C1_3 C2_3 1_555 1_555
C2_3 C3_3 1_555 1_555
Zn1_3 O2_3 1_555 1_555
O3_3 C1_3 1_555 1_555
C4_3 C2_3 1_555 1_555
O6_3 C9_3 1_555 1_555
C9_3 C10_3 1_555 1_555
C10_3 C11_3 1_555 1_555
Zn2_3 O1_3 1_555 1_555
O7_3 C9_3 1_555 1_555
C12_3 C10_3 1_555 1_555
O10_3 C17_3 1_555 1_555
C17_3 C18_3 1_555 1_555
C18_3 C19_3 1_555 1_555
Zn3_3 O1_3 1_555 1_555
O11_3 Zn1_3 1_555 1_555
C20_3 C18_3 1_555 1_555
O16_3 Zn2_3 1_555 1_555
O17_3 Zn3_3 1_555 1_555
O19_3 Zn1_3 1_555 1_555
Zn10_3 O1_3 1_555 1_555
O3_3 Zn2_3 1_555 1_555
O6_3 Zn2_3 1_555 1_555
O7_3 Zn3_3 1_555 1_555
O10_3 Zn3_3 1_555 1_555
C17_3 O11_3 1_555 1_555
C3_3 H1_3 1_555 1_555
C4_3 H2_3 1_555 1_555
C11_3 H3_3 1_555 1_555
C20_3 H5_3 1_555 1_555
C19_3 H7_3 1_555 1_555
C12_3 H11_3 1_555 1_555
O12_3 C21_3 1_555 1_555
C21_3 C22_3 1_555 1_555
C22_3 C23_3 1_555 1_555
O15_2 C21_3 1_555 1_555
Zn8_2 O12_3 1_555 1_555
C22_3 C24_3 1_555 1_555
C23_3 H6_3 1_555 1_555
C24_3 H8_3 1_555 1_555
O12_4 C21_4 1_555 1_555
C21_4 C22_4 1_555 1_555
C22_4 C23_4 1_555 1_555
O15 C21_4 1_555 1_555
Zn9_2 O12_4 1_555 1_555
C22_4 C24_4 1_555 1_555
C23_4 H6_4 1_555 1_555
C24_4 H8_4 1_555 1_555
O4_4 C5_4 1_555 1_555
C5_4 C6_4 1_555 1_555
C6_4 C7_4 1_555 1_555
O5_4 C5_4 1_555 1_555
Zn7 O4_4 1_555 1_555
O14_4 Zn7 1_555 1_555
O18_4 Zn7 1_555 1_555
Zn6_2 O5_4 1_555 1_555
C6_4 C8_4 1_555 1_555
O14_4 Zn6_2 1_555 1_555
C7_4 H4_4 1_555 1_555
C8_4 H12_4 1_555 1_555
O1_4 Zn1_4 1_555 1_555
O2_4 C1_4 1_555 1_555
C1_4 C2_4 1_555 1_555
C2_4 C3_4 1_555 1_555
Zn1_4 O2_4 1_555 1_555
O3_4 C1_4 1_555 1_555
C4_4 C2_4 1_555 1_555
O6_4 C9_4 1_555 1_555
C9_4 C10_4 1_555 1_555
C10_4 C11_4 1_555 1_555
Zn2_4 O1_4 1_555 1_555
O7_4 C9_4 1_555 1_555
C12_4 C10_4 1_555 1_555
O10_4 C17_4 1_555 1_555
C17_4 C18_4 1_555 1_555
C18_4 C19_4 1_555 1_555
Zn3_4 O1_4 1_555 1_555
O11_4 Zn1_4 1_555 1_555
C20_4 C18_4 1_555 1_555
O16_4 Zn2_4 1_555 1_555
O17_4 Zn3_4 1_555 1_555
O19_4 Zn1_4 1_555 1_555
Zn10_4 O1_4 1_555 1_555
O3_4 Zn2_4 1_555 1_555
O6_4 Zn2_4 1_555 1_555
O7_4 Zn3_4 1_555 1_555
O10_4 Zn3_4 1_555 1_555
C17_4 O11_4 1_555 1_555
C3_4 H1_4 1_555 1_555
C4_4 H2_4 1_555 1_555
C11_4 H3_4 1_555 1_555
C20_4 H5_4 1_555 1_555
C19_4 H7_4 1_555 1_555
C12_4 H11_4 1_555 1_555
O8_4 C13_4 1_555 1_555
C13_4 C14_4 1_555 1_555
C14_4 C15_4 1_555 1_555
O9_4 C13_4 1_555 1_555
Zn5_2 O8_4 1_555 1_555
Zn8_2 O9_4 1_555 1_555
C14_4 C16_4 1_555 1_555
C15_4 H9_4 1_555 1_555
C16_4 H10_4 1_555 1_555
O18_5 Zn6 1_555 1_555
O14_3 Zn9 1_555 1_555
O18_6 Zn5_2 1_555 1_555
O14_2 Zn8_2 1_555 1_555
O18_7 Zn6_2 1_555 1_555
O14_4 Zn8 1_555 1_555
O18_8 Zn5 1_555 1_555
O14 Zn9_2 1_555 1_555
O18_9 Zn8 1_555 1_555
O18_10 Zn8_2 1_555 1_555
O18_11 Zn9_2 1_555 1_555
O18_12 Zn9 1_555 1_555
Zn10_5 O14 1_555 1_555
Zn10_6 O14_2 1_555 1_555
Zn10_7 O14_4 1_555 1_555
Zn10_8 O14_3 1_555 1_555
O2_5 C1_5 1_555 1_555
C1_5 C2_5 1_555 1_555
C2_5 C3_5 1_555 1_555
C3_5 C7_5 1_555 1_555
Zn10_4 O2_5 1_555 1_555
O17_4 C1_5 1_555 1_555
C4_5 C2_5 1_555 1_555
O4_5 C5_5 1_555 1_555
C5_5 C6_5 1_555 1_555
C6_5 C7_5 1_555 1_555
O18_9 C5_5 1_555 1_555
C8_5 C4_5 1_555 1_555
O16_4 C17_5 1_555 1_555
C17_5 C18_5 1_555 1_555
C18_5 C19_5 1_555 1_555
C19_5 C23_5 1_555 1_555
O11_5 Zn10_4 1_555 1_555
C20_5 C18_5 1_555 1_555
O18_8 C21_5 1_555 1_555
C21_5 C22_5 1_555 1_555
C22_5 C23_5 1_555 1_555
O13_3 C21_5 1_555 1_555
C24_5 C20_5 1_555 1_555
Zn10_7 O4_5 1_555 1_555
O15_3 Zn10_7 1_555 1_555
O18_13 Zn10_7 1_555 1_555
O19_5 Zn10_4 1_555 1_555
Zn10_5 O13_3 1_555 1_555
C6_5 C8_5 1_555 1_555
C17_5 O11_5 1_555 1_555
C22_5 C24_5 1_555 1_555
C3_5 H1_5 1_555 1_555
C4_5 H2_5 1_555 1_555
C7_5 H4_5 1_555 1_555
C20_5 H5_5 1_555 1_555
C23_5 H6_5 1_555 1_555
C19_5 H7_5 1_555 1_555
C24_5 H8_5 1_555 1_555
C8_5 H12_5 1_555 1_555
O2_6 C1_6 1_555 1_555
C1_6 C2_6 1_555 1_555
C2_6 C3_6 1_555 1_555
C3_6 C7_6 1_555 1_555
Zn10_3 O2_6 1_555 1_555
O17_3 C1_6 1_555 1_555
C4_6 C2_6 1_555 1_555
O4_6 C5_6 1_555 1_555
C5_6 C6_6 1_555 1_555
C6_6 C7_6 1_555 1_555
O18_12 C5_6 1_555 1_555
C8_6 C4_6 1_555 1_555
O16_3 C17_6 1_555 1_555
C17_6 C18_6 1_555 1_555
C18_6 C19_6 1_555 1_555
C19_6 C23_6 1_555 1_555
O11_6 Zn10_3 1_555 1_555
C20_6 C18_6 1_555 1_555
O18_6 C21_6 1_555 1_555
C21_6 C22_6 1_555 1_555
C22_6 C23_6 1_555 1_555
O13_4 C21_6 1_555 1_555
C24_6 C20_6 1_555 1_555
Zn10_8 O4_6 1_555 1_555
O15_4 Zn10_8 1_555 1_555
O18_14 Zn10_8 1_555 1_555
O19_6 Zn10_3 1_555 1_555
Zn10_6 O13_4 1_555 1_555
C6_6 C8_6 1_555 1_555
C17_6 O11_6 1_555 1_555
C22_6 C24_6 1_555 1_555
C3_6 H1_6 1_555 1_555
C4_6 H2_6 1_555 1_555
C7_6 H4_6 1_555 1_555
C20_6 H5_6 1_555 1_555
C23_6 H6_6 1_555 1_555
C19_6 H7_6 1_555 1_555
C24_6 H8_6 1_555 1_555
C8_6 H12_6 1_555 1_555
O2_7 C1_7 1_555 1_555
C1_7 C2_7 1_555 1_555
C2_7 C3_7 1_555 1_555
C3_7 C7_7 1_555 1_555
Zn10_2 O2_7 1_555 1_555
O17_2 C1_7 1_555 1_555
C4_7 C2_7 1_555 1_555
O4_7 C5_7 1_555 1_555
C5_7 C6_7 1_555 1_555
C6_7 C7_7 1_555 1_555
O18_10 C5_7 1_555 1_555
C8_7 C4_7 1_555 1_555
O16_2 C17_7 1_555 1_555
C17_7 C18_7 1_555 1_555
C18_7 C19_7 1_555 1_555
C19_7 C23_7 1_555 1_555
O11_7 Zn10_2 1_555 1_555
C20_7 C18_7 1_555 1_555
O18_5 C21_7 1_555 1_555
C21_7 C22_7 1_555 1_555
C22_7 C23_7 1_555 1_555
O15_4 C21_7 1_555 1_555
C24_7 C20_7 1_555 1_555
Zn10_6 O4_7 1_555 1_555
O18_15 Zn10_6 1_555 1_555
O19_7 Zn10_2 1_555 1_555
C6_7 C8_7 1_555 1_555
C17_7 O11_7 1_555 1_555
C22_7 C24_7 1_555 1_555
C3_7 H1_7 1_555 1_555
C4_7 H2_7 1_555 1_555
C7_7 H4_7 1_555 1_555
C20_7 H5_7 1_555 1_555
C23_7 H6_7 1_555 1_555
C19_7 H7_7 1_555 1_555
C24_7 H8_7 1_555 1_555
C8_7 H12_7 1_555 1_555
O2_8 C1_8 1_555 1_555
C1_8 C2_8 1_555 1_555
C2_8 C3_8 1_555 1_555
C3_8 C7_8 1_555 1_555
Zn10 O2_8 1_555 1_555
O17 C1_8 1_555 1_555
C4_8 C2_8 1_555 1_555
O4_8 C5_8 1_555 1_555
C5_8 C6_8 1_555 1_555
C6_8 C7_8 1_555 1_555
O18_11 C5_8 1_555 1_555
C8_8 C4_8 1_555 1_555
O16 C17_8 1_555 1_555
C17_8 C18_8 1_555 1_555
C18_8 C19_8 1_555 1_555
C19_8 C23_8 1_555 1_555
O11_8 Zn10 1_555 1_555
C20_8 C18_8 1_555 1_555
O18_7 C21_8 1_555 1_555
C21_8 C22_8 1_555 1_555
C22_8 C23_8 1_555 1_555
O15_3 C21_8 1_555 1_555
C24_8 C20_8 1_555 1_555
Zn10_5 O4_8 1_555 1_555
O18_16 Zn10_5 1_555 1_555
O19_8 Zn10 1_555 1_555
C6_8 C8_8 1_555 1_555
C17_8 O11_8 1_555 1_555
C22_8 C24_8 1_555 1_555
C3_8 H1_8 1_555 1_555
C4_8 H2_8 1_555 1_555
C7_8 H4_8 1_555 1_555
C20_8 H5_8 1_555 1_555
C23_8 H6_8 1_555 1_555
C19_8 H7_8 1_555 1_555
C24_8 H8_8 1_555 1_555
C8_8 H12_8 1_555 1_555
O19_6 C9_5 1_555 1_555
C9_5 C10_5 1_555 1_555
C10_5 C11_5 1_555 1_555
C11_5 C15_5 1_555 1_555
O19_3 C9_5 1_555 1_555
C12_5 C10_5 1_555 1_555
O18_16 C13_5 1_555 1_555
C13_5 C14_5 1_555 1_555
C14_5 C15_5 1_555 1_555
O18 C13_5 1_555 1_555
C16_5 C12_5 1_555 1_555
C14_5 C16_5 1_555 1_555
C11_5 H3_5 1_555 1_555
C15_5 H9_5 1_555 1_555
C16_5 H10_5 1_555 1_555
C12_5 H11_5 1_555 1_555
O19_5 C9_6 1_555 1_555
C9_6 C10_6 1_555 1_555
C10_6 C11_6 1_555 1_555
C11_6 C15_6 1_555 1_555
O19_4 C9_6 1_555 1_555
C12_6 C10_6 1_555 1_555
O18_15 C13_6 1_555 1_555
C13_6 C14_6 1_555 1_555
C14_6 C15_6 1_555 1_555
O18_2 C13_6 1_555 1_555
C16_6 C12_6 1_555 1_555
C14_6 C16_6 1_555 1_555
C11_6 H3_6 1_555 1_555
C15_6 H9_6 1_555 1_555
C16_6 H10_6 1_555 1_555
C12_6 H11_6 1_555 1_555
O19_8 C9_7 1_555 1_555
C9_7 C10_7 1_555 1_555
C10_7 C11_7 1_555 1_555
C11_7 C15_7 1_555 1_555
O19 C9_7 1_555 1_555
C12_7 C10_7 1_555 1_555
O18_14 C13_7 1_555 1_555
C13_7 C14_7 1_555 1_555
C14_7 C15_7 1_555 1_555
O18_3 C13_7 1_555 1_555
C16_7 C12_7 1_555 1_555
C14_7 C16_7 1_555 1_555
C11_7 H3_7 1_555 1_555
C15_7 H9_7 1_555 1_555
C16_7 H10_7 1_555 1_555
C12_7 H11_7 1_555 1_555
O19_7 C9_8 1_555 1_555
C9_8 C10_8 1_555 1_555
C10_8 C11_8 1_555 1_555
C11_8 C15_8 1_555 1_555
O19_2 C9_8 1_555 1_555
C12_8 C10_8 1_555 1_555
O18_13 C13_8 1_555 1_555
C13_8 C14_8 1_555 1_555
C14_8 C15_8 1_555 1_555
O18_4 C13_8 1_555 1_555
C16_8 C12_8 1_555 1_555
C14_8 C16_8 1_555 1_555
C11_8 H3_8 1_555 1_555
C15_8 H9_8 1_555 1_555
C16_8 H10_8 1_555 1_555
C12_8 H11_8 1_555 1_555

#END
