
###############################################################################
#
# This file contains modified crystal structure data generated from the
# MOF subset of the Cambridge Structural Database (CSD) v543 
# hosted by the Cambridge Crystallographic Data Centre (CCDC).
#
# This work is licensed under the Creative Commons
# Attribution-NonCommercial-ShareAlike 4.0 International License.
# To view a copy of this license, visit
# http://creativecommons.org/licenses/by-nc-sa/4.0/
# or send a letter to
# Creative Commons, PO Box 1866, Mountain View, CA 94042, USA.
#
# CIF created using the CSD Python API on 29 September 2022
# The structure has been converted into the P1 space group
# The structure has a 3D framework
# The original CSD entry NODTIL is in the cubic crystal system
# The framework has been calculated to contain at least 10.0% void space
# The void calculation uses a probe of radius 1.32A, grid spacing 0.4
# H atom positions have been added when not included in the experimental data
#
###############################################################################

data_NODTIL
_chemical_formula_moiety         '(C192 H96 O101 Zn13)n'
_symmetry_cell_setting           triclinic
_symmetry_space_group_name_H-M   'P 1'
_symmetry_Int_Tables_number      1
_space_group_name_Hall           'P 1'
loop_
_symmetry_equiv_pos_site_id
_symmetry_equiv_pos_as_xyz
1 x,y,z
_cell_length_a                   25.5193(14)
_cell_length_b                   25.5193(14)
_cell_length_c                   25.5193(14)
_cell_angle_alpha                90
_cell_angle_beta                 90
_cell_angle_gamma                90
_cell_volume                     16619.1
loop_
_atom_site_label
_atom_site_type_symbol
_atom_site_fract_x
_atom_site_fract_y
_atom_site_fract_z
O1 O 0.2500 0.2500 0.2500
O2 O 0.2201(3) 0.2201(3) 0.1343(3)
C1 C 0.2215(4) 0.2215(4) 0.0254(5)
C2 C 0.2500 0.2500 0.0544(6)
C3 C 0.2500 0.2500 0.1103(6)
Zn1 Zn 0.20621(3) 0.20621(3) 0.20621(3)
O4 O 0.2799(3) 0.2799(3) 0.1343(3)
C7 C 0.2785(4) 0.2785(4) 0.0254(5)
O7 O 0.2201(3) 0.1343(3) 0.2201(3)
C12 C 0.2215(4) 0.0254(5) 0.2215(4)
C13 C 0.2500 0.0544(6) 0.2500
C14 C 0.2500 0.1103(6) 0.2500
O9 O 0.2799(3) 0.1343(3) 0.2799(3)
C16 C 0.2785(4) 0.0254(5) 0.2785(4)
Zn4 Zn 0.20621(3) 0.29379(3) 0.29379(3)
O18 O 0.1343(3) 0.2201(3) 0.2201(3)
O20 O 0.1343(3) 0.2799(3) 0.2799(3)
O21 O 0.2201(3) 0.3657(3) 0.2799(3)
O22 O 0.2201(3) 0.2799(3) 0.3657(3)
Zn8 Zn 0.29379(3) 0.20621(3) 0.29379(3)
Zn10 Zn 0.29379(3) 0.29379(3) 0.20621(3)
H1 H 0.194646 0.194646 0.0448611
H7 H 0.194646 0.0448611 0.194646
H10 H 0.305354 0.0448611 0.305354
H11 H 0.305354 0.305354 0.0448611
O3 O 0.2201(3) 0.2201(3) 0.8657(3)
C4 C 0.2215(4) 0.2215(4) 0.9746(5)
C5 C 0.2500 0.2500 0.9456(6)
C6 C 0.2500 0.2500 0.8897(6)
O5 O 0.2799(3) 0.2799(3) 0.8657(3)
C8 C 0.2785(4) 0.2785(4) 0.9746(5)
O10 O 0.2201(3) 0.1343(3) 0.7799(3)
C17 C 0.2215(4) 0.0254(5) 0.7785(4)
C18 C 0.2500 0.0544(6) 0.7500
C19 C 0.2500 0.1103(6) 0.7500
Zn3 Zn 0.20621(3) 0.20621(3) 0.79379(3)
O12 O 0.2799(3) 0.1343(3) 0.7201(3)
C23 C 0.2785(4) 0.0254(5) 0.7215(4)
O15 O 0.2500 0.2500 0.7500
O16 O 0.1343(3) 0.2201(3) 0.7799(3)
Zn6 Zn 0.29379(3) 0.20621(3) 0.70621(3)
Zn11 Zn 0.29379(3) 0.29379(3) 0.79379(3)
H2 H 0.194646 0.0448611 0.805354
H4 H 0.305354 0.0448611 0.694646
H5 H 0.305354 0.305354 0.955139
H8 H 0.194646 0.194646 0.955139
O6 O 0.2201(3) 0.8657(3) 0.2201(3)
C9 C 0.2215(4) 0.9746(5) 0.2215(4)
C10 C 0.2500 0.9456(6) 0.2500
C11 C 0.2500 0.8897(6) 0.2500
Zn2 Zn 0.20621(3) 0.79379(3) 0.20621(3)
O8 O 0.2799(3) 0.8657(3) 0.2799(3)
C15 C 0.2785(4) 0.9746(5) 0.2785(4)
O14 O 0.2500 0.7500 0.2500
O17 O 0.2201(3) 0.7799(3) 0.1343(3)
O19 O 0.1343(3) 0.7799(3) 0.2201(3)
Zn9 Zn 0.29379(3) 0.79379(3) 0.29379(3)
H3 H 0.194646 0.955139 0.194646
H9 H 0.305354 0.955139 0.305354
O11 O 0.2201(3) 0.8657(3) 0.7799(3)
C20 C 0.2215(4) 0.9746(5) 0.7785(4)
C21 C 0.2500 0.9456(6) 0.7500
C22 C 0.2500 0.8897(6) 0.7500
O13 O 0.2799(3) 0.8657(3) 0.7201(3)
C24 C 0.2785(4) 0.9746(5) 0.7215(4)
Zn5 Zn 0.20621(3) 0.79379(3) 0.79379(3)
Zn7 Zn 0.29379(3) 0.79379(3) 0.70621(3)
H6 H 0.194646 0.955139 0.805354
H12 H 0.305354 0.955139 0.694646
C12_2 C 0.2215(4) 0.7785(4) 0.0254(5)
C13_2 C 0.2500 0.7500 0.0544(6)
C14_2 C 0.2500 0.7500 0.1103(6)
O9_2 O 0.2799(3) 0.7201(3) 0.1343(3)
C16_2 C 0.2785(4) 0.7215(4) 0.0254(5)
Zn4_2 Zn 0.20621(3) 0.70621(3) 0.29379(3)
O20_2 O 0.1343(3) 0.7201(3) 0.2799(3)
O21_2 O 0.2201(3) 0.7201(3) 0.3657(3)
O22_2 O 0.2201(3) 0.6343(3) 0.2799(3)
Zn8_2 Zn 0.29379(3) 0.70621(3) 0.20621(3)
H7_2 H 0.194646 0.805354 0.0448611
H10_2 H 0.305354 0.694646 0.0448611
O6_2 O 0.2201(3) 0.7799(3) 0.8657(3)
C9_2 C 0.2215(4) 0.7785(4) 0.9746(5)
C10_2 C 0.2500 0.7500 0.9456(6)
C11_2 C 0.2500 0.7500 0.8897(6)
O8_2 O 0.2799(3) 0.7201(3) 0.8657(3)
C15_2 C 0.2785(4) 0.7215(4) 0.9746(5)
O14_2 O 0.2500 0.7500 0.7500
O19_2 O 0.1343(3) 0.7799(3) 0.7799(3)
Zn9_2 Zn 0.29379(3) 0.70621(3) 0.79379(3)
H3_2 H 0.194646 0.805354 0.955139
H9_2 H 0.305354 0.694646 0.955139
Zn4_3 Zn 0.20621(3) 0.29379(3) 0.70621(3)
O20_3 O 0.1343(3) 0.2799(3) 0.7201(3)
O21_3 O 0.2201(3) 0.2799(3) 0.6343(3)
O22_3 O 0.2201(3) 0.3657(3) 0.7201(3)
C1_2 C 0.0254(5) 0.2215(4) 0.7785(4)
C2_2 C 0.0544(6) 0.2500 0.7500
C3_2 C 0.1103(6) 0.2500 0.7500
C7_2 C 0.0254(5) 0.2785(4) 0.7215(4)
O21_4 O 0.2799(3) 0.3657(3) 0.7799(3)
O22_4 O 0.3657(3) 0.2799(3) 0.7799(3)
H1_2 H 0.0448611 0.194646 0.805354
H11_2 H 0.0448611 0.305354 0.694646
O3_2 O 0.8657(3) 0.2201(3) 0.7799(3)
C4_2 C 0.9746(5) 0.2215(4) 0.7785(4)
C5_2 C 0.9456(6) 0.2500 0.7500
C6_2 C 0.8897(6) 0.2500 0.7500
O5_2 O 0.8657(3) 0.2799(3) 0.7201(3)
C8_2 C 0.9746(5) 0.2785(4) 0.7215(4)
O10_2 O 0.7799(3) 0.1343(3) 0.7799(3)
C17_2 C 0.7785(4) 0.0254(5) 0.7785(4)
C18_2 C 0.7500 0.0544(6) 0.7500
C19_2 C 0.7500 0.1103(6) 0.7500
Zn3_2 Zn 0.79379(3) 0.20621(3) 0.79379(3)
O12_2 O 0.7201(3) 0.1343(3) 0.7201(3)
C23_2 C 0.7215(4) 0.0254(5) 0.7215(4)
O15_2 O 0.7500 0.2500 0.7500
O16_2 O 0.7799(3) 0.2201(3) 0.8657(3)
Zn6_2 Zn 0.70621(3) 0.20621(3) 0.70621(3)
Zn11_2 Zn 0.79379(3) 0.29379(3) 0.70621(3)
H2_2 H 0.805354 0.0448611 0.805354
H4_2 H 0.694646 0.0448611 0.694646
H5_2 H 0.955139 0.305354 0.694646
H8_2 H 0.955139 0.194646 0.805354
O11_2 O 0.7799(3) 0.8657(3) 0.7799(3)
C20_2 C 0.7785(4) 0.9746(5) 0.7785(4)
C21_2 C 0.7500 0.9456(6) 0.7500
C22_2 C 0.7500 0.8897(6) 0.7500
O13_2 O 0.7201(3) 0.8657(3) 0.7201(3)
C24_2 C 0.7215(4) 0.9746(5) 0.7215(4)
Zn5_2 Zn 0.79379(3) 0.79379(3) 0.79379(3)
Zn7_2 Zn 0.70621(3) 0.79379(3) 0.70621(3)
H6_2 H 0.805354 0.955139 0.805354
H12_2 H 0.694646 0.955139 0.694646
C4_3 C 0.0254(5) 0.2215(4) 0.2215(4)
C5_3 C 0.0544(6) 0.2500 0.2500
C6_3 C 0.1103(6) 0.2500 0.2500
C8_3 C 0.0254(5) 0.2785(4) 0.2785(4)
H5_3 H 0.0448611 0.305354 0.305354
H8_3 H 0.0448611 0.194646 0.194646
O1_2 O 0.7500 0.2500 0.2500
O2_2 O 0.8657(3) 0.2201(3) 0.2201(3)
C1_3 C 0.9746(5) 0.2215(4) 0.2215(4)
C2_3 C 0.9456(6) 0.2500 0.2500
C3_3 C 0.8897(6) 0.2500 0.2500
Zn1_2 Zn 0.79379(3) 0.20621(3) 0.20621(3)
O4_2 O 0.8657(3) 0.2799(3) 0.2799(3)
C7_3 C 0.9746(5) 0.2785(4) 0.2785(4)
O7_2 O 0.7799(3) 0.1343(3) 0.2201(3)
C12_3 C 0.7785(4) 0.0254(5) 0.2215(4)
C13_3 C 0.7500 0.0544(6) 0.2500
C14_3 C 0.7500 0.1103(6) 0.2500
O9_3 O 0.7201(3) 0.1343(3) 0.2799(3)
C16_3 C 0.7215(4) 0.0254(5) 0.2785(4)
Zn4_4 Zn 0.70621(3) 0.29379(3) 0.20621(3)
O18_2 O 0.7799(3) 0.2201(3) 0.1343(3)
O20_4 O 0.7201(3) 0.2799(3) 0.1343(3)
O21_5 O 0.7201(3) 0.3657(3) 0.2201(3)
O22_5 O 0.6343(3) 0.2799(3) 0.2201(3)
Zn8_3 Zn 0.70621(3) 0.20621(3) 0.29379(3)
Zn10_2 Zn 0.79379(3) 0.29379(3) 0.29379(3)
H1_3 H 0.955139 0.194646 0.194646
H7_3 H 0.805354 0.0448611 0.194646
H10_3 H 0.694646 0.0448611 0.305354
H11_3 H 0.955139 0.305354 0.305354
O6_3 O 0.7799(3) 0.8657(3) 0.2201(3)
C9_3 C 0.7785(4) 0.9746(5) 0.2215(4)
C10_3 C 0.7500 0.9456(6) 0.2500
C11_3 C 0.7500 0.8897(6) 0.2500
Zn2_2 Zn 0.79379(3) 0.79379(3) 0.20621(3)
O8_3 O 0.7201(3) 0.8657(3) 0.2799(3)
C15_3 C 0.7215(4) 0.9746(5) 0.2785(4)
O14_3 O 0.7500 0.7500 0.2500
O17_2 O 0.8657(3) 0.7799(3) 0.2201(3)
O19_3 O 0.7799(3) 0.7799(3) 0.1343(3)
Zn9_3 Zn 0.70621(3) 0.79379(3) 0.29379(3)
H3_3 H 0.805354 0.955139 0.194646
H9_3 H 0.694646 0.955139 0.305354
C1_4 C 0.7785(4) 0.2215(4) 0.0254(5)
C2_4 C 0.7500 0.2500 0.0544(6)
C3_4 C 0.7500 0.2500 0.1103(6)
C7_4 C 0.7215(4) 0.2785(4) 0.0254(5)
O21_6 O 0.6343(3) 0.2201(3) 0.2799(3)
O22_6 O 0.7201(3) 0.2201(3) 0.3657(3)
H1_4 H 0.805354 0.194646 0.0448611
H11_4 H 0.694646 0.305354 0.0448611
C4_4 C 0.7785(4) 0.2215(4) 0.9746(5)
C5_4 C 0.7500 0.2500 0.9456(6)
C6_4 C 0.7500 0.2500 0.8897(6)
O5_3 O 0.7201(3) 0.2799(3) 0.8657(3)
C8_4 C 0.7215(4) 0.2785(4) 0.9746(5)
Zn11_3 Zn 0.70621(3) 0.29379(3) 0.79379(3)
H5_4 H 0.694646 0.305354 0.955139
H8_4 H 0.805354 0.194646 0.955139
C12_4 C 0.0254(5) 0.7785(4) 0.2215(4)
C13_4 C 0.0544(6) 0.7500 0.2500
C14_4 C 0.1103(6) 0.7500 0.2500
C16_4 C 0.0254(5) 0.7215(4) 0.2785(4)
O21_7 O 0.3657(3) 0.7799(3) 0.2799(3)
O22_7 O 0.2799(3) 0.7799(3) 0.3657(3)
H7_4 H 0.0448611 0.805354 0.194646
H10_4 H 0.0448611 0.694646 0.305354
C17_3 C 0.0254(5) 0.7785(4) 0.7785(4)
C18_3 C 0.0544(6) 0.7500 0.7500
C19_3 C 0.1103(6) 0.7500 0.7500
O12_3 O 0.1343(3) 0.7201(3) 0.7201(3)
C23_3 C 0.0254(5) 0.7215(4) 0.7215(4)
Zn6_3 Zn 0.20621(3) 0.70621(3) 0.70621(3)
H2_3 H 0.0448611 0.805354 0.805354
H4_3 H 0.0448611 0.694646 0.694646
C9_4 C 0.9746(5) 0.7785(4) 0.2215(4)
C10_4 C 0.9456(6) 0.7500 0.2500
C11_4 C 0.8897(6) 0.7500 0.2500
O8_4 O 0.8657(3) 0.7201(3) 0.2799(3)
C15_4 C 0.9746(5) 0.7215(4) 0.2785(4)
Zn9_4 Zn 0.79379(3) 0.70621(3) 0.29379(3)
H3_4 H 0.955139 0.805354 0.194646
H9_4 H 0.955139 0.694646 0.305354
O11_3 O 0.8657(3) 0.7799(3) 0.7799(3)
C20_3 C 0.9746(5) 0.7785(4) 0.7785(4)
C21_3 C 0.9456(6) 0.7500 0.7500
C22_3 C 0.8897(6) 0.7500 0.7500
O13_3 O 0.8657(3) 0.7201(3) 0.7201(3)
C24_3 C 0.9746(5) 0.7215(4) 0.7215(4)
Zn7_3 Zn 0.79379(3) 0.70621(3) 0.70621(3)
H6_3 H 0.955139 0.805354 0.805354
H12_3 H 0.955139 0.694646 0.694646
O21_8 O 0.2799(3) 0.2201(3) 0.3657(3)
O22_8 O 0.3657(3) 0.2201(3) 0.2799(3)
O21_9 O 0.3657(3) 0.2799(3) 0.2201(3)
O22_9 O 0.2799(3) 0.3657(3) 0.2201(3)
Zn4_5 Zn 0.70621(3) 0.70621(3) 0.20621(3)
O20_5 O 0.7201(3) 0.7201(3) 0.1343(3)
O21_10 O 0.6343(3) 0.7201(3) 0.2201(3)
O22_10 O 0.7201(3) 0.6343(3) 0.2201(3)
O21_11 O 0.2799(3) 0.7799(3) 0.6343(3)
O22_11 O 0.3657(3) 0.7799(3) 0.7201(3)
C20_4 C 0.7785(4) 0.7785(4) 0.0254(5)
C21_4 C 0.7500 0.7500 0.0544(6)
C22_4 C 0.7500 0.7500 0.1103(6)
C24_4 C 0.7215(4) 0.7215(4) 0.0254(5)
H6_4 H 0.805354 0.805354 0.0448611
H12_4 H 0.694646 0.694646 0.0448611
O10_3 O 0.7799(3) 0.7799(3) 0.8657(3)
C17_4 C 0.7785(4) 0.7785(4) 0.9746(5)
C18_4 C 0.7500 0.7500 0.9456(6)
C19_4 C 0.7500 0.7500 0.8897(6)
O12_4 O 0.7201(3) 0.7201(3) 0.8657(3)
C23_4 C 0.7215(4) 0.7215(4) 0.9746(5)
O15_3 O 0.7500 0.7500 0.7500
Zn6_4 Zn 0.70621(3) 0.70621(3) 0.79379(3)
H2_4 H 0.805354 0.805354 0.955139
H4_4 H 0.694646 0.694646 0.955139
O21_12 O 0.6343(3) 0.2799(3) 0.7799(3)
O22_12 O 0.7201(3) 0.3657(3) 0.7799(3)
O21_13 O 0.7201(3) 0.7799(3) 0.3657(3)
O22_13 O 0.6343(3) 0.7799(3) 0.2799(3)
O21_14 O 0.7201(3) 0.2201(3) 0.6343(3)
O22_14 O 0.6343(3) 0.2201(3) 0.7201(3)
O21_15 O 0.3657(3) 0.7201(3) 0.7799(3)
O22_15 O 0.2799(3) 0.6343(3) 0.7799(3)
O21_16 O 0.2201(3) 0.6343(3) 0.7201(3)
O22_16 O 0.2201(3) 0.7201(3) 0.6343(3)
O21_17 O 0.7799(3) 0.3657(3) 0.7201(3)
O22_17 O 0.7799(3) 0.2799(3) 0.6343(3)
O21_18 O 0.7799(3) 0.6343(3) 0.2799(3)
O22_18 O 0.7799(3) 0.7201(3) 0.3657(3)
O21_19 O 0.3657(3) 0.2201(3) 0.7201(3)
O22_19 O 0.2799(3) 0.2201(3) 0.6343(3)
O21_20 O 0.6343(3) 0.7799(3) 0.7201(3)
O22_20 O 0.7201(3) 0.7799(3) 0.6343(3)
O21_21 O 0.2799(3) 0.6343(3) 0.2201(3)
O22_21 O 0.3657(3) 0.7201(3) 0.2201(3)
O21_22 O 0.7201(3) 0.6343(3) 0.7799(3)
O22_22 O 0.6343(3) 0.7201(3) 0.7799(3)
O21_23 O 0.7799(3) 0.2799(3) 0.3657(3)
O22_23 O 0.7799(3) 0.3657(3) 0.2799(3)
O21_24 O 0.7799(3) 0.7201(3) 0.6343(3)
O22_24 O 0.7799(3) 0.6343(3) 0.7201(3)
C1_5 C 0.2215(4) 0.7215(4) 0.5254(5)
C2_5 C 0.2500 0.7500 0.5544(6)
C3_5 C 0.2500 0.7500 0.6103(6)
C4_5 C 0.2215(4) 0.7215(4) 0.4746(5)
C5_5 C 0.2500 0.7500 0.4456(6)
C6_5 C 0.2500 0.7500 0.3897(6)
C7_5 C 0.2785(4) 0.7785(4) 0.5254(5)
C8_5 C 0.2785(4) 0.7785(4) 0.4746(5)
C9_5 C 0.2215(4) 0.4746(5) 0.7215(4)
C10_5 C 0.2500 0.4456(6) 0.7500
C11_5 C 0.2500 0.3897(6) 0.7500
C12_5 C 0.2215(4) 0.5254(5) 0.7215(4)
C13_5 C 0.2500 0.5544(6) 0.7500
C14_5 C 0.2500 0.6103(6) 0.7500
C15_5 C 0.2785(4) 0.4746(5) 0.7785(4)
C16_5 C 0.2785(4) 0.5254(5) 0.7785(4)
C17_5 C 0.2215(4) 0.5254(5) 0.2785(4)
C18_5 C 0.2500 0.5544(6) 0.2500
C19_5 C 0.2500 0.6103(6) 0.2500
C20_5 C 0.2215(4) 0.4746(5) 0.2785(4)
C21_5 C 0.2500 0.4456(6) 0.2500
C22_5 C 0.2500 0.3897(6) 0.2500
C23_5 C 0.2785(4) 0.5254(5) 0.2215(4)
C24_5 C 0.2785(4) 0.4746(5) 0.2215(4)
H1_5 H 0.194646 0.694646 0.544861
H2_5 H 0.194646 0.544861 0.305354
H3_5 H 0.194646 0.455139 0.694646
H4_5 H 0.305354 0.544861 0.194646
H5_5 H 0.305354 0.805354 0.455139
H6_5 H 0.194646 0.455139 0.305354
H7_5 H 0.194646 0.544861 0.694646
H8_5 H 0.194646 0.694646 0.455139
H9_5 H 0.305354 0.455139 0.805354
H10_5 H 0.305354 0.544861 0.805354
H11_5 H 0.305354 0.805354 0.544861
H12_5 H 0.305354 0.455139 0.194646
C9_6 C 0.2215(4) 0.2785(4) 0.4746(5)
C10_6 C 0.2500 0.2500 0.4456(6)
C11_6 C 0.2500 0.2500 0.3897(6)
C12_6 C 0.2215(4) 0.2785(4) 0.5254(5)
C13_6 C 0.2500 0.2500 0.5544(6)
C14_6 C 0.2500 0.2500 0.6103(6)
C15_6 C 0.2785(4) 0.2215(4) 0.4746(5)
C16_6 C 0.2785(4) 0.2215(4) 0.5254(5)
H3_6 H 0.194646 0.305354 0.455139
H7_6 H 0.194646 0.305354 0.544861
H9_6 H 0.305354 0.194646 0.455139
H10_6 H 0.305354 0.194646 0.544861
C17_6 C 0.7785(4) 0.5254(5) 0.2785(4)
C18_6 C 0.7500 0.5544(6) 0.2500
C19_6 C 0.7500 0.6103(6) 0.2500
C20_6 C 0.7785(4) 0.4746(5) 0.2785(4)
C21_6 C 0.7500 0.4456(6) 0.2500
C22_6 C 0.7500 0.3897(6) 0.2500
C23_6 C 0.7215(4) 0.5254(5) 0.2215(4)
C24_6 C 0.7215(4) 0.4746(5) 0.2215(4)
H2_6 H 0.805354 0.544861 0.305354
H4_6 H 0.694646 0.544861 0.194646
H6_6 H 0.805354 0.455139 0.305354
H12_6 H 0.694646 0.455139 0.194646
C9_7 C 0.7785(4) 0.4746(5) 0.7215(4)
C10_7 C 0.7500 0.4456(6) 0.7500
C11_7 C 0.7500 0.3897(6) 0.7500
C12_7 C 0.7785(4) 0.5254(5) 0.7215(4)
C13_7 C 0.7500 0.5544(6) 0.7500
C14_7 C 0.7500 0.6103(6) 0.7500
C15_7 C 0.7215(4) 0.4746(5) 0.7785(4)
C16_7 C 0.7215(4) 0.5254(5) 0.7785(4)
H3_7 H 0.805354 0.455139 0.694646
H7_7 H 0.805354 0.544861 0.694646
H9_7 H 0.694646 0.455139 0.805354
H10_7 H 0.694646 0.544861 0.805354
C1_6 C 0.7785(4) 0.7215(4) 0.5254(5)
C2_6 C 0.7500 0.7500 0.5544(6)
C3_6 C 0.7500 0.7500 0.6103(6)
C4_6 C 0.7785(4) 0.7215(4) 0.4746(5)
C5_6 C 0.7500 0.7500 0.4456(6)
C6_6 C 0.7500 0.7500 0.3897(6)
C7_6 C 0.7215(4) 0.7785(4) 0.5254(5)
C8_6 C 0.7215(4) 0.7785(4) 0.4746(5)
H1_6 H 0.805354 0.694646 0.544861
H5_6 H 0.694646 0.805354 0.455139
H8_6 H 0.805354 0.694646 0.455139
H11_6 H 0.694646 0.805354 0.544861
C17_7 C 0.7785(4) 0.2785(4) 0.4746(5)
C18_7 C 0.7500 0.2500 0.4456(6)
C19_7 C 0.7500 0.2500 0.3897(6)
C20_7 C 0.7785(4) 0.2785(4) 0.5254(5)
C21_7 C 0.7500 0.2500 0.5544(6)
C22_7 C 0.7500 0.2500 0.6103(6)
C23_7 C 0.7215(4) 0.2215(4) 0.4746(5)
C24_7 C 0.7215(4) 0.2215(4) 0.5254(5)
H2_7 H 0.805354 0.305354 0.455139
H4_7 H 0.694646 0.194646 0.455139
H6_7 H 0.805354 0.305354 0.544861
H12_7 H 0.694646 0.194646 0.544861
C1_7 C 0.5254(5) 0.2215(4) 0.2785(4)
C2_7 C 0.5544(6) 0.2500 0.2500
C3_7 C 0.6103(6) 0.2500 0.2500
C4_7 C 0.4746(5) 0.2215(4) 0.2785(4)
C5_7 C 0.4456(6) 0.2500 0.2500
C6_7 C 0.3897(6) 0.2500 0.2500
C7_7 C 0.5254(5) 0.2785(4) 0.2215(4)
C8_7 C 0.4746(5) 0.2785(4) 0.2215(4)
H1_7 H 0.544861 0.194646 0.305354
H5_7 H 0.455139 0.305354 0.194646
H8_7 H 0.455139 0.194646 0.305354
H11_7 H 0.544861 0.305354 0.194646
C1_8 C 0.4746(5) 0.2215(4) 0.7215(4)
C2_8 C 0.4456(6) 0.2500 0.7500
C3_8 C 0.3897(6) 0.2500 0.7500
C4_8 C 0.5254(5) 0.2215(4) 0.7215(4)
C5_8 C 0.5544(6) 0.2500 0.7500
C6_8 C 0.6103(6) 0.2500 0.7500
C7_8 C 0.4746(5) 0.2785(4) 0.7785(4)
C8_8 C 0.5254(5) 0.2785(4) 0.7785(4)
H1_8 H 0.455139 0.194646 0.694646
H5_8 H 0.544861 0.305354 0.805354
H8_8 H 0.544861 0.194646 0.694646
H11_8 H 0.455139 0.305354 0.805354
C9_8 C 0.4746(5) 0.7785(4) 0.7215(4)
C10_8 C 0.4456(6) 0.7500 0.7500
C11_8 C 0.3897(6) 0.7500 0.7500
C12_8 C 0.5254(5) 0.7785(4) 0.7215(4)
C13_8 C 0.5544(6) 0.7500 0.7500
C14_8 C 0.6103(6) 0.7500 0.7500
C15_8 C 0.4746(5) 0.7215(4) 0.7785(4)
C16_8 C 0.5254(5) 0.7215(4) 0.7785(4)
C17_8 C 0.5254(5) 0.7785(4) 0.2785(4)
C18_8 C 0.5544(6) 0.7500 0.2500
C19_8 C 0.6103(6) 0.7500 0.2500
C20_8 C 0.4746(5) 0.7785(4) 0.2785(4)
C21_8 C 0.4456(6) 0.7500 0.2500
C22_8 C 0.3897(6) 0.7500 0.2500
C23_8 C 0.5254(5) 0.7215(4) 0.2215(4)
C24_8 C 0.4746(5) 0.7215(4) 0.2215(4)
H2_8 H 0.544861 0.805354 0.305354
H3_8 H 0.455139 0.805354 0.694646
H4_8 H 0.544861 0.694646 0.194646
H6_8 H 0.455139 0.805354 0.305354
H7_8 H 0.544861 0.805354 0.694646
H9_8 H 0.455139 0.694646 0.805354
H10_8 H 0.544861 0.694646 0.805354
H12_8 H 0.455139 0.694646 0.194646
loop_
_geom_bond_atom_site_label_1
_geom_bond_atom_site_label_2
_geom_bond_site_symmetry_1
_geom_bond_site_symmetry_2
O1 Zn1 1_555 1_555
O2 C3 1_555 1_555
C1 C2 1_555 1_555
C2 C3 1_555 1_555
C3 O4 1_555 1_555
Zn1 O2 1_555 1_555
O4 Zn10 1_555 1_555
C7 C2 1_555 1_555
O7 Zn1 1_555 1_555
C13 C12 1_555 1_555
C14 O7 1_555 1_555
O9 C14 1_555 1_555
C16 C13 1_555 1_555
Zn4 O1 1_555 1_555
O18 Zn1 1_555 1_555
O20 Zn4 1_555 1_555
O21 Zn4 1_555 1_555
O22 Zn4 1_555 1_555
Zn8 O1 1_555 1_555
Zn10 O1 1_555 1_555
C13 C14 1_555 1_555
O9 Zn8 1_555 1_555
C1 H1 1_555 1_555
C12 H7 1_555 1_555
C16 H10 1_555 1_555
C7 H11 1_555 1_555
O3 C6 1_555 1_555
C5 C4 1_555 1_555
C6 C5 1_555 1_555
O5 C6 1_555 1_555
C8 C5 1_555 1_555
O10 C19 1_555 1_555
C17 C18 1_555 1_555
C18 C19 1_555 1_555
C19 O12 1_555 1_555
Zn3 O3 1_555 1_555
O12 Zn6 1_555 1_555
C23 C18 1_555 1_555
O15 Zn3 1_555 1_555
O16 Zn3 1_555 1_555
Zn6 O15 1_555 1_555
Zn11 O5 1_555 1_555
O10 Zn3 1_555 1_555
O15 Zn11 1_555 1_555
C17 H2 1_555 1_555
C23 H4 1_555 1_555
C8 H5 1_555 1_555
C4 H8 1_555 1_555
O6 C11 1_555 1_555
C9 C10 1_555 1_555
C10 C11 1_555 1_555
C11 O8 1_555 1_555
Zn2 O6 1_555 1_555
O8 Zn9 1_555 1_555
C15 C10 1_555 1_555
O14 Zn2 1_555 1_555
O17 Zn2 1_555 1_555
O19 Zn2 1_555 1_555
Zn9 O14 1_555 1_555
C9 H3 1_555 1_555
C15 H9 1_555 1_555
O11 C22 1_555 1_555
C21 C20 1_555 1_555
C22 C21 1_555 1_555
O13 C22 1_555 1_555
C24 C21 1_555 1_555
Zn5 O11 1_555 1_555
Zn7 O13 1_555 1_555
C20 H6 1_555 1_555
C24 H12 1_555 1_555
C13_2 C12_2 1_555 1_555
C14_2 O17 1_555 1_555
O9_2 C14_2 1_555 1_555
C16_2 C13_2 1_555 1_555
Zn4_2 O14 1_555 1_555
O20_2 Zn4_2 1_555 1_555
O21_2 Zn4_2 1_555 1_555
O22_2 Zn4_2 1_555 1_555
Zn8_2 O14 1_555 1_555
C13_2 C14_2 1_555 1_555
O9_2 Zn8_2 1_555 1_555
C12_2 H7_2 1_555 1_555
C16_2 H10_2 1_555 1_555
O6_2 C11_2 1_555 1_555
C9_2 C10_2 1_555 1_555
C10_2 C11_2 1_555 1_555
C11_2 O8_2 1_555 1_555
Zn5 O6_2 1_555 1_555
O8_2 Zn9_2 1_555 1_555
C15_2 C10_2 1_555 1_555
O14_2 Zn5 1_555 1_555
O19_2 Zn5 1_555 1_555
Zn9_2 O14_2 1_555 1_555
C9_2 H3_2 1_555 1_555
C15_2 H9_2 1_555 1_555
Zn4_3 O15 1_555 1_555
O20_3 Zn4_3 1_555 1_555
O21_3 Zn4_3 1_555 1_555
O22_3 Zn4_3 1_555 1_555
O14_2 Zn7 1_555 1_555
O16 C3_2 1_555 1_555
C1_2 C2_2 1_555 1_555
C2_2 C3_2 1_555 1_555
C3_2 O20_3 1_555 1_555
C7_2 C2_2 1_555 1_555
O21_4 Zn11 1_555 1_555
O22_4 Zn11 1_555 1_555
C1_2 H1_2 1_555 1_555
C7_2 H11_2 1_555 1_555
O3_2 C6_2 1_555 1_555
C5_2 C4_2 1_555 1_555
C6_2 C5_2 1_555 1_555
O5_2 C6_2 1_555 1_555
C8_2 C5_2 1_555 1_555
O10_2 C19_2 1_555 1_555
C17_2 C18_2 1_555 1_555
C18_2 C19_2 1_555 1_555
C19_2 O12_2 1_555 1_555
Zn3_2 O3_2 1_555 1_555
O12_2 Zn6_2 1_555 1_555
C23_2 C18_2 1_555 1_555
O15_2 Zn3_2 1_555 1_555
O16_2 Zn3_2 1_555 1_555
Zn6_2 O15_2 1_555 1_555
Zn11_2 O5_2 1_555 1_555
O10_2 Zn3_2 1_555 1_555
O15_2 Zn11_2 1_555 1_555
C17_2 H2_2 1_555 1_555
C23_2 H4_2 1_555 1_555
C8_2 H5_2 1_555 1_555
C4_2 H8_2 1_555 1_555
O11_2 C22_2 1_555 1_555
C21_2 C20_2 1_555 1_555
C22_2 C21_2 1_555 1_555
O13_2 C22_2 1_555 1_555
C24_2 C21_2 1_555 1_555
Zn5_2 O11_2 1_555 1_555
Zn7_2 O13_2 1_555 1_555
C20_2 H6_2 1_555 1_555
C24_2 H12_2 1_555 1_555
O18 C6_3 1_555 1_555
C5_3 C4_3 1_555 1_555
C6_3 C5_3 1_555 1_555
O20 C6_3 1_555 1_555
C8_3 C5_3 1_555 1_555
C8_3 H5_3 1_555 1_555
C4_3 H8_3 1_555 1_555
O1_2 Zn1_2 1_555 1_555
O2_2 C3_3 1_555 1_555
C1_3 C2_3 1_555 1_555
C2_3 C3_3 1_555 1_555
C3_3 O4_2 1_555 1_555
Zn1_2 O2_2 1_555 1_555
O4_2 Zn10_2 1_555 1_555
C7_3 C2_3 1_555 1_555
O7_2 Zn1_2 1_555 1_555
C13_3 C12_3 1_555 1_555
C14_3 O7_2 1_555 1_555
O9_3 C14_3 1_555 1_555
C16_3 C13_3 1_555 1_555
Zn4_4 O1_2 1_555 1_555
O18_2 Zn1_2 1_555 1_555
O20_4 Zn4_4 1_555 1_555
O21_5 Zn4_4 1_555 1_555
O22_5 Zn4_4 1_555 1_555
Zn8_3 O1_2 1_555 1_555
Zn10_2 O1_2 1_555 1_555
C13_3 C14_3 1_555 1_555
O9_3 Zn8_3 1_555 1_555
C1_3 H1_3 1_555 1_555
C12_3 H7_3 1_555 1_555
C16_3 H10_3 1_555 1_555
C7_3 H11_3 1_555 1_555
O6_3 C11_3 1_555 1_555
C9_3 C10_3 1_555 1_555
C10_3 C11_3 1_555 1_555
C11_3 O8_3 1_555 1_555
Zn2_2 O6_3 1_555 1_555
O8_3 Zn9_3 1_555 1_555
C15_3 C10_3 1_555 1_555
O14_3 Zn2_2 1_555 1_555
O17_2 Zn2_2 1_555 1_555
O19_3 Zn2_2 1_555 1_555
Zn9_3 O14_3 1_555 1_555
C9_3 H3_3 1_555 1_555
C15_3 H9_3 1_555 1_555
O18_2 C3_4 1_555 1_555
C1_4 C2_4 1_555 1_555
C2_4 C3_4 1_555 1_555
C3_4 O20_4 1_555 1_555
C7_4 C2_4 1_555 1_555
O21_6 Zn8_3 1_555 1_555
O22_6 Zn8_3 1_555 1_555
C1_4 H1_4 1_555 1_555
C7_4 H11_4 1_555 1_555
O16_2 C6_4 1_555 1_555
C5_4 C4_4 1_555 1_555
C6_4 C5_4 1_555 1_555
O5_3 C6_4 1_555 1_555
C8_4 C5_4 1_555 1_555
Zn11_3 O5_3 1_555 1_555
O15_2 Zn11_3 1_555 1_555
C8_4 H5_4 1_555 1_555
C4_4 H8_4 1_555 1_555
C13_4 C12_4 1_555 1_555
C14_4 O19 1_555 1_555
O20_2 C14_4 1_555 1_555
C16_4 C13_4 1_555 1_555
O21_7 Zn9 1_555 1_555
O22_7 Zn9 1_555 1_555
C13_4 C14_4 1_555 1_555
C12_4 H7_4 1_555 1_555
C16_4 H10_4 1_555 1_555
O19_2 C19_3 1_555 1_555
C17_3 C18_3 1_555 1_555
C18_3 C19_3 1_555 1_555
C19_3 O12_3 1_555 1_555
O12_3 Zn6_3 1_555 1_555
C23_3 C18_3 1_555 1_555
Zn6_3 O14_2 1_555 1_555
C17_3 H2_3 1_555 1_555
C23_3 H4_3 1_555 1_555
O17_2 C11_4 1_555 1_555
C9_4 C10_4 1_555 1_555
C10_4 C11_4 1_555 1_555
C11_4 O8_4 1_555 1_555
O8_4 Zn9_4 1_555 1_555
C15_4 C10_4 1_555 1_555
Zn9_4 O14_3 1_555 1_555
C9_4 H3_4 1_555 1_555
C15_4 H9_4 1_555 1_555
O11_3 C22_3 1_555 1_555
C21_3 C20_3 1_555 1_555
C22_3 C21_3 1_555 1_555
O13_3 C22_3 1_555 1_555
C24_3 C21_3 1_555 1_555
Zn5_2 O11_3 1_555 1_555
Zn7_3 O13_3 1_555 1_555
C20_3 H6_3 1_555 1_555
C24_3 H12_3 1_555 1_555
O21_8 Zn8 1_555 1_555
O22_8 Zn8 1_555 1_555
O21_9 Zn10 1_555 1_555
O22_9 Zn10 1_555 1_555
Zn4_5 O14_3 1_555 1_555
O20_5 Zn4_5 1_555 1_555
O21_10 Zn4_5 1_555 1_555
O22_10 Zn4_5 1_555 1_555
O21_11 Zn7 1_555 1_555
O22_11 Zn7 1_555 1_555
O19_3 C22_4 1_555 1_555
C21_4 C20_4 1_555 1_555
C22_4 C21_4 1_555 1_555
O20_5 C22_4 1_555 1_555
C24_4 C21_4 1_555 1_555
C20_4 H6_4 1_555 1_555
C24_4 H12_4 1_555 1_555
O10_3 C19_4 1_555 1_555
C17_4 C18_4 1_555 1_555
C18_4 C19_4 1_555 1_555
C19_4 O12_4 1_555 1_555
O12_4 Zn6_4 1_555 1_555
C23_4 C18_4 1_555 1_555
O15_3 Zn5_2 1_555 1_555
Zn6_4 O15_3 1_555 1_555
O10_3 Zn5_2 1_555 1_555
O15_3 Zn7_3 1_555 1_555
C17_4 H2_4 1_555 1_555
C23_4 H4_4 1_555 1_555
O21_12 Zn11_3 1_555 1_555
O22_12 Zn11_3 1_555 1_555
O15_3 Zn7_2 1_555 1_555
O21_13 Zn9_3 1_555 1_555
O22_13 Zn9_3 1_555 1_555
O21_14 Zn6_2 1_555 1_555
O22_14 Zn6_2 1_555 1_555
O21_15 Zn9_2 1_555 1_555
O22_15 Zn9_2 1_555 1_555
O21_16 Zn6_3 1_555 1_555
O22_16 Zn6_3 1_555 1_555
O21_17 Zn11_2 1_555 1_555
O22_17 Zn11_2 1_555 1_555
O21_18 Zn9_4 1_555 1_555
O22_18 Zn9_4 1_555 1_555
O21_19 Zn6 1_555 1_555
O22_19 Zn6 1_555 1_555
O21_20 Zn7_2 1_555 1_555
O22_20 Zn7_2 1_555 1_555
O21_21 Zn8_2 1_555 1_555
O22_21 Zn8_2 1_555 1_555
O21_22 Zn6_4 1_555 1_555
O22_22 Zn6_4 1_555 1_555
O21_23 Zn10_2 1_555 1_555
O22_23 Zn10_2 1_555 1_555
O21_24 Zn7_3 1_555 1_555
O22_24 Zn7_3 1_555 1_555
O22_16 C3_5 1_555 1_555
C1_5 C2_5 1_555 1_555
C2_5 C3_5 1_555 1_555
C3_5 O21_11 1_555 1_555
O21_2 C6_5 1_555 1_555
C4_5 C1_5 1_555 1_555
C5_5 C4_5 1_555 1_555
C6_5 C5_5 1_555 1_555
C7_5 C2_5 1_555 1_555
O22_7 C6_5 1_555 1_555
C8_5 C5_5 1_555 1_555
O22_3 C11_5 1_555 1_555
C9_5 C10_5 1_555 1_555
C10_5 C11_5 1_555 1_555
C11_5 O21_4 1_555 1_555
C12_5 C9_5 1_555 1_555
C13_5 C12_5 1_555 1_555
C14_5 O21_16 1_555 1_555
C15_5 C10_5 1_555 1_555
O22_15 C14_5 1_555 1_555
C16_5 C13_5 1_555 1_555
O22_2 C19_5 1_555 1_555
C17_5 C18_5 1_555 1_555
C18_5 C19_5 1_555 1_555
C19_5 O21_21 1_555 1_555
O21 C22_5 1_555 1_555
C20_5 C17_5 1_555 1_555
C21_5 C20_5 1_555 1_555
C22_5 C21_5 1_555 1_555
C23_5 C18_5 1_555 1_555
O22_9 C22_5 1_555 1_555
C24_5 C21_5 1_555 1_555
C7_5 C8_5 1_555 1_555
C13_5 C14_5 1_555 1_555
C15_5 C16_5 1_555 1_555
C23_5 C24_5 1_555 1_555
C1_5 H1_5 1_555 1_555
C17_5 H2_5 1_555 1_555
C9_5 H3_5 1_555 1_555
C23_5 H4_5 1_555 1_555
C8_5 H5_5 1_555 1_555
C20_5 H6_5 1_555 1_555
C12_5 H7_5 1_555 1_555
C4_5 H8_5 1_555 1_555
C15_5 H9_5 1_555 1_555
C16_5 H10_5 1_555 1_555
C7_5 H11_5 1_555 1_555
C24_5 H12_5 1_555 1_555
O22 C11_6 1_555 1_555
C9_6 C10_6 1_555 1_555
C10_6 C11_6 1_555 1_555
C11_6 O21_8 1_555 1_555
C12_6 C9_6 1_555 1_555
C13_6 C12_6 1_555 1_555
C14_6 O21_3 1_555 1_555
C15_6 C10_6 1_555 1_555
O22_19 C14_6 1_555 1_555
C16_6 C13_6 1_555 1_555
C13_6 C14_6 1_555 1_555
C15_6 C16_6 1_555 1_555
C9_6 H3_6 1_555 1_555
C12_6 H7_6 1_555 1_555
C15_6 H9_6 1_555 1_555
C16_6 H10_6 1_555 1_555
O21_18 C19_6 1_555 1_555
C17_6 C18_6 1_555 1_555
C18_6 C19_6 1_555 1_555
C19_6 O22_10 1_555 1_555
O22_23 C22_6 1_555 1_555
C20_6 C17_6 1_555 1_555
C21_6 C20_6 1_555 1_555
C22_6 C21_6 1_555 1_555
C23_6 C18_6 1_555 1_555
O21_5 C22_6 1_555 1_555
C24_6 C21_6 1_555 1_555
C23_6 C24_6 1_555 1_555
C17_6 H2_6 1_555 1_555
C23_6 H4_6 1_555 1_555
C20_6 H6_6 1_555 1_555
C24_6 H12_6 1_555 1_555
O21_17 C11_7 1_555 1_555
C9_7 C10_7 1_555 1_555
C10_7 C11_7 1_555 1_555
C11_7 O22_12 1_555 1_555
C12_7 C9_7 1_555 1_555
C13_7 C12_7 1_555 1_555
C14_7 O22_24 1_555 1_555
C15_7 C10_7 1_555 1_555
O21_22 C14_7 1_555 1_555
C16_7 C13_7 1_555 1_555
C13_7 C14_7 1_555 1_555
C15_7 C16_7 1_555 1_555
C9_7 H3_7 1_555 1_555
C12_7 H7_7 1_555 1_555
C15_7 H9_7 1_555 1_555
C16_7 H10_7 1_555 1_555
O21_24 C3_6 1_555 1_555
C1_6 C2_6 1_555 1_555
C2_6 C3_6 1_555 1_555
C3_6 O22_20 1_555 1_555
O22_18 C6_6 1_555 1_555
C4_6 C1_6 1_555 1_555
C5_6 C4_6 1_555 1_555
C6_6 C5_6 1_555 1_555
C7_6 C2_6 1_555 1_555
O21_13 C6_6 1_555 1_555
C8_6 C5_6 1_555 1_555
C7_6 C8_6 1_555 1_555
C1_6 H1_6 1_555 1_555
C8_6 H5_6 1_555 1_555
C4_6 H8_6 1_555 1_555
C7_6 H11_6 1_555 1_555
O21_23 C19_7 1_555 1_555
C17_7 C18_7 1_555 1_555
C18_7 C19_7 1_555 1_555
C19_7 O22_6 1_555 1_555
O22_17 C22_7 1_555 1_555
C20_7 C17_7 1_555 1_555
C21_7 C20_7 1_555 1_555
C22_7 C21_7 1_555 1_555
C23_7 C18_7 1_555 1_555
O21_14 C22_7 1_555 1_555
C24_7 C21_7 1_555 1_555
C23_7 C24_7 1_555 1_555
C17_7 H2_7 1_555 1_555
C23_7 H4_7 1_555 1_555
C20_7 H6_7 1_555 1_555
C24_7 H12_7 1_555 1_555
O21_6 C3_7 1_555 1_555
C1_7 C2_7 1_555 1_555
C2_7 C3_7 1_555 1_555
C3_7 O22_5 1_555 1_555
O22_8 C6_7 1_555 1_555
C4_7 C1_7 1_555 1_555
C5_7 C4_7 1_555 1_555
C6_7 C5_7 1_555 1_555
C7_7 C2_7 1_555 1_555
O21_9 C6_7 1_555 1_555
C8_7 C5_7 1_555 1_555
C7_7 C8_7 1_555 1_555
C1_7 H1_7 1_555 1_555
C8_7 H5_7 1_555 1_555
C4_7 H8_7 1_555 1_555
C7_7 H11_7 1_555 1_555
O21_19 C3_8 1_555 1_555
C1_8 C2_8 1_555 1_555
C2_8 C3_8 1_555 1_555
C3_8 O22_4 1_555 1_555
O22_14 C6_8 1_555 1_555
C4_8 C1_8 1_555 1_555
C5_8 C4_8 1_555 1_555
C6_8 C5_8 1_555 1_555
C7_8 C2_8 1_555 1_555
O21_12 C6_8 1_555 1_555
C8_8 C5_8 1_555 1_555
C7_8 C8_8 1_555 1_555
C1_8 H1_8 1_555 1_555
C8_8 H5_8 1_555 1_555
C4_8 H8_8 1_555 1_555
C7_8 H11_8 1_555 1_555
O22_11 C11_8 1_555 1_555
C9_8 C10_8 1_555 1_555
C10_8 C11_8 1_555 1_555
C11_8 O21_15 1_555 1_555
C12_8 C9_8 1_555 1_555
C13_8 C12_8 1_555 1_555
C14_8 O21_20 1_555 1_555
C15_8 C10_8 1_555 1_555
O22_22 C14_8 1_555 1_555
C16_8 C13_8 1_555 1_555
O22_13 C19_8 1_555 1_555
C17_8 C18_8 1_555 1_555
C18_8 C19_8 1_555 1_555
C19_8 O21_10 1_555 1_555
O21_7 C22_8 1_555 1_555
C20_8 C17_8 1_555 1_555
C21_8 C20_8 1_555 1_555
C22_8 C21_8 1_555 1_555
C23_8 C18_8 1_555 1_555
O22_21 C22_8 1_555 1_555
C24_8 C21_8 1_555 1_555
C13_8 C14_8 1_555 1_555
C15_8 C16_8 1_555 1_555
C23_8 C24_8 1_555 1_555
C17_8 H2_8 1_555 1_555
C9_8 H3_8 1_555 1_555
C23_8 H4_8 1_555 1_555
C20_8 H6_8 1_555 1_555
C12_8 H7_8 1_555 1_555
C15_8 H9_8 1_555 1_555
C16_8 H10_8 1_555 1_555
C24_8 H12_8 1_555 1_555

#END
