
###############################################################################
#
# This file contains modified crystal structure data generated from the
# MOF subset of the Cambridge Structural Database (CSD) v543 
# hosted by the Cambridge Crystallographic Data Centre (CCDC).
#
# This work is licensed under the Creative Commons
# Attribution-NonCommercial-ShareAlike 4.0 International License.
# To view a copy of this license, visit
# http://creativecommons.org/licenses/by-nc-sa/4.0/
# or send a letter to
# Creative Commons, PO Box 1866, Mountain View, CA 94042, USA.
#
# CIF created using the CSD Python API on 29 September 2022
# The structure has been converted into the P1 space group
# The structure has a 3D framework
# The original CSD entry NODTOR is in the orthorhombic crystal system
# The framework has been calculated to contain at least 10.0% void space
# The void calculation uses a probe of radius 1.32A, grid spacing 0.4
# H atom positions have been added when not included in the experimental data
#
###############################################################################

data_NODTOR
_chemical_formula_moiety         '(C192 H96 O104 Zn32)n'
_symmetry_cell_setting           triclinic
_symmetry_space_group_name_H-M   'P 1'
_symmetry_Int_Tables_number      1
_space_group_name_Hall           'P 1'
loop_
_symmetry_equiv_pos_site_id
_symmetry_equiv_pos_as_xyz
1 x,y,z
_cell_length_a                   25.6676(7)
_cell_length_b                   25.668
_cell_length_c                   25.668
_cell_angle_alpha                90
_cell_angle_beta                 90
_cell_angle_gamma                90
_cell_volume                     16911
loop_
_atom_site_label
_atom_site_type_symbol
_atom_site_fract_x
_atom_site_fract_y
_atom_site_fract_z
O1 O 0.28082(17) 0.21838(19) 0.13428(12)
O2 O 0.36589(14) 0.2196(2) 0.21863(15)
O3 O 0.28121(17) 0.13431(13) 0.21838(15)
C1 C 0.2831(3) 0.2174(3) 0.02671(18)
C2 C 0.2826(3) 0.0261(2) 0.2165(3)
C3 C 0.2500 0.2500 0.0538(2)
C4 C 0.4464(2) 0.2500 0.2500
C5 C 0.4732(2) 0.2178(3) 0.2166(3)
C6 C 0.2500 0.0534(2) 0.2500
C7 C 0.2500 0.1118(2) 0.2500
C8 C 0.2500 0.2500 0.11248(19)
C9 C 0.3880(2) 0.2500 0.2500
Zn1 Zn 0.293331(18) 0.206690(17) 0.206665(16)
O4 O 0.2500 0.2500 0.2500
O5 O 0.21918(17) 0.28162(19) 0.13428(12)
C10 C 0.2169(3) 0.2826(3) 0.02671(18)
O8 O 0.36589(14) 0.2804(2) 0.28137(15)
C15 C 0.4732(2) 0.2822(3) 0.2834(3)
O9 O 0.63411(14) 0.2196(2) 0.21863(15)
C16 C 0.5536(2) 0.2500 0.2500
C17 C 0.5268(2) 0.2178(3) 0.2166(3)
C18 C 0.6120(2) 0.2500 0.2500
O10 O 0.63411(14) 0.2804(2) 0.28137(15)
C19 C 0.5268(2) 0.2822(3) 0.2834(3)
O11 O 0.21879(17) 0.13431(13) 0.28162(15)
C20 C 0.2174(3) 0.0261(2) 0.2835(3)
Zn2 Zn 0.293331(18) 0.293310(17) 0.293335(16)
Zn3 Zn 0.206669(18) 0.206690(17) 0.293335(16)
Zn4 Zn 0.206669(18) 0.293310(17) 0.206665(16)
O14 O 0.28082(17) 0.28162(19) 0.36572(12)
O15 O 0.21918(17) 0.21838(19) 0.36572(12)
O16 O 0.13411(14) 0.2196(2) 0.28137(15)
O17 O 0.13411(14) 0.2804(2) 0.21863(15)
O18 O 0.28121(17) 0.36569(13) 0.28162(15)
O19 O 0.21879(17) 0.36569(13) 0.21838(15)
Zn5 Zn 0.706669(18) 0.206690(17) 0.206665(16)
Zn8 Zn 0.706669(18) 0.293310(17) 0.293335(16)
H1 H 0.308262 0.0472213 0.19013
H2 H 0.451991 0.192297 0.190147
H3 H 0.30931 0.191586 0.047844
H5 H 0.19069 0.308414 0.047844
H8 H 0.451991 0.307703 0.309853
H9 H 0.548009 0.192297 0.190147
H10 H 0.191738 0.0472213 0.30987
H12 H 0.548009 0.307703 0.309853
O6 O 0.28082(17) 0.21838(19) 0.86572(12)
C11 C 0.2831(3) 0.2174(3) 0.97329(18)
C12 C 0.2500 0.2500 0.9462(2)
C13 C 0.2500 0.2500 0.88752(19)
O7 O 0.21918(17) 0.28162(19) 0.86572(12)
C14 C 0.2169(3) 0.2826(3) 0.97329(18)
Zn7 Zn 0.293331(18) 0.206690(17) 0.793335(16)
Zn10 Zn 0.206669(18) 0.293310(17) 0.793335(16)
H4 H 0.30931 0.191586 0.952156
H11 H 0.19069 0.308414 0.952156
O12 O 0.28121(17) 0.86569(13) 0.21838(15)
C21 C 0.2826(3) 0.9739(2) 0.2165(3)
C22 C 0.2500 0.9466(2) 0.2500
C23 C 0.2500 0.8882(2) 0.2500
O13 O 0.21879(17) 0.86569(13) 0.28162(15)
C24 C 0.2174(3) 0.9739(2) 0.2835(3)
Zn6 Zn 0.293331(18) 0.793310(17) 0.206665(16)
Zn9 Zn 0.206669(18) 0.793310(17) 0.293335(16)
H6 H 0.308262 0.952779 0.19013
H7 H 0.191738 0.952779 0.30987
O12_2 O 0.28121(17) 0.13431(13) 0.78162(15)
C21_2 C 0.2826(3) 0.0261(2) 0.7835(3)
C22_2 C 0.2500 0.0534(2) 0.7500
C23_2 C 0.2500 0.1118(2) 0.7500
O13_2 O 0.21879(17) 0.13431(13) 0.71838(15)
C24_2 C 0.2174(3) 0.0261(2) 0.7165(3)
Zn9_2 Zn 0.206669(18) 0.206690(17) 0.706665(16)
H6_2 H 0.308262 0.0472213 0.80987
H7_2 H 0.191738 0.0472213 0.69013
O6_2 O 0.28082(17) 0.78162(19) 0.13428(12)
C11_2 C 0.2831(3) 0.7826(3) 0.02671(18)
C12_2 C 0.2500 0.7500 0.0538(2)
C13_2 C 0.2500 0.7500 0.11248(19)
O7_2 O 0.21918(17) 0.71838(19) 0.13428(12)
C14_2 C 0.2169(3) 0.7174(3) 0.02671(18)
Zn10_2 Zn 0.206669(18) 0.706690(17) 0.206665(16)
H4_2 H 0.30931 0.808414 0.047844
H11_2 H 0.19069 0.691586 0.047844
O1_2 O 0.28082(17) 0.78162(19) 0.86572(12)
O2_2 O 0.36589(14) 0.7804(2) 0.78137(15)
O3_2 O 0.28121(17) 0.86569(13) 0.78162(15)
C1_2 C 0.2831(3) 0.7826(3) 0.97329(18)
C2_2 C 0.2826(3) 0.9739(2) 0.7835(3)
C3_2 C 0.2500 0.7500 0.9462(2)
C4_2 C 0.4464(2) 0.7500 0.7500
C5_2 C 0.4732(2) 0.7822(3) 0.7834(3)
C6_2 C 0.2500 0.9466(2) 0.7500
C7_2 C 0.2500 0.8882(2) 0.7500
C8_2 C 0.2500 0.7500 0.88752(19)
C9_2 C 0.3880(2) 0.7500 0.7500
Zn1_2 Zn 0.293331(18) 0.793310(17) 0.793335(16)
O4_2 O 0.2500 0.7500 0.7500
O5_2 O 0.21918(17) 0.71838(19) 0.86572(12)
C10_2 C 0.2169(3) 0.7174(3) 0.97329(18)
O8_2 O 0.36589(14) 0.7196(2) 0.71863(15)
C15_2 C 0.4732(2) 0.7178(3) 0.7166(3)
O9_2 O 0.63411(14) 0.7804(2) 0.78137(15)
C16_2 C 0.5536(2) 0.7500 0.7500
C17_2 C 0.5268(2) 0.7822(3) 0.7834(3)
C18_2 C 0.6120(2) 0.7500 0.7500
O10_2 O 0.63411(14) 0.7196(2) 0.71863(15)
C19_2 C 0.5268(2) 0.7178(3) 0.7166(3)
O11_2 O 0.21879(17) 0.86569(13) 0.71838(15)
C20_2 C 0.2174(3) 0.9739(2) 0.7165(3)
Zn2_2 Zn 0.293331(18) 0.706690(17) 0.706665(16)
Zn3_2 Zn 0.206669(18) 0.793310(17) 0.706665(16)
Zn4_2 Zn 0.206669(18) 0.706690(17) 0.793335(16)
O14_2 O 0.28082(17) 0.71838(19) 0.63428(12)
O15_2 O 0.21918(17) 0.78162(19) 0.63428(12)
O16_2 O 0.13411(14) 0.7804(2) 0.71863(15)
O17_2 O 0.13411(14) 0.7196(2) 0.78137(15)
O18_2 O 0.28121(17) 0.63431(13) 0.71838(15)
O19_2 O 0.21879(17) 0.63431(13) 0.78162(15)
Zn5_2 Zn 0.706669(18) 0.793310(17) 0.793335(16)
Zn8_2 Zn 0.706669(18) 0.706690(17) 0.706665(16)
H1_2 H 0.308262 0.952779 0.80987
H2_2 H 0.451991 0.807703 0.809853
H3_2 H 0.30931 0.808414 0.952156
H5_2 H 0.19069 0.691586 0.952156
H8_2 H 0.451991 0.692297 0.690147
H9_2 H 0.548009 0.807703 0.809853
H10_2 H 0.191738 0.952779 0.69013
H12_2 H 0.548009 0.692297 0.690147
O6_3 O 0.71918(17) 0.21838(19) 0.13428(12)
C11_3 C 0.7169(3) 0.2174(3) 0.02671(18)
C12_3 C 0.7500 0.2500 0.0538(2)
C13_3 C 0.7500 0.2500 0.11248(19)
O7_3 O 0.78082(17) 0.28162(19) 0.13428(12)
C14_3 C 0.7831(3) 0.2826(3) 0.02671(18)
Zn10_3 Zn 0.793331(18) 0.293310(17) 0.206665(16)
H4_3 H 0.69069 0.191586 0.047844
H11_3 H 0.80931 0.308414 0.047844
O1_3 O 0.71918(17) 0.21838(19) 0.86572(12)
O2_3 O 0.63411(14) 0.2196(2) 0.78137(15)
O3_3 O 0.71879(17) 0.13431(13) 0.78162(15)
C1_3 C 0.7169(3) 0.2174(3) 0.97329(18)
C2_3 C 0.7174(3) 0.0261(2) 0.7835(3)
C3_3 C 0.7500 0.2500 0.9462(2)
C4_3 C 0.5536(2) 0.2500 0.7500
C5_3 C 0.5268(2) 0.2178(3) 0.7834(3)
C6_3 C 0.7500 0.0534(2) 0.7500
C7_3 C 0.7500 0.1118(2) 0.7500
C8_3 C 0.7500 0.2500 0.88752(19)
C9_3 C 0.6120(2) 0.2500 0.7500
Zn1_3 Zn 0.706669(18) 0.206690(17) 0.793335(16)
O4_3 O 0.7500 0.2500 0.7500
O5_3 O 0.78082(17) 0.28162(19) 0.86572(12)
C10_3 C 0.7831(3) 0.2826(3) 0.97329(18)
O8_3 O 0.63411(14) 0.2804(2) 0.71863(15)
C15_3 C 0.5268(2) 0.2822(3) 0.7166(3)
O9_3 O 0.36589(14) 0.2196(2) 0.78137(15)
C16_3 C 0.4464(2) 0.2500 0.7500
C17_3 C 0.4732(2) 0.2178(3) 0.7834(3)
C18_3 C 0.3880(2) 0.2500 0.7500
O10_3 O 0.36589(14) 0.2804(2) 0.71863(15)
C19_3 C 0.4732(2) 0.2822(3) 0.7166(3)
O11_3 O 0.78121(17) 0.13431(13) 0.71838(15)
C20_3 C 0.7826(3) 0.0261(2) 0.7165(3)
Zn2_3 Zn 0.706669(18) 0.293310(17) 0.706665(16)
Zn3_3 Zn 0.793331(18) 0.206690(17) 0.706665(16)
Zn4_3 Zn 0.793331(18) 0.293310(17) 0.793335(16)
O14_3 O 0.71918(17) 0.28162(19) 0.63428(12)
O15_3 O 0.78082(17) 0.21838(19) 0.63428(12)
O16_3 O 0.86589(14) 0.2196(2) 0.71863(15)
O17_3 O 0.86589(14) 0.2804(2) 0.78137(15)
O18_3 O 0.71879(17) 0.36569(13) 0.71838(15)
O19_3 O 0.78121(17) 0.36569(13) 0.78162(15)
Zn8_3 Zn 0.293331(18) 0.293310(17) 0.706665(16)
H1_3 H 0.691738 0.0472213 0.80987
H2_3 H 0.548009 0.192297 0.809853
H3_3 H 0.69069 0.191586 0.952156
H5_3 H 0.80931 0.308414 0.952156
H8_3 H 0.548009 0.307703 0.690147
H9_3 H 0.451991 0.192297 0.809853
H10_3 H 0.808262 0.0472213 0.69013
H12_3 H 0.451991 0.307703 0.690147
O12_3 O 0.71879(17) 0.86569(13) 0.78162(15)
C21_3 C 0.7174(3) 0.9739(2) 0.7835(3)
C22_3 C 0.7500 0.9466(2) 0.7500
C23_3 C 0.7500 0.8882(2) 0.7500
O13_3 O 0.78121(17) 0.86569(13) 0.71838(15)
C24_3 C 0.7826(3) 0.9739(2) 0.7165(3)
Zn9_3 Zn 0.793331(18) 0.793310(17) 0.706665(16)
H6_3 H 0.691738 0.952779 0.80987
H7_3 H 0.808262 0.952779 0.69013
O12_4 O 0.71879(17) 0.13431(13) 0.21838(15)
C21_4 C 0.7174(3) 0.0261(2) 0.2165(3)
C22_4 C 0.7500 0.0534(2) 0.2500
C23_4 C 0.7500 0.1118(2) 0.2500
O13_4 O 0.78121(17) 0.13431(13) 0.28162(15)
C24_4 C 0.7826(3) 0.0261(2) 0.2835(3)
Zn9_4 Zn 0.793331(18) 0.206690(17) 0.293335(16)
H6_4 H 0.691738 0.0472213 0.19013
H7_4 H 0.808262 0.0472213 0.30987
O1_4 O 0.71918(17) 0.78162(19) 0.13428(12)
O2_4 O 0.63411(14) 0.7804(2) 0.21863(15)
O3_4 O 0.71879(17) 0.86569(13) 0.21838(15)
C1_4 C 0.7169(3) 0.7826(3) 0.02671(18)
C2_4 C 0.7174(3) 0.9739(2) 0.2165(3)
C3_4 C 0.7500 0.7500 0.0538(2)
C4_4 C 0.5536(2) 0.7500 0.2500
C5_4 C 0.5268(2) 0.7822(3) 0.2166(3)
C6_4 C 0.7500 0.9466(2) 0.2500
C7_4 C 0.7500 0.8882(2) 0.2500
C8_4 C 0.7500 0.7500 0.11248(19)
C9_4 C 0.6120(2) 0.7500 0.2500
Zn1_4 Zn 0.706669(18) 0.793310(17) 0.206665(16)
O4_4 O 0.7500 0.7500 0.2500
O5_4 O 0.78082(17) 0.71838(19) 0.13428(12)
C10_4 C 0.7831(3) 0.7174(3) 0.02671(18)
O8_4 O 0.63411(14) 0.7196(2) 0.28137(15)
C15_4 C 0.5268(2) 0.7178(3) 0.2834(3)
O9_4 O 0.36589(14) 0.7804(2) 0.21863(15)
C16_4 C 0.4464(2) 0.7500 0.2500
C17_4 C 0.4732(2) 0.7822(3) 0.2166(3)
C18_4 C 0.3880(2) 0.7500 0.2500
O10_4 O 0.36589(14) 0.7196(2) 0.28137(15)
C19_4 C 0.4732(2) 0.7178(3) 0.2834(3)
O11_4 O 0.78121(17) 0.86569(13) 0.28162(15)
C20_4 C 0.7826(3) 0.9739(2) 0.2835(3)
Zn2_4 Zn 0.706669(18) 0.706690(17) 0.293335(16)
Zn3_4 Zn 0.793331(18) 0.793310(17) 0.293335(16)
Zn4_4 Zn 0.793331(18) 0.706690(17) 0.206665(16)
O14_4 O 0.71918(17) 0.71838(19) 0.36572(12)
O15_4 O 0.78082(17) 0.78162(19) 0.36572(12)
O16_4 O 0.86589(14) 0.7804(2) 0.28137(15)
O17_4 O 0.86589(14) 0.7196(2) 0.21863(15)
O18_4 O 0.71879(17) 0.63431(13) 0.28162(15)
O19_4 O 0.78121(17) 0.63431(13) 0.21838(15)
Zn8_4 Zn 0.293331(18) 0.706690(17) 0.293335(16)
H1_4 H 0.691738 0.952779 0.19013
H2_4 H 0.548009 0.807703 0.190147
H3_4 H 0.69069 0.808414 0.047844
H5_4 H 0.80931 0.691586 0.047844
H8_4 H 0.548009 0.692297 0.309853
H9_4 H 0.451991 0.807703 0.190147
H10_4 H 0.808262 0.952779 0.30987
H12_4 H 0.451991 0.692297 0.309853
O6_4 O 0.71918(17) 0.78162(19) 0.86572(12)
C11_4 C 0.7169(3) 0.7826(3) 0.97329(18)
C12_4 C 0.7500 0.7500 0.9462(2)
C13_4 C 0.7500 0.7500 0.88752(19)
O7_4 O 0.78082(17) 0.71838(19) 0.86572(12)
C14_4 C 0.7831(3) 0.7174(3) 0.97329(18)
Zn10_4 Zn 0.793331(18) 0.706690(17) 0.793335(16)
H4_4 H 0.69069 0.808414 0.952156
H11_4 H 0.80931 0.691586 0.952156
C1_5 C 0.2831(3) 0.7174(3) 0.52671(18)
C2_5 C 0.2826(3) 0.5261(2) 0.7165(3)
C3_5 C 0.2500 0.7500 0.5538(2)
C6_5 C 0.2500 0.5534(2) 0.7500
C7_5 C 0.2500 0.6118(2) 0.7500
C8_5 C 0.2500 0.7500 0.61248(19)
C10_5 C 0.2169(3) 0.7826(3) 0.52671(18)
O6_5 O 0.28082(17) 0.71838(19) 0.36572(12)
C11_5 C 0.2831(3) 0.7174(3) 0.47329(18)
C12_5 C 0.2500 0.7500 0.4462(2)
C13_5 C 0.2500 0.7500 0.38752(19)
O7_5 O 0.21918(17) 0.78162(19) 0.36572(12)
C14_5 C 0.2169(3) 0.7826(3) 0.47329(18)
C20_5 C 0.2174(3) 0.5261(2) 0.7835(3)
O12_5 O 0.28121(17) 0.36569(13) 0.71838(15)
C21_5 C 0.2826(3) 0.4739(2) 0.7165(3)
C22_5 C 0.2500 0.4466(2) 0.7500
C23_5 C 0.2500 0.3882(2) 0.7500
O13_5 O 0.21879(17) 0.36569(13) 0.78162(15)
C24_5 C 0.2174(3) 0.4739(2) 0.7835(3)
H1_5 H 0.308262 0.547221 0.69013
H3_5 H 0.30931 0.691586 0.547844
H4_5 H 0.30931 0.691586 0.452156
H5_5 H 0.19069 0.808414 0.547844
H6_5 H 0.308262 0.452779 0.69013
H7_5 H 0.191738 0.452779 0.80987
H10_5 H 0.191738 0.547221 0.80987
H11_5 H 0.19069 0.808414 0.452156
C1_6 C 0.2831(3) 0.2826(3) 0.47329(18)
C2_6 C 0.2826(3) 0.4739(2) 0.2835(3)
C3_6 C 0.2500 0.2500 0.4462(2)
C6_6 C 0.2500 0.4466(2) 0.2500
C7_6 C 0.2500 0.3882(2) 0.2500
C8_6 C 0.2500 0.2500 0.38752(19)
C10_6 C 0.2169(3) 0.2174(3) 0.47329(18)
O6_6 O 0.28082(17) 0.28162(19) 0.63428(12)
C11_6 C 0.2831(3) 0.2826(3) 0.52671(18)
C12_6 C 0.2500 0.2500 0.5538(2)
C13_6 C 0.2500 0.2500 0.61248(19)
O7_6 O 0.21918(17) 0.21838(19) 0.63428(12)
C14_6 C 0.2169(3) 0.2174(3) 0.52671(18)
C20_6 C 0.2174(3) 0.4739(2) 0.2165(3)
O12_6 O 0.28121(17) 0.63431(13) 0.28162(15)
C21_6 C 0.2826(3) 0.5261(2) 0.2835(3)
C22_6 C 0.2500 0.5534(2) 0.2500
C23_6 C 0.2500 0.6118(2) 0.2500
O13_6 O 0.21879(17) 0.63431(13) 0.21838(15)
C24_6 C 0.2174(3) 0.5261(2) 0.2165(3)
H1_6 H 0.308262 0.452779 0.30987
H3_6 H 0.30931 0.308414 0.452156
H4_6 H 0.30931 0.308414 0.547844
H5_6 H 0.19069 0.191586 0.452156
H6_6 H 0.308262 0.547221 0.30987
H7_6 H 0.191738 0.547221 0.19013
H10_6 H 0.191738 0.452779 0.19013
H11_6 H 0.19069 0.191586 0.547844
C1_7 C 0.7169(3) 0.7174(3) 0.47329(18)
C2_7 C 0.7174(3) 0.5261(2) 0.2835(3)
C3_7 C 0.7500 0.7500 0.4462(2)
C6_7 C 0.7500 0.5534(2) 0.2500
C7_7 C 0.7500 0.6118(2) 0.2500
C8_7 C 0.7500 0.7500 0.38752(19)
C10_7 C 0.7831(3) 0.7826(3) 0.47329(18)
O6_7 O 0.71918(17) 0.71838(19) 0.63428(12)
C11_7 C 0.7169(3) 0.7174(3) 0.52671(18)
C12_7 C 0.7500 0.7500 0.5538(2)
C13_7 C 0.7500 0.7500 0.61248(19)
O7_7 O 0.78082(17) 0.78162(19) 0.63428(12)
C14_7 C 0.7831(3) 0.7826(3) 0.52671(18)
C20_7 C 0.7826(3) 0.5261(2) 0.2165(3)
O12_7 O 0.71879(17) 0.36569(13) 0.28162(15)
C21_7 C 0.7174(3) 0.4739(2) 0.2835(3)
C22_7 C 0.7500 0.4466(2) 0.2500
C23_7 C 0.7500 0.3882(2) 0.2500
O13_7 O 0.78121(17) 0.36569(13) 0.21838(15)
C24_7 C 0.7826(3) 0.4739(2) 0.2165(3)
H1_7 H 0.691738 0.547221 0.30987
H3_7 H 0.69069 0.691586 0.452156
H4_7 H 0.69069 0.691586 0.547844
H5_7 H 0.80931 0.808414 0.452156
H6_7 H 0.691738 0.452779 0.30987
H7_7 H 0.808262 0.452779 0.19013
H10_7 H 0.808262 0.547221 0.19013
H11_7 H 0.80931 0.808414 0.547844
C1_8 C 0.7169(3) 0.2826(3) 0.52671(18)
C2_8 C 0.7174(3) 0.4739(2) 0.7165(3)
C3_8 C 0.7500 0.2500 0.5538(2)
C6_8 C 0.7500 0.4466(2) 0.7500
C7_8 C 0.7500 0.3882(2) 0.7500
C8_8 C 0.7500 0.2500 0.61248(19)
C10_8 C 0.7831(3) 0.2174(3) 0.52671(18)
O6_8 O 0.71918(17) 0.28162(19) 0.36572(12)
C11_8 C 0.7169(3) 0.2826(3) 0.47329(18)
C12_8 C 0.7500 0.2500 0.4462(2)
C13_8 C 0.7500 0.2500 0.38752(19)
O7_8 O 0.78082(17) 0.21838(19) 0.36572(12)
C14_8 C 0.7831(3) 0.2174(3) 0.47329(18)
C20_8 C 0.7826(3) 0.4739(2) 0.7835(3)
O12_8 O 0.71879(17) 0.63431(13) 0.71838(15)
C21_8 C 0.7174(3) 0.5261(2) 0.7165(3)
C22_8 C 0.7500 0.5534(2) 0.7500
C23_8 C 0.7500 0.6118(2) 0.7500
O13_8 O 0.78121(17) 0.63431(13) 0.78162(15)
C24_8 C 0.7826(3) 0.5261(2) 0.7835(3)
H1_8 H 0.691738 0.452779 0.69013
H3_8 H 0.69069 0.308414 0.547844
H4_8 H 0.69069 0.308414 0.452156
H5_8 H 0.80931 0.191586 0.547844
H6_8 H 0.691738 0.547221 0.69013
H7_8 H 0.808262 0.547221 0.80987
H10_8 H 0.808262 0.452779 0.80987
H11_8 H 0.80931 0.191586 0.452156
O9_5 O 0.13411(14) 0.2196(2) 0.71863(15)
C16_5 C 0.0536(2) 0.2500 0.7500
C17_5 C 0.0268(2) 0.2178(3) 0.7166(3)
C18_5 C 0.1120(2) 0.2500 0.7500
O10_5 O 0.13411(14) 0.2804(2) 0.78137(15)
C19_5 C 0.0268(2) 0.2822(3) 0.7834(3)
H9_5 H 0.0480094 0.192297 0.690147
H12_5 H 0.0480094 0.307703 0.809853
C4_5 C 0.9464(2) 0.2500 0.7500
C5_5 C 0.9732(2) 0.2178(3) 0.7166(3)
C9_5 C 0.8880(2) 0.2500 0.7500
C15_5 C 0.9732(2) 0.2822(3) 0.7834(3)
H2_5 H 0.951991 0.192297 0.690147
H8_5 H 0.951991 0.307703 0.809853
O9_6 O 0.13411(14) 0.7804(2) 0.28137(15)
C16_6 C 0.0536(2) 0.7500 0.2500
C17_6 C 0.0268(2) 0.7822(3) 0.2834(3)
C18_6 C 0.1120(2) 0.7500 0.2500
O10_6 O 0.13411(14) 0.7196(2) 0.21863(15)
C19_6 C 0.0268(2) 0.7178(3) 0.2166(3)
H9_6 H 0.0480094 0.807703 0.309853
H12_6 H 0.0480094 0.692297 0.190147
C4_6 C 0.9464(2) 0.7500 0.2500
C5_6 C 0.9732(2) 0.7822(3) 0.2834(3)
C9_6 C 0.8880(2) 0.7500 0.2500
C15_6 C 0.9732(2) 0.7178(3) 0.2166(3)
H2_6 H 0.951991 0.807703 0.309853
H8_6 H 0.951991 0.692297 0.190147
C4_7 C 0.0536(2) 0.2500 0.2500
C5_7 C 0.0268(2) 0.2178(3) 0.2834(3)
C9_7 C 0.1120(2) 0.2500 0.2500
C15_7 C 0.0268(2) 0.2822(3) 0.2166(3)
H2_7 H 0.0480094 0.192297 0.309853
H8_7 H 0.0480094 0.307703 0.190147
O9_7 O 0.86589(14) 0.2196(2) 0.28137(15)
C16_7 C 0.9464(2) 0.2500 0.2500
C17_7 C 0.9732(2) 0.2178(3) 0.2834(3)
C18_7 C 0.8880(2) 0.2500 0.2500
O10_7 O 0.86589(14) 0.2804(2) 0.21863(15)
C19_7 C 0.9732(2) 0.2822(3) 0.2166(3)
H9_7 H 0.951991 0.192297 0.309853
H12_7 H 0.951991 0.307703 0.190147
C4_8 C 0.0536(2) 0.7500 0.7500
C5_8 C 0.0268(2) 0.7822(3) 0.7166(3)
C9_8 C 0.1120(2) 0.7500 0.7500
C15_8 C 0.0268(2) 0.7178(3) 0.7834(3)
H2_8 H 0.0480094 0.807703 0.690147
H8_8 H 0.0480094 0.692297 0.809853
O9_8 O 0.86589(14) 0.7804(2) 0.71863(15)
C16_8 C 0.9464(2) 0.7500 0.7500
C17_8 C 0.9732(2) 0.7822(3) 0.7166(3)
C18_8 C 0.8880(2) 0.7500 0.7500
O10_8 O 0.86589(14) 0.7196(2) 0.78137(15)
C19_8 C 0.9732(2) 0.7178(3) 0.7834(3)
H9_8 H 0.951991 0.807703 0.690147
H12_8 H 0.951991 0.692297 0.809853
O4_5 O 0.7500 0.7500 0.7500
O4_6 O 0.7500 0.2500 0.2500
O4_7 O 0.2500 0.7500 0.2500
O4_8 O 0.2500 0.2500 0.7500
loop_
_geom_bond_atom_site_label_1
_geom_bond_atom_site_label_2
_geom_bond_site_symmetry_1
_geom_bond_site_symmetry_2
O1 C8 1_555 1_555
O2 C9 1_555 1_555
O3 C7 1_555 1_555
C1 C3 1_555 1_555
C2 C6 1_555 1_555
C3 C8 1_555 1_555
C4 C5 1_555 1_555
C5 C17 1_555 1_555
C6 C7 1_555 1_555
C7 O11 1_555 1_555
C8 O5 1_555 1_555
C9 C4 1_555 1_555
Zn1 O1 1_555 1_555
O4 Zn1 1_555 1_555
O5 Zn4 1_555 1_555
C10 C3 1_555 1_555
O8 C9 1_555 1_555
C15 C4 1_555 1_555
O9 C18 1_555 1_555
C16 C17 1_555 1_555
C18 C16 1_555 1_555
O10 C18 1_555 1_555
C19 C15 1_555 1_555
O11 Zn3 1_555 1_555
C20 C6 1_555 1_555
Zn2 O4 1_555 1_555
Zn3 O4 1_555 1_555
Zn4 O4 1_555 1_555
O14 Zn2 1_555 1_555
O15 Zn3 1_555 1_555
O16 Zn3 1_555 1_555
O17 Zn4 1_555 1_555
O18 Zn2 1_555 1_555
O19 Zn4 1_555 1_555
Zn5 O9 1_555 1_555
Zn8 O10 1_555 1_555
O2 Zn1 1_555 1_555
O3 Zn1 1_555 1_555
O8 Zn2 1_555 1_555
C16 C19 1_555 1_555
C2 H1 1_555 1_555
C5 H2 1_555 1_555
C1 H3 1_555 1_555
C10 H5 1_555 1_555
C15 H8 1_555 1_555
C17 H9 1_555 1_555
C20 H10 1_555 1_555
C19 H12 1_555 1_555
O6 C13 1_555 1_555
C12 C11 1_555 1_555
C13 C12 1_555 1_555
O7 C13 1_555 1_555
Zn7 O6 1_555 1_555
Zn10 O7 1_555 1_555
C12 C14 1_555 1_555
C11 H4 1_555 1_555
C14 H11 1_555 1_555
O12 C23 1_555 1_555
C22 C21 1_555 1_555
C23 C22 1_555 1_555
O13 C23 1_555 1_555
Zn6 O12 1_555 1_555
Zn9 O13 1_555 1_555
C22 C24 1_555 1_555
C21 H6 1_555 1_555
C24 H7 1_555 1_555
O12_2 C23_2 1_555 1_555
C22_2 C21_2 1_555 1_555
C23_2 C22_2 1_555 1_555
O13_2 C23_2 1_555 1_555
Zn7 O12_2 1_555 1_555
Zn9_2 O13_2 1_555 1_555
C22_2 C24_2 1_555 1_555
C21_2 H6_2 1_555 1_555
C24_2 H7_2 1_555 1_555
O6_2 C13_2 1_555 1_555
C12_2 C11_2 1_555 1_555
C13_2 C12_2 1_555 1_555
O7_2 C13_2 1_555 1_555
Zn6 O6_2 1_555 1_555
Zn10_2 O7_2 1_555 1_555
C12_2 C14_2 1_555 1_555
C11_2 H4_2 1_555 1_555
C14_2 H11_2 1_555 1_555
O1_2 C8_2 1_555 1_555
O2_2 C9_2 1_555 1_555
O3_2 C7_2 1_555 1_555
C1_2 C3_2 1_555 1_555
C2_2 C6_2 1_555 1_555
C3_2 C8_2 1_555 1_555
C4_2 C5_2 1_555 1_555
C5_2 C17_2 1_555 1_555
C6_2 C7_2 1_555 1_555
C7_2 O11_2 1_555 1_555
C8_2 O5_2 1_555 1_555
C9_2 C4_2 1_555 1_555
Zn1_2 O1_2 1_555 1_555
O4_2 Zn1_2 1_555 1_555
O5_2 Zn4_2 1_555 1_555
C10_2 C3_2 1_555 1_555
O8_2 C9_2 1_555 1_555
C15_2 C4_2 1_555 1_555
O9_2 C18_2 1_555 1_555
C16_2 C17_2 1_555 1_555
C18_2 C16_2 1_555 1_555
O10_2 C18_2 1_555 1_555
C19_2 C15_2 1_555 1_555
O11_2 Zn3_2 1_555 1_555
C20_2 C6_2 1_555 1_555
Zn2_2 O4_2 1_555 1_555
Zn3_2 O4_2 1_555 1_555
Zn4_2 O4_2 1_555 1_555
O14_2 Zn2_2 1_555 1_555
O15_2 Zn3_2 1_555 1_555
O16_2 Zn3_2 1_555 1_555
O17_2 Zn4_2 1_555 1_555
O18_2 Zn2_2 1_555 1_555
O19_2 Zn4_2 1_555 1_555
Zn5_2 O9_2 1_555 1_555
Zn8_2 O10_2 1_555 1_555
O2_2 Zn1_2 1_555 1_555
O3_2 Zn1_2 1_555 1_555
O8_2 Zn2_2 1_555 1_555
C16_2 C19_2 1_555 1_555
C2_2 H1_2 1_555 1_555
C5_2 H2_2 1_555 1_555
C1_2 H3_2 1_555 1_555
C10_2 H5_2 1_555 1_555
C15_2 H8_2 1_555 1_555
C17_2 H9_2 1_555 1_555
C20_2 H10_2 1_555 1_555
C19_2 H12_2 1_555 1_555
O6_3 C13_3 1_555 1_555
C12_3 C11_3 1_555 1_555
C13_3 C12_3 1_555 1_555
O7_3 C13_3 1_555 1_555
Zn5 O6_3 1_555 1_555
Zn10_3 O7_3 1_555 1_555
C12_3 C14_3 1_555 1_555
C11_3 H4_3 1_555 1_555
C14_3 H11_3 1_555 1_555
O1_3 C8_3 1_555 1_555
O2_3 C9_3 1_555 1_555
O3_3 C7_3 1_555 1_555
C1_3 C3_3 1_555 1_555
C2_3 C6_3 1_555 1_555
C3_3 C8_3 1_555 1_555
C4_3 C5_3 1_555 1_555
C5_3 C17_3 1_555 1_555
C6_3 C7_3 1_555 1_555
C7_3 O11_3 1_555 1_555
C8_3 O5_3 1_555 1_555
C9_3 C4_3 1_555 1_555
Zn1_3 O1_3 1_555 1_555
O4_3 Zn1_3 1_555 1_555
O5_3 Zn4_3 1_555 1_555
C10_3 C3_3 1_555 1_555
O8_3 C9_3 1_555 1_555
C15_3 C4_3 1_555 1_555
O9_3 C18_3 1_555 1_555
C16_3 C17_3 1_555 1_555
C18_3 C16_3 1_555 1_555
O10_3 C18_3 1_555 1_555
C19_3 C15_3 1_555 1_555
O11_3 Zn3_3 1_555 1_555
C20_3 C6_3 1_555 1_555
Zn2_3 O4_3 1_555 1_555
Zn3_3 O4_3 1_555 1_555
Zn4_3 O4_3 1_555 1_555
O14_3 Zn2_3 1_555 1_555
O15_3 Zn3_3 1_555 1_555
O16_3 Zn3_3 1_555 1_555
O17_3 Zn4_3 1_555 1_555
O18_3 Zn2_3 1_555 1_555
O19_3 Zn4_3 1_555 1_555
Zn7 O9_3 1_555 1_555
Zn8_3 O10_3 1_555 1_555
O2_3 Zn1_3 1_555 1_555
O3_3 Zn1_3 1_555 1_555
O8_3 Zn2_3 1_555 1_555
C16_3 C19_3 1_555 1_555
C2_3 H1_3 1_555 1_555
C5_3 H2_3 1_555 1_555
C1_3 H3_3 1_555 1_555
C10_3 H5_3 1_555 1_555
C15_3 H8_3 1_555 1_555
C17_3 H9_3 1_555 1_555
C20_3 H10_3 1_555 1_555
C19_3 H12_3 1_555 1_555
O12_3 C23_3 1_555 1_555
C22_3 C21_3 1_555 1_555
C23_3 C22_3 1_555 1_555
O13_3 C23_3 1_555 1_555
Zn5_2 O12_3 1_555 1_555
Zn9_3 O13_3 1_555 1_555
C22_3 C24_3 1_555 1_555
C21_3 H6_3 1_555 1_555
C24_3 H7_3 1_555 1_555
O12_4 C23_4 1_555 1_555
C22_4 C21_4 1_555 1_555
C23_4 C22_4 1_555 1_555
O13_4 C23_4 1_555 1_555
Zn5 O12_4 1_555 1_555
Zn9_4 O13_4 1_555 1_555
C22_4 C24_4 1_555 1_555
C21_4 H6_4 1_555 1_555
C24_4 H7_4 1_555 1_555
O1_4 C8_4 1_555 1_555
O2_4 C9_4 1_555 1_555
O3_4 C7_4 1_555 1_555
C1_4 C3_4 1_555 1_555
C2_4 C6_4 1_555 1_555
C3_4 C8_4 1_555 1_555
C4_4 C5_4 1_555 1_555
C5_4 C17_4 1_555 1_555
C6_4 C7_4 1_555 1_555
C7_4 O11_4 1_555 1_555
C8_4 O5_4 1_555 1_555
C9_4 C4_4 1_555 1_555
Zn1_4 O1_4 1_555 1_555
O4_4 Zn1_4 1_555 1_555
O5_4 Zn4_4 1_555 1_555
C10_4 C3_4 1_555 1_555
O8_4 C9_4 1_555 1_555
C15_4 C4_4 1_555 1_555
O9_4 C18_4 1_555 1_555
C16_4 C17_4 1_555 1_555
C18_4 C16_4 1_555 1_555
O10_4 C18_4 1_555 1_555
C19_4 C15_4 1_555 1_555
O11_4 Zn3_4 1_555 1_555
C20_4 C6_4 1_555 1_555
Zn2_4 O4_4 1_555 1_555
Zn3_4 O4_4 1_555 1_555
Zn4_4 O4_4 1_555 1_555
O14_4 Zn2_4 1_555 1_555
O15_4 Zn3_4 1_555 1_555
O16_4 Zn3_4 1_555 1_555
O17_4 Zn4_4 1_555 1_555
O18_4 Zn2_4 1_555 1_555
O19_4 Zn4_4 1_555 1_555
Zn6 O9_4 1_555 1_555
Zn8_4 O10_4 1_555 1_555
O2_4 Zn1_4 1_555 1_555
O3_4 Zn1_4 1_555 1_555
O8_4 Zn2_4 1_555 1_555
C16_4 C19_4 1_555 1_555
C2_4 H1_4 1_555 1_555
C5_4 H2_4 1_555 1_555
C1_4 H3_4 1_555 1_555
C10_4 H5_4 1_555 1_555
C15_4 H8_4 1_555 1_555
C17_4 H9_4 1_555 1_555
C20_4 H10_4 1_555 1_555
C19_4 H12_4 1_555 1_555
O6_4 C13_4 1_555 1_555
C12_4 C11_4 1_555 1_555
C13_4 C12_4 1_555 1_555
O7_4 C13_4 1_555 1_555
Zn5_2 O6_4 1_555 1_555
Zn10_4 O7_4 1_555 1_555
C12_4 C14_4 1_555 1_555
C11_4 H4_4 1_555 1_555
C14_4 H11_4 1_555 1_555
O14_2 C8_5 1_555 1_555
O18_2 C7_5 1_555 1_555
C1_5 C3_5 1_555 1_555
C2_5 C6_5 1_555 1_555
C3_5 C8_5 1_555 1_555
C6_5 C7_5 1_555 1_555
C7_5 O19_2 1_555 1_555
C8_5 O15_2 1_555 1_555
C10_5 C3_5 1_555 1_555
O6_5 C13_5 1_555 1_555
C11_5 C1_5 1_555 1_555
C12_5 C11_5 1_555 1_555
C13_5 C12_5 1_555 1_555
O7_5 C13_5 1_555 1_555
C14_5 C10_5 1_555 1_555
C20_5 C6_5 1_555 1_555
O12_5 C23_5 1_555 1_555
C21_5 C2_5 1_555 1_555
C22_5 C21_5 1_555 1_555
C23_5 C22_5 1_555 1_555
O13_5 C23_5 1_555 1_555
C24_5 C20_5 1_555 1_555
Zn8_3 O12_5 1_555 1_555
Zn8_4 O6_5 1_555 1_555
Zn10 O13_5 1_555 1_555
Zn9 O7_5 1_555 1_555
C12_5 C14_5 1_555 1_555
C22_5 C24_5 1_555 1_555
C2_5 H1_5 1_555 1_555
C1_5 H3_5 1_555 1_555
C11_5 H4_5 1_555 1_555
C10_5 H5_5 1_555 1_555
C21_5 H6_5 1_555 1_555
C24_5 H7_5 1_555 1_555
C20_5 H10_5 1_555 1_555
C14_5 H11_5 1_555 1_555
O14 C8_6 1_555 1_555
O18 C7_6 1_555 1_555
C1_6 C3_6 1_555 1_555
C2_6 C6_6 1_555 1_555
C3_6 C8_6 1_555 1_555
C6_6 C7_6 1_555 1_555
C7_6 O19 1_555 1_555
C8_6 O15 1_555 1_555
C10_6 C3_6 1_555 1_555
O6_6 C13_6 1_555 1_555
C11_6 C1_6 1_555 1_555
C12_6 C11_6 1_555 1_555
C13_6 C12_6 1_555 1_555
O7_6 C13_6 1_555 1_555
C14_6 C10_6 1_555 1_555
C20_6 C6_6 1_555 1_555
O12_6 C23_6 1_555 1_555
C21_6 C2_6 1_555 1_555
C22_6 C21_6 1_555 1_555
C23_6 C22_6 1_555 1_555
O13_6 C23_6 1_555 1_555
C24_6 C20_6 1_555 1_555
Zn8_4 O12_6 1_555 1_555
Zn8_3 O6_6 1_555 1_555
Zn10_2 O13_6 1_555 1_555
Zn9_2 O7_6 1_555 1_555
C12_6 C14_6 1_555 1_555
C22_6 C24_6 1_555 1_555
C2_6 H1_6 1_555 1_555
C1_6 H3_6 1_555 1_555
C11_6 H4_6 1_555 1_555
C10_6 H5_6 1_555 1_555
C21_6 H6_6 1_555 1_555
C24_6 H7_6 1_555 1_555
C20_6 H10_6 1_555 1_555
C14_6 H11_6 1_555 1_555
O14_4 C8_7 1_555 1_555
O18_4 C7_7 1_555 1_555
C1_7 C3_7 1_555 1_555
C2_7 C6_7 1_555 1_555
C3_7 C8_7 1_555 1_555
C6_7 C7_7 1_555 1_555
C7_7 O19_4 1_555 1_555
C8_7 O15_4 1_555 1_555
C10_7 C3_7 1_555 1_555
O6_7 C13_7 1_555 1_555
C11_7 C1_7 1_555 1_555
C12_7 C11_7 1_555 1_555
C13_7 C12_7 1_555 1_555
O7_7 C13_7 1_555 1_555
C14_7 C10_7 1_555 1_555
C20_7 C6_7 1_555 1_555
O12_7 C23_7 1_555 1_555
C21_7 C2_7 1_555 1_555
C22_7 C21_7 1_555 1_555
C23_7 C22_7 1_555 1_555
O13_7 C23_7 1_555 1_555
C24_7 C20_7 1_555 1_555
Zn8 O12_7 1_555 1_555
Zn8_2 O6_7 1_555 1_555
Zn10_3 O13_7 1_555 1_555
Zn9_3 O7_7 1_555 1_555
C12_7 C14_7 1_555 1_555
C22_7 C24_7 1_555 1_555
C2_7 H1_7 1_555 1_555
C1_7 H3_7 1_555 1_555
C11_7 H4_7 1_555 1_555
C10_7 H5_7 1_555 1_555
C21_7 H6_7 1_555 1_555
C24_7 H7_7 1_555 1_555
C20_7 H10_7 1_555 1_555
C14_7 H11_7 1_555 1_555
O14_3 C8_8 1_555 1_555
O18_3 C7_8 1_555 1_555
C1_8 C3_8 1_555 1_555
C2_8 C6_8 1_555 1_555
C3_8 C8_8 1_555 1_555
C6_8 C7_8 1_555 1_555
C7_8 O19_3 1_555 1_555
C8_8 O15_3 1_555 1_555
C10_8 C3_8 1_555 1_555
O6_8 C13_8 1_555 1_555
C11_8 C1_8 1_555 1_555
C12_8 C11_8 1_555 1_555
C13_8 C12_8 1_555 1_555
O7_8 C13_8 1_555 1_555
C14_8 C10_8 1_555 1_555
C20_8 C6_8 1_555 1_555
O12_8 C23_8 1_555 1_555
C21_8 C2_8 1_555 1_555
C22_8 C21_8 1_555 1_555
C23_8 C22_8 1_555 1_555
O13_8 C23_8 1_555 1_555
C24_8 C20_8 1_555 1_555
Zn8_2 O12_8 1_555 1_555
Zn8 O6_8 1_555 1_555
Zn10_4 O13_8 1_555 1_555
Zn9_4 O7_8 1_555 1_555
C12_8 C14_8 1_555 1_555
C22_8 C24_8 1_555 1_555
C2_8 H1_8 1_555 1_555
C1_8 H3_8 1_555 1_555
C11_8 H4_8 1_555 1_555
C10_8 H5_8 1_555 1_555
C21_8 H6_8 1_555 1_555
C24_8 H7_8 1_555 1_555
C20_8 H10_8 1_555 1_555
C14_8 H11_8 1_555 1_555
O9_5 C18_5 1_555 1_555
C16_5 C17_5 1_555 1_555
C18_5 C16_5 1_555 1_555
O10_5 C18_5 1_555 1_555
Zn9_2 O9_5 1_555 1_555
Zn10 O10_5 1_555 1_555
C16_5 C19_5 1_555 1_555
C17_5 H9_5 1_555 1_555
C19_5 H12_5 1_555 1_555
O16_3 C9_5 1_555 1_555
C4_5 C5_5 1_555 1_555
C9_5 C4_5 1_555 1_555
O17_3 C9_5 1_555 1_555
C15_5 C4_5 1_555 1_555
C5_5 H2_5 1_555 1_555
C15_5 H8_5 1_555 1_555
O9_6 C18_6 1_555 1_555
C16_6 C17_6 1_555 1_555
C18_6 C16_6 1_555 1_555
O10_6 C18_6 1_555 1_555
Zn9 O9_6 1_555 1_555
Zn10_2 O10_6 1_555 1_555
C16_6 C19_6 1_555 1_555
C17_6 H9_6 1_555 1_555
C19_6 H12_6 1_555 1_555
O16_4 C9_6 1_555 1_555
C4_6 C5_6 1_555 1_555
C9_6 C4_6 1_555 1_555
O17_4 C9_6 1_555 1_555
C15_6 C4_6 1_555 1_555
C5_6 H2_6 1_555 1_555
C15_6 H8_6 1_555 1_555
O16 C9_7 1_555 1_555
C4_7 C5_7 1_555 1_555
C9_7 C4_7 1_555 1_555
O17 C9_7 1_555 1_555
C15_7 C4_7 1_555 1_555
C5_7 H2_7 1_555 1_555
C15_7 H8_7 1_555 1_555
O9_7 C18_7 1_555 1_555
C16_7 C17_7 1_555 1_555
C18_7 C16_7 1_555 1_555
O10_7 C18_7 1_555 1_555
Zn9_4 O9_7 1_555 1_555
Zn10_3 O10_7 1_555 1_555
C16_7 C19_7 1_555 1_555
C17_7 H9_7 1_555 1_555
C19_7 H12_7 1_555 1_555
O16_2 C9_8 1_555 1_555
C4_8 C5_8 1_555 1_555
C9_8 C4_8 1_555 1_555
O17_2 C9_8 1_555 1_555
C15_8 C4_8 1_555 1_555
C5_8 H2_8 1_555 1_555
C15_8 H8_8 1_555 1_555
O9_8 C18_8 1_555 1_555
C16_8 C17_8 1_555 1_555
C18_8 C16_8 1_555 1_555
O10_8 C18_8 1_555 1_555
Zn9_3 O9_8 1_555 1_555
Zn10_4 O10_8 1_555 1_555
C16_8 C19_8 1_555 1_555
C17_8 H9_8 1_555 1_555
C19_8 H12_8 1_555 1_555
O4_5 Zn5_2 1_555 1_555
Zn8_2 O4_5 1_555 1_555
Zn9_3 O4_5 1_555 1_555
Zn10_4 O4_5 1_555 1_555
O4_6 Zn5 1_555 1_555
Zn8 O4_6 1_555 1_555
Zn9_4 O4_6 1_555 1_555
Zn10_3 O4_6 1_555 1_555
O4_7 Zn6 1_555 1_555
Zn8_4 O4_7 1_555 1_555
Zn9 O4_7 1_555 1_555
Zn10_2 O4_7 1_555 1_555
O4_8 Zn7 1_555 1_555
Zn8_3 O4_8 1_555 1_555
Zn9_2 O4_8 1_555 1_555
Zn10 O4_8 1_555 1_555

#END
