
###############################################################################
#
# This file contains modified crystal structure data generated from the
# MOF subset of the Cambridge Structural Database (CSD) v543 
# hosted by the Cambridge Crystallographic Data Centre (CCDC).
#
# This work is licensed under the Creative Commons
# Attribution-NonCommercial-ShareAlike 4.0 International License.
# To view a copy of this license, visit
# http://creativecommons.org/licenses/by-nc-sa/4.0/
# or send a letter to
# Creative Commons, PO Box 1866, Mountain View, CA 94042, USA.
#
# CIF created using the CSD Python API on 29 September 2022
# The structure has been converted into the P1 space group
# The structure has a 3D framework
# The original CSD entry NOFHOG is in the monoclinic crystal system
# The framework has been calculated to contain at least 10.0% void space
# The void calculation uses a probe of radius 1.32A, grid spacing 0.4
#
###############################################################################

data_NOFHOG
_chemical_formula_moiety         '(C108 H84 Eu4 O28 S4)n'
_symmetry_cell_setting           triclinic
_symmetry_space_group_name_H-M   'P 1'
_symmetry_Int_Tables_number      1
_space_group_name_Hall           'P 1'
loop_
_symmetry_equiv_pos_site_id
_symmetry_equiv_pos_as_xyz
1 x,y,z
_cell_length_a                   10.4299(2)
_cell_length_b                   13.5219(3)
_cell_length_c                   31.6642(6)
_cell_angle_alpha                90
_cell_angle_beta                 97.6208(13)
_cell_angle_gamma                90
_cell_volume                     4426.22
loop_
_atom_site_label
_atom_site_type_symbol
_atom_site_fract_x
_atom_site_fract_y
_atom_site_fract_z
Eu6 Eu 0.08448(4) 0.40392(3) 0.961000(13)
O13 O 0.0600(6) 0.3799(5) 0.8793(2)
S1 S 0.4001(4) 0.4101(3) 0.92915(14)
O5 O 0.0692(6) 0.5983(4) 0.9910(2)
O6 O 0.1925(6) 0.5530(5) 0.9427(2)
O7 O 0.1193(9) 0.2394(7) 0.9938(3)
O8 O 0.2927(6) 0.3523(6) 0.9445(2)
C17 C 0.1610(10) 0.6145(7) 0.9696(3)
C18 C 0.2360(9) 0.7091(7) 0.9761(3)
C21 C 0.3828(13) 0.8795(9) 0.9901(4)
C22 C 0.4036(13) 0.8146(9) 0.9558(5)
H11 H 0.4655 0.8294 0.9372
C23 C 0.3289(12) 0.7293(8) 0.9510(4)
H12 H 0.3433 0.6834 0.9294
C24 C 0.4653(12) 0.9634(8) 0.9975(5)
H15 H 0.2769 0.1770 0.9811
C26 C 0.5126(19) 0.3275(16) 0.9204(7)
H16 H 0.4768 0.2819 0.8978
H17 H 0.5395 0.2901 0.9466
H18 H 0.5876 0.3618 0.9117
C27 C 0.352(4) 0.430(3) 0.8761(13)
H19 H 0.3020 0.3729 0.8640
H20 H 0.4278 0.4393 0.8614
H21 H 0.2974 0.4894 0.8726
Eu1 Eu 0.08448(4) 0.09608(3) 0.461000(13)
O2 O 0.2169(6) 0.0684(5) 0.5280(2)
H2 H 0.3649 0.0309 0.7035
C6 C 0.4738(10) 0.1655(9) 0.6330(3)
H3 H 0.5399 0.2123 0.6300
C7 C 0.3858(10) 0.1365(8) 0.5970(3)
H4 H 0.3920 0.1642 0.5698
S2 S 0.4001(4) 0.0899(3) 0.42915(14)
O12 O 0.0600(6) 0.1201(5) 0.3793(2)
O16 O 0.9578(8) 0.2806(5) 0.9182(2)
O21 O 0.1193(9) 0.2606(7) 0.4938(3)
O22 O 0.2927(6) 0.1477(6) 0.4445(2)
C28 C 0.1977(9) 0.0401(7) 0.5637(3)
C29 C 0.2938(9) 0.0697(7) 0.6019(3)
C30 C 0.2844(11) 0.0283(9) 0.6418(3)
C31 C 0.3707(12) 0.0584(10) 0.6763(4)
C32 C 0.4627(11) 0.1255(10) 0.6720(3)
C35 C 0.5502(12) 0.1620(9) 0.7093(3)
C36 C 0.9752(10) 0.3176(7) 0.8831(3)
C37 C 0.8833(10) 0.2834(8) 0.8448(3)
C38 C 0.7752(12) 0.2261(10) 0.8498(3)
H26 H 0.7576 0.2098 0.8776
C39 C 0.6938(13) 0.1928(11) 0.8150(4)
H27 H 0.6252 0.1488 0.8186
C40 C 0.7129(11) 0.2244(10) 0.7742(3)
C41 C 0.8140(12) 0.2850(11) 0.7696(3)
H28 H 0.8266 0.3060 0.7418
C42 C 0.8995(11) 0.3170(9) 0.8042(3)
H29 H 0.9679 0.3611 0.8003
C43 C 0.6263(13) 0.1898(11) 0.7380(4)
C52 C 0.2320(13) 0.3118(8) 0.5060(4)
H34 H 0.2118 0.3756 0.5183
H35 H 0.2877 0.2733 0.5274
H36 H 0.2769 0.3230 0.4811
C53 C 0.5126(19) 0.1725(16) 0.4204(7)
H37 H 0.4768 0.2181 0.3978
H38 H 0.5395 0.2099 0.4466
H39 H 0.5876 0.1382 0.4117
C54 C 0.352(4) 0.070(3) 0.3761(13)
H40 H 0.3020 0.1271 0.3640
H41 H 0.4278 0.0607 0.3614
H42 H 0.2974 0.0106 0.3726
H1 H 0.2199 0.9804 0.6452
O9 O 0.1009(7) 0.9908(5) 0.57225(19)
O14 O 0.0422(8) 0.7806(5) 0.5818(2)
O17 O 0.0692(6) 0.9017(4) 0.4910(2)
O20 O 0.1925(6) 0.9470(5) 0.4427(2)
O1 O 0.8991(7) 0.0092(5) 0.42775(19)
O5_2 O 0.9308(6) 0.0983(4) 0.5090(2)
O6_2 O 0.8075(6) 0.0530(5) 0.5573(2)
C17_2 C 0.8390(10) 0.1145(7) 0.5304(3)
C18_2 C 0.7640(9) 0.2091(7) 0.5239(3)
C19 C 0.7865(11) 0.2724(8) 0.4938(4)
H9 H 0.8526 0.2583 0.4767
C20 C 0.7128(12) 0.3619(9) 0.4865(5)
H10 H 0.7314 0.4078 0.4655
C21_2 C 0.6172(13) 0.3795(9) 0.5099(4)
C22_2 C 0.5964(13) 0.3146(9) 0.5442(5)
H11_2 H 0.5345 0.3294 0.5628
C23_2 C 0.6711(12) 0.2293(8) 0.5490(4)
H12_2 H 0.6567 0.1834 0.5706
C24_2 C 0.5347(12) 0.4634(8) 0.5025(5)
O15 O 0.9578(8) 0.2194(5) 0.4182(2)
H22 H 0.7801 0.0196 0.3548
C44 C 0.1610(10) 0.8855(7) 0.4696(3)
C45 C 0.2360(9) 0.7909(7) 0.4761(3)
C46 C 0.2135(11) 0.7276(8) 0.5062(4)
H30 H 0.1474 0.7417 0.5233
C47 C 0.2872(12) 0.6381(9) 0.5135(5)
H31 H 0.2686 0.5922 0.5345
C48 C 0.3828(13) 0.6205(9) 0.4901(4)
C49 C 0.4036(13) 0.6854(9) 0.4558(5)
H32 H 0.4655 0.6706 0.4372
C50 C 0.3289(12) 0.7707(8) 0.4510(4)
H33 H 0.3433 0.8166 0.4294
C51 C 0.4653(12) 0.5366(8) 0.4975(5)
S1_2 S 0.5999(4) 0.9101(3) 0.57085(14)
O4 O 0.0422(8) 0.7194(5) 0.0818(2)
O7_2 O 0.8807(9) 0.7394(7) 0.5062(3)
O8_2 O 0.7073(6) 0.8523(6) 0.5555(2)
C1 C 0.8023(9) 0.9599(7) 0.4363(3)
C2 C 0.7062(9) 0.9303(7) 0.3981(3)
C3 C 0.7156(11) 0.9717(9) 0.3582(3)
C4 C 0.6293(12) 0.9416(10) 0.3237(4)
C5 C 0.5373(11) 0.8745(10) 0.3280(3)
C8 C 0.4498(12) 0.8380(9) 0.2907(3)
C9 C 0.0248(10) 0.6824(7) 0.1169(3)
C10 C 0.1167(10) 0.7166(8) 0.1552(3)
C11 C 0.2248(12) 0.7739(10) 0.1502(3)
H5 H 0.2424 0.7902 0.1224
C12 C 0.3062(13) 0.8072(11) 0.1850(4)
H6 H 0.3748 0.8512 0.1814
C13 C 0.2871(11) 0.7756(10) 0.2258(3)
C14 C 0.1860(12) 0.7150(11) 0.2304(3)
H7 H 0.1734 0.6940 0.2582
C15 C 0.1005(11) 0.6830(9) 0.1958(3)
H8 H 0.0321 0.6389 0.1997
C16 C 0.3737(13) 0.8102(11) 0.2620(4)
C25 C 0.7680(13) 0.6882(8) 0.4940(4)
H13 H 0.7882 0.6244 0.4817
H14 H 0.7123 0.7267 0.4726
H15_2 H 0.7231 0.6770 0.5189
C26_2 C 0.4874(19) 0.8275(16) 0.5796(7)
H16_2 H 0.5232 0.7819 0.6022
H17_2 H 0.4605 0.7901 0.5534
H18_2 H 0.4124 0.8618 0.5883
C27_2 C 0.648(4) 0.930(3) 0.6239(13)
H19_2 H 0.6980 0.8729 0.6360
H20_2 H 0.5722 0.9393 0.6386
H21_2 H 0.7026 0.9894 0.6274
Eu3 Eu 0.91552(4) 0.90392(3) 0.539000(13)
O10 O 0.7831(6) 0.9316(5) 0.4720(2)
O11 O 0.9400(6) 0.8799(5) 0.6207(2)
H23 H 0.6351 0.9691 0.2965
C33 C 0.5262(10) 0.8345(9) 0.3670(3)
H24 H 0.4601 0.7877 0.3700
C34 C 0.6142(10) 0.8635(8) 0.4030(3)
H25 H 0.6080 0.8358 0.4302
C46_2 C 0.7865(11) 0.2276(8) 0.9938(4)
H30_2 H 0.8526 0.2417 0.9767
C47_2 C 0.7128(12) 0.1381(9) 0.9865(5)
H31_2 H 0.7314 0.0922 0.9655
O1_2 O 0.1009(7) 0.5092(5) 0.07225(19)
C1_2 C 0.1977(9) 0.4599(7) 0.0637(3)
C2_2 C 0.2938(9) 0.4303(7) 0.1019(3)
C3_2 C 0.2844(11) 0.4717(9) 0.1418(3)
C4_2 C 0.3707(12) 0.4416(10) 0.1763(4)
C5_2 C 0.4627(11) 0.3745(10) 0.1720(3)
C8_2 C 0.5502(12) 0.3380(9) 0.2093(3)
C9_2 C 0.9752(10) 0.1824(7) 0.3831(3)
C10_2 C 0.8833(10) 0.2166(8) 0.3448(3)
C11_2 C 0.7752(12) 0.2739(10) 0.3498(3)
H5_2 H 0.7576 0.2902 0.3776
C12_2 C 0.6938(13) 0.3072(11) 0.3150(4)
H6_2 H 0.6252 0.3512 0.3186
C13_2 C 0.7129(11) 0.2756(10) 0.2742(3)
C14_2 C 0.8140(12) 0.2150(11) 0.2696(3)
H7_2 H 0.8266 0.1940 0.2418
C15_2 C 0.8995(11) 0.1830(9) 0.3042(3)
H8_2 H 0.9679 0.1389 0.3003
C16_2 C 0.6263(13) 0.3102(11) 0.2380(4)
C19_2 C 0.2135(11) 0.7724(8) 0.0062(4)
H9_2 H 0.1474 0.7583 0.0233
C20_2 C 0.2872(12) 0.8619(9) 0.0135(5)
H10_2 H 0.2686 0.9078 0.0345
C25_2 C 0.2320(13) 0.1882(8) 0.0060(4)
H13_2 H 0.2118 0.1244 0.0183
H14_2 H 0.2877 0.2267 0.0274
O10_2 O 0.2169(6) 0.4316(5) 0.0280(2)
H22_2 H 0.2199 0.5196 0.1452
H23_2 H 0.3649 0.4691 0.2035
C33_2 C 0.4738(10) 0.3345(9) 0.1330(3)
H24_2 H 0.5399 0.2877 0.1300
C34_2 C 0.3858(10) 0.3635(8) 0.0970(3)
H25_2 H 0.3920 0.3358 0.0698
O2_2 O 0.7831(6) 0.5684(5) 0.9720(2)
H1_2 H 0.7801 0.4804 0.8548
H2_2 H 0.6351 0.5309 0.7965
C6_2 C 0.5262(10) 0.6655(9) 0.8670(3)
H3_2 H 0.4601 0.7123 0.8700
C7_2 C 0.6142(10) 0.6365(8) 0.9030(3)
H4_2 H 0.6080 0.6642 0.9302
O9_2 O 0.8991(7) 0.4908(5) 0.92775(19)
C28_2 C 0.8023(9) 0.5401(7) 0.9363(3)
C29_2 C 0.7062(9) 0.5697(7) 0.8981(3)
C30_2 C 0.7156(11) 0.5283(9) 0.8582(3)
C31_2 C 0.6293(12) 0.5584(10) 0.8237(4)
C32_2 C 0.5373(11) 0.6255(10) 0.8280(3)
C35_2 C 0.4498(12) 0.6620(9) 0.7907(3)
C36_2 C 0.0248(10) 0.8176(7) 0.6169(3)
C37_2 C 0.1167(10) 0.7834(8) 0.6552(3)
C38_2 C 0.2248(12) 0.7261(10) 0.6502(3)
H26_2 H 0.2424 0.7098 0.6224
C39_2 C 0.3062(13) 0.6928(11) 0.6850(4)
H27_2 H 0.3748 0.6488 0.6814
C40_2 C 0.2871(11) 0.7244(10) 0.7258(3)
C41_2 C 0.1860(12) 0.7850(11) 0.7304(3)
H28_2 H 0.1734 0.8060 0.7582
C42_2 C 0.1005(11) 0.8170(9) 0.6958(3)
H29_2 H 0.0321 0.8611 0.6997
C43_2 C 0.3737(13) 0.6898(11) 0.7620(4)
C52_2 C 0.7680(13) 0.8118(8) 0.9940(4)
H34_2 H 0.7882 0.8756 0.9817
H35_2 H 0.7123 0.7733 0.9726
O3 O 0.9400(6) 0.6201(5) 0.1207(2)
Eu2 Eu 0.91552(4) 0.59608(3) 0.039000(13)
O18 O 0.9308(6) 0.4017(4) 0.0090(2)
O19 O 0.8075(6) 0.4470(5) 0.0573(2)
C44_2 C 0.8390(10) 0.3855(7) 0.0304(3)
C45_2 C 0.7640(9) 0.2909(7) 0.0239(3)
C48_2 C 0.6172(13) 0.1205(9) 0.0099(4)
C49_2 C 0.5964(13) 0.1854(9) 0.0442(5)
H32_2 H 0.5345 0.1706 0.0628
C50_2 C 0.6711(12) 0.2707(8) 0.0490(4)
H33_2 H 0.6567 0.3166 0.0706
C51_2 C 0.5347(12) 0.0366(8) 0.0025(5)
S2_2 S 0.5999(4) 0.5899(3) 0.07085(14)
O21_2 O 0.8807(9) 0.7606(7) 0.0062(3)
O22_2 O 0.7073(6) 0.6477(6) 0.0555(2)
H36_2 H 0.7231 0.8230 0.0189
C53_2 C 0.4874(19) 0.6725(16) 0.0796(7)
H37_2 H 0.5232 0.7181 0.1022
H38_2 H 0.4605 0.7099 0.0534
H39_2 H 0.4124 0.6382 0.0883
C54_2 C 0.648(4) 0.570(3) 0.1239(13)
H40_2 H 0.6980 0.6271 0.1360
H41_2 H 0.5722 0.5607 0.1386
H42_2 H 0.7026 0.5106 0.1274
loop_
_geom_bond_atom_site_label_1
_geom_bond_atom_site_label_2
_geom_bond_site_symmetry_1
_geom_bond_site_symmetry_2
Eu6 O13 1_555 1_555
S1 O8 1_555 1_555
O6 C17 1_555 1_555
O8 Eu6 1_555 1_555
C17 O5 1_555 1_555
C18 C17 1_555 1_555
C22 C21 1_555 1_555
H11 C22 1_555 1_555
C23 C18 1_555 1_555
H12 C23 1_555 1_555
C24 C21 1_555 1_555
C26 S1 1_555 1_555
H16 C26 1_555 1_555
H17 C26 1_555 1_555
H18 C26 1_555 1_555
C27 S1 1_555 1_555
H19 C27 1_555 1_555
H20 C27 1_555 1_555
H21 C27 1_555 1_555
Eu6 O5 1_555 1_555
O6 Eu6 1_555 1_555
O7 Eu6 1_555 1_555
C22 C23 1_555 1_555
O2 Eu1 1_555 1_555
H2 C31 1_555 1_555
C6 H3 1_555 1_555
C7 C6 1_555 1_555
H4 C7 1_555 1_555
S2 O22 1_555 1_555
O12 Eu1 1_555 1_555
O21 Eu1 1_555 1_555
O22 Eu1 1_555 1_555
C28 O2 1_555 1_555
C29 C7 1_555 1_555
C30 C29 1_555 1_555
C31 C30 1_555 1_555
C32 C6 1_555 1_555
C35 C32 1_555 1_555
C36 O16 1_555 1_555
C37 C36 1_555 1_555
C38 C37 1_555 1_555
H26 C38 1_555 1_555
C39 C38 1_555 1_555
H27 C39 1_555 1_555
C40 C39 1_555 1_555
C41 C40 1_555 1_555
H28 C41 1_555 1_555
C42 C37 1_555 1_555
H29 C42 1_555 1_555
C43 C35 1_555 1_555
C52 O21 1_555 1_555
H34 C52 1_555 1_555
H35 C52 1_555 1_555
H36 C52 1_555 1_555
C53 S2 1_555 1_555
H37 C53 1_555 1_555
H38 C53 1_555 1_555
H39 C53 1_555 1_555
C54 S2 1_555 1_555
H40 C54 1_555 1_555
H41 C54 1_555 1_555
H42 C54 1_555 1_555
C28 C29 1_555 1_555
C31 C32 1_555 1_555
C40 C43 1_555 1_555
C41 C42 1_555 1_555
O6_2 C17_2 1_555 1_555
C17_2 O5_2 1_555 1_555
C18_2 C17_2 1_555 1_555
C19 C18_2 1_555 1_555
H9 C19 1_555 1_555
C20 C19 1_555 1_555
H10 C20 1_555 1_555
C21_2 C20 1_555 1_555
C22_2 C21_2 1_555 1_555
H11_2 C22_2 1_555 1_555
C23_2 C18_2 1_555 1_555
H12_2 C23_2 1_555 1_555
C24_2 C21_2 1_555 1_555
O17 C44 1_555 1_555
C44 O20 1_555 1_555
C45 C44 1_555 1_555
C46 C45 1_555 1_555
H30 C46 1_555 1_555
C47 C46 1_555 1_555
H31 C47 1_555 1_555
C48 C47 1_555 1_555
C49 C48 1_555 1_555
H32 C49 1_555 1_555
C50 C45 1_555 1_555
H33 C50 1_555 1_555
C51 C24_2 1_555 1_555
C22_2 C23_2 1_555 1_555
C48 C51 1_555 1_555
C49 C50 1_555 1_555
S1_2 O8_2 1_555 1_555
O4 C9 1_555 1_555
O7_2 C25 1_555 1_555
O8_2 Eu3 1_555 1_555
C1 C2 1_555 1_555
C2 C3 1_555 1_555
C3 C4 1_555 1_555
C4 C5 1_555 1_555
C5 C8 1_555 1_555
C8 C16 1_555 1_555
C9 C10 1_555 1_555
C10 C11 1_555 1_555
C11 H5 1_555 1_555
C12 C11 1_555 1_555
H6 C12 1_555 1_555
C13 C12 1_555 1_555
C14 C13 1_555 1_555
H7 C14 1_555 1_555
C15 C10 1_555 1_555
H8 C15 1_555 1_555
C16 C13 1_555 1_555
C25 H13 1_555 1_555
H14 C25 1_555 1_555
H15_2 C25 1_555 1_555
C26_2 S1_2 1_555 1_555
H16_2 C26_2 1_555 1_555
H17_2 C26_2 1_555 1_555
H18_2 C26_2 1_555 1_555
C27_2 S1_2 1_555 1_555
H19_2 C27_2 1_555 1_555
H20_2 C27_2 1_555 1_555
H21_2 C27_2 1_555 1_555
O10 C1 1_555 1_555
O11 Eu3 1_555 1_555
H23 C4 1_555 1_555
C33 C5 1_555 1_555
H24 C33 1_555 1_555
C34 C2 1_555 1_555
H25 C34 1_555 1_555
O7_2 Eu3 1_555 1_555
C14 C15 1_555 1_555
Eu3 O10 1_555 1_555
C33 C34 1_555 1_555
H30_2 C46_2 1_555 1_555
C47_2 C46_2 1_555 1_555
H31_2 C47_2 1_555 1_555
O1_2 C1_2 1_555 1_555
O15 C9_2 1_555 1_555
C1_2 C2_2 1_555 1_555
C2_2 C3_2 1_555 1_555
C3_2 C4_2 1_555 1_555
C4_2 C5_2 1_555 1_555
C5_2 C8_2 1_555 1_555
C8_2 C16_2 1_555 1_555
C9_2 C10_2 1_555 1_555
C10_2 C11_2 1_555 1_555
C11_2 H5_2 1_555 1_555
C12_2 C11_2 1_555 1_555
H6_2 C12_2 1_555 1_555
C13_2 C12_2 1_555 1_555
C14_2 C13_2 1_555 1_555
H7_2 C14_2 1_555 1_555
C15_2 C10_2 1_555 1_555
H8_2 C15_2 1_555 1_555
C16_2 C13_2 1_555 1_555
H9_2 C19_2 1_555 1_555
C20_2 C19_2 1_555 1_555
H10_2 C20_2 1_555 1_555
C25_2 H13_2 1_555 1_555
H14_2 C25_2 1_555 1_555
O10_2 C1_2 1_555 1_555
H22_2 C3_2 1_555 1_555
H23_2 C4_2 1_555 1_555
C33_2 C5_2 1_555 1_555
H24_2 C33_2 1_555 1_555
C34_2 C2_2 1_555 1_555
H25_2 C34_2 1_555 1_555
C14_2 C15_2 1_555 1_555
C33_2 C34_2 1_555 1_555
H1_2 C30_2 1_555 1_555
H2_2 C31_2 1_555 1_555
C6_2 H3_2 1_555 1_555
C7_2 C6_2 1_555 1_555
H4_2 C7_2 1_555 1_555
C28_2 O2_2 1_555 1_555
C29_2 C7_2 1_555 1_555
C30_2 C29_2 1_555 1_555
C31_2 C30_2 1_555 1_555
C32_2 C6_2 1_555 1_555
C35_2 C32_2 1_555 1_555
C36_2 O14 1_555 1_555
C37_2 C36_2 1_555 1_555
C38_2 C37_2 1_555 1_555
H26_2 C38_2 1_555 1_555
C39_2 C38_2 1_555 1_555
H27_2 C39_2 1_555 1_555
C40_2 C39_2 1_555 1_555
C41_2 C40_2 1_555 1_555
H28_2 C41_2 1_555 1_555
C42_2 C37_2 1_555 1_555
H29_2 C42_2 1_555 1_555
C43_2 C35_2 1_555 1_555
H34_2 C52_2 1_555 1_555
H35_2 C52_2 1_555 1_555
O9_2 C28_2 1_555 1_555
C28_2 C29_2 1_555 1_555
C31_2 C32_2 1_555 1_555
C40_2 C43_2 1_555 1_555
C41_2 C42_2 1_555 1_555
Eu2 O3 1_555 1_555
Eu2 O18 1_555 1_555
O18 C44_2 1_555 1_555
O19 Eu2 1_555 1_555
C44_2 O19 1_555 1_555
C45_2 C44_2 1_555 1_555
C49_2 C48_2 1_555 1_555
H32_2 C49_2 1_555 1_555
C50_2 C45_2 1_555 1_555
H33_2 C50_2 1_555 1_555
C48_2 C51_2 1_555 1_555
C49_2 C50_2 1_555 1_555
S2_2 O22_2 1_555 1_555
O21_2 Eu2 1_555 1_555
O22_2 Eu2 1_555 1_555
C53_2 S2_2 1_555 1_555
H37_2 C53_2 1_555 1_555
H38_2 C53_2 1_555 1_555
H39_2 C53_2 1_555 1_555
C54_2 S2_2 1_555 1_555
H40_2 C54_2 1_555 1_555
H41_2 C54_2 1_555 1_555
H42_2 C54_2 1_555 1_555

#END
