
###############################################################################
#
# This file contains modified crystal structure data generated from the
# MOF subset of the Cambridge Structural Database (CSD) v543 
# hosted by the Cambridge Crystallographic Data Centre (CCDC).
#
# This work is licensed under the Creative Commons
# Attribution-NonCommercial-ShareAlike 4.0 International License.
# To view a copy of this license, visit
# http://creativecommons.org/licenses/by-nc-sa/4.0/
# or send a letter to
# Creative Commons, PO Box 1866, Mountain View, CA 94042, USA.
#
# CIF created using the CSD Python API on 29 September 2022
# The structure has been converted into the P1 space group
# The structure has a 3D framework
# The original CSD entry NOFQII is in the hexagonal crystal system
# The framework has been calculated to contain at least 10.0% void space
# The void calculation uses a probe of radius 1.32A, grid spacing 0.4
# H atom positions have been added when not included in the experimental data
# Generated hydrogen atom positions removed from atoms on special positions
#
###############################################################################

data_NOFQII
_chemical_formula_moiety         '(C24 H84 Eu12 La2 O45)n'
_symmetry_cell_setting           triclinic
_symmetry_space_group_name_H-M   'P 1'
_symmetry_Int_Tables_number      1
_space_group_name_Hall           'P 1'
loop_
_symmetry_equiv_pos_site_id
_symmetry_equiv_pos_as_xyz
1 x,y,z
_cell_length_a                   9.295(1)
_cell_length_b                   9.295(1)
_cell_length_c                   17.689(3)
_cell_angle_alpha                90
_cell_angle_beta                 90
_cell_angle_gamma                120
_cell_volume                     1323.53
loop_
_atom_site_label
_atom_site_type_symbol
_atom_site_fract_x
_atom_site_fract_y
_atom_site_fract_z
La1 La 0.6667 0.3333 0.2500
Eu1 Eu 0.0000 0.0000 0.0000
C1 C 0.3444(7) 0.1842(16) 0.1050(3)
C2 C 0.3972(9) 0.0916(10) 0.0531(4)
H1 H 0.4270(9) 0.0254(10) 0.0828(4)
H2 H 0.4910(9) 0.1673(10) 0.0244(4)
O1 O 0.4416(6) 0.2683(6) 0.1557(2)
O2 O 0.2062(5) 0.1727(6) 0.0932(3)
O3 O 0.2677(7) 0.0000 0.0000
O6 O 0.0000 0.2677(7) 0.0000
H15 H 0.0432264 0.508403 0.295835
H16 H 0.00935887 0.343261 0.25
Eu1_2 Eu 0.0000 0.0000 1.0000
O3_2 O 0.2677(7) 0.0000 1.0000
O6_2 O -0.0000 0.2677(7) 1.0000
O9 O 0.1727(6) 0.2062(5) 0.9068(3)
C7 C 0.1842(16) 0.3444(7) 0.8950(3)
C8 C 0.0916(10) 0.3972(9) 0.9469(4)
H7 H 0.0254(10) 0.4270(9) 0.9172(4)
H8 H 0.1673(10) 0.4910(9) 0.9756(4)
O10 O 0.2683(6) 0.4416(6) 0.8443(2)
La2 La 0.3333 0.6667 0.7500
Eu1_3 Eu 0.0000 1.0000 0.0000
O3_3 O 0.2677(7) 1.0000 0.0000
Eu1_4 Eu -0.0000 1.0000 1.0000
O3_4 O 0.2677(7) 1.0000 1.0000
O19 O 0.0335(8) 0.8273(6) 0.9068(3)
C9 C 0.1602(17) 0.8158(16) 0.8950(3)
C10 C 0.3056(13) 0.9084(10) 0.9469(4)
H9 H 0.4016(13) 0.9746(10) 0.9172(4)
H10 H 0.3237(13) 0.8327(10) 0.9756(4)
O20 O 0.1733(8) 0.7317(6) 0.8443(2)
Eu1_5 Eu 1.0000 0.0000 0.0000
O4 O 0.5599(9) 0.5515(9) 0.2500
O5 O 0.8273(6) 0.0335(8) 0.0932(3)
C3 C 0.8158(16) 0.1602(17) 0.1050(3)
C4 C 0.9084(10) 0.3056(13) 0.0531(4)
H3 H 0.9746(10) 0.4016(13) 0.0828(4)
H4 H 0.8327(10) 0.3237(13) 0.0244(4)
O6_3 O 1.0000 0.2677(7) 0.0000
O11 O 0.8267(8) 0.5584(6) 0.1557(2)
O13 O 0.7317(6) 0.1733(8) 0.1557(2)
O14 O 0.8267(8) 0.5584(6) 0.3443(2)
O15 O 0.4416(6) 0.2683(6) 0.3443(2)
O16 O 0.7317(6) 0.1733(8) 0.3443(2)
O17 O 0.4485(9) 0.0084(13) 0.2500
O18 O 0.9916(13) 0.4401(9) 0.2500
Eu1_6 Eu 1.0000 0.0000 1.0000
O6_4 O 1.0000 0.2677(7) 1.0000
Eu1_7 Eu 1.0000 1.0000 0.0000
O7 O 0.9665(8) 0.7938(5) 0.0932(3)
C5 C 0.8398(17) 0.6556(7) 0.1050(3)
C6 C 0.6944(13) 0.6028(9) 0.0531(4)
H5 H 0.5984(13) 0.5730(9) 0.0828(4)
H6 H 0.6763(13) 0.5090(9) 0.0244(4)
O8 O 0.7323(7) 0.7323(7) 0.0000
H17 H 0.377659 0.979345 0.204165
H18 H 0.508947 0.945496 0.25
Eu1_8 Eu 1.0000 1.0000 1.0000
O8_2 O 0.7323(7) 0.7323(7) 1.0000
O21 O 0.7938(5) 0.9665(8) 0.9068(3)
C11 C 0.6556(7) 0.8398(17) 0.8950(3)
C12 C 0.6028(9) 0.6944(13) 0.9469(4)
H11 H 0.5730(9) 0.5984(13) 0.9172(4)
H12 H 0.5090(9) 0.6763(13) 0.9756(4)
O22 O 0.5584(6) 0.8267(8) 0.8443(2)
H17_2 H 0.0206554 0.398315 0.204165
H18_2 H 0.0545036 0.56345 0.25
H15_2 H 0.465176 0.956774 0.295835
H16_2 H 0.333902 0.990641 0.25
Eu1_9 Eu 0.0000 0.0000 0.5000
C1_2 C 0.3444(7) 0.1842(16) 0.3950(3)
C2_2 C 0.3972(9) 0.0916(10) 0.4469(4)
H1_2 H 0.4270(9) 0.0254(10) 0.4172(4)
H2_2 H 0.4910(9) 0.1673(10) 0.4756(4)
O2_2 O 0.2062(5) 0.1727(6) 0.4068(3)
O3_5 O 0.2677(7) 0.0000 0.5000
O6_5 O -0.0000 0.2677(7) 0.5000
O9_2 O 0.1727(6) 0.2062(5) 0.5932(3)
C7_2 C 0.1842(16) 0.3444(7) 0.6050(3)
C8_2 C 0.0916(10) 0.3972(9) 0.5531(4)
H7_2 H 0.0254(10) 0.4270(9) 0.5828(4)
H8_2 H 0.1673(10) 0.4910(9) 0.5244(4)
O10_2 O 0.2683(6) 0.4416(6) 0.6557(2)
H15_3 H 0.0432264 0.508403 0.204165
Eu1_10 Eu 0.0000 1.0000 0.5000
O3_6 O 0.2677(7) 1.0000 0.5000
O19_2 O 0.0335(8) 0.8273(6) 0.5932(3)
C9_2 C 0.1602(17) 0.8158(16) 0.6050(3)
C10_2 C 0.3056(13) 0.9084(10) 0.5531(4)
H9_2 H 0.4016(13) 0.9746(10) 0.5828(4)
H10_2 H 0.3237(13) 0.8327(10) 0.5244(4)
O20_2 O 0.1733(8) 0.7317(6) 0.6557(2)
Eu1_11 Eu 1.0000 0.0000 0.5000
O5_2 O 0.8273(6) 0.0335(8) 0.4068(3)
C3_2 C 0.8158(16) 0.1602(17) 0.3950(3)
C4_2 C 0.9084(10) 0.3056(13) 0.4469(4)
H3_2 H 0.9746(10) 0.4016(13) 0.4172(4)
H4_2 H 0.8327(10) 0.3237(13) 0.4756(4)
O6_6 O 1.0000 0.2677(7) 0.5000
Eu1_12 Eu 1.0000 1.0000 0.5000
O7_2 O 0.9665(8) 0.7938(5) 0.4068(3)
C5_2 C 0.8398(17) 0.6556(7) 0.3950(3)
C6_2 C 0.6944(13) 0.6028(9) 0.4469(4)
H5_2 H 0.5984(13) 0.5730(9) 0.4172(4)
H6_2 H 0.6763(13) 0.5090(9) 0.4756(4)
O8_3 O 0.7323(7) 0.7323(7) 0.5000
O21_2 O 0.7938(5) 0.9665(8) 0.5932(3)
C11_2 C 0.6556(7) 0.8398(17) 0.6050(3)
C12_2 C 0.6028(9) 0.6944(13) 0.5531(4)
H11_2 H 0.5730(9) 0.5984(13) 0.5828(4)
H12_2 H 0.5090(9) 0.6763(13) 0.5244(4)
O22_2 O 0.5584(6) 0.8267(8) 0.6557(2)
H17_3 H 0.377659 0.979345 0.295835
H17_4 H 0.0206554 0.398315 0.295835
H15_4 H 0.465176 0.956774 0.204165
H15_5 H 0.508403 0.0432264 0.704165
H16_3 H 0.343261 0.00935887 0.75
O4_2 O 0.5515(9) 0.5599(9) 0.7500
O17_2 O 0.0084(13) 0.4485(9) 0.7500
O18_2 O 0.4401(9) 0.9916(13) 0.7500
H17_5 H 0.979345 0.377659 0.795835
H18_3 H 0.945496 0.508947 0.75
H17_6 H 0.398315 0.0206554 0.795835
H18_4 H 0.56345 0.0545036 0.75
H15_6 H 0.956774 0.465176 0.704165
H16_4 H 0.990641 0.333902 0.75
H15_7 H 0.508403 0.0432264 0.795835
H17_7 H 0.979345 0.377659 0.704165
H17_8 H 0.398315 0.0206554 0.704165
H15_8 H 0.956774 0.465176 0.795835
H13 H 0.444405 0.962124 0.198934
H14 H 0.483027 0.952147 0.287578
H13_2 H 0.0378758 0.482281 0.198934
H14_2 H 0.0478532 0.53088 0.287578
H13_3 H 0.444405 0.962124 0.301066
H14_3 H 0.483027 0.952147 0.212422
H13_4 H 0.0378758 0.482281 0.301066
H14_4 H 0.0478532 0.53088 0.212422
H13_5 H 0.962124 0.444405 0.801066
H14_5 H 0.952147 0.483027 0.712422
H13_6 H 0.482281 0.0378758 0.801066
H14_6 H 0.53088 0.0478532 0.712422
H13_7 H 0.962124 0.444405 0.698934
H14_7 H 0.952147 0.483027 0.787578
H13_8 H 0.482281 0.0378758 0.698934
H14_8 H 0.53088 0.0478532 0.787578
loop_
_geom_bond_atom_site_label_1
_geom_bond_atom_site_label_2
_geom_bond_site_symmetry_1
_geom_bond_site_symmetry_2
La1 O1 1_555 1_555
Eu1 O2 1_555 1_555
C1 C2 1_555 1_555
C2 H1 1_555 1_555
H2 C2 1_555 1_555
O1 C1 1_555 1_555
O2 C1 1_555 1_555
O3 Eu1 1_555 1_555
O6 Eu1 1_555 1_555
C2 O3 1_555 1_555
O3_2 Eu1_2 1_555 1_555
O6_2 Eu1_2 1_555 1_555
O9 Eu1_2 1_555 1_555
C7 O9 1_555 1_555
C8 O6_2 1_555 1_555
H7 C8 1_555 1_555
H8 C8 1_555 1_555
O10 C7 1_555 1_555
La2 O10 1_555 1_555
C7 C8 1_555 1_555
O3_3 Eu1_3 1_555 1_555
O3_4 Eu1_4 1_555 1_555
O19 Eu1_4 1_555 1_555
C9 O19 1_555 1_555
C10 O3_4 1_555 1_555
H9 C10 1_555 1_555
H10 C10 1_555 1_555
O20 C9 1_555 1_555
La2 O20 1_555 1_555
C9 C10 1_555 1_555
O4 La1 1_555 1_555
O5 Eu1_5 1_555 1_555
C3 O5 1_555 1_555
C4 C3 1_555 1_555
H3 C4 1_555 1_555
H4 C4 1_555 1_555
O6_3 Eu1_5 1_555 1_555
O11 La1 1_555 1_555
O13 C3 1_555 1_555
O14 La1 1_555 1_555
O15 La1 1_555 1_555
O16 La1 1_555 1_555
O17 La1 1_555 1_555
O18 La1 1_555 1_555
C4 O6_3 1_555 1_555
La1 O13 1_555 1_555
O6_4 Eu1_6 1_555 1_555
O7 Eu1_7 1_555 1_555
C5 O7 1_555 1_555
C6 C5 1_555 1_555
H5 C6 1_555 1_555
H6 C6 1_555 1_555
O8 Eu1_7 1_555 1_555
O11 C5 1_555 1_555
C6 O8 1_555 1_555
O8_2 Eu1_8 1_555 1_555
O21 Eu1_8 1_555 1_555
C11 O21 1_555 1_555
C12 O8_2 1_555 1_555
H11 C12 1_555 1_555
H12 C12 1_555 1_555
O22 C11 1_555 1_555
La2 O22 1_555 1_555
C11 C12 1_555 1_555
Eu1_9 O2_2 1_555 1_555
C1_2 C2_2 1_555 1_555
C2_2 H1_2 1_555 1_555
H2_2 C2_2 1_555 1_555
O15 C1_2 1_555 1_555
O2_2 C1_2 1_555 1_555
O3_5 Eu1_9 1_555 1_555
O6_5 Eu1_9 1_555 1_555
O9_2 Eu1_9 1_555 1_555
C7_2 O9_2 1_555 1_555
C8_2 O6_5 1_555 1_555
H7_2 C8_2 1_555 1_555
H8_2 C8_2 1_555 1_555
O10_2 C7_2 1_555 1_555
La2 O10_2 1_555 1_555
C2_2 O3_5 1_555 1_555
C7_2 C8_2 1_555 1_555
O3_6 Eu1_10 1_555 1_555
O19_2 Eu1_10 1_555 1_555
C9_2 O19_2 1_555 1_555
C10_2 O3_6 1_555 1_555
H9_2 C10_2 1_555 1_555
H10_2 C10_2 1_555 1_555
O20_2 C9_2 1_555 1_555
La2 O20_2 1_555 1_555
C9_2 C10_2 1_555 1_555
O5_2 Eu1_11 1_555 1_555
C3_2 O5_2 1_555 1_555
C4_2 C3_2 1_555 1_555
H3_2 C4_2 1_555 1_555
H4_2 C4_2 1_555 1_555
O6_6 Eu1_11 1_555 1_555
O16 C3_2 1_555 1_555
C4_2 O6_6 1_555 1_555
O7_2 Eu1_12 1_555 1_555
C5_2 O7_2 1_555 1_555
C6_2 C5_2 1_555 1_555
H5_2 C6_2 1_555 1_555
H6_2 C6_2 1_555 1_555
O8_3 Eu1_12 1_555 1_555
O21_2 Eu1_12 1_555 1_555
C11_2 O21_2 1_555 1_555
C12_2 O8_3 1_555 1_555
H11_2 C12_2 1_555 1_555
H12_2 C12_2 1_555 1_555
O22_2 C11_2 1_555 1_555
La2 O22_2 1_555 1_555
O14 C5_2 1_555 1_555
C6_2 O8_3 1_555 1_555
C11_2 C12_2 1_555 1_555
O4_2 La2 1_555 1_555
O17_2 La2 1_555 1_555
O18_2 La2 1_555 1_555

#END
