
###############################################################################
#
# This file contains modified crystal structure data generated from the
# MOF subset of the Cambridge Structural Database (CSD) v543 
# hosted by the Cambridge Crystallographic Data Centre (CCDC).
#
# This work is licensed under the Creative Commons
# Attribution-NonCommercial-ShareAlike 4.0 International License.
# To view a copy of this license, visit
# http://creativecommons.org/licenses/by-nc-sa/4.0/
# or send a letter to
# Creative Commons, PO Box 1866, Mountain View, CA 94042, USA.
#
# CIF created using the CSD Python API on 29 September 2022
# The structure has been converted into the P1 space group
# The structure has a 3D framework
# The original CSD entry NOFQEG is in the orthorhombic crystal system
# The framework has been calculated to contain at least 10.0% void space
# The void calculation uses a probe of radius 1.32A, grid spacing 0.4
#
###############################################################################

data_NOFQEG
_chemical_formula_moiety         '(C40 H56 Cu4 I4 N16)n'
_symmetry_cell_setting           triclinic
_symmetry_space_group_name_H-M   'P 1'
_symmetry_Int_Tables_number      1
_space_group_name_Hall           'P 1'
loop_
_symmetry_equiv_pos_site_id
_symmetry_equiv_pos_as_xyz
1 x,y,z
_cell_length_a                   17.4661(16)
_cell_length_b                   12.7435(11)
_cell_length_c                   7.2505(6)
_cell_angle_alpha                90
_cell_angle_beta                 90
_cell_angle_gamma                90
_cell_volume                     1613.81
loop_
_atom_site_label
_atom_site_type_symbol
_atom_site_fract_x
_atom_site_fract_y
_atom_site_fract_z
C1 C 0.3894(5) 0.5465(6) 0.2245(11)
H1 H 0.3510 0.5963 0.2607
H2 H 0.3724 0.5092 0.1170
H3 H 0.4362 0.5828 0.1970
C2 C 0.4027(3) 0.4711(4) 0.3771(7)
C3 C 0.4655(2) 0.4651(3) 0.4967(5)
C4 C 0.4509(2) 0.3846(4) 0.6123(7)
C5 C 0.4970(7) 0.3371(7) 0.7688(10)
H4 H 0.4898 0.2624 0.7702
H5 H 0.4802 0.3662 0.8839
H6 H 0.5503 0.3526 0.7512
N1 N 0.3523(2) 0.3957(3) 0.4174(5)
N2 N 0.3833(2) 0.3443(3) 0.5606(6)
H7 H 0.3621 0.2913 0.6134
Cu1 Cu 0.2500 0.35345(7) 0.31849(17)
I1 I 0.2500 0.14410(2) 0.45323(2)
C6 C 0.6106(5) 0.4535(6) 0.2245(11)
H8 H 0.6490 0.4037 0.2607
H9 H 0.6276 0.4908 0.1170
H10 H 0.5638 0.4172 0.1970
C7 C 0.5973(3) 0.5289(4) 0.3771(7)
C8 C 0.5345(2) 0.5349(3) 0.4967(5)
C9 C 0.5491(2) 0.6154(4) 0.6123(7)
C10 C 0.5030(7) 0.6629(7) 0.7688(10)
H11 H 0.5102 0.7376 0.7702
H12 H 0.5198 0.6338 0.8839
H13 H 0.4497 0.6474 0.7512
N3 N 0.6477(2) 0.6043(3) 0.4174(5)
N4 N 0.6167(2) 0.6557(3) 0.5606(6)
H14 H 0.6379 0.7087 0.6134
N5 N 0.1477(2) 0.3957(3) 0.4174(5)
Cu2 Cu 0.7500 0.64655(7) 0.31849(17)
Cu3 Cu 0.2500 0.14655(7) 0.81849(17)
I2 I 0.2500 0.35590(2) 0.95323(2)
I1_2 I 0.7500 0.85590(2) 0.45323(2)
N5_2 N 0.8523(2) 0.6043(3) 0.4174(5)
Cu3_2 Cu 0.7500 0.85345(7) 0.81849(17)
I2_2 I 0.7500 0.64410(2) 0.95323(2)
H6_2 H 0.0503 0.6474 0.7512
C6_2 C 0.1106(5) 0.5465(6) 0.2245(11)
H8_2 H 0.1490 0.5963 0.2607
H9_2 H 0.1276 0.5092 0.1170
H10_2 H 0.0638 0.5828 0.1970
C7_2 C 0.0973(3) 0.4711(4) 0.3771(7)
C8_2 C 0.0345(2) 0.4651(3) 0.4967(5)
C9_2 C 0.0491(2) 0.3846(4) 0.6123(7)
C10_2 C 0.0030(7) 0.3371(7) 0.7688(10)
H11_2 H 0.0102 0.2624 0.7702
H12_2 H 0.0198 0.3662 0.8839
N4_2 N 0.1167(2) 0.3443(3) 0.5606(6)
H14_2 H 0.1379 0.2913 0.6134
C1_2 C 0.8894(5) 0.4535(6) 0.2245(11)
H1_2 H 0.8510 0.4037 0.2607
H2_2 H 0.8724 0.4908 0.1170
H3_2 H 0.9362 0.4172 0.1970
C2_2 C 0.9027(3) 0.5289(4) 0.3771(7)
C3_2 C 0.9655(2) 0.5349(3) 0.4967(5)
C4_2 C 0.9509(2) 0.6154(4) 0.6123(7)
C5_2 C 0.9970(7) 0.6629(7) 0.7688(10)
H4_2 H 0.9898 0.7376 0.7702
H5_2 H 0.9802 0.6338 0.8839
N2_2 N 0.8833(2) 0.6557(3) 0.5606(6)
H7_2 H 0.8621 0.7087 0.6134
H13_2 H 0.9497 0.3526 0.7512
C9_3 C 0.0491(2) 0.1154(4) 0.1123(7)
C10_3 C 0.0030(7) 0.1629(7) 0.2688(10)
H11_3 H 0.0102 0.2376 0.2702
H12_3 H 0.0198 0.1338 0.3839
N4_3 N 0.1167(2) 0.1557(3) 0.0606(6)
H14_3 H 0.1379 0.2087 0.1134
C7_3 C 0.0973(3) 0.0289(4) 0.8771(7)
C8_3 C 0.0345(2) 0.0349(3) 0.9967(5)
N3_2 N 0.1477(2) 0.1043(3) 0.9174(5)
C4_3 C 0.9509(2) 0.8846(4) 0.1123(7)
C5_3 C 0.9970(7) 0.8371(7) 0.2688(10)
H4_3 H 0.9898 0.7624 0.2702
H5_3 H 0.9802 0.8662 0.3839
N2_3 N 0.8833(2) 0.8443(3) 0.0606(6)
H7_3 H 0.8621 0.7913 0.1134
C2_3 C 0.9027(3) 0.9711(4) 0.8771(7)
C3_3 C 0.9655(2) 0.9651(3) 0.9967(5)
N1_2 N 0.8523(2) 0.8957(3) 0.9174(5)
N5_3 N 0.6477(2) 0.8957(3) 0.9174(5)
N5_4 N 0.3523(2) 0.1043(3) 0.9174(5)
C4_4 C 0.4509(2) 0.1154(4) 0.1123(7)
C5_4 C 0.4970(7) 0.1629(7) 0.2688(10)
H4_4 H 0.4898 0.2376 0.2702
H5_4 H 0.4802 0.1338 0.3839
H6_3 H 0.5503 0.1474 0.2512
N2_4 N 0.3833(2) 0.1557(3) 0.0606(6)
H7_4 H 0.3621 0.2087 0.1134
C2_4 C 0.4027(3) 0.0289(4) 0.8771(7)
C3_4 C 0.4655(2) 0.0349(3) 0.9967(5)
C6_3 C 0.6106(5) 0.0465(6) 0.7245(11)
H8_3 H 0.6490 0.0963 0.7607
H9_3 H 0.6276 0.0092 0.6170
H10_3 H 0.5638 0.0828 0.6970
C9_4 C 0.5491(2) 0.8846(4) 0.1123(7)
C10_4 C 0.5030(7) 0.8371(7) 0.2688(10)
H11_4 H 0.5102 0.7624 0.2702
H12_4 H 0.5198 0.8662 0.3839
H13_3 H 0.4497 0.8526 0.2512
N4_4 N 0.6167(2) 0.8443(3) 0.0606(6)
H14_4 H 0.6379 0.7913 0.1134
C1_3 C 0.3894(5) 0.9535(6) 0.7245(11)
H1_3 H 0.3510 0.9037 0.7607
H2_3 H 0.3724 0.9908 0.6170
H3_3 H 0.4362 0.9172 0.6970
C7_4 C 0.5973(3) 0.9711(4) 0.8771(7)
C8_4 C 0.5345(2) 0.9651(3) 0.9967(5)
H6_4 H 0.0503 0.8526 0.2512
C6_4 C 0.1106(5) 0.9535(6) 0.7245(11)
H8_4 H 0.1490 0.9037 0.7607
H9_4 H 0.1276 0.9908 0.6170
H10_4 H 0.0638 0.9172 0.6970
H13_4 H 0.9497 0.1474 0.2512
C1_4 C 0.8894(5) 0.0465(6) 0.7245(11)
H1_4 H 0.8510 0.0963 0.7607
H2_4 H 0.8724 0.0092 0.6170
H3_4 H 0.9362 0.0828 0.6970
loop_
_geom_bond_atom_site_label_1
_geom_bond_atom_site_label_2
_geom_bond_site_symmetry_1
_geom_bond_site_symmetry_2
C1 H1 1_555 1_555
H2 C1 1_555 1_555
H3 C1 1_555 1_555
C2 C1 1_555 1_555
C3 C2 1_555 1_555
C4 C3 1_555 1_555
C5 C4 1_555 1_555
H4 C5 1_555 1_555
H5 C5 1_555 1_555
H6 C5 1_555 1_555
N1 C2 1_555 1_555
N2 C4 1_555 1_555
H7 N2 1_555 1_555
Cu1 N1 1_555 1_555
I1 Cu1 1_555 1_555
C6 H8 1_555 1_555
H9 C6 1_555 1_555
H10 C6 1_555 1_555
C7 C6 1_555 1_555
C8 C3 1_555 1_555
C9 C8 1_555 1_555
C10 C9 1_555 1_555
H11 C10 1_555 1_555
H12 C10 1_555 1_555
H13 C10 1_555 1_555
N3 C7 1_555 1_555
N4 C9 1_555 1_555
H14 N4 1_555 1_555
N5 Cu1 1_555 1_555
Cu2 N3 1_555 1_555
Cu3 I1 1_555 1_555
N1 N2 1_555 1_555
C7 C8 1_555 1_555
N3 N4 1_555 1_555
I1_2 Cu2 1_555 1_555
N5_2 Cu2 1_555 1_555
Cu3_2 I1_2 1_555 1_555
C6_2 H8_2 1_555 1_555
H9_2 C6_2 1_555 1_555
H10_2 C6_2 1_555 1_555
C7_2 C6_2 1_555 1_555
C9_2 C8_2 1_555 1_555
C10_2 C9_2 1_555 1_555
H11_2 C10_2 1_555 1_555
H12_2 C10_2 1_555 1_555
N5 C7_2 1_555 1_555
N4_2 C9_2 1_555 1_555
H14_2 N4_2 1_555 1_555
C7_2 C8_2 1_555 1_555
N5 N4_2 1_555 1_555
C1_2 H1_2 1_555 1_555
H2_2 C1_2 1_555 1_555
H3_2 C1_2 1_555 1_555
C2_2 C1_2 1_555 1_555
C3_2 C2_2 1_555 1_555
C4_2 C3_2 1_555 1_555
C5_2 C4_2 1_555 1_555
H4_2 C5_2 1_555 1_555
H5_2 C5_2 1_555 1_555
N5_2 C2_2 1_555 1_555
N2_2 C4_2 1_555 1_555
H7_2 N2_2 1_555 1_555
N5_2 N2_2 1_555 1_555
C10_3 C9_3 1_555 1_555
H11_3 C10_3 1_555 1_555
H12_3 C10_3 1_555 1_555
N4_3 C9_3 1_555 1_555
H14_3 N4_3 1_555 1_555
N3_2 C7_3 1_555 1_555
Cu3 N3_2 1_555 1_555
C7_3 C8_3 1_555 1_555
C5_3 C4_3 1_555 1_555
H4_3 C5_3 1_555 1_555
H5_3 C5_3 1_555 1_555
N2_3 C4_3 1_555 1_555
H7_3 N2_3 1_555 1_555
C3_3 C2_3 1_555 1_555
N1_2 C2_3 1_555 1_555
Cu3_2 N1_2 1_555 1_555
I2_2 Cu3_2 1_555 1_555
N5_3 Cu3_2 1_555 1_555
I2 Cu3 1_555 1_555
N5_4 Cu3 1_555 1_555
C5_4 C4_4 1_555 1_555
H4_4 C5_4 1_555 1_555
H5_4 C5_4 1_555 1_555
H6_3 C5_4 1_555 1_555
N2_4 C4_4 1_555 1_555
H7_4 N2_4 1_555 1_555
C3_4 C2_4 1_555 1_555
N5_4 C2_4 1_555 1_555
C6_3 H8_3 1_555 1_555
H9_3 C6_3 1_555 1_555
H10_3 C6_3 1_555 1_555
C10_4 C9_4 1_555 1_555
H11_4 C10_4 1_555 1_555
H12_4 C10_4 1_555 1_555
H13_3 C10_4 1_555 1_555
N4_4 C9_4 1_555 1_555
H14_4 N4_4 1_555 1_555
C1_3 H1_3 1_555 1_555
H2_3 C1_3 1_555 1_555
H3_3 C1_3 1_555 1_555
N5_3 C7_4 1_555 1_555
C7_4 C8_4 1_555 1_555
C6_4 H8_4 1_555 1_555
H9_4 C6_4 1_555 1_555
H10_4 C6_4 1_555 1_555
C1_4 H1_4 1_555 1_555
H2_4 C1_4 1_555 1_555
H3_4 C1_4 1_555 1_555

#END
