
###############################################################################
#
# This file contains modified crystal structure data generated from the
# MOF subset of the Cambridge Structural Database (CSD) v543 
# hosted by the Cambridge Crystallographic Data Centre (CCDC).
#
# This work is licensed under the Creative Commons
# Attribution-NonCommercial-ShareAlike 4.0 International License.
# To view a copy of this license, visit
# http://creativecommons.org/licenses/by-nc-sa/4.0/
# or send a letter to
# Creative Commons, PO Box 1866, Mountain View, CA 94042, USA.
#
# CIF created using the CSD Python API on 29 September 2022
# The structure has been converted into the P1 space group
# The structure has a 3D framework
# The original CSD entry NOHFOG is in the monoclinic crystal system
# The framework has been calculated to contain at least 10.0% void space
# The void calculation uses a probe of radius 1.32A, grid spacing 0.4
# H atom positions have been added when not included in the experimental data
#
###############################################################################

data_NOHFOG
_chemical_formula_moiety         '(C84 H64 Er8 O62)n'
_symmetry_cell_setting           triclinic
_symmetry_space_group_name_H-M   'P 1'
_symmetry_Int_Tables_number      1
_space_group_name_Hall           'P 1'
loop_
_symmetry_equiv_pos_site_id
_symmetry_equiv_pos_as_xyz
1 x,y,z
_cell_length_a                   9.84420(10)
_cell_length_b                   29.2288(2)
_cell_length_c                   10.87950(10)
_cell_angle_alpha                90
_cell_angle_beta                 92.1770(3)
_cell_angle_gamma                90
_cell_volume                     3128.14
loop_
_atom_site_label
_atom_site_type_symbol
_atom_site_fract_x
_atom_site_fract_y
_atom_site_fract_z
O19 O 0.5491(3) 0.11148(11) 0.1461(3)
Er11 Er 0.459739(14) 0.248461(5) 0.236580(14)
O24 O 0.3564(2) 0.24506(10) 0.0493(3)
O27 O 0.2921(2) 0.14169(9) 0.0156(2)
C24 C 0.1210(3) 0.22855(12) 0.0095(3)
C25 C 0.0740(3) 0.26433(15) 0.0780(4)
H7 H 0.1341 0.2868 0.1068
O40 O 0.3224(3) 0.05013(10) 0.1007(3)
H29 H 0.572557 0.144212 0.134739
H30 H 0.481691 0.108675 0.211303
Er3 Er 0.454831(13) 0.081489(5) 0.958445(14)
O18 O 0.5229(3) 0.07098(11) 0.7499(3)
Er7 Er 0.459739(14) 0.251539(5) 0.736580(14)
O20 O 0.4034(3) 0.17502(10) 0.6801(3)
O21 O 0.3165(3) 0.31710(11) 0.7365(3)
O22 O 0.5402(3) 0.30510(11) 0.8852(3)
O23 O 0.2879(2) 0.22749(10) 0.8593(2)
O26 O 0.3564(2) 0.25494(10) 0.5493(3)
O28 O 0.2641(2) 0.10955(10) 0.8358(3)
O30 O 0.6161(2) 0.21779(9) 0.8696(2)
O32 O 0.5622(2) 0.14558(10) 0.9037(3)
O35 O 0.6446(2) 0.22276(9) 0.6113(2)
O38 O 0.6446(2) 0.29630(10) 0.6460(3)
C22 C 0.0752(3) 0.15129(12) 0.9126(3)
C23 C 0.0309(3) 0.19298(12) 0.9677(3)
H10 H 0.0133 0.0924 0.8355
C32 C 0.2189(3) 0.13504(12) 0.9209(3)
C33 C 0.2670(3) 0.23292(12) 0.9709(3)
O43 O 0.3940(2) 0.00988(10) 0.8838(3)
O46 O 0.6586(2) 0.04615(10) 0.9859(3)
H23 H 0.36961 0.174282 0.592954
H24 H 0.485477 0.155422 0.690061
H25 H 0.634025 0.296762 0.913562
H26 H 0.540502 0.336145 0.848141
H27 H 0.604501 0.0510174 0.749464
H28 H 0.447612 0.0564412 0.70072
H31 H 0.240829 0.311832 0.792627
H32 H 0.370049 0.344139 0.764973
O15 O 0.3146(3) 0.00932(11) 0.2726(3)
C15 C 0.1184(3) 0.01069(13) 0.1387(3)
C16 C 0.0262(4) 0.01367(16) 0.2294(4)
H5 H 0.0569 0.0174 0.3106
C19 C 0.0718(3) 0.00117(12) 0.0142(3)
C20 C 0.2630(3) 0.02353(13) 0.1729(3)
O33 O 0.6446(2) 0.27724(9) 0.1113(2)
O36 O 0.6446(2) 0.20370(10) 0.1460(3)
C26 C 0.9355(4) 0.26718(15) 0.1050(4)
H8 H 0.9060 0.2907 0.1549
C27 C 0.8430(3) 0.23571(13) 0.0586(3)
C35 C 0.7018(3) 0.23862(13) 0.1047(3)
C28 C 0.8881(3) 0.19887(12) 0.9832(3)
C29 C 0.7946(3) 0.16726(12) 0.9249(3)
C30 C 0.8413(3) 0.12812(13) 0.8715(4)
H9 H 0.7800 0.1070 0.8374
C31 C 0.9827(3) 0.11974(13) 0.8683(4)
C34 C 0.6465(3) 0.17773(12) 0.9009(3)
Er6 Er 0.545169(13) 0.918511(5) 0.041555(14)
O44 O 0.3414(2) 0.95385(10) 0.0141(3)
C38 C 0.1141(3) 0.98888(16) 0.7984(4)
H12 H 0.1752 0.9872 0.7354
C39 C 0.1614(3) 0.99382(12) 0.9169(3)
C42 C 0.3112(3) 0.98583(13) 0.9408(3)
C17 C 0.8859(3) 0.01112(16) 0.2016(4)
H6 H 0.8248 0.0128 0.2646
C18 C 0.8386(3) 0.00618(12) 0.0831(3)
C21 C 0.6888(3) 0.01417(13) 0.0592(3)
O16 O 0.6060(2) 0.99012(10) 0.1162(3)
O39 O 0.6776(3) 0.94987(10) 0.8993(3)
O41 O 0.6854(3) 0.99068(11) 0.7274(3)
C36 C 0.8816(3) 0.98931(13) 0.8613(3)
C37 C 0.9738(4) 0.98633(16) 0.7706(4)
H11 H 0.9431 0.9826 0.6894
C40 C 0.9282(3) 0.99883(12) 0.9858(3)
C41 C 0.7370(3) 0.97647(13) 0.8271(3)
O10 O 0.3839(2) 0.71779(9) 0.6304(2)
O11 O 0.4378(2) 0.64558(10) 0.5963(3)
O12 O 0.3554(2) 0.77724(9) 0.3887(2)
O13 O 0.3554(2) 0.70370(10) 0.3540(3)
C5 C 0.0645(4) 0.76718(15) 0.3950(4)
H2 H 0.0940 0.7907 0.3451
C6 C 0.1570(3) 0.73571(13) 0.4414(3)
C7 C 0.1119(3) 0.69887(12) 0.5168(3)
C8 C 0.2054(3) 0.66726(12) 0.5751(3)
C9 C 0.1587(3) 0.62812(13) 0.6285(4)
H3 H 0.2200 0.6070 0.6626
C10 C 0.0173(3) 0.61974(13) 0.6317(4)
C13 C 0.3535(3) 0.67773(12) 0.5991(3)
C14 C 0.2982(3) 0.73862(13) 0.3953(3)
O16_2 O 0.3940(2) 0.49012(10) 0.3838(3)
O17 O 0.3414(2) 0.54615(10) 0.5141(3)
C17_2 C 0.1141(3) 0.51112(16) 0.2984(4)
H6_2 H 0.1752 0.5128 0.2354
C18_2 C 0.1614(3) 0.50618(12) 0.4169(3)
C21_2 C 0.3112(3) 0.51417(13) 0.4408(3)
Er4 Er 0.545169(13) 0.581489(5) 0.541555(14)
Er5 Er 0.454831(13) 0.418511(5) 0.458445(14)
Er9 Er 0.540261(14) 0.751539(5) 0.763420(14)
Er10 Er 0.540261(14) 0.748461(5) 0.263420(14)
O39_2 O 0.3224(3) 0.44987(10) 0.6007(3)
O41_2 O 0.3146(3) 0.49068(11) 0.7726(3)
C36_2 C 0.1184(3) 0.48931(13) 0.6387(3)
C37_2 C 0.0262(4) 0.48633(16) 0.7294(4)
H11_2 H 0.0569 0.4826 0.8106
C40_2 C 0.0718(3) 0.49883(12) 0.5142(3)
C41_2 C 0.2630(3) 0.47647(13) 0.6729(3)
O1 O 0.4771(3) 0.57098(11) 0.7501(3)
O2 O 0.4509(3) 0.61148(11) 0.3539(3)
O3 O 0.5966(3) 0.67502(10) 0.8199(3)
O4 O 0.6835(3) 0.81710(11) 0.7635(3)
O5 O 0.4598(3) 0.80510(11) 0.6148(3)
O6 O 0.7121(2) 0.72749(10) 0.6407(2)
O7 O 0.6436(2) 0.74506(10) 0.4507(3)
O8 O 0.7079(2) 0.64169(9) 0.4844(2)
O9 O 0.7359(2) 0.60955(10) 0.6642(3)
C1 C 0.9248(3) 0.65129(12) 0.5874(3)
C2 C 0.9691(3) 0.69298(12) 0.5323(3)
C3 C 0.8790(3) 0.72855(12) 0.4905(3)
C4 C 0.9260(3) 0.76433(15) 0.4220(4)
H1 H 0.8659 0.7868 0.3932
H4 H 0.9867 0.5924 0.6645
C11 C 0.7811(3) 0.63504(12) 0.5791(3)
C12 C 0.7330(3) 0.73292(12) 0.5291(3)
O14 O 0.6776(3) 0.55013(10) 0.3993(3)
O15_2 O 0.6854(3) 0.50932(11) 0.2274(3)
C15_2 C 0.8816(3) 0.51069(13) 0.3613(3)
C16_2 C 0.9738(4) 0.51367(16) 0.2706(4)
H5_2 H 0.9431 0.5174 0.1894
C19_2 C 0.9282(3) 0.50117(12) 0.4858(3)
C20_2 C 0.7370(3) 0.52353(13) 0.3271(3)
O25 O 0.6436(2) 0.75494(10) 0.9507(3)
O34 O 0.3554(2) 0.72276(9) 0.8887(2)
O37 O 0.3554(2) 0.79630(10) 0.8540(3)
O42 O 0.6060(2) 0.50988(10) 0.6162(3)
O44_2 O 0.6586(2) 0.45385(10) 0.4859(3)
C38_2 C 0.8859(3) 0.48888(16) 0.7016(4)
H12_2 H 0.8248 0.4872 0.7646
C39_2 C 0.8386(3) 0.49382(12) 0.5831(3)
C42_2 C 0.6888(3) 0.48583(13) 0.5592(3)
H13 H 0.63039 0.674282 0.907046
H14 H 0.514523 0.655422 0.809939
H15 H 0.365975 0.796762 0.586438
H16 H 0.459498 0.836145 0.651859
H17 H 0.759171 0.811832 0.707373
H18 H 0.629951 0.844139 0.735027
H19 H 0.395499 0.551017 0.750536
H20 H 0.552388 0.556441 0.79928
H21 H 0.427443 0.644212 0.365261
H22 H 0.518309 0.608675 0.288697
O10_2 O 0.3839(2) 0.78221(9) 0.1304(2)
O11_2 O 0.4378(2) 0.85442(10) 0.0963(3)
C7_2 C 0.1119(3) 0.80113(12) 0.0168(3)
C8_2 C 0.2054(3) 0.83274(12) 0.0751(3)
C9_2 C 0.1587(3) 0.87188(13) 0.1285(4)
H3_2 H 0.2200 0.8930 0.1626
C10_2 C 0.0173(3) 0.88026(13) 0.1317(4)
C13_2 C 0.3535(3) 0.82227(12) 0.0991(3)
C5_2 C 0.0645(4) 0.73282(15) 0.8950(4)
H2_2 H 0.0940 0.7093 0.8451
C6_2 C 0.1570(3) 0.76429(13) 0.9414(3)
C14_2 C 0.2982(3) 0.76138(13) 0.8953(3)
O1_2 O 0.4771(3) 0.92902(11) 0.2501(3)
O3_2 O 0.5966(3) 0.82498(10) 0.3199(3)
O4_2 O 0.6835(3) 0.68290(11) 0.2635(3)
O5_2 O 0.4598(3) 0.69490(11) 0.1148(3)
O6_2 O 0.7121(2) 0.77251(10) 0.1407(2)
O9_2 O 0.7359(2) 0.89045(10) 0.1642(3)
C1_2 C 0.9248(3) 0.84871(12) 0.0874(3)
C2_2 C 0.9691(3) 0.80702(12) 0.0323(3)
H4_2 H 0.9867 0.9076 0.1645
C11_2 C 0.7811(3) 0.86496(12) 0.0791(3)
C12_2 C 0.7330(3) 0.76708(12) 0.0291(3)
H13_2 H 0.63039 0.825718 0.407046
H14_2 H 0.514523 0.844578 0.309939
H15_2 H 0.365975 0.703238 0.0864385
H16_2 H 0.459498 0.663855 0.151859
H17_2 H 0.759171 0.688168 0.207373
H18_2 H 0.629951 0.655861 0.235027
H19_2 H 0.395499 0.948983 0.250536
H20_2 H 0.552388 0.943559 0.29928
O2_2 O 0.4509(3) 0.88852(11) 0.8539(3)
O8_2 O 0.7079(2) 0.85831(9) 0.9844(2)
C3_2 C 0.8790(3) 0.77145(12) 0.9905(3)
C4_2 C 0.9260(3) 0.73567(15) 0.9220(4)
H1_2 H 0.8659 0.7132 0.8932
H21_2 H 0.427443 0.855788 0.865261
H22_2 H 0.518309 0.891325 0.788697
O18_2 O 0.5229(3) 0.42902(11) 0.2499(3)
O19_2 O 0.5491(3) 0.38852(11) 0.6461(3)
O20_2 O 0.4034(3) 0.32498(10) 0.1801(3)
O21_2 O 0.3165(3) 0.18290(11) 0.2365(3)
O22_2 O 0.5402(3) 0.19490(11) 0.3852(3)
O23_2 O 0.2879(2) 0.27251(10) 0.3593(2)
O27_2 O 0.2921(2) 0.35831(9) 0.5156(2)
O28_2 O 0.2641(2) 0.39045(10) 0.3358(3)
O30_2 O 0.6161(2) 0.28221(9) 0.3696(2)
O32_2 O 0.5622(2) 0.35442(10) 0.4037(3)
C22_2 C 0.0752(3) 0.34871(12) 0.4126(3)
C23_2 C 0.0309(3) 0.30702(12) 0.4677(3)
C24_2 C 0.1210(3) 0.27145(12) 0.5095(3)
C25_2 C 0.0740(3) 0.23567(15) 0.5780(4)
H7_2 H 0.1341 0.2132 0.6068
H10_2 H 0.0133 0.4076 0.3355
C32_2 C 0.2189(3) 0.36496(12) 0.4209(3)
C33_2 C 0.2670(3) 0.26708(12) 0.4709(3)
H23_2 H 0.36961 0.325718 0.0929543
H24_2 H 0.485477 0.344578 0.190061
H25_2 H 0.634025 0.203238 0.413562
H26_2 H 0.540502 0.163855 0.348141
H27_2 H 0.604501 0.448983 0.249464
H28_2 H 0.447612 0.443559 0.20072
H29_2 H 0.572557 0.355788 0.634739
H30_2 H 0.481691 0.391325 0.711303
H31_2 H 0.240829 0.188168 0.292627
H32_2 H 0.370049 0.155861 0.264973
C26_2 C 0.9355(4) 0.23282(15) 0.6050(4)
H8_2 H 0.9060 0.2093 0.6549
C27_2 C 0.8430(3) 0.26429(13) 0.5586(3)
C28_2 C 0.8881(3) 0.30113(12) 0.4832(3)
C29_2 C 0.7946(3) 0.33274(12) 0.4249(3)
C30_2 C 0.8413(3) 0.37188(13) 0.3715(4)
H9_2 H 0.7800 0.3930 0.3374
C31_2 C 0.9827(3) 0.38026(13) 0.3683(4)
C34_2 C 0.6465(3) 0.32227(12) 0.4009(3)
C35_2 C 0.7018(3) 0.26138(13) 0.6047(3)
loop_
_geom_bond_atom_site_label_1
_geom_bond_atom_site_label_2
_geom_bond_site_symmetry_1
_geom_bond_site_symmetry_2
Er11 O24 1_555 1_555
C24 C25 1_555 1_555
C25 H7 1_555 1_555
O19 H29 1_555 1_555
O19 H30 1_555 1_555
Er3 O18 1_555 1_555
Er7 O20 1_555 1_555
O21 Er7 1_555 1_555
O22 Er7 1_555 1_555
O23 Er7 1_555 1_555
O26 Er7 1_555 1_555
O28 Er3 1_555 1_555
O30 Er7 1_555 1_555
O32 Er3 1_555 1_555
O35 Er7 1_555 1_555
O38 Er7 1_555 1_555
C22 C23 1_555 1_555
C33 O23 1_555 1_555
O43 Er3 1_555 1_555
O46 Er3 1_555 1_555
O28 C32 1_555 1_555
C22 C32 1_555 1_555
O20 H23 1_555 1_555
O20 H24 1_555 1_555
O22 H25 1_555 1_555
O22 H26 1_555 1_555
O18 H27 1_555 1_555
O18 H28 1_555 1_555
O21 H31 1_555 1_555
O21 H32 1_555 1_555
O15 C20 1_555 1_555
C15 C16 1_555 1_555
C16 H5 1_555 1_555
C19 C15 1_555 1_555
C20 O40 1_555 1_555
O33 Er11 1_555 1_555
O36 Er11 1_555 1_555
H8 C26 1_555 1_555
C27 C26 1_555 1_555
C35 O33 1_555 1_555
C15 C20 1_555 1_555
O36 C35 1_555 1_555
C27 C35 1_555 1_555
C29 C28 1_555 1_555
C30 C29 1_555 1_555
H9 C30 1_555 1_555
C34 O30 1_555 1_555
O32 C34 1_555 1_555
C29 C34 1_555 1_555
C30 C31 1_555 1_555
Er6 O44 1_555 1_555
H12 C38 1_555 1_555
C38 C39 1_555 1_555
C39 C42 1_555 1_555
H6 C17 1_555 1_555
C18 C17 1_555 1_555
C21 C18 1_555 1_555
Er6 O16 1_555 1_555
O41 C41 1_555 1_555
C36 C37 1_555 1_555
C37 H11 1_555 1_555
C41 O39 1_555 1_555
C36 C40 1_555 1_555
C36 C41 1_555 1_555
O10 C13 1_555 1_555
O11 C13 1_555 1_555
O12 C14 1_555 1_555
O13 C14 1_555 1_555
H2 C5 1_555 1_555
C6 C5 1_555 1_555
C8 C7 1_555 1_555
C9 C8 1_555 1_555
H3 C9 1_555 1_555
C13 C8 1_555 1_555
C14 C6 1_555 1_555
O16_2 C21_2 1_555 1_555
O17 C21_2 1_555 1_555
H6_2 C17_2 1_555 1_555
C18_2 C17_2 1_555 1_555
C21_2 C18_2 1_555 1_555
Er4 O11 1_555 1_555
Er5 O16_2 1_555 1_555
Er9 O10 1_555 1_555
Er10 O12 1_555 1_555
O39_2 Er5 1_555 1_555
O41_2 C41_2 1_555 1_555
C36_2 C37_2 1_555 1_555
C37_2 H11_2 1_555 1_555
C40_2 C18_2 1_555 1_555
C41_2 O39_2 1_555 1_555
O13 Er10 1_555 1_555
C6 C7 1_555 1_555
C9 C10 1_555 1_555
O17 Er4 1_555 1_555
C36_2 C40_2 1_555 1_555
C36_2 C41_2 1_555 1_555
Er4 O1 1_555 1_555
O2 Er4 1_555 1_555
Er9 O3 1_555 1_555
O4 Er9 1_555 1_555
O5 Er9 1_555 1_555
O6 Er9 1_555 1_555
O7 C12 1_555 1_555
O8 Er4 1_555 1_555
O9 Er4 1_555 1_555
C1 C2 1_555 1_555
C2 C3 1_555 1_555
C3 C4 1_555 1_555
C4 H1 1_555 1_555
C11 O8 1_555 1_555
C12 O6 1_555 1_555
O14 Er4 1_555 1_555
O15_2 C20_2 1_555 1_555
C15_2 C16_2 1_555 1_555
C16_2 H5_2 1_555 1_555
C19_2 C15_2 1_555 1_555
C20_2 O14 1_555 1_555
Er5 O44_2 1_555 1_555
Er10 O7 1_555 1_555
O25 Er9 1_555 1_555
O34 Er9 1_555 1_555
O37 Er9 1_555 1_555
O42 Er4 1_555 1_555
O44_2 C42_2 1_555 1_555
H12_2 C38_2 1_555 1_555
C39_2 C19_2 1_555 1_555
C42_2 O42 1_555 1_555
O9 C11 1_555 1_555
C1 C11 1_555 1_555
C3 C12 1_555 1_555
C15_2 C20_2 1_555 1_555
C38_2 C39_2 1_555 1_555
C39_2 C42_2 1_555 1_555
O3 H13 1_555 1_555
O3 H14 1_555 1_555
O5 H15 1_555 1_555
O5 H16 1_555 1_555
O4 H17 1_555 1_555
O4 H18 1_555 1_555
O1 H19 1_555 1_555
O1 H20 1_555 1_555
O2 H21 1_555 1_555
O2 H22 1_555 1_555
O10_2 C13_2 1_555 1_555
O11_2 C13_2 1_555 1_555
C8_2 C7_2 1_555 1_555
C9_2 C8_2 1_555 1_555
H3_2 C9_2 1_555 1_555
C13_2 C8_2 1_555 1_555
Er6 O11_2 1_555 1_555
Er10 O10_2 1_555 1_555
C9_2 C10_2 1_555 1_555
O34 C14_2 1_555 1_555
O37 C14_2 1_555 1_555
H2_2 C5_2 1_555 1_555
C6_2 C5_2 1_555 1_555
C14_2 C6_2 1_555 1_555
Er6 O1_2 1_555 1_555
Er10 O3_2 1_555 1_555
O4_2 Er10 1_555 1_555
O5_2 Er10 1_555 1_555
O6_2 Er10 1_555 1_555
O9_2 Er6 1_555 1_555
C1_2 C2_2 1_555 1_555
C12_2 O6_2 1_555 1_555
O9_2 C11_2 1_555 1_555
C1_2 C11_2 1_555 1_555
O3_2 H13_2 1_555 1_555
O3_2 H14_2 1_555 1_555
O5_2 H15_2 1_555 1_555
O5_2 H16_2 1_555 1_555
O4_2 H17_2 1_555 1_555
O4_2 H18_2 1_555 1_555
O1_2 H19_2 1_555 1_555
O1_2 H20_2 1_555 1_555
C3_2 C4_2 1_555 1_555
C4_2 H1_2 1_555 1_555
O2_2 H21_2 1_555 1_555
O2_2 H22_2 1_555 1_555
Er5 O18_2 1_555 1_555
O19_2 Er5 1_555 1_555
Er11 O20_2 1_555 1_555
O21_2 Er11 1_555 1_555
O22_2 Er11 1_555 1_555
O23_2 Er11 1_555 1_555
O26 C33_2 1_555 1_555
O27_2 Er5 1_555 1_555
O28_2 Er5 1_555 1_555
O30_2 Er11 1_555 1_555
O32_2 Er5 1_555 1_555
C22_2 C23_2 1_555 1_555
C23_2 C24_2 1_555 1_555
C24_2 C25_2 1_555 1_555
C25_2 H7_2 1_555 1_555
C32_2 O27_2 1_555 1_555
C33_2 O23_2 1_555 1_555
O28_2 C32_2 1_555 1_555
C22_2 C32_2 1_555 1_555
C24_2 C33_2 1_555 1_555
O20_2 H23_2 1_555 1_555
O20_2 H24_2 1_555 1_555
O22_2 H25_2 1_555 1_555
O22_2 H26_2 1_555 1_555
O18_2 H27_2 1_555 1_555
O18_2 H28_2 1_555 1_555
O19_2 H29_2 1_555 1_555
O19_2 H30_2 1_555 1_555
O21_2 H31_2 1_555 1_555
O21_2 H32_2 1_555 1_555
H8_2 C26_2 1_555 1_555
C27_2 C26_2 1_555 1_555
C29_2 C28_2 1_555 1_555
C30_2 C29_2 1_555 1_555
H9_2 C30_2 1_555 1_555
C34_2 O30_2 1_555 1_555
C35_2 O35 1_555 1_555
O32_2 C34_2 1_555 1_555
O38 C35_2 1_555 1_555
C27_2 C28_2 1_555 1_555
C27_2 C35_2 1_555 1_555
C29_2 C34_2 1_555 1_555
C30_2 C31_2 1_555 1_555

#END
