
###############################################################################
#
# This file contains modified crystal structure data generated from the
# MOF subset of the Cambridge Structural Database (CSD) v543 
# hosted by the Cambridge Crystallographic Data Centre (CCDC).
#
# This work is licensed under the Creative Commons
# Attribution-NonCommercial-ShareAlike 4.0 International License.
# To view a copy of this license, visit
# http://creativecommons.org/licenses/by-nc-sa/4.0/
# or send a letter to
# Creative Commons, PO Box 1866, Mountain View, CA 94042, USA.
#
# CIF created using the CSD Python API on 29 September 2022
# The structure has been converted into the P1 space group
# The structure has a 3D framework
# The original CSD entry NOHSUA is in the monoclinic crystal system
# The framework has been calculated to contain at least 10.0% void space
# The void calculation uses a probe of radius 1.32A, grid spacing 0.4
#
###############################################################################

data_NOHSUA
_chemical_formula_moiety         '(C216 H148 Ca12 O56)n'
_symmetry_cell_setting           triclinic
_symmetry_space_group_name_H-M   'P 1'
_symmetry_Int_Tables_number      1
_space_group_name_Hall           'P 1'
loop_
_symmetry_equiv_pos_site_id
_symmetry_equiv_pos_as_xyz
1 x,y,z
_cell_length_a                   16.135(3)
_cell_length_b                   26.792(5)
_cell_length_c                   18.630(4)
_cell_angle_alpha                90
_cell_angle_beta                 110.57(3)
_cell_angle_gamma                90
_cell_volume                     7540.08
loop_
_atom_site_label
_atom_site_type_symbol
_atom_site_fract_x
_atom_site_fract_y
_atom_site_fract_z
Ca10 Ca 0.04774(5) 0.56795(3) 0.02916(4)
O40 O 0.08430(17) 0.42601(11) 0.08407(15)
O3 O 0.06307(16) 0.49387(10) 0.95642(15)
H5 H 0.1141(3) 0.4817(6) 0.9762(16)
H6 H 0.0545(14) 0.4973(9) 0.9095(2)
O35 O 0.02382(17) 0.38481(10) 0.89772(16)
O27 O 0.02959(18) 0.88262(11) 0.41243(16)
H68 H 0.0119 0.8745 0.2666
Ca8 Ca 0.04774(5) 0.93205(3) 0.52916(4)
O22 O 0.06102(19) 0.67927(13) 0.1632(2)
H44 H 0.0892(18) 0.6666(12) 0.138(2)
Ca13 Ca 0.72129(5) 0.43699(3) 0.05522(4)
O32 O 0.93693(16) 0.50613(10) 0.04358(15)
O38 O 0.97041(18) 0.38262(11) 0.08757(16)
Ca1 Ca 0.95226(5) 0.43205(3) 0.97084(4)
Ca3 Ca 0.5000 0.0000 0.5000
O1 O 0.87049(19) 0.48035(12) 0.86476(17)
H1 H 0.8345(17) 0.4983(10) 0.8765(7)
H2 H 0.8397(19) 0.4617(2) 0.8292(8)
O4 O 0.85245(18) 0.36484(11) 0.90870(18)
O5 O 0.78752(16) 0.41468(10) 0.96482(14)
O8 O 0.24076(16) 0.01694(10) 0.48378(14)
O15 O 0.62665(19) 0.37679(11) 0.06676(18)
C1 C 0.4521(2) 0.27240(14) 0.7895(2)
C2 C 0.3774(2) 0.29126(15) 0.8017(2)
H8 H 0.3836 0.3197 0.8336
C3 C 0.2942(2) 0.26948(15) 0.7684(2)
C4 C 0.2866(2) 0.22717(14) 0.7232(2)
H9 H 0.2303 0.2121 0.6998
C5 C 0.3604(2) 0.20651(15) 0.7116(2)
C6 C 0.4424(2) 0.22993(14) 0.7443(2)
H10 H 0.4926 0.2166 0.7357
C7 C 0.5389(2) 0.29910(15) 0.8236(2)
C8 C 0.6184(3) 0.27674(16) 0.8270(3)
H11 H 0.6182 0.2438 0.8082
C9 C 0.6977(3) 0.30259(17) 0.8577(3)
H12 H 0.7511 0.2874 0.8583
C10 C 0.7001(2) 0.34999(15) 0.8873(2)
C11 C 0.6210(2) 0.37187(15) 0.8840(2)
H13 H 0.6213 0.4045 0.9039
C12 C 0.5423(2) 0.34685(15) 0.8524(2)
H14 H 0.4888 0.3628 0.8503
C13 C 0.7848(2) 0.37835(15) 0.9227(2)
C14 C 0.2174(2) 0.29015(14) 0.7853(2)
C15 C 0.2156(2) 0.34047(15) 0.8045(2)
H15 H 0.2608 0.3622 0.8015
C16 C 0.1490(2) 0.35922(16) 0.8279(2)
H16 H 0.1499 0.3932 0.8429
C17 C 0.0805(3) 0.32774(16) 0.8291(2)
C18 C 0.0791(3) 0.27795(17) 0.8056(2)
H17 H 0.0312 0.2568 0.8042
C19 C 0.1473(2) 0.25958(16) 0.7845(2)
H18 H 0.1463 0.2257 0.7692
C20 C 0.0123(3) 0.34747(16) 0.8579(2)
C21 C 0.3504(2) 0.16058(15) 0.6647(2)
C22 C 0.2726(2) 0.15167(15) 0.6020(2)
H19 H 0.2267 0.1759 0.5882
C23 C 0.2618(2) 0.10813(14) 0.5602(2)
H20 H 0.2087 0.1026 0.5179
C24 C 0.3283(2) 0.07221(14) 0.5796(2)
C25 C 0.4068(2) 0.08100(15) 0.6414(2)
H21 H 0.4532 0.0571 0.6541
C26 C 0.4172(2) 0.12438(15) 0.6839(2)
H22 H 0.4701 0.1297 0.7265
C27 C 0.3156(2) 0.02585(15) 0.5335(2)
C28 C 0.2953(3) 0.12610(16) 0.0765(2)
C29 C 0.2414(3) 0.11279(17) 0.0028(2)
C32 C 0.3461(3) 0.19827(16) 0.0247(2)
C33 C 0.3473(3) 0.16940(16) 0.0869(2)
H25 H 0.3838 0.1791 0.1372
C34 C 0.2978(3) 0.09477(16) 0.1424(2)
C35 C 0.3764(3) 0.08721(17) 0.2047(2)
H26 H 0.4291 0.1032 0.2050
C36 C 0.3792(3) 0.05730(16) 0.2655(2)
H27 H 0.4332 0.0535 0.3075
C37 C 0.3036(3) 0.03261(15) 0.2658(2)
C38 C 0.2237(3) 0.04046(15) 0.2039(2)
H28 H 0.1711 0.0245 0.2038
C39 C 0.2210(3) 0.07063(15) 0.1444(2)
H29 H 0.1664 0.0755 0.1034
C48 C 0.3979(3) 0.24495(15) 0.0320(2)
C51 C 0.4936(3) 0.33233(15) 0.0350(2)
C52 C 0.5342(3) 0.29118(16) 0.0794(2)
H36 H 0.5951 0.2929 0.1105
C53 C 0.4875(3) 0.24818(16) 0.0788(2)
H37 H 0.5158 0.2207 0.1100
C54 C 0.5446(3) 0.37820(15) 0.0324(2)
Ca5 Ca 0.72129(5) 0.06301(3) 0.55522(4)
O17 O 0.82429(19) 0.12287(12) 0.62356(17)
H40 H 0.8749(5) 0.1153(8) 0.6238(18)
H41 H 0.8281(18) 0.1229(10) 0.6697(5)
O24 O 0.61947(15) 0.00475(9) 0.45427(14)
O25 O 0.62410(18) 0.00615(10) 0.61337(15)
O26 O 0.76573(17) 0.02322(11) 0.67506(15)
C94 C 0.6959(3) 0.00121(15) 0.6702(2)
Ca17 Ca 0.5000 0.5000 0.0000
O34 O 0.78752(16) 0.08532(10) 0.46482(14)
O42 O 0.50263(19) 0.08481(11) 0.49554(16)
O44 O 0.62665(19) 0.12321(11) 0.56676(18)
O13 O 0.08430(17) 0.07399(11) 0.58407(15)
O14 O 0.50263(19) 0.41519(11) 0.99554(16)
H23 H 0.2045 0.0842 0.9953
C30 C 0.2408(3) 0.14091(17) 0.9393(2)
C31 C 0.2934(3) 0.18259(16) 0.9509(2)
H24 H 0.2941 0.2013 0.9078
C41 C 0.1889(3) 0.12608(16) 0.8594(2)
C42 C 0.0975(3) 0.13069(19) 0.8306(2)
H30 H 0.0668 0.1398 0.8637
C43 C 0.0506(3) 0.12196(18) 0.7531(3)
C44 C 0.0950(3) 0.10815(16) 0.7046(2)
C45 C 0.1852(3) 0.10246(19) 0.7336(2)
H32 H 0.2155 0.0913 0.7011
C46 C 0.2324(3) 0.11287(18) 0.8101(2)
H33 H 0.2952 0.1109 0.8288
C47 C 0.0465(3) 0.09917(15) 0.6205(2)
C49 C 0.3571(3) 0.28630(15) 0.9886(2)
H34 H 0.2963 0.2845 0.9573
C50 C 0.4034(3) 0.32957(15) 0.9904(2)
H35 H 0.3742 0.3577 0.9614
Ca17_2 Ca 0.5000 0.5000 1.0000
O28 O 0.91570(17) 0.92601(11) 0.41593(15)
O29 O 0.49737(19) 0.58481(11) 0.00446(16)
H60 H 0.7955 0.9158 0.0047
C84 C 0.7592(3) 0.85909(17) 0.0607(2)
C85 C 0.7066(3) 0.81741(16) 0.0491(2)
H61 H 0.7059 0.7987 0.0922
C95 C 0.8111(3) 0.87392(16) 0.1406(2)
C96 C 0.9025(3) 0.86931(19) 0.1694(2)
H67 H 0.9332 0.8602 0.1363
C97 C 0.9494(3) 0.87804(18) 0.2469(3)
C98 C 0.9050(3) 0.89185(16) 0.2954(2)
C99 C 0.8148(3) 0.89754(19) 0.2664(2)
H69 H 0.7845 0.9087 0.2989
C100 C 0.7676(3) 0.88713(18) 0.1899(2)
H70 H 0.7048 0.8891 0.1712
C101 C 0.9535(3) 0.90083(15) 0.3795(2)
C103 C 0.6429(3) 0.71370(15) 0.0114(2)
H71 H 0.7037 0.7155 0.0427
C104 C 0.5966(3) 0.67043(15) 0.0096(2)
H72 H 0.6258 0.6423 0.0386
Ca2 Ca 0.27871(5) 0.93699(3) 0.44478(4)
Ca3_2 Ca 0.5000 1.0000 0.5000
O2 O 0.17571(19) 0.87713(12) 0.37644(17)
H3 H 0.1251(5) 0.8847(8) 0.3762(18)
H4 H 0.1719(18) 0.8771(10) 0.3303(5)
O9 O 0.38053(15) 0.99525(9) 0.54573(14)
O10 O 0.37590(18) 0.99385(10) 0.38663(15)
O11 O 0.23427(17) 0.97678(11) 0.32494(15)
C40 C 0.3041(3) 0.99879(15) 0.3298(2)
O16 O 0.12951(19) 0.51965(12) 0.13524(17)
H38 H 0.1655(17) 0.5017(10) 0.1235(7)
H39 H 0.1603(19) 0.5383(2) 0.1708(8)
O19 O 0.14755(18) 0.63516(11) 0.09130(18)
O20 O 0.21248(16) 0.58532(10) 0.03518(14)
O21 O 0.97618(17) 0.61519(10) 0.10228(16)
O23 O 0.75924(16) 0.98306(10) 0.51622(14)
O30 O 0.37335(19) 0.62321(11) 0.93324(18)
C55 C 0.5479(2) 0.72760(14) 0.2105(2)
C56 C 0.6226(2) 0.70874(15) 0.1983(2)
H45 H 0.6164 0.6803 0.1664
C57 C 0.7058(2) 0.73052(15) 0.2316(2)
C58 C 0.7134(2) 0.77283(14) 0.2768(2)
H46 H 0.7697 0.7879 0.3002
C59 C 0.6396(2) 0.79349(15) 0.2884(2)
C60 C 0.5576(2) 0.77007(14) 0.2557(2)
H47 H 0.5074 0.7834 0.2643
C61 C 0.4611(2) 0.70090(15) 0.1764(2)
C62 C 0.3816(3) 0.72326(16) 0.1730(3)
H48 H 0.3818 0.7562 0.1918
C63 C 0.3023(3) 0.69741(17) 0.1423(3)
H49 H 0.2489 0.7126 0.1417
C64 C 0.2999(2) 0.65001(15) 0.1127(2)
C65 C 0.3790(2) 0.62813(15) 0.1160(2)
H50 H 0.3787 0.5955 0.0961
C66 C 0.4577(2) 0.65315(15) 0.1476(2)
H51 H 0.5112 0.6372 0.1497
C67 C 0.2152(2) 0.62165(15) 0.0773(2)
C68 C 0.7826(2) 0.70985(14) 0.2147(2)
C69 C 0.7844(2) 0.65953(15) 0.1955(2)
H52 H 0.7392 0.6378 0.1985
C70 C 0.8510(2) 0.64078(16) 0.1721(2)
H53 H 0.8501 0.6068 0.1571
C71 C 0.9195(3) 0.67226(16) 0.1709(2)
C72 C 0.9209(3) 0.72205(17) 0.1944(2)
H54 H 0.9688 0.7432 0.1958
C73 C 0.8527(2) 0.74042(16) 0.2155(2)
H55 H 0.8537 0.7743 0.2308
C74 C 0.9877(3) 0.65253(16) 0.1421(2)
C75 C 0.6496(2) 0.83942(15) 0.3353(2)
C76 C 0.7274(2) 0.84833(15) 0.3980(2)
H56 H 0.7733 0.8241 0.4118
C77 C 0.7382(2) 0.89187(14) 0.4398(2)
H57 H 0.7913 0.8974 0.4821
C78 C 0.6717(2) 0.92779(14) 0.4204(2)
C79 C 0.5932(2) 0.91900(15) 0.3586(2)
H58 H 0.5468 0.9429 0.3459
C80 C 0.5828(2) 0.87562(15) 0.3161(2)
H59 H 0.5299 0.8703 0.2735
C81 C 0.6844(2) 0.97415(15) 0.4665(2)
C82 C 0.7047(3) 0.87390(16) 0.9235(2)
C83 C 0.7586(3) 0.88721(17) 0.9972(2)
C86 C 0.6539(3) 0.80173(16) 0.9753(2)
C87 C 0.6527(3) 0.83060(16) 0.9131(2)
H62 H 0.6162 0.8209 0.8628
C88 C 0.7022(3) 0.90523(16) 0.8576(2)
C89 C 0.6236(3) 0.91279(17) 0.7953(2)
H63 H 0.5709 0.8968 0.7950
C90 C 0.6208(3) 0.94270(16) 0.7345(2)
H64 H 0.5668 0.9465 0.6925
C91 C 0.6964(3) 0.96739(15) 0.7342(2)
C92 C 0.7763(3) 0.95954(15) 0.7961(2)
H65 H 0.8289 0.9755 0.7962
C93 C 0.7790(3) 0.92937(15) 0.8556(2)
H66 H 0.8336 0.9245 0.8966
C102 C 0.6021(3) 0.75505(15) 0.9680(2)
C105 C 0.5064(3) 0.66767(15) 0.9650(2)
C106 C 0.4658(3) 0.70882(16) 0.9206(2)
H73 H 0.4049 0.7071 0.8895
C107 C 0.5125(3) 0.75182(16) 0.9212(2)
H74 H 0.4842 0.7793 0.8900
C108 C 0.4554(3) 0.62180(15) 0.9676(2)
Ca15 Ca 0.27871(5) 0.56301(3) 0.94478(4)
O33 O 0.21248(16) 0.91468(10) 0.53518(14)
O41 O 0.49737(19) 0.91519(11) 0.50446(16)
O43 O 0.37335(19) 0.87679(11) 0.43324(18)
O37 O 0.02959(18) 0.61738(11) 0.91243(16)
O7 O 0.93898(19) 0.32073(13) 0.8368(2)
H7 H 0.9108(18) 0.3334(12) 0.862(2)
O12 O 0.97041(18) 0.11738(11) 0.58757(16)
H31 H 0.9881 0.1255 0.7334
Ca11 Ca 0.95226(5) 0.06795(3) 0.47084(4)
H42 H 0.8859(3) 0.5183(6) 0.0238(16)
H43 H 0.9455(14) 0.5027(9) 0.0905(2)
O39 O 0.91570(17) 0.57399(11) 0.91593(15)
H31_2 H 0.0119 0.6255 0.7666
O18 O 0.06307(16) 0.00613(10) 0.45642(15)
H42_2 H 0.1141(3) 0.0183(6) 0.4762(16)
H43_2 H 0.0545(14) 0.0027(9) 0.4095(2)
O36 O 0.02382(17) 0.11519(10) 0.39772(16)
O7_2 O 0.06102(19) 0.82073(13) 0.6632(2)
H7_2 H 0.0892(18) 0.8334(12) 0.638(2)
O2_2 O 0.82429(19) 0.37713(12) 0.12356(17)
H3_2 H 0.8749(5) 0.3847(8) 0.1238(18)
H4_2 H 0.8281(18) 0.3771(10) 0.1697(5)
O8_2 O 0.75924(16) 0.51694(10) 0.01622(14)
O10_2 O 0.62410(18) 0.49385(10) 0.11337(15)
O11_2 O 0.76573(17) 0.47678(11) 0.17506(15)
C28_2 C 0.7047(3) 0.62610(16) 0.4235(2)
C29_2 C 0.7586(3) 0.61279(17) 0.4972(2)
H23_2 H 0.7955 0.5842 0.5047
C30_2 C 0.7592(3) 0.64091(17) 0.5607(2)
C31_2 C 0.7066(3) 0.68259(16) 0.5491(2)
H24_2 H 0.7059 0.7013 0.5922
C32_2 C 0.6539(3) 0.69827(16) 0.4753(2)
C33_2 C 0.6527(3) 0.66940(16) 0.4131(2)
H25_2 H 0.6162 0.6791 0.3628
C34_2 C 0.7022(3) 0.59477(16) 0.3576(2)
C35_2 C 0.6236(3) 0.58721(17) 0.2953(2)
H26_2 H 0.5709 0.6032 0.2950
C36_2 C 0.6208(3) 0.55730(16) 0.2345(2)
H27_2 H 0.5668 0.5535 0.1925
C37_2 C 0.6964(3) 0.53261(15) 0.2342(2)
C38_2 C 0.7763(3) 0.54046(15) 0.2961(2)
H28_2 H 0.8289 0.5245 0.2962
C39_2 C 0.7790(3) 0.57063(15) 0.3556(2)
H29_2 H 0.8336 0.5755 0.3966
C40_2 C 0.6959(3) 0.49879(15) 0.1702(2)
C41_2 C 0.8111(3) 0.62608(16) 0.6406(2)
C42_2 C 0.9025(3) 0.63069(19) 0.6694(2)
H30_2 H 0.9332 0.6398 0.6363
C43_2 C 0.9494(3) 0.62196(18) 0.7469(3)
C44_2 C 0.9050(3) 0.60815(16) 0.7954(2)
C45_2 C 0.8148(3) 0.60246(19) 0.7664(2)
H32_2 H 0.7845 0.5913 0.7989
C46_2 C 0.7676(3) 0.61287(18) 0.6899(2)
H33_2 H 0.7048 0.6109 0.6712
C47_2 C 0.9535(3) 0.59917(15) 0.8795(2)
C48_2 C 0.6021(3) 0.74495(15) 0.4680(2)
C49_2 C 0.6429(3) 0.78630(15) 0.5114(2)
H34_2 H 0.7037 0.7845 0.5427
C50_2 C 0.5966(3) 0.82957(15) 0.5096(2)
H35_2 H 0.6258 0.8577 0.5386
C51_2 C 0.5064(3) 0.83233(15) 0.4650(2)
C52_2 C 0.4658(3) 0.79118(16) 0.4206(2)
H36_2 H 0.4049 0.7929 0.3895
C53_2 C 0.5125(3) 0.74818(16) 0.4212(2)
H37_2 H 0.4842 0.7207 0.3900
C54_2 C 0.4554(3) 0.87820(15) 0.4676(2)
O16_2 O 0.87049(19) 0.01965(12) 0.36476(17)
H38_2 H 0.8345(17) 0.0017(10) 0.3765(7)
H39_2 H 0.8397(19) 0.0383(2) 0.3292(8)
O19_2 O 0.85245(18) 0.13516(11) 0.40870(18)
O24_2 O 0.38053(15) 0.50475(9) 0.04573(14)
C55_2 C 0.4521(2) 0.22760(14) 0.2895(2)
C56_2 C 0.3774(2) 0.20874(15) 0.3017(2)
H45_2 H 0.3836 0.1803 0.3336
C57_2 C 0.2942(2) 0.23052(15) 0.2684(2)
C58_2 C 0.2866(2) 0.27283(14) 0.2232(2)
H46_2 H 0.2303 0.2879 0.1998
C59_2 C 0.3604(2) 0.29349(15) 0.2116(2)
C60_2 C 0.4424(2) 0.27007(14) 0.2443(2)
H47_2 H 0.4926 0.2834 0.2357
C61_2 C 0.5389(2) 0.20090(15) 0.3236(2)
C62_2 C 0.6184(3) 0.22326(16) 0.3270(3)
H48_2 H 0.6182 0.2562 0.3082
C63_2 C 0.6977(3) 0.19741(17) 0.3577(3)
H49_2 H 0.7511 0.2126 0.3583
C64_2 C 0.7001(2) 0.15001(15) 0.3873(2)
C65_2 C 0.6210(2) 0.12813(15) 0.3840(2)
H50_2 H 0.6213 0.0955 0.4039
C66_2 C 0.5423(2) 0.15315(15) 0.3524(2)
H51_2 H 0.4888 0.1372 0.3503
C67_2 C 0.7848(2) 0.12165(15) 0.4227(2)
C68_2 C 0.2174(2) 0.20985(14) 0.2853(2)
C69_2 C 0.2156(2) 0.15953(15) 0.3045(2)
H52_2 H 0.2608 0.1378 0.3015
C70_2 C 0.1490(2) 0.14078(16) 0.3279(2)
H53_2 H 0.1499 0.1068 0.3429
C71_2 C 0.0805(3) 0.17226(16) 0.3291(2)
C72_2 C 0.0791(3) 0.22205(17) 0.3056(2)
H54_2 H 0.0312 0.2432 0.3042
C73_2 C 0.1473(2) 0.24042(16) 0.2845(2)
H55_2 H 0.1463 0.2743 0.2692
C74_2 C 0.0123(3) 0.15253(16) 0.3579(2)
C75_2 C 0.3504(2) 0.33942(15) 0.1647(2)
C76_2 C 0.2726(2) 0.34833(15) 0.1020(2)
H56_2 H 0.2267 0.3241 0.0882
C77_2 C 0.2618(2) 0.39187(14) 0.0602(2)
H57_2 H 0.2087 0.3974 0.0179
C78_2 C 0.3283(2) 0.42779(14) 0.0796(2)
C79_2 C 0.4068(2) 0.41900(15) 0.1414(2)
H58_2 H 0.4532 0.4429 0.1541
C80_2 C 0.4172(2) 0.37562(15) 0.1839(2)
H59_2 H 0.4701 0.3703 0.2265
C81_2 C 0.3156(2) 0.47415(15) 0.0335(2)
O1_2 O 0.12951(19) 0.98035(12) 0.63524(17)
H1_2 H 0.1655(17) 0.9983(10) 0.6235(7)
H2_2 H 0.1603(19) 0.9617(2) 0.6708(8)
O4_2 O 0.14755(18) 0.86484(11) 0.59130(18)
O6 O 0.97618(17) 0.88481(10) 0.60228(16)
O9_2 O 0.61947(15) 0.49525(9) 0.95427(14)
C1_2 C 0.5479(2) 0.77240(14) 0.7105(2)
C2_2 C 0.6226(2) 0.79126(15) 0.6983(2)
H8_2 H 0.6164 0.8197 0.6664
C3_2 C 0.7058(2) 0.76948(15) 0.7316(2)
C4_2 C 0.7134(2) 0.72717(14) 0.7768(2)
H9_2 H 0.7697 0.7121 0.8002
C5_2 C 0.6396(2) 0.70651(15) 0.7884(2)
C6_2 C 0.5576(2) 0.72993(14) 0.7557(2)
H10_2 H 0.5074 0.7166 0.7643
C7_2 C 0.4611(2) 0.79910(15) 0.6764(2)
C8_2 C 0.3816(3) 0.77674(16) 0.6730(3)
H11_2 H 0.3818 0.7438 0.6918
C9_2 C 0.3023(3) 0.80259(17) 0.6423(3)
H12_2 H 0.2489 0.7874 0.6417
C10_2 C 0.2999(2) 0.84999(15) 0.6127(2)
C11_2 C 0.3790(2) 0.87187(15) 0.6160(2)
H13_2 H 0.3787 0.9045 0.5961
C12_2 C 0.4577(2) 0.84685(15) 0.6476(2)
H14_2 H 0.5112 0.8628 0.6497
C13_2 C 0.2152(2) 0.87835(15) 0.5773(2)
C14_2 C 0.7826(2) 0.79015(14) 0.7147(2)
C15_2 C 0.7844(2) 0.84047(15) 0.6955(2)
H15_2 H 0.7392 0.8622 0.6985
C16_2 C 0.8510(2) 0.85922(16) 0.6721(2)
H16_2 H 0.8501 0.8932 0.6571
C17_2 C 0.9195(3) 0.82774(16) 0.6709(2)
C18_2 C 0.9209(3) 0.77795(17) 0.6944(2)
H17_2 H 0.9688 0.7568 0.6958
C19_2 C 0.8527(2) 0.75958(16) 0.7155(2)
H18_2 H 0.8537 0.7257 0.7308
C20_2 C 0.9877(3) 0.84747(16) 0.6421(2)
C21_2 C 0.6496(2) 0.66058(15) 0.8353(2)
C22_2 C 0.7274(2) 0.65167(15) 0.8980(2)
H19_2 H 0.7733 0.6759 0.9118
C23_2 C 0.7382(2) 0.60813(14) 0.9398(2)
H20_2 H 0.7913 0.6026 0.9821
C24_2 C 0.6717(2) 0.57221(14) 0.9204(2)
C25_2 C 0.5932(2) 0.58100(15) 0.8586(2)
H21_2 H 0.5468 0.5571 0.8459
C26_2 C 0.5828(2) 0.62438(15) 0.8161(2)
H22_2 H 0.5299 0.6297 0.7735
C27_2 C 0.6844(2) 0.52585(15) 0.9665(2)
O17_2 O 0.17571(19) 0.62287(12) 0.87644(17)
H40_2 H 0.1251(5) 0.6153(8) 0.8762(18)
H41_2 H 0.1719(18) 0.6229(10) 0.8303(5)
O23_2 O 0.24076(16) 0.48306(10) 0.98378(14)
O25_2 O 0.37590(18) 0.50615(10) 0.88663(15)
O26_2 O 0.23427(17) 0.52322(11) 0.82494(15)
C82_2 C 0.2953(3) 0.37390(16) 0.5765(2)
C83_2 C 0.2414(3) 0.38721(17) 0.5028(2)
H60_2 H 0.2045 0.4158 0.4953
C84_2 C 0.2408(3) 0.35909(17) 0.4393(2)
C85_2 C 0.2934(3) 0.31741(16) 0.4509(2)
H61_2 H 0.2941 0.2987 0.4078
C86_2 C 0.3461(3) 0.30173(16) 0.5247(2)
C87_2 C 0.3473(3) 0.33060(16) 0.5869(2)
H62_2 H 0.3838 0.3209 0.6372
C88_2 C 0.2978(3) 0.40523(16) 0.6424(2)
C89_2 C 0.3764(3) 0.41279(17) 0.7047(2)
H63_2 H 0.4291 0.3968 0.7050
C90_2 C 0.3792(3) 0.44270(16) 0.7655(2)
H64_2 H 0.4332 0.4465 0.8075
C91_2 C 0.3036(3) 0.46739(15) 0.7658(2)
C92_2 C 0.2237(3) 0.45954(15) 0.7039(2)
H65_2 H 0.1711 0.4755 0.7038
C93_2 C 0.2210(3) 0.42937(15) 0.6444(2)
H66_2 H 0.1664 0.4245 0.6034
C94_2 C 0.3041(3) 0.50121(15) 0.8298(2)
C95_2 C 0.1889(3) 0.37392(16) 0.3594(2)
C96_2 C 0.0975(3) 0.36931(19) 0.3306(2)
H67_2 H 0.0668 0.3602 0.3637
C97_2 C 0.0506(3) 0.37804(18) 0.2531(3)
C98_2 C 0.0950(3) 0.39185(16) 0.2046(2)
C99_2 C 0.1852(3) 0.39754(19) 0.2336(2)
H69_2 H 0.2155 0.4087 0.2011
C100_2 C 0.2324(3) 0.38713(18) 0.3101(2)
H70_2 H 0.2952 0.3891 0.3288
C101_2 C 0.0465(3) 0.40083(15) 0.1205(2)
C102_2 C 0.3979(3) 0.25505(15) 0.5320(2)
C103_2 C 0.3571(3) 0.21370(15) 0.4886(2)
H71_2 H 0.2963 0.2155 0.4573
C104_2 C 0.4034(3) 0.17043(15) 0.4904(2)
H72_2 H 0.3742 0.1423 0.4614
C105_2 C 0.4936(3) 0.16767(15) 0.5350(2)
C106_2 C 0.5342(3) 0.20882(16) 0.5794(2)
H73_2 H 0.5951 0.2071 0.6105
C107_2 C 0.4875(3) 0.25182(16) 0.5788(2)
H74_2 H 0.5158 0.2793 0.6100
C108_2 C 0.5446(3) 0.12180(15) 0.5324(2)
O31 O 0.93693(16) 0.99387(10) 0.54358(15)
O22_2 O 0.93898(19) 0.17927(13) 0.3368(2)
H44_2 H 0.9108(18) 0.1666(12) 0.362(2)
H5_2 H 0.8859(3) 0.9817(6) 0.5238(16)
H6_2 H 0.9455(14) 0.9973(9) 0.5905(2)
H68_2 H 0.9881 0.3745 0.2334
loop_
_geom_bond_atom_site_label_1
_geom_bond_atom_site_label_2
_geom_bond_site_symmetry_1
_geom_bond_site_symmetry_2
H5 O3 1_555 1_555
H6 O3 1_555 1_555
Ca8 O27 1_555 1_555
O22 H44 1_555 1_555
Ca1 O1 1_555 1_555
O1 H1 1_555 1_555
H2 O1 1_555 1_555
O4 Ca1 1_555 1_555
O5 Ca1 1_555 1_555
O35 C20 1_555 1_555
O15 C54 1_555 1_555
C1 C2 1_555 1_555
C2 H8 1_555 1_555
C3 C2 1_555 1_555
C4 C3 1_555 1_555
H9 C4 1_555 1_555
C5 C4 1_555 1_555
C6 C1 1_555 1_555
H10 C6 1_555 1_555
C7 C1 1_555 1_555
C8 C7 1_555 1_555
H11 C8 1_555 1_555
C9 C8 1_555 1_555
H12 C9 1_555 1_555
C10 C9 1_555 1_555
C11 C10 1_555 1_555
H13 C11 1_555 1_555
C12 C7 1_555 1_555
H14 C12 1_555 1_555
C13 O4 1_555 1_555
C14 C3 1_555 1_555
C15 C14 1_555 1_555
H15 C15 1_555 1_555
C16 C15 1_555 1_555
H16 C16 1_555 1_555
C17 C16 1_555 1_555
C18 C17 1_555 1_555
H17 C18 1_555 1_555
C19 C14 1_555 1_555
H18 C19 1_555 1_555
C21 C5 1_555 1_555
C22 C21 1_555 1_555
H19 C22 1_555 1_555
C23 C22 1_555 1_555
H20 C23 1_555 1_555
C24 C23 1_555 1_555
C25 C24 1_555 1_555
H21 C25 1_555 1_555
C26 C21 1_555 1_555
H22 C26 1_555 1_555
C27 O8 1_555 1_555
C28 C29 1_555 1_555
C33 C28 1_555 1_555
H25 C33 1_555 1_555
C34 C28 1_555 1_555
C35 C34 1_555 1_555
H26 C35 1_555 1_555
C36 C35 1_555 1_555
H27 C36 1_555 1_555
C37 C36 1_555 1_555
C38 C37 1_555 1_555
H28 C38 1_555 1_555
C39 C34 1_555 1_555
H29 C39 1_555 1_555
C48 C32 1_555 1_555
C52 C51 1_555 1_555
H36 C52 1_555 1_555
C53 C48 1_555 1_555
H37 C53 1_555 1_555
C54 C51 1_555 1_555
Ca5 O17 1_555 1_555
O17 H40 1_555 1_555
H41 O17 1_555 1_555
O24 Ca3 1_555 1_555
O25 Ca3 1_555 1_555
O26 Ca5 1_555 1_555
C94 O25 1_555 1_555
Ca13 O15 1_555 1_555
O34 Ca5 1_555 1_555
O42 Ca3 1_555 1_555
O44 Ca5 1_555 1_555
O5 C13 1_555 1_555
C5 C6 1_555 1_555
C10 C13 1_555 1_555
C11 C12 1_555 1_555
C17 C20 1_555 1_555
C18 C19 1_555 1_555
C24 C27 1_555 1_555
C25 C26 1_555 1_555
C32 C33 1_555 1_555
C38 C39 1_555 1_555
C52 C53 1_555 1_555
Ca5 O24 1_555 1_555
Ca5 O25 1_555 1_555
O26 C94 1_555 1_555
O13 C47 1_555 1_555
C31 C30 1_555 1_555
H24 C31 1_555 1_555
C41 C30 1_555 1_555
C42 C41 1_555 1_555
H30 C42 1_555 1_555
C43 C42 1_555 1_555
C44 C43 1_555 1_555
C45 C44 1_555 1_555
H32 C45 1_555 1_555
C46 C41 1_555 1_555
H33 C46 1_555 1_555
C47 C44 1_555 1_555
H34 C49 1_555 1_555
C50 C49 1_555 1_555
H35 C50 1_555 1_555
Ca17_2 O14 1_555 1_555
C45 C46 1_555 1_555
O28 C101 1_555 1_555
C85 C84 1_555 1_555
H61 C85 1_555 1_555
C95 C84 1_555 1_555
C96 C95 1_555 1_555
H67 C96 1_555 1_555
C97 C96 1_555 1_555
C98 C97 1_555 1_555
C99 C98 1_555 1_555
H69 C99 1_555 1_555
C100 C95 1_555 1_555
H70 C100 1_555 1_555
C101 C98 1_555 1_555
H71 C103 1_555 1_555
C104 C103 1_555 1_555
H72 C104 1_555 1_555
Ca17 O29 1_555 1_555
C99 C100 1_555 1_555
Ca2 O2 1_555 1_555
Ca3_2 O9 1_555 1_555
O2 H3 1_555 1_555
H4 O2 1_555 1_555
O9 Ca2 1_555 1_555
O10 Ca2 1_555 1_555
O11 Ca2 1_555 1_555
C40 O10 1_555 1_555
Ca10 O16 1_555 1_555
O16 H38 1_555 1_555
H39 O16 1_555 1_555
O19 Ca10 1_555 1_555
O20 Ca10 1_555 1_555
O21 C74 1_555 1_555
O30 C108 1_555 1_555
C55 C56 1_555 1_555
C56 H45 1_555 1_555
C57 C56 1_555 1_555
C58 C57 1_555 1_555
H46 C58 1_555 1_555
C59 C58 1_555 1_555
C60 C55 1_555 1_555
H47 C60 1_555 1_555
C61 C55 1_555 1_555
C62 C61 1_555 1_555
H48 C62 1_555 1_555
C63 C62 1_555 1_555
H49 C63 1_555 1_555
C64 C63 1_555 1_555
C65 C64 1_555 1_555
H50 C65 1_555 1_555
C66 C61 1_555 1_555
H51 C66 1_555 1_555
C67 O19 1_555 1_555
C68 C57 1_555 1_555
C69 C68 1_555 1_555
H52 C69 1_555 1_555
C70 C69 1_555 1_555
H53 C70 1_555 1_555
C71 C70 1_555 1_555
C72 C71 1_555 1_555
H54 C72 1_555 1_555
C73 C68 1_555 1_555
H55 C73 1_555 1_555
C75 C59 1_555 1_555
C76 C75 1_555 1_555
H56 C76 1_555 1_555
C77 C76 1_555 1_555
H57 C77 1_555 1_555
C78 C77 1_555 1_555
C79 C78 1_555 1_555
H58 C79 1_555 1_555
C80 C75 1_555 1_555
H59 C80 1_555 1_555
C81 O23 1_555 1_555
C82 C83 1_555 1_555
C87 C82 1_555 1_555
H62 C87 1_555 1_555
C88 C82 1_555 1_555
C89 C88 1_555 1_555
H63 C89 1_555 1_555
C90 C89 1_555 1_555
H64 C90 1_555 1_555
C91 C90 1_555 1_555
C92 C91 1_555 1_555
H65 C92 1_555 1_555
C93 C88 1_555 1_555
H66 C93 1_555 1_555
C102 C86 1_555 1_555
C106 C105 1_555 1_555
H73 C106 1_555 1_555
C107 C102 1_555 1_555
H74 C107 1_555 1_555
C108 C105 1_555 1_555
Ca15 O30 1_555 1_555
O33 Ca2 1_555 1_555
O41 Ca3_2 1_555 1_555
O43 Ca2 1_555 1_555
Ca3_2 O10 1_555 1_555
O11 C40 1_555 1_555
O20 C67 1_555 1_555
C59 C60 1_555 1_555
C64 C67 1_555 1_555
C65 C66 1_555 1_555
C71 C74 1_555 1_555
C72 C73 1_555 1_555
C78 C81 1_555 1_555
C79 C80 1_555 1_555
C86 C87 1_555 1_555
C92 C93 1_555 1_555
C106 C107 1_555 1_555
O7 H7 1_555 1_555
Ca11 O12 1_555 1_555
H42 O32 1_555 1_555
H43 O32 1_555 1_555
H42_2 O18 1_555 1_555
H43_2 O18 1_555 1_555
O7_2 H7_2 1_555 1_555
Ca13 O2_2 1_555 1_555
O2_2 H3_2 1_555 1_555
H4_2 O2_2 1_555 1_555
O8_2 Ca13 1_555 1_555
O10_2 Ca13 1_555 1_555
O11_2 Ca13 1_555 1_555
O39 C47_2 1_555 1_555
O41 C54_2 1_555 1_555
O43 C54_2 1_555 1_555
C28_2 C29_2 1_555 1_555
C29_2 H23_2 1_555 1_555
C30_2 C29_2 1_555 1_555
C31_2 C30_2 1_555 1_555
H24_2 C31_2 1_555 1_555
C32_2 C31_2 1_555 1_555
C33_2 C28_2 1_555 1_555
H25_2 C33_2 1_555 1_555
C34_2 C28_2 1_555 1_555
C35_2 C34_2 1_555 1_555
H26_2 C35_2 1_555 1_555
C36_2 C35_2 1_555 1_555
H27_2 C36_2 1_555 1_555
C37_2 C36_2 1_555 1_555
C38_2 C37_2 1_555 1_555
H28_2 C38_2 1_555 1_555
C39_2 C34_2 1_555 1_555
H29_2 C39_2 1_555 1_555
C40_2 O10_2 1_555 1_555
C41_2 C30_2 1_555 1_555
C42_2 C41_2 1_555 1_555
H30_2 C42_2 1_555 1_555
C43_2 C42_2 1_555 1_555
C44_2 C43_2 1_555 1_555
C45_2 C44_2 1_555 1_555
H32_2 C45_2 1_555 1_555
C46_2 C41_2 1_555 1_555
H33_2 C46_2 1_555 1_555
C47_2 C44_2 1_555 1_555
C48_2 C32_2 1_555 1_555
C49_2 C48_2 1_555 1_555
H34_2 C49_2 1_555 1_555
C50_2 C49_2 1_555 1_555
H35_2 C50_2 1_555 1_555
C51_2 C50_2 1_555 1_555
C52_2 C51_2 1_555 1_555
H36_2 C52_2 1_555 1_555
C53_2 C48_2 1_555 1_555
H37_2 C53_2 1_555 1_555
C54_2 C51_2 1_555 1_555
Ca11 O16_2 1_555 1_555
O16_2 H38_2 1_555 1_555
H39_2 O16_2 1_555 1_555
O19_2 Ca11 1_555 1_555
O34 Ca11 1_555 1_555
O36 C74_2 1_555 1_555
O24_2 Ca17 1_555 1_555
C55_2 C56_2 1_555 1_555
C56_2 H45_2 1_555 1_555
C57_2 C56_2 1_555 1_555
C58_2 C57_2 1_555 1_555
H46_2 C58_2 1_555 1_555
C59_2 C58_2 1_555 1_555
C60_2 C55_2 1_555 1_555
H47_2 C60_2 1_555 1_555
C61_2 C55_2 1_555 1_555
C62_2 C61_2 1_555 1_555
H48_2 C62_2 1_555 1_555
C63_2 C62_2 1_555 1_555
H49_2 C63_2 1_555 1_555
C64_2 C63_2 1_555 1_555
C65_2 C64_2 1_555 1_555
H50_2 C65_2 1_555 1_555
C66_2 C61_2 1_555 1_555
H51_2 C66_2 1_555 1_555
C67_2 O19_2 1_555 1_555
C68_2 C57_2 1_555 1_555
C69_2 C68_2 1_555 1_555
H52_2 C69_2 1_555 1_555
C70_2 C69_2 1_555 1_555
H53_2 C70_2 1_555 1_555
C71_2 C70_2 1_555 1_555
C72_2 C71_2 1_555 1_555
H54_2 C72_2 1_555 1_555
C73_2 C68_2 1_555 1_555
H55_2 C73_2 1_555 1_555
C75_2 C59_2 1_555 1_555
C76_2 C75_2 1_555 1_555
H56_2 C76_2 1_555 1_555
C77_2 C76_2 1_555 1_555
H57_2 C77_2 1_555 1_555
C78_2 C77_2 1_555 1_555
C79_2 C78_2 1_555 1_555
H58_2 C79_2 1_555 1_555
C80_2 C75_2 1_555 1_555
H59_2 C80_2 1_555 1_555
Ca17 O10_2 1_555 1_555
O11_2 C40_2 1_555 1_555
C32_2 C33_2 1_555 1_555
C37_2 C40_2 1_555 1_555
C38_2 C39_2 1_555 1_555
C45_2 C46_2 1_555 1_555
C52_2 C53_2 1_555 1_555
O34 C67_2 1_555 1_555
O24_2 C81_2 1_555 1_555
C59_2 C60_2 1_555 1_555
C64_2 C67_2 1_555 1_555
C65_2 C66_2 1_555 1_555
C71_2 C74_2 1_555 1_555
C72_2 C73_2 1_555 1_555
C78_2 C81_2 1_555 1_555
C79_2 C80_2 1_555 1_555
Ca8 O1_2 1_555 1_555
Ca17_2 O9_2 1_555 1_555
O1_2 H1_2 1_555 1_555
H2_2 O1_2 1_555 1_555
O4_2 Ca8 1_555 1_555
O33 Ca8 1_555 1_555
O6 C20_2 1_555 1_555
C1_2 C2_2 1_555 1_555
C2_2 H8_2 1_555 1_555
C3_2 C2_2 1_555 1_555
C4_2 C3_2 1_555 1_555
H9_2 C4_2 1_555 1_555
C5_2 C4_2 1_555 1_555
C6_2 C1_2 1_555 1_555
H10_2 C6_2 1_555 1_555
C7_2 C1_2 1_555 1_555
C8_2 C7_2 1_555 1_555
H11_2 C8_2 1_555 1_555
C9_2 C8_2 1_555 1_555
H12_2 C9_2 1_555 1_555
C10_2 C9_2 1_555 1_555
C11_2 C10_2 1_555 1_555
H13_2 C11_2 1_555 1_555
C12_2 C7_2 1_555 1_555
H14_2 C12_2 1_555 1_555
C13_2 O4_2 1_555 1_555
C14_2 C3_2 1_555 1_555
C15_2 C14_2 1_555 1_555
H15_2 C15_2 1_555 1_555
C16_2 C15_2 1_555 1_555
H16_2 C16_2 1_555 1_555
C17_2 C16_2 1_555 1_555
C18_2 C17_2 1_555 1_555
H17_2 C18_2 1_555 1_555
C19_2 C14_2 1_555 1_555
H18_2 C19_2 1_555 1_555
C21_2 C5_2 1_555 1_555
C22_2 C21_2 1_555 1_555
H19_2 C22_2 1_555 1_555
C23_2 C22_2 1_555 1_555
H20_2 C23_2 1_555 1_555
C24_2 C23_2 1_555 1_555
C25_2 C24_2 1_555 1_555
H21_2 C25_2 1_555 1_555
C26_2 C21_2 1_555 1_555
H22_2 C26_2 1_555 1_555
Ca15 O17_2 1_555 1_555
O17_2 H40_2 1_555 1_555
H41_2 O17_2 1_555 1_555
O23_2 Ca15 1_555 1_555
O25_2 Ca17_2 1_555 1_555
O26_2 Ca15 1_555 1_555
O40 C101_2 1_555 1_555
O42 C108_2 1_555 1_555
O44 C108_2 1_555 1_555
C82_2 C83_2 1_555 1_555
C83_2 H60_2 1_555 1_555
C84_2 C83_2 1_555 1_555
C85_2 C84_2 1_555 1_555
H61_2 C85_2 1_555 1_555
C86_2 C85_2 1_555 1_555
C87_2 C82_2 1_555 1_555
H62_2 C87_2 1_555 1_555
C88_2 C82_2 1_555 1_555
C89_2 C88_2 1_555 1_555
H63_2 C89_2 1_555 1_555
C90_2 C89_2 1_555 1_555
H64_2 C90_2 1_555 1_555
C91_2 C90_2 1_555 1_555
C92_2 C91_2 1_555 1_555
H65_2 C92_2 1_555 1_555
C93_2 C88_2 1_555 1_555
H66_2 C93_2 1_555 1_555
C94_2 O25_2 1_555 1_555
C95_2 C84_2 1_555 1_555
C96_2 C95_2 1_555 1_555
H67_2 C96_2 1_555 1_555
C97_2 C96_2 1_555 1_555
C98_2 C97_2 1_555 1_555
C99_2 C98_2 1_555 1_555
H69_2 C99_2 1_555 1_555
C100_2 C95_2 1_555 1_555
H70_2 C100_2 1_555 1_555
C101_2 C98_2 1_555 1_555
C102_2 C86_2 1_555 1_555
C103_2 C102_2 1_555 1_555
H71_2 C103_2 1_555 1_555
C104_2 C103_2 1_555 1_555
H72_2 C104_2 1_555 1_555
C105_2 C104_2 1_555 1_555
C106_2 C105_2 1_555 1_555
H73_2 C106_2 1_555 1_555
C107_2 C102_2 1_555 1_555
H74_2 C107_2 1_555 1_555
C108_2 C105_2 1_555 1_555
O33 C13_2 1_555 1_555
O9_2 C27_2 1_555 1_555
C5_2 C6_2 1_555 1_555
C10_2 C13_2 1_555 1_555
C11_2 C12_2 1_555 1_555
C17_2 C20_2 1_555 1_555
C18_2 C19_2 1_555 1_555
C24_2 C27_2 1_555 1_555
C25_2 C26_2 1_555 1_555
Ca15 O25_2 1_555 1_555
O26_2 C94_2 1_555 1_555
C86_2 C87_2 1_555 1_555
C91_2 C94_2 1_555 1_555
C92_2 C93_2 1_555 1_555
C99_2 C100_2 1_555 1_555
C106_2 C107_2 1_555 1_555
O22_2 H44_2 1_555 1_555
H5_2 O31 1_555 1_555
H6_2 O31 1_555 1_555

#END
