
###############################################################################
#
# This file contains modified crystal structure data generated from the
# MOF subset of the Cambridge Structural Database (CSD) v543 
# hosted by the Cambridge Crystallographic Data Centre (CCDC).
#
# This work is licensed under the Creative Commons
# Attribution-NonCommercial-ShareAlike 4.0 International License.
# To view a copy of this license, visit
# http://creativecommons.org/licenses/by-nc-sa/4.0/
# or send a letter to
# Creative Commons, PO Box 1866, Mountain View, CA 94042, USA.
#
# CIF created using the CSD Python API on 29 September 2022
# The structure has been converted into the P1 space group
# The structure has a 3D framework
# The original CSD entry NOJYER is in the rhombohedral crystal system
# The framework has been calculated to contain at least 10.0% void space
# The void calculation uses a probe of radius 1.32A, grid spacing 0.4
#
###############################################################################

data_NOJYER
_chemical_formula_moiety         '(C378 H234 N54 O18 Zn12)n'
_symmetry_cell_setting           triclinic
_symmetry_space_group_name_H-M   'P 1'
_symmetry_Int_Tables_number      1
_space_group_name_Hall           'P 1'
loop_
_symmetry_equiv_pos_site_id
_symmetry_equiv_pos_as_xyz
1 x,y,z
_cell_length_a                   32.941(2)
_cell_length_b                   32.941(2)
_cell_length_c                   9.4384(11)
_cell_angle_alpha                90
_cell_angle_beta                 90
_cell_angle_gamma                120.00
_cell_volume                     8869.57
loop_
_atom_site_label
_atom_site_type_symbol
_atom_site_fract_x
_atom_site_fract_y
_atom_site_fract_z
Zn1 Zn 0.5000 0.0000 0.0000
N2 N 0.5596(2) 0.0583(2) 0.0705(6)
C6 C 0.6027(3) 0.0773(3) 0.0099(7)
C7 C 0.6375(3) 0.1137(3) 0.0989(8)
H3 H 0.6700 0.1324 0.0799
C8 C 0.6145(3) 0.1157(3) 0.2143(9)
H4 H 0.6281 0.1365 0.2921
C9 C 0.5656(3) 0.0808(3) 0.1991(8)
N4 N 0.4668(2) 0.0009(2) 0.1836(6)
C22 C 0.4836(3) 0.0340(3) 0.2878(7)
C23 C 0.4453(3) 0.0270(3) 0.3845(9)
H14 H 0.4480 0.0444 0.4677
C31 C 0.5302(3) 0.0706(3) 0.3014(7)
C37 C 0.5436(3) 0.1023(3) 0.4242(9)
C38 C 0.5567(4) 0.1491(4) 0.4070(11)
H22 H 0.5576 0.1611 0.3149
C39 C 0.5685(4) 0.1785(4) 0.5251(16)
H23 H 0.5770 0.2104 0.5134
C40 C 0.5680(4) 0.1612(6) 0.6582(15)
C41 C 0.5542(4) 0.1153(6) 0.6765(11)
H24 H 0.5525 0.1035 0.7694
C42 C 0.5422(3) 0.0849(4) 0.5596(8)
H25 H 0.5333 0.0529 0.5730
O2 O 0.5773(3) 0.1891(4) 0.7857(8)
H26 H 0.5967 0.1862 0.8364
H7 H 0.5705 0.0005 0.2454
C23_2 C 0.3063(3) 0.0850(4) 0.0512(9)
H14_2 H 0.2889 0.0703 0.1344
H15 H 0.3546 0.0628 0.0340
H19 H 0.4977 0.0946 0.0487
C37_2 C 0.2310(3) 0.1080(4) 0.0909(9)
C38_2 C 0.1842(4) 0.0743(6) 0.0737(11)
C39_2 C 0.1548(4) 0.0567(6) 0.1918(16)
H23_2 H 0.1229 0.0333 0.1801
C40_2 C 0.1721(6) 0.0735(7) 0.3249(15)
C41_2 C 0.2180(6) 0.1056(7) 0.3432(11)
H24_2 H 0.2298 0.1157 0.4361
C42_2 C 0.2484(4) 0.1240(5) 0.2263(8)
H25_2 H 0.2804 0.1471 0.2397
O2_2 O 0.1442(4) 0.0549(5) 0.4524(8)
H26_2 H 0.1471 0.0772 0.5031
Zn1_2 Zn 0.5000 0.0000 1.0000
C3 C 0.5944(3) 0.0092(3) 0.6691(8)
H2 H 0.6252 0.0213 0.6327
C4 C 0.5811(3) 0.0260(3) 0.7928(8)
C5 C 0.6130(3) 0.0623(3) 0.8814(8)
C11 C 0.6634(3) 0.0876(3) 0.8382(8)
C12 C 0.6788(3) 0.1199(3) 0.7278(9)
H5 H 0.6576 0.1264 0.6779
C13 C 0.7259(3) 0.1424(3) 0.6934(8)
H6 H 0.7365 0.1644 0.6180
N3 N 0.7574(2) 0.1348(2) 0.7598(6)
C14 C 0.7417(3) 0.1026(3) 0.8645(8)
H7_2 H 0.7634 0.0962 0.9121
C15 C 0.6953(3) 0.0785(3) 0.9046(8)
H8 H 0.6853 0.0557 0.9779
Zn2 Zn 0.8333 0.1667 0.6667
N8 N 0.4681(2) 0.0441(3) 0.9069(6)
Zn1_3 Zn 0.5000 1.0000 0.0000
Zn3 Zn 0.1667 0.8333 0.3333
C24 C 0.4056(3) 0.9908(3) 0.3309(8)
H15_2 H 0.3748 0.9787 0.3673
C25 C 0.4189(3) 0.9740(3) 0.2072(8)
C26 C 0.3870(3) 0.9377(3) 0.1186(8)
C32 C 0.3366(3) 0.9124(3) 0.1618(8)
C33 C 0.3212(3) 0.8801(3) 0.2722(9)
H18 H 0.3424 0.8736 0.3221
C34 C 0.2741(3) 0.8576(3) 0.3066(8)
H19_2 H 0.2635 0.8356 0.3820
N6 N 0.2426(2) 0.8652(2) 0.2402(6)
N7 N 0.5319(2) 0.9559(3) 0.0931(6)
C35 C 0.2583(3) 0.8974(3) 0.1355(8)
H20 H 0.2366 0.9038 0.0879
C36 C 0.3047(3) 0.9215(3) 0.0954(8)
H21 H 0.3147 0.9443 0.0221
Zn1_4 Zn 0.0000 0.5000 0.0000
Zn3_2 Zn 0.1667 0.3333 0.3333
C24_2 C 0.0092(3) 0.4148(4) 0.3309(8)
H15_3 H 0.0213 0.3961 0.3673
C25_2 C 0.0260(3) 0.4449(4) 0.2072(8)
C26_2 C 0.0623(3) 0.4493(4) 0.1186(8)
C32_2 C 0.0876(3) 0.4242(4) 0.1618(8)
C33_2 C 0.1199(3) 0.4411(4) 0.2722(9)
H18_2 H 0.1264 0.4688 0.3221
C34_2 C 0.1424(3) 0.4165(4) 0.3066(8)
H19_3 H 0.1644 0.4279 0.3820
N6_2 N 0.1348(2) 0.3774(3) 0.2402(6)
N7_2 N 0.0441(3) 0.5759(4) 0.0931(6)
C35_2 C 0.1026(3) 0.3609(4) 0.1355(8)
H20_2 H 0.0962 0.3328 0.0879
C36_2 C 0.0785(3) 0.3832(4) 0.0954(8)
H21_2 H 0.0557 0.3704 0.0221
Zn1_5 Zn 1.0000 0.5000 1.0000
C3_2 C 0.9908(3) 0.5852(4) 0.6691(8)
H2_2 H 0.9787 0.6039 0.6327
C4_2 C 0.9740(3) 0.5551(4) 0.7928(8)
C5_2 C 0.9377(3) 0.5507(4) 0.8814(8)
C11_2 C 0.9124(3) 0.5758(4) 0.8382(8)
C12_2 C 0.8801(3) 0.5589(4) 0.7278(9)
H5_2 H 0.8736 0.5312 0.6779
C13_2 C 0.8576(3) 0.5835(4) 0.6934(8)
H6_2 H 0.8356 0.5721 0.6180
N3_2 N 0.8652(2) 0.6226(3) 0.7598(6)
C14_2 C 0.8974(3) 0.6391(4) 0.8645(8)
H7_3 H 0.9038 0.6672 0.9121
C15_2 C 0.9215(3) 0.6168(4) 0.9046(8)
H8_2 H 0.9443 0.6296 0.9779
Zn2_2 Zn 0.8333 0.6667 0.6667
N8_2 N 0.9559(3) 0.4241(4) 0.9069(6)
Zn1_6 Zn 0.5000 0.5000 0.0000
N2_2 N 0.4987(3) 0.4404(2) 0.0705(6)
C6_2 C 0.4746(4) 0.3973(3) 0.0099(7)
C7_2 C 0.4762(4) 0.3625(3) 0.0989(8)
H3_2 H 0.4624 0.3300 0.0799
C8_2 C 0.5012(4) 0.3855(3) 0.2143(9)
H4_2 H 0.5084 0.3719 0.2921
C9_2 C 0.5152(4) 0.4344(3) 0.1991(8)
Zn3_3 Zn 0.6667 0.8333 0.3333
N4_2 N 0.5341(3) 0.5332(2) 0.1836(6)
C22_2 C 0.5504(4) 0.5164(3) 0.2878(7)
C23_3 C 0.5817(4) 0.5547(3) 0.3845(9)
H14_3 H 0.5964 0.5520 0.4677
C24_3 C 0.5852(4) 0.5944(3) 0.3309(8)
H15_4 H 0.6039 0.6252 0.3673
C25_3 C 0.5551(4) 0.5811(3) 0.2072(8)
C26_3 C 0.5507(4) 0.6130(3) 0.1186(8)
C31_2 C 0.5404(4) 0.4698(3) 0.3014(7)
C32_3 C 0.5758(4) 0.6634(3) 0.1618(8)
C33_3 C 0.5589(4) 0.6788(3) 0.2722(9)
H18_3 H 0.5312 0.6576 0.3221
C34_3 C 0.5835(4) 0.7259(3) 0.3066(8)
H19_4 H 0.5721 0.7365 0.3820
N6_3 N 0.6226(3) 0.7574(2) 0.2402(6)
N7_3 N 0.4241(4) 0.4681(2) 0.0931(6)
C35_3 C 0.6391(4) 0.7417(3) 0.1355(8)
H20_3 H 0.6672 0.7634 0.0879
C36_3 C 0.6168(4) 0.6953(3) 0.0954(8)
H21_3 H 0.6296 0.6853 0.0221
C37_3 C 0.5587(4) 0.4564(3) 0.4242(9)
C38_3 C 0.5924(6) 0.4433(4) 0.4070(11)
H22_2 H 0.6035 0.4424 0.3149
C39_3 C 0.6100(6) 0.4315(4) 0.5251(16)
H23_3 H 0.6334 0.4230 0.5134
C40_3 C 0.5932(7) 0.4320(4) 0.6582(15)
C41_3 C 0.5611(7) 0.4458(4) 0.6765(11)
H24_3 H 0.5510 0.4475 0.7694
C42_3 C 0.5427(5) 0.4578(3) 0.5596(8)
H25_3 H 0.5196 0.4667 0.5730
O2_3 O 0.6118(5) 0.4227(3) 0.7857(8)
H26_3 H 0.5895 0.4033 0.8364
Zn1_7 Zn 0.5000 0.5000 1.0000
N1 N 0.4659(3) 0.4668(2) 0.8164(6)
C1 C 0.4496(4) 0.4836(3) 0.7122(7)
C2 C 0.4183(4) 0.4453(3) 0.6155(9)
H1 H 0.4036 0.4480 0.5323
C3_3 C 0.4148(4) 0.4056(3) 0.6691(8)
H2_3 H 0.3961 0.3748 0.6327
C4_3 C 0.4449(4) 0.4189(3) 0.7928(8)
C5_3 C 0.4493(4) 0.3870(3) 0.8814(8)
C10 C 0.4596(4) 0.5302(3) 0.6986(7)
C11_3 C 0.4242(4) 0.3366(3) 0.8382(8)
C12_3 C 0.4411(4) 0.3212(3) 0.7278(9)
H5_3 H 0.4688 0.3424 0.6779
C13_3 C 0.4165(4) 0.2741(3) 0.6934(8)
H6_3 H 0.4279 0.2635 0.6180
N3_3 N 0.3774(3) 0.2426(2) 0.7598(6)
C14_3 C 0.3609(4) 0.2583(3) 0.8645(8)
H7_4 H 0.3328 0.2366 0.9121
C15_3 C 0.3832(4) 0.3047(3) 0.9046(8)
H8_3 H 0.3704 0.3147 0.9779
C16 C 0.4413(4) 0.5436(3) 0.5758(9)
C17 C 0.4076(6) 0.5567(4) 0.5930(11)
H9 H 0.3965 0.5576 0.6851
C18 C 0.3900(6) 0.5685(4) 0.4749(16)
H10 H 0.3666 0.5770 0.4866
C19 C 0.4068(7) 0.5680(4) 0.3418(15)
C20 C 0.4389(7) 0.5542(4) 0.3235(11)
H11 H 0.4490 0.5525 0.2306
C21 C 0.4573(5) 0.5422(3) 0.4404(8)
H12 H 0.4804 0.5333 0.4270
O1 O 0.3882(5) 0.5773(3) 0.2143(8)
H13 H 0.4105 0.5967 0.1636
Zn2_3 Zn 0.3333 0.1667 0.6667
N5 N 0.5013(3) 0.5596(2) 0.9295(6)
C27 C 0.5254(4) 0.6027(3) 0.9901(7)
C28 C 0.5238(4) 0.6375(3) 0.9011(8)
H16 H 0.5376 0.6700 0.9201
C29 C 0.4988(4) 0.6145(3) 0.7857(9)
H17 H 0.4916 0.6281 0.7079
C30 C 0.4848(4) 0.5656(3) 0.8009(8)
N8_3 N 0.5759(4) 0.5319(2) 0.9069(6)
N1_2 N 0.1999(2) 0.3324(2) 0.1497(6)
N2_3 N 0.2263(2) 0.3916(2) 0.4038(6)
C1_2 C 0.1831(3) 0.2993(3) 0.0455(7)
C3_4 C 0.2611(3) 0.3425(3) 0.0024(8)
C4_4 C 0.2478(3) 0.3593(3) 0.1261(8)
C5_4 C 0.2797(3) 0.3956(3) 0.2147(8)
C6_3 C 0.2694(3) 0.4106(3) 0.3432(7)
C7_3 C 0.3042(3) 0.4470(3) 0.4322(8)
H3_3 H 0.3367 0.4657 0.4132
C8_3 C 0.2812(3) 0.4490(3) 0.5476(9)
H4_3 H 0.2948 0.4698 0.6254
C9_3 C 0.2323(3) 0.4141(3) 0.5324(8)
C10_2 C 0.1365(3) 0.2627(3) 0.0319(7)
C11_4 C 0.3301(3) 0.4209(3) 0.1715(8)
C12_4 C 0.3455(3) 0.4532(3) 0.0611(9)
H5_4 H 0.3243 0.4597 0.0112
C13_4 C 0.3926(3) 0.4757(3) 0.0267(8)
C14_4 C 0.4084(3) 0.4359(3) 0.1978(8)
H7_5 H 0.4301 0.4295 0.2454
C15_4 C 0.3620(3) 0.4118(3) 0.2379(8)
H8_4 H 0.3520 0.3890 0.3112
H9_2 H 0.1091 0.1722 0.0184
N4_3 N 0.1335(2) 0.3342(2) 0.5169(6)
N5_2 N 0.1071(2) 0.2750(2) 0.2628(6)
C22_3 C 0.1503(3) 0.3673(3) 0.6211(7)
C23_4 C 0.1120(3) 0.3603(3) 0.7178(9)
H14_4 H 0.1147 0.3777 0.8010
C24_4 C 0.0723(3) 0.3241(3) 0.6642(8)
H15_5 H 0.0415 0.3120 0.7006
C25_4 C 0.0856(3) 0.3073(3) 0.5405(8)
C26_4 C 0.0537(3) 0.2710(3) 0.4519(8)
C27_2 C 0.0640(3) 0.2560(3) 0.3234(7)
C28_2 C 0.0292(3) 0.2196(3) 0.2344(8)
C29_2 C 0.0522(3) 0.2176(3) 0.1190(9)
H17_2 H 0.0386 0.1968 0.0412
C30_2 C 0.1011(3) 0.2525(3) 0.1342(8)
C31_3 C 0.1969(3) 0.4039(3) 0.6347(7)
C32_4 C 0.0033(3) 0.2457(3) 0.4951(8)
H18_4 H 0.0091 0.2069 0.6554
N7_4 N 0.1985(2) 0.2893(3) 0.4265(6)
C37_4 C 0.2103(3) 0.4356(3) 0.7575(9)
C38_4 C 0.2234(4) 0.4824(4) 0.7403(11)
H22_3 H 0.2243 0.4944 0.6482
C39_4 C 0.2352(4) 0.5118(4) 0.8584(16)
H23_4 H 0.2437 0.5437 0.8467
C40_4 C 0.2347(4) 0.4945(6) 0.9915(15)
C42_4 C 0.2089(3) 0.4182(4) 0.8929(8)
H25_4 H 0.2000 0.3862 0.9063
C2_2 C 0.2214(3) 0.3063(3) 0.9488(9)
H1_2 H 0.2187 0.2889 0.8656
H2_4 H 0.2919 0.3546 0.9660
H6_4 H 0.4032 0.4977 0.9513
C16_2 C 0.1231(3) 0.2310(3) 0.9091(9)
C17_2 C 0.1100(4) 0.1842(4) 0.9263(11)
C18_2 C 0.0982(4) 0.1548(4) 0.8082(16)
H10_2 H 0.0897 0.1229 0.8199
C19_2 C 0.0987(4) 0.1721(6) 0.6751(15)
C20_2 C 0.1125(4) 0.2180(6) 0.6568(11)
H11_2 H 0.1142 0.2298 0.5639
C21_2 C 0.1245(3) 0.2484(4) 0.7737(8)
H12_2 H 0.1334 0.2804 0.7603
O1_2 O 0.0894(3) 0.1442(4) 0.5476(8)
H13_2 H 0.0700 0.1471 0.4969
H16_2 H 0.9967 0.2009 0.2534
C33_4 C 0.9879(3) 0.2134(3) 0.6055(9)
C34_4 C 0.9408(3) 0.1909(3) 0.6399(8)
H19_5 H 0.9302 0.1689 0.7153
N6_4 N 0.9093(2) 0.1985(2) 0.5735(6)
C35_4 C 0.9250(3) 0.2307(3) 0.4688(8)
H20_4 H 0.9033 0.2371 0.4212
C36_4 C 0.9714(3) 0.2548(3) 0.4287(8)
H21_4 H 0.9814 0.2776 0.3554
N1_3 N 0.6676(2) 0.8674(3) 0.1497(6)
N2_4 N 0.6084(2) 0.8346(3) 0.4038(6)
C1_3 C 0.7007(3) 0.8837(4) 0.0455(7)
C3_5 C 0.6575(3) 0.9185(4) 0.0024(8)
C4_5 C 0.6407(3) 0.8884(4) 0.1261(8)
C5_5 C 0.6044(3) 0.8840(4) 0.2147(8)
C6_4 C 0.5894(3) 0.8587(4) 0.3432(7)
C7_4 C 0.5530(3) 0.8571(4) 0.4322(8)
H3_4 H 0.5343 0.8709 0.4132
C8_4 C 0.5510(3) 0.8321(4) 0.5476(9)
H4_4 H 0.5302 0.8249 0.6254
C9_4 C 0.5859(3) 0.8181(4) 0.5324(8)
C10_3 C 0.7373(3) 0.8737(4) 0.0319(7)
C11_5 C 0.5791(3) 0.9091(4) 0.1715(8)
C12_5 C 0.5468(3) 0.8922(4) 0.0611(9)
H5_5 H 0.5403 0.8645 0.0112
C13_5 C 0.5243(3) 0.9168(4) 0.0267(8)
C14_5 C 0.5641(3) 0.9724(4) 0.1978(8)
C15_5 C 0.5882(3) 0.9501(4) 0.2379(8)
H8_5 H 0.6110 0.9629 0.3112
H9_3 H 0.8278 0.9368 0.0184
N4_4 N 0.6658(2) 0.7992(3) 0.5169(6)
N5_3 N 0.7250(2) 0.8320(3) 0.2628(6)
C22_4 C 0.6327(3) 0.7829(4) 0.6211(7)
C23_5 C 0.6397(3) 0.7516(4) 0.7178(9)
H14_5 H 0.6223 0.7369 0.8010
C24_5 C 0.6759(3) 0.7481(4) 0.6642(8)
H15_6 H 0.6880 0.7294 0.7006
C25_5 C 0.6927(3) 0.7782(4) 0.5405(8)
C26_5 C 0.7290(3) 0.7826(4) 0.4519(8)
C27_3 C 0.7440(3) 0.8079(4) 0.3234(7)
C28_3 C 0.7804(3) 0.8095(4) 0.2344(8)
H16_3 H 0.7991 0.7957 0.2534
C29_3 C 0.7824(3) 0.8345(4) 0.1190(9)
H17_3 H 0.8032 0.8417 0.0412
C30_3 C 0.7475(3) 0.8485(4) 0.1342(8)
C31_4 C 0.5961(3) 0.7929(4) 0.6347(7)
C32_5 C 0.7543(3) 0.7575(4) 0.4951(8)
C33_5 C 0.7866(3) 0.7744(4) 0.6055(9)
H18_5 H 0.7931 0.8021 0.6554
C34_5 C 0.8091(3) 0.7498(4) 0.6399(8)
H19_6 H 0.8311 0.7612 0.7153
N6_5 N 0.8015(2) 0.7107(3) 0.5735(6)
N7_5 N 0.7107(3) 0.9093(4) 0.4265(6)
C35_5 C 0.7693(3) 0.6942(4) 0.4688(8)
H20_5 H 0.7629 0.6661 0.4212
C36_5 C 0.7452(3) 0.7165(4) 0.4287(8)
H21_5 H 0.7224 0.7037 0.3554
C37_5 C 0.5644(3) 0.7746(4) 0.7575(9)
C38_5 C 0.5176(4) 0.7409(6) 0.7403(11)
H22_4 H 0.5056 0.7298 0.6482
C39_5 C 0.4882(4) 0.7233(6) 0.8584(16)
H23_5 H 0.4563 0.6999 0.8467
C40_5 C 0.5055(6) 0.7401(7) 0.9915(15)
C42_5 C 0.5818(4) 0.7906(5) 0.8929(8)
H25_5 H 0.6138 0.8137 0.9063
H16_4 H 0.2043 0.0033 0.2534
C33_6 C 0.2256(4) 0.0121(3) 0.6055(9)
C34_6 C 0.2502(4) 0.0592(3) 0.6399(8)
H19_7 H 0.2388 0.0698 0.7153
N6_6 N 0.2893(3) 0.0907(2) 0.5735(6)
C35_6 C 0.3058(4) 0.0750(3) 0.4688(8)
H20_6 H 0.3339 0.0967 0.4212
C36_6 C 0.2835(4) 0.0286(3) 0.4287(8)
H21_6 H 0.2963 0.0186 0.3554
N1_4 N 0.1326(3) 0.8001(2) 0.1497(6)
N2_5 N 0.1654(3) 0.7737(2) 0.4038(6)
C1_4 C 0.1163(4) 0.8169(3) 0.0455(7)
C3_6 C 0.0815(4) 0.7389(3) 0.0024(8)
C4_6 C 0.1116(4) 0.7522(3) 0.1261(8)
C5_6 C 0.1160(4) 0.7203(3) 0.2147(8)
C6_5 C 0.1413(4) 0.7306(3) 0.3432(7)
C7_5 C 0.1429(4) 0.6958(3) 0.4322(8)
H3_5 H 0.1291 0.6633 0.4132
C8_5 C 0.1679(4) 0.7188(3) 0.5476(9)
H4_5 H 0.1751 0.7052 0.6254
C9_5 C 0.1819(4) 0.7677(3) 0.5324(8)
C10_4 C 0.1263(4) 0.8635(3) 0.0319(7)
C11_6 C 0.0909(4) 0.6699(3) 0.1715(8)
C12_6 C 0.1078(4) 0.6545(3) 0.0611(9)
H5_6 H 0.1355 0.6757 0.0112
C13_6 C 0.0832(4) 0.6074(3) 0.0267(8)
C14_6 C 0.0276(4) 0.5916(3) 0.1978(8)
C15_6 C 0.0499(4) 0.6380(3) 0.2379(8)
H8_6 H 0.0371 0.6480 0.3112
H9_4 H 0.0632 0.8909 0.0184
N4_5 N 0.2008(3) 0.8665(2) 0.5169(6)
N5_4 N 0.1680(3) 0.8929(2) 0.2628(6)
C22_5 C 0.2171(4) 0.8497(3) 0.6211(7)
C23_6 C 0.2484(4) 0.8880(3) 0.7178(9)
H14_6 H 0.2631 0.8853 0.8010
C24_6 C 0.2519(4) 0.9277(3) 0.6642(8)
H15_7 H 0.2706 0.9585 0.7006
C25_6 C 0.2218(4) 0.9144(3) 0.5405(8)
C26_6 C 0.2174(4) 0.9463(3) 0.4519(8)
C27_4 C 0.1921(4) 0.9360(3) 0.3234(7)
C28_4 C 0.1905(4) 0.9708(3) 0.2344(8)
C29_4 C 0.1655(4) 0.9478(3) 0.1190(9)
H17_4 H 0.1583 0.9614 0.0412
C30_4 C 0.1515(4) 0.8989(3) 0.1342(8)
C31_5 C 0.2071(4) 0.8031(3) 0.6347(7)
C32_6 C 0.2425(4) 0.9967(3) 0.4951(8)
H18_6 H 0.1979 0.9909 0.6554
N7_6 N 0.0907(4) 0.8015(2) 0.4265(6)
C37_6 C 0.2254(4) 0.7897(3) 0.7575(9)
C38_6 C 0.2591(6) 0.7766(4) 0.7403(11)
H22_5 H 0.2702 0.7757 0.6482
C39_6 C 0.2767(6) 0.7648(4) 0.8584(16)
H23_6 H 0.3001 0.7563 0.8467
C40_6 C 0.2599(7) 0.7653(4) 0.9915(15)
C42_6 C 0.2094(5) 0.7911(3) 0.8929(8)
H25_6 H 0.1863 0.8000 0.9063
H3_6 H 0.0033 0.7991 0.7466
C12_7 C 0.0121(3) 0.7866(3) 0.3945(9)
C13_7 C 0.0592(3) 0.8091(3) 0.3601(8)
H6_5 H 0.0698 0.8311 0.2847
C14_7 C 0.0750(3) 0.7693(3) 0.5312(8)
H7_6 H 0.0967 0.7629 0.5788
C15_7 C 0.0286(3) 0.7452(3) 0.5713(8)
H8_7 H 0.0186 0.7224 0.6446
C23_7 C 0.7786(3) 0.6937(3) 0.0512(9)
H14_7 H 0.7813 0.7111 0.1344
H15_8 H 0.7081 0.6454 0.0340
H19_8 H 0.5968 0.5023 0.0487
C37_7 C 0.8769(3) 0.7690(3) 0.0909(9)
C38_7 C 0.8900(4) 0.8158(4) 0.0737(11)
C39_7 C 0.9018(4) 0.8452(4) 0.1918(16)
H23_7 H 0.9103 0.8771 0.1801
C40_7 C 0.9013(4) 0.8279(6) 0.3249(15)
C41_4 C 0.8875(4) 0.7820(6) 0.3432(11)
H24_4 H 0.8858 0.7702 0.4361
C42_7 C 0.8755(3) 0.7516(4) 0.2263(8)
H25_7 H 0.8666 0.7196 0.2397
O2_4 O 0.9106(3) 0.8558(4) 0.4524(8)
H26_4 H 0.9300 0.8529 0.5031
N1_5 N 0.8665(2) 0.6658(2) 0.4831(6)
N2_6 N 0.8929(2) 0.7250(2) 0.7372(6)
C1_5 C 0.8497(3) 0.6327(3) 0.3789(7)
C2_3 C 0.8880(3) 0.6397(3) 0.2822(9)
H1_3 H 0.8853 0.6223 0.1990
C3_7 C 0.9277(3) 0.6759(3) 0.3358(8)
H2_5 H 0.9585 0.6880 0.2994
C4_7 C 0.9144(3) 0.6927(3) 0.4595(8)
C5_7 C 0.9463(3) 0.7290(3) 0.5481(8)
C6_6 C 0.9360(3) 0.7440(3) 0.6766(7)
C7_6 C 0.9708(3) 0.7804(3) 0.7656(8)
C8_6 C 0.9478(3) 0.7824(3) 0.8810(9)
H4_6 H 0.9614 0.8032 0.9588
C9_6 C 0.8989(3) 0.7475(3) 0.8658(8)
C10_5 C 0.8031(3) 0.5961(3) 0.3653(7)
C11_7 C 0.9967(3) 0.7543(3) 0.5049(8)
H5_7 H 0.9909 0.7931 0.3446
C16_3 C 0.7897(3) 0.5644(3) 0.2425(9)
C17_3 C 0.7766(4) 0.5176(4) 0.2597(11)
H9_5 H 0.7757 0.5056 0.3518
C18_3 C 0.7648(4) 0.4882(4) 0.1416(16)
H10_3 H 0.7563 0.4563 0.1533
C19_3 C 0.7653(4) 0.5055(6) 0.0085(15)
C21_3 C 0.7911(3) 0.5818(4) 0.1071(8)
H12_3 H 0.8000 0.6138 0.0937
N4_6 N 0.8001(2) 0.6676(2) 0.8503(6)
N5_5 N 0.7737(2) 0.6084(2) 0.5962(6)
C22_6 C 0.8169(3) 0.7007(3) 0.9545(7)
C24_7 C 0.7389(3) 0.6575(3) 0.9976(8)
C25_7 C 0.7522(3) 0.6407(3) 0.8739(8)
C26_7 C 0.7203(3) 0.6044(3) 0.7853(8)
C27_5 C 0.7306(3) 0.5894(3) 0.6568(7)
C28_5 C 0.6958(3) 0.5530(3) 0.5678(8)
H16_5 H 0.6633 0.5343 0.5868
C29_5 C 0.7188(3) 0.5510(3) 0.4524(9)
H17_5 H 0.7052 0.5302 0.3746
C30_5 C 0.7677(3) 0.5859(3) 0.4676(8)
C31_6 C 0.8635(3) 0.7373(3) 0.9681(7)
C32_7 C 0.6699(3) 0.5791(3) 0.8285(8)
C33_7 C 0.6545(3) 0.5468(3) 0.9389(9)
H18_7 H 0.6757 0.5403 0.9888
C34_7 C 0.6074(3) 0.5243(3) 0.9733(8)
C35_7 C 0.5916(3) 0.5641(3) 0.8022(8)
H20_7 H 0.5699 0.5705 0.7546
C36_7 C 0.6380(3) 0.5882(3) 0.7621(8)
H21_7 H 0.6480 0.6110 0.6888
H22_6 H 0.8909 0.8278 0.9816
N1_6 N 0.3342(2) 0.2008(3) 0.4831(6)
N2_7 N 0.2750(2) 0.1680(3) 0.7372(6)
C1_6 C 0.3673(3) 0.2171(4) 0.3789(7)
C2_4 C 0.3603(3) 0.2484(4) 0.2822(9)
H1_4 H 0.3777 0.2631 0.1990
C3_8 C 0.3241(3) 0.2519(4) 0.3358(8)
H2_6 H 0.3120 0.2706 0.2994
C4_8 C 0.3073(3) 0.2218(4) 0.4595(8)
C5_8 C 0.2710(3) 0.2174(4) 0.5481(8)
C6_7 C 0.2560(3) 0.1921(4) 0.6766(7)
C7_7 C 0.2196(3) 0.1905(4) 0.7656(8)
H3_7 H 0.2009 0.2043 0.7466
C8_7 C 0.2176(3) 0.1655(4) 0.8810(9)
H4_7 H 0.1968 0.1583 0.9588
C9_7 C 0.2525(3) 0.1515(4) 0.8658(8)
C10_6 C 0.4039(3) 0.2071(4) 0.3653(7)
C11_8 C 0.2457(3) 0.2425(4) 0.5049(8)
C12_8 C 0.2134(3) 0.2256(4) 0.3945(9)
H5_8 H 0.2069 0.1979 0.3446
C13_8 C 0.1909(3) 0.2502(4) 0.3601(8)
H6_6 H 0.1689 0.2388 0.2847
C14_8 C 0.2307(3) 0.3058(4) 0.5312(8)
H7_7 H 0.2371 0.3339 0.5788
C15_8 C 0.2548(3) 0.2835(4) 0.5713(8)
H8_8 H 0.2776 0.2963 0.6446
C16_4 C 0.4356(3) 0.2254(4) 0.2425(9)
C17_4 C 0.4824(4) 0.2591(6) 0.2597(11)
H9_6 H 0.4944 0.2702 0.3518
C18_4 C 0.5118(4) 0.2767(6) 0.1416(16)
H10_4 H 0.5437 0.3001 0.1533
C19_4 C 0.4945(6) 0.2599(7) 0.0085(15)
C21_4 C 0.4182(4) 0.2094(5) 0.1071(8)
H12_4 H 0.3862 0.1863 0.0937
N4_7 N 0.3324(2) 0.1326(3) 0.8503(6)
N5_6 N 0.3916(2) 0.1654(3) 0.5962(6)
C22_7 C 0.2993(3) 0.1163(4) 0.9545(7)
C24_8 C 0.3425(3) 0.0815(4) 0.9976(8)
C25_8 C 0.3593(3) 0.1116(4) 0.8739(8)
C26_8 C 0.3956(3) 0.1160(4) 0.7853(8)
C27_6 C 0.4106(3) 0.1413(4) 0.6568(7)
C28_6 C 0.4470(3) 0.1429(4) 0.5678(8)
H16_6 H 0.4657 0.1291 0.5868
C29_6 C 0.4490(3) 0.1679(4) 0.4524(9)
H17_6 H 0.4698 0.1751 0.3746
C30_6 C 0.4141(3) 0.1819(4) 0.4676(8)
C31_7 C 0.2627(3) 0.1263(4) 0.9681(7)
C32_8 C 0.4209(3) 0.0909(4) 0.8285(8)
C33_8 C 0.4532(3) 0.1078(4) 0.9389(9)
H18_8 H 0.4597 0.1355 0.9888
C34_8 C 0.4757(3) 0.0832(4) 0.9733(8)
C35_8 C 0.4359(3) 0.0276(4) 0.8022(8)
C36_8 C 0.4118(3) 0.0499(4) 0.7621(8)
H21_8 H 0.3890 0.0371 0.6888
H22_7 H 0.1722 0.0632 0.9816
N1_7 N 0.7992(3) 0.1335(2) 0.4831(6)
N2_8 N 0.8320(3) 0.1071(2) 0.7372(6)
C1_7 C 0.7829(4) 0.1503(3) 0.3789(7)
C2_5 C 0.7516(4) 0.1120(3) 0.2822(9)
H1_5 H 0.7369 0.1147 0.1990
C3_9 C 0.7481(4) 0.0723(3) 0.3358(8)
H2_7 H 0.7294 0.0415 0.2994
C4_9 C 0.7782(4) 0.0856(3) 0.4595(8)
C5_9 C 0.7826(4) 0.0537(3) 0.5481(8)
C6_8 C 0.8079(4) 0.0640(3) 0.6766(7)
C7_8 C 0.8095(4) 0.0292(3) 0.7656(8)
C8_8 C 0.8345(4) 0.0522(3) 0.8810(9)
H4_8 H 0.8417 0.0386 0.9588
C9_8 C 0.8485(4) 0.1011(3) 0.8658(8)
C10_7 C 0.7929(4) 0.1969(3) 0.3653(7)
C11_9 C 0.7575(4) 0.0033(3) 0.5049(8)
H5_9 H 0.8021 0.0091 0.3446
C16_5 C 0.7746(4) 0.2103(3) 0.2425(9)
C17_5 C 0.7409(6) 0.2234(4) 0.2597(11)
H9_7 H 0.7298 0.2243 0.3518
C18_5 C 0.7233(6) 0.2352(4) 0.1416(16)
H10_5 H 0.6999 0.2437 0.1533
C19_5 C 0.7401(7) 0.2347(4) 0.0085(15)
C21_5 C 0.7906(5) 0.2089(3) 0.1071(8)
H12_5 H 0.8137 0.2000 0.0937
N4_8 N 0.8674(3) 0.1999(2) 0.8503(6)
N5_7 N 0.8346(3) 0.2263(2) 0.5962(6)
C22_8 C 0.8837(4) 0.1831(3) 0.9545(7)
C24_9 C 0.9185(4) 0.2611(3) 0.9976(8)
C25_9 C 0.8884(4) 0.2478(3) 0.8739(8)
C26_9 C 0.8840(4) 0.2797(3) 0.7853(8)
C27_7 C 0.8587(4) 0.2694(3) 0.6568(7)
C28_7 C 0.8571(4) 0.3042(3) 0.5678(8)
H16_7 H 0.8709 0.3367 0.5868
C29_7 C 0.8321(4) 0.2812(3) 0.4524(9)
H17_7 H 0.8249 0.2948 0.3746
C30_7 C 0.8181(4) 0.2323(3) 0.4676(8)
C31_8 C 0.8737(4) 0.1365(3) 0.9681(7)
C32_9 C 0.9091(4) 0.3301(3) 0.8285(8)
C33_9 C 0.8922(4) 0.3455(3) 0.9389(9)
H18_9 H 0.8645 0.3243 0.9888
C34_9 C 0.9168(4) 0.3926(3) 0.9733(8)
C35_9 C 0.9724(4) 0.4084(3) 0.8022(8)
C36_9 C 0.9501(4) 0.3620(3) 0.7621(8)
H21_9 H 0.9629 0.3520 0.6888
H22_8 H 0.9368 0.1091 0.9816
H3_8 H 0.7957 0.9967 0.7466
C12_9 C 0.7744(4) 0.9879(3) 0.3945(9)
C13_9 C 0.7498(4) 0.9408(3) 0.3601(8)
H6_7 H 0.7612 0.9302 0.2847
C14_9 C 0.6942(4) 0.9250(3) 0.5312(8)
H7_8 H 0.6661 0.9033 0.5788
C15_9 C 0.7165(4) 0.9714(3) 0.5713(8)
H8_9 H 0.7037 0.9814 0.6446
Zn1_8 Zn 0.5000 1.0000 1.0000
N1_8 N 0.5332(2) 0.9991(2) 0.8164(6)
C1_8 C 0.5164(3) 0.9660(3) 0.7122(7)
C2_6 C 0.5547(3) 0.9730(3) 0.6155(9)
H1_6 H 0.5520 0.9556 0.5323
C10_8 C 0.4698(3) 0.9294(3) 0.6986(7)
C16_6 C 0.4564(3) 0.8977(3) 0.5758(9)
C17_6 C 0.4433(4) 0.8509(4) 0.5930(11)
H9_8 H 0.4424 0.8389 0.6851
C18_6 C 0.4315(4) 0.8215(4) 0.4749(16)
H10_6 H 0.4230 0.7896 0.4866
C19_6 C 0.4320(4) 0.8388(6) 0.3418(15)
C20_3 C 0.4458(4) 0.8847(6) 0.3235(11)
H11_3 H 0.4475 0.8965 0.2306
C21_6 C 0.4578(3) 0.9151(4) 0.4404(8)
H12_6 H 0.4667 0.9471 0.4270
O1_3 O 0.4227(3) 0.8109(4) 0.2143(8)
H13_3 H 0.4033 0.8138 0.1636
N5_8 N 0.4404(2) 0.9417(2) 0.9295(6)
C27_8 C 0.3973(3) 0.9227(3) 0.9901(7)
C28_8 C 0.3625(3) 0.8863(3) 0.9011(8)
H16_8 H 0.3300 0.8676 0.9201
C29_8 C 0.3855(3) 0.8843(3) 0.7857(9)
H17_8 H 0.3719 0.8635 0.7079
C30_8 C 0.4344(3) 0.9192(3) 0.8009(8)
C2_7 C 0.6937(3) 0.9150(4) 0.9488(9)
H1_7 H 0.7111 0.9297 0.8656
H2_8 H 0.6454 0.9372 0.9660
H6_8 H 0.5023 0.9054 0.9513
C16_7 C 0.7690(3) 0.8920(4) 0.9091(9)
C17_7 C 0.8158(4) 0.9257(6) 0.9263(11)
C18_7 C 0.8452(4) 0.9433(6) 0.8082(16)
H10_7 H 0.8771 0.9667 0.8199
C19_7 C 0.8279(6) 0.9265(7) 0.6751(15)
C20_4 C 0.7820(6) 0.8944(7) 0.6568(11)
H11_4 H 0.7702 0.8843 0.5639
C21_7 C 0.7516(4) 0.8760(5) 0.7737(8)
H12_7 H 0.7196 0.8529 0.7603
O1_4 O 0.8558(4) 0.9451(5) 0.5476(8)
H13_4 H 0.8529 0.9228 0.4969
H20_8 H 0.4295 0.9995 0.7546
Zn1_9 Zn 0.0000 0.5000 1.0000
N1_9 N 0.0009(2) 0.5341(3) 0.8164(6)
C1_9 C 0.0340(3) 0.5504(4) 0.7122(7)
C2_8 C 0.0270(3) 0.5817(4) 0.6155(9)
H1_8 H 0.0444 0.5964 0.5323
C10_9 C 0.0706(3) 0.5404(4) 0.6986(7)
C16_8 C 0.1023(3) 0.5587(4) 0.5758(9)
C17_8 C 0.1491(4) 0.5924(6) 0.5930(11)
H9_9 H 0.1611 0.6035 0.6851
C18_8 C 0.1785(4) 0.6100(6) 0.4749(16)
H10_8 H 0.2104 0.6334 0.4866
C19_8 C 0.1612(6) 0.5932(7) 0.3418(15)
C20_5 C 0.1153(6) 0.5611(7) 0.3235(11)
H11_5 H 0.1035 0.5510 0.2306
C21_8 C 0.0849(4) 0.5427(5) 0.4404(8)
H12_8 H 0.0529 0.5196 0.4270
O1_5 O 0.1891(4) 0.6118(5) 0.2143(8)
H13_5 H 0.1862 0.5895 0.1636
N5_9 N 0.0583(2) 0.4987(3) 0.9295(6)
C27_9 C 0.0773(3) 0.4746(4) 0.9901(7)
C28_9 C 0.1137(3) 0.4762(4) 0.9011(8)
H16_9 H 0.1324 0.4624 0.9201
C29_9 C 0.1157(3) 0.5012(4) 0.7857(9)
H17_9 H 0.1365 0.5084 0.7079
C30_9 C 0.0808(3) 0.5152(4) 0.8009(8)
C2_9 C 0.0850(4) 0.7786(3) 0.9488(9)
H1_9 H 0.0703 0.7813 0.8656
H2_9 H 0.0628 0.7081 0.9660
H6_9 H 0.0946 0.5968 0.9513
C16_9 C 0.1080(4) 0.8769(3) 0.9091(9)
C17_9 C 0.0743(6) 0.8900(4) 0.9263(11)
C18_9 C 0.0567(6) 0.9018(4) 0.8082(16)
H10_9 H 0.0333 0.9103 0.8199
C19_9 C 0.0735(7) 0.9013(4) 0.6751(15)
C20_6 C 0.1056(7) 0.8875(4) 0.6568(11)
H11_6 H 0.1157 0.8858 0.5639
C21_9 C 0.1240(5) 0.8755(3) 0.7737(8)
H12_9 H 0.1471 0.8666 0.7603
O1_6 O 0.0549(5) 0.9106(3) 0.5476(8)
H13_6 H 0.0772 0.9300 0.4969
H20_9 H 0.0005 0.4301 0.7546
Zn1_10 Zn 1.0000 0.5000 0.0000
N2_9 N 0.9417(2) 0.5013(3) 0.0705(6)
C6_9 C 0.9227(3) 0.5254(4) 0.0099(7)
C7_9 C 0.8863(3) 0.5238(4) 0.0989(8)
H3_9 H 0.8676 0.5376 0.0799
C8_9 C 0.8843(3) 0.4988(4) 0.2143(9)
H4_9 H 0.8635 0.4916 0.2921
C9_9 C 0.9192(3) 0.4848(4) 0.1991(8)
N4_9 N 0.9991(2) 0.4659(3) 0.1836(6)
C22_9 C 0.9660(3) 0.4496(4) 0.2878(7)
C23_8 C 0.9730(3) 0.4183(4) 0.3845(9)
H14_8 H 0.9556 0.4036 0.4677
C31_9 C 0.9294(3) 0.4596(4) 0.3014(7)
C37_8 C 0.8977(3) 0.4413(4) 0.4242(9)
C38_8 C 0.8509(4) 0.4076(6) 0.4070(11)
H22_9 H 0.8389 0.3965 0.3149
C39_8 C 0.8215(4) 0.3900(6) 0.5251(16)
H23_8 H 0.7896 0.3666 0.5134
C40_8 C 0.8388(6) 0.4068(7) 0.6582(15)
C41_5 C 0.8847(6) 0.4389(7) 0.6765(11)
H24_5 H 0.8965 0.4490 0.7694
C42_8 C 0.9151(4) 0.4573(5) 0.5596(8)
H25_8 H 0.9471 0.4804 0.5730
O2_5 O 0.8109(4) 0.3882(5) 0.7857(8)
H26_5 H 0.8138 0.4105 0.8364
H7_9 H 0.9995 0.5699 0.2454
C23_9 C 0.9150(4) 0.2214(3) 0.0512(9)
H14_9 H 0.9297 0.2187 0.1344
H15_9 H 0.9372 0.2919 0.0340
H19_9 H 0.9054 0.4032 0.0487
C37_9 C 0.8920(4) 0.1231(3) 0.0909(9)
C38_9 C 0.9257(6) 0.1100(4) 0.0737(11)
C39_9 C 0.9433(6) 0.0982(4) 0.1918(16)
H23_9 H 0.9667 0.0897 0.1801
C40_9 C 0.9265(7) 0.0987(4) 0.3249(15)
C41_6 C 0.8944(7) 0.1125(4) 0.3432(11)
H24_6 H 0.8843 0.1142 0.4361
C42_9 C 0.8760(5) 0.1245(3) 0.2263(8)
H25_9 H 0.8529 0.1334 0.2397
O2_6 O 0.9451(5) 0.0894(3) 0.4524(8)
H26_6 H 0.9228 0.0700 0.5031
C41_7 C 0.2209(4) 0.4486(6) 0.0098(11)
H24_7 H 0.2192 0.4368 0.1027
O2_7 O 0.2440(3) 0.5224(4) 0.1190(8)
H26_7 H 0.2634 0.5195 0.1697
C41_8 C 0.5514(6) 0.7722(7) 0.0098(11)
H24_8 H 0.5632 0.7823 0.1027
O2_8 O 0.4776(4) 0.7215(5) 0.1190(8)
H26_8 H 0.4805 0.7438 0.1697
C41_9 C 0.2278(7) 0.7791(4) 0.0098(11)
H24_9 H 0.2177 0.7808 0.1027
O2_9 O 0.2785(5) 0.7560(3) 0.1190(8)
H26_9 H 0.2562 0.7366 0.1697
C20_7 C 0.7791(4) 0.5514(6) 0.9902(11)
H11_7 H 0.7808 0.5632 0.8973
O1_7 O 0.7560(3) 0.4776(4) 0.8810(8)
H13_7 H 0.7366 0.4805 0.8303
C20_8 C 0.4486(6) 0.2278(7) 0.9902(11)
H11_8 H 0.4368 0.2177 0.8973
O1_8 O 0.5224(4) 0.2785(5) 0.8810(8)
H13_8 H 0.5195 0.2562 0.8303
C20_9 C 0.7722(7) 0.2209(4) 0.9902(11)
H11_9 H 0.7823 0.2192 0.8973
O1_9 O 0.7215(5) 0.2440(3) 0.8810(8)
H13_9 H 0.7438 0.2634 0.8303
loop_
_geom_bond_atom_site_label_1
_geom_bond_atom_site_label_2
_geom_bond_site_symmetry_1
_geom_bond_site_symmetry_2
N2 Zn1 1_555 1_555
C6 N2 1_555 1_555
C7 C6 1_555 1_555
H3 C7 1_555 1_555
C8 C7 1_555 1_555
H4 C8 1_555 1_555
C9 N2 1_555 1_555
N4 Zn1 1_555 1_555
C22 N4 1_555 1_555
C23 C22 1_555 1_555
H14 C23 1_555 1_555
C31 C9 1_555 1_555
C37 C31 1_555 1_555
C38 C37 1_555 1_555
H22 C38 1_555 1_555
C39 C38 1_555 1_555
H23 C39 1_555 1_555
C40 C39 1_555 1_555
C41 C40 1_555 1_555
H24 C41 1_555 1_555
C42 C37 1_555 1_555
H25 C42 1_555 1_555
O2 C40 1_555 1_555
H26 O2 1_555 1_555
C8 C9 1_555 1_555
C22 C31 1_555 1_555
C41 C42 1_555 1_555
H14_2 C23_2 1_555 1_555
C38_2 C37_2 1_555 1_555
C39_2 C38_2 1_555 1_555
H23_2 C39_2 1_555 1_555
C40_2 C39_2 1_555 1_555
C41_2 C40_2 1_555 1_555
H24_2 C41_2 1_555 1_555
C42_2 C37_2 1_555 1_555
H25_2 C42_2 1_555 1_555
O2_2 C40_2 1_555 1_555
H26_2 O2_2 1_555 1_555
C41_2 C42_2 1_555 1_555
H2 C3 1_555 1_555
C5 C4 1_555 1_555
C11 C5 1_555 1_555
C12 C11 1_555 1_555
H5 C12 1_555 1_555
C13 C12 1_555 1_555
H6 C13 1_555 1_555
N3 C13 1_555 1_555
C14 N3 1_555 1_555
H7_2 C14 1_555 1_555
C15 C11 1_555 1_555
H8 C15 1_555 1_555
Zn2 N3 1_555 1_555
N8 Zn1_2 1_555 1_555
C3 C4 1_555 1_555
C14 C15 1_555 1_555
Zn3 N6 1_555 1_555
H15_2 C24 1_555 1_555
C26 C25 1_555 1_555
C32 C26 1_555 1_555
C33 C32 1_555 1_555
H18 C33 1_555 1_555
C34 C33 1_555 1_555
H19_2 C34 1_555 1_555
N6 C34 1_555 1_555
N7 Zn1_3 1_555 1_555
C35 N6 1_555 1_555
H20 C35 1_555 1_555
C36 C32 1_555 1_555
H21 C36 1_555 1_555
C24 C25 1_555 1_555
C35 C36 1_555 1_555
Zn3_2 N6_2 1_555 1_555
H15_3 C24_2 1_555 1_555
C26_2 C25_2 1_555 1_555
C32_2 C26_2 1_555 1_555
C33_2 C32_2 1_555 1_555
H18_2 C33_2 1_555 1_555
C34_2 C33_2 1_555 1_555
H19_3 C34_2 1_555 1_555
N6_2 C34_2 1_555 1_555
N7_2 Zn1_4 1_555 1_555
C35_2 N6_2 1_555 1_555
H20_2 C35_2 1_555 1_555
C36_2 C32_2 1_555 1_555
H21_2 C36_2 1_555 1_555
C24_2 C25_2 1_555 1_555
C35_2 C36_2 1_555 1_555
H2_2 C3_2 1_555 1_555
C5_2 C4_2 1_555 1_555
C11_2 C5_2 1_555 1_555
C12_2 C11_2 1_555 1_555
H5_2 C12_2 1_555 1_555
C13_2 C12_2 1_555 1_555
H6_2 C13_2 1_555 1_555
N3_2 C13_2 1_555 1_555
C14_2 N3_2 1_555 1_555
H7_3 C14_2 1_555 1_555
C15_2 C11_2 1_555 1_555
H8_2 C15_2 1_555 1_555
Zn2_2 N3_2 1_555 1_555
N8_2 Zn1_5 1_555 1_555
C3_2 C4_2 1_555 1_555
C14_2 C15_2 1_555 1_555
N2_2 Zn1_6 1_555 1_555
C6_2 N2_2 1_555 1_555
C7_2 C6_2 1_555 1_555
H3_2 C7_2 1_555 1_555
C8_2 C7_2 1_555 1_555
H4_2 C8_2 1_555 1_555
C9_2 N2_2 1_555 1_555
Zn3_3 N6_3 1_555 1_555
N4_2 Zn1_6 1_555 1_555
C22_2 N4_2 1_555 1_555
C23_3 C22_2 1_555 1_555
H14_3 C23_3 1_555 1_555
C24_3 C23_3 1_555 1_555
H15_4 C24_3 1_555 1_555
C25_3 N4_2 1_555 1_555
C26_3 C25_3 1_555 1_555
C31_2 C9_2 1_555 1_555
C32_3 C26_3 1_555 1_555
C33_3 C32_3 1_555 1_555
H18_3 C33_3 1_555 1_555
C34_3 C33_3 1_555 1_555
H19_4 C34_3 1_555 1_555
N6_3 C34_3 1_555 1_555
N7_3 Zn1_6 1_555 1_555
C35_3 N6_3 1_555 1_555
H20_3 C35_3 1_555 1_555
C36_3 C32_3 1_555 1_555
H21_3 C36_3 1_555 1_555
C37_3 C31_2 1_555 1_555
C38_3 C37_3 1_555 1_555
H22_2 C38_3 1_555 1_555
C39_3 C38_3 1_555 1_555
H23_3 C39_3 1_555 1_555
C40_3 C39_3 1_555 1_555
C41_3 C40_3 1_555 1_555
H24_3 C41_3 1_555 1_555
C42_3 C37_3 1_555 1_555
H25_3 C42_3 1_555 1_555
O2_3 C40_3 1_555 1_555
H26_3 O2_3 1_555 1_555
C8_2 C9_2 1_555 1_555
C22_2 C31_2 1_555 1_555
C24_3 C25_3 1_555 1_555
C35_3 C36_3 1_555 1_555
C41_3 C42_3 1_555 1_555
Zn1_7 N1 1_555 1_555
N1 C1 1_555 1_555
C1 C2 1_555 1_555
C2 H1 1_555 1_555
C3_3 C2 1_555 1_555
H2_3 C3_3 1_555 1_555
C4_3 N1 1_555 1_555
C5_3 C4_3 1_555 1_555
C10 C1 1_555 1_555
C11_3 C5_3 1_555 1_555
C12_3 C11_3 1_555 1_555
H5_3 C12_3 1_555 1_555
C13_3 C12_3 1_555 1_555
H6_3 C13_3 1_555 1_555
N3_3 C13_3 1_555 1_555
C14_3 N3_3 1_555 1_555
H7_4 C14_3 1_555 1_555
C15_3 C11_3 1_555 1_555
H8_3 C15_3 1_555 1_555
C16 C10 1_555 1_555
C17 C16 1_555 1_555
H9 C17 1_555 1_555
C18 C17 1_555 1_555
H10 C18 1_555 1_555
C19 C18 1_555 1_555
C20 C19 1_555 1_555
H11 C20 1_555 1_555
C21 C16 1_555 1_555
H12 C21 1_555 1_555
O1 C19 1_555 1_555
H13 O1 1_555 1_555
Zn2_3 N3_3 1_555 1_555
N5 Zn1_7 1_555 1_555
C27 N5 1_555 1_555
C28 C27 1_555 1_555
H16 C28 1_555 1_555
C29 C28 1_555 1_555
H17 C29 1_555 1_555
C30 C10 1_555 1_555
N8_3 Zn1_7 1_555 1_555
C3_3 C4_3 1_555 1_555
C14_3 C15_3 1_555 1_555
C20 C21 1_555 1_555
N5 C30 1_555 1_555
C29 C30 1_555 1_555
Zn3_2 N1_2 1_555 1_555
N1_2 C1_2 1_555 1_555
N2_3 Zn3_2 1_555 1_555
C4_4 N1_2 1_555 1_555
C5_4 C4_4 1_555 1_555
C6_3 N2_3 1_555 1_555
C7_3 C6_3 1_555 1_555
H3_3 C7_3 1_555 1_555
C8_3 C7_3 1_555 1_555
H4_3 C8_3 1_555 1_555
C9_3 N2_3 1_555 1_555
C10_2 C1_2 1_555 1_555
C11_4 C5_4 1_555 1_555
C12_4 C11_4 1_555 1_555
H5_4 C12_4 1_555 1_555
C13_4 C12_4 1_555 1_555
N7_3 C13_4 1_555 1_555
C14_4 N7_3 1_555 1_555
H7_5 C14_4 1_555 1_555
C15_4 C11_4 1_555 1_555
H8_4 C15_4 1_555 1_555
N4_3 Zn3_2 1_555 1_555
N5_2 Zn3_2 1_555 1_555
C22_3 N4_3 1_555 1_555
C23_4 C22_3 1_555 1_555
H14_4 C23_4 1_555 1_555
C24_4 C23_4 1_555 1_555
H15_5 C24_4 1_555 1_555
C25_4 N4_3 1_555 1_555
C26_4 C25_4 1_555 1_555
C27_2 N5_2 1_555 1_555
C28_2 C27_2 1_555 1_555
C29_2 C28_2 1_555 1_555
H17_2 C29_2 1_555 1_555
C30_2 C10_2 1_555 1_555
C31_3 C9_3 1_555 1_555
C32_4 C26_4 1_555 1_555
N7_4 Zn3_2 1_555 1_555
C37_4 C31_3 1_555 1_555
C38_4 C37_4 1_555 1_555
H22_3 C38_4 1_555 1_555
C39_4 C38_4 1_555 1_555
H23_4 C39_4 1_555 1_555
C40_4 C39_4 1_555 1_555
C42_4 C37_4 1_555 1_555
H25_4 C42_4 1_555 1_555
C3_4 C4_4 1_555 1_555
C5_4 C6_3 1_555 1_555
C8_3 C9_3 1_555 1_555
C14_4 C15_4 1_555 1_555
N5_2 C30_2 1_555 1_555
C22_3 C31_3 1_555 1_555
C24_4 C25_4 1_555 1_555
C26_4 C27_2 1_555 1_555
C29_2 C30_2 1_555 1_555
C2_2 H1_2 1_555 1_555
C17_2 C16_2 1_555 1_555
C18_2 C17_2 1_555 1_555
H10_2 C18_2 1_555 1_555
C19_2 C18_2 1_555 1_555
C20_2 C19_2 1_555 1_555
H11_2 C20_2 1_555 1_555
C21_2 C16_2 1_555 1_555
H12_2 C21_2 1_555 1_555
O1_2 C19_2 1_555 1_555
H13_2 O1_2 1_555 1_555
C20_2 C21_2 1_555 1_555
Zn2 N6_4 1_555 1_555
C34_4 C33_4 1_555 1_555
H19_5 C34_4 1_555 1_555
N6_4 C34_4 1_555 1_555
C35_4 N6_4 1_555 1_555
H20_4 C35_4 1_555 1_555
H21_4 C36_4 1_555 1_555
C35_4 C36_4 1_555 1_555
Zn3_3 N1_3 1_555 1_555
N1_3 C1_3 1_555 1_555
N2_4 Zn3_3 1_555 1_555
C4_5 N1_3 1_555 1_555
C5_5 C4_5 1_555 1_555
C6_4 N2_4 1_555 1_555
C7_4 C6_4 1_555 1_555
H3_4 C7_4 1_555 1_555
C8_4 C7_4 1_555 1_555
H4_4 C8_4 1_555 1_555
C9_4 N2_4 1_555 1_555
C10_3 C1_3 1_555 1_555
C11_5 C5_5 1_555 1_555
C12_5 C11_5 1_555 1_555
H5_5 C12_5 1_555 1_555
C13_5 C12_5 1_555 1_555
N7 C13_5 1_555 1_555
C14_5 N7 1_555 1_555
C15_5 C11_5 1_555 1_555
H8_5 C15_5 1_555 1_555
Zn2_2 N6_5 1_555 1_555
N4_4 Zn3_3 1_555 1_555
N5_3 Zn3_3 1_555 1_555
C22_4 N4_4 1_555 1_555
C23_5 C22_4 1_555 1_555
H14_5 C23_5 1_555 1_555
C24_5 C23_5 1_555 1_555
H15_6 C24_5 1_555 1_555
C25_5 N4_4 1_555 1_555
C26_5 C25_5 1_555 1_555
C27_3 N5_3 1_555 1_555
C28_3 C27_3 1_555 1_555
H16_3 C28_3 1_555 1_555
C29_3 C28_3 1_555 1_555
H17_3 C29_3 1_555 1_555
C30_3 C10_3 1_555 1_555
C31_4 C9_4 1_555 1_555
C32_5 C26_5 1_555 1_555
C33_5 C32_5 1_555 1_555
H18_5 C33_5 1_555 1_555
C34_5 C33_5 1_555 1_555
H19_6 C34_5 1_555 1_555
N6_5 C34_5 1_555 1_555
N7_5 Zn3_3 1_555 1_555
C35_5 N6_5 1_555 1_555
H20_5 C35_5 1_555 1_555
C36_5 C32_5 1_555 1_555
H21_5 C36_5 1_555 1_555
C37_5 C31_4 1_555 1_555
C38_5 C37_5 1_555 1_555
H22_4 C38_5 1_555 1_555
C39_5 C38_5 1_555 1_555
H23_5 C39_5 1_555 1_555
C40_5 C39_5 1_555 1_555
C42_5 C37_5 1_555 1_555
H25_5 C42_5 1_555 1_555
C3_5 C4_5 1_555 1_555
C5_5 C6_4 1_555 1_555
C8_4 C9_4 1_555 1_555
C14_5 C15_5 1_555 1_555
N5_3 C30_3 1_555 1_555
C22_4 C31_4 1_555 1_555
C24_5 C25_5 1_555 1_555
C26_5 C27_3 1_555 1_555
C29_3 C30_3 1_555 1_555
C35_5 C36_5 1_555 1_555
Zn2_3 N6_6 1_555 1_555
C34_6 C33_6 1_555 1_555
H19_7 C34_6 1_555 1_555
N6_6 C34_6 1_555 1_555
C35_6 N6_6 1_555 1_555
H20_6 C35_6 1_555 1_555
H21_6 C36_6 1_555 1_555
C35_6 C36_6 1_555 1_555
Zn3 N1_4 1_555 1_555
N1_4 C1_4 1_555 1_555
N2_5 Zn3 1_555 1_555
C4_6 N1_4 1_555 1_555
C5_6 C4_6 1_555 1_555
C6_5 N2_5 1_555 1_555
C7_5 C6_5 1_555 1_555
H3_5 C7_5 1_555 1_555
C8_5 C7_5 1_555 1_555
H4_5 C8_5 1_555 1_555
C9_5 N2_5 1_555 1_555
C10_4 C1_4 1_555 1_555
C11_6 C5_6 1_555 1_555
C12_6 C11_6 1_555 1_555
H5_6 C12_6 1_555 1_555
C13_6 C12_6 1_555 1_555
N7_2 C13_6 1_555 1_555
C14_6 N7_2 1_555 1_555
C15_6 C11_6 1_555 1_555
H8_6 C15_6 1_555 1_555
N4_5 Zn3 1_555 1_555
N5_4 Zn3 1_555 1_555
C22_5 N4_5 1_555 1_555
C23_6 C22_5 1_555 1_555
H14_6 C23_6 1_555 1_555
C24_6 C23_6 1_555 1_555
H15_7 C24_6 1_555 1_555
C25_6 N4_5 1_555 1_555
C26_6 C25_6 1_555 1_555
C27_4 N5_4 1_555 1_555
C28_4 C27_4 1_555 1_555
C29_4 C28_4 1_555 1_555
H17_4 C29_4 1_555 1_555
C30_4 C10_4 1_555 1_555
C31_5 C9_5 1_555 1_555
C32_6 C26_6 1_555 1_555
N7_6 Zn3 1_555 1_555
C37_6 C31_5 1_555 1_555
C38_6 C37_6 1_555 1_555
H22_5 C38_6 1_555 1_555
C39_6 C38_6 1_555 1_555
H23_6 C39_6 1_555 1_555
C40_6 C39_6 1_555 1_555
C42_6 C37_6 1_555 1_555
H25_6 C42_6 1_555 1_555
C3_6 C4_6 1_555 1_555
C5_6 C6_5 1_555 1_555
C8_5 C9_5 1_555 1_555
C14_6 C15_6 1_555 1_555
N5_4 C30_4 1_555 1_555
C22_5 C31_5 1_555 1_555
C24_6 C25_6 1_555 1_555
C26_6 C27_4 1_555 1_555
C29_4 C30_4 1_555 1_555
C13_7 C12_7 1_555 1_555
H6_5 C13_7 1_555 1_555
N7_6 C13_7 1_555 1_555
C14_7 N7_6 1_555 1_555
H7_6 C14_7 1_555 1_555
H8_7 C15_7 1_555 1_555
C14_7 C15_7 1_555 1_555
H14_7 C23_7 1_555 1_555
C38_7 C37_7 1_555 1_555
C39_7 C38_7 1_555 1_555
H23_7 C39_7 1_555 1_555
C40_7 C39_7 1_555 1_555
C41_4 C40_7 1_555 1_555
H24_4 C41_4 1_555 1_555
C42_7 C37_7 1_555 1_555
H25_7 C42_7 1_555 1_555
O2_4 C40_7 1_555 1_555
H26_4 O2_4 1_555 1_555
C41_4 C42_7 1_555 1_555
Zn2_2 N1_5 1_555 1_555
N1_5 C1_5 1_555 1_555
N2_6 Zn2_2 1_555 1_555
C1_5 C2_3 1_555 1_555
C2_3 H1_3 1_555 1_555
C3_7 C2_3 1_555 1_555
H2_5 C3_7 1_555 1_555
C4_7 N1_5 1_555 1_555
C5_7 C4_7 1_555 1_555
C6_6 N2_6 1_555 1_555
C7_6 C6_6 1_555 1_555
C8_6 C7_6 1_555 1_555
H4_6 C8_6 1_555 1_555
C9_6 N2_6 1_555 1_555
C10_5 C1_5 1_555 1_555
C11_7 C5_7 1_555 1_555
C16_3 C10_5 1_555 1_555
C17_3 C16_3 1_555 1_555
H9_5 C17_3 1_555 1_555
C18_3 C17_3 1_555 1_555
H10_3 C18_3 1_555 1_555
C19_3 C18_3 1_555 1_555
C21_3 C16_3 1_555 1_555
H12_3 C21_3 1_555 1_555
N4_6 Zn2_2 1_555 1_555
N5_5 Zn2_2 1_555 1_555
C22_6 N4_6 1_555 1_555
C25_7 N4_6 1_555 1_555
C26_7 C25_7 1_555 1_555
C27_5 N5_5 1_555 1_555
C28_5 C27_5 1_555 1_555
H16_5 C28_5 1_555 1_555
C29_5 C28_5 1_555 1_555
H17_5 C29_5 1_555 1_555
C30_5 C10_5 1_555 1_555
C31_6 C9_6 1_555 1_555
C32_7 C26_7 1_555 1_555
C33_7 C32_7 1_555 1_555
H18_7 C33_7 1_555 1_555
C34_7 C33_7 1_555 1_555
N8_3 C34_7 1_555 1_555
C35_7 N8_3 1_555 1_555
H20_7 C35_7 1_555 1_555
C36_7 C32_7 1_555 1_555
H21_7 C36_7 1_555 1_555
C3_7 C4_7 1_555 1_555
C5_7 C6_6 1_555 1_555
C8_6 C9_6 1_555 1_555
N5_5 C30_5 1_555 1_555
C22_6 C31_6 1_555 1_555
C24_7 C25_7 1_555 1_555
C26_7 C27_5 1_555 1_555
C29_5 C30_5 1_555 1_555
C35_7 C36_7 1_555 1_555
Zn2_3 N1_6 1_555 1_555
N1_6 C1_6 1_555 1_555
N2_7 Zn2_3 1_555 1_555
C1_6 C2_4 1_555 1_555
C2_4 H1_4 1_555 1_555
C3_8 C2_4 1_555 1_555
H2_6 C3_8 1_555 1_555
C4_8 N1_6 1_555 1_555
C5_8 C4_8 1_555 1_555
C6_7 N2_7 1_555 1_555
C7_7 C6_7 1_555 1_555
H3_7 C7_7 1_555 1_555
C8_7 C7_7 1_555 1_555
H4_7 C8_7 1_555 1_555
C9_7 N2_7 1_555 1_555
C10_6 C1_6 1_555 1_555
C11_8 C5_8 1_555 1_555
C12_8 C11_8 1_555 1_555
H5_8 C12_8 1_555 1_555
C13_8 C12_8 1_555 1_555
H6_6 C13_8 1_555 1_555
N7_4 C13_8 1_555 1_555
C14_8 N7_4 1_555 1_555
H7_7 C14_8 1_555 1_555
C15_8 C11_8 1_555 1_555
H8_8 C15_8 1_555 1_555
C16_4 C10_6 1_555 1_555
C17_4 C16_4 1_555 1_555
H9_6 C17_4 1_555 1_555
C18_4 C17_4 1_555 1_555
H10_4 C18_4 1_555 1_555
C19_4 C18_4 1_555 1_555
C21_4 C16_4 1_555 1_555
H12_4 C21_4 1_555 1_555
N4_7 Zn2_3 1_555 1_555
N5_6 Zn2_3 1_555 1_555
C22_7 N4_7 1_555 1_555
C25_8 N4_7 1_555 1_555
C26_8 C25_8 1_555 1_555
C27_6 N5_6 1_555 1_555
C28_6 C27_6 1_555 1_555
H16_6 C28_6 1_555 1_555
C29_6 C28_6 1_555 1_555
H17_6 C29_6 1_555 1_555
C30_6 C10_6 1_555 1_555
C31_7 C9_7 1_555 1_555
C32_8 C26_8 1_555 1_555
C33_8 C32_8 1_555 1_555
H18_8 C33_8 1_555 1_555
C34_8 C33_8 1_555 1_555
N8 C34_8 1_555 1_555
C35_8 N8 1_555 1_555
C36_8 C32_8 1_555 1_555
H21_8 C36_8 1_555 1_555
C3_8 C4_8 1_555 1_555
C5_8 C6_7 1_555 1_555
C8_7 C9_7 1_555 1_555
C14_8 C15_8 1_555 1_555
N5_6 C30_6 1_555 1_555
C22_7 C31_7 1_555 1_555
C24_8 C25_8 1_555 1_555
C26_8 C27_6 1_555 1_555
C29_6 C30_6 1_555 1_555
C35_8 C36_8 1_555 1_555
Zn2 N1_7 1_555 1_555
N1_7 C1_7 1_555 1_555
N2_8 Zn2 1_555 1_555
C1_7 C2_5 1_555 1_555
C2_5 H1_5 1_555 1_555
C3_9 C2_5 1_555 1_555
H2_7 C3_9 1_555 1_555
C4_9 N1_7 1_555 1_555
C5_9 C4_9 1_555 1_555
C6_8 N2_8 1_555 1_555
C7_8 C6_8 1_555 1_555
C8_8 C7_8 1_555 1_555
H4_8 C8_8 1_555 1_555
C9_8 N2_8 1_555 1_555
C10_7 C1_7 1_555 1_555
C11_9 C5_9 1_555 1_555
C16_5 C10_7 1_555 1_555
C17_5 C16_5 1_555 1_555
H9_7 C17_5 1_555 1_555
C18_5 C17_5 1_555 1_555
H10_5 C18_5 1_555 1_555
C19_5 C18_5 1_555 1_555
C21_5 C16_5 1_555 1_555
H12_5 C21_5 1_555 1_555
N4_8 Zn2 1_555 1_555
N5_7 Zn2 1_555 1_555
C22_8 N4_8 1_555 1_555
C25_9 N4_8 1_555 1_555
C26_9 C25_9 1_555 1_555
C27_7 N5_7 1_555 1_555
C28_7 C27_7 1_555 1_555
H16_7 C28_7 1_555 1_555
C29_7 C28_7 1_555 1_555
H17_7 C29_7 1_555 1_555
C30_7 C10_7 1_555 1_555
C31_8 C9_8 1_555 1_555
C32_9 C26_9 1_555 1_555
C33_9 C32_9 1_555 1_555
H18_9 C33_9 1_555 1_555
C34_9 C33_9 1_555 1_555
N8_2 C34_9 1_555 1_555
C35_9 N8_2 1_555 1_555
C36_9 C32_9 1_555 1_555
H21_9 C36_9 1_555 1_555
C3_9 C4_9 1_555 1_555
C5_9 C6_8 1_555 1_555
C8_8 C9_8 1_555 1_555
N5_7 C30_7 1_555 1_555
C22_8 C31_8 1_555 1_555
C24_9 C25_9 1_555 1_555
C26_9 C27_7 1_555 1_555
C29_7 C30_7 1_555 1_555
C35_9 C36_9 1_555 1_555
C13_9 C12_9 1_555 1_555
H6_7 C13_9 1_555 1_555
N7_5 C13_9 1_555 1_555
C14_9 N7_5 1_555 1_555
H7_8 C14_9 1_555 1_555
H8_9 C15_9 1_555 1_555
C14_9 C15_9 1_555 1_555
Zn1_8 N1_8 1_555 1_555
N1_8 C1_8 1_555 1_555
C1_8 C2_6 1_555 1_555
C2_6 H1_6 1_555 1_555
C10_8 C1_8 1_555 1_555
C16_6 C10_8 1_555 1_555
C17_6 C16_6 1_555 1_555
H9_8 C17_6 1_555 1_555
C18_6 C17_6 1_555 1_555
H10_6 C18_6 1_555 1_555
C19_6 C18_6 1_555 1_555
C20_3 C19_6 1_555 1_555
H11_3 C20_3 1_555 1_555
C21_6 C16_6 1_555 1_555
H12_6 C21_6 1_555 1_555
O1_3 C19_6 1_555 1_555
H13_3 O1_3 1_555 1_555
N5_8 Zn1_8 1_555 1_555
C27_8 N5_8 1_555 1_555
C28_8 C27_8 1_555 1_555
H16_8 C28_8 1_555 1_555
C29_8 C28_8 1_555 1_555
H17_8 C29_8 1_555 1_555
C30_8 C10_8 1_555 1_555
C20_3 C21_6 1_555 1_555
N5_8 C30_8 1_555 1_555
C29_8 C30_8 1_555 1_555
C2_7 H1_7 1_555 1_555
C17_7 C16_7 1_555 1_555
C18_7 C17_7 1_555 1_555
H10_7 C18_7 1_555 1_555
C19_7 C18_7 1_555 1_555
C20_4 C19_7 1_555 1_555
H11_4 C20_4 1_555 1_555
C21_7 C16_7 1_555 1_555
H12_7 C21_7 1_555 1_555
O1_4 C19_7 1_555 1_555
H13_4 O1_4 1_555 1_555
C20_4 C21_7 1_555 1_555
Zn1_9 N1_9 1_555 1_555
N1_9 C1_9 1_555 1_555
C1_9 C2_8 1_555 1_555
C2_8 H1_8 1_555 1_555
C10_9 C1_9 1_555 1_555
C16_8 C10_9 1_555 1_555
C17_8 C16_8 1_555 1_555
H9_9 C17_8 1_555 1_555
C18_8 C17_8 1_555 1_555
H10_8 C18_8 1_555 1_555
C19_8 C18_8 1_555 1_555
C20_5 C19_8 1_555 1_555
H11_5 C20_5 1_555 1_555
C21_8 C16_8 1_555 1_555
H12_8 C21_8 1_555 1_555
O1_5 C19_8 1_555 1_555
H13_5 O1_5 1_555 1_555
N5_9 Zn1_9 1_555 1_555
C27_9 N5_9 1_555 1_555
C28_9 C27_9 1_555 1_555
H16_9 C28_9 1_555 1_555
C29_9 C28_9 1_555 1_555
H17_9 C29_9 1_555 1_555
C30_9 C10_9 1_555 1_555
C20_5 C21_8 1_555 1_555
N5_9 C30_9 1_555 1_555
C29_9 C30_9 1_555 1_555
C2_9 H1_9 1_555 1_555
C17_9 C16_9 1_555 1_555
C18_9 C17_9 1_555 1_555
H10_9 C18_9 1_555 1_555
C19_9 C18_9 1_555 1_555
C20_6 C19_9 1_555 1_555
H11_6 C20_6 1_555 1_555
C21_9 C16_9 1_555 1_555
H12_9 C21_9 1_555 1_555
O1_6 C19_9 1_555 1_555
H13_6 O1_6 1_555 1_555
C20_6 C21_9 1_555 1_555
N2_9 Zn1_10 1_555 1_555
C6_9 N2_9 1_555 1_555
C7_9 C6_9 1_555 1_555
H3_9 C7_9 1_555 1_555
C8_9 C7_9 1_555 1_555
H4_9 C8_9 1_555 1_555
C9_9 N2_9 1_555 1_555
N4_9 Zn1_10 1_555 1_555
C22_9 N4_9 1_555 1_555
C23_8 C22_9 1_555 1_555
H14_8 C23_8 1_555 1_555
C31_9 C9_9 1_555 1_555
C37_8 C31_9 1_555 1_555
C38_8 C37_8 1_555 1_555
H22_9 C38_8 1_555 1_555
C39_8 C38_8 1_555 1_555
H23_8 C39_8 1_555 1_555
C40_8 C39_8 1_555 1_555
C41_5 C40_8 1_555 1_555
H24_5 C41_5 1_555 1_555
C42_8 C37_8 1_555 1_555
H25_8 C42_8 1_555 1_555
O2_5 C40_8 1_555 1_555
H26_5 O2_5 1_555 1_555
C8_9 C9_9 1_555 1_555
C22_9 C31_9 1_555 1_555
C41_5 C42_8 1_555 1_555
H14_9 C23_9 1_555 1_555
C38_9 C37_9 1_555 1_555
C39_9 C38_9 1_555 1_555
H23_9 C39_9 1_555 1_555
C40_9 C39_9 1_555 1_555
C41_6 C40_9 1_555 1_555
H24_6 C41_6 1_555 1_555
C42_9 C37_9 1_555 1_555
H25_9 C42_9 1_555 1_555
O2_6 C40_9 1_555 1_555
H26_6 O2_6 1_555 1_555
C41_6 C42_9 1_555 1_555
H24_7 C41_7 1_555 1_555
H26_7 O2_7 1_555 1_555
H24_8 C41_8 1_555 1_555
H26_8 O2_8 1_555 1_555
H24_9 C41_9 1_555 1_555
H26_9 O2_9 1_555 1_555
H11_7 C20_7 1_555 1_555
H13_7 O1_7 1_555 1_555
H11_8 C20_8 1_555 1_555
H13_8 O1_8 1_555 1_555
H11_9 C20_9 1_555 1_555
H13_9 O1_9 1_555 1_555

#END
