
###############################################################################
#
# This file contains modified crystal structure data generated from the
# MOF subset of the Cambridge Structural Database (CSD) v543 
# hosted by the Cambridge Crystallographic Data Centre (CCDC).
#
# This work is licensed under the Creative Commons
# Attribution-NonCommercial-ShareAlike 4.0 International License.
# To view a copy of this license, visit
# http://creativecommons.org/licenses/by-nc-sa/4.0/
# or send a letter to
# Creative Commons, PO Box 1866, Mountain View, CA 94042, USA.
#
# CIF created using the CSD Python API on 29 September 2022
# The structure has been converted into the P1 space group
# The structure has a 3D framework
# The original CSD entry NOKPEJ is in the monoclinic crystal system
# The framework has been calculated to contain at least 10.0% void space
# The void calculation uses a probe of radius 1.32A, grid spacing 0.4
#
###############################################################################

data_NOKPEJ
_chemical_formula_moiety         '(C36 H56 Cd8 N22 O24)n'
_symmetry_cell_setting           triclinic
_symmetry_space_group_name_H-M   'P 1'
_symmetry_Int_Tables_number      1
_space_group_name_Hall           'P 1'
loop_
_symmetry_equiv_pos_site_id
_symmetry_equiv_pos_as_xyz
1 x,y,z
_cell_length_a                   13.0465(4)
_cell_length_b                   22.3040(7)
_cell_length_c                   8.6482(3)
_cell_angle_alpha                90
_cell_angle_beta                 127.82
_cell_angle_gamma                90
_cell_volume                     1987.91
loop_
_atom_site_label
_atom_site_type_symbol
_atom_site_fract_x
_atom_site_fract_y
_atom_site_fract_z
H5 H 0.0619 0.7290 0.6350
Cd5 Cd 0.133618(16) 0.843814(7) 0.48115(2)
O7 O 0.1138(2) 0.60060(10) 0.7364(3)
O8 O 0.0089(2) 0.63766(11) 0.8371(3)
Cd2 Cd 0.633618(16) 0.656186(7) 0.98115(2)
O5 O 0.6769(2) 0.70356(10) 0.7826(3)
H1 H 0.6941 0.6856 0.7142
H2 H 0.6452 0.7386 0.7465
O6 O 0.4640(3) 0.59663(11) 0.7198(4)
H3 H 0.3824 0.6023 0.6426
H4 H 0.4935 0.5681 0.6922
C4 C 0.7625(3) 0.53101(14) 0.9727(4)
H8 H 0.7084 0.5286 0.8368
H11 H 0.3644 0.6396 0.9967
C9 C 0.1127(3) 0.62629(15) 0.8641(5)
N7 N 0.4761(2) 0.72236(9) 0.8875(3)
O1 O 0.1190(2) 0.88393(10) 0.7310(3)
O5_2 O 0.1769(2) 0.79644(10) 0.2826(3)
H1_2 H 0.1941 0.8144 0.2142
H2_2 H 0.1452 0.7614 0.2465
N1 N 0.3043(2) 0.78220(10) 0.7279(3)
N2 N 0.3896(2) 0.80323(9) 0.9164(3)
N4 N 0.2631(2) 0.92332(10) 0.5687(3)
N5 N 0.3553(2) 0.93638(11) 0.7624(3)
C2 C 0.3598(3) 0.73412(11) 0.7192(4)
H6 H 0.3217 0.7109 0.6071
C3 C 0.4026(3) 0.98888(12) 0.7674(4)
C4_2 C 0.2625(3) 0.96899(14) 0.4727(4)
H8_2 H 0.2084 0.9714 0.3368
C5 C 0.1062(3) 0.86279(13) 0.8531(4)
Cd1 Cd 0.863626(15) 0.606894(7) 0.51456(2)
O1_2 O 0.6190(2) 0.61607(10) 0.2310(3)
O2 O 0.7014(2) 0.64534(11) 0.5278(3)
N1_2 N 0.8043(2) 0.71780(10) 0.2279(3)
N2_2 N 0.8896(2) 0.69677(9) 0.4164(3)
N3 N 0.9761(2) 0.77764(9) 0.3875(3)
N4_2 N 0.7631(2) 0.57668(10) 0.0687(3)
N5_2 N 0.8553(2) 0.56362(11) 0.2624(3)
N6 N 0.8478(2) 0.48815(10) 0.0903(4)
C1 C 0.9894(3) 0.73328(12) 0.5048(4)
C2_2 C 0.8598(3) 0.76588(11) 0.2192(4)
H6_2 H 0.8217 0.7891 0.1071
C3_2 C 0.9026(3) 0.51112(12) 0.2674(4)
H7 H 0.9678 0.4919 0.3830
C5_2 C 0.6062(3) 0.63721(13) 0.3531(4)
C6 C 0.4746(3) 0.65412(17) 0.2930(5)
H9 H 0.4668 0.6975 0.2837
H10 H 0.4693 0.6416 0.3953
C7 C 0.3605(3) 0.62751(17) 0.1007(5)
H12 H 0.3652 0.5841 0.1091
C8 C 0.2361(3) 0.64787(19) 0.0542(5)
H13 H 0.2354 0.6914 0.0527
H14 H 0.2344 0.6353 0.1600
Cd4 Cd 0.863626(15) 0.393106(7) 0.01456(2)
N8 N 0.8478(2) 0.51185(10) 0.5903(4)
H5_2 H 0.0619 0.2710 0.1350
O7_2 O 0.1138(2) 0.39940(10) 0.2364(3)
O8_2 O 0.0089(2) 0.36234(11) 0.3371(3)
O2_2 O 0.7014(2) 0.35466(11) 0.0278(3)
C1_2 C 0.9894(3) 0.26672(12) 0.0048(4)
Cd2_2 Cd 0.633618(16) 0.343814(7) 0.48115(2)
O1_3 O 0.6190(2) 0.38393(10) 0.7310(3)
O5_3 O 0.6769(2) 0.29644(10) 0.2826(3)
H1_3 H 0.6941 0.3144 0.2142
H2_3 H 0.6452 0.2614 0.2465
O6_2 O 0.4640(3) 0.40337(11) 0.2198(4)
H3_2 H 0.3824 0.3977 0.1426
H4_2 H 0.4935 0.4319 0.1922
N1_3 N 0.8043(2) 0.28220(10) 0.7279(3)
N2_3 N 0.8896(2) 0.30323(9) 0.9164(3)
N3_2 N 0.9761(2) 0.22236(9) 0.8875(3)
N4_3 N 0.7631(2) 0.42332(10) 0.5687(3)
N5_3 N 0.8553(2) 0.43638(11) 0.7624(3)
C2_3 C 0.8598(3) 0.23412(11) 0.7192(4)
H6_3 H 0.8217 0.2109 0.6071
C3_3 C 0.9026(3) 0.48888(12) 0.7674(4)
H7_2 H 0.9678 0.5081 0.8830
C4_3 C 0.7625(3) 0.46899(14) 0.4727(4)
H8_3 H 0.7084 0.4714 0.3368
C5_3 C 0.6062(3) 0.36279(13) 0.8531(4)
C6_2 C 0.4746(3) 0.34588(17) 0.7930(5)
H9_2 H 0.4668 0.3025 0.7837
H10_2 H 0.4693 0.3584 0.8953
C7_2 C 0.3605(3) 0.37249(17) 0.6007(5)
H11_2 H 0.3644 0.3604 0.4967
H12_2 H 0.3652 0.4159 0.6091
C8_2 C 0.2361(3) 0.35213(19) 0.5542(5)
H13_2 H 0.2354 0.3086 0.5527
H14_2 H 0.2344 0.3647 0.6600
C9_2 C 0.1127(3) 0.37371(15) 0.3641(5)
N7_2 N 0.4761(2) 0.27764(9) 0.3875(3)
Cd1_2 Cd 0.363626(15) 0.106894(7) 0.51456(2)
O1_4 O 0.1190(2) 0.11607(10) 0.2310(3)
O2_3 O 0.2014(2) 0.14534(11) 0.5278(3)
N1_4 N 0.3043(2) 0.21780(10) 0.2279(3)
N2_4 N 0.3896(2) 0.19677(9) 0.4164(3)
N4_4 N 0.2631(2) 0.07668(10) 0.0687(3)
N5_4 N 0.3553(2) 0.06362(11) 0.2624(3)
C1_3 C 0.4894(3) 0.23328(12) 0.5048(4)
H5_3 H 0.5619 0.2290 0.6350
C2_4 C 0.3598(3) 0.26588(11) 0.2192(4)
H6_4 H 0.3217 0.2891 0.1071
C3_4 C 0.4026(3) 0.01112(12) 0.2674(4)
C5_4 C 0.1062(3) 0.13721(13) 0.3531(4)
O7_3 O 0.6138(2) 0.10060(10) 0.7364(3)
O8_3 O 0.5089(2) 0.13766(11) 0.8371(3)
N8_2 N 0.3478(2) 0.01185(10) 0.5903(4)
N6_2 N 0.3478(2) 0.98815(10) 0.0903(4)
H7_3 H 0.4678 0.9919 0.3830
Cd4_2 Cd 0.363626(15) 0.893106(7) 0.01456(2)
O6_3 O 0.9640(3) 0.09663(11) 0.7198(4)
H3_3 H 0.8824 0.1023 0.6426
H4_3 H 0.9935 0.0681 0.6922
H11_3 H 0.8644 0.1396 0.9967
C9_3 C 0.6127(3) 0.12629(15) 0.8641(5)
H7_4 H 0.4678 0.0081 0.8830
O2_4 O 0.2014(2) 0.85466(11) 0.0278(3)
C1_4 C 0.4894(3) 0.76672(12) 0.0048(4)
H5_4 H 0.5619 0.7710 0.1350
O7_4 O 0.6138(2) 0.89940(10) 0.2364(3)
O8_4 O 0.5089(2) 0.86234(11) 0.3371(3)
O6_4 O 0.9640(3) 0.90337(11) 0.2198(4)
H3_4 H 0.8824 0.8977 0.1426
H4_4 H 0.9935 0.9319 0.1922
C6_3 C 0.9746(3) 0.84588(17) 0.7930(5)
H9_3 H 0.9668 0.8025 0.7837
H10_3 H 0.9693 0.8584 0.8953
C7_3 C 0.8605(3) 0.87249(17) 0.6007(5)
H11_4 H 0.8644 0.8604 0.4967
H12_3 H 0.8652 0.9159 0.6091
C8_3 C 0.7361(3) 0.85213(19) 0.5542(5)
H13_3 H 0.7354 0.8086 0.5527
H14_3 H 0.7344 0.8647 0.6600
C9_4 C 0.6127(3) 0.87371(15) 0.3641(5)
Cd5_2 Cd 0.133618(16) 0.156186(7) 0.98115(2)
O5_4 O 0.1769(2) 0.20356(10) 0.7826(3)
H1_4 H 0.1941 0.1856 0.7142
H2_4 H 0.1452 0.2386 0.7465
C4_4 C 0.2625(3) 0.03101(14) 0.9727(4)
H8_4 H 0.2084 0.0286 0.8368
C6_4 C 0.9746(3) 0.15412(17) 0.2930(5)
H9_4 H 0.9668 0.1975 0.2837
H10_4 H 0.9693 0.1416 0.3953
C7_4 C 0.8605(3) 0.12751(17) 0.1007(5)
H12_4 H 0.8652 0.0841 0.1091
C8_4 C 0.7361(3) 0.14787(19) 0.0542(5)
H13_4 H 0.7354 0.1914 0.0527
H14_4 H 0.7344 0.1353 0.1600
loop_
_geom_bond_atom_site_label_1
_geom_bond_atom_site_label_2
_geom_bond_site_symmetry_1
_geom_bond_site_symmetry_2
O7 C9 1_555 1_555
O8 C9 1_555 1_555
O5 Cd2 1_555 1_555
H1 O5 1_555 1_555
H2 O5 1_555 1_555
O6 Cd2 1_555 1_555
H3 O6 1_555 1_555
H4 O6 1_555 1_555
H8 C4 1_555 1_555
N7 Cd2 1_555 1_555
Cd5 O1 1_555 1_555
O1 C5 1_555 1_555
O5_2 Cd5 1_555 1_555
H1_2 O5_2 1_555 1_555
H2_2 O5_2 1_555 1_555
N1 Cd5 1_555 1_555
N4 Cd5 1_555 1_555
C2 N1 1_555 1_555
H6 C2 1_555 1_555
C3 N5 1_555 1_555
C4_2 N4 1_555 1_555
H8_2 C4_2 1_555 1_555
N1 N2 1_555 1_555
N7 C2 1_555 1_555
N4 N5 1_555 1_555
Cd1 O1_2 1_555 1_555
O1_2 C5_2 1_555 1_555
O2 Cd1 1_555 1_555
N2_2 Cd1 1_555 1_555
N3 C1 1_555 1_555
N5_2 Cd1 1_555 1_555
N6 C3_2 1_555 1_555
C1 N2_2 1_555 1_555
C2_2 N1_2 1_555 1_555
H6_2 C2_2 1_555 1_555
C3_2 N5_2 1_555 1_555
H7 C3_2 1_555 1_555
C5_2 O2 1_555 1_555
C6 C5_2 1_555 1_555
H9 C6 1_555 1_555
H10 C6 1_555 1_555
C7 C6 1_555 1_555
H12 C7 1_555 1_555
C8 C7 1_555 1_555
H13 C8 1_555 1_555
H14 C8 1_555 1_555
Cd4 N6 1_555 1_555
N8 Cd1 1_555 1_555
N1_2 N2_2 1_555 1_555
N3 C2_2 1_555 1_555
N4_2 N5_2 1_555 1_555
O2_2 Cd4 1_555 1_555
Cd2_2 O1_3 1_555 1_555
O1_3 C5_3 1_555 1_555
O7_2 C9_2 1_555 1_555
O8_2 C9_2 1_555 1_555
O5_3 Cd2_2 1_555 1_555
H1_3 O5_3 1_555 1_555
H2_3 O5_3 1_555 1_555
O6_2 Cd2_2 1_555 1_555
H3_2 O6_2 1_555 1_555
H4_2 O6_2 1_555 1_555
N1_3 Cd2_2 1_555 1_555
N4_3 Cd2_2 1_555 1_555
N8 C3_3 1_555 1_555
C2_3 N1_3 1_555 1_555
H6_3 C2_3 1_555 1_555
C3_3 N5_3 1_555 1_555
H7_2 C3_3 1_555 1_555
C4_3 N4_3 1_555 1_555
H8_3 C4_3 1_555 1_555
C6_2 C5_3 1_555 1_555
H9_2 C6_2 1_555 1_555
H10_2 C6_2 1_555 1_555
C7_2 C6_2 1_555 1_555
H11_2 C7_2 1_555 1_555
H12_2 C7_2 1_555 1_555
C8_2 C7_2 1_555 1_555
H13_2 C8_2 1_555 1_555
H14_2 C8_2 1_555 1_555
C9_2 C8_2 1_555 1_555
N7_2 Cd2_2 1_555 1_555
N1_3 N2_3 1_555 1_555
N3_2 C2_3 1_555 1_555
N4_3 N5_3 1_555 1_555
N8 C4_3 1_555 1_555
Cd1_2 O1_4 1_555 1_555
O1_4 C5_4 1_555 1_555
O2_3 Cd1_2 1_555 1_555
N2_4 Cd1_2 1_555 1_555
N7_2 C1_3 1_555 1_555
N5_4 Cd1_2 1_555 1_555
C1_3 N2_4 1_555 1_555
H5_3 C1_3 1_555 1_555
C2_4 N1_4 1_555 1_555
H6_4 C2_4 1_555 1_555
C3_4 N5_4 1_555 1_555
C5_4 O2_3 1_555 1_555
O7_3 Cd1_2 1_555 1_555
O8_3 Cd1_2 1_555 1_555
N8_2 Cd1_2 1_555 1_555
N1_4 N2_4 1_555 1_555
N7_2 C2_4 1_555 1_555
N4_4 N5_4 1_555 1_555
Cd4_2 N6_2 1_555 1_555
O7_3 C9_3 1_555 1_555
O8_3 C9_3 1_555 1_555
H3_3 O6_3 1_555 1_555
H4_3 O6_3 1_555 1_555
O2_4 Cd4_2 1_555 1_555
H5_4 C1_4 1_555 1_555
O7_4 Cd4_2 1_555 1_555
O8_4 Cd4_2 1_555 1_555
O7_4 C9_4 1_555 1_555
O8_4 C9_4 1_555 1_555
H3_4 O6_4 1_555 1_555
H4_4 O6_4 1_555 1_555
H9_3 C6_3 1_555 1_555
H10_3 C6_3 1_555 1_555
C7_3 C6_3 1_555 1_555
H11_4 C7_3 1_555 1_555
H12_3 C7_3 1_555 1_555
C8_3 C7_3 1_555 1_555
H13_3 C8_3 1_555 1_555
H14_3 C8_3 1_555 1_555
C9_4 C8_3 1_555 1_555
O5_4 Cd5_2 1_555 1_555
H1_4 O5_4 1_555 1_555
H2_4 O5_4 1_555 1_555
H8_4 C4_4 1_555 1_555
H9_4 C6_4 1_555 1_555
H10_4 C6_4 1_555 1_555
C7_4 C6_4 1_555 1_555
H12_4 C7_4 1_555 1_555
C8_4 C7_4 1_555 1_555
H13_4 C8_4 1_555 1_555
H14_4 C8_4 1_555 1_555

#END
