
###############################################################################
#
# This file contains modified crystal structure data generated from the
# MOF subset of the Cambridge Structural Database (CSD) v543 
# hosted by the Cambridge Crystallographic Data Centre (CCDC).
#
# This work is licensed under the Creative Commons
# Attribution-NonCommercial-ShareAlike 4.0 International License.
# To view a copy of this license, visit
# http://creativecommons.org/licenses/by-nc-sa/4.0/
# or send a letter to
# Creative Commons, PO Box 1866, Mountain View, CA 94042, USA.
#
# CIF created using the CSD Python API on 29 September 2022
# The structure has been converted into the P1 space group
# The structure has a 3D framework
# The original CSD entry NOKSUE is in the tetragonal crystal system
# The framework has been calculated to contain at least 10.0% void space
# The void calculation uses a probe of radius 1.32A, grid spacing 0.4
#
###############################################################################

data_NOKSUE
_chemical_formula_moiety         '(C112 H160 N8 O36 P8 Zn8)n'
_symmetry_cell_setting           triclinic
_symmetry_space_group_name_H-M   'P 1'
_symmetry_Int_Tables_number      1
_space_group_name_Hall           'P 1'
loop_
_symmetry_equiv_pos_site_id
_symmetry_equiv_pos_as_xyz
1 x,y,z
_cell_length_a                   16.7211(2)
_cell_length_b                   16.7211(2)
_cell_length_c                   15.5352(4)
_cell_angle_alpha                90
_cell_angle_beta                 90
_cell_angle_gamma                90
_cell_volume                     4343.57
loop_
_atom_site_label
_atom_site_type_symbol
_atom_site_fract_x
_atom_site_fract_y
_atom_site_fract_z
O7 O 0.1340(3) 0.0384(2) 0.1268(3)
Zn3 Zn 0.05642(3) 0.11770(3) 0.09579(4)
Zn1 Zn 0.38230(3) 0.55642(3) 0.40421(4)
O1 O 0.4135(2) 0.4504(2) 0.3764(3)
O2 O 0.2892(2) 0.5889(3) 0.3348(3)
O3 O 0.4616(2) 0.6340(3) 0.3732(3)
O4 O 0.3395(3) 0.5679(3) 0.5179(3)
C1 C 0.2199(4) 0.5668(3) 0.3473(4)
N1 N 0.1590(3) 0.6108(3) 0.3213(5)
C2 C 0.2024(3) 0.4887(4) 0.3937(6)
H1 H 0.1115 0.5924 0.3288
C3 C 0.1673(3) 0.6871(4) 0.2814(5)
H2 H 0.1478 0.4735 0.3836
H3 H 0.2373 0.4476 0.3723
H4 H 0.2110 0.4955 0.4543
C4 C 0.2136(4) 0.6971(3) 0.2075(5)
C5 C 0.1273(4) 0.7501(4) 0.3166(5)
H5 H 0.2393 0.6531 0.1835
C6 C 0.2219(3) 0.7712(3) 0.1695(4)
H6 H 0.0954 0.7420 0.3649
C7 C 0.1333(3) 0.8269(4) 0.2812(4)
C8 C 0.2707(4) 0.7816(4) 0.0891(5)
C9 C 0.1812(3) 0.8353(3) 0.2078(4)
C10 C 0.0940(4) 0.8978(4) 0.3250(4)
H7 H 0.2773 0.8390 0.0786
C11 C 0.2250(5) 0.7448(5) 0.0118(5)
C12 C 0.3535(5) 0.7436(4) 0.0946(6)
O5 O 0.1915(2) 0.9123(2) 0.1730(3)
C13 C 0.0117(5) 0.8782(5) 0.3604(6)
C14 C 0.1496(5) 0.9317(7) 0.3948(7)
H8 H 0.0871 0.9395 0.2813
H9 H 0.1706 0.7633 0.0122
H11 H 0.2258 0.6876 0.0162
H12 H 0.3483 0.6879 0.1087
H13 H 0.3802 0.7490 0.0402
H14 H 0.3842 0.7700 0.1385
P1 P 0.12907(8) 0.94996(8) 0.10595(9)
H15 H 0.0169 0.8418 0.4079
H18 H 0.1238 0.9758 0.4230
H19 H 0.1613 0.8908 0.4363
H20 H 0.1985 0.9497 0.3688
O6 O 0.1605(3) 0.9321(3) 0.0179(3)
O8 O 0.0496(2) 0.9135(2) 0.1236(3)
H10 H 0.2503 0.7609 0.9590
Zn2 Zn 0.11770(3) 0.94358(3) 0.90421(4)
H16 H 0.9863 0.9265 0.3796
H17 H 0.9799 0.8539 0.3161
Zn4 Zn 0.94358(3) 0.88230(3) 0.09579(4)
H16_2 H 0.0137 0.0735 0.3796
H17_2 H 0.0201 0.1461 0.3161
Zn1_2 Zn 0.61770(3) 0.44358(3) 0.40421(4)
O1_2 O 0.5865(2) 0.5496(2) 0.3764(3)
O2_2 O 0.7108(2) 0.4111(3) 0.3348(3)
O3_2 O 0.5384(2) 0.3660(3) 0.3732(3)
O4_2 O 0.6605(3) 0.4321(3) 0.5179(3)
C1_2 C 0.7801(4) 0.4332(3) 0.3473(4)
N1_2 N 0.8410(3) 0.3892(3) 0.3213(5)
C2_2 C 0.7976(3) 0.5113(4) 0.3937(6)
H1_2 H 0.8885 0.4076 0.3288
C3_2 C 0.8327(3) 0.3129(4) 0.2814(5)
H2_2 H 0.8522 0.5265 0.3836
H3_2 H 0.7627 0.5524 0.3723
H4_2 H 0.7890 0.5045 0.4543
C4_2 C 0.7864(4) 0.3029(3) 0.2075(5)
C5_2 C 0.8727(4) 0.2499(4) 0.3166(5)
H5_2 H 0.7607 0.3469 0.1835
C6_2 C 0.7781(3) 0.2288(3) 0.1695(4)
H6_2 H 0.9046 0.2580 0.3649
C7_2 C 0.8667(3) 0.1731(4) 0.2812(4)
C8_2 C 0.7293(4) 0.2184(4) 0.0891(5)
C9_2 C 0.8188(3) 0.1647(3) 0.2078(4)
C10_2 C 0.9060(4) 0.1022(4) 0.3250(4)
H7_2 H 0.7227 0.1610 0.0786
C11_2 C 0.7750(5) 0.2552(5) 0.0118(5)
C12_2 C 0.6465(5) 0.2564(4) 0.0946(6)
O5_2 O 0.8085(2) 0.0877(2) 0.1730(3)
C13_2 C 0.9883(5) 0.1218(5) 0.3604(6)
C14_2 C 0.8504(5) 0.0683(7) 0.3948(7)
H8_2 H 0.9129 0.0605 0.2813
H9_2 H 0.8294 0.2367 0.0122
H11_2 H 0.7742 0.3124 0.0162
H12_2 H 0.6517 0.3121 0.1087
H13_2 H 0.6198 0.2510 0.0402
H14_2 H 0.6158 0.2300 0.1385
P1_2 P 0.87093(8) 0.05004(8) 0.10595(9)
H15_2 H 0.9831 0.1582 0.4079
H18_2 H 0.8762 0.0242 0.4230
H19_2 H 0.8387 0.1092 0.4363
H20_2 H 0.8015 0.0503 0.3688
O6_2 O 0.8395(3) 0.0679(3) 0.0179(3)
O8_2 O 0.9504(2) 0.0865(2) 0.1236(3)
H10_2 H 0.7497 0.2391 0.9590
Zn2_2 Zn 0.88230(3) 0.05642(3) 0.90421(4)
O7_2 O 0.8660(3) 0.9616(2) 0.1268(3)
O7_3 O 0.0384(2) 0.8660(3) 0.8732(3)
H16_3 H 0.9265 0.0137 0.6204
H17_3 H 0.8539 0.0201 0.6839
H10_3 H 0.7609 0.7497 0.0410
Zn1_3 Zn 0.55642(3) 0.61770(3) 0.59579(4)
O1_3 O 0.4504(2) 0.5865(2) 0.6236(3)
O2_3 O 0.5889(3) 0.7108(2) 0.6652(3)
O3_3 O 0.6340(3) 0.5384(2) 0.6268(3)
O4_3 O 0.5679(3) 0.6605(3) 0.4821(3)
C1_3 C 0.5668(3) 0.7801(4) 0.6527(4)
N1_3 N 0.6108(3) 0.8410(3) 0.6787(5)
C2_3 C 0.4887(4) 0.7976(3) 0.6063(6)
H1_3 H 0.5924 0.8885 0.6712
C3_3 C 0.6871(4) 0.8327(3) 0.7186(5)
H2_3 H 0.4735 0.8522 0.6164
H3_3 H 0.4476 0.7627 0.6277
H4_3 H 0.4955 0.7890 0.5457
C4_3 C 0.6971(3) 0.7864(4) 0.7925(5)
C5_3 C 0.7501(4) 0.8727(4) 0.6834(5)
H5_3 H 0.6531 0.7607 0.8165
C6_3 C 0.7712(3) 0.7781(3) 0.8305(4)
H6_3 H 0.7420 0.9046 0.6351
C7_3 C 0.8269(4) 0.8667(3) 0.7188(4)
C8_3 C 0.7816(4) 0.7293(4) 0.9109(5)
C9_3 C 0.8353(3) 0.8188(3) 0.7922(4)
C10_3 C 0.8978(4) 0.9060(4) 0.6750(4)
H7_3 H 0.8390 0.7227 0.9214
C11_3 C 0.7448(5) 0.7750(5) 0.9882(5)
C12_3 C 0.7436(4) 0.6465(5) 0.9054(6)
O5_3 O 0.9123(2) 0.8085(2) 0.8270(3)
C13_3 C 0.8782(5) 0.9883(5) 0.6396(6)
C14_3 C 0.9317(7) 0.8504(5) 0.6052(7)
H8_3 H 0.9395 0.9129 0.7187
H9_3 H 0.7633 0.8294 0.9878
H11_3 H 0.6876 0.7742 0.9838
H12_3 H 0.6879 0.6517 0.8913
H13_3 H 0.7490 0.6198 0.9598
H14_3 H 0.7700 0.6158 0.8615
P1_3 P 0.94996(8) 0.87093(8) 0.89405(9)
H15_3 H 0.8418 0.9831 0.5921
H18_3 H 0.9758 0.8762 0.5770
H19_3 H 0.8908 0.8387 0.5637
H20_3 H 0.9497 0.8015 0.6312
O6_3 O 0.9321(3) 0.8395(3) 0.9821(3)
O8_3 O 0.9135(2) 0.9504(2) 0.8764(3)
H10_4 H 0.2391 0.2503 0.0410
Zn1_4 Zn 0.44358(3) 0.38230(3) 0.59579(4)
O1_4 O 0.5496(2) 0.4135(2) 0.6236(3)
O2_4 O 0.4111(3) 0.2892(2) 0.6652(3)
O3_4 O 0.3660(3) 0.4616(2) 0.6268(3)
O4_4 O 0.4321(3) 0.3395(3) 0.4821(3)
C1_4 C 0.4332(3) 0.2199(4) 0.6527(4)
N1_4 N 0.3892(3) 0.1590(3) 0.6787(5)
C2_4 C 0.5113(4) 0.2024(3) 0.6063(6)
H1_4 H 0.4076 0.1115 0.6712
C3_4 C 0.3129(4) 0.1673(3) 0.7186(5)
H2_4 H 0.5265 0.1478 0.6164
H3_4 H 0.5524 0.2373 0.6277
H4_4 H 0.5045 0.2110 0.5457
C4_4 C 0.3029(3) 0.2136(4) 0.7925(5)
C5_4 C 0.2499(4) 0.1273(4) 0.6834(5)
H5_4 H 0.3469 0.2393 0.8165
C6_4 C 0.2288(3) 0.2219(3) 0.8305(4)
H6_4 H 0.2580 0.0954 0.6351
C7_4 C 0.1731(4) 0.1333(3) 0.7188(4)
C8_4 C 0.2184(4) 0.2707(4) 0.9109(5)
C9_4 C 0.1647(3) 0.1812(3) 0.7922(4)
C10_4 C 0.1022(4) 0.0940(4) 0.6750(4)
H7_4 H 0.1610 0.2773 0.9214
C11_4 C 0.2552(5) 0.2250(5) 0.9882(5)
C12_4 C 0.2564(4) 0.3535(5) 0.9054(6)
O5_4 O 0.0877(2) 0.1915(2) 0.8270(3)
C13_4 C 0.1218(5) 0.0117(5) 0.6396(6)
C14_4 C 0.0683(7) 0.1496(5) 0.6052(7)
H8_4 H 0.0605 0.0871 0.7187
H9_4 H 0.2367 0.1706 0.9878
H11_4 H 0.3124 0.2258 0.9838
H12_4 H 0.3121 0.3483 0.8913
H13_4 H 0.2510 0.3802 0.9598
H14_4 H 0.2300 0.3842 0.8615
P1_4 P 0.05004(8) 0.12907(8) 0.89405(9)
H15_4 H 0.1582 0.0169 0.5921
H18_4 H 0.0242 0.1238 0.5770
H19_4 H 0.1092 0.1613 0.5637
H20_4 H 0.0503 0.1985 0.6312
O6_4 O 0.0679(3) 0.1605(3) 0.9821(3)
O8_4 O 0.0865(2) 0.0496(2) 0.8764(3)
H16_4 H 0.0735 0.9863 0.6204
H17_4 H 0.1461 0.9799 0.6839
O7_4 O 0.9616(2) 0.1340(3) 0.8732(3)
O2_5 O 0.7892(2) 0.0889(3) 0.8348(3)
C1_5 C 0.7199(4) 0.0668(3) 0.8473(4)
N1_5 N 0.6590(3) 0.1108(3) 0.8213(5)
H1_5 H 0.6115 0.0924 0.8288
C3_5 C 0.6673(3) 0.1871(4) 0.7814(5)
C4_5 C 0.7136(4) 0.1971(3) 0.7075(5)
C5_5 C 0.6273(4) 0.2501(4) 0.8166(5)
H5_5 H 0.7393 0.1531 0.6835
C6_5 C 0.7219(3) 0.2712(3) 0.6695(4)
H6_5 H 0.5954 0.2420 0.8649
C7_5 C 0.6333(3) 0.3269(4) 0.7812(4)
C8_5 C 0.7707(4) 0.2816(4) 0.5891(5)
C9_5 C 0.6812(3) 0.3353(3) 0.7078(4)
C10_5 C 0.5940(4) 0.3978(4) 0.8250(4)
H7_5 H 0.7773 0.3390 0.5786
C11_5 C 0.7250(5) 0.2448(5) 0.5118(5)
C12_5 C 0.8535(5) 0.2436(4) 0.5946(6)
O5_5 O 0.6915(2) 0.4123(2) 0.6730(3)
C13_5 C 0.5117(5) 0.3782(5) 0.8604(6)
C14_5 C 0.6496(5) 0.4317(7) 0.8948(7)
H8_5 H 0.5871 0.4395 0.7813
H9_5 H 0.6706 0.2633 0.5122
H10_5 H 0.7503 0.2609 0.4590
H11_5 H 0.7258 0.1876 0.5162
H12_5 H 0.8483 0.1879 0.6087
H13_5 H 0.8802 0.2490 0.5402
H14_5 H 0.8842 0.2700 0.6385
P1_5 P 0.62907(8) 0.44996(8) 0.60595(9)
H15_5 H 0.5169 0.3418 0.9079
H16_5 H 0.4863 0.4265 0.8796
H17_5 H 0.4799 0.3539 0.8161
H18_5 H 0.6238 0.4758 0.9230
H19_5 H 0.6613 0.3908 0.9363
H20_5 H 0.6985 0.4497 0.8688
C2_5 C 0.7024(3) 0.9887(4) 0.8937(6)
H2_5 H 0.6478 0.9735 0.8836
H3_5 H 0.7373 0.9476 0.8723
H4_5 H 0.7110 0.9955 0.9543
C2_6 C 0.2976(3) 0.0113(4) 0.8937(6)
H2_6 H 0.3522 0.0265 0.8836
H3_6 H 0.2627 0.0524 0.8723
H4_6 H 0.2890 0.0045 0.9543
O2_6 O 0.2108(2) 0.9111(3) 0.8348(3)
C1_6 C 0.2801(4) 0.9332(3) 0.8473(4)
N1_6 N 0.3410(3) 0.8892(3) 0.8213(5)
H1_6 H 0.3885 0.9076 0.8288
C3_6 C 0.3327(3) 0.8129(4) 0.7814(5)
C4_6 C 0.2864(4) 0.8029(3) 0.7075(5)
C5_6 C 0.3727(4) 0.7499(4) 0.8166(5)
H5_6 H 0.2607 0.8469 0.6835
C6_6 C 0.2781(3) 0.7288(3) 0.6695(4)
H6_6 H 0.4046 0.7580 0.8649
C7_6 C 0.3667(3) 0.6731(4) 0.7812(4)
C8_6 C 0.2293(4) 0.7184(4) 0.5891(5)
C9_6 C 0.3188(3) 0.6647(3) 0.7078(4)
C10_6 C 0.4060(4) 0.6022(4) 0.8250(4)
H7_6 H 0.2227 0.6610 0.5786
C11_6 C 0.2750(5) 0.7552(5) 0.5118(5)
C12_6 C 0.1465(5) 0.7564(4) 0.5946(6)
O5_6 O 0.3085(2) 0.5877(2) 0.6730(3)
C13_6 C 0.4883(5) 0.6218(5) 0.8604(6)
C14_6 C 0.3504(5) 0.5683(7) 0.8948(7)
H8_6 H 0.4129 0.5605 0.7813
H9_6 H 0.3294 0.7367 0.5122
H10_6 H 0.2497 0.7391 0.4590
H11_6 H 0.2742 0.8124 0.5162
H12_6 H 0.1517 0.8121 0.6087
H13_6 H 0.1198 0.7510 0.5402
H14_6 H 0.1158 0.7300 0.6385
P1_6 P 0.37093(8) 0.55004(8) 0.60595(9)
H15_6 H 0.4831 0.6582 0.9079
H16_6 H 0.5137 0.5735 0.8796
H17_6 H 0.5201 0.6461 0.8161
H18_6 H 0.3762 0.5242 0.9230
H19_6 H 0.3387 0.6092 0.9363
H20_6 H 0.3015 0.5503 0.8688
O2_7 O 0.0889(3) 0.2108(2) 0.1652(3)
C1_7 C 0.0668(3) 0.2801(4) 0.1527(4)
N1_7 N 0.1108(3) 0.3410(3) 0.1787(5)
H1_7 H 0.0924 0.3885 0.1712
C3_7 C 0.1871(4) 0.3327(3) 0.2186(5)
C4_7 C 0.1971(3) 0.2864(4) 0.2925(5)
C5_7 C 0.2501(4) 0.3727(4) 0.1834(5)
H5_7 H 0.1531 0.2607 0.3165
C6_7 C 0.2712(3) 0.2781(3) 0.3305(4)
H6_7 H 0.2420 0.4046 0.1351
C7_7 C 0.3269(4) 0.3667(3) 0.2188(4)
C8_7 C 0.2816(4) 0.2293(4) 0.4109(5)
C9_7 C 0.3353(3) 0.3188(3) 0.2922(4)
C10_7 C 0.3978(4) 0.4060(4) 0.1750(4)
H7_7 H 0.3390 0.2227 0.4214
C11_7 C 0.2448(5) 0.2750(5) 0.4882(5)
C12_7 C 0.2436(4) 0.1465(5) 0.4054(6)
O5_7 O 0.4123(2) 0.3085(2) 0.3270(3)
C13_7 C 0.3782(5) 0.4883(5) 0.1396(6)
C14_7 C 0.4317(7) 0.3504(5) 0.1052(7)
H8_7 H 0.4395 0.4129 0.2187
H9_7 H 0.2633 0.3294 0.4878
H10_7 H 0.2609 0.2497 0.5410
H11_7 H 0.1876 0.2742 0.4838
H12_7 H 0.1879 0.1517 0.3913
H13_7 H 0.2490 0.1198 0.4598
H14_7 H 0.2700 0.1158 0.3615
P1_7 P 0.44996(8) 0.37093(8) 0.39405(9)
H15_7 H 0.3418 0.4831 0.0921
H16_7 H 0.4265 0.5137 0.1204
H17_7 H 0.3539 0.5201 0.1839
H18_7 H 0.4758 0.3762 0.0770
H19_7 H 0.3908 0.3387 0.0637
H20_7 H 0.4497 0.3015 0.1312
C2_7 C 0.9887(4) 0.2976(3) 0.1063(6)
H2_7 H 0.9735 0.3522 0.1164
H3_7 H 0.9476 0.2627 0.1277
H4_7 H 0.9955 0.2890 0.0457
C2_8 C 0.0113(4) 0.7024(3) 0.1063(6)
H2_8 H 0.0265 0.6478 0.1164
H3_8 H 0.0524 0.7373 0.1277
H4_8 H 0.0045 0.7110 0.0457
O2_8 O 0.9111(3) 0.7892(2) 0.1652(3)
C1_8 C 0.9332(3) 0.7199(4) 0.1527(4)
N1_8 N 0.8892(3) 0.6590(3) 0.1787(5)
H1_8 H 0.9076 0.6115 0.1712
C3_8 C 0.8129(4) 0.6673(3) 0.2186(5)
C4_8 C 0.8029(3) 0.7136(4) 0.2925(5)
C5_8 C 0.7499(4) 0.6273(4) 0.1834(5)
H5_8 H 0.8469 0.7393 0.3165
C6_8 C 0.7288(3) 0.7219(3) 0.3305(4)
H6_8 H 0.7580 0.5954 0.1351
C7_8 C 0.6731(4) 0.6333(3) 0.2188(4)
C8_8 C 0.7184(4) 0.7707(4) 0.4109(5)
C9_8 C 0.6647(3) 0.6812(3) 0.2922(4)
C10_8 C 0.6022(4) 0.5940(4) 0.1750(4)
H7_8 H 0.6610 0.7773 0.4214
C11_8 C 0.7552(5) 0.7250(5) 0.4882(5)
C12_8 C 0.7564(4) 0.8535(5) 0.4054(6)
O5_8 O 0.5877(2) 0.6915(2) 0.3270(3)
C13_8 C 0.6218(5) 0.5117(5) 0.1396(6)
C14_8 C 0.5683(7) 0.6496(5) 0.1052(7)
H8_8 H 0.5605 0.5871 0.2187
H9_8 H 0.7367 0.6706 0.4878
H10_8 H 0.7391 0.7503 0.5410
H11_8 H 0.8124 0.7258 0.4838
H12_8 H 0.8121 0.8483 0.3913
H13_8 H 0.7510 0.8802 0.4598
H14_8 H 0.7300 0.8842 0.3615
P1_8 P 0.55004(8) 0.62907(8) 0.39405(9)
H15_8 H 0.6582 0.5169 0.0921
H16_8 H 0.5735 0.4863 0.1204
H17_8 H 0.6461 0.4799 0.1839
H18_8 H 0.5242 0.6238 0.0770
H19_8 H 0.6092 0.6613 0.0637
H20_8 H 0.5503 0.6985 0.1312
loop_
_geom_bond_atom_site_label_1
_geom_bond_atom_site_label_2
_geom_bond_site_symmetry_1
_geom_bond_site_symmetry_2
Zn3 O7 1_555 1_555
Zn1 O1 1_555 1_555
O2 Zn1 1_555 1_555
O3 Zn1 1_555 1_555
O4 Zn1 1_555 1_555
C1 O2 1_555 1_555
N1 C1 1_555 1_555
C2 C1 1_555 1_555
H1 N1 1_555 1_555
C3 N1 1_555 1_555
H2 C2 1_555 1_555
H3 C2 1_555 1_555
H4 C2 1_555 1_555
C4 C3 1_555 1_555
C5 C3 1_555 1_555
H5 C4 1_555 1_555
C6 C4 1_555 1_555
H6 C5 1_555 1_555
C7 C5 1_555 1_555
C8 C6 1_555 1_555
C9 C6 1_555 1_555
C10 C7 1_555 1_555
H7 C8 1_555 1_555
C11 C8 1_555 1_555
C12 C8 1_555 1_555
O5 C9 1_555 1_555
C13 C10 1_555 1_555
C14 C10 1_555 1_555
H8 C10 1_555 1_555
H9 C11 1_555 1_555
H11 C11 1_555 1_555
H12 C12 1_555 1_555
H13 C12 1_555 1_555
H14 C12 1_555 1_555
P1 O5 1_555 1_555
H15 C13 1_555 1_555
H18 C14 1_555 1_555
H19 C14 1_555 1_555
H20 C14 1_555 1_555
O6 P1 1_555 1_555
O8 P1 1_555 1_555
C7 C9 1_555 1_555
Zn1_2 O1_2 1_555 1_555
O2_2 Zn1_2 1_555 1_555
O3_2 Zn1_2 1_555 1_555
O4_2 Zn1_2 1_555 1_555
C1_2 O2_2 1_555 1_555
N1_2 C1_2 1_555 1_555
C2_2 C1_2 1_555 1_555
H1_2 N1_2 1_555 1_555
C3_2 N1_2 1_555 1_555
H2_2 C2_2 1_555 1_555
H3_2 C2_2 1_555 1_555
H4_2 C2_2 1_555 1_555
C4_2 C3_2 1_555 1_555
C5_2 C3_2 1_555 1_555
H5_2 C4_2 1_555 1_555
C6_2 C4_2 1_555 1_555
H6_2 C5_2 1_555 1_555
C7_2 C5_2 1_555 1_555
C8_2 C6_2 1_555 1_555
C9_2 C6_2 1_555 1_555
C10_2 C7_2 1_555 1_555
H7_2 C8_2 1_555 1_555
C11_2 C8_2 1_555 1_555
C12_2 C8_2 1_555 1_555
O5_2 C9_2 1_555 1_555
C13_2 C10_2 1_555 1_555
C14_2 C10_2 1_555 1_555
H8_2 C10_2 1_555 1_555
H9_2 C11_2 1_555 1_555
H11_2 C11_2 1_555 1_555
H12_2 C12_2 1_555 1_555
H13_2 C12_2 1_555 1_555
H14_2 C12_2 1_555 1_555
P1_2 O5_2 1_555 1_555
H15_2 C13_2 1_555 1_555
H18_2 C14_2 1_555 1_555
H19_2 C14_2 1_555 1_555
H20_2 C14_2 1_555 1_555
O6_2 P1_2 1_555 1_555
O8_2 P1_2 1_555 1_555
C7_2 C9_2 1_555 1_555
Zn4 O7_2 1_555 1_555
Zn2 O7_3 1_555 1_555
Zn1_3 O1_3 1_555 1_555
O2_3 Zn1_3 1_555 1_555
O3_3 Zn1_3 1_555 1_555
O4_3 Zn1_3 1_555 1_555
C1_3 O2_3 1_555 1_555
N1_3 C1_3 1_555 1_555
C2_3 C1_3 1_555 1_555
H1_3 N1_3 1_555 1_555
C3_3 N1_3 1_555 1_555
H2_3 C2_3 1_555 1_555
H3_3 C2_3 1_555 1_555
H4_3 C2_3 1_555 1_555
C4_3 C3_3 1_555 1_555
C5_3 C3_3 1_555 1_555
H5_3 C4_3 1_555 1_555
C6_3 C4_3 1_555 1_555
H6_3 C5_3 1_555 1_555
C7_3 C5_3 1_555 1_555
C8_3 C6_3 1_555 1_555
C9_3 C6_3 1_555 1_555
C10_3 C7_3 1_555 1_555
H7_3 C8_3 1_555 1_555
C11_3 C8_3 1_555 1_555
C12_3 C8_3 1_555 1_555
O5_3 C9_3 1_555 1_555
C13_3 C10_3 1_555 1_555
C14_3 C10_3 1_555 1_555
H8_3 C10_3 1_555 1_555
H9_3 C11_3 1_555 1_555
H11_3 C11_3 1_555 1_555
H12_3 C12_3 1_555 1_555
H13_3 C12_3 1_555 1_555
H14_3 C12_3 1_555 1_555
P1_3 O5_3 1_555 1_555
H15_3 C13_3 1_555 1_555
H18_3 C14_3 1_555 1_555
H19_3 C14_3 1_555 1_555
H20_3 C14_3 1_555 1_555
O6_3 P1_3 1_555 1_555
O8_3 P1_3 1_555 1_555
C7_3 C9_3 1_555 1_555
Zn1_4 O1_4 1_555 1_555
O2_4 Zn1_4 1_555 1_555
O3_4 Zn1_4 1_555 1_555
O4_4 Zn1_4 1_555 1_555
C1_4 O2_4 1_555 1_555
N1_4 C1_4 1_555 1_555
C2_4 C1_4 1_555 1_555
H1_4 N1_4 1_555 1_555
C3_4 N1_4 1_555 1_555
H2_4 C2_4 1_555 1_555
H3_4 C2_4 1_555 1_555
H4_4 C2_4 1_555 1_555
C4_4 C3_4 1_555 1_555
C5_4 C3_4 1_555 1_555
H5_4 C4_4 1_555 1_555
C6_4 C4_4 1_555 1_555
H6_4 C5_4 1_555 1_555
C7_4 C5_4 1_555 1_555
C8_4 C6_4 1_555 1_555
C9_4 C6_4 1_555 1_555
C10_4 C7_4 1_555 1_555
H7_4 C8_4 1_555 1_555
C11_4 C8_4 1_555 1_555
C12_4 C8_4 1_555 1_555
O5_4 C9_4 1_555 1_555
C13_4 C10_4 1_555 1_555
C14_4 C10_4 1_555 1_555
H8_4 C10_4 1_555 1_555
H9_4 C11_4 1_555 1_555
H11_4 C11_4 1_555 1_555
H12_4 C12_4 1_555 1_555
H13_4 C12_4 1_555 1_555
H14_4 C12_4 1_555 1_555
P1_4 O5_4 1_555 1_555
H15_4 C13_4 1_555 1_555
H18_4 C14_4 1_555 1_555
H19_4 C14_4 1_555 1_555
H20_4 C14_4 1_555 1_555
O6_4 P1_4 1_555 1_555
O8_4 P1_4 1_555 1_555
C7_4 C9_4 1_555 1_555
Zn2_2 O7_4 1_555 1_555
O2_5 Zn2_2 1_555 1_555
C1_5 O2_5 1_555 1_555
N1_5 C1_5 1_555 1_555
H1_5 N1_5 1_555 1_555
C3_5 N1_5 1_555 1_555
C4_5 C3_5 1_555 1_555
C5_5 C3_5 1_555 1_555
H5_5 C4_5 1_555 1_555
C6_5 C4_5 1_555 1_555
H6_5 C5_5 1_555 1_555
C7_5 C5_5 1_555 1_555
C8_5 C6_5 1_555 1_555
C9_5 C6_5 1_555 1_555
C10_5 C7_5 1_555 1_555
H7_5 C8_5 1_555 1_555
C11_5 C8_5 1_555 1_555
C12_5 C8_5 1_555 1_555
O5_5 C9_5 1_555 1_555
C13_5 C10_5 1_555 1_555
C14_5 C10_5 1_555 1_555
H8_5 C10_5 1_555 1_555
H9_5 C11_5 1_555 1_555
H10_5 C11_5 1_555 1_555
H11_5 C11_5 1_555 1_555
H12_5 C12_5 1_555 1_555
H13_5 C12_5 1_555 1_555
H14_5 C12_5 1_555 1_555
P1_5 O5_5 1_555 1_555
H15_5 C13_5 1_555 1_555
H16_5 C13_5 1_555 1_555
H17_5 C13_5 1_555 1_555
H18_5 C14_5 1_555 1_555
H19_5 C14_5 1_555 1_555
H20_5 C14_5 1_555 1_555
O4_2 P1_5 1_555 1_555
O3_3 P1_5 1_555 1_555
O1_4 P1_5 1_555 1_555
C7_5 C9_5 1_555 1_555
H2_5 C2_5 1_555 1_555
H3_5 C2_5 1_555 1_555
H4_5 C2_5 1_555 1_555
H2_6 C2_6 1_555 1_555
H3_6 C2_6 1_555 1_555
H4_6 C2_6 1_555 1_555
O2_6 Zn2 1_555 1_555
C1_6 O2_6 1_555 1_555
N1_6 C1_6 1_555 1_555
H1_6 N1_6 1_555 1_555
C3_6 N1_6 1_555 1_555
C4_6 C3_6 1_555 1_555
C5_6 C3_6 1_555 1_555
H5_6 C4_6 1_555 1_555
C6_6 C4_6 1_555 1_555
H6_6 C5_6 1_555 1_555
C7_6 C5_6 1_555 1_555
C8_6 C6_6 1_555 1_555
C9_6 C6_6 1_555 1_555
C10_6 C7_6 1_555 1_555
H7_6 C8_6 1_555 1_555
C11_6 C8_6 1_555 1_555
C12_6 C8_6 1_555 1_555
O5_6 C9_6 1_555 1_555
C13_6 C10_6 1_555 1_555
C14_6 C10_6 1_555 1_555
H8_6 C10_6 1_555 1_555
H9_6 C11_6 1_555 1_555
H10_6 C11_6 1_555 1_555
H11_6 C11_6 1_555 1_555
H12_6 C12_6 1_555 1_555
H13_6 C12_6 1_555 1_555
H14_6 C12_6 1_555 1_555
P1_6 O5_6 1_555 1_555
H15_6 C13_6 1_555 1_555
H16_6 C13_6 1_555 1_555
H17_6 C13_6 1_555 1_555
H18_6 C14_6 1_555 1_555
H19_6 C14_6 1_555 1_555
H20_6 C14_6 1_555 1_555
O4 P1_6 1_555 1_555
O3_4 P1_6 1_555 1_555
O1_3 P1_6 1_555 1_555
C7_6 C9_6 1_555 1_555
O2_7 Zn3 1_555 1_555
C1_7 O2_7 1_555 1_555
N1_7 C1_7 1_555 1_555
H1_7 N1_7 1_555 1_555
C3_7 N1_7 1_555 1_555
C4_7 C3_7 1_555 1_555
C5_7 C3_7 1_555 1_555
H5_7 C4_7 1_555 1_555
C6_7 C4_7 1_555 1_555
H6_7 C5_7 1_555 1_555
C7_7 C5_7 1_555 1_555
C8_7 C6_7 1_555 1_555
C9_7 C6_7 1_555 1_555
C10_7 C7_7 1_555 1_555
H7_7 C8_7 1_555 1_555
C11_7 C8_7 1_555 1_555
C12_7 C8_7 1_555 1_555
O5_7 C9_7 1_555 1_555
C13_7 C10_7 1_555 1_555
C14_7 C10_7 1_555 1_555
H8_7 C10_7 1_555 1_555
H9_7 C11_7 1_555 1_555
H10_7 C11_7 1_555 1_555
H11_7 C11_7 1_555 1_555
H12_7 C12_7 1_555 1_555
H13_7 C12_7 1_555 1_555
H14_7 C12_7 1_555 1_555
P1_7 O5_7 1_555 1_555
H15_7 C13_7 1_555 1_555
H16_7 C13_7 1_555 1_555
H17_7 C13_7 1_555 1_555
H18_7 C14_7 1_555 1_555
H19_7 C14_7 1_555 1_555
H20_7 C14_7 1_555 1_555
O4_4 P1_7 1_555 1_555
O3_2 P1_7 1_555 1_555
O1 P1_7 1_555 1_555
C7_7 C9_7 1_555 1_555
H2_7 C2_7 1_555 1_555
H3_7 C2_7 1_555 1_555
H4_7 C2_7 1_555 1_555
H2_8 C2_8 1_555 1_555
H3_8 C2_8 1_555 1_555
H4_8 C2_8 1_555 1_555
O2_8 Zn4 1_555 1_555
C1_8 O2_8 1_555 1_555
N1_8 C1_8 1_555 1_555
H1_8 N1_8 1_555 1_555
C3_8 N1_8 1_555 1_555
C4_8 C3_8 1_555 1_555
C5_8 C3_8 1_555 1_555
H5_8 C4_8 1_555 1_555
C6_8 C4_8 1_555 1_555
H6_8 C5_8 1_555 1_555
C7_8 C5_8 1_555 1_555
C8_8 C6_8 1_555 1_555
C9_8 C6_8 1_555 1_555
C10_8 C7_8 1_555 1_555
H7_8 C8_8 1_555 1_555
C11_8 C8_8 1_555 1_555
C12_8 C8_8 1_555 1_555
O5_8 C9_8 1_555 1_555
C13_8 C10_8 1_555 1_555
C14_8 C10_8 1_555 1_555
H8_8 C10_8 1_555 1_555
H9_8 C11_8 1_555 1_555
H10_8 C11_8 1_555 1_555
H11_8 C11_8 1_555 1_555
H12_8 C12_8 1_555 1_555
H13_8 C12_8 1_555 1_555
H14_8 C12_8 1_555 1_555
P1_8 O5_8 1_555 1_555
H15_8 C13_8 1_555 1_555
H16_8 C13_8 1_555 1_555
H17_8 C13_8 1_555 1_555
H18_8 C14_8 1_555 1_555
H19_8 C14_8 1_555 1_555
H20_8 C14_8 1_555 1_555
O4_3 P1_8 1_555 1_555
O3 P1_8 1_555 1_555
O1_2 P1_8 1_555 1_555
C7_8 C9_8 1_555 1_555

#END
