
###############################################################################
#
# This file contains modified crystal structure data generated from the
# MOF subset of the Cambridge Structural Database (CSD) v543 
# hosted by the Cambridge Crystallographic Data Centre (CCDC).
#
# This work is licensed under the Creative Commons
# Attribution-NonCommercial-ShareAlike 4.0 International License.
# To view a copy of this license, visit
# http://creativecommons.org/licenses/by-nc-sa/4.0/
# or send a letter to
# Creative Commons, PO Box 1866, Mountain View, CA 94042, USA.
#
# CIF created using the CSD Python API on 29 September 2022
# The structure has been converted into the P1 space group
# The structure has a 3D framework
# The original CSD entry NOKTAL is in the tetragonal crystal system
# The framework has been calculated to contain at least 10.0% void space
# The void calculation uses a probe of radius 1.32A, grid spacing 0.4
#
###############################################################################

data_NOKTAL
_chemical_formula_moiety         '(C112 H160 N8 O36 P8 Zn8)n'
_symmetry_cell_setting           triclinic
_symmetry_space_group_name_H-M   'P 1'
_symmetry_Int_Tables_number      1
_space_group_name_Hall           'P 1'
loop_
_symmetry_equiv_pos_site_id
_symmetry_equiv_pos_as_xyz
1 x,y,z
_cell_length_a                   16.942(5)
_cell_length_b                   16.942(5)
_cell_length_c                   15.489(5)
_cell_angle_alpha                90
_cell_angle_beta                 90
_cell_angle_gamma                90
_cell_volume                     4445.83
loop_
_atom_site_label
_atom_site_type_symbol
_atom_site_fract_x
_atom_site_fract_y
_atom_site_fract_z
O4 O 0.03300(18) 0.3722(2) 0.6254(3)
Zn2 Zn 0.11573(2) 0.44266(2) 0.65328(3)
C1 C 0.8368(2) 0.3192(2) 0.5412(3)
C2 C 0.8291(2) 0.3660(2) 0.4679(3)
C3 C 0.7532(3) 0.3707(3) 0.4305(3)
H1 H 0.7449 0.4031 0.3812
C4 C 0.6910(3) 0.3286(3) 0.4650(3)
C5 C 0.7007(3) 0.2823(3) 0.5382(3)
H2 H 0.6569 0.2543 0.5612
C6 C 0.7743(3) 0.2765(2) 0.5785(3)
C7 C 0.7837(3) 0.2292(3) 0.6600(4)
H3 H 0.8412 0.2209 0.6716
C8 C 0.7430(5) 0.1501(4) 0.6567(5)
H4 H 0.7589 0.1220 0.6042
H5 H 0.6857 0.1579 0.6562
H6 H 0.7578 0.1189 0.7074
C9 C 0.7465(4) 0.2751(4) 0.7370(4)
H7 H 0.6897 0.2815 0.7271
H8 H 0.7712 0.3272 0.7417
H9 H 0.7550 0.2456 0.7906
C10 C 0.8982(3) 0.4054(3) 0.4258(3)
H10 H 0.9376 0.4169 0.4721
C11 C 0.8769(4) 0.4828(4) 0.3841(4)
H11 H 0.8438 0.5136 0.4236
H12 H 0.8479 0.4728 0.3305
H13 H 0.9252 0.5123 0.3712
C12 C 0.9372(3) 0.3488(4) 0.3620(4)
H14 H 0.9044 0.3442 0.3102
H15 H 0.9431 0.2968 0.3889
H16 H 0.9894 0.3692 0.3460
C13 C 0.5701(2) 0.2768(2) 0.4020(3)
C14 C 0.4939(2) 0.2953(3) 0.3569(4)
H17 H 0.4533 0.2575 0.3749
H18 H 0.5015 0.2916 0.2943
H19 H 0.4770 0.3489 0.3720
N1 N 0.6155(2) 0.3362(2) 0.4243(3)
H20 H 0.5982 0.3842 0.4134
O1 O 0.91163(15) 0.31116(15) 0.57853(19)
O2 O 0.9086(2) 0.45068(17) 0.6280(2)
O3 O 0.9301(3) 0.3433(2) 0.7329(2)
O5 O 0.58928(17) 0.20750(16) 0.4177(2)
P1 P 0.94703(6) 0.37481(5) 0.64523(6)
Zn1 Zn 0.55734(2) 0.11573(2) 0.34672(3)
O6 O 0.45068(17) 0.0914(2) 0.3720(2)
O7 O 0.5699(3) 0.1567(2) 0.2329(2)
O8 O 0.6278(2) 0.03300(18) 0.3746(3)
Zn3 Zn 0.88427(2) 0.55734(2) 0.65328(3)
Zn4 Zn 0.94266(2) 0.38427(2) 0.84672(3)
C1_2 C 0.3192(2) 0.1632(2) 0.4588(3)
C2_2 C 0.3660(2) 0.1709(2) 0.5321(3)
C3_2 C 0.3707(3) 0.2468(3) 0.5695(3)
H1_2 H 0.4031 0.2551 0.6188
C4_2 C 0.3286(3) 0.3090(3) 0.5350(3)
C5_2 C 0.2823(3) 0.2993(3) 0.4618(3)
H2_2 H 0.2543 0.3431 0.4388
C6_2 C 0.2765(2) 0.2257(3) 0.4215(3)
C7_2 C 0.2292(3) 0.2163(3) 0.3400(4)
H3_2 H 0.2209 0.1588 0.3284
C8_2 C 0.1501(4) 0.2570(5) 0.3433(5)
H4_2 H 0.1220 0.2411 0.3958
H5_2 H 0.1579 0.3143 0.3438
H6_2 H 0.1189 0.2422 0.2926
C9_2 C 0.2751(4) 0.2535(4) 0.2630(4)
H7_2 H 0.2815 0.3103 0.2729
H8_2 H 0.3272 0.2288 0.2583
H9_2 H 0.2456 0.2450 0.2094
C10_2 C 0.4054(3) 0.1018(3) 0.5742(3)
H10_2 H 0.4169 0.0624 0.5279
C11_2 C 0.4828(4) 0.1231(4) 0.6159(4)
H11_2 H 0.5136 0.1562 0.5764
H12_2 H 0.4728 0.1521 0.6695
H13_2 H 0.5123 0.0748 0.6288
C12_2 C 0.3488(4) 0.0628(3) 0.6380(4)
H14_2 H 0.3442 0.0956 0.6898
H15_2 H 0.2968 0.0569 0.6111
H16_2 H 0.3692 0.0106 0.6540
C13_2 C 0.2768(2) 0.4299(2) 0.5980(3)
C14_2 C 0.2953(3) 0.5061(2) 0.6431(4)
H17_2 H 0.2575 0.5467 0.6251
H18_2 H 0.2916 0.4985 0.7057
H19_2 H 0.3489 0.5230 0.6280
N1_2 N 0.3362(2) 0.3845(2) 0.5757(3)
H20_2 H 0.3842 0.4018 0.5866
O1_2 O 0.31116(15) 0.08837(15) 0.42147(19)
O3_2 O 0.3433(2) 0.0699(3) 0.2671(2)
O5_2 O 0.20750(16) 0.41072(17) 0.5823(2)
P1_2 P 0.37481(5) 0.05297(6) 0.35477(6)
O6_2 O 0.0914(2) 0.54932(17) 0.6280(2)
O7_2 O 0.1567(2) 0.4301(3) 0.7671(2)
Zn4_2 Zn 0.38427(2) 0.05734(2) 0.15328(3)
O4_2 O 0.3722(2) 0.96700(18) 0.3746(3)
Zn2_2 Zn 0.44266(2) 0.88427(2) 0.34672(3)
C1_3 C 0.1632(2) 0.6808(2) 0.5412(3)
C2_3 C 0.1709(2) 0.6340(2) 0.4679(3)
C3_3 C 0.2468(3) 0.6293(3) 0.4305(3)
H1_3 H 0.2551 0.5969 0.3812
C4_3 C 0.3090(3) 0.6714(3) 0.4650(3)
C5_3 C 0.2993(3) 0.7177(3) 0.5382(3)
H2_3 H 0.3431 0.7457 0.5612
C6_3 C 0.2257(3) 0.7235(2) 0.5785(3)
C7_3 C 0.2163(3) 0.7708(3) 0.6600(4)
H3_3 H 0.1588 0.7791 0.6716
C8_3 C 0.2570(5) 0.8499(4) 0.6567(5)
H4_3 H 0.2411 0.8780 0.6042
H5_3 H 0.3143 0.8421 0.6562
H6_3 H 0.2422 0.8811 0.7074
C9_3 C 0.2535(4) 0.7249(4) 0.7370(4)
H7_3 H 0.3103 0.7185 0.7271
H8_3 H 0.2288 0.6728 0.7417
H9_3 H 0.2450 0.7544 0.7906
C10_3 C 0.1018(3) 0.5946(3) 0.4258(3)
H10_3 H 0.0624 0.5831 0.4721
C11_3 C 0.1231(4) 0.5172(4) 0.3841(4)
H11_3 H 0.1562 0.4864 0.4236
H12_3 H 0.1521 0.5272 0.3305
H13_3 H 0.0748 0.4877 0.3712
C12_3 C 0.0628(3) 0.6512(4) 0.3620(4)
H14_3 H 0.0956 0.6558 0.3102
H15_3 H 0.0569 0.7032 0.3889
H16_3 H 0.0106 0.6308 0.3460
C13_3 C 0.4299(2) 0.7232(2) 0.4020(3)
C14_3 C 0.5061(2) 0.7047(3) 0.3569(4)
H17_3 H 0.5467 0.7425 0.3749
H18_3 H 0.4985 0.7084 0.2943
H19_3 H 0.5230 0.6511 0.3720
N1_3 N 0.3845(2) 0.6638(2) 0.4243(3)
H20_3 H 0.4018 0.6158 0.4134
O1_3 O 0.08837(15) 0.68884(15) 0.57853(19)
O3_3 O 0.0699(3) 0.6567(2) 0.7329(2)
O5_3 O 0.41072(17) 0.79250(16) 0.4177(2)
P1_3 P 0.05297(6) 0.62519(5) 0.64523(6)
O6_3 O 0.54932(17) 0.9086(2) 0.3720(2)
O7_3 O 0.4301(3) 0.8433(2) 0.2329(2)
Zn4_3 Zn 0.05734(2) 0.61573(2) 0.84672(3)
O4_3 O 0.96700(18) 0.6278(2) 0.6254(3)
C1_4 C 0.6808(2) 0.8368(2) 0.4588(3)
C2_4 C 0.6340(2) 0.8291(2) 0.5321(3)
C3_4 C 0.6293(3) 0.7532(3) 0.5695(3)
H1_4 H 0.5969 0.7449 0.6188
C4_4 C 0.6714(3) 0.6910(3) 0.5350(3)
C5_4 C 0.7177(3) 0.7007(3) 0.4618(3)
H2_4 H 0.7457 0.6569 0.4388
C6_4 C 0.7235(2) 0.7743(3) 0.4215(3)
C7_4 C 0.7708(3) 0.7837(3) 0.3400(4)
H3_4 H 0.7791 0.8412 0.3284
C8_4 C 0.8499(4) 0.7430(5) 0.3433(5)
H4_4 H 0.8780 0.7589 0.3958
H5_4 H 0.8421 0.6857 0.3438
H6_4 H 0.8811 0.7578 0.2926
C9_4 C 0.7249(4) 0.7465(4) 0.2630(4)
H7_4 H 0.7185 0.6897 0.2729
H8_4 H 0.6728 0.7712 0.2583
H9_4 H 0.7544 0.7550 0.2094
C10_4 C 0.5946(3) 0.8982(3) 0.5742(3)
H10_4 H 0.5831 0.9376 0.5279
C11_4 C 0.5172(4) 0.8769(4) 0.6159(4)
H11_4 H 0.4864 0.8438 0.5764
H12_4 H 0.5272 0.8479 0.6695
H13_4 H 0.4877 0.9252 0.6288
C12_4 C 0.6512(4) 0.9372(3) 0.6380(4)
H14_4 H 0.6558 0.9044 0.6898
H15_4 H 0.7032 0.9431 0.6111
H16_4 H 0.6308 0.9894 0.6540
C13_4 C 0.7232(2) 0.5701(2) 0.5980(3)
C14_4 C 0.7047(3) 0.4939(2) 0.6431(4)
H17_4 H 0.7425 0.4533 0.6251
H18_4 H 0.7084 0.5015 0.7057
H19_4 H 0.6511 0.4770 0.6280
N1_4 N 0.6638(2) 0.6155(2) 0.5757(3)
H20_4 H 0.6158 0.5982 0.5866
O1_4 O 0.68884(15) 0.91163(15) 0.42147(19)
O3_4 O 0.6567(2) 0.9301(3) 0.2671(2)
O5_4 O 0.79250(16) 0.58928(17) 0.5823(2)
P1_4 P 0.62519(5) 0.94703(6) 0.35477(6)
O7_4 O 0.8433(2) 0.5699(3) 0.7671(2)
Zn4_4 Zn 0.61573(2) 0.94266(2) 0.15328(3)
C1_5 C 0.3368(2) 0.8192(2) 0.0412(3)
C5_5 C 0.2007(3) 0.7823(3) 0.0382(3)
H2_5 H 0.1569 0.7543 0.0612
C6_5 C 0.2743(3) 0.7765(2) 0.0785(3)
C7_5 C 0.2837(3) 0.7292(3) 0.1600(4)
H3_5 H 0.3412 0.7209 0.1716
C8_5 C 0.2430(5) 0.6501(4) 0.1567(5)
H4_5 H 0.2589 0.6220 0.1042
H5_5 H 0.1857 0.6579 0.1562
H6_5 H 0.2578 0.6189 0.2074
C9_5 C 0.2465(4) 0.7751(4) 0.2370(4)
H7_5 H 0.1897 0.7815 0.2271
H8_5 H 0.2712 0.8272 0.2417
H9_5 H 0.2550 0.7456 0.2906
O1_5 O 0.41163(15) 0.81116(15) 0.07853(19)
O2_2 O 0.4086(2) 0.95068(17) 0.1280(2)
O4_4 O 0.53300(18) 0.8722(2) 0.1254(3)
P1_5 P 0.44703(6) 0.87481(5) 0.14523(6)
C2_5 C 0.3291(2) 0.8660(2) 0.9679(3)
C3_5 C 0.2532(3) 0.8707(3) 0.9305(3)
H1_5 H 0.2449 0.9031 0.8812
C4_5 C 0.1910(3) 0.8286(3) 0.9650(3)
C10_5 C 0.3982(3) 0.9054(3) 0.9258(3)
H10_5 H 0.4376 0.9169 0.9721
C11_5 C 0.3769(4) 0.9828(4) 0.8841(4)
H12_5 H 0.3479 0.9728 0.8305
C12_5 C 0.4372(3) 0.8488(4) 0.8620(4)
H14_5 H 0.4044 0.8442 0.8102
H15_5 H 0.4431 0.7968 0.8889
H16_5 H 0.4894 0.8692 0.8460
C13_5 C 0.0701(2) 0.7768(2) 0.9020(3)
H18_5 H 0.0015 0.7916 0.7943
N1_5 N 0.1155(2) 0.8362(2) 0.9243(3)
H20_5 H 0.0982 0.8842 0.9134
O5_5 O 0.08928(17) 0.70750(16) 0.9177(2)
O8_2 O 0.1278(2) 0.53300(18) 0.8746(3)
C14_5 C 0.9939(2) 0.7953(3) 0.8569(4)
H17_5 H 0.9533 0.7575 0.8749
H19_5 H 0.9770 0.8489 0.8720
O6_4 O 0.95068(17) 0.5914(2) 0.8720(2)
C14_6 C 0.7953(3) 0.0061(2) 0.1431(4)
H17_6 H 0.7575 0.0467 0.1251
H19_6 H 0.8489 0.0230 0.1280
O6_5 O 0.5914(2) 0.04932(17) 0.1280(2)
C2_6 C 0.8660(2) 0.6709(2) 0.0321(3)
C3_6 C 0.8707(3) 0.7468(3) 0.0695(3)
H1_6 H 0.9031 0.7551 0.1188
C4_6 C 0.8286(3) 0.8090(3) 0.0350(3)
C10_6 C 0.9054(3) 0.6018(3) 0.0742(3)
H10_6 H 0.9169 0.5624 0.0279
C11_6 C 0.9828(4) 0.6231(4) 0.1159(4)
H12_6 H 0.9728 0.6521 0.1695
C12_6 C 0.8488(4) 0.5628(3) 0.1380(4)
H14_6 H 0.8442 0.5956 0.1898
H15_6 H 0.7968 0.5569 0.1111
H16_6 H 0.8692 0.5106 0.1540
C13_6 C 0.7768(2) 0.9299(2) 0.0980(3)
H18_6 H 0.7916 0.9985 0.2057
N1_6 N 0.8362(2) 0.8845(2) 0.0757(3)
H20_6 H 0.8842 0.9018 0.0866
O5_6 O 0.70750(16) 0.91072(17) 0.0823(2)
C1_6 C 0.8192(2) 0.6632(2) 0.9588(3)
C5_6 C 0.7823(3) 0.7993(3) 0.9618(3)
H2_6 H 0.7543 0.8431 0.9388
C6_6 C 0.7765(2) 0.7257(3) 0.9215(3)
C7_6 C 0.7292(3) 0.7163(3) 0.8400(4)
H3_6 H 0.7209 0.6588 0.8284
C8_6 C 0.6501(4) 0.7570(5) 0.8433(5)
H4_6 H 0.6220 0.7411 0.8958
H5_6 H 0.6579 0.8143 0.8438
H6_6 H 0.6189 0.7422 0.7926
C9_6 C 0.7751(4) 0.7535(4) 0.7630(4)
H7_6 H 0.7815 0.8103 0.7729
H8_6 H 0.8272 0.7288 0.7583
H9_6 H 0.7456 0.7450 0.7094
O1_6 O 0.81116(15) 0.58837(15) 0.92147(19)
O4_5 O 0.8722(2) 0.46700(18) 0.8746(3)
P1_6 P 0.87481(5) 0.55297(6) 0.85477(6)
C14_7 C 0.0061(2) 0.2047(3) 0.8569(4)
H17_7 H 0.0467 0.2425 0.8749
H19_7 H 0.0230 0.1511 0.8720
O6_6 O 0.04932(17) 0.4086(2) 0.8720(2)
C1_7 C 0.6632(2) 0.1808(2) 0.0412(3)
C5_7 C 0.7993(3) 0.2177(3) 0.0382(3)
H2_7 H 0.8431 0.2457 0.0612
C6_7 C 0.7257(3) 0.2235(2) 0.0785(3)
C7_7 C 0.7163(3) 0.2708(3) 0.1600(4)
H3_7 H 0.6588 0.2791 0.1716
C8_7 C 0.7570(5) 0.3499(4) 0.1567(5)
H4_7 H 0.7411 0.3780 0.1042
H5_7 H 0.8143 0.3421 0.1562
H6_7 H 0.7422 0.3811 0.2074
C9_7 C 0.7535(4) 0.2249(4) 0.2370(4)
H7_7 H 0.8103 0.2185 0.2271
H8_7 H 0.7288 0.1728 0.2417
H9_7 H 0.7450 0.2544 0.2906
O1_7 O 0.58837(15) 0.18884(15) 0.07853(19)
O4_6 O 0.46700(18) 0.1278(2) 0.1254(3)
P1_7 P 0.55297(6) 0.12519(5) 0.14523(6)
C2_7 C 0.6709(2) 0.1340(2) 0.9679(3)
C3_7 C 0.7468(3) 0.1293(3) 0.9305(3)
H1_7 H 0.7551 0.0969 0.8812
C4_7 C 0.8090(3) 0.1714(3) 0.9650(3)
C10_7 C 0.6018(3) 0.0946(3) 0.9258(3)
H10_7 H 0.5624 0.0831 0.9721
C11_7 C 0.6231(4) 0.0172(4) 0.8841(4)
H12_7 H 0.6521 0.0272 0.8305
C12_7 C 0.5628(3) 0.1512(4) 0.8620(4)
H14_7 H 0.5956 0.1558 0.8102
H15_7 H 0.5569 0.2032 0.8889
H16_7 H 0.5106 0.1308 0.8460
C13_7 C 0.9299(2) 0.2232(2) 0.9020(3)
H18_7 H 0.9985 0.2084 0.7943
N1_7 N 0.8845(2) 0.1638(2) 0.9243(3)
H20_7 H 0.9018 0.1158 0.9134
O5_7 O 0.91072(17) 0.29250(16) 0.9177(2)
C2_8 C 0.1340(2) 0.3291(2) 0.0321(3)
C3_8 C 0.1293(3) 0.2532(3) 0.0695(3)
H1_8 H 0.0969 0.2449 0.1188
C4_8 C 0.1714(3) 0.1910(3) 0.0350(3)
C10_8 C 0.0946(3) 0.3982(3) 0.0742(3)
H10_8 H 0.0831 0.4376 0.0279
C11_8 C 0.0172(4) 0.3769(4) 0.1159(4)
H12_8 H 0.0272 0.3479 0.1695
C12_8 C 0.1512(4) 0.4372(3) 0.1380(4)
H14_8 H 0.1558 0.4044 0.1898
H15_8 H 0.2032 0.4431 0.1111
H16_8 H 0.1308 0.4894 0.1540
C13_8 C 0.2232(2) 0.0701(2) 0.0980(3)
H18_8 H 0.2084 0.0015 0.2057
N1_8 N 0.1638(2) 0.1155(2) 0.0757(3)
H20_8 H 0.1158 0.0982 0.0866
O5_8 O 0.29250(16) 0.08928(17) 0.0823(2)
C1_8 C 0.1808(2) 0.3368(2) 0.9588(3)
C5_8 C 0.2177(3) 0.2007(3) 0.9618(3)
H2_8 H 0.2457 0.1569 0.9388
C6_8 C 0.2235(2) 0.2743(3) 0.9215(3)
C7_8 C 0.2708(3) 0.2837(3) 0.8400(4)
H3_8 H 0.2791 0.3412 0.8284
C8_8 C 0.3499(4) 0.2430(5) 0.8433(5)
H4_8 H 0.3780 0.2589 0.8958
H5_8 H 0.3421 0.1857 0.8438
H6_8 H 0.3811 0.2578 0.7926
C9_8 C 0.2249(4) 0.2465(4) 0.7630(4)
H7_8 H 0.2185 0.1897 0.7729
H8_8 H 0.1728 0.2712 0.7583
H9_8 H 0.2544 0.2550 0.7094
O1_8 O 0.18884(15) 0.41163(15) 0.92147(19)
P1_8 P 0.12519(5) 0.44703(6) 0.85477(6)
C14_8 C 0.2047(3) 0.9939(2) 0.1431(4)
H17_8 H 0.2425 0.9533 0.1251
H19_8 H 0.1511 0.9770 0.1280
H11_5 H 0.3438 0.0136 0.9236
H13_5 H 0.4252 0.0123 0.8712
H11_6 H 0.0136 0.6562 0.0764
H13_6 H 0.0123 0.5748 0.1288
H11_7 H 0.6562 0.9864 0.9236
H13_7 H 0.5748 0.9877 0.8712
H11_8 H 0.9864 0.3438 0.0764
H13_8 H 0.9877 0.4252 0.1288
loop_
_geom_bond_atom_site_label_1
_geom_bond_atom_site_label_2
_geom_bond_site_symmetry_1
_geom_bond_site_symmetry_2
Zn2 O4 1_555 1_555
C1 C2 1_555 1_555
C2 C3 1_555 1_555
C3 H1 1_555 1_555
C4 C3 1_555 1_555
C5 C4 1_555 1_555
H2 C5 1_555 1_555
C6 C1 1_555 1_555
C7 C6 1_555 1_555
H3 C7 1_555 1_555
C8 C7 1_555 1_555
H4 C8 1_555 1_555
H5 C8 1_555 1_555
H6 C8 1_555 1_555
C9 C7 1_555 1_555
H7 C9 1_555 1_555
H8 C9 1_555 1_555
H9 C9 1_555 1_555
C10 C2 1_555 1_555
H10 C10 1_555 1_555
C11 C10 1_555 1_555
H11 C11 1_555 1_555
H12 C11 1_555 1_555
H13 C11 1_555 1_555
C12 C10 1_555 1_555
H14 C12 1_555 1_555
H15 C12 1_555 1_555
H16 C12 1_555 1_555
C13 C14 1_555 1_555
C14 H17 1_555 1_555
H18 C14 1_555 1_555
H19 C14 1_555 1_555
N1 C4 1_555 1_555
H20 N1 1_555 1_555
O1 C1 1_555 1_555
O2 P1 1_555 1_555
O3 P1 1_555 1_555
O5 C13 1_555 1_555
P1 O1 1_555 1_555
Zn1 O5 1_555 1_555
O6 Zn1 1_555 1_555
O7 Zn1 1_555 1_555
O8 Zn1 1_555 1_555
Zn3 O2 1_555 1_555
Zn4 O3 1_555 1_555
C5 C6 1_555 1_555
C13 N1 1_555 1_555
C1_2 C2_2 1_555 1_555
C2_2 C3_2 1_555 1_555
C3_2 H1_2 1_555 1_555
C4_2 C3_2 1_555 1_555
C5_2 C4_2 1_555 1_555
H2_2 C5_2 1_555 1_555
C6_2 C1_2 1_555 1_555
C7_2 C6_2 1_555 1_555
H3_2 C7_2 1_555 1_555
C8_2 C7_2 1_555 1_555
H4_2 C8_2 1_555 1_555
H5_2 C8_2 1_555 1_555
H6_2 C8_2 1_555 1_555
C9_2 C7_2 1_555 1_555
H7_2 C9_2 1_555 1_555
H8_2 C9_2 1_555 1_555
H9_2 C9_2 1_555 1_555
C10_2 C2_2 1_555 1_555
H10_2 C10_2 1_555 1_555
C11_2 C10_2 1_555 1_555
H11_2 C11_2 1_555 1_555
H12_2 C11_2 1_555 1_555
H13_2 C11_2 1_555 1_555
C12_2 C10_2 1_555 1_555
H14_2 C12_2 1_555 1_555
H15_2 C12_2 1_555 1_555
H16_2 C12_2 1_555 1_555
C13_2 C14_2 1_555 1_555
C14_2 H17_2 1_555 1_555
H18_2 C14_2 1_555 1_555
H19_2 C14_2 1_555 1_555
N1_2 C4_2 1_555 1_555
H20_2 N1_2 1_555 1_555
O1_2 C1_2 1_555 1_555
O6 P1_2 1_555 1_555
O3_2 P1_2 1_555 1_555
O5_2 C13_2 1_555 1_555
P1_2 O1_2 1_555 1_555
Zn2 O5_2 1_555 1_555
O6_2 Zn2 1_555 1_555
O7_2 Zn2 1_555 1_555
Zn4_2 O3_2 1_555 1_555
C5_2 C6_2 1_555 1_555
C13_2 N1_2 1_555 1_555
Zn2_2 O4_2 1_555 1_555
C1_3 C2_3 1_555 1_555
C2_3 C3_3 1_555 1_555
C3_3 H1_3 1_555 1_555
C4_3 C3_3 1_555 1_555
C5_3 C4_3 1_555 1_555
H2_3 C5_3 1_555 1_555
C6_3 C1_3 1_555 1_555
C7_3 C6_3 1_555 1_555
H3_3 C7_3 1_555 1_555
C8_3 C7_3 1_555 1_555
H4_3 C8_3 1_555 1_555
H5_3 C8_3 1_555 1_555
H6_3 C8_3 1_555 1_555
C9_3 C7_3 1_555 1_555
H7_3 C9_3 1_555 1_555
H8_3 C9_3 1_555 1_555
H9_3 C9_3 1_555 1_555
C10_3 C2_3 1_555 1_555
H10_3 C10_3 1_555 1_555
C11_3 C10_3 1_555 1_555
H11_3 C11_3 1_555 1_555
H12_3 C11_3 1_555 1_555
H13_3 C11_3 1_555 1_555
C12_3 C10_3 1_555 1_555
H14_3 C12_3 1_555 1_555
H15_3 C12_3 1_555 1_555
H16_3 C12_3 1_555 1_555
C13_3 C14_3 1_555 1_555
C14_3 H17_3 1_555 1_555
H18_3 C14_3 1_555 1_555
H19_3 C14_3 1_555 1_555
N1_3 C4_3 1_555 1_555
H20_3 N1_3 1_555 1_555
O1_3 C1_3 1_555 1_555
O6_2 P1_3 1_555 1_555
O3_3 P1_3 1_555 1_555
O5_3 C13_3 1_555 1_555
P1_3 O1_3 1_555 1_555
Zn2_2 O5_3 1_555 1_555
O6_3 Zn2_2 1_555 1_555
O7_3 Zn2_2 1_555 1_555
Zn4_3 O3_3 1_555 1_555
C5_3 C6_3 1_555 1_555
C13_3 N1_3 1_555 1_555
Zn3 O4_3 1_555 1_555
C1_4 C2_4 1_555 1_555
C2_4 C3_4 1_555 1_555
C3_4 H1_4 1_555 1_555
C4_4 C3_4 1_555 1_555
C5_4 C4_4 1_555 1_555
H2_4 C5_4 1_555 1_555
C6_4 C1_4 1_555 1_555
C7_4 C6_4 1_555 1_555
H3_4 C7_4 1_555 1_555
C8_4 C7_4 1_555 1_555
H4_4 C8_4 1_555 1_555
H5_4 C8_4 1_555 1_555
H6_4 C8_4 1_555 1_555
C9_4 C7_4 1_555 1_555
H7_4 C9_4 1_555 1_555
H8_4 C9_4 1_555 1_555
H9_4 C9_4 1_555 1_555
C10_4 C2_4 1_555 1_555
H10_4 C10_4 1_555 1_555
C11_4 C10_4 1_555 1_555
H11_4 C11_4 1_555 1_555
H12_4 C11_4 1_555 1_555
H13_4 C11_4 1_555 1_555
C12_4 C10_4 1_555 1_555
H14_4 C12_4 1_555 1_555
H15_4 C12_4 1_555 1_555
H16_4 C12_4 1_555 1_555
C13_4 C14_4 1_555 1_555
C14_4 H17_4 1_555 1_555
H18_4 C14_4 1_555 1_555
H19_4 C14_4 1_555 1_555
N1_4 C4_4 1_555 1_555
H20_4 N1_4 1_555 1_555
O1_4 C1_4 1_555 1_555
O6_3 P1_4 1_555 1_555
O3_4 P1_4 1_555 1_555
O5_4 C13_4 1_555 1_555
P1_4 O1_4 1_555 1_555
Zn3 O5_4 1_555 1_555
O7_4 Zn3 1_555 1_555
Zn4_4 O3_4 1_555 1_555
C5_4 C6_4 1_555 1_555
C13_4 N1_4 1_555 1_555
H2_5 C5_5 1_555 1_555
C6_5 C1_5 1_555 1_555
C7_5 C6_5 1_555 1_555
H3_5 C7_5 1_555 1_555
C8_5 C7_5 1_555 1_555
H4_5 C8_5 1_555 1_555
H5_5 C8_5 1_555 1_555
H6_5 C8_5 1_555 1_555
C9_5 C7_5 1_555 1_555
H7_5 C9_5 1_555 1_555
H8_5 C9_5 1_555 1_555
H9_5 C9_5 1_555 1_555
O1_5 C1_5 1_555 1_555
O2_2 P1_5 1_555 1_555
O7_3 P1_5 1_555 1_555
O4_4 P1_5 1_555 1_555
P1_5 O1_5 1_555 1_555
Zn4_4 O4_4 1_555 1_555
C5_5 C6_5 1_555 1_555
C2_5 C3_5 1_555 1_555
C3_5 H1_5 1_555 1_555
C4_5 C3_5 1_555 1_555
C10_5 C2_5 1_555 1_555
H10_5 C10_5 1_555 1_555
C11_5 C10_5 1_555 1_555
H12_5 C11_5 1_555 1_555
C12_5 C10_5 1_555 1_555
H14_5 C12_5 1_555 1_555
H15_5 C12_5 1_555 1_555
H16_5 C12_5 1_555 1_555
N1_5 C4_5 1_555 1_555
H20_5 N1_5 1_555 1_555
O5_5 C13_5 1_555 1_555
Zn4_3 O5_5 1_555 1_555
O8_2 Zn4_3 1_555 1_555
C13_5 N1_5 1_555 1_555
C14_5 H17_5 1_555 1_555
H19_5 C14_5 1_555 1_555
C14_6 H17_6 1_555 1_555
H19_6 C14_6 1_555 1_555
C2_6 C3_6 1_555 1_555
C3_6 H1_6 1_555 1_555
C4_6 C3_6 1_555 1_555
C10_6 C2_6 1_555 1_555
H10_6 C10_6 1_555 1_555
C11_6 C10_6 1_555 1_555
H12_6 C11_6 1_555 1_555
C12_6 C10_6 1_555 1_555
H14_6 C12_6 1_555 1_555
H15_6 C12_6 1_555 1_555
H16_6 C12_6 1_555 1_555
N1_6 C4_6 1_555 1_555
H20_6 N1_6 1_555 1_555
O5_6 C13_6 1_555 1_555
Zn4_4 O5_6 1_555 1_555
C13_6 N1_6 1_555 1_555
H2_6 C5_6 1_555 1_555
C6_6 C1_6 1_555 1_555
C7_6 C6_6 1_555 1_555
H3_6 C7_6 1_555 1_555
C8_6 C7_6 1_555 1_555
H4_6 C8_6 1_555 1_555
H5_6 C8_6 1_555 1_555
H6_6 C8_6 1_555 1_555
C9_6 C7_6 1_555 1_555
H7_6 C9_6 1_555 1_555
H8_6 C9_6 1_555 1_555
H9_6 C9_6 1_555 1_555
O1_6 C1_6 1_555 1_555
O6_4 P1_6 1_555 1_555
O7_4 P1_6 1_555 1_555
O4_5 P1_6 1_555 1_555
P1_6 O1_6 1_555 1_555
Zn4 O4_5 1_555 1_555
C5_6 C6_6 1_555 1_555
C14_7 H17_7 1_555 1_555
H19_7 C14_7 1_555 1_555
H2_7 C5_7 1_555 1_555
C6_7 C1_7 1_555 1_555
C7_7 C6_7 1_555 1_555
H3_7 C7_7 1_555 1_555
C8_7 C7_7 1_555 1_555
H4_7 C8_7 1_555 1_555
H5_7 C8_7 1_555 1_555
H6_7 C8_7 1_555 1_555
C9_7 C7_7 1_555 1_555
H7_7 C9_7 1_555 1_555
H8_7 C9_7 1_555 1_555
H9_7 C9_7 1_555 1_555
O1_7 C1_7 1_555 1_555
O6_5 P1_7 1_555 1_555
O7 P1_7 1_555 1_555
O4_6 P1_7 1_555 1_555
P1_7 O1_7 1_555 1_555
Zn4_2 O4_6 1_555 1_555
C5_7 C6_7 1_555 1_555
C2_7 C3_7 1_555 1_555
C3_7 H1_7 1_555 1_555
C4_7 C3_7 1_555 1_555
C10_7 C2_7 1_555 1_555
H10_7 C10_7 1_555 1_555
C11_7 C10_7 1_555 1_555
H12_7 C11_7 1_555 1_555
C12_7 C10_7 1_555 1_555
H14_7 C12_7 1_555 1_555
H15_7 C12_7 1_555 1_555
H16_7 C12_7 1_555 1_555
N1_7 C4_7 1_555 1_555
H20_7 N1_7 1_555 1_555
O5_7 C13_7 1_555 1_555
Zn4 O5_7 1_555 1_555
C13_7 N1_7 1_555 1_555
C2_8 C3_8 1_555 1_555
C3_8 H1_8 1_555 1_555
C4_8 C3_8 1_555 1_555
C10_8 C2_8 1_555 1_555
H10_8 C10_8 1_555 1_555
C11_8 C10_8 1_555 1_555
H12_8 C11_8 1_555 1_555
C12_8 C10_8 1_555 1_555
H14_8 C12_8 1_555 1_555
H15_8 C12_8 1_555 1_555
H16_8 C12_8 1_555 1_555
N1_8 C4_8 1_555 1_555
H20_8 N1_8 1_555 1_555
O5_8 C13_8 1_555 1_555
Zn4_2 O5_8 1_555 1_555
C13_8 N1_8 1_555 1_555
H2_8 C5_8 1_555 1_555
C6_8 C1_8 1_555 1_555
C7_8 C6_8 1_555 1_555
H3_8 C7_8 1_555 1_555
C8_8 C7_8 1_555 1_555
H4_8 C8_8 1_555 1_555
H5_8 C8_8 1_555 1_555
H6_8 C8_8 1_555 1_555
C9_8 C7_8 1_555 1_555
H7_8 C9_8 1_555 1_555
H8_8 C9_8 1_555 1_555
H9_8 C9_8 1_555 1_555
O1_8 C1_8 1_555 1_555
O6_6 P1_8 1_555 1_555
O7_2 P1_8 1_555 1_555
O8_2 P1_8 1_555 1_555
P1_8 O1_8 1_555 1_555
C5_8 C6_8 1_555 1_555
C14_8 H17_8 1_555 1_555
H19_8 C14_8 1_555 1_555

#END
