
###############################################################################
#
# This file contains modified crystal structure data generated from the
# MOF subset of the Cambridge Structural Database (CSD) v543 
# hosted by the Cambridge Crystallographic Data Centre (CCDC).
#
# This work is licensed under the Creative Commons
# Attribution-NonCommercial-ShareAlike 4.0 International License.
# To view a copy of this license, visit
# http://creativecommons.org/licenses/by-nc-sa/4.0/
# or send a letter to
# Creative Commons, PO Box 1866, Mountain View, CA 94042, USA.
#
# CIF created using the CSD Python API on 29 September 2022
# The structure has been converted into the P1 space group
# The structure has a 3D framework
# The original CSD entry NOLRIR is in the monoclinic crystal system
# The framework has been calculated to contain at least 10.0% void space
# The void calculation uses a probe of radius 1.32A, grid spacing 0.4
#
###############################################################################

data_NOLRIR
_chemical_formula_moiety         '(C192 H144 Cd14 N8 O56)n'
_symmetry_cell_setting           triclinic
_symmetry_space_group_name_H-M   'P 1'
_symmetry_Int_Tables_number      1
_space_group_name_Hall           'P 1'
loop_
_symmetry_equiv_pos_site_id
_symmetry_equiv_pos_as_xyz
1 x,y,z
_cell_length_a                   19.524(4)
_cell_length_b                   10.049(2)
_cell_length_c                   25.359(5)
_cell_angle_alpha                90
_cell_angle_beta                 95.409(4)
_cell_angle_gamma                90
_cell_volume                     4953.2
loop_
_atom_site_label
_atom_site_type_symbol
_atom_site_fract_x
_atom_site_fract_y
_atom_site_fract_z
O5 O 0.07473(18) 0.2824(3) 0.53538(12)
O6 O 0.15180(16) 0.1438(4) 0.50677(14)
C18 C 0.0636(2) 0.0539(5) 0.55232(17)
C19 C 0.0149(2) 0.0719(4) 0.58816(18)
H11 H 0.0045 0.1576 0.5988
C21 C 0.0993(2) 0.1707(5) 0.52976(18)
Cd3 Cd 0.410723(18) 0.04870(3) 0.516309(14)
O8 O 0.31109(19) 0.1072(4) 0.55720(13)
O9 O 0.39326(19) 0.0125(5) 0.60576(14)
C25 C 0.3341(2) 0.0598(5) 0.60064(18)
C26 C 0.2910(2) 0.0520(5) 0.64592(18)
C29 C 0.2046(3) 0.0286(5) 0.72754(18)
C30 C 0.1829(3) 0.0975(6) 0.6819(2)
H21 H 0.1396 0.1366 0.6782
C31 C 0.2264(3) 0.1085(7) 0.6411(2)
H22 H 0.2114 0.1546 0.6104
C32 C 0.1584(2) 0.0147(5) 0.77125(19)
C36 C 0.0640(3) 0.0876(5) 0.8162(2)
H25 H 0.0289 0.1492 0.8186
C37 C 0.1074(3) 0.1064(5) 0.7771(2)
H26 H 0.1023 0.1802 0.7550
Cd9 Cd 0.089277(18) 0.45130(3) 0.483691(14)
Cd10 Cd 0.2500 0.2500 0.5000
O16 O 0.52415(17) 0.0832(3) 0.54768(13)
O22 O 0.42527(18) 0.2176(3) 0.46462(12)
O3 O 0.02415(17) 0.5832(3) 0.54768(13)
O4 O 0.10823(17) 0.6675(3) 0.50662(13)
C16 C 0.0461(2) 0.8173(5) 0.55509(17)
C17 C 0.0797(2) 0.9259(4) 0.53749(18)
H10 H 0.1142 0.9134 0.5151
C20 C 0.0599(2) 0.6801(5) 0.53544(18)
C27 C 0.3136(3) 0.9852(6) 0.69169(18)
H19 H 0.3573 0.9475 0.6956
C28 C 0.2708(3) 0.9748(6) 0.7317(2)
H20 H 0.2866 0.9303 0.7627
C33 C 0.1665(3) 0.9106(5) 0.8077(2)
H23 H 0.2025 0.8509 0.8057
C34 C 0.1225(3) 0.8941(5) 0.84626(19)
H24 H 0.1284 0.8218 0.8692
C35 C 0.0689(2) 0.9843(5) 0.85179(18)
C38 C 0.0187(2) 0.9634(5) 0.89148(17)
C39 C 0.0020(2) 0.8356(5) 0.90843(17)
H27 H 0.0234 0.7619 0.8951
Cd4 Cd 0.089277(18) 0.54870(3) 0.983691(14)
O18 O 0.47585(17) 0.9168(3) 0.45232(13)
O20 O 0.39177(17) 0.8325(3) 0.49338(13)
Cd2 Cd 0.7500 0.2500 0.0000
O14 O 0.7218(2) 0.0877(4) 0.05752(16)
Cd7 Cd 0.910723(18) 0.45130(3) 0.016309(14)
O15 O 0.81109(19) 0.3928(4) 0.05720(13)
O23 O 0.57473(18) 0.2176(3) 0.03538(12)
O24 O 0.65180(16) 0.3562(4) 0.00677(14)
Cd1 Cd 0.589277(18) 0.04870(3) 0.983691(14)
Cd2_2 Cd 0.7500 0.2500 1.0000
O1 O 0.68891(19) 0.1072(4) 0.94280(13)
O2 O 0.60674(19) 0.0125(5) 0.89424(14)
O7 O 0.7782(2) 0.4123(4) 0.94248(16)
C1 C 0.6659(2) 0.0598(5) 0.89936(18)
C2 C 0.7090(2) 0.0520(5) 0.85408(18)
C5 C 0.7954(3) 0.0286(5) 0.77246(18)
C6 C 0.8171(3) 0.0975(6) 0.8181(2)
H3 H 0.8604 0.1366 0.8218
C7 C 0.7736(3) 0.1085(7) 0.8589(2)
H4 H 0.7886 0.1546 0.8896
C8 C 0.8416(2) 0.0147(5) 0.72875(19)
C12 C 0.9360(3) 0.0876(5) 0.6838(2)
H7 H 0.9711 0.1492 0.6814
C13 C 0.8926(3) 0.1064(5) 0.7229(2)
H8 H 0.8977 0.1802 0.7450
C22 C 0.7469(4) 0.5203(7) 0.9416(3)
H12 H 0.7144 0.5331 0.9657
N1 N 0.7573(2) 0.6175(5) 0.90845(18)
C23 C 0.7186(5) 0.7371(9) 0.9137(4)
H13 H 0.6836 0.7215 0.9372
H14 H 0.6975 0.7636 0.8796
H15 H 0.7488 0.8064 0.9279
C24 C 0.8023(3) 0.6275(11) 0.8704(2)
H16 H 0.8288 0.5472 0.8697
H17 H 0.8326 0.7016 0.8783
H18 H 0.7771 0.6409 0.8364
O12 O 0.92527(18) 0.2824(3) 0.96462(12)
O13 O 0.84820(16) 0.1438(4) 0.99323(14)
C42 C 0.9364(2) 0.0539(5) 0.94768(17)
C43 C 0.9851(2) 0.0719(4) 0.91184(18)
H29 H 0.9955 0.1576 0.9012
C45 C 0.9007(2) 0.1707(5) 0.97024(18)
O17 O 0.47585(17) 0.0832(3) 0.95232(13)
C46 C 0.7531(4) 0.9797(7) 0.0584(3)
H30 H 0.7856 0.9669 0.0343
N2 N 0.7427(2) 0.8825(5) 0.09155(18)
C47 C 0.7814(5) 0.7629(9) 0.0863(4)
H31 H 0.8164 0.7785 0.0628
H32 H 0.8025 0.7364 0.1204
H33 H 0.7512 0.6936 0.0721
C48 C 0.6977(3) 0.8725(11) 0.1296(2)
H34 H 0.6712 0.9528 0.1303
H35 H 0.6674 0.7984 0.1217
H36 H 0.7229 0.8591 0.1636
O19 O 0.52415(17) 0.9168(3) 0.04768(13)
O21 O 0.60823(17) 0.8325(3) 0.00662(13)
C3 C 0.6864(3) 0.9852(6) 0.80831(18)
H1 H 0.6427 0.9475 0.8044
C4 C 0.7292(3) 0.9748(6) 0.7683(2)
H2 H 0.7134 0.9303 0.7373
C9 C 0.8335(3) 0.9106(5) 0.6923(2)
H5 H 0.7975 0.8509 0.6943
C10 C 0.8775(3) 0.8941(5) 0.65374(19)
H6 H 0.8716 0.8218 0.6308
C11 C 0.9311(2) 0.9843(5) 0.64821(18)
C14 C 0.9813(2) 0.9634(5) 0.60852(17)
C15 C 0.9980(2) 0.8356(5) 0.59157(17)
H9 H 0.9766 0.7619 0.6049
O10 O 0.97585(17) 0.5832(3) 0.95232(13)
O11 O 0.89177(17) 0.6675(3) 0.99338(13)
C40 C 0.9539(2) 0.8173(5) 0.94491(17)
C41 C 0.9203(2) 0.9259(4) 0.96251(18)
H28 H 0.8858 0.9134 0.9849
C44 C 0.9401(2) 0.6801(5) 0.96456(18)
Cd5 Cd 0.910723(18) 0.54870(3) 0.516309(14)
O7_2 O 0.2218(2) 0.4123(4) 0.55752(16)
C22_2 C 0.2531(4) 0.5203(7) 0.5584(3)
H12_2 H 0.2856 0.5331 0.5343
N1_2 N 0.2427(2) 0.6175(5) 0.59155(18)
C23_2 C 0.2814(5) 0.7371(9) 0.5863(4)
H13_2 H 0.3164 0.7215 0.5628
H14_2 H 0.3025 0.7636 0.6204
H15_2 H 0.2512 0.8064 0.5721
C24_2 C 0.1977(3) 0.6275(11) 0.6296(2)
H16_2 H 0.1712 0.5472 0.6303
H17_2 H 0.1674 0.7016 0.6217
H18_2 H 0.2229 0.6409 0.6636
O14_2 O 0.2782(2) 0.0877(4) 0.44248(16)
O15_2 O 0.18891(19) 0.3928(4) 0.44280(13)
O24_2 O 0.34820(16) 0.3562(4) 0.49323(14)
C46_2 C 0.2469(4) 0.9797(7) 0.4416(3)
H30_2 H 0.2144 0.9669 0.4657
N2_2 N 0.2573(2) 0.8825(5) 0.40845(18)
C47_2 C 0.2186(5) 0.7629(9) 0.4137(4)
H31_2 H 0.1836 0.7785 0.4372
H32_2 H 0.1975 0.7364 0.3796
H33_2 H 0.2488 0.6936 0.4279
C48_2 C 0.3023(3) 0.8725(11) 0.3704(2)
H34_2 H 0.3288 0.9528 0.3697
H35_2 H 0.3326 0.7984 0.3783
H36_2 H 0.2771 0.8591 0.3364
C22_3 C 0.2469(4) 0.0203(7) 0.9416(3)
H12_3 H 0.2144 0.0331 0.9657
N1_3 N 0.2573(2) 0.1175(5) 0.90845(18)
C23_3 C 0.2186(5) 0.2371(9) 0.9137(4)
H13_3 H 0.1836 0.2215 0.9372
H14_3 H 0.1975 0.2636 0.8796
H15_3 H 0.2488 0.3064 0.9279
C24_3 C 0.3023(3) 0.1275(11) 0.8704(2)
H16_3 H 0.3288 0.0472 0.8697
H17_3 H 0.3326 0.2016 0.8783
H18_3 H 0.2771 0.1409 0.8364
Cd2_3 Cd 0.2500 0.7500 0.0000
O14_3 O 0.2218(2) 0.5877(4) 0.05752(16)
C46_3 C 0.2531(4) 0.4797(7) 0.0584(3)
H30_3 H 0.2856 0.4669 0.0343
N2_3 N 0.2427(2) 0.3825(5) 0.09155(18)
C47_3 C 0.2814(5) 0.2629(9) 0.0863(4)
H31_3 H 0.3164 0.2785 0.0628
H32_3 H 0.3025 0.2364 0.1204
H33_3 H 0.2512 0.1936 0.0721
C48_3 C 0.1977(3) 0.3725(11) 0.1296(2)
H34_3 H 0.1712 0.4528 0.1303
H35_3 H 0.1674 0.2984 0.1217
H36_3 H 0.2229 0.3591 0.1636
Cd7_2 Cd 0.410723(18) 0.95130(3) 0.016309(14)
O15_3 O 0.31109(19) 0.8928(4) 0.05720(13)
O19_2 O 0.02415(17) 0.4168(3) 0.04768(13)
O21_2 O 0.10823(17) 0.3325(3) 0.00662(13)
O23_2 O 0.07473(18) 0.7176(3) 0.03538(12)
O24_3 O 0.15180(16) 0.8562(4) 0.00677(14)
Cd2_4 Cd 0.2500 0.7500 1.0000
O1_2 O 0.18891(19) 0.6072(4) 0.94280(13)
O2_2 O 0.10674(19) 0.5125(5) 0.89424(14)
O4_2 O 0.60823(17) 0.1675(3) 0.50662(13)
O5_2 O 0.57473(18) 0.7824(3) 0.53538(12)
O6_2 O 0.65180(16) 0.6438(4) 0.50677(14)
O7_3 O 0.2782(2) 0.9123(4) 0.94248(16)
C1_2 C 0.1659(2) 0.5598(5) 0.89936(18)
C2_2 C 0.2090(2) 0.5520(5) 0.85408(18)
C3_2 C 0.1864(3) 0.4852(6) 0.80831(18)
H1_2 H 0.1427 0.4475 0.8044
C4_2 C 0.2292(3) 0.4748(6) 0.7683(2)
H2_2 H 0.2134 0.4303 0.7373
C5_2 C 0.2954(3) 0.5286(5) 0.77246(18)
C6_2 C 0.3171(3) 0.5975(6) 0.8181(2)
H3_2 H 0.3604 0.6366 0.8218
C7_2 C 0.2736(3) 0.6085(7) 0.8589(2)
H4_2 H 0.2886 0.6546 0.8896
C8_2 C 0.3416(2) 0.5147(5) 0.72875(19)
C9_2 C 0.3335(3) 0.4106(5) 0.6923(2)
H5_2 H 0.2975 0.3509 0.6943
C10_2 C 0.3775(3) 0.3941(5) 0.65374(19)
H6_2 H 0.3716 0.3218 0.6308
C11_2 C 0.4311(2) 0.4843(5) 0.64821(18)
C12_2 C 0.4360(3) 0.5876(5) 0.6838(2)
H7_2 H 0.4711 0.6492 0.6814
C13_2 C 0.3926(3) 0.6064(5) 0.7229(2)
H8_2 H 0.3977 0.6802 0.7450
C14_2 C 0.4813(2) 0.4634(5) 0.60852(17)
C15_2 C 0.4980(2) 0.3356(5) 0.59157(17)
H9_2 H 0.4766 0.2619 0.6049
C16_2 C 0.5461(2) 0.3173(5) 0.55509(17)
C17_2 C 0.5797(2) 0.4259(4) 0.53749(18)
H10_2 H 0.6142 0.4134 0.5151
C18_2 C 0.5636(2) 0.5539(5) 0.55232(17)
C19_2 C 0.5149(2) 0.5719(4) 0.58816(18)
H11_2 H 0.5045 0.6576 0.5988
C20_2 C 0.5599(2) 0.1801(5) 0.53544(18)
C21_2 C 0.5993(2) 0.6707(5) 0.52976(18)
O8_2 O 0.81109(19) 0.6072(4) 0.55720(13)
O9_2 O 0.89326(19) 0.5125(5) 0.60576(14)
O11_2 O 0.39177(17) 0.1675(3) 0.99338(13)
O12_2 O 0.42527(18) 0.7824(3) 0.96462(12)
O13_2 O 0.34820(16) 0.6438(4) 0.99323(14)
C25_2 C 0.8341(2) 0.5598(5) 0.60064(18)
C26_2 C 0.7910(2) 0.5520(5) 0.64592(18)
C27_2 C 0.8136(3) 0.4852(6) 0.69169(18)
H19_2 H 0.8573 0.4475 0.6956
C28_2 C 0.7708(3) 0.4748(6) 0.7317(2)
H20_2 H 0.7866 0.4303 0.7627
C29_2 C 0.7046(3) 0.5286(5) 0.72754(18)
C30_2 C 0.6829(3) 0.5975(6) 0.6819(2)
H21_2 H 0.6396 0.6366 0.6782
C31_2 C 0.7264(3) 0.6085(7) 0.6411(2)
H22_2 H 0.7114 0.6546 0.6104
C32_2 C 0.6584(2) 0.5147(5) 0.77125(19)
C33_2 C 0.6665(3) 0.4106(5) 0.8077(2)
H23_2 H 0.7025 0.3509 0.8057
C34_2 C 0.6225(3) 0.3941(5) 0.84626(19)
H24_2 H 0.6284 0.3218 0.8692
C35_2 C 0.5689(2) 0.4843(5) 0.85179(18)
C36_2 C 0.5640(3) 0.5876(5) 0.8162(2)
H25_2 H 0.5289 0.6492 0.8186
C37_2 C 0.6074(3) 0.6064(5) 0.7771(2)
H26_2 H 0.6023 0.6802 0.7550
C38_2 C 0.5187(2) 0.4634(5) 0.89148(17)
C39_2 C 0.5020(2) 0.3356(5) 0.90843(17)
H27_2 H 0.5234 0.2619 0.8951
C40_2 C 0.4539(2) 0.3173(5) 0.94491(17)
C41_2 C 0.4203(2) 0.4259(4) 0.96251(18)
H28_2 H 0.3858 0.4134 0.9849
C42_2 C 0.4364(2) 0.5539(5) 0.94768(17)
C43_2 C 0.4851(2) 0.5719(4) 0.91184(18)
H29_2 H 0.4955 0.6576 0.9012
C44_2 C 0.4401(2) 0.1801(5) 0.96456(18)
C45_2 C 0.4007(2) 0.6707(5) 0.97024(18)
Cd9_2 Cd 0.589277(18) 0.95130(3) 0.483691(14)
Cd10_2 Cd 0.7500 0.7500 0.5000
O18_2 O 0.97585(17) 0.4168(3) 0.45232(13)
O20_2 O 0.89177(17) 0.3325(3) 0.49338(13)
O22_2 O 0.92527(18) 0.7176(3) 0.46462(12)
C22_4 C 0.7531(4) 0.0203(7) 0.5584(3)
H12_4 H 0.7856 0.0331 0.5343
N1_4 N 0.7427(2) 0.1175(5) 0.59155(18)
C23_4 C 0.7814(5) 0.2371(9) 0.5863(4)
H13_4 H 0.8164 0.2215 0.5628
H14_4 H 0.8025 0.2636 0.6204
H15_4 H 0.7512 0.3064 0.5721
C24_4 C 0.6977(3) 0.1275(11) 0.6296(2)
H16_4 H 0.6712 0.0472 0.6303
H17_4 H 0.6674 0.2016 0.6217
H18_4 H 0.7229 0.1409 0.6636
O7_4 O 0.7218(2) 0.9123(4) 0.55752(16)
O14_4 O 0.7782(2) 0.5877(4) 0.44248(16)
C46_4 C 0.7469(4) 0.4797(7) 0.4416(3)
H30_4 H 0.7144 0.4669 0.4657
N2_4 N 0.7573(2) 0.3825(5) 0.40845(18)
C47_4 C 0.7186(5) 0.2629(9) 0.4137(4)
H31_4 H 0.6836 0.2785 0.4372
H32_4 H 0.6975 0.2364 0.3796
H33_4 H 0.7488 0.1936 0.4279
C48_4 C 0.8023(3) 0.3725(11) 0.3704(2)
H34_4 H 0.8288 0.4528 0.3697
H35_4 H 0.8326 0.2984 0.3783
H36_4 H 0.7771 0.3591 0.3364
O15_4 O 0.68891(19) 0.8928(4) 0.44280(13)
O24_4 O 0.84820(16) 0.8562(4) 0.49323(14)
C3_3 C 0.3136(3) 0.0148(6) 0.19169(18)
H1_3 H 0.3573 0.0525 0.1956
C4_3 C 0.2708(3) 0.0252(6) 0.2317(2)
H2_3 H 0.2866 0.0697 0.2627
C9_3 C 0.1665(3) 0.0894(5) 0.3077(2)
H5_3 H 0.2025 0.1491 0.3057
C10_3 C 0.1225(3) 0.1059(5) 0.34626(19)
H6_3 H 0.1284 0.1782 0.3692
C11_3 C 0.0689(2) 0.0157(5) 0.35179(18)
C14_3 C 0.0187(2) 0.0366(5) 0.39148(17)
C15_3 C 0.0020(2) 0.1644(5) 0.40843(17)
H9_3 H 0.0234 0.2381 0.3951
C40_3 C 0.0461(2) 0.1827(5) 0.05509(17)
C41_3 C 0.0797(2) 0.0741(4) 0.03749(18)
H28_3 H 0.1142 0.0866 0.0151
C44_3 C 0.0599(2) 0.3199(5) 0.03544(18)
O2_3 O 0.39326(19) 0.9875(5) 0.10576(14)
C1_3 C 0.3341(2) 0.9402(5) 0.10064(18)
C2_3 C 0.2910(2) 0.9480(5) 0.14592(18)
C5_3 C 0.2046(3) 0.9714(5) 0.22754(18)
C6_3 C 0.1829(3) 0.9025(6) 0.1819(2)
H3_3 H 0.1396 0.8634 0.1782
C7_3 C 0.2264(3) 0.8915(7) 0.1411(2)
H4_3 H 0.2114 0.8454 0.1104
C8_3 C 0.1584(2) 0.9853(5) 0.27125(19)
C12_3 C 0.0640(3) 0.9124(5) 0.3162(2)
H7_3 H 0.0289 0.8508 0.3186
C13_3 C 0.1074(3) 0.8936(5) 0.2771(2)
H8_3 H 0.1023 0.8198 0.2550
C42_3 C 0.0636(2) 0.9461(5) 0.05232(17)
C43_3 C 0.0149(2) 0.9281(4) 0.08816(18)
H29_3 H 0.0045 0.8424 0.0988
C45_3 C 0.0993(2) 0.8293(5) 0.02976(18)
C16_3 C 0.9539(2) 0.1827(5) 0.44491(17)
C17_3 C 0.9203(2) 0.0741(4) 0.46251(18)
H10_3 H 0.8858 0.0866 0.4849
C20_3 C 0.9401(2) 0.3199(5) 0.46456(18)
C27_3 C 0.6864(3) 0.0148(6) 0.30831(18)
H19_3 H 0.6427 0.0525 0.3044
C28_3 C 0.7292(3) 0.0252(6) 0.2683(2)
H20_3 H 0.7134 0.0697 0.2373
C33_3 C 0.8335(3) 0.0894(5) 0.1923(2)
H23_3 H 0.7975 0.1491 0.1943
C34_3 C 0.8775(3) 0.1059(5) 0.15374(19)
H24_3 H 0.8716 0.1782 0.1308
C35_3 C 0.9311(2) 0.0157(5) 0.14821(18)
C38_3 C 0.9813(2) 0.0366(5) 0.10852(17)
C39_3 C 0.9980(2) 0.1644(5) 0.09157(17)
H27_3 H 0.9766 0.2381 0.1049
C18_3 C 0.9364(2) 0.9461(5) 0.44768(17)
C19_3 C 0.9851(2) 0.9281(4) 0.41184(18)
H11_3 H 0.9955 0.8424 0.4012
C21_3 C 0.9007(2) 0.8293(5) 0.47024(18)
O9_3 O 0.60674(19) 0.9875(5) 0.39424(14)
C25_3 C 0.6659(2) 0.9402(5) 0.39936(18)
C26_3 C 0.7090(2) 0.9480(5) 0.35408(18)
C29_3 C 0.7954(3) 0.9714(5) 0.27246(18)
C30_3 C 0.8171(3) 0.9025(6) 0.3181(2)
H21_3 H 0.8604 0.8634 0.3218
C31_3 C 0.7736(3) 0.8915(7) 0.3589(2)
H22_3 H 0.7886 0.8454 0.3896
C32_3 C 0.8416(2) 0.9853(5) 0.22875(19)
C36_3 C 0.9360(3) 0.9124(5) 0.1838(2)
H25_3 H 0.9711 0.8508 0.1814
C37_3 C 0.8926(3) 0.8936(5) 0.2229(2)
H26_3 H 0.8977 0.8198 0.2450
O2_4 O 0.89326(19) 0.4875(5) 0.10576(14)
C1_4 C 0.8341(2) 0.4402(5) 0.10064(18)
C2_4 C 0.7910(2) 0.4480(5) 0.14592(18)
C3_4 C 0.8136(3) 0.5148(6) 0.19169(18)
H1_4 H 0.8573 0.5525 0.1956
C4_4 C 0.7708(3) 0.5252(6) 0.2317(2)
H2_4 H 0.7866 0.5697 0.2627
C5_4 C 0.7046(3) 0.4714(5) 0.22754(18)
C6_4 C 0.6829(3) 0.4025(6) 0.1819(2)
H3_4 H 0.6396 0.3634 0.1782
C7_4 C 0.7264(3) 0.3915(7) 0.1411(2)
H4_4 H 0.7114 0.3454 0.1104
C8_4 C 0.6584(2) 0.4853(5) 0.27125(19)
C9_4 C 0.6665(3) 0.5894(5) 0.3077(2)
H5_4 H 0.7025 0.6491 0.3057
C10_4 C 0.6225(3) 0.6059(5) 0.34626(19)
H6_4 H 0.6284 0.6782 0.3692
C11_4 C 0.5689(2) 0.5157(5) 0.35179(18)
C12_4 C 0.5640(3) 0.4124(5) 0.3162(2)
H7_4 H 0.5289 0.3508 0.3186
C13_4 C 0.6074(3) 0.3936(5) 0.2771(2)
H8_4 H 0.6023 0.3198 0.2550
C14_4 C 0.5187(2) 0.5366(5) 0.39148(17)
C15_4 C 0.5020(2) 0.6644(5) 0.40843(17)
H9_4 H 0.5234 0.7381 0.3951
C16_4 C 0.4539(2) 0.6827(5) 0.44491(17)
C17_4 C 0.4203(2) 0.5741(4) 0.46251(18)
H10_4 H 0.3858 0.5866 0.4849
C18_4 C 0.4364(2) 0.4461(5) 0.44768(17)
C19_4 C 0.4851(2) 0.4281(4) 0.41184(18)
H11_4 H 0.4955 0.3424 0.4012
C20_4 C 0.4401(2) 0.8199(5) 0.46456(18)
C21_4 C 0.4007(2) 0.3293(5) 0.47024(18)
O9_4 O 0.10674(19) 0.4875(5) 0.39424(14)
C25_4 C 0.1659(2) 0.4402(5) 0.39936(18)
C26_4 C 0.2090(2) 0.4480(5) 0.35408(18)
C27_4 C 0.1864(3) 0.5148(6) 0.30831(18)
H19_4 H 0.1427 0.5525 0.3044
C28_4 C 0.2292(3) 0.5252(6) 0.2683(2)
H20_4 H 0.2134 0.5697 0.2373
C29_4 C 0.2954(3) 0.4714(5) 0.27246(18)
C30_4 C 0.3171(3) 0.4025(6) 0.3181(2)
H21_4 H 0.3604 0.3634 0.3218
C31_4 C 0.2736(3) 0.3915(7) 0.3589(2)
H22_4 H 0.2886 0.3454 0.3896
C32_4 C 0.3416(2) 0.4853(5) 0.22875(19)
C33_4 C 0.3335(3) 0.5894(5) 0.1923(2)
H23_4 H 0.2975 0.6491 0.1943
C34_4 C 0.3775(3) 0.6059(5) 0.15374(19)
H24_4 H 0.3716 0.6782 0.1308
C35_4 C 0.4311(2) 0.5157(5) 0.14821(18)
C36_4 C 0.4360(3) 0.4124(5) 0.1838(2)
H25_4 H 0.4711 0.3508 0.1814
C37_4 C 0.3926(3) 0.3936(5) 0.2229(2)
H26_4 H 0.3977 0.3198 0.2450
C38_4 C 0.4813(2) 0.5366(5) 0.10852(17)
C39_4 C 0.4980(2) 0.6644(5) 0.09157(17)
H27_4 H 0.4766 0.7381 0.1049
C40_4 C 0.5461(2) 0.6827(5) 0.05509(17)
C41_4 C 0.5797(2) 0.5741(4) 0.03749(18)
H28_4 H 0.6142 0.5866 0.0151
C42_4 C 0.5636(2) 0.4461(5) 0.05232(17)
C43_4 C 0.5149(2) 0.4281(4) 0.08816(18)
H29_4 H 0.5045 0.3424 0.0988
C44_4 C 0.5599(2) 0.8199(5) 0.03544(18)
C45_4 C 0.5993(2) 0.3293(5) 0.02976(18)
loop_
_geom_bond_atom_site_label_1
_geom_bond_atom_site_label_2
_geom_bond_site_symmetry_1
_geom_bond_site_symmetry_2
O5 C21 1_555 1_555
O6 C21 1_555 1_555
H11 C19 1_555 1_555
C21 C18 1_555 1_555
Cd3 O8 1_555 1_555
O8 C25 1_555 1_555
O9 Cd3 1_555 1_555
C25 O9 1_555 1_555
C26 C25 1_555 1_555
C30 C29 1_555 1_555
H21 C30 1_555 1_555
C31 C26 1_555 1_555
H22 C31 1_555 1_555
C32 C29 1_555 1_555
H25 C36 1_555 1_555
C37 C32 1_555 1_555
H26 C37 1_555 1_555
Cd9 O5 1_555 1_555
Cd10 O6 1_555 1_555
O16 Cd3 1_555 1_555
O22 Cd3 1_555 1_555
C18 C19 1_555 1_555
O8 Cd10 1_555 1_555
C30 C31 1_555 1_555
C36 C37 1_555 1_555
O3 C20 1_555 1_555
O4 C20 1_555 1_555
C17 C16 1_555 1_555
H10 C17 1_555 1_555
C20 C16 1_555 1_555
H19 C27 1_555 1_555
C28 C27 1_555 1_555
H20 C28 1_555 1_555
H23 C33 1_555 1_555
C34 C33 1_555 1_555
H24 C34 1_555 1_555
C35 C34 1_555 1_555
C38 C35 1_555 1_555
C39 C38 1_555 1_555
H27 C39 1_555 1_555
Cd9 O3 1_555 1_555
O4 Cd9 1_555 1_555
O14 Cd2 1_555 1_555
O15 Cd2 1_555 1_555
O24 Cd2 1_555 1_555
Cd7 O15 1_555 1_555
Cd1 O1 1_555 1_555
Cd2_2 O1 1_555 1_555
O1 C1 1_555 1_555
O2 Cd1 1_555 1_555
O7 Cd2_2 1_555 1_555
C1 O2 1_555 1_555
C2 C1 1_555 1_555
C6 C5 1_555 1_555
H3 C6 1_555 1_555
C7 C2 1_555 1_555
H4 C7 1_555 1_555
C8 C5 1_555 1_555
H7 C12 1_555 1_555
C13 C8 1_555 1_555
H8 C13 1_555 1_555
C22 O7 1_555 1_555
H12 C22 1_555 1_555
N1 C22 1_555 1_555
C23 N1 1_555 1_555
H13 C23 1_555 1_555
H14 C23 1_555 1_555
H15 C23 1_555 1_555
C24 N1 1_555 1_555
H16 C24 1_555 1_555
H17 C24 1_555 1_555
H18 C24 1_555 1_555
O12 C45 1_555 1_555
O13 Cd2_2 1_555 1_555
H29 C43 1_555 1_555
C45 O13 1_555 1_555
O17 Cd1 1_555 1_555
C6 C7 1_555 1_555
C12 C13 1_555 1_555
C42 C43 1_555 1_555
C42 C45 1_555 1_555
H30 C46 1_555 1_555
N2 C46 1_555 1_555
C47 N2 1_555 1_555
H31 C47 1_555 1_555
H32 C47 1_555 1_555
H33 C47 1_555 1_555
C48 N2 1_555 1_555
H34 C48 1_555 1_555
H35 C48 1_555 1_555
H36 C48 1_555 1_555
H1 C3 1_555 1_555
C4 C3 1_555 1_555
H2 C4 1_555 1_555
H5 C9 1_555 1_555
C10 C9 1_555 1_555
H6 C10 1_555 1_555
C11 C10 1_555 1_555
C14 C11 1_555 1_555
C15 C14 1_555 1_555
H9 C15 1_555 1_555
O10 C44 1_555 1_555
O11 C44 1_555 1_555
C41 C40 1_555 1_555
H28 C41 1_555 1_555
C44 C40 1_555 1_555
O7_2 Cd10 1_555 1_555
C22_2 O7_2 1_555 1_555
H12_2 C22_2 1_555 1_555
N1_2 C22_2 1_555 1_555
C23_2 N1_2 1_555 1_555
H13_2 C23_2 1_555 1_555
H14_2 C23_2 1_555 1_555
H15_2 C23_2 1_555 1_555
C24_2 N1_2 1_555 1_555
H16_2 C24_2 1_555 1_555
H17_2 C24_2 1_555 1_555
H18_2 C24_2 1_555 1_555
O14_2 Cd10 1_555 1_555
O15_2 Cd10 1_555 1_555
O24_2 Cd10 1_555 1_555
Cd9 O15_2 1_555 1_555
H30_2 C46_2 1_555 1_555
N2_2 C46_2 1_555 1_555
C47_2 N2_2 1_555 1_555
H31_2 C47_2 1_555 1_555
H32_2 C47_2 1_555 1_555
H33_2 C47_2 1_555 1_555
C48_2 N2_2 1_555 1_555
H34_2 C48_2 1_555 1_555
H35_2 C48_2 1_555 1_555
H36_2 C48_2 1_555 1_555
H12_3 C22_3 1_555 1_555
N1_3 C22_3 1_555 1_555
C23_3 N1_3 1_555 1_555
H13_3 C23_3 1_555 1_555
H14_3 C23_3 1_555 1_555
H15_3 C23_3 1_555 1_555
C24_3 N1_3 1_555 1_555
H16_3 C24_3 1_555 1_555
H17_3 C24_3 1_555 1_555
H18_3 C24_3 1_555 1_555
O14_3 Cd2_3 1_555 1_555
C46_3 O14_3 1_555 1_555
H30_3 C46_3 1_555 1_555
N2_3 C46_3 1_555 1_555
C47_3 N2_3 1_555 1_555
H31_3 C47_3 1_555 1_555
H32_3 C47_3 1_555 1_555
H33_3 C47_3 1_555 1_555
C48_3 N2_3 1_555 1_555
H34_3 C48_3 1_555 1_555
H35_3 C48_3 1_555 1_555
H36_3 C48_3 1_555 1_555
O15_3 Cd2_3 1_555 1_555
O24_3 Cd2_3 1_555 1_555
Cd7_2 O15_3 1_555 1_555
Cd4 O1_2 1_555 1_555
Cd2_4 O1_2 1_555 1_555
O1_2 C1_2 1_555 1_555
O2_2 Cd4 1_555 1_555
O16 C20_2 1_555 1_555
O4_2 C20_2 1_555 1_555
O5_2 C21_2 1_555 1_555
O6_2 C21_2 1_555 1_555
O7_3 Cd2_4 1_555 1_555
C1_2 O2_2 1_555 1_555
C2_2 C1_2 1_555 1_555
C3_2 C2_2 1_555 1_555
H1_2 C3_2 1_555 1_555
C4_2 C3_2 1_555 1_555
H2_2 C4_2 1_555 1_555
C5_2 C4_2 1_555 1_555
C6_2 C5_2 1_555 1_555
H3_2 C6_2 1_555 1_555
C7_2 C2_2 1_555 1_555
H4_2 C7_2 1_555 1_555
C8_2 C5_2 1_555 1_555
C9_2 C8_2 1_555 1_555
H5_2 C9_2 1_555 1_555
C10_2 C9_2 1_555 1_555
H6_2 C10_2 1_555 1_555
C11_2 C10_2 1_555 1_555
C12_2 C11_2 1_555 1_555
H7_2 C12_2 1_555 1_555
C13_2 C8_2 1_555 1_555
H8_2 C13_2 1_555 1_555
C14_2 C11_2 1_555 1_555
C15_2 C14_2 1_555 1_555
H9_2 C15_2 1_555 1_555
C16_2 C15_2 1_555 1_555
C17_2 C16_2 1_555 1_555
H10_2 C17_2 1_555 1_555
C18_2 C17_2 1_555 1_555
C19_2 C14_2 1_555 1_555
H11_2 C19_2 1_555 1_555
C20_2 C16_2 1_555 1_555
C21_2 C18_2 1_555 1_555
Cd5 O8_2 1_555 1_555
O8_2 C25_2 1_555 1_555
O9_2 Cd5 1_555 1_555
O17 C44_2 1_555 1_555
O11_2 C44_2 1_555 1_555
O12_2 C45_2 1_555 1_555
O13_2 Cd2_4 1_555 1_555
C25_2 O9_2 1_555 1_555
C26_2 C25_2 1_555 1_555
C27_2 C26_2 1_555 1_555
H19_2 C27_2 1_555 1_555
C28_2 C27_2 1_555 1_555
H20_2 C28_2 1_555 1_555
C29_2 C28_2 1_555 1_555
C30_2 C29_2 1_555 1_555
H21_2 C30_2 1_555 1_555
C31_2 C26_2 1_555 1_555
H22_2 C31_2 1_555 1_555
C32_2 C29_2 1_555 1_555
C33_2 C32_2 1_555 1_555
H23_2 C33_2 1_555 1_555
C34_2 C33_2 1_555 1_555
H24_2 C34_2 1_555 1_555
C35_2 C34_2 1_555 1_555
C36_2 C35_2 1_555 1_555
H25_2 C36_2 1_555 1_555
C37_2 C32_2 1_555 1_555
H26_2 C37_2 1_555 1_555
C38_2 C35_2 1_555 1_555
C39_2 C38_2 1_555 1_555
H27_2 C39_2 1_555 1_555
C40_2 C39_2 1_555 1_555
C41_2 C40_2 1_555 1_555
H28_2 C41_2 1_555 1_555
C42_2 C41_2 1_555 1_555
C43_2 C38_2 1_555 1_555
H29_2 C43_2 1_555 1_555
C44_2 C40_2 1_555 1_555
C45_2 O13_2 1_555 1_555
Cd9_2 O5_2 1_555 1_555
Cd10_2 O6_2 1_555 1_555
O18_2 Cd5 1_555 1_555
O20_2 Cd5 1_555 1_555
O22_2 Cd5 1_555 1_555
C6_2 C7_2 1_555 1_555
C12_2 C13_2 1_555 1_555
C18_2 C19_2 1_555 1_555
O8_2 Cd10_2 1_555 1_555
C30_2 C31_2 1_555 1_555
C36_2 C37_2 1_555 1_555
C42_2 C43_2 1_555 1_555
C42_2 C45_2 1_555 1_555
H12_4 C22_4 1_555 1_555
N1_4 C22_4 1_555 1_555
C23_4 N1_4 1_555 1_555
H13_4 C23_4 1_555 1_555
H14_4 C23_4 1_555 1_555
H15_4 C23_4 1_555 1_555
C24_4 N1_4 1_555 1_555
H16_4 C24_4 1_555 1_555
H17_4 C24_4 1_555 1_555
H18_4 C24_4 1_555 1_555
O7_4 Cd10_2 1_555 1_555
O14_4 Cd10_2 1_555 1_555
C46_4 O14_4 1_555 1_555
H30_4 C46_4 1_555 1_555
N2_4 C46_4 1_555 1_555
C47_4 N2_4 1_555 1_555
H31_4 C47_4 1_555 1_555
H32_4 C47_4 1_555 1_555
H33_4 C47_4 1_555 1_555
C48_4 N2_4 1_555 1_555
H34_4 C48_4 1_555 1_555
H35_4 C48_4 1_555 1_555
H36_4 C48_4 1_555 1_555
O15_4 Cd10_2 1_555 1_555
O24_4 Cd10_2 1_555 1_555
Cd9_2 O15_4 1_555 1_555
H1_3 C3_3 1_555 1_555
C4_3 C3_3 1_555 1_555
H2_3 C4_3 1_555 1_555
H5_3 C9_3 1_555 1_555
C10_3 C9_3 1_555 1_555
H6_3 C10_3 1_555 1_555
C11_3 C10_3 1_555 1_555
C14_3 C11_3 1_555 1_555
C15_3 C14_3 1_555 1_555
H9_3 C15_3 1_555 1_555
O19_2 C44_3 1_555 1_555
O21_2 C44_3 1_555 1_555
C41_3 C40_3 1_555 1_555
H28_3 C41_3 1_555 1_555
C44_3 C40_3 1_555 1_555
O15_3 C1_3 1_555 1_555
O2_3 Cd7_2 1_555 1_555
C1_3 O2_3 1_555 1_555
C2_3 C1_3 1_555 1_555
C6_3 C5_3 1_555 1_555
H3_3 C6_3 1_555 1_555
C7_3 C2_3 1_555 1_555
H4_3 C7_3 1_555 1_555
C8_3 C5_3 1_555 1_555
H7_3 C12_3 1_555 1_555
C13_3 C8_3 1_555 1_555
H8_3 C13_3 1_555 1_555
O23_2 C45_3 1_555 1_555
H29_3 C43_3 1_555 1_555
C45_3 O24_3 1_555 1_555
O19 Cd7_2 1_555 1_555
C6_3 C7_3 1_555 1_555
C12_3 C13_3 1_555 1_555
C42_3 C43_3 1_555 1_555
C42_3 C45_3 1_555 1_555
O18_2 C20_3 1_555 1_555
O20_2 C20_3 1_555 1_555
C17_3 C16_3 1_555 1_555
H10_3 C17_3 1_555 1_555
C20_3 C16_3 1_555 1_555
H19_3 C27_3 1_555 1_555
C28_3 C27_3 1_555 1_555
H20_3 C28_3 1_555 1_555
H23_3 C33_3 1_555 1_555
C34_3 C33_3 1_555 1_555
H24_3 C34_3 1_555 1_555
C35_3 C34_3 1_555 1_555
C38_3 C35_3 1_555 1_555
C39_3 C38_3 1_555 1_555
H27_3 C39_3 1_555 1_555
O22_2 C21_3 1_555 1_555
O24_4 C21_3 1_555 1_555
H11_3 C19_3 1_555 1_555
C21_3 C18_3 1_555 1_555
O15_4 C25_3 1_555 1_555
O9_3 Cd9_2 1_555 1_555
C25_3 O9_3 1_555 1_555
C26_3 C25_3 1_555 1_555
C30_3 C29_3 1_555 1_555
H21_3 C30_3 1_555 1_555
C31_3 C26_3 1_555 1_555
H22_3 C31_3 1_555 1_555
C32_3 C29_3 1_555 1_555
H25_3 C36_3 1_555 1_555
C37_3 C32_3 1_555 1_555
H26_3 C37_3 1_555 1_555
O18 Cd9_2 1_555 1_555
C18_3 C19_3 1_555 1_555
C30_3 C31_3 1_555 1_555
C36_3 C37_3 1_555 1_555
O15 C1_4 1_555 1_555
O2_4 Cd7 1_555 1_555
O18 C20_4 1_555 1_555
O20 C20_4 1_555 1_555
O22 C21_4 1_555 1_555
O24_2 C21_4 1_555 1_555
C1_4 O2_4 1_555 1_555
C2_4 C1_4 1_555 1_555
C3_4 C2_4 1_555 1_555
H1_4 C3_4 1_555 1_555
C4_4 C3_4 1_555 1_555
H2_4 C4_4 1_555 1_555
C5_4 C4_4 1_555 1_555
C6_4 C5_4 1_555 1_555
H3_4 C6_4 1_555 1_555
C7_4 C2_4 1_555 1_555
H4_4 C7_4 1_555 1_555
C8_4 C5_4 1_555 1_555
C9_4 C8_4 1_555 1_555
H5_4 C9_4 1_555 1_555
C10_4 C9_4 1_555 1_555
H6_4 C10_4 1_555 1_555
C11_4 C10_4 1_555 1_555
C12_4 C11_4 1_555 1_555
H7_4 C12_4 1_555 1_555
C13_4 C8_4 1_555 1_555
H8_4 C13_4 1_555 1_555
C14_4 C11_4 1_555 1_555
C15_4 C14_4 1_555 1_555
H9_4 C15_4 1_555 1_555
C16_4 C15_4 1_555 1_555
C17_4 C16_4 1_555 1_555
H10_4 C17_4 1_555 1_555
C18_4 C17_4 1_555 1_555
C19_4 C14_4 1_555 1_555
H11_4 C19_4 1_555 1_555
C20_4 C16_4 1_555 1_555
C21_4 C18_4 1_555 1_555
O15_2 C25_4 1_555 1_555
O9_4 Cd9 1_555 1_555
O19 C44_4 1_555 1_555
O21 C44_4 1_555 1_555
O23 C45_4 1_555 1_555
C25_4 O9_4 1_555 1_555
C26_4 C25_4 1_555 1_555
C27_4 C26_4 1_555 1_555
H19_4 C27_4 1_555 1_555
C28_4 C27_4 1_555 1_555
H20_4 C28_4 1_555 1_555
C29_4 C28_4 1_555 1_555
C30_4 C29_4 1_555 1_555
H21_4 C30_4 1_555 1_555
C31_4 C26_4 1_555 1_555
H22_4 C31_4 1_555 1_555
C32_4 C29_4 1_555 1_555
C33_4 C32_4 1_555 1_555
H23_4 C33_4 1_555 1_555
C34_4 C33_4 1_555 1_555
H24_4 C34_4 1_555 1_555
C35_4 C34_4 1_555 1_555
C36_4 C35_4 1_555 1_555
H25_4 C36_4 1_555 1_555
C37_4 C32_4 1_555 1_555
H26_4 C37_4 1_555 1_555
C38_4 C35_4 1_555 1_555
C39_4 C38_4 1_555 1_555
H27_4 C39_4 1_555 1_555
C40_4 C39_4 1_555 1_555
C41_4 C40_4 1_555 1_555
H28_4 C41_4 1_555 1_555
C42_4 C41_4 1_555 1_555
C43_4 C38_4 1_555 1_555
H29_4 C43_4 1_555 1_555
C44_4 C40_4 1_555 1_555
C45_4 O24 1_555 1_555
C6_4 C7_4 1_555 1_555
C12_4 C13_4 1_555 1_555
C18_4 C19_4 1_555 1_555
C30_4 C31_4 1_555 1_555
C36_4 C37_4 1_555 1_555
C42_4 C43_4 1_555 1_555
C42_4 C45_4 1_555 1_555

#END
