
###############################################################################
#
# This file contains modified crystal structure data generated from the
# MOF subset of the Cambridge Structural Database (CSD) v543 
# hosted by the Cambridge Crystallographic Data Centre (CCDC).
#
# This work is licensed under the Creative Commons
# Attribution-NonCommercial-ShareAlike 4.0 International License.
# To view a copy of this license, visit
# http://creativecommons.org/licenses/by-nc-sa/4.0/
# or send a letter to
# Creative Commons, PO Box 1866, Mountain View, CA 94042, USA.
#
# CIF created using the CSD Python API on 29 September 2022
# The structure has been converted into the P1 space group
# The structure has a 3D framework
# The original CSD entry NOLVER is in the triclinic crystal system
# The framework has been calculated to contain at least 10.0% void space
# The void calculation uses a probe of radius 1.32A, grid spacing 0.4
# H atom positions have been added when not included in the experimental data
# Generated hydrogen atom positions removed from atoms on special positions
#
###############################################################################

data_NOLVER
_chemical_formula_moiety         '(C16 H24 N4 O14 Pb2)n'
_symmetry_cell_setting           triclinic
_symmetry_space_group_name_H-M   'P 1'
_symmetry_Int_Tables_number      1
_space_group_name_Hall           'P 1'
loop_
_symmetry_equiv_pos_site_id
_symmetry_equiv_pos_as_xyz
1 x,y,z
_cell_length_a                   6.9587(3)
_cell_length_b                   10.0635(5)
_cell_length_c                   11.2625(5)
_cell_angle_alpha                79.014(4)
_cell_angle_beta                 84.469(4)
_cell_angle_gamma                88.510(4)
_cell_volume                     770.618
loop_
_atom_site_label
_atom_site_type_symbol
_atom_site_fract_x
_atom_site_fract_y
_atom_site_fract_z
_atom_site_U_iso_or_equiv
_atom_site_thermal_displace_type
O11 O 0.0320(4) 0.5061(3) 0.2337(2) 0.0348 Uani
C13 C 0.1527(5) 0.4233(4) 0.0586(3) 0.0328 Uani
H13 H 0.1472 0.3303 0.1021 0.0390 Uiso
H14 H 0.2822 0.4556 0.0609 0.0390 Uiso
C14 C 0.0147(5) 0.5056(4) 0.1256(3) 0.0228 Uani
Pb9 Pb 0.279469(16) 0.430627(12) 0.400008(10) 0.0204 Uani
O1 O 0.1688(4) 0.1832(3) 0.3187(2) 0.0380 Uani
O5 O 0.4477(4) 0.5544(3) 0.8122(2) 0.0327 Uani
O7 O 0.5508(3) 0.3759(3) 0.7349(2) 0.0282 Uani
N2 N 0.1223(4) 0.4239(3) 0.9324(2) 0.0227 Uani
H2 H 0.3122 0.0042 0.4789 0.0410 Uiso
C2 C 0.0851(5) 0.1003(3) 0.4019(3) 0.0259 Uani
C7 C 0.2621(5) 0.3496(4) 0.8657(3) 0.0273 Uani
H7 H 0.1980 0.3138 0.8059 0.0330 Uiso
H8 H 0.3109 0.2736 0.9216 0.0330 Uiso
C8 C 0.4315(5) 0.4362(4) 0.8014(3) 0.0240 Uani
Pb5 Pb 0.720531(16) 0.569373(12) 0.599992(10) 0.0204 Uani
O17 O 0.0879(3) 0.6439(3) 0.4677(2) 0.0292 Uani
C1 C 0.1933(6) 0.9762(4) 0.4527(4) 0.0338 Uani
H1 H 0.2288 0.9270 0.3876 0.0410 Uiso
O10 O 0.3551(3) 0.5702(2) 0.5493(2) 0.0247 Uani
N3 N 0.0961(4) 0.8835(3) 0.5533(3) 0.0256 Uani
C11 C 0.2100(5) 0.7673(4) 0.6062(3) 0.0270 Uani
H11 H 0.3407 0.7964 0.6100 0.0320 Uiso
H12 H 0.1555 0.7332 0.6886 0.0320 Uiso
C12 C 0.2164(4) 0.6541(3) 0.5346(3) 0.0200 Uani
O12 O 0.5523(4) 0.4456(3) 0.1878(2) 0.0327 Uani
O13 O 0.4492(3) 0.6241(3) 0.2651(2) 0.0282 Uani
N4 N 0.8777(4) 0.5761(3) 0.0676(2) 0.0227 Uani
C15 C 0.7379(5) 0.6504(4) 0.1343(3) 0.0273 Uani
H15 H 0.8020 0.6862 0.1941 0.0330 Uiso
H16 H 0.6891 0.7264 0.0784 0.0330 Uiso
C16 C 0.5685(5) 0.5638(4) 0.1986(3) 0.0240 Uani
O2 O 0.9121(3) 0.3561(3) 0.5323(2) 0.0292 Uani
O3 O 0.6449(3) 0.4298(2) 0.4507(2) 0.0247 Uani
O4 O 0.9680(4) 0.4939(3) 0.7663(2) 0.0348 Uani
O6 O 0.6279(5) 0.7844(3) 0.4086(3) 0.0484 Uani
N1 N 0.9039(4) 0.1165(3) 0.4467(3) 0.0256 Uani
C3 C 0.7900(5) 0.2327(4) 0.3938(3) 0.0270 Uani
H3 H 0.6593 0.2036 0.3900 0.0320 Uiso
H4 H 0.8445 0.2668 0.3114 0.0320 Uiso
C4 C 0.7836(4) 0.3459(3) 0.4654(3) 0.0200 Uani
C5 C 0.8473(5) 0.5767(4) 0.9414(3) 0.0328 Uani
H5 H 0.8528 0.6697 0.8979 0.0390 Uiso
H6 H 0.7178 0.5444 0.9391 0.0390 Uiso
C6 C 0.9853(5) 0.4944(4) 0.8744(3) 0.0228 Uani
C9 C 0.8067(6) 0.0238(4) 0.5473(4) 0.0338 Uani
H9 H 0.7712 0.0730 0.6124 0.0410 Uiso
O14 O 0.3721(5) 0.2156(3) 0.5914(3) 0.0484 Uani
O8 O 0.8312(4) 0.8168(3) 0.6813(2) 0.0380 Uani
H10 H 0.6878 0.9958 0.5211 0.0410 Uiso
C10 C 0.9149(5) 0.8997(3) 0.5981(3) 0.0259 Uani
loop_
_atom_site_aniso_label
_atom_site_aniso_U_11
_atom_site_aniso_U_22
_atom_site_aniso_U_33
_atom_site_aniso_U_23
_atom_site_aniso_U_13
_atom_site_aniso_U_12
O11 0.0404 0.0478 0.0176 -0.0075 -0.0084 0.0025
C13 0.0308 0.05 0.018 -0.0071 -0.0062 0.0128
C14 0.0222 0.0272 0.0179 -0.0007 -0.0024 -0.0031
Pb9 0.02134 0.01918 0.0213 -0.00545 -0.0016 0.00028
O1 0.0434 0.0245 0.0401 0.0026 0.0092 0.0004
O5 0.0332 0.0297 0.0354 -0.0079 0.0006 -0.0059
O7 0.0249 0.0282 0.0288 -0.0032 0.0059 0.0027
N2 0.0213 0.0286 0.0175 -0.0037 -0.0003 0.0015
C2 0.0278 0.0194 0.0315 -0.0094 0.0016 0.0002
C7 0.0233 0.0319 0.0257 -0.0066 0.0046 0.0016
C8 0.0214 0.0319 0.0174 -0.0003 -0.0047 0.0003
Pb5 0.02134 0.01918 0.0213 -0.00545 -0.0016 0.00028
O17 0.0265 0.0284 0.0354 -0.0096 -0.0102 0.0037
C1 0.0297 0.0254 0.041 0.0019 0.0061 0.0051
O10 0.022 0.0232 0.0309 -0.0094 -0.0056 0.0077
N3 0.0294 0.0168 0.0295 -0.004 0.0001 0.0044
C11 0.032 0.023 0.0271 -0.0064 -0.0078 0.009
C12 0.0207 0.0165 0.0208 -0.0011 0.0032 0.0011
O12 0.0332 0.0297 0.0354 -0.0079 0.0006 -0.0059
O13 0.0249 0.0282 0.0288 -0.0032 0.0059 0.0027
N4 0.0213 0.0286 0.0175 -0.0037 -0.0003 0.0015
C15 0.0233 0.0319 0.0257 -0.0066 0.0046 0.0016
C16 0.0214 0.0319 0.0174 -0.0003 -0.0047 0.0003
O2 0.0265 0.0284 0.0354 -0.0096 -0.0102 0.0037
O3 0.022 0.0232 0.0309 -0.0094 -0.0056 0.0077
O4 0.0404 0.0478 0.0176 -0.0075 -0.0084 0.0025
O6 0.0534 0.0534 0.0389 -0.0117 0.001 -0.008
N1 0.0294 0.0168 0.0295 -0.004 0.0001 0.0044
C3 0.032 0.023 0.0271 -0.0064 -0.0078 0.009
C4 0.0207 0.0165 0.0208 -0.0011 0.0032 0.0011
C5 0.0308 0.05 0.018 -0.0071 -0.0062 0.0128
C6 0.0222 0.0272 0.0179 -0.0007 -0.0024 -0.0031
C9 0.0297 0.0254 0.041 0.0019 0.0061 0.0051
O14 0.0534 0.0534 0.0389 -0.0117 0.001 -0.008
O8 0.0434 0.0245 0.0401 0.0026 0.0092 0.0004
C10 0.0278 0.0194 0.0315 -0.0094 0.0016 0.0002
loop_
_geom_bond_atom_site_label_1
_geom_bond_atom_site_label_2
_geom_bond_site_symmetry_1
_geom_bond_site_symmetry_2
O11 C14 1_555 1_555
H13 C13 1_555 1_555
H14 C13 1_555 1_555
Pb9 O11 1_555 1_555
C13 C14 1_555 1_555
O1 C2 1_555 1_555
O5 C8 1_555 1_555
O7 C8 1_555 1_555
C7 N2 1_555 1_555
H7 C7 1_555 1_555
H8 C7 1_555 1_555
C8 C7 1_555 1_555
Pb5 O5 1_555 1_555
O7 Pb5 1_555 1_555
Pb9 O17 1_555 1_555
C1 H1 1_555 1_555
O17 C12 1_555 1_555
O10 C12 1_555 1_555
N3 C1 1_555 1_555
C11 N3 1_555 1_555
H11 C11 1_555 1_555
H12 C11 1_555 1_555
C12 C11 1_555 1_555
Pb5 O10 1_555 1_555
O10 Pb9 1_555 1_555
O12 C16 1_555 1_555
O13 C16 1_555 1_555
C15 N4 1_555 1_555
H15 C15 1_555 1_555
H16 C15 1_555 1_555
C16 C15 1_555 1_555
Pb9 O12 1_555 1_555
O13 Pb9 1_555 1_555
Pb5 O2 1_555 1_555
O2 C4 1_555 1_555
O3 Pb5 1_555 1_555
O4 Pb5 1_555 1_555
O6 Pb5 1_555 1_555
C3 N1 1_555 1_555
H3 C3 1_555 1_555
H4 C3 1_555 1_555
C4 O3 1_555 1_555
C5 H5 1_555 1_555
H6 C5 1_555 1_555
C6 O4 1_555 1_555
C9 N1 1_555 1_555
H9 C9 1_555 1_555
Pb9 O3 1_555 1_555
O14 Pb9 1_555 1_555
C3 C4 1_555 1_555
C5 C6 1_555 1_555
O8 C10 1_555 1_555

#END
