
###############################################################################
#
# This file contains modified crystal structure data generated from the
# MOF subset of the Cambridge Structural Database (CSD) v543 
# hosted by the Cambridge Crystallographic Data Centre (CCDC).
#
# This work is licensed under the Creative Commons
# Attribution-NonCommercial-ShareAlike 4.0 International License.
# To view a copy of this license, visit
# http://creativecommons.org/licenses/by-nc-sa/4.0/
# or send a letter to
# Creative Commons, PO Box 1866, Mountain View, CA 94042, USA.
#
# CIF created using the CSD Python API on 29 September 2022
# The structure has been converted into the P1 space group
# The structure has a 3D framework
# The original CSD entry NOMQAJ01 is in the monoclinic crystal system
# The framework has been calculated to contain at least 10.0% void space
# The void calculation uses a probe of radius 1.32A, grid spacing 0.4
#
###############################################################################

data_NOMQAJ01
_chemical_formula_moiety         '(C80 H44 N4 O16 Zn4)n'
_symmetry_cell_setting           triclinic
_symmetry_space_group_name_H-M   'P 1'
_symmetry_Int_Tables_number      1
_space_group_name_Hall           'P 1'
loop_
_symmetry_equiv_pos_site_id
_symmetry_equiv_pos_as_xyz
1 x,y,z
_cell_length_a                   15.3645(11)
_cell_length_b                   15.1275(11)
_cell_length_c                   8.3110(6)
_cell_angle_alpha                90
_cell_angle_beta                 91.8500(10)
_cell_angle_gamma                90
_cell_volume                     1930.69
loop_
_atom_site_label
_atom_site_type_symbol
_atom_site_fract_x
_atom_site_fract_y
_atom_site_fract_z
C5 C 0.18564(13) 0.08643(14) 0.0696(3)
H3 H 0.1412 0.1180 0.1165
H8 H 0.0674 0.0358 0.2920
N1 N 0.25331(9) 0.13139(14) 0.01161(19)
Zn1 Zn 0.254101(15) 0.267278(17) 0.01296(4)
O5 O 0.16773(12) 0.34231(15) 0.1111(2)
O8 O 0.35350(13) 0.25955(13) 0.2178(3)
C1 C 0.31891(13) 0.08566(14) 0.9485(3)
H1 H 0.3654 0.1168 0.9075
H4 H 0.4317 0.0389 0.7149
O6 O 0.15221(13) 0.25741(13) 0.8051(3)
O7 O 0.34006(12) 0.34146(15) 0.9103(2)
C2 C 0.32046(13) 0.99369(14) 0.9418(3)
C3 C 0.24856(10) 0.94827(16) 0.9986(2)
H2 H 0.2469 0.8869 0.9939
C6 C 0.39708(13) 0.94669(14) 0.8789(3)
C7 C 0.44677(15) 0.98402(16) 0.7578(3)
C8 C 0.51850(14) 0.93901(17) 0.7021(3)
H5 H 0.5510 0.9641 0.6214
C9 C 0.54262(13) 0.85711(15) 0.7645(3)
C10 C 0.49321(15) 0.81980(16) 0.8849(3)
H6 H 0.5088 0.7651 0.9282
C11 C 0.42089(15) 0.86391(16) 0.9402(3)
C12 C 0.62220(14) 0.80932(16) 0.7091(3)
H11 H 0.1046 0.8467 0.9595
O3 O 0.65994(12) 0.84146(15) 0.5897(2)
O4 O 0.64650(13) 0.74045(13) 0.7822(3)
Zn3 Zn 0.745899(15) 0.767278(17) 0.48704(4)
Zn5 Zn 0.745899(15) 0.732722(17) 0.98704(4)
C15 C 0.97769(14) 0.93819(17) 0.2919(3)
H9 H 0.9455 0.9612 0.3750
C16 C 0.95166(14) 0.85921(15) 0.2191(3)
C17 C 0.99998(15) 0.82549(16) 0.0945(3)
H10 H 0.9831 0.7728 0.0450
C19 C 0.87129(14) 0.81102(16) 0.2704(3)
O1 O 0.83227(12) 0.84231(15) 0.3889(2)
O2 O 0.84779(13) 0.74259(13) 0.1949(3)
C15_2 C 0.02231(14) 0.43819(17) 0.2081(3)
H9_2 H 0.0545 0.4612 0.1250
C16_2 C 0.04834(14) 0.35921(15) 0.2809(3)
C17_2 C 0.00002(15) 0.32549(16) 0.4055(3)
H10_2 H 0.0169 0.2728 0.4550
C19_2 C 0.12871(14) 0.31102(16) 0.2296(3)
O2_2 O 0.15221(13) 0.24259(13) 0.3051(3)
Zn4 Zn 0.254101(15) 0.232722(17) 0.51296(4)
C1_2 C 0.68109(13) 0.58566(14) 0.5515(3)
H1_2 H 0.6346 0.6168 0.5925
C2_2 C 0.67954(13) 0.49369(14) 0.5582(3)
C3_2 C 0.75144(10) 0.44827(16) 0.5014(2)
H2_2 H 0.7531 0.3869 0.5061
C4 C 0.82080(13) 0.49466(13) 0.4376(3)
C5_2 C 0.81436(13) 0.58643(14) 0.4304(3)
H3_2 H 0.8588 0.6180 0.3835
C6_2 C 0.60292(13) 0.44669(14) 0.6211(3)
C7_2 C 0.55323(15) 0.48402(16) 0.7422(3)
H4_2 H 0.5683 0.5389 0.7851
C8_2 C 0.48150(14) 0.43901(17) 0.7979(3)
H5_2 H 0.4490 0.4641 0.8786
C9_2 C 0.45738(13) 0.35711(15) 0.7355(3)
C10_2 C 0.50679(15) 0.31980(16) 0.6151(3)
H6_2 H 0.4912 0.2651 0.5718
C11_2 C 0.57911(15) 0.36391(16) 0.5598(3)
H7 H 0.6122 0.3380 0.4807
C12_2 C 0.37780(14) 0.30932(16) 0.7909(3)
C13 C 0.90018(13) 0.44891(14) 0.3827(3)
C14 C 0.94913(15) 0.48305(16) 0.2577(3)
H8_2 H 0.9326 0.5358 0.2080
C17_3 C 1.00002(15) 0.32549(16) 0.4055(3)
C18 C 0.92691(14) 0.36973(16) 0.4566(3)
H11_2 H 0.8954 0.3467 0.5405
N1_2 N 0.74669(9) 0.63139(14) 0.48839(19)
O4_2 O 0.35350(13) 0.24045(13) 0.7178(3)
O6_2 O 0.84779(13) 0.75741(13) 0.6949(3)
O8_2 O 0.64650(13) 0.75955(13) 0.2822(3)
C15_3 C 0.02231(14) 0.06181(17) 0.7081(3)
H9_3 H 0.0545 0.0388 0.6250
C16_3 C 0.04834(14) 0.14079(15) 0.7809(3)
C17_4 C 0.00002(15) 0.17451(16) 0.9055(3)
H10_3 H 0.0169 0.2272 0.9550
C19_3 C 0.12871(14) 0.18898(16) 0.7296(3)
O1_2 O 0.16773(12) 0.15769(15) 0.6111(2)
C2_3 C 0.67954(13) 0.00631(14) 0.0582(3)
C3_3 C 0.75144(10) 0.05173(16) 0.0014(2)
H2_3 H 0.7531 0.1131 0.0061
C6_3 C 0.60292(13) 0.05331(14) 0.1211(3)
C7_3 C 0.55323(15) 0.01598(16) 0.2422(3)
C8_3 C 0.48150(14) 0.06099(17) 0.2979(3)
H5_3 H 0.4490 0.0359 0.3786
C9_3 C 0.45738(13) 0.14289(15) 0.2355(3)
C10_3 C 0.50679(15) 0.18020(16) 0.1151(3)
H6_3 H 0.4912 0.2349 0.0718
C11_3 C 0.57911(15) 0.13609(16) 0.0598(3)
C12_3 C 0.37780(14) 0.19068(16) 0.2909(3)
H11_3 H 0.8954 0.1533 0.0405
O3_2 O 0.34006(12) 0.15854(15) 0.4103(2)
C1_3 C 0.68109(13) 0.91434(14) 0.0515(3)
H1_3 H 0.6346 0.8832 0.0925
H4_3 H 0.5683 0.9611 0.2851
O7_2 O 0.65994(12) 0.65854(15) 0.0897(2)
C5_3 C 0.81436(13) 0.91357(14) 0.9304(3)
H3_3 H 0.8588 0.8820 0.8835
H8_3 H 0.9326 0.9642 0.7080
N1_3 N 0.74669(9) 0.86861(14) 0.98839(19)
O5_2 O 0.83227(12) 0.65769(15) 0.8889(2)
C1_4 C 0.31891(13) 0.41434(14) 0.4485(3)
H1_4 H 0.3654 0.3832 0.4075
C2_4 C 0.32046(13) 0.50631(14) 0.4418(3)
C3_4 C 0.24856(10) 0.55173(16) 0.4986(2)
H2_4 H 0.2469 0.6131 0.4939
C4_2 C 0.17920(13) 0.50534(13) 0.5624(3)
C5_4 C 0.18564(13) 0.41357(14) 0.5696(3)
H3_4 H 0.1412 0.3820 0.6165
C6_4 C 0.39708(13) 0.55331(14) 0.3789(3)
C7_4 C 0.44677(15) 0.51598(16) 0.2578(3)
H4_4 H 0.4317 0.4611 0.2149
C8_4 C 0.51850(14) 0.56099(17) 0.2021(3)
H5_4 H 0.5510 0.5359 0.1214
C9_4 C 0.54262(13) 0.64289(15) 0.2645(3)
C10_4 C 0.49321(15) 0.68020(16) 0.3849(3)
H6_4 H 0.5088 0.7349 0.4282
C11_4 C 0.42089(15) 0.63609(16) 0.4402(3)
H7_2 H 0.3878 0.6620 0.5193
C12_4 C 0.62220(14) 0.69068(16) 0.2091(3)
C13_2 C 0.09982(13) 0.55109(14) 0.6173(3)
C14_2 C 0.05087(15) 0.51695(16) 0.7423(3)
H8_4 H 0.0674 0.4642 0.7920
C17_5 C -0.00002(15) 0.67451(16) 0.5945(3)
C18_2 C 0.07309(14) 0.63027(16) 0.5434(3)
H11_4 H 0.1046 0.6533 0.4595
N1_4 N 0.25331(9) 0.36861(14) 0.51161(19)
C15_4 C 0.97769(14) 0.56181(17) 0.7919(3)
H9_4 H 0.9455 0.5388 0.8750
C16_4 C 0.95166(14) 0.64079(15) 0.7191(3)
C17_6 C 0.99998(15) 0.67451(16) 0.5945(3)
H10_4 H 0.9831 0.7272 0.5450
C19_4 C 0.87129(14) 0.68898(16) 0.7704(3)
C4_3 C 0.17920(13) 0.99466(13) 0.0624(3)
H7_3 H 0.3878 0.8380 0.0193
C13_3 C 0.09982(13) 0.94891(14) 0.1173(3)
C14_3 C 0.05087(15) 0.98305(16) 0.2423(3)
C17_7 C -0.00002(15) 0.82549(16) 0.0945(3)
C18_3 C 0.07309(14) 0.86973(16) 0.0434(3)
C4_4 C 0.82080(13) 0.00534(13) 0.9376(3)
H7_4 H 0.6122 0.1620 0.9807
C13_4 C 0.90018(13) 0.05109(14) 0.8827(3)
C14_4 C 0.94913(15) 0.01695(16) 0.7577(3)
C17_8 C 1.00002(15) 0.17451(16) 0.9055(3)
C18_4 C 0.92691(14) 0.13027(16) 0.9566(3)
loop_
_geom_bond_atom_site_label_1
_geom_bond_atom_site_label_2
_geom_bond_site_symmetry_1
_geom_bond_site_symmetry_2
H3 C5 1_555 1_555
Zn1 N1 1_555 1_555
O5 Zn1 1_555 1_555
O8 Zn1 1_555 1_555
C5 N1 1_555 1_555
C1 H1 1_555 1_555
C3 C2 1_555 1_555
H2 C3 1_555 1_555
C6 C2 1_555 1_555
C7 C6 1_555 1_555
C8 C7 1_555 1_555
H5 C8 1_555 1_555
C9 C8 1_555 1_555
C10 C9 1_555 1_555
H6 C10 1_555 1_555
C11 C6 1_555 1_555
C12 C9 1_555 1_555
O3 C12 1_555 1_555
O4 C12 1_555 1_555
Zn3 O3 1_555 1_555
Zn5 O4 1_555 1_555
C10 C11 1_555 1_555
H9 C15 1_555 1_555
C16 C15 1_555 1_555
C17 C16 1_555 1_555
H10 C17 1_555 1_555
C19 C16 1_555 1_555
O1 C19 1_555 1_555
O2 C19 1_555 1_555
Zn3 O1 1_555 1_555
H9_2 C15_2 1_555 1_555
C16_2 C15_2 1_555 1_555
C17_2 C16_2 1_555 1_555
H10_2 C17_2 1_555 1_555
C19_2 C16_2 1_555 1_555
O5 C19_2 1_555 1_555
O2_2 C19_2 1_555 1_555
Zn4 O2_2 1_555 1_555
C1_2 H1_2 1_555 1_555
C2_2 C1_2 1_555 1_555
C3_2 C2_2 1_555 1_555
H2_2 C3_2 1_555 1_555
C4 C3_2 1_555 1_555
C5_2 C4 1_555 1_555
H3_2 C5_2 1_555 1_555
C6_2 C2_2 1_555 1_555
C7_2 C6_2 1_555 1_555
H4_2 C7_2 1_555 1_555
C8_2 C7_2 1_555 1_555
H5_2 C8_2 1_555 1_555
C9_2 C8_2 1_555 1_555
C10_2 C9_2 1_555 1_555
H6_2 C10_2 1_555 1_555
C11_2 C6_2 1_555 1_555
H7 C11_2 1_555 1_555
C12_2 C9_2 1_555 1_555
C13 C4 1_555 1_555
C14 C13 1_555 1_555
H8_2 C14 1_555 1_555
C18 C13 1_555 1_555
H11_2 C18 1_555 1_555
N1_2 C1_2 1_555 1_555
O7 C12_2 1_555 1_555
O4_2 C12_2 1_555 1_555
Zn3 N1_2 1_555 1_555
O6_2 Zn3 1_555 1_555
O8_2 Zn3 1_555 1_555
Zn4 O4_2 1_555 1_555
C5_2 N1_2 1_555 1_555
C10_2 C11_2 1_555 1_555
C17_3 C18 1_555 1_555
H9_3 C15_3 1_555 1_555
C16_3 C15_3 1_555 1_555
C17_4 C16_3 1_555 1_555
H10_3 C17_4 1_555 1_555
C19_3 C16_3 1_555 1_555
O1_2 C19_3 1_555 1_555
O6 C19_3 1_555 1_555
Zn4 O1_2 1_555 1_555
C3_3 C2_3 1_555 1_555
H2_3 C3_3 1_555 1_555
C6_3 C2_3 1_555 1_555
C7_3 C6_3 1_555 1_555
C8_3 C7_3 1_555 1_555
H5_3 C8_3 1_555 1_555
C9_3 C8_3 1_555 1_555
C10_3 C9_3 1_555 1_555
H6_3 C10_3 1_555 1_555
C11_3 C6_3 1_555 1_555
C12_3 C9_3 1_555 1_555
O3_2 C12_3 1_555 1_555
O8 C12_3 1_555 1_555
Zn4 O3_2 1_555 1_555
C10_3 C11_3 1_555 1_555
C1_3 H1_3 1_555 1_555
H3_3 C5_3 1_555 1_555
Zn5 N1_3 1_555 1_555
O5_2 Zn5 1_555 1_555
C5_3 N1_3 1_555 1_555
C1_4 H1_4 1_555 1_555
C2_4 C1_4 1_555 1_555
C3_4 C2_4 1_555 1_555
H2_4 C3_4 1_555 1_555
C4_2 C3_4 1_555 1_555
C5_4 C4_2 1_555 1_555
H3_4 C5_4 1_555 1_555
C6_4 C2_4 1_555 1_555
C7_4 C6_4 1_555 1_555
H4_4 C7_4 1_555 1_555
C8_4 C7_4 1_555 1_555
H5_4 C8_4 1_555 1_555
C9_4 C8_4 1_555 1_555
C10_4 C9_4 1_555 1_555
H6_4 C10_4 1_555 1_555
C11_4 C6_4 1_555 1_555
H7_2 C11_4 1_555 1_555
C12_4 C9_4 1_555 1_555
C13_2 C4_2 1_555 1_555
C14_2 C13_2 1_555 1_555
H8_4 C14_2 1_555 1_555
C18_2 C13_2 1_555 1_555
H11_4 C18_2 1_555 1_555
N1_4 C1_4 1_555 1_555
O7_2 C12_4 1_555 1_555
O8_2 C12_4 1_555 1_555
Zn4 N1_4 1_555 1_555
C5_4 N1_4 1_555 1_555
C10_4 C11_4 1_555 1_555
C17_5 C18_2 1_555 1_555
H9_4 C15_4 1_555 1_555
C16_4 C15_4 1_555 1_555
C17_6 C16_4 1_555 1_555
H10_4 C17_6 1_555 1_555
C19_4 C16_4 1_555 1_555
O5_2 C19_4 1_555 1_555
O6_2 C19_4 1_555 1_555
C13_3 C4_3 1_555 1_555
C14_3 C13_3 1_555 1_555
C18_3 C13_3 1_555 1_555
C17_7 C18_3 1_555 1_555
C13_4 C4_4 1_555 1_555
C14_4 C13_4 1_555 1_555
C18_4 C13_4 1_555 1_555
C17_8 C18_4 1_555 1_555

#END
