
###############################################################################
#
# This file contains modified crystal structure data generated from the
# MOF subset of the Cambridge Structural Database (CSD) v543 
# hosted by the Cambridge Crystallographic Data Centre (CCDC).
#
# This work is licensed under the Creative Commons
# Attribution-NonCommercial-ShareAlike 4.0 International License.
# To view a copy of this license, visit
# http://creativecommons.org/licenses/by-nc-sa/4.0/
# or send a letter to
# Creative Commons, PO Box 1866, Mountain View, CA 94042, USA.
#
# CIF created using the CSD Python API on 29 September 2022
# The structure has been converted into the P1 space group
# The structure has a 3D framework
# The original CSD entry NOMQIS is in the cubic crystal system
# The framework has been calculated to contain at least 10.0% void space
# The void calculation uses a probe of radius 1.32A, grid spacing 0.4
#
###############################################################################

data_NOMQIS
_chemical_formula_moiety         '(C384 H384 Cu96 Li32 N192 O304 3+)n'
_symmetry_cell_setting           triclinic
_symmetry_space_group_name_H-M   'P 1'
_symmetry_Int_Tables_number      1
_space_group_name_Hall           'P 1'
loop_
_symmetry_equiv_pos_site_id
_symmetry_equiv_pos_as_xyz
1 x,y,z
_cell_length_a                   30.38850(10)
_cell_length_b                   30.38850(10)
_cell_length_c                   30.38850(10)
_cell_angle_alpha                90
_cell_angle_beta                 90
_cell_angle_gamma                90
_cell_volume                     28062.6
loop_
_atom_site_label
_atom_site_type_symbol
_atom_site_fract_x
_atom_site_fract_y
_atom_site_fract_z
Cu1 Cu 0.57293(3) 0.16308(3) 0.38641(3)
O1 O 0.52425(18) 0.20545(16) 0.39443(17)
O2 O 0.56196(19) 0.2464(2) 0.3462(2)
O3 O 0.62493(19) 0.12493(19) 0.37507(19)
N1 N 0.4356(2) 0.3124(2) 0.3960(2)
N2 N 0.45478(19) 0.3337(2) 0.3612(2)
C1 C 0.4605(2) 0.2759(2) 0.4039(3)
H1 H 0.455080 0.255087 0.425673
C2 C 0.4907(2) 0.3109(3) 0.3483(3)
H2 H 0.509253 0.318716 0.325265
C3 C 0.4954(2) 0.2748(3) 0.3744(3)
C4 C 0.5295(2) 0.2402(2) 0.3716(2)
O4 O 0.5350(6) 0.1098(6) 0.4336(5)
H3 H 0.526677 0.085167 0.423199
H4 H 0.516577 0.118677 0.452619
Cu2 Cu 0.42707(3) 0.38641(3) 0.33692(3)
O5 O 0.47575(18) 0.39443(17) 0.29455(16)
O6 O 0.43804(19) 0.3462(2) 0.2536(2)
N3 N 0.5644(2) 0.3960(2) 0.1876(2)
N4 N 0.54522(19) 0.3612(2) 0.1663(2)
C5 C 0.5395(2) 0.4039(3) 0.2241(2)
H5 H 0.544920 0.425673 0.244913
C6 C 0.5093(2) 0.3483(3) 0.1891(3)
H6 H 0.490747 0.325265 0.181284
C7 C 0.5046(2) 0.3744(3) 0.2252(3)
C8 C 0.4705(2) 0.3716(2) 0.2598(2)
O7 O 0.4650(6) 0.4336(5) 0.3902(6)
H7 H 0.473323 0.423199 0.414833
H8 H 0.483423 0.452619 0.381323
Cu3 Cu 0.42707(3) 0.11359(3) 0.16308(3)
O8 O 0.47575(18) 0.10557(17) 0.20545(16)
O9 O 0.43804(19) 0.1538(2) 0.2464(2)
N5 N 0.5644(2) 0.1040(2) 0.3124(2)
N6 N 0.54522(19) 0.1388(2) 0.3337(2)
C9 C 0.5395(2) 0.0961(3) 0.2759(2)
H9 H 0.544920 0.074327 0.255087
C10 C 0.5093(2) 0.1517(3) 0.3109(3)
H10 H 0.490747 0.174735 0.318716
C11 C 0.5046(2) 0.1256(3) 0.2748(3)
C12 C 0.4705(2) 0.1284(2) 0.2402(2)
O10 O 0.4650(6) 0.0664(5) 0.1098(6)
H11 H 0.473323 0.076801 0.085167
H12 H 0.483423 0.047381 0.118677
Cu4 Cu 0.61359(3) 0.42707(3) 0.16308(3)
Cu5 Cu 0.57293(3) 0.33692(3) 0.11359(3)
Cu6 Cu 0.61359(3) 0.07293(3) 0.33692(3)
Cu7 Cu 0.66308(3) 0.11359(3) 0.42707(3)
Cu8 Cu 0.38641(3) 0.33692(3) 0.42707(3)
O11 O 0.37507(19) 0.37507(19) 0.37507(19)
O12 O 0.37507(19) 0.12493(19) 0.12493(19)
N7 N 0.3960(2) 0.4356(2) 0.3124(2)
N8 N 0.3960(2) 0.0644(2) 0.1876(2)
N9 N 0.6040(2) 0.1876(2) 0.4356(2)
N10 N 0.45478(19) 0.1663(2) 0.1388(2)
Cu1_2 Cu 0.16308(3) 0.42707(3) 0.11359(3)
O1_2 O 0.20545(16) 0.47575(18) 0.10557(17)
O2_2 O 0.2464(2) 0.43804(19) 0.1538(2)
O3_2 O 0.12493(19) 0.37507(19) 0.12493(19)
N1_2 N 0.3124(2) 0.5644(2) 0.1040(2)
N2_2 N 0.3337(2) 0.54522(19) 0.1388(2)
C1_2 C 0.2759(2) 0.5395(2) 0.0961(3)
H1_2 H 0.255087 0.544920 0.074327
C2_2 C 0.3109(3) 0.5093(2) 0.1517(3)
H2_2 H 0.318716 0.490747 0.174735
C3_2 C 0.2748(3) 0.5046(2) 0.1256(3)
C4_2 C 0.2402(2) 0.4705(2) 0.1284(2)
O4_2 O 0.1098(6) 0.4650(6) 0.0664(5)
H3_2 H 0.085167 0.473323 0.076801
H4_2 H 0.118677 0.483423 0.047381
Cu2_2 Cu 0.38641(3) 0.57293(3) 0.16308(3)
O5_2 O 0.39443(17) 0.52425(18) 0.20545(16)
O6_2 O 0.3462(2) 0.56196(19) 0.2464(2)
N4_2 N 0.3612(2) 0.45478(19) 0.3337(2)
C5_2 C 0.4039(3) 0.4605(2) 0.2759(2)
H5_2 H 0.425673 0.455080 0.255087
C6_2 C 0.3483(3) 0.4907(2) 0.3109(3)
H6_2 H 0.325265 0.509253 0.318716
C7_2 C 0.3744(3) 0.4954(2) 0.2748(3)
C8_2 C 0.3716(2) 0.5295(2) 0.2402(2)
O7_2 O 0.4336(5) 0.5350(6) 0.1098(6)
H7_2 H 0.423199 0.526677 0.085167
H8_2 H 0.452619 0.516577 0.118677
Cu3_2 Cu 0.11359(3) 0.57293(3) 0.33692(3)
O8_2 O 0.10557(17) 0.52425(18) 0.29455(16)
O9_2 O 0.1538(2) 0.56196(19) 0.2536(2)
N5_2 N 0.1040(2) 0.4356(2) 0.1876(2)
N6_2 N 0.1388(2) 0.45478(19) 0.1663(2)
C9_2 C 0.0961(3) 0.4605(2) 0.2241(2)
H9_2 H 0.074327 0.455080 0.244913
C10_2 C 0.1517(3) 0.4907(2) 0.1891(3)
H10_2 H 0.174735 0.509253 0.181284
C11_2 C 0.1256(3) 0.4954(2) 0.2252(3)
C12_2 C 0.1284(2) 0.5295(2) 0.2598(2)
O10_2 O 0.0664(5) 0.5350(6) 0.3902(6)
H11_2 H 0.076801 0.526677 0.414833
H12_2 H 0.047381 0.516577 0.381323
Cu5_2 Cu 0.33692(3) 0.42707(3) 0.38641(3)
Cu6_2 Cu 0.07293(3) 0.38641(3) 0.16308(3)
Cu7_2 Cu 0.11359(3) 0.33692(3) 0.07293(3)
Cu8_2 Cu 0.33692(3) 0.61359(3) 0.07293(3)
O11_2 O 0.37507(19) 0.62493(19) 0.12493(19)
O12_2 O 0.12493(19) 0.62493(19) 0.37507(19)
N7_2 N 0.4356(2) 0.6040(2) 0.1876(2)
N8_2 N 0.0644(2) 0.6040(2) 0.3124(2)
N9_2 N 0.1876(2) 0.3960(2) 0.0644(2)
N10_2 N 0.1663(2) 0.54522(19) 0.3612(2)
Cu1_3 Cu 0.42707(3) 0.83692(3) 0.38641(3)
O1_3 O 0.47575(18) 0.79455(16) 0.39443(17)
O2_3 O 0.43804(19) 0.7536(2) 0.3462(2)
O3_3 O 0.37507(19) 0.87507(19) 0.37507(19)
N1_3 N 0.5644(2) 0.6876(2) 0.3960(2)
N2_3 N 0.54522(19) 0.6663(2) 0.3612(2)
C1_3 C 0.5395(2) 0.7241(2) 0.4039(3)
H1_3 H 0.544920 0.744913 0.425673
C2_3 C 0.5093(2) 0.6891(3) 0.3483(3)
H2_3 H 0.490747 0.681284 0.325265
C3_3 C 0.5046(2) 0.7252(3) 0.3744(3)
C4_3 C 0.4705(2) 0.7598(2) 0.3716(2)
O4_3 O 0.4650(6) 0.8902(6) 0.4336(5)
H3_3 H 0.473323 0.914833 0.423199
H4_3 H 0.483423 0.881323 0.452619
Cu2_3 Cu 0.57293(3) 0.61359(3) 0.33692(3)
O5_3 O 0.52425(18) 0.60557(17) 0.29455(16)
O6_3 O 0.56196(19) 0.6538(2) 0.2536(2)
N4_3 N 0.45478(19) 0.6388(2) 0.1663(2)
C5_3 C 0.4605(2) 0.5961(3) 0.2241(2)
H5_3 H 0.455080 0.574327 0.244913
C6_3 C 0.4907(2) 0.6517(3) 0.1891(3)
H6_3 H 0.509253 0.674735 0.181284
C7_3 C 0.4954(2) 0.6256(3) 0.2252(3)
C8_3 C 0.5295(2) 0.6284(2) 0.2598(2)
O7_3 O 0.5350(6) 0.5664(5) 0.3902(6)
H7_3 H 0.526677 0.576801 0.414833
H8_3 H 0.516577 0.547381 0.381323
Cu3_3 Cu 0.57293(3) 0.88641(3) 0.16308(3)
O8_3 O 0.52425(18) 0.89443(17) 0.20545(16)
O9_3 O 0.56196(19) 0.8462(2) 0.2464(2)
N5_3 N 0.4356(2) 0.8960(2) 0.3124(2)
N6_3 N 0.45478(19) 0.8612(2) 0.3337(2)
C9_3 C 0.4605(2) 0.9039(3) 0.2759(2)
H9_3 H 0.455080 0.925673 0.255087
C10_3 C 0.4907(2) 0.8483(3) 0.3109(3)
H10_3 H 0.509253 0.825265 0.318716
C11_3 C 0.4954(2) 0.8744(3) 0.2748(3)
C12_3 C 0.5295(2) 0.8716(2) 0.2402(2)
O10_3 O 0.5350(6) 0.9336(5) 0.1098(6)
H11_3 H 0.526677 0.923199 0.085167
H12_3 H 0.516577 0.952619 0.118677
Cu5_3 Cu 0.42707(3) 0.66308(3) 0.11359(3)
Cu6_3 Cu 0.38641(3) 0.92707(3) 0.33692(3)
Cu7_3 Cu 0.33692(3) 0.88641(3) 0.42707(3)
Cu8_3 Cu 0.61359(3) 0.66308(3) 0.42707(3)
O11_3 O 0.62493(19) 0.62493(19) 0.37507(19)
O12_3 O 0.62493(19) 0.87507(19) 0.12493(19)
N7_3 N 0.6040(2) 0.5644(2) 0.3124(2)
N8_3 N 0.6040(2) 0.9356(2) 0.1876(2)
N9_3 N 0.3960(2) 0.8124(2) 0.4356(2)
N10_3 N 0.54522(19) 0.8337(2) 0.1388(2)
Cu1_4 Cu 0.83692(3) 0.57293(3) 0.11359(3)
O1_4 O 0.79455(16) 0.52425(18) 0.10557(17)
O2_4 O 0.7536(2) 0.56196(19) 0.1538(2)
O3_4 O 0.87507(19) 0.62493(19) 0.12493(19)
N1_4 N 0.6876(2) 0.4356(2) 0.1040(2)
N2_4 N 0.6663(2) 0.45478(19) 0.1388(2)
C1_4 C 0.7241(2) 0.4605(2) 0.0961(3)
H1_4 H 0.744913 0.455080 0.074327
C2_4 C 0.6891(3) 0.4907(2) 0.1517(3)
H2_4 H 0.681284 0.509253 0.174735
C3_4 C 0.7252(3) 0.4954(2) 0.1256(3)
C4_4 C 0.7598(2) 0.5295(2) 0.1284(2)
O4_4 O 0.8902(6) 0.5350(6) 0.0664(5)
H3_4 H 0.914833 0.526677 0.076801
H4_4 H 0.881323 0.516577 0.047381
O5_4 O 0.60557(17) 0.47575(18) 0.20545(16)
O6_4 O 0.6538(2) 0.43804(19) 0.2464(2)
N4_4 N 0.6388(2) 0.54522(19) 0.3337(2)
C5_4 C 0.5961(3) 0.5395(2) 0.2759(2)
H5_4 H 0.574327 0.544920 0.255087
C6_4 C 0.6517(3) 0.5093(2) 0.3109(3)
H6_4 H 0.674735 0.490747 0.318716
C7_4 C 0.6256(3) 0.5046(2) 0.2748(3)
C8_4 C 0.6284(2) 0.4705(2) 0.2402(2)
O7_4 O 0.5664(5) 0.4650(6) 0.1098(6)
H7_4 H 0.576801 0.473323 0.085167
H8_4 H 0.547381 0.483423 0.118677
Cu3_4 Cu 0.88641(3) 0.42707(3) 0.33692(3)
O8_4 O 0.89443(17) 0.47575(18) 0.29455(16)
O9_4 O 0.8462(2) 0.43804(19) 0.2536(2)
N5_4 N 0.8960(2) 0.5644(2) 0.1876(2)
N6_4 N 0.8612(2) 0.54522(19) 0.1663(2)
C9_4 C 0.9039(3) 0.5395(2) 0.2241(2)
H9_4 H 0.925673 0.544920 0.244913
C10_4 C 0.8483(3) 0.5093(2) 0.1891(3)
H10_4 H 0.825265 0.490747 0.181284
C11_4 C 0.8744(3) 0.5046(2) 0.2252(3)
C12_4 C 0.8716(2) 0.4705(2) 0.2598(2)
O10_4 O 0.9336(5) 0.4650(6) 0.3902(6)
H11_4 H 0.923199 0.473323 0.414833
H12_4 H 0.952619 0.483423 0.381323
Cu5_4 Cu 0.66308(3) 0.57293(3) 0.38641(3)
Cu6_4 Cu 0.92707(3) 0.61359(3) 0.16308(3)
Cu7_4 Cu 0.88641(3) 0.66308(3) 0.07293(3)
Cu8_4 Cu 0.66308(3) 0.38641(3) 0.07293(3)
O11_4 O 0.62493(19) 0.37507(19) 0.12493(19)
O12_4 O 0.87507(19) 0.37507(19) 0.37507(19)
N8_4 N 0.9356(2) 0.3960(2) 0.3124(2)
N9_4 N 0.8124(2) 0.6040(2) 0.0644(2)
N10_4 N 0.8337(2) 0.45478(19) 0.3612(2)
Cu1_5 Cu 0.57293(3) 0.83692(3) 0.61359(3)
O1_5 O 0.52425(18) 0.79455(16) 0.60557(17)
O2_5 O 0.56196(19) 0.7536(2) 0.6538(2)
O3_5 O 0.62493(19) 0.87507(19) 0.62493(19)
N1_5 N 0.4356(2) 0.6876(2) 0.6040(2)
N2_5 N 0.45478(19) 0.6663(2) 0.6388(2)
C1_5 C 0.4605(2) 0.7241(2) 0.5961(3)
H1_5 H 0.455080 0.744913 0.574327
C2_5 C 0.4907(2) 0.6891(3) 0.6517(3)
H2_5 H 0.509253 0.681284 0.674735
C3_5 C 0.4954(2) 0.7252(3) 0.6256(3)
C4_5 C 0.5295(2) 0.7598(2) 0.6284(2)
O4_5 O 0.5350(6) 0.8902(6) 0.5664(5)
H3_5 H 0.526677 0.914833 0.576801
H4_5 H 0.516577 0.881323 0.547381
Cu2_4 Cu 0.42707(3) 0.61359(3) 0.66308(3)
O5_5 O 0.47575(18) 0.60557(17) 0.70545(16)
O6_5 O 0.43804(19) 0.6538(2) 0.7464(2)
N3_2 N 0.5644(2) 0.6040(2) 0.8124(2)
N4_5 N 0.54522(19) 0.6388(2) 0.8337(2)
C5_5 C 0.5395(2) 0.5961(3) 0.7759(2)
H5_5 H 0.544920 0.574327 0.755087
C6_5 C 0.5093(2) 0.6517(3) 0.8109(3)
H6_5 H 0.490747 0.674735 0.818716
C7_5 C 0.5046(2) 0.6256(3) 0.7748(3)
C8_5 C 0.4705(2) 0.6284(2) 0.7402(2)
O7_5 O 0.4650(6) 0.5664(5) 0.6098(6)
H7_5 H 0.473323 0.576801 0.585167
H8_5 H 0.483423 0.547381 0.618677
Cu3_5 Cu 0.42707(3) 0.88641(3) 0.83692(3)
O8_5 O 0.47575(18) 0.89443(17) 0.79455(16)
O9_5 O 0.43804(19) 0.8462(2) 0.7536(2)
N5_5 N 0.5644(2) 0.8960(2) 0.6876(2)
N6_5 N 0.54522(19) 0.8612(2) 0.6663(2)
C9_5 C 0.5395(2) 0.9039(3) 0.7241(2)
H9_5 H 0.544920 0.925673 0.744913
C10_5 C 0.5093(2) 0.8483(3) 0.6891(3)
H10_5 H 0.490747 0.825265 0.681284
C11_5 C 0.5046(2) 0.8744(3) 0.7252(3)
C12_5 C 0.4705(2) 0.8716(2) 0.7598(2)
O10_5 O 0.4650(6) 0.9336(5) 0.8902(6)
H11_5 H 0.473323 0.923199 0.914833
H12_5 H 0.483423 0.952619 0.881323
Cu4_2 Cu 0.61359(3) 0.57293(3) 0.83692(3)
Cu5_5 Cu 0.57293(3) 0.66308(3) 0.88641(3)
Cu6_5 Cu 0.61359(3) 0.92707(3) 0.66308(3)
Cu7_5 Cu 0.66308(3) 0.88641(3) 0.57293(3)
Cu8_5 Cu 0.38641(3) 0.66308(3) 0.57293(3)
O11_5 O 0.37507(19) 0.62493(19) 0.62493(19)
O12_5 O 0.37507(19) 0.87507(19) 0.87507(19)
N7_4 N 0.3960(2) 0.5644(2) 0.6876(2)
N8_5 N 0.3960(2) 0.9356(2) 0.8124(2)
N9_5 N 0.6040(2) 0.8124(2) 0.5644(2)
N10_5 N 0.45478(19) 0.8337(2) 0.8612(2)
Cu1_6 Cu 0.83692(3) 0.42707(3) 0.88641(3)
O1_6 O 0.79455(16) 0.47575(18) 0.89443(17)
O2_6 O 0.7536(2) 0.43804(19) 0.8462(2)
O3_6 O 0.87507(19) 0.37507(19) 0.87507(19)
N1_6 N 0.6876(2) 0.5644(2) 0.8960(2)
N2_6 N 0.6663(2) 0.54522(19) 0.8612(2)
C1_6 C 0.7241(2) 0.5395(2) 0.9039(3)
H1_6 H 0.744913 0.544920 0.925673
C2_6 C 0.6891(3) 0.5093(2) 0.8483(3)
H2_6 H 0.681284 0.490747 0.825265
C3_6 C 0.7252(3) 0.5046(2) 0.8744(3)
C4_6 C 0.7598(2) 0.4705(2) 0.8716(2)
O4_6 O 0.8902(6) 0.4650(6) 0.9336(5)
H3_6 H 0.914833 0.473323 0.923199
H4_6 H 0.881323 0.483423 0.952619
O5_6 O 0.60557(17) 0.52425(18) 0.79455(16)
O6_6 O 0.6538(2) 0.56196(19) 0.7536(2)
N3_3 N 0.6040(2) 0.4356(2) 0.6876(2)
N4_6 N 0.6388(2) 0.45478(19) 0.6663(2)
C5_6 C 0.5961(3) 0.4605(2) 0.7241(2)
H5_6 H 0.574327 0.455080 0.744913
C6_6 C 0.6517(3) 0.4907(2) 0.6891(3)
H6_6 H 0.674735 0.509253 0.681284
C7_6 C 0.6256(3) 0.4954(2) 0.7252(3)
C8_6 C 0.6284(2) 0.5295(2) 0.7598(2)
O7_6 O 0.5664(5) 0.5350(6) 0.8902(6)
H7_6 H 0.576801 0.526677 0.914833
H8_6 H 0.547381 0.516577 0.881323
Cu3_6 Cu 0.88641(3) 0.57293(3) 0.66308(3)
O8_6 O 0.89443(17) 0.52425(18) 0.70545(16)
O9_6 O 0.8462(2) 0.56196(19) 0.7464(2)
N5_6 N 0.8960(2) 0.4356(2) 0.8124(2)
N6_6 N 0.8612(2) 0.45478(19) 0.8337(2)
C9_6 C 0.9039(3) 0.4605(2) 0.7759(2)
H9_6 H 0.925673 0.455080 0.755087
C10_6 C 0.8483(3) 0.4907(2) 0.8109(3)
H10_6 H 0.825265 0.509253 0.818716
C11_6 C 0.8744(3) 0.4954(2) 0.7748(3)
C12_6 C 0.8716(2) 0.5295(2) 0.7402(2)
O10_6 O 0.9336(5) 0.5350(6) 0.6098(6)
H11_6 H 0.923199 0.526677 0.585167
H12_6 H 0.952619 0.516577 0.618677
Cu4_3 Cu 0.57293(3) 0.38641(3) 0.66308(3)
Cu5_6 Cu 0.66308(3) 0.42707(3) 0.61359(3)
Cu6_6 Cu 0.92707(3) 0.38641(3) 0.83692(3)
Cu7_6 Cu 0.88641(3) 0.33692(3) 0.92707(3)
Cu8_6 Cu 0.66308(3) 0.61359(3) 0.92707(3)
O11_6 O 0.62493(19) 0.62493(19) 0.87507(19)
O12_6 O 0.87507(19) 0.62493(19) 0.62493(19)
N8_6 N 0.9356(2) 0.6040(2) 0.6876(2)
N9_6 N 0.8124(2) 0.3960(2) 0.9356(2)
N10_6 N 0.8337(2) 0.54522(19) 0.6388(2)
Cu1_7 Cu 0.42707(3) 0.16308(3) 0.61359(3)
O1_7 O 0.47575(18) 0.20545(16) 0.60557(17)
O2_7 O 0.43804(19) 0.2464(2) 0.6538(2)
O3_7 O 0.37507(19) 0.12493(19) 0.62493(19)
N1_7 N 0.5644(2) 0.3124(2) 0.6040(2)
N2_7 N 0.54522(19) 0.3337(2) 0.6388(2)
C1_7 C 0.5395(2) 0.2759(2) 0.5961(3)
H1_7 H 0.544920 0.255087 0.574327
C2_7 C 0.5093(2) 0.3109(3) 0.6517(3)
H2_7 H 0.490747 0.318716 0.674735
C3_7 C 0.5046(2) 0.2748(3) 0.6256(3)
C4_7 C 0.4705(2) 0.2402(2) 0.6284(2)
O4_7 O 0.4650(6) 0.1098(6) 0.5664(5)
H3_7 H 0.473323 0.085167 0.576801
H4_7 H 0.483423 0.118677 0.547381
O5_7 O 0.52425(18) 0.39443(17) 0.70545(16)
O6_7 O 0.56196(19) 0.3462(2) 0.7464(2)
N3_4 N 0.4356(2) 0.3960(2) 0.8124(2)
N4_7 N 0.45478(19) 0.3612(2) 0.8337(2)
C5_7 C 0.4605(2) 0.4039(3) 0.7759(2)
H5_7 H 0.455080 0.425673 0.755087
C6_7 C 0.4907(2) 0.3483(3) 0.8109(3)
H6_7 H 0.509253 0.325265 0.818716
C7_7 C 0.4954(2) 0.3744(3) 0.7748(3)
C8_7 C 0.5295(2) 0.3716(2) 0.7402(2)
O7_7 O 0.5350(6) 0.4336(5) 0.6098(6)
H7_7 H 0.526677 0.423199 0.585167
H8_7 H 0.516577 0.452619 0.618677
Cu3_7 Cu 0.57293(3) 0.11359(3) 0.83692(3)
O8_7 O 0.52425(18) 0.10557(17) 0.79455(16)
O9_7 O 0.56196(19) 0.1538(2) 0.7536(2)
N5_7 N 0.4356(2) 0.1040(2) 0.6876(2)
N6_7 N 0.45478(19) 0.1388(2) 0.6663(2)
C9_7 C 0.4605(2) 0.0961(3) 0.7241(2)
H9_7 H 0.455080 0.074327 0.744913
C10_7 C 0.4907(2) 0.1517(3) 0.6891(3)
H10_7 H 0.509253 0.174735 0.681284
C11_7 C 0.4954(2) 0.1256(3) 0.7252(3)
C12_7 C 0.5295(2) 0.1284(2) 0.7598(2)
O10_7 O 0.5350(6) 0.0664(5) 0.8902(6)
H11_7 H 0.526677 0.076801 0.914833
H12_7 H 0.516577 0.047381 0.881323
Cu4_4 Cu 0.38641(3) 0.42707(3) 0.83692(3)
Cu5_7 Cu 0.42707(3) 0.33692(3) 0.88641(3)
Cu6_7 Cu 0.38641(3) 0.07293(3) 0.66308(3)
Cu7_7 Cu 0.33692(3) 0.11359(3) 0.57293(3)
Cu8_7 Cu 0.61359(3) 0.33692(3) 0.57293(3)
O11_7 O 0.62493(19) 0.37507(19) 0.62493(19)
O12_7 O 0.62493(19) 0.12493(19) 0.87507(19)
N8_7 N 0.6040(2) 0.0644(2) 0.8124(2)
N9_7 N 0.3960(2) 0.1876(2) 0.5644(2)
N10_7 N 0.54522(19) 0.1663(2) 0.8612(2)
Cu1_8 Cu 0.16308(3) 0.57293(3) 0.88641(3)
O1_8 O 0.20545(16) 0.52425(18) 0.89443(17)
O2_8 O 0.2464(2) 0.56196(19) 0.8462(2)
O3_8 O 0.12493(19) 0.62493(19) 0.87507(19)
N1_8 N 0.3124(2) 0.4356(2) 0.8960(2)
N2_8 N 0.3337(2) 0.45478(19) 0.8612(2)
C1_8 C 0.2759(2) 0.4605(2) 0.9039(3)
H1_8 H 0.255087 0.455080 0.925673
C2_8 C 0.3109(3) 0.4907(2) 0.8483(3)
H2_8 H 0.318716 0.509253 0.825265
C3_8 C 0.2748(3) 0.4954(2) 0.8744(3)
C4_8 C 0.2402(2) 0.5295(2) 0.8716(2)
O4_8 O 0.1098(6) 0.5350(6) 0.9336(5)
H3_8 H 0.085167 0.526677 0.923199
H4_8 H 0.118677 0.516577 0.952619
O5_8 O 0.39443(17) 0.47575(18) 0.79455(16)
O6_8 O 0.3462(2) 0.43804(19) 0.7536(2)
N4_8 N 0.3612(2) 0.54522(19) 0.6663(2)
C5_8 C 0.4039(3) 0.5395(2) 0.7241(2)
H5_8 H 0.425673 0.544920 0.744913
C6_8 C 0.3483(3) 0.5093(2) 0.6891(3)
H6_8 H 0.325265 0.490747 0.681284
C7_8 C 0.3744(3) 0.5046(2) 0.7252(3)
C8_8 C 0.3716(2) 0.4705(2) 0.7598(2)
O7_8 O 0.4336(5) 0.4650(6) 0.8902(6)
H7_8 H 0.423199 0.473323 0.914833
H8_8 H 0.452619 0.483423 0.881323
Cu3_8 Cu 0.11359(3) 0.42707(3) 0.66308(3)
O8_8 O 0.10557(17) 0.47575(18) 0.70545(16)
O9_8 O 0.1538(2) 0.43804(19) 0.7464(2)
N5_8 N 0.1040(2) 0.5644(2) 0.8124(2)
N6_8 N 0.1388(2) 0.54522(19) 0.8337(2)
C9_8 C 0.0961(3) 0.5395(2) 0.7759(2)
H9_8 H 0.074327 0.544920 0.755087
C10_8 C 0.1517(3) 0.5093(2) 0.8109(3)
H10_8 H 0.174735 0.490747 0.818716
C11_8 C 0.1256(3) 0.5046(2) 0.7748(3)
C12_8 C 0.1284(2) 0.4705(2) 0.7402(2)
O10_8 O 0.0664(5) 0.4650(6) 0.6098(6)
H11_8 H 0.076801 0.473323 0.585167
H12_8 H 0.047381 0.483423 0.618677
Cu5_8 Cu 0.33692(3) 0.57293(3) 0.61359(3)
Cu6_8 Cu 0.07293(3) 0.61359(3) 0.83692(3)
Cu7_8 Cu 0.11359(3) 0.66308(3) 0.92707(3)
Cu8_8 Cu 0.33692(3) 0.38641(3) 0.92707(3)
O11_8 O 0.37507(19) 0.37507(19) 0.87507(19)
O12_8 O 0.12493(19) 0.37507(19) 0.62493(19)
N8_8 N 0.0644(2) 0.3960(2) 0.6876(2)
N9_8 N 0.1876(2) 0.6040(2) 0.9356(2)
N10_8 N 0.1663(2) 0.45478(19) 0.6388(2)
O5_9 O 0.29455(16) 0.47575(18) 0.39443(17)
O6_9 O 0.2536(2) 0.43804(19) 0.3462(2)
N3_5 N 0.1876(2) 0.5644(2) 0.3960(2)
C5_9 C 0.2241(2) 0.5395(2) 0.4039(3)
H5_9 H 0.244913 0.544920 0.425673
C6_9 C 0.1891(3) 0.5093(2) 0.3483(3)
H6_9 H 0.181284 0.490747 0.325265
C7_9 C 0.2252(3) 0.5046(2) 0.3744(3)
C8_9 C 0.2598(2) 0.4705(2) 0.3716(2)
O7_9 O 0.3902(6) 0.4650(6) 0.4336(5)
H7_9 H 0.414833 0.473323 0.423199
H8_9 H 0.381323 0.483423 0.452619
Cu4_5 Cu 0.16308(3) 0.61359(3) 0.42707(3)
N7_5 N 0.3124(2) 0.3960(2) 0.4356(2)
O5_10 O 0.47575(18) 0.70545(16) 0.10557(17)
O6_10 O 0.43804(19) 0.7464(2) 0.1538(2)
N3_6 N 0.5644(2) 0.8124(2) 0.1040(2)
C5_10 C 0.5395(2) 0.7759(2) 0.0961(3)
H5_10 H 0.544920 0.755087 0.074327
C6_10 C 0.5093(2) 0.8109(3) 0.1517(3)
H6_10 H 0.490747 0.818716 0.174735
C7_10 C 0.5046(2) 0.7748(3) 0.1256(3)
C8_10 C 0.4705(2) 0.7402(2) 0.1284(2)
O7_10 O 0.4650(6) 0.6098(6) 0.0664(5)
H7_10 H 0.473323 0.585167 0.076801
H8_10 H 0.483423 0.618677 0.047381
Cu4_6 Cu 0.61359(3) 0.83692(3) 0.07293(3)
N7_6 N 0.3960(2) 0.6876(2) 0.0644(2)
O5_11 O 0.70545(16) 0.52425(18) 0.39443(17)
O6_11 O 0.7464(2) 0.56196(19) 0.3462(2)
N3_7 N 0.8124(2) 0.4356(2) 0.3960(2)
C5_11 C 0.7759(2) 0.4605(2) 0.4039(3)
H5_11 H 0.755087 0.455080 0.425673
C6_11 C 0.8109(3) 0.4907(2) 0.3483(3)
H6_11 H 0.818716 0.509253 0.325265
C7_11 C 0.7748(3) 0.4954(2) 0.3744(3)
C8_11 C 0.7402(2) 0.5295(2) 0.3716(2)
O7_11 O 0.6098(6) 0.5350(6) 0.4336(5)
H7_11 H 0.585167 0.526677 0.423199
H8_11 H 0.618677 0.516577 0.452619
Cu4_7 Cu 0.83692(3) 0.38641(3) 0.42707(3)
N7_7 N 0.6876(2) 0.6040(2) 0.4356(2)
O5_12 O 0.52425(18) 0.29455(16) 0.10557(17)
O6_12 O 0.56196(19) 0.2536(2) 0.1538(2)
N3_8 N 0.4356(2) 0.1876(2) 0.1040(2)
C5_12 C 0.4605(2) 0.2241(2) 0.0961(3)
H5_12 H 0.455080 0.244913 0.074327
C6_12 C 0.4907(2) 0.1891(3) 0.1517(3)
H6_12 H 0.509253 0.181284 0.174735
C7_12 C 0.4954(2) 0.2252(3) 0.1256(3)
C8_12 C 0.5295(2) 0.2598(2) 0.1284(2)
O7_12 O 0.5350(6) 0.3902(6) 0.0664(5)
H7_12 H 0.526677 0.414833 0.076801
H8_12 H 0.516577 0.381323 0.047381
Cu4_8 Cu 0.38641(3) 0.16308(3) 0.07293(3)
N7_8 N 0.6040(2) 0.3124(2) 0.0644(2)
O5_13 O 0.29455(16) 0.52425(18) 0.60557(17)
O6_13 O 0.2536(2) 0.56196(19) 0.6538(2)
N3_9 N 0.1876(2) 0.4356(2) 0.6040(2)
C5_13 C 0.2241(2) 0.4605(2) 0.5961(3)
H5_13 H 0.244913 0.455080 0.574327
C6_13 C 0.1891(3) 0.4907(2) 0.6517(3)
H6_13 H 0.181284 0.509253 0.674735
C7_13 C 0.2252(3) 0.4954(2) 0.6256(3)
C8_13 C 0.2598(2) 0.5295(2) 0.6284(2)
O7_13 O 0.3902(6) 0.5350(6) 0.5664(5)
H7_13 H 0.414833 0.526677 0.576801
H8_13 H 0.381323 0.516577 0.547381
Cu4_9 Cu 0.16308(3) 0.38641(3) 0.57293(3)
N7_9 N 0.3124(2) 0.6040(2) 0.5644(2)
O5_14 O 0.52425(18) 0.70545(16) 0.89443(17)
O6_14 O 0.56196(19) 0.7464(2) 0.8462(2)
N3_10 N 0.4356(2) 0.8124(2) 0.8960(2)
C5_14 C 0.4605(2) 0.7759(2) 0.9039(3)
H5_14 H 0.455080 0.755087 0.925673
C6_14 C 0.4907(2) 0.8109(3) 0.8483(3)
H6_14 H 0.509253 0.818716 0.825265
C7_14 C 0.4954(2) 0.7748(3) 0.8744(3)
C8_14 C 0.5295(2) 0.7402(2) 0.8716(2)
O7_14 O 0.5350(6) 0.6098(6) 0.9336(5)
H7_14 H 0.526677 0.585167 0.923199
H8_14 H 0.516577 0.618677 0.952619
Cu4_10 Cu 0.38641(3) 0.83692(3) 0.92707(3)
N7_10 N 0.6040(2) 0.6876(2) 0.9356(2)
O5_15 O 0.70545(16) 0.47575(18) 0.60557(17)
O6_15 O 0.7464(2) 0.43804(19) 0.6538(2)
N3_11 N 0.8124(2) 0.5644(2) 0.6040(2)
C5_15 C 0.7759(2) 0.5395(2) 0.5961(3)
H5_15 H 0.755087 0.544920 0.574327
C6_15 C 0.8109(3) 0.5093(2) 0.6517(3)
H6_15 H 0.818716 0.490747 0.674735
C7_15 C 0.7748(3) 0.5046(2) 0.6256(3)
C8_15 C 0.7402(2) 0.4705(2) 0.6284(2)
O7_15 O 0.6098(6) 0.4650(6) 0.5664(5)
H7_15 H 0.585167 0.473323 0.576801
H8_15 H 0.618677 0.483423 0.547381
Cu4_11 Cu 0.83692(3) 0.61359(3) 0.57293(3)
N7_11 N 0.6876(2) 0.3960(2) 0.5644(2)
O5_16 O 0.47575(18) 0.29455(16) 0.89443(17)
O6_16 O 0.43804(19) 0.2536(2) 0.8462(2)
N3_12 N 0.5644(2) 0.1876(2) 0.8960(2)
C5_16 C 0.5395(2) 0.2241(2) 0.9039(3)
H5_16 H 0.544920 0.244913 0.925673
C6_16 C 0.5093(2) 0.1891(3) 0.8483(3)
H6_16 H 0.490747 0.181284 0.825265
C7_16 C 0.5046(2) 0.2252(3) 0.8744(3)
C8_16 C 0.4705(2) 0.2598(2) 0.8716(2)
O7_16 O 0.4650(6) 0.3902(6) 0.9336(5)
H7_16 H 0.473323 0.414833 0.923199
H8_16 H 0.483423 0.381323 0.952619
Cu4_12 Cu 0.61359(3) 0.16308(3) 0.92707(3)
N7_12 N 0.3960(2) 0.3124(2) 0.9356(2)
O1_9 O 0.20545(16) 0.39443(17) 0.52425(18)
O2_9 O 0.2464(2) 0.3462(2) 0.56196(19)
N2_9 N 0.3337(2) 0.3612(2) 0.45478(19)
C1_9 C 0.2759(2) 0.4039(3) 0.4605(2)
H1_9 H 0.255087 0.425673 0.455080
C2_9 C 0.3109(3) 0.3483(3) 0.4907(2)
H2_9 H 0.318716 0.325265 0.509253
C3_9 C 0.2748(3) 0.3744(3) 0.4954(2)
C4_9 C 0.2402(2) 0.3716(2) 0.5295(2)
O4_9 O 0.1098(6) 0.4336(5) 0.5350(6)
H3_9 H 0.085167 0.423199 0.526677
H4_9 H 0.118677 0.452619 0.516577
O5_17 O 0.39443(17) 0.29455(16) 0.47575(18)
O6_17 O 0.3462(2) 0.2536(2) 0.43804(19)
N4_9 N 0.3612(2) 0.1663(2) 0.54522(19)
C5_17 C 0.4039(3) 0.2241(2) 0.5395(2)
H5_17 H 0.425673 0.244913 0.544920
C6_17 C 0.3483(3) 0.1891(3) 0.5093(2)
H6_17 H 0.325265 0.181284 0.490747
C7_17 C 0.3744(3) 0.2252(3) 0.5046(2)
C8_17 C 0.3716(2) 0.2598(2) 0.4705(2)
O7_17 O 0.4336(5) 0.3902(6) 0.4650(6)
H7_17 H 0.423199 0.414833 0.473323
H8_17 H 0.452619 0.381323 0.483423
Cu3_9 Cu 0.11359(3) 0.16308(3) 0.42707(3)
O8_9 O 0.10557(17) 0.20545(16) 0.47575(18)
O9_9 O 0.1538(2) 0.2464(2) 0.43804(19)
N5_9 N 0.1040(2) 0.3124(2) 0.5644(2)
N6_9 N 0.1388(2) 0.3337(2) 0.54522(19)
C9_9 C 0.0961(3) 0.2759(2) 0.5395(2)
H9_9 H 0.074327 0.255087 0.544920
C10_9 C 0.1517(3) 0.3109(3) 0.5093(2)
H10_9 H 0.174735 0.318716 0.490747
C11_9 C 0.1256(3) 0.2748(3) 0.5046(2)
C12_9 C 0.1284(2) 0.2402(2) 0.4705(2)
O10_9 O 0.0664(5) 0.1098(6) 0.4650(6)
H11_9 H 0.076801 0.085167 0.473323
H12_9 H 0.047381 0.118677 0.483423
Cu6_9 Cu 0.07293(3) 0.33692(3) 0.61359(3)
O12_9 O 0.12493(19) 0.12493(19) 0.37507(19)
N8_9 N 0.0644(2) 0.1876(2) 0.3960(2)
N10_9 N 0.1663(2) 0.1388(2) 0.45478(19)
Cu1_9 Cu 0.88641(3) 0.16308(3) 0.57293(3)
O1_10 O 0.89443(17) 0.20545(16) 0.52425(18)
O2_10 O 0.8462(2) 0.2464(2) 0.56196(19)
O3_9 O 0.87507(19) 0.12493(19) 0.62493(19)
N1_9 N 0.8960(2) 0.3124(2) 0.4356(2)
N2_10 N 0.8612(2) 0.3337(2) 0.45478(19)
C1_10 C 0.9039(3) 0.2759(2) 0.4605(2)
H1_10 H 0.925673 0.255087 0.455080
C2_10 C 0.8483(3) 0.3109(3) 0.4907(2)
H2_10 H 0.825265 0.318716 0.509253
C3_10 C 0.8744(3) 0.2748(3) 0.4954(2)
C4_10 C 0.8716(2) 0.2402(2) 0.5295(2)
O4_10 O 0.9336(5) 0.1098(6) 0.5350(6)
H3_10 H 0.923199 0.085167 0.526677
H4_10 H 0.952619 0.118677 0.516577
O5_18 O 0.79455(16) 0.39443(17) 0.47575(18)
O6_18 O 0.7536(2) 0.3462(2) 0.43804(19)
N4_10 N 0.6663(2) 0.3612(2) 0.54522(19)
C5_18 C 0.7241(2) 0.4039(3) 0.5395(2)
H5_18 H 0.744913 0.425673 0.544920
C6_18 C 0.6891(3) 0.3483(3) 0.5093(2)
H6_18 H 0.681284 0.325265 0.490747
C7_18 C 0.7252(3) 0.3744(3) 0.5046(2)
C8_18 C 0.7598(2) 0.3716(2) 0.4705(2)
O7_18 O 0.8902(6) 0.4336(5) 0.4650(6)
H7_18 H 0.914833 0.423199 0.473323
H8_18 H 0.881323 0.452619 0.483423
O8_10 O 0.70545(16) 0.10557(17) 0.47575(18)
O9_10 O 0.7464(2) 0.1538(2) 0.43804(19)
N5_10 N 0.8124(2) 0.1040(2) 0.5644(2)
N6_10 N 0.8337(2) 0.1388(2) 0.54522(19)
C9_10 C 0.7759(2) 0.0961(3) 0.5395(2)
H9_10 H 0.755087 0.074327 0.544920
C10_10 C 0.8109(3) 0.1517(3) 0.5093(2)
H10_10 H 0.818716 0.174735 0.490747
C11_10 C 0.7748(3) 0.1256(3) 0.5046(2)
C12_10 C 0.7402(2) 0.1284(2) 0.4705(2)
O10_10 O 0.6098(6) 0.0664(5) 0.4650(6)
H11_10 H 0.585167 0.076801 0.473323
H12_10 H 0.618677 0.047381 0.483423
Cu6_10 Cu 0.83692(3) 0.07293(3) 0.61359(3)
Cu7_9 Cu 0.92707(3) 0.11359(3) 0.66308(3)
Cu8_9 Cu 0.92707(3) 0.33692(3) 0.38641(3)
N8_10 N 0.6876(2) 0.0644(2) 0.3960(2)
N9_9 N 0.9356(2) 0.1876(2) 0.6040(2)
N10_10 N 0.6388(2) 0.1663(2) 0.45478(19)
Cu1_10 Cu 0.88641(3) 0.83692(3) 0.42707(3)
O1_11 O 0.89443(17) 0.79455(16) 0.47575(18)
O2_11 O 0.8462(2) 0.7536(2) 0.43804(19)
O3_10 O 0.87507(19) 0.87507(19) 0.37507(19)
N1_10 N 0.8960(2) 0.6876(2) 0.5644(2)
N2_11 N 0.8612(2) 0.6663(2) 0.54522(19)
C1_11 C 0.9039(3) 0.7241(2) 0.5395(2)
H1_11 H 0.925673 0.744913 0.544920
C2_11 C 0.8483(3) 0.6891(3) 0.5093(2)
H2_11 H 0.825265 0.681284 0.490747
C3_11 C 0.8744(3) 0.7252(3) 0.5046(2)
C4_11 C 0.8716(2) 0.7598(2) 0.4705(2)
O4_11 O 0.9336(5) 0.8902(6) 0.4650(6)
H3_11 H 0.923199 0.914833 0.473323
H4_11 H 0.952619 0.881323 0.483423
O5_19 O 0.79455(16) 0.60557(17) 0.52425(18)
O6_19 O 0.7536(2) 0.6538(2) 0.56196(19)
N4_11 N 0.6663(2) 0.6388(2) 0.45478(19)
C5_19 C 0.7241(2) 0.5961(3) 0.4605(2)
H5_19 H 0.744913 0.574327 0.455080
C6_19 C 0.6891(3) 0.6517(3) 0.4907(2)
H6_19 H 0.681284 0.674735 0.509253
C7_19 C 0.7252(3) 0.6256(3) 0.4954(2)
C8_19 C 0.7598(2) 0.6284(2) 0.5295(2)
O7_19 O 0.8902(6) 0.5664(5) 0.5350(6)
H7_19 H 0.914833 0.576801 0.526677
H8_19 H 0.881323 0.547381 0.516577
O8_11 O 0.70545(16) 0.89443(17) 0.52425(18)
O9_11 O 0.7464(2) 0.8462(2) 0.56196(19)
N5_11 N 0.8124(2) 0.8960(2) 0.4356(2)
N6_11 N 0.8337(2) 0.8612(2) 0.45478(19)
C9_11 C 0.7759(2) 0.9039(3) 0.4605(2)
H9_11 H 0.755087 0.925673 0.455080
C10_11 C 0.8109(3) 0.8483(3) 0.4907(2)
H10_11 H 0.818716 0.825265 0.509253
C11_11 C 0.7748(3) 0.8744(3) 0.4954(2)
C12_11 C 0.7402(2) 0.8716(2) 0.5295(2)
O10_11 O 0.6098(6) 0.9336(5) 0.5350(6)
H11_11 H 0.585167 0.923199 0.526677
H12_11 H 0.618677 0.952619 0.516577
Cu6_11 Cu 0.83692(3) 0.92707(3) 0.38641(3)
Cu7_10 Cu 0.92707(3) 0.88641(3) 0.33692(3)
Cu8_10 Cu 0.92707(3) 0.66308(3) 0.61359(3)
N8_11 N 0.6876(2) 0.9356(2) 0.6040(2)
N9_10 N 0.9356(2) 0.8124(2) 0.3960(2)
N10_11 N 0.6388(2) 0.8337(2) 0.54522(19)
Cu1_11 Cu 0.11359(3) 0.83692(3) 0.57293(3)
O1_12 O 0.10557(17) 0.79455(16) 0.52425(18)
O2_12 O 0.1538(2) 0.7536(2) 0.56196(19)
O3_11 O 0.12493(19) 0.87507(19) 0.62493(19)
N1_11 N 0.1040(2) 0.6876(2) 0.4356(2)
N2_12 N 0.1388(2) 0.6663(2) 0.45478(19)
C1_12 C 0.0961(3) 0.7241(2) 0.4605(2)
H1_12 H 0.074327 0.744913 0.455080
C2_12 C 0.1517(3) 0.6891(3) 0.4907(2)
H2_12 H 0.174735 0.681284 0.509253
C3_12 C 0.1256(3) 0.7252(3) 0.4954(2)
C4_12 C 0.1284(2) 0.7598(2) 0.5295(2)
O4_12 O 0.0664(5) 0.8902(6) 0.5350(6)
H3_12 H 0.076801 0.914833 0.526677
H4_12 H 0.047381 0.881323 0.516577
O5_20 O 0.20545(16) 0.60557(17) 0.47575(18)
O6_20 O 0.2464(2) 0.6538(2) 0.43804(19)
N4_12 N 0.3337(2) 0.6388(2) 0.54522(19)
C5_20 C 0.2759(2) 0.5961(3) 0.5395(2)
H5_20 H 0.255087 0.574327 0.544920
C6_20 C 0.3109(3) 0.6517(3) 0.5093(2)
H6_20 H 0.318716 0.674735 0.490747
C7_20 C 0.2748(3) 0.6256(3) 0.5046(2)
C8_20 C 0.2402(2) 0.6284(2) 0.4705(2)
O7_20 O 0.1098(6) 0.5664(5) 0.4650(6)
H7_20 H 0.085167 0.576801 0.473323
H8_20 H 0.118677 0.547381 0.483423
O8_12 O 0.29455(16) 0.89443(17) 0.47575(18)
O9_12 O 0.2536(2) 0.8462(2) 0.43804(19)
N5_12 N 0.1876(2) 0.8960(2) 0.5644(2)
N6_12 N 0.1663(2) 0.8612(2) 0.54522(19)
C9_12 C 0.2241(2) 0.9039(3) 0.5395(2)
H9_12 H 0.244913 0.925673 0.544920
C10_12 C 0.1891(3) 0.8483(3) 0.5093(2)
H10_12 H 0.181284 0.825265 0.490747
C11_12 C 0.2252(3) 0.8744(3) 0.5046(2)
C12_12 C 0.2598(2) 0.8716(2) 0.4705(2)
O10_12 O 0.3902(6) 0.9336(5) 0.4650(6)
H11_12 H 0.414833 0.923199 0.473323
H12_12 H 0.381323 0.952619 0.483423
Cu6_12 Cu 0.16308(3) 0.92707(3) 0.61359(3)
Cu7_11 Cu 0.07293(3) 0.88641(3) 0.66308(3)
Cu8_11 Cu 0.07293(3) 0.66308(3) 0.38641(3)
N8_12 N 0.3124(2) 0.9356(2) 0.3960(2)
N9_11 N 0.0644(2) 0.8124(2) 0.6040(2)
N10_12 N 0.3612(2) 0.8337(2) 0.45478(19)
O8_13 O 0.29455(16) 0.10557(17) 0.52425(18)
O9_13 O 0.2536(2) 0.1538(2) 0.56196(19)
N5_13 N 0.1876(2) 0.1040(2) 0.4356(2)
C9_13 C 0.2241(2) 0.0961(3) 0.4605(2)
H9_13 H 0.244913 0.074327 0.455080
C10_13 C 0.1891(3) 0.1517(3) 0.4907(2)
H10_13 H 0.181284 0.174735 0.509253
C11_13 C 0.2252(3) 0.1256(3) 0.4954(2)
C12_13 C 0.2598(2) 0.1284(2) 0.5295(2)
O10_13 O 0.3902(6) 0.0664(5) 0.5350(6)
H11_13 H 0.414833 0.076801 0.526677
H12_13 H 0.381323 0.047381 0.516577
Cu6_13 Cu 0.16308(3) 0.07293(3) 0.38641(3)
Cu7_12 Cu 0.07293(3) 0.11359(3) 0.33692(3)
N8_13 N 0.3124(2) 0.0644(2) 0.6040(2)
N1_12 N 0.3124(2) 0.1040(2) 0.0644(2)
N2_13 N 0.3337(2) 0.1388(2) 0.04522(19)
C1_13 C 0.2759(2) 0.0961(3) 0.0395(2)
H1_13 H 0.255087 0.074327 0.044920
C2_13 C 0.3109(3) 0.1517(3) 0.0093(2)
C3_13 C 0.2748(3) 0.1256(3) 0.0046(2)
O5_21 O 0.39443(17) 0.20545(16) 0.02425(18)
O6_21 O 0.3462(2) 0.2464(2) 0.06196(19)
H6_21 H 0.325265 0.318716 0.009253
C8_21 C 0.3716(2) 0.2402(2) 0.0295(2)
O7_21 O 0.4336(5) 0.1098(6) 0.0350(6)
H7_21 H 0.423199 0.085167 0.026677
H8_21 H 0.452619 0.118677 0.016577
O8_14 O 0.10557(17) 0.29455(16) 0.02425(18)
O9_14 O 0.1538(2) 0.2536(2) 0.06196(19)
H10_14 H 0.174735 0.181284 0.009253
C12_14 C 0.1284(2) 0.2598(2) 0.0295(2)
O10_14 O 0.0664(5) 0.3902(6) 0.0350(6)
H11_14 H 0.076801 0.414833 0.026677
H12_14 H 0.047381 0.381323 0.016577
Cu8_12 Cu 0.33692(3) 0.07293(3) 0.11359(3)
N8_14 N 0.0644(2) 0.3124(2) 0.1040(2)
N10_13 N 0.1663(2) 0.3612(2) 0.04522(19)
Cu1_12 Cu 0.16308(3) 0.11359(3) 0.92707(3)
O1_13 O 0.20545(16) 0.10557(17) 0.97575(18)
O2_13 O 0.2464(2) 0.1538(2) 0.93804(19)
O3_12 O 0.12493(19) 0.12493(19) 0.87507(19)
H2_13 H 0.318716 0.174735 0.990747
C4_13 C 0.2402(2) 0.1284(2) 0.9705(2)
O4_13 O 0.1098(6) 0.0664(5) 0.9650(6)
H3_13 H 0.085167 0.076801 0.973323
H4_13 H 0.118677 0.047381 0.983423
N4_13 N 0.3612(2) 0.3337(2) 0.95478(19)
C5_21 C 0.4039(3) 0.2759(2) 0.9605(2)
H5_21 H 0.425673 0.255087 0.955080
C6_21 C 0.3483(3) 0.3109(3) 0.9907(2)
C7_21 C 0.3744(3) 0.2748(3) 0.9954(2)
N5_14 N 0.1040(2) 0.1876(2) 0.9356(2)
N6_13 N 0.1388(2) 0.1663(2) 0.95478(19)
C9_14 C 0.0961(3) 0.2241(2) 0.9605(2)
H9_14 H 0.074327 0.244913 0.955080
C10_14 C 0.1517(3) 0.1891(3) 0.9907(2)
C11_14 C 0.1256(3) 0.2252(3) 0.9954(2)
Cu6_14 Cu 0.07293(3) 0.16308(3) 0.88641(3)
Cu7_13 Cu 0.11359(3) 0.07293(3) 0.83692(3)
N9_12 N 0.1876(2) 0.0644(2) 0.8960(2)
Cu1_13 Cu 0.83692(3) 0.11359(3) 0.07293(3)
O1_14 O 0.79455(16) 0.10557(17) 0.02425(18)
O2_14 O 0.7536(2) 0.1538(2) 0.06196(19)
O3_13 O 0.87507(19) 0.12493(19) 0.12493(19)
H2_14 H 0.681284 0.174735 0.009253
C4_14 C 0.7598(2) 0.1284(2) 0.0295(2)
O4_14 O 0.8902(6) 0.0664(5) 0.0350(6)
H3_14 H 0.914833 0.076801 0.026677
H4_14 H 0.881323 0.047381 0.016577
N4_14 N 0.6388(2) 0.3337(2) 0.04522(19)
C5_22 C 0.5961(3) 0.2759(2) 0.0395(2)
H5_22 H 0.574327 0.255087 0.044920
C6_22 C 0.6517(3) 0.3109(3) 0.0093(2)
C7_22 C 0.6256(3) 0.2748(3) 0.0046(2)
N5_15 N 0.8960(2) 0.1876(2) 0.0644(2)
N6_14 N 0.8612(2) 0.1663(2) 0.04522(19)
C9_15 C 0.9039(3) 0.2241(2) 0.0395(2)
H9_15 H 0.925673 0.244913 0.044920
C10_15 C 0.8483(3) 0.1891(3) 0.0093(2)
C11_15 C 0.8744(3) 0.2252(3) 0.0046(2)
Cu6_15 Cu 0.92707(3) 0.16308(3) 0.11359(3)
Cu7_14 Cu 0.88641(3) 0.07293(3) 0.16308(3)
N9_13 N 0.8124(2) 0.0644(2) 0.1040(2)
N1_13 N 0.6876(2) 0.1040(2) 0.9356(2)
N2_14 N 0.6663(2) 0.1388(2) 0.95478(19)
C1_14 C 0.7241(2) 0.0961(3) 0.9605(2)
H1_14 H 0.744913 0.074327 0.955080
C2_14 C 0.6891(3) 0.1517(3) 0.9907(2)
C3_14 C 0.7252(3) 0.1256(3) 0.9954(2)
O5_22 O 0.60557(17) 0.20545(16) 0.97575(18)
O6_22 O 0.6538(2) 0.2464(2) 0.93804(19)
H6_22 H 0.674735 0.318716 0.990747
C8_22 C 0.6284(2) 0.2402(2) 0.9705(2)
O7_22 O 0.5664(5) 0.1098(6) 0.9650(6)
H7_22 H 0.576801 0.085167 0.973323
H8_22 H 0.547381 0.118677 0.983423
O8_15 O 0.89443(17) 0.29455(16) 0.97575(18)
O9_15 O 0.8462(2) 0.2536(2) 0.93804(19)
H10_15 H 0.825265 0.181284 0.990747
C12_15 C 0.8716(2) 0.2598(2) 0.9705(2)
O10_15 O 0.9336(5) 0.3902(6) 0.9650(6)
H11_15 H 0.923199 0.414833 0.973323
H12_15 H 0.952619 0.381323 0.983423
Cu8_13 Cu 0.66308(3) 0.07293(3) 0.88641(3)
N8_15 N 0.9356(2) 0.3124(2) 0.8960(2)
N10_14 N 0.8337(2) 0.3612(2) 0.95478(19)
N1_14 N 0.6876(2) 0.8960(2) 0.0644(2)
N2_15 N 0.6663(2) 0.8612(2) 0.04522(19)
C1_15 C 0.7241(2) 0.9039(3) 0.0395(2)
H1_15 H 0.744913 0.925673 0.044920
C2_15 C 0.6891(3) 0.8483(3) 0.0093(2)
C3_15 C 0.7252(3) 0.8744(3) 0.0046(2)
O5_23 O 0.60557(17) 0.79455(16) 0.02425(18)
O6_23 O 0.6538(2) 0.7536(2) 0.06196(19)
H6_23 H 0.674735 0.681284 0.009253
C8_23 C 0.6284(2) 0.7598(2) 0.0295(2)
O7_23 O 0.5664(5) 0.8902(6) 0.0350(6)
H7_23 H 0.576801 0.914833 0.026677
H8_23 H 0.547381 0.881323 0.016577
O8_16 O 0.89443(17) 0.70545(16) 0.02425(18)
O9_16 O 0.8462(2) 0.7464(2) 0.06196(19)
H10_16 H 0.825265 0.818716 0.009253
C12_16 C 0.8716(2) 0.7402(2) 0.0295(2)
O10_16 O 0.9336(5) 0.6098(6) 0.0350(6)
H11_16 H 0.923199 0.585167 0.026677
H12_16 H 0.952619 0.618677 0.016577
Cu8_14 Cu 0.66308(3) 0.92707(3) 0.11359(3)
N8_16 N 0.9356(2) 0.6876(2) 0.1040(2)
N10_15 N 0.8337(2) 0.6388(2) 0.04522(19)
Cu1_14 Cu 0.83692(3) 0.88641(3) 0.92707(3)
O1_15 O 0.79455(16) 0.89443(17) 0.97575(18)
O2_15 O 0.7536(2) 0.8462(2) 0.93804(19)
O3_14 O 0.87507(19) 0.87507(19) 0.87507(19)
H2_15 H 0.681284 0.825265 0.990747
C4_15 C 0.7598(2) 0.8716(2) 0.9705(2)
O4_15 O 0.8902(6) 0.9336(5) 0.9650(6)
H3_15 H 0.914833 0.923199 0.973323
H4_15 H 0.881323 0.952619 0.983423
N4_15 N 0.6388(2) 0.6663(2) 0.95478(19)
C5_23 C 0.5961(3) 0.7241(2) 0.9605(2)
H5_23 H 0.574327 0.744913 0.955080
C6_23 C 0.6517(3) 0.6891(3) 0.9907(2)
C7_23 C 0.6256(3) 0.7252(3) 0.9954(2)
N5_16 N 0.8960(2) 0.8124(2) 0.9356(2)
N6_15 N 0.8612(2) 0.8337(2) 0.95478(19)
C9_16 C 0.9039(3) 0.7759(2) 0.9605(2)
H9_16 H 0.925673 0.755087 0.955080
C10_16 C 0.8483(3) 0.8109(3) 0.9907(2)
C11_16 C 0.8744(3) 0.7748(3) 0.9954(2)
Cu6_16 Cu 0.92707(3) 0.83692(3) 0.88641(3)
Cu7_15 Cu 0.88641(3) 0.92707(3) 0.83692(3)
N9_14 N 0.8124(2) 0.9356(2) 0.8960(2)
N2_16 N 0.3337(2) 0.04522(19) 0.6388(2)
C1_16 C 0.2759(2) 0.0395(2) 0.5961(3)
H1_16 H 0.255087 0.044920 0.574327
C2_16 C 0.3109(3) 0.0093(2) 0.6517(3)
C3_16 C 0.2748(3) 0.0046(2) 0.6256(3)
O5_24 O 0.39443(17) 0.02425(18) 0.70545(16)
O6_24 O 0.3462(2) 0.06196(19) 0.7464(2)
H6_24 H 0.325265 0.009253 0.818716
C8_24 C 0.3716(2) 0.0295(2) 0.7402(2)
O7_24 O 0.4336(5) 0.0350(6) 0.6098(6)
H7_24 H 0.423199 0.026677 0.585167
H8_24 H 0.452619 0.016577 0.618677
O8_17 O 0.10557(17) 0.02425(18) 0.79455(16)
O9_17 O 0.1538(2) 0.06196(19) 0.7536(2)
H10_17 H 0.174735 0.009253 0.681284
C12_17 C 0.1284(2) 0.0295(2) 0.7598(2)
O10_17 O 0.0664(5) 0.0350(6) 0.8902(6)
H11_17 H 0.076801 0.026677 0.914833
H12_17 H 0.047381 0.016577 0.881323
N8_17 N 0.0644(2) 0.1040(2) 0.8124(2)
N10_16 N 0.1663(2) 0.04522(19) 0.8612(2)
O1_16 O 0.20545(16) 0.97575(18) 0.60557(17)
O2_16 O 0.2464(2) 0.93804(19) 0.6538(2)
H2_16 H 0.318716 0.990747 0.674735
C4_16 C 0.2402(2) 0.9705(2) 0.6284(2)
O4_16 O 0.1098(6) 0.9650(6) 0.5664(5)
H3_16 H 0.085167 0.973323 0.576801
H4_16 H 0.118677 0.983423 0.547381
N4_16 N 0.3612(2) 0.95478(19) 0.8337(2)
C5_24 C 0.4039(3) 0.9605(2) 0.7759(2)
H5_24 H 0.425673 0.955080 0.755087
C6_24 C 0.3483(3) 0.9907(2) 0.8109(3)
C7_24 C 0.3744(3) 0.9954(2) 0.7748(3)
N5_17 N 0.1040(2) 0.9356(2) 0.6876(2)
N6_16 N 0.1388(2) 0.95478(19) 0.6663(2)
C9_17 C 0.0961(3) 0.9605(2) 0.7241(2)
H9_17 H 0.074327 0.955080 0.744913
C10_17 C 0.1517(3) 0.9907(2) 0.6891(3)
C11_17 C 0.1256(3) 0.9954(2) 0.7252(3)
Cu5_9 Cu 0.33692(3) 0.92707(3) 0.88641(3)
O1_17 O 0.79455(16) 0.02425(18) 0.60557(17)
O2_17 O 0.7536(2) 0.06196(19) 0.6538(2)
H2_17 H 0.681284 0.009253 0.674735
C4_17 C 0.7598(2) 0.0295(2) 0.6284(2)
O4_17 O 0.8902(6) 0.0350(6) 0.5664(5)
H3_17 H 0.914833 0.026677 0.576801
H4_17 H 0.881323 0.016577 0.547381
N4_17 N 0.6388(2) 0.04522(19) 0.8337(2)
C5_25 C 0.5961(3) 0.0395(2) 0.7759(2)
H5_25 H 0.574327 0.044920 0.755087
C6_25 C 0.6517(3) 0.0093(2) 0.8109(3)
C7_25 C 0.6256(3) 0.0046(2) 0.7748(3)
N5_18 N 0.8960(2) 0.0644(2) 0.6876(2)
N6_17 N 0.8612(2) 0.04522(19) 0.6663(2)
C9_18 C 0.9039(3) 0.0395(2) 0.7241(2)
H9_18 H 0.925673 0.044920 0.744913
C10_18 C 0.8483(3) 0.0093(2) 0.6891(3)
C11_18 C 0.8744(3) 0.0046(2) 0.7252(3)
N2_17 N 0.6663(2) 0.95478(19) 0.6388(2)
C1_17 C 0.7241(2) 0.9605(2) 0.5961(3)
H1_17 H 0.744913 0.955080 0.574327
C2_17 C 0.6891(3) 0.9907(2) 0.6517(3)
C3_17 C 0.7252(3) 0.9954(2) 0.6256(3)
O5_25 O 0.60557(17) 0.97575(18) 0.70545(16)
O6_25 O 0.6538(2) 0.93804(19) 0.7464(2)
H6_25 H 0.674735 0.990747 0.818716
C8_25 C 0.6284(2) 0.9705(2) 0.7402(2)
O7_25 O 0.5664(5) 0.9650(6) 0.6098(6)
H7_25 H 0.576801 0.973323 0.585167
H8_25 H 0.547381 0.983423 0.618677
O8_18 O 0.89443(17) 0.97575(18) 0.79455(16)
O9_18 O 0.8462(2) 0.93804(19) 0.7536(2)
H10_18 H 0.825265 0.990747 0.681284
C12_18 C 0.8716(2) 0.9705(2) 0.7598(2)
O10_18 O 0.9336(5) 0.9650(6) 0.8902(6)
H11_18 H 0.923199 0.973323 0.914833
H12_18 H 0.952619 0.983423 0.881323
N8_18 N 0.9356(2) 0.8960(2) 0.8124(2)
N10_17 N 0.8337(2) 0.95478(19) 0.8612(2)
N2_18 N 0.6663(2) 0.04522(19) 0.3612(2)
C1_18 C 0.7241(2) 0.0395(2) 0.4039(3)
H1_18 H 0.744913 0.044920 0.425673
C2_18 C 0.6891(3) 0.0093(2) 0.3483(3)
C3_18 C 0.7252(3) 0.0046(2) 0.3744(3)
O5_26 O 0.60557(17) 0.02425(18) 0.29455(16)
O6_26 O 0.6538(2) 0.06196(19) 0.2536(2)
H6_26 H 0.674735 0.009253 0.181284
C8_26 C 0.6284(2) 0.0295(2) 0.2598(2)
O7_26 O 0.5664(5) 0.0350(6) 0.3902(6)
H7_26 H 0.576801 0.026677 0.414833
H8_26 H 0.547381 0.016577 0.381323
O8_19 O 0.89443(17) 0.02425(18) 0.20545(16)
O9_19 O 0.8462(2) 0.06196(19) 0.2464(2)
H10_19 H 0.825265 0.009253 0.318716
C12_19 C 0.8716(2) 0.0295(2) 0.2402(2)
O10_19 O 0.9336(5) 0.0350(6) 0.1098(6)
H11_19 H 0.923199 0.026677 0.085167
H12_19 H 0.952619 0.016577 0.118677
N8_19 N 0.9356(2) 0.1040(2) 0.1876(2)
N10_18 N 0.8337(2) 0.04522(19) 0.1388(2)
O1_18 O 0.79455(16) 0.97575(18) 0.39443(17)
O2_18 O 0.7536(2) 0.93804(19) 0.3462(2)
H2_18 H 0.681284 0.990747 0.325265
C4_18 C 0.7598(2) 0.9705(2) 0.3716(2)
O4_18 O 0.8902(6) 0.9650(6) 0.4336(5)
H3_18 H 0.914833 0.973323 0.423199
H4_18 H 0.881323 0.983423 0.452619
N4_18 N 0.6388(2) 0.95478(19) 0.1663(2)
C5_26 C 0.5961(3) 0.9605(2) 0.2241(2)
H5_26 H 0.574327 0.955080 0.244913
C6_26 C 0.6517(3) 0.9907(2) 0.1891(3)
C7_26 C 0.6256(3) 0.9954(2) 0.2252(3)
N5_19 N 0.8960(2) 0.9356(2) 0.3124(2)
N6_18 N 0.8612(2) 0.95478(19) 0.3337(2)
C9_19 C 0.9039(3) 0.9605(2) 0.2759(2)
H9_19 H 0.925673 0.955080 0.255087
C10_19 C 0.8483(3) 0.9907(2) 0.3109(3)
C11_19 C 0.8744(3) 0.9954(2) 0.2748(3)
O1_19 O 0.20545(16) 0.02425(18) 0.39443(17)
O2_19 O 0.2464(2) 0.06196(19) 0.3462(2)
H2_19 H 0.318716 0.009253 0.325265
C4_19 C 0.2402(2) 0.0295(2) 0.3716(2)
O4_19 O 0.1098(6) 0.0350(6) 0.4336(5)
H3_19 H 0.085167 0.026677 0.423199
H4_19 H 0.118677 0.016577 0.452619
N4_19 N 0.3612(2) 0.04522(19) 0.1663(2)
C5_27 C 0.4039(3) 0.0395(2) 0.2241(2)
H5_27 H 0.425673 0.044920 0.244913
C6_27 C 0.3483(3) 0.0093(2) 0.1891(3)
C7_27 C 0.3744(3) 0.0046(2) 0.2252(3)
N5_20 N 0.1040(2) 0.0644(2) 0.3124(2)
N6_19 N 0.1388(2) 0.04522(19) 0.3337(2)
C9_20 C 0.0961(3) 0.0395(2) 0.2759(2)
H9_20 H 0.074327 0.044920 0.255087
C10_20 C 0.1517(3) 0.0093(2) 0.3109(3)
C11_20 C 0.1256(3) 0.0046(2) 0.2748(3)
N2_19 N 0.3337(2) 0.95478(19) 0.3612(2)
C1_19 C 0.2759(2) 0.9605(2) 0.4039(3)
H1_19 H 0.255087 0.955080 0.425673
C2_19 C 0.3109(3) 0.9907(2) 0.3483(3)
C3_19 C 0.2748(3) 0.9954(2) 0.3744(3)
O5_27 O 0.39443(17) 0.97575(18) 0.29455(16)
O6_27 O 0.3462(2) 0.93804(19) 0.2536(2)
H6_27 H 0.325265 0.990747 0.181284
C8_27 C 0.3716(2) 0.9705(2) 0.2598(2)
O7_27 O 0.4336(5) 0.9650(6) 0.3902(6)
H7_27 H 0.423199 0.973323 0.414833
H8_27 H 0.452619 0.983423 0.381323
Cu3_10 Cu 0.11359(3) 0.92707(3) 0.16308(3)
O8_20 O 0.10557(17) 0.97575(18) 0.20545(16)
O9_20 O 0.1538(2) 0.93804(19) 0.2464(2)
H10_20 H 0.174735 0.990747 0.318716
C12_20 C 0.1284(2) 0.9705(2) 0.2402(2)
O10_20 O 0.0664(5) 0.9650(6) 0.1098(6)
H11_20 H 0.076801 0.973323 0.085167
H12_20 H 0.047381 0.983423 0.118677
O12_10 O 0.12493(19) 0.87507(19) 0.12493(19)
N8_20 N 0.0644(2) 0.8960(2) 0.1876(2)
N10_19 N 0.1663(2) 0.95478(19) 0.1388(2)
C5_28 C 0.2241(2) 0.0395(2) 0.9039(3)
H5_28 H 0.244913 0.044920 0.925673
C6_28 C 0.1891(3) 0.0093(2) 0.8483(3)
C7_28 C 0.2252(3) 0.0046(2) 0.8744(3)
O5_28 O 0.29455(16) 0.97575(18) 0.89443(17)
O6_28 O 0.2536(2) 0.93804(19) 0.8462(2)
H6_28 H 0.181284 0.990747 0.825265
C8_28 C 0.2598(2) 0.9705(2) 0.8716(2)
O7_28 O 0.3902(6) 0.9650(6) 0.9336(5)
H7_28 H 0.414833 0.973323 0.923199
H8_28 H 0.381323 0.983423 0.952619
N7_13 N 0.3124(2) 0.8960(2) 0.9356(2)
O5_29 O 0.70545(16) 0.02425(18) 0.89443(17)
O6_29 O 0.7464(2) 0.06196(19) 0.8462(2)
H6_29 H 0.818716 0.009253 0.825265
C8_29 C 0.7402(2) 0.0295(2) 0.8716(2)
O7_29 O 0.6098(6) 0.0350(6) 0.9336(5)
H7_29 H 0.585167 0.026677 0.923199
H8_29 H 0.618677 0.016577 0.952619
C5_29 C 0.7759(2) 0.9605(2) 0.9039(3)
H5_29 H 0.755087 0.955080 0.925673
C6_29 C 0.8109(3) 0.9907(2) 0.8483(3)
C7_29 C 0.7748(3) 0.9954(2) 0.8744(3)
O5_30 O 0.29455(16) 0.02425(18) 0.10557(17)
O6_30 O 0.2536(2) 0.06196(19) 0.1538(2)
H6_30 H 0.181284 0.009253 0.174735
C8_30 C 0.2598(2) 0.0295(2) 0.1284(2)
O7_30 O 0.3902(6) 0.0350(6) 0.0664(5)
H7_30 H 0.414833 0.026677 0.076801
H8_30 H 0.381323 0.016577 0.047381
N3_13 N 0.1876(2) 0.9356(2) 0.1040(2)
C5_30 C 0.2241(2) 0.9605(2) 0.0961(3)
H5_30 H 0.244913 0.955080 0.074327
C6_30 C 0.1891(3) 0.9907(2) 0.1517(3)
C7_30 C 0.2252(3) 0.9954(2) 0.1256(3)
Cu4_13 Cu 0.16308(3) 0.88641(3) 0.07293(3)
C5_31 C 0.7759(2) 0.0395(2) 0.0961(3)
H5_31 H 0.755087 0.044920 0.074327
C6_31 C 0.8109(3) 0.0093(2) 0.1517(3)
C7_31 C 0.7748(3) 0.0046(2) 0.1256(3)
O5_31 O 0.70545(16) 0.97575(18) 0.10557(17)
O6_31 O 0.7464(2) 0.93804(19) 0.1538(2)
H6_31 H 0.818716 0.990747 0.174735
C8_31 C 0.7402(2) 0.9705(2) 0.1284(2)
O7_31 O 0.6098(6) 0.9650(6) 0.0664(5)
H7_31 H 0.585167 0.973323 0.076801
H8_31 H 0.618677 0.983423 0.047381
O1_20 O 0.20545(16) 0.89443(17) 0.02425(18)
O2_20 O 0.2464(2) 0.8462(2) 0.06196(19)
H2_20 H 0.318716 0.825265 0.009253
C4_20 C 0.2402(2) 0.8716(2) 0.0295(2)
O4_20 O 0.1098(6) 0.9336(5) 0.0350(6)
H3_20 H 0.085167 0.923199 0.026677
H4_20 H 0.118677 0.952619 0.016577
N4_20 N 0.3612(2) 0.6663(2) 0.04522(19)
C5_32 C 0.4039(3) 0.7241(2) 0.0395(2)
H5_32 H 0.425673 0.744913 0.044920
C6_32 C 0.3483(3) 0.6891(3) 0.0093(2)
C7_32 C 0.3744(3) 0.7252(3) 0.0046(2)
N5_21 N 0.1040(2) 0.8124(2) 0.0644(2)
N6_20 N 0.1388(2) 0.8337(2) 0.04522(19)
C9_21 C 0.0961(3) 0.7759(2) 0.0395(2)
H9_21 H 0.074327 0.755087 0.044920
C10_21 C 0.1517(3) 0.8109(3) 0.0093(2)
C11_21 C 0.1256(3) 0.7748(3) 0.0046(2)
Cu6_17 Cu 0.07293(3) 0.83692(3) 0.11359(3)
N2_20 N 0.3337(2) 0.8612(2) 0.95478(19)
C1_20 C 0.2759(2) 0.9039(3) 0.9605(2)
H1_20 H 0.255087 0.925673 0.955080
C2_20 C 0.3109(3) 0.8483(3) 0.9907(2)
C3_20 C 0.2748(3) 0.8744(3) 0.9954(2)
O5_32 O 0.39443(17) 0.79455(16) 0.97575(18)
O6_32 O 0.3462(2) 0.7536(2) 0.93804(19)
H6_32 H 0.325265 0.681284 0.990747
C8_32 C 0.3716(2) 0.7598(2) 0.9705(2)
O7_32 O 0.4336(5) 0.8902(6) 0.9650(6)
H7_32 H 0.423199 0.914833 0.973323
H8_32 H 0.452619 0.881323 0.983423
O8_21 O 0.10557(17) 0.70545(16) 0.97575(18)
O9_21 O 0.1538(2) 0.7464(2) 0.93804(19)
H10_21 H 0.174735 0.818716 0.990747
C12_21 C 0.1284(2) 0.7402(2) 0.9705(2)
O10_21 O 0.0664(5) 0.6098(6) 0.9650(6)
H11_21 H 0.076801 0.585167 0.973323
H12_21 H 0.047381 0.618677 0.983423
N8_21 N 0.0644(2) 0.6876(2) 0.8960(2)
N10_20 N 0.1663(2) 0.6388(2) 0.95478(19)
C9_22 C 0.7759(2) 0.5961(3) 0.0395(2)
H9_22 H 0.755087 0.574327 0.044920
C10_22 C 0.8109(3) 0.6517(3) 0.0093(2)
C11_22 C 0.7748(3) 0.6256(3) 0.0046(2)
O8_22 O 0.70545(16) 0.60557(17) 0.97575(18)
O9_22 O 0.7464(2) 0.6538(2) 0.93804(19)
H10_22 H 0.818716 0.674735 0.990747
C12_22 C 0.7402(2) 0.6284(2) 0.9705(2)
O10_22 O 0.6098(6) 0.5664(5) 0.9650(6)
H11_22 H 0.585167 0.576801 0.973323
H12_22 H 0.618677 0.547381 0.983423
O8_23 O 0.70545(16) 0.39443(17) 0.02425(18)
O9_23 O 0.7464(2) 0.3462(2) 0.06196(19)
H10_23 H 0.818716 0.325265 0.009253
C12_23 C 0.7402(2) 0.3716(2) 0.0295(2)
O10_23 O 0.6098(6) 0.4336(5) 0.0350(6)
H11_23 H 0.585167 0.423199 0.026677
H12_23 H 0.618677 0.452619 0.016577
C9_23 C 0.7759(2) 0.4039(3) 0.9605(2)
H9_23 H 0.755087 0.425673 0.955080
C10_23 C 0.8109(3) 0.3483(3) 0.9907(2)
C11_23 C 0.7748(3) 0.3744(3) 0.9954(2)
C9_24 C 0.2241(2) 0.4039(3) 0.0395(2)
H9_24 H 0.244913 0.425673 0.044920
C10_24 C 0.1891(3) 0.3483(3) 0.0093(2)
C11_24 C 0.2252(3) 0.3744(3) 0.0046(2)
O8_24 O 0.29455(16) 0.39443(17) 0.97575(18)
O9_24 O 0.2536(2) 0.3462(2) 0.93804(19)
H10_24 H 0.181284 0.325265 0.990747
C12_24 C 0.2598(2) 0.3716(2) 0.9705(2)
O10_24 O 0.3902(6) 0.4336(5) 0.9650(6)
H11_24 H 0.414833 0.423199 0.973323
H12_24 H 0.381323 0.452619 0.983423
O8_25 O 0.29455(16) 0.60557(17) 0.02425(18)
O9_25 O 0.2536(2) 0.6538(2) 0.06196(19)
H10_25 H 0.181284 0.674735 0.009253
C12_25 C 0.2598(2) 0.6284(2) 0.0295(2)
O10_25 O 0.3902(6) 0.5664(5) 0.0350(6)
H11_25 H 0.414833 0.576801 0.026677
H12_25 H 0.381323 0.547381 0.016577
C9_25 C 0.2241(2) 0.5961(3) 0.9605(2)
H9_25 H 0.244913 0.574327 0.955080
C10_25 C 0.1891(3) 0.6517(3) 0.9907(2)
C11_25 C 0.2252(3) 0.6256(3) 0.9954(2)
O5_33 O 0.39443(17) 0.70545(16) 0.52425(18)
O6_33 O 0.3462(2) 0.7464(2) 0.56196(19)
C5_33 C 0.4039(3) 0.7759(2) 0.4605(2)
H5_33 H 0.425673 0.755087 0.455080
C6_33 C 0.3483(3) 0.8109(3) 0.4907(2)
H6_33 H 0.325265 0.818716 0.509253
C7_33 C 0.3744(3) 0.7748(3) 0.4954(2)
C8_33 C 0.3716(2) 0.7402(2) 0.5295(2)
O7_33 O 0.4336(5) 0.6098(6) 0.5350(6)
H7_33 H 0.423199 0.585167 0.526677
H8_33 H 0.452619 0.618677 0.516577
O5_34 O 0.60557(17) 0.70545(16) 0.47575(18)
O6_34 O 0.6538(2) 0.7464(2) 0.43804(19)
C5_34 C 0.5961(3) 0.7759(2) 0.5395(2)
H5_34 H 0.574327 0.755087 0.544920
C6_34 C 0.6517(3) 0.8109(3) 0.5093(2)
H6_34 H 0.674735 0.818716 0.490747
C7_34 C 0.6256(3) 0.7748(3) 0.5046(2)
C8_34 C 0.6284(2) 0.7402(2) 0.4705(2)
O7_34 O 0.5664(5) 0.6098(6) 0.4650(6)
H7_34 H 0.576801 0.585167 0.473323
H8_34 H 0.547381 0.618677 0.483423
O5_35 O 0.60557(17) 0.29455(16) 0.52425(18)
O6_35 O 0.6538(2) 0.2536(2) 0.56196(19)
C5_35 C 0.5961(3) 0.2241(2) 0.4605(2)
H5_35 H 0.574327 0.244913 0.455080
C6_35 C 0.6517(3) 0.1891(3) 0.4907(2)
H6_35 H 0.674735 0.181284 0.509253
C7_35 C 0.6256(3) 0.2252(3) 0.4954(2)
C8_35 C 0.6284(2) 0.2598(2) 0.5295(2)
O7_35 O 0.5664(5) 0.3902(6) 0.5350(6)
H7_35 H 0.576801 0.414833 0.526677
H8_35 H 0.547381 0.381323 0.516577
O1_21 O 0.02425(18) 0.20545(16) 0.89443(17)
O2_21 O 0.06196(19) 0.2464(2) 0.8462(2)
H2_21 H 0.009253 0.318716 0.825265
C4_21 C 0.0295(2) 0.2402(2) 0.8716(2)
O4_21 O 0.0350(6) 0.1098(6) 0.9336(5)
H3_21 H 0.026677 0.085167 0.923199
H4_21 H 0.016577 0.118677 0.952619
N4_21 N 0.04522(19) 0.3612(2) 0.6663(2)
C5_36 C 0.0395(2) 0.4039(3) 0.7241(2)
H5_36 H 0.044920 0.425673 0.744913
C6_36 C 0.0093(2) 0.3483(3) 0.6891(3)
C7_36 C 0.0046(2) 0.3744(3) 0.7252(3)
N6_21 N 0.04522(19) 0.1388(2) 0.8337(2)
C9_26 C 0.0395(2) 0.0961(3) 0.7759(2)
H9_26 H 0.044920 0.074327 0.755087
C10_26 C 0.0093(2) 0.1517(3) 0.8109(3)
C11_26 C 0.0046(2) 0.1256(3) 0.7748(3)
N2_21 N 0.95478(19) 0.3337(2) 0.8612(2)
C1_21 C 0.9605(2) 0.2759(2) 0.9039(3)
H1_21 H 0.955080 0.255087 0.925673
C2_21 C 0.9907(2) 0.3109(3) 0.8483(3)
C3_21 C 0.9954(2) 0.2748(3) 0.8744(3)
O5_36 O 0.97575(18) 0.39443(17) 0.79455(16)
O6_36 O 0.93804(19) 0.3462(2) 0.7536(2)
H6_36 H 0.990747 0.325265 0.681284
C8_36 C 0.9705(2) 0.3716(2) 0.7598(2)
O7_36 O 0.9650(6) 0.4336(5) 0.8902(6)
H7_36 H 0.973323 0.423199 0.914833
H8_36 H 0.983423 0.452619 0.881323
O8_26 O 0.97575(18) 0.10557(17) 0.70545(16)
O9_26 O 0.93804(19) 0.1538(2) 0.7464(2)
H10_26 H 0.990747 0.174735 0.818716
C12_26 C 0.9705(2) 0.1284(2) 0.7402(2)
O10_26 O 0.9650(6) 0.0664(5) 0.6098(6)
H11_26 H 0.973323 0.076801 0.585167
H12_26 H 0.983423 0.047381 0.618677
N10_21 N 0.95478(19) 0.1663(2) 0.6388(2)
N2_22 N 0.04522(19) 0.6663(2) 0.8612(2)
C1_22 C 0.0395(2) 0.7241(2) 0.9039(3)
H1_22 H 0.044920 0.744913 0.925673
C2_22 C 0.0093(2) 0.6891(3) 0.8483(3)
C3_22 C 0.0046(2) 0.7252(3) 0.8744(3)
O5_37 O 0.02425(18) 0.60557(17) 0.79455(16)
O6_37 O 0.06196(19) 0.6538(2) 0.7536(2)
H6_37 H 0.009253 0.674735 0.681284
C8_37 C 0.0295(2) 0.6284(2) 0.7598(2)
O7_37 O 0.0350(6) 0.5664(5) 0.8902(6)
H7_37 H 0.026677 0.576801 0.914833
H8_37 H 0.016577 0.547381 0.881323
O8_27 O 0.02425(18) 0.89443(17) 0.70545(16)
O9_27 O 0.06196(19) 0.8462(2) 0.7464(2)
H10_27 H 0.009253 0.825265 0.818716
C12_27 C 0.0295(2) 0.8716(2) 0.7402(2)
O10_27 O 0.0350(6) 0.9336(5) 0.6098(6)
H11_27 H 0.026677 0.923199 0.585167
H12_27 H 0.016577 0.952619 0.618677
N10_22 N 0.04522(19) 0.8337(2) 0.6388(2)
O1_22 O 0.97575(18) 0.79455(16) 0.89443(17)
O2_22 O 0.93804(19) 0.7536(2) 0.8462(2)
H2_22 H 0.990747 0.681284 0.825265
C4_22 C 0.9705(2) 0.7598(2) 0.8716(2)
O4_22 O 0.9650(6) 0.8902(6) 0.9336(5)
H3_22 H 0.973323 0.914833 0.923199
H4_22 H 0.983423 0.881323 0.952619
N4_22 N 0.95478(19) 0.6388(2) 0.6663(2)
C5_37 C 0.9605(2) 0.5961(3) 0.7241(2)
H5_37 H 0.955080 0.574327 0.744913
C6_37 C 0.9907(2) 0.6517(3) 0.6891(3)
C7_37 C 0.9954(2) 0.6256(3) 0.7252(3)
N6_22 N 0.95478(19) 0.8612(2) 0.8337(2)
C9_27 C 0.9605(2) 0.9039(3) 0.7759(2)
H9_27 H 0.955080 0.925673 0.755087
C10_27 C 0.9907(2) 0.8483(3) 0.8109(3)
C11_27 C 0.9954(2) 0.8744(3) 0.7748(3)
O1_23 O 0.02425(18) 0.79455(16) 0.10557(17)
O2_23 O 0.06196(19) 0.7536(2) 0.1538(2)
H2_23 H 0.009253 0.681284 0.174735
C4_23 C 0.0295(2) 0.7598(2) 0.1284(2)
O4_23 O 0.0350(6) 0.8902(6) 0.0664(5)
H3_23 H 0.026677 0.914833 0.076801
H4_23 H 0.016577 0.881323 0.047381
N4_23 N 0.04522(19) 0.6388(2) 0.3337(2)
C5_38 C 0.0395(2) 0.5961(3) 0.2759(2)
H5_38 H 0.044920 0.574327 0.255087
C6_38 C 0.0093(2) 0.6517(3) 0.3109(3)
C7_38 C 0.0046(2) 0.6256(3) 0.2748(3)
N6_23 N 0.04522(19) 0.8612(2) 0.1663(2)
C9_28 C 0.0395(2) 0.9039(3) 0.2241(2)
H9_28 H 0.044920 0.925673 0.244913
C10_28 C 0.0093(2) 0.8483(3) 0.1891(3)
C11_28 C 0.0046(2) 0.8744(3) 0.2252(3)
N2_23 N 0.95478(19) 0.6663(2) 0.1388(2)
C1_23 C 0.9605(2) 0.7241(2) 0.0961(3)
H1_23 H 0.955080 0.744913 0.074327
C2_23 C 0.9907(2) 0.6891(3) 0.1517(3)
C3_23 C 0.9954(2) 0.7252(3) 0.1256(3)
O5_38 O 0.97575(18) 0.60557(17) 0.20545(16)
O6_38 O 0.93804(19) 0.6538(2) 0.2464(2)
H6_38 H 0.990747 0.674735 0.318716
C8_38 C 0.9705(2) 0.6284(2) 0.2402(2)
O7_38 O 0.9650(6) 0.5664(5) 0.1098(6)
H7_38 H 0.973323 0.576801 0.085167
H8_38 H 0.983423 0.547381 0.118677
O8_28 O 0.97575(18) 0.89443(17) 0.29455(16)
O9_28 O 0.93804(19) 0.8462(2) 0.2536(2)
H10_28 H 0.990747 0.825265 0.181284
C12_28 C 0.9705(2) 0.8716(2) 0.2598(2)
O10_28 O 0.9650(6) 0.9336(5) 0.3902(6)
H11_28 H 0.973323 0.923199 0.414833
H12_28 H 0.983423 0.952619 0.381323
N10_23 N 0.95478(19) 0.8337(2) 0.3612(2)
N2_24 N 0.04522(19) 0.3337(2) 0.1388(2)
C1_24 C 0.0395(2) 0.2759(2) 0.0961(3)
H1_24 H 0.044920 0.255087 0.074327
C2_24 C 0.0093(2) 0.3109(3) 0.1517(3)
C3_24 C 0.0046(2) 0.2748(3) 0.1256(3)
O5_39 O 0.02425(18) 0.39443(17) 0.20545(16)
O6_39 O 0.06196(19) 0.3462(2) 0.2464(2)
H6_39 H 0.009253 0.325265 0.318716
C8_39 C 0.0295(2) 0.3716(2) 0.2402(2)
O7_39 O 0.0350(6) 0.4336(5) 0.1098(6)
H7_39 H 0.026677 0.423199 0.085167
H8_39 H 0.016577 0.452619 0.118677
O8_29 O 0.02425(18) 0.10557(17) 0.29455(16)
O9_29 O 0.06196(19) 0.1538(2) 0.2536(2)
H10_29 H 0.009253 0.174735 0.181284
C12_29 C 0.0295(2) 0.1284(2) 0.2598(2)
O10_29 O 0.0350(6) 0.0664(5) 0.3902(6)
H11_29 H 0.026677 0.076801 0.414833
H12_29 H 0.016577 0.047381 0.381323
N10_24 N 0.04522(19) 0.1663(2) 0.3612(2)
O1_24 O 0.97575(18) 0.20545(16) 0.10557(17)
O2_24 O 0.93804(19) 0.2464(2) 0.1538(2)
H2_24 H 0.990747 0.318716 0.174735
C4_24 C 0.9705(2) 0.2402(2) 0.1284(2)
O4_24 O 0.9650(6) 0.1098(6) 0.0664(5)
H3_24 H 0.973323 0.085167 0.076801
H4_24 H 0.983423 0.118677 0.047381
N4_24 N 0.95478(19) 0.3612(2) 0.3337(2)
C5_39 C 0.9605(2) 0.4039(3) 0.2759(2)
H5_39 H 0.955080 0.425673 0.255087
C6_39 C 0.9907(2) 0.3483(3) 0.3109(3)
C7_39 C 0.9954(2) 0.3744(3) 0.2748(3)
N6_24 N 0.95478(19) 0.1388(2) 0.1663(2)
C9_29 C 0.9605(2) 0.0961(3) 0.2241(2)
H9_29 H 0.955080 0.074327 0.244913
C10_29 C 0.9907(2) 0.1517(3) 0.1891(3)
C11_29 C 0.9954(2) 0.1256(3) 0.2252(3)
C5_40 C 0.0395(2) 0.7759(2) 0.5961(3)
H5_40 H 0.044920 0.755087 0.574327
C6_40 C 0.0093(2) 0.8109(3) 0.6517(3)
C7_40 C 0.0046(2) 0.7748(3) 0.6256(3)
O5_40 O 0.97575(18) 0.70545(16) 0.60557(17)
O6_40 O 0.93804(19) 0.7464(2) 0.6538(2)
H6_40 H 0.990747 0.818716 0.674735
C8_40 C 0.9705(2) 0.7402(2) 0.6284(2)
O7_40 O 0.9650(6) 0.6098(6) 0.5664(5)
H7_40 H 0.973323 0.585167 0.576801
H8_40 H 0.983423 0.618677 0.547381
O5_41 O 0.02425(18) 0.29455(16) 0.60557(17)
O6_41 O 0.06196(19) 0.2536(2) 0.6538(2)
H6_41 H 0.009253 0.181284 0.674735
C8_41 C 0.0295(2) 0.2598(2) 0.6284(2)
O7_41 O 0.0350(6) 0.3902(6) 0.5664(5)
H7_41 H 0.026677 0.414833 0.576801
H8_41 H 0.016577 0.381323 0.547381
C5_41 C 0.9605(2) 0.2241(2) 0.5961(3)
H5_41 H 0.955080 0.244913 0.574327
C6_41 C 0.9907(2) 0.1891(3) 0.6517(3)
C7_41 C 0.9954(2) 0.2252(3) 0.6256(3)
O5_42 O 0.02425(18) 0.70545(16) 0.39443(17)
O6_42 O 0.06196(19) 0.7464(2) 0.3462(2)
H6_42 H 0.009253 0.818716 0.325265
C8_42 C 0.0295(2) 0.7402(2) 0.3716(2)
O7_42 O 0.0350(6) 0.6098(6) 0.4336(5)
H7_42 H 0.026677 0.585167 0.423199
H8_42 H 0.016577 0.618677 0.452619
C5_42 C 0.9605(2) 0.7759(2) 0.4039(3)
H5_42 H 0.955080 0.755087 0.425673
C6_42 C 0.9907(2) 0.8109(3) 0.3483(3)
C7_42 C 0.9954(2) 0.7748(3) 0.3744(3)
C5_43 C 0.0395(2) 0.2241(2) 0.4039(3)
H5_43 H 0.044920 0.244913 0.425673
C6_43 C 0.0093(2) 0.1891(3) 0.3483(3)
C7_43 C 0.0046(2) 0.2252(3) 0.3744(3)
O5_43 O 0.97575(18) 0.29455(16) 0.39443(17)
O6_43 O 0.93804(19) 0.2536(2) 0.3462(2)
H6_43 H 0.990747 0.181284 0.325265
C8_43 C 0.9705(2) 0.2598(2) 0.3716(2)
O7_43 O 0.9650(6) 0.3902(6) 0.4336(5)
H7_43 H 0.973323 0.414833 0.423199
H8_43 H 0.983423 0.381323 0.452619
Li1 Li 0.6768(4) 0.1768(4) 0.3232(4)
Li1_2 Li 0.1768(4) 0.3232(4) 0.1768(4)
Li1_3 Li 0.3232(4) 0.8232(4) 0.3232(4)
Li1_4 Li 0.8232(4) 0.6768(4) 0.1768(4)
Li1_5 Li 0.6768(4) 0.8232(4) 0.6768(4)
Li1_6 Li 0.8232(4) 0.3232(4) 0.8232(4)
Li1_7 Li 0.3232(4) 0.1768(4) 0.6768(4)
Li1_8 Li 0.1768(4) 0.6768(4) 0.8232(4)
Li1_9 Li 0.3232(4) 0.6768(4) 0.1768(4)
Li1_10 Li 0.6768(4) 0.6768(4) 0.3232(4)
Li1_11 Li 0.6768(4) 0.3232(4) 0.1768(4)
Li1_12 Li 0.3232(4) 0.3232(4) 0.3232(4)
Li1_13 Li 0.3232(4) 0.3232(4) 0.8232(4)
Li1_14 Li 0.3232(4) 0.6768(4) 0.6768(4)
Li1_15 Li 0.6768(4) 0.6768(4) 0.8232(4)
Li1_16 Li 0.6768(4) 0.3232(4) 0.6768(4)
Li1_17 Li 0.1768(4) 0.3232(4) 0.6768(4)
Li1_18 Li 0.8232(4) 0.1768(4) 0.6768(4)
Li1_19 Li 0.8232(4) 0.8232(4) 0.3232(4)
Li1_20 Li 0.1768(4) 0.8232(4) 0.6768(4)
Li1_21 Li 0.1768(4) 0.1768(4) 0.3232(4)
Li1_22 Li 0.1768(4) 0.1768(4) 0.8232(4)
Li1_23 Li 0.8232(4) 0.1768(4) 0.1768(4)
Li1_24 Li 0.8232(4) 0.8232(4) 0.8232(4)
Li1_25 Li 0.6768(4) 0.1768(4) 0.8232(4)
Li1_26 Li 0.3232(4) 0.8232(4) 0.8232(4)
Li1_27 Li 0.3232(4) 0.1768(4) 0.1768(4)
Li1_28 Li 0.6768(4) 0.8232(4) 0.1768(4)
Li1_29 Li 0.1768(4) 0.8232(4) 0.1768(4)
Li1_30 Li 0.1768(4) 0.6768(4) 0.3232(4)
Li1_31 Li 0.8232(4) 0.6768(4) 0.6768(4)
Li1_32 Li 0.8232(4) 0.3232(4) 0.3232(4)
loop_
_geom_bond_atom_site_label_1
_geom_bond_atom_site_label_2
_geom_bond_site_symmetry_1
_geom_bond_site_symmetry_2
Cu1 O1 1_555 1_555
O1 C4 1_555 1_555
O2 C4 1_555 1_555
O3 Cu1 1_555 1_555
N1 N2 1_555 1_555
N2 C2 1_555 1_555
C1 N1 1_555 1_555
H1 C1 1_555 1_555
C2 H2 1_555 1_555
C3 C1 1_555 1_555
C4 C3 1_555 1_555
O4 Cu1 1_555 1_555
H3 O4 1_555 1_555
H4 O4 1_555 1_555
Cu2 N2 1_555 1_555
O5 Cu2 1_555 1_555
O6 C8 1_555 1_555
N3 N4 1_555 1_555
N4 C6 1_555 1_555
C5 N3 1_555 1_555
H5 C5 1_555 1_555
C6 H6 1_555 1_555
C7 C5 1_555 1_555
C8 O5 1_555 1_555
O7 Cu2 1_555 1_555
H7 O7 1_555 1_555
H8 O7 1_555 1_555
Cu3 O8 1_555 1_555
O8 C12 1_555 1_555
O9 C12 1_555 1_555
N5 N6 1_555 1_555
N6 Cu1 1_555 1_555
C9 N5 1_555 1_555
H9 C9 1_555 1_555
C10 N6 1_555 1_555
H10 C10 1_555 1_555
C11 C9 1_555 1_555
C12 C11 1_555 1_555
O10 Cu3 1_555 1_555
H11 O10 1_555 1_555
H12 O10 1_555 1_555
Cu4 N3 1_555 1_555
Cu5 N4 1_555 1_555
Cu6 O3 1_555 1_555
Cu7 O3 1_555 1_555
Cu8 N1 1_555 1_555
O11 Cu2 1_555 1_555
O12 Cu3 1_555 1_555
N7 Cu2 1_555 1_555
N8 Cu3 1_555 1_555
N9 Cu1 1_555 1_555
N10 Cu3 1_555 1_555
C2 C3 1_555 1_555
C6 C7 1_555 1_555
C7 C8 1_555 1_555
N5 Cu6 1_555 1_555
C10 C11 1_555 1_555
Cu8 O11 1_555 1_555
Cu1_2 O1_2 1_555 1_555
O1_2 C4_2 1_555 1_555
O2_2 C4_2 1_555 1_555
O3_2 Cu1_2 1_555 1_555
N1_2 N2_2 1_555 1_555
N2_2 C2_2 1_555 1_555
C1_2 N1_2 1_555 1_555
H1_2 C1_2 1_555 1_555
C2_2 H2_2 1_555 1_555
C3_2 C1_2 1_555 1_555
C4_2 C3_2 1_555 1_555
O4_2 Cu1_2 1_555 1_555
H3_2 O4_2 1_555 1_555
H4_2 O4_2 1_555 1_555
Cu2_2 N2_2 1_555 1_555
O5_2 Cu2_2 1_555 1_555
O6_2 C8_2 1_555 1_555
N7 N4_2 1_555 1_555
N4_2 C6_2 1_555 1_555
C5_2 N7 1_555 1_555
H5_2 C5_2 1_555 1_555
C6_2 H6_2 1_555 1_555
C7_2 C5_2 1_555 1_555
C8_2 O5_2 1_555 1_555
O7_2 Cu2_2 1_555 1_555
H7_2 O7_2 1_555 1_555
H8_2 O7_2 1_555 1_555
Cu3_2 O8_2 1_555 1_555
O8_2 C12_2 1_555 1_555
O9_2 C12_2 1_555 1_555
N5_2 N6_2 1_555 1_555
N6_2 Cu1_2 1_555 1_555
C9_2 N5_2 1_555 1_555
H9_2 C9_2 1_555 1_555
C10_2 N6_2 1_555 1_555
H10_2 C10_2 1_555 1_555
C11_2 C9_2 1_555 1_555
C12_2 C11_2 1_555 1_555
O10_2 Cu3_2 1_555 1_555
H11_2 O10_2 1_555 1_555
H12_2 O10_2 1_555 1_555
Cu5_2 N4_2 1_555 1_555
Cu6_2 O3_2 1_555 1_555
Cu7_2 O3_2 1_555 1_555
Cu8_2 N1_2 1_555 1_555
O11_2 Cu2_2 1_555 1_555
O12_2 Cu3_2 1_555 1_555
N7_2 Cu2_2 1_555 1_555
N8_2 Cu3_2 1_555 1_555
N9_2 Cu1_2 1_555 1_555
N10_2 Cu3_2 1_555 1_555
C2_2 C3_2 1_555 1_555
C6_2 C7_2 1_555 1_555
C7_2 C8_2 1_555 1_555
N5_2 Cu6_2 1_555 1_555
C10_2 C11_2 1_555 1_555
Cu8_2 O11_2 1_555 1_555
Cu1_3 O1_3 1_555 1_555
O1_3 C4_3 1_555 1_555
O2_3 C4_3 1_555 1_555
O3_3 Cu1_3 1_555 1_555
N1_3 N2_3 1_555 1_555
N2_3 C2_3 1_555 1_555
C1_3 N1_3 1_555 1_555
H1_3 C1_3 1_555 1_555
C2_3 H2_3 1_555 1_555
C3_3 C1_3 1_555 1_555
C4_3 C3_3 1_555 1_555
O4_3 Cu1_3 1_555 1_555
H3_3 O4_3 1_555 1_555
H4_3 O4_3 1_555 1_555
Cu2_3 N2_3 1_555 1_555
O5_3 Cu2_3 1_555 1_555
O6_3 C8_3 1_555 1_555
N7_2 N4_3 1_555 1_555
N4_3 C6_3 1_555 1_555
C5_3 N7_2 1_555 1_555
H5_3 C5_3 1_555 1_555
C6_3 H6_3 1_555 1_555
C7_3 C5_3 1_555 1_555
C8_3 O5_3 1_555 1_555
O7_3 Cu2_3 1_555 1_555
H7_3 O7_3 1_555 1_555
H8_3 O7_3 1_555 1_555
Cu3_3 O8_3 1_555 1_555
O8_3 C12_3 1_555 1_555
O9_3 C12_3 1_555 1_555
N5_3 N6_3 1_555 1_555
N6_3 Cu1_3 1_555 1_555
C9_3 N5_3 1_555 1_555
H9_3 C9_3 1_555 1_555
C10_3 N6_3 1_555 1_555
H10_3 C10_3 1_555 1_555
C11_3 C9_3 1_555 1_555
C12_3 C11_3 1_555 1_555
O10_3 Cu3_3 1_555 1_555
H11_3 O10_3 1_555 1_555
H12_3 O10_3 1_555 1_555
Cu5_3 N4_3 1_555 1_555
Cu6_3 O3_3 1_555 1_555
Cu7_3 O3_3 1_555 1_555
Cu8_3 N1_3 1_555 1_555
O11_3 Cu2_3 1_555 1_555
O12_3 Cu3_3 1_555 1_555
N7_3 Cu2_3 1_555 1_555
N8_3 Cu3_3 1_555 1_555
N9_3 Cu1_3 1_555 1_555
N10_3 Cu3_3 1_555 1_555
C2_3 C3_3 1_555 1_555
C6_3 C7_3 1_555 1_555
C7_3 C8_3 1_555 1_555
N5_3 Cu6_3 1_555 1_555
C10_3 C11_3 1_555 1_555
Cu8_3 O11_3 1_555 1_555
Cu1_4 O1_4 1_555 1_555
O1_4 C4_4 1_555 1_555
O2_4 C4_4 1_555 1_555
O3_4 Cu1_4 1_555 1_555
N1_4 N2_4 1_555 1_555
N2_4 C2_4 1_555 1_555
C1_4 N1_4 1_555 1_555
H1_4 C1_4 1_555 1_555
C2_4 H2_4 1_555 1_555
C3_4 C1_4 1_555 1_555
C4_4 C3_4 1_555 1_555
O4_4 Cu1_4 1_555 1_555
H3_4 O4_4 1_555 1_555
H4_4 O4_4 1_555 1_555
Cu4 N2_4 1_555 1_555
O5_4 Cu4 1_555 1_555
O6_4 C8_4 1_555 1_555
N7_3 N4_4 1_555 1_555
N4_4 C6_4 1_555 1_555
C5_4 N7_3 1_555 1_555
H5_4 C5_4 1_555 1_555
C6_4 H6_4 1_555 1_555
C7_4 C5_4 1_555 1_555
C8_4 O5_4 1_555 1_555
O7_4 Cu4 1_555 1_555
H7_4 O7_4 1_555 1_555
H8_4 O7_4 1_555 1_555
Cu3_4 O8_4 1_555 1_555
O8_4 C12_4 1_555 1_555
O9_4 C12_4 1_555 1_555
N5_4 N6_4 1_555 1_555
N6_4 Cu1_4 1_555 1_555
C9_4 N5_4 1_555 1_555
H9_4 C9_4 1_555 1_555
C10_4 N6_4 1_555 1_555
H10_4 C10_4 1_555 1_555
C11_4 C9_4 1_555 1_555
C12_4 C11_4 1_555 1_555
O10_4 Cu3_4 1_555 1_555
H11_4 O10_4 1_555 1_555
H12_4 O10_4 1_555 1_555
Cu5_4 N4_4 1_555 1_555
Cu6_4 O3_4 1_555 1_555
Cu7_4 O3_4 1_555 1_555
Cu8_4 N1_4 1_555 1_555
O11_4 Cu4 1_555 1_555
O12_4 Cu3_4 1_555 1_555
N8_4 Cu3_4 1_555 1_555
N9_4 Cu1_4 1_555 1_555
N10_4 Cu3_4 1_555 1_555
C2_4 C3_4 1_555 1_555
C6_4 C7_4 1_555 1_555
C7_4 C8_4 1_555 1_555
N5_4 Cu6_4 1_555 1_555
C10_4 C11_4 1_555 1_555
Cu8_4 O11_4 1_555 1_555
Cu1_5 O1_5 1_555 1_555
O1_5 C4_5 1_555 1_555
O2_5 C4_5 1_555 1_555
O3_5 Cu1_5 1_555 1_555
N1_5 N2_5 1_555 1_555
N2_5 C2_5 1_555 1_555
C1_5 N1_5 1_555 1_555
H1_5 C1_5 1_555 1_555
C2_5 H2_5 1_555 1_555
C3_5 C1_5 1_555 1_555
C4_5 C3_5 1_555 1_555
O4_5 Cu1_5 1_555 1_555
H3_5 O4_5 1_555 1_555
H4_5 O4_5 1_555 1_555
Cu2_4 N2_5 1_555 1_555
O5_5 Cu2_4 1_555 1_555
O6_5 C8_5 1_555 1_555
N3_2 N4_5 1_555 1_555
N4_5 C6_5 1_555 1_555
C5_5 N3_2 1_555 1_555
H5_5 C5_5 1_555 1_555
C6_5 H6_5 1_555 1_555
C7_5 C5_5 1_555 1_555
C8_5 O5_5 1_555 1_555
O7_5 Cu2_4 1_555 1_555
H7_5 O7_5 1_555 1_555
H8_5 O7_5 1_555 1_555
Cu3_5 O8_5 1_555 1_555
O8_5 C12_5 1_555 1_555
O9_5 C12_5 1_555 1_555
N5_5 N6_5 1_555 1_555
N6_5 Cu1_5 1_555 1_555
C9_5 N5_5 1_555 1_555
H9_5 C9_5 1_555 1_555
C10_5 N6_5 1_555 1_555
H10_5 C10_5 1_555 1_555
C11_5 C9_5 1_555 1_555
C12_5 C11_5 1_555 1_555
O10_5 Cu3_5 1_555 1_555
H11_5 O10_5 1_555 1_555
H12_5 O10_5 1_555 1_555
Cu4_2 N3_2 1_555 1_555
Cu5_5 N4_5 1_555 1_555
Cu6_5 O3_5 1_555 1_555
Cu7_5 O3_5 1_555 1_555
Cu8_5 N1_5 1_555 1_555
O11_5 Cu2_4 1_555 1_555
O12_5 Cu3_5 1_555 1_555
N7_4 Cu2_4 1_555 1_555
N8_5 Cu3_5 1_555 1_555
N9_5 Cu1_5 1_555 1_555
N10_5 Cu3_5 1_555 1_555
C2_5 C3_5 1_555 1_555
C6_5 C7_5 1_555 1_555
C7_5 C8_5 1_555 1_555
N5_5 Cu6_5 1_555 1_555
C10_5 C11_5 1_555 1_555
Cu8_5 O11_5 1_555 1_555
Cu1_6 O1_6 1_555 1_555
O1_6 C4_6 1_555 1_555
O2_6 C4_6 1_555 1_555
O3_6 Cu1_6 1_555 1_555
N1_6 N2_6 1_555 1_555
N2_6 C2_6 1_555 1_555
C1_6 N1_6 1_555 1_555
H1_6 C1_6 1_555 1_555
C2_6 H2_6 1_555 1_555
C3_6 C1_6 1_555 1_555
C4_6 C3_6 1_555 1_555
O4_6 Cu1_6 1_555 1_555
H3_6 O4_6 1_555 1_555
H4_6 O4_6 1_555 1_555
Cu4_2 N2_6 1_555 1_555
O5_6 Cu4_2 1_555 1_555
O6_6 C8_6 1_555 1_555
N3_3 N4_6 1_555 1_555
N4_6 C6_6 1_555 1_555
C5_6 N3_3 1_555 1_555
H5_6 C5_6 1_555 1_555
C6_6 H6_6 1_555 1_555
C7_6 C5_6 1_555 1_555
C8_6 O5_6 1_555 1_555
O7_6 Cu4_2 1_555 1_555
H7_6 O7_6 1_555 1_555
H8_6 O7_6 1_555 1_555
Cu3_6 O8_6 1_555 1_555
O8_6 C12_6 1_555 1_555
O9_6 C12_6 1_555 1_555
N5_6 N6_6 1_555 1_555
N6_6 Cu1_6 1_555 1_555
C9_6 N5_6 1_555 1_555
H9_6 C9_6 1_555 1_555
C10_6 N6_6 1_555 1_555
H10_6 C10_6 1_555 1_555
C11_6 C9_6 1_555 1_555
C12_6 C11_6 1_555 1_555
O10_6 Cu3_6 1_555 1_555
H11_6 O10_6 1_555 1_555
H12_6 O10_6 1_555 1_555
Cu4_3 N3_3 1_555 1_555
Cu5_6 N4_6 1_555 1_555
Cu6_6 O3_6 1_555 1_555
Cu7_6 O3_6 1_555 1_555
Cu8_6 N1_6 1_555 1_555
O11_6 Cu4_2 1_555 1_555
O12_6 Cu3_6 1_555 1_555
N8_6 Cu3_6 1_555 1_555
N9_6 Cu1_6 1_555 1_555
N10_6 Cu3_6 1_555 1_555
C2_6 C3_6 1_555 1_555
C6_6 C7_6 1_555 1_555
C7_6 C8_6 1_555 1_555
N5_6 Cu6_6 1_555 1_555
C10_6 C11_6 1_555 1_555
Cu8_6 O11_6 1_555 1_555
Cu1_7 O1_7 1_555 1_555
O1_7 C4_7 1_555 1_555
O2_7 C4_7 1_555 1_555
O3_7 Cu1_7 1_555 1_555
N1_7 N2_7 1_555 1_555
N2_7 C2_7 1_555 1_555
C1_7 N1_7 1_555 1_555
H1_7 C1_7 1_555 1_555
C2_7 H2_7 1_555 1_555
C3_7 C1_7 1_555 1_555
C4_7 C3_7 1_555 1_555
O4_7 Cu1_7 1_555 1_555
H3_7 O4_7 1_555 1_555
H4_7 O4_7 1_555 1_555
Cu4_3 N2_7 1_555 1_555
O5_7 Cu4_3 1_555 1_555
O6_7 C8_7 1_555 1_555
N3_4 N4_7 1_555 1_555
N4_7 C6_7 1_555 1_555
C5_7 N3_4 1_555 1_555
H5_7 C5_7 1_555 1_555
C6_7 H6_7 1_555 1_555
C7_7 C5_7 1_555 1_555
C8_7 O5_7 1_555 1_555
O7_7 Cu4_3 1_555 1_555
H7_7 O7_7 1_555 1_555
H8_7 O7_7 1_555 1_555
Cu3_7 O8_7 1_555 1_555
O8_7 C12_7 1_555 1_555
O9_7 C12_7 1_555 1_555
N5_7 N6_7 1_555 1_555
N6_7 Cu1_7 1_555 1_555
C9_7 N5_7 1_555 1_555
H9_7 C9_7 1_555 1_555
C10_7 N6_7 1_555 1_555
H10_7 C10_7 1_555 1_555
C11_7 C9_7 1_555 1_555
C12_7 C11_7 1_555 1_555
O10_7 Cu3_7 1_555 1_555
H11_7 O10_7 1_555 1_555
H12_7 O10_7 1_555 1_555
Cu4_4 N3_4 1_555 1_555
Cu5_7 N4_7 1_555 1_555
Cu6_7 O3_7 1_555 1_555
Cu7_7 O3_7 1_555 1_555
Cu8_7 N1_7 1_555 1_555
O11_7 Cu4_3 1_555 1_555
O12_7 Cu3_7 1_555 1_555
N8_7 Cu3_7 1_555 1_555
N9_7 Cu1_7 1_555 1_555
N10_7 Cu3_7 1_555 1_555
C2_7 C3_7 1_555 1_555
C6_7 C7_7 1_555 1_555
C7_7 C8_7 1_555 1_555
N5_7 Cu6_7 1_555 1_555
C10_7 C11_7 1_555 1_555
Cu8_7 O11_7 1_555 1_555
Cu1_8 O1_8 1_555 1_555
O1_8 C4_8 1_555 1_555
O2_8 C4_8 1_555 1_555
O3_8 Cu1_8 1_555 1_555
N1_8 N2_8 1_555 1_555
N2_8 C2_8 1_555 1_555
C1_8 N1_8 1_555 1_555
H1_8 C1_8 1_555 1_555
C2_8 H2_8 1_555 1_555
C3_8 C1_8 1_555 1_555
C4_8 C3_8 1_555 1_555
O4_8 Cu1_8 1_555 1_555
H3_8 O4_8 1_555 1_555
H4_8 O4_8 1_555 1_555
Cu4_4 N2_8 1_555 1_555
O5_8 Cu4_4 1_555 1_555
O6_8 C8_8 1_555 1_555
N7_4 N4_8 1_555 1_555
N4_8 C6_8 1_555 1_555
C5_8 N7_4 1_555 1_555
H5_8 C5_8 1_555 1_555
C6_8 H6_8 1_555 1_555
C7_8 C5_8 1_555 1_555
C8_8 O5_8 1_555 1_555
O7_8 Cu4_4 1_555 1_555
H7_8 O7_8 1_555 1_555
H8_8 O7_8 1_555 1_555
Cu3_8 O8_8 1_555 1_555
O8_8 C12_8 1_555 1_555
O9_8 C12_8 1_555 1_555
N5_8 N6_8 1_555 1_555
N6_8 Cu1_8 1_555 1_555
C9_8 N5_8 1_555 1_555
H9_8 C9_8 1_555 1_555
C10_8 N6_8 1_555 1_555
H10_8 C10_8 1_555 1_555
C11_8 C9_8 1_555 1_555
C12_8 C11_8 1_555 1_555
O10_8 Cu3_8 1_555 1_555
H11_8 O10_8 1_555 1_555
H12_8 O10_8 1_555 1_555
Cu5_8 N4_8 1_555 1_555
Cu6_8 O3_8 1_555 1_555
Cu7_8 O3_8 1_555 1_555
Cu8_8 N1_8 1_555 1_555
O11_8 Cu4_4 1_555 1_555
O12_8 Cu3_8 1_555 1_555
N8_8 Cu3_8 1_555 1_555
N9_8 Cu1_8 1_555 1_555
N10_8 Cu3_8 1_555 1_555
C2_8 C3_8 1_555 1_555
C6_8 C7_8 1_555 1_555
C7_8 C8_8 1_555 1_555
N5_8 Cu6_8 1_555 1_555
C10_8 C11_8 1_555 1_555
Cu8_8 O11_8 1_555 1_555
O5_9 Cu5_2 1_555 1_555
O6_9 C8_9 1_555 1_555
N3_5 N10_2 1_555 1_555
N10_2 C6_9 1_555 1_555
C5_9 N3_5 1_555 1_555
H5_9 C5_9 1_555 1_555
C6_9 H6_9 1_555 1_555
C7_9 C5_9 1_555 1_555
C8_9 O5_9 1_555 1_555
O7_9 Cu5_2 1_555 1_555
H7_9 O7_9 1_555 1_555
H8_9 O7_9 1_555 1_555
Cu4_5 N3_5 1_555 1_555
Cu5_3 O11_2 1_555 1_555
O11 Cu5_2 1_555 1_555
N7_5 Cu5_2 1_555 1_555
C6_9 C7_9 1_555 1_555
C7_9 C8_9 1_555 1_555
O5_10 Cu5_3 1_555 1_555
O6_10 C8_10 1_555 1_555
N3_6 N10_3 1_555 1_555
N10_3 C6_10 1_555 1_555
C5_10 N3_6 1_555 1_555
H5_10 C5_10 1_555 1_555
C6_10 H6_10 1_555 1_555
C7_10 C5_10 1_555 1_555
C8_10 O5_10 1_555 1_555
O7_10 Cu5_3 1_555 1_555
H7_10 O7_10 1_555 1_555
H8_10 O7_10 1_555 1_555
Cu4_6 N3_6 1_555 1_555
Cu5_4 O11_3 1_555 1_555
N7_6 Cu5_3 1_555 1_555
C6_10 C7_10 1_555 1_555
C7_10 C8_10 1_555 1_555
O5_11 Cu5_4 1_555 1_555
O6_11 C8_11 1_555 1_555
N3_7 N10_4 1_555 1_555
N10_4 C6_11 1_555 1_555
C5_11 N3_7 1_555 1_555
H5_11 C5_11 1_555 1_555
C6_11 H6_11 1_555 1_555
C7_11 C5_11 1_555 1_555
C8_11 O5_11 1_555 1_555
O7_11 Cu5_4 1_555 1_555
H7_11 O7_11 1_555 1_555
H8_11 O7_11 1_555 1_555
Cu4_7 N3_7 1_555 1_555
Cu5 O11_4 1_555 1_555
N7_7 Cu5_4 1_555 1_555
C6_11 C7_11 1_555 1_555
C7_11 C8_11 1_555 1_555
O5_12 Cu5 1_555 1_555
O6_12 C8_12 1_555 1_555
N3_8 N10 1_555 1_555
N10 C6_12 1_555 1_555
C5_12 N3_8 1_555 1_555
H5_12 C5_12 1_555 1_555
C6_12 H6_12 1_555 1_555
C7_12 C5_12 1_555 1_555
C8_12 O5_12 1_555 1_555
O7_12 Cu5 1_555 1_555
H7_12 O7_12 1_555 1_555
H8_12 O7_12 1_555 1_555
Cu4_8 N3_8 1_555 1_555
N7_8 Cu5 1_555 1_555
C6_12 C7_12 1_555 1_555
C7_12 C8_12 1_555 1_555
O5_13 Cu5_8 1_555 1_555
O6_13 C8_13 1_555 1_555
N3_9 N10_8 1_555 1_555
N10_8 C6_13 1_555 1_555
C5_13 N3_9 1_555 1_555
H5_13 C5_13 1_555 1_555
C6_13 H6_13 1_555 1_555
C7_13 C5_13 1_555 1_555
C8_13 O5_13 1_555 1_555
O7_13 Cu5_8 1_555 1_555
H7_13 O7_13 1_555 1_555
H8_13 O7_13 1_555 1_555
Cu4_9 N3_9 1_555 1_555
Cu5_7 O11_8 1_555 1_555
O11_5 Cu5_8 1_555 1_555
N7_9 Cu5_8 1_555 1_555
C6_13 C7_13 1_555 1_555
C7_13 C8_13 1_555 1_555
O5_14 Cu5_5 1_555 1_555
O6_14 C8_14 1_555 1_555
N3_10 N10_5 1_555 1_555
N10_5 C6_14 1_555 1_555
C5_14 N3_10 1_555 1_555
H5_14 C5_14 1_555 1_555
C6_14 H6_14 1_555 1_555
C7_14 C5_14 1_555 1_555
C8_14 O5_14 1_555 1_555
O7_14 Cu5_5 1_555 1_555
H7_14 O7_14 1_555 1_555
H8_14 O7_14 1_555 1_555
Cu4_10 N3_10 1_555 1_555
O11_6 Cu5_5 1_555 1_555
N7_10 Cu5_5 1_555 1_555
C6_14 C7_14 1_555 1_555
C7_14 C8_14 1_555 1_555
O5_15 Cu5_6 1_555 1_555
O6_15 C8_15 1_555 1_555
N3_11 N10_6 1_555 1_555
N10_6 C6_15 1_555 1_555
C5_15 N3_11 1_555 1_555
H5_15 C5_15 1_555 1_555
C6_15 H6_15 1_555 1_555
C7_15 C5_15 1_555 1_555
C8_15 O5_15 1_555 1_555
O7_15 Cu5_6 1_555 1_555
H7_15 O7_15 1_555 1_555
H8_15 O7_15 1_555 1_555
Cu4_11 N3_11 1_555 1_555
O11_7 Cu5_6 1_555 1_555
N7_11 Cu5_6 1_555 1_555
C6_15 C7_15 1_555 1_555
C7_15 C8_15 1_555 1_555
O5_16 Cu5_7 1_555 1_555
O6_16 C8_16 1_555 1_555
N3_12 N10_7 1_555 1_555
N10_7 C6_16 1_555 1_555
C5_16 N3_12 1_555 1_555
H5_16 C5_16 1_555 1_555
C6_16 H6_16 1_555 1_555
C7_16 C5_16 1_555 1_555
C8_16 O5_16 1_555 1_555
O7_16 Cu5_7 1_555 1_555
H7_16 O7_16 1_555 1_555
H8_16 O7_16 1_555 1_555
Cu4_12 N3_12 1_555 1_555
N7_12 Cu5_7 1_555 1_555
C6_16 C7_16 1_555 1_555
C7_16 C8_16 1_555 1_555
Cu4_9 O1_9 1_555 1_555
O1_9 C4_9 1_555 1_555
O2_9 C4_9 1_555 1_555
O12_8 Cu4_9 1_555 1_555
N7_5 N2_9 1_555 1_555
N2_9 C2_9 1_555 1_555
C1_9 N7_5 1_555 1_555
H1_9 C1_9 1_555 1_555
C2_9 H2_9 1_555 1_555
C3_9 C1_9 1_555 1_555
C4_9 C3_9 1_555 1_555
O4_9 Cu4_9 1_555 1_555
H3_9 O4_9 1_555 1_555
H4_9 O4_9 1_555 1_555
Cu8 N2_9 1_555 1_555
O5_17 Cu8 1_555 1_555
O6_17 C8_17 1_555 1_555
N9_7 N4_9 1_555 1_555
N4_9 C6_17 1_555 1_555
C5_17 N9_7 1_555 1_555
H5_17 C5_17 1_555 1_555
C6_17 H6_17 1_555 1_555
C7_17 C5_17 1_555 1_555
C8_17 O5_17 1_555 1_555
O7_17 Cu8 1_555 1_555
H7_17 O7_17 1_555 1_555
H8_17 O7_17 1_555 1_555
Cu3_9 O8_9 1_555 1_555
O8_9 C12_9 1_555 1_555
O9_9 C12_9 1_555 1_555
N5_9 N6_9 1_555 1_555
N6_9 Cu4_9 1_555 1_555
C9_9 N5_9 1_555 1_555
H9_9 C9_9 1_555 1_555
C10_9 N6_9 1_555 1_555
H10_9 C10_9 1_555 1_555
C11_9 C9_9 1_555 1_555
C12_9 C11_9 1_555 1_555
O10_9 Cu3_9 1_555 1_555
H11_9 O10_9 1_555 1_555
H12_9 O10_9 1_555 1_555
Cu7_7 N4_9 1_555 1_555
Cu6_9 O12_8 1_555 1_555
O12_9 Cu3_9 1_555 1_555
N8_9 Cu3_9 1_555 1_555
N10_9 Cu3_9 1_555 1_555
C2_9 C3_9 1_555 1_555
C6_17 C7_17 1_555 1_555
C7_17 C8_17 1_555 1_555
N5_9 Cu6_9 1_555 1_555
C10_9 C11_9 1_555 1_555
Cu1_9 O1_10 1_555 1_555
O1_10 C4_10 1_555 1_555
O2_10 C4_10 1_555 1_555
O3_9 Cu1_9 1_555 1_555
N1_9 N2_10 1_555 1_555
N2_10 C2_10 1_555 1_555
C1_10 N1_9 1_555 1_555
H1_10 C1_10 1_555 1_555
C2_10 H2_10 1_555 1_555
C3_10 C1_10 1_555 1_555
C4_10 C3_10 1_555 1_555
O4_10 Cu1_9 1_555 1_555
H3_10 O4_10 1_555 1_555
H4_10 O4_10 1_555 1_555
Cu4_7 N2_10 1_555 1_555
O5_18 Cu4_7 1_555 1_555
O6_18 C8_18 1_555 1_555
N7_11 N4_10 1_555 1_555
N4_10 C6_18 1_555 1_555
C5_18 N7_11 1_555 1_555
H5_18 C5_18 1_555 1_555
C6_18 H6_18 1_555 1_555
C7_18 C5_18 1_555 1_555
C8_18 O5_18 1_555 1_555
O7_18 Cu4_7 1_555 1_555
H7_18 O7_18 1_555 1_555
H8_18 O7_18 1_555 1_555
Cu7 O8_10 1_555 1_555
O8_10 C12_10 1_555 1_555
O9_10 C12_10 1_555 1_555
N5_10 N6_10 1_555 1_555
N6_10 Cu1_9 1_555 1_555
C9_10 N5_10 1_555 1_555
H9_10 C9_10 1_555 1_555
C10_10 N6_10 1_555 1_555
H10_10 C10_10 1_555 1_555
C11_10 C9_10 1_555 1_555
C12_10 C11_10 1_555 1_555
O10_10 Cu7 1_555 1_555
H11_10 O10_10 1_555 1_555
H12_10 O10_10 1_555 1_555
Cu8_7 N4_10 1_555 1_555
Cu6_10 O3_9 1_555 1_555
Cu7_9 O3_9 1_555 1_555
Cu8_9 N1_9 1_555 1_555
O12_4 Cu4_7 1_555 1_555
N8_10 Cu7 1_555 1_555
N9_9 Cu1_9 1_555 1_555
N10_10 Cu7 1_555 1_555
C2_10 C3_10 1_555 1_555
C6_18 C7_18 1_555 1_555
C7_18 C8_18 1_555 1_555
N5_10 Cu6_10 1_555 1_555
C10_10 C11_10 1_555 1_555
Cu8_9 O12_4 1_555 1_555
Cu1_10 O1_11 1_555 1_555
O1_11 C4_11 1_555 1_555
O2_11 C4_11 1_555 1_555
O3_10 Cu1_10 1_555 1_555
N1_10 N2_11 1_555 1_555
N2_11 C2_11 1_555 1_555
C1_11 N1_10 1_555 1_555
H1_11 C1_11 1_555 1_555
C2_11 H2_11 1_555 1_555
C3_11 C1_11 1_555 1_555
C4_11 C3_11 1_555 1_555
O4_11 Cu1_10 1_555 1_555
H3_11 O4_11 1_555 1_555
H4_11 O4_11 1_555 1_555
Cu4_11 N2_11 1_555 1_555
O5_19 Cu4_11 1_555 1_555
O6_19 C8_19 1_555 1_555
N7_7 N4_11 1_555 1_555
N4_11 C6_19 1_555 1_555
C5_19 N7_7 1_555 1_555
H5_19 C5_19 1_555 1_555
C6_19 H6_19 1_555 1_555
C7_19 C5_19 1_555 1_555
C8_19 O5_19 1_555 1_555
O7_19 Cu4_11 1_555 1_555
H7_19 O7_19 1_555 1_555
H8_19 O7_19 1_555 1_555
Cu7_5 O8_11 1_555 1_555
O8_11 C12_11 1_555 1_555
O9_11 C12_11 1_555 1_555
N5_11 N6_11 1_555 1_555
N6_11 Cu1_10 1_555 1_555
C9_11 N5_11 1_555 1_555
H9_11 C9_11 1_555 1_555
C10_11 N6_11 1_555 1_555
H10_11 C10_11 1_555 1_555
C11_11 C9_11 1_555 1_555
C12_11 C11_11 1_555 1_555
O10_11 Cu7_5 1_555 1_555
H11_11 O10_11 1_555 1_555
H12_11 O10_11 1_555 1_555
Cu8_3 N4_11 1_555 1_555
Cu6_11 O3_10 1_555 1_555
Cu7_10 O3_10 1_555 1_555
Cu8_10 N1_10 1_555 1_555
O12_6 Cu4_11 1_555 1_555
N8_11 Cu7_5 1_555 1_555
N9_10 Cu1_10 1_555 1_555
N10_11 Cu7_5 1_555 1_555
C2_11 C3_11 1_555 1_555
C6_19 C7_19 1_555 1_555
C7_19 C8_19 1_555 1_555
N5_11 Cu6_11 1_555 1_555
C10_11 C11_11 1_555 1_555
Cu8_10 O12_6 1_555 1_555
Cu1_11 O1_12 1_555 1_555
O1_12 C4_12 1_555 1_555
O2_12 C4_12 1_555 1_555
O3_11 Cu1_11 1_555 1_555
N1_11 N2_12 1_555 1_555
N2_12 C2_12 1_555 1_555
C1_12 N1_11 1_555 1_555
H1_12 C1_12 1_555 1_555
C2_12 H2_12 1_555 1_555
C3_12 C1_12 1_555 1_555
C4_12 C3_12 1_555 1_555
O4_12 Cu1_11 1_555 1_555
H3_12 O4_12 1_555 1_555
H4_12 O4_12 1_555 1_555
Cu4_5 N2_12 1_555 1_555
O5_20 Cu4_5 1_555 1_555
O6_20 C8_20 1_555 1_555
N7_9 N4_12 1_555 1_555
N4_12 C6_20 1_555 1_555
C5_20 N7_9 1_555 1_555
H5_20 C5_20 1_555 1_555
C6_20 H6_20 1_555 1_555
C7_20 C5_20 1_555 1_555
C8_20 O5_20 1_555 1_555
O7_20 Cu4_5 1_555 1_555
H7_20 O7_20 1_555 1_555
H8_20 O7_20 1_555 1_555
Cu7_3 O8_12 1_555 1_555
O8_12 C12_12 1_555 1_555
O9_12 C12_12 1_555 1_555
N5_12 N6_12 1_555 1_555
N6_12 Cu1_11 1_555 1_555
C9_12 N5_12 1_555 1_555
H9_12 C9_12 1_555 1_555
C10_12 N6_12 1_555 1_555
H10_12 C10_12 1_555 1_555
C11_12 C9_12 1_555 1_555
C12_12 C11_12 1_555 1_555
O10_12 Cu7_3 1_555 1_555
H11_12 O10_12 1_555 1_555
H12_12 O10_12 1_555 1_555
Cu8_5 N4_12 1_555 1_555
Cu6_12 O3_11 1_555 1_555
Cu7_11 O3_11 1_555 1_555
Cu8_11 N1_11 1_555 1_555
O12_2 Cu4_5 1_555 1_555
N8_12 Cu7_3 1_555 1_555
N9_11 Cu1_11 1_555 1_555
N10_12 Cu7_3 1_555 1_555
C2_12 C3_12 1_555 1_555
C6_20 C7_20 1_555 1_555
C7_20 C8_20 1_555 1_555
N5_12 Cu6_12 1_555 1_555
C10_12 C11_12 1_555 1_555
Cu8_11 O12_2 1_555 1_555
Cu7_7 O8_13 1_555 1_555
O8_13 C12_13 1_555 1_555
O9_13 C12_13 1_555 1_555
N5_13 N10_9 1_555 1_555
C9_13 N5_13 1_555 1_555
H9_13 C9_13 1_555 1_555
C10_13 N10_9 1_555 1_555
H10_13 C10_13 1_555 1_555
C11_13 C9_13 1_555 1_555
C12_13 C11_13 1_555 1_555
O10_13 Cu7_7 1_555 1_555
H11_13 O10_13 1_555 1_555
H12_13 O10_13 1_555 1_555
Cu6_13 O12_9 1_555 1_555
Cu7_12 O12_9 1_555 1_555
N8_13 Cu7_7 1_555 1_555
N5_13 Cu6_13 1_555 1_555
C10_13 C11_13 1_555 1_555
N1_12 N2_13 1_555 1_555
N2_13 C2_13 1_555 1_555
C1_13 N1_12 1_555 1_555
H1_13 C1_13 1_555 1_555
C3_13 C1_13 1_555 1_555
Cu4_8 N2_13 1_555 1_555
O5_21 Cu4_8 1_555 1_555
O6_21 C8_21 1_555 1_555
C8_21 O5_21 1_555 1_555
O7_21 Cu4_8 1_555 1_555
H7_21 O7_21 1_555 1_555
H8_21 O7_21 1_555 1_555
Cu7_2 O8_14 1_555 1_555
O8_14 C12_14 1_555 1_555
O9_14 C12_14 1_555 1_555
O10_14 Cu7_2 1_555 1_555
H11_14 O10_14 1_555 1_555
H12_14 O10_14 1_555 1_555
Cu8_12 N1_12 1_555 1_555
O12 Cu4_8 1_555 1_555
N8_14 Cu7_2 1_555 1_555
N10_13 Cu7_2 1_555 1_555
C2_13 C3_13 1_555 1_555
Cu8_12 O12 1_555 1_555
Cu1_12 O1_13 1_555 1_555
O1_13 C4_13 1_555 1_555
O2_13 C4_13 1_555 1_555
O3_12 Cu1_12 1_555 1_555
O4_13 Cu1_12 1_555 1_555
H3_13 O4_13 1_555 1_555
H4_13 O4_13 1_555 1_555
N7_12 N4_13 1_555 1_555
N4_13 C6_21 1_555 1_555
C5_21 N7_12 1_555 1_555
H5_21 C5_21 1_555 1_555
C7_21 C5_21 1_555 1_555
N5_14 N6_13 1_555 1_555
N6_13 Cu1_12 1_555 1_555
C9_14 N5_14 1_555 1_555
H9_14 C9_14 1_555 1_555
C10_14 N6_13 1_555 1_555
C11_14 C9_14 1_555 1_555
Cu8_8 N4_13 1_555 1_555
Cu6_14 O3_12 1_555 1_555
Cu7_13 O3_12 1_555 1_555
N9_12 Cu1_12 1_555 1_555
C6_21 C7_21 1_555 1_555
N5_14 Cu6_14 1_555 1_555
C10_14 C11_14 1_555 1_555
Cu1_13 O1_14 1_555 1_555
O1_14 C4_14 1_555 1_555
O2_14 C4_14 1_555 1_555
O3_13 Cu1_13 1_555 1_555
O4_14 Cu1_13 1_555 1_555
H3_14 O4_14 1_555 1_555
H4_14 O4_14 1_555 1_555
N7_8 N4_14 1_555 1_555
N4_14 C6_22 1_555 1_555
C5_22 N7_8 1_555 1_555
H5_22 C5_22 1_555 1_555
C7_22 C5_22 1_555 1_555
N5_15 N6_14 1_555 1_555
N6_14 Cu1_13 1_555 1_555
C9_15 N5_15 1_555 1_555
H9_15 C9_15 1_555 1_555
C10_15 N6_14 1_555 1_555
C11_15 C9_15 1_555 1_555
Cu8_4 N4_14 1_555 1_555
Cu6_15 O3_13 1_555 1_555
Cu7_14 O3_13 1_555 1_555
N9_13 Cu1_13 1_555 1_555
C6_22 C7_22 1_555 1_555
N5_15 Cu6_15 1_555 1_555
C10_15 C11_15 1_555 1_555
N1_13 N2_14 1_555 1_555
N2_14 C2_14 1_555 1_555
C1_14 N1_13 1_555 1_555
H1_14 C1_14 1_555 1_555
C3_14 C1_14 1_555 1_555
Cu4_12 N2_14 1_555 1_555
O5_22 Cu4_12 1_555 1_555
O6_22 C8_22 1_555 1_555
C8_22 O5_22 1_555 1_555
O7_22 Cu4_12 1_555 1_555
H7_22 O7_22 1_555 1_555
H8_22 O7_22 1_555 1_555
Cu7_6 O8_15 1_555 1_555
O8_15 C12_15 1_555 1_555
O9_15 C12_15 1_555 1_555
O10_15 Cu7_6 1_555 1_555
H11_15 O10_15 1_555 1_555
H12_15 O10_15 1_555 1_555
Cu8_13 N1_13 1_555 1_555
O12_7 Cu4_12 1_555 1_555
N8_15 Cu7_6 1_555 1_555
N10_14 Cu7_6 1_555 1_555
C2_14 C3_14 1_555 1_555
Cu8_13 O12_7 1_555 1_555
N1_14 N2_15 1_555 1_555
N2_15 C2_15 1_555 1_555
C1_15 N1_14 1_555 1_555
H1_15 C1_15 1_555 1_555
C3_15 C1_15 1_555 1_555
Cu4_6 N2_15 1_555 1_555
O5_23 Cu4_6 1_555 1_555
O6_23 C8_23 1_555 1_555
C8_23 O5_23 1_555 1_555
O7_23 Cu4_6 1_555 1_555
H7_23 O7_23 1_555 1_555
H8_23 O7_23 1_555 1_555
Cu7_4 O8_16 1_555 1_555
O8_16 C12_16 1_555 1_555
O9_16 C12_16 1_555 1_555
O10_16 Cu7_4 1_555 1_555
H11_16 O10_16 1_555 1_555
H12_16 O10_16 1_555 1_555
Cu8_14 N1_14 1_555 1_555
O12_3 Cu4_6 1_555 1_555
N8_16 Cu7_4 1_555 1_555
N10_15 Cu7_4 1_555 1_555
C2_15 C3_15 1_555 1_555
Cu8_14 O12_3 1_555 1_555
Cu1_14 O1_15 1_555 1_555
O1_15 C4_15 1_555 1_555
O2_15 C4_15 1_555 1_555
O3_14 Cu1_14 1_555 1_555
O4_15 Cu1_14 1_555 1_555
H3_15 O4_15 1_555 1_555
H4_15 O4_15 1_555 1_555
N7_10 N4_15 1_555 1_555
N4_15 C6_23 1_555 1_555
C5_23 N7_10 1_555 1_555
H5_23 C5_23 1_555 1_555
C7_23 C5_23 1_555 1_555
N5_16 N6_15 1_555 1_555
N6_15 Cu1_14 1_555 1_555
C9_16 N5_16 1_555 1_555
H9_16 C9_16 1_555 1_555
C10_16 N6_15 1_555 1_555
C11_16 C9_16 1_555 1_555
Cu8_6 N4_15 1_555 1_555
Cu6_16 O3_14 1_555 1_555
Cu7_15 O3_14 1_555 1_555
N9_14 Cu1_14 1_555 1_555
C6_23 C7_23 1_555 1_555
N5_16 Cu6_16 1_555 1_555
C10_16 C11_16 1_555 1_555
Cu4_10 O12_5 1_555 1_555
N8_13 N2_16 1_555 1_555
N2_16 C2_16 1_555 1_555
C1_16 N8_13 1_555 1_555
H1_16 C1_16 1_555 1_555
C3_16 C1_16 1_555 1_555
Cu6_7 N2_16 1_555 1_555
O5_24 Cu6_7 1_555 1_555
O6_24 C8_24 1_555 1_555
C8_24 O5_24 1_555 1_555
O7_24 Cu6_7 1_555 1_555
H7_24 O7_24 1_555 1_555
H8_24 O7_24 1_555 1_555
Cu7_13 O8_17 1_555 1_555
O8_17 C12_17 1_555 1_555
O9_17 C12_17 1_555 1_555
O10_17 Cu7_13 1_555 1_555
H11_17 O10_17 1_555 1_555
H12_17 O10_17 1_555 1_555
N8_17 Cu7_13 1_555 1_555
N10_16 Cu7_13 1_555 1_555
C2_16 C3_16 1_555 1_555
Cu6_12 O1_16 1_555 1_555
O1_16 C4_16 1_555 1_555
O2_16 C4_16 1_555 1_555
O4_16 Cu6_12 1_555 1_555
H3_16 O4_16 1_555 1_555
H4_16 O4_16 1_555 1_555
N8_5 N4_16 1_555 1_555
N4_16 C6_24 1_555 1_555
C5_24 N8_5 1_555 1_555
H5_24 C5_24 1_555 1_555
C7_24 C5_24 1_555 1_555
N5_17 N6_16 1_555 1_555
N6_16 Cu6_12 1_555 1_555
C9_17 N5_17 1_555 1_555
H9_17 C9_17 1_555 1_555
C10_17 N6_16 1_555 1_555
C11_17 C9_17 1_555 1_555
Cu5_9 N4_16 1_555 1_555
C6_24 C7_24 1_555 1_555
N5_17 Cu7_11 1_555 1_555
C10_17 C11_17 1_555 1_555
Cu6_10 O1_17 1_555 1_555
O1_17 C4_17 1_555 1_555
O2_17 C4_17 1_555 1_555
O4_17 Cu6_10 1_555 1_555
H3_17 O4_17 1_555 1_555
H4_17 O4_17 1_555 1_555
N8_7 N4_17 1_555 1_555
N4_17 C6_25 1_555 1_555
C5_25 N8_7 1_555 1_555
H5_25 C5_25 1_555 1_555
C7_25 C5_25 1_555 1_555
N5_18 N6_17 1_555 1_555
N6_17 Cu6_10 1_555 1_555
C9_18 N5_18 1_555 1_555
H9_18 C9_18 1_555 1_555
C10_18 N6_17 1_555 1_555
C11_18 C9_18 1_555 1_555
Cu8_13 N4_17 1_555 1_555
C6_25 C7_25 1_555 1_555
N5_18 Cu7_9 1_555 1_555
C10_18 C11_18 1_555 1_555
N8_11 N2_17 1_555 1_555
N2_17 C2_17 1_555 1_555
C1_17 N8_11 1_555 1_555
H1_17 C1_17 1_555 1_555
C3_17 C1_17 1_555 1_555
Cu6_5 N2_17 1_555 1_555
O5_25 Cu6_5 1_555 1_555
O6_25 C8_25 1_555 1_555
C8_25 O5_25 1_555 1_555
O7_25 Cu6_5 1_555 1_555
H7_25 O7_25 1_555 1_555
H8_25 O7_25 1_555 1_555
Cu7_15 O8_18 1_555 1_555
O8_18 C12_18 1_555 1_555
O9_18 C12_18 1_555 1_555
O10_18 Cu7_15 1_555 1_555
H11_18 O10_18 1_555 1_555
H12_18 O10_18 1_555 1_555
N8_18 Cu7_15 1_555 1_555
N10_17 Cu7_15 1_555 1_555
C2_17 C3_17 1_555 1_555
N8_10 N2_18 1_555 1_555
N2_18 C2_18 1_555 1_555
C1_18 N8_10 1_555 1_555
H1_18 C1_18 1_555 1_555
C3_18 C1_18 1_555 1_555
Cu6 N2_18 1_555 1_555
O5_26 Cu6 1_555 1_555
O6_26 C8_26 1_555 1_555
C8_26 O5_26 1_555 1_555
O7_26 Cu6 1_555 1_555
H7_26 O7_26 1_555 1_555
H8_26 O7_26 1_555 1_555
Cu7_14 O8_19 1_555 1_555
O8_19 C12_19 1_555 1_555
O9_19 C12_19 1_555 1_555
O10_19 Cu7_14 1_555 1_555
H11_19 O10_19 1_555 1_555
H12_19 O10_19 1_555 1_555
N8_19 Cu7_14 1_555 1_555
N10_18 Cu7_14 1_555 1_555
C2_18 C3_18 1_555 1_555
Cu6_11 O1_18 1_555 1_555
O1_18 C4_18 1_555 1_555
O2_18 C4_18 1_555 1_555
O4_18 Cu6_11 1_555 1_555
H3_18 O4_18 1_555 1_555
H4_18 O4_18 1_555 1_555
N8_3 N4_18 1_555 1_555
N4_18 C6_26 1_555 1_555
C5_26 N8_3 1_555 1_555
H5_26 C5_26 1_555 1_555
C7_26 C5_26 1_555 1_555
N5_19 N6_18 1_555 1_555
N6_18 Cu6_11 1_555 1_555
C9_19 N5_19 1_555 1_555
H9_19 C9_19 1_555 1_555
C10_19 N6_18 1_555 1_555
C11_19 C9_19 1_555 1_555
Cu8_14 N4_18 1_555 1_555
C6_26 C7_26 1_555 1_555
N5_19 Cu7_10 1_555 1_555
C10_19 C11_19 1_555 1_555
Cu6_13 O1_19 1_555 1_555
O1_19 C4_19 1_555 1_555
O2_19 C4_19 1_555 1_555
O4_19 Cu6_13 1_555 1_555
H3_19 O4_19 1_555 1_555
H4_19 O4_19 1_555 1_555
N8 N4_19 1_555 1_555
N4_19 C6_27 1_555 1_555
C5_27 N8 1_555 1_555
H5_27 C5_27 1_555 1_555
C7_27 C5_27 1_555 1_555
N5_20 N6_19 1_555 1_555
N6_19 Cu6_13 1_555 1_555
C9_20 N5_20 1_555 1_555
H9_20 C9_20 1_555 1_555
C10_20 N6_19 1_555 1_555
C11_20 C9_20 1_555 1_555
Cu8_12 N4_19 1_555 1_555
C6_27 C7_27 1_555 1_555
N5_20 Cu7_12 1_555 1_555
C10_20 C11_20 1_555 1_555
N8_12 N2_19 1_555 1_555
N2_19 C2_19 1_555 1_555
C1_19 N8_12 1_555 1_555
H1_19 C1_19 1_555 1_555
C3_19 C1_19 1_555 1_555
Cu6_3 N2_19 1_555 1_555
O5_27 Cu6_3 1_555 1_555
O6_27 C8_27 1_555 1_555
C8_27 O5_27 1_555 1_555
O7_27 Cu6_3 1_555 1_555
H7_27 O7_27 1_555 1_555
H8_27 O7_27 1_555 1_555
Cu3_10 O8_20 1_555 1_555
O8_20 C12_20 1_555 1_555
O9_20 C12_20 1_555 1_555
O10_20 Cu3_10 1_555 1_555
H11_20 O10_20 1_555 1_555
H12_20 O10_20 1_555 1_555
O12_10 Cu3_10 1_555 1_555
N8_20 Cu3_10 1_555 1_555
N10_19 Cu3_10 1_555 1_555
C2_19 C3_19 1_555 1_555
N9_12 N10_16 1_555 1_555
N10_16 C6_28 1_555 1_555
C5_28 N9_12 1_555 1_555
H5_28 C5_28 1_555 1_555
C7_28 C5_28 1_555 1_555
C6_28 C7_28 1_555 1_555
O5_28 Cu5_9 1_555 1_555
O6_28 C8_28 1_555 1_555
C8_28 O5_28 1_555 1_555
O7_28 Cu5_9 1_555 1_555
H7_28 O7_28 1_555 1_555
H8_28 O7_28 1_555 1_555
O12_5 Cu5_9 1_555 1_555
N7_13 Cu5_9 1_555 1_555
O5_29 Cu8_13 1_555 1_555
O6_29 C8_29 1_555 1_555
C8_29 O5_29 1_555 1_555
O7_29 Cu8_13 1_555 1_555
H7_29 O7_29 1_555 1_555
H8_29 O7_29 1_555 1_555
N9_14 N10_17 1_555 1_555
N10_17 C6_29 1_555 1_555
C5_29 N9_14 1_555 1_555
H5_29 C5_29 1_555 1_555
C7_29 C5_29 1_555 1_555
C6_29 C7_29 1_555 1_555
O5_30 Cu8_12 1_555 1_555
O6_30 C8_30 1_555 1_555
C8_30 O5_30 1_555 1_555
O7_30 Cu8_12 1_555 1_555
H7_30 O7_30 1_555 1_555
H8_30 O7_30 1_555 1_555
N3_13 N10_19 1_555 1_555
N10_19 C6_30 1_555 1_555
C5_30 N3_13 1_555 1_555
H5_30 C5_30 1_555 1_555
C7_30 C5_30 1_555 1_555
Cu4_13 N3_13 1_555 1_555
C6_30 C7_30 1_555 1_555
N9_13 N10_18 1_555 1_555
N10_18 C6_31 1_555 1_555
C5_31 N9_13 1_555 1_555
H5_31 C5_31 1_555 1_555
C7_31 C5_31 1_555 1_555
C6_31 C7_31 1_555 1_555
O5_31 Cu8_14 1_555 1_555
O6_31 C8_31 1_555 1_555
C8_31 O5_31 1_555 1_555
O7_31 Cu8_14 1_555 1_555
H7_31 O7_31 1_555 1_555
H8_31 O7_31 1_555 1_555
Cu4_13 O1_20 1_555 1_555
O1_20 C4_20 1_555 1_555
O2_20 C4_20 1_555 1_555
O12_10 Cu4_13 1_555 1_555
O4_20 Cu4_13 1_555 1_555
H3_20 O4_20 1_555 1_555
H4_20 O4_20 1_555 1_555
N7_6 N4_20 1_555 1_555
N4_20 C6_32 1_555 1_555
C5_32 N7_6 1_555 1_555
H5_32 C5_32 1_555 1_555
C7_32 C5_32 1_555 1_555
N5_21 N6_20 1_555 1_555
N6_20 Cu4_13 1_555 1_555
C9_21 N5_21 1_555 1_555
H9_21 C9_21 1_555 1_555
C10_21 N6_20 1_555 1_555
C11_21 C9_21 1_555 1_555
Cu8_2 N4_20 1_555 1_555
Cu6_17 O12_10 1_555 1_555
C6_32 C7_32 1_555 1_555
N5_21 Cu6_17 1_555 1_555
C10_21 C11_21 1_555 1_555
N7_13 N2_20 1_555 1_555
N2_20 C2_20 1_555 1_555
C1_20 N7_13 1_555 1_555
H1_20 C1_20 1_555 1_555
C3_20 C1_20 1_555 1_555
Cu4_10 N2_20 1_555 1_555
O5_32 Cu4_10 1_555 1_555
O6_32 C8_32 1_555 1_555
C8_32 O5_32 1_555 1_555
O7_32 Cu4_10 1_555 1_555
H7_32 O7_32 1_555 1_555
H8_32 O7_32 1_555 1_555
Cu7_8 O8_21 1_555 1_555
O8_21 C12_21 1_555 1_555
O9_21 C12_21 1_555 1_555
O10_21 Cu7_8 1_555 1_555
H11_21 O10_21 1_555 1_555
H12_21 O10_21 1_555 1_555
N8_21 Cu7_8 1_555 1_555
N10_20 Cu7_8 1_555 1_555
C2_20 C3_20 1_555 1_555
N9_4 N10_15 1_555 1_555
C9_22 N9_4 1_555 1_555
H9_22 C9_22 1_555 1_555
C10_22 N10_15 1_555 1_555
C11_22 C9_22 1_555 1_555
C10_22 C11_22 1_555 1_555
Cu8_6 O8_22 1_555 1_555
O8_22 C12_22 1_555 1_555
O9_22 C12_22 1_555 1_555
O10_22 Cu8_6 1_555 1_555
H11_22 O10_22 1_555 1_555
H12_22 O10_22 1_555 1_555
Cu8_4 O8_23 1_555 1_555
O8_23 C12_23 1_555 1_555
O9_23 C12_23 1_555 1_555
O10_23 Cu8_4 1_555 1_555
H11_23 O10_23 1_555 1_555
H12_23 O10_23 1_555 1_555
N9_6 N10_14 1_555 1_555
C9_23 N9_6 1_555 1_555
H9_23 C9_23 1_555 1_555
C10_23 N10_14 1_555 1_555
C11_23 C9_23 1_555 1_555
C10_23 C11_23 1_555 1_555
N9_2 N10_13 1_555 1_555
C9_24 N9_2 1_555 1_555
H9_24 C9_24 1_555 1_555
C10_24 N10_13 1_555 1_555
C11_24 C9_24 1_555 1_555
C10_24 C11_24 1_555 1_555
Cu8_8 O8_24 1_555 1_555
O8_24 C12_24 1_555 1_555
O9_24 C12_24 1_555 1_555
O10_24 Cu8_8 1_555 1_555
H11_24 O10_24 1_555 1_555
H12_24 O10_24 1_555 1_555
Cu8_2 O8_25 1_555 1_555
O8_25 C12_25 1_555 1_555
O9_25 C12_25 1_555 1_555
O10_25 Cu8_2 1_555 1_555
H11_25 O10_25 1_555 1_555
H12_25 O10_25 1_555 1_555
N9_8 N10_20 1_555 1_555
C9_25 N9_8 1_555 1_555
H9_25 C9_25 1_555 1_555
C10_25 N10_20 1_555 1_555
C11_25 C9_25 1_555 1_555
C10_25 C11_25 1_555 1_555
O5_33 Cu8_5 1_555 1_555
O6_33 C8_33 1_555 1_555
N9_3 N10_12 1_555 1_555
N10_12 C6_33 1_555 1_555
C5_33 N9_3 1_555 1_555
H5_33 C5_33 1_555 1_555
C6_33 H6_33 1_555 1_555
C7_33 C5_33 1_555 1_555
C8_33 O5_33 1_555 1_555
O7_33 Cu8_5 1_555 1_555
H7_33 O7_33 1_555 1_555
H8_33 O7_33 1_555 1_555
C6_33 C7_33 1_555 1_555
C7_33 C8_33 1_555 1_555
O5_34 Cu8_3 1_555 1_555
O6_34 C8_34 1_555 1_555
N9_5 N10_11 1_555 1_555
N10_11 C6_34 1_555 1_555
C5_34 N9_5 1_555 1_555
H5_34 C5_34 1_555 1_555
C6_34 H6_34 1_555 1_555
C7_34 C5_34 1_555 1_555
C8_34 O5_34 1_555 1_555
O7_34 Cu8_3 1_555 1_555
H7_34 O7_34 1_555 1_555
H8_34 O7_34 1_555 1_555
C6_34 C7_34 1_555 1_555
C7_34 C8_34 1_555 1_555
O5_35 Cu8_7 1_555 1_555
O6_35 C8_35 1_555 1_555
N9 N10_10 1_555 1_555
N10_10 C6_35 1_555 1_555
C5_35 N9 1_555 1_555
H5_35 C5_35 1_555 1_555
C6_35 H6_35 1_555 1_555
C7_35 C5_35 1_555 1_555
C8_35 O5_35 1_555 1_555
O7_35 Cu8_7 1_555 1_555
H7_35 O7_35 1_555 1_555
H8_35 O7_35 1_555 1_555
C6_35 C7_35 1_555 1_555
C7_35 C8_35 1_555 1_555
Cu6_14 O1_21 1_555 1_555
O1_21 C4_21 1_555 1_555
O2_21 C4_21 1_555 1_555
O4_21 Cu6_14 1_555 1_555
H3_21 O4_21 1_555 1_555
H4_21 O4_21 1_555 1_555
N8_8 N4_21 1_555 1_555
N4_21 C6_36 1_555 1_555
C5_36 N8_8 1_555 1_555
H5_36 C5_36 1_555 1_555
C7_36 C5_36 1_555 1_555
N8_17 N6_21 1_555 1_555
N6_21 Cu6_14 1_555 1_555
C9_26 N8_17 1_555 1_555
H9_26 C9_26 1_555 1_555
C10_26 N6_21 1_555 1_555
C11_26 C9_26 1_555 1_555
Cu6_9 N4_21 1_555 1_555
C6_36 C7_36 1_555 1_555
C10_26 C11_26 1_555 1_555
N8_15 N2_21 1_555 1_555
N2_21 C2_21 1_555 1_555
C1_21 N8_15 1_555 1_555
H1_21 C1_21 1_555 1_555
C3_21 C1_21 1_555 1_555
Cu6_6 N2_21 1_555 1_555
O5_36 Cu6_6 1_555 1_555
O6_36 C8_36 1_555 1_555
C8_36 O5_36 1_555 1_555
O7_36 Cu6_6 1_555 1_555
H7_36 O7_36 1_555 1_555
H8_36 O7_36 1_555 1_555
Cu7_9 O8_26 1_555 1_555
O8_26 C12_26 1_555 1_555
O9_26 C12_26 1_555 1_555
O10_26 Cu7_9 1_555 1_555
H11_26 O10_26 1_555 1_555
H12_26 O10_26 1_555 1_555
N10_21 Cu7_9 1_555 1_555
C2_21 C3_21 1_555 1_555
N8_21 N2_22 1_555 1_555
N2_22 C2_22 1_555 1_555
C1_22 N8_21 1_555 1_555
H1_22 C1_22 1_555 1_555
C3_22 C1_22 1_555 1_555
Cu6_8 N2_22 1_555 1_555
O5_37 Cu6_8 1_555 1_555
O6_37 C8_37 1_555 1_555
C8_37 O5_37 1_555 1_555
O7_37 Cu6_8 1_555 1_555
H7_37 O7_37 1_555 1_555
H8_37 O7_37 1_555 1_555
Cu7_11 O8_27 1_555 1_555
O8_27 C12_27 1_555 1_555
O9_27 C12_27 1_555 1_555
O10_27 Cu7_11 1_555 1_555
H11_27 O10_27 1_555 1_555
H12_27 O10_27 1_555 1_555
N10_22 Cu7_11 1_555 1_555
C2_22 C3_22 1_555 1_555
Cu6_16 O1_22 1_555 1_555
O1_22 C4_22 1_555 1_555
O2_22 C4_22 1_555 1_555
O4_22 Cu6_16 1_555 1_555
H3_22 O4_22 1_555 1_555
H4_22 O4_22 1_555 1_555
N8_6 N4_22 1_555 1_555
N4_22 C6_37 1_555 1_555
C5_37 N8_6 1_555 1_555
H5_37 C5_37 1_555 1_555
C7_37 C5_37 1_555 1_555
N8_18 N6_22 1_555 1_555
N6_22 Cu6_16 1_555 1_555
C9_27 N8_18 1_555 1_555
H9_27 C9_27 1_555 1_555
C10_27 N6_22 1_555 1_555
C11_27 C9_27 1_555 1_555
Cu8_10 N4_22 1_555 1_555
C6_37 C7_37 1_555 1_555
C10_27 C11_27 1_555 1_555
Cu6_17 O1_23 1_555 1_555
O1_23 C4_23 1_555 1_555
O2_23 C4_23 1_555 1_555
O4_23 Cu6_17 1_555 1_555
H3_23 O4_23 1_555 1_555
H4_23 O4_23 1_555 1_555
N8_2 N4_23 1_555 1_555
N4_23 C6_38 1_555 1_555
C5_38 N8_2 1_555 1_555
H5_38 C5_38 1_555 1_555
C7_38 C5_38 1_555 1_555
N8_20 N6_23 1_555 1_555
N6_23 Cu6_17 1_555 1_555
C9_28 N8_20 1_555 1_555
H9_28 C9_28 1_555 1_555
C10_28 N6_23 1_555 1_555
C11_28 C9_28 1_555 1_555
Cu8_11 N4_23 1_555 1_555
C6_38 C7_38 1_555 1_555
C10_28 C11_28 1_555 1_555
N8_16 N2_23 1_555 1_555
N2_23 C2_23 1_555 1_555
C1_23 N8_16 1_555 1_555
H1_23 C1_23 1_555 1_555
C3_23 C1_23 1_555 1_555
Cu6_4 N2_23 1_555 1_555
O5_38 Cu6_4 1_555 1_555
O6_38 C8_38 1_555 1_555
C8_38 O5_38 1_555 1_555
O7_38 Cu6_4 1_555 1_555
H7_38 O7_38 1_555 1_555
H8_38 O7_38 1_555 1_555
Cu7_10 O8_28 1_555 1_555
O8_28 C12_28 1_555 1_555
O9_28 C12_28 1_555 1_555
O10_28 Cu7_10 1_555 1_555
H11_28 O10_28 1_555 1_555
H12_28 O10_28 1_555 1_555
N10_23 Cu7_10 1_555 1_555
C2_23 C3_23 1_555 1_555
N8_14 N2_24 1_555 1_555
N2_24 C2_24 1_555 1_555
C1_24 N8_14 1_555 1_555
H1_24 C1_24 1_555 1_555
C3_24 C1_24 1_555 1_555
Cu6_2 N2_24 1_555 1_555
O5_39 Cu6_2 1_555 1_555
O6_39 C8_39 1_555 1_555
C8_39 O5_39 1_555 1_555
O7_39 Cu6_2 1_555 1_555
H7_39 O7_39 1_555 1_555
H8_39 O7_39 1_555 1_555
Cu7_12 O8_29 1_555 1_555
O8_29 C12_29 1_555 1_555
O9_29 C12_29 1_555 1_555
O10_29 Cu7_12 1_555 1_555
H11_29 O10_29 1_555 1_555
H12_29 O10_29 1_555 1_555
N10_24 Cu7_12 1_555 1_555
C2_24 C3_24 1_555 1_555
Cu6_15 O1_24 1_555 1_555
O1_24 C4_24 1_555 1_555
O2_24 C4_24 1_555 1_555
O4_24 Cu6_15 1_555 1_555
H3_24 O4_24 1_555 1_555
H4_24 O4_24 1_555 1_555
N8_4 N4_24 1_555 1_555
N4_24 C6_39 1_555 1_555
C5_39 N8_4 1_555 1_555
H5_39 C5_39 1_555 1_555
C7_39 C5_39 1_555 1_555
N8_19 N6_24 1_555 1_555
N6_24 Cu6_15 1_555 1_555
C9_29 N8_19 1_555 1_555
H9_29 C9_29 1_555 1_555
C10_29 N6_24 1_555 1_555
C11_29 C9_29 1_555 1_555
Cu8_9 N4_24 1_555 1_555
C6_39 C7_39 1_555 1_555
C10_29 C11_29 1_555 1_555
N9_11 N10_22 1_555 1_555
N10_22 C6_40 1_555 1_555
C5_40 N9_11 1_555 1_555
H5_40 C5_40 1_555 1_555
C7_40 C5_40 1_555 1_555
C6_40 C7_40 1_555 1_555
O5_40 Cu8_10 1_555 1_555
O6_40 C8_40 1_555 1_555
C8_40 O5_40 1_555 1_555
O7_40 Cu8_10 1_555 1_555
H7_40 O7_40 1_555 1_555
H8_40 O7_40 1_555 1_555
O5_41 Cu6_9 1_555 1_555
O6_41 C8_41 1_555 1_555
C8_41 O5_41 1_555 1_555
O7_41 Cu6_9 1_555 1_555
H7_41 O7_41 1_555 1_555
H8_41 O7_41 1_555 1_555
N9_9 N10_21 1_555 1_555
N10_21 C6_41 1_555 1_555
C5_41 N9_9 1_555 1_555
H5_41 C5_41 1_555 1_555
C7_41 C5_41 1_555 1_555
C6_41 C7_41 1_555 1_555
O5_42 Cu8_11 1_555 1_555
O6_42 C8_42 1_555 1_555
C8_42 O5_42 1_555 1_555
O7_42 Cu8_11 1_555 1_555
H7_42 O7_42 1_555 1_555
H8_42 O7_42 1_555 1_555
N9_10 N10_23 1_555 1_555
N10_23 C6_42 1_555 1_555
C5_42 N9_10 1_555 1_555
H5_42 C5_42 1_555 1_555
C7_42 C5_42 1_555 1_555
C6_42 C7_42 1_555 1_555
N8_9 N10_24 1_555 1_555
N10_24 C6_43 1_555 1_555
C5_43 N8_9 1_555 1_555
H5_43 C5_43 1_555 1_555
C7_43 C5_43 1_555 1_555
C6_43 C7_43 1_555 1_555
O5_43 Cu8_9 1_555 1_555
O6_43 C8_43 1_555 1_555
C8_43 O5_43 1_555 1_555
O7_43 Cu8_9 1_555 1_555
H7_43 O7_43 1_555 1_555
H8_43 O7_43 1_555 1_555

#END
