
###############################################################################
#
# This file contains modified crystal structure data generated from the
# MOF subset of the Cambridge Structural Database (CSD) v543 
# hosted by the Cambridge Crystallographic Data Centre (CCDC).
#
# This work is licensed under the Creative Commons
# Attribution-NonCommercial-ShareAlike 4.0 International License.
# To view a copy of this license, visit
# http://creativecommons.org/licenses/by-nc-sa/4.0/
# or send a letter to
# Creative Commons, PO Box 1866, Mountain View, CA 94042, USA.
#
# CIF created using the CSD Python API on 29 September 2022
# The structure has been converted into the P1 space group
# The structure has a 3D framework
# The original CSD entry NOMSUG is in the orthorhombic crystal system
# The framework has been calculated to contain at least 10.0% void space
# The void calculation uses a probe of radius 1.32A, grid spacing 0.4
# The framework is charged, counterions have been retained in the structure
# H atom positions have been added when not included in the experimental data
#
###############################################################################

data_NOMSUG
_chemical_formula_moiety         '(C416 H448 Cu96 N208 O264 8-)n'
_symmetry_cell_setting           triclinic
_symmetry_space_group_name_H-M   'P 1'
_symmetry_Int_Tables_number      1
_space_group_name_Hall           'P 1'
loop_
_symmetry_equiv_pos_site_id
_symmetry_equiv_pos_as_xyz
1 x,y,z
_cell_length_a                   29.9368(6)
_cell_length_b                   30.5854(5)
_cell_length_c                   29.7256(7)
_cell_angle_alpha                90
_cell_angle_beta                 90
_cell_angle_gamma                90
_cell_volume                     27217.6
loop_
_atom_site_label
_atom_site_type_symbol
_atom_site_fract_x
_atom_site_fract_y
_atom_site_fract_z
O2 O 0.11107(18) 0.02233(18) 0.96456(15)
O7 O 0.00279(13) 0.03321(13) 0.75591(14)
N6 N 0.03489(16) 0.03145(16) 0.84432(16)
C4 C 0.05324(17) 0.03668(18) 0.88496(19)
H3 H 0.0448 0.0576 0.9060
C5 C 0.08672(17) 0.00610(19) 0.89083(18)
C10 C 0.11729(18) 0.00034(17) 0.92987(18)
O12 O 0.03954(16) 0.13821(14) 0.83061(15)
Cu3 Cu 0.03556(3) 0.97718(3) 0.76505(3)
O1 O 0.14864(13) 0.97314(13) 0.92453(14)
O3 O 0.01683(13) 0.85488(13) 0.61567(13)
N4 N 0.00812(15) 0.95518(14) 0.71007(15)
N5 N 0.05667(17) 0.99812(16) 0.82282(16)
C6 C 0.08803(18) 0.98337(19) 0.85041(19)
H4 H 0.1080 0.9610 0.8437
C7 C 0.01868(18) 0.91915(18) 0.68474(19)
H5 H 0.0410 0.8989 0.6910
Cu4 Cu 0.19684(2) 0.97288(2) 0.96880(3)
Cu5 Cu 0.00885(3) 0.81708(3) 0.56196(3)
O13 O 0.07599(14) 0.92702(13) 0.76945(13)
O14 O 0.11745(18) 0.96628(18) 0.7244(2)
Cu1 Cu 0.94684(2) 0.02712(2) 0.71880(3)
Cu2 Cu 0.99115(3) 0.06708(3) 0.81196(3)
O5 O 0.82599(14) 0.17702(13) 0.73055(13)
O6 O 0.86745(18) 0.21628(18) 0.7756(2)
N1 N 0.94555(18) 0.09907(16) 0.77931(18)
N2 N 0.92579(17) 0.08227(16) 0.74346(17)
C1 C 0.89292(18) 0.10855(19) 0.72936(18)
H1 H 0.8743 0.1031 0.7049
C2 C 0.89095(18) 0.14577(18) 0.7574(2)
C3 C 0.9265(2) 0.1383(2) 0.7878(2)
H2 H 0.9354 0.1575 0.8103
C12 C 0.8605(2) 0.1832(2) 0.7549(2)
O8 O 0.9345(4) 0.0058(4) 0.8172(7)
Cu6 Cu 0.78556(3) 0.22718(3) 0.73495(3)
O10 O 0.89864(13) 0.02686(13) 0.67453(14)
O11 O 0.98317(13) 0.10488(13) 0.86567(13)
H16 H 0.916856 0.00907236 0.845286
O4 O 0.96046(16) 0.88821(14) 0.58061(15)
N3 N 0.97341(16) 0.97578(15) 0.69028(17)
C8 C 0.98992(17) 0.91828(16) 0.64788(19)
C9 C 0.96152(19) 0.95509(19) 0.65319(19)
H6 H 0.9385 0.9632 0.6339
C11 C 0.98958(18) 0.8846(2) 0.61221(18)
O9 O 0.9735(3) 0.9406(4) 0.8096(3)
H13 H 0.946107 0.93896 0.790838
H14 H 0.98293 0.910626 0.818235
H15 H 0.950268 0.977238 0.817526
Cu1_2 Cu 0.80316(2) 0.72288(2) 0.71880(3)
Cu2_2 Cu 0.75885(3) 0.68292(3) 0.81196(3)
Cu3_2 Cu 0.71444(3) 0.77282(3) 0.76505(3)
O1_2 O 0.60136(13) 0.77686(13) 0.92453(14)
O2_2 O 0.63893(18) 0.72767(18) 0.96456(15)
O3_2 O 0.73317(13) 0.89512(13) 0.61567(13)
O4_2 O 0.78954(16) 0.86179(14) 0.58061(15)
O5_2 O 0.92401(14) 0.57298(13) 0.73055(13)
O6_2 O 0.88255(18) 0.53372(18) 0.7756(2)
O7_2 O 0.74721(13) 0.71679(13) 0.75591(14)
N1_2 N 0.80445(18) 0.65093(16) 0.77931(18)
N2_2 N 0.82421(17) 0.66773(16) 0.74346(17)
N3_2 N 0.77659(16) 0.77422(15) 0.69028(17)
N4_2 N 0.74188(15) 0.79482(14) 0.71007(15)
N5_2 N 0.69333(17) 0.75188(16) 0.82282(16)
N6_2 N 0.71511(16) 0.71855(16) 0.84432(16)
C1_2 C 0.85708(18) 0.64145(19) 0.72936(18)
H1_2 H 0.8757 0.6469 0.7049
C2_2 C 0.85905(18) 0.60423(18) 0.7574(2)
C3_2 C 0.8235(2) 0.6117(2) 0.7878(2)
H2_2 H 0.8146 0.5925 0.8103
C4_2 C 0.69676(17) 0.71332(18) 0.88496(19)
H3_2 H 0.7052 0.6924 0.9060
C5_2 C 0.66328(17) 0.74390(19) 0.89083(18)
C6_2 C 0.66197(18) 0.76663(19) 0.85041(19)
H4_2 H 0.6420 0.7890 0.8437
C7_2 C 0.73132(18) 0.83085(18) 0.68474(19)
H5_2 H 0.7090 0.8511 0.6910
C8_2 C 0.76008(17) 0.83172(16) 0.64788(19)
C9_2 C 0.78848(19) 0.79491(19) 0.65319(19)
H6_2 H 0.8115 0.7868 0.6339
C10_2 C 0.63271(18) 0.74966(17) 0.92987(18)
C11_2 C 0.76042(18) 0.8654(2) 0.61221(18)
C12_2 C 0.8895(2) 0.5668(2) 0.7549(2)
O8_2 O 0.8155(4) 0.7442(4) 0.8172(7)
O9_2 O 0.7765(3) 0.8094(4) 0.8096(3)
Cu4_2 Cu 0.55316(2) 0.77712(2) 0.96880(3)
Cu5_2 Cu 0.74115(3) 0.93292(3) 0.56196(3)
Cu6_2 Cu 0.96444(3) 0.52282(3) 0.73495(3)
O10_2 O 0.85136(13) 0.72314(13) 0.67453(14)
O11_2 O 0.76683(13) 0.64512(13) 0.86567(13)
O12_2 O 0.71046(16) 0.61179(14) 0.83061(15)
O13_2 O 0.67401(14) 0.82298(13) 0.76945(13)
O14_2 O 0.63255(18) 0.78372(18) 0.7244(2)
H13_2 H 0.803893 0.81104 0.790838
H14_2 H 0.76707 0.839374 0.818235
H15_2 H 0.799732 0.772762 0.817526
H16_2 H 0.833144 0.740928 0.845286
Cu1_3 Cu 0.80316(2) 0.02712(2) 0.03120(3)
O5_3 O 0.92401(14) 0.17702(13) 0.01945(13)
N2_3 N 0.82421(17) 0.08227(16) 0.00654(17)
C1_3 C 0.85708(18) 0.10855(19) 0.02064(18)
H1_3 H 0.8757 0.1031 0.0451
Cu6_3 Cu 0.96444(3) 0.22718(3) 0.01505(3)
O10_3 O 0.85136(13) 0.02686(13) 0.07547(14)
Cu2_3 Cu 0.75885(3) 0.06708(3) 0.93804(3)
O2_3 O 0.63893(18) 0.02233(18) 0.78544(15)
O6_3 O 0.88255(18) 0.21628(18) 0.9744(2)
O7_3 O 0.74721(13) 0.03321(13) 0.99409(14)
N1_3 N 0.80445(18) 0.09907(16) 0.97069(18)
N6_3 N 0.71511(16) 0.03145(16) 0.90568(16)
C2_3 C 0.85905(18) 0.14577(18) 0.9926(2)
C3_3 C 0.8235(2) 0.1383(2) 0.9622(2)
H2_3 H 0.8146 0.1575 0.9397
C4_3 C 0.69676(17) 0.03668(18) 0.86504(19)
H3_3 H 0.7052 0.0576 0.8440
C5_3 C 0.66328(17) 0.00610(19) 0.85917(18)
C10_3 C 0.63271(18) 0.00034(17) 0.82013(18)
C12_3 C 0.8895(2) 0.1832(2) 0.9951(2)
O8_3 O 0.8155(4) 0.0058(4) 0.9328(7)
O11_3 O 0.76683(13) 0.10488(13) 0.88433(13)
O12_3 O 0.71046(16) 0.13821(14) 0.91939(15)
H16_3 H 0.833144 0.00907236 0.904714
O3_3 O 0.73317(13) 0.85488(13) 0.13433(13)
O4_3 O 0.78954(16) 0.88821(14) 0.16939(15)
N3_3 N 0.77659(16) 0.97578(15) 0.05972(17)
N4_3 N 0.74188(15) 0.95518(14) 0.03993(15)
C7_3 C 0.73132(18) 0.91915(18) 0.06526(19)
H5_3 H 0.7090 0.8989 0.0590
C8_3 C 0.76008(17) 0.91828(16) 0.10212(19)
C9_3 C 0.78848(19) 0.95509(19) 0.09681(19)
H6_3 H 0.8115 0.9632 0.1161
C11_3 C 0.76042(18) 0.8846(2) 0.13779(18)
Cu5_3 Cu 0.74115(3) 0.81708(3) 0.18804(3)
O14_3 O 0.63255(18) 0.96628(18) 0.0256(2)
Cu3_3 Cu 0.71444(3) 0.97718(3) 0.98495(3)
O1_3 O 0.60136(13) 0.97314(13) 0.82547(14)
N5_3 N 0.69333(17) 0.99812(16) 0.92718(16)
C6_3 C 0.66197(18) 0.98337(19) 0.89959(19)
H4_3 H 0.6420 0.9610 0.9063
O9_3 O 0.7765(3) 0.9406(4) 0.9404(3)
Cu4_3 Cu 0.55316(2) 0.97288(2) 0.78120(3)
O13_3 O 0.67401(14) 0.92702(13) 0.98055(13)
H13_3 H 0.803893 0.93896 0.959162
H14_3 H 0.76707 0.910626 0.931765
H15_3 H 0.799732 0.977238 0.932474
O3_4 O 0.01683(13) 0.89512(13) 0.13433(13)
N4_4 N 0.00812(15) 0.79482(14) 0.03993(15)
C7_4 C 0.01868(18) 0.83085(18) 0.06526(19)
H5_4 H 0.0410 0.8511 0.0590
Cu5_4 Cu 0.00885(3) 0.93292(3) 0.18804(3)
O14_4 O 0.11745(18) 0.78372(18) 0.0256(2)
Cu3_4 Cu 0.03556(3) 0.77282(3) 0.98495(3)
O1_4 O 0.14864(13) 0.77686(13) 0.82547(14)
O2_4 O 0.11107(18) 0.72767(18) 0.78544(15)
O7_4 O 0.00279(13) 0.71679(13) 0.99409(14)
N5_4 N 0.05667(17) 0.75188(16) 0.92718(16)
N6_4 N 0.03489(16) 0.71855(16) 0.90568(16)
C4_4 C 0.05324(17) 0.71332(18) 0.86504(19)
H3_4 H 0.0448 0.6924 0.8440
C5_4 C 0.08672(17) 0.74390(19) 0.85917(18)
C6_4 C 0.08803(18) 0.76663(19) 0.89959(19)
H4_4 H 0.1080 0.7890 0.9063
C10_4 C 0.11729(18) 0.74966(17) 0.82013(18)
Cu4_4 Cu 0.19684(2) 0.77712(2) 0.78120(3)
O12_4 O 0.03954(16) 0.61179(14) 0.91939(15)
O13_4 O 0.07599(14) 0.82298(13) 0.98055(13)
Cu1_4 Cu 0.94684(2) 0.72288(2) 0.03120(3)
O4_4 O 0.96046(16) 0.86179(14) 0.16939(15)
O5_4 O 0.82599(14) 0.57298(13) 0.01945(13)
N2_4 N 0.92579(17) 0.66773(16) 0.00654(17)
N3_4 N 0.97341(16) 0.77422(15) 0.05972(17)
C1_4 C 0.89292(18) 0.64145(19) 0.02064(18)
H1_4 H 0.8743 0.6469 0.0451
C8_4 C 0.98992(17) 0.83172(16) 0.10212(19)
C9_4 C 0.96152(19) 0.79491(19) 0.09681(19)
H6_4 H 0.9385 0.7868 0.1161
C11_4 C 0.98958(18) 0.8654(2) 0.13779(18)
Cu6_4 Cu 0.78556(3) 0.52282(3) 0.01505(3)
O10_4 O 0.89864(13) 0.72314(13) 0.07547(14)
Cu2_4 Cu 0.99115(3) 0.68292(3) 0.93804(3)
O6_4 O 0.86745(18) 0.53372(18) 0.9744(2)
N1_4 N 0.94555(18) 0.65093(16) 0.97069(18)
C2_4 C 0.89095(18) 0.60423(18) 0.9926(2)
C3_4 C 0.9265(2) 0.6117(2) 0.9622(2)
H2_4 H 0.9354 0.5925 0.9397
C12_4 C 0.8605(2) 0.5668(2) 0.9951(2)
O8_4 O 0.9345(4) 0.7442(4) 0.9328(7)
O9_4 O 0.9735(3) 0.8094(4) 0.9404(3)
O11_4 O 0.98317(13) 0.64512(13) 0.88433(13)
H13_4 H 0.946107 0.81104 0.959162
H14_4 H 0.98293 0.839374 0.931765
H15_4 H 0.950268 0.772762 0.932474
H16_4 H 0.916856 0.740928 0.904714
Cu3_5 Cu 0.03556(3) 0.47718(3) 0.26505(3)
O1_5 O 0.14864(13) 0.47314(13) 0.42453(14)
O2_5 O 0.11107(18) 0.52233(18) 0.46456(15)
O3_5 O 0.01683(13) 0.35488(13) 0.11567(13)
O7_5 O 0.00279(13) 0.53321(13) 0.25591(14)
N4_5 N 0.00812(15) 0.45518(14) 0.21007(15)
N5_5 N 0.05667(17) 0.49812(16) 0.32282(16)
N6_5 N 0.03489(16) 0.53145(16) 0.34432(16)
C4_5 C 0.05324(17) 0.53668(18) 0.38496(19)
H3_5 H 0.0448 0.5576 0.4060
C5_5 C 0.08672(17) 0.50610(19) 0.39083(18)
C6_5 C 0.08803(18) 0.48337(19) 0.35041(19)
H4_5 H 0.1080 0.4610 0.3437
C7_5 C 0.01868(18) 0.41915(18) 0.18474(19)
H5_5 H 0.0410 0.3989 0.1910
C10_5 C 0.11729(18) 0.50034(17) 0.42987(18)
Cu4_5 Cu 0.19684(2) 0.47288(2) 0.46880(3)
Cu5_5 Cu 0.00885(3) 0.31708(3) 0.06196(3)
O12_5 O 0.03954(16) 0.63821(14) 0.33061(15)
O13_5 O 0.07599(14) 0.42702(13) 0.26945(13)
O14_5 O 0.11745(18) 0.46628(18) 0.2244(2)
Cu1_5 Cu 0.94684(2) 0.52712(2) 0.21880(3)
Cu2_5 Cu 0.99115(3) 0.56708(3) 0.31196(3)
O4_5 O 0.96046(16) 0.38821(14) 0.08061(15)
O5_5 O 0.82599(14) 0.67702(13) 0.23055(13)
O6_5 O 0.86745(18) 0.71628(18) 0.2756(2)
N1_5 N 0.94555(18) 0.59907(16) 0.27931(18)
N2_5 N 0.92579(17) 0.58227(16) 0.24346(17)
N3_5 N 0.97341(16) 0.47578(15) 0.19028(17)
C1_5 C 0.89292(18) 0.60855(19) 0.22936(18)
H1_5 H 0.8743 0.6031 0.2049
C2_5 C 0.89095(18) 0.64577(18) 0.2574(2)
C3_5 C 0.9265(2) 0.6383(2) 0.2878(2)
H2_5 H 0.9354 0.6575 0.3103
C8_5 C 0.98992(17) 0.41828(16) 0.14788(19)
C9_5 C 0.96152(19) 0.45509(19) 0.15319(19)
H6_5 H 0.9385 0.4632 0.1339
C11_5 C 0.98958(18) 0.3846(2) 0.11221(18)
C12_5 C 0.8605(2) 0.6832(2) 0.2549(2)
O8_5 O 0.9345(4) 0.5058(4) 0.3172(7)
O9_5 O 0.9735(3) 0.4406(4) 0.3096(3)
Cu6_5 Cu 0.78556(3) 0.72718(3) 0.23495(3)
O10_5 O 0.89864(13) 0.52686(13) 0.17453(14)
O11_5 O 0.98317(13) 0.60488(13) 0.36567(13)
H13_5 H 0.946107 0.43896 0.290838
H14_5 H 0.98293 0.410626 0.318235
H15_5 H 0.950268 0.477238 0.317526
H16_5 H 0.916856 0.509072 0.345286
Cu1_6 Cu 0.80316(2) 0.22288(2) 0.21880(3)
Cu2_6 Cu 0.75885(3) 0.18292(3) 0.31196(3)
Cu3_6 Cu 0.71444(3) 0.27282(3) 0.26505(3)
O1_6 O 0.60136(13) 0.27686(13) 0.42453(14)
O2_6 O 0.63893(18) 0.22767(18) 0.46456(15)
O3_6 O 0.73317(13) 0.39512(13) 0.11567(13)
O4_6 O 0.78954(16) 0.36179(14) 0.08061(15)
O5_6 O 0.92401(14) 0.07298(13) 0.23055(13)
O6_6 O 0.88255(18) 0.03372(18) 0.2756(2)
O7_6 O 0.74721(13) 0.21679(13) 0.25591(14)
N1_6 N 0.80445(18) 0.15093(16) 0.27931(18)
N2_6 N 0.82421(17) 0.16773(16) 0.24346(17)
N3_6 N 0.77659(16) 0.27422(15) 0.19028(17)
N4_6 N 0.74188(15) 0.29482(14) 0.21007(15)
N5_6 N 0.69333(17) 0.25188(16) 0.32282(16)
N6_6 N 0.71511(16) 0.21855(16) 0.34432(16)
C1_6 C 0.85708(18) 0.14145(19) 0.22936(18)
H1_6 H 0.8757 0.1469 0.2049
C2_6 C 0.85905(18) 0.10423(18) 0.2574(2)
C3_6 C 0.8235(2) 0.1117(2) 0.2878(2)
H2_6 H 0.8146 0.0925 0.3103
C4_6 C 0.69676(17) 0.21332(18) 0.38496(19)
H3_6 H 0.7052 0.1924 0.4060
C5_6 C 0.66328(17) 0.24390(19) 0.39083(18)
C6_6 C 0.66197(18) 0.26663(19) 0.35041(19)
H4_6 H 0.6420 0.2890 0.3437
C7_6 C 0.73132(18) 0.33085(18) 0.18474(19)
H5_6 H 0.7090 0.3511 0.1910
C8_6 C 0.76008(17) 0.33172(16) 0.14788(19)
C9_6 C 0.78848(19) 0.29491(19) 0.15319(19)
H6_6 H 0.8115 0.2868 0.1339
C10_6 C 0.63271(18) 0.24966(17) 0.42987(18)
C11_6 C 0.76042(18) 0.3654(2) 0.11221(18)
C12_6 C 0.8895(2) 0.0668(2) 0.2549(2)
O8_6 O 0.8155(4) 0.2442(4) 0.3172(7)
O9_6 O 0.7765(3) 0.3094(4) 0.3096(3)
Cu4_6 Cu 0.55316(2) 0.27712(2) 0.46880(3)
Cu5_6 Cu 0.74115(3) 0.43292(3) 0.06196(3)
Cu6_6 Cu 0.96444(3) 0.02282(3) 0.23495(3)
O10_6 O 0.85136(13) 0.22314(13) 0.17453(14)
O11_6 O 0.76683(13) 0.14512(13) 0.36567(13)
O12_6 O 0.71046(16) 0.11179(14) 0.33061(15)
O13_6 O 0.67401(14) 0.32298(13) 0.26945(13)
O14_6 O 0.63255(18) 0.28372(18) 0.2244(2)
H13_6 H 0.803893 0.31104 0.290838
H14_6 H 0.76707 0.339374 0.318235
H15_6 H 0.799732 0.272762 0.317526
H16_6 H 0.833144 0.240928 0.345286
Cu1_7 Cu 0.80316(2) 0.52712(2) 0.53120(3)
Cu2_7 Cu 0.75885(3) 0.56708(3) 0.43804(3)
Cu3_7 Cu 0.71444(3) 0.47718(3) 0.48495(3)
O1_7 O 0.60136(13) 0.47314(13) 0.32547(14)
O2_7 O 0.63893(18) 0.52233(18) 0.28544(15)
O3_7 O 0.73317(13) 0.35488(13) 0.63433(13)
O4_7 O 0.78954(16) 0.38821(14) 0.66939(15)
O5_7 O 0.92401(14) 0.67702(13) 0.51945(13)
O6_7 O 0.88255(18) 0.71628(18) 0.4744(2)
O7_7 O 0.74721(13) 0.53321(13) 0.49409(14)
N1_7 N 0.80445(18) 0.59907(16) 0.47069(18)
N2_7 N 0.82421(17) 0.58227(16) 0.50654(17)
N3_7 N 0.77659(16) 0.47578(15) 0.55972(17)
N4_7 N 0.74188(15) 0.45518(14) 0.53993(15)
N5_7 N 0.69333(17) 0.49812(16) 0.42718(16)
N6_7 N 0.71511(16) 0.53145(16) 0.40568(16)
C1_7 C 0.85708(18) 0.60855(19) 0.52064(18)
H1_7 H 0.8757 0.6031 0.5451
C2_7 C 0.85905(18) 0.64577(18) 0.4926(2)
C3_7 C 0.8235(2) 0.6383(2) 0.4622(2)
H2_7 H 0.8146 0.6575 0.4397
C4_7 C 0.69676(17) 0.53668(18) 0.36504(19)
H3_7 H 0.7052 0.5576 0.3440
C5_7 C 0.66328(17) 0.50610(19) 0.35917(18)
C6_7 C 0.66197(18) 0.48337(19) 0.39959(19)
H4_7 H 0.6420 0.4610 0.4063
C7_7 C 0.73132(18) 0.41915(18) 0.56526(19)
H5_7 H 0.7090 0.3989 0.5590
C8_7 C 0.76008(17) 0.41828(16) 0.60212(19)
C9_7 C 0.78848(19) 0.45509(19) 0.59681(19)
H6_7 H 0.8115 0.4632 0.6161
C10_7 C 0.63271(18) 0.50034(17) 0.32013(18)
C11_7 C 0.76042(18) 0.3846(2) 0.63779(18)
C12_7 C 0.8895(2) 0.6832(2) 0.4951(2)
O8_7 O 0.8155(4) 0.5058(4) 0.4328(7)
O9_7 O 0.7765(3) 0.4406(4) 0.4404(3)
Cu4_7 Cu 0.55316(2) 0.47288(2) 0.28120(3)
Cu5_7 Cu 0.74115(3) 0.31708(3) 0.68804(3)
Cu6_7 Cu 0.96444(3) 0.72718(3) 0.51505(3)
O10_7 O 0.85136(13) 0.52686(13) 0.57547(14)
O11_7 O 0.76683(13) 0.60488(13) 0.38433(13)
O12_7 O 0.71046(16) 0.63821(14) 0.41939(15)
O13_7 O 0.67401(14) 0.42702(13) 0.48055(13)
O14_7 O 0.63255(18) 0.46628(18) 0.5256(2)
H13_7 H 0.803893 0.43896 0.459162
H14_7 H 0.76707 0.410626 0.431765
H15_7 H 0.799732 0.477238 0.432474
H16_7 H 0.833144 0.509072 0.404714
Cu3_8 Cu 0.03556(3) 0.27282(3) 0.48495(3)
O1_8 O 0.14864(13) 0.27686(13) 0.32547(14)
O2_8 O 0.11107(18) 0.22767(18) 0.28544(15)
O3_8 O 0.01683(13) 0.39512(13) 0.63433(13)
O7_8 O 0.00279(13) 0.21679(13) 0.49409(14)
N4_8 N 0.00812(15) 0.29482(14) 0.53993(15)
N5_8 N 0.05667(17) 0.25188(16) 0.42718(16)
N6_8 N 0.03489(16) 0.21855(16) 0.40568(16)
C4_8 C 0.05324(17) 0.21332(18) 0.36504(19)
H3_8 H 0.0448 0.1924 0.3440
C5_8 C 0.08672(17) 0.24390(19) 0.35917(18)
C6_8 C 0.08803(18) 0.26663(19) 0.39959(19)
H4_8 H 0.1080 0.2890 0.4063
C7_8 C 0.01868(18) 0.33085(18) 0.56526(19)
H5_8 H 0.0410 0.3511 0.5590
C10_8 C 0.11729(18) 0.24966(17) 0.32013(18)
Cu4_8 Cu 0.19684(2) 0.27712(2) 0.28120(3)
Cu5_8 Cu 0.00885(3) 0.43292(3) 0.68804(3)
O12_8 O 0.03954(16) 0.11179(14) 0.41939(15)
O13_8 O 0.07599(14) 0.32298(13) 0.48055(13)
O14_8 O 0.11745(18) 0.28372(18) 0.5256(2)
Cu1_8 Cu 0.94684(2) 0.22288(2) 0.53120(3)
Cu2_8 Cu 0.99115(3) 0.18292(3) 0.43804(3)
O4_8 O 0.96046(16) 0.36179(14) 0.66939(15)
O5_8 O 0.82599(14) 0.07298(13) 0.51945(13)
O6_8 O 0.86745(18) 0.03372(18) 0.4744(2)
N1_8 N 0.94555(18) 0.15093(16) 0.47069(18)
N2_8 N 0.92579(17) 0.16773(16) 0.50654(17)
N3_8 N 0.97341(16) 0.27422(15) 0.55972(17)
C1_8 C 0.89292(18) 0.14145(19) 0.52064(18)
H1_8 H 0.8743 0.1469 0.5451
C2_8 C 0.89095(18) 0.10423(18) 0.4926(2)
C3_8 C 0.9265(2) 0.1117(2) 0.4622(2)
H2_8 H 0.9354 0.0925 0.4397
C8_8 C 0.98992(17) 0.33172(16) 0.60212(19)
C9_8 C 0.96152(19) 0.29491(19) 0.59681(19)
H6_8 H 0.9385 0.2868 0.6161
C11_8 C 0.98958(18) 0.3654(2) 0.63779(18)
C12_8 C 0.8605(2) 0.0668(2) 0.4951(2)
O8_8 O 0.9345(4) 0.2442(4) 0.4328(7)
O9_8 O 0.9735(3) 0.3094(4) 0.4404(3)
Cu6_8 Cu 0.78556(3) 0.02282(3) 0.51505(3)
O10_8 O 0.89864(13) 0.22314(13) 0.57547(14)
O11_8 O 0.98317(13) 0.14512(13) 0.38433(13)
H13_8 H 0.946107 0.31104 0.459162
H14_8 H 0.98293 0.339374 0.431765
H15_8 H 0.950268 0.272762 0.432474
H16_8 H 0.916856 0.240928 0.404714
Cu1_9 Cu 0.44684(2) 0.02712(2) 0.21880(3)
Cu2_9 Cu 0.49115(3) 0.06708(3) 0.31196(3)
O2_9 O 0.61107(18) 0.02233(18) 0.46456(15)
O5_9 O 0.32599(14) 0.17702(13) 0.23055(13)
O6_9 O 0.36745(18) 0.21628(18) 0.2756(2)
O7_9 O 0.50279(13) 0.03321(13) 0.25591(14)
N1_9 N 0.44555(18) 0.09907(16) 0.27931(18)
N2_9 N 0.42579(17) 0.08227(16) 0.24346(17)
N6_9 N 0.53489(16) 0.03145(16) 0.34432(16)
C1_9 C 0.39292(18) 0.10855(19) 0.22936(18)
H1_9 H 0.3743 0.1031 0.2049
C2_9 C 0.39095(18) 0.14577(18) 0.2574(2)
C3_9 C 0.4265(2) 0.1383(2) 0.2878(2)
H2_9 H 0.4354 0.1575 0.3103
C4_9 C 0.55324(17) 0.03668(18) 0.38496(19)
H3_9 H 0.5448 0.0576 0.4060
C5_9 C 0.58672(17) 0.00610(19) 0.39083(18)
C10_9 C 0.61729(18) 0.00034(17) 0.42987(18)
C12_9 C 0.3605(2) 0.1832(2) 0.2549(2)
O8_9 O 0.4345(4) 0.0058(4) 0.3172(7)
Cu6_9 Cu 0.28556(3) 0.22718(3) 0.23495(3)
O10_9 O 0.39864(13) 0.02686(13) 0.17453(14)
O11_9 O 0.48317(13) 0.10488(13) 0.36567(13)
O12_9 O 0.53954(16) 0.13821(14) 0.33061(15)
H16_9 H 0.416856 0.00907236 0.345286
Cu3_9 Cu 0.53556(3) 0.97718(3) 0.26505(3)
O1_9 O 0.64864(13) 0.97314(13) 0.42453(14)
O3_9 O 0.51683(13) 0.85488(13) 0.11567(13)
O4_9 O 0.46046(16) 0.88821(14) 0.08061(15)
N3_9 N 0.47341(16) 0.97578(15) 0.19028(17)
N4_9 N 0.50812(15) 0.95518(14) 0.21007(15)
N5_9 N 0.55667(17) 0.99812(16) 0.32282(16)
C6_9 C 0.58803(18) 0.98337(19) 0.35041(19)
H4_9 H 0.6080 0.9610 0.3437
C7_9 C 0.51868(18) 0.91915(18) 0.18474(19)
H5_9 H 0.5410 0.8989 0.1910
C8_9 C 0.48992(17) 0.91828(16) 0.14788(19)
C9_9 C 0.46152(19) 0.95509(19) 0.15319(19)
H6_9 H 0.4385 0.9632 0.1339
C11_9 C 0.48958(18) 0.8846(2) 0.11221(18)
O9_9 O 0.4735(3) 0.9406(4) 0.3096(3)
Cu4_9 Cu 0.69684(2) 0.97288(2) 0.46880(3)
Cu5_9 Cu 0.50885(3) 0.81708(3) 0.06196(3)
O13_9 O 0.57599(14) 0.92702(13) 0.26945(13)
O14_9 O 0.61745(18) 0.96628(18) 0.2244(2)
H13_9 H 0.446107 0.93896 0.290838
H14_9 H 0.48293 0.910626 0.318235
H15_9 H 0.450268 0.977238 0.317526
Cu1_10 Cu 0.30316(2) 0.72288(2) 0.21880(3)
Cu2_10 Cu 0.25885(3) 0.68292(3) 0.31196(3)
Cu3_10 Cu 0.21444(3) 0.77282(3) 0.26505(3)
O1_10 O 0.10136(13) 0.77686(13) 0.42453(14)
O2_10 O 0.13893(18) 0.72767(18) 0.46456(15)
O3_10 O 0.23317(13) 0.89512(13) 0.11567(13)
O4_10 O 0.28954(16) 0.86179(14) 0.08061(15)
O5_10 O 0.42401(14) 0.57298(13) 0.23055(13)
O6_10 O 0.38255(18) 0.53372(18) 0.2756(2)
O7_10 O 0.24721(13) 0.71679(13) 0.25591(14)
N1_10 N 0.30445(18) 0.65093(16) 0.27931(18)
N2_10 N 0.32421(17) 0.66773(16) 0.24346(17)
N3_10 N 0.27659(16) 0.77422(15) 0.19028(17)
N4_10 N 0.24188(15) 0.79482(14) 0.21007(15)
N5_10 N 0.19333(17) 0.75188(16) 0.32282(16)
N6_10 N 0.21511(16) 0.71855(16) 0.34432(16)
C1_10 C 0.35708(18) 0.64145(19) 0.22936(18)
H1_10 H 0.3757 0.6469 0.2049
C2_10 C 0.35905(18) 0.60423(18) 0.2574(2)
C3_10 C 0.3235(2) 0.6117(2) 0.2878(2)
H2_10 H 0.3146 0.5925 0.3103
C4_10 C 0.19676(17) 0.71332(18) 0.38496(19)
H3_10 H 0.2052 0.6924 0.4060
C5_10 C 0.16328(17) 0.74390(19) 0.39083(18)
C6_10 C 0.16197(18) 0.76663(19) 0.35041(19)
H4_10 H 0.1420 0.7890 0.3437
C7_10 C 0.23132(18) 0.83085(18) 0.18474(19)
H5_10 H 0.2090 0.8511 0.1910
C8_10 C 0.26008(17) 0.83172(16) 0.14788(19)
C9_10 C 0.28848(19) 0.79491(19) 0.15319(19)
H6_10 H 0.3115 0.7868 0.1339
C10_10 C 0.13271(18) 0.74966(17) 0.42987(18)
C11_10 C 0.26042(18) 0.8654(2) 0.11221(18)
C12_10 C 0.3895(2) 0.5668(2) 0.2549(2)
O8_10 O 0.3155(4) 0.7442(4) 0.3172(7)
O9_10 O 0.2765(3) 0.8094(4) 0.3096(3)
Cu4_10 Cu 0.05316(2) 0.77712(2) 0.46880(3)
Cu5_10 Cu 0.24115(3) 0.93292(3) 0.06196(3)
Cu6_10 Cu 0.46444(3) 0.52282(3) 0.23495(3)
O10_10 O 0.35136(13) 0.72314(13) 0.17453(14)
O11_10 O 0.26683(13) 0.64512(13) 0.36567(13)
O12_10 O 0.21046(16) 0.61179(14) 0.33061(15)
O13_10 O 0.17401(14) 0.82298(13) 0.26945(13)
O14_10 O 0.13255(18) 0.78372(18) 0.2244(2)
H13_10 H 0.303893 0.81104 0.290838
H14_10 H 0.26707 0.839374 0.318235
H15_10 H 0.299732 0.772762 0.317526
H16_10 H 0.333144 0.740928 0.345286
Cu1_11 Cu 0.30316(2) 0.02712(2) 0.53120(3)
Cu2_11 Cu 0.25885(3) 0.06708(3) 0.43804(3)
O2_11 O 0.13893(18) 0.02233(18) 0.28544(15)
O5_11 O 0.42401(14) 0.17702(13) 0.51945(13)
O6_11 O 0.38255(18) 0.21628(18) 0.4744(2)
O7_11 O 0.24721(13) 0.03321(13) 0.49409(14)
N1_11 N 0.30445(18) 0.09907(16) 0.47069(18)
N2_11 N 0.32421(17) 0.08227(16) 0.50654(17)
N6_11 N 0.21511(16) 0.03145(16) 0.40568(16)
C1_11 C 0.35708(18) 0.10855(19) 0.52064(18)
H1_11 H 0.3757 0.1031 0.5451
C2_11 C 0.35905(18) 0.14577(18) 0.4926(2)
C3_11 C 0.3235(2) 0.1383(2) 0.4622(2)
H2_11 H 0.3146 0.1575 0.4397
C4_11 C 0.19676(17) 0.03668(18) 0.36504(19)
H3_11 H 0.2052 0.0576 0.3440
C5_11 C 0.16328(17) 0.00610(19) 0.35917(18)
C10_11 C 0.13271(18) 0.00034(17) 0.32013(18)
C12_11 C 0.3895(2) 0.1832(2) 0.4951(2)
O8_11 O 0.3155(4) 0.0058(4) 0.4328(7)
Cu6_11 Cu 0.46444(3) 0.22718(3) 0.51505(3)
O10_11 O 0.35136(13) 0.02686(13) 0.57547(14)
O11_11 O 0.26683(13) 0.10488(13) 0.38433(13)
O12_11 O 0.21046(16) 0.13821(14) 0.41939(15)
H16_11 H 0.333144 0.00907236 0.404714
Cu3_11 Cu 0.21444(3) 0.97718(3) 0.48495(3)
O1_11 O 0.10136(13) 0.97314(13) 0.32547(14)
O3_11 O 0.23317(13) 0.85488(13) 0.63433(13)
O4_11 O 0.28954(16) 0.88821(14) 0.66939(15)
N3_11 N 0.27659(16) 0.97578(15) 0.55972(17)
N4_11 N 0.24188(15) 0.95518(14) 0.53993(15)
N5_11 N 0.19333(17) 0.99812(16) 0.42718(16)
C6_11 C 0.16197(18) 0.98337(19) 0.39959(19)
H4_11 H 0.1420 0.9610 0.4063
C7_11 C 0.23132(18) 0.91915(18) 0.56526(19)
H5_11 H 0.2090 0.8989 0.5590
C8_11 C 0.26008(17) 0.91828(16) 0.60212(19)
C9_11 C 0.28848(19) 0.95509(19) 0.59681(19)
H6_11 H 0.3115 0.9632 0.6161
C11_11 C 0.26042(18) 0.8846(2) 0.63779(18)
O9_11 O 0.2765(3) 0.9406(4) 0.4404(3)
Cu4_11 Cu 0.05316(2) 0.97288(2) 0.28120(3)
Cu5_11 Cu 0.24115(3) 0.81708(3) 0.68804(3)
O13_11 O 0.17401(14) 0.92702(13) 0.48055(13)
O14_11 O 0.13255(18) 0.96628(18) 0.5256(2)
H13_11 H 0.303893 0.93896 0.459162
H14_11 H 0.26707 0.910626 0.431765
H15_11 H 0.299732 0.977238 0.432474
Cu1_12 Cu 0.44684(2) 0.72288(2) 0.53120(3)
Cu2_12 Cu 0.49115(3) 0.68292(3) 0.43804(3)
Cu3_12 Cu 0.53556(3) 0.77282(3) 0.48495(3)
O1_12 O 0.64864(13) 0.77686(13) 0.32547(14)
O2_12 O 0.61107(18) 0.72767(18) 0.28544(15)
O3_12 O 0.51683(13) 0.89512(13) 0.63433(13)
O4_12 O 0.46046(16) 0.86179(14) 0.66939(15)
O5_12 O 0.32599(14) 0.57298(13) 0.51945(13)
O6_12 O 0.36745(18) 0.53372(18) 0.4744(2)
O7_12 O 0.50279(13) 0.71679(13) 0.49409(14)
N1_12 N 0.44555(18) 0.65093(16) 0.47069(18)
N2_12 N 0.42579(17) 0.66773(16) 0.50654(17)
N3_12 N 0.47341(16) 0.77422(15) 0.55972(17)
N4_12 N 0.50812(15) 0.79482(14) 0.53993(15)
N5_12 N 0.55667(17) 0.75188(16) 0.42718(16)
N6_12 N 0.53489(16) 0.71855(16) 0.40568(16)
C1_12 C 0.39292(18) 0.64145(19) 0.52064(18)
H1_12 H 0.3743 0.6469 0.5451
C2_12 C 0.39095(18) 0.60423(18) 0.4926(2)
C3_12 C 0.4265(2) 0.6117(2) 0.4622(2)
H2_12 H 0.4354 0.5925 0.4397
C4_12 C 0.55324(17) 0.71332(18) 0.36504(19)
H3_12 H 0.5448 0.6924 0.3440
C5_12 C 0.58672(17) 0.74390(19) 0.35917(18)
C6_12 C 0.58803(18) 0.76663(19) 0.39959(19)
H4_12 H 0.6080 0.7890 0.4063
C7_12 C 0.51868(18) 0.83085(18) 0.56526(19)
H5_12 H 0.5410 0.8511 0.5590
C8_12 C 0.48992(17) 0.83172(16) 0.60212(19)
C9_12 C 0.46152(19) 0.79491(19) 0.59681(19)
H6_12 H 0.4385 0.7868 0.6161
C10_12 C 0.61729(18) 0.74966(17) 0.32013(18)
C11_12 C 0.48958(18) 0.8654(2) 0.63779(18)
C12_12 C 0.3605(2) 0.5668(2) 0.4951(2)
O8_12 O 0.4345(4) 0.7442(4) 0.4328(7)
O9_12 O 0.4735(3) 0.8094(4) 0.4404(3)
Cu4_12 Cu 0.69684(2) 0.77712(2) 0.28120(3)
Cu5_12 Cu 0.50885(3) 0.93292(3) 0.68804(3)
Cu6_12 Cu 0.28556(3) 0.52282(3) 0.51505(3)
O10_12 O 0.39864(13) 0.72314(13) 0.57547(14)
O11_12 O 0.48317(13) 0.64512(13) 0.38433(13)
O12_12 O 0.53954(16) 0.61179(14) 0.41939(15)
O13_12 O 0.57599(14) 0.82298(13) 0.48055(13)
O14_12 O 0.61745(18) 0.78372(18) 0.5256(2)
H13_12 H 0.446107 0.81104 0.459162
H14_12 H 0.48293 0.839374 0.431765
H15_12 H 0.450268 0.772762 0.432474
H16_12 H 0.416856 0.740928 0.404714
Cu1_13 Cu 0.44684(2) 0.52712(2) 0.71880(3)
Cu2_13 Cu 0.49115(3) 0.56708(3) 0.81196(3)
Cu3_13 Cu 0.53556(3) 0.47718(3) 0.76505(3)
O1_13 O 0.64864(13) 0.47314(13) 0.92453(14)
O2_13 O 0.61107(18) 0.52233(18) 0.96456(15)
O3_13 O 0.51683(13) 0.35488(13) 0.61567(13)
O4_13 O 0.46046(16) 0.38821(14) 0.58061(15)
O5_13 O 0.32599(14) 0.67702(13) 0.73055(13)
O6_13 O 0.36745(18) 0.71628(18) 0.7756(2)
O7_13 O 0.50279(13) 0.53321(13) 0.75591(14)
N1_13 N 0.44555(18) 0.59907(16) 0.77931(18)
N2_13 N 0.42579(17) 0.58227(16) 0.74346(17)
N3_13 N 0.47341(16) 0.47578(15) 0.69028(17)
N4_13 N 0.50812(15) 0.45518(14) 0.71007(15)
N5_13 N 0.55667(17) 0.49812(16) 0.82282(16)
N6_13 N 0.53489(16) 0.53145(16) 0.84432(16)
C1_13 C 0.39292(18) 0.60855(19) 0.72936(18)
H1_13 H 0.3743 0.6031 0.7049
C2_13 C 0.39095(18) 0.64577(18) 0.7574(2)
C3_13 C 0.4265(2) 0.6383(2) 0.7878(2)
H2_13 H 0.4354 0.6575 0.8103
C4_13 C 0.55324(17) 0.53668(18) 0.88496(19)
H3_13 H 0.5448 0.5576 0.9060
C5_13 C 0.58672(17) 0.50610(19) 0.89083(18)
C6_13 C 0.58803(18) 0.48337(19) 0.85041(19)
H4_13 H 0.6080 0.4610 0.8437
C7_13 C 0.51868(18) 0.41915(18) 0.68474(19)
H5_13 H 0.5410 0.3989 0.6910
C8_13 C 0.48992(17) 0.41828(16) 0.64788(19)
C9_13 C 0.46152(19) 0.45509(19) 0.65319(19)
H6_13 H 0.4385 0.4632 0.6339
C10_13 C 0.61729(18) 0.50034(17) 0.92987(18)
C11_13 C 0.48958(18) 0.3846(2) 0.61221(18)
C12_13 C 0.3605(2) 0.6832(2) 0.7549(2)
O8_13 O 0.4345(4) 0.5058(4) 0.8172(7)
O9_13 O 0.4735(3) 0.4406(4) 0.8096(3)
Cu4_13 Cu 0.69684(2) 0.47288(2) 0.96880(3)
Cu5_13 Cu 0.50885(3) 0.31708(3) 0.56196(3)
Cu6_13 Cu 0.28556(3) 0.72718(3) 0.73495(3)
O10_13 O 0.39864(13) 0.52686(13) 0.67453(14)
O11_13 O 0.48317(13) 0.60488(13) 0.86567(13)
O12_13 O 0.53954(16) 0.63821(14) 0.83061(15)
O13_13 O 0.57599(14) 0.42702(13) 0.76945(13)
O14_13 O 0.61745(18) 0.46628(18) 0.7244(2)
H13_13 H 0.446107 0.43896 0.790838
H14_13 H 0.48293 0.410626 0.818235
H15_13 H 0.450268 0.477238 0.817526
H16_13 H 0.416856 0.509072 0.845286
Cu1_14 Cu 0.30316(2) 0.22288(2) 0.71880(3)
Cu2_14 Cu 0.25885(3) 0.18292(3) 0.81196(3)
Cu3_14 Cu 0.21444(3) 0.27282(3) 0.76505(3)
O1_14 O 0.10136(13) 0.27686(13) 0.92453(14)
O2_14 O 0.13893(18) 0.22767(18) 0.96456(15)
O3_14 O 0.23317(13) 0.39512(13) 0.61567(13)
O4_14 O 0.28954(16) 0.36179(14) 0.58061(15)
O5_14 O 0.42401(14) 0.07298(13) 0.73055(13)
O6_14 O 0.38255(18) 0.03372(18) 0.7756(2)
O7_14 O 0.24721(13) 0.21679(13) 0.75591(14)
N1_14 N 0.30445(18) 0.15093(16) 0.77931(18)
N2_14 N 0.32421(17) 0.16773(16) 0.74346(17)
N3_14 N 0.27659(16) 0.27422(15) 0.69028(17)
N4_14 N 0.24188(15) 0.29482(14) 0.71007(15)
N5_14 N 0.19333(17) 0.25188(16) 0.82282(16)
N6_14 N 0.21511(16) 0.21855(16) 0.84432(16)
C1_14 C 0.35708(18) 0.14145(19) 0.72936(18)
H1_14 H 0.3757 0.1469 0.7049
C2_14 C 0.35905(18) 0.10423(18) 0.7574(2)
C3_14 C 0.3235(2) 0.1117(2) 0.7878(2)
H2_14 H 0.3146 0.0925 0.8103
C4_14 C 0.19676(17) 0.21332(18) 0.88496(19)
H3_14 H 0.2052 0.1924 0.9060
C5_14 C 0.16328(17) 0.24390(19) 0.89083(18)
C6_14 C 0.16197(18) 0.26663(19) 0.85041(19)
H4_14 H 0.1420 0.2890 0.8437
C7_14 C 0.23132(18) 0.33085(18) 0.68474(19)
H5_14 H 0.2090 0.3511 0.6910
C8_14 C 0.26008(17) 0.33172(16) 0.64788(19)
C9_14 C 0.28848(19) 0.29491(19) 0.65319(19)
H6_14 H 0.3115 0.2868 0.6339
C10_14 C 0.13271(18) 0.24966(17) 0.92987(18)
C11_14 C 0.26042(18) 0.3654(2) 0.61221(18)
C12_14 C 0.3895(2) 0.0668(2) 0.7549(2)
O8_14 O 0.3155(4) 0.2442(4) 0.8172(7)
O9_14 O 0.2765(3) 0.3094(4) 0.8096(3)
Cu4_14 Cu 0.05316(2) 0.27712(2) 0.96880(3)
Cu5_14 Cu 0.24115(3) 0.43292(3) 0.56196(3)
Cu6_14 Cu 0.46444(3) 0.02282(3) 0.73495(3)
O10_14 O 0.35136(13) 0.22314(13) 0.67453(14)
O11_14 O 0.26683(13) 0.14512(13) 0.86567(13)
O12_14 O 0.21046(16) 0.11179(14) 0.83061(15)
O13_14 O 0.17401(14) 0.32298(13) 0.76945(13)
O14_14 O 0.13255(18) 0.28372(18) 0.7244(2)
H13_14 H 0.303893 0.31104 0.790838
H14_14 H 0.26707 0.339374 0.818235
H15_14 H 0.299732 0.272762 0.817526
H16_14 H 0.333144 0.240928 0.845286
Cu1_15 Cu 0.30316(2) 0.52712(2) 0.03120(3)
O3_15 O 0.23317(13) 0.35488(13) 0.13433(13)
O4_15 O 0.28954(16) 0.38821(14) 0.16939(15)
O5_15 O 0.42401(14) 0.67702(13) 0.01945(13)
N2_15 N 0.32421(17) 0.58227(16) 0.00654(17)
N3_15 N 0.27659(16) 0.47578(15) 0.05972(17)
N4_15 N 0.24188(15) 0.45518(14) 0.03993(15)
C1_15 C 0.35708(18) 0.60855(19) 0.02064(18)
H1_15 H 0.3757 0.6031 0.0451
C7_15 C 0.23132(18) 0.41915(18) 0.06526(19)
H5_15 H 0.2090 0.3989 0.0590
C8_15 C 0.26008(17) 0.41828(16) 0.10212(19)
C9_15 C 0.28848(19) 0.45509(19) 0.09681(19)
H6_15 H 0.3115 0.4632 0.1161
C11_15 C 0.26042(18) 0.3846(2) 0.13779(18)
Cu5_15 Cu 0.24115(3) 0.31708(3) 0.18804(3)
Cu6_15 Cu 0.46444(3) 0.72718(3) 0.01505(3)
O10_15 O 0.35136(13) 0.52686(13) 0.07547(14)
O14_15 O 0.13255(18) 0.46628(18) 0.0256(2)
Cu2_15 Cu 0.25885(3) 0.56708(3) 0.93804(3)
Cu3_15 Cu 0.21444(3) 0.47718(3) 0.98495(3)
O1_15 O 0.10136(13) 0.47314(13) 0.82547(14)
O2_15 O 0.13893(18) 0.52233(18) 0.78544(15)
O6_15 O 0.38255(18) 0.71628(18) 0.9744(2)
O7_15 O 0.24721(13) 0.53321(13) 0.99409(14)
N1_15 N 0.30445(18) 0.59907(16) 0.97069(18)
N5_15 N 0.19333(17) 0.49812(16) 0.92718(16)
N6_15 N 0.21511(16) 0.53145(16) 0.90568(16)
C2_15 C 0.35905(18) 0.64577(18) 0.9926(2)
C3_15 C 0.3235(2) 0.6383(2) 0.9622(2)
H2_15 H 0.3146 0.6575 0.9397
C4_15 C 0.19676(17) 0.53668(18) 0.86504(19)
H3_15 H 0.2052 0.5576 0.8440
C5_15 C 0.16328(17) 0.50610(19) 0.85917(18)
C6_15 C 0.16197(18) 0.48337(19) 0.89959(19)
H4_15 H 0.1420 0.4610 0.9063
C10_15 C 0.13271(18) 0.50034(17) 0.82013(18)
C12_15 C 0.3895(2) 0.6832(2) 0.9951(2)
O8_15 O 0.3155(4) 0.5058(4) 0.9328(7)
O9_15 O 0.2765(3) 0.4406(4) 0.9404(3)
Cu4_15 Cu 0.05316(2) 0.47288(2) 0.78120(3)
O11_15 O 0.26683(13) 0.60488(13) 0.88433(13)
O12_15 O 0.21046(16) 0.63821(14) 0.91939(15)
O13_15 O 0.17401(14) 0.42702(13) 0.98055(13)
H13_15 H 0.303893 0.43896 0.959162
H14_15 H 0.26707 0.410626 0.931765
H15_15 H 0.299732 0.477238 0.932474
H16_15 H 0.333144 0.509072 0.904714
Cu1_16 Cu 0.44684(2) 0.22288(2) 0.03120(3)
O3_16 O 0.51683(13) 0.39512(13) 0.13433(13)
O4_16 O 0.46046(16) 0.36179(14) 0.16939(15)
O5_16 O 0.32599(14) 0.07298(13) 0.01945(13)
N2_16 N 0.42579(17) 0.16773(16) 0.00654(17)
N3_16 N 0.47341(16) 0.27422(15) 0.05972(17)
N4_16 N 0.50812(15) 0.29482(14) 0.03993(15)
C1_16 C 0.39292(18) 0.14145(19) 0.02064(18)
H1_16 H 0.3743 0.1469 0.0451
C7_16 C 0.51868(18) 0.33085(18) 0.06526(19)
H5_16 H 0.5410 0.3511 0.0590
C8_16 C 0.48992(17) 0.33172(16) 0.10212(19)
C9_16 C 0.46152(19) 0.29491(19) 0.09681(19)
H6_16 H 0.4385 0.2868 0.1161
C11_16 C 0.48958(18) 0.3654(2) 0.13779(18)
Cu5_16 Cu 0.50885(3) 0.43292(3) 0.18804(3)
Cu6_16 Cu 0.28556(3) 0.02282(3) 0.01505(3)
O10_16 O 0.39864(13) 0.22314(13) 0.07547(14)
O14_16 O 0.61745(18) 0.28372(18) 0.0256(2)
Cu2_16 Cu 0.49115(3) 0.18292(3) 0.93804(3)
Cu3_16 Cu 0.53556(3) 0.27282(3) 0.98495(3)
O1_16 O 0.64864(13) 0.27686(13) 0.82547(14)
O2_16 O 0.61107(18) 0.22767(18) 0.78544(15)
O6_16 O 0.36745(18) 0.03372(18) 0.9744(2)
O7_16 O 0.50279(13) 0.21679(13) 0.99409(14)
N1_16 N 0.44555(18) 0.15093(16) 0.97069(18)
N5_16 N 0.55667(17) 0.25188(16) 0.92718(16)
N6_16 N 0.53489(16) 0.21855(16) 0.90568(16)
C2_16 C 0.39095(18) 0.10423(18) 0.9926(2)
C3_16 C 0.4265(2) 0.1117(2) 0.9622(2)
H2_16 H 0.4354 0.0925 0.9397
C4_16 C 0.55324(17) 0.21332(18) 0.86504(19)
H3_16 H 0.5448 0.1924 0.8440
C5_16 C 0.58672(17) 0.24390(19) 0.85917(18)
C6_16 C 0.58803(18) 0.26663(19) 0.89959(19)
H4_16 H 0.6080 0.2890 0.9063
C10_16 C 0.61729(18) 0.24966(17) 0.82013(18)
C12_16 C 0.3605(2) 0.0668(2) 0.9951(2)
O8_16 O 0.4345(4) 0.2442(4) 0.9328(7)
O9_16 O 0.4735(3) 0.3094(4) 0.9404(3)
Cu4_16 Cu 0.69684(2) 0.27712(2) 0.78120(3)
O11_16 O 0.48317(13) 0.14512(13) 0.88433(13)
O12_16 O 0.53954(16) 0.11179(14) 0.91939(15)
O13_16 O 0.57599(14) 0.32298(13) 0.98055(13)
H13_16 H 0.446107 0.31104 0.959162
H14_16 H 0.48293 0.339374 0.931765
H15_16 H 0.450268 0.272762 0.932474
H16_16 H 0.416856 0.240928 0.904714
N3_17 N 0.02659(16) 0.02422(15) 0.30972(17)
C8_17 C 0.01008(17) 0.08172(16) 0.35212(19)
C9_17 C 0.03848(19) 0.04491(19) 0.34681(19)
H6_17 H 0.0615 0.0368 0.3661
C11_17 C 0.01042(18) 0.1154(2) 0.38779(18)
O9_17 O 0.0265(3) 0.0594(4) 0.1904(3)
H13_17 H 0.0538929 0.0610397 0.209162
H14_17 H 0.0170698 0.0893741 0.181765
H15_17 H 0.0497316 0.0227615 0.182474
N1_17 N 0.05445(18) 0.90093(16) 0.22069(18)
N2_17 N 0.07421(17) 0.91773(16) 0.25654(17)
C1_17 C 0.10708(18) 0.89145(19) 0.27064(18)
H1_17 H 0.1257 0.8969 0.2951
C2_17 C 0.10905(18) 0.85423(18) 0.2426(2)
C3_17 C 0.0735(2) 0.8617(2) 0.2122(2)
H2_17 H 0.0646 0.8425 0.1897
C12_17 C 0.1395(2) 0.8168(2) 0.2451(2)
O8_17 O 0.0655(4) 0.9942(4) 0.1828(7)
H16_17 H 0.0831439 0.990928 0.154714
N4_17 N 0.99188(15) 0.04482(14) 0.28993(15)
N5_17 N 0.94333(17) 0.00188(16) 0.17718(16)
C6_17 C 0.91197(18) 0.01663(19) 0.14959(19)
H4_17 H 0.8920 0.0390 0.1563
C7_17 C 0.98132(18) 0.08085(18) 0.31526(19)
H5_17 H 0.9590 0.1011 0.3090
O2_17 O 0.88893(18) 0.97767(18) 0.03544(15)
O7_17 O 0.99721(13) 0.96679(13) 0.24409(14)
N6_17 N 0.96511(16) 0.96855(16) 0.15568(16)
C4_17 C 0.94676(17) 0.96332(18) 0.11504(19)
H3_17 H 0.9552 0.9424 0.0940
C5_17 C 0.91328(17) 0.99390(19) 0.10917(18)
C10_17 C 0.88271(18) 0.99966(17) 0.07013(18)
O2_18 O 0.36107(18) 0.27233(18) 0.03544(15)
O7_18 O 0.25279(13) 0.28321(13) 0.24409(14)
N1_18 N 0.19555(18) 0.34907(16) 0.22069(18)
N2_18 N 0.17579(17) 0.33227(16) 0.25654(17)
N3_18 N 0.22341(16) 0.22578(15) 0.30972(17)
N4_18 N 0.25812(15) 0.20518(14) 0.28993(15)
N5_18 N 0.30667(17) 0.24812(16) 0.17718(16)
N6_18 N 0.28489(16) 0.28145(16) 0.15568(16)
C1_18 C 0.14292(18) 0.35855(19) 0.27064(18)
H1_18 H 0.1243 0.3531 0.2951
C2_18 C 0.14095(18) 0.39577(18) 0.2426(2)
C3_18 C 0.1765(2) 0.3883(2) 0.2122(2)
H2_18 H 0.1854 0.4075 0.1897
C4_18 C 0.30324(17) 0.28668(18) 0.11504(19)
H3_18 H 0.2948 0.3076 0.0940
C5_18 C 0.33672(17) 0.25610(19) 0.10917(18)
C6_18 C 0.33803(18) 0.23337(19) 0.14959(19)
H4_18 H 0.3580 0.2110 0.1563
C7_18 C 0.26868(18) 0.16915(18) 0.31526(19)
H5_18 H 0.2910 0.1489 0.3090
C8_18 C 0.23992(17) 0.16828(16) 0.35212(19)
C9_18 C 0.21152(19) 0.20509(19) 0.34681(19)
H6_18 H 0.1885 0.2132 0.3661
C10_18 C 0.36729(18) 0.25034(17) 0.07013(18)
C11_18 C 0.23958(18) 0.1346(2) 0.38779(18)
C12_18 C 0.1105(2) 0.4332(2) 0.2451(2)
O8_18 O 0.1845(4) 0.2558(4) 0.1828(7)
O9_18 O 0.2235(3) 0.1906(4) 0.1904(3)
H13_18 H 0.196107 0.18896 0.209162
H14_18 H 0.23293 0.160626 0.181765
H15_18 H 0.200268 0.227238 0.182474
H16_18 H 0.166856 0.259072 0.154714
N5_19 N 0.30667(17) 0.00188(16) 0.07282(16)
C6_19 C 0.33803(18) 0.01663(19) 0.10041(19)
H4_19 H 0.3580 0.0390 0.0937
O9_19 O 0.2235(3) 0.0594(4) 0.0596(3)
H13_19 H 0.196107 0.0610397 0.0408379
H14_19 H 0.23293 0.0893741 0.0682347
H15_19 H 0.200268 0.0227615 0.067526
N3_19 N 0.22341(16) 0.02422(15) 0.94028(17)
N4_19 N 0.25812(15) 0.04482(14) 0.96007(15)
C7_19 C 0.26868(18) 0.08085(18) 0.93474(19)
H5_19 H 0.2910 0.1011 0.9410
C8_19 C 0.23992(17) 0.08172(16) 0.89788(19)
C9_19 C 0.21152(19) 0.04491(19) 0.90319(19)
H6_19 H 0.1885 0.0368 0.8839
C11_19 C 0.23958(18) 0.1154(2) 0.86221(18)
O2_19 O 0.36107(18) 0.97767(18) 0.21456(15)
O7_19 O 0.25279(13) 0.96679(13) 0.00591(14)
N1_19 N 0.19555(18) 0.90093(16) 0.02931(18)
N6_19 N 0.28489(16) 0.96855(16) 0.09432(16)
C2_19 C 0.14095(18) 0.85423(18) 0.0074(2)
C3_19 C 0.1765(2) 0.8617(2) 0.0378(2)
H2_19 H 0.1854 0.8425 0.0603
C4_19 C 0.30324(17) 0.96332(18) 0.13496(19)
H3_19 H 0.2948 0.9424 0.1560
C5_19 C 0.33672(17) 0.99390(19) 0.14083(18)
C10_19 C 0.36729(18) 0.99966(17) 0.17987(18)
C12_19 C 0.1105(2) 0.8168(2) 0.0049(2)
O8_19 O 0.1845(4) 0.9942(4) 0.0672(7)
H16_19 H 0.166856 0.990928 0.0952864
N2_19 N 0.17579(17) 0.91773(16) 0.99346(17)
C1_19 C 0.14292(18) 0.89145(19) 0.97936(18)
H1_19 H 0.1243 0.8969 0.9549
N1_20 N 0.05445(18) 0.34907(16) 0.02931(18)
C2_20 C 0.10905(18) 0.39577(18) 0.0074(2)
C3_20 C 0.0735(2) 0.3883(2) 0.0378(2)
H2_20 H 0.0646 0.4075 0.0603
C12_20 C 0.1395(2) 0.4332(2) 0.0049(2)
O8_20 O 0.0655(4) 0.2558(4) 0.0672(7)
O9_20 O 0.0265(3) 0.1906(4) 0.0596(3)
H13_20 H 0.0538929 0.18896 0.0408379
H14_20 H 0.0170698 0.160626 0.0682347
H15_20 H 0.0497316 0.227238 0.067526
H16_20 H 0.0831439 0.259072 0.0952864
N2_20 N 0.07421(17) 0.33227(16) 0.99346(17)
N3_20 N 0.02659(16) 0.22578(15) 0.94028(17)
C1_20 C 0.10708(18) 0.35855(19) 0.97936(18)
H1_20 H 0.1257 0.3531 0.9549
C8_20 C 0.01008(17) 0.16828(16) 0.89788(19)
C9_20 C 0.03848(19) 0.20509(19) 0.90319(19)
H6_20 H 0.0615 0.2132 0.8839
C11_20 C 0.01042(18) 0.1346(2) 0.86221(18)
O2_20 O 0.88893(18) 0.27233(18) 0.21456(15)
O7_20 O 0.99721(13) 0.28321(13) 0.00591(14)
N5_20 N 0.94333(17) 0.24812(16) 0.07282(16)
N6_20 N 0.96511(16) 0.28145(16) 0.09432(16)
C4_20 C 0.94676(17) 0.28668(18) 0.13496(19)
H3_20 H 0.9552 0.3076 0.1560
C5_20 C 0.91328(17) 0.25610(19) 0.14083(18)
C6_20 C 0.91197(18) 0.23337(19) 0.10041(19)
H4_20 H 0.8920 0.2110 0.0937
C10_20 C 0.88271(18) 0.25034(17) 0.17987(18)
N4_20 N 0.99188(15) 0.20518(14) 0.96007(15)
C7_20 C 0.98132(18) 0.16915(18) 0.93474(19)
H5_20 H 0.9590 0.1489 0.9410
N1_21 N 0.05445(18) 0.40093(16) 0.72069(18)
N2_21 N 0.07421(17) 0.41773(16) 0.75654(17)
N3_21 N 0.02659(16) 0.52422(15) 0.80972(17)
C1_21 C 0.10708(18) 0.39145(19) 0.77064(18)
H1_21 H 0.1257 0.3969 0.7951
C2_21 C 0.10905(18) 0.35423(18) 0.7426(2)
C3_21 C 0.0735(2) 0.3617(2) 0.7122(2)
H2_21 H 0.0646 0.3425 0.6897
C8_21 C 0.01008(17) 0.58172(16) 0.85212(19)
C9_21 C 0.03848(19) 0.54491(19) 0.84681(19)
H6_21 H 0.0615 0.5368 0.8661
C11_21 C 0.01042(18) 0.6154(2) 0.88779(18)
C12_21 C 0.1395(2) 0.3168(2) 0.7451(2)
O8_21 O 0.0655(4) 0.4942(4) 0.6828(7)
O9_21 O 0.0265(3) 0.5594(4) 0.6904(3)
H13_21 H 0.0538929 0.56104 0.709162
H14_21 H 0.0170698 0.589374 0.681765
H15_21 H 0.0497316 0.522762 0.682474
H16_21 H 0.0831439 0.490928 0.654714
O2_21 O 0.88893(18) 0.47767(18) 0.53544(15)
O7_21 O 0.99721(13) 0.46679(13) 0.74409(14)
N4_21 N 0.99188(15) 0.54482(14) 0.78993(15)
N5_21 N 0.94333(17) 0.50188(16) 0.67718(16)
N6_21 N 0.96511(16) 0.46855(16) 0.65568(16)
C4_21 C 0.94676(17) 0.46332(18) 0.61504(19)
H3_21 H 0.9552 0.4424 0.5940
C5_21 C 0.91328(17) 0.49390(19) 0.60917(18)
C6_21 C 0.91197(18) 0.51663(19) 0.64959(19)
H4_21 H 0.8920 0.5390 0.6563
C7_21 C 0.98132(18) 0.58085(18) 0.81526(19)
H5_21 H 0.9590 0.6011 0.8090
C10_21 C 0.88271(18) 0.49966(17) 0.57013(18)
O2_22 O 0.36107(18) 0.77233(18) 0.53544(15)
O7_22 O 0.25279(13) 0.78321(13) 0.74409(14)
N1_22 N 0.19555(18) 0.84907(16) 0.72069(18)
N2_22 N 0.17579(17) 0.83227(16) 0.75654(17)
N3_22 N 0.22341(16) 0.72578(15) 0.80972(17)
N4_22 N 0.25812(15) 0.70518(14) 0.78993(15)
N5_22 N 0.30667(17) 0.74812(16) 0.67718(16)
N6_22 N 0.28489(16) 0.78145(16) 0.65568(16)
C1_22 C 0.14292(18) 0.85855(19) 0.77064(18)
H1_22 H 0.1243 0.8531 0.7951
C2_22 C 0.14095(18) 0.89577(18) 0.7426(2)
C3_22 C 0.1765(2) 0.8883(2) 0.7122(2)
H2_22 H 0.1854 0.9075 0.6897
C4_22 C 0.30324(17) 0.78668(18) 0.61504(19)
H3_22 H 0.2948 0.8076 0.5940
C5_22 C 0.33672(17) 0.75610(19) 0.60917(18)
C6_22 C 0.33803(18) 0.73337(19) 0.64959(19)
H4_22 H 0.3580 0.7110 0.6563
C7_22 C 0.26868(18) 0.66915(18) 0.81526(19)
H5_22 H 0.2910 0.6489 0.8090
C8_22 C 0.23992(17) 0.66828(16) 0.85212(19)
C9_22 C 0.21152(19) 0.70509(19) 0.84681(19)
H6_22 H 0.1885 0.7132 0.8661
C10_22 C 0.36729(18) 0.75034(17) 0.57013(18)
C11_22 C 0.23958(18) 0.6346(2) 0.88779(18)
C12_22 C 0.1105(2) 0.9332(2) 0.7451(2)
O8_22 O 0.1845(4) 0.7558(4) 0.6828(7)
O9_22 O 0.2235(3) 0.6906(4) 0.6904(3)
H13_22 H 0.196107 0.68896 0.709162
H14_22 H 0.23293 0.660626 0.681765
H15_22 H 0.200268 0.727238 0.682474
H16_22 H 0.166856 0.759072 0.654714
O2_23 O 0.36107(18) 0.47767(18) 0.71456(15)
O7_23 O 0.25279(13) 0.46679(13) 0.50591(14)
N1_23 N 0.19555(18) 0.40093(16) 0.52931(18)
N2_23 N 0.17579(17) 0.41773(16) 0.49346(17)
N3_23 N 0.22341(16) 0.52422(15) 0.44028(17)
N4_23 N 0.25812(15) 0.54482(14) 0.46007(15)
N5_23 N 0.30667(17) 0.50188(16) 0.57282(16)
N6_23 N 0.28489(16) 0.46855(16) 0.59432(16)
C1_23 C 0.14292(18) 0.39145(19) 0.47936(18)
H1_23 H 0.1243 0.3969 0.4549
C2_23 C 0.14095(18) 0.35423(18) 0.5074(2)
C3_23 C 0.1765(2) 0.3617(2) 0.5378(2)
H2_23 H 0.1854 0.3425 0.5603
C4_23 C 0.30324(17) 0.46332(18) 0.63496(19)
H3_23 H 0.2948 0.4424 0.6560
C5_23 C 0.33672(17) 0.49390(19) 0.64083(18)
C6_23 C 0.33803(18) 0.51663(19) 0.60041(19)
H4_23 H 0.3580 0.5390 0.5937
C7_23 C 0.26868(18) 0.58085(18) 0.43474(19)
H5_23 H 0.2910 0.6011 0.4410
C8_23 C 0.23992(17) 0.58172(16) 0.39788(19)
C9_23 C 0.21152(19) 0.54491(19) 0.40319(19)
H6_23 H 0.1885 0.5368 0.3839
C10_23 C 0.36729(18) 0.49966(17) 0.67987(18)
C11_23 C 0.23958(18) 0.6154(2) 0.36221(18)
C12_23 C 0.1105(2) 0.3168(2) 0.5049(2)
O8_23 O 0.1845(4) 0.4942(4) 0.5672(7)
O9_23 O 0.2235(3) 0.5594(4) 0.5596(3)
H13_23 H 0.196107 0.56104 0.540838
H14_23 H 0.23293 0.589374 0.568235
H15_23 H 0.200268 0.522762 0.567526
H16_23 H 0.166856 0.490928 0.595286
N1_24 N 0.05445(18) 0.84907(16) 0.52931(18)
N2_24 N 0.07421(17) 0.83227(16) 0.49346(17)
N3_24 N 0.02659(16) 0.72578(15) 0.44028(17)
C1_24 C 0.10708(18) 0.85855(19) 0.47936(18)
H1_24 H 0.1257 0.8531 0.4549
C2_24 C 0.10905(18) 0.89577(18) 0.5074(2)
C3_24 C 0.0735(2) 0.8883(2) 0.5378(2)
H2_24 H 0.0646 0.9075 0.5603
C8_24 C 0.01008(17) 0.66828(16) 0.39788(19)
C9_24 C 0.03848(19) 0.70509(19) 0.40319(19)
H6_24 H 0.0615 0.7132 0.3839
C11_24 C 0.01042(18) 0.6346(2) 0.36221(18)
C12_24 C 0.1395(2) 0.9332(2) 0.5049(2)
O8_24 O 0.0655(4) 0.7558(4) 0.5672(7)
O9_24 O 0.0265(3) 0.6906(4) 0.5596(3)
H13_24 H 0.0538929 0.68896 0.540838
H14_24 H 0.0170698 0.660626 0.568235
H15_24 H 0.0497316 0.727238 0.567526
H16_24 H 0.0831439 0.759072 0.595286
O2_24 O 0.88893(18) 0.77233(18) 0.71456(15)
O7_24 O 0.99721(13) 0.78321(13) 0.50591(14)
N4_24 N 0.99188(15) 0.70518(14) 0.46007(15)
N5_24 N 0.94333(17) 0.74812(16) 0.57282(16)
N6_24 N 0.96511(16) 0.78145(16) 0.59432(16)
C4_24 C 0.94676(17) 0.78668(18) 0.63496(19)
H3_24 H 0.9552 0.8076 0.6560
C5_24 C 0.91328(17) 0.75610(19) 0.64083(18)
C6_24 C 0.91197(18) 0.73337(19) 0.60041(19)
H4_24 H 0.8920 0.7110 0.5937
C7_24 C 0.98132(18) 0.66915(18) 0.43474(19)
H5_24 H 0.9590 0.6489 0.4410
C10_24 C 0.88271(18) 0.75034(17) 0.67987(18)
N3_25 N 0.52659(16) 0.02422(15) 0.80972(17)
N4_25 N 0.49188(15) 0.04482(14) 0.78993(15)
N5_25 N 0.44333(17) 0.00188(16) 0.67718(16)
C6_25 C 0.41197(18) 0.01663(19) 0.64959(19)
H4_25 H 0.3920 0.0390 0.6563
C7_25 C 0.48132(18) 0.08085(18) 0.81526(19)
H5_25 H 0.4590 0.1011 0.8090
C8_25 C 0.51008(17) 0.08172(16) 0.85212(19)
C9_25 C 0.53848(19) 0.04491(19) 0.84681(19)
H6_25 H 0.5615 0.0368 0.8661
C11_25 C 0.51042(18) 0.1154(2) 0.88779(18)
O9_25 O 0.5265(3) 0.0594(4) 0.6904(3)
H13_25 H 0.553893 0.0610397 0.709162
H14_25 H 0.51707 0.0893741 0.681765
H15_25 H 0.549732 0.0227615 0.682474
O2_25 O 0.38893(18) 0.97767(18) 0.53544(15)
O7_25 O 0.49721(13) 0.96679(13) 0.74409(14)
N1_25 N 0.55445(18) 0.90093(16) 0.72069(18)
N2_25 N 0.57421(17) 0.91773(16) 0.75654(17)
N6_25 N 0.46511(16) 0.96855(16) 0.65568(16)
C1_25 C 0.60708(18) 0.89145(19) 0.77064(18)
H1_25 H 0.6257 0.8969 0.7951
C2_25 C 0.60905(18) 0.85423(18) 0.7426(2)
C3_25 C 0.5735(2) 0.8617(2) 0.7122(2)
H2_25 H 0.5646 0.8425 0.6897
C4_25 C 0.44676(17) 0.96332(18) 0.61504(19)
H3_25 H 0.4552 0.9424 0.5940
C5_25 C 0.41328(17) 0.99390(19) 0.60917(18)
C10_25 C 0.38271(18) 0.99966(17) 0.57013(18)
C12_25 C 0.6395(2) 0.8168(2) 0.7451(2)
O8_25 O 0.5655(4) 0.9942(4) 0.6828(7)
H16_25 H 0.583144 0.990928 0.654714
O2_26 O 0.86107(18) 0.27233(18) 0.53544(15)
O7_26 O 0.75279(13) 0.28321(13) 0.74409(14)
N1_26 N 0.69555(18) 0.34907(16) 0.72069(18)
N2_26 N 0.67579(17) 0.33227(16) 0.75654(17)
N3_26 N 0.72341(16) 0.22578(15) 0.80972(17)
N4_26 N 0.75812(15) 0.20518(14) 0.78993(15)
N5_26 N 0.80667(17) 0.24812(16) 0.67718(16)
N6_26 N 0.78489(16) 0.28145(16) 0.65568(16)
C1_26 C 0.64292(18) 0.35855(19) 0.77064(18)
H1_26 H 0.6243 0.3531 0.7951
C2_26 C 0.64095(18) 0.39577(18) 0.7426(2)
C3_26 C 0.6765(2) 0.3883(2) 0.7122(2)
H2_26 H 0.6854 0.4075 0.6897
C4_26 C 0.80324(17) 0.28668(18) 0.61504(19)
H3_26 H 0.7948 0.3076 0.5940
C5_26 C 0.83672(17) 0.25610(19) 0.60917(18)
C6_26 C 0.83803(18) 0.23337(19) 0.64959(19)
H4_26 H 0.8580 0.2110 0.6563
C7_26 C 0.76868(18) 0.16915(18) 0.81526(19)
H5_26 H 0.7910 0.1489 0.8090
C8_26 C 0.73992(17) 0.16828(16) 0.85212(19)
C9_26 C 0.71152(19) 0.20509(19) 0.84681(19)
H6_26 H 0.6885 0.2132 0.8661
C10_26 C 0.86729(18) 0.25034(17) 0.57013(18)
C11_26 C 0.73958(18) 0.1346(2) 0.88779(18)
C12_26 C 0.6105(2) 0.4332(2) 0.7451(2)
O8_26 O 0.6845(4) 0.2558(4) 0.6828(7)
O9_26 O 0.7235(3) 0.1906(4) 0.6904(3)
H13_26 H 0.696107 0.18896 0.709162
H14_26 H 0.73293 0.160626 0.681765
H15_26 H 0.700268 0.227238 0.682474
H16_26 H 0.666856 0.259072 0.654714
N3_27 N 0.72341(16) 0.02422(15) 0.44028(17)
N4_27 N 0.75812(15) 0.04482(14) 0.46007(15)
N5_27 N 0.80667(17) 0.00188(16) 0.57282(16)
C6_27 C 0.83803(18) 0.01663(19) 0.60041(19)
H4_27 H 0.8580 0.0390 0.5937
C7_27 C 0.76868(18) 0.08085(18) 0.43474(19)
H5_27 H 0.7910 0.1011 0.4410
C8_27 C 0.73992(17) 0.08172(16) 0.39788(19)
C9_27 C 0.71152(19) 0.04491(19) 0.40319(19)
H6_27 H 0.6885 0.0368 0.3839
C11_27 C 0.73958(18) 0.1154(2) 0.36221(18)
O9_27 O 0.7235(3) 0.0594(4) 0.5596(3)
H13_27 H 0.696107 0.0610397 0.540838
H14_27 H 0.73293 0.0893741 0.568235
H15_27 H 0.700268 0.0227615 0.567526
O2_27 O 0.86107(18) 0.97767(18) 0.71456(15)
O7_27 O 0.75279(13) 0.96679(13) 0.50591(14)
N1_27 N 0.69555(18) 0.90093(16) 0.52931(18)
N2_27 N 0.67579(17) 0.91773(16) 0.49346(17)
N6_27 N 0.78489(16) 0.96855(16) 0.59432(16)
C1_27 C 0.64292(18) 0.89145(19) 0.47936(18)
H1_27 H 0.6243 0.8969 0.4549
C2_27 C 0.64095(18) 0.85423(18) 0.5074(2)
C3_27 C 0.6765(2) 0.8617(2) 0.5378(2)
H2_27 H 0.6854 0.8425 0.5603
C4_27 C 0.80324(17) 0.96332(18) 0.63496(19)
H3_27 H 0.7948 0.9424 0.6560
C5_27 C 0.83672(17) 0.99390(19) 0.64083(18)
C10_27 C 0.86729(18) 0.99966(17) 0.67987(18)
C12_27 C 0.6105(2) 0.8168(2) 0.5049(2)
O8_27 O 0.6845(4) 0.9942(4) 0.5672(7)
H16_27 H 0.666856 0.990928 0.595286
O2_28 O 0.38893(18) 0.27233(18) 0.71456(15)
O7_28 O 0.49721(13) 0.28321(13) 0.50591(14)
N1_28 N 0.55445(18) 0.34907(16) 0.52931(18)
N2_28 N 0.57421(17) 0.33227(16) 0.49346(17)
N3_28 N 0.52659(16) 0.22578(15) 0.44028(17)
N4_28 N 0.49188(15) 0.20518(14) 0.46007(15)
N5_28 N 0.44333(17) 0.24812(16) 0.57282(16)
N6_28 N 0.46511(16) 0.28145(16) 0.59432(16)
C1_28 C 0.60708(18) 0.35855(19) 0.47936(18)
H1_28 H 0.6257 0.3531 0.4549
C2_28 C 0.60905(18) 0.39577(18) 0.5074(2)
C3_28 C 0.5735(2) 0.3883(2) 0.5378(2)
H2_28 H 0.5646 0.4075 0.5603
C4_28 C 0.44676(17) 0.28668(18) 0.63496(19)
H3_28 H 0.4552 0.3076 0.6560
C5_28 C 0.41328(17) 0.25610(19) 0.64083(18)
C6_28 C 0.41197(18) 0.23337(19) 0.60041(19)
H4_28 H 0.3920 0.2110 0.5937
C7_28 C 0.48132(18) 0.16915(18) 0.43474(19)
H5_28 H 0.4590 0.1489 0.4410
C8_28 C 0.51008(17) 0.16828(16) 0.39788(19)
C9_28 C 0.53848(19) 0.20509(19) 0.40319(19)
H6_28 H 0.5615 0.2132 0.3839
C10_28 C 0.38271(18) 0.25034(17) 0.67987(18)
C11_28 C 0.51042(18) 0.1346(2) 0.36221(18)
C12_28 C 0.6395(2) 0.4332(2) 0.5049(2)
O8_28 O 0.5655(4) 0.2558(4) 0.5672(7)
O9_28 O 0.5265(3) 0.1906(4) 0.5596(3)
H13_28 H 0.553893 0.18896 0.540838
H14_28 H 0.51707 0.160626 0.568235
H15_28 H 0.549732 0.227238 0.567526
H16_28 H 0.583144 0.259072 0.595286
O2_29 O 0.38893(18) 0.47767(18) 0.03544(15)
O7_29 O 0.49721(13) 0.46679(13) 0.24409(14)
N1_29 N 0.55445(18) 0.40093(16) 0.22069(18)
N2_29 N 0.57421(17) 0.41773(16) 0.25654(17)
N3_29 N 0.52659(16) 0.52422(15) 0.30972(17)
N4_29 N 0.49188(15) 0.54482(14) 0.28993(15)
N5_29 N 0.44333(17) 0.50188(16) 0.17718(16)
N6_29 N 0.46511(16) 0.46855(16) 0.15568(16)
C1_29 C 0.60708(18) 0.39145(19) 0.27064(18)
H1_29 H 0.6257 0.3969 0.2951
C2_29 C 0.60905(18) 0.35423(18) 0.2426(2)
C3_29 C 0.5735(2) 0.3617(2) 0.2122(2)
H2_29 H 0.5646 0.3425 0.1897
C4_29 C 0.44676(17) 0.46332(18) 0.11504(19)
H3_29 H 0.4552 0.4424 0.0940
C5_29 C 0.41328(17) 0.49390(19) 0.10917(18)
C6_29 C 0.41197(18) 0.51663(19) 0.14959(19)
H4_29 H 0.3920 0.5390 0.1563
C7_29 C 0.48132(18) 0.58085(18) 0.31526(19)
H5_29 H 0.4590 0.6011 0.3090
C8_29 C 0.51008(17) 0.58172(16) 0.35212(19)
C9_29 C 0.53848(19) 0.54491(19) 0.34681(19)
H6_29 H 0.5615 0.5368 0.3661
C10_29 C 0.38271(18) 0.49966(17) 0.07013(18)
C11_29 C 0.51042(18) 0.6154(2) 0.38779(18)
C12_29 C 0.6395(2) 0.3168(2) 0.2451(2)
O8_29 O 0.5655(4) 0.4942(4) 0.1828(7)
O9_29 O 0.5265(3) 0.5594(4) 0.1904(3)
H13_29 H 0.553893 0.56104 0.209162
H14_29 H 0.51707 0.589374 0.181765
H15_29 H 0.549732 0.522762 0.182474
H16_29 H 0.583144 0.490928 0.154714
O2_30 O 0.86107(18) 0.77233(18) 0.03544(15)
O7_30 O 0.75279(13) 0.78321(13) 0.24409(14)
N1_30 N 0.69555(18) 0.84907(16) 0.22069(18)
N2_30 N 0.67579(17) 0.83227(16) 0.25654(17)
N3_30 N 0.72341(16) 0.72578(15) 0.30972(17)
N4_30 N 0.75812(15) 0.70518(14) 0.28993(15)
N5_30 N 0.80667(17) 0.74812(16) 0.17718(16)
N6_30 N 0.78489(16) 0.78145(16) 0.15568(16)
C1_30 C 0.64292(18) 0.85855(19) 0.27064(18)
H1_30 H 0.6243 0.8531 0.2951
C2_30 C 0.64095(18) 0.89577(18) 0.2426(2)
C3_30 C 0.6765(2) 0.8883(2) 0.2122(2)
H2_30 H 0.6854 0.9075 0.1897
C4_30 C 0.80324(17) 0.78668(18) 0.11504(19)
H3_30 H 0.7948 0.8076 0.0940
C5_30 C 0.83672(17) 0.75610(19) 0.10917(18)
C6_30 C 0.83803(18) 0.73337(19) 0.14959(19)
H4_30 H 0.8580 0.7110 0.1563
C7_30 C 0.76868(18) 0.66915(18) 0.31526(19)
H5_30 H 0.7910 0.6489 0.3090
C8_30 C 0.73992(17) 0.66828(16) 0.35212(19)
C9_30 C 0.71152(19) 0.70509(19) 0.34681(19)
H6_30 H 0.6885 0.7132 0.3661
C10_30 C 0.86729(18) 0.75034(17) 0.07013(18)
C11_30 C 0.73958(18) 0.6346(2) 0.38779(18)
C12_30 C 0.6105(2) 0.9332(2) 0.2451(2)
O8_30 O 0.6845(4) 0.7558(4) 0.1828(7)
O9_30 O 0.7235(3) 0.6906(4) 0.1904(3)
H13_30 H 0.696107 0.68896 0.209162
H14_30 H 0.73293 0.660626 0.181765
H15_30 H 0.700268 0.727238 0.182474
H16_30 H 0.666856 0.759072 0.154714
O2_31 O 0.86107(18) 0.47767(18) 0.21456(15)
O7_31 O 0.75279(13) 0.46679(13) 0.00591(14)
N1_31 N 0.69555(18) 0.40093(16) 0.02931(18)
N5_31 N 0.80667(17) 0.50188(16) 0.07282(16)
N6_31 N 0.78489(16) 0.46855(16) 0.09432(16)
C2_31 C 0.64095(18) 0.35423(18) 0.0074(2)
C3_31 C 0.6765(2) 0.3617(2) 0.0378(2)
H2_31 H 0.6854 0.3425 0.0603
C4_31 C 0.80324(17) 0.46332(18) 0.13496(19)
H3_31 H 0.7948 0.4424 0.1560
C5_31 C 0.83672(17) 0.49390(19) 0.14083(18)
C6_31 C 0.83803(18) 0.51663(19) 0.10041(19)
H4_31 H 0.8580 0.5390 0.0937
C10_31 C 0.86729(18) 0.49966(17) 0.17987(18)
C12_31 C 0.6105(2) 0.3168(2) 0.0049(2)
O8_31 O 0.6845(4) 0.4942(4) 0.0672(7)
O9_31 O 0.7235(3) 0.5594(4) 0.0596(3)
H13_31 H 0.696107 0.56104 0.0408379
H14_31 H 0.73293 0.589374 0.0682347
H15_31 H 0.700268 0.522762 0.067526
H16_31 H 0.666856 0.490928 0.0952864
N2_31 N 0.67579(17) 0.41773(16) 0.99346(17)
N3_31 N 0.72341(16) 0.52422(15) 0.94028(17)
N4_31 N 0.75812(15) 0.54482(14) 0.96007(15)
C1_31 C 0.64292(18) 0.39145(19) 0.97936(18)
H1_31 H 0.6243 0.3969 0.9549
C7_31 C 0.76868(18) 0.58085(18) 0.93474(19)
H5_31 H 0.7910 0.6011 0.9410
C8_31 C 0.73992(17) 0.58172(16) 0.89788(19)
C9_31 C 0.71152(19) 0.54491(19) 0.90319(19)
H6_31 H 0.6885 0.5368 0.8839
C11_31 C 0.73958(18) 0.6154(2) 0.86221(18)
O2_32 O 0.38893(18) 0.77233(18) 0.21456(15)
O7_32 O 0.49721(13) 0.78321(13) 0.00591(14)
N1_32 N 0.55445(18) 0.84907(16) 0.02931(18)
N5_32 N 0.44333(17) 0.74812(16) 0.07282(16)
N6_32 N 0.46511(16) 0.78145(16) 0.09432(16)
C2_32 C 0.60905(18) 0.89577(18) 0.0074(2)
C3_32 C 0.5735(2) 0.8883(2) 0.0378(2)
H2_32 H 0.5646 0.9075 0.0603
C4_32 C 0.44676(17) 0.78668(18) 0.13496(19)
H3_32 H 0.4552 0.8076 0.1560
C5_32 C 0.41328(17) 0.75610(19) 0.14083(18)
C6_32 C 0.41197(18) 0.73337(19) 0.10041(19)
H4_32 H 0.3920 0.7110 0.0937
C10_32 C 0.38271(18) 0.75034(17) 0.17987(18)
C12_32 C 0.6395(2) 0.9332(2) 0.0049(2)
O8_32 O 0.5655(4) 0.7558(4) 0.0672(7)
O9_32 O 0.5265(3) 0.6906(4) 0.0596(3)
H13_32 H 0.553893 0.68896 0.0408379
H14_32 H 0.51707 0.660626 0.0682347
H15_32 H 0.549732 0.727238 0.067526
H16_32 H 0.583144 0.759072 0.0952864
N2_32 N 0.57421(17) 0.83227(16) 0.99346(17)
N3_32 N 0.52659(16) 0.72578(15) 0.94028(17)
N4_32 N 0.49188(15) 0.70518(14) 0.96007(15)
C1_32 C 0.60708(18) 0.85855(19) 0.97936(18)
H1_32 H 0.6257 0.8531 0.9549
C7_32 C 0.48132(18) 0.66915(18) 0.93474(19)
H5_32 H 0.4590 0.6489 0.9410
C8_32 C 0.51008(17) 0.66828(16) 0.89788(19)
C9_32 C 0.53848(19) 0.70509(19) 0.90319(19)
H6_32 H 0.5615 0.7132 0.8839
C11_32 C 0.51042(18) 0.6346(2) 0.86221(18)
N7 N 0.1250 0.1250 0.7980(7)
C13 C 0.1291(4) 0.1658(5) 0.7763(6)
C14 C 0.1209(4) 0.0842(5) 0.7763(6)
H7 H 0.0998288 0.171508 0.755357
H8 H 0.131691 0.191585 0.801428
H9 H 0.158946 0.165816 0.755357
H10 H 0.150171 0.0784923 0.755357
H11 H 0.118309 0.0584146 0.801428
H12 H 0.0910536 0.0841837 0.755357
H17 H 0.0974498 0.127652 0.817714
H18 H 0.15255 0.122348 0.817714
N7_2 N 0.6250 0.6250 0.7980(7)
C13_2 C 0.6209(4) 0.5842(5) 0.7763(6)
C14_2 C 0.6291(4) 0.6658(5) 0.7763(6)
H7_2 H 0.650171 0.578492 0.755357
H8_2 H 0.618309 0.558415 0.801428
H9_2 H 0.591054 0.584184 0.755357
H10_2 H 0.599829 0.671508 0.755357
H11_2 H 0.631691 0.691585 0.801428
H12_2 H 0.658946 0.665816 0.755357
H17_2 H 0.65255 0.622348 0.817714
H18_2 H 0.59745 0.627652 0.817714
N7_3 N 0.6250 0.1250 0.9520(7)
C13_3 C 0.6209(4) 0.1658(5) 0.9737(6)
C14_3 C 0.6291(4) 0.0842(5) 0.9737(6)
H7_3 H 0.650171 0.171508 0.994643
H8_3 H 0.618309 0.191585 0.948572
H9_3 H 0.591054 0.165816 0.994643
H10_3 H 0.599829 0.0784923 0.994643
H11_3 H 0.631691 0.0584146 0.948572
H12_3 H 0.658946 0.0841837 0.994643
H17_3 H 0.65255 0.127652 0.932286
H18_3 H 0.59745 0.122348 0.932286
N7_4 N 0.1250 0.6250 0.9520(7)
C13_4 C 0.1291(4) 0.5842(5) 0.9737(6)
C14_4 C 0.1209(4) 0.6658(5) 0.9737(6)
H7_4 H 0.0998288 0.578492 0.994643
H8_4 H 0.131691 0.558415 0.948572
H9_4 H 0.158946 0.584184 0.994643
H10_4 H 0.150171 0.671508 0.994643
H11_4 H 0.118309 0.691585 0.948572
H12_4 H 0.0910536 0.665816 0.994643
H17_4 H 0.0974498 0.622348 0.932286
H18_4 H 0.15255 0.627652 0.932286
N7_5 N 0.1250 0.6250 0.2980(7)
C13_5 C 0.1291(4) 0.6658(5) 0.2763(6)
C14_5 C 0.1209(4) 0.5842(5) 0.2763(6)
H7_5 H 0.0998288 0.671508 0.255357
H8_5 H 0.131691 0.691585 0.301428
H9_5 H 0.158946 0.665816 0.255357
H10_5 H 0.150171 0.578492 0.255357
H11_5 H 0.118309 0.558415 0.301428
H12_5 H 0.0910536 0.584184 0.255357
H17_5 H 0.0974498 0.627652 0.317714
H18_5 H 0.15255 0.622348 0.317714
N7_6 N 0.6250 0.1250 0.2980(7)
C13_6 C 0.6209(4) 0.0842(5) 0.2763(6)
C14_6 C 0.6291(4) 0.1658(5) 0.2763(6)
H7_6 H 0.650171 0.0784923 0.255357
H8_6 H 0.618309 0.0584146 0.301428
H9_6 H 0.591054 0.0841837 0.255357
H10_6 H 0.599829 0.171508 0.255357
H11_6 H 0.631691 0.191585 0.301428
H12_6 H 0.658946 0.165816 0.255357
H17_6 H 0.65255 0.122348 0.317714
H18_6 H 0.59745 0.127652 0.317714
N7_7 N 0.6250 0.6250 0.4520(7)
C13_7 C 0.6209(4) 0.6658(5) 0.4737(6)
C14_7 C 0.6291(4) 0.5842(5) 0.4737(6)
H7_7 H 0.650171 0.671508 0.494643
H8_7 H 0.618309 0.691585 0.448572
H9_7 H 0.591054 0.665816 0.494643
H10_7 H 0.599829 0.578492 0.494643
H11_7 H 0.631691 0.558415 0.448572
H12_7 H 0.658946 0.584184 0.494643
H17_7 H 0.65255 0.627652 0.432286
H18_7 H 0.59745 0.622348 0.432286
N7_8 N 0.1250 0.1250 0.4520(7)
C13_8 C 0.1291(4) 0.0842(5) 0.4737(6)
C14_8 C 0.1209(4) 0.1658(5) 0.4737(6)
H7_8 H 0.0998288 0.0784923 0.494643
H8_8 H 0.131691 0.0584146 0.448572
H9_8 H 0.158946 0.0841837 0.494643
H10_8 H 0.150171 0.171508 0.494643
H11_8 H 0.118309 0.191585 0.448572
H12_8 H 0.0910536 0.165816 0.494643
H17_8 H 0.0974498 0.122348 0.432286
H18_8 H 0.15255 0.127652 0.432286
N7_9 N 0.8750 0.8750 0.2020(7)
C13_9 C 0.8709(4) 0.8342(5) 0.2237(6)
C14_9 C 0.8791(4) 0.9158(5) 0.2237(6)
H7_9 H 0.900171 0.828492 0.244643
H8_9 H 0.868309 0.808415 0.198572
H9_9 H 0.841054 0.834184 0.244643
H10_9 H 0.849829 0.921508 0.244643
H11_9 H 0.881691 0.941585 0.198572
H12_9 H 0.908946 0.915816 0.244643
H17_9 H 0.90255 0.872348 0.182286
H18_9 H 0.84745 0.877652 0.182286
N7_10 N 0.3750 0.3750 0.2020(7)
C13_10 C 0.3791(4) 0.4158(5) 0.2237(6)
C14_10 C 0.3709(4) 0.3342(5) 0.2237(6)
H7_10 H 0.349829 0.421508 0.244643
H8_10 H 0.381691 0.441585 0.198572
H9_10 H 0.408946 0.415816 0.244643
H10_10 H 0.400171 0.328492 0.244643
H11_10 H 0.368309 0.308415 0.198572
H12_10 H 0.341054 0.334184 0.244643
H17_10 H 0.34745 0.377652 0.182286
H18_10 H 0.40255 0.372348 0.182286
N7_11 N 0.3750 0.8750 0.0480(7)
C13_11 C 0.3791(4) 0.8342(5) 0.0263(6)
C14_11 C 0.3709(4) 0.9158(5) 0.0263(6)
H7_11 H 0.349829 0.828492 0.00535672
H8_11 H 0.381691 0.808415 0.0514279
H9_11 H 0.408946 0.834184 0.00535672
H10_11 H 0.400171 0.921508 0.00535672
H11_11 H 0.368309 0.941585 0.0514279
H12_11 H 0.341054 0.915816 0.00535672
H17_11 H 0.34745 0.872348 0.067714
H18_11 H 0.40255 0.877652 0.067714
N7_12 N 0.8750 0.3750 0.0480(7)
C13_12 C 0.8709(4) 0.4158(5) 0.0263(6)
C14_12 C 0.8791(4) 0.3342(5) 0.0263(6)
H7_12 H 0.900171 0.421508 0.00535672
H8_12 H 0.868309 0.441585 0.0514279
H9_12 H 0.841054 0.415816 0.00535672
H10_12 H 0.849829 0.328492 0.00535672
H11_12 H 0.881691 0.308415 0.0514279
H12_12 H 0.908946 0.334184 0.00535672
H17_12 H 0.90255 0.377652 0.067714
H18_12 H 0.84745 0.372348 0.067714
N7_13 N 0.8750 0.3750 0.7020(7)
C13_13 C 0.8709(4) 0.3342(5) 0.7237(6)
C14_13 C 0.8791(4) 0.4158(5) 0.7237(6)
H7_13 H 0.900171 0.328492 0.744643
H8_13 H 0.868309 0.308415 0.698572
H9_13 H 0.841054 0.334184 0.744643
H10_13 H 0.849829 0.421508 0.744643
H11_13 H 0.881691 0.441585 0.698572
H12_13 H 0.908946 0.415816 0.744643
H17_13 H 0.90255 0.372348 0.682286
H18_13 H 0.84745 0.377652 0.682286
N7_14 N 0.3750 0.8750 0.7020(7)
C13_14 C 0.3791(4) 0.9158(5) 0.7237(6)
C14_14 C 0.3709(4) 0.8342(5) 0.7237(6)
H7_14 H 0.349829 0.921508 0.744643
H8_14 H 0.381691 0.941585 0.698572
H9_14 H 0.408946 0.915816 0.744643
H10_14 H 0.400171 0.828492 0.744643
H11_14 H 0.368309 0.808415 0.698572
H12_14 H 0.341054 0.834184 0.744643
H17_14 H 0.34745 0.877652 0.682286
H18_14 H 0.40255 0.872348 0.682286
N7_15 N 0.3750 0.3750 0.5480(7)
C13_15 C 0.3791(4) 0.3342(5) 0.5263(6)
C14_15 C 0.3709(4) 0.4158(5) 0.5263(6)
H7_15 H 0.349829 0.328492 0.505357
H8_15 H 0.381691 0.308415 0.551428
H9_15 H 0.408946 0.334184 0.505357
H10_15 H 0.400171 0.421508 0.505357
H11_15 H 0.368309 0.441585 0.551428
H12_15 H 0.341054 0.415816 0.505357
H17_15 H 0.34745 0.372348 0.567714
H18_15 H 0.40255 0.377652 0.567714
N7_16 N 0.8750 0.8750 0.5480(7)
C13_16 C 0.8709(4) 0.9158(5) 0.5263(6)
C14_16 C 0.8791(4) 0.8342(5) 0.5263(6)
H7_16 H 0.900171 0.921508 0.505357
H8_16 H 0.868309 0.941585 0.551428
H9_16 H 0.841054 0.915816 0.505357
H10_16 H 0.849829 0.828492 0.505357
H11_16 H 0.881691 0.808415 0.551428
H12_16 H 0.908946 0.834184 0.505357
H17_16 H 0.90255 0.877652 0.567714
H18_16 H 0.84745 0.872348 0.567714
loop_
_geom_bond_atom_site_label_1
_geom_bond_atom_site_label_2
_geom_bond_site_symmetry_1
_geom_bond_site_symmetry_2
O2 C10 1_555 1_555
C4 N6 1_555 1_555
H3 C4 1_555 1_555
C5 C4 1_555 1_555
C10 C5 1_555 1_555
N4 Cu3 1_555 1_555
N5 Cu3 1_555 1_555
C6 N5 1_555 1_555
H4 C6 1_555 1_555
C7 N4 1_555 1_555
H5 C7 1_555 1_555
Cu4 O1 1_555 1_555
Cu5 O3 1_555 1_555
O13 Cu3 1_555 1_555
O14 Cu3 1_555 1_555
O5 C12 1_555 1_555
O6 C12 1_555 1_555
N1 Cu2 1_555 1_555
N2 Cu1 1_555 1_555
C1 N2 1_555 1_555
H1 C1 1_555 1_555
C2 C1 1_555 1_555
C3 N1 1_555 1_555
H2 C3 1_555 1_555
C12 C2 1_555 1_555
O8 Cu2 1_555 1_555
Cu6 O5 1_555 1_555
O10 Cu1 1_555 1_555
O11 Cu2 1_555 1_555
O6 Cu6 1_555 1_555
N1 N2 1_555 1_555
C2 C3 1_555 1_555
O8 H16 1_555 1_555
O4 C11 1_555 1_555
C9 N3 1_555 1_555
H6 C9 1_555 1_555
C11 C8 1_555 1_555
C8 C9 1_555 1_555
O9 H13 1_555 1_555
O9 H14 1_555 1_555
Cu1_2 O7_2 1_555 1_555
Cu2_2 O7_2 1_555 1_555
Cu3_2 O7_2 1_555 1_555
O1_2 C10_2 1_555 1_555
O2_2 C10_2 1_555 1_555
O3_2 C11_2 1_555 1_555
O4_2 C11_2 1_555 1_555
O5_2 C12_2 1_555 1_555
O6_2 C12_2 1_555 1_555
N1_2 Cu2_2 1_555 1_555
N2_2 Cu1_2 1_555 1_555
N3_2 Cu1_2 1_555 1_555
N4_2 Cu3_2 1_555 1_555
N5_2 Cu3_2 1_555 1_555
N6_2 Cu2_2 1_555 1_555
C1_2 N2_2 1_555 1_555
H1_2 C1_2 1_555 1_555
C2_2 C1_2 1_555 1_555
C3_2 N1_2 1_555 1_555
H2_2 C3_2 1_555 1_555
C4_2 N6_2 1_555 1_555
H3_2 C4_2 1_555 1_555
C5_2 C4_2 1_555 1_555
C6_2 N5_2 1_555 1_555
H4_2 C6_2 1_555 1_555
C7_2 N4_2 1_555 1_555
H5_2 C7_2 1_555 1_555
C8_2 C7_2 1_555 1_555
C9_2 N3_2 1_555 1_555
H6_2 C9_2 1_555 1_555
C10_2 C5_2 1_555 1_555
C11_2 C8_2 1_555 1_555
C12_2 C2_2 1_555 1_555
O8_2 Cu2_2 1_555 1_555
O9_2 Cu3_2 1_555 1_555
Cu4_2 O1_2 1_555 1_555
Cu5_2 O3_2 1_555 1_555
Cu6_2 O5_2 1_555 1_555
O10_2 Cu1_2 1_555 1_555
O11_2 Cu2_2 1_555 1_555
O12_2 Cu2_2 1_555 1_555
O13_2 Cu3_2 1_555 1_555
O14_2 Cu3_2 1_555 1_555
O4_2 Cu5_2 1_555 1_555
O6_2 Cu6_2 1_555 1_555
N1_2 N2_2 1_555 1_555
N3_2 N4_2 1_555 1_555
N5_2 N6_2 1_555 1_555
C2_2 C3_2 1_555 1_555
C5_2 C6_2 1_555 1_555
C8_2 C9_2 1_555 1_555
O9_2 H13_2 1_555 1_555
O9_2 H14_2 1_555 1_555
O8_2 H15_2 1_555 1_555
O8_2 H16_2 1_555 1_555
N2_3 Cu1_3 1_555 1_555
C1_3 N2_3 1_555 1_555
H1_3 C1_3 1_555 1_555
Cu6_3 O5_3 1_555 1_555
O10_3 Cu1_3 1_555 1_555
Cu2_3 O7_3 1_555 1_555
O2_3 C10_3 1_555 1_555
O6_3 C12_3 1_555 1_555
N1_3 Cu2_3 1_555 1_555
N6_3 Cu2_3 1_555 1_555
C3_3 N1_3 1_555 1_555
H2_3 C3_3 1_555 1_555
C4_3 N6_3 1_555 1_555
H3_3 C4_3 1_555 1_555
C5_3 C4_3 1_555 1_555
C10_3 C5_3 1_555 1_555
C12_3 C2_3 1_555 1_555
O8_3 Cu2_3 1_555 1_555
O11_3 Cu2_3 1_555 1_555
O12_3 Cu2_3 1_555 1_555
C2_3 C3_3 1_555 1_555
O8_3 H16_3 1_555 1_555
O3_3 C11_3 1_555 1_555
O4_3 C11_3 1_555 1_555
C7_3 N4_3 1_555 1_555
H5_3 C7_3 1_555 1_555
C8_3 C7_3 1_555 1_555
C9_3 N3_3 1_555 1_555
H6_3 C9_3 1_555 1_555
C11_3 C8_3 1_555 1_555
Cu5_3 O3_3 1_555 1_555
O4_3 Cu5_3 1_555 1_555
N3_3 N4_3 1_555 1_555
C8_3 C9_3 1_555 1_555
N5_3 Cu3_3 1_555 1_555
C6_3 N5_3 1_555 1_555
H4_3 C6_3 1_555 1_555
O9_3 Cu3_3 1_555 1_555
Cu4_3 O1_3 1_555 1_555
O13_3 Cu3_3 1_555 1_555
O9_3 H13_3 1_555 1_555
O9_3 H14_3 1_555 1_555
C7_4 N4_4 1_555 1_555
H5_4 C7_4 1_555 1_555
Cu5_4 O3_4 1_555 1_555
Cu3_4 O7_4 1_555 1_555
O1_4 C10_4 1_555 1_555
O2_4 C10_4 1_555 1_555
N5_4 Cu3_4 1_555 1_555
C4_4 N6_4 1_555 1_555
H3_4 C4_4 1_555 1_555
C5_4 C4_4 1_555 1_555
C6_4 N5_4 1_555 1_555
H4_4 C6_4 1_555 1_555
C10_4 C5_4 1_555 1_555
Cu4_4 O1_4 1_555 1_555
O13_4 Cu3_4 1_555 1_555
N5_4 N6_4 1_555 1_555
C5_4 C6_4 1_555 1_555
O4_4 C11_4 1_555 1_555
N2_4 Cu1_4 1_555 1_555
N3_4 Cu1_4 1_555 1_555
C1_4 N2_4 1_555 1_555
H1_4 C1_4 1_555 1_555
C9_4 N3_4 1_555 1_555
H6_4 C9_4 1_555 1_555
C11_4 C8_4 1_555 1_555
Cu6_4 O5_4 1_555 1_555
O10_4 Cu1_4 1_555 1_555
C8_4 C9_4 1_555 1_555
O6_4 C12_4 1_555 1_555
N1_4 Cu2_4 1_555 1_555
C3_4 N1_4 1_555 1_555
H2_4 C3_4 1_555 1_555
C12_4 C2_4 1_555 1_555
O8_4 Cu2_4 1_555 1_555
O11_4 Cu2_4 1_555 1_555
C2_4 C3_4 1_555 1_555
O9_4 H13_4 1_555 1_555
O9_4 H14_4 1_555 1_555
O8_4 H15_4 1_555 1_555
O8_4 H16_4 1_555 1_555
Cu3_5 O7_5 1_555 1_555
O1_5 C10_5 1_555 1_555
O2_5 C10_5 1_555 1_555
N4_5 Cu3_5 1_555 1_555
N5_5 Cu3_5 1_555 1_555
C4_5 N6_5 1_555 1_555
H3_5 C4_5 1_555 1_555
C5_5 C4_5 1_555 1_555
C6_5 N5_5 1_555 1_555
H4_5 C6_5 1_555 1_555
C7_5 N4_5 1_555 1_555
H5_5 C7_5 1_555 1_555
C10_5 C5_5 1_555 1_555
Cu4_5 O1_5 1_555 1_555
Cu5_5 O3_5 1_555 1_555
O13_5 Cu3_5 1_555 1_555
O14_5 Cu3_5 1_555 1_555
N5_5 N6_5 1_555 1_555
C5_5 C6_5 1_555 1_555
O4_5 C11_5 1_555 1_555
O5_5 C12_5 1_555 1_555
O6_5 C12_5 1_555 1_555
N1_5 Cu2_5 1_555 1_555
N2_5 Cu1_5 1_555 1_555
N3_5 Cu1_5 1_555 1_555
C1_5 N2_5 1_555 1_555
H1_5 C1_5 1_555 1_555
C2_5 C1_5 1_555 1_555
C3_5 N1_5 1_555 1_555
H2_5 C3_5 1_555 1_555
C9_5 N3_5 1_555 1_555
H6_5 C9_5 1_555 1_555
C11_5 C8_5 1_555 1_555
C12_5 C2_5 1_555 1_555
O8_5 Cu2_5 1_555 1_555
Cu6_5 O5_5 1_555 1_555
O10_5 Cu1_5 1_555 1_555
O11_5 Cu2_5 1_555 1_555
O6_5 Cu6_5 1_555 1_555
N1_5 N2_5 1_555 1_555
C2_5 C3_5 1_555 1_555
C8_5 C9_5 1_555 1_555
O9_5 H13_5 1_555 1_555
O9_5 H14_5 1_555 1_555
O8_5 H15_5 1_555 1_555
O8_5 H16_5 1_555 1_555
Cu1_6 O7_6 1_555 1_555
Cu2_6 O7_6 1_555 1_555
Cu3_6 O7_6 1_555 1_555
O1_6 C10_6 1_555 1_555
O2_6 C10_6 1_555 1_555
O3_6 C11_6 1_555 1_555
O4_6 C11_6 1_555 1_555
O5_6 C12_6 1_555 1_555
O6_6 C12_6 1_555 1_555
N1_6 Cu2_6 1_555 1_555
N2_6 Cu1_6 1_555 1_555
N3_6 Cu1_6 1_555 1_555
N4_6 Cu3_6 1_555 1_555
N5_6 Cu3_6 1_555 1_555
N6_6 Cu2_6 1_555 1_555
C1_6 N2_6 1_555 1_555
H1_6 C1_6 1_555 1_555
C2_6 C1_6 1_555 1_555
C3_6 N1_6 1_555 1_555
H2_6 C3_6 1_555 1_555
C4_6 N6_6 1_555 1_555
H3_6 C4_6 1_555 1_555
C5_6 C4_6 1_555 1_555
C6_6 N5_6 1_555 1_555
H4_6 C6_6 1_555 1_555
C7_6 N4_6 1_555 1_555
H5_6 C7_6 1_555 1_555
C8_6 C7_6 1_555 1_555
C9_6 N3_6 1_555 1_555
H6_6 C9_6 1_555 1_555
C10_6 C5_6 1_555 1_555
C11_6 C8_6 1_555 1_555
C12_6 C2_6 1_555 1_555
O8_6 Cu2_6 1_555 1_555
O9_6 Cu3_6 1_555 1_555
Cu4_6 O1_6 1_555 1_555
Cu5_6 O3_6 1_555 1_555
Cu6_6 O5_6 1_555 1_555
O10_6 Cu1_6 1_555 1_555
O11_6 Cu2_6 1_555 1_555
O12_6 Cu2_6 1_555 1_555
O13_6 Cu3_6 1_555 1_555
O14_6 Cu3_6 1_555 1_555
O4_6 Cu5_6 1_555 1_555
O6_6 Cu6_6 1_555 1_555
N1_6 N2_6 1_555 1_555
N3_6 N4_6 1_555 1_555
N5_6 N6_6 1_555 1_555
C2_6 C3_6 1_555 1_555
C5_6 C6_6 1_555 1_555
C8_6 C9_6 1_555 1_555
O9_6 H13_6 1_555 1_555
O9_6 H14_6 1_555 1_555
O8_6 H15_6 1_555 1_555
O8_6 H16_6 1_555 1_555
Cu1_7 O7_7 1_555 1_555
Cu2_7 O7_7 1_555 1_555
Cu3_7 O7_7 1_555 1_555
O1_7 C10_7 1_555 1_555
O2_7 C10_7 1_555 1_555
O3_7 C11_7 1_555 1_555
O4_7 C11_7 1_555 1_555
O5_7 C12_7 1_555 1_555
O6_7 C12_7 1_555 1_555
N1_7 Cu2_7 1_555 1_555
N2_7 Cu1_7 1_555 1_555
N3_7 Cu1_7 1_555 1_555
N4_7 Cu3_7 1_555 1_555
N5_7 Cu3_7 1_555 1_555
N6_7 Cu2_7 1_555 1_555
C1_7 N2_7 1_555 1_555
H1_7 C1_7 1_555 1_555
C2_7 C1_7 1_555 1_555
C3_7 N1_7 1_555 1_555
H2_7 C3_7 1_555 1_555
C4_7 N6_7 1_555 1_555
H3_7 C4_7 1_555 1_555
C5_7 C4_7 1_555 1_555
C6_7 N5_7 1_555 1_555
H4_7 C6_7 1_555 1_555
C7_7 N4_7 1_555 1_555
H5_7 C7_7 1_555 1_555
C8_7 C7_7 1_555 1_555
C9_7 N3_7 1_555 1_555
H6_7 C9_7 1_555 1_555
C10_7 C5_7 1_555 1_555
C11_7 C8_7 1_555 1_555
C12_7 C2_7 1_555 1_555
O8_7 Cu2_7 1_555 1_555
O9_7 Cu3_7 1_555 1_555
Cu4_7 O1_7 1_555 1_555
Cu5_7 O3_7 1_555 1_555
Cu6_7 O5_7 1_555 1_555
O10_7 Cu1_7 1_555 1_555
O11_7 Cu2_7 1_555 1_555
O12_7 Cu2_7 1_555 1_555
O13_7 Cu3_7 1_555 1_555
O14_7 Cu3_7 1_555 1_555
O4_7 Cu5_7 1_555 1_555
O6_7 Cu6_7 1_555 1_555
N1_7 N2_7 1_555 1_555
N3_7 N4_7 1_555 1_555
N5_7 N6_7 1_555 1_555
C2_7 C3_7 1_555 1_555
C5_7 C6_7 1_555 1_555
C8_7 C9_7 1_555 1_555
O9_7 H13_7 1_555 1_555
O9_7 H14_7 1_555 1_555
O8_7 H15_7 1_555 1_555
O8_7 H16_7 1_555 1_555
Cu3_8 O7_8 1_555 1_555
O1_8 C10_8 1_555 1_555
O2_8 C10_8 1_555 1_555
N4_8 Cu3_8 1_555 1_555
N5_8 Cu3_8 1_555 1_555
C4_8 N6_8 1_555 1_555
H3_8 C4_8 1_555 1_555
C5_8 C4_8 1_555 1_555
C6_8 N5_8 1_555 1_555
H4_8 C6_8 1_555 1_555
C7_8 N4_8 1_555 1_555
H5_8 C7_8 1_555 1_555
C10_8 C5_8 1_555 1_555
Cu4_8 O1_8 1_555 1_555
Cu5_8 O3_8 1_555 1_555
O13_8 Cu3_8 1_555 1_555
O14_8 Cu3_8 1_555 1_555
N5_8 N6_8 1_555 1_555
C5_8 C6_8 1_555 1_555
O4_8 C11_8 1_555 1_555
O5_8 C12_8 1_555 1_555
O6_8 C12_8 1_555 1_555
N1_8 Cu2_8 1_555 1_555
N2_8 Cu1_8 1_555 1_555
N3_8 Cu1_8 1_555 1_555
C1_8 N2_8 1_555 1_555
H1_8 C1_8 1_555 1_555
C2_8 C1_8 1_555 1_555
C3_8 N1_8 1_555 1_555
H2_8 C3_8 1_555 1_555
C9_8 N3_8 1_555 1_555
H6_8 C9_8 1_555 1_555
C11_8 C8_8 1_555 1_555
C12_8 C2_8 1_555 1_555
O8_8 Cu2_8 1_555 1_555
Cu6_8 O5_8 1_555 1_555
O10_8 Cu1_8 1_555 1_555
O11_8 Cu2_8 1_555 1_555
O6_8 Cu6_8 1_555 1_555
N1_8 N2_8 1_555 1_555
C2_8 C3_8 1_555 1_555
C8_8 C9_8 1_555 1_555
O9_8 H13_8 1_555 1_555
O9_8 H14_8 1_555 1_555
O8_8 H15_8 1_555 1_555
O8_8 H16_8 1_555 1_555
Cu1_9 O7_9 1_555 1_555
Cu2_9 O7_9 1_555 1_555
O2_9 C10_9 1_555 1_555
O5_9 C12_9 1_555 1_555
O6_9 C12_9 1_555 1_555
N1_9 Cu2_9 1_555 1_555
N2_9 Cu1_9 1_555 1_555
N6_9 Cu2_9 1_555 1_555
C1_9 N2_9 1_555 1_555
H1_9 C1_9 1_555 1_555
C2_9 C1_9 1_555 1_555
C3_9 N1_9 1_555 1_555
H2_9 C3_9 1_555 1_555
C4_9 N6_9 1_555 1_555
H3_9 C4_9 1_555 1_555
C5_9 C4_9 1_555 1_555
C10_9 C5_9 1_555 1_555
C12_9 C2_9 1_555 1_555
O8_9 Cu2_9 1_555 1_555
Cu6_9 O5_9 1_555 1_555
O10_9 Cu1_9 1_555 1_555
O11_9 Cu2_9 1_555 1_555
O12_9 Cu2_9 1_555 1_555
O6_9 Cu6_9 1_555 1_555
N1_9 N2_9 1_555 1_555
C2_9 C3_9 1_555 1_555
O8_9 H16_9 1_555 1_555
O3_9 C11_9 1_555 1_555
O4_9 C11_9 1_555 1_555
N4_9 Cu3_9 1_555 1_555
N5_9 Cu3_9 1_555 1_555
C6_9 N5_9 1_555 1_555
H4_9 C6_9 1_555 1_555
C7_9 N4_9 1_555 1_555
H5_9 C7_9 1_555 1_555
C8_9 C7_9 1_555 1_555
C9_9 N3_9 1_555 1_555
H6_9 C9_9 1_555 1_555
C11_9 C8_9 1_555 1_555
O9_9 Cu3_9 1_555 1_555
Cu4_9 O1_9 1_555 1_555
Cu5_9 O3_9 1_555 1_555
O13_9 Cu3_9 1_555 1_555
O14_9 Cu3_9 1_555 1_555
O4_9 Cu5_9 1_555 1_555
N3_9 N4_9 1_555 1_555
C8_9 C9_9 1_555 1_555
O9_9 H13_9 1_555 1_555
O9_9 H14_9 1_555 1_555
Cu1_10 O7_10 1_555 1_555
Cu2_10 O7_10 1_555 1_555
Cu3_10 O7_10 1_555 1_555
O1_10 C10_10 1_555 1_555
O2_10 C10_10 1_555 1_555
O3_10 C11_10 1_555 1_555
O4_10 C11_10 1_555 1_555
O5_10 C12_10 1_555 1_555
O6_10 C12_10 1_555 1_555
N1_10 Cu2_10 1_555 1_555
N2_10 Cu1_10 1_555 1_555
N3_10 Cu1_10 1_555 1_555
N4_10 Cu3_10 1_555 1_555
N5_10 Cu3_10 1_555 1_555
N6_10 Cu2_10 1_555 1_555
C1_10 N2_10 1_555 1_555
H1_10 C1_10 1_555 1_555
C2_10 C1_10 1_555 1_555
C3_10 N1_10 1_555 1_555
H2_10 C3_10 1_555 1_555
C4_10 N6_10 1_555 1_555
H3_10 C4_10 1_555 1_555
C5_10 C4_10 1_555 1_555
C6_10 N5_10 1_555 1_555
H4_10 C6_10 1_555 1_555
C7_10 N4_10 1_555 1_555
H5_10 C7_10 1_555 1_555
C8_10 C7_10 1_555 1_555
C9_10 N3_10 1_555 1_555
H6_10 C9_10 1_555 1_555
C10_10 C5_10 1_555 1_555
C11_10 C8_10 1_555 1_555
C12_10 C2_10 1_555 1_555
O8_10 Cu2_10 1_555 1_555
O9_10 Cu3_10 1_555 1_555
Cu4_10 O1_10 1_555 1_555
Cu5_10 O3_10 1_555 1_555
Cu6_10 O5_10 1_555 1_555
O10_10 Cu1_10 1_555 1_555
O11_10 Cu2_10 1_555 1_555
O12_10 Cu2_10 1_555 1_555
O13_10 Cu3_10 1_555 1_555
O14_10 Cu3_10 1_555 1_555
O4_10 Cu5_10 1_555 1_555
O6_10 Cu6_10 1_555 1_555
N1_10 N2_10 1_555 1_555
N3_10 N4_10 1_555 1_555
N5_10 N6_10 1_555 1_555
C2_10 C3_10 1_555 1_555
C5_10 C6_10 1_555 1_555
C8_10 C9_10 1_555 1_555
O9_10 H13_10 1_555 1_555
O9_10 H14_10 1_555 1_555
O8_10 H15_10 1_555 1_555
O8_10 H16_10 1_555 1_555
Cu1_11 O7_11 1_555 1_555
Cu2_11 O7_11 1_555 1_555
O2_11 C10_11 1_555 1_555
O5_11 C12_11 1_555 1_555
O6_11 C12_11 1_555 1_555
N1_11 Cu2_11 1_555 1_555
N2_11 Cu1_11 1_555 1_555
N6_11 Cu2_11 1_555 1_555
C1_11 N2_11 1_555 1_555
H1_11 C1_11 1_555 1_555
C2_11 C1_11 1_555 1_555
C3_11 N1_11 1_555 1_555
H2_11 C3_11 1_555 1_555
C4_11 N6_11 1_555 1_555
H3_11 C4_11 1_555 1_555
C5_11 C4_11 1_555 1_555
C10_11 C5_11 1_555 1_555
C12_11 C2_11 1_555 1_555
O8_11 Cu2_11 1_555 1_555
Cu6_11 O5_11 1_555 1_555
O10_11 Cu1_11 1_555 1_555
O11_11 Cu2_11 1_555 1_555
O12_11 Cu2_11 1_555 1_555
O6_11 Cu6_11 1_555 1_555
N1_11 N2_11 1_555 1_555
C2_11 C3_11 1_555 1_555
O8_11 H16_11 1_555 1_555
O3_11 C11_11 1_555 1_555
O4_11 C11_11 1_555 1_555
N4_11 Cu3_11 1_555 1_555
N5_11 Cu3_11 1_555 1_555
C6_11 N5_11 1_555 1_555
H4_11 C6_11 1_555 1_555
C7_11 N4_11 1_555 1_555
H5_11 C7_11 1_555 1_555
C8_11 C7_11 1_555 1_555
C9_11 N3_11 1_555 1_555
H6_11 C9_11 1_555 1_555
C11_11 C8_11 1_555 1_555
O9_11 Cu3_11 1_555 1_555
Cu4_11 O1_11 1_555 1_555
Cu5_11 O3_11 1_555 1_555
O13_11 Cu3_11 1_555 1_555
O14_11 Cu3_11 1_555 1_555
O4_11 Cu5_11 1_555 1_555
N3_11 N4_11 1_555 1_555
C8_11 C9_11 1_555 1_555
O9_11 H13_11 1_555 1_555
O9_11 H14_11 1_555 1_555
Cu1_12 O7_12 1_555 1_555
Cu2_12 O7_12 1_555 1_555
Cu3_12 O7_12 1_555 1_555
O1_12 C10_12 1_555 1_555
O2_12 C10_12 1_555 1_555
O3_12 C11_12 1_555 1_555
O4_12 C11_12 1_555 1_555
O5_12 C12_12 1_555 1_555
O6_12 C12_12 1_555 1_555
N1_12 Cu2_12 1_555 1_555
N2_12 Cu1_12 1_555 1_555
N3_12 Cu1_12 1_555 1_555
N4_12 Cu3_12 1_555 1_555
N5_12 Cu3_12 1_555 1_555
N6_12 Cu2_12 1_555 1_555
C1_12 N2_12 1_555 1_555
H1_12 C1_12 1_555 1_555
C2_12 C1_12 1_555 1_555
C3_12 N1_12 1_555 1_555
H2_12 C3_12 1_555 1_555
C4_12 N6_12 1_555 1_555
H3_12 C4_12 1_555 1_555
C5_12 C4_12 1_555 1_555
C6_12 N5_12 1_555 1_555
H4_12 C6_12 1_555 1_555
C7_12 N4_12 1_555 1_555
H5_12 C7_12 1_555 1_555
C8_12 C7_12 1_555 1_555
C9_12 N3_12 1_555 1_555
H6_12 C9_12 1_555 1_555
C10_12 C5_12 1_555 1_555
C11_12 C8_12 1_555 1_555
C12_12 C2_12 1_555 1_555
O8_12 Cu2_12 1_555 1_555
O9_12 Cu3_12 1_555 1_555
Cu4_12 O1_12 1_555 1_555
Cu5_12 O3_12 1_555 1_555
Cu6_12 O5_12 1_555 1_555
O10_12 Cu1_12 1_555 1_555
O11_12 Cu2_12 1_555 1_555
O12_12 Cu2_12 1_555 1_555
O13_12 Cu3_12 1_555 1_555
O14_12 Cu3_12 1_555 1_555
O4_12 Cu5_12 1_555 1_555
O6_12 Cu6_12 1_555 1_555
N1_12 N2_12 1_555 1_555
N3_12 N4_12 1_555 1_555
N5_12 N6_12 1_555 1_555
C2_12 C3_12 1_555 1_555
C5_12 C6_12 1_555 1_555
C8_12 C9_12 1_555 1_555
O9_12 H13_12 1_555 1_555
O9_12 H14_12 1_555 1_555
O8_12 H15_12 1_555 1_555
O8_12 H16_12 1_555 1_555
Cu1_13 O7_13 1_555 1_555
Cu2_13 O7_13 1_555 1_555
Cu3_13 O7_13 1_555 1_555
O1_13 C10_13 1_555 1_555
O2_13 C10_13 1_555 1_555
O3_13 C11_13 1_555 1_555
O4_13 C11_13 1_555 1_555
O5_13 C12_13 1_555 1_555
O6_13 C12_13 1_555 1_555
N1_13 Cu2_13 1_555 1_555
N2_13 Cu1_13 1_555 1_555
N3_13 Cu1_13 1_555 1_555
N4_13 Cu3_13 1_555 1_555
N5_13 Cu3_13 1_555 1_555
N6_13 Cu2_13 1_555 1_555
C1_13 N2_13 1_555 1_555
H1_13 C1_13 1_555 1_555
C2_13 C1_13 1_555 1_555
C3_13 N1_13 1_555 1_555
H2_13 C3_13 1_555 1_555
C4_13 N6_13 1_555 1_555
H3_13 C4_13 1_555 1_555
C5_13 C4_13 1_555 1_555
C6_13 N5_13 1_555 1_555
H4_13 C6_13 1_555 1_555
C7_13 N4_13 1_555 1_555
H5_13 C7_13 1_555 1_555
C8_13 C7_13 1_555 1_555
C9_13 N3_13 1_555 1_555
H6_13 C9_13 1_555 1_555
C10_13 C5_13 1_555 1_555
C11_13 C8_13 1_555 1_555
C12_13 C2_13 1_555 1_555
O8_13 Cu2_13 1_555 1_555
O9_13 Cu3_13 1_555 1_555
Cu4_13 O1_13 1_555 1_555
Cu5_13 O3_13 1_555 1_555
Cu6_13 O5_13 1_555 1_555
O10_13 Cu1_13 1_555 1_555
O11_13 Cu2_13 1_555 1_555
O12_13 Cu2_13 1_555 1_555
O13_13 Cu3_13 1_555 1_555
O14_13 Cu3_13 1_555 1_555
O4_13 Cu5_13 1_555 1_555
O6_13 Cu6_13 1_555 1_555
N1_13 N2_13 1_555 1_555
N3_13 N4_13 1_555 1_555
N5_13 N6_13 1_555 1_555
C2_13 C3_13 1_555 1_555
C5_13 C6_13 1_555 1_555
C8_13 C9_13 1_555 1_555
O9_13 H13_13 1_555 1_555
O9_13 H14_13 1_555 1_555
O8_13 H15_13 1_555 1_555
O8_13 H16_13 1_555 1_555
Cu1_14 O7_14 1_555 1_555
Cu2_14 O7_14 1_555 1_555
Cu3_14 O7_14 1_555 1_555
O1_14 C10_14 1_555 1_555
O2_14 C10_14 1_555 1_555
O3_14 C11_14 1_555 1_555
O4_14 C11_14 1_555 1_555
O5_14 C12_14 1_555 1_555
O6_14 C12_14 1_555 1_555
N1_14 Cu2_14 1_555 1_555
N2_14 Cu1_14 1_555 1_555
N3_14 Cu1_14 1_555 1_555
N4_14 Cu3_14 1_555 1_555
N5_14 Cu3_14 1_555 1_555
N6_14 Cu2_14 1_555 1_555
C1_14 N2_14 1_555 1_555
H1_14 C1_14 1_555 1_555
C2_14 C1_14 1_555 1_555
C3_14 N1_14 1_555 1_555
H2_14 C3_14 1_555 1_555
C4_14 N6_14 1_555 1_555
H3_14 C4_14 1_555 1_555
C5_14 C4_14 1_555 1_555
C6_14 N5_14 1_555 1_555
H4_14 C6_14 1_555 1_555
C7_14 N4_14 1_555 1_555
H5_14 C7_14 1_555 1_555
C8_14 C7_14 1_555 1_555
C9_14 N3_14 1_555 1_555
H6_14 C9_14 1_555 1_555
C10_14 C5_14 1_555 1_555
C11_14 C8_14 1_555 1_555
C12_14 C2_14 1_555 1_555
O8_14 Cu2_14 1_555 1_555
O9_14 Cu3_14 1_555 1_555
Cu4_14 O1_14 1_555 1_555
Cu5_14 O3_14 1_555 1_555
Cu6_14 O5_14 1_555 1_555
O10_14 Cu1_14 1_555 1_555
O11_14 Cu2_14 1_555 1_555
O12_14 Cu2_14 1_555 1_555
O13_14 Cu3_14 1_555 1_555
O14_14 Cu3_14 1_555 1_555
O4_14 Cu5_14 1_555 1_555
O6_14 Cu6_14 1_555 1_555
N1_14 N2_14 1_555 1_555
N3_14 N4_14 1_555 1_555
N5_14 N6_14 1_555 1_555
C2_14 C3_14 1_555 1_555
C5_14 C6_14 1_555 1_555
C8_14 C9_14 1_555 1_555
O9_14 H13_14 1_555 1_555
O9_14 H14_14 1_555 1_555
O8_14 H15_14 1_555 1_555
O8_14 H16_14 1_555 1_555
O3_15 C11_15 1_555 1_555
O4_15 C11_15 1_555 1_555
N2_15 Cu1_15 1_555 1_555
N3_15 Cu1_15 1_555 1_555
C1_15 N2_15 1_555 1_555
H1_15 C1_15 1_555 1_555
C7_15 N4_15 1_555 1_555
H5_15 C7_15 1_555 1_555
C8_15 C7_15 1_555 1_555
C9_15 N3_15 1_555 1_555
H6_15 C9_15 1_555 1_555
C11_15 C8_15 1_555 1_555
Cu5_15 O3_15 1_555 1_555
Cu6_15 O5_15 1_555 1_555
O10_15 Cu1_15 1_555 1_555
O4_15 Cu5_15 1_555 1_555
N3_15 N4_15 1_555 1_555
C8_15 C9_15 1_555 1_555
Cu2_15 O7_15 1_555 1_555
Cu3_15 O7_15 1_555 1_555
O1_15 C10_15 1_555 1_555
O2_15 C10_15 1_555 1_555
O6_15 C12_15 1_555 1_555
N1_15 Cu2_15 1_555 1_555
N5_15 Cu3_15 1_555 1_555
N6_15 Cu2_15 1_555 1_555
C3_15 N1_15 1_555 1_555
H2_15 C3_15 1_555 1_555
C4_15 N6_15 1_555 1_555
H3_15 C4_15 1_555 1_555
C5_15 C4_15 1_555 1_555
C6_15 N5_15 1_555 1_555
H4_15 C6_15 1_555 1_555
C10_15 C5_15 1_555 1_555
C12_15 C2_15 1_555 1_555
O8_15 Cu2_15 1_555 1_555
O9_15 Cu3_15 1_555 1_555
Cu4_15 O1_15 1_555 1_555
O11_15 Cu2_15 1_555 1_555
O12_15 Cu2_15 1_555 1_555
O13_15 Cu3_15 1_555 1_555
N5_15 N6_15 1_555 1_555
C2_15 C3_15 1_555 1_555
C5_15 C6_15 1_555 1_555
O9_15 H13_15 1_555 1_555
O9_15 H14_15 1_555 1_555
O8_15 H15_15 1_555 1_555
O8_15 H16_15 1_555 1_555
O3_16 C11_16 1_555 1_555
O4_16 C11_16 1_555 1_555
N2_16 Cu1_16 1_555 1_555
N3_16 Cu1_16 1_555 1_555
C1_16 N2_16 1_555 1_555
H1_16 C1_16 1_555 1_555
C7_16 N4_16 1_555 1_555
H5_16 C7_16 1_555 1_555
C8_16 C7_16 1_555 1_555
C9_16 N3_16 1_555 1_555
H6_16 C9_16 1_555 1_555
C11_16 C8_16 1_555 1_555
Cu5_16 O3_16 1_555 1_555
Cu6_16 O5_16 1_555 1_555
O10_16 Cu1_16 1_555 1_555
O4_16 Cu5_16 1_555 1_555
N3_16 N4_16 1_555 1_555
C8_16 C9_16 1_555 1_555
Cu2_16 O7_16 1_555 1_555
Cu3_16 O7_16 1_555 1_555
O1_16 C10_16 1_555 1_555
O2_16 C10_16 1_555 1_555
O6_16 C12_16 1_555 1_555
N1_16 Cu2_16 1_555 1_555
N5_16 Cu3_16 1_555 1_555
N6_16 Cu2_16 1_555 1_555
C3_16 N1_16 1_555 1_555
H2_16 C3_16 1_555 1_555
C4_16 N6_16 1_555 1_555
H3_16 C4_16 1_555 1_555
C5_16 C4_16 1_555 1_555
C6_16 N5_16 1_555 1_555
H4_16 C6_16 1_555 1_555
C10_16 C5_16 1_555 1_555
C12_16 C2_16 1_555 1_555
O8_16 Cu2_16 1_555 1_555
O9_16 Cu3_16 1_555 1_555
Cu4_16 O1_16 1_555 1_555
O11_16 Cu2_16 1_555 1_555
O12_16 Cu2_16 1_555 1_555
O13_16 Cu3_16 1_555 1_555
N5_16 N6_16 1_555 1_555
C2_16 C3_16 1_555 1_555
C5_16 C6_16 1_555 1_555
O9_16 H13_16 1_555 1_555
O9_16 H14_16 1_555 1_555
O8_16 H15_16 1_555 1_555
O8_16 H16_16 1_555 1_555
O12_8 C11_17 1_555 1_555
C9_17 N3_17 1_555 1_555
H6_17 C9_17 1_555 1_555
C11_17 C8_17 1_555 1_555
C8_17 C9_17 1_555 1_555
O9_17 H13_17 1_555 1_555
O9_17 H14_17 1_555 1_555
O13_10 C12_17 1_555 1_555
O14_10 C12_17 1_555 1_555
N1_17 Cu5_4 1_555 1_555
N2_17 Cu4_11 1_555 1_555
C1_17 N2_17 1_555 1_555
H1_17 C1_17 1_555 1_555
C2_17 C1_17 1_555 1_555
C3_17 N1_17 1_555 1_555
H2_17 C3_17 1_555 1_555
C12_17 C2_17 1_555 1_555
O8_17 Cu5_4 1_555 1_555
N1_17 N2_17 1_555 1_555
C2_17 C3_17 1_555 1_555
O8_17 H16_17 1_555 1_555
N4_17 Cu6_6 1_555 1_555
N5_17 Cu6_6 1_555 1_555
C6_17 N5_17 1_555 1_555
H4_17 C6_17 1_555 1_555
C7_17 N4_17 1_555 1_555
H5_17 C7_17 1_555 1_555
O2_17 C10_17 1_555 1_555
C4_17 N6_17 1_555 1_555
H3_17 C4_17 1_555 1_555
C5_17 C4_17 1_555 1_555
C10_17 C5_17 1_555 1_555
Cu4_8 O7_18 1_555 1_555
Cu5_15 O7_18 1_555 1_555
Cu6_9 O7_18 1_555 1_555
O10_16 C10_18 1_555 1_555
O2_18 C10_18 1_555 1_555
O11_11 C11_18 1_555 1_555
O12_11 C11_18 1_555 1_555
O13_5 C12_18 1_555 1_555
O14_5 C12_18 1_555 1_555
N1_18 Cu5_15 1_555 1_555
N2_18 Cu4_8 1_555 1_555
N3_18 Cu4_8 1_555 1_555
N4_18 Cu6_9 1_555 1_555
N5_18 Cu6_9 1_555 1_555
N6_18 Cu5_15 1_555 1_555
C1_18 N2_18 1_555 1_555
H1_18 C1_18 1_555 1_555
C2_18 C1_18 1_555 1_555
C3_18 N1_18 1_555 1_555
H2_18 C3_18 1_555 1_555
C4_18 N6_18 1_555 1_555
H3_18 C4_18 1_555 1_555
C5_18 C4_18 1_555 1_555
C6_18 N5_18 1_555 1_555
H4_18 C6_18 1_555 1_555
C7_18 N4_18 1_555 1_555
H5_18 C7_18 1_555 1_555
C8_18 C7_18 1_555 1_555
C9_18 N3_18 1_555 1_555
H6_18 C9_18 1_555 1_555
C10_18 C5_18 1_555 1_555
C11_18 C8_18 1_555 1_555
C12_18 C2_18 1_555 1_555
O8_18 Cu5_15 1_555 1_555
O9_18 Cu6_9 1_555 1_555
N1_18 N2_18 1_555 1_555
N3_18 N4_18 1_555 1_555
N5_18 N6_18 1_555 1_555
C2_18 C3_18 1_555 1_555
C5_18 C6_18 1_555 1_555
C8_18 C9_18 1_555 1_555
O9_18 H13_18 1_555 1_555
O9_18 H14_18 1_555 1_555
O8_18 H15_18 1_555 1_555
O8_18 H16_18 1_555 1_555
N5_19 Cu6_16 1_555 1_555
C6_19 N5_19 1_555 1_555
H4_19 C6_19 1_555 1_555
O9_19 Cu6_16 1_555 1_555
O9_19 H13_19 1_555 1_555
O9_19 H14_19 1_555 1_555
O11_14 C11_19 1_555 1_555
O12_14 C11_19 1_555 1_555
C7_19 N4_19 1_555 1_555
H5_19 C7_19 1_555 1_555
C8_19 C7_19 1_555 1_555
C9_19 N3_19 1_555 1_555
H6_19 C9_19 1_555 1_555
C11_19 C8_19 1_555 1_555
N3_19 N4_19 1_555 1_555
C8_19 C9_19 1_555 1_555
Cu5_10 O7_19 1_555 1_555
O2_19 C10_19 1_555 1_555
O14_4 C12_19 1_555 1_555
N1_19 Cu5_10 1_555 1_555
N6_19 Cu5_10 1_555 1_555
C3_19 N1_19 1_555 1_555
H2_19 C3_19 1_555 1_555
C4_19 N6_19 1_555 1_555
H3_19 C4_19 1_555 1_555
C5_19 C4_19 1_555 1_555
C10_19 C5_19 1_555 1_555
C12_19 C2_19 1_555 1_555
O8_19 Cu5_10 1_555 1_555
C2_19 C3_19 1_555 1_555
O8_19 H16_19 1_555 1_555
N2_19 Cu4 1_555 1_555
C1_19 N2_19 1_555 1_555
H1_19 C1_19 1_555 1_555
O14_15 C12_20 1_555 1_555
N1_20 Cu5_5 1_555 1_555
C3_20 N1_20 1_555 1_555
H2_20 C3_20 1_555 1_555
C12_20 C2_20 1_555 1_555
O8_20 Cu5_5 1_555 1_555
C2_20 C3_20 1_555 1_555
O9_20 H13_20 1_555 1_555
O9_20 H14_20 1_555 1_555
O8_20 H15_20 1_555 1_555
O8_20 H16_20 1_555 1_555
O12 C11_20 1_555 1_555
N2_20 Cu4_14 1_555 1_555
N3_20 Cu4_14 1_555 1_555
C1_20 N2_20 1_555 1_555
H1_20 C1_20 1_555 1_555
C9_20 N3_20 1_555 1_555
H6_20 C9_20 1_555 1_555
C11_20 C8_20 1_555 1_555
C8_20 C9_20 1_555 1_555
Cu6_3 O7_20 1_555 1_555
O10_6 C10_20 1_555 1_555
O2_20 C10_20 1_555 1_555
N5_20 Cu6_3 1_555 1_555
C4_20 N6_20 1_555 1_555
H3_20 C4_20 1_555 1_555
C5_20 C4_20 1_555 1_555
C6_20 N5_20 1_555 1_555
H4_20 C6_20 1_555 1_555
C10_20 C5_20 1_555 1_555
N5_20 N6_20 1_555 1_555
C5_20 C6_20 1_555 1_555
C7_20 N4_20 1_555 1_555
H5_20 C7_20 1_555 1_555
O12_4 C11_21 1_555 1_555
O13_14 C12_21 1_555 1_555
O14_14 C12_21 1_555 1_555
N1_21 Cu5_8 1_555 1_555
N2_21 Cu4_15 1_555 1_555
N3_21 Cu4_15 1_555 1_555
C1_21 N2_21 1_555 1_555
H1_21 C1_21 1_555 1_555
C2_21 C1_21 1_555 1_555
C3_21 N1_21 1_555 1_555
H2_21 C3_21 1_555 1_555
C9_21 N3_21 1_555 1_555
H6_21 C9_21 1_555 1_555
C11_21 C8_21 1_555 1_555
C12_21 C2_21 1_555 1_555
O8_21 Cu5_8 1_555 1_555
N1_21 N2_21 1_555 1_555
C2_21 C3_21 1_555 1_555
C8_21 C9_21 1_555 1_555
O9_21 H13_21 1_555 1_555
O9_21 H14_21 1_555 1_555
O8_21 H15_21 1_555 1_555
O8_21 H16_21 1_555 1_555
Cu6_2 O7_21 1_555 1_555
O10_7 C10_21 1_555 1_555
O2_21 C10_21 1_555 1_555
N4_21 Cu6_2 1_555 1_555
N5_21 Cu6_2 1_555 1_555
C4_21 N6_21 1_555 1_555
H3_21 C4_21 1_555 1_555
C5_21 C4_21 1_555 1_555
C6_21 N5_21 1_555 1_555
H4_21 C6_21 1_555 1_555
C7_21 N4_21 1_555 1_555
H5_21 C7_21 1_555 1_555
C10_21 C5_21 1_555 1_555
N5_21 N6_21 1_555 1_555
C5_21 C6_21 1_555 1_555
Cu4_4 O7_22 1_555 1_555
Cu5_11 O7_22 1_555 1_555
Cu6_13 O7_22 1_555 1_555
O10_12 C10_22 1_555 1_555
O2_22 C10_22 1_555 1_555
O11_15 C11_22 1_555 1_555
O12_15 C11_22 1_555 1_555
O13 C12_22 1_555 1_555
O14 C12_22 1_555 1_555
N1_22 Cu5_11 1_555 1_555
N2_22 Cu4_4 1_555 1_555
N3_22 Cu4_4 1_555 1_555
N4_22 Cu6_13 1_555 1_555
N5_22 Cu6_13 1_555 1_555
N6_22 Cu5_11 1_555 1_555
C1_22 N2_22 1_555 1_555
H1_22 C1_22 1_555 1_555
C2_22 C1_22 1_555 1_555
C3_22 N1_22 1_555 1_555
H2_22 C3_22 1_555 1_555
C4_22 N6_22 1_555 1_555
H3_22 C4_22 1_555 1_555
C5_22 C4_22 1_555 1_555
C6_22 N5_22 1_555 1_555
H4_22 C6_22 1_555 1_555
C7_22 N4_22 1_555 1_555
H5_22 C7_22 1_555 1_555
C8_22 C7_22 1_555 1_555
C9_22 N3_22 1_555 1_555
H6_22 C9_22 1_555 1_555
C10_22 C5_22 1_555 1_555
C11_22 C8_22 1_555 1_555
C12_22 C2_22 1_555 1_555
O8_22 Cu5_11 1_555 1_555
O9_22 Cu6_13 1_555 1_555
N1_22 N2_22 1_555 1_555
N3_22 N4_22 1_555 1_555
N5_22 N6_22 1_555 1_555
C2_22 C3_22 1_555 1_555
C5_22 C6_22 1_555 1_555
C8_22 C9_22 1_555 1_555
O9_22 H13_22 1_555 1_555
O9_22 H14_22 1_555 1_555
O8_22 H15_22 1_555 1_555
O8_22 H16_22 1_555 1_555
Cu4_5 O7_23 1_555 1_555
Cu5_14 O7_23 1_555 1_555
Cu6_12 O7_23 1_555 1_555
O10_13 C10_23 1_555 1_555
O2_23 C10_23 1_555 1_555
O11_10 C11_23 1_555 1_555
O12_10 C11_23 1_555 1_555
O13_8 C12_23 1_555 1_555
O14_8 C12_23 1_555 1_555
N1_23 Cu5_14 1_555 1_555
N2_23 Cu4_5 1_555 1_555
N3_23 Cu4_5 1_555 1_555
N4_23 Cu6_12 1_555 1_555
N5_23 Cu6_12 1_555 1_555
N6_23 Cu5_14 1_555 1_555
C1_23 N2_23 1_555 1_555
H1_23 C1_23 1_555 1_555
C2_23 C1_23 1_555 1_555
C3_23 N1_23 1_555 1_555
H2_23 C3_23 1_555 1_555
C4_23 N6_23 1_555 1_555
H3_23 C4_23 1_555 1_555
C5_23 C4_23 1_555 1_555
C6_23 N5_23 1_555 1_555
H4_23 C6_23 1_555 1_555
C7_23 N4_23 1_555 1_555
H5_23 C7_23 1_555 1_555
C8_23 C7_23 1_555 1_555
C9_23 N3_23 1_555 1_555
H6_23 C9_23 1_555 1_555
C10_23 C5_23 1_555 1_555
C11_23 C8_23 1_555 1_555
C12_23 C2_23 1_555 1_555
O8_23 Cu5_14 1_555 1_555
O9_23 Cu6_12 1_555 1_555
N1_23 N2_23 1_555 1_555
N3_23 N4_23 1_555 1_555
N5_23 N6_23 1_555 1_555
C2_23 C3_23 1_555 1_555
C5_23 C6_23 1_555 1_555
C8_23 C9_23 1_555 1_555
O9_23 H13_23 1_555 1_555
O9_23 H14_23 1_555 1_555
O8_23 H15_23 1_555 1_555
O8_23 H16_23 1_555 1_555
O12_5 C11_24 1_555 1_555
O13_11 C12_24 1_555 1_555
O14_11 C12_24 1_555 1_555
N1_24 Cu5 1_555 1_555
N2_24 Cu4_10 1_555 1_555
N3_24 Cu4_10 1_555 1_555
C1_24 N2_24 1_555 1_555
H1_24 C1_24 1_555 1_555
C2_24 C1_24 1_555 1_555
C3_24 N1_24 1_555 1_555
H2_24 C3_24 1_555 1_555
C9_24 N3_24 1_555 1_555
H6_24 C9_24 1_555 1_555
C11_24 C8_24 1_555 1_555
C12_24 C2_24 1_555 1_555
O8_24 Cu5 1_555 1_555
N1_24 N2_24 1_555 1_555
C2_24 C3_24 1_555 1_555
C8_24 C9_24 1_555 1_555
O9_24 H13_24 1_555 1_555
O9_24 H14_24 1_555 1_555
O8_24 H15_24 1_555 1_555
O8_24 H16_24 1_555 1_555
Cu6_7 O7_24 1_555 1_555
O10_2 C10_24 1_555 1_555
O2_24 C10_24 1_555 1_555
N4_24 Cu6_7 1_555 1_555
N5_24 Cu6_7 1_555 1_555
C4_24 N6_24 1_555 1_555
H3_24 C4_24 1_555 1_555
C5_24 C4_24 1_555 1_555
C6_24 N5_24 1_555 1_555
H4_24 C6_24 1_555 1_555
C7_24 N4_24 1_555 1_555
H5_24 C7_24 1_555 1_555
C10_24 C5_24 1_555 1_555
N5_24 N6_24 1_555 1_555
C5_24 C6_24 1_555 1_555
O11_16 C11_25 1_555 1_555
O12_16 C11_25 1_555 1_555
N4_25 Cu6_14 1_555 1_555
N5_25 Cu6_14 1_555 1_555
C6_25 N5_25 1_555 1_555
H4_25 C6_25 1_555 1_555
C7_25 N4_25 1_555 1_555
H5_25 C7_25 1_555 1_555
C8_25 C7_25 1_555 1_555
C9_25 N3_25 1_555 1_555
H6_25 C9_25 1_555 1_555
C11_25 C8_25 1_555 1_555
O9_25 Cu6_14 1_555 1_555
N3_25 N4_25 1_555 1_555
C8_25 C9_25 1_555 1_555
O9_25 H13_25 1_555 1_555
O9_25 H14_25 1_555 1_555
Cu4_3 O7_25 1_555 1_555
Cu5_12 O7_25 1_555 1_555
O2_25 C10_25 1_555 1_555
O13_2 C12_25 1_555 1_555
O14_2 C12_25 1_555 1_555
N1_25 Cu5_12 1_555 1_555
N2_25 Cu4_3 1_555 1_555
N6_25 Cu5_12 1_555 1_555
C1_25 N2_25 1_555 1_555
H1_25 C1_25 1_555 1_555
C2_25 C1_25 1_555 1_555
C3_25 N1_25 1_555 1_555
H2_25 C3_25 1_555 1_555
C4_25 N6_25 1_555 1_555
H3_25 C4_25 1_555 1_555
C5_25 C4_25 1_555 1_555
C10_25 C5_25 1_555 1_555
C12_25 C2_25 1_555 1_555
O8_25 Cu5_12 1_555 1_555
N1_25 N2_25 1_555 1_555
C2_25 C3_25 1_555 1_555
O8_25 H16_25 1_555 1_555
Cu4_16 O7_26 1_555 1_555
Cu5_7 O7_26 1_555 1_555
Cu6 O7_26 1_555 1_555
O10_8 C10_26 1_555 1_555
O2_26 C10_26 1_555 1_555
O11_3 C11_26 1_555 1_555
O12_3 C11_26 1_555 1_555
O13_13 C12_26 1_555 1_555
O14_13 C12_26 1_555 1_555
N1_26 Cu5_7 1_555 1_555
N2_26 Cu4_16 1_555 1_555
N3_26 Cu4_16 1_555 1_555
N4_26 Cu6 1_555 1_555
N5_26 Cu6 1_555 1_555
N6_26 Cu5_7 1_555 1_555
C1_26 N2_26 1_555 1_555
H1_26 C1_26 1_555 1_555
C2_26 C1_26 1_555 1_555
C3_26 N1_26 1_555 1_555
H2_26 C3_26 1_555 1_555
C4_26 N6_26 1_555 1_555
H3_26 C4_26 1_555 1_555
C5_26 C4_26 1_555 1_555
C6_26 N5_26 1_555 1_555
H4_26 C6_26 1_555 1_555
C7_26 N4_26 1_555 1_555
H5_26 C7_26 1_555 1_555
C8_26 C7_26 1_555 1_555
C9_26 N3_26 1_555 1_555
H6_26 C9_26 1_555 1_555
C10_26 C5_26 1_555 1_555
C11_26 C8_26 1_555 1_555
C12_26 C2_26 1_555 1_555
O8_26 Cu5_7 1_555 1_555
O9_26 Cu6 1_555 1_555
N1_26 N2_26 1_555 1_555
N3_26 N4_26 1_555 1_555
N5_26 N6_26 1_555 1_555
C2_26 C3_26 1_555 1_555
C5_26 C6_26 1_555 1_555
C8_26 C9_26 1_555 1_555
O9_26 H13_26 1_555 1_555
O9_26 H14_26 1_555 1_555
O8_26 H15_26 1_555 1_555
O8_26 H16_26 1_555 1_555
O11_6 C11_27 1_555 1_555
O12_6 C11_27 1_555 1_555
N4_27 Cu6_8 1_555 1_555
N5_27 Cu6_8 1_555 1_555
C6_27 N5_27 1_555 1_555
H4_27 C6_27 1_555 1_555
C7_27 N4_27 1_555 1_555
H5_27 C7_27 1_555 1_555
C8_27 C7_27 1_555 1_555
C9_27 N3_27 1_555 1_555
H6_27 C9_27 1_555 1_555
C11_27 C8_27 1_555 1_555
O9_27 Cu6_8 1_555 1_555
N3_27 N4_27 1_555 1_555
C8_27 C9_27 1_555 1_555
O9_27 H13_27 1_555 1_555
O9_27 H14_27 1_555 1_555
Cu4_9 O7_27 1_555 1_555
Cu5_2 O7_27 1_555 1_555
O2_27 C10_27 1_555 1_555
O13_12 C12_27 1_555 1_555
O14_12 C12_27 1_555 1_555
N1_27 Cu5_2 1_555 1_555
N2_27 Cu4_9 1_555 1_555
N6_27 Cu5_2 1_555 1_555
C1_27 N2_27 1_555 1_555
H1_27 C1_27 1_555 1_555
C2_27 C1_27 1_555 1_555
C3_27 N1_27 1_555 1_555
H2_27 C3_27 1_555 1_555
C4_27 N6_27 1_555 1_555
H3_27 C4_27 1_555 1_555
C5_27 C4_27 1_555 1_555
C10_27 C5_27 1_555 1_555
C12_27 C2_27 1_555 1_555
O8_27 Cu5_2 1_555 1_555
N1_27 N2_27 1_555 1_555
C2_27 C3_27 1_555 1_555
O8_27 H16_27 1_555 1_555
Cu4_6 O7_28 1_555 1_555
Cu5_13 O7_28 1_555 1_555
Cu6_11 O7_28 1_555 1_555
O10_14 C10_28 1_555 1_555
O2_28 C10_28 1_555 1_555
O11_9 C11_28 1_555 1_555
O12_9 C11_28 1_555 1_555
O13_7 C12_28 1_555 1_555
O14_7 C12_28 1_555 1_555
N1_28 Cu5_13 1_555 1_555
N2_28 Cu4_6 1_555 1_555
N3_28 Cu4_6 1_555 1_555
N4_28 Cu6_11 1_555 1_555
N5_28 Cu6_11 1_555 1_555
N6_28 Cu5_13 1_555 1_555
C1_28 N2_28 1_555 1_555
H1_28 C1_28 1_555 1_555
C2_28 C1_28 1_555 1_555
C3_28 N1_28 1_555 1_555
H2_28 C3_28 1_555 1_555
C4_28 N6_28 1_555 1_555
H3_28 C4_28 1_555 1_555
C5_28 C4_28 1_555 1_555
C6_28 N5_28 1_555 1_555
H4_28 C6_28 1_555 1_555
C7_28 N4_28 1_555 1_555
H5_28 C7_28 1_555 1_555
C8_28 C7_28 1_555 1_555
C9_28 N3_28 1_555 1_555
H6_28 C9_28 1_555 1_555
C10_28 C5_28 1_555 1_555
C11_28 C8_28 1_555 1_555
C12_28 C2_28 1_555 1_555
O8_28 Cu5_13 1_555 1_555
O9_28 Cu6_11 1_555 1_555
N1_28 N2_28 1_555 1_555
N3_28 N4_28 1_555 1_555
N5_28 N6_28 1_555 1_555
C2_28 C3_28 1_555 1_555
C5_28 C6_28 1_555 1_555
C8_28 C9_28 1_555 1_555
O9_28 H13_28 1_555 1_555
O9_28 H14_28 1_555 1_555
O8_28 H15_28 1_555 1_555
O8_28 H16_28 1_555 1_555
Cu4_7 O7_29 1_555 1_555
Cu5_16 O7_29 1_555 1_555
Cu6_10 O7_29 1_555 1_555
O10_15 C10_29 1_555 1_555
O2_29 C10_29 1_555 1_555
O11_12 C11_29 1_555 1_555
O12_12 C11_29 1_555 1_555
O13_6 C12_29 1_555 1_555
O14_6 C12_29 1_555 1_555
N1_29 Cu5_16 1_555 1_555
N2_29 Cu4_7 1_555 1_555
N3_29 Cu4_7 1_555 1_555
N4_29 Cu6_10 1_555 1_555
N5_29 Cu6_10 1_555 1_555
N6_29 Cu5_16 1_555 1_555
C1_29 N2_29 1_555 1_555
H1_29 C1_29 1_555 1_555
C2_29 C1_29 1_555 1_555
C3_29 N1_29 1_555 1_555
H2_29 C3_29 1_555 1_555
C4_29 N6_29 1_555 1_555
H3_29 C4_29 1_555 1_555
C5_29 C4_29 1_555 1_555
C6_29 N5_29 1_555 1_555
H4_29 C6_29 1_555 1_555
C7_29 N4_29 1_555 1_555
H5_29 C7_29 1_555 1_555
C8_29 C7_29 1_555 1_555
C9_29 N3_29 1_555 1_555
H6_29 C9_29 1_555 1_555
C10_29 C5_29 1_555 1_555
C11_29 C8_29 1_555 1_555
C12_29 C2_29 1_555 1_555
O8_29 Cu5_16 1_555 1_555
O9_29 Cu6_10 1_555 1_555
N1_29 N2_29 1_555 1_555
N3_29 N4_29 1_555 1_555
N5_29 N6_29 1_555 1_555
C2_29 C3_29 1_555 1_555
C5_29 C6_29 1_555 1_555
C8_29 C9_29 1_555 1_555
O9_29 H13_29 1_555 1_555
O9_29 H14_29 1_555 1_555
O8_29 H15_29 1_555 1_555
O8_29 H16_29 1_555 1_555
Cu4_12 O7_30 1_555 1_555
Cu5_3 O7_30 1_555 1_555
Cu6_5 O7_30 1_555 1_555
O10_4 C10_30 1_555 1_555
O2_30 C10_30 1_555 1_555
O11_7 C11_30 1_555 1_555
O12_7 C11_30 1_555 1_555
O13_9 C12_30 1_555 1_555
O14_9 C12_30 1_555 1_555
N1_30 Cu5_3 1_555 1_555
N2_30 Cu4_12 1_555 1_555
N3_30 Cu4_12 1_555 1_555
N4_30 Cu6_5 1_555 1_555
N5_30 Cu6_5 1_555 1_555
N6_30 Cu5_3 1_555 1_555
C1_30 N2_30 1_555 1_555
H1_30 C1_30 1_555 1_555
C2_30 C1_30 1_555 1_555
C3_30 N1_30 1_555 1_555
H2_30 C3_30 1_555 1_555
C4_30 N6_30 1_555 1_555
H3_30 C4_30 1_555 1_555
C5_30 C4_30 1_555 1_555
C6_30 N5_30 1_555 1_555
H4_30 C6_30 1_555 1_555
C7_30 N4_30 1_555 1_555
H5_30 C7_30 1_555 1_555
C8_30 C7_30 1_555 1_555
C9_30 N3_30 1_555 1_555
H6_30 C9_30 1_555 1_555
C10_30 C5_30 1_555 1_555
C11_30 C8_30 1_555 1_555
C12_30 C2_30 1_555 1_555
O8_30 Cu5_3 1_555 1_555
O9_30 Cu6_5 1_555 1_555
N1_30 N2_30 1_555 1_555
N3_30 N4_30 1_555 1_555
N5_30 N6_30 1_555 1_555
C2_30 C3_30 1_555 1_555
C5_30 C6_30 1_555 1_555
C8_30 C9_30 1_555 1_555
O9_30 H13_30 1_555 1_555
O9_30 H14_30 1_555 1_555
O8_30 H15_30 1_555 1_555
O8_30 H16_30 1_555 1_555
Cu5_6 O7_31 1_555 1_555
Cu6_4 O7_31 1_555 1_555
O10_5 C10_31 1_555 1_555
O2_31 C10_31 1_555 1_555
O14_16 C12_31 1_555 1_555
N1_31 Cu5_6 1_555 1_555
N5_31 Cu6_4 1_555 1_555
N6_31 Cu5_6 1_555 1_555
C3_31 N1_31 1_555 1_555
H2_31 C3_31 1_555 1_555
C4_31 N6_31 1_555 1_555
H3_31 C4_31 1_555 1_555
C5_31 C4_31 1_555 1_555
C6_31 N5_31 1_555 1_555
H4_31 C6_31 1_555 1_555
C10_31 C5_31 1_555 1_555
C12_31 C2_31 1_555 1_555
O8_31 Cu5_6 1_555 1_555
O9_31 Cu6_4 1_555 1_555
N5_31 N6_31 1_555 1_555
C2_31 C3_31 1_555 1_555
C5_31 C6_31 1_555 1_555
O9_31 H13_31 1_555 1_555
O9_31 H14_31 1_555 1_555
O8_31 H15_31 1_555 1_555
O8_31 H16_31 1_555 1_555
O11_2 C11_31 1_555 1_555
O12_2 C11_31 1_555 1_555
N2_31 Cu4_13 1_555 1_555
N3_31 Cu4_13 1_555 1_555
C1_31 N2_31 1_555 1_555
H1_31 C1_31 1_555 1_555
C7_31 N4_31 1_555 1_555
H5_31 C7_31 1_555 1_555
C8_31 C7_31 1_555 1_555
C9_31 N3_31 1_555 1_555
H6_31 C9_31 1_555 1_555
C11_31 C8_31 1_555 1_555
N3_31 N4_31 1_555 1_555
C8_31 C9_31 1_555 1_555
Cu5_9 O7_32 1_555 1_555
Cu6_15 O7_32 1_555 1_555
O10_10 C10_32 1_555 1_555
O2_32 C10_32 1_555 1_555
O14_3 C12_32 1_555 1_555
N1_32 Cu5_9 1_555 1_555
N5_32 Cu6_15 1_555 1_555
N6_32 Cu5_9 1_555 1_555
C3_32 N1_32 1_555 1_555
H2_32 C3_32 1_555 1_555
C4_32 N6_32 1_555 1_555
H3_32 C4_32 1_555 1_555
C5_32 C4_32 1_555 1_555
C6_32 N5_32 1_555 1_555
H4_32 C6_32 1_555 1_555
C10_32 C5_32 1_555 1_555
C12_32 C2_32 1_555 1_555
O8_32 Cu5_9 1_555 1_555
O9_32 Cu6_15 1_555 1_555
N5_32 N6_32 1_555 1_555
C2_32 C3_32 1_555 1_555
C5_32 C6_32 1_555 1_555
O9_32 H13_32 1_555 1_555
O9_32 H14_32 1_555 1_555
O8_32 H15_32 1_555 1_555
O8_32 H16_32 1_555 1_555
O11_13 C11_32 1_555 1_555
O12_13 C11_32 1_555 1_555
N2_32 Cu4_2 1_555 1_555
N3_32 Cu4_2 1_555 1_555
C1_32 N2_32 1_555 1_555
H1_32 C1_32 1_555 1_555
C7_32 N4_32 1_555 1_555
H5_32 C7_32 1_555 1_555
C8_32 C7_32 1_555 1_555
C9_32 N3_32 1_555 1_555
H6_32 C9_32 1_555 1_555
C11_32 C8_32 1_555 1_555
N3_32 N4_32 1_555 1_555
C8_32 C9_32 1_555 1_555
N7 C13 1_555 1_555
C14 N7 1_555 1_555
C13 H7 1_555 1_555
C13 H8 1_555 1_555
C13 H9 1_555 1_555
C14 H10 1_555 1_555
C14 H11 1_555 1_555
C14 H12 1_555 1_555
N7 H17 1_555 1_555
N7 H18 1_555 1_555
N7_2 C13_2 1_555 1_555
C14_2 N7_2 1_555 1_555
C13_2 H7_2 1_555 1_555
C13_2 H8_2 1_555 1_555
C13_2 H9_2 1_555 1_555
C14_2 H10_2 1_555 1_555
C14_2 H11_2 1_555 1_555
C14_2 H12_2 1_555 1_555
N7_2 H17_2 1_555 1_555
N7_2 H18_2 1_555 1_555
N7_3 C13_3 1_555 1_555
C14_3 N7_3 1_555 1_555
C13_3 H7_3 1_555 1_555
C13_3 H8_3 1_555 1_555
C13_3 H9_3 1_555 1_555
C14_3 H10_3 1_555 1_555
C14_3 H11_3 1_555 1_555
C14_3 H12_3 1_555 1_555
N7_3 H17_3 1_555 1_555
N7_3 H18_3 1_555 1_555
N7_4 C13_4 1_555 1_555
C14_4 N7_4 1_555 1_555
C13_4 H7_4 1_555 1_555
C13_4 H8_4 1_555 1_555
C13_4 H9_4 1_555 1_555
C14_4 H10_4 1_555 1_555
C14_4 H11_4 1_555 1_555
C14_4 H12_4 1_555 1_555
N7_4 H17_4 1_555 1_555
N7_4 H18_4 1_555 1_555
N7_5 C13_5 1_555 1_555
C14_5 N7_5 1_555 1_555
C13_5 H7_5 1_555 1_555
C13_5 H8_5 1_555 1_555
C13_5 H9_5 1_555 1_555
C14_5 H10_5 1_555 1_555
C14_5 H11_5 1_555 1_555
C14_5 H12_5 1_555 1_555
N7_5 H17_5 1_555 1_555
N7_5 H18_5 1_555 1_555
N7_6 C13_6 1_555 1_555
C14_6 N7_6 1_555 1_555
C13_6 H7_6 1_555 1_555
C13_6 H8_6 1_555 1_555
C13_6 H9_6 1_555 1_555
C14_6 H10_6 1_555 1_555
C14_6 H11_6 1_555 1_555
C14_6 H12_6 1_555 1_555
N7_6 H17_6 1_555 1_555
N7_6 H18_6 1_555 1_555
N7_7 C13_7 1_555 1_555
C14_7 N7_7 1_555 1_555
C13_7 H7_7 1_555 1_555
C13_7 H8_7 1_555 1_555
C13_7 H9_7 1_555 1_555
C14_7 H10_7 1_555 1_555
C14_7 H11_7 1_555 1_555
C14_7 H12_7 1_555 1_555
N7_7 H17_7 1_555 1_555
N7_7 H18_7 1_555 1_555
N7_8 C13_8 1_555 1_555
C14_8 N7_8 1_555 1_555
C13_8 H7_8 1_555 1_555
C13_8 H8_8 1_555 1_555
C13_8 H9_8 1_555 1_555
C14_8 H10_8 1_555 1_555
C14_8 H11_8 1_555 1_555
C14_8 H12_8 1_555 1_555
N7_8 H17_8 1_555 1_555
N7_8 H18_8 1_555 1_555
N7_9 C13_9 1_555 1_555
C14_9 N7_9 1_555 1_555
C13_9 H7_9 1_555 1_555
C13_9 H8_9 1_555 1_555
C13_9 H9_9 1_555 1_555
C14_9 H10_9 1_555 1_555
C14_9 H11_9 1_555 1_555
C14_9 H12_9 1_555 1_555
N7_9 H17_9 1_555 1_555
N7_9 H18_9 1_555 1_555
N7_10 C13_10 1_555 1_555
C14_10 N7_10 1_555 1_555
C13_10 H7_10 1_555 1_555
C13_10 H8_10 1_555 1_555
C13_10 H9_10 1_555 1_555
C14_10 H10_10 1_555 1_555
C14_10 H11_10 1_555 1_555
C14_10 H12_10 1_555 1_555
N7_10 H17_10 1_555 1_555
N7_10 H18_10 1_555 1_555
N7_11 C13_11 1_555 1_555
C14_11 N7_11 1_555 1_555
C13_11 H7_11 1_555 1_555
C13_11 H8_11 1_555 1_555
C13_11 H9_11 1_555 1_555
C14_11 H10_11 1_555 1_555
C14_11 H11_11 1_555 1_555
C14_11 H12_11 1_555 1_555
N7_11 H17_11 1_555 1_555
N7_11 H18_11 1_555 1_555
N7_12 C13_12 1_555 1_555
C14_12 N7_12 1_555 1_555
C13_12 H7_12 1_555 1_555
C13_12 H8_12 1_555 1_555
C13_12 H9_12 1_555 1_555
C14_12 H10_12 1_555 1_555
C14_12 H11_12 1_555 1_555
C14_12 H12_12 1_555 1_555
N7_12 H17_12 1_555 1_555
N7_12 H18_12 1_555 1_555
N7_13 C13_13 1_555 1_555
C14_13 N7_13 1_555 1_555
C13_13 H7_13 1_555 1_555
C13_13 H8_13 1_555 1_555
C13_13 H9_13 1_555 1_555
C14_13 H10_13 1_555 1_555
C14_13 H11_13 1_555 1_555
C14_13 H12_13 1_555 1_555
N7_13 H17_13 1_555 1_555
N7_13 H18_13 1_555 1_555
N7_14 C13_14 1_555 1_555
C14_14 N7_14 1_555 1_555
C13_14 H7_14 1_555 1_555
C13_14 H8_14 1_555 1_555
C13_14 H9_14 1_555 1_555
C14_14 H10_14 1_555 1_555
C14_14 H11_14 1_555 1_555
C14_14 H12_14 1_555 1_555
N7_14 H17_14 1_555 1_555
N7_14 H18_14 1_555 1_555
N7_15 C13_15 1_555 1_555
C14_15 N7_15 1_555 1_555
C13_15 H7_15 1_555 1_555
C13_15 H8_15 1_555 1_555
C13_15 H9_15 1_555 1_555
C14_15 H10_15 1_555 1_555
C14_15 H11_15 1_555 1_555
C14_15 H12_15 1_555 1_555
N7_15 H17_15 1_555 1_555
N7_15 H18_15 1_555 1_555
N7_16 C13_16 1_555 1_555
C14_16 N7_16 1_555 1_555
C13_16 H7_16 1_555 1_555
C13_16 H8_16 1_555 1_555
C13_16 H9_16 1_555 1_555
C14_16 H10_16 1_555 1_555
C14_16 H11_16 1_555 1_555
C14_16 H12_16 1_555 1_555
N7_16 H17_16 1_555 1_555
N7_16 H18_16 1_555 1_555

#END
