
###############################################################################
#
# This file contains modified crystal structure data generated from the
# MOF subset of the Cambridge Structural Database (CSD) v543 
# hosted by the Cambridge Crystallographic Data Centre (CCDC).
#
# This work is licensed under the Creative Commons
# Attribution-NonCommercial-ShareAlike 4.0 International License.
# To view a copy of this license, visit
# http://creativecommons.org/licenses/by-nc-sa/4.0/
# or send a letter to
# Creative Commons, PO Box 1866, Mountain View, CA 94042, USA.
#
# CIF created using the CSD Python API on 29 September 2022
# The structure has been converted into the P1 space group
# The structure has a 3D framework
# The original CSD entry NOPCIH is in the hexagonal crystal system
# The framework has been calculated to contain at least 10.0% void space
# The void calculation uses a probe of radius 1.32A, grid spacing 0.4
#
###############################################################################

data_NOPCIH
_chemical_formula_moiety         '(C132 H68 O80 Ti24)n'
_symmetry_cell_setting           triclinic
_symmetry_space_group_name_H-M   'P 1'
_symmetry_Int_Tables_number      1
_space_group_name_Hall           'P 1'
loop_
_symmetry_equiv_pos_site_id
_symmetry_equiv_pos_as_xyz
1 x,y,z
_cell_length_a                   21.81560(19)
_cell_length_b                   21.81560(19)
_cell_length_c                   11.985394(89)
_cell_angle_alpha                90
_cell_angle_beta                 90
_cell_angle_gamma                120
_cell_volume                     4939.89
loop_
_atom_site_label
_atom_site_type_symbol
_atom_site_fract_x
_atom_site_fract_y
_atom_site_fract_z
O1 O 0.70121(27) 0.51952(27) 0.17621(43)
O2 O 0.62840(27) 0.48754(30) 0.32313(42)
C1 C 0.74003(41) 0.74003(41) 0.000
H1 H 0.79561 0.74856 0.000
C2 C 0.69764(34) 0.69764(34) 0.10170(60)
C3 C 0.70131(28) 0.63863(25) 0.13618(52)
H2 H 0.74856 0.63467 0.10834
C4 C 0.65771(22) 0.59344(22) 0.22336(57)
C5 C 0.60190(37) 0.60190(37) 0.26126(70)
H3 H 0.56509 0.56509 0.31657
C6 C 0.66439(36) 0.52962(28) 0.25069(75)
Ti1 Ti 0.71940(17) 0.43880(15) 0.15033(20)
O3 O 0.71116(42) 0.42233(37) 0.33614(59)
O4 O 0.71987(62) 0.43974(55) 0.000
Ti2 Ti 0.61286(17) 0.387147(73) 0.35125(22)
O5 O 0.62203(44) 0.37797(20) 0.17414(56)
O6 O 0.60814(62) 0.39185(28) 0.500
H4 H 0.74856 0.79561 0.000
O9 O 0.51952(27) 0.70121(27) 0.17621(43)
O10 O 0.48754(30) 0.62840(27) 0.32313(42)
C12 C 0.63863(25) 0.70131(28) 0.13618(52)
H7 H 0.63467 0.74856 0.10834
C13 C 0.59344(22) 0.65771(22) 0.22336(57)
C14 C 0.52962(28) 0.66439(36) 0.25069(75)
O15 O 0.81831(38) 0.51952(27) 0.17621(43)
O18 O 0.51246(30) 0.37160(27) 0.32313(42)
Ti7 Ti 0.56120(15) 0.28060(17) 0.15033(20)
Ti8 Ti 0.43880(15) 0.71940(23) 0.15033(20)
O20 O 0.57767(37) 0.28884(42) 0.33614(59)
O21 O 0.43974(55) 0.71987(83) 0.000
Ti10 Ti 0.38714(17) 0.612853(73) 0.35125(22)
Ti11 Ti 0.77429(19) 0.38714(17) 0.35125(22)
Ti13 Ti 0.612853(73) 0.38714(17) 0.64875(22)
O23 O 0.75594(48) 0.37797(44) 0.17414(56)
C1_2 C 0.74003(41) 0.74003(41) 1.000
H1_2 H 0.79561 0.74856 1.000
O4_2 O 0.71987(62) 0.43974(55) 1.000
O7 O 0.51952(27) 0.70121(27) 0.82379(43)
O8 O 0.48754(30) 0.62840(27) 0.67687(42)
H4_2 H 0.74856 0.79561 1.000
C7 C 0.69764(34) 0.69764(34) 0.89830(60)
C8 C 0.63863(25) 0.70131(28) 0.86382(52)
H5 H 0.63467 0.74856 0.89166
C9 C 0.59344(22) 0.65771(22) 0.77664(57)
C10 C 0.60190(37) 0.60190(37) 0.73874(70)
H6 H 0.56509 0.56509 0.68343
C11 C 0.52962(28) 0.66439(36) 0.74931(75)
O11 O 0.70121(27) 0.51952(27) 0.82379(43)
O12 O 0.62840(27) 0.48754(30) 0.67687(42)
C15 C 0.70131(28) 0.63863(25) 0.86382(52)
H8 H 0.74856 0.63467 0.89166
C16 C 0.65771(22) 0.59344(22) 0.77664(57)
C17 C 0.66439(36) 0.52962(28) 0.74931(75)
Ti3 Ti 0.38714(17) 0.612853(73) 0.64875(22)
O13 O 0.37797(44) 0.62203(20) 0.82586(56)
Ti4 Ti 0.43880(15) 0.71940(23) 0.84967(20)
O14 O 0.42233(37) 0.71117(56) 0.66386(59)
O16 O 0.51952(27) 0.81831(38) 0.82379(43)
O17 O 0.37160(27) 0.51246(30) 0.67687(42)
Ti5 Ti 0.28060(17) 0.56120(15) 0.84967(20)
Ti6 Ti 0.71940(23) 0.43880(15) 0.84967(20)
O19 O 0.28884(42) 0.57767(37) 0.66386(59)
O21_2 O 0.43974(55) 0.71987(83) 1.000
Ti9 Ti 0.38714(17) 0.77429(19) 0.64875(22)
O22 O 0.37797(44) 0.75594(48) 0.82586(56)
O24 O 0.39186(62) 0.60815(28) 0.500
C1_3 C 0.25997(41) 0.00000(58) 0.000
O7_2 O 0.48048(27) 0.18169(38) 0.17621(43)
O8_2 O 0.51246(30) 0.14086(40) 0.32313(42)
H4_3 H 0.25144 0.04705 0.000
C7_2 C 0.30236(34) -0.00000(48) 0.10170(60)
C8_2 C 0.36137(25) 0.06268(38) 0.13618(52)
H5_2 H 0.36533 0.11389 0.10834
C9_2 C 0.40656(22) 0.06427(31) 0.22336(57)
C10_2 C 0.39810(37) -0.00000(52) 0.26126(70)
H6_2 H 0.43491 -0.00000 0.31657
C11_2 C 0.47038(28) 0.13477(46) 0.25069(75)
Ti3_2 Ti 0.61286(17) 0.22571(19) 0.35125(22)
O13_2 O 0.62203(44) 0.24406(48) 0.17414(56)
O16_2 O 0.48048(27) 0.29879(47) 0.17621(43)
O17_2 O 0.62840(27) 0.14086(40) 0.32313(42)
Ti5_2 Ti 0.71940(17) 0.28060(23) 0.15033(20)
O19_2 O 0.71116(42) 0.28883(56) 0.33614(59)
O21_3 O 0.56026(55) 0.2801(10) 0.000
O24_2 O 0.60814(62) 0.21629(68) 0.500
C1_4 C 0.25997(41) 0.00000(58) 1.000
C2_2 C 0.30236(34) -0.00000(48) 0.89830(60)
C5_2 C 0.39810(37) -0.00000(52) 0.73874(70)
H3_2 H 0.43491 -0.00000 0.68343
H4_4 H 0.25144 0.04705 1.000
O9_2 O 0.48048(27) 0.18169(38) 0.82379(43)
O10_2 O 0.51246(30) 0.14086(40) 0.67687(42)
C12_2 C 0.36137(25) 0.06268(38) 0.86382(52)
H7_2 H 0.36533 0.11389 0.89166
C13_2 C 0.40656(22) 0.06427(31) 0.77664(57)
C14_2 C 0.47038(28) 0.13477(46) 0.74931(75)
Ti8_2 Ti 0.56120(15) 0.28060(27) 0.84967(20)
O21_4 O 0.56026(55) 0.2801(10) 1.000
Ti10_2 Ti 0.61286(17) 0.22571(19) 0.64875(22)
C1_5 C 0.25997(41) 1.00000(58) 0.000
H1_3 H 0.20439 0.95295 0.000
O4_3 O 0.28013(62) 0.71987(83) 0.000
C7_3 C 0.30236(34) 1.00000(48) 0.10170(60)
C10_3 C 0.39810(37) 1.00000(52) 0.26126(70)
H6_3 H 0.43491 1.00000 0.31657
O11_2 O 0.29879(27) 0.81831(38) 0.17621(43)
O12_2 O 0.37160(27) 0.85914(40) 0.32313(42)
C15_2 C 0.29869(28) 0.93732(38) 0.13618(52)
H8_2 H 0.25144 0.88611 0.10834
C16_2 C 0.34229(22) 0.93573(31) 0.22336(57)
C17_2 C 0.33561(36) 0.86523(46) 0.25069(75)
Ti6_2 Ti 0.28060(23) 0.71940(27) 0.15033(20)
Ti12 Ti 0.387147(73) 0.77429(19) 0.35125(22)
O1_2 O 0.29879(27) 0.81831(38) 0.82379(43)
O2_2 O 0.37160(27) 0.85914(40) 0.67687(42)
C1_6 C 0.25997(41) 1.00000(58) 1.000
H1_4 H 0.20439 0.95295 1.000
C2_3 C 0.30236(34) 1.00000(48) 0.89830(60)
C3_2 C 0.29869(28) 0.93732(38) 0.86382(52)
H2_2 H 0.25144 0.88611 0.89166
C4_2 C 0.34229(22) 0.93573(31) 0.77664(57)
C5_3 C 0.39810(37) 1.00000(52) 0.73874(70)
H3_3 H 0.43491 1.00000 0.68343
C6_2 C 0.33561(36) 0.86523(46) 0.74931(75)
Ti1_2 Ti 0.28060(17) 0.71940(23) 0.84967(20)
O3_2 O 0.28884(42) 0.71117(56) 0.66386(59)
O4_4 O 0.28013(62) 0.71987(83) 1.000
O6_2 O 0.39186(62) 0.78371(68) 0.500
O15_2 O 0.18169(38) 0.70121(47) 0.82379(43)
O18_2 O 0.48754(30) 0.85914(40) 0.67687(42)
Ti11_2 Ti 0.22571(19) 0.61285(25) 0.64875(22)
O23_2 O 0.24406(48) 0.62203(65) 0.82586(56)
O1_3 O 0.29879(27) 0.48048(27) 0.17621(43)
O2_3 O 0.37160(27) 0.51246(30) 0.32313(42)
C1_7 C 0.25997(41) 0.25997(41) 0.000
H1_5 H 0.20439 0.25144 0.000
C2_4 C 0.30236(34) 0.30236(34) 0.10170(60)
C3_3 C 0.29869(28) 0.36137(25) 0.13618(52)
H2_3 H 0.25144 0.36533 0.10834
C4_3 C 0.34229(22) 0.40656(22) 0.22336(57)
C5_4 C 0.39810(37) 0.39810(37) 0.26126(70)
H3_4 H 0.43491 0.43491 0.31657
C6_3 C 0.33561(36) 0.47038(28) 0.25069(75)
Ti1_3 Ti 0.28060(17) 0.56120(15) 0.15033(20)
O3_3 O 0.28884(42) 0.57767(37) 0.33614(59)
O4_5 O 0.28013(62) 0.56026(55) 0.000
O5_2 O 0.37797(44) 0.62203(20) 0.17414(56)
H4_5 H 0.25144 0.20439 0.000
C12_3 C 0.36137(25) 0.29869(28) 0.13618(52)
H7_3 H 0.36533 0.25144 0.10834
C13_3 C 0.40656(22) 0.34229(22) 0.22336(57)
C14_3 C 0.47038(28) 0.33561(36) 0.25069(75)
O15_3 O 0.18169(38) 0.48048(27) 0.17621(43)
O20_2 O 0.42233(37) 0.71116(42) 0.33614(59)
Ti11_3 Ti 0.22571(19) 0.61286(17) 0.35125(22)
O23_3 O 0.24406(48) 0.62203(44) 0.17414(56)
C1_8 C 0.25997(41) 0.25997(41) 1.000
H1_6 H 0.20439 0.25144 1.000
O4_6 O 0.28013(62) 0.56026(55) 1.000
O7_3 O 0.48048(27) 0.29879(27) 0.82379(43)
O8_3 O 0.51246(30) 0.37160(27) 0.67687(42)
H4_6 H 0.25144 0.20439 1.000
C7_4 C 0.30236(34) 0.30236(34) 0.89830(60)
C8_3 C 0.36137(25) 0.29869(28) 0.86382(52)
H5_3 H 0.36533 0.25144 0.89166
C9_3 C 0.40656(22) 0.34229(22) 0.77664(57)
C10_4 C 0.39810(37) 0.39810(37) 0.73874(70)
H6_4 H 0.43491 0.43491 0.68343
C11_3 C 0.47038(28) 0.33561(36) 0.74931(75)
O11_3 O 0.29879(27) 0.48048(27) 0.82379(43)
C15_3 C 0.29869(28) 0.36137(25) 0.86382(52)
H8_3 H 0.25144 0.36533 0.89166
C16_3 C 0.34229(22) 0.40656(22) 0.77664(57)
C17_3 C 0.33561(36) 0.47038(28) 0.74931(75)
O13_3 O 0.62203(44) 0.37797(20) 0.82586(56)
O14_2 O 0.57767(37) 0.28883(56) 0.66386(59)
O19_3 O 0.71116(42) 0.42233(37) 0.66386(59)
O22_2 O 0.62203(44) 0.24406(48) 0.82586(56)
C1_9 C 0.00000(58) 0.25997(41) 0.000
C2_5 C -0.00000(48) 0.30236(34) 0.10170(60)
C5_5 C -0.00000(52) 0.39810(37) 0.26126(70)
H3_5 H -0.00000 0.43491 0.31657
H4_7 H 0.04705 0.25144 0.000
O10_3 O 0.14086(40) 0.51246(30) 0.32313(42)
C12_4 C 0.06268(38) 0.36137(25) 0.13618(52)
H7_4 H 0.11389 0.36533 0.10834
C13_4 C 0.06427(31) 0.40656(22) 0.22336(57)
C14_4 C 0.13477(46) 0.47038(28) 0.25069(75)
C1_10 C 0.00000(58) 0.25997(41) 1.000
O7_4 O 0.18169(38) 0.48048(27) 0.82379(43)
O8_4 O 0.14086(40) 0.51246(30) 0.67687(42)
H4_8 H 0.04705 0.25144 1.000
C7_5 C -0.00000(48) 0.30236(34) 0.89830(60)
C8_4 C 0.06268(38) 0.36137(25) 0.86382(52)
H5_4 H 0.11389 0.36533 0.89166
C9_4 C 0.06427(31) 0.40656(22) 0.77664(57)
C10_5 C -0.00000(52) 0.39810(37) 0.73874(70)
H6_5 H -0.00000 0.43491 0.68343
C11_4 C 0.13477(46) 0.47038(28) 0.74931(75)
O17_3 O 0.14086(40) 0.62840(27) 0.67687(42)
O24_3 O 0.21629(68) 0.60814(62) 0.500
O1_4 O 0.81831(38) 0.29879(27) 0.17621(43)
O2_4 O 0.85914(40) 0.37160(27) 0.32313(42)
C1_11 C 1.00000(58) 0.25997(41) 0.000
H1_7 H 0.95295 0.20439 0.000
C2_6 C 1.00000(48) 0.30236(34) 0.10170(60)
C3_4 C 0.93732(38) 0.29869(28) 0.13618(52)
H2_4 H 0.88611 0.25144 0.10834
C4_4 C 0.93573(31) 0.34229(22) 0.22336(57)
C5_6 C 1.00000(52) 0.39810(37) 0.26126(70)
H3_6 H 1.00000 0.43491 0.31657
C6_4 C 0.86523(46) 0.33561(36) 0.25069(75)
O4_7 O 0.71987(83) 0.28013(62) 0.000
O6_3 O 0.78371(68) 0.39186(62) 0.500
O15_4 O 0.70121(47) 0.18169(38) 0.17621(43)
O18_3 O 0.85914(40) 0.48754(30) 0.32313(42)
Ti13_2 Ti 0.77429(19) 0.387147(73) 0.64875(22)
C1_12 C 1.00000(58) 0.25997(41) 1.000
H1_8 H 0.95295 0.20439 1.000
O4_8 O 0.71987(83) 0.28013(62) 1.000
C7_6 C 1.00000(48) 0.30236(34) 0.89830(60)
C10_6 C 1.00000(52) 0.39810(37) 0.73874(70)
H6_6 H 1.00000 0.43491 0.68343
O11_4 O 0.81831(38) 0.29879(27) 0.82379(43)
O12_3 O 0.85914(40) 0.37160(27) 0.67687(42)
C15_4 C 0.93732(38) 0.29869(28) 0.86382(52)
H8_4 H 0.88611 0.25144 0.89166
C16_4 C 0.93573(31) 0.34229(22) 0.77664(57)
C17_4 C 0.86523(46) 0.33561(36) 0.74931(75)
Ti6_3 Ti 0.71940(27) 0.28060(23) 0.84967(20)
C1_13 C 0.00000(58) 0.74003(41) 0.000
O7_5 O 0.18169(38) 0.70121(27) 0.17621(43)
O8_5 O 0.14086(40) 0.62840(27) 0.32313(42)
H4_9 H 0.04705 0.79561 0.000
C7_7 C -0.00000(48) 0.69764(34) 0.10170(60)
C8_5 C 0.06268(38) 0.70131(28) 0.13618(52)
H5_5 H 0.11389 0.74856 0.10834
C9_5 C 0.06427(31) 0.65771(22) 0.22336(57)
C10_7 C -0.00000(52) 0.60190(37) 0.26126(70)
H6_7 H -0.00000 0.56509 0.31657
C11_5 C 0.13477(46) 0.66439(36) 0.25069(75)
O14_3 O 0.28884(67) 0.71117(56) 0.33614(59)
O22_3 O 0.37797(65) 0.75594(48) 0.17414(56)
C1_14 C 0.00000(58) 0.74003(41) 1.000
C2_7 C -0.00000(48) 0.69764(34) 0.89830(60)
C5_7 C -0.00000(52) 0.60190(37) 0.73874(70)
H3_7 H 0.00000 0.56509 0.68343
H4_10 H 0.04705 0.79561 1.000
C12_5 C 0.06268(38) 0.70131(28) 0.86382(52)
H7_5 H 0.11389 0.74856 0.89166
C13_5 C 0.06427(31) 0.65771(22) 0.77664(57)
C14_5 C 0.13477(46) 0.66439(36) 0.74931(75)
C1_15 C 1.00000(58) 0.74003(41) 0.000
H1_9 H 0.95295 0.74856 0.000
C7_8 C 1.00000(48) 0.69764(34) 0.10170(60)
C10_8 C 1.00000(52) 0.60190(37) 0.26126(70)
H6_8 H 1.00000 0.56509 0.31657
C15_5 C 0.93732(38) 0.63863(25) 0.13618(52)
H8_5 H 0.88611 0.63467 0.10834
C16_5 C 0.93573(31) 0.59344(22) 0.22336(57)
C17_5 C 0.86523(46) 0.52962(28) 0.25069(75)
O1_5 O 0.81831(38) 0.51952(27) 0.82379(43)
O2_5 O 0.85914(40) 0.48754(30) 0.67687(42)
C1_16 C 1.00000(58) 0.74003(41) 1.000
H1_10 H 0.95295 0.74856 1.000
C2_8 C 1.00000(48) 0.69764(34) 0.89830(60)
C3_5 C 0.93732(38) 0.63863(25) 0.86382(52)
H2_5 H 0.88611 0.63467 0.89166
C4_5 C 0.93573(31) 0.59344(22) 0.77664(57)
C5_8 C 1.00000(52) 0.60190(37) 0.73874(70)
H3_8 H 1.00000 0.56509 0.68343
C6_5 C 0.86523(46) 0.52962(28) 0.74931(75)
O5_3 O 0.75594(48) 0.37797(20) 0.82586(56)
O20_3 O 0.71117(56) 0.28884(42) 0.66386(59)
C1_17 C 0.74003(41) 0.00000(58) 0.000
C2_9 C 0.69764(34) -0.00000(48) 0.10170(60)
C5_9 C 0.60190(37) -0.00000(52) 0.26126(70)
H3_9 H 0.56509 -0.00000 0.31657
H4_11 H 0.79561 0.04705 0.000
C12_6 C 0.70131(28) 0.06268(38) 0.13618(52)
H7_6 H 0.74856 0.11389 0.10834
C13_6 C 0.65771(22) 0.06427(31) 0.22336(57)
C14_6 C 0.66439(36) 0.13477(46) 0.25069(75)
C1_18 C 0.74003(41) 0.00000(58) 1.000
O7_6 O 0.70121(27) 0.18169(38) 0.82379(43)
O8_6 O 0.62840(27) 0.14086(40) 0.67687(42)
H4_12 H 0.79561 0.04705 1.000
C7_9 C 0.69764(34) -0.00000(48) 0.89830(60)
C8_6 C 0.70131(28) 0.06268(38) 0.86382(52)
H5_6 H 0.74856 0.11389 0.89166
C9_6 C 0.65771(22) 0.06427(31) 0.77664(57)
C10_9 C 0.60190(37) -0.00000(52) 0.73874(70)
H6_9 H 0.56509 -0.00000 0.68343
C11_6 C 0.66439(36) 0.13477(46) 0.74931(75)
O1_6 O 0.51952(27) 0.81831(38) 0.17621(43)
O2_6 O 0.48754(30) 0.85914(40) 0.32313(42)
C1_19 C 0.74003(41) 1.00000(58) 0.000
H1_11 H 0.74856 0.95295 0.000
C2_10 C 0.69764(34) 1.00000(48) 0.10170(60)
C3_6 C 0.63863(25) 0.93732(38) 0.13618(52)
H2_6 H 0.63467 0.88611 0.10834
C4_6 C 0.59344(22) 0.93573(31) 0.22336(57)
C5_10 C 0.60190(37) 1.00000(52) 0.26126(70)
H3_10 H 0.56509 1.00000 0.31657
C6_6 C 0.52962(28) 0.86523(46) 0.25069(75)
C1_20 C 0.74003(41) 1.00000(58) 1.000
H1_12 H 0.74856 0.95295 1.000
C7_10 C 0.69764(34) 1.00000(48) 0.89830(60)
C10_10 C 0.60190(37) 1.00000(52) 0.73874(70)
H6_10 H 0.56509 1.00000 0.68343
C15_6 C 0.63863(25) 0.93732(38) 0.86382(52)
H8_6 H 0.63467 0.88611 0.89166
C16_6 C 0.59344(22) 0.93573(31) 0.77664(57)
C17_6 C 0.52962(28) 0.86523(46) 0.74931(75)
loop_
_geom_bond_atom_site_label_1
_geom_bond_atom_site_label_2
_geom_bond_site_symmetry_1
_geom_bond_site_symmetry_2
O1 C6 1_555 1_555
O2 C6 1_555 1_555
C1 H1 1_555 1_555
C2 C1 1_555 1_555
C3 C2 1_555 1_555
H2 C3 1_555 1_555
C4 C3 1_555 1_555
C5 C4 1_555 1_555
H3 C5 1_555 1_555
C6 C4 1_555 1_555
Ti1 O1 1_555 1_555
O3 Ti1 1_555 1_555
O4 Ti1 1_555 1_555
Ti2 O2 1_555 1_555
O5 Ti1 1_555 1_555
O6 Ti2 1_555 1_555
H4 C1 1_555 1_555
O9 C14 1_555 1_555
O10 C14 1_555 1_555
C12 C2 1_555 1_555
H7 C12 1_555 1_555
C13 C5 1_555 1_555
C14 C13 1_555 1_555
O15 Ti1 1_555 1_555
O18 Ti2 1_555 1_555
Ti7 O5 1_555 1_555
Ti8 O9 1_555 1_555
O20 Ti2 1_555 1_555
Ti10 O10 1_555 1_555
Ti11 O3 1_555 1_555
Ti13 O6 1_555 1_555
O23 Ti1 1_555 1_555
O3 Ti2 1_555 1_555
Ti2 O5 1_555 1_555
C12 C13 1_555 1_555
Ti7 O20 1_555 1_555
Ti8 O21 1_555 1_555
Ti11 O23 1_555 1_555
C1_2 H1_2 1_555 1_555
O7 C11 1_555 1_555
O8 C11 1_555 1_555
H4_2 C1_2 1_555 1_555
C7 C1_2 1_555 1_555
C8 C7 1_555 1_555
H5 C8 1_555 1_555
C9 C8 1_555 1_555
C10 C9 1_555 1_555
H6 C10 1_555 1_555
C11 C9 1_555 1_555
O11 C17 1_555 1_555
O12 C17 1_555 1_555
C15 C7 1_555 1_555
H8 C15 1_555 1_555
C16 C10 1_555 1_555
C17 C16 1_555 1_555
Ti3 O8 1_555 1_555
O13 Ti3 1_555 1_555
Ti4 O7 1_555 1_555
O14 Ti3 1_555 1_555
O16 Ti4 1_555 1_555
O17 Ti3 1_555 1_555
Ti5 O13 1_555 1_555
Ti6 O4_2 1_555 1_555
O19 Ti3 1_555 1_555
O21_2 Ti4 1_555 1_555
Ti9 O14 1_555 1_555
Ti13 O12 1_555 1_555
O22 Ti4 1_555 1_555
O24 Ti3 1_555 1_555
O11 Ti6 1_555 1_555
C15 C16 1_555 1_555
O13 Ti4 1_555 1_555
Ti4 O14 1_555 1_555
Ti5 O19 1_555 1_555
Ti9 O22 1_555 1_555
O7_2 C11_2 1_555 1_555
O8_2 C11_2 1_555 1_555
H4_3 C1_3 1_555 1_555
C7_2 C1_3 1_555 1_555
C8_2 C7_2 1_555 1_555
H5_2 C8_2 1_555 1_555
C9_2 C8_2 1_555 1_555
C10_2 C9_2 1_555 1_555
H6_2 C10_2 1_555 1_555
C11_2 C9_2 1_555 1_555
Ti3_2 O8_2 1_555 1_555
O13_2 Ti3_2 1_555 1_555
Ti7 O7_2 1_555 1_555
O20 Ti3_2 1_555 1_555
O16_2 Ti7 1_555 1_555
O17_2 Ti3_2 1_555 1_555
Ti5_2 O13_2 1_555 1_555
O19_2 Ti3_2 1_555 1_555
O21_3 Ti7 1_555 1_555
O24_2 Ti3_2 1_555 1_555
O13_2 Ti7 1_555 1_555
Ti5_2 O19_2 1_555 1_555
C2_2 C1_4 1_555 1_555
H3_2 C5_2 1_555 1_555
H4_4 C1_4 1_555 1_555
O9_2 C14_2 1_555 1_555
O10_2 C14_2 1_555 1_555
C12_2 C2_2 1_555 1_555
H7_2 C12_2 1_555 1_555
C13_2 C5_2 1_555 1_555
C14_2 C13_2 1_555 1_555
Ti8_2 O9_2 1_555 1_555
Ti10_2 O10_2 1_555 1_555
C12_2 C13_2 1_555 1_555
Ti8_2 O21_4 1_555 1_555
C1_5 H1_3 1_555 1_555
C7_3 C1_5 1_555 1_555
H6_3 C10_3 1_555 1_555
O11_2 C17_2 1_555 1_555
O12_2 C17_2 1_555 1_555
C15_2 C7_3 1_555 1_555
H8_2 C15_2 1_555 1_555
C16_2 C10_3 1_555 1_555
C17_2 C16_2 1_555 1_555
Ti6_2 O4_3 1_555 1_555
Ti12 O12_2 1_555 1_555
O11_2 Ti6_2 1_555 1_555
C15_2 C16_2 1_555 1_555
O1_2 C6_2 1_555 1_555
O2_2 C6_2 1_555 1_555
C1_6 H1_4 1_555 1_555
C2_3 C1_6 1_555 1_555
C3_2 C2_3 1_555 1_555
H2_2 C3_2 1_555 1_555
C4_2 C3_2 1_555 1_555
C5_3 C4_2 1_555 1_555
H3_3 C5_3 1_555 1_555
C6_2 C4_2 1_555 1_555
Ti1_2 O1_2 1_555 1_555
O3_2 Ti1_2 1_555 1_555
O4_4 Ti1_2 1_555 1_555
Ti9 O2_2 1_555 1_555
O22 Ti1_2 1_555 1_555
O6_2 Ti9 1_555 1_555
O15_2 Ti1_2 1_555 1_555
O18_2 Ti9 1_555 1_555
Ti11_2 O3_2 1_555 1_555
Ti12 O6_2 1_555 1_555
O23_2 Ti1_2 1_555 1_555
O3_2 Ti9 1_555 1_555
Ti11_2 O23_2 1_555 1_555
O1_3 C6_3 1_555 1_555
O2_3 C6_3 1_555 1_555
C1_7 H1_5 1_555 1_555
C2_4 C1_7 1_555 1_555
C3_3 C2_4 1_555 1_555
H2_3 C3_3 1_555 1_555
C4_3 C3_3 1_555 1_555
C5_4 C4_3 1_555 1_555
H3_4 C5_4 1_555 1_555
C6_3 C4_3 1_555 1_555
Ti1_3 O1_3 1_555 1_555
O3_3 Ti1_3 1_555 1_555
O4_5 Ti1_3 1_555 1_555
Ti10 O2_3 1_555 1_555
O5_2 Ti1_3 1_555 1_555
O24 Ti10 1_555 1_555
H4_5 C1_7 1_555 1_555
O16_2 C14_3 1_555 1_555
O18 C14_3 1_555 1_555
C12_3 C2_4 1_555 1_555
H7_3 C12_3 1_555 1_555
C13_3 C5_4 1_555 1_555
C14_3 C13_3 1_555 1_555
O15_3 Ti1_3 1_555 1_555
Ti8 O5_2 1_555 1_555
O20_2 Ti10 1_555 1_555
Ti11_3 O3_3 1_555 1_555
O23_3 Ti1_3 1_555 1_555
O3_3 Ti10 1_555 1_555
Ti10 O5_2 1_555 1_555
C12_3 C13_3 1_555 1_555
Ti8 O20_2 1_555 1_555
Ti11_3 O23_3 1_555 1_555
C1_8 H1_6 1_555 1_555
O7_3 C11_3 1_555 1_555
O8_3 C11_3 1_555 1_555
H4_6 C1_8 1_555 1_555
C7_4 C1_8 1_555 1_555
C8_3 C7_4 1_555 1_555
H5_3 C8_3 1_555 1_555
C9_3 C8_3 1_555 1_555
C10_4 C9_3 1_555 1_555
H6_4 C10_4 1_555 1_555
C11_3 C9_3 1_555 1_555
O11_3 C17_3 1_555 1_555
O17 C17_3 1_555 1_555
C15_3 C7_4 1_555 1_555
H8_3 C15_3 1_555 1_555
C16_3 C10_4 1_555 1_555
C17_3 C16_3 1_555 1_555
Ti13 O8_3 1_555 1_555
O13_3 Ti13 1_555 1_555
Ti8_2 O7_3 1_555 1_555
O14_2 Ti13 1_555 1_555
Ti6 O13_3 1_555 1_555
Ti5 O4_6 1_555 1_555
O19_3 Ti13 1_555 1_555
Ti10_2 O14_2 1_555 1_555
O22_2 Ti8_2 1_555 1_555
O11_3 Ti5 1_555 1_555
C15_3 C16_3 1_555 1_555
O13_3 Ti8_2 1_555 1_555
Ti8_2 O14_2 1_555 1_555
Ti6 O19_3 1_555 1_555
Ti10_2 O22_2 1_555 1_555
C2_5 C1_9 1_555 1_555
H3_5 C5_5 1_555 1_555
H4_7 C1_9 1_555 1_555
O15_3 C14_4 1_555 1_555
O10_3 C14_4 1_555 1_555
C12_4 C2_5 1_555 1_555
H7_4 C12_4 1_555 1_555
C13_4 C5_5 1_555 1_555
C14_4 C13_4 1_555 1_555
Ti11_3 O10_3 1_555 1_555
C12_4 C13_4 1_555 1_555
O7_4 C11_4 1_555 1_555
O8_4 C11_4 1_555 1_555
H4_8 C1_10 1_555 1_555
C7_5 C1_10 1_555 1_555
C8_4 C7_5 1_555 1_555
H5_4 C8_4 1_555 1_555
C9_4 C8_4 1_555 1_555
C10_5 C9_4 1_555 1_555
H6_5 C10_5 1_555 1_555
C11_4 C9_4 1_555 1_555
Ti11_2 O8_4 1_555 1_555
Ti5 O7_4 1_555 1_555
O19 Ti11_2 1_555 1_555
O17_3 Ti11_2 1_555 1_555
O24_3 Ti11_2 1_555 1_555
O23_2 Ti5 1_555 1_555
O1_4 C6_4 1_555 1_555
O2_4 C6_4 1_555 1_555
C1_11 H1_7 1_555 1_555
C2_6 C1_11 1_555 1_555
C3_4 C2_6 1_555 1_555
H2_4 C3_4 1_555 1_555
C4_4 C3_4 1_555 1_555
C5_6 C4_4 1_555 1_555
H3_6 C5_6 1_555 1_555
C6_4 C4_4 1_555 1_555
Ti5_2 O1_4 1_555 1_555
O4_7 Ti5_2 1_555 1_555
Ti11 O2_4 1_555 1_555
O23 Ti5_2 1_555 1_555
O6_3 Ti11 1_555 1_555
O15_4 Ti5_2 1_555 1_555
O18_3 Ti11 1_555 1_555
Ti13_2 O6_3 1_555 1_555
O19_2 Ti11 1_555 1_555
C1_12 H1_8 1_555 1_555
C7_6 C1_12 1_555 1_555
H6_6 C10_6 1_555 1_555
O11_4 C17_4 1_555 1_555
O12_3 C17_4 1_555 1_555
C15_4 C7_6 1_555 1_555
H8_4 C15_4 1_555 1_555
C16_4 C10_6 1_555 1_555
C17_4 C16_4 1_555 1_555
Ti6_3 O4_8 1_555 1_555
Ti13_2 O12_3 1_555 1_555
O11_4 Ti6_3 1_555 1_555
C15_4 C16_4 1_555 1_555
O7_5 C11_5 1_555 1_555
O8_5 C11_5 1_555 1_555
H4_9 C1_13 1_555 1_555
C7_7 C1_13 1_555 1_555
C8_5 C7_7 1_555 1_555
H5_5 C8_5 1_555 1_555
C9_5 C8_5 1_555 1_555
C10_7 C9_5 1_555 1_555
H6_7 C10_7 1_555 1_555
C11_5 C9_5 1_555 1_555
Ti11_3 O8_5 1_555 1_555
Ti6_2 O7_5 1_555 1_555
O14_3 Ti11_3 1_555 1_555
Ti12 O14_3 1_555 1_555
O22_3 Ti6_2 1_555 1_555
O24_3 Ti11_3 1_555 1_555
O23_3 Ti6_2 1_555 1_555
Ti6_2 O14_3 1_555 1_555
Ti12 O22_3 1_555 1_555
C2_7 C1_14 1_555 1_555
H3_7 C5_7 1_555 1_555
H4_10 C1_14 1_555 1_555
O15_2 C14_5 1_555 1_555
O17_3 C14_5 1_555 1_555
C12_5 C2_7 1_555 1_555
H7_5 C12_5 1_555 1_555
C13_5 C5_7 1_555 1_555
C14_5 C13_5 1_555 1_555
C12_5 C13_5 1_555 1_555
C1_15 H1_9 1_555 1_555
C7_8 C1_15 1_555 1_555
H6_8 C10_8 1_555 1_555
O15 C17_5 1_555 1_555
O18_3 C17_5 1_555 1_555
C15_5 C7_8 1_555 1_555
H8_5 C15_5 1_555 1_555
C16_5 C10_8 1_555 1_555
C17_5 C16_5 1_555 1_555
C15_5 C16_5 1_555 1_555
O1_5 C6_5 1_555 1_555
O2_5 C6_5 1_555 1_555
C1_16 H1_10 1_555 1_555
C2_8 C1_16 1_555 1_555
C3_5 C2_8 1_555 1_555
H2_5 C3_5 1_555 1_555
C4_5 C3_5 1_555 1_555
C5_8 C4_5 1_555 1_555
H3_8 C5_8 1_555 1_555
C6_5 C4_5 1_555 1_555
Ti6 O1_5 1_555 1_555
Ti13_2 O2_5 1_555 1_555
O5_3 Ti6 1_555 1_555
Ti6_3 O5_3 1_555 1_555
O20_3 Ti13_2 1_555 1_555
O19_3 Ti13_2 1_555 1_555
Ti13_2 O5_3 1_555 1_555
Ti6_3 O20_3 1_555 1_555
Ti10_2 O24_2 1_555 1_555
C2_9 C1_17 1_555 1_555
H3_9 C5_9 1_555 1_555
H4_11 C1_17 1_555 1_555
O15_4 C14_6 1_555 1_555
O17_2 C14_6 1_555 1_555
C12_6 C2_9 1_555 1_555
H7_6 C12_6 1_555 1_555
C13_6 C5_9 1_555 1_555
C14_6 C13_6 1_555 1_555
C12_6 C13_6 1_555 1_555
O7_6 C11_6 1_555 1_555
O8_6 C11_6 1_555 1_555
H4_12 C1_18 1_555 1_555
C7_9 C1_18 1_555 1_555
C8_6 C7_9 1_555 1_555
H5_6 C8_6 1_555 1_555
C9_6 C8_6 1_555 1_555
C10_9 C9_6 1_555 1_555
H6_9 C10_9 1_555 1_555
C11_6 C9_6 1_555 1_555
Ti10_2 O8_6 1_555 1_555
Ti6_3 O7_6 1_555 1_555
O20_3 Ti10_2 1_555 1_555
O22_2 Ti6_3 1_555 1_555
O1_6 C6_6 1_555 1_555
O2_6 C6_6 1_555 1_555
C1_19 H1_11 1_555 1_555
C2_10 C1_19 1_555 1_555
C3_6 C2_10 1_555 1_555
H2_6 C3_6 1_555 1_555
C4_6 C3_6 1_555 1_555
C5_10 C4_6 1_555 1_555
H3_10 C5_10 1_555 1_555
C6_6 C4_6 1_555 1_555
Ti8 O1_6 1_555 1_555
Ti12 O2_6 1_555 1_555
O22_3 Ti8 1_555 1_555
O20_2 Ti12 1_555 1_555
C1_20 H1_12 1_555 1_555
C7_10 C1_20 1_555 1_555
H6_10 C10_10 1_555 1_555
O16 C17_6 1_555 1_555
O18_2 C17_6 1_555 1_555
C15_6 C7_10 1_555 1_555
H8_6 C15_6 1_555 1_555
C16_6 C10_10 1_555 1_555
C17_6 C16_6 1_555 1_555
C15_6 C16_6 1_555 1_555

#END
