
###############################################################################
#
# This file contains modified crystal structure data generated from the
# MOF subset of the Cambridge Structural Database (CSD) v543 
# hosted by the Cambridge Crystallographic Data Centre (CCDC).
#
# This work is licensed under the Creative Commons
# Attribution-NonCommercial-ShareAlike 4.0 International License.
# To view a copy of this license, visit
# http://creativecommons.org/licenses/by-nc-sa/4.0/
# or send a letter to
# Creative Commons, PO Box 1866, Mountain View, CA 94042, USA.
#
# CIF created using the CSD Python API on 29 September 2022
# The structure has been converted into the P1 space group
# The structure has a 3D framework
# The original CSD entry NOPJOT is in the monoclinic crystal system
# The framework has been calculated to contain at least 10.0% void space
# The void calculation uses a probe of radius 1.32A, grid spacing 0.4
# H atom positions have been added when not included in the experimental data
#
###############################################################################

data_NOPJOT
_chemical_formula_moiety         '(C144 H120 Mn12 N8 O62)n'
_symmetry_cell_setting           triclinic
_symmetry_space_group_name_H-M   'P 1'
_symmetry_Int_Tables_number      1
_space_group_name_Hall           'P 1'
loop_
_symmetry_equiv_pos_site_id
_symmetry_equiv_pos_as_xyz
1 x,y,z
_cell_length_a                   19.7020(18)
_cell_length_b                   18.1181(15)
_cell_length_c                   14.3185(12)
_cell_angle_alpha                90
_cell_angle_beta                 97.583(2)
_cell_angle_gamma                90
_cell_volume                     5066.47
loop_
_atom_site_label
_atom_site_type_symbol
_atom_site_fract_x
_atom_site_fract_y
_atom_site_fract_z
C18 C 0.5806(3) 0.0083(3) 0.4651(4)
H8 H 0.5818 0.0563 0.4883
H10 H 0.5106 0.0284 0.3535
H27 H 0.1356 0.0088 0.6123
O9 O 0.6647(2) 0.0375(2) 0.6332(3)
O15 O 0.3420(4) 0.0611(4) 0.1603(6)
Mn6 Mn 0.70716(4) 0.14341(5) 0.60688(6)
Mn9 Mn 0.72675(5) 0.00975(5) 0.77204(6)
O19 O 0.1862(3) 0.0581(3) 0.1617(3)
O21 O 0.2968(3) 0.0735(3) 0.3555(4)
H29 H 0.326281 0.0633462 0.0915536
H30 H 0.341845 0.111532 0.187424
Mn1 Mn 0.24780(4) 0.85554(5) 0.05781(6)
Mn2 Mn 0.29284(4) 0.85659(5) 0.39312(6)
Mn3 Mn 0.27325(5) 0.99025(5) 0.22796(6)
C8 C 0.0487(3) 0.8601(4) 0.2479(5)
C10 C 0.1111(3) 0.8272(3) 0.2818(4)
C11 C 0.1733(3) 0.8517(3) 0.2369(4)
C13 C 0.1118(3) 0.7743(4) 0.3521(4)
C14 C 0.1772(3) 0.7367(3) 0.3935(4)
C15 C 0.0515(3) 0.7541(5) 0.3843(5)
H7 H 0.0523 0.7177 0.4303
C16 C 0.6657(4) 0.9726(4) 0.6000(5)
C17 C 0.6217(3) 0.9555(3) 0.5121(4)
C19 C 0.6191(4) 0.8831(4) 0.4750(5)
H9 H 0.6477 0.8466 0.5040
C20 C 0.5378(3) 0.9917(3) 0.3845(4)
C21 C 0.5735(4) 0.8665(4) 0.3944(5)
H11 H 0.5697 0.8183 0.3718
C22 C 0.5348(3) 0.9212(4) 0.3492(4)
C23 C 0.4916(3) 0.8525(4) 0.2099(5)
C24 C 0.5519(3) 0.8321(5) 0.1782(6)
H12 H 0.5931 0.8542 0.2024
C25 C 0.4290(3) 0.8220(3) 0.1732(4)
C26 C 0.3667(3) 0.8471(3) 0.2148(4)
C27 C 0.5501(4) 0.7784(5) 0.1100(6)
H13 H 0.5905 0.7637 0.0886
C28 C 0.4289(3) 0.7686(3) 0.1019(4)
C29 C 0.3628(3) 0.7338(3) 0.0573(4)
C30 C 0.4897(3) 0.7461(5) 0.0733(5)
H14 H 0.4896 0.7088 0.0287
C34 C 0.2031(4) 0.8758(5) 0.5541(6)
H22 H 0.2174 0.8288 0.5739
C35 C 0.1223(8) 0.8715(8) 0.6677(10)
H23 H 0.0795 0.8502 0.6411
H24 H 0.1142 0.9084 0.7131
H25 H 0.1514 0.8336 0.6981
C36 C 0.1412(14) 0.9768(10) 0.5604(18)
H26 H 0.1786 0.9941 0.5294
H28 H 0.0999 0.9767 0.5165
N2 N 0.1552(5) 0.9051(5) 0.5938(7)
O3 O 0.0513(2) 0.9166(3) 0.1833(3)
O4 O 0.1823(2) 0.8224(2) 0.1618(3)
O5 O 0.20918(19) 0.9030(2) 0.2797(3)
O6 O 0.23355(19) 0.7600(2) 0.3694(3)
O7 O 0.1718(2) 0.6856(2) 0.4521(3)
O8 O 0.7032(3) 0.9265(3) 0.6445(4)
O10 O 0.4872(2) 0.9116(3) 0.2709(3)
O11 O 0.35656(19) 0.8192(2) 0.2893(3)
O12 O 0.33151(19) 0.8988(2) 0.1714(3)
O13 O 0.30703(19) 0.7578(2) 0.0802(3)
O17 O 0.2318(3) 0.9041(3) 0.4927(3)
Mn5 Mn 0.24780(4) 0.64446(5) 0.55781(6)
O18 O 0.2110(2) 0.9649(2) 0.0761(3)
O22 O 0.3353(2) 0.9625(2) 0.3668(3)
O23 O 0.3681(2) 0.8159(2) 0.4985(3)
C31 C 0.3360(5) 0.8733(6) 0.8977(7)
H15 H 0.3300 0.8225 0.8933
C32 C 0.4116(8) 0.8614(7) 0.7785(10)
H16 H 0.4039 0.8823 0.7164
H17 H 0.3979 0.8105 0.7760
H18 H 0.4594 0.8649 0.8025
C33 C 0.3694(13) 0.9790(12) 0.8221(18)
H19 H 0.3293 0.9903 0.7788
H20 H 0.4095 0.9938 0.7955
N1 N 0.3720(6) 0.9014(5) 0.8398(8)
O14 O 0.3681(2) 0.6841(2) 0.9985(3)
O16 O 0.3090(3) 0.9029(3) 0.9566(4)
Mn7 Mn 0.29284(4) 0.64341(5) 0.89312(6)
O20 O 0.1718(2) 0.8144(2) 0.9521(3)
O1 O 0.7890(2) 0.0351(2) 0.9239(3)
Mn4 Mn 0.75220(4) 0.14446(5) 0.94219(6)
C1 C 0.8260(3) 0.9806(3) 0.9111(4)
C2 C 0.8840(3) 0.9620(3) 0.9858(4)
C4 C 0.9163(4) 0.8939(4) 0.9847(5)
H2 H 0.9018 0.8596 0.9381
O2 O 0.8138(3) 0.9419(3) 0.8383(3)
C1_2 C 0.1740(3) 0.4806(3) 0.5889(4)
C2_2 C 0.1160(3) 0.4620(3) 0.5142(4)
C3 C 0.0928(3) 0.5131(4) 0.4463(5)
H1 H 0.1142 0.5587 0.4449
C4_2 C 0.0837(4) 0.3939(4) 0.5153(5)
H2_2 H 0.0982 0.3596 0.5619
C5 C 0.0368(3) 0.4960(4) 0.3796(5)
H3 H 0.0202 0.5306 0.3344
C6 C 0.0297(4) 0.3779(4) 0.4464(5)
H4 H 0.0090 0.3317 0.4450
C7 C 0.0070(3) 0.4295(4) 0.3808(5)
C9 C 0.0116(4) 0.3413(5) 0.2179(6)
H5 H 0.0525 0.3649 0.2398
C12 C 0.0093(4) 0.2861(5) 0.1497(6)
H6 H 0.0494 0.2712 0.1274
O1_2 O 0.2110(2) 0.5351(2) 0.5761(3)
O2_2 O 0.1862(3) 0.4419(3) 0.6617(3)
Mn8 Mn 0.27325(5) 0.50975(5) 0.72796(6)
Mn1_2 Mn 0.75220(4) 0.35554(5) 0.44219(6)
Mn2_2 Mn 0.70716(4) 0.35659(5) 0.10688(6)
Mn3_2 Mn 0.72675(5) 0.49025(5) 0.27204(6)
C8_2 C 0.9513(3) 0.3601(4) 0.2521(5)
C10_2 C 0.8889(3) 0.3272(3) 0.2182(4)
C11_2 C 0.8267(3) 0.3517(3) 0.2631(4)
C13_2 C 0.8882(3) 0.2743(4) 0.1479(4)
C14_2 C 0.8228(3) 0.2367(3) 0.1065(4)
C15_2 C 0.9485(3) 0.2541(5) 0.1157(5)
H7_2 H 0.9477 0.2177 0.0697
C18_2 C 0.4194(3) 0.5083(3) 0.0349(4)
H8_2 H 0.4182 0.5563 0.0117
C19_2 C 0.3809(4) 0.3831(4) 0.0250(5)
C20_2 C 0.4622(3) 0.4917(3) 0.1155(4)
H10_2 H 0.4894 0.5284 0.1465
C21_2 C 0.4265(4) 0.3665(4) 0.1056(5)
H11_2 H 0.4303 0.3183 0.1282
C22_2 C 0.4652(3) 0.4212(4) 0.1508(4)
C23_2 C 0.5084(3) 0.3525(4) 0.2901(5)
C24_2 C 0.4481(3) 0.3321(5) 0.3218(6)
H12_2 H 0.4069 0.3542 0.2976
C25_2 C 0.5710(3) 0.3220(3) 0.3268(4)
C26_2 C 0.6333(3) 0.3471(3) 0.2852(4)
C27_2 C 0.4499(4) 0.2784(5) 0.3900(6)
H13_2 H 0.4095 0.2637 0.4114
C28_2 C 0.5711(3) 0.2686(3) 0.3981(4)
C29_2 C 0.6372(3) 0.2338(3) 0.4427(4)
C30_2 C 0.5103(3) 0.2461(5) 0.4267(5)
H14_2 H 0.5104 0.2088 0.4713
C31_2 C 0.6640(5) 0.3733(6) 0.6023(7)
H15_2 H 0.6700 0.3225 0.6067
C32_2 C 0.5884(8) 0.3614(7) 0.7215(10)
H16_2 H 0.5961 0.3823 0.7836
H17_2 H 0.6021 0.3105 0.7240
H18_2 H 0.5406 0.3649 0.6975
C33_2 C 0.6306(13) 0.4790(12) 0.6779(18)
H19_2 H 0.6707 0.4903 0.7212
H20_2 H 0.5905 0.4938 0.7045
H21 H 0.6324 0.5050 0.6198
N1_2 N 0.6280(6) 0.4014(5) 0.6602(8)
O3_2 O 0.9487(2) 0.4166(3) 0.3167(3)
O4_2 O 0.8177(2) 0.3224(2) 0.3382(3)
O5_2 O 0.79082(19) 0.4030(2) 0.2203(3)
O6_2 O 0.76645(19) 0.2600(2) 0.1306(3)
O7_2 O 0.8282(2) 0.1856(2) 0.0479(3)
O10_2 O 0.5128(2) 0.4116(3) 0.2291(3)
O11_2 O 0.64344(19) 0.3192(2) 0.2107(3)
O12_2 O 0.66849(19) 0.3988(2) 0.3286(3)
O13_2 O 0.69297(19) 0.2578(2) 0.4198(3)
O14_2 O 0.6319(2) 0.1841(2) 0.5015(3)
O15_2 O 0.6580(4) 0.5611(4) 0.3397(6)
O16_2 O 0.6910(3) 0.4029(3) 0.5434(4)
O17_2 O 0.7682(3) 0.4041(3) 0.0073(3)
O18_2 O 0.7890(2) 0.4649(2) 0.4239(3)
O19_2 O 0.8138(3) 0.5581(3) 0.3383(3)
O20_2 O 0.8282(2) 0.3144(2) 0.5479(3)
O21_2 O 0.7032(3) 0.5735(3) 0.1445(4)
O22_2 O 0.6647(2) 0.4625(2) 0.1332(3)
O23_2 O 0.6319(2) 0.3159(2) 0.0015(3)
H29_2 H 0.673719 0.563346 0.408446
H30_2 H 0.658155 0.611532 0.312576
C16_2 C 0.3343(4) 0.4726(4) 0.9000(5)
C17_2 C 0.3783(3) 0.4555(3) 0.9879(4)
H9_2 H 0.3523 0.3466 0.9960
C34_2 C 0.7969(4) 0.3758(5) 0.9459(6)
H22_2 H 0.7826 0.3288 0.9261
C35_2 C 0.8777(8) 0.3715(8) 0.8323(10)
H23_2 H 0.9205 0.3502 0.8589
H24_2 H 0.8858 0.4084 0.7869
H25_2 H 0.8486 0.3336 0.8019
C36_2 C 0.8588(14) 0.4768(10) 0.9396(18)
H26_2 H 0.8214 0.4941 0.9706
H27_2 H 0.8644 0.5088 0.8877
H28_2 H 0.9001 0.4767 0.9835
N2_2 N 0.8448(5) 0.4051(5) 0.9062(7)
O8_2 O 0.2968(3) 0.4265(3) 0.8555(4)
O9_2 O 0.3353(2) 0.5375(2) 0.8668(3)
C1_3 C 0.1740(3) 0.0194(3) 0.0889(4)
C2_3 C 0.1160(3) 0.0380(3) 0.0142(4)
C4_3 C 0.0837(4) 0.1061(4) 0.0153(5)
H2_3 H 0.0982 0.1404 0.0619
C31_3 C 0.6640(5) 0.1267(6) 0.1023(7)
H15_3 H 0.6700 0.1775 0.1067
C32_3 C 0.5884(8) 0.1386(7) 0.2215(10)
H16_3 H 0.5961 0.1177 0.2836
H17_3 H 0.6021 0.1895 0.2240
H18_3 H 0.5406 0.1351 0.1975
C33_3 C 0.6306(13) 0.0210(12) 0.1779(18)
H19_3 H 0.6707 0.0097 0.2212
H20_3 H 0.5905 0.0062 0.2045
N1_3 N 0.6280(6) 0.0986(5) 0.1602(8)
O16_3 O 0.6910(3) 0.0971(3) 0.0434(4)
C8_3 C 0.9513(3) 0.1399(4) 0.7521(5)
C10_3 C 0.8889(3) 0.1728(3) 0.7182(4)
C11_3 C 0.8267(3) 0.1483(3) 0.7631(4)
C13_3 C 0.8882(3) 0.2257(4) 0.6479(4)
C14_3 C 0.8228(3) 0.2633(3) 0.6065(4)
C15_3 C 0.9485(3) 0.2459(5) 0.6157(5)
H7_3 H 0.9477 0.2823 0.5697
C16_3 C 0.3343(4) 0.0274(4) 0.4000(5)
C17_3 C 0.3783(3) 0.0445(3) 0.4879(4)
C19_3 C 0.3809(4) 0.1169(4) 0.5250(5)
H9_3 H 0.3523 0.1534 0.4960
C20_3 C 0.4622(3) 0.0083(3) 0.6155(4)
C21_3 C 0.4265(4) 0.1335(4) 0.6056(5)
H11_3 H 0.4303 0.1817 0.6282
C22_3 C 0.4652(3) 0.0788(4) 0.6508(4)
C23_3 C 0.5084(3) 0.1475(4) 0.7901(5)
C24_3 C 0.4481(3) 0.1679(5) 0.8218(6)
H12_3 H 0.4069 0.1458 0.7976
C25_3 C 0.5710(3) 0.1780(3) 0.8268(4)
C26_3 C 0.6333(3) 0.1529(3) 0.7852(4)
C27_3 C 0.4499(4) 0.2216(5) 0.8900(6)
H13_3 H 0.4095 0.2363 0.9114
C28_3 C 0.5711(3) 0.2314(3) 0.8981(4)
C29_3 C 0.6372(3) 0.2662(3) 0.9427(4)
C30_3 C 0.5103(3) 0.2539(5) 0.9267(5)
H14_3 H 0.5104 0.2912 0.9713
C34_3 C 0.7969(4) 0.1242(5) 0.4459(6)
H22_3 H 0.7826 0.1712 0.4261
C35_3 C 0.8777(8) 0.1285(8) 0.3323(10)
H23_3 H 0.9205 0.1498 0.3589
H24_3 H 0.8858 0.0916 0.2869
H25_3 H 0.8486 0.1664 0.3019
C36_3 C 0.8588(14) 0.0232(10) 0.4396(18)
H26_3 H 0.8214 0.0059 0.4706
H28_3 H 0.9001 0.0233 0.4835
N2_3 N 0.8448(5) 0.0949(5) 0.4062(7)
O3_3 O 0.9487(2) 0.0834(3) 0.8167(3)
O4_3 O 0.8177(2) 0.1776(2) 0.8382(3)
O5_3 O 0.79082(19) 0.0970(2) 0.7203(3)
O6_3 O 0.76645(19) 0.2400(2) 0.6306(3)
O10_3 O 0.5128(2) 0.0884(3) 0.7291(3)
O11_3 O 0.64344(19) 0.1808(2) 0.7107(3)
O12_3 O 0.66849(19) 0.1012(2) 0.8286(3)
O13_3 O 0.69297(19) 0.2422(2) 0.9198(3)
O17_3 O 0.7682(3) 0.0959(3) 0.5073(3)
C18_3 C 0.4194(3) 0.9917(3) 0.5349(4)
H8_3 H 0.4182 0.9437 0.5117
H10_3 H 0.4894 0.9716 0.6465
H27_3 H 0.8644 0.9912 0.3877
O15_3 O 0.6580(4) 0.9389(4) 0.8397(6)
H29_3 H 0.673719 0.936654 0.908446
H30_3 H 0.658155 0.888468 0.812576
C16_4 C 0.6657(4) 0.5274(4) 0.1000(5)
C17_4 C 0.6217(3) 0.5445(3) 0.0121(4)
H9_4 H 0.6477 0.6534 0.0040
C34_4 C 0.2031(4) 0.6242(5) 0.0541(6)
H22_4 H 0.2174 0.6712 0.0739
C35_4 C 0.1223(8) 0.6285(8) 0.1677(10)
H23_4 H 0.0795 0.6498 0.1411
H24_4 H 0.1142 0.5916 0.2131
H25_4 H 0.1514 0.6664 0.1981
C36_4 C 0.1412(14) 0.5232(10) 0.0604(18)
H26_4 H 0.1786 0.5059 0.0294
H27_4 H 0.1356 0.4912 0.1123
H28_4 H 0.0999 0.5233 0.0165
N2_4 N 0.1552(5) 0.5949(5) 0.0938(7)
C8_4 C 0.0487(3) 0.6399(4) 0.7479(5)
C10_4 C 0.1111(3) 0.6728(3) 0.7818(4)
C11_4 C 0.1733(3) 0.6483(3) 0.7369(4)
C13_4 C 0.1118(3) 0.7257(4) 0.8521(4)
C14_4 C 0.1772(3) 0.7633(3) 0.8935(4)
C15_4 C 0.0515(3) 0.7459(5) 0.8843(5)
H7_4 H 0.0523 0.7823 0.9303
C18_4 C 0.5806(3) 0.4917(3) 0.9651(4)
H8_4 H 0.5818 0.4437 0.9883
C19_4 C 0.6191(4) 0.6169(4) 0.9750(5)
C20_4 C 0.5378(3) 0.5083(3) 0.8845(4)
H10_4 H 0.5106 0.4716 0.8535
C21_4 C 0.5735(4) 0.6335(4) 0.8944(5)
H11_4 H 0.5697 0.6817 0.8718
C22_4 C 0.5348(3) 0.5788(4) 0.8492(4)
C23_4 C 0.4916(3) 0.6475(4) 0.7099(5)
C24_4 C 0.5519(3) 0.6679(5) 0.6782(6)
H12_4 H 0.5931 0.6458 0.7024
C25_4 C 0.4290(3) 0.6780(3) 0.6732(4)
C26_4 C 0.3667(3) 0.6529(3) 0.7148(4)
C27_4 C 0.5501(4) 0.7216(5) 0.6100(6)
H13_4 H 0.5905 0.7363 0.5886
C28_4 C 0.4289(3) 0.7314(3) 0.6019(4)
C29_4 C 0.3628(3) 0.7662(3) 0.5573(4)
C30_4 C 0.4897(3) 0.7539(5) 0.5733(5)
H14_4 H 0.4896 0.7912 0.5287
C31_4 C 0.3360(5) 0.6267(6) 0.3977(7)
H15_4 H 0.3300 0.6775 0.3933
C32_4 C 0.4116(8) 0.6386(7) 0.2785(10)
H16_4 H 0.4039 0.6177 0.2164
H17_4 H 0.3979 0.6895 0.2760
H18_4 H 0.4594 0.6351 0.3025
C33_4 C 0.3694(13) 0.5210(12) 0.3221(18)
H19_4 H 0.3293 0.5097 0.2788
H20_4 H 0.4095 0.5062 0.2955
H21_2 H 0.3676 0.4950 0.3802
N1_4 N 0.3720(6) 0.5986(5) 0.3398(8)
O3_4 O 0.0513(2) 0.5834(3) 0.6833(3)
O4_4 O 0.1823(2) 0.6776(2) 0.6618(3)
O5_4 O 0.20918(19) 0.5970(2) 0.7797(3)
O6_4 O 0.23355(19) 0.7400(2) 0.8694(3)
O10_4 O 0.4872(2) 0.5884(3) 0.7709(3)
O11_4 O 0.35656(19) 0.6808(2) 0.7893(3)
O12_4 O 0.33151(19) 0.6012(2) 0.6714(3)
O13_4 O 0.30703(19) 0.7422(2) 0.5802(3)
O15_4 O 0.3420(4) 0.4389(4) 0.6603(6)
O16_4 O 0.3090(3) 0.5971(3) 0.4566(4)
O17_4 O 0.2318(3) 0.5959(3) 0.9927(3)
H29_4 H 0.326281 0.436654 0.591554
H30_4 H 0.341845 0.388468 0.687424
C1_4 C 0.8260(3) 0.5194(3) 0.4111(4)
C2_4 C 0.8840(3) 0.5380(3) 0.4858(4)
C3_2 C 0.9072(3) 0.4869(4) 0.5537(5)
H1_2 H 0.8858 0.4413 0.5551
C4_4 C 0.9163(4) 0.6061(4) 0.4847(5)
H2_4 H 0.9018 0.6404 0.4381
C5_2 C 0.9632(3) 0.5040(4) 0.6204(5)
H3_2 H 0.9798 0.4694 0.6656
C6_2 C 0.9703(4) 0.6221(4) 0.5536(5)
H4_2 H 0.9910 0.6683 0.5550
C7_2 C 0.9930(3) 0.5705(4) 0.6192(5)
C9_2 C 0.9884(4) 0.6587(5) 0.7821(6)
H5_2 H 0.9475 0.6351 0.7602
C12_2 C 0.9907(4) 0.7139(5) 0.8503(6)
H6_2 H 0.9506 0.7288 0.8726
H21_3 H 0.3676 0.0050 0.8802
C3_3 C 0.9072(3) 0.0131(4) 0.0537(5)
H1_3 H 0.8858 0.0587 0.0551
H3_3 H 0.9798 0.0306 0.1656
C5_3 C 0.9632(3) 0.9960(4) 0.1204(5)
C6_3 C 0.9703(4) 0.8779(4) 0.0536(5)
H4_3 H 0.9910 0.8317 0.0550
C7_3 C 0.9930(3) 0.9295(4) 0.1192(5)
C9_3 C 0.9884(4) 0.8413(5) 0.2821(6)
H5_3 H 0.9475 0.8649 0.2602
C12_3 C 0.9907(4) 0.7861(5) 0.3503(6)
H6_3 H 0.9506 0.7712 0.3726
C5_4 C 0.0368(3) 0.0040(4) 0.8796(5)
C6_4 C 0.0297(4) 0.1221(4) 0.9464(5)
H4_4 H 0.0090 0.1683 0.9450
C7_4 C 0.0070(3) 0.0705(4) 0.8808(5)
C9_4 C 0.0116(4) 0.1587(5) 0.7179(6)
H5_4 H 0.0525 0.1351 0.7398
C12_4 C 0.0093(4) 0.2139(5) 0.6497(6)
H6_4 H 0.0494 0.2288 0.6274
C3_4 C 0.0928(3) 0.9869(4) 0.9463(5)
H1_4 H 0.1142 0.9413 0.9449
H3_4 H 0.0202 0.9694 0.8344
H21_4 H 0.6324 0.9950 0.1198
loop_
_geom_bond_atom_site_label_1
_geom_bond_atom_site_label_2
_geom_bond_site_symmetry_1
_geom_bond_site_symmetry_2
C18 H8 1_555 1_555
Mn6 O9 1_555 1_555
O9 Mn9 1_555 1_555
O15 H29 1_555 1_555
O15 H30 1_555 1_555
Mn1 O4 1_555 1_555
Mn2 O5 1_555 1_555
Mn3 O5 1_555 1_555
C10 C8 1_555 1_555
C11 C10 1_555 1_555
C13 C10 1_555 1_555
C14 C13 1_555 1_555
H7 C15 1_555 1_555
C16 C17 1_555 1_555
C19 C17 1_555 1_555
H9 C19 1_555 1_555
C21 C19 1_555 1_555
H11 C21 1_555 1_555
C22 C20 1_555 1_555
C23 C24 1_555 1_555
C24 H12 1_555 1_555
C25 C23 1_555 1_555
C26 C25 1_555 1_555
C27 C24 1_555 1_555
H13 C27 1_555 1_555
C28 C25 1_555 1_555
C29 C28 1_555 1_555
C30 C27 1_555 1_555
H14 C30 1_555 1_555
C34 H22 1_555 1_555
C35 H23 1_555 1_555
H24 C35 1_555 1_555
H25 C35 1_555 1_555
C36 H26 1_555 1_555
H28 C36 1_555 1_555
N2 C34 1_555 1_555
O4 C11 1_555 1_555
O5 C11 1_555 1_555
O6 Mn2 1_555 1_555
O7 C14 1_555 1_555
O8 C16 1_555 1_555
O10 C22 1_555 1_555
O11 Mn2 1_555 1_555
O12 Mn1 1_555 1_555
O13 Mn1 1_555 1_555
O17 Mn2 1_555 1_555
Mn5 O7 1_555 1_555
O18 Mn1 1_555 1_555
O22 Mn2 1_555 1_555
O23 Mn2 1_555 1_555
Mn3 O12 1_555 1_555
Mn3 O18 1_555 1_555
Mn3 O22 1_555 1_555
C8 O3 1_555 1_555
C13 C15 1_555 1_555
C14 O6 1_555 1_555
C21 C22 1_555 1_555
C23 O10 1_555 1_555
C26 O11 1_555 1_555
C26 O12 1_555 1_555
C28 C30 1_555 1_555
C29 O13 1_555 1_555
C34 O17 1_555 1_555
C35 N2 1_555 1_555
C36 N2 1_555 1_555
C31 H15 1_555 1_555
C32 H16 1_555 1_555
H17 C32 1_555 1_555
H18 C32 1_555 1_555
C33 H19 1_555 1_555
H20 C33 1_555 1_555
N1 C31 1_555 1_555
Mn7 O14 1_555 1_555
C31 O16 1_555 1_555
C32 N1 1_555 1_555
C33 N1 1_555 1_555
Mn4 O1 1_555 1_555
Mn9 O1 1_555 1_555
C1 C2 1_555 1_555
C4 C2 1_555 1_555
H2 C4 1_555 1_555
O2 C1 1_555 1_555
C1_2 C2_2 1_555 1_555
C2_2 C3 1_555 1_555
C3 H1 1_555 1_555
C4_2 C2_2 1_555 1_555
H2_2 C4_2 1_555 1_555
C5 C3 1_555 1_555
H3 C5 1_555 1_555
C6 C4_2 1_555 1_555
H4 C6 1_555 1_555
C7 C5 1_555 1_555
C9 H5 1_555 1_555
C12 C9 1_555 1_555
H6 C12 1_555 1_555
O1_2 C1_2 1_555 1_555
O2_2 C1_2 1_555 1_555
Mn5 O1_2 1_555 1_555
Mn8 O1_2 1_555 1_555
C6 C7 1_555 1_555
O2_2 Mn8 1_555 1_555
Mn1_2 O4_2 1_555 1_555
Mn2_2 O5_2 1_555 1_555
Mn3_2 O5_2 1_555 1_555
C10_2 C8_2 1_555 1_555
C11_2 C10_2 1_555 1_555
C13_2 C10_2 1_555 1_555
C14_2 C13_2 1_555 1_555
H7_2 C15_2 1_555 1_555
C18_2 H8_2 1_555 1_555
C20_2 C18_2 1_555 1_555
H10_2 C20_2 1_555 1_555
C21_2 C19_2 1_555 1_555
H11_2 C21_2 1_555 1_555
C22_2 C20_2 1_555 1_555
C23_2 C24_2 1_555 1_555
C24_2 H12_2 1_555 1_555
C25_2 C23_2 1_555 1_555
C26_2 C25_2 1_555 1_555
C27_2 C24_2 1_555 1_555
H13_2 C27_2 1_555 1_555
C28_2 C25_2 1_555 1_555
C29_2 C28_2 1_555 1_555
C30_2 C27_2 1_555 1_555
H14_2 C30_2 1_555 1_555
C31_2 H15_2 1_555 1_555
C32_2 H16_2 1_555 1_555
H17_2 C32_2 1_555 1_555
H18_2 C32_2 1_555 1_555
C33_2 H19_2 1_555 1_555
H20_2 C33_2 1_555 1_555
H21 C33_2 1_555 1_555
N1_2 C31_2 1_555 1_555
O4_2 C11_2 1_555 1_555
O5_2 C11_2 1_555 1_555
O6_2 Mn2_2 1_555 1_555
O7_2 C14_2 1_555 1_555
O10_2 C22_2 1_555 1_555
O11_2 Mn2_2 1_555 1_555
O12_2 Mn1_2 1_555 1_555
O13_2 Mn1_2 1_555 1_555
O14_2 C29_2 1_555 1_555
O15_2 Mn3_2 1_555 1_555
O16_2 Mn1_2 1_555 1_555
O17_2 Mn2_2 1_555 1_555
Mn6 O14_2 1_555 1_555
O18_2 Mn1_2 1_555 1_555
O19_2 Mn3_2 1_555 1_555
O20_2 Mn1_2 1_555 1_555
O21_2 Mn3_2 1_555 1_555
O22_2 Mn2_2 1_555 1_555
O23_2 Mn2_2 1_555 1_555
Mn3_2 O12_2 1_555 1_555
Mn3_2 O18_2 1_555 1_555
Mn3_2 O22_2 1_555 1_555
C8_2 O3_2 1_555 1_555
C13_2 C15_2 1_555 1_555
C14_2 O6_2 1_555 1_555
C21_2 C22_2 1_555 1_555
C23_2 O10_2 1_555 1_555
C26_2 O11_2 1_555 1_555
C26_2 O12_2 1_555 1_555
C28_2 C30_2 1_555 1_555
C29_2 O13_2 1_555 1_555
C31_2 O16_2 1_555 1_555
C32_2 N1_2 1_555 1_555
C33_2 N1_2 1_555 1_555
O15_2 H29_2 1_555 1_555
O15_2 H30_2 1_555 1_555
C16_2 C17_2 1_555 1_555
C34_2 H22_2 1_555 1_555
C35_2 H23_2 1_555 1_555
H24_2 C35_2 1_555 1_555
H25_2 C35_2 1_555 1_555
C36_2 H26_2 1_555 1_555
H27_2 C36_2 1_555 1_555
H28_2 C36_2 1_555 1_555
N2_2 C34_2 1_555 1_555
O8_2 C16_2 1_555 1_555
O9_2 C16_2 1_555 1_555
Mn7 O9_2 1_555 1_555
Mn8 O8_2 1_555 1_555
C35_2 N2_2 1_555 1_555
C36_2 N2_2 1_555 1_555
O9_2 Mn8 1_555 1_555
C1_3 C2_3 1_555 1_555
C4_3 C2_3 1_555 1_555
H2_3 C4_3 1_555 1_555
O19 C1_3 1_555 1_555
C31_3 H15_3 1_555 1_555
C32_3 H16_3 1_555 1_555
H17_3 C32_3 1_555 1_555
H18_3 C32_3 1_555 1_555
C33_3 H19_3 1_555 1_555
H20_3 C33_3 1_555 1_555
N1_3 C31_3 1_555 1_555
C31_3 O16_3 1_555 1_555
C32_3 N1_3 1_555 1_555
C33_3 N1_3 1_555 1_555
Mn4 O4_3 1_555 1_555
Mn6 O5_3 1_555 1_555
Mn9 O5_3 1_555 1_555
C10_3 C8_3 1_555 1_555
C11_3 C10_3 1_555 1_555
C13_3 C10_3 1_555 1_555
C14_3 C13_3 1_555 1_555
H7_3 C15_3 1_555 1_555
C16_3 C17_3 1_555 1_555
C19_3 C17_3 1_555 1_555
H9_3 C19_3 1_555 1_555
C21_3 C19_3 1_555 1_555
H11_3 C21_3 1_555 1_555
C22_3 C20_3 1_555 1_555
C23_3 C24_3 1_555 1_555
C24_3 H12_3 1_555 1_555
C25_3 C23_3 1_555 1_555
C26_3 C25_3 1_555 1_555
C27_3 C24_3 1_555 1_555
H13_3 C27_3 1_555 1_555
C28_3 C25_3 1_555 1_555
C29_3 C28_3 1_555 1_555
C30_3 C27_3 1_555 1_555
H14_3 C30_3 1_555 1_555
C34_3 H22_3 1_555 1_555
C35_3 H23_3 1_555 1_555
H24_3 C35_3 1_555 1_555
H25_3 C35_3 1_555 1_555
C36_3 H26_3 1_555 1_555
H28_3 C36_3 1_555 1_555
N2_3 C34_3 1_555 1_555
O4_3 C11_3 1_555 1_555
O5_3 C11_3 1_555 1_555
O6_3 Mn6 1_555 1_555
O20_2 C14_3 1_555 1_555
O21 C16_3 1_555 1_555
O10_3 C22_3 1_555 1_555
O11_3 Mn6 1_555 1_555
O12_3 Mn4 1_555 1_555
O13_3 Mn4 1_555 1_555
O17_3 Mn6 1_555 1_555
Mn9 O12_3 1_555 1_555
C8_3 O3_3 1_555 1_555
C13_3 C15_3 1_555 1_555
C14_3 O6_3 1_555 1_555
C21_3 C22_3 1_555 1_555
C23_3 O10_3 1_555 1_555
C26_3 O11_3 1_555 1_555
C26_3 O12_3 1_555 1_555
C28_3 C30_3 1_555 1_555
C29_3 O13_3 1_555 1_555
C34_3 O17_3 1_555 1_555
C35_3 N2_3 1_555 1_555
C36_3 N2_3 1_555 1_555
C18_3 H8_3 1_555 1_555
O15_3 H29_3 1_555 1_555
O15_3 H30_3 1_555 1_555
C16_4 C17_4 1_555 1_555
C34_4 H22_4 1_555 1_555
C35_4 H23_4 1_555 1_555
H24_4 C35_4 1_555 1_555
H25_4 C35_4 1_555 1_555
C36_4 H26_4 1_555 1_555
H27_4 C36_4 1_555 1_555
H28_4 C36_4 1_555 1_555
N2_4 C34_4 1_555 1_555
O21_2 C16_4 1_555 1_555
O22_2 C16_4 1_555 1_555
C35_4 N2_4 1_555 1_555
C36_4 N2_4 1_555 1_555
Mn5 O4_4 1_555 1_555
Mn7 O5_4 1_555 1_555
Mn8 O5_4 1_555 1_555
C10_4 C8_4 1_555 1_555
C11_4 C10_4 1_555 1_555
C13_4 C10_4 1_555 1_555
C14_4 C13_4 1_555 1_555
H7_4 C15_4 1_555 1_555
C18_4 H8_4 1_555 1_555
C20_4 C18_4 1_555 1_555
H10_4 C20_4 1_555 1_555
C21_4 C19_4 1_555 1_555
H11_4 C21_4 1_555 1_555
C22_4 C20_4 1_555 1_555
C23_4 C24_4 1_555 1_555
C24_4 H12_4 1_555 1_555
C25_4 C23_4 1_555 1_555
C26_4 C25_4 1_555 1_555
C27_4 C24_4 1_555 1_555
H13_4 C27_4 1_555 1_555
C28_4 C25_4 1_555 1_555
C29_4 C28_4 1_555 1_555
C30_4 C27_4 1_555 1_555
H14_4 C30_4 1_555 1_555
C31_4 H15_4 1_555 1_555
C32_4 H16_4 1_555 1_555
H17_4 C32_4 1_555 1_555
H18_4 C32_4 1_555 1_555
C33_4 H19_4 1_555 1_555
H20_4 C33_4 1_555 1_555
H21_2 C33_4 1_555 1_555
N1_4 C31_4 1_555 1_555
O4_4 C11_4 1_555 1_555
O5_4 C11_4 1_555 1_555
O6_4 Mn7 1_555 1_555
O20 C14_4 1_555 1_555
O10_4 C22_4 1_555 1_555
O11_4 Mn7 1_555 1_555
O12_4 Mn5 1_555 1_555
O13_4 Mn5 1_555 1_555
O23 C29_4 1_555 1_555
O15_4 Mn8 1_555 1_555
O16_4 Mn5 1_555 1_555
O17_4 Mn7 1_555 1_555
Mn8 O12_4 1_555 1_555
C8_4 O3_4 1_555 1_555
C13_4 C15_4 1_555 1_555
C14_4 O6_4 1_555 1_555
C21_4 C22_4 1_555 1_555
C23_4 O10_4 1_555 1_555
C26_4 O11_4 1_555 1_555
C26_4 O12_4 1_555 1_555
C28_4 C30_4 1_555 1_555
C29_4 O13_4 1_555 1_555
C31_4 O16_4 1_555 1_555
C32_4 N1_4 1_555 1_555
C33_4 N1_4 1_555 1_555
O15_4 H29_4 1_555 1_555
O15_4 H30_4 1_555 1_555
C1_4 C2_4 1_555 1_555
C2_4 C3_2 1_555 1_555
C3_2 H1_2 1_555 1_555
C4_4 C2_4 1_555 1_555
H2_4 C4_4 1_555 1_555
C5_2 C3_2 1_555 1_555
H3_2 C5_2 1_555 1_555
C6_2 C4_4 1_555 1_555
H4_2 C6_2 1_555 1_555
C7_2 C5_2 1_555 1_555
C9_2 H5_2 1_555 1_555
C12_2 C9_2 1_555 1_555
H6_2 C12_2 1_555 1_555
O18_2 C1_4 1_555 1_555
O19_2 C1_4 1_555 1_555
C6_2 C7_2 1_555 1_555
C3_3 H1_3 1_555 1_555
H4_3 C6_3 1_555 1_555
C7_3 C5_3 1_555 1_555
C9_3 H5_3 1_555 1_555
C12_3 C9_3 1_555 1_555
H6_3 C12_3 1_555 1_555
C6_3 C7_3 1_555 1_555
H4_4 C6_4 1_555 1_555
C7_4 C5_4 1_555 1_555
C9_4 H5_4 1_555 1_555
C12_4 C9_4 1_555 1_555
H6_4 C12_4 1_555 1_555
C6_4 C7_4 1_555 1_555
C3_4 H1_4 1_555 1_555

#END
