
###############################################################################
#
# This file contains modified crystal structure data generated from the
# MOF subset of the Cambridge Structural Database (CSD) v543 
# hosted by the Cambridge Crystallographic Data Centre (CCDC).
#
# This work is licensed under the Creative Commons
# Attribution-NonCommercial-ShareAlike 4.0 International License.
# To view a copy of this license, visit
# http://creativecommons.org/licenses/by-nc-sa/4.0/
# or send a letter to
# Creative Commons, PO Box 1866, Mountain View, CA 94042, USA.
#
# CIF created using the CSD Python API on 29 September 2022
# The structure has been converted into the P1 space group
# The structure has a 3D framework
# The original CSD entry NOPKAG is in the cubic crystal system
# The framework has been calculated to contain at least 10.0% void space
# The void calculation uses a probe of radius 1.32A, grid spacing 0.4
#
###############################################################################

data_NOPKAG
_chemical_formula_moiety         '(C384 H192 O240 Zn48)n'
_symmetry_cell_setting           triclinic
_symmetry_space_group_name_H-M   'P 1'
_symmetry_Int_Tables_number      1
_space_group_name_Hall           'P 1'
loop_
_symmetry_equiv_pos_site_id
_symmetry_equiv_pos_as_xyz
1 x,y,z
_cell_length_a                   22.283(5)
_cell_length_b                   22.283(5)
_cell_length_c                   22.283(5)
_cell_angle_alpha                90
_cell_angle_beta                 90
_cell_angle_gamma                90
_cell_volume                     11064.2
loop_
_atom_site_label
_atom_site_type_symbol
_atom_site_fract_x
_atom_site_fract_y
_atom_site_fract_z
Zn1 Zn 0.31249(3) 0.37781(3) 0.75797(3)
O1 O 0.30980(15) 0.32138(14) 0.68376(15)
O2 O 0.31280(18) 0.44199(17) 0.68260(18)
O3 O 0.24186(16) 0.59766(15) 0.61321(16)
O4 O 0.25324(15) 0.27880(15) 0.61359(15)
O5 O 0.30678(15) 0.55409(14) 0.67766(15)
C1 C 0.2723(2) 0.3240(2) 0.6399(2)
C2 C 0.2670(2) 0.5532(2) 0.6354(2)
C3 C 0.2710(2) 0.4393(2) 0.6377(2)
C4 C 0.2508(2) 0.3837(2) 0.6172(2)
C5 C 0.1843(3) 0.4347(3) 0.5470(3)
H1 H 0.1550(3) 0.4329(3) 0.5161(3)
C6 C 0.2074(2) 0.3827(2) 0.5714(2)
H2 H 0.1935(2) 0.3451(2) 0.5569(2)
C7 C 0.2478(2) 0.4923(2) 0.6134(2)
C8 C 0.2046(2) 0.4898(2) 0.5682(2)
H3 H 0.1890(2) 0.5259(2) 0.5518(2)
H4 H 0.316(3) 0.473(2) 0.690(2)
Zn2 Zn 0.31249(3) 0.62219(3) 0.74203(3)
Zn3 Zn 0.24203(3) 0.68751(3) 0.62219(3)
Zn4 Zn 0.37781(3) 0.25797(3) 0.68751(3)
Zn5 Zn 0.25797(3) 0.18751(3) 0.62219(3)
O6 O 0.31624(15) 0.30980(15) 0.82138(14)
O7 O 0.40234(15) 0.38679(16) 0.75814(16)
O8 O 0.22120(15) 0.38641(15) 0.75324(15)
O9 O 0.30678(15) 0.44591(14) 0.82234(15)
Zn1_2 Zn 0.75797(3) 0.31249(3) 0.37781(3)
O1_2 O 0.68376(15) 0.30980(15) 0.32138(14)
O2_2 O 0.68260(18) 0.31280(18) 0.44199(17)
O3_2 O 0.61321(16) 0.24186(16) 0.59766(15)
O4_2 O 0.61359(15) 0.25324(15) 0.27880(15)
O5_2 O 0.67766(15) 0.30678(15) 0.55409(14)
C1_2 C 0.6399(2) 0.2723(2) 0.3240(2)
C2_2 C 0.6354(2) 0.2670(2) 0.5532(2)
C3_2 C 0.6377(2) 0.2710(2) 0.4393(2)
C4_2 C 0.6172(2) 0.2508(2) 0.3837(2)
C5_2 C 0.5470(3) 0.1843(3) 0.4347(3)
H1_2 H 0.5161(3) 0.1550(3) 0.4329(3)
C6_2 C 0.5714(2) 0.2074(2) 0.3827(2)
H2_2 H 0.5569(2) 0.1935(2) 0.3451(2)
C7_2 C 0.6134(2) 0.2478(2) 0.4923(2)
C8_2 C 0.5682(2) 0.2046(2) 0.4898(2)
H3_2 H 0.5518(2) 0.1890(2) 0.5259(2)
H4_2 H 0.690(2) 0.316(3) 0.473(2)
Zn2_2 Zn 0.74203(3) 0.31249(3) 0.62219(3)
Zn3_2 Zn 0.62219(3) 0.24203(3) 0.68751(3)
Zn4_2 Zn 0.68751(3) 0.37781(3) 0.25797(3)
Zn5_2 Zn 0.62219(3) 0.25797(3) 0.18751(3)
O6_2 O 0.82138(14) 0.31624(15) 0.30980(15)
O7_2 O 0.75814(16) 0.40234(15) 0.38679(16)
O8_2 O 0.75324(15) 0.22120(15) 0.38641(15)
O9_2 O 0.82234(15) 0.30678(15) 0.44591(14)
Zn1_3 Zn 0.37781(3) 0.75797(3) 0.31249(3)
O1_3 O 0.32138(14) 0.68376(15) 0.30980(15)
O2_3 O 0.44199(17) 0.68260(18) 0.31280(18)
O3_3 O 0.59766(15) 0.61321(16) 0.24186(16)
O4_3 O 0.27880(15) 0.61359(15) 0.25324(15)
O5_3 O 0.55409(14) 0.67766(15) 0.30678(15)
C1_3 C 0.3240(2) 0.6399(2) 0.2723(2)
C2_3 C 0.5532(2) 0.6354(2) 0.2670(2)
C3_3 C 0.4393(2) 0.6377(2) 0.2710(2)
C4_3 C 0.3837(2) 0.6172(2) 0.2508(2)
C5_3 C 0.4347(3) 0.5470(3) 0.1843(3)
H1_3 H 0.4329(3) 0.5161(3) 0.1550(3)
C6_3 C 0.3827(2) 0.5714(2) 0.2074(2)
H2_3 H 0.3451(2) 0.5569(2) 0.1935(2)
C7_3 C 0.4923(2) 0.6134(2) 0.2478(2)
C8_3 C 0.4898(2) 0.5682(2) 0.2046(2)
H3_3 H 0.5259(2) 0.5518(2) 0.1890(2)
H4_3 H 0.473(2) 0.690(2) 0.316(3)
Zn2_3 Zn 0.62219(3) 0.74203(3) 0.31249(3)
Zn3_3 Zn 0.68751(3) 0.62219(3) 0.24203(3)
Zn4_3 Zn 0.25797(3) 0.68751(3) 0.37781(3)
Zn5_3 Zn 0.18751(3) 0.62219(3) 0.25797(3)
O6_3 O 0.30980(15) 0.82138(14) 0.31624(15)
O7_3 O 0.38679(16) 0.75814(16) 0.40234(15)
O8_3 O 0.38641(15) 0.75324(15) 0.22120(15)
O9_3 O 0.44591(14) 0.82234(15) 0.30678(15)
O1_4 O 0.67862(14) 0.81624(15) 0.30980(15)
O2_4 O 0.55801(17) 0.81740(18) 0.31280(18)
O3_4 O 0.40234(15) 0.88679(16) 0.24186(16)
O4_4 O 0.72120(15) 0.88641(15) 0.25324(15)
C1_4 C 0.6760(2) 0.8601(2) 0.2723(2)
C2_4 C 0.4468(2) 0.8646(2) 0.2670(2)
C3_4 C 0.5607(2) 0.8623(2) 0.2710(2)
C4_4 C 0.6163(2) 0.8828(2) 0.2508(2)
C5_4 C 0.5653(3) 0.9530(3) 0.1843(3)
H1_4 H 0.5671(3) 0.9839(3) 0.1550(3)
C6_4 C 0.6173(2) 0.9286(2) 0.2074(2)
H2_4 H 0.6549(2) 0.9431(2) 0.1935(2)
C7_4 C 0.5077(2) 0.8866(2) 0.2478(2)
C8_4 C 0.5102(2) 0.9318(2) 0.2046(2)
H3_4 H 0.4741(2) 0.9482(2) 0.1890(2)
H4_4 H 0.527(2) 0.810(2) 0.316(3)
Zn3_4 Zn 0.31249(3) 0.87781(3) 0.24203(3)
Zn4_4 Zn 0.74203(3) 0.81249(3) 0.37781(3)
Zn5_4 Zn 0.81249(3) 0.87781(3) 0.25797(3)
O6_4 O 0.69020(15) 0.67862(14) 0.31624(15)
O7_4 O 0.61321(16) 0.74186(16) 0.40234(15)
O8_4 O 0.61359(15) 0.74676(15) 0.22120(15)
Zn1_4 Zn 0.75797(3) 0.68751(3) 0.12219(3)
O1_5 O 0.68376(15) 0.69020(15) 0.17862(14)
O2_5 O 0.68260(18) 0.68720(18) 0.05801(17)
C1_5 C 0.6399(2) 0.7277(2) 0.1760(2)
C3_5 C 0.6377(2) 0.7290(2) 0.0607(2)
C4_5 C 0.6172(2) 0.7492(2) 0.1163(2)
C5_5 C 0.5470(3) 0.8157(3) 0.0653(3)
H1_5 H 0.5161(3) 0.8450(3) 0.0671(3)
C6_5 C 0.5714(2) 0.7926(2) 0.1173(2)
H2_5 H 0.5569(2) 0.8065(2) 0.1549(2)
C7_5 C 0.6134(2) 0.7522(2) 0.0077(2)
C8_5 C 0.5682(2) 0.7954(2) 0.0102(2)
H4_5 H 0.690(2) 0.684(3) 0.027(2)
O6_5 O 0.82138(14) 0.68376(15) 0.19020(15)
O7_5 O 0.75814(16) 0.59766(15) 0.11321(16)
O8_5 O 0.75324(15) 0.77880(15) 0.11359(15)
O9_4 O 0.82234(15) 0.69322(15) 0.05409(14)
O3_5 O 0.61321(16) 0.75814(16) 0.90234(15)
O5_4 O 0.67766(15) 0.69322(15) 0.94591(14)
C2_5 C 0.6354(2) 0.7330(2) 0.9468(2)
H3_5 H 0.5518(2) 0.8110(2) 0.9741(2)
Zn2_4 Zn 0.74203(3) 0.68751(3) 0.87781(3)
Zn3_5 Zn 0.62219(3) 0.75797(3) 0.81249(3)
Zn1_5 Zn 0.12219(3) 0.75797(3) 0.68751(3)
O1_6 O 0.17862(14) 0.68376(15) 0.69020(15)
O2_6 O 0.05801(17) 0.68260(18) 0.68720(18)
O4_5 O 0.22120(15) 0.61359(15) 0.74676(15)
C1_6 C 0.1760(2) 0.6399(2) 0.7277(2)
C3_6 C 0.0607(2) 0.6377(2) 0.7290(2)
C4_6 C 0.1163(2) 0.6172(2) 0.7492(2)
C5_6 C 0.0653(3) 0.5470(3) 0.8157(3)
H1_6 H 0.0671(3) 0.5161(3) 0.8450(3)
C6_6 C 0.1173(2) 0.5714(2) 0.7926(2)
H2_6 H 0.1549(2) 0.5569(2) 0.8065(2)
C7_6 C 0.0077(2) 0.6134(2) 0.7522(2)
C8_6 C 0.0102(2) 0.5682(2) 0.7954(2)
H4_6 H 0.027(2) 0.690(2) 0.684(3)
O6_6 O 0.19020(15) 0.82138(14) 0.68376(15)
O7_6 O 0.11321(16) 0.75814(16) 0.59766(15)
O8_6 O 0.11359(15) 0.75324(15) 0.77880(15)
O9_5 O 0.05409(14) 0.82234(15) 0.69322(15)
O3_6 O 0.90234(15) 0.61321(16) 0.75814(16)
O5_5 O 0.94591(14) 0.67766(15) 0.69322(15)
C2_6 C 0.9468(2) 0.6354(2) 0.7330(2)
H3_6 H 0.9741(2) 0.5518(2) 0.8110(2)
Zn2_5 Zn 0.87781(3) 0.74203(3) 0.68751(3)
Zn3_6 Zn 0.81249(3) 0.62219(3) 0.75797(3)
Zn1_6 Zn 0.24203(3) 0.18751(3) 0.37781(3)
O1_7 O 0.31624(15) 0.19020(15) 0.32138(14)
O2_7 O 0.31740(18) 0.18720(18) 0.44199(17)
O3_7 O 0.38679(16) 0.25814(16) 0.59766(15)
O4_6 O 0.38641(15) 0.24676(15) 0.27880(15)
O5_6 O 0.32234(15) 0.19322(15) 0.55409(14)
C1_7 C 0.3601(2) 0.2277(2) 0.3240(2)
C2_7 C 0.3646(2) 0.2330(2) 0.5532(2)
C3_7 C 0.3623(2) 0.2290(2) 0.4393(2)
C4_7 C 0.3828(2) 0.2492(2) 0.3837(2)
C5_7 C 0.4530(3) 0.3157(3) 0.4347(3)
H1_7 H 0.4839(3) 0.3450(3) 0.4329(3)
C6_7 C 0.4286(2) 0.2926(2) 0.3827(2)
H2_7 H 0.4431(2) 0.3065(2) 0.3451(2)
C7_7 C 0.3866(2) 0.2522(2) 0.4923(2)
C8_7 C 0.4318(2) 0.2954(2) 0.4898(2)
H3_7 H 0.4482(2) 0.3110(2) 0.5259(2)
H4_7 H 0.310(2) 0.184(3) 0.473(2)
Zn4_5 Zn 0.31249(3) 0.12219(3) 0.25797(3)
Zn5_5 Zn 0.37781(3) 0.24203(3) 0.18751(3)
O6_7 O 0.17862(14) 0.18376(15) 0.30980(15)
O7_7 O 0.24186(16) 0.09766(15) 0.38679(16)
O8_7 O 0.24676(15) 0.27880(15) 0.38641(15)
O9_6 O 0.17766(15) 0.19322(15) 0.44591(14)
O1_8 O 0.81624(15) 0.30980(15) 0.67862(14)
O2_8 O 0.81740(18) 0.31280(18) 0.55801(17)
O3_8 O 0.88679(16) 0.24186(16) 0.40234(15)
O4_7 O 0.88641(15) 0.25324(15) 0.72120(15)
C1_8 C 0.8601(2) 0.2723(2) 0.6760(2)
C2_8 C 0.8646(2) 0.2670(2) 0.4468(2)
C3_8 C 0.8623(2) 0.2710(2) 0.5607(2)
C4_8 C 0.8828(2) 0.2508(2) 0.6163(2)
C5_8 C 0.9530(3) 0.1843(3) 0.5653(3)
H1_8 H 0.9839(3) 0.1550(3) 0.5671(3)
C6_8 C 0.9286(2) 0.2074(2) 0.6173(2)
H2_8 H 0.9431(2) 0.1935(2) 0.6549(2)
C7_8 C 0.8866(2) 0.2478(2) 0.5077(2)
C8_8 C 0.9318(2) 0.2046(2) 0.5102(2)
H3_8 H 0.9482(2) 0.1890(2) 0.4741(2)
H4_8 H 0.810(2) 0.316(3) 0.527(2)
Zn3_7 Zn 0.87781(3) 0.24203(3) 0.31249(3)
Zn4_6 Zn 0.81249(3) 0.37781(3) 0.74203(3)
Zn5_6 Zn 0.87781(3) 0.25797(3) 0.81249(3)
O6_8 O 0.67862(14) 0.31624(15) 0.69020(15)
O7_8 O 0.74186(16) 0.40234(15) 0.61321(16)
O8_8 O 0.74676(15) 0.22120(15) 0.61359(15)
O1_9 O 0.32138(14) 0.31624(15) 0.19020(15)
O2_9 O 0.44199(17) 0.31740(18) 0.18720(18)
O3_9 O 0.59766(15) 0.38679(16) 0.25814(16)
O4_8 O 0.27880(15) 0.38641(15) 0.24676(15)
O5_7 O 0.55409(14) 0.32234(15) 0.19322(15)
C1_9 C 0.3240(2) 0.3601(2) 0.2277(2)
C2_9 C 0.5532(2) 0.3646(2) 0.2330(2)
C3_9 C 0.4393(2) 0.3623(2) 0.2290(2)
C4_9 C 0.3837(2) 0.3828(2) 0.2492(2)
C5_9 C 0.4347(3) 0.4530(3) 0.3157(3)
H1_9 H 0.4329(3) 0.4839(3) 0.3450(3)
C6_9 C 0.3827(2) 0.4286(2) 0.2926(2)
H2_9 H 0.3451(2) 0.4431(2) 0.3065(2)
C7_9 C 0.4923(2) 0.3866(2) 0.2522(2)
C8_9 C 0.4898(2) 0.4318(2) 0.2954(2)
H3_9 H 0.5259(2) 0.4482(2) 0.3110(2)
H4_9 H 0.473(2) 0.310(2) 0.184(3)
Zn4_7 Zn 0.25797(3) 0.31249(3) 0.12219(3)
Zn5_7 Zn 0.18751(3) 0.37781(3) 0.24203(3)
O6_9 O 0.30980(15) 0.17862(14) 0.18376(15)
O7_9 O 0.38679(16) 0.24186(16) 0.09766(15)
O9_7 O 0.44591(14) 0.17766(15) 0.19322(15)
O1_10 O 0.30980(15) 0.67862(14) 0.81624(15)
O2_10 O 0.31280(18) 0.55801(17) 0.81740(18)
O3_10 O 0.24186(16) 0.40234(15) 0.88679(16)
O4_9 O 0.25324(15) 0.72120(15) 0.88641(15)
C1_10 C 0.2723(2) 0.6760(2) 0.8601(2)
C2_10 C 0.2670(2) 0.4468(2) 0.8646(2)
C3_10 C 0.2710(2) 0.5607(2) 0.8623(2)
C4_10 C 0.2508(2) 0.6163(2) 0.8828(2)
C5_10 C 0.1843(3) 0.5653(3) 0.9530(3)
H1_10 H 0.1550(3) 0.5671(3) 0.9839(3)
C6_10 C 0.2074(2) 0.6173(2) 0.9286(2)
H2_10 H 0.1935(2) 0.6549(2) 0.9431(2)
C7_10 C 0.2478(2) 0.5077(2) 0.8866(2)
C8_10 C 0.2046(2) 0.5102(2) 0.9318(2)
H3_10 H 0.1890(2) 0.4741(2) 0.9482(2)
H4_10 H 0.316(3) 0.527(2) 0.810(2)
Zn3_8 Zn 0.24203(3) 0.31249(3) 0.87781(3)
Zn4_8 Zn 0.37781(3) 0.74203(3) 0.81249(3)
Zn5_8 Zn 0.25797(3) 0.81249(3) 0.87781(3)
O6_10 O 0.31624(15) 0.69020(15) 0.67862(14)
O7_10 O 0.40234(15) 0.61321(16) 0.74186(16)
O1_11 O 0.19020(15) 0.32138(14) 0.31624(15)
O2_11 O 0.18720(18) 0.44199(17) 0.31740(18)
O3_11 O 0.25814(16) 0.59766(15) 0.38679(16)
O5_8 O 0.19322(15) 0.55409(14) 0.32234(15)
C1_11 C 0.2277(2) 0.3240(2) 0.3601(2)
C2_11 C 0.2330(2) 0.5532(2) 0.3646(2)
C3_11 C 0.2290(2) 0.4393(2) 0.3623(2)
C4_11 C 0.2492(2) 0.3837(2) 0.3828(2)
C5_11 C 0.3157(3) 0.4347(3) 0.4530(3)
H1_11 H 0.3450(3) 0.4329(3) 0.4839(3)
C6_11 C 0.2926(2) 0.3827(2) 0.4286(2)
H2_11 H 0.3065(2) 0.3451(2) 0.4431(2)
C7_11 C 0.2522(2) 0.4923(2) 0.3866(2)
C8_11 C 0.2954(2) 0.4898(2) 0.4318(2)
H3_11 H 0.3110(2) 0.5259(2) 0.4482(2)
H4_11 H 0.184(3) 0.473(2) 0.310(2)
Zn4_9 Zn 0.12219(3) 0.25797(3) 0.31249(3)
O6_11 O 0.18376(15) 0.30980(15) 0.17862(14)
O7_11 O 0.09766(15) 0.38679(16) 0.24186(16)
O9_8 O 0.19322(15) 0.44591(14) 0.17766(15)
Zn1_7 Zn 0.68751(3) 0.12219(3) 0.75797(3)
O1_12 O 0.69020(15) 0.17862(14) 0.68376(15)
O2_12 O 0.68720(18) 0.05801(17) 0.68260(18)
C1_12 C 0.7277(2) 0.1760(2) 0.6399(2)
C3_12 C 0.7290(2) 0.0607(2) 0.6377(2)
C4_12 C 0.7492(2) 0.1163(2) 0.6172(2)
C5_12 C 0.8157(3) 0.0653(3) 0.5470(3)
H1_12 H 0.8450(3) 0.0671(3) 0.5161(3)
C6_12 C 0.7926(2) 0.1173(2) 0.5714(2)
H2_12 H 0.8065(2) 0.1549(2) 0.5569(2)
C7_12 C 0.7522(2) 0.0077(2) 0.6134(2)
C8_12 C 0.7954(2) 0.0102(2) 0.5682(2)
H4_12 H 0.684(3) 0.027(2) 0.690(2)
O6_12 O 0.68376(15) 0.19020(15) 0.82138(14)
O7_12 O 0.59766(15) 0.11321(16) 0.75814(16)
O8_9 O 0.77880(15) 0.11359(15) 0.75324(15)
O9_9 O 0.69322(15) 0.05409(14) 0.82234(15)
O3_12 O 0.75814(16) 0.90234(15) 0.61321(16)
O5_9 O 0.69322(15) 0.94591(14) 0.67766(15)
C2_12 C 0.7330(2) 0.9468(2) 0.6354(2)
H3_12 H 0.8110(2) 0.9741(2) 0.5518(2)
Zn2_6 Zn 0.68751(3) 0.87781(3) 0.74203(3)
Zn3_9 Zn 0.75797(3) 0.81249(3) 0.62219(3)
O3_13 O 0.74186(16) 0.09766(15) 0.11321(16)
O5_10 O 0.80678(15) 0.05409(14) 0.17766(15)
C2_13 C 0.7670(2) 0.0532(2) 0.1354(2)
H3_13 H 0.6890(2) 0.0259(2) 0.0518(2)
Zn2_7 Zn 0.81249(3) 0.12219(3) 0.24203(3)
Zn3_10 Zn 0.74203(3) 0.18751(3) 0.12219(3)
O1_13 O 0.80980(15) 0.82138(14) 0.18376(15)
O2_13 O 0.81280(18) 0.94199(17) 0.18260(18)
C1_13 C 0.7723(2) 0.8240(2) 0.1399(2)
C3_13 C 0.7710(2) 0.9393(2) 0.1377(2)
C4_13 C 0.7508(2) 0.8837(2) 0.1172(2)
C5_13 C 0.6843(3) 0.9347(3) 0.0470(3)
H1_13 H 0.6550(3) 0.9329(3) 0.0161(3)
C6_13 C 0.7074(2) 0.8827(2) 0.0714(2)
H2_13 H 0.6935(2) 0.8451(2) 0.0569(2)
C7_13 C 0.7478(2) 0.9923(2) 0.1134(2)
C8_13 C 0.7046(2) 0.9898(2) 0.0682(2)
H4_13 H 0.816(3) 0.973(2) 0.190(2)
Zn4_10 Zn 0.87781(3) 0.75797(3) 0.18751(3)
O6_13 O 0.81624(15) 0.80980(15) 0.32138(14)
O7_13 O 0.90234(15) 0.88679(16) 0.25814(16)
O9_10 O 0.80678(15) 0.94591(14) 0.32234(15)
O3_14 O 0.11321(16) 0.74186(16) 0.09766(15)
O5_11 O 0.17766(15) 0.80678(15) 0.05409(14)
C2_14 C 0.1354(2) 0.7670(2) 0.0532(2)
H3_14 H 0.0518(2) 0.6890(2) 0.0259(2)
Zn2_8 Zn 0.24203(3) 0.81249(3) 0.12219(3)
Zn3_11 Zn 0.12219(3) 0.74203(3) 0.18751(3)
O1_14 O 0.18376(15) 0.80980(15) 0.82138(14)
O2_14 O 0.18260(18) 0.81280(18) 0.94199(17)
C1_14 C 0.1399(2) 0.7723(2) 0.8240(2)
C3_14 C 0.1377(2) 0.7710(2) 0.9393(2)
C4_14 C 0.1172(2) 0.7508(2) 0.8837(2)
C5_14 C 0.0470(3) 0.6843(3) 0.9347(3)
H1_14 H 0.0161(3) 0.6550(3) 0.9329(3)
C6_14 C 0.0714(2) 0.7074(2) 0.8827(2)
H2_14 H 0.0569(2) 0.6935(2) 0.8451(2)
C7_14 C 0.1134(2) 0.7478(2) 0.9923(2)
C8_14 C 0.0682(2) 0.7046(2) 0.9898(2)
H4_14 H 0.190(2) 0.816(3) 0.973(2)
Zn4_11 Zn 0.18751(3) 0.87781(3) 0.75797(3)
O6_14 O 0.32138(14) 0.81624(15) 0.80980(15)
O7_14 O 0.25814(16) 0.90234(15) 0.88679(16)
O9_11 O 0.32234(15) 0.80678(15) 0.94591(14)
O3_15 O 0.09766(15) 0.11321(16) 0.74186(16)
O5_12 O 0.05409(14) 0.17766(15) 0.80678(15)
C2_15 C 0.0532(2) 0.1354(2) 0.7670(2)
H3_15 H 0.0259(2) 0.0518(2) 0.6890(2)
Zn2_9 Zn 0.12219(3) 0.24203(3) 0.81249(3)
Zn3_12 Zn 0.18751(3) 0.12219(3) 0.74203(3)
O1_15 O 0.82138(14) 0.18376(15) 0.80980(15)
O2_15 O 0.94199(17) 0.18260(18) 0.81280(18)
C1_15 C 0.8240(2) 0.1399(2) 0.7723(2)
C3_15 C 0.9393(2) 0.1377(2) 0.7710(2)
C4_15 C 0.8837(2) 0.1172(2) 0.7508(2)
C5_15 C 0.9347(3) 0.0470(3) 0.6843(3)
H1_15 H 0.9329(3) 0.0161(3) 0.6550(3)
C6_15 C 0.8827(2) 0.0714(2) 0.7074(2)
H2_15 H 0.8451(2) 0.0569(2) 0.6935(2)
C7_15 C 0.9923(2) 0.1134(2) 0.7478(2)
C8_15 C 0.9898(2) 0.0682(2) 0.7046(2)
H4_15 H 0.973(2) 0.190(2) 0.816(3)
Zn4_12 Zn 0.75797(3) 0.18751(3) 0.87781(3)
O6_15 O 0.80980(15) 0.32138(14) 0.81624(15)
O7_15 O 0.88679(16) 0.25814(16) 0.90234(15)
O9_12 O 0.94591(14) 0.32234(15) 0.80678(15)
O1_16 O 0.17862(14) 0.31624(15) 0.80980(15)
O2_16 O 0.05801(17) 0.31740(18) 0.81280(18)
C1_16 C 0.1760(2) 0.3601(2) 0.7723(2)
C3_16 C 0.0607(2) 0.3623(2) 0.7710(2)
C4_16 C 0.1163(2) 0.3828(2) 0.7508(2)
C5_16 C 0.0653(3) 0.4530(3) 0.6843(3)
H1_16 H 0.0671(3) 0.4839(3) 0.6550(3)
C6_16 C 0.1173(2) 0.4286(2) 0.7074(2)
H2_16 H 0.1549(2) 0.4431(2) 0.6935(2)
C7_16 C 0.0077(2) 0.3866(2) 0.7478(2)
C8_16 C 0.0102(2) 0.4318(2) 0.7046(2)
H4_16 H 0.027(2) 0.310(2) 0.816(3)
O6_16 O 0.19020(15) 0.17862(14) 0.81624(15)
O7_16 O 0.11321(16) 0.24186(16) 0.90234(15)
O8_10 O 0.11359(15) 0.24676(15) 0.72120(15)
O3_16 O 0.90234(15) 0.38679(16) 0.74186(16)
C2_16 C 0.9468(2) 0.3646(2) 0.7670(2)
H3_16 H 0.9741(2) 0.4482(2) 0.6890(2)
O1_17 O 0.18376(15) 0.19020(15) 0.67862(14)
O2_17 O 0.18260(18) 0.18720(18) 0.55801(17)
O3_17 O 0.11321(16) 0.25814(16) 0.40234(15)
C1_17 C 0.1399(2) 0.2277(2) 0.6760(2)
C2_17 C 0.1354(2) 0.2330(2) 0.4468(2)
C3_17 C 0.1377(2) 0.2290(2) 0.5607(2)
C4_17 C 0.1172(2) 0.2492(2) 0.6163(2)
C5_17 C 0.0470(3) 0.3157(3) 0.5653(3)
H1_17 H 0.0161(3) 0.3450(3) 0.5671(3)
C6_17 C 0.0714(2) 0.2926(2) 0.6173(2)
H2_17 H 0.0569(2) 0.3065(2) 0.6549(2)
C7_17 C 0.1134(2) 0.2522(2) 0.5077(2)
C8_17 C 0.0682(2) 0.2954(2) 0.5102(2)
H3_17 H 0.0518(2) 0.3110(2) 0.4741(2)
H4_17 H 0.190(2) 0.184(3) 0.527(2)
O6_17 O 0.32138(14) 0.18376(15) 0.69020(15)
O7_17 O 0.25814(16) 0.09766(15) 0.61321(16)
O1_18 O 0.67862(14) 0.18376(15) 0.19020(15)
O2_18 O 0.55801(17) 0.18260(18) 0.18720(18)
O3_18 O 0.40234(15) 0.11321(16) 0.25814(16)
O4_10 O 0.72120(15) 0.11359(15) 0.24676(15)
C1_18 C 0.6760(2) 0.1399(2) 0.2277(2)
C2_18 C 0.4468(2) 0.1354(2) 0.2330(2)
C3_18 C 0.5607(2) 0.1377(2) 0.2290(2)
C4_18 C 0.6163(2) 0.1172(2) 0.2492(2)
C5_18 C 0.5653(3) 0.0470(3) 0.3157(3)
H1_18 H 0.5671(3) 0.0161(3) 0.3450(3)
C6_18 C 0.6173(2) 0.0714(2) 0.2926(2)
H2_18 H 0.6549(2) 0.0569(2) 0.3065(2)
C7_18 C 0.5077(2) 0.1134(2) 0.2522(2)
C8_18 C 0.5102(2) 0.0682(2) 0.2954(2)
H3_18 H 0.4741(2) 0.0518(2) 0.3110(2)
H4_18 H 0.527(2) 0.190(2) 0.184(3)
O6_18 O 0.69020(15) 0.32138(14) 0.18376(15)
O7_18 O 0.61321(16) 0.25814(16) 0.09766(15)
O3_19 O 0.88679(16) 0.75814(16) 0.09766(15)
C2_19 C 0.8646(2) 0.7330(2) 0.0532(2)
H3_19 H 0.9482(2) 0.8110(2) 0.0259(2)
O1_19 O 0.81624(15) 0.69020(15) 0.82138(14)
O2_19 O 0.81740(18) 0.68720(18) 0.94199(17)
O4_11 O 0.88641(15) 0.74676(15) 0.77880(15)
C1_19 C 0.8601(2) 0.7277(2) 0.8240(2)
C3_19 C 0.8623(2) 0.7290(2) 0.9393(2)
C4_19 C 0.8828(2) 0.7492(2) 0.8837(2)
C5_19 C 0.9530(3) 0.8157(3) 0.9347(3)
H1_19 H 0.9839(3) 0.8450(3) 0.9329(3)
C6_19 C 0.9286(2) 0.7926(2) 0.8827(2)
H2_19 H 0.9431(2) 0.8065(2) 0.8451(2)
C7_19 C 0.8866(2) 0.7522(2) 0.9923(2)
C8_19 C 0.9318(2) 0.7954(2) 0.9898(2)
H4_19 H 0.810(2) 0.684(3) 0.973(2)
O6_19 O 0.67862(14) 0.68376(15) 0.80980(15)
O7_19 O 0.74186(16) 0.59766(15) 0.88679(16)
O8_11 O 0.74676(15) 0.77880(15) 0.88641(15)
O1_20 O 0.31624(15) 0.80980(15) 0.17862(14)
O2_20 O 0.31740(18) 0.81280(18) 0.05801(17)
C1_20 C 0.3601(2) 0.7723(2) 0.1760(2)
C3_20 C 0.3623(2) 0.7710(2) 0.0607(2)
C4_20 C 0.3828(2) 0.7508(2) 0.1163(2)
C5_20 C 0.4530(3) 0.6843(3) 0.0653(3)
H1_20 H 0.4839(3) 0.6550(3) 0.0671(3)
C6_20 C 0.4286(2) 0.7074(2) 0.1173(2)
H2_20 H 0.4431(2) 0.6935(2) 0.1549(2)
C7_20 C 0.3866(2) 0.7478(2) 0.0077(2)
C8_20 C 0.4318(2) 0.7046(2) 0.0102(2)
H4_20 H 0.310(2) 0.816(3) 0.027(2)
O6_20 O 0.17862(14) 0.81624(15) 0.19020(15)
O7_20 O 0.24186(16) 0.90234(15) 0.11321(16)
O8_12 O 0.24676(15) 0.72120(15) 0.11359(15)
O3_20 O 0.38679(16) 0.74186(16) 0.90234(15)
C2_20 C 0.3646(2) 0.7670(2) 0.9468(2)
H3_20 H 0.4482(2) 0.6890(2) 0.9741(2)
O3_21 O 0.09766(15) 0.88679(16) 0.75814(16)
C2_21 C 0.0532(2) 0.8646(2) 0.7330(2)
H3_21 H 0.0259(2) 0.9482(2) 0.8110(2)
O1_21 O 0.82138(14) 0.81624(15) 0.69020(15)
O2_21 O 0.94199(17) 0.81740(18) 0.68720(18)
O4_12 O 0.77880(15) 0.88641(15) 0.74676(15)
C1_21 C 0.8240(2) 0.8601(2) 0.7277(2)
C3_21 C 0.9393(2) 0.8623(2) 0.7290(2)
C4_21 C 0.8837(2) 0.8828(2) 0.7492(2)
C5_21 C 0.9347(3) 0.9530(3) 0.8157(3)
H1_21 H 0.9329(3) 0.9839(3) 0.8450(3)
C6_21 C 0.8827(2) 0.9286(2) 0.7926(2)
H2_21 H 0.8451(2) 0.9431(2) 0.8065(2)
C7_21 C 0.9923(2) 0.8866(2) 0.7522(2)
C8_21 C 0.9898(2) 0.9318(2) 0.7954(2)
H4_21 H 0.973(2) 0.810(2) 0.684(3)
O6_21 O 0.80980(15) 0.67862(14) 0.68376(15)
O7_21 O 0.88679(16) 0.74186(16) 0.59766(15)
O1_22 O 0.80980(15) 0.17862(14) 0.31624(15)
O2_22 O 0.81280(18) 0.05801(17) 0.31740(18)
C1_22 C 0.7723(2) 0.1760(2) 0.3601(2)
C3_22 C 0.7710(2) 0.0607(2) 0.3623(2)
C4_22 C 0.7508(2) 0.1163(2) 0.3828(2)
C5_22 C 0.6843(3) 0.0653(3) 0.4530(3)
H1_22 H 0.6550(3) 0.0671(3) 0.4839(3)
C6_22 C 0.7074(2) 0.1173(2) 0.4286(2)
H2_22 H 0.6935(2) 0.1549(2) 0.4431(2)
C7_22 C 0.7478(2) 0.0077(2) 0.3866(2)
C8_22 C 0.7046(2) 0.0102(2) 0.4318(2)
H4_22 H 0.816(3) 0.027(2) 0.310(2)
O6_22 O 0.81624(15) 0.19020(15) 0.17862(14)
O7_22 O 0.90234(15) 0.11321(16) 0.24186(16)
O3_22 O 0.74186(16) 0.90234(15) 0.38679(16)
C2_22 C 0.7670(2) 0.9468(2) 0.3646(2)
H3_22 H 0.6890(2) 0.9741(2) 0.4482(2)
O3_23 O 0.75814(16) 0.09766(15) 0.88679(16)
C2_23 C 0.7330(2) 0.0532(2) 0.8646(2)
H3_23 H 0.8110(2) 0.0259(2) 0.9482(2)
O1_23 O 0.69020(15) 0.82138(14) 0.81624(15)
O2_23 O 0.68720(18) 0.94199(17) 0.81740(18)
C1_23 C 0.7277(2) 0.8240(2) 0.8601(2)
C3_23 C 0.7290(2) 0.9393(2) 0.8623(2)
C4_23 C 0.7492(2) 0.8837(2) 0.8828(2)
C5_23 C 0.8157(3) 0.9347(3) 0.9530(3)
H1_23 H 0.8450(3) 0.9329(3) 0.9839(3)
C6_23 C 0.7926(2) 0.8827(2) 0.9286(2)
H2_23 H 0.8065(2) 0.8451(2) 0.9431(2)
C7_23 C 0.7522(2) 0.9923(2) 0.8866(2)
C8_23 C 0.7954(2) 0.9898(2) 0.9318(2)
H4_23 H 0.684(3) 0.973(2) 0.810(2)
O6_23 O 0.68376(15) 0.80980(15) 0.67862(14)
O7_23 O 0.59766(15) 0.88679(16) 0.74186(16)
O1_24 O 0.19020(15) 0.67862(14) 0.18376(15)
O2_24 O 0.18720(18) 0.55801(17) 0.18260(18)
O3_24 O 0.25814(16) 0.40234(15) 0.11321(16)
C1_24 C 0.2277(2) 0.6760(2) 0.1399(2)
C2_24 C 0.2330(2) 0.4468(2) 0.1354(2)
C3_24 C 0.2290(2) 0.5607(2) 0.1377(2)
C4_24 C 0.2492(2) 0.6163(2) 0.1172(2)
C5_24 C 0.3157(3) 0.5653(3) 0.0470(3)
H1_24 H 0.3450(3) 0.5671(3) 0.0161(3)
C6_24 C 0.2926(2) 0.6173(2) 0.0714(2)
H2_24 H 0.3065(2) 0.6549(2) 0.0569(2)
C7_24 C 0.2522(2) 0.5077(2) 0.1134(2)
C8_24 C 0.2954(2) 0.5102(2) 0.0682(2)
H3_24 H 0.3110(2) 0.4741(2) 0.0518(2)
H4_24 H 0.184(3) 0.527(2) 0.190(2)
O6_24 O 0.18376(15) 0.69020(15) 0.32138(14)
O7_24 O 0.09766(15) 0.61321(16) 0.25814(16)
O2_25 O 0.68720(18) 0.55801(17) 0.31740(18)
O4_13 O 0.74676(15) 0.72120(15) 0.38641(15)
O5_13 O 0.69322(15) 0.44591(14) 0.32234(15)
C1_25 C 0.7277(2) 0.6760(2) 0.3601(2)
C2_25 C 0.7330(2) 0.4468(2) 0.3646(2)
C3_25 C 0.7290(2) 0.5607(2) 0.3623(2)
C4_25 C 0.7492(2) 0.6163(2) 0.3828(2)
C5_25 C 0.8157(3) 0.5653(3) 0.4530(3)
H1_25 H 0.8450(3) 0.5671(3) 0.4839(3)
C6_25 C 0.7926(2) 0.6173(2) 0.4286(2)
H2_25 H 0.8065(2) 0.6549(2) 0.4431(2)
C7_25 C 0.7522(2) 0.5077(2) 0.3866(2)
C8_25 C 0.7954(2) 0.5102(2) 0.4318(2)
H3_25 H 0.8110(2) 0.4741(2) 0.4482(2)
H4_25 H 0.684(3) 0.527(2) 0.310(2)
O8_13 O 0.77880(15) 0.61359(15) 0.24676(15)
O9_13 O 0.69322(15) 0.55409(14) 0.17766(15)
O2_26 O 0.31740(18) 0.68720(18) 0.55801(17)
O4_14 O 0.38641(15) 0.74676(15) 0.72120(15)
O5_14 O 0.32234(15) 0.69322(15) 0.44591(14)
C1_26 C 0.3601(2) 0.7277(2) 0.6760(2)
C2_26 C 0.3646(2) 0.7330(2) 0.4468(2)
C3_26 C 0.3623(2) 0.7290(2) 0.5607(2)
C4_26 C 0.3828(2) 0.7492(2) 0.6163(2)
C5_26 C 0.4530(3) 0.8157(3) 0.5653(3)
H1_26 H 0.4839(3) 0.8450(3) 0.5671(3)
C6_26 C 0.4286(2) 0.7926(2) 0.6173(2)
H2_26 H 0.4431(2) 0.8065(2) 0.6549(2)
C7_26 C 0.3866(2) 0.7522(2) 0.5077(2)
C8_26 C 0.4318(2) 0.7954(2) 0.5102(2)
H3_26 H 0.4482(2) 0.8110(2) 0.4741(2)
H4_26 H 0.310(2) 0.684(3) 0.527(2)
O8_14 O 0.24676(15) 0.77880(15) 0.61359(15)
O9_14 O 0.17766(15) 0.69322(15) 0.55409(14)
O2_27 O 0.55801(17) 0.31740(18) 0.68720(18)
O4_15 O 0.72120(15) 0.38641(15) 0.74676(15)
O5_15 O 0.44591(14) 0.32234(15) 0.69322(15)
C1_27 C 0.6760(2) 0.3601(2) 0.7277(2)
C2_27 C 0.4468(2) 0.3646(2) 0.7330(2)
C3_27 C 0.5607(2) 0.3623(2) 0.7290(2)
C4_27 C 0.6163(2) 0.3828(2) 0.7492(2)
C5_27 C 0.5653(3) 0.4530(3) 0.8157(3)
H1_27 H 0.5671(3) 0.4839(3) 0.8450(3)
C6_27 C 0.6173(2) 0.4286(2) 0.7926(2)
H2_27 H 0.6549(2) 0.4431(2) 0.8065(2)
C7_27 C 0.5077(2) 0.3866(2) 0.7522(2)
C8_27 C 0.5102(2) 0.4318(2) 0.7954(2)
H3_27 H 0.4741(2) 0.4482(2) 0.8110(2)
H4_27 H 0.527(2) 0.310(2) 0.684(3)
O8_15 O 0.61359(15) 0.24676(15) 0.77880(15)
O9_15 O 0.55409(14) 0.17766(15) 0.69322(15)
O2_28 O 0.44199(17) 0.18260(18) 0.68720(18)
O4_16 O 0.27880(15) 0.11359(15) 0.74676(15)
C1_28 C 0.3240(2) 0.1399(2) 0.7277(2)
C2_28 C 0.5532(2) 0.1354(2) 0.7330(2)
C3_28 C 0.4393(2) 0.1377(2) 0.7290(2)
C4_28 C 0.3837(2) 0.1172(2) 0.7492(2)
C5_28 C 0.4347(3) 0.0470(3) 0.8157(3)
H1_28 H 0.4329(3) 0.0161(3) 0.8450(3)
C6_28 C 0.3827(2) 0.0714(2) 0.7926(2)
H2_28 H 0.3451(2) 0.0569(2) 0.8065(2)
C7_28 C 0.4923(2) 0.1134(2) 0.7522(2)
C8_28 C 0.4898(2) 0.0682(2) 0.7954(2)
H3_28 H 0.5259(2) 0.0518(2) 0.8110(2)
H4_28 H 0.473(2) 0.190(2) 0.684(3)
O8_16 O 0.38641(15) 0.25324(15) 0.77880(15)
O5_16 O 0.32234(15) 0.30678(15) 0.05409(14)
C2_29 C 0.3646(2) 0.2670(2) 0.0532(2)
H3_29 H 0.4482(2) 0.1890(2) 0.0259(2)
O2_29 O 0.31740(18) 0.31280(18) 0.94199(17)
C1_29 C 0.3601(2) 0.2723(2) 0.8240(2)
C3_29 C 0.3623(2) 0.2710(2) 0.9393(2)
C4_29 C 0.3828(2) 0.2508(2) 0.8837(2)
C5_29 C 0.4530(3) 0.1843(3) 0.9347(3)
H1_29 H 0.4839(3) 0.1550(3) 0.9329(3)
C6_29 C 0.4286(2) 0.2074(2) 0.8827(2)
H2_29 H 0.4431(2) 0.1935(2) 0.8451(2)
C7_29 C 0.3866(2) 0.2478(2) 0.9923(2)
C8_29 C 0.4318(2) 0.2046(2) 0.9898(2)
H4_29 H 0.310(2) 0.316(3) 0.973(2)
O8_17 O 0.24676(15) 0.22120(15) 0.88641(15)
O9_16 O 0.17766(15) 0.30678(15) 0.94591(14)
O5_17 O 0.05409(14) 0.32234(15) 0.30678(15)
C2_30 C 0.0532(2) 0.3646(2) 0.2670(2)
H3_30 H 0.0259(2) 0.4482(2) 0.1890(2)
O2_30 O 0.94199(17) 0.31740(18) 0.31280(18)
O4_17 O 0.77880(15) 0.38641(15) 0.25324(15)
C1_30 C 0.8240(2) 0.3601(2) 0.2723(2)
C3_30 C 0.9393(2) 0.3623(2) 0.2710(2)
C4_30 C 0.8837(2) 0.3828(2) 0.2508(2)
C5_30 C 0.9347(3) 0.4530(3) 0.1843(3)
H1_30 H 0.9329(3) 0.4839(3) 0.1550(3)
C6_30 C 0.8827(2) 0.4286(2) 0.2074(2)
H2_30 H 0.8451(2) 0.4431(2) 0.1935(2)
C7_30 C 0.9923(2) 0.3866(2) 0.2478(2)
C8_30 C 0.9898(2) 0.4318(2) 0.2046(2)
H4_30 H 0.973(2) 0.310(2) 0.316(3)
O8_18 O 0.88641(15) 0.24676(15) 0.22120(15)
O9_17 O 0.94591(14) 0.17766(15) 0.30678(15)
O2_31 O 0.68260(18) 0.81280(18) 0.55801(17)
O4_18 O 0.61359(15) 0.75324(15) 0.72120(15)
O5_18 O 0.67766(15) 0.80678(15) 0.44591(14)
C1_31 C 0.6399(2) 0.7723(2) 0.6760(2)
C2_31 C 0.6354(2) 0.7670(2) 0.4468(2)
C3_31 C 0.6377(2) 0.7710(2) 0.5607(2)
C4_31 C 0.6172(2) 0.7508(2) 0.6163(2)
C5_31 C 0.5470(3) 0.6843(3) 0.5653(3)
H1_31 H 0.5161(3) 0.6550(3) 0.5671(3)
C6_31 C 0.5714(2) 0.7074(2) 0.6173(2)
H2_31 H 0.5569(2) 0.6935(2) 0.6549(2)
C7_31 C 0.6134(2) 0.7478(2) 0.5077(2)
C8_31 C 0.5682(2) 0.7046(2) 0.5102(2)
H3_31 H 0.5518(2) 0.6890(2) 0.4741(2)
H4_31 H 0.690(2) 0.816(3) 0.527(2)
O8_19 O 0.75324(15) 0.72120(15) 0.61359(15)
O9_18 O 0.82234(15) 0.80678(15) 0.55409(14)
O2_32 O 0.18260(18) 0.68720(18) 0.44199(17)
O4_19 O 0.11359(15) 0.74676(15) 0.27880(15)
C1_32 C 0.1399(2) 0.7277(2) 0.3240(2)
C2_32 C 0.1354(2) 0.7330(2) 0.5532(2)
C3_32 C 0.1377(2) 0.7290(2) 0.4393(2)
C4_32 C 0.1172(2) 0.7492(2) 0.3837(2)
C5_32 C 0.0470(3) 0.8157(3) 0.4347(3)
H1_32 H 0.0161(3) 0.8450(3) 0.4329(3)
C6_32 C 0.0714(2) 0.7926(2) 0.3827(2)
H2_32 H 0.0569(2) 0.8065(2) 0.3451(2)
C7_32 C 0.1134(2) 0.7522(2) 0.4923(2)
C8_32 C 0.0682(2) 0.7954(2) 0.4898(2)
H3_32 H 0.0518(2) 0.8110(2) 0.5259(2)
H4_32 H 0.190(2) 0.684(3) 0.473(2)
O8_20 O 0.25324(15) 0.77880(15) 0.38641(15)
O2_33 O 0.55801(17) 0.68260(18) 0.81280(18)
O4_20 O 0.72120(15) 0.61359(15) 0.75324(15)
O5_19 O 0.44591(14) 0.67766(15) 0.80678(15)
C1_33 C 0.6760(2) 0.6399(2) 0.7723(2)
C2_33 C 0.4468(2) 0.6354(2) 0.7670(2)
C3_33 C 0.5607(2) 0.6377(2) 0.7710(2)
C4_33 C 0.6163(2) 0.6172(2) 0.7508(2)
C5_33 C 0.5653(3) 0.5470(3) 0.6843(3)
H1_33 H 0.5671(3) 0.5161(3) 0.6550(3)
C6_33 C 0.6173(2) 0.5714(2) 0.7074(2)
H2_33 H 0.6549(2) 0.5569(2) 0.6935(2)
C7_33 C 0.5077(2) 0.6134(2) 0.7478(2)
C8_33 C 0.5102(2) 0.5682(2) 0.7046(2)
H3_33 H 0.4741(2) 0.5518(2) 0.6890(2)
H4_33 H 0.527(2) 0.690(2) 0.816(3)
O9_19 O 0.55409(14) 0.82234(15) 0.80678(15)
O2_34 O 0.68720(18) 0.44199(17) 0.18260(18)
O4_21 O 0.74676(15) 0.27880(15) 0.11359(15)
C1_34 C 0.7277(2) 0.3240(2) 0.1399(2)
C2_34 C 0.7330(2) 0.5532(2) 0.1354(2)
C3_34 C 0.7290(2) 0.4393(2) 0.1377(2)
C4_34 C 0.7492(2) 0.3837(2) 0.1172(2)
C5_34 C 0.8157(3) 0.4347(3) 0.0470(3)
H1_34 H 0.8450(3) 0.4329(3) 0.0161(3)
C6_34 C 0.7926(2) 0.3827(2) 0.0714(2)
H2_34 H 0.8065(2) 0.3451(2) 0.0569(2)
C7_34 C 0.7522(2) 0.4923(2) 0.1134(2)
C8_34 C 0.7954(2) 0.4898(2) 0.0682(2)
H3_34 H 0.8110(2) 0.5259(2) 0.0518(2)
H4_34 H 0.684(3) 0.473(2) 0.190(2)
O2_35 O 0.81280(18) 0.55801(17) 0.68260(18)
O5_20 O 0.80678(15) 0.44591(14) 0.67766(15)
C1_35 C 0.7723(2) 0.6760(2) 0.6399(2)
C2_35 C 0.7670(2) 0.4468(2) 0.6354(2)
C3_35 C 0.7710(2) 0.5607(2) 0.6377(2)
C4_35 C 0.7508(2) 0.6163(2) 0.6172(2)
C5_35 C 0.6843(3) 0.5653(3) 0.5470(3)
H1_35 H 0.6550(3) 0.5671(3) 0.5161(3)
C6_35 C 0.7074(2) 0.6173(2) 0.5714(2)
H2_35 H 0.6935(2) 0.6549(2) 0.5569(2)
C7_35 C 0.7478(2) 0.5077(2) 0.6134(2)
C8_35 C 0.7046(2) 0.5102(2) 0.5682(2)
H3_35 H 0.6890(2) 0.4741(2) 0.5518(2)
H4_35 H 0.816(3) 0.527(2) 0.690(2)
O9_20 O 0.80678(15) 0.55409(14) 0.82234(15)
O5_21 O 0.30678(15) 0.05409(14) 0.32234(15)
C2_36 C 0.2670(2) 0.0532(2) 0.3646(2)
H3_36 H 0.1890(2) 0.0259(2) 0.4482(2)
O2_36 O 0.31280(18) 0.94199(17) 0.31740(18)
C1_36 C 0.2723(2) 0.8240(2) 0.3601(2)
C3_36 C 0.2710(2) 0.9393(2) 0.3623(2)
C4_36 C 0.2508(2) 0.8837(2) 0.3828(2)
C5_36 C 0.1843(3) 0.9347(3) 0.4530(3)
H1_36 H 0.1550(3) 0.9329(3) 0.4839(3)
C6_36 C 0.2074(2) 0.8827(2) 0.4286(2)
H2_36 H 0.1935(2) 0.8451(2) 0.4431(2)
C7_36 C 0.2478(2) 0.9923(2) 0.3866(2)
C8_36 C 0.2046(2) 0.9898(2) 0.4318(2)
H4_36 H 0.316(3) 0.973(2) 0.310(2)
O8_21 O 0.22120(15) 0.88641(15) 0.24676(15)
O9_21 O 0.30678(15) 0.94591(14) 0.17766(15)
O2_37 O 0.18720(18) 0.05801(17) 0.81740(18)
C1_37 C 0.2277(2) 0.1760(2) 0.8601(2)
C3_37 C 0.2290(2) 0.0607(2) 0.8623(2)
C4_37 C 0.2492(2) 0.1163(2) 0.8828(2)
C5_37 C 0.3157(3) 0.0653(3) 0.9530(3)
H1_37 H 0.3450(3) 0.0671(3) 0.9839(3)
C6_37 C 0.2926(2) 0.1173(2) 0.9286(2)
H2_37 H 0.3065(2) 0.1549(2) 0.9431(2)
C7_37 C 0.2522(2) 0.0077(2) 0.8866(2)
C8_37 C 0.2954(2) 0.0102(2) 0.9318(2)
H4_37 H 0.184(3) 0.027(2) 0.810(2)
O9_22 O 0.19322(15) 0.05409(14) 0.67766(15)
O5_22 O 0.19322(15) 0.94591(14) 0.82234(15)
C2_37 C 0.2330(2) 0.9468(2) 0.8646(2)
H3_37 H 0.3110(2) 0.9741(2) 0.9482(2)
O2_38 O 0.81740(18) 0.18720(18) 0.05801(17)
C1_38 C 0.8601(2) 0.2277(2) 0.1760(2)
C3_38 C 0.8623(2) 0.2290(2) 0.0607(2)
C4_38 C 0.8828(2) 0.2492(2) 0.1163(2)
C5_38 C 0.9530(3) 0.3157(3) 0.0653(3)
H1_38 H 0.9839(3) 0.3450(3) 0.0671(3)
C6_38 C 0.9286(2) 0.2926(2) 0.1173(2)
H2_38 H 0.9431(2) 0.3065(2) 0.1549(2)
C7_38 C 0.8866(2) 0.2522(2) 0.0077(2)
C8_38 C 0.9318(2) 0.2954(2) 0.0102(2)
H4_38 H 0.810(2) 0.184(3) 0.027(2)
O9_23 O 0.67766(15) 0.19322(15) 0.05409(14)
O5_23 O 0.82234(15) 0.19322(15) 0.94591(14)
C2_38 C 0.8646(2) 0.2330(2) 0.9468(2)
H3_38 H 0.9482(2) 0.3110(2) 0.9741(2)
O2_39 O 0.05801(17) 0.81740(18) 0.18720(18)
C1_39 C 0.1760(2) 0.8601(2) 0.2277(2)
C3_39 C 0.0607(2) 0.8623(2) 0.2290(2)
C4_39 C 0.1163(2) 0.8828(2) 0.2492(2)
C5_39 C 0.0653(3) 0.9530(3) 0.3157(3)
H1_39 H 0.0671(3) 0.9839(3) 0.3450(3)
C6_39 C 0.1173(2) 0.9286(2) 0.2926(2)
H2_39 H 0.1549(2) 0.9431(2) 0.3065(2)
C7_39 C 0.0077(2) 0.8866(2) 0.2522(2)
C8_39 C 0.0102(2) 0.9318(2) 0.2954(2)
H4_39 H 0.027(2) 0.810(2) 0.184(3)
O9_24 O 0.05409(14) 0.67766(15) 0.19322(15)
O5_24 O 0.94591(14) 0.82234(15) 0.19322(15)
C2_39 C 0.9468(2) 0.8646(2) 0.2330(2)
H3_39 H 0.9741(2) 0.9482(2) 0.3110(2)
C2_40 C 0.0532(2) 0.6354(2) 0.2330(2)
H3_40 H 0.0259(2) 0.5518(2) 0.3110(2)
O2_40 O 0.94199(17) 0.68260(18) 0.18720(18)
C1_40 C 0.8240(2) 0.6399(2) 0.2277(2)
C3_40 C 0.9393(2) 0.6377(2) 0.2290(2)
C4_40 C 0.8837(2) 0.6172(2) 0.2492(2)
C5_40 C 0.9347(3) 0.5470(3) 0.3157(3)
H1_40 H 0.9329(3) 0.5161(3) 0.3450(3)
C6_40 C 0.8827(2) 0.5714(2) 0.2926(2)
H2_40 H 0.8451(2) 0.5569(2) 0.3065(2)
C7_40 C 0.9923(2) 0.6134(2) 0.2522(2)
C8_40 C 0.9898(2) 0.5682(2) 0.2954(2)
H4_40 H 0.973(2) 0.690(2) 0.184(3)
O8_22 O 0.88641(15) 0.75324(15) 0.27880(15)
O2_41 O 0.81740(18) 0.81280(18) 0.44199(17)
C1_41 C 0.8601(2) 0.7723(2) 0.3240(2)
C2_41 C 0.8646(2) 0.7670(2) 0.5532(2)
C3_41 C 0.8623(2) 0.7710(2) 0.4393(2)
C4_41 C 0.8828(2) 0.7508(2) 0.3837(2)
C5_41 C 0.9530(3) 0.6843(3) 0.4347(3)
H1_41 H 0.9839(3) 0.6550(3) 0.4329(3)
C6_41 C 0.9286(2) 0.7074(2) 0.3827(2)
H2_41 H 0.9431(2) 0.6935(2) 0.3451(2)
C7_41 C 0.8866(2) 0.7478(2) 0.4923(2)
C8_41 C 0.9318(2) 0.7046(2) 0.4898(2)
H3_41 H 0.9482(2) 0.6890(2) 0.5259(2)
H4_41 H 0.810(2) 0.816(3) 0.473(2)
O2_42 O 0.44199(17) 0.81740(18) 0.81280(18)
O4_22 O 0.27880(15) 0.88641(15) 0.75324(15)
C1_42 C 0.3240(2) 0.8601(2) 0.7723(2)
C2_42 C 0.5532(2) 0.8646(2) 0.7670(2)
C3_42 C 0.4393(2) 0.8623(2) 0.7710(2)
C4_42 C 0.3837(2) 0.8828(2) 0.7508(2)
C5_42 C 0.4347(3) 0.9530(3) 0.6843(3)
H1_42 H 0.4329(3) 0.9839(3) 0.6550(3)
C6_42 C 0.3827(2) 0.9286(2) 0.7074(2)
H2_42 H 0.3451(2) 0.9431(2) 0.6935(2)
C7_42 C 0.4923(2) 0.8866(2) 0.7478(2)
C8_42 C 0.4898(2) 0.9318(2) 0.7046(2)
H3_42 H 0.5259(2) 0.9482(2) 0.6890(2)
H4_42 H 0.473(2) 0.810(2) 0.816(3)
O2_43 O 0.18260(18) 0.31280(18) 0.05801(17)
O4_23 O 0.11359(15) 0.25324(15) 0.22120(15)
C1_43 C 0.1399(2) 0.2723(2) 0.1760(2)
C3_43 C 0.1377(2) 0.2710(2) 0.0607(2)
C4_43 C 0.1172(2) 0.2508(2) 0.1163(2)
C5_43 C 0.0470(3) 0.1843(3) 0.0653(3)
H1_43 H 0.0161(3) 0.1550(3) 0.0671(3)
C6_43 C 0.0714(2) 0.2074(2) 0.1173(2)
H2_43 H 0.0569(2) 0.1935(2) 0.1549(2)
C7_43 C 0.1134(2) 0.2478(2) 0.0077(2)
C8_43 C 0.0682(2) 0.2046(2) 0.0102(2)
H4_43 H 0.190(2) 0.316(3) 0.027(2)
O8_23 O 0.25324(15) 0.22120(15) 0.11359(15)
C2_43 C 0.1354(2) 0.2670(2) 0.9468(2)
H3_43 H 0.0518(2) 0.1890(2) 0.9741(2)
C2_44 C 0.6354(2) 0.2330(2) 0.0532(2)
H3_44 H 0.5518(2) 0.3110(2) 0.0259(2)
O2_44 O 0.68260(18) 0.18720(18) 0.94199(17)
C1_44 C 0.6399(2) 0.2277(2) 0.8240(2)
C3_44 C 0.6377(2) 0.2290(2) 0.9393(2)
C4_44 C 0.6172(2) 0.2492(2) 0.8837(2)
C5_44 C 0.5470(3) 0.3157(3) 0.9347(3)
H1_44 H 0.5161(3) 0.3450(3) 0.9329(3)
C6_44 C 0.5714(2) 0.2926(2) 0.8827(2)
H2_44 H 0.5569(2) 0.3065(2) 0.8451(2)
C7_44 C 0.6134(2) 0.2522(2) 0.9923(2)
C8_44 C 0.5682(2) 0.2954(2) 0.9898(2)
H4_44 H 0.690(2) 0.184(3) 0.973(2)
O8_24 O 0.75324(15) 0.27880(15) 0.88641(15)
O2_45 O 0.05801(17) 0.18260(18) 0.31280(18)
O4_24 O 0.22120(15) 0.11359(15) 0.25324(15)
C1_45 C 0.1760(2) 0.1399(2) 0.2723(2)
C3_45 C 0.0607(2) 0.1377(2) 0.2710(2)
C4_45 C 0.1163(2) 0.1172(2) 0.2508(2)
C5_45 C 0.0653(3) 0.0470(3) 0.1843(3)
H1_45 H 0.0671(3) 0.0161(3) 0.1550(3)
C6_45 C 0.1173(2) 0.0714(2) 0.2074(2)
H2_45 H 0.1549(2) 0.0569(2) 0.1935(2)
C7_45 C 0.0077(2) 0.1134(2) 0.2478(2)
C8_45 C 0.0102(2) 0.0682(2) 0.2046(2)
H4_45 H 0.027(2) 0.190(2) 0.316(3)
C2_45 C 0.9468(2) 0.1354(2) 0.2670(2)
H3_45 H 0.9741(2) 0.0518(2) 0.1890(2)
C2_46 C 0.2330(2) 0.0532(2) 0.6354(2)
H3_46 H 0.3110(2) 0.0259(2) 0.5518(2)
O2_46 O 0.18720(18) 0.94199(17) 0.68260(18)
C1_46 C 0.2277(2) 0.8240(2) 0.6399(2)
C3_46 C 0.2290(2) 0.9393(2) 0.6377(2)
C4_46 C 0.2492(2) 0.8837(2) 0.6172(2)
C5_46 C 0.3157(3) 0.9347(3) 0.5470(3)
H1_46 H 0.3450(3) 0.9329(3) 0.5161(3)
C6_46 C 0.2926(2) 0.8827(2) 0.5714(2)
H2_46 H 0.3065(2) 0.8451(2) 0.5569(2)
C7_46 C 0.2522(2) 0.9923(2) 0.6134(2)
C8_46 C 0.2954(2) 0.9898(2) 0.5682(2)
H4_46 H 0.184(3) 0.973(2) 0.690(2)
O2_47 O 0.31280(18) 0.05801(17) 0.18260(18)
C1_47 C 0.2723(2) 0.1760(2) 0.1399(2)
C3_47 C 0.2710(2) 0.0607(2) 0.1377(2)
C4_47 C 0.2508(2) 0.1163(2) 0.1172(2)
C5_47 C 0.1843(3) 0.0653(3) 0.0470(3)
H1_47 H 0.1550(3) 0.0671(3) 0.0161(3)
C6_47 C 0.2074(2) 0.1173(2) 0.0714(2)
H2_47 H 0.1935(2) 0.1549(2) 0.0569(2)
C7_47 C 0.2478(2) 0.0077(2) 0.1134(2)
C8_47 C 0.2046(2) 0.0102(2) 0.0682(2)
H4_47 H 0.316(3) 0.027(2) 0.190(2)
C2_47 C 0.2670(2) 0.9468(2) 0.1354(2)
H3_47 H 0.1890(2) 0.9741(2) 0.0518(2)
O2_48 O 0.81280(18) 0.44199(17) 0.81740(18)
C1_48 C 0.7723(2) 0.3240(2) 0.8601(2)
C2_48 C 0.7670(2) 0.5532(2) 0.8646(2)
C3_48 C 0.7710(2) 0.4393(2) 0.8623(2)
C4_48 C 0.7508(2) 0.3837(2) 0.8828(2)
C5_48 C 0.6843(3) 0.4347(3) 0.9530(3)
H1_48 H 0.6550(3) 0.4329(3) 0.9839(3)
C6_48 C 0.7074(2) 0.3827(2) 0.9286(2)
H2_48 H 0.6935(2) 0.3451(2) 0.9431(2)
C7_48 C 0.7478(2) 0.4923(2) 0.8866(2)
C8_48 C 0.7046(2) 0.4898(2) 0.9318(2)
H3_48 H 0.6890(2) 0.5259(2) 0.9482(2)
H4_48 H 0.816(3) 0.473(2) 0.810(2)
loop_
_geom_bond_atom_site_label_1
_geom_bond_atom_site_label_2
_geom_bond_site_symmetry_1
_geom_bond_site_symmetry_2
Zn1 O1 1_555 1_555
O1 C1 1_555 1_555
O2 Zn1 1_555 1_555
O3 C2 1_555 1_555
O4 C1 1_555 1_555
O5 C2 1_555 1_555
C1 C4 1_555 1_555
C2 C7 1_555 1_555
C3 O2 1_555 1_555
C4 C3 1_555 1_555
C5 H1 1_555 1_555
C6 C4 1_555 1_555
H2 C6 1_555 1_555
C7 C3 1_555 1_555
C8 C5 1_555 1_555
H3 C8 1_555 1_555
H4 O2 1_555 1_555
Zn2 O5 1_555 1_555
Zn3 O3 1_555 1_555
Zn4 O1 1_555 1_555
Zn5 O4 1_555 1_555
O6 Zn1 1_555 1_555
O7 Zn1 1_555 1_555
O8 Zn1 1_555 1_555
O9 Zn1 1_555 1_555
C5 C6 1_555 1_555
C7 C8 1_555 1_555
Zn1_2 O1_2 1_555 1_555
O1_2 C1_2 1_555 1_555
O2_2 Zn1_2 1_555 1_555
O3_2 C2_2 1_555 1_555
O4_2 C1_2 1_555 1_555
O5_2 C2_2 1_555 1_555
C1_2 C4_2 1_555 1_555
C2_2 C7_2 1_555 1_555
C3_2 O2_2 1_555 1_555
C4_2 C3_2 1_555 1_555
C5_2 H1_2 1_555 1_555
C6_2 C4_2 1_555 1_555
H2_2 C6_2 1_555 1_555
C7_2 C3_2 1_555 1_555
C8_2 C5_2 1_555 1_555
H3_2 C8_2 1_555 1_555
H4_2 O2_2 1_555 1_555
Zn2_2 O5_2 1_555 1_555
Zn3_2 O3_2 1_555 1_555
Zn4_2 O1_2 1_555 1_555
Zn5_2 O4_2 1_555 1_555
O6_2 Zn1_2 1_555 1_555
O7_2 Zn1_2 1_555 1_555
O8_2 Zn1_2 1_555 1_555
O9_2 Zn1_2 1_555 1_555
C5_2 C6_2 1_555 1_555
C7_2 C8_2 1_555 1_555
Zn1_3 O1_3 1_555 1_555
O1_3 C1_3 1_555 1_555
O2_3 Zn1_3 1_555 1_555
O3_3 C2_3 1_555 1_555
O4_3 C1_3 1_555 1_555
O5_3 C2_3 1_555 1_555
C1_3 C4_3 1_555 1_555
C2_3 C7_3 1_555 1_555
C3_3 O2_3 1_555 1_555
C4_3 C3_3 1_555 1_555
C5_3 H1_3 1_555 1_555
C6_3 C4_3 1_555 1_555
H2_3 C6_3 1_555 1_555
C7_3 C3_3 1_555 1_555
C8_3 C5_3 1_555 1_555
H3_3 C8_3 1_555 1_555
H4_3 O2_3 1_555 1_555
Zn2_3 O5_3 1_555 1_555
Zn3_3 O3_3 1_555 1_555
Zn4_3 O1_3 1_555 1_555
Zn5_3 O4_3 1_555 1_555
O6_3 Zn1_3 1_555 1_555
O7_3 Zn1_3 1_555 1_555
O8_3 Zn1_3 1_555 1_555
O9_3 Zn1_3 1_555 1_555
C5_3 C6_3 1_555 1_555
C7_3 C8_3 1_555 1_555
Zn2_3 O1_4 1_555 1_555
O1_4 C1_4 1_555 1_555
O2_4 Zn2_3 1_555 1_555
O3_4 C2_4 1_555 1_555
O4_4 C1_4 1_555 1_555
O9_3 C2_4 1_555 1_555
C1_4 C4_4 1_555 1_555
C2_4 C7_4 1_555 1_555
C3_4 O2_4 1_555 1_555
C4_4 C3_4 1_555 1_555
C5_4 H1_4 1_555 1_555
C6_4 C4_4 1_555 1_555
H2_4 C6_4 1_555 1_555
C7_4 C3_4 1_555 1_555
C8_4 C5_4 1_555 1_555
H3_4 C8_4 1_555 1_555
H4_4 O2_4 1_555 1_555
Zn3_4 O3_4 1_555 1_555
Zn4_4 O1_4 1_555 1_555
Zn5_4 O4_4 1_555 1_555
O6_4 Zn2_3 1_555 1_555
O7_4 Zn2_3 1_555 1_555
O8_4 Zn2_3 1_555 1_555
C5_4 C6_4 1_555 1_555
C7_4 C8_4 1_555 1_555
Zn1_4 O1_5 1_555 1_555
O1_5 C1_5 1_555 1_555
O2_5 Zn1_4 1_555 1_555
O8_4 C1_5 1_555 1_555
C1_5 C4_5 1_555 1_555
C3_5 O2_5 1_555 1_555
C4_5 C3_5 1_555 1_555
C5_5 H1_5 1_555 1_555
C6_5 C4_5 1_555 1_555
H2_5 C6_5 1_555 1_555
C7_5 C3_5 1_555 1_555
C8_5 C5_5 1_555 1_555
H4_5 O2_5 1_555 1_555
Zn3_3 O1_5 1_555 1_555
O6_5 Zn1_4 1_555 1_555
O7_5 Zn1_4 1_555 1_555
O8_5 Zn1_4 1_555 1_555
O9_4 Zn1_4 1_555 1_555
C5_5 C6_5 1_555 1_555
C7_5 C8_5 1_555 1_555
O3_5 C2_5 1_555 1_555
O5_4 C2_5 1_555 1_555
Zn2_4 O5_4 1_555 1_555
Zn3_5 O3_5 1_555 1_555
Zn1_5 O1_6 1_555 1_555
O1_6 C1_6 1_555 1_555
O2_6 Zn1_5 1_555 1_555
O4_5 C1_6 1_555 1_555
C1_6 C4_6 1_555 1_555
C3_6 O2_6 1_555 1_555
C4_6 C3_6 1_555 1_555
C5_6 H1_6 1_555 1_555
C6_6 C4_6 1_555 1_555
H2_6 C6_6 1_555 1_555
C7_6 C3_6 1_555 1_555
C8_6 C5_6 1_555 1_555
H4_6 O2_6 1_555 1_555
Zn3 O1_6 1_555 1_555
Zn2 O4_5 1_555 1_555
O6_6 Zn1_5 1_555 1_555
O7_6 Zn1_5 1_555 1_555
O8_6 Zn1_5 1_555 1_555
O9_5 Zn1_5 1_555 1_555
C5_6 C6_6 1_555 1_555
C7_6 C8_6 1_555 1_555
O3_6 C2_6 1_555 1_555
O5_5 C2_6 1_555 1_555
Zn2_5 O5_5 1_555 1_555
Zn3_6 O3_6 1_555 1_555
Zn1_6 O1_7 1_555 1_555
O1_7 C1_7 1_555 1_555
O2_7 Zn1_6 1_555 1_555
O3_7 C2_7 1_555 1_555
O4_6 C1_7 1_555 1_555
O5_6 C2_7 1_555 1_555
C1_7 C4_7 1_555 1_555
C2_7 C7_7 1_555 1_555
C3_7 O2_7 1_555 1_555
C4_7 C3_7 1_555 1_555
C5_7 H1_7 1_555 1_555
C6_7 C4_7 1_555 1_555
H2_7 C6_7 1_555 1_555
C7_7 C3_7 1_555 1_555
C8_7 C5_7 1_555 1_555
H3_7 C8_7 1_555 1_555
H4_7 O2_7 1_555 1_555
Zn5 O5_6 1_555 1_555
Zn4 O3_7 1_555 1_555
Zn4_5 O1_7 1_555 1_555
Zn5_5 O4_6 1_555 1_555
O6_7 Zn1_6 1_555 1_555
O7_7 Zn1_6 1_555 1_555
O8_7 Zn1_6 1_555 1_555
O9_6 Zn1_6 1_555 1_555
C5_7 C6_7 1_555 1_555
C7_7 C8_7 1_555 1_555
Zn2_2 O1_8 1_555 1_555
O1_8 C1_8 1_555 1_555
O2_8 Zn2_2 1_555 1_555
O3_8 C2_8 1_555 1_555
O4_7 C1_8 1_555 1_555
O9_2 C2_8 1_555 1_555
C1_8 C4_8 1_555 1_555
C2_8 C7_8 1_555 1_555
C3_8 O2_8 1_555 1_555
C4_8 C3_8 1_555 1_555
C5_8 H1_8 1_555 1_555
C6_8 C4_8 1_555 1_555
H2_8 C6_8 1_555 1_555
C7_8 C3_8 1_555 1_555
C8_8 C5_8 1_555 1_555
H3_8 C8_8 1_555 1_555
H4_8 O2_8 1_555 1_555
Zn3_7 O3_8 1_555 1_555
Zn4_6 O1_8 1_555 1_555
Zn5_6 O4_7 1_555 1_555
O6_8 Zn2_2 1_555 1_555
O7_8 Zn2_2 1_555 1_555
O8_8 Zn2_2 1_555 1_555
C5_8 C6_8 1_555 1_555
C7_8 C8_8 1_555 1_555
Zn5_5 O1_9 1_555 1_555
O1_9 C1_9 1_555 1_555
O2_9 Zn5_5 1_555 1_555
O3_9 C2_9 1_555 1_555
O4_8 C1_9 1_555 1_555
O5_7 C2_9 1_555 1_555
C1_9 C4_9 1_555 1_555
C2_9 C7_9 1_555 1_555
C3_9 O2_9 1_555 1_555
C4_9 C3_9 1_555 1_555
C5_9 H1_9 1_555 1_555
C6_9 C4_9 1_555 1_555
H2_9 C6_9 1_555 1_555
C7_9 C3_9 1_555 1_555
C8_9 C5_9 1_555 1_555
H3_9 C8_9 1_555 1_555
H4_9 O2_9 1_555 1_555
Zn5_2 O5_7 1_555 1_555
Zn4_2 O3_9 1_555 1_555
Zn4_7 O1_9 1_555 1_555
Zn5_7 O4_8 1_555 1_555
O6_9 Zn5_5 1_555 1_555
O7_9 Zn5_5 1_555 1_555
O9_7 Zn5_5 1_555 1_555
C5_9 C6_9 1_555 1_555
C7_9 C8_9 1_555 1_555
Zn2 O1_10 1_555 1_555
O1_10 C1_10 1_555 1_555
O2_10 Zn2 1_555 1_555
O3_10 C2_10 1_555 1_555
O4_9 C1_10 1_555 1_555
O9 C2_10 1_555 1_555
C1_10 C4_10 1_555 1_555
C2_10 C7_10 1_555 1_555
C3_10 O2_10 1_555 1_555
C4_10 C3_10 1_555 1_555
C5_10 H1_10 1_555 1_555
C6_10 C4_10 1_555 1_555
H2_10 C6_10 1_555 1_555
C7_10 C3_10 1_555 1_555
C8_10 C5_10 1_555 1_555
H3_10 C8_10 1_555 1_555
H4_10 O2_10 1_555 1_555
Zn3_8 O3_10 1_555 1_555
Zn4_8 O1_10 1_555 1_555
Zn5_8 O4_9 1_555 1_555
O6_10 Zn2 1_555 1_555
O7_10 Zn2 1_555 1_555
C5_10 C6_10 1_555 1_555
C7_10 C8_10 1_555 1_555
Zn5_7 O1_11 1_555 1_555
O1_11 C1_11 1_555 1_555
O2_11 Zn5_7 1_555 1_555
O3_11 C2_11 1_555 1_555
O8_7 C1_11 1_555 1_555
O5_8 C2_11 1_555 1_555
C1_11 C4_11 1_555 1_555
C2_11 C7_11 1_555 1_555
C3_11 O2_11 1_555 1_555
C4_11 C3_11 1_555 1_555
C5_11 H1_11 1_555 1_555
C6_11 C4_11 1_555 1_555
H2_11 C6_11 1_555 1_555
C7_11 C3_11 1_555 1_555
C8_11 C5_11 1_555 1_555
H3_11 C8_11 1_555 1_555
H4_11 O2_11 1_555 1_555
Zn5_3 O5_8 1_555 1_555
Zn4_3 O3_11 1_555 1_555
Zn4_9 O1_11 1_555 1_555
O6_11 Zn5_7 1_555 1_555
O7_11 Zn5_7 1_555 1_555
O9_8 Zn5_7 1_555 1_555
C5_11 C6_11 1_555 1_555
C7_11 C8_11 1_555 1_555
Zn1_7 O1_12 1_555 1_555
O1_12 C1_12 1_555 1_555
O2_12 Zn1_7 1_555 1_555
O8_8 C1_12 1_555 1_555
C1_12 C4_12 1_555 1_555
C3_12 O2_12 1_555 1_555
C4_12 C3_12 1_555 1_555
C5_12 H1_12 1_555 1_555
C6_12 C4_12 1_555 1_555
H2_12 C6_12 1_555 1_555
C7_12 C3_12 1_555 1_555
C8_12 C5_12 1_555 1_555
H4_12 O2_12 1_555 1_555
Zn3_2 O1_12 1_555 1_555
O6_12 Zn1_7 1_555 1_555
O7_12 Zn1_7 1_555 1_555
O8_9 Zn1_7 1_555 1_555
O9_9 Zn1_7 1_555 1_555
C5_12 C6_12 1_555 1_555
C7_12 C8_12 1_555 1_555
O3_12 C2_12 1_555 1_555
O5_9 C2_12 1_555 1_555
Zn2_6 O5_9 1_555 1_555
Zn3_9 O3_12 1_555 1_555
O3_13 C2_13 1_555 1_555
O5_10 C2_13 1_555 1_555
Zn2_7 O5_10 1_555 1_555
Zn3_10 O3_13 1_555 1_555
Zn5_4 O1_13 1_555 1_555
O1_13 C1_13 1_555 1_555
O2_13 Zn5_4 1_555 1_555
O8_5 C1_13 1_555 1_555
C1_13 C4_13 1_555 1_555
C3_13 O2_13 1_555 1_555
C4_13 C3_13 1_555 1_555
C5_13 H1_13 1_555 1_555
C6_13 C4_13 1_555 1_555
H2_13 C6_13 1_555 1_555
C7_13 C3_13 1_555 1_555
C8_13 C5_13 1_555 1_555
H4_13 O2_13 1_555 1_555
Zn4_10 O1_13 1_555 1_555
O6_13 Zn5_4 1_555 1_555
O7_13 Zn5_4 1_555 1_555
O9_10 Zn5_4 1_555 1_555
C5_13 C6_13 1_555 1_555
C7_13 C8_13 1_555 1_555
O3_14 C2_14 1_555 1_555
O5_11 C2_14 1_555 1_555
Zn2_8 O5_11 1_555 1_555
Zn3_11 O3_14 1_555 1_555
Zn5_8 O1_14 1_555 1_555
O1_14 C1_14 1_555 1_555
O2_14 Zn5_8 1_555 1_555
O8_6 C1_14 1_555 1_555
C1_14 C4_14 1_555 1_555
C3_14 O2_14 1_555 1_555
C4_14 C3_14 1_555 1_555
C5_14 H1_14 1_555 1_555
C6_14 C4_14 1_555 1_555
H2_14 C6_14 1_555 1_555
C7_14 C3_14 1_555 1_555
C8_14 C5_14 1_555 1_555
H4_14 O2_14 1_555 1_555
Zn4_11 O1_14 1_555 1_555
O6_14 Zn5_8 1_555 1_555
O7_14 Zn5_8 1_555 1_555
O9_11 Zn5_8 1_555 1_555
C5_14 C6_14 1_555 1_555
C7_14 C8_14 1_555 1_555
O3_15 C2_15 1_555 1_555
O5_12 C2_15 1_555 1_555
Zn2_9 O5_12 1_555 1_555
Zn3_12 O3_15 1_555 1_555
Zn5_6 O1_15 1_555 1_555
O1_15 C1_15 1_555 1_555
O2_15 Zn5_6 1_555 1_555
O8_9 C1_15 1_555 1_555
C1_15 C4_15 1_555 1_555
C3_15 O2_15 1_555 1_555
C4_15 C3_15 1_555 1_555
C5_15 H1_15 1_555 1_555
C6_15 C4_15 1_555 1_555
H2_15 C6_15 1_555 1_555
C7_15 C3_15 1_555 1_555
C8_15 C5_15 1_555 1_555
H4_15 O2_15 1_555 1_555
Zn4_12 O1_15 1_555 1_555
O6_15 Zn5_6 1_555 1_555
O7_15 Zn5_6 1_555 1_555
O9_12 Zn5_6 1_555 1_555
C5_15 C6_15 1_555 1_555
C7_15 C8_15 1_555 1_555
Zn2_9 O1_16 1_555 1_555
O1_16 C1_16 1_555 1_555
O2_16 Zn2_9 1_555 1_555
O8 C1_16 1_555 1_555
C1_16 C4_16 1_555 1_555
C3_16 O2_16 1_555 1_555
C4_16 C3_16 1_555 1_555
C5_16 H1_16 1_555 1_555
C6_16 C4_16 1_555 1_555
H2_16 C6_16 1_555 1_555
C7_16 C3_16 1_555 1_555
C8_16 C5_16 1_555 1_555
H4_16 O2_16 1_555 1_555
Zn3_8 O1_16 1_555 1_555
O6_16 Zn2_9 1_555 1_555
O7_16 Zn2_9 1_555 1_555
O8_10 Zn2_9 1_555 1_555
C5_16 C6_16 1_555 1_555
C7_16 C8_16 1_555 1_555
O3_16 C2_16 1_555 1_555
O9_12 C2_16 1_555 1_555
Zn4_6 O3_16 1_555 1_555
Zn5 O1_17 1_555 1_555
O1_17 C1_17 1_555 1_555
O2_17 Zn5 1_555 1_555
O3_17 C2_17 1_555 1_555
O8_10 C1_17 1_555 1_555
O9_6 C2_17 1_555 1_555
C1_17 C4_17 1_555 1_555
C2_17 C7_17 1_555 1_555
C3_17 O2_17 1_555 1_555
C4_17 C3_17 1_555 1_555
C5_17 H1_17 1_555 1_555
C6_17 C4_17 1_555 1_555
H2_17 C6_17 1_555 1_555
C7_17 C3_17 1_555 1_555
C8_17 C5_17 1_555 1_555
H3_17 C8_17 1_555 1_555
H4_17 O2_17 1_555 1_555
Zn4_9 O3_17 1_555 1_555
Zn3_12 O1_17 1_555 1_555
O6_17 Zn5 1_555 1_555
O7_17 Zn5 1_555 1_555
C5_17 C6_17 1_555 1_555
C7_17 C8_17 1_555 1_555
Zn5_2 O1_18 1_555 1_555
O1_18 C1_18 1_555 1_555
O2_18 Zn5_2 1_555 1_555
O3_18 C2_18 1_555 1_555
O4_10 C1_18 1_555 1_555
O9_7 C2_18 1_555 1_555
C1_18 C4_18 1_555 1_555
C2_18 C7_18 1_555 1_555
C3_18 O2_18 1_555 1_555
C4_18 C3_18 1_555 1_555
C5_18 H1_18 1_555 1_555
C6_18 C4_18 1_555 1_555
H2_18 C6_18 1_555 1_555
C7_18 C3_18 1_555 1_555
C8_18 C5_18 1_555 1_555
H3_18 C8_18 1_555 1_555
H4_18 O2_18 1_555 1_555
Zn4_5 O3_18 1_555 1_555
Zn3_10 O1_18 1_555 1_555
Zn2_7 O4_10 1_555 1_555
O6_18 Zn5_2 1_555 1_555
O7_18 Zn5_2 1_555 1_555
C5_18 C6_18 1_555 1_555
C7_18 C8_18 1_555 1_555
O3_19 C2_19 1_555 1_555
O9_4 C2_19 1_555 1_555
Zn4_10 O3_19 1_555 1_555
Zn2_4 O1_19 1_555 1_555
O1_19 C1_19 1_555 1_555
O2_19 Zn2_4 1_555 1_555
O4_11 C1_19 1_555 1_555
C1_19 C4_19 1_555 1_555
C3_19 O2_19 1_555 1_555
C4_19 C3_19 1_555 1_555
C5_19 H1_19 1_555 1_555
C6_19 C4_19 1_555 1_555
H2_19 C6_19 1_555 1_555
C7_19 C3_19 1_555 1_555
C8_19 C5_19 1_555 1_555
H4_19 O2_19 1_555 1_555
Zn3_6 O1_19 1_555 1_555
Zn2_5 O4_11 1_555 1_555
O6_19 Zn2_4 1_555 1_555
O7_19 Zn2_4 1_555 1_555
O8_11 Zn2_4 1_555 1_555
C5_19 C6_19 1_555 1_555
C7_19 C8_19 1_555 1_555
Zn2_8 O1_20 1_555 1_555
O1_20 C1_20 1_555 1_555
O2_20 Zn2_8 1_555 1_555
O8_3 C1_20 1_555 1_555
C1_20 C4_20 1_555 1_555
C3_20 O2_20 1_555 1_555
C4_20 C3_20 1_555 1_555
C5_20 H1_20 1_555 1_555
C6_20 C4_20 1_555 1_555
H2_20 C6_20 1_555 1_555
C7_20 C3_20 1_555 1_555
C8_20 C5_20 1_555 1_555
H4_20 O2_20 1_555 1_555
Zn3_4 O1_20 1_555 1_555
O6_20 Zn2_8 1_555 1_555
O7_20 Zn2_8 1_555 1_555
O8_12 Zn2_8 1_555 1_555
C5_20 C6_20 1_555 1_555
C7_20 C8_20 1_555 1_555
O3_20 C2_20 1_555 1_555
O9_11 C2_20 1_555 1_555
Zn4_8 O3_20 1_555 1_555
O3_21 C2_21 1_555 1_555
O9_5 C2_21 1_555 1_555
Zn4_11 O3_21 1_555 1_555
Zn2_5 O1_21 1_555 1_555
O1_21 C1_21 1_555 1_555
O2_21 Zn2_5 1_555 1_555
O4_12 C1_21 1_555 1_555
C1_21 C4_21 1_555 1_555
C3_21 O2_21 1_555 1_555
C4_21 C3_21 1_555 1_555
C5_21 H1_21 1_555 1_555
C6_21 C4_21 1_555 1_555
H2_21 C6_21 1_555 1_555
C7_21 C3_21 1_555 1_555
C8_21 C5_21 1_555 1_555
H4_21 O2_21 1_555 1_555
Zn3_9 O1_21 1_555 1_555
Zn2_6 O4_12 1_555 1_555
O6_21 Zn2_5 1_555 1_555
O7_21 Zn2_5 1_555 1_555
C5_21 C6_21 1_555 1_555
C7_21 C8_21 1_555 1_555
Zn2_7 O1_22 1_555 1_555
O1_22 C1_22 1_555 1_555
O2_22 Zn2_7 1_555 1_555
O8_2 C1_22 1_555 1_555
C1_22 C4_22 1_555 1_555
C3_22 O2_22 1_555 1_555
C4_22 C3_22 1_555 1_555
C5_22 H1_22 1_555 1_555
C6_22 C4_22 1_555 1_555
H2_22 C6_22 1_555 1_555
C7_22 C3_22 1_555 1_555
C8_22 C5_22 1_555 1_555
H4_22 O2_22 1_555 1_555
Zn3_7 O1_22 1_555 1_555
O6_22 Zn2_7 1_555 1_555
O7_22 Zn2_7 1_555 1_555
C5_22 C6_22 1_555 1_555
C7_22 C8_22 1_555 1_555
O3_22 C2_22 1_555 1_555
O9_10 C2_22 1_555 1_555
Zn4_4 O3_22 1_555 1_555
O3_23 C2_23 1_555 1_555
O9_9 C2_23 1_555 1_555
Zn4_12 O3_23 1_555 1_555
Zn2_6 O1_23 1_555 1_555
O1_23 C1_23 1_555 1_555
O2_23 Zn2_6 1_555 1_555
O8_11 C1_23 1_555 1_555
C1_23 C4_23 1_555 1_555
C3_23 O2_23 1_555 1_555
C4_23 C3_23 1_555 1_555
C5_23 H1_23 1_555 1_555
C6_23 C4_23 1_555 1_555
H2_23 C6_23 1_555 1_555
C7_23 C3_23 1_555 1_555
C8_23 C5_23 1_555 1_555
H4_23 O2_23 1_555 1_555
Zn3_5 O1_23 1_555 1_555
O6_23 Zn2_6 1_555 1_555
O7_23 Zn2_6 1_555 1_555
C5_23 C6_23 1_555 1_555
C7_23 C8_23 1_555 1_555
Zn5_3 O1_24 1_555 1_555
O1_24 C1_24 1_555 1_555
O2_24 Zn5_3 1_555 1_555
O3_24 C2_24 1_555 1_555
O8_12 C1_24 1_555 1_555
O9_8 C2_24 1_555 1_555
C1_24 C4_24 1_555 1_555
C2_24 C7_24 1_555 1_555
C3_24 O2_24 1_555 1_555
C4_24 C3_24 1_555 1_555
C5_24 H1_24 1_555 1_555
C6_24 C4_24 1_555 1_555
H2_24 C6_24 1_555 1_555
C7_24 C3_24 1_555 1_555
C8_24 C5_24 1_555 1_555
H3_24 C8_24 1_555 1_555
H4_24 O2_24 1_555 1_555
Zn4_7 O3_24 1_555 1_555
Zn3_11 O1_24 1_555 1_555
O6_24 Zn5_3 1_555 1_555
O7_24 Zn5_3 1_555 1_555
C5_24 C6_24 1_555 1_555
C7_24 C8_24 1_555 1_555
Zn3_3 O6_4 1_555 1_555
O6_4 C1_25 1_555 1_555
O2_25 Zn3_3 1_555 1_555
O7_2 C2_25 1_555 1_555
O4_13 C1_25 1_555 1_555
O5_13 C2_25 1_555 1_555
C1_25 C4_25 1_555 1_555
C2_25 C7_25 1_555 1_555
C3_25 O2_25 1_555 1_555
C4_25 C3_25 1_555 1_555
C5_25 H1_25 1_555 1_555
C6_25 C4_25 1_555 1_555
H2_25 C6_25 1_555 1_555
C7_25 C3_25 1_555 1_555
C8_25 C5_25 1_555 1_555
H3_25 C8_25 1_555 1_555
H4_25 O2_25 1_555 1_555
Zn4_2 O5_13 1_555 1_555
Zn4_4 O4_13 1_555 1_555
O8_13 Zn3_3 1_555 1_555
O9_13 Zn3_3 1_555 1_555
C5_25 C6_25 1_555 1_555
C7_25 C8_25 1_555 1_555
Zn3 O6_10 1_555 1_555
O6_10 C1_26 1_555 1_555
O2_26 Zn3 1_555 1_555
O7_3 C2_26 1_555 1_555
O4_14 C1_26 1_555 1_555
O5_14 C2_26 1_555 1_555
C1_26 C4_26 1_555 1_555
C2_26 C7_26 1_555 1_555
C3_26 O2_26 1_555 1_555
C4_26 C3_26 1_555 1_555
C5_26 H1_26 1_555 1_555
C6_26 C4_26 1_555 1_555
H2_26 C6_26 1_555 1_555
C7_26 C3_26 1_555 1_555
C8_26 C5_26 1_555 1_555
H3_26 C8_26 1_555 1_555
H4_26 O2_26 1_555 1_555
Zn4_3 O5_14 1_555 1_555
Zn4_8 O4_14 1_555 1_555
O8_14 Zn3 1_555 1_555
O9_14 Zn3 1_555 1_555
C5_26 C6_26 1_555 1_555
C7_26 C8_26 1_555 1_555
Zn3_2 O6_8 1_555 1_555
O6_8 C1_27 1_555 1_555
O2_27 Zn3_2 1_555 1_555
O7 C2_27 1_555 1_555
O4_15 C1_27 1_555 1_555
O5_15 C2_27 1_555 1_555
C1_27 C4_27 1_555 1_555
C2_27 C7_27 1_555 1_555
C3_27 O2_27 1_555 1_555
C4_27 C3_27 1_555 1_555
C5_27 H1_27 1_555 1_555
C6_27 C4_27 1_555 1_555
H2_27 C6_27 1_555 1_555
C7_27 C3_27 1_555 1_555
C8_27 C5_27 1_555 1_555
H3_27 C8_27 1_555 1_555
H4_27 O2_27 1_555 1_555
Zn4 O5_15 1_555 1_555
Zn4_6 O4_15 1_555 1_555
O8_15 Zn3_2 1_555 1_555
O9_15 Zn3_2 1_555 1_555
C5_27 C6_27 1_555 1_555
C7_27 C8_27 1_555 1_555
Zn4 O6_17 1_555 1_555
O6_17 C1_28 1_555 1_555
O2_28 Zn4 1_555 1_555
O7_12 C2_28 1_555 1_555
O4_16 C1_28 1_555 1_555
O9_15 C2_28 1_555 1_555
C1_28 C4_28 1_555 1_555
C2_28 C7_28 1_555 1_555
C3_28 O2_28 1_555 1_555
C4_28 C3_28 1_555 1_555
C5_28 H1_28 1_555 1_555
C6_28 C4_28 1_555 1_555
H2_28 C6_28 1_555 1_555
C7_28 C3_28 1_555 1_555
C8_28 C5_28 1_555 1_555
H3_28 C8_28 1_555 1_555
H4_28 O2_28 1_555 1_555
Zn3_12 O4_16 1_555 1_555
O8_16 Zn4 1_555 1_555
C5_28 C6_28 1_555 1_555
C7_28 C8_28 1_555 1_555
O7_9 C2_29 1_555 1_555
O5_16 C2_29 1_555 1_555
Zn4_7 O5_16 1_555 1_555
Zn3_8 O6 1_555 1_555
O6 C1_29 1_555 1_555
O2_29 Zn3_8 1_555 1_555
O8_16 C1_29 1_555 1_555
C1_29 C4_29 1_555 1_555
C3_29 O2_29 1_555 1_555
C4_29 C3_29 1_555 1_555
C5_29 H1_29 1_555 1_555
C6_29 C4_29 1_555 1_555
H2_29 C6_29 1_555 1_555
C7_29 C3_29 1_555 1_555
C8_29 C5_29 1_555 1_555
H4_29 O2_29 1_555 1_555
O8_17 Zn3_8 1_555 1_555
O9_16 Zn3_8 1_555 1_555
C5_29 C6_29 1_555 1_555
C7_29 C8_29 1_555 1_555
O7_11 C2_30 1_555 1_555
O5_17 C2_30 1_555 1_555
Zn4_9 O5_17 1_555 1_555
Zn3_7 O6_2 1_555 1_555
O6_2 C1_30 1_555 1_555
O2_30 Zn3_7 1_555 1_555
O4_17 C1_30 1_555 1_555
C1_30 C4_30 1_555 1_555
C3_30 O2_30 1_555 1_555
C4_30 C3_30 1_555 1_555
C5_30 H1_30 1_555 1_555
C6_30 C4_30 1_555 1_555
H2_30 C6_30 1_555 1_555
C7_30 C3_30 1_555 1_555
C8_30 C5_30 1_555 1_555
H4_30 O2_30 1_555 1_555
Zn4_2 O4_17 1_555 1_555
O8_18 Zn3_7 1_555 1_555
O9_17 Zn3_7 1_555 1_555
C5_30 C6_30 1_555 1_555
C7_30 C8_30 1_555 1_555
Zn3_9 O6_23 1_555 1_555
O6_23 C1_31 1_555 1_555
O2_31 Zn3_9 1_555 1_555
O7_4 C2_31 1_555 1_555
O4_18 C1_31 1_555 1_555
O5_18 C2_31 1_555 1_555
C1_31 C4_31 1_555 1_555
C2_31 C7_31 1_555 1_555
C3_31 O2_31 1_555 1_555
C4_31 C3_31 1_555 1_555
C5_31 H1_31 1_555 1_555
C6_31 C4_31 1_555 1_555
H2_31 C6_31 1_555 1_555
C7_31 C3_31 1_555 1_555
C8_31 C5_31 1_555 1_555
H3_31 C8_31 1_555 1_555
H4_31 O2_31 1_555 1_555
Zn4_4 O5_18 1_555 1_555
Zn3_5 O4_18 1_555 1_555
O8_19 Zn3_9 1_555 1_555
O9_18 Zn3_9 1_555 1_555
C5_31 C6_31 1_555 1_555
C7_31 C8_31 1_555 1_555
Zn4_3 O6_24 1_555 1_555
O6_24 C1_32 1_555 1_555
O2_32 Zn4_3 1_555 1_555
O7_6 C2_32 1_555 1_555
O4_19 C1_32 1_555 1_555
O9_14 C2_32 1_555 1_555
C1_32 C4_32 1_555 1_555
C2_32 C7_32 1_555 1_555
C3_32 O2_32 1_555 1_555
C4_32 C3_32 1_555 1_555
C5_32 H1_32 1_555 1_555
C6_32 C4_32 1_555 1_555
H2_32 C6_32 1_555 1_555
C7_32 C3_32 1_555 1_555
C8_32 C5_32 1_555 1_555
H3_32 C8_32 1_555 1_555
H4_32 O2_32 1_555 1_555
Zn3_11 O4_19 1_555 1_555
O8_20 Zn4_3 1_555 1_555
C5_32 C6_32 1_555 1_555
C7_32 C8_32 1_555 1_555
Zn3_5 O6_19 1_555 1_555
O6_19 C1_33 1_555 1_555
O2_33 Zn3_5 1_555 1_555
O7_10 C2_33 1_555 1_555
O4_20 C1_33 1_555 1_555
O5_19 C2_33 1_555 1_555
C1_33 C4_33 1_555 1_555
C2_33 C7_33 1_555 1_555
C3_33 O2_33 1_555 1_555
C4_33 C3_33 1_555 1_555
C5_33 H1_33 1_555 1_555
C6_33 C4_33 1_555 1_555
H2_33 C6_33 1_555 1_555
C7_33 C3_33 1_555 1_555
C8_33 C5_33 1_555 1_555
H3_33 C8_33 1_555 1_555
H4_33 O2_33 1_555 1_555
Zn4_8 O5_19 1_555 1_555
Zn3_6 O4_20 1_555 1_555
O9_19 Zn3_5 1_555 1_555
C5_33 C6_33 1_555 1_555
C7_33 C8_33 1_555 1_555
Zn4_2 O6_18 1_555 1_555
O6_18 C1_34 1_555 1_555
O2_34 Zn4_2 1_555 1_555
O7_5 C2_34 1_555 1_555
O4_21 C1_34 1_555 1_555
O9_13 C2_34 1_555 1_555
C1_34 C4_34 1_555 1_555
C2_34 C7_34 1_555 1_555
C3_34 O2_34 1_555 1_555
C4_34 C3_34 1_555 1_555
C5_34 H1_34 1_555 1_555
C6_34 C4_34 1_555 1_555
H2_34 C6_34 1_555 1_555
C7_34 C3_34 1_555 1_555
C8_34 C5_34 1_555 1_555
H3_34 C8_34 1_555 1_555
H4_34 O2_34 1_555 1_555
Zn3_10 O4_21 1_555 1_555
C5_34 C6_34 1_555 1_555
C7_34 C8_34 1_555 1_555
Zn3_6 O6_21 1_555 1_555
O6_21 C1_35 1_555 1_555
O2_35 Zn3_6 1_555 1_555
O7_8 C2_35 1_555 1_555
O8_19 C1_35 1_555 1_555
O5_20 C2_35 1_555 1_555
C1_35 C4_35 1_555 1_555
C2_35 C7_35 1_555 1_555
C3_35 O2_35 1_555 1_555
C4_35 C3_35 1_555 1_555
C5_35 H1_35 1_555 1_555
C6_35 C4_35 1_555 1_555
H2_35 C6_35 1_555 1_555
C7_35 C3_35 1_555 1_555
C8_35 C5_35 1_555 1_555
H3_35 C8_35 1_555 1_555
H4_35 O2_35 1_555 1_555
Zn4_6 O5_20 1_555 1_555
O9_20 Zn3_6 1_555 1_555
C5_35 C6_35 1_555 1_555
C7_35 C8_35 1_555 1_555
O7_7 C2_36 1_555 1_555
O5_21 C2_36 1_555 1_555
Zn4_5 O5_21 1_555 1_555
Zn3_4 O6_3 1_555 1_555
O6_3 C1_36 1_555 1_555
O2_36 Zn3_4 1_555 1_555
O8_20 C1_36 1_555 1_555
C1_36 C4_36 1_555 1_555
C3_36 O2_36 1_555 1_555
C4_36 C3_36 1_555 1_555
C5_36 H1_36 1_555 1_555
C6_36 C4_36 1_555 1_555
H2_36 C6_36 1_555 1_555
C7_36 C3_36 1_555 1_555
C8_36 C5_36 1_555 1_555
H4_36 O2_36 1_555 1_555
O8_21 Zn3_4 1_555 1_555
O9_21 Zn3_4 1_555 1_555
C5_36 C6_36 1_555 1_555
C7_36 C8_36 1_555 1_555
Zn3_12 O6_16 1_555 1_555
O6_16 C1_37 1_555 1_555
O2_37 Zn3_12 1_555 1_555
O8_17 C1_37 1_555 1_555
C1_37 C4_37 1_555 1_555
C3_37 O2_37 1_555 1_555
C4_37 C3_37 1_555 1_555
C5_37 H1_37 1_555 1_555
C6_37 C4_37 1_555 1_555
H2_37 C6_37 1_555 1_555
C7_37 C3_37 1_555 1_555
C8_37 C5_37 1_555 1_555
H4_37 O2_37 1_555 1_555
O9_22 Zn3_12 1_555 1_555
C5_37 C6_37 1_555 1_555
C7_37 C8_37 1_555 1_555
O7_14 C2_37 1_555 1_555
O5_22 C2_37 1_555 1_555
Zn4_11 O5_22 1_555 1_555
Zn3_10 O6_22 1_555 1_555
O6_22 C1_38 1_555 1_555
O2_38 Zn3_10 1_555 1_555
O8_18 C1_38 1_555 1_555
C1_38 C4_38 1_555 1_555
C3_38 O2_38 1_555 1_555
C4_38 C3_38 1_555 1_555
C5_38 H1_38 1_555 1_555
C6_38 C4_38 1_555 1_555
H2_38 C6_38 1_555 1_555
C7_38 C3_38 1_555 1_555
C8_38 C5_38 1_555 1_555
H4_38 O2_38 1_555 1_555
O9_23 Zn3_10 1_555 1_555
C5_38 C6_38 1_555 1_555
C7_38 C8_38 1_555 1_555
O7_15 C2_38 1_555 1_555
O5_23 C2_38 1_555 1_555
Zn4_12 O5_23 1_555 1_555
Zn3_11 O6_20 1_555 1_555
O6_20 C1_39 1_555 1_555
O2_39 Zn3_11 1_555 1_555
O8_21 C1_39 1_555 1_555
C1_39 C4_39 1_555 1_555
C3_39 O2_39 1_555 1_555
C4_39 C3_39 1_555 1_555
C5_39 H1_39 1_555 1_555
C6_39 C4_39 1_555 1_555
H2_39 C6_39 1_555 1_555
C7_39 C3_39 1_555 1_555
C8_39 C5_39 1_555 1_555
H4_39 O2_39 1_555 1_555
O9_24 Zn3_11 1_555 1_555
C5_39 C6_39 1_555 1_555
C7_39 C8_39 1_555 1_555
O7_13 C2_39 1_555 1_555
O5_24 C2_39 1_555 1_555
Zn4_10 O5_24 1_555 1_555
O7_24 C2_40 1_555 1_555
O9_24 C2_40 1_555 1_555
Zn4_10 O6_5 1_555 1_555
O6_5 C1_40 1_555 1_555
O2_40 Zn4_10 1_555 1_555
O8_13 C1_40 1_555 1_555
C1_40 C4_40 1_555 1_555
C3_40 O2_40 1_555 1_555
C4_40 C3_40 1_555 1_555
C5_40 H1_40 1_555 1_555
C6_40 C4_40 1_555 1_555
H2_40 C6_40 1_555 1_555
C7_40 C3_40 1_555 1_555
C8_40 C5_40 1_555 1_555
H4_40 O2_40 1_555 1_555
O8_22 Zn4_10 1_555 1_555
C5_40 C6_40 1_555 1_555
C7_40 C8_40 1_555 1_555
Zn4_4 O6_13 1_555 1_555
O6_13 C1_41 1_555 1_555
O2_41 Zn4_4 1_555 1_555
O7_21 C2_41 1_555 1_555
O8_22 C1_41 1_555 1_555
O9_18 C2_41 1_555 1_555
C1_41 C4_41 1_555 1_555
C2_41 C7_41 1_555 1_555
C3_41 O2_41 1_555 1_555
C4_41 C3_41 1_555 1_555
C5_41 H1_41 1_555 1_555
C6_41 C4_41 1_555 1_555
H2_41 C6_41 1_555 1_555
C7_41 C3_41 1_555 1_555
C8_41 C5_41 1_555 1_555
H3_41 C8_41 1_555 1_555
H4_41 O2_41 1_555 1_555
C5_41 C6_41 1_555 1_555
C7_41 C8_41 1_555 1_555
Zn4_8 O6_14 1_555 1_555
O6_14 C1_42 1_555 1_555
O2_42 Zn4_8 1_555 1_555
O7_23 C2_42 1_555 1_555
O4_22 C1_42 1_555 1_555
O9_19 C2_42 1_555 1_555
C1_42 C4_42 1_555 1_555
C2_42 C7_42 1_555 1_555
C3_42 O2_42 1_555 1_555
C4_42 C3_42 1_555 1_555
C5_42 H1_42 1_555 1_555
C6_42 C4_42 1_555 1_555
H2_42 C6_42 1_555 1_555
C7_42 C3_42 1_555 1_555
C8_42 C5_42 1_555 1_555
H3_42 C8_42 1_555 1_555
H4_42 O2_42 1_555 1_555
Zn4_11 O4_22 1_555 1_555
C5_42 C6_42 1_555 1_555
C7_42 C8_42 1_555 1_555
Zn4_7 O6_11 1_555 1_555
O6_11 C1_43 1_555 1_555
O2_43 Zn4_7 1_555 1_555
O4_23 C1_43 1_555 1_555
C1_43 C4_43 1_555 1_555
C3_43 O2_43 1_555 1_555
C4_43 C3_43 1_555 1_555
C5_43 H1_43 1_555 1_555
C6_43 C4_43 1_555 1_555
H2_43 C6_43 1_555 1_555
C7_43 C3_43 1_555 1_555
C8_43 C5_43 1_555 1_555
H4_43 O2_43 1_555 1_555
Zn4_9 O4_23 1_555 1_555
O8_23 Zn4_7 1_555 1_555
C5_43 C6_43 1_555 1_555
C7_43 C8_43 1_555 1_555
O7_16 C2_43 1_555 1_555
O9_16 C2_43 1_555 1_555
O7_18 C2_44 1_555 1_555
O9_23 C2_44 1_555 1_555
Zn4_12 O6_12 1_555 1_555
O6_12 C1_44 1_555 1_555
O2_44 Zn4_12 1_555 1_555
O8_15 C1_44 1_555 1_555
C1_44 C4_44 1_555 1_555
C3_44 O2_44 1_555 1_555
C4_44 C3_44 1_555 1_555
C5_44 H1_44 1_555 1_555
C6_44 C4_44 1_555 1_555
H2_44 C6_44 1_555 1_555
C7_44 C3_44 1_555 1_555
C8_44 C5_44 1_555 1_555
H4_44 O2_44 1_555 1_555
O8_24 Zn4_12 1_555 1_555
C5_44 C6_44 1_555 1_555
C7_44 C8_44 1_555 1_555
Zn4_9 O6_7 1_555 1_555
O6_7 C1_45 1_555 1_555
O2_45 Zn4_9 1_555 1_555
O4_24 C1_45 1_555 1_555
C1_45 C4_45 1_555 1_555
C3_45 O2_45 1_555 1_555
C4_45 C3_45 1_555 1_555
C5_45 H1_45 1_555 1_555
C6_45 C4_45 1_555 1_555
H2_45 C6_45 1_555 1_555
C7_45 C3_45 1_555 1_555
C8_45 C5_45 1_555 1_555
H4_45 O2_45 1_555 1_555
Zn4_5 O4_24 1_555 1_555
C5_45 C6_45 1_555 1_555
C7_45 C8_45 1_555 1_555
O7_22 C2_45 1_555 1_555
O9_17 C2_45 1_555 1_555
O7_17 C2_46 1_555 1_555
O9_22 C2_46 1_555 1_555
Zn4_11 O6_6 1_555 1_555
O6_6 C1_46 1_555 1_555
O2_46 Zn4_11 1_555 1_555
O8_14 C1_46 1_555 1_555
C1_46 C4_46 1_555 1_555
C3_46 O2_46 1_555 1_555
C4_46 C3_46 1_555 1_555
C5_46 H1_46 1_555 1_555
C6_46 C4_46 1_555 1_555
H2_46 C6_46 1_555 1_555
C7_46 C3_46 1_555 1_555
C8_46 C5_46 1_555 1_555
H4_46 O2_46 1_555 1_555
C5_46 C6_46 1_555 1_555
C7_46 C8_46 1_555 1_555
Zn4_5 O6_9 1_555 1_555
O6_9 C1_47 1_555 1_555
O2_47 Zn4_5 1_555 1_555
O8_23 C1_47 1_555 1_555
C1_47 C4_47 1_555 1_555
C3_47 O2_47 1_555 1_555
C4_47 C3_47 1_555 1_555
C5_47 H1_47 1_555 1_555
C6_47 C4_47 1_555 1_555
H2_47 C6_47 1_555 1_555
C7_47 C3_47 1_555 1_555
C8_47 C5_47 1_555 1_555
H4_47 O2_47 1_555 1_555
C5_47 C6_47 1_555 1_555
C7_47 C8_47 1_555 1_555
O7_20 C2_47 1_555 1_555
O9_21 C2_47 1_555 1_555
Zn4_6 O6_15 1_555 1_555
O6_15 C1_48 1_555 1_555
O2_48 Zn4_6 1_555 1_555
O7_19 C2_48 1_555 1_555
O8_24 C1_48 1_555 1_555
O9_20 C2_48 1_555 1_555
C1_48 C4_48 1_555 1_555
C2_48 C7_48 1_555 1_555
C3_48 O2_48 1_555 1_555
C4_48 C3_48 1_555 1_555
C5_48 H1_48 1_555 1_555
C6_48 C4_48 1_555 1_555
H2_48 C6_48 1_555 1_555
C7_48 C3_48 1_555 1_555
C8_48 C5_48 1_555 1_555
H3_48 C8_48 1_555 1_555
H4_48 O2_48 1_555 1_555
C5_48 C6_48 1_555 1_555
C7_48 C8_48 1_555 1_555

#END
