
###############################################################################
#
# This file contains modified crystal structure data generated from the
# MOF subset of the Cambridge Structural Database (CSD) v543 
# hosted by the Cambridge Crystallographic Data Centre (CCDC).
#
# This work is licensed under the Creative Commons
# Attribution-NonCommercial-ShareAlike 4.0 International License.
# To view a copy of this license, visit
# http://creativecommons.org/licenses/by-nc-sa/4.0/
# or send a letter to
# Creative Commons, PO Box 1866, Mountain View, CA 94042, USA.
#
# CIF created using the CSD Python API on 29 September 2022
# The structure has been converted into the P1 space group
# The structure has a 3D framework
# The original CSD entry NOPXOH is in the cubic crystal system
# The framework has been calculated to contain at least 10.0% void space
# The void calculation uses a probe of radius 1.32A, grid spacing 0.4
#
###############################################################################

data_NOPXOH
_chemical_formula_moiety         '(C384 H192 Mn48 O240)n'
_symmetry_cell_setting           triclinic
_symmetry_space_group_name_H-M   'P 1'
_symmetry_Int_Tables_number      1
_space_group_name_Hall           'P 1'
loop_
_symmetry_equiv_pos_site_id
_symmetry_equiv_pos_as_xyz
1 x,y,z
_cell_length_a                   22.680(2)
_cell_length_b                   22.680(2)
_cell_length_c                   22.680(2)
_cell_angle_alpha                90
_cell_angle_beta                 90
_cell_angle_gamma                90
_cell_volume                     11666.2
loop_
_atom_site_label
_atom_site_type_symbol
_atom_site_fract_x
_atom_site_fract_y
_atom_site_fract_z
Mn1 Mn 0.24167(3) 0.68656(2) 0.62012(2)
C1 C 0.36281(17) 0.72988(16) 0.56189(17)
C2 C 0.36105(17) 0.72691(17) 0.67484(17)
C3 C 0.38312(17) 0.74911(17) 0.61668(17)
C4 C 0.38711(17) 0.75262(18) 0.50959(17)
C5 C 0.36553(17) 0.73397(17) 0.45053(18)
C6 C 0.43140(19) 0.79544(19) 0.51323(18)
H1 H 0.4479 0.8110 0.4780
C7 C 0.42756(19) 0.7919(2) 0.61781(18)
H2 H 0.4418 0.8053 0.6549
C8 C 0.4515(2) 0.8153(2) 0.56695(19)
H3 H 0.4813 0.8447 0.5690
O1 O 0.31861(12) 0.68955(12) 0.67642(12)
O2 O 0.38579(12) 0.74577(13) 0.71979(12)
O3 O 0.38781(12) 0.75705(12) 0.40588(12)
O4 O 0.31867(12) 0.68864(12) 0.55778(12)
O5 O 0.32427(12) 0.69473(12) 0.44908(12)
H4 H 0.312(2) 0.681(2) 0.520(2)
Mn2 Mn 0.25833(3) 0.68656(2) 0.37988(2)
Mn3 Mn 0.37988(2) 0.74167(3) 0.81344(2)
Mn4 Mn 0.37988(2) 0.75833(3) 0.31344(2)
Mn5 Mn 0.31344(2) 0.62012(2) 0.74167(3)
O6 O 0.17642(12) 0.68139(12) 0.68955(12)
O7 O 0.24577(13) 0.78021(12) 0.61421(12)
O8 O 0.24295(12) 0.59412(12) 0.61219(12)
O9 O 0.17573(12) 0.69473(12) 0.55092(12)
Mn1_2 Mn 0.62012(2) 0.24167(3) 0.68656(2)
C1_2 C 0.56189(17) 0.36281(17) 0.72988(16)
C2_2 C 0.67484(17) 0.36105(17) 0.72691(17)
C3_2 C 0.61668(17) 0.38312(17) 0.74911(17)
C4_2 C 0.50959(17) 0.38711(17) 0.75262(18)
C5_2 C 0.45053(18) 0.36553(17) 0.73397(17)
C6_2 C 0.51323(18) 0.43140(19) 0.79544(19)
H1_2 H 0.4780 0.4479 0.8110
C7_2 C 0.61781(18) 0.42756(19) 0.7919(2)
H2_2 H 0.6549 0.4418 0.8053
C8_2 C 0.56695(19) 0.4515(2) 0.8153(2)
H3_2 H 0.5690 0.4813 0.8447
O1_2 O 0.67642(12) 0.31861(12) 0.68955(12)
O2_2 O 0.71979(12) 0.38579(12) 0.74577(13)
O3_2 O 0.40588(12) 0.38781(12) 0.75705(12)
O4_2 O 0.55778(12) 0.31867(12) 0.68864(12)
O5_2 O 0.44908(12) 0.32427(12) 0.69473(12)
H4_2 H 0.520(2) 0.312(2) 0.681(2)
Mn2_2 Mn 0.37988(2) 0.25833(3) 0.68656(2)
Mn3_2 Mn 0.81344(2) 0.37988(2) 0.74167(3)
Mn4_2 Mn 0.31344(2) 0.37988(2) 0.75833(3)
Mn5_2 Mn 0.74167(3) 0.31344(2) 0.62012(2)
O6_2 O 0.68955(12) 0.17642(12) 0.68139(12)
O7_2 O 0.61421(12) 0.24577(13) 0.78021(12)
O8_2 O 0.61219(12) 0.24295(12) 0.59412(12)
O9_2 O 0.55092(12) 0.17573(12) 0.69473(12)
Mn1_3 Mn 0.68656(2) 0.62012(2) 0.24167(3)
C1_3 C 0.72988(16) 0.56189(17) 0.36281(17)
C2_3 C 0.72691(17) 0.67484(17) 0.36105(17)
C3_3 C 0.74911(17) 0.61668(17) 0.38312(17)
C4_3 C 0.75262(18) 0.50959(17) 0.38711(17)
C5_3 C 0.73397(17) 0.45053(18) 0.36553(17)
C6_3 C 0.79544(19) 0.51323(18) 0.43140(19)
H1_3 H 0.8110 0.4780 0.4479
C7_3 C 0.7919(2) 0.61781(18) 0.42756(19)
H2_3 H 0.8053 0.6549 0.4418
C8_3 C 0.8153(2) 0.56695(19) 0.4515(2)
H3_3 H 0.8447 0.5690 0.4813
O1_3 O 0.68955(12) 0.67642(12) 0.31861(12)
O2_3 O 0.74577(13) 0.71979(12) 0.38579(12)
O3_3 O 0.75705(12) 0.40588(12) 0.38781(12)
O4_3 O 0.68864(12) 0.55778(12) 0.31867(12)
O5_3 O 0.69473(12) 0.44908(12) 0.32427(12)
H4_3 H 0.681(2) 0.520(2) 0.312(2)
Mn2_3 Mn 0.68656(2) 0.37988(2) 0.25833(3)
Mn3_3 Mn 0.74167(3) 0.81344(2) 0.37988(2)
Mn4_3 Mn 0.75833(3) 0.31344(2) 0.37988(2)
Mn5_3 Mn 0.62012(2) 0.74167(3) 0.31344(2)
O6_3 O 0.68139(12) 0.68955(12) 0.17642(12)
O7_3 O 0.78021(12) 0.61421(12) 0.24577(13)
O8_3 O 0.59412(12) 0.61219(12) 0.24295(12)
O9_3 O 0.69473(12) 0.55092(12) 0.17573(12)
C5_4 C 0.26603(17) 0.04947(18) 0.36553(17)
H1_4 H 0.1890 0.0220 0.4479
O3_4 O 0.24295(12) 0.09412(12) 0.38781(12)
O5_4 O 0.30527(12) 0.05092(12) 0.32427(12)
Mn2_4 Mn 0.31344(2) 0.12012(2) 0.25833(3)
Mn4_4 Mn 0.24167(3) 0.18656(2) 0.37988(2)
Mn1_4 Mn 0.31344(2) 0.87988(2) 0.24167(3)
C1_4 C 0.27012(16) 0.93811(17) 0.36281(17)
C2_4 C 0.27309(17) 0.82516(17) 0.36105(17)
C3_4 C 0.25089(17) 0.88332(17) 0.38312(17)
C4_4 C 0.24738(18) 0.99041(17) 0.38711(17)
C6_4 C 0.20456(19) 0.98677(18) 0.43140(19)
C7_4 C 0.2081(2) 0.88219(18) 0.42756(19)
H2_4 H 0.1947 0.8451 0.4418
C8_4 C 0.1847(2) 0.93305(19) 0.4515(2)
H3_4 H 0.1553 0.9310 0.4813
O1_4 O 0.31045(12) 0.82358(12) 0.31861(12)
O2_4 O 0.25423(13) 0.78021(12) 0.38579(12)
O4_4 O 0.31136(12) 0.94222(12) 0.31867(12)
H4_4 H 0.319(2) 0.980(2) 0.312(2)
O6_4 O 0.31861(12) 0.81045(12) 0.17642(12)
O7_4 O 0.21979(12) 0.88579(12) 0.24577(13)
O8_4 O 0.40588(12) 0.88781(12) 0.24295(12)
O9_4 O 0.30527(12) 0.94908(12) 0.17573(12)
Mn1_5 Mn 0.62012(2) 0.75833(3) 0.81344(2)
C1_5 C 0.56189(17) 0.63719(17) 0.77012(16)
C2_5 C 0.67484(17) 0.63895(17) 0.77309(17)
C3_5 C 0.61668(17) 0.61688(17) 0.75089(17)
C4_5 C 0.50959(17) 0.61289(17) 0.74738(18)
C5_5 C 0.45053(18) 0.63447(17) 0.76603(17)
C6_5 C 0.51323(18) 0.56860(19) 0.70456(19)
H1_5 H 0.4780 0.5521 0.6890
C7_5 C 0.61781(18) 0.57244(19) 0.7081(2)
H2_5 H 0.6549 0.5582 0.6947
C8_5 C 0.56695(19) 0.5485(2) 0.6847(2)
H3_5 H 0.5690 0.5187 0.6553
O1_5 O 0.67642(12) 0.68139(12) 0.81045(12)
O2_5 O 0.71979(12) 0.61421(12) 0.75423(13)
O3_5 O 0.40588(12) 0.61219(12) 0.74295(12)
O4_5 O 0.55778(12) 0.68133(12) 0.81136(12)
O5_5 O 0.44908(12) 0.67573(12) 0.80527(12)
H4_5 H 0.520(2) 0.688(2) 0.819(2)
Mn3_4 Mn 0.81344(2) 0.62012(2) 0.75833(3)
Mn5_4 Mn 0.74167(3) 0.68656(2) 0.87988(2)
O6_5 O 0.68955(12) 0.82358(12) 0.81861(12)
O7_5 O 0.61421(12) 0.75423(13) 0.71979(12)
O8_5 O 0.61219(12) 0.75705(12) 0.90588(12)
O9_5 O 0.55092(12) 0.82427(12) 0.80527(12)
C1_6 C 0.77012(16) 0.56189(17) 0.63719(17)
C2_6 C 0.77309(17) 0.67484(17) 0.63895(17)
C3_6 C 0.75089(17) 0.61668(17) 0.61688(17)
C4_6 C 0.74738(18) 0.50959(17) 0.61289(17)
C5_6 C 0.76603(17) 0.45053(18) 0.63447(17)
C6_6 C 0.70456(19) 0.51323(18) 0.56860(19)
H1_6 H 0.6890 0.4780 0.5521
C7_6 C 0.7081(2) 0.61781(18) 0.57244(19)
H2_6 H 0.6947 0.6549 0.5582
C8_6 C 0.6847(2) 0.56695(19) 0.5485(2)
H3_6 H 0.6553 0.5690 0.5187
O1_6 O 0.81045(12) 0.67642(12) 0.68139(12)
O2_6 O 0.75423(13) 0.71979(12) 0.61421(12)
O3_6 O 0.74295(12) 0.40588(12) 0.61219(12)
O4_6 O 0.81136(12) 0.55778(12) 0.68133(12)
O5_6 O 0.80527(12) 0.44908(12) 0.67573(12)
H4_6 H 0.819(2) 0.520(2) 0.688(2)
Mn3_5 Mn 0.75833(3) 0.81344(2) 0.62012(2)
Mn5_5 Mn 0.87988(2) 0.74167(3) 0.68656(2)
O6_6 O 0.81861(12) 0.68955(12) 0.82358(12)
O8_6 O 0.90588(12) 0.61219(12) 0.75705(12)
O9_6 O 0.80527(12) 0.55092(12) 0.82427(12)
C1_7 C 0.43811(17) 0.13719(17) 0.72988(16)
C2_7 C 0.32516(17) 0.13895(17) 0.72691(17)
C3_7 C 0.38332(17) 0.11688(17) 0.74911(17)
C4_7 C 0.49041(17) 0.11289(17) 0.75262(18)
C5_7 C 0.54947(18) 0.13447(17) 0.73397(17)
C6_7 C 0.48677(18) 0.06860(19) 0.79544(19)
H1_7 H 0.5220 0.0521 0.8110
C7_7 C 0.38219(18) 0.07244(19) 0.7919(2)
H2_7 H 0.3451 0.0582 0.8053
C8_7 C 0.43305(19) 0.0485(2) 0.8153(2)
H3_7 H 0.4310 0.0187 0.8447
O1_7 O 0.32358(12) 0.18139(12) 0.68955(12)
O2_7 O 0.28021(12) 0.11421(12) 0.74577(13)
O3_7 O 0.59412(12) 0.11219(12) 0.75705(12)
O4_7 O 0.44222(12) 0.18133(12) 0.68864(12)
H4_7 H 0.480(2) 0.188(2) 0.681(2)
Mn3_6 Mn 0.18656(2) 0.12012(2) 0.74167(3)
Mn4_5 Mn 0.68656(2) 0.12012(2) 0.75833(3)
Mn5_6 Mn 0.25833(3) 0.18656(2) 0.62012(2)
O6_7 O 0.31045(12) 0.32358(12) 0.68139(12)
O7_6 O 0.38579(12) 0.25423(13) 0.78021(12)
O8_7 O 0.38781(12) 0.25705(12) 0.59412(12)
C5_8 C 0.04947(18) 0.36553(17) 0.26603(17)
H1_8 H 0.0220 0.4479 0.1890
O3_8 O 0.09412(12) 0.38781(12) 0.24295(12)
O5_7 O 0.05092(12) 0.32427(12) 0.30527(12)
Mn2_5 Mn 0.12012(2) 0.25833(3) 0.31344(2)
Mn4_6 Mn 0.18656(2) 0.37988(2) 0.24167(3)
Mn1_6 Mn 0.87988(2) 0.24167(3) 0.31344(2)
C1_8 C 0.93811(17) 0.36281(17) 0.27012(16)
C2_8 C 0.82516(17) 0.36105(17) 0.27309(17)
C3_8 C 0.88332(17) 0.38312(17) 0.25089(17)
C4_8 C 0.99041(17) 0.38711(17) 0.24738(18)
C6_8 C 0.98677(18) 0.43140(19) 0.20456(19)
C7_8 C 0.88219(18) 0.42756(19) 0.2081(2)
H2_8 H 0.8451 0.4418 0.1947
C8_8 C 0.93305(19) 0.4515(2) 0.1847(2)
H3_8 H 0.9310 0.4813 0.1553
O1_8 O 0.82358(12) 0.31861(12) 0.31045(12)
O2_8 O 0.78021(12) 0.38579(12) 0.25423(13)
O4_8 O 0.94222(12) 0.31867(12) 0.31136(12)
H4_8 H 0.980(2) 0.312(2) 0.319(2)
O6_8 O 0.81045(12) 0.17642(12) 0.31861(12)
O7_7 O 0.88579(12) 0.24577(13) 0.21979(12)
O8_8 O 0.88781(12) 0.24295(12) 0.40588(12)
O9_7 O 0.94908(12) 0.17573(12) 0.30527(12)
C1_9 C 0.72988(16) 0.43811(17) 0.13719(17)
C2_9 C 0.72691(17) 0.32516(17) 0.13895(17)
C3_9 C 0.74911(17) 0.38332(17) 0.11688(17)
C4_9 C 0.75262(18) 0.49041(17) 0.11289(17)
C5_9 C 0.73397(17) 0.54947(18) 0.13447(17)
C6_9 C 0.79544(19) 0.48677(18) 0.06860(19)
H1_9 H 0.8110 0.5220 0.0521
C7_9 C 0.7919(2) 0.38219(18) 0.07244(19)
H2_9 H 0.8053 0.3451 0.0582
C8_9 C 0.8153(2) 0.43305(19) 0.0485(2)
H3_9 H 0.8447 0.4310 0.0187
O1_9 O 0.68955(12) 0.32358(12) 0.18139(12)
O2_9 O 0.74577(13) 0.28021(12) 0.11421(12)
O3_9 O 0.75705(12) 0.59412(12) 0.11219(12)
O4_9 O 0.68864(12) 0.44222(12) 0.18133(12)
H4_9 H 0.681(2) 0.480(2) 0.188(2)
Mn3_7 Mn 0.74167(3) 0.18656(2) 0.12012(2)
Mn4_7 Mn 0.75833(3) 0.68656(2) 0.12012(2)
Mn5_7 Mn 0.62012(2) 0.25833(3) 0.18656(2)
O6_9 O 0.68139(12) 0.31045(12) 0.32358(12)
O8_9 O 0.59412(12) 0.38781(12) 0.25705(12)
C1_10 C 0.63719(17) 0.77012(16) 0.56189(17)
C2_10 C 0.63895(17) 0.77309(17) 0.67484(17)
C3_10 C 0.61688(17) 0.75089(17) 0.61668(17)
C4_10 C 0.61289(17) 0.74738(18) 0.50959(17)
C5_10 C 0.63447(17) 0.76603(17) 0.45053(18)
C6_10 C 0.56860(19) 0.70456(19) 0.51323(18)
H1_10 H 0.5521 0.6890 0.4780
C7_10 C 0.57244(19) 0.7081(2) 0.61781(18)
H2_10 H 0.5582 0.6947 0.6549
C8_10 C 0.5485(2) 0.6847(2) 0.56695(19)
H3_10 H 0.5187 0.6553 0.5690
O1_10 O 0.68139(12) 0.81045(12) 0.67642(12)
O3_10 O 0.61219(12) 0.74295(12) 0.40588(12)
O4_10 O 0.68133(12) 0.81136(12) 0.55778(12)
O5_8 O 0.67573(12) 0.80527(12) 0.44908(12)
H4_10 H 0.688(2) 0.819(2) 0.520(2)
Mn5_8 Mn 0.68656(2) 0.87988(2) 0.74167(3)
O6_10 O 0.82358(12) 0.81861(12) 0.68955(12)
O8_10 O 0.75705(12) 0.90588(12) 0.61219(12)
O9_8 O 0.82427(12) 0.80527(12) 0.55092(12)
C5_11 C 0.36553(17) 0.26603(17) 0.04947(18)
H1_11 H 0.4479 0.1890 0.0220
O3_11 O 0.38781(12) 0.24295(12) 0.09412(12)
O5_9 O 0.32427(12) 0.30527(12) 0.05092(12)
Mn2_6 Mn 0.25833(3) 0.31344(2) 0.12012(2)
Mn4_8 Mn 0.37988(2) 0.24167(3) 0.18656(2)
Mn1_7 Mn 0.24167(3) 0.31344(2) 0.87988(2)
C1_11 C 0.36281(17) 0.27012(16) 0.93811(17)
C2_11 C 0.36105(17) 0.27309(17) 0.82516(17)
C3_11 C 0.38312(17) 0.25089(17) 0.88332(17)
C4_11 C 0.38711(17) 0.24738(18) 0.99041(17)
C6_11 C 0.43140(19) 0.20456(19) 0.98677(18)
C7_11 C 0.42756(19) 0.2081(2) 0.88219(18)
H2_11 H 0.4418 0.1947 0.8451
C8_11 C 0.4515(2) 0.1847(2) 0.93305(19)
H3_11 H 0.4813 0.1553 0.9310
O1_11 O 0.31861(12) 0.31045(12) 0.82358(12)
O4_11 O 0.31867(12) 0.31136(12) 0.94222(12)
H4_11 H 0.312(2) 0.319(2) 0.980(2)
O6_11 O 0.17642(12) 0.31861(12) 0.81045(12)
O7_8 O 0.24577(13) 0.21979(12) 0.88579(12)
O8_11 O 0.24295(12) 0.40588(12) 0.88781(12)
O9_9 O 0.17573(12) 0.30527(12) 0.94908(12)
C1_12 C 0.13719(17) 0.72988(16) 0.43811(17)
C2_12 C 0.13895(17) 0.72691(17) 0.32516(17)
C3_12 C 0.11688(17) 0.74911(17) 0.38332(17)
C4_12 C 0.11289(17) 0.75262(18) 0.49041(17)
C5_12 C 0.13447(17) 0.73397(17) 0.54947(18)
C6_12 C 0.06860(19) 0.79544(19) 0.48677(18)
H1_12 H 0.0521 0.8110 0.5220
C7_12 C 0.07244(19) 0.7919(2) 0.38219(18)
H2_12 H 0.0582 0.8053 0.3451
C8_12 C 0.0485(2) 0.8153(2) 0.43305(19)
H3_12 H 0.0187 0.8447 0.4310
O1_12 O 0.18139(12) 0.68955(12) 0.32358(12)
O2_10 O 0.11421(12) 0.74577(13) 0.28021(12)
O3_12 O 0.11219(12) 0.75705(12) 0.59412(12)
O4_12 O 0.18133(12) 0.68864(12) 0.44222(12)
H4_12 H 0.188(2) 0.681(2) 0.480(2)
Mn3_8 Mn 0.12012(2) 0.74167(3) 0.18656(2)
Mn4_9 Mn 0.12012(2) 0.75833(3) 0.68656(2)
Mn5_9 Mn 0.18656(2) 0.62012(2) 0.25833(3)
O6_12 O 0.32358(12) 0.68139(12) 0.31045(12)
O8_12 O 0.25705(12) 0.59412(12) 0.38781(12)
C1_13 C 0.86281(17) 0.22988(16) 0.06189(17)
C2_13 C 0.86105(17) 0.22691(17) 0.17484(17)
C3_13 C 0.88312(17) 0.24911(17) 0.11668(17)
C4_13 C 0.88711(17) 0.25262(18) 0.00959(17)
C6_13 C 0.93140(19) 0.29544(19) 0.01323(18)
C7_13 C 0.92756(19) 0.2919(2) 0.11781(18)
H2_13 H 0.9418 0.3053 0.1549
C8_13 C 0.9515(2) 0.3153(2) 0.06695(19)
H3_13 H 0.9813 0.3447 0.0690
O1_13 O 0.81861(12) 0.18955(12) 0.17642(12)
O4_13 O 0.81867(12) 0.18864(12) 0.05778(12)
H4_13 H 0.812(2) 0.181(2) 0.020(2)
Mn5_10 Mn 0.81344(2) 0.12012(2) 0.24167(3)
O6_13 O 0.67642(12) 0.18139(12) 0.18955(12)
O8_13 O 0.74295(12) 0.09412(12) 0.11219(12)
O9_10 O 0.67573(12) 0.19473(12) 0.05092(12)
C5_13 C 0.86553(17) 0.23397(17) 0.95053(18)
H1_13 H 0.9479 0.3110 0.9780
O3_13 O 0.88781(12) 0.25705(12) 0.90588(12)
O5_10 O 0.82427(12) 0.19473(12) 0.94908(12)
Mn2_7 Mn 0.75833(3) 0.18656(2) 0.87988(2)
Mn4_10 Mn 0.87988(2) 0.25833(3) 0.81344(2)
C1_14 C 0.06189(17) 0.86281(17) 0.22988(16)
C2_14 C 0.17484(17) 0.86105(17) 0.22691(17)
C3_14 C 0.11668(17) 0.88312(17) 0.24911(17)
C4_14 C 0.00959(17) 0.88711(17) 0.25262(18)
C6_14 C 0.01323(18) 0.93140(19) 0.29544(19)
C7_14 C 0.11781(18) 0.92756(19) 0.2919(2)
H2_14 H 0.1549 0.9418 0.3053
C8_14 C 0.06695(19) 0.9515(2) 0.3153(2)
H3_14 H 0.0690 0.9813 0.3447
O1_14 O 0.17642(12) 0.81861(12) 0.18955(12)
O4_14 O 0.05778(12) 0.81867(12) 0.18864(12)
H4_14 H 0.020(2) 0.812(2) 0.181(2)
Mn5_11 Mn 0.24167(3) 0.81344(2) 0.12012(2)
O6_14 O 0.18955(12) 0.67642(12) 0.18139(12)
O8_14 O 0.11219(12) 0.74295(12) 0.09412(12)
O9_11 O 0.05092(12) 0.67573(12) 0.19473(12)
C5_14 C 0.95053(18) 0.86553(17) 0.23397(17)
H1_14 H 0.9780 0.9479 0.3110
O3_14 O 0.90588(12) 0.88781(12) 0.25705(12)
O5_11 O 0.94908(12) 0.82427(12) 0.19473(12)
Mn2_8 Mn 0.87988(2) 0.75833(3) 0.18656(2)
Mn4_11 Mn 0.81344(2) 0.87988(2) 0.25833(3)
C1_15 C 0.22988(16) 0.06189(17) 0.86281(17)
C2_15 C 0.22691(17) 0.17484(17) 0.86105(17)
C3_15 C 0.24911(17) 0.11668(17) 0.88312(17)
C4_15 C 0.25262(18) 0.00959(17) 0.88711(17)
C6_15 C 0.29544(19) 0.01323(18) 0.93140(19)
C7_15 C 0.2919(2) 0.11781(18) 0.92756(19)
H2_15 H 0.3053 0.1549 0.9418
C8_15 C 0.3153(2) 0.06695(19) 0.9515(2)
H3_15 H 0.3447 0.0690 0.9813
O1_15 O 0.18955(12) 0.17642(12) 0.81861(12)
O4_15 O 0.18864(12) 0.05778(12) 0.81867(12)
H4_15 H 0.181(2) 0.020(2) 0.812(2)
Mn5_12 Mn 0.12012(2) 0.24167(3) 0.81344(2)
O6_15 O 0.18139(12) 0.18955(12) 0.67642(12)
O8_15 O 0.09412(12) 0.11219(12) 0.74295(12)
O9_12 O 0.19473(12) 0.05092(12) 0.67573(12)
C5_15 C 0.23397(17) 0.95053(18) 0.86553(17)
H1_15 H 0.3110 0.9780 0.9479
O3_15 O 0.25705(12) 0.90588(12) 0.88781(12)
O5_12 O 0.19473(12) 0.94908(12) 0.82427(12)
Mn2_9 Mn 0.18656(2) 0.87988(2) 0.75833(3)
Mn4_12 Mn 0.25833(3) 0.81344(2) 0.87988(2)
C1_16 C 0.77012(16) 0.43811(17) 0.86281(17)
C2_16 C 0.77309(17) 0.32516(17) 0.86105(17)
C3_16 C 0.75089(17) 0.38332(17) 0.88312(17)
C4_16 C 0.74738(18) 0.49041(17) 0.88711(17)
C5_16 C 0.76603(17) 0.54947(18) 0.86553(17)
C6_16 C 0.70456(19) 0.48677(18) 0.93140(19)
H1_16 H 0.6890 0.5220 0.9479
C7_16 C 0.7081(2) 0.38219(18) 0.92756(19)
H2_16 H 0.6947 0.3451 0.9418
C8_16 C 0.6847(2) 0.43305(19) 0.9515(2)
H3_16 H 0.6553 0.4310 0.9813
O1_16 O 0.81045(12) 0.32358(12) 0.81861(12)
O2_11 O 0.75423(13) 0.28021(12) 0.88579(12)
O3_16 O 0.74295(12) 0.59412(12) 0.88781(12)
O4_16 O 0.81136(12) 0.44222(12) 0.81867(12)
H4_16 H 0.819(2) 0.480(2) 0.812(2)
O6_16 O 0.81861(12) 0.31045(12) 0.67642(12)
O8_16 O 0.90588(12) 0.38781(12) 0.74295(12)
C1_17 C 0.06189(17) 0.13719(17) 0.27012(16)
C2_17 C 0.17484(17) 0.13895(17) 0.27309(17)
C3_17 C 0.11668(17) 0.11688(17) 0.25089(17)
C4_17 C 0.00959(17) 0.11289(17) 0.24738(18)
C6_17 C 0.01323(18) 0.06860(19) 0.20456(19)
C7_17 C 0.11781(18) 0.07244(19) 0.2081(2)
H2_17 H 0.1549 0.0582 0.1947
C8_17 C 0.06695(19) 0.0485(2) 0.1847(2)
H3_17 H 0.0690 0.0187 0.1553
O1_17 O 0.17642(12) 0.18139(12) 0.31045(12)
O2_12 O 0.21979(12) 0.11421(12) 0.25423(13)
O4_17 O 0.05778(12) 0.18133(12) 0.31136(12)
H4_17 H 0.020(2) 0.188(2) 0.319(2)
O6_17 O 0.18955(12) 0.32358(12) 0.31861(12)
O7_9 O 0.11421(12) 0.25423(13) 0.21979(12)
O8_17 O 0.11219(12) 0.25705(12) 0.40588(12)
C5_17 C 0.95053(18) 0.13447(17) 0.26603(17)
H1_17 H 0.9780 0.0521 0.1890
O3_17 O 0.90588(12) 0.11219(12) 0.24295(12)
C1_18 C 0.27012(16) 0.06189(17) 0.13719(17)
C2_18 C 0.27309(17) 0.17484(17) 0.13895(17)
C3_18 C 0.25089(17) 0.11668(17) 0.11688(17)
C4_18 C 0.24738(18) 0.00959(17) 0.11289(17)
C6_18 C 0.20456(19) 0.01323(18) 0.06860(19)
C7_18 C 0.2081(2) 0.11781(18) 0.07244(19)
H2_18 H 0.1947 0.1549 0.0582
C8_18 C 0.1847(2) 0.06695(19) 0.0485(2)
H3_18 H 0.1553 0.0690 0.0187
O1_18 O 0.31045(12) 0.17642(12) 0.18139(12)
O2_13 O 0.25423(13) 0.21979(12) 0.11421(12)
O4_18 O 0.31136(12) 0.05778(12) 0.18133(12)
H4_18 H 0.319(2) 0.020(2) 0.188(2)
O6_18 O 0.31861(12) 0.18955(12) 0.32358(12)
O8_18 O 0.40588(12) 0.11219(12) 0.25705(12)
C5_18 C 0.26603(17) 0.95053(18) 0.13447(17)
H1_18 H 0.1890 0.9780 0.0521
O3_18 O 0.24295(12) 0.90588(12) 0.11219(12)
C5_19 C 0.04947(18) 0.63447(17) 0.23397(17)
H1_19 H 0.0220 0.5521 0.3110
O3_19 O 0.09412(12) 0.61219(12) 0.25705(12)
C1_19 C 0.93811(17) 0.63719(17) 0.22988(16)
C2_19 C 0.82516(17) 0.63895(17) 0.22691(17)
C3_19 C 0.88332(17) 0.61688(17) 0.24911(17)
C4_19 C 0.99041(17) 0.61289(17) 0.25262(18)
C6_19 C 0.98677(18) 0.56860(19) 0.29544(19)
C7_19 C 0.88219(18) 0.57244(19) 0.2919(2)
H2_19 H 0.8451 0.5582 0.3053
C8_19 C 0.93305(19) 0.5485(2) 0.3153(2)
H3_19 H 0.9310 0.5187 0.3447
O1_19 O 0.82358(12) 0.68139(12) 0.18955(12)
O4_19 O 0.94222(12) 0.68133(12) 0.18864(12)
H4_19 H 0.980(2) 0.688(2) 0.181(2)
O6_19 O 0.81045(12) 0.82358(12) 0.18139(12)
O7_10 O 0.88579(12) 0.75423(13) 0.28021(12)
O8_19 O 0.88781(12) 0.75705(12) 0.09412(12)
C1_20 C 0.43811(17) 0.86281(17) 0.77012(16)
C2_20 C 0.32516(17) 0.86105(17) 0.77309(17)
C3_20 C 0.38332(17) 0.88312(17) 0.75089(17)
C4_20 C 0.49041(17) 0.88711(17) 0.74738(18)
C5_20 C 0.54947(18) 0.86553(17) 0.76603(17)
C6_20 C 0.48677(18) 0.93140(19) 0.70456(19)
H1_20 H 0.5220 0.9479 0.6890
C7_20 C 0.38219(18) 0.92756(19) 0.7081(2)
H2_20 H 0.3451 0.9418 0.6947
C8_20 C 0.43305(19) 0.9515(2) 0.6847(2)
H3_20 H 0.4310 0.9813 0.6553
O1_20 O 0.32358(12) 0.81861(12) 0.81045(12)
O2_14 O 0.28021(12) 0.88579(12) 0.75423(13)
O3_20 O 0.59412(12) 0.88781(12) 0.74295(12)
O4_20 O 0.44222(12) 0.81867(12) 0.81136(12)
H4_20 H 0.480(2) 0.812(2) 0.819(2)
O6_20 O 0.31045(12) 0.67642(12) 0.81861(12)
O8_20 O 0.38781(12) 0.74295(12) 0.90588(12)
C5_21 C 0.23397(17) 0.04947(18) 0.63447(17)
H1_21 H 0.3110 0.0220 0.5521
O3_21 O 0.25705(12) 0.09412(12) 0.61219(12)
C1_21 C 0.22988(16) 0.93811(17) 0.63719(17)
C2_21 C 0.22691(17) 0.82516(17) 0.63895(17)
C3_21 C 0.24911(17) 0.88332(17) 0.61688(17)
C4_21 C 0.25262(18) 0.99041(17) 0.61289(17)
C6_21 C 0.29544(19) 0.98677(18) 0.56860(19)
C7_21 C 0.2919(2) 0.88219(18) 0.57244(19)
H2_21 H 0.3053 0.8451 0.5582
C8_21 C 0.3153(2) 0.93305(19) 0.5485(2)
H3_21 H 0.3447 0.9310 0.5187
O1_21 O 0.18955(12) 0.82358(12) 0.68139(12)
O4_21 O 0.18864(12) 0.94222(12) 0.68133(12)
H4_21 H 0.181(2) 0.980(2) 0.688(2)
O6_21 O 0.18139(12) 0.81045(12) 0.82358(12)
O8_21 O 0.09412(12) 0.88781(12) 0.75705(12)
C1_22 C 0.13719(17) 0.27012(16) 0.06189(17)
C2_22 C 0.13895(17) 0.27309(17) 0.17484(17)
C3_22 C 0.11688(17) 0.25089(17) 0.11668(17)
C4_22 C 0.11289(17) 0.24738(18) 0.00959(17)
C6_22 C 0.06860(19) 0.20456(19) 0.01323(18)
C7_22 C 0.07244(19) 0.2081(2) 0.11781(18)
H2_22 H 0.0582 0.1947 0.1549
C8_22 C 0.0485(2) 0.1847(2) 0.06695(19)
H3_22 H 0.0187 0.1553 0.0690
O1_22 O 0.18139(12) 0.31045(12) 0.17642(12)
O4_22 O 0.18133(12) 0.31136(12) 0.05778(12)
H4_22 H 0.188(2) 0.319(2) 0.020(2)
O6_22 O 0.32358(12) 0.31861(12) 0.18955(12)
O8_22 O 0.25705(12) 0.40588(12) 0.11219(12)
C5_22 C 0.13447(17) 0.26603(17) 0.95053(18)
H1_22 H 0.0521 0.1890 0.9780
O3_22 O 0.11219(12) 0.24295(12) 0.90588(12)
C1_23 C 0.86281(17) 0.77012(16) 0.43811(17)
C2_23 C 0.86105(17) 0.77309(17) 0.32516(17)
C3_23 C 0.88312(17) 0.75089(17) 0.38332(17)
C4_23 C 0.88711(17) 0.74738(18) 0.49041(17)
C5_23 C 0.86553(17) 0.76603(17) 0.54947(18)
C6_23 C 0.93140(19) 0.70456(19) 0.48677(18)
H1_23 H 0.9479 0.6890 0.5220
C7_23 C 0.92756(19) 0.7081(2) 0.38219(18)
H2_23 H 0.9418 0.6947 0.3451
C8_23 C 0.9515(2) 0.6847(2) 0.43305(19)
H3_23 H 0.9813 0.6553 0.4310
O1_23 O 0.81861(12) 0.81045(12) 0.32358(12)
O3_23 O 0.88781(12) 0.74295(12) 0.59412(12)
O4_23 O 0.81867(12) 0.81136(12) 0.44222(12)
H4_23 H 0.812(2) 0.819(2) 0.480(2)
O6_23 O 0.67642(12) 0.81861(12) 0.31045(12)
O8_23 O 0.74295(12) 0.90588(12) 0.38781(12)
C5_24 C 0.63447(17) 0.23397(17) 0.04947(18)
H1_24 H 0.5521 0.3110 0.0220
O3_24 O 0.61219(12) 0.25705(12) 0.09412(12)
C1_24 C 0.63719(17) 0.22988(16) 0.93811(17)
C2_24 C 0.63895(17) 0.22691(17) 0.82516(17)
C3_24 C 0.61688(17) 0.24911(17) 0.88332(17)
C4_24 C 0.61289(17) 0.25262(18) 0.99041(17)
C6_24 C 0.56860(19) 0.29544(19) 0.98677(18)
C7_24 C 0.57244(19) 0.2919(2) 0.88219(18)
H2_24 H 0.5582 0.3053 0.8451
C8_24 C 0.5485(2) 0.3153(2) 0.93305(19)
H3_24 H 0.5187 0.3447 0.9310
O1_24 O 0.68139(12) 0.18955(12) 0.82358(12)
O4_24 O 0.68133(12) 0.18864(12) 0.94222(12)
H4_24 H 0.688(2) 0.181(2) 0.980(2)
O6_24 O 0.82358(12) 0.18139(12) 0.81045(12)
O8_24 O 0.75705(12) 0.09412(12) 0.88781(12)
C1_25 C 0.63719(17) 0.27012(16) 0.43811(17)
C2_25 C 0.63895(17) 0.27309(17) 0.32516(17)
C3_25 C 0.61688(17) 0.25089(17) 0.38332(17)
C4_25 C 0.61289(17) 0.24738(18) 0.49041(17)
C5_25 C 0.63447(17) 0.26603(17) 0.54947(18)
C6_25 C 0.56860(19) 0.20456(19) 0.48677(18)
H1_25 H 0.5521 0.1890 0.5220
C7_25 C 0.57244(19) 0.2081(2) 0.38219(18)
H2_25 H 0.5582 0.1947 0.3451
C8_25 C 0.5485(2) 0.1847(2) 0.43305(19)
H3_25 H 0.5187 0.1553 0.4310
O2_15 O 0.61421(12) 0.25423(13) 0.28021(12)
O4_25 O 0.68133(12) 0.31136(12) 0.44222(12)
O5_13 O 0.67573(12) 0.30527(12) 0.55092(12)
H4_25 H 0.688(2) 0.319(2) 0.480(2)
O7_11 O 0.75423(13) 0.21979(12) 0.38579(12)
O9_13 O 0.82427(12) 0.30527(12) 0.44908(12)
C1_26 C 0.43811(17) 0.63719(17) 0.27012(16)
C2_26 C 0.32516(17) 0.63895(17) 0.27309(17)
C3_26 C 0.38332(17) 0.61688(17) 0.25089(17)
C4_26 C 0.49041(17) 0.61289(17) 0.24738(18)
C5_26 C 0.54947(18) 0.63447(17) 0.26603(17)
C6_26 C 0.48677(18) 0.56860(19) 0.20456(19)
H1_26 H 0.5220 0.5521 0.1890
C7_26 C 0.38219(18) 0.57244(19) 0.2081(2)
H2_26 H 0.3451 0.5582 0.1947
C8_26 C 0.43305(19) 0.5485(2) 0.1847(2)
H3_26 H 0.4310 0.5187 0.1553
O2_16 O 0.28021(12) 0.61421(12) 0.25423(13)
O4_26 O 0.44222(12) 0.68133(12) 0.31136(12)
O5_14 O 0.55092(12) 0.67573(12) 0.30527(12)
H4_26 H 0.480(2) 0.688(2) 0.319(2)
O7_12 O 0.38579(12) 0.75423(13) 0.21979(12)
O9_14 O 0.44908(12) 0.82427(12) 0.30527(12)
C1_27 C 0.27012(16) 0.43811(17) 0.63719(17)
C2_27 C 0.27309(17) 0.32516(17) 0.63895(17)
C3_27 C 0.25089(17) 0.38332(17) 0.61688(17)
C4_27 C 0.24738(18) 0.49041(17) 0.61289(17)
C5_27 C 0.26603(17) 0.54947(18) 0.63447(17)
C6_27 C 0.20456(19) 0.48677(18) 0.56860(19)
H1_27 H 0.1890 0.5220 0.5521
C7_27 C 0.2081(2) 0.38219(18) 0.57244(19)
H2_27 H 0.1947 0.3451 0.5582
C8_27 C 0.1847(2) 0.43305(19) 0.5485(2)
H3_27 H 0.1553 0.4310 0.5187
O2_17 O 0.25423(13) 0.28021(12) 0.61421(12)
O4_27 O 0.31136(12) 0.44222(12) 0.68133(12)
O5_15 O 0.30527(12) 0.55092(12) 0.67573(12)
H4_27 H 0.319(2) 0.480(2) 0.688(2)
O7_13 O 0.21979(12) 0.38579(12) 0.75423(13)
O9_15 O 0.30527(12) 0.44908(12) 0.82427(12)
C1_28 C 0.72988(16) 0.06189(17) 0.63719(17)
C2_28 C 0.72691(17) 0.17484(17) 0.63895(17)
C3_28 C 0.74911(17) 0.11668(17) 0.61688(17)
C4_28 C 0.75262(18) 0.00959(17) 0.61289(17)
C6_28 C 0.79544(19) 0.01323(18) 0.56860(19)
C7_28 C 0.7919(2) 0.11781(18) 0.57244(19)
H2_28 H 0.8053 0.1549 0.5582
C8_28 C 0.8153(2) 0.06695(19) 0.5485(2)
H3_28 H 0.8447 0.0690 0.5187
O2_18 O 0.74577(13) 0.21979(12) 0.61421(12)
O4_28 O 0.68864(12) 0.05778(12) 0.68133(12)
H4_28 H 0.681(2) 0.020(2) 0.688(2)
O7_14 O 0.78021(12) 0.11421(12) 0.75423(13)
O9_16 O 0.69473(12) 0.05092(12) 0.82427(12)
C5_28 C 0.73397(17) 0.95053(18) 0.63447(17)
H1_28 H 0.8110 0.9780 0.5521
O5_16 O 0.69473(12) 0.94908(12) 0.67573(12)
C1_29 C 0.43811(17) 0.36281(17) 0.22988(16)
C2_29 C 0.32516(17) 0.36105(17) 0.22691(17)
C3_29 C 0.38332(17) 0.38312(17) 0.24911(17)
C4_29 C 0.49041(17) 0.38711(17) 0.25262(18)
C5_29 C 0.54947(18) 0.36553(17) 0.23397(17)
C6_29 C 0.48677(18) 0.43140(19) 0.29544(19)
H1_29 H 0.5220 0.4479 0.3110
C7_29 C 0.38219(18) 0.42756(19) 0.2919(2)
H2_29 H 0.3451 0.4418 0.3053
C8_29 C 0.43305(19) 0.4515(2) 0.3153(2)
H3_29 H 0.4310 0.4813 0.3447
O2_19 O 0.28021(12) 0.38579(12) 0.24577(13)
O4_29 O 0.44222(12) 0.31867(12) 0.18864(12)
O5_17 O 0.55092(12) 0.32427(12) 0.19473(12)
H4_29 H 0.480(2) 0.312(2) 0.181(2)
O7_15 O 0.38579(12) 0.24577(13) 0.28021(12)
O9_17 O 0.44908(12) 0.17573(12) 0.19473(12)
C1_30 C 0.22988(16) 0.43811(17) 0.36281(17)
C2_30 C 0.22691(17) 0.32516(17) 0.36105(17)
C3_30 C 0.24911(17) 0.38332(17) 0.38312(17)
C4_30 C 0.25262(18) 0.49041(17) 0.38711(17)
C5_30 C 0.23397(17) 0.54947(18) 0.36553(17)
C6_30 C 0.29544(19) 0.48677(18) 0.43140(19)
H1_30 H 0.3110 0.5220 0.4479
C7_30 C 0.2919(2) 0.38219(18) 0.42756(19)
H2_30 H 0.3053 0.3451 0.4418
C8_30 C 0.3153(2) 0.43305(19) 0.4515(2)
H3_30 H 0.3447 0.4310 0.4813
O2_20 O 0.24577(13) 0.28021(12) 0.38579(12)
O4_30 O 0.18864(12) 0.44222(12) 0.31867(12)
O5_18 O 0.19473(12) 0.55092(12) 0.32427(12)
H4_30 H 0.181(2) 0.480(2) 0.312(2)
O9_18 O 0.19473(12) 0.44908(12) 0.17573(12)
C1_31 C 0.56189(17) 0.86281(17) 0.27012(16)
C2_31 C 0.67484(17) 0.86105(17) 0.27309(17)
C3_31 C 0.61668(17) 0.88312(17) 0.25089(17)
C4_31 C 0.50959(17) 0.88711(17) 0.24738(18)
C5_31 C 0.45053(18) 0.86553(17) 0.26603(17)
C6_31 C 0.51323(18) 0.93140(19) 0.20456(19)
H1_31 H 0.4780 0.9479 0.1890
C7_31 C 0.61781(18) 0.92756(19) 0.2081(2)
H2_31 H 0.6549 0.9418 0.1947
C8_31 C 0.56695(19) 0.9515(2) 0.1847(2)
H3_31 H 0.5690 0.9813 0.1553
O2_21 O 0.71979(12) 0.88579(12) 0.25423(13)
O4_31 O 0.55778(12) 0.81867(12) 0.31136(12)
H4_31 H 0.520(2) 0.812(2) 0.319(2)
O7_16 O 0.61421(12) 0.74577(13) 0.21979(12)
C1_32 C 0.06189(17) 0.63719(17) 0.72988(16)
C2_32 C 0.17484(17) 0.63895(17) 0.72691(17)
C3_32 C 0.11668(17) 0.61688(17) 0.74911(17)
C4_32 C 0.00959(17) 0.61289(17) 0.75262(18)
C6_32 C 0.01323(18) 0.56860(19) 0.79544(19)
C7_32 C 0.11781(18) 0.57244(19) 0.7919(2)
H2_32 H 0.1549 0.5582 0.8053
C8_32 C 0.06695(19) 0.5485(2) 0.8153(2)
H3_32 H 0.0690 0.5187 0.8447
O2_22 O 0.21979(12) 0.61421(12) 0.74577(13)
O4_32 O 0.05778(12) 0.68133(12) 0.68864(12)
H4_32 H 0.020(2) 0.688(2) 0.681(2)
O7_17 O 0.11421(12) 0.75423(13) 0.78021(12)
O9_19 O 0.05092(12) 0.82427(12) 0.69473(12)
C5_32 C 0.95053(18) 0.63447(17) 0.73397(17)
H1_32 H 0.9780 0.5521 0.8110
O5_19 O 0.94908(12) 0.67573(12) 0.69473(12)
C1_33 C 0.27012(16) 0.56189(17) 0.86281(17)
C2_33 C 0.27309(17) 0.67484(17) 0.86105(17)
C3_33 C 0.25089(17) 0.61668(17) 0.88312(17)
C4_33 C 0.24738(18) 0.50959(17) 0.88711(17)
C5_33 C 0.26603(17) 0.45053(18) 0.86553(17)
C6_33 C 0.20456(19) 0.51323(18) 0.93140(19)
H1_33 H 0.1890 0.4780 0.9479
C7_33 C 0.2081(2) 0.61781(18) 0.92756(19)
H2_33 H 0.1947 0.6549 0.9418
C8_33 C 0.1847(2) 0.56695(19) 0.9515(2)
H3_33 H 0.1553 0.5690 0.9813
O2_23 O 0.25423(13) 0.71979(12) 0.88579(12)
O4_33 O 0.31136(12) 0.55778(12) 0.81867(12)
H4_33 H 0.319(2) 0.520(2) 0.812(2)
C1_34 C 0.36281(17) 0.22988(16) 0.43811(17)
C2_34 C 0.36105(17) 0.22691(17) 0.32516(17)
C3_34 C 0.38312(17) 0.24911(17) 0.38332(17)
C4_34 C 0.38711(17) 0.25262(18) 0.49041(17)
C5_34 C 0.36553(17) 0.23397(17) 0.54947(18)
C6_34 C 0.43140(19) 0.29544(19) 0.48677(18)
H1_34 H 0.4479 0.3110 0.5220
C7_34 C 0.42756(19) 0.2919(2) 0.38219(18)
H2_34 H 0.4418 0.3053 0.3451
C8_34 C 0.4515(2) 0.3153(2) 0.43305(19)
H3_34 H 0.4813 0.3447 0.4310
O4_34 O 0.31867(12) 0.18864(12) 0.44222(12)
O5_20 O 0.32427(12) 0.19473(12) 0.55092(12)
H4_34 H 0.312(2) 0.181(2) 0.480(2)
O9_20 O 0.17573(12) 0.19473(12) 0.44908(12)
C1_35 C 0.63719(17) 0.72988(16) 0.06189(17)
C2_35 C 0.63895(17) 0.72691(17) 0.17484(17)
C3_35 C 0.61688(17) 0.74911(17) 0.11668(17)
C4_35 C 0.61289(17) 0.75262(18) 0.00959(17)
C6_35 C 0.56860(19) 0.79544(19) 0.01323(18)
C7_35 C 0.57244(19) 0.7919(2) 0.11781(18)
H2_35 H 0.5582 0.8053 0.1549
C8_35 C 0.5485(2) 0.8153(2) 0.06695(19)
H3_35 H 0.5187 0.8447 0.0690
O4_35 O 0.68133(12) 0.68864(12) 0.05778(12)
H4_35 H 0.688(2) 0.681(2) 0.020(2)
O7_18 O 0.75423(13) 0.78021(12) 0.11421(12)
O9_21 O 0.82427(12) 0.69473(12) 0.05092(12)
C5_35 C 0.63447(17) 0.73397(17) 0.95053(18)
H1_35 H 0.5521 0.8110 0.9780
O5_21 O 0.67573(12) 0.69473(12) 0.94908(12)
C1_36 C 0.86281(17) 0.27012(16) 0.56189(17)
C2_36 C 0.86105(17) 0.27309(17) 0.67484(17)
C3_36 C 0.88312(17) 0.25089(17) 0.61668(17)
C4_36 C 0.88711(17) 0.24738(18) 0.50959(17)
C5_36 C 0.86553(17) 0.26603(17) 0.45053(18)
C6_36 C 0.93140(19) 0.20456(19) 0.51323(18)
H1_36 H 0.9479 0.1890 0.4780
C7_36 C 0.92756(19) 0.2081(2) 0.61781(18)
H2_36 H 0.9418 0.1947 0.6549
C8_36 C 0.9515(2) 0.1847(2) 0.56695(19)
H3_36 H 0.9813 0.1553 0.5690
O2_24 O 0.88579(12) 0.25423(13) 0.71979(12)
O4_36 O 0.81867(12) 0.31136(12) 0.55778(12)
H4_36 H 0.812(2) 0.319(2) 0.520(2)
C5_37 C 0.13447(17) 0.76603(17) 0.04947(18)
H1_37 H 0.0521 0.6890 0.0220
O5_22 O 0.17573(12) 0.80527(12) 0.05092(12)
C1_37 C 0.13719(17) 0.77012(16) 0.93811(17)
C2_37 C 0.13895(17) 0.77309(17) 0.82516(17)
C3_37 C 0.11688(17) 0.75089(17) 0.88332(17)
C4_37 C 0.11289(17) 0.74738(18) 0.99041(17)
C6_37 C 0.06860(19) 0.70456(19) 0.98677(18)
C7_37 C 0.07244(19) 0.7081(2) 0.88219(18)
H2_37 H 0.0582 0.6947 0.8451
C8_37 C 0.0485(2) 0.6847(2) 0.93305(19)
H3_37 H 0.0187 0.6553 0.9310
O4_37 O 0.18133(12) 0.81136(12) 0.94222(12)
H4_37 H 0.188(2) 0.819(2) 0.980(2)
O9_22 O 0.32427(12) 0.80527(12) 0.94908(12)
C5_38 C 0.04947(18) 0.13447(17) 0.76603(17)
H1_38 H 0.0220 0.0521 0.6890
O5_23 O 0.05092(12) 0.17573(12) 0.80527(12)
C1_38 C 0.93811(17) 0.13719(17) 0.77012(16)
C2_38 C 0.82516(17) 0.13895(17) 0.77309(17)
C3_38 C 0.88332(17) 0.11688(17) 0.75089(17)
C4_38 C 0.99041(17) 0.11289(17) 0.74738(18)
C6_38 C 0.98677(18) 0.06860(19) 0.70456(19)
C7_38 C 0.88219(18) 0.07244(19) 0.7081(2)
H2_38 H 0.8451 0.0582 0.6947
C8_38 C 0.93305(19) 0.0485(2) 0.6847(2)
H3_38 H 0.9310 0.0187 0.6553
O4_38 O 0.94222(12) 0.18133(12) 0.81136(12)
H4_38 H 0.980(2) 0.188(2) 0.819(2)
O9_23 O 0.94908(12) 0.32427(12) 0.80527(12)
C5_39 C 0.76603(17) 0.04947(18) 0.13447(17)
H1_39 H 0.6890 0.0220 0.0521
O5_24 O 0.80527(12) 0.05092(12) 0.17573(12)
C1_39 C 0.77012(16) 0.93811(17) 0.13719(17)
C2_39 C 0.77309(17) 0.82516(17) 0.13895(17)
C3_39 C 0.75089(17) 0.88332(17) 0.11688(17)
C4_39 C 0.74738(18) 0.99041(17) 0.11289(17)
C6_39 C 0.70456(19) 0.98677(18) 0.06860(19)
C7_39 C 0.7081(2) 0.88219(18) 0.07244(19)
H2_39 H 0.6947 0.8451 0.0582
C8_39 C 0.6847(2) 0.93305(19) 0.0485(2)
H3_39 H 0.6553 0.9310 0.0187
O4_39 O 0.81136(12) 0.94222(12) 0.18133(12)
H4_39 H 0.819(2) 0.980(2) 0.188(2)
O9_24 O 0.80527(12) 0.94908(12) 0.32427(12)
C1_40 C 0.22988(16) 0.56189(17) 0.13719(17)
C2_40 C 0.22691(17) 0.67484(17) 0.13895(17)
C3_40 C 0.24911(17) 0.61668(17) 0.11688(17)
C4_40 C 0.25262(18) 0.50959(17) 0.11289(17)
C5_40 C 0.23397(17) 0.45053(18) 0.13447(17)
C6_40 C 0.29544(19) 0.51323(18) 0.06860(19)
H1_40 H 0.3110 0.4780 0.0521
C7_40 C 0.2919(2) 0.61781(18) 0.07244(19)
H2_40 H 0.3053 0.6549 0.0582
C8_40 C 0.3153(2) 0.56695(19) 0.0485(2)
H3_40 H 0.3447 0.5690 0.0187
O2_25 O 0.24577(13) 0.71979(12) 0.11421(12)
O4_40 O 0.18864(12) 0.55778(12) 0.18133(12)
H4_40 H 0.181(2) 0.520(2) 0.188(2)
C5_41 C 0.04947(18) 0.86553(17) 0.73397(17)
H1_41 H 0.0220 0.9479 0.8110
C1_41 C 0.93811(17) 0.86281(17) 0.72988(16)
C2_41 C 0.82516(17) 0.86105(17) 0.72691(17)
C3_41 C 0.88332(17) 0.88312(17) 0.74911(17)
C4_41 C 0.99041(17) 0.88711(17) 0.75262(18)
C6_41 C 0.98677(18) 0.93140(19) 0.79544(19)
C7_41 C 0.88219(18) 0.92756(19) 0.7919(2)
H2_41 H 0.8451 0.9418 0.8053
C8_41 C 0.93305(19) 0.9515(2) 0.8153(2)
H3_41 H 0.9310 0.9813 0.8447
O2_26 O 0.78021(12) 0.88579(12) 0.74577(13)
O4_41 O 0.94222(12) 0.81867(12) 0.68864(12)
H4_41 H 0.980(2) 0.812(2) 0.681(2)
O7_19 O 0.88579(12) 0.74577(13) 0.78021(12)
C5_42 C 0.73397(17) 0.04947(18) 0.86553(17)
H1_42 H 0.8110 0.0220 0.9479
C1_42 C 0.72988(16) 0.93811(17) 0.86281(17)
C2_42 C 0.72691(17) 0.82516(17) 0.86105(17)
C3_42 C 0.74911(17) 0.88332(17) 0.88312(17)
C4_42 C 0.75262(18) 0.99041(17) 0.88711(17)
C6_42 C 0.79544(19) 0.98677(18) 0.93140(19)
C7_42 C 0.7919(2) 0.88219(18) 0.92756(19)
H2_42 H 0.8053 0.8451 0.9418
C8_42 C 0.8153(2) 0.93305(19) 0.9515(2)
H3_42 H 0.8447 0.9310 0.9813
O2_27 O 0.74577(13) 0.78021(12) 0.88579(12)
O4_42 O 0.68864(12) 0.94222(12) 0.81867(12)
H4_42 H 0.681(2) 0.980(2) 0.812(2)
C1_43 C 0.06189(17) 0.36281(17) 0.77012(16)
C2_43 C 0.17484(17) 0.36105(17) 0.77309(17)
C3_43 C 0.11668(17) 0.38312(17) 0.75089(17)
C4_43 C 0.00959(17) 0.38711(17) 0.74738(18)
C6_43 C 0.01323(18) 0.43140(19) 0.70456(19)
C7_43 C 0.11781(18) 0.42756(19) 0.7081(2)
H2_43 H 0.1549 0.4418 0.6947
C8_43 C 0.06695(19) 0.4515(2) 0.6847(2)
H3_43 H 0.0690 0.4813 0.6553
O4_43 O 0.05778(12) 0.31867(12) 0.81136(12)
H4_43 H 0.020(2) 0.312(2) 0.819(2)
O7_20 O 0.11421(12) 0.24577(13) 0.71979(12)
C5_43 C 0.95053(18) 0.36553(17) 0.76603(17)
H1_43 H 0.9780 0.4479 0.6890
C1_44 C 0.56189(17) 0.13719(17) 0.22988(16)
C2_44 C 0.67484(17) 0.13895(17) 0.22691(17)
C3_44 C 0.61668(17) 0.11688(17) 0.24911(17)
C4_44 C 0.50959(17) 0.11289(17) 0.25262(18)
C5_44 C 0.45053(18) 0.13447(17) 0.23397(17)
C6_44 C 0.51323(18) 0.06860(19) 0.29544(19)
H1_44 H 0.4780 0.0521 0.3110
C7_44 C 0.61781(18) 0.07244(19) 0.2919(2)
H2_44 H 0.6549 0.0582 0.3053
C8_44 C 0.56695(19) 0.0485(2) 0.3153(2)
H3_44 H 0.5690 0.0187 0.3447
O2_28 O 0.71979(12) 0.11421(12) 0.24577(13)
O4_44 O 0.55778(12) 0.18133(12) 0.18864(12)
H4_44 H 0.520(2) 0.188(2) 0.181(2)
C1_45 C 0.77012(16) 0.06189(17) 0.36281(17)
C2_45 C 0.77309(17) 0.17484(17) 0.36105(17)
C3_45 C 0.75089(17) 0.11668(17) 0.38312(17)
C4_45 C 0.74738(18) 0.00959(17) 0.38711(17)
C6_45 C 0.70456(19) 0.01323(18) 0.43140(19)
C7_45 C 0.7081(2) 0.11781(18) 0.42756(19)
H2_45 H 0.6947 0.1549 0.4418
C8_45 C 0.6847(2) 0.06695(19) 0.4515(2)
H3_45 H 0.6553 0.0690 0.4813
O4_45 O 0.81136(12) 0.05778(12) 0.31867(12)
H4_45 H 0.819(2) 0.020(2) 0.312(2)
C5_45 C 0.76603(17) 0.95053(18) 0.36553(17)
H1_45 H 0.6890 0.9780 0.4479
C5_46 C 0.86553(17) 0.73397(17) 0.04947(18)
H1_46 H 0.9479 0.8110 0.0220
C1_46 C 0.86281(17) 0.72988(16) 0.93811(17)
C2_46 C 0.86105(17) 0.72691(17) 0.82516(17)
C3_46 C 0.88312(17) 0.74911(17) 0.88332(17)
C4_46 C 0.88711(17) 0.75262(18) 0.99041(17)
C6_46 C 0.93140(19) 0.79544(19) 0.98677(18)
C7_46 C 0.92756(19) 0.7919(2) 0.88219(18)
H2_46 H 0.9418 0.8053 0.8451
C8_46 C 0.9515(2) 0.8153(2) 0.93305(19)
H3_46 H 0.9813 0.8447 0.9310
O4_46 O 0.81867(12) 0.68864(12) 0.94222(12)
H4_46 H 0.812(2) 0.681(2) 0.980(2)
C1_47 C 0.13719(17) 0.22988(16) 0.56189(17)
C2_47 C 0.13895(17) 0.22691(17) 0.67484(17)
C3_47 C 0.11688(17) 0.24911(17) 0.61668(17)
C4_47 C 0.11289(17) 0.25262(18) 0.50959(17)
C5_47 C 0.13447(17) 0.23397(17) 0.45053(18)
C6_47 C 0.06860(19) 0.29544(19) 0.51323(18)
H1_47 H 0.0521 0.3110 0.4780
C7_47 C 0.07244(19) 0.2919(2) 0.61781(18)
H2_47 H 0.0582 0.3053 0.6549
C8_47 C 0.0485(2) 0.3153(2) 0.56695(19)
H3_47 H 0.0187 0.3447 0.5690
O4_47 O 0.18133(12) 0.18864(12) 0.55778(12)
H4_47 H 0.188(2) 0.181(2) 0.520(2)
C1_48 C 0.36281(17) 0.77012(16) 0.06189(17)
C2_48 C 0.36105(17) 0.77309(17) 0.17484(17)
C3_48 C 0.38312(17) 0.75089(17) 0.11668(17)
C4_48 C 0.38711(17) 0.74738(18) 0.00959(17)
C6_48 C 0.43140(19) 0.70456(19) 0.01323(18)
C7_48 C 0.42756(19) 0.7081(2) 0.11781(18)
H2_48 H 0.4418 0.6947 0.1549
C8_48 C 0.4515(2) 0.6847(2) 0.06695(19)
H3_48 H 0.4813 0.6553 0.0690
O4_48 O 0.31867(12) 0.81136(12) 0.05778(12)
H4_48 H 0.312(2) 0.819(2) 0.020(2)
C5_48 C 0.36553(17) 0.76603(17) 0.95053(18)
H1_48 H 0.4479 0.6890 0.9780
loop_
_geom_bond_atom_site_label_1
_geom_bond_atom_site_label_2
_geom_bond_site_symmetry_1
_geom_bond_site_symmetry_2
Mn1 O1 1_555 1_555
C1 C3 1_555 1_555
C2 C3 1_555 1_555
C3 C7 1_555 1_555
C4 C1 1_555 1_555
C5 C4 1_555 1_555
C6 C4 1_555 1_555
H1 C6 1_555 1_555
C7 H2 1_555 1_555
C8 C6 1_555 1_555
H3 C8 1_555 1_555
O1 C2 1_555 1_555
O2 C2 1_555 1_555
O3 C5 1_555 1_555
O4 Mn1 1_555 1_555
O5 C5 1_555 1_555
H4 O4 1_555 1_555
Mn2 O5 1_555 1_555
Mn3 O2 1_555 1_555
Mn4 O3 1_555 1_555
Mn5 O1 1_555 1_555
O6 Mn1 1_555 1_555
O7 Mn1 1_555 1_555
O8 Mn1 1_555 1_555
O9 Mn1 1_555 1_555
C1 O4 1_555 1_555
C7 C8 1_555 1_555
Mn1_2 O1_2 1_555 1_555
C1_2 C3_2 1_555 1_555
C2_2 C3_2 1_555 1_555
C3_2 C7_2 1_555 1_555
C4_2 C1_2 1_555 1_555
C5_2 C4_2 1_555 1_555
C6_2 C4_2 1_555 1_555
H1_2 C6_2 1_555 1_555
C7_2 H2_2 1_555 1_555
C8_2 C6_2 1_555 1_555
H3_2 C8_2 1_555 1_555
O1_2 C2_2 1_555 1_555
O2_2 C2_2 1_555 1_555
O3_2 C5_2 1_555 1_555
O4_2 Mn1_2 1_555 1_555
O5_2 C5_2 1_555 1_555
H4_2 O4_2 1_555 1_555
Mn2_2 O5_2 1_555 1_555
Mn3_2 O2_2 1_555 1_555
Mn4_2 O3_2 1_555 1_555
Mn5_2 O1_2 1_555 1_555
O6_2 Mn1_2 1_555 1_555
O7_2 Mn1_2 1_555 1_555
O8_2 Mn1_2 1_555 1_555
O9_2 Mn1_2 1_555 1_555
C1_2 O4_2 1_555 1_555
C7_2 C8_2 1_555 1_555
Mn1_3 O1_3 1_555 1_555
C1_3 C3_3 1_555 1_555
C2_3 C3_3 1_555 1_555
C3_3 C7_3 1_555 1_555
C4_3 C1_3 1_555 1_555
C5_3 C4_3 1_555 1_555
C6_3 C4_3 1_555 1_555
H1_3 C6_3 1_555 1_555
C7_3 H2_3 1_555 1_555
C8_3 C6_3 1_555 1_555
H3_3 C8_3 1_555 1_555
O1_3 C2_3 1_555 1_555
O2_3 C2_3 1_555 1_555
O3_3 C5_3 1_555 1_555
O4_3 Mn1_3 1_555 1_555
O5_3 C5_3 1_555 1_555
H4_3 O4_3 1_555 1_555
Mn2_3 O5_3 1_555 1_555
Mn3_3 O2_3 1_555 1_555
Mn4_3 O3_3 1_555 1_555
Mn5_3 O1_3 1_555 1_555
O6_3 Mn1_3 1_555 1_555
O7_3 Mn1_3 1_555 1_555
O8_3 Mn1_3 1_555 1_555
O9_3 Mn1_3 1_555 1_555
C1_3 O4_3 1_555 1_555
C7_3 C8_3 1_555 1_555
O3_4 C5_4 1_555 1_555
O5_4 C5_4 1_555 1_555
Mn2_4 O5_4 1_555 1_555
Mn4_4 O3_4 1_555 1_555
Mn1_4 O1_4 1_555 1_555
C1_4 C3_4 1_555 1_555
C2_4 C3_4 1_555 1_555
C3_4 C7_4 1_555 1_555
C4_4 C1_4 1_555 1_555
C6_4 C4_4 1_555 1_555
C7_4 H2_4 1_555 1_555
C8_4 C6_4 1_555 1_555
H3_4 C8_4 1_555 1_555
O1_4 C2_4 1_555 1_555
O2_4 C2_4 1_555 1_555
O4_4 Mn1_4 1_555 1_555
H4_4 O4_4 1_555 1_555
Mn2 O2_4 1_555 1_555
Mn4 O1_4 1_555 1_555
O6_4 Mn1_4 1_555 1_555
O7_4 Mn1_4 1_555 1_555
O8_4 Mn1_4 1_555 1_555
O9_4 Mn1_4 1_555 1_555
C1_4 O4_4 1_555 1_555
C7_4 C8_4 1_555 1_555
Mn1_5 O1_5 1_555 1_555
C1_5 C3_5 1_555 1_555
C2_5 C3_5 1_555 1_555
C3_5 C7_5 1_555 1_555
C4_5 C1_5 1_555 1_555
C5_5 C4_5 1_555 1_555
C6_5 C4_5 1_555 1_555
H1_5 C6_5 1_555 1_555
C7_5 H2_5 1_555 1_555
C8_5 C6_5 1_555 1_555
H3_5 C8_5 1_555 1_555
O1_5 C2_5 1_555 1_555
O2_5 C2_5 1_555 1_555
O3_5 C5_5 1_555 1_555
O4_5 Mn1_5 1_555 1_555
O5_5 C5_5 1_555 1_555
H4_5 O4_5 1_555 1_555
Mn3 O5_5 1_555 1_555
Mn3_4 O2_5 1_555 1_555
Mn5 O3_5 1_555 1_555
Mn5_4 O1_5 1_555 1_555
O6_5 Mn1_5 1_555 1_555
O7_5 Mn1_5 1_555 1_555
O8_5 Mn1_5 1_555 1_555
O9_5 Mn1_5 1_555 1_555
C1_5 O4_5 1_555 1_555
C7_5 C8_5 1_555 1_555
Mn3_4 O1_6 1_555 1_555
C1_6 C3_6 1_555 1_555
C2_6 C3_6 1_555 1_555
C3_6 C7_6 1_555 1_555
C4_6 C1_6 1_555 1_555
C5_6 C4_6 1_555 1_555
C6_6 C4_6 1_555 1_555
H1_6 C6_6 1_555 1_555
C7_6 H2_6 1_555 1_555
C8_6 C6_6 1_555 1_555
H3_6 C8_6 1_555 1_555
O1_6 C2_6 1_555 1_555
O2_6 C2_6 1_555 1_555
O3_6 C5_6 1_555 1_555
O4_6 Mn3_4 1_555 1_555
O5_6 C5_6 1_555 1_555
H4_6 O4_6 1_555 1_555
Mn3_2 O5_6 1_555 1_555
Mn3_5 O2_6 1_555 1_555
Mn5_2 O3_6 1_555 1_555
Mn5_5 O1_6 1_555 1_555
O6_6 Mn3_4 1_555 1_555
O8_6 Mn3_4 1_555 1_555
O9_6 Mn3_4 1_555 1_555
C1_6 O4_6 1_555 1_555
C7_6 C8_6 1_555 1_555
Mn2_2 O1_7 1_555 1_555
C1_7 C3_7 1_555 1_555
C2_7 C3_7 1_555 1_555
C3_7 C7_7 1_555 1_555
C4_7 C1_7 1_555 1_555
C5_7 C4_7 1_555 1_555
C6_7 C4_7 1_555 1_555
H1_7 C6_7 1_555 1_555
C7_7 H2_7 1_555 1_555
C8_7 C6_7 1_555 1_555
H3_7 C8_7 1_555 1_555
O1_7 C2_7 1_555 1_555
O2_7 C2_7 1_555 1_555
O3_7 C5_7 1_555 1_555
O4_7 Mn2_2 1_555 1_555
O9_2 C5_7 1_555 1_555
H4_7 O4_7 1_555 1_555
Mn3_6 O2_7 1_555 1_555
Mn4_5 O3_7 1_555 1_555
Mn5_6 O1_7 1_555 1_555
O6_7 Mn2_2 1_555 1_555
O7_6 Mn2_2 1_555 1_555
O8_7 Mn2_2 1_555 1_555
C1_7 O4_7 1_555 1_555
C7_7 C8_7 1_555 1_555
O3_8 C5_8 1_555 1_555
O5_7 C5_8 1_555 1_555
Mn2_5 O5_7 1_555 1_555
Mn4_6 O3_8 1_555 1_555
Mn1_6 O1_8 1_555 1_555
C1_8 C3_8 1_555 1_555
C2_8 C3_8 1_555 1_555
C3_8 C7_8 1_555 1_555
C4_8 C1_8 1_555 1_555
C6_8 C4_8 1_555 1_555
C7_8 H2_8 1_555 1_555
C8_8 C6_8 1_555 1_555
H3_8 C8_8 1_555 1_555
O1_8 C2_8 1_555 1_555
O2_8 C2_8 1_555 1_555
O4_8 Mn1_6 1_555 1_555
H4_8 O4_8 1_555 1_555
Mn2_3 O2_8 1_555 1_555
Mn4_3 O1_8 1_555 1_555
O6_8 Mn1_6 1_555 1_555
O7_7 Mn1_6 1_555 1_555
O8_8 Mn1_6 1_555 1_555
O9_7 Mn1_6 1_555 1_555
C1_8 O4_8 1_555 1_555
C7_8 C8_8 1_555 1_555
Mn2_3 O1_9 1_555 1_555
C1_9 C3_9 1_555 1_555
C2_9 C3_9 1_555 1_555
C3_9 C7_9 1_555 1_555
C4_9 C1_9 1_555 1_555
C5_9 C4_9 1_555 1_555
C6_9 C4_9 1_555 1_555
H1_9 C6_9 1_555 1_555
C7_9 H2_9 1_555 1_555
C8_9 C6_9 1_555 1_555
H3_9 C8_9 1_555 1_555
O1_9 C2_9 1_555 1_555
O2_9 C2_9 1_555 1_555
O3_9 C5_9 1_555 1_555
O4_9 Mn2_3 1_555 1_555
O9_3 C5_9 1_555 1_555
H4_9 O4_9 1_555 1_555
Mn3_7 O2_9 1_555 1_555
Mn4_7 O3_9 1_555 1_555
Mn5_7 O1_9 1_555 1_555
O6_9 Mn2_3 1_555 1_555
O8_9 Mn2_3 1_555 1_555
C1_9 O4_9 1_555 1_555
C7_9 C8_9 1_555 1_555
Mn3_5 O1_10 1_555 1_555
C1_10 C3_10 1_555 1_555
C2_10 C3_10 1_555 1_555
C3_10 C7_10 1_555 1_555
C4_10 C1_10 1_555 1_555
C5_10 C4_10 1_555 1_555
C6_10 C4_10 1_555 1_555
H1_10 C6_10 1_555 1_555
C7_10 H2_10 1_555 1_555
C8_10 C6_10 1_555 1_555
H3_10 C8_10 1_555 1_555
O1_10 C2_10 1_555 1_555
O7_5 C2_10 1_555 1_555
O3_10 C5_10 1_555 1_555
O4_10 Mn3_5 1_555 1_555
O5_8 C5_10 1_555 1_555
H4_10 O4_10 1_555 1_555
Mn3_3 O5_8 1_555 1_555
Mn5_3 O3_10 1_555 1_555
Mn5_8 O1_10 1_555 1_555
O6_10 Mn3_5 1_555 1_555
O8_10 Mn3_5 1_555 1_555
O9_8 Mn3_5 1_555 1_555
C1_10 O4_10 1_555 1_555
C7_10 C8_10 1_555 1_555
O3_11 C5_11 1_555 1_555
O5_9 C5_11 1_555 1_555
Mn2_6 O5_9 1_555 1_555
Mn4_8 O3_11 1_555 1_555
Mn1_7 O1_11 1_555 1_555
C1_11 C3_11 1_555 1_555
C2_11 C3_11 1_555 1_555
C3_11 C7_11 1_555 1_555
C4_11 C1_11 1_555 1_555
C6_11 C4_11 1_555 1_555
C7_11 H2_11 1_555 1_555
C8_11 C6_11 1_555 1_555
H3_11 C8_11 1_555 1_555
O1_11 C2_11 1_555 1_555
O7_6 C2_11 1_555 1_555
O4_11 Mn1_7 1_555 1_555
H4_11 O4_11 1_555 1_555
Mn4_2 O1_11 1_555 1_555
O6_11 Mn1_7 1_555 1_555
O7_8 Mn1_7 1_555 1_555
O8_11 Mn1_7 1_555 1_555
O9_9 Mn1_7 1_555 1_555
C1_11 O4_11 1_555 1_555
C7_11 C8_11 1_555 1_555
Mn2 O1_12 1_555 1_555
C1_12 C3_12 1_555 1_555
C2_12 C3_12 1_555 1_555
C3_12 C7_12 1_555 1_555
C4_12 C1_12 1_555 1_555
C5_12 C4_12 1_555 1_555
C6_12 C4_12 1_555 1_555
H1_12 C6_12 1_555 1_555
C7_12 H2_12 1_555 1_555
C8_12 C6_12 1_555 1_555
H3_12 C8_12 1_555 1_555
O1_12 C2_12 1_555 1_555
O2_10 C2_12 1_555 1_555
O3_12 C5_12 1_555 1_555
O4_12 Mn2 1_555 1_555
O9 C5_12 1_555 1_555
H4_12 O4_12 1_555 1_555
Mn3_8 O2_10 1_555 1_555
Mn4_9 O3_12 1_555 1_555
Mn5_9 O1_12 1_555 1_555
O6_12 Mn2 1_555 1_555
O8_12 Mn2 1_555 1_555
C1_12 O4_12 1_555 1_555
C7_12 C8_12 1_555 1_555
Mn3_7 O1_13 1_555 1_555
C1_13 C3_13 1_555 1_555
C2_13 C3_13 1_555 1_555
C3_13 C7_13 1_555 1_555
C4_13 C1_13 1_555 1_555
C6_13 C4_13 1_555 1_555
C7_13 H2_13 1_555 1_555
C8_13 C6_13 1_555 1_555
H3_13 C8_13 1_555 1_555
O1_13 C2_13 1_555 1_555
O7_7 C2_13 1_555 1_555
O4_13 Mn3_7 1_555 1_555
H4_13 O4_13 1_555 1_555
Mn5_10 O1_13 1_555 1_555
O6_13 Mn3_7 1_555 1_555
O8_13 Mn3_7 1_555 1_555
O9_10 Mn3_7 1_555 1_555
C1_13 O4_13 1_555 1_555
C7_13 C8_13 1_555 1_555
O3_13 C5_13 1_555 1_555
O5_10 C5_13 1_555 1_555
Mn2_7 O5_10 1_555 1_555
Mn4_10 O3_13 1_555 1_555
Mn3_8 O1_14 1_555 1_555
C1_14 C3_14 1_555 1_555
C2_14 C3_14 1_555 1_555
C3_14 C7_14 1_555 1_555
C4_14 C1_14 1_555 1_555
C6_14 C4_14 1_555 1_555
C7_14 H2_14 1_555 1_555
C8_14 C6_14 1_555 1_555
H3_14 C8_14 1_555 1_555
O1_14 C2_14 1_555 1_555
O7_4 C2_14 1_555 1_555
O4_14 Mn3_8 1_555 1_555
H4_14 O4_14 1_555 1_555
Mn5_11 O1_14 1_555 1_555
O6_14 Mn3_8 1_555 1_555
O8_14 Mn3_8 1_555 1_555
O9_11 Mn3_8 1_555 1_555
C1_14 O4_14 1_555 1_555
C7_14 C8_14 1_555 1_555
O3_14 C5_14 1_555 1_555
O5_11 C5_14 1_555 1_555
Mn2_8 O5_11 1_555 1_555
Mn4_11 O3_14 1_555 1_555
Mn3_6 O1_15 1_555 1_555
C1_15 C3_15 1_555 1_555
C2_15 C3_15 1_555 1_555
C3_15 C7_15 1_555 1_555
C4_15 C1_15 1_555 1_555
C6_15 C4_15 1_555 1_555
C7_15 H2_15 1_555 1_555
C8_15 C6_15 1_555 1_555
H3_15 C8_15 1_555 1_555
O1_15 C2_15 1_555 1_555
O7_8 C2_15 1_555 1_555
O4_15 Mn3_6 1_555 1_555
H4_15 O4_15 1_555 1_555
Mn5_12 O1_15 1_555 1_555
O6_15 Mn3_6 1_555 1_555
O8_15 Mn3_6 1_555 1_555
O9_12 Mn3_6 1_555 1_555
C1_15 O4_15 1_555 1_555
C7_15 C8_15 1_555 1_555
O3_15 C5_15 1_555 1_555
O5_12 C5_15 1_555 1_555
Mn2_9 O5_12 1_555 1_555
Mn4_12 O3_15 1_555 1_555
Mn3_2 O1_16 1_555 1_555
C1_16 C3_16 1_555 1_555
C2_16 C3_16 1_555 1_555
C3_16 C7_16 1_555 1_555
C4_16 C1_16 1_555 1_555
C5_16 C4_16 1_555 1_555
C6_16 C4_16 1_555 1_555
H1_16 C6_16 1_555 1_555
C7_16 H2_16 1_555 1_555
C8_16 C6_16 1_555 1_555
H3_16 C8_16 1_555 1_555
O1_16 C2_16 1_555 1_555
O2_11 C2_16 1_555 1_555
O3_16 C5_16 1_555 1_555
O4_16 Mn3_2 1_555 1_555
O9_6 C5_16 1_555 1_555
H4_16 O4_16 1_555 1_555
Mn2_7 O2_11 1_555 1_555
Mn5_4 O3_16 1_555 1_555
Mn4_10 O1_16 1_555 1_555
O6_16 Mn3_2 1_555 1_555
O8_16 Mn3_2 1_555 1_555
C1_16 O4_16 1_555 1_555
C7_16 C8_16 1_555 1_555
Mn2_5 O1_17 1_555 1_555
C1_17 C3_17 1_555 1_555
C2_17 C3_17 1_555 1_555
C3_17 C7_17 1_555 1_555
C4_17 C1_17 1_555 1_555
C6_17 C4_17 1_555 1_555
C7_17 H2_17 1_555 1_555
C8_17 C6_17 1_555 1_555
H3_17 C8_17 1_555 1_555
O1_17 C2_17 1_555 1_555
O2_12 C2_17 1_555 1_555
O4_17 Mn2_5 1_555 1_555
H4_17 O4_17 1_555 1_555
Mn2_4 O2_12 1_555 1_555
Mn4_4 O1_17 1_555 1_555
O6_17 Mn2_5 1_555 1_555
O7_9 Mn2_5 1_555 1_555
O8_17 Mn2_5 1_555 1_555
C1_17 O4_17 1_555 1_555
C7_17 C8_17 1_555 1_555
O3_17 C5_17 1_555 1_555
O9_7 C5_17 1_555 1_555
Mn5_10 O3_17 1_555 1_555
Mn2_4 O1_18 1_555 1_555
C1_18 C3_18 1_555 1_555
C2_18 C3_18 1_555 1_555
C3_18 C7_18 1_555 1_555
C4_18 C1_18 1_555 1_555
C6_18 C4_18 1_555 1_555
C7_18 H2_18 1_555 1_555
C8_18 C6_18 1_555 1_555
H3_18 C8_18 1_555 1_555
O1_18 C2_18 1_555 1_555
O2_13 C2_18 1_555 1_555
O4_18 Mn2_4 1_555 1_555
H4_18 O4_18 1_555 1_555
Mn2_6 O2_13 1_555 1_555
Mn4_8 O1_18 1_555 1_555
O6_18 Mn2_4 1_555 1_555
O8_18 Mn2_4 1_555 1_555
C1_18 O4_18 1_555 1_555
C7_18 C8_18 1_555 1_555
O3_18 C5_18 1_555 1_555
O9_4 C5_18 1_555 1_555
Mn5_11 O3_18 1_555 1_555
O3_19 C5_19 1_555 1_555
O9_11 C5_19 1_555 1_555
Mn5_9 O3_19 1_555 1_555
Mn2_8 O1_19 1_555 1_555
C1_19 C3_19 1_555 1_555
C2_19 C3_19 1_555 1_555
C3_19 C7_19 1_555 1_555
C4_19 C1_19 1_555 1_555
C6_19 C4_19 1_555 1_555
C7_19 H2_19 1_555 1_555
C8_19 C6_19 1_555 1_555
H3_19 C8_19 1_555 1_555
O1_19 C2_19 1_555 1_555
O7_3 C2_19 1_555 1_555
O4_19 Mn2_8 1_555 1_555
H4_19 O4_19 1_555 1_555
Mn4_7 O1_19 1_555 1_555
O6_19 Mn2_8 1_555 1_555
O7_10 Mn2_8 1_555 1_555
O8_19 Mn2_8 1_555 1_555
C1_19 O4_19 1_555 1_555
C7_19 C8_19 1_555 1_555
Mn3 O1_20 1_555 1_555
C1_20 C3_20 1_555 1_555
C2_20 C3_20 1_555 1_555
C3_20 C7_20 1_555 1_555
C4_20 C1_20 1_555 1_555
C5_20 C4_20 1_555 1_555
C6_20 C4_20 1_555 1_555
H1_20 C6_20 1_555 1_555
C7_20 H2_20 1_555 1_555
C8_20 C6_20 1_555 1_555
H3_20 C8_20 1_555 1_555
O1_20 C2_20 1_555 1_555
O2_14 C2_20 1_555 1_555
O3_20 C5_20 1_555 1_555
O4_20 Mn3 1_555 1_555
O9_5 C5_20 1_555 1_555
H4_20 O4_20 1_555 1_555
Mn2_9 O2_14 1_555 1_555
Mn5_8 O3_20 1_555 1_555
Mn4_12 O1_20 1_555 1_555
O6_20 Mn3 1_555 1_555
O8_20 Mn3 1_555 1_555
C1_20 O4_20 1_555 1_555
C7_20 C8_20 1_555 1_555
O3_21 C5_21 1_555 1_555
O9_12 C5_21 1_555 1_555
Mn5_6 O3_21 1_555 1_555
Mn2_9 O1_21 1_555 1_555
C1_21 C3_21 1_555 1_555
C2_21 C3_21 1_555 1_555
C3_21 C7_21 1_555 1_555
C4_21 C1_21 1_555 1_555
C6_21 C4_21 1_555 1_555
C7_21 H2_21 1_555 1_555
C8_21 C6_21 1_555 1_555
H3_21 C8_21 1_555 1_555
O1_21 C2_21 1_555 1_555
O7 C2_21 1_555 1_555
O4_21 Mn2_9 1_555 1_555
H4_21 O4_21 1_555 1_555
Mn4_9 O1_21 1_555 1_555
O6_21 Mn2_9 1_555 1_555
O8_21 Mn2_9 1_555 1_555
C1_21 O4_21 1_555 1_555
C7_21 C8_21 1_555 1_555
Mn2_6 O1_22 1_555 1_555
C1_22 C3_22 1_555 1_555
C2_22 C3_22 1_555 1_555
C3_22 C7_22 1_555 1_555
C4_22 C1_22 1_555 1_555
C6_22 C4_22 1_555 1_555
C7_22 H2_22 1_555 1_555
C8_22 C6_22 1_555 1_555
H3_22 C8_22 1_555 1_555
O1_22 C2_22 1_555 1_555
O7_9 C2_22 1_555 1_555
O4_22 Mn2_6 1_555 1_555
H4_22 O4_22 1_555 1_555
Mn4_6 O1_22 1_555 1_555
O6_22 Mn2_6 1_555 1_555
O8_22 Mn2_6 1_555 1_555
C1_22 O4_22 1_555 1_555
C7_22 C8_22 1_555 1_555
O3_22 C5_22 1_555 1_555
O9_9 C5_22 1_555 1_555
Mn5_12 O3_22 1_555 1_555
Mn3_3 O1_23 1_555 1_555
C1_23 C3_23 1_555 1_555
C2_23 C3_23 1_555 1_555
C3_23 C7_23 1_555 1_555
C4_23 C1_23 1_555 1_555
C5_23 C4_23 1_555 1_555
C6_23 C4_23 1_555 1_555
H1_23 C6_23 1_555 1_555
C7_23 H2_23 1_555 1_555
C8_23 C6_23 1_555 1_555
H3_23 C8_23 1_555 1_555
O1_23 C2_23 1_555 1_555
O7_10 C2_23 1_555 1_555
O3_23 C5_23 1_555 1_555
O4_23 Mn3_3 1_555 1_555
O9_8 C5_23 1_555 1_555
H4_23 O4_23 1_555 1_555
Mn5_5 O3_23 1_555 1_555
Mn4_11 O1_23 1_555 1_555
O6_23 Mn3_3 1_555 1_555
O8_23 Mn3_3 1_555 1_555
C1_23 O4_23 1_555 1_555
C7_23 C8_23 1_555 1_555
O3_24 C5_24 1_555 1_555
O9_10 C5_24 1_555 1_555
Mn5_7 O3_24 1_555 1_555
Mn2_7 O1_24 1_555 1_555
C1_24 C3_24 1_555 1_555
C2_24 C3_24 1_555 1_555
C3_24 C7_24 1_555 1_555
C4_24 C1_24 1_555 1_555
C6_24 C4_24 1_555 1_555
C7_24 H2_24 1_555 1_555
C8_24 C6_24 1_555 1_555
H3_24 C8_24 1_555 1_555
O1_24 C2_24 1_555 1_555
O7_2 C2_24 1_555 1_555
O4_24 Mn2_7 1_555 1_555
H4_24 O4_24 1_555 1_555
Mn4_5 O1_24 1_555 1_555
O6_24 Mn2_7 1_555 1_555
O8_24 Mn2_7 1_555 1_555
C1_24 O4_24 1_555 1_555
C7_24 C8_24 1_555 1_555
Mn4_3 O6_9 1_555 1_555
C1_25 C3_25 1_555 1_555
C2_25 C3_25 1_555 1_555
C3_25 C7_25 1_555 1_555
C4_25 C1_25 1_555 1_555
C5_25 C4_25 1_555 1_555
C6_25 C4_25 1_555 1_555
H1_25 C6_25 1_555 1_555
C7_25 H2_25 1_555 1_555
C8_25 C6_25 1_555 1_555
H3_25 C8_25 1_555 1_555
O6_9 C2_25 1_555 1_555
O2_15 C2_25 1_555 1_555
O8_2 C5_25 1_555 1_555
O4_25 Mn4_3 1_555 1_555
O5_13 C5_25 1_555 1_555
H4_25 O4_25 1_555 1_555
Mn5_2 O5_13 1_555 1_555
Mn5_7 O2_15 1_555 1_555
O7_11 Mn4_3 1_555 1_555
O9_13 Mn4_3 1_555 1_555
C1_25 O4_25 1_555 1_555
C7_25 C8_25 1_555 1_555
Mn4 O6_12 1_555 1_555
C1_26 C3_26 1_555 1_555
C2_26 C3_26 1_555 1_555
C3_26 C7_26 1_555 1_555
C4_26 C1_26 1_555 1_555
C5_26 C4_26 1_555 1_555
C6_26 C4_26 1_555 1_555
H1_26 C6_26 1_555 1_555
C7_26 H2_26 1_555 1_555
C8_26 C6_26 1_555 1_555
H3_26 C8_26 1_555 1_555
O6_12 C2_26 1_555 1_555
O2_16 C2_26 1_555 1_555
O8_3 C5_26 1_555 1_555
O4_26 Mn4 1_555 1_555
O5_14 C5_26 1_555 1_555
H4_26 O4_26 1_555 1_555
Mn5_3 O5_14 1_555 1_555
Mn5_9 O2_16 1_555 1_555
O7_12 Mn4 1_555 1_555
O9_14 Mn4 1_555 1_555
C1_26 O4_26 1_555 1_555
C7_26 C8_26 1_555 1_555
Mn4_2 O6_7 1_555 1_555
C1_27 C3_27 1_555 1_555
C2_27 C3_27 1_555 1_555
C3_27 C7_27 1_555 1_555
C4_27 C1_27 1_555 1_555
C5_27 C4_27 1_555 1_555
C6_27 C4_27 1_555 1_555
H1_27 C6_27 1_555 1_555
C7_27 H2_27 1_555 1_555
C8_27 C6_27 1_555 1_555
H3_27 C8_27 1_555 1_555
O6_7 C2_27 1_555 1_555
O2_17 C2_27 1_555 1_555
O8 C5_27 1_555 1_555
O4_27 Mn4_2 1_555 1_555
O5_15 C5_27 1_555 1_555
H4_27 O4_27 1_555 1_555
Mn5 O5_15 1_555 1_555
Mn5_6 O2_17 1_555 1_555
O7_13 Mn4_2 1_555 1_555
O9_15 Mn4_2 1_555 1_555
C1_27 O4_27 1_555 1_555
C7_27 C8_27 1_555 1_555
Mn4_5 O6_2 1_555 1_555
C1_28 C3_28 1_555 1_555
C2_28 C3_28 1_555 1_555
C3_28 C7_28 1_555 1_555
C4_28 C1_28 1_555 1_555
C6_28 C4_28 1_555 1_555
C7_28 H2_28 1_555 1_555
C8_28 C6_28 1_555 1_555
H3_28 C8_28 1_555 1_555
O6_2 C2_28 1_555 1_555
O2_18 C2_28 1_555 1_555
O4_28 Mn4_5 1_555 1_555
H4_28 O4_28 1_555 1_555
Mn5_2 O2_18 1_555 1_555
O7_14 Mn4_5 1_555 1_555
O9_16 Mn4_5 1_555 1_555
C1_28 O4_28 1_555 1_555
C7_28 C8_28 1_555 1_555
O8_10 C5_28 1_555 1_555
O5_16 C5_28 1_555 1_555
Mn5_8 O5_16 1_555 1_555
Mn4_8 O6_22 1_555 1_555
C1_29 C3_29 1_555 1_555
C2_29 C3_29 1_555 1_555
C3_29 C7_29 1_555 1_555
C4_29 C1_29 1_555 1_555
C5_29 C4_29 1_555 1_555
C6_29 C4_29 1_555 1_555
H1_29 C6_29 1_555 1_555
C7_29 H2_29 1_555 1_555
C8_29 C6_29 1_555 1_555
H3_29 C8_29 1_555 1_555
O6_22 C2_29 1_555 1_555
O2_19 C2_29 1_555 1_555
O8_9 C5_29 1_555 1_555
O4_29 Mn4_8 1_555 1_555
O5_17 C5_29 1_555 1_555
H4_29 O4_29 1_555 1_555
Mn5_7 O5_17 1_555 1_555
Mn4_6 O2_19 1_555 1_555
O7_15 Mn4_8 1_555 1_555
O9_17 Mn4_8 1_555 1_555
C1_29 O4_29 1_555 1_555
C7_29 C8_29 1_555 1_555
Mn4_6 O6_17 1_555 1_555
C1_30 C3_30 1_555 1_555
C2_30 C3_30 1_555 1_555
C3_30 C7_30 1_555 1_555
C4_30 C1_30 1_555 1_555
C5_30 C4_30 1_555 1_555
C6_30 C4_30 1_555 1_555
H1_30 C6_30 1_555 1_555
C7_30 H2_30 1_555 1_555
C8_30 C6_30 1_555 1_555
H3_30 C8_30 1_555 1_555
O6_17 C2_30 1_555 1_555
O2_20 C2_30 1_555 1_555
O8_12 C5_30 1_555 1_555
O4_30 Mn4_6 1_555 1_555
O5_18 C5_30 1_555 1_555
H4_30 O4_30 1_555 1_555
Mn5_9 O5_18 1_555 1_555
Mn4_4 O2_20 1_555 1_555
O9_18 Mn4_6 1_555 1_555
C1_30 O4_30 1_555 1_555
C7_30 C8_30 1_555 1_555
Mn5_3 O6_23 1_555 1_555
C1_31 C3_31 1_555 1_555
C2_31 C3_31 1_555 1_555
C3_31 C7_31 1_555 1_555
C4_31 C1_31 1_555 1_555
C5_31 C4_31 1_555 1_555
C6_31 C4_31 1_555 1_555
H1_31 C6_31 1_555 1_555
C7_31 H2_31 1_555 1_555
C8_31 C6_31 1_555 1_555
H3_31 C8_31 1_555 1_555
O6_23 C2_31 1_555 1_555
O2_21 C2_31 1_555 1_555
O8_4 C5_31 1_555 1_555
O4_31 Mn5_3 1_555 1_555
O9_14 C5_31 1_555 1_555
H4_31 O4_31 1_555 1_555
Mn4_11 O2_21 1_555 1_555
O7_16 Mn5_3 1_555 1_555
C1_31 O4_31 1_555 1_555
C7_31 C8_31 1_555 1_555
Mn4_9 O6 1_555 1_555
C1_32 C3_32 1_555 1_555
C2_32 C3_32 1_555 1_555
C3_32 C7_32 1_555 1_555
C4_32 C1_32 1_555 1_555
C6_32 C4_32 1_555 1_555
C7_32 H2_32 1_555 1_555
C8_32 C6_32 1_555 1_555
H3_32 C8_32 1_555 1_555
O6 C2_32 1_555 1_555
O2_22 C2_32 1_555 1_555
O4_32 Mn4_9 1_555 1_555
H4_32 O4_32 1_555 1_555
Mn5 O2_22 1_555 1_555
O7_17 Mn4_9 1_555 1_555
O9_19 Mn4_9 1_555 1_555
C1_32 O4_32 1_555 1_555
C7_32 C8_32 1_555 1_555
O8_6 C5_32 1_555 1_555
O5_19 C5_32 1_555 1_555
Mn5_5 O5_19 1_555 1_555
Mn5 O6_20 1_555 1_555
C1_33 C3_33 1_555 1_555
C2_33 C3_33 1_555 1_555
C3_33 C7_33 1_555 1_555
C4_33 C1_33 1_555 1_555
C5_33 C4_33 1_555 1_555
C6_33 C4_33 1_555 1_555
H1_33 C6_33 1_555 1_555
C7_33 H2_33 1_555 1_555
C8_33 C6_33 1_555 1_555
H3_33 C8_33 1_555 1_555
O6_20 C2_33 1_555 1_555
O2_23 C2_33 1_555 1_555
O8_11 C5_33 1_555 1_555
O4_33 Mn5 1_555 1_555
O9_15 C5_33 1_555 1_555
H4_33 O4_33 1_555 1_555
Mn4_12 O2_23 1_555 1_555
C1_33 O4_33 1_555 1_555
C7_33 C8_33 1_555 1_555
Mn4_4 O6_18 1_555 1_555
C1_34 C3_34 1_555 1_555
C2_34 C3_34 1_555 1_555
C3_34 C7_34 1_555 1_555
C4_34 C1_34 1_555 1_555
C5_34 C4_34 1_555 1_555
C6_34 C4_34 1_555 1_555
H1_34 C6_34 1_555 1_555
C7_34 H2_34 1_555 1_555
C8_34 C6_34 1_555 1_555
H3_34 C8_34 1_555 1_555
O6_18 C2_34 1_555 1_555
O7_15 C2_34 1_555 1_555
O8_7 C5_34 1_555 1_555
O4_34 Mn4_4 1_555 1_555
O5_20 C5_34 1_555 1_555
H4_34 O4_34 1_555 1_555
Mn5_6 O5_20 1_555 1_555
O9_20 Mn4_4 1_555 1_555
C1_34 O4_34 1_555 1_555
C7_34 C8_34 1_555 1_555
Mn4_7 O6_3 1_555 1_555
C1_35 C3_35 1_555 1_555
C2_35 C3_35 1_555 1_555
C3_35 C7_35 1_555 1_555
C4_35 C1_35 1_555 1_555
C6_35 C4_35 1_555 1_555
C7_35 H2_35 1_555 1_555
C8_35 C6_35 1_555 1_555
H3_35 C8_35 1_555 1_555
O6_3 C2_35 1_555 1_555
O7_16 C2_35 1_555 1_555
O4_35 Mn4_7 1_555 1_555
H4_35 O4_35 1_555 1_555
O7_18 Mn4_7 1_555 1_555
O9_21 Mn4_7 1_555 1_555
C1_35 O4_35 1_555 1_555
C7_35 C8_35 1_555 1_555
O8_5 C5_35 1_555 1_555
O5_21 C5_35 1_555 1_555
Mn5_4 O5_21 1_555 1_555
Mn5_2 O6_16 1_555 1_555
C1_36 C3_36 1_555 1_555
C2_36 C3_36 1_555 1_555
C3_36 C7_36 1_555 1_555
C4_36 C1_36 1_555 1_555
C5_36 C4_36 1_555 1_555
C6_36 C4_36 1_555 1_555
H1_36 C6_36 1_555 1_555
C7_36 H2_36 1_555 1_555
C8_36 C6_36 1_555 1_555
H3_36 C8_36 1_555 1_555
O6_16 C2_36 1_555 1_555
O2_24 C2_36 1_555 1_555
O8_8 C5_36 1_555 1_555
O4_36 Mn5_2 1_555 1_555
O9_13 C5_36 1_555 1_555
H4_36 O4_36 1_555 1_555
Mn4_10 O2_24 1_555 1_555
C1_36 O4_36 1_555 1_555
C7_36 C8_36 1_555 1_555
O8_14 C5_37 1_555 1_555
O5_22 C5_37 1_555 1_555
Mn5_11 O5_22 1_555 1_555
Mn4_12 O6_21 1_555 1_555
C1_37 C3_37 1_555 1_555
C2_37 C3_37 1_555 1_555
C3_37 C7_37 1_555 1_555
C4_37 C1_37 1_555 1_555
C6_37 C4_37 1_555 1_555
C7_37 H2_37 1_555 1_555
C8_37 C6_37 1_555 1_555
H3_37 C8_37 1_555 1_555
O6_21 C2_37 1_555 1_555
O7_17 C2_37 1_555 1_555
O4_37 Mn4_12 1_555 1_555
H4_37 O4_37 1_555 1_555
O9_22 Mn4_12 1_555 1_555
C1_37 O4_37 1_555 1_555
C7_37 C8_37 1_555 1_555
O8_15 C5_38 1_555 1_555
O5_23 C5_38 1_555 1_555
Mn5_12 O5_23 1_555 1_555
Mn4_10 O6_24 1_555 1_555
C1_38 C3_38 1_555 1_555
C2_38 C3_38 1_555 1_555
C3_38 C7_38 1_555 1_555
C4_38 C1_38 1_555 1_555
C6_38 C4_38 1_555 1_555
C7_38 H2_38 1_555 1_555
C8_38 C6_38 1_555 1_555
H3_38 C8_38 1_555 1_555
O6_24 C2_38 1_555 1_555
O7_14 C2_38 1_555 1_555
O4_38 Mn4_10 1_555 1_555
H4_38 O4_38 1_555 1_555
O9_23 Mn4_10 1_555 1_555
C1_38 O4_38 1_555 1_555
C7_38 C8_38 1_555 1_555
O8_13 C5_39 1_555 1_555
O5_24 C5_39 1_555 1_555
Mn5_10 O5_24 1_555 1_555
Mn4_11 O6_19 1_555 1_555
C1_39 C3_39 1_555 1_555
C2_39 C3_39 1_555 1_555
C3_39 C7_39 1_555 1_555
C4_39 C1_39 1_555 1_555
C6_39 C4_39 1_555 1_555
C7_39 H2_39 1_555 1_555
C8_39 C6_39 1_555 1_555
H3_39 C8_39 1_555 1_555
O6_19 C2_39 1_555 1_555
O7_18 C2_39 1_555 1_555
O4_39 Mn4_11 1_555 1_555
H4_39 O4_39 1_555 1_555
O9_24 Mn4_11 1_555 1_555
C1_39 O4_39 1_555 1_555
C7_39 C8_39 1_555 1_555
Mn5_9 O6_14 1_555 1_555
C1_40 C3_40 1_555 1_555
C2_40 C3_40 1_555 1_555
C3_40 C7_40 1_555 1_555
C4_40 C1_40 1_555 1_555
C5_40 C4_40 1_555 1_555
C6_40 C4_40 1_555 1_555
H1_40 C6_40 1_555 1_555
C7_40 H2_40 1_555 1_555
C8_40 C6_40 1_555 1_555
H3_40 C8_40 1_555 1_555
O6_14 C2_40 1_555 1_555
O2_25 C2_40 1_555 1_555
O8_22 C5_40 1_555 1_555
O4_40 Mn5_9 1_555 1_555
O9_18 C5_40 1_555 1_555
H4_40 O4_40 1_555 1_555
Mn5_11 O2_25 1_555 1_555
C1_40 O4_40 1_555 1_555
C7_40 C8_40 1_555 1_555
O8_21 C5_41 1_555 1_555
O9_19 C5_41 1_555 1_555
Mn5_5 O6_10 1_555 1_555
C1_41 C3_41 1_555 1_555
C2_41 C3_41 1_555 1_555
C3_41 C7_41 1_555 1_555
C4_41 C1_41 1_555 1_555
C6_41 C4_41 1_555 1_555
C7_41 H2_41 1_555 1_555
C8_41 C6_41 1_555 1_555
H3_41 C8_41 1_555 1_555
O6_10 C2_41 1_555 1_555
O2_26 C2_41 1_555 1_555
O4_41 Mn5_5 1_555 1_555
H4_41 O4_41 1_555 1_555
Mn5_8 O2_26 1_555 1_555
O7_19 Mn5_5 1_555 1_555
C1_41 O4_41 1_555 1_555
C7_41 C8_41 1_555 1_555
O8_24 C5_42 1_555 1_555
O9_16 C5_42 1_555 1_555
Mn5_8 O6_5 1_555 1_555
C1_42 C3_42 1_555 1_555
C2_42 C3_42 1_555 1_555
C3_42 C7_42 1_555 1_555
C4_42 C1_42 1_555 1_555
C6_42 C4_42 1_555 1_555
C7_42 H2_42 1_555 1_555
C8_42 C6_42 1_555 1_555
H3_42 C8_42 1_555 1_555
O6_5 C2_42 1_555 1_555
O2_27 C2_42 1_555 1_555
O4_42 Mn5_8 1_555 1_555
H4_42 O4_42 1_555 1_555
Mn5_4 O2_27 1_555 1_555
C1_42 O4_42 1_555 1_555
C7_42 C8_42 1_555 1_555
Mn5_12 O6_11 1_555 1_555
C1_43 C3_43 1_555 1_555
C2_43 C3_43 1_555 1_555
C3_43 C7_43 1_555 1_555
C4_43 C1_43 1_555 1_555
C6_43 C4_43 1_555 1_555
C7_43 H2_43 1_555 1_555
C8_43 C6_43 1_555 1_555
H3_43 C8_43 1_555 1_555
O6_11 C2_43 1_555 1_555
O7_13 C2_43 1_555 1_555
O4_43 Mn5_12 1_555 1_555
H4_43 O4_43 1_555 1_555
O7_20 Mn5_12 1_555 1_555
C1_43 O4_43 1_555 1_555
C7_43 C8_43 1_555 1_555
O8_16 C5_43 1_555 1_555
O9_23 C5_43 1_555 1_555
Mn5_7 O6_13 1_555 1_555
C1_44 C3_44 1_555 1_555
C2_44 C3_44 1_555 1_555
C3_44 C7_44 1_555 1_555
C4_44 C1_44 1_555 1_555
C5_44 C4_44 1_555 1_555
C6_44 C4_44 1_555 1_555
H1_44 C6_44 1_555 1_555
C7_44 H2_44 1_555 1_555
C8_44 C6_44 1_555 1_555
H3_44 C8_44 1_555 1_555
O6_13 C2_44 1_555 1_555
O2_28 C2_44 1_555 1_555
O8_18 C5_44 1_555 1_555
O4_44 Mn5_7 1_555 1_555
O9_17 C5_44 1_555 1_555
H4_44 O4_44 1_555 1_555
Mn5_10 O2_28 1_555 1_555
C1_44 O4_44 1_555 1_555
C7_44 C8_44 1_555 1_555
Mn5_10 O6_8 1_555 1_555
C1_45 C3_45 1_555 1_555
C2_45 C3_45 1_555 1_555
C3_45 C7_45 1_555 1_555
C4_45 C1_45 1_555 1_555
C6_45 C4_45 1_555 1_555
C7_45 H2_45 1_555 1_555
C8_45 C6_45 1_555 1_555
H3_45 C8_45 1_555 1_555
O6_8 C2_45 1_555 1_555
O7_11 C2_45 1_555 1_555
O4_45 Mn5_10 1_555 1_555
H4_45 O4_45 1_555 1_555
C1_45 O4_45 1_555 1_555
C7_45 C8_45 1_555 1_555
O8_23 C5_45 1_555 1_555
O9_24 C5_45 1_555 1_555
O8_19 C5_46 1_555 1_555
O9_21 C5_46 1_555 1_555
Mn5_4 O6_6 1_555 1_555
C1_46 C3_46 1_555 1_555
C2_46 C3_46 1_555 1_555
C3_46 C7_46 1_555 1_555
C4_46 C1_46 1_555 1_555
C6_46 C4_46 1_555 1_555
C7_46 H2_46 1_555 1_555
C8_46 C6_46 1_555 1_555
H3_46 C8_46 1_555 1_555
O6_6 C2_46 1_555 1_555
O7_19 C2_46 1_555 1_555
O4_46 Mn5_4 1_555 1_555
H4_46 O4_46 1_555 1_555
C1_46 O4_46 1_555 1_555
C7_46 C8_46 1_555 1_555
Mn5_6 O6_15 1_555 1_555
C1_47 C3_47 1_555 1_555
C2_47 C3_47 1_555 1_555
C3_47 C7_47 1_555 1_555
C4_47 C1_47 1_555 1_555
C5_47 C4_47 1_555 1_555
C6_47 C4_47 1_555 1_555
H1_47 C6_47 1_555 1_555
C7_47 H2_47 1_555 1_555
C8_47 C6_47 1_555 1_555
H3_47 C8_47 1_555 1_555
O6_15 C2_47 1_555 1_555
O7_20 C2_47 1_555 1_555
O8_17 C5_47 1_555 1_555
O4_47 Mn5_6 1_555 1_555
O9_20 C5_47 1_555 1_555
H4_47 O4_47 1_555 1_555
C1_47 O4_47 1_555 1_555
C7_47 C8_47 1_555 1_555
Mn5_11 O6_4 1_555 1_555
C1_48 C3_48 1_555 1_555
C2_48 C3_48 1_555 1_555
C3_48 C7_48 1_555 1_555
C4_48 C1_48 1_555 1_555
C6_48 C4_48 1_555 1_555
C7_48 H2_48 1_555 1_555
C8_48 C6_48 1_555 1_555
H3_48 C8_48 1_555 1_555
O6_4 C2_48 1_555 1_555
O7_12 C2_48 1_555 1_555
O4_48 Mn5_11 1_555 1_555
H4_48 O4_48 1_555 1_555
C1_48 O4_48 1_555 1_555
C7_48 C8_48 1_555 1_555
O8_20 C5_48 1_555 1_555
O9_22 C5_48 1_555 1_555

#END
