
###############################################################################
#
# This file contains modified crystal structure data generated from the
# MOF subset of the Cambridge Structural Database (CSD) v543 
# hosted by the Cambridge Crystallographic Data Centre (CCDC).
#
# This work is licensed under the Creative Commons
# Attribution-NonCommercial-ShareAlike 4.0 International License.
# To view a copy of this license, visit
# http://creativecommons.org/licenses/by-nc-sa/4.0/
# or send a letter to
# Creative Commons, PO Box 1866, Mountain View, CA 94042, USA.
#
# CIF created using the CSD Python API on 29 September 2022
# The structure has been converted into the P1 space group
# The structure has a 3D framework
# The original CSD entry NOPXUN is in the cubic crystal system
# The framework has been calculated to contain at least 10.0% void space
# The void calculation uses a probe of radius 1.32A, grid spacing 0.4
#
###############################################################################

data_NOPXUN
_chemical_formula_moiety         '(C384 H192 Cd48 O240)n'
_symmetry_cell_setting           triclinic
_symmetry_space_group_name_H-M   'P 1'
_symmetry_Int_Tables_number      1
_space_group_name_Hall           'P 1'
loop_
_symmetry_equiv_pos_site_id
_symmetry_equiv_pos_as_xyz
1 x,y,z
_cell_length_a                   22.9897(18)
_cell_length_b                   22.9897(18)
_cell_length_c                   22.9897(18)
_cell_angle_alpha                90
_cell_angle_beta                 90
_cell_angle_gamma                90
_cell_volume                     12150.7
loop_
_atom_site_label
_atom_site_type_symbol
_atom_site_fract_x
_atom_site_fract_y
_atom_site_fract_z
Cd1 Cd 0.759175(9) 0.687174(8) 0.119347(9)
O1 O 0.60724(10) 0.74441(10) 0.21717(9)
O2 O 0.67899(9) 0.69378(9) 0.17680(9)
O3 O 0.67615(10) 0.68811(9) 0.05819(10)
C1 C 0.63472(13) 0.73029(13) 0.06175(12)
C2 C 0.61123(13) 0.75368(14) 0.01026(13)
C3 C 0.54950(17) 0.81760(17) 0.06655(15)
H1 H 0.52110(17) 0.84757(17) 0.06839(15)
C4 C 0.56866(15) 0.79685(15) 0.01318(14)
C5 C 0.61491(13) 0.75034(13) 0.11613(12)
C6 C 0.57223(15) 0.79413(15) 0.11686(13)
H3 H 0.55857(15) 0.80804(15) 0.15330(13)
C8 C 0.63541(13) 0.72806(13) 0.17375(13)
H4 H 0.682(2) 0.681(2) 0.025(2)
Cd3 Cd 0.687174(8) 0.619347(9) 0.240825(9)
Cd4 Cd 0.619347(9) 0.740825(9) 0.312826(8)
O6 O 0.75559(10) 0.78283(9) 0.10724(10)
O7 O 0.82320(9) 0.67899(9) 0.19378(9)
O8 O 0.82917(10) 0.69385(10) 0.04953(9)
O9 O 0.75688(10) 0.59182(9) 0.10942(10)
O4 O 0.67083(10) 0.69385(10) 0.95047(9)
O5 O 0.60942(10) 0.75688(10) 0.90818(9)
H2 H 0.55264(15) 0.81219(15) 0.97832(14)
C7 C 0.63165(13) 0.73359(13) 0.95172(13)
Cd2 Cd 0.740825(9) 0.687174(8) 0.880653(9)
Cd5 Cd 0.619347(9) 0.759175(9) 0.812826(8)
Cd1_2 Cd 0.119347(9) 0.759175(9) 0.687174(8)
O1_2 O 0.21717(9) 0.60724(10) 0.74441(10)
O2_2 O 0.17680(9) 0.67899(9) 0.69378(9)
O3_2 O 0.05819(10) 0.67615(10) 0.68811(9)
C1_2 C 0.06175(12) 0.63472(13) 0.73029(13)
C2_2 C 0.01026(13) 0.61123(13) 0.75368(14)
C3_2 C 0.06655(15) 0.54950(17) 0.81760(17)
H1_2 H 0.06839(15) 0.52110(17) 0.84757(17)
C4_2 C 0.01318(14) 0.56866(15) 0.79685(15)
C5_2 C 0.11613(12) 0.61491(13) 0.75034(13)
C6_2 C 0.11686(13) 0.57223(15) 0.79413(15)
H3_2 H 0.15330(13) 0.55857(15) 0.80804(15)
C8_2 C 0.17375(13) 0.63541(13) 0.72806(13)
H4_2 H 0.025(2) 0.682(2) 0.681(2)
Cd3_2 Cd 0.240825(9) 0.687174(8) 0.619347(9)
Cd4_2 Cd 0.312826(8) 0.619347(9) 0.740825(9)
O6_2 O 0.10724(10) 0.75559(10) 0.78283(9)
O7_2 O 0.19378(9) 0.82320(9) 0.67899(9)
O8_2 O 0.04953(9) 0.82917(10) 0.69385(10)
O9_2 O 0.10942(10) 0.75688(10) 0.59182(9)
O4_2 O 0.95047(9) 0.67083(10) 0.69385(10)
O5_2 O 0.90818(9) 0.60942(10) 0.75688(10)
H2_2 H 0.97832(14) 0.55264(15) 0.81219(15)
C7_2 C 0.95172(13) 0.63165(13) 0.73359(13)
Cd2_2 Cd 0.880653(9) 0.740825(9) 0.687174(8)
Cd5_2 Cd 0.812826(8) 0.619347(9) 0.759175(9)
Cd1_3 Cd 0.687174(8) 0.119347(9) 0.759175(9)
O1_3 O 0.74441(10) 0.21717(9) 0.60724(10)
O2_3 O 0.69378(9) 0.17680(9) 0.67899(9)
O3_3 O 0.68811(9) 0.05819(10) 0.67615(10)
C1_3 C 0.73029(13) 0.06175(12) 0.63472(13)
C2_3 C 0.75368(14) 0.01026(13) 0.61123(13)
C3_3 C 0.81760(17) 0.06655(15) 0.54950(17)
H1_3 H 0.84757(17) 0.06839(15) 0.52110(17)
C4_3 C 0.79685(15) 0.01318(14) 0.56866(15)
C5_3 C 0.75034(13) 0.11613(12) 0.61491(13)
C6_3 C 0.79413(15) 0.11686(13) 0.57223(15)
H3_3 H 0.80804(15) 0.15330(13) 0.55857(15)
C8_3 C 0.72806(13) 0.17375(13) 0.63541(13)
H4_3 H 0.681(2) 0.025(2) 0.682(2)
Cd3_3 Cd 0.619347(9) 0.240825(9) 0.687174(8)
Cd4_3 Cd 0.740825(9) 0.312826(8) 0.619347(9)
O6_3 O 0.78283(9) 0.10724(10) 0.75559(10)
O7_3 O 0.67899(9) 0.19378(9) 0.82320(9)
O8_3 O 0.69385(10) 0.04953(9) 0.82917(10)
O9_3 O 0.59182(9) 0.10942(10) 0.75688(10)
O4_3 O 0.69385(10) 0.95047(9) 0.67083(10)
O5_3 O 0.75688(10) 0.90818(9) 0.60942(10)
H2_3 H 0.81219(15) 0.97832(14) 0.55264(15)
C7_3 C 0.73359(13) 0.95172(13) 0.63165(13)
Cd2_3 Cd 0.687174(8) 0.880653(9) 0.740825(9)
Cd5_3 Cd 0.759175(9) 0.812826(8) 0.619347(9)
Cd1_4 Cd 0.312826(8) 0.380653(9) 0.759175(9)
O1_4 O 0.25559(10) 0.28283(9) 0.60724(10)
O2_4 O 0.30622(9) 0.32320(9) 0.67899(9)
O3_4 O 0.31189(9) 0.44181(10) 0.67615(10)
O4_4 O 0.30615(10) 0.54953(9) 0.67083(10)
O5_4 O 0.24312(10) 0.59182(9) 0.60942(10)
C1_4 C 0.26971(13) 0.43825(12) 0.63472(13)
C2_4 C 0.24632(14) 0.48974(13) 0.61123(13)
C3_4 C 0.18240(17) 0.43345(15) 0.54950(17)
H1_4 H 0.15243(17) 0.43161(15) 0.52110(17)
C4_4 C 0.20315(15) 0.48682(14) 0.56866(15)
H2_4 H 0.18781(15) 0.52168(14) 0.55264(15)
C5_4 C 0.24966(13) 0.38387(12) 0.61491(13)
C6_4 C 0.20587(15) 0.38314(13) 0.57223(15)
H3_4 H 0.19196(15) 0.34670(13) 0.55857(15)
C7_4 C 0.26641(13) 0.54828(13) 0.63165(13)
C8_4 C 0.27194(13) 0.32625(13) 0.63541(13)
H4_4 H 0.319(2) 0.475(2) 0.682(2)
Cd3_4 Cd 0.380653(9) 0.259175(9) 0.687174(8)
Cd4_4 Cd 0.259175(9) 0.187174(8) 0.619347(9)
O6_4 O 0.21717(9) 0.39276(10) 0.75559(10)
O7_4 O 0.32101(9) 0.30622(9) 0.82320(9)
O8_4 O 0.30615(10) 0.45047(9) 0.82917(10)
O9_4 O 0.40818(9) 0.39058(10) 0.75688(10)
Cd1_5 Cd 0.119347(9) 0.240825(9) 0.812826(8)
O2_5 O 0.17680(9) 0.32101(9) 0.80622(9)
O3_5 O 0.05819(10) 0.32385(10) 0.81189(9)
C1_5 C 0.06175(12) 0.36528(13) 0.76971(13)
C2_5 C 0.01026(13) 0.38877(13) 0.74632(14)
C3_5 C 0.06655(15) 0.45050(17) 0.68240(17)
H1_5 H 0.06839(15) 0.47890(17) 0.65243(17)
C4_5 C 0.01318(14) 0.43134(15) 0.70315(15)
C5_5 C 0.11613(12) 0.38509(13) 0.74966(13)
C6_5 C 0.11686(13) 0.42777(15) 0.70587(15)
H3_5 H 0.15330(13) 0.44143(15) 0.69196(15)
C8_5 C 0.17375(13) 0.36459(13) 0.77194(13)
H4_5 H 0.025(2) 0.318(2) 0.819(2)
Cd3_5 Cd 0.240825(9) 0.312826(8) 0.880653(9)
O6_5 O 0.10724(10) 0.24441(10) 0.71717(9)
O7_5 O 0.19378(9) 0.17680(9) 0.82101(9)
O8_5 O 0.04953(9) 0.17083(10) 0.80615(10)
O9_5 O 0.10942(10) 0.24312(10) 0.90818(9)
O4_5 O 0.95047(9) 0.32917(10) 0.80615(10)
O5_5 O 0.90818(9) 0.39058(10) 0.74312(10)
H2_5 H 0.97832(14) 0.44736(15) 0.68781(15)
C7_5 C 0.95172(13) 0.36835(13) 0.76641(13)
Cd2_4 Cd 0.880653(9) 0.259175(9) 0.812826(8)
Cd5_4 Cd 0.812826(8) 0.380653(9) 0.740825(9)
Cd1_6 Cd 0.812826(8) 0.119347(9) 0.240825(9)
O1_5 O 0.75559(10) 0.21717(9) 0.39276(10)
O2_6 O 0.80622(9) 0.17680(9) 0.32101(9)
O3_6 O 0.81189(9) 0.05819(10) 0.32385(10)
C1_6 C 0.76971(13) 0.06175(12) 0.36528(13)
C2_6 C 0.74632(14) 0.01026(13) 0.38877(13)
C3_6 C 0.68240(17) 0.06655(15) 0.45050(17)
H1_6 H 0.65243(17) 0.06839(15) 0.47890(17)
C4_6 C 0.70315(15) 0.01318(14) 0.43134(15)
C5_6 C 0.74966(13) 0.11613(12) 0.38509(13)
C6_6 C 0.70587(15) 0.11686(13) 0.42777(15)
H3_6 H 0.69196(15) 0.15330(13) 0.44143(15)
C8_6 C 0.77194(13) 0.17375(13) 0.36459(13)
H4_6 H 0.819(2) 0.025(2) 0.318(2)
Cd3_6 Cd 0.880653(9) 0.240825(9) 0.312826(8)
Cd4_5 Cd 0.759175(9) 0.312826(8) 0.380653(9)
O6_6 O 0.71717(9) 0.10724(10) 0.24441(10)
O7_6 O 0.82101(9) 0.19378(9) 0.17680(9)
O8_6 O 0.80615(10) 0.04953(9) 0.17083(10)
O9_6 O 0.90818(9) 0.10942(10) 0.24312(10)
O4_6 O 0.80615(10) 0.95047(9) 0.32917(10)
O5_6 O 0.74312(10) 0.90818(9) 0.39058(10)
H2_6 H 0.68781(15) 0.97832(14) 0.44736(15)
C7_6 C 0.76641(13) 0.95172(13) 0.36835(13)
Cd2_5 Cd 0.812826(8) 0.880653(9) 0.259175(9)
Cd5_5 Cd 0.740825(9) 0.812826(8) 0.380653(9)
O5_7 O 0.09182(9) 0.89058(10) 0.75688(10)
H2_7 H 0.02168(14) 0.94736(15) 0.81219(15)
C7_7 C 0.04828(13) 0.86835(13) 0.73359(13)
Cd5_6 Cd 0.187174(8) 0.880653(9) 0.759175(9)
O1_6 O 0.78283(9) 0.89276(10) 0.74441(10)
O2_7 O 0.82320(9) 0.82101(9) 0.69378(9)
O3_7 O 0.94181(10) 0.82385(10) 0.68811(9)
C1_7 C 0.93825(12) 0.86528(13) 0.73029(13)
C2_7 C 0.98974(13) 0.88877(13) 0.75368(14)
C3_7 C 0.93345(15) 0.95050(17) 0.81760(17)
H1_7 H 0.93161(15) 0.97890(17) 0.84757(17)
C4_7 C 0.98682(14) 0.93134(15) 0.79685(15)
C5_7 C 0.88387(12) 0.88509(13) 0.75034(13)
C6_7 C 0.88314(13) 0.92777(15) 0.79413(15)
H3_7 H 0.84670(13) 0.94143(15) 0.80804(15)
C8_7 C 0.82625(13) 0.86459(13) 0.72806(13)
H4_7 H 0.975(2) 0.818(2) 0.681(2)
O6_7 O 0.89276(10) 0.74441(10) 0.78283(9)
O7_7 O 0.80622(9) 0.67680(9) 0.67899(9)
O9_7 O 0.89058(10) 0.74312(10) 0.59182(9)
Cd1_7 Cd 0.380653(9) 0.759175(9) 0.312826(8)
O1_7 O 0.28283(9) 0.60724(10) 0.25559(10)
O2_8 O 0.32320(9) 0.67899(9) 0.30622(9)
O3_8 O 0.44181(10) 0.67615(10) 0.31189(9)
O4_7 O 0.54953(9) 0.67083(10) 0.30615(10)
O5_8 O 0.59182(9) 0.60942(10) 0.24312(10)
C1_8 C 0.43825(12) 0.63472(13) 0.26971(13)
C2_8 C 0.48974(13) 0.61123(13) 0.24632(14)
C3_8 C 0.43345(15) 0.54950(17) 0.18240(17)
H1_8 H 0.43161(15) 0.52110(17) 0.15243(17)
C4_8 C 0.48682(14) 0.56866(15) 0.20315(15)
H2_8 H 0.52168(14) 0.55264(15) 0.18781(15)
C5_8 C 0.38387(12) 0.61491(13) 0.24966(13)
C6_8 C 0.38314(13) 0.57223(15) 0.20587(15)
H3_8 H 0.34670(13) 0.55857(15) 0.19196(15)
C7_8 C 0.54828(13) 0.63165(13) 0.26641(13)
C8_8 C 0.32625(13) 0.63541(13) 0.27194(13)
H4_8 H 0.475(2) 0.682(2) 0.319(2)
Cd3_7 Cd 0.259175(9) 0.687174(8) 0.380653(9)
Cd4_6 Cd 0.187174(8) 0.619347(9) 0.259175(9)
O6_8 O 0.39276(10) 0.75559(10) 0.21717(9)
O7_8 O 0.30622(9) 0.82320(9) 0.32101(9)
O8_7 O 0.45047(9) 0.82917(10) 0.30615(10)
O9_8 O 0.39058(10) 0.75688(10) 0.40818(9)
O5_9 O 0.75688(10) 0.09182(9) 0.89058(10)
H2_9 H 0.81219(15) 0.02168(14) 0.94736(15)
C7_9 C 0.73359(13) 0.04828(13) 0.86835(13)
Cd5_7 Cd 0.759175(9) 0.187174(8) 0.880653(9)
O1_8 O 0.74441(10) 0.78283(9) 0.89276(10)
O2_9 O 0.69378(9) 0.82320(9) 0.82101(9)
O3_9 O 0.68811(9) 0.94181(10) 0.82385(10)
C1_9 C 0.73029(13) 0.93825(12) 0.86528(13)
C2_9 C 0.75368(14) 0.98974(13) 0.88877(13)
C3_9 C 0.81760(17) 0.93345(15) 0.95050(17)
H1_9 H 0.84757(17) 0.93161(15) 0.97890(17)
C4_9 C 0.79685(15) 0.98682(14) 0.93134(15)
C5_9 C 0.75034(13) 0.88387(12) 0.88509(13)
C6_9 C 0.79413(15) 0.88314(13) 0.92777(15)
H3_9 H 0.80804(15) 0.84670(13) 0.94143(15)
C8_9 C 0.72806(13) 0.82625(13) 0.86459(13)
H4_9 H 0.681(2) 0.975(2) 0.818(2)
O7_9 O 0.67899(9) 0.80622(9) 0.67680(9)
O9_9 O 0.59182(9) 0.89058(10) 0.74312(10)
O1_9 O 0.60724(10) 0.25559(10) 0.28283(9)
O2_10 O 0.67899(9) 0.30622(9) 0.32320(9)
O3_10 O 0.67615(10) 0.31189(9) 0.44181(10)
O4_8 O 0.67083(10) 0.30615(10) 0.54953(9)
O5_10 O 0.60942(10) 0.24312(10) 0.59182(9)
C1_10 C 0.63472(13) 0.26971(13) 0.43825(12)
C2_10 C 0.61123(13) 0.24632(14) 0.48974(13)
C3_10 C 0.54950(17) 0.18240(17) 0.43345(15)
H1_10 H 0.52110(17) 0.15243(17) 0.43161(15)
C4_10 C 0.56866(15) 0.20315(15) 0.48682(14)
H2_10 H 0.55264(15) 0.18781(15) 0.52168(14)
C5_10 C 0.61491(13) 0.24966(13) 0.38387(12)
C6_10 C 0.57223(15) 0.20587(15) 0.38314(13)
H3_10 H 0.55857(15) 0.19196(15) 0.34670(13)
C7_10 C 0.63165(13) 0.26641(13) 0.54828(13)
C8_10 C 0.63541(13) 0.27194(13) 0.32625(13)
H4_10 H 0.682(2) 0.319(2) 0.475(2)
Cd3_8 Cd 0.687174(8) 0.380653(9) 0.259175(9)
Cd4_7 Cd 0.619347(9) 0.259175(9) 0.187174(8)
O7_10 O 0.82320(9) 0.32101(9) 0.30622(9)
O8_8 O 0.82917(10) 0.30615(10) 0.45047(9)
O9_10 O 0.75688(10) 0.40818(9) 0.39058(10)
O5_11 O 0.89058(10) 0.75688(10) 0.09182(9)
H2_11 H 0.94736(15) 0.81219(15) 0.02168(14)
C7_11 C 0.86835(13) 0.73359(13) 0.04828(13)
Cd5_8 Cd 0.880653(9) 0.759175(9) 0.187174(8)
O2_11 O 0.82101(9) 0.69378(9) 0.82320(9)
O3_11 O 0.82385(10) 0.68811(9) 0.94181(10)
C1_11 C 0.86528(13) 0.73029(13) 0.93825(12)
C2_11 C 0.88877(13) 0.75368(14) 0.98974(13)
C3_11 C 0.95050(17) 0.81760(17) 0.93345(15)
H1_11 H 0.97890(17) 0.84757(17) 0.93161(15)
C4_11 C 0.93134(15) 0.79685(15) 0.98682(14)
C5_11 C 0.88509(13) 0.75034(13) 0.88387(12)
C6_11 C 0.92777(15) 0.79413(15) 0.88314(13)
H3_11 H 0.94143(15) 0.80804(15) 0.84670(13)
C8_11 C 0.86459(13) 0.72806(13) 0.82625(13)
H4_11 H 0.818(2) 0.681(2) 0.975(2)
O7_11 O 0.67680(9) 0.67899(9) 0.80622(9)
O9_11 O 0.74312(10) 0.59182(9) 0.89058(10)
Cd1_8 Cd 0.240825(9) 0.812826(8) 0.119347(9)
O2_12 O 0.32101(9) 0.80622(9) 0.17680(9)
O3_12 O 0.32385(10) 0.81189(9) 0.05819(10)
C1_12 C 0.36528(13) 0.76971(13) 0.06175(12)
C2_12 C 0.38877(13) 0.74632(14) 0.01026(13)
C3_12 C 0.45050(17) 0.68240(17) 0.06655(15)
H1_12 H 0.47890(17) 0.65243(17) 0.06839(15)
C4_12 C 0.43134(15) 0.70315(15) 0.01318(14)
C5_12 C 0.38509(13) 0.74966(13) 0.11613(12)
C6_12 C 0.42777(15) 0.70587(15) 0.11686(13)
H3_12 H 0.44143(15) 0.69196(15) 0.15330(13)
C8_12 C 0.36459(13) 0.77194(13) 0.17375(13)
H4_12 H 0.318(2) 0.819(2) 0.025(2)
Cd3_9 Cd 0.312826(8) 0.880653(9) 0.240825(9)
O6_9 O 0.24441(10) 0.71717(9) 0.10724(10)
O7_12 O 0.17680(9) 0.82101(9) 0.19378(9)
O8_9 O 0.17083(10) 0.80615(10) 0.04953(9)
O9_12 O 0.24312(10) 0.90818(9) 0.10942(10)
O4_9 O 0.32917(10) 0.80615(10) 0.95047(9)
O5_12 O 0.39058(10) 0.74312(10) 0.90818(9)
H2_12 H 0.44736(15) 0.68781(15) 0.97832(14)
C7_12 C 0.36835(13) 0.76641(13) 0.95172(13)
Cd2_6 Cd 0.259175(9) 0.812826(8) 0.880653(9)
Cd5_9 Cd 0.380653(9) 0.740825(9) 0.812826(8)
O2_13 O 0.17899(9) 0.19378(9) 0.67680(9)
O3_13 O 0.17615(10) 0.18811(9) 0.55819(10)
O4_10 O 0.17083(10) 0.19385(10) 0.45047(9)
O5_13 O 0.10942(10) 0.25688(10) 0.40818(9)
C1_13 C 0.13472(13) 0.23029(13) 0.56175(12)
C2_13 C 0.11123(13) 0.25368(14) 0.51026(13)
C3_13 C 0.04950(17) 0.31760(17) 0.56655(15)
H1_13 H 0.02110(17) 0.34757(17) 0.56839(15)
C4_13 C 0.06866(15) 0.29685(15) 0.51318(14)
H2_13 H 0.05264(15) 0.31219(15) 0.47832(14)
C5_13 C 0.11491(13) 0.25034(13) 0.61613(12)
C6_13 C 0.07223(15) 0.29413(15) 0.61686(13)
H3_13 H 0.05857(15) 0.30804(15) 0.65330(13)
C7_13 C 0.13165(13) 0.23359(13) 0.45172(13)
C8_13 C 0.13541(13) 0.22806(13) 0.67375(13)
H4_13 H 0.182(2) 0.181(2) 0.525(2)
Cd2_7 Cd 0.240825(9) 0.187174(8) 0.380653(9)
Cd3_10 Cd 0.187174(8) 0.119347(9) 0.740825(9)
Cd5_10 Cd 0.119347(9) 0.259175(9) 0.312826(8)
O7_13 O 0.32320(9) 0.17899(9) 0.69378(9)
O8_10 O 0.32917(10) 0.19385(10) 0.54953(9)
O9_13 O 0.25688(10) 0.09182(9) 0.60942(10)
O2_14 O 0.67680(9) 0.17899(9) 0.19378(9)
O3_14 O 0.55819(10) 0.17615(10) 0.18811(9)
O4_11 O 0.45047(9) 0.17083(10) 0.19385(10)
O5_14 O 0.40818(9) 0.10942(10) 0.25688(10)
C1_14 C 0.56175(12) 0.13472(13) 0.23029(13)
C2_14 C 0.51026(13) 0.11123(13) 0.25368(14)
C3_14 C 0.56655(15) 0.04950(17) 0.31760(17)
H1_14 H 0.56839(15) 0.02110(17) 0.34757(17)
C4_14 C 0.51318(14) 0.06866(15) 0.29685(15)
H2_14 H 0.47832(14) 0.05264(15) 0.31219(15)
C5_14 C 0.61613(12) 0.11491(13) 0.25034(13)
C6_14 C 0.61686(13) 0.07223(15) 0.29413(15)
H3_14 H 0.65330(13) 0.05857(15) 0.30804(15)
C7_14 C 0.45172(13) 0.13165(13) 0.23359(13)
C8_14 C 0.67375(13) 0.13541(13) 0.22806(13)
H4_14 H 0.525(2) 0.182(2) 0.181(2)
Cd2_8 Cd 0.380653(9) 0.240825(9) 0.187174(8)
Cd3_11 Cd 0.740825(9) 0.187174(8) 0.119347(9)
Cd5_11 Cd 0.312826(8) 0.119347(9) 0.259175(9)
O7_14 O 0.69378(9) 0.32320(9) 0.17899(9)
O8_11 O 0.54953(9) 0.32917(10) 0.19385(10)
O9_14 O 0.60942(10) 0.25688(10) 0.09182(9)
O2_15 O 0.19378(9) 0.67680(9) 0.17899(9)
O3_15 O 0.18811(9) 0.55819(10) 0.17615(10)
O4_12 O 0.19385(10) 0.45047(9) 0.17083(10)
O5_15 O 0.25688(10) 0.40818(9) 0.10942(10)
C1_15 C 0.23029(13) 0.56175(12) 0.13472(13)
C2_15 C 0.25368(14) 0.51026(13) 0.11123(13)
C3_15 C 0.31760(17) 0.56655(15) 0.04950(17)
H1_15 H 0.34757(17) 0.56839(15) 0.02110(17)
C4_15 C 0.29685(15) 0.51318(14) 0.06866(15)
H2_15 H 0.31219(15) 0.47832(14) 0.05264(15)
C5_15 C 0.25034(13) 0.61613(12) 0.11491(13)
C6_15 C 0.29413(15) 0.61686(13) 0.07223(15)
H3_15 H 0.30804(15) 0.65330(13) 0.05857(15)
C7_15 C 0.23359(13) 0.45172(13) 0.13165(13)
C8_15 C 0.22806(13) 0.67375(13) 0.13541(13)
H4_15 H 0.181(2) 0.525(2) 0.182(2)
Cd2_9 Cd 0.187174(8) 0.380653(9) 0.240825(9)
Cd3_12 Cd 0.119347(9) 0.740825(9) 0.187174(8)
Cd5_12 Cd 0.259175(9) 0.312826(8) 0.119347(9)
O7_15 O 0.17899(9) 0.69378(9) 0.32320(9)
O8_12 O 0.19385(10) 0.54953(9) 0.32917(10)
O9_15 O 0.09182(9) 0.60942(10) 0.25688(10)
O5_16 O 0.74312(10) 0.09182(9) 0.10942(10)
H2_16 H 0.68781(15) 0.02168(14) 0.05264(15)
C7_16 C 0.76641(13) 0.04828(13) 0.13165(13)
O2_16 O 0.80622(9) 0.82320(9) 0.17899(9)
O3_16 O 0.81189(9) 0.94181(10) 0.17615(10)
C1_16 C 0.76971(13) 0.93825(12) 0.13472(13)
C2_16 C 0.74632(14) 0.98974(13) 0.11123(13)
C3_16 C 0.68240(17) 0.93345(15) 0.04950(17)
H1_16 H 0.65243(17) 0.93161(15) 0.02110(17)
C4_16 C 0.70315(15) 0.98682(14) 0.06866(15)
C5_16 C 0.74966(13) 0.88387(12) 0.11491(13)
C6_16 C 0.70587(15) 0.88314(13) 0.07223(15)
H3_16 H 0.69196(15) 0.84670(13) 0.05857(15)
C8_16 C 0.77194(13) 0.82625(13) 0.13541(13)
H4_16 H 0.819(2) 0.975(2) 0.182(2)
O6_10 O 0.71717(9) 0.89276(10) 0.25559(10)
O7_16 O 0.82101(9) 0.80622(9) 0.32320(9)
O9_16 O 0.90818(9) 0.89058(10) 0.25688(10)
O2_17 O 0.67680(9) 0.82101(9) 0.30622(9)
O3_17 O 0.55819(10) 0.82385(10) 0.31189(9)
O5_17 O 0.40818(9) 0.89058(10) 0.24312(10)
C1_17 C 0.56175(12) 0.86528(13) 0.26971(13)
C2_17 C 0.51026(13) 0.88877(13) 0.24632(14)
C3_17 C 0.56655(15) 0.95050(17) 0.18240(17)
H1_17 H 0.56839(15) 0.97890(17) 0.15243(17)
C4_17 C 0.51318(14) 0.93134(15) 0.20315(15)
H2_17 H 0.47832(14) 0.94736(15) 0.18781(15)
C5_17 C 0.61613(12) 0.88509(13) 0.24966(13)
C6_17 C 0.61686(13) 0.92777(15) 0.20587(15)
H3_17 H 0.65330(13) 0.94143(15) 0.19196(15)
C7_17 C 0.45172(13) 0.86835(13) 0.26641(13)
C8_17 C 0.67375(13) 0.86459(13) 0.27194(13)
H4_17 H 0.525(2) 0.818(2) 0.319(2)
O7_17 O 0.69378(9) 0.67680(9) 0.32101(9)
O9_17 O 0.60942(10) 0.74312(10) 0.40818(9)
O1_10 O 0.25559(10) 0.71717(9) 0.89276(10)
O2_18 O 0.30622(9) 0.67680(9) 0.82101(9)
O3_18 O 0.31189(9) 0.55819(10) 0.82385(10)
O5_18 O 0.24312(10) 0.40818(9) 0.89058(10)
C1_18 C 0.26971(13) 0.56175(12) 0.86528(13)
C2_18 C 0.24632(14) 0.51026(13) 0.88877(13)
C3_18 C 0.18240(17) 0.56655(15) 0.95050(17)
H1_18 H 0.15243(17) 0.56839(15) 0.97890(17)
C4_18 C 0.20315(15) 0.51318(14) 0.93134(15)
H2_18 H 0.18781(15) 0.47832(14) 0.94736(15)
C5_18 C 0.24966(13) 0.61613(12) 0.88509(13)
C6_18 C 0.20587(15) 0.61686(13) 0.92777(15)
H3_18 H 0.19196(15) 0.65330(13) 0.94143(15)
C7_18 C 0.26641(13) 0.45172(13) 0.86835(13)
C8_18 C 0.27194(13) 0.67375(13) 0.86459(13)
H4_18 H 0.319(2) 0.525(2) 0.818(2)
O7_18 O 0.32101(9) 0.69378(9) 0.67680(9)
O9_18 O 0.40818(9) 0.60942(10) 0.74312(10)
O1_11 O 0.28283(9) 0.39276(10) 0.24441(10)
O2_19 O 0.32320(9) 0.32101(9) 0.19378(9)
O3_19 O 0.44181(10) 0.32385(10) 0.18811(9)
O5_19 O 0.59182(9) 0.39058(10) 0.25688(10)
C1_19 C 0.43825(12) 0.36528(13) 0.23029(13)
C2_19 C 0.48974(13) 0.38877(13) 0.25368(14)
C3_19 C 0.43345(15) 0.45050(17) 0.31760(17)
H1_19 H 0.43161(15) 0.47890(17) 0.34757(17)
C4_19 C 0.48682(14) 0.43134(15) 0.29685(15)
H2_19 H 0.52168(14) 0.44736(15) 0.31219(15)
C5_19 C 0.38387(12) 0.38509(13) 0.25034(13)
C6_19 C 0.38314(13) 0.42777(15) 0.29413(15)
H3_19 H 0.34670(13) 0.44143(15) 0.30804(15)
C7_19 C 0.54828(13) 0.36835(13) 0.23359(13)
C8_19 C 0.32625(13) 0.36459(13) 0.22806(13)
H4_19 H 0.475(2) 0.318(2) 0.181(2)
O6_11 O 0.39276(10) 0.24441(10) 0.28283(9)
O7_19 O 0.30622(9) 0.17680(9) 0.17899(9)
O9_19 O 0.39058(10) 0.24312(10) 0.09182(9)
O5_20 O 0.09182(9) 0.10942(10) 0.74312(10)
H2_20 H 0.02168(14) 0.05264(15) 0.68781(15)
C7_20 C 0.04828(13) 0.13165(13) 0.76641(13)
O2_20 O 0.82320(9) 0.17899(9) 0.80622(9)
O3_20 O 0.94181(10) 0.17615(10) 0.81189(9)
C1_20 C 0.93825(12) 0.13472(13) 0.76971(13)
C2_20 C 0.98974(13) 0.11123(13) 0.74632(14)
C3_20 C 0.93345(15) 0.04950(17) 0.68240(17)
H1_20 H 0.93161(15) 0.02110(17) 0.65243(17)
C4_20 C 0.98682(14) 0.06866(15) 0.70315(15)
C5_20 C 0.88387(12) 0.11491(13) 0.74966(13)
C6_20 C 0.88314(13) 0.07223(15) 0.70587(15)
H3_20 H 0.84670(13) 0.05857(15) 0.69196(15)
C8_20 C 0.82625(13) 0.13541(13) 0.77194(13)
H4_20 H 0.975(2) 0.182(2) 0.819(2)
O6_12 O 0.89276(10) 0.25559(10) 0.71717(9)
O7_20 O 0.80622(9) 0.32320(9) 0.82101(9)
O9_20 O 0.89058(10) 0.25688(10) 0.90818(9)
O1_12 O 0.24441(10) 0.28283(9) 0.39276(10)
O2_21 O 0.19378(9) 0.32320(9) 0.32101(9)
O3_21 O 0.18811(9) 0.44181(10) 0.32385(10)
O5_21 O 0.25688(10) 0.59182(9) 0.39058(10)
C1_21 C 0.23029(13) 0.43825(12) 0.36528(13)
C2_21 C 0.25368(14) 0.48974(13) 0.38877(13)
C3_21 C 0.31760(17) 0.43345(15) 0.45050(17)
H1_21 H 0.34757(17) 0.43161(15) 0.47890(17)
C4_21 C 0.29685(15) 0.48682(14) 0.43134(15)
H2_21 H 0.31219(15) 0.52168(14) 0.44736(15)
C5_21 C 0.25034(13) 0.38387(12) 0.38509(13)
C6_21 C 0.29413(15) 0.38314(13) 0.42777(15)
H3_21 H 0.30804(15) 0.34670(13) 0.44143(15)
C7_21 C 0.23359(13) 0.54828(13) 0.36835(13)
C8_21 C 0.22806(13) 0.32625(13) 0.36459(13)
H4_21 H 0.181(2) 0.475(2) 0.318(2)
O7_21 O 0.17899(9) 0.30622(9) 0.17680(9)
O9_21 O 0.09182(9) 0.39058(10) 0.24312(10)
O5_22 O 0.10942(10) 0.74312(10) 0.09182(9)
H2_22 H 0.05264(15) 0.68781(15) 0.02168(14)
C7_22 C 0.13165(13) 0.76641(13) 0.04828(13)
O2_22 O 0.17899(9) 0.80622(9) 0.82320(9)
O3_22 O 0.17615(10) 0.81189(9) 0.94181(10)
C1_22 C 0.13472(13) 0.76971(13) 0.93825(12)
C2_22 C 0.11123(13) 0.74632(14) 0.98974(13)
C3_22 C 0.04950(17) 0.68240(17) 0.93345(15)
H1_22 H 0.02110(17) 0.65243(17) 0.93161(15)
C4_22 C 0.06866(15) 0.70315(15) 0.98682(14)
C5_22 C 0.11491(13) 0.74966(13) 0.88387(12)
C6_22 C 0.07223(15) 0.70587(15) 0.88314(13)
H3_22 H 0.05857(15) 0.69196(15) 0.84670(13)
C8_22 C 0.13541(13) 0.77194(13) 0.82625(13)
H4_22 H 0.182(2) 0.819(2) 0.975(2)
O7_22 O 0.32320(9) 0.82101(9) 0.80622(9)
O9_22 O 0.25688(10) 0.90818(9) 0.89058(10)
O2_23 O 0.32101(9) 0.19378(9) 0.32320(9)
O3_23 O 0.32385(10) 0.18811(9) 0.44181(10)
O5_23 O 0.39058(10) 0.25688(10) 0.59182(9)
C1_23 C 0.36528(13) 0.23029(13) 0.43825(12)
C2_23 C 0.38877(13) 0.25368(14) 0.48974(13)
C3_23 C 0.45050(17) 0.31760(17) 0.43345(15)
H1_23 H 0.47890(17) 0.34757(17) 0.43161(15)
C4_23 C 0.43134(15) 0.29685(15) 0.48682(14)
H2_23 H 0.44736(15) 0.31219(15) 0.52168(14)
C5_23 C 0.38509(13) 0.25034(13) 0.38387(12)
C6_23 C 0.42777(15) 0.29413(15) 0.38314(13)
H3_23 H 0.44143(15) 0.30804(15) 0.34670(13)
C7_23 C 0.36835(13) 0.23359(13) 0.54828(13)
C8_23 C 0.36459(13) 0.22806(13) 0.32625(13)
H4_23 H 0.318(2) 0.181(2) 0.475(2)
O7_23 O 0.17680(9) 0.17899(9) 0.30622(9)
O9_23 O 0.24312(10) 0.09182(9) 0.39058(10)
O2_24 O 0.82101(9) 0.30622(9) 0.67680(9)
O3_24 O 0.82385(10) 0.31189(9) 0.55819(10)
O5_24 O 0.89058(10) 0.24312(10) 0.40818(9)
C1_24 C 0.86528(13) 0.26971(13) 0.56175(12)
C2_24 C 0.88877(13) 0.24632(14) 0.51026(13)
C3_24 C 0.95050(17) 0.18240(17) 0.56655(15)
H1_24 H 0.97890(17) 0.15243(17) 0.56839(15)
C4_24 C 0.93134(15) 0.20315(15) 0.51318(14)
H2_24 H 0.94736(15) 0.18781(15) 0.47832(14)
C5_24 C 0.88509(13) 0.24966(13) 0.61613(12)
C6_24 C 0.92777(15) 0.20587(15) 0.61686(13)
H3_24 H 0.94143(15) 0.19196(15) 0.65330(13)
C7_24 C 0.86835(13) 0.26641(13) 0.45172(13)
C8_24 C 0.86459(13) 0.27194(13) 0.67375(13)
H4_24 H 0.818(2) 0.319(2) 0.525(2)
O7_24 O 0.67680(9) 0.32101(9) 0.69378(9)
O9_24 O 0.74312(10) 0.40818(9) 0.60942(10)
O4_13 O 0.32917(10) 0.30615(10) 0.04953(9)
H2_25 H 0.44736(15) 0.18781(15) 0.02168(14)
C7_25 C 0.36835(13) 0.26641(13) 0.04828(13)
O1_13 O 0.39276(10) 0.25559(10) 0.78283(9)
O3_25 O 0.32385(10) 0.31189(9) 0.94181(10)
C1_25 C 0.36528(13) 0.26971(13) 0.93825(12)
C2_25 C 0.38877(13) 0.24632(14) 0.98974(13)
C3_25 C 0.45050(17) 0.18240(17) 0.93345(15)
H1_25 H 0.47890(17) 0.15243(17) 0.93161(15)
C4_25 C 0.43134(15) 0.20315(15) 0.98682(14)
C5_25 C 0.38509(13) 0.24966(13) 0.88387(12)
C6_25 C 0.42777(15) 0.20587(15) 0.88314(13)
H3_25 H 0.44143(15) 0.19196(15) 0.84670(13)
C8_25 C 0.36459(13) 0.27194(13) 0.82625(13)
H4_25 H 0.318(2) 0.319(2) 0.975(2)
O6_13 O 0.24441(10) 0.21717(9) 0.89276(10)
O8_13 O 0.17083(10) 0.30615(10) 0.95047(9)
O4_14 O 0.04953(9) 0.32917(10) 0.30615(10)
H2_26 H 0.02168(14) 0.44736(15) 0.18781(15)
C7_26 C 0.04828(13) 0.36835(13) 0.26641(13)
O1_14 O 0.78283(9) 0.39276(10) 0.25559(10)
O3_26 O 0.94181(10) 0.32385(10) 0.31189(9)
C1_26 C 0.93825(12) 0.36528(13) 0.26971(13)
C2_26 C 0.98974(13) 0.38877(13) 0.24632(14)
C3_26 C 0.93345(15) 0.45050(17) 0.18240(17)
H1_26 H 0.93161(15) 0.47890(17) 0.15243(17)
C4_26 C 0.98682(14) 0.43134(15) 0.20315(15)
C5_26 C 0.88387(12) 0.38509(13) 0.24966(13)
C6_26 C 0.88314(13) 0.42777(15) 0.20587(15)
H3_26 H 0.84670(13) 0.44143(15) 0.19196(15)
C8_26 C 0.82625(13) 0.36459(13) 0.27194(13)
H4_26 H 0.975(2) 0.318(2) 0.319(2)
O6_14 O 0.89276(10) 0.24441(10) 0.21717(9)
O8_14 O 0.95047(9) 0.17083(10) 0.30615(10)
O4_15 O 0.30615(10) 0.04953(9) 0.32917(10)
H2_27 H 0.18781(15) 0.02168(14) 0.44736(15)
C7_27 C 0.26641(13) 0.04828(13) 0.36835(13)
O1_15 O 0.25559(10) 0.78283(9) 0.39276(10)
O3_27 O 0.31189(9) 0.94181(10) 0.32385(10)
C1_27 C 0.26971(13) 0.93825(12) 0.36528(13)
C2_27 C 0.24632(14) 0.98974(13) 0.38877(13)
C3_27 C 0.18240(17) 0.93345(15) 0.45050(17)
H1_27 H 0.15243(17) 0.93161(15) 0.47890(17)
C4_27 C 0.20315(15) 0.98682(14) 0.43134(15)
C5_27 C 0.24966(13) 0.88387(12) 0.38509(13)
C6_27 C 0.20587(15) 0.88314(13) 0.42777(15)
H3_27 H 0.19196(15) 0.84670(13) 0.44143(15)
C8_27 C 0.27194(13) 0.82625(13) 0.36459(13)
H4_27 H 0.319(2) 0.975(2) 0.318(2)
O6_15 O 0.21717(9) 0.89276(10) 0.24441(10)
O8_15 O 0.30615(10) 0.95047(9) 0.17083(10)
O1_16 O 0.74441(10) 0.71717(9) 0.39276(10)
O3_28 O 0.68811(9) 0.55819(10) 0.32385(10)
O4_16 O 0.69385(10) 0.45047(9) 0.32917(10)
C1_28 C 0.73029(13) 0.56175(12) 0.36528(13)
C2_28 C 0.75368(14) 0.51026(13) 0.38877(13)
C3_28 C 0.81760(17) 0.56655(15) 0.45050(17)
H1_28 H 0.84757(17) 0.56839(15) 0.47890(17)
C4_28 C 0.79685(15) 0.51318(14) 0.43134(15)
H2_28 H 0.81219(15) 0.47832(14) 0.44736(15)
C5_28 C 0.75034(13) 0.61613(12) 0.38509(13)
C6_28 C 0.79413(15) 0.61686(13) 0.42777(15)
H3_28 H 0.80804(15) 0.65330(13) 0.44143(15)
C7_28 C 0.73359(13) 0.45172(13) 0.36835(13)
C8_28 C 0.72806(13) 0.67375(13) 0.36459(13)
H4_28 H 0.681(2) 0.525(2) 0.318(2)
O6_16 O 0.78283(9) 0.60724(10) 0.24441(10)
O8_16 O 0.69385(10) 0.54953(9) 0.17083(10)
O4_17 O 0.04953(9) 0.67083(10) 0.19385(10)
H2_29 H 0.02168(14) 0.55264(15) 0.31219(15)
C7_29 C 0.04828(13) 0.63165(13) 0.23359(13)
O3_29 O 0.94181(10) 0.67615(10) 0.18811(9)
C1_29 C 0.93825(12) 0.63472(13) 0.23029(13)
C2_29 C 0.98974(13) 0.61123(13) 0.25368(14)
C3_29 C 0.93345(15) 0.54950(17) 0.31760(17)
H1_29 H 0.93161(15) 0.52110(17) 0.34757(17)
C4_29 C 0.98682(14) 0.56866(15) 0.29685(15)
C5_29 C 0.88387(12) 0.61491(13) 0.25034(13)
C6_29 C 0.88314(13) 0.57223(15) 0.29413(15)
H3_29 H 0.84670(13) 0.55857(15) 0.30804(15)
C8_29 C 0.82625(13) 0.63541(13) 0.22806(13)
H4_29 H 0.975(2) 0.682(2) 0.181(2)
O6_17 O 0.89276(10) 0.75559(10) 0.28283(9)
O8_17 O 0.95047(9) 0.82917(10) 0.19385(10)
O4_18 O 0.19385(10) 0.04953(9) 0.67083(10)
H2_30 H 0.31219(15) 0.02168(14) 0.55264(15)
C7_30 C 0.23359(13) 0.04828(13) 0.63165(13)
O1_17 O 0.24441(10) 0.78283(9) 0.60724(10)
O3_30 O 0.18811(9) 0.94181(10) 0.67615(10)
C1_30 C 0.23029(13) 0.93825(12) 0.63472(13)
C2_30 C 0.25368(14) 0.98974(13) 0.61123(13)
C3_30 C 0.31760(17) 0.93345(15) 0.54950(17)
H1_30 H 0.34757(17) 0.93161(15) 0.52110(17)
C4_30 C 0.29685(15) 0.98682(14) 0.56866(15)
C5_30 C 0.25034(13) 0.88387(12) 0.61491(13)
C6_30 C 0.29413(15) 0.88314(13) 0.57223(15)
H3_30 H 0.30804(15) 0.84670(13) 0.55857(15)
C8_30 C 0.22806(13) 0.82625(13) 0.63541(13)
H4_30 H 0.181(2) 0.975(2) 0.682(2)
O6_18 O 0.28283(9) 0.89276(10) 0.75559(10)
O8_18 O 0.19385(10) 0.95047(9) 0.82917(10)
O1_18 O 0.21717(9) 0.10724(10) 0.25559(10)
O3_31 O 0.05819(10) 0.17615(10) 0.31189(9)
C1_31 C 0.06175(12) 0.13472(13) 0.26971(13)
C2_31 C 0.01026(13) 0.11123(13) 0.24632(14)
C3_31 C 0.06655(15) 0.04950(17) 0.18240(17)
H1_31 H 0.06839(15) 0.02110(17) 0.15243(17)
C4_31 C 0.01318(14) 0.06866(15) 0.20315(15)
C5_31 C 0.11613(12) 0.11491(13) 0.24966(13)
C6_31 C 0.11686(13) 0.07223(15) 0.20587(15)
H3_31 H 0.15330(13) 0.05857(15) 0.19196(15)
C8_31 C 0.17375(13) 0.13541(13) 0.27194(13)
H4_31 H 0.025(2) 0.182(2) 0.319(2)
O6_19 O 0.10724(10) 0.25559(10) 0.21717(9)
H2_31 H 0.97832(14) 0.05264(15) 0.18781(15)
C7_31 C 0.95172(13) 0.13165(13) 0.26641(13)
O1_19 O 0.71717(9) 0.39276(10) 0.74441(10)
O3_32 O 0.55819(10) 0.32385(10) 0.68811(9)
O4_19 O 0.45047(9) 0.32917(10) 0.69385(10)
C1_32 C 0.56175(12) 0.36528(13) 0.73029(13)
C2_32 C 0.51026(13) 0.38877(13) 0.75368(14)
C3_32 C 0.56655(15) 0.45050(17) 0.81760(17)
H1_32 H 0.56839(15) 0.47890(17) 0.84757(17)
C4_32 C 0.51318(14) 0.43134(15) 0.79685(15)
H2_32 H 0.47832(14) 0.44736(15) 0.81219(15)
C5_32 C 0.61613(12) 0.38509(13) 0.75034(13)
C6_32 C 0.61686(13) 0.42777(15) 0.79413(15)
H3_32 H 0.65330(13) 0.44143(15) 0.80804(15)
C7_32 C 0.45172(13) 0.36835(13) 0.73359(13)
C8_32 C 0.67375(13) 0.36459(13) 0.72806(13)
H4_32 H 0.525(2) 0.318(2) 0.681(2)
O6_20 O 0.60724(10) 0.24441(10) 0.78283(9)
O8_19 O 0.54953(9) 0.17083(10) 0.69385(10)
O1_20 O 0.25559(10) 0.21717(9) 0.10724(10)
O3_33 O 0.31189(9) 0.05819(10) 0.17615(10)
C1_33 C 0.26971(13) 0.06175(12) 0.13472(13)
C2_33 C 0.24632(14) 0.01026(13) 0.11123(13)
C3_33 C 0.18240(17) 0.06655(15) 0.04950(17)
H1_33 H 0.15243(17) 0.06839(15) 0.02110(17)
C4_33 C 0.20315(15) 0.01318(14) 0.06866(15)
C5_33 C 0.24966(13) 0.11613(12) 0.11491(13)
C6_33 C 0.20587(15) 0.11686(13) 0.07223(15)
H3_33 H 0.19196(15) 0.15330(13) 0.05857(15)
C8_33 C 0.27194(13) 0.17375(13) 0.13541(13)
H4_33 H 0.319(2) 0.025(2) 0.182(2)
H2_33 H 0.18781(15) 0.97832(14) 0.05264(15)
C7_33 C 0.26641(13) 0.95172(13) 0.13165(13)
O1_21 O 0.39276(10) 0.74441(10) 0.71717(9)
O3_34 O 0.32385(10) 0.68811(9) 0.55819(10)
O4_20 O 0.32917(10) 0.69385(10) 0.45047(9)
C1_34 C 0.36528(13) 0.73029(13) 0.56175(12)
C2_34 C 0.38877(13) 0.75368(14) 0.51026(13)
C3_34 C 0.45050(17) 0.81760(17) 0.56655(15)
H1_34 H 0.47890(17) 0.84757(17) 0.56839(15)
C4_34 C 0.43134(15) 0.79685(15) 0.51318(14)
H2_34 H 0.44736(15) 0.81219(15) 0.47832(14)
C5_34 C 0.38509(13) 0.75034(13) 0.61613(12)
C6_34 C 0.42777(15) 0.79413(15) 0.61686(13)
H3_34 H 0.44143(15) 0.80804(15) 0.65330(13)
C7_34 C 0.36835(13) 0.73359(13) 0.45172(13)
C8_34 C 0.36459(13) 0.72806(13) 0.67375(13)
H4_34 H 0.318(2) 0.681(2) 0.525(2)
O8_20 O 0.17083(10) 0.69385(10) 0.54953(9)
O3_35 O 0.17615(10) 0.31189(9) 0.05819(10)
C1_35 C 0.13472(13) 0.26971(13) 0.06175(12)
C2_35 C 0.11123(13) 0.24632(14) 0.01026(13)
C3_35 C 0.04950(17) 0.18240(17) 0.06655(15)
H1_35 H 0.02110(17) 0.15243(17) 0.06839(15)
C4_35 C 0.06866(15) 0.20315(15) 0.01318(14)
C5_35 C 0.11491(13) 0.24966(13) 0.11613(12)
C6_35 C 0.07223(15) 0.20587(15) 0.11686(13)
H3_35 H 0.05857(15) 0.19196(15) 0.15330(13)
C8_35 C 0.13541(13) 0.27194(13) 0.17375(13)
H4_35 H 0.182(2) 0.319(2) 0.025(2)
H2_35 H 0.05264(15) 0.18781(15) 0.97832(14)
C7_35 C 0.13165(13) 0.26641(13) 0.95172(13)
O4_21 O 0.67083(10) 0.19385(10) 0.04953(9)
H2_36 H 0.55264(15) 0.31219(15) 0.02168(14)
C7_36 C 0.63165(13) 0.23359(13) 0.04828(13)
O3_36 O 0.67615(10) 0.18811(9) 0.94181(10)
C1_36 C 0.63472(13) 0.23029(13) 0.93825(12)
C2_36 C 0.61123(13) 0.25368(14) 0.98974(13)
C3_36 C 0.54950(17) 0.31760(17) 0.93345(15)
H1_36 H 0.52110(17) 0.34757(17) 0.93161(15)
C4_36 C 0.56866(15) 0.29685(15) 0.98682(14)
C5_36 C 0.61491(13) 0.25034(13) 0.88387(12)
C6_36 C 0.57223(15) 0.29413(15) 0.88314(13)
H3_36 H 0.55857(15) 0.30804(15) 0.84670(13)
C8_36 C 0.63541(13) 0.22806(13) 0.82625(13)
H4_36 H 0.682(2) 0.181(2) 0.975(2)
O6_21 O 0.75559(10) 0.28283(9) 0.89276(10)
O8_21 O 0.82917(10) 0.19385(10) 0.95047(9)
O3_37 O 0.82385(10) 0.81189(9) 0.44181(10)
O4_22 O 0.82917(10) 0.80615(10) 0.54953(9)
C1_37 C 0.86528(13) 0.76971(13) 0.43825(12)
C2_37 C 0.88877(13) 0.74632(14) 0.48974(13)
C3_37 C 0.95050(17) 0.68240(17) 0.43345(15)
H1_37 H 0.97890(17) 0.65243(17) 0.43161(15)
C4_37 C 0.93134(15) 0.70315(15) 0.48682(14)
H2_37 H 0.94736(15) 0.68781(15) 0.52168(14)
C5_37 C 0.88509(13) 0.74966(13) 0.38387(12)
C6_37 C 0.92777(15) 0.70587(15) 0.38314(13)
H3_37 H 0.94143(15) 0.69196(15) 0.34670(13)
C7_37 C 0.86835(13) 0.76641(13) 0.54828(13)
C8_37 C 0.86459(13) 0.77194(13) 0.32625(13)
H4_37 H 0.818(2) 0.819(2) 0.475(2)
O8_22 O 0.67083(10) 0.80615(10) 0.45047(9)
O3_38 O 0.44181(10) 0.82385(10) 0.81189(9)
O4_23 O 0.54953(9) 0.82917(10) 0.80615(10)
C1_38 C 0.43825(12) 0.86528(13) 0.76971(13)
C2_38 C 0.48974(13) 0.88877(13) 0.74632(14)
C3_38 C 0.43345(15) 0.95050(17) 0.68240(17)
H1_38 H 0.43161(15) 0.97890(17) 0.65243(17)
C4_38 C 0.48682(14) 0.93134(15) 0.70315(15)
H2_38 H 0.52168(14) 0.94736(15) 0.68781(15)
C5_38 C 0.38387(12) 0.88509(13) 0.74966(13)
C6_38 C 0.38314(13) 0.92777(15) 0.70587(15)
H3_38 H 0.34670(13) 0.94143(15) 0.69196(15)
C7_38 C 0.54828(13) 0.86835(13) 0.76641(13)
C8_38 C 0.32625(13) 0.86459(13) 0.77194(13)
H4_38 H 0.475(2) 0.818(2) 0.819(2)
O8_23 O 0.45047(9) 0.67083(10) 0.80615(10)
O3_39 O 0.81189(9) 0.44181(10) 0.82385(10)
O4_24 O 0.80615(10) 0.54953(9) 0.82917(10)
C1_39 C 0.76971(13) 0.43825(12) 0.86528(13)
C2_39 C 0.74632(14) 0.48974(13) 0.88877(13)
C3_39 C 0.68240(17) 0.43345(15) 0.95050(17)
H1_39 H 0.65243(17) 0.43161(15) 0.97890(17)
C4_39 C 0.70315(15) 0.48682(14) 0.93134(15)
H2_39 H 0.68781(15) 0.52168(14) 0.94736(15)
C5_39 C 0.74966(13) 0.38387(12) 0.88509(13)
C6_39 C 0.70587(15) 0.38314(13) 0.92777(15)
H3_39 H 0.69196(15) 0.34670(13) 0.94143(15)
C7_39 C 0.76641(13) 0.54828(13) 0.86835(13)
C8_39 C 0.77194(13) 0.32625(13) 0.86459(13)
H4_39 H 0.819(2) 0.475(2) 0.818(2)
O8_24 O 0.80615(10) 0.45047(9) 0.67083(10)
O3_40 O 0.18811(9) 0.05819(10) 0.82385(10)
C1_40 C 0.23029(13) 0.06175(12) 0.86528(13)
C2_40 C 0.25368(14) 0.01026(13) 0.88877(13)
C3_40 C 0.31760(17) 0.06655(15) 0.95050(17)
H1_40 H 0.34757(17) 0.06839(15) 0.97890(17)
C4_40 C 0.29685(15) 0.01318(14) 0.93134(15)
C5_40 C 0.25034(13) 0.11613(12) 0.88509(13)
C6_40 C 0.29413(15) 0.11686(13) 0.92777(15)
H3_40 H 0.30804(15) 0.15330(13) 0.94143(15)
C8_40 C 0.22806(13) 0.17375(13) 0.86459(13)
H4_40 H 0.181(2) 0.025(2) 0.818(2)
O6_22 O 0.28283(9) 0.10724(10) 0.74441(10)
H2_40 H 0.31219(15) 0.97832(14) 0.94736(15)
C7_40 C 0.23359(13) 0.95172(13) 0.86835(13)
O3_41 O 0.44181(10) 0.17615(10) 0.68811(9)
C1_41 C 0.43825(12) 0.13472(13) 0.73029(13)
C2_41 C 0.48974(13) 0.11123(13) 0.75368(14)
C3_41 C 0.43345(15) 0.04950(17) 0.81760(17)
H1_41 H 0.43161(15) 0.02110(17) 0.84757(17)
C4_41 C 0.48682(14) 0.06866(15) 0.79685(15)
H2_41 H 0.52168(14) 0.05264(15) 0.81219(15)
C5_41 C 0.38387(12) 0.11491(13) 0.75034(13)
C6_41 C 0.38314(13) 0.07223(15) 0.79413(15)
H3_41 H 0.34670(13) 0.05857(15) 0.80804(15)
C7_41 C 0.54828(13) 0.13165(13) 0.73359(13)
C8_41 C 0.32625(13) 0.13541(13) 0.72806(13)
H4_41 H 0.475(2) 0.182(2) 0.681(2)
O1_22 O 0.74441(10) 0.28283(9) 0.10724(10)
O3_42 O 0.68811(9) 0.44181(10) 0.17615(10)
C1_42 C 0.73029(13) 0.43825(12) 0.13472(13)
C2_42 C 0.75368(14) 0.48974(13) 0.11123(13)
C3_42 C 0.81760(17) 0.43345(15) 0.04950(17)
H1_42 H 0.84757(17) 0.43161(15) 0.02110(17)
C4_42 C 0.79685(15) 0.48682(14) 0.06866(15)
H2_42 H 0.81219(15) 0.52168(14) 0.05264(15)
C5_42 C 0.75034(13) 0.38387(12) 0.11491(13)
C6_42 C 0.79413(15) 0.38314(13) 0.07223(15)
H3_42 H 0.80804(15) 0.34670(13) 0.05857(15)
C7_42 C 0.73359(13) 0.54828(13) 0.13165(13)
C8_42 C 0.72806(13) 0.32625(13) 0.13541(13)
H4_42 H 0.681(2) 0.475(2) 0.182(2)
O1_23 O 0.71717(9) 0.60724(10) 0.75559(10)
O3_43 O 0.55819(10) 0.67615(10) 0.81189(9)
C1_43 C 0.56175(12) 0.63472(13) 0.76971(13)
C2_43 C 0.51026(13) 0.61123(13) 0.74632(14)
C3_43 C 0.56655(15) 0.54950(17) 0.68240(17)
H1_43 H 0.56839(15) 0.52110(17) 0.65243(17)
C4_43 C 0.51318(14) 0.56866(15) 0.70315(15)
H2_43 H 0.47832(14) 0.55264(15) 0.68781(15)
C5_43 C 0.61613(12) 0.61491(13) 0.74966(13)
C6_43 C 0.61686(13) 0.57223(15) 0.70587(15)
H3_43 H 0.65330(13) 0.55857(15) 0.69196(15)
C7_43 C 0.45172(13) 0.63165(13) 0.76641(13)
C8_43 C 0.67375(13) 0.63541(13) 0.77194(13)
H4_43 H 0.525(2) 0.682(2) 0.819(2)
O6_23 O 0.60724(10) 0.75559(10) 0.71717(9)
O3_44 O 0.05819(10) 0.82385(10) 0.18811(9)
C1_44 C 0.06175(12) 0.86528(13) 0.23029(13)
C2_44 C 0.01026(13) 0.88877(13) 0.25368(14)
C3_44 C 0.06655(15) 0.95050(17) 0.31760(17)
H1_44 H 0.06839(15) 0.97890(17) 0.34757(17)
C4_44 C 0.01318(14) 0.93134(15) 0.29685(15)
C5_44 C 0.11613(12) 0.88509(13) 0.25034(13)
C6_44 C 0.11686(13) 0.92777(15) 0.29413(15)
H3_44 H 0.15330(13) 0.94143(15) 0.30804(15)
C8_44 C 0.17375(13) 0.86459(13) 0.22806(13)
H4_44 H 0.025(2) 0.818(2) 0.181(2)
O6_24 O 0.10724(10) 0.74441(10) 0.28283(9)
H2_44 H 0.97832(14) 0.94736(15) 0.31219(15)
C7_44 C 0.95172(13) 0.86835(13) 0.23359(13)
O1_24 O 0.75559(10) 0.71717(9) 0.60724(10)
O3_45 O 0.81189(9) 0.55819(10) 0.67615(10)
C1_45 C 0.76971(13) 0.56175(12) 0.63472(13)
C2_45 C 0.74632(14) 0.51026(13) 0.61123(13)
C3_45 C 0.68240(17) 0.56655(15) 0.54950(17)
H1_45 H 0.65243(17) 0.56839(15) 0.52110(17)
C4_45 C 0.70315(15) 0.51318(14) 0.56866(15)
H2_45 H 0.68781(15) 0.47832(14) 0.55264(15)
C5_45 C 0.74966(13) 0.61613(12) 0.61491(13)
C6_45 C 0.70587(15) 0.61686(13) 0.57223(15)
H3_45 H 0.69196(15) 0.65330(13) 0.55857(15)
C7_45 C 0.76641(13) 0.45172(13) 0.63165(13)
C8_45 C 0.77194(13) 0.67375(13) 0.63541(13)
H4_45 H 0.819(2) 0.525(2) 0.682(2)
O3_46 O 0.82385(10) 0.18811(9) 0.05819(10)
C1_46 C 0.86528(13) 0.23029(13) 0.06175(12)
C2_46 C 0.88877(13) 0.25368(14) 0.01026(13)
C3_46 C 0.95050(17) 0.31760(17) 0.06655(15)
H1_46 H 0.97890(17) 0.34757(17) 0.06839(15)
C4_46 C 0.93134(15) 0.29685(15) 0.01318(14)
C5_46 C 0.88509(13) 0.25034(13) 0.11613(12)
C6_46 C 0.92777(15) 0.29413(15) 0.11686(13)
H3_46 H 0.94143(15) 0.30804(15) 0.15330(13)
C8_46 C 0.86459(13) 0.22806(13) 0.17375(13)
H4_46 H 0.818(2) 0.181(2) 0.025(2)
H2_46 H 0.94736(15) 0.31219(15) 0.97832(14)
C7_46 C 0.86835(13) 0.23359(13) 0.95172(13)
O3_47 O 0.67615(10) 0.81189(9) 0.55819(10)
C1_47 C 0.63472(13) 0.76971(13) 0.56175(12)
C2_47 C 0.61123(13) 0.74632(14) 0.51026(13)
C3_47 C 0.54950(17) 0.68240(17) 0.56655(15)
H1_47 H 0.52110(17) 0.65243(17) 0.56839(15)
C4_47 C 0.56866(15) 0.70315(15) 0.51318(14)
H2_47 H 0.55264(15) 0.68781(15) 0.47832(14)
C5_47 C 0.61491(13) 0.74966(13) 0.61613(12)
C6_47 C 0.57223(15) 0.70587(15) 0.61686(13)
H3_47 H 0.55857(15) 0.69196(15) 0.65330(13)
C7_47 C 0.63165(13) 0.76641(13) 0.45172(13)
C8_47 C 0.63541(13) 0.77194(13) 0.67375(13)
H4_47 H 0.682(2) 0.819(2) 0.525(2)
O3_48 O 0.17615(10) 0.68811(9) 0.44181(10)
C1_48 C 0.13472(13) 0.73029(13) 0.43825(12)
C2_48 C 0.11123(13) 0.75368(14) 0.48974(13)
C3_48 C 0.04950(17) 0.81760(17) 0.43345(15)
H1_48 H 0.02110(17) 0.84757(17) 0.43161(15)
C4_48 C 0.06866(15) 0.79685(15) 0.48682(14)
H2_48 H 0.05264(15) 0.81219(15) 0.52168(14)
C5_48 C 0.11491(13) 0.75034(13) 0.38387(12)
C6_48 C 0.07223(15) 0.79413(15) 0.38314(13)
H3_48 H 0.05857(15) 0.80804(15) 0.34670(13)
C7_48 C 0.13165(13) 0.73359(13) 0.54828(13)
C8_48 C 0.13541(13) 0.72806(13) 0.32625(13)
H4_48 H 0.182(2) 0.681(2) 0.475(2)
loop_
_geom_bond_atom_site_label_1
_geom_bond_atom_site_label_2
_geom_bond_site_symmetry_1
_geom_bond_site_symmetry_2
Cd1 O2 1_555 1_555
O1 C8 1_555 1_555
O2 C8 1_555 1_555
O3 Cd1 1_555 1_555
C1 O3 1_555 1_555
C2 C1 1_555 1_555
C3 H1 1_555 1_555
C4 C2 1_555 1_555
C5 C1 1_555 1_555
C6 C3 1_555 1_555
H3 C6 1_555 1_555
C8 C5 1_555 1_555
H4 O3 1_555 1_555
Cd3 O2 1_555 1_555
Cd4 O1 1_555 1_555
O6 Cd1 1_555 1_555
O7 Cd1 1_555 1_555
O8 Cd1 1_555 1_555
O9 Cd1 1_555 1_555
C3 C4 1_555 1_555
C5 C6 1_555 1_555
O4 C7 1_555 1_555
O5 C7 1_555 1_555
Cd2 O4 1_555 1_555
Cd5 O5 1_555 1_555
Cd1_2 O2_2 1_555 1_555
O1_2 C8_2 1_555 1_555
O2_2 C8_2 1_555 1_555
O3_2 Cd1_2 1_555 1_555
C1_2 O3_2 1_555 1_555
C2_2 C1_2 1_555 1_555
C3_2 H1_2 1_555 1_555
C4_2 C2_2 1_555 1_555
C5_2 C1_2 1_555 1_555
C6_2 C3_2 1_555 1_555
H3_2 C6_2 1_555 1_555
C8_2 C5_2 1_555 1_555
H4_2 O3_2 1_555 1_555
Cd3_2 O2_2 1_555 1_555
Cd4_2 O1_2 1_555 1_555
O6_2 Cd1_2 1_555 1_555
O7_2 Cd1_2 1_555 1_555
O8_2 Cd1_2 1_555 1_555
O9_2 Cd1_2 1_555 1_555
C3_2 C4_2 1_555 1_555
C5_2 C6_2 1_555 1_555
O4_2 C7_2 1_555 1_555
O5_2 C7_2 1_555 1_555
Cd2_2 O4_2 1_555 1_555
Cd5_2 O5_2 1_555 1_555
Cd1_3 O2_3 1_555 1_555
O1_3 C8_3 1_555 1_555
O2_3 C8_3 1_555 1_555
O3_3 Cd1_3 1_555 1_555
C1_3 O3_3 1_555 1_555
C2_3 C1_3 1_555 1_555
C3_3 H1_3 1_555 1_555
C4_3 C2_3 1_555 1_555
C5_3 C1_3 1_555 1_555
C6_3 C3_3 1_555 1_555
H3_3 C6_3 1_555 1_555
C8_3 C5_3 1_555 1_555
H4_3 O3_3 1_555 1_555
Cd3_3 O2_3 1_555 1_555
Cd4_3 O1_3 1_555 1_555
O6_3 Cd1_3 1_555 1_555
O7_3 Cd1_3 1_555 1_555
O8_3 Cd1_3 1_555 1_555
O9_3 Cd1_3 1_555 1_555
C3_3 C4_3 1_555 1_555
C5_3 C6_3 1_555 1_555
O4_3 C7_3 1_555 1_555
O5_3 C7_3 1_555 1_555
Cd2_3 O4_3 1_555 1_555
Cd5_3 O5_3 1_555 1_555
Cd1_4 O2_4 1_555 1_555
O1_4 C8_4 1_555 1_555
O2_4 C8_4 1_555 1_555
O3_4 Cd1_4 1_555 1_555
O4_4 C7_4 1_555 1_555
O5_4 C7_4 1_555 1_555
C1_4 O3_4 1_555 1_555
C2_4 C1_4 1_555 1_555
C3_4 H1_4 1_555 1_555
C4_4 C2_4 1_555 1_555
H2_4 C4_4 1_555 1_555
C5_4 C1_4 1_555 1_555
C6_4 C3_4 1_555 1_555
H3_4 C6_4 1_555 1_555
C7_4 C2_4 1_555 1_555
C8_4 C5_4 1_555 1_555
H4_4 O3_4 1_555 1_555
Cd4_2 O4_4 1_555 1_555
Cd3_4 O2_4 1_555 1_555
Cd4_4 O1_4 1_555 1_555
Cd3_2 O5_4 1_555 1_555
O6_4 Cd1_4 1_555 1_555
O7_4 Cd1_4 1_555 1_555
O8_4 Cd1_4 1_555 1_555
O9_4 Cd1_4 1_555 1_555
C3_4 C4_4 1_555 1_555
C5_4 C6_4 1_555 1_555
Cd1_5 O2_5 1_555 1_555
O6_4 C8_5 1_555 1_555
O2_5 C8_5 1_555 1_555
O3_5 Cd1_5 1_555 1_555
C1_5 O3_5 1_555 1_555
C2_5 C1_5 1_555 1_555
C3_5 H1_5 1_555 1_555
C4_5 C2_5 1_555 1_555
C5_5 C1_5 1_555 1_555
C6_5 C3_5 1_555 1_555
H3_5 C6_5 1_555 1_555
C8_5 C5_5 1_555 1_555
H4_5 O3_5 1_555 1_555
Cd3_5 O2_5 1_555 1_555
O6_5 Cd1_5 1_555 1_555
O7_5 Cd1_5 1_555 1_555
O8_5 Cd1_5 1_555 1_555
O9_5 Cd1_5 1_555 1_555
C3_5 C4_5 1_555 1_555
C5_5 C6_5 1_555 1_555
O4_5 C7_5 1_555 1_555
O5_5 C7_5 1_555 1_555
Cd2_4 O4_5 1_555 1_555
Cd5_4 O5_5 1_555 1_555
Cd1_6 O2_6 1_555 1_555
O1_5 C8_6 1_555 1_555
O2_6 C8_6 1_555 1_555
O3_6 Cd1_6 1_555 1_555
C1_6 O3_6 1_555 1_555
C2_6 C1_6 1_555 1_555
C3_6 H1_6 1_555 1_555
C4_6 C2_6 1_555 1_555
C5_6 C1_6 1_555 1_555
C6_6 C3_6 1_555 1_555
H3_6 C6_6 1_555 1_555
C8_6 C5_6 1_555 1_555
H4_6 O3_6 1_555 1_555
Cd3_6 O2_6 1_555 1_555
Cd4_5 O1_5 1_555 1_555
O6_6 Cd1_6 1_555 1_555
O7_6 Cd1_6 1_555 1_555
O8_6 Cd1_6 1_555 1_555
O9_6 Cd1_6 1_555 1_555
C3_6 C4_6 1_555 1_555
C5_6 C6_6 1_555 1_555
O4_6 C7_6 1_555 1_555
O5_6 C7_6 1_555 1_555
Cd2_5 O4_6 1_555 1_555
Cd5_5 O5_6 1_555 1_555
O8_2 C7_7 1_555 1_555
O5_7 C7_7 1_555 1_555
Cd5_6 O5_7 1_555 1_555
Cd2_2 O2_7 1_555 1_555
O1_6 C8_7 1_555 1_555
O2_7 C8_7 1_555 1_555
O3_7 Cd2_2 1_555 1_555
C1_7 O3_7 1_555 1_555
C2_7 C1_7 1_555 1_555
C3_7 H1_7 1_555 1_555
C4_7 C2_7 1_555 1_555
C5_7 C1_7 1_555 1_555
C6_7 C3_7 1_555 1_555
H3_7 C6_7 1_555 1_555
C8_7 C5_7 1_555 1_555
H4_7 O3_7 1_555 1_555
Cd5_3 O2_7 1_555 1_555
Cd2_3 O1_6 1_555 1_555
O6_7 Cd2_2 1_555 1_555
O7_7 Cd2_2 1_555 1_555
O9_7 Cd2_2 1_555 1_555
C3_7 C4_7 1_555 1_555
C5_7 C6_7 1_555 1_555
Cd1_7 O2_8 1_555 1_555
O1_7 C8_8 1_555 1_555
O2_8 C8_8 1_555 1_555
O3_8 Cd1_7 1_555 1_555
O4_7 C7_8 1_555 1_555
O5_8 C7_8 1_555 1_555
C1_8 O3_8 1_555 1_555
C2_8 C1_8 1_555 1_555
C3_8 H1_8 1_555 1_555
C4_8 C2_8 1_555 1_555
H2_8 C4_8 1_555 1_555
C5_8 C1_8 1_555 1_555
C6_8 C3_8 1_555 1_555
H3_8 C6_8 1_555 1_555
C7_8 C2_8 1_555 1_555
C8_8 C5_8 1_555 1_555
H4_8 O3_8 1_555 1_555
Cd4 O4_7 1_555 1_555
Cd3_7 O2_8 1_555 1_555
Cd4_6 O1_7 1_555 1_555
Cd3 O5_8 1_555 1_555
O6_8 Cd1_7 1_555 1_555
O7_8 Cd1_7 1_555 1_555
O8_7 Cd1_7 1_555 1_555
O9_8 Cd1_7 1_555 1_555
C3_8 C4_8 1_555 1_555
C5_8 C6_8 1_555 1_555
O8_3 C7_9 1_555 1_555
O5_9 C7_9 1_555 1_555
Cd5_7 O5_9 1_555 1_555
Cd2_3 O2_9 1_555 1_555
O1_8 C8_9 1_555 1_555
O2_9 C8_9 1_555 1_555
O3_9 Cd2_3 1_555 1_555
C1_9 O3_9 1_555 1_555
C2_9 C1_9 1_555 1_555
C3_9 H1_9 1_555 1_555
C4_9 C2_9 1_555 1_555
C5_9 C1_9 1_555 1_555
C6_9 C3_9 1_555 1_555
H3_9 C6_9 1_555 1_555
C8_9 C5_9 1_555 1_555
H4_9 O3_9 1_555 1_555
Cd5 O2_9 1_555 1_555
Cd2 O1_8 1_555 1_555
O7_9 Cd2_3 1_555 1_555
O9_9 Cd2_3 1_555 1_555
C3_9 C4_9 1_555 1_555
C5_9 C6_9 1_555 1_555
Cd4_5 O2_10 1_555 1_555
O1_9 C8_10 1_555 1_555
O2_10 C8_10 1_555 1_555
O3_10 Cd4_5 1_555 1_555
O4_8 C7_10 1_555 1_555
O5_10 C7_10 1_555 1_555
C1_10 O3_10 1_555 1_555
C2_10 C1_10 1_555 1_555
C3_10 H1_10 1_555 1_555
C4_10 C2_10 1_555 1_555
H2_10 C4_10 1_555 1_555
C5_10 C1_10 1_555 1_555
C6_10 C3_10 1_555 1_555
H3_10 C6_10 1_555 1_555
C7_10 C2_10 1_555 1_555
C8_10 C5_10 1_555 1_555
H4_10 O3_10 1_555 1_555
Cd4_3 O4_8 1_555 1_555
Cd3_8 O2_10 1_555 1_555
Cd4_7 O1_9 1_555 1_555
Cd3_3 O5_10 1_555 1_555
O7_10 Cd4_5 1_555 1_555
O8_8 Cd4_5 1_555 1_555
O9_10 Cd4_5 1_555 1_555
C3_10 C4_10 1_555 1_555
C5_10 C6_10 1_555 1_555
O8 C7_11 1_555 1_555
O5_11 C7_11 1_555 1_555
Cd5_8 O5_11 1_555 1_555
Cd2 O2_11 1_555 1_555
O6_7 C8_11 1_555 1_555
O2_11 C8_11 1_555 1_555
O3_11 Cd2 1_555 1_555
C1_11 O3_11 1_555 1_555
C2_11 C1_11 1_555 1_555
C3_11 H1_11 1_555 1_555
C4_11 C2_11 1_555 1_555
C5_11 C1_11 1_555 1_555
C6_11 C3_11 1_555 1_555
H3_11 C6_11 1_555 1_555
C8_11 C5_11 1_555 1_555
H4_11 O3_11 1_555 1_555
Cd5_2 O2_11 1_555 1_555
O7_11 Cd2 1_555 1_555
O9_11 Cd2 1_555 1_555
C3_11 C4_11 1_555 1_555
C5_11 C6_11 1_555 1_555
Cd1_8 O2_12 1_555 1_555
O6_8 C8_12 1_555 1_555
O2_12 C8_12 1_555 1_555
O3_12 Cd1_8 1_555 1_555
C1_12 O3_12 1_555 1_555
C2_12 C1_12 1_555 1_555
C3_12 H1_12 1_555 1_555
C4_12 C2_12 1_555 1_555
C5_12 C1_12 1_555 1_555
C6_12 C3_12 1_555 1_555
H3_12 C6_12 1_555 1_555
C8_12 C5_12 1_555 1_555
H4_12 O3_12 1_555 1_555
Cd3_9 O2_12 1_555 1_555
O6_9 Cd1_8 1_555 1_555
O7_12 Cd1_8 1_555 1_555
O8_9 Cd1_8 1_555 1_555
O9_12 Cd1_8 1_555 1_555
C3_12 C4_12 1_555 1_555
C5_12 C6_12 1_555 1_555
O4_9 C7_12 1_555 1_555
O5_12 C7_12 1_555 1_555
Cd2_6 O4_9 1_555 1_555
Cd5_9 O5_12 1_555 1_555
Cd4_4 O2_13 1_555 1_555
O6_5 C8_13 1_555 1_555
O2_13 C8_13 1_555 1_555
O3_13 Cd4_4 1_555 1_555
O4_10 C7_13 1_555 1_555
O5_13 C7_13 1_555 1_555
C1_13 O3_13 1_555 1_555
C2_13 C1_13 1_555 1_555
C3_13 H1_13 1_555 1_555
C4_13 C2_13 1_555 1_555
H2_13 C4_13 1_555 1_555
C5_13 C1_13 1_555 1_555
C6_13 C3_13 1_555 1_555
H3_13 C6_13 1_555 1_555
C7_13 C2_13 1_555 1_555
C8_13 C5_13 1_555 1_555
H4_13 O3_13 1_555 1_555
Cd2_7 O4_10 1_555 1_555
Cd3_10 O2_13 1_555 1_555
Cd5_10 O5_13 1_555 1_555
O7_13 Cd4_4 1_555 1_555
O8_10 Cd4_4 1_555 1_555
O9_13 Cd4_4 1_555 1_555
C3_13 C4_13 1_555 1_555
C5_13 C6_13 1_555 1_555
Cd4_7 O2_14 1_555 1_555
O6_6 C8_14 1_555 1_555
O2_14 C8_14 1_555 1_555
O3_14 Cd4_7 1_555 1_555
O4_11 C7_14 1_555 1_555
O5_14 C7_14 1_555 1_555
C1_14 O3_14 1_555 1_555
C2_14 C1_14 1_555 1_555
C3_14 H1_14 1_555 1_555
C4_14 C2_14 1_555 1_555
H2_14 C4_14 1_555 1_555
C5_14 C1_14 1_555 1_555
C6_14 C3_14 1_555 1_555
H3_14 C6_14 1_555 1_555
C7_14 C2_14 1_555 1_555
C8_14 C5_14 1_555 1_555
H4_14 O3_14 1_555 1_555
Cd2_8 O4_11 1_555 1_555
Cd3_11 O2_14 1_555 1_555
Cd5_11 O5_14 1_555 1_555
O7_14 Cd4_7 1_555 1_555
O8_11 Cd4_7 1_555 1_555
O9_14 Cd4_7 1_555 1_555
C3_14 C4_14 1_555 1_555
C5_14 C6_14 1_555 1_555
Cd4_6 O2_15 1_555 1_555
O6_9 C8_15 1_555 1_555
O2_15 C8_15 1_555 1_555
O3_15 Cd4_6 1_555 1_555
O4_12 C7_15 1_555 1_555
O5_15 C7_15 1_555 1_555
C1_15 O3_15 1_555 1_555
C2_15 C1_15 1_555 1_555
C3_15 H1_15 1_555 1_555
C4_15 C2_15 1_555 1_555
H2_15 C4_15 1_555 1_555
C5_15 C1_15 1_555 1_555
C6_15 C3_15 1_555 1_555
H3_15 C6_15 1_555 1_555
C7_15 C2_15 1_555 1_555
C8_15 C5_15 1_555 1_555
H4_15 O3_15 1_555 1_555
Cd2_9 O4_12 1_555 1_555
Cd3_12 O2_15 1_555 1_555
Cd5_12 O5_15 1_555 1_555
O7_15 Cd4_6 1_555 1_555
O8_12 Cd4_6 1_555 1_555
O9_15 Cd4_6 1_555 1_555
C3_15 C4_15 1_555 1_555
C5_15 C6_15 1_555 1_555
O8_6 C7_16 1_555 1_555
O5_16 C7_16 1_555 1_555
Cd3_11 O5_16 1_555 1_555
Cd2_5 O2_16 1_555 1_555
O6 C8_16 1_555 1_555
O2_16 C8_16 1_555 1_555
O3_16 Cd2_5 1_555 1_555
C1_16 O3_16 1_555 1_555
C2_16 C1_16 1_555 1_555
C3_16 H1_16 1_555 1_555
C4_16 C2_16 1_555 1_555
C5_16 C1_16 1_555 1_555
C6_16 C3_16 1_555 1_555
H3_16 C6_16 1_555 1_555
C8_16 C5_16 1_555 1_555
H4_16 O3_16 1_555 1_555
Cd5_8 O2_16 1_555 1_555
O6_10 Cd2_5 1_555 1_555
O7_16 Cd2_5 1_555 1_555
O9_16 Cd2_5 1_555 1_555
C3_16 C4_16 1_555 1_555
C5_16 C6_16 1_555 1_555
Cd4 O2_17 1_555 1_555
O6_10 C8_17 1_555 1_555
O2_17 C8_17 1_555 1_555
O3_17 Cd4 1_555 1_555
O8_7 C7_17 1_555 1_555
O5_17 C7_17 1_555 1_555
C1_17 O3_17 1_555 1_555
C2_17 C1_17 1_555 1_555
C3_17 H1_17 1_555 1_555
C4_17 C2_17 1_555 1_555
H2_17 C4_17 1_555 1_555
C5_17 C1_17 1_555 1_555
C6_17 C3_17 1_555 1_555
H3_17 C6_17 1_555 1_555
C7_17 C2_17 1_555 1_555
C8_17 C5_17 1_555 1_555
H4_17 O3_17 1_555 1_555
Cd5_5 O2_17 1_555 1_555
Cd3_9 O5_17 1_555 1_555
O7_17 Cd4 1_555 1_555
O9_17 Cd4 1_555 1_555
C3_17 C4_17 1_555 1_555
C5_17 C6_17 1_555 1_555
Cd4_2 O2_18 1_555 1_555
O1_10 C8_18 1_555 1_555
O2_18 C8_18 1_555 1_555
O3_18 Cd4_2 1_555 1_555
O8_4 C7_18 1_555 1_555
O5_18 C7_18 1_555 1_555
C1_18 O3_18 1_555 1_555
C2_18 C1_18 1_555 1_555
C3_18 H1_18 1_555 1_555
C4_18 C2_18 1_555 1_555
H2_18 C4_18 1_555 1_555
C5_18 C1_18 1_555 1_555
C6_18 C3_18 1_555 1_555
H3_18 C6_18 1_555 1_555
C7_18 C2_18 1_555 1_555
C8_18 C5_18 1_555 1_555
H4_18 O3_18 1_555 1_555
Cd5_9 O2_18 1_555 1_555
Cd2_6 O1_10 1_555 1_555
Cd3_5 O5_18 1_555 1_555
O7_18 Cd4_2 1_555 1_555
O9_18 Cd4_2 1_555 1_555
C3_18 C4_18 1_555 1_555
C5_18 C6_18 1_555 1_555
Cd2_8 O2_19 1_555 1_555
O1_11 C8_19 1_555 1_555
O2_19 C8_19 1_555 1_555
O3_19 Cd2_8 1_555 1_555
O8_11 C7_19 1_555 1_555
O5_19 C7_19 1_555 1_555
C1_19 O3_19 1_555 1_555
C2_19 C1_19 1_555 1_555
C3_19 H1_19 1_555 1_555
C4_19 C2_19 1_555 1_555
H2_19 C4_19 1_555 1_555
C5_19 C1_19 1_555 1_555
C6_19 C3_19 1_555 1_555
H3_19 C6_19 1_555 1_555
C7_19 C2_19 1_555 1_555
C8_19 C5_19 1_555 1_555
H4_19 O3_19 1_555 1_555
Cd5_12 O2_19 1_555 1_555
Cd2_9 O1_11 1_555 1_555
Cd3_8 O5_19 1_555 1_555
O6_11 Cd2_8 1_555 1_555
O7_19 Cd2_8 1_555 1_555
O9_19 Cd2_8 1_555 1_555
C3_19 C4_19 1_555 1_555
C5_19 C6_19 1_555 1_555
O8_5 C7_20 1_555 1_555
O5_20 C7_20 1_555 1_555
Cd3_10 O5_20 1_555 1_555
Cd2_4 O2_20 1_555 1_555
O6_3 C8_20 1_555 1_555
O2_20 C8_20 1_555 1_555
O3_20 Cd2_4 1_555 1_555
C1_20 O3_20 1_555 1_555
C2_20 C1_20 1_555 1_555
C3_20 H1_20 1_555 1_555
C4_20 C2_20 1_555 1_555
C5_20 C1_20 1_555 1_555
C6_20 C3_20 1_555 1_555
H3_20 C6_20 1_555 1_555
C8_20 C5_20 1_555 1_555
H4_20 O3_20 1_555 1_555
Cd5_7 O2_20 1_555 1_555
O6_12 Cd2_4 1_555 1_555
O7_20 Cd2_4 1_555 1_555
O9_20 Cd2_4 1_555 1_555
C3_20 C4_20 1_555 1_555
C5_20 C6_20 1_555 1_555
Cd2_9 O2_21 1_555 1_555
O1_12 C8_21 1_555 1_555
O2_21 C8_21 1_555 1_555
O3_21 Cd2_9 1_555 1_555
O8_12 C7_21 1_555 1_555
O5_21 C7_21 1_555 1_555
C1_21 O3_21 1_555 1_555
C2_21 C1_21 1_555 1_555
C3_21 H1_21 1_555 1_555
C4_21 C2_21 1_555 1_555
H2_21 C4_21 1_555 1_555
C5_21 C1_21 1_555 1_555
C6_21 C3_21 1_555 1_555
H3_21 C6_21 1_555 1_555
C7_21 C2_21 1_555 1_555
C8_21 C5_21 1_555 1_555
H4_21 O3_21 1_555 1_555
Cd5_10 O2_21 1_555 1_555
Cd2_7 O1_12 1_555 1_555
Cd3_7 O5_21 1_555 1_555
O7_21 Cd2_9 1_555 1_555
O9_21 Cd2_9 1_555 1_555
C3_21 C4_21 1_555 1_555
C5_21 C6_21 1_555 1_555
O8_9 C7_22 1_555 1_555
O5_22 C7_22 1_555 1_555
Cd3_12 O5_22 1_555 1_555
Cd2_6 O2_22 1_555 1_555
O6_2 C8_22 1_555 1_555
O2_22 C8_22 1_555 1_555
O3_22 Cd2_6 1_555 1_555
C1_22 O3_22 1_555 1_555
C2_22 C1_22 1_555 1_555
C3_22 H1_22 1_555 1_555
C4_22 C2_22 1_555 1_555
C5_22 C1_22 1_555 1_555
C6_22 C3_22 1_555 1_555
H3_22 C6_22 1_555 1_555
C8_22 C5_22 1_555 1_555
H4_22 O3_22 1_555 1_555
Cd5_6 O2_22 1_555 1_555
O7_22 Cd2_6 1_555 1_555
O9_22 Cd2_6 1_555 1_555
C3_22 C4_22 1_555 1_555
C5_22 C6_22 1_555 1_555
Cd2_7 O2_23 1_555 1_555
O6_11 C8_23 1_555 1_555
O2_23 C8_23 1_555 1_555
O3_23 Cd2_7 1_555 1_555
O8_10 C7_23 1_555 1_555
O5_23 C7_23 1_555 1_555
C1_23 O3_23 1_555 1_555
C2_23 C1_23 1_555 1_555
C3_23 H1_23 1_555 1_555
C4_23 C2_23 1_555 1_555
H2_23 C4_23 1_555 1_555
C5_23 C1_23 1_555 1_555
C6_23 C3_23 1_555 1_555
H3_23 C6_23 1_555 1_555
C7_23 C2_23 1_555 1_555
C8_23 C5_23 1_555 1_555
H4_23 O3_23 1_555 1_555
Cd5_11 O2_23 1_555 1_555
Cd3_4 O5_23 1_555 1_555
O7_23 Cd2_7 1_555 1_555
O9_23 Cd2_7 1_555 1_555
C3_23 C4_23 1_555 1_555
C5_23 C6_23 1_555 1_555
Cd4_3 O2_24 1_555 1_555
O6_12 C8_24 1_555 1_555
O2_24 C8_24 1_555 1_555
O3_24 Cd4_3 1_555 1_555
O8_8 C7_24 1_555 1_555
O5_24 C7_24 1_555 1_555
C1_24 O3_24 1_555 1_555
C2_24 C1_24 1_555 1_555
C3_24 H1_24 1_555 1_555
C4_24 C2_24 1_555 1_555
H2_24 C4_24 1_555 1_555
C5_24 C1_24 1_555 1_555
C6_24 C3_24 1_555 1_555
H3_24 C6_24 1_555 1_555
C7_24 C2_24 1_555 1_555
C8_24 C5_24 1_555 1_555
H4_24 O3_24 1_555 1_555
Cd5_4 O2_24 1_555 1_555
Cd3_6 O5_24 1_555 1_555
O7_24 Cd4_3 1_555 1_555
O9_24 Cd4_3 1_555 1_555
C3_24 C4_24 1_555 1_555
C5_24 C6_24 1_555 1_555
O4_13 C7_25 1_555 1_555
O9_19 C7_25 1_555 1_555
Cd5_12 O4_13 1_555 1_555
Cd3_5 O7_4 1_555 1_555
O1_13 C8_25 1_555 1_555
O7_4 C8_25 1_555 1_555
O3_25 Cd3_5 1_555 1_555
C1_25 O3_25 1_555 1_555
C2_25 C1_25 1_555 1_555
C3_25 H1_25 1_555 1_555
C4_25 C2_25 1_555 1_555
C5_25 C1_25 1_555 1_555
C6_25 C3_25 1_555 1_555
H3_25 C6_25 1_555 1_555
C8_25 C5_25 1_555 1_555
H4_25 O3_25 1_555 1_555
Cd3_4 O1_13 1_555 1_555
O6_13 Cd3_5 1_555 1_555
O8_13 Cd3_5 1_555 1_555
C3_25 C4_25 1_555 1_555
C5_25 C6_25 1_555 1_555
O4_14 C7_26 1_555 1_555
O9_21 C7_26 1_555 1_555
Cd5_10 O4_14 1_555 1_555
Cd3_6 O7_10 1_555 1_555
O1_14 C8_26 1_555 1_555
O7_10 C8_26 1_555 1_555
O3_26 Cd3_6 1_555 1_555
C1_26 O3_26 1_555 1_555
C2_26 C1_26 1_555 1_555
C3_26 H1_26 1_555 1_555
C4_26 C2_26 1_555 1_555
C5_26 C1_26 1_555 1_555
C6_26 C3_26 1_555 1_555
H3_26 C6_26 1_555 1_555
C8_26 C5_26 1_555 1_555
H4_26 O3_26 1_555 1_555
Cd3_8 O1_14 1_555 1_555
O6_14 Cd3_6 1_555 1_555
O8_14 Cd3_6 1_555 1_555
C3_26 C4_26 1_555 1_555
C5_26 C6_26 1_555 1_555
O4_15 C7_27 1_555 1_555
O9_23 C7_27 1_555 1_555
Cd5_11 O4_15 1_555 1_555
Cd3_9 O7_8 1_555 1_555
O1_15 C8_27 1_555 1_555
O7_8 C8_27 1_555 1_555
O3_27 Cd3_9 1_555 1_555
C1_27 O3_27 1_555 1_555
C2_27 C1_27 1_555 1_555
C3_27 H1_27 1_555 1_555
C4_27 C2_27 1_555 1_555
C5_27 C1_27 1_555 1_555
C6_27 C3_27 1_555 1_555
H3_27 C6_27 1_555 1_555
C8_27 C5_27 1_555 1_555
H4_27 O3_27 1_555 1_555
Cd3_7 O1_15 1_555 1_555
O6_15 Cd3_9 1_555 1_555
O8_15 Cd3_9 1_555 1_555
C3_27 C4_27 1_555 1_555
C5_27 C6_27 1_555 1_555
Cd3 O7_17 1_555 1_555
O1_16 C8_28 1_555 1_555
O7_17 C8_28 1_555 1_555
O3_28 Cd3 1_555 1_555
O4_16 C7_28 1_555 1_555
O9_10 C7_28 1_555 1_555
C1_28 O3_28 1_555 1_555
C2_28 C1_28 1_555 1_555
C3_28 H1_28 1_555 1_555
C4_28 C2_28 1_555 1_555
H2_28 C4_28 1_555 1_555
C5_28 C1_28 1_555 1_555
C6_28 C3_28 1_555 1_555
H3_28 C6_28 1_555 1_555
C7_28 C2_28 1_555 1_555
C8_28 C5_28 1_555 1_555
H4_28 O3_28 1_555 1_555
Cd3_8 O4_16 1_555 1_555
Cd5_5 O1_16 1_555 1_555
O6_16 Cd3 1_555 1_555
O8_16 Cd3 1_555 1_555
C3_28 C4_28 1_555 1_555
C5_28 C6_28 1_555 1_555
O4_17 C7_29 1_555 1_555
O9_15 C7_29 1_555 1_555
Cd3_12 O4_17 1_555 1_555
Cd5_8 O7 1_555 1_555
O6_16 C8_29 1_555 1_555
O7 C8_29 1_555 1_555
O3_29 Cd5_8 1_555 1_555
C1_29 O3_29 1_555 1_555
C2_29 C1_29 1_555 1_555
C3_29 H1_29 1_555 1_555
C4_29 C2_29 1_555 1_555
C5_29 C1_29 1_555 1_555
C6_29 C3_29 1_555 1_555
H3_29 C6_29 1_555 1_555
C8_29 C5_29 1_555 1_555
H4_29 O3_29 1_555 1_555
O6_17 Cd5_8 1_555 1_555
O8_17 Cd5_8 1_555 1_555
C3_29 C4_29 1_555 1_555
C5_29 C6_29 1_555 1_555
O4_18 C7_30 1_555 1_555
O9_13 C7_30 1_555 1_555
Cd3_10 O4_18 1_555 1_555
Cd5_6 O7_2 1_555 1_555
O1_17 C8_30 1_555 1_555
O7_2 C8_30 1_555 1_555
O3_30 Cd5_6 1_555 1_555
C1_30 O3_30 1_555 1_555
C2_30 C1_30 1_555 1_555
C3_30 H1_30 1_555 1_555
C4_30 C2_30 1_555 1_555
C5_30 C1_30 1_555 1_555
C6_30 C3_30 1_555 1_555
H3_30 C6_30 1_555 1_555
C8_30 C5_30 1_555 1_555
H4_30 O3_30 1_555 1_555
Cd3_2 O1_17 1_555 1_555
O6_18 Cd5_6 1_555 1_555
O8_18 Cd5_6 1_555 1_555
C3_30 C4_30 1_555 1_555
C5_30 C6_30 1_555 1_555
Cd5_10 O7_23 1_555 1_555
O1_18 C8_31 1_555 1_555
O7_23 C8_31 1_555 1_555
O3_31 Cd5_10 1_555 1_555
C1_31 O3_31 1_555 1_555
C2_31 C1_31 1_555 1_555
C3_31 H1_31 1_555 1_555
C4_31 C2_31 1_555 1_555
C5_31 C1_31 1_555 1_555
C6_31 C3_31 1_555 1_555
H3_31 C6_31 1_555 1_555
C8_31 C5_31 1_555 1_555
H4_31 O3_31 1_555 1_555
Cd5_11 O1_18 1_555 1_555
O6_19 Cd5_10 1_555 1_555
C3_31 C4_31 1_555 1_555
C5_31 C6_31 1_555 1_555
O8_14 C7_31 1_555 1_555
O9_6 C7_31 1_555 1_555
Cd3_3 O7_24 1_555 1_555
O1_19 C8_32 1_555 1_555
O7_24 C8_32 1_555 1_555
O3_32 Cd3_3 1_555 1_555
O4_19 C7_32 1_555 1_555
O9_4 C7_32 1_555 1_555
C1_32 O3_32 1_555 1_555
C2_32 C1_32 1_555 1_555
C3_32 H1_32 1_555 1_555
C4_32 C2_32 1_555 1_555
H2_32 C4_32 1_555 1_555
C5_32 C1_32 1_555 1_555
C6_32 C3_32 1_555 1_555
H3_32 C6_32 1_555 1_555
C7_32 C2_32 1_555 1_555
C8_32 C5_32 1_555 1_555
H4_32 O3_32 1_555 1_555
Cd3_4 O4_19 1_555 1_555
Cd5_4 O1_19 1_555 1_555
O6_20 Cd3_3 1_555 1_555
O8_19 Cd3_3 1_555 1_555
C3_32 C4_32 1_555 1_555
C5_32 C6_32 1_555 1_555
Cd5_11 O7_19 1_555 1_555
O1_20 C8_33 1_555 1_555
O7_19 C8_33 1_555 1_555
O3_33 Cd5_11 1_555 1_555
C1_33 O3_33 1_555 1_555
C2_33 C1_33 1_555 1_555
C3_33 H1_33 1_555 1_555
C4_33 C2_33 1_555 1_555
C5_33 C1_33 1_555 1_555
C6_33 C3_33 1_555 1_555
H3_33 C6_33 1_555 1_555
C8_33 C5_33 1_555 1_555
H4_33 O3_33 1_555 1_555
Cd5_12 O1_20 1_555 1_555
C3_33 C4_33 1_555 1_555
C5_33 C6_33 1_555 1_555
O8_15 C7_33 1_555 1_555
O9_12 C7_33 1_555 1_555
Cd3_2 O7_18 1_555 1_555
O1_21 C8_34 1_555 1_555
O7_18 C8_34 1_555 1_555
O3_34 Cd3_2 1_555 1_555
O4_20 C7_34 1_555 1_555
O9_8 C7_34 1_555 1_555
C1_34 O3_34 1_555 1_555
C2_34 C1_34 1_555 1_555
C3_34 H1_34 1_555 1_555
C4_34 C2_34 1_555 1_555
H2_34 C4_34 1_555 1_555
C5_34 C1_34 1_555 1_555
C6_34 C3_34 1_555 1_555
H3_34 C6_34 1_555 1_555
C7_34 C2_34 1_555 1_555
C8_34 C5_34 1_555 1_555
H4_34 O3_34 1_555 1_555
Cd3_7 O4_20 1_555 1_555
Cd5_9 O1_21 1_555 1_555
O8_20 Cd3_2 1_555 1_555
C3_34 C4_34 1_555 1_555
C5_34 C6_34 1_555 1_555
Cd5_12 O7_21 1_555 1_555
O6_19 C8_35 1_555 1_555
O7_21 C8_35 1_555 1_555
O3_35 Cd5_12 1_555 1_555
C1_35 O3_35 1_555 1_555
C2_35 C1_35 1_555 1_555
C3_35 H1_35 1_555 1_555
C4_35 C2_35 1_555 1_555
C5_35 C1_35 1_555 1_555
C6_35 C3_35 1_555 1_555
H3_35 C6_35 1_555 1_555
C8_35 C5_35 1_555 1_555
H4_35 O3_35 1_555 1_555
C3_35 C4_35 1_555 1_555
C5_35 C6_35 1_555 1_555
O8_13 C7_35 1_555 1_555
O9_5 C7_35 1_555 1_555
O4_21 C7_36 1_555 1_555
O9_14 C7_36 1_555 1_555
Cd3_11 O4_21 1_555 1_555
Cd5_7 O7_3 1_555 1_555
O6_20 C8_36 1_555 1_555
O7_3 C8_36 1_555 1_555
O3_36 Cd5_7 1_555 1_555
C1_36 O3_36 1_555 1_555
C2_36 C1_36 1_555 1_555
C3_36 H1_36 1_555 1_555
C4_36 C2_36 1_555 1_555
C5_36 C1_36 1_555 1_555
C6_36 C3_36 1_555 1_555
H3_36 C6_36 1_555 1_555
C8_36 C5_36 1_555 1_555
H4_36 O3_36 1_555 1_555
O6_21 Cd5_7 1_555 1_555
O8_21 Cd5_7 1_555 1_555
C3_36 C4_36 1_555 1_555
C5_36 C6_36 1_555 1_555
Cd5_5 O7_16 1_555 1_555
O6_17 C8_37 1_555 1_555
O7_16 C8_37 1_555 1_555
O3_37 Cd5_5 1_555 1_555
O4_22 C7_37 1_555 1_555
O9_7 C7_37 1_555 1_555
C1_37 O3_37 1_555 1_555
C2_37 C1_37 1_555 1_555
C3_37 H1_37 1_555 1_555
C4_37 C2_37 1_555 1_555
H2_37 C4_37 1_555 1_555
C5_37 C1_37 1_555 1_555
C6_37 C3_37 1_555 1_555
H3_37 C6_37 1_555 1_555
C7_37 C2_37 1_555 1_555
C8_37 C5_37 1_555 1_555
H4_37 O3_37 1_555 1_555
Cd5_3 O4_22 1_555 1_555
O8_22 Cd5_5 1_555 1_555
C3_37 C4_37 1_555 1_555
C5_37 C6_37 1_555 1_555
Cd5_9 O7_22 1_555 1_555
O6_18 C8_38 1_555 1_555
O7_22 C8_38 1_555 1_555
O3_38 Cd5_9 1_555 1_555
O4_23 C7_38 1_555 1_555
O9_9 C7_38 1_555 1_555
C1_38 O3_38 1_555 1_555
C2_38 C1_38 1_555 1_555
C3_38 H1_38 1_555 1_555
C4_38 C2_38 1_555 1_555
H2_38 C4_38 1_555 1_555
C5_38 C1_38 1_555 1_555
C6_38 C3_38 1_555 1_555
H3_38 C6_38 1_555 1_555
C7_38 C2_38 1_555 1_555
C8_38 C5_38 1_555 1_555
H4_38 O3_38 1_555 1_555
Cd5 O4_23 1_555 1_555
O8_23 Cd5_9 1_555 1_555
C3_38 C4_38 1_555 1_555
C5_38 C6_38 1_555 1_555
Cd5_4 O7_20 1_555 1_555
O6_21 C8_39 1_555 1_555
O7_20 C8_39 1_555 1_555
O3_39 Cd5_4 1_555 1_555
O4_24 C7_39 1_555 1_555
O9_11 C7_39 1_555 1_555
C1_39 O3_39 1_555 1_555
C2_39 C1_39 1_555 1_555
C3_39 H1_39 1_555 1_555
C4_39 C2_39 1_555 1_555
H2_39 C4_39 1_555 1_555
C5_39 C1_39 1_555 1_555
C6_39 C3_39 1_555 1_555
H3_39 C6_39 1_555 1_555
C7_39 C2_39 1_555 1_555
C8_39 C5_39 1_555 1_555
H4_39 O3_39 1_555 1_555
Cd5_2 O4_24 1_555 1_555
O8_24 Cd5_4 1_555 1_555
C3_39 C4_39 1_555 1_555
C5_39 C6_39 1_555 1_555
Cd3_10 O7_5 1_555 1_555
O6_13 C8_40 1_555 1_555
O7_5 C8_40 1_555 1_555
O3_40 Cd3_10 1_555 1_555
C1_40 O3_40 1_555 1_555
C2_40 C1_40 1_555 1_555
C3_40 H1_40 1_555 1_555
C4_40 C2_40 1_555 1_555
C5_40 C1_40 1_555 1_555
C6_40 C3_40 1_555 1_555
H3_40 C6_40 1_555 1_555
C8_40 C5_40 1_555 1_555
H4_40 O3_40 1_555 1_555
O6_22 Cd3_10 1_555 1_555
C3_40 C4_40 1_555 1_555
C5_40 C6_40 1_555 1_555
O8_18 C7_40 1_555 1_555
O9_22 C7_40 1_555 1_555
Cd3_4 O7_13 1_555 1_555
O6_22 C8_41 1_555 1_555
O7_13 C8_41 1_555 1_555
O3_41 Cd3_4 1_555 1_555
O8_19 C7_41 1_555 1_555
O9_3 C7_41 1_555 1_555
C1_41 O3_41 1_555 1_555
C2_41 C1_41 1_555 1_555
C3_41 H1_41 1_555 1_555
C4_41 C2_41 1_555 1_555
H2_41 C4_41 1_555 1_555
C5_41 C1_41 1_555 1_555
C6_41 C3_41 1_555 1_555
H3_41 C6_41 1_555 1_555
C7_41 C2_41 1_555 1_555
C8_41 C5_41 1_555 1_555
H4_41 O3_41 1_555 1_555
C3_41 C4_41 1_555 1_555
C5_41 C6_41 1_555 1_555
Cd3_8 O7_14 1_555 1_555
O1_22 C8_42 1_555 1_555
O7_14 C8_42 1_555 1_555
O3_42 Cd3_8 1_555 1_555
O8_16 C7_42 1_555 1_555
O9 C7_42 1_555 1_555
C1_42 O3_42 1_555 1_555
C2_42 C1_42 1_555 1_555
C3_42 H1_42 1_555 1_555
C4_42 C2_42 1_555 1_555
H2_42 C4_42 1_555 1_555
C5_42 C1_42 1_555 1_555
C6_42 C3_42 1_555 1_555
H3_42 C6_42 1_555 1_555
C7_42 C2_42 1_555 1_555
C8_42 C5_42 1_555 1_555
H4_42 O3_42 1_555 1_555
Cd3_11 O1_22 1_555 1_555
C3_42 C4_42 1_555 1_555
C5_42 C6_42 1_555 1_555
Cd5 O7_11 1_555 1_555
O1_23 C8_43 1_555 1_555
O7_11 C8_43 1_555 1_555
O3_43 Cd5 1_555 1_555
O8_23 C7_43 1_555 1_555
O9_18 C7_43 1_555 1_555
C1_43 O3_43 1_555 1_555
C2_43 C1_43 1_555 1_555
C3_43 H1_43 1_555 1_555
C4_43 C2_43 1_555 1_555
H2_43 C4_43 1_555 1_555
C5_43 C1_43 1_555 1_555
C6_43 C3_43 1_555 1_555
H3_43 C6_43 1_555 1_555
C7_43 C2_43 1_555 1_555
C8_43 C5_43 1_555 1_555
H4_43 O3_43 1_555 1_555
Cd5_2 O1_23 1_555 1_555
O6_23 Cd5 1_555 1_555
C3_43 C4_43 1_555 1_555
C5_43 C6_43 1_555 1_555
Cd3_12 O7_12 1_555 1_555
O6_15 C8_44 1_555 1_555
O7_12 C8_44 1_555 1_555
O3_44 Cd3_12 1_555 1_555
C1_44 O3_44 1_555 1_555
C2_44 C1_44 1_555 1_555
C3_44 H1_44 1_555 1_555
C4_44 C2_44 1_555 1_555
C5_44 C1_44 1_555 1_555
C6_44 C3_44 1_555 1_555
H3_44 C6_44 1_555 1_555
C8_44 C5_44 1_555 1_555
H4_44 O3_44 1_555 1_555
O6_24 Cd3_12 1_555 1_555
C3_44 C4_44 1_555 1_555
C5_44 C6_44 1_555 1_555
O8_17 C7_44 1_555 1_555
O9_16 C7_44 1_555 1_555
Cd5_2 O7_7 1_555 1_555
O1_24 C8_45 1_555 1_555
O7_7 C8_45 1_555 1_555
O3_45 Cd5_2 1_555 1_555
O8_24 C7_45 1_555 1_555
O9_24 C7_45 1_555 1_555
C1_45 O3_45 1_555 1_555
C2_45 C1_45 1_555 1_555
C3_45 H1_45 1_555 1_555
C4_45 C2_45 1_555 1_555
H2_45 C4_45 1_555 1_555
C5_45 C1_45 1_555 1_555
C6_45 C3_45 1_555 1_555
H3_45 C6_45 1_555 1_555
C7_45 C2_45 1_555 1_555
C8_45 C5_45 1_555 1_555
H4_45 O3_45 1_555 1_555
Cd5_3 O1_24 1_555 1_555
C3_45 C4_45 1_555 1_555
C5_45 C6_45 1_555 1_555
Cd3_11 O7_6 1_555 1_555
O6_14 C8_46 1_555 1_555
O7_6 C8_46 1_555 1_555
O3_46 Cd3_11 1_555 1_555
C1_46 O3_46 1_555 1_555
C2_46 C1_46 1_555 1_555
C3_46 H1_46 1_555 1_555
C4_46 C2_46 1_555 1_555
C5_46 C1_46 1_555 1_555
C6_46 C3_46 1_555 1_555
H3_46 C6_46 1_555 1_555
C8_46 C5_46 1_555 1_555
H4_46 O3_46 1_555 1_555
C3_46 C4_46 1_555 1_555
C5_46 C6_46 1_555 1_555
O8_21 C7_46 1_555 1_555
O9_20 C7_46 1_555 1_555
Cd5_3 O7_9 1_555 1_555
O6_23 C8_47 1_555 1_555
O7_9 C8_47 1_555 1_555
O3_47 Cd5_3 1_555 1_555
O8_22 C7_47 1_555 1_555
O9_17 C7_47 1_555 1_555
C1_47 O3_47 1_555 1_555
C2_47 C1_47 1_555 1_555
C3_47 H1_47 1_555 1_555
C4_47 C2_47 1_555 1_555
H2_47 C4_47 1_555 1_555
C5_47 C1_47 1_555 1_555
C6_47 C3_47 1_555 1_555
H3_47 C6_47 1_555 1_555
C7_47 C2_47 1_555 1_555
C8_47 C5_47 1_555 1_555
H4_47 O3_47 1_555 1_555
C3_47 C4_47 1_555 1_555
C5_47 C6_47 1_555 1_555
Cd3_7 O7_15 1_555 1_555
O6_24 C8_48 1_555 1_555
O7_15 C8_48 1_555 1_555
O3_48 Cd3_7 1_555 1_555
O8_20 C7_48 1_555 1_555
O9_2 C7_48 1_555 1_555
C1_48 O3_48 1_555 1_555
C2_48 C1_48 1_555 1_555
C3_48 H1_48 1_555 1_555
C4_48 C2_48 1_555 1_555
H2_48 C4_48 1_555 1_555
C5_48 C1_48 1_555 1_555
C6_48 C3_48 1_555 1_555
H3_48 C6_48 1_555 1_555
C7_48 C2_48 1_555 1_555
C8_48 C5_48 1_555 1_555
H4_48 O3_48 1_555 1_555
C3_48 C4_48 1_555 1_555
C5_48 C6_48 1_555 1_555

#END
