
###############################################################################
#
# This file contains modified crystal structure data generated from the
# MOF subset of the Cambridge Structural Database (CSD) v543 
# hosted by the Cambridge Crystallographic Data Centre (CCDC).
#
# This work is licensed under the Creative Commons
# Attribution-NonCommercial-ShareAlike 4.0 International License.
# To view a copy of this license, visit
# http://creativecommons.org/licenses/by-nc-sa/4.0/
# or send a letter to
# Creative Commons, PO Box 1866, Mountain View, CA 94042, USA.
#
# CIF created using the CSD Python API on 29 September 2022
# The structure has been converted into the P1 space group
# The structure has a 3D framework
# The original CSD entry NOPXIB is in the cubic crystal system
# The framework has been calculated to contain at least 10.0% void space
# The void calculation uses a probe of radius 1.32A, grid spacing 0.4
#
###############################################################################

data_NOPXIB
_chemical_formula_moiety         '(C384 H192 Co24 O216)n'
_symmetry_cell_setting           triclinic
_symmetry_space_group_name_H-M   'P 1'
_symmetry_Int_Tables_number      1
_space_group_name_Hall           'P 1'
loop_
_symmetry_equiv_pos_site_id
_symmetry_equiv_pos_as_xyz
1 x,y,z
_cell_length_a                   22.308(2)
_cell_length_b                   22.308(2)
_cell_length_c                   22.308(2)
_cell_angle_alpha                90
_cell_angle_beta                 90
_cell_angle_gamma                90
_cell_volume                     11101.5
loop_
_atom_site_label
_atom_site_type_symbol
_atom_site_fract_x
_atom_site_fract_y
_atom_site_fract_z
Co1 Co 0.00641(2) 0.12859(2) 0.43751(2)
O6 O 0.07160(11) 0.06096(11) 0.43334(11)
O7 O 0.00297(12) 0.13554(12) 0.52859(11)
O8 O 0.07189(12) 0.19616(11) 0.44334(12)
O9 O 0.00775(12) 0.13637(12) 0.34727(11)
O1 O 0.93354(11) 0.19274(11) 0.43777(12)
O2 O 0.93334(11) 0.07160(11) 0.43904(11)
C1 C 0.86771(17) 0.13339(16) 0.49903(17)
C2 C 0.89023(16) 0.07390(16) 0.47722(16)
C3 C 0.82202(18) 0.13238(18) 0.54217(19)
H1 H 0.80719(18) 0.09479(18) 0.55561(19)
C4 C 0.7978(2) 0.18435(18) 0.5658(2)
H2 H 0.7676(2) 0.18253(18) 0.5957(2)
C5 C 0.88832(17) 0.18900(17) 0.47910(17)
O3 O 0.86446(12) 0.02859(11) 0.49703(12)
C6 C 0.86384(17) 0.24230(17) 0.50181(17)
C7 C 0.81860(18) 0.23930(18) 0.54498(19)
H3 H 0.80179(18) 0.27529(18) 0.56033(19)
C8 C 0.88602(17) 0.30253(17) 0.48345(16)
O4 O 0.92811(12) 0.30384(11) 0.44334(12)
O5 O 0.86363(12) 0.34727(11) 0.50775(12)
H4 H 0.945(3) 0.235(3) 0.431(3)
Co2 Co 0.99359(2) 0.37141(2) 0.43751(2)
Co3 Co 0.87141(2) 0.43751(2) 0.50641(2)
Co5 Co 0.93751(2) 0.00641(2) 0.37141(2)
Co4 Co 0.87141(2) 0.93751(2) 0.49359(2)
Co1_2 Co 0.43751(2) 0.00641(2) 0.12859(2)
O6_2 O 0.43334(11) 0.07160(11) 0.06096(11)
O7_2 O 0.52859(11) 0.00297(12) 0.13554(12)
O8_2 O 0.44334(12) 0.07189(12) 0.19616(11)
O9_2 O 0.34727(11) 0.00775(12) 0.13637(12)
O1_2 O 0.43777(12) 0.93354(11) 0.19274(11)
O2_2 O 0.43904(11) 0.93334(11) 0.07160(11)
C1_2 C 0.49903(17) 0.86771(17) 0.13339(16)
C2_2 C 0.47722(16) 0.89023(16) 0.07390(16)
C3_2 C 0.54217(19) 0.82202(18) 0.13238(18)
H1_2 H 0.55561(19) 0.80719(18) 0.09479(18)
C4_2 C 0.5658(2) 0.7978(2) 0.18435(18)
H2_2 H 0.5957(2) 0.7676(2) 0.18253(18)
C5_2 C 0.47910(17) 0.88832(17) 0.18900(17)
O3_2 O 0.49703(12) 0.86446(12) 0.02859(11)
C6_2 C 0.50181(17) 0.86384(17) 0.24230(17)
C7_2 C 0.54498(19) 0.81860(18) 0.23930(18)
H3_2 H 0.56033(19) 0.80179(18) 0.27529(18)
C8_2 C 0.48345(16) 0.88602(17) 0.30253(17)
O4_2 O 0.44334(12) 0.92811(12) 0.30384(11)
O5_2 O 0.50775(12) 0.86363(12) 0.34727(11)
H4_2 H 0.431(3) 0.945(3) 0.235(3)
Co2_2 Co 0.43751(2) 0.99359(2) 0.37141(2)
Co3_2 Co 0.50641(2) 0.87141(2) 0.43751(2)
Co5_2 Co 0.37141(2) 0.93751(2) 0.00641(2)
Co4_2 Co 0.49359(2) 0.87141(2) 0.93751(2)
Co1_3 Co 0.12859(2) 0.43751(2) 0.00641(2)
O6_3 O 0.06096(11) 0.43334(11) 0.07160(11)
O7_3 O 0.13554(12) 0.52859(11) 0.00297(12)
O8_3 O 0.19616(11) 0.44334(12) 0.07189(12)
O9_3 O 0.13637(12) 0.34727(11) 0.00775(12)
O1_3 O 0.19274(11) 0.43777(12) 0.93354(11)
O2_3 O 0.07160(11) 0.43904(11) 0.93334(11)
C1_3 C 0.13339(16) 0.49903(17) 0.86771(17)
C2_3 C 0.07390(16) 0.47722(16) 0.89023(16)
C3_3 C 0.13238(18) 0.54217(19) 0.82202(18)
H1_3 H 0.09479(18) 0.55561(19) 0.80719(18)
C4_3 C 0.18435(18) 0.5658(2) 0.7978(2)
H2_3 H 0.18253(18) 0.5957(2) 0.7676(2)
C5_3 C 0.18900(17) 0.47910(17) 0.88832(17)
O3_3 O 0.02859(11) 0.49703(12) 0.86446(12)
C6_3 C 0.24230(17) 0.50181(17) 0.86384(17)
C7_3 C 0.23930(18) 0.54498(19) 0.81860(18)
H3_3 H 0.27529(18) 0.56033(19) 0.80179(18)
C8_3 C 0.30253(17) 0.48345(16) 0.88602(17)
O4_3 O 0.30384(11) 0.44334(12) 0.92811(12)
O5_3 O 0.34727(11) 0.50775(12) 0.86363(12)
H4_3 H 0.235(3) 0.431(3) 0.945(3)
Co2_3 Co 0.37141(2) 0.43751(2) 0.99359(2)
Co3_3 Co 0.43751(2) 0.50641(2) 0.87141(2)
Co5_3 Co 0.00641(2) 0.37141(2) 0.93751(2)
Co4_3 Co 0.93751(2) 0.49359(2) 0.87141(2)
Co4_4 Co 0.06249(2) 0.00641(2) 0.87141(2)
Co1_4 Co 0.87141(2) 0.06249(2) 0.00641(2)
O6_4 O 0.93904(11) 0.06666(11) 0.07160(11)
O8_4 O 0.80384(11) 0.05666(12) 0.07189(12)
O9_4 O 0.86363(12) 0.15273(11) 0.00775(12)
O1_4 O 0.80726(11) 0.06223(12) 0.93354(11)
O2_4 O 0.92840(11) 0.06096(11) 0.93334(11)
C1_4 C 0.86661(16) 0.00097(17) 0.86771(17)
C2_4 C 0.92610(16) 0.02278(16) 0.89023(16)
C5_4 C 0.81100(17) 0.02090(17) 0.88832(17)
O3_4 O 0.97141(11) 0.00297(12) 0.86446(12)
C8_4 C 0.69747(17) 0.01655(16) 0.88602(17)
O4_4 O 0.69616(11) 0.05666(12) 0.92811(12)
H4_4 H 0.765(3) 0.069(3) 0.945(3)
Co2_4 Co 0.62859(2) 0.06249(2) 0.99359(2)
Co5_4 Co 0.99359(2) 0.12859(2) 0.93751(2)
O7_4 O 0.86446(12) 0.97141(11) 0.00297(12)
C3_4 C 0.86762(18) 0.95783(19) 0.82202(18)
H1_4 H 0.90521(18) 0.94439(19) 0.80719(18)
C4_4 C 0.81565(18) 0.9342(2) 0.7978(2)
H2_4 H 0.81747(18) 0.9043(2) 0.7676(2)
C6_4 C 0.75770(17) 0.99819(17) 0.86384(17)
C7_4 C 0.76070(18) 0.95502(19) 0.81860(18)
H3_4 H 0.72471(18) 0.93967(19) 0.80179(18)
O5_4 O 0.65273(11) 0.99225(12) 0.86363(12)
Co3_4 Co 0.56249(2) 0.99359(2) 0.87141(2)
O1_5 O 0.43777(12) 0.06646(11) 0.30726(11)
O2_5 O 0.43904(11) 0.06666(11) 0.42840(11)
C1_5 C 0.49903(17) 0.13229(17) 0.36661(16)
C2_5 C 0.47722(16) 0.10977(16) 0.42610(16)
C3_5 C 0.54217(19) 0.17798(18) 0.36762(18)
H1_5 H 0.55561(19) 0.19281(18) 0.40521(18)
C4_5 C 0.5658(2) 0.2022(2) 0.31565(18)
H2_5 H 0.5957(2) 0.2324(2) 0.31747(18)
C5_5 C 0.47910(17) 0.11168(17) 0.31100(17)
O3_5 O 0.49703(12) 0.13554(12) 0.47141(11)
C6_5 C 0.50181(17) 0.13616(17) 0.25770(17)
C7_5 C 0.54498(19) 0.18140(18) 0.26070(18)
H3_5 H 0.56033(19) 0.19821(18) 0.22471(18)
C8_5 C 0.48345(16) 0.11398(17) 0.19747(17)
O5_5 O 0.50775(12) 0.13637(12) 0.15273(11)
H4_5 H 0.431(3) 0.055(3) 0.265(3)
Co3_5 Co 0.50641(2) 0.12859(2) 0.06249(2)
Co4_5 Co 0.49359(2) 0.12859(2) 0.56249(2)
Co5_5 Co 0.37141(2) 0.06249(2) 0.49359(2)
O6_5 O 0.43334(11) 0.92840(11) 0.43904(11)
O7_5 O 0.52859(11) 0.99703(12) 0.36446(12)
O9_5 O 0.34727(11) 0.99225(12) 0.36363(12)
O1_6 O 0.30726(11) 0.43777(12) 0.06646(11)
O2_6 O 0.42840(11) 0.43904(11) 0.06666(11)
C1_6 C 0.36661(16) 0.49903(17) 0.13229(17)
C2_6 C 0.42610(16) 0.47722(16) 0.10977(16)
C3_6 C 0.36762(18) 0.54217(19) 0.17798(18)
H1_6 H 0.40521(18) 0.55561(19) 0.19281(18)
C4_6 C 0.31565(18) 0.5658(2) 0.2022(2)
H2_6 H 0.31747(18) 0.5957(2) 0.2324(2)
C5_6 C 0.31100(17) 0.47910(17) 0.11168(17)
O3_6 O 0.47141(11) 0.49703(12) 0.13554(12)
C6_6 C 0.25770(17) 0.50181(17) 0.13616(17)
C7_6 C 0.26070(18) 0.54498(19) 0.18140(18)
H3_6 H 0.22471(18) 0.56033(19) 0.19821(18)
C8_6 C 0.19747(17) 0.48345(16) 0.11398(17)
O5_6 O 0.15273(11) 0.50775(12) 0.13637(12)
H4_6 H 0.265(3) 0.431(3) 0.055(3)
Co3_6 Co 0.06249(2) 0.50641(2) 0.12859(2)
Co4_6 Co 0.56249(2) 0.49359(2) 0.12859(2)
Co5_6 Co 0.49359(2) 0.37141(2) 0.06249(2)
O6_6 O 0.43904(11) 0.43334(11) 0.92840(11)
O7_6 O 0.36446(12) 0.52859(11) 0.99703(12)
O9_6 O 0.36363(12) 0.34727(11) 0.99225(12)
O1_7 O 0.56223(12) 0.56646(11) 0.19274(11)
O2_7 O 0.56096(11) 0.56666(11) 0.07160(11)
C1_7 C 0.50097(17) 0.63229(17) 0.13339(16)
C2_7 C 0.52278(16) 0.60977(16) 0.07390(16)
C3_7 C 0.45783(19) 0.67798(18) 0.13238(18)
H1_7 H 0.44439(19) 0.69281(18) 0.09479(18)
C4_7 C 0.4342(2) 0.7022(2) 0.18435(18)
H2_7 H 0.4043(2) 0.7324(2) 0.18253(18)
C5_7 C 0.52090(17) 0.61168(17) 0.18900(17)
O3_7 O 0.50297(12) 0.63554(12) 0.02859(11)
C6_7 C 0.49819(17) 0.63616(17) 0.24230(17)
C7_7 C 0.45502(19) 0.68140(18) 0.23930(18)
H3_7 H 0.43967(19) 0.69821(18) 0.27529(18)
C8_7 C 0.51655(16) 0.61398(17) 0.30253(17)
O4_5 O 0.55666(12) 0.57189(12) 0.30384(11)
O5_7 O 0.49225(12) 0.63637(12) 0.34727(11)
H4_7 H 0.569(3) 0.555(3) 0.235(3)
Co2_5 Co 0.56249(2) 0.50641(2) 0.37141(2)
Co3_7 Co 0.49359(2) 0.62859(2) 0.43751(2)
Co5_7 Co 0.62859(2) 0.56249(2) 0.00641(2)
O6_7 O 0.56666(11) 0.42840(11) 0.06096(11)
O8_5 O 0.55666(12) 0.42811(12) 0.19616(11)
O9_7 O 0.65273(11) 0.49225(12) 0.13637(12)
Co4_7 Co 0.50641(2) 0.62859(2) 0.93751(2)
O6_8 O 0.06666(11) 0.07160(11) 0.93904(11)
O8_6 O 0.05666(12) 0.07189(12) 0.80384(11)
O9_8 O 0.15273(11) 0.00775(12) 0.86363(12)
Co4_8 Co 0.00641(2) 0.87141(2) 0.06249(2)
O1_8 O 0.06223(12) 0.93354(11) 0.80726(11)
O2_8 O 0.06096(11) 0.93334(11) 0.92840(11)
C1_8 C 0.00097(17) 0.86771(17) 0.86661(16)
C2_8 C 0.02278(16) 0.89023(16) 0.92610(16)
C5_8 C 0.02090(17) 0.88832(17) 0.81100(17)
O3_8 O 0.00297(12) 0.86446(12) 0.97141(11)
C8_8 C 0.01655(16) 0.88602(17) 0.69747(17)
O4_6 O 0.05666(12) 0.92811(12) 0.69616(11)
H4_8 H 0.069(3) 0.945(3) 0.765(3)
Co2_6 Co 0.06249(2) 0.99359(2) 0.62859(2)
Co5_8 Co 0.12859(2) 0.93751(2) 0.99359(2)
C3_8 C 0.95783(19) 0.82202(18) 0.86762(18)
H1_8 H 0.94439(19) 0.80719(18) 0.90521(18)
C4_8 C 0.9342(2) 0.7978(2) 0.81565(18)
H2_8 H 0.9043(2) 0.7676(2) 0.81747(18)
C6_8 C 0.99819(17) 0.86384(17) 0.75770(17)
C7_8 C 0.95502(19) 0.81860(18) 0.76070(18)
H3_8 H 0.93967(19) 0.80179(18) 0.72471(18)
O5_8 O 0.99225(12) 0.86363(12) 0.65273(11)
Co3_8 Co 0.99359(2) 0.87141(2) 0.56249(2)
Co1_5 Co 0.12859(2) 0.56249(2) 0.49359(2)
O1_9 O 0.19274(11) 0.56223(12) 0.56646(11)
O2_9 O 0.07160(11) 0.56096(11) 0.56666(11)
C1_9 C 0.13339(16) 0.50097(17) 0.63229(17)
C2_9 C 0.07390(16) 0.52278(16) 0.60977(16)
C3_9 C 0.13238(18) 0.45783(19) 0.67798(18)
H1_9 H 0.09479(18) 0.44439(19) 0.69281(18)
C4_9 C 0.18435(18) 0.4342(2) 0.7022(2)
H2_9 H 0.18253(18) 0.4043(2) 0.7324(2)
C5_9 C 0.18900(17) 0.52090(17) 0.61168(17)
O3_9 O 0.02859(11) 0.50297(12) 0.63554(12)
C6_9 C 0.24230(17) 0.49819(17) 0.63616(17)
C7_9 C 0.23930(18) 0.45502(19) 0.68140(18)
H3_9 H 0.27529(18) 0.43967(19) 0.69821(18)
C8_9 C 0.30253(17) 0.51655(16) 0.61398(17)
O4_7 O 0.30384(11) 0.55666(12) 0.57189(12)
O5_9 O 0.34727(11) 0.49225(12) 0.63637(12)
H4_9 H 0.235(3) 0.569(3) 0.555(3)
Co2_7 Co 0.37141(2) 0.56249(2) 0.50641(2)
Co3_9 Co 0.43751(2) 0.49359(2) 0.62859(2)
Co5_9 Co 0.00641(2) 0.62859(2) 0.56249(2)
O6_9 O 0.06096(11) 0.56666(11) 0.42840(11)
O7_7 O 0.13554(12) 0.47141(11) 0.49703(12)
O8_7 O 0.19616(11) 0.55666(12) 0.42811(12)
O9_9 O 0.13637(12) 0.65273(11) 0.49225(12)
Co4_9 Co 0.93751(2) 0.50641(2) 0.62859(2)
O6_10 O 0.07160(11) 0.93904(11) 0.06666(11)
O8_8 O 0.07189(12) 0.80384(11) 0.05666(12)
O9_10 O 0.00775(12) 0.86363(12) 0.15273(11)
O1_10 O 0.93354(11) 0.80726(11) 0.06223(12)
O2_10 O 0.93334(11) 0.92840(11) 0.06096(11)
C1_10 C 0.86771(17) 0.86661(16) 0.00097(17)
C2_10 C 0.89023(16) 0.92610(16) 0.02278(16)
C5_10 C 0.88832(17) 0.81100(17) 0.02090(17)
C8_10 C 0.88602(17) 0.69747(17) 0.01655(16)
O4_8 O 0.92811(12) 0.69616(11) 0.05666(12)
H4_10 H 0.945(3) 0.765(3) 0.069(3)
Co2_8 Co 0.99359(2) 0.62859(2) 0.06249(2)
Co5_10 Co 0.93751(2) 0.99359(2) 0.12859(2)
C3_10 C 0.82202(18) 0.86762(18) 0.95783(19)
H1_10 H 0.80719(18) 0.90521(18) 0.94439(19)
C4_10 C 0.7978(2) 0.81565(18) 0.9342(2)
H2_10 H 0.7676(2) 0.81747(18) 0.9043(2)
C6_10 C 0.86384(17) 0.75770(17) 0.99819(17)
C7_10 C 0.81860(18) 0.76070(18) 0.95502(19)
H3_10 H 0.80179(18) 0.72471(18) 0.93967(19)
O5_10 O 0.86363(12) 0.65273(11) 0.99225(12)
Co3_10 Co 0.87141(2) 0.56249(2) 0.99359(2)
O1_11 O 0.56646(11) 0.19274(11) 0.56223(12)
O2_11 O 0.56666(11) 0.07160(11) 0.56096(11)
C1_11 C 0.63229(17) 0.13339(16) 0.50097(17)
C2_11 C 0.60977(16) 0.07390(16) 0.52278(16)
C3_11 C 0.67798(18) 0.13238(18) 0.45783(19)
H1_11 H 0.69281(18) 0.09479(18) 0.44439(19)
C4_11 C 0.7022(2) 0.18435(18) 0.4342(2)
H2_11 H 0.7324(2) 0.18253(18) 0.4043(2)
C5_11 C 0.61168(17) 0.18900(17) 0.52090(17)
O3_10 O 0.63554(12) 0.02859(11) 0.50297(12)
C6_11 C 0.63616(17) 0.24230(17) 0.49819(17)
C7_11 C 0.68140(18) 0.23930(18) 0.45502(19)
H3_11 H 0.69821(18) 0.27529(18) 0.43967(19)
C8_11 C 0.61398(17) 0.30253(17) 0.51655(16)
O4_9 O 0.57189(12) 0.30384(11) 0.55666(12)
O5_11 O 0.63637(12) 0.34727(11) 0.49225(12)
H4_11 H 0.555(3) 0.235(3) 0.569(3)
Co2_9 Co 0.50641(2) 0.37141(2) 0.56249(2)
Co3_11 Co 0.62859(2) 0.43751(2) 0.49359(2)
Co5_11 Co 0.56249(2) 0.00641(2) 0.62859(2)
O6_11 O 0.42840(11) 0.06096(11) 0.56666(11)
O8_9 O 0.42811(12) 0.19616(11) 0.55666(12)
O9_11 O 0.49225(12) 0.13637(12) 0.65273(11)
Co4_10 Co 0.62859(2) 0.93751(2) 0.50641(2)
O1_12 O 0.06646(11) 0.30726(11) 0.43777(12)
O2_12 O 0.06666(11) 0.42840(11) 0.43904(11)
C1_12 C 0.13229(17) 0.36661(16) 0.49903(17)
C2_12 C 0.10977(16) 0.42610(16) 0.47722(16)
C3_12 C 0.17798(18) 0.36762(18) 0.54217(19)
H1_12 H 0.19281(18) 0.40521(18) 0.55561(19)
C4_12 C 0.2022(2) 0.31565(18) 0.5658(2)
H2_12 H 0.2324(2) 0.31747(18) 0.5957(2)
C5_12 C 0.11168(17) 0.31100(17) 0.47910(17)
C6_12 C 0.13616(17) 0.25770(17) 0.50181(17)
C7_12 C 0.18140(18) 0.26070(18) 0.54498(19)
H3_12 H 0.19821(18) 0.22471(18) 0.56033(19)
C8_12 C 0.11398(17) 0.19747(17) 0.48345(16)
O5_12 O 0.13637(12) 0.15273(11) 0.50775(12)
H4_12 H 0.055(3) 0.265(3) 0.431(3)
Co3_12 Co 0.12859(2) 0.06249(2) 0.50641(2)
Co5_12 Co 0.06249(2) 0.49359(2) 0.37141(2)
O6_12 O 0.92840(11) 0.43904(11) 0.43334(11)
O7_8 O 0.99703(12) 0.36446(12) 0.52859(11)
O9_12 O 0.99225(12) 0.36363(12) 0.34727(11)
C3_13 C 0.32202(18) 0.63238(18) 0.04217(19)
H1_13 H 0.30719(18) 0.59479(18) 0.05561(19)
C4_13 C 0.2978(2) 0.68435(18) 0.0658(2)
H2_13 H 0.2676(2) 0.68253(18) 0.0957(2)
C6_13 C 0.36384(17) 0.74230(17) 0.00181(17)
C7_13 C 0.31860(18) 0.73930(18) 0.04498(19)
H3_13 H 0.30179(18) 0.77529(18) 0.06033(19)
O5_13 O 0.36363(12) 0.84727(11) 0.00775(12)
O1_13 O 0.43354(11) 0.69274(11) 0.93777(12)
O2_13 O 0.43334(11) 0.57160(11) 0.93904(11)
C1_13 C 0.36771(17) 0.63339(16) 0.99903(17)
C2_13 C 0.39023(16) 0.57390(16) 0.97722(16)
C5_13 C 0.38832(17) 0.68900(17) 0.97910(17)
C8_13 C 0.38602(17) 0.80253(17) 0.98345(16)
O4_10 O 0.42811(12) 0.80384(11) 0.94334(12)
H4_13 H 0.445(3) 0.735(3) 0.931(3)
O6_13 O 0.57160(11) 0.56096(11) 0.93334(11)
O8_10 O 0.57189(12) 0.69616(11) 0.94334(12)
O9_13 O 0.50775(12) 0.63637(12) 0.84727(11)
C3_14 C 0.04217(19) 0.32202(18) 0.63238(18)
H1_14 H 0.05561(19) 0.30719(18) 0.59479(18)
C4_14 C 0.0658(2) 0.2978(2) 0.68435(18)
H2_14 H 0.0957(2) 0.2676(2) 0.68253(18)
C6_14 C 0.00181(17) 0.36384(17) 0.74230(17)
C7_14 C 0.04498(19) 0.31860(18) 0.73930(18)
H3_14 H 0.06033(19) 0.30179(18) 0.77529(18)
O5_14 O 0.00775(12) 0.36363(12) 0.84727(11)
O1_14 O 0.93777(12) 0.43354(11) 0.69274(11)
O2_14 O 0.93904(11) 0.43334(11) 0.57160(11)
C1_14 C 0.99903(17) 0.36771(17) 0.63339(16)
C2_14 C 0.97722(16) 0.39023(16) 0.57390(16)
C5_14 C 0.97910(17) 0.38832(17) 0.68900(17)
C8_14 C 0.98345(16) 0.38602(17) 0.80253(17)
O4_11 O 0.94334(12) 0.42811(12) 0.80384(11)
H4_14 H 0.931(3) 0.445(3) 0.735(3)
O6_14 O 0.93334(11) 0.57160(11) 0.56096(11)
O8_11 O 0.94334(12) 0.57189(12) 0.69616(11)
O9_14 O 0.84727(11) 0.50775(12) 0.63637(12)
C3_15 C 0.63238(18) 0.04217(19) 0.32202(18)
H1_15 H 0.59479(18) 0.05561(19) 0.30719(18)
C4_15 C 0.68435(18) 0.0658(2) 0.2978(2)
H2_15 H 0.68253(18) 0.0957(2) 0.2676(2)
C6_15 C 0.74230(17) 0.00181(17) 0.36384(17)
C7_15 C 0.73930(18) 0.04498(19) 0.31860(18)
H3_15 H 0.77529(18) 0.06033(19) 0.30179(18)
O5_15 O 0.84727(11) 0.00775(12) 0.36363(12)
O1_15 O 0.69274(11) 0.93777(12) 0.43354(11)
O2_15 O 0.57160(11) 0.93904(11) 0.43334(11)
C1_15 C 0.63339(16) 0.99903(17) 0.36771(17)
C2_15 C 0.57390(16) 0.97722(16) 0.39023(16)
C5_15 C 0.68900(17) 0.97910(17) 0.38832(17)
C8_15 C 0.80253(17) 0.98345(16) 0.38602(17)
O4_12 O 0.80384(11) 0.94334(12) 0.42811(12)
H4_15 H 0.735(3) 0.931(3) 0.445(3)
O6_15 O 0.56096(11) 0.93334(11) 0.57160(11)
O8_12 O 0.69616(11) 0.94334(12) 0.57189(12)
O9_15 O 0.63637(12) 0.84727(11) 0.50775(12)
O1_16 O 0.30726(11) 0.56223(12) 0.43354(11)
O2_16 O 0.42840(11) 0.56096(11) 0.43334(11)
C1_16 C 0.36661(16) 0.50097(17) 0.36771(17)
C2_16 C 0.42610(16) 0.52278(16) 0.39023(16)
C3_16 C 0.36762(18) 0.45783(19) 0.32202(18)
H1_16 H 0.40521(18) 0.44439(19) 0.30719(18)
C4_16 C 0.31565(18) 0.4342(2) 0.2978(2)
H2_16 H 0.31747(18) 0.4043(2) 0.2676(2)
C5_16 C 0.31100(17) 0.52090(17) 0.38832(17)
O3_11 O 0.47141(11) 0.50297(12) 0.36446(12)
C6_16 C 0.25770(17) 0.49819(17) 0.36384(17)
C7_16 C 0.26070(18) 0.45502(19) 0.31860(18)
H3_16 H 0.22471(18) 0.43967(19) 0.30179(18)
C8_16 C 0.19747(17) 0.51655(16) 0.38602(17)
O5_16 O 0.15273(11) 0.49225(12) 0.36363(12)
H4_16 H 0.265(3) 0.569(3) 0.445(3)
O6_16 O 0.43904(11) 0.56666(11) 0.57160(11)
O7_9 O 0.36446(12) 0.47141(11) 0.50297(12)
O9_16 O 0.36363(12) 0.65273(11) 0.50775(12)
C3_17 C 0.04217(19) 0.67798(18) 0.86762(18)
H1_17 H 0.05561(19) 0.69281(18) 0.90521(18)
C4_17 C 0.0658(2) 0.7022(2) 0.81565(18)
H2_17 H 0.0957(2) 0.7324(2) 0.81747(18)
C6_17 C 0.00181(17) 0.63616(17) 0.75770(17)
C7_17 C 0.04498(19) 0.68140(18) 0.76070(18)
H3_17 H 0.06033(19) 0.69821(18) 0.72471(18)
O5_17 O 0.00775(12) 0.63637(12) 0.65273(11)
O1_17 O 0.93777(12) 0.56646(11) 0.80726(11)
O2_17 O 0.93904(11) 0.56666(11) 0.92840(11)
C1_17 C 0.99903(17) 0.63229(17) 0.86661(16)
C2_17 C 0.97722(16) 0.60977(16) 0.92610(16)
C5_17 C 0.97910(17) 0.61168(17) 0.81100(17)
O3_12 O 0.99703(12) 0.63554(12) 0.97141(11)
C8_17 C 0.98345(16) 0.61398(17) 0.69747(17)
H4_17 H 0.931(3) 0.555(3) 0.765(3)
O6_17 O 0.93334(11) 0.42840(11) 0.93904(11)
O9_17 O 0.84727(11) 0.49225(12) 0.86363(12)
C3_18 C 0.86762(18) 0.04217(19) 0.67798(18)
H1_18 H 0.90521(18) 0.05561(19) 0.69281(18)
C4_18 C 0.81565(18) 0.0658(2) 0.7022(2)
H2_18 H 0.81747(18) 0.0957(2) 0.7324(2)
C6_18 C 0.75770(17) 0.00181(17) 0.63616(17)
C7_18 C 0.76070(18) 0.04498(19) 0.68140(18)
H3_18 H 0.72471(18) 0.06033(19) 0.69821(18)
O5_18 O 0.65273(11) 0.00775(12) 0.63637(12)
O1_18 O 0.80726(11) 0.93777(12) 0.56646(11)
O2_18 O 0.92840(11) 0.93904(11) 0.56666(11)
C1_18 C 0.86661(16) 0.99903(17) 0.63229(17)
C2_18 C 0.92610(16) 0.97722(16) 0.60977(16)
C5_18 C 0.81100(17) 0.97910(17) 0.61168(17)
O3_13 O 0.97141(11) 0.99703(12) 0.63554(12)
C8_18 C 0.69747(17) 0.98345(16) 0.61398(17)
H4_18 H 0.765(3) 0.931(3) 0.555(3)
O6_18 O 0.93904(11) 0.93334(11) 0.42840(11)
O9_18 O 0.86363(12) 0.84727(11) 0.49225(12)
O1_19 O 0.06223(12) 0.06646(11) 0.69274(11)
O2_19 O 0.06096(11) 0.06666(11) 0.57160(11)
C1_19 C 0.00097(17) 0.13229(17) 0.63339(16)
C2_19 C 0.02278(16) 0.10977(16) 0.57390(16)
C5_19 C 0.02090(17) 0.11168(17) 0.68900(17)
C8_19 C 0.01655(16) 0.11398(17) 0.80253(17)
H4_19 H 0.069(3) 0.055(3) 0.735(3)
O6_19 O 0.06666(11) 0.92840(11) 0.56096(11)
O9_19 O 0.15273(11) 0.99225(12) 0.63637(12)
C3_19 C 0.95783(19) 0.17798(18) 0.63238(18)
H1_19 H 0.94439(19) 0.19281(18) 0.59479(18)
C4_19 C 0.9342(2) 0.2022(2) 0.68435(18)
H2_19 H 0.9043(2) 0.2324(2) 0.68253(18)
C6_19 C 0.99819(17) 0.13616(17) 0.74230(17)
C7_19 C 0.95502(19) 0.18140(18) 0.73930(18)
H3_19 H 0.93967(19) 0.19821(18) 0.77529(18)
O5_19 O 0.99225(12) 0.13637(12) 0.84727(11)
O1_20 O 0.56223(12) 0.43354(11) 0.30726(11)
O2_20 O 0.56096(11) 0.43334(11) 0.42840(11)
C1_20 C 0.50097(17) 0.36771(17) 0.36661(16)
C2_20 C 0.52278(16) 0.39023(16) 0.42610(16)
C3_20 C 0.45783(19) 0.32202(18) 0.36762(18)
H1_20 H 0.44439(19) 0.30719(18) 0.40521(18)
C4_20 C 0.4342(2) 0.2978(2) 0.31565(18)
H2_20 H 0.4043(2) 0.2676(2) 0.31747(18)
C5_20 C 0.52090(17) 0.38832(17) 0.31100(17)
O3_14 O 0.50297(12) 0.36446(12) 0.47141(11)
C6_20 C 0.49819(17) 0.36384(17) 0.25770(17)
C7_20 C 0.45502(19) 0.31860(18) 0.26070(18)
H3_20 H 0.43967(19) 0.30179(18) 0.22471(18)
C8_20 C 0.51655(16) 0.38602(17) 0.19747(17)
O5_20 O 0.49225(12) 0.36363(12) 0.15273(11)
H4_20 H 0.569(3) 0.445(3) 0.265(3)
O6_20 O 0.56666(11) 0.57160(11) 0.43904(11)
O9_20 O 0.65273(11) 0.50775(12) 0.36363(12)
O1_21 O 0.69274(11) 0.06223(12) 0.06646(11)
O2_21 O 0.57160(11) 0.06096(11) 0.06666(11)
C1_21 C 0.63339(16) 0.00097(17) 0.13229(17)
C2_21 C 0.57390(16) 0.02278(16) 0.10977(16)
C5_21 C 0.68900(17) 0.02090(17) 0.11168(17)
C8_21 C 0.80253(17) 0.01655(16) 0.11398(17)
H4_21 H 0.735(3) 0.069(3) 0.055(3)
O6_21 O 0.56096(11) 0.06666(11) 0.92840(11)
O9_21 O 0.63637(12) 0.15273(11) 0.99225(12)
C3_21 C 0.63238(18) 0.95783(19) 0.17798(18)
H1_21 H 0.59479(18) 0.94439(19) 0.19281(18)
C4_21 C 0.68435(18) 0.9342(2) 0.2022(2)
H2_21 H 0.68253(18) 0.9043(2) 0.2324(2)
C6_21 C 0.74230(17) 0.99819(17) 0.13616(17)
C7_21 C 0.73930(18) 0.95502(19) 0.18140(18)
H3_21 H 0.77529(18) 0.93967(19) 0.19821(18)
O5_21 O 0.84727(11) 0.99225(12) 0.13637(12)
O7_10 O 0.63554(12) 0.97141(11) 0.99703(12)
O1_22 O 0.43354(11) 0.30726(11) 0.56223(12)
O2_22 O 0.43334(11) 0.42840(11) 0.56096(11)
C1_22 C 0.36771(17) 0.36661(16) 0.50097(17)
C2_22 C 0.39023(16) 0.42610(16) 0.52278(16)
C3_22 C 0.32202(18) 0.36762(18) 0.45783(19)
H1_22 H 0.30719(18) 0.40521(18) 0.44439(19)
C4_22 C 0.2978(2) 0.31565(18) 0.4342(2)
H2_22 H 0.2676(2) 0.31747(18) 0.4043(2)
C5_22 C 0.38832(17) 0.31100(17) 0.52090(17)
C6_22 C 0.36384(17) 0.25770(17) 0.49819(17)
C7_22 C 0.31860(18) 0.26070(18) 0.45502(19)
H3_22 H 0.30179(18) 0.22471(18) 0.43967(19)
C8_22 C 0.38602(17) 0.19747(17) 0.51655(16)
O5_22 O 0.36363(12) 0.15273(11) 0.49225(12)
H4_22 H 0.445(3) 0.265(3) 0.569(3)
O6_22 O 0.57160(11) 0.43904(11) 0.56666(11)
O9_22 O 0.50775(12) 0.36363(12) 0.65273(11)
O1_23 O 0.06646(11) 0.69274(11) 0.06223(12)
O2_23 O 0.06666(11) 0.57160(11) 0.06096(11)
C1_23 C 0.13229(17) 0.63339(16) 0.00097(17)
C2_23 C 0.10977(16) 0.57390(16) 0.02278(16)
C5_23 C 0.11168(17) 0.68900(17) 0.02090(17)
C8_23 C 0.11398(17) 0.80253(17) 0.01655(16)
H4_23 H 0.055(3) 0.735(3) 0.069(3)
C3_23 C 0.17798(18) 0.63238(18) 0.95783(19)
H1_23 H 0.19281(18) 0.59479(18) 0.94439(19)
C4_23 C 0.2022(2) 0.68435(18) 0.9342(2)
H2_23 H 0.2324(2) 0.68253(18) 0.9043(2)
C6_23 C 0.13616(17) 0.74230(17) 0.99819(17)
C7_23 C 0.18140(18) 0.73930(18) 0.95502(19)
H3_23 H 0.19821(18) 0.77529(18) 0.93967(19)
O5_23 O 0.13637(12) 0.84727(11) 0.99225(12)
O6_23 O 0.92840(11) 0.56096(11) 0.06666(11)
O9_23 O 0.99225(12) 0.63637(12) 0.15273(11)
C3_24 C 0.67798(18) 0.86762(18) 0.04217(19)
H1_24 H 0.69281(18) 0.90521(18) 0.05561(19)
C4_24 C 0.7022(2) 0.81565(18) 0.0658(2)
H2_24 H 0.7324(2) 0.81747(18) 0.0957(2)
C6_24 C 0.63616(17) 0.75770(17) 0.00181(17)
C7_24 C 0.68140(18) 0.76070(18) 0.04498(19)
H3_24 H 0.69821(18) 0.72471(18) 0.06033(19)
O5_24 O 0.63637(12) 0.65273(11) 0.00775(12)
O1_24 O 0.56646(11) 0.80726(11) 0.93777(12)
O2_24 O 0.56666(11) 0.92840(11) 0.93904(11)
C1_24 C 0.63229(17) 0.86661(16) 0.99903(17)
C2_24 C 0.60977(16) 0.92610(16) 0.97722(16)
C5_24 C 0.61168(17) 0.81100(17) 0.97910(17)
C8_24 C 0.61398(17) 0.69747(17) 0.98345(16)
H4_24 H 0.555(3) 0.765(3) 0.931(3)
O6_24 O 0.42840(11) 0.93904(11) 0.93334(11)
O9_24 O 0.49225(12) 0.86363(12) 0.84727(11)
O1_25 O 0.06646(11) 0.80726(11) 0.56223(12)
C1_25 C 0.13229(17) 0.86661(16) 0.50097(17)
C2_25 C 0.10977(16) 0.92610(16) 0.52278(16)
C3_25 C 0.17798(18) 0.86762(18) 0.45783(19)
H1_25 H 0.19281(18) 0.90521(18) 0.44439(19)
C4_25 C 0.2022(2) 0.81565(18) 0.4342(2)
H2_25 H 0.2324(2) 0.81747(18) 0.4043(2)
C5_25 C 0.11168(17) 0.81100(17) 0.52090(17)
O3_15 O 0.13554(12) 0.97141(11) 0.50297(12)
C6_25 C 0.13616(17) 0.75770(17) 0.49819(17)
C7_25 C 0.18140(18) 0.76070(18) 0.45502(19)
H3_25 H 0.19821(18) 0.72471(18) 0.43967(19)
C8_25 C 0.11398(17) 0.69747(17) 0.51655(16)
O4_13 O 0.07189(12) 0.69616(11) 0.55666(12)
H4_25 H 0.055(3) 0.765(3) 0.569(3)
O7_11 O 0.99703(12) 0.86446(12) 0.47141(11)
O8_13 O 0.92811(12) 0.80384(11) 0.55666(12)
O1_26 O 0.56223(12) 0.06646(11) 0.80726(11)
C1_26 C 0.50097(17) 0.13229(17) 0.86661(16)
C2_26 C 0.52278(16) 0.10977(16) 0.92610(16)
C3_26 C 0.45783(19) 0.17798(18) 0.86762(18)
H1_26 H 0.44439(19) 0.19281(18) 0.90521(18)
C4_26 C 0.4342(2) 0.2022(2) 0.81565(18)
H2_26 H 0.4043(2) 0.2324(2) 0.81747(18)
C5_26 C 0.52090(17) 0.11168(17) 0.81100(17)
O3_16 O 0.50297(12) 0.13554(12) 0.97141(11)
C6_26 C 0.49819(17) 0.13616(17) 0.75770(17)
C7_26 C 0.45502(19) 0.18140(18) 0.76070(18)
H3_26 H 0.43967(19) 0.19821(18) 0.72471(18)
C8_26 C 0.51655(16) 0.11398(17) 0.69747(17)
O4_14 O 0.55666(12) 0.07189(12) 0.69616(11)
H4_26 H 0.569(3) 0.055(3) 0.765(3)
O7_12 O 0.47141(11) 0.99703(12) 0.86446(12)
O8_14 O 0.55666(12) 0.92811(12) 0.80384(11)
O1_27 O 0.80726(11) 0.56223(12) 0.06646(11)
C1_27 C 0.86661(16) 0.50097(17) 0.13229(17)
C2_27 C 0.92610(16) 0.52278(16) 0.10977(16)
C3_27 C 0.86762(18) 0.45783(19) 0.17798(18)
H1_27 H 0.90521(18) 0.44439(19) 0.19281(18)
C4_27 C 0.81565(18) 0.4342(2) 0.2022(2)
H2_27 H 0.81747(18) 0.4043(2) 0.2324(2)
C5_27 C 0.81100(17) 0.52090(17) 0.11168(17)
O3_17 O 0.97141(11) 0.50297(12) 0.13554(12)
C6_27 C 0.75770(17) 0.49819(17) 0.13616(17)
C7_27 C 0.76070(18) 0.45502(19) 0.18140(18)
H3_27 H 0.72471(18) 0.43967(19) 0.19821(18)
C8_27 C 0.69747(17) 0.51655(16) 0.11398(17)
O4_15 O 0.69616(11) 0.55666(12) 0.07189(12)
H4_27 H 0.765(3) 0.569(3) 0.055(3)
O7_13 O 0.86446(12) 0.47141(11) 0.99703(12)
O8_15 O 0.80384(11) 0.55666(12) 0.92811(12)
C3_28 C 0.13238(18) 0.04217(19) 0.17798(18)
H1_28 H 0.09479(18) 0.05561(19) 0.19281(18)
C4_28 C 0.18435(18) 0.0658(2) 0.2022(2)
H2_28 H 0.18253(18) 0.0957(2) 0.2324(2)
C6_28 C 0.24230(17) 0.00181(17) 0.13616(17)
C7_28 C 0.23930(18) 0.04498(19) 0.18140(18)
H3_28 H 0.27529(18) 0.06033(19) 0.19821(18)
O7_14 O 0.13554(12) 0.02859(11) 0.99703(12)
O1_28 O 0.19274(11) 0.93777(12) 0.06646(11)
C1_28 C 0.13339(16) 0.99903(17) 0.13229(17)
C2_28 C 0.07390(16) 0.97722(16) 0.10977(16)
C5_28 C 0.18900(17) 0.97910(17) 0.11168(17)
O3_18 O 0.02859(11) 0.99703(12) 0.13554(12)
C8_28 C 0.30253(17) 0.98345(16) 0.11398(17)
O4_16 O 0.30384(11) 0.94334(12) 0.07189(12)
H4_28 H 0.235(3) 0.931(3) 0.055(3)
O8_16 O 0.19616(11) 0.94334(12) 0.92811(12)
O7_15 O 0.47141(11) 0.00297(12) 0.63554(12)
O1_29 O 0.56223(12) 0.93354(11) 0.69274(11)
C1_29 C 0.50097(17) 0.86771(17) 0.63339(16)
C2_29 C 0.52278(16) 0.89023(16) 0.57390(16)
C3_29 C 0.45783(19) 0.82202(18) 0.63238(18)
H1_29 H 0.44439(19) 0.80719(18) 0.59479(18)
C4_29 C 0.4342(2) 0.7978(2) 0.68435(18)
H2_29 H 0.4043(2) 0.7676(2) 0.68253(18)
C5_29 C 0.52090(17) 0.88832(17) 0.68900(17)
O3_19 O 0.50297(12) 0.86446(12) 0.52859(11)
C6_29 C 0.49819(17) 0.86384(17) 0.74230(17)
C7_29 C 0.45502(19) 0.81860(18) 0.73930(18)
H3_29 H 0.43967(19) 0.80179(18) 0.77529(18)
C8_29 C 0.51655(16) 0.88602(17) 0.80253(17)
H4_29 H 0.569(3) 0.945(3) 0.735(3)
O7_16 O 0.63554(12) 0.47141(11) 0.00297(12)
O1_30 O 0.69274(11) 0.56223(12) 0.93354(11)
C1_30 C 0.63339(16) 0.50097(17) 0.86771(17)
C2_30 C 0.57390(16) 0.52278(16) 0.89023(16)
C3_30 C 0.63238(18) 0.45783(19) 0.82202(18)
H1_30 H 0.59479(18) 0.44439(19) 0.80719(18)
C4_30 C 0.68435(18) 0.4342(2) 0.7978(2)
H2_30 H 0.68253(18) 0.4043(2) 0.7676(2)
C5_30 C 0.68900(17) 0.52090(17) 0.88832(17)
O3_20 O 0.52859(11) 0.50297(12) 0.86446(12)
C6_30 C 0.74230(17) 0.49819(17) 0.86384(17)
C7_30 C 0.73930(18) 0.45502(19) 0.81860(18)
H3_30 H 0.77529(18) 0.43967(19) 0.80179(18)
C8_30 C 0.80253(17) 0.51655(16) 0.88602(17)
H4_30 H 0.735(3) 0.569(3) 0.945(3)
O1_31 O 0.43777(12) 0.43354(11) 0.80726(11)
C1_31 C 0.49903(17) 0.36771(17) 0.86661(16)
C2_31 C 0.47722(16) 0.39023(16) 0.92610(16)
C3_31 C 0.54217(19) 0.32202(18) 0.86762(18)
H1_31 H 0.55561(19) 0.30719(18) 0.90521(18)
C4_31 C 0.5658(2) 0.2978(2) 0.81565(18)
H2_31 H 0.5957(2) 0.2676(2) 0.81747(18)
C5_31 C 0.47910(17) 0.38832(17) 0.81100(17)
O3_21 O 0.49703(12) 0.36446(12) 0.97141(11)
C6_31 C 0.50181(17) 0.36384(17) 0.75770(17)
C7_31 C 0.54498(19) 0.31860(18) 0.76070(18)
H3_31 H 0.56033(19) 0.30179(18) 0.72471(18)
C8_31 C 0.48345(16) 0.38602(17) 0.69747(17)
O4_17 O 0.44334(12) 0.42811(12) 0.69616(11)
H4_31 H 0.431(3) 0.445(3) 0.765(3)
O8_17 O 0.44334(12) 0.57189(12) 0.80384(11)
C3_32 C 0.04217(19) 0.17798(18) 0.13238(18)
H1_32 H 0.05561(19) 0.19281(18) 0.09479(18)
C4_32 C 0.0658(2) 0.2022(2) 0.18435(18)
H2_32 H 0.0957(2) 0.2324(2) 0.18253(18)
C6_32 C 0.00181(17) 0.13616(17) 0.24230(17)
C7_32 C 0.04498(19) 0.18140(18) 0.23930(18)
H3_32 H 0.06033(19) 0.19821(18) 0.27529(18)
O1_32 O 0.93777(12) 0.06646(11) 0.19274(11)
C1_32 C 0.99903(17) 0.13229(17) 0.13339(16)
C2_32 C 0.97722(16) 0.10977(16) 0.07390(16)
C5_32 C 0.97910(17) 0.11168(17) 0.18900(17)
O3_22 O 0.99703(12) 0.13554(12) 0.02859(11)
C8_32 C 0.98345(16) 0.11398(17) 0.30253(17)
O4_18 O 0.94334(12) 0.07189(12) 0.30384(11)
H4_32 H 0.931(3) 0.055(3) 0.235(3)
O8_18 O 0.94334(12) 0.92811(12) 0.19616(11)
O1_33 O 0.80726(11) 0.43777(12) 0.43354(11)
C1_33 C 0.86661(16) 0.49903(17) 0.36771(17)
C2_33 C 0.92610(16) 0.47722(16) 0.39023(16)
C3_33 C 0.86762(18) 0.54217(19) 0.32202(18)
H1_33 H 0.90521(18) 0.55561(19) 0.30719(18)
C4_33 C 0.81565(18) 0.5658(2) 0.2978(2)
H2_33 H 0.81747(18) 0.5957(2) 0.2676(2)
C5_33 C 0.81100(17) 0.47910(17) 0.38832(17)
O3_23 O 0.97141(11) 0.49703(12) 0.36446(12)
C6_33 C 0.75770(17) 0.50181(17) 0.36384(17)
C7_33 C 0.76070(18) 0.54498(19) 0.31860(18)
H3_33 H 0.72471(18) 0.56033(19) 0.30179(18)
C8_33 C 0.69747(17) 0.48345(16) 0.38602(17)
O4_19 O 0.69616(11) 0.44334(12) 0.42811(12)
H4_33 H 0.765(3) 0.431(3) 0.445(3)
O7_17 O 0.86446(12) 0.52859(11) 0.50297(12)
O8_19 O 0.80384(11) 0.44334(12) 0.57189(12)
C3_34 C 0.17798(18) 0.13238(18) 0.04217(19)
H1_34 H 0.19281(18) 0.09479(18) 0.05561(19)
C4_34 C 0.2022(2) 0.18435(18) 0.0658(2)
H2_34 H 0.2324(2) 0.18253(18) 0.0957(2)
C6_34 C 0.13616(17) 0.24230(17) 0.00181(17)
C7_34 C 0.18140(18) 0.23930(18) 0.04498(19)
H3_34 H 0.19821(18) 0.27529(18) 0.06033(19)
O1_34 O 0.06646(11) 0.19274(11) 0.93777(12)
C1_34 C 0.13229(17) 0.13339(16) 0.99903(17)
C2_34 C 0.10977(16) 0.07390(16) 0.97722(16)
C5_34 C 0.11168(17) 0.18900(17) 0.97910(17)
C8_34 C 0.11398(17) 0.30253(17) 0.98345(16)
O4_20 O 0.07189(12) 0.30384(11) 0.94334(12)
H4_34 H 0.055(3) 0.235(3) 0.931(3)
O8_20 O 0.92811(12) 0.19616(11) 0.94334(12)
O1_35 O 0.43354(11) 0.80726(11) 0.43777(12)
C1_35 C 0.36771(17) 0.86661(16) 0.49903(17)
C2_35 C 0.39023(16) 0.92610(16) 0.47722(16)
C3_35 C 0.32202(18) 0.86762(18) 0.54217(19)
H1_35 H 0.30719(18) 0.90521(18) 0.55561(19)
C4_35 C 0.2978(2) 0.81565(18) 0.5658(2)
H2_35 H 0.2676(2) 0.81747(18) 0.5957(2)
C5_35 C 0.38832(17) 0.81100(17) 0.47910(17)
O3_24 O 0.36446(12) 0.97141(11) 0.49703(12)
C6_35 C 0.36384(17) 0.75770(17) 0.50181(17)
C7_35 C 0.31860(18) 0.76070(18) 0.54498(19)
H3_35 H 0.30179(18) 0.72471(18) 0.56033(19)
C8_35 C 0.38602(17) 0.69747(17) 0.48345(16)
O4_21 O 0.42811(12) 0.69616(11) 0.44334(12)
H4_35 H 0.445(3) 0.765(3) 0.431(3)
O8_21 O 0.57189(12) 0.80384(11) 0.44334(12)
O7_18 O 0.00297(12) 0.63554(12) 0.47141(11)
O1_36 O 0.93354(11) 0.69274(11) 0.56223(12)
C1_36 C 0.86771(17) 0.63339(16) 0.50097(17)
C2_36 C 0.89023(16) 0.57390(16) 0.52278(16)
C3_36 C 0.82202(18) 0.63238(18) 0.45783(19)
H1_36 H 0.80719(18) 0.59479(18) 0.44439(19)
C4_36 C 0.7978(2) 0.68435(18) 0.4342(2)
H2_36 H 0.7676(2) 0.68253(18) 0.4043(2)
C5_36 C 0.88832(17) 0.68900(17) 0.52090(17)
C6_36 C 0.86384(17) 0.74230(17) 0.49819(17)
C7_36 C 0.81860(18) 0.73930(18) 0.45502(19)
H3_36 H 0.80179(18) 0.77529(18) 0.43967(19)
C8_36 C 0.88602(17) 0.80253(17) 0.51655(16)
H4_36 H 0.945(3) 0.735(3) 0.569(3)
O1_37 O 0.56646(11) 0.30726(11) 0.06223(12)
C1_37 C 0.63229(17) 0.36661(16) 0.00097(17)
C2_37 C 0.60977(16) 0.42610(16) 0.02278(16)
C5_37 C 0.61168(17) 0.31100(17) 0.02090(17)
C8_37 C 0.61398(17) 0.19747(17) 0.01655(16)
O4_22 O 0.57189(12) 0.19616(11) 0.05666(12)
H4_37 H 0.555(3) 0.265(3) 0.069(3)
O8_22 O 0.42811(12) 0.30384(11) 0.05666(12)
C3_37 C 0.67798(18) 0.36762(18) 0.95783(19)
H1_37 H 0.69281(18) 0.40521(18) 0.94439(19)
C4_37 C 0.7022(2) 0.31565(18) 0.9342(2)
H2_37 H 0.7324(2) 0.31747(18) 0.9043(2)
C6_37 C 0.63616(17) 0.25770(17) 0.99819(17)
C7_37 C 0.68140(18) 0.26070(18) 0.95502(19)
H3_37 H 0.69821(18) 0.22471(18) 0.93967(19)
O1_38 O 0.06223(12) 0.56646(11) 0.30726(11)
C1_38 C 0.00097(17) 0.63229(17) 0.36661(16)
C2_38 C 0.02278(16) 0.60977(16) 0.42610(16)
C5_38 C 0.02090(17) 0.61168(17) 0.31100(17)
C8_38 C 0.01655(16) 0.61398(17) 0.19747(17)
O4_23 O 0.05666(12) 0.57189(12) 0.19616(11)
H4_38 H 0.069(3) 0.555(3) 0.265(3)
O8_23 O 0.05666(12) 0.42811(12) 0.30384(11)
C3_38 C 0.95783(19) 0.67798(18) 0.36762(18)
H1_38 H 0.94439(19) 0.69281(18) 0.40521(18)
C4_38 C 0.9342(2) 0.7022(2) 0.31565(18)
H2_38 H 0.9043(2) 0.7324(2) 0.31747(18)
C6_38 C 0.99819(17) 0.63616(17) 0.25770(17)
C7_38 C 0.95502(19) 0.68140(18) 0.26070(18)
H3_38 H 0.93967(19) 0.69821(18) 0.22471(18)
O1_39 O 0.30726(11) 0.06223(12) 0.56646(11)
C1_39 C 0.36661(16) 0.00097(17) 0.63229(17)
C2_39 C 0.42610(16) 0.02278(16) 0.60977(16)
C5_39 C 0.31100(17) 0.02090(17) 0.61168(17)
C8_39 C 0.19747(17) 0.01655(16) 0.61398(17)
O4_24 O 0.19616(11) 0.05666(12) 0.57189(12)
H4_39 H 0.265(3) 0.069(3) 0.555(3)
O8_24 O 0.30384(11) 0.05666(12) 0.42811(12)
C3_39 C 0.36762(18) 0.95783(19) 0.67798(18)
H1_39 H 0.40521(18) 0.94439(19) 0.69281(18)
C4_39 C 0.31565(18) 0.9342(2) 0.7022(2)
H2_39 H 0.31747(18) 0.9043(2) 0.7324(2)
C6_39 C 0.25770(17) 0.99819(17) 0.63616(17)
C7_39 C 0.26070(18) 0.95502(19) 0.68140(18)
H3_39 H 0.22471(18) 0.93967(19) 0.69821(18)
O1_40 O 0.69274(11) 0.43777(12) 0.56646(11)
C1_40 C 0.63339(16) 0.49903(17) 0.63229(17)
C2_40 C 0.57390(16) 0.47722(16) 0.60977(16)
C3_40 C 0.63238(18) 0.54217(19) 0.67798(18)
H1_40 H 0.59479(18) 0.55561(19) 0.69281(18)
C4_40 C 0.68435(18) 0.5658(2) 0.7022(2)
H2_40 H 0.68253(18) 0.5957(2) 0.7324(2)
C5_40 C 0.68900(17) 0.47910(17) 0.61168(17)
O3_25 O 0.52859(11) 0.49703(12) 0.63554(12)
C6_40 C 0.74230(17) 0.50181(17) 0.63616(17)
C7_40 C 0.73930(18) 0.54498(19) 0.68140(18)
H3_40 H 0.77529(18) 0.56033(19) 0.69821(18)
C8_40 C 0.80253(17) 0.48345(16) 0.61398(17)
H4_40 H 0.735(3) 0.431(3) 0.555(3)
O7_19 O 0.63554(12) 0.52859(11) 0.49703(12)
O1_41 O 0.06223(12) 0.43354(11) 0.19274(11)
C1_41 C 0.00097(17) 0.36771(17) 0.13339(16)
C2_41 C 0.02278(16) 0.39023(16) 0.07390(16)
C5_41 C 0.02090(17) 0.38832(17) 0.18900(17)
O3_26 O 0.00297(12) 0.36446(12) 0.02859(11)
C8_41 C 0.01655(16) 0.38602(17) 0.30253(17)
H4_41 H 0.069(3) 0.445(3) 0.235(3)
C3_41 C 0.95783(19) 0.32202(18) 0.13238(18)
H1_41 H 0.94439(19) 0.30719(18) 0.09479(18)
C4_41 C 0.9342(2) 0.2978(2) 0.18435(18)
H2_41 H 0.9043(2) 0.2676(2) 0.18253(18)
C6_41 C 0.99819(17) 0.36384(17) 0.24230(17)
C7_41 C 0.95502(19) 0.31860(18) 0.23930(18)
H3_41 H 0.93967(19) 0.30179(18) 0.27529(18)
O1_42 O 0.19274(11) 0.06223(12) 0.43354(11)
C1_42 C 0.13339(16) 0.00097(17) 0.36771(17)
C2_42 C 0.07390(16) 0.02278(16) 0.39023(16)
C5_42 C 0.18900(17) 0.02090(17) 0.38832(17)
O3_27 O 0.02859(11) 0.00297(12) 0.36446(12)
C8_42 C 0.30253(17) 0.01655(16) 0.38602(17)
H4_42 H 0.235(3) 0.069(3) 0.445(3)
C3_42 C 0.13238(18) 0.95783(19) 0.32202(18)
H1_42 H 0.09479(18) 0.94439(19) 0.30719(18)
C4_42 C 0.18435(18) 0.9342(2) 0.2978(2)
H2_42 H 0.18253(18) 0.9043(2) 0.2676(2)
C6_42 C 0.24230(17) 0.99819(17) 0.36384(17)
C7_42 C 0.23930(18) 0.95502(19) 0.31860(18)
H3_42 H 0.27529(18) 0.93967(19) 0.30179(18)
C3_43 C 0.04217(19) 0.82202(18) 0.36762(18)
H1_43 H 0.05561(19) 0.80719(18) 0.40521(18)
C4_43 C 0.0658(2) 0.7978(2) 0.31565(18)
H2_43 H 0.0957(2) 0.7676(2) 0.31747(18)
C6_43 C 0.00181(17) 0.86384(17) 0.25770(17)
C7_43 C 0.04498(19) 0.81860(18) 0.26070(18)
H3_43 H 0.06033(19) 0.80179(18) 0.22471(18)
O1_43 O 0.93777(12) 0.93354(11) 0.30726(11)
C1_43 C 0.99903(17) 0.86771(17) 0.36661(16)
C2_43 C 0.97722(16) 0.89023(16) 0.42610(16)
C5_43 C 0.97910(17) 0.88832(17) 0.31100(17)
C8_43 C 0.98345(16) 0.88602(17) 0.19747(17)
H4_43 H 0.931(3) 0.945(3) 0.265(3)
O1_44 O 0.43777(12) 0.56646(11) 0.69274(11)
C1_44 C 0.49903(17) 0.63229(17) 0.63339(16)
C2_44 C 0.47722(16) 0.60977(16) 0.57390(16)
C3_44 C 0.54217(19) 0.67798(18) 0.63238(18)
H1_44 H 0.55561(19) 0.69281(18) 0.59479(18)
C4_44 C 0.5658(2) 0.7022(2) 0.68435(18)
H2_44 H 0.5957(2) 0.7324(2) 0.68253(18)
C5_44 C 0.47910(17) 0.61168(17) 0.68900(17)
O3_28 O 0.49703(12) 0.63554(12) 0.52859(11)
C6_44 C 0.50181(17) 0.63616(17) 0.74230(17)
C7_44 C 0.54498(19) 0.68140(18) 0.73930(18)
H3_44 H 0.56033(19) 0.69821(18) 0.77529(18)
C8_44 C 0.48345(16) 0.61398(17) 0.80253(17)
H4_44 H 0.431(3) 0.555(3) 0.735(3)
O7_20 O 0.36446(12) 0.02859(11) 0.00297(12)
C3_45 C 0.36762(18) 0.04217(19) 0.82202(18)
H1_45 H 0.40521(18) 0.05561(19) 0.80719(18)
C4_45 C 0.31565(18) 0.0658(2) 0.7978(2)
H2_45 H 0.31747(18) 0.0957(2) 0.7676(2)
C6_45 C 0.25770(17) 0.00181(17) 0.86384(17)
C7_45 C 0.26070(18) 0.04498(19) 0.81860(18)
H3_45 H 0.22471(18) 0.06033(19) 0.80179(18)
O1_45 O 0.30726(11) 0.93777(12) 0.93354(11)
C1_45 C 0.36661(16) 0.99903(17) 0.86771(17)
C2_45 C 0.42610(16) 0.97722(16) 0.89023(16)
C5_45 C 0.31100(17) 0.97910(17) 0.88832(17)
C8_45 C 0.19747(17) 0.98345(16) 0.88602(17)
H4_45 H 0.265(3) 0.931(3) 0.945(3)
O1_46 O 0.56646(11) 0.69274(11) 0.43777(12)
C1_46 C 0.63229(17) 0.63339(16) 0.49903(17)
C2_46 C 0.60977(16) 0.57390(16) 0.47722(16)
C3_46 C 0.67798(18) 0.63238(18) 0.54217(19)
H1_46 H 0.69281(18) 0.59479(18) 0.55561(19)
C4_46 C 0.7022(2) 0.68435(18) 0.5658(2)
H2_46 H 0.7324(2) 0.68253(18) 0.5957(2)
C5_46 C 0.61168(17) 0.68900(17) 0.47910(17)
C6_46 C 0.63616(17) 0.74230(17) 0.50181(17)
C7_46 C 0.68140(18) 0.73930(18) 0.54498(19)
H3_46 H 0.69821(18) 0.77529(18) 0.56033(19)
C8_46 C 0.61398(17) 0.80253(17) 0.48345(16)
H4_46 H 0.555(3) 0.735(3) 0.431(3)
C3_47 C 0.82202(18) 0.36762(18) 0.04217(19)
H1_47 H 0.80719(18) 0.40521(18) 0.05561(19)
C4_47 C 0.7978(2) 0.31565(18) 0.0658(2)
H2_47 H 0.7676(2) 0.31747(18) 0.0957(2)
C6_47 C 0.86384(17) 0.25770(17) 0.00181(17)
C7_47 C 0.81860(18) 0.26070(18) 0.04498(19)
H3_47 H 0.80179(18) 0.22471(18) 0.06033(19)
O1_47 O 0.93354(11) 0.30726(11) 0.93777(12)
C1_47 C 0.86771(17) 0.36661(16) 0.99903(17)
C2_47 C 0.89023(16) 0.42610(16) 0.97722(16)
C5_47 C 0.88832(17) 0.31100(17) 0.97910(17)
C8_47 C 0.88602(17) 0.19747(17) 0.98345(16)
H4_47 H 0.945(3) 0.265(3) 0.931(3)
O1_48 O 0.43354(11) 0.19274(11) 0.06223(12)
C1_48 C 0.36771(17) 0.13339(16) 0.00097(17)
C2_48 C 0.39023(16) 0.07390(16) 0.02278(16)
C5_48 C 0.38832(17) 0.18900(17) 0.02090(17)
C8_48 C 0.38602(17) 0.30253(17) 0.01655(16)
H4_48 H 0.445(3) 0.235(3) 0.069(3)
C3_48 C 0.32202(18) 0.13238(18) 0.95783(19)
H1_48 H 0.30719(18) 0.09479(18) 0.94439(19)
C4_48 C 0.2978(2) 0.18435(18) 0.9342(2)
H2_48 H 0.2676(2) 0.18253(18) 0.9043(2)
C6_48 C 0.36384(17) 0.24230(17) 0.99819(17)
C7_48 C 0.31860(18) 0.23930(18) 0.95502(19)
H3_48 H 0.30179(18) 0.27529(18) 0.93967(19)
loop_
_geom_bond_atom_site_label_1
_geom_bond_atom_site_label_2
_geom_bond_site_symmetry_1
_geom_bond_site_symmetry_2
O6 Co1 1_555 1_555
O7 Co1 1_555 1_555
O8 Co1 1_555 1_555
O9 Co1 1_555 1_555
O1 C5 1_555 1_555
C1 C2 1_555 1_555
C2 O2 1_555 1_555
C3 C1 1_555 1_555
H1 C3 1_555 1_555
C4 C3 1_555 1_555
H2 C4 1_555 1_555
C5 C1 1_555 1_555
O3 C2 1_555 1_555
C6 C5 1_555 1_555
C7 C4 1_555 1_555
H3 C7 1_555 1_555
C8 C6 1_555 1_555
O4 C8 1_555 1_555
O5 C8 1_555 1_555
H4 O1 1_555 1_555
Co2 O4 1_555 1_555
Co3 O5 1_555 1_555
Co5 O2 1_555 1_555
C6 C7 1_555 1_555
O6_2 Co1_2 1_555 1_555
O7_2 Co1_2 1_555 1_555
O8_2 Co1_2 1_555 1_555
O9_2 Co1_2 1_555 1_555
O1_2 C5_2 1_555 1_555
C1_2 C2_2 1_555 1_555
C2_2 O2_2 1_555 1_555
C3_2 C1_2 1_555 1_555
H1_2 C3_2 1_555 1_555
C4_2 C3_2 1_555 1_555
H2_2 C4_2 1_555 1_555
C5_2 C1_2 1_555 1_555
O3_2 C2_2 1_555 1_555
C6_2 C5_2 1_555 1_555
C7_2 C4_2 1_555 1_555
H3_2 C7_2 1_555 1_555
C8_2 C6_2 1_555 1_555
O4_2 C8_2 1_555 1_555
O5_2 C8_2 1_555 1_555
H4_2 O1_2 1_555 1_555
Co2_2 O4_2 1_555 1_555
Co3_2 O5_2 1_555 1_555
Co5_2 O2_2 1_555 1_555
C6_2 C7_2 1_555 1_555
O6_3 Co1_3 1_555 1_555
O7_3 Co1_3 1_555 1_555
O8_3 Co1_3 1_555 1_555
O9_3 Co1_3 1_555 1_555
O1_3 C5_3 1_555 1_555
C1_3 C2_3 1_555 1_555
C2_3 O2_3 1_555 1_555
C3_3 C1_3 1_555 1_555
H1_3 C3_3 1_555 1_555
C4_3 C3_3 1_555 1_555
H2_3 C4_3 1_555 1_555
C5_3 C1_3 1_555 1_555
O3_3 C2_3 1_555 1_555
C6_3 C5_3 1_555 1_555
C7_3 C4_3 1_555 1_555
H3_3 C7_3 1_555 1_555
C8_3 C6_3 1_555 1_555
O4_3 C8_3 1_555 1_555
O5_3 C8_3 1_555 1_555
H4_3 O1_3 1_555 1_555
Co2_3 O4_3 1_555 1_555
Co3_3 O5_3 1_555 1_555
Co5_3 O2_3 1_555 1_555
C6_3 C7_3 1_555 1_555
O6_4 Co1_4 1_555 1_555
O8_4 Co1_4 1_555 1_555
O9_4 Co1_4 1_555 1_555
O1_4 C5_4 1_555 1_555
C1_4 C2_4 1_555 1_555
C2_4 O2_4 1_555 1_555
C5_4 C1_4 1_555 1_555
O3_4 C2_4 1_555 1_555
O4_4 C8_4 1_555 1_555
H4_4 O1_4 1_555 1_555
Co2_4 O4_4 1_555 1_555
Co5_4 O2_4 1_555 1_555
H1_4 C3_4 1_555 1_555
C4_4 C3_4 1_555 1_555
H2_4 C4_4 1_555 1_555
C7_4 C4_4 1_555 1_555
H3_4 C7_4 1_555 1_555
Co3_4 O5_4 1_555 1_555
C6_4 C7_4 1_555 1_555
O1_5 C5_5 1_555 1_555
C1_5 C2_5 1_555 1_555
C2_5 O2_5 1_555 1_555
C3_5 C1_5 1_555 1_555
H1_5 C3_5 1_555 1_555
C4_5 C3_5 1_555 1_555
H2_5 C4_5 1_555 1_555
C5_5 C1_5 1_555 1_555
O3_5 C2_5 1_555 1_555
C6_5 C5_5 1_555 1_555
C7_5 C4_5 1_555 1_555
H3_5 C7_5 1_555 1_555
C8_5 C6_5 1_555 1_555
O8_2 C8_5 1_555 1_555
O5_5 C8_5 1_555 1_555
H4_5 O1_5 1_555 1_555
Co3_5 O5_5 1_555 1_555
Co4_5 O3_5 1_555 1_555
Co5_5 O2_5 1_555 1_555
C6_5 C7_5 1_555 1_555
O6_5 Co2_2 1_555 1_555
O7_5 Co2_2 1_555 1_555
O9_5 Co2_2 1_555 1_555
O1_6 C5_6 1_555 1_555
C1_6 C2_6 1_555 1_555
C2_6 O2_6 1_555 1_555
C3_6 C1_6 1_555 1_555
H1_6 C3_6 1_555 1_555
C4_6 C3_6 1_555 1_555
H2_6 C4_6 1_555 1_555
C5_6 C1_6 1_555 1_555
O3_6 C2_6 1_555 1_555
C6_6 C5_6 1_555 1_555
C7_6 C4_6 1_555 1_555
H3_6 C7_6 1_555 1_555
C8_6 C6_6 1_555 1_555
O8_3 C8_6 1_555 1_555
O5_6 C8_6 1_555 1_555
H4_6 O1_6 1_555 1_555
Co3_6 O5_6 1_555 1_555
Co4_6 O3_6 1_555 1_555
Co5_6 O2_6 1_555 1_555
C6_6 C7_6 1_555 1_555
O6_6 Co2_3 1_555 1_555
O7_6 Co2_3 1_555 1_555
O9_6 Co2_3 1_555 1_555
Co4_6 O1_7 1_555 1_555
O1_7 C5_7 1_555 1_555
O2_7 Co4_6 1_555 1_555
C1_7 C2_7 1_555 1_555
C2_7 O2_7 1_555 1_555
C3_7 C1_7 1_555 1_555
H1_7 C3_7 1_555 1_555
C4_7 C3_7 1_555 1_555
H2_7 C4_7 1_555 1_555
C5_7 C1_7 1_555 1_555
O3_7 C2_7 1_555 1_555
C6_7 C5_7 1_555 1_555
C7_7 C4_7 1_555 1_555
H3_7 C7_7 1_555 1_555
C8_7 C6_7 1_555 1_555
O4_5 C8_7 1_555 1_555
O5_7 C8_7 1_555 1_555
H4_7 O1_7 1_555 1_555
Co2_5 O4_5 1_555 1_555
Co3_7 O5_7 1_555 1_555
Co5_7 O2_7 1_555 1_555
O6_7 Co4_6 1_555 1_555
O8_5 Co4_6 1_555 1_555
O9_7 Co4_6 1_555 1_555
C6_7 C7_7 1_555 1_555
O6_8 Co4_4 1_555 1_555
O8_6 Co4_4 1_555 1_555
O9_8 Co4_4 1_555 1_555
O1_8 C5_8 1_555 1_555
C1_8 C2_8 1_555 1_555
C2_8 O2_8 1_555 1_555
C5_8 C1_8 1_555 1_555
O3_8 C2_8 1_555 1_555
O4_6 C8_8 1_555 1_555
H4_8 O1_8 1_555 1_555
Co2_6 O4_6 1_555 1_555
Co5_8 O2_8 1_555 1_555
H1_8 C3_8 1_555 1_555
C4_8 C3_8 1_555 1_555
H2_8 C4_8 1_555 1_555
C7_8 C4_8 1_555 1_555
H3_8 C7_8 1_555 1_555
Co3_8 O5_8 1_555 1_555
C6_8 C7_8 1_555 1_555
Co1_5 O1_9 1_555 1_555
O1_9 C5_9 1_555 1_555
O2_9 Co1_5 1_555 1_555
C1_9 C2_9 1_555 1_555
C2_9 O2_9 1_555 1_555
C3_9 C1_9 1_555 1_555
H1_9 C3_9 1_555 1_555
C4_9 C3_9 1_555 1_555
H2_9 C4_9 1_555 1_555
C5_9 C1_9 1_555 1_555
O3_9 C2_9 1_555 1_555
C6_9 C5_9 1_555 1_555
C7_9 C4_9 1_555 1_555
H3_9 C7_9 1_555 1_555
C8_9 C6_9 1_555 1_555
O4_7 C8_9 1_555 1_555
O5_9 C8_9 1_555 1_555
H4_9 O1_9 1_555 1_555
Co2_7 O4_7 1_555 1_555
Co3_9 O5_9 1_555 1_555
Co5_9 O2_9 1_555 1_555
O6_9 Co1_5 1_555 1_555
O7_7 Co1_5 1_555 1_555
O8_7 Co1_5 1_555 1_555
O9_9 Co1_5 1_555 1_555
C6_9 C7_9 1_555 1_555
O6_10 Co4_8 1_555 1_555
O8_8 Co4_8 1_555 1_555
O9_10 Co4_8 1_555 1_555
O1_10 C5_10 1_555 1_555
C1_10 C2_10 1_555 1_555
C2_10 O2_10 1_555 1_555
C5_10 C1_10 1_555 1_555
O7_4 C2_10 1_555 1_555
O4_8 C8_10 1_555 1_555
H4_10 O1_10 1_555 1_555
Co2_8 O4_8 1_555 1_555
Co5_10 O2_10 1_555 1_555
H1_10 C3_10 1_555 1_555
C4_10 C3_10 1_555 1_555
H2_10 C4_10 1_555 1_555
C7_10 C4_10 1_555 1_555
H3_10 C7_10 1_555 1_555
Co3_10 O5_10 1_555 1_555
C6_10 C7_10 1_555 1_555
Co4_5 O1_11 1_555 1_555
O1_11 C5_11 1_555 1_555
O2_11 Co4_5 1_555 1_555
C1_11 C2_11 1_555 1_555
C2_11 O2_11 1_555 1_555
C3_11 C1_11 1_555 1_555
H1_11 C3_11 1_555 1_555
C4_11 C3_11 1_555 1_555
H2_11 C4_11 1_555 1_555
C5_11 C1_11 1_555 1_555
O3_10 C2_11 1_555 1_555
C6_11 C5_11 1_555 1_555
C7_11 C4_11 1_555 1_555
H3_11 C7_11 1_555 1_555
C8_11 C6_11 1_555 1_555
O4_9 C8_11 1_555 1_555
O5_11 C8_11 1_555 1_555
H4_11 O1_11 1_555 1_555
Co2_9 O4_9 1_555 1_555
Co3_11 O5_11 1_555 1_555
Co5_11 O2_11 1_555 1_555
O6_11 Co4_5 1_555 1_555
O8_9 Co4_5 1_555 1_555
O9_11 Co4_5 1_555 1_555
C6_11 C7_11 1_555 1_555
O1_12 C5_12 1_555 1_555
C1_12 C2_12 1_555 1_555
C2_12 O2_12 1_555 1_555
C3_12 C1_12 1_555 1_555
H1_12 C3_12 1_555 1_555
C4_12 C3_12 1_555 1_555
H2_12 C4_12 1_555 1_555
C5_12 C1_12 1_555 1_555
O7_7 C2_12 1_555 1_555
C6_12 C5_12 1_555 1_555
C7_12 C4_12 1_555 1_555
H3_12 C7_12 1_555 1_555
C8_12 C6_12 1_555 1_555
O8 C8_12 1_555 1_555
O5_12 C8_12 1_555 1_555
H4_12 O1_12 1_555 1_555
Co3_12 O5_12 1_555 1_555
Co5_12 O2_12 1_555 1_555
C6_12 C7_12 1_555 1_555
O6_12 Co2 1_555 1_555
O7_8 Co2 1_555 1_555
O9_12 Co2 1_555 1_555
H1_13 C3_13 1_555 1_555
C4_13 C3_13 1_555 1_555
H2_13 C4_13 1_555 1_555
C7_13 C4_13 1_555 1_555
H3_13 C7_13 1_555 1_555
Co5_2 O5_13 1_555 1_555
C6_13 C7_13 1_555 1_555
Co4_7 O1_13 1_555 1_555
O1_13 C5_13 1_555 1_555
O2_13 Co4_7 1_555 1_555
C1_13 C2_13 1_555 1_555
C2_13 O2_13 1_555 1_555
C5_13 C1_13 1_555 1_555
O7_6 C2_13 1_555 1_555
O4_10 C8_13 1_555 1_555
H4_13 O1_13 1_555 1_555
Co4_2 O4_10 1_555 1_555
Co3_3 O2_13 1_555 1_555
O6_13 Co4_7 1_555 1_555
O8_10 Co4_7 1_555 1_555
O9_13 Co4_7 1_555 1_555
H1_14 C3_14 1_555 1_555
C4_14 C3_14 1_555 1_555
H2_14 C4_14 1_555 1_555
C7_14 C4_14 1_555 1_555
H3_14 C7_14 1_555 1_555
Co5_3 O5_14 1_555 1_555
C6_14 C7_14 1_555 1_555
Co4_9 O1_14 1_555 1_555
O1_14 C5_14 1_555 1_555
O2_14 Co4_9 1_555 1_555
C1_14 C2_14 1_555 1_555
C2_14 O2_14 1_555 1_555
C5_14 C1_14 1_555 1_555
O7_8 C2_14 1_555 1_555
O4_11 C8_14 1_555 1_555
H4_14 O1_14 1_555 1_555
Co4_3 O4_11 1_555 1_555
Co3 O2_14 1_555 1_555
O6_14 Co4_9 1_555 1_555
O8_11 Co4_9 1_555 1_555
O9_14 Co4_9 1_555 1_555
H1_15 C3_15 1_555 1_555
C4_15 C3_15 1_555 1_555
H2_15 C4_15 1_555 1_555
C7_15 C4_15 1_555 1_555
H3_15 C7_15 1_555 1_555
Co5 O5_15 1_555 1_555
C6_15 C7_15 1_555 1_555
Co4_10 O1_15 1_555 1_555
O1_15 C5_15 1_555 1_555
O2_15 Co4_10 1_555 1_555
C1_15 C2_15 1_555 1_555
C2_15 O2_15 1_555 1_555
C5_15 C1_15 1_555 1_555
O7_5 C2_15 1_555 1_555
O4_12 C8_15 1_555 1_555
H4_15 O1_15 1_555 1_555
Co4 O4_12 1_555 1_555
Co3_2 O2_15 1_555 1_555
O6_15 Co4_10 1_555 1_555
O8_12 Co4_10 1_555 1_555
O9_15 Co4_10 1_555 1_555
Co2_7 O1_16 1_555 1_555
O1_16 C5_16 1_555 1_555
O2_16 Co2_7 1_555 1_555
C1_16 C2_16 1_555 1_555
C2_16 O2_16 1_555 1_555
C3_16 C1_16 1_555 1_555
H1_16 C3_16 1_555 1_555
C4_16 C3_16 1_555 1_555
H2_16 C4_16 1_555 1_555
C5_16 C1_16 1_555 1_555
O3_11 C2_16 1_555 1_555
C6_16 C5_16 1_555 1_555
C7_16 C4_16 1_555 1_555
H3_16 C7_16 1_555 1_555
C8_16 C6_16 1_555 1_555
O8_7 C8_16 1_555 1_555
O5_16 C8_16 1_555 1_555
H4_16 O1_16 1_555 1_555
Co5_12 O5_16 1_555 1_555
Co2_5 O3_11 1_555 1_555
Co3_7 O2_16 1_555 1_555
O6_16 Co2_7 1_555 1_555
O7_9 Co2_7 1_555 1_555
O9_16 Co2_7 1_555 1_555
C6_16 C7_16 1_555 1_555
H1_17 C3_17 1_555 1_555
C4_17 C3_17 1_555 1_555
H2_17 C4_17 1_555 1_555
C7_17 C4_17 1_555 1_555
H3_17 C7_17 1_555 1_555
Co5_9 O5_17 1_555 1_555
C6_17 C7_17 1_555 1_555
Co4_3 O1_17 1_555 1_555
O1_17 C5_17 1_555 1_555
O2_17 Co4_3 1_555 1_555
C1_17 C2_17 1_555 1_555
C2_17 O2_17 1_555 1_555
C5_17 C1_17 1_555 1_555
O3_12 C2_17 1_555 1_555
O8_11 C8_17 1_555 1_555
H4_17 O1_17 1_555 1_555
Co3_10 O2_17 1_555 1_555
O6_17 Co4_3 1_555 1_555
O9_17 Co4_3 1_555 1_555
H1_18 C3_18 1_555 1_555
C4_18 C3_18 1_555 1_555
H2_18 C4_18 1_555 1_555
C7_18 C4_18 1_555 1_555
H3_18 C7_18 1_555 1_555
Co5_11 O5_18 1_555 1_555
C6_18 C7_18 1_555 1_555
Co4 O1_18 1_555 1_555
O1_18 C5_18 1_555 1_555
O2_18 Co4 1_555 1_555
C1_18 C2_18 1_555 1_555
C2_18 O2_18 1_555 1_555
C5_18 C1_18 1_555 1_555
O3_13 C2_18 1_555 1_555
O8_12 C8_18 1_555 1_555
H4_18 O1_18 1_555 1_555
Co3_8 O2_18 1_555 1_555
O6_18 Co4 1_555 1_555
O9_18 Co4 1_555 1_555
O1_19 C5_19 1_555 1_555
C1_19 C2_19 1_555 1_555
C2_19 O2_19 1_555 1_555
C5_19 C1_19 1_555 1_555
O7 C2_19 1_555 1_555
O8_6 C8_19 1_555 1_555
H4_19 O1_19 1_555 1_555
Co3_12 O2_19 1_555 1_555
O6_19 Co2_6 1_555 1_555
O9_19 Co2_6 1_555 1_555
H1_19 C3_19 1_555 1_555
C4_19 C3_19 1_555 1_555
H2_19 C4_19 1_555 1_555
C7_19 C4_19 1_555 1_555
H3_19 C7_19 1_555 1_555
Co5_4 O5_19 1_555 1_555
C6_19 C7_19 1_555 1_555
Co2_5 O1_20 1_555 1_555
O1_20 C5_20 1_555 1_555
O2_20 Co2_5 1_555 1_555
C1_20 C2_20 1_555 1_555
C2_20 O2_20 1_555 1_555
C3_20 C1_20 1_555 1_555
H1_20 C3_20 1_555 1_555
C4_20 C3_20 1_555 1_555
H2_20 C4_20 1_555 1_555
C5_20 C1_20 1_555 1_555
O3_14 C2_20 1_555 1_555
C6_20 C5_20 1_555 1_555
C7_20 C4_20 1_555 1_555
H3_20 C7_20 1_555 1_555
C8_20 C6_20 1_555 1_555
O8_5 C8_20 1_555 1_555
O5_20 C8_20 1_555 1_555
H4_20 O1_20 1_555 1_555
Co5_6 O5_20 1_555 1_555
Co2_9 O3_14 1_555 1_555
Co3_11 O2_20 1_555 1_555
O6_20 Co2_5 1_555 1_555
O9_20 Co2_5 1_555 1_555
C6_20 C7_20 1_555 1_555
O1_21 C5_21 1_555 1_555
C1_21 C2_21 1_555 1_555
C2_21 O2_21 1_555 1_555
C5_21 C1_21 1_555 1_555
O7_2 C2_21 1_555 1_555
O8_4 C8_21 1_555 1_555
H4_21 O1_21 1_555 1_555
Co3_5 O2_21 1_555 1_555
O6_21 Co2_4 1_555 1_555
O9_21 Co2_4 1_555 1_555
H1_21 C3_21 1_555 1_555
C4_21 C3_21 1_555 1_555
H2_21 C4_21 1_555 1_555
C7_21 C4_21 1_555 1_555
H3_21 C7_21 1_555 1_555
Co5_10 O5_21 1_555 1_555
C6_21 C7_21 1_555 1_555
Co2_9 O1_22 1_555 1_555
O1_22 C5_22 1_555 1_555
O2_22 Co2_9 1_555 1_555
C1_22 C2_22 1_555 1_555
C2_22 O2_22 1_555 1_555
C3_22 C1_22 1_555 1_555
H1_22 C3_22 1_555 1_555
C4_22 C3_22 1_555 1_555
H2_22 C4_22 1_555 1_555
C5_22 C1_22 1_555 1_555
O7_9 C2_22 1_555 1_555
C6_22 C5_22 1_555 1_555
C7_22 C4_22 1_555 1_555
H3_22 C7_22 1_555 1_555
C8_22 C6_22 1_555 1_555
O8_9 C8_22 1_555 1_555
O5_22 C8_22 1_555 1_555
H4_22 O1_22 1_555 1_555
Co5_5 O5_22 1_555 1_555
Co3_9 O2_22 1_555 1_555
O6_22 Co2_9 1_555 1_555
O9_22 Co2_9 1_555 1_555
C6_22 C7_22 1_555 1_555
O1_23 C5_23 1_555 1_555
C1_23 C2_23 1_555 1_555
C2_23 O2_23 1_555 1_555
C5_23 C1_23 1_555 1_555
O7_3 C2_23 1_555 1_555
O8_8 C8_23 1_555 1_555
H4_23 O1_23 1_555 1_555
Co3_6 O2_23 1_555 1_555
H1_23 C3_23 1_555 1_555
C4_23 C3_23 1_555 1_555
H2_23 C4_23 1_555 1_555
C7_23 C4_23 1_555 1_555
H3_23 C7_23 1_555 1_555
Co5_8 O5_23 1_555 1_555
C6_23 C7_23 1_555 1_555
O6_23 Co2_8 1_555 1_555
O9_23 Co2_8 1_555 1_555
H1_24 C3_24 1_555 1_555
C4_24 C3_24 1_555 1_555
H2_24 C4_24 1_555 1_555
C7_24 C4_24 1_555 1_555
H3_24 C7_24 1_555 1_555
Co5_7 O5_24 1_555 1_555
C6_24 C7_24 1_555 1_555
Co4_2 O1_24 1_555 1_555
O1_24 C5_24 1_555 1_555
O2_24 Co4_2 1_555 1_555
C1_24 C2_24 1_555 1_555
C2_24 O2_24 1_555 1_555
C5_24 C1_24 1_555 1_555
O7_10 C2_24 1_555 1_555
O8_10 C8_24 1_555 1_555
H4_24 O1_24 1_555 1_555
Co3_4 O2_24 1_555 1_555
O6_24 Co4_2 1_555 1_555
O9_24 Co4_2 1_555 1_555
O1_25 C5_25 1_555 1_555
C1_25 C2_25 1_555 1_555
C2_25 O6_19 1_555 1_555
C3_25 C1_25 1_555 1_555
H1_25 C3_25 1_555 1_555
C4_25 C3_25 1_555 1_555
H2_25 C4_25 1_555 1_555
C5_25 C1_25 1_555 1_555
O3_15 C2_25 1_555 1_555
C6_25 C5_25 1_555 1_555
C7_25 C4_25 1_555 1_555
H3_25 C7_25 1_555 1_555
C8_25 C6_25 1_555 1_555
O4_13 C8_25 1_555 1_555
O9_9 C8_25 1_555 1_555
H4_25 O1_25 1_555 1_555
Co5_9 O4_13 1_555 1_555
C6_25 C7_25 1_555 1_555
O7_11 Co3_8 1_555 1_555
O8_13 Co3_8 1_555 1_555
O1_26 C5_26 1_555 1_555
C1_26 C2_26 1_555 1_555
C2_26 O6_21 1_555 1_555
C3_26 C1_26 1_555 1_555
H1_26 C3_26 1_555 1_555
C4_26 C3_26 1_555 1_555
H2_26 C4_26 1_555 1_555
C5_26 C1_26 1_555 1_555
O3_16 C2_26 1_555 1_555
C6_26 C5_26 1_555 1_555
C7_26 C4_26 1_555 1_555
H3_26 C7_26 1_555 1_555
C8_26 C6_26 1_555 1_555
O4_14 C8_26 1_555 1_555
O9_11 C8_26 1_555 1_555
H4_26 O1_26 1_555 1_555
Co5_11 O4_14 1_555 1_555
C6_26 C7_26 1_555 1_555
O7_12 Co3_4 1_555 1_555
O8_14 Co3_4 1_555 1_555
O1_27 C5_27 1_555 1_555
C1_27 C2_27 1_555 1_555
C2_27 O6_23 1_555 1_555
C3_27 C1_27 1_555 1_555
H1_27 C3_27 1_555 1_555
C4_27 C3_27 1_555 1_555
H2_27 C4_27 1_555 1_555
C5_27 C1_27 1_555 1_555
O3_17 C2_27 1_555 1_555
C6_27 C5_27 1_555 1_555
C7_27 C4_27 1_555 1_555
H3_27 C7_27 1_555 1_555
C8_27 C6_27 1_555 1_555
O4_15 C8_27 1_555 1_555
O9_7 C8_27 1_555 1_555
H4_27 O1_27 1_555 1_555
Co5_7 O4_15 1_555 1_555
C6_27 C7_27 1_555 1_555
O7_13 Co3_10 1_555 1_555
O8_15 Co3_10 1_555 1_555
H1_28 C3_28 1_555 1_555
C4_28 C3_28 1_555 1_555
H2_28 C4_28 1_555 1_555
C7_28 C4_28 1_555 1_555
H3_28 C7_28 1_555 1_555
C6_28 C7_28 1_555 1_555
O1_28 C5_28 1_555 1_555
C1_28 C2_28 1_555 1_555
C2_28 O6_10 1_555 1_555
C5_28 C1_28 1_555 1_555
O3_18 C2_28 1_555 1_555
O4_16 C8_28 1_555 1_555
H4_28 O1_28 1_555 1_555
Co5_2 O4_16 1_555 1_555
O8_16 Co5_8 1_555 1_555
O7_15 Co5_11 1_555 1_555
O1_29 C5_29 1_555 1_555
C1_29 C2_29 1_555 1_555
C2_29 O6_15 1_555 1_555
C3_29 C1_29 1_555 1_555
H1_29 C3_29 1_555 1_555
C4_29 C3_29 1_555 1_555
H2_29 C4_29 1_555 1_555
C5_29 C1_29 1_555 1_555
O3_19 C2_29 1_555 1_555
C6_29 C5_29 1_555 1_555
C7_29 C4_29 1_555 1_555
H3_29 C7_29 1_555 1_555
C8_29 C6_29 1_555 1_555
O8_14 C8_29 1_555 1_555
O9_24 C8_29 1_555 1_555
H4_29 O1_29 1_555 1_555
Co3_2 O3_19 1_555 1_555
C6_29 C7_29 1_555 1_555
O7_16 Co5_7 1_555 1_555
O1_30 C5_30 1_555 1_555
C1_30 C2_30 1_555 1_555
C2_30 O6_13 1_555 1_555
C3_30 C1_30 1_555 1_555
H1_30 C3_30 1_555 1_555
C4_30 C3_30 1_555 1_555
H2_30 C4_30 1_555 1_555
C5_30 C1_30 1_555 1_555
O3_20 C2_30 1_555 1_555
C6_30 C5_30 1_555 1_555
C7_30 C4_30 1_555 1_555
H3_30 C7_30 1_555 1_555
C8_30 C6_30 1_555 1_555
O8_15 C8_30 1_555 1_555
O9_17 C8_30 1_555 1_555
H4_30 O1_30 1_555 1_555
Co3_3 O3_20 1_555 1_555
C6_30 C7_30 1_555 1_555
Co3_3 O1_31 1_555 1_555
O1_31 C5_31 1_555 1_555
O6_6 Co3_3 1_555 1_555
C1_31 C2_31 1_555 1_555
C2_31 O6_6 1_555 1_555
C3_31 C1_31 1_555 1_555
H1_31 C3_31 1_555 1_555
C4_31 C3_31 1_555 1_555
H2_31 C4_31 1_555 1_555
C5_31 C1_31 1_555 1_555
O3_21 C2_31 1_555 1_555
C6_31 C5_31 1_555 1_555
C7_31 C4_31 1_555 1_555
H3_31 C7_31 1_555 1_555
C8_31 C6_31 1_555 1_555
O4_17 C8_31 1_555 1_555
O9_22 C8_31 1_555 1_555
H4_31 O1_31 1_555 1_555
Co3_9 O4_17 1_555 1_555
O8_17 Co3_3 1_555 1_555
C6_31 C7_31 1_555 1_555
H1_32 C3_32 1_555 1_555
C4_32 C3_32 1_555 1_555
H2_32 C4_32 1_555 1_555
C7_32 C4_32 1_555 1_555
H3_32 C7_32 1_555 1_555
C6_32 C7_32 1_555 1_555
O1_32 C5_32 1_555 1_555
C1_32 C2_32 1_555 1_555
C2_32 O6_4 1_555 1_555
C5_32 C1_32 1_555 1_555
O3_22 C2_32 1_555 1_555
O4_18 C8_32 1_555 1_555
H4_32 O1_32 1_555 1_555
Co5 O4_18 1_555 1_555
O8_18 Co5_10 1_555 1_555
Co3 O1_33 1_555 1_555
O1_33 C5_33 1_555 1_555
O6_12 Co3 1_555 1_555
C1_33 C2_33 1_555 1_555
C2_33 O6_12 1_555 1_555
C3_33 C1_33 1_555 1_555
H1_33 C3_33 1_555 1_555
C4_33 C3_33 1_555 1_555
H2_33 C4_33 1_555 1_555
C5_33 C1_33 1_555 1_555
O3_23 C2_33 1_555 1_555
C6_33 C5_33 1_555 1_555
C7_33 C4_33 1_555 1_555
H3_33 C7_33 1_555 1_555
C8_33 C6_33 1_555 1_555
O4_19 C8_33 1_555 1_555
O9_20 C8_33 1_555 1_555
H4_33 O1_33 1_555 1_555
Co3_11 O4_19 1_555 1_555
O7_17 Co3 1_555 1_555
O8_19 Co3 1_555 1_555
C6_33 C7_33 1_555 1_555
H1_34 C3_34 1_555 1_555
C4_34 C3_34 1_555 1_555
H2_34 C4_34 1_555 1_555
C7_34 C4_34 1_555 1_555
H3_34 C7_34 1_555 1_555
C6_34 C7_34 1_555 1_555
O1_34 C5_34 1_555 1_555
C1_34 C2_34 1_555 1_555
C2_34 O6_8 1_555 1_555
C5_34 C1_34 1_555 1_555
O7_14 C2_34 1_555 1_555
O4_20 C8_34 1_555 1_555
H4_34 O1_34 1_555 1_555
Co5_3 O4_20 1_555 1_555
O8_20 Co5_4 1_555 1_555
Co3_2 O1_35 1_555 1_555
O1_35 C5_35 1_555 1_555
O6_5 Co3_2 1_555 1_555
C1_35 C2_35 1_555 1_555
C2_35 O6_5 1_555 1_555
C3_35 C1_35 1_555 1_555
H1_35 C3_35 1_555 1_555
C4_35 C3_35 1_555 1_555
H2_35 C4_35 1_555 1_555
C5_35 C1_35 1_555 1_555
O3_24 C2_35 1_555 1_555
C6_35 C5_35 1_555 1_555
C7_35 C4_35 1_555 1_555
H3_35 C7_35 1_555 1_555
C8_35 C6_35 1_555 1_555
O4_21 C8_35 1_555 1_555
O9_16 C8_35 1_555 1_555
H4_35 O1_35 1_555 1_555
Co3_7 O4_21 1_555 1_555
O8_21 Co3_2 1_555 1_555
C6_35 C7_35 1_555 1_555
O7_18 Co5_9 1_555 1_555
O1_36 C5_36 1_555 1_555
C1_36 C2_36 1_555 1_555
C2_36 O6_14 1_555 1_555
C3_36 C1_36 1_555 1_555
H1_36 C3_36 1_555 1_555
C4_36 C3_36 1_555 1_555
H2_36 C4_36 1_555 1_555
C5_36 C1_36 1_555 1_555
O7_17 C2_36 1_555 1_555
C6_36 C5_36 1_555 1_555
C7_36 C4_36 1_555 1_555
H3_36 C7_36 1_555 1_555
C8_36 C6_36 1_555 1_555
O8_13 C8_36 1_555 1_555
O9_18 C8_36 1_555 1_555
H4_36 O1_36 1_555 1_555
C6_36 C7_36 1_555 1_555
Co5_6 O1_37 1_555 1_555
O1_37 C5_37 1_555 1_555
O6_7 Co5_6 1_555 1_555
C1_37 C2_37 1_555 1_555
C2_37 O6_7 1_555 1_555
C5_37 C1_37 1_555 1_555
O7_16 C2_37 1_555 1_555
O4_22 C8_37 1_555 1_555
H4_37 O1_37 1_555 1_555
Co3_5 O4_22 1_555 1_555
O8_22 Co5_6 1_555 1_555
H1_37 C3_37 1_555 1_555
C4_37 C3_37 1_555 1_555
H2_37 C4_37 1_555 1_555
C7_37 C4_37 1_555 1_555
H3_37 C7_37 1_555 1_555
C6_37 C7_37 1_555 1_555
Co5_12 O1_38 1_555 1_555
O1_38 C5_38 1_555 1_555
O6_9 Co5_12 1_555 1_555
C1_38 C2_38 1_555 1_555
C2_38 O6_9 1_555 1_555
C5_38 C1_38 1_555 1_555
O7_18 C2_38 1_555 1_555
O4_23 C8_38 1_555 1_555
H4_38 O1_38 1_555 1_555
Co3_6 O4_23 1_555 1_555
O8_23 Co5_12 1_555 1_555
H1_38 C3_38 1_555 1_555
C4_38 C3_38 1_555 1_555
H2_38 C4_38 1_555 1_555
C7_38 C4_38 1_555 1_555
H3_38 C7_38 1_555 1_555
C6_38 C7_38 1_555 1_555
Co5_5 O1_39 1_555 1_555
O1_39 C5_39 1_555 1_555
O6_11 Co5_5 1_555 1_555
C1_39 C2_39 1_555 1_555
C2_39 O6_11 1_555 1_555
C5_39 C1_39 1_555 1_555
O7_15 C2_39 1_555 1_555
O4_24 C8_39 1_555 1_555
H4_39 O1_39 1_555 1_555
Co3_12 O4_24 1_555 1_555
O8_24 Co5_5 1_555 1_555
H1_39 C3_39 1_555 1_555
C4_39 C3_39 1_555 1_555
H2_39 C4_39 1_555 1_555
C7_39 C4_39 1_555 1_555
H3_39 C7_39 1_555 1_555
C6_39 C7_39 1_555 1_555
Co3_11 O1_40 1_555 1_555
O1_40 C5_40 1_555 1_555
O6_22 Co3_11 1_555 1_555
C1_40 C2_40 1_555 1_555
C2_40 O6_22 1_555 1_555
C3_40 C1_40 1_555 1_555
H1_40 C3_40 1_555 1_555
C4_40 C3_40 1_555 1_555
H2_40 C4_40 1_555 1_555
C5_40 C1_40 1_555 1_555
O3_25 C2_40 1_555 1_555
C6_40 C5_40 1_555 1_555
C7_40 C4_40 1_555 1_555
H3_40 C7_40 1_555 1_555
C8_40 C6_40 1_555 1_555
O8_19 C8_40 1_555 1_555
O9_14 C8_40 1_555 1_555
H4_40 O1_40 1_555 1_555
Co3_9 O3_25 1_555 1_555
O7_19 Co3_11 1_555 1_555
C6_40 C7_40 1_555 1_555
Co3_6 O1_41 1_555 1_555
O1_41 C5_41 1_555 1_555
O6_3 Co3_6 1_555 1_555
C1_41 C2_41 1_555 1_555
C2_41 O6_3 1_555 1_555
C5_41 C1_41 1_555 1_555
O3_26 C2_41 1_555 1_555
O8_23 C8_41 1_555 1_555
H4_41 O1_41 1_555 1_555
H1_41 C3_41 1_555 1_555
C4_41 C3_41 1_555 1_555
H2_41 C4_41 1_555 1_555
C7_41 C4_41 1_555 1_555
H3_41 C7_41 1_555 1_555
C6_41 C7_41 1_555 1_555
Co3_12 O1_42 1_555 1_555
O1_42 C5_42 1_555 1_555
O6 Co3_12 1_555 1_555
C1_42 C2_42 1_555 1_555
C2_42 O6 1_555 1_555
C5_42 C1_42 1_555 1_555
O3_27 C2_42 1_555 1_555
O8_24 C8_42 1_555 1_555
H4_42 O1_42 1_555 1_555
H1_42 C3_42 1_555 1_555
C4_42 C3_42 1_555 1_555
H2_42 C4_42 1_555 1_555
C7_42 C4_42 1_555 1_555
H3_42 C7_42 1_555 1_555
C6_42 C7_42 1_555 1_555
H1_43 C3_43 1_555 1_555
C4_43 C3_43 1_555 1_555
H2_43 C4_43 1_555 1_555
C7_43 C4_43 1_555 1_555
H3_43 C7_43 1_555 1_555
C6_43 C7_43 1_555 1_555
O1_43 C5_43 1_555 1_555
C1_43 C2_43 1_555 1_555
C2_43 O6_18 1_555 1_555
C5_43 C1_43 1_555 1_555
O7_11 C2_43 1_555 1_555
O8_18 C8_43 1_555 1_555
H4_43 O1_43 1_555 1_555
Co3_9 O1_44 1_555 1_555
O1_44 C5_44 1_555 1_555
O6_16 Co3_9 1_555 1_555
C1_44 C2_44 1_555 1_555
C2_44 O6_16 1_555 1_555
C3_44 C1_44 1_555 1_555
H1_44 C3_44 1_555 1_555
C4_44 C3_44 1_555 1_555
H2_44 C4_44 1_555 1_555
C5_44 C1_44 1_555 1_555
O3_28 C2_44 1_555 1_555
C6_44 C5_44 1_555 1_555
C7_44 C4_44 1_555 1_555
H3_44 C7_44 1_555 1_555
C8_44 C6_44 1_555 1_555
O8_17 C8_44 1_555 1_555
O9_13 C8_44 1_555 1_555
H4_44 O1_44 1_555 1_555
Co3_7 O3_28 1_555 1_555
C6_44 C7_44 1_555 1_555
H1_45 C3_45 1_555 1_555
C4_45 C3_45 1_555 1_555
H2_45 C4_45 1_555 1_555
C7_45 C4_45 1_555 1_555
H3_45 C7_45 1_555 1_555
C6_45 C7_45 1_555 1_555
O1_45 C5_45 1_555 1_555
C1_45 C2_45 1_555 1_555
C2_45 O6_24 1_555 1_555
C5_45 C1_45 1_555 1_555
O7_12 C2_45 1_555 1_555
O8_16 C8_45 1_555 1_555
H4_45 O1_45 1_555 1_555
Co3_7 O1_46 1_555 1_555
O1_46 C5_46 1_555 1_555
O6_20 Co3_7 1_555 1_555
C1_46 C2_46 1_555 1_555
C2_46 O6_20 1_555 1_555
C3_46 C1_46 1_555 1_555
H1_46 C3_46 1_555 1_555
C4_46 C3_46 1_555 1_555
H2_46 C4_46 1_555 1_555
C5_46 C1_46 1_555 1_555
O7_19 C2_46 1_555 1_555
C6_46 C5_46 1_555 1_555
C7_46 C4_46 1_555 1_555
H3_46 C7_46 1_555 1_555
C8_46 C6_46 1_555 1_555
O8_21 C8_46 1_555 1_555
O9_15 C8_46 1_555 1_555
H4_46 O1_46 1_555 1_555
C6_46 C7_46 1_555 1_555
H1_47 C3_47 1_555 1_555
C4_47 C3_47 1_555 1_555
H2_47 C4_47 1_555 1_555
C7_47 C4_47 1_555 1_555
H3_47 C7_47 1_555 1_555
C6_47 C7_47 1_555 1_555
O1_47 C5_47 1_555 1_555
C1_47 C2_47 1_555 1_555
C2_47 O6_17 1_555 1_555
C5_47 C1_47 1_555 1_555
O7_13 C2_47 1_555 1_555
O8_20 C8_47 1_555 1_555
H4_47 O1_47 1_555 1_555
Co3_5 O1_48 1_555 1_555
O1_48 C5_48 1_555 1_555
O6_2 Co3_5 1_555 1_555
C1_48 C2_48 1_555 1_555
C2_48 O6_2 1_555 1_555
C5_48 C1_48 1_555 1_555
O7_20 C2_48 1_555 1_555
O8_22 C8_48 1_555 1_555
H4_48 O1_48 1_555 1_555
H1_48 C3_48 1_555 1_555
C4_48 C3_48 1_555 1_555
H2_48 C4_48 1_555 1_555
C7_48 C4_48 1_555 1_555
H3_48 C7_48 1_555 1_555
C6_48 C7_48 1_555 1_555

#END
