
###############################################################################
#
# This file contains modified crystal structure data generated from the
# MOF subset of the Cambridge Structural Database (CSD) v543 
# hosted by the Cambridge Crystallographic Data Centre (CCDC).
#
# This work is licensed under the Creative Commons
# Attribution-NonCommercial-ShareAlike 4.0 International License.
# To view a copy of this license, visit
# http://creativecommons.org/licenses/by-nc-sa/4.0/
# or send a letter to
# Creative Commons, PO Box 1866, Mountain View, CA 94042, USA.
#
# CIF created using the CSD Python API on 29 September 2022
# The structure has been converted into the P1 space group
# The structure has a 3D framework
# The original CSD entry NOQKUB is in the triclinic crystal system
# The framework has been calculated to contain at least 10.0% void space
# The void calculation uses a probe of radius 1.32A, grid spacing 0.4
#
###############################################################################

data_NOQKUB
_chemical_formula_moiety         '(C76 H50 Co10 N10 O8)n'
_symmetry_cell_setting           triclinic
_symmetry_space_group_name_H-M   'P 1'
_symmetry_Int_Tables_number      1
_space_group_name_Hall           'P 1'
loop_
_symmetry_equiv_pos_site_id
_symmetry_equiv_pos_as_xyz
1 x,y,z
_cell_length_a                   11.4712(6)
_cell_length_b                   11.6147(7)
_cell_length_c                   19.8781(10)
_cell_angle_alpha                81.156(5)
_cell_angle_beta                 74.921(5)
_cell_angle_gamma                65.987(6)
_cell_volume                     2332.49
loop_
_atom_site_label
_atom_site_type_symbol
_atom_site_fract_x
_atom_site_fract_y
_atom_site_fract_z
Co8 Co -0.0000 -0.0000 0.0000
Co8_2 Co -0.0000 -0.0000 1.0000
H50 H 0.0444 0.9792 0.1441
Co8_3 Co -0.0000 1.0000 0.0000
Co8_4 Co -0.0000 1.0000 1.0000
O10 O 0.0764(4) 0.1145(4) 0.0281(2)
H45 H 0.8075 0.0285 0.3629
Co8_5 Co 1.0000 -0.0000 0.0000
N13 N 0.1005(5) 0.0177(5) 0.8911(3)
Co8_6 Co 1.0000 -0.0000 1.0000
Co5 Co -0.0000 0.5000 -0.0000
Co1 Co 0.5000 0.5000 0.0000
N1 N 0.3221(5) 0.6487(4) 0.0129(2)
N2 N 0.1457(5) 0.8261(4) 0.0126(2)
N3 N 0.4547(5) 0.4260(5) 0.1069(3)
N5 N 0.0251(5) 0.5234(5) 0.1005(3)
C4 C 0.2656(6) 0.7709(5) 0.0249(3)
H1 H 0.3068 0.8146 0.0407
C6 C 0.4246(10) 0.4938(9) 0.1594(4)
H2 H 0.4109 0.5805 0.1502
C7 C 0.4112(11) 0.4478(10) 0.2279(4)
H3 H 0.3881 0.5028 0.2641
C8 C 0.4312(9) 0.3222(10) 0.2440(4)
C9 C 0.4620(9) 0.2503(8) 0.1868(4)
H4 H 0.4756 0.1635 0.1941
C10 C 0.4727(8) 0.3044(7) 0.1202(4)
H5 H 0.4937 0.2535 0.0823
C11 C 0.4151(12) 0.2688(12) 0.3168(4)
C12 C 0.4273(15) 0.3259(15) 0.3681(5)
H6 H 0.4487 0.3985 0.3565
C13 C 0.4085(15) 0.2787(15) 0.4381(5)
H7 H 0.4194 0.3187 0.4730
C14 C 0.3745(13) 0.1744(13) 0.4568(5)
C15 C 0.3654(14) 0.1185(12) 0.4045(5)
H8 H 0.3461 0.0448 0.4151
C16 C 0.3837(13) 0.1662(12) 0.3355(5)
H9 H 0.3739 0.1255 0.3006
C17 C 0.3433(11) 0.1336(11) 0.5320(4)
C18 C 0.3773(13) 0.1750(13) 0.5838(5)
H10 H 0.4275 0.2259 0.5703
C19 C 0.3407(11) 0.1447(11) 0.6535(5)
H11 H 0.3655 0.1747 0.6872
C20 C 0.2670(10) 0.0699(8) 0.6748(4)
C21 C 0.2391(13) 0.0258(10) 0.6237(4)
C22 C 0.2753(13) 0.0560(11) 0.5533(5)
H13 H 0.2531 0.0230 0.5198
C23 C 0.2135(9) 0.0472(7) 0.7492(4)
C24 C 0.2740(8) 0.0442(8) 0.8027(4)
H14 H 0.3551 0.0542 0.7913
C25 C 0.2168(7) 0.0268(7) 0.8719(4)
H15 H 0.2621 0.0212 0.9068
C26 C 0.0903(10) 0.0400(8) 0.7721(4)
H16 H 0.0415 0.0451 0.7389
C27 C 0.0394(8) 0.0255(8) 0.8422(4)
C28 C 0.1156(7) 0.4320(7) 0.1294(3)
H18 H 0.1808 0.3669 0.1010
C29 C 0.1203(8) 0.4263(8) 0.1979(4)
H19 H 0.1857 0.3569 0.2160
C30 C 0.0305(8) 0.5210(8) 0.2410(4)
C33 C 0.0272(8) 0.5173(8) 0.3161(4)
C34 C 0.0639(13) 0.4009(11) 0.3543(5)
H22 H 0.0967 0.3250 0.3308
C35 C 0.0531(14) 0.3948(12) 0.4253(5)
H23 H 0.0776 0.3148 0.4500
C36 C 0.0072(10) 0.5036(9) 0.4613(4)
C42 C 0.0611(9) 0.3802(7) 0.7914(4)
H28 H 0.1243 0.3107 0.7654
C43 C 0.0598(8) 0.3836(7) 0.8599(3)
H29 H 0.1233 0.3155 0.8801
C48 C 0.0159(15) 0.3893(12) 0.5769(5)
H32 H 0.0414 0.3134 0.5546
C49 C 0.0044(16) 0.3834(11) 0.6485(5)
H33 H 0.0202 0.3036 0.6732
O7 O 0.0480(4) 0.3130(4) 0.0326(2)
C54 C 0.0093(6) 0.2318(5) 0.0241(3)
Co5_2 Co -0.0000 0.5000 1.0000
O9 O 0.6079(4) 0.5805(4) 0.0311(2)
Co1_2 Co 0.5000 0.5000 1.0000
O1 O 0.3921(4) 0.4195(4) 0.9689(2)
O2 O 0.1950(4) 0.4548(4) 0.9550(2)
C1 C 0.2724(6) 0.4900(5) 0.9714(3)
C2 C 0.2318(5) 0.6215(5) 0.9921(3)
C3 C 0.1216(6) 0.7316(5) 0.9926(3)
N9 N 0.5453(5) 0.5740(5) 0.8931(3)
N10 N 0.8995(5) 0.9823(5) 0.1089(3)
C55 C 0.5754(10) 0.5062(9) 0.8406(4)
H35 H 0.5891 0.4195 0.8498
C56 C 0.5888(11) 0.5522(10) 0.7721(4)
H36 H 0.6119 0.4972 0.7359
C57 C 0.5688(9) 0.6778(10) 0.7560(4)
C58 C 0.5380(9) 0.7497(8) 0.8132(4)
H37 H 0.5244 0.8365 0.8059
C59 C 0.5273(8) 0.6956(7) 0.8798(4)
H38 H 0.5063 0.7465 0.9177
C60 C 0.5849(12) 0.7312(12) 0.6832(4)
C61 C 0.5727(15) 0.6741(15) 0.6319(5)
H39 H 0.5513 0.6015 0.6435
C62 C 0.5915(15) 0.7213(15) 0.5619(5)
H40 H 0.5806 0.6813 0.5270
C63 C 0.6255(13) 0.8256(13) 0.5432(5)
C64 C 0.6346(14) 0.8815(12) 0.5955(5)
H41 H 0.6539 0.9552 0.5849
C65 C 0.6163(13) 0.8338(12) 0.6645(5)
H42 H 0.6261 0.8745 0.6994
C66 C 0.6567(11) 0.8664(11) 0.4680(4)
C67 C 0.6227(13) 0.8250(13) 0.4162(5)
H43 H 0.5725 0.7741 0.4297
C68 C 0.6593(11) 0.8553(11) 0.3465(5)
H44 H 0.6345 0.8253 0.3128
C69 C 0.7330(10) 0.9301(8) 0.3252(4)
C70 C 0.7609(13) 0.9742(10) 0.3763(4)
C71 C 0.7247(13) 0.9440(11) 0.4467(5)
H46 H 0.7469 0.9770 0.4802
C72 C 0.7865(9) 0.9528(7) 0.2508(4)
C73 C 0.7260(8) 0.9558(8) 0.1973(4)
H47 H 0.6449 0.9458 0.2087
C74 C 0.7832(7) 0.9732(7) 0.1281(4)
H48 H 0.7379 0.9788 0.0932
C75 C 0.9097(10) 0.9600(8) 0.2279(4)
H49 H 0.9585 0.9549 0.2611
C76 C 0.9606(8) 0.9745(8) 0.1578(4)
Co8_7 Co 1.0000 1.0000 0.0000
N11 N 0.6779(5) 0.3513(4) 0.9871(2)
Co8_8 Co 1.0000 1.0000 1.0000
H12 H 0.1925 0.9715 0.6371
N12 N 0.8543(5) 0.1739(4) 0.9874(2)
Co5_3 Co 1.0000 0.5000 -0.0000
H17 H 0.9556 0.0208 0.8559
C31 C 0.9389(9) 0.6198(7) 0.2086(4)
H20 H 0.8757 0.6893 0.2346
C32 C 0.9402(8) 0.6164(7) 0.1401(3)
H21 H 0.8767 0.6845 0.1199
C37 C 0.9841(15) 0.6107(12) 0.4231(5)
H24 H 0.9586 0.6866 0.4454
C38 C 0.9956(16) 0.6166(11) 0.3515(5)
H25 H 0.9798 0.6964 0.3268
N6 N 0.9749(5) 0.4766(5) 0.8995(3)
C39 C 0.8844(7) 0.5680(7) 0.8706(3)
H26 H 0.8192 0.6331 0.8990
C40 C 0.8797(8) 0.5737(8) 0.8021(4)
H27 H 0.8143 0.6431 0.7840
C41 C 0.9695(8) 0.4790(8) 0.7590(4)
C44 C 0.9728(8) 0.4827(8) 0.6839(4)
C45 C 0.9361(13) 0.5991(11) 0.6457(5)
H30 H 0.9033 0.6750 0.6692
C46 C 0.9469(14) 0.6052(12) 0.5747(5)
H31 H 0.9224 0.6852 0.5500
C47 C 0.9928(10) 0.4964(9) 0.5387(4)
O6 O 0.8050(4) 0.5452(4) 0.0450(2)
C50 C 0.7276(6) 0.5100(5) 0.0286(3)
C51 C 0.7682(5) 0.3785(5) 0.0079(3)
C52 C 0.8784(6) 0.2684(5) 0.0074(3)
Co5_4 Co 1.0000 0.5000 1.0000
O3 O 0.9520(4) 0.6870(4) 0.9674(2)
O4 O 0.9236(4) 0.8855(4) 0.9719(2)
C5 C 0.9907(6) 0.7682(5) 0.9759(3)
C53 C 0.7344(6) 0.2291(5) 0.9751(3)
H34 H 0.6932 0.1854 0.9593
loop_
_geom_bond_atom_site_label_1
_geom_bond_atom_site_label_2
_geom_bond_site_symmetry_1
_geom_bond_site_symmetry_2
O10 Co8 1_555 1_555
N13 Co8_2 1_555 1_555
Co1 N1 1_555 1_555
Co5 N5 1_555 1_555
Co8_3 N2 1_555 1_555
N3 Co1 1_555 1_555
N13 C25 1_555 1_555
N5 C28 1_555 1_555
C4 N1 1_555 1_555
H1 C4 1_555 1_555
C6 N3 1_555 1_555
H2 C6 1_555 1_555
C7 C6 1_555 1_555
H3 C7 1_555 1_555
C8 C7 1_555 1_555
C9 C8 1_555 1_555
H4 C9 1_555 1_555
C10 N3 1_555 1_555
H5 C10 1_555 1_555
C11 C8 1_555 1_555
C12 C11 1_555 1_555
H6 C12 1_555 1_555
C13 C12 1_555 1_555
H7 C13 1_555 1_555
C14 C13 1_555 1_555
C15 C14 1_555 1_555
H8 C15 1_555 1_555
C16 C11 1_555 1_555
H9 C16 1_555 1_555
C17 C14 1_555 1_555
C18 C17 1_555 1_555
H10 C18 1_555 1_555
C19 C18 1_555 1_555
H11 C19 1_555 1_555
C20 C19 1_555 1_555
C21 C20 1_555 1_555
C22 C17 1_555 1_555
H13 C22 1_555 1_555
C23 C20 1_555 1_555
C24 C23 1_555 1_555
H14 C24 1_555 1_555
C25 C24 1_555 1_555
H15 C25 1_555 1_555
C26 C23 1_555 1_555
H16 C26 1_555 1_555
C27 N13 1_555 1_555
C28 H18 1_555 1_555
C29 C28 1_555 1_555
H19 C29 1_555 1_555
C30 C29 1_555 1_555
C33 C30 1_555 1_555
C34 C33 1_555 1_555
H22 C34 1_555 1_555
C35 C34 1_555 1_555
H23 C35 1_555 1_555
C36 C35 1_555 1_555
H28 C42 1_555 1_555
H29 C43 1_555 1_555
H32 C48 1_555 1_555
H33 C49 1_555 1_555
O7 Co5 1_555 1_555
O10 C54 1_555 1_555
C54 O7 1_555 1_555
O9 Co1 1_555 1_555
N2 C4 1_555 1_555
C9 C10 1_555 1_555
C15 C16 1_555 1_555
C21 C22 1_555 1_555
C26 C27 1_555 1_555
C42 C43 1_555 1_555
C48 C49 1_555 1_555
O1 Co1_2 1_555 1_555
O2 Co5_2 1_555 1_555
C1 O1 1_555 1_555
C2 C1 1_555 1_555
C3 C2 1_555 1_555
N9 Co1_2 1_555 1_555
N10 C74 1_555 1_555
C55 N9 1_555 1_555
H35 C55 1_555 1_555
C56 C55 1_555 1_555
H36 C56 1_555 1_555
C57 C56 1_555 1_555
C58 C57 1_555 1_555
H37 C58 1_555 1_555
C59 N9 1_555 1_555
H38 C59 1_555 1_555
C60 C57 1_555 1_555
C61 C60 1_555 1_555
H39 C61 1_555 1_555
C62 C61 1_555 1_555
H40 C62 1_555 1_555
C63 C62 1_555 1_555
C64 C63 1_555 1_555
H41 C64 1_555 1_555
C65 C60 1_555 1_555
H42 C65 1_555 1_555
C66 C63 1_555 1_555
C67 C66 1_555 1_555
H43 C67 1_555 1_555
C68 C67 1_555 1_555
H44 C68 1_555 1_555
C69 C68 1_555 1_555
C70 C69 1_555 1_555
C71 C66 1_555 1_555
H46 C71 1_555 1_555
C72 C69 1_555 1_555
C73 C72 1_555 1_555
H47 C73 1_555 1_555
C74 C73 1_555 1_555
H48 C74 1_555 1_555
C75 C72 1_555 1_555
H49 C75 1_555 1_555
C76 N10 1_555 1_555
Co8_7 N10 1_555 1_555
N11 Co1_2 1_555 1_555
O2 C1 1_555 1_555
C58 C59 1_555 1_555
C64 C65 1_555 1_555
C70 C71 1_555 1_555
C75 C76 1_555 1_555
N12 Co8_6 1_555 1_555
H20 C31 1_555 1_555
H21 C32 1_555 1_555
H24 C37 1_555 1_555
H25 C38 1_555 1_555
N6 C39 1_555 1_555
C39 H26 1_555 1_555
C40 C39 1_555 1_555
H27 C40 1_555 1_555
C41 C40 1_555 1_555
C44 C41 1_555 1_555
C45 C44 1_555 1_555
H30 C45 1_555 1_555
C46 C45 1_555 1_555
H31 C46 1_555 1_555
O9 C50 1_555 1_555
O6 Co5_3 1_555 1_555
C50 O6 1_555 1_555
C51 C50 1_555 1_555
C52 C51 1_555 1_555
Co5_4 N6 1_555 1_555
C31 C32 1_555 1_555
C37 C38 1_555 1_555
C46 C47 1_555 1_555
O3 Co5_4 1_555 1_555
O4 Co8_8 1_555 1_555
C5 O3 1_555 1_555
C53 N11 1_555 1_555
H34 C53 1_555 1_555
O4 C5 1_555 1_555
N12 C53 1_555 1_555

#END
