
###############################################################################
#
# This file contains modified crystal structure data generated from the
# MOF subset of the Cambridge Structural Database (CSD) v543 
# hosted by the Cambridge Crystallographic Data Centre (CCDC).
#
# This work is licensed under the Creative Commons
# Attribution-NonCommercial-ShareAlike 4.0 International License.
# To view a copy of this license, visit
# http://creativecommons.org/licenses/by-nc-sa/4.0/
# or send a letter to
# Creative Commons, PO Box 1866, Mountain View, CA 94042, USA.
#
# CIF created using the CSD Python API on 29 September 2022
# The structure has been converted into the P1 space group
# The structure has a 3D framework
# The original CSD entry NOQKOV is in the triclinic crystal system
# The framework has been calculated to contain at least 10.0% void space
# The void calculation uses a probe of radius 1.32A, grid spacing 0.4
#
###############################################################################

data_NOQKOV
_chemical_formula_moiety         '(C58 H38 Co9 N10 O8)n'
_symmetry_cell_setting           triclinic
_symmetry_space_group_name_H-M   'P 1'
_symmetry_Int_Tables_number      1
_space_group_name_Hall           'P 1'
loop_
_symmetry_equiv_pos_site_id
_symmetry_equiv_pos_as_xyz
1 x,y,z
_cell_length_a                   11.5618(8)
_cell_length_b                   11.8493(8)
_cell_length_c                   15.7206(12)
_cell_angle_alpha                76.325(2)
_cell_angle_beta                 71.246(2)
_cell_angle_gamma                65.330(2)
_cell_volume                     1840.1
loop_
_atom_site_label
_atom_site_type_symbol
_atom_site_fract_x
_atom_site_fract_y
_atom_site_fract_z
Co8 Co 0.0000 0.5000 0.0000
Co2 Co 0.0000 0.0000 0.0000
N4 N 0.0160(4) 0.5041(4) 0.1324(3)
O3 O 0.0550(3) 0.3061(3) 0.0321(2)
O4 O 0.0742(3) 0.1098(3) 0.0389(2)
C4 C 0.0103(4) 0.2284(4) 0.0279(3)
C24 C 0.0131(5) 0.5017(5) 0.3131(3)
C25 C 0.0988(5) 0.4025(5) 0.2638(3)
H16 H 0.1582 0.3312 0.2911
C26 C 0.0979(5) 0.4070(5) 0.1757(3)
H17 H 0.1582 0.3379 0.1436
C27 C 0.0076(5) 0.5002(5) 0.4089(3)
C29 C 0.0264(5) 0.3894(5) 0.4684(3)
H19 H 0.0459 0.3135 0.4467
C30 C 0.0655(5) 0.4006(5) 0.8201(3)
H20 H 0.1240 0.3304 0.8489
C31 C 0.0705(5) 0.3973(5) 0.7320(3)
H21 H 0.1308 0.3263 0.7021
C36 C 0.0168(6) 0.3891(5) 0.5588(4)
H24 H 0.0267 0.3137 0.5990
Co8_2 Co 0.0000 0.5000 1.0000
Co2_2 Co 0.0000 0.0000 1.0000
N14 N 0.1170(4) 0.0243(4) 0.8611(3)
O9 O 0.1946(3) 0.4681(3) 0.9422(2)
Co2_3 Co -0.0000 1.0000 0.0000
H2 H 0.0124 0.9787 0.1951
N11 N 0.1399(4) 0.8231(4) 0.0199(3)
Co2_4 Co -0.0000 1.0000 1.0000
Co8_3 Co 1.0000 0.5000 0.0000
Co1 Co 0.5000 0.5000 0.0000
Co2_5 Co 1.0000 0.0000 0.0000
O1 O 0.8054(3) 0.5319(3) 0.0578(2)
O2 O 0.6105(3) 0.5746(3) 0.0371(2)
C1 C 0.8817(4) 0.2667(4) 0.0065(3)
C2 C 0.7708(4) 0.3761(4) 0.0065(3)
C5 C 0.7290(4) 0.5030(4) 0.0350(3)
C22 C 0.9345(5) 0.5994(5) 0.1799(3)
H14 H 0.8760 0.6696 0.1511
C23 C 0.9295(5) 0.6027(5) 0.2680(3)
H15 H 0.8692 0.6737 0.2979
C28 C 0.9832(6) 0.6109(5) 0.4412(4)
H18 H 0.9733 0.6863 0.4010
N6 N 0.9840(4) 0.4959(4) 0.8676(3)
C32 C 0.9869(5) 0.4983(5) 0.6869(3)
C33 C 0.9012(5) 0.5975(5) 0.7362(3)
H22 H 0.8418 0.6688 0.7089
C34 C 0.9021(5) 0.5930(5) 0.8243(3)
H23 H 0.8418 0.6621 0.8564
C35 C 0.9924(5) 0.4998(5) 0.5911(3)
C37 C 0.9736(5) 0.6106(5) 0.5316(3)
H25 H 0.9541 0.6865 0.5533
N7 N 0.4533(4) 0.4110(4) 0.1366(3)
C38 C 0.0684(5) 0.0326(5) 0.7922(4)
C39 C 0.1322(6) 0.0569(6) 0.7032(3)
H27 H 0.0952 0.0605 0.6563
C40 C 0.2484(5) 0.0762(5) 0.6812(3)
C41 C 0.2984(5) 0.0662(5) 0.7532(3)
H28 H 0.3791 0.0771 0.7419
C42 C 0.2317(5) 0.0406(5) 0.8408(3)
H29 H 0.2682 0.0341 0.8888
C43 C 0.3114(5) 0.1146(5) 0.5846(3)
C44 C 0.2955(6) 0.0770(5) 0.5139(4)
H30 H 0.2575 0.0157 0.5260
C45 C 0.3340(6) 0.1273(5) 0.4253(4)
H31 H 0.3226 0.0999 0.3775
C46 C 0.3889(5) 0.2171(6) 0.4057(3)
C47 C 0.4138(6) 0.2485(6) 0.4770(4)
H32 H 0.4584 0.3044 0.4647
C48 C 0.3734(6) 0.1982(6) 0.5654(4)
H33 H 0.3887 0.2217 0.6133
C49 C 0.4155(5) 0.2809(5) 0.3129(3)
C50 C 0.4474(5) 0.2241(5) 0.2361(3)
H34 H 0.4568 0.1392 0.2422
C51 C 0.4653(5) 0.2895(5) 0.1519(3)
H35 H 0.4874 0.2474 0.1011
C52 C 0.4219(6) 0.4667(6) 0.2106(4)
H36 H 0.4121 0.5519 0.2026
C53 C 0.4035(6) 0.4068(6) 0.2963(4)
H37 H 0.3820 0.4509 0.3459
N9 N 0.3178(3) 0.6455(4) 0.0208(3)
C56 C 0.2598(4) 0.7653(4) 0.0363(3)
H38 H 0.2995 0.8059 0.0570
Co8_4 Co 1.0000 0.5000 1.0000
Co1_2 Co 0.5000 0.5000 1.0000
Co2_6 Co 1.0000 0.0000 1.0000
N1 N 0.6822(3) 0.3545(4) 0.9792(3)
N2 N 0.8601(4) 0.1769(4) 0.9801(3)
C3 C 0.7402(4) 0.2347(4) 0.9637(3)
H1 H 0.7005 0.1941 0.9430
O6 O 0.3895(3) 0.4254(3) 0.9629(2)
C54 C 0.1183(4) 0.7333(4) 0.9935(3)
C55 C 0.2292(4) 0.6239(4) 0.9935(3)
C58 C 0.2710(4) 0.4970(4) 0.9650(3)
N12 N 0.5467(4) 0.5890(4) 0.8634(3)
O10 O 0.9450(3) 0.6939(3) 0.9679(2)
Co2_7 Co 1.0000 1.0000 0.0000
N5 N 0.8830(4) 0.9757(4) 0.1389(3)
C6 C 0.9316(5) 0.9674(5) 0.2078(4)
C7 C 0.8678(6) 0.9431(6) 0.2968(3)
H3 H 0.9048 0.9395 0.3437
C8 C 0.7516(5) 0.9238(5) 0.3188(3)
C9 C 0.7016(5) 0.9338(5) 0.2468(3)
H4 H 0.6209 0.9229 0.2581
C10 C 0.7683(5) 0.9594(5) 0.1592(3)
H5 H 0.7318 0.9659 0.1112
C11 C 0.6886(5) 0.8854(5) 0.4154(3)
C12 C 0.7045(6) 0.9230(5) 0.4861(4)
H6 H 0.7425 0.9843 0.4740
C13 C 0.6660(6) 0.8727(5) 0.5747(4)
H7 H 0.6774 0.9001 0.6225
C14 C 0.6111(5) 0.7829(6) 0.5943(3)
C15 C 0.5862(6) 0.7515(6) 0.5230(4)
H8 H 0.5416 0.6956 0.5353
C16 C 0.6266(6) 0.8018(6) 0.4346(4)
H9 H 0.6113 0.7783 0.3867
C17 C 0.5845(5) 0.7191(5) 0.6871(3)
C18 C 0.5526(5) 0.7759(5) 0.7639(3)
H10 H 0.5432 0.8608 0.7578
C19 C 0.5347(5) 0.7105(5) 0.8481(3)
H11 H 0.5126 0.7526 0.8989
C20 C 0.5781(6) 0.5333(6) 0.7894(4)
H12 H 0.5879 0.4481 0.7974
C21 C 0.5965(6) 0.5932(6) 0.7037(4)
H13 H 0.6180 0.5491 0.6541
Co2_8 Co 1.0000 1.0000 1.0000
O11 O 0.9258(3) 0.8902(3) 0.9611(2)
H26 H 0.9876 0.0213 0.8049
C57 C 0.9897(4) 0.7716(4) 0.9721(3)
loop_
_geom_bond_atom_site_label_1
_geom_bond_atom_site_label_2
_geom_bond_site_symmetry_1
_geom_bond_site_symmetry_2
Co8 N4 1_555 1_555
O3 Co8 1_555 1_555
O4 Co2 1_555 1_555
C4 O3 1_555 1_555
C25 C24 1_555 1_555
H16 C25 1_555 1_555
C26 N4 1_555 1_555
H17 C26 1_555 1_555
C27 C24 1_555 1_555
C29 C27 1_555 1_555
H19 C29 1_555 1_555
C30 H20 1_555 1_555
C31 C30 1_555 1_555
H21 C31 1_555 1_555
C36 C29 1_555 1_555
H24 C36 1_555 1_555
O4 C4 1_555 1_555
C25 C26 1_555 1_555
N14 Co2_2 1_555 1_555
O9 Co8_2 1_555 1_555
N11 Co2_3 1_555 1_555
O1 Co8_3 1_555 1_555
O2 Co1 1_555 1_555
C1 C2 1_555 1_555
C2 C5 1_555 1_555
C5 O1 1_555 1_555
C22 H14 1_555 1_555
C23 C22 1_555 1_555
H15 C23 1_555 1_555
H18 C28 1_555 1_555
C33 C32 1_555 1_555
H22 C33 1_555 1_555
C34 N6 1_555 1_555
H23 C34 1_555 1_555
C35 C32 1_555 1_555
C37 C28 1_555 1_555
H25 C37 1_555 1_555
N7 Co1 1_555 1_555
N14 C38 1_555 1_555
C39 C38 1_555 1_555
H27 C39 1_555 1_555
C40 C39 1_555 1_555
C41 C40 1_555 1_555
H28 C41 1_555 1_555
C42 N14 1_555 1_555
H29 C42 1_555 1_555
C43 C40 1_555 1_555
C44 C43 1_555 1_555
H30 C44 1_555 1_555
C45 C44 1_555 1_555
H31 C45 1_555 1_555
C46 C45 1_555 1_555
C47 C46 1_555 1_555
H32 C47 1_555 1_555
C48 C43 1_555 1_555
H33 C48 1_555 1_555
C49 C46 1_555 1_555
C50 C49 1_555 1_555
H34 C50 1_555 1_555
C51 N7 1_555 1_555
H35 C51 1_555 1_555
C52 N7 1_555 1_555
H36 C52 1_555 1_555
C53 C49 1_555 1_555
H37 C53 1_555 1_555
N9 Co1 1_555 1_555
C56 N9 1_555 1_555
H38 C56 1_555 1_555
Co8_4 N6 1_555 1_555
O2 C5 1_555 1_555
C33 C34 1_555 1_555
C35 C37 1_555 1_555
C41 C42 1_555 1_555
C47 C48 1_555 1_555
C50 C51 1_555 1_555
C52 C53 1_555 1_555
N11 C56 1_555 1_555
Co1_2 N1 1_555 1_555
Co2_6 N2 1_555 1_555
C3 N1 1_555 1_555
H1 C3 1_555 1_555
O9 C58 1_555 1_555
O6 Co1_2 1_555 1_555
C54 C55 1_555 1_555
C58 O6 1_555 1_555
N12 Co1_2 1_555 1_555
O10 Co8_4 1_555 1_555
N2 C3 1_555 1_555
C55 C58 1_555 1_555
N12 C19 1_555 1_555
N5 Co2_7 1_555 1_555
C6 N5 1_555 1_555
C7 C6 1_555 1_555
H3 C7 1_555 1_555
C8 C7 1_555 1_555
C9 C8 1_555 1_555
H4 C9 1_555 1_555
C10 N5 1_555 1_555
H5 C10 1_555 1_555
C11 C8 1_555 1_555
C12 C11 1_555 1_555
H6 C12 1_555 1_555
C13 C12 1_555 1_555
H7 C13 1_555 1_555
C14 C13 1_555 1_555
C15 C14 1_555 1_555
H8 C15 1_555 1_555
C16 C11 1_555 1_555
H9 C16 1_555 1_555
C17 C14 1_555 1_555
C18 C17 1_555 1_555
H10 C18 1_555 1_555
C19 C18 1_555 1_555
H11 C19 1_555 1_555
C20 N12 1_555 1_555
H12 C20 1_555 1_555
C21 C17 1_555 1_555
H13 C21 1_555 1_555
C9 C10 1_555 1_555
C15 C16 1_555 1_555
C20 C21 1_555 1_555
O11 Co2_8 1_555 1_555
O10 C57 1_555 1_555
O11 C57 1_555 1_555

#END
