
###############################################################################
#
# This file contains modified crystal structure data generated from the
# MOF subset of the Cambridge Structural Database (CSD) v543 
# hosted by the Cambridge Crystallographic Data Centre (CCDC).
#
# This work is licensed under the Creative Commons
# Attribution-NonCommercial-ShareAlike 4.0 International License.
# To view a copy of this license, visit
# http://creativecommons.org/licenses/by-nc-sa/4.0/
# or send a letter to
# Creative Commons, PO Box 1866, Mountain View, CA 94042, USA.
#
# CIF created using the CSD Python API on 29 September 2022
# The structure has been converted into the P1 space group
# The structure has a 3D framework
# The original CSD entry NOQLOV01 is in the orthorhombic crystal system
# The framework has been calculated to contain at least 10.0% void space
# The void calculation uses a probe of radius 1.32A, grid spacing 0.4
# The framework is charged, counterions have been retained in the structure
# H atom positions have been added when not included in the experimental data
#
###############################################################################

data_NOQLOV01
_chemical_formula_moiety         '(C80 H128 In16 N16 O118)n'
_symmetry_cell_setting           triclinic
_symmetry_space_group_name_H-M   'P 1'
_symmetry_Int_Tables_number      1
_space_group_name_Hall           'P 1'
loop_
_symmetry_equiv_pos_site_id
_symmetry_equiv_pos_as_xyz
1 x,y,z
_cell_length_a                   15.856(3)
_cell_length_b                   31.183(6)
_cell_length_c                   8.6688(17)
_cell_angle_alpha                90
_cell_angle_beta                 90
_cell_angle_gamma                90
_cell_volume                     4286.18
loop_
_atom_site_label
_atom_site_type_symbol
_atom_site_fract_x
_atom_site_fract_y
_atom_site_fract_z
In1 In 0.486415(13) 0.185235(6) 0.23086(5)
O1 O 0.60109(15) 0.09162(7) 0.5195(3)
O2 O 0.43553(16) 0.27899(9) 0.5670(4)
O3 O 0.60160(16) 0.26872(9) 0.5737(4)
O4 O 0.70876(16) 0.10832(8) 0.2900(3)
C1 C 0.5617(2) 0.24562(10) 0.4810(7)
C2 C 0.5762(2) 0.11682(10) 0.4166(4)
C3 C 0.4669(2) 0.25129(10) 0.4782(7)
C4 C 0.6372(2) 0.12575(10) 0.2835(4)
O5 O 0.50484(15) 0.13485(8) 0.4108(3)
O6 O 0.61198(15) 0.14958(8) 0.1791(3)
O7 O 0.42348(16) 0.22755(8) 0.3924(3)
O8 O 0.59070(16) 0.21847(9) 0.3881(4)
In2 In 0.736415(13) 0.064765(6) 0.48086(5)
In3 In 0.513585(13) 0.314765(6) 0.73086(5)
O9 O 0.35109(15) 0.15838(7) 0.2695(3)
O10 O 0.56447(16) 0.22101(9) 0.0670(4)
O11 O 0.39840(16) 0.23128(9) 0.0737(4)
O12 O 0.45876(16) 0.14168(8) 0.0400(3)
In1_2 In 0.513585(13) 0.814765(6) 0.23086(5)
O1_2 O 0.39891(15) 0.90838(7) 0.5195(3)
O2_2 O 0.56447(16) 0.72101(9) 0.5670(4)
O3_2 O 0.39840(16) 0.73128(9) 0.5737(4)
O4_2 O 0.29124(16) 0.89168(8) 0.2900(3)
C1_2 C 0.4383(2) 0.75438(10) 0.4810(7)
C2_2 C 0.4238(2) 0.88318(10) 0.4166(4)
C3_2 C 0.5331(2) 0.74871(10) 0.4782(7)
C4_2 C 0.3628(2) 0.87425(10) 0.2835(4)
O5_2 O 0.49516(15) 0.86515(8) 0.4108(3)
O6_2 O 0.38802(15) 0.85042(8) 0.1791(3)
O7_2 O 0.57652(16) 0.77245(8) 0.3924(3)
O8_2 O 0.40930(16) 0.78153(9) 0.3881(4)
In2_2 In 0.263585(13) 0.935235(6) 0.48086(5)
In3_2 In 0.486415(13) 0.685235(6) 0.73086(5)
O9_2 O 0.64891(15) 0.84162(7) 0.2695(3)
O10_2 O 0.43553(16) 0.77899(9) 0.0670(4)
O11_2 O 0.60160(16) 0.76872(9) 0.0737(4)
O12_2 O 0.54124(16) 0.85832(8) 0.0400(3)
O1_3 O 0.85109(15) 0.15838(7) 0.7695(3)
O4_3 O 0.95876(16) 0.14168(8) 0.5400(3)
C1_3 C 0.8117(2) 0.00438(10) 0.7310(7)
C2_3 C 0.8262(2) 0.13318(10) 0.6666(4)
C4_3 C 0.8872(2) 0.12425(10) 0.5335(4)
O5_3 O 0.75484(15) 0.11515(8) 0.6608(3)
O6_3 O 0.86198(15) 0.10042(8) 0.4291(3)
O7_3 O 0.67348(16) 0.02245(8) 0.6424(3)
O8_3 O 0.84070(16) 0.03153(9) 0.6381(4)
In2_3 In 0.986415(13) 0.185235(6) 0.73086(5)
O10_3 O 0.81447(16) 0.02899(9) 0.3170(4)
O11_3 O 0.64840(16) 0.01872(9) 0.3237(4)
O2_3 O 0.68553(16) 0.97101(9) 0.8170(4)
O3_3 O 0.85160(16) 0.98128(9) 0.8237(4)
C3_3 C 0.7169(2) 0.99871(10) 0.7282(7)
In3_3 In 0.763585(13) 0.935235(6) 0.98086(5)
In1_3 In 0.763585(13) 0.435235(6) 0.48086(5)
O1_4 O 0.64891(15) 0.34162(7) 0.7695(3)
O2_4 O 0.81447(16) 0.52899(9) 0.8170(4)
O3_4 O 0.64840(16) 0.51872(9) 0.8237(4)
O4_4 O 0.54124(16) 0.35832(8) 0.5400(3)
C1_4 C 0.6883(2) 0.49562(10) 0.7310(7)
C2_4 C 0.6738(2) 0.36682(10) 0.6666(4)
C3_4 C 0.7831(2) 0.50129(10) 0.7282(7)
C4_4 C 0.6128(2) 0.37575(10) 0.5335(4)
O5_4 O 0.74516(15) 0.38485(8) 0.6608(3)
O6_4 O 0.63802(15) 0.39958(8) 0.4291(3)
O7_4 O 0.82652(16) 0.47755(8) 0.6424(3)
O8_4 O 0.65930(16) 0.46847(9) 0.6381(4)
In3_4 In 0.736415(13) 0.564765(6) 0.98086(5)
O9_3 O 0.89891(15) 0.40838(7) 0.5195(3)
O10_4 O 0.68553(16) 0.47101(9) 0.3170(4)
O11_4 O 0.85160(16) 0.48128(9) 0.3237(4)
O12_3 O 0.79124(16) 0.39168(8) 0.2900(3)
O1_5 O 0.60109(15) 0.59162(7) 0.0195(3)
O4_5 O 0.70876(16) 0.60832(8) 0.7900(3)
C1_5 C 0.5617(2) 0.74562(10) 0.9810(7)
C2_5 C 0.5762(2) 0.61682(10) 0.9166(4)
C3_5 C 0.4669(2) 0.75129(10) 0.9782(7)
C4_5 C 0.6372(2) 0.62575(10) 0.7835(4)
O5_5 O 0.50484(15) 0.63485(8) 0.9108(3)
O6_5 O 0.61198(15) 0.64958(8) 0.6791(3)
O7_5 O 0.42348(16) 0.72755(8) 0.8924(3)
O8_5 O 0.59070(16) 0.71847(9) 0.8881(4)
O9_4 O 0.35109(15) 0.65838(7) 0.7695(3)
O12_4 O 0.45876(16) 0.64168(8) 0.5400(3)
O1_6 O 0.39891(15) 0.40838(7) 0.0195(3)
O4_6 O 0.29124(16) 0.39168(8) 0.7900(3)
C1_6 C 0.4383(2) 0.25438(10) 0.9810(7)
C2_6 C 0.4238(2) 0.38318(10) 0.9166(4)
C3_6 C 0.5331(2) 0.24871(10) 0.9782(7)
C4_6 C 0.3628(2) 0.37425(10) 0.7835(4)
O5_6 O 0.49516(15) 0.36515(8) 0.9108(3)
O6_6 O 0.38802(15) 0.35042(8) 0.6791(3)
O7_6 O 0.57652(16) 0.27245(8) 0.8924(3)
O8_6 O 0.40930(16) 0.28153(9) 0.8881(4)
In2_4 In 0.263585(13) 0.435235(6) 0.98086(5)
O1_7 O 0.85109(15) 0.65838(7) 0.2695(3)
O4_7 O 0.95876(16) 0.64168(8) 0.0400(3)
C1_7 C 0.8117(2) 0.50438(10) 0.2310(7)
C2_7 C 0.8262(2) 0.63318(10) 0.1666(4)
C3_7 C 0.7169(2) 0.49871(10) 0.2282(7)
C4_7 C 0.8872(2) 0.62425(10) 0.0335(4)
O5_7 O 0.75484(15) 0.61515(8) 0.1608(3)
O7_7 O 0.67348(16) 0.52245(8) 0.1424(3)
O8_7 O 0.84070(16) 0.53153(9) 0.1381(4)
In2_5 In 0.986415(13) 0.685235(6) 0.23086(5)
O6_7 O 0.86198(15) 0.60042(8) 0.9291(3)
C3_8 C 0.7831(2) 0.00129(10) 0.2282(7)
C1_8 C 0.6883(2) 0.99562(10) 0.2310(7)
C2_8 C 0.6738(2) 0.86682(10) 0.1666(4)
C4_8 C 0.6128(2) 0.87575(10) 0.0335(4)
O5_8 O 0.74516(15) 0.88485(8) 0.1608(3)
O7_8 O 0.82652(16) 0.97755(8) 0.1424(3)
O8_8 O 0.65930(16) 0.96847(9) 0.1381(4)
O9_5 O 0.89891(15) 0.90838(7) 0.0195(3)
O6_8 O 0.63802(15) 0.89958(8) 0.9291(3)
O12_5 O 0.79124(16) 0.89168(8) 0.7900(3)
O1_8 O 0.10109(15) 0.09162(7) 0.0195(3)
O3_5 O 0.10160(16) 0.26872(9) 0.0737(4)
In3_5 In 0.013585(13) 0.314765(6) 0.23086(5)
O4_8 O 0.20876(16) 0.10832(8) 0.7900(3)
C1_9 C 0.0617(2) 0.24562(10) 0.9810(7)
C2_9 C 0.0762(2) 0.11682(10) 0.9166(4)
C4_9 C 0.1372(2) 0.12575(10) 0.7835(4)
O5_9 O 0.00484(15) 0.13485(8) 0.9108(3)
O6_9 O 0.11198(15) 0.14958(8) 0.6791(3)
O8_9 O 0.09070(16) 0.21847(9) 0.8881(4)
In2_6 In 0.236415(13) 0.064765(6) 0.98086(5)
O10_5 O 0.06447(16) 0.22101(9) 0.5670(4)
O2_5 O 0.93553(16) 0.27899(9) 0.0670(4)
C3_9 C 0.9669(2) 0.25129(10) 0.9782(7)
O7_9 O 0.92348(16) 0.22755(8) 0.8924(3)
O11_5 O 0.89840(16) 0.23128(9) 0.5737(4)
O2_6 O 0.06447(16) 0.72101(9) 0.0670(4)
In1_4 In 0.013585(13) 0.814765(6) 0.73086(5)
C3_10 C 0.0331(2) 0.74871(10) 0.9782(7)
O7_10 O 0.07652(16) 0.77245(8) 0.8924(3)
O9_6 O 0.14891(15) 0.84162(7) 0.7695(3)
O11_6 O 0.10160(16) 0.76872(9) 0.5737(4)
O12_6 O 0.04124(16) 0.85832(8) 0.5400(3)
O3_6 O 0.89840(16) 0.73128(9) 0.0737(4)
C1_10 C 0.9383(2) 0.75438(10) 0.9810(7)
C2_10 C 0.9238(2) 0.88318(10) 0.9166(4)
C4_10 C 0.8628(2) 0.87425(10) 0.7835(4)
O5_10 O 0.99516(15) 0.86515(8) 0.9108(3)
O6_10 O 0.88802(15) 0.85042(8) 0.6791(3)
O8_10 O 0.90930(16) 0.78153(9) 0.8881(4)
O10_6 O 0.93553(16) 0.77899(9) 0.5670(4)
C1_11 C 0.3117(2) 0.00438(10) 0.2310(7)
C2_11 C 0.3262(2) 0.13318(10) 0.1666(4)
C4_11 C 0.3872(2) 0.12425(10) 0.0335(4)
O5_11 O 0.25484(15) 0.11515(8) 0.1608(3)
O7_11 O 0.17348(16) 0.02245(8) 0.1424(3)
O8_11 O 0.34070(16) 0.03153(9) 0.1381(4)
O6_11 O 0.36198(15) 0.10042(8) 0.9291(3)
O10_7 O 0.31447(16) 0.02899(9) 0.8170(4)
O11_7 O 0.14840(16) 0.01872(9) 0.8237(4)
O2_7 O 0.18553(16) 0.97101(9) 0.3170(4)
O3_7 O 0.35160(16) 0.98128(9) 0.3237(4)
C3_11 C 0.2169(2) 0.99871(10) 0.2282(7)
O1_9 O 0.14891(15) 0.34162(7) 0.2695(3)
O2_8 O 0.31447(16) 0.52899(9) 0.3170(4)
O3_8 O 0.14840(16) 0.51872(9) 0.3237(4)
O4_9 O 0.04124(16) 0.35832(8) 0.0400(3)
C1_12 C 0.1883(2) 0.49562(10) 0.2310(7)
C2_12 C 0.1738(2) 0.36682(10) 0.1666(4)
C3_12 C 0.2831(2) 0.50129(10) 0.2282(7)
C4_12 C 0.1128(2) 0.37575(10) 0.0335(4)
O5_12 O 0.24516(15) 0.38485(8) 0.1608(3)
O7_12 O 0.32652(16) 0.47755(8) 0.1424(3)
O8_12 O 0.15930(16) 0.46847(9) 0.1381(4)
In3_6 In 0.236415(13) 0.564765(6) 0.48086(5)
O6_12 O 0.13802(15) 0.39958(8) 0.9291(3)
O10_8 O 0.18553(16) 0.47101(9) 0.8170(4)
O11_8 O 0.35160(16) 0.48128(9) 0.8237(4)
O1_10 O 0.10109(15) 0.59162(7) 0.5195(3)
O4_10 O 0.20876(16) 0.60832(8) 0.2900(3)
C1_13 C 0.0617(2) 0.74562(10) 0.4810(7)
C2_13 C 0.0762(2) 0.61682(10) 0.4166(4)
C4_13 C 0.1372(2) 0.62575(10) 0.2835(4)
O5_13 O 0.00484(15) 0.63485(8) 0.4108(3)
O6_13 O 0.11198(15) 0.64958(8) 0.1791(3)
O8_13 O 0.09070(16) 0.71847(9) 0.3881(4)
C3_13 C 0.9669(2) 0.75129(10) 0.4782(7)
O7_13 O 0.92348(16) 0.72755(8) 0.3924(3)
C3_14 C 0.0331(2) 0.24871(10) 0.4782(7)
O7_14 O 0.07652(16) 0.27245(8) 0.3924(3)
C1_14 C 0.9383(2) 0.25438(10) 0.4810(7)
C2_14 C 0.9238(2) 0.38318(10) 0.4166(4)
C4_14 C 0.8628(2) 0.37425(10) 0.2835(4)
O5_14 O 0.99516(15) 0.36515(8) 0.4108(3)
O6_14 O 0.88802(15) 0.35042(8) 0.1791(3)
O8_14 O 0.90930(16) 0.28153(9) 0.3881(4)
C1_15 C 0.3117(2) 0.50438(10) 0.7310(7)
C2_15 C 0.3262(2) 0.63318(10) 0.6666(4)
C3_15 C 0.2169(2) 0.49871(10) 0.7282(7)
C4_15 C 0.3872(2) 0.62425(10) 0.5335(4)
O5_15 O 0.25484(15) 0.61515(8) 0.6608(3)
O6_15 O 0.36198(15) 0.60042(8) 0.4291(3)
O7_15 O 0.17348(16) 0.52245(8) 0.6424(3)
O8_15 O 0.34070(16) 0.53153(9) 0.6381(4)
C3_16 C 0.2831(2) 0.00129(10) 0.7282(7)
C1_16 C 0.1883(2) 0.99562(10) 0.7310(7)
C2_16 C 0.1738(2) 0.86682(10) 0.6666(4)
C4_16 C 0.1128(2) 0.87575(10) 0.5335(4)
O5_16 O 0.24516(15) 0.88485(8) 0.6608(3)
O6_16 O 0.13802(15) 0.89958(8) 0.4291(3)
O7_16 O 0.32652(16) 0.97755(8) 0.6424(3)
O8_16 O 0.15930(16) 0.96847(9) 0.6381(4)
N1 N 0.7529(2) 0.29885(15) 0.0351(5)
C5 C 0.7295(3) 0.27140(18) 0.1704(7)
H1 H 0.7448 0.2863 0.2644
H2 H 0.6688 0.2675 0.1710
N2 N 0.7471(2) 0.20115(15) 0.0351(5)
C6 C 0.7705(3) 0.22860(18) 0.1704(7)
H3 H 0.7552 0.2137 0.2644
H4 H 0.8312 0.2325 0.1710
H5 H 0.815953 0.304457 0.0364325
H7 H 0.721464 0.327151 0.041338
H9 H 0.777344 0.172543 0.0428308
H10 H 0.683832 0.196196 0.0348431
H5_2 H 0.684047 0.195543 0.0364325
H7_2 H 0.778536 0.172849 0.041338
H9_2 H 0.722656 0.327457 0.0428308
H10_2 H 0.816168 0.303804 0.0348431
H6 H 0.737132 0.283533 0.935896
H8 H 0.764276 0.21612 0.935992
N1_2 N 0.2471(2) 0.70115(15) 0.0351(5)
C5_2 C 0.2705(3) 0.72860(18) 0.1704(7)
H1_2 H 0.2552 0.7137 0.2644
H2_2 H 0.3312 0.7325 0.1710
N2_2 N 0.2529(2) 0.79885(15) 0.0351(5)
C6_2 C 0.2295(3) 0.77140(18) 0.1704(7)
H3_2 H 0.2448 0.7863 0.2644
H4_2 H 0.1688 0.7675 0.1710
H5_3 H 0.184047 0.695543 0.0364325
H7_3 H 0.278536 0.672849 0.041338
H9_3 H 0.222656 0.827457 0.0428308
H10_3 H 0.316168 0.803804 0.0348431
H5_4 H 0.315953 0.804457 0.0364325
H7_4 H 0.221464 0.827151 0.041338
H9_4 H 0.277344 0.672543 0.0428308
H10_4 H 0.183832 0.696196 0.0348431
H6_2 H 0.262868 0.716467 0.935896
H8_2 H 0.235724 0.78388 0.935992
C6_3 C 0.0205(3) 0.02140(18) 0.4204(7)
H3_3 H 0.0052 0.0363 0.5144
H4_3 H 0.0812 0.0175 0.4210
H8_3 H 0.014276 0.0338797 0.185992
H9_5 H 0.0273437 0.0774573 0.292831
H6_3 H 0.0128684 0.0335327 0.185896
H7_5 H 0.0285361 0.0771514 0.291338
N1_3 N 0.0029(2) 0.95115(15) 0.2851(5)
H5_5 H 0.0659526 0.945543 0.286432
H10_5 H 0.0661677 0.946196 0.284843
N2_3 N 0.9971(2) 0.04885(15) 0.2851(5)
H10_6 H 0.933832 0.053804 0.284843
H5_6 H 0.934047 0.0544569 0.286432
C5_3 C 0.9795(3) 0.97860(18) 0.4204(7)
H1_3 H 0.9948 0.9637 0.5144
H2_3 H 0.9188 0.9825 0.4210
H6_4 H 0.987132 0.966467 0.185896
H7_6 H 0.971464 0.922849 0.291338
H8_4 H 0.985724 0.96612 0.185992
H9_6 H 0.972656 0.922543 0.292831
N1_4 N 0.4971(2) 0.54885(15) 0.2851(5)
C5_4 C 0.5205(3) 0.52140(18) 0.4204(7)
H1_4 H 0.5052 0.5363 0.5144
H2_4 H 0.5812 0.5175 0.4210
N2_4 N 0.5029(2) 0.45115(15) 0.2851(5)
C6_4 C 0.4795(3) 0.47860(18) 0.4204(7)
H3_4 H 0.4948 0.4637 0.5144
H4_4 H 0.4188 0.4825 0.4210
H5_7 H 0.434047 0.554457 0.286432
H6_5 H 0.512868 0.533533 0.185896
H7_7 H 0.528536 0.577151 0.291338
H8_5 H 0.485724 0.46612 0.185992
H9_7 H 0.472656 0.422543 0.292831
H10_7 H 0.566168 0.446196 0.284843
H5_8 H 0.565953 0.445543 0.286432
H6_6 H 0.487132 0.466467 0.185896
H7_8 H 0.471464 0.422849 0.291338
H8_6 H 0.514276 0.53388 0.185992
H9_8 H 0.527344 0.577457 0.292831
H10_8 H 0.433832 0.553804 0.284843
N1_5 N 0.7529(2) 0.79885(15) 0.5351(5)
C5_5 C 0.7295(3) 0.77140(18) 0.6704(7)
H1_5 H 0.7448 0.7863 0.7644
H2_5 H 0.6688 0.7675 0.6710
N2_5 N 0.7471(2) 0.70115(15) 0.5351(5)
C6_5 C 0.7705(3) 0.72860(18) 0.6704(7)
H3_5 H 0.7552 0.7137 0.7644
H4_5 H 0.8312 0.7325 0.6710
H5_9 H 0.815953 0.804457 0.536432
H6_7 H 0.737132 0.783533 0.435896
H7_9 H 0.721464 0.827151 0.541338
H8_7 H 0.764276 0.71612 0.435992
H9_9 H 0.777344 0.672543 0.542831
H10_9 H 0.683832 0.696196 0.534843
H5_10 H 0.684047 0.695543 0.536432
H6_8 H 0.762868 0.716467 0.435896
H7_10 H 0.778536 0.672849 0.541338
H8_8 H 0.735724 0.78388 0.435992
H9_10 H 0.722656 0.827457 0.542831
H10_10 H 0.816168 0.803804 0.534843
N1_6 N 0.2471(2) 0.20115(15) 0.5351(5)
C5_6 C 0.2705(3) 0.22860(18) 0.6704(7)
H1_6 H 0.2552 0.2137 0.7644
H2_6 H 0.3312 0.2325 0.6710
N2_6 N 0.2529(2) 0.29885(15) 0.5351(5)
C6_6 C 0.2295(3) 0.27140(18) 0.6704(7)
H3_6 H 0.2448 0.2863 0.7644
H4_6 H 0.1688 0.2675 0.6710
H5_11 H 0.184047 0.195543 0.536432
H6_9 H 0.262868 0.216467 0.435896
H7_11 H 0.278536 0.172849 0.541338
H8_9 H 0.235724 0.28388 0.435992
H9_11 H 0.222656 0.327457 0.542831
H10_11 H 0.316168 0.303804 0.534843
H5_12 H 0.315953 0.304457 0.536432
H6_10 H 0.237132 0.283533 0.435896
H7_12 H 0.221464 0.327151 0.541338
H8_10 H 0.264276 0.21612 0.435992
H9_12 H 0.277344 0.172543 0.542831
H10_12 H 0.183832 0.196196 0.534843
H3_7 H 0.0052 0.5363 0.0144
N1_7 N 0.0029(2) 0.45115(15) 0.7851(5)
C6_7 C 0.0205(3) 0.52140(18) 0.9204(7)
H4_7 H 0.0812 0.5175 0.9210
H5_13 H 0.0659526 0.445543 0.786432
H8_11 H 0.014276 0.53388 0.685992
H9_13 H 0.0273437 0.577457 0.792831
H6_11 H 0.0128684 0.533533 0.685896
H7_13 H 0.0285361 0.577151 0.791338
H10_13 H 0.0661677 0.446196 0.784843
H1_7 H 0.9948 0.4637 0.0144
C5_7 C 0.9795(3) 0.47860(18) 0.9204(7)
H2_7 H 0.9188 0.4825 0.9210
N2_7 N 0.9971(2) 0.54885(15) 0.7851(5)
H6_12 H 0.987132 0.466467 0.685896
H7_14 H 0.971464 0.422849 0.791338
H10_14 H 0.933832 0.553804 0.784843
H5_14 H 0.934047 0.554457 0.786432
H8_12 H 0.985724 0.46612 0.685992
H9_14 H 0.972656 0.422543 0.792831
H1_8 H 0.5052 0.0363 0.0144
N1_8 N 0.4971(2) 0.04885(15) 0.7851(5)
C5_8 C 0.5205(3) 0.02140(18) 0.9204(7)
H2_8 H 0.5812 0.0175 0.9210
H5_15 H 0.434047 0.0544569 0.786432
H6_13 H 0.512868 0.0335327 0.685896
H7_15 H 0.528536 0.0771514 0.791338
H8_13 H 0.514276 0.0338797 0.685992
H9_15 H 0.527344 0.0774573 0.792831
H10_15 H 0.433832 0.053804 0.784843
H3_8 H 0.4948 0.9637 0.0144
N2_8 N 0.5029(2) 0.95115(15) 0.7851(5)
C6_8 C 0.4795(3) 0.97860(18) 0.9204(7)
H4_8 H 0.4188 0.9825 0.9210
H8_14 H 0.485724 0.96612 0.685992
H9_16 H 0.472656 0.922543 0.792831
H10_16 H 0.566168 0.946196 0.784843
H5_16 H 0.565953 0.945543 0.786432
H6_14 H 0.487132 0.966467 0.685896
H7_16 H 0.471464 0.922849 0.791338
H6_15 H 0.237132 0.783533 0.935896
H8_15 H 0.264276 0.71612 0.935992
H6_16 H 0.762868 0.216467 0.935896
H8_16 H 0.735724 0.28388 0.935992
loop_
_geom_bond_atom_site_label_1
_geom_bond_atom_site_label_2
_geom_bond_site_symmetry_1
_geom_bond_site_symmetry_2
In1 O5 1_555 1_555
O1 C2 1_555 1_555
O2 C3 1_555 1_555
O3 C1 1_555 1_555
O4 C4 1_555 1_555
C1 C3 1_555 1_555
C2 C4 1_555 1_555
C3 O7 1_555 1_555
C4 O6 1_555 1_555
O5 C2 1_555 1_555
O6 In1 1_555 1_555
O7 In1 1_555 1_555
O8 In1 1_555 1_555
In2 O1 1_555 1_555
In3 O2 1_555 1_555
O9 In1 1_555 1_555
O10 In1 1_555 1_555
O11 In1 1_555 1_555
O12 In1 1_555 1_555
O3 In3 1_555 1_555
O4 In2 1_555 1_555
C1 O8 1_555 1_555
In1_2 O5_2 1_555 1_555
O1_2 C2_2 1_555 1_555
O2_2 C3_2 1_555 1_555
O3_2 C1_2 1_555 1_555
O4_2 C4_2 1_555 1_555
C1_2 C3_2 1_555 1_555
C2_2 C4_2 1_555 1_555
C3_2 O7_2 1_555 1_555
C4_2 O6_2 1_555 1_555
O5_2 C2_2 1_555 1_555
O6_2 In1_2 1_555 1_555
O7_2 In1_2 1_555 1_555
O8_2 In1_2 1_555 1_555
In2_2 O1_2 1_555 1_555
In3_2 O2_2 1_555 1_555
O9_2 In1_2 1_555 1_555
O10_2 In1_2 1_555 1_555
O11_2 In1_2 1_555 1_555
O12_2 In1_2 1_555 1_555
O3_2 In3_2 1_555 1_555
O4_2 In2_2 1_555 1_555
C1_2 O8_2 1_555 1_555
In2 O5_3 1_555 1_555
O1_3 C2_3 1_555 1_555
O4_3 C4_3 1_555 1_555
C2_3 C4_3 1_555 1_555
C4_3 O6_3 1_555 1_555
O5_3 C2_3 1_555 1_555
O6_3 In2 1_555 1_555
O7_3 In2 1_555 1_555
O8_3 In2 1_555 1_555
In2_3 O1_3 1_555 1_555
O10_3 In2 1_555 1_555
O11_3 In2 1_555 1_555
O4_3 In2_3 1_555 1_555
C1_3 O8_3 1_555 1_555
O2_3 C3_3 1_555 1_555
In3_3 O2_3 1_555 1_555
O3_3 In3_3 1_555 1_555
In1_3 O5_4 1_555 1_555
O1_4 C2_4 1_555 1_555
O2_4 C3_4 1_555 1_555
O3_4 C1_4 1_555 1_555
O4_4 C4_4 1_555 1_555
C1_4 C3_4 1_555 1_555
C2_4 C4_4 1_555 1_555
C3_4 O7_4 1_555 1_555
C4_4 O6_4 1_555 1_555
O5_4 C2_4 1_555 1_555
O6_4 In1_3 1_555 1_555
O7_4 In1_3 1_555 1_555
O8_4 In1_3 1_555 1_555
In3 O1_4 1_555 1_555
In3_4 O2_4 1_555 1_555
O9_3 In1_3 1_555 1_555
O10_4 In1_3 1_555 1_555
O11_4 In1_3 1_555 1_555
O12_3 In1_3 1_555 1_555
O3_4 In3_4 1_555 1_555
O4_4 In3 1_555 1_555
C1_4 O8_4 1_555 1_555
In3_2 O5_5 1_555 1_555
O4_5 C4_5 1_555 1_555
C1_5 C3_5 1_555 1_555
C2_5 C4_5 1_555 1_555
C3_5 O7_5 1_555 1_555
C4_5 O6_5 1_555 1_555
O5_5 C2_5 1_555 1_555
O6_5 In3_2 1_555 1_555
O7_5 In3_2 1_555 1_555
O8_5 In3_2 1_555 1_555
O9_4 In3_2 1_555 1_555
O12_4 In3_2 1_555 1_555
O4_5 In3_4 1_555 1_555
C1_5 O8_5 1_555 1_555
In3 O5_6 1_555 1_555
O4_6 C4_6 1_555 1_555
C1_6 C3_6 1_555 1_555
C2_6 C4_6 1_555 1_555
C3_6 O7_6 1_555 1_555
C4_6 O6_6 1_555 1_555
O5_6 C2_6 1_555 1_555
O6_6 In3 1_555 1_555
O7_6 In3 1_555 1_555
O8_6 In3 1_555 1_555
O4_6 In2_4 1_555 1_555
C1_6 O8_6 1_555 1_555
O1_7 C2_7 1_555 1_555
O10_4 C3_7 1_555 1_555
O11_4 C1_7 1_555 1_555
O4_7 C4_7 1_555 1_555
C1_7 C3_7 1_555 1_555
C2_7 C4_7 1_555 1_555
C3_7 O7_7 1_555 1_555
O5_7 C2_7 1_555 1_555
In2_5 O1_7 1_555 1_555
O4_7 In2_5 1_555 1_555
C1_7 O8_7 1_555 1_555
O6_7 In3_4 1_555 1_555
O10_3 C3_8 1_555 1_555
O9_2 C2_8 1_555 1_555
O12_2 C4_8 1_555 1_555
C2_8 C4_8 1_555 1_555
O5_8 C2_8 1_555 1_555
C1_8 O8_8 1_555 1_555
O6_8 In3_3 1_555 1_555
O12_5 In3_3 1_555 1_555
O3_5 In3_5 1_555 1_555
O4_8 C4_9 1_555 1_555
C2_9 C4_9 1_555 1_555
C4_9 O6_9 1_555 1_555
O5_9 C2_9 1_555 1_555
O4_8 In2_6 1_555 1_555
C1_9 O8_9 1_555 1_555
C3_9 O7_9 1_555 1_555
O7_9 In2_3 1_555 1_555
O11_5 In2_3 1_555 1_555
C3_10 O7_10 1_555 1_555
O7_10 In1_4 1_555 1_555
O9_6 In1_4 1_555 1_555
O11_6 In1_4 1_555 1_555
O12_6 In1_4 1_555 1_555
O3_6 In2_5 1_555 1_555
O12_5 C4_10 1_555 1_555
C2_10 C4_10 1_555 1_555
C4_10 O6_10 1_555 1_555
O5_10 C2_10 1_555 1_555
C1_10 O8_10 1_555 1_555
O9 C2_11 1_555 1_555
O12 C4_11 1_555 1_555
C2_11 C4_11 1_555 1_555
O5_11 C2_11 1_555 1_555
C1_11 O8_11 1_555 1_555
O6_11 In2_6 1_555 1_555
O10_7 In2_6 1_555 1_555
O11_7 In2_6 1_555 1_555
O2_7 C3_11 1_555 1_555
In2_2 O2_7 1_555 1_555
O3_7 In2_2 1_555 1_555
O1_9 C2_12 1_555 1_555
O2_8 C3_12 1_555 1_555
O3_8 C1_12 1_555 1_555
O4_9 C4_12 1_555 1_555
C1_12 C3_12 1_555 1_555
C2_12 C4_12 1_555 1_555
C3_12 O7_12 1_555 1_555
O5_12 C2_12 1_555 1_555
In3_5 O1_9 1_555 1_555
In3_6 O2_8 1_555 1_555
O3_8 In3_6 1_555 1_555
O4_9 In3_5 1_555 1_555
C1_12 O8_12 1_555 1_555
O6_12 In2_4 1_555 1_555
O10_8 In2_4 1_555 1_555
O11_8 In2_4 1_555 1_555
O1_10 C2_13 1_555 1_555
O11_6 C1_13 1_555 1_555
O4_10 C4_13 1_555 1_555
C2_13 C4_13 1_555 1_555
C4_13 O6_13 1_555 1_555
O5_13 C2_13 1_555 1_555
In3_6 O1_10 1_555 1_555
O4_10 In3_6 1_555 1_555
C1_13 O8_13 1_555 1_555
O10_6 C3_13 1_555 1_555
C3_13 O7_13 1_555 1_555
O7_13 In2_5 1_555 1_555
O10_5 C3_14 1_555 1_555
C3_14 O7_14 1_555 1_555
O7_14 In3_5 1_555 1_555
O9_3 C2_14 1_555 1_555
O11_5 C1_14 1_555 1_555
O12_3 C4_14 1_555 1_555
C2_14 C4_14 1_555 1_555
C4_14 O6_14 1_555 1_555
O5_14 C2_14 1_555 1_555
C1_14 O8_14 1_555 1_555
In3_6 O5_15 1_555 1_555
O9_4 C2_15 1_555 1_555
O10_8 C3_15 1_555 1_555
O11_8 C1_15 1_555 1_555
O12_4 C4_15 1_555 1_555
C1_15 C3_15 1_555 1_555
C2_15 C4_15 1_555 1_555
C3_15 O7_15 1_555 1_555
C4_15 O6_15 1_555 1_555
O5_15 C2_15 1_555 1_555
O6_15 In3_6 1_555 1_555
O7_15 In3_6 1_555 1_555
O8_15 In3_6 1_555 1_555
C1_15 O8_15 1_555 1_555
O10_7 C3_16 1_555 1_555
In2_2 O5_16 1_555 1_555
O9_6 C2_16 1_555 1_555
O12_6 C4_16 1_555 1_555
C2_16 C4_16 1_555 1_555
C4_16 O6_16 1_555 1_555
O5_16 C2_16 1_555 1_555
O6_16 In2_2 1_555 1_555
O7_16 In2_2 1_555 1_555
O8_16 In2_2 1_555 1_555
C1_16 O8_16 1_555 1_555
N1 C5 1_555 1_555
C5 H1 1_555 1_555
H2 C5 1_555 1_555
N2 C6 1_555 1_555
C6 C5 1_555 1_555
H3 C6 1_555 1_555
H4 C6 1_555 1_555
N1 H5 1_555 1_555
N1 H7 1_555 1_555
N2 H9 1_555 1_555
N2 H10 1_555 1_555
N2 H5_2 1_555 1_555
N2 H7_2 1_555 1_555
N1 H9_2 1_555 1_555
N1 H10_2 1_555 1_555
N1_2 C5_2 1_555 1_555
C5_2 H1_2 1_555 1_555
H2_2 C5_2 1_555 1_555
N2_2 C6_2 1_555 1_555
C6_2 C5_2 1_555 1_555
H3_2 C6_2 1_555 1_555
H4_2 C6_2 1_555 1_555
N1_2 H5_3 1_555 1_555
N1_2 H7_3 1_555 1_555
N2_2 H9_3 1_555 1_555
N2_2 H10_3 1_555 1_555
N2_2 H5_4 1_555 1_555
N2_2 H7_4 1_555 1_555
N1_2 H9_4 1_555 1_555
N1_2 H10_4 1_555 1_555
H3_3 C6_3 1_555 1_555
H4_3 C6_3 1_555 1_555
N1_3 H5_5 1_555 1_555
N1_3 H10_5 1_555 1_555
N2_3 H10_6 1_555 1_555
N2_3 H5_6 1_555 1_555
C5_3 H1_3 1_555 1_555
H2_3 C5_3 1_555 1_555
N1_4 C5_4 1_555 1_555
C5_4 H1_4 1_555 1_555
H2_4 C5_4 1_555 1_555
N2_4 C6_4 1_555 1_555
C6_4 C5_4 1_555 1_555
H3_4 C6_4 1_555 1_555
H4_4 C6_4 1_555 1_555
N1_4 H5_7 1_555 1_555
N1_4 H6_5 1_555 1_555
N1_4 H7_7 1_555 1_555
N2_4 H8_5 1_555 1_555
N2_4 H9_7 1_555 1_555
N2_4 H10_7 1_555 1_555
N2_4 H5_8 1_555 1_555
N2_4 H6_6 1_555 1_555
N2_4 H7_8 1_555 1_555
N1_4 H8_6 1_555 1_555
N1_4 H9_8 1_555 1_555
N1_4 H10_8 1_555 1_555
N1_5 C5_5 1_555 1_555
C5_5 H1_5 1_555 1_555
H2_5 C5_5 1_555 1_555
N2_5 C6_5 1_555 1_555
C6_5 C5_5 1_555 1_555
H3_5 C6_5 1_555 1_555
H4_5 C6_5 1_555 1_555
N1_5 H5_9 1_555 1_555
N1_5 H6_7 1_555 1_555
N1_5 H7_9 1_555 1_555
N2_5 H8_7 1_555 1_555
N2_5 H9_9 1_555 1_555
N2_5 H10_9 1_555 1_555
N2_5 H5_10 1_555 1_555
N2_5 H6_8 1_555 1_555
N2_5 H7_10 1_555 1_555
N1_5 H8_8 1_555 1_555
N1_5 H9_10 1_555 1_555
N1_5 H10_10 1_555 1_555
N1_6 C5_6 1_555 1_555
C5_6 H1_6 1_555 1_555
H2_6 C5_6 1_555 1_555
N2_6 C6_6 1_555 1_555
C6_6 C5_6 1_555 1_555
H3_6 C6_6 1_555 1_555
H4_6 C6_6 1_555 1_555
N1_6 H5_11 1_555 1_555
N1_6 H6_9 1_555 1_555
N1_6 H7_11 1_555 1_555
N2_6 H8_9 1_555 1_555
N2_6 H9_11 1_555 1_555
N2_6 H10_11 1_555 1_555
N2_6 H5_12 1_555 1_555
N2_6 H6_10 1_555 1_555
N2_6 H7_12 1_555 1_555
N1_6 H8_10 1_555 1_555
N1_6 H9_12 1_555 1_555
N1_6 H10_12 1_555 1_555
H4_7 C6_7 1_555 1_555
N1_7 H5_13 1_555 1_555
N1_7 H10_13 1_555 1_555
H2_7 C5_7 1_555 1_555
N2_7 H10_14 1_555 1_555
N2_7 H5_14 1_555 1_555
N1_8 C5_8 1_555 1_555
H2_8 C5_8 1_555 1_555
N1_8 H5_15 1_555 1_555
N1_8 H6_13 1_555 1_555
N1_8 H7_15 1_555 1_555
N1_8 H8_13 1_555 1_555
N1_8 H9_15 1_555 1_555
N1_8 H10_15 1_555 1_555
N2_8 C6_8 1_555 1_555
H4_8 C6_8 1_555 1_555
N2_8 H8_14 1_555 1_555
N2_8 H9_16 1_555 1_555
N2_8 H10_16 1_555 1_555
N2_8 H5_16 1_555 1_555
N2_8 H6_14 1_555 1_555
N2_8 H7_16 1_555 1_555

#END
