
###############################################################################
#
# This file contains modified crystal structure data generated from the
# MOF subset of the Cambridge Structural Database (CSD) v543 
# hosted by the Cambridge Crystallographic Data Centre (CCDC).
#
# This work is licensed under the Creative Commons
# Attribution-NonCommercial-ShareAlike 4.0 International License.
# To view a copy of this license, visit
# http://creativecommons.org/licenses/by-nc-sa/4.0/
# or send a letter to
# Creative Commons, PO Box 1866, Mountain View, CA 94042, USA.
#
# CIF created using the CSD Python API on 29 September 2022
# The structure has been converted into the P1 space group
# The structure has a 3D framework
# The original CSD entry NOQLOV is in the orthorhombic crystal system
# The framework has been calculated to contain at least 10.0% void space
# The void calculation uses a probe of radius 1.32A, grid spacing 0.4
# The framework is charged, counterions have been retained in the structure
#
###############################################################################

data_NOQLOV
_chemical_formula_moiety         '(C80 H80 In16 N16 O118)n'
_symmetry_cell_setting           triclinic
_symmetry_space_group_name_H-M   'P 1'
_symmetry_Int_Tables_number      1
_space_group_name_Hall           'P 1'
loop_
_symmetry_equiv_pos_site_id
_symmetry_equiv_pos_as_xyz
1 x,y,z
_cell_length_a                   15.8498(4)
_cell_length_b                   31.1643(8)
_cell_length_c                   8.6618(2)
_cell_angle_alpha                90
_cell_angle_beta                 90
_cell_angle_gamma                90
_cell_volume                     4278.48
loop_
_atom_site_label
_atom_site_type_symbol
_atom_site_fract_x
_atom_site_fract_y
_atom_site_fract_z
In1 In 0.013694(15) 0.314689(7) 0.33266(6)
O2 O 0.10165(19) 0.26861(9) 0.1750(4)
O3 O 0.04152(19) 0.35822(9) 0.1416(3)
O4 O 0.14920(17) 0.34173(8) 0.3713(3)
C2 C 0.0620(2) 0.24552(11) 0.0823(7)
C3 C 0.1128(2) 0.37559(10) 0.1357(4)
C4 C 0.1740(2) 0.36645(11) 0.2696(5)
O7 O 0.13838(16) 0.39927(8) 0.0302(3)
O8 O 0.24530(18) 0.38498(9) 0.2625(4)
In3 In 0.263694(15) 0.435311(7) 0.08266(6)
O9 O 0.07692(18) 0.27231(9) 0.4939(3)
O6 O 0.09025(18) 0.21856(9) 0.9888(4)
O1 O 0.93551(17) 0.27864(9) 0.1683(4)
C1 C 0.9666(2) 0.25113(11) 0.0817(7)
O10 O 0.90975(18) 0.28144(9) 0.4888(4)
O11 O 0.88838(16) 0.35073(8) 0.2802(3)
O12 O 0.99530(18) 0.36502(9) 0.5125(4)
O5 O 0.92308(18) 0.22769(9) 0.9939(3)
In2 In 0.986306(15) 0.185311(7) 0.83266(6)
O1_2 O 0.06449(17) 0.72136(9) 0.1683(4)
C1_2 C 0.0334(2) 0.74887(11) 0.0817(7)
O10_2 O 0.09025(18) 0.71856(9) 0.4888(4)
O11_2 O 0.11162(16) 0.64927(8) 0.2802(3)
O12_2 O 0.00470(18) 0.63498(9) 0.5125(4)
O5_2 O 0.07692(18) 0.77231(9) 0.9939(3)
In2_2 In 0.013694(15) 0.814689(7) 0.83266(6)
In1_2 In 0.986306(15) 0.685311(7) 0.33266(6)
O2_2 O 0.89835(19) 0.73139(9) 0.1750(4)
O3_2 O 0.95848(19) 0.64178(9) 0.1416(3)
O4_2 O 0.85080(17) 0.65827(8) 0.3713(3)
C2_2 C 0.9380(2) 0.75448(11) 0.0823(7)
C3_2 C 0.8872(2) 0.62441(10) 0.1357(4)
C4_2 C 0.8260(2) 0.63355(11) 0.2696(5)
O7_2 O 0.86162(16) 0.60073(8) 0.0302(3)
O8_2 O 0.75470(18) 0.61502(9) 0.2625(4)
In3_2 In 0.736306(15) 0.564689(7) 0.08266(6)
O9_2 O 0.92308(18) 0.72769(9) 0.4939(3)
O6_2 O 0.90975(18) 0.78144(9) 0.9888(4)
C2_3 C 0.3120(2) 0.00448(11) 0.3323(7)
O5_3 O 0.17308(18) 0.02231(9) 0.2439(3)
O6_3 O 0.34025(18) 0.03144(9) 0.2388(4)
In2_3 In 0.236306(15) 0.064689(7) 0.08266(6)
In1_3 In 0.263694(15) 0.935311(7) 0.58266(6)
O1_3 O 0.18551(17) 0.97136(9) 0.4183(4)
O2_3 O 0.35165(19) 0.98139(9) 0.4250(4)
O3_3 O 0.29152(19) 0.89178(9) 0.3916(3)
O4_3 O 0.39920(17) 0.90827(8) 0.6213(3)
C1_3 C 0.2166(2) 0.99887(11) 0.3317(7)
C3_3 C 0.3628(2) 0.87441(10) 0.3857(4)
C4_3 C 0.4240(2) 0.88355(11) 0.5196(5)
O7_3 O 0.38838(16) 0.85073(8) 0.2802(3)
O8_3 O 0.49530(18) 0.86502(9) 0.5125(4)
In3_3 In 0.513694(15) 0.814689(7) 0.33266(6)
O9_3 O 0.32692(18) 0.97769(9) 0.7439(3)
O10_3 O 0.15975(18) 0.96856(9) 0.7388(4)
O11_3 O 0.13838(16) 0.89927(8) 0.5302(3)
O12_3 O 0.24530(18) 0.88498(9) 0.7625(4)
In1_4 In 0.236306(15) 0.564689(7) 0.58266(6)
O1_4 O 0.31449(17) 0.52864(9) 0.4183(4)
O2_4 O 0.14835(19) 0.51861(9) 0.4250(4)
O3_4 O 0.20848(19) 0.60822(9) 0.3916(3)
O4_4 O 0.10080(17) 0.59173(8) 0.6213(3)
C1_4 C 0.2834(2) 0.50113(11) 0.3317(7)
C2_4 C 0.1880(2) 0.49552(11) 0.3323(7)
C3_4 C 0.1372(2) 0.62559(10) 0.3857(4)
C4_4 C 0.0760(2) 0.61645(11) 0.5196(5)
O5_4 O 0.32692(18) 0.47769(9) 0.2439(3)
O6_4 O 0.15975(18) 0.46856(9) 0.2388(4)
O9_4 O 0.17308(18) 0.52231(9) 0.7439(3)
O10_4 O 0.34025(18) 0.53144(9) 0.7388(4)
O11_4 O 0.36162(16) 0.60073(8) 0.5302(3)
O12_4 O 0.25470(18) 0.61502(9) 0.7625(4)
O2_5 O 0.10165(19) 0.76861(9) 0.6750(4)
O3_5 O 0.04152(19) 0.85822(9) 0.6416(3)
O4_5 O 0.14920(17) 0.84173(8) 0.8713(3)
C2_5 C 0.0620(2) 0.74552(11) 0.5823(7)
C3_5 C 0.1128(2) 0.87559(10) 0.6357(4)
C4_5 C 0.1740(2) 0.86645(11) 0.7696(5)
O12_5 O 0.99530(18) 0.86502(9) 0.0125(4)
O1_5 O 0.93551(17) 0.77864(9) 0.6683(4)
C1_5 C 0.9666(2) 0.75113(11) 0.5817(7)
O11_5 O 0.88838(16) 0.85073(8) 0.7802(3)
O12_6 O 0.00470(18) 0.13498(9) 0.0125(4)
O1_6 O 0.06449(17) 0.22136(9) 0.6683(4)
C1_6 C 0.0334(2) 0.24887(11) 0.5817(7)
O11_6 O 0.11162(16) 0.14927(8) 0.7802(3)
O2_6 O 0.89835(19) 0.23139(9) 0.6750(4)
O3_6 O 0.95848(19) 0.14178(9) 0.6416(3)
O4_6 O 0.85080(17) 0.15827(8) 0.8713(3)
C2_6 C 0.9380(2) 0.25448(11) 0.5823(7)
C3_6 C 0.8872(2) 0.12441(10) 0.6357(4)
C4_6 C 0.8260(2) 0.13355(11) 0.7696(5)
O7_4 O 0.86162(16) 0.10073(8) 0.5302(3)
O8_4 O 0.75470(18) 0.11502(9) 0.7625(4)
In3_4 In 0.736306(15) 0.064689(7) 0.58266(6)
O4_7 O 0.39920(17) 0.40827(8) 0.1213(3)
C4_7 C 0.4240(2) 0.38355(11) 0.0196(5)
O8_5 O 0.49530(18) 0.36502(9) 0.0125(4)
O1_7 O 0.18551(17) 0.47136(9) 0.9183(4)
O2_7 O 0.35165(19) 0.48139(9) 0.9250(4)
O3_7 O 0.29152(19) 0.39178(9) 0.8916(3)
C1_7 C 0.2166(2) 0.49887(11) 0.8317(7)
C2_7 C 0.3120(2) 0.50448(11) 0.8323(7)
C3_7 C 0.3628(2) 0.37441(10) 0.8857(4)
O7_5 O 0.38838(16) 0.35073(8) 0.7802(3)
In3_5 In 0.513694(15) 0.314689(7) 0.83266(6)
O4_8 O 0.10080(17) 0.09173(8) 0.1213(3)
C4_8 C 0.0760(2) 0.11645(11) 0.0196(5)
O11_7 O 0.36162(16) 0.10073(8) 0.0302(3)
O12_7 O 0.25470(18) 0.11502(9) 0.2625(4)
O1_8 O 0.31449(17) 0.02864(9) 0.9183(4)
O2_8 O 0.14835(19) 0.01861(9) 0.9250(4)
O3_8 O 0.20848(19) 0.10822(9) 0.8916(3)
C1_8 C 0.2834(2) 0.00113(11) 0.8317(7)
C3_8 C 0.1372(2) 0.12559(10) 0.8857(4)
C2_8 C 0.1880(2) 0.99552(11) 0.8323(7)
O1_9 O 0.43551(17) 0.27864(9) 0.6683(4)
O2_9 O 0.60165(19) 0.26861(9) 0.6750(4)
O3_9 O 0.54152(19) 0.35822(9) 0.6416(3)
O4_9 O 0.64920(17) 0.34173(8) 0.8713(3)
C1_9 C 0.4666(2) 0.25113(11) 0.5817(7)
C2_9 C 0.5620(2) 0.24552(11) 0.5823(7)
C3_9 C 0.6128(2) 0.37559(10) 0.6357(4)
C4_9 C 0.6740(2) 0.36645(11) 0.7696(5)
O5_5 O 0.42308(18) 0.22769(9) 0.4939(3)
O6_5 O 0.59025(18) 0.21856(9) 0.4888(4)
O7_6 O 0.63838(16) 0.39927(8) 0.5302(3)
O8_6 O 0.74530(18) 0.38498(9) 0.7625(4)
In2_4 In 0.486306(15) 0.185311(7) 0.33266(6)
In3_6 In 0.763694(15) 0.435311(7) 0.58266(6)
O9_5 O 0.57692(18) 0.27231(9) 0.9939(3)
O10_5 O 0.40975(18) 0.28144(9) 0.9888(4)
O12_8 O 0.50470(18) 0.63498(9) 0.0125(4)
In1_5 In 0.486306(15) 0.685311(7) 0.83266(6)
O1_10 O 0.56449(17) 0.72136(9) 0.6683(4)
O2_10 O 0.39835(19) 0.73139(9) 0.6750(4)
O3_10 O 0.45848(19) 0.64178(9) 0.6416(3)
O4_10 O 0.35080(17) 0.65827(8) 0.8713(3)
C1_10 C 0.5334(2) 0.74887(11) 0.5817(7)
C2_10 C 0.4380(2) 0.75448(11) 0.5823(7)
C3_10 C 0.3872(2) 0.62441(10) 0.6357(4)
C4_10 C 0.3260(2) 0.63355(11) 0.7696(5)
O5_6 O 0.57692(18) 0.77231(9) 0.4939(3)
O6_6 O 0.40975(18) 0.78144(9) 0.4888(4)
O9_6 O 0.42308(18) 0.72769(9) 0.9939(3)
O10_6 O 0.59025(18) 0.71856(9) 0.9888(4)
O11_8 O 0.61162(16) 0.64927(8) 0.7802(3)
C2_11 C 0.8120(2) 0.00448(11) 0.8323(7)
O5_7 O 0.67308(18) 0.02231(9) 0.7439(3)
O6_7 O 0.84025(18) 0.03144(9) 0.7388(4)
In1_6 In 0.763694(15) 0.935311(7) 0.08266(6)
O4_11 O 0.89920(17) 0.90827(8) 0.1213(3)
C4_11 C 0.9240(2) 0.88355(11) 0.0196(5)
O9_7 O 0.82692(18) 0.97769(9) 0.2439(3)
O10_7 O 0.65975(18) 0.96856(9) 0.2388(4)
O11_9 O 0.63838(16) 0.89927(8) 0.0302(3)
O12_9 O 0.74530(18) 0.88498(9) 0.2625(4)
O1_11 O 0.68551(17) 0.97136(9) 0.9183(4)
O2_11 O 0.85165(19) 0.98139(9) 0.9250(4)
O3_11 O 0.79152(19) 0.89178(9) 0.8916(3)
C1_11 C 0.7166(2) 0.99887(11) 0.8317(7)
C3_11 C 0.8628(2) 0.87441(10) 0.8857(4)
O4_12 O 0.60080(17) 0.59173(8) 0.1213(3)
C4_12 C 0.5760(2) 0.61645(11) 0.0196(5)
O9_8 O 0.67308(18) 0.52231(9) 0.2439(3)
O10_8 O 0.84025(18) 0.53144(9) 0.2388(4)
O1_12 O 0.81449(17) 0.52864(9) 0.9183(4)
O2_12 O 0.64835(19) 0.51861(9) 0.9250(4)
O3_12 O 0.70848(19) 0.60822(9) 0.8916(3)
C1_12 C 0.7834(2) 0.50113(11) 0.8317(7)
C2_12 C 0.6880(2) 0.49552(11) 0.8323(7)
C3_12 C 0.6372(2) 0.62559(10) 0.8857(4)
O5_8 O 0.82692(18) 0.47769(9) 0.7439(3)
O6_8 O 0.65975(18) 0.46856(9) 0.7388(4)
O1_13 O 0.43551(17) 0.77864(9) 0.1683(4)
O2_13 O 0.60165(19) 0.76861(9) 0.1750(4)
O3_13 O 0.54152(19) 0.85822(9) 0.1416(3)
O4_13 O 0.64920(17) 0.84173(8) 0.3713(3)
C1_13 C 0.4666(2) 0.75113(11) 0.0817(7)
C2_13 C 0.5620(2) 0.74552(11) 0.0823(7)
C3_13 C 0.6128(2) 0.87559(10) 0.1357(4)
C4_13 C 0.6740(2) 0.86645(11) 0.2696(5)
O1_14 O 0.56449(17) 0.22136(9) 0.1683(4)
O2_14 O 0.39835(19) 0.23139(9) 0.1750(4)
O3_14 O 0.45848(19) 0.14178(9) 0.1416(3)
O4_14 O 0.35080(17) 0.15827(8) 0.3713(3)
C1_14 C 0.5334(2) 0.24887(11) 0.0817(7)
C2_14 C 0.4380(2) 0.25448(11) 0.0823(7)
C3_14 C 0.3872(2) 0.12441(10) 0.1357(4)
C4_14 C 0.3260(2) 0.13355(11) 0.2696(5)
O11_10 O 0.61162(16) 0.14927(8) 0.2802(3)
O12_10 O 0.50470(18) 0.13498(9) 0.5125(4)
O1_15 O 0.68551(17) 0.47136(9) 0.4183(4)
O2_15 O 0.85165(19) 0.48139(9) 0.4250(4)
O3_15 O 0.79152(19) 0.39178(9) 0.3916(3)
O4_15 O 0.89920(17) 0.40827(8) 0.6213(3)
C1_15 C 0.7166(2) 0.49887(11) 0.3317(7)
C2_15 C 0.8120(2) 0.50448(11) 0.3323(7)
C3_15 C 0.8628(2) 0.37441(10) 0.3857(4)
C4_15 C 0.9240(2) 0.38355(11) 0.5196(5)
O1_16 O 0.81449(17) 0.02864(9) 0.4183(4)
O2_16 O 0.64835(19) 0.01861(9) 0.4250(4)
O3_16 O 0.70848(19) 0.10822(9) 0.3916(3)
O4_16 O 0.60080(17) 0.09173(8) 0.6213(3)
C1_16 C 0.7834(2) 0.00113(11) 0.3317(7)
C3_16 C 0.6372(2) 0.12559(10) 0.3857(4)
C4_16 C 0.5760(2) 0.11645(11) 0.5196(5)
C2_16 C 0.6880(2) 0.99552(11) 0.3323(7)
C5 C 0.2294(3) 0.2715(2) 0.7723(8)
H1 H 0.1687 0.2676 0.7725
H2 H 0.2444 0.2864 0.8668
N1 N 0.2527(3) 0.29883(17) 0.6392(6)
H3 H 0.3035 0.2913 0.6051
H4 H 0.2534 0.3262 0.6684
H5 H 0.2150 0.2954 0.5640
C6 C 0.2706(3) 0.2285(2) 0.7723(8)
H6 H 0.3313 0.2324 0.7725
H7 H 0.2556 0.2136 0.8668
N2 N 0.2473(3) 0.20117(17) 0.6392(6)
H8 H 0.1965 0.2087 0.6051
H9 H 0.2466 0.1738 0.6684
H10 H 0.2850 0.2046 0.5640
C5_2 C 0.7706(3) 0.7285(2) 0.7723(8)
H1_2 H 0.8313 0.7324 0.7725
H2_2 H 0.7556 0.7136 0.8668
N1_2 N 0.7473(3) 0.70117(17) 0.6392(6)
H3_2 H 0.6965 0.7087 0.6051
H4_2 H 0.7466 0.6738 0.6684
H5_2 H 0.7850 0.7046 0.5640
C6_2 C 0.7294(3) 0.7715(2) 0.7723(8)
H6_2 H 0.6687 0.7676 0.7725
H7_2 H 0.7444 0.7864 0.8668
N2_2 N 0.7527(3) 0.79883(17) 0.6392(6)
H8_2 H 0.8035 0.7913 0.6051
H9_2 H 0.7534 0.8262 0.6684
H10_2 H 0.7150 0.7954 0.5640
C6_3 C 0.5206(3) 0.0215(2) 0.0223(8)
H6_3 H 0.5813 0.0176 0.0225
H7_3 H 0.5056 0.0364 0.1168
N2_3 N 0.4973(3) 0.04883(17) 0.8892(6)
H8_3 H 0.4465 0.0413 0.8551
H9_3 H 0.4966 0.0762 0.9184
H10_3 H 0.5350 0.0454 0.8140
C5_3 C 0.4794(3) 0.9785(2) 0.0223(8)
H1_3 H 0.4187 0.9824 0.0225
H2_3 H 0.4944 0.9636 0.1168
N1_3 N 0.5027(3) 0.95117(17) 0.8892(6)
H3_3 H 0.5535 0.9587 0.8551
H4_3 H 0.5034 0.9238 0.9184
H5_3 H 0.4650 0.9546 0.8140
C5_4 C 0.0206(3) 0.5215(2) 0.0223(8)
H1_4 H 0.0813 0.5176 0.0225
H2_4 H 0.0056 0.5364 0.1168
H5_4 H 0.0350 0.5454 0.8140
N2_4 N 0.0027(3) 0.45117(17) 0.8892(6)
H8_4 H 0.0535 0.4587 0.8551
H9_4 H 0.0034 0.4238 0.9184
C6_4 C 0.9794(3) 0.4785(2) 0.0223(8)
H6_4 H 0.9187 0.4824 0.0225
H7_4 H 0.9944 0.4636 0.1168
N1_4 N 0.9973(3) 0.54883(17) 0.8892(6)
H3_4 H 0.9465 0.5413 0.8551
H4_4 H 0.9966 0.5762 0.9184
H10_4 H 0.9650 0.4546 0.8140
C5_5 C 0.2294(3) 0.7715(2) 0.2723(8)
H1_5 H 0.1687 0.7676 0.2725
H2_5 H 0.2444 0.7864 0.3668
N1_5 N 0.2527(3) 0.79883(17) 0.1392(6)
H3_5 H 0.3035 0.7913 0.1051
H4_5 H 0.2534 0.8262 0.1684
H5_5 H 0.2150 0.7954 0.0640
C6_5 C 0.2706(3) 0.7285(2) 0.2723(8)
H6_5 H 0.3313 0.7324 0.2725
H7_5 H 0.2556 0.7136 0.3668
N2_5 N 0.2473(3) 0.70117(17) 0.1392(6)
H8_5 H 0.1965 0.7087 0.1051
H9_5 H 0.2466 0.6738 0.1684
H10_5 H 0.2850 0.7046 0.0640
C5_6 C 0.7706(3) 0.2285(2) 0.2723(8)
H1_6 H 0.8313 0.2324 0.2725
H2_6 H 0.7556 0.2136 0.3668
N1_6 N 0.7473(3) 0.20117(17) 0.1392(6)
H3_6 H 0.6965 0.2087 0.1051
H4_6 H 0.7466 0.1738 0.1684
H5_6 H 0.7850 0.2046 0.0640
C6_6 C 0.7294(3) 0.2715(2) 0.2723(8)
H6_6 H 0.6687 0.2676 0.2725
H7_6 H 0.7444 0.2864 0.3668
N2_6 N 0.7527(3) 0.29883(17) 0.1392(6)
H8_6 H 0.8035 0.2913 0.1051
H9_6 H 0.7534 0.3262 0.1684
H10_6 H 0.7150 0.2954 0.0640
C5_7 C 0.4794(3) 0.4785(2) 0.5223(8)
H1_7 H 0.4187 0.4824 0.5225
H2_7 H 0.4944 0.4636 0.6168
N1_7 N 0.5027(3) 0.45117(17) 0.3892(6)
H3_7 H 0.5535 0.4587 0.3551
H4_7 H 0.5034 0.4238 0.4184
H5_7 H 0.4650 0.4546 0.3140
C6_7 C 0.5206(3) 0.5215(2) 0.5223(8)
H6_7 H 0.5813 0.5176 0.5225
H7_7 H 0.5056 0.5364 0.6168
N2_7 N 0.4973(3) 0.54883(17) 0.3892(6)
H8_7 H 0.4465 0.5413 0.3551
H9_7 H 0.4966 0.5762 0.4184
H10_7 H 0.5350 0.5454 0.3140
C5_8 C 0.0206(3) 0.0215(2) 0.5223(8)
H1_8 H 0.0813 0.0176 0.5225
H2_8 H 0.0056 0.0364 0.6168
H5_8 H 0.0350 0.0454 0.3140
N2_8 N 0.0027(3) 0.95117(17) 0.3892(6)
H8_8 H 0.0535 0.9587 0.3551
H9_8 H 0.0034 0.9238 0.4184
N1_8 N 0.9973(3) 0.04883(17) 0.3892(6)
H3_8 H 0.9465 0.0413 0.3551
H4_8 H 0.9966 0.0762 0.4184
C6_8 C 0.9794(3) 0.9785(2) 0.5223(8)
H6_8 H 0.9187 0.9824 0.5225
H7_8 H 0.9944 0.9636 0.6168
H10_8 H 0.9650 0.9546 0.3140
loop_
_geom_bond_atom_site_label_1
_geom_bond_atom_site_label_2
_geom_bond_site_symmetry_1
_geom_bond_site_symmetry_2
O2 In1 1_555 1_555
O3 In1 1_555 1_555
O4 In1 1_555 1_555
C2 O2 1_555 1_555
C3 O3 1_555 1_555
C4 O4 1_555 1_555
O7 C3 1_555 1_555
O8 C4 1_555 1_555
In3 O7 1_555 1_555
O9 In1 1_555 1_555
C3 C4 1_555 1_555
O8 In3 1_555 1_555
O1 C1 1_555 1_555
In2 O5 1_555 1_555
O1_2 C1_2 1_555 1_555
In2_2 O5_2 1_555 1_555
O2_2 In1_2 1_555 1_555
O3_2 In1_2 1_555 1_555
O4_2 In1_2 1_555 1_555
C2_2 O2_2 1_555 1_555
C3_2 O3_2 1_555 1_555
C4_2 O4_2 1_555 1_555
O7_2 C3_2 1_555 1_555
O8_2 C4_2 1_555 1_555
In3_2 O7_2 1_555 1_555
O9_2 In1_2 1_555 1_555
C3_2 C4_2 1_555 1_555
O8_2 In3_2 1_555 1_555
O6_3 C2_3 1_555 1_555
In2_3 O5_3 1_555 1_555
O6_3 In2_3 1_555 1_555
In1_3 O1_3 1_555 1_555
O1_3 C1_3 1_555 1_555
O2_3 In1_3 1_555 1_555
O3_3 In1_3 1_555 1_555
O4_3 In1_3 1_555 1_555
C3_3 O3_3 1_555 1_555
C4_3 O4_3 1_555 1_555
O7_3 C3_3 1_555 1_555
O8_3 C4_3 1_555 1_555
In3_3 O7_3 1_555 1_555
O9_3 In1_3 1_555 1_555
O10_3 In1_3 1_555 1_555
O11_3 In1_3 1_555 1_555
O12_3 In1_3 1_555 1_555
C3_3 C4_3 1_555 1_555
O8_3 In3_3 1_555 1_555
In1_4 O1_4 1_555 1_555
O1_4 C1_4 1_555 1_555
O2_4 In1_4 1_555 1_555
O3_4 In1_4 1_555 1_555
O4_4 In1_4 1_555 1_555
C1_4 C2_4 1_555 1_555
C2_4 O2_4 1_555 1_555
C3_4 O3_4 1_555 1_555
C4_4 O4_4 1_555 1_555
O5_4 C1_4 1_555 1_555
O6_4 C2_4 1_555 1_555
O11_2 C3_4 1_555 1_555
O12_2 C4_4 1_555 1_555
In3 O5_4 1_555 1_555
O9_4 In1_4 1_555 1_555
O10_4 In1_4 1_555 1_555
O11_4 In1_4 1_555 1_555
O12_4 In1_4 1_555 1_555
C3_4 C4_4 1_555 1_555
O6_4 In3 1_555 1_555
O2_5 In2_2 1_555 1_555
O3_5 In2_2 1_555 1_555
O4_5 In2_2 1_555 1_555
C2_5 O2_5 1_555 1_555
C3_5 O3_5 1_555 1_555
C4_5 O4_5 1_555 1_555
O10_2 C2_5 1_555 1_555
O11_3 C3_5 1_555 1_555
O12_3 C4_5 1_555 1_555
C3_5 C4_5 1_555 1_555
O1_5 C1_5 1_555 1_555
O9_2 C1_5 1_555 1_555
O1_6 C1_6 1_555 1_555
O9 C1_6 1_555 1_555
O2_6 In2 1_555 1_555
O3_6 In2 1_555 1_555
O4_6 In2 1_555 1_555
C2_6 O2_6 1_555 1_555
C3_6 O3_6 1_555 1_555
C4_6 O4_6 1_555 1_555
O10 C2_6 1_555 1_555
O7_4 C3_6 1_555 1_555
O8_4 C4_6 1_555 1_555
In3_4 O7_4 1_555 1_555
C3_6 C4_6 1_555 1_555
O8_4 In3_4 1_555 1_555
O4_7 In3 1_555 1_555
C4_7 O4_7 1_555 1_555
O8_5 C4_7 1_555 1_555
O1_7 C1_7 1_555 1_555
C1_7 C2_7 1_555 1_555
C2_7 O2_7 1_555 1_555
C3_7 O3_7 1_555 1_555
O9_4 C1_7 1_555 1_555
O10_4 C2_7 1_555 1_555
O7_5 C3_7 1_555 1_555
In3_5 O7_5 1_555 1_555
O4_8 In2_3 1_555 1_555
C4_8 O4_8 1_555 1_555
O12_6 C4_8 1_555 1_555
O11_7 In2_3 1_555 1_555
O12_7 In2_3 1_555 1_555
O1_8 C1_8 1_555 1_555
C3_8 O3_8 1_555 1_555
O11_6 C3_8 1_555 1_555
O10_3 C2_8 1_555 1_555
In3_5 O1_9 1_555 1_555
O1_9 C1_9 1_555 1_555
O2_9 In3_5 1_555 1_555
O3_9 In3_5 1_555 1_555
O4_9 In3_5 1_555 1_555
C1_9 C2_9 1_555 1_555
C2_9 O2_9 1_555 1_555
C3_9 O3_9 1_555 1_555
C4_9 O4_9 1_555 1_555
O5_5 C1_9 1_555 1_555
O6_5 C2_9 1_555 1_555
O7_6 C3_9 1_555 1_555
O8_6 C4_9 1_555 1_555
In2_4 O5_5 1_555 1_555
In3_6 O7_6 1_555 1_555
O9_5 In3_5 1_555 1_555
O10_5 In3_5 1_555 1_555
C3_9 C4_9 1_555 1_555
O6_5 In2_4 1_555 1_555
O8_6 In3_6 1_555 1_555
In1_5 O1_10 1_555 1_555
O1_10 C1_10 1_555 1_555
O2_10 In1_5 1_555 1_555
O3_10 In1_5 1_555 1_555
O4_10 In1_5 1_555 1_555
C1_10 C2_10 1_555 1_555
C2_10 O2_10 1_555 1_555
C3_10 O3_10 1_555 1_555
C4_10 O4_10 1_555 1_555
O5_6 C1_10 1_555 1_555
O6_6 C2_10 1_555 1_555
O11_4 C3_10 1_555 1_555
O12_4 C4_10 1_555 1_555
In3_3 O5_6 1_555 1_555
O9_6 In1_5 1_555 1_555
O10_6 In1_5 1_555 1_555
O11_8 In1_5 1_555 1_555
C3_10 C4_10 1_555 1_555
O6_6 In3_3 1_555 1_555
O6_7 C2_11 1_555 1_555
In3_4 O5_7 1_555 1_555
O6_7 In3_4 1_555 1_555
O4_11 In1_6 1_555 1_555
C4_11 O4_11 1_555 1_555
O12_5 C4_11 1_555 1_555
O9_7 In1_6 1_555 1_555
O10_7 In1_6 1_555 1_555
O11_9 In1_6 1_555 1_555
O12_9 In1_6 1_555 1_555
O1_11 C1_11 1_555 1_555
C3_11 O3_11 1_555 1_555
O11_5 C3_11 1_555 1_555
O4_12 In3_2 1_555 1_555
C4_12 O4_12 1_555 1_555
O12_8 C4_12 1_555 1_555
O9_8 In3_2 1_555 1_555
O10_8 In3_2 1_555 1_555
O1_12 C1_12 1_555 1_555
C1_12 C2_12 1_555 1_555
C2_12 O2_12 1_555 1_555
C3_12 O3_12 1_555 1_555
O5_8 C1_12 1_555 1_555
O6_8 C2_12 1_555 1_555
O11_8 C3_12 1_555 1_555
In3_6 O5_8 1_555 1_555
O6_8 In3_6 1_555 1_555
In3_3 O1_13 1_555 1_555
O1_13 C1_13 1_555 1_555
O2_13 In3_3 1_555 1_555
O3_13 In3_3 1_555 1_555
O4_13 In3_3 1_555 1_555
C1_13 C2_13 1_555 1_555
C2_13 O2_13 1_555 1_555
C3_13 O3_13 1_555 1_555
C4_13 O4_13 1_555 1_555
O11_9 C3_13 1_555 1_555
O12_9 C4_13 1_555 1_555
C3_13 C4_13 1_555 1_555
In2_4 O1_14 1_555 1_555
O1_14 C1_14 1_555 1_555
O2_14 In2_4 1_555 1_555
O3_14 In2_4 1_555 1_555
O4_14 In2_4 1_555 1_555
C1_14 C2_14 1_555 1_555
C2_14 O2_14 1_555 1_555
C3_14 O3_14 1_555 1_555
C4_14 O4_14 1_555 1_555
O11_7 C3_14 1_555 1_555
O12_7 C4_14 1_555 1_555
O11_10 In2_4 1_555 1_555
O12_10 In2_4 1_555 1_555
C3_14 C4_14 1_555 1_555
In3_6 O1_15 1_555 1_555
O1_15 C1_15 1_555 1_555
O2_15 In3_6 1_555 1_555
O3_15 In3_6 1_555 1_555
O4_15 In3_6 1_555 1_555
C1_15 C2_15 1_555 1_555
C2_15 O2_15 1_555 1_555
C3_15 O3_15 1_555 1_555
C4_15 O4_15 1_555 1_555
O9_8 C1_15 1_555 1_555
O10_8 C2_15 1_555 1_555
O11 C3_15 1_555 1_555
O12 C4_15 1_555 1_555
C3_15 C4_15 1_555 1_555
In3_4 O1_16 1_555 1_555
O1_16 C1_16 1_555 1_555
O2_16 In3_4 1_555 1_555
O3_16 In3_4 1_555 1_555
O4_16 In3_4 1_555 1_555
C3_16 O3_16 1_555 1_555
C4_16 O4_16 1_555 1_555
O11_10 C3_16 1_555 1_555
O12_10 C4_16 1_555 1_555
C3_16 C4_16 1_555 1_555
O10_7 C2_16 1_555 1_555
C5 H1 1_555 1_555
H2 C5 1_555 1_555
N1 C5 1_555 1_555
H3 N1 1_555 1_555
H4 N1 1_555 1_555
H5 N1 1_555 1_555
C6 C5 1_555 1_555
H6 C6 1_555 1_555
H7 C6 1_555 1_555
N2 C6 1_555 1_555
H8 N2 1_555 1_555
H9 N2 1_555 1_555
H10 N2 1_555 1_555
C5_2 H1_2 1_555 1_555
H2_2 C5_2 1_555 1_555
N1_2 C5_2 1_555 1_555
H3_2 N1_2 1_555 1_555
H4_2 N1_2 1_555 1_555
H5_2 N1_2 1_555 1_555
C6_2 C5_2 1_555 1_555
H6_2 C6_2 1_555 1_555
H7_2 C6_2 1_555 1_555
N2_2 C6_2 1_555 1_555
H8_2 N2_2 1_555 1_555
H9_2 N2_2 1_555 1_555
H10_2 N2_2 1_555 1_555
H6_3 C6_3 1_555 1_555
H7_3 C6_3 1_555 1_555
H8_3 N2_3 1_555 1_555
H9_3 N2_3 1_555 1_555
H10_3 N2_3 1_555 1_555
C5_3 H1_3 1_555 1_555
H2_3 C5_3 1_555 1_555
H3_3 N1_3 1_555 1_555
H4_3 N1_3 1_555 1_555
H5_3 N1_3 1_555 1_555
C5_4 H1_4 1_555 1_555
H2_4 C5_4 1_555 1_555
H8_4 N2_4 1_555 1_555
H9_4 N2_4 1_555 1_555
H6_4 C6_4 1_555 1_555
H7_4 C6_4 1_555 1_555
H3_4 N1_4 1_555 1_555
H4_4 N1_4 1_555 1_555
C5_5 H1_5 1_555 1_555
H2_5 C5_5 1_555 1_555
N1_5 C5_5 1_555 1_555
H3_5 N1_5 1_555 1_555
H4_5 N1_5 1_555 1_555
H5_5 N1_5 1_555 1_555
C6_5 C5_5 1_555 1_555
H6_5 C6_5 1_555 1_555
H7_5 C6_5 1_555 1_555
N2_5 C6_5 1_555 1_555
H8_5 N2_5 1_555 1_555
H9_5 N2_5 1_555 1_555
H10_5 N2_5 1_555 1_555
C5_6 H1_6 1_555 1_555
H2_6 C5_6 1_555 1_555
N1_6 C5_6 1_555 1_555
H3_6 N1_6 1_555 1_555
H4_6 N1_6 1_555 1_555
H5_6 N1_6 1_555 1_555
C6_6 C5_6 1_555 1_555
H6_6 C6_6 1_555 1_555
H7_6 C6_6 1_555 1_555
N2_6 C6_6 1_555 1_555
H8_6 N2_6 1_555 1_555
H9_6 N2_6 1_555 1_555
H10_6 N2_6 1_555 1_555
C5_7 H1_7 1_555 1_555
H2_7 C5_7 1_555 1_555
N1_7 C5_7 1_555 1_555
H3_7 N1_7 1_555 1_555
H4_7 N1_7 1_555 1_555
H5_7 N1_7 1_555 1_555
C6_7 C5_7 1_555 1_555
H6_7 C6_7 1_555 1_555
H7_7 C6_7 1_555 1_555
N2_7 C6_7 1_555 1_555
H8_7 N2_7 1_555 1_555
H9_7 N2_7 1_555 1_555
H10_7 N2_7 1_555 1_555
C5_8 H1_8 1_555 1_555
H2_8 C5_8 1_555 1_555
H8_8 N2_8 1_555 1_555
H9_8 N2_8 1_555 1_555
H3_8 N1_8 1_555 1_555
H4_8 N1_8 1_555 1_555
H6_8 C6_8 1_555 1_555
H7_8 C6_8 1_555 1_555

#END
