
###############################################################################
#
# This file contains modified crystal structure data generated from the
# MOF subset of the Cambridge Structural Database (CSD) v543 
# hosted by the Cambridge Crystallographic Data Centre (CCDC).
#
# This work is licensed under the Creative Commons
# Attribution-NonCommercial-ShareAlike 4.0 International License.
# To view a copy of this license, visit
# http://creativecommons.org/licenses/by-nc-sa/4.0/
# or send a letter to
# Creative Commons, PO Box 1866, Mountain View, CA 94042, USA.
#
# CIF created using the CSD Python API on 29 September 2022
# The structure has been converted into the P1 space group
# The structure has a 3D framework
# The original CSD entry NOQNOY is in the monoclinic crystal system
# The framework has been calculated to contain at least 10.0% void space
# The void calculation uses a probe of radius 1.32A, grid spacing 0.4
#
###############################################################################

data_NOQNOY
_chemical_formula_moiety         '(C84 H88 Ca19 Ce4 N12 O72)n'
_symmetry_cell_setting           triclinic
_symmetry_space_group_name_H-M   'P 1'
_symmetry_Int_Tables_number      1
_space_group_name_Hall           'P 1'
loop_
_symmetry_equiv_pos_site_id
_symmetry_equiv_pos_as_xyz
1 x,y,z
_cell_length_a                   16.264(4)
_cell_length_b                   9.433(2)
_cell_length_c                   24.124(6)
_cell_angle_alpha                90
_cell_angle_beta                 108.312(4)
_cell_angle_gamma                90
_cell_volume                     3513.64
loop_
_atom_site_label
_atom_site_type_symbol
_atom_site_fract_x
_atom_site_fract_y
_atom_site_fract_z
H32 H 0.021(7) 0.370(13) 0.566(5)
H33 H 0.024(9) 0.528(12) 0.636(6)
Ca6 Ca 0.0000 -0.0000 0.5000
Ca6_2 Ca 0.0000 1.0000 0.5000
Ca5 Ca 0.5000 0.00585(13) 0.2500
C1 C 0.2041(5) 0.4407(10) 0.2886(3)
O1 O 0.5194(2) 0.8091(4) 0.19075(17)
O2 O 0.4674(3) 0.1024(4) 0.14812(17)
Ce1 Ce 0.297708(16) 0.50883(2) 0.096692(12)
Ca1 Ca 0.5000 0.0000 0.0000
Ca3 Ca 0.0000 0.0000 0.0000
O3 O 0.2992(2) 0.6929(4) 0.02080(17)
O4 O 0.3724(3) 0.3219(4) 0.16788(16)
O5 O 0.1789(2) 0.3277(4) 0.08142(17)
O6 O 0.3439(2) 0.3317(4) 0.03490(17)
C2 C 0.4207(4) 0.3136(5) 0.0336(2)
N1 N 0.4583(3) 0.5139(4) 0.0978(2)
O7 O 0.3950(2) 0.6917(4) 0.15730(17)
O8 O 0.4007(3) 0.2027(4) 0.25129(17)
O9 O 0.4441(3) 0.2176(4) 0.00709(18)
C3 C 0.4867(3) 0.4201(5) 0.0665(2)
C4 C 0.1143(3) 0.3130(5) 0.0363(2)
C5 C 0.3615(3) 0.2948(5) 0.2164(2)
C6 C 0.4738(3) 0.7135(5) 0.1620(2)
O10 O 0.0593(3) 0.2178(4) 0.0286(2)
C8 C 0.5127(3) 0.6123(5) 0.1285(2)
C9 C 0.5703(4) 0.4231(6) 0.0634(3)
C10 C 0.2948(3) 0.3832(6) 0.2317(2)
C13 C 0.5974(4) 0.6229(7) 0.1277(3)
C15 C 0.6258(4) 0.5279(7) 0.0946(3)
H1 H 0.6821 0.5336 0.0931
N3 N 0.2620(3) 0.4894(4) 0.1944(2)
O12 O 0.1930(3) 0.6856(4) 0.11465(18)
O13 O 0.1145(3) 0.7736(6) 0.1679(2)
C17 C 0.1663(3) 0.6884(6) 0.1592(3)
C18 C 0.2014(3) 0.5725(6) 0.2043(2)
C20 C 0.2668(4) 0.3560(8) 0.2790(3)
H2 H 0.2902 0.2811 0.3041
C21 C 0.1711(5) 0.5534(9) 0.2510(3)
O16 O 0.6146(3) 0.0593(5) 0.0860(2)
H3 H 0.172(7) 0.415(13) 0.317(5)
H8 H 0.033(6) -0.000(13) 0.119(6)
H9 H 0.370(10) 0.002(7) 0.209(7)
H11 H 0.656(6) 0.053(15) 0.078(6)
H13 H 0.517(5) 0.133(14) 0.149(6)
H14 H 0.447(7) 0.155(12) 0.167(5)
H15 H 0.6085 0.0025 0.1106
H16 H 0.575(7) 0.367(12) 0.033(5)
H17 H 0.636(7) 0.711(12) 0.143(5)
H21 H 0.125(7) 0.623(12) 0.254(5)
C22 C 0.7959(5) 0.4407(10) 0.2114(3)
O19 O 0.4806(2) 0.8091(4) 0.30925(17)
O20 O 0.5326(3) 0.1024(4) 0.35188(17)
Ce2 Ce 0.702292(16) 0.50883(2) 0.403308(12)
O21 O 0.7008(2) 0.6929(4) 0.47920(17)
O22 O 0.6276(3) 0.3219(4) 0.33212(16)
O23 O 0.8211(2) 0.3277(4) 0.41858(17)
O24 O 0.6561(2) 0.3317(4) 0.46510(17)
C23 C 0.5793(4) 0.3136(5) 0.4664(2)
N4 N 0.5417(3) 0.5139(4) 0.4022(2)
O25 O 0.6050(2) 0.6917(4) 0.34270(17)
O26 O 0.5993(3) 0.2027(4) 0.24871(17)
O27 O 0.5559(3) 0.2176(4) 0.49291(18)
C24 C 0.5133(3) 0.4201(5) 0.4335(2)
C25 C 0.8857(3) 0.3130(5) 0.4637(2)
C26 C 0.6385(3) 0.2948(5) 0.2836(2)
N5 N 0.8305(3) 0.5130(4) 0.5019(2)
C27 C 0.5262(3) 0.7135(5) 0.3380(2)
C28 C 0.7560(3) 0.7064(6) 0.5293(2)
O28 O 0.9407(3) 0.2178(4) 0.4714(2)
C29 C 0.4873(3) 0.6123(5) 0.3715(2)
O29 O 0.7500(3) 0.7889(5) 0.5682(2)
C30 C 0.4297(4) 0.4231(6) 0.4366(3)
C31 C 0.7052(3) 0.3832(6) 0.2683(2)
C32 C 0.8342(3) 0.6115(6) 0.5427(2)
C33 C 0.8960(3) 0.4206(5) 0.5111(2)
C34 C 0.4026(4) 0.6229(7) 0.3723(3)
C35 C 0.9046(4) 0.6243(7) 0.5929(3)
C36 C 0.3742(4) 0.5279(7) 0.4054(3)
H22 H 0.3179 0.5336 0.4069
C37 C 0.9689(4) 0.4262(7) 0.5600(3)
N6 N 0.7380(3) 0.4894(4) 0.3056(2)
O30 O 0.8070(3) 0.6856(4) 0.38535(18)
O31 O 0.8855(3) 0.7736(6) 0.3321(2)
C38 C 0.8337(3) 0.6884(6) 0.3408(3)
C39 C 0.7986(3) 0.5725(6) 0.2957(2)
C40 C 0.9730(5) 0.5308(9) 0.6017(3)
C41 C 0.7332(4) 0.3560(8) 0.2210(3)
H23 H 0.7098 0.2811 0.1959
C42 C 0.8289(5) 0.5534(9) 0.2490(3)
H24 H 0.828(7) 0.415(13) 0.183(5)
H26 H 0.630(10) 0.002(7) 0.291(7)
H27 H 0.483(5) 0.133(14) 0.351(6)
H28 H 0.553(7) 0.155(12) 0.333(5)
H29 H 0.425(7) 0.367(12) 0.467(5)
H30 H 0.364(7) 0.711(12) 0.357(5)
H31 H 0.903(7) 0.679(12) 0.627(5)
H34 H 0.875(7) 0.623(12) 0.246(5)
Ca4 Ca 0.5000 -0.0000 0.5000
Ca6_3 Ca 1.0000 -0.0000 0.5000
Ca1_2 Ca 0.5000 -0.0000 1.0000
Ca3_2 Ca 0.0000 -0.0000 1.0000
N2 N 0.1695(3) 0.5130(4) 0.9981(2)
C7 C 0.2440(3) 0.7064(6) 0.9707(2)
O11 O 0.2500(3) 0.7889(5) 0.9318(2)
C11 C 0.1658(3) 0.6115(6) 0.9573(2)
C12 C 0.1040(3) 0.4206(5) 0.9889(2)
C14 C 0.0954(4) 0.6243(7) 0.9071(3)
C16 C 0.0311(4) 0.4262(7) 0.9400(3)
C19 C 0.0270(5) 0.5308(9) 0.8983(3)
H18 H 0.097(7) 0.679(12) 0.873(5)
O33 O 0.5849(3) 0.0882(5) 0.9464(2)
H35 H 0.606(8) 0.163(8) 0.951(5)
H36 H 0.569(9) 0.046(11) 0.919(3)
O36 O 0.0045(5) 0.0474(8) 0.9052(3)
H42 H 0.055(3) 0.025(14) 0.914(7)
Ca1_3 Ca 0.5000 1.0000 0.0000
Ca3_3 Ca -0.0000 1.0000 0.0000
O14 O 0.3491(3) 0.9233(5) 0.2093(2)
O15 O 0.4151(3) 0.9118(5) 0.0536(2)
O17 O 0.1395(3) 0.9064(5) 0.0349(3)
H4 H 0.163(8) 0.839(11) 0.061(5)
H5 H 0.394(8) 0.837(8) 0.049(5)
H6 H 0.431(9) 0.954(11) 0.081(3)
H7 H 0.363(8) 0.864(10) 0.190(5)
H8_2 H 0.033(6) 1.000(13) 0.119(6)
H10 H 0.170(5) 0.951(11) 0.034(6)
O32 O 0.6509(3) 0.9233(5) 0.2907(2)
H25 H 0.637(8) 0.864(10) 0.310(5)
Ca4_2 Ca 0.5000 1.0000 0.5000
Ca6_4 Ca 1.0000 1.0000 0.5000
Ca1_4 Ca 0.5000 1.0000 1.0000
Ca3_4 Ca 0.0000 1.0000 1.0000
O34 O 0.3854(3) 0.9407(5) 0.9140(2)
H37 H 0.344(6) 0.947(15) 0.922(6)
H38 H 0.3915 0.9975 0.8894
O39 O 0.5559(3) 0.7824(4) 0.99291(18)
Ca3_5 Ca 1.0000 0.0000 0.0000
Ca3_6 Ca 1.0000 -0.0000 1.0000
H19 H 0.979(7) 0.370(13) 0.934(5)
H20 H 0.976(9) 0.528(12) 0.864(6)
O35 O 0.8605(3) 0.0936(5) 0.9651(3)
H39 H 0.837(8) 0.161(11) 0.939(5)
H40 H 0.830(5) 0.049(11) 0.966(6)
H41 H 0.967(6) -0.000(13) 0.881(6)
Ca3_7 Ca 1.0000 1.0000 0.0000
O18 O 0.9955(5) 0.9526(8) 0.0948(3)
H12 H 0.945(3) 0.975(14) 0.086(7)
Ca3_8 Ca 1.0000 1.0000 1.0000
H41_2 H 0.967(6) 1.000(13) 0.881(6)
O40 O 0.9407(3) 0.7822(4) 0.9714(2)
O35_2 O 0.1395(3) 0.0936(5) 0.5349(3)
H39_2 H 0.163(8) 0.161(11) 0.561(5)
H40_2 H 0.170(5) 0.049(11) 0.534(6)
H41_3 H 0.033(6) 0.000(13) 0.619(6)
O18_2 O 0.0045(5) 0.9526(8) 0.4052(3)
H12_2 H 0.055(3) 0.975(14) 0.414(7)
H41_4 H 0.033(6) 1.000(13) 0.619(6)
O40_2 O 0.0593(3) 0.7822(4) 0.5286(2)
O16_2 O 0.3854(3) 0.0593(5) 0.4140(2)
H8_3 H 0.967(6) 0.000(13) 0.381(6)
H11_2 H 0.344(6) 0.053(15) 0.422(6)
H15_2 H 0.3915 0.0025 0.3894
O33_2 O 0.4151(3) 0.0882(5) 0.5536(2)
H35_2 H 0.394(8) 0.163(8) 0.549(5)
H36_2 H 0.431(9) 0.046(11) 0.581(3)
O36_2 O 0.9955(5) 0.0474(8) 0.5948(3)
H42_2 H 0.945(3) 0.025(14) 0.586(7)
O15_2 O 0.5849(3) 0.9118(5) 0.4464(2)
O17_2 O 0.8605(3) 0.9064(5) 0.4651(3)
H4_2 H 0.837(8) 0.839(11) 0.439(5)
H5_2 H 0.606(8) 0.837(8) 0.451(5)
H6_2 H 0.569(9) 0.954(11) 0.419(3)
H8_4 H 0.967(6) 1.000(13) 0.381(6)
H10_2 H 0.830(5) 0.951(11) 0.466(6)
O34_2 O 0.6146(3) 0.9407(5) 0.5860(2)
H37_2 H 0.656(6) 0.947(15) 0.578(6)
H38_2 H 0.6085 0.9975 0.6106
O39_2 O 0.4441(3) 0.7824(4) 0.50709(18)
H19_2 H 0.021(7) 0.630(13) 0.066(5)
H20_2 H 0.024(9) 0.472(12) 0.136(6)
O14_2 O 0.6509(3) 0.0767(5) 0.7907(2)
H7_2 H 0.637(8) 0.136(10) 0.810(5)
O32_2 O 0.3491(3) 0.0767(5) 0.7093(2)
H25_2 H 0.363(8) 0.136(10) 0.690(5)
O37 O 0.4806(2) 0.1909(4) 0.80925(17)
O38 O 0.5194(2) 0.1909(4) 0.69075(17)
N2_2 N 0.8305(3) 0.4870(4) 0.0019(2)
C7_2 C 0.7560(3) 0.2936(6) 0.0293(2)
O11_2 O 0.7500(3) 0.2111(5) 0.0682(2)
C11_2 C 0.8342(3) 0.3885(6) 0.0427(2)
C12_2 C 0.8960(3) 0.5794(5) 0.0111(2)
C14_2 C 0.9046(4) 0.3757(7) 0.0929(3)
C16_2 C 0.9689(4) 0.5738(7) 0.0600(3)
C19_2 C 0.9730(5) 0.4692(9) 0.1017(3)
H18_2 H 0.903(7) 0.321(12) 0.127(5)
C1_2 C 0.7959(5) 0.5593(10) 0.7114(3)
O2_2 O 0.5326(3) 0.8976(4) 0.85188(17)
Ce1_2 Ce 0.702292(16) 0.49117(2) 0.903308(12)
Ca2 Ca 0.5000 0.99415(13) 0.7500
O3_2 O 0.7008(2) 0.3071(4) 0.97920(17)
O4_2 O 0.6276(3) 0.6781(4) 0.83212(16)
O5_2 O 0.8211(2) 0.6723(4) 0.91858(17)
O6_2 O 0.6561(2) 0.6683(4) 0.96510(17)
C2_2 C 0.5793(4) 0.6864(5) 0.9664(2)
N1_2 N 0.5417(3) 0.4861(4) 0.9022(2)
O7_2 O 0.6050(2) 0.3083(4) 0.84270(17)
O8_2 O 0.5993(3) 0.7973(4) 0.74871(17)
C3_2 C 0.5133(3) 0.5799(5) 0.9335(2)
C4_2 C 0.8857(3) 0.6870(5) 0.9637(2)
C5_2 C 0.6385(3) 0.7052(5) 0.7836(2)
C6_2 C 0.5262(3) 0.2865(5) 0.8380(2)
C8_2 C 0.4873(3) 0.3877(5) 0.8715(2)
C9_2 C 0.4297(4) 0.5769(6) 0.9366(3)
C10_2 C 0.7052(3) 0.6168(6) 0.7683(2)
C13_2 C 0.4026(4) 0.3771(7) 0.8723(3)
C15_2 C 0.3742(4) 0.4721(7) 0.9054(3)
H1_2 H 0.3179 0.4664 0.9069
N3_2 N 0.7380(3) 0.5106(4) 0.8056(2)
O12_2 O 0.8070(3) 0.3144(4) 0.88535(18)
O13_2 O 0.8855(3) 0.2264(6) 0.8321(2)
C17_2 C 0.8337(3) 0.3116(6) 0.8408(3)
C18_2 C 0.7986(3) 0.4275(6) 0.7957(2)
C20_2 C 0.7332(4) 0.6440(8) 0.7210(3)
H2_2 H 0.7098 0.7189 0.6959
C21_2 C 0.8289(5) 0.4466(9) 0.7490(3)
H3_2 H 0.828(7) 0.585(13) 0.683(5)
H9_2 H 0.630(10) 0.998(7) 0.791(7)
H13_2 H 0.483(5) 0.867(14) 0.851(6)
H14_2 H 0.553(7) 0.845(12) 0.833(5)
H16_2 H 0.425(7) 0.633(12) 0.967(5)
H17_2 H 0.364(7) 0.289(12) 0.857(5)
H21_2 H 0.875(7) 0.377(12) 0.746(5)
C22_2 C 0.2041(5) 0.5593(10) 0.7886(3)
O20_2 O 0.4674(3) 0.8976(4) 0.64812(17)
Ce2_2 Ce 0.297708(16) 0.49117(2) 0.596692(12)
O21_2 O 0.2992(2) 0.3071(4) 0.52080(17)
O22_2 O 0.3724(3) 0.6781(4) 0.66788(16)
O23_2 O 0.1789(2) 0.6723(4) 0.58142(17)
O24_2 O 0.3439(2) 0.6683(4) 0.53490(17)
C23_2 C 0.4207(4) 0.6864(5) 0.5336(2)
N4_2 N 0.4583(3) 0.4861(4) 0.5978(2)
O25_2 O 0.3950(2) 0.3083(4) 0.65730(17)
O26_2 O 0.4007(3) 0.7973(4) 0.75129(17)
C24_2 C 0.4867(3) 0.5799(5) 0.5665(2)
C25_2 C 0.1143(3) 0.6870(5) 0.5363(2)
C26_2 C 0.3615(3) 0.7052(5) 0.7164(2)
N5_2 N 0.1695(3) 0.4870(4) 0.4981(2)
C27_2 C 0.4738(3) 0.2865(5) 0.6620(2)
C28_2 C 0.2440(3) 0.2936(6) 0.4707(2)
C29_2 C 0.5127(3) 0.3877(5) 0.6285(2)
O29_2 O 0.2500(3) 0.2111(5) 0.4318(2)
C30_2 C 0.5703(4) 0.5769(6) 0.5634(3)
C31_2 C 0.2948(3) 0.6168(6) 0.7317(2)
C32_2 C 0.1658(3) 0.3885(6) 0.4573(2)
C33_2 C 0.1040(3) 0.5794(5) 0.4889(2)
C34_2 C 0.5974(4) 0.3771(7) 0.6277(3)
C35_2 C 0.0954(4) 0.3757(7) 0.4071(3)
C36_2 C 0.6258(4) 0.4721(7) 0.5946(3)
H22_2 H 0.6821 0.4664 0.5931
C37_2 C 0.0311(4) 0.5738(7) 0.4400(3)
N6_2 N 0.2620(3) 0.5106(4) 0.6944(2)
O30_2 O 0.1930(3) 0.3144(4) 0.61465(18)
O31_2 O 0.1145(3) 0.2264(6) 0.6679(2)
C38_2 C 0.1663(3) 0.3116(6) 0.6592(3)
C39_2 C 0.2014(3) 0.4275(6) 0.7043(2)
C40_2 C 0.0270(5) 0.4692(9) 0.3983(3)
C41_2 C 0.2668(4) 0.6440(8) 0.7790(3)
H23_2 H 0.2902 0.7189 0.8041
C42_2 C 0.1711(5) 0.4466(9) 0.7510(3)
H24_2 H 0.172(7) 0.585(13) 0.817(5)
H26_2 H 0.370(10) 0.998(7) 0.709(7)
H27_2 H 0.517(5) 0.867(14) 0.649(6)
H28_2 H 0.447(7) 0.845(12) 0.667(5)
H29_2 H 0.575(7) 0.633(12) 0.533(5)
H30_2 H 0.636(7) 0.289(12) 0.643(5)
H31_2 H 0.097(7) 0.321(12) 0.373(5)
H34_2 H 0.125(7) 0.377(12) 0.754(5)
H32_2 H 0.979(7) 0.630(13) 0.434(5)
H33_2 H 0.976(9) 0.472(12) 0.364(6)
loop_
_geom_bond_atom_site_label_1
_geom_bond_atom_site_label_2
_geom_bond_site_symmetry_1
_geom_bond_site_symmetry_2
C1 C20 1_555 1_555
O1 C6 1_555 1_555
O2 Ca5 1_555 1_555
Ce1 O3 1_555 1_555
Ca1 O9 1_555 1_555
Ca5 O8 1_555 1_555
Ca3 O10 1_555 1_555
O4 Ce1 1_555 1_555
O5 Ce1 1_555 1_555
O6 Ce1 1_555 1_555
C2 O6 1_555 1_555
N1 Ce1 1_555 1_555
O7 Ce1 1_555 1_555
O8 C5 1_555 1_555
O9 C2 1_555 1_555
C3 C2 1_555 1_555
C4 O5 1_555 1_555
C5 O4 1_555 1_555
C6 O7 1_555 1_555
O10 C4 1_555 1_555
C8 N1 1_555 1_555
C9 C3 1_555 1_555
C10 C5 1_555 1_555
C13 C8 1_555 1_555
C15 C9 1_555 1_555
H1 C15 1_555 1_555
N3 Ce1 1_555 1_555
O12 Ce1 1_555 1_555
O13 C17 1_555 1_555
C17 O12 1_555 1_555
C18 N3 1_555 1_555
C20 C10 1_555 1_555
H2 C20 1_555 1_555
C21 C1 1_555 1_555
O16 Ca1 1_555 1_555
H3 C1 1_555 1_555
H11 O16 1_555 1_555
H13 O2 1_555 1_555
H14 O2 1_555 1_555
H15 O16 1_555 1_555
H16 C9 1_555 1_555
H17 C13 1_555 1_555
H21 C21 1_555 1_555
C22 C41 1_555 1_555
O19 C27 1_555 1_555
O20 Ca5 1_555 1_555
Ce2 O21 1_555 1_555
O21 C28 1_555 1_555
O22 Ce2 1_555 1_555
O23 Ce2 1_555 1_555
O24 Ce2 1_555 1_555
C23 O24 1_555 1_555
N4 Ce2 1_555 1_555
O25 Ce2 1_555 1_555
O26 Ca5 1_555 1_555
O27 C23 1_555 1_555
C24 C23 1_555 1_555
C25 O23 1_555 1_555
C26 O22 1_555 1_555
N5 Ce2 1_555 1_555
C27 O25 1_555 1_555
C28 O29 1_555 1_555
O28 C25 1_555 1_555
C29 N4 1_555 1_555
C30 C24 1_555 1_555
C31 C26 1_555 1_555
C32 N5 1_555 1_555
C33 C25 1_555 1_555
C34 C29 1_555 1_555
C35 C32 1_555 1_555
C36 C30 1_555 1_555
H22 C36 1_555 1_555
C37 C33 1_555 1_555
N6 Ce2 1_555 1_555
O30 Ce2 1_555 1_555
O31 C38 1_555 1_555
C38 O30 1_555 1_555
C39 N6 1_555 1_555
C40 C35 1_555 1_555
C41 C31 1_555 1_555
H23 C41 1_555 1_555
C42 C22 1_555 1_555
H24 C22 1_555 1_555
H27 O20 1_555 1_555
H28 O20 1_555 1_555
H29 C30 1_555 1_555
H30 C34 1_555 1_555
H31 C35 1_555 1_555
H34 C42 1_555 1_555
Ca4 O27 1_555 1_555
Ca6_3 O28 1_555 1_555
N1 C3 1_555 1_555
C6 C8 1_555 1_555
C10 N3 1_555 1_555
C13 C15 1_555 1_555
C17 C18 1_555 1_555
C18 C21 1_555 1_555
N4 C24 1_555 1_555
O26 C26 1_555 1_555
N5 C33 1_555 1_555
C27 C29 1_555 1_555
C28 C32 1_555 1_555
C31 N6 1_555 1_555
C34 C36 1_555 1_555
C37 C40 1_555 1_555
C38 C39 1_555 1_555
C39 C42 1_555 1_555
C7 O11 1_555 1_555
C11 N2 1_555 1_555
C14 C11 1_555 1_555
C16 C12 1_555 1_555
C19 C14 1_555 1_555
H18 C14 1_555 1_555
O33 Ca1_2 1_555 1_555
H35 O33 1_555 1_555
H36 O33 1_555 1_555
O36 Ca3_2 1_555 1_555
H42 O36 1_555 1_555
N2 C12 1_555 1_555
C7 C11 1_555 1_555
C16 C19 1_555 1_555
O15 Ca1_3 1_555 1_555
O17 Ca3_3 1_555 1_555
H4 O17 1_555 1_555
H5 O15 1_555 1_555
H6 O15 1_555 1_555
H7 O14 1_555 1_555
H10 O17 1_555 1_555
H25 O32 1_555 1_555
O34 Ca1_4 1_555 1_555
H37 O34 1_555 1_555
H38 O34 1_555 1_555
O39 Ca1_4 1_555 1_555
O35 Ca3_6 1_555 1_555
H39 O35 1_555 1_555
H40 O35 1_555 1_555
O18 Ca3_7 1_555 1_555
H12 O18 1_555 1_555
O40 Ca3_8 1_555 1_555
O35_2 Ca6 1_555 1_555
H39_2 O35_2 1_555 1_555
H40_2 O35_2 1_555 1_555
O18_2 Ca6_2 1_555 1_555
H12_2 O18_2 1_555 1_555
O40_2 Ca6_2 1_555 1_555
O16_2 Ca4 1_555 1_555
H11_2 O16_2 1_555 1_555
H15_2 O16_2 1_555 1_555
O33_2 Ca4 1_555 1_555
H35_2 O33_2 1_555 1_555
H36_2 O33_2 1_555 1_555
O36_2 Ca6_3 1_555 1_555
H42_2 O36_2 1_555 1_555
O15_2 Ca4_2 1_555 1_555
O17_2 Ca6_4 1_555 1_555
H4_2 O17_2 1_555 1_555
H5_2 O15_2 1_555 1_555
H6_2 O15_2 1_555 1_555
H10_2 O17_2 1_555 1_555
O34_2 Ca4_2 1_555 1_555
H37_2 O34_2 1_555 1_555
H38_2 O34_2 1_555 1_555
O39_2 Ca4_2 1_555 1_555
H7_2 O14_2 1_555 1_555
H25_2 O32_2 1_555 1_555
C7_2 O11_2 1_555 1_555
C11_2 N2_2 1_555 1_555
C14_2 C11_2 1_555 1_555
C16_2 C12_2 1_555 1_555
C19_2 C14_2 1_555 1_555
H18_2 C14_2 1_555 1_555
N2_2 C12_2 1_555 1_555
C7_2 C11_2 1_555 1_555
C16_2 C19_2 1_555 1_555
C1_2 C20_2 1_555 1_555
O37 C6_2 1_555 1_555
O2_2 Ca2 1_555 1_555
Ce1_2 O3_2 1_555 1_555
Ca2 O8_2 1_555 1_555
O4_2 Ce1_2 1_555 1_555
O5_2 Ce1_2 1_555 1_555
O6_2 Ce1_2 1_555 1_555
C2_2 O6_2 1_555 1_555
N1_2 Ce1_2 1_555 1_555
O7_2 Ce1_2 1_555 1_555
O8_2 C5_2 1_555 1_555
O39 C2_2 1_555 1_555
C3_2 C2_2 1_555 1_555
C4_2 O5_2 1_555 1_555
C5_2 O4_2 1_555 1_555
C6_2 O7_2 1_555 1_555
O40 C4_2 1_555 1_555
C8_2 N1_2 1_555 1_555
C9_2 C3_2 1_555 1_555
C10_2 C5_2 1_555 1_555
C13_2 C8_2 1_555 1_555
C15_2 C9_2 1_555 1_555
H1_2 C15_2 1_555 1_555
N3_2 Ce1_2 1_555 1_555
O12_2 Ce1_2 1_555 1_555
O13_2 C17_2 1_555 1_555
C17_2 O12_2 1_555 1_555
C18_2 N3_2 1_555 1_555
C20_2 C10_2 1_555 1_555
H2_2 C20_2 1_555 1_555
C21_2 C1_2 1_555 1_555
H3_2 C1_2 1_555 1_555
H13_2 O2_2 1_555 1_555
H14_2 O2_2 1_555 1_555
H16_2 C9_2 1_555 1_555
H17_2 C13_2 1_555 1_555
H21_2 C21_2 1_555 1_555
C22_2 C41_2 1_555 1_555
O38 C27_2 1_555 1_555
O20_2 Ca2 1_555 1_555
Ce2_2 O21_2 1_555 1_555
O21_2 C28_2 1_555 1_555
O22_2 Ce2_2 1_555 1_555
O23_2 Ce2_2 1_555 1_555
O24_2 Ce2_2 1_555 1_555
C23_2 O24_2 1_555 1_555
N4_2 Ce2_2 1_555 1_555
O25_2 Ce2_2 1_555 1_555
O26_2 Ca2 1_555 1_555
O39_2 C23_2 1_555 1_555
C24_2 C23_2 1_555 1_555
C25_2 O23_2 1_555 1_555
C26_2 O22_2 1_555 1_555
N5_2 Ce2_2 1_555 1_555
C27_2 O25_2 1_555 1_555
C28_2 O29_2 1_555 1_555
O40_2 C25_2 1_555 1_555
C29_2 N4_2 1_555 1_555
C30_2 C24_2 1_555 1_555
C31_2 C26_2 1_555 1_555
C32_2 N5_2 1_555 1_555
C33_2 C25_2 1_555 1_555
C34_2 C29_2 1_555 1_555
C35_2 C32_2 1_555 1_555
C36_2 C30_2 1_555 1_555
H22_2 C36_2 1_555 1_555
C37_2 C33_2 1_555 1_555
N6_2 Ce2_2 1_555 1_555
O30_2 Ce2_2 1_555 1_555
O31_2 C38_2 1_555 1_555
C38_2 O30_2 1_555 1_555
C39_2 N6_2 1_555 1_555
C40_2 C35_2 1_555 1_555
C41_2 C31_2 1_555 1_555
H23_2 C41_2 1_555 1_555
C42_2 C22_2 1_555 1_555
H24_2 C22_2 1_555 1_555
H27_2 O20_2 1_555 1_555
H28_2 O20_2 1_555 1_555
H29_2 C30_2 1_555 1_555
H30_2 C34_2 1_555 1_555
H31_2 C35_2 1_555 1_555
H34_2 C42_2 1_555 1_555
N1_2 C3_2 1_555 1_555
C6_2 C8_2 1_555 1_555
C10_2 N3_2 1_555 1_555
C13_2 C15_2 1_555 1_555
C17_2 C18_2 1_555 1_555
C18_2 C21_2 1_555 1_555
N4_2 C24_2 1_555 1_555
O26_2 C26_2 1_555 1_555
N5_2 C33_2 1_555 1_555
C27_2 C29_2 1_555 1_555
C28_2 C32_2 1_555 1_555
C31_2 N6_2 1_555 1_555
C34_2 C36_2 1_555 1_555
C37_2 C40_2 1_555 1_555
C38_2 C39_2 1_555 1_555
C39_2 C42_2 1_555 1_555

#END
