
###############################################################################
#
# This file contains modified crystal structure data generated from the
# MOF subset of the Cambridge Structural Database (CSD) v543 
# hosted by the Cambridge Crystallographic Data Centre (CCDC).
#
# This work is licensed under the Creative Commons
# Attribution-NonCommercial-ShareAlike 4.0 International License.
# To view a copy of this license, visit
# http://creativecommons.org/licenses/by-nc-sa/4.0/
# or send a letter to
# Creative Commons, PO Box 1866, Mountain View, CA 94042, USA.
#
# CIF created using the CSD Python API on 29 September 2022
# The structure has been converted into the P1 space group
# The structure has a 3D framework
# The original CSD entry NORVOI is in the monoclinic crystal system
# The framework has been calculated to contain at least 10.0% void space
# The void calculation uses a probe of radius 1.32A, grid spacing 0.4
# H atom positions have been added when not included in the experimental data
#
###############################################################################

data_NORVOI
_chemical_formula_moiety         '(C400 H384 Co12 N64 O16 S16)n'
_symmetry_cell_setting           triclinic
_symmetry_space_group_name_H-M   'P 1'
_symmetry_Int_Tables_number      1
_space_group_name_Hall           'P 1'
loop_
_symmetry_equiv_pos_site_id
_symmetry_equiv_pos_as_xyz
1 x,y,z
_cell_length_a                   37.514(3)
_cell_length_b                   17.4813(11)
_cell_length_c                   26.6265(17)
_cell_angle_alpha                90
_cell_angle_beta                 133.660(3)
_cell_angle_gamma                90
_cell_volume                     12632.5
loop_
_atom_site_label
_atom_site_type_symbol
_atom_site_fract_x
_atom_site_fract_y
_atom_site_fract_z
N1 N 0.6756(2) 0.2623(3) 0.4623(3)
N7 N 0.5985(2) 0.0654(3) 0.4126(3)
C1 C 0.6547(3) 0.1984(4) 0.4582(4)
H1 H 0.6698 0.1510 0.4651
C4 C 0.6118(3) 0.1976(4) 0.4445(4)
C10 C 0.5261(3) 0.0191(4) 0.4822(5)
C13 C 0.5525(3) 0.0368(4) 0.4590(4)
C14 C 0.6528(3) 0.3294(4) 0.4514(4)
H6 H 0.6675 0.3758 0.4547
C17 C 0.5915(3) 0.1207(4) 0.4397(4)
C22 C 0.5679(3) 0.1099(4) 0.4620(4)
H9 H 0.5624 0.1515 0.4789
C28 C 0.5893(4) 0.2656(5) 0.4334(6)
H15 H 0.5598 0.2668 0.4240
C31 C 0.6103(3) 0.3333(5) 0.4361(6)
H17 H 0.5949 0.3812 0.4274
O3 O 0.5778(2) 0.1009(4) 0.5781(3)
N10 N 0.4445(2) 0.1746(3) 0.6962(3)
C53 C 0.4389(3) 0.0219(4) 0.5654(4)
H49 H 0.4471 0.0730 0.5648
C54 C 0.4175(3) 0.0044(4) 0.5914(4)
C55 C 0.4455(3) 0.1206(4) 0.6615(4)
H50 H 0.4708 0.1232 0.6615
C59 C 0.4128(3) 0.0627(4) 0.6266(4)
C60 C 0.5135(3) 0.0321(4) 0.5581(5)
H52 H 0.5232 0.0532 0.5989
C62 C 0.5386(3) 0.0523(5) 0.5398(5)
C64 C 0.4072(3) 0.1706(5) 0.6945(5)
H54 H 0.4053 0.2083 0.7183
C66 C 0.3741(4) 0.1159(5) 0.6609(6)
H56 H 0.3485 0.1150 0.6602
C68 C 0.3761(4) 0.0602(5) 0.6269(6)
H58 H 0.3525 0.0200 0.6037
C69 C 0.5921(5) 0.1382(8) 0.6378(6)
H59 H 0.5783 0.1297 0.6567
C70 C 0.6342(9) 0.1947(12) 0.6657(12)
H60 H 0.6669 0.1694 0.6932
C71 C 0.6335(10) 0.2553(12) 0.7076(14)
H61 H 0.6471 0.2320 0.7517
H62 H 0.5989 0.2699 0.6808
C72 C 0.6623(9) 0.3259(13) 0.7237(13)
H63 H 0.6603 0.3615 0.7501
H64 H 0.6486 0.3502 0.6803
H65 H 0.6968 0.3123 0.7512
C73 C 0.5741(9) 0.2988(14) 0.5594(13)
H66 H 0.5723 0.3215 0.5240
H67 H 0.5787 0.3394 0.5888
H68 H 0.5434 0.2712 0.5367
C74 C 0.6183(9) 0.2422(13) 0.6047(13)
H69 H 0.6476 0.2723 0.6234
H70 H 0.6127 0.2050 0.5719
Co3 Co 0.7500 0.2500 0.5000
Co7 Co 0.5000 0.26202(8) 0.7500
H96 H 0.565061 0.182999 0.604565
Co4 Co 0.7500 0.7500 0.0000
Co1 Co 0.2500 0.2500 0.0000
Co2 Co 0.5000 0.73798(8) 0.2500
S2 S 0.4650(3) 0.7523(3) 0.0434(3)
O1 O 0.4222(2) 0.8991(4) 0.4219(3)
N2 N 0.2782(2) 0.2658(3) 0.1030(3)
N3 N 0.4429(2) 0.6539(3) 0.1930(3)
N4 N 0.5555(2) 0.8254(3) 0.3038(3)
N6 N 0.5008(3) 0.7383(3) 0.1728(4)
N8 N 0.3689(3) 0.4469(3) 0.2108(3)
O2 O 0.4062(3) 0.4494(4) 0.4322(3)
C3 C 0.3095(3) 0.3226(4) 0.1414(4)
H2 H 0.3163 0.3566 0.1210
C5 C 0.5611(3) 0.9781(4) 0.4346(4)
H3 H 0.5529 0.9270 0.4352
C6 C 0.4399(3) 0.6036(4) 0.2282(4)
H4 H 0.4669 0.6002 0.2771
C7 C 0.3334(3) 0.3352(4) 0.2107(4)
C8 C 0.5825(3) 0.9956(4) 0.4086(4)
C9 C 0.5545(3) 0.8794(4) 0.3385(4)
H5 H 0.5292 0.8768 0.3385
C11 C 0.3669(3) 0.4001(4) 0.2482(4)
C12 C 0.3996(3) 0.5566(4) 0.1972(4)
C15 C 0.5872(3) 0.9373(4) 0.3734(4)
C16 C 0.4865(3) 0.9679(4) 0.4419(5)
H7 H 0.4768 0.9468 0.4011
C18 C 0.4054(3) 0.6531(4) 0.1232(4)
H8 H 0.4070 0.6864 0.0966
C19 C 0.4888(4) 0.7422(5) 0.1217(5)
C20 C 0.4614(3) 0.9477(5) 0.4602(5)
C21 C 0.3988(4) 0.5065(4) 0.2420(4)
C23 C 0.3658(3) 0.6072(5) 0.0893(4)
H10 H 0.3403 0.6085 0.0401
C24 C 0.5928(3) 0.8294(5) 0.3055(5)
H11 H 0.5947 0.7917 0.2817
C25 C 0.2666(4) 0.2208(5) 0.1306(5)
H12 H 0.2438 0.1803 0.1031
C26 C 0.3626(4) 0.5578(5) 0.1271(4)
H13 H 0.3348 0.5254 0.1040
C27 C 0.3965(4) 0.4106(5) 0.3189(4)
H14 H 0.3945 0.3760 0.3444
C29 C 0.6259(4) 0.8841(5) 0.3391(6)
H16 H 0.6515 0.8850 0.3398
C30 C 0.4290(5) 0.4712(5) 0.3524(5)
C32 C 0.4656(4) 0.4842(5) 0.4289(5)
C33 C 0.6239(4) 0.9398(5) 0.3731(6)
H18 H 0.6475 0.9800 0.3963
C34 C 0.3209(4) 0.2883(5) 0.2375(5)
H19 H 0.3358 0.2945 0.2840
C35 C 0.2853(5) 0.2298(5) 0.1947(5)
H20 H 0.2750 0.1978 0.2116
C36 C 0.4522(5) 0.4734(6) 0.4663(5)
C37 C 0.4292(4) 0.5223(5) 0.3124(5)
H21 H 0.4495 0.5666 0.3325
C38 C 0.4893(5) 0.4905(6) 0.5390(5)
H22 H 0.4815 0.4834 0.5658
C39 C 0.3886(4) 0.4504(6) 0.4651(5)
H23 H 0.3935 0.5019 0.4844
H24 H 0.4075 0.4133 0.5039
C40 C 0.3359(4) 0.4306(6) 0.4155(6)
H25 H 0.3259 0.4373 0.4417
C41 C 0.4079(5) 0.8618(8) 0.3622(6)
H26 H 0.4217 0.8703 0.3433
C42 C 0.3283(6) 0.3475(8) 0.3969(9)
H27 H 0.3408 0.3378 0.3747
H28 H 0.3493 0.3178 0.4406
C43 C 0.3658(9) 0.8053(12) 0.3343(12)
H29 H 0.3331 0.8306 0.3068
C44 C 0.3665(10) 0.7447(12) 0.2924(14)
H30 H 0.3529 0.7680 0.2483
H31 H 0.4011 0.7301 0.3192
C45 C 0.3043(8) 0.4817(10) 0.3563(9)
H32 H 0.2695 0.4727 0.3317
H33 H 0.3080 0.4711 0.3236
C46 C 0.3174(9) 0.5625(11) 0.3793(12)
H34 H 0.2959 0.5963 0.3389
H35 H 0.3133 0.5731 0.4112
H36 H 0.3518 0.5715 0.4031
C47 C 0.2782(8) 0.3164(14) 0.3511(14)
H37 H 0.2788 0.2618 0.3434
H38 H 0.2654 0.3233 0.3728
H39 H 0.2569 0.3434 0.3065
C48 C 0.3377(9) 0.6741(13) 0.2763(13)
H40 H 0.3397 0.6385 0.2499
H41 H 0.3514 0.6498 0.3197
H42 H 0.3032 0.6877 0.2488
C49 C 0.4259(9) 0.7012(14) 0.4406(13)
H43 H 0.4277 0.6785 0.4760
H44 H 0.4213 0.6606 0.4112
H45 H 0.4566 0.7288 0.4633
C50 C 0.3817(9) 0.7578(13) 0.3953(13)
H46 H 0.3524 0.7277 0.3766
H47 H 0.3873 0.7950 0.4281
N9 N 0.3244(2) 0.7377(3) 0.5377(3)
N11 N 0.4015(2) 0.9346(3) 0.5874(3)
C51 C 0.3453(3) 0.8016(4) 0.5418(4)
H48 H 0.3302 0.8490 0.5349
C52 C 0.3882(3) 0.8024(4) 0.5555(4)
C56 C 0.4739(3) 0.9809(4) 0.5178(5)
C57 C 0.4475(3) 0.9632(4) 0.5410(4)
C58 C 0.3472(3) 0.6706(4) 0.5486(4)
H51 H 0.3325 0.6242 0.5453
C61 C 0.4085(3) 0.8793(4) 0.5603(4)
C63 C 0.4321(3) 0.8901(4) 0.5380(4)
H53 H 0.4376 0.8485 0.5211
C65 C 0.4107(4) 0.7344(5) 0.5666(6)
H55 H 0.4402 0.7332 0.5760
C67 C 0.3897(3) 0.6667(5) 0.5639(6)
H57 H 0.4051 0.6188 0.5726
N12 N 0.7218(2) 0.7342(3) 0.8970(3)
N13 N 0.5571(2) 0.3461(3) 0.8070(3)
N14 N 0.6311(3) 0.5531(3) 0.7892(3)
O4 O 0.5938(3) 0.5506(4) 0.5678(3)
C75 C 0.6905(3) 0.6774(4) 0.8586(4)
H71 H 0.6837 0.6434 0.8790
C76 C 0.5601(3) 0.3964(4) 0.7718(4)
H72 H 0.5331 0.3998 0.7229
C77 C 0.6666(3) 0.6648(4) 0.7893(4)
C78 C 0.6331(3) 0.5999(4) 0.7518(4)
C79 C 0.6004(3) 0.4434(4) 0.8028(4)
C80 C 0.5946(3) 0.3469(4) 0.8768(4)
H73 H 0.5930 0.3136 0.9034
C81 C 0.6012(4) 0.4935(4) 0.7580(4)
C82 C 0.6342(3) 0.3928(5) 0.9107(4)
H74 H 0.6597 0.3915 0.9599
C83 C 0.7334(4) 0.7792(5) 0.8694(5)
H75 H 0.7562 0.8197 0.8969
C84 C 0.6374(4) 0.4422(5) 0.8729(4)
H76 H 0.6652 0.4746 0.8960
C85 C 0.6035(4) 0.5894(5) 0.6811(4)
H77 H 0.6055 0.6240 0.6556
C86 C 0.5710(5) 0.5288(5) 0.6476(5)
C87 C 0.5344(4) 0.5158(5) 0.5711(5)
C88 C 0.6791(4) 0.7117(5) 0.7625(5)
H78 H 0.6642 0.7055 0.7160
C89 C 0.7147(5) 0.7702(5) 0.8053(5)
H79 H 0.7250 0.8022 0.7884
C90 C 0.5478(5) 0.5266(6) 0.5337(5)
C91 C 0.5708(4) 0.4777(5) 0.6876(5)
H80 H 0.5505 0.4334 0.6675
C92 C 0.5107(5) 0.5095(6) 0.4610(5)
H81 H 0.5185 0.5166 0.4342
C93 C 0.6114(4) 0.5496(6) 0.5349(5)
H82 H 0.6065 0.4981 0.5156
H83 H 0.5925 0.5867 0.4961
C94 C 0.6641(4) 0.5694(6) 0.5845(6)
H84 H 0.6741 0.5627 0.5583
C95 C 0.6717(6) 0.6525(8) 0.6031(9)
H85 H 0.6592 0.6622 0.6253
H86 H 0.6507 0.6822 0.5594
C96 C 0.6957(8) 0.5183(10) 0.6437(9)
H87 H 0.7305 0.5273 0.6683
H88 H 0.6920 0.5289 0.6764
C97 C 0.6826(9) 0.4375(11) 0.6207(12)
H89 H 0.7041 0.4037 0.6611
H90 H 0.6867 0.4269 0.5888
H91 H 0.6482 0.4285 0.5969
C98 C 0.7218(8) 0.6836(14) 0.6489(14)
H92 H 0.7212 0.7382 0.6566
H93 H 0.7346 0.6767 0.6272
H94 H 0.7431 0.6566 0.6935
S3 S 0.5350(3) 0.7523(3) 0.4566(3)
N15 N 0.4992(3) 0.7383(3) 0.3272(4)
C99 C 0.5112(4) 0.7422(5) 0.3783(5)
N16 N 0.2581(2) 0.1333(3) 0.0167(3)
C100 C 0.2569(3) 0.0708(4) 0.0327(4)
Co4_2 Co 0.7500 0.7500 1.0000
Co5 Co 0.2500 0.7500 0.5000
N17 N 0.3244(2) 0.2623(3) 0.0377(3)
N20 N 0.5571(2) 0.6539(3) 0.3070(3)
N21 N 0.4445(2) 0.8254(3) 0.1962(3)
H95 H 0.434939 0.817001 0.395435
Co1_2 Co 0.2500 0.2500 1.0000
S1 S 0.24611(9) 0.51351(13) 0.94646(15)
N5 N 0.2419(2) 0.3667(3) 0.9833(3)
C2 C 0.2431(3) 0.4292(4) 0.9673(4)
N18 N 0.1756(2) 0.2377(3) 0.9623(3)
N19 N 0.2218(2) 0.2342(3) 0.8970(3)
N7_2 N 0.4015(2) 0.0654(3) 0.0874(3)
C1_2 C 0.3453(3) 0.1984(4) 0.0418(4)
H1_2 H 0.3302 0.1510 0.0349
C4_2 C 0.3882(3) 0.1976(4) 0.0555(4)
C10_2 C 0.4739(3) 0.0191(4) 0.0178(5)
C13_2 C 0.4475(3) 0.0368(4) 0.0410(4)
C14_2 C 0.3472(3) 0.3294(4) 0.0486(4)
H6_2 H 0.3325 0.3758 0.0453
C17_2 C 0.4085(3) 0.1207(4) 0.0603(4)
C22_2 C 0.4321(3) 0.1099(4) 0.0380(4)
H9_2 H 0.4376 0.1515 0.0211
C28_2 C 0.4107(4) 0.2656(5) 0.0666(6)
H15_2 H 0.4402 0.2668 0.0760
C31_2 C 0.3897(3) 0.3333(5) 0.0639(6)
H17_2 H 0.4051 0.3812 0.0726
O3_2 O 0.4222(2) 0.1009(4) 0.9219(3)
N10_2 N 0.5555(2) 0.1746(3) 0.8038(3)
C53_2 C 0.5611(3) 0.0219(4) 0.9346(4)
H49_2 H 0.5529 0.0730 0.9352
C54_2 C 0.5825(3) 0.0044(4) 0.9086(4)
C55_2 C 0.5545(3) 0.1206(4) 0.8385(4)
H50_2 H 0.5292 0.1232 0.8385
C59_2 C 0.5872(3) 0.0627(4) 0.8734(4)
C60_2 C 0.4865(3) 0.0321(4) 0.9419(5)
H52_2 H 0.4768 0.0532 0.9011
C62_2 C 0.4614(3) 0.0523(5) 0.9602(5)
C64_2 C 0.5928(3) 0.1706(5) 0.8055(5)
H54_2 H 0.5947 0.2083 0.7817
C66_2 C 0.6259(4) 0.1159(5) 0.8391(6)
H56_2 H 0.6515 0.1150 0.8398
C68_2 C 0.6239(4) 0.0602(5) 0.8731(6)
H58_2 H 0.6475 0.0200 0.8963
C69_2 C 0.4079(5) 0.1382(8) 0.8622(6)
H59_2 H 0.4217 0.1297 0.8433
C70_2 C 0.3658(9) 0.1947(12) 0.8343(12)
H60_2 H 0.3331 0.1694 0.8068
C71_2 C 0.3665(10) 0.2553(12) 0.7924(14)
H61_2 H 0.3529 0.2320 0.7483
H62_2 H 0.4011 0.2699 0.8192
C72_2 C 0.3377(9) 0.3259(13) 0.7763(13)
H63_2 H 0.3397 0.3615 0.7499
H64_2 H 0.3514 0.3502 0.8197
H65_2 H 0.3032 0.3123 0.7488
C73_2 C 0.4259(9) 0.2988(14) 0.9406(13)
H66_2 H 0.4277 0.3215 0.9760
H67_2 H 0.4213 0.3394 0.9112
H68_2 H 0.4566 0.2712 0.9633
C74_2 C 0.3817(9) 0.2422(13) 0.8953(13)
H69_2 H 0.3524 0.2723 0.8766
H70_2 H 0.3873 0.2050 0.9281
H96_2 H 0.434939 0.182999 0.895435
S1_2 S 0.75389(9) 0.51351(13) 0.55354(15)
O1_2 O 0.5778(2) 0.8991(4) 0.0781(3)
N2_2 N 0.7218(2) 0.2658(3) 0.3970(3)
N5_2 N 0.7581(2) 0.3667(3) 0.5167(3)
N8_2 N 0.6311(3) 0.4469(3) 0.2892(3)
O2_2 O 0.5938(3) 0.4494(4) 0.0678(3)
C2_2 C 0.7569(3) 0.4292(4) 0.5327(4)
C3_2 C 0.6905(3) 0.3226(4) 0.3586(4)
H2_2 H 0.6837 0.3566 0.3790
C5_2 C 0.4389(3) 0.9781(4) 0.0654(4)
H3_2 H 0.4471 0.9270 0.0648
C6_2 C 0.5601(3) 0.6036(4) 0.2718(4)
H4_2 H 0.5331 0.6002 0.2229
C7_2 C 0.6666(3) 0.3352(4) 0.2893(4)
C8_2 C 0.4175(3) 0.9956(4) 0.0914(4)
C9_2 C 0.4455(3) 0.8794(4) 0.1615(4)
H5_2 H 0.4708 0.8768 0.1615
C11_2 C 0.6331(3) 0.4001(4) 0.2518(4)
C12_2 C 0.6004(3) 0.5566(4) 0.3028(4)
C15_2 C 0.4128(3) 0.9373(4) 0.1266(4)
C16_2 C 0.5135(3) 0.9679(4) 0.0581(5)
H7_2 H 0.5232 0.9468 0.0989
C18_2 C 0.5946(3) 0.6531(4) 0.3768(4)
H8_2 H 0.5930 0.6864 0.4034
C20_2 C 0.5386(3) 0.9477(5) 0.0398(5)
C21_2 C 0.6012(4) 0.5065(4) 0.2580(4)
C23_2 C 0.6342(3) 0.6072(5) 0.4107(4)
H10_2 H 0.6597 0.6085 0.4599
C24_2 C 0.4072(3) 0.8294(5) 0.1945(5)
H11_2 H 0.4053 0.7917 0.2183
C25_2 C 0.7334(4) 0.2208(5) 0.3694(5)
H12_2 H 0.7562 0.1803 0.3969
C26_2 C 0.6374(4) 0.5578(5) 0.3729(4)
H13_2 H 0.6652 0.5254 0.3960
C27_2 C 0.6035(4) 0.4106(5) 0.1811(4)
H14_2 H 0.6055 0.3760 0.1556
C29_2 C 0.3741(4) 0.8841(5) 0.1609(6)
H16_2 H 0.3485 0.8850 0.1602
C30_2 C 0.5710(5) 0.4712(5) 0.1476(5)
C32_2 C 0.5344(4) 0.4842(5) 0.0711(5)
C33_2 C 0.3761(4) 0.9398(5) 0.1269(6)
H18_2 H 0.3525 0.9800 0.1037
C34_2 C 0.6791(4) 0.2883(5) 0.2625(5)
H19_2 H 0.6642 0.2945 0.2160
C35_2 C 0.7147(5) 0.2298(5) 0.3053(5)
H20_2 H 0.7250 0.1978 0.2884
C36_2 C 0.5478(5) 0.4734(6) 0.0337(5)
C37_2 C 0.5708(4) 0.5223(5) 0.1876(5)
H21_2 H 0.5505 0.5666 0.1675
C39_2 C 0.6114(4) 0.4504(6) 0.0349(5)
H23_2 H 0.6065 0.5019 0.0156
C40_2 C 0.6641(4) 0.4306(6) 0.0845(6)
H25_2 H 0.6741 0.4373 0.0583
C41_2 C 0.5921(5) 0.8618(8) 0.1378(6)
H26_2 H 0.5783 0.8703 0.1567
C42_2 C 0.6717(6) 0.3475(8) 0.1031(9)
H27_2 H 0.6592 0.3378 0.1253
H28_2 H 0.6507 0.3178 0.0594
C43_2 C 0.6342(9) 0.8053(12) 0.1657(12)
H29_2 H 0.6669 0.8306 0.1932
C44_2 C 0.6335(10) 0.7447(12) 0.2076(14)
H30_2 H 0.6471 0.7680 0.2517
H31_2 H 0.5989 0.7301 0.1808
C45_2 C 0.6957(8) 0.4817(10) 0.1437(9)
H32_2 H 0.7305 0.4727 0.1683
H33_2 H 0.6920 0.4711 0.1764
C46_2 C 0.6826(9) 0.5625(11) 0.1207(12)
H34_2 H 0.7041 0.5963 0.1611
H35_2 H 0.6867 0.5731 0.0888
H36_2 H 0.6482 0.5715 0.0969
C47_2 C 0.7218(8) 0.3164(14) 0.1489(14)
H37_2 H 0.7212 0.2618 0.1566
H38_2 H 0.7346 0.3233 0.1272
H39_2 H 0.7431 0.3434 0.1935
C48_2 C 0.6623(9) 0.6741(13) 0.2237(13)
H40_2 H 0.6603 0.6385 0.2501
H41_2 H 0.6486 0.6498 0.1803
H42_2 H 0.6968 0.6877 0.2512
C49_2 C 0.5741(9) 0.7012(14) 0.0594(13)
H43_2 H 0.5723 0.6785 0.0240
H44_2 H 0.5787 0.6606 0.0888
H45_2 H 0.5434 0.7288 0.0367
C50_2 C 0.6183(9) 0.7578(13) 0.1047(13)
H46_2 H 0.6476 0.7277 0.1234
H47_2 H 0.6127 0.7950 0.0719
C92_2 C 0.4893(5) 0.5095(6) 0.0390(5)
H81_2 H 0.4815 0.5166 0.0658
H83_2 H 0.4075 0.5867 0.0039
N16_2 N 0.7419(2) 0.1333(3) 0.4833(3)
C100_2 C 0.7431(3) 0.0708(4) 0.4673(4)
N18_2 N 0.8244(2) 0.2377(3) 0.5377(3)
N19_2 N 0.7782(2) 0.2342(3) 0.6030(3)
H95_2 H 0.565061 0.817001 0.104565
C38_2 C 0.5107(5) 0.4905(6) 0.9610(5)
H22_2 H 0.5185 0.4834 0.9342
H24_2 H 0.5925 0.4133 0.9961
N9_2 N 0.6756(2) 0.7377(3) 0.9623(3)
N11_2 N 0.5985(2) 0.9346(3) 0.9126(3)
C51_2 C 0.6547(3) 0.8016(4) 0.9582(4)
H48_2 H 0.6698 0.8490 0.9651
C52_2 C 0.6118(3) 0.8024(4) 0.9445(4)
C56_2 C 0.5261(3) 0.9809(4) 0.9822(5)
C57_2 C 0.5525(3) 0.9632(4) 0.9590(4)
C58_2 C 0.6528(3) 0.6706(4) 0.9514(4)
H51_2 H 0.6675 0.6242 0.9547
C61_2 C 0.5915(3) 0.8793(4) 0.9397(4)
C63_2 C 0.5679(3) 0.8901(4) 0.9620(4)
H53_2 H 0.5624 0.8485 0.9789
C65_2 C 0.5893(4) 0.7344(5) 0.9334(6)
H55_2 H 0.5598 0.7332 0.9240
C67_2 C 0.6103(3) 0.6667(5) 0.9361(6)
H57_2 H 0.5949 0.6188 0.9274
N12_2 N 0.2782(2) 0.7342(3) 0.6030(3)
N13_2 N 0.4429(2) 0.3461(3) 0.6930(3)
N14_2 N 0.3689(3) 0.5531(3) 0.7108(3)
O4_2 O 0.4062(3) 0.5506(4) 0.9322(3)
C75_2 C 0.3095(3) 0.6774(4) 0.6414(4)
H71_2 H 0.3163 0.6434 0.6210
C76_2 C 0.4399(3) 0.3964(4) 0.7282(4)
H72_2 H 0.4669 0.3998 0.7771
C77_2 C 0.3334(3) 0.6648(4) 0.7107(4)
C78_2 C 0.3669(3) 0.5999(4) 0.7482(4)
C79_2 C 0.3996(3) 0.4434(4) 0.6972(4)
C80_2 C 0.4054(3) 0.3469(4) 0.6232(4)
H73_2 H 0.4070 0.3136 0.5966
C81_2 C 0.3988(4) 0.4935(4) 0.7420(4)
C82_2 C 0.3658(3) 0.3928(5) 0.5893(4)
H74_2 H 0.3403 0.3915 0.5401
C83_2 C 0.2666(4) 0.7792(5) 0.6306(5)
H75_2 H 0.2438 0.8197 0.6031
C84_2 C 0.3626(4) 0.4422(5) 0.6271(4)
H76_2 H 0.3348 0.4746 0.6040
C85_2 C 0.3965(4) 0.5894(5) 0.8189(4)
H77_2 H 0.3945 0.6240 0.8444
C86_2 C 0.4290(5) 0.5288(5) 0.8524(5)
C87_2 C 0.4656(4) 0.5158(5) 0.9289(5)
C88_2 C 0.3209(4) 0.7117(5) 0.7375(5)
H78_2 H 0.3358 0.7055 0.7840
C89_2 C 0.2853(5) 0.7702(5) 0.6947(5)
H79_2 H 0.2750 0.8022 0.7116
C90_2 C 0.4522(5) 0.5266(6) 0.9663(5)
C91_2 C 0.4292(4) 0.4777(5) 0.8124(5)
H80_2 H 0.4495 0.4334 0.8325
C93_2 C 0.3886(4) 0.5496(6) 0.9651(5)
H82_2 H 0.3935 0.4981 0.9844
C94_2 C 0.3359(4) 0.5694(6) 0.9155(6)
H84_2 H 0.3259 0.5627 0.9417
C95_2 C 0.3283(6) 0.6525(8) 0.8969(9)
H85_2 H 0.3408 0.6622 0.8747
H86_2 H 0.3493 0.6822 0.9406
C96_2 C 0.3043(8) 0.5183(10) 0.8563(9)
H87_2 H 0.2695 0.5273 0.8317
H88_2 H 0.3080 0.5289 0.8236
C97_2 C 0.3174(9) 0.4375(11) 0.8793(12)
H89_2 H 0.2959 0.4037 0.8389
H90_2 H 0.3133 0.4269 0.9112
H91_2 H 0.3518 0.4285 0.9031
C98_2 C 0.2782(8) 0.6836(14) 0.8511(14)
H92_2 H 0.2788 0.7382 0.8434
H93_2 H 0.2654 0.6767 0.8728
H94_2 H 0.2569 0.6566 0.8065
S4 S 0.74611(9) 0.98649(13) 0.44646(15)
Co2_2 Co 0.0000 0.23798(8) 0.2500
N1_2 N 0.1756(2) 0.7623(3) 0.4623(3)
N4_2 N 0.0555(2) 0.3254(3) 0.3038(3)
N6_2 N 0.0008(3) 0.2383(3) 0.1728(4)
N7_3 N 0.0985(2) 0.5654(3) 0.4126(3)
C1_3 C 0.1547(3) 0.6984(4) 0.4582(4)
H1_3 H 0.1698 0.6510 0.4651
C4_3 C 0.1118(3) 0.6976(4) 0.4445(4)
C5_3 C 0.0611(3) 0.4781(4) 0.4346(4)
H3_3 H 0.0529 0.4270 0.4352
C8_3 C 0.0825(3) 0.4956(4) 0.4086(4)
C9_3 C 0.0545(3) 0.3794(4) 0.3385(4)
H5_3 H 0.0292 0.3768 0.3385
C10_3 C 0.0261(3) 0.5191(4) 0.4822(5)
C13_3 C 0.0525(3) 0.5368(4) 0.4590(4)
C14_3 C 0.1528(3) 0.8294(4) 0.4514(4)
H6_3 H 0.1675 0.8758 0.4547
C15_3 C 0.0872(3) 0.4373(4) 0.3734(4)
C17_3 C 0.0915(3) 0.6207(4) 0.4397(4)
C22_3 C 0.0679(3) 0.6099(4) 0.4620(4)
H9_3 H 0.0624 0.6515 0.4789
C24_3 C 0.0928(3) 0.3294(5) 0.3055(5)
H11_3 H 0.0947 0.2917 0.2817
C28_3 C 0.0893(4) 0.7656(5) 0.4334(6)
H15_3 H 0.0598 0.7668 0.4240
C29_3 C 0.1259(4) 0.3841(5) 0.3391(6)
H16_3 H 0.1515 0.3850 0.3398
C31_3 C 0.1103(3) 0.8333(5) 0.4361(6)
H17_3 H 0.0949 0.8812 0.4274
C33_3 C 0.1239(4) 0.4398(5) 0.3731(6)
H18_3 H 0.1475 0.4800 0.3963
O3_3 O 0.0778(2) 0.6009(4) 0.5781(3)
C60_3 C 0.0135(3) 0.5321(4) 0.5581(5)
H52_3 H 0.0232 0.5532 0.5989
C62_3 C 0.0386(3) 0.5523(5) 0.5398(5)
C69_3 C 0.0921(5) 0.6382(8) 0.6378(6)
H59_3 H 0.0783 0.6297 0.6567
C70_3 C 0.1342(9) 0.6947(12) 0.6657(12)
H60_3 H 0.1669 0.6694 0.6932
C71_3 C 0.1335(10) 0.7553(12) 0.7076(14)
H61_3 H 0.1471 0.7320 0.7517
H62_3 H 0.0989 0.7699 0.6808
C72_3 C 0.1623(9) 0.8259(13) 0.7237(13)
H63_3 H 0.1603 0.8615 0.7501
H64_3 H 0.1486 0.8502 0.6803
H65_3 H 0.1968 0.8123 0.7512
C73_3 C 0.0741(9) 0.7988(14) 0.5594(13)
H66_3 H 0.0723 0.8215 0.5240
H67_3 H 0.0787 0.8394 0.5888
H68_3 H 0.0434 0.7712 0.5367
C74_3 C 0.1183(9) 0.7422(13) 0.6047(13)
H69_3 H 0.1476 0.7723 0.6234
H70_3 H 0.1127 0.7050 0.5719
N14_3 N 0.1311(3) 0.0531(3) 0.7892(3)
O4_3 O 0.0938(3) 0.0506(4) 0.5678(3)
C75_3 C 0.1905(3) 0.1774(4) 0.8586(4)
H71_3 H 0.1837 0.1434 0.8790
C77_3 C 0.1666(3) 0.1648(4) 0.7893(4)
C78_3 C 0.1331(3) 0.0999(4) 0.7518(4)
C83_3 C 0.2334(4) 0.2792(5) 0.8694(5)
H75_3 H 0.2562 0.3197 0.8969
C85_3 C 0.1035(4) 0.0894(5) 0.6811(4)
H77_3 H 0.1055 0.1240 0.6556
C86_3 C 0.0710(5) 0.0288(5) 0.6476(5)
C87_3 C 0.0344(4) 0.0158(5) 0.5711(5)
C88_3 C 0.1791(4) 0.2117(5) 0.7625(5)
H78_3 H 0.1642 0.2055 0.7160
C89_3 C 0.2147(5) 0.2702(5) 0.8053(5)
H79_3 H 0.2250 0.3022 0.7884
C90_3 C 0.0478(5) 0.0266(6) 0.5337(5)
C92_3 C 0.0107(5) 0.0095(6) 0.4610(5)
H81_3 H 0.0185 0.0166 0.4342
C93_3 C 0.1114(4) 0.0496(6) 0.5349(5)
H83_3 H 0.0925 0.0867 0.4961
C94_3 C 0.1641(4) 0.0694(6) 0.5845(6)
H84_3 H 0.1741 0.0627 0.5583
C95_3 C 0.1717(6) 0.1525(8) 0.6031(9)
H85_3 H 0.1592 0.1622 0.6253
H86_3 H 0.1507 0.1822 0.5594
C96_3 C 0.1957(8) 0.0183(10) 0.6437(9)
H87_3 H 0.2305 0.0273 0.6683
H88_3 H 0.1920 0.0289 0.6764
C98_3 C 0.2218(8) 0.1836(14) 0.6489(14)
H92_3 H 0.2212 0.2382 0.6566
H93_3 H 0.2346 0.1767 0.6272
H94_3 H 0.2431 0.1566 0.6935
S3_2 S 0.0350(3) 0.2523(3) 0.4566(3)
C99_2 C 0.0112(4) 0.2422(5) 0.3783(5)
Co7_2 Co 0.0000 0.76202(8) 0.7500
N20_2 N 0.0571(2) 0.1539(3) 0.3070(3)
H96_3 H 0.0650611 0.682999 0.604565
N13_3 N 0.0571(2) 0.8461(3) 0.8070(3)
C76_3 C 0.0601(3) 0.8964(4) 0.7718(4)
H72_3 H 0.0331 0.8998 0.7229
C79_3 C 0.1004(3) 0.9434(4) 0.8028(4)
C80_3 C 0.0946(3) 0.8469(4) 0.8768(4)
H73_3 H 0.0930 0.8136 0.9034
C81_3 C 0.1012(4) 0.9935(4) 0.7580(4)
C82_3 C 0.1342(3) 0.8928(5) 0.9107(4)
H74_3 H 0.1597 0.8915 0.9599
C84_3 C 0.1374(4) 0.9422(5) 0.8729(4)
H76_3 H 0.1652 0.9746 0.8960
C91_3 C 0.0708(4) 0.9777(5) 0.6876(5)
H80_3 H 0.0505 0.9334 0.6675
H82_3 H 0.1065 0.9981 0.5156
C97_3 C 0.1826(9) 0.9375(11) 0.6207(12)
H89_3 H 0.2041 0.9037 0.6611
H90_3 H 0.1867 0.9269 0.5888
H91_3 H 0.1482 0.9285 0.5969
Co2_3 Co 1.0000 0.23798(8) 0.2500
S2_2 S 0.9650(3) 0.2523(3) 0.0434(3)
O1_3 O 0.9222(2) 0.3991(4) 0.4219(3)
N3_2 N 0.9429(2) 0.1539(3) 0.1930(3)
C6_3 C 0.9399(3) 0.1036(4) 0.2282(4)
H4_3 H 0.9669 0.1002 0.2771
C12_3 C 0.8996(3) 0.0566(4) 0.1972(4)
C16_3 C 0.9865(3) 0.4679(4) 0.4419(5)
H7_3 H 0.9768 0.4468 0.4011
C18_3 C 0.9054(3) 0.1531(4) 0.1232(4)
H8_3 H 0.9070 0.1864 0.0966
C19_2 C 0.9888(4) 0.2422(5) 0.1217(5)
C20_3 C 0.9614(3) 0.4477(5) 0.4602(5)
C21_3 C 0.8988(4) 0.0065(4) 0.2420(4)
C23_3 C 0.8658(3) 0.1072(5) 0.0893(4)
H10_3 H 0.8403 0.1085 0.0401
C26_3 C 0.8626(4) 0.0578(5) 0.1271(4)
H13_3 H 0.8348 0.0254 0.1040
C37_3 C 0.9292(4) 0.0223(5) 0.3124(5)
H21_3 H 0.9495 0.0666 0.3325
H23_3 H 0.8935 0.0019 0.4844
C41_3 C 0.9079(5) 0.3618(8) 0.3622(6)
H26_3 H 0.9217 0.3703 0.3433
C43_3 C 0.8658(9) 0.3053(12) 0.3343(12)
H29_3 H 0.8331 0.3306 0.3068
C44_3 C 0.8665(10) 0.2447(12) 0.2924(14)
H30_3 H 0.8529 0.2680 0.2483
H31_3 H 0.9011 0.2301 0.3192
C46_3 C 0.8174(9) 0.0625(11) 0.3793(12)
H34_3 H 0.7959 0.0963 0.3389
H35_3 H 0.8133 0.0731 0.4112
H36_3 H 0.8518 0.0715 0.4031
C48_3 C 0.8377(9) 0.1741(13) 0.2763(13)
H40_3 H 0.8397 0.1385 0.2499
H41_3 H 0.8514 0.1498 0.3197
H42_3 H 0.8032 0.1877 0.2488
C49_3 C 0.9259(9) 0.2012(14) 0.4406(13)
H43_3 H 0.9277 0.1785 0.4760
H44_3 H 0.9213 0.1606 0.4112
H45_3 H 0.9566 0.2288 0.4633
C50_3 C 0.8817(9) 0.2578(13) 0.3953(13)
H46_3 H 0.8524 0.2277 0.3766
H47_3 H 0.8873 0.2950 0.4281
N10_3 N 0.9445(2) 0.6746(3) 0.6962(3)
N11_3 N 0.9015(2) 0.4346(3) 0.5874(3)
C51_3 C 0.8453(3) 0.3016(4) 0.5418(4)
H48_3 H 0.8302 0.3490 0.5349
C52_3 C 0.8882(3) 0.3024(4) 0.5555(4)
C53_3 C 0.9389(3) 0.5219(4) 0.5654(4)
H49_3 H 0.9471 0.5730 0.5648
C54_3 C 0.9175(3) 0.5044(4) 0.5914(4)
C55_3 C 0.9455(3) 0.6206(4) 0.6615(4)
H50_3 H 0.9708 0.6232 0.6615
C56_3 C 0.9739(3) 0.4809(4) 0.5178(5)
C57_3 C 0.9475(3) 0.4632(4) 0.5410(4)
C58_3 C 0.8472(3) 0.1706(4) 0.5486(4)
H51_3 H 0.8325 0.1242 0.5453
C59_3 C 0.9128(3) 0.5627(4) 0.6266(4)
C61_3 C 0.9085(3) 0.3793(4) 0.5603(4)
C63_3 C 0.9321(3) 0.3901(4) 0.5380(4)
H53_3 H 0.9376 0.3485 0.5211
C64_3 C 0.9072(3) 0.6706(5) 0.6945(5)
H54_3 H 0.9053 0.7083 0.7183
C65_3 C 0.9107(4) 0.2344(5) 0.5666(6)
H55_3 H 0.9402 0.2332 0.5760
C66_3 C 0.8741(4) 0.6159(5) 0.6609(6)
H56_3 H 0.8485 0.6150 0.6602
C67_3 C 0.8897(3) 0.1667(5) 0.5639(6)
H57_3 H 0.9051 0.1188 0.5726
C68_3 C 0.8761(4) 0.5602(5) 0.6269(6)
H58_3 H 0.8525 0.5200 0.6037
N15_2 N 0.9992(3) 0.2383(3) 0.3272(4)
Co7_3 Co 1.0000 0.76202(8) 0.7500
N21_2 N 0.9445(2) 0.3254(3) 0.1962(3)
H95_3 H 0.934939 0.317001 0.395435
N2_3 N 0.7782(2) 0.7658(3) 0.1030(3)
N8_3 N 0.8689(3) 0.9469(3) 0.2108(3)
O2_3 O 0.9062(3) 0.9494(4) 0.4322(3)
C3_3 C 0.8095(3) 0.8226(4) 0.1414(4)
H2_3 H 0.8163 0.8566 0.1210
C7_3 C 0.8334(3) 0.8352(4) 0.2107(4)
C11_3 C 0.8669(3) 0.9001(4) 0.2482(4)
C25_3 C 0.7666(4) 0.7208(5) 0.1306(5)
H12_3 H 0.7438 0.6803 0.1031
C27_3 C 0.8965(4) 0.9106(5) 0.3189(4)
H14_3 H 0.8945 0.8760 0.3444
C30_3 C 0.9290(5) 0.9712(5) 0.3524(5)
C32_3 C 0.9656(4) 0.9842(5) 0.4289(5)
C34_3 C 0.8209(4) 0.7883(5) 0.2375(5)
H19_3 H 0.8358 0.7945 0.2840
C35_3 C 0.7853(5) 0.7298(5) 0.1947(5)
H20_3 H 0.7750 0.6978 0.2116
C36_3 C 0.9522(5) 0.9734(6) 0.4663(5)
C38_3 C 0.9893(5) 0.9905(6) 0.5390(5)
H22_3 H 0.9815 0.9834 0.5658
C39_3 C 0.8886(4) 0.9504(6) 0.4651(5)
H24_3 H 0.9075 0.9133 0.5039
C40_3 C 0.8359(4) 0.9306(6) 0.4155(6)
H25_3 H 0.8259 0.9373 0.4417
C42_3 C 0.8283(6) 0.8475(8) 0.3969(9)
H27_3 H 0.8408 0.8378 0.3747
H28_3 H 0.8493 0.8178 0.4406
C45_3 C 0.8043(8) 0.9817(10) 0.3563(9)
H32_3 H 0.7695 0.9727 0.3317
H33_3 H 0.8080 0.9711 0.3236
C47_3 C 0.7782(8) 0.8164(14) 0.3511(14)
H37_3 H 0.7788 0.7618 0.3434
H38_3 H 0.7654 0.8233 0.3728
H39_3 H 0.7569 0.8434 0.3065
S4_2 S 0.75389(9) 0.48649(13) 0.05354(15)
N16_3 N 0.7581(2) 0.6333(3) 0.0167(3)
C100_3 C 0.7569(3) 0.5708(4) 0.0327(4)
N17_2 N 0.8244(2) 0.7623(3) 0.0377(3)
N5_3 N 0.7419(2) 0.8667(3) 0.9833(3)
C2_3 C 0.7431(3) 0.9292(4) 0.9673(4)
S1_3 S 0.25389(9) 0.01351(13) 0.55354(15)
O1_4 O 0.0778(2) 0.3991(4) 0.0781(3)
C6_4 C 0.0601(3) 0.1036(4) 0.2718(4)
H4_4 H 0.0331 0.1002 0.2229
C12_4 C 0.1004(3) 0.0566(4) 0.3028(4)
C16_4 C 0.0135(3) 0.4679(4) 0.0581(5)
H7_4 H 0.0232 0.4468 0.0989
C18_4 C 0.0946(3) 0.1531(4) 0.3768(4)
H8_4 H 0.0930 0.1864 0.4034
C20_4 C 0.0386(3) 0.4477(5) 0.0398(5)
C21_4 C 0.1012(4) 0.0065(4) 0.2580(4)
C23_4 C 0.1342(3) 0.1072(5) 0.4107(4)
H10_4 H 0.1597 0.1085 0.4599
C26_4 C 0.1374(4) 0.0578(5) 0.3729(4)
H13_4 H 0.1652 0.0254 0.3960
C37_4 C 0.0708(4) 0.0223(5) 0.1876(5)
H21_4 H 0.0505 0.0666 0.1675
H23_4 H 0.1065 0.0019 0.0156
C41_4 C 0.0921(5) 0.3618(8) 0.1378(6)
H26_4 H 0.0783 0.3703 0.1567
C43_4 C 0.1342(9) 0.3053(12) 0.1657(12)
H29_4 H 0.1669 0.3306 0.1932
C44_4 C 0.1335(10) 0.2447(12) 0.2076(14)
H30_4 H 0.1471 0.2680 0.2517
H31_4 H 0.0989 0.2301 0.1808
C46_4 C 0.1826(9) 0.0625(11) 0.1207(12)
H34_4 H 0.2041 0.0963 0.1611
H35_4 H 0.1867 0.0731 0.0888
H36_4 H 0.1482 0.0715 0.0969
C48_4 C 0.1623(9) 0.1741(13) 0.2237(13)
H40_4 H 0.1603 0.1385 0.2501
H41_4 H 0.1486 0.1498 0.1803
H42_4 H 0.1968 0.1877 0.2512
C49_4 C 0.0741(9) 0.2012(14) 0.0594(13)
H43_4 H 0.0723 0.1785 0.0240
H44_4 H 0.0787 0.1606 0.0888
H45_4 H 0.0434 0.2288 0.0367
C50_4 C 0.1183(9) 0.2578(13) 0.1047(13)
H46_4 H 0.1476 0.2277 0.1234
H47_4 H 0.1127 0.2950 0.0719
H95_4 H 0.0650611 0.317001 0.104565
N10_4 N 0.0555(2) 0.6746(3) 0.8038(3)
N11_4 N 0.0985(2) 0.4346(3) 0.9126(3)
C51_4 C 0.1547(3) 0.3016(4) 0.9582(4)
H48_4 H 0.1698 0.3490 0.9651
C52_4 C 0.1118(3) 0.3024(4) 0.9445(4)
C53_4 C 0.0611(3) 0.5219(4) 0.9346(4)
H49_4 H 0.0529 0.5730 0.9352
C54_4 C 0.0825(3) 0.5044(4) 0.9086(4)
C55_4 C 0.0545(3) 0.6206(4) 0.8385(4)
H50_4 H 0.0292 0.6232 0.8385
C56_4 C 0.0261(3) 0.4809(4) 0.9822(5)
C57_4 C 0.0525(3) 0.4632(4) 0.9590(4)
C58_4 C 0.1528(3) 0.1706(4) 0.9514(4)
H51_4 H 0.1675 0.1242 0.9547
C59_4 C 0.0872(3) 0.5627(4) 0.8734(4)
C61_4 C 0.0915(3) 0.3793(4) 0.9397(4)
C63_4 C 0.0679(3) 0.3901(4) 0.9620(4)
H53_4 H 0.0624 0.3485 0.9789
C64_4 C 0.0928(3) 0.6706(5) 0.8055(5)
H54_4 H 0.0947 0.7083 0.7817
C65_4 C 0.0893(4) 0.2344(5) 0.9334(6)
H55_4 H 0.0598 0.2332 0.9240
C66_4 C 0.1259(4) 0.6159(5) 0.8391(6)
H56_4 H 0.1515 0.6150 0.8398
C67_4 C 0.1103(3) 0.1667(5) 0.9361(6)
H57_4 H 0.0949 0.1188 0.9274
C68_4 C 0.1239(4) 0.5602(5) 0.8731(6)
H58_4 H 0.1475 0.5200 0.8963
N2_4 N 0.2218(2) 0.7658(3) 0.3970(3)
N5_4 N 0.2581(2) 0.8667(3) 0.5167(3)
N8_4 N 0.1311(3) 0.9469(3) 0.2892(3)
O2_4 O 0.0938(3) 0.9494(4) 0.0678(3)
C2_4 C 0.2569(3) 0.9292(4) 0.5327(4)
C3_4 C 0.1905(3) 0.8226(4) 0.3586(4)
H2_4 H 0.1837 0.8566 0.3790
C7_4 C 0.1666(3) 0.8352(4) 0.2893(4)
C11_4 C 0.1331(3) 0.9001(4) 0.2518(4)
C25_4 C 0.2334(4) 0.7208(5) 0.3694(5)
H12_4 H 0.2562 0.6803 0.3969
C27_4 C 0.1035(4) 0.9106(5) 0.1811(4)
H14_4 H 0.1055 0.8760 0.1556
C30_4 C 0.0710(5) 0.9712(5) 0.1476(5)
C32_4 C 0.0344(4) 0.9842(5) 0.0711(5)
C34_4 C 0.1791(4) 0.7883(5) 0.2625(5)
H19_4 H 0.1642 0.7945 0.2160
C35_4 C 0.2147(5) 0.7298(5) 0.3053(5)
H20_4 H 0.2250 0.6978 0.2884
C36_4 C 0.0478(5) 0.9734(6) 0.0337(5)
C39_4 C 0.1114(4) 0.9504(6) 0.0349(5)
C40_4 C 0.1641(4) 0.9306(6) 0.0845(6)
H25_4 H 0.1741 0.9373 0.0583
C42_4 C 0.1717(6) 0.8475(8) 0.1031(9)
H27_4 H 0.1592 0.8378 0.1253
H28_4 H 0.1507 0.8178 0.0594
C45_4 C 0.1957(8) 0.9817(10) 0.1437(9)
H32_4 H 0.2305 0.9727 0.1683
H33_4 H 0.1920 0.9711 0.1764
C47_4 C 0.2218(8) 0.8164(14) 0.1489(14)
H37_4 H 0.2212 0.7618 0.1566
H38_4 H 0.2346 0.8233 0.1272
H39_4 H 0.2431 0.8434 0.1935
S4_3 S 0.24611(9) 0.48649(13) 0.44646(15)
N16_4 N 0.2419(2) 0.6333(3) 0.4833(3)
C100_4 C 0.2431(3) 0.5708(4) 0.4673(4)
C38_4 C 0.0107(5) 0.9905(6) 0.9610(5)
H22_4 H 0.0185 0.9834 0.9342
H24_4 H 0.0925 0.9133 0.9961
N7_4 N 0.9015(2) 0.5654(3) 0.0874(3)
C1_4 C 0.8453(3) 0.6984(4) 0.0418(4)
H1_4 H 0.8302 0.6510 0.0349
C4_4 C 0.8882(3) 0.6976(4) 0.0555(4)
C5_4 C 0.9389(3) 0.4781(4) 0.0654(4)
H3_4 H 0.9471 0.4270 0.0648
C8_4 C 0.9175(3) 0.4956(4) 0.0914(4)
C9_4 C 0.9455(3) 0.3794(4) 0.1615(4)
H5_4 H 0.9708 0.3768 0.1615
C10_4 C 0.9739(3) 0.5191(4) 0.0178(5)
C13_4 C 0.9475(3) 0.5368(4) 0.0410(4)
C14_4 C 0.8472(3) 0.8294(4) 0.0486(4)
H6_4 H 0.8325 0.8758 0.0453
C15_4 C 0.9128(3) 0.4373(4) 0.1266(4)
C17_4 C 0.9085(3) 0.6207(4) 0.0603(4)
C22_4 C 0.9321(3) 0.6099(4) 0.0380(4)
H9_4 H 0.9376 0.6515 0.0211
C24_4 C 0.9072(3) 0.3294(5) 0.1945(5)
H11_4 H 0.9053 0.2917 0.2183
C28_4 C 0.9107(4) 0.7656(5) 0.0666(6)
H15_4 H 0.9402 0.7668 0.0760
C29_4 C 0.8741(4) 0.3841(5) 0.1609(6)
H16_4 H 0.8485 0.3850 0.1602
C31_4 C 0.8897(3) 0.8333(5) 0.0639(6)
H17_4 H 0.9051 0.8812 0.0726
C33_4 C 0.8761(4) 0.4398(5) 0.1269(6)
H18_4 H 0.8525 0.4800 0.1037
C92_4 C 0.9893(5) 0.0095(6) 0.0390(5)
H81_4 H 0.9815 0.0166 0.0658
H83_4 H 0.9075 0.0867 0.0039
O3_4 O 0.9222(2) 0.6009(4) 0.9219(3)
C60_4 C 0.9865(3) 0.5321(4) 0.9419(5)
H52_4 H 0.9768 0.5532 0.9011
C62_4 C 0.9614(3) 0.5523(5) 0.9602(5)
C69_4 C 0.9079(5) 0.6382(8) 0.8622(6)
H59_4 H 0.9217 0.6297 0.8433
C70_4 C 0.8658(9) 0.6947(12) 0.8343(12)
H60_4 H 0.8331 0.6694 0.8068
C71_4 C 0.8665(10) 0.7553(12) 0.7924(14)
H61_4 H 0.8529 0.7320 0.7483
H62_4 H 0.9011 0.7699 0.8192
C72_4 C 0.8377(9) 0.8259(13) 0.7763(13)
H63_4 H 0.8397 0.8615 0.7499
H64_4 H 0.8514 0.8502 0.8197
H65_4 H 0.8032 0.8123 0.7488
C73_4 C 0.9259(9) 0.7988(14) 0.9406(13)
H66_4 H 0.9277 0.8215 0.9760
H67_4 H 0.9213 0.8394 0.9112
H68_4 H 0.9566 0.7712 0.9633
C74_4 C 0.8817(9) 0.7422(13) 0.8953(13)
H69_4 H 0.8524 0.7723 0.8766
H70_4 H 0.8873 0.7050 0.9281
N14_4 N 0.8689(3) 0.0531(3) 0.7108(3)
O4_4 O 0.9062(3) 0.0506(4) 0.9322(3)
C75_4 C 0.8095(3) 0.1774(4) 0.6414(4)
H71_4 H 0.8163 0.1434 0.6210
C77_4 C 0.8334(3) 0.1648(4) 0.7107(4)
C78_4 C 0.8669(3) 0.0999(4) 0.7482(4)
C83_4 C 0.7666(4) 0.2792(5) 0.6306(5)
H75_4 H 0.7438 0.3197 0.6031
C85_4 C 0.8965(4) 0.0894(5) 0.8189(4)
H77_4 H 0.8945 0.1240 0.8444
C86_4 C 0.9290(5) 0.0288(5) 0.8524(5)
C87_4 C 0.9656(4) 0.0158(5) 0.9289(5)
C88_4 C 0.8209(4) 0.2117(5) 0.7375(5)
H78_4 H 0.8358 0.2055 0.7840
C89_4 C 0.7853(5) 0.2702(5) 0.6947(5)
H79_4 H 0.7750 0.3022 0.7116
C90_4 C 0.9522(5) 0.0266(6) 0.9663(5)
C93_4 C 0.8886(4) 0.0496(6) 0.9651(5)
C94_4 C 0.8359(4) 0.0694(6) 0.9155(6)
H84_4 H 0.8259 0.0627 0.9417
C95_4 C 0.8283(6) 0.1525(8) 0.8969(9)
H85_4 H 0.8408 0.1622 0.8747
H86_4 H 0.8493 0.1822 0.9406
C96_4 C 0.8043(8) 0.0183(10) 0.8563(9)
H87_4 H 0.7695 0.0273 0.8317
H88_4 H 0.8080 0.0289 0.8236
C98_4 C 0.7782(8) 0.1836(14) 0.8511(14)
H92_4 H 0.7788 0.2382 0.8434
H93_4 H 0.7654 0.1767 0.8728
H94_4 H 0.7569 0.1566 0.8065
H96_4 H 0.934939 0.682999 0.895435
N13_4 N 0.9429(2) 0.8461(3) 0.6930(3)
C76_4 C 0.9399(3) 0.8964(4) 0.7282(4)
H72_4 H 0.9669 0.8998 0.7771
C79_4 C 0.8996(3) 0.9434(4) 0.6972(4)
C80_4 C 0.9054(3) 0.8469(4) 0.6232(4)
H73_4 H 0.9070 0.8136 0.5966
C81_4 C 0.8988(4) 0.9935(4) 0.7420(4)
C82_4 C 0.8658(3) 0.8928(5) 0.5893(4)
H74_4 H 0.8403 0.8915 0.5401
C84_4 C 0.8626(4) 0.9422(5) 0.6271(4)
H76_4 H 0.8348 0.9746 0.6040
C91_4 C 0.9292(4) 0.9777(5) 0.8124(5)
H80_4 H 0.9495 0.9334 0.8325
H82_4 H 0.8935 0.9981 0.9844
C97_4 C 0.8174(9) 0.9375(11) 0.8793(12)
H89_4 H 0.7959 0.9037 0.8389
H90_4 H 0.8133 0.9269 0.9112
H91_4 H 0.8518 0.9285 0.9031
S2_3 S 0.5350(3) 0.2477(3) 0.9566(3)
N6_3 N 0.4992(3) 0.2617(3) 0.8272(4)
C19_3 C 0.5112(4) 0.2578(5) 0.8783(5)
S3_3 S 0.4650(3) 0.2477(3) 0.5434(3)
N15_3 N 0.5008(3) 0.2617(3) 0.6728(4)
C99_3 C 0.4888(4) 0.2578(5) 0.6217(5)
S2_4 S 0.0350(3) 0.7477(3) 0.9566(3)
C19_4 C 0.0112(4) 0.7578(5) 0.8783(5)
N15_4 N 0.0008(3) 0.7617(3) 0.6728(4)
N6_4 N 0.9992(3) 0.7617(3) 0.8272(4)
S3_4 S 0.9650(3) 0.7477(3) 0.5434(3)
C99_4 C 0.9888(4) 0.7578(5) 0.6217(5)
S4_4 S 0.25389(9) 0.98649(13) 0.05354(15)
S1_4 S 0.74611(9) 0.01351(13) 0.94646(15)
loop_
_geom_bond_atom_site_label_1
_geom_bond_atom_site_label_2
_geom_bond_site_symmetry_1
_geom_bond_site_symmetry_2
N1 C1 1_555 1_555
C1 H1 1_555 1_555
C4 C1 1_555 1_555
C10 C13 1_555 1_555
C14 N1 1_555 1_555
H6 C14 1_555 1_555
C17 N7 1_555 1_555
C22 C13 1_555 1_555
H9 C22 1_555 1_555
C28 C4 1_555 1_555
H15 C28 1_555 1_555
C31 C14 1_555 1_555
H17 C31 1_555 1_555
O3 C62 1_555 1_555
N10 C55 1_555 1_555
C53 H49 1_555 1_555
C54 C53 1_555 1_555
C55 H50 1_555 1_555
C59 C54 1_555 1_555
H52 C60 1_555 1_555
C62 C10 1_555 1_555
C64 N10 1_555 1_555
H54 C64 1_555 1_555
C66 C64 1_555 1_555
H56 C66 1_555 1_555
C68 C59 1_555 1_555
H58 C68 1_555 1_555
C69 O3 1_555 1_555
H59 C69 1_555 1_555
C70 C69 1_555 1_555
H60 C70 1_555 1_555
C71 C70 1_555 1_555
H61 C71 1_555 1_555
H62 C71 1_555 1_555
C72 C71 1_555 1_555
H63 C72 1_555 1_555
H64 C72 1_555 1_555
H65 C72 1_555 1_555
C73 H66 1_555 1_555
H67 C73 1_555 1_555
H68 C73 1_555 1_555
C74 C70 1_555 1_555
H69 C74 1_555 1_555
H70 C74 1_555 1_555
Co3 N1 1_555 1_555
Co7 N10 1_555 1_555
C4 C17 1_555 1_555
C17 C22 1_555 1_555
C28 C31 1_555 1_555
C55 C59 1_555 1_555
C60 C62 1_555 1_555
C66 C68 1_555 1_555
C73 C74 1_555 1_555
C69 H96 1_555 1_555
Co1 N2 1_555 1_555
Co2 N3 1_555 1_555
S2 C19 1_555 1_555
O1 C20 1_555 1_555
N2 C3 1_555 1_555
N3 C6 1_555 1_555
N4 Co2 1_555 1_555
N6 Co2 1_555 1_555
N8 C11 1_555 1_555
O2 C36 1_555 1_555
C3 H2 1_555 1_555
C5 H3 1_555 1_555
C6 H4 1_555 1_555
C7 C3 1_555 1_555
C8 C5 1_555 1_555
C9 N4 1_555 1_555
H5 C9 1_555 1_555
C11 C7 1_555 1_555
C12 C6 1_555 1_555
C15 C8 1_555 1_555
H7 C16 1_555 1_555
C18 N3 1_555 1_555
H8 C18 1_555 1_555
C19 N6 1_555 1_555
C20 C16 1_555 1_555
C21 N8 1_555 1_555
C23 C18 1_555 1_555
H10 C23 1_555 1_555
C24 N4 1_555 1_555
H11 C24 1_555 1_555
C25 N2 1_555 1_555
H12 C25 1_555 1_555
C26 C12 1_555 1_555
H13 C26 1_555 1_555
C27 C11 1_555 1_555
H14 C27 1_555 1_555
C29 C24 1_555 1_555
H16 C29 1_555 1_555
C30 C27 1_555 1_555
C32 C30 1_555 1_555
C33 C15 1_555 1_555
H18 C33 1_555 1_555
C34 C7 1_555 1_555
H19 C34 1_555 1_555
C35 C25 1_555 1_555
H20 C35 1_555 1_555
C36 C32 1_555 1_555
C37 C21 1_555 1_555
H21 C37 1_555 1_555
C38 C36 1_555 1_555
H22 C38 1_555 1_555
C39 O2 1_555 1_555
H23 C39 1_555 1_555
H24 C39 1_555 1_555
C40 C39 1_555 1_555
H25 C40 1_555 1_555
C41 O1 1_555 1_555
H26 C41 1_555 1_555
C42 C40 1_555 1_555
H27 C42 1_555 1_555
H28 C42 1_555 1_555
C43 C41 1_555 1_555
H29 C43 1_555 1_555
C44 C43 1_555 1_555
H30 C44 1_555 1_555
H31 C44 1_555 1_555
C45 C40 1_555 1_555
H32 C45 1_555 1_555
H33 C45 1_555 1_555
C46 C45 1_555 1_555
H34 C46 1_555 1_555
H35 C46 1_555 1_555
H36 C46 1_555 1_555
C47 C42 1_555 1_555
H37 C47 1_555 1_555
H38 C47 1_555 1_555
H39 C47 1_555 1_555
C48 C44 1_555 1_555
H40 C48 1_555 1_555
H41 C48 1_555 1_555
H42 C48 1_555 1_555
C49 H43 1_555 1_555
H44 C49 1_555 1_555
H45 C49 1_555 1_555
C50 C43 1_555 1_555
H46 C50 1_555 1_555
H47 C50 1_555 1_555
N9 C51 1_555 1_555
C51 H48 1_555 1_555
C52 C51 1_555 1_555
C56 C20 1_555 1_555
C58 N9 1_555 1_555
H51 C58 1_555 1_555
C61 N11 1_555 1_555
C63 C57 1_555 1_555
H53 C63 1_555 1_555
C65 C52 1_555 1_555
H55 C65 1_555 1_555
C67 C58 1_555 1_555
H57 C67 1_555 1_555
N12 C75 1_555 1_555
N13 C76 1_555 1_555
N14 C78 1_555 1_555
O4 C90 1_555 1_555
C75 H71 1_555 1_555
C76 H72 1_555 1_555
C77 C75 1_555 1_555
C78 C77 1_555 1_555
C79 C76 1_555 1_555
C80 N13 1_555 1_555
H73 C80 1_555 1_555
C81 N14 1_555 1_555
C82 C80 1_555 1_555
H74 C82 1_555 1_555
C83 N12 1_555 1_555
H75 C83 1_555 1_555
C84 C79 1_555 1_555
H76 C84 1_555 1_555
C85 C78 1_555 1_555
H77 C85 1_555 1_555
C86 C85 1_555 1_555
C87 C38 1_555 1_555
C88 C77 1_555 1_555
H78 C88 1_555 1_555
C89 C83 1_555 1_555
H79 C89 1_555 1_555
C90 C87 1_555 1_555
C91 C81 1_555 1_555
H80 C91 1_555 1_555
C92 C32 1_555 1_555
H81 C92 1_555 1_555
C93 O4 1_555 1_555
H82 C93 1_555 1_555
H83 C93 1_555 1_555
C94 C93 1_555 1_555
H84 C94 1_555 1_555
C95 C94 1_555 1_555
H85 C95 1_555 1_555
H86 C95 1_555 1_555
C96 C94 1_555 1_555
H87 C96 1_555 1_555
H88 C96 1_555 1_555
C97 C96 1_555 1_555
H89 C97 1_555 1_555
H90 C97 1_555 1_555
H91 C97 1_555 1_555
C98 C95 1_555 1_555
H92 C98 1_555 1_555
H93 C98 1_555 1_555
H94 C98 1_555 1_555
S3 C99 1_555 1_555
N15 Co2 1_555 1_555
C99 N15 1_555 1_555
N16 Co1 1_555 1_555
C100 N16 1_555 1_555
Co4_2 N12 1_555 1_555
Co5 N9 1_555 1_555
Co7 N13 1_555 1_555
N17 Co1 1_555 1_555
N20 Co2 1_555 1_555
N21 Co2 1_555 1_555
C9 C15 1_555 1_555
C12 C21 1_555 1_555
C23 C26 1_555 1_555
C29 C33 1_555 1_555
C30 C37 1_555 1_555
C34 C35 1_555 1_555
C49 C50 1_555 1_555
C52 C61 1_555 1_555
C56 C57 1_555 1_555
C61 C63 1_555 1_555
C65 C67 1_555 1_555
C79 C81 1_555 1_555
C82 C84 1_555 1_555
C86 C87 1_555 1_555
C86 C91 1_555 1_555
C88 C89 1_555 1_555
C90 C92 1_555 1_555
C41 H95 1_555 1_555
S1 C2 1_555 1_555
N5 Co1_2 1_555 1_555
C2 N5 1_555 1_555
N18 Co1_2 1_555 1_555
N19 Co1_2 1_555 1_555
N17 C1_2 1_555 1_555
C1_2 H1_2 1_555 1_555
C4_2 C1_2 1_555 1_555
C10_2 C13_2 1_555 1_555
C14_2 N17 1_555 1_555
H6_2 C14_2 1_555 1_555
C17_2 N7_2 1_555 1_555
C22_2 C13_2 1_555 1_555
H9_2 C22_2 1_555 1_555
C28_2 C4_2 1_555 1_555
H15_2 C28_2 1_555 1_555
C31_2 C14_2 1_555 1_555
H17_2 C31_2 1_555 1_555
C4_2 C17_2 1_555 1_555
C17_2 C22_2 1_555 1_555
C28_2 C31_2 1_555 1_555
O3_2 C62_2 1_555 1_555
N10_2 C55_2 1_555 1_555
C53_2 H49_2 1_555 1_555
C54_2 C53_2 1_555 1_555
C55_2 H50_2 1_555 1_555
C59_2 C54_2 1_555 1_555
H52_2 C60_2 1_555 1_555
C64_2 N10_2 1_555 1_555
H54_2 C64_2 1_555 1_555
C66_2 C64_2 1_555 1_555
H56_2 C66_2 1_555 1_555
C68_2 C59_2 1_555 1_555
H58_2 C68_2 1_555 1_555
C69_2 O3_2 1_555 1_555
H59_2 C69_2 1_555 1_555
C70_2 C69_2 1_555 1_555
H60_2 C70_2 1_555 1_555
C71_2 C70_2 1_555 1_555
H61_2 C71_2 1_555 1_555
H62_2 C71_2 1_555 1_555
C72_2 C71_2 1_555 1_555
H63_2 C72_2 1_555 1_555
H64_2 C72_2 1_555 1_555
H65_2 C72_2 1_555 1_555
C73_2 H66_2 1_555 1_555
H67_2 C73_2 1_555 1_555
H68_2 C73_2 1_555 1_555
C74_2 C70_2 1_555 1_555
H69_2 C74_2 1_555 1_555
H70_2 C74_2 1_555 1_555
Co7 N10_2 1_555 1_555
C55_2 C59_2 1_555 1_555
C60_2 C62_2 1_555 1_555
C66_2 C68_2 1_555 1_555
C73_2 C74_2 1_555 1_555
C69_2 H96_2 1_555 1_555
Co3 N2_2 1_555 1_555
S1_2 C2_2 1_555 1_555
O1_2 C20_2 1_555 1_555
N2_2 C3_2 1_555 1_555
N20 C6_2 1_555 1_555
N5_2 Co3 1_555 1_555
N8_2 C11_2 1_555 1_555
O2_2 C36_2 1_555 1_555
C2_2 N5_2 1_555 1_555
C3_2 H2_2 1_555 1_555
C5_2 H3_2 1_555 1_555
C6_2 H4_2 1_555 1_555
C7_2 C3_2 1_555 1_555
C8_2 C5_2 1_555 1_555
C9_2 N21 1_555 1_555
H5_2 C9_2 1_555 1_555
C11_2 C7_2 1_555 1_555
C12_2 C6_2 1_555 1_555
C15_2 C8_2 1_555 1_555
H7_2 C16_2 1_555 1_555
C18_2 N20 1_555 1_555
H8_2 C18_2 1_555 1_555
C20_2 C16_2 1_555 1_555
C21_2 N8_2 1_555 1_555
C23_2 C18_2 1_555 1_555
H10_2 C23_2 1_555 1_555
C24_2 N21 1_555 1_555
H11_2 C24_2 1_555 1_555
C25_2 N2_2 1_555 1_555
H12_2 C25_2 1_555 1_555
C26_2 C12_2 1_555 1_555
H13_2 C26_2 1_555 1_555
C27_2 C11_2 1_555 1_555
H14_2 C27_2 1_555 1_555
C29_2 C24_2 1_555 1_555
H16_2 C29_2 1_555 1_555
C30_2 C27_2 1_555 1_555
C32_2 C30_2 1_555 1_555
C33_2 C15_2 1_555 1_555
H18_2 C33_2 1_555 1_555
C34_2 C7_2 1_555 1_555
H19_2 C34_2 1_555 1_555
C35_2 C25_2 1_555 1_555
H20_2 C35_2 1_555 1_555
C36_2 C32_2 1_555 1_555
C37_2 C21_2 1_555 1_555
H21_2 C37_2 1_555 1_555
C39_2 O2_2 1_555 1_555
H23_2 C39_2 1_555 1_555
C40_2 C39_2 1_555 1_555
H25_2 C40_2 1_555 1_555
C41_2 O1_2 1_555 1_555
H26_2 C41_2 1_555 1_555
C42_2 C40_2 1_555 1_555
H27_2 C42_2 1_555 1_555
H28_2 C42_2 1_555 1_555
C43_2 C41_2 1_555 1_555
H29_2 C43_2 1_555 1_555
C44_2 C43_2 1_555 1_555
H30_2 C44_2 1_555 1_555
H31_2 C44_2 1_555 1_555
C45_2 C40_2 1_555 1_555
H32_2 C45_2 1_555 1_555
H33_2 C45_2 1_555 1_555
C46_2 C45_2 1_555 1_555
H34_2 C46_2 1_555 1_555
H35_2 C46_2 1_555 1_555
H36_2 C46_2 1_555 1_555
C47_2 C42_2 1_555 1_555
H37_2 C47_2 1_555 1_555
H38_2 C47_2 1_555 1_555
H39_2 C47_2 1_555 1_555
C48_2 C44_2 1_555 1_555
H40_2 C48_2 1_555 1_555
H41_2 C48_2 1_555 1_555
H42_2 C48_2 1_555 1_555
C49_2 H43_2 1_555 1_555
H44_2 C49_2 1_555 1_555
H45_2 C49_2 1_555 1_555
C50_2 C43_2 1_555 1_555
H46_2 C50_2 1_555 1_555
H47_2 C50_2 1_555 1_555
C92_2 C32_2 1_555 1_555
H81_2 C92_2 1_555 1_555
N16_2 Co3 1_555 1_555
C100_2 N16_2 1_555 1_555
N18_2 Co3 1_555 1_555
N19_2 Co3 1_555 1_555
C9_2 C15_2 1_555 1_555
C12_2 C21_2 1_555 1_555
C23_2 C26_2 1_555 1_555
C29_2 C33_2 1_555 1_555
C30_2 C37_2 1_555 1_555
C34_2 C35_2 1_555 1_555
C49_2 C50_2 1_555 1_555
C41_2 H95_2 1_555 1_555
H22_2 C38_2 1_555 1_555
N9_2 C51_2 1_555 1_555
C51_2 H48_2 1_555 1_555
C52_2 C51_2 1_555 1_555
C58_2 N9_2 1_555 1_555
H51_2 C58_2 1_555 1_555
C61_2 N11_2 1_555 1_555
C63_2 C57_2 1_555 1_555
H53_2 C63_2 1_555 1_555
C65_2 C52_2 1_555 1_555
H55_2 C65_2 1_555 1_555
C67_2 C58_2 1_555 1_555
H57_2 C67_2 1_555 1_555
N12_2 C75_2 1_555 1_555
N13_2 C76_2 1_555 1_555
N14_2 C78_2 1_555 1_555
O4_2 C90_2 1_555 1_555
C75_2 H71_2 1_555 1_555
C76_2 H72_2 1_555 1_555
C77_2 C75_2 1_555 1_555
C78_2 C77_2 1_555 1_555
C79_2 C76_2 1_555 1_555
C80_2 N13_2 1_555 1_555
H73_2 C80_2 1_555 1_555
C81_2 N14_2 1_555 1_555
C82_2 C80_2 1_555 1_555
H74_2 C82_2 1_555 1_555
C83_2 N12_2 1_555 1_555
H75_2 C83_2 1_555 1_555
C84_2 C79_2 1_555 1_555
H76_2 C84_2 1_555 1_555
C85_2 C78_2 1_555 1_555
H77_2 C85_2 1_555 1_555
C86_2 C85_2 1_555 1_555
C87_2 C38_2 1_555 1_555
C88_2 C77_2 1_555 1_555
H78_2 C88_2 1_555 1_555
C89_2 C83_2 1_555 1_555
H79_2 C89_2 1_555 1_555
C90_2 C87_2 1_555 1_555
C91_2 C81_2 1_555 1_555
H80_2 C91_2 1_555 1_555
C93_2 O4_2 1_555 1_555
H82_2 C93_2 1_555 1_555
C94_2 C93_2 1_555 1_555
H84_2 C94_2 1_555 1_555
C95_2 C94_2 1_555 1_555
H85_2 C95_2 1_555 1_555
H86_2 C95_2 1_555 1_555
C96_2 C94_2 1_555 1_555
H87_2 C96_2 1_555 1_555
H88_2 C96_2 1_555 1_555
C97_2 C96_2 1_555 1_555
H89_2 C97_2 1_555 1_555
H90_2 C97_2 1_555 1_555
H91_2 C97_2 1_555 1_555
C98_2 C95_2 1_555 1_555
H92_2 C98_2 1_555 1_555
H93_2 C98_2 1_555 1_555
H94_2 C98_2 1_555 1_555
Co5 N12_2 1_555 1_555
Co4_2 N9_2 1_555 1_555
Co7 N13_2 1_555 1_555
C52_2 C61_2 1_555 1_555
C56_2 C57_2 1_555 1_555
C61_2 C63_2 1_555 1_555
C65_2 C67_2 1_555 1_555
C79_2 C81_2 1_555 1_555
C82_2 C84_2 1_555 1_555
C86_2 C87_2 1_555 1_555
C86_2 C91_2 1_555 1_555
C88_2 C89_2 1_555 1_555
N1_2 C1_3 1_555 1_555
N4_2 Co2_2 1_555 1_555
N6_2 Co2_2 1_555 1_555
N7_3 C8_3 1_555 1_555
C1_3 H1_3 1_555 1_555
C4_3 C1_3 1_555 1_555
C5_3 H3_3 1_555 1_555
C8_3 C5_3 1_555 1_555
C9_3 N4_2 1_555 1_555
H5_3 C9_3 1_555 1_555
C10_3 C13_3 1_555 1_555
C13_3 C5_3 1_555 1_555
C14_3 N1_2 1_555 1_555
H6_3 C14_3 1_555 1_555
C15_3 C8_3 1_555 1_555
C17_3 N7_3 1_555 1_555
C22_3 C13_3 1_555 1_555
H9_3 C22_3 1_555 1_555
C24_3 N4_2 1_555 1_555
H11_3 C24_3 1_555 1_555
C28_3 C4_3 1_555 1_555
H15_3 C28_3 1_555 1_555
C29_3 C24_3 1_555 1_555
H16_3 C29_3 1_555 1_555
C31_3 C14_3 1_555 1_555
H17_3 C31_3 1_555 1_555
C33_3 C15_3 1_555 1_555
H18_3 C33_3 1_555 1_555
O3_3 C62_3 1_555 1_555
H52_3 C60_3 1_555 1_555
C62_3 C10_3 1_555 1_555
C69_3 O3_3 1_555 1_555
H59_3 C69_3 1_555 1_555
C70_3 C69_3 1_555 1_555
H60_3 C70_3 1_555 1_555
C71_3 C70_3 1_555 1_555
H61_3 C71_3 1_555 1_555
H62_3 C71_3 1_555 1_555
C72_3 C71_3 1_555 1_555
H63_3 C72_3 1_555 1_555
H64_3 C72_3 1_555 1_555
H65_3 C72_3 1_555 1_555
C73_3 H66_3 1_555 1_555
H67_3 C73_3 1_555 1_555
H68_3 C73_3 1_555 1_555
C74_3 C70_3 1_555 1_555
H69_3 C74_3 1_555 1_555
H70_3 C74_3 1_555 1_555
N19 C75_3 1_555 1_555
N14_3 C78_3 1_555 1_555
O4_3 C90_3 1_555 1_555
C75_3 H71_3 1_555 1_555
C77_3 C75_3 1_555 1_555
C78_3 C77_3 1_555 1_555
C83_3 N19 1_555 1_555
H75_3 C83_3 1_555 1_555
C85_3 C78_3 1_555 1_555
H77_3 C85_3 1_555 1_555
C86_3 C85_3 1_555 1_555
C88_3 C77_3 1_555 1_555
H78_3 C88_3 1_555 1_555
C89_3 C83_3 1_555 1_555
H79_3 C89_3 1_555 1_555
C90_3 C87_3 1_555 1_555
H81_3 C92_3 1_555 1_555
C93_3 O4_3 1_555 1_555
H83_3 C93_3 1_555 1_555
C94_3 C93_3 1_555 1_555
H84_3 C94_3 1_555 1_555
C95_3 C94_3 1_555 1_555
H85_3 C95_3 1_555 1_555
H86_3 C95_3 1_555 1_555
C96_3 C94_3 1_555 1_555
H87_3 C96_3 1_555 1_555
H88_3 C96_3 1_555 1_555
C98_3 C95_3 1_555 1_555
H92_3 C98_3 1_555 1_555
H93_3 C98_3 1_555 1_555
H94_3 C98_3 1_555 1_555
S3_2 C99_2 1_555 1_555
Co5 N1_2 1_555 1_555
N20_2 Co2_2 1_555 1_555
C4_3 C17_3 1_555 1_555
C9_3 C15_3 1_555 1_555
C17_3 C22_3 1_555 1_555
C28_3 C31_3 1_555 1_555
C29_3 C33_3 1_555 1_555
C60_3 C62_3 1_555 1_555
C73_3 C74_3 1_555 1_555
C86_3 C87_3 1_555 1_555
C88_3 C89_3 1_555 1_555
C90_3 C92_3 1_555 1_555
C69_3 H96_3 1_555 1_555
N13_3 C76_3 1_555 1_555
C76_3 H72_3 1_555 1_555
C79_3 C76_3 1_555 1_555
C80_3 N13_3 1_555 1_555
H73_3 C80_3 1_555 1_555
C82_3 C80_3 1_555 1_555
H74_3 C82_3 1_555 1_555
C84_3 C79_3 1_555 1_555
H76_3 C84_3 1_555 1_555
C91_3 C81_3 1_555 1_555
H80_3 C91_3 1_555 1_555
H89_3 C97_3 1_555 1_555
H90_3 C97_3 1_555 1_555
H91_3 C97_3 1_555 1_555
Co7_2 N13_3 1_555 1_555
C79_3 C81_3 1_555 1_555
C82_3 C84_3 1_555 1_555
Co2_3 N3_2 1_555 1_555
S2_2 C19_2 1_555 1_555
O1_3 C20_3 1_555 1_555
N3_2 C6_3 1_555 1_555
C6_3 H4_3 1_555 1_555
C12_3 C6_3 1_555 1_555
H7_3 C16_3 1_555 1_555
C18_3 N3_2 1_555 1_555
H8_3 C18_3 1_555 1_555
C20_3 C16_3 1_555 1_555
C23_3 C18_3 1_555 1_555
H10_3 C23_3 1_555 1_555
C26_3 C12_3 1_555 1_555
H13_3 C26_3 1_555 1_555
C37_3 C21_3 1_555 1_555
H21_3 C37_3 1_555 1_555
C41_3 O1_3 1_555 1_555
H26_3 C41_3 1_555 1_555
C43_3 C41_3 1_555 1_555
H29_3 C43_3 1_555 1_555
C44_3 C43_3 1_555 1_555
H30_3 C44_3 1_555 1_555
H31_3 C44_3 1_555 1_555
H34_3 C46_3 1_555 1_555
H35_3 C46_3 1_555 1_555
H36_3 C46_3 1_555 1_555
C48_3 C44_3 1_555 1_555
H40_3 C48_3 1_555 1_555
H41_3 C48_3 1_555 1_555
H42_3 C48_3 1_555 1_555
C49_3 H43_3 1_555 1_555
H44_3 C49_3 1_555 1_555
H45_3 C49_3 1_555 1_555
C50_3 C43_3 1_555 1_555
H46_3 C50_3 1_555 1_555
H47_3 C50_3 1_555 1_555
N18_2 C51_3 1_555 1_555
N10_3 C55_3 1_555 1_555
N11_3 C54_3 1_555 1_555
C51_3 H48_3 1_555 1_555
C52_3 C51_3 1_555 1_555
C53_3 H49_3 1_555 1_555
C54_3 C53_3 1_555 1_555
C55_3 H50_3 1_555 1_555
C56_3 C20_3 1_555 1_555
C57_3 C53_3 1_555 1_555
C58_3 N18_2 1_555 1_555
H51_3 C58_3 1_555 1_555
C59_3 C54_3 1_555 1_555
C61_3 N11_3 1_555 1_555
C63_3 C57_3 1_555 1_555
H53_3 C63_3 1_555 1_555
C64_3 N10_3 1_555 1_555
H54_3 C64_3 1_555 1_555
C65_3 C52_3 1_555 1_555
H55_3 C65_3 1_555 1_555
C66_3 C64_3 1_555 1_555
H56_3 C66_3 1_555 1_555
C67_3 C58_3 1_555 1_555
H57_3 C67_3 1_555 1_555
C68_3 C59_3 1_555 1_555
H58_3 C68_3 1_555 1_555
N15_2 Co2_3 1_555 1_555
Co7_3 N10_3 1_555 1_555
N21_2 Co2_3 1_555 1_555
C12_3 C21_3 1_555 1_555
C23_3 C26_3 1_555 1_555
C49_3 C50_3 1_555 1_555
C52_3 C61_3 1_555 1_555
C55_3 C59_3 1_555 1_555
C56_3 C57_3 1_555 1_555
C61_3 C63_3 1_555 1_555
C65_3 C67_3 1_555 1_555
C66_3 C68_3 1_555 1_555
C41_3 H95_3 1_555 1_555
Co4 N2_3 1_555 1_555
N2_3 C3_3 1_555 1_555
N8_3 C11_3 1_555 1_555
O2_3 C36_3 1_555 1_555
C3_3 H2_3 1_555 1_555
C7_3 C3_3 1_555 1_555
C11_3 C7_3 1_555 1_555
C25_3 N2_3 1_555 1_555
H12_3 C25_3 1_555 1_555
C27_3 C11_3 1_555 1_555
H14_3 C27_3 1_555 1_555
C30_3 C27_3 1_555 1_555
C32_3 C30_3 1_555 1_555
C34_3 C7_3 1_555 1_555
H19_3 C34_3 1_555 1_555
C35_3 C25_3 1_555 1_555
H20_3 C35_3 1_555 1_555
C36_3 C32_3 1_555 1_555
C38_3 C36_3 1_555 1_555
H22_3 C38_3 1_555 1_555
C39_3 O2_3 1_555 1_555
H24_3 C39_3 1_555 1_555
C40_3 C39_3 1_555 1_555
H25_3 C40_3 1_555 1_555
C42_3 C40_3 1_555 1_555
H27_3 C42_3 1_555 1_555
H28_3 C42_3 1_555 1_555
C45_3 C40_3 1_555 1_555
H32_3 C45_3 1_555 1_555
H33_3 C45_3 1_555 1_555
C47_3 C42_3 1_555 1_555
H37_3 C47_3 1_555 1_555
H38_3 C47_3 1_555 1_555
H39_3 C47_3 1_555 1_555
S4_2 C100_3 1_555 1_555
N16_3 Co4 1_555 1_555
C100_3 N16_3 1_555 1_555
N17_2 Co4 1_555 1_555
C34_3 C35_3 1_555 1_555
N5_3 Co4_2 1_555 1_555
C2_3 N5_3 1_555 1_555
O1_4 C20_4 1_555 1_555
N20_2 C6_4 1_555 1_555
C6_4 H4_4 1_555 1_555
C12_4 C6_4 1_555 1_555
H7_4 C16_4 1_555 1_555
C18_4 N20_2 1_555 1_555
H8_4 C18_4 1_555 1_555
C20_4 C16_4 1_555 1_555
C23_4 C18_4 1_555 1_555
H10_4 C23_4 1_555 1_555
C26_4 C12_4 1_555 1_555
H13_4 C26_4 1_555 1_555
C37_4 C21_4 1_555 1_555
H21_4 C37_4 1_555 1_555
C41_4 O1_4 1_555 1_555
H26_4 C41_4 1_555 1_555
C43_4 C41_4 1_555 1_555
H29_4 C43_4 1_555 1_555
C44_4 C43_4 1_555 1_555
H30_4 C44_4 1_555 1_555
H31_4 C44_4 1_555 1_555
H34_4 C46_4 1_555 1_555
H35_4 C46_4 1_555 1_555
H36_4 C46_4 1_555 1_555
C48_4 C44_4 1_555 1_555
H40_4 C48_4 1_555 1_555
H41_4 C48_4 1_555 1_555
H42_4 C48_4 1_555 1_555
C49_4 H43_4 1_555 1_555
H44_4 C49_4 1_555 1_555
H45_4 C49_4 1_555 1_555
C50_4 C43_4 1_555 1_555
H46_4 C50_4 1_555 1_555
H47_4 C50_4 1_555 1_555
C12_4 C21_4 1_555 1_555
C23_4 C26_4 1_555 1_555
C49_4 C50_4 1_555 1_555
C41_4 H95_4 1_555 1_555
N18 C51_4 1_555 1_555
N10_4 C55_4 1_555 1_555
N11_4 C54_4 1_555 1_555
C51_4 H48_4 1_555 1_555
C52_4 C51_4 1_555 1_555
C53_4 H49_4 1_555 1_555
C54_4 C53_4 1_555 1_555
C55_4 H50_4 1_555 1_555
C57_4 C53_4 1_555 1_555
C58_4 N18 1_555 1_555
H51_4 C58_4 1_555 1_555
C59_4 C54_4 1_555 1_555
C61_4 N11_4 1_555 1_555
C63_4 C57_4 1_555 1_555
H53_4 C63_4 1_555 1_555
C64_4 N10_4 1_555 1_555
H54_4 C64_4 1_555 1_555
C65_4 C52_4 1_555 1_555
H55_4 C65_4 1_555 1_555
C66_4 C64_4 1_555 1_555
H56_4 C66_4 1_555 1_555
C67_4 C58_4 1_555 1_555
H57_4 C67_4 1_555 1_555
C68_4 C59_4 1_555 1_555
H58_4 C68_4 1_555 1_555
Co7_2 N10_4 1_555 1_555
C52_4 C61_4 1_555 1_555
C55_4 C59_4 1_555 1_555
C56_4 C57_4 1_555 1_555
C61_4 C63_4 1_555 1_555
C65_4 C67_4 1_555 1_555
C66_4 C68_4 1_555 1_555
Co5 N2_4 1_555 1_555
N2_4 C3_4 1_555 1_555
N5_4 Co5 1_555 1_555
N8_4 C11_4 1_555 1_555
O2_4 C36_4 1_555 1_555
C2_4 N5_4 1_555 1_555
C3_4 H2_4 1_555 1_555
C7_4 C3_4 1_555 1_555
C11_4 C7_4 1_555 1_555
C25_4 N2_4 1_555 1_555
H12_4 C25_4 1_555 1_555
C27_4 C11_4 1_555 1_555
H14_4 C27_4 1_555 1_555
C30_4 C27_4 1_555 1_555
C32_4 C30_4 1_555 1_555
C34_4 C7_4 1_555 1_555
H19_4 C34_4 1_555 1_555
C35_4 C25_4 1_555 1_555
H20_4 C35_4 1_555 1_555
C36_4 C32_4 1_555 1_555
C39_4 O2_4 1_555 1_555
C40_4 C39_4 1_555 1_555
H25_4 C40_4 1_555 1_555
C42_4 C40_4 1_555 1_555
H27_4 C42_4 1_555 1_555
H28_4 C42_4 1_555 1_555
C45_4 C40_4 1_555 1_555
H32_4 C45_4 1_555 1_555
H33_4 C45_4 1_555 1_555
C47_4 C42_4 1_555 1_555
H37_4 C47_4 1_555 1_555
H38_4 C47_4 1_555 1_555
H39_4 C47_4 1_555 1_555
S4_3 C100_4 1_555 1_555
N16_4 Co5 1_555 1_555
C100_4 N16_4 1_555 1_555
C34_4 C35_4 1_555 1_555
H22_4 C38_4 1_555 1_555
N17_2 C1_4 1_555 1_555
N7_4 C8_4 1_555 1_555
C1_4 H1_4 1_555 1_555
C4_4 C1_4 1_555 1_555
C5_4 H3_4 1_555 1_555
C8_4 C5_4 1_555 1_555
C9_4 N21_2 1_555 1_555
H5_4 C9_4 1_555 1_555
C10_4 C13_4 1_555 1_555
C13_4 C5_4 1_555 1_555
C14_4 N17_2 1_555 1_555
H6_4 C14_4 1_555 1_555
C15_4 C8_4 1_555 1_555
C17_4 N7_4 1_555 1_555
C22_4 C13_4 1_555 1_555
H9_4 C22_4 1_555 1_555
C24_4 N21_2 1_555 1_555
H11_4 C24_4 1_555 1_555
C28_4 C4_4 1_555 1_555
H15_4 C28_4 1_555 1_555
C29_4 C24_4 1_555 1_555
H16_4 C29_4 1_555 1_555
C31_4 C14_4 1_555 1_555
H17_4 C31_4 1_555 1_555
C33_4 C15_4 1_555 1_555
H18_4 C33_4 1_555 1_555
H81_4 C92_4 1_555 1_555
C4_4 C17_4 1_555 1_555
C9_4 C15_4 1_555 1_555
C17_4 C22_4 1_555 1_555
C28_4 C31_4 1_555 1_555
C29_4 C33_4 1_555 1_555
O3_4 C62_4 1_555 1_555
H52_4 C60_4 1_555 1_555
C69_4 O3_4 1_555 1_555
H59_4 C69_4 1_555 1_555
C70_4 C69_4 1_555 1_555
H60_4 C70_4 1_555 1_555
C71_4 C70_4 1_555 1_555
H61_4 C71_4 1_555 1_555
H62_4 C71_4 1_555 1_555
C72_4 C71_4 1_555 1_555
H63_4 C72_4 1_555 1_555
H64_4 C72_4 1_555 1_555
H65_4 C72_4 1_555 1_555
C73_4 H66_4 1_555 1_555
H67_4 C73_4 1_555 1_555
H68_4 C73_4 1_555 1_555
C74_4 C70_4 1_555 1_555
H69_4 C74_4 1_555 1_555
H70_4 C74_4 1_555 1_555
N19_2 C75_4 1_555 1_555
N14_4 C78_4 1_555 1_555
O4_4 C90_4 1_555 1_555
C75_4 H71_4 1_555 1_555
C77_4 C75_4 1_555 1_555
C78_4 C77_4 1_555 1_555
C83_4 N19_2 1_555 1_555
H75_4 C83_4 1_555 1_555
C85_4 C78_4 1_555 1_555
H77_4 C85_4 1_555 1_555
C86_4 C85_4 1_555 1_555
C88_4 C77_4 1_555 1_555
H78_4 C88_4 1_555 1_555
C89_4 C83_4 1_555 1_555
H79_4 C89_4 1_555 1_555
C90_4 C87_4 1_555 1_555
C93_4 O4_4 1_555 1_555
C94_4 C93_4 1_555 1_555
H84_4 C94_4 1_555 1_555
C95_4 C94_4 1_555 1_555
H85_4 C95_4 1_555 1_555
H86_4 C95_4 1_555 1_555
C96_4 C94_4 1_555 1_555
H87_4 C96_4 1_555 1_555
H88_4 C96_4 1_555 1_555
C98_4 C95_4 1_555 1_555
H92_4 C98_4 1_555 1_555
H93_4 C98_4 1_555 1_555
H94_4 C98_4 1_555 1_555
C60_4 C62_4 1_555 1_555
C73_4 C74_4 1_555 1_555
C86_4 C87_4 1_555 1_555
C88_4 C89_4 1_555 1_555
C69_4 H96_4 1_555 1_555
N13_4 C76_4 1_555 1_555
C76_4 H72_4 1_555 1_555
C79_4 C76_4 1_555 1_555
C80_4 N13_4 1_555 1_555
H73_4 C80_4 1_555 1_555
C82_4 C80_4 1_555 1_555
H74_4 C82_4 1_555 1_555
C84_4 C79_4 1_555 1_555
H76_4 C84_4 1_555 1_555
C91_4 C81_4 1_555 1_555
H80_4 C91_4 1_555 1_555
H89_4 C97_4 1_555 1_555
H90_4 C97_4 1_555 1_555
H91_4 C97_4 1_555 1_555
Co7_3 N13_4 1_555 1_555
C79_4 C81_4 1_555 1_555
C82_4 C84_4 1_555 1_555
S2_3 C19_3 1_555 1_555
N6_3 Co7 1_555 1_555
C19_3 N6_3 1_555 1_555
S3_3 C99_3 1_555 1_555
N15_3 Co7 1_555 1_555
C99_3 N15_3 1_555 1_555
S2_4 C19_4 1_555 1_555
N15_4 Co7_2 1_555 1_555
N6_4 Co7_3 1_555 1_555
S3_4 C99_4 1_555 1_555

#END
