
###############################################################################
#
# This file contains modified crystal structure data generated from the
# MOF subset of the Cambridge Structural Database (CSD) v543 
# hosted by the Cambridge Crystallographic Data Centre (CCDC).
#
# This work is licensed under the Creative Commons
# Attribution-NonCommercial-ShareAlike 4.0 International License.
# To view a copy of this license, visit
# http://creativecommons.org/licenses/by-nc-sa/4.0/
# or send a letter to
# Creative Commons, PO Box 1866, Mountain View, CA 94042, USA.
#
# CIF created using the CSD Python API on 29 September 2022
# The structure has been converted into the P1 space group
# The structure has a 3D framework
# The original CSD entry NOSTUM01 is in the monoclinic crystal system
# The framework has been calculated to contain at least 10.0% void space
# The void calculation uses a probe of radius 1.32A, grid spacing 0.4
#
###############################################################################

data_NOSTUM01
_chemical_formula_moiety         '(C32 H32 Mg6 O30)n'
_symmetry_cell_setting           triclinic
_symmetry_space_group_name_H-M   'P 1'
_symmetry_Int_Tables_number      1
_space_group_name_Hall           'P 1'
loop_
_symmetry_equiv_pos_site_id
_symmetry_equiv_pos_as_xyz
1 x,y,z
_cell_length_a                   13.741(3)
_cell_length_b                   13.972(3)
_cell_length_c                   8.8045(18)
_cell_angle_alpha                90
_cell_angle_beta                 113.76(3)
_cell_angle_gamma                90
_cell_volume                     1547.1
loop_
_atom_site_label
_atom_site_type_symbol
_atom_site_fract_x
_atom_site_fract_y
_atom_site_fract_z
Mg2 Mg 0.5000 0.07780(6) 0.2500
Mg1 Mg -0.0000 0.57780(6) 0.2500
O1 O 0.09191(14) 0.57699(11) 0.11564(19)
O4 O 0.09520(15) 0.68447(11) 0.4033(2)
C1 C 0.12089(15) 0.58576(14) 0.0010(2)
C3 C 0.22013(17) 0.73456(15) 0.1304(2)
H2 H 0.2002 0.7244 0.2182
H3 H 0.0707(17) 0.7403(8) 0.367(2)
H4 H 0.1181(18) 0.6750(13) 0.5068(8)
O6 O 0.39794(13) 0.97386(11) 0.11511(18)
O7 O 0.31062(14) 0.87299(12) 0.26724(18)
H5 H 0.3528 0.9131 0.2621
C6 C 0.31305(15) 0.82923(14) 0.0015(2)
C8 C 0.28234(16) 0.81296(14) 0.1336(2)
O11 O 0.10206(13) 0.47386(11) 0.38489(18)
O2 O 0.10206(13) 0.52614(11) 0.88489(18)
O3 O 0.18938(14) 0.62701(12) 0.73276(18)
H1 H 0.1472 0.5869 0.7379
C2 C 0.18695(15) 0.67077(14) 0.9985(2)
C4 C 0.21766(16) 0.68704(14) 0.8664(2)
O5 O 0.40809(14) 0.92301(11) 0.88436(19)
C5 C 0.37911(15) 0.91424(14) 0.9990(2)
C7 C 0.27987(17) 0.76544(15) 0.8696(2)
H6 H 0.2998 0.7756 0.7818
Mg3 Mg -0.0000 0.42220(6) 0.7500
Mg4 Mg 0.5000 0.92220(6) 0.7500
Mg1_2 Mg 1.0000 0.57780(6) 0.2500
O8 O 0.90480(15) 0.68447(11) 0.0967(2)
H7 H 0.9293(17) 0.7403(8) 0.133(2)
O9 O 0.90809(14) 0.57699(11) 0.38436(19)
O10 O 0.89794(13) 0.47386(11) 0.11511(18)
H8 H 0.8819(18) 0.6750(13) 0.9932(8)
Mg3_2 Mg 1.0000 0.42220(6) 0.7500
O2_2 O 0.89794(13) 0.52614(11) 0.61511(18)
O3_2 O 0.81062(14) 0.62701(12) 0.76724(18)
H1_2 H 0.8528 0.5869 0.7621
C1_2 C 0.87911(15) 0.58576(14) 0.4990(2)
C2_2 C 0.81305(15) 0.67077(14) 0.5015(2)
C3_2 C 0.77987(17) 0.73456(15) 0.3696(2)
H2_2 H 0.7998 0.7244 0.2818
C4_2 C 0.78234(16) 0.68704(14) 0.6336(2)
O5_2 O 0.59191(14) 0.92301(11) 0.61564(19)
O6_2 O 0.60206(13) 0.97386(11) 0.38489(18)
O7_2 O 0.68938(14) 0.87299(12) 0.23276(18)
H5_2 H 0.6472 0.9131 0.2379
C5_2 C 0.62089(15) 0.91424(14) 0.5010(2)
C6_2 C 0.68695(15) 0.82923(14) 0.4985(2)
C7_2 C 0.72013(17) 0.76544(15) 0.6304(2)
H6_2 H 0.7002 0.7756 0.7182
C8_2 C 0.71766(16) 0.81296(14) 0.3664(2)
O1_2 O 0.59191(14) 0.07699(11) 0.11564(19)
O4_2 O 0.59520(15) 0.18447(11) 0.4033(2)
C1_3 C 0.62089(15) 0.08576(14) 0.0010(2)
C3_3 C 0.72013(17) 0.23456(15) 0.1304(2)
H2_3 H 0.7002 0.2244 0.2182
H3_2 H 0.5707(17) 0.2403(8) 0.367(2)
H4_2 H 0.6181(18) 0.1750(13) 0.5068(8)
O7_3 O 0.81062(14) 0.37299(12) 0.26724(18)
H5_3 H 0.8528 0.4131 0.2621
C6_3 C 0.81305(15) 0.32923(14) 0.0015(2)
C8_3 C 0.78234(16) 0.31296(14) 0.1336(2)
O8_2 O 0.40480(15) 0.18447(11) 0.0967(2)
H7_2 H 0.4293(17) 0.2403(8) 0.133(2)
O9_2 O 0.40809(14) 0.07699(11) 0.38436(19)
O2_3 O 0.60206(13) 0.02614(11) 0.88489(18)
O3_3 O 0.68938(14) 0.12701(12) 0.73276(18)
H1_3 H 0.6472 0.0869 0.7379
C2_3 C 0.68695(15) 0.17077(14) 0.9985(2)
C4_3 C 0.71766(16) 0.18704(14) 0.8664(2)
O5_3 O 0.90809(14) 0.42301(11) 0.88436(19)
C5_3 C 0.87911(15) 0.41424(14) 0.9990(2)
C7_3 C 0.77987(17) 0.26544(15) 0.8696(2)
H6_3 H 0.7998 0.2756 0.7818
H8_2 H 0.3819(18) 0.1750(13) 0.9932(8)
O2_4 O 0.39794(13) 0.02614(11) 0.61511(18)
O3_4 O 0.31062(14) 0.12701(12) 0.76724(18)
H1_4 H 0.3528 0.0869 0.7621
C1_4 C 0.37911(15) 0.08576(14) 0.4990(2)
C2_4 C 0.31305(15) 0.17077(14) 0.5015(2)
C3_4 C 0.27987(17) 0.23456(15) 0.3696(2)
H2_4 H 0.2998 0.2244 0.2818
C4_4 C 0.28234(16) 0.18704(14) 0.6336(2)
O5_4 O 0.09191(14) 0.42301(11) 0.61564(19)
O7_4 O 0.18938(14) 0.37299(12) 0.23276(18)
H5_4 H 0.1472 0.4131 0.2379
C5_4 C 0.12089(15) 0.41424(14) 0.5010(2)
C6_4 C 0.18695(15) 0.32923(14) 0.4985(2)
C7_4 C 0.22013(17) 0.26544(15) 0.6304(2)
H6_4 H 0.2002 0.2756 0.7182
C8_4 C 0.21766(16) 0.31296(14) 0.3664(2)
H8_3 H 0.1181(18) 0.3250(13) 0.0068(8)
O8_3 O 0.09520(15) 0.31553(11) 0.9033(2)
H7_3 H 0.0707(17) 0.2597(8) 0.867(2)
O4_3 O 0.90480(15) 0.31553(11) 0.5967(2)
H3_3 H 0.9293(17) 0.2597(8) 0.633(2)
H4_3 H 0.8819(18) 0.3250(13) 0.4932(8)
H8_4 H 0.6181(18) 0.8250(13) 0.0068(8)
O4_4 O 0.40480(15) 0.81553(11) 0.5967(2)
H3_4 H 0.4293(17) 0.7597(8) 0.633(2)
H4_4 H 0.3819(18) 0.8250(13) 0.4932(8)
O8_4 O 0.59520(15) 0.81553(11) 0.9033(2)
H7_4 H 0.5707(17) 0.7597(8) 0.867(2)
loop_
_geom_bond_atom_site_label_1
_geom_bond_atom_site_label_2
_geom_bond_site_symmetry_1
_geom_bond_site_symmetry_2
Mg1 O1 1_555 1_555
O1 C1 1_555 1_555
O4 Mg1 1_555 1_555
C3 H2 1_555 1_555
H3 O4 1_555 1_555
H4 O4 1_555 1_555
O7 H5 1_555 1_555
C8 C3 1_555 1_555
O11 Mg1 1_555 1_555
O7 C8 1_555 1_555
C6 C8 1_555 1_555
O3 H1 1_555 1_555
C4 O3 1_555 1_555
O5 C5 1_555 1_555
C7 C4 1_555 1_555
H6 C7 1_555 1_555
Mg3 O2 1_555 1_555
Mg4 O5 1_555 1_555
C2 C4 1_555 1_555
O8 Mg1_2 1_555 1_555
H7 O8 1_555 1_555
O9 Mg1_2 1_555 1_555
O10 Mg1_2 1_555 1_555
O9 C1_2 1_555 1_555
O2_2 C1_2 1_555 1_555
O3_2 H1_2 1_555 1_555
C1_2 C2_2 1_555 1_555
C2_2 C3_2 1_555 1_555
C3_2 H2_2 1_555 1_555
C4_2 O3_2 1_555 1_555
O5_2 C5_2 1_555 1_555
O6_2 C5_2 1_555 1_555
O7_2 H5_2 1_555 1_555
C5_2 C6_2 1_555 1_555
C6_2 C7_2 1_555 1_555
C7_2 C4_2 1_555 1_555
H6_2 C7_2 1_555 1_555
C8_2 C3_2 1_555 1_555
Mg3_2 O2_2 1_555 1_555
Mg4 O5_2 1_555 1_555
C2_2 C4_2 1_555 1_555
O7_2 C8_2 1_555 1_555
C6_2 C8_2 1_555 1_555
Mg2 O1_2 1_555 1_555
O1_2 C1_3 1_555 1_555
O4_2 Mg2 1_555 1_555
C3_3 H2_3 1_555 1_555
H3_2 O4_2 1_555 1_555
H4_2 O4_2 1_555 1_555
O7_3 H5_3 1_555 1_555
C8_3 C3_3 1_555 1_555
O8_2 Mg2 1_555 1_555
H7_2 O8_2 1_555 1_555
O9_2 Mg2 1_555 1_555
O7_3 C8_3 1_555 1_555
C6_3 C8_3 1_555 1_555
O3_3 H1_3 1_555 1_555
C4_3 O3_3 1_555 1_555
O5_3 C5_3 1_555 1_555
C7_3 C4_3 1_555 1_555
H6_3 C7_3 1_555 1_555
Mg3_2 O5_3 1_555 1_555
C2_3 C4_3 1_555 1_555
O9_2 C1_4 1_555 1_555
O2_4 C1_4 1_555 1_555
O3_4 H1_4 1_555 1_555
C1_4 C2_4 1_555 1_555
C2_4 C3_4 1_555 1_555
C3_4 H2_4 1_555 1_555
C4_4 O3_4 1_555 1_555
O5_4 C5_4 1_555 1_555
O11 C5_4 1_555 1_555
O7_4 H5_4 1_555 1_555
C5_4 C6_4 1_555 1_555
C6_4 C7_4 1_555 1_555
C7_4 C4_4 1_555 1_555
H6_4 C7_4 1_555 1_555
C8_4 C3_4 1_555 1_555
Mg3 O5_4 1_555 1_555
C2_4 C4_4 1_555 1_555
O7_4 C8_4 1_555 1_555
C6_4 C8_4 1_555 1_555
O8_3 Mg3 1_555 1_555
H7_3 O8_3 1_555 1_555
O4_3 Mg3_2 1_555 1_555
H3_3 O4_3 1_555 1_555
H4_3 O4_3 1_555 1_555
O4_4 Mg4 1_555 1_555
H3_4 O4_4 1_555 1_555
H4_4 O4_4 1_555 1_555
O8_4 Mg4 1_555 1_555
H7_4 O8_4 1_555 1_555

#END
