
###############################################################################
#
# This file contains modified crystal structure data generated from the
# MOF subset of the Cambridge Structural Database (CSD) v543 
# hosted by the Cambridge Crystallographic Data Centre (CCDC).
#
# This work is licensed under the Creative Commons
# Attribution-NonCommercial-ShareAlike 4.0 International License.
# To view a copy of this license, visit
# http://creativecommons.org/licenses/by-nc-sa/4.0/
# or send a letter to
# Creative Commons, PO Box 1866, Mountain View, CA 94042, USA.
#
# CIF created using the CSD Python API on 29 September 2022
# The structure has been converted into the P1 space group
# The structure has a 3D framework
# The original CSD entry NOWKIW is in the triclinic crystal system
# The framework has been calculated to contain at least 10.0% void space
# The void calculation uses a probe of radius 1.32A, grid spacing 0.4
#
###############################################################################

data_NOWKIW
_chemical_formula_moiety         '(C60 H34 Ce2 N4 O26)n'
_symmetry_cell_setting           triclinic
_symmetry_space_group_name_H-M   'P 1'
_symmetry_Int_Tables_number      1
_space_group_name_Hall           'P 1'
loop_
_symmetry_equiv_pos_site_id
_symmetry_equiv_pos_as_xyz
1 x,y,z
_cell_length_a                   8.4259(4)
_cell_length_b                   11.4299(6)
_cell_length_c                   17.9923(9)
_cell_angle_alpha                93.349(2)
_cell_angle_beta                 95.926(2)
_cell_angle_gamma                107.913(2)
_cell_volume                     1632.52
loop_
_atom_site_label
_atom_site_type_symbol
_atom_site_fract_x
_atom_site_fract_y
_atom_site_fract_z
O9 O 0.2840(3) 0.0342(2) 0.82921(11)
Ce2 Ce 0.10601(2) 0.14598(2) 0.89292(2)
O13 O 0.2606(3) 0.2669(2) 0.79139(13)
H4 H 0.366946 0.274263 0.798708
H5 H 0.250111 0.340067 0.792671
O17 O 0.3819(2) 0.28201(19) 0.96063(11)
O18 O 0.0604(3) 0.35037(19) 0.88555(11)
O5 O 0.1935(3) 0.51427(19) 0.96766(11)
H1 H 0.225428 0.589016 0.964623
O11 O 0.0429(3) 0.6993(2) 0.64843(12)
C5 C 0.0034(3) 0.6501(3) 0.90511(15)
H9 H 0.048558 0.671903 0.955230
C9 C 0.0067(3) 0.5401(3) 0.86917(15)
C18 C 0.0910(4) 0.4605(3) 0.90964(16)
H15 H 0.033673 0.713620 0.507005
O4 O 0.6181(2) 0.71799(19) 0.03937(11)
Ce5 Ce 0.89399(2) 0.85402(2) 0.10708(2)
O5_2 O 0.8065(3) 0.48573(19) 0.03234(11)
H1_2 H 0.774572 0.410984 0.035377
O6 O 0.9396(3) 0.64963(19) 0.11445(11)
O11_2 O 0.9571(3) 0.3007(2) 0.35157(12)
C5_2 C 0.9966(3) 0.3499(3) 0.09489(15)
H9_2 H 0.951442 0.328097 0.044770
C9_2 C 0.9933(3) 0.4599(3) 0.13083(15)
C18_2 C 0.9090(4) 0.5395(3) 0.09036(16)
H15_2 H 0.966327 0.286380 0.492995
O13_2 O 0.7394(3) 0.7331(2) 0.20861(13)
H4_2 H 0.633054 0.725737 0.201292
H5_2 H 0.749889 0.659933 0.207329
O20 O 0.7160(3) 0.9658(2) 0.17079(11)
O1 O 0.2732(3) 0.99314(19) 0.94694(11)
O2 O 0.6377(3) 0.57644(19) 0.95319(11)
O3 O 0.0843(3) 0.15630(19) 0.02394(11)
O7 O 0.0740(3) 0.06829(19) 0.13112(11)
O8 O 0.4365(3) 0.5749(2) 0.29548(11)
O12 O 0.2261(3) 0.48843(19) 0.73579(11)
O14 O 0.6226(3) 0.8258(2) 0.67513(12)
N1 N 0.4073(3) 0.6654(2) 0.70401(13)
N2 N 0.1891(3) 0.4451(2) 0.32291(13)
C1 C 0.3813(3) 0.8690(3) 0.86763(16)
C2 C 0.4526(3) 0.8194(3) 0.92648(16)
H8 H 0.461165 0.852758 0.975682
C3 C 0.0670(3) 0.2726(3) 0.13335(15)
C4 C 0.5931(3) 0.6682(3) 0.97309(16)
C6 C 0.0650(3) 0.4940(3) 0.20518(16)
H10 H 0.070620 0.570007 0.228780
C7 C 0.0759(3) 0.1569(3) 0.09275(15)
C8 C 0.3689(4) 0.8187(3) 0.79403(16)
H11 H 0.321571 0.851058 0.754503
C10 C 0.1279(4) 0.4130(3) 0.24342(15)
C11 C 0.4962(3) 0.6693(3) 0.83772(16)
H12 H 0.532672 0.601772 0.827520
C12 C 0.1275(3) 0.3018(3) 0.20877(15)
H13 H 0.167344 0.247430 0.235763
C13 C 0.3099(4) 0.9720(3) 0.88296(15)
C14 C 0.5105(3) 0.7203(3) 0.91151(16)
C15 C 0.4277(4) 0.7201(3) 0.78037(15)
C16 C 0.3447(4) 0.5390(3) 0.34231(15)
C17 C 0.1090(4) 0.3973(3) 0.58418(16)
H14 H 0.051753 0.352672 0.620210
C19 C 0.2888(4) 0.5263(3) 0.47553(15)
C20 C 0.4700(4) 0.6784(3) 0.57381(16)
C21 C 0.3870(4) 0.5880(3) 0.42248(16)
C22 C 0.0875(4) 0.3817(3) 0.37347(16)
C23 C 0.0586(4) 0.3564(3) 0.50762(16)
C24 C 0.3337(4) 0.5701(3) 0.55239(15)
C25 C 0.5098(4) 0.7319(3) 0.65383(16)
C26 C 0.2887(4) 0.5478(3) 0.68662(15)
C27 C 0.2418(4) 0.5026(3) 0.60606(15)
C28 C 0.1468(4) 0.4206(3) 0.45423(16)
C29 C 0.5230(4) 0.6919(3) 0.44484(16)
H16 H 0.588006 0.731669 0.409423
C30 C 0.5642(4) 0.7383(3) 0.52092(17)
H17 H 0.654969 0.809323 0.535554
O10 O 0.8020(3) 0.1288(2) 0.91644(13)
H2 H 0.770381 0.076617 0.948551
H3 H 0.735475 0.104627 0.875323
O15 O 0.9186(3) 0.0904(2) 0.76421(13)
H6 H 0.821926 0.038450 0.769038
H7 H 0.965627 0.057194 0.732235
O19 O 0.9260(3) 0.93171(19) 0.86888(11)
O16 O 0.7268(3) 0.00686(19) 0.05306(11)
O2_2 O 0.3623(3) 0.42356(19) 0.04681(11)
O3_2 O 0.9157(3) 0.84370(19) 0.97606(11)
O8_2 O 0.5635(3) 0.4251(2) 0.70452(11)
O12_2 O 0.7739(3) 0.51157(19) 0.26421(11)
O14_2 O 0.3774(3) 0.1742(2) 0.32487(12)
N1_2 N 0.5927(3) 0.3346(2) 0.29599(13)
N2_2 N 0.8109(3) 0.5549(2) 0.67709(13)
C1_2 C 0.6187(3) 0.1310(3) 0.13237(16)
C2_2 C 0.5474(3) 0.1806(3) 0.07352(16)
H8_2 H 0.538835 0.147242 0.024318
C3_2 C 0.9330(3) 0.7274(3) 0.86665(15)
C4_2 C 0.4069(3) 0.3318(3) 0.02691(16)
C6_2 C 0.9350(3) 0.5060(3) 0.79482(16)
H10_2 H 0.929380 0.429993 0.771220
C7_2 C 0.9241(3) 0.8431(3) 0.90725(15)
C8_2 C 0.6311(4) 0.1813(3) 0.20597(16)
H11_2 H 0.678429 0.148942 0.245497
C10_2 C 0.8721(4) 0.5870(3) 0.75658(15)
C11_2 C 0.5038(3) 0.3307(3) 0.16228(16)
H12_2 H 0.467328 0.398228 0.172480
C12_2 C 0.8725(3) 0.6982(3) 0.79123(15)
H13_2 H 0.832656 0.752570 0.764237
C13_2 C 0.6901(4) 0.0280(3) 0.11704(15)
C14_2 C 0.4895(3) 0.2797(3) 0.08849(16)
C15_2 C 0.5723(4) 0.2799(3) 0.21963(15)
C16_2 C 0.6553(4) 0.4610(3) 0.65769(15)
C17_2 C 0.8910(4) 0.6027(3) 0.41582(16)
H14_2 H 0.948247 0.647328 0.379790
C19_2 C 0.7112(4) 0.4737(3) 0.52447(15)
C20_2 C 0.5300(4) 0.3216(3) 0.42619(16)
C21_2 C 0.6130(4) 0.4120(3) 0.57752(16)
C22_2 C 0.9125(4) 0.6183(3) 0.62653(16)
C23_2 C 0.9414(4) 0.6436(3) 0.49238(16)
C24_2 C 0.6663(4) 0.4299(3) 0.44761(15)
C25_2 C 0.4902(4) 0.2681(3) 0.34617(16)
C26_2 C 0.7113(4) 0.4522(3) 0.31338(15)
C27_2 C 0.7582(4) 0.4974(3) 0.39394(15)
C28_2 C 0.8532(4) 0.5794(3) 0.54577(16)
C29_2 C 0.4770(4) 0.3081(3) 0.55516(16)
H16_2 H 0.411994 0.268331 0.590577
C30_2 C 0.4358(4) 0.2617(3) 0.47908(17)
H17_2 H 0.345031 0.190677 0.464446
O10_2 O 0.1980(3) 0.8712(2) 0.08356(13)
H2_2 H 0.229619 0.923383 0.051449
H3_2 H 0.264525 0.895373 0.124677
O15_2 O 0.0814(3) 0.9096(2) 0.23579(13)
H6_2 H 0.178074 0.961550 0.230962
H7_2 H 0.034373 0.942806 0.267765
loop_
_geom_bond_atom_site_label_1
_geom_bond_atom_site_label_2
_geom_bond_site_symmetry_1
_geom_bond_site_symmetry_2
O9 Ce2 1_555 1_555
O13 Ce2 1_555 1_555
H4 O13 1_555 1_555
H5 O13 1_555 1_555
O17 Ce2 1_555 1_555
O18 Ce2 1_555 1_555
O5 H1 1_555 1_555
O18 C18 1_555 1_555
C5 H9 1_555 1_555
C9 C5 1_555 1_555
C18 O5 1_555 1_555
C9 C18 1_555 1_555
Ce5 O4 1_555 1_555
O5_2 H1_2 1_555 1_555
O6 C18_2 1_555 1_555
C5_2 H9_2 1_555 1_555
C9_2 C5_2 1_555 1_555
C18_2 O5_2 1_555 1_555
Ce5 O6 1_555 1_555
C9_2 C18_2 1_555 1_555
O13_2 Ce5 1_555 1_555
H4_2 O13_2 1_555 1_555
H5_2 O13_2 1_555 1_555
O20 Ce5 1_555 1_555
O1 C13 1_555 1_555
O2 C4 1_555 1_555
O3 C7 1_555 1_555
O7 C7 1_555 1_555
O8 C16 1_555 1_555
O12 C26 1_555 1_555
O14 C25 1_555 1_555
N1 C15 1_555 1_555
N2 C10 1_555 1_555
C1 C2 1_555 1_555
C2 H8 1_555 1_555
C4 C14 1_555 1_555
C6 H10 1_555 1_555
C7 C3 1_555 1_555
C8 C1 1_555 1_555
H11 C8 1_555 1_555
C10 C6 1_555 1_555
C11 H12 1_555 1_555
C12 C3 1_555 1_555
H13 C12 1_555 1_555
C13 C1 1_555 1_555
C14 C2 1_555 1_555
C15 C8 1_555 1_555
C16 N2 1_555 1_555
C17 H14 1_555 1_555
C19 C21 1_555 1_555
C20 C24 1_555 1_555
C21 C16 1_555 1_555
C22 N2 1_555 1_555
C23 C17 1_555 1_555
C24 C19 1_555 1_555
C25 N1 1_555 1_555
C26 N1 1_555 1_555
C27 C17 1_555 1_555
C28 C19 1_555 1_555
C29 C21 1_555 1_555
H16 C29 1_555 1_555
C30 C20 1_555 1_555
H17 C30 1_555 1_555
C10 C12 1_555 1_555
C11 C14 1_555 1_555
C11 C15 1_555 1_555
C20 C25 1_555 1_555
C22 C28 1_555 1_555
C23 C28 1_555 1_555
C24 C27 1_555 1_555
C26 C27 1_555 1_555
C29 C30 1_555 1_555
H2 O10 1_555 1_555
H3 O10 1_555 1_555
H6 O15 1_555 1_555
H7 O15 1_555 1_555
O16 C13_2 1_555 1_555
O2_2 C4_2 1_555 1_555
O3_2 C7_2 1_555 1_555
O19 C7_2 1_555 1_555
O8_2 C16_2 1_555 1_555
O12_2 C26_2 1_555 1_555
O14_2 C25_2 1_555 1_555
N1_2 C15_2 1_555 1_555
N2_2 C10_2 1_555 1_555
C1_2 C2_2 1_555 1_555
C2_2 H8_2 1_555 1_555
C4_2 C14_2 1_555 1_555
C6_2 H10_2 1_555 1_555
C7_2 C3_2 1_555 1_555
C8_2 C1_2 1_555 1_555
H11_2 C8_2 1_555 1_555
C10_2 C6_2 1_555 1_555
C11_2 H12_2 1_555 1_555
C12_2 C3_2 1_555 1_555
H13_2 C12_2 1_555 1_555
C13_2 C1_2 1_555 1_555
C14_2 C2_2 1_555 1_555
C15_2 C8_2 1_555 1_555
C16_2 N2_2 1_555 1_555
C17_2 H14_2 1_555 1_555
C19_2 C21_2 1_555 1_555
C20_2 C24_2 1_555 1_555
C21_2 C16_2 1_555 1_555
C22_2 N2_2 1_555 1_555
C23_2 C17_2 1_555 1_555
C24_2 C19_2 1_555 1_555
C25_2 N1_2 1_555 1_555
C26_2 N1_2 1_555 1_555
C27_2 C17_2 1_555 1_555
C28_2 C19_2 1_555 1_555
C29_2 C21_2 1_555 1_555
H16_2 C29_2 1_555 1_555
C30_2 C20_2 1_555 1_555
H17_2 C30_2 1_555 1_555
C10_2 C12_2 1_555 1_555
C11_2 C14_2 1_555 1_555
C11_2 C15_2 1_555 1_555
C20_2 C25_2 1_555 1_555
C22_2 C28_2 1_555 1_555
C23_2 C28_2 1_555 1_555
C24_2 C27_2 1_555 1_555
C26_2 C27_2 1_555 1_555
C29_2 C30_2 1_555 1_555
H2_2 O10_2 1_555 1_555
H3_2 O10_2 1_555 1_555
H6_2 O15_2 1_555 1_555
H7_2 O15_2 1_555 1_555

#END
