
###############################################################################
#
# This file contains modified crystal structure data generated from the
# MOF subset of the Cambridge Structural Database (CSD) v543 
# hosted by the Cambridge Crystallographic Data Centre (CCDC).
#
# This work is licensed under the Creative Commons
# Attribution-NonCommercial-ShareAlike 4.0 International License.
# To view a copy of this license, visit
# http://creativecommons.org/licenses/by-nc-sa/4.0/
# or send a letter to
# Creative Commons, PO Box 1866, Mountain View, CA 94042, USA.
#
# CIF created using the CSD Python API on 29 September 2022
# The structure has been converted into the P1 space group
# The structure has a 3D framework
# The original CSD entry NOWMAQ is in the monoclinic crystal system
# The framework has been calculated to contain at least 10.0% void space
# The void calculation uses a probe of radius 1.32A, grid spacing 0.4
#
###############################################################################

data_NOWMAQ
_chemical_formula_moiety         '(C416 H288 Cd16 N32 O96 S16)n'
_symmetry_cell_setting           triclinic
_symmetry_space_group_name_H-M   'P 1'
_symmetry_Int_Tables_number      1
_space_group_name_Hall           'P 1'
loop_
_symmetry_equiv_pos_site_id
_symmetry_equiv_pos_as_xyz
1 x,y,z
_cell_length_a                   15.9997(9)
_cell_length_b                   44.514(3)
_cell_length_c                   17.3686(13)
_cell_angle_alpha                90
_cell_angle_beta                 114.147(5)
_cell_angle_gamma                90
_cell_volume                     11287.7
loop_
_atom_site_label
_atom_site_type_symbol
_atom_site_fract_x
_atom_site_fract_y
_atom_site_fract_z
Cd6 Cd 0.03116(6) 0.00747(2) 0.62023(6)
N9 N 0.0628(7) 0.0330(2) 0.3933(7)
Cd12 Cd 0.47380(6) 0.00791(2) 0.88119(5)
O2 O 0.0494(7) 0.9623(2) 0.3156(7)
O16 O 0.0377(7) 0.6833(2) 0.4852(6)
O18 O 0.0276(7) 0.7438(2) 0.1034(6)
H14 H 0.0272 0.9357 0.6191
C51 C 0.0383(10) 0.9293(3) 0.1725(9)
H41 H 0.0639 0.9188 0.2247
C52 C 0.0429(11) 0.9171(4) 0.1007(10)
H42 H 0.0711 0.8982 0.1034
C53 C 0.0071(10) 0.9324(4) 0.0270(9)
C57 C 0.1947(12) 0.9352(4) 0.0036(9)
H45 H 0.1980 0.9269 0.0552
H46 H 0.3284 0.9474 0.0483
C85 C 0.0029(10) 0.7129(4) 0.3218(10)
H61 H 0.0273 0.7235 0.3738
C86 C 0.0072(11) 0.7252(4) 0.2498(10)
H62 H 0.0381 0.7437 0.2533
Cd10 Cd 0.52620(6) 0.99209(2) 0.11881(5)
O33 O 0.0718(7) 0.9762(2) 0.5109(6)
S4 S 0.0139(3) 0.91686(11) 0.9355(3)
O4 O 0.0342(7) 0.8863(2) 0.9502(6)
O5 O 0.3466(7) 0.9777(2) 0.8471(6)
O6 O 0.4174(7) 0.9798(2) 0.9859(6)
C56 C 0.1108(11) 0.9349(3) 0.9318(10)
C58 C 0.2720(11) 0.9473(4) 0.9998(10)
C59 C 0.2670(8) 0.9594(3) 0.9251(8)
C60 C 0.1839(9) 0.9596(3) 0.8555(9)
H47 H 0.1797 0.9681 0.8038
C61 C 0.1071(10) 0.9475(4) 0.8613(11)
H48 H 0.0502 0.9483 0.8134
C62 C 0.3492(8) 0.9727(3) 0.9192(8)
O32 O 0.8425(7) 0.0221(2) 0.3549(6)
O34 O 0.9282(7) 0.0238(2) 0.4891(6)
Cd1 Cd 0.96884(6) 0.99253(2) 0.37977(6)
Cd2 Cd 0.42897(7) 0.73517(2) 0.22066(6)
Cd3 Cd 0.48427(7) 0.75129(2) 0.45989(7)
S2 S 0.9607(4) 0.67116(15) 0.4118(4)
O1 O 0.9258(7) 0.9868(2) 0.2335(6)
O7 O 0.3997(7) 0.7302(2) 0.0722(6)
O8 O 0.5080(7) 0.7032(2) 0.1665(7)
O13 O 0.5394(7) 0.7197(2) 0.3536(6)
O14 O 0.6121(7) 0.7225(2) 0.4891(7)
O15 O 0.9453(7) 0.6410(3) 0.3965(6)
O17 O 0.9098(7) 0.7162(2) 0.0241(7)
O20 O 0.0489(7) 0.4591(2) 0.3250(6)
O22 O 0.1009(7) 0.3700(2) 0.0090(6)
N1 N 0.8772(7) 0.9504(2) 0.3727(7)
N2 N 0.5226(8) 0.7760(3) 0.2344(8)
N3 N 0.9372(7) 0.9670(2) 0.6067(7)
N4 N 0.5754(8) 0.7935(3) 0.4644(8)
N5 N 0.3388(8) 0.6962(2) 0.2306(7)
N6 N 0.0617(7) 0.5339(2) 0.3804(6)
N7 N 0.3942(8) 0.7103(2) 0.4577(7)
N8 N 0.1141(7) 0.5479(2) 0.6079(6)
C1 C 0.7903(10) 0.9542(3) 0.3590(11)
H1 H 0.7687 0.9740 0.3608
C2 C 0.7297(11) 0.9304(3) 0.3419(12)
H2 H 0.6697 0.9338 0.3387
C3 C 0.7545(10) 0.9026(3) 0.3299(11)
C4 C 0.8486(10) 0.8992(3) 0.3436(11)
H3 H 0.8724 0.8799 0.3400
C5 C 0.9041(10) 0.9242(3) 0.3619(11)
H4 H 0.9651 0.9220 0.3668
C6 C 0.6927(10) 0.8769(3) 0.3079(12)
H5 H 0.6338 0.8807 0.3069
C7 C 0.7068(10) 0.8489(3) 0.2890(11)
H6 H 0.7649 0.8446 0.2888
C8 C 0.4937(11) 0.8036(3) 0.2326(12)
H7 H 0.4307 0.8066 0.2201
C9 C 0.5495(11) 0.8285(4) 0.2479(13)
H8 H 0.5246 0.8481 0.2440
C10 C 0.6419(12) 0.8247(3) 0.2688(11)
C11 C 0.6722(12) 0.7952(3) 0.2693(13)
H9 H 0.7343 0.7912 0.2800
C12 C 0.6092(11) 0.7721(4) 0.2538(13)
H10 H 0.6310 0.7521 0.2576
C13 C 0.8479(11) 0.9707(4) 0.5895(13)
H11 H 0.8250 0.9905 0.5887
C14 C 0.7904(12) 0.9474(4) 0.5734(15)
H12 H 0.7289 0.9512 0.5654
C15 C 0.8147(10) 0.9197(4) 0.5683(11)
C16 C 0.9066(12) 0.9151(3) 0.5885(12)
H13 H 0.9295 0.8954 0.5899
C17 C 0.9644(11) 0.9392(3) 0.6063(13)
C18 C 0.7472(13) 0.8958(4) 0.5460(12)
H15 H 0.6895 0.9002 0.5469
C19 C 0.7610(12) 0.8672(3) 0.5238(12)
H16 H 0.8189 0.8630 0.5231
C20 C 0.5484(10) 0.8206(4) 0.4724(11)
H17 H 0.4875 0.8234 0.4672
C21 C 0.6041(11) 0.8450(3) 0.4878(12)
H18 H 0.5798 0.8643 0.4895
C22 C 0.6937(10) 0.8425(3) 0.5010(9)
C23 C 0.7222(11) 0.8143(3) 0.4936(12)
H19 H 0.7835 0.8110 0.5005
C24 C 0.6615(11) 0.7903(3) 0.4758(11)
H20 H 0.6830 0.7707 0.4716
C25 C 0.2490(9) 0.6975(3) 0.2029(9)
H21 H 0.2187 0.7150 0.1732
C26 C 0.1968(10) 0.6748(3) 0.2144(10)
H22 H 0.1323 0.6770 0.1939
C27 C 0.2385(10) 0.6493(3) 0.2555(9)
C28 C 0.3321(11) 0.6471(3) 0.2835(10)
H23 H 0.3632 0.6296 0.3122
C29 C 0.3793(9) 0.6703(3) 0.2696(9)
H24 H 0.4438 0.6683 0.2880
C30 C 0.1839(10) 0.6254(3) 0.2710(9)
H25 H 0.1202 0.6251 0.2360
C31 C 0.2160(10) 0.6038(3) 0.3301(10)
H26 H 0.2799 0.6040 0.3644
C32 C 0.0209(10) 0.5567(3) 0.3289(11)
C33 C 0.0654(10) 0.5800(3) 0.3118(12)
H28 H 0.0319 0.5960 0.2768
C34 C 0.1625(10) 0.5800(3) 0.3469(9)
C35 C 0.2040(9) 0.5583(3) 0.4065(10)
H29 H 0.2678 0.5594 0.4407
C36 C 0.1535(9) 0.5349(3) 0.4168(9)
H30 H 0.1853 0.5186 0.4517
C37 C 0.3016(10) 0.7093(3) 0.4215(9)
H31 H 0.2702 0.7249 0.3834
C38 C 0.2503(10) 0.6874(3) 0.4360(10)
H32 H 0.1854 0.6884 0.4098
C39 C 0.2933(9) 0.6633(3) 0.4894(8)
C40 C 0.3884(10) 0.6631(3) 0.5217(10)
H33 H 0.4215 0.6466 0.5547
C41 C 0.4351(11) 0.6866(4) 0.5064(11)
H34 H 0.5001 0.6861 0.5319
C42 C 0.2400(10) 0.6406(3) 0.5081(10)
H35 H 0.1757 0.6411 0.4754
C43 C 0.2713(11) 0.6188(3) 0.5674(10)
H36 H 0.3352 0.6186 0.6017
C44 C 0.0751(10) 0.5723(3) 0.5661(10)
H37 H 0.0101 0.5734 0.5433
C45 C 0.1215(10) 0.5959(3) 0.5534(9)
H38 H 0.0888 0.6130 0.5234
C46 C 0.2162(9) 0.5953(3) 0.5836(9)
C47 C 0.2581(9) 0.5702(3) 0.6299(9)
H39 H 0.3230 0.5691 0.6565
C48 C 0.2061(9) 0.5468(3) 0.6377(9)
H40 H 0.2364 0.5290 0.6653
C49 C 0.9915(9) 0.9692(3) 0.2451(9)
C50 C 0.9976(10) 0.9558(3) 0.1677(9)
C54 C 0.9622(10) 0.9590(4) 0.0184(9)
C55 C 0.9588(9) 0.9715(4) 0.0901(9)
H44 H 0.9306 0.9905 0.0873
C63 C 0.4629(9) 0.7107(3) 0.0918(9)
C64 C 0.4777(9) 0.6945(3) 0.0214(9)
C65 C 0.5333(10) 0.6713(3) 0.0425(10)
H49 H 0.5612 0.6649 0.0997
C77 C 0.6085(8) 0.7161(3) 0.4184(8)
C78 C 0.6962(9) 0.7049(3) 0.4166(9)
C79 C 0.7815(10) 0.7120(4) 0.4822(11)
H57 H 0.7826 0.7233 0.5289
C80 C 0.8641(10) 0.7029(4) 0.4809(11)
H58 H 0.9217 0.7080 0.5244
C81 C 0.8560(11) 0.6861(4) 0.4121(12)
C82 C 0.7790(14) 0.6794(5) 0.3473(12)
H59 H 0.7804 0.6677 0.3021
C83 C 0.6938(12) 0.6898(4) 0.3452(10)
H60 H 0.6378 0.6865 0.2975
C84 C 0.9642(10) 0.6860(3) 0.3169(10)
C87 C 0.9666(10) 0.7105(4) 0.1730(10)
C88 C 0.9289(11) 0.6825(4) 0.1699(10)
H63 H 0.9030 0.6717 0.1183
C89 C 0.9295(11) 0.6701(4) 0.2445(10)
H64 H 0.9055 0.6506 0.2440
C90 C 0.9659(10) 0.7245(3) 0.0945(10)
C92 C 0.0112(8) 0.4494(3) 0.1801(8)
C93 C 0.0659(10) 0.4233(3) 0.1989(9)
H65 H 0.0934 0.4161 0.2553
C94 C 0.0793(11) 0.4082(4) 0.1358(10)
H66 H 0.1154 0.3904 0.1480
C95 C 0.0402(9) 0.4189(3) 0.0564(8)
C99 C 0.2376(10) 0.4174(3) 0.0193(8)
H69 H 0.2534 0.4034 0.0644
C100 C 0.3037(9) 0.4337(3) 0.0091(8)
H70 H 0.3658 0.4315 0.0478
Cd5 Cd 0.53116(6) 0.49253(2) 0.12023(6)
Cd11 Cd 0.02620(6) 0.50791(2) 0.61881(5)
O26 O 0.0826(7) 0.4798(2) 0.5141(6)
O28 O 0.3010(7) 0.7662(2) 0.1906(6)
O29 O 0.3834(7) 0.7637(2) 0.3262(6)
O30 O 0.4098(7) 0.7838(2) 0.5241(7)
O31 O 0.5276(7) 0.7562(2) 0.6034(6)
S1 S 0.0619(3) 0.39931(9) 0.9764(2)
S3 S 0.5336(2) 0.64954(8) 0.8157(2)
O3 O 0.9331(7) 0.9262(2) 0.8614(6)
O9 O 0.4514(7) 0.6508(2) 0.7406(6)
O10 O 0.5757(7) 0.6211(2) 0.8482(6)
O11 O 0.8010(7) 0.7338(2) 0.6906(6)
O12 O 0.8834(7) 0.7363(2) 0.8262(6)
O23 O 0.3425(7) 0.4779(2) 0.8549(6)
O24 O 0.4282(7) 0.4762(2) 0.9891(6)
H43 H 0.9342 0.9687 0.9652
C66 C 0.5517(9) 0.6556(3) 0.9788(9)
H50 H 0.5886 0.6380 0.9914
C67 C 0.5121(9) 0.6676(3) 0.8969(8)
C68 C 0.4547(9) 0.6927(3) 0.8760(9)
H51 H 0.4274 0.6998 0.8196
C69 C 0.4387(11) 0.7071(4) 0.9397(10)
H52 H 0.4026 0.7249 0.9287
C70 C 0.6151(8) 0.6734(3) 0.8011(8)
C71 C 0.7048(10) 0.6722(3) 0.8606(9)
H53 H 0.7220 0.6591 0.9078
C72 C 0.7692(10) 0.6907(3) 0.8490(10)
H54 H 0.8303 0.6912 0.8908
C73 C 0.7452(8) 0.7080(3) 0.7777(8)
C74 C 0.6567(10) 0.7084(3) 0.7215(10)
H55 H 0.6390 0.7211 0.6735
C75 C 0.5918(10) 0.6909(4) 0.7325(11)
H56 H 0.5304 0.6911 0.6914
C76 C 0.8134(8) 0.7269(3) 0.7631(8)
C98 C 0.1477(10) 0.4211(3) 0.9645(9)
C101 C 0.2807(8) 0.4537(3) 0.9417(8)
C102 C 0.1904(9) 0.4591(3) 0.8879(9)
H71 H 0.1746 0.4735 0.8439
C103 C 0.1234(10) 0.4424(3) 0.9008(10)
H72 H 0.0606 0.4456 0.8655
C104 C 0.3532(9) 0.4706(3) 0.9279(8)
Cd7 Cd 0.46884(6) 0.50747(2) 0.87977(6)
Cd8 Cd 0.92897(7) 0.76483(2) 0.72066(6)
Cd9 Cd 0.98427(7) 0.74871(2) 0.95989(7)
Cd4 Cd 0.97380(6) 0.49209(2) 0.38119(5)
O19 O 0.9365(7) 0.4856(2) 0.2313(6)
H27 H 0.9559 0.5567 0.3022
C91 C 0.9965(8) 0.4665(3) 0.2497(7)
C96 C 0.9881(10) 0.4436(4) 0.0325(10)
C97 C 0.9719(9) 0.4595(4) 0.1003(9)
H68 H 0.9337 0.4768 0.0872
O25 O 0.8466(7) 0.5223(2) 0.3471(6)
O27 O 0.9174(7) 0.5202(2) 0.4859(6)
N10 N 0.8859(7) 0.4521(2) 0.3921(6)
Cd2_2 Cd 0.07103(7) 0.23517(2) 0.27934(6)
Cd3_2 Cd 0.01573(7) 0.25129(2) 0.04011(7)
O7_2 O 0.1003(7) 0.2302(2) 0.4278(6)
O9_2 O 0.0486(7) 0.1508(2) 0.7594(6)
N5_2 N 0.1612(8) 0.1962(2) 0.2694(7)
N6_2 N 0.4383(7) 0.0339(2) 0.1196(6)
N7_2 N 0.1058(8) 0.2103(2) 0.0423(7)
C8_2 C 0.0063(11) 0.3036(3) 0.2674(12)
H7_2 H 0.0693 0.3066 0.2799
H17_2 H 0.0125 0.3234 0.0328
C25_2 C 0.2510(9) 0.1975(3) 0.2971(9)
H21_2 H 0.2813 0.2150 0.3268
C26_2 C 0.3032(10) 0.1748(3) 0.2856(10)
H22_2 H 0.3677 0.1770 0.3061
C27_2 C 0.2615(10) 0.1493(3) 0.2445(9)
C28_2 C 0.1679(11) 0.1471(3) 0.2165(10)
H23_2 H 0.1368 0.1296 0.1878
C29_2 C 0.1207(9) 0.1703(3) 0.2304(9)
H24_2 H 0.0562 0.1683 0.2120
C30_2 C 0.3161(10) 0.1254(3) 0.2290(9)
H25_2 H 0.3798 0.1251 0.2640
C31_2 C 0.2840(10) 0.1038(3) 0.1699(10)
H26_2 H 0.2201 0.1040 0.1356
C32_2 C 0.4791(10) 0.0567(3) 0.1711(11)
H27_2 H 0.5441 0.0567 0.1978
C33_2 C 0.4346(10) 0.0800(3) 0.1882(12)
H28_2 H 0.4681 0.0960 0.2232
C34_2 C 0.3375(10) 0.0800(3) 0.1531(9)
C35_2 C 0.2960(9) 0.0583(3) 0.0935(10)
H29_2 H 0.2322 0.0594 0.0593
C36_2 C 0.3465(9) 0.0349(3) 0.0832(9)
H30_2 H 0.3147 0.0186 0.0483
C37_2 C 0.1984(10) 0.2093(3) 0.0785(9)
H31_2 H 0.2298 0.2249 0.1166
C38_2 C 0.2497(10) 0.1874(3) 0.0640(10)
H32_2 H 0.3146 0.1884 0.0902
C39_2 C 0.2067(9) 0.1633(3) 0.0106(8)
H35_2 H 0.3243 0.1411 0.0246
C63_2 C 0.0371(9) 0.2107(3) 0.4082(9)
C64_2 C 0.0223(9) 0.1945(3) 0.4786(9)
C68_2 C 0.0453(9) 0.1927(3) 0.6240(9)
H51_2 H 0.0726 0.1998 0.6804
C69_2 C 0.0613(11) 0.2071(4) 0.5603(10)
H52_2 H 0.0974 0.2249 0.5713
O25_2 O 0.6534(7) 0.0223(2) 0.1529(6)
O27_2 O 0.5826(7) 0.0202(2) 0.0141(6)
O28_2 O 0.1990(7) 0.2662(2) 0.3094(6)
O29_2 O 0.1166(7) 0.2637(2) 0.1738(6)
N8_2 N 0.3859(7) 0.0479(2) 0.8921(6)
C40_2 C 0.1116(10) 0.1631(3) 0.9783(10)
H33_2 H 0.0785 0.1466 0.9453
C41_2 C 0.0649(11) 0.1866(4) 0.9936(11)
C42_2 C 0.2600(10) 0.1406(3) 0.9919(10)
C43_2 C 0.2287(11) 0.1188(3) 0.9326(10)
H36_2 H 0.1648 0.1186 0.8983
C44_2 C 0.4249(10) 0.0723(3) 0.9339(10)
H37_2 H 0.4899 0.0734 0.9567
C45_2 C 0.3785(10) 0.0959(3) 0.9466(9)
H38_2 H 0.4112 0.1130 0.9766
C46_2 C 0.2838(9) 0.0953(3) 0.9164(9)
C47_2 C 0.2419(9) 0.0702(3) 0.8701(9)
H39_2 H 0.1770 0.0691 0.8435
C48_2 C 0.2939(9) 0.0468(3) 0.8623(9)
H40_2 H 0.2636 0.0290 0.8347
O30_2 O 0.0902(7) 0.2838(2) 0.9759(7)
S1_2 S 0.4381(3) 0.89931(9) 0.5236(2)
O19_2 O 0.5635(7) 0.9856(2) 0.2687(6)
O20_2 O 0.4511(7) 0.9591(2) 0.1750(6)
O21 O 0.5178(7) 0.9009(2) 0.5979(6)
O22_2 O 0.3991(7) 0.8700(2) 0.4910(6)
O23_2 O 0.1575(7) 0.9779(2) 0.6451(6)
C91_2 C 0.5035(8) 0.9665(3) 0.2503(7)
C92_2 C 0.4888(8) 0.9494(3) 0.3199(8)
C93_2 C 0.4341(10) 0.9233(3) 0.3011(9)
H65_2 H 0.4066 0.9161 0.2447
C94_2 C 0.4207(11) 0.9082(4) 0.3642(10)
H66_2 H 0.3846 0.8904 0.3520
C95_2 C 0.4598(9) 0.9189(3) 0.4436(8)
C96_2 C 0.5119(10) 0.9436(4) 0.4675(10)
H67 H 0.5369 0.9505 0.5243
C97_2 C 0.5281(9) 0.9595(4) 0.3997(9)
H68_2 H 0.5663 0.9768 0.4128
C98_2 C 0.3523(10) 0.9211(3) 0.5355(9)
C99_2 C 0.2624(10) 0.9174(3) 0.4807(8)
H69_2 H 0.2466 0.9034 0.4356
C100_2 C 0.1963(9) 0.9337(3) 0.4909(8)
H70_2 H 0.1342 0.9315 0.4522
C101_2 C 0.2193(8) 0.9537(3) 0.5583(8)
C102_2 C 0.3096(9) 0.9591(3) 0.6121(9)
H71_2 H 0.3254 0.9735 0.6561
C103_2 C 0.3766(10) 0.9424(3) 0.5992(10)
H72_2 H 0.4394 0.9456 0.6345
C104_2 C 0.1468(9) 0.9706(3) 0.5721(8)
N10_2 N 0.6141(7) 0.9521(2) 0.1079(6)
S2_2 S 0.5393(4) 0.17116(15) 0.0882(4)
S3_2 S 0.9664(2) 0.14954(8) 0.6843(2)
S4_2 S 0.4861(3) 0.41686(11) 0.5645(3)
O1_2 O 0.5742(7) 0.4868(2) 0.2665(6)
O2_2 O 0.4506(7) 0.4623(2) 0.1844(7)
O3_2 O 0.5669(7) 0.4262(2) 0.6386(6)
O4_2 O 0.4658(7) 0.3863(2) 0.5498(6)
O5_2 O 0.1534(7) 0.4777(2) 0.6529(6)
O8_2 O 0.9920(7) 0.2032(2) 0.3335(7)
O10_2 O 0.9243(7) 0.1211(2) 0.6518(6)
O11_2 O 0.6990(7) 0.2338(2) 0.8094(6)
O12_2 O 0.6166(7) 0.2363(2) 0.6738(6)
O13_2 O 0.9606(7) 0.2197(2) 0.1464(6)
O14_2 O 0.8879(7) 0.2225(2) 0.0109(7)
O15_2 O 0.5547(7) 0.1410(3) 0.1035(6)
O16_2 O 0.4623(7) 0.1833(2) 0.0148(6)
O17_2 O 0.5902(7) 0.2162(2) 0.4759(7)
O18_2 O 0.4724(7) 0.2438(2) 0.3966(6)
N1_2 N 0.6228(7) 0.4504(2) 0.1273(7)
N2_2 N 0.9774(8) 0.2760(3) 0.2656(8)
N4_2 N 0.9246(8) 0.2935(3) 0.0356(8)
C1_2 C 0.7097(10) 0.4542(3) 0.1410(11)
H1_2 H 0.7313 0.4740 0.1392
C2_2 C 0.7703(11) 0.4304(3) 0.1581(12)
H2_2 H 0.8303 0.4338 0.1613
C3_2 C 0.7455(10) 0.4026(3) 0.1701(11)
C4_2 C 0.6514(10) 0.3992(3) 0.1564(11)
H3_2 H 0.6276 0.3799 0.1600
C5_2 C 0.5959(10) 0.4242(3) 0.1381(11)
H4_2 H 0.5349 0.4220 0.1332
C6_2 C 0.8073(10) 0.3769(3) 0.1921(12)
H5_2 H 0.8662 0.3807 0.1931
C7_2 C 0.7932(10) 0.3489(3) 0.2110(11)
H6_2 H 0.7351 0.3446 0.2112
C9_2 C 0.9505(11) 0.3285(4) 0.2521(13)
H8_2 H 0.9754 0.3481 0.2560
C10_2 C 0.8581(12) 0.3247(3) 0.2312(11)
C11_2 C 0.8278(12) 0.2952(3) 0.2307(13)
H9_2 H 0.7657 0.2912 0.2200
C12_2 C 0.8908(11) 0.2721(4) 0.2462(13)
H10_2 H 0.8690 0.2521 0.2424
C20_2 C 0.9516(10) 0.3206(4) 0.0276(11)
C21_2 C 0.8959(11) 0.3450(3) 0.0122(12)
H18_2 H 0.9202 0.3643 0.0105
C23_2 C 0.7778(11) 0.3143(3) 0.0064(12)
C24_2 C 0.8385(11) 0.2903(3) 0.0242(11)
H20_2 H 0.8170 0.2707 0.0284
C49_2 C 0.5085(9) 0.4692(3) 0.2549(9)
C50_2 C 0.5024(10) 0.4558(3) 0.3323(9)
C51_2 C 0.4617(10) 0.4293(3) 0.3275(9)
H41_2 H 0.4361 0.4188 0.2753
C52_2 C 0.4571(11) 0.4171(4) 0.3993(10)
H42_2 H 0.4289 0.3982 0.3966
C53_2 C 0.4929(10) 0.4324(4) 0.4730(9)
C54_2 C 0.5378(10) 0.4590(4) 0.4816(9)
H43_2 H 0.5658 0.4687 0.5348
C55_2 C 0.5412(9) 0.4715(4) 0.4099(9)
H44_2 H 0.5694 0.4905 0.4127
C56_2 C 0.3892(11) 0.4349(3) 0.5682(10)
C57_2 C 0.3053(12) 0.4352(4) 0.4964(9)
H45_2 H 0.3020 0.4269 0.4448
C58_2 C 0.2280(11) 0.4473(4) 0.5002(10)
H46_2 H 0.1716 0.4474 0.4517
C59_2 C 0.2330(8) 0.4594(3) 0.5749(8)
C60_2 C 0.3161(9) 0.4596(3) 0.6445(9)
H47_2 H 0.3203 0.4681 0.6962
C61_2 C 0.3929(10) 0.4475(4) 0.6387(11)
H48_2 H 0.4498 0.4483 0.6866
C62_2 C 0.1508(8) 0.4727(3) 0.5808(8)
C65_2 C 0.9667(10) 0.1713(3) 0.4575(10)
H49_2 H 0.9388 0.1649 0.4003
C66_2 C 0.9483(9) 0.1556(3) 0.5212(9)
H50_2 H 0.9114 0.1380 0.5086
C67_2 C 0.9879(9) 0.1676(3) 0.6031(8)
C70_2 C 0.8849(8) 0.1734(3) 0.6989(8)
C71_2 C 0.7952(10) 0.1722(3) 0.6394(9)
H53_2 H 0.7780 0.1591 0.5922
C72_2 C 0.7308(10) 0.1907(3) 0.6510(10)
H54_2 H 0.6697 0.1912 0.6092
C73_2 C 0.7548(8) 0.2080(3) 0.7223(8)
C74_2 C 0.8433(10) 0.2084(3) 0.7785(10)
H55_2 H 0.8610 0.2211 0.8265
C75_2 C 0.9082(10) 0.1909(4) 0.7675(11)
H56_2 H 0.9696 0.1911 0.8086
C76_2 C 0.6866(8) 0.2269(3) 0.7369(8)
C77_2 C 0.8915(8) 0.2161(3) 0.0816(8)
C78_2 C 0.8038(9) 0.2049(3) 0.0834(9)
C79_2 C 0.7185(10) 0.2120(4) 0.0178(11)
C80_2 C 0.6359(10) 0.2029(4) 0.0191(11)
C81_2 C 0.6440(11) 0.1861(4) 0.0879(12)
C82_2 C 0.7210(14) 0.1794(5) 0.1527(12)
H59_2 H 0.7196 0.1677 0.1979
C83_2 C 0.8062(12) 0.1898(4) 0.1548(10)
H60_2 H 0.8622 0.1865 0.2025
C84_2 C 0.5358(10) 0.1860(3) 0.1831(10)
C85_2 C 0.4971(10) 0.2129(4) 0.1782(10)
H61_2 H 0.4727 0.2235 0.1262
C86_2 C 0.4928(11) 0.2252(4) 0.2502(10)
H62_2 H 0.4619 0.2437 0.2467
C87_2 C 0.5334(10) 0.2105(4) 0.3270(10)
C88_2 C 0.5711(11) 0.1825(4) 0.3301(10)
H63_2 H 0.5970 0.1717 0.3817
C89_2 C 0.5705(11) 0.1701(4) 0.2555(10)
H64_2 H 0.5945 0.1506 0.2560
C90_2 C 0.5341(10) 0.2245(3) 0.4055(10)
Cd8_2 Cd 0.57103(7) 0.26483(2) 0.77934(6)
Cd9_2 Cd 0.51573(7) 0.24871(2) 0.54011(7)
O32_2 O 0.6575(7) 0.5221(2) 0.1451(6)
O34_2 O 0.5718(7) 0.5238(2) 0.0109(6)
N9_2 N 0.4372(7) 0.5330(2) 0.1067(7)
N3_2 N 0.5628(7) 0.4670(2) 0.8933(7)
C13_2 C 0.6521(11) 0.4707(4) 0.9105(13)
H11_2 H 0.6750 0.4905 0.9113
C14_2 C 0.7096(12) 0.4474(4) 0.9266(15)
H12_2 H 0.7711 0.4512 0.9346
C15_2 C 0.6853(10) 0.4197(4) 0.9317(11)
C16_2 C 0.5934(12) 0.4151(3) 0.9115(12)
H13_2 H 0.5705 0.3954 0.9101
C17_2 C 0.5356(11) 0.4392(3) 0.8937(13)
H14_2 H 0.4728 0.4357 0.8809
C18_2 C 0.7528(13) 0.3958(4) 0.9540(12)
H15_2 H 0.8105 0.4002 0.9531
C19_2 C 0.7390(12) 0.3672(3) 0.9762(12)
H16_2 H 0.6811 0.3630 0.9769
C22_2 C 0.8063(10) 0.3425(3) 0.9990(9)
H19_2 H 0.7165 0.3110 0.9995
H34_2 H 0.9999 0.1861 0.9681
H57_2 H 0.7174 0.2233 0.9711
H58_2 H 0.5783 0.2080 0.9756
O31_2 O 0.9724(7) 0.2562(2) 0.8966(6)
O19_3 O 0.0635(7) 0.5144(2) 0.7687(6)
H27_3 H 0.0441 0.4433 0.6978
C91_3 C 0.0035(8) 0.5335(3) 0.7503(7)
C96_3 C 0.0119(10) 0.5564(4) 0.9675(10)
C97_3 C 0.0281(9) 0.5405(4) 0.8997(9)
H68_3 H 0.0663 0.5232 0.9128
S1_3 S 0.9381(3) 0.60069(9) 0.0236(2)
S3_3 S 0.4664(2) 0.35046(8) 0.1843(2)
O3_3 O 0.0669(7) 0.0738(2) 0.1386(6)
O9_3 O 0.5486(7) 0.3492(2) 0.2594(6)
O10_3 O 0.4243(7) 0.3789(2) 0.1518(6)
H43_3 H 0.0658 0.0313 0.0348
C66_3 C 0.4483(9) 0.3444(3) 0.0212(9)
H50_3 H 0.4114 0.3620 0.0086
C67_3 C 0.4879(9) 0.3324(3) 0.1031(8)
C68_3 C 0.5453(9) 0.3073(3) 0.1240(9)
H51_3 H 0.5726 0.3002 0.1804
C69_3 C 0.5613(11) 0.2929(4) 0.0603(10)
H52_3 H 0.5974 0.2751 0.0713
C70_3 C 0.3849(8) 0.3266(3) 0.1989(8)
C71_3 C 0.2952(10) 0.3278(3) 0.1394(9)
H53_3 H 0.2780 0.3409 0.0922
C72_3 C 0.2308(10) 0.3093(3) 0.1510(10)
H54_3 H 0.1697 0.3088 0.1092
C73_3 C 0.2548(8) 0.2920(3) 0.2223(8)
C74_3 C 0.3433(10) 0.2916(3) 0.2785(10)
H55_3 H 0.3610 0.2789 0.3265
C75_3 C 0.4082(10) 0.3091(4) 0.2675(11)
H56_3 H 0.4696 0.3089 0.3086
C76_3 C 0.1866(8) 0.2731(3) 0.2369(8)
C98_3 C 0.8523(10) 0.5789(3) 0.0355(9)
C101_3 C 0.7193(8) 0.5463(3) 0.0583(8)
C102_3 C 0.8096(9) 0.5409(3) 0.1121(9)
H71_3 H 0.8254 0.5265 0.1561
C103_3 C 0.8766(10) 0.5576(3) 0.0992(10)
H72_3 H 0.9394 0.5544 0.1345
C104_3 C 0.6468(9) 0.5294(3) 0.0721(8)
S2_3 S 0.0393(4) 0.32884(15) 0.5882(4)
O1_3 O 0.0742(7) 0.0132(2) 0.7665(6)
O7_3 O 0.6003(7) 0.2698(2) 0.9278(6)
O8_3 O 0.4920(7) 0.2968(2) 0.8335(7)
O13_3 O 0.4606(7) 0.2803(2) 0.6464(6)
O14_3 O 0.3879(7) 0.2775(2) 0.5109(7)
O15_3 O 0.0547(7) 0.3590(3) 0.6035(6)
O20_3 O 0.9511(7) 0.5409(2) 0.6750(6)
O22_3 O 0.8991(7) 0.6300(2) 0.9910(6)
N1_3 N 0.1228(7) 0.0496(2) 0.6273(7)
N2_3 N 0.4774(8) 0.2240(3) 0.7656(8)
N4_3 N 0.4246(8) 0.2065(3) 0.5356(8)
N5_3 N 0.6612(8) 0.3038(2) 0.7694(7)
N6_3 N 0.9383(7) 0.4661(2) 0.6196(6)
N7_3 N 0.6058(8) 0.2897(2) 0.5423(7)
C1_3 C 0.2097(10) 0.0458(3) 0.6410(11)
H1_3 H 0.2313 0.0260 0.6392
C2_3 C 0.2703(11) 0.0696(3) 0.6581(12)
H2_3 H 0.3303 0.0662 0.6613
C3_3 C 0.2455(10) 0.0974(3) 0.6701(11)
C4_3 C 0.1514(10) 0.1008(3) 0.6564(11)
H3_3 H 0.1276 0.1201 0.6600
C5_3 C 0.0959(10) 0.0758(3) 0.6381(11)
H4_3 H 0.0349 0.0780 0.6332
C6_3 C 0.3073(10) 0.1231(3) 0.6921(12)
H5_3 H 0.3662 0.1193 0.6931
C7_3 C 0.2932(10) 0.1511(3) 0.7110(11)
H6_3 H 0.2351 0.1554 0.7112
C8_3 C 0.5063(11) 0.1964(3) 0.7674(12)
H7_3 H 0.5693 0.1934 0.7799
C9_3 C 0.4505(11) 0.1715(4) 0.7521(13)
H8_3 H 0.4754 0.1519 0.7560
C10_3 C 0.3581(12) 0.1753(3) 0.7312(11)
C11_3 C 0.3278(12) 0.2048(3) 0.7307(13)
H9_3 H 0.2657 0.2088 0.7200
C12_3 C 0.3908(11) 0.2279(4) 0.7462(13)
H10_3 H 0.3690 0.2479 0.7424
C13_3 C 0.1521(11) 0.0293(4) 0.4105(13)
H11_3 H 0.1750 0.0095 0.4113
C14_3 C 0.2096(12) 0.0526(4) 0.4266(15)
H12_3 H 0.2711 0.0488 0.4346
C15_3 C 0.1853(10) 0.0803(4) 0.4317(11)
C16_3 C 0.0934(12) 0.0849(3) 0.4115(12)
H13_3 H 0.0705 0.1046 0.4101
C17_3 C 0.0356(11) 0.0608(3) 0.3937(13)
C18_3 C 0.2528(13) 0.1042(4) 0.4540(12)
H15_3 H 0.3105 0.0998 0.4531
C19_3 C 0.2390(12) 0.1328(3) 0.4762(12)
H16_3 H 0.1811 0.1370 0.4769
C20_3 C 0.4516(10) 0.1794(4) 0.5276(11)
H17_3 H 0.5125 0.1766 0.5328
C21_3 C 0.3959(11) 0.1550(3) 0.5122(12)
H18_3 H 0.4202 0.1357 0.5105
C22_3 C 0.3063(10) 0.1575(3) 0.4990(9)
C23_3 C 0.2778(11) 0.1857(3) 0.5064(12)
H19_3 H 0.2165 0.1890 0.4995
C24_3 C 0.3385(11) 0.2097(3) 0.5242(11)
H20_3 H 0.3170 0.2293 0.5284
C25_3 C 0.7510(9) 0.3025(3) 0.7971(9)
H21_3 H 0.7813 0.2850 0.8268
C26_3 C 0.8032(10) 0.3252(3) 0.7856(10)
H22_3 H 0.8677 0.3230 0.8061
C27_3 C 0.7615(10) 0.3507(3) 0.7445(9)
C28_3 C 0.6679(11) 0.3529(3) 0.7165(10)
H23_3 H 0.6368 0.3704 0.6878
C29_3 C 0.6207(9) 0.3297(3) 0.7304(9)
H24_3 H 0.5562 0.3317 0.7120
C30_3 C 0.8161(10) 0.3746(3) 0.7290(9)
H25_3 H 0.8798 0.3749 0.7640
C31_3 C 0.7840(10) 0.3962(3) 0.6699(10)
H26_3 H 0.7201 0.3960 0.6356
C32_3 C 0.9791(10) 0.4433(3) 0.6711(11)
C33_3 C 0.9346(10) 0.4200(3) 0.6882(12)
H28_3 H 0.9681 0.4040 0.7232
C34_3 C 0.8375(10) 0.4200(3) 0.6531(9)
C35_3 C 0.7960(9) 0.4417(3) 0.5935(10)
H29_3 H 0.7322 0.4406 0.5593
C36_3 C 0.8465(9) 0.4651(3) 0.5832(9)
H30_3 H 0.8147 0.4814 0.5483
C37_3 C 0.6984(10) 0.2907(3) 0.5785(9)
H31_3 H 0.7298 0.2751 0.6166
C38_3 C 0.7497(10) 0.3126(3) 0.5640(10)
H32_3 H 0.8146 0.3116 0.5902
C39_3 C 0.7067(9) 0.3367(3) 0.5106(8)
C40_3 C 0.6116(10) 0.3369(3) 0.4783(10)
H33_3 H 0.5785 0.3534 0.4453
C41_3 C 0.5649(11) 0.3134(4) 0.4936(11)
H34_3 H 0.4999 0.3139 0.4681
C42_3 C 0.7600(10) 0.3594(3) 0.4919(10)
H35_3 H 0.8243 0.3589 0.5246
C43_3 C 0.7287(11) 0.3812(3) 0.4326(10)
H36_3 H 0.6648 0.3814 0.3983
C44_3 C 0.9249(10) 0.4277(3) 0.4339(10)
H37_3 H 0.9899 0.4266 0.4567
C45_3 C 0.8785(10) 0.4041(3) 0.4466(9)
H38_3 H 0.9112 0.3870 0.4766
C46_3 C 0.7838(9) 0.4047(3) 0.4164(9)
C47_3 C 0.7419(9) 0.4298(3) 0.3701(9)
H39_3 H 0.6770 0.4309 0.3435
C48_3 C 0.7939(9) 0.4532(3) 0.3623(9)
H40_3 H 0.7636 0.4710 0.3347
C49_3 C 0.0085(9) 0.0308(3) 0.7549(9)
C50_3 C 0.0024(10) 0.0442(3) 0.8323(9)
C54_3 C 0.0378(10) 0.0410(4) 0.9816(9)
C55_3 C 0.0412(9) 0.0285(4) 0.9099(9)
H44_3 H 0.0694 0.0095 0.9127
C63_3 C 0.5371(9) 0.2893(3) 0.9082(9)
C64_3 C 0.5223(9) 0.3055(3) 0.9786(9)
C65_3 C 0.4667(10) 0.3287(3) 0.9575(10)
H49_3 H 0.4388 0.3351 0.9003
C77_3 C 0.3915(8) 0.2839(3) 0.5816(8)
C78_3 C 0.3038(9) 0.2951(3) 0.5834(9)
C79_3 C 0.2185(10) 0.2880(4) 0.5178(11)
H57_3 H 0.2174 0.2767 0.4711
C80_3 C 0.1359(10) 0.2971(4) 0.5191(11)
H58_3 H 0.0783 0.2920 0.4756
C81_3 C 0.1440(11) 0.3139(4) 0.5879(12)
C82_3 C 0.2210(14) 0.3206(5) 0.6527(12)
H59_3 H 0.2196 0.3323 0.6979
C83_3 C 0.3062(12) 0.3102(4) 0.6548(10)
H60_3 H 0.3622 0.3135 0.7025
C84_3 C 0.0358(10) 0.3140(3) 0.6831(10)
C87_3 C 0.0334(10) 0.2895(4) 0.8270(10)
C88_3 C 0.0711(11) 0.3175(4) 0.8301(10)
H63_3 H 0.0970 0.3283 0.8817
C89_3 C 0.0705(11) 0.3299(4) 0.7555(10)
H64_3 H 0.0945 0.3494 0.7560
C90_3 C 0.0341(10) 0.2755(3) 0.9055(10)
C92_3 C 0.9888(8) 0.5506(3) 0.8199(8)
C93_3 C 0.9341(10) 0.5767(3) 0.8011(9)
H65_3 H 0.9066 0.5839 0.7447
C94_3 C 0.9207(11) 0.5918(4) 0.8642(10)
H66_3 H 0.8846 0.6096 0.8520
C95_3 C 0.9598(9) 0.5811(3) 0.9436(8)
C99_3 C 0.7624(10) 0.5826(3) 0.9807(8)
H69_3 H 0.7466 0.5966 0.9356
C100_3 C 0.6963(9) 0.5663(3) 0.9909(8)
H70_3 H 0.6342 0.5685 0.9522
S4_3 S 0.9861(3) 0.08314(11) 0.0645(3)
O4_3 O 0.9658(7) 0.1137(2) 0.0498(6)
C56_3 C 0.8892(11) 0.0651(3) 0.0682(10)
C58_3 C 0.7280(11) 0.0527(4) 0.0002(10)
C59_3 C 0.7330(8) 0.0406(3) 0.0749(8)
C60_3 C 0.8161(9) 0.0404(3) 0.1445(9)
H47_3 H 0.8203 0.0319 0.1962
C61_3 C 0.8929(10) 0.0525(4) 0.1387(11)
H48_3 H 0.9498 0.0517 0.1866
C62_3 C 0.6508(8) 0.0273(3) 0.0808(8)
O2_3 O 0.9506(7) 0.0377(2) 0.6844(7)
O16_3 O 0.9623(7) 0.3167(2) 0.5148(6)
H14_3 H 0.9728 0.0643 0.3809
C51_3 C 0.9617(10) 0.0707(3) 0.8275(9)
H41_3 H 0.9361 0.0812 0.7753
C52_3 C 0.9571(11) 0.0829(4) 0.8993(10)
H42_3 H 0.9289 0.1018 0.8966
C53_3 C 0.9929(10) 0.0676(4) 0.9730(9)
C57_3 C 0.8053(12) 0.0648(4) 0.9964(9)
H45_3 H 0.8020 0.0731 0.9448
H46_3 H 0.6716 0.0526 0.9517
C85_3 C 0.9971(10) 0.2871(4) 0.6782(10)
H61_3 H 0.9727 0.2765 0.6262
C86_3 C 0.9928(11) 0.2748(4) 0.7502(10)
H62_3 H 0.9619 0.2563 0.7467
C13_4 C 0.3479(11) 0.5293(4) 0.0895(13)
H11_4 H 0.3250 0.5095 0.0887
C14_4 C 0.2904(12) 0.5526(4) 0.0734(15)
H12_4 H 0.2289 0.5488 0.0654
C15_4 C 0.3147(10) 0.5803(4) 0.0683(11)
C16_4 C 0.4066(12) 0.5849(3) 0.0885(12)
H13_4 H 0.4295 0.6046 0.0899
C17_4 C 0.4644(11) 0.5608(3) 0.1063(13)
H14_4 H 0.5272 0.5643 0.1191
C18_4 C 0.2472(13) 0.6042(4) 0.0460(12)
H15_4 H 0.1895 0.5998 0.0469
C19_4 C 0.2610(12) 0.6328(3) 0.0238(12)
H16_4 H 0.3189 0.6370 0.0231
C22_4 C 0.1937(10) 0.6575(3) 0.0010(9)
H19_4 H 0.2835 0.6890 0.0005
H34_4 H 0.0001 0.8139 0.0319
H57_4 H 0.2826 0.7767 0.0289
H58_4 H 0.4217 0.7920 0.0244
S2_4 S 0.4607(4) 0.82884(15) 0.9118(4)
S3_4 S 0.0336(2) 0.85046(8) 0.3157(2)
S4_4 S 0.5139(3) 0.58314(11) 0.4355(3)
O1_4 O 0.4258(7) 0.5132(2) 0.7335(6)
O2_4 O 0.5494(7) 0.5377(2) 0.8156(7)
O3_4 O 0.4331(7) 0.5738(2) 0.3614(6)
O4_4 O 0.5342(7) 0.6137(2) 0.4502(6)
O8_4 O 0.0080(7) 0.7968(2) 0.6665(7)
O10_4 O 0.0757(7) 0.8789(2) 0.3482(6)
O13_4 O 0.0394(7) 0.7803(2) 0.8536(6)
O14_4 O 0.1121(7) 0.7775(2) 0.9891(7)
O15_4 O 0.4453(7) 0.8590(3) 0.8965(6)
O16_4 O 0.5377(7) 0.8167(2) 0.9852(6)
N1_4 N 0.3772(7) 0.5496(2) 0.8727(7)
N2_4 N 0.0226(8) 0.7240(3) 0.7344(8)
N4_4 N 0.0754(8) 0.7065(3) 0.9644(8)
C1_4 C 0.2903(10) 0.5458(3) 0.8590(11)
H1_4 H 0.2687 0.5260 0.8608
C2_4 C 0.2297(11) 0.5696(3) 0.8419(12)
H2_4 H 0.1697 0.5662 0.8387
C3_4 C 0.2545(10) 0.5974(3) 0.8299(11)
C4_4 C 0.3486(10) 0.6008(3) 0.8436(11)
H3_4 H 0.3724 0.6201 0.8400
C5_4 C 0.4041(10) 0.5758(3) 0.8619(11)
H4_4 H 0.4651 0.5780 0.8668
C6_4 C 0.1927(10) 0.6231(3) 0.8079(12)
H5_4 H 0.1338 0.6193 0.8069
C7_4 C 0.2068(10) 0.6511(3) 0.7890(11)
H6_4 H 0.2649 0.6554 0.7888
C9_4 C 0.0495(11) 0.6715(4) 0.7479(13)
H8_4 H 0.0246 0.6519 0.7440
C10_4 C 0.1419(12) 0.6753(3) 0.7688(11)
C11_4 C 0.1722(12) 0.7048(3) 0.7693(13)
H9_4 H 0.2343 0.7088 0.7800
C12_4 C 0.1092(11) 0.7279(4) 0.7538(13)
H10_4 H 0.1310 0.7479 0.7576
C20_4 C 0.0484(10) 0.6794(4) 0.9724(11)
C21_4 C 0.1041(11) 0.6550(3) 0.9878(12)
H18_4 H 0.0798 0.6357 0.9895
C23_4 C 0.2222(11) 0.6857(3) 0.9936(12)
C24_4 C 0.1615(11) 0.7097(3) 0.9758(11)
H20_4 H 0.1830 0.7293 0.9716
C49_4 C 0.4915(9) 0.5308(3) 0.7451(9)
C50_4 C 0.4976(10) 0.5442(3) 0.6677(9)
C51_4 C 0.5383(10) 0.5707(3) 0.6725(9)
H41_4 H 0.5639 0.5812 0.7247
C52_4 C 0.5429(11) 0.5829(4) 0.6007(10)
H42_4 H 0.5711 0.6018 0.6034
C53_4 C 0.5071(10) 0.5676(4) 0.5270(9)
C54_4 C 0.4622(10) 0.5410(4) 0.5184(9)
H43_4 H 0.4342 0.5313 0.4652
C55_4 C 0.4588(9) 0.5285(4) 0.5901(9)
H44_4 H 0.4306 0.5095 0.5873
C56_4 C 0.6108(11) 0.5651(3) 0.4318(10)
C57_4 C 0.6947(12) 0.5648(4) 0.5036(9)
H45_4 H 0.6980 0.5731 0.5552
C58_4 C 0.7720(11) 0.5527(4) 0.4998(10)
H46_4 H 0.8284 0.5526 0.5483
C59_4 C 0.7670(8) 0.5406(3) 0.4251(8)
C60_4 C 0.6839(9) 0.5404(3) 0.3555(9)
H47_4 H 0.6797 0.5319 0.3038
C61_4 C 0.6071(10) 0.5525(4) 0.3613(11)
H48_4 H 0.5502 0.5517 0.3134
C62_4 C 0.8492(8) 0.5273(3) 0.4192(8)
C65_4 C 0.0333(10) 0.8287(3) 0.5425(10)
H49_4 H 0.0612 0.8351 0.5997
C66_4 C 0.0517(9) 0.8444(3) 0.4788(9)
H50_4 H 0.0886 0.8620 0.4914
C67_4 C 0.0121(9) 0.8324(3) 0.3969(8)
C70_4 C 0.1151(8) 0.8266(3) 0.3011(8)
C71_4 C 0.2048(10) 0.8278(3) 0.3606(9)
H53_4 H 0.2220 0.8409 0.4078
C72_4 C 0.2692(10) 0.8093(3) 0.3490(10)
H54_4 H 0.3303 0.8088 0.3908
C73_4 C 0.2452(8) 0.7920(3) 0.2777(8)
C74_4 C 0.1567(10) 0.7916(3) 0.2215(10)
H55_4 H 0.1390 0.7789 0.1735
C75_4 C 0.0918(10) 0.8091(4) 0.2325(11)
H56_4 H 0.0304 0.8089 0.1914
C76_4 C 0.3134(8) 0.7731(3) 0.2631(8)
C77_4 C 0.1085(8) 0.7839(3) 0.9184(8)
C78_4 C 0.1962(9) 0.7951(3) 0.9166(9)
C79_4 C 0.2815(10) 0.7880(4) 0.9822(11)
C80_4 C 0.3641(10) 0.7971(4) 0.9809(11)
C81_4 C 0.3560(11) 0.8139(4) 0.9121(12)
C82_4 C 0.2790(14) 0.8206(5) 0.8473(12)
H59_4 H 0.2804 0.8323 0.8021
C83_4 C 0.1938(12) 0.8102(4) 0.8452(10)
H60_4 H 0.1378 0.8135 0.7975
C84_4 C 0.4642(10) 0.8140(3) 0.8169(10)
C85_4 C 0.5029(10) 0.7871(4) 0.8218(10)
H61_4 H 0.5273 0.7765 0.8738
C86_4 C 0.5072(11) 0.7748(4) 0.7498(10)
H62_4 H 0.5381 0.7563 0.7533
C87_4 C 0.4666(10) 0.7895(4) 0.6730(10)
C88_4 C 0.4289(11) 0.8175(4) 0.6699(10)
H63_4 H 0.4030 0.8283 0.6183
C89_4 C 0.4295(11) 0.8299(4) 0.7445(10)
H64_4 H 0.4055 0.8494 0.7440
C90_4 C 0.4659(10) 0.7755(3) 0.5945(10)
S1_4 S 0.5619(3) 0.10069(9) 0.4764(2)
O19_4 O 0.4365(7) 0.0144(2) 0.7313(6)
O20_4 O 0.5489(7) 0.0409(2) 0.8250(6)
O21_2 O 0.4822(7) 0.0991(2) 0.4021(6)
O22_4 O 0.6009(7) 0.1300(2) 0.5090(6)
C91_4 C 0.4965(8) 0.0335(3) 0.7497(7)
C92_4 C 0.5112(8) 0.0506(3) 0.6801(8)
C93_4 C 0.5659(10) 0.0767(3) 0.6989(9)
H65_4 H 0.5934 0.0839 0.7553
C94_4 C 0.5793(11) 0.0918(4) 0.6358(10)
H66_4 H 0.6154 0.1096 0.6480
C95_4 C 0.5402(9) 0.0811(3) 0.5564(8)
C96_4 C 0.4881(10) 0.0564(4) 0.5325(10)
H67_2 H 0.4631 0.0495 0.4757
C97_4 C 0.4719(9) 0.0405(4) 0.6003(9)
H68_4 H 0.4337 0.0232 0.5872
C98_4 C 0.6477(10) 0.0789(3) 0.4645(9)
C99_4 C 0.7376(10) 0.0826(3) 0.5193(8)
H69_4 H 0.7534 0.0966 0.5644
C100_4 C 0.8037(9) 0.0663(3) 0.5091(8)
H70_4 H 0.8658 0.0685 0.5478
C101_4 C 0.7807(8) 0.0463(3) 0.4417(8)
C102_4 C 0.6904(9) 0.0409(3) 0.3879(9)
H71_4 H 0.6746 0.0265 0.3439
C103_4 C 0.6234(10) 0.0576(3) 0.4008(10)
H72_4 H 0.5606 0.0544 0.3655
C104_4 C 0.8532(9) 0.0294(3) 0.4279(8)
C40_4 C 0.8884(10) 0.8369(3) 0.0217(10)
H33_4 H 0.9215 0.8534 0.0547
C41_4 C 0.9351(11) 0.8134(4) 0.0064(11)
C42_4 C 0.7400(10) 0.8594(3) 0.0081(10)
C43_4 C 0.7713(11) 0.8812(3) 0.0674(10)
H36_4 H 0.8352 0.8814 0.1017
C44_4 C 0.5751(10) 0.9277(3) 0.0661(10)
H37_4 H 0.5101 0.9266 0.0433
C45_4 C 0.6215(10) 0.9041(3) 0.0534(9)
H38_4 H 0.5888 0.8870 0.0234
C46_4 C 0.7162(9) 0.9047(3) 0.0836(9)
C47_4 C 0.7581(9) 0.9298(3) 0.1299(9)
H39_4 H 0.8230 0.9309 0.1565
C48_4 C 0.7061(9) 0.9532(3) 0.1377(9)
H40_4 H 0.7364 0.9710 0.1653
O7_4 O 0.8997(7) 0.7698(2) 0.5722(6)
O9_4 O 0.9514(7) 0.8492(2) 0.2406(6)
N5_4 N 0.8388(8) 0.8038(2) 0.7306(7)
N6_4 N 0.5617(7) 0.9661(2) 0.8804(6)
N7_4 N 0.8942(8) 0.7897(2) 0.9577(7)
C8_4 C 0.9937(11) 0.6964(3) 0.7326(12)
H7_4 H 0.9307 0.6934 0.7201
H17_4 H 0.9875 0.6766 0.9672
C25_4 C 0.7490(9) 0.8025(3) 0.7029(9)
H21_4 H 0.7187 0.7850 0.6732
C26_4 C 0.6968(10) 0.8252(3) 0.7144(10)
H22_4 H 0.6323 0.8230 0.6939
C27_4 C 0.7385(10) 0.8507(3) 0.7555(9)
C28_4 C 0.8321(11) 0.8529(3) 0.7835(10)
H23_4 H 0.8632 0.8704 0.8122
C29_4 C 0.8793(9) 0.8297(3) 0.7696(9)
H24_4 H 0.9438 0.8317 0.7880
C30_4 C 0.6839(10) 0.8746(3) 0.7710(9)
H25_4 H 0.6202 0.8749 0.7360
C31_4 C 0.7160(10) 0.8962(3) 0.8301(10)
H26_4 H 0.7799 0.8960 0.8644
C32_4 C 0.5209(10) 0.9433(3) 0.8289(11)
H27_4 H 0.4559 0.9433 0.8022
C33_4 C 0.5654(10) 0.9200(3) 0.8118(12)
H28_4 H 0.5319 0.9040 0.7768
C34_4 C 0.6625(10) 0.9200(3) 0.8469(9)
C35_4 C 0.7040(9) 0.9417(3) 0.9065(10)
H29_4 H 0.7678 0.9406 0.9407
C36_4 C 0.6535(9) 0.9651(3) 0.9168(9)
H30_4 H 0.6853 0.9814 0.9517
C37_4 C 0.8016(10) 0.7907(3) 0.9215(9)
H31_4 H 0.7702 0.7751 0.8834
C38_4 C 0.7503(10) 0.8126(3) 0.9360(10)
H32_4 H 0.6854 0.8116 0.9098
C39_4 C 0.7933(9) 0.8367(3) 0.9894(8)
H35_4 H 0.6757 0.8589 0.9754
C63_4 C 0.9629(9) 0.7893(3) 0.5918(9)
C64_4 C 0.9777(9) 0.8055(3) 0.5214(9)
C68_4 C 0.9547(9) 0.8073(3) 0.3760(9)
H51_4 H 0.9274 0.8002 0.3196
C69_4 C 0.9387(11) 0.7929(4) 0.4397(10)
H52_4 H 0.9026 0.7751 0.4287
O21_3 O 0.9822(7) 0.4009(2) 0.9021(6)
H67_3 H 0.9631 0.4505 0.9757
O21_4 O 0.0178(7) 0.5991(2) 0.0979(6)
H67_4 H 0.0369 0.5495 0.0243
loop_
_geom_bond_atom_site_label_1
_geom_bond_atom_site_label_2
_geom_bond_site_symmetry_1
_geom_bond_site_symmetry_2
H41 C51 1_555 1_555
C52 C51 1_555 1_555
H42 C52 1_555 1_555
H45 C57 1_555 1_555
H61 C85 1_555 1_555
C86 C85 1_555 1_555
H62 C86 1_555 1_555
C52 C53 1_555 1_555
O4 S4 1_555 1_555
O5 C62 1_555 1_555
O6 C62 1_555 1_555
C56 S4 1_555 1_555
C59 C58 1_555 1_555
C60 C59 1_555 1_555
H47 C60 1_555 1_555
C61 C56 1_555 1_555
H48 C61 1_555 1_555
C62 C59 1_555 1_555
C60 C61 1_555 1_555
Cd1 O1 1_555 1_555
Cd2 O7 1_555 1_555
Cd3 O13 1_555 1_555
S2 O15 1_555 1_555
O1 C49 1_555 1_555
O7 C63 1_555 1_555
O8 Cd2 1_555 1_555
O13 Cd2 1_555 1_555
O14 Cd3 1_555 1_555
O17 C90 1_555 1_555
N1 Cd1 1_555 1_555
N2 Cd2 1_555 1_555
N3 C13 1_555 1_555
N4 Cd3 1_555 1_555
N5 Cd2 1_555 1_555
N7 Cd3 1_555 1_555
N8 C44 1_555 1_555
C1 N1 1_555 1_555
H1 C1 1_555 1_555
C2 C1 1_555 1_555
H2 C2 1_555 1_555
C3 C2 1_555 1_555
C4 C3 1_555 1_555
H3 C4 1_555 1_555
C5 N1 1_555 1_555
H4 C5 1_555 1_555
C6 C3 1_555 1_555
H5 C6 1_555 1_555
C7 C6 1_555 1_555
H6 C7 1_555 1_555
C8 N2 1_555 1_555
H7 C8 1_555 1_555
C9 C8 1_555 1_555
H8 C9 1_555 1_555
C10 C7 1_555 1_555
C11 C10 1_555 1_555
H9 C11 1_555 1_555
C12 N2 1_555 1_555
H10 C12 1_555 1_555
C13 H11 1_555 1_555
C14 C13 1_555 1_555
H12 C14 1_555 1_555
C15 C14 1_555 1_555
C16 C15 1_555 1_555
H13 C16 1_555 1_555
C17 N3 1_555 1_555
C18 C15 1_555 1_555
H15 C18 1_555 1_555
C19 C18 1_555 1_555
H16 C19 1_555 1_555
C20 N4 1_555 1_555
H17 C20 1_555 1_555
C21 C20 1_555 1_555
H18 C21 1_555 1_555
C22 C19 1_555 1_555
C23 C22 1_555 1_555
H19 C23 1_555 1_555
C24 N4 1_555 1_555
H20 C24 1_555 1_555
C25 N5 1_555 1_555
H21 C25 1_555 1_555
C26 C25 1_555 1_555
H22 C26 1_555 1_555
C27 C26 1_555 1_555
C28 C27 1_555 1_555
H23 C28 1_555 1_555
C29 N5 1_555 1_555
H24 C29 1_555 1_555
C30 C27 1_555 1_555
H25 C30 1_555 1_555
C31 C30 1_555 1_555
H26 C31 1_555 1_555
C32 N6 1_555 1_555
C33 C32 1_555 1_555
H28 C33 1_555 1_555
C34 C31 1_555 1_555
C35 C34 1_555 1_555
H29 C35 1_555 1_555
C36 N6 1_555 1_555
H30 C36 1_555 1_555
C37 N7 1_555 1_555
H31 C37 1_555 1_555
C38 C37 1_555 1_555
H32 C38 1_555 1_555
C39 C38 1_555 1_555
C40 C39 1_555 1_555
H33 C40 1_555 1_555
C41 N7 1_555 1_555
H34 C41 1_555 1_555
C42 C39 1_555 1_555
H35 C42 1_555 1_555
C43 C42 1_555 1_555
H36 C43 1_555 1_555
C44 H37 1_555 1_555
C45 C44 1_555 1_555
H38 C45 1_555 1_555
C46 C43 1_555 1_555
C47 C46 1_555 1_555
H39 C47 1_555 1_555
C48 N8 1_555 1_555
H40 C48 1_555 1_555
C50 C49 1_555 1_555
C55 C50 1_555 1_555
H44 C55 1_555 1_555
C63 O8 1_555 1_555
C64 C63 1_555 1_555
C65 C64 1_555 1_555
H49 C65 1_555 1_555
C77 O13 1_555 1_555
C78 C77 1_555 1_555
C79 C78 1_555 1_555
H57 C79 1_555 1_555
C80 C79 1_555 1_555
H58 C80 1_555 1_555
C81 S2 1_555 1_555
C82 C81 1_555 1_555
H59 C82 1_555 1_555
C83 C78 1_555 1_555
H60 C83 1_555 1_555
C84 S2 1_555 1_555
C88 C87 1_555 1_555
H63 C88 1_555 1_555
C89 C84 1_555 1_555
H64 C89 1_555 1_555
C90 C87 1_555 1_555
C93 C92 1_555 1_555
H65 C93 1_555 1_555
C94 C93 1_555 1_555
H66 C94 1_555 1_555
H69 C99 1_555 1_555
C100 C99 1_555 1_555
H70 C100 1_555 1_555
Cd11 N8 1_555 1_555
O28 Cd2 1_555 1_555
O29 Cd2 1_555 1_555
O30 Cd3 1_555 1_555
O31 Cd3 1_555 1_555
Cd3 O29 1_555 1_555
O14 C77 1_555 1_555
C4 C5 1_555 1_555
C9 C10 1_555 1_555
C11 C12 1_555 1_555
C16 C17 1_555 1_555
C21 C22 1_555 1_555
C23 C24 1_555 1_555
C28 C29 1_555 1_555
C33 C34 1_555 1_555
C35 C36 1_555 1_555
C40 C41 1_555 1_555
C45 C46 1_555 1_555
C47 C48 1_555 1_555
C54 C55 1_555 1_555
C80 C81 1_555 1_555
C82 C83 1_555 1_555
C88 C89 1_555 1_555
C94 C95 1_555 1_555
Cd11 O26 1_555 1_555
S3 O9 1_555 1_555
O10 S3 1_555 1_555
O11 C76 1_555 1_555
O12 C76 1_555 1_555
O23 C104 1_555 1_555
O24 C104 1_555 1_555
H50 C66 1_555 1_555
C67 S3 1_555 1_555
C68 C67 1_555 1_555
H51 C68 1_555 1_555
H52 C69 1_555 1_555
C70 S3 1_555 1_555
C71 C70 1_555 1_555
H53 C71 1_555 1_555
C72 C71 1_555 1_555
H54 C72 1_555 1_555
C73 C72 1_555 1_555
C74 C73 1_555 1_555
H55 C74 1_555 1_555
C75 C70 1_555 1_555
H56 C75 1_555 1_555
C76 C73 1_555 1_555
C98 S1 1_555 1_555
C102 C101 1_555 1_555
H71 C102 1_555 1_555
C103 C98 1_555 1_555
H72 C103 1_555 1_555
C104 C101 1_555 1_555
Cd7 O23 1_555 1_555
Cd8 O11 1_555 1_555
Cd9 O12 1_555 1_555
O12 Cd8 1_555 1_555
O24 Cd7 1_555 1_555
C66 C67 1_555 1_555
C68 C69 1_555 1_555
C74 C75 1_555 1_555
C102 C103 1_555 1_555
Cd4 O19 1_555 1_555
O19 C91 1_555 1_555
H68 C97 1_555 1_555
O25 Cd4 1_555 1_555
O27 Cd4 1_555 1_555
N10 Cd4 1_555 1_555
C96 C97 1_555 1_555
Cd2_2 O7_2 1_555 1_555
O7_2 C63_2 1_555 1_555
N5_2 Cd2_2 1_555 1_555
N7_2 Cd3_2 1_555 1_555
H7_2 C8_2 1_555 1_555
C25_2 N5_2 1_555 1_555
H21_2 C25_2 1_555 1_555
C26_2 C25_2 1_555 1_555
H22_2 C26_2 1_555 1_555
C27_2 C26_2 1_555 1_555
C28_2 C27_2 1_555 1_555
H23_2 C28_2 1_555 1_555
C29_2 N5_2 1_555 1_555
H24_2 C29_2 1_555 1_555
C30_2 C27_2 1_555 1_555
H25_2 C30_2 1_555 1_555
C31_2 C30_2 1_555 1_555
H26_2 C31_2 1_555 1_555
C32_2 N6_2 1_555 1_555
H27_2 C32_2 1_555 1_555
C33_2 C32_2 1_555 1_555
H28_2 C33_2 1_555 1_555
C34_2 C31_2 1_555 1_555
C35_2 C34_2 1_555 1_555
H29_2 C35_2 1_555 1_555
C36_2 N6_2 1_555 1_555
H30_2 C36_2 1_555 1_555
C37_2 N7_2 1_555 1_555
H31_2 C37_2 1_555 1_555
C38_2 C37_2 1_555 1_555
H32_2 C38_2 1_555 1_555
C39_2 C38_2 1_555 1_555
C64_2 C63_2 1_555 1_555
H51_2 C68_2 1_555 1_555
C69_2 C64_2 1_555 1_555
H52_2 C69_2 1_555 1_555
O28_2 Cd2_2 1_555 1_555
O29_2 Cd2_2 1_555 1_555
Cd3_2 O29_2 1_555 1_555
C28_2 C29_2 1_555 1_555
C33_2 C34_2 1_555 1_555
C35_2 C36_2 1_555 1_555
C68_2 C69_2 1_555 1_555
N8_2 C44_2 1_555 1_555
H33_2 C40_2 1_555 1_555
C43_2 C42_2 1_555 1_555
H36_2 C43_2 1_555 1_555
C44_2 H37_2 1_555 1_555
C45_2 C44_2 1_555 1_555
H38_2 C45_2 1_555 1_555
C46_2 C43_2 1_555 1_555
C47_2 C46_2 1_555 1_555
H39_2 C47_2 1_555 1_555
C48_2 N8_2 1_555 1_555
H40_2 C48_2 1_555 1_555
Cd12 N8_2 1_555 1_555
C40_2 C41_2 1_555 1_555
C45_2 C46_2 1_555 1_555
C47_2 C48_2 1_555 1_555
Cd10 O19_2 1_555 1_555
S1_2 O21 1_555 1_555
O19_2 C91_2 1_555 1_555
O20_2 Cd10 1_555 1_555
O22_2 S1_2 1_555 1_555
O23_2 C104_2 1_555 1_555
O33 C104_2 1_555 1_555
C91_2 O20_2 1_555 1_555
C92_2 C91_2 1_555 1_555
C93_2 C92_2 1_555 1_555
H65_2 C93_2 1_555 1_555
C94_2 C93_2 1_555 1_555
H66_2 C94_2 1_555 1_555
C95_2 S1_2 1_555 1_555
C96_2 C95_2 1_555 1_555
H67 C96_2 1_555 1_555
C97_2 C92_2 1_555 1_555
H68_2 C97_2 1_555 1_555
C98_2 S1_2 1_555 1_555
C99_2 C98_2 1_555 1_555
H69_2 C99_2 1_555 1_555
C100_2 C99_2 1_555 1_555
H70_2 C100_2 1_555 1_555
C101_2 C100_2 1_555 1_555
C102_2 C101_2 1_555 1_555
H71_2 C102_2 1_555 1_555
C103_2 C98_2 1_555 1_555
H72_2 C103_2 1_555 1_555
C104_2 C101_2 1_555 1_555
N10_2 Cd10 1_555 1_555
C94_2 C95_2 1_555 1_555
C96_2 C97_2 1_555 1_555
C102_2 C103_2 1_555 1_555
Cd5 O1_2 1_555 1_555
S2_2 O15_2 1_555 1_555
S4_2 O3_2 1_555 1_555
O1_2 C49_2 1_555 1_555
O2_2 Cd5 1_555 1_555
O4_2 S4_2 1_555 1_555
O5_2 C62_2 1_555 1_555
O26 C62_2 1_555 1_555
O10_2 S3_2 1_555 1_555
O11_2 C76_2 1_555 1_555
O12_2 C76_2 1_555 1_555
O16_2 S2_2 1_555 1_555
O17_2 C90_2 1_555 1_555
O18_2 C90_2 1_555 1_555
N1_2 Cd5 1_555 1_555
C1_2 N1_2 1_555 1_555
H1_2 C1_2 1_555 1_555
C2_2 C1_2 1_555 1_555
H2_2 C2_2 1_555 1_555
C3_2 C2_2 1_555 1_555
C4_2 C3_2 1_555 1_555
H3_2 C4_2 1_555 1_555
C5_2 N1_2 1_555 1_555
H4_2 C5_2 1_555 1_555
C6_2 C3_2 1_555 1_555
H5_2 C6_2 1_555 1_555
C7_2 C6_2 1_555 1_555
H6_2 C7_2 1_555 1_555
H8_2 C9_2 1_555 1_555
C10_2 C7_2 1_555 1_555
C11_2 C10_2 1_555 1_555
H9_2 C11_2 1_555 1_555
C12_2 N2_2 1_555 1_555
H10_2 C12_2 1_555 1_555
C20_2 N4_2 1_555 1_555
C21_2 C20_2 1_555 1_555
H18_2 C21_2 1_555 1_555
C24_2 N4_2 1_555 1_555
H20_2 C24_2 1_555 1_555
C49_2 O2_2 1_555 1_555
C50_2 C49_2 1_555 1_555
C51_2 C50_2 1_555 1_555
H41_2 C51_2 1_555 1_555
C52_2 C51_2 1_555 1_555
H42_2 C52_2 1_555 1_555
C53_2 S4_2 1_555 1_555
C54_2 C53_2 1_555 1_555
H43_2 C54_2 1_555 1_555
C55_2 C50_2 1_555 1_555
H44_2 C55_2 1_555 1_555
C56_2 S4_2 1_555 1_555
C57_2 C56_2 1_555 1_555
H45_2 C57_2 1_555 1_555
C58_2 C57_2 1_555 1_555
H46_2 C58_2 1_555 1_555
C59_2 C58_2 1_555 1_555
C60_2 C59_2 1_555 1_555
H47_2 C60_2 1_555 1_555
C61_2 C56_2 1_555 1_555
H48_2 C61_2 1_555 1_555
C62_2 C59_2 1_555 1_555
H49_2 C65_2 1_555 1_555
C66_2 C65_2 1_555 1_555
H50_2 C66_2 1_555 1_555
C67_2 S3_2 1_555 1_555
C70_2 S3_2 1_555 1_555
C71_2 C70_2 1_555 1_555
H53_2 C71_2 1_555 1_555
C72_2 C71_2 1_555 1_555
H54_2 C72_2 1_555 1_555
C73_2 C72_2 1_555 1_555
C74_2 C73_2 1_555 1_555
H55_2 C74_2 1_555 1_555
C75_2 C70_2 1_555 1_555
H56_2 C75_2 1_555 1_555
C76_2 C73_2 1_555 1_555
C77_2 O13_2 1_555 1_555
C78_2 C77_2 1_555 1_555
C79_2 C78_2 1_555 1_555
C80_2 C79_2 1_555 1_555
C81_2 S2_2 1_555 1_555
C82_2 C81_2 1_555 1_555
H59_2 C82_2 1_555 1_555
C83_2 C78_2 1_555 1_555
H60_2 C83_2 1_555 1_555
C84_2 S2_2 1_555 1_555
C85_2 C84_2 1_555 1_555
H61_2 C85_2 1_555 1_555
C86_2 C85_2 1_555 1_555
H62_2 C86_2 1_555 1_555
C87_2 C86_2 1_555 1_555
C88_2 C87_2 1_555 1_555
H63_2 C88_2 1_555 1_555
C89_2 C84_2 1_555 1_555
H64_2 C89_2 1_555 1_555
C90_2 C87_2 1_555 1_555
Cd8_2 O11_2 1_555 1_555
Cd9_2 O12_2 1_555 1_555
Cd11 O5_2 1_555 1_555
O32_2 Cd5 1_555 1_555
O34_2 Cd5 1_555 1_555
N9_2 Cd5 1_555 1_555
O12_2 Cd8_2 1_555 1_555
O14_2 C77_2 1_555 1_555
O17_2 Cd9_2 1_555 1_555
O18_2 Cd9_2 1_555 1_555
C4_2 C5_2 1_555 1_555
C9_2 C10_2 1_555 1_555
C11_2 C12_2 1_555 1_555
C23_2 C24_2 1_555 1_555
C52_2 C53_2 1_555 1_555
C54_2 C55_2 1_555 1_555
C60_2 C61_2 1_555 1_555
C66_2 C67_2 1_555 1_555
C74_2 C75_2 1_555 1_555
C80_2 C81_2 1_555 1_555
C82_2 C83_2 1_555 1_555
C88_2 C89_2 1_555 1_555
N3_2 C13_2 1_555 1_555
C13_2 H11_2 1_555 1_555
C14_2 C13_2 1_555 1_555
H12_2 C14_2 1_555 1_555
C15_2 C14_2 1_555 1_555
C16_2 C15_2 1_555 1_555
H13_2 C16_2 1_555 1_555
C17_2 N3_2 1_555 1_555
H14_2 C17_2 1_555 1_555
C18_2 C15_2 1_555 1_555
H15_2 C18_2 1_555 1_555
C19_2 C18_2 1_555 1_555
H16_2 C19_2 1_555 1_555
C22_2 C19_2 1_555 1_555
Cd7 N3_2 1_555 1_555
C16_2 C17_2 1_555 1_555
Cd11 O19_3 1_555 1_555
O19_3 C91_3 1_555 1_555
H68_3 C97_3 1_555 1_555
C96_3 C97_3 1_555 1_555
S3_3 O9_3 1_555 1_555
O10_3 S3_3 1_555 1_555
O28_2 C76_3 1_555 1_555
O29_2 C76_3 1_555 1_555
O32_2 C104_3 1_555 1_555
O34_2 C104_3 1_555 1_555
H50_3 C66_3 1_555 1_555
C67_3 S3_3 1_555 1_555
C68_3 C67_3 1_555 1_555
H51_3 C68_3 1_555 1_555
H52_3 C69_3 1_555 1_555
C70_3 S3_3 1_555 1_555
C71_3 C70_3 1_555 1_555
H53_3 C71_3 1_555 1_555
C72_3 C71_3 1_555 1_555
H54_3 C72_3 1_555 1_555
C73_3 C72_3 1_555 1_555
C74_3 C73_3 1_555 1_555
H55_3 C74_3 1_555 1_555
C75_3 C70_3 1_555 1_555
H56_3 C75_3 1_555 1_555
C76_3 C73_3 1_555 1_555
C98_3 S1_3 1_555 1_555
C102_3 C101_3 1_555 1_555
H71_3 C102_3 1_555 1_555
C103_3 C98_3 1_555 1_555
H72_3 C103_3 1_555 1_555
C104_3 C101_3 1_555 1_555
C66_3 C67_3 1_555 1_555
C68_3 C69_3 1_555 1_555
C74_3 C75_3 1_555 1_555
C102_3 C103_3 1_555 1_555
Cd6 O1_3 1_555 1_555
Cd8_2 O7_3 1_555 1_555
Cd9_2 O13_3 1_555 1_555
S2_3 O15_3 1_555 1_555
O1_3 C49_3 1_555 1_555
O7_3 C63_3 1_555 1_555
O8_3 Cd8_2 1_555 1_555
O13_3 Cd8_2 1_555 1_555
O14_3 Cd9_2 1_555 1_555
O30_2 C90_3 1_555 1_555
N1_3 Cd6 1_555 1_555
N2_3 Cd8_2 1_555 1_555
N9 C13_3 1_555 1_555
N4_3 Cd9_2 1_555 1_555
N5_3 Cd8_2 1_555 1_555
N7_3 Cd9_2 1_555 1_555
N10 C44_3 1_555 1_555
C1_3 N1_3 1_555 1_555
H1_3 C1_3 1_555 1_555
C2_3 C1_3 1_555 1_555
H2_3 C2_3 1_555 1_555
C3_3 C2_3 1_555 1_555
C4_3 C3_3 1_555 1_555
H3_3 C4_3 1_555 1_555
C5_3 N1_3 1_555 1_555
H4_3 C5_3 1_555 1_555
C6_3 C3_3 1_555 1_555
H5_3 C6_3 1_555 1_555
C7_3 C6_3 1_555 1_555
H6_3 C7_3 1_555 1_555
C8_3 N2_3 1_555 1_555
H7_3 C8_3 1_555 1_555
C9_3 C8_3 1_555 1_555
H8_3 C9_3 1_555 1_555
C10_3 C7_3 1_555 1_555
C11_3 C10_3 1_555 1_555
H9_3 C11_3 1_555 1_555
C12_3 N2_3 1_555 1_555
H10_3 C12_3 1_555 1_555
C13_3 H11_3 1_555 1_555
C14_3 C13_3 1_555 1_555
H12_3 C14_3 1_555 1_555
C15_3 C14_3 1_555 1_555
C16_3 C15_3 1_555 1_555
H13_3 C16_3 1_555 1_555
C17_3 N9 1_555 1_555
C18_3 C15_3 1_555 1_555
H15_3 C18_3 1_555 1_555
C19_3 C18_3 1_555 1_555
H16_3 C19_3 1_555 1_555
C20_3 N4_3 1_555 1_555
H17_3 C20_3 1_555 1_555
C21_3 C20_3 1_555 1_555
H18_3 C21_3 1_555 1_555
C22_3 C19_3 1_555 1_555
C23_3 C22_3 1_555 1_555
H19_3 C23_3 1_555 1_555
C24_3 N4_3 1_555 1_555
H20_3 C24_3 1_555 1_555
C25_3 N5_3 1_555 1_555
H21_3 C25_3 1_555 1_555
C26_3 C25_3 1_555 1_555
H22_3 C26_3 1_555 1_555
C27_3 C26_3 1_555 1_555
C28_3 C27_3 1_555 1_555
H23_3 C28_3 1_555 1_555
C29_3 N5_3 1_555 1_555
H24_3 C29_3 1_555 1_555
C30_3 C27_3 1_555 1_555
H25_3 C30_3 1_555 1_555
C31_3 C30_3 1_555 1_555
H26_3 C31_3 1_555 1_555
C32_3 N6_3 1_555 1_555
C33_3 C32_3 1_555 1_555
H28_3 C33_3 1_555 1_555
C34_3 C31_3 1_555 1_555
C35_3 C34_3 1_555 1_555
H29_3 C35_3 1_555 1_555
C36_3 N6_3 1_555 1_555
H30_3 C36_3 1_555 1_555
C37_3 N7_3 1_555 1_555
H31_3 C37_3 1_555 1_555
C38_3 C37_3 1_555 1_555
H32_3 C38_3 1_555 1_555
C39_3 C38_3 1_555 1_555
C40_3 C39_3 1_555 1_555
H33_3 C40_3 1_555 1_555
C41_3 N7_3 1_555 1_555
H34_3 C41_3 1_555 1_555
C42_3 C39_3 1_555 1_555
H35_3 C42_3 1_555 1_555
C43_3 C42_3 1_555 1_555
H36_3 C43_3 1_555 1_555
C44_3 H37_3 1_555 1_555
C45_3 C44_3 1_555 1_555
H38_3 C45_3 1_555 1_555
C46_3 C43_3 1_555 1_555
C47_3 C46_3 1_555 1_555
H39_3 C47_3 1_555 1_555
C48_3 N10 1_555 1_555
H40_3 C48_3 1_555 1_555
C50_3 C49_3 1_555 1_555
C55_3 C50_3 1_555 1_555
H44_3 C55_3 1_555 1_555
C63_3 O8_3 1_555 1_555
C64_3 C63_3 1_555 1_555
C65_3 C64_3 1_555 1_555
H49_3 C65_3 1_555 1_555
C77_3 O13_3 1_555 1_555
C78_3 C77_3 1_555 1_555
C79_3 C78_3 1_555 1_555
H57_3 C79_3 1_555 1_555
C80_3 C79_3 1_555 1_555
H58_3 C80_3 1_555 1_555
C81_3 S2_3 1_555 1_555
C82_3 C81_3 1_555 1_555
H59_3 C82_3 1_555 1_555
C83_3 C78_3 1_555 1_555
H60_3 C83_3 1_555 1_555
C84_3 S2_3 1_555 1_555
C88_3 C87_3 1_555 1_555
H63_3 C88_3 1_555 1_555
C89_3 C84_3 1_555 1_555
H64_3 C89_3 1_555 1_555
C90_3 C87_3 1_555 1_555
C93_3 C92_3 1_555 1_555
H65_3 C93_3 1_555 1_555
C94_3 C93_3 1_555 1_555
H66_3 C94_3 1_555 1_555
H69_3 C99_3 1_555 1_555
C100_3 C99_3 1_555 1_555
H70_3 C100_3 1_555 1_555
O14_3 C77_3 1_555 1_555
C4_3 C5_3 1_555 1_555
C9_3 C10_3 1_555 1_555
C11_3 C12_3 1_555 1_555
C16_3 C17_3 1_555 1_555
C21_3 C22_3 1_555 1_555
C23_3 C24_3 1_555 1_555
C28_3 C29_3 1_555 1_555
C33_3 C34_3 1_555 1_555
C35_3 C36_3 1_555 1_555
C40_3 C41_3 1_555 1_555
C45_3 C46_3 1_555 1_555
C47_3 C48_3 1_555 1_555
C54_3 C55_3 1_555 1_555
C80_3 C81_3 1_555 1_555
C82_3 C83_3 1_555 1_555
C88_3 C89_3 1_555 1_555
C94_3 C95_3 1_555 1_555
O4_3 S4_3 1_555 1_555
O25_2 C62_3 1_555 1_555
O27_2 C62_3 1_555 1_555
C56_3 S4_3 1_555 1_555
C59_3 C58_3 1_555 1_555
C60_3 C59_3 1_555 1_555
H47_3 C60_3 1_555 1_555
C61_3 C56_3 1_555 1_555
H48_3 C61_3 1_555 1_555
C62_3 C59_3 1_555 1_555
C60_3 C61_3 1_555 1_555
H41_3 C51_3 1_555 1_555
C52_3 C51_3 1_555 1_555
H42_3 C52_3 1_555 1_555
H45_3 C57_3 1_555 1_555
H61_3 C85_3 1_555 1_555
C86_3 C85_3 1_555 1_555
H62_3 C86_3 1_555 1_555
C52_3 C53_3 1_555 1_555
N9_2 C13_4 1_555 1_555
C13_4 H11_4 1_555 1_555
C14_4 C13_4 1_555 1_555
H12_4 C14_4 1_555 1_555
C15_4 C14_4 1_555 1_555
C16_4 C15_4 1_555 1_555
H13_4 C16_4 1_555 1_555
C17_4 N9_2 1_555 1_555
H14_4 C17_4 1_555 1_555
C18_4 C15_4 1_555 1_555
H15_4 C18_4 1_555 1_555
C19_4 C18_4 1_555 1_555
H16_4 C19_4 1_555 1_555
C22_4 C19_4 1_555 1_555
C16_4 C17_4 1_555 1_555
Cd7 O1_4 1_555 1_555
S2_4 O15_4 1_555 1_555
S4_4 O3_4 1_555 1_555
O1_4 C49_4 1_555 1_555
O2_4 Cd7 1_555 1_555
O4_4 S4_4 1_555 1_555
O25 C62_4 1_555 1_555
O27 C62_4 1_555 1_555
O10_4 S3_4 1_555 1_555
O28 C76_4 1_555 1_555
O29 C76_4 1_555 1_555
O16_4 S2_4 1_555 1_555
O30 C90_4 1_555 1_555
O31 C90_4 1_555 1_555
N1_4 Cd7 1_555 1_555
C1_4 N1_4 1_555 1_555
H1_4 C1_4 1_555 1_555
C2_4 C1_4 1_555 1_555
H2_4 C2_4 1_555 1_555
C3_4 C2_4 1_555 1_555
C4_4 C3_4 1_555 1_555
H3_4 C4_4 1_555 1_555
C5_4 N1_4 1_555 1_555
H4_4 C5_4 1_555 1_555
C6_4 C3_4 1_555 1_555
H5_4 C6_4 1_555 1_555
C7_4 C6_4 1_555 1_555
H6_4 C7_4 1_555 1_555
H8_4 C9_4 1_555 1_555
C10_4 C7_4 1_555 1_555
C11_4 C10_4 1_555 1_555
H9_4 C11_4 1_555 1_555
C12_4 N2_4 1_555 1_555
H10_4 C12_4 1_555 1_555
C20_4 N4_4 1_555 1_555
C21_4 C20_4 1_555 1_555
H18_4 C21_4 1_555 1_555
C24_4 N4_4 1_555 1_555
H20_4 C24_4 1_555 1_555
C49_4 O2_4 1_555 1_555
C50_4 C49_4 1_555 1_555
C51_4 C50_4 1_555 1_555
H41_4 C51_4 1_555 1_555
C52_4 C51_4 1_555 1_555
H42_4 C52_4 1_555 1_555
C53_4 S4_4 1_555 1_555
C54_4 C53_4 1_555 1_555
H43_4 C54_4 1_555 1_555
C55_4 C50_4 1_555 1_555
H44_4 C55_4 1_555 1_555
C56_4 S4_4 1_555 1_555
C57_4 C56_4 1_555 1_555
H45_4 C57_4 1_555 1_555
C58_4 C57_4 1_555 1_555
H46_4 C58_4 1_555 1_555
C59_4 C58_4 1_555 1_555
C60_4 C59_4 1_555 1_555
H47_4 C60_4 1_555 1_555
C61_4 C56_4 1_555 1_555
H48_4 C61_4 1_555 1_555
C62_4 C59_4 1_555 1_555
H49_4 C65_4 1_555 1_555
C66_4 C65_4 1_555 1_555
H50_4 C66_4 1_555 1_555
C67_4 S3_4 1_555 1_555
C70_4 S3_4 1_555 1_555
C71_4 C70_4 1_555 1_555
H53_4 C71_4 1_555 1_555
C72_4 C71_4 1_555 1_555
H54_4 C72_4 1_555 1_555
C73_4 C72_4 1_555 1_555
C74_4 C73_4 1_555 1_555
H55_4 C74_4 1_555 1_555
C75_4 C70_4 1_555 1_555
H56_4 C75_4 1_555 1_555
C76_4 C73_4 1_555 1_555
C77_4 O13_4 1_555 1_555
C78_4 C77_4 1_555 1_555
C79_4 C78_4 1_555 1_555
C80_4 C79_4 1_555 1_555
C81_4 S2_4 1_555 1_555
C82_4 C81_4 1_555 1_555
H59_4 C82_4 1_555 1_555
C83_4 C78_4 1_555 1_555
H60_4 C83_4 1_555 1_555
C84_4 S2_4 1_555 1_555
C85_4 C84_4 1_555 1_555
H61_4 C85_4 1_555 1_555
C86_4 C85_4 1_555 1_555
H62_4 C86_4 1_555 1_555
C87_4 C86_4 1_555 1_555
C88_4 C87_4 1_555 1_555
H63_4 C88_4 1_555 1_555
C89_4 C84_4 1_555 1_555
H64_4 C89_4 1_555 1_555
C90_4 C87_4 1_555 1_555
O14_4 C77_4 1_555 1_555
C4_4 C5_4 1_555 1_555
C9_4 C10_4 1_555 1_555
C11_4 C12_4 1_555 1_555
C23_4 C24_4 1_555 1_555
C52_4 C53_4 1_555 1_555
C54_4 C55_4 1_555 1_555
C60_4 C61_4 1_555 1_555
C66_4 C67_4 1_555 1_555
C74_4 C75_4 1_555 1_555
C80_4 C81_4 1_555 1_555
C82_4 C83_4 1_555 1_555
C88_4 C89_4 1_555 1_555
Cd12 O19_4 1_555 1_555
S1_4 O21_2 1_555 1_555
O19_4 C91_4 1_555 1_555
O20_4 Cd12 1_555 1_555
O22_4 S1_4 1_555 1_555
O32 C104_4 1_555 1_555
O34 C104_4 1_555 1_555
C91_4 O20_4 1_555 1_555
C92_4 C91_4 1_555 1_555
C93_4 C92_4 1_555 1_555
H65_4 C93_4 1_555 1_555
C94_4 C93_4 1_555 1_555
H66_4 C94_4 1_555 1_555
C95_4 S1_4 1_555 1_555
C96_4 C95_4 1_555 1_555
H67_2 C96_4 1_555 1_555
C97_4 C92_4 1_555 1_555
H68_4 C97_4 1_555 1_555
C98_4 S1_4 1_555 1_555
C99_4 C98_4 1_555 1_555
H69_4 C99_4 1_555 1_555
C100_4 C99_4 1_555 1_555
H70_4 C100_4 1_555 1_555
C101_4 C100_4 1_555 1_555
C102_4 C101_4 1_555 1_555
H71_4 C102_4 1_555 1_555
C103_4 C98_4 1_555 1_555
H72_4 C103_4 1_555 1_555
C104_4 C101_4 1_555 1_555
C94_4 C95_4 1_555 1_555
C96_4 C97_4 1_555 1_555
C102_4 C103_4 1_555 1_555
N10_2 C44_4 1_555 1_555
H33_4 C40_4 1_555 1_555
C43_4 C42_4 1_555 1_555
H36_4 C43_4 1_555 1_555
C44_4 H37_4 1_555 1_555
C45_4 C44_4 1_555 1_555
H38_4 C45_4 1_555 1_555
C46_4 C43_4 1_555 1_555
C47_4 C46_4 1_555 1_555
H39_4 C47_4 1_555 1_555
C48_4 N10_2 1_555 1_555
H40_4 C48_4 1_555 1_555
C40_4 C41_4 1_555 1_555
C45_4 C46_4 1_555 1_555
C47_4 C48_4 1_555 1_555
Cd8 O7_4 1_555 1_555
O7_4 C63_4 1_555 1_555
N5_4 Cd8 1_555 1_555
N7_4 Cd9 1_555 1_555
H7_4 C8_4 1_555 1_555
C25_4 N5_4 1_555 1_555
H21_4 C25_4 1_555 1_555
C26_4 C25_4 1_555 1_555
H22_4 C26_4 1_555 1_555
C27_4 C26_4 1_555 1_555
C28_4 C27_4 1_555 1_555
H23_4 C28_4 1_555 1_555
C29_4 N5_4 1_555 1_555
H24_4 C29_4 1_555 1_555
C30_4 C27_4 1_555 1_555
H25_4 C30_4 1_555 1_555
C31_4 C30_4 1_555 1_555
H26_4 C31_4 1_555 1_555
C32_4 N6_4 1_555 1_555
H27_4 C32_4 1_555 1_555
C33_4 C32_4 1_555 1_555
H28_4 C33_4 1_555 1_555
C34_4 C31_4 1_555 1_555
C35_4 C34_4 1_555 1_555
H29_4 C35_4 1_555 1_555
C36_4 N6_4 1_555 1_555
H30_4 C36_4 1_555 1_555
C37_4 N7_4 1_555 1_555
H31_4 C37_4 1_555 1_555
C38_4 C37_4 1_555 1_555
H32_4 C38_4 1_555 1_555
C39_4 C38_4 1_555 1_555
C64_4 C63_4 1_555 1_555
H51_4 C68_4 1_555 1_555
C69_4 C64_4 1_555 1_555
H52_4 C69_4 1_555 1_555
C28_4 C29_4 1_555 1_555
C33_4 C34_4 1_555 1_555
C35_4 C36_4 1_555 1_555
C68_4 C69_4 1_555 1_555

#END
