
###############################################################################
#
# This file contains modified crystal structure data generated from the
# MOF subset of the Cambridge Structural Database (CSD) v543 
# hosted by the Cambridge Crystallographic Data Centre (CCDC).
#
# This work is licensed under the Creative Commons
# Attribution-NonCommercial-ShareAlike 4.0 International License.
# To view a copy of this license, visit
# http://creativecommons.org/licenses/by-nc-sa/4.0/
# or send a letter to
# Creative Commons, PO Box 1866, Mountain View, CA 94042, USA.
#
# CIF created using the CSD Python API on 29 September 2022
# The structure has been converted into the P1 space group
# The structure has a 3D framework
# The original CSD entry NOWMUK is in the monoclinic crystal system
# The framework has been calculated to contain at least 10.0% void space
# The void calculation uses a probe of radius 1.32A, grid spacing 0.4
#
###############################################################################

data_NOWMUK
_chemical_formula_moiety         '(C416 H288 Cd16 N32 O96 S16)n'
_symmetry_cell_setting           triclinic
_symmetry_space_group_name_H-M   'P 1'
_symmetry_Int_Tables_number      1
_space_group_name_Hall           'P 1'
loop_
_symmetry_equiv_pos_site_id
_symmetry_equiv_pos_as_xyz
1 x,y,z
_cell_length_a                   16.0399(4)
_cell_length_b                   44.4378(12)
_cell_length_c                   17.3632(4)
_cell_angle_alpha                90
_cell_angle_beta                 113.908(1)
_cell_angle_gamma                90
_cell_volume                     11314.2
loop_
_atom_site_label
_atom_site_type_symbol
_atom_site_fract_x
_atom_site_fract_y
_atom_site_fract_z
Cd6 Cd 0.03275(7) 0.00714(3) 0.62035(7)
N9 N 0.0578(10) 0.0343(5) 0.3933(10)
Cd12 Cd 0.47237(7) 0.00742(3) 0.88176(6)
O2 O 0.0432(8) 0.9624(3) 0.3155(7)
O16 O 0.0433(8) 0.6830(3) 0.4808(7)
O18 O 0.0302(9) 0.7441(3) 0.1054(7)
H14 H 0.0362 0.9372 0.6368
C51 C 0.0402(13) 0.9292(4) 0.1776(11)
H41 H 0.0647 0.9194 0.2309
C52 C 0.0486(16) 0.9158(5) 0.1082(16)
H42 H 0.0788 0.8971 0.1136
C53 C 0.013(2) 0.9302(8) 0.0326(19)
C57 C 0.1986(19) 0.9344(9) 0.0054(13)
H45 H 0.2016 0.9268 0.0576
C58 C 0.2758(18) 0.9465(9) 0.0029(13)
H46 H 0.3313 0.9472 0.0518
C85 C 0.0056(14) 0.7122(6) 0.3188(12)
H61 H 0.0306 0.7222 0.3717
C86 C 0.0097(14) 0.7250(5) 0.2465(11)
H62 H 0.0411 0.7434 0.2503
Cd10 Cd 0.52763(7) 0.99258(3) 0.11824(6)
O33 O 0.0732(8) 0.9764(3) 0.5105(7)
S4 S 0.0156(5) 0.91719(19) 0.9383(4)
O4 O 0.0504(8) 0.8910(4) 0.9673(7)
O5 O 0.3449(8) 0.9767(3) 0.8459(7)
O6 O 0.4174(8) 0.9800(3) 0.9848(7)
C56 C 0.1183(15) 0.9326(7) 0.9377(14)
C59 C 0.2706(11) 0.9576(5) 0.9277(10)
C60 C 0.1866(11) 0.9574(4) 0.8578(12)
H47 H 0.1810 0.9661 0.8059
C61 C 0.1099(12) 0.9441(6) 0.8658(16)
H48 H 0.0526 0.9436 0.8189
C62 C 0.3495(10) 0.9722(5) 0.9188(9)
O32 O 0.8404(8) 0.0224(3) 0.3560(7)
O34 O 0.9268(8) 0.0236(3) 0.4895(7)
Cd1 Cd 0.96725(7) 0.99286(3) 0.37965(7)
Cd2 Cd 0.43159(9) 0.73463(3) 0.22176(7)
Cd3 Cd 0.48899(8) 0.75003(3) 0.45990(8)
S2 S 0.9670(5) 0.6715(2) 0.4086(4)
O1 O 0.9241(8) 0.9879(3) 0.2291(7)
O7 O 0.4060(8) 0.7306(3) 0.0752(7)
O8 O 0.5050(8) 0.6996(3) 0.1648(7)
O13 O 0.5421(8) 0.7189(3) 0.3547(7)
O14 O 0.6176(8) 0.7202(3) 0.4917(7)
O15 O 0.9217(8) 0.6445(3) 0.3729(7)
O17 O 0.9166(8) 0.7169(3) 0.0222(7)
O20 O 0.0433(8) 0.4587(3) 0.3247(7)
O22 O 0.1017(8) 0.3693(3) 0.0122(7)
N1 N 0.8746(9) 0.9514(4) 0.3723(10)
N2 N 0.5255(12) 0.7755(4) 0.2345(10)
N3 N 0.9422(10) 0.9657(5) 0.6067(10)
N4 N 0.5788(11) 0.7919(3) 0.4629(10)
N5 N 0.3391(9) 0.6963(3) 0.2330(9)
N6 N 0.0596(9) 0.5343(4) 0.3807(8)
N7 N 0.3994(9) 0.7092(3) 0.4591(8)
N8 N 0.1165(8) 0.5469(3) 0.6067(8)
C1 C 0.7858(11) 0.9539(5) 0.3508(11)
H1 H 0.7619 0.9735 0.3496
C2 C 0.7293(14) 0.9317(6) 0.3313(16)
H2 H 0.6667 0.9352 0.3188
C3 C 0.7587(13) 0.9039(6) 0.3286(13)
C4 C 0.8521(14) 0.9000(6) 0.3469(18)
H3 H 0.8773 0.8810 0.3433
C5 C 0.9051(13) 0.9261(5) 0.3708(17)
H4 H 0.9689 0.9242 0.3869
C6 C 0.692(2) 0.8762(7) 0.3018(16)
H5 H 0.6298 0.8801 0.2890
C7 C 0.7142(15) 0.8495(7) 0.2956(16)
H6 H 0.7757 0.8456 0.3050
C8 C 0.4952(19) 0.8029(5) 0.2198(19)
H7 H 0.4312 0.8062 0.1940
C9 C 0.5532(18) 0.8275(6) 0.2404(17)
H8 H 0.5298 0.8474 0.2323
C10 C 0.6467(15) 0.8222(7) 0.2735(16)
C11 C 0.676(2) 0.7964(6) 0.2817(18)
H9 H 0.7395 0.7929 0.2979
C12 C 0.6171(17) 0.7728(6) 0.2673(16)
H10 H 0.6423 0.7532 0.2815
C13 C 0.8514(16) 0.9705(8) 0.5796(18)
H11 H 0.8317 0.9908 0.5700
C14 C 0.791(2) 0.9510(8) 0.566(2)
H12 H 0.7301 0.9560 0.5581
C15 C 0.8190(13) 0.9208(7) 0.5630(13)
C16 C 0.917(2) 0.9149(7) 0.596(2)
H13 H 0.9412 0.8951 0.6040
C17 C 0.9721(16) 0.9400(6) 0.616(2)
C18 C 0.756(2) 0.8950(10) 0.539(2)
H15 H 0.6945 0.8998 0.5277
C19 C 0.770(2) 0.8682(5) 0.532(2)
H16 H 0.8316 0.8621 0.5478
C20 C 0.5453(19) 0.8193(6) 0.457(2)
H17 H 0.4821 0.8219 0.4433
C21 C 0.597(2) 0.8430(5) 0.469(2)
H18 H 0.5687 0.8622 0.4568
C22 C 0.6907(17) 0.8421(4) 0.4980(12)
C23 C 0.7238(15) 0.8140(5) 0.5056(15)
H19 H 0.7877 0.8113 0.5238
C24 C 0.6701(13) 0.7897(5) 0.4886(13)
H20 H 0.6970 0.7703 0.4948
C25 C 0.2490(12) 0.6977(4) 0.2032(11)
H21 H 0.2197 0.7152 0.1725
C26 C 0.1962(13) 0.6756(5) 0.2141(11)
H22 H 0.1320 0.6781 0.1930
C27 C 0.2373(12) 0.6488(4) 0.2571(10)
C28 C 0.3310(12) 0.6466(5) 0.2853(10)
H23 H 0.3623 0.6292 0.3142
C29 C 0.3782(12) 0.6702(4) 0.2710(10)
H24 H 0.4422 0.6681 0.2888
C30 C 0.1843(12) 0.6266(5) 0.2726(10)
H25 H 0.1204 0.6274 0.2398
C31 C 0.2147(11) 0.6038(5) 0.3301(11)
H26 H 0.2788 0.6023 0.3611
C32 C 0.0190(10) 0.5589(4) 0.3314(11)
C33 C 0.0648(11) 0.5809(5) 0.3160(13)
H28 H 0.0316 0.5970 0.2810
C34 C 0.1597(11) 0.5818(5) 0.3485(10)
C35 C 0.2020(11) 0.5575(5) 0.4023(11)
H29 H 0.2667 0.5566 0.4284
C36 C 0.1528(10) 0.5356(5) 0.4172(11)
H30 H 0.1846 0.5201 0.4555
C37 C 0.3078(12) 0.7098(5) 0.4266(11)
H31 H 0.2772 0.7264 0.3925
C38 C 0.2565(12) 0.6874(5) 0.4405(12)
H32 H 0.1919 0.6888 0.4159
C39 C 0.2986(11) 0.6623(4) 0.4908(11)
C40 C 0.3921(12) 0.6609(5) 0.5218(11)
H33 H 0.4244 0.6442 0.5543
C41 C 0.4375(11) 0.6844(4) 0.5045(11)
H34 H 0.5021 0.6830 0.5266
C42 C 0.2444(12) 0.6396(5) 0.5089(11)
H35 H 0.1802 0.6408 0.4780
C43 C 0.2755(12) 0.6172(5) 0.5648(11)
H36 H 0.3396 0.6163 0.5968
C44 C 0.0789(12) 0.5720(5) 0.5652(12)
H37 H 0.0143 0.5734 0.5440
C45 C 0.1229(11) 0.5953(5) 0.5505(10)
H38 H 0.0908 0.6125 0.5204
C46 C 0.2197(12) 0.5935(5) 0.5815(10)
C47 C 0.2602(10) 0.5693(4) 0.6286(10)
H39 H 0.3248 0.5683 0.6558
C48 C 0.2096(10) 0.5464(5) 0.6372(10)
H40 H 0.2404 0.5288 0.6662
C49 C 0.9894(11) 0.9696(4) 0.2443(10)
C50 C 0.9979(11) 0.9555(4) 0.1692(9)
C54 C 0.9687(17) 0.9572(8) 0.0229(12)
C55 C 0.9622(12) 0.9699(5) 0.0922(10)
H44 H 0.9327 0.9888 0.0871
C63 C 0.4623(11) 0.7098(5) 0.0918(10)
C64 C 0.4798(10) 0.6943(4) 0.0232(10)
C65 C 0.5321(12) 0.6692(4) 0.0404(10)
H49 H 0.5561 0.6610 0.0956
C77 C 0.6127(11) 0.7145(4) 0.4196(10)
C78 C 0.6970(14) 0.7027(6) 0.4129(12)
C79 C 0.7793(15) 0.7082(7) 0.4761(17)
H57 H 0.7805 0.7185 0.5245
C80 C 0.8632(18) 0.6996(6) 0.4748(19)
H58 H 0.9212 0.7050 0.5167
C81 C 0.850(2) 0.6814(11) 0.401(2)
C82 C 0.774(3) 0.6791(13) 0.3397(18)
H59 H 0.7724 0.6698 0.2897
C83 C 0.694(2) 0.6896(11) 0.3415(16)
H60 H 0.6383 0.6877 0.2935
C84 C 0.9642(12) 0.6848(5) 0.3097(12)
C87 C 0.9679(13) 0.7107(5) 0.1699(12)
C88 C 0.9299(15) 0.6827(6) 0.1627(12)
H63 H 0.9052 0.6727 0.1098
C89 C 0.9279(15) 0.6689(5) 0.2356(11)
H64 H 0.9025 0.6494 0.2332
C90 C 0.9710(10) 0.7250(4) 0.0962(10)
C92 C 0.0089(10) 0.4480(5) 0.1813(9)
C93 C 0.0620(11) 0.4224(4) 0.2008(11)
H65 H 0.0872 0.4153 0.2573
C94 C 0.0794(13) 0.4066(5) 0.1400(10)
H66 H 0.1165 0.3890 0.1535
C95 C 0.0411(9) 0.4174(4) 0.0606(9)
C99 C 0.2380(11) 0.4157(4) 0.0205(10)
H69 H 0.2543 0.4011 0.0641
C100 C 0.3034(9) 0.4333(3) 0.0102(9)
H70 H 0.3650 0.4320 0.0499
Cd5 Cd 0.53275(7) 0.49286(3) 0.12035(7)
Cd11 Cd 0.02763(7) 0.50742(3) 0.61824(6)
O26 O 0.0826(8) 0.4800(3) 0.5152(7)
O28 O 0.3058(8) 0.7664(3) 0.1903(7)
O29 O 0.3865(8) 0.7640(3) 0.3270(7)
O30 O 0.4166(8) 0.7831(3) 0.5222(7)
O31 O 0.5302(9) 0.7559(3) 0.6054(7)
S1 S 0.0632(3) 0.39800(10) 0.9790(2)
S3 S 0.5375(3) 0.64934(9) 0.8148(2)
O3 O 0.9350(8) 0.9258(3) 0.8608(7)
O9 O 0.4556(8) 0.6510(3) 0.7392(7)
O10 O 0.5799(8) 0.6204(3) 0.8463(7)
O11 O 0.8058(8) 0.7336(3) 0.6903(7)
O12 O 0.8865(8) 0.7360(3) 0.8270(7)
O23 O 0.3404(8) 0.4776(3) 0.8560(7)
O24 O 0.4268(8) 0.4764(3) 0.9895(7)
H43 H 0.9433 0.9669 0.9696
C66 C 0.5508(11) 0.6553(4) 0.9753(10)
H50 H 0.5884 0.6379 0.9872
C67 C 0.5151(10) 0.6668(3) 0.8964(9)
C68 C 0.4615(10) 0.6924(4) 0.8775(10)
H51 H 0.4375 0.7004 0.8220
C69 C 0.4430(11) 0.7064(4) 0.9412(11)
H52 H 0.4060 0.7240 0.9292
C70 C 0.6192(9) 0.6729(3) 0.8004(8)
C71 C 0.7052(12) 0.6728(5) 0.8603(10)
H53 H 0.7214 0.6604 0.9089
C72 C 0.7693(12) 0.6911(5) 0.8495(11)
H54 H 0.8296 0.6919 0.8918
C73 C 0.7464(10) 0.7082(3) 0.7783(9)
C74 C 0.6615(11) 0.7081(4) 0.7183(12)
H55 H 0.6467 0.7198 0.6687
C75 C 0.5946(13) 0.6907(5) 0.7298(15)
H56 H 0.5332 0.6912 0.6894
C76 C 0.8167(11) 0.7278(3) 0.7634(9)
C98 C 0.1493(9) 0.4198(3) 0.9665(9)
C101 C 0.2803(10) 0.4529(4) 0.9429(9)
C102 C 0.1907(10) 0.4570(4) 0.8901(11)
H71 H 0.1742 0.4711 0.8453
C103 C 0.1255(10) 0.4406(4) 0.9023(11)
H72 H 0.0630 0.4436 0.8664
C104 C 0.3538(11) 0.4704(4) 0.9290(9)
Cd7 Cd 0.46725(7) 0.50714(3) 0.87965(7)
Cd8 Cd 0.93159(9) 0.76537(3) 0.72176(7)
Cd9 Cd 0.98899(8) 0.74997(3) 0.95990(8)
Cd4 Cd 0.97237(7) 0.49258(3) 0.38176(6)
O19 O 0.9366(8) 0.4859(3) 0.2320(7)
H27 H 0.9544 0.5601 0.3072
C91 C 0.9953(10) 0.4654(5) 0.2510(8)
C96 C 0.9887(11) 0.4426(4) 0.0361(10)
C97 C 0.9748(13) 0.4585(6) 0.1006(11)
H68 H 0.9413 0.4768 0.0875
O25 O 0.8449(8) 0.5233(3) 0.3459(7)
O27 O 0.9174(8) 0.5200(3) 0.4848(7)
N10 N 0.8835(8) 0.4531(3) 0.3933(8)
Cd2_2 Cd 0.06841(9) 0.23463(3) 0.27824(7)
Cd3_2 Cd 0.01101(8) 0.25003(3) 0.04010(8)
O7_2 O 0.0940(8) 0.2306(3) 0.4248(7)
O9_2 O 0.0444(8) 0.1510(3) 0.7608(7)
N5_2 N 0.1609(9) 0.1963(3) 0.2670(9)
N6_2 N 0.4404(9) 0.0343(4) 0.1193(8)
N7_2 N 0.1006(9) 0.2092(3) 0.0409(8)
C8_2 C 0.0048(19) 0.3029(5) 0.2802(19)
H7_2 H 0.0688 0.3062 0.3060
H17_2 H 0.0179 0.3219 0.0567
C25_2 C 0.2510(12) 0.1977(4) 0.2968(11)
H21_2 H 0.2803 0.2152 0.3275
C26_2 C 0.3038(13) 0.1756(5) 0.2859(11)
H22_2 H 0.3680 0.1781 0.3070
C27_2 C 0.2627(12) 0.1488(4) 0.2429(10)
C28_2 C 0.1690(12) 0.1466(5) 0.2147(10)
H23_2 H 0.1377 0.1292 0.1858
C29_2 C 0.1218(12) 0.1702(4) 0.2290(10)
H24_2 H 0.0578 0.1681 0.2112
C30_2 C 0.3157(12) 0.1266(5) 0.2274(10)
H25_2 H 0.3796 0.1274 0.2602
C31_2 C 0.2853(11) 0.1038(5) 0.1699(11)
H26_2 H 0.2212 0.1023 0.1389
C32_2 C 0.4810(10) 0.0589(4) 0.1686(11)
H27_2 H 0.5456 0.0601 0.1928
C33_2 C 0.4352(11) 0.0809(5) 0.1840(13)
H28_2 H 0.4684 0.0970 0.2190
C34_2 C 0.3403(11) 0.0818(5) 0.1515(10)
C35_2 C 0.2980(11) 0.0575(5) 0.0977(11)
H29_2 H 0.2333 0.0566 0.0716
C36_2 C 0.3472(10) 0.0356(5) 0.0828(11)
H30_2 H 0.3154 0.0201 0.0445
C37_2 C 0.1922(12) 0.2098(5) 0.0734(11)
H31_2 H 0.2228 0.2264 0.1075
C38_2 C 0.2435(12) 0.1874(5) 0.0595(12)
H32_2 H 0.3081 0.1888 0.0841
C39_2 C 0.2014(11) 0.1623(4) 0.0092(11)
H35_2 H 0.3198 0.1408 0.0220
C63_2 C 0.0377(11) 0.2098(5) 0.4082(10)
C64_2 C 0.0202(10) 0.1943(4) 0.4768(10)
C68_2 C 0.0385(10) 0.1924(4) 0.6225(10)
H51_2 H 0.0625 0.2004 0.6780
C69_2 C 0.0570(11) 0.2064(4) 0.5588(11)
H52_2 H 0.0940 0.2240 0.5708
O25_2 O 0.6551(8) 0.0233(3) 0.1541(7)
O27_2 O 0.5826(8) 0.0200(3) 0.0152(7)
O28_2 O 0.1942(8) 0.2664(3) 0.3097(7)
O29_2 O 0.1135(8) 0.2640(3) 0.1730(7)
N8_2 N 0.3835(8) 0.0469(3) 0.8933(8)
C40_2 C 0.1079(12) 0.1609(5) 0.9782(11)
H33_2 H 0.0756 0.1442 0.9457
C41_2 C 0.0625(11) 0.1844(4) 0.9955(11)
C42_2 C 0.2556(12) 0.1396(5) 0.9911(11)
C43_2 C 0.2245(12) 0.1172(5) 0.9352(11)
H36_2 H 0.1604 0.1163 0.9032
C44_2 C 0.4211(12) 0.0720(5) 0.9348(12)
H37_2 H 0.4857 0.0734 0.9560
C45_2 C 0.3771(11) 0.0953(5) 0.9495(10)
H38_2 H 0.4092 0.1125 0.9796
C46_2 C 0.2803(12) 0.0935(5) 0.9185(10)
C47_2 C 0.2398(10) 0.0693(4) 0.8714(10)
H39_2 H 0.1752 0.0683 0.8442
C48_2 C 0.2904(10) 0.0464(5) 0.8628(10)
H40_2 H 0.2596 0.0288 0.8338
O30_2 O 0.0834(8) 0.2831(3) 0.9778(7)
S1_2 S 0.4368(3) 0.89800(10) 0.5210(2)
O19_2 O 0.5634(8) 0.9859(3) 0.2680(7)
O20_2 O 0.4567(8) 0.9587(3) 0.1753(7)
O21 O 0.5165(8) 0.8998(3) 0.5964(7)
O22_2 O 0.3983(8) 0.8693(3) 0.4878(7)
O23_2 O 0.1596(8) 0.9776(3) 0.6440(7)
C91_2 C 0.5047(10) 0.9654(5) 0.2490(8)
C92_2 C 0.4911(10) 0.9480(5) 0.3187(9)
C93_2 C 0.4380(11) 0.9224(4) 0.2992(11)
H65_2 H 0.4128 0.9153 0.2427
C94_2 C 0.4206(13) 0.9066(5) 0.3600(10)
H66_2 H 0.3835 0.8890 0.3465
C95_2 C 0.4589(9) 0.9174(4) 0.4394(9)
C96_2 C 0.5113(11) 0.9426(4) 0.4639(10)
H67 H 0.5370 0.9492 0.5208
C97_2 C 0.5252(13) 0.9585(6) 0.3994(11)
H68_2 H 0.5587 0.9768 0.4125
C98_2 C 0.3507(9) 0.9198(3) 0.5335(9)
C99_2 C 0.2620(11) 0.9157(4) 0.4795(10)
H69_2 H 0.2457 0.9011 0.4359
C100_2 C 0.1966(9) 0.9333(3) 0.4898(9)
H70_2 H 0.1350 0.9320 0.4501
C101_2 C 0.2197(10) 0.9529(4) 0.5571(9)
C102_2 C 0.3093(10) 0.9570(4) 0.6099(11)
H71_2 H 0.3258 0.9711 0.6547
C103_2 C 0.3745(10) 0.9406(4) 0.5977(11)
H72_2 H 0.4370 0.9436 0.6336
C104_2 C 0.1462(11) 0.9704(4) 0.5710(9)
N10_2 N 0.6165(8) 0.9531(3) 0.1067(8)
S2_2 S 0.5330(5) 0.1715(2) 0.0914(4)
S3_2 S 0.9625(3) 0.14934(9) 0.6852(2)
S4_2 S 0.4844(5) 0.41719(19) 0.5617(4)
O1_2 O 0.5759(8) 0.4879(3) 0.2709(7)
O2_2 O 0.4568(8) 0.4624(3) 0.1845(7)
O3_2 O 0.5650(8) 0.4258(3) 0.6392(7)
O4_2 O 0.4496(8) 0.3910(4) 0.5327(7)
O5_2 O 0.1551(8) 0.4767(3) 0.6541(7)
O8_2 O 0.9950(8) 0.1996(3) 0.3352(7)
O10_2 O 0.9201(8) 0.1204(3) 0.6537(7)
O11_2 O 0.6942(8) 0.2336(3) 0.8097(7)
O12_2 O 0.6135(8) 0.2360(3) 0.6730(7)
O13_2 O 0.9579(8) 0.2189(3) 0.1453(7)
O14_2 O 0.8824(8) 0.2202(3) 0.0083(7)
O15_2 O 0.5783(8) 0.1445(3) 0.1271(7)
O16_2 O 0.4567(8) 0.1830(3) 0.0192(7)
O17_2 O 0.5834(8) 0.2169(3) 0.4778(7)
O18_2 O 0.4698(9) 0.2441(3) 0.3946(7)
N1_2 N 0.6254(9) 0.4514(4) 0.1277(10)
N2_2 N 0.9745(12) 0.2755(4) 0.2655(10)
N4_2 N 0.9212(11) 0.2919(3) 0.0371(10)
C1_2 C 0.7142(11) 0.4539(5) 0.1492(11)
H1_2 H 0.7381 0.4735 0.1504
C2_2 C 0.7707(14) 0.4317(6) 0.1687(16)
H2_2 H 0.8333 0.4352 0.1812
C3_2 C 0.7413(13) 0.4039(6) 0.1714(13)
C4_2 C 0.6479(14) 0.4000(6) 0.1531(18)
H3_2 H 0.6227 0.3810 0.1567
C5_2 C 0.5949(13) 0.4261(5) 0.1292(17)
H4_2 H 0.5311 0.4242 0.1131
C6_2 C 0.808(2) 0.3762(7) 0.1982(16)
H5_2 H 0.8702 0.3801 0.2110
C7_2 C 0.7858(15) 0.3495(7) 0.2044(16)
H6_2 H 0.7243 0.3456 0.1950
C9_2 C 0.9468(18) 0.3275(6) 0.2596(17)
H8_2 H 0.9702 0.3474 0.2677
C10_2 C 0.8533(15) 0.3222(7) 0.2265(16)
C11_2 C 0.824(2) 0.2964(6) 0.2183(18)
H9_2 H 0.7605 0.2929 0.2021
C12_2 C 0.8829(17) 0.2728(6) 0.2327(16)
H10_2 H 0.8577 0.2532 0.2185
C20_2 C 0.9547(19) 0.3193(6) 0.043(2)
C21_2 C 0.903(2) 0.3430(5) 0.031(2)
H18_2 H 0.9313 0.3622 0.0432
C22_2 C 0.8093(17) 0.3421(4) 0.0020(12)
C24_2 C 0.8299(13) 0.2897(5) 0.0114(13)
H20_2 H 0.8030 0.2703 0.0052
C49_2 C 0.5106(11) 0.4696(4) 0.2557(10)
C50_2 C 0.5021(11) 0.4555(4) 0.3308(9)
C51_2 C 0.4598(13) 0.4292(4) 0.3224(11)
H41_2 H 0.4353 0.4194 0.2691
C52_2 C 0.4514(16) 0.4158(5) 0.3918(16)
H42_2 H 0.4212 0.3971 0.3864
C53_2 C 0.487(2) 0.4302(8) 0.4674(19)
C54_2 C 0.5313(17) 0.4572(8) 0.4771(12)
H43_2 H 0.5567 0.4669 0.5304
C55_2 C 0.5378(12) 0.4699(5) 0.4078(10)
H44_2 H 0.5673 0.4888 0.4129
C56_2 C 0.3817(15) 0.4326(7) 0.5623(14)
C57_2 C 0.3014(19) 0.4344(9) 0.4946(13)
H45_2 H 0.2984 0.4268 0.4424
C58_2 C 0.2242(18) 0.4465(9) 0.4971(13)
H46_2 H 0.1687 0.4472 0.4482
C59_2 C 0.2294(11) 0.4576(5) 0.5723(10)
C60_2 C 0.3134(11) 0.4574(4) 0.6422(12)
H47_2 H 0.3190 0.4661 0.6941
C61_2 C 0.3901(12) 0.4441(6) 0.6342(16)
H48_2 H 0.4474 0.4436 0.6811
C62_2 C 0.1505(10) 0.4722(5) 0.5812(9)
C65_2 C 0.9679(12) 0.1692(4) 0.4596(10)
H49_2 H 0.9439 0.1610 0.4044
C66_2 C 0.9492(11) 0.1553(4) 0.5247(10)
H50_2 H 0.9116 0.1379 0.5128
C67_2 C 0.9849(10) 0.1668(3) 0.6036(9)
C70_2 C 0.8808(9) 0.1729(3) 0.6996(8)
C71_2 C 0.7948(12) 0.1728(5) 0.6397(10)
H53_2 H 0.7786 0.1604 0.5911
C72_2 C 0.7307(12) 0.1911(5) 0.6505(11)
H54_2 H 0.6704 0.1919 0.6082
C73_2 C 0.7536(10) 0.2082(3) 0.7217(9)
C74_2 C 0.8385(11) 0.2081(4) 0.7817(12)
H55_2 H 0.8533 0.2198 0.8313
C75_2 C 0.9054(13) 0.1907(5) 0.7702(15)
H56_2 H 0.9668 0.1912 0.8106
C76_2 C 0.6833(11) 0.2278(3) 0.7366(9)
C77_2 C 0.8873(11) 0.2145(4) 0.0804(10)
C78_2 C 0.8030(14) 0.2027(6) 0.0871(12)
C79_2 C 0.7207(15) 0.2082(7) 0.0239(17)
C80_2 C 0.6368(18) 0.1996(6) 0.0252(19)
C81_2 C 0.650(2) 0.1814(11) 0.099(2)
C82_2 C 0.726(3) 0.1791(13) 0.1603(18)
H59_2 H 0.7276 0.1698 0.2103
C83_2 C 0.806(2) 0.1896(11) 0.1585(16)
H60_2 H 0.8617 0.1877 0.2065
C84_2 C 0.5358(12) 0.1848(5) 0.1903(12)
C85_2 C 0.4944(14) 0.2122(6) 0.1812(12)
H61_2 H 0.4694 0.2222 0.1283
C86_2 C 0.4903(14) 0.2250(5) 0.2535(11)
H62_2 H 0.4589 0.2434 0.2497
C87_2 C 0.5321(13) 0.2107(5) 0.3301(12)
C88_2 C 0.5701(15) 0.1827(6) 0.3373(12)
H63_2 H 0.5948 0.1727 0.3902
C89_2 C 0.5721(15) 0.1689(5) 0.2644(11)
H64_2 H 0.5975 0.1494 0.2668
C90_2 C 0.5290(10) 0.2250(4) 0.4038(10)
Cd8_2 Cd 0.56841(9) 0.26537(3) 0.77824(7)
Cd9_2 Cd 0.51101(8) 0.24997(3) 0.54010(8)
O32_2 O 0.6596(8) 0.5224(3) 0.1440(7)
O34_2 O 0.5732(8) 0.5236(3) 0.0105(7)
N9_2 N 0.4422(10) 0.5343(5) 0.1067(10)
N3_2 N 0.5578(10) 0.4657(5) 0.8933(10)
C13_2 C 0.6486(16) 0.4705(8) 0.9204(18)
H11_2 H 0.6683 0.4908 0.9300
C14_2 C 0.709(2) 0.4510(8) 0.934(2)
H12_2 H 0.7699 0.4560 0.9419
C15_2 C 0.6810(13) 0.4208(7) 0.9370(13)
C16_2 C 0.583(2) 0.4149(7) 0.904(2)
H13_2 H 0.5588 0.3951 0.8960
C17_2 C 0.5279(16) 0.4400(6) 0.884(2)
H14_2 H 0.4638 0.4372 0.8632
C18_2 C 0.744(2) 0.3950(10) 0.961(2)
H15_2 H 0.8055 0.3998 0.9723
C19_2 C 0.730(2) 0.3682(5) 0.968(2)
H16_2 H 0.6684 0.3621 0.9522
C23_2 C 0.7762(15) 0.3140(5) 0.9944(15)
H19_2 H 0.7123 0.3113 0.9762
H34_2 H 0.9979 0.1830 0.9734
H57_2 H 0.7195 0.2185 0.9755
H58_2 H 0.5788 0.2050 0.9833
O31_2 O 0.9698(9) 0.2559(3) 0.8946(7)
O19_3 O 0.0634(8) 0.5141(3) 0.7680(7)
H27_3 H 0.0456 0.4399 0.6928
C91_3 C 0.0047(10) 0.5346(5) 0.7490(8)
C96_3 C 0.0113(11) 0.5574(4) 0.9639(10)
C97_3 C 0.0252(13) 0.5415(6) 0.8994(11)
H68_3 H 0.0587 0.5232 0.9125
S1_3 S 0.9368(3) 0.60200(10) 0.0210(2)
S3_3 S 0.4625(3) 0.35066(9) 0.1852(2)
O3_3 O 0.0650(8) 0.0742(3) 0.1392(7)
O9_3 O 0.5444(8) 0.3490(3) 0.2608(7)
O10_3 O 0.4201(8) 0.3796(3) 0.1537(7)
H43_3 H 0.0567 0.0331 0.0304
C66_3 C 0.4492(11) 0.3447(4) 0.0247(10)
H50_3 H 0.4116 0.3621 0.0128
C67_3 C 0.4849(10) 0.3332(3) 0.1036(9)
C68_3 C 0.5385(10) 0.3076(4) 0.1225(10)
H51_3 H 0.5625 0.2996 0.1780
C69_3 C 0.5570(11) 0.2936(4) 0.0588(11)
H52_3 H 0.5940 0.2760 0.0708
C70_3 C 0.3808(9) 0.3271(3) 0.1996(8)
C71_3 C 0.2948(12) 0.3272(5) 0.1397(10)
H53_3 H 0.2786 0.3396 0.0911
C72_3 C 0.2307(12) 0.3089(5) 0.1505(11)
H54_3 H 0.1704 0.3081 0.1082
C73_3 C 0.2536(10) 0.2918(3) 0.2217(9)
C74_3 C 0.3385(11) 0.2919(4) 0.2817(12)
H55_3 H 0.3533 0.2802 0.3313
C75_3 C 0.4054(13) 0.3093(5) 0.2702(15)
H56_3 H 0.4668 0.3088 0.3106
C76_3 C 0.1833(11) 0.2722(3) 0.2366(9)
C98_3 C 0.8507(9) 0.5802(3) 0.0335(9)
C101_3 C 0.7197(10) 0.5471(4) 0.0571(9)
C102_3 C 0.8093(10) 0.5430(4) 0.1099(11)
H71_3 H 0.8258 0.5289 0.1547
C103_3 C 0.8745(10) 0.5594(4) 0.0977(11)
H72_3 H 0.9370 0.5564 0.1336
C104_3 C 0.6462(11) 0.5296(4) 0.0710(9)
S2_3 S 0.0330(5) 0.3285(2) 0.5914(4)
O1_3 O 0.0759(8) 0.0121(3) 0.7709(7)
O7_3 O 0.5940(8) 0.2694(3) 0.9248(7)
O8_3 O 0.4950(8) 0.3004(3) 0.8352(7)
O13_3 O 0.4579(8) 0.2811(3) 0.6453(7)
O14_3 O 0.3824(8) 0.2798(3) 0.5083(7)
O15_3 O 0.0783(8) 0.3555(3) 0.6271(7)
O20_3 O 0.9567(8) 0.5413(3) 0.6753(7)
O22_3 O 0.8983(8) 0.6307(3) 0.9878(7)
N1_3 N 0.1254(9) 0.0486(4) 0.6277(10)
N2_3 N 0.4745(12) 0.2245(4) 0.7655(10)
N4_3 N 0.4212(11) 0.2081(3) 0.5371(10)
N5_3 N 0.6609(9) 0.3037(3) 0.7670(9)
N6_3 N 0.9404(9) 0.4657(4) 0.6193(8)
N7_3 N 0.6006(9) 0.2908(3) 0.5409(8)
C1_3 C 0.2142(11) 0.0461(5) 0.6492(11)
H1_3 H 0.2381 0.0265 0.6504
C2_3 C 0.2707(14) 0.0683(6) 0.6687(16)
H2_3 H 0.3333 0.0648 0.6812
C3_3 C 0.2413(13) 0.0961(6) 0.6714(13)
C4_3 C 0.1479(14) 0.1000(6) 0.6531(18)
H3_3 H 0.1227 0.1190 0.6567
C5_3 C 0.0949(13) 0.0739(5) 0.6292(17)
H4_3 H 0.0311 0.0758 0.6131
C6_3 C 0.308(2) 0.1238(7) 0.6982(16)
H5_3 H 0.3702 0.1199 0.7110
C7_3 C 0.2858(15) 0.1505(7) 0.7044(16)
H6_3 H 0.2243 0.1544 0.6950
C8_3 C 0.5048(19) 0.1971(5) 0.7802(19)
H7_3 H 0.5688 0.1938 0.8060
C9_3 C 0.4468(18) 0.1725(6) 0.7596(17)
H8_3 H 0.4702 0.1526 0.7677
C10_3 C 0.3533(15) 0.1778(7) 0.7265(16)
C11_3 C 0.324(2) 0.2036(6) 0.7183(18)
H9_3 H 0.2605 0.2071 0.7021
C12_3 C 0.3829(17) 0.2272(6) 0.7327(16)
H10_3 H 0.3577 0.2468 0.7185
C13_3 C 0.1486(16) 0.0295(8) 0.4204(18)
H11_3 H 0.1683 0.0092 0.4300
C14_3 C 0.209(2) 0.0490(8) 0.434(2)
H12_3 H 0.2699 0.0440 0.4419
C15_3 C 0.1810(13) 0.0792(7) 0.4370(13)
C16_3 C 0.083(2) 0.0851(7) 0.404(2)
H13_3 H 0.0588 0.1049 0.3960
C17_3 C 0.0279(16) 0.0600(6) 0.384(2)
C18_3 C 0.244(2) 0.1050(10) 0.461(2)
H15_3 H 0.3055 0.1002 0.4723
C19_3 C 0.230(2) 0.1318(5) 0.468(2)
H16_3 H 0.1684 0.1379 0.4522
C20_3 C 0.4547(19) 0.1807(6) 0.543(2)
H17_3 H 0.5179 0.1781 0.5567
C21_3 C 0.403(2) 0.1570(5) 0.531(2)
H18_3 H 0.4313 0.1378 0.5432
C22_3 C 0.3093(17) 0.1579(4) 0.5020(12)
C23_3 C 0.2762(15) 0.1860(5) 0.4944(15)
H19_3 H 0.2123 0.1887 0.4762
C24_3 C 0.3299(13) 0.2103(5) 0.5114(13)
H20_3 H 0.3030 0.2297 0.5052
C25_3 C 0.7510(12) 0.3023(4) 0.7968(11)
H21_3 H 0.7803 0.2848 0.8275
C26_3 C 0.8038(13) 0.3244(5) 0.7859(11)
H22_3 H 0.8680 0.3219 0.8070
C27_3 C 0.7627(12) 0.3512(4) 0.7429(10)
C28_3 C 0.6690(12) 0.3534(5) 0.7147(10)
H23_3 H 0.6377 0.3708 0.6858
C29_3 C 0.6218(12) 0.3298(4) 0.7290(10)
H24_3 H 0.5578 0.3319 0.7112
C30_3 C 0.8157(12) 0.3734(5) 0.7274(10)
H25_3 H 0.8796 0.3726 0.7602
C31_3 C 0.7853(11) 0.3962(5) 0.6699(11)
H26_3 H 0.7212 0.3977 0.6389
C32_3 C 0.9810(10) 0.4411(4) 0.6686(11)
C33_3 C 0.9352(11) 0.4191(5) 0.6840(13)
H28_3 H 0.9684 0.4030 0.7190
C34_3 C 0.8403(11) 0.4182(5) 0.6515(10)
C35_3 C 0.7980(11) 0.4425(5) 0.5977(11)
H29_3 H 0.7333 0.4434 0.5716
C36_3 C 0.8472(10) 0.4644(5) 0.5828(11)
H30_3 H 0.8154 0.4799 0.5445
C37_3 C 0.6922(12) 0.2902(5) 0.5734(11)
H31_3 H 0.7228 0.2736 0.6075
C38_3 C 0.7435(12) 0.3126(5) 0.5595(12)
H32_3 H 0.8081 0.3112 0.5841
C39_3 C 0.7014(11) 0.3377(4) 0.5092(11)
C40_3 C 0.6079(12) 0.3391(5) 0.4782(11)
H33_3 H 0.5756 0.3558 0.4457
C41_3 C 0.5625(11) 0.3156(4) 0.4955(11)
H34_3 H 0.4979 0.3170 0.4734
C42_3 C 0.7556(12) 0.3604(5) 0.4911(11)
H35_3 H 0.8198 0.3592 0.5220
C43_3 C 0.7245(12) 0.3828(5) 0.4352(11)
H36_3 H 0.6604 0.3837 0.4032
C44_3 C 0.9211(12) 0.4280(5) 0.4348(12)
H37_3 H 0.9857 0.4266 0.4560
C45_3 C 0.8771(11) 0.4047(5) 0.4495(10)
H38_3 H 0.9092 0.3875 0.4796
C46_3 C 0.7803(12) 0.4065(5) 0.4185(10)
C47_3 C 0.7398(10) 0.4307(4) 0.3714(10)
H39_3 H 0.6752 0.4317 0.3442
C48_3 C 0.7904(10) 0.4536(5) 0.3628(10)
H40_3 H 0.7596 0.4712 0.3338
C49_3 C 0.0106(11) 0.0304(4) 0.7557(10)
C50_3 C 0.0021(11) 0.0445(4) 0.8308(9)
C54_3 C 0.0313(17) 0.0428(8) 0.9771(12)
C55_3 C 0.0378(12) 0.0301(5) 0.9078(10)
H44_3 H 0.0673 0.0112 0.9129
C63_3 C 0.5377(11) 0.2902(5) 0.9082(10)
C64_3 C 0.5202(10) 0.3057(4) 0.9768(10)
C65_3 C 0.4679(12) 0.3308(4) 0.9596(10)
H49_3 H 0.4439 0.3390 0.9044
C77_3 C 0.3873(11) 0.2855(4) 0.5804(10)
C78_3 C 0.3030(14) 0.2973(6) 0.5871(12)
C79_3 C 0.2207(15) 0.2918(7) 0.5239(17)
H57_3 H 0.2195 0.2815 0.4755
C80_3 C 0.1368(18) 0.3004(6) 0.5252(19)
H58_3 H 0.0788 0.2950 0.4833
C81_3 C 0.150(2) 0.3186(11) 0.599(2)
C82_3 C 0.226(3) 0.3209(13) 0.6603(18)
H59_3 H 0.2276 0.3302 0.7103
C83_3 C 0.306(2) 0.3104(11) 0.6585(16)
H60_3 H 0.3617 0.3123 0.7065
C84_3 C 0.0358(12) 0.3152(5) 0.6903(12)
C87_3 C 0.0321(13) 0.2893(5) 0.8301(12)
C88_3 C 0.0701(15) 0.3173(6) 0.8373(12)
H63_3 H 0.0948 0.3273 0.8902
C89_3 C 0.0721(15) 0.3311(5) 0.7644(11)
H64_3 H 0.0975 0.3506 0.7668
C90_3 C 0.0290(10) 0.2750(4) 0.9038(10)
C92_3 C 0.9911(10) 0.5520(5) 0.8187(9)
C93_3 C 0.9380(11) 0.5776(4) 0.7992(11)
H65_3 H 0.9128 0.5847 0.7427
C94_3 C 0.9206(13) 0.5934(5) 0.8600(10)
H66_3 H 0.8835 0.6110 0.8465
C95_3 C 0.9589(9) 0.5826(4) 0.9394(9)
C99_3 C 0.7620(11) 0.5843(4) 0.9795(10)
H69_3 H 0.7457 0.5989 0.9359
C100_3 C 0.6966(9) 0.5667(3) 0.9898(9)
H70_3 H 0.6350 0.5680 0.9501
S4_3 S 0.9844(5) 0.08281(19) 0.0617(4)
O4_3 O 0.9496(8) 0.1090(4) 0.0327(7)
C56_3 C 0.8817(15) 0.0674(7) 0.0623(14)
C59_3 C 0.7294(11) 0.0424(5) 0.0723(10)
C60_3 C 0.8134(11) 0.0426(4) 0.1422(12)
H47_3 H 0.8190 0.0339 0.1941
C61_3 C 0.8901(12) 0.0559(6) 0.1342(16)
H48_3 H 0.9474 0.0564 0.1811
C62_3 C 0.6505(10) 0.0278(5) 0.0812(9)
O2_3 O 0.9568(8) 0.0376(3) 0.6845(7)
O16_3 O 0.9567(8) 0.3170(3) 0.5192(7)
H14_3 H 0.9638 0.0628 0.3632
C51_3 C 0.9598(13) 0.0708(4) 0.8224(11)
H41_3 H 0.9353 0.0806 0.7691
C52_3 C 0.9514(16) 0.0842(5) 0.8918(16)
H42_3 H 0.9212 0.1029 0.8864
C53_3 C 0.987(2) 0.0698(8) 0.9674(19)
C57_3 C 0.8014(19) 0.0656(9) 0.9946(13)
H45_3 H 0.7984 0.0732 0.9424
C58_3 C 0.7242(18) 0.0535(9) 0.9971(13)
H46_3 H 0.6687 0.0528 0.9482
C85_3 C 0.9944(14) 0.2878(6) 0.6812(12)
H61_3 H 0.9694 0.2778 0.6283
C86_3 C 0.9903(14) 0.2750(5) 0.7535(11)
H62_3 H 0.9589 0.2566 0.7497
C13_4 C 0.3514(16) 0.5295(8) 0.0796(18)
H11_4 H 0.3317 0.5092 0.0700
C14_4 C 0.291(2) 0.5490(8) 0.066(2)
H12_4 H 0.2301 0.5440 0.0581
C15_4 C 0.3190(13) 0.5792(7) 0.0630(13)
C16_4 C 0.417(2) 0.5851(7) 0.096(2)
H13_4 H 0.4412 0.6049 0.1040
C17_4 C 0.4721(16) 0.5600(6) 0.116(2)
H14_4 H 0.5362 0.5628 0.1368
C18_4 C 0.256(2) 0.6050(10) 0.039(2)
H15_4 H 0.1945 0.6002 0.0277
C19_4 C 0.270(2) 0.6318(5) 0.032(2)
H16_4 H 0.3316 0.6379 0.0478
C23_4 C 0.2238(15) 0.6860(5) 0.0056(15)
H19_4 H 0.2877 0.6887 0.0238
H34_4 H 0.0021 0.8170 0.0266
H57_4 H 0.2805 0.7815 0.0245
H58_4 H 0.4212 0.7950 0.0167
S2_4 S 0.4670(5) 0.8285(2) 0.9086(4)
S3_4 S 0.0375(3) 0.85066(9) 0.3148(2)
S4_4 S 0.5156(5) 0.58281(19) 0.4383(4)
O1_4 O 0.4241(8) 0.5121(3) 0.7291(7)
O2_4 O 0.5432(8) 0.5376(3) 0.8155(7)
O3_4 O 0.4350(8) 0.5742(3) 0.3608(7)
O4_4 O 0.5504(8) 0.6090(4) 0.4673(7)
O8_4 O 0.0050(8) 0.8004(3) 0.6648(7)
O10_4 O 0.0799(8) 0.8796(3) 0.3463(7)
O13_4 O 0.0421(8) 0.7811(3) 0.8547(7)
O14_4 O 0.1176(8) 0.7798(3) 0.9917(7)
O15_4 O 0.4217(8) 0.8555(3) 0.8729(7)
O16_4 O 0.5433(8) 0.8170(3) 0.9808(7)
N1_4 N 0.3746(9) 0.5486(4) 0.8723(10)
N2_4 N 0.0255(12) 0.7245(4) 0.7345(10)
N4_4 N 0.0788(11) 0.7081(3) 0.9629(10)
C1_4 C 0.2858(11) 0.5461(5) 0.8508(11)
H1_4 H 0.2619 0.5265 0.8496
C2_4 C 0.2293(14) 0.5683(6) 0.8313(16)
H2_4 H 0.1667 0.5648 0.8188
C3_4 C 0.2587(13) 0.5961(6) 0.8286(13)
C4_4 C 0.3521(14) 0.6000(6) 0.8469(18)
H3_4 H 0.3773 0.6190 0.8433
C5_4 C 0.4051(13) 0.5739(5) 0.8708(17)
H4_4 H 0.4689 0.5758 0.8869
C6_4 C 0.192(2) 0.6238(7) 0.8018(16)
H5_4 H 0.1298 0.6199 0.7890
C7_4 C 0.2142(15) 0.6505(7) 0.7956(16)
H6_4 H 0.2757 0.6544 0.8050
C9_4 C 0.0532(18) 0.6725(6) 0.7404(17)
H8_4 H 0.0298 0.6526 0.7323
C10_4 C 0.1467(15) 0.6778(7) 0.7735(16)
C11_4 C 0.176(2) 0.7036(6) 0.7817(18)
H9_4 H 0.2395 0.7071 0.7979
C12_4 C 0.1171(17) 0.7272(6) 0.7673(16)
H10_4 H 0.1423 0.7468 0.7815
C20_4 C 0.0453(19) 0.6807(6) 0.957(2)
C21_4 C 0.097(2) 0.6570(5) 0.969(2)
H18_4 H 0.0687 0.6378 0.9568
C22_4 C 0.1907(17) 0.6579(4) 0.9980(12)
C24_4 C 0.1701(13) 0.7103(5) 0.9886(13)
H20_4 H 0.1970 0.7297 0.9948
C49_4 C 0.4894(11) 0.5304(4) 0.7443(10)
C50_4 C 0.4979(11) 0.5445(4) 0.6692(9)
C51_4 C 0.5402(13) 0.5708(4) 0.6776(11)
H41_4 H 0.5647 0.5806 0.7309
C52_4 C 0.5486(16) 0.5842(5) 0.6082(16)
H42_4 H 0.5788 0.6029 0.6136
C53_4 C 0.513(2) 0.5698(8) 0.5326(19)
C54_4 C 0.4687(17) 0.5428(8) 0.5229(12)
H43_4 H 0.4433 0.5331 0.4696
C55_4 C 0.4622(12) 0.5301(5) 0.5922(10)
H44_4 H 0.4327 0.5112 0.5871
C56_4 C 0.6183(15) 0.5674(7) 0.4377(14)
C57_4 C 0.6986(19) 0.5656(9) 0.5054(13)
H45_4 H 0.7016 0.5732 0.5576
C58_4 C 0.7758(18) 0.5535(9) 0.5029(13)
H46_4 H 0.8313 0.5528 0.5518
C59_4 C 0.7706(11) 0.5424(5) 0.4277(10)
C60_4 C 0.6866(11) 0.5426(4) 0.3578(12)
H47_4 H 0.6810 0.5339 0.3059
C61_4 C 0.6099(12) 0.5559(6) 0.3658(16)
H48_4 H 0.5526 0.5564 0.3189
C62_4 C 0.8495(10) 0.5278(5) 0.4188(9)
C65_4 C 0.0321(12) 0.8308(4) 0.5404(10)
H49_4 H 0.0561 0.8390 0.5956
C66_4 C 0.0508(11) 0.8447(4) 0.4753(10)
H50_4 H 0.0884 0.8621 0.4872
C67_4 C 0.0151(10) 0.8332(3) 0.3964(9)
C70_4 C 0.1192(9) 0.8271(3) 0.3004(8)
C71_4 C 0.2052(12) 0.8272(5) 0.3603(10)
H53_4 H 0.2214 0.8396 0.4089
C72_4 C 0.2693(12) 0.8089(5) 0.3495(11)
H54_4 H 0.3296 0.8081 0.3918
C73_4 C 0.2464(10) 0.7918(3) 0.2783(9)
C74_4 C 0.1615(11) 0.7919(4) 0.2183(12)
H55_4 H 0.1467 0.7802 0.1687
C75_4 C 0.0946(13) 0.8093(5) 0.2298(15)
H56_4 H 0.0332 0.8088 0.1894
C76_4 C 0.3167(11) 0.7722(3) 0.2634(9)
C77_4 C 0.1127(11) 0.7855(4) 0.9196(10)
C78_4 C 0.1970(14) 0.7973(6) 0.9129(12)
C79_4 C 0.2793(15) 0.7918(7) 0.9761(17)
C80_4 C 0.3632(18) 0.8004(6) 0.9748(19)
C81_4 C 0.350(2) 0.8186(11) 0.901(2)
C82_4 C 0.274(3) 0.8209(13) 0.8397(18)
H59_4 H 0.2724 0.8302 0.7897
C83_4 C 0.194(2) 0.8104(11) 0.8415(16)
H60_4 H 0.1383 0.8123 0.7935
C84_4 C 0.4642(12) 0.8152(5) 0.8097(12)
C85_4 C 0.5056(14) 0.7878(6) 0.8188(12)
H61_4 H 0.5306 0.7778 0.8717
C86_4 C 0.5097(14) 0.7750(5) 0.7465(11)
H62_4 H 0.5411 0.7566 0.7503
C87_4 C 0.4679(13) 0.7893(5) 0.6699(12)
C88_4 C 0.4299(15) 0.8173(6) 0.6627(12)
H63_4 H 0.4052 0.8273 0.6098
C89_4 C 0.4279(15) 0.8311(5) 0.7356(11)
H64_4 H 0.4025 0.8506 0.7332
C90_4 C 0.4710(10) 0.7750(4) 0.5962(10)
S1_4 S 0.5632(3) 0.10200(10) 0.4790(2)
O19_4 O 0.4366(8) 0.0141(3) 0.7320(7)
O20_4 O 0.5433(8) 0.0413(3) 0.8247(7)
O21_2 O 0.4835(8) 0.1002(3) 0.4036(7)
O22_4 O 0.6017(8) 0.1307(3) 0.5122(7)
C91_4 C 0.4953(10) 0.0346(5) 0.7510(8)
C92_4 C 0.5089(10) 0.0520(5) 0.6813(9)
C93_4 C 0.5620(11) 0.0776(4) 0.7008(11)
H65_4 H 0.5872 0.0847 0.7573
C94_4 C 0.5794(13) 0.0934(5) 0.6400(10)
H66_4 H 0.6165 0.1110 0.6535
C95_4 C 0.5411(9) 0.0826(4) 0.5606(9)
C96_4 C 0.4887(11) 0.0574(4) 0.5361(10)
H67_2 H 0.4630 0.0508 0.4792
C97_4 C 0.4748(13) 0.0415(6) 0.6006(11)
H68_4 H 0.4413 0.0232 0.5875
C98_4 C 0.6493(9) 0.0802(3) 0.4665(9)
C99_4 C 0.7380(11) 0.0843(4) 0.5205(10)
H69_4 H 0.7543 0.0989 0.5641
C100_4 C 0.8034(9) 0.0667(3) 0.5102(9)
H70_4 H 0.8650 0.0680 0.5499
C101_4 C 0.7803(10) 0.0471(4) 0.4429(9)
C102_4 C 0.6907(10) 0.0430(4) 0.3901(11)
H71_4 H 0.6742 0.0289 0.3453
C103_4 C 0.6255(10) 0.0594(4) 0.4023(11)
H72_4 H 0.5630 0.0564 0.3664
C104_4 C 0.8538(11) 0.0296(4) 0.4290(9)
C40_4 C 0.8921(12) 0.8391(5) 0.0218(11)
H33_4 H 0.9244 0.8558 0.0543
C41_4 C 0.9375(11) 0.8156(4) 0.0045(11)
C42_4 C 0.7444(12) 0.8604(5) 0.0089(11)
C43_4 C 0.7755(12) 0.8828(5) 0.0648(11)
H36_4 H 0.8396 0.8837 0.0968
C44_4 C 0.5789(12) 0.9280(5) 0.0652(12)
H37_4 H 0.5143 0.9266 0.0440
C45_4 C 0.6229(11) 0.9047(5) 0.0505(10)
H38_4 H 0.5908 0.8875 0.0204
C46_4 C 0.7197(12) 0.9065(5) 0.0815(10)
C47_4 C 0.7602(10) 0.9307(4) 0.1286(10)
H39_4 H 0.8248 0.9317 0.1558
C48_4 C 0.7096(10) 0.9536(5) 0.1372(10)
H40_4 H 0.7404 0.9712 0.1662
O7_4 O 0.9060(8) 0.7694(3) 0.5752(7)
O9_4 O 0.9556(8) 0.8490(3) 0.2392(7)
N5_4 N 0.8391(9) 0.8037(3) 0.7330(9)
N6_4 N 0.5596(9) 0.9657(4) 0.8807(8)
N7_4 N 0.8994(9) 0.7908(3) 0.9591(8)
C8_4 C 0.9952(19) 0.6971(5) 0.7198(19)
H7_4 H 0.9312 0.6938 0.6940
H17_4 H 0.9821 0.6781 0.9433
C25_4 C 0.7490(12) 0.8023(4) 0.7032(11)
H21_4 H 0.7197 0.7848 0.6725
C26_4 C 0.6962(13) 0.8244(5) 0.7141(11)
H22_4 H 0.6320 0.8219 0.6930
C27_4 C 0.7373(12) 0.8512(4) 0.7571(10)
C28_4 C 0.8310(12) 0.8534(5) 0.7853(10)
H23_4 H 0.8623 0.8708 0.8142
C29_4 C 0.8782(12) 0.8298(4) 0.7710(10)
H24_4 H 0.9422 0.8319 0.7888
C30_4 C 0.6843(12) 0.8734(5) 0.7726(10)
H25_4 H 0.6204 0.8726 0.7398
C31_4 C 0.7147(11) 0.8962(5) 0.8301(11)
H26_4 H 0.7788 0.8977 0.8611
C32_4 C 0.5190(10) 0.9411(4) 0.8314(11)
H27_4 H 0.4544 0.9399 0.8072
C33_4 C 0.5648(11) 0.9191(5) 0.8160(13)
H28_4 H 0.5316 0.9030 0.7810
C34_4 C 0.6597(11) 0.9182(5) 0.8485(10)
C35_4 C 0.7020(11) 0.9425(5) 0.9023(11)
H29_4 H 0.7667 0.9434 0.9284
C36_4 C 0.6528(10) 0.9644(5) 0.9172(11)
H30_4 H 0.6846 0.9799 0.9555
C37_4 C 0.8078(12) 0.7902(5) 0.9266(11)
H31_4 H 0.7772 0.7736 0.8925
C38_4 C 0.7565(12) 0.8126(5) 0.9405(12)
H32_4 H 0.6919 0.8112 0.9159
C39_4 C 0.7986(11) 0.8377(4) 0.9908(11)
H35_4 H 0.6802 0.8592 0.9780
C63_4 C 0.9623(11) 0.7902(5) 0.5918(10)
C64_4 C 0.9798(10) 0.8057(4) 0.5232(10)
C68_4 C 0.9615(10) 0.8076(4) 0.3775(10)
H51_4 H 0.9375 0.7996 0.3220
C69_4 C 0.9430(11) 0.7936(4) 0.4412(11)
H52_4 H 0.9060 0.7760 0.4292
O21_3 O 0.9835(8) 0.3998(3) 0.9036(7)
H67_3 H 0.9630 0.4492 0.9792
O21_4 O 0.0165(8) 0.6002(3) 0.0964(7)
H67_4 H 0.0370 0.5508 0.0208
loop_
_geom_bond_atom_site_label_1
_geom_bond_atom_site_label_2
_geom_bond_site_symmetry_1
_geom_bond_site_symmetry_2
H41 C51 1_555 1_555
C52 C51 1_555 1_555
H42 C52 1_555 1_555
H45 C57 1_555 1_555
C58 C57 1_555 1_555
H46 C58 1_555 1_555
H61 C85 1_555 1_555
C86 C85 1_555 1_555
H62 C86 1_555 1_555
C52 C53 1_555 1_555
O4 S4 1_555 1_555
O5 C62 1_555 1_555
O6 C62 1_555 1_555
C56 S4 1_555 1_555
C60 C59 1_555 1_555
H47 C60 1_555 1_555
C61 C56 1_555 1_555
H48 C61 1_555 1_555
C62 C59 1_555 1_555
C60 C61 1_555 1_555
Cd1 O1 1_555 1_555
Cd2 O7 1_555 1_555
Cd3 O13 1_555 1_555
S2 O15 1_555 1_555
O1 C49 1_555 1_555
O7 C63 1_555 1_555
O8 Cd2 1_555 1_555
O13 Cd2 1_555 1_555
O14 Cd3 1_555 1_555
O17 C90 1_555 1_555
N1 Cd1 1_555 1_555
N2 Cd2 1_555 1_555
N3 C13 1_555 1_555
N4 Cd3 1_555 1_555
N5 Cd2 1_555 1_555
N7 Cd3 1_555 1_555
N8 C44 1_555 1_555
C1 N1 1_555 1_555
H1 C1 1_555 1_555
C2 C1 1_555 1_555
H2 C2 1_555 1_555
C3 C2 1_555 1_555
C4 C3 1_555 1_555
H3 C4 1_555 1_555
C5 N1 1_555 1_555
H4 C5 1_555 1_555
C6 C3 1_555 1_555
H5 C6 1_555 1_555
C7 C6 1_555 1_555
H6 C7 1_555 1_555
C8 N2 1_555 1_555
H7 C8 1_555 1_555
C9 C8 1_555 1_555
H8 C9 1_555 1_555
C10 C7 1_555 1_555
C11 C10 1_555 1_555
H9 C11 1_555 1_555
C12 N2 1_555 1_555
H10 C12 1_555 1_555
C13 H11 1_555 1_555
C14 C13 1_555 1_555
H12 C14 1_555 1_555
C15 C14 1_555 1_555
C16 C15 1_555 1_555
H13 C16 1_555 1_555
C17 N3 1_555 1_555
C18 C15 1_555 1_555
H15 C18 1_555 1_555
C19 C18 1_555 1_555
H16 C19 1_555 1_555
C20 N4 1_555 1_555
H17 C20 1_555 1_555
C21 C20 1_555 1_555
H18 C21 1_555 1_555
C22 C19 1_555 1_555
C23 C22 1_555 1_555
H19 C23 1_555 1_555
C24 N4 1_555 1_555
H20 C24 1_555 1_555
C25 N5 1_555 1_555
H21 C25 1_555 1_555
C26 C25 1_555 1_555
H22 C26 1_555 1_555
C27 C26 1_555 1_555
C28 C27 1_555 1_555
H23 C28 1_555 1_555
C29 N5 1_555 1_555
H24 C29 1_555 1_555
C30 C27 1_555 1_555
H25 C30 1_555 1_555
C31 C30 1_555 1_555
H26 C31 1_555 1_555
C32 N6 1_555 1_555
C33 C32 1_555 1_555
H28 C33 1_555 1_555
C34 C31 1_555 1_555
C35 C34 1_555 1_555
H29 C35 1_555 1_555
C36 N6 1_555 1_555
H30 C36 1_555 1_555
C37 N7 1_555 1_555
H31 C37 1_555 1_555
C38 C37 1_555 1_555
H32 C38 1_555 1_555
C39 C38 1_555 1_555
C40 C39 1_555 1_555
H33 C40 1_555 1_555
C41 N7 1_555 1_555
H34 C41 1_555 1_555
C42 C39 1_555 1_555
H35 C42 1_555 1_555
C43 C42 1_555 1_555
H36 C43 1_555 1_555
C44 H37 1_555 1_555
C45 C44 1_555 1_555
H38 C45 1_555 1_555
C46 C43 1_555 1_555
C47 C46 1_555 1_555
H39 C47 1_555 1_555
C48 N8 1_555 1_555
H40 C48 1_555 1_555
C50 C49 1_555 1_555
C55 C50 1_555 1_555
H44 C55 1_555 1_555
C63 O8 1_555 1_555
C64 C63 1_555 1_555
C65 C64 1_555 1_555
H49 C65 1_555 1_555
C77 O13 1_555 1_555
C78 C77 1_555 1_555
C79 C78 1_555 1_555
H57 C79 1_555 1_555
C80 C79 1_555 1_555
H58 C80 1_555 1_555
C81 S2 1_555 1_555
C82 C81 1_555 1_555
H59 C82 1_555 1_555
C83 C78 1_555 1_555
H60 C83 1_555 1_555
C84 S2 1_555 1_555
C88 C87 1_555 1_555
H63 C88 1_555 1_555
C89 C84 1_555 1_555
H64 C89 1_555 1_555
C90 C87 1_555 1_555
C93 C92 1_555 1_555
H65 C93 1_555 1_555
C94 C93 1_555 1_555
H66 C94 1_555 1_555
H69 C99 1_555 1_555
C100 C99 1_555 1_555
H70 C100 1_555 1_555
Cd11 N8 1_555 1_555
O28 Cd2 1_555 1_555
O29 Cd2 1_555 1_555
O30 Cd3 1_555 1_555
O31 Cd3 1_555 1_555
Cd3 O29 1_555 1_555
O14 C77 1_555 1_555
C4 C5 1_555 1_555
C9 C10 1_555 1_555
C11 C12 1_555 1_555
C16 C17 1_555 1_555
C21 C22 1_555 1_555
C23 C24 1_555 1_555
C28 C29 1_555 1_555
C33 C34 1_555 1_555
C35 C36 1_555 1_555
C40 C41 1_555 1_555
C45 C46 1_555 1_555
C47 C48 1_555 1_555
C54 C55 1_555 1_555
C80 C81 1_555 1_555
C82 C83 1_555 1_555
C88 C89 1_555 1_555
C94 C95 1_555 1_555
Cd11 O26 1_555 1_555
S3 O9 1_555 1_555
O10 S3 1_555 1_555
O11 C76 1_555 1_555
O12 C76 1_555 1_555
O23 C104 1_555 1_555
O24 C104 1_555 1_555
H50 C66 1_555 1_555
C67 S3 1_555 1_555
C68 C67 1_555 1_555
H51 C68 1_555 1_555
H52 C69 1_555 1_555
C70 S3 1_555 1_555
C71 C70 1_555 1_555
H53 C71 1_555 1_555
C72 C71 1_555 1_555
H54 C72 1_555 1_555
C73 C72 1_555 1_555
C74 C73 1_555 1_555
H55 C74 1_555 1_555
C75 C70 1_555 1_555
H56 C75 1_555 1_555
C76 C73 1_555 1_555
C98 S1 1_555 1_555
C102 C101 1_555 1_555
H71 C102 1_555 1_555
C103 C98 1_555 1_555
H72 C103 1_555 1_555
C104 C101 1_555 1_555
Cd7 O23 1_555 1_555
Cd8 O11 1_555 1_555
Cd9 O12 1_555 1_555
O12 Cd8 1_555 1_555
O24 Cd7 1_555 1_555
C66 C67 1_555 1_555
C68 C69 1_555 1_555
C74 C75 1_555 1_555
C102 C103 1_555 1_555
Cd4 O19 1_555 1_555
O19 C91 1_555 1_555
H68 C97 1_555 1_555
O25 Cd4 1_555 1_555
O27 Cd4 1_555 1_555
N10 Cd4 1_555 1_555
C96 C97 1_555 1_555
Cd2_2 O7_2 1_555 1_555
O7_2 C63_2 1_555 1_555
N5_2 Cd2_2 1_555 1_555
N7_2 Cd3_2 1_555 1_555
H7_2 C8_2 1_555 1_555
C25_2 N5_2 1_555 1_555
H21_2 C25_2 1_555 1_555
C26_2 C25_2 1_555 1_555
H22_2 C26_2 1_555 1_555
C27_2 C26_2 1_555 1_555
C28_2 C27_2 1_555 1_555
H23_2 C28_2 1_555 1_555
C29_2 N5_2 1_555 1_555
H24_2 C29_2 1_555 1_555
C30_2 C27_2 1_555 1_555
H25_2 C30_2 1_555 1_555
C31_2 C30_2 1_555 1_555
H26_2 C31_2 1_555 1_555
C32_2 N6_2 1_555 1_555
H27_2 C32_2 1_555 1_555
C33_2 C32_2 1_555 1_555
H28_2 C33_2 1_555 1_555
C34_2 C31_2 1_555 1_555
C35_2 C34_2 1_555 1_555
H29_2 C35_2 1_555 1_555
C36_2 N6_2 1_555 1_555
H30_2 C36_2 1_555 1_555
C37_2 N7_2 1_555 1_555
H31_2 C37_2 1_555 1_555
C38_2 C37_2 1_555 1_555
H32_2 C38_2 1_555 1_555
C39_2 C38_2 1_555 1_555
C64_2 C63_2 1_555 1_555
H51_2 C68_2 1_555 1_555
C69_2 C64_2 1_555 1_555
H52_2 C69_2 1_555 1_555
O28_2 Cd2_2 1_555 1_555
O29_2 Cd2_2 1_555 1_555
Cd3_2 O29_2 1_555 1_555
C28_2 C29_2 1_555 1_555
C33_2 C34_2 1_555 1_555
C35_2 C36_2 1_555 1_555
C68_2 C69_2 1_555 1_555
N8_2 C44_2 1_555 1_555
H33_2 C40_2 1_555 1_555
C43_2 C42_2 1_555 1_555
H36_2 C43_2 1_555 1_555
C44_2 H37_2 1_555 1_555
C45_2 C44_2 1_555 1_555
H38_2 C45_2 1_555 1_555
C46_2 C43_2 1_555 1_555
C47_2 C46_2 1_555 1_555
H39_2 C47_2 1_555 1_555
C48_2 N8_2 1_555 1_555
H40_2 C48_2 1_555 1_555
Cd12 N8_2 1_555 1_555
C40_2 C41_2 1_555 1_555
C45_2 C46_2 1_555 1_555
C47_2 C48_2 1_555 1_555
Cd10 O19_2 1_555 1_555
S1_2 O21 1_555 1_555
O19_2 C91_2 1_555 1_555
O20_2 Cd10 1_555 1_555
O22_2 S1_2 1_555 1_555
O23_2 C104_2 1_555 1_555
O33 C104_2 1_555 1_555
C91_2 O20_2 1_555 1_555
C92_2 C91_2 1_555 1_555
C93_2 C92_2 1_555 1_555
H65_2 C93_2 1_555 1_555
C94_2 C93_2 1_555 1_555
H66_2 C94_2 1_555 1_555
C95_2 S1_2 1_555 1_555
C96_2 C95_2 1_555 1_555
H67 C96_2 1_555 1_555
C97_2 C92_2 1_555 1_555
H68_2 C97_2 1_555 1_555
C98_2 S1_2 1_555 1_555
C99_2 C98_2 1_555 1_555
H69_2 C99_2 1_555 1_555
C100_2 C99_2 1_555 1_555
H70_2 C100_2 1_555 1_555
C101_2 C100_2 1_555 1_555
C102_2 C101_2 1_555 1_555
H71_2 C102_2 1_555 1_555
C103_2 C98_2 1_555 1_555
H72_2 C103_2 1_555 1_555
C104_2 C101_2 1_555 1_555
N10_2 Cd10 1_555 1_555
C94_2 C95_2 1_555 1_555
C96_2 C97_2 1_555 1_555
C102_2 C103_2 1_555 1_555
Cd5 O1_2 1_555 1_555
S2_2 O15_2 1_555 1_555
S4_2 O3_2 1_555 1_555
O1_2 C49_2 1_555 1_555
O2_2 Cd5 1_555 1_555
O4_2 S4_2 1_555 1_555
O5_2 C62_2 1_555 1_555
O26 C62_2 1_555 1_555
O10_2 S3_2 1_555 1_555
O11_2 C76_2 1_555 1_555
O12_2 C76_2 1_555 1_555
O16_2 S2_2 1_555 1_555
O17_2 C90_2 1_555 1_555
O18_2 C90_2 1_555 1_555
N1_2 Cd5 1_555 1_555
C1_2 N1_2 1_555 1_555
H1_2 C1_2 1_555 1_555
C2_2 C1_2 1_555 1_555
H2_2 C2_2 1_555 1_555
C3_2 C2_2 1_555 1_555
C4_2 C3_2 1_555 1_555
H3_2 C4_2 1_555 1_555
C5_2 N1_2 1_555 1_555
H4_2 C5_2 1_555 1_555
C6_2 C3_2 1_555 1_555
H5_2 C6_2 1_555 1_555
C7_2 C6_2 1_555 1_555
H6_2 C7_2 1_555 1_555
H8_2 C9_2 1_555 1_555
C10_2 C7_2 1_555 1_555
C11_2 C10_2 1_555 1_555
H9_2 C11_2 1_555 1_555
C12_2 N2_2 1_555 1_555
H10_2 C12_2 1_555 1_555
C20_2 N4_2 1_555 1_555
C21_2 C20_2 1_555 1_555
H18_2 C21_2 1_555 1_555
C24_2 N4_2 1_555 1_555
H20_2 C24_2 1_555 1_555
C49_2 O2_2 1_555 1_555
C50_2 C49_2 1_555 1_555
C51_2 C50_2 1_555 1_555
H41_2 C51_2 1_555 1_555
C52_2 C51_2 1_555 1_555
H42_2 C52_2 1_555 1_555
C53_2 S4_2 1_555 1_555
C54_2 C53_2 1_555 1_555
H43_2 C54_2 1_555 1_555
C55_2 C50_2 1_555 1_555
H44_2 C55_2 1_555 1_555
C56_2 S4_2 1_555 1_555
C57_2 C56_2 1_555 1_555
H45_2 C57_2 1_555 1_555
C58_2 C57_2 1_555 1_555
H46_2 C58_2 1_555 1_555
C59_2 C58_2 1_555 1_555
C60_2 C59_2 1_555 1_555
H47_2 C60_2 1_555 1_555
C61_2 C56_2 1_555 1_555
H48_2 C61_2 1_555 1_555
C62_2 C59_2 1_555 1_555
H49_2 C65_2 1_555 1_555
C66_2 C65_2 1_555 1_555
H50_2 C66_2 1_555 1_555
C67_2 S3_2 1_555 1_555
C70_2 S3_2 1_555 1_555
C71_2 C70_2 1_555 1_555
H53_2 C71_2 1_555 1_555
C72_2 C71_2 1_555 1_555
H54_2 C72_2 1_555 1_555
C73_2 C72_2 1_555 1_555
C74_2 C73_2 1_555 1_555
H55_2 C74_2 1_555 1_555
C75_2 C70_2 1_555 1_555
H56_2 C75_2 1_555 1_555
C76_2 C73_2 1_555 1_555
C77_2 O13_2 1_555 1_555
C78_2 C77_2 1_555 1_555
C79_2 C78_2 1_555 1_555
C80_2 C79_2 1_555 1_555
C81_2 S2_2 1_555 1_555
C82_2 C81_2 1_555 1_555
H59_2 C82_2 1_555 1_555
C83_2 C78_2 1_555 1_555
H60_2 C83_2 1_555 1_555
C84_2 S2_2 1_555 1_555
C85_2 C84_2 1_555 1_555
H61_2 C85_2 1_555 1_555
C86_2 C85_2 1_555 1_555
H62_2 C86_2 1_555 1_555
C87_2 C86_2 1_555 1_555
C88_2 C87_2 1_555 1_555
H63_2 C88_2 1_555 1_555
C89_2 C84_2 1_555 1_555
H64_2 C89_2 1_555 1_555
C90_2 C87_2 1_555 1_555
Cd8_2 O11_2 1_555 1_555
Cd9_2 O12_2 1_555 1_555
Cd11 O5_2 1_555 1_555
O32_2 Cd5 1_555 1_555
O34_2 Cd5 1_555 1_555
N9_2 Cd5 1_555 1_555
O12_2 Cd8_2 1_555 1_555
O14_2 C77_2 1_555 1_555
O17_2 Cd9_2 1_555 1_555
O18_2 Cd9_2 1_555 1_555
C4_2 C5_2 1_555 1_555
C9_2 C10_2 1_555 1_555
C11_2 C12_2 1_555 1_555
C21_2 C22_2 1_555 1_555
C52_2 C53_2 1_555 1_555
C54_2 C55_2 1_555 1_555
C60_2 C61_2 1_555 1_555
C66_2 C67_2 1_555 1_555
C74_2 C75_2 1_555 1_555
C80_2 C81_2 1_555 1_555
C82_2 C83_2 1_555 1_555
C88_2 C89_2 1_555 1_555
N3_2 C13_2 1_555 1_555
C13_2 H11_2 1_555 1_555
C14_2 C13_2 1_555 1_555
H12_2 C14_2 1_555 1_555
C15_2 C14_2 1_555 1_555
C16_2 C15_2 1_555 1_555
H13_2 C16_2 1_555 1_555
C17_2 N3_2 1_555 1_555
H14_2 C17_2 1_555 1_555
C18_2 C15_2 1_555 1_555
H15_2 C18_2 1_555 1_555
C19_2 C18_2 1_555 1_555
H16_2 C19_2 1_555 1_555
H19_2 C23_2 1_555 1_555
Cd7 N3_2 1_555 1_555
C16_2 C17_2 1_555 1_555
Cd11 O19_3 1_555 1_555
O19_3 C91_3 1_555 1_555
H68_3 C97_3 1_555 1_555
C96_3 C97_3 1_555 1_555
S3_3 O9_3 1_555 1_555
O10_3 S3_3 1_555 1_555
O28_2 C76_3 1_555 1_555
O29_2 C76_3 1_555 1_555
O32_2 C104_3 1_555 1_555
O34_2 C104_3 1_555 1_555
H50_3 C66_3 1_555 1_555
C67_3 S3_3 1_555 1_555
C68_3 C67_3 1_555 1_555
H51_3 C68_3 1_555 1_555
H52_3 C69_3 1_555 1_555
C70_3 S3_3 1_555 1_555
C71_3 C70_3 1_555 1_555
H53_3 C71_3 1_555 1_555
C72_3 C71_3 1_555 1_555
H54_3 C72_3 1_555 1_555
C73_3 C72_3 1_555 1_555
C74_3 C73_3 1_555 1_555
H55_3 C74_3 1_555 1_555
C75_3 C70_3 1_555 1_555
H56_3 C75_3 1_555 1_555
C76_3 C73_3 1_555 1_555
C98_3 S1_3 1_555 1_555
C102_3 C101_3 1_555 1_555
H71_3 C102_3 1_555 1_555
C103_3 C98_3 1_555 1_555
H72_3 C103_3 1_555 1_555
C104_3 C101_3 1_555 1_555
C66_3 C67_3 1_555 1_555
C68_3 C69_3 1_555 1_555
C74_3 C75_3 1_555 1_555
C102_3 C103_3 1_555 1_555
Cd6 O1_3 1_555 1_555
Cd8_2 O7_3 1_555 1_555
Cd9_2 O13_3 1_555 1_555
S2_3 O15_3 1_555 1_555
O1_3 C49_3 1_555 1_555
O7_3 C63_3 1_555 1_555
O8_3 Cd8_2 1_555 1_555
O13_3 Cd8_2 1_555 1_555
O14_3 Cd9_2 1_555 1_555
O30_2 C90_3 1_555 1_555
N1_3 Cd6 1_555 1_555
N2_3 Cd8_2 1_555 1_555
N9 C13_3 1_555 1_555
N4_3 Cd9_2 1_555 1_555
N5_3 Cd8_2 1_555 1_555
N7_3 Cd9_2 1_555 1_555
N10 C44_3 1_555 1_555
C1_3 N1_3 1_555 1_555
H1_3 C1_3 1_555 1_555
C2_3 C1_3 1_555 1_555
H2_3 C2_3 1_555 1_555
C3_3 C2_3 1_555 1_555
C4_3 C3_3 1_555 1_555
H3_3 C4_3 1_555 1_555
C5_3 N1_3 1_555 1_555
H4_3 C5_3 1_555 1_555
C6_3 C3_3 1_555 1_555
H5_3 C6_3 1_555 1_555
C7_3 C6_3 1_555 1_555
H6_3 C7_3 1_555 1_555
C8_3 N2_3 1_555 1_555
H7_3 C8_3 1_555 1_555
C9_3 C8_3 1_555 1_555
H8_3 C9_3 1_555 1_555
C10_3 C7_3 1_555 1_555
C11_3 C10_3 1_555 1_555
H9_3 C11_3 1_555 1_555
C12_3 N2_3 1_555 1_555
H10_3 C12_3 1_555 1_555
C13_3 H11_3 1_555 1_555
C14_3 C13_3 1_555 1_555
H12_3 C14_3 1_555 1_555
C15_3 C14_3 1_555 1_555
C16_3 C15_3 1_555 1_555
H13_3 C16_3 1_555 1_555
C17_3 N9 1_555 1_555
C18_3 C15_3 1_555 1_555
H15_3 C18_3 1_555 1_555
C19_3 C18_3 1_555 1_555
H16_3 C19_3 1_555 1_555
C20_3 N4_3 1_555 1_555
H17_3 C20_3 1_555 1_555
C21_3 C20_3 1_555 1_555
H18_3 C21_3 1_555 1_555
C22_3 C19_3 1_555 1_555
C23_3 C22_3 1_555 1_555
H19_3 C23_3 1_555 1_555
C24_3 N4_3 1_555 1_555
H20_3 C24_3 1_555 1_555
C25_3 N5_3 1_555 1_555
H21_3 C25_3 1_555 1_555
C26_3 C25_3 1_555 1_555
H22_3 C26_3 1_555 1_555
C27_3 C26_3 1_555 1_555
C28_3 C27_3 1_555 1_555
H23_3 C28_3 1_555 1_555
C29_3 N5_3 1_555 1_555
H24_3 C29_3 1_555 1_555
C30_3 C27_3 1_555 1_555
H25_3 C30_3 1_555 1_555
C31_3 C30_3 1_555 1_555
H26_3 C31_3 1_555 1_555
C32_3 N6_3 1_555 1_555
C33_3 C32_3 1_555 1_555
H28_3 C33_3 1_555 1_555
C34_3 C31_3 1_555 1_555
C35_3 C34_3 1_555 1_555
H29_3 C35_3 1_555 1_555
C36_3 N6_3 1_555 1_555
H30_3 C36_3 1_555 1_555
C37_3 N7_3 1_555 1_555
H31_3 C37_3 1_555 1_555
C38_3 C37_3 1_555 1_555
H32_3 C38_3 1_555 1_555
C39_3 C38_3 1_555 1_555
C40_3 C39_3 1_555 1_555
H33_3 C40_3 1_555 1_555
C41_3 N7_3 1_555 1_555
H34_3 C41_3 1_555 1_555
C42_3 C39_3 1_555 1_555
H35_3 C42_3 1_555 1_555
C43_3 C42_3 1_555 1_555
H36_3 C43_3 1_555 1_555
C44_3 H37_3 1_555 1_555
C45_3 C44_3 1_555 1_555
H38_3 C45_3 1_555 1_555
C46_3 C43_3 1_555 1_555
C47_3 C46_3 1_555 1_555
H39_3 C47_3 1_555 1_555
C48_3 N10 1_555 1_555
H40_3 C48_3 1_555 1_555
C50_3 C49_3 1_555 1_555
C55_3 C50_3 1_555 1_555
H44_3 C55_3 1_555 1_555
C63_3 O8_3 1_555 1_555
C64_3 C63_3 1_555 1_555
C65_3 C64_3 1_555 1_555
H49_3 C65_3 1_555 1_555
C77_3 O13_3 1_555 1_555
C78_3 C77_3 1_555 1_555
C79_3 C78_3 1_555 1_555
H57_3 C79_3 1_555 1_555
C80_3 C79_3 1_555 1_555
H58_3 C80_3 1_555 1_555
C81_3 S2_3 1_555 1_555
C82_3 C81_3 1_555 1_555
H59_3 C82_3 1_555 1_555
C83_3 C78_3 1_555 1_555
H60_3 C83_3 1_555 1_555
C84_3 S2_3 1_555 1_555
C88_3 C87_3 1_555 1_555
H63_3 C88_3 1_555 1_555
C89_3 C84_3 1_555 1_555
H64_3 C89_3 1_555 1_555
C90_3 C87_3 1_555 1_555
C93_3 C92_3 1_555 1_555
H65_3 C93_3 1_555 1_555
C94_3 C93_3 1_555 1_555
H66_3 C94_3 1_555 1_555
H69_3 C99_3 1_555 1_555
C100_3 C99_3 1_555 1_555
H70_3 C100_3 1_555 1_555
O14_3 C77_3 1_555 1_555
C4_3 C5_3 1_555 1_555
C9_3 C10_3 1_555 1_555
C11_3 C12_3 1_555 1_555
C16_3 C17_3 1_555 1_555
C21_3 C22_3 1_555 1_555
C23_3 C24_3 1_555 1_555
C28_3 C29_3 1_555 1_555
C33_3 C34_3 1_555 1_555
C35_3 C36_3 1_555 1_555
C40_3 C41_3 1_555 1_555
C45_3 C46_3 1_555 1_555
C47_3 C48_3 1_555 1_555
C54_3 C55_3 1_555 1_555
C80_3 C81_3 1_555 1_555
C82_3 C83_3 1_555 1_555
C88_3 C89_3 1_555 1_555
C94_3 C95_3 1_555 1_555
O4_3 S4_3 1_555 1_555
O25_2 C62_3 1_555 1_555
O27_2 C62_3 1_555 1_555
C56_3 S4_3 1_555 1_555
C60_3 C59_3 1_555 1_555
H47_3 C60_3 1_555 1_555
C61_3 C56_3 1_555 1_555
H48_3 C61_3 1_555 1_555
C62_3 C59_3 1_555 1_555
C60_3 C61_3 1_555 1_555
H41_3 C51_3 1_555 1_555
C52_3 C51_3 1_555 1_555
H42_3 C52_3 1_555 1_555
H45_3 C57_3 1_555 1_555
C58_3 C57_3 1_555 1_555
H46_3 C58_3 1_555 1_555
H61_3 C85_3 1_555 1_555
C86_3 C85_3 1_555 1_555
H62_3 C86_3 1_555 1_555
C52_3 C53_3 1_555 1_555
N9_2 C13_4 1_555 1_555
C13_4 H11_4 1_555 1_555
C14_4 C13_4 1_555 1_555
H12_4 C14_4 1_555 1_555
C15_4 C14_4 1_555 1_555
C16_4 C15_4 1_555 1_555
H13_4 C16_4 1_555 1_555
C17_4 N9_2 1_555 1_555
H14_4 C17_4 1_555 1_555
C18_4 C15_4 1_555 1_555
H15_4 C18_4 1_555 1_555
C19_4 C18_4 1_555 1_555
H16_4 C19_4 1_555 1_555
H19_4 C23_4 1_555 1_555
C16_4 C17_4 1_555 1_555
Cd7 O1_4 1_555 1_555
S2_4 O15_4 1_555 1_555
S4_4 O3_4 1_555 1_555
O1_4 C49_4 1_555 1_555
O2_4 Cd7 1_555 1_555
O4_4 S4_4 1_555 1_555
O25 C62_4 1_555 1_555
O27 C62_4 1_555 1_555
O10_4 S3_4 1_555 1_555
O28 C76_4 1_555 1_555
O29 C76_4 1_555 1_555
O16_4 S2_4 1_555 1_555
O30 C90_4 1_555 1_555
O31 C90_4 1_555 1_555
N1_4 Cd7 1_555 1_555
C1_4 N1_4 1_555 1_555
H1_4 C1_4 1_555 1_555
C2_4 C1_4 1_555 1_555
H2_4 C2_4 1_555 1_555
C3_4 C2_4 1_555 1_555
C4_4 C3_4 1_555 1_555
H3_4 C4_4 1_555 1_555
C5_4 N1_4 1_555 1_555
H4_4 C5_4 1_555 1_555
C6_4 C3_4 1_555 1_555
H5_4 C6_4 1_555 1_555
C7_4 C6_4 1_555 1_555
H6_4 C7_4 1_555 1_555
H8_4 C9_4 1_555 1_555
C10_4 C7_4 1_555 1_555
C11_4 C10_4 1_555 1_555
H9_4 C11_4 1_555 1_555
C12_4 N2_4 1_555 1_555
H10_4 C12_4 1_555 1_555
C20_4 N4_4 1_555 1_555
C21_4 C20_4 1_555 1_555
H18_4 C21_4 1_555 1_555
C24_4 N4_4 1_555 1_555
H20_4 C24_4 1_555 1_555
C49_4 O2_4 1_555 1_555
C50_4 C49_4 1_555 1_555
C51_4 C50_4 1_555 1_555
H41_4 C51_4 1_555 1_555
C52_4 C51_4 1_555 1_555
H42_4 C52_4 1_555 1_555
C53_4 S4_4 1_555 1_555
C54_4 C53_4 1_555 1_555
H43_4 C54_4 1_555 1_555
C55_4 C50_4 1_555 1_555
H44_4 C55_4 1_555 1_555
C56_4 S4_4 1_555 1_555
C57_4 C56_4 1_555 1_555
H45_4 C57_4 1_555 1_555
C58_4 C57_4 1_555 1_555
H46_4 C58_4 1_555 1_555
C59_4 C58_4 1_555 1_555
C60_4 C59_4 1_555 1_555
H47_4 C60_4 1_555 1_555
C61_4 C56_4 1_555 1_555
H48_4 C61_4 1_555 1_555
C62_4 C59_4 1_555 1_555
H49_4 C65_4 1_555 1_555
C66_4 C65_4 1_555 1_555
H50_4 C66_4 1_555 1_555
C67_4 S3_4 1_555 1_555
C70_4 S3_4 1_555 1_555
C71_4 C70_4 1_555 1_555
H53_4 C71_4 1_555 1_555
C72_4 C71_4 1_555 1_555
H54_4 C72_4 1_555 1_555
C73_4 C72_4 1_555 1_555
C74_4 C73_4 1_555 1_555
H55_4 C74_4 1_555 1_555
C75_4 C70_4 1_555 1_555
H56_4 C75_4 1_555 1_555
C76_4 C73_4 1_555 1_555
C77_4 O13_4 1_555 1_555
C78_4 C77_4 1_555 1_555
C79_4 C78_4 1_555 1_555
C80_4 C79_4 1_555 1_555
C81_4 S2_4 1_555 1_555
C82_4 C81_4 1_555 1_555
H59_4 C82_4 1_555 1_555
C83_4 C78_4 1_555 1_555
H60_4 C83_4 1_555 1_555
C84_4 S2_4 1_555 1_555
C85_4 C84_4 1_555 1_555
H61_4 C85_4 1_555 1_555
C86_4 C85_4 1_555 1_555
H62_4 C86_4 1_555 1_555
C87_4 C86_4 1_555 1_555
C88_4 C87_4 1_555 1_555
H63_4 C88_4 1_555 1_555
C89_4 C84_4 1_555 1_555
H64_4 C89_4 1_555 1_555
C90_4 C87_4 1_555 1_555
O14_4 C77_4 1_555 1_555
C4_4 C5_4 1_555 1_555
C9_4 C10_4 1_555 1_555
C11_4 C12_4 1_555 1_555
C21_4 C22_4 1_555 1_555
C52_4 C53_4 1_555 1_555
C54_4 C55_4 1_555 1_555
C60_4 C61_4 1_555 1_555
C66_4 C67_4 1_555 1_555
C74_4 C75_4 1_555 1_555
C80_4 C81_4 1_555 1_555
C82_4 C83_4 1_555 1_555
C88_4 C89_4 1_555 1_555
Cd12 O19_4 1_555 1_555
S1_4 O21_2 1_555 1_555
O19_4 C91_4 1_555 1_555
O20_4 Cd12 1_555 1_555
O22_4 S1_4 1_555 1_555
O32 C104_4 1_555 1_555
O34 C104_4 1_555 1_555
C91_4 O20_4 1_555 1_555
C92_4 C91_4 1_555 1_555
C93_4 C92_4 1_555 1_555
H65_4 C93_4 1_555 1_555
C94_4 C93_4 1_555 1_555
H66_4 C94_4 1_555 1_555
C95_4 S1_4 1_555 1_555
C96_4 C95_4 1_555 1_555
H67_2 C96_4 1_555 1_555
C97_4 C92_4 1_555 1_555
H68_4 C97_4 1_555 1_555
C98_4 S1_4 1_555 1_555
C99_4 C98_4 1_555 1_555
H69_4 C99_4 1_555 1_555
C100_4 C99_4 1_555 1_555
H70_4 C100_4 1_555 1_555
C101_4 C100_4 1_555 1_555
C102_4 C101_4 1_555 1_555
H71_4 C102_4 1_555 1_555
C103_4 C98_4 1_555 1_555
H72_4 C103_4 1_555 1_555
C104_4 C101_4 1_555 1_555
C94_4 C95_4 1_555 1_555
C96_4 C97_4 1_555 1_555
C102_4 C103_4 1_555 1_555
N10_2 C44_4 1_555 1_555
H33_4 C40_4 1_555 1_555
C43_4 C42_4 1_555 1_555
H36_4 C43_4 1_555 1_555
C44_4 H37_4 1_555 1_555
C45_4 C44_4 1_555 1_555
H38_4 C45_4 1_555 1_555
C46_4 C43_4 1_555 1_555
C47_4 C46_4 1_555 1_555
H39_4 C47_4 1_555 1_555
C48_4 N10_2 1_555 1_555
H40_4 C48_4 1_555 1_555
C40_4 C41_4 1_555 1_555
C45_4 C46_4 1_555 1_555
C47_4 C48_4 1_555 1_555
Cd8 O7_4 1_555 1_555
O7_4 C63_4 1_555 1_555
N5_4 Cd8 1_555 1_555
N7_4 Cd9 1_555 1_555
H7_4 C8_4 1_555 1_555
C25_4 N5_4 1_555 1_555
H21_4 C25_4 1_555 1_555
C26_4 C25_4 1_555 1_555
H22_4 C26_4 1_555 1_555
C27_4 C26_4 1_555 1_555
C28_4 C27_4 1_555 1_555
H23_4 C28_4 1_555 1_555
C29_4 N5_4 1_555 1_555
H24_4 C29_4 1_555 1_555
C30_4 C27_4 1_555 1_555
H25_4 C30_4 1_555 1_555
C31_4 C30_4 1_555 1_555
H26_4 C31_4 1_555 1_555
C32_4 N6_4 1_555 1_555
H27_4 C32_4 1_555 1_555
C33_4 C32_4 1_555 1_555
H28_4 C33_4 1_555 1_555
C34_4 C31_4 1_555 1_555
C35_4 C34_4 1_555 1_555
H29_4 C35_4 1_555 1_555
C36_4 N6_4 1_555 1_555
H30_4 C36_4 1_555 1_555
C37_4 N7_4 1_555 1_555
H31_4 C37_4 1_555 1_555
C38_4 C37_4 1_555 1_555
H32_4 C38_4 1_555 1_555
C39_4 C38_4 1_555 1_555
C64_4 C63_4 1_555 1_555
H51_4 C68_4 1_555 1_555
C69_4 C64_4 1_555 1_555
H52_4 C69_4 1_555 1_555
C28_4 C29_4 1_555 1_555
C33_4 C34_4 1_555 1_555
C35_4 C36_4 1_555 1_555
C68_4 C69_4 1_555 1_555

#END
