
###############################################################################
#
# This file contains modified crystal structure data generated from the
# MOF subset of the Cambridge Structural Database (CSD) v543 
# hosted by the Cambridge Crystallographic Data Centre (CCDC).
#
# This work is licensed under the Creative Commons
# Attribution-NonCommercial-ShareAlike 4.0 International License.
# To view a copy of this license, visit
# http://creativecommons.org/licenses/by-nc-sa/4.0/
# or send a letter to
# Creative Commons, PO Box 1866, Mountain View, CA 94042, USA.
#
# CIF created using the CSD Python API on 29 September 2022
# The structure has been converted into the P1 space group
# The structure has a 3D framework
# The original CSD entry NOWMOE is in the monoclinic crystal system
# The framework has been calculated to contain at least 10.0% void space
# The void calculation uses a probe of radius 1.32A, grid spacing 0.4
#
###############################################################################

data_NOWMOE
_chemical_formula_moiety         '(C208 H144 Cd8 N16 O46 S8)n'
_symmetry_cell_setting           triclinic
_symmetry_space_group_name_H-M   'P 1'
_symmetry_Int_Tables_number      1
_space_group_name_Hall           'P 1'
loop_
_symmetry_equiv_pos_site_id
_symmetry_equiv_pos_as_xyz
1 x,y,z
_cell_length_a                   16.343(3)
_cell_length_b                   21.819(4)
_cell_length_c                   16.734(3)
_cell_angle_alpha                90
_cell_angle_beta                 115.67(3)
_cell_angle_gamma                90
_cell_volume                     5378.21
loop_
_atom_site_label
_atom_site_type_symbol
_atom_site_fract_x
_atom_site_fract_y
_atom_site_fract_z
S2 S 0.02282(7) 0.94036(5) 0.69909(7)
O3 O 0.07550(16) 0.78596(10) 0.38036(14)
O9 O 0.10786(18) 0.92373(16) 0.77244(17)
H22 H 0.0099 0.8330 0.7876
C32 C 0.0091(2) 0.81994(13) 0.3691(2)
C33 C 0.0123(2) 0.85019(14) 0.4515(2)
C34 C 0.0737(2) 0.83013(17) 0.5345(2)
H25 H 0.1136 0.7984 0.5393
C35 C 0.0759(2) 0.85735(19) 0.6103(2)
H26 H 0.1157 0.8432 0.6662
C36 C 0.0182(2) 0.90555(16) 0.6017(2)
S3 S 0.12235(5) 0.45187(4) 0.18664(6)
O23 O 0.09000(16) 0.51181(10) 0.15110(16)
O24 O 0.20719(16) 0.44602(12) 0.26372(16)
C95 C 0.0374(2) 0.41763(14) 0.2109(2)
C96 C 0.0575(2) 0.36581(16) 0.2629(2)
H67 H 0.1150 0.3482 0.2842
H68 H 0.0040 0.3049 0.3179
C101 C 0.0563(2) 0.41019(15) 0.0166(2)
H70 H 0.0073 0.4362 0.0050
C102 C 0.1264(2) 0.40631(14) 0.1013(2)
C103 C 0.1999(2) 0.36848(16) 0.1201(2)
H71 H 0.2455 0.3655 0.1776
C104 C 0.2050(2) 0.33488(16) 0.0520(2)
H72 H 0.2555 0.3105 0.0634
Cd8 Cd 0.07456(2) 0.72804(2) 0.27094(2)
O19 O 0.07119(16) 0.29085(12) 0.82454(16)
O20 O 0.21667(15) 0.27637(9) 0.91016(15)
C98 C 0.1404(2) 0.29911(13) 0.8952(2)
C99 C 0.1352(2) 0.33757(13) 0.9672(2)
C100 C 0.0602(2) 0.37495(15) 0.9500(2)
H69 H 0.0127 0.3761 0.8934
Cd11 Cd 0.19407(2) 0.20752(2) 0.80117(2)
C18 C 0.6227(2) 0.00911(16) 0.0312(2)
C19 C 0.6360(3) 0.06696(15) 0.0174(2)
N4 N 0.67776(19) 0.21369(12) 0.19962(18)
C20 C 0.6853(3) 0.15544(15) 0.2252(2)
H17 H 0.6993 0.1473 0.2843
C21 C 0.6736(3) 0.10650(15) 0.1696(2)
H18 H 0.6800 0.0667 0.1913
C22 C 0.6523(2) 0.11676(15) 0.0811(2)
C23 C 0.6458(3) 0.17767(16) 0.0548(3)
C24 C 0.6588(3) 0.22396(16) 0.1150(2)
H20 H 0.6542 0.2643 0.0957
Cd12 Cd 0.69407(2) 0.29248(2) 0.30117(2)
H12 H 0.5854 0.8938 0.0458
H15 H 0.6237 0.9999 0.0859
Cd1 Cd 0.57456(2) 0.77196(2) 0.77094(2)
Cd2 Cd 0.30593(2) 0.70752(2) 0.69883(2)
O1 O 0.73873(16) 0.78178(10) 0.81646(15)
O2 O 0.63977(14) 0.83201(10) 0.69936(14)
O4 O 0.94339(15) 0.83050(10) 0.29649(14)
O5 O 0.14564(17) 0.70347(11) 0.67077(17)
O6 O 0.24423(17) 0.63822(12) 0.76287(18)
N1 N 0.57694(18) 0.69194(11) 0.68222(17)
C1 C 0.5718(2) 0.70188(14) 0.6012(2)
H1 H 0.5744 0.7421 0.5838
C2 C 0.5628(2) 0.65534(14) 0.5424(2)
H2 H 0.5592 0.6644 0.4866
C3 C 0.5592(2) 0.59478(13) 0.5663(2)
C4 C 0.5704(2) 0.58460(14) 0.6525(2)
H3 H 0.5733 0.5448 0.6734
C5 C 0.5770(2) 0.63349(14) 0.7066(2)
H4 H 0.5818 0.6256 0.7631
C6 C 0.5322(2) 0.54470(13) 0.4989(2)
H5 H 0.5426 0.5566 0.4475
C7 C 0.5689(2) 0.47947(13) 0.5311(2)
H6 H 0.6020 0.4788 0.5959
N2 N 0.68802(17) 0.36631(11) 0.39986(17)
C8 C 0.6609(2) 0.42311(14) 0.3712(2)
H7 H 0.6633 0.4360 0.3193
C9 C 0.6293(2) 0.46374(14) 0.4146(2)
H8 H 0.6131 0.5033 0.3928
C10 C 0.6218(2) 0.44582(13) 0.49026(19)
C11 C 0.6566(2) 0.38817(14) 0.5238(2)
H9 H 0.6584 0.3753 0.5775
C12 C 0.6883(2) 0.35039(14) 0.4779(2)
H10 H 0.7109 0.3121 0.5016
N3 N 0.57871(18) 0.85658(12) 0.85727(17)
C13 C 0.5753(2) 0.85103(15) 0.9355(2)
H11 H 0.5636 0.8126 0.9523
C14 C 0.5885(2) 0.89977(15) 0.9921(2)
C15 C 0.6062(2) 0.95732(15) 0.9695(2)
C16 C 0.6100(3) 0.96287(15) 0.8885(2)
C17 C 0.5956(3) 0.91240(15) 0.8350(2)
H14 H 0.5977 0.9173 0.7807
C25 C 0.7195(2) 0.81805(13) 0.7525(2)
C26 C 0.7956(2) 0.84753(14) 0.7388(2)
C27 C 0.8824(2) 0.82254(17) 0.7769(2)
H21 H 0.8937 0.7871 0.8109
C28 C 0.9522(2) 0.85036(18) 0.7641(2)
C29 C 0.9346(2) 0.90424(16) 0.7161(2)
C30 C 0.8494(3) 0.93009(17) 0.6795(3)
H23 H 0.8390 0.9666 0.6479
C31 C 0.7791(2) 0.90141(15) 0.6902(2)
H24 H 0.7210 0.9182 0.6649
C37 C 0.9573(3) 0.92648(16) 0.5197(2)
H27 H 0.9192 0.9593 0.5152
C38 C 0.9534(2) 0.89800(15) 0.4442(2)
H28 H 0.9112 0.9109 0.3886
C39 C 0.1662(2) 0.66087(16) 0.7251(2)
C40 C 0.0939(2) 0.63349(15) 0.7478(2)
C41 C 0.1124(2) 0.58114(17) 0.7999(3)
H29 H 0.1695 0.5632 0.8210
C42 C 0.0472(2) 0.55553(17) 0.8208(3)
H30 H 0.0600 0.5206 0.8559
C45 C 0.0089(2) 0.65991(16) 0.7168(2)
N5 N 0.42306(18) 0.30806(11) 0.31778(17)
C53 C 0.4282(2) 0.29812(14) 0.3988(2)
H37 H 0.4256 0.2579 0.4162
C54 C 0.4372(2) 0.34466(14) 0.4576(2)
H38 H 0.4408 0.3356 0.5134
C55 C 0.4408(2) 0.40522(13) 0.4337(2)
C56 C 0.4296(2) 0.41540(14) 0.3475(2)
H39 H 0.4267 0.4552 0.3266
C57 C 0.4230(2) 0.36651(14) 0.2934(2)
H40 H 0.4182 0.3744 0.2369
C58 C 0.4678(2) 0.45530(13) 0.5011(2)
H41 H 0.4574 0.4434 0.5525
C59 C 0.4311(2) 0.52053(13) 0.4689(2)
H42 H 0.3980 0.5212 0.4041
N6 N 0.31198(17) 0.63369(11) 0.60014(17)
C60 C 0.3391(2) 0.57689(14) 0.6288(2)
H43 H 0.3367 0.5640 0.6807
C61 C 0.3707(2) 0.53626(14) 0.5854(2)
H44 H 0.3869 0.4967 0.6072
C62 C 0.3782(2) 0.55418(13) 0.50974(19)
C63 C 0.3434(2) 0.61183(14) 0.4762(2)
H45 H 0.3416 0.6247 0.4225
C64 C 0.3117(2) 0.64961(14) 0.5221(2)
H46 H 0.2891 0.6879 0.4984
Cd3 Cd 0.42544(2) 0.22804(2) 0.22906(2)
O13 O 0.26127(16) 0.21822(10) 0.18354(15)
O14 O 0.36023(14) 0.16799(10) 0.30064(14)
O16 O 0.05661(15) 0.16950(10) 0.70351(14)
O17 O 0.85436(17) 0.29653(11) 0.32923(17)
O18 O 0.75577(17) 0.36178(12) 0.23713(18)
N7 N 0.42129(18) 0.14342(12) 0.14273(17)
C65 C 0.4247(2) 0.14897(15) 0.0645(2)
H47 H 0.4364 0.1874 0.0477
C66 C 0.4115(2) 0.10023(15) 0.0079(2)
C67 C 0.3938(2) 0.04268(15) 0.0305(2)
C68 C 0.3900(3) 0.03713(15) 0.1115(2)
C69 C 0.4044(3) 0.08760(15) 0.1650(2)
H50 H 0.4023 0.0827 0.2193
C77 C 0.2805(2) 0.18195(13) 0.2475(2)
C78 C 0.2044(2) 0.15247(14) 0.2612(2)
C79 C 0.1176(2) 0.17746(17) 0.2231(2)
H57 H 0.1063 0.2129 0.1891
C80 C 0.0478(2) 0.14964(18) 0.2359(2)
C81 C 0.0654(2) 0.09576(16) 0.2839(2)
C82 C 0.1506(3) 0.06991(17) 0.3205(3)
H59 H 0.1610 0.0334 0.3521
C83 C 0.2209(2) 0.09859(15) 0.3098(2)
H60 H 0.2790 0.0818 0.3351
C89 C 0.0427(3) 0.07352(16) 0.4803(2)
H63 H 0.0808 0.0407 0.4848
C90 C 0.0466(2) 0.10200(15) 0.5558(2)
H64 H 0.0888 0.0891 0.6114
C91 C 0.8338(2) 0.33913(16) 0.2749(2)
C92 C 0.9061(2) 0.36651(15) 0.2522(2)
C93 C 0.8876(2) 0.41886(17) 0.2001(3)
H65 H 0.8305 0.4368 0.1790
C94 C 0.9528(2) 0.44447(17) 0.1792(3)
H66 H 0.9400 0.4794 0.1441
C97 C 0.9911(2) 0.34009(16) 0.2832(2)
Cd14 Cd 0.80593(2) 0.79248(2) 0.19883(2)
O25 O 0.42450(16) 0.28596(10) 0.11964(14)
O26 O 0.57550(16) 0.71404(10) 0.88036(14)
O27 O 0.55661(15) 0.33050(10) 0.20351(14)
O28 O 0.44339(15) 0.66950(10) 0.79649(14)
O29 O 0.57119(16) 0.20915(12) 0.32454(16)
O30 O 0.42881(16) 0.79085(12) 0.67546(16)
O31 O 0.71667(15) 0.22363(9) 0.41016(15)
O32 O 0.28333(15) 0.77637(9) 0.58984(15)
N10 N 0.32224(19) 0.78631(12) 0.80038(18)
H48 H 0.4146 0.1062 0.9542
H51 H 0.3763 0.0001 0.9141
Cd6 Cd 0.92544(2) 0.27196(2) 0.72906(2)
C70 C 0.3773(2) 0.99089(16) 0.9688(2)
C71 C 0.3640(3) 0.93304(15) 0.9826(2)
C72 C 0.3147(3) 0.84456(15) 0.7748(2)
H53 H 0.3007 0.8527 0.7157
C73 C 0.3264(3) 0.89350(15) 0.8304(2)
H54 H 0.3200 0.9333 0.8087
C74 C 0.3477(2) 0.88324(15) 0.9189(2)
C75 C 0.3542(3) 0.82233(16) 0.9452(3)
C76 C 0.3412(3) 0.77604(16) 0.8850(2)
H56 H 0.3458 0.7357 0.9043
O7 O 0.92881(16) 0.70915(12) 0.17546(16)
O8 O 0.78333(15) 0.72363(9) 0.08984(15)
C46 C 0.8596(2) 0.70089(13) 0.1048(2)
C47 C 0.8648(2) 0.66243(13) 0.0328(2)
C48 C 0.9398(2) 0.62505(15) 0.0500(2)
H33 H 0.9873 0.6239 0.1066
S1 S 0.87765(5) 0.54813(4) 0.81336(6)
O11 O 0.91000(16) 0.48819(10) 0.84890(16)
O12 O 0.79281(16) 0.55398(12) 0.73628(16)
C43 C 0.9626(2) 0.58237(14) 0.7891(2)
C44 C 0.9425(2) 0.63419(16) 0.7371(2)
H31 H 0.8850 0.6518 0.7158
H32 H 0.9960 0.6951 0.6821
C49 C 0.9437(2) 0.58981(15) 0.9834(2)
H34 H 0.9927 0.5638 0.9950
C50 C 0.8736(2) 0.59369(14) 0.8987(2)
C51 C 0.8001(2) 0.63152(16) 0.8799(2)
H35 H 0.7545 0.6345 0.8224
C52 C 0.7950(2) 0.66512(16) 0.9480(2)
H36 H 0.7445 0.6895 0.9366
S4 S 0.97718(7) 0.05964(5) 0.30091(7)
O15 O 0.92450(16) 0.21404(10) 0.61964(14)
O21 O 0.89214(18) 0.07627(16) 0.22756(17)
H58 H 0.9901 0.1670 0.2124
C84 C 0.9909(2) 0.18006(13) 0.6309(2)
C85 C 0.9877(2) 0.14981(14) 0.5485(2)
C86 C 0.9263(2) 0.16987(17) 0.4655(2)
H61 H 0.8864 0.2016 0.4607
C87 C 0.9241(2) 0.14265(19) 0.3897(2)
H62 H 0.8843 0.1568 0.3338
C88 C 0.9818(2) 0.09445(16) 0.3983(2)
S1_2 S 0.62235(5) 0.04813(4) 0.68664(6)
O5_2 O 0.35436(17) 0.20347(11) 0.82923(17)
O6_2 O 0.25577(17) 0.13822(12) 0.73713(18)
O12_2 O 0.70719(16) 0.05398(12) 0.76372(16)
C39_2 C 0.3338(2) 0.16087(16) 0.7749(2)
C40_2 C 0.4061(2) 0.13349(15) 0.7522(2)
C41_2 C 0.3876(2) 0.08114(17) 0.7001(3)
H29_2 H 0.3305 0.0632 0.6790
C42_2 C 0.4528(2) 0.05553(17) 0.6792(3)
H30_2 H 0.4400 0.0206 0.6441
C43_2 C 0.5374(2) 0.08237(14) 0.7109(2)
C44_2 C 0.5575(2) 0.13419(16) 0.7629(2)
H31_2 H 0.6150 0.1518 0.7842
C45_2 C 0.4911(2) 0.15991(16) 0.7832(2)
H32_2 H 0.5040 0.1951 0.8179
C46_2 C 0.6404(2) 0.20089(13) 0.3952(2)
C47_2 C 0.6352(2) 0.16243(13) 0.4672(2)
C48_2 C 0.5602(2) 0.12505(15) 0.4500(2)
H33_2 H 0.5127 0.1239 0.3934
C49_2 C 0.5563(2) 0.08981(15) 0.5166(2)
H34_2 H 0.5073 0.0638 0.5050
C50_2 C 0.6264(2) 0.09369(14) 0.6013(2)
C51_2 C 0.6999(2) 0.13152(16) 0.6201(2)
H35_2 H 0.7455 0.1345 0.6776
C52_2 C 0.7050(2) 0.16512(16) 0.5520(2)
H36_2 H 0.7555 0.1895 0.5634
N6_2 N 0.18802(17) 0.13369(11) 0.89986(17)
C60_2 C 0.1609(2) 0.07689(14) 0.8712(2)
H43_2 H 0.1633 0.0640 0.8193
C61_2 C 0.1293(2) 0.03626(14) 0.9146(2)
C62_2 C 0.1218(2) 0.05418(13) 0.99026(19)
C64_2 C 0.1883(2) 0.14961(14) 0.9779(2)
N10_2 N 0.17776(19) 0.28631(12) 0.69962(18)
N5_2 N 0.07694(18) 0.80806(11) 0.18222(17)
C53_2 C 0.0718(2) 0.79812(14) 0.1012(2)
H37_2 H 0.0744 0.7579 0.0838
C54_2 C 0.0628(2) 0.84466(14) 0.0424(2)
C55_2 C 0.0592(2) 0.90522(13) 0.0663(2)
C56_2 C 0.0704(2) 0.91540(14) 0.1525(2)
H39_2 H 0.0733 0.9552 0.1734
C57_2 C 0.0770(2) 0.86651(14) 0.2066(2)
H40_2 H 0.0818 0.8744 0.2631
S4_2 S 0.52282(7) 0.55964(5) 0.19909(7)
O13_2 O 0.23873(16) 0.71822(10) 0.31646(15)
O14_2 O 0.13977(14) 0.66799(10) 0.19936(14)
O21_2 O 0.60786(18) 0.57627(16) 0.27244(17)
O22 O 0.4988(2) 0.49625(12) 0.1809(2)
N7_2 N 0.07871(18) 0.64342(12) 0.35727(17)
C65_2 C 0.0753(2) 0.64897(15) 0.4355(2)
H47_2 H 0.0636 0.6874 0.4523
C66_2 C 0.0885(2) 0.60023(15) 0.4921(2)
H48_2 H 0.0854 0.6062 0.5458
C67_2 C 0.1062(2) 0.54268(15) 0.4695(2)
C68_2 C 0.1100(3) 0.53713(15) 0.3885(2)
H49 H 0.1223 0.4993 0.3705
C69_2 C 0.0956(3) 0.58760(15) 0.3350(2)
H50_2 H 0.0977 0.5827 0.2807
C70_2 C 0.1227(2) 0.49089(16) 0.5312(2)
H51_2 H 0.1237 0.5001 0.5859
C71_2 C 0.1360(3) 0.43304(15) 0.5174(2)
H52 H 0.1351 0.4231 0.4630
C72_2 C 0.1853(3) 0.34456(15) 0.7252(2)
H53_2 H 0.1993 0.3527 0.7843
C73_2 C 0.1736(3) 0.39350(15) 0.6696(2)
H54_2 H 0.1800 0.4333 0.6913
C74_2 C 0.1523(2) 0.38324(15) 0.5811(2)
C75_2 C 0.1458(3) 0.32233(16) 0.5548(3)
H55 H 0.1326 0.3128 0.4963
C76_2 C 0.1588(3) 0.27604(16) 0.6150(2)
H56_2 H 0.1542 0.2357 0.5957
C77_2 C 0.2195(2) 0.68195(13) 0.2525(2)
C78_2 C 0.2956(2) 0.65247(14) 0.2388(2)
C79_2 C 0.3824(2) 0.67746(17) 0.2769(2)
H57_2 H 0.3937 0.7129 0.3109
C80_2 C 0.4522(2) 0.64964(18) 0.2641(2)
H58_2 H 0.5099 0.6670 0.2876
C81_2 C 0.4346(2) 0.59576(16) 0.2161(2)
C82_2 C 0.3494(3) 0.56991(17) 0.1795(3)
H59_2 H 0.3390 0.5334 0.1479
C83_2 C 0.2791(2) 0.59859(15) 0.1902(2)
H60_2 H 0.2210 0.5818 0.1649
C86_2 C 0.5737(2) 0.66987(17) 0.0345(2)
H61_2 H 0.6136 0.7016 0.0393
C87_2 C 0.5759(2) 0.64265(19) 0.1103(2)
H62_2 H 0.6157 0.6568 0.1662
C88_2 C 0.5182(2) 0.59445(16) 0.1017(2)
C89_2 C 0.4573(3) 0.57352(16) 0.0197(2)
H63_2 H 0.4192 0.5407 0.0152
O11_2 O 0.59000(16) 0.98819(10) 0.65110(16)
H38_2 H 0.0592 0.8356 0.9866
C58_2 C 0.0322(2) 0.95530(13) 0.9989(2)
H41_2 H 0.0426 0.9434 0.9475
H44_2 H 0.1131 0.9967 0.8928
C84_2 C 0.5091(2) 0.68006(13) 0.8691(2)
C85_2 C 0.5123(2) 0.64981(14) 0.9515(2)
C90_2 C 0.4534(2) 0.60200(15) 0.9442(2)
H64_2 H 0.4112 0.5891 0.8886
H2_2 H 0.9408 0.1644 0.0134
C6_2 C 0.9678(2) 0.04470(13) 0.0011(2)
H5_2 H 0.9574 0.0566 0.0525
H8_2 H 0.8869 0.0033 0.1072
C32_2 C 0.4909(2) 0.31994(13) 0.1309(2)
C33_2 C 0.4877(2) 0.35019(14) 0.0485(2)
C38_2 C 0.5466(2) 0.39800(15) 0.0558(2)
H28_2 H 0.5888 0.4109 0.1114
O23_2 O 0.41000(16) 0.01181(10) 0.34890(16)
S2_2 S 0.47718(7) 0.44036(5) 0.80091(7)
O1_2 O 0.76127(16) 0.28178(10) 0.68354(15)
O2_2 O 0.86023(14) 0.33201(10) 0.80064(14)
O9_2 O 0.39214(18) 0.42373(16) 0.72756(17)
O10 O 0.5012(2) 0.50375(12) 0.8191(2)
N1_2 N 0.92306(18) 0.19194(11) 0.81778(17)
C1_2 C 0.9282(2) 0.20188(14) 0.8988(2)
H1_2 H 0.9256 0.2421 0.9162
C2_2 C 0.9372(2) 0.15534(14) 0.9576(2)
C3_2 C 0.9408(2) 0.09478(13) 0.9337(2)
C4_2 C 0.9296(2) 0.08460(14) 0.8475(2)
H3_2 H 0.9267 0.0448 0.8266
C5_2 C 0.9230(2) 0.13349(14) 0.7934(2)
H4_2 H 0.9182 0.1256 0.7369
N3_2 N 0.92129(18) 0.35658(12) 0.64273(17)
C13_2 C 0.9247(2) 0.35103(15) 0.5645(2)
H11_2 H 0.9364 0.3126 0.5477
C14_2 C 0.9115(2) 0.39977(15) 0.5079(2)
H12_2 H 0.9146 0.3938 0.4542
C15_2 C 0.8938(2) 0.45732(15) 0.5305(2)
C16_2 C 0.8900(3) 0.46287(15) 0.6115(2)
H13 H 0.8777 0.5007 0.6295
C17_2 C 0.9044(3) 0.41240(15) 0.6650(2)
H14_2 H 0.9023 0.4173 0.7193
C18_2 C 0.8773(2) 0.50911(16) 0.4688(2)
H15_2 H 0.8763 0.4999 0.4141
C19_2 C 0.8640(3) 0.56696(15) 0.4826(2)
H16 H 0.8649 0.5769 0.5370
N4_2 N 0.82224(19) 0.71369(12) 0.30038(18)
C20_2 C 0.8147(3) 0.65544(15) 0.2748(2)
H17_2 H 0.8007 0.6473 0.2157
C21_2 C 0.8264(3) 0.60650(15) 0.3304(2)
H18_2 H 0.8200 0.5667 0.3087
C22_2 C 0.8477(2) 0.61676(15) 0.4189(2)
C23_2 C 0.8542(3) 0.67767(16) 0.4452(3)
H19 H 0.8674 0.6872 0.5037
C24_2 C 0.8412(3) 0.72396(16) 0.3850(2)
H20_2 H 0.8458 0.7643 0.4043
C25_2 C 0.7805(2) 0.31805(13) 0.7475(2)
C26_2 C 0.7044(2) 0.34753(14) 0.7612(2)
C27_2 C 0.6176(2) 0.32254(17) 0.7231(2)
H21_2 H 0.6063 0.2871 0.6891
C28_2 C 0.5478(2) 0.35036(18) 0.7359(2)
H22_2 H 0.4901 0.3330 0.7124
C29_2 C 0.5654(2) 0.40424(16) 0.7839(2)
C30_2 C 0.6506(3) 0.43009(17) 0.8205(3)
H23_2 H 0.6610 0.4666 0.8521
C31_2 C 0.7209(2) 0.40141(15) 0.8098(2)
H24_2 H 0.7790 0.4182 0.8351
C34_2 C 0.4263(2) 0.33013(17) 0.9655(2)
H25_2 H 0.3864 0.2984 0.9607
C35_2 C 0.4241(2) 0.35735(19) 0.8897(2)
H26_2 H 0.3843 0.3432 0.8338
C36_2 C 0.4818(2) 0.40555(16) 0.8983(2)
C37_2 C 0.5427(3) 0.42648(16) 0.9803(2)
H27_2 H 0.5808 0.4593 0.9848
N2_2 N 0.81198(17) 0.86631(11) 0.10014(17)
C8_2 C 0.8391(2) 0.92311(14) 0.1288(2)
H7_2 H 0.8367 0.9360 0.1807
C9_2 C 0.8707(2) 0.96374(14) 0.0854(2)
C10_2 C 0.8782(2) 0.94582(13) 0.00974(19)
C12_2 C 0.8117(2) 0.85039(14) 0.0221(2)
S3_2 S 0.37765(5) 0.95187(4) 0.31336(6)
O17_2 O 0.64564(17) 0.79653(11) 0.17077(17)
O18_2 O 0.74423(17) 0.86178(12) 0.26287(18)
O24_2 O 0.29281(16) 0.94602(12) 0.23628(16)
C91_2 C 0.6662(2) 0.83913(16) 0.2251(2)
C92_2 C 0.5939(2) 0.86651(15) 0.2478(2)
C93_2 C 0.6124(2) 0.91886(17) 0.2999(3)
H65_2 H 0.6695 0.9368 0.3210
C94_2 C 0.5472(2) 0.94447(17) 0.3208(3)
H66_2 H 0.5600 0.9794 0.3559
C95_2 C 0.4626(2) 0.91763(14) 0.2891(2)
C96_2 C 0.4425(2) 0.86581(16) 0.2371(2)
H67_2 H 0.3850 0.8482 0.2158
C97_2 C 0.5089(2) 0.84009(16) 0.2168(2)
H68_2 H 0.4960 0.8049 0.1821
C98_2 C 0.3596(2) 0.79911(13) 0.6048(2)
C99_2 C 0.3648(2) 0.83757(13) 0.5328(2)
C100_2 C 0.4398(2) 0.87495(15) 0.5500(2)
H69_2 H 0.4873 0.8761 0.6066
C101_2 C 0.4437(2) 0.91019(15) 0.4834(2)
H70_2 H 0.4927 0.9362 0.4950
C102_2 C 0.3736(2) 0.90631(14) 0.3987(2)
C103_2 C 0.3001(2) 0.86848(16) 0.3799(2)
H71_2 H 0.2545 0.8655 0.3224
C104_2 C 0.2950(2) 0.83488(16) 0.4480(2)
H72_2 H 0.2445 0.8105 0.4366
O10_2 O 0.9988(2) 0.00375(12) 0.6809(2)
H13_2 H 0.6223 0.0007 0.8705
H16_2 H 0.6351 0.0769 0.9630
H19_2 H 0.6326 0.1872 0.9963
O22_2 O 0.0012(2) 0.99625(12) 0.3191(2)
H49_2 H 0.3777 0.9993 0.1295
H52_2 H 0.3649 0.9231 0.0370
H55_2 H 0.3674 0.8128 0.0037
C59_2 C 0.0689(2) 0.02053(13) 0.0311(2)
H42_2 H 0.1020 0.0212 0.0959
C63_2 C 0.1566(2) 0.11183(14) 0.0238(2)
H45_2 H 0.1584 0.1247 0.0775
H46_2 H 0.2109 0.1879 0.0016
C7_2 C 0.9311(2) 0.97947(13) 0.9689(2)
H6_2 H 0.8980 0.9788 0.9041
C11_2 C 0.8434(2) 0.88817(14) 0.9762(2)
H9_2 H 0.8416 0.8753 0.9225
H10_2 H 0.7891 0.8121 0.9984
loop_
_geom_bond_atom_site_label_1
_geom_bond_atom_site_label_2
_geom_bond_site_symmetry_1
_geom_bond_site_symmetry_2
S2 O9 1_555 1_555
O3 C32 1_555 1_555
C32 C33 1_555 1_555
C33 C34 1_555 1_555
C34 H25 1_555 1_555
C35 C34 1_555 1_555
H26 C35 1_555 1_555
C36 S2 1_555 1_555
S3 O23 1_555 1_555
O24 S3 1_555 1_555
C95 S3 1_555 1_555
C96 C95 1_555 1_555
H67 C96 1_555 1_555
H70 C101 1_555 1_555
C102 S3 1_555 1_555
C103 C102 1_555 1_555
H71 C103 1_555 1_555
H72 C104 1_555 1_555
Cd8 O3 1_555 1_555
C35 C36 1_555 1_555
C101 C102 1_555 1_555
C103 C104 1_555 1_555
O19 C98 1_555 1_555
O20 C98 1_555 1_555
C98 C99 1_555 1_555
C99 C100 1_555 1_555
C100 H69 1_555 1_555
Cd11 O20 1_555 1_555
C19 C18 1_555 1_555
N4 C20 1_555 1_555
C20 H17 1_555 1_555
C21 C20 1_555 1_555
H18 C21 1_555 1_555
C22 C19 1_555 1_555
C23 C22 1_555 1_555
C24 N4 1_555 1_555
H20 C24 1_555 1_555
Cd12 N4 1_555 1_555
C21 C22 1_555 1_555
C23 C24 1_555 1_555
Cd1 O1 1_555 1_555
Cd2 O5 1_555 1_555
O1 C25 1_555 1_555
O2 Cd1 1_555 1_555
O5 C39 1_555 1_555
O6 Cd2 1_555 1_555
N1 Cd1 1_555 1_555
C1 N1 1_555 1_555
H1 C1 1_555 1_555
C2 C1 1_555 1_555
H2 C2 1_555 1_555
C3 C2 1_555 1_555
C4 C3 1_555 1_555
H3 C4 1_555 1_555
C5 N1 1_555 1_555
H4 C5 1_555 1_555
C6 C3 1_555 1_555
H5 C6 1_555 1_555
C7 C6 1_555 1_555
H6 C7 1_555 1_555
N2 C8 1_555 1_555
C8 H7 1_555 1_555
C9 C8 1_555 1_555
H8 C9 1_555 1_555
C10 C7 1_555 1_555
C11 C10 1_555 1_555
H9 C11 1_555 1_555
C12 N2 1_555 1_555
H10 C12 1_555 1_555
N3 Cd1 1_555 1_555
C13 N3 1_555 1_555
H11 C13 1_555 1_555
C14 C13 1_555 1_555
C15 C14 1_555 1_555
C16 C15 1_555 1_555
C17 N3 1_555 1_555
H14 C17 1_555 1_555
C25 O2 1_555 1_555
C26 C25 1_555 1_555
C27 C26 1_555 1_555
H21 C27 1_555 1_555
C28 C27 1_555 1_555
C30 C29 1_555 1_555
H23 C30 1_555 1_555
C31 C26 1_555 1_555
H24 C31 1_555 1_555
H27 C37 1_555 1_555
H28 C38 1_555 1_555
C39 O6 1_555 1_555
C40 C39 1_555 1_555
C41 C40 1_555 1_555
H29 C41 1_555 1_555
C42 C41 1_555 1_555
H30 C42 1_555 1_555
C45 C40 1_555 1_555
N5 C53 1_555 1_555
C53 H37 1_555 1_555
C54 C53 1_555 1_555
H38 C54 1_555 1_555
C55 C54 1_555 1_555
C56 C55 1_555 1_555
H39 C56 1_555 1_555
C57 N5 1_555 1_555
H40 C57 1_555 1_555
C58 C7 1_555 1_555
H41 C58 1_555 1_555
C59 C6 1_555 1_555
H42 C59 1_555 1_555
N6 Cd2 1_555 1_555
C60 N6 1_555 1_555
H43 C60 1_555 1_555
C61 C60 1_555 1_555
H44 C61 1_555 1_555
C62 C59 1_555 1_555
C63 C62 1_555 1_555
H45 C63 1_555 1_555
C64 N6 1_555 1_555
H46 C64 1_555 1_555
Cd3 N5 1_555 1_555
Cd12 N2 1_555 1_555
O13 Cd3 1_555 1_555
O14 Cd3 1_555 1_555
O17 Cd12 1_555 1_555
O18 Cd12 1_555 1_555
N7 Cd3 1_555 1_555
C65 N7 1_555 1_555
H47 C65 1_555 1_555
C66 C65 1_555 1_555
C67 C66 1_555 1_555
C68 C67 1_555 1_555
C69 N7 1_555 1_555
H50 C69 1_555 1_555
C77 O13 1_555 1_555
C78 C77 1_555 1_555
C79 C78 1_555 1_555
H57 C79 1_555 1_555
C80 C79 1_555 1_555
C82 C81 1_555 1_555
H59 C82 1_555 1_555
C83 C78 1_555 1_555
H60 C83 1_555 1_555
H63 C89 1_555 1_555
H64 C90 1_555 1_555
C91 O17 1_555 1_555
C92 C91 1_555 1_555
C93 C92 1_555 1_555
H65 C93 1_555 1_555
C94 C93 1_555 1_555
H66 C94 1_555 1_555
C97 C92 1_555 1_555
Cd11 O16 1_555 1_555
Cd14 O4 1_555 1_555
O25 Cd3 1_555 1_555
O26 Cd1 1_555 1_555
O27 Cd12 1_555 1_555
O28 Cd2 1_555 1_555
O29 Cd3 1_555 1_555
O30 Cd1 1_555 1_555
O31 Cd12 1_555 1_555
O32 Cd2 1_555 1_555
N10 Cd2 1_555 1_555
C4 C5 1_555 1_555
C9 C10 1_555 1_555
C11 C12 1_555 1_555
C16 C17 1_555 1_555
C28 C29 1_555 1_555
C30 C31 1_555 1_555
C37 C38 1_555 1_555
C55 C58 1_555 1_555
C56 C57 1_555 1_555
C58 C59 1_555 1_555
C61 C62 1_555 1_555
C63 C64 1_555 1_555
O14 C77 1_555 1_555
O18 C91 1_555 1_555
C68 C69 1_555 1_555
C80 C81 1_555 1_555
C82 C83 1_555 1_555
C89 C90 1_555 1_555
C71 C70 1_555 1_555
N10 C72 1_555 1_555
C72 H53 1_555 1_555
C73 C72 1_555 1_555
H54 C73 1_555 1_555
C74 C71 1_555 1_555
C75 C74 1_555 1_555
C76 N10 1_555 1_555
H56 C76 1_555 1_555
C73 C74 1_555 1_555
C75 C76 1_555 1_555
O7 C46 1_555 1_555
O8 C46 1_555 1_555
C46 C47 1_555 1_555
C47 C48 1_555 1_555
C48 H33 1_555 1_555
Cd14 O8 1_555 1_555
S1 O11 1_555 1_555
O12 S1 1_555 1_555
C43 S1 1_555 1_555
C44 C43 1_555 1_555
H31 C44 1_555 1_555
H34 C49 1_555 1_555
C50 S1 1_555 1_555
C51 C50 1_555 1_555
H35 C51 1_555 1_555
H36 C52 1_555 1_555
S4 O21 1_555 1_555
O15 C84 1_555 1_555
C84 C85 1_555 1_555
C85 C86 1_555 1_555
C86 H61 1_555 1_555
C87 C86 1_555 1_555
H62 C87 1_555 1_555
C88 S4 1_555 1_555
Cd6 O15 1_555 1_555
C49 C50 1_555 1_555
C51 C52 1_555 1_555
C87 C88 1_555 1_555
Cd11 O5_2 1_555 1_555
O5_2 C39_2 1_555 1_555
O6_2 Cd11 1_555 1_555
O29 C46_2 1_555 1_555
O31 C46_2 1_555 1_555
O12_2 S1_2 1_555 1_555
C39_2 O6_2 1_555 1_555
C40_2 C39_2 1_555 1_555
C41_2 C40_2 1_555 1_555
H29_2 C41_2 1_555 1_555
C42_2 C41_2 1_555 1_555
H30_2 C42_2 1_555 1_555
C43_2 S1_2 1_555 1_555
C44_2 C43_2 1_555 1_555
H31_2 C44_2 1_555 1_555
C45_2 C40_2 1_555 1_555
H32_2 C45_2 1_555 1_555
C46_2 C47_2 1_555 1_555
C47_2 C48_2 1_555 1_555
C48_2 H33_2 1_555 1_555
C49_2 C48_2 1_555 1_555
H34_2 C49_2 1_555 1_555
C50_2 S1_2 1_555 1_555
C51_2 C50_2 1_555 1_555
H35_2 C51_2 1_555 1_555
C52_2 C47_2 1_555 1_555
H36_2 C52_2 1_555 1_555
N6_2 Cd11 1_555 1_555
C60_2 N6_2 1_555 1_555
H43_2 C60_2 1_555 1_555
C61_2 C60_2 1_555 1_555
C64_2 N6_2 1_555 1_555
N10_2 Cd11 1_555 1_555
C42_2 C43_2 1_555 1_555
C44_2 C45_2 1_555 1_555
C49_2 C50_2 1_555 1_555
C51_2 C52_2 1_555 1_555
C61_2 C62_2 1_555 1_555
N5_2 C53_2 1_555 1_555
C53_2 H37_2 1_555 1_555
C54_2 C53_2 1_555 1_555
C55_2 C54_2 1_555 1_555
C56_2 C55_2 1_555 1_555
H39_2 C56_2 1_555 1_555
C57_2 N5_2 1_555 1_555
H40_2 C57_2 1_555 1_555
Cd8 N5_2 1_555 1_555
S4_2 O21_2 1_555 1_555
O13_2 Cd8 1_555 1_555
O14_2 Cd8 1_555 1_555
O22 S4_2 1_555 1_555
N7_2 Cd8 1_555 1_555
C65_2 N7_2 1_555 1_555
H47_2 C65_2 1_555 1_555
C66_2 C65_2 1_555 1_555
H48_2 C66_2 1_555 1_555
C67_2 C66_2 1_555 1_555
C68_2 C67_2 1_555 1_555
H49 C68_2 1_555 1_555
C69_2 N7_2 1_555 1_555
H50_2 C69_2 1_555 1_555
C70_2 C67_2 1_555 1_555
H51_2 C70_2 1_555 1_555
C71_2 C70_2 1_555 1_555
H52 C71_2 1_555 1_555
N10_2 C72_2 1_555 1_555
C72_2 H53_2 1_555 1_555
C73_2 C72_2 1_555 1_555
H54_2 C73_2 1_555 1_555
C74_2 C71_2 1_555 1_555
C75_2 C74_2 1_555 1_555
H55 C75_2 1_555 1_555
C76_2 N10_2 1_555 1_555
H56_2 C76_2 1_555 1_555
C77_2 O13_2 1_555 1_555
C78_2 C77_2 1_555 1_555
C79_2 C78_2 1_555 1_555
H57_2 C79_2 1_555 1_555
C80_2 C79_2 1_555 1_555
H58_2 C80_2 1_555 1_555
C81_2 S4_2 1_555 1_555
C82_2 C81_2 1_555 1_555
H59_2 C82_2 1_555 1_555
C83_2 C78_2 1_555 1_555
H60_2 C83_2 1_555 1_555
C86_2 H61_2 1_555 1_555
C87_2 C86_2 1_555 1_555
H62_2 C87_2 1_555 1_555
C88_2 S4_2 1_555 1_555
C89_2 C88_2 1_555 1_555
H63_2 C89_2 1_555 1_555
C56_2 C57_2 1_555 1_555
O14_2 C77_2 1_555 1_555
C68_2 C69_2 1_555 1_555
C73_2 C74_2 1_555 1_555
C75_2 C76_2 1_555 1_555
C80_2 C81_2 1_555 1_555
C82_2 C83_2 1_555 1_555
C87_2 C88_2 1_555 1_555
H41_2 C58_2 1_555 1_555
O26 C84_2 1_555 1_555
O28 C84_2 1_555 1_555
C84_2 C85_2 1_555 1_555
C90_2 C85_2 1_555 1_555
H64_2 C90_2 1_555 1_555
O25 C32_2 1_555 1_555
O27 C32_2 1_555 1_555
H5_2 C6_2 1_555 1_555
C32_2 C33_2 1_555 1_555
C38_2 C33_2 1_555 1_555
H28_2 C38_2 1_555 1_555
Cd6 O1_2 1_555 1_555
S2_2 O9_2 1_555 1_555
O1_2 C25_2 1_555 1_555
O2_2 Cd6 1_555 1_555
O10 S2_2 1_555 1_555
N1_2 Cd6 1_555 1_555
C1_2 N1_2 1_555 1_555
H1_2 C1_2 1_555 1_555
C2_2 C1_2 1_555 1_555
C3_2 C2_2 1_555 1_555
C4_2 C3_2 1_555 1_555
H3_2 C4_2 1_555 1_555
C5_2 N1_2 1_555 1_555
H4_2 C5_2 1_555 1_555
N3_2 Cd6 1_555 1_555
C13_2 N3_2 1_555 1_555
H11_2 C13_2 1_555 1_555
C14_2 C13_2 1_555 1_555
H12_2 C14_2 1_555 1_555
C15_2 C14_2 1_555 1_555
C16_2 C15_2 1_555 1_555
H13 C16_2 1_555 1_555
C17_2 N3_2 1_555 1_555
H14_2 C17_2 1_555 1_555
C18_2 C15_2 1_555 1_555
H15_2 C18_2 1_555 1_555
C19_2 C18_2 1_555 1_555
H16 C19_2 1_555 1_555
N4_2 C20_2 1_555 1_555
C20_2 H17_2 1_555 1_555
C21_2 C20_2 1_555 1_555
H18_2 C21_2 1_555 1_555
C22_2 C19_2 1_555 1_555
C23_2 C22_2 1_555 1_555
H19 C23_2 1_555 1_555
C24_2 N4_2 1_555 1_555
H20_2 C24_2 1_555 1_555
C25_2 O2_2 1_555 1_555
C26_2 C25_2 1_555 1_555
C27_2 C26_2 1_555 1_555
H21_2 C27_2 1_555 1_555
C28_2 C27_2 1_555 1_555
H22_2 C28_2 1_555 1_555
C29_2 S2_2 1_555 1_555
C30_2 C29_2 1_555 1_555
H23_2 C30_2 1_555 1_555
C31_2 C26_2 1_555 1_555
H24_2 C31_2 1_555 1_555
C34_2 H25_2 1_555 1_555
C35_2 C34_2 1_555 1_555
H26_2 C35_2 1_555 1_555
C36_2 S2_2 1_555 1_555
C37_2 C36_2 1_555 1_555
H27_2 C37_2 1_555 1_555
Cd14 N4_2 1_555 1_555
C4_2 C5_2 1_555 1_555
C16_2 C17_2 1_555 1_555
C21_2 C22_2 1_555 1_555
C23_2 C24_2 1_555 1_555
C28_2 C29_2 1_555 1_555
C30_2 C31_2 1_555 1_555
C35_2 C36_2 1_555 1_555
N2_2 C8_2 1_555 1_555
C8_2 H7_2 1_555 1_555
C9_2 C8_2 1_555 1_555
C12_2 N2_2 1_555 1_555
Cd14 N2_2 1_555 1_555
O17_2 Cd14 1_555 1_555
O18_2 Cd14 1_555 1_555
O30 C98_2 1_555 1_555
O32 C98_2 1_555 1_555
O24_2 S3_2 1_555 1_555
C91_2 O17_2 1_555 1_555
C92_2 C91_2 1_555 1_555
C93_2 C92_2 1_555 1_555
H65_2 C93_2 1_555 1_555
C94_2 C93_2 1_555 1_555
H66_2 C94_2 1_555 1_555
C95_2 S3_2 1_555 1_555
C96_2 C95_2 1_555 1_555
H67_2 C96_2 1_555 1_555
C97_2 C92_2 1_555 1_555
H68_2 C97_2 1_555 1_555
C98_2 C99_2 1_555 1_555
C99_2 C100_2 1_555 1_555
C100_2 H69_2 1_555 1_555
C101_2 C100_2 1_555 1_555
H70_2 C101_2 1_555 1_555
C102_2 S3_2 1_555 1_555
C103_2 C102_2 1_555 1_555
H71_2 C103_2 1_555 1_555
C104_2 C99_2 1_555 1_555
H72_2 C104_2 1_555 1_555
C9_2 C10_2 1_555 1_555
O18_2 C91_2 1_555 1_555
C94_2 C95_2 1_555 1_555
C96_2 C97_2 1_555 1_555
C101_2 C102_2 1_555 1_555
C103_2 C104_2 1_555 1_555
H42_2 C59_2 1_555 1_555
H45_2 C63_2 1_555 1_555
H6_2 C7_2 1_555 1_555
H9_2 C11_2 1_555 1_555

#END
