
###############################################################################
#
# This file contains modified crystal structure data generated from the
# MOF subset of the Cambridge Structural Database (CSD) v543 
# hosted by the Cambridge Crystallographic Data Centre (CCDC).
#
# This work is licensed under the Creative Commons
# Attribution-NonCommercial-ShareAlike 4.0 International License.
# To view a copy of this license, visit
# http://creativecommons.org/licenses/by-nc-sa/4.0/
# or send a letter to
# Creative Commons, PO Box 1866, Mountain View, CA 94042, USA.
#
# CIF created using the CSD Python API on 29 September 2022
# The structure has been converted into the P1 space group
# The structure has a 3D framework
# The original CSD entry NOWNAR is in the monoclinic crystal system
# The framework has been calculated to contain at least 10.0% void space
# The void calculation uses a probe of radius 1.32A, grid spacing 0.4
#
###############################################################################

data_NOWNAR
_chemical_formula_moiety         '(C416 H288 Cd18 N32 O94 S16)n'
_symmetry_cell_setting           triclinic
_symmetry_space_group_name_H-M   'P 1'
_symmetry_Int_Tables_number      1
_space_group_name_Hall           'P 1'
loop_
_symmetry_equiv_pos_site_id
_symmetry_equiv_pos_as_xyz
1 x,y,z
_cell_length_a                   16.3069(9)
_cell_length_b                   43.538(2)
_cell_length_c                   16.7091(9)
_cell_angle_alpha                90
_cell_angle_beta                 114.747(3)
_cell_angle_gamma                90
_cell_volume                     10773.5
loop_
_atom_site_label
_atom_site_type_symbol
_atom_site_fract_x
_atom_site_fract_y
_atom_site_fract_z
O21 O 0.1467(17) 0.5915(5) 0.0114(16)
C96 C 0.0064(13) 0.5508(6) 0.0121(17)
H67 H 0.0672 0.5438 0.0385
S3 S 0.0658(7) 0.5982(2) 0.9403(7)
O9 O 0.0187(14) 0.3423(5) 0.5071(14)
O11 O 0.0015(13) 0.2790(5) 0.1146(12)
O22 O 0.0305(15) 0.6281(6) 0.9147(15)
O23 O 0.1520(11) 0.5184(3) 0.6440(9)
O24 O 0.0088(10) 0.5303(4) 0.5585(9)
H43 H 0.0594 0.0583 0.0391
H53 H 0.0309 0.3068 0.3995
H54 H 0.0396 0.2870 0.2723
C98 C 0.0702(16) 0.5803(5) 0.8479(14)
C99 C 0.0035(15) 0.5861(5) 0.7643(16)
C100 C 0.0048(13) 0.5704(5) 0.6926(13)
C101 C 0.0734(13) 0.5498(5) 0.7042(11)
C102 C 0.1403(12) 0.5443(5) 0.7878(11)
H71 H 0.1889 0.5308 0.7954
C103 C 0.1358(13) 0.5583(5) 0.8601(11)
H72 H 0.1775 0.5530 0.9180
C104 C 0.0753(18) 0.5318(5) 0.6273(14)
Cd7 Cd 0.13463(12) 0.48315(4) 0.53835(11)
Cd8 Cd -0.00002(17) 0.25015(5) 0.00618(15)
S2 S 0.0533(7) 0.1071(2) 0.9257(7)
O3 O 0.1388(16) 0.1053(5) 0.9994(16)
O4 O 0.0207(15) 0.1364(6) 0.8886(15)
O5 O 0.1471(14) 0.0201(5) 0.6450(12)
O6 O 0.0060(14) 0.0241(5) 0.5710(13)
C56 C 0.0602(15) 0.0839(5) 0.8430(13)
C59 C 0.0687(14) 0.0487(4) 0.7078(13)
C60 C 0.1446(15) 0.0531(8) 0.7857(17)
H47 H 0.2010 0.0451 0.7915
C61 C 0.1395(17) 0.0690(8) 0.8556(16)
H48 H 0.1900 0.0697 0.9114
C62 C 0.073(2) 0.0294(6) 0.6366(18)
Cd12 Cd 0.13314(15) 0.99150(6) 0.52876(14)
Cd4 Cd 0.63314(15) 0.50850(6) 0.02876(14)
O19 O 0.7989(13) 0.5108(5) 0.0657(12)
H27 H 0.6447 0.4340 0.0340
C97 C 0.9389(13) 0.5346(5) 0.0242(14)
H68 H 0.9531 0.5163 0.0584
O25 O 0.6471(14) 0.4799(5) 0.1450(12)
N10 N 0.6523(15) 0.5512(6) 0.1181(16)
Cd1 Cd 0.63463(12) 0.01685(4) 0.03835(11)
Cd2 Cd 0.49998(17) 0.24985(5) 0.50618(15)
Cd3 Cd 0.23202(17) 0.22326(6) 0.43984(15)
S1 S 0.9328(7) 0.3495(2) 0.4378(7)
S4 S 0.3046(6) 0.3519(2) 0.0677(7)
O1 O 0.7966(13) 0.0261(5) 0.0761(13)
O7 O 0.6681(13) 0.2606(5) 0.5512(13)
O8 O 0.5619(14) 0.2806(5) 0.4323(13)
O10 O 0.8838(15) 0.3763(5) 0.4018(14)
O12 O 0.8629(13) 0.2974(5) 0.0317(13)
O13 O 0.3515(13) 0.2608(5) 0.4093(13)
O14 O 0.2081(13) 0.2598(5) 0.3337(12)
O15 O 0.3364(15) 0.3806(5) 0.1069(15)
O20 O 0.6978(14) 0.5348(5) 0.9517(13)
N1 N 0.6173(14) 0.0522(4) 0.1331(13)
C1 C 0.6201(14) 0.0444(4) 0.2115(13)
H1 H 0.6459 0.0251 0.2356
C2 C 0.5878(17) 0.0627(5) 0.2602(13)
H2 H 0.5952 0.0563 0.3172
C3 C 0.5449(18) 0.0903(5) 0.2257(15)
C4 C 0.550(2) 0.1000(6) 0.1490(17)
H3 H 0.5308 0.1200 0.1265
C5 C 0.5842(16) 0.0803(5) 0.1054(13)
H4 H 0.5841 0.0872 0.0514
C6 C 0.493(2) 0.1064(6) 0.2686(18)
H5 H 0.5264 0.1063 0.3343
C7 C 0.453(2) 0.1378(6) 0.2340(18)
H6 H 0.4650 0.1441 0.1824
N2 N 0.5055(14) 0.2112(4) 0.4211(12)
C8 C 0.4996(13) 0.1819(5) 0.4408(14)
H7 H 0.5058 0.1776 0.4988
C9 C 0.4852(15) 0.1572(4) 0.3845(14)
H8 H 0.4822 0.1370 0.4044
C10 C 0.4752(19) 0.1621(5) 0.2989(15)
C11 C 0.481(2) 0.1924(5) 0.2768(15)
H9 H 0.4732 0.1973 0.2188
C12 C 0.4967(19) 0.2156(5) 0.3384(15)
H10 H 0.5017 0.2360 0.3208
N3 N 0.3581(14) 0.0202(4) 0.0537(12)
C13 C 0.3756(17) 0.0153(5) 0.1386(14)
C14 C 0.3811(19) 0.0384(4) 0.1977(13)
H12 H 0.3932 0.0332 0.2568
C15 C 0.3693(18) 0.0691(4) 0.1721(11)
C16 C 0.349(2) 0.0742(4) 0.0838(12)
H13 H 0.3362 0.0944 0.0602
C17 C 0.3480(16) 0.0497(4) 0.0304(11)
C18 C 0.3898(19) 0.0949(6) 0.2367(16)
H15 H 0.3779 0.0887 0.2884
C19 C 0.3504(18) 0.1267(6) 0.2038(15)
H16 H 0.3190 0.1266 0.1380
N4 N 0.2358(14) 0.1853(4) 0.3389(12)
C20 C 0.2609(15) 0.1563(5) 0.3649(13)
H17 H 0.2598 0.1498 0.4187
C21 C 0.2883(17) 0.1352(5) 0.3189(14)
H18 H 0.3039 0.1149 0.3409
C22 C 0.2929(18) 0.1437(5) 0.2408(13)
C23 C 0.263(2) 0.1731(5) 0.2123(15)
H19 H 0.2600 0.1798 0.1572
C24 C 0.2357(19) 0.1930(5) 0.2612(14)
H20 H 0.2165 0.2131 0.2388
N5 N 0.5020(14) 0.2897(4) 0.5919(13)
C25 C 0.5019(15) 0.2886(5) 0.6711(14)
H21 H 0.5009 0.2689 0.6955
C26 C 0.5030(17) 0.3142(5) 0.7204(15)
H22 H 0.5019 0.3115 0.7763
C27 C 0.506(2) 0.3435(5) 0.6903(16)
C28 C 0.504(2) 0.3452(5) 0.6068(17)
H23 H 0.5044 0.3645 0.5806
C29 C 0.503(2) 0.3182(5) 0.5624(16)
H24 H 0.5019 0.3201 0.5055
C30 C 0.517(3) 0.3684(11) 0.764(3)
H25 H 0.5151 0.3634 0.8189
C31 C 0.528(6) 0.3927(14) 0.746(3)
H26 H 0.5167 0.3986 0.6876
N6 N 0.6174(14) 0.4670(4) 0.9465(14)
C32 C 0.6231(15) 0.4377(5) 0.9725(15)
C33 C 0.6001(19) 0.4123(5) 0.918(2)
H28 H 0.6085 0.3922 0.9422
C34 C 0.565(3) 0.4163(8) 0.827(2)
C35 C 0.565(3) 0.4462(9) 0.7994(18)
H29 H 0.5486 0.4503 0.7388
C36 C 0.590(3) 0.4701(7) 0.8596(18)
H30 H 0.5867 0.4903 0.8372
N7 N 0.2451(15) 0.2644(7) 0.5374(17)
C37 C 0.270(2) 0.2602(7) 0.623(2)
H31 H 0.2776 0.2398 0.6453
C38 C 0.284(3) 0.2844(9) 0.6818(18)
H32 H 0.3009 0.2803 0.7425
C39 C 0.273(3) 0.3147(8) 0.652(2)
C40 C 0.246(3) 0.3193(7) 0.562(2)
H33 H 0.2350 0.3394 0.5374
C41 C 0.235(3) 0.2936(8) 0.509(2)
H34 H 0.2190 0.2970 0.4481
C42 C 0.292(4) 0.3422(10) 0.728(3)
H35 H 0.2892 0.3390 0.7831
C43 C 0.311(3) 0.3685(10) 0.702(3)
H36 H 0.3135 0.3719 0.6475
N8 N 0.3477(15) 0.4488(6) 0.8819(16)
C44 C 0.3421(17) 0.4201(6) 0.9094(17)
H37 H 0.3451 0.4180 0.9672
C45 C 0.332(2) 0.3936(6) 0.861(2)
H38 H 0.3284 0.3743 0.8859
C46 C 0.328(3) 0.3947(6) 0.777(2)
C47 C 0.333(3) 0.4240(7) 0.7465(18)
H39 H 0.3282 0.4268 0.6884
C48 C 0.344(2) 0.4493(6) 0.7999(18)
H40 H 0.3491 0.4688 0.7767
C49 C 0.7758(17) 0.0482(6) 0.0171(17)
C54 C 0.9987(13) 0.0653(5) 0.0136(13)
C55 C 0.9342(13) 0.0517(5) 0.0358(13)
H44 H 0.9515 0.0353 0.0774
C63 C 0.643(2) 0.2774(7) 0.487(2)
C64 C 0.7172(16) 0.2941(6) 0.4759(18)
C65 C 0.8075(17) 0.2856(6) 0.5153(18)
H49 H 0.8249 0.2674 0.5500
C66 C 0.8724(16) 0.3033(7) 0.504(2)
H50 H 0.9344 0.2979 0.5332
C67 C 0.8462(17) 0.3290(6) 0.451(2)
C68 C 0.7563(18) 0.3370(6) 0.4084(19)
H51 H 0.7390 0.3546 0.3713
C69 C 0.6911(15) 0.3192(6) 0.4200(19)
H52 H 0.6290 0.3243 0.3896
C70 C 0.928(2) 0.3365(7) 0.3338(15)
C71 C 0.991(2) 0.3138(7) 0.3427(15)
C72 C 0.9939(17) 0.3013(6) 0.2675(16)
C73 C 0.9296(16) 0.3100(5) 0.1856(14)
C74 C 0.8651(18) 0.3320(7) 0.1777(15)
H55 H 0.8244 0.3389 0.1210
C75 C 0.8600(18) 0.3438(6) 0.2526(17)
H56 H 0.8111 0.3566 0.2484
C76 C 0.9362(18) 0.2929(5) 0.1041(16)
C77 C 0.285(2) 0.2696(5) 0.3409(17)
C78 C 0.2889(17) 0.2900(6) 0.2789(16)
C79 C 0.3687(16) 0.3048(6) 0.2914(16)
H57 H 0.4218 0.3007 0.3431
C80 C 0.3724(16) 0.3254(6) 0.2296(16)
H58 H 0.4245 0.3379 0.2438
C81 C 0.3005(17) 0.3281(6) 0.1475(15)
C82 C 0.2215(18) 0.3128(8) 0.1349(18)
H59 H 0.1693 0.3155 0.0812
C83 C 0.217(2) 0.2932(7) 0.201(2)
H60 H 0.1630 0.2823 0.1897
C84 C 0.3878(15) 0.3361(5) 0.0392(18)
C85 C 0.4743(17) 0.3485(6) 0.0763(19)
H61 H 0.4892 0.3644 0.1187
C86 C 0.5383(15) 0.3369(6) 0.0498(17)
H62 H 0.5967 0.3459 0.0720
C91 C 0.7731(18) 0.5285(5) 0.9998(17)
C92 C 0.8510(13) 0.5453(5) 0.9862(14)
C93 C 0.8287(14) 0.5706(6) 0.9317(19)
H65 H 0.7672 0.5764 0.9008
C94 C 0.8963(15) 0.5876(5) 0.9218(19)
H66 H 0.8823 0.6061 0.8885
C95 C 0.9839(14) 0.5770(5) 0.9612(15)
H69 H 0.9574 0.6006 0.7562
H70 H 0.9584 0.5737 0.6354
Cd5 Cd 0.86537(12) 0.51685(4) 0.46165(11)
Cd8_2 Cd 0.99998(17) 0.25015(5) 0.00618(15)
Cd11 Cd 0.36686(15) 0.49150(6) 0.97124(14)
O26 O 0.4940(14) 0.5241(5) 0.9290(13)
O27 O 0.5015(13) 0.2210(5) 0.6146(12)
O28 O 0.3629(13) 0.2026(5) 0.5317(13)
O29 O 0.1638(13) 0.1871(5) 0.4997(12)
O30 O 0.0747(13) 0.2243(5) 0.4198(13)
O2 O 0.6971(14) 0.0546(5) 0.9800(12)
O16 O 0.2191(16) 0.3498(5) 0.9900(16)
O17 O 0.6638(13) 0.3129(5) 0.9997(12)
O18 O 0.5747(13) 0.2757(5) 0.9198(13)
H14 H 0.3393 0.0544 0.9718
C50 C 0.8445(12) 0.0613(4) 0.9983(11)
C51 C 0.8212(13) 0.0857(4) 0.9389(12)
H41 H 0.7605 0.0927 0.9132
C52 C 0.8850(13) 0.0997(4) 0.9169(13)
H42 H 0.8683 0.1163 0.8765
C53 C 0.9733(13) 0.0893(5) 0.9539(12)
C57 C 0.9866(15) 0.0822(5) 0.7628(14)
H45 H 0.9339 0.0939 0.7523
C58 C 0.9897(14) 0.0633(6) 0.6973(14)
H46 H 0.9367 0.0603 0.6446
C87 C 0.5189(17) 0.3127(6) 0.9923(19)
C88 C 0.4359(18) 0.2980(6) 0.964(2)
H63 H 0.4242 0.2800 0.9287
C89 C 0.3697(15) 0.3101(6) 0.9873(18)
H64 H 0.3123 0.3004 0.9676
C90 C 0.591(2) 0.2967(7) 0.969(2)
Cd9 Cd 0.73202(17) 0.27674(6) 0.93984(15)
Cd10 Cd 0.86686(15) 0.00850(6) 0.47124(14)
O32 O 0.4912(10) 0.0303(4) 0.9415(9)
H11 H 0.3848 0.9947 0.1595
O31 O 0.6520(11) 0.9816(3) 0.1440(9)
Cd6 Cd 0.36537(12) 0.98315(4) 0.96165(11)
N9 N 0.6419(14) 0.9798(4) 0.9463(12)
Cd3_2 Cd 0.26798(17) 0.72326(6) 0.06016(15)
S4_2 S 0.1954(6) 0.8519(2) 0.4323(7)
O13_2 O 0.1485(13) 0.7608(5) 0.0907(13)
O14_2 O 0.2919(13) 0.7598(5) 0.1663(12)
O15_2 O 0.1636(15) 0.8806(5) 0.3931(15)
O16_2 O 0.2809(16) 0.8498(5) 0.5100(16)
C6_2 C 0.007(2) 0.6064(6) 0.2314(18)
C7_2 C 0.047(2) 0.6378(6) 0.2660(18)
H6_2 H 0.0350 0.6441 0.3176
C8_2 C 0.0004(13) 0.6819(5) 0.0592(14)
C9_2 C 0.0148(15) 0.6572(4) 0.1155(14)
H8_2 H 0.0178 0.6370 0.0956
C10_2 C 0.0248(19) 0.6621(5) 0.2011(15)
C11_2 C 0.019(2) 0.6924(5) 0.2232(15)
H9_2 H 0.0268 0.6973 0.2812
C12_2 C 0.0033(19) 0.7156(5) 0.1616(15)
N3_2 N 0.1419(14) 0.5202(4) 0.4463(12)
C13_2 C 0.1244(17) 0.5153(5) 0.3614(14)
H11_2 H 0.1152 0.4947 0.3405
C14_2 C 0.1189(19) 0.5384(4) 0.3023(13)
H12_2 H 0.1068 0.5332 0.2432
C15_2 C 0.1307(18) 0.5691(4) 0.3279(11)
C16_2 C 0.151(2) 0.5742(4) 0.4162(12)
H13_2 H 0.1638 0.5944 0.4398
C17_2 C 0.1520(16) 0.5497(4) 0.4696(11)
H14_2 H 0.1607 0.5544 0.5282
C18_2 C 0.1102(19) 0.5949(6) 0.2633(16)
H15_2 H 0.1221 0.5887 0.2116
C19_2 C 0.1496(18) 0.6267(6) 0.2962(15)
H16_2 H 0.1810 0.6266 0.3620
N4_2 N 0.2642(14) 0.6853(4) 0.1611(12)
C20_2 C 0.2391(15) 0.6563(5) 0.1351(13)
H17_2 H 0.2402 0.6498 0.0813
C21_2 C 0.2117(17) 0.6352(5) 0.1811(14)
H18_2 H 0.1961 0.6149 0.1591
C22_2 C 0.2071(18) 0.6437(5) 0.2592(13)
C23_2 C 0.237(2) 0.6731(5) 0.2877(15)
H19_2 H 0.2400 0.6798 0.3428
C24_2 C 0.2643(19) 0.6930(5) 0.2388(14)
H20_2 H 0.2835 0.7131 0.2612
H34_2 H 0.2810 0.7970 0.0519
C77_2 C 0.215(2) 0.7696(5) 0.1591(17)
C78_2 C 0.2111(17) 0.7900(6) 0.2211(16)
C79_2 C 0.1313(16) 0.8048(6) 0.2086(16)
H57_2 H 0.0782 0.8007 0.1569
C80_2 C 0.1276(16) 0.8254(6) 0.2704(16)
H58_2 H 0.0755 0.8379 0.2562
C81_2 C 0.1995(17) 0.8281(6) 0.3525(15)
C82_2 C 0.2785(18) 0.8128(8) 0.3651(18)
H59_2 H 0.3307 0.8155 0.4188
C83_2 C 0.283(2) 0.7932(7) 0.299(2)
H60_2 H 0.3370 0.7823 0.3103
C84_2 C 0.1122(15) 0.8361(5) 0.4608(18)
C85_2 C 0.0257(17) 0.8485(6) 0.4237(19)
H61_2 H 0.0108 0.8644 0.3813
C88_2 C 0.0641(18) 0.7980(6) 0.536(2)
H63_2 H 0.0758 0.7800 0.5713
C89_2 C 0.1303(15) 0.8101(6) 0.5127(18)
H64_2 H 0.1877 0.8004 0.5324
O29_2 O 0.3362(13) 0.6871(5) 0.0003(12)
O30_2 O 0.4253(13) 0.7243(5) 0.0802(13)
Cd2_2 Cd 0.00002(17) 0.74985(5) 0.99382(15)
N7_2 N 0.2549(15) 0.7644(7) 0.9626(17)
C37_2 C 0.230(2) 0.7602(7) 0.877(2)
H31_2 H 0.2224 0.7398 0.8547
C38_2 C 0.216(3) 0.7844(9) 0.8182(18)
H32_2 H 0.1991 0.7803 0.7575
C39_2 C 0.227(3) 0.8147(8) 0.848(2)
C40_2 C 0.254(3) 0.8193(7) 0.938(2)
H33_2 H 0.2650 0.8394 0.9626
C41_2 C 0.265(3) 0.7936(8) 0.991(2)
C42_2 C 0.208(4) 0.8422(10) 0.772(3)
H35_2 H 0.2108 0.8390 0.7169
C43_2 C 0.189(3) 0.8685(10) 0.798(3)
H36_2 H 0.1865 0.8719 0.8525
N8_2 N 0.1523(15) 0.9488(6) 0.6181(16)
C44_2 C 0.1579(17) 0.9201(6) 0.5906(17)
H37_2 H 0.1549 0.9180 0.5328
C45_2 C 0.168(2) 0.8936(6) 0.639(2)
H38_2 H 0.1716 0.8743 0.6141
C46_2 C 0.172(3) 0.8947(6) 0.723(2)
C47_2 C 0.167(3) 0.9240(7) 0.7535(18)
H39_2 H 0.1718 0.9268 0.8116
C48_2 C 0.156(2) 0.9493(6) 0.7001(18)
H40_2 H 0.1509 0.9688 0.7233
O28_2 O 0.1371(13) 0.7026(5) 0.9683(13)
S3_2 S 0.4342(7) 0.0982(2) 0.5597(7)
O19_2 O 0.7011(13) 0.0108(5) 0.4343(12)
O20_2 O 0.8022(14) 0.0348(5) 0.5483(13)
O21_2 O 0.3533(17) 0.0915(5) 0.4886(16)
O22_2 O 0.4695(15) 0.1281(6) 0.5853(15)
O23_2 O 0.3480(11) 0.0184(3) 0.8560(9)
C91_2 C 0.7269(18) 0.0285(5) 0.5002(17)
C92_2 C 0.6490(13) 0.0453(5) 0.5138(14)
C93_2 C 0.6713(14) 0.0706(6) 0.5683(19)
H65_2 H 0.7328 0.0764 0.5992
C94_2 C 0.6037(15) 0.0876(5) 0.5782(19)
H66_2 H 0.6177 0.1061 0.6115
C95_2 C 0.5161(14) 0.0770(5) 0.5388(15)
C96_2 C 0.4936(13) 0.0508(6) 0.4879(17)
H67_2 H 0.4328 0.0438 0.4615
C97_2 C 0.5611(13) 0.0346(5) 0.4758(14)
H68_2 H 0.5469 0.0163 0.4416
C98_2 C 0.4298(16) 0.0803(5) 0.6521(14)
C99_2 C 0.4965(15) 0.0861(5) 0.7357(16)
H69_2 H 0.5426 0.1006 0.7438
C100_2 C 0.4952(13) 0.0704(5) 0.8074(13)
H70_2 H 0.5416 0.0737 0.8646
C101_2 C 0.4266(13) 0.0498(5) 0.7958(11)
C102_2 C 0.3597(12) 0.0443(5) 0.7122(11)
H71_2 H 0.3111 0.0308 0.7046
C103_2 C 0.3642(13) 0.0583(5) 0.6399(11)
H72_2 H 0.3225 0.0530 0.5820
C104_2 C 0.4247(18) 0.0318(5) 0.8727(14)
N10_2 N 0.8477(15) 0.0512(6) 0.3819(16)
S1_2 S 0.5672(7) 0.8495(2) 0.0622(7)
S2_2 S 0.4467(7) 0.6071(2) 0.5743(7)
O1_2 O 0.7034(13) 0.5261(5) 0.4239(13)
O2_2 O 0.8029(14) 0.5546(5) 0.5200(12)
O3_2 O 0.3612(16) 0.6053(5) 0.5006(16)
O4_2 O 0.4793(15) 0.6364(6) 0.6114(15)
O5_2 O 0.3529(14) 0.5201(5) 0.8550(12)
O8_2 O 0.9381(14) 0.7806(5) 0.0677(13)
O10_2 O 0.6162(15) 0.8763(5) 0.0982(14)
O11_2 O 0.4985(13) 0.7790(5) 0.3854(12)
O12_2 O 0.6371(13) 0.7974(5) 0.4683(13)
O17_2 O 0.8362(13) 0.8129(5) 0.5003(12)
O18_2 O 0.9253(13) 0.7757(5) 0.5802(13)
N1_2 N 0.8827(14) 0.5522(4) 0.3669(13)
C1_2 C 0.8799(14) 0.5444(4) 0.2885(13)
H1_2 H 0.8541 0.5251 0.2644
C2_2 C 0.9122(17) 0.5627(5) 0.2398(13)
H2_2 H 0.9048 0.5563 0.1828
C3_2 C 0.9551(18) 0.5903(5) 0.2743(15)
C4_2 C 0.950(2) 0.6000(6) 0.3510(17)
H3_2 H 0.9692 0.6200 0.3735
C5_2 C 0.9158(16) 0.5803(5) 0.3946(13)
H4_2 H 0.9159 0.5872 0.4486
H5_2 H 0.9736 0.6063 0.1657
N2_2 N 0.9945(14) 0.7112(4) 0.0789(12)
H7_2 H 0.9942 0.6776 0.0012
H10_2 H 0.9983 0.7360 0.1792
C49_2 C 0.7242(17) 0.5482(6) 0.4829(17)
C50_2 C 0.6555(12) 0.5613(4) 0.5017(11)
C51_2 C 0.6788(13) 0.5857(4) 0.5611(12)
H41_2 H 0.7395 0.5927 0.5868
C52_2 C 0.6150(13) 0.5997(4) 0.5831(13)
H42_2 H 0.6317 0.6163 0.6235
C53_2 C 0.5267(13) 0.5893(5) 0.5461(12)
C54_2 C 0.5013(13) 0.5653(5) 0.4864(13)
H43_2 H 0.4406 0.5583 0.4609
C55_2 C 0.5658(13) 0.5517(5) 0.4642(13)
H44_2 H 0.5485 0.5353 0.4226
C56_2 C 0.4398(15) 0.5839(5) 0.6570(13)
C57_2 C 0.5134(15) 0.5822(5) 0.7372(14)
H45_2 H 0.5661 0.5939 0.7477
C58_2 C 0.5103(14) 0.5633(6) 0.8027(14)
H46_2 H 0.5633 0.5603 0.8554
C59_2 C 0.4313(14) 0.5487(4) 0.7922(13)
C60_2 C 0.3554(15) 0.5531(8) 0.7143(17)
H47_2 H 0.2990 0.5451 0.7085
C61_2 C 0.3605(17) 0.5690(8) 0.6444(16)
H48_2 H 0.3100 0.5697 0.5886
C62_2 C 0.427(2) 0.5294(6) 0.8634(18)
C63_2 C 0.857(2) 0.7774(7) 0.013(2)
C64_2 C 0.7828(16) 0.7941(6) 0.0241(18)
C67_2 C 0.6538(17) 0.8290(6) 0.049(2)
C68_2 C 0.7437(18) 0.8370(6) 0.0916(19)
H51_2 H 0.7610 0.8546 0.1287
C69_2 C 0.8089(15) 0.8192(6) 0.0800(19)
H52_2 H 0.8710 0.8243 0.1104
C70_2 C 0.572(2) 0.8365(7) 0.1662(15)
C71_2 C 0.509(2) 0.8138(7) 0.1573(15)
H53_2 H 0.4691 0.8068 0.1005
C72_2 C 0.5061(17) 0.8013(6) 0.2325(16)
H54_2 H 0.4604 0.7870 0.2277
C73_2 C 0.5704(16) 0.8100(5) 0.3144(14)
C74_2 C 0.6349(18) 0.8320(7) 0.3223(15)
H55_2 H 0.6756 0.8389 0.3790
C75_2 C 0.6400(18) 0.8438(6) 0.2474(17)
H56_2 H 0.6889 0.8566 0.2516
C76_2 C 0.5638(18) 0.7929(5) 0.3959(16)
C86_2 C 0.9617(15) 0.8369(6) 0.4502(17)
H62_2 H 0.9033 0.8459 0.4280
C87_2 C 0.9811(17) 0.8127(6) 0.5077(19)
C90_2 C 0.909(2) 0.7967(7) 0.531(2)
Cd8_3 Cd 0.50002(17) 0.75015(5) 0.49382(15)
Cd9_2 Cd 0.76798(17) 0.77674(6) 0.56016(15)
O31_2 O 0.8480(11) 0.4816(3) 0.3560(9)
N9_2 N 0.8581(14) 0.4798(4) 0.5537(12)
Cd2_3 Cd 1.00002(17) 0.74985(5) 0.99382(15)
O7_2 O 0.8319(13) 0.7606(5) 0.9488(13)
O9_2 O 0.4813(14) 0.8423(5) 0.9929(14)
N5_2 N 0.9980(14) 0.7897(4) 0.9081(13)
C25_2 C 0.9981(15) 0.7886(5) 0.8289(14)
H21_2 H 0.9991 0.7689 0.8045
C26_2 C 0.9970(17) 0.8142(5) 0.7796(15)
H22_2 H 0.9981 0.8115 0.7237
C27_2 C 0.994(2) 0.8435(5) 0.8097(16)
C28_2 C 0.996(2) 0.8452(5) 0.8932(17)
H23_2 H 0.9956 0.8645 0.9194
C29_2 C 0.997(2) 0.8182(5) 0.9376(16)
H24_2 H 0.9981 0.8201 0.9945
C30_2 C 0.983(3) 0.8684(11) 0.736(3)
H25_2 H 0.9849 0.8634 0.6811
C31_2 C 0.972(6) 0.8927(14) 0.754(3)
H26_2 H 0.9833 0.8986 0.8124
N6_2 N 0.8826(14) 0.9670(4) 0.5535(14)
C32_2 C 0.8769(15) 0.9377(5) 0.5275(15)
H27_2 H 0.8553 0.9340 0.4660
C33_2 C 0.8999(19) 0.9123(5) 0.582(2)
H28_2 H 0.8915 0.8922 0.5578
C34_2 C 0.935(3) 0.9163(8) 0.673(2)
C35_2 C 0.935(3) 0.9462(9) 0.7006(18)
H29_2 H 0.9514 0.9503 0.7612
C36_2 C 0.910(3) 0.9701(7) 0.6404(18)
H30_2 H 0.9133 0.9903 0.6628
C65_2 C 0.6925(17) 0.7856(6) 0.9847(18)
H49_2 H 0.6751 0.7674 0.9500
C66_2 C 0.6276(16) 0.8033(7) 0.996(2)
H50_2 H 0.5656 0.7979 0.9668
O25_2 O 0.8529(14) 0.9799(5) 0.3550(12)
O27_2 O 0.9985(13) 0.7210(5) 0.8854(12)
H11_3 H 0.6152 0.0053 0.8405
O2_3 O 0.3029(14) 0.9454(5) 0.0200(12)
O16_3 O 0.7809(16) 0.6502(5) 0.0100(16)
H14_3 H 0.6607 0.9456 0.0282
C50_3 C 0.1555(12) 0.9387(4) 0.0017(11)
C51_3 C 0.1788(13) 0.9143(4) 0.0611(12)
H41_3 H 0.2395 0.9073 0.0868
C52_3 C 0.1150(13) 0.9003(4) 0.0831(13)
H42_3 H 0.1317 0.8837 0.1235
C53_3 C 0.0267(13) 0.9107(5) 0.0461(12)
C57_3 C 0.0134(15) 0.9178(5) 0.2372(14)
H45_3 H 0.0661 0.9061 0.2477
C58_3 C 0.0103(14) 0.9367(6) 0.3027(14)
H46_3 H 0.0633 0.9397 0.3554
C87_3 C 0.4811(17) 0.6873(6) 0.0077(19)
C88_3 C 0.5641(18) 0.7020(6) 0.036(2)
H63_3 H 0.5758 0.7200 0.0713
C89_3 C 0.6303(15) 0.6899(6) 0.0127(18)
H64_3 H 0.6877 0.6996 0.0324
C90_3 C 0.409(2) 0.7033(7) 0.031(2)
O32_2 O 0.5088(10) 0.9697(4) 0.0585(9)
S1_3 S 0.0672(7) 0.6505(2) 0.5622(7)
S4_3 S 0.6954(6) 0.6481(2) 0.9323(7)
O1_3 O 0.2034(13) 0.9739(5) 0.9239(13)
O7_3 O 0.3319(13) 0.7394(5) 0.4488(13)
O8_3 O 0.4381(14) 0.7194(5) 0.5677(13)
O10_3 O 0.1162(15) 0.6237(5) 0.5982(14)
O13_3 O 0.6485(13) 0.7392(5) 0.5907(13)
O14_3 O 0.7919(13) 0.7402(5) 0.6663(12)
O15_3 O 0.6636(15) 0.6194(5) 0.8931(15)
O20_3 O 0.3022(14) 0.4652(5) 0.0483(13)
N1_3 N 0.3827(14) 0.9478(4) 0.8669(13)
C1_3 C 0.3799(14) 0.9556(4) 0.7885(13)
H1_3 H 0.3541 0.9749 0.7644
C2_3 C 0.4122(17) 0.9373(5) 0.7398(13)
H2_3 H 0.4048 0.9437 0.6828
C3_3 C 0.4551(18) 0.9097(5) 0.7743(15)
C4_3 C 0.450(2) 0.9000(6) 0.8510(17)
H3_3 H 0.4692 0.8800 0.8735
C5_3 C 0.4158(16) 0.9197(5) 0.8946(13)
H4_3 H 0.4159 0.9128 0.9486
C6_3 C 0.507(2) 0.8936(6) 0.7314(18)
H5_3 H 0.4736 0.8937 0.6657
C7_3 C 0.547(2) 0.8622(6) 0.7660(18)
H6_3 H 0.5350 0.8559 0.8176
N2_3 N 0.4945(14) 0.7888(4) 0.5789(12)
C8_3 C 0.5004(13) 0.8181(5) 0.5592(14)
H7_3 H 0.4942 0.8224 0.5012
C9_3 C 0.5148(15) 0.8428(4) 0.6155(14)
H8_3 H 0.5178 0.8630 0.5956
C10_3 C 0.5248(19) 0.8379(5) 0.7011(15)
C11_3 C 0.519(2) 0.8076(5) 0.7232(15)
H9_3 H 0.5268 0.8027 0.7812
C12_3 C 0.5033(19) 0.7844(5) 0.6616(15)
H10_3 H 0.4983 0.7640 0.6792
C13_3 C 0.6244(17) 0.9847(5) 0.8614(14)
C14_3 C 0.6189(19) 0.9616(4) 0.8023(13)
H12_3 H 0.6068 0.9668 0.7432
C15_3 C 0.6307(18) 0.9309(4) 0.8279(11)
C16_3 C 0.651(2) 0.9258(4) 0.9162(12)
H13_3 H 0.6638 0.9056 0.9398
C17_3 C 0.6520(16) 0.9503(4) 0.9696(11)
C18_3 C 0.6102(19) 0.9051(6) 0.7633(16)
H15_3 H 0.6221 0.9113 0.7116
C19_3 C 0.6496(18) 0.8733(6) 0.7962(15)
H16_3 H 0.6810 0.8734 0.8620
N4_3 N 0.7642(14) 0.8147(4) 0.6611(12)
C20_3 C 0.7391(15) 0.8437(5) 0.6351(13)
H17_3 H 0.7402 0.8502 0.5813
C21_3 C 0.7117(17) 0.8648(5) 0.6811(14)
H18_3 H 0.6961 0.8851 0.6591
C22_3 C 0.7071(18) 0.8563(5) 0.7592(13)
C23_3 C 0.737(2) 0.8269(5) 0.7877(15)
H19_3 H 0.7400 0.8202 0.8428
C24_3 C 0.7643(19) 0.8070(5) 0.7388(14)
H20_3 H 0.7835 0.7869 0.7612
N5_3 N 0.4980(14) 0.7103(4) 0.4081(13)
C25_3 C 0.4981(15) 0.7114(5) 0.3289(14)
H21_3 H 0.4991 0.7311 0.3045
C26_3 C 0.4970(17) 0.6858(5) 0.2796(15)
H22_3 H 0.4981 0.6885 0.2237
C27_3 C 0.494(2) 0.6565(5) 0.3097(16)
C28_3 C 0.496(2) 0.6548(5) 0.3932(17)
H23_3 H 0.4956 0.6355 0.4194
C29_3 C 0.497(2) 0.6818(5) 0.4376(16)
H24_3 H 0.4981 0.6799 0.4945
C30_3 C 0.483(3) 0.6316(11) 0.236(3)
H25_3 H 0.4849 0.6366 0.1811
C31_3 C 0.472(6) 0.6073(14) 0.254(3)
H26_3 H 0.4833 0.6014 0.3124
N6_3 N 0.3826(14) 0.5330(4) 0.0535(14)
C32_3 C 0.3769(15) 0.5623(5) 0.0275(15)
C33_3 C 0.3999(19) 0.5877(5) 0.082(2)
H28_3 H 0.3915 0.6078 0.0578
C34_3 C 0.435(3) 0.5837(8) 0.173(2)
C35_3 C 0.435(3) 0.5538(9) 0.2006(18)
H29_3 H 0.4514 0.5497 0.2612
C36_3 C 0.410(3) 0.5299(7) 0.1404(18)
H30_3 H 0.4133 0.5097 0.1628
N7_3 N 0.7549(15) 0.7356(7) 0.4626(17)
C37_3 C 0.730(2) 0.7398(7) 0.377(2)
H31_3 H 0.7224 0.7602 0.3547
C38_3 C 0.716(3) 0.7156(9) 0.3182(18)
H32_3 H 0.6991 0.7197 0.2575
C39_3 C 0.727(3) 0.6853(8) 0.348(2)
C40_3 C 0.754(3) 0.6807(7) 0.438(2)
H33_3 H 0.7650 0.6606 0.4626
C41_3 C 0.765(3) 0.7064(8) 0.491(2)
H34_3 H 0.7810 0.7030 0.5519
C42_3 C 0.708(4) 0.6578(10) 0.272(3)
H35_3 H 0.7108 0.6610 0.2169
C43_3 C 0.689(3) 0.6315(10) 0.298(3)
H36_3 H 0.6865 0.6281 0.3525
C44_3 C 0.6579(17) 0.5799(6) 0.0906(17)
H37_3 H 0.6549 0.5820 0.0328
C45_3 C 0.668(2) 0.6064(6) 0.139(2)
H38_3 H 0.6716 0.6257 0.1141
C46_3 C 0.672(3) 0.6053(6) 0.223(2)
C47_3 C 0.667(3) 0.5760(7) 0.2535(18)
H39_3 H 0.6718 0.5732 0.3116
C48_3 C 0.656(2) 0.5507(6) 0.2001(18)
H40_3 H 0.6509 0.5312 0.2233
C49_3 C 0.2242(17) 0.9518(6) 0.9829(17)
C54_3 C 0.0013(13) 0.9347(5) 0.9864(13)
C55_3 C 0.0658(13) 0.9483(5) 0.9642(13)
H44_3 H 0.0485 0.9647 0.9226
C63_3 C 0.357(2) 0.7226(7) 0.513(2)
C64_3 C 0.2828(16) 0.7059(6) 0.5241(18)
C65_3 C 0.1925(17) 0.7144(6) 0.4847(18)
H49_3 H 0.1751 0.7326 0.4500
C66_3 C 0.1276(16) 0.6967(7) 0.496(2)
H50_3 H 0.0656 0.7021 0.4668
C67_3 C 0.1538(17) 0.6710(6) 0.549(2)
C68_3 C 0.2437(18) 0.6630(6) 0.5916(19)
H51_3 H 0.2610 0.6454 0.6287
C69_3 C 0.3089(15) 0.6808(6) 0.5800(19)
H52_3 H 0.3710 0.6757 0.6104
C70_3 C 0.072(2) 0.6635(7) 0.6662(15)
C71_3 C 0.009(2) 0.6862(7) 0.6573(15)
C72_3 C 0.0061(17) 0.6987(6) 0.7325(16)
C73_3 C 0.0704(16) 0.6900(5) 0.8144(14)
C74_3 C 0.1349(18) 0.6680(7) 0.8223(15)
H55_3 H 0.1756 0.6611 0.8790
C75_3 C 0.1400(18) 0.6562(6) 0.7474(17)
H56_3 H 0.1889 0.6434 0.7516
C76_3 C 0.0638(18) 0.7071(5) 0.8959(16)
C77_3 C 0.715(2) 0.7304(5) 0.6591(17)
C78_3 C 0.7111(17) 0.7100(6) 0.7211(16)
C79_3 C 0.6313(16) 0.6952(6) 0.7086(16)
H57_3 H 0.5782 0.6993 0.6569
C80_3 C 0.6276(16) 0.6746(6) 0.7704(16)
H58_3 H 0.5755 0.6621 0.7562
C81_3 C 0.6995(17) 0.6719(6) 0.8525(15)
C82_3 C 0.7785(18) 0.6872(8) 0.8651(18)
H59_3 H 0.8307 0.6845 0.9188
C83_3 C 0.783(2) 0.7068(7) 0.799(2)
H60_3 H 0.8370 0.7177 0.8103
C84_3 C 0.6122(15) 0.6639(5) 0.9608(18)
C85_3 C 0.5257(17) 0.6515(6) 0.9237(19)
H61_3 H 0.5108 0.6356 0.8813
C86_3 C 0.4617(15) 0.6631(6) 0.9502(17)
H62_3 H 0.4033 0.6541 0.9280
C91_3 C 0.2269(18) 0.4715(5) 0.0002(17)
C92_3 C 0.1490(13) 0.4547(5) 0.0138(14)
C93_3 C 0.1713(14) 0.4294(6) 0.0683(19)
H65_3 H 0.2328 0.4236 0.0992
C94_3 C 0.1037(15) 0.4124(5) 0.0782(19)
H66_3 H 0.1177 0.3939 0.1115
C95_3 C 0.0161(14) 0.4230(5) 0.0388(15)
H69_3 H 0.0426 0.3994 0.2438
H70_3 H 0.0416 0.4263 0.3646
O26_2 O 0.5060(14) 0.4759(5) 0.0710(13)
O19_3 O 0.2011(13) 0.4892(5) 0.9343(12)
H27_3 H 0.3553 0.5660 0.9660
C97_3 C 0.0611(13) 0.4654(5) 0.9758(14)
H68_3 H 0.0469 0.4837 0.9416
S2_3 S 0.9467(7) 0.8929(2) 0.0743(7)
O3_3 O 0.8612(16) 0.8947(5) 0.0006(16)
O4_3 O 0.9793(15) 0.8636(6) 0.1114(15)
O6_2 O 0.9940(14) 0.9759(5) 0.4290(13)
C56_3 C 0.9398(15) 0.9161(5) 0.1570(13)
C59_3 C 0.9313(14) 0.9513(4) 0.2922(13)
C60_3 C 0.8554(15) 0.9469(8) 0.2143(17)
H47_3 H 0.7990 0.9549 0.2085
C61_3 C 0.8605(17) 0.9310(8) 0.1444(16)
H48_3 H 0.8100 0.9303 0.0886
C62_3 C 0.927(2) 0.9706(6) 0.3634(18)
S3_3 S 0.9342(7) 0.4018(2) 0.0597(7)
O9_3 O 0.9813(14) 0.6577(5) 0.4929(14)
O22_3 O 0.9695(15) 0.3719(6) 0.0853(15)
O24_2 O 0.9912(10) 0.4697(4) 0.4415(9)
H43_3 H 0.9406 0.9417 0.9609
H53_3 H 0.9691 0.6932 0.6005
H54_3 H 0.9604 0.7130 0.7277
C98_3 C 0.9298(16) 0.4197(5) 0.1521(14)
C99_3 C 0.9965(15) 0.4139(5) 0.2357(16)
C100_3 C 0.9952(13) 0.4296(5) 0.3074(13)
C101_3 C 0.9266(13) 0.4502(5) 0.2958(11)
C102_3 C 0.8597(12) 0.4557(5) 0.2122(11)
H71_3 H 0.8111 0.4692 0.2046
C103_3 C 0.8642(13) 0.4417(5) 0.1399(11)
H72_3 H 0.8225 0.4470 0.0820
C104_3 C 0.9247(18) 0.4682(5) 0.3727(14)
O7_4 O 0.1681(13) 0.2394(5) 0.0512(13)
O9_4 O 0.5187(14) 0.1577(5) 0.0071(14)
N5_4 N 0.0020(14) 0.2103(4) 0.0919(13)
C25_4 C 0.0019(15) 0.2114(5) 0.1711(14)
H21_4 H 0.0009 0.2311 0.1955
C26_4 C 0.0030(17) 0.1858(5) 0.2204(15)
H22_4 H 0.0019 0.1885 0.2763
C27_4 C 0.006(2) 0.1565(5) 0.1903(16)
C28_4 C 0.004(2) 0.1548(5) 0.1068(17)
H23_4 H 0.0044 0.1355 0.0806
C29_4 C 0.003(2) 0.1818(5) 0.0624(16)
H24_4 H 0.0019 0.1799 0.0055
C30_4 C 0.017(3) 0.1316(11) 0.264(3)
H25_4 H 0.0151 0.1366 0.3189
C31_4 C 0.028(6) 0.1073(14) 0.246(3)
H26_4 H 0.0167 0.1014 0.1876
N6_4 N 0.1174(14) 0.0330(4) 0.4465(14)
C32_4 C 0.1231(15) 0.0623(5) 0.4725(15)
H27_4 H 0.1447 0.0660 0.5340
C33_4 C 0.1001(19) 0.0877(5) 0.418(2)
H28_4 H 0.1085 0.1078 0.4422
C34_4 C 0.065(3) 0.0837(8) 0.327(2)
C35_4 C 0.065(3) 0.0538(9) 0.2994(18)
H29_4 H 0.0486 0.0497 0.2388
C36_4 C 0.090(3) 0.0299(7) 0.3596(18)
H30_4 H 0.0867 0.0097 0.3372
C65_4 C 0.3075(17) 0.2144(6) 0.0153(18)
H49_4 H 0.3249 0.2326 0.0500
C66_4 C 0.3724(16) 0.1967(7) 0.004(2)
H50_4 H 0.4344 0.2021 0.0332
S1_4 S 0.4328(7) 0.1505(2) 0.9378(7)
S2_4 S 0.5533(7) 0.3929(2) 0.4257(7)
O1_4 O 0.2966(13) 0.4739(5) 0.5761(13)
O2_4 O 0.1971(14) 0.4454(5) 0.4800(12)
O3_4 O 0.6388(16) 0.3947(5) 0.4994(16)
O4_4 O 0.5207(15) 0.3636(6) 0.3886(15)
O8_4 O 0.0619(14) 0.2194(5) 0.9323(13)
O10_4 O 0.3838(15) 0.1237(5) 0.9018(14)
N1_4 N 0.1173(14) 0.4478(4) 0.6331(13)
C1_4 C 0.1201(14) 0.4556(4) 0.7115(13)
H1_4 H 0.1459 0.4749 0.7356
C2_4 C 0.0878(17) 0.4373(5) 0.7602(13)
H2_4 H 0.0952 0.4437 0.8172
C3_4 C 0.0449(18) 0.4097(5) 0.7257(15)
C4_4 C 0.050(2) 0.4000(6) 0.6490(17)
H3_4 H 0.0308 0.3800 0.6265
C5_4 C 0.0842(16) 0.4197(5) 0.6054(13)
H4_4 H 0.0841 0.4128 0.5514
H5_4 H 0.0264 0.3937 0.8343
N2_4 N 0.0055(14) 0.2888(4) 0.9211(12)
H7_4 H 0.0058 0.3224 0.9988
H10_4 H 0.0017 0.2640 0.8208
C49_4 C 0.2758(17) 0.4518(6) 0.5171(17)
C50_4 C 0.3445(12) 0.4387(4) 0.4983(11)
C51_4 C 0.3212(13) 0.4143(4) 0.4389(12)
H41_4 H 0.2605 0.4073 0.4132
C52_4 C 0.3850(13) 0.4003(4) 0.4169(13)
H42_4 H 0.3683 0.3837 0.3765
C53_4 C 0.4733(13) 0.4107(5) 0.4539(12)
C54_4 C 0.4987(13) 0.4347(5) 0.5136(13)
H43_4 H 0.5594 0.4417 0.5391
C55_4 C 0.4342(13) 0.4483(5) 0.5358(13)
H44_4 H 0.4515 0.4647 0.5774
C56_4 C 0.5602(15) 0.4161(5) 0.3430(13)
C57_4 C 0.4866(15) 0.4178(5) 0.2628(14)
H45_4 H 0.4339 0.4061 0.2523
C58_4 C 0.4897(14) 0.4367(6) 0.1973(14)
H46_4 H 0.4367 0.4397 0.1446
C59_4 C 0.5687(14) 0.4513(4) 0.2078(13)
C60_4 C 0.6446(15) 0.4469(8) 0.2857(17)
H47_4 H 0.7010 0.4549 0.2915
C61_4 C 0.6395(17) 0.4310(8) 0.3556(16)
H48_4 H 0.6900 0.4303 0.4114
C62_4 C 0.573(2) 0.4706(6) 0.1366(18)
C63_4 C 0.143(2) 0.2226(7) 0.987(2)
C64_4 C 0.2172(16) 0.2059(6) 0.9759(18)
C67_4 C 0.3462(17) 0.1710(6) 0.951(2)
C68_4 C 0.2563(18) 0.1630(6) 0.9084(19)
H51_4 H 0.2390 0.1454 0.8713
C69_4 C 0.1911(15) 0.1808(6) 0.9200(19)
H52_4 H 0.1290 0.1757 0.8896
C70_4 C 0.428(2) 0.1635(7) 0.8338(15)
C71_4 C 0.491(2) 0.1862(7) 0.8427(15)
H53_4 H 0.5309 0.1932 0.8995
C72_4 C 0.4939(17) 0.1987(6) 0.7675(16)
H54_4 H 0.5396 0.2130 0.7723
C73_4 C 0.4296(16) 0.1900(5) 0.6856(14)
C74_4 C 0.3651(18) 0.1680(7) 0.6777(15)
H55_4 H 0.3244 0.1611 0.6210
C75_4 C 0.3600(18) 0.1562(6) 0.7526(17)
H56_4 H 0.3111 0.1434 0.7484
C76_4 C 0.4362(18) 0.2071(5) 0.6041(16)
C86_4 C 0.0383(15) 0.1631(6) 0.5498(17)
H62_4 H 0.0967 0.1541 0.5720
C87_4 C 0.0189(17) 0.1873(6) 0.4923(19)
C90_4 C 0.091(2) 0.2033(7) 0.469(2)
S3_4 S 0.5658(7) 0.9018(2) 0.4403(7)
O19_4 O 0.2989(13) 0.9892(5) 0.5657(12)
O20_4 O 0.1978(14) 0.9652(5) 0.4517(13)
O21_3 O 0.6467(17) 0.9085(5) 0.5114(16)
O22_4 O 0.5305(15) 0.8719(6) 0.4147(15)
C91_4 C 0.2731(18) 0.9715(5) 0.4998(17)
C92_4 C 0.3510(13) 0.9547(5) 0.4862(14)
C93_4 C 0.3287(14) 0.9294(6) 0.4317(19)
H65_4 H 0.2672 0.9236 0.4008
C94_4 C 0.3963(15) 0.9124(5) 0.4218(19)
H66_4 H 0.3823 0.8939 0.3885
C95_4 C 0.4839(14) 0.9230(5) 0.4612(15)
C96_3 C 0.5064(13) 0.9492(6) 0.5121(17)
H67_3 H 0.5672 0.9562 0.5385
C97_4 C 0.4389(13) 0.9654(5) 0.5242(14)
H68_4 H 0.4531 0.9837 0.5584
C98_4 C 0.5702(16) 0.9197(5) 0.3479(14)
C99_4 C 0.5035(15) 0.9139(5) 0.2643(16)
H69_4 H 0.4574 0.8994 0.2562
C100_4 C 0.5048(13) 0.9296(5) 0.1926(13)
H70_4 H 0.4584 0.9263 0.1354
C101_4 C 0.5734(13) 0.9502(5) 0.2042(11)
C102_4 C 0.6403(12) 0.9557(5) 0.2878(11)
H71_4 H 0.6889 0.9692 0.2954
C103_4 C 0.6358(13) 0.9417(5) 0.3601(11)
H72_4 H 0.6775 0.9470 0.4180
C104_4 C 0.5753(18) 0.9682(5) 0.1273(14)
N7_4 N 0.7451(15) 0.2356(7) 0.0374(17)
C37_4 C 0.770(2) 0.2398(7) 0.123(2)
H31_4 H 0.7776 0.2602 0.1453
C38_4 C 0.784(3) 0.2156(9) 0.1818(18)
H32_4 H 0.8009 0.2197 0.2425
C39_4 C 0.773(3) 0.1853(8) 0.152(2)
C40_4 C 0.746(3) 0.1807(7) 0.062(2)
H33_4 H 0.7350 0.1606 0.0374
C41_4 C 0.735(3) 0.2064(8) 0.009(2)
C42_4 C 0.792(4) 0.1578(10) 0.228(3)
H35_4 H 0.7892 0.1610 0.2831
C43_4 C 0.811(3) 0.1315(10) 0.202(3)
H36_4 H 0.8135 0.1281 0.1475
C44_4 C 0.8421(17) 0.0799(6) 0.4094(17)
H37_4 H 0.8451 0.0820 0.4672
C45_4 C 0.832(2) 0.1064(6) 0.361(2)
H38_4 H 0.8284 0.1257 0.3859
C46_4 C 0.828(3) 0.1053(6) 0.277(2)
C47_4 C 0.833(3) 0.0760(7) 0.2465(18)
H39_4 H 0.8282 0.0732 0.1884
C48_4 C 0.844(2) 0.0507(6) 0.2999(18)
H40_4 H 0.8491 0.0312 0.2767
S4_4 S 0.8046(6) 0.1481(2) 0.5677(7)
O13_4 O 0.8515(13) 0.2392(5) 0.9093(13)
O14_4 O 0.7081(13) 0.2402(5) 0.8337(12)
O15_4 O 0.8364(15) 0.1194(5) 0.6069(15)
O16_4 O 0.7191(16) 0.1502(5) 0.4900(16)
C6_4 C 0.993(2) 0.3936(6) 0.7686(18)
C7_4 C 0.953(2) 0.3622(6) 0.7340(18)
H6_4 H 0.9650 0.3559 0.6824
C8_4 C 0.9996(13) 0.3181(5) 0.9408(14)
C9_4 C 0.9852(15) 0.3428(4) 0.8845(14)
H8_4 H 0.9822 0.3630 0.9044
C10_4 C 0.9752(19) 0.3379(5) 0.7989(15)
C11_4 C 0.981(2) 0.3076(5) 0.7768(15)
H9_4 H 0.9732 0.3027 0.7188
C12_4 C 0.9967(19) 0.2844(5) 0.8384(15)
C13_4 C 0.8756(17) 0.4847(5) 0.6386(14)
H11_4 H 0.8848 0.5053 0.6595
C14_4 C 0.8811(19) 0.4616(4) 0.6977(13)
H12_4 H 0.8932 0.4668 0.7568
C15_4 C 0.8693(18) 0.4309(4) 0.6721(11)
C16_4 C 0.849(2) 0.4258(4) 0.5838(12)
H13_4 H 0.8362 0.4056 0.5602
C17_4 C 0.8480(16) 0.4503(4) 0.5304(11)
H14_4 H 0.8393 0.4456 0.4718
C18_4 C 0.8898(19) 0.4051(6) 0.7367(16)
H15_4 H 0.8779 0.4113 0.7884
C19_4 C 0.8504(18) 0.3733(6) 0.7038(15)
H16_4 H 0.8190 0.3734 0.6380
N4_4 N 0.7358(14) 0.3147(4) 0.8389(12)
C20_4 C 0.7609(15) 0.3437(5) 0.8649(13)
H17_4 H 0.7598 0.3502 0.9187
C21_4 C 0.7883(17) 0.3648(5) 0.8189(14)
H18_4 H 0.8039 0.3851 0.8409
C22_4 C 0.7929(18) 0.3563(5) 0.7408(13)
C23_4 C 0.763(2) 0.3269(5) 0.7123(15)
H19_4 H 0.7600 0.3202 0.6572
C24_4 C 0.7357(19) 0.3070(5) 0.7612(14)
H20_4 H 0.7165 0.2869 0.7388
H34_4 H 0.7190 0.2030 0.9481
C77_4 C 0.785(2) 0.2304(5) 0.8409(17)
C78_4 C 0.7889(17) 0.2100(6) 0.7789(16)
C79_4 C 0.8687(16) 0.1952(6) 0.7914(16)
H57_4 H 0.9218 0.1993 0.8431
C80_4 C 0.8724(16) 0.1746(6) 0.7296(16)
H58_4 H 0.9245 0.1621 0.7438
C81_4 C 0.8005(17) 0.1719(6) 0.6475(15)
C82_4 C 0.7215(18) 0.1872(8) 0.6349(18)
H59_4 H 0.6693 0.1845 0.5812
C83_4 C 0.717(2) 0.2068(7) 0.701(2)
H60_4 H 0.6630 0.2177 0.6897
C84_4 C 0.8878(15) 0.1639(5) 0.5392(18)
C85_4 C 0.9743(17) 0.1515(6) 0.5763(19)
H61_4 H 0.9892 0.1356 0.6187
C88_4 C 0.9359(18) 0.2020(6) 0.464(2)
H63_4 H 0.9242 0.2200 0.4287
C89_4 C 0.8697(15) 0.1899(6) 0.4873(18)
H64_4 H 0.8123 0.1996 0.4676
O21_4 O 0.8533(17) 0.4085(5) 0.9886(16)
C96_4 C 0.9936(13) 0.4492(6) 0.9879(17)
H67_4 H 0.9328 0.4562 0.9615
loop_
_geom_bond_atom_site_label_1
_geom_bond_atom_site_label_2
_geom_bond_site_symmetry_1
_geom_bond_site_symmetry_2
H67 C96 1_555 1_555
O22 S3 1_555 1_555
O23 C104 1_555 1_555
O24 C104 1_555 1_555
C98 S3 1_555 1_555
C99 C98 1_555 1_555
C100 C99 1_555 1_555
C101 C100 1_555 1_555
C102 C101 1_555 1_555
H71 C102 1_555 1_555
C103 C98 1_555 1_555
H72 C103 1_555 1_555
C104 C101 1_555 1_555
Cd7 O23 1_555 1_555
Cd8 O11 1_555 1_555
C102 C103 1_555 1_555
S2 O3 1_555 1_555
O4 S2 1_555 1_555
O5 C62 1_555 1_555
O6 C62 1_555 1_555
C56 S2 1_555 1_555
C60 C59 1_555 1_555
H47 C60 1_555 1_555
C61 C56 1_555 1_555
H48 C61 1_555 1_555
C62 C59 1_555 1_555
C60 C61 1_555 1_555
Cd4 O19 1_555 1_555
H68 C97 1_555 1_555
O25 Cd4 1_555 1_555
N10 Cd4 1_555 1_555
Cd1 O1 1_555 1_555
Cd2 O7 1_555 1_555
Cd3 O13 1_555 1_555
S4 O15 1_555 1_555
O1 C49 1_555 1_555
O7 C63 1_555 1_555
O8 Cd2 1_555 1_555
O10 S1 1_555 1_555
O12 C76 1_555 1_555
O13 Cd2 1_555 1_555
O14 Cd3 1_555 1_555
N1 Cd1 1_555 1_555
C1 N1 1_555 1_555
H1 C1 1_555 1_555
C2 C1 1_555 1_555
H2 C2 1_555 1_555
C3 C2 1_555 1_555
C4 C3 1_555 1_555
H3 C4 1_555 1_555
C5 N1 1_555 1_555
H4 C5 1_555 1_555
C6 C3 1_555 1_555
H5 C6 1_555 1_555
C7 C6 1_555 1_555
H6 C7 1_555 1_555
N2 Cd2 1_555 1_555
C8 N2 1_555 1_555
H7 C8 1_555 1_555
C9 C8 1_555 1_555
H8 C9 1_555 1_555
C10 C7 1_555 1_555
C11 C10 1_555 1_555
H9 C11 1_555 1_555
C12 N2 1_555 1_555
H10 C12 1_555 1_555
N3 C13 1_555 1_555
C14 C13 1_555 1_555
H12 C14 1_555 1_555
C15 C14 1_555 1_555
C16 C15 1_555 1_555
H13 C16 1_555 1_555
C17 N3 1_555 1_555
C18 C6 1_555 1_555
H15 C18 1_555 1_555
C19 C7 1_555 1_555
H16 C19 1_555 1_555
N4 Cd3 1_555 1_555
C20 N4 1_555 1_555
H17 C20 1_555 1_555
C21 C20 1_555 1_555
H18 C21 1_555 1_555
C22 C19 1_555 1_555
C23 C22 1_555 1_555
H19 C23 1_555 1_555
C24 N4 1_555 1_555
H20 C24 1_555 1_555
N5 Cd2 1_555 1_555
C25 N5 1_555 1_555
H21 C25 1_555 1_555
C26 C25 1_555 1_555
H22 C26 1_555 1_555
C27 C26 1_555 1_555
C28 C27 1_555 1_555
H23 C28 1_555 1_555
C29 N5 1_555 1_555
H24 C29 1_555 1_555
C30 C27 1_555 1_555
H25 C30 1_555 1_555
C31 C30 1_555 1_555
H26 C31 1_555 1_555
C32 N6 1_555 1_555
C33 C32 1_555 1_555
H28 C33 1_555 1_555
C34 C31 1_555 1_555
C35 C34 1_555 1_555
H29 C35 1_555 1_555
C36 N6 1_555 1_555
H30 C36 1_555 1_555
N7 Cd3 1_555 1_555
C37 N7 1_555 1_555
H31 C37 1_555 1_555
C38 C37 1_555 1_555
H32 C38 1_555 1_555
C39 C38 1_555 1_555
C40 C39 1_555 1_555
H33 C40 1_555 1_555
C41 N7 1_555 1_555
H34 C41 1_555 1_555
C42 C39 1_555 1_555
H35 C42 1_555 1_555
C43 C42 1_555 1_555
H36 C43 1_555 1_555
N8 C44 1_555 1_555
C44 H37 1_555 1_555
C45 C44 1_555 1_555
H38 C45 1_555 1_555
C46 C43 1_555 1_555
C47 C46 1_555 1_555
H39 C47 1_555 1_555
C48 N8 1_555 1_555
H40 C48 1_555 1_555
H44 C55 1_555 1_555
C63 O8 1_555 1_555
C64 C63 1_555 1_555
C65 C64 1_555 1_555
H49 C65 1_555 1_555
C66 C65 1_555 1_555
H50 C66 1_555 1_555
C67 S1 1_555 1_555
C68 C67 1_555 1_555
H51 C68 1_555 1_555
C69 C64 1_555 1_555
H52 C69 1_555 1_555
C70 S1 1_555 1_555
C71 C70 1_555 1_555
C72 C71 1_555 1_555
C73 C72 1_555 1_555
C74 C73 1_555 1_555
H55 C74 1_555 1_555
C75 C70 1_555 1_555
H56 C75 1_555 1_555
C76 C73 1_555 1_555
C77 O13 1_555 1_555
C78 C77 1_555 1_555
C79 C78 1_555 1_555
H57 C79 1_555 1_555
C80 C79 1_555 1_555
H58 C80 1_555 1_555
C81 S4 1_555 1_555
C82 C81 1_555 1_555
H59 C82 1_555 1_555
C83 C78 1_555 1_555
H60 C83 1_555 1_555
C84 S4 1_555 1_555
C85 C84 1_555 1_555
H61 C85 1_555 1_555
C86 C85 1_555 1_555
H62 C86 1_555 1_555
C91 O20 1_555 1_555
C92 C91 1_555 1_555
C93 C92 1_555 1_555
H65 C93 1_555 1_555
C94 C93 1_555 1_555
H66 C94 1_555 1_555
Cd11 N8 1_555 1_555
O27 Cd2 1_555 1_555
O28 Cd3 1_555 1_555
O29 Cd3 1_555 1_555
O30 Cd3 1_555 1_555
O14 C77 1_555 1_555
C4 C5 1_555 1_555
C9 C10 1_555 1_555
C11 C12 1_555 1_555
C15 C18 1_555 1_555
C16 C17 1_555 1_555
C18 C19 1_555 1_555
C21 C22 1_555 1_555
C23 C24 1_555 1_555
C28 C29 1_555 1_555
C33 C34 1_555 1_555
C35 C36 1_555 1_555
C40 C41 1_555 1_555
C45 C46 1_555 1_555
C47 C48 1_555 1_555
C54 C55 1_555 1_555
C66 C67 1_555 1_555
C68 C69 1_555 1_555
C74 C75 1_555 1_555
C80 C81 1_555 1_555
C82 C83 1_555 1_555
C94 C95 1_555 1_555
O17 C90 1_555 1_555
O18 C90 1_555 1_555
C51 C50 1_555 1_555
H41 C51 1_555 1_555
C52 C51 1_555 1_555
H42 C52 1_555 1_555
H45 C57 1_555 1_555
C58 C57 1_555 1_555
H46 C58 1_555 1_555
C88 C87 1_555 1_555
H63 C88 1_555 1_555
H64 C89 1_555 1_555
C90 C87 1_555 1_555
O17 Cd9 1_555 1_555
O18 Cd9 1_555 1_555
C52 C53 1_555 1_555
C88 C89 1_555 1_555
Cd3_2 O13_2 1_555 1_555
S4_2 O15_2 1_555 1_555
O14_2 Cd3_2 1_555 1_555
O16_2 S4_2 1_555 1_555
C7_2 C6_2 1_555 1_555
H6_2 C7_2 1_555 1_555
C9_2 C8_2 1_555 1_555
H8_2 C9_2 1_555 1_555
C10_2 C7_2 1_555 1_555
C11_2 C10_2 1_555 1_555
H9_2 C11_2 1_555 1_555
N3_2 C13_2 1_555 1_555
C13_2 H11_2 1_555 1_555
C14_2 C13_2 1_555 1_555
H12_2 C14_2 1_555 1_555
C15_2 C14_2 1_555 1_555
C16_2 C15_2 1_555 1_555
H13_2 C16_2 1_555 1_555
C17_2 N3_2 1_555 1_555
H14_2 C17_2 1_555 1_555
C18_2 C6_2 1_555 1_555
H15_2 C18_2 1_555 1_555
C19_2 C7_2 1_555 1_555
H16_2 C19_2 1_555 1_555
N4_2 Cd3_2 1_555 1_555
C20_2 N4_2 1_555 1_555
H17_2 C20_2 1_555 1_555
C21_2 C20_2 1_555 1_555
H18_2 C21_2 1_555 1_555
C22_2 C19_2 1_555 1_555
C23_2 C22_2 1_555 1_555
H19_2 C23_2 1_555 1_555
C24_2 N4_2 1_555 1_555
H20_2 C24_2 1_555 1_555
C77_2 O13_2 1_555 1_555
C78_2 C77_2 1_555 1_555
C79_2 C78_2 1_555 1_555
H57_2 C79_2 1_555 1_555
C80_2 C79_2 1_555 1_555
H58_2 C80_2 1_555 1_555
C81_2 S4_2 1_555 1_555
C82_2 C81_2 1_555 1_555
H59_2 C82_2 1_555 1_555
C83_2 C78_2 1_555 1_555
H60_2 C83_2 1_555 1_555
C84_2 S4_2 1_555 1_555
C85_2 C84_2 1_555 1_555
H61_2 C85_2 1_555 1_555
H63_2 C88_2 1_555 1_555
C89_2 C84_2 1_555 1_555
H64_2 C89_2 1_555 1_555
Cd7 N3_2 1_555 1_555
O29_2 Cd3_2 1_555 1_555
O30_2 Cd3_2 1_555 1_555
O14_2 C77_2 1_555 1_555
C9_2 C10_2 1_555 1_555
C11_2 C12_2 1_555 1_555
C15_2 C18_2 1_555 1_555
C16_2 C17_2 1_555 1_555
C18_2 C19_2 1_555 1_555
C21_2 C22_2 1_555 1_555
C23_2 C24_2 1_555 1_555
C80_2 C81_2 1_555 1_555
C82_2 C83_2 1_555 1_555
C88_2 C89_2 1_555 1_555
C37_2 N7_2 1_555 1_555
H31_2 C37_2 1_555 1_555
C38_2 C37_2 1_555 1_555
H32_2 C38_2 1_555 1_555
C39_2 C38_2 1_555 1_555
C40_2 C39_2 1_555 1_555
H33_2 C40_2 1_555 1_555
C41_2 N7_2 1_555 1_555
C42_2 C39_2 1_555 1_555
H35_2 C42_2 1_555 1_555
C43_2 C42_2 1_555 1_555
H36_2 C43_2 1_555 1_555
N8_2 C44_2 1_555 1_555
C44_2 H37_2 1_555 1_555
C45_2 C44_2 1_555 1_555
H38_2 C45_2 1_555 1_555
C46_2 C43_2 1_555 1_555
C47_2 C46_2 1_555 1_555
H39_2 C47_2 1_555 1_555
C48_2 N8_2 1_555 1_555
H40_2 C48_2 1_555 1_555
Cd12 N8_2 1_555 1_555
C40_2 C41_2 1_555 1_555
C45_2 C46_2 1_555 1_555
C47_2 C48_2 1_555 1_555
Cd10 O19_2 1_555 1_555
S3_2 O21_2 1_555 1_555
O19_2 C91_2 1_555 1_555
O20_2 Cd10 1_555 1_555
O22_2 S3_2 1_555 1_555
O23_2 C104_2 1_555 1_555
O32 C104_2 1_555 1_555
C91_2 O20_2 1_555 1_555
C92_2 C91_2 1_555 1_555
C93_2 C92_2 1_555 1_555
H65_2 C93_2 1_555 1_555
C94_2 C93_2 1_555 1_555
H66_2 C94_2 1_555 1_555
C95_2 S3_2 1_555 1_555
C96_2 C95_2 1_555 1_555
H67_2 C96_2 1_555 1_555
C97_2 C92_2 1_555 1_555
H68_2 C97_2 1_555 1_555
C98_2 S3_2 1_555 1_555
C99_2 C98_2 1_555 1_555
H69_2 C99_2 1_555 1_555
C100_2 C99_2 1_555 1_555
H70_2 C100_2 1_555 1_555
C101_2 C100_2 1_555 1_555
C102_2 C101_2 1_555 1_555
H71_2 C102_2 1_555 1_555
C103_2 C98_2 1_555 1_555
H72_2 C103_2 1_555 1_555
C104_2 C101_2 1_555 1_555
N10_2 Cd10 1_555 1_555
C94_2 C95_2 1_555 1_555
C96_2 C97_2 1_555 1_555
C102_2 C103_2 1_555 1_555
Cd5 O1_2 1_555 1_555
S2_2 O3_2 1_555 1_555
O1_2 C49_2 1_555 1_555
O2_2 Cd5 1_555 1_555
O4_2 S2_2 1_555 1_555
O5_2 C62_2 1_555 1_555
O26 C62_2 1_555 1_555
O10_2 S1_2 1_555 1_555
O11_2 C76_2 1_555 1_555
O12_2 C76_2 1_555 1_555
O17_2 C90_2 1_555 1_555
O18_2 C90_2 1_555 1_555
N1_2 Cd5 1_555 1_555
C1_2 N1_2 1_555 1_555
H1_2 C1_2 1_555 1_555
C2_2 C1_2 1_555 1_555
H2_2 C2_2 1_555 1_555
C3_2 C2_2 1_555 1_555
C4_2 C3_2 1_555 1_555
H3_2 C4_2 1_555 1_555
C5_2 N1_2 1_555 1_555
H4_2 C5_2 1_555 1_555
C49_2 O2_2 1_555 1_555
C50_2 C49_2 1_555 1_555
C51_2 C50_2 1_555 1_555
H41_2 C51_2 1_555 1_555
C52_2 C51_2 1_555 1_555
H42_2 C52_2 1_555 1_555
C53_2 S2_2 1_555 1_555
C54_2 C53_2 1_555 1_555
H43_2 C54_2 1_555 1_555
C55_2 C50_2 1_555 1_555
H44_2 C55_2 1_555 1_555
C56_2 S2_2 1_555 1_555
C57_2 C56_2 1_555 1_555
H45_2 C57_2 1_555 1_555
C58_2 C57_2 1_555 1_555
H46_2 C58_2 1_555 1_555
C59_2 C58_2 1_555 1_555
C60_2 C59_2 1_555 1_555
H47_2 C60_2 1_555 1_555
C61_2 C56_2 1_555 1_555
H48_2 C61_2 1_555 1_555
C62_2 C59_2 1_555 1_555
C63_2 O8_2 1_555 1_555
C64_2 C63_2 1_555 1_555
C67_2 S1_2 1_555 1_555
C68_2 C67_2 1_555 1_555
H51_2 C68_2 1_555 1_555
C69_2 C64_2 1_555 1_555
H52_2 C69_2 1_555 1_555
C70_2 S1_2 1_555 1_555
C71_2 C70_2 1_555 1_555
H53_2 C71_2 1_555 1_555
C72_2 C71_2 1_555 1_555
H54_2 C72_2 1_555 1_555
C73_2 C72_2 1_555 1_555
C74_2 C73_2 1_555 1_555
H55_2 C74_2 1_555 1_555
C75_2 C70_2 1_555 1_555
H56_2 C75_2 1_555 1_555
C76_2 C73_2 1_555 1_555
H62_2 C86_2 1_555 1_555
C87_2 C86_2 1_555 1_555
C90_2 C87_2 1_555 1_555
Cd8_3 O11_2 1_555 1_555
Cd9_2 O12_2 1_555 1_555
Cd11 O5_2 1_555 1_555
O31_2 Cd5 1_555 1_555
N9_2 Cd5 1_555 1_555
O17_2 Cd9_2 1_555 1_555
O18_2 Cd9_2 1_555 1_555
C4_2 C5_2 1_555 1_555
C52_2 C53_2 1_555 1_555
C54_2 C55_2 1_555 1_555
C60_2 C61_2 1_555 1_555
C68_2 C69_2 1_555 1_555
C74_2 C75_2 1_555 1_555
Cd2_3 O7_2 1_555 1_555
N5_2 Cd2_3 1_555 1_555
C25_2 N5_2 1_555 1_555
H21_2 C25_2 1_555 1_555
C26_2 C25_2 1_555 1_555
H22_2 C26_2 1_555 1_555
C27_2 C26_2 1_555 1_555
C28_2 C27_2 1_555 1_555
H23_2 C28_2 1_555 1_555
C29_2 N5_2 1_555 1_555
H24_2 C29_2 1_555 1_555
C30_2 C27_2 1_555 1_555
H25_2 C30_2 1_555 1_555
C31_2 C30_2 1_555 1_555
H26_2 C31_2 1_555 1_555
C32_2 N6_2 1_555 1_555
H27_2 C32_2 1_555 1_555
C33_2 C32_2 1_555 1_555
H28_2 C33_2 1_555 1_555
C34_2 C31_2 1_555 1_555
C35_2 C34_2 1_555 1_555
H29_2 C35_2 1_555 1_555
C36_2 N6_2 1_555 1_555
H30_2 C36_2 1_555 1_555
H49_2 C65_2 1_555 1_555
C66_2 C65_2 1_555 1_555
H50_2 C66_2 1_555 1_555
O27_2 Cd2_3 1_555 1_555
C28_2 C29_2 1_555 1_555
C33_2 C34_2 1_555 1_555
C35_2 C36_2 1_555 1_555
O29_2 C90_3 1_555 1_555
O30_2 C90_3 1_555 1_555
C51_3 C50_3 1_555 1_555
H41_3 C51_3 1_555 1_555
C52_3 C51_3 1_555 1_555
H42_3 C52_3 1_555 1_555
H45_3 C57_3 1_555 1_555
C58_3 C57_3 1_555 1_555
H46_3 C58_3 1_555 1_555
C88_3 C87_3 1_555 1_555
H63_3 C88_3 1_555 1_555
H64_3 C89_3 1_555 1_555
C90_3 C87_3 1_555 1_555
C52_3 C53_3 1_555 1_555
C88_3 C89_3 1_555 1_555
Cd6 O1_3 1_555 1_555
Cd8_3 O7_3 1_555 1_555
Cd9_2 O13_3 1_555 1_555
S4_3 O15_3 1_555 1_555
O1_3 C49_3 1_555 1_555
O7_3 C63_3 1_555 1_555
O8_3 Cd8_3 1_555 1_555
O10_3 S1_3 1_555 1_555
O28_2 C76_3 1_555 1_555
O13_3 Cd8_3 1_555 1_555
O14_3 Cd9_2 1_555 1_555
N1_3 Cd6 1_555 1_555
C1_3 N1_3 1_555 1_555
H1_3 C1_3 1_555 1_555
C2_3 C1_3 1_555 1_555
H2_3 C2_3 1_555 1_555
C3_3 C2_3 1_555 1_555
C4_3 C3_3 1_555 1_555
H3_3 C4_3 1_555 1_555
C5_3 N1_3 1_555 1_555
H4_3 C5_3 1_555 1_555
C6_3 C3_3 1_555 1_555
H5_3 C6_3 1_555 1_555
C7_3 C6_3 1_555 1_555
H6_3 C7_3 1_555 1_555
N2_3 Cd8_3 1_555 1_555
C8_3 N2_3 1_555 1_555
H7_3 C8_3 1_555 1_555
C9_3 C8_3 1_555 1_555
H8_3 C9_3 1_555 1_555
C10_3 C7_3 1_555 1_555
C11_3 C10_3 1_555 1_555
H9_3 C11_3 1_555 1_555
C12_3 N2_3 1_555 1_555
H10_3 C12_3 1_555 1_555
N9 C13_3 1_555 1_555
C14_3 C13_3 1_555 1_555
H12_3 C14_3 1_555 1_555
C15_3 C14_3 1_555 1_555
C16_3 C15_3 1_555 1_555
H13_3 C16_3 1_555 1_555
C17_3 N9 1_555 1_555
C18_3 C6_3 1_555 1_555
H15_3 C18_3 1_555 1_555
C19_3 C7_3 1_555 1_555
H16_3 C19_3 1_555 1_555
N4_3 Cd9_2 1_555 1_555
C20_3 N4_3 1_555 1_555
H17_3 C20_3 1_555 1_555
C21_3 C20_3 1_555 1_555
H18_3 C21_3 1_555 1_555
C22_3 C19_3 1_555 1_555
C23_3 C22_3 1_555 1_555
H19_3 C23_3 1_555 1_555
C24_3 N4_3 1_555 1_555
H20_3 C24_3 1_555 1_555
N5_3 Cd8_3 1_555 1_555
C25_3 N5_3 1_555 1_555
H21_3 C25_3 1_555 1_555
C26_3 C25_3 1_555 1_555
H22_3 C26_3 1_555 1_555
C27_3 C26_3 1_555 1_555
C28_3 C27_3 1_555 1_555
H23_3 C28_3 1_555 1_555
C29_3 N5_3 1_555 1_555
H24_3 C29_3 1_555 1_555
C30_3 C27_3 1_555 1_555
H25_3 C30_3 1_555 1_555
C31_3 C30_3 1_555 1_555
H26_3 C31_3 1_555 1_555
C32_3 N6_3 1_555 1_555
C33_3 C32_3 1_555 1_555
H28_3 C33_3 1_555 1_555
C34_3 C31_3 1_555 1_555
C35_3 C34_3 1_555 1_555
H29_3 C35_3 1_555 1_555
C36_3 N6_3 1_555 1_555
H30_3 C36_3 1_555 1_555
N7_3 Cd9_2 1_555 1_555
C37_3 N7_3 1_555 1_555
H31_3 C37_3 1_555 1_555
C38_3 C37_3 1_555 1_555
H32_3 C38_3 1_555 1_555
C39_3 C38_3 1_555 1_555
C40_3 C39_3 1_555 1_555
H33_3 C40_3 1_555 1_555
C41_3 N7_3 1_555 1_555
H34_3 C41_3 1_555 1_555
C42_3 C39_3 1_555 1_555
H35_3 C42_3 1_555 1_555
C43_3 C42_3 1_555 1_555
H36_3 C43_3 1_555 1_555
N10 C44_3 1_555 1_555
C44_3 H37_3 1_555 1_555
C45_3 C44_3 1_555 1_555
H38_3 C45_3 1_555 1_555
C46_3 C43_3 1_555 1_555
C47_3 C46_3 1_555 1_555
H39_3 C47_3 1_555 1_555
C48_3 N10 1_555 1_555
H40_3 C48_3 1_555 1_555
H44_3 C55_3 1_555 1_555
C63_3 O8_3 1_555 1_555
C64_3 C63_3 1_555 1_555
C65_3 C64_3 1_555 1_555
H49_3 C65_3 1_555 1_555
C66_3 C65_3 1_555 1_555
H50_3 C66_3 1_555 1_555
C67_3 S1_3 1_555 1_555
C68_3 C67_3 1_555 1_555
H51_3 C68_3 1_555 1_555
C69_3 C64_3 1_555 1_555
H52_3 C69_3 1_555 1_555
C70_3 S1_3 1_555 1_555
C71_3 C70_3 1_555 1_555
C72_3 C71_3 1_555 1_555
C73_3 C72_3 1_555 1_555
C74_3 C73_3 1_555 1_555
H55_3 C74_3 1_555 1_555
C75_3 C70_3 1_555 1_555
H56_3 C75_3 1_555 1_555
C76_3 C73_3 1_555 1_555
C77_3 O13_3 1_555 1_555
C78_3 C77_3 1_555 1_555
C79_3 C78_3 1_555 1_555
H57_3 C79_3 1_555 1_555
C80_3 C79_3 1_555 1_555
H58_3 C80_3 1_555 1_555
C81_3 S4_3 1_555 1_555
C82_3 C81_3 1_555 1_555
H59_3 C82_3 1_555 1_555
C83_3 C78_3 1_555 1_555
H60_3 C83_3 1_555 1_555
C84_3 S4_3 1_555 1_555
C85_3 C84_3 1_555 1_555
H61_3 C85_3 1_555 1_555
C86_3 C85_3 1_555 1_555
H62_3 C86_3 1_555 1_555
C91_3 O20_3 1_555 1_555
C92_3 C91_3 1_555 1_555
C93_3 C92_3 1_555 1_555
H65_3 C93_3 1_555 1_555
C94_3 C93_3 1_555 1_555
H66_3 C94_3 1_555 1_555
O14_3 C77_3 1_555 1_555
C4_3 C5_3 1_555 1_555
C9_3 C10_3 1_555 1_555
C11_3 C12_3 1_555 1_555
C15_3 C18_3 1_555 1_555
C16_3 C17_3 1_555 1_555
C18_3 C19_3 1_555 1_555
C21_3 C22_3 1_555 1_555
C23_3 C24_3 1_555 1_555
C28_3 C29_3 1_555 1_555
C33_3 C34_3 1_555 1_555
C35_3 C36_3 1_555 1_555
C40_3 C41_3 1_555 1_555
C45_3 C46_3 1_555 1_555
C47_3 C48_3 1_555 1_555
C54_3 C55_3 1_555 1_555
C66_3 C67_3 1_555 1_555
C68_3 C69_3 1_555 1_555
C74_3 C75_3 1_555 1_555
C80_3 C81_3 1_555 1_555
C82_3 C83_3 1_555 1_555
C94_3 C95_3 1_555 1_555
Cd11 O19_3 1_555 1_555
H68_3 C97_3 1_555 1_555
S2_3 O3_3 1_555 1_555
O4_3 S2_3 1_555 1_555
O25_2 C62_3 1_555 1_555
O6_2 C62_3 1_555 1_555
C56_3 S2_3 1_555 1_555
C60_3 C59_3 1_555 1_555
H47_3 C60_3 1_555 1_555
C61_3 C56_3 1_555 1_555
H48_3 C61_3 1_555 1_555
C62_3 C59_3 1_555 1_555
C60_3 C61_3 1_555 1_555
O22_3 S3_3 1_555 1_555
O31_2 C104_3 1_555 1_555
O24_2 C104_3 1_555 1_555
C98_3 S3_3 1_555 1_555
C99_3 C98_3 1_555 1_555
C100_3 C99_3 1_555 1_555
C101_3 C100_3 1_555 1_555
C102_3 C101_3 1_555 1_555
H71_3 C102_3 1_555 1_555
C103_3 C98_3 1_555 1_555
H72_3 C103_3 1_555 1_555
C104_3 C101_3 1_555 1_555
C102_3 C103_3 1_555 1_555
Cd8 O7_4 1_555 1_555
N5_4 Cd8 1_555 1_555
C25_4 N5_4 1_555 1_555
H21_4 C25_4 1_555 1_555
C26_4 C25_4 1_555 1_555
H22_4 C26_4 1_555 1_555
C27_4 C26_4 1_555 1_555
C28_4 C27_4 1_555 1_555
H23_4 C28_4 1_555 1_555
C29_4 N5_4 1_555 1_555
H24_4 C29_4 1_555 1_555
C30_4 C27_4 1_555 1_555
H25_4 C30_4 1_555 1_555
C31_4 C30_4 1_555 1_555
H26_4 C31_4 1_555 1_555
C32_4 N6_4 1_555 1_555
H27_4 C32_4 1_555 1_555
C33_4 C32_4 1_555 1_555
H28_4 C33_4 1_555 1_555
C34_4 C31_4 1_555 1_555
C35_4 C34_4 1_555 1_555
H29_4 C35_4 1_555 1_555
C36_4 N6_4 1_555 1_555
H30_4 C36_4 1_555 1_555
H49_4 C65_4 1_555 1_555
C66_4 C65_4 1_555 1_555
H50_4 C66_4 1_555 1_555
C28_4 C29_4 1_555 1_555
C33_4 C34_4 1_555 1_555
C35_4 C36_4 1_555 1_555
Cd7 O1_4 1_555 1_555
S2_4 O3_4 1_555 1_555
O1_4 C49_4 1_555 1_555
O2_4 Cd7 1_555 1_555
O4_4 S2_4 1_555 1_555
O25 C62_4 1_555 1_555
O26_2 C62_4 1_555 1_555
O10_4 S1_4 1_555 1_555
O27 C76_4 1_555 1_555
O28 C76_4 1_555 1_555
O29 C90_4 1_555 1_555
O30 C90_4 1_555 1_555
N1_4 Cd7 1_555 1_555
C1_4 N1_4 1_555 1_555
H1_4 C1_4 1_555 1_555
C2_4 C1_4 1_555 1_555
H2_4 C2_4 1_555 1_555
C3_4 C2_4 1_555 1_555
C4_4 C3_4 1_555 1_555
H3_4 C4_4 1_555 1_555
C5_4 N1_4 1_555 1_555
H4_4 C5_4 1_555 1_555
C49_4 O2_4 1_555 1_555
C50_4 C49_4 1_555 1_555
C51_4 C50_4 1_555 1_555
H41_4 C51_4 1_555 1_555
C52_4 C51_4 1_555 1_555
H42_4 C52_4 1_555 1_555
C53_4 S2_4 1_555 1_555
C54_4 C53_4 1_555 1_555
H43_4 C54_4 1_555 1_555
C55_4 C50_4 1_555 1_555
H44_4 C55_4 1_555 1_555
C56_4 S2_4 1_555 1_555
C57_4 C56_4 1_555 1_555
H45_4 C57_4 1_555 1_555
C58_4 C57_4 1_555 1_555
H46_4 C58_4 1_555 1_555
C59_4 C58_4 1_555 1_555
C60_4 C59_4 1_555 1_555
H47_4 C60_4 1_555 1_555
C61_4 C56_4 1_555 1_555
H48_4 C61_4 1_555 1_555
C62_4 C59_4 1_555 1_555
C63_4 O8_4 1_555 1_555
C64_4 C63_4 1_555 1_555
C67_4 S1_4 1_555 1_555
C68_4 C67_4 1_555 1_555
H51_4 C68_4 1_555 1_555
C69_4 C64_4 1_555 1_555
H52_4 C69_4 1_555 1_555
C70_4 S1_4 1_555 1_555
C71_4 C70_4 1_555 1_555
H53_4 C71_4 1_555 1_555
C72_4 C71_4 1_555 1_555
H54_4 C72_4 1_555 1_555
C73_4 C72_4 1_555 1_555
C74_4 C73_4 1_555 1_555
H55_4 C74_4 1_555 1_555
C75_4 C70_4 1_555 1_555
H56_4 C75_4 1_555 1_555
C76_4 C73_4 1_555 1_555
H62_4 C86_4 1_555 1_555
C87_4 C86_4 1_555 1_555
C90_4 C87_4 1_555 1_555
C4_4 C5_4 1_555 1_555
C52_4 C53_4 1_555 1_555
C54_4 C55_4 1_555 1_555
C60_4 C61_4 1_555 1_555
C68_4 C69_4 1_555 1_555
C74_4 C75_4 1_555 1_555
Cd12 O19_4 1_555 1_555
S3_4 O21_3 1_555 1_555
O19_4 C91_4 1_555 1_555
O20_4 Cd12 1_555 1_555
O22_4 S3_4 1_555 1_555
O31 C104_4 1_555 1_555
O32_2 C104_4 1_555 1_555
C91_4 O20_4 1_555 1_555
C92_4 C91_4 1_555 1_555
C93_4 C92_4 1_555 1_555
H65_4 C93_4 1_555 1_555
C94_4 C93_4 1_555 1_555
H66_4 C94_4 1_555 1_555
C95_4 S3_4 1_555 1_555
C96_3 C95_4 1_555 1_555
H67_3 C96_3 1_555 1_555
C97_4 C92_4 1_555 1_555
H68_4 C97_4 1_555 1_555
C98_4 S3_4 1_555 1_555
C99_4 C98_4 1_555 1_555
H69_4 C99_4 1_555 1_555
C100_4 C99_4 1_555 1_555
H70_4 C100_4 1_555 1_555
C101_4 C100_4 1_555 1_555
C102_4 C101_4 1_555 1_555
H71_4 C102_4 1_555 1_555
C103_4 C98_4 1_555 1_555
H72_4 C103_4 1_555 1_555
C104_4 C101_4 1_555 1_555
C94_4 C95_4 1_555 1_555
C96_3 C97_4 1_555 1_555
C102_4 C103_4 1_555 1_555
C37_4 N7_4 1_555 1_555
H31_4 C37_4 1_555 1_555
C38_4 C37_4 1_555 1_555
H32_4 C38_4 1_555 1_555
C39_4 C38_4 1_555 1_555
C40_4 C39_4 1_555 1_555
H33_4 C40_4 1_555 1_555
C41_4 N7_4 1_555 1_555
C42_4 C39_4 1_555 1_555
H35_4 C42_4 1_555 1_555
C43_4 C42_4 1_555 1_555
H36_4 C43_4 1_555 1_555
N10_2 C44_4 1_555 1_555
C44_4 H37_4 1_555 1_555
C45_4 C44_4 1_555 1_555
H38_4 C45_4 1_555 1_555
C46_4 C43_4 1_555 1_555
C47_4 C46_4 1_555 1_555
H39_4 C47_4 1_555 1_555
C48_4 N10_2 1_555 1_555
H40_4 C48_4 1_555 1_555
C40_4 C41_4 1_555 1_555
C45_4 C46_4 1_555 1_555
C47_4 C48_4 1_555 1_555
Cd9 O13_4 1_555 1_555
S4_4 O15_4 1_555 1_555
O14_4 Cd9 1_555 1_555
O16_4 S4_4 1_555 1_555
C7_4 C6_4 1_555 1_555
H6_4 C7_4 1_555 1_555
C9_4 C8_4 1_555 1_555
H8_4 C9_4 1_555 1_555
C10_4 C7_4 1_555 1_555
C11_4 C10_4 1_555 1_555
H9_4 C11_4 1_555 1_555
N9_2 C13_4 1_555 1_555
C13_4 H11_4 1_555 1_555
C14_4 C13_4 1_555 1_555
H12_4 C14_4 1_555 1_555
C15_4 C14_4 1_555 1_555
C16_4 C15_4 1_555 1_555
H13_4 C16_4 1_555 1_555
C17_4 N9_2 1_555 1_555
H14_4 C17_4 1_555 1_555
C18_4 C6_4 1_555 1_555
H15_4 C18_4 1_555 1_555
C19_4 C7_4 1_555 1_555
H16_4 C19_4 1_555 1_555
N4_4 Cd9 1_555 1_555
C20_4 N4_4 1_555 1_555
H17_4 C20_4 1_555 1_555
C21_4 C20_4 1_555 1_555
H18_4 C21_4 1_555 1_555
C22_4 C19_4 1_555 1_555
C23_4 C22_4 1_555 1_555
H19_4 C23_4 1_555 1_555
C24_4 N4_4 1_555 1_555
H20_4 C24_4 1_555 1_555
C77_4 O13_4 1_555 1_555
C78_4 C77_4 1_555 1_555
C79_4 C78_4 1_555 1_555
H57_4 C79_4 1_555 1_555
C80_4 C79_4 1_555 1_555
H58_4 C80_4 1_555 1_555
C81_4 S4_4 1_555 1_555
C82_4 C81_4 1_555 1_555
H59_4 C82_4 1_555 1_555
C83_4 C78_4 1_555 1_555
H60_4 C83_4 1_555 1_555
C84_4 S4_4 1_555 1_555
C85_4 C84_4 1_555 1_555
H61_4 C85_4 1_555 1_555
H63_4 C88_4 1_555 1_555
C89_4 C84_4 1_555 1_555
H64_4 C89_4 1_555 1_555
O14_4 C77_4 1_555 1_555
C9_4 C10_4 1_555 1_555
C11_4 C12_4 1_555 1_555
C15_4 C18_4 1_555 1_555
C16_4 C17_4 1_555 1_555
C18_4 C19_4 1_555 1_555
C21_4 C22_4 1_555 1_555
C23_4 C24_4 1_555 1_555
C80_4 C81_4 1_555 1_555
C82_4 C83_4 1_555 1_555
C88_4 C89_4 1_555 1_555
H67_4 C96_4 1_555 1_555

#END
