
###############################################################################
#
# This file contains modified crystal structure data generated from the
# MOF subset of the Cambridge Structural Database (CSD) v543 
# hosted by the Cambridge Crystallographic Data Centre (CCDC).
#
# This work is licensed under the Creative Commons
# Attribution-NonCommercial-ShareAlike 4.0 International License.
# To view a copy of this license, visit
# http://creativecommons.org/licenses/by-nc-sa/4.0/
# or send a letter to
# Creative Commons, PO Box 1866, Mountain View, CA 94042, USA.
#
# CIF created using the CSD Python API on 29 September 2022
# The structure has been converted into the P1 space group
# The structure has a 3D framework
# The original CSD entry NOWQOI is in the monoclinic crystal system
# The framework has been calculated to contain at least 10.0% void space
# The void calculation uses a probe of radius 1.32A, grid spacing 0.4
#
###############################################################################

data_NOWQOI
_chemical_formula_moiety         '(C416 H328 Cu16 N8 O112)n'
_symmetry_cell_setting           triclinic
_symmetry_space_group_name_H-M   'P 1'
_symmetry_Int_Tables_number      1
_space_group_name_Hall           'P 1'
loop_
_symmetry_equiv_pos_site_id
_symmetry_equiv_pos_as_xyz
1 x,y,z
_cell_length_a                   32.915(4)
_cell_length_b                   16.124(2)
_cell_length_c                   34.303(4)
_cell_angle_alpha                90
_cell_angle_beta                 91.696(4)
_cell_angle_gamma                90
_cell_volume                     18197.4
loop_
_atom_site_label
_atom_site_type_symbol
_atom_site_fract_x
_atom_site_fract_y
_atom_site_fract_z
Cu1 Cu 0.38487(2) 0.20036(6) 0.07100(2)
Cu2 Cu 0.41355(2) 0.35197(6) 0.07770(2)
O3 O 0.34873(11) 0.7488(4) 0.53030(12)
O4 O 0.37160(13) 0.6188(3) 0.53766(13)
O5 O 0.37030(14) 0.3545(3) 0.11729(11)
O6 O 0.34463(13) 0.2256(4) 0.11042(13)
O9 O 0.09004(12) 0.4568(3) 0.36789(11)
O10 O 0.19663(14) 0.4578(3) 0.37204(14)
O11 O 0.19746(14) 0.4751(3) 0.27927(13)
O12 O 0.09164(15) 0.4798(3) 0.27305(13)
O13 O 0.43467(15) 0.4733(3) 0.08670(16)
H1 H 0.418388 0.527840 0.094165
H2 H 0.464584 0.497424 0.084156
O14 O 0.36554(10) 0.0757(3) 0.05679(12)
C1 C 0.01187(18) 0.3761(5) 0.45323(16)
C2 C 0.01840(17) 0.4557(5) 0.44537(17)
H3 H 0.003952 0.495987 0.459697
C3 C 0.04491(17) 0.4837(5) 0.41764(18)
H4 H 0.049274 0.541273 0.413606
C4 C 0.06539(17) 0.4228(5) 0.39538(17)
C5 C 0.06152(17) 0.3416(6) 0.40242(18)
H5 H 0.075784 0.301491 0.387842
C6 C 0.03470(18) 0.3172(5) 0.43320(18)
C7 C 0.0287(2) 0.2330(6) 0.4431(2)
H6 H 0.043154 0.190859 0.430063
C8 C 0.0013(2) 0.2115(4) 0.4722(2)
C11 C 0.25710(18) 0.6021(6) 0.4363(2)
C12 C 0.22671(19) 0.5702(6) 0.40806(18)
H9 H 0.207647 0.607664 0.396479
C13 C 0.2248(3) 0.4890(6) 0.3979(2)
C14 C 0.2533(3) 0.4330(5) 0.4128(3)
H10 H 0.253607 0.377240 0.403793
C15 C 0.2816(2) 0.4598(7) 0.4412(2)
H11 H 0.299113 0.420343 0.453521
C16 C 0.2848(2) 0.5425(6) 0.4518(2)
C17 C 0.31510(19) 0.5694(6) 0.48022(19)
H12 H 0.333761 0.530219 0.491077
C18 C 0.3174(2) 0.6481(6) 0.49146(19)
C19 C 0.2898(2) 0.7061(5) 0.4745(2)
H13 H 0.291793 0.762810 0.481878
C20 C 0.2608(2) 0.6833(6) 0.4484(2)
H14 H 0.242562 0.723805 0.437979
C21 C 0.2825(2) 0.4157(6) 0.1989(2)
C22 C 0.2787(3) 0.4958(7) 0.2138(2)
H15 H 0.296411 0.538607 0.205800
C23 C 0.2487(3) 0.5122(6) 0.2403(2)
H16 H 0.245454 0.567058 0.249887
C24 C 0.2229(3) 0.4488(8) 0.2532(2)
C25 C 0.2272(2) 0.3715(7) 0.2409(2)
H17 H 0.210377 0.328938 0.250671
C26 C 0.2580(2) 0.3512(7) 0.21203(19)
C27 C 0.2602(3) 0.2707(6) 0.1979(2)
H18 H 0.242856 0.227845 0.206535
C28 C 0.2904(3) 0.2563(6) 0.1694(2)
H19 H 0.292486 0.201861 0.159084
C29 C 0.3166(2) 0.3154(7) 0.1558(2)
C30 C 0.3126(2) 0.3955(6) 0.1693(2)
H20 H 0.329405 0.438081 0.159465
C31 C 0.01246(19) 0.5770(5) 0.19121(18)
C32 C 0.0163(3) 0.4938(6) 0.1968(2)
C33 C 0.0434(3) 0.4637(5) 0.2236(2)
H22 H 0.045235 0.405519 0.227796
C34 C 0.0693(3) 0.5178(7) 0.2457(3)
C35 C 0.06637(19) 0.6010(6) 0.24074(18)
H23 H 0.083240 0.636414 0.256347
C36 C 0.0383(2) 0.6375(5) 0.21234(19)
C37 C 0.0337(2) 0.7177(5) 0.2059(2)
H24 H 0.049396 0.755575 0.221304
C38 C 0.0068(2) 0.7493(5) 0.17749(19)
H25 H 0.006617 0.806915 0.171703
C42 C 0.3490(2) 0.6715(6) 0.5230(2)
C43 C 0.3460(2) 0.2935(7) 0.1253(2)
C45 C 0.14274(18) 0.4667(4) 0.32370(17)
C46 C 0.11565(18) 0.4078(4) 0.34563(16)
H27 H 0.099462 0.373155 0.327102
H28 H 0.132279 0.370866 0.362746
C47 C 0.16998(19) 0.5144(5) 0.35215(17)
H29 H 0.186004 0.555983 0.337932
H30 H 0.153235 0.544067 0.371196
C48 C 0.1692(2) 0.4149(5) 0.29688(17)
H31 H 0.184468 0.372206 0.311977
H32 H 0.152274 0.387182 0.276423
C49 C 0.11830(19) 0.5273(4) 0.30022(18)
H33 H 0.101780 0.562013 0.317508
H34 H 0.136428 0.564054 0.285499
C50 C 0.3468(4) 0.0580(8) 0.0284(3)
H35 H 0.337697 0.103282 0.012722
Cu4 Cu 0.38487(2) 0.79964(6) 0.57100(2)
Cu7 Cu 0.41355(2) 0.64803(6) 0.57770(2)
O15 O 0.42807(14) 0.1944(3) 0.03451(12)
O16 O 0.45091(13) 0.3240(4) 0.03553(14)
O17 O 0.34873(11) 0.2512(4) 0.03030(12)
O18 O 0.37160(13) 0.3812(3) 0.03766(13)
O19 O 0.45138(13) 0.3026(4) 0.11675(13)
O20 O 0.42346(15) 0.1743(4) 0.11358(14)
O1 O 0.92807(14) 0.3056(3) 0.53451(12)
O2 O 0.95091(13) 0.1760(4) 0.53553(14)
O7 O 0.95138(13) 0.8026(4) 0.11675(13)
O8 O 0.92346(15) 0.6743(4) 0.11358(14)
H7 H 0.997439 0.154555 0.478117
C9 C 0.97983(18) 0.2700(6) 0.49227(18)
C10 C 0.98525(17) 0.3511(5) 0.48277(15)
H8 H 0.970706 0.392331 0.496379
H21 H 0.999760 0.456572 0.181845
C39 C 0.9798(2) 0.6948(5) 0.1573(2)
C40 C 0.9835(2) 0.6157(5) 0.1627(2)
H26 H 0.966575 0.579949 0.147412
C41 C 0.9504(2) 0.2473(7) 0.5236(2)
C44 C 0.9495(3) 0.7289(8) 0.1260(2)
Cu3 Cu 0.88487(2) 0.70036(6) 0.07100(2)
Cu5 Cu 0.88487(2) 0.29964(6) 0.57100(2)
Cu6 Cu 0.91355(2) 0.85197(6) 0.07770(2)
Cu8 Cu 0.91355(2) 0.14803(6) 0.57770(2)
O3_2 O 0.84873(11) 0.2488(4) 0.53030(12)
O4_2 O 0.87160(13) 0.1188(3) 0.53766(13)
H1_2 H 0.918388 0.027840 0.094165
H4_2 H 0.549274 0.041273 0.413606
C11_2 C 0.75710(18) 0.1021(6) 0.4363(2)
C12_2 C 0.72671(19) 0.0702(6) 0.40806(18)
H9_2 H 0.707647 0.107664 0.396479
C16_2 C 0.7848(2) 0.0425(6) 0.4518(2)
C17_2 C 0.81510(19) 0.0694(6) 0.48022(19)
H12_2 H 0.833761 0.030219 0.491077
C18_2 C 0.8174(2) 0.1481(6) 0.49146(19)
C19_2 C 0.7898(2) 0.2061(5) 0.4745(2)
H13_2 H 0.791793 0.262810 0.481878
C20_2 C 0.7608(2) 0.1833(6) 0.4484(2)
H14_2 H 0.742562 0.223805 0.437979
H15_2 H 0.796411 0.038607 0.205800
C23_2 C 0.7487(3) 0.0122(6) 0.2403(2)
H16_2 H 0.745454 0.067058 0.249887
C31_2 C 0.51246(19) 0.0770(5) 0.19121(18)
C34_2 C 0.5693(3) 0.0178(7) 0.2457(3)
C35_2 C 0.56637(19) 0.1010(6) 0.24074(18)
H23_2 H 0.583240 0.136414 0.256347
C36_2 C 0.5383(2) 0.1375(5) 0.21234(19)
C37_2 C 0.5337(2) 0.2177(5) 0.2059(2)
H24_2 H 0.549396 0.255575 0.221304
C38_2 C 0.5068(2) 0.2493(5) 0.17749(19)
H25_2 H 0.506617 0.306915 0.171703
C39_2 C 0.4798(2) 0.1948(5) 0.1573(2)
C40_2 C 0.4835(2) 0.1157(5) 0.1627(2)
H26_2 H 0.466575 0.079949 0.147412
C42_2 C 0.8490(2) 0.1715(6) 0.5230(2)
C44_2 C 0.4495(3) 0.2289(8) 0.1260(2)
C47_2 C 0.66998(19) 0.0144(5) 0.35215(17)
H29_2 H 0.686004 0.055983 0.337932
H30_2 H 0.653235 0.044067 0.371196
C49_2 C 0.61830(19) 0.0273(4) 0.30022(18)
H33_2 H 0.601780 0.062013 0.317508
H34_2 H 0.636428 0.064054 0.285499
O1_2 O 0.42807(14) 0.8056(3) 0.53451(12)
O2_2 O 0.45091(13) 0.6760(4) 0.53553(14)
O5_2 O 0.87030(14) 0.8545(3) 0.11729(11)
O6_2 O 0.84463(13) 0.7256(4) 0.11042(13)
O9_2 O 0.59004(12) 0.9568(3) 0.36789(11)
O10_2 O 0.69663(14) 0.9578(3) 0.37204(14)
O11_2 O 0.69746(14) 0.9751(3) 0.27927(13)
O12_2 O 0.59164(15) 0.9798(3) 0.27305(13)
O13_2 O 0.93467(15) 0.9733(3) 0.08670(16)
H2_2 H 0.964584 0.997424 0.084156
O14_2 O 0.86554(10) 0.5757(3) 0.05679(12)
N1 N 0.8372(3) 0.4865(7) 0.0158(2)
C1_2 C 0.51187(18) 0.8761(5) 0.45323(16)
C2_2 C 0.51840(17) 0.9557(5) 0.44537(17)
H3_2 H 0.503952 0.995987 0.459697
C3_2 C 0.54491(17) 0.9837(5) 0.41764(18)
C4_2 C 0.56539(17) 0.9228(5) 0.39538(17)
C5_2 C 0.56152(17) 0.8416(6) 0.40242(18)
H5_2 H 0.575784 0.801491 0.387842
C6_2 C 0.53470(18) 0.8172(5) 0.43320(18)
C7_2 C 0.5287(2) 0.7330(6) 0.4431(2)
H6_2 H 0.543154 0.690859 0.430063
C8_2 C 0.5013(2) 0.7115(4) 0.4722(2)
H7_2 H 0.497439 0.654555 0.478117
C9_2 C 0.47983(18) 0.7700(6) 0.49227(18)
C10_2 C 0.48525(17) 0.8511(5) 0.48277(15)
H8_2 H 0.470706 0.892331 0.496379
C13_2 C 0.7248(3) 0.9890(6) 0.3979(2)
C14_2 C 0.7533(3) 0.9330(5) 0.4128(3)
H10_2 H 0.753607 0.877240 0.403793
C15_2 C 0.7816(2) 0.9598(7) 0.4412(2)
H11_2 H 0.799113 0.920343 0.453521
C21_2 C 0.7825(2) 0.9157(6) 0.1989(2)
C22_2 C 0.7787(3) 0.9958(7) 0.2138(2)
C24_2 C 0.7229(3) 0.9488(8) 0.2532(2)
C25_2 C 0.7272(2) 0.8715(7) 0.2409(2)
H17_2 H 0.710377 0.828938 0.250671
C26_2 C 0.7580(2) 0.8512(7) 0.21203(19)
C27_2 C 0.7602(3) 0.7707(6) 0.1979(2)
H18_2 H 0.742856 0.727845 0.206535
C28_2 C 0.7904(3) 0.7563(6) 0.1694(2)
H19_2 H 0.792486 0.701861 0.159084
C29_2 C 0.8166(2) 0.8154(7) 0.1558(2)
C30_2 C 0.8126(2) 0.8955(6) 0.1693(2)
H20_2 H 0.829405 0.938081 0.159465
C32_2 C 0.5163(3) 0.9938(6) 0.1968(2)
H21_2 H 0.499760 0.956572 0.181845
C33_2 C 0.5434(3) 0.9637(5) 0.2236(2)
H22_2 H 0.545235 0.905519 0.227796
C41_2 C 0.4504(2) 0.7473(7) 0.5236(2)
C43_2 C 0.8460(2) 0.7935(7) 0.1253(2)
C45_2 C 0.64274(18) 0.9667(4) 0.32370(17)
C46_2 C 0.61565(18) 0.9078(4) 0.34563(16)
H27_2 H 0.599462 0.873155 0.327102
H28_2 H 0.632279 0.870866 0.362746
C48_2 C 0.6692(2) 0.9149(5) 0.29688(17)
H31_2 H 0.684468 0.872206 0.311977
H32_2 H 0.652274 0.887182 0.276423
C50_2 C 0.8468(4) 0.5580(8) 0.0284(3)
H35_2 H 0.837697 0.603282 0.012722
C51 C 0.8484(4) 0.4142(7) 0.0374(2)
H36 H 0.872846 0.389759 0.026507
H37 H 0.826127 0.373819 0.035789
H38 H 0.853867 0.429129 0.064733
O15_2 O 0.92807(14) 0.6944(3) 0.03451(12)
O16_2 O 0.95091(13) 0.8240(4) 0.03553(14)
O17_2 O 0.84873(11) 0.7512(4) 0.03030(12)
O18_2 O 0.87160(13) 0.8812(3) 0.03766(13)
C42_3 C 0.3490(2) 0.3285(6) 0.0230(2)
O5_3 O 0.37030(14) 0.6455(3) 0.61729(11)
O6_3 O 0.34463(13) 0.7744(4) 0.61042(13)
O9_3 O 0.09004(12) 0.5432(3) 0.86789(11)
O10_3 O 0.19663(14) 0.5422(3) 0.87204(14)
O11_3 O 0.19746(14) 0.5249(3) 0.77927(13)
O12_3 O 0.09164(15) 0.5202(3) 0.77305(13)
O13_3 O 0.43467(15) 0.5267(3) 0.58670(16)
H1_3 H 0.418388 0.472160 0.594165
H2_3 H 0.464584 0.502576 0.584156
O14_3 O 0.36554(10) 0.9243(3) 0.55679(12)
C1_3 C 0.01187(18) 0.6239(5) 0.95323(16)
C2_3 C 0.01840(17) 0.5443(5) 0.94537(17)
H3_3 H 0.003952 0.504013 0.959697
C3_3 C 0.04491(17) 0.5163(5) 0.91764(18)
H4_3 H 0.049274 0.458727 0.913606
C4_3 C 0.06539(17) 0.5772(5) 0.89538(17)
C5_3 C 0.06152(17) 0.6584(6) 0.90242(18)
H5_3 H 0.075784 0.698509 0.887842
C6_3 C 0.03470(18) 0.6828(5) 0.93320(18)
C7_3 C 0.0287(2) 0.7670(6) 0.9431(2)
H6_3 H 0.043154 0.809141 0.930063
C8_3 C 0.0013(2) 0.7885(4) 0.9722(2)
C11_3 C 0.25710(18) 0.3979(6) 0.9363(2)
C12_3 C 0.22671(19) 0.4298(6) 0.90806(18)
H9_3 H 0.207647 0.392336 0.896479
C13_3 C 0.2248(3) 0.5110(6) 0.8979(2)
C14_3 C 0.2533(3) 0.5670(5) 0.9128(3)
H10_3 H 0.253607 0.622760 0.903793
C15_3 C 0.2816(2) 0.5402(7) 0.9412(2)
H11_3 H 0.299113 0.579657 0.953521
C16_3 C 0.2848(2) 0.4575(6) 0.9518(2)
C17_3 C 0.31510(19) 0.4306(6) 0.98022(19)
H12_3 H 0.333761 0.469781 0.991077
C18_3 C 0.3174(2) 0.3519(6) 0.99146(19)
C19_3 C 0.2898(2) 0.2939(5) 0.9745(2)
H13_3 H 0.291793 0.237190 0.981878
C20_3 C 0.2608(2) 0.3167(6) 0.9484(2)
H14_3 H 0.242562 0.276195 0.937979
C21_3 C 0.2825(2) 0.5843(6) 0.6989(2)
C22_3 C 0.2787(3) 0.5042(7) 0.7138(2)
H15_3 H 0.296411 0.461393 0.705800
C23_3 C 0.2487(3) 0.4878(6) 0.7403(2)
H16_3 H 0.245454 0.432942 0.749887
C24_3 C 0.2229(3) 0.5512(8) 0.7532(2)
C25_3 C 0.2272(2) 0.6285(7) 0.7409(2)
H17_3 H 0.210377 0.671062 0.750671
C26_3 C 0.2580(2) 0.6488(7) 0.71203(19)
C27_3 C 0.2602(3) 0.7293(6) 0.6979(2)
H18_3 H 0.242856 0.772155 0.706535
C28_3 C 0.2904(3) 0.7437(6) 0.6694(2)
H19_3 H 0.292486 0.798139 0.659084
C29_3 C 0.3166(2) 0.6846(7) 0.6558(2)
C30_3 C 0.3126(2) 0.6045(6) 0.6693(2)
H20_3 H 0.329405 0.561919 0.659465
C31_3 C 0.01246(19) 0.4230(5) 0.69121(18)
C32_3 C 0.0163(3) 0.5062(6) 0.6968(2)
C33_3 C 0.0434(3) 0.5363(5) 0.7236(2)
H22_3 H 0.045235 0.594481 0.727796
C34_3 C 0.0693(3) 0.4822(7) 0.7457(3)
C35_3 C 0.06637(19) 0.3990(6) 0.74074(18)
H23_3 H 0.083240 0.363586 0.756347
C36_3 C 0.0383(2) 0.3625(5) 0.71234(19)
C37_3 C 0.0337(2) 0.2823(5) 0.7059(2)
H24_3 H 0.049396 0.244425 0.721304
C38_3 C 0.0068(2) 0.2507(5) 0.67749(19)
H25_3 H 0.006617 0.193085 0.671703
C43_3 C 0.3460(2) 0.7065(7) 0.6253(2)
C45_3 C 0.14274(18) 0.5333(4) 0.82370(17)
C46_3 C 0.11565(18) 0.5922(4) 0.84563(16)
H27_3 H 0.099462 0.626845 0.827102
H28_3 H 0.132279 0.629134 0.862746
C47_3 C 0.16998(19) 0.4856(5) 0.85215(17)
H29_3 H 0.186004 0.444017 0.837932
H30_3 H 0.153235 0.455933 0.871196
C48_3 C 0.1692(2) 0.5851(5) 0.79688(17)
H31_3 H 0.184468 0.627794 0.811977
H32_3 H 0.152274 0.612818 0.776423
C49_3 C 0.11830(19) 0.4727(4) 0.80022(18)
H33_3 H 0.101780 0.437987 0.817508
H34_3 H 0.136428 0.435946 0.785499
C50_3 C 0.3468(4) 0.9420(8) 0.5284(3)
H35_3 H 0.337697 0.896718 0.512722
H41 H 0.304003 0.971157 0.466053
O19_2 O 0.45138(13) 0.6974(4) 0.61675(13)
O20_2 O 0.42346(15) 0.8257(4) 0.61358(14)
C41_3 C 0.9504(2) 0.7527(7) 0.0236(2)
O7_2 O 0.95138(13) 0.1974(4) 0.61675(13)
O8_2 O 0.92346(15) 0.3257(4) 0.61358(14)
H7_3 H 0.997439 0.845445 0.978117
C9_3 C 0.97983(18) 0.7300(6) 0.99227(18)
C10_3 C 0.98525(17) 0.6489(5) 0.98277(15)
H8_3 H 0.970706 0.607669 0.996379
H21_3 H 0.999760 0.543428 0.681845
C39_3 C 0.9798(2) 0.3052(5) 0.6573(2)
C40_3 C 0.9835(2) 0.3843(5) 0.6627(2)
H26_3 H 0.966575 0.420051 0.647412
C44_3 C 0.9495(3) 0.2711(8) 0.6260(2)
C41_4 C 0.4504(2) 0.2527(7) 0.0236(2)
O5_4 O 0.87030(14) 0.1455(3) 0.61729(11)
O6_4 O 0.84463(13) 0.2744(4) 0.61042(13)
O9_4 O 0.59004(12) 0.0432(3) 0.86789(11)
O10_4 O 0.69663(14) 0.0422(3) 0.87204(14)
O11_4 O 0.69746(14) 0.0249(3) 0.77927(13)
O12_4 O 0.59164(15) 0.0202(3) 0.77305(13)
O13_4 O 0.93467(15) 0.0267(3) 0.58670(16)
H2_4 H 0.964584 0.002576 0.584156
O14_4 O 0.86554(10) 0.4243(3) 0.55679(12)
N1_2 N 0.8372(3) 0.5135(7) 0.5158(2)
C1_4 C 0.51187(18) 0.1239(5) 0.95323(16)
C2_4 C 0.51840(17) 0.0443(5) 0.94537(17)
H3_4 H 0.503952 0.004013 0.959697
C3_4 C 0.54491(17) 0.0163(5) 0.91764(18)
C4_4 C 0.56539(17) 0.0772(5) 0.89538(17)
C5_4 C 0.56152(17) 0.1584(6) 0.90242(18)
H5_4 H 0.575784 0.198509 0.887842
C6_4 C 0.53470(18) 0.1828(5) 0.93320(18)
C7_4 C 0.5287(2) 0.2670(6) 0.9431(2)
H6_4 H 0.543154 0.309141 0.930063
C8_4 C 0.5013(2) 0.2885(4) 0.9722(2)
H7_4 H 0.497439 0.345445 0.978117
C9_4 C 0.47983(18) 0.2300(6) 0.99227(18)
C10_4 C 0.48525(17) 0.1489(5) 0.98277(15)
H8_4 H 0.470706 0.107669 0.996379
C13_4 C 0.7248(3) 0.0110(6) 0.8979(2)
C14_4 C 0.7533(3) 0.0670(5) 0.9128(3)
H10_4 H 0.753607 0.122760 0.903793
C15_4 C 0.7816(2) 0.0402(7) 0.9412(2)
H11_4 H 0.799113 0.079657 0.953521
C21_4 C 0.7825(2) 0.0843(6) 0.6989(2)
C22_4 C 0.7787(3) 0.0042(7) 0.7138(2)
C24_4 C 0.7229(3) 0.0512(8) 0.7532(2)
C25_4 C 0.7272(2) 0.1285(7) 0.7409(2)
H17_4 H 0.710377 0.171062 0.750671
C26_4 C 0.7580(2) 0.1488(7) 0.71203(19)
C27_4 C 0.7602(3) 0.2293(6) 0.6979(2)
H18_4 H 0.742856 0.272155 0.706535
C28_4 C 0.7904(3) 0.2437(6) 0.6694(2)
H19_4 H 0.792486 0.298139 0.659084
C29_4 C 0.8166(2) 0.1846(7) 0.6558(2)
C30_4 C 0.8126(2) 0.1045(6) 0.6693(2)
H20_4 H 0.829405 0.061919 0.659465
C32_4 C 0.5163(3) 0.0062(6) 0.6968(2)
H21_4 H 0.499760 0.043428 0.681845
C33_4 C 0.5434(3) 0.0363(5) 0.7236(2)
H22_4 H 0.545235 0.094481 0.727796
C43_4 C 0.8460(2) 0.2065(7) 0.6253(2)
C45_4 C 0.64274(18) 0.0333(4) 0.82370(17)
C46_4 C 0.61565(18) 0.0922(4) 0.84563(16)
H27_4 H 0.599462 0.126845 0.827102
H28_4 H 0.632279 0.129134 0.862746
C48_4 C 0.6692(2) 0.0851(5) 0.79688(17)
H31_4 H 0.684468 0.127794 0.811977
H32_4 H 0.652274 0.112818 0.776423
C50_4 C 0.8468(4) 0.4420(8) 0.5284(3)
H35_4 H 0.837697 0.396718 0.512722
C51_2 C 0.8484(4) 0.5858(7) 0.5374(2)
H36_2 H 0.872846 0.610241 0.526507
H37_2 H 0.826127 0.626181 0.535789
H38_2 H 0.853867 0.570871 0.564733
C52 C 0.8034(4) 0.5207(7) 0.4826(2)
H39 H 0.776698 0.525397 0.494272
H40 H 0.808480 0.569980 0.466746
H41_2 H 0.804003 0.471157 0.466053
C42_4 C 0.8490(2) 0.8285(6) 0.0230(2)
H1_4 H 0.918388 0.972160 0.594165
H4_4 H 0.549274 0.958727 0.913606
C11_4 C 0.75710(18) 0.8979(6) 0.9363(2)
C12_4 C 0.72671(19) 0.9298(6) 0.90806(18)
H9_4 H 0.707647 0.892336 0.896479
C16_4 C 0.7848(2) 0.9575(6) 0.9518(2)
C17_4 C 0.81510(19) 0.9306(6) 0.98022(19)
H12_4 H 0.833761 0.969781 0.991077
C18_4 C 0.8174(2) 0.8519(6) 0.99146(19)
C19_4 C 0.7898(2) 0.7939(5) 0.9745(2)
H13_4 H 0.791793 0.737190 0.981878
C20_4 C 0.7608(2) 0.8167(6) 0.9484(2)
H14_4 H 0.742562 0.776195 0.937979
H15_4 H 0.796411 0.961393 0.705800
C23_4 C 0.7487(3) 0.9878(6) 0.7403(2)
H16_4 H 0.745454 0.932942 0.749887
C31_4 C 0.51246(19) 0.9230(5) 0.69121(18)
C34_4 C 0.5693(3) 0.9822(7) 0.7457(3)
C35_4 C 0.56637(19) 0.8990(6) 0.74074(18)
H23_4 H 0.583240 0.863586 0.756347
C36_4 C 0.5383(2) 0.8625(5) 0.71234(19)
C37_4 C 0.5337(2) 0.7823(5) 0.7059(2)
H24_4 H 0.549396 0.744425 0.721304
C38_4 C 0.5068(2) 0.7507(5) 0.67749(19)
H25_4 H 0.506617 0.693085 0.671703
C39_4 C 0.4798(2) 0.8052(5) 0.6573(2)
C40_4 C 0.4835(2) 0.8843(5) 0.6627(2)
H26_4 H 0.466575 0.920051 0.647412
C44_4 C 0.4495(3) 0.7711(8) 0.6260(2)
C47_4 C 0.66998(19) 0.9856(5) 0.85215(17)
H29_4 H 0.686004 0.944017 0.837932
H30_4 H 0.653235 0.955933 0.871196
C49_4 C 0.61830(19) 0.9727(4) 0.80022(18)
H33_4 H 0.601780 0.937987 0.817508
H34_4 H 0.636428 0.935946 0.785499
H41_3 H 0.304003 0.028843 0.966053
N1_3 N 0.3372(3) 0.9865(7) 0.0158(2)
C51_3 C 0.3484(4) 0.9142(7) 0.0374(2)
H36_3 H 0.372846 0.889759 0.026507
H37_3 H 0.326127 0.873819 0.035789
H38_3 H 0.353867 0.929129 0.064733
C52_2 C 0.3034(4) 0.9793(7) 0.9826(2)
H39_2 H 0.276698 0.974603 0.994272
H40_2 H 0.308480 0.930020 0.966746
O7_3 O 0.04862(13) 0.8026(4) 0.38325(13)
O8_3 O 0.07654(15) 0.6743(4) 0.38642(14)
H7_5 H 0.002561 0.154555 0.021883
C9_5 C 0.02017(18) 0.2700(6) 0.00773(18)
C10_5 C 0.01475(17) 0.3511(5) 0.01723(15)
H8_5 H 0.029294 0.392331 0.003621
H21_5 H 0.000240 0.456572 0.318155
C39_5 C 0.0202(2) 0.6948(5) 0.3427(2)
C40_5 C 0.0165(2) 0.6157(5) 0.3373(2)
H26_5 H 0.033425 0.579949 0.352588
C44_5 C 0.0505(3) 0.7289(8) 0.3740(2)
Cu3_2 Cu 0.11513(2) 0.70036(6) 0.42900(2)
Cu6_2 Cu 0.08645(2) 0.85197(6) 0.42230(2)
O1_3 O 0.07193(14) 0.3056(3) 0.96549(12)
O2_3 O 0.04909(13) 0.1760(4) 0.96447(14)
C41_5 C 0.0496(2) 0.2473(7) 0.9764(2)
Cu5_2 Cu 0.11513(2) 0.29964(6) 0.92900(2)
Cu8_2 Cu 0.08645(2) 0.14803(6) 0.92230(2)
Cu1_2 Cu 0.61513(2) 0.20036(6) 0.42900(2)
Cu2_2 Cu 0.58645(2) 0.35197(6) 0.42230(2)
O5_5 O 0.62970(14) 0.3545(3) 0.38271(11)
O6_5 O 0.65537(13) 0.2256(4) 0.38958(13)
O9_5 O 0.90996(12) 0.4568(3) 0.13211(11)
O10_5 O 0.80337(14) 0.4578(3) 0.12796(14)
O11_5 O 0.80254(14) 0.4751(3) 0.22073(13)
O12_5 O 0.90836(15) 0.4798(3) 0.22695(13)
O13_5 O 0.56533(15) 0.4733(3) 0.41330(16)
H1_5 H 0.581612 0.527840 0.405835
H2_5 H 0.535416 0.497424 0.415844
O14_5 O 0.63446(10) 0.0757(3) 0.44321(12)
C1_5 C 0.98813(18) 0.3761(5) 0.04677(16)
C2_5 C 0.98160(17) 0.4557(5) 0.05463(17)
H3_5 H 0.996048 0.495987 0.040303
C3_5 C 0.95509(17) 0.4837(5) 0.08236(18)
H4_5 H 0.950726 0.541273 0.086394
C4_5 C 0.93461(17) 0.4228(5) 0.10462(17)
C5_5 C 0.93848(17) 0.3416(6) 0.09758(18)
H5_5 H 0.924216 0.301491 0.112158
C6_5 C 0.96530(18) 0.3172(5) 0.06680(18)
C7_5 C 0.9713(2) 0.2330(6) 0.0569(2)
H6_5 H 0.956846 0.190859 0.069937
C8_5 C 0.9987(2) 0.2115(4) 0.0278(2)
C11_5 C 0.74290(18) 0.6021(6) 0.0637(2)
C12_5 C 0.77329(19) 0.5702(6) 0.09194(18)
H9_5 H 0.792353 0.607664 0.103521
C13_5 C 0.7752(3) 0.4890(6) 0.1021(2)
C14_5 C 0.7467(3) 0.4330(5) 0.0872(3)
H10_5 H 0.746393 0.377240 0.096207
C15_5 C 0.7184(2) 0.4598(7) 0.0588(2)
H11_5 H 0.700887 0.420343 0.046479
C16_5 C 0.7152(2) 0.5425(6) 0.0482(2)
C17_5 C 0.68490(19) 0.5694(6) 0.01978(19)
H12_5 H 0.666239 0.530219 0.008923
C18_5 C 0.6826(2) 0.6481(6) 0.00854(19)
C19_5 C 0.7102(2) 0.7061(5) 0.0255(2)
H13_5 H 0.708207 0.762810 0.018122
C20_5 C 0.7392(2) 0.6833(6) 0.0516(2)
H14_5 H 0.757438 0.723805 0.062021
C21_5 C 0.7175(2) 0.4157(6) 0.3011(2)
C22_5 C 0.7213(3) 0.4958(7) 0.2862(2)
H15_5 H 0.703589 0.538607 0.294200
C23_5 C 0.7513(3) 0.5122(6) 0.2597(2)
H16_5 H 0.754546 0.567058 0.250113
C24_5 C 0.7771(3) 0.4488(8) 0.2468(2)
C25_5 C 0.7728(2) 0.3715(7) 0.2591(2)
H17_5 H 0.789623 0.328938 0.249329
C26_5 C 0.7420(2) 0.3512(7) 0.28797(19)
C27_5 C 0.7398(3) 0.2707(6) 0.3021(2)
H18_5 H 0.757144 0.227845 0.293465
C28_5 C 0.7096(3) 0.2563(6) 0.3306(2)
H19_5 H 0.707514 0.201861 0.340916
C29_5 C 0.6834(2) 0.3154(7) 0.3442(2)
C30_5 C 0.6874(2) 0.3955(6) 0.3307(2)
H20_5 H 0.670595 0.438081 0.340535
C31_5 C 0.98754(19) 0.5770(5) 0.30879(18)
C32_5 C 0.9837(3) 0.4938(6) 0.3032(2)
C33_5 C 0.9566(3) 0.4637(5) 0.2764(2)
H22_5 H 0.954765 0.405519 0.272204
C34_5 C 0.9307(3) 0.5178(7) 0.2543(3)
C35_5 C 0.93363(19) 0.6010(6) 0.25926(18)
H23_5 H 0.916760 0.636414 0.243653
C36_5 C 0.9617(2) 0.6375(5) 0.28766(19)
C37_5 C 0.9663(2) 0.7177(5) 0.2941(2)
H24_5 H 0.950604 0.755575 0.278696
C38_5 C 0.9932(2) 0.7493(5) 0.32251(19)
H25_5 H 0.993383 0.806915 0.328297
C43_5 C 0.6540(2) 0.2935(7) 0.3747(2)
C45_5 C 0.85726(18) 0.4667(4) 0.17630(17)
C46_5 C 0.88435(18) 0.4078(4) 0.15437(16)
H27_5 H 0.900538 0.373155 0.172898
H28_5 H 0.867721 0.370866 0.137254
C47_5 C 0.83002(19) 0.5144(5) 0.14785(17)
H29_5 H 0.813996 0.555983 0.162068
H30_5 H 0.846765 0.544067 0.128804
C48_5 C 0.8308(2) 0.4149(5) 0.20312(17)
H31_5 H 0.815532 0.372206 0.188023
H32_5 H 0.847726 0.387182 0.223577
C49_5 C 0.88170(19) 0.5273(4) 0.19978(18)
H33_5 H 0.898220 0.562013 0.182492
H34_5 H 0.863572 0.564054 0.214501
C50_5 C 0.6532(4) 0.0580(8) 0.4716(3)
H35_5 H 0.662303 0.103282 0.487278
H41_4 H 0.695997 0.028843 0.533947
O15_3 O 0.57193(14) 0.1944(3) 0.46549(12)
O16_3 O 0.54909(13) 0.3240(4) 0.46447(14)
O17_3 O 0.65127(11) 0.2512(4) 0.46970(12)
O18_3 O 0.62840(13) 0.3812(3) 0.46234(13)
O19_3 O 0.54862(13) 0.3026(4) 0.38325(13)
O20_3 O 0.57654(15) 0.1743(4) 0.38642(14)
O3_3 O 0.65127(11) 0.7488(4) 0.96970(12)
O4_3 O 0.62840(13) 0.6188(3) 0.96234(13)
C42_5 C 0.6510(2) 0.6715(6) 0.9770(2)
Cu4_2 Cu 0.61513(2) 0.79964(6) 0.92900(2)
Cu7_2 Cu 0.58645(2) 0.64803(6) 0.92230(2)
H1_6 H 0.081612 0.027840 0.405835
H4_6 H 0.450726 0.041273 0.086394
C11_6 C 0.24290(18) 0.1021(6) 0.0637(2)
C12_6 C 0.27329(19) 0.0702(6) 0.09194(18)
H9_6 H 0.292353 0.107664 0.103521
C16_6 C 0.2152(2) 0.0425(6) 0.0482(2)
C17_6 C 0.18490(19) 0.0694(6) 0.01978(19)
H12_6 H 0.166239 0.030219 0.008923
C18_6 C 0.1826(2) 0.1481(6) 0.00854(19)
C19_6 C 0.2102(2) 0.2061(5) 0.0255(2)
H13_6 H 0.208207 0.262810 0.018122
C20_6 C 0.2392(2) 0.1833(6) 0.0516(2)
H14_6 H 0.257438 0.223805 0.062021
H15_6 H 0.203589 0.038607 0.294200
C23_6 C 0.2513(3) 0.0122(6) 0.2597(2)
H16_6 H 0.254546 0.067058 0.250113
C31_6 C 0.48754(19) 0.0770(5) 0.30879(18)
C34_6 C 0.4307(3) 0.0178(7) 0.2543(3)
C35_6 C 0.43363(19) 0.1010(6) 0.25926(18)
H23_6 H 0.416760 0.136414 0.243653
C36_6 C 0.4617(2) 0.1375(5) 0.28766(19)
C37_6 C 0.4663(2) 0.2177(5) 0.2941(2)
H24_6 H 0.450604 0.255575 0.278696
C38_6 C 0.4932(2) 0.2493(5) 0.32251(19)
H25_6 H 0.493383 0.306915 0.328297
C39_6 C 0.5202(2) 0.1948(5) 0.3427(2)
C40_6 C 0.5165(2) 0.1157(5) 0.3373(2)
H26_6 H 0.533425 0.079949 0.352588
C44_6 C 0.5505(3) 0.2289(8) 0.3740(2)
C47_6 C 0.33002(19) 0.0144(5) 0.14785(17)
H29_6 H 0.313996 0.055983 0.162068
H30_6 H 0.346765 0.044067 0.128804
C49_6 C 0.38170(19) 0.0273(4) 0.19978(18)
H33_6 H 0.398220 0.062013 0.182492
H34_6 H 0.363572 0.064054 0.214501
O3_4 O 0.15127(11) 0.2488(4) 0.96970(12)
O4_4 O 0.12840(13) 0.1188(3) 0.96234(13)
C42_6 C 0.1510(2) 0.1715(6) 0.9770(2)
O5_6 O 0.12970(14) 0.8545(3) 0.38271(11)
O6_6 O 0.15537(13) 0.7256(4) 0.38958(13)
O9_6 O 0.40996(12) 0.9568(3) 0.13211(11)
O10_6 O 0.30337(14) 0.9578(3) 0.12796(14)
O11_6 O 0.30254(14) 0.9751(3) 0.22073(13)
O12_6 O 0.40836(15) 0.9798(3) 0.22695(13)
O13_6 O 0.06533(15) 0.9733(3) 0.41330(16)
H2_6 H 0.035416 0.997424 0.415844
O14_6 O 0.13446(10) 0.5757(3) 0.44321(12)
N1_4 N 0.1628(3) 0.4865(7) 0.4842(2)
C1_6 C 0.48813(18) 0.8761(5) 0.04677(16)
C2_6 C 0.48160(17) 0.9557(5) 0.05463(17)
H3_6 H 0.496048 0.995987 0.040303
C3_6 C 0.45509(17) 0.9837(5) 0.08236(18)
C4_6 C 0.43461(17) 0.9228(5) 0.10462(17)
C5_6 C 0.43848(17) 0.8416(6) 0.09758(18)
H5_6 H 0.424216 0.801491 0.112158
C6_6 C 0.46530(18) 0.8172(5) 0.06680(18)
C7_6 C 0.4713(2) 0.7330(6) 0.0569(2)
H6_6 H 0.456846 0.690859 0.069937
C8_6 C 0.4987(2) 0.7115(4) 0.0278(2)
H7_6 H 0.502561 0.654555 0.021883
C9_6 C 0.52017(18) 0.7700(6) 0.00773(18)
C10_6 C 0.51475(17) 0.8511(5) 0.01723(15)
H8_6 H 0.529294 0.892331 0.003621
C13_6 C 0.2752(3) 0.9890(6) 0.1021(2)
C14_6 C 0.2467(3) 0.9330(5) 0.0872(3)
H10_6 H 0.246393 0.877240 0.096207
C15_6 C 0.2184(2) 0.9598(7) 0.0588(2)
H11_6 H 0.200887 0.920343 0.046479
C21_6 C 0.2175(2) 0.9157(6) 0.3011(2)
C22_6 C 0.2213(3) 0.9958(7) 0.2862(2)
C24_6 C 0.2771(3) 0.9488(8) 0.2468(2)
C25_6 C 0.2728(2) 0.8715(7) 0.2591(2)
H17_6 H 0.289623 0.828938 0.249329
C26_6 C 0.2420(2) 0.8512(7) 0.28797(19)
C27_6 C 0.2398(3) 0.7707(6) 0.3021(2)
H18_6 H 0.257144 0.727845 0.293465
C28_6 C 0.2096(3) 0.7563(6) 0.3306(2)
H19_6 H 0.207514 0.701861 0.340916
C29_6 C 0.1834(2) 0.8154(7) 0.3442(2)
C30_6 C 0.1874(2) 0.8955(6) 0.3307(2)
H20_6 H 0.170595 0.938081 0.340535
C32_6 C 0.4837(3) 0.9938(6) 0.3032(2)
H21_6 H 0.500240 0.956572 0.318155
C33_6 C 0.4566(3) 0.9637(5) 0.2764(2)
H22_6 H 0.454765 0.905519 0.272204
C43_6 C 0.1540(2) 0.7935(7) 0.3747(2)
C45_6 C 0.35726(18) 0.9667(4) 0.17630(17)
C46_6 C 0.38435(18) 0.9078(4) 0.15437(16)
H27_6 H 0.400538 0.873155 0.172898
H28_6 H 0.367721 0.870866 0.137254
C48_6 C 0.3308(2) 0.9149(5) 0.20312(17)
H31_6 H 0.315532 0.872206 0.188023
H32_6 H 0.347726 0.887182 0.223577
C50_6 C 0.1532(4) 0.5580(8) 0.4716(3)
H35_6 H 0.162303 0.603282 0.487278
C51_4 C 0.1516(4) 0.4142(7) 0.4626(2)
H36_4 H 0.127154 0.389759 0.473493
H37_4 H 0.173873 0.373819 0.464211
H38_4 H 0.146133 0.429129 0.435267
C52_3 C 0.1966(4) 0.4793(7) 0.5174(2)
H39_3 H 0.223302 0.474603 0.505728
H40_3 H 0.191520 0.430020 0.533254
H41_5 H 0.195997 0.528843 0.533947
O15_4 O 0.07193(14) 0.6944(3) 0.46549(12)
O16_4 O 0.04909(13) 0.8240(4) 0.46447(14)
O17_4 O 0.15127(11) 0.7512(4) 0.46970(12)
O18_4 O 0.12840(13) 0.8812(3) 0.46234(13)
O1_4 O 0.57193(14) 0.8056(3) 0.96549(12)
O2_4 O 0.54909(13) 0.6760(4) 0.96447(14)
C41_6 C 0.5496(2) 0.7473(7) 0.9764(2)
O7_4 O 0.04862(13) 0.1974(4) 0.88325(13)
O8_4 O 0.07654(15) 0.3257(4) 0.88642(14)
H7_7 H 0.002561 0.845445 0.521883
C9_7 C 0.02017(18) 0.7300(6) 0.50773(18)
C10_7 C 0.01475(17) 0.6489(5) 0.51723(15)
H8_7 H 0.029294 0.607669 0.503621
H21_7 H 0.000240 0.543428 0.818155
C39_7 C 0.0202(2) 0.3052(5) 0.8427(2)
C40_7 C 0.0165(2) 0.3843(5) 0.8373(2)
H26_7 H 0.033425 0.420051 0.852588
C41_7 C 0.0496(2) 0.7527(7) 0.4764(2)
C44_7 C 0.0505(3) 0.2711(8) 0.8740(2)
O5_7 O 0.62970(14) 0.6455(3) 0.88271(11)
O6_7 O 0.65537(13) 0.7744(4) 0.88958(13)
O9_7 O 0.90996(12) 0.5432(3) 0.63211(11)
O10_7 O 0.80337(14) 0.5422(3) 0.62796(14)
O11_7 O 0.80254(14) 0.5249(3) 0.72073(13)
O12_7 O 0.90836(15) 0.5202(3) 0.72695(13)
O13_7 O 0.56533(15) 0.5267(3) 0.91330(16)
H1_7 H 0.581612 0.472160 0.905835
H2_7 H 0.535416 0.502576 0.915844
O14_7 O 0.63446(10) 0.9243(3) 0.94321(12)
C1_7 C 0.98813(18) 0.6239(5) 0.54677(16)
C2_7 C 0.98160(17) 0.5443(5) 0.55463(17)
H3_7 H 0.996048 0.504013 0.540303
C3_7 C 0.95509(17) 0.5163(5) 0.58236(18)
H4_7 H 0.950726 0.458727 0.586394
C4_7 C 0.93461(17) 0.5772(5) 0.60462(17)
C5_7 C 0.93848(17) 0.6584(6) 0.59758(18)
H5_7 H 0.924216 0.698509 0.612158
C6_7 C 0.96530(18) 0.6828(5) 0.56680(18)
C7_7 C 0.9713(2) 0.7670(6) 0.5569(2)
H6_7 H 0.956846 0.809141 0.569937
C8_7 C 0.9987(2) 0.7885(4) 0.5278(2)
C11_7 C 0.74290(18) 0.3979(6) 0.5637(2)
C12_7 C 0.77329(19) 0.4298(6) 0.59194(18)
H9_7 H 0.792353 0.392336 0.603521
C13_7 C 0.7752(3) 0.5110(6) 0.6021(2)
C14_7 C 0.7467(3) 0.5670(5) 0.5872(3)
H10_7 H 0.746393 0.622760 0.596207
C15_7 C 0.7184(2) 0.5402(7) 0.5588(2)
H11_7 H 0.700887 0.579657 0.546479
C16_7 C 0.7152(2) 0.4575(6) 0.5482(2)
C17_7 C 0.68490(19) 0.4306(6) 0.51978(19)
H12_7 H 0.666239 0.469781 0.508923
C18_7 C 0.6826(2) 0.3519(6) 0.50854(19)
C19_7 C 0.7102(2) 0.2939(5) 0.5255(2)
H13_7 H 0.708207 0.237190 0.518122
C20_7 C 0.7392(2) 0.3167(6) 0.5516(2)
H14_7 H 0.757438 0.276195 0.562021
C21_7 C 0.7175(2) 0.5843(6) 0.8011(2)
C22_7 C 0.7213(3) 0.5042(7) 0.7862(2)
H15_7 H 0.703589 0.461393 0.794200
C23_7 C 0.7513(3) 0.4878(6) 0.7597(2)
H16_7 H 0.754546 0.432942 0.750113
C24_7 C 0.7771(3) 0.5512(8) 0.7468(2)
C25_7 C 0.7728(2) 0.6285(7) 0.7591(2)
H17_7 H 0.789623 0.671062 0.749329
C26_7 C 0.7420(2) 0.6488(7) 0.78797(19)
C27_7 C 0.7398(3) 0.7293(6) 0.8021(2)
H18_7 H 0.757144 0.772155 0.793465
C28_7 C 0.7096(3) 0.7437(6) 0.8306(2)
H19_7 H 0.707514 0.798139 0.840916
C29_7 C 0.6834(2) 0.6846(7) 0.8442(2)
C30_7 C 0.6874(2) 0.6045(6) 0.8307(2)
H20_7 H 0.670595 0.561919 0.840535
C31_7 C 0.98754(19) 0.4230(5) 0.80879(18)
C32_7 C 0.9837(3) 0.5062(6) 0.8032(2)
C33_7 C 0.9566(3) 0.5363(5) 0.7764(2)
H22_7 H 0.954765 0.594481 0.772204
C34_7 C 0.9307(3) 0.4822(7) 0.7543(3)
C35_7 C 0.93363(19) 0.3990(6) 0.75926(18)
H23_7 H 0.916760 0.363586 0.743653
C36_7 C 0.9617(2) 0.3625(5) 0.78766(19)
C37_7 C 0.9663(2) 0.2823(5) 0.7941(2)
H24_7 H 0.950604 0.244425 0.778696
C38_7 C 0.9932(2) 0.2507(5) 0.82251(19)
H25_7 H 0.993383 0.193085 0.828297
C42_7 C 0.6510(2) 0.3285(6) 0.4770(2)
C43_7 C 0.6540(2) 0.7065(7) 0.8747(2)
C45_7 C 0.85726(18) 0.5333(4) 0.67630(17)
C46_7 C 0.88435(18) 0.5922(4) 0.65437(16)
H27_7 H 0.900538 0.626845 0.672898
H28_7 H 0.867721 0.629134 0.637254
C47_7 C 0.83002(19) 0.4856(5) 0.64785(17)
H29_7 H 0.813996 0.444017 0.662068
H30_7 H 0.846765 0.455933 0.628804
C48_7 C 0.8308(2) 0.5851(5) 0.70312(17)
H31_7 H 0.815532 0.627794 0.688023
H32_7 H 0.847726 0.612818 0.723577
C49_7 C 0.88170(19) 0.4727(4) 0.69978(18)
H33_7 H 0.898220 0.437987 0.682492
H34_7 H 0.863572 0.435946 0.714501
C50_7 C 0.6532(4) 0.9420(8) 0.9716(3)
H35_7 H 0.662303 0.896718 0.987278
O19_4 O 0.54862(13) 0.6974(4) 0.88325(13)
O20_4 O 0.57654(15) 0.8257(4) 0.88642(14)
O5_8 O 0.12970(14) 0.1455(3) 0.88271(11)
O6_8 O 0.15537(13) 0.2744(4) 0.88958(13)
O9_8 O 0.40996(12) 0.0432(3) 0.63211(11)
O10_8 O 0.30337(14) 0.0422(3) 0.62796(14)
O11_8 O 0.30254(14) 0.0249(3) 0.72073(13)
O12_8 O 0.40836(15) 0.0202(3) 0.72695(13)
O13_8 O 0.06533(15) 0.0267(3) 0.91330(16)
H2_8 H 0.035416 0.002576 0.915844
O14_8 O 0.13446(10) 0.4243(3) 0.94321(12)
N1_5 N 0.1628(3) 0.5135(7) 0.9842(2)
C1_8 C 0.48813(18) 0.1239(5) 0.54677(16)
C2_8 C 0.48160(17) 0.0443(5) 0.55463(17)
H3_8 H 0.496048 0.004013 0.540303
C3_8 C 0.45509(17) 0.0163(5) 0.58236(18)
C4_8 C 0.43461(17) 0.0772(5) 0.60462(17)
C5_8 C 0.43848(17) 0.1584(6) 0.59758(18)
H5_8 H 0.424216 0.198509 0.612158
C6_8 C 0.46530(18) 0.1828(5) 0.56680(18)
C7_8 C 0.4713(2) 0.2670(6) 0.5569(2)
H6_8 H 0.456846 0.309141 0.569937
C8_8 C 0.4987(2) 0.2885(4) 0.5278(2)
H7_8 H 0.502561 0.345445 0.521883
C9_8 C 0.52017(18) 0.2300(6) 0.50773(18)
C10_8 C 0.51475(17) 0.1489(5) 0.51723(15)
H8_8 H 0.529294 0.107669 0.503621
C13_8 C 0.2752(3) 0.0110(6) 0.6021(2)
C14_8 C 0.2467(3) 0.0670(5) 0.5872(3)
H10_8 H 0.246393 0.122760 0.596207
C15_8 C 0.2184(2) 0.0402(7) 0.5588(2)
H11_8 H 0.200887 0.079657 0.546479
C21_8 C 0.2175(2) 0.0843(6) 0.8011(2)
C22_8 C 0.2213(3) 0.0042(7) 0.7862(2)
C24_8 C 0.2771(3) 0.0512(8) 0.7468(2)
C25_8 C 0.2728(2) 0.1285(7) 0.7591(2)
H17_8 H 0.289623 0.171062 0.749329
C26_8 C 0.2420(2) 0.1488(7) 0.78797(19)
C27_8 C 0.2398(3) 0.2293(6) 0.8021(2)
H18_8 H 0.257144 0.272155 0.793465
C28_8 C 0.2096(3) 0.2437(6) 0.8306(2)
H19_8 H 0.207514 0.298139 0.840916
C29_8 C 0.1834(2) 0.1846(7) 0.8442(2)
C30_8 C 0.1874(2) 0.1045(6) 0.8307(2)
H20_8 H 0.170595 0.061919 0.840535
C32_8 C 0.4837(3) 0.0062(6) 0.8032(2)
H21_8 H 0.500240 0.043428 0.818155
C33_8 C 0.4566(3) 0.0363(5) 0.7764(2)
H22_8 H 0.454765 0.094481 0.772204
C41_8 C 0.5496(2) 0.2527(7) 0.4764(2)
C43_8 C 0.1540(2) 0.2065(7) 0.8747(2)
C45_8 C 0.35726(18) 0.0333(4) 0.67630(17)
C46_8 C 0.38435(18) 0.0922(4) 0.65437(16)
H27_8 H 0.400538 0.126845 0.672898
H28_8 H 0.367721 0.129134 0.637254
C48_8 C 0.3308(2) 0.0851(5) 0.70312(17)
H31_8 H 0.315532 0.127794 0.688023
H32_8 H 0.347726 0.112818 0.723577
C50_8 C 0.1532(4) 0.4420(8) 0.9716(3)
H35_8 H 0.162303 0.396718 0.987278
C51_5 C 0.1516(4) 0.5858(7) 0.9626(2)
H36_5 H 0.127154 0.610241 0.973493
H37_5 H 0.173873 0.626181 0.964211
H38_5 H 0.146133 0.570871 0.935267
H1_8 H 0.081612 0.972160 0.905835
H4_8 H 0.450726 0.958727 0.586394
C11_8 C 0.24290(18) 0.8979(6) 0.5637(2)
C12_8 C 0.27329(19) 0.9298(6) 0.59194(18)
H9_8 H 0.292353 0.892336 0.603521
C16_8 C 0.2152(2) 0.9575(6) 0.5482(2)
C17_8 C 0.18490(19) 0.9306(6) 0.51978(19)
H12_8 H 0.166239 0.969781 0.508923
C18_8 C 0.1826(2) 0.8519(6) 0.50854(19)
C19_8 C 0.2102(2) 0.7939(5) 0.5255(2)
H13_8 H 0.208207 0.737190 0.518122
C20_8 C 0.2392(2) 0.8167(6) 0.5516(2)
H14_8 H 0.257438 0.776195 0.562021
H15_8 H 0.203589 0.961393 0.794200
C23_8 C 0.2513(3) 0.9878(6) 0.7597(2)
H16_8 H 0.254546 0.932942 0.750113
C31_8 C 0.48754(19) 0.9230(5) 0.80879(18)
C34_8 C 0.4307(3) 0.9822(7) 0.7543(3)
C35_8 C 0.43363(19) 0.8990(6) 0.75926(18)
H23_8 H 0.416760 0.863586 0.743653
C36_8 C 0.4617(2) 0.8625(5) 0.78766(19)
C37_8 C 0.4663(2) 0.7823(5) 0.7941(2)
H24_8 H 0.450604 0.744425 0.778696
C38_8 C 0.4932(2) 0.7507(5) 0.82251(19)
H25_8 H 0.493383 0.693085 0.828297
C39_8 C 0.5202(2) 0.8052(5) 0.8427(2)
C40_8 C 0.5165(2) 0.8843(5) 0.8373(2)
H26_8 H 0.533425 0.920051 0.852588
C42_8 C 0.1510(2) 0.8285(6) 0.4770(2)
C44_8 C 0.5505(3) 0.7711(8) 0.8740(2)
C47_8 C 0.33002(19) 0.9856(5) 0.64785(17)
H29_8 H 0.313996 0.944017 0.662068
H30_8 H 0.346765 0.955933 0.628804
C49_8 C 0.38170(19) 0.9727(4) 0.69978(18)
H33_8 H 0.398220 0.937987 0.682492
H34_8 H 0.363572 0.935946 0.714501
N1_6 N 0.6628(3) 0.9865(7) 0.4842(2)
C51_6 C 0.6516(4) 0.9142(7) 0.4626(2)
H36_6 H 0.627154 0.889759 0.473493
H37_6 H 0.673873 0.873819 0.464211
H38_6 H 0.646133 0.929129 0.435267
C52_4 C 0.6966(4) 0.9793(7) 0.5174(2)
H39_4 H 0.723302 0.974603 0.505728
H40_4 H 0.691520 0.930020 0.533254
C52_5 C 0.8034(4) 0.4793(7) 0.9826(2)
H39_5 H 0.776698 0.474603 0.994272
H40_5 H 0.808480 0.430020 0.966746
H41_6 H 0.804003 0.528843 0.966053
C52_6 C 0.6966(4) 0.0207(7) 0.0174(2)
H39_6 H 0.723302 0.025397 0.005728
H40_6 H 0.691520 0.069980 0.033254
N1_7 N 0.6628(3) 0.0135(7) 0.9842(2)
C51_7 C 0.6516(4) 0.0858(7) 0.9626(2)
H36_7 H 0.627154 0.110241 0.973493
H37_7 H 0.673873 0.126181 0.964211
H38_7 H 0.646133 0.070871 0.935267
H41_7 H 0.695997 0.971157 0.033947
N1_8 N 0.3372(3) 0.0135(7) 0.5158(2)
C51_8 C 0.3484(4) 0.0858(7) 0.5374(2)
H36_8 H 0.372846 0.110241 0.526507
H37_8 H 0.326127 0.126181 0.535789
H38_8 H 0.353867 0.070871 0.564733
C52_7 C 0.3034(4) 0.0207(7) 0.4826(2)
H39_7 H 0.276698 0.025397 0.494272
H40_7 H 0.308480 0.069980 0.466746
C52_8 C 0.1966(4) 0.5207(7) 0.0174(2)
H39_8 H 0.223302 0.525397 0.005728
H40_8 H 0.191520 0.569980 0.033254
H41_8 H 0.195997 0.471157 0.033947
loop_
_geom_bond_atom_site_label_1
_geom_bond_atom_site_label_2
_geom_bond_site_symmetry_1
_geom_bond_site_symmetry_2
Cu1 Cu2 1_555 1_555
Cu2 O5 1_555 1_555
O3 C42 1_555 1_555
O4 C42 1_555 1_555
O5 C43 1_555 1_555
O6 Cu1 1_555 1_555
O9 C4 1_555 1_555
O10 C13 1_555 1_555
O11 C24 1_555 1_555
O12 C34 1_555 1_555
O13 Cu2 1_555 1_555
H1 O13 1_555 1_555
H2 O13 1_555 1_555
O14 Cu1 1_555 1_555
C1 C2 1_555 1_555
C2 H3 1_555 1_555
C3 C2 1_555 1_555
H4 C3 1_555 1_555
C4 C3 1_555 1_555
C5 C4 1_555 1_555
H5 C5 1_555 1_555
C6 C1 1_555 1_555
C7 C6 1_555 1_555
H6 C7 1_555 1_555
C8 C7 1_555 1_555
C11 C12 1_555 1_555
C12 H9 1_555 1_555
C13 C12 1_555 1_555
C14 C13 1_555 1_555
H10 C14 1_555 1_555
C15 C14 1_555 1_555
H11 C15 1_555 1_555
C16 C11 1_555 1_555
C17 C16 1_555 1_555
H12 C17 1_555 1_555
C18 C17 1_555 1_555
C19 C18 1_555 1_555
H13 C19 1_555 1_555
C20 C11 1_555 1_555
H14 C20 1_555 1_555
C21 C22 1_555 1_555
C22 H15 1_555 1_555
C23 C22 1_555 1_555
H16 C23 1_555 1_555
C24 C23 1_555 1_555
C25 C24 1_555 1_555
H17 C25 1_555 1_555
C26 C21 1_555 1_555
C27 C26 1_555 1_555
H18 C27 1_555 1_555
C28 C27 1_555 1_555
H19 C28 1_555 1_555
C29 C28 1_555 1_555
C30 C21 1_555 1_555
H20 C30 1_555 1_555
C31 C32 1_555 1_555
C33 C32 1_555 1_555
H22 C33 1_555 1_555
C34 C33 1_555 1_555
C35 C34 1_555 1_555
H23 C35 1_555 1_555
C36 C31 1_555 1_555
C37 C36 1_555 1_555
H24 C37 1_555 1_555
C38 C37 1_555 1_555
H25 C38 1_555 1_555
C42 C18 1_555 1_555
C43 O6 1_555 1_555
C45 C46 1_555 1_555
C46 O9 1_555 1_555
H27 C46 1_555 1_555
H28 C46 1_555 1_555
C47 O10 1_555 1_555
H29 C47 1_555 1_555
H30 C47 1_555 1_555
C48 O11 1_555 1_555
H31 C48 1_555 1_555
H32 C48 1_555 1_555
C49 O12 1_555 1_555
H33 C49 1_555 1_555
H34 C49 1_555 1_555
C50 O14 1_555 1_555
H35 C50 1_555 1_555
Cu4 O3 1_555 1_555
Cu7 O4 1_555 1_555
O15 Cu1 1_555 1_555
O16 Cu2 1_555 1_555
O17 Cu1 1_555 1_555
O18 Cu2 1_555 1_555
O19 Cu2 1_555 1_555
O20 Cu1 1_555 1_555
C5 C6 1_555 1_555
C15 C16 1_555 1_555
C19 C20 1_555 1_555
C25 C26 1_555 1_555
C29 C30 1_555 1_555
C29 C43 1_555 1_555
C35 C36 1_555 1_555
C45 C47 1_555 1_555
C45 C48 1_555 1_555
C45 C49 1_555 1_555
Cu4 Cu7 1_555 1_555
O1 C41 1_555 1_555
O2 C41 1_555 1_555
O7 C44 1_555 1_555
O8 C44 1_555 1_555
H8 C10 1_555 1_555
H26 C40 1_555 1_555
C41 C9 1_555 1_555
C44 C39 1_555 1_555
Cu3 O8 1_555 1_555
Cu5 O1 1_555 1_555
Cu6 O7 1_555 1_555
Cu8 O2 1_555 1_555
C9 C10 1_555 1_555
C39 C40 1_555 1_555
Cu3 Cu6 1_555 1_555
Cu5 Cu8 1_555 1_555
O3_2 C42_2 1_555 1_555
O4_2 C42_2 1_555 1_555
O19 C44_2 1_555 1_555
O20 C44_2 1_555 1_555
C11_2 C12_2 1_555 1_555
C12_2 H9_2 1_555 1_555
C16_2 C11_2 1_555 1_555
C17_2 C16_2 1_555 1_555
H12_2 C17_2 1_555 1_555
C18_2 C17_2 1_555 1_555
C19_2 C18_2 1_555 1_555
H13_2 C19_2 1_555 1_555
C20_2 C11_2 1_555 1_555
H14_2 C20_2 1_555 1_555
H16_2 C23_2 1_555 1_555
C35_2 C34_2 1_555 1_555
H23_2 C35_2 1_555 1_555
C36_2 C31_2 1_555 1_555
C37_2 C36_2 1_555 1_555
H24_2 C37_2 1_555 1_555
C38_2 C37_2 1_555 1_555
H25_2 C38_2 1_555 1_555
C39_2 C38_2 1_555 1_555
C40_2 C31_2 1_555 1_555
H26_2 C40_2 1_555 1_555
C42_2 C18_2 1_555 1_555
C44_2 C39_2 1_555 1_555
H29_2 C47_2 1_555 1_555
H30_2 C47_2 1_555 1_555
H33_2 C49_2 1_555 1_555
H34_2 C49_2 1_555 1_555
Cu5 O3_2 1_555 1_555
Cu8 O4_2 1_555 1_555
C19_2 C20_2 1_555 1_555
C35_2 C36_2 1_555 1_555
C39_2 C40_2 1_555 1_555
Cu6 O5_2 1_555 1_555
O1_2 C41_2 1_555 1_555
O2_2 C41_2 1_555 1_555
O5_2 C43_2 1_555 1_555
O6_2 Cu3 1_555 1_555
O9_2 C4_2 1_555 1_555
O10_2 C13_2 1_555 1_555
O11_2 C24_2 1_555 1_555
O13_2 Cu6 1_555 1_555
H2_2 O13_2 1_555 1_555
O14_2 Cu3 1_555 1_555
N1 C50_2 1_555 1_555
C1_2 C2_2 1_555 1_555
C2_2 H3_2 1_555 1_555
C3_2 C2_2 1_555 1_555
C4_2 C3_2 1_555 1_555
C5_2 C4_2 1_555 1_555
H5_2 C5_2 1_555 1_555
C6_2 C1_2 1_555 1_555
C7_2 C6_2 1_555 1_555
H6_2 C7_2 1_555 1_555
C8_2 C7_2 1_555 1_555
H7_2 C8_2 1_555 1_555
C9_2 C8_2 1_555 1_555
C10_2 C1_2 1_555 1_555
H8_2 C10_2 1_555 1_555
C14_2 C13_2 1_555 1_555
H10_2 C14_2 1_555 1_555
C15_2 C14_2 1_555 1_555
H11_2 C15_2 1_555 1_555
C21_2 C22_2 1_555 1_555
C25_2 C24_2 1_555 1_555
H17_2 C25_2 1_555 1_555
C26_2 C21_2 1_555 1_555
C27_2 C26_2 1_555 1_555
H18_2 C27_2 1_555 1_555
C28_2 C27_2 1_555 1_555
H19_2 C28_2 1_555 1_555
C29_2 C28_2 1_555 1_555
C30_2 C21_2 1_555 1_555
H20_2 C30_2 1_555 1_555
C32_2 H21_2 1_555 1_555
C33_2 C32_2 1_555 1_555
H22_2 C33_2 1_555 1_555
C41_2 C9_2 1_555 1_555
C43_2 O6_2 1_555 1_555
C45_2 C46_2 1_555 1_555
C46_2 O9_2 1_555 1_555
H27_2 C46_2 1_555 1_555
H28_2 C46_2 1_555 1_555
C48_2 O11_2 1_555 1_555
H31_2 C48_2 1_555 1_555
H32_2 C48_2 1_555 1_555
C50_2 O14_2 1_555 1_555
H35_2 C50_2 1_555 1_555
C51 N1 1_555 1_555
H36 C51 1_555 1_555
H37 C51 1_555 1_555
H38 C51 1_555 1_555
Cu4 O1_2 1_555 1_555
Cu7 O2_2 1_555 1_555
O15_2 Cu3 1_555 1_555
O16_2 Cu6 1_555 1_555
O17_2 Cu3 1_555 1_555
O18_2 Cu6 1_555 1_555
C5_2 C6_2 1_555 1_555
C9_2 C10_2 1_555 1_555
C25_2 C26_2 1_555 1_555
C29_2 C30_2 1_555 1_555
C29_2 C43_2 1_555 1_555
C45_2 C48_2 1_555 1_555
O17 C42_3 1_555 1_555
O18 C42_3 1_555 1_555
Cu7 O5_3 1_555 1_555
O5_3 C43_3 1_555 1_555
O6_3 Cu4 1_555 1_555
O9_3 C4_3 1_555 1_555
O10_3 C13_3 1_555 1_555
O11_3 C24_3 1_555 1_555
O12_3 C34_3 1_555 1_555
O13_3 Cu7 1_555 1_555
H1_3 O13_3 1_555 1_555
H2_3 O13_3 1_555 1_555
O14_3 Cu4 1_555 1_555
C1_3 C2_3 1_555 1_555
C2_3 H3_3 1_555 1_555
C3_3 C2_3 1_555 1_555
H4_3 C3_3 1_555 1_555
C4_3 C3_3 1_555 1_555
C5_3 C4_3 1_555 1_555
H5_3 C5_3 1_555 1_555
C6_3 C1_3 1_555 1_555
C7_3 C6_3 1_555 1_555
H6_3 C7_3 1_555 1_555
C8_3 C7_3 1_555 1_555
C11_3 C12_3 1_555 1_555
C12_3 H9_3 1_555 1_555
C13_3 C12_3 1_555 1_555
C14_3 C13_3 1_555 1_555
H10_3 C14_3 1_555 1_555
C15_3 C14_3 1_555 1_555
H11_3 C15_3 1_555 1_555
C16_3 C11_3 1_555 1_555
C17_3 C16_3 1_555 1_555
H12_3 C17_3 1_555 1_555
C18_3 C17_3 1_555 1_555
C19_3 C18_3 1_555 1_555
H13_3 C19_3 1_555 1_555
C20_3 C11_3 1_555 1_555
H14_3 C20_3 1_555 1_555
C21_3 C22_3 1_555 1_555
C22_3 H15_3 1_555 1_555
C23_3 C22_3 1_555 1_555
H16_3 C23_3 1_555 1_555
C24_3 C23_3 1_555 1_555
C25_3 C24_3 1_555 1_555
H17_3 C25_3 1_555 1_555
C26_3 C21_3 1_555 1_555
C27_3 C26_3 1_555 1_555
H18_3 C27_3 1_555 1_555
C28_3 C27_3 1_555 1_555
H19_3 C28_3 1_555 1_555
C29_3 C28_3 1_555 1_555
C30_3 C21_3 1_555 1_555
H20_3 C30_3 1_555 1_555
C31_3 C32_3 1_555 1_555
C33_3 C32_3 1_555 1_555
H22_3 C33_3 1_555 1_555
C34_3 C33_3 1_555 1_555
C35_3 C34_3 1_555 1_555
H23_3 C35_3 1_555 1_555
C36_3 C31_3 1_555 1_555
C37_3 C36_3 1_555 1_555
H24_3 C37_3 1_555 1_555
C38_3 C37_3 1_555 1_555
H25_3 C38_3 1_555 1_555
C43_3 O6_3 1_555 1_555
C45_3 C46_3 1_555 1_555
C46_3 O9_3 1_555 1_555
H27_3 C46_3 1_555 1_555
H28_3 C46_3 1_555 1_555
C47_3 O10_3 1_555 1_555
H29_3 C47_3 1_555 1_555
H30_3 C47_3 1_555 1_555
C48_3 O11_3 1_555 1_555
H31_3 C48_3 1_555 1_555
H32_3 C48_3 1_555 1_555
C49_3 O12_3 1_555 1_555
H33_3 C49_3 1_555 1_555
H34_3 C49_3 1_555 1_555
C50_3 O14_3 1_555 1_555
H35_3 C50_3 1_555 1_555
O19_2 Cu7 1_555 1_555
O20_2 Cu4 1_555 1_555
C5_3 C6_3 1_555 1_555
C15_3 C16_3 1_555 1_555
C19_3 C20_3 1_555 1_555
C25_3 C26_3 1_555 1_555
C29_3 C30_3 1_555 1_555
C29_3 C43_3 1_555 1_555
C35_3 C36_3 1_555 1_555
C45_3 C47_3 1_555 1_555
C45_3 C48_3 1_555 1_555
C45_3 C49_3 1_555 1_555
O15_2 C41_3 1_555 1_555
O16_2 C41_3 1_555 1_555
O7_2 C44_3 1_555 1_555
O8_2 C44_3 1_555 1_555
H8_3 C10_3 1_555 1_555
H26_3 C40_3 1_555 1_555
C44_3 C39_3 1_555 1_555
Cu5 O8_2 1_555 1_555
Cu8 O7_2 1_555 1_555
C9_3 C10_3 1_555 1_555
C39_3 C40_3 1_555 1_555
O15 C41_4 1_555 1_555
O16 C41_4 1_555 1_555
Cu8 O5_4 1_555 1_555
O5_4 C43_4 1_555 1_555
O6_4 Cu5 1_555 1_555
O9_4 C4_4 1_555 1_555
O10_4 C13_4 1_555 1_555
O11_4 C24_4 1_555 1_555
O13_4 Cu8 1_555 1_555
H2_4 O13_4 1_555 1_555
O14_4 Cu5 1_555 1_555
N1_2 C50_4 1_555 1_555
C1_4 C2_4 1_555 1_555
C2_4 H3_4 1_555 1_555
C3_4 C2_4 1_555 1_555
C4_4 C3_4 1_555 1_555
C5_4 C4_4 1_555 1_555
H5_4 C5_4 1_555 1_555
C6_4 C1_4 1_555 1_555
C7_4 C6_4 1_555 1_555
H6_4 C7_4 1_555 1_555
C8_4 C7_4 1_555 1_555
H7_4 C8_4 1_555 1_555
C9_4 C8_4 1_555 1_555
C10_4 C1_4 1_555 1_555
H8_4 C10_4 1_555 1_555
C14_4 C13_4 1_555 1_555
H10_4 C14_4 1_555 1_555
C15_4 C14_4 1_555 1_555
H11_4 C15_4 1_555 1_555
C21_4 C22_4 1_555 1_555
C25_4 C24_4 1_555 1_555
H17_4 C25_4 1_555 1_555
C26_4 C21_4 1_555 1_555
C27_4 C26_4 1_555 1_555
H18_4 C27_4 1_555 1_555
C28_4 C27_4 1_555 1_555
H19_4 C28_4 1_555 1_555
C29_4 C28_4 1_555 1_555
C30_4 C21_4 1_555 1_555
H20_4 C30_4 1_555 1_555
C32_4 H21_4 1_555 1_555
C33_4 C32_4 1_555 1_555
H22_4 C33_4 1_555 1_555
C43_4 O6_4 1_555 1_555
C45_4 C46_4 1_555 1_555
C46_4 O9_4 1_555 1_555
H27_4 C46_4 1_555 1_555
H28_4 C46_4 1_555 1_555
C48_4 O11_4 1_555 1_555
H31_4 C48_4 1_555 1_555
H32_4 C48_4 1_555 1_555
C50_4 O14_4 1_555 1_555
H35_4 C50_4 1_555 1_555
C51_2 N1_2 1_555 1_555
H36_2 C51_2 1_555 1_555
H37_2 C51_2 1_555 1_555
H38_2 C51_2 1_555 1_555
C52 N1_2 1_555 1_555
H39 C52 1_555 1_555
H40 C52 1_555 1_555
H41_2 C52 1_555 1_555
C5_4 C6_4 1_555 1_555
C9_4 C10_4 1_555 1_555
C25_4 C26_4 1_555 1_555
C29_4 C30_4 1_555 1_555
C29_4 C43_4 1_555 1_555
C45_4 C48_4 1_555 1_555
O17_2 C42_4 1_555 1_555
O18_2 C42_4 1_555 1_555
O19_2 C44_4 1_555 1_555
O20_2 C44_4 1_555 1_555
C11_4 C12_4 1_555 1_555
C12_4 H9_4 1_555 1_555
C16_4 C11_4 1_555 1_555
C17_4 C16_4 1_555 1_555
H12_4 C17_4 1_555 1_555
C18_4 C17_4 1_555 1_555
C19_4 C18_4 1_555 1_555
H13_4 C19_4 1_555 1_555
C20_4 C11_4 1_555 1_555
H14_4 C20_4 1_555 1_555
H16_4 C23_4 1_555 1_555
C35_4 C34_4 1_555 1_555
H23_4 C35_4 1_555 1_555
C36_4 C31_4 1_555 1_555
C37_4 C36_4 1_555 1_555
H24_4 C37_4 1_555 1_555
C38_4 C37_4 1_555 1_555
H25_4 C38_4 1_555 1_555
C39_4 C38_4 1_555 1_555
C40_4 C31_4 1_555 1_555
H26_4 C40_4 1_555 1_555
C44_4 C39_4 1_555 1_555
H29_4 C47_4 1_555 1_555
H30_4 C47_4 1_555 1_555
H33_4 C49_4 1_555 1_555
H34_4 C49_4 1_555 1_555
C19_4 C20_4 1_555 1_555
C35_4 C36_4 1_555 1_555
C39_4 C40_4 1_555 1_555
C51_3 N1_3 1_555 1_555
H36_3 C51_3 1_555 1_555
H37_3 C51_3 1_555 1_555
H38_3 C51_3 1_555 1_555
H39_2 C52_2 1_555 1_555
H40_2 C52_2 1_555 1_555
O7_3 C44_5 1_555 1_555
O8_3 C44_5 1_555 1_555
H8_5 C10_5 1_555 1_555
H26_5 C40_5 1_555 1_555
C44_5 C39_5 1_555 1_555
Cu3_2 O8_3 1_555 1_555
Cu6_2 O7_3 1_555 1_555
C9_5 C10_5 1_555 1_555
C39_5 C40_5 1_555 1_555
Cu3_2 Cu6_2 1_555 1_555
O1_3 C41_5 1_555 1_555
O2_3 C41_5 1_555 1_555
Cu5_2 O1_3 1_555 1_555
Cu8_2 O2_3 1_555 1_555
Cu5_2 Cu8_2 1_555 1_555
Cu1_2 Cu2_2 1_555 1_555
Cu2_2 O5_5 1_555 1_555
O5_5 C43_5 1_555 1_555
O6_5 Cu1_2 1_555 1_555
O9_5 C4_5 1_555 1_555
O10_5 C13_5 1_555 1_555
O11_5 C24_5 1_555 1_555
O12_5 C34_5 1_555 1_555
O13_5 Cu2_2 1_555 1_555
H1_5 O13_5 1_555 1_555
H2_5 O13_5 1_555 1_555
O14_5 Cu1_2 1_555 1_555
C1_5 C2_5 1_555 1_555
C2_5 H3_5 1_555 1_555
C3_5 C2_5 1_555 1_555
H4_5 C3_5 1_555 1_555
C4_5 C3_5 1_555 1_555
C5_5 C4_5 1_555 1_555
H5_5 C5_5 1_555 1_555
C6_5 C1_5 1_555 1_555
C7_5 C6_5 1_555 1_555
H6_5 C7_5 1_555 1_555
C8_5 C7_5 1_555 1_555
C11_5 C12_5 1_555 1_555
C12_5 H9_5 1_555 1_555
C13_5 C12_5 1_555 1_555
C14_5 C13_5 1_555 1_555
H10_5 C14_5 1_555 1_555
C15_5 C14_5 1_555 1_555
H11_5 C15_5 1_555 1_555
C16_5 C11_5 1_555 1_555
C17_5 C16_5 1_555 1_555
H12_5 C17_5 1_555 1_555
C18_5 C17_5 1_555 1_555
C19_5 C18_5 1_555 1_555
H13_5 C19_5 1_555 1_555
C20_5 C11_5 1_555 1_555
H14_5 C20_5 1_555 1_555
C21_5 C22_5 1_555 1_555
C22_5 H15_5 1_555 1_555
C23_5 C22_5 1_555 1_555
H16_5 C23_5 1_555 1_555
C24_5 C23_5 1_555 1_555
C25_5 C24_5 1_555 1_555
H17_5 C25_5 1_555 1_555
C26_5 C21_5 1_555 1_555
C27_5 C26_5 1_555 1_555
H18_5 C27_5 1_555 1_555
C28_5 C27_5 1_555 1_555
H19_5 C28_5 1_555 1_555
C29_5 C28_5 1_555 1_555
C30_5 C21_5 1_555 1_555
H20_5 C30_5 1_555 1_555
C31_5 C32_5 1_555 1_555
C33_5 C32_5 1_555 1_555
H22_5 C33_5 1_555 1_555
C34_5 C33_5 1_555 1_555
C35_5 C34_5 1_555 1_555
H23_5 C35_5 1_555 1_555
C36_5 C31_5 1_555 1_555
C37_5 C36_5 1_555 1_555
H24_5 C37_5 1_555 1_555
C38_5 C37_5 1_555 1_555
H25_5 C38_5 1_555 1_555
C43_5 O6_5 1_555 1_555
C45_5 C46_5 1_555 1_555
C46_5 O9_5 1_555 1_555
H27_5 C46_5 1_555 1_555
H28_5 C46_5 1_555 1_555
C47_5 O10_5 1_555 1_555
H29_5 C47_5 1_555 1_555
H30_5 C47_5 1_555 1_555
C48_5 O11_5 1_555 1_555
H31_5 C48_5 1_555 1_555
H32_5 C48_5 1_555 1_555
C49_5 O12_5 1_555 1_555
H33_5 C49_5 1_555 1_555
H34_5 C49_5 1_555 1_555
C50_5 O14_5 1_555 1_555
H35_5 C50_5 1_555 1_555
O15_3 Cu1_2 1_555 1_555
O16_3 Cu2_2 1_555 1_555
O17_3 Cu1_2 1_555 1_555
O18_3 Cu2_2 1_555 1_555
O19_3 Cu2_2 1_555 1_555
O20_3 Cu1_2 1_555 1_555
C5_5 C6_5 1_555 1_555
C15_5 C16_5 1_555 1_555
C19_5 C20_5 1_555 1_555
C25_5 C26_5 1_555 1_555
C29_5 C30_5 1_555 1_555
C29_5 C43_5 1_555 1_555
C35_5 C36_5 1_555 1_555
C45_5 C47_5 1_555 1_555
C45_5 C48_5 1_555 1_555
C45_5 C49_5 1_555 1_555
O3_3 C42_5 1_555 1_555
O4_3 C42_5 1_555 1_555
Cu4_2 O3_3 1_555 1_555
Cu7_2 O4_3 1_555 1_555
Cu4_2 Cu7_2 1_555 1_555
O19_3 C44_6 1_555 1_555
O20_3 C44_6 1_555 1_555
C11_6 C12_6 1_555 1_555
C12_6 H9_6 1_555 1_555
C16_6 C11_6 1_555 1_555
C17_6 C16_6 1_555 1_555
H12_6 C17_6 1_555 1_555
C18_6 C17_6 1_555 1_555
C19_6 C18_6 1_555 1_555
H13_6 C19_6 1_555 1_555
C20_6 C11_6 1_555 1_555
H14_6 C20_6 1_555 1_555
H16_6 C23_6 1_555 1_555
C35_6 C34_6 1_555 1_555
H23_6 C35_6 1_555 1_555
C36_6 C31_6 1_555 1_555
C37_6 C36_6 1_555 1_555
H24_6 C37_6 1_555 1_555
C38_6 C37_6 1_555 1_555
H25_6 C38_6 1_555 1_555
C39_6 C38_6 1_555 1_555
C40_6 C31_6 1_555 1_555
H26_6 C40_6 1_555 1_555
C44_6 C39_6 1_555 1_555
H29_6 C47_6 1_555 1_555
H30_6 C47_6 1_555 1_555
H33_6 C49_6 1_555 1_555
H34_6 C49_6 1_555 1_555
C19_6 C20_6 1_555 1_555
C35_6 C36_6 1_555 1_555
C39_6 C40_6 1_555 1_555
O3_4 C42_6 1_555 1_555
O4_4 C42_6 1_555 1_555
Cu5_2 O3_4 1_555 1_555
Cu8_2 O4_4 1_555 1_555
Cu6_2 O5_6 1_555 1_555
O5_6 C43_6 1_555 1_555
O6_6 Cu3_2 1_555 1_555
O9_6 C4_6 1_555 1_555
O10_6 C13_6 1_555 1_555
O11_6 C24_6 1_555 1_555
O13_6 Cu6_2 1_555 1_555
H2_6 O13_6 1_555 1_555
O14_6 Cu3_2 1_555 1_555
N1_4 C50_6 1_555 1_555
C1_6 C2_6 1_555 1_555
C2_6 H3_6 1_555 1_555
C3_6 C2_6 1_555 1_555
C4_6 C3_6 1_555 1_555
C5_6 C4_6 1_555 1_555
H5_6 C5_6 1_555 1_555
C6_6 C1_6 1_555 1_555
C7_6 C6_6 1_555 1_555
H6_6 C7_6 1_555 1_555
C8_6 C7_6 1_555 1_555
H7_6 C8_6 1_555 1_555
C9_6 C8_6 1_555 1_555
C10_6 C1_6 1_555 1_555
H8_6 C10_6 1_555 1_555
C14_6 C13_6 1_555 1_555
H10_6 C14_6 1_555 1_555
C15_6 C14_6 1_555 1_555
H11_6 C15_6 1_555 1_555
C21_6 C22_6 1_555 1_555
C25_6 C24_6 1_555 1_555
H17_6 C25_6 1_555 1_555
C26_6 C21_6 1_555 1_555
C27_6 C26_6 1_555 1_555
H18_6 C27_6 1_555 1_555
C28_6 C27_6 1_555 1_555
H19_6 C28_6 1_555 1_555
C29_6 C28_6 1_555 1_555
C30_6 C21_6 1_555 1_555
H20_6 C30_6 1_555 1_555
C32_6 H21_6 1_555 1_555
C33_6 C32_6 1_555 1_555
H22_6 C33_6 1_555 1_555
C43_6 O6_6 1_555 1_555
C45_6 C46_6 1_555 1_555
C46_6 O9_6 1_555 1_555
H27_6 C46_6 1_555 1_555
H28_6 C46_6 1_555 1_555
C48_6 O11_6 1_555 1_555
H31_6 C48_6 1_555 1_555
H32_6 C48_6 1_555 1_555
C50_6 O14_6 1_555 1_555
H35_6 C50_6 1_555 1_555
C51_4 N1_4 1_555 1_555
H36_4 C51_4 1_555 1_555
H37_4 C51_4 1_555 1_555
H38_4 C51_4 1_555 1_555
C52_3 N1_4 1_555 1_555
H39_3 C52_3 1_555 1_555
H40_3 C52_3 1_555 1_555
H41_5 C52_3 1_555 1_555
O15_4 Cu3_2 1_555 1_555
O16_4 Cu6_2 1_555 1_555
O17_4 Cu3_2 1_555 1_555
O18_4 Cu6_2 1_555 1_555
C5_6 C6_6 1_555 1_555
C9_6 C10_6 1_555 1_555
C25_6 C26_6 1_555 1_555
C29_6 C30_6 1_555 1_555
C29_6 C43_6 1_555 1_555
C45_6 C48_6 1_555 1_555
O1_4 C41_6 1_555 1_555
O2_4 C41_6 1_555 1_555
Cu4_2 O1_4 1_555 1_555
Cu7_2 O2_4 1_555 1_555
O15_4 C41_7 1_555 1_555
O16_4 C41_7 1_555 1_555
O7_4 C44_7 1_555 1_555
O8_4 C44_7 1_555 1_555
H8_7 C10_7 1_555 1_555
H26_7 C40_7 1_555 1_555
C41_7 C9_7 1_555 1_555
C44_7 C39_7 1_555 1_555
Cu5_2 O8_4 1_555 1_555
Cu8_2 O7_4 1_555 1_555
C9_7 C10_7 1_555 1_555
C39_7 C40_7 1_555 1_555
Cu7_2 O5_7 1_555 1_555
O17_3 C42_7 1_555 1_555
O18_3 C42_7 1_555 1_555
O5_7 C43_7 1_555 1_555
O6_7 Cu4_2 1_555 1_555
O9_7 C4_7 1_555 1_555
O10_7 C13_7 1_555 1_555
O11_7 C24_7 1_555 1_555
O12_7 C34_7 1_555 1_555
O13_7 Cu7_2 1_555 1_555
H1_7 O13_7 1_555 1_555
H2_7 O13_7 1_555 1_555
O14_7 Cu4_2 1_555 1_555
C1_7 C2_7 1_555 1_555
C2_7 H3_7 1_555 1_555
C3_7 C2_7 1_555 1_555
H4_7 C3_7 1_555 1_555
C4_7 C3_7 1_555 1_555
C5_7 C4_7 1_555 1_555
H5_7 C5_7 1_555 1_555
C6_7 C1_7 1_555 1_555
C7_7 C6_7 1_555 1_555
H6_7 C7_7 1_555 1_555
C8_7 C7_7 1_555 1_555
C11_7 C12_7 1_555 1_555
C12_7 H9_7 1_555 1_555
C13_7 C12_7 1_555 1_555
C14_7 C13_7 1_555 1_555
H10_7 C14_7 1_555 1_555
C15_7 C14_7 1_555 1_555
H11_7 C15_7 1_555 1_555
C16_7 C11_7 1_555 1_555
C17_7 C16_7 1_555 1_555
H12_7 C17_7 1_555 1_555
C18_7 C17_7 1_555 1_555
C19_7 C18_7 1_555 1_555
H13_7 C19_7 1_555 1_555
C20_7 C11_7 1_555 1_555
H14_7 C20_7 1_555 1_555
C21_7 C22_7 1_555 1_555
C22_7 H15_7 1_555 1_555
C23_7 C22_7 1_555 1_555
H16_7 C23_7 1_555 1_555
C24_7 C23_7 1_555 1_555
C25_7 C24_7 1_555 1_555
H17_7 C25_7 1_555 1_555
C26_7 C21_7 1_555 1_555
C27_7 C26_7 1_555 1_555
H18_7 C27_7 1_555 1_555
C28_7 C27_7 1_555 1_555
H19_7 C28_7 1_555 1_555
C29_7 C28_7 1_555 1_555
C30_7 C21_7 1_555 1_555
H20_7 C30_7 1_555 1_555
C31_7 C32_7 1_555 1_555
C33_7 C32_7 1_555 1_555
H22_7 C33_7 1_555 1_555
C34_7 C33_7 1_555 1_555
C35_7 C34_7 1_555 1_555
H23_7 C35_7 1_555 1_555
C36_7 C31_7 1_555 1_555
C37_7 C36_7 1_555 1_555
H24_7 C37_7 1_555 1_555
C38_7 C37_7 1_555 1_555
H25_7 C38_7 1_555 1_555
C42_7 C18_7 1_555 1_555
C43_7 O6_7 1_555 1_555
C45_7 C46_7 1_555 1_555
C46_7 O9_7 1_555 1_555
H27_7 C46_7 1_555 1_555
H28_7 C46_7 1_555 1_555
C47_7 O10_7 1_555 1_555
H29_7 C47_7 1_555 1_555
H30_7 C47_7 1_555 1_555
C48_7 O11_7 1_555 1_555
H31_7 C48_7 1_555 1_555
H32_7 C48_7 1_555 1_555
C49_7 O12_7 1_555 1_555
H33_7 C49_7 1_555 1_555
H34_7 C49_7 1_555 1_555
C50_7 O14_7 1_555 1_555
H35_7 C50_7 1_555 1_555
O19_4 Cu7_2 1_555 1_555
O20_4 Cu4_2 1_555 1_555
C5_7 C6_7 1_555 1_555
C15_7 C16_7 1_555 1_555
C19_7 C20_7 1_555 1_555
C25_7 C26_7 1_555 1_555
C29_7 C30_7 1_555 1_555
C29_7 C43_7 1_555 1_555
C35_7 C36_7 1_555 1_555
C45_7 C47_7 1_555 1_555
C45_7 C48_7 1_555 1_555
C45_7 C49_7 1_555 1_555
Cu8_2 O5_8 1_555 1_555
O15_3 C41_8 1_555 1_555
O16_3 C41_8 1_555 1_555
O5_8 C43_8 1_555 1_555
O6_8 Cu5_2 1_555 1_555
O9_8 C4_8 1_555 1_555
O10_8 C13_8 1_555 1_555
O11_8 C24_8 1_555 1_555
O13_8 Cu8_2 1_555 1_555
H2_8 O13_8 1_555 1_555
O14_8 Cu5_2 1_555 1_555
N1_5 C50_8 1_555 1_555
C1_8 C2_8 1_555 1_555
C2_8 H3_8 1_555 1_555
C3_8 C2_8 1_555 1_555
C4_8 C3_8 1_555 1_555
C5_8 C4_8 1_555 1_555
H5_8 C5_8 1_555 1_555
C6_8 C1_8 1_555 1_555
C7_8 C6_8 1_555 1_555
H6_8 C7_8 1_555 1_555
C8_8 C7_8 1_555 1_555
H7_8 C8_8 1_555 1_555
C9_8 C8_8 1_555 1_555
C10_8 C1_8 1_555 1_555
H8_8 C10_8 1_555 1_555
C14_8 C13_8 1_555 1_555
H10_8 C14_8 1_555 1_555
C15_8 C14_8 1_555 1_555
H11_8 C15_8 1_555 1_555
C21_8 C22_8 1_555 1_555
C25_8 C24_8 1_555 1_555
H17_8 C25_8 1_555 1_555
C26_8 C21_8 1_555 1_555
C27_8 C26_8 1_555 1_555
H18_8 C27_8 1_555 1_555
C28_8 C27_8 1_555 1_555
H19_8 C28_8 1_555 1_555
C29_8 C28_8 1_555 1_555
C30_8 C21_8 1_555 1_555
H20_8 C30_8 1_555 1_555
C32_8 H21_8 1_555 1_555
C33_8 C32_8 1_555 1_555
H22_8 C33_8 1_555 1_555
C41_8 C9_8 1_555 1_555
C43_8 O6_8 1_555 1_555
C45_8 C46_8 1_555 1_555
C46_8 O9_8 1_555 1_555
H27_8 C46_8 1_555 1_555
H28_8 C46_8 1_555 1_555
C48_8 O11_8 1_555 1_555
H31_8 C48_8 1_555 1_555
H32_8 C48_8 1_555 1_555
C50_8 O14_8 1_555 1_555
H35_8 C50_8 1_555 1_555
C51_5 N1_5 1_555 1_555
H36_5 C51_5 1_555 1_555
H37_5 C51_5 1_555 1_555
H38_5 C51_5 1_555 1_555
C5_8 C6_8 1_555 1_555
C9_8 C10_8 1_555 1_555
C25_8 C26_8 1_555 1_555
C29_8 C30_8 1_555 1_555
C29_8 C43_8 1_555 1_555
C45_8 C48_8 1_555 1_555
O17_4 C42_8 1_555 1_555
O18_4 C42_8 1_555 1_555
O19_4 C44_8 1_555 1_555
O20_4 C44_8 1_555 1_555
C11_8 C12_8 1_555 1_555
C12_8 H9_8 1_555 1_555
C16_8 C11_8 1_555 1_555
C17_8 C16_8 1_555 1_555
H12_8 C17_8 1_555 1_555
C18_8 C17_8 1_555 1_555
C19_8 C18_8 1_555 1_555
H13_8 C19_8 1_555 1_555
C20_8 C11_8 1_555 1_555
H14_8 C20_8 1_555 1_555
H16_8 C23_8 1_555 1_555
C35_8 C34_8 1_555 1_555
H23_8 C35_8 1_555 1_555
C36_8 C31_8 1_555 1_555
C37_8 C36_8 1_555 1_555
H24_8 C37_8 1_555 1_555
C38_8 C37_8 1_555 1_555
H25_8 C38_8 1_555 1_555
C39_8 C38_8 1_555 1_555
C40_8 C31_8 1_555 1_555
H26_8 C40_8 1_555 1_555
C42_8 C18_8 1_555 1_555
C44_8 C39_8 1_555 1_555
H29_8 C47_8 1_555 1_555
H30_8 C47_8 1_555 1_555
H33_8 C49_8 1_555 1_555
H34_8 C49_8 1_555 1_555
C19_8 C20_8 1_555 1_555
C35_8 C36_8 1_555 1_555
C39_8 C40_8 1_555 1_555
C51_6 N1_6 1_555 1_555
H36_6 C51_6 1_555 1_555
H37_6 C51_6 1_555 1_555
H38_6 C51_6 1_555 1_555
C52_4 N1_6 1_555 1_555
H39_4 C52_4 1_555 1_555
H40_4 C52_4 1_555 1_555
H39_5 C52_5 1_555 1_555
H40_5 C52_5 1_555 1_555
H41_6 C52_5 1_555 1_555
H39_6 C52_6 1_555 1_555
H40_6 C52_6 1_555 1_555
C51_7 N1_7 1_555 1_555
H36_7 C51_7 1_555 1_555
H37_7 C51_7 1_555 1_555
H38_7 C51_7 1_555 1_555
C51_8 N1_8 1_555 1_555
H36_8 C51_8 1_555 1_555
H37_8 C51_8 1_555 1_555
H38_8 C51_8 1_555 1_555
C52_7 N1_8 1_555 1_555
H39_7 C52_7 1_555 1_555
H40_7 C52_7 1_555 1_555
H39_8 C52_8 1_555 1_555
H40_8 C52_8 1_555 1_555
H41_8 C52_8 1_555 1_555

#END
