
###############################################################################
#
# This file contains modified crystal structure data generated from the
# MOF subset of the Cambridge Structural Database (CSD) v543 
# hosted by the Cambridge Crystallographic Data Centre (CCDC).
#
# This work is licensed under the Creative Commons
# Attribution-NonCommercial-ShareAlike 4.0 International License.
# To view a copy of this license, visit
# http://creativecommons.org/licenses/by-nc-sa/4.0/
# or send a letter to
# Creative Commons, PO Box 1866, Mountain View, CA 94042, USA.
#
# CIF created using the CSD Python API on 29 September 2022
# The structure has been converted into the P1 space group
# The structure has a 3D framework
# The original CSD entry NOWXOP is in the orthorhombic crystal system
# The framework has been calculated to contain at least 10.0% void space
# The void calculation uses a probe of radius 1.32A, grid spacing 0.4
# The framework is charged, counterions have been retained in the structure
#
###############################################################################

data_NOWXOP
_chemical_formula_moiety         '(C320 H416 In16 N64 O128 16+)n'
_symmetry_cell_setting           triclinic
_symmetry_space_group_name_H-M   'P 1'
_symmetry_Int_Tables_number      1
_space_group_name_Hall           'P 1'
loop_
_symmetry_equiv_pos_site_id
_symmetry_equiv_pos_as_xyz
1 x,y,z
_cell_length_a                   15.3486(6)
_cell_length_b                   27.1623(9)
_cell_length_c                   31.0757(10)
_cell_angle_alpha                90
_cell_angle_beta                 90
_cell_angle_gamma                90
_cell_volume                     12955.6
loop_
_atom_site_label
_atom_site_type_symbol
_atom_site_fract_x
_atom_site_fract_y
_atom_site_fract_z
C1 C 0.4721(17) 0.7807(12) 0.4141(12)
H1 H 0.4626 0.7523 0.3953
H2 H 0.4446 0.7746 0.4421
H3 H 0.4466 0.8101 0.4010
N1 N 0.5611(17) 0.7878(10) 0.4199(10)
H4 H 0.5838 0.7911 0.3930
H5 H 0.5820 0.7589 0.4304
C2 C 0.601(2) 0.8260(12) 0.4456(12)
H6 H 0.6646 0.8227 0.4441
H7 H 0.5839 0.8583 0.4344
H8 H 0.5819 0.8228 0.4755
C1_2 C 0.2779(17) 0.9693(12) 0.4141(12)
H1_2 H 0.2874 0.9977 0.3953
H2_2 H 0.3054 0.9754 0.4421
H3_2 H 0.3034 0.9399 0.4010
N1_2 N 0.1889(17) 0.9622(10) 0.4199(10)
H4_2 H 0.1662 0.9589 0.3930
H5_2 H 0.1680 0.9911 0.4304
C2_2 C 0.149(2) 0.9240(12) 0.4456(12)
H6_2 H 0.0854 0.9273 0.4441
H7_2 H 0.1661 0.8917 0.4344
H8_2 H 0.1681 0.9272 0.4755
C1_3 C 0.2779(17) 0.7807(12) 0.3359(12)
H1_3 H 0.2874 0.7523 0.3547
H2_3 H 0.3054 0.7746 0.3079
H3_3 H 0.3034 0.8101 0.3490
N1_3 N 0.1889(17) 0.7878(10) 0.3301(10)
H4_3 H 0.1662 0.7911 0.3570
H5_3 H 0.1680 0.7589 0.3196
C2_3 C 0.149(2) 0.8260(12) 0.3044(12)
H6_3 H 0.0854 0.8227 0.3059
H7_3 H 0.1661 0.8583 0.3156
H8_3 H 0.1681 0.8228 0.2745
C1_4 C 0.4721(17) 0.9693(12) 0.3359(12)
H1_4 H 0.4626 0.9977 0.3547
H2_4 H 0.4446 0.9754 0.3079
H3_4 H 0.4466 0.9399 0.3490
N1_4 N 0.5611(17) 0.9622(10) 0.3301(10)
H4_4 H 0.5838 0.9589 0.3570
H5_4 H 0.5820 0.9911 0.3196
C2_4 C 0.601(2) 0.9240(12) 0.3044(12)
H6_4 H 0.6646 0.9273 0.3059
H7_4 H 0.5839 0.8917 0.3156
H8_4 H 0.5819 0.9272 0.2745
C1_5 C 0.4721(17) 0.2807(12) 0.9141(12)
H1_5 H 0.4626 0.2523 0.8953
H2_5 H 0.4446 0.2746 0.9421
H3_5 H 0.4466 0.3101 0.9010
N1_5 N 0.5611(17) 0.2878(10) 0.9199(10)
H4_5 H 0.5838 0.2911 0.8930
H5_5 H 0.5820 0.2589 0.9304
C2_5 C 0.601(2) 0.3260(12) 0.9456(12)
H6_5 H 0.6646 0.3227 0.9441
H7_5 H 0.5839 0.3583 0.9344
H8_5 H 0.5819 0.3228 0.9755
C1_6 C 0.2779(17) 0.4693(12) 0.9141(12)
H1_6 H 0.2874 0.4977 0.8953
H2_6 H 0.3054 0.4754 0.9421
H3_6 H 0.3034 0.4399 0.9010
N1_6 N 0.1889(17) 0.4622(10) 0.9199(10)
H4_6 H 0.1662 0.4589 0.8930
H5_6 H 0.1680 0.4911 0.9304
C2_6 C 0.149(2) 0.4240(12) 0.9456(12)
H6_6 H 0.0854 0.4273 0.9441
H7_6 H 0.1661 0.3917 0.9344
H8_6 H 0.1681 0.4272 0.9755
C1_7 C 0.2779(17) 0.2807(12) 0.8359(12)
H1_7 H 0.2874 0.2523 0.8547
H2_7 H 0.3054 0.2746 0.8079
H3_7 H 0.3034 0.3101 0.8490
N1_7 N 0.1889(17) 0.2878(10) 0.8301(10)
H4_7 H 0.1662 0.2911 0.8570
H5_7 H 0.1680 0.2589 0.8196
C2_7 C 0.149(2) 0.3260(12) 0.8044(12)
H6_7 H 0.0854 0.3227 0.8059
H7_7 H 0.1661 0.3583 0.8156
H8_7 H 0.1681 0.3228 0.7745
C1_8 C 0.4721(17) 0.4693(12) 0.8359(12)
H1_8 H 0.4626 0.4977 0.8547
H2_8 H 0.4446 0.4754 0.8079
H3_8 H 0.4466 0.4399 0.8490
N1_8 N 0.5611(17) 0.4622(10) 0.8301(10)
H4_8 H 0.5838 0.4589 0.8570
H5_8 H 0.5820 0.4911 0.8196
C2_8 C 0.601(2) 0.4240(12) 0.8044(12)
H6_8 H 0.6646 0.4273 0.8059
H7_8 H 0.5839 0.3917 0.8156
H8_8 H 0.5819 0.4272 0.7745
N1_9 N 0.0611(17) 0.7878(10) 0.9199(10)
H4_9 H 0.0838 0.7911 0.8930
H5_9 H 0.0820 0.7589 0.9304
C2_9 C 0.101(2) 0.8260(12) 0.9456(12)
H6_9 H 0.1646 0.8227 0.9441
H7_9 H 0.0839 0.8583 0.9344
H8_9 H 0.0819 0.8228 0.9755
C1_9 C 0.9721(17) 0.7807(12) 0.9141(12)
H1_9 H 0.9626 0.7523 0.8953
H2_9 H 0.9446 0.7746 0.9421
H3_9 H 0.9466 0.8101 0.9010
C1_10 C 0.7779(17) 0.9693(12) 0.9141(12)
H1_10 H 0.7874 0.9977 0.8953
H2_10 H 0.8054 0.9754 0.9421
H3_10 H 0.8034 0.9399 0.9010
N1_10 N 0.6889(17) 0.9622(10) 0.9199(10)
H4_10 H 0.6662 0.9589 0.8930
H5_10 H 0.6680 0.9911 0.9304
C2_10 C 0.649(2) 0.9240(12) 0.9456(12)
H6_10 H 0.5854 0.9273 0.9441
H7_10 H 0.6661 0.8917 0.9344
H8_10 H 0.6681 0.9272 0.9755
C1_11 C 0.7779(17) 0.7807(12) 0.8359(12)
H1_11 H 0.7874 0.7523 0.8547
H2_11 H 0.8054 0.7746 0.8079
H3_11 H 0.8034 0.8101 0.8490
N1_11 N 0.6889(17) 0.7878(10) 0.8301(10)
H4_11 H 0.6662 0.7911 0.8570
H5_11 H 0.6680 0.7589 0.8196
C2_11 C 0.649(2) 0.8260(12) 0.8044(12)
H6_11 H 0.5854 0.8227 0.8059
H7_11 H 0.6661 0.8583 0.8156
H8_11 H 0.6681 0.8228 0.7745
N1_12 N 0.0611(17) 0.9622(10) 0.8301(10)
H4_12 H 0.0838 0.9589 0.8570
H5_12 H 0.0820 0.9911 0.8196
C2_12 C 0.101(2) 0.9240(12) 0.8044(12)
H6_12 H 0.1646 0.9273 0.8059
H7_12 H 0.0839 0.8917 0.8156
H8_12 H 0.0819 0.9272 0.7745
C1_12 C 0.9721(17) 0.9693(12) 0.8359(12)
H1_12 H 0.9626 0.9977 0.8547
H2_12 H 0.9446 0.9754 0.8079
H3_12 H 0.9466 0.9399 0.8490
N1_13 N 0.0611(17) 0.2878(10) 0.4199(10)
H4_13 H 0.0838 0.2911 0.3930
H5_13 H 0.0820 0.2589 0.4304
C2_13 C 0.101(2) 0.3260(12) 0.4456(12)
H6_13 H 0.1646 0.3227 0.4441
H7_13 H 0.0839 0.3583 0.4344
H8_13 H 0.0819 0.3228 0.4755
C1_13 C 0.9721(17) 0.2807(12) 0.4141(12)
H1_13 H 0.9626 0.2523 0.3953
H2_13 H 0.9446 0.2746 0.4421
H3_13 H 0.9466 0.3101 0.4010
C1_14 C 0.7779(17) 0.4693(12) 0.4141(12)
H1_14 H 0.7874 0.4977 0.3953
H2_14 H 0.8054 0.4754 0.4421
H3_14 H 0.8034 0.4399 0.4010
N1_14 N 0.6889(17) 0.4622(10) 0.4199(10)
H4_14 H 0.6662 0.4589 0.3930
H5_14 H 0.6680 0.4911 0.4304
C2_14 C 0.649(2) 0.4240(12) 0.4456(12)
H6_14 H 0.5854 0.4273 0.4441
H7_14 H 0.6661 0.3917 0.4344
H8_14 H 0.6681 0.4272 0.4755
C1_15 C 0.7779(17) 0.2807(12) 0.3359(12)
H1_15 H 0.7874 0.2523 0.3547
H2_15 H 0.8054 0.2746 0.3079
H3_15 H 0.8034 0.3101 0.3490
N1_15 N 0.6889(17) 0.2878(10) 0.3301(10)
H4_15 H 0.6662 0.2911 0.3570
H5_15 H 0.6680 0.2589 0.3196
C2_15 C 0.649(2) 0.3260(12) 0.3044(12)
H6_15 H 0.5854 0.3227 0.3059
H7_15 H 0.6661 0.3583 0.3156
H8_15 H 0.6681 0.3228 0.2745
N1_16 N 0.0611(17) 0.4622(10) 0.3301(10)
H4_16 H 0.0838 0.4589 0.3570
H5_16 H 0.0820 0.4911 0.3196
C2_16 C 0.101(2) 0.4240(12) 0.3044(12)
H6_16 H 0.1646 0.4273 0.3059
H7_16 H 0.0839 0.3917 0.3156
H8_16 H 0.0819 0.4272 0.2745
C1_16 C 0.9721(17) 0.4693(12) 0.3359(12)
H1_16 H 0.9626 0.4977 0.3547
H2_16 H 0.9446 0.4754 0.3079
H3_16 H 0.9466 0.4399 0.3490
C1_17 C 0.5279(17) 0.2193(12) 0.5859(12)
H1_17 H 0.5374 0.2477 0.6047
H2_17 H 0.5554 0.2254 0.5579
H3_17 H 0.5534 0.1899 0.5990
N1_17 N 0.4389(17) 0.2122(10) 0.5801(10)
H4_17 H 0.4162 0.2089 0.6070
H5_17 H 0.4180 0.2411 0.5696
C2_17 C 0.399(2) 0.1740(12) 0.5544(12)
H6_17 H 0.3354 0.1773 0.5559
H7_17 H 0.4161 0.1417 0.5656
H8_17 H 0.4181 0.1772 0.5245
C1_18 C 0.7221(17) 0.0307(12) 0.5859(12)
H1_18 H 0.7126 0.0023 0.6047
H2_18 H 0.6946 0.0246 0.5579
H3_18 H 0.6966 0.0601 0.5990
N1_18 N 0.8111(17) 0.0378(10) 0.5801(10)
H4_18 H 0.8338 0.0411 0.6070
H5_18 H 0.8320 0.0089 0.5696
C2_18 C 0.851(2) 0.0760(12) 0.5544(12)
H6_18 H 0.9146 0.0727 0.5559
H7_18 H 0.8339 0.1083 0.5656
H8_18 H 0.8319 0.0728 0.5245
C1_19 C 0.7221(17) 0.2193(12) 0.6641(12)
H1_19 H 0.7126 0.2477 0.6453
H2_19 H 0.6946 0.2254 0.6921
H3_19 H 0.6966 0.1899 0.6510
N1_19 N 0.8111(17) 0.2122(10) 0.6699(10)
H4_19 H 0.8338 0.2089 0.6430
H5_19 H 0.8320 0.2411 0.6804
C2_19 C 0.851(2) 0.1740(12) 0.6956(12)
H6_19 H 0.9146 0.1773 0.6941
H7_19 H 0.8339 0.1417 0.6844
H8_19 H 0.8319 0.1772 0.7255
C1_20 C 0.5279(17) 0.0307(12) 0.6641(12)
H1_20 H 0.5374 0.0023 0.6453
H2_20 H 0.5554 0.0246 0.6921
H3_20 H 0.5534 0.0601 0.6510
N1_20 N 0.4389(17) 0.0378(10) 0.6699(10)
H4_20 H 0.4162 0.0411 0.6430
H5_20 H 0.4180 0.0089 0.6804
C2_20 C 0.399(2) 0.0760(12) 0.6956(12)
H6_20 H 0.3354 0.0727 0.6941
H7_20 H 0.4161 0.1083 0.6844
H8_20 H 0.4181 0.0728 0.7255
C1_21 C 0.5279(17) 0.7193(12) 0.0859(12)
H1_21 H 0.5374 0.7477 0.1047
H2_21 H 0.5554 0.7254 0.0579
H3_21 H 0.5534 0.6899 0.0990
N1_21 N 0.4389(17) 0.7122(10) 0.0801(10)
H4_21 H 0.4162 0.7089 0.1070
H5_21 H 0.4180 0.7411 0.0696
C2_21 C 0.399(2) 0.6740(12) 0.0544(12)
H6_21 H 0.3354 0.6773 0.0559
H7_21 H 0.4161 0.6417 0.0656
H8_21 H 0.4181 0.6772 0.0245
C1_22 C 0.7221(17) 0.5307(12) 0.0859(12)
H1_22 H 0.7126 0.5023 0.1047
H2_22 H 0.6946 0.5246 0.0579
H3_22 H 0.6966 0.5601 0.0990
N1_22 N 0.8111(17) 0.5378(10) 0.0801(10)
H4_22 H 0.8338 0.5411 0.1070
H5_22 H 0.8320 0.5089 0.0696
C2_22 C 0.851(2) 0.5760(12) 0.0544(12)
H6_22 H 0.9146 0.5727 0.0559
H7_22 H 0.8339 0.6083 0.0656
H8_22 H 0.8319 0.5728 0.0245
C1_23 C 0.7221(17) 0.7193(12) 0.1641(12)
H1_23 H 0.7126 0.7477 0.1453
H2_23 H 0.6946 0.7254 0.1921
H3_23 H 0.6966 0.6899 0.1510
N1_23 N 0.8111(17) 0.7122(10) 0.1699(10)
H4_23 H 0.8338 0.7089 0.1430
H5_23 H 0.8320 0.7411 0.1804
C2_23 C 0.851(2) 0.6740(12) 0.1956(12)
H6_23 H 0.9146 0.6773 0.1941
H7_23 H 0.8339 0.6417 0.1844
H8_23 H 0.8319 0.6772 0.2255
C1_24 C 0.5279(17) 0.5307(12) 0.1641(12)
H1_24 H 0.5374 0.5023 0.1453
H2_24 H 0.5554 0.5246 0.1921
H3_24 H 0.5534 0.5601 0.1510
N1_24 N 0.4389(17) 0.5378(10) 0.1699(10)
H4_24 H 0.4162 0.5411 0.1430
H5_24 H 0.4180 0.5089 0.1804
C2_24 C 0.399(2) 0.5760(12) 0.1956(12)
H6_24 H 0.3354 0.5727 0.1941
H7_24 H 0.4161 0.6083 0.1844
H8_24 H 0.4181 0.5728 0.2255
C1_25 C 0.0279(17) 0.2193(12) 0.0859(12)
H1_25 H 0.0374 0.2477 0.1047
H2_25 H 0.0554 0.2254 0.0579
H3_25 H 0.0534 0.1899 0.0990
N1_25 N 0.9389(17) 0.2122(10) 0.0801(10)
H4_25 H 0.9162 0.2089 0.1070
H5_25 H 0.9180 0.2411 0.0696
C2_25 C 0.899(2) 0.1740(12) 0.0544(12)
H6_25 H 0.8354 0.1773 0.0559
H7_25 H 0.9161 0.1417 0.0656
H8_25 H 0.9181 0.1772 0.0245
C1_26 C 0.2221(17) 0.0307(12) 0.0859(12)
H1_26 H 0.2126 0.0023 0.1047
H2_26 H 0.1946 0.0246 0.0579
H3_26 H 0.1966 0.0601 0.0990
N1_26 N 0.3111(17) 0.0378(10) 0.0801(10)
H4_26 H 0.3338 0.0411 0.1070
H5_26 H 0.3320 0.0089 0.0696
C2_26 C 0.351(2) 0.0760(12) 0.0544(12)
H6_26 H 0.4146 0.0727 0.0559
H7_26 H 0.3339 0.1083 0.0656
H8_26 H 0.3319 0.0728 0.0245
C1_27 C 0.2221(17) 0.2193(12) 0.1641(12)
H1_27 H 0.2126 0.2477 0.1453
H2_27 H 0.1946 0.2254 0.1921
H3_27 H 0.1966 0.1899 0.1510
N1_27 N 0.3111(17) 0.2122(10) 0.1699(10)
H4_27 H 0.3338 0.2089 0.1430
H5_27 H 0.3320 0.2411 0.1804
C2_27 C 0.351(2) 0.1740(12) 0.1956(12)
H6_27 H 0.4146 0.1773 0.1941
H7_27 H 0.3339 0.1417 0.1844
H8_27 H 0.3319 0.1772 0.2255
C1_28 C 0.0279(17) 0.0307(12) 0.1641(12)
H1_28 H 0.0374 0.0023 0.1453
H2_28 H 0.0554 0.0246 0.1921
H3_28 H 0.0534 0.0601 0.1510
N1_28 N 0.9389(17) 0.0378(10) 0.1699(10)
H4_28 H 0.9162 0.0411 0.1430
H5_28 H 0.9180 0.0089 0.1804
C2_28 C 0.899(2) 0.0760(12) 0.1956(12)
H6_28 H 0.8354 0.0727 0.1941
H7_28 H 0.9161 0.1083 0.1844
H8_28 H 0.9181 0.0728 0.2255
C1_29 C 0.0279(17) 0.7193(12) 0.5859(12)
H1_29 H 0.0374 0.7477 0.6047
H2_29 H 0.0554 0.7254 0.5579
H3_29 H 0.0534 0.6899 0.5990
N1_29 N 0.9389(17) 0.7122(10) 0.5801(10)
H4_29 H 0.9162 0.7089 0.6070
H5_29 H 0.9180 0.7411 0.5696
C2_29 C 0.899(2) 0.6740(12) 0.5544(12)
H6_29 H 0.8354 0.6773 0.5559
H7_29 H 0.9161 0.6417 0.5656
H8_29 H 0.9181 0.6772 0.5245
C1_30 C 0.2221(17) 0.5307(12) 0.5859(12)
H1_30 H 0.2126 0.5023 0.6047
H2_30 H 0.1946 0.5246 0.5579
H3_30 H 0.1966 0.5601 0.5990
N1_30 N 0.3111(17) 0.5378(10) 0.5801(10)
H4_30 H 0.3338 0.5411 0.6070
H5_30 H 0.3320 0.5089 0.5696
C2_30 C 0.351(2) 0.5760(12) 0.5544(12)
H6_30 H 0.4146 0.5727 0.5559
H7_30 H 0.3339 0.6083 0.5656
H8_30 H 0.3319 0.5728 0.5245
C1_31 C 0.2221(17) 0.7193(12) 0.6641(12)
H1_31 H 0.2126 0.7477 0.6453
H2_31 H 0.1946 0.7254 0.6921
H3_31 H 0.1966 0.6899 0.6510
N1_31 N 0.3111(17) 0.7122(10) 0.6699(10)
H4_31 H 0.3338 0.7089 0.6430
H5_31 H 0.3320 0.7411 0.6804
C2_31 C 0.351(2) 0.6740(12) 0.6956(12)
H6_31 H 0.4146 0.6773 0.6941
H7_31 H 0.3339 0.6417 0.6844
H8_31 H 0.3319 0.6772 0.7255
C1_32 C 0.0279(17) 0.5307(12) 0.6641(12)
H1_32 H 0.0374 0.5023 0.6453
H2_32 H 0.0554 0.5246 0.6921
H3_32 H 0.0534 0.5601 0.6510
N1_32 N 0.9389(17) 0.5378(10) 0.6699(10)
H4_32 H 0.9162 0.5411 0.6430
H5_32 H 0.9180 0.5089 0.6804
C2_32 C 0.899(2) 0.5760(12) 0.6956(12)
H6_32 H 0.8354 0.5727 0.6941
H7_32 H 0.9161 0.6083 0.6844
H8_32 H 0.9181 0.5728 0.7255
In1 In 0.6250 0.6250 0.43463(2)
O1 O 0.6466(2) 0.68590(13) 0.48295(10)
O2 O 0.51330(19) 0.66136(11) 0.47070(9)
O3 O 0.3546(2) 0.81780(11) 0.63237(9)
O4 O 0.48807(19) 0.83809(10) 0.64860(8)
N2 N 0.6822(5) 0.7502(4) 0.5450(3)
H9 H 0.7066 0.7290 0.5273
H10 H 0.7149 0.7701 0.5604
C3 C 0.5657(3) 0.68822(16) 0.49140(13)
C4 C 0.5336(3) 0.72207(16) 0.52564(13)
C5 C 0.5902(6) 0.7521(7) 0.5487(6)
C6 C 0.5547(8) 0.7844(11) 0.5791(10)
H11 H 0.5902 0.8087 0.5927
C7 C 0.4681(2) 0.78198(15) 0.59040(13)
C8 C 0.4120(7) 0.7511(8) 0.5681(7)
H12 H 0.3534 0.7462 0.5784
C9 C 0.4458(6) 0.7216(6) 0.5353(5)
H13 H 0.4115 0.6933 0.5260
C10 C 0.4353(3) 0.81441(14) 0.62574(12)
O5 O 0.6034(2) 0.56410(13) 0.48295(10)
O6 O 0.73670(19) 0.58864(11) 0.47070(9)
O7 O 0.8954(2) 0.43220(11) 0.63237(9)
O8 O 0.76193(19) 0.41191(10) 0.64860(8)
N3 N 0.5678(5) 0.4998(4) 0.5450(3)
H14 H 0.5434 0.5210 0.5273
H15 H 0.5351 0.4799 0.5604
C11 C 0.6843(3) 0.56178(16) 0.49140(13)
C12 C 0.7164(3) 0.52793(16) 0.52564(13)
C13 C 0.6598(6) 0.4979(7) 0.5487(6)
C14 C 0.6953(8) 0.4656(11) 0.5791(10)
H16 H 0.6598 0.4413 0.5927
C15 C 0.7819(2) 0.46802(15) 0.59040(13)
C16 C 0.8380(7) 0.4989(8) 0.5681(7)
H17 H 0.8966 0.5038 0.5784
C17 C 0.8042(6) 0.5284(6) 0.5353(5)
H18 H 0.8385 0.5567 0.5260
C18 C 0.8147(3) 0.43559(14) 0.62574(12)
In2 In 0.8750 0.3750 0.68463(2)
In3 In 0.3750 0.8750 0.68463(2)
O9 O 0.6046(2) 0.68220(11) 0.38237(9)
O10 O 0.6454(2) 0.56780(11) 0.38237(9)
O11 O 0.73807(19) 0.66191(10) 0.39860(8)
O12 O 0.51193(19) 0.58809(10) 0.39860(8)
In1_2 In 0.1250 0.1250 0.43463(2)
O1_2 O 0.1034(2) 0.06410(13) 0.48295(10)
O2_2 O 0.23670(19) 0.08864(11) 0.47070(9)
H9_2 H 0.0434 0.0210 0.5273
C3_2 C 0.1843(3) 0.06178(16) 0.49140(13)
C4_2 C 0.2164(3) 0.02793(16) 0.52564(13)
H12_2 H 0.3966 0.0038 0.5784
C9_2 C 0.3042(6) 0.0284(6) 0.5353(5)
H13_2 H 0.3385 0.0567 0.5260
O5_2 O 0.1466(2) 0.18590(13) 0.48295(10)
O6_2 O 0.01330(19) 0.16136(11) 0.47070(9)
N3_2 N 0.1822(5) 0.2502(4) 0.5450(3)
H14_2 H 0.2066 0.2290 0.5273
H15_2 H 0.2149 0.2701 0.5604
C11_2 C 0.0657(3) 0.18822(16) 0.49140(13)
C12_2 C 0.0336(3) 0.22207(16) 0.52564(13)
C13_2 C 0.0902(6) 0.2521(7) 0.5487(6)
C14_2 C 0.0547(8) 0.2844(11) 0.5791(10)
H16_2 H 0.0902 0.3087 0.5927
O9_2 O 0.1454(2) 0.06780(11) 0.38237(9)
O10_2 O 0.1046(2) 0.18220(11) 0.38237(9)
O11_2 O 0.01193(19) 0.08809(10) 0.39860(8)
O12_2 O 0.23807(19) 0.16191(10) 0.39860(8)
O3_2 O 0.3954(2) 0.93220(11) 0.63237(9)
O4_2 O 0.26193(19) 0.91191(10) 0.64860(8)
N2_2 N 0.0678(5) 0.9998(4) 0.5450(3)
H10_2 H 0.0351 0.9799 0.5604
C5_2 C 0.1598(6) 0.9979(7) 0.5487(6)
C6_2 C 0.1953(8) 0.9656(11) 0.5791(10)
H11_2 H 0.1598 0.9413 0.5927
C7_2 C 0.2819(2) 0.96802(15) 0.59040(13)
C8_2 C 0.3380(7) 0.9989(8) 0.5681(7)
C10_2 C 0.3147(3) 0.93559(14) 0.62574(12)
O7_2 O 0.8546(2) 0.31780(11) 0.63237(9)
O8_2 O 0.98807(19) 0.33809(10) 0.64860(8)
C15_2 C 0.9681(2) 0.28198(15) 0.59040(13)
C16_2 C 0.9120(7) 0.2511(8) 0.5681(7)
H17_2 H 0.8534 0.2462 0.5784
C17_2 C 0.9458(6) 0.2216(6) 0.5353(5)
H18_2 H 0.9115 0.1933 0.5260
C18_2 C 0.9353(3) 0.31441(14) 0.62574(12)
O3_3 O 0.3546(2) 0.31780(11) 0.13237(9)
O4_3 O 0.48807(19) 0.33809(10) 0.14860(8)
N2_3 N 0.6822(5) 0.2502(4) 0.0450(3)
H9_3 H 0.7066 0.2290 0.0273
H10_3 H 0.7149 0.2701 0.0604
C4_3 C 0.5336(3) 0.22207(16) 0.02564(13)
C5_3 C 0.5902(6) 0.2521(7) 0.0487(6)
C6_3 C 0.5547(8) 0.2844(11) 0.0791(10)
H11_3 H 0.5902 0.3087 0.0927
C7_3 C 0.4681(2) 0.28198(15) 0.09040(13)
C8_3 C 0.4120(7) 0.2511(8) 0.0681(7)
H12_3 H 0.3534 0.2462 0.0784
C9_3 C 0.4458(6) 0.2216(6) 0.0353(5)
H13_3 H 0.4115 0.1933 0.0260
C10_3 C 0.4353(3) 0.31441(14) 0.12574(12)
H14_3 H 0.5434 0.0210 0.0273
C12_3 C 0.7164(3) 0.02793(16) 0.02564(13)
H17_3 H 0.8966 0.0038 0.0784
C17_3 C 0.8042(6) 0.0284(6) 0.0353(5)
H18_3 H 0.8385 0.0567 0.0260
In3_2 In 0.3750 0.3750 0.18463(2)
In1_3 In 0.6250 0.1250 0.93463(2)
O1_3 O 0.6466(2) 0.18590(13) 0.98295(10)
O2_3 O 0.51330(19) 0.16136(11) 0.97070(9)
C3_3 C 0.5657(3) 0.18822(16) 0.99140(13)
O5_3 O 0.6034(2) 0.06410(13) 0.98295(10)
O6_3 O 0.73670(19) 0.08864(11) 0.97070(9)
C11_3 C 0.6843(3) 0.06178(16) 0.99140(13)
O9_3 O 0.6046(2) 0.18220(11) 0.88237(9)
O10_3 O 0.6454(2) 0.06780(11) 0.88237(9)
O11_3 O 0.73807(19) 0.16191(10) 0.89860(8)
O12_3 O 0.51193(19) 0.08809(10) 0.89860(8)
O7_3 O 0.8954(2) 0.93220(11) 0.13237(9)
O8_3 O 0.76193(19) 0.91191(10) 0.14860(8)
N3_3 N 0.5678(5) 0.9998(4) 0.0450(3)
H15_3 H 0.5351 0.9799 0.0604
C13_3 C 0.6598(6) 0.9979(7) 0.0487(6)
C14_3 C 0.6953(8) 0.9656(11) 0.0791(10)
H16_3 H 0.6598 0.9413 0.0927
C15_3 C 0.7819(2) 0.96802(15) 0.09040(13)
C16_3 C 0.8380(7) 0.9989(8) 0.0681(7)
C18_3 C 0.8147(3) 0.93559(14) 0.12574(12)
In2_2 In 0.8750 0.8750 0.18463(2)
O3_4 O 0.3954(2) 0.43220(11) 0.13237(9)
O4_4 O 0.26193(19) 0.41191(10) 0.14860(8)
N2_4 N 0.0678(5) 0.4998(4) 0.0450(3)
H9_4 H 0.0434 0.5210 0.0273
H10_4 H 0.0351 0.4799 0.0604
C4_4 C 0.2164(3) 0.52793(16) 0.02564(13)
C5_4 C 0.1598(6) 0.4979(7) 0.0487(6)
C6_4 C 0.1953(8) 0.4656(11) 0.0791(10)
H11_4 H 0.1598 0.4413 0.0927
C7_4 C 0.2819(2) 0.46802(15) 0.09040(13)
C8_4 C 0.3380(7) 0.4989(8) 0.0681(7)
H12_4 H 0.3966 0.5038 0.0784
C9_4 C 0.3042(6) 0.5284(6) 0.0353(5)
H13_4 H 0.3385 0.5567 0.0260
C10_4 C 0.3147(3) 0.43559(14) 0.12574(12)
N3_4 N 0.1822(5) 0.7502(4) 0.0450(3)
H14_4 H 0.2066 0.7290 0.0273
H15_4 H 0.2149 0.7701 0.0604
C12_4 C 0.0336(3) 0.72207(16) 0.02564(13)
C13_4 C 0.0902(6) 0.7521(7) 0.0487(6)
C14_4 C 0.0547(8) 0.7844(11) 0.0791(10)
H16_4 H 0.0902 0.8087 0.0927
In1_4 In 0.1250 0.6250 0.93463(2)
O1_4 O 0.1034(2) 0.56410(13) 0.98295(10)
O2_4 O 0.23670(19) 0.58864(11) 0.97070(9)
C3_4 C 0.1843(3) 0.56178(16) 0.99140(13)
O5_4 O 0.1466(2) 0.68590(13) 0.98295(10)
O6_4 O 0.01330(19) 0.66136(11) 0.97070(9)
C11_4 C 0.0657(3) 0.68822(16) 0.99140(13)
O9_4 O 0.1454(2) 0.56780(11) 0.88237(9)
O10_4 O 0.1046(2) 0.68220(11) 0.88237(9)
O11_4 O 0.01193(19) 0.58809(10) 0.89860(8)
O12_4 O 0.23807(19) 0.66191(10) 0.89860(8)
O7_4 O 0.8546(2) 0.81780(11) 0.13237(9)
O8_4 O 0.98807(19) 0.83809(10) 0.14860(8)
C15_4 C 0.9681(2) 0.78198(15) 0.09040(13)
C16_4 C 0.9120(7) 0.7511(8) 0.0681(7)
H17_4 H 0.8534 0.7462 0.0784
C17_4 C 0.9458(6) 0.7216(6) 0.0353(5)
H18_4 H 0.9115 0.6933 0.0260
C18_4 C 0.9353(3) 0.81441(14) 0.12574(12)
C15_5 C 0.0319(2) 0.53198(15) 0.84040(13)
C16_5 C 0.0880(7) 0.5011(8) 0.8181(7)
H17_5 H 0.1466 0.4962 0.8284
C17_5 C 0.0542(6) 0.4716(6) 0.7853(5)
H18_5 H 0.0885 0.4433 0.7760
C18_5 C 0.0647(3) 0.56441(14) 0.87574(12)
O1_5 O 0.8966(2) 0.31410(13) 0.73295(10)
O2_5 O 0.76330(19) 0.33864(11) 0.72070(9)
N2_5 N 0.9322(5) 0.2498(4) 0.7950(3)
H9_5 H 0.9566 0.2710 0.7773
H10_5 H 0.9649 0.2299 0.8104
C3_5 C 0.8157(3) 0.31178(16) 0.74140(13)
C4_5 C 0.7836(3) 0.27793(16) 0.77564(13)
C5_5 C 0.8402(6) 0.2479(7) 0.7987(6)
C6_5 C 0.8047(8) 0.2156(11) 0.8291(10)
H11_5 H 0.8402 0.1913 0.8427
C7_5 C 0.7181(2) 0.21802(15) 0.84040(13)
C8_5 C 0.6620(7) 0.2489(8) 0.8181(7)
H12_5 H 0.6034 0.2538 0.8284
C9_5 C 0.6958(6) 0.2784(6) 0.7853(5)
H13_5 H 0.6615 0.3067 0.7760
C10_5 C 0.6853(3) 0.18559(14) 0.87574(12)
O5_5 O 0.8534(2) 0.43590(13) 0.73295(10)
O6_5 O 0.98670(19) 0.41136(11) 0.72070(9)
N3_5 N 0.8178(5) 0.5002(4) 0.7950(3)
H14_5 H 0.7934 0.4790 0.7773
H15_5 H 0.7851 0.5201 0.8104
C11_5 C 0.9343(3) 0.43822(16) 0.74140(13)
C12_5 C 0.9664(3) 0.47207(16) 0.77564(13)
C13_5 C 0.9098(6) 0.5021(7) 0.7987(6)
C14_5 C 0.9453(8) 0.5344(11) 0.8291(10)
H16_5 H 0.9098 0.5587 0.8427
N2_6 N 0.3178(5) 0.0002(4) 0.7950(3)
H10_6 H 0.2851 0.0201 0.8104
C5_6 C 0.4098(6) 0.0021(7) 0.7987(6)
C6_6 C 0.4453(8) 0.0344(11) 0.8291(10)
H11_6 H 0.4098 0.0587 0.8427
C7_6 C 0.5319(2) 0.03198(15) 0.84040(13)
C8_6 C 0.5880(7) 0.0011(8) 0.8181(7)
C10_6 C 0.5647(3) 0.06441(14) 0.87574(12)
O1_6 O 0.3534(2) 0.93590(13) 0.73295(10)
O2_6 O 0.48670(19) 0.91136(11) 0.72070(9)
H9_6 H 0.2934 0.9790 0.7773
C3_6 C 0.4343(3) 0.93822(16) 0.74140(13)
C4_6 C 0.4664(3) 0.97207(16) 0.77564(13)
H12_6 H 0.6466 0.9962 0.8284
C9_6 C 0.5542(6) 0.9716(6) 0.7853(5)
H13_6 H 0.5885 0.9433 0.7760
O5_6 O 0.3966(2) 0.81410(13) 0.73295(10)
O6_6 O 0.26330(19) 0.83864(11) 0.72070(9)
N3_6 N 0.4322(5) 0.7498(4) 0.7950(3)
H14_6 H 0.4566 0.7710 0.7773
H15_6 H 0.4649 0.7299 0.8104
C11_6 C 0.3157(3) 0.81178(16) 0.74140(13)
C12_6 C 0.2836(3) 0.77793(16) 0.77564(13)
C13_6 C 0.3402(6) 0.7479(7) 0.7987(6)
C14_6 C 0.3047(8) 0.7156(11) 0.8291(10)
H16_6 H 0.3402 0.6913 0.8427
C15_6 C 0.2181(2) 0.71802(15) 0.84040(13)
C16_6 C 0.1620(7) 0.7489(8) 0.8181(7)
H17_6 H 0.1034 0.7538 0.8284
C17_6 C 0.1958(6) 0.7784(6) 0.7853(5)
H18_6 H 0.1615 0.8067 0.7760
C18_6 C 0.1853(3) 0.68559(14) 0.87574(12)
C15_7 C 0.0319(2) 0.03198(15) 0.34040(13)
C16_7 C 0.0880(7) 0.0011(8) 0.3181(7)
C18_7 C 0.0647(3) 0.06441(14) 0.37574(12)
O1_7 O 0.8966(2) 0.81410(13) 0.23295(10)
O2_7 O 0.76330(19) 0.83864(11) 0.22070(9)
N2_7 N 0.9322(5) 0.7498(4) 0.2950(3)
H9_7 H 0.9566 0.7710 0.2773
H10_7 H 0.9649 0.7299 0.3104
C3_7 C 0.8157(3) 0.81178(16) 0.24140(13)
C4_7 C 0.7836(3) 0.77793(16) 0.27564(13)
C5_7 C 0.8402(6) 0.7479(7) 0.2987(6)
C6_7 C 0.8047(8) 0.7156(11) 0.3291(10)
H11_7 H 0.8402 0.6913 0.3427
C7_7 C 0.7181(2) 0.71802(15) 0.34040(13)
C8_7 C 0.6620(7) 0.7489(8) 0.3181(7)
H12_7 H 0.6034 0.7538 0.3284
C9_7 C 0.6958(6) 0.7784(6) 0.2853(5)
H13_7 H 0.6615 0.8067 0.2760
C10_7 C 0.6853(3) 0.68559(14) 0.37574(12)
O5_7 O 0.8534(2) 0.93590(13) 0.23295(10)
O6_7 O 0.98670(19) 0.91136(11) 0.22070(9)
H14_7 H 0.7934 0.9790 0.2773
C11_7 C 0.9343(3) 0.93822(16) 0.24140(13)
C12_7 C 0.9664(3) 0.97207(16) 0.27564(13)
O1_8 O 0.3534(2) 0.43590(13) 0.23295(10)
O2_8 O 0.48670(19) 0.41136(11) 0.22070(9)
N2_8 N 0.3178(5) 0.5002(4) 0.2950(3)
H9_8 H 0.2934 0.4790 0.2773
H10_8 H 0.2851 0.5201 0.3104
C3_8 C 0.4343(3) 0.43822(16) 0.24140(13)
C4_8 C 0.4664(3) 0.47207(16) 0.27564(13)
C5_8 C 0.4098(6) 0.5021(7) 0.2987(6)
C6_8 C 0.4453(8) 0.5344(11) 0.3291(10)
H11_8 H 0.4098 0.5587 0.3427
C7_8 C 0.5319(2) 0.53198(15) 0.34040(13)
C8_8 C 0.5880(7) 0.5011(8) 0.3181(7)
H12_8 H 0.6466 0.4962 0.3284
C9_8 C 0.5542(6) 0.4716(6) 0.2853(5)
H13_8 H 0.5885 0.4433 0.2760
C10_8 C 0.5647(3) 0.56441(14) 0.37574(12)
O5_8 O 0.3966(2) 0.31410(13) 0.23295(10)
O6_8 O 0.26330(19) 0.33864(11) 0.22070(9)
N3_7 N 0.4322(5) 0.2498(4) 0.2950(3)
H14_8 H 0.4566 0.2710 0.2773
H15_7 H 0.4649 0.2299 0.3104
C11_8 C 0.3157(3) 0.31178(16) 0.24140(13)
C12_8 C 0.2836(3) 0.27793(16) 0.27564(13)
C13_7 C 0.3402(6) 0.2479(7) 0.2987(6)
C14_7 C 0.3047(8) 0.2156(11) 0.3291(10)
H16_7 H 0.3402 0.1913 0.3427
C15_8 C 0.2181(2) 0.21802(15) 0.34040(13)
C16_8 C 0.1620(7) 0.2489(8) 0.3181(7)
H17_7 H 0.1034 0.2538 0.3284
C17_7 C 0.1958(6) 0.2784(6) 0.2853(5)
H18_7 H 0.1615 0.3067 0.2760
C18_8 C 0.1853(3) 0.18559(14) 0.37574(12)
In1_5 In 0.1250 0.6250 0.31537(2)
O1_9 O 0.1034(2) 0.68590(13) 0.26705(10)
O2_9 O 0.23670(19) 0.66136(11) 0.27930(9)
O3_5 O 0.3954(2) 0.81780(11) 0.11763(9)
O4_5 O 0.26193(19) 0.83809(10) 0.10140(8)
N2_9 N 0.0678(5) 0.7502(4) 0.2050(3)
H9_9 H 0.0434 0.7290 0.2227
H10_9 H 0.0351 0.7701 0.1896
C3_9 C 0.1843(3) 0.68822(16) 0.25860(13)
C4_9 C 0.2164(3) 0.72207(16) 0.22436(13)
C5_9 C 0.1598(6) 0.7521(7) 0.2013(6)
C6_9 C 0.1953(8) 0.7844(11) 0.1709(10)
H11_9 H 0.1598 0.8087 0.1573
C7_9 C 0.2819(2) 0.78198(15) 0.15960(13)
C8_9 C 0.3380(7) 0.7511(8) 0.1819(7)
H12_9 H 0.3966 0.7462 0.1716
C9_9 C 0.3042(6) 0.7216(6) 0.2147(5)
H13_9 H 0.3385 0.6933 0.2240
C10_9 C 0.3147(3) 0.81441(14) 0.12426(12)
O5_9 O 0.1466(2) 0.56410(13) 0.26705(10)
O6_9 O 0.01330(19) 0.58864(11) 0.27930(9)
N3_8 N 0.1822(5) 0.4998(4) 0.2050(3)
H14_9 H 0.2066 0.5210 0.2227
H15_8 H 0.2149 0.4799 0.1896
C11_9 C 0.0657(3) 0.56178(16) 0.25860(13)
C12_9 C 0.0336(3) 0.52793(16) 0.22436(13)
C13_8 C 0.0902(6) 0.4979(7) 0.2013(6)
C14_8 C 0.0547(8) 0.4656(11) 0.1709(10)
H16_8 H 0.0902 0.4413 0.1573
In3_3 In 0.3750 0.8750 0.06537(2)
O9_5 O 0.1454(2) 0.68220(11) 0.36763(9)
O10_5 O 0.1046(2) 0.56780(11) 0.36763(9)
O11_5 O 0.01193(19) 0.66191(10) 0.35140(8)
O12_5 O 0.23807(19) 0.58809(10) 0.35140(8)
O7_5 O 0.8546(2) 0.43220(11) 0.11763(9)
O8_5 O 0.98807(19) 0.41191(10) 0.10140(8)
C15_9 C 0.9681(2) 0.46802(15) 0.15960(13)
C16_9 C 0.9120(7) 0.4989(8) 0.1819(7)
H17_8 H 0.8534 0.5038 0.1716
C17_8 C 0.9458(6) 0.5284(6) 0.2147(5)
H18_8 H 0.9115 0.5567 0.2240
C18_9 C 0.9353(3) 0.43559(14) 0.12426(12)
In2_3 In 0.8750 0.3750 0.06537(2)
In1_6 In 0.6250 0.1250 0.31537(2)
O1_10 O 0.6466(2) 0.06410(13) 0.26705(10)
O2_10 O 0.51330(19) 0.08864(11) 0.27930(9)
H9_10 H 0.7066 0.0210 0.2227
C3_10 C 0.5657(3) 0.06178(16) 0.25860(13)
C4_10 C 0.5336(3) 0.02793(16) 0.22436(13)
H12_10 H 0.3534 0.0038 0.1716
C9_10 C 0.4458(6) 0.0284(6) 0.2147(5)
H13_10 H 0.4115 0.0567 0.2240
O5_10 O 0.6034(2) 0.18590(13) 0.26705(10)
O6_10 O 0.73670(19) 0.16136(11) 0.27930(9)
O7_6 O 0.8954(2) 0.31780(11) 0.11763(9)
O8_6 O 0.76193(19) 0.33809(10) 0.10140(8)
N3_9 N 0.5678(5) 0.2502(4) 0.2050(3)
H14_10 H 0.5434 0.2290 0.2227
H15_9 H 0.5351 0.2701 0.1896
C11_10 C 0.6843(3) 0.18822(16) 0.25860(13)
C12_10 C 0.7164(3) 0.22207(16) 0.22436(13)
C13_9 C 0.6598(6) 0.2521(7) 0.2013(6)
C14_9 C 0.6953(8) 0.2844(11) 0.1709(10)
H16_9 H 0.6598 0.3087 0.1573
C15_10 C 0.7819(2) 0.28198(15) 0.15960(13)
C16_10 C 0.8380(7) 0.2511(8) 0.1819(7)
H17_9 H 0.8966 0.2462 0.1716
C17_9 C 0.8042(6) 0.2216(6) 0.2147(5)
H18_9 H 0.8385 0.1933 0.2240
C18_10 C 0.8147(3) 0.31441(14) 0.12426(12)
O9_6 O 0.6046(2) 0.06780(11) 0.36763(9)
O10_6 O 0.6454(2) 0.18220(11) 0.36763(9)
O11_6 O 0.73807(19) 0.08809(10) 0.35140(8)
O12_6 O 0.51193(19) 0.16191(10) 0.35140(8)
O3_6 O 0.3546(2) 0.93220(11) 0.11763(9)
O4_6 O 0.48807(19) 0.91191(10) 0.10140(8)
N2_10 N 0.6822(5) 0.9998(4) 0.2050(3)
H10_10 H 0.7149 0.9799 0.1896
C5_10 C 0.5902(6) 0.9979(7) 0.2013(6)
C6_10 C 0.5547(8) 0.9656(11) 0.1709(10)
H11_10 H 0.5902 0.9413 0.1573
C7_10 C 0.4681(2) 0.96802(15) 0.15960(13)
C8_10 C 0.4120(7) 0.9989(8) 0.1819(7)
C10_10 C 0.4353(3) 0.93559(14) 0.12426(12)
In1_7 In 0.1250 0.1250 0.81537(2)
O1_11 O 0.1034(2) 0.18590(13) 0.76705(10)
O2_11 O 0.23670(19) 0.16136(11) 0.77930(9)
O3_7 O 0.3954(2) 0.31780(11) 0.61763(9)
O4_7 O 0.26193(19) 0.33809(10) 0.60140(8)
N2_11 N 0.0678(5) 0.2502(4) 0.7050(3)
H9_11 H 0.0434 0.2290 0.7227
H10_11 H 0.0351 0.2701 0.6896
C3_11 C 0.1843(3) 0.18822(16) 0.75860(13)
C4_11 C 0.2164(3) 0.22207(16) 0.72436(13)
C5_11 C 0.1598(6) 0.2521(7) 0.7013(6)
C6_11 C 0.1953(8) 0.2844(11) 0.6709(10)
H11_11 H 0.1598 0.3087 0.6573
C7_11 C 0.2819(2) 0.28198(15) 0.65960(13)
C8_11 C 0.3380(7) 0.2511(8) 0.6819(7)
H12_11 H 0.3966 0.2462 0.6716
C9_11 C 0.3042(6) 0.2216(6) 0.7147(5)
H13_11 H 0.3385 0.1933 0.7240
C10_11 C 0.3147(3) 0.31441(14) 0.62426(12)
O5_11 O 0.1466(2) 0.06410(13) 0.76705(10)
O6_11 O 0.01330(19) 0.08864(11) 0.77930(9)
H14_11 H 0.2066 0.0210 0.7227
C11_11 C 0.0657(3) 0.06178(16) 0.75860(13)
C12_11 C 0.0336(3) 0.02793(16) 0.72436(13)
In3_4 In 0.3750 0.3750 0.56537(2)
O9_7 O 0.1454(2) 0.18220(11) 0.86763(9)
O10_7 O 0.1046(2) 0.06780(11) 0.86763(9)
O11_7 O 0.01193(19) 0.16191(10) 0.85140(8)
O12_7 O 0.23807(19) 0.08809(10) 0.85140(8)
O7_7 O 0.8546(2) 0.93220(11) 0.61763(9)
O8_7 O 0.98807(19) 0.91191(10) 0.60140(8)
C15_11 C 0.9681(2) 0.96802(15) 0.65960(13)
C16_11 C 0.9120(7) 0.9989(8) 0.6819(7)
C18_11 C 0.9353(3) 0.93559(14) 0.62426(12)
In2_4 In 0.8750 0.8750 0.56537(2)
In1_8 In 0.6250 0.6250 0.81537(2)
O1_12 O 0.6466(2) 0.56410(13) 0.76705(10)
O2_12 O 0.51330(19) 0.58864(11) 0.77930(9)
O3_8 O 0.3546(2) 0.43220(11) 0.61763(9)
O4_8 O 0.48807(19) 0.41191(10) 0.60140(8)
N2_12 N 0.6822(5) 0.4998(4) 0.7050(3)
H9_12 H 0.7066 0.5210 0.7227
H10_12 H 0.7149 0.4799 0.6896
C3_12 C 0.5657(3) 0.56178(16) 0.75860(13)
C4_12 C 0.5336(3) 0.52793(16) 0.72436(13)
C5_12 C 0.5902(6) 0.4979(7) 0.7013(6)
C6_12 C 0.5547(8) 0.4656(11) 0.6709(10)
H11_12 H 0.5902 0.4413 0.6573
C7_12 C 0.4681(2) 0.46802(15) 0.65960(13)
C8_12 C 0.4120(7) 0.4989(8) 0.6819(7)
H12_12 H 0.3534 0.5038 0.6716
C9_12 C 0.4458(6) 0.5284(6) 0.7147(5)
H13_12 H 0.4115 0.5567 0.7240
C10_12 C 0.4353(3) 0.43559(14) 0.62426(12)
O5_12 O 0.6034(2) 0.68590(13) 0.76705(10)
O6_12 O 0.73670(19) 0.66136(11) 0.77930(9)
O7_8 O 0.8954(2) 0.81780(11) 0.61763(9)
O8_8 O 0.76193(19) 0.83809(10) 0.60140(8)
N3_10 N 0.5678(5) 0.7502(4) 0.7050(3)
H14_12 H 0.5434 0.7290 0.7227
H15_10 H 0.5351 0.7701 0.6896
C11_12 C 0.6843(3) 0.68822(16) 0.75860(13)
C12_12 C 0.7164(3) 0.72207(16) 0.72436(13)
C13_10 C 0.6598(6) 0.7521(7) 0.7013(6)
C14_10 C 0.6953(8) 0.7844(11) 0.6709(10)
H16_10 H 0.6598 0.8087 0.6573
C15_12 C 0.7819(2) 0.78198(15) 0.65960(13)
C16_12 C 0.8380(7) 0.7511(8) 0.6819(7)
H17_10 H 0.8966 0.7462 0.6716
C17_10 C 0.8042(6) 0.7216(6) 0.7147(5)
H18_10 H 0.8385 0.6933 0.7240
C18_12 C 0.8147(3) 0.81441(14) 0.62426(12)
O9_8 O 0.6046(2) 0.56780(11) 0.86763(9)
O10_8 O 0.6454(2) 0.68220(11) 0.86763(9)
O11_8 O 0.73807(19) 0.58809(10) 0.85140(8)
O12_8 O 0.51193(19) 0.66191(10) 0.85140(8)
O1_13 O 0.3534(2) 0.31410(13) 0.51705(10)
O2_13 O 0.48670(19) 0.33864(11) 0.52930(9)
N2_13 N 0.3178(5) 0.2498(4) 0.4550(3)
H9_13 H 0.2934 0.2710 0.4727
H10_13 H 0.2851 0.2299 0.4396
C3_13 C 0.4343(3) 0.31178(16) 0.50860(13)
C4_13 C 0.4664(3) 0.27793(16) 0.47436(13)
C5_13 C 0.4098(6) 0.2479(7) 0.4513(6)
C6_13 C 0.4453(8) 0.2156(11) 0.4209(10)
H11_13 H 0.4098 0.1913 0.4073
C7_13 C 0.5319(2) 0.21802(15) 0.40960(13)
C8_13 C 0.5880(7) 0.2489(8) 0.4319(7)
H12_13 H 0.6466 0.2538 0.4216
C9_13 C 0.5542(6) 0.2784(6) 0.4647(5)
H13_13 H 0.5885 0.3067 0.4740
C10_13 C 0.5647(3) 0.18559(14) 0.37426(12)
O5_13 O 0.3966(2) 0.43590(13) 0.51705(10)
O6_13 O 0.26330(19) 0.41136(11) 0.52930(9)
N3_11 N 0.4322(5) 0.5002(4) 0.4550(3)
H14_13 H 0.4566 0.4790 0.4727
H15_11 H 0.4649 0.5201 0.4396
C11_13 C 0.3157(3) 0.43822(16) 0.50860(13)
C12_13 C 0.2836(3) 0.47207(16) 0.47436(13)
C13_11 C 0.3402(6) 0.5021(7) 0.4513(6)
C14_11 C 0.3047(8) 0.5344(11) 0.4209(10)
H16_11 H 0.3402 0.5587 0.4073
C15_13 C 0.2181(2) 0.53198(15) 0.40960(13)
C16_13 C 0.1620(7) 0.5011(8) 0.4319(7)
H17_11 H 0.1034 0.4962 0.4216
C17_11 C 0.1958(6) 0.4716(6) 0.4647(5)
H18_11 H 0.1615 0.4433 0.4740
C18_13 C 0.1853(3) 0.56441(14) 0.37426(12)
C15_14 C 0.0319(2) 0.71802(15) 0.40960(13)
C16_14 C 0.0880(7) 0.7489(8) 0.4319(7)
H17_12 H 0.1466 0.7538 0.4216
C17_12 C 0.0542(6) 0.7784(6) 0.4647(5)
H18_12 H 0.0885 0.8067 0.4740
C18_14 C 0.0647(3) 0.68559(14) 0.37426(12)
N2_14 N 0.9322(5) 0.0002(4) 0.4550(3)
H10_14 H 0.9649 0.0201 0.4396
C5_14 C 0.8402(6) 0.0021(7) 0.4513(6)
C6_14 C 0.8047(8) 0.0344(11) 0.4209(10)
H11_14 H 0.8402 0.0587 0.4073
C7_14 C 0.7181(2) 0.03198(15) 0.40960(13)
C8_14 C 0.6620(7) 0.0011(8) 0.4319(7)
C10_14 C 0.6853(3) 0.06441(14) 0.37426(12)
O1_14 O 0.8966(2) 0.93590(13) 0.51705(10)
O2_14 O 0.76330(19) 0.91136(11) 0.52930(9)
H9_14 H 0.9566 0.9790 0.4727
C3_14 C 0.8157(3) 0.93822(16) 0.50860(13)
C4_14 C 0.7836(3) 0.97207(16) 0.47436(13)
H12_14 H 0.6034 0.9962 0.4216
C9_14 C 0.6958(6) 0.9716(6) 0.4647(5)
H13_14 H 0.6615 0.9433 0.4740
O5_14 O 0.8534(2) 0.81410(13) 0.51705(10)
O6_14 O 0.98670(19) 0.83864(11) 0.52930(9)
N3_12 N 0.8178(5) 0.7498(4) 0.4550(3)
H14_14 H 0.7934 0.7710 0.4727
H15_12 H 0.7851 0.7299 0.4396
C11_14 C 0.9343(3) 0.81178(16) 0.50860(13)
C12_14 C 0.9664(3) 0.77793(16) 0.47436(13)
C13_12 C 0.9098(6) 0.7479(7) 0.4513(6)
C14_12 C 0.9453(8) 0.7156(11) 0.4209(10)
H16_12 H 0.9098 0.6913 0.4073
N3_13 N 0.4322(5) 0.0002(4) 0.9550(3)
H15_13 H 0.4649 0.0201 0.9396
C13_13 C 0.3402(6) 0.0021(7) 0.9513(6)
C14_13 C 0.3047(8) 0.0344(11) 0.9209(10)
H16_13 H 0.3402 0.0587 0.9073
C15_15 C 0.2181(2) 0.03198(15) 0.90960(13)
C16_15 C 0.1620(7) 0.0011(8) 0.9319(7)
C18_15 C 0.1853(3) 0.06441(14) 0.87426(12)
O1_15 O 0.3534(2) 0.81410(13) 0.01705(10)
O2_15 O 0.48670(19) 0.83864(11) 0.02930(9)
C3_15 C 0.4343(3) 0.81178(16) 0.00860(13)
O5_15 O 0.3966(2) 0.93590(13) 0.01705(10)
O6_15 O 0.26330(19) 0.91136(11) 0.02930(9)
C11_15 C 0.3157(3) 0.93822(16) 0.00860(13)
N2_15 N 0.3178(5) 0.7498(4) 0.9550(3)
H9_15 H 0.2934 0.7710 0.9727
H10_15 H 0.2851 0.7299 0.9396
C4_15 C 0.4664(3) 0.77793(16) 0.97436(13)
C5_15 C 0.4098(6) 0.7479(7) 0.9513(6)
C6_15 C 0.4453(8) 0.7156(11) 0.9209(10)
H11_15 H 0.4098 0.6913 0.9073
C7_15 C 0.5319(2) 0.71802(15) 0.90960(13)
C8_15 C 0.5880(7) 0.7489(8) 0.9319(7)
H12_15 H 0.6466 0.7538 0.9216
C9_15 C 0.5542(6) 0.7784(6) 0.9647(5)
H13_15 H 0.5885 0.8067 0.9740
C10_15 C 0.5647(3) 0.68559(14) 0.87426(12)
H14_15 H 0.4566 0.9790 0.9727
C12_15 C 0.2836(3) 0.97207(16) 0.97436(13)
H17_13 H 0.1034 0.9962 0.9216
C17_13 C 0.1958(6) 0.9716(6) 0.9647(5)
H18_13 H 0.1615 0.9433 0.9740
C15_16 C 0.0319(2) 0.21802(15) 0.90960(13)
C16_16 C 0.0880(7) 0.2489(8) 0.9319(7)
H17_14 H 0.1466 0.2538 0.9216
C17_14 C 0.0542(6) 0.2784(6) 0.9647(5)
H18_14 H 0.0885 0.3067 0.9740
C18_16 C 0.0647(3) 0.18559(14) 0.87426(12)
O1_16 O 0.8966(2) 0.43590(13) 0.01705(10)
O2_16 O 0.76330(19) 0.41136(11) 0.02930(9)
C3_16 C 0.8157(3) 0.43822(16) 0.00860(13)
O5_16 O 0.8534(2) 0.31410(13) 0.01705(10)
O6_16 O 0.98670(19) 0.33864(11) 0.02930(9)
C11_16 C 0.9343(3) 0.31178(16) 0.00860(13)
N2_16 N 0.9322(5) 0.5002(4) 0.9550(3)
H9_16 H 0.9566 0.4790 0.9727
H10_16 H 0.9649 0.5201 0.9396
C4_16 C 0.7836(3) 0.47207(16) 0.97436(13)
C5_16 C 0.8402(6) 0.5021(7) 0.9513(6)
C6_16 C 0.8047(8) 0.5344(11) 0.9209(10)
H11_16 H 0.8402 0.5587 0.9073
C7_16 C 0.7181(2) 0.53198(15) 0.90960(13)
C8_16 C 0.6620(7) 0.5011(8) 0.9319(7)
H12_16 H 0.6034 0.4962 0.9216
C9_16 C 0.6958(6) 0.4716(6) 0.9647(5)
H13_16 H 0.6615 0.4433 0.9740
C10_16 C 0.6853(3) 0.56441(14) 0.87426(12)
N3_14 N 0.8178(5) 0.2498(4) 0.9550(3)
H14_16 H 0.7934 0.2710 0.9727
H15_14 H 0.7851 0.2299 0.9396
C12_16 C 0.9664(3) 0.27793(16) 0.97436(13)
C13_14 C 0.9098(6) 0.2479(7) 0.9513(6)
C14_14 C 0.9453(8) 0.2156(11) 0.9209(10)
H16_14 H 0.9098 0.1913 0.9073
N3_15 N 0.1822(5) 0.9998(4) 0.7050(3)
H15_15 H 0.2149 0.9799 0.6896
C13_15 C 0.0902(6) 0.9979(7) 0.7013(6)
C14_15 C 0.0547(8) 0.9656(11) 0.6709(10)
H16_15 H 0.0902 0.9413 0.6573
H17_15 H 0.8534 0.0038 0.6716
C17_15 C 0.9458(6) 0.0284(6) 0.7147(5)
H18_15 H 0.9115 0.0567 0.7240
H17_16 H 0.1466 0.9962 0.3284
C17_16 C 0.0542(6) 0.9716(6) 0.2853(5)
H18_16 H 0.0885 0.9433 0.2760
N3_16 N 0.8178(5) 0.0002(4) 0.2950(3)
H15_16 H 0.7851 0.0201 0.3104
C13_16 C 0.9098(6) 0.0021(7) 0.2987(6)
C14_16 C 0.9453(8) 0.0344(11) 0.3291(10)
H16_16 H 0.9098 0.0587 0.3427
loop_
_geom_bond_atom_site_label_1
_geom_bond_atom_site_label_2
_geom_bond_site_symmetry_1
_geom_bond_site_symmetry_2
C1 H1 1_555 1_555
H2 C1 1_555 1_555
H3 C1 1_555 1_555
N1 C1 1_555 1_555
H4 N1 1_555 1_555
H5 N1 1_555 1_555
C2 N1 1_555 1_555
H6 C2 1_555 1_555
H7 C2 1_555 1_555
H8 C2 1_555 1_555
C1_2 H1_2 1_555 1_555
H2_2 C1_2 1_555 1_555
H3_2 C1_2 1_555 1_555
N1_2 C1_2 1_555 1_555
H4_2 N1_2 1_555 1_555
H5_2 N1_2 1_555 1_555
C2_2 N1_2 1_555 1_555
H6_2 C2_2 1_555 1_555
H7_2 C2_2 1_555 1_555
H8_2 C2_2 1_555 1_555
C1_3 H1_3 1_555 1_555
H2_3 C1_3 1_555 1_555
H3_3 C1_3 1_555 1_555
N1_3 C1_3 1_555 1_555
H4_3 N1_3 1_555 1_555
H5_3 N1_3 1_555 1_555
C2_3 N1_3 1_555 1_555
H6_3 C2_3 1_555 1_555
H7_3 C2_3 1_555 1_555
H8_3 C2_3 1_555 1_555
C1_4 H1_4 1_555 1_555
H2_4 C1_4 1_555 1_555
H3_4 C1_4 1_555 1_555
N1_4 C1_4 1_555 1_555
H4_4 N1_4 1_555 1_555
H5_4 N1_4 1_555 1_555
C2_4 N1_4 1_555 1_555
H6_4 C2_4 1_555 1_555
H7_4 C2_4 1_555 1_555
H8_4 C2_4 1_555 1_555
C1_5 H1_5 1_555 1_555
H2_5 C1_5 1_555 1_555
H3_5 C1_5 1_555 1_555
N1_5 C1_5 1_555 1_555
H4_5 N1_5 1_555 1_555
H5_5 N1_5 1_555 1_555
C2_5 N1_5 1_555 1_555
H6_5 C2_5 1_555 1_555
H7_5 C2_5 1_555 1_555
H8_5 C2_5 1_555 1_555
C1_6 H1_6 1_555 1_555
H2_6 C1_6 1_555 1_555
H3_6 C1_6 1_555 1_555
N1_6 C1_6 1_555 1_555
H4_6 N1_6 1_555 1_555
H5_6 N1_6 1_555 1_555
C2_6 N1_6 1_555 1_555
H6_6 C2_6 1_555 1_555
H7_6 C2_6 1_555 1_555
H8_6 C2_6 1_555 1_555
C1_7 H1_7 1_555 1_555
H2_7 C1_7 1_555 1_555
H3_7 C1_7 1_555 1_555
N1_7 C1_7 1_555 1_555
H4_7 N1_7 1_555 1_555
H5_7 N1_7 1_555 1_555
C2_7 N1_7 1_555 1_555
H6_7 C2_7 1_555 1_555
H7_7 C2_7 1_555 1_555
H8_7 C2_7 1_555 1_555
C1_8 H1_8 1_555 1_555
H2_8 C1_8 1_555 1_555
H3_8 C1_8 1_555 1_555
N1_8 C1_8 1_555 1_555
H4_8 N1_8 1_555 1_555
H5_8 N1_8 1_555 1_555
C2_8 N1_8 1_555 1_555
H6_8 C2_8 1_555 1_555
H7_8 C2_8 1_555 1_555
H8_8 C2_8 1_555 1_555
H4_9 N1_9 1_555 1_555
H5_9 N1_9 1_555 1_555
C2_9 N1_9 1_555 1_555
H6_9 C2_9 1_555 1_555
H7_9 C2_9 1_555 1_555
H8_9 C2_9 1_555 1_555
C1_9 H1_9 1_555 1_555
H2_9 C1_9 1_555 1_555
H3_9 C1_9 1_555 1_555
C1_10 H1_10 1_555 1_555
H2_10 C1_10 1_555 1_555
H3_10 C1_10 1_555 1_555
N1_10 C1_10 1_555 1_555
H4_10 N1_10 1_555 1_555
H5_10 N1_10 1_555 1_555
C2_10 N1_10 1_555 1_555
H6_10 C2_10 1_555 1_555
H7_10 C2_10 1_555 1_555
H8_10 C2_10 1_555 1_555
C1_11 H1_11 1_555 1_555
H2_11 C1_11 1_555 1_555
H3_11 C1_11 1_555 1_555
N1_11 C1_11 1_555 1_555
H4_11 N1_11 1_555 1_555
H5_11 N1_11 1_555 1_555
C2_11 N1_11 1_555 1_555
H6_11 C2_11 1_555 1_555
H7_11 C2_11 1_555 1_555
H8_11 C2_11 1_555 1_555
H4_12 N1_12 1_555 1_555
H5_12 N1_12 1_555 1_555
C2_12 N1_12 1_555 1_555
H6_12 C2_12 1_555 1_555
H7_12 C2_12 1_555 1_555
H8_12 C2_12 1_555 1_555
C1_12 H1_12 1_555 1_555
H2_12 C1_12 1_555 1_555
H3_12 C1_12 1_555 1_555
H4_13 N1_13 1_555 1_555
H5_13 N1_13 1_555 1_555
C2_13 N1_13 1_555 1_555
H6_13 C2_13 1_555 1_555
H7_13 C2_13 1_555 1_555
H8_13 C2_13 1_555 1_555
C1_13 H1_13 1_555 1_555
H2_13 C1_13 1_555 1_555
H3_13 C1_13 1_555 1_555
C1_14 H1_14 1_555 1_555
H2_14 C1_14 1_555 1_555
H3_14 C1_14 1_555 1_555
N1_14 C1_14 1_555 1_555
H4_14 N1_14 1_555 1_555
H5_14 N1_14 1_555 1_555
C2_14 N1_14 1_555 1_555
H6_14 C2_14 1_555 1_555
H7_14 C2_14 1_555 1_555
H8_14 C2_14 1_555 1_555
C1_15 H1_15 1_555 1_555
H2_15 C1_15 1_555 1_555
H3_15 C1_15 1_555 1_555
N1_15 C1_15 1_555 1_555
H4_15 N1_15 1_555 1_555
H5_15 N1_15 1_555 1_555
C2_15 N1_15 1_555 1_555
H6_15 C2_15 1_555 1_555
H7_15 C2_15 1_555 1_555
H8_15 C2_15 1_555 1_555
H4_16 N1_16 1_555 1_555
H5_16 N1_16 1_555 1_555
C2_16 N1_16 1_555 1_555
H6_16 C2_16 1_555 1_555
H7_16 C2_16 1_555 1_555
H8_16 C2_16 1_555 1_555
C1_16 H1_16 1_555 1_555
H2_16 C1_16 1_555 1_555
H3_16 C1_16 1_555 1_555
C1_17 H1_17 1_555 1_555
H2_17 C1_17 1_555 1_555
H3_17 C1_17 1_555 1_555
N1_17 C1_17 1_555 1_555
H4_17 N1_17 1_555 1_555
H5_17 N1_17 1_555 1_555
C2_17 N1_17 1_555 1_555
H6_17 C2_17 1_555 1_555
H7_17 C2_17 1_555 1_555
H8_17 C2_17 1_555 1_555
C1_18 H1_18 1_555 1_555
H2_18 C1_18 1_555 1_555
H3_18 C1_18 1_555 1_555
N1_18 C1_18 1_555 1_555
H4_18 N1_18 1_555 1_555
H5_18 N1_18 1_555 1_555
C2_18 N1_18 1_555 1_555
H6_18 C2_18 1_555 1_555
H7_18 C2_18 1_555 1_555
H8_18 C2_18 1_555 1_555
C1_19 H1_19 1_555 1_555
H2_19 C1_19 1_555 1_555
H3_19 C1_19 1_555 1_555
N1_19 C1_19 1_555 1_555
H4_19 N1_19 1_555 1_555
H5_19 N1_19 1_555 1_555
C2_19 N1_19 1_555 1_555
H6_19 C2_19 1_555 1_555
H7_19 C2_19 1_555 1_555
H8_19 C2_19 1_555 1_555
C1_20 H1_20 1_555 1_555
H2_20 C1_20 1_555 1_555
H3_20 C1_20 1_555 1_555
N1_20 C1_20 1_555 1_555
H4_20 N1_20 1_555 1_555
H5_20 N1_20 1_555 1_555
C2_20 N1_20 1_555 1_555
H6_20 C2_20 1_555 1_555
H7_20 C2_20 1_555 1_555
H8_20 C2_20 1_555 1_555
C1_21 H1_21 1_555 1_555
H2_21 C1_21 1_555 1_555
H3_21 C1_21 1_555 1_555
N1_21 C1_21 1_555 1_555
H4_21 N1_21 1_555 1_555
H5_21 N1_21 1_555 1_555
C2_21 N1_21 1_555 1_555
H6_21 C2_21 1_555 1_555
H7_21 C2_21 1_555 1_555
H8_21 C2_21 1_555 1_555
C1_22 H1_22 1_555 1_555
H2_22 C1_22 1_555 1_555
H3_22 C1_22 1_555 1_555
N1_22 C1_22 1_555 1_555
H4_22 N1_22 1_555 1_555
H5_22 N1_22 1_555 1_555
C2_22 N1_22 1_555 1_555
H6_22 C2_22 1_555 1_555
H7_22 C2_22 1_555 1_555
H8_22 C2_22 1_555 1_555
C1_23 H1_23 1_555 1_555
H2_23 C1_23 1_555 1_555
H3_23 C1_23 1_555 1_555
N1_23 C1_23 1_555 1_555
H4_23 N1_23 1_555 1_555
H5_23 N1_23 1_555 1_555
C2_23 N1_23 1_555 1_555
H6_23 C2_23 1_555 1_555
H7_23 C2_23 1_555 1_555
H8_23 C2_23 1_555 1_555
C1_24 H1_24 1_555 1_555
H2_24 C1_24 1_555 1_555
H3_24 C1_24 1_555 1_555
N1_24 C1_24 1_555 1_555
H4_24 N1_24 1_555 1_555
H5_24 N1_24 1_555 1_555
C2_24 N1_24 1_555 1_555
H6_24 C2_24 1_555 1_555
H7_24 C2_24 1_555 1_555
H8_24 C2_24 1_555 1_555
C1_25 H1_25 1_555 1_555
H2_25 C1_25 1_555 1_555
H3_25 C1_25 1_555 1_555
H4_25 N1_25 1_555 1_555
H5_25 N1_25 1_555 1_555
C2_25 N1_25 1_555 1_555
H6_25 C2_25 1_555 1_555
H7_25 C2_25 1_555 1_555
H8_25 C2_25 1_555 1_555
C1_26 H1_26 1_555 1_555
H2_26 C1_26 1_555 1_555
H3_26 C1_26 1_555 1_555
N1_26 C1_26 1_555 1_555
H4_26 N1_26 1_555 1_555
H5_26 N1_26 1_555 1_555
C2_26 N1_26 1_555 1_555
H6_26 C2_26 1_555 1_555
H7_26 C2_26 1_555 1_555
H8_26 C2_26 1_555 1_555
C1_27 H1_27 1_555 1_555
H2_27 C1_27 1_555 1_555
H3_27 C1_27 1_555 1_555
N1_27 C1_27 1_555 1_555
H4_27 N1_27 1_555 1_555
H5_27 N1_27 1_555 1_555
C2_27 N1_27 1_555 1_555
H6_27 C2_27 1_555 1_555
H7_27 C2_27 1_555 1_555
H8_27 C2_27 1_555 1_555
C1_28 H1_28 1_555 1_555
H2_28 C1_28 1_555 1_555
H3_28 C1_28 1_555 1_555
H4_28 N1_28 1_555 1_555
H5_28 N1_28 1_555 1_555
C2_28 N1_28 1_555 1_555
H6_28 C2_28 1_555 1_555
H7_28 C2_28 1_555 1_555
H8_28 C2_28 1_555 1_555
C1_29 H1_29 1_555 1_555
H2_29 C1_29 1_555 1_555
H3_29 C1_29 1_555 1_555
H4_29 N1_29 1_555 1_555
H5_29 N1_29 1_555 1_555
C2_29 N1_29 1_555 1_555
H6_29 C2_29 1_555 1_555
H7_29 C2_29 1_555 1_555
H8_29 C2_29 1_555 1_555
C1_30 H1_30 1_555 1_555
H2_30 C1_30 1_555 1_555
H3_30 C1_30 1_555 1_555
N1_30 C1_30 1_555 1_555
H4_30 N1_30 1_555 1_555
H5_30 N1_30 1_555 1_555
C2_30 N1_30 1_555 1_555
H6_30 C2_30 1_555 1_555
H7_30 C2_30 1_555 1_555
H8_30 C2_30 1_555 1_555
C1_31 H1_31 1_555 1_555
H2_31 C1_31 1_555 1_555
H3_31 C1_31 1_555 1_555
N1_31 C1_31 1_555 1_555
H4_31 N1_31 1_555 1_555
H5_31 N1_31 1_555 1_555
C2_31 N1_31 1_555 1_555
H6_31 C2_31 1_555 1_555
H7_31 C2_31 1_555 1_555
H8_31 C2_31 1_555 1_555
C1_32 H1_32 1_555 1_555
H2_32 C1_32 1_555 1_555
H3_32 C1_32 1_555 1_555
H4_32 N1_32 1_555 1_555
H5_32 N1_32 1_555 1_555
C2_32 N1_32 1_555 1_555
H6_32 C2_32 1_555 1_555
H7_32 C2_32 1_555 1_555
H8_32 C2_32 1_555 1_555
In1 O1 1_555 1_555
O1 C3 1_555 1_555
O2 In1 1_555 1_555
O3 C10 1_555 1_555
O4 C10 1_555 1_555
N2 H9 1_555 1_555
H10 N2 1_555 1_555
C3 O2 1_555 1_555
C4 C3 1_555 1_555
C5 N2 1_555 1_555
C6 C5 1_555 1_555
H11 C6 1_555 1_555
C7 C6 1_555 1_555
C8 C7 1_555 1_555
H12 C8 1_555 1_555
C9 C4 1_555 1_555
H13 C9 1_555 1_555
C10 C7 1_555 1_555
O5 In1 1_555 1_555
O6 In1 1_555 1_555
O7 C18 1_555 1_555
O8 C18 1_555 1_555
N3 H14 1_555 1_555
H15 N3 1_555 1_555
C11 O5 1_555 1_555
C12 C11 1_555 1_555
C13 N3 1_555 1_555
C14 C13 1_555 1_555
H16 C14 1_555 1_555
C15 C14 1_555 1_555
C16 C15 1_555 1_555
H17 C16 1_555 1_555
C17 C12 1_555 1_555
H18 C17 1_555 1_555
C18 C15 1_555 1_555
In2 O7 1_555 1_555
In3 O3 1_555 1_555
O9 In1 1_555 1_555
O10 In1 1_555 1_555
O11 In1 1_555 1_555
O12 In1 1_555 1_555
O4 In3 1_555 1_555
C4 C5 1_555 1_555
C8 C9 1_555 1_555
O6 C11 1_555 1_555
O8 In2 1_555 1_555
C12 C13 1_555 1_555
C16 C17 1_555 1_555
In1_2 O1_2 1_555 1_555
O1_2 C3_2 1_555 1_555
O2_2 In1_2 1_555 1_555
C3_2 O2_2 1_555 1_555
C4_2 C3_2 1_555 1_555
C9_2 C4_2 1_555 1_555
H13_2 C9_2 1_555 1_555
O5_2 In1_2 1_555 1_555
O6_2 In1_2 1_555 1_555
N3_2 H14_2 1_555 1_555
H15_2 N3_2 1_555 1_555
C11_2 O5_2 1_555 1_555
C12_2 C11_2 1_555 1_555
C13_2 N3_2 1_555 1_555
C14_2 C13_2 1_555 1_555
H16_2 C14_2 1_555 1_555
O9_2 In1_2 1_555 1_555
O10_2 In1_2 1_555 1_555
O11_2 In1_2 1_555 1_555
O12_2 In1_2 1_555 1_555
O6_2 C11_2 1_555 1_555
C12_2 C13_2 1_555 1_555
O3_2 C10_2 1_555 1_555
O4_2 C10_2 1_555 1_555
H10_2 N2_2 1_555 1_555
C5_2 N2_2 1_555 1_555
C6_2 C5_2 1_555 1_555
H11_2 C6_2 1_555 1_555
C7_2 C6_2 1_555 1_555
C8_2 C7_2 1_555 1_555
C10_2 C7_2 1_555 1_555
In3 O3_2 1_555 1_555
O4_2 In3 1_555 1_555
O7_2 C18_2 1_555 1_555
O8_2 C18_2 1_555 1_555
C16_2 C15_2 1_555 1_555
H17_2 C16_2 1_555 1_555
H18_2 C17_2 1_555 1_555
C18_2 C15_2 1_555 1_555
In2 O7_2 1_555 1_555
O8_2 In2 1_555 1_555
C16_2 C17_2 1_555 1_555
O3_3 C10_3 1_555 1_555
O4_3 C10_3 1_555 1_555
N2_3 H9_3 1_555 1_555
H10_3 N2_3 1_555 1_555
C5_3 N2_3 1_555 1_555
C6_3 C5_3 1_555 1_555
H11_3 C6_3 1_555 1_555
C7_3 C6_3 1_555 1_555
C8_3 C7_3 1_555 1_555
H12_3 C8_3 1_555 1_555
C9_3 C4_3 1_555 1_555
H13_3 C9_3 1_555 1_555
C10_3 C7_3 1_555 1_555
C17_3 C12_3 1_555 1_555
H18_3 C17_3 1_555 1_555
In3_2 O3_3 1_555 1_555
O4_3 In3_2 1_555 1_555
C4_3 C5_3 1_555 1_555
C8_3 C9_3 1_555 1_555
In1_3 O1_3 1_555 1_555
O1_3 C3_3 1_555 1_555
O2_3 In1_3 1_555 1_555
C3_3 O2_3 1_555 1_555
O5_3 In1_3 1_555 1_555
O6_3 In1_3 1_555 1_555
C11_3 O5_3 1_555 1_555
O9_3 In1_3 1_555 1_555
O10_3 In1_3 1_555 1_555
O11_3 In1_3 1_555 1_555
O12_3 In1_3 1_555 1_555
O6_3 C11_3 1_555 1_555
O7_3 C18_3 1_555 1_555
O8_3 C18_3 1_555 1_555
H15_3 N3_3 1_555 1_555
C13_3 N3_3 1_555 1_555
C14_3 C13_3 1_555 1_555
H16_3 C14_3 1_555 1_555
C15_3 C14_3 1_555 1_555
C16_3 C15_3 1_555 1_555
C18_3 C15_3 1_555 1_555
In2_2 O7_3 1_555 1_555
O8_3 In2_2 1_555 1_555
O3_4 C10_4 1_555 1_555
O4_4 C10_4 1_555 1_555
N2_4 H9_4 1_555 1_555
H10_4 N2_4 1_555 1_555
C5_4 N2_4 1_555 1_555
C6_4 C5_4 1_555 1_555
H11_4 C6_4 1_555 1_555
C7_4 C6_4 1_555 1_555
C8_4 C7_4 1_555 1_555
H12_4 C8_4 1_555 1_555
C9_4 C4_4 1_555 1_555
H13_4 C9_4 1_555 1_555
C10_4 C7_4 1_555 1_555
N3_4 H14_4 1_555 1_555
H15_4 N3_4 1_555 1_555
C13_4 N3_4 1_555 1_555
C14_4 C13_4 1_555 1_555
H16_4 C14_4 1_555 1_555
In3_2 O3_4 1_555 1_555
O4_4 In3_2 1_555 1_555
C4_4 C5_4 1_555 1_555
C8_4 C9_4 1_555 1_555
C12_4 C13_4 1_555 1_555
In1_4 O1_4 1_555 1_555
O1_4 C3_4 1_555 1_555
O2_4 In1_4 1_555 1_555
C3_4 O2_4 1_555 1_555
O5_4 In1_4 1_555 1_555
O6_4 In1_4 1_555 1_555
C11_4 O5_4 1_555 1_555
O9_4 In1_4 1_555 1_555
O10_4 In1_4 1_555 1_555
O11_4 In1_4 1_555 1_555
O12_4 In1_4 1_555 1_555
O6_4 C11_4 1_555 1_555
O7_4 C18_4 1_555 1_555
O8_4 C18_4 1_555 1_555
C16_4 C15_4 1_555 1_555
H17_4 C16_4 1_555 1_555
H18_4 C17_4 1_555 1_555
C18_4 C15_4 1_555 1_555
In2_2 O7_4 1_555 1_555
O8_4 In2_2 1_555 1_555
C16_4 C17_4 1_555 1_555
O9_4 C18_5 1_555 1_555
O11_4 C18_5 1_555 1_555
C16_5 C15_5 1_555 1_555
H17_5 C16_5 1_555 1_555
H18_5 C17_5 1_555 1_555
C18_5 C15_5 1_555 1_555
C16_5 C17_5 1_555 1_555
In2 O1_5 1_555 1_555
O1_5 C3_5 1_555 1_555
O2_5 In2 1_555 1_555
O9_3 C10_5 1_555 1_555
O11_3 C10_5 1_555 1_555
N2_5 H9_5 1_555 1_555
H10_5 N2_5 1_555 1_555
C3_5 O2_5 1_555 1_555
C4_5 C3_5 1_555 1_555
C5_5 N2_5 1_555 1_555
C6_5 C5_5 1_555 1_555
H11_5 C6_5 1_555 1_555
C7_5 C6_5 1_555 1_555
C8_5 C7_5 1_555 1_555
H12_5 C8_5 1_555 1_555
C9_5 C4_5 1_555 1_555
H13_5 C9_5 1_555 1_555
C10_5 C7_5 1_555 1_555
O5_5 In2 1_555 1_555
O6_5 In2 1_555 1_555
N3_5 H14_5 1_555 1_555
H15_5 N3_5 1_555 1_555
C11_5 O5_5 1_555 1_555
C12_5 C11_5 1_555 1_555
C13_5 N3_5 1_555 1_555
C14_5 C13_5 1_555 1_555
H16_5 C14_5 1_555 1_555
C4_5 C5_5 1_555 1_555
C8_5 C9_5 1_555 1_555
O6_5 C11_5 1_555 1_555
C12_5 C13_5 1_555 1_555
O10_3 C10_6 1_555 1_555
O12_3 C10_6 1_555 1_555
H10_6 N2_6 1_555 1_555
C5_6 N2_6 1_555 1_555
C6_6 C5_6 1_555 1_555
H11_6 C6_6 1_555 1_555
C7_6 C6_6 1_555 1_555
C8_6 C7_6 1_555 1_555
C10_6 C7_6 1_555 1_555
In3 O1_6 1_555 1_555
O1_6 C3_6 1_555 1_555
O2_6 In3 1_555 1_555
C3_6 O2_6 1_555 1_555
C4_6 C3_6 1_555 1_555
C9_6 C4_6 1_555 1_555
H13_6 C9_6 1_555 1_555
O5_6 In3 1_555 1_555
O6_6 In3 1_555 1_555
O10_4 C18_6 1_555 1_555
O12_4 C18_6 1_555 1_555
N3_6 H14_6 1_555 1_555
H15_6 N3_6 1_555 1_555
C11_6 O5_6 1_555 1_555
C12_6 C11_6 1_555 1_555
C13_6 N3_6 1_555 1_555
C14_6 C13_6 1_555 1_555
H16_6 C14_6 1_555 1_555
C15_6 C14_6 1_555 1_555
C16_6 C15_6 1_555 1_555
H17_6 C16_6 1_555 1_555
C17_6 C12_6 1_555 1_555
H18_6 C17_6 1_555 1_555
C18_6 C15_6 1_555 1_555
O6_6 C11_6 1_555 1_555
C12_6 C13_6 1_555 1_555
C16_6 C17_6 1_555 1_555
O9_2 C18_7 1_555 1_555
O11_2 C18_7 1_555 1_555
C16_7 C15_7 1_555 1_555
C18_7 C15_7 1_555 1_555
In2_2 O1_7 1_555 1_555
O1_7 C3_7 1_555 1_555
O2_7 In2_2 1_555 1_555
O9 C10_7 1_555 1_555
O11 C10_7 1_555 1_555
N2_7 H9_7 1_555 1_555
H10_7 N2_7 1_555 1_555
C3_7 O2_7 1_555 1_555
C4_7 C3_7 1_555 1_555
C5_7 N2_7 1_555 1_555
C6_7 C5_7 1_555 1_555
H11_7 C6_7 1_555 1_555
C7_7 C6_7 1_555 1_555
C8_7 C7_7 1_555 1_555
H12_7 C8_7 1_555 1_555
C9_7 C4_7 1_555 1_555
H13_7 C9_7 1_555 1_555
C10_7 C7_7 1_555 1_555
O5_7 In2_2 1_555 1_555
O6_7 In2_2 1_555 1_555
C11_7 O5_7 1_555 1_555
C12_7 C11_7 1_555 1_555
C4_7 C5_7 1_555 1_555
C8_7 C9_7 1_555 1_555
O6_7 C11_7 1_555 1_555
In3_2 O1_8 1_555 1_555
O1_8 C3_8 1_555 1_555
O2_8 In3_2 1_555 1_555
O10 C10_8 1_555 1_555
O12 C10_8 1_555 1_555
N2_8 H9_8 1_555 1_555
H10_8 N2_8 1_555 1_555
C3_8 O2_8 1_555 1_555
C4_8 C3_8 1_555 1_555
C5_8 N2_8 1_555 1_555
C6_8 C5_8 1_555 1_555
H11_8 C6_8 1_555 1_555
C7_8 C6_8 1_555 1_555
C8_8 C7_8 1_555 1_555
H12_8 C8_8 1_555 1_555
C9_8 C4_8 1_555 1_555
H13_8 C9_8 1_555 1_555
C10_8 C7_8 1_555 1_555
O5_8 In3_2 1_555 1_555
O6_8 In3_2 1_555 1_555
O10_2 C18_8 1_555 1_555
O12_2 C18_8 1_555 1_555
N3_7 H14_8 1_555 1_555
H15_7 N3_7 1_555 1_555
C11_8 O5_8 1_555 1_555
C12_8 C11_8 1_555 1_555
C13_7 N3_7 1_555 1_555
C14_7 C13_7 1_555 1_555
H16_7 C14_7 1_555 1_555
C15_8 C14_7 1_555 1_555
C16_8 C15_8 1_555 1_555
H17_7 C16_8 1_555 1_555
C17_7 C12_8 1_555 1_555
H18_7 C17_7 1_555 1_555
C18_8 C15_8 1_555 1_555
C4_8 C5_8 1_555 1_555
C8_8 C9_8 1_555 1_555
O6_8 C11_8 1_555 1_555
C12_8 C13_7 1_555 1_555
C16_8 C17_7 1_555 1_555
In1_5 O1_9 1_555 1_555
O1_9 C3_9 1_555 1_555
O2_9 In1_5 1_555 1_555
O3_5 C10_9 1_555 1_555
O4_5 C10_9 1_555 1_555
N2_9 H9_9 1_555 1_555
H10_9 N2_9 1_555 1_555
C3_9 O2_9 1_555 1_555
C4_9 C3_9 1_555 1_555
C5_9 N2_9 1_555 1_555
C6_9 C5_9 1_555 1_555
H11_9 C6_9 1_555 1_555
C7_9 C6_9 1_555 1_555
C8_9 C7_9 1_555 1_555
H12_9 C8_9 1_555 1_555
C9_9 C4_9 1_555 1_555
H13_9 C9_9 1_555 1_555
C10_9 C7_9 1_555 1_555
O5_9 In1_5 1_555 1_555
O6_9 In1_5 1_555 1_555
N3_8 H14_9 1_555 1_555
H15_8 N3_8 1_555 1_555
C11_9 O5_9 1_555 1_555
C12_9 C11_9 1_555 1_555
C13_8 N3_8 1_555 1_555
C14_8 C13_8 1_555 1_555
H16_8 C14_8 1_555 1_555
In3_3 O3_5 1_555 1_555
O9_5 In1_5 1_555 1_555
O10_5 In1_5 1_555 1_555
O11_5 In1_5 1_555 1_555
O12_5 In1_5 1_555 1_555
O4_5 In3_3 1_555 1_555
C4_9 C5_9 1_555 1_555
C8_9 C9_9 1_555 1_555
O6_9 C11_9 1_555 1_555
C12_9 C13_8 1_555 1_555
O7_5 C18_9 1_555 1_555
O8_5 C18_9 1_555 1_555
C16_9 C15_9 1_555 1_555
H17_8 C16_9 1_555 1_555
H18_8 C17_8 1_555 1_555
C18_9 C15_9 1_555 1_555
In2_3 O7_5 1_555 1_555
O8_5 In2_3 1_555 1_555
C16_9 C17_8 1_555 1_555
In1_6 O1_10 1_555 1_555
O1_10 C3_10 1_555 1_555
O2_10 In1_6 1_555 1_555
C3_10 O2_10 1_555 1_555
C4_10 C3_10 1_555 1_555
C9_10 C4_10 1_555 1_555
H13_10 C9_10 1_555 1_555
O5_10 In1_6 1_555 1_555
O6_10 In1_6 1_555 1_555
O7_6 C18_10 1_555 1_555
O8_6 C18_10 1_555 1_555
N3_9 H14_10 1_555 1_555
H15_9 N3_9 1_555 1_555
C11_10 O5_10 1_555 1_555
C12_10 C11_10 1_555 1_555
C13_9 N3_9 1_555 1_555
C14_9 C13_9 1_555 1_555
H16_9 C14_9 1_555 1_555
C15_10 C14_9 1_555 1_555
C16_10 C15_10 1_555 1_555
H17_9 C16_10 1_555 1_555
C17_9 C12_10 1_555 1_555
H18_9 C17_9 1_555 1_555
C18_10 C15_10 1_555 1_555
In2_3 O7_6 1_555 1_555
O9_6 In1_6 1_555 1_555
O10_6 In1_6 1_555 1_555
O11_6 In1_6 1_555 1_555
O12_6 In1_6 1_555 1_555
O6_10 C11_10 1_555 1_555
O8_6 In2_3 1_555 1_555
C12_10 C13_9 1_555 1_555
C16_10 C17_9 1_555 1_555
O3_6 C10_10 1_555 1_555
O4_6 C10_10 1_555 1_555
H10_10 N2_10 1_555 1_555
C5_10 N2_10 1_555 1_555
C6_10 C5_10 1_555 1_555
H11_10 C6_10 1_555 1_555
C7_10 C6_10 1_555 1_555
C8_10 C7_10 1_555 1_555
C10_10 C7_10 1_555 1_555
In3_3 O3_6 1_555 1_555
O4_6 In3_3 1_555 1_555
In1_7 O1_11 1_555 1_555
O1_11 C3_11 1_555 1_555
O2_11 In1_7 1_555 1_555
O3_7 C10_11 1_555 1_555
O4_7 C10_11 1_555 1_555
N2_11 H9_11 1_555 1_555
H10_11 N2_11 1_555 1_555
C3_11 O2_11 1_555 1_555
C4_11 C3_11 1_555 1_555
C5_11 N2_11 1_555 1_555
C6_11 C5_11 1_555 1_555
H11_11 C6_11 1_555 1_555
C7_11 C6_11 1_555 1_555
C8_11 C7_11 1_555 1_555
H12_11 C8_11 1_555 1_555
C9_11 C4_11 1_555 1_555
H13_11 C9_11 1_555 1_555
C10_11 C7_11 1_555 1_555
O5_11 In1_7 1_555 1_555
O6_11 In1_7 1_555 1_555
C11_11 O5_11 1_555 1_555
C12_11 C11_11 1_555 1_555
In3_4 O3_7 1_555 1_555
O9_7 In1_7 1_555 1_555
O10_7 In1_7 1_555 1_555
O11_7 In1_7 1_555 1_555
O12_7 In1_7 1_555 1_555
O4_7 In3_4 1_555 1_555
C4_11 C5_11 1_555 1_555
C8_11 C9_11 1_555 1_555
O6_11 C11_11 1_555 1_555
O7_7 C18_11 1_555 1_555
O8_7 C18_11 1_555 1_555
C16_11 C15_11 1_555 1_555
C18_11 C15_11 1_555 1_555
In2_4 O7_7 1_555 1_555
O8_7 In2_4 1_555 1_555
In1_8 O1_12 1_555 1_555
O1_12 C3_12 1_555 1_555
O2_12 In1_8 1_555 1_555
O3_8 C10_12 1_555 1_555
O4_8 C10_12 1_555 1_555
N2_12 H9_12 1_555 1_555
H10_12 N2_12 1_555 1_555
C3_12 O2_12 1_555 1_555
C4_12 C3_12 1_555 1_555
C5_12 N2_12 1_555 1_555
C6_12 C5_12 1_555 1_555
H11_12 C6_12 1_555 1_555
C7_12 C6_12 1_555 1_555
C8_12 C7_12 1_555 1_555
H12_12 C8_12 1_555 1_555
C9_12 C4_12 1_555 1_555
H13_12 C9_12 1_555 1_555
C10_12 C7_12 1_555 1_555
O5_12 In1_8 1_555 1_555
O6_12 In1_8 1_555 1_555
O7_8 C18_12 1_555 1_555
O8_8 C18_12 1_555 1_555
N3_10 H14_12 1_555 1_555
H15_10 N3_10 1_555 1_555
C11_12 O5_12 1_555 1_555
C12_12 C11_12 1_555 1_555
C13_10 N3_10 1_555 1_555
C14_10 C13_10 1_555 1_555
H16_10 C14_10 1_555 1_555
C15_12 C14_10 1_555 1_555
C16_12 C15_12 1_555 1_555
H17_10 C16_12 1_555 1_555
C17_10 C12_12 1_555 1_555
H18_10 C17_10 1_555 1_555
C18_12 C15_12 1_555 1_555
In2_4 O7_8 1_555 1_555
In3_4 O3_8 1_555 1_555
O9_8 In1_8 1_555 1_555
O10_8 In1_8 1_555 1_555
O11_8 In1_8 1_555 1_555
O12_8 In1_8 1_555 1_555
O4_8 In3_4 1_555 1_555
C4_12 C5_12 1_555 1_555
C8_12 C9_12 1_555 1_555
O6_12 C11_12 1_555 1_555
O8_8 In2_4 1_555 1_555
C12_12 C13_10 1_555 1_555
C16_12 C17_10 1_555 1_555
In3_4 O1_13 1_555 1_555
O1_13 C3_13 1_555 1_555
O2_13 In3_4 1_555 1_555
O10_6 C10_13 1_555 1_555
O12_6 C10_13 1_555 1_555
N2_13 H9_13 1_555 1_555
H10_13 N2_13 1_555 1_555
C3_13 O2_13 1_555 1_555
C4_13 C3_13 1_555 1_555
C5_13 N2_13 1_555 1_555
C6_13 C5_13 1_555 1_555
H11_13 C6_13 1_555 1_555
C7_13 C6_13 1_555 1_555
C8_13 C7_13 1_555 1_555
H12_13 C8_13 1_555 1_555
C9_13 C4_13 1_555 1_555
H13_13 C9_13 1_555 1_555
C10_13 C7_13 1_555 1_555
O5_13 In3_4 1_555 1_555
O6_13 In3_4 1_555 1_555
O10_5 C18_13 1_555 1_555
O12_5 C18_13 1_555 1_555
N3_11 H14_13 1_555 1_555
H15_11 N3_11 1_555 1_555
C11_13 O5_13 1_555 1_555
C12_13 C11_13 1_555 1_555
C13_11 N3_11 1_555 1_555
C14_11 C13_11 1_555 1_555
H16_11 C14_11 1_555 1_555
C15_13 C14_11 1_555 1_555
C16_13 C15_13 1_555 1_555
H17_11 C16_13 1_555 1_555
C17_11 C12_13 1_555 1_555
H18_11 C17_11 1_555 1_555
C18_13 C15_13 1_555 1_555
C4_13 C5_13 1_555 1_555
C8_13 C9_13 1_555 1_555
O6_13 C11_13 1_555 1_555
C12_13 C13_11 1_555 1_555
C16_13 C17_11 1_555 1_555
O9_5 C18_14 1_555 1_555
O11_5 C18_14 1_555 1_555
C16_14 C15_14 1_555 1_555
H17_12 C16_14 1_555 1_555
H18_12 C17_12 1_555 1_555
C18_14 C15_14 1_555 1_555
C16_14 C17_12 1_555 1_555
O9_6 C10_14 1_555 1_555
O11_6 C10_14 1_555 1_555
H10_14 N2_14 1_555 1_555
C5_14 N2_14 1_555 1_555
C6_14 C5_14 1_555 1_555
H11_14 C6_14 1_555 1_555
C7_14 C6_14 1_555 1_555
C8_14 C7_14 1_555 1_555
C10_14 C7_14 1_555 1_555
In2_4 O1_14 1_555 1_555
O1_14 C3_14 1_555 1_555
O2_14 In2_4 1_555 1_555
C3_14 O2_14 1_555 1_555
C4_14 C3_14 1_555 1_555
C9_14 C4_14 1_555 1_555
H13_14 C9_14 1_555 1_555
O5_14 In2_4 1_555 1_555
O6_14 In2_4 1_555 1_555
N3_12 H14_14 1_555 1_555
H15_12 N3_12 1_555 1_555
C11_14 O5_14 1_555 1_555
C12_14 C11_14 1_555 1_555
C13_12 N3_12 1_555 1_555
C14_12 C13_12 1_555 1_555
H16_12 C14_12 1_555 1_555
O6_14 C11_14 1_555 1_555
C12_14 C13_12 1_555 1_555
O10_7 C18_15 1_555 1_555
O12_7 C18_15 1_555 1_555
H15_13 N3_13 1_555 1_555
C13_13 N3_13 1_555 1_555
C14_13 C13_13 1_555 1_555
H16_13 C14_13 1_555 1_555
C15_15 C14_13 1_555 1_555
C16_15 C15_15 1_555 1_555
C18_15 C15_15 1_555 1_555
In3_3 O1_15 1_555 1_555
O1_15 C3_15 1_555 1_555
O2_15 In3_3 1_555 1_555
C3_15 O2_15 1_555 1_555
O5_15 In3_3 1_555 1_555
O6_15 In3_3 1_555 1_555
C11_15 O5_15 1_555 1_555
O6_15 C11_15 1_555 1_555
O10_8 C10_15 1_555 1_555
O12_8 C10_15 1_555 1_555
N2_15 H9_15 1_555 1_555
H10_15 N2_15 1_555 1_555
C5_15 N2_15 1_555 1_555
C6_15 C5_15 1_555 1_555
H11_15 C6_15 1_555 1_555
C7_15 C6_15 1_555 1_555
C8_15 C7_15 1_555 1_555
H12_15 C8_15 1_555 1_555
C9_15 C4_15 1_555 1_555
H13_15 C9_15 1_555 1_555
C10_15 C7_15 1_555 1_555
C17_13 C12_15 1_555 1_555
H18_13 C17_13 1_555 1_555
C4_15 C5_15 1_555 1_555
C8_15 C9_15 1_555 1_555
O9_7 C18_16 1_555 1_555
O11_7 C18_16 1_555 1_555
C16_16 C15_16 1_555 1_555
H17_14 C16_16 1_555 1_555
H18_14 C17_14 1_555 1_555
C18_16 C15_16 1_555 1_555
C16_16 C17_14 1_555 1_555
In2_3 O1_16 1_555 1_555
O1_16 C3_16 1_555 1_555
O2_16 In2_3 1_555 1_555
C3_16 O2_16 1_555 1_555
O5_16 In2_3 1_555 1_555
O6_16 In2_3 1_555 1_555
C11_16 O5_16 1_555 1_555
O6_16 C11_16 1_555 1_555
O9_8 C10_16 1_555 1_555
O11_8 C10_16 1_555 1_555
N2_16 H9_16 1_555 1_555
H10_16 N2_16 1_555 1_555
C5_16 N2_16 1_555 1_555
C6_16 C5_16 1_555 1_555
H11_16 C6_16 1_555 1_555
C7_16 C6_16 1_555 1_555
C8_16 C7_16 1_555 1_555
H12_16 C8_16 1_555 1_555
C9_16 C4_16 1_555 1_555
H13_16 C9_16 1_555 1_555
C10_16 C7_16 1_555 1_555
N3_14 H14_16 1_555 1_555
H15_14 N3_14 1_555 1_555
C13_14 N3_14 1_555 1_555
C14_14 C13_14 1_555 1_555
H16_14 C14_14 1_555 1_555
C4_16 C5_16 1_555 1_555
C8_16 C9_16 1_555 1_555
C12_16 C13_14 1_555 1_555
H15_15 N3_15 1_555 1_555
C13_15 N3_15 1_555 1_555
C14_15 C13_15 1_555 1_555
H16_15 C14_15 1_555 1_555
H18_15 C17_15 1_555 1_555
H18_16 C17_16 1_555 1_555
H15_16 N3_16 1_555 1_555
C13_16 N3_16 1_555 1_555
C14_16 C13_16 1_555 1_555
H16_16 C14_16 1_555 1_555

#END
