
###############################################################################
#
# This file contains modified crystal structure data generated from the
# MOF subset of the Cambridge Structural Database (CSD) v543 
# hosted by the Cambridge Crystallographic Data Centre (CCDC).
#
# This work is licensed under the Creative Commons
# Attribution-NonCommercial-ShareAlike 4.0 International License.
# To view a copy of this license, visit
# http://creativecommons.org/licenses/by-nc-sa/4.0/
# or send a letter to
# Creative Commons, PO Box 1866, Mountain View, CA 94042, USA.
#
# CIF created using the CSD Python API on 29 September 2022
# The structure has been converted into the P1 space group
# The structure has a 3D framework
# The original CSD entry NOWYAC is in the orthorhombic crystal system
# The framework has been calculated to contain at least 10.0% void space
# The void calculation uses a probe of radius 1.32A, grid spacing 0.4
# The framework is charged, counterions have been retained in the structure
#
###############################################################################

data_NOWYAC
_chemical_formula_moiety         '(C256 H160 In16 N32 O128 16-)n'
_symmetry_cell_setting           triclinic
_symmetry_space_group_name_H-M   'P 1'
_symmetry_Int_Tables_number      1
_space_group_name_Hall           'P 1'
loop_
_symmetry_equiv_pos_site_id
_symmetry_equiv_pos_as_xyz
1 x,y,z
_cell_length_a                   14.982(3)
_cell_length_b                   27.325(5)
_cell_length_c                   31.272(6)
_cell_angle_alpha                90
_cell_angle_beta                 90
_cell_angle_gamma                90
_cell_volume                     12802.2
loop_
_atom_site_label
_atom_site_type_symbol
_atom_site_fract_x
_atom_site_fract_y
_atom_site_fract_z
In1 In 0.1250 0.1250 0.42605(4)
O2 O 0.1048(7) 0.0659(4) 0.4739(3)
O4 O 0.2414(7) 0.0893(4) 0.4615(3)
C1 C 0.1868(8) 0.0640(5) 0.4830(4)
C3 C 0.3332(9) 0.0075(6) 0.5681(5)
H1 H 0.3894 0.0141 0.5810
C4 C 0.2178(7) 0.0287(4) 0.5171(3)
C8 C 0.3028(10) 0.0366(7) 0.5343(6)
H3 H 0.3398 0.0618 0.5230
O6 O 0.1452(7) 0.1841(4) 0.4739(3)
O8 O 0.0086(7) 0.1607(4) 0.4615(3)
C9 C 0.0632(8) 0.1860(5) 0.4830(4)
C12 C 0.0322(7) 0.2213(4) 0.5171(3)
C14 C 0.0518(10) 0.2910(7) 0.5645(6)
H7 H 0.0856 0.3185 0.5737
C15 C 0.0847(10) 0.2601(7) 0.5324(6)
N2 N 0.1717(11) 0.2713(8) 0.5126(6)
H9 H 0.2022 0.2971 0.5210
H10 H 0.1931 0.2522 0.4924
O9 O 0.1473(6) 0.0675(4) 0.3751(3)
O10 O 0.1027(6) 0.1825(4) 0.3751(3)
O11 O 0.0088(7) 0.0889(4) 0.3888(3)
O12 O 0.2412(7) 0.1611(4) 0.3888(3)
O1 O 0.3973(6) 0.9325(4) 0.6251(3)
O3 O 0.2588(7) 0.9111(4) 0.6388(3)
C2 C 0.2813(7) 0.9691(5) 0.5829(4)
C5 C 0.3153(8) 0.9371(5) 0.6185(4)
C6 C 0.1982(10) 0.9590(7) 0.5645(6)
H2 H 0.1644 0.9315 0.5737
C7 C 0.1653(10) 0.9899(7) 0.5324(6)
N1 N 0.0783(11) 0.9787(8) 0.5126(6)
H4 H 0.0478 0.9529 0.5210
H5 H 0.0569 0.9978 0.4924
In3 In 0.3750 0.8750 0.67605(4)
O5 O 0.8527(6) 0.3175(4) 0.6251(3)
O7 O 0.9912(7) 0.3389(4) 0.6388(3)
C10 C 0.9687(7) 0.2809(5) 0.5829(4)
C11 C 0.9168(9) 0.2425(6) 0.5681(5)
H6 H 0.8606 0.2359 0.5810
C13 C 0.9347(8) 0.3129(5) 0.6185(4)
C16 C 0.9472(10) 0.2134(7) 0.5343(6)
H8 H 0.9102 0.1882 0.5230
In2 In 0.8750 0.3750 0.67605(4)
O1_2 O 0.3973(6) 0.4325(4) 0.1251(3)
O3_2 O 0.2588(7) 0.4111(4) 0.1388(3)
C2_2 C 0.2813(7) 0.4691(5) 0.0829(4)
C3_2 C 0.3332(9) 0.5075(6) 0.0681(5)
H1_2 H 0.3894 0.5141 0.0810
C4_2 C 0.2178(7) 0.5287(4) 0.0171(3)
C5_2 C 0.3153(8) 0.4371(5) 0.1185(4)
C6_2 C 0.1982(10) 0.4590(7) 0.0645(6)
H2_2 H 0.1644 0.4315 0.0737
C7_2 C 0.1653(10) 0.4899(7) 0.0324(6)
C8_2 C 0.3028(10) 0.5366(7) 0.0343(6)
H3_2 H 0.3398 0.5618 0.0230
N1_2 N 0.0783(11) 0.4787(8) 0.0126(6)
H4_2 H 0.0478 0.4529 0.0210
C12_2 C 0.0322(7) 0.7213(4) 0.0171(3)
C14_2 C 0.0518(10) 0.7910(7) 0.0645(6)
H7_2 H 0.0856 0.8185 0.0737
C15_2 C 0.0847(10) 0.7601(7) 0.0324(6)
N2_2 N 0.1717(11) 0.7713(8) 0.0126(6)
H9_2 H 0.2022 0.7971 0.0210
In3_2 In 0.3750 0.3750 0.17605(4)
In1_2 In 0.1250 0.6250 0.92605(4)
O2_2 O 0.1048(7) 0.5659(4) 0.9739(3)
O4_2 O 0.2414(7) 0.5893(4) 0.9615(3)
C1_2 C 0.1868(8) 0.5640(5) 0.9830(4)
H5_2 H 0.0569 0.4978 0.9924
O6_2 O 0.1452(7) 0.6841(4) 0.9739(3)
O8_2 O 0.0086(7) 0.6607(4) 0.9615(3)
C9_2 C 0.0632(8) 0.6860(5) 0.9830(4)
H10_2 H 0.1931 0.7522 0.9924
O9_2 O 0.1473(6) 0.5675(4) 0.8751(3)
O10_2 O 0.1027(6) 0.6825(4) 0.8751(3)
O11_2 O 0.0088(7) 0.5889(4) 0.8888(3)
O12_2 O 0.2412(7) 0.6611(4) 0.8888(3)
O5_2 O 0.8527(6) 0.8175(4) 0.1251(3)
O7_2 O 0.9912(7) 0.8389(4) 0.1388(3)
C10_2 C 0.9687(7) 0.7809(5) 0.0829(4)
C11_2 C 0.9168(9) 0.7425(6) 0.0681(5)
H6_2 H 0.8606 0.7359 0.0810
C13_2 C 0.9347(8) 0.8129(5) 0.1185(4)
C16_2 C 0.9472(10) 0.7134(7) 0.0343(6)
H8_2 H 0.9102 0.6882 0.0230
In2_2 In 0.8750 0.8750 0.17605(4)
C3_3 C 0.8332(9) 0.0075(6) 0.0681(5)
H1_3 H 0.8894 0.0141 0.0810
C4_3 C 0.7178(7) 0.0287(4) 0.0171(3)
C8_3 C 0.8028(10) 0.0366(7) 0.0343(6)
H3_3 H 0.8398 0.0618 0.0230
O5_3 O 0.3527(6) 0.3175(4) 0.1251(3)
O7_3 O 0.4912(7) 0.3389(4) 0.1388(3)
C10_3 C 0.4687(7) 0.2809(5) 0.0829(4)
C11_3 C 0.4168(9) 0.2425(6) 0.0681(5)
H6_3 H 0.3606 0.2359 0.0810
C12_3 C 0.5322(7) 0.2213(4) 0.0171(3)
C13_3 C 0.4347(8) 0.3129(5) 0.1185(4)
C14_3 C 0.5518(10) 0.2910(7) 0.0645(6)
H7_3 H 0.5856 0.3185 0.0737
C15_3 C 0.5847(10) 0.2601(7) 0.0324(6)
C16_3 C 0.4472(10) 0.2134(7) 0.0343(6)
H8_3 H 0.4102 0.1882 0.0230
N2_3 N 0.6717(11) 0.2713(8) 0.0126(6)
H9_3 H 0.7022 0.2971 0.0210
In1_3 In 0.6250 0.1250 0.92605(4)
O2_3 O 0.6048(7) 0.0659(4) 0.9739(3)
O4_3 O 0.7414(7) 0.0893(4) 0.9615(3)
C1_3 C 0.6868(8) 0.0640(5) 0.9830(4)
O6_3 O 0.6452(7) 0.1841(4) 0.9739(3)
O8_3 O 0.5086(7) 0.1607(4) 0.9615(3)
C9_3 C 0.5632(8) 0.1860(5) 0.9830(4)
H10_3 H 0.6931 0.2522 0.9924
O9_3 O 0.6473(6) 0.0675(4) 0.8751(3)
O10_3 O 0.6027(6) 0.1825(4) 0.8751(3)
O11_3 O 0.5088(7) 0.0889(4) 0.8888(3)
O12_3 O 0.7412(7) 0.1611(4) 0.8888(3)
O1_3 O 0.8973(6) 0.9325(4) 0.1251(3)
O3_3 O 0.7588(7) 0.9111(4) 0.1388(3)
C2_3 C 0.7813(7) 0.9691(5) 0.0829(4)
C5_3 C 0.8153(8) 0.9371(5) 0.1185(4)
C6_3 C 0.6982(10) 0.9590(7) 0.0645(6)
H2_3 H 0.6644 0.9315 0.0737
C7_3 C 0.6653(10) 0.9899(7) 0.0324(6)
N1_3 N 0.5783(11) 0.9787(8) 0.0126(6)
H4_3 H 0.5478 0.9529 0.0210
In1_4 In 0.6250 0.6250 0.42605(4)
O1_4 O 0.8973(6) 0.4325(4) 0.6251(3)
O2_4 O 0.6048(7) 0.5659(4) 0.4739(3)
O3_4 O 0.7588(7) 0.4111(4) 0.6388(3)
O4_4 O 0.7414(7) 0.5893(4) 0.4615(3)
C1_4 C 0.6868(8) 0.5640(5) 0.4830(4)
C2_4 C 0.7813(7) 0.4691(5) 0.5829(4)
C3_4 C 0.8332(9) 0.5075(6) 0.5681(5)
H1_4 H 0.8894 0.5141 0.5810
C4_4 C 0.7178(7) 0.5287(4) 0.5171(3)
C5_4 C 0.8153(8) 0.4371(5) 0.6185(4)
C6_4 C 0.6982(10) 0.4590(7) 0.5645(6)
H2_4 H 0.6644 0.4315 0.5737
C7_4 C 0.6653(10) 0.4899(7) 0.5324(6)
C8_4 C 0.8028(10) 0.5366(7) 0.5343(6)
H3_4 H 0.8398 0.5618 0.5230
N1_4 N 0.5783(11) 0.4787(8) 0.5126(6)
H4_4 H 0.5478 0.4529 0.5210
H5_3 H 0.5569 0.4978 0.4924
O5_4 O 0.3527(6) 0.8175(4) 0.6251(3)
O6_4 O 0.6452(7) 0.6841(4) 0.4739(3)
O7_4 O 0.4912(7) 0.8389(4) 0.6388(3)
O8_4 O 0.5086(7) 0.6607(4) 0.4615(3)
C9_4 C 0.5632(8) 0.6860(5) 0.4830(4)
C10_4 C 0.4687(7) 0.7809(5) 0.5829(4)
C11_4 C 0.4168(9) 0.7425(6) 0.5681(5)
H6_4 H 0.3606 0.7359 0.5810
C12_4 C 0.5322(7) 0.7213(4) 0.5171(3)
C13_4 C 0.4347(8) 0.8129(5) 0.6185(4)
C14_4 C 0.5518(10) 0.7910(7) 0.5645(6)
H7_4 H 0.5856 0.8185 0.5737
C15_4 C 0.5847(10) 0.7601(7) 0.5324(6)
C16_4 C 0.4472(10) 0.7134(7) 0.5343(6)
H8_4 H 0.4102 0.6882 0.5230
N2_4 N 0.6717(11) 0.7713(8) 0.5126(6)
H9_4 H 0.7022 0.7971 0.5210
H10_4 H 0.6931 0.7522 0.4924
O9_4 O 0.6473(6) 0.5675(4) 0.3751(3)
O10_4 O 0.6027(6) 0.6825(4) 0.3751(3)
O11_4 O 0.5088(7) 0.5889(4) 0.3888(3)
O12_4 O 0.7412(7) 0.6611(4) 0.3888(3)
C10_5 C 0.0313(7) 0.0309(5) 0.3329(4)
C13_5 C 0.0653(8) 0.0629(5) 0.3685(4)
O2_5 O 0.8952(7) 0.8159(4) 0.2239(3)
O4_5 O 0.7586(7) 0.8393(4) 0.2115(3)
C1_5 C 0.8132(8) 0.8140(5) 0.2330(4)
C2_5 C 0.7187(7) 0.7191(5) 0.3329(4)
C3_5 C 0.6668(9) 0.7575(6) 0.3181(5)
H1_5 H 0.6106 0.7641 0.3310
C4_5 C 0.7822(7) 0.7787(4) 0.2671(3)
C5_5 C 0.6847(8) 0.6871(5) 0.3685(4)
C6_5 C 0.8018(10) 0.7090(7) 0.3145(6)
H2_5 H 0.8356 0.6815 0.3237
C7_5 C 0.8347(10) 0.7399(7) 0.2824(6)
C8_5 C 0.6972(10) 0.7866(7) 0.2843(6)
H3_5 H 0.6602 0.8118 0.2730
N1_5 N 0.9217(11) 0.7287(8) 0.2626(6)
H4_5 H 0.9522 0.7029 0.2710
H5_4 H 0.9431 0.7478 0.2424
O6_5 O 0.8548(7) 0.9341(4) 0.2239(3)
O8_5 O 0.9914(7) 0.9107(4) 0.2115(3)
C9_5 C 0.9368(8) 0.9360(5) 0.2330(4)
C12_5 C 0.9678(7) 0.9713(4) 0.2671(3)
C10_6 C 0.0313(7) 0.5309(5) 0.8329(4)
C11_5 C 0.0832(9) 0.4925(6) 0.8181(5)
H6_5 H 0.1394 0.4859 0.8310
C13_6 C 0.0653(8) 0.5629(5) 0.8685(4)
C16_5 C 0.0528(10) 0.4634(7) 0.7843(6)
H8_5 H 0.0898 0.4382 0.7730
O2_6 O 0.8952(7) 0.3159(4) 0.7239(3)
O4_6 O 0.7586(7) 0.3393(4) 0.7115(3)
C1_6 C 0.8132(8) 0.3140(5) 0.7330(4)
C2_6 C 0.7187(7) 0.2191(5) 0.8329(4)
C3_6 C 0.6668(9) 0.2575(6) 0.8181(5)
H1_6 H 0.6106 0.2641 0.8310
C4_6 C 0.7822(7) 0.2787(4) 0.7671(3)
C5_6 C 0.6847(8) 0.1871(5) 0.8685(4)
C6_6 C 0.8018(10) 0.2090(7) 0.8145(6)
H2_6 H 0.8356 0.1815 0.8237
C7_6 C 0.8347(10) 0.2399(7) 0.7824(6)
C8_6 C 0.6972(10) 0.2866(7) 0.7843(6)
H3_6 H 0.6602 0.3118 0.7730
N1_6 N 0.9217(11) 0.2287(8) 0.7626(6)
H4_6 H 0.9522 0.2029 0.7710
H5_5 H 0.9431 0.2478 0.7424
O6_6 O 0.8548(7) 0.4341(4) 0.7239(3)
O8_6 O 0.9914(7) 0.4107(4) 0.7115(3)
C9_6 C 0.9368(8) 0.4360(5) 0.7330(4)
C12_6 C 0.9678(7) 0.4713(4) 0.7671(3)
C14_5 C 0.9482(10) 0.5410(7) 0.8145(6)
H7_5 H 0.9144 0.5685 0.8237
C15_5 C 0.9153(10) 0.5101(7) 0.7824(6)
N2_5 N 0.8283(11) 0.5213(8) 0.7626(6)
H9_5 H 0.7978 0.5471 0.7710
H10_5 H 0.8069 0.5022 0.7424
C10_7 C 0.5313(7) 0.0309(5) 0.8329(4)
C13_7 C 0.5653(8) 0.0629(5) 0.8685(4)
C14_6 C 0.4482(10) 0.0410(7) 0.8145(6)
H7_6 H 0.4144 0.0685 0.8237
C15_6 C 0.4153(10) 0.0101(7) 0.7824(6)
N2_6 N 0.3283(11) 0.0213(8) 0.7626(6)
H9_6 H 0.2978 0.0471 0.7710
H10_6 H 0.3069 0.0022 0.7424
O2_7 O 0.3952(7) 0.8159(4) 0.7239(3)
O4_7 O 0.2586(7) 0.8393(4) 0.7115(3)
C1_7 C 0.3132(8) 0.8140(5) 0.7330(4)
C2_7 C 0.2187(7) 0.7191(5) 0.8329(4)
C3_7 C 0.1668(9) 0.7575(6) 0.8181(5)
H1_7 H 0.1106 0.7641 0.8310
C4_7 C 0.2822(7) 0.7787(4) 0.7671(3)
C5_7 C 0.1847(8) 0.6871(5) 0.8685(4)
C6_7 C 0.3018(10) 0.7090(7) 0.8145(6)
H2_7 H 0.3356 0.6815 0.8237
C7_7 C 0.3347(10) 0.7399(7) 0.7824(6)
C8_7 C 0.1972(10) 0.7866(7) 0.7843(6)
H3_7 H 0.1602 0.8118 0.7730
N1_7 N 0.4217(11) 0.7287(8) 0.7626(6)
H4_7 H 0.4522 0.7029 0.7710
H5_6 H 0.4431 0.7478 0.7424
O6_7 O 0.3548(7) 0.9341(4) 0.7239(3)
O8_7 O 0.4914(7) 0.9107(4) 0.7115(3)
C9_7 C 0.4368(8) 0.9360(5) 0.7330(4)
C11_6 C 0.5832(9) 0.9925(6) 0.8181(5)
H6_6 H 0.6394 0.9859 0.8310
C12_7 C 0.4678(7) 0.9713(4) 0.7671(3)
C16_6 C 0.5528(10) 0.9634(7) 0.7843(6)
H8_6 H 0.5898 0.9382 0.7730
O2_8 O 0.3952(7) 0.3159(4) 0.2239(3)
O4_8 O 0.2586(7) 0.3393(4) 0.2115(3)
C1_8 C 0.3132(8) 0.3140(5) 0.2330(4)
C2_8 C 0.2187(7) 0.2191(5) 0.3329(4)
C3_8 C 0.1668(9) 0.2575(6) 0.3181(5)
H1_8 H 0.1106 0.2641 0.3310
C4_8 C 0.2822(7) 0.2787(4) 0.2671(3)
C5_8 C 0.1847(8) 0.1871(5) 0.3685(4)
C6_8 C 0.3018(10) 0.2090(7) 0.3145(6)
H2_8 H 0.3356 0.1815 0.3237
C7_8 C 0.3347(10) 0.2399(7) 0.2824(6)
C8_8 C 0.1972(10) 0.2866(7) 0.2843(6)
H3_8 H 0.1602 0.3118 0.2730
N1_8 N 0.4217(11) 0.2287(8) 0.2626(6)
H4_8 H 0.4522 0.2029 0.2710
H5_7 H 0.4431 0.2478 0.2424
O6_8 O 0.3548(7) 0.4341(4) 0.2239(3)
O8_8 O 0.4914(7) 0.4107(4) 0.2115(3)
C9_8 C 0.4368(8) 0.4360(5) 0.2330(4)
C10_8 C 0.5313(7) 0.5309(5) 0.3329(4)
C11_7 C 0.5832(9) 0.4925(6) 0.3181(5)
H6_7 H 0.6394 0.4859 0.3310
C12_8 C 0.4678(7) 0.4713(4) 0.2671(3)
C13_8 C 0.5653(8) 0.5629(5) 0.3685(4)
C14_7 C 0.4482(10) 0.5410(7) 0.3145(6)
H7_7 H 0.4144 0.5685 0.3237
C15_7 C 0.4153(10) 0.5101(7) 0.2824(6)
C16_7 C 0.5528(10) 0.4634(7) 0.2843(6)
H8_7 H 0.5898 0.4382 0.2730
N2_7 N 0.3283(11) 0.5213(8) 0.2626(6)
H9_7 H 0.2978 0.5471 0.2710
H10_7 H 0.3069 0.5022 0.2424
In1_5 In 0.1250 0.1250 0.82395(4)
O1_5 O 0.3973(6) 0.3175(4) 0.6249(3)
O2_9 O 0.1048(7) 0.1841(4) 0.7761(3)
O3_5 O 0.2588(7) 0.3389(4) 0.6112(3)
O4_9 O 0.2414(7) 0.1607(4) 0.7885(3)
C1_9 C 0.1868(8) 0.1860(5) 0.7670(4)
C2_9 C 0.2813(7) 0.2809(5) 0.6671(4)
C3_9 C 0.3332(9) 0.2425(6) 0.6819(5)
H1_9 H 0.3894 0.2359 0.6690
C4_9 C 0.2178(7) 0.2213(4) 0.7329(3)
C5_9 C 0.3153(8) 0.3129(5) 0.6315(4)
C6_9 C 0.1982(10) 0.2910(7) 0.6855(6)
H2_9 H 0.1644 0.3185 0.6763
C7_9 C 0.1653(10) 0.2601(7) 0.7176(6)
C8_9 C 0.3028(10) 0.2134(7) 0.7157(6)
H3_9 H 0.3398 0.1882 0.7270
N1_9 N 0.0783(11) 0.2713(8) 0.7374(6)
H4_9 H 0.0478 0.2971 0.7290
H5_8 H 0.0569 0.2522 0.7576
O6_9 O 0.1452(7) 0.0659(4) 0.7761(3)
O8_9 O 0.0086(7) 0.0893(4) 0.7885(3)
C9_9 C 0.0632(8) 0.0640(5) 0.7670(4)
C12_9 C 0.0322(7) 0.0287(4) 0.7329(3)
In3_3 In 0.3750 0.3750 0.57395(4)
O9_5 O 0.1473(6) 0.1825(4) 0.8749(3)
O10_5 O 0.1027(6) 0.0675(4) 0.8749(3)
O11_5 O 0.0088(7) 0.1611(4) 0.8612(3)
O12_5 O 0.2412(7) 0.0889(4) 0.8612(3)
O5_5 O 0.8527(6) 0.9325(4) 0.6249(3)
O7_5 O 0.9912(7) 0.9111(4) 0.6112(3)
C10_9 C 0.9687(7) 0.9691(5) 0.6671(4)
C13_9 C 0.9347(8) 0.9371(5) 0.6315(4)
In2_3 In 0.8750 0.8750 0.57395(4)
In1_6 In 0.1250 0.6250 0.32395(4)
O1_6 O 0.3973(6) 0.8175(4) 0.1249(3)
O2_10 O 0.1048(7) 0.6841(4) 0.2761(3)
O3_6 O 0.2588(7) 0.8389(4) 0.1112(3)
O4_10 O 0.2414(7) 0.6607(4) 0.2885(3)
C1_10 C 0.1868(8) 0.6860(5) 0.2670(4)
C2_10 C 0.2813(7) 0.7809(5) 0.1671(4)
C3_10 C 0.3332(9) 0.7425(6) 0.1819(5)
H1_10 H 0.3894 0.7359 0.1690
C4_10 C 0.2178(7) 0.7213(4) 0.2329(3)
C5_10 C 0.3153(8) 0.8129(5) 0.1315(4)
C6_10 C 0.1982(10) 0.7910(7) 0.1855(6)
H2_10 H 0.1644 0.8185 0.1763
C7_10 C 0.1653(10) 0.7601(7) 0.2176(6)
C8_10 C 0.3028(10) 0.7134(7) 0.2157(6)
H3_10 H 0.3398 0.6882 0.2270
N1_10 N 0.0783(11) 0.7713(8) 0.2374(6)
H4_10 H 0.0478 0.7971 0.2290
H5_9 H 0.0569 0.7522 0.2576
O6_10 O 0.1452(7) 0.5659(4) 0.2761(3)
O8_10 O 0.0086(7) 0.5893(4) 0.2885(3)
C9_10 C 0.0632(8) 0.5640(5) 0.2670(4)
C12_10 C 0.0322(7) 0.5287(4) 0.2329(3)
C14_8 C 0.0518(10) 0.4590(7) 0.1855(6)
H7_8 H 0.0856 0.4315 0.1763
C15_8 C 0.0847(10) 0.4899(7) 0.2176(6)
N2_8 N 0.1717(11) 0.4787(8) 0.2374(6)
H9_8 H 0.2022 0.4529 0.2290
H10_8 H 0.1931 0.4978 0.2576
In3_4 In 0.3750 0.8750 0.07395(4)
O9_6 O 0.1473(6) 0.6825(4) 0.3749(3)
O10_6 O 0.1027(6) 0.5675(4) 0.3749(3)
O11_6 O 0.0088(7) 0.6611(4) 0.3612(3)
O12_6 O 0.2412(7) 0.5889(4) 0.3612(3)
O5_6 O 0.8527(6) 0.4325(4) 0.1249(3)
O7_6 O 0.9912(7) 0.4111(4) 0.1112(3)
C10_10 C 0.9687(7) 0.4691(5) 0.1671(4)
C11_8 C 0.9168(9) 0.5075(6) 0.1819(5)
H6_8 H 0.8606 0.5141 0.1690
C13_10 C 0.9347(8) 0.4371(5) 0.1315(4)
C16_8 C 0.9472(10) 0.5366(7) 0.2157(6)
H8_8 H 0.9102 0.5618 0.2270
In2_4 In 0.8750 0.3750 0.07395(4)
In1_7 In 0.6250 0.1250 0.32395(4)
O1_7 O 0.8973(6) 0.3175(4) 0.1249(3)
O2_11 O 0.6048(7) 0.1841(4) 0.2761(3)
O3_7 O 0.7588(7) 0.3389(4) 0.1112(3)
O4_11 O 0.7414(7) 0.1607(4) 0.2885(3)
C1_11 C 0.6868(8) 0.1860(5) 0.2670(4)
C2_11 C 0.7813(7) 0.2809(5) 0.1671(4)
C3_11 C 0.8332(9) 0.2425(6) 0.1819(5)
H1_11 H 0.8894 0.2359 0.1690
C4_11 C 0.7178(7) 0.2213(4) 0.2329(3)
C5_11 C 0.8153(8) 0.3129(5) 0.1315(4)
C6_11 C 0.6982(10) 0.2910(7) 0.1855(6)
H2_11 H 0.6644 0.3185 0.1763
C7_11 C 0.6653(10) 0.2601(7) 0.2176(6)
C8_11 C 0.8028(10) 0.2134(7) 0.2157(6)
H3_11 H 0.8398 0.1882 0.2270
N1_11 N 0.5783(11) 0.2713(8) 0.2374(6)
H4_11 H 0.5478 0.2971 0.2290
H5_10 H 0.5569 0.2522 0.2576
O6_11 O 0.6452(7) 0.0659(4) 0.2761(3)
O8_11 O 0.5086(7) 0.0893(4) 0.2885(3)
C9_11 C 0.5632(8) 0.0640(5) 0.2670(4)
C11_9 C 0.4168(9) 0.0075(6) 0.1819(5)
H6_9 H 0.3606 0.0141 0.1690
C12_11 C 0.5322(7) 0.0287(4) 0.2329(3)
C16_9 C 0.4472(10) 0.0366(7) 0.2157(6)
H8_9 H 0.4102 0.0618 0.2270
O9_7 O 0.6473(6) 0.1825(4) 0.3749(3)
O10_7 O 0.6027(6) 0.0675(4) 0.3749(3)
O11_7 O 0.5088(7) 0.1611(4) 0.3612(3)
O12_7 O 0.7412(7) 0.0889(4) 0.3612(3)
O5_7 O 0.3527(6) 0.9325(4) 0.1249(3)
O7_7 O 0.4912(7) 0.9111(4) 0.1112(3)
C10_11 C 0.4687(7) 0.9691(5) 0.1671(4)
C13_11 C 0.4347(8) 0.9371(5) 0.1315(4)
C14_9 C 0.5518(10) 0.9590(7) 0.1855(6)
H7_9 H 0.5856 0.9315 0.1763
C15_9 C 0.5847(10) 0.9899(7) 0.2176(6)
N2_9 N 0.6717(11) 0.9787(8) 0.2374(6)
H9_9 H 0.7022 0.9529 0.2290
H10_9 H 0.6931 0.9978 0.2576
In1_8 In 0.6250 0.6250 0.82395(4)
O1_8 O 0.8973(6) 0.8175(4) 0.6249(3)
O2_12 O 0.6048(7) 0.6841(4) 0.7761(3)
O3_8 O 0.7588(7) 0.8389(4) 0.6112(3)
O4_12 O 0.7414(7) 0.6607(4) 0.7885(3)
C1_12 C 0.6868(8) 0.6860(5) 0.7670(4)
C2_12 C 0.7813(7) 0.7809(5) 0.6671(4)
C3_12 C 0.8332(9) 0.7425(6) 0.6819(5)
H1_12 H 0.8894 0.7359 0.6690
C4_12 C 0.7178(7) 0.7213(4) 0.7329(3)
C5_12 C 0.8153(8) 0.8129(5) 0.6315(4)
C6_12 C 0.6982(10) 0.7910(7) 0.6855(6)
H2_12 H 0.6644 0.8185 0.6763
C7_12 C 0.6653(10) 0.7601(7) 0.7176(6)
C8_12 C 0.8028(10) 0.7134(7) 0.7157(6)
H3_12 H 0.8398 0.6882 0.7270
N1_12 N 0.5783(11) 0.7713(8) 0.7374(6)
H4_12 H 0.5478 0.7971 0.7290
H5_11 H 0.5569 0.7522 0.7576
O5_8 O 0.3527(6) 0.4325(4) 0.6249(3)
O6_12 O 0.6452(7) 0.5659(4) 0.7761(3)
O7_8 O 0.4912(7) 0.4111(4) 0.6112(3)
O8_12 O 0.5086(7) 0.5893(4) 0.7885(3)
C9_12 C 0.5632(8) 0.5640(5) 0.7670(4)
C10_12 C 0.4687(7) 0.4691(5) 0.6671(4)
C11_10 C 0.4168(9) 0.5075(6) 0.6819(5)
H6_10 H 0.3606 0.5141 0.6690
C12_12 C 0.5322(7) 0.5287(4) 0.7329(3)
C13_12 C 0.4347(8) 0.4371(5) 0.6315(4)
C14_10 C 0.5518(10) 0.4590(7) 0.6855(6)
H7_10 H 0.5856 0.4315 0.6763
C15_10 C 0.5847(10) 0.4899(7) 0.7176(6)
C16_10 C 0.4472(10) 0.5366(7) 0.7157(6)
H8_10 H 0.4102 0.5618 0.7270
N2_10 N 0.6717(11) 0.4787(8) 0.7374(6)
H9_10 H 0.7022 0.4529 0.7290
H10_10 H 0.6931 0.4978 0.7576
O9_8 O 0.6473(6) 0.6825(4) 0.8749(3)
O10_8 O 0.6027(6) 0.5675(4) 0.8749(3)
O11_8 O 0.5088(7) 0.6611(4) 0.8612(3)
O12_8 O 0.7412(7) 0.5889(4) 0.8612(3)
C10_13 C 0.0313(7) 0.7191(5) 0.4171(4)
C11_11 C 0.0832(9) 0.7575(6) 0.4319(5)
H6_11 H 0.1394 0.7641 0.4190
C13_13 C 0.0653(8) 0.6871(5) 0.3815(4)
C16_11 C 0.0528(10) 0.7866(7) 0.4657(6)
H8_11 H 0.0898 0.8118 0.4770
C2_13 C 0.7187(7) 0.0309(5) 0.4171(4)
C5_13 C 0.6847(8) 0.0629(5) 0.3815(4)
C6_13 C 0.8018(10) 0.0410(7) 0.4355(6)
H2_13 H 0.8356 0.0685 0.4263
C7_13 C 0.8347(10) 0.0101(7) 0.4676(6)
N1_13 N 0.9217(11) 0.0213(8) 0.4874(6)
H4_13 H 0.9522 0.0471 0.4790
H5_12 H 0.9431 0.0022 0.5076
O2_13 O 0.8952(7) 0.9341(4) 0.5261(3)
O4_13 O 0.7586(7) 0.9107(4) 0.5385(3)
C1_13 C 0.8132(8) 0.9360(5) 0.5170(4)
C3_13 C 0.6668(9) 0.9925(6) 0.4319(5)
H1_13 H 0.6106 0.9859 0.4190
C4_13 C 0.7822(7) 0.9713(4) 0.4829(3)
C8_13 C 0.6972(10) 0.9634(7) 0.4657(6)
H3_13 H 0.6602 0.9382 0.4770
O6_13 O 0.8548(7) 0.8159(4) 0.5261(3)
O8_13 O 0.9914(7) 0.8393(4) 0.5385(3)
C9_13 C 0.9368(8) 0.8140(5) 0.5170(4)
C12_13 C 0.9678(7) 0.7787(4) 0.4829(3)
C14_11 C 0.9482(10) 0.7090(7) 0.4355(6)
H7_11 H 0.9144 0.6815 0.4263
C15_11 C 0.9153(10) 0.7399(7) 0.4676(6)
N2_11 N 0.8283(11) 0.7287(8) 0.4874(6)
H9_11 H 0.7978 0.7029 0.4790
H10_11 H 0.8069 0.7478 0.5076
C10_14 C 0.0313(7) 0.2191(5) 0.9171(4)
C11_12 C 0.0832(9) 0.2575(6) 0.9319(5)
H6_12 H 0.1394 0.2641 0.9190
C13_14 C 0.0653(8) 0.1871(5) 0.8815(4)
C16_12 C 0.0528(10) 0.2866(7) 0.9657(6)
H8_12 H 0.0898 0.3118 0.9770
O2_14 O 0.8952(7) 0.4341(4) 0.0261(3)
O4_14 O 0.7586(7) 0.4107(4) 0.0385(3)
C1_14 C 0.8132(8) 0.4360(5) 0.0170(4)
H5_13 H 0.9431 0.5022 0.0076
O6_14 O 0.8548(7) 0.3159(4) 0.0261(3)
O8_14 O 0.9914(7) 0.3393(4) 0.0385(3)
C9_14 C 0.9368(8) 0.3140(5) 0.0170(4)
H10_12 H 0.8069 0.2478 0.0076
C2_14 C 0.7187(7) 0.5309(5) 0.9171(4)
C3_14 C 0.6668(9) 0.4925(6) 0.9319(5)
H1_14 H 0.6106 0.4859 0.9190
C4_14 C 0.7822(7) 0.4713(4) 0.9829(3)
C5_14 C 0.6847(8) 0.5629(5) 0.8815(4)
C6_14 C 0.8018(10) 0.5410(7) 0.9355(6)
H2_14 H 0.8356 0.5685 0.9263
C7_14 C 0.8347(10) 0.5101(7) 0.9676(6)
C8_14 C 0.6972(10) 0.4634(7) 0.9657(6)
H3_14 H 0.6602 0.4382 0.9770
N1_14 N 0.9217(11) 0.5213(8) 0.9874(6)
H4_14 H 0.9522 0.5471 0.9790
C12_14 C 0.9678(7) 0.2787(4) 0.9829(3)
C14_12 C 0.9482(10) 0.2090(7) 0.9355(6)
H7_12 H 0.9144 0.1815 0.9263
C15_12 C 0.9153(10) 0.2399(7) 0.9676(6)
N2_12 N 0.8283(11) 0.2287(8) 0.9874(6)
H9_12 H 0.7978 0.2029 0.9790
C2_15 C 0.2187(7) 0.0309(5) 0.9171(4)
C5_15 C 0.1847(8) 0.0629(5) 0.8815(4)
C6_15 C 0.3018(10) 0.0410(7) 0.9355(6)
H2_15 H 0.3356 0.0685 0.9263
C7_15 C 0.3347(10) 0.0101(7) 0.9676(6)
N1_15 N 0.4217(11) 0.0213(8) 0.9874(6)
H4_15 H 0.4522 0.0471 0.9790
O2_15 O 0.3952(7) 0.9341(4) 0.0261(3)
O4_15 O 0.2586(7) 0.9107(4) 0.0385(3)
C1_15 C 0.3132(8) 0.9360(5) 0.0170(4)
O6_15 O 0.3548(7) 0.8159(4) 0.0261(3)
O8_15 O 0.4914(7) 0.8393(4) 0.0385(3)
C9_15 C 0.4368(8) 0.8140(5) 0.0170(4)
H10_13 H 0.3069 0.7478 0.0076
C3_15 C 0.1668(9) 0.9925(6) 0.9319(5)
H1_15 H 0.1106 0.9859 0.9190
C4_15 C 0.2822(7) 0.9713(4) 0.9829(3)
C8_15 C 0.1972(10) 0.9634(7) 0.9657(6)
H3_15 H 0.1602 0.9382 0.9770
C10_15 C 0.5313(7) 0.7191(5) 0.9171(4)
C11_13 C 0.5832(9) 0.7575(6) 0.9319(5)
H6_13 H 0.6394 0.7641 0.9190
C12_15 C 0.4678(7) 0.7787(4) 0.9829(3)
C13_15 C 0.5653(8) 0.6871(5) 0.8815(4)
C14_13 C 0.4482(10) 0.7090(7) 0.9355(6)
H7_13 H 0.4144 0.6815 0.9263
C15_13 C 0.4153(10) 0.7399(7) 0.9676(6)
C16_13 C 0.5528(10) 0.7866(7) 0.9657(6)
H8_13 H 0.5898 0.8118 0.9770
N2_13 N 0.3283(11) 0.7287(8) 0.9874(6)
H9_13 H 0.2978 0.7029 0.9790
O2_16 O 0.3952(7) 0.4341(4) 0.5261(3)
O4_16 O 0.2586(7) 0.4107(4) 0.5385(3)
C1_16 C 0.3132(8) 0.4360(5) 0.5170(4)
C2_16 C 0.2187(7) 0.5309(5) 0.4171(4)
C3_16 C 0.1668(9) 0.4925(6) 0.4319(5)
H1_16 H 0.1106 0.4859 0.4190
C4_16 C 0.2822(7) 0.4713(4) 0.4829(3)
C5_16 C 0.1847(8) 0.5629(5) 0.3815(4)
C6_16 C 0.3018(10) 0.5410(7) 0.4355(6)
H2_16 H 0.3356 0.5685 0.4263
C7_16 C 0.3347(10) 0.5101(7) 0.4676(6)
C8_16 C 0.1972(10) 0.4634(7) 0.4657(6)
H3_16 H 0.1602 0.4382 0.4770
N1_16 N 0.4217(11) 0.5213(8) 0.4874(6)
H4_16 H 0.4522 0.5471 0.4790
H5_14 H 0.4431 0.5022 0.5076
O6_16 O 0.3548(7) 0.3159(4) 0.5261(3)
O8_16 O 0.4914(7) 0.3393(4) 0.5385(3)
C9_16 C 0.4368(8) 0.3140(5) 0.5170(4)
C10_16 C 0.5313(7) 0.2191(5) 0.4171(4)
C11_14 C 0.5832(9) 0.2575(6) 0.4319(5)
H6_14 H 0.6394 0.2641 0.4190
C12_16 C 0.4678(7) 0.2787(4) 0.4829(3)
C13_16 C 0.5653(8) 0.1871(5) 0.3815(4)
C14_14 C 0.4482(10) 0.2090(7) 0.4355(6)
H7_14 H 0.4144 0.1815 0.4263
C15_14 C 0.4153(10) 0.2399(7) 0.4676(6)
C16_14 C 0.5528(10) 0.2866(7) 0.4657(6)
H8_14 H 0.5898 0.3118 0.4770
N2_14 N 0.3283(11) 0.2287(8) 0.4874(6)
H9_14 H 0.2978 0.2029 0.4790
H10_14 H 0.3069 0.2478 0.5076
C14_15 C 0.0518(10) 0.9590(7) 0.6855(6)
H7_15 H 0.0856 0.9315 0.6763
C15_15 C 0.0847(10) 0.9899(7) 0.7176(6)
N2_15 N 0.1717(11) 0.9787(8) 0.7374(6)
H9_15 H 0.2022 0.9529 0.7290
H10_15 H 0.1931 0.9978 0.7576
C11_15 C 0.9168(9) 0.0075(6) 0.6819(5)
H6_15 H 0.8606 0.0141 0.6690
C16_15 C 0.9472(10) 0.0366(7) 0.7157(6)
H8_15 H 0.9102 0.0618 0.7270
H5_15 H 0.5569 0.9978 0.9924
C11_16 C 0.0832(9) 0.9925(6) 0.3181(5)
H6_16 H 0.1394 0.9859 0.3310
C16_16 C 0.0528(10) 0.9634(7) 0.2843(6)
H8_16 H 0.0898 0.9382 0.2730
C14_16 C 0.9482(10) 0.0410(7) 0.3145(6)
H7_16 H 0.9144 0.0685 0.3237
C15_16 C 0.9153(10) 0.0101(7) 0.2824(6)
N2_16 N 0.8283(11) 0.0213(8) 0.2626(6)
H9_16 H 0.7978 0.0471 0.2710
H10_16 H 0.8069 0.0022 0.2424
H5_16 H 0.4431 0.0022 0.0076
loop_
_geom_bond_atom_site_label_1
_geom_bond_atom_site_label_2
_geom_bond_site_symmetry_1
_geom_bond_site_symmetry_2
In1 O2 1_555 1_555
O2 C1 1_555 1_555
O4 In1 1_555 1_555
C1 O4 1_555 1_555
C3 H1 1_555 1_555
C4 C1 1_555 1_555
C8 C3 1_555 1_555
H3 C8 1_555 1_555
O6 In1 1_555 1_555
O8 In1 1_555 1_555
C9 O6 1_555 1_555
C12 C9 1_555 1_555
H7 C14 1_555 1_555
C15 C12 1_555 1_555
N2 C15 1_555 1_555
H9 N2 1_555 1_555
H10 N2 1_555 1_555
O9 In1 1_555 1_555
O10 In1 1_555 1_555
O11 In1 1_555 1_555
O12 In1 1_555 1_555
C4 C8 1_555 1_555
O8 C9 1_555 1_555
C14 C15 1_555 1_555
O1 C5 1_555 1_555
O3 C5 1_555 1_555
C5 C2 1_555 1_555
C6 C2 1_555 1_555
H2 C6 1_555 1_555
N1 C7 1_555 1_555
H4 N1 1_555 1_555
H5 N1 1_555 1_555
In3 O1 1_555 1_555
O3 In3 1_555 1_555
C6 C7 1_555 1_555
O5 C13 1_555 1_555
O7 C13 1_555 1_555
C10 C11 1_555 1_555
C11 H6 1_555 1_555
C13 C10 1_555 1_555
C16 C11 1_555 1_555
H8 C16 1_555 1_555
In2 O5 1_555 1_555
O7 In2 1_555 1_555
O1_2 C5_2 1_555 1_555
O3_2 C5_2 1_555 1_555
C2_2 C3_2 1_555 1_555
C3_2 H1_2 1_555 1_555
C5_2 C2_2 1_555 1_555
C6_2 C2_2 1_555 1_555
H2_2 C6_2 1_555 1_555
C7_2 C4_2 1_555 1_555
C8_2 C3_2 1_555 1_555
H3_2 C8_2 1_555 1_555
N1_2 C7_2 1_555 1_555
H4_2 N1_2 1_555 1_555
H7_2 C14_2 1_555 1_555
C15_2 C12_2 1_555 1_555
N2_2 C15_2 1_555 1_555
H9_2 N2_2 1_555 1_555
In3_2 O1_2 1_555 1_555
O3_2 In3_2 1_555 1_555
C4_2 C8_2 1_555 1_555
C6_2 C7_2 1_555 1_555
C14_2 C15_2 1_555 1_555
In1_2 O2_2 1_555 1_555
O2_2 C1_2 1_555 1_555
O4_2 In1_2 1_555 1_555
C1_2 O4_2 1_555 1_555
O6_2 In1_2 1_555 1_555
O8_2 In1_2 1_555 1_555
C9_2 O6_2 1_555 1_555
O9_2 In1_2 1_555 1_555
O10_2 In1_2 1_555 1_555
O11_2 In1_2 1_555 1_555
O12_2 In1_2 1_555 1_555
O8_2 C9_2 1_555 1_555
O5_2 C13_2 1_555 1_555
O7_2 C13_2 1_555 1_555
C10_2 C11_2 1_555 1_555
C11_2 H6_2 1_555 1_555
C13_2 C10_2 1_555 1_555
C16_2 C11_2 1_555 1_555
H8_2 C16_2 1_555 1_555
In2_2 O5_2 1_555 1_555
O7_2 In2_2 1_555 1_555
C3_3 H1_3 1_555 1_555
C8_3 C3_3 1_555 1_555
H3_3 C8_3 1_555 1_555
O5_3 C13_3 1_555 1_555
O7_3 C13_3 1_555 1_555
C10_3 C11_3 1_555 1_555
C11_3 H6_3 1_555 1_555
C13_3 C10_3 1_555 1_555
C14_3 C10_3 1_555 1_555
H7_3 C14_3 1_555 1_555
C15_3 C12_3 1_555 1_555
C16_3 C11_3 1_555 1_555
H8_3 C16_3 1_555 1_555
N2_3 C15_3 1_555 1_555
H9_3 N2_3 1_555 1_555
In3_2 O5_3 1_555 1_555
C4_3 C8_3 1_555 1_555
O7_3 In3_2 1_555 1_555
C12_3 C16_3 1_555 1_555
C14_3 C15_3 1_555 1_555
In1_3 O2_3 1_555 1_555
O2_3 C1_3 1_555 1_555
O4_3 In1_3 1_555 1_555
C1_3 O4_3 1_555 1_555
O6_3 In1_3 1_555 1_555
O8_3 In1_3 1_555 1_555
C9_3 O6_3 1_555 1_555
O9_3 In1_3 1_555 1_555
O10_3 In1_3 1_555 1_555
O11_3 In1_3 1_555 1_555
O12_3 In1_3 1_555 1_555
O8_3 C9_3 1_555 1_555
O1_3 C5_3 1_555 1_555
O3_3 C5_3 1_555 1_555
C5_3 C2_3 1_555 1_555
C6_3 C2_3 1_555 1_555
H2_3 C6_3 1_555 1_555
N1_3 C7_3 1_555 1_555
H4_3 N1_3 1_555 1_555
In2_2 O1_3 1_555 1_555
O3_3 In2_2 1_555 1_555
C6_3 C7_3 1_555 1_555
In1_4 O2_4 1_555 1_555
O1_4 C5_4 1_555 1_555
O2_4 C1_4 1_555 1_555
O3_4 C5_4 1_555 1_555
O4_4 In1_4 1_555 1_555
C1_4 O4_4 1_555 1_555
C2_4 C3_4 1_555 1_555
C3_4 H1_4 1_555 1_555
C4_4 C1_4 1_555 1_555
C5_4 C2_4 1_555 1_555
C6_4 C2_4 1_555 1_555
H2_4 C6_4 1_555 1_555
C7_4 C4_4 1_555 1_555
C8_4 C3_4 1_555 1_555
H3_4 C8_4 1_555 1_555
N1_4 C7_4 1_555 1_555
H4_4 N1_4 1_555 1_555
H5_3 N1_4 1_555 1_555
O5_4 C13_4 1_555 1_555
O6_4 In1_4 1_555 1_555
O7_4 C13_4 1_555 1_555
O8_4 In1_4 1_555 1_555
C9_4 O6_4 1_555 1_555
C10_4 C11_4 1_555 1_555
C11_4 H6_4 1_555 1_555
C12_4 C9_4 1_555 1_555
C13_4 C10_4 1_555 1_555
C14_4 C10_4 1_555 1_555
H7_4 C14_4 1_555 1_555
C15_4 C12_4 1_555 1_555
C16_4 C11_4 1_555 1_555
H8_4 C16_4 1_555 1_555
N2_4 C15_4 1_555 1_555
H9_4 N2_4 1_555 1_555
H10_4 N2_4 1_555 1_555
In3 O5_4 1_555 1_555
In2 O1_4 1_555 1_555
O9_4 In1_4 1_555 1_555
O10_4 In1_4 1_555 1_555
O11_4 In1_4 1_555 1_555
O12_4 In1_4 1_555 1_555
O3_4 In2 1_555 1_555
C4_4 C8_4 1_555 1_555
C6_4 C7_4 1_555 1_555
O7_4 In3 1_555 1_555
O8_4 C9_4 1_555 1_555
C12_4 C16_4 1_555 1_555
C14_4 C15_4 1_555 1_555
O9 C13_5 1_555 1_555
O11 C13_5 1_555 1_555
C13_5 C10_5 1_555 1_555
In2_2 O2_5 1_555 1_555
O10_4 C5_5 1_555 1_555
O2_5 C1_5 1_555 1_555
O12_4 C5_5 1_555 1_555
O4_5 In2_2 1_555 1_555
C1_5 O4_5 1_555 1_555
C2_5 C3_5 1_555 1_555
C3_5 H1_5 1_555 1_555
C4_5 C1_5 1_555 1_555
C5_5 C2_5 1_555 1_555
C6_5 C2_5 1_555 1_555
H2_5 C6_5 1_555 1_555
C7_5 C4_5 1_555 1_555
C8_5 C3_5 1_555 1_555
H3_5 C8_5 1_555 1_555
N1_5 C7_5 1_555 1_555
H4_5 N1_5 1_555 1_555
H5_4 N1_5 1_555 1_555
O6_5 In2_2 1_555 1_555
O8_5 In2_2 1_555 1_555
C9_5 O6_5 1_555 1_555
C12_5 C9_5 1_555 1_555
C4_5 C8_5 1_555 1_555
C6_5 C7_5 1_555 1_555
O8_5 C9_5 1_555 1_555
O9_2 C13_6 1_555 1_555
O11_2 C13_6 1_555 1_555
C10_6 C11_5 1_555 1_555
C11_5 H6_5 1_555 1_555
C13_6 C10_6 1_555 1_555
C16_5 C11_5 1_555 1_555
H8_5 C16_5 1_555 1_555
In2 O2_6 1_555 1_555
O10_3 C5_6 1_555 1_555
O2_6 C1_6 1_555 1_555
O12_3 C5_6 1_555 1_555
O4_6 In2 1_555 1_555
C1_6 O4_6 1_555 1_555
C2_6 C3_6 1_555 1_555
C3_6 H1_6 1_555 1_555
C4_6 C1_6 1_555 1_555
C5_6 C2_6 1_555 1_555
C6_6 C2_6 1_555 1_555
H2_6 C6_6 1_555 1_555
C7_6 C4_6 1_555 1_555
C8_6 C3_6 1_555 1_555
H3_6 C8_6 1_555 1_555
N1_6 C7_6 1_555 1_555
H4_6 N1_6 1_555 1_555
H5_5 N1_6 1_555 1_555
O6_6 In2 1_555 1_555
O8_6 In2 1_555 1_555
C9_6 O6_6 1_555 1_555
C12_6 C9_6 1_555 1_555
H7_5 C14_5 1_555 1_555
C15_5 C12_6 1_555 1_555
N2_5 C15_5 1_555 1_555
H9_5 N2_5 1_555 1_555
H10_5 N2_5 1_555 1_555
C4_6 C8_6 1_555 1_555
C6_6 C7_6 1_555 1_555
O8_6 C9_6 1_555 1_555
C14_5 C15_5 1_555 1_555
O9_3 C13_7 1_555 1_555
O11_3 C13_7 1_555 1_555
C13_7 C10_7 1_555 1_555
C14_6 C10_7 1_555 1_555
H7_6 C14_6 1_555 1_555
N2_6 C15_6 1_555 1_555
H9_6 N2_6 1_555 1_555
H10_6 N2_6 1_555 1_555
C14_6 C15_6 1_555 1_555
In3 O2_7 1_555 1_555
O10_2 C5_7 1_555 1_555
O2_7 C1_7 1_555 1_555
O12_2 C5_7 1_555 1_555
O4_7 In3 1_555 1_555
C1_7 O4_7 1_555 1_555
C2_7 C3_7 1_555 1_555
C3_7 H1_7 1_555 1_555
C4_7 C1_7 1_555 1_555
C5_7 C2_7 1_555 1_555
C6_7 C2_7 1_555 1_555
H2_7 C6_7 1_555 1_555
C7_7 C4_7 1_555 1_555
C8_7 C3_7 1_555 1_555
H3_7 C8_7 1_555 1_555
N1_7 C7_7 1_555 1_555
H4_7 N1_7 1_555 1_555
H5_6 N1_7 1_555 1_555
O6_7 In3 1_555 1_555
O8_7 In3 1_555 1_555
C9_7 O6_7 1_555 1_555
C11_6 H6_6 1_555 1_555
C12_7 C9_7 1_555 1_555
C16_6 C11_6 1_555 1_555
H8_6 C16_6 1_555 1_555
C4_7 C8_7 1_555 1_555
C6_7 C7_7 1_555 1_555
O8_7 C9_7 1_555 1_555
C12_7 C16_6 1_555 1_555
In3_2 O2_8 1_555 1_555
O10 C5_8 1_555 1_555
O2_8 C1_8 1_555 1_555
O12 C5_8 1_555 1_555
O4_8 In3_2 1_555 1_555
C1_8 O4_8 1_555 1_555
C2_8 C3_8 1_555 1_555
C3_8 H1_8 1_555 1_555
C4_8 C1_8 1_555 1_555
C5_8 C2_8 1_555 1_555
C6_8 C2_8 1_555 1_555
H2_8 C6_8 1_555 1_555
C7_8 C4_8 1_555 1_555
C8_8 C3_8 1_555 1_555
H3_8 C8_8 1_555 1_555
N1_8 C7_8 1_555 1_555
H4_8 N1_8 1_555 1_555
H5_7 N1_8 1_555 1_555
O9_4 C13_8 1_555 1_555
O6_8 In3_2 1_555 1_555
O11_4 C13_8 1_555 1_555
O8_8 In3_2 1_555 1_555
C9_8 O6_8 1_555 1_555
C10_8 C11_7 1_555 1_555
C11_7 H6_7 1_555 1_555
C12_8 C9_8 1_555 1_555
C13_8 C10_8 1_555 1_555
C14_7 C10_8 1_555 1_555
H7_7 C14_7 1_555 1_555
C15_7 C12_8 1_555 1_555
C16_7 C11_7 1_555 1_555
H8_7 C16_7 1_555 1_555
N2_7 C15_7 1_555 1_555
H9_7 N2_7 1_555 1_555
H10_7 N2_7 1_555 1_555
C4_8 C8_8 1_555 1_555
C6_8 C7_8 1_555 1_555
O8_8 C9_8 1_555 1_555
C12_8 C16_7 1_555 1_555
C14_7 C15_7 1_555 1_555
In1_5 O2_9 1_555 1_555
O1_5 C5_9 1_555 1_555
O2_9 C1_9 1_555 1_555
O3_5 C5_9 1_555 1_555
O4_9 In1_5 1_555 1_555
C1_9 O4_9 1_555 1_555
C2_9 C3_9 1_555 1_555
C3_9 H1_9 1_555 1_555
C4_9 C1_9 1_555 1_555
C5_9 C2_9 1_555 1_555
C6_9 C2_9 1_555 1_555
H2_9 C6_9 1_555 1_555
C7_9 C4_9 1_555 1_555
C8_9 C3_9 1_555 1_555
H3_9 C8_9 1_555 1_555
N1_9 C7_9 1_555 1_555
H4_9 N1_9 1_555 1_555
H5_8 N1_9 1_555 1_555
O6_9 In1_5 1_555 1_555
O8_9 In1_5 1_555 1_555
C9_9 O6_9 1_555 1_555
C12_9 C9_9 1_555 1_555
In3_3 O1_5 1_555 1_555
O9_5 In1_5 1_555 1_555
O10_5 In1_5 1_555 1_555
O11_5 In1_5 1_555 1_555
O12_5 In1_5 1_555 1_555
O3_5 In3_3 1_555 1_555
C4_9 C8_9 1_555 1_555
C6_9 C7_9 1_555 1_555
O8_9 C9_9 1_555 1_555
O5_5 C13_9 1_555 1_555
O7_5 C13_9 1_555 1_555
C13_9 C10_9 1_555 1_555
In2_3 O5_5 1_555 1_555
O7_5 In2_3 1_555 1_555
In1_6 O2_10 1_555 1_555
O1_6 C5_10 1_555 1_555
O2_10 C1_10 1_555 1_555
O3_6 C5_10 1_555 1_555
O4_10 In1_6 1_555 1_555
C1_10 O4_10 1_555 1_555
C2_10 C3_10 1_555 1_555
C3_10 H1_10 1_555 1_555
C4_10 C1_10 1_555 1_555
C5_10 C2_10 1_555 1_555
C6_10 C2_10 1_555 1_555
H2_10 C6_10 1_555 1_555
C7_10 C4_10 1_555 1_555
C8_10 C3_10 1_555 1_555
H3_10 C8_10 1_555 1_555
N1_10 C7_10 1_555 1_555
H4_10 N1_10 1_555 1_555
H5_9 N1_10 1_555 1_555
O6_10 In1_6 1_555 1_555
O8_10 In1_6 1_555 1_555
C9_10 O6_10 1_555 1_555
C12_10 C9_10 1_555 1_555
H7_8 C14_8 1_555 1_555
C15_8 C12_10 1_555 1_555
N2_8 C15_8 1_555 1_555
H9_8 N2_8 1_555 1_555
H10_8 N2_8 1_555 1_555
In3_4 O1_6 1_555 1_555
O9_6 In1_6 1_555 1_555
O10_6 In1_6 1_555 1_555
O11_6 In1_6 1_555 1_555
O12_6 In1_6 1_555 1_555
O3_6 In3_4 1_555 1_555
C4_10 C8_10 1_555 1_555
C6_10 C7_10 1_555 1_555
O8_10 C9_10 1_555 1_555
C14_8 C15_8 1_555 1_555
O5_6 C13_10 1_555 1_555
O7_6 C13_10 1_555 1_555
C10_10 C11_8 1_555 1_555
C11_8 H6_8 1_555 1_555
C13_10 C10_10 1_555 1_555
C16_8 C11_8 1_555 1_555
H8_8 C16_8 1_555 1_555
In2_4 O5_6 1_555 1_555
O7_6 In2_4 1_555 1_555
In1_7 O2_11 1_555 1_555
O1_7 C5_11 1_555 1_555
O2_11 C1_11 1_555 1_555
O3_7 C5_11 1_555 1_555
O4_11 In1_7 1_555 1_555
C1_11 O4_11 1_555 1_555
C2_11 C3_11 1_555 1_555
C3_11 H1_11 1_555 1_555
C4_11 C1_11 1_555 1_555
C5_11 C2_11 1_555 1_555
C6_11 C2_11 1_555 1_555
H2_11 C6_11 1_555 1_555
C7_11 C4_11 1_555 1_555
C8_11 C3_11 1_555 1_555
H3_11 C8_11 1_555 1_555
N1_11 C7_11 1_555 1_555
H4_11 N1_11 1_555 1_555
H5_10 N1_11 1_555 1_555
O6_11 In1_7 1_555 1_555
O8_11 In1_7 1_555 1_555
C9_11 O6_11 1_555 1_555
C11_9 H6_9 1_555 1_555
C12_11 C9_11 1_555 1_555
C16_9 C11_9 1_555 1_555
H8_9 C16_9 1_555 1_555
In2_4 O1_7 1_555 1_555
O9_7 In1_7 1_555 1_555
O10_7 In1_7 1_555 1_555
O11_7 In1_7 1_555 1_555
O12_7 In1_7 1_555 1_555
O3_7 In2_4 1_555 1_555
C4_11 C8_11 1_555 1_555
C6_11 C7_11 1_555 1_555
O8_11 C9_11 1_555 1_555
C12_11 C16_9 1_555 1_555
O5_7 C13_11 1_555 1_555
O7_7 C13_11 1_555 1_555
C13_11 C10_11 1_555 1_555
C14_9 C10_11 1_555 1_555
H7_9 C14_9 1_555 1_555
N2_9 C15_9 1_555 1_555
H9_9 N2_9 1_555 1_555
H10_9 N2_9 1_555 1_555
In3_4 O5_7 1_555 1_555
O7_7 In3_4 1_555 1_555
C14_9 C15_9 1_555 1_555
In1_8 O2_12 1_555 1_555
O1_8 C5_12 1_555 1_555
O2_12 C1_12 1_555 1_555
O3_8 C5_12 1_555 1_555
O4_12 In1_8 1_555 1_555
C1_12 O4_12 1_555 1_555
C2_12 C3_12 1_555 1_555
C3_12 H1_12 1_555 1_555
C4_12 C1_12 1_555 1_555
C5_12 C2_12 1_555 1_555
C6_12 C2_12 1_555 1_555
H2_12 C6_12 1_555 1_555
C7_12 C4_12 1_555 1_555
C8_12 C3_12 1_555 1_555
H3_12 C8_12 1_555 1_555
N1_12 C7_12 1_555 1_555
H4_12 N1_12 1_555 1_555
H5_11 N1_12 1_555 1_555
O5_8 C13_12 1_555 1_555
O6_12 In1_8 1_555 1_555
O7_8 C13_12 1_555 1_555
O8_12 In1_8 1_555 1_555
C9_12 O6_12 1_555 1_555
C10_12 C11_10 1_555 1_555
C11_10 H6_10 1_555 1_555
C12_12 C9_12 1_555 1_555
C13_12 C10_12 1_555 1_555
C14_10 C10_12 1_555 1_555
H7_10 C14_10 1_555 1_555
C15_10 C12_12 1_555 1_555
C16_10 C11_10 1_555 1_555
H8_10 C16_10 1_555 1_555
N2_10 C15_10 1_555 1_555
H9_10 N2_10 1_555 1_555
H10_10 N2_10 1_555 1_555
In3_3 O5_8 1_555 1_555
In2_3 O1_8 1_555 1_555
O9_8 In1_8 1_555 1_555
O10_8 In1_8 1_555 1_555
O11_8 In1_8 1_555 1_555
O12_8 In1_8 1_555 1_555
O3_8 In2_3 1_555 1_555
C4_12 C8_12 1_555 1_555
C6_12 C7_12 1_555 1_555
O7_8 In3_3 1_555 1_555
O8_12 C9_12 1_555 1_555
C12_12 C16_10 1_555 1_555
C14_10 C15_10 1_555 1_555
O9_6 C13_13 1_555 1_555
O11_6 C13_13 1_555 1_555
C10_13 C11_11 1_555 1_555
C11_11 H6_11 1_555 1_555
C13_13 C10_13 1_555 1_555
C16_11 C11_11 1_555 1_555
H8_11 C16_11 1_555 1_555
O10_7 C5_13 1_555 1_555
O12_7 C5_13 1_555 1_555
C5_13 C2_13 1_555 1_555
C6_13 C2_13 1_555 1_555
H2_13 C6_13 1_555 1_555
N1_13 C7_13 1_555 1_555
H4_13 N1_13 1_555 1_555
H5_12 N1_13 1_555 1_555
C6_13 C7_13 1_555 1_555
In2_3 O2_13 1_555 1_555
O2_13 C1_13 1_555 1_555
O4_13 In2_3 1_555 1_555
C1_13 O4_13 1_555 1_555
C3_13 H1_13 1_555 1_555
C4_13 C1_13 1_555 1_555
C8_13 C3_13 1_555 1_555
H3_13 C8_13 1_555 1_555
O6_13 In2_3 1_555 1_555
O8_13 In2_3 1_555 1_555
C9_13 O6_13 1_555 1_555
C12_13 C9_13 1_555 1_555
H7_11 C14_11 1_555 1_555
C15_11 C12_13 1_555 1_555
N2_11 C15_11 1_555 1_555
H9_11 N2_11 1_555 1_555
H10_11 N2_11 1_555 1_555
C4_13 C8_13 1_555 1_555
O8_13 C9_13 1_555 1_555
C14_11 C15_11 1_555 1_555
O9_5 C13_14 1_555 1_555
O11_5 C13_14 1_555 1_555
C10_14 C11_12 1_555 1_555
C11_12 H6_12 1_555 1_555
C13_14 C10_14 1_555 1_555
C16_12 C11_12 1_555 1_555
H8_12 C16_12 1_555 1_555
In2_4 O2_14 1_555 1_555
O2_14 C1_14 1_555 1_555
O4_14 In2_4 1_555 1_555
C1_14 O4_14 1_555 1_555
O6_14 In2_4 1_555 1_555
O8_14 In2_4 1_555 1_555
C9_14 O6_14 1_555 1_555
O8_14 C9_14 1_555 1_555
O10_8 C5_14 1_555 1_555
O12_8 C5_14 1_555 1_555
C2_14 C3_14 1_555 1_555
C3_14 H1_14 1_555 1_555
C5_14 C2_14 1_555 1_555
C6_14 C2_14 1_555 1_555
H2_14 C6_14 1_555 1_555
C7_14 C4_14 1_555 1_555
C8_14 C3_14 1_555 1_555
H3_14 C8_14 1_555 1_555
N1_14 C7_14 1_555 1_555
H4_14 N1_14 1_555 1_555
H7_12 C14_12 1_555 1_555
C15_12 C12_14 1_555 1_555
N2_12 C15_12 1_555 1_555
H9_12 N2_12 1_555 1_555
C4_14 C8_14 1_555 1_555
C6_14 C7_14 1_555 1_555
C14_12 C15_12 1_555 1_555
O10_5 C5_15 1_555 1_555
O12_5 C5_15 1_555 1_555
C5_15 C2_15 1_555 1_555
C6_15 C2_15 1_555 1_555
H2_15 C6_15 1_555 1_555
N1_15 C7_15 1_555 1_555
H4_15 N1_15 1_555 1_555
C6_15 C7_15 1_555 1_555
In3_4 O2_15 1_555 1_555
O2_15 C1_15 1_555 1_555
O4_15 In3_4 1_555 1_555
C1_15 O4_15 1_555 1_555
O6_15 In3_4 1_555 1_555
O8_15 In3_4 1_555 1_555
C9_15 O6_15 1_555 1_555
O8_15 C9_15 1_555 1_555
C3_15 H1_15 1_555 1_555
C8_15 C3_15 1_555 1_555
H3_15 C8_15 1_555 1_555
O9_8 C13_15 1_555 1_555
O11_8 C13_15 1_555 1_555
C10_15 C11_13 1_555 1_555
C11_13 H6_13 1_555 1_555
C13_15 C10_15 1_555 1_555
C14_13 C10_15 1_555 1_555
H7_13 C14_13 1_555 1_555
C15_13 C12_15 1_555 1_555
C16_13 C11_13 1_555 1_555
H8_13 C16_13 1_555 1_555
N2_13 C15_13 1_555 1_555
H9_13 N2_13 1_555 1_555
C4_15 C8_15 1_555 1_555
C12_15 C16_13 1_555 1_555
C14_13 C15_13 1_555 1_555
In3_3 O2_16 1_555 1_555
O10_6 C5_16 1_555 1_555
O2_16 C1_16 1_555 1_555
O12_6 C5_16 1_555 1_555
O4_16 In3_3 1_555 1_555
C1_16 O4_16 1_555 1_555
C2_16 C3_16 1_555 1_555
C3_16 H1_16 1_555 1_555
C4_16 C1_16 1_555 1_555
C5_16 C2_16 1_555 1_555
C6_16 C2_16 1_555 1_555
H2_16 C6_16 1_555 1_555
C7_16 C4_16 1_555 1_555
C8_16 C3_16 1_555 1_555
H3_16 C8_16 1_555 1_555
N1_16 C7_16 1_555 1_555
H4_16 N1_16 1_555 1_555
H5_14 N1_16 1_555 1_555
O9_7 C13_16 1_555 1_555
O6_16 In3_3 1_555 1_555
O11_7 C13_16 1_555 1_555
O8_16 In3_3 1_555 1_555
C9_16 O6_16 1_555 1_555
C10_16 C11_14 1_555 1_555
C11_14 H6_14 1_555 1_555
C12_16 C9_16 1_555 1_555
C13_16 C10_16 1_555 1_555
C14_14 C10_16 1_555 1_555
H7_14 C14_14 1_555 1_555
C15_14 C12_16 1_555 1_555
C16_14 C11_14 1_555 1_555
H8_14 C16_14 1_555 1_555
N2_14 C15_14 1_555 1_555
H9_14 N2_14 1_555 1_555
H10_14 N2_14 1_555 1_555
C4_16 C8_16 1_555 1_555
C6_16 C7_16 1_555 1_555
O8_16 C9_16 1_555 1_555
C12_16 C16_14 1_555 1_555
C14_14 C15_14 1_555 1_555
H7_15 C14_15 1_555 1_555
N2_15 C15_15 1_555 1_555
H9_15 N2_15 1_555 1_555
H10_15 N2_15 1_555 1_555
C14_15 C15_15 1_555 1_555
C11_15 H6_15 1_555 1_555
C16_15 C11_15 1_555 1_555
H8_15 C16_15 1_555 1_555
C11_16 H6_16 1_555 1_555
C16_16 C11_16 1_555 1_555
H8_16 C16_16 1_555 1_555
H7_16 C14_16 1_555 1_555
N2_16 C15_16 1_555 1_555
H9_16 N2_16 1_555 1_555
H10_16 N2_16 1_555 1_555
C14_16 C15_16 1_555 1_555

#END
