
###############################################################################
#
# This file contains modified crystal structure data generated from the
# MOF subset of the Cambridge Structural Database (CSD) v543 
# hosted by the Cambridge Crystallographic Data Centre (CCDC).
#
# This work is licensed under the Creative Commons
# Attribution-NonCommercial-ShareAlike 4.0 International License.
# To view a copy of this license, visit
# http://creativecommons.org/licenses/by-nc-sa/4.0/
# or send a letter to
# Creative Commons, PO Box 1866, Mountain View, CA 94042, USA.
#
# CIF created using the CSD Python API on 29 September 2022
# The structure has been converted into the P1 space group
# The structure has a 3D framework
# The original CSD entry NOWZUX is in the rhombohedral crystal system
# The framework has been calculated to contain at least 10.0% void space
# The void calculation uses a probe of radius 1.32A, grid spacing 0.4
#
###############################################################################

data_NOWZUX
_chemical_formula_moiety         '(C234 H144 Cu36 N86 O77)n'
_symmetry_cell_setting           triclinic
_symmetry_space_group_name_H-M   'P 1'
_symmetry_Int_Tables_number      1
_space_group_name_Hall           'P 1'
loop_
_symmetry_equiv_pos_site_id
_symmetry_equiv_pos_as_xyz
1 x,y,z
_cell_length_a                   30.9216(13)
_cell_length_b                   30.9216(13)
_cell_length_c                   12.4440(6)
_cell_angle_alpha                90
_cell_angle_beta                 90
_cell_angle_gamma                120
_cell_volume                     10304.2
loop_
_atom_site_label
_atom_site_type_symbol
_atom_site_fract_x
_atom_site_fract_y
_atom_site_fract_z
N5 N 0.53768(19) 0.1856(2) 0.0267(4)
H7 H 0.556895 0.206181 0.074845
H8 H 0.537207 0.157848 0.016650
C1 C 0.3627(2) 0.0956(2) 0.4606(5)
C2 C 0.3858(2) 0.0835(2) 0.3684(4)
C3 C 0.4325(2) 0.1191(2) 0.3283(5)
H1 H 0.450511 0.149866 0.362379
C4 C 0.4521(2) 0.1087(2) 0.2376(5)
H2 H 0.483320 0.132186 0.211565
C5 C 0.4245(2) 0.0631(2) 0.1866(4)
C6 C 0.3795(2) 0.0268(2) 0.2291(5)
C7 C 0.3595(2) 0.0370(2) 0.3177(5)
H4 H 0.328544 0.012977 0.343921
C8 C 0.4433(2) 0.0516(2) 0.0843(5)
C9 C 0.4310(2) 0.1132(2) 0.7655(5)
H5 H 0.416398 0.084647 0.722903
C10 C 0.4750(2) 0.1661(2) 0.8866(5)
C11 C 0.4495(2) 0.1846(2) 0.8286(5)
C12 C 0.4836(2) 0.2544(2) 0.9280(5)
H6 H 0.486800 0.285221 0.944369
C13 C 0.5086(2) 0.1967(2) 0.9673(5)
Cu1 Cu 0.36926(3) 0.14777(3) 0.65467(7)
Cu2 Cu 0.40329(3) 0.25216(3) 0.78921(7)
N1 N 0.42219(17) 0.15158(17) 0.7511(4)
N2 N 0.46237(17) 0.11965(17) 0.8459(4)
N3 N 0.45233(18) 0.22955(17) 0.8489(4)
N4 N 0.5111(2) 0.24139(19) 0.9873(5)
O1 O 0.39274(14) 0.12710(14) 0.5292(3)
O2 O 0.31584(14) 0.07263(14) 0.4631(3)
O3 O 0.41377(14) 0.01086(15) 0.0382(3)
O4 O 0.48608(14) 0.08236(14) 0.0472(3)
O5 O 0.35086(14) 0.18306(14) 0.7622(3)
Cu4 Cu 0.29741(3) 0.18556(3) 0.67866(7)
Cu5 Cu 0.26338(3) 0.08117(3) 0.54412(7)
Cu7 Cu 0.48446(4) 0.06996(3) 0.87746(7)
N6 N 0.45298(17) 0.32395(24) 0.8208(4)
O6 O 0.35083(14) 0.26070(14) 0.8702(3)
O7 O 0.32247(15) 0.06958(21) 0.7049(3)
O8 O 0.41569(14) 0.26295(20) 0.6195(3)
O9 O 0.31581(14) 0.15027(14) 0.5711(3)
Cu3 Cu 0.44518(4) 0.96407(3) 0.98800(7)
Cu3_2 Cu 0.03593(3) 0.48110(5) 0.98800(7)
C1_2 C 0.9044(2) 0.2671(3) 0.4606(5)
C2_2 C 0.9165(2) 0.3023(3) 0.3684(4)
C3_2 C 0.8809(2) 0.3134(3) 0.3283(5)
H1_2 H 0.850134 0.300645 0.362379
C4_2 C 0.8913(2) 0.3434(3) 0.2376(5)
H2_2 H 0.867814 0.351134 0.211565
C5_2 C 0.9369(2) 0.3614(3) 0.1866(4)
C6_2 C 0.9732(2) 0.3527(3) 0.2291(5)
C7_2 C 0.9630(2) 0.3225(3) 0.3177(5)
H4_2 H 0.987023 0.315567 0.343921
C8_2 C 0.9484(2) 0.3917(3) 0.0843(5)
C9_2 C 0.8868(2) 0.3178(3) 0.7655(5)
H5_2 H 0.915353 0.331751 0.722903
C10_2 C 0.8339(2) 0.3089(3) 0.8866(5)
C11_2 C 0.8154(2) 0.2649(3) 0.8286(5)
C12_2 C 0.7456(2) 0.2292(3) 0.9280(5)
H6_2 H 0.714779 0.201579 0.944369
C13_2 C 0.8033(2) 0.3119(3) 0.9673(5)
Cu1_2 Cu 0.85223(3) 0.22149(4) 0.65467(7)
Cu2_2 Cu 0.74784(3) 0.15113(4) 0.78921(7)
N1_2 N 0.84842(17) 0.27061(24) 0.7511(4)
N2_2 N 0.88035(17) 0.34272(24) 0.8459(4)
N3_2 N 0.77045(17) 0.22278(25) 0.8489(4)
N4_2 N 0.75861(19) 0.26971(28) 0.9873(5)
O1_2 O 0.87290(14) 0.26564(20) 0.5292(3)
O2_2 O 0.92737(14) 0.24321(20) 0.4631(3)
O3_2 O 0.98914(15) 0.40291(21) 0.0382(3)
O4_2 O 0.91764(14) 0.40372(20) 0.0472(3)
O5_2 O 0.81694(14) 0.16780(20) 0.7622(3)
Cu4_2 Cu 0.81444(3) 0.11184(4) 0.67866(7)
Cu5_2 Cu 0.91883(3) 0.18220(4) 0.54412(7)
Cu7_2 Cu 0.93004(3) 0.41451(5) 0.87746(7)
N6_2 N 0.67605(24) 0.12904(29) 0.8208(4)
O6_2 O 0.73930(14) 0.09012(20) 0.8702(3)
O7_2 O 0.93042(21) 0.25290(26) 0.7049(3)
O8_2 O 0.73705(20) 0.15275(24) 0.6195(3)
O9_2 O 0.84973(14) 0.16553(20) 0.5711(3)
C1_3 C 0.7329(3) 0.6373(2) 0.4606(5)
C2_3 C 0.6977(3) 0.6142(2) 0.3684(4)
C3_3 C 0.6866(3) 0.5675(2) 0.3283(5)
H1_3 H 0.699355 0.549489 0.362379
C4_3 C 0.6566(3) 0.5479(2) 0.2376(5)
H2_3 H 0.648866 0.516680 0.211565
C5_3 C 0.6386(3) 0.5755(2) 0.1866(4)
C6_3 C 0.6473(3) 0.6205(2) 0.2291(5)
H3 H 0.632688 0.637328 0.197644
C7_3 C 0.6775(3) 0.6405(2) 0.3177(5)
H4_3 H 0.684433 0.671456 0.343921
C8_3 C 0.6083(3) 0.5567(2) 0.0843(5)
C9_3 C 0.6822(3) 0.5690(2) 0.7655(5)
H5_3 H 0.668249 0.583602 0.722903
C10_3 C 0.6911(3) 0.5250(2) 0.8866(5)
C11_3 C 0.7351(3) 0.5505(2) 0.8286(5)
C12_3 C 0.7708(3) 0.5164(2) 0.9280(5)
H6_3 H 0.798421 0.513200 0.944369
C13_3 C 0.6881(3) 0.4914(2) 0.9673(5)
Cu1_3 Cu 0.77851(4) 0.63074(3) 0.65467(7)
Cu2_3 Cu 0.84887(4) 0.59671(3) 0.78921(7)
N1_3 N 0.72939(24) 0.57781(17) 0.7511(4)
N2_3 N 0.65728(24) 0.53763(17) 0.8459(4)
N3_3 N 0.77722(25) 0.54767(18) 0.8489(4)
N4_3 N 0.73029(28) 0.4889(2) 0.9873(5)
O1_3 O 0.73436(20) 0.60726(14) 0.5292(3)
O2_3 O 0.75679(20) 0.68416(14) 0.4631(3)
O3_3 O 0.59709(21) 0.58623(14) 0.0382(3)
O4_3 O 0.59628(20) 0.51392(14) 0.0472(3)
O5_3 O 0.83220(20) 0.64914(14) 0.7622(3)
Cu4_3 Cu 0.88816(4) 0.70259(3) 0.67866(7)
Cu5_3 Cu 0.81780(4) 0.73662(3) 0.54412(7)
Cu7_3 Cu 0.58549(5) 0.51554(4) 0.87746(7)
N6_3 N 0.87096(29) 0.54702(17) 0.8208(4)
O6_3 O 0.90988(20) 0.64917(14) 0.8702(3)
O7_3 O 0.74710(26) 0.67753(15) 0.7049(3)
O8_3 O 0.84725(24) 0.58431(14) 0.6195(3)
O9_3 O 0.83447(20) 0.68419(14) 0.5711(3)
Cu3_3 Cu 0.51890(5) 0.55482(4) 0.98800(7)
C9_4 C 0.0977(2) 0.4465(2) 0.0988(5)
H5_4 H 0.083065 0.417980 0.056236
C10_4 C 0.1417(2) 0.4994(2) 0.2199(5)
C11_4 C 0.1162(2) 0.5179(2) 0.1619(5)
C12_4 C 0.1503(2) 0.5877(2) 0.2613(5)
H6_4 H 0.153467 0.618554 0.277702
C13_4 C 0.1753(2) 0.5300(2) 0.3006(5)
Cu2_4 Cu 0.06996(3) 0.58549(3) 0.12254(7)
N1_4 N 0.08886(17) 0.48491(17) 0.0844(4)
N2_4 N 0.12904(17) 0.45298(17) 0.1792(4)
N3_4 N 0.11900(18) 0.56288(17) 0.1822(4)
N4_4 N 0.1778(2) 0.57472(19) 0.3206(5)
N5_2 N 0.20435(19) 0.5189(2) 0.3600(4)
H7_2 H 0.223562 0.539514 0.408178
H8_2 H 0.203874 0.491181 0.349983
O5_4 O 0.01753(14) 0.51639(14) 0.0955(3)
Cu7_4 Cu 0.15113(4) 0.40329(3) 0.21079(7)
N6_4 N 0.11965(17) 0.65728(24) 0.1541(4)
O6_4 O 0.01749(14) 0.59404(14) 0.2036(3)
C1_4 C 0.0294(2) 0.4289(2) 0.7939(5)
C2_4 C 0.0525(2) 0.4168(2) 0.7017(4)
C3_4 C 0.0992(2) 0.4524(2) 0.6616(5)
H1_4 H 0.117178 0.483199 0.695712
C4_4 C 0.1188(2) 0.4420(2) 0.5709(5)
H2_4 H 0.149987 0.465519 0.544898
C5_4 C 0.0912(2) 0.3964(2) 0.5199(4)
C6_4 C 0.0462(2) 0.3601(2) 0.5624(5)
H3_2 H 0.029339 0.328693 0.530977
C7_4 C 0.0262(2) 0.3703(2) 0.6510(5)
C8_4 C 0.1100(2) 0.3849(2) 0.4176(5)
O1_4 O 0.05941(14) 0.46043(14) 0.8625(3)
O3_4 O 0.08044(14) 0.34419(15) 0.3715(3)
O4_4 O 0.15275(14) 0.41569(14) 0.3805(3)
Cu3_4 Cu 0.11184(4) 0.29741(3) 0.32134(7)
O8_4 O 0.08236(14) 0.59628(20) 0.9528(3)
Cu4_4 Cu 0.96407(3) 0.51890(3) 0.01200(7)
H4_4 H 0.995211 0.346310 0.677254
O2_4 O 0.98251(14) 0.40596(14) 0.7964(3)
O9_4 O 0.98247(14) 0.48361(14) 0.9045(3)
C9_5 C 0.5535(2) 0.6511(3) 0.0988(5)
H5_5 H 0.582020 0.665084 0.056236
C10_5 C 0.5006(2) 0.6422(3) 0.2199(5)
C11_5 C 0.4821(2) 0.5982(3) 0.1619(5)
C12_5 C 0.4123(2) 0.5625(3) 0.2613(5)
H6_5 H 0.381446 0.534912 0.277702
C13_5 C 0.4700(2) 0.6452(3) 0.3006(5)
Cu2_5 Cu 0.41451(3) 0.48446(4) 0.12254(7)
N1_5 N 0.51509(17) 0.60394(24) 0.0844(4)
N2_5 N 0.54702(17) 0.67605(24) 0.1792(4)
N3_5 N 0.43712(17) 0.55611(25) 0.1822(4)
N4_5 N 0.42528(19) 0.60304(28) 0.3206(5)
N5_3 N 0.4811(2) 0.68541(28) 0.3600(4)
H7_3 H 0.460486 0.684047 0.408178
H8_3 H 0.508819 0.712692 0.349983
O5_5 O 0.48361(14) 0.50113(20) 0.0955(3)
Cu4_5 Cu 0.48110(3) 0.44518(4) 0.01200(7)
Cu7_5 Cu 0.59671(3) 0.74784(5) 0.21079(7)
N6_5 N 0.34272(24) 0.46237(29) 0.1541(4)
O6_5 O 0.40596(14) 0.42346(20) 0.2036(3)
C1_5 C 0.5711(2) 0.6004(3) 0.7939(5)
C2_5 C 0.5832(2) 0.6356(3) 0.7017(4)
C3_5 C 0.5476(2) 0.6467(3) 0.6616(5)
H1_5 H 0.516801 0.633978 0.695712
C4_5 C 0.5580(2) 0.6767(3) 0.5709(5)
H2_5 H 0.534481 0.684467 0.544898
C5_5 C 0.6036(2) 0.6947(3) 0.5199(4)
C6_5 C 0.6399(2) 0.6860(3) 0.5624(5)
H3_3 H 0.671307 0.700645 0.530977
C7_5 C 0.6297(2) 0.6558(3) 0.6510(5)
H4_5 H 0.653690 0.648900 0.677254
C8_5 C 0.6151(2) 0.7250(3) 0.4176(5)
O1_5 O 0.53957(14) 0.59897(20) 0.8625(3)
O2_5 O 0.59404(14) 0.57654(20) 0.7964(3)
O3_5 O 0.65581(15) 0.73624(21) 0.3715(3)
O4_5 O 0.58431(14) 0.73705(20) 0.3805(3)
Cu3_5 Cu 0.70259(3) 0.81444(5) 0.32134(7)
O8_5 O 0.40372(20) 0.48608(24) 0.9528(3)
O9_5 O 0.51639(14) 0.49887(20) 0.9045(3)
Cu4_6 Cu 0.55482(4) 0.03593(3) 0.01200(7)
H4_6 H 0.351100 0.004789 0.677254
O2_6 O 0.42346(20) 0.01749(14) 0.7964(3)
O9_6 O 0.50113(20) 0.01753(14) 0.9045(3)
C9_6 C 0.3489(3) 0.9023(2) 0.0988(5)
H5_6 H 0.334916 0.916935 0.056236
C10_6 C 0.3578(3) 0.8583(2) 0.2199(5)
C11_6 C 0.4018(3) 0.8838(2) 0.1619(5)
C12_6 C 0.4375(3) 0.8497(2) 0.2613(5)
H6_6 H 0.465088 0.846533 0.277702
C13_6 C 0.3548(3) 0.8247(2) 0.3006(5)
Cu2_6 Cu 0.51554(4) 0.93004(3) 0.12254(7)
N1_6 N 0.39606(24) 0.91114(17) 0.0844(4)
N2_6 N 0.32395(24) 0.87096(17) 0.1792(4)
N3_6 N 0.44389(25) 0.88100(18) 0.1822(4)
N4_6 N 0.39696(28) 0.8222(2) 0.3206(5)
N5_4 N 0.31459(28) 0.79565(19) 0.3600(4)
H7_4 H 0.315953 0.776438 0.408178
H8_4 H 0.287308 0.796126 0.349983
O5_6 O 0.49887(20) 0.98247(14) 0.0955(3)
Cu7_6 Cu 0.25216(5) 0.84887(4) 0.21079(7)
N6_6 N 0.53763(29) 0.88035(17) 0.1541(4)
O6_6 O 0.57654(20) 0.98251(14) 0.2036(3)
C1_6 C 0.3996(3) 0.9706(2) 0.7939(5)
C2_6 C 0.3644(3) 0.9475(2) 0.7017(4)
C3_6 C 0.3533(3) 0.9008(2) 0.6616(5)
H1_6 H 0.366022 0.882822 0.695712
C4_6 C 0.3233(3) 0.8812(2) 0.5709(5)
H2_6 H 0.315533 0.850013 0.544898
C5_6 C 0.3053(3) 0.9088(2) 0.5199(4)
C6_6 C 0.3140(3) 0.9538(2) 0.5624(5)
H3_4 H 0.299355 0.970661 0.530977
C7_6 C 0.3442(3) 0.9738(2) 0.6510(5)
C8_6 C 0.2750(3) 0.8900(2) 0.4176(5)
O1_6 O 0.40103(20) 0.94059(14) 0.8625(3)
O3_6 O 0.26376(21) 0.91956(14) 0.3715(3)
O4_6 O 0.26295(20) 0.84725(14) 0.3805(3)
Cu3_6 Cu 0.18556(5) 0.88816(4) 0.32134(7)
O8_6 O 0.51392(24) 0.91764(14) 0.9528(3)
C1_7 C 0.6960(2) 0.7623(2) 0.1273(5)
C2_7 C 0.7191(2) 0.7502(2) 0.0351(4)
H1_7 H 0.783844 0.816533 0.029046
H4_7 H 0.661877 0.679644 0.010588
C9_7 C 0.7643(2) 0.7799(2) 0.4322(5)
H5_7 H 0.749731 0.751314 0.389570
C10_7 C 0.8083(2) 0.8328(2) 0.5533(5)
C11_7 C 0.7828(2) 0.8513(2) 0.4953(5)
C12_7 C 0.8169(2) 0.9211(2) 0.5947(5)
H6_7 H 0.820133 0.951888 0.611036
C13_7 C 0.8419(2) 0.8634(2) 0.6340(5)
Cu2_7 Cu 0.73662(3) 0.91883(3) 0.45588(7)
N1_7 N 0.75552(17) 0.81825(17) 0.4178(4)
N2_7 N 0.79570(17) 0.78632(17) 0.5126(4)
N3_7 N 0.78566(18) 0.89622(17) 0.5156(4)
N4_7 N 0.8444(2) 0.90806(19) 0.6540(5)
N5_5 N 0.87101(19) 0.8523(2) 0.6934(4)
H7_5 H 0.890228 0.872848 0.741512
H8_5 H 0.870540 0.824515 0.683317
O1_7 O 0.72607(14) 0.79377(14) 0.1959(3)
O2_7 O 0.64917(14) 0.73930(14) 0.1298(3)
O5_7 O 0.68419(14) 0.84973(14) 0.4289(3)
Cu4_7 Cu 0.63074(3) 0.85223(3) 0.34533(7)
N6_7 N 0.78632(17) 0.99061(24) 0.4874(4)
O6_7 O 0.68416(14) 0.92737(14) 0.5369(3)
O8_7 O 0.74903(14) 0.92961(20) 0.2861(3)
O9_7 O 0.64914(14) 0.81694(14) 0.2378(3)
C3_7 C 0.7658(2) 0.7858(2) 0.9950(5)
C4_7 C 0.7854(2) 0.7754(2) 0.9043(5)
H2_7 H 0.816653 0.798853 0.878232
C5_7 C 0.7578(2) 0.7298(2) 0.8533(4)
C6_7 C 0.7128(2) 0.6935(2) 0.8958(5)
H3_5 H 0.696005 0.662027 0.864311
C7_7 C 0.6928(2) 0.7037(2) 0.9844(5)
C8_7 C 0.7766(2) 0.7183(2) 0.7510(5)
O4_7 O 0.81941(14) 0.74903(14) 0.7139(3)
N2_8 N 0.21368(17) 0.00939(24) 0.5126(4)
N5_6 N 0.1477(2) 0.01875(28) 0.6934(4)
H7_6 H 0.127152 0.017381 0.741512
H8_6 H 0.175485 0.046026 0.683317
C4_8 C 0.2246(2) 0.0101(3) 0.9043(5)
H2_8 H 0.201147 0.017801 0.878232
C5_8 C 0.2702(2) 0.0281(3) 0.8533(4)
C6_8 C 0.3065(2) 0.0194(3) 0.8958(5)
H3_6 H 0.337973 0.033979 0.864311
C8_8 C 0.2817(2) 0.0584(3) 0.7510(5)
O4_8 O 0.25097(14) 0.07039(20) 0.7139(3)
C1_8 C 0.2377(2) 0.9338(3) 0.1273(5)
C2_8 C 0.2498(2) 0.9690(3) 0.0351(4)
H1_8 H 0.183467 0.967312 0.029046
H4_8 H 0.320356 0.982234 0.010588
C9_8 C 0.2201(2) 0.9845(3) 0.4322(5)
H5_8 H 0.248686 0.998418 0.389570
C10_8 C 0.1672(2) 0.9756(3) 0.5533(5)
C11_8 C 0.1487(2) 0.9316(3) 0.4953(5)
C12_8 C 0.0789(2) 0.8959(3) 0.5947(5)
H6_8 H 0.048112 0.868246 0.611036
C13_8 C 0.1366(2) 0.9786(3) 0.6340(5)
Cu2_8 Cu 0.08117(3) 0.81780(4) 0.45588(7)
N1_8 N 0.18175(17) 0.93728(24) 0.4178(4)
N3_8 N 0.10378(17) 0.88945(25) 0.5156(4)
N4_8 N 0.09194(19) 0.93638(28) 0.6540(5)
O1_8 O 0.20623(14) 0.93231(20) 0.1959(3)
O2_8 O 0.26070(14) 0.90988(20) 0.1298(3)
O5_8 O 0.15027(14) 0.83447(20) 0.4289(3)
Cu4_8 Cu 0.14777(3) 0.77851(4) 0.34533(7)
N6_8 N 0.00939(24) 0.79570(29) 0.4874(4)
O6_8 O 0.07263(14) 0.75679(20) 0.5369(3)
O8_8 O 0.07039(20) 0.81941(24) 0.2861(3)
O9_8 O 0.18306(14) 0.83220(20) 0.2378(3)
C1_9 C 0.0662(3) 0.3040(2) 0.1273(5)
C2_9 C 0.0310(3) 0.2809(2) 0.0351(4)
H1_9 H 0.032688 0.216156 0.029046
H4_9 H 0.017766 0.338123 0.010588
C9_9 C 0.0155(3) 0.2357(2) 0.4322(5)
H5_9 H 0.001582 0.250269 0.389570
C10_9 C 0.0244(3) 0.1917(2) 0.5533(5)
C11_9 C 0.0684(3) 0.2172(2) 0.4953(5)
C12_9 C 0.1041(3) 0.1831(2) 0.5947(5)
H6_9 H 0.131754 0.179867 0.611036
C13_9 C 0.0214(3) 0.1581(2) 0.6340(5)
Cu2_9 Cu 0.18220(4) 0.26338(3) 0.45588(7)
N1_9 N 0.06272(24) 0.24448(17) 0.4178(4)
N3_9 N 0.11055(25) 0.21434(18) 0.5156(4)
N4_9 N 0.06362(28) 0.1556(2) 0.6540(5)
O1_9 O 0.06769(20) 0.27393(14) 0.1959(3)
O2_9 O 0.09012(20) 0.35083(14) 0.1298(3)
O5_9 O 0.16553(20) 0.31581(14) 0.4289(3)
Cu4_9 Cu 0.22149(4) 0.36926(3) 0.34533(7)
N6_9 N 0.20430(29) 0.21368(17) 0.4874(4)
O6_9 O 0.24321(20) 0.31584(14) 0.5369(3)
O8_9 O 0.18059(24) 0.25097(14) 0.2861(3)
O9_9 O 0.16780(20) 0.35086(14) 0.2378(3)
N2_9 N 0.99061(24) 0.20430(17) 0.5126(4)
N5_7 N 0.98125(28) 0.12899(19) 0.6934(4)
H7_7 H 0.982619 0.109772 0.741512
H8_7 H 0.953974 0.129460 0.683317
C4_9 C 0.9899(3) 0.2146(2) 0.9043(5)
H2_9 H 0.982199 0.183347 0.878232
C5_9 C 0.9719(3) 0.2422(2) 0.8533(4)
C6_9 C 0.9806(3) 0.2872(2) 0.8958(5)
H3_7 H 0.966021 0.303995 0.864311
C8_9 C 0.9416(3) 0.2234(2) 0.7510(5)
O4_9 O 0.92961(20) 0.18059(14) 0.7139(3)
C1_10 C 0.6373(2) 0.9044(2) 0.5394(5)
C2_10 C 0.6142(2) 0.9165(2) 0.6316(4)
C3_8 C 0.5675(2) 0.8809(2) 0.6717(5)
H1_10 H 0.549489 0.850134 0.637621
C4_10 C 0.5479(2) 0.8913(2) 0.7624(5)
H2_10 H 0.516680 0.867814 0.788435
C5_10 C 0.5755(2) 0.9369(2) 0.8134(4)
C6_10 C 0.6205(2) 0.9732(2) 0.7709(5)
C7_8 C 0.6405(2) 0.9630(2) 0.6823(5)
H4_10 H 0.671456 0.987023 0.656079
C8_10 C 0.5567(2) 0.9484(2) 0.9157(5)
C9_10 C 0.5690(2) 0.8868(2) 0.2345(5)
H5_10 H 0.583602 0.915353 0.277097
C10_10 C 0.5250(2) 0.8339(2) 0.1134(5)
C11_10 C 0.5505(2) 0.8154(2) 0.1714(5)
C12_10 C 0.5164(2) 0.7456(2) 0.0720(5)
H6_10 H 0.513200 0.714779 0.055631
C13_10 C 0.4914(2) 0.8033(2) 0.0327(5)
N1_10 N 0.57781(17) 0.84842(17) 0.2489(4)
N3_10 N 0.54767(18) 0.77045(17) 0.1511(4)
N4_10 N 0.4889(2) 0.75861(19) 0.0127(5)
O1_10 O 0.60726(14) 0.87290(14) 0.4708(3)
O3_7 O 0.58623(14) 0.98914(15) 0.9618(3)
O7_4 O 0.67753(15) 0.93042(21) 0.2951(3)
C1_11 C 0.0956(2) 0.7329(3) 0.5394(5)
C2_11 C 0.0835(2) 0.6977(3) 0.6316(4)
C3_9 C 0.1191(2) 0.6866(3) 0.6717(5)
H1_11 H 0.149866 0.699355 0.637621
C4_11 C 0.1087(2) 0.6566(3) 0.7624(5)
H2_11 H 0.132186 0.648866 0.788435
C5_11 C 0.0631(2) 0.6386(3) 0.8134(4)
C6_11 C 0.0268(2) 0.6473(3) 0.7709(5)
C7_9 C 0.0370(2) 0.6775(3) 0.6823(5)
H4_11 H 0.012977 0.684433 0.656079
C8_11 C 0.0516(2) 0.6083(3) 0.9157(5)
C9_11 C 0.1132(2) 0.6822(3) 0.2345(5)
H5_11 H 0.084647 0.668249 0.277097
C10_11 C 0.1661(2) 0.6911(3) 0.1134(5)
C11_11 C 0.1846(2) 0.7351(3) 0.1714(5)
C12_11 C 0.2544(2) 0.7708(3) 0.0720(5)
H6_11 H 0.285221 0.798421 0.055631
C13_11 C 0.1967(2) 0.6881(3) 0.0327(5)
N1_11 N 0.15158(17) 0.72939(24) 0.2489(4)
N3_11 N 0.22955(17) 0.77722(25) 0.1511(4)
N4_11 N 0.24139(19) 0.73029(28) 0.0127(5)
O1_11 O 0.12710(14) 0.73436(20) 0.4708(3)
O3_8 O 0.01086(15) 0.59709(21) 0.9618(3)
O7_5 O 0.06958(21) 0.74710(26) 0.2951(3)
C1_12 C 0.2671(3) 0.3627(2) 0.5394(5)
C2_12 C 0.3023(3) 0.3858(2) 0.6316(4)
C3_10 C 0.3134(3) 0.4325(2) 0.6717(5)
H1_12 H 0.300645 0.450511 0.637621
C4_12 C 0.3434(3) 0.4521(2) 0.7624(5)
H2_12 H 0.351134 0.483320 0.788435
C5_12 C 0.3614(3) 0.4245(2) 0.8134(4)
C6_12 C 0.3527(3) 0.3795(2) 0.7709(5)
H3_8 H 0.367312 0.362672 0.802356
C7_10 C 0.3225(3) 0.3595(2) 0.6823(5)
H4_12 H 0.315567 0.328544 0.656079
C8_12 C 0.3917(3) 0.4433(2) 0.9157(5)
C9_12 C 0.3178(3) 0.4310(2) 0.2345(5)
H5_12 H 0.331751 0.416398 0.277097
C10_12 C 0.3089(3) 0.4750(2) 0.1134(5)
C11_12 C 0.2649(3) 0.4495(2) 0.1714(5)
C12_12 C 0.2292(3) 0.4836(2) 0.0720(5)
H6_12 H 0.201579 0.486800 0.055631
C13_12 C 0.3119(3) 0.5086(2) 0.0327(5)
N1_12 N 0.27061(24) 0.42219(17) 0.2489(4)
N3_12 N 0.22278(25) 0.45233(18) 0.1511(4)
N4_12 N 0.26971(28) 0.5111(2) 0.0127(5)
O1_12 O 0.26564(20) 0.39274(14) 0.4708(3)
O3_9 O 0.40291(21) 0.41377(14) 0.9618(3)
O7_6 O 0.25290(26) 0.32247(15) 0.2951(3)
H4_13 H 0.004789 0.653690 0.322746
C1_13 C 0.9706(2) 0.5711(2) 0.2061(5)
C2_13 C 0.9475(2) 0.5832(2) 0.2983(4)
C3_11 C 0.9008(2) 0.5476(2) 0.3384(5)
H1_13 H 0.882822 0.516801 0.304288
C4_13 C 0.8812(2) 0.5580(2) 0.4291(5)
H2_13 H 0.850013 0.534481 0.455102
C5_13 C 0.9088(2) 0.6036(2) 0.4801(4)
C6_13 C 0.9538(2) 0.6399(2) 0.4376(5)
H3_9 H 0.970661 0.671307 0.469023
C7_11 C 0.9738(2) 0.6297(2) 0.3490(5)
C8_13 C 0.8900(2) 0.6151(2) 0.5824(5)
O1_13 O 0.94059(14) 0.53957(14) 0.1375(3)
O3_10 O 0.91956(14) 0.65581(15) 0.6285(3)
C9_13 C 0.9023(2) 0.5535(2) 0.9012(5)
H5_13 H 0.916935 0.582020 0.943764
C10_13 C 0.8583(2) 0.5006(2) 0.7801(5)
C11_13 C 0.8838(2) 0.4821(2) 0.8381(5)
C12_13 C 0.8497(2) 0.4123(2) 0.7387(5)
H6_13 H 0.846533 0.381446 0.722298
C13_13 C 0.8247(2) 0.4700(2) 0.6994(5)
N1_13 N 0.91114(17) 0.51509(17) 0.9156(4)
N3_13 N 0.88100(18) 0.43712(17) 0.8178(4)
N4_13 N 0.8222(2) 0.42528(19) 0.6794(5)
N5_8 N 0.79565(19) 0.4811(2) 0.6400(4)
H7_8 H 0.776438 0.460486 0.591822
H8_8 H 0.796126 0.508819 0.650017
C1_14 C 0.4289(2) 0.3996(3) 0.2061(5)
C2_14 C 0.4168(2) 0.3644(3) 0.2983(4)
C3_12 C 0.4524(2) 0.3533(3) 0.3384(5)
H1_14 H 0.483199 0.366022 0.304288
C4_14 C 0.4420(2) 0.3233(3) 0.4291(5)
H2_14 H 0.465519 0.315533 0.455102
C5_14 C 0.3964(2) 0.3053(3) 0.4801(4)
C6_14 C 0.3601(2) 0.3140(3) 0.4376(5)
H3_10 H 0.328693 0.299355 0.469023
C7_12 C 0.3703(2) 0.3442(3) 0.3490(5)
H4_14 H 0.346310 0.351100 0.322746
C8_14 C 0.3849(2) 0.2750(3) 0.5824(5)
O1_14 O 0.46043(14) 0.40103(20) 0.1375(3)
O3_11 O 0.34419(15) 0.26376(21) 0.6285(3)
C9_14 C 0.4465(2) 0.3489(3) 0.9012(5)
H5_14 H 0.417980 0.334916 0.943764
C10_14 C 0.4994(2) 0.3578(3) 0.7801(5)
C11_14 C 0.5179(2) 0.4018(3) 0.8381(5)
C12_14 C 0.5877(2) 0.4375(3) 0.7387(5)
H6_14 H 0.618554 0.465088 0.722298
C13_14 C 0.5300(2) 0.3548(3) 0.6994(5)
N1_14 N 0.48491(17) 0.39606(24) 0.9156(4)
N3_14 N 0.56288(17) 0.44389(25) 0.8178(4)
N4_14 N 0.57472(19) 0.39696(28) 0.6794(5)
N5_9 N 0.5189(2) 0.31459(28) 0.6400(4)
H7_9 H 0.539514 0.315953 0.591822
H8_9 H 0.491181 0.287308 0.650017
C1_15 C 0.6004(3) 0.0294(2) 0.2061(5)
C2_15 C 0.6356(3) 0.0525(2) 0.2983(4)
C3_13 C 0.6467(3) 0.0992(2) 0.3384(5)
H1_15 H 0.633978 0.117178 0.304288
C4_15 C 0.6767(3) 0.1188(2) 0.4291(5)
H2_15 H 0.684467 0.149987 0.455102
C5_15 C 0.6947(3) 0.0912(2) 0.4801(4)
C6_15 C 0.6860(3) 0.0462(2) 0.4376(5)
H3_11 H 0.700645 0.029339 0.469023
C7_13 C 0.6558(3) 0.0262(2) 0.3490(5)
C8_15 C 0.7250(3) 0.1100(2) 0.5824(5)
O1_15 O 0.59897(20) 0.05941(14) 0.1375(3)
O3_12 O 0.73624(21) 0.08044(14) 0.6285(3)
C9_15 C 0.6511(3) 0.0977(2) 0.9012(5)
H5_15 H 0.665084 0.083065 0.943764
C10_15 C 0.6422(3) 0.1417(2) 0.7801(5)
C11_15 C 0.5982(3) 0.1162(2) 0.8381(5)
C12_15 C 0.5625(3) 0.1503(2) 0.7387(5)
H6_15 H 0.534912 0.153467 0.722298
C13_15 C 0.6452(3) 0.1753(2) 0.6994(5)
N1_15 N 0.60394(24) 0.08886(17) 0.9156(4)
N3_15 N 0.55611(25) 0.11900(18) 0.8178(4)
N4_15 N 0.60304(28) 0.1778(2) 0.6794(5)
N5_10 N 0.68541(28) 0.20435(19) 0.6400(4)
H7_10 H 0.684047 0.223562 0.591822
H8_10 H 0.712692 0.203874 0.650017
H4_15 H 0.648900 0.995211 0.322746
C3_14 C 0.2342(2) 0.2142(2) 0.0050(5)
C4_16 C 0.2146(2) 0.2246(2) 0.0957(5)
H2_16 H 0.183347 0.201147 0.121768
C5_16 C 0.2422(2) 0.2702(2) 0.1467(4)
C6_16 C 0.2872(2) 0.3065(2) 0.1042(5)
H3_12 H 0.303995 0.337973 0.135689
C7_14 C 0.3072(2) 0.2963(2) 0.0156(5)
C8_16 C 0.2234(2) 0.2817(2) 0.2490(5)
C1_16 C 0.3040(2) 0.2377(2) 0.8727(5)
C2_16 C 0.2809(2) 0.2498(2) 0.9649(4)
H1_16 H 0.216156 0.183467 0.970954
H4_16 H 0.338123 0.320356 0.989412
C9_16 C 0.2357(2) 0.2201(2) 0.5678(5)
H5_16 H 0.250269 0.248686 0.610430
C10_16 C 0.1917(2) 0.1672(2) 0.4467(5)
C11_16 C 0.2172(2) 0.1487(2) 0.5047(5)
C12_16 C 0.1831(2) 0.0789(2) 0.4053(5)
H6_16 H 0.179867 0.048112 0.388964
C13_16 C 0.1581(2) 0.1366(2) 0.3660(5)
N1_16 N 0.24448(17) 0.18175(17) 0.5822(4)
N3_16 N 0.21434(18) 0.10378(17) 0.4844(4)
N4_16 N 0.1556(2) 0.09194(19) 0.3460(5)
N5_11 N 0.12899(19) 0.1477(2) 0.3066(4)
H7_11 H 0.109772 0.127152 0.258488
H8_11 H 0.129460 0.175485 0.316683
O1_16 O 0.27393(14) 0.20623(14) 0.8041(3)
C1_17 C 0.7623(2) 0.0662(3) 0.8727(5)
C2_17 C 0.7502(2) 0.0310(3) 0.9649(4)
H1_17 H 0.816533 0.032688 0.970954
H4_17 H 0.679644 0.017766 0.989412
C9_17 C 0.7799(2) 0.0155(3) 0.5678(5)
H5_17 H 0.751314 0.001582 0.610430
C10_17 C 0.8328(2) 0.0244(3) 0.4467(5)
C11_17 C 0.8513(2) 0.0684(3) 0.5047(5)
C12_17 C 0.9211(2) 0.1041(3) 0.4053(5)
H6_17 H 0.951888 0.131754 0.388964
C13_17 C 0.8634(2) 0.0214(3) 0.3660(5)
N1_17 N 0.81825(17) 0.06272(24) 0.5822(4)
N3_17 N 0.89622(17) 0.11055(25) 0.4844(4)
N4_17 N 0.90806(19) 0.06362(28) 0.3460(5)
O1_17 O 0.79377(14) 0.06769(20) 0.8041(3)
C4_17 C 0.7754(2) 0.9899(3) 0.0957(5)
H2_17 H 0.798853 0.982199 0.121768
C5_17 C 0.7298(2) 0.9719(3) 0.1467(4)
C6_17 C 0.6935(2) 0.9806(3) 0.1042(5)
H3_13 H 0.662027 0.966021 0.135689
C8_17 C 0.7183(2) 0.9416(3) 0.2490(5)
N5_12 N 0.8523(2) 0.98125(28) 0.3066(4)
H7_12 H 0.872848 0.982619 0.258488
H8_12 H 0.824515 0.953974 0.316683
C4_18 C 0.0101(3) 0.7854(2) 0.0957(5)
H2_18 H 0.017801 0.816653 0.121768
C5_18 C 0.0281(3) 0.7578(2) 0.1467(4)
C6_18 C 0.0194(3) 0.7128(2) 0.1042(5)
H3_14 H 0.033979 0.696005 0.135689
C8_18 C 0.0584(3) 0.7766(2) 0.2490(5)
N5_13 N 0.01875(28) 0.87101(19) 0.3066(4)
H7_13 H 0.017381 0.890228 0.258488
H8_13 H 0.046026 0.870540 0.316683
C1_18 C 0.9338(3) 0.6960(2) 0.8727(5)
C2_18 C 0.9690(3) 0.7191(2) 0.9649(4)
H1_18 H 0.967312 0.783844 0.970954
H4_18 H 0.982234 0.661877 0.989412
C9_18 C 0.9845(3) 0.7643(2) 0.5678(5)
H5_18 H 0.998418 0.749731 0.610430
C10_18 C 0.9756(3) 0.8083(2) 0.4467(5)
C11_18 C 0.9316(3) 0.7828(2) 0.5047(5)
C12_18 C 0.8959(3) 0.8169(2) 0.4053(5)
H6_18 H 0.868246 0.820133 0.388964
C13_18 C 0.9786(3) 0.8419(2) 0.3660(5)
N1_18 N 0.93728(24) 0.75552(17) 0.5822(4)
N3_18 N 0.88945(25) 0.78566(18) 0.4844(4)
N4_18 N 0.93638(28) 0.8444(2) 0.3460(5)
O1_18 O 0.93231(20) 0.72607(14) 0.8041(3)
H3_15 H 0.362672 0.995360 0.197644
H3_16 H 0.004640 0.367312 0.197644
N5_14 N 0.8144(2) 0.35208(28) 0.0267(4)
H7_14 H 0.793819 0.350714 0.074845
H8_14 H 0.842152 0.379359 0.016650
N5_15 N 0.64792(28) 0.46232(19) 0.0267(4)
H7_15 H 0.649286 0.443105 0.074845
H8_15 H 0.620641 0.462793 0.016650
C3_15 C 0.2142(2) 0.9801(3) 0.9950(5)
C7_15 C 0.2963(2) 0.9892(3) 0.9844(5)
C3_16 C 0.0199(3) 0.2342(2) 0.9950(5)
C7_16 C 0.0108(3) 0.3072(2) 0.9844(5)
H3_17 H 0.637328 0.004640 0.802356
N5_16 N 0.46232(19) 0.8144(2) 0.9733(4)
H7_16 H 0.443105 0.793819 0.925155
H8_16 H 0.462793 0.842152 0.983350
N5_17 N 0.1856(2) 0.64792(28) 0.9733(4)
H7_17 H 0.206181 0.649286 0.925155
H8_17 H 0.157848 0.620641 0.983350
H3_18 H 0.995360 0.632688 0.802356
N5_18 N 0.35208(28) 0.53768(19) 0.9733(4)
H7_18 H 0.350714 0.556895 0.925155
H8_18 H 0.379359 0.537207 0.983350
C3_17 C 0.7858(2) 0.0199(3) 0.0050(5)
C7_17 C 0.7037(2) 0.0108(3) 0.0156(5)
C3_18 C 0.9801(3) 0.7658(2) 0.0050(5)
C7_18 C 0.9892(3) 0.6928(2) 0.0156(5)
loop_
_geom_bond_atom_site_label_1
_geom_bond_atom_site_label_2
_geom_bond_site_symmetry_1
_geom_bond_site_symmetry_2
H7 N5 1_555 1_555
H8 N5 1_555 1_555
C1 C2 1_555 1_555
C2 C3 1_555 1_555
C3 H1 1_555 1_555
C4 C3 1_555 1_555
H2 C4 1_555 1_555
C5 C4 1_555 1_555
C6 C5 1_555 1_555
C7 C2 1_555 1_555
H4 C7 1_555 1_555
C8 C5 1_555 1_555
C9 H5 1_555 1_555
C10 C11 1_555 1_555
C11 N1 1_555 1_555
C12 H6 1_555 1_555
C13 C10 1_555 1_555
Cu1 N1 1_555 1_555
Cu2 N3 1_555 1_555
N1 C9 1_555 1_555
N2 C9 1_555 1_555
N3 C11 1_555 1_555
N4 C12 1_555 1_555
O1 C1 1_555 1_555
O2 C1 1_555 1_555
O3 C8 1_555 1_555
O4 C8 1_555 1_555
O5 Cu1 1_555 1_555
Cu4 O5 1_555 1_555
Cu5 O2 1_555 1_555
Cu7 N2 1_555 1_555
N6 Cu2 1_555 1_555
O6 Cu2 1_555 1_555
O7 Cu1 1_555 1_555
O8 Cu2 1_555 1_555
O9 Cu1 1_555 1_555
C6 C7 1_555 1_555
C10 N2 1_555 1_555
C12 N3 1_555 1_555
C13 N4 1_555 1_555
Cu1 O1 1_555 1_555
Cu2 O5 1_555 1_555
Cu4 O9 1_555 1_555
Cu5 O9 1_555 1_555
C1_2 C2_2 1_555 1_555
C2_2 C3_2 1_555 1_555
C3_2 H1_2 1_555 1_555
C4_2 C3_2 1_555 1_555
H2_2 C4_2 1_555 1_555
C5_2 C4_2 1_555 1_555
C6_2 C5_2 1_555 1_555
C7_2 C2_2 1_555 1_555
H4_2 C7_2 1_555 1_555
C8_2 C5_2 1_555 1_555
C9_2 H5_2 1_555 1_555
C10_2 C11_2 1_555 1_555
C11_2 N1_2 1_555 1_555
C12_2 H6_2 1_555 1_555
C13_2 C10_2 1_555 1_555
Cu1_2 N1_2 1_555 1_555
Cu2_2 N3_2 1_555 1_555
N1_2 C9_2 1_555 1_555
N2_2 C9_2 1_555 1_555
N3_2 C11_2 1_555 1_555
N4_2 C12_2 1_555 1_555
O1_2 C1_2 1_555 1_555
O2_2 C1_2 1_555 1_555
O3_2 C8_2 1_555 1_555
O4_2 C8_2 1_555 1_555
O5_2 Cu1_2 1_555 1_555
Cu4_2 O5_2 1_555 1_555
Cu5_2 O2_2 1_555 1_555
Cu7_2 N2_2 1_555 1_555
N6_2 Cu2_2 1_555 1_555
O6_2 Cu2_2 1_555 1_555
O7_2 Cu1_2 1_555 1_555
O8_2 Cu2_2 1_555 1_555
O9_2 Cu1_2 1_555 1_555
C6_2 C7_2 1_555 1_555
C10_2 N2_2 1_555 1_555
C12_2 N3_2 1_555 1_555
C13_2 N4_2 1_555 1_555
Cu1_2 O1_2 1_555 1_555
Cu2_2 O5_2 1_555 1_555
Cu4_2 O9_2 1_555 1_555
Cu5_2 O9_2 1_555 1_555
C1_3 C2_3 1_555 1_555
C2_3 C3_3 1_555 1_555
C3_3 H1_3 1_555 1_555
C4_3 C3_3 1_555 1_555
H2_3 C4_3 1_555 1_555
C5_3 C4_3 1_555 1_555
C6_3 C5_3 1_555 1_555
H3 C6_3 1_555 1_555
C7_3 C2_3 1_555 1_555
H4_3 C7_3 1_555 1_555
C8_3 C5_3 1_555 1_555
C9_3 H5_3 1_555 1_555
C10_3 C11_3 1_555 1_555
C11_3 N1_3 1_555 1_555
C12_3 H6_3 1_555 1_555
C13_3 C10_3 1_555 1_555
Cu1_3 N1_3 1_555 1_555
Cu2_3 N3_3 1_555 1_555
N1_3 C9_3 1_555 1_555
N2_3 C9_3 1_555 1_555
N3_3 C11_3 1_555 1_555
N4_3 C12_3 1_555 1_555
O1_3 C1_3 1_555 1_555
O2_3 C1_3 1_555 1_555
O3_3 C8_3 1_555 1_555
O4_3 C8_3 1_555 1_555
O5_3 Cu1_3 1_555 1_555
Cu4_3 O5_3 1_555 1_555
Cu5_3 O2_3 1_555 1_555
Cu7_3 N2_3 1_555 1_555
N6_3 Cu2_3 1_555 1_555
O6_3 Cu2_3 1_555 1_555
O7_3 Cu1_3 1_555 1_555
O8_3 Cu2_3 1_555 1_555
O9_3 Cu1_3 1_555 1_555
C6_3 C7_3 1_555 1_555
C10_3 N2_3 1_555 1_555
C12_3 N3_3 1_555 1_555
C13_3 N4_3 1_555 1_555
Cu1_3 O1_3 1_555 1_555
Cu2_3 O5_3 1_555 1_555
Cu4_3 O9_3 1_555 1_555
Cu5_3 O9_3 1_555 1_555
C9_4 H5_4 1_555 1_555
C10_4 C11_4 1_555 1_555
C11_4 N1_4 1_555 1_555
C12_4 H6_4 1_555 1_555
C13_4 C10_4 1_555 1_555
Cu2_4 N3_4 1_555 1_555
N1_4 C9_4 1_555 1_555
N2_4 C9_4 1_555 1_555
N3_4 C11_4 1_555 1_555
N4_4 C12_4 1_555 1_555
N5_2 C13_4 1_555 1_555
H7_2 N5_2 1_555 1_555
H8_2 N5_2 1_555 1_555
Cu7_4 N2_4 1_555 1_555
N6_4 Cu2_4 1_555 1_555
O6_4 Cu2_4 1_555 1_555
C10_4 N2_4 1_555 1_555
C12_4 N3_4 1_555 1_555
C13_4 N4_4 1_555 1_555
Cu2_4 O5_4 1_555 1_555
C1_4 C2_4 1_555 1_555
C2_4 C3_4 1_555 1_555
C3_4 H1_4 1_555 1_555
C4_4 C3_4 1_555 1_555
H2_4 C4_4 1_555 1_555
C5_4 C4_4 1_555 1_555
C6_4 C5_4 1_555 1_555
H3_2 C6_4 1_555 1_555
C7_4 C2_4 1_555 1_555
C8_4 C5_4 1_555 1_555
O1_4 C1_4 1_555 1_555
O3_4 C8_4 1_555 1_555
O4_4 C8_4 1_555 1_555
Cu3_4 O3_4 1_555 1_555
Cu7_4 O4_4 1_555 1_555
C6_4 C7_4 1_555 1_555
Cu3_2 O1_4 1_555 1_555
Cu7_2 O2_4 1_555 1_555
Cu7_2 O9_4 1_555 1_555
C9_5 H5_5 1_555 1_555
C10_5 C11_5 1_555 1_555
C11_5 N1_5 1_555 1_555
C12_5 H6_5 1_555 1_555
C13_5 C10_5 1_555 1_555
Cu2_5 N3_5 1_555 1_555
N1_5 C9_5 1_555 1_555
N2_5 C9_5 1_555 1_555
N3_5 C11_5 1_555 1_555
N4_5 C12_5 1_555 1_555
N5_3 C13_5 1_555 1_555
H7_3 N5_3 1_555 1_555
H8_3 N5_3 1_555 1_555
Cu4_5 O5_5 1_555 1_555
Cu7_5 N2_5 1_555 1_555
N6_5 Cu2_5 1_555 1_555
O6_5 Cu2_5 1_555 1_555
C10_5 N2_5 1_555 1_555
C12_5 N3_5 1_555 1_555
C13_5 N4_5 1_555 1_555
Cu2_5 O5_5 1_555 1_555
C1_5 C2_5 1_555 1_555
C2_5 C3_5 1_555 1_555
C3_5 H1_5 1_555 1_555
C4_5 C3_5 1_555 1_555
H2_5 C4_5 1_555 1_555
C5_5 C4_5 1_555 1_555
C6_5 C5_5 1_555 1_555
H3_3 C6_5 1_555 1_555
C7_5 C2_5 1_555 1_555
H4_5 C7_5 1_555 1_555
C8_5 C5_5 1_555 1_555
O1_5 C1_5 1_555 1_555
O2_5 C1_5 1_555 1_555
O3_5 C8_5 1_555 1_555
O4_5 C8_5 1_555 1_555
Cu3_5 O3_5 1_555 1_555
Cu7_3 O2_5 1_555 1_555
Cu7_5 O4_5 1_555 1_555
O9_5 Cu3_3 1_555 1_555
C6_5 C7_5 1_555 1_555
Cu3_3 O1_5 1_555 1_555
Cu7_3 O9_5 1_555 1_555
Cu7 O2_6 1_555 1_555
Cu7 O9_6 1_555 1_555
C9_6 H5_6 1_555 1_555
C10_6 C11_6 1_555 1_555
C11_6 N1_6 1_555 1_555
C12_6 H6_6 1_555 1_555
C13_6 C10_6 1_555 1_555
Cu2_6 N3_6 1_555 1_555
N1_6 C9_6 1_555 1_555
N2_6 C9_6 1_555 1_555
N3_6 C11_6 1_555 1_555
N4_6 C12_6 1_555 1_555
N5_4 C13_6 1_555 1_555
H7_4 N5_4 1_555 1_555
H8_4 N5_4 1_555 1_555
Cu7_6 N2_6 1_555 1_555
N6_6 Cu2_6 1_555 1_555
O6_6 Cu2_6 1_555 1_555
C10_6 N2_6 1_555 1_555
C12_6 N3_6 1_555 1_555
C13_6 N4_6 1_555 1_555
Cu2_6 O5_6 1_555 1_555
C1_6 C2_6 1_555 1_555
C2_6 C3_6 1_555 1_555
C3_6 H1_6 1_555 1_555
C4_6 C3_6 1_555 1_555
H2_6 C4_6 1_555 1_555
C5_6 C4_6 1_555 1_555
C6_6 C5_6 1_555 1_555
H3_4 C6_6 1_555 1_555
C7_6 C2_6 1_555 1_555
C8_6 C5_6 1_555 1_555
O1_6 C1_6 1_555 1_555
O3_6 C8_6 1_555 1_555
O4_6 C8_6 1_555 1_555
Cu3_6 O3_6 1_555 1_555
Cu7_6 O4_6 1_555 1_555
C6_6 C7_6 1_555 1_555
Cu3 O1_6 1_555 1_555
C1_7 C2_7 1_555 1_555
C9_7 H5_7 1_555 1_555
C10_7 C11_7 1_555 1_555
C11_7 N1_7 1_555 1_555
C12_7 H6_7 1_555 1_555
C13_7 C10_7 1_555 1_555
Cu3_5 N1_7 1_555 1_555
Cu2_7 N3_7 1_555 1_555
N1_7 C9_7 1_555 1_555
N2_7 C9_7 1_555 1_555
N3_7 C11_7 1_555 1_555
N4_7 C12_7 1_555 1_555
N5_5 C13_7 1_555 1_555
H7_5 N5_5 1_555 1_555
H8_5 N5_5 1_555 1_555
O1_7 C1_7 1_555 1_555
O2_7 C1_7 1_555 1_555
O5_7 Cu3_5 1_555 1_555
Cu4_7 O5_7 1_555 1_555
Cu7_5 O2_7 1_555 1_555
Cu5_3 N2_7 1_555 1_555
N6_7 Cu2_7 1_555 1_555
O6_7 Cu2_7 1_555 1_555
O8_7 Cu2_7 1_555 1_555
O9_7 Cu3_5 1_555 1_555
C10_7 N2_7 1_555 1_555
C12_7 N3_7 1_555 1_555
C13_7 N4_7 1_555 1_555
Cu3_5 O1_7 1_555 1_555
Cu2_7 O5_7 1_555 1_555
Cu4_7 O9_7 1_555 1_555
Cu7_5 O9_7 1_555 1_555
C4_7 C3_7 1_555 1_555
H2_7 C4_7 1_555 1_555
C5_7 C4_7 1_555 1_555
C6_7 C5_7 1_555 1_555
H3_5 C6_7 1_555 1_555
C8_7 C5_7 1_555 1_555
O7_3 C8_7 1_555 1_555
O4_7 C8_7 1_555 1_555
Cu5_3 O4_7 1_555 1_555
C6_7 C7_7 1_555 1_555
H7_6 N5_6 1_555 1_555
H8_6 N5_6 1_555 1_555
Cu5 N2_8 1_555 1_555
H2_8 C4_8 1_555 1_555
C5_8 C4_8 1_555 1_555
C6_8 C5_8 1_555 1_555
H3_6 C6_8 1_555 1_555
C8_8 C5_8 1_555 1_555
O7 C8_8 1_555 1_555
O4_8 C8_8 1_555 1_555
Cu5 O4_8 1_555 1_555
C1_8 C2_8 1_555 1_555
C9_8 H5_8 1_555 1_555
C10_8 C11_8 1_555 1_555
C11_8 N1_8 1_555 1_555
C12_8 H6_8 1_555 1_555
C13_8 C10_8 1_555 1_555
Cu3_6 N1_8 1_555 1_555
Cu2_8 N3_8 1_555 1_555
N1_8 C9_8 1_555 1_555
N3_8 C11_8 1_555 1_555
N4_8 C12_8 1_555 1_555
O1_8 C1_8 1_555 1_555
O2_8 C1_8 1_555 1_555
O5_8 Cu3_6 1_555 1_555
Cu4_8 O5_8 1_555 1_555
Cu7_6 O2_8 1_555 1_555
N6_8 Cu2_8 1_555 1_555
O6_8 Cu2_8 1_555 1_555
O8_8 Cu2_8 1_555 1_555
O9_8 Cu3_6 1_555 1_555
C12_8 N3_8 1_555 1_555
C13_8 N4_8 1_555 1_555
Cu3_6 O1_8 1_555 1_555
Cu2_8 O5_8 1_555 1_555
Cu4_8 O9_8 1_555 1_555
Cu7_6 O9_8 1_555 1_555
C1_9 C2_9 1_555 1_555
C9_9 H5_9 1_555 1_555
C10_9 C11_9 1_555 1_555
C11_9 N1_9 1_555 1_555
C12_9 H6_9 1_555 1_555
C13_9 C10_9 1_555 1_555
Cu3_4 N1_9 1_555 1_555
Cu2_9 N3_9 1_555 1_555
N1_9 C9_9 1_555 1_555
N3_9 C11_9 1_555 1_555
N4_9 C12_9 1_555 1_555
O1_9 C1_9 1_555 1_555
O2_9 C1_9 1_555 1_555
O5_9 Cu3_4 1_555 1_555
Cu4_9 O5_9 1_555 1_555
Cu7_4 O2_9 1_555 1_555
N6_9 Cu2_9 1_555 1_555
O6_9 Cu2_9 1_555 1_555
O8_9 Cu2_9 1_555 1_555
O9_9 Cu3_4 1_555 1_555
C12_9 N3_9 1_555 1_555
C13_9 N4_9 1_555 1_555
Cu3_4 O1_9 1_555 1_555
Cu2_9 O5_9 1_555 1_555
Cu4_9 O9_9 1_555 1_555
Cu7_4 O9_9 1_555 1_555
H7_7 N5_7 1_555 1_555
H8_7 N5_7 1_555 1_555
Cu5_2 N2_9 1_555 1_555
H2_9 C4_9 1_555 1_555
C5_9 C4_9 1_555 1_555
C6_9 C5_9 1_555 1_555
H3_7 C6_9 1_555 1_555
C8_9 C5_9 1_555 1_555
O7_2 C8_9 1_555 1_555
O4_9 C8_9 1_555 1_555
Cu5_2 O4_9 1_555 1_555
C1_10 C2_10 1_555 1_555
C2_10 C3_8 1_555 1_555
C3_8 H1_10 1_555 1_555
C4_10 C3_8 1_555 1_555
H2_10 C4_10 1_555 1_555
C5_10 C4_10 1_555 1_555
C6_10 C5_10 1_555 1_555
C7_8 C2_10 1_555 1_555
H4_10 C7_8 1_555 1_555
C8_10 C5_10 1_555 1_555
C9_10 H5_10 1_555 1_555
C10_10 C11_10 1_555 1_555
C11_10 N1_10 1_555 1_555
C12_10 H6_10 1_555 1_555
C13_10 C10_10 1_555 1_555
Cu4_7 N1_10 1_555 1_555
Cu7_5 N3_10 1_555 1_555
N1_10 C9_10 1_555 1_555
N6_6 C9_10 1_555 1_555
N3_10 C11_10 1_555 1_555
N4_10 C12_10 1_555 1_555
O1_10 C1_10 1_555 1_555
O6_7 C1_10 1_555 1_555
O3_7 C8_10 1_555 1_555
O8_6 C8_10 1_555 1_555
O7_4 Cu4_7 1_555 1_555
C6_10 C7_8 1_555 1_555
C10_10 N6_6 1_555 1_555
C12_10 N3_10 1_555 1_555
C13_10 N4_10 1_555 1_555
Cu4_7 O1_10 1_555 1_555
C1_11 C2_11 1_555 1_555
C2_11 C3_9 1_555 1_555
C3_9 H1_11 1_555 1_555
C4_11 C3_9 1_555 1_555
H2_11 C4_11 1_555 1_555
C5_11 C4_11 1_555 1_555
C6_11 C5_11 1_555 1_555
C7_9 C2_11 1_555 1_555
H4_11 C7_9 1_555 1_555
C8_11 C5_11 1_555 1_555
C9_11 H5_11 1_555 1_555
C10_11 C11_11 1_555 1_555
C11_11 N1_11 1_555 1_555
C12_11 H6_11 1_555 1_555
C13_11 C10_11 1_555 1_555
Cu4_8 N1_11 1_555 1_555
Cu7_6 N3_11 1_555 1_555
N1_11 C9_11 1_555 1_555
N6_4 C9_11 1_555 1_555
N3_11 C11_11 1_555 1_555
N4_11 C12_11 1_555 1_555
O1_11 C1_11 1_555 1_555
O6_8 C1_11 1_555 1_555
O3_8 C8_11 1_555 1_555
O8_4 C8_11 1_555 1_555
O7_5 Cu4_8 1_555 1_555
C6_11 C7_9 1_555 1_555
C10_11 N6_4 1_555 1_555
C12_11 N3_11 1_555 1_555
C13_11 N4_11 1_555 1_555
Cu4_8 O1_11 1_555 1_555
C1_12 C2_12 1_555 1_555
C2_12 C3_10 1_555 1_555
C3_10 H1_12 1_555 1_555
C4_12 C3_10 1_555 1_555
H2_12 C4_12 1_555 1_555
C5_12 C4_12 1_555 1_555
C6_12 C5_12 1_555 1_555
H3_8 C6_12 1_555 1_555
C7_10 C2_12 1_555 1_555
H4_12 C7_10 1_555 1_555
C8_12 C5_12 1_555 1_555
C9_12 H5_12 1_555 1_555
C10_12 C11_12 1_555 1_555
C11_12 N1_12 1_555 1_555
C12_12 H6_12 1_555 1_555
C13_12 C10_12 1_555 1_555
Cu4_9 N1_12 1_555 1_555
Cu7_4 N3_12 1_555 1_555
N1_12 C9_12 1_555 1_555
N6_5 C9_12 1_555 1_555
N3_12 C11_12 1_555 1_555
N4_12 C12_12 1_555 1_555
O1_12 C1_12 1_555 1_555
O6_9 C1_12 1_555 1_555
O3_9 C8_12 1_555 1_555
O8_5 C8_12 1_555 1_555
O7_6 Cu4_9 1_555 1_555
C6_12 C7_10 1_555 1_555
C10_12 N6_5 1_555 1_555
C12_12 N3_12 1_555 1_555
C13_12 N4_12 1_555 1_555
Cu4_9 O1_12 1_555 1_555
C1_13 C2_13 1_555 1_555
C2_13 C3_11 1_555 1_555
C3_11 H1_13 1_555 1_555
C4_13 C3_11 1_555 1_555
H2_13 C4_13 1_555 1_555
C5_13 C4_13 1_555 1_555
C6_13 C5_13 1_555 1_555
H3_9 C6_13 1_555 1_555
C7_11 C2_13 1_555 1_555
C8_13 C5_13 1_555 1_555
O1_13 C1_13 1_555 1_555
O3_10 C8_13 1_555 1_555
O8_3 C8_13 1_555 1_555
Cu4_3 O3_10 1_555 1_555
C6_13 C7_11 1_555 1_555
Cu4_4 O1_13 1_555 1_555
C9_13 H5_13 1_555 1_555
C10_13 C11_13 1_555 1_555
C11_13 N1_13 1_555 1_555
C12_13 H6_13 1_555 1_555
C13_13 C10_13 1_555 1_555
Cu7_2 N3_13 1_555 1_555
N1_13 C9_13 1_555 1_555
N6_3 C9_13 1_555 1_555
N3_13 C11_13 1_555 1_555
N4_13 C12_13 1_555 1_555
N5_8 C13_13 1_555 1_555
H7_8 N5_8 1_555 1_555
H8_8 N5_8 1_555 1_555
C10_13 N6_3 1_555 1_555
C12_13 N3_13 1_555 1_555
C13_13 N4_13 1_555 1_555
C1_14 C2_14 1_555 1_555
C2_14 C3_12 1_555 1_555
C3_12 H1_14 1_555 1_555
C4_14 C3_12 1_555 1_555
H2_14 C4_14 1_555 1_555
C5_14 C4_14 1_555 1_555
C6_14 C5_14 1_555 1_555
H3_10 C6_14 1_555 1_555
C7_12 C2_14 1_555 1_555
H4_14 C7_12 1_555 1_555
C8_14 C5_14 1_555 1_555
O1_14 C1_14 1_555 1_555
O6_5 C1_14 1_555 1_555
O3_11 C8_14 1_555 1_555
O8 C8_14 1_555 1_555
Cu4 O3_11 1_555 1_555
C6_14 C7_12 1_555 1_555
Cu4_5 O1_14 1_555 1_555
C9_14 H5_14 1_555 1_555
C10_14 C11_14 1_555 1_555
C11_14 N1_14 1_555 1_555
C12_14 H6_14 1_555 1_555
C13_14 C10_14 1_555 1_555
Cu7_3 N3_14 1_555 1_555
N1_14 C9_14 1_555 1_555
N6 C9_14 1_555 1_555
N3_14 C11_14 1_555 1_555
N4_14 C12_14 1_555 1_555
N5_9 C13_14 1_555 1_555
H7_9 N5_9 1_555 1_555
H8_9 N5_9 1_555 1_555
C10_14 N6 1_555 1_555
C12_14 N3_14 1_555 1_555
C13_14 N4_14 1_555 1_555
C1_15 C2_15 1_555 1_555
C2_15 C3_13 1_555 1_555
C3_13 H1_15 1_555 1_555
C4_15 C3_13 1_555 1_555
H2_15 C4_15 1_555 1_555
C5_15 C4_15 1_555 1_555
C6_15 C5_15 1_555 1_555
H3_11 C6_15 1_555 1_555
C7_13 C2_15 1_555 1_555
C8_15 C5_15 1_555 1_555
O1_15 C1_15 1_555 1_555
O3_12 C8_15 1_555 1_555
O8_2 C8_15 1_555 1_555
Cu4_2 O3_12 1_555 1_555
C6_15 C7_13 1_555 1_555
Cu4_6 O1_15 1_555 1_555
C9_15 H5_15 1_555 1_555
C10_15 C11_15 1_555 1_555
C11_15 N1_15 1_555 1_555
C12_15 H6_15 1_555 1_555
C13_15 C10_15 1_555 1_555
Cu7 N3_15 1_555 1_555
N1_15 C9_15 1_555 1_555
N6_2 C9_15 1_555 1_555
N3_15 C11_15 1_555 1_555
N4_15 C12_15 1_555 1_555
N5_10 C13_15 1_555 1_555
H7_10 N5_10 1_555 1_555
H8_10 N5_10 1_555 1_555
C10_15 N6_2 1_555 1_555
C12_15 N3_15 1_555 1_555
C13_15 N4_15 1_555 1_555
C4_16 C3_14 1_555 1_555
H2_16 C4_16 1_555 1_555
C5_16 C4_16 1_555 1_555
C6_16 C5_16 1_555 1_555
H3_12 C6_16 1_555 1_555
C8_16 C5_16 1_555 1_555
O7_6 C8_16 1_555 1_555
O8_9 C8_16 1_555 1_555
C6_16 C7_14 1_555 1_555
C1_16 C2_16 1_555 1_555
C9_16 H5_16 1_555 1_555
C10_16 C11_16 1_555 1_555
C11_16 N1_16 1_555 1_555
C12_16 H6_16 1_555 1_555
C13_16 C10_16 1_555 1_555
Cu4 N1_16 1_555 1_555
Cu5 N3_16 1_555 1_555
N1_16 C9_16 1_555 1_555
N6_9 C9_16 1_555 1_555
N3_16 C11_16 1_555 1_555
N4_16 C12_16 1_555 1_555
N5_11 C13_16 1_555 1_555
H7_11 N5_11 1_555 1_555
H8_11 N5_11 1_555 1_555
O1_16 C1_16 1_555 1_555
O6 C1_16 1_555 1_555
C10_16 N6_9 1_555 1_555
C12_16 N3_16 1_555 1_555
C13_16 N4_16 1_555 1_555
Cu4 O1_16 1_555 1_555
C1_17 C2_17 1_555 1_555
C9_17 H5_17 1_555 1_555
C10_17 C11_17 1_555 1_555
C11_17 N1_17 1_555 1_555
C12_17 H6_17 1_555 1_555
C13_17 C10_17 1_555 1_555
Cu4_2 N1_17 1_555 1_555
Cu5_2 N3_17 1_555 1_555
N1_17 C9_17 1_555 1_555
N3_17 C11_17 1_555 1_555
N4_17 C12_17 1_555 1_555
O1_17 C1_17 1_555 1_555
O6_2 C1_17 1_555 1_555
C12_17 N3_17 1_555 1_555
C13_17 N4_17 1_555 1_555
Cu4_2 O1_17 1_555 1_555
H2_17 C4_17 1_555 1_555
C5_17 C4_17 1_555 1_555
C6_17 C5_17 1_555 1_555
H3_13 C6_17 1_555 1_555
C8_17 C5_17 1_555 1_555
O7_4 C8_17 1_555 1_555
O8_7 C8_17 1_555 1_555
H7_12 N5_12 1_555 1_555
H8_12 N5_12 1_555 1_555
H2_18 C4_18 1_555 1_555
C5_18 C4_18 1_555 1_555
C6_18 C5_18 1_555 1_555
H3_14 C6_18 1_555 1_555
C8_18 C5_18 1_555 1_555
O7_5 C8_18 1_555 1_555
O8_8 C8_18 1_555 1_555
H7_13 N5_13 1_555 1_555
H8_13 N5_13 1_555 1_555
C1_18 C2_18 1_555 1_555
C9_18 H5_18 1_555 1_555
C10_18 C11_18 1_555 1_555
C11_18 N1_18 1_555 1_555
C12_18 H6_18 1_555 1_555
C13_18 C10_18 1_555 1_555
Cu4_3 N1_18 1_555 1_555
Cu5_3 N3_18 1_555 1_555
N1_18 C9_18 1_555 1_555
N3_18 C11_18 1_555 1_555
N4_18 C12_18 1_555 1_555
O1_18 C1_18 1_555 1_555
O6_3 C1_18 1_555 1_555
C12_18 N3_18 1_555 1_555
C13_18 N4_18 1_555 1_555
Cu4_3 O1_18 1_555 1_555
H7_14 N5_14 1_555 1_555
H8_14 N5_14 1_555 1_555
H7_15 N5_15 1_555 1_555
H8_15 N5_15 1_555 1_555
H7_16 N5_16 1_555 1_555
H8_16 N5_16 1_555 1_555
H7_17 N5_17 1_555 1_555
H8_17 N5_17 1_555 1_555
H7_18 N5_18 1_555 1_555
H8_18 N5_18 1_555 1_555

#END
