
###############################################################################
#
# This file contains modified crystal structure data generated from the
# MOF subset of the Cambridge Structural Database (CSD) v543 
# hosted by the Cambridge Crystallographic Data Centre (CCDC).
#
# This work is licensed under the Creative Commons
# Attribution-NonCommercial-ShareAlike 4.0 International License.
# To view a copy of this license, visit
# http://creativecommons.org/licenses/by-nc-sa/4.0/
# or send a letter to
# Creative Commons, PO Box 1866, Mountain View, CA 94042, USA.
#
# CIF created using the CSD Python API on 29 September 2022
# The structure has been converted into the P1 space group
# The structure has a 3D framework
# The original CSD entry NOYWEG is in the orthorhombic crystal system
# The framework has been calculated to contain at least 10.0% void space
# The void calculation uses a probe of radius 1.32A, grid spacing 0.4
# The framework is charged, counterions have been retained in the structure
#
###############################################################################

data_NOYWEG
_chemical_formula_moiety         '(C352 H192 In8 N16 O60 8-)n'
_symmetry_cell_setting           triclinic
_symmetry_space_group_name_H-M   'P 1'
_symmetry_Int_Tables_number      1
_space_group_name_Hall           'P 1'
loop_
_symmetry_equiv_pos_site_id
_symmetry_equiv_pos_as_xyz
1 x,y,z
_cell_length_a                   29.078(6)
_cell_length_b                   22.581(5)
_cell_length_c                   30.471(6)
_cell_angle_alpha                90
_cell_angle_beta                 90
_cell_angle_gamma                90
_cell_volume                     20007.6
loop_
_atom_site_label
_atom_site_type_symbol
_atom_site_fract_x
_atom_site_fract_y
_atom_site_fract_z
In1 In 0.61068(2) 0.86994(2) 0.02923(2)
O2 O 0.54551(14) 0.81988(16) 0.01623(14)
O9 O 0.68502(16) 0.8587(2) 0.02479(18)
O11 O 0.61653(15) 0.8062(2) 0.08995(15)
O12 O 0.58505(17) 0.89227(18) 0.09554(13)
O13 O 0.56929(14) 0.95064(16) 0.01169(13)
O14 O 0.66585(17) 0.9450(2) 0.04723(18)
O1 O 0.61005(13) 0.78032(15) 0.99350(15)
O3 O 0.18502(16) 0.6413(2) 0.97521(18)
O5 O 0.61653(15) 0.1938(2) 0.58995(15)
O6 O 0.58505(17) 0.10773(18) 0.59554(13)
C1 C 0.3248(2) 0.6022(4) 0.9628(3)
H1 H 0.3467 0.6311 0.9688
C2 C 0.4717(2) 0.4159(2) 0.9058(2)
C3 C 0.4912(2) 0.6246(3) 0.9618(2)
C4 C 0.5418(2) 0.0430(2) 0.9566(2)
H2 H 0.5264 0.0384 0.9831
C5 C 0.38882(19) 0.5331(3) 0.9434(2)
N1 N 0.55816(17) 0.14612(18) 0.82067(16)
C6 C 0.5741(2) 0.0007(2) 0.94399(18)
C7 C 0.5534(2) 0.0983(2) 0.8902(2)
C8 C 0.4519(2) 0.4719(2) 0.9232(2)
N2 N 0.41694(17) 0.5793(2) 0.95316(19)
C9 C 0.4061(2) 0.4796(2) 0.9282(2)
H3 H 0.3860 0.4488 0.9214
C10 C 0.4813(2) 0.5190(2) 0.9341(2)
H4 H 0.5129 0.5150 0.9311
C11 C 0.5549(2) 0.1937(2) 0.79467(19)
C12 C 0.5405(2) 0.7246(2) 0.9838(2)
C13 C 0.5657(2) 0.1856(2) 0.74821(19)
C14 C 0.3039(2) 0.5080(3) 0.9379(3)
H5 H 0.3118 0.4708 0.9272
C15 C 0.5668(2) 0.7777(2) 0.9984(2)
C16 C 0.4686(2) 0.6745(3) 0.9764(3)
H6 H 0.4367 0.6751 0.9783
C17 C 0.5087(2) 0.4151(2) 0.8766(3)
H7 H 0.5227 0.4505 0.8686
C18 C 0.4937(2) 0.7232(3) 0.9881(3)
H8 H 0.4786 0.7562 0.9992
C19 C 0.5244(2) 0.2529(2) 0.8533(2)
C20 C 0.2789(3) 0.6151(4) 0.9685(3)
H9 H 0.2707 0.6519 0.9798
C21 C 0.5624(2) 0.6751(3) 0.9684(2)
H10 H 0.5941 0.6751 0.9649
C22 C 0.5977(2) 0.1559(3) 0.6125(2)
C23 C 0.5583(3) 0.1307(2) 0.7288(2)
H11 H 0.5465 0.0999 0.7457
C24 C 0.5949(2) 0.2216(3) 0.6790(2)
H12 H 0.6067 0.2525 0.6623
C25 C 0.5464(2) 0.1505(2) 0.86262(19)
C26 C 0.5280(2) 0.2038(2) 0.8800(2)
H13 H 0.5185 0.2057 0.9091
C27 C 0.5054(2) 0.3090(2) 0.87162(19)
C28 C 0.5679(3) 0.1209(2) 0.6857(2)
H14 H 0.5615 0.0842 0.6732
C29 C 0.4689(2) 0.3089(2) 0.9006(2)
H15 H 0.4560 0.2730 0.9092
O8 O 0.16585(17) 0.5550(2) 0.95277(18)
C30 C 0.5375(2) 0.2480(2) 0.8103(2)
H16 H 0.5350 0.2802 0.7915
C31 C 0.5248(2) 0.3626(2) 0.8594(2)
H17 H 0.5489 0.3632 0.8393
C32 C 0.4626(2) 0.5714(2) 0.9492(2)
C33 C 0.2452(2) 0.5760(3) 0.9581(2)
C34 C 0.5324(2) 0.0910(2) 0.9311(2)
H18 H 0.5116 0.1193 0.9410
C35 C 0.5372(2) 0.6253(3) 0.9582(3)
H19 H 0.5524 0.5914 0.9486
C36 C 0.5876(2) 0.1661(2) 0.6599(2)
C37 C 0.4509(2) 0.3618(2) 0.9173(2)
H20 H 0.4255 0.3612 0.9359
C38 C 0.5842(3) 0.0546(3) 0.8768(2)
H21 H 0.5986 0.0579 0.8496
C39 C 0.5846(2) 0.2305(2) 0.7229(2)
H22 H 0.5905 0.2671 0.7357
C40 C 0.3389(2) 0.5467(3) 0.9483(3)
C41 C 0.2582(2) 0.5209(4) 0.9424(4)
H23 H 0.2361 0.4930 0.9349
C42 C 0.5937(3) 0.0071(3) 0.9031(2)
C43 C 0.1965(3) 0.5901(3) 0.9617(2)
In3 In 0.11068(2) 0.63006(2) 0.97077(2)
In4 In 0.61068(2) 0.13006(2) 0.52923(2)
O10 O 0.61302(13) 0.91153(18) 0.96089(14)
H24 H 0.6140 0.9783 0.8931
C44 C 0.5855(2) 0.9525(2) 0.9735(2)
O4 O 0.11302(13) 0.58847(18) 0.03911(14)
O5_2 O 0.11653(15) 0.3062(2) 0.41005(15)
O6_2 O 0.08505(17) 0.39227(18) 0.40446(13)
C4_2 C 0.0418(2) 0.4570(2) 0.0434(2)
H2_2 H 0.0264 0.4616 0.0169
N1_2 N 0.05816(17) 0.35388(18) 0.17933(16)
C6_2 C 0.0741(2) 0.4993(2) 0.05601(18)
C7_2 C 0.0534(2) 0.4017(2) 0.1098(2)
C11_2 C 0.0549(2) 0.3063(2) 0.20533(19)
C13_2 C 0.0657(2) 0.3144(2) 0.25179(19)
C17_2 C 0.0087(2) 0.0849(2) 0.1234(3)
H7_2 H 0.0227 0.0495 0.1314
C19_2 C 0.0244(2) 0.2471(2) 0.1467(2)
C22_2 C 0.0977(2) 0.3441(3) 0.3875(2)
C23_2 C 0.0583(3) 0.3693(2) 0.2712(2)
H11_2 H 0.0465 0.4001 0.2543
C24_2 C 0.0949(2) 0.2784(3) 0.3210(2)
H12_2 H 0.1067 0.2475 0.3377
C25_2 C 0.0464(2) 0.3495(2) 0.13738(19)
C26_2 C 0.0280(2) 0.2962(2) 0.1200(2)
H13_2 H 0.0185 0.2943 0.0909
C27_2 C 0.0054(2) 0.1910(2) 0.12838(19)
C28_2 C 0.0679(3) 0.3791(2) 0.3143(2)
H14_2 H 0.0615 0.4158 0.3268
C30_2 C 0.0375(2) 0.2520(2) 0.1897(2)
H16_2 H 0.0350 0.2198 0.2085
C31_2 C 0.0248(2) 0.1374(2) 0.1406(2)
H17_2 H 0.0489 0.1368 0.1607
C34_2 C 0.0324(2) 0.4090(2) 0.0689(2)
H18_2 H 0.0116 0.3807 0.0590
C36_2 C 0.0876(2) 0.3339(2) 0.3401(2)
C38_2 C 0.0842(3) 0.4454(3) 0.1232(2)
H21_2 H 0.0986 0.4421 0.1504
C39_2 C 0.0846(2) 0.2695(2) 0.2771(2)
H22_2 H 0.0905 0.2329 0.2643
C42_2 C 0.0937(3) 0.4929(3) 0.0969(2)
H24_2 H 0.1140 0.5217 0.1069
C44_2 C 0.0855(2) 0.5475(2) 0.0265(2)
In4_2 In 0.11068(2) 0.36994(2) 0.47077(2)
O7 O 0.06929(14) 0.54936(16) 0.98831(13)
O1_2 O 0.11005(13) 0.71968(15) 0.00650(15)
H4_2 H 0.0129 0.9850 0.0689
C12_2 C 0.0405(2) 0.7754(2) 0.0162(2)
C15_2 C 0.0668(2) 0.7223(2) 0.0016(2)
C21_2 C 0.0624(2) 0.8249(3) 0.0316(2)
H10_2 H 0.0941 0.8249 0.0351
C35_2 C 0.0372(2) 0.8747(3) 0.0418(3)
H19_2 H 0.0524 0.9086 0.0514
O2_2 O 0.04551(14) 0.68012(16) 0.98377(14)
O11_2 O 0.11653(15) 0.6938(2) 0.91005(15)
O12_2 O 0.08505(17) 0.60773(18) 0.90446(13)
C1_2 C 0.8248(2) 0.8978(4) 0.0372(3)
H1_2 H 0.8467 0.8689 0.0312
C3_2 C 0.9912(2) 0.8754(3) 0.0382(2)
C5_2 C 0.88882(19) 0.9669(3) 0.0566(2)
N2_2 N 0.91694(17) 0.9207(2) 0.04684(19)
C10_2 C 0.9813(2) 0.9810(2) 0.0659(2)
C14_2 C 0.8039(2) 0.9920(3) 0.0621(3)
C16_2 C 0.9686(2) 0.8255(3) 0.0236(3)
H6_2 H 0.9367 0.8249 0.0217
C18_2 C 0.9937(2) 0.7768(3) 0.0119(3)
H8_2 H 0.9786 0.7438 0.0008
C20_2 C 0.7789(3) 0.8849(4) 0.0315(3)
H9_2 H 0.7707 0.8481 0.0202
C32_2 C 0.9626(2) 0.9286(2) 0.0508(2)
C33_2 C 0.7452(2) 0.9240(3) 0.0419(2)
C40_2 C 0.8389(2) 0.9533(3) 0.0517(3)
C41_2 C 0.7582(2) 0.9791(4) 0.0576(4)
C43_2 C 0.6965(3) 0.9099(3) 0.0383(2)
O1_3 O 0.11005(13) 0.28032(15) 0.50650(15)
O2_3 O 0.04551(14) 0.31988(16) 0.48377(14)
H4_3 H 0.0129 0.0150 0.5689
C12_3 C 0.0405(2) 0.2246(2) 0.5162(2)
C15_3 C 0.0668(2) 0.2777(2) 0.5016(2)
C21_3 C 0.0624(2) 0.1751(3) 0.5316(2)
H10_3 H 0.0941 0.1751 0.5351
C35_3 C 0.0372(2) 0.1253(3) 0.5418(3)
H19_3 H 0.0524 0.0914 0.5514
O9_2 O 0.18502(16) 0.3587(2) 0.47521(18)
O10_2 O 0.11302(13) 0.41153(18) 0.53911(14)
O13_2 O 0.06929(14) 0.45064(16) 0.48831(13)
O14_2 O 0.16585(17) 0.4450(2) 0.45277(18)
C4_3 C 0.0418(2) 0.5430(2) 0.5434(2)
H2_3 H 0.0264 0.5384 0.5169
N1_3 N 0.05816(17) 0.64612(18) 0.67933(16)
C6_3 C 0.0741(2) 0.5007(2) 0.55601(18)
C7_3 C 0.0534(2) 0.5983(2) 0.6098(2)
C11_3 C 0.0549(2) 0.6937(2) 0.70533(19)
C13_3 C 0.0657(2) 0.6856(2) 0.75179(19)
C17_3 C 0.0087(2) 0.9151(2) 0.6234(3)
H7_3 H 0.0227 0.9505 0.6314
C19_3 C 0.0244(2) 0.7529(2) 0.6467(2)
C22_3 C 0.0977(2) 0.6559(3) 0.8875(2)
C23_3 C 0.0583(3) 0.6307(2) 0.7712(2)
H11_3 H 0.0465 0.5999 0.7543
C24_3 C 0.0949(2) 0.7216(3) 0.8210(2)
H12_3 H 0.1067 0.7525 0.8377
C25_3 C 0.0464(2) 0.6505(2) 0.63738(19)
C26_3 C 0.0280(2) 0.7038(2) 0.6200(2)
H13_3 H 0.0185 0.7057 0.5909
C27_3 C 0.0054(2) 0.8090(2) 0.62838(19)
C28_3 C 0.0679(3) 0.6209(2) 0.8143(2)
H14_3 H 0.0615 0.5842 0.8268
C30_3 C 0.0375(2) 0.7480(2) 0.6897(2)
H16_3 H 0.0350 0.7802 0.7085
C31_3 C 0.0248(2) 0.8626(2) 0.6406(2)
H17_3 H 0.0489 0.8632 0.6607
C34_3 C 0.0324(2) 0.5910(2) 0.5689(2)
H18_3 H 0.0116 0.6193 0.5590
C36_3 C 0.0876(2) 0.6661(2) 0.8401(2)
C38_3 C 0.0842(3) 0.5546(3) 0.6232(2)
H21_3 H 0.0986 0.5579 0.6504
C39_3 C 0.0846(2) 0.7305(2) 0.7771(2)
H22_3 H 0.0905 0.7671 0.7643
C42_3 C 0.0937(3) 0.5071(3) 0.5969(2)
H24_3 H 0.1140 0.4783 0.6069
C44_3 C 0.0855(2) 0.4525(2) 0.5265(2)
O3_2 O 0.68502(16) 0.1413(2) 0.52479(18)
C1_3 C 0.8248(2) 0.1022(4) 0.5372(3)
H1_3 H 0.8467 0.1311 0.5312
C3_3 C 0.9912(2) 0.1246(3) 0.5382(2)
C5_3 C 0.88882(19) 0.0331(3) 0.5566(2)
N2_3 N 0.91694(17) 0.0793(2) 0.54684(19)
C10_3 C 0.9813(2) 0.0190(2) 0.5659(2)
C14_3 C 0.8039(2) 0.0080(3) 0.5621(3)
C16_3 C 0.9686(2) 0.1745(3) 0.5236(3)
H6_3 H 0.9367 0.1751 0.5217
C18_3 C 0.9937(2) 0.2232(3) 0.5119(3)
H8_3 H 0.9786 0.2562 0.5008
C20_3 C 0.7789(3) 0.1151(4) 0.5315(3)
H9_3 H 0.7707 0.1519 0.5202
O8_2 O 0.66585(17) 0.0550(2) 0.54723(18)
C32_3 C 0.9626(2) 0.0714(2) 0.5508(2)
C33_3 C 0.7452(2) 0.0760(3) 0.5419(2)
C40_3 C 0.8389(2) 0.0467(3) 0.5517(3)
C41_3 C 0.7582(2) 0.0209(4) 0.5576(4)
C43_3 C 0.6965(3) 0.0901(3) 0.5383(2)
O4_2 O 0.61302(13) 0.08847(18) 0.46089(14)
O7_2 O 0.56929(14) 0.04936(16) 0.51169(13)
H24_4 H 0.6140 0.0217 0.3931
C44_4 C 0.5855(2) 0.0475(2) 0.4735(2)
O1_4 O 0.61005(13) 0.21968(15) 0.49350(15)
O2_4 O 0.54551(14) 0.18012(16) 0.51623(14)
C1_4 C 0.3248(2) 0.3978(4) 0.4628(3)
H1_4 H 0.3467 0.3689 0.4688
C2_2 C 0.4717(2) 0.5841(2) 0.4058(2)
C3_4 C 0.4912(2) 0.3754(3) 0.4618(2)
C4_4 C 0.5418(2) 0.9570(2) 0.4566(2)
H2_4 H 0.5264 0.9616 0.4831
C5_4 C 0.38882(19) 0.4669(3) 0.4434(2)
N1_4 N 0.55816(17) 0.85388(18) 0.32067(16)
C6_4 C 0.5741(2) 0.9993(2) 0.44399(18)
C7_4 C 0.5534(2) 0.9017(2) 0.3902(2)
C8_2 C 0.4519(2) 0.5281(2) 0.4232(2)
N2_4 N 0.41694(17) 0.4207(2) 0.45316(19)
C9_2 C 0.4061(2) 0.5204(2) 0.4282(2)
H3_2 H 0.3860 0.5512 0.4214
C10_4 C 0.4813(2) 0.4810(2) 0.4341(2)
H4_4 H 0.5129 0.4850 0.4311
C11_4 C 0.5549(2) 0.8063(2) 0.29467(19)
C12_4 C 0.5405(2) 0.2754(2) 0.4838(2)
C13_4 C 0.5657(2) 0.8144(2) 0.24821(19)
C14_4 C 0.3039(2) 0.4920(3) 0.4379(3)
H5_2 H 0.3118 0.5292 0.4272
C15_4 C 0.5668(2) 0.2223(2) 0.4984(2)
C16_4 C 0.4686(2) 0.3255(3) 0.4764(3)
H6_4 H 0.4367 0.3249 0.4783
C17_4 C 0.5087(2) 0.5849(2) 0.3766(3)
H7_4 H 0.5227 0.5495 0.3686
C18_4 C 0.4937(2) 0.2768(3) 0.4881(3)
H8_4 H 0.4786 0.2438 0.4992
C19_4 C 0.5244(2) 0.7471(2) 0.3533(2)
C20_4 C 0.2789(3) 0.3849(4) 0.4685(3)
H9_4 H 0.2707 0.3481 0.4798
C21_4 C 0.5624(2) 0.3249(3) 0.4684(2)
H10_4 H 0.5941 0.3249 0.4649
C22_4 C 0.5977(2) 0.8441(3) 0.1125(2)
C23_4 C 0.5583(3) 0.8693(2) 0.2288(2)
H11_4 H 0.5465 0.9001 0.2457
C24_4 C 0.5949(2) 0.7784(3) 0.1790(2)
H12_4 H 0.6067 0.7475 0.1623
C25_4 C 0.5464(2) 0.8495(2) 0.36262(19)
C26_4 C 0.5280(2) 0.7962(2) 0.3800(2)
H13_4 H 0.5185 0.7943 0.4091
C27_4 C 0.5054(2) 0.6910(2) 0.37162(19)
C28_4 C 0.5679(3) 0.8791(2) 0.1857(2)
H14_4 H 0.5615 0.9158 0.1732
C29_2 C 0.4689(2) 0.6911(2) 0.4006(2)
H15_2 H 0.4560 0.7270 0.4092
C30_4 C 0.5375(2) 0.7520(2) 0.3103(2)
H16_4 H 0.5350 0.7198 0.2915
C31_4 C 0.5248(2) 0.6374(2) 0.3594(2)
H17_4 H 0.5489 0.6368 0.3393
C32_4 C 0.4626(2) 0.4286(2) 0.4492(2)
C33_4 C 0.2452(2) 0.4240(3) 0.4581(2)
C34_4 C 0.5324(2) 0.9090(2) 0.4311(2)
H18_4 H 0.5116 0.8807 0.4410
C35_4 C 0.5372(2) 0.3747(3) 0.4582(3)
H19_4 H 0.5524 0.4086 0.4486
C36_4 C 0.5876(2) 0.8339(2) 0.1599(2)
C37_2 C 0.4509(2) 0.6382(2) 0.4173(2)
H20_2 H 0.4255 0.6388 0.4359
C38_4 C 0.5842(3) 0.9454(3) 0.3768(2)
H21_4 H 0.5986 0.9421 0.3496
C39_4 C 0.5846(2) 0.7695(2) 0.2229(2)
H22_4 H 0.5905 0.7329 0.2357
C40_4 C 0.3389(2) 0.4533(3) 0.4483(3)
C41_4 C 0.2582(2) 0.4791(4) 0.4424(4)
H23_2 H 0.2361 0.5070 0.4349
C42_4 C 0.5937(3) 0.9929(3) 0.4031(2)
C43_4 C 0.1965(3) 0.4099(3) 0.4617(2)
C2_3 C 0.0283(2) 0.0841(2) 0.4058(2)
C8_3 C 0.0481(2) 0.0281(2) 0.4232(2)
C9_3 C 0.0939(2) 0.0204(2) 0.4282(2)
H3_3 H 0.1140 0.0512 0.4214
H5_3 H 0.1882 0.0292 0.4272
C29_3 C 0.0311(2) 0.1911(2) 0.4006(2)
H15_3 H 0.0440 0.2270 0.4092
C37_3 C 0.0491(2) 0.1382(2) 0.4173(2)
H20_3 H 0.0745 0.1388 0.4359
H23_3 H 0.2639 0.0070 0.4349
O3_3 O 0.31498(16) 0.8587(2) 0.47521(18)
C1_5 C 0.1752(2) 0.8978(4) 0.4628(3)
H1_5 H 0.1533 0.8689 0.4688
C3_5 C 0.0088(2) 0.8754(3) 0.4618(2)
C5_5 C 0.11118(19) 0.9669(3) 0.4434(2)
N2_5 N 0.08306(17) 0.9207(2) 0.45316(19)
C10_5 C 0.0187(2) 0.9810(2) 0.4341(2)
C14_5 C 0.1961(2) 0.9920(3) 0.4379(3)
C16_5 C 0.0314(2) 0.8255(3) 0.4764(3)
H6_5 H 0.0633 0.8249 0.4783
C18_5 C 0.0063(2) 0.7768(3) 0.4881(3)
H8_5 H 0.0214 0.7438 0.4992
C20_5 C 0.2211(3) 0.8849(4) 0.4685(3)
H9_5 H 0.2293 0.8481 0.4798
O8_3 O 0.33415(17) 0.9450(2) 0.45277(18)
C32_5 C 0.0374(2) 0.9286(2) 0.4492(2)
C33_5 C 0.2548(2) 0.9240(3) 0.4581(2)
C40_5 C 0.1611(2) 0.9533(3) 0.4483(3)
C41_5 C 0.2418(2) 0.9791(4) 0.4424(4)
C43_5 C 0.3035(3) 0.9099(3) 0.4617(2)
In3_2 In 0.38932(2) 0.86994(2) 0.47077(2)
O4_3 O 0.88698(13) 0.58847(18) 0.46089(14)
O5_3 O 0.88347(15) 0.3062(2) 0.08995(15)
O6_3 O 0.91495(17) 0.39227(18) 0.09554(13)
C4_5 C 0.9582(2) 0.4570(2) 0.4566(2)
H2_5 H 0.9736 0.4616 0.4831
N1_5 N 0.94184(17) 0.35388(18) 0.32067(16)
C6_5 C 0.9259(2) 0.4993(2) 0.44399(18)
C7_5 C 0.9466(2) 0.4017(2) 0.3902(2)
C11_5 C 0.9451(2) 0.3063(2) 0.29467(19)
C13_5 C 0.9343(2) 0.3144(2) 0.24821(19)
O7_3 O 0.93071(14) 0.54936(16) 0.51169(13)
C17_5 C 0.9913(2) 0.0849(2) 0.3766(3)
H7_5 H 0.9773 0.0495 0.3686
C19_5 C 0.9756(2) 0.2471(2) 0.3533(2)
C22_5 C 0.9023(2) 0.3441(3) 0.1125(2)
C23_5 C 0.9417(3) 0.3693(2) 0.2288(2)
H11_5 H 0.9535 0.4001 0.2457
C24_5 C 0.9051(2) 0.2784(3) 0.1790(2)
H12_5 H 0.8933 0.2475 0.1623
C25_5 C 0.9536(2) 0.3495(2) 0.36262(19)
C26_5 C 0.9720(2) 0.2962(2) 0.3800(2)
H13_5 H 0.9815 0.2943 0.4091
C27_5 C 0.9946(2) 0.1910(2) 0.37162(19)
C28_5 C 0.9321(3) 0.3791(2) 0.1857(2)
H14_5 H 0.9385 0.4158 0.1732
C30_5 C 0.9625(2) 0.2520(2) 0.3103(2)
H16_5 H 0.9650 0.2198 0.2915
C31_5 C 0.9752(2) 0.1374(2) 0.3594(2)
H17_5 H 0.9511 0.1368 0.3393
C34_5 C 0.9676(2) 0.4090(2) 0.4311(2)
H18_5 H 0.9884 0.3807 0.4410
C36_5 C 0.9124(2) 0.3339(2) 0.1599(2)
C38_5 C 0.9158(3) 0.4454(3) 0.3768(2)
H21_5 H 0.9014 0.4421 0.3496
C39_5 C 0.9154(2) 0.2695(2) 0.2229(2)
H22_5 H 0.9095 0.2329 0.2357
C42_5 C 0.9063(3) 0.4929(3) 0.4031(2)
H24_5 H 0.8860 0.5217 0.3931
C44_5 C 0.9145(2) 0.5475(2) 0.4735(2)
In2 In 0.88932(2) 0.63006(2) 0.52923(2)
In4_3 In 0.88932(2) 0.36994(2) 0.02923(2)
O1_5 O 0.88995(13) 0.71968(15) 0.49350(15)
O2_5 O 0.95449(14) 0.68012(16) 0.51623(14)
H4_5 H 0.9871 0.9850 0.4311
C12_5 C 0.9595(2) 0.7754(2) 0.4838(2)
C15_5 C 0.9332(2) 0.7223(2) 0.4984(2)
C21_5 C 0.9376(2) 0.8249(3) 0.4684(2)
H10_5 H 0.9059 0.8249 0.4649
C35_5 C 0.9628(2) 0.8747(3) 0.4582(3)
H19_5 H 0.9476 0.9086 0.4486
O9_3 O 0.81498(16) 0.6413(2) 0.52479(18)
O11_3 O 0.88347(15) 0.6938(2) 0.58995(15)
O12_3 O 0.91495(17) 0.60773(18) 0.59554(13)
O14_3 O 0.83415(17) 0.5550(2) 0.54723(18)
O1_6 O 0.38995(13) 0.78032(15) 0.50650(15)
O2_6 O 0.45449(14) 0.81988(16) 0.48377(14)
O5_4 O 0.38347(15) 0.1938(2) 0.91005(15)
O6_4 O 0.41495(17) 0.10773(18) 0.90446(13)
C1_6 C 0.6752(2) 0.6022(4) 0.5372(3)
H1_6 H 0.6533 0.6311 0.5312
C2_4 C 0.5283(2) 0.4159(2) 0.5942(2)
C3_6 C 0.5088(2) 0.6246(3) 0.5382(2)
C4_6 C 0.4582(2) 0.0430(2) 0.5434(2)
H2_6 H 0.4736 0.0384 0.5169
C5_6 C 0.61118(19) 0.5331(3) 0.5566(2)
N1_6 N 0.44184(17) 0.14612(18) 0.67933(16)
C6_6 C 0.4259(2) 0.0007(2) 0.55601(18)
C7_6 C 0.4466(2) 0.0983(2) 0.6098(2)
C8_4 C 0.5481(2) 0.4719(2) 0.5768(2)
N2_6 N 0.58306(17) 0.5793(2) 0.54684(19)
C9_4 C 0.5939(2) 0.4796(2) 0.5718(2)
H3_4 H 0.6140 0.4488 0.5786
C10_6 C 0.5187(2) 0.5190(2) 0.5659(2)
H4_6 H 0.4871 0.5150 0.5689
C11_6 C 0.4451(2) 0.1937(2) 0.70533(19)
C12_6 C 0.4595(2) 0.7246(2) 0.5162(2)
C13_6 C 0.4343(2) 0.1856(2) 0.75179(19)
C14_6 C 0.6961(2) 0.5080(3) 0.5621(3)
H5_4 H 0.6882 0.4708 0.5728
C15_6 C 0.4332(2) 0.7777(2) 0.5016(2)
C16_6 C 0.5314(2) 0.6745(3) 0.5236(3)
H6_6 H 0.5633 0.6751 0.5217
C17_6 C 0.4913(2) 0.4151(2) 0.6234(3)
H7_6 H 0.4773 0.4505 0.6314
C18_6 C 0.5063(2) 0.7232(3) 0.5119(3)
H8_6 H 0.5214 0.7562 0.5008
C19_6 C 0.4756(2) 0.2529(2) 0.6467(2)
C20_6 C 0.7211(3) 0.6151(4) 0.5315(3)
H9_6 H 0.7293 0.6519 0.5202
C21_6 C 0.4376(2) 0.6751(3) 0.5316(2)
H10_6 H 0.4059 0.6751 0.5351
C22_6 C 0.4023(2) 0.1559(3) 0.8875(2)
C23_6 C 0.4417(3) 0.1307(2) 0.7712(2)
H11_6 H 0.4535 0.0999 0.7543
C24_6 C 0.4051(2) 0.2216(3) 0.8210(2)
H12_6 H 0.3933 0.2525 0.8377
C25_6 C 0.4536(2) 0.1505(2) 0.63738(19)
C26_6 C 0.4720(2) 0.2038(2) 0.6200(2)
H13_6 H 0.4815 0.2057 0.5909
C27_6 C 0.4946(2) 0.3090(2) 0.62838(19)
C28_6 C 0.4321(3) 0.1209(2) 0.8143(2)
H14_6 H 0.4385 0.0842 0.8268
C29_4 C 0.5311(2) 0.3089(2) 0.5994(2)
H15_4 H 0.5440 0.2730 0.5908
C30_6 C 0.4625(2) 0.2480(2) 0.6897(2)
H16_6 H 0.4650 0.2802 0.7085
C31_6 C 0.4752(2) 0.3626(2) 0.6406(2)
H17_6 H 0.4511 0.3632 0.6607
C32_6 C 0.5374(2) 0.5714(2) 0.5508(2)
C33_6 C 0.7548(2) 0.5760(3) 0.5419(2)
C34_6 C 0.4676(2) 0.0910(2) 0.5689(2)
H18_6 H 0.4884 0.1193 0.5590
C35_6 C 0.4628(2) 0.6253(3) 0.5418(3)
H19_6 H 0.4476 0.5914 0.5514
C36_6 C 0.4124(2) 0.1661(2) 0.8401(2)
C37_4 C 0.5491(2) 0.3618(2) 0.5827(2)
H20_4 H 0.5745 0.3612 0.5641
C38_6 C 0.4158(3) 0.0546(3) 0.6232(2)
H21_6 H 0.4014 0.0579 0.6504
C39_6 C 0.4154(2) 0.2305(2) 0.7771(2)
H22_6 H 0.4095 0.2671 0.7643
C40_6 C 0.6611(2) 0.5467(3) 0.5517(3)
C41_6 C 0.7418(2) 0.5209(4) 0.5576(4)
H23_4 H 0.7639 0.4930 0.5651
C42_6 C 0.4063(3) 0.0071(3) 0.5969(2)
C43_6 C 0.8035(3) 0.5901(3) 0.5383(2)
In4_4 In 0.38932(2) 0.13006(2) 0.97077(2)
O10_3 O 0.38698(13) 0.91153(18) 0.53911(14)
O11_4 O 0.38347(15) 0.8062(2) 0.41005(15)
O12_4 O 0.41495(17) 0.89227(18) 0.40446(13)
O13_3 O 0.43071(14) 0.95064(16) 0.48831(13)
H24_6 H 0.3860 0.9783 0.6069
C44_6 C 0.4145(2) 0.9525(2) 0.5265(2)
O4_4 O 0.38698(13) 0.08847(18) 0.03911(14)
H24_7 H 0.3860 0.0217 0.1069
C44_7 C 0.4145(2) 0.0475(2) 0.0265(2)
O7_4 O 0.43071(14) 0.04936(16) 0.98831(13)
O1_7 O 0.38995(13) 0.21968(15) 0.00650(15)
O3_4 O 0.81498(16) 0.3587(2) 0.02479(18)
C1_7 C 0.6752(2) 0.3978(4) 0.0372(3)
H1_7 H 0.6533 0.3689 0.0312
C2_5 C 0.5283(2) 0.5841(2) 0.0942(2)
C3_7 C 0.5088(2) 0.3754(3) 0.0382(2)
C4_7 C 0.4582(2) 0.9570(2) 0.0434(2)
H2_7 H 0.4736 0.9616 0.0169
C5_7 C 0.61118(19) 0.4669(3) 0.0566(2)
N1_7 N 0.44184(17) 0.85388(18) 0.17933(16)
C6_7 C 0.4259(2) 0.9993(2) 0.05601(18)
C7_7 C 0.4466(2) 0.9017(2) 0.1098(2)
C8_5 C 0.5481(2) 0.5281(2) 0.0768(2)
N2_7 N 0.58306(17) 0.4207(2) 0.04684(19)
C9_5 C 0.5939(2) 0.5204(2) 0.0718(2)
H3_5 H 0.6140 0.5512 0.0786
C10_7 C 0.5187(2) 0.4810(2) 0.0659(2)
H4_7 H 0.4871 0.4850 0.0689
C11_7 C 0.4451(2) 0.8063(2) 0.20533(19)
C12_7 C 0.4595(2) 0.2754(2) 0.0162(2)
C13_7 C 0.4343(2) 0.8144(2) 0.25179(19)
C14_7 C 0.6961(2) 0.4920(3) 0.0621(3)
H5_5 H 0.6882 0.5292 0.0728
C15_7 C 0.4332(2) 0.2223(2) 0.0016(2)
C16_7 C 0.5314(2) 0.3255(3) 0.0236(3)
H6_7 H 0.5633 0.3249 0.0217
C17_7 C 0.4913(2) 0.5849(2) 0.1234(3)
H7_7 H 0.4773 0.5495 0.1314
C18_7 C 0.5063(2) 0.2768(3) 0.0119(3)
H8_7 H 0.5214 0.2438 0.0008
C19_7 C 0.4756(2) 0.7471(2) 0.1467(2)
C20_7 C 0.7211(3) 0.3849(4) 0.0315(3)
H9_7 H 0.7293 0.3481 0.0202
C21_7 C 0.4376(2) 0.3249(3) 0.0316(2)
H10_7 H 0.4059 0.3249 0.0351
C22_7 C 0.4023(2) 0.8441(3) 0.3875(2)
C23_7 C 0.4417(3) 0.8693(2) 0.2712(2)
H11_7 H 0.4535 0.9001 0.2543
C24_7 C 0.4051(2) 0.7784(3) 0.3210(2)
H12_7 H 0.3933 0.7475 0.3377
C25_7 C 0.4536(2) 0.8495(2) 0.13738(19)
C26_7 C 0.4720(2) 0.7962(2) 0.1200(2)
H13_7 H 0.4815 0.7943 0.0909
C27_7 C 0.4946(2) 0.6910(2) 0.12838(19)
C28_7 C 0.4321(3) 0.8791(2) 0.3143(2)
H14_7 H 0.4385 0.9158 0.3268
C29_5 C 0.5311(2) 0.6911(2) 0.0994(2)
H15_5 H 0.5440 0.7270 0.0908
O8_4 O 0.83415(17) 0.4450(2) 0.04723(18)
C30_7 C 0.4625(2) 0.7520(2) 0.1897(2)
H16_7 H 0.4650 0.7198 0.2085
C31_7 C 0.4752(2) 0.6374(2) 0.1406(2)
H17_7 H 0.4511 0.6368 0.1607
C32_7 C 0.5374(2) 0.4286(2) 0.0508(2)
C33_7 C 0.7548(2) 0.4240(3) 0.0419(2)
C34_7 C 0.4676(2) 0.9090(2) 0.0689(2)
H18_7 H 0.4884 0.8807 0.0590
C35_7 C 0.4628(2) 0.3747(3) 0.0418(3)
H19_7 H 0.4476 0.4086 0.0514
C36_7 C 0.4124(2) 0.8339(2) 0.3401(2)
C37_5 C 0.5491(2) 0.6382(2) 0.0827(2)
H20_5 H 0.5745 0.6388 0.0641
C38_7 C 0.4158(3) 0.9454(3) 0.1232(2)
H21_7 H 0.4014 0.9421 0.1504
C39_7 C 0.4154(2) 0.7695(2) 0.2771(2)
H22_7 H 0.4095 0.7329 0.2643
C40_7 C 0.6611(2) 0.4533(3) 0.0517(3)
C41_7 C 0.7418(2) 0.4791(4) 0.0576(4)
H23_5 H 0.7639 0.5070 0.0651
C42_7 C 0.4063(3) 0.9929(3) 0.0969(2)
C43_7 C 0.8035(3) 0.4099(3) 0.0383(2)
O2_7 O 0.45449(14) 0.18012(16) 0.98377(14)
O9_4 O 0.31498(16) 0.1413(2) 0.97521(18)
O14_4 O 0.33415(17) 0.0550(2) 0.95277(18)
C1_8 C 0.1752(2) 0.1022(4) 0.9628(3)
H1_8 H 0.1533 0.1311 0.9688
C3_8 C 0.0088(2) 0.1246(3) 0.9618(2)
C5_8 C 0.11118(19) 0.0331(3) 0.9434(2)
N2_8 N 0.08306(17) 0.0793(2) 0.95316(19)
C10_8 C 0.0187(2) 0.0190(2) 0.9341(2)
C14_8 C 0.1961(2) 0.0080(3) 0.9379(3)
C16_8 C 0.0314(2) 0.1745(3) 0.9764(3)
H6_8 H 0.0633 0.1751 0.9783
C18_8 C 0.0063(2) 0.2232(3) 0.9881(3)
H8_8 H 0.0214 0.2562 0.9992
C20_8 C 0.2211(3) 0.1151(4) 0.9685(3)
H9_8 H 0.2293 0.1519 0.9798
C32_8 C 0.0374(2) 0.0714(2) 0.9492(2)
C33_8 C 0.2548(2) 0.0760(3) 0.9581(2)
C40_8 C 0.1611(2) 0.0467(3) 0.9483(3)
C41_8 C 0.2418(2) 0.0209(4) 0.9424(4)
C43_8 C 0.3035(3) 0.0901(3) 0.9617(2)
O2_8 O 0.95449(14) 0.31988(16) 0.01623(14)
O13_4 O 0.93071(14) 0.45064(16) 0.01169(13)
O1_8 O 0.88995(13) 0.28032(15) 0.99350(15)
H4_8 H 0.9871 0.0150 0.9311
C12_8 C 0.9595(2) 0.2246(2) 0.9838(2)
C15_8 C 0.9332(2) 0.2777(2) 0.9984(2)
C21_8 C 0.9376(2) 0.1751(3) 0.9684(2)
H10_8 H 0.9059 0.1751 0.9649
C35_8 C 0.9628(2) 0.1253(3) 0.9582(3)
H19_8 H 0.9476 0.0914 0.9486
O10_4 O 0.88698(13) 0.41153(18) 0.96089(14)
C4_8 C 0.9582(2) 0.5430(2) 0.9566(2)
H2_8 H 0.9736 0.5384 0.9831
N1_8 N 0.94184(17) 0.64612(18) 0.82067(16)
C6_8 C 0.9259(2) 0.5007(2) 0.94399(18)
C7_8 C 0.9466(2) 0.5983(2) 0.8902(2)
C11_8 C 0.9451(2) 0.6937(2) 0.79467(19)
C13_8 C 0.9343(2) 0.6856(2) 0.74821(19)
C17_8 C 0.9913(2) 0.9151(2) 0.8766(3)
H7_8 H 0.9773 0.9505 0.8686
C19_8 C 0.9756(2) 0.7529(2) 0.8533(2)
C22_8 C 0.9023(2) 0.6559(3) 0.6125(2)
C23_8 C 0.9417(3) 0.6307(2) 0.7288(2)
H11_8 H 0.9535 0.5999 0.7457
C24_8 C 0.9051(2) 0.7216(3) 0.6790(2)
H12_8 H 0.8933 0.7525 0.6623
C25_8 C 0.9536(2) 0.6505(2) 0.86262(19)
C26_8 C 0.9720(2) 0.7038(2) 0.8800(2)
H13_8 H 0.9815 0.7057 0.9091
C27_8 C 0.9946(2) 0.8090(2) 0.87162(19)
C28_8 C 0.9321(3) 0.6209(2) 0.6857(2)
H14_8 H 0.9385 0.5842 0.6732
C30_8 C 0.9625(2) 0.7480(2) 0.8103(2)
H16_8 H 0.9650 0.7802 0.7915
C31_8 C 0.9752(2) 0.8626(2) 0.8594(2)
H17_8 H 0.9511 0.8632 0.8393
C34_8 C 0.9676(2) 0.5910(2) 0.9311(2)
H18_8 H 0.9884 0.6193 0.9410
C36_8 C 0.9124(2) 0.6661(2) 0.6599(2)
C38_8 C 0.9158(3) 0.5546(3) 0.8768(2)
H21_8 H 0.9014 0.5579 0.8496
C39_8 C 0.9154(2) 0.7305(2) 0.7229(2)
H22_8 H 0.9095 0.7671 0.7357
C42_8 C 0.9063(3) 0.5071(3) 0.9031(2)
H24_8 H 0.8860 0.4783 0.8931
C44_8 C 0.9145(2) 0.4525(2) 0.9735(2)
C2_6 C 0.9717(2) 0.0841(2) 0.0942(2)
C8_6 C 0.9519(2) 0.0281(2) 0.0768(2)
C9_6 C 0.9061(2) 0.0204(2) 0.0718(2)
H3_6 H 0.8860 0.0512 0.0786
H5_6 H 0.8118 0.0292 0.0728
C29_6 C 0.9689(2) 0.1911(2) 0.0994(2)
H15_6 H 0.9560 0.2270 0.0908
C37_6 C 0.9509(2) 0.1382(2) 0.0827(2)
H20_6 H 0.9255 0.1388 0.0641
H23_6 H 0.7361 0.0070 0.0651
C2_7 C 0.9717(2) 0.9159(2) 0.5942(2)
C8_7 C 0.9519(2) 0.9719(2) 0.5768(2)
C9_7 C 0.9061(2) 0.9796(2) 0.5718(2)
H3_7 H 0.8860 0.9488 0.5786
H5_7 H 0.8118 0.9708 0.5728
C29_7 C 0.9689(2) 0.8089(2) 0.5994(2)
H15_7 H 0.9560 0.7730 0.5908
C37_7 C 0.9509(2) 0.8618(2) 0.5827(2)
H20_7 H 0.9255 0.8612 0.5641
H23_7 H 0.7361 0.9930 0.5651
C2_8 C 0.0283(2) 0.9159(2) 0.9058(2)
C8_8 C 0.0481(2) 0.9719(2) 0.9232(2)
C9_8 C 0.0939(2) 0.9796(2) 0.9282(2)
H3_8 H 0.1140 0.9488 0.9214
H5_8 H 0.1882 0.9708 0.9272
C29_8 C 0.0311(2) 0.8089(2) 0.9006(2)
H15_8 H 0.0440 0.7730 0.9092
C37_8 C 0.0491(2) 0.8618(2) 0.9173(2)
H20_8 H 0.0745 0.8612 0.9359
H23_8 H 0.2639 0.9930 0.9349
loop_
_geom_bond_atom_site_label_1
_geom_bond_atom_site_label_2
_geom_bond_site_symmetry_1
_geom_bond_site_symmetry_2
O2 In1 1_555 1_555
O9 In1 1_555 1_555
O11 In1 1_555 1_555
O12 In1 1_555 1_555
O13 In1 1_555 1_555
O14 In1 1_555 1_555
O1 C15 1_555 1_555
O3 C43 1_555 1_555
O5 C22 1_555 1_555
O6 C22 1_555 1_555
C1 H1 1_555 1_555
C2 C8 1_555 1_555
C3 C16 1_555 1_555
C4 H2 1_555 1_555
C5 N2 1_555 1_555
N1 C11 1_555 1_555
C6 C4 1_555 1_555
C7 C25 1_555 1_555
C8 C9 1_555 1_555
N2 C32 1_555 1_555
C9 C5 1_555 1_555
H3 C9 1_555 1_555
C10 C8 1_555 1_555
H4 C10 1_555 1_555
C11 C13 1_555 1_555
C12 C15 1_555 1_555
C13 C23 1_555 1_555
C14 H5 1_555 1_555
C16 H6 1_555 1_555
C17 C2 1_555 1_555
H7 C17 1_555 1_555
C18 C12 1_555 1_555
H8 C18 1_555 1_555
C19 C26 1_555 1_555
C20 C1 1_555 1_555
H9 C20 1_555 1_555
C21 C12 1_555 1_555
H10 C21 1_555 1_555
C22 C36 1_555 1_555
C23 H11 1_555 1_555
C24 H12 1_555 1_555
C25 N1 1_555 1_555
C26 C25 1_555 1_555
H13 C26 1_555 1_555
C27 C19 1_555 1_555
C28 C23 1_555 1_555
H14 C28 1_555 1_555
C29 C27 1_555 1_555
H15 C29 1_555 1_555
O8 C43 1_555 1_555
C30 C11 1_555 1_555
H16 C30 1_555 1_555
C31 C17 1_555 1_555
H17 C31 1_555 1_555
C32 C3 1_555 1_555
C33 C20 1_555 1_555
C34 C4 1_555 1_555
H18 C34 1_555 1_555
C35 C3 1_555 1_555
H19 C35 1_555 1_555
C36 C24 1_555 1_555
C37 C2 1_555 1_555
H20 C37 1_555 1_555
C38 C7 1_555 1_555
H21 C38 1_555 1_555
C39 C13 1_555 1_555
H22 C39 1_555 1_555
C40 C1 1_555 1_555
C41 C14 1_555 1_555
H23 C41 1_555 1_555
C42 C6 1_555 1_555
C43 C33 1_555 1_555
In3 O3 1_555 1_555
In4 O5 1_555 1_555
O6 In4 1_555 1_555
C5 C40 1_555 1_555
C7 C34 1_555 1_555
C10 C32 1_555 1_555
C14 C40 1_555 1_555
C16 C18 1_555 1_555
C19 C30 1_555 1_555
C21 C35 1_555 1_555
C24 C39 1_555 1_555
C27 C31 1_555 1_555
C28 C36 1_555 1_555
C29 C37 1_555 1_555
O8 In3 1_555 1_555
C33 C41 1_555 1_555
C38 C42 1_555 1_555
O10 C44 1_555 1_555
O4 C44_2 1_555 1_555
O5_2 C22_2 1_555 1_555
O6_2 C22_2 1_555 1_555
C4_2 H2_2 1_555 1_555
N1_2 C11_2 1_555 1_555
C6_2 C4_2 1_555 1_555
C7_2 C25_2 1_555 1_555
C11_2 C13_2 1_555 1_555
C13_2 C23_2 1_555 1_555
H7_2 C17_2 1_555 1_555
C19_2 C26_2 1_555 1_555
C22_2 C36_2 1_555 1_555
C23_2 H11_2 1_555 1_555
C24_2 H12_2 1_555 1_555
C25_2 N1_2 1_555 1_555
C26_2 C25_2 1_555 1_555
H13_2 C26_2 1_555 1_555
C27_2 C19_2 1_555 1_555
C28_2 C23_2 1_555 1_555
H14_2 C28_2 1_555 1_555
C30_2 C11_2 1_555 1_555
H16_2 C30_2 1_555 1_555
C31_2 C17_2 1_555 1_555
H17_2 C31_2 1_555 1_555
C34_2 C4_2 1_555 1_555
H18_2 C34_2 1_555 1_555
C36_2 C24_2 1_555 1_555
C38_2 C7_2 1_555 1_555
H21_2 C38_2 1_555 1_555
C39_2 C13_2 1_555 1_555
H22_2 C39_2 1_555 1_555
C42_2 C6_2 1_555 1_555
H24_2 C42_2 1_555 1_555
C44_2 C6_2 1_555 1_555
In4_2 O5_2 1_555 1_555
O6_2 In4_2 1_555 1_555
C7_2 C34_2 1_555 1_555
C19_2 C30_2 1_555 1_555
C24_2 C39_2 1_555 1_555
C27_2 C31_2 1_555 1_555
C28_2 C36_2 1_555 1_555
C38_2 C42_2 1_555 1_555
O7 In3 1_555 1_555
O1_2 C15_2 1_555 1_555
C12_2 C15_2 1_555 1_555
C21_2 C12_2 1_555 1_555
H10_2 C21_2 1_555 1_555
H19_2 C35_2 1_555 1_555
C21_2 C35_2 1_555 1_555
O2_2 In3 1_555 1_555
O11_2 In3 1_555 1_555
O12_2 In3 1_555 1_555
O9 C43_2 1_555 1_555
C1_2 H1_2 1_555 1_555
C3_2 C16_2 1_555 1_555
C5_2 N2_2 1_555 1_555
N2_2 C32_2 1_555 1_555
C16_2 H6_2 1_555 1_555
H8_2 C18_2 1_555 1_555
C20_2 C1_2 1_555 1_555
H9_2 C20_2 1_555 1_555
O14 C43_2 1_555 1_555
C32_2 C3_2 1_555 1_555
C33_2 C20_2 1_555 1_555
C40_2 C1_2 1_555 1_555
C41_2 C14_2 1_555 1_555
C43_2 C33_2 1_555 1_555
C5_2 C40_2 1_555 1_555
C10_2 C32_2 1_555 1_555
C14_2 C40_2 1_555 1_555
C16_2 C18_2 1_555 1_555
C33_2 C41_2 1_555 1_555
In4_2 O1_3 1_555 1_555
O1_3 C15_3 1_555 1_555
O2_3 In4_2 1_555 1_555
C12_3 C15_3 1_555 1_555
C15_3 O2_3 1_555 1_555
C21_3 C12_3 1_555 1_555
H10_3 C21_3 1_555 1_555
H19_3 C35_3 1_555 1_555
O9_2 In4_2 1_555 1_555
O10_2 In4_2 1_555 1_555
O13_2 In4_2 1_555 1_555
O14_2 In4_2 1_555 1_555
C21_3 C35_3 1_555 1_555
O10_2 C44_3 1_555 1_555
O11_2 C22_3 1_555 1_555
O12_2 C22_3 1_555 1_555
C4_3 H2_3 1_555 1_555
N1_3 C11_3 1_555 1_555
C6_3 C4_3 1_555 1_555
C7_3 C25_3 1_555 1_555
C11_3 C13_3 1_555 1_555
C13_3 C23_3 1_555 1_555
O13_2 C44_3 1_555 1_555
H7_3 C17_3 1_555 1_555
C19_3 C26_3 1_555 1_555
C22_3 C36_3 1_555 1_555
C23_3 H11_3 1_555 1_555
C24_3 H12_3 1_555 1_555
C25_3 N1_3 1_555 1_555
C26_3 C25_3 1_555 1_555
H13_3 C26_3 1_555 1_555
C27_3 C19_3 1_555 1_555
C28_3 C23_3 1_555 1_555
H14_3 C28_3 1_555 1_555
C30_3 C11_3 1_555 1_555
H16_3 C30_3 1_555 1_555
C31_3 C17_3 1_555 1_555
H17_3 C31_3 1_555 1_555
C34_3 C4_3 1_555 1_555
H18_3 C34_3 1_555 1_555
C36_3 C24_3 1_555 1_555
C38_3 C7_3 1_555 1_555
H21_3 C38_3 1_555 1_555
C39_3 C13_3 1_555 1_555
H22_3 C39_3 1_555 1_555
C42_3 C6_3 1_555 1_555
H24_3 C42_3 1_555 1_555
C44_3 C6_3 1_555 1_555
C7_3 C34_3 1_555 1_555
C19_3 C30_3 1_555 1_555
C24_3 C39_3 1_555 1_555
C27_3 C31_3 1_555 1_555
C28_3 C36_3 1_555 1_555
C38_3 C42_3 1_555 1_555
O3_2 C43_3 1_555 1_555
C1_3 H1_3 1_555 1_555
C3_3 C16_3 1_555 1_555
C5_3 N2_3 1_555 1_555
N2_3 C32_3 1_555 1_555
C16_3 H6_3 1_555 1_555
H8_3 C18_3 1_555 1_555
C20_3 C1_3 1_555 1_555
H9_3 C20_3 1_555 1_555
O8_2 C43_3 1_555 1_555
C32_3 C3_3 1_555 1_555
C33_3 C20_3 1_555 1_555
C40_3 C1_3 1_555 1_555
C41_3 C14_3 1_555 1_555
C43_3 C33_3 1_555 1_555
In4 O3_2 1_555 1_555
C5_3 C40_3 1_555 1_555
C10_3 C32_3 1_555 1_555
C14_3 C40_3 1_555 1_555
C16_3 C18_3 1_555 1_555
O8_2 In4 1_555 1_555
C33_3 C41_3 1_555 1_555
O4_2 C44_4 1_555 1_555
O7_2 C44_4 1_555 1_555
In4 O4_2 1_555 1_555
O7_2 In4 1_555 1_555
In4 O1_4 1_555 1_555
O1_4 C15_4 1_555 1_555
O2_4 In4 1_555 1_555
O9_2 C43_4 1_555 1_555
O11 C22_4 1_555 1_555
O12 C22_4 1_555 1_555
C1_4 H1_4 1_555 1_555
C2_2 C8_2 1_555 1_555
C3_4 C16_4 1_555 1_555
C4_4 H2_4 1_555 1_555
C5_4 N2_4 1_555 1_555
N1_4 C11_4 1_555 1_555
C6_4 C4_4 1_555 1_555
C7_4 C25_4 1_555 1_555
C8_2 C9_2 1_555 1_555
N2_4 C32_4 1_555 1_555
C9_2 C5_4 1_555 1_555
H3_2 C9_2 1_555 1_555
C10_4 C8_2 1_555 1_555
H4_4 C10_4 1_555 1_555
C11_4 C13_4 1_555 1_555
C12_4 C15_4 1_555 1_555
C13_4 C23_4 1_555 1_555
C14_4 H5_2 1_555 1_555
C15_4 O2_4 1_555 1_555
C16_4 H6_4 1_555 1_555
C17_4 C2_2 1_555 1_555
H7_4 C17_4 1_555 1_555
C18_4 C12_4 1_555 1_555
H8_4 C18_4 1_555 1_555
C19_4 C26_4 1_555 1_555
C20_4 C1_4 1_555 1_555
H9_4 C20_4 1_555 1_555
C21_4 C12_4 1_555 1_555
H10_4 C21_4 1_555 1_555
C22_4 C36_4 1_555 1_555
C23_4 H11_4 1_555 1_555
C24_4 H12_4 1_555 1_555
C25_4 N1_4 1_555 1_555
C26_4 C25_4 1_555 1_555
H13_4 C26_4 1_555 1_555
C27_4 C19_4 1_555 1_555
C28_4 C23_4 1_555 1_555
H14_4 C28_4 1_555 1_555
C29_2 C27_4 1_555 1_555
H15_2 C29_2 1_555 1_555
O14_2 C43_4 1_555 1_555
C30_4 C11_4 1_555 1_555
H16_4 C30_4 1_555 1_555
C31_4 C17_4 1_555 1_555
H17_4 C31_4 1_555 1_555
C32_4 C3_4 1_555 1_555
C33_4 C20_4 1_555 1_555
C34_4 C4_4 1_555 1_555
H18_4 C34_4 1_555 1_555
C35_4 C3_4 1_555 1_555
H19_4 C35_4 1_555 1_555
C36_4 C24_4 1_555 1_555
C37_2 C2_2 1_555 1_555
H20_2 C37_2 1_555 1_555
C38_4 C7_4 1_555 1_555
H21_4 C38_4 1_555 1_555
C39_4 C13_4 1_555 1_555
H22_4 C39_4 1_555 1_555
C40_4 C1_4 1_555 1_555
C41_4 C14_4 1_555 1_555
H23_2 C41_4 1_555 1_555
C42_4 C6_4 1_555 1_555
C43_4 C33_4 1_555 1_555
C5_4 C40_4 1_555 1_555
C7_4 C34_4 1_555 1_555
C10_4 C32_4 1_555 1_555
C14_4 C40_4 1_555 1_555
C16_4 C18_4 1_555 1_555
C19_4 C30_4 1_555 1_555
C21_4 C35_4 1_555 1_555
C24_4 C39_4 1_555 1_555
C27_4 C31_4 1_555 1_555
C28_4 C36_4 1_555 1_555
C29_2 C37_2 1_555 1_555
C33_4 C41_4 1_555 1_555
C38_4 C42_4 1_555 1_555
C2_3 C8_3 1_555 1_555
C8_3 C9_3 1_555 1_555
H3_3 C9_3 1_555 1_555
H15_3 C29_3 1_555 1_555
C37_3 C2_3 1_555 1_555
H20_3 C37_3 1_555 1_555
C29_3 C37_3 1_555 1_555
O3_3 C43_5 1_555 1_555
C1_5 H1_5 1_555 1_555
C3_5 C16_5 1_555 1_555
C5_5 N2_5 1_555 1_555
N2_5 C32_5 1_555 1_555
C16_5 H6_5 1_555 1_555
H8_5 C18_5 1_555 1_555
C20_5 C1_5 1_555 1_555
H9_5 C20_5 1_555 1_555
O8_3 C43_5 1_555 1_555
C32_5 C3_5 1_555 1_555
C33_5 C20_5 1_555 1_555
C40_5 C1_5 1_555 1_555
C41_5 C14_5 1_555 1_555
C43_5 C33_5 1_555 1_555
In3_2 O3_3 1_555 1_555
C5_5 C40_5 1_555 1_555
C10_5 C32_5 1_555 1_555
C14_5 C40_5 1_555 1_555
C16_5 C18_5 1_555 1_555
O8_3 In3_2 1_555 1_555
C33_5 C41_5 1_555 1_555
O4_3 C44_5 1_555 1_555
O5_3 C22_5 1_555 1_555
O6_3 C22_5 1_555 1_555
C4_5 H2_5 1_555 1_555
N1_5 C11_5 1_555 1_555
C6_5 C4_5 1_555 1_555
C7_5 C25_5 1_555 1_555
C11_5 C13_5 1_555 1_555
C13_5 C23_5 1_555 1_555
O7_3 C44_5 1_555 1_555
H7_5 C17_5 1_555 1_555
C19_5 C26_5 1_555 1_555
C22_5 C36_5 1_555 1_555
C23_5 H11_5 1_555 1_555
C24_5 H12_5 1_555 1_555
C25_5 N1_5 1_555 1_555
C26_5 C25_5 1_555 1_555
H13_5 C26_5 1_555 1_555
C27_5 C19_5 1_555 1_555
C28_5 C23_5 1_555 1_555
H14_5 C28_5 1_555 1_555
C30_5 C11_5 1_555 1_555
H16_5 C30_5 1_555 1_555
C31_5 C17_5 1_555 1_555
H17_5 C31_5 1_555 1_555
C34_5 C4_5 1_555 1_555
H18_5 C34_5 1_555 1_555
C36_5 C24_5 1_555 1_555
C38_5 C7_5 1_555 1_555
H21_5 C38_5 1_555 1_555
C39_5 C13_5 1_555 1_555
H22_5 C39_5 1_555 1_555
C42_5 C6_5 1_555 1_555
H24_5 C42_5 1_555 1_555
C44_5 C6_5 1_555 1_555
In2 O4_3 1_555 1_555
In4_3 O5_3 1_555 1_555
O6_3 In4_3 1_555 1_555
C7_5 C34_5 1_555 1_555
O7_3 In2 1_555 1_555
C19_5 C30_5 1_555 1_555
C24_5 C39_5 1_555 1_555
C27_5 C31_5 1_555 1_555
C28_5 C36_5 1_555 1_555
C38_5 C42_5 1_555 1_555
In2 O1_5 1_555 1_555
O1_5 C15_5 1_555 1_555
O2_5 In2 1_555 1_555
C12_5 C15_5 1_555 1_555
C15_5 O2_5 1_555 1_555
C21_5 C12_5 1_555 1_555
H10_5 C21_5 1_555 1_555
H19_5 C35_5 1_555 1_555
O9_3 In2 1_555 1_555
O11_3 In2 1_555 1_555
O12_3 In2 1_555 1_555
O14_3 In2 1_555 1_555
C21_5 C35_5 1_555 1_555
In3_2 O1_6 1_555 1_555
O1_6 C15_6 1_555 1_555
O2_6 In3_2 1_555 1_555
O9_3 C43_6 1_555 1_555
O5_4 C22_6 1_555 1_555
O6_4 C22_6 1_555 1_555
C1_6 H1_6 1_555 1_555
C2_4 C8_4 1_555 1_555
C3_6 C16_6 1_555 1_555
C4_6 H2_6 1_555 1_555
C5_6 N2_6 1_555 1_555
N1_6 C11_6 1_555 1_555
C6_6 C4_6 1_555 1_555
C7_6 C25_6 1_555 1_555
C8_4 C9_4 1_555 1_555
N2_6 C32_6 1_555 1_555
C9_4 C5_6 1_555 1_555
H3_4 C9_4 1_555 1_555
C10_6 C8_4 1_555 1_555
H4_6 C10_6 1_555 1_555
C11_6 C13_6 1_555 1_555
C12_6 C15_6 1_555 1_555
C13_6 C23_6 1_555 1_555
C14_6 H5_4 1_555 1_555
C15_6 O2_6 1_555 1_555
C16_6 H6_6 1_555 1_555
C17_6 C2_4 1_555 1_555
H7_6 C17_6 1_555 1_555
C18_6 C12_6 1_555 1_555
H8_6 C18_6 1_555 1_555
C19_6 C26_6 1_555 1_555
C20_6 C1_6 1_555 1_555
H9_6 C20_6 1_555 1_555
C21_6 C12_6 1_555 1_555
H10_6 C21_6 1_555 1_555
C22_6 C36_6 1_555 1_555
C23_6 H11_6 1_555 1_555
C24_6 H12_6 1_555 1_555
C25_6 N1_6 1_555 1_555
C26_6 C25_6 1_555 1_555
H13_6 C26_6 1_555 1_555
C27_6 C19_6 1_555 1_555
C28_6 C23_6 1_555 1_555
H14_6 C28_6 1_555 1_555
C29_4 C27_6 1_555 1_555
H15_4 C29_4 1_555 1_555
O14_3 C43_6 1_555 1_555
C30_6 C11_6 1_555 1_555
H16_6 C30_6 1_555 1_555
C31_6 C17_6 1_555 1_555
H17_6 C31_6 1_555 1_555
C32_6 C3_6 1_555 1_555
C33_6 C20_6 1_555 1_555
C34_6 C4_6 1_555 1_555
H18_6 C34_6 1_555 1_555
C35_6 C3_6 1_555 1_555
H19_6 C35_6 1_555 1_555
C36_6 C24_6 1_555 1_555
C37_4 C2_4 1_555 1_555
H20_4 C37_4 1_555 1_555
C38_6 C7_6 1_555 1_555
H21_6 C38_6 1_555 1_555
C39_6 C13_6 1_555 1_555
H22_6 C39_6 1_555 1_555
C40_6 C1_6 1_555 1_555
C41_6 C14_6 1_555 1_555
H23_4 C41_6 1_555 1_555
C42_6 C6_6 1_555 1_555
C43_6 C33_6 1_555 1_555
In4_4 O5_4 1_555 1_555
O10_3 In3_2 1_555 1_555
O11_4 In3_2 1_555 1_555
O12_4 In3_2 1_555 1_555
O13_3 In3_2 1_555 1_555
O6_4 In4_4 1_555 1_555
C5_6 C40_6 1_555 1_555
C7_6 C34_6 1_555 1_555
C10_6 C32_6 1_555 1_555
C14_6 C40_6 1_555 1_555
C16_6 C18_6 1_555 1_555
C19_6 C30_6 1_555 1_555
C21_6 C35_6 1_555 1_555
C24_6 C39_6 1_555 1_555
C27_6 C31_6 1_555 1_555
C28_6 C36_6 1_555 1_555
C29_4 C37_4 1_555 1_555
C33_6 C41_6 1_555 1_555
C38_6 C42_6 1_555 1_555
O10_3 C44_6 1_555 1_555
O13_3 C44_6 1_555 1_555
O4_4 C44_7 1_555 1_555
O7_4 In4_4 1_555 1_555
O1_7 C15_7 1_555 1_555
O3_4 C43_7 1_555 1_555
O11_4 C22_7 1_555 1_555
O12_4 C22_7 1_555 1_555
C1_7 H1_7 1_555 1_555
C2_5 C8_5 1_555 1_555
C3_7 C16_7 1_555 1_555
C4_7 H2_7 1_555 1_555
C5_7 N2_7 1_555 1_555
N1_7 C11_7 1_555 1_555
C6_7 C4_7 1_555 1_555
C7_7 C25_7 1_555 1_555
C8_5 C9_5 1_555 1_555
N2_7 C32_7 1_555 1_555
C9_5 C5_7 1_555 1_555
H3_5 C9_5 1_555 1_555
C10_7 C8_5 1_555 1_555
H4_7 C10_7 1_555 1_555
C11_7 C13_7 1_555 1_555
C12_7 C15_7 1_555 1_555
C13_7 C23_7 1_555 1_555
C14_7 H5_5 1_555 1_555
C16_7 H6_7 1_555 1_555
C17_7 C2_5 1_555 1_555
H7_7 C17_7 1_555 1_555
C18_7 C12_7 1_555 1_555
H8_7 C18_7 1_555 1_555
C19_7 C26_7 1_555 1_555
C20_7 C1_7 1_555 1_555
H9_7 C20_7 1_555 1_555
C21_7 C12_7 1_555 1_555
H10_7 C21_7 1_555 1_555
C22_7 C36_7 1_555 1_555
C23_7 H11_7 1_555 1_555
C24_7 H12_7 1_555 1_555
C25_7 N1_7 1_555 1_555
C26_7 C25_7 1_555 1_555
H13_7 C26_7 1_555 1_555
C27_7 C19_7 1_555 1_555
C28_7 C23_7 1_555 1_555
H14_7 C28_7 1_555 1_555
C29_5 C27_7 1_555 1_555
H15_5 C29_5 1_555 1_555
O8_4 C43_7 1_555 1_555
C30_7 C11_7 1_555 1_555
H16_7 C30_7 1_555 1_555
C31_7 C17_7 1_555 1_555
H17_7 C31_7 1_555 1_555
C32_7 C3_7 1_555 1_555
C33_7 C20_7 1_555 1_555
C34_7 C4_7 1_555 1_555
H18_7 C34_7 1_555 1_555
C35_7 C3_7 1_555 1_555
H19_7 C35_7 1_555 1_555
C36_7 C24_7 1_555 1_555
C37_5 C2_5 1_555 1_555
H20_5 C37_5 1_555 1_555
C38_7 C7_7 1_555 1_555
H21_7 C38_7 1_555 1_555
C39_7 C13_7 1_555 1_555
H22_7 C39_7 1_555 1_555
C40_7 C1_7 1_555 1_555
C41_7 C14_7 1_555 1_555
H23_5 C41_7 1_555 1_555
C42_7 C6_7 1_555 1_555
C43_7 C33_7 1_555 1_555
In4_3 O3_4 1_555 1_555
C5_7 C40_7 1_555 1_555
C7_7 C34_7 1_555 1_555
C10_7 C32_7 1_555 1_555
C14_7 C40_7 1_555 1_555
C16_7 C18_7 1_555 1_555
C19_7 C30_7 1_555 1_555
C21_7 C35_7 1_555 1_555
C24_7 C39_7 1_555 1_555
C27_7 C31_7 1_555 1_555
C28_7 C36_7 1_555 1_555
C29_5 C37_5 1_555 1_555
O8_4 In4_3 1_555 1_555
C33_7 C41_7 1_555 1_555
C38_7 C42_7 1_555 1_555
O2_7 In4_4 1_555 1_555
O9_4 In4_4 1_555 1_555
O14_4 In4_4 1_555 1_555
O9_4 C43_8 1_555 1_555
C1_8 H1_8 1_555 1_555
C3_8 C16_8 1_555 1_555
C5_8 N2_8 1_555 1_555
N2_8 C32_8 1_555 1_555
C16_8 H6_8 1_555 1_555
H8_8 C18_8 1_555 1_555
C20_8 C1_8 1_555 1_555
H9_8 C20_8 1_555 1_555
O14_4 C43_8 1_555 1_555
C32_8 C3_8 1_555 1_555
C33_8 C20_8 1_555 1_555
C40_8 C1_8 1_555 1_555
C41_8 C14_8 1_555 1_555
C43_8 C33_8 1_555 1_555
C5_8 C40_8 1_555 1_555
C10_8 C32_8 1_555 1_555
C14_8 C40_8 1_555 1_555
C16_8 C18_8 1_555 1_555
C33_8 C41_8 1_555 1_555
O2_8 In4_3 1_555 1_555
O13_4 In4_3 1_555 1_555
O1_8 C15_8 1_555 1_555
C12_8 C15_8 1_555 1_555
C21_8 C12_8 1_555 1_555
H10_8 C21_8 1_555 1_555
H19_8 C35_8 1_555 1_555
C21_8 C35_8 1_555 1_555
O10_4 C44_8 1_555 1_555
O11_3 C22_8 1_555 1_555
O12_3 C22_8 1_555 1_555
C4_8 H2_8 1_555 1_555
N1_8 C11_8 1_555 1_555
C6_8 C4_8 1_555 1_555
C7_8 C25_8 1_555 1_555
C11_8 C13_8 1_555 1_555
C13_8 C23_8 1_555 1_555
H7_8 C17_8 1_555 1_555
C19_8 C26_8 1_555 1_555
C22_8 C36_8 1_555 1_555
C23_8 H11_8 1_555 1_555
C24_8 H12_8 1_555 1_555
C25_8 N1_8 1_555 1_555
C26_8 C25_8 1_555 1_555
H13_8 C26_8 1_555 1_555
C27_8 C19_8 1_555 1_555
C28_8 C23_8 1_555 1_555
H14_8 C28_8 1_555 1_555
C30_8 C11_8 1_555 1_555
H16_8 C30_8 1_555 1_555
C31_8 C17_8 1_555 1_555
H17_8 C31_8 1_555 1_555
C34_8 C4_8 1_555 1_555
H18_8 C34_8 1_555 1_555
C36_8 C24_8 1_555 1_555
C38_8 C7_8 1_555 1_555
H21_8 C38_8 1_555 1_555
C39_8 C13_8 1_555 1_555
H22_8 C39_8 1_555 1_555
C42_8 C6_8 1_555 1_555
H24_8 C42_8 1_555 1_555
C44_8 C6_8 1_555 1_555
C7_8 C34_8 1_555 1_555
C19_8 C30_8 1_555 1_555
C24_8 C39_8 1_555 1_555
C27_8 C31_8 1_555 1_555
C28_8 C36_8 1_555 1_555
C38_8 C42_8 1_555 1_555
C2_6 C8_6 1_555 1_555
C8_6 C9_6 1_555 1_555
H3_6 C9_6 1_555 1_555
H15_6 C29_6 1_555 1_555
C37_6 C2_6 1_555 1_555
H20_6 C37_6 1_555 1_555
C29_6 C37_6 1_555 1_555
C2_7 C8_7 1_555 1_555
C8_7 C9_7 1_555 1_555
H3_7 C9_7 1_555 1_555
H15_7 C29_7 1_555 1_555
C37_7 C2_7 1_555 1_555
H20_7 C37_7 1_555 1_555
C29_7 C37_7 1_555 1_555
C2_8 C8_8 1_555 1_555
C8_8 C9_8 1_555 1_555
H3_8 C9_8 1_555 1_555
H15_8 C29_8 1_555 1_555
C37_8 C2_8 1_555 1_555
H20_8 C37_8 1_555 1_555
C29_8 C37_8 1_555 1_555

#END
