
###############################################################################
#
# This file contains modified crystal structure data generated from the
# MOF subset of the Cambridge Structural Database (CSD) v543 
# hosted by the Cambridge Crystallographic Data Centre (CCDC).
#
# This work is licensed under the Creative Commons
# Attribution-NonCommercial-ShareAlike 4.0 International License.
# To view a copy of this license, visit
# http://creativecommons.org/licenses/by-nc-sa/4.0/
# or send a letter to
# Creative Commons, PO Box 1866, Mountain View, CA 94042, USA.
#
# CIF created using the CSD Python API on 29 September 2022
# The structure has been converted into the P1 space group
# The structure has a 3D framework
# The original CSD entry NOZZOT is in the triclinic crystal system
# The framework has been calculated to contain at least 10.0% void space
# The void calculation uses a probe of radius 1.32A, grid spacing 0.4
#
###############################################################################

data_NOZZOT
_chemical_formula_moiety         '(C72 H72 Cd8 N4 O22 Si2 2+)n'
_symmetry_cell_setting           triclinic
_symmetry_space_group_name_H-M   'P 1'
_symmetry_Int_Tables_number      1
_space_group_name_Hall           'P 1'
loop_
_symmetry_equiv_pos_site_id
_symmetry_equiv_pos_as_xyz
1 x,y,z
_cell_length_a                   14.0970(19)
_cell_length_b                   14.2015(19)
_cell_length_c                   14.2649(19)
_cell_angle_alpha                115.6630(10)
_cell_angle_beta                 113.6270(10)
_cell_angle_gamma                97.603(2)
_cell_volume                     2190.59
loop_
_atom_site_label
_atom_site_type_symbol
_atom_site_fract_x
_atom_site_fract_y
_atom_site_fract_z
Cd13 Cd 0.0000 0.0000 0.0000
Cd13_2 Cd 0.0000 0.0000 1.0000
Cd6 Cd 0.005654(11) 0.886635(12) 0.186954(12)
Cd13_3 Cd 0.0000 1.0000 0.0000
Cd13_4 Cd 0.0000 1.0000 1.0000
Cd13_5 Cd 1.0000 0.0000 0.0000
Cd13_6 Cd 1.0000 0.0000 1.0000
O1 O 0.01879(14) 0.72021(13) 0.03279(15)
O2 O 0.07789(12) 0.89195(12) 0.07076(12)
O3 O 0.82670(12) 0.81659(14) 0.05562(14)
C5 C 0.06714(17) 0.78778(17) 0.01858(18)
Cd13_7 Cd 1.0000 1.0000 0.0000
Si1 Si 0.26351(4) 0.64836(4) 0.68439(5)
O4 O 0.82871(13) 0.90796(14) 0.96122(16)
C1 C 0.42041(16) 0.70440(17) 0.77459(18)
O5 O 0.05978(14) 0.06926(13) 0.31534(15)
C2 C 0.20702(16) 0.68322(17) 0.78868(18)
C3 C 0.11823(17) 0.75135(17) 0.94104(18)
C4 C 0.21825(17) 0.71808(17) 0.59739(18)
O6 O 0.04866(16) 0.12317(14) 0.18642(14)
C6 C 0.11887(17) 0.26359(17) 0.38777(18)
C7 C 0.17116(17) 0.29775(17) 0.50902(19)
H1 H 0.1770 0.2435 0.5309
C8 C 0.07148(17) 0.14149(18) 0.28816(19)
C9 C 0.20681(16) 0.49352(16) 0.56958(18)
C10 C 0.21494(17) 0.41127(17) 0.59847(18)
H2 H 0.2512 0.4336 0.6811
C11 C 0.15384(18) 0.45668(18) 0.44663(19)
H3 H 0.1467 0.5102 0.4239
C12 C 0.09533(18) 0.63781(18) 0.8669(2)
H4 H 0.0505 0.5831 0.8686
C13 C 0.11160(18) 0.34369(18) 0.35748(19)
H5 H 0.0773 0.3210 0.2748
C14 C 0.18635(18) 0.83108(18) 0.9408(2)
H6 H 0.2025 0.9088 0.9915
O8 O 0.14915(13) 0.86110(15) 0.31622(15)
C15 C 0.13478(18) 0.79134(18) 0.43725(19)
C16 C 0.78161(17) 0.84429(17) 0.98083(19)
C17 C 0.65567(16) 0.79502(17) 0.90902(18)
C18 C 0.08806(18) 0.82805(18) 0.3495(2)
C19 C 0.48078(18) 0.81625(18) 0.8225(2)
H7 H 0.4415 0.8635 0.8112
C20 C 0.48164(18) 0.63926(18) 0.7976(2)
H8 H 0.4434 0.5626 0.7657
C21 C 0.13805(18) 0.60437(17) 0.79031(19)
H9 H 0.1200 0.5265 0.7381
C22 C 0.59619(18) 0.86039(18) 0.8862(2)
H10 H 0.6348 0.9358 0.9143
C23 C 0.11346(19) 0.7258(2) 0.5600(2)
H11 H 0.0694 0.7059 0.5892
C24 C 0.28055(17) 0.74965(19) 0.5536(2)
H12 H 0.3527 0.7461 0.5783
C25 C 0.23994(18) 0.78613(19) 0.4747(2)
H13 H 0.2843 0.8075 0.4465
C26 C 0.59769(18) 0.68473(18) 0.8664(2)
H14 H 0.6374 0.6400 0.8844
C27 C 0.23080(19) 0.79729(18) 0.8665(2)
H15 H 0.2786 0.8527 0.8683
C28 C 0.07227(19) 0.7618(2) 0.4811(2)
H16 H 0.0005 0.7663 0.4569
Cd13_8 Cd 1.0000 1.0000 1.0000
O24 O 0.17129(13) 0.09204(14) 0.03878(16)
O22 O 0.17330(12) 0.18341(14) 0.94438(14)
O26 O 0.00997(13) 0.17442(14) 0.68886(15)
O7 O 0.99003(13) 0.82558(14) 0.31114(15)
Cd3 Cd 0.994346(11) 0.113365(12) 0.813046(12)
O18 O 0.98121(14) 0.27979(13) 0.96721(15)
O20 O 0.92211(12) 0.10805(12) 0.92924(12)
O28 O 0.85085(13) 0.13890(15) 0.68378(15)
Si2 Si 0.73649(4) 0.35164(4) 0.31561(5)
C29 C 0.57959(16) 0.29560(17) 0.22541(18)
O13 O 0.94022(14) 0.93074(13) 0.68466(15)
C30 C 0.79298(16) 0.31678(17) 0.21132(18)
C31 C 0.88177(17) 0.24865(17) 0.05896(18)
C32 C 0.78175(17) 0.28192(17) 0.40261(18)
O14 O 0.95134(16) 0.87683(14) 0.81358(14)
C34 C 0.88113(17) 0.73641(17) 0.61223(18)
C35 C 0.82884(17) 0.70225(17) 0.49098(19)
H17 H 0.8230 0.7565 0.4691
C36 C 0.92852(17) 0.85851(18) 0.71184(19)
C37 C 0.79319(16) 0.50648(16) 0.43042(18)
C38 C 0.78506(17) 0.58873(17) 0.40153(18)
H18 H 0.7488 0.5664 0.3189
C39 C 0.84616(18) 0.54332(18) 0.55337(19)
H19 H 0.8533 0.4898 0.5761
C40 C 0.90467(18) 0.36219(18) 0.1331(2)
H20 H 0.9495 0.4169 0.1314
C41 C 0.88840(18) 0.65631(18) 0.64252(19)
H21 H 0.9227 0.6790 0.7252
C42 C 0.81365(18) 0.16892(18) 0.0592(2)
H22 H 0.7975 0.0912 0.0085
C43 C 0.86522(18) 0.20866(18) 0.56275(19)
C44 C 0.21839(17) 0.15571(17) 0.01917(19)
C45 C 0.34433(16) 0.20498(17) 0.09098(18)
C46 C 0.91194(18) 0.17195(18) 0.6505(2)
C47 C 0.51922(18) 0.18375(18) 0.1775(2)
H23 H 0.5585 0.1365 0.1888
C48 C 0.51836(18) 0.36074(18) 0.2024(2)
H24 H 0.5566 0.4374 0.2343
C49 C 0.86195(18) 0.39563(17) 0.20969(19)
H25 H 0.8800 0.4735 0.2619
C50 C 0.40381(18) 0.13961(18) 0.1138(2)
H26 H 0.3652 0.0642 0.0857
C51 C 0.88654(19) 0.2742(2) 0.4400(2)
H27 H 0.9306 0.2941 0.4108
C52 C 0.71945(17) 0.25035(19) 0.4464(2)
H28 H 0.6473 0.2539 0.4217
C53 C 0.76006(18) 0.21387(19) 0.5253(2)
H29 H 0.7157 0.1925 0.5535
C54 C 0.40231(18) 0.31527(18) 0.1336(2)
H30 H 0.3626 0.3600 0.1156
C55 C 0.76920(19) 0.20271(18) 0.1335(2)
H31 H 0.7214 0.1473 0.1317
C56 C 0.92773(19) 0.2382(2) 0.5189(2)
H32 H 0.9995 0.2337 0.5431
C33 C 0.93286(17) 0.21222(17) 0.98142(18)
Cd14 Cd 0.5000 0.0000 0.5000
O29 O 0.65780(14) 0.12426(15) 0.67740(16)
O31 O 0.39620(15) 0.05682(15) 0.58708(16)
N1 N 0.3131(2) 0.0859(2) 0.6968(2)
C58 C 0.3976(2) 0.0698(2) 0.6801(2)
C61 C 0.4938(3) 0.0670(3) 0.7748(3)
H39 H 0.5439 0.1441 0.8421
H40 H 0.5345 0.0287 0.7393
H41 H 0.4656 0.0265 0.8048
C62 C 0.2170(3) 0.0888(3) 0.6078(3)
H42 H 0.2257 0.0748 0.5387
H43 H 0.2119 0.1629 0.6450
H44 H 0.1489 0.0308 0.5800
C64 C 0.3066(5) 0.0981(5) 0.8004(4)
H48 H 0.3805 0.1439 0.8737
H49 H 0.2809 0.0237 0.7877
H50 H 0.2541 0.1350 0.8097
H51 H 0.659(3) 0.188(3) 0.721(3)
H52 H 0.722(3) 0.137(3) 0.685(3)
O33 O 0.50073(13) 0.14788(14) 0.47194(16)
C65 C 0.42975(19) 0.1809(2) 0.4226(2)
N4 N 0.45424(18) 0.29064(18) 0.4672(2)
C67 C 0.3826(3) 0.3389(3) 0.4112(3)
H53 H 0.4225 0.3828 0.3919
H54 H 0.3148 0.2783 0.3366
H55 H 0.3626 0.3880 0.4675
C68 C 0.3172(2) 0.0983(2) 0.3148(3)
H56 H 0.3192 0.0226 0.2803
H57 H 0.2618 0.0998 0.3399
H58 H 0.2970 0.1185 0.2538
C71 C 0.5592(3) 0.3728(2) 0.5793(3)
H65 H 0.5961 0.3348 0.6173
H66 H 0.6077 0.4086 0.5610
H67 H 0.5439 0.4302 0.6348
Cd14_2 Cd 0.5000 1.0000 0.5000
O30 O 0.49927(13) 0.85212(14) 0.52806(16)
C57 C 0.57025(19) 0.8191(2) 0.5774(2)
N2 N 0.54576(18) 0.70936(18) 0.5328(2)
C59 C 0.6174(3) 0.6611(3) 0.5888(3)
H33 H 0.5775 0.6172 0.6081
H34 H 0.6852 0.7217 0.6634
H35 H 0.6374 0.6120 0.5325
C60 C 0.6828(2) 0.9017(2) 0.6852(3)
H36 H 0.6808 0.9774 0.7197
H37 H 0.7382 0.9002 0.6601
H38 H 0.7030 0.8815 0.7462
C63 C 0.4408(3) 0.6272(2) 0.4207(3)
H45 H 0.4039 0.6652 0.3827
H46 H 0.3923 0.5914 0.4390
H47 H 0.4561 0.5698 0.3652
O32 O 0.34220(14) 0.87574(15) 0.32260(16)
O34 O 0.60380(15) 0.94318(15) 0.41292(16)
N3 N 0.6869(2) 0.9141(2) 0.3032(2)
C66 C 0.6024(2) 0.9302(2) 0.3199(2)
C69 C 0.5062(3) 0.9330(3) 0.2252(3)
H59 H 0.4561 0.8559 0.1579
H60 H 0.4655 0.9713 0.2607
H61 H 0.5344 0.9735 0.1952
C70 C 0.7830(3) 0.9112(3) 0.3922(3)
H62 H 0.7743 0.9252 0.4613
H63 H 0.7881 0.8371 0.3550
H64 H 0.8511 0.9692 0.4200
C72 C 0.6934(5) 0.9019(5) 0.1996(4)
H68 H 0.6195 0.8561 0.1263
H69 H 0.7191 0.9763 0.2123
H70 H 0.7459 0.8650 0.1903
H71 H 0.341(3) 0.812(3) 0.279(3)
H72 H 0.278(3) 0.863(3) 0.315(3)
loop_
_geom_bond_atom_site_label_1
_geom_bond_atom_site_label_2
_geom_bond_site_symmetry_1
_geom_bond_site_symmetry_2
O1 C5 1_555 1_555
O2 C5 1_555 1_555
Cd6 O1 1_555 1_555
Cd13_3 O2 1_555 1_555
O2 Cd6 1_555 1_555
Cd13 O6 1_555 1_555
Si1 C1 1_555 1_555
O4 C16 1_555 1_555
C1 C19 1_555 1_555
O5 C8 1_555 1_555
C2 Si1 1_555 1_555
C4 Si1 1_555 1_555
O6 C8 1_555 1_555
C6 C7 1_555 1_555
C7 H1 1_555 1_555
C8 C6 1_555 1_555
C9 Si1 1_555 1_555
C10 C7 1_555 1_555
H2 C10 1_555 1_555
C11 C9 1_555 1_555
H3 C11 1_555 1_555
C12 C3 1_555 1_555
H4 C12 1_555 1_555
C13 C6 1_555 1_555
H5 C13 1_555 1_555
C14 C3 1_555 1_555
H6 C14 1_555 1_555
O8 C18 1_555 1_555
C15 C18 1_555 1_555
C16 C17 1_555 1_555
C17 C22 1_555 1_555
C19 H7 1_555 1_555
C20 C1 1_555 1_555
H8 C20 1_555 1_555
C21 C2 1_555 1_555
H9 C21 1_555 1_555
C22 C19 1_555 1_555
H10 C22 1_555 1_555
C23 C4 1_555 1_555
H11 C23 1_555 1_555
C24 C4 1_555 1_555
H12 C24 1_555 1_555
C25 C15 1_555 1_555
H13 C25 1_555 1_555
C26 C17 1_555 1_555
H14 C26 1_555 1_555
C27 C2 1_555 1_555
H15 C27 1_555 1_555
C28 C15 1_555 1_555
H16 C28 1_555 1_555
Cd13_8 O4 1_555 1_555
O24 Cd13 1_555 1_555
C9 C10 1_555 1_555
C11 C13 1_555 1_555
C12 C21 1_555 1_555
C14 C27 1_555 1_555
O8 Cd6 1_555 1_555
C20 C26 1_555 1_555
C23 C28 1_555 1_555
C24 C25 1_555 1_555
O18 Cd3 1_555 1_555
O20 Cd13_6 1_555 1_555
O28 Cd3 1_555 1_555
Cd3 O20 1_555 1_555
Si2 C29 1_555 1_555
O24 C44 1_555 1_555
C29 C47 1_555 1_555
O13 C36 1_555 1_555
C30 Si2 1_555 1_555
C32 Si2 1_555 1_555
O14 Cd13_8 1_555 1_555
C34 C35 1_555 1_555
C35 H17 1_555 1_555
C36 O14 1_555 1_555
C37 Si2 1_555 1_555
C38 C35 1_555 1_555
H18 C38 1_555 1_555
C39 C37 1_555 1_555
H19 C39 1_555 1_555
C40 C31 1_555 1_555
H20 C40 1_555 1_555
C41 C34 1_555 1_555
H21 C41 1_555 1_555
C42 C31 1_555 1_555
H22 C42 1_555 1_555
O28 C46 1_555 1_555
C43 C46 1_555 1_555
C44 C45 1_555 1_555
C45 C50 1_555 1_555
C47 H23 1_555 1_555
C48 C29 1_555 1_555
H24 C48 1_555 1_555
C49 C30 1_555 1_555
H25 C49 1_555 1_555
C50 C47 1_555 1_555
H26 C50 1_555 1_555
C51 C32 1_555 1_555
H27 C51 1_555 1_555
C52 C32 1_555 1_555
H28 C52 1_555 1_555
C53 C43 1_555 1_555
H29 C53 1_555 1_555
C54 C45 1_555 1_555
H30 C54 1_555 1_555
C55 C30 1_555 1_555
H31 C55 1_555 1_555
C56 C43 1_555 1_555
H32 C56 1_555 1_555
C34 C36 1_555 1_555
C37 C38 1_555 1_555
C39 C41 1_555 1_555
C40 C49 1_555 1_555
C42 C55 1_555 1_555
C48 C54 1_555 1_555
C51 C56 1_555 1_555
C52 C53 1_555 1_555
O18 C33 1_555 1_555
O20 C33 1_555 1_555
Cd14 O29 1_555 1_555
O29 H51 1_555 1_555
O31 Cd14 1_555 1_555
N1 C58 1_555 1_555
C58 O31 1_555 1_555
C61 C58 1_555 1_555
H39 C61 1_555 1_555
H40 C61 1_555 1_555
H41 C61 1_555 1_555
C62 N1 1_555 1_555
H42 C62 1_555 1_555
H43 C62 1_555 1_555
H44 C62 1_555 1_555
C64 N1 1_555 1_555
H48 C64 1_555 1_555
H49 C64 1_555 1_555
H50 C64 1_555 1_555
H52 O29 1_555 1_555
O33 Cd14 1_555 1_555
C65 O33 1_555 1_555
N4 C65 1_555 1_555
C67 N4 1_555 1_555
H53 C67 1_555 1_555
H54 C67 1_555 1_555
H55 C67 1_555 1_555
C68 C65 1_555 1_555
H56 C68 1_555 1_555
H57 C68 1_555 1_555
H58 C68 1_555 1_555
C71 N4 1_555 1_555
H65 C71 1_555 1_555
H66 C71 1_555 1_555
H67 C71 1_555 1_555
O30 Cd14_2 1_555 1_555
C57 O30 1_555 1_555
N2 C57 1_555 1_555
C59 N2 1_555 1_555
H33 C59 1_555 1_555
H34 C59 1_555 1_555
H35 C59 1_555 1_555
C60 C57 1_555 1_555
H36 C60 1_555 1_555
H37 C60 1_555 1_555
H38 C60 1_555 1_555
C63 N2 1_555 1_555
H45 C63 1_555 1_555
H46 C63 1_555 1_555
H47 C63 1_555 1_555
O32 Cd14_2 1_555 1_555
O34 Cd14_2 1_555 1_555
N3 C66 1_555 1_555
C66 O34 1_555 1_555
C69 C66 1_555 1_555
H59 C69 1_555 1_555
H60 C69 1_555 1_555
H61 C69 1_555 1_555
C70 N3 1_555 1_555
H62 C70 1_555 1_555
H63 C70 1_555 1_555
H64 C70 1_555 1_555
C72 N3 1_555 1_555
H68 C72 1_555 1_555
H69 C72 1_555 1_555
H70 C72 1_555 1_555
H71 O32 1_555 1_555
H72 O32 1_555 1_555

#END
