
###############################################################################
#
# This file contains modified crystal structure data generated from the
# MOF subset of the Cambridge Structural Database (CSD) v543 
# hosted by the Cambridge Crystallographic Data Centre (CCDC).
#
# This work is licensed under the Creative Commons
# Attribution-NonCommercial-ShareAlike 4.0 International License.
# To view a copy of this license, visit
# http://creativecommons.org/licenses/by-nc-sa/4.0/
# or send a letter to
# Creative Commons, PO Box 1866, Mountain View, CA 94042, USA.
#
# CIF created using the CSD Python API on 29 September 2022
# The structure has been converted into the P1 space group
# The structure has a 3D framework
# The original CSD entry NOZZUZ is in the monoclinic crystal system
# The framework has been calculated to contain at least 10.0% void space
# The void calculation uses a probe of radius 1.32A, grid spacing 0.4
#
###############################################################################

data_NOZZUZ
_chemical_formula_moiety         '(C224 H128 Cd12 O64 Si8)n'
_symmetry_cell_setting           triclinic
_symmetry_space_group_name_H-M   'P 1'
_symmetry_Int_Tables_number      1
_space_group_name_Hall           'P 1'
loop_
_symmetry_equiv_pos_site_id
_symmetry_equiv_pos_as_xyz
1 x,y,z
_cell_length_a                   26.567(5)
_cell_length_b                   14.332(3)
_cell_length_c                   25.354(7)
_cell_angle_alpha                90
_cell_angle_beta                 119.200(2)
_cell_angle_gamma                90
_cell_volume                     8426.97
loop_
_atom_site_label
_atom_site_type_symbol
_atom_site_fract_x
_atom_site_fract_y
_atom_site_fract_z
Cd6 Cd 0.664831(6) 0.032942(10) 0.967198(7)
Cd2 Cd 0.2500 0.7500 -0.0000
Cd3 Cd 0.835169(6) 0.467058(10) 0.032802(7)
Si2 Si 0.56388(2) 0.46498(4) 0.14165(3)
C29 C 0.51080(9) 0.56305(15) 0.10919(10)
C30 C 0.61456(9) 0.46064(15) 0.11017(10)
O9 O 0.77573(7) 0.37780(11) 0.06660(7)
O10 O 0.70822(7) 0.64623(11) 0.42618(7)
O11 O 0.33759(6) 0.77341(12) 0.00834(7)
O12 O 0.76786(9) 0.53055(12) 0.05473(11)
C31 C 0.52284(9) 0.35245(15) 0.12425(10)
C32 C 0.68297(9) 0.54195(14) 0.34527(10)
C33 C 0.70360(10) 0.45518(16) 0.08066(11)
C34 C 0.62891(11) 0.53987(16) 0.08796(13)
H17 H 0.6081 0.5962 0.0826
C35 C 0.68828(10) 0.37503(16) 0.10012(11)
H18 H 0.7079 0.3181 0.1033
C36 C 0.72406(9) 0.57660(15) 0.40798(10)
C37 C 0.45196(9) 0.54729(15) 0.07711(10)
H19 H 0.4381 0.4849 0.0691
C38 C 0.64478(10) 0.37758(15) 0.11494(11)
H20 H 0.6350 0.3223 0.1286
C39 C 0.58939(10) 0.5402(2) 0.25705(12)
H21 H 0.5499 0.5574 0.2382
C40 C 0.60922(9) 0.48779(14) 0.22467(10)
C41 C 0.66677(11) 0.45968(18) 0.25600(12)
H22 H 0.6816 0.4220 0.2359
C42 C 0.67273(12) 0.53750(17) 0.07370(14)
H23 H 0.6820 0.5922 0.0590
C43 C 0.75179(11) 0.45471(17) 0.06635(12)
C44 C 0.70296(11) 0.48507(19) 0.31564(12)
H24 H 0.7416 0.4632 0.3361
C45 C 0.62571(10) 0.5679(2) 0.31607(12)
H25 H 0.6111 0.6050 0.3366
C46 C 0.52904(10) 0.65621(17) 0.11919(14)
H26 H 0.5692 0.6695 0.1407
O13 O 0.77066(7) 0.53241(13) 0.43650(8)
O14 O 0.40766(7) 0.86954(12) 0.06724(10)
C47 C 0.41299(9) 0.61985(16) 0.05644(10)
H27 H 0.3729 0.6068 0.0347
O15 O 0.38096(9) 0.09243(13) 0.01770(9)
O16 O 0.40304(10) 0.07219(16) 0.11165(11)
C48 C 0.43148(8) 0.71096(15) 0.06688(10)
C49 C 0.44961(10) 0.19650(16) 0.09093(12)
C50 C 0.38911(9) 0.78924(16) 0.04601(11)
C51 C 0.49460(11) 0.32027(18) 0.06471(12)
H28 H 0.5004 0.3516 0.0351
C52 C 0.45842(12) 0.24367(18) 0.04807(13)
H29 H 0.4395 0.2231 0.0073
C53 C 0.40864(11) 0.11470(17) 0.07208(13)
C54 C 0.49015(10) 0.72950(17) 0.09857(14)
H30 H 0.5036 0.7921 0.1061
C55 C 0.51423(11) 0.30384(18) 0.16637(12)
H31 H 0.5330 0.3243 0.2072
C56 C 0.47862(12) 0.22555(19) 0.15014(13)
H32 H 0.4744 0.1921 0.1801
Cd4 Cd 0.835169(6) 0.532942(10) 0.532802(7)
Cd9 Cd 0.335169(6) 0.967058(10) 0.032802(7)
Cd10 Cd 0.7500 0.7500 0.5000
Cd11 Cd 0.7500 0.2500 -0.0000
O17 O 0.27573(7) 0.87780(11) 0.06660(7)
O19 O 0.29178(7) 0.64623(11) 0.07382(7)
O22 O 0.22934(7) 0.53241(13) 0.06350(8)
O24 O 0.90766(7) 0.36954(12) 0.06724(10)
O26 O 0.88096(9) 0.59243(13) 0.01770(9)
O28 O 0.90304(10) 0.57219(16) 0.11165(11)
Cd1 Cd 0.164831(6) 0.532942(10) 0.967198(7)
Cd2_2 Cd 0.2500 0.7500 1.0000
Si1 Si 0.43612(2) 0.53502(4) 0.85835(3)
C1 C 0.48920(9) 0.43695(15) 0.89081(10)
C2 C 0.38544(9) 0.53936(15) 0.88983(10)
O1 O 0.22427(7) 0.62220(11) 0.93340(7)
O2 O 0.29178(7) 0.35377(11) 0.57382(7)
O3 O 0.66241(6) 0.22659(12) 0.99166(7)
O4 O 0.23214(9) 0.46945(12) 0.94527(11)
C3 C 0.47716(9) 0.64755(15) 0.87575(10)
C4 C 0.31703(9) 0.45805(14) 0.65473(10)
C5 C 0.29640(10) 0.54482(16) 0.91934(11)
C6 C 0.37109(11) 0.46013(16) 0.91204(13)
H1 H 0.3919 0.4038 0.9174
C7 C 0.31172(10) 0.62497(16) 0.89988(11)
H2 H 0.2921 0.6819 0.8967
C8 C 0.27594(9) 0.42340(15) 0.59202(10)
C9 C 0.54804(9) 0.45271(15) 0.92289(10)
H3 H 0.5619 0.5151 0.9309
C10 C 0.35522(10) 0.62242(15) 0.88506(11)
H4 H 0.3650 0.6777 0.8714
C11 C 0.41061(10) 0.4598(2) 0.74295(12)
H5 H 0.4501 0.4426 0.7618
C12 C 0.39078(9) 0.51221(14) 0.77533(10)
C13 C 0.33323(11) 0.54032(18) 0.74400(12)
H6 H 0.3184 0.5780 0.7641
C14 C 0.32727(12) 0.46250(17) 0.92630(14)
H7 H 0.3180 0.4078 0.9410
C15 C 0.24821(11) 0.54529(17) 0.93365(12)
C16 C 0.29704(11) 0.51493(19) 0.68436(12)
H8 H 0.2584 0.5368 0.6639
C17 C 0.37429(10) 0.4321(2) 0.68393(12)
H9 H 0.3889 0.3950 0.6634
C18 C 0.47096(10) 0.34379(17) 0.88081(14)
H10 H 0.4308 0.3305 0.8593
O5 O 0.22934(7) 0.46759(13) 0.56350(8)
O6 O 0.59234(7) 0.13046(12) 0.93276(10)
C19 C 0.58701(9) 0.38015(16) 0.94356(10)
H11 H 0.6271 0.3932 0.9653
O7 O 0.61904(9) 0.90757(13) 0.98230(9)
O8 O 0.59696(10) 0.92781(16) 0.88835(11)
C20 C 0.56852(8) 0.28904(15) 0.93312(10)
C21 C 0.55039(10) 0.80350(16) 0.90907(12)
C22 C 0.61089(9) 0.21076(16) 0.95399(11)
C23 C 0.50540(11) 0.67973(18) 0.93529(12)
H12 H 0.4996 0.6484 0.9649
C24 C 0.54158(12) 0.75633(18) 0.95193(13)
H13 H 0.5605 0.7769 0.9927
C25 C 0.59136(11) 0.88530(17) 0.92792(13)
C26 C 0.50985(10) 0.27050(17) 0.90143(14)
H14 H 0.4964 0.2079 0.8939
C27 C 0.48577(11) 0.69616(18) 0.83363(12)
H15 H 0.4670 0.6757 0.7928
C28 C 0.52138(12) 0.77445(19) 0.84986(13)
H16 H 0.5256 0.8079 0.8199
Cd7 Cd 0.164831(6) 0.467058(10) 0.467198(7)
Cd11_2 Cd 0.7500 0.2500 1.0000
Cd12 Cd 0.2500 0.2500 0.5000
O18 O 0.20822(7) 0.85377(11) 0.92618(7)
O20 O 0.16241(6) 0.72659(12) 0.99166(7)
O21 O 0.77066(7) 0.46759(13) 0.93650(8)
O23 O 0.09234(7) 0.63046(12) 0.93276(10)
O25 O 0.11904(9) 0.40757(13) 0.98230(9)
O27 O 0.09696(10) 0.42781(16) 0.88835(11)
Cd6_2 Cd 0.335169(6) 0.032942(10) 0.532802(7)
Si1_2 Si 0.56388(2) 0.53502(4) 0.64165(3)
C1_2 C 0.51080(9) 0.43695(15) 0.60919(10)
C2_2 C 0.61456(9) 0.53936(15) 0.61017(10)
O1_2 O 0.77573(7) 0.62220(11) 0.56660(7)
O2_2 O 0.70822(7) 0.35377(11) 0.92618(7)
O3_2 O 0.33759(6) 0.22659(12) 0.50834(7)
O4_2 O 0.76786(9) 0.46945(12) 0.55473(11)
C3_2 C 0.52284(9) 0.64755(15) 0.62425(10)
C4_2 C 0.68297(9) 0.45805(14) 0.84527(10)
C5_2 C 0.70360(10) 0.54482(16) 0.58066(11)
C6_2 C 0.62891(11) 0.46013(16) 0.58796(13)
H1_2 H 0.6081 0.4038 0.5826
C7_2 C 0.68828(10) 0.62497(16) 0.60012(11)
H2_2 H 0.7079 0.6819 0.6033
C8_2 C 0.72406(9) 0.42340(15) 0.90798(10)
C9_2 C 0.45196(9) 0.45271(15) 0.57711(10)
H3_2 H 0.4381 0.5151 0.5691
C10_2 C 0.64478(10) 0.62242(15) 0.61494(11)
H4_2 H 0.6350 0.6777 0.6286
C11_2 C 0.58939(10) 0.4598(2) 0.75705(12)
H5_2 H 0.5499 0.4426 0.7382
C12_2 C 0.60922(9) 0.51221(14) 0.72467(10)
C13_2 C 0.66677(11) 0.54032(18) 0.75600(12)
H6_2 H 0.6816 0.5780 0.7359
C14_2 C 0.67273(12) 0.46250(17) 0.57370(14)
H7_2 H 0.6820 0.4078 0.5590
C15_2 C 0.75179(11) 0.54529(17) 0.56635(12)
C16_2 C 0.70296(11) 0.51493(19) 0.81564(12)
H8_2 H 0.7416 0.5368 0.8361
C17_2 C 0.62571(10) 0.4321(2) 0.81607(12)
H9_2 H 0.6111 0.3950 0.8366
C18_2 C 0.52904(10) 0.34379(17) 0.61919(14)
H10_2 H 0.5692 0.3305 0.6407
O6_2 O 0.40766(7) 0.13046(12) 0.56724(10)
C19_2 C 0.41299(9) 0.38015(16) 0.55644(10)
H11_2 H 0.3729 0.3932 0.5347
O7_2 O 0.38096(9) 0.90757(13) 0.51770(9)
O8_2 O 0.40304(10) 0.92781(16) 0.61165(11)
C20_2 C 0.43148(8) 0.28904(15) 0.56688(10)
C21_2 C 0.44961(10) 0.80350(16) 0.59093(12)
C22_2 C 0.38911(9) 0.21076(16) 0.54601(11)
C23_2 C 0.49460(11) 0.67973(18) 0.56471(12)
H12_2 H 0.5004 0.6484 0.5351
C24_2 C 0.45842(12) 0.75633(18) 0.54807(13)
H13_2 H 0.4395 0.7769 0.5073
C25_2 C 0.40864(11) 0.88530(17) 0.57208(13)
C26_2 C 0.49015(10) 0.27050(17) 0.59857(14)
H14_2 H 0.5036 0.2079 0.6061
C27_2 C 0.51423(11) 0.69616(18) 0.66637(12)
H15_2 H 0.5330 0.6757 0.7072
C28_2 C 0.47862(12) 0.77445(19) 0.65014(13)
H16_2 H 0.4744 0.8079 0.6801
Si2_2 Si 0.43612(2) 0.46498(4) 0.35835(3)
C29_2 C 0.48920(9) 0.56305(15) 0.39081(10)
C30_2 C 0.38544(9) 0.46064(15) 0.38983(10)
O9_2 O 0.22427(7) 0.37780(11) 0.43340(7)
O11_2 O 0.66241(6) 0.77341(12) 0.49166(7)
O12_2 O 0.23214(9) 0.53055(12) 0.44527(11)
C31_2 C 0.47716(9) 0.35245(15) 0.37575(10)
C32_2 C 0.31703(9) 0.54195(14) 0.15473(10)
C33_2 C 0.29640(10) 0.45518(16) 0.41934(11)
C34_2 C 0.37109(11) 0.53987(16) 0.41204(13)
H17_2 H 0.3919 0.5962 0.4174
C35_2 C 0.31172(10) 0.37503(16) 0.39988(11)
H18_2 H 0.2921 0.3181 0.3967
C36_2 C 0.27594(9) 0.57660(15) 0.09202(10)
C37_2 C 0.54804(9) 0.54729(15) 0.42289(10)
H19_2 H 0.5619 0.4849 0.4309
C38_2 C 0.35522(10) 0.37758(15) 0.38506(11)
H20_2 H 0.3650 0.3223 0.3714
C39_2 C 0.41061(10) 0.5402(2) 0.24295(12)
H21_2 H 0.4501 0.5574 0.2618
C40_2 C 0.39078(9) 0.48779(14) 0.27533(10)
C41_2 C 0.33323(11) 0.45968(18) 0.24400(12)
H22_2 H 0.3184 0.4220 0.2641
C42_2 C 0.32727(12) 0.53750(17) 0.42630(14)
H23_2 H 0.3180 0.5922 0.4410
C43_2 C 0.24821(11) 0.45471(17) 0.43365(12)
C44_2 C 0.29704(11) 0.48507(19) 0.18436(12)
H24_2 H 0.2584 0.4632 0.1639
C45_2 C 0.37429(10) 0.5679(2) 0.18393(12)
H25_2 H 0.3889 0.6050 0.1634
C46_2 C 0.47096(10) 0.65621(17) 0.38081(14)
H26_2 H 0.4308 0.6695 0.3593
O14_2 O 0.59234(7) 0.86954(12) 0.43276(10)
C47_2 C 0.58701(9) 0.61985(16) 0.44356(10)
H27_2 H 0.6271 0.6068 0.4653
O15_2 O 0.61904(9) 0.09243(13) 0.48230(9)
O16_2 O 0.59696(10) 0.07219(16) 0.38835(11)
C48_2 C 0.56852(8) 0.71096(15) 0.43312(10)
C49_2 C 0.55039(10) 0.19650(16) 0.40907(12)
C50_2 C 0.61089(9) 0.78924(16) 0.45399(11)
C51_2 C 0.50540(11) 0.32027(18) 0.43529(12)
H28_2 H 0.4996 0.3516 0.4649
C52_2 C 0.54158(12) 0.24367(18) 0.45193(13)
H29_2 H 0.5605 0.2231 0.4927
C53_2 C 0.59136(11) 0.11470(17) 0.42792(13)
C54_2 C 0.50985(10) 0.72950(17) 0.40143(14)
H30_2 H 0.4964 0.7921 0.3939
C55_2 C 0.48577(11) 0.30384(18) 0.33363(12)
H31_2 H 0.4670 0.3243 0.2928
C56_2 C 0.52138(12) 0.22555(19) 0.34986(13)
H32_2 H 0.5256 0.1921 0.3199
Cd9_2 Cd 0.664831(6) 0.967058(10) 0.467198(7)
O17_2 O 0.72427(7) 0.87780(11) 0.43340(7)
O18_2 O 0.79178(7) 0.85377(11) 0.57382(7)
O20_2 O 0.83759(6) 0.72659(12) 0.50834(7)
O23_2 O 0.90766(7) 0.63046(12) 0.56724(10)
O24_2 O 0.09234(7) 0.36954(12) 0.43276(10)
O25_2 O 0.88096(9) 0.40757(13) 0.51770(9)
O26_2 O 0.11904(9) 0.59243(13) 0.48230(9)
O27_2 O 0.90304(10) 0.42781(16) 0.61165(11)
O28_2 O 0.09696(10) 0.57219(16) 0.38835(11)
C29_3 C 0.01080(9) 0.06305(15) 0.10919(10)
O10_2 O 0.20822(7) 0.14623(11) 0.42618(7)
O12_3 O 0.26786(9) 0.03055(12) 0.05473(11)
C32_3 C 0.18297(9) 0.04195(14) 0.34527(10)
C34_3 C 0.12891(11) 0.03987(16) 0.08796(13)
H17_3 H 0.1081 0.0962 0.0826
C36_3 C 0.22406(9) 0.07660(15) 0.40798(10)
C39_3 C 0.08939(10) 0.0402(2) 0.25705(12)
H21_3 H 0.0499 0.0574 0.2382
C42_3 C 0.17273(12) 0.03750(17) 0.07370(14)
H23_3 H 0.1820 0.0922 0.0590
C45_3 C 0.12571(10) 0.0679(2) 0.31607(12)
H25_3 H 0.1111 0.1050 0.3366
C46_3 C 0.02904(10) 0.15621(17) 0.11919(14)
H26_3 H 0.0692 0.1695 0.1407
O13_2 O 0.27066(7) 0.03241(13) 0.43650(8)
H30_3 H 0.0036 0.2921 0.1061
H3_3 H 0.0619 0.0151 0.9309
C21_3 C 0.05039(10) 0.30350(16) 0.90907(12)
C23_3 C 0.00540(11) 0.17973(18) 0.93529(12)
C24_3 C 0.04158(12) 0.25633(18) 0.95193(13)
H13_3 H 0.0605 0.2769 0.9927
C25_3 C 0.09136(11) 0.38530(17) 0.92792(13)
C28_3 C 0.02138(12) 0.27445(19) 0.84986(13)
H16_3 H 0.0256 0.3079 0.8199
Si2_3 Si 0.06388(2) 0.96498(4) 0.14165(3)
C30_3 C 0.11456(9) 0.96064(15) 0.11017(10)
C31_3 C 0.02284(9) 0.85245(15) 0.12425(10)
C33_3 C 0.20360(10) 0.95518(16) 0.08066(11)
C35_3 C 0.18828(10) 0.87503(16) 0.10012(11)
H18_3 H 0.2079 0.8181 0.1033
C38_3 C 0.14478(10) 0.87758(15) 0.11494(11)
H20_3 H 0.1350 0.8223 0.1286
C40_3 C 0.10922(9) 0.98779(14) 0.22467(10)
C41_3 C 0.16677(11) 0.95968(18) 0.25600(12)
H22_3 H 0.1816 0.9220 0.2359
C43_3 C 0.25179(11) 0.95471(17) 0.06635(12)
C44_3 C 0.20296(11) 0.98507(19) 0.31564(12)
H24_3 H 0.2416 0.9632 0.3361
H28_3 H 0.0004 0.8516 0.0351
C55_3 C 0.01423(11) 0.80384(18) 0.16637(12)
H31_3 H 0.0330 0.8243 0.2072
C9_3 C 0.04804(9) 0.95271(15) 0.92289(10)
C19_3 C 0.08701(9) 0.88015(16) 0.94356(10)
H11_3 H 0.1271 0.8932 0.9653
C20_3 C 0.06852(8) 0.78904(15) 0.93312(10)
C22_3 C 0.11089(9) 0.71076(16) 0.95399(11)
C26_3 C 0.00985(10) 0.77050(17) 0.90143(14)
O21_2 O 0.27066(7) 0.96759(13) 0.93650(8)
O11_3 O 0.83759(6) 0.27341(12) 0.00834(7)
C37_3 C 0.95196(9) 0.04729(15) 0.07711(10)
C47_3 C 0.91299(9) 0.11985(16) 0.05644(10)
H27_3 H 0.8729 0.1068 0.0347
C48_3 C 0.93148(8) 0.21096(15) 0.06688(10)
C50_3 C 0.88911(9) 0.28924(16) 0.04601(11)
C54_3 C 0.99015(10) 0.22950(17) 0.09857(14)
O19_2 O 0.79178(7) 0.14623(11) 0.07382(7)
O22_2 O 0.72934(7) 0.03241(13) 0.06350(8)
Si1_3 Si 0.93612(2) 0.03502(4) 0.85835(3)
C2_3 C 0.88544(9) 0.03936(15) 0.88983(10)
O1_3 O 0.72427(7) 0.12220(11) 0.93340(7)
C3_3 C 0.97716(9) 0.14755(15) 0.87575(10)
C5_3 C 0.79640(10) 0.04482(16) 0.91934(11)
C7_3 C 0.81172(10) 0.12497(16) 0.89988(11)
H2_3 H 0.7921 0.1819 0.8967
C10_3 C 0.85522(10) 0.12242(15) 0.88506(11)
H4_3 H 0.8650 0.1777 0.8714
C12_3 C 0.89078(9) 0.01221(14) 0.77533(10)
C13_3 C 0.83323(11) 0.04032(18) 0.74400(12)
H6_3 H 0.8184 0.0780 0.7641
C15_3 C 0.74821(11) 0.04529(17) 0.93365(12)
C16_3 C 0.79704(11) 0.01493(19) 0.68436(12)
H8_3 H 0.7584 0.0368 0.6639
H12_3 H 0.9996 0.1484 0.9649
C27_3 C 0.98577(11) 0.19616(18) 0.83363(12)
H15_3 H 0.9670 0.1757 0.7928
H19_3 H 0.9381 0.9849 0.0691
C49_3 C 0.94961(10) 0.69650(16) 0.09093(12)
C51_3 C 0.99460(11) 0.82027(18) 0.06471(12)
C52_3 C 0.95842(12) 0.74367(18) 0.04807(13)
H29_3 H 0.9395 0.7231 0.0073
C53_3 C 0.90864(11) 0.61470(17) 0.07208(13)
C56_3 C 0.97862(12) 0.72555(19) 0.15014(13)
H32_3 H 0.9744 0.6921 0.1801
C1_3 C 0.98920(9) 0.93695(15) 0.89081(10)
O4_3 O 0.73214(9) 0.96945(12) 0.94527(11)
C4_3 C 0.81703(9) 0.95805(14) 0.65473(10)
C6_3 C 0.87109(11) 0.96013(16) 0.91204(13)
H1_3 H 0.8919 0.9038 0.9174
C8_3 C 0.77594(9) 0.92340(15) 0.59202(10)
C11_3 C 0.91061(10) 0.9598(2) 0.74295(12)
H5_3 H 0.9501 0.9426 0.7618
C14_3 C 0.82727(12) 0.96250(17) 0.92630(14)
H7_3 H 0.8180 0.9078 0.9410
C17_3 C 0.87429(10) 0.9321(2) 0.68393(12)
H9_3 H 0.8889 0.8950 0.6634
C18_3 C 0.97096(10) 0.84379(17) 0.88081(14)
H10_3 H 0.9308 0.8305 0.8593
O5_2 O 0.72934(7) 0.96759(13) 0.56350(8)
H14_3 H 0.9964 0.7079 0.8939
Si1_4 Si 0.06388(2) 0.03502(4) 0.64165(3)
C2_4 C 0.11456(9) 0.03936(15) 0.61017(10)
O1_4 O 0.27573(7) 0.12220(11) 0.56660(7)
C3_4 C 0.02284(9) 0.14755(15) 0.62425(10)
C5_4 C 0.20360(10) 0.04482(16) 0.58066(11)
C7_4 C 0.18828(10) 0.12497(16) 0.60012(11)
H2_4 H 0.2079 0.1819 0.6033
C10_4 C 0.14478(10) 0.12242(15) 0.61494(11)
H4_4 H 0.1350 0.1777 0.6286
C12_4 C 0.10922(9) 0.01221(14) 0.72467(10)
C13_4 C 0.16677(11) 0.04032(18) 0.75600(12)
H6_4 H 0.1816 0.0780 0.7359
C15_4 C 0.25179(11) 0.04529(17) 0.56635(12)
C16_4 C 0.20296(11) 0.01493(19) 0.81564(12)
H8_4 H 0.2416 0.0368 0.8361
H12_4 H 0.0004 0.1484 0.5351
C27_4 C 0.01423(11) 0.19616(18) 0.66637(12)
H15_4 H 0.0330 0.1757 0.7072
O11_4 O 0.16241(6) 0.27341(12) 0.49166(7)
C37_4 C 0.04804(9) 0.04729(15) 0.42289(10)
C47_4 C 0.08701(9) 0.11985(16) 0.44356(10)
H27_4 H 0.1271 0.1068 0.4653
C48_4 C 0.06852(8) 0.21096(15) 0.43312(10)
C50_4 C 0.11089(9) 0.28924(16) 0.45399(11)
C54_4 C 0.00985(10) 0.22950(17) 0.40143(14)
C1_4 C 0.01080(9) 0.93695(15) 0.60919(10)
O4_4 O 0.26786(9) 0.96945(12) 0.55473(11)
C4_4 C 0.18297(9) 0.95805(14) 0.84527(10)
C6_4 C 0.12891(11) 0.96013(16) 0.58796(13)
H1_4 H 0.1081 0.9038 0.5826
C8_4 C 0.22406(9) 0.92340(15) 0.90798(10)
C11_4 C 0.08939(10) 0.9598(2) 0.75705(12)
H5_4 H 0.0499 0.9426 0.7382
C14_4 C 0.17273(12) 0.96250(17) 0.57370(14)
H7_4 H 0.1820 0.9078 0.5590
C17_4 C 0.12571(10) 0.9321(2) 0.81607(12)
H9_4 H 0.1111 0.8950 0.8366
C18_4 C 0.02904(10) 0.84379(17) 0.61919(14)
H10_4 H 0.0692 0.8305 0.6407
H14_4 H 0.0036 0.7079 0.6061
H19_4 H 0.0619 0.9849 0.4309
C49_4 C 0.05039(10) 0.69650(16) 0.40907(12)
C51_4 C 0.00540(11) 0.82027(18) 0.43529(12)
C52_4 C 0.04158(12) 0.74367(18) 0.45193(13)
H29_4 H 0.0605 0.7231 0.4927
C53_4 C 0.09136(11) 0.61470(17) 0.42792(13)
C56_4 C 0.02138(12) 0.72555(19) 0.34986(13)
H32_4 H 0.0256 0.6921 0.3199
H3_4 H 0.9381 0.0151 0.5691
C21_4 C 0.94961(10) 0.30350(16) 0.59093(12)
C23_4 C 0.99460(11) 0.17973(18) 0.56471(12)
C24_4 C 0.95842(12) 0.25633(18) 0.54807(13)
H13_4 H 0.9395 0.2769 0.5073
C25_4 C 0.90864(11) 0.38530(17) 0.57208(13)
C28_4 C 0.97862(12) 0.27445(19) 0.65014(13)
H16_4 H 0.9744 0.3079 0.6801
C29_4 C 0.98920(9) 0.06305(15) 0.39081(10)
O12_4 O 0.73214(9) 0.03055(12) 0.44527(11)
C32_4 C 0.81703(9) 0.04195(14) 0.15473(10)
C34_4 C 0.87109(11) 0.03987(16) 0.41204(13)
H17_4 H 0.8919 0.0962 0.4174
C36_4 C 0.77594(9) 0.07660(15) 0.09202(10)
C39_4 C 0.91061(10) 0.0402(2) 0.24295(12)
H21_4 H 0.9501 0.0574 0.2618
C42_4 C 0.82727(12) 0.03750(17) 0.42630(14)
H23_4 H 0.8180 0.0922 0.4410
C45_4 C 0.87429(10) 0.0679(2) 0.18393(12)
H25_4 H 0.8889 0.1050 0.1634
C46_4 C 0.97096(10) 0.15621(17) 0.38081(14)
H26_4 H 0.9308 0.1695 0.3593
H30_4 H 0.9964 0.2921 0.3939
C9_4 C 0.95196(9) 0.95271(15) 0.57711(10)
C19_4 C 0.91299(9) 0.88015(16) 0.55644(10)
H11_4 H 0.8729 0.8932 0.5347
C20_4 C 0.93148(8) 0.78904(15) 0.56688(10)
C22_4 C 0.88911(9) 0.71076(16) 0.54601(11)
C26_4 C 0.99015(10) 0.77050(17) 0.59857(14)
Si2_4 Si 0.93612(2) 0.96498(4) 0.35835(3)
C30_4 C 0.88544(9) 0.96064(15) 0.38983(10)
C31_4 C 0.97716(9) 0.85245(15) 0.37575(10)
C33_4 C 0.79640(10) 0.95518(16) 0.41934(11)
C35_4 C 0.81172(10) 0.87503(16) 0.39988(11)
H18_4 H 0.7921 0.8181 0.3967
C38_4 C 0.85522(10) 0.87758(15) 0.38506(11)
H20_4 H 0.8650 0.8223 0.3714
C40_4 C 0.89078(9) 0.98779(14) 0.27533(10)
C41_4 C 0.83323(11) 0.95968(18) 0.24400(12)
H22_4 H 0.8184 0.9220 0.2641
C43_4 C 0.74821(11) 0.95471(17) 0.43365(12)
C44_4 C 0.79704(11) 0.98507(19) 0.18436(12)
H24_4 H 0.7584 0.9632 0.1639
H28_4 H 0.9996 0.8516 0.4649
C55_4 C 0.98577(11) 0.80384(18) 0.33363(12)
H31_4 H 0.9670 0.8243 0.2928
loop_
_geom_bond_atom_site_label_1
_geom_bond_atom_site_label_2
_geom_bond_site_symmetry_1
_geom_bond_site_symmetry_2
Cd3 O9 1_555 1_555
Si2 C29 1_555 1_555
C29 C37 1_555 1_555
C30 Si2 1_555 1_555
O9 C43 1_555 1_555
O10 C36 1_555 1_555
O11 Cd2 1_555 1_555
O12 Cd3 1_555 1_555
C31 Si2 1_555 1_555
C32 C36 1_555 1_555
C33 C35 1_555 1_555
C34 C30 1_555 1_555
H17 C34 1_555 1_555
C35 H18 1_555 1_555
C36 O13 1_555 1_555
C37 H19 1_555 1_555
C38 C30 1_555 1_555
H20 C38 1_555 1_555
C39 H21 1_555 1_555
C40 Si2 1_555 1_555
C41 C40 1_555 1_555
H22 C41 1_555 1_555
C42 C33 1_555 1_555
H23 C42 1_555 1_555
C43 O12 1_555 1_555
C44 C32 1_555 1_555
H24 C44 1_555 1_555
C45 C32 1_555 1_555
H25 C45 1_555 1_555
C46 C29 1_555 1_555
H26 C46 1_555 1_555
O13 Cd4 1_555 1_555
O14 C50 1_555 1_555
C47 C37 1_555 1_555
H27 C47 1_555 1_555
O15 C53 1_555 1_555
O16 C53 1_555 1_555
C48 C47 1_555 1_555
C49 C52 1_555 1_555
C50 O11 1_555 1_555
C51 C31 1_555 1_555
H28 C51 1_555 1_555
C52 C51 1_555 1_555
H29 C52 1_555 1_555
C53 C49 1_555 1_555
C54 C46 1_555 1_555
H30 C54 1_555 1_555
C55 C31 1_555 1_555
H31 C55 1_555 1_555
C56 C49 1_555 1_555
H32 C56 1_555 1_555
Cd9 O14 1_555 1_555
Cd10 O10 1_555 1_555
O17 Cd2 1_555 1_555
O19 Cd2 1_555 1_555
O24 Cd3 1_555 1_555
O26 Cd3 1_555 1_555
O28 Cd3 1_555 1_555
O9 Cd11 1_555 1_555
C33 C43 1_555 1_555
C34 C42 1_555 1_555
C35 C38 1_555 1_555
C39 C40 1_555 1_555
C39 C45 1_555 1_555
C41 C44 1_555 1_555
C48 C50 1_555 1_555
C48 C54 1_555 1_555
C55 C56 1_555 1_555
Cd9 O17 1_555 1_555
Cd1 O1 1_555 1_555
Cd2_2 O1 1_555 1_555
Si1 C1 1_555 1_555
C1 C9 1_555 1_555
C2 Si1 1_555 1_555
O1 C15 1_555 1_555
O2 C8 1_555 1_555
O3 C22 1_555 1_555
O4 Cd1 1_555 1_555
C3 Si1 1_555 1_555
C4 C8 1_555 1_555
C5 C7 1_555 1_555
C6 C2 1_555 1_555
H1 C6 1_555 1_555
C7 H2 1_555 1_555
C8 O5 1_555 1_555
C9 H3 1_555 1_555
C10 C2 1_555 1_555
H4 C10 1_555 1_555
C11 H5 1_555 1_555
C12 Si1 1_555 1_555
C13 C12 1_555 1_555
H6 C13 1_555 1_555
C14 C5 1_555 1_555
H7 C14 1_555 1_555
C15 O4 1_555 1_555
C16 C4 1_555 1_555
H8 C16 1_555 1_555
C17 C4 1_555 1_555
H9 C17 1_555 1_555
C18 C1 1_555 1_555
H10 C18 1_555 1_555
O5 Cd7 1_555 1_555
O6 C22 1_555 1_555
C19 C9 1_555 1_555
H11 C19 1_555 1_555
O7 C25 1_555 1_555
O8 C25 1_555 1_555
C20 C19 1_555 1_555
C21 C24 1_555 1_555
C22 C20 1_555 1_555
C23 C3 1_555 1_555
H12 C23 1_555 1_555
C24 C23 1_555 1_555
H13 C24 1_555 1_555
C25 C21 1_555 1_555
C26 C18 1_555 1_555
H14 C26 1_555 1_555
C27 C3 1_555 1_555
H15 C27 1_555 1_555
C28 C21 1_555 1_555
H16 C28 1_555 1_555
Cd6 O6 1_555 1_555
Cd11_2 O3 1_555 1_555
Cd12 O2 1_555 1_555
O18 Cd2_2 1_555 1_555
O20 Cd2_2 1_555 1_555
O23 Cd1 1_555 1_555
O25 Cd1 1_555 1_555
O27 Cd1 1_555 1_555
C5 C15 1_555 1_555
C6 C14 1_555 1_555
C7 C10 1_555 1_555
C11 C12 1_555 1_555
C11 C17 1_555 1_555
C13 C16 1_555 1_555
C20 C26 1_555 1_555
C27 C28 1_555 1_555
Cd4 O1_2 1_555 1_555
Cd10 O1_2 1_555 1_555
Si1_2 C1_2 1_555 1_555
C1_2 C9_2 1_555 1_555
C2_2 Si1_2 1_555 1_555
O1_2 C15_2 1_555 1_555
O2_2 C8_2 1_555 1_555
O3_2 C22_2 1_555 1_555
O4_2 Cd4 1_555 1_555
C3_2 Si1_2 1_555 1_555
C4_2 C8_2 1_555 1_555
C5_2 C7_2 1_555 1_555
C6_2 C2_2 1_555 1_555
H1_2 C6_2 1_555 1_555
C7_2 H2_2 1_555 1_555
C8_2 O21 1_555 1_555
C9_2 H3_2 1_555 1_555
C10_2 C2_2 1_555 1_555
H4_2 C10_2 1_555 1_555
C11_2 H5_2 1_555 1_555
C12_2 Si1_2 1_555 1_555
C13_2 C12_2 1_555 1_555
H6_2 C13_2 1_555 1_555
C14_2 C5_2 1_555 1_555
H7_2 C14_2 1_555 1_555
C15_2 O4_2 1_555 1_555
C16_2 C4_2 1_555 1_555
H8_2 C16_2 1_555 1_555
C17_2 C4_2 1_555 1_555
H9_2 C17_2 1_555 1_555
C18_2 C1_2 1_555 1_555
H10_2 C18_2 1_555 1_555
O6_2 C22_2 1_555 1_555
C19_2 C9_2 1_555 1_555
H11_2 C19_2 1_555 1_555
O7_2 C25_2 1_555 1_555
O8_2 C25_2 1_555 1_555
C20_2 C19_2 1_555 1_555
C21_2 C24_2 1_555 1_555
C22_2 C20_2 1_555 1_555
C23_2 C3_2 1_555 1_555
H12_2 C23_2 1_555 1_555
C24_2 C23_2 1_555 1_555
H13_2 C24_2 1_555 1_555
C25_2 C21_2 1_555 1_555
C26_2 C18_2 1_555 1_555
H14_2 C26_2 1_555 1_555
C27_2 C3_2 1_555 1_555
H15_2 C27_2 1_555 1_555
C28_2 C21_2 1_555 1_555
H16_2 C28_2 1_555 1_555
Cd7 O9_2 1_555 1_555
Si2_2 C29_2 1_555 1_555
C29_2 C37_2 1_555 1_555
C30_2 Si2_2 1_555 1_555
O9_2 C43_2 1_555 1_555
O19 C36_2 1_555 1_555
O11_2 Cd10 1_555 1_555
O12_2 Cd7 1_555 1_555
C31_2 Si2_2 1_555 1_555
C32_2 C36_2 1_555 1_555
C33_2 C35_2 1_555 1_555
C34_2 C30_2 1_555 1_555
H17_2 C34_2 1_555 1_555
C35_2 H18_2 1_555 1_555
C36_2 O22 1_555 1_555
C37_2 H19_2 1_555 1_555
C38_2 C30_2 1_555 1_555
H20_2 C38_2 1_555 1_555
C39_2 H21_2 1_555 1_555
C40_2 Si2_2 1_555 1_555
C41_2 C40_2 1_555 1_555
H22_2 C41_2 1_555 1_555
C42_2 C33_2 1_555 1_555
H23_2 C42_2 1_555 1_555
C43_2 O12_2 1_555 1_555
C44_2 C32_2 1_555 1_555
H24_2 C44_2 1_555 1_555
C45_2 C32_2 1_555 1_555
H25_2 C45_2 1_555 1_555
C46_2 C29_2 1_555 1_555
H26_2 C46_2 1_555 1_555
O14_2 C50_2 1_555 1_555
C47_2 C37_2 1_555 1_555
H27_2 C47_2 1_555 1_555
O15_2 C53_2 1_555 1_555
O16_2 C53_2 1_555 1_555
C48_2 C47_2 1_555 1_555
C49_2 C52_2 1_555 1_555
C50_2 O11_2 1_555 1_555
C51_2 C31_2 1_555 1_555
H28_2 C51_2 1_555 1_555
C52_2 C51_2 1_555 1_555
H29_2 C52_2 1_555 1_555
C53_2 C49_2 1_555 1_555
C54_2 C46_2 1_555 1_555
H30_2 C54_2 1_555 1_555
C55_2 C31_2 1_555 1_555
H31_2 C55_2 1_555 1_555
C56_2 C49_2 1_555 1_555
H32_2 C56_2 1_555 1_555
Cd6_2 O6_2 1_555 1_555
Cd9_2 O14_2 1_555 1_555
Cd12 O3_2 1_555 1_555
Cd11_2 O2_2 1_555 1_555
O17_2 Cd10 1_555 1_555
O18_2 Cd10 1_555 1_555
O20_2 Cd10 1_555 1_555
O23_2 Cd4 1_555 1_555
O24_2 Cd7 1_555 1_555
O25_2 Cd4 1_555 1_555
O26_2 Cd7 1_555 1_555
O27_2 Cd4 1_555 1_555
O28_2 Cd7 1_555 1_555
C5_2 C15_2 1_555 1_555
C6_2 C14_2 1_555 1_555
C7_2 C10_2 1_555 1_555
C11_2 C12_2 1_555 1_555
C11_2 C17_2 1_555 1_555
C13_2 C16_2 1_555 1_555
C20_2 C26_2 1_555 1_555
C27_2 C28_2 1_555 1_555
O9_2 Cd12 1_555 1_555
C33_2 C43_2 1_555 1_555
C34_2 C42_2 1_555 1_555
C35_2 C38_2 1_555 1_555
C39_2 C40_2 1_555 1_555
C39_2 C45_2 1_555 1_555
C41_2 C44_2 1_555 1_555
C48_2 C50_2 1_555 1_555
C48_2 C54_2 1_555 1_555
C55_2 C56_2 1_555 1_555
Cd9_2 O17_2 1_555 1_555
O10_2 C36_3 1_555 1_555
C32_3 C36_3 1_555 1_555
H17_3 C34_3 1_555 1_555
C36_3 O13_2 1_555 1_555
C39_3 H21_3 1_555 1_555
H23_3 C42_3 1_555 1_555
C45_3 C32_3 1_555 1_555
H25_3 C45_3 1_555 1_555
C46_3 C29_3 1_555 1_555
H26_3 C46_3 1_555 1_555
O13_2 Cd6_2 1_555 1_555
Cd12 O10_2 1_555 1_555
C34_3 C42_3 1_555 1_555
C39_3 C45_3 1_555 1_555
O25 C25_3 1_555 1_555
O27 C25_3 1_555 1_555
C21_3 C24_3 1_555 1_555
C24_3 C23_3 1_555 1_555
H13_3 C24_3 1_555 1_555
C25_3 C21_3 1_555 1_555
C28_3 C21_3 1_555 1_555
H16_3 C28_3 1_555 1_555
C30_3 Si2_3 1_555 1_555
O17 C43_3 1_555 1_555
C31_3 Si2_3 1_555 1_555
C33_3 C35_3 1_555 1_555
C35_3 H18_3 1_555 1_555
C38_3 C30_3 1_555 1_555
H20_3 C38_3 1_555 1_555
C40_3 Si2_3 1_555 1_555
C41_3 C40_3 1_555 1_555
H22_3 C41_3 1_555 1_555
H24_3 C44_3 1_555 1_555
C55_3 C31_3 1_555 1_555
H31_3 C55_3 1_555 1_555
C33_3 C43_3 1_555 1_555
C35_3 C38_3 1_555 1_555
C41_3 C44_3 1_555 1_555
O20 C22_3 1_555 1_555
O23 C22_3 1_555 1_555
C19_3 C9_3 1_555 1_555
H11_3 C19_3 1_555 1_555
C20_3 C19_3 1_555 1_555
C22_3 C20_3 1_555 1_555
C20_3 C26_3 1_555 1_555
O11_3 Cd11 1_555 1_555
O24 C50_3 1_555 1_555
C47_3 C37_3 1_555 1_555
H27_3 C47_3 1_555 1_555
C48_3 C47_3 1_555 1_555
C50_3 O11_3 1_555 1_555
O19_2 Cd11 1_555 1_555
C48_3 C50_3 1_555 1_555
C48_3 C54_3 1_555 1_555
Cd6 O1_3 1_555 1_555
Cd11_2 O1_3 1_555 1_555
C2_3 Si1_3 1_555 1_555
O1_3 C15_3 1_555 1_555
C3_3 Si1_3 1_555 1_555
C5_3 C7_3 1_555 1_555
C7_3 H2_3 1_555 1_555
C10_3 C2_3 1_555 1_555
H4_3 C10_3 1_555 1_555
C12_3 Si1_3 1_555 1_555
C13_3 C12_3 1_555 1_555
H6_3 C13_3 1_555 1_555
H8_3 C16_3 1_555 1_555
C27_3 C3_3 1_555 1_555
H15_3 C27_3 1_555 1_555
C5_3 C15_3 1_555 1_555
C7_3 C10_3 1_555 1_555
C13_3 C16_3 1_555 1_555
O26 C53_3 1_555 1_555
O28 C53_3 1_555 1_555
C49_3 C52_3 1_555 1_555
C52_3 C51_3 1_555 1_555
H29_3 C52_3 1_555 1_555
C53_3 C49_3 1_555 1_555
C56_3 C49_3 1_555 1_555
H32_3 C56_3 1_555 1_555
O18_2 C8_3 1_555 1_555
C4_3 C8_3 1_555 1_555
H1_3 C6_3 1_555 1_555
C8_3 O5_2 1_555 1_555
C11_3 H5_3 1_555 1_555
H7_3 C14_3 1_555 1_555
C17_3 C4_3 1_555 1_555
H9_3 C17_3 1_555 1_555
C18_3 C1_3 1_555 1_555
H10_3 C18_3 1_555 1_555
O5_2 Cd9_2 1_555 1_555
C6_3 C14_3 1_555 1_555
C11_3 C17_3 1_555 1_555
Cd6_2 O1_4 1_555 1_555
Cd12 O1_4 1_555 1_555
C2_4 Si1_4 1_555 1_555
O1_4 C15_4 1_555 1_555
C3_4 Si1_4 1_555 1_555
C5_4 C7_4 1_555 1_555
C7_4 H2_4 1_555 1_555
C10_4 C2_4 1_555 1_555
H4_4 C10_4 1_555 1_555
C12_4 Si1_4 1_555 1_555
C13_4 C12_4 1_555 1_555
H6_4 C13_4 1_555 1_555
H8_4 C16_4 1_555 1_555
C27_4 C3_4 1_555 1_555
H15_4 C27_4 1_555 1_555
O11_4 Cd12 1_555 1_555
O24_2 C50_4 1_555 1_555
C47_4 C37_4 1_555 1_555
H27_4 C47_4 1_555 1_555
C48_4 C47_4 1_555 1_555
C50_4 O11_4 1_555 1_555
C5_4 C15_4 1_555 1_555
C7_4 C10_4 1_555 1_555
C13_4 C16_4 1_555 1_555
C48_4 C50_4 1_555 1_555
C48_4 C54_4 1_555 1_555
O18 C8_4 1_555 1_555
C4_4 C8_4 1_555 1_555
H1_4 C6_4 1_555 1_555
C8_4 O21_2 1_555 1_555
C11_4 H5_4 1_555 1_555
H7_4 C14_4 1_555 1_555
C17_4 C4_4 1_555 1_555
H9_4 C17_4 1_555 1_555
C18_4 C1_4 1_555 1_555
H10_4 C18_4 1_555 1_555
O26_2 C53_4 1_555 1_555
O28_2 C53_4 1_555 1_555
C49_4 C52_4 1_555 1_555
C52_4 C51_4 1_555 1_555
H29_4 C52_4 1_555 1_555
C53_4 C49_4 1_555 1_555
C56_4 C49_4 1_555 1_555
H32_4 C56_4 1_555 1_555
C6_4 C14_4 1_555 1_555
C11_4 C17_4 1_555 1_555
O25_2 C25_4 1_555 1_555
O27_2 C25_4 1_555 1_555
C21_4 C24_4 1_555 1_555
C24_4 C23_4 1_555 1_555
H13_4 C24_4 1_555 1_555
C25_4 C21_4 1_555 1_555
C28_4 C21_4 1_555 1_555
H16_4 C28_4 1_555 1_555
O19_2 C36_4 1_555 1_555
C32_4 C36_4 1_555 1_555
H17_4 C34_4 1_555 1_555
C36_4 O22_2 1_555 1_555
C39_4 H21_4 1_555 1_555
H23_4 C42_4 1_555 1_555
C45_4 C32_4 1_555 1_555
H25_4 C45_4 1_555 1_555
C46_4 C29_4 1_555 1_555
H26_4 C46_4 1_555 1_555
C34_4 C42_4 1_555 1_555
C39_4 C45_4 1_555 1_555
O20_2 C22_4 1_555 1_555
O23_2 C22_4 1_555 1_555
C19_4 C9_4 1_555 1_555
H11_4 C19_4 1_555 1_555
C20_4 C19_4 1_555 1_555
C22_4 C20_4 1_555 1_555
C30_4 Si2_4 1_555 1_555
O17_2 C43_4 1_555 1_555
C31_4 Si2_4 1_555 1_555
C33_4 C35_4 1_555 1_555
C35_4 H18_4 1_555 1_555
C38_4 C30_4 1_555 1_555
H20_4 C38_4 1_555 1_555
C40_4 Si2_4 1_555 1_555
C41_4 C40_4 1_555 1_555
H22_4 C41_4 1_555 1_555
H24_4 C44_4 1_555 1_555
C55_4 C31_4 1_555 1_555
H31_4 C55_4 1_555 1_555
C20_4 C26_4 1_555 1_555
C33_4 C43_4 1_555 1_555
C35_4 C38_4 1_555 1_555
C41_4 C44_4 1_555 1_555

#END
