
###############################################################################
#
# This file contains modified crystal structure data generated from the
# MOF subset of the Cambridge Structural Database (CSD) v543 
# hosted by the Cambridge Crystallographic Data Centre (CCDC).
#
# This work is licensed under the Creative Commons
# Attribution-NonCommercial-ShareAlike 4.0 International License.
# To view a copy of this license, visit
# http://creativecommons.org/licenses/by-nc-sa/4.0/
# or send a letter to
# Creative Commons, PO Box 1866, Mountain View, CA 94042, USA.
#
# CIF created using the CSD Python API on 29 September 2022
# The structure has been converted into the P1 space group
# The structure has a 3D framework
# The original CSD entry NUBPIL is in the monoclinic crystal system
# The framework has been calculated to contain at least 10.0% void space
# The void calculation uses a probe of radius 1.32A, grid spacing 0.4
#
###############################################################################

data_NUBPIL
_chemical_formula_moiety         '(C88 H60 Cu8 N16 O35)n'
_symmetry_cell_setting           triclinic
_symmetry_space_group_name_H-M   'P 1'
_symmetry_Int_Tables_number      1
_space_group_name_Hall           'P 1'
loop_
_symmetry_equiv_pos_site_id
_symmetry_equiv_pos_as_xyz
1 x,y,z
_cell_length_a                   17.2044(9)
_cell_length_b                   25.9374(14)
_cell_length_c                   14.6116(8)
_cell_angle_alpha                90
_cell_angle_beta                 100.672(6)
_cell_angle_gamma                90
_cell_volume                     6407.46
loop_
_atom_site_label
_atom_site_type_symbol
_atom_site_fract_x
_atom_site_fract_y
_atom_site_fract_z
Cu6 Cu 0.2500 0.2500 0.0000
Cu1 Cu 0.07797(5) -0.0000 0.51289(6)
O2 O 0.0706(2) 0.05298(14) 0.6065(3)
O3 O 0.2219(3) 0.1614(2) 0.8595(4)
O4 O 0.1588(2) 0.22310(16) 0.9154(3)
O5 O 0.2034(5) 0.0000 0.5228(5)
H1 H 0.2246 -0.0000 0.4706
H2 H 0.2356 0.0000 0.5790
C6 C 0.0074(3) 0.1086(2) 0.6975(3)
C7 C 0.0800(3) 0.1272(2) 0.7447(4)
H7 H 0.1267 0.1140 0.7307
C8 C 0.0834(3) 0.1653(2) 0.8128(4)
C9 C 0.0132(3) 0.1838(2) 0.8323(4)
H8 H 0.0141 0.2100 0.8760
C10 C 0.0058(3) 0.0688(2) 0.6236(3)
C11 C 0.1621(4) 0.1834(2) 0.8663(4)
O6 O 0.0609(2) 0.05292(13) 0.4154(2)
N3 N 0.2101(3) 0.21743(18) 0.1049(3)
N4 N 0.1296(3) 0.18402(19) 0.1872(3)
C12 C 0.2518(5) 0.2049(4) 0.1922(5)
H9 H 0.3060 0.2094 0.2114
C13 C 0.2046(4) 0.1859(3) 0.2440(6)
H10 H 0.2181 0.1757 0.3060
C14 C 0.1385(3) 0.2031(2) 0.1066(4)
H11 H 0.0973 0.2060 0.0558
C15 C 0.0584(3) 0.1642(2) 0.2119(4)
C16 C 0.0617(3) 0.1274(2) 0.2800(4)
H12 H 0.1104 0.1152 0.3109
Cu6_2 Cu 0.2500 0.2500 1.0000
Cu1_2 Cu 0.07797(5) 1.0000 0.51289(6)
O5_2 O 0.2034(5) 1.0000 0.5228(5)
H1_2 H 0.2246 1.0000 0.4706
H2_2 H 0.2356 1.0000 0.5790
O10 O 0.0609(2) 0.94708(13) 0.4154(2)
O11 O 0.0706(2) 0.94702(14) 0.6065(3)
Cu2 Cu 0.7500 0.2500 0.0000
O12 O 0.8412(2) 0.22310(16) 0.0846(3)
N5 N 0.7101(3) 0.28257(18) 0.1049(3)
Cu2_2 Cu 0.7500 0.2500 1.0000
O1 O 0.9391(2) 0.05292(13) 0.5846(2)
N1 N 0.7899(3) 0.21743(18) 0.8951(3)
N2 N 0.8704(3) 0.18402(19) 0.8128(3)
C1 C 0.7482(5) 0.2049(4) 0.8078(5)
H3 H 0.6940 0.2094 0.7886
C2 C 0.7954(4) 0.1859(3) 0.7560(6)
H4 H 0.7819 0.1757 0.6940
C3 C 0.8615(3) 0.2031(2) 0.8934(4)
H5 H 0.9027 0.2060 0.9442
C4 C 0.9416(3) 0.1642(2) 0.7881(4)
C5 C 0.9383(3) 0.1274(2) 0.7200(4)
H6 H 0.8896 0.1152 0.6891
O7 O 0.9294(2) 0.05298(14) 0.3935(3)
O8 O 0.7781(3) 0.1614(2) 0.1405(4)
C17 C 0.9926(3) 0.1086(2) 0.3025(3)
C18 C 0.9200(3) 0.1272(2) 0.2553(4)
H13 H 0.8733 0.1140 0.2693
C19 C 0.9166(3) 0.1653(2) 0.1872(4)
C20 C 0.9868(3) 0.1838(2) 0.1677(4)
H14 H 0.9859 0.2100 0.1240
C21 C 0.9942(3) 0.0688(2) 0.3764(3)
C22 C 0.8379(4) 0.1834(2) 0.1337(4)
Cu3 Cu 0.92203(5) 0.0000 0.48711(6)
O13 O 0.6588(2) 0.27690(16) 0.9154(3)
Cu3_2 Cu 0.92203(5) 1.0000 0.48711(6)
O13_2 O 0.3412(2) 0.27690(16) 0.0846(3)
N5_2 N 0.2899(3) 0.28257(18) 0.8951(3)
O5_3 O 0.7966(5) 0.0000 0.4772(5)
H1_3 H 0.7754 0.0000 0.5294
H2_3 H 0.7644 0.0000 0.4210
O5_4 O 0.7966(5) 1.0000 0.4772(5)
H1_4 H 0.7754 1.0000 0.5294
H2_4 H 0.7644 1.0000 0.4210
O10_2 O 0.9391(2) 0.94708(13) 0.5846(2)
O11_2 O 0.9294(2) 0.94702(14) 0.3935(3)
Cu2_3 Cu 0.2500 0.7500 0.0000
Cu6_3 Cu 0.7500 0.7500 0.0000
O12_2 O 0.3412(2) 0.72310(16) 0.0846(3)
N5_3 N 0.2101(3) 0.78257(18) 0.1049(3)
Cu1_3 Cu 0.57797(5) 0.5000 0.51289(6)
Cu2_4 Cu 0.2500 0.7500 1.0000
O1_2 O 0.4391(2) 0.55292(13) 0.5846(2)
O2_2 O 0.5706(2) 0.55298(14) 0.6065(3)
O3_2 O 0.7219(3) 0.6614(2) 0.8595(4)
O4_2 O 0.6588(2) 0.72310(16) 0.9154(3)
O5_5 O 0.7034(5) 0.5000 0.5228(5)
H1_5 H 0.7246 0.5000 0.4706
H2_5 H 0.7356 0.5000 0.5790
N1_2 N 0.2899(3) 0.71743(18) 0.8951(3)
N2_2 N 0.3704(3) 0.68402(19) 0.8128(3)
C1_2 C 0.2482(5) 0.7049(4) 0.8078(5)
H3_2 H 0.1940 0.7094 0.7886
C2_2 C 0.2954(4) 0.6859(3) 0.7560(6)
H4_2 H 0.2819 0.6757 0.6940
C3_2 C 0.3615(3) 0.7031(2) 0.8934(4)
H5_2 H 0.4027 0.7060 0.9442
C4_2 C 0.4416(3) 0.6642(2) 0.7881(4)
C5_2 C 0.4383(3) 0.6274(2) 0.7200(4)
H6_2 H 0.3896 0.6152 0.6891
C6_2 C 0.5074(3) 0.6086(2) 0.6975(3)
C7_2 C 0.5800(3) 0.6272(2) 0.7447(4)
H7_2 H 0.6267 0.6140 0.7307
C8_2 C 0.5834(3) 0.6653(2) 0.8128(4)
C9_2 C 0.5132(3) 0.6838(2) 0.8323(4)
H8_2 H 0.5141 0.7100 0.8760
C10_2 C 0.5058(3) 0.5688(2) 0.6236(3)
C11_2 C 0.6621(4) 0.6834(2) 0.8663(4)
O6_2 O 0.5609(2) 0.55292(13) 0.4154(2)
O7_2 O 0.4294(2) 0.55298(14) 0.3935(3)
O8_2 O 0.2781(3) 0.6614(2) 0.1405(4)
N3_2 N 0.7101(3) 0.71743(18) 0.1049(3)
N4_2 N 0.6296(3) 0.68402(19) 0.1872(3)
C12_2 C 0.7518(5) 0.7049(4) 0.1922(5)
H9_2 H 0.8060 0.7094 0.2114
C13_2 C 0.7046(4) 0.6859(3) 0.2440(6)
H10_2 H 0.7181 0.6757 0.3060
C14_2 C 0.6385(3) 0.7031(2) 0.1066(4)
H11_2 H 0.5973 0.7060 0.0558
C15_2 C 0.5584(3) 0.6642(2) 0.2119(4)
C16_2 C 0.5617(3) 0.6274(2) 0.2800(4)
H12_2 H 0.6104 0.6152 0.3109
C17_2 C 0.4926(3) 0.6086(2) 0.3025(3)
C18_2 C 0.4200(3) 0.6272(2) 0.2553(4)
H13_2 H 0.3733 0.6140 0.2693
C19_2 C 0.4166(3) 0.6653(2) 0.1872(4)
C20_2 C 0.4868(3) 0.6838(2) 0.1677(4)
H14_2 H 0.4859 0.7100 0.1240
C21_2 C 0.4942(3) 0.5688(2) 0.3764(3)
C22_2 C 0.3379(4) 0.6834(2) 0.1337(4)
Cu3_3 Cu 0.42203(5) 0.5000 0.48711(6)
Cu6_4 Cu 0.7500 0.7500 1.0000
O10_3 O 0.5609(2) 0.44708(13) 0.4154(2)
O11_3 O 0.5706(2) 0.44702(14) 0.6065(3)
O13_3 O 0.1588(2) 0.77690(16) 0.9154(3)
O5_6 O 0.2966(5) 0.5000 0.4772(5)
H1_6 H 0.2754 0.5000 0.5294
H2_6 H 0.2644 0.5000 0.4210
O10_4 O 0.4391(2) 0.44708(13) 0.5846(2)
O11_4 O 0.4294(2) 0.44702(14) 0.3935(3)
O13_4 O 0.8412(2) 0.77690(16) 0.0846(3)
N5_4 N 0.7899(3) 0.78257(18) 0.8951(3)
N2_3 N 0.1296(3) 0.81598(19) 0.1872(3)
C1_3 C 0.2518(5) 0.7951(4) 0.1922(5)
H3_3 H 0.3060 0.7906 0.2114
C2_3 C 0.2046(4) 0.8141(3) 0.2440(6)
H4_3 H 0.2181 0.8243 0.3060
C3_3 C 0.1385(3) 0.7969(2) 0.1066(4)
H5_3 H 0.0973 0.7940 0.0558
C4_3 C 0.0584(3) 0.8358(2) 0.2119(4)
C5_3 C 0.0617(3) 0.8726(2) 0.2800(4)
H6_3 H 0.1104 0.8848 0.3109
O8_3 O 0.2219(3) 0.8386(2) 0.8595(4)
C17_3 C 0.0074(3) 0.8914(2) 0.6975(3)
C18_3 C 0.0800(3) 0.8728(2) 0.7447(4)
H13_3 H 0.1267 0.8860 0.7307
C19_3 C 0.0834(3) 0.8347(2) 0.8128(4)
C20_3 C 0.0132(3) 0.8162(2) 0.8323(4)
H14_3 H 0.0141 0.7900 0.8760
C21_3 C 0.0058(3) 0.9312(2) 0.6236(3)
C22_3 C 0.1621(4) 0.8166(2) 0.8663(4)
O3_3 O 0.7781(3) 0.8386(2) 0.1405(4)
C6_3 C 0.9926(3) 0.8914(2) 0.3025(3)
C7_3 C 0.9200(3) 0.8728(2) 0.2553(4)
H7_3 H 0.8733 0.8860 0.2693
C8_3 C 0.9166(3) 0.8347(2) 0.1872(4)
C9_3 C 0.9868(3) 0.8162(2) 0.1677(4)
H8_3 H 0.9859 0.7900 0.1240
C10_3 C 0.9942(3) 0.9312(2) 0.3764(3)
C11_3 C 0.8379(4) 0.8166(2) 0.1337(4)
N4_3 N 0.8704(3) 0.81598(19) 0.8128(3)
C12_3 C 0.7482(5) 0.7951(4) 0.8078(5)
H9_3 H 0.6940 0.7906 0.7886
C13_3 C 0.7954(4) 0.8141(3) 0.7560(6)
H10_3 H 0.7819 0.8243 0.6940
C14_3 C 0.8615(3) 0.7969(2) 0.8934(4)
H11_3 H 0.9027 0.7940 0.9442
C15_3 C 0.9416(3) 0.8358(2) 0.7881(4)
C16_3 C 0.9383(3) 0.8726(2) 0.7200(4)
H12_3 H 0.8896 0.8848 0.6891
O3_4 O 0.2781(3) 0.3386(2) 0.1405(4)
N2_4 N 0.6296(3) 0.31598(19) 0.1872(3)
C1_4 C 0.7518(5) 0.2951(4) 0.1922(5)
H3_4 H 0.8060 0.2906 0.2114
C2_4 C 0.7046(4) 0.3141(3) 0.2440(6)
H4_4 H 0.7181 0.3243 0.3060
C3_4 C 0.6385(3) 0.2969(2) 0.1066(4)
H5_4 H 0.5973 0.2940 0.0558
C4_4 C 0.5584(3) 0.3358(2) 0.2119(4)
C5_4 C 0.5617(3) 0.3726(2) 0.2800(4)
H6_4 H 0.6104 0.3848 0.3109
C6_4 C 0.4926(3) 0.3914(2) 0.3025(3)
C7_4 C 0.4200(3) 0.3728(2) 0.2553(4)
H7_4 H 0.3733 0.3860 0.2693
C8_4 C 0.4166(3) 0.3347(2) 0.1872(4)
C9_4 C 0.4868(3) 0.3162(2) 0.1677(4)
H8_4 H 0.4859 0.2900 0.1240
C10_4 C 0.4942(3) 0.4312(2) 0.3764(3)
C11_4 C 0.3379(4) 0.3166(2) 0.1337(4)
O8_4 O 0.7219(3) 0.3386(2) 0.8595(4)
N4_4 N 0.3704(3) 0.31598(19) 0.8128(3)
C12_4 C 0.2482(5) 0.2951(4) 0.8078(5)
H9_4 H 0.1940 0.2906 0.7886
C13_4 C 0.2954(4) 0.3141(3) 0.7560(6)
H10_4 H 0.2819 0.3243 0.6940
C14_4 C 0.3615(3) 0.2969(2) 0.8934(4)
H11_4 H 0.4027 0.2940 0.9442
C15_4 C 0.4416(3) 0.3358(2) 0.7881(4)
C16_4 C 0.4383(3) 0.3726(2) 0.7200(4)
H12_4 H 0.3896 0.3848 0.6891
C17_4 C 0.5074(3) 0.3914(2) 0.6975(3)
C18_4 C 0.5800(3) 0.3728(2) 0.7447(4)
H13_4 H 0.6267 0.3860 0.7307
C19_4 C 0.5834(3) 0.3347(2) 0.8128(4)
C20_4 C 0.5132(3) 0.3162(2) 0.8323(4)
H14_4 H 0.5141 0.2900 0.8760
C21_4 C 0.5058(3) 0.4312(2) 0.6236(3)
C22_4 C 0.6621(4) 0.3166(2) 0.8663(4)
loop_
_geom_bond_atom_site_label_1
_geom_bond_atom_site_label_2
_geom_bond_site_symmetry_1
_geom_bond_site_symmetry_2
Cu1 O2 1_555 1_555
O2 C10 1_555 1_555
O3 C11 1_555 1_555
O4 C11 1_555 1_555
O5 Cu1 1_555 1_555
H1 O5 1_555 1_555
H2 O5 1_555 1_555
C7 C6 1_555 1_555
H7 C7 1_555 1_555
C8 C7 1_555 1_555
H8 C9 1_555 1_555
C10 C6 1_555 1_555
C11 C8 1_555 1_555
O6 Cu1 1_555 1_555
N3 C12 1_555 1_555
N4 C13 1_555 1_555
C12 H9 1_555 1_555
C13 C12 1_555 1_555
H10 C13 1_555 1_555
C14 N3 1_555 1_555
H11 C14 1_555 1_555
C15 N4 1_555 1_555
C16 C15 1_555 1_555
H12 C16 1_555 1_555
Cu6 N3 1_555 1_555
Cu6_2 O4 1_555 1_555
C8 C9 1_555 1_555
N4 C14 1_555 1_555
O5_2 Cu1_2 1_555 1_555
H1_2 O5_2 1_555 1_555
H2_2 O5_2 1_555 1_555
O10 Cu1_2 1_555 1_555
O11 Cu1_2 1_555 1_555
O12 Cu2 1_555 1_555
N5 Cu2 1_555 1_555
Cu2_2 N1 1_555 1_555
N1 C1 1_555 1_555
N2 C2 1_555 1_555
C1 H3 1_555 1_555
C2 C1 1_555 1_555
H4 C2 1_555 1_555
C3 N1 1_555 1_555
H5 C3 1_555 1_555
C4 N2 1_555 1_555
C5 C4 1_555 1_555
H6 C5 1_555 1_555
O7 C21 1_555 1_555
O8 C22 1_555 1_555
O12 C22 1_555 1_555
C18 C17 1_555 1_555
H13 C18 1_555 1_555
C19 C18 1_555 1_555
H14 C20 1_555 1_555
C22 C19 1_555 1_555
O13 Cu2_2 1_555 1_555
O1 Cu3 1_555 1_555
N2 C3 1_555 1_555
O7 Cu3 1_555 1_555
C17 C21 1_555 1_555
C19 C20 1_555 1_555
O13_2 Cu6 1_555 1_555
N5_2 Cu6_2 1_555 1_555
O5_3 Cu3 1_555 1_555
H1_3 O5_3 1_555 1_555
H2_3 O5_3 1_555 1_555
O5_4 Cu3_2 1_555 1_555
H1_4 O5_4 1_555 1_555
H2_4 O5_4 1_555 1_555
O10_2 Cu3_2 1_555 1_555
O11_2 Cu3_2 1_555 1_555
O12_2 Cu2_3 1_555 1_555
N5_3 Cu2_3 1_555 1_555
Cu1_3 O2_2 1_555 1_555
Cu2_4 N1_2 1_555 1_555
O1_2 C10_2 1_555 1_555
O2_2 C10_2 1_555 1_555
O3_2 C11_2 1_555 1_555
O4_2 C11_2 1_555 1_555
O5_5 Cu1_3 1_555 1_555
H1_5 O5_5 1_555 1_555
H2_5 O5_5 1_555 1_555
N1_2 C1_2 1_555 1_555
N2_2 C2_2 1_555 1_555
C1_2 H3_2 1_555 1_555
C2_2 C1_2 1_555 1_555
H4_2 C2_2 1_555 1_555
C3_2 N1_2 1_555 1_555
H5_2 C3_2 1_555 1_555
C4_2 N2_2 1_555 1_555
C5_2 C4_2 1_555 1_555
H6_2 C5_2 1_555 1_555
C6_2 C5_2 1_555 1_555
C7_2 C6_2 1_555 1_555
H7_2 C7_2 1_555 1_555
C8_2 C7_2 1_555 1_555
C9_2 C4_2 1_555 1_555
H8_2 C9_2 1_555 1_555
C10_2 C6_2 1_555 1_555
C11_2 C8_2 1_555 1_555
O6_2 Cu1_3 1_555 1_555
O7_2 C21_2 1_555 1_555
O8_2 C22_2 1_555 1_555
O12_2 C22_2 1_555 1_555
N3_2 C12_2 1_555 1_555
N4_2 C13_2 1_555 1_555
C12_2 H9_2 1_555 1_555
C13_2 C12_2 1_555 1_555
H10_2 C13_2 1_555 1_555
C14_2 N3_2 1_555 1_555
H11_2 C14_2 1_555 1_555
C15_2 N4_2 1_555 1_555
C16_2 C15_2 1_555 1_555
H12_2 C16_2 1_555 1_555
C17_2 C16_2 1_555 1_555
C18_2 C17_2 1_555 1_555
H13_2 C18_2 1_555 1_555
C19_2 C18_2 1_555 1_555
C20_2 C15_2 1_555 1_555
H14_2 C20_2 1_555 1_555
C21_2 O6_2 1_555 1_555
C22_2 C19_2 1_555 1_555
Cu3_3 Cu1_3 1_555 1_555
Cu6_3 N3_2 1_555 1_555
Cu6_4 O4_2 1_555 1_555
O10_3 Cu1_3 1_555 1_555
O11_3 Cu1_3 1_555 1_555
O13_3 Cu2_4 1_555 1_555
O1_2 Cu3_3 1_555 1_555
N2_2 C3_2 1_555 1_555
C8_2 C9_2 1_555 1_555
O7_2 Cu3_3 1_555 1_555
N4_2 C14_2 1_555 1_555
C17_2 C21_2 1_555 1_555
C19_2 C20_2 1_555 1_555
O5_6 Cu3_3 1_555 1_555
H1_6 O5_6 1_555 1_555
H2_6 O5_6 1_555 1_555
O10_4 Cu3_3 1_555 1_555
O11_4 Cu3_3 1_555 1_555
O13_4 Cu6_3 1_555 1_555
N5_4 Cu6_4 1_555 1_555
N5_3 C1_3 1_555 1_555
N2_3 C2_3 1_555 1_555
C1_3 H3_3 1_555 1_555
C2_3 C1_3 1_555 1_555
H4_3 C2_3 1_555 1_555
C3_3 N5_3 1_555 1_555
H5_3 C3_3 1_555 1_555
C4_3 N2_3 1_555 1_555
C5_3 C4_3 1_555 1_555
H6_3 C5_3 1_555 1_555
O11 C21_3 1_555 1_555
O8_3 C22_3 1_555 1_555
O13_3 C22_3 1_555 1_555
C18_3 C17_3 1_555 1_555
H13_3 C18_3 1_555 1_555
C19_3 C18_3 1_555 1_555
H14_3 C20_3 1_555 1_555
C22_3 C19_3 1_555 1_555
N2_3 C3_3 1_555 1_555
C17_3 C21_3 1_555 1_555
C19_3 C20_3 1_555 1_555
O11_2 C10_3 1_555 1_555
O3_3 C11_3 1_555 1_555
O13_4 C11_3 1_555 1_555
C7_3 C6_3 1_555 1_555
H7_3 C7_3 1_555 1_555
C8_3 C7_3 1_555 1_555
H8_3 C9_3 1_555 1_555
C10_3 C6_3 1_555 1_555
C11_3 C8_3 1_555 1_555
N5_4 C12_3 1_555 1_555
N4_3 C13_3 1_555 1_555
C12_3 H9_3 1_555 1_555
C13_3 C12_3 1_555 1_555
H10_3 C13_3 1_555 1_555
C14_3 N5_4 1_555 1_555
H11_3 C14_3 1_555 1_555
C15_3 N4_3 1_555 1_555
C16_3 C15_3 1_555 1_555
H12_3 C16_3 1_555 1_555
C8_3 C9_3 1_555 1_555
N4_3 C14_3 1_555 1_555
O10_3 C10_4 1_555 1_555
O11_4 C10_4 1_555 1_555
O3_4 C11_4 1_555 1_555
O13_2 C11_4 1_555 1_555
N5 C1_4 1_555 1_555
N2_4 C2_4 1_555 1_555
C1_4 H3_4 1_555 1_555
C2_4 C1_4 1_555 1_555
H4_4 C2_4 1_555 1_555
C3_4 N5 1_555 1_555
H5_4 C3_4 1_555 1_555
C4_4 N2_4 1_555 1_555
C5_4 C4_4 1_555 1_555
H6_4 C5_4 1_555 1_555
C6_4 C5_4 1_555 1_555
C7_4 C6_4 1_555 1_555
H7_4 C7_4 1_555 1_555
C8_4 C7_4 1_555 1_555
C9_4 C4_4 1_555 1_555
H8_4 C9_4 1_555 1_555
C10_4 C6_4 1_555 1_555
C11_4 C8_4 1_555 1_555
O11_3 C21_4 1_555 1_555
O8_4 C22_4 1_555 1_555
O13 C22_4 1_555 1_555
N5_2 C12_4 1_555 1_555
N4_4 C13_4 1_555 1_555
C12_4 H9_4 1_555 1_555
C13_4 C12_4 1_555 1_555
H10_4 C13_4 1_555 1_555
C14_4 N5_2 1_555 1_555
H11_4 C14_4 1_555 1_555
C15_4 N4_4 1_555 1_555
C16_4 C15_4 1_555 1_555
H12_4 C16_4 1_555 1_555
C17_4 C16_4 1_555 1_555
C18_4 C17_4 1_555 1_555
H13_4 C18_4 1_555 1_555
C19_4 C18_4 1_555 1_555
C20_4 C15_4 1_555 1_555
H14_4 C20_4 1_555 1_555
C21_4 O10_4 1_555 1_555
C22_4 C19_4 1_555 1_555
N2_4 C3_4 1_555 1_555
C8_4 C9_4 1_555 1_555
N4_4 C14_4 1_555 1_555
C17_4 C21_4 1_555 1_555
C19_4 C20_4 1_555 1_555

#END
