
###############################################################################
#
# This file contains modified crystal structure data generated from the
# MOF subset of the Cambridge Structural Database (CSD) v543 
# hosted by the Cambridge Crystallographic Data Centre (CCDC).
#
# This work is licensed under the Creative Commons
# Attribution-NonCommercial-ShareAlike 4.0 International License.
# To view a copy of this license, visit
# http://creativecommons.org/licenses/by-nc-sa/4.0/
# or send a letter to
# Creative Commons, PO Box 1866, Mountain View, CA 94042, USA.
#
# CIF created using the CSD Python API on 29 September 2022
# The structure has been converted into the P1 space group
# The structure has a 3D framework
# The original CSD entry NUCBIY is in the orthorhombic crystal system
# The framework has been calculated to contain at least 10.0% void space
# The void calculation uses a probe of radius 1.32A, grid spacing 0.4
#
###############################################################################

data_NUCBIY
_chemical_formula_moiety         '(C768 H704 N128 O128 Zn30)n'
_symmetry_cell_setting           triclinic
_symmetry_space_group_name_H-M   'P 1'
_symmetry_Int_Tables_number      1
_space_group_name_Hall           'P 1'
loop_
_symmetry_equiv_pos_site_id
_symmetry_equiv_pos_as_xyz
1 x,y,z
_cell_length_a                   22.3458(7)
_cell_length_b                   29.7691(11)
_cell_length_c                   33.3734(11)
_cell_angle_alpha                90
_cell_angle_beta                 90
_cell_angle_gamma                90
_cell_volume                     22200.5
loop_
_atom_site_label
_atom_site_type_symbol
_atom_site_fract_x
_atom_site_fract_y
_atom_site_fract_z
Zn1 Zn -0.0000 0.5000 0.38346(5)
H8 H 0.0180 0.4028 0.4471
O3 O 0.1429(3) 0.6777(2) 0.6375(2)
O4 O 0.2098(3) 0.7091(2) 0.59717(19)
N3 N 0.0985(3) 0.4975(2) 0.4404(2)
H12 H 0.1047 0.4708 0.4317
N4 N 0.0593(3) 0.5272(3) 0.4233(2)
C13 C 0.1492(4) 0.6509(3) 0.5709(3)
C14 C 0.1650(4) 0.6602(3) 0.5317(3)
H13 H 0.1866 0.6860 0.5256
C15 C 0.0611(4) 0.5638(3) 0.4464(3)
C16 C 0.1482(4) 0.6303(3) 0.5011(3)
H14 H 0.1577 0.6371 0.4747
C17 C 0.1019(4) 0.5586(3) 0.4771(3)
C18 C 0.1176(4) 0.5908(3) 0.5097(3)
C19 C 0.1256(4) 0.5150(3) 0.4719(3)
C20 C 0.1022(4) 0.5819(3) 0.5494(3)
H15 H 0.0820 0.5555 0.5558
C21 C 0.1167(4) 0.6119(3) 0.5790(3)
H16 H 0.1046 0.6062 0.6052
C22 C 0.1678(4) 0.6815(3) 0.6050(3)
C23 C 0.0219(4) 0.6035(3) 0.4382(3)
H17 H 0.0216 0.6095 0.4099
H18 H 0.0372 0.6292 0.4522
C24 C 0.1718(5) 0.4899(4) 0.4953(3)
H20 H 0.1528 0.4670 0.5109
H21 H 0.1925 0.5103 0.5127
H22 H 0.1998 0.4763 0.4771
Zn2 Zn 0.2500 0.7500 0.63346(5)
O5 O 0.0402(3) 0.4591(2) 0.34717(19)
Zn1_2 Zn 1.0000 0.5000 0.38346(5)
O1 O 0.8571(3) 0.3223(2) 0.6375(2)
O2 O 0.7902(3) 0.2909(2) 0.59717(19)
N1 N 0.9015(3) 0.5025(2) 0.4404(2)
H1 H 0.8953 0.5292 0.4317
N2 N 0.9407(3) 0.4728(3) 0.4233(2)
C1 C 0.8508(4) 0.3491(3) 0.5709(3)
C2 C 0.8350(4) 0.3398(3) 0.5317(3)
H2 H 0.8134 0.3140 0.5256
C3 C 0.9389(4) 0.4362(3) 0.4464(3)
C4 C 0.8518(4) 0.3697(3) 0.5011(3)
H3 H 0.8423 0.3629 0.4747
C5 C 0.8981(4) 0.4414(3) 0.4771(3)
C6 C 0.8824(4) 0.4092(3) 0.5097(3)
C7 C 0.8744(4) 0.4850(3) 0.4719(3)
C8 C 0.8978(4) 0.4181(3) 0.5494(3)
H4 H 0.9180 0.4445 0.5558
C9 C 0.8833(4) 0.3881(3) 0.5790(3)
H5 H 0.8954 0.3938 0.6052
C10 C 0.8322(4) 0.3185(3) 0.6050(3)
C11 C 0.9781(4) 0.3965(3) 0.4382(3)
H6 H 0.9784 0.3905 0.4099
H7 H 0.9628 0.3708 0.4522
C12 C 0.8282(5) 0.5101(4) 0.4953(3)
H9 H 0.8472 0.5330 0.5109
H10 H 0.8075 0.4897 0.5127
H11 H 0.8002 0.5237 0.4771
H19 H 0.9820 0.5972 0.4471
Zn3 Zn 0.7500 0.2500 0.63346(5)
O6 O 0.9598(3) 0.5409(2) 0.34717(19)
O1_2 O 0.3929(3) 0.5723(2) 0.8875(2)
O2_2 O 0.4598(3) 0.5409(2) 0.84717(19)
N1_2 N 0.3485(3) 0.7525(2) 0.6904(2)
H1_2 H 0.3547 0.7792 0.6817
N2_2 N 0.3093(3) 0.7228(3) 0.6733(2)
C1_2 C 0.3992(4) 0.5991(3) 0.8209(3)
C2_2 C 0.4150(4) 0.5898(3) 0.7817(3)
H2_2 H 0.4366 0.5640 0.7756
C3_2 C 0.3111(4) 0.6862(3) 0.6964(3)
C4_2 C 0.3982(4) 0.6197(3) 0.7511(3)
H3_2 H 0.4077 0.6129 0.7247
C5_2 C 0.3519(4) 0.6914(3) 0.7271(3)
C6_2 C 0.3676(4) 0.6592(3) 0.7597(3)
C7_2 C 0.3756(4) 0.7350(3) 0.7219(3)
C8_2 C 0.3522(4) 0.6681(3) 0.7994(3)
H4_2 H 0.3320 0.6945 0.8058
C9_2 C 0.3667(4) 0.6381(3) 0.8290(3)
H5_2 H 0.3546 0.6438 0.8552
C10_2 C 0.4178(4) 0.5685(3) 0.8550(3)
C11_2 C 0.2719(4) 0.6465(3) 0.6882(3)
H6_2 H 0.2716 0.6405 0.6599
H7_2 H 0.2872 0.6208 0.7022
H8_2 H 0.2320 0.6528 0.6971
C12_2 C 0.4218(5) 0.7601(4) 0.7453(3)
H9_2 H 0.4028 0.7830 0.7609
H10_2 H 0.4425 0.7397 0.7627
H11_2 H 0.4498 0.7737 0.7271
O3_2 O 0.1071(3) 0.9277(2) 0.8875(2)
O4_2 O 0.0402(3) 0.9591(2) 0.84717(19)
N3_2 N 0.1515(3) 0.7475(2) 0.6904(2)
H12_2 H 0.1453 0.7208 0.6817
N4_2 N 0.1907(3) 0.7772(3) 0.6733(2)
C13_2 C 0.1008(4) 0.9009(3) 0.8209(3)
C14_2 C 0.0850(4) 0.9102(3) 0.7817(3)
H13_2 H 0.0634 0.9360 0.7756
C15_2 C 0.1889(4) 0.8138(3) 0.6964(3)
C16_2 C 0.1018(4) 0.8803(3) 0.7511(3)
H14_2 H 0.0923 0.8871 0.7247
C17_2 C 0.1481(4) 0.8086(3) 0.7271(3)
C18_2 C 0.1324(4) 0.8408(3) 0.7597(3)
C19_2 C 0.1244(4) 0.7650(3) 0.7219(3)
C20_2 C 0.1478(4) 0.8319(3) 0.7994(3)
H15_2 H 0.1680 0.8055 0.8058
C21_2 C 0.1333(4) 0.8619(3) 0.8290(3)
H16_2 H 0.1454 0.8562 0.8552
C22_2 C 0.0822(4) 0.9315(3) 0.8550(3)
C23_2 C 0.2281(4) 0.8535(3) 0.6882(3)
H17_2 H 0.2284 0.8595 0.6599
H18_2 H 0.2128 0.8792 0.7022
H19_2 H 0.2680 0.8472 0.6971
C24_2 C 0.0782(5) 0.7399(4) 0.7453(3)
H20_2 H 0.0972 0.7170 0.7609
H21_2 H 0.0575 0.7603 0.7627
H22_2 H 0.0502 0.7263 0.7271
Zn2_2 Zn 0.0000 1.0000 0.88346(5)
Zn3_2 Zn 0.5000 0.5000 0.88346(5)
O6_2 O 0.2902(3) 0.7909(2) 0.59717(19)
Zn2_3 Zn 1.0000 -0.0000 0.88346(5)
O3_3 O 0.1429(3) 0.1777(2) 0.1375(2)
O4_3 O 0.2098(3) 0.2091(2) 0.09717(19)
C13_3 C 0.1492(4) 0.1509(3) 0.0709(3)
C14_3 C 0.1650(4) 0.1602(3) 0.0317(3)
H13_3 H 0.1866 0.1860 0.0256
C16_3 C 0.1482(4) 0.1303(3) 0.0011(3)
C18_3 C 0.1176(4) 0.0908(3) 0.0097(3)
C20_3 C 0.1022(4) 0.0819(3) 0.0494(3)
H15_3 H 0.0820 0.0555 0.0558
C21_3 C 0.1167(4) 0.1119(3) 0.0790(3)
H16_3 H 0.1046 0.1062 0.1052
C22_3 C 0.1678(4) 0.1815(3) 0.1050(3)
H21_3 H 0.1925 0.0103 0.0127
Zn2_4 Zn 0.2500 0.2500 0.13346(5)
H8_3 H 0.0180 0.9028 0.9471
N3_3 N 0.0985(3) 0.9975(2) 0.9404(2)
H12_3 H 0.1047 0.9708 0.9317
C24_3 C 0.1718(5) 0.9899(4) 0.9953(3)
H22_3 H 0.1998 0.9763 0.9771
N1_3 N 0.9015(3) 0.0025(2) 0.9404(2)
H1_3 H 0.8953 0.0292 0.9317
C12_3 C 0.8282(5) 0.0101(4) 0.9953(3)
H11_3 H 0.8002 0.0237 0.9771
H19_3 H 0.9820 0.0972 0.9471
O6_3 O 0.9598(3) 0.0409(2) 0.84717(19)
O1_3 O 0.8571(3) 0.8223(2) 0.1375(2)
O2_3 O 0.7902(3) 0.7909(2) 0.09717(19)
C1_3 C 0.8508(4) 0.8491(3) 0.0709(3)
C2_3 C 0.8350(4) 0.8398(3) 0.0317(3)
H2_3 H 0.8134 0.8140 0.0256
C4_3 C 0.8518(4) 0.8697(3) 0.0011(3)
C6_3 C 0.8824(4) 0.9092(3) 0.0097(3)
C8_3 C 0.8978(4) 0.9181(3) 0.0494(3)
H4_3 H 0.9180 0.9445 0.0558
C9_3 C 0.8833(4) 0.8881(3) 0.0790(3)
H5_3 H 0.8954 0.8938 0.1052
C10_3 C 0.8322(4) 0.8185(3) 0.1050(3)
H10_3 H 0.8075 0.9897 0.0127
Zn3_3 Zn 0.7500 0.7500 0.13346(5)
O1_4 O 0.3929(3) 0.0723(2) 0.3875(2)
O2_4 O 0.4598(3) 0.0409(2) 0.34717(19)
N1_4 N 0.3485(3) 0.2525(2) 0.1904(2)
H1_4 H 0.3547 0.2792 0.1817
N2_3 N 0.3093(3) 0.2228(3) 0.1733(2)
C1_4 C 0.3992(4) 0.0991(3) 0.3209(3)
C2_4 C 0.4150(4) 0.0898(3) 0.2817(3)
H2_4 H 0.4366 0.0640 0.2756
C3_3 C 0.3111(4) 0.1862(3) 0.1964(3)
C4_4 C 0.3982(4) 0.1197(3) 0.2511(3)
H3_3 H 0.4077 0.1129 0.2247
C5_3 C 0.3519(4) 0.1914(3) 0.2271(3)
C6_4 C 0.3676(4) 0.1592(3) 0.2597(3)
C7_3 C 0.3756(4) 0.2350(3) 0.2219(3)
C8_4 C 0.3522(4) 0.1681(3) 0.2994(3)
H4_4 H 0.3320 0.1945 0.3058
C9_4 C 0.3667(4) 0.1381(3) 0.3290(3)
H5_4 H 0.3546 0.1438 0.3552
C10_4 C 0.4178(4) 0.0685(3) 0.3550(3)
C11_3 C 0.2719(4) 0.1465(3) 0.1882(3)
H6_3 H 0.2716 0.1405 0.1599
H7_3 H 0.2872 0.1208 0.2022
H8_4 H 0.2320 0.1528 0.1971
C12_4 C 0.4218(5) 0.2601(4) 0.2453(3)
H9_3 H 0.4028 0.2830 0.2609
H10_4 H 0.4425 0.2397 0.2627
H11_4 H 0.4498 0.2737 0.2271
O3_4 O 0.1071(3) 0.4277(2) 0.3875(2)
N3_4 N 0.1515(3) 0.2475(2) 0.1904(2)
H12_4 H 0.1453 0.2208 0.1817
N4_3 N 0.1907(3) 0.2772(3) 0.1733(2)
C13_4 C 0.1008(4) 0.4009(3) 0.3209(3)
C14_4 C 0.0850(4) 0.4102(3) 0.2817(3)
H13_4 H 0.0634 0.4360 0.2756
C15_3 C 0.1889(4) 0.3138(3) 0.1964(3)
C16_4 C 0.1018(4) 0.3803(3) 0.2511(3)
H14_3 H 0.0923 0.3871 0.2247
C17_3 C 0.1481(4) 0.3086(3) 0.2271(3)
C18_4 C 0.1324(4) 0.3408(3) 0.2597(3)
C19_3 C 0.1244(4) 0.2650(3) 0.2219(3)
C20_4 C 0.1478(4) 0.3319(3) 0.2994(3)
H15_4 H 0.1680 0.3055 0.3058
C21_4 C 0.1333(4) 0.3619(3) 0.3290(3)
H16_4 H 0.1454 0.3562 0.3552
C22_4 C 0.0822(4) 0.4315(3) 0.3550(3)
C23_3 C 0.2281(4) 0.3535(3) 0.1882(3)
H17_3 H 0.2284 0.3595 0.1599
H18_3 H 0.2128 0.3792 0.2022
H19_4 H 0.2680 0.3472 0.1971
C24_4 C 0.0782(5) 0.2399(4) 0.2453(3)
H20_3 H 0.0972 0.2170 0.2609
H21_4 H 0.0575 0.2603 0.2627
H22_4 H 0.0502 0.2263 0.2271
Zn3_4 Zn 0.5000 -0.0000 0.38346(5)
O6_4 O 0.2902(3) 0.2909(2) 0.09717(19)
Zn3_5 Zn 0.5000 1.0000 0.38346(5)
O1_5 O 0.3571(3) 0.3223(2) 0.1375(2)
C1_5 C 0.3508(4) 0.3491(3) 0.0709(3)
C2_5 C 0.3350(4) 0.3398(3) 0.0317(3)
H2_5 H 0.3134 0.3140 0.0256
C4_5 C 0.3518(4) 0.3697(3) 0.0011(3)
C6_5 C 0.3824(4) 0.4092(3) 0.0097(3)
C8_5 C 0.3978(4) 0.4181(3) 0.0494(3)
H4_5 H 0.4180 0.4445 0.0558
C9_5 C 0.3833(4) 0.3881(3) 0.0790(3)
H5_5 H 0.3954 0.3938 0.1052
C10_5 C 0.3322(4) 0.3185(3) 0.1050(3)
H9_4 H 0.3472 0.5330 0.0109
H10_5 H 0.3075 0.4897 0.0127
O3_5 O 0.6429(3) 0.6777(2) 0.1375(2)
O4_4 O 0.7098(3) 0.7091(2) 0.09717(19)
C13_5 C 0.6492(4) 0.6509(3) 0.0709(3)
C14_5 C 0.6650(4) 0.6602(3) 0.0317(3)
H13_5 H 0.6866 0.6860 0.0256
C16_5 C 0.6482(4) 0.6303(3) 0.0011(3)
C18_5 C 0.6176(4) 0.5908(3) 0.0097(3)
C20_5 C 0.6022(4) 0.5819(3) 0.0494(3)
H15_5 H 0.5820 0.5555 0.0558
C21_5 C 0.6167(4) 0.6119(3) 0.0790(3)
H16_5 H 0.6046 0.6062 0.1052
C22_5 C 0.6678(4) 0.6815(3) 0.1050(3)
H20_4 H 0.6528 0.4670 0.0109
H21_5 H 0.6925 0.5103 0.0127
N1_5 N 0.4015(3) 0.5025(2) 0.9404(2)
H1_5 H 0.3953 0.5292 0.9317
N2_4 N 0.4407(3) 0.4728(3) 0.9233(2)
C3_4 C 0.4389(4) 0.4362(3) 0.9464(3)
H3_4 H 0.3423 0.3629 0.9747
C5_4 C 0.3981(4) 0.4414(3) 0.9771(3)
C7_4 C 0.3744(4) 0.4850(3) 0.9719(3)
C11_4 C 0.4781(4) 0.3965(3) 0.9382(3)
H6_4 H 0.4784 0.3905 0.9099
H7_4 H 0.4628 0.3708 0.9522
H8_5 H 0.5180 0.4028 0.9471
C12_5 C 0.3282(5) 0.5101(4) 0.9953(3)
H11_5 H 0.3002 0.5237 0.9771
N3_5 N 0.5985(3) 0.4975(2) 0.9404(2)
H12_5 H 0.6047 0.4708 0.9317
N4_4 N 0.5593(3) 0.5272(3) 0.9233(2)
C15_4 C 0.5611(4) 0.5638(3) 0.9464(3)
H14_4 H 0.6577 0.6371 0.9747
C17_4 C 0.6019(4) 0.5586(3) 0.9771(3)
C19_4 C 0.6256(4) 0.5150(3) 0.9719(3)
C23_4 C 0.5219(4) 0.6035(3) 0.9382(3)
H17_4 H 0.5216 0.6095 0.9099
H18_4 H 0.5372 0.6292 0.9522
H19_5 H 0.4820 0.5972 0.9471
C24_5 C 0.6718(5) 0.4899(4) 0.9953(3)
H22_5 H 0.6998 0.4763 0.9771
O5_2 O 0.5402(3) 0.4591(2) 0.84717(19)
O1_6 O 0.8929(3) 0.5723(2) 0.3875(2)
N1_6 N 0.8485(3) 0.7525(2) 0.1904(2)
H1_6 H 0.8547 0.7792 0.1817
N2_5 N 0.8093(3) 0.7228(3) 0.1733(2)
C1_6 C 0.8992(4) 0.5991(3) 0.3209(3)
C2_6 C 0.9150(4) 0.5898(3) 0.2817(3)
H2_6 H 0.9366 0.5640 0.2756
C3_5 C 0.8111(4) 0.6862(3) 0.1964(3)
C4_6 C 0.8982(4) 0.6197(3) 0.2511(3)
H3_5 H 0.9077 0.6129 0.2247
C5_5 C 0.8519(4) 0.6914(3) 0.2271(3)
C6_6 C 0.8676(4) 0.6592(3) 0.2597(3)
C7_5 C 0.8756(4) 0.7350(3) 0.2219(3)
C8_6 C 0.8522(4) 0.6681(3) 0.2994(3)
H4_6 H 0.8320 0.6945 0.3058
C9_6 C 0.8667(4) 0.6381(3) 0.3290(3)
H5_6 H 0.8546 0.6438 0.3552
C10_6 C 0.9178(4) 0.5685(3) 0.3550(3)
C11_5 C 0.7719(4) 0.6465(3) 0.1882(3)
H6_5 H 0.7716 0.6405 0.1599
H7_5 H 0.7872 0.6208 0.2022
H8_6 H 0.7320 0.6528 0.1971
C12_6 C 0.9218(5) 0.7601(4) 0.2453(3)
H9_5 H 0.9028 0.7830 0.2609
H10_6 H 0.9425 0.7397 0.2627
H11_6 H 0.9498 0.7737 0.2271
O3_6 O 0.6071(3) 0.9277(2) 0.3875(2)
O4_5 O 0.5402(3) 0.9591(2) 0.34717(19)
N3_6 N 0.6515(3) 0.7475(2) 0.1904(2)
H12_6 H 0.6453 0.7208 0.1817
N4_5 N 0.6907(3) 0.7772(3) 0.1733(2)
C13_6 C 0.6008(4) 0.9009(3) 0.3209(3)
C14_6 C 0.5850(4) 0.9102(3) 0.2817(3)
H13_6 H 0.5634 0.9360 0.2756
C15_5 C 0.6889(4) 0.8138(3) 0.1964(3)
C16_6 C 0.6018(4) 0.8803(3) 0.2511(3)
H14_5 H 0.5923 0.8871 0.2247
C17_5 C 0.6481(4) 0.8086(3) 0.2271(3)
C18_6 C 0.6324(4) 0.8408(3) 0.2597(3)
C19_5 C 0.6244(4) 0.7650(3) 0.2219(3)
C20_6 C 0.6478(4) 0.8319(3) 0.2994(3)
H15_6 H 0.6680 0.8055 0.3058
C21_6 C 0.6333(4) 0.8619(3) 0.3290(3)
H16_6 H 0.6454 0.8562 0.3552
C22_6 C 0.5822(4) 0.9315(3) 0.3550(3)
C23_5 C 0.7281(4) 0.8535(3) 0.1882(3)
H17_5 H 0.7284 0.8595 0.1599
H18_5 H 0.7128 0.8792 0.2022
H19_6 H 0.7680 0.8472 0.1971
C24_6 C 0.5782(5) 0.7399(4) 0.2453(3)
H20_5 H 0.5972 0.7170 0.2609
H21_6 H 0.5575 0.7603 0.2627
H22_6 H 0.5502 0.7263 0.2271
N1_7 N 0.4015(3) 0.0025(2) 0.4404(2)
H1_7 H 0.3953 0.0292 0.4317
C12_7 C 0.3282(5) 0.0101(4) 0.4953(3)
H9_6 H 0.3472 0.0330 0.5109
H11_7 H 0.3002 0.0237 0.4771
O3_7 O 0.6429(3) 0.1777(2) 0.6375(2)
O4_6 O 0.7098(3) 0.2091(2) 0.59717(19)
N4_6 N 0.5593(3) 0.0272(3) 0.4233(2)
C13_7 C 0.6492(4) 0.1509(3) 0.5709(3)
C14_7 C 0.6650(4) 0.1602(3) 0.5317(3)
H13_7 H 0.6866 0.1860 0.5256
C15_6 C 0.5611(4) 0.0638(3) 0.4464(3)
C16_7 C 0.6482(4) 0.1303(3) 0.5011(3)
H14_6 H 0.6577 0.1371 0.4747
C17_6 C 0.6019(4) 0.0586(3) 0.4771(3)
C18_7 C 0.6176(4) 0.0908(3) 0.5097(3)
C19_6 C 0.6256(4) 0.0150(3) 0.4719(3)
C20_7 C 0.6022(4) 0.0819(3) 0.5494(3)
H15_7 H 0.5820 0.0555 0.5558
C21_7 C 0.6167(4) 0.1119(3) 0.5790(3)
H16_7 H 0.6046 0.1062 0.6052
C22_7 C 0.6678(4) 0.1815(3) 0.6050(3)
C23_6 C 0.5219(4) 0.1035(3) 0.4382(3)
H17_6 H 0.5216 0.1095 0.4099
H18_6 H 0.5372 0.1292 0.4522
H19_7 H 0.4820 0.0972 0.4471
H21_7 H 0.6925 0.0103 0.5127
O1_7 O 0.3571(3) 0.8223(2) 0.6375(2)
N2_6 N 0.4407(3) 0.9728(3) 0.4233(2)
C1_7 C 0.3508(4) 0.8491(3) 0.5709(3)
C2_7 C 0.3350(4) 0.8398(3) 0.5317(3)
H2_7 H 0.3134 0.8140 0.5256
C3_6 C 0.4389(4) 0.9362(3) 0.4464(3)
C4_7 C 0.3518(4) 0.8697(3) 0.5011(3)
H3_6 H 0.3423 0.8629 0.4747
C5_6 C 0.3981(4) 0.9414(3) 0.4771(3)
C6_7 C 0.3824(4) 0.9092(3) 0.5097(3)
C7_6 C 0.3744(4) 0.9850(3) 0.4719(3)
C8_7 C 0.3978(4) 0.9181(3) 0.5494(3)
H4_7 H 0.4180 0.9445 0.5558
C9_7 C 0.3833(4) 0.8881(3) 0.5790(3)
H5_7 H 0.3954 0.8938 0.6052
C10_7 C 0.3322(4) 0.8185(3) 0.6050(3)
C11_6 C 0.4781(4) 0.8965(3) 0.4382(3)
H6_6 H 0.4784 0.8905 0.4099
H7_6 H 0.4628 0.8708 0.4522
H8_7 H 0.5180 0.9028 0.4471
H10_7 H 0.3075 0.9897 0.5127
N3_7 N 0.5985(3) 0.9975(2) 0.4404(2)
H12_7 H 0.6047 0.9708 0.4317
C24_7 C 0.6718(5) 0.9899(4) 0.4953(3)
H20_6 H 0.6528 0.9670 0.5109
H22_7 H 0.6998 0.9763 0.4771
O1_8 O 0.8929(3) 0.0723(2) 0.8875(2)
N1_8 N 0.8485(3) 0.2525(2) 0.6904(2)
H1_8 H 0.8547 0.2792 0.6817
N2_7 N 0.8093(3) 0.2228(3) 0.6733(2)
C1_8 C 0.8992(4) 0.0991(3) 0.8209(3)
C2_8 C 0.9150(4) 0.0898(3) 0.7817(3)
H2_8 H 0.9366 0.0640 0.7756
C3_7 C 0.8111(4) 0.1862(3) 0.6964(3)
C4_8 C 0.8982(4) 0.1197(3) 0.7511(3)
H3_7 H 0.9077 0.1129 0.7247
C5_7 C 0.8519(4) 0.1914(3) 0.7271(3)
C6_8 C 0.8676(4) 0.1592(3) 0.7597(3)
C7_7 C 0.8756(4) 0.2350(3) 0.7219(3)
C8_8 C 0.8522(4) 0.1681(3) 0.7994(3)
H4_8 H 0.8320 0.1945 0.8058
C9_8 C 0.8667(4) 0.1381(3) 0.8290(3)
H5_8 H 0.8546 0.1438 0.8552
C10_8 C 0.9178(4) 0.0685(3) 0.8550(3)
C11_7 C 0.7719(4) 0.1465(3) 0.6882(3)
H6_7 H 0.7716 0.1405 0.6599
H7_7 H 0.7872 0.1208 0.7022
H8_8 H 0.7320 0.1528 0.6971
C12_8 C 0.9218(5) 0.2601(4) 0.7453(3)
H9_7 H 0.9028 0.2830 0.7609
H10_8 H 0.9425 0.2397 0.7627
H11_8 H 0.9498 0.2737 0.7271
O3_8 O 0.6071(3) 0.4277(2) 0.8875(2)
N3_8 N 0.6515(3) 0.2475(2) 0.6904(2)
H12_8 H 0.6453 0.2208 0.6817
N4_7 N 0.6907(3) 0.2772(3) 0.6733(2)
C13_8 C 0.6008(4) 0.4009(3) 0.8209(3)
C14_8 C 0.5850(4) 0.4102(3) 0.7817(3)
H13_8 H 0.5634 0.4360 0.7756
C15_7 C 0.6889(4) 0.3138(3) 0.6964(3)
C16_8 C 0.6018(4) 0.3803(3) 0.7511(3)
H14_7 H 0.5923 0.3871 0.7247
C17_7 C 0.6481(4) 0.3086(3) 0.7271(3)
C18_8 C 0.6324(4) 0.3408(3) 0.7597(3)
C19_7 C 0.6244(4) 0.2650(3) 0.7219(3)
C20_8 C 0.6478(4) 0.3319(3) 0.7994(3)
H15_8 H 0.6680 0.3055 0.8058
C21_8 C 0.6333(4) 0.3619(3) 0.8290(3)
H16_8 H 0.6454 0.3562 0.8552
C22_8 C 0.5822(4) 0.4315(3) 0.8550(3)
C23_7 C 0.7281(4) 0.3535(3) 0.6882(3)
H17_7 H 0.7284 0.3595 0.6599
H18_7 H 0.7128 0.3792 0.7022
H19_8 H 0.7680 0.3472 0.6971
C24_8 C 0.5782(5) 0.2399(4) 0.7453(3)
H20_7 H 0.5972 0.2170 0.7609
H21_8 H 0.5575 0.2603 0.7627
H22_8 H 0.5502 0.2263 0.7271
Zn2_5 Zn 0.0000 -0.0000 0.88346(5)
N4_8 N 0.0593(3) 0.0272(3) 0.9233(2)
C15_8 C 0.0611(4) 0.0638(3) 0.9464(3)
H14_8 H 0.1577 0.1371 0.9747
C17_8 C 0.1019(4) 0.0586(3) 0.9771(3)
C19_8 C 0.1256(4) 0.0150(3) 0.9719(3)
C23_8 C 0.0219(4) 0.1035(3) 0.9382(3)
H17_8 H 0.0216 0.1095 0.9099
H18_8 H 0.0372 0.1292 0.9522
Zn2_6 Zn 1.0000 1.0000 0.88346(5)
N2_8 N 0.9407(3) 0.9728(3) 0.9233(2)
C3_8 C 0.9389(4) 0.9362(3) 0.9464(3)
H3_8 H 0.8423 0.8629 0.9747
C5_8 C 0.8981(4) 0.9414(3) 0.9771(3)
C7_8 C 0.8744(4) 0.9850(3) 0.9719(3)
C11_8 C 0.9781(4) 0.8965(3) 0.9382(3)
H6_8 H 0.9784 0.8905 0.9099
H7_8 H 0.9628 0.8708 0.9522
H20_8 H 0.1528 0.9670 0.0109
H9_8 H 0.8472 0.0330 0.0109
Zn4 Zn 0.5000 0.5000 0.50050(5)
O7 O 0.2939(3) 0.7088(3) 0.2853(2)
O8 O 0.3852(3) 0.7385(3) 0.2903(2)
N5 N 0.3862(3) 0.5400(3) 0.4779(2)
H23 H 0.3701 0.5253 0.4973
N6 N 0.4449(3) 0.5369(2) 0.4679(2)
C25 C 0.3604(4) 0.6771(3) 0.3319(3)
C26 C 0.3243(4) 0.6400(3) 0.3380(3)
H24 H 0.2916 0.6352 0.3214
C27 C 0.4523(4) 0.5648(3) 0.4371(3)
C28 C 0.3364(4) 0.6099(4) 0.3686(3)
H25 H 0.3114 0.5853 0.3725
C29 C 0.3981(4) 0.5850(3) 0.4265(3)
C30 C 0.3857(4) 0.6163(3) 0.3936(3)
C31 C 0.3562(4) 0.5685(3) 0.4544(3)
C32 C 0.4224(4) 0.6527(3) 0.3862(3)
H26 H 0.4558 0.6572 0.4023
C33 C 0.4109(4) 0.6824(3) 0.3557(3)
H27 H 0.4370 0.7061 0.3509
C34 C 0.3463(4) 0.7111(3) 0.3003(3)
C35 C 0.5123(4) 0.5703(4) 0.4176(3)
H28 H 0.5173 0.6009 0.4093
H29 H 0.5149 0.5508 0.3948
H30 H 0.5432 0.5626 0.4365
C36 C 0.2919(4) 0.5793(4) 0.4604(4)
H31 H 0.2680 0.5607 0.4432
H32 H 0.2850 0.6103 0.4541
H33 H 0.2811 0.5737 0.4878
O9 O 0.7061(3) 0.2912(3) 0.2853(2)
O10 O 0.6148(3) 0.2615(3) 0.2903(2)
N7 N 0.6138(3) 0.4600(3) 0.4779(2)
H34 H 0.6299 0.4747 0.4973
N8 N 0.5551(3) 0.4631(2) 0.4679(2)
C37 C 0.6396(4) 0.3229(3) 0.3319(3)
C38 C 0.6757(4) 0.3600(3) 0.3380(3)
H35 H 0.7084 0.3648 0.3214
C39 C 0.5477(4) 0.4352(3) 0.4371(3)
C40 C 0.6636(4) 0.3901(4) 0.3686(3)
H36 H 0.6886 0.4147 0.3725
C41 C 0.6019(4) 0.4150(3) 0.4265(3)
C42 C 0.6143(4) 0.3837(3) 0.3936(3)
C43 C 0.6438(4) 0.4315(3) 0.4544(3)
C44 C 0.5776(4) 0.3473(3) 0.3862(3)
H37 H 0.5442 0.3428 0.4023
C45 C 0.5891(4) 0.3176(3) 0.3557(3)
H38 H 0.5630 0.2939 0.3509
C46 C 0.6537(4) 0.2889(3) 0.3003(3)
C47 C 0.4877(4) 0.4297(4) 0.4176(3)
H39 H 0.4827 0.3991 0.4093
H40 H 0.4851 0.4492 0.3948
H41 H 0.4568 0.4374 0.4365
C48 C 0.7081(4) 0.4207(4) 0.4604(4)
H42 H 0.7320 0.4393 0.4432
H43 H 0.7150 0.3897 0.4541
H44 H 0.7189 0.4263 0.4878
Zn5 Zn 0.7500 0.2500 0.25050(5)
Zn6 Zn 0.2500 0.7500 0.25050(5)
O11 O 0.5439(3) 0.5412(3) 0.5353(2)
O12 O 0.4561(3) 0.4588(3) 0.5353(2)
Zn6_2 Zn -0.0000 -0.0000 0.50050(5)
Zn6_3 Zn -0.0000 1.0000 0.50050(5)
Zn6_4 Zn 1.0000 -0.0000 0.50050(5)
Zn4_2 Zn 0.7500 0.7500 0.75050(5)
O7_2 O 0.9561(3) 0.9588(3) 0.5353(2)
O8_2 O 0.8648(3) 0.9885(3) 0.5403(2)
N5_2 N 0.8638(3) 0.7900(3) 0.7279(2)
H23_2 H 0.8799 0.7753 0.7473
N6_2 N 0.8051(3) 0.7869(2) 0.7179(2)
C25_2 C 0.8896(4) 0.9271(3) 0.5819(3)
C26_2 C 0.9257(4) 0.8900(3) 0.5880(3)
H24_2 H 0.9584 0.8852 0.5714
C27_2 C 0.7977(4) 0.8148(3) 0.6871(3)
C28_2 C 0.9136(4) 0.8599(4) 0.6186(3)
H25_2 H 0.9386 0.8353 0.6225
C29_2 C 0.8519(4) 0.8350(3) 0.6765(3)
C30_2 C 0.8643(4) 0.8663(3) 0.6436(3)
C31_2 C 0.8938(4) 0.8185(3) 0.7044(3)
C32_2 C 0.8276(4) 0.9027(3) 0.6362(3)
H26_2 H 0.7942 0.9072 0.6523
C33_2 C 0.8391(4) 0.9324(3) 0.6057(3)
H27_2 H 0.8130 0.9561 0.6009
C34_2 C 0.9037(4) 0.9611(3) 0.5503(3)
C35_2 C 0.7377(4) 0.8203(4) 0.6676(3)
H28_2 H 0.7327 0.8509 0.6593
H29_2 H 0.7351 0.8008 0.6448
H30_2 H 0.7068 0.8126 0.6865
C36_2 C 0.9581(4) 0.8293(4) 0.7104(4)
H31_2 H 0.9820 0.8107 0.6932
H32_2 H 0.9650 0.8603 0.7041
H33_2 H 0.9689 0.8237 0.7378
O10_2 O 0.6352(3) 0.5115(3) 0.5403(2)
N7_2 N 0.6362(3) 0.7100(3) 0.7279(2)
H34_2 H 0.6201 0.7247 0.7473
N8_2 N 0.6949(3) 0.7131(2) 0.7179(2)
C37_2 C 0.6104(4) 0.5729(3) 0.5819(3)
C38_2 C 0.5743(4) 0.6100(3) 0.5880(3)
H35_2 H 0.5416 0.6148 0.5714
C39_2 C 0.7023(4) 0.6852(3) 0.6871(3)
C40_2 C 0.5864(4) 0.6401(4) 0.6186(3)
H36_2 H 0.5614 0.6647 0.6225
C41_2 C 0.6481(4) 0.6650(3) 0.6765(3)
C42_2 C 0.6357(4) 0.6337(3) 0.6436(3)
C43_2 C 0.6062(4) 0.6815(3) 0.7044(3)
C44_2 C 0.6724(4) 0.5973(3) 0.6362(3)
H37_2 H 0.7058 0.5928 0.6523
C45_2 C 0.6609(4) 0.5676(3) 0.6057(3)
H38_2 H 0.6870 0.5439 0.6009
C46_2 C 0.5963(4) 0.5389(3) 0.5503(3)
C47_2 C 0.7623(4) 0.6797(4) 0.6676(3)
H39_2 H 0.7673 0.6491 0.6593
H40_2 H 0.7649 0.6992 0.6448
H41_2 H 0.7932 0.6874 0.6865
C48_2 C 0.5419(4) 0.6707(4) 0.7104(4)
H42_2 H 0.5180 0.6893 0.6932
H43_2 H 0.5350 0.6397 0.7041
H44_2 H 0.5311 0.6763 0.7378
Zn6_5 Zn 1.0000 1.0000 0.50050(5)
O11_2 O 0.7061(3) 0.7912(3) 0.7853(2)
O12_2 O 0.7939(3) 0.7088(3) 0.7853(2)
Zn4_3 Zn 0.5000 -0.0000 0.00050(5)
O11_3 O 0.5439(3) 0.0412(3) 0.0353(2)
O7_3 O 0.2939(3) 0.2088(3) 0.7853(2)
O8_3 O 0.3852(3) 0.2385(3) 0.7903(2)
N5_3 N 0.3862(3) 0.0400(3) 0.9779(2)
H23_3 H 0.3701 0.0253 0.9973
N6_3 N 0.4449(3) 0.0369(2) 0.9679(2)
C25_3 C 0.3604(4) 0.1771(3) 0.8319(3)
C26_3 C 0.3243(4) 0.1400(3) 0.8380(3)
H24_3 H 0.2916 0.1352 0.8214
C27_3 C 0.4523(4) 0.0648(3) 0.9371(3)
C28_3 C 0.3364(4) 0.1099(4) 0.8686(3)
H25_3 H 0.3114 0.0853 0.8725
C29_3 C 0.3981(4) 0.0850(3) 0.9265(3)
C30_3 C 0.3857(4) 0.1163(3) 0.8936(3)
C31_3 C 0.3562(4) 0.0685(3) 0.9544(3)
C32_3 C 0.4224(4) 0.1527(3) 0.8862(3)
H26_3 H 0.4558 0.1572 0.9023
C33_3 C 0.4109(4) 0.1824(3) 0.8557(3)
H27_3 H 0.4370 0.2061 0.8509
C34_3 C 0.3463(4) 0.2111(3) 0.8003(3)
C35_3 C 0.5123(4) 0.0703(4) 0.9176(3)
H28_3 H 0.5173 0.1009 0.9093
H29_3 H 0.5149 0.0508 0.8948
H30_3 H 0.5432 0.0626 0.9365
C36_3 C 0.2919(4) 0.0793(4) 0.9604(4)
H31_3 H 0.2680 0.0607 0.9432
H32_3 H 0.2850 0.1103 0.9541
H33_3 H 0.2811 0.0737 0.9878
Zn6_6 Zn 0.2500 0.2500 0.75050(5)
Zn4_4 Zn 0.5000 1.0000 0.00050(5)
O12_3 O 0.4561(3) 0.9588(3) 0.0353(2)
O10_3 O 0.6148(3) 0.7615(3) 0.7903(2)
N7_3 N 0.6138(3) 0.9600(3) 0.9779(2)
H34_3 H 0.6299 0.9747 0.9973
N8_3 N 0.5551(3) 0.9631(2) 0.9679(2)
C37_3 C 0.6396(4) 0.8229(3) 0.8319(3)
C38_3 C 0.6757(4) 0.8600(3) 0.8380(3)
H35_3 H 0.7084 0.8648 0.8214
C39_3 C 0.5477(4) 0.9352(3) 0.9371(3)
C40_3 C 0.6636(4) 0.8901(4) 0.8686(3)
H36_3 H 0.6886 0.9147 0.8725
C41_3 C 0.6019(4) 0.9150(3) 0.9265(3)
C42_3 C 0.6143(4) 0.8837(3) 0.8936(3)
C43_3 C 0.6438(4) 0.9315(3) 0.9544(3)
C44_3 C 0.5776(4) 0.8473(3) 0.8862(3)
H37_3 H 0.5442 0.8428 0.9023
C45_3 C 0.5891(4) 0.8176(3) 0.8557(3)
H38_3 H 0.5630 0.7939 0.8509
C46_3 C 0.6537(4) 0.7889(3) 0.8003(3)
C47_3 C 0.4877(4) 0.9297(4) 0.9176(3)
H39_3 H 0.4827 0.8991 0.9093
H40_3 H 0.4851 0.9492 0.8948
H41_3 H 0.4568 0.9374 0.9365
C48_3 C 0.7081(4) 0.9207(4) 0.9604(4)
H42_3 H 0.7320 0.9393 0.9432
H43_3 H 0.7150 0.8897 0.9541
H44_3 H 0.7189 0.9263 0.9878
Zn6_7 Zn -0.0000 0.5000 0.00050(5)
O7_4 O 0.9561(3) 0.4588(3) 0.0353(2)
O8_4 O 0.8648(3) 0.4885(3) 0.0403(2)
N5_4 N 0.8638(3) 0.2900(3) 0.2279(2)
H23_4 H 0.8799 0.2753 0.2473
N6_4 N 0.8051(3) 0.2869(2) 0.2179(2)
C25_4 C 0.8896(4) 0.4271(3) 0.0819(3)
C26_4 C 0.9257(4) 0.3900(3) 0.0880(3)
H24_4 H 0.9584 0.3852 0.0714
C27_4 C 0.7977(4) 0.3148(3) 0.1871(3)
C28_4 C 0.9136(4) 0.3599(4) 0.1186(3)
H25_4 H 0.9386 0.3353 0.1225
C29_4 C 0.8519(4) 0.3350(3) 0.1765(3)
C30_4 C 0.8643(4) 0.3663(3) 0.1436(3)
C31_4 C 0.8938(4) 0.3185(3) 0.2044(3)
C32_4 C 0.8276(4) 0.4027(3) 0.1362(3)
H26_4 H 0.7942 0.4072 0.1523
C33_4 C 0.8391(4) 0.4324(3) 0.1057(3)
H27_4 H 0.8130 0.4561 0.1009
C34_4 C 0.9037(4) 0.4611(3) 0.0503(3)
C35_4 C 0.7377(4) 0.3203(4) 0.1676(3)
H28_4 H 0.7327 0.3509 0.1593
H29_4 H 0.7351 0.3008 0.1448
H30_4 H 0.7068 0.3126 0.1865
C36_4 C 0.9581(4) 0.3293(4) 0.2104(4)
H31_4 H 0.9820 0.3107 0.1932
H32_4 H 0.9650 0.3603 0.2041
H33_4 H 0.9689 0.3237 0.2378
O10_4 O 0.6352(3) 0.0115(3) 0.0403(2)
N7_4 N 0.6362(3) 0.2100(3) 0.2279(2)
H34_4 H 0.6201 0.2247 0.2473
N8_4 N 0.6949(3) 0.2131(2) 0.2179(2)
C37_4 C 0.6104(4) 0.0729(3) 0.0819(3)
C38_4 C 0.5743(4) 0.1100(3) 0.0880(3)
H35_4 H 0.5416 0.1148 0.0714
C39_4 C 0.7023(4) 0.1852(3) 0.1871(3)
C40_4 C 0.5864(4) 0.1401(4) 0.1186(3)
H36_4 H 0.5614 0.1647 0.1225
C41_4 C 0.6481(4) 0.1650(3) 0.1765(3)
C42_4 C 0.6357(4) 0.1337(3) 0.1436(3)
C43_4 C 0.6062(4) 0.1815(3) 0.2044(3)
C44_4 C 0.6724(4) 0.0973(3) 0.1362(3)
H37_4 H 0.7058 0.0928 0.1523
C45_4 C 0.6609(4) 0.0676(3) 0.1057(3)
H38_4 H 0.6870 0.0439 0.1009
C46_4 C 0.5963(4) 0.0389(3) 0.0503(3)
C47_4 C 0.7623(4) 0.1797(4) 0.1676(3)
H39_4 H 0.7673 0.1491 0.1593
H40_4 H 0.7649 0.1992 0.1448
H41_4 H 0.7932 0.1874 0.1865
C48_4 C 0.5419(4) 0.1707(4) 0.2104(4)
H42_4 H 0.5180 0.1893 0.1932
H43_4 H 0.5350 0.1397 0.2041
H44_4 H 0.5311 0.1763 0.2378
Zn6_8 Zn 1.0000 0.5000 0.00050(5)
O12_4 O 0.7939(3) 0.2088(3) 0.2853(2)
O11_4 O 0.0439(3) 0.5412(3) 0.0353(2)
C35_5 C 0.0123(4) 0.5703(4) 0.9176(3)
H28_5 H 0.0173 0.6009 0.9093
H29_5 H 0.0149 0.5508 0.8948
H30_5 H 0.0432 0.5626 0.9365
O9_2 O 0.2061(3) 0.2912(3) 0.7853(2)
O10_5 O 0.1148(3) 0.2615(3) 0.7903(2)
N7_5 N 0.1138(3) 0.4600(3) 0.9779(2)
H34_5 H 0.1299 0.4747 0.9973
N8_5 N 0.0551(3) 0.4631(2) 0.9679(2)
C37_5 C 0.1396(4) 0.3229(3) 0.8319(3)
C38_5 C 0.1757(4) 0.3600(3) 0.8380(3)
H35_5 H 0.2084 0.3648 0.8214
C39_5 C 0.0477(4) 0.4352(3) 0.9371(3)
C40_5 C 0.1636(4) 0.3901(4) 0.8686(3)
H36_5 H 0.1886 0.4147 0.8725
C41_5 C 0.1019(4) 0.4150(3) 0.9265(3)
C42_5 C 0.1143(4) 0.3837(3) 0.8936(3)
C43_5 C 0.1438(4) 0.4315(3) 0.9544(3)
C44_5 C 0.0776(4) 0.3473(3) 0.8862(3)
H37_5 H 0.0442 0.3428 0.9023
C45_5 C 0.0891(4) 0.3176(3) 0.8557(3)
H38_5 H 0.0630 0.2939 0.8509
C46_5 C 0.1537(4) 0.2889(3) 0.8003(3)
C48_5 C 0.2081(4) 0.4207(4) 0.9604(4)
H42_5 H 0.2320 0.4393 0.9432
H43_5 H 0.2150 0.3897 0.9541
H44_5 H 0.2189 0.4263 0.9878
O8_5 O 0.8852(3) 0.7385(3) 0.7903(2)
N5_5 N 0.8862(3) 0.5400(3) 0.9779(2)
H23_5 H 0.8701 0.5253 0.9973
N6_5 N 0.9449(3) 0.5369(2) 0.9679(2)
C25_5 C 0.8604(4) 0.6771(3) 0.8319(3)
C26_5 C 0.8243(4) 0.6400(3) 0.8380(3)
H24_5 H 0.7916 0.6352 0.8214
C27_5 C 0.9523(4) 0.5648(3) 0.9371(3)
C28_5 C 0.8364(4) 0.6099(4) 0.8686(3)
H25_5 H 0.8114 0.5853 0.8725
C29_5 C 0.8981(4) 0.5850(3) 0.9265(3)
C30_5 C 0.8857(4) 0.6163(3) 0.8936(3)
C31_5 C 0.8562(4) 0.5685(3) 0.9544(3)
C32_5 C 0.9224(4) 0.6527(3) 0.8862(3)
H26_5 H 0.9558 0.6572 0.9023
C33_5 C 0.9109(4) 0.6824(3) 0.8557(3)
H27_5 H 0.9370 0.7061 0.8509
C34_5 C 0.8463(4) 0.7111(3) 0.8003(3)
C36_5 C 0.7919(4) 0.5793(4) 0.9604(4)
H31_5 H 0.7680 0.5607 0.9432
H32_5 H 0.7850 0.6103 0.9541
H33_5 H 0.7811 0.5737 0.9878
C47_5 C 0.9877(4) 0.4297(4) 0.9176(3)
H39_5 H 0.9827 0.3991 0.9093
H40_5 H 0.9851 0.4492 0.8948
H41_5 H 0.9568 0.4374 0.9365
O8_6 O 0.3648(3) 0.9885(3) 0.0403(2)
N5_6 N 0.3638(3) 0.7900(3) 0.2279(2)
H23_6 H 0.3799 0.7753 0.2473
N6_6 N 0.3051(3) 0.7869(2) 0.2179(2)
C25_6 C 0.3896(4) 0.9271(3) 0.0819(3)
C26_6 C 0.4257(4) 0.8900(3) 0.0880(3)
H24_6 H 0.4584 0.8852 0.0714
C27_6 C 0.2977(4) 0.8148(3) 0.1871(3)
C28_6 C 0.4136(4) 0.8599(4) 0.1186(3)
H25_6 H 0.4386 0.8353 0.1225
C29_6 C 0.3519(4) 0.8350(3) 0.1765(3)
C30_6 C 0.3643(4) 0.8663(3) 0.1436(3)
C31_6 C 0.3938(4) 0.8185(3) 0.2044(3)
C32_6 C 0.3276(4) 0.9027(3) 0.1362(3)
H26_6 H 0.2942 0.9072 0.1523
C33_6 C 0.3391(4) 0.9324(3) 0.1057(3)
H27_6 H 0.3130 0.9561 0.1009
C34_6 C 0.4037(4) 0.9611(3) 0.0503(3)
C35_6 C 0.2377(4) 0.8203(4) 0.1676(3)
H28_6 H 0.2327 0.8509 0.1593
H29_6 H 0.2351 0.8008 0.1448
H30_6 H 0.2068 0.8126 0.1865
C36_6 C 0.4581(4) 0.8293(4) 0.2104(4)
H31_6 H 0.4820 0.8107 0.1932
H32_6 H 0.4650 0.8603 0.2041
H33_6 H 0.4689 0.8237 0.2378
O10_6 O 0.1352(3) 0.5115(3) 0.0403(2)
N7_6 N 0.1362(3) 0.7100(3) 0.2279(2)
H34_6 H 0.1201 0.7247 0.2473
N8_6 N 0.1949(3) 0.7131(2) 0.2179(2)
C37_6 C 0.1104(4) 0.5729(3) 0.0819(3)
C38_6 C 0.0743(4) 0.6100(3) 0.0880(3)
H35_6 H 0.0416 0.6148 0.0714
C39_6 C 0.2023(4) 0.6852(3) 0.1871(3)
C40_6 C 0.0864(4) 0.6401(4) 0.1186(3)
H36_6 H 0.0614 0.6647 0.1225
C41_6 C 0.1481(4) 0.6650(3) 0.1765(3)
C42_6 C 0.1357(4) 0.6337(3) 0.1436(3)
C43_6 C 0.1062(4) 0.6815(3) 0.2044(3)
C44_6 C 0.1724(4) 0.5973(3) 0.1362(3)
H37_6 H 0.2058 0.5928 0.1523
C45_6 C 0.1609(4) 0.5676(3) 0.1057(3)
H38_6 H 0.1870 0.5439 0.1009
C46_6 C 0.0963(4) 0.5389(3) 0.0503(3)
C47_6 C 0.2623(4) 0.6797(4) 0.1676(3)
H39_6 H 0.2673 0.6491 0.1593
H40_6 H 0.2649 0.6992 0.1448
H41_6 H 0.2932 0.6874 0.1865
C48_6 C 0.0419(4) 0.6707(4) 0.2104(4)
H42_6 H 0.0180 0.6893 0.1932
H43_6 H 0.0350 0.6397 0.2041
H44_6 H 0.0311 0.6763 0.2378
O11_5 O 0.2061(3) 0.7912(3) 0.2853(2)
C35_7 C 0.0123(4) 0.0703(4) 0.4176(3)
H28_7 H 0.0173 0.1009 0.4093
H29_7 H 0.0149 0.0508 0.3948
H30_7 H 0.0432 0.0626 0.4365
O11_6 O 0.0439(3) 0.0412(3) 0.5353(2)
O10_7 O 0.1148(3) 0.7615(3) 0.2903(2)
N7_7 N 0.1138(3) 0.9600(3) 0.4779(2)
H34_7 H 0.1299 0.9747 0.4973
N8_7 N 0.0551(3) 0.9631(2) 0.4679(2)
C37_7 C 0.1396(4) 0.8229(3) 0.3319(3)
C38_7 C 0.1757(4) 0.8600(3) 0.3380(3)
H35_7 H 0.2084 0.8648 0.3214
C39_7 C 0.0477(4) 0.9352(3) 0.4371(3)
C40_7 C 0.1636(4) 0.8901(4) 0.3686(3)
H36_7 H 0.1886 0.9147 0.3725
C41_7 C 0.1019(4) 0.9150(3) 0.4265(3)
C42_7 C 0.1143(4) 0.8837(3) 0.3936(3)
C43_7 C 0.1438(4) 0.9315(3) 0.4544(3)
C44_7 C 0.0776(4) 0.8473(3) 0.3862(3)
H37_7 H 0.0442 0.8428 0.4023
C45_7 C 0.0891(4) 0.8176(3) 0.3557(3)
H38_7 H 0.0630 0.7939 0.3509
C46_7 C 0.1537(4) 0.7889(3) 0.3003(3)
C48_7 C 0.2081(4) 0.9207(4) 0.4604(4)
H42_7 H 0.2320 0.9393 0.4432
H43_7 H 0.2150 0.8897 0.4541
H44_7 H 0.2189 0.9263 0.4878
O8_7 O 0.8852(3) 0.2385(3) 0.2903(2)
N5_7 N 0.8862(3) 0.0400(3) 0.4779(2)
H23_7 H 0.8701 0.0253 0.4973
N6_7 N 0.9449(3) 0.0369(2) 0.4679(2)
C25_7 C 0.8604(4) 0.1771(3) 0.3319(3)
C26_7 C 0.8243(4) 0.1400(3) 0.3380(3)
H24_7 H 0.7916 0.1352 0.3214
C27_7 C 0.9523(4) 0.0648(3) 0.4371(3)
C28_7 C 0.8364(4) 0.1099(4) 0.3686(3)
H25_7 H 0.8114 0.0853 0.3725
C29_7 C 0.8981(4) 0.0850(3) 0.4265(3)
C30_7 C 0.8857(4) 0.1163(3) 0.3936(3)
C31_7 C 0.8562(4) 0.0685(3) 0.4544(3)
C32_7 C 0.9224(4) 0.1527(3) 0.3862(3)
H26_7 H 0.9558 0.1572 0.4023
C33_7 C 0.9109(4) 0.1824(3) 0.3557(3)
H27_7 H 0.9370 0.2061 0.3509
C34_7 C 0.8463(4) 0.2111(3) 0.3003(3)
C36_7 C 0.7919(4) 0.0793(4) 0.4604(4)
H31_7 H 0.7680 0.0607 0.4432
H32_7 H 0.7850 0.1103 0.4541
H33_7 H 0.7811 0.0737 0.4878
C47_7 C 0.9877(4) 0.9297(4) 0.4176(3)
H39_7 H 0.9827 0.8991 0.4093
H40_7 H 0.9851 0.9492 0.3948
H41_7 H 0.9568 0.9374 0.4365
O8_8 O 0.3648(3) 0.4885(3) 0.5403(2)
N5_8 N 0.3638(3) 0.2900(3) 0.7279(2)
H23_8 H 0.3799 0.2753 0.7473
N6_8 N 0.3051(3) 0.2869(2) 0.7179(2)
C25_8 C 0.3896(4) 0.4271(3) 0.5819(3)
C26_8 C 0.4257(4) 0.3900(3) 0.5880(3)
H24_8 H 0.4584 0.3852 0.5714
C27_8 C 0.2977(4) 0.3148(3) 0.6871(3)
C28_8 C 0.4136(4) 0.3599(4) 0.6186(3)
H25_8 H 0.4386 0.3353 0.6225
C29_8 C 0.3519(4) 0.3350(3) 0.6765(3)
C30_8 C 0.3643(4) 0.3663(3) 0.6436(3)
C31_8 C 0.3938(4) 0.3185(3) 0.7044(3)
C32_8 C 0.3276(4) 0.4027(3) 0.6362(3)
H26_8 H 0.2942 0.4072 0.6523
C33_8 C 0.3391(4) 0.4324(3) 0.6057(3)
H27_8 H 0.3130 0.4561 0.6009
C34_8 C 0.4037(4) 0.4611(3) 0.5503(3)
C35_8 C 0.2377(4) 0.3203(4) 0.6676(3)
H28_8 H 0.2327 0.3509 0.6593
H29_8 H 0.2351 0.3008 0.6448
H30_8 H 0.2068 0.3126 0.6865
C36_8 C 0.4581(4) 0.3293(4) 0.7104(4)
H31_8 H 0.4820 0.3107 0.6932
H32_8 H 0.4650 0.3603 0.7041
H33_8 H 0.4689 0.3237 0.7378
O10_8 O 0.1352(3) 0.0115(3) 0.5403(2)
N7_8 N 0.1362(3) 0.2100(3) 0.7279(2)
H34_8 H 0.1201 0.2247 0.7473
N8_8 N 0.1949(3) 0.2131(2) 0.7179(2)
C37_8 C 0.1104(4) 0.0729(3) 0.5819(3)
C38_8 C 0.0743(4) 0.1100(3) 0.5880(3)
H35_8 H 0.0416 0.1148 0.5714
C39_8 C 0.2023(4) 0.1852(3) 0.6871(3)
C40_8 C 0.0864(4) 0.1401(4) 0.6186(3)
H36_8 H 0.0614 0.1647 0.6225
C41_8 C 0.1481(4) 0.1650(3) 0.6765(3)
C42_8 C 0.1357(4) 0.1337(3) 0.6436(3)
C43_8 C 0.1062(4) 0.1815(3) 0.7044(3)
C44_8 C 0.1724(4) 0.0973(3) 0.6362(3)
H37_8 H 0.2058 0.0928 0.6523
C45_8 C 0.1609(4) 0.0676(3) 0.6057(3)
H38_8 H 0.1870 0.0439 0.6009
C46_8 C 0.0963(4) 0.0389(3) 0.5503(3)
C47_8 C 0.2623(4) 0.1797(4) 0.6676(3)
H39_8 H 0.2673 0.1491 0.6593
H40_8 H 0.2649 0.1992 0.6448
H41_8 H 0.2932 0.1874 0.6865
C48_8 C 0.0419(4) 0.1707(4) 0.7104(4)
H42_8 H 0.0180 0.1893 0.6932
H43_8 H 0.0350 0.1397 0.7041
H44_8 H 0.0311 0.1763 0.7378
Zn7 Zn 0.75206(5) 0.50489(4) 0.68707(3)
O13 O 0.9496(3) 0.2900(2) 0.90002(18)
O14 O 0.6244(3) 0.2651(3) 0.4815(2)
O15 O 0.8674(3) 0.2488(2) 0.8861(2)
O16 O 0.5349(3) 0.2982(2) 0.47273(19)
N9 N 0.8546(4) 0.4467(3) 0.6987(3)
H45 H 0.8679 0.4567 0.6762
N10 N 0.6351(3) 0.4676(3) 0.6657(2)
H46 H 0.6203 0.4809 0.6863
N11 N 0.8043(3) 0.4617(3) 0.7167(2)
N12 N 0.6938(3) 0.4708(3) 0.6539(2)
C49 C 0.8861(4) 0.3148(3) 0.8487(3)
C50 C 0.6018(4) 0.3308(3) 0.5188(3)
C51 C 0.9289(4) 0.3459(3) 0.8353(3)
H47 H 0.9668 0.3461 0.8468
C52 C 0.5654(4) 0.3672(3) 0.5263(3)
H48 H 0.5308 0.3706 0.5111
C53 C 0.7983(4) 0.4373(3) 0.7503(3)
C54 C 0.6988(4) 0.4454(3) 0.6214(3)
C55 C 0.9155(4) 0.3761(3) 0.8054(3)
H49 H 0.9439 0.3971 0.7976
C56 C 0.5782(4) 0.3986(3) 0.5552(3)
H50 H 0.5526 0.4228 0.5591
C57 C 0.8455(4) 0.4075(3) 0.7532(3)
C58 C 0.6423(4) 0.4253(3) 0.6111(3)
C59 C 0.8597(4) 0.3755(3) 0.7866(3)
C60 C 0.6304(4) 0.3941(3) 0.5793(3)
C61 C 0.8812(4) 0.4144(4) 0.7199(3)
C62 C 0.6035(4) 0.4409(3) 0.6410(3)
C63 C 0.8173(4) 0.3444(4) 0.7996(3)
H51 H 0.7798 0.3436 0.7875
C64 C 0.6677(5) 0.3579(4) 0.5714(3)
H52 H 0.7027 0.3548 0.5862
C65 C 0.8305(4) 0.3147(3) 0.8303(3)
H53 H 0.8015 0.2944 0.8388
C66 C 0.6547(4) 0.3260(3) 0.5422(3)
H54 H 0.6803 0.3018 0.5380
C67 C 0.9011(4) 0.2821(3) 0.8806(3)
C68 C 0.5865(4) 0.2956(3) 0.4888(3)
C69 C 0.7466(4) 0.4440(4) 0.7781(3)
H55 H 0.7612 0.4527 0.8040
H56 H 0.7245 0.4165 0.7804
H57 H 0.7210 0.4672 0.7678
C70 C 0.7557(5) 0.4433(5) 0.5992(4)
H58 H 0.7827 0.4233 0.6126
H59 H 0.7731 0.4728 0.5979
H60 H 0.7483 0.4326 0.5725
C71 C 0.9371(5) 0.3913(5) 0.7049(4)
H61 H 0.9684 0.4131 0.7014
H62 H 0.9289 0.3771 0.6797
H63 H 0.9496 0.3691 0.7240
C72 C 0.5390(5) 0.4321(4) 0.6479(4)
H64 H 0.5159 0.4457 0.6269
H65 H 0.5273 0.4447 0.6732
H66 H 0.5320 0.4003 0.6481
Zn8 Zn 0.49794(5) 0.25489(4) 0.43707(3)
Zn9 Zn 0.99794(5) 0.25489(4) 0.93707(3)
O17 O 0.8004(3) 0.5400(2) 0.65002(18)
O18 O 0.7151(3) 0.5482(2) 0.72273(19)
O13_2 O 0.3004(3) 0.5400(2) 0.15002(18)
O15_2 O 0.3826(3) 0.4988(2) 0.1361(2)
C49_2 C 0.3639(4) 0.5648(3) 0.0987(3)
C51_2 C 0.3211(4) 0.5959(3) 0.0853(3)
H47_2 H 0.2832 0.5961 0.0968
C53_2 C 0.4517(4) 0.6873(3) 0.0003(3)
C55_2 C 0.3345(4) 0.6261(3) 0.0554(3)
H49_2 H 0.3061 0.6471 0.0476
C57_2 C 0.4045(4) 0.6575(3) 0.0032(3)
C59_2 C 0.3903(4) 0.6255(3) 0.0366(3)
C63_2 C 0.4327(4) 0.5944(4) 0.0496(3)
H51_2 H 0.4702 0.5936 0.0375
C65_2 C 0.4195(4) 0.5647(3) 0.0803(3)
H53_2 H 0.4485 0.5444 0.0888
C67_2 C 0.3489(4) 0.5321(3) 0.1306(3)
C69_2 C 0.5034(4) 0.6940(4) 0.0281(3)
H55_2 H 0.4888 0.7027 0.0540
H56_2 H 0.5255 0.6665 0.0304
H57_2 H 0.5290 0.7172 0.0178
Zn9_2 Zn 0.25206(5) 0.50489(4) 0.18707(3)
Zn7_2 Zn 0.49794(5) 0.75489(4) 0.93707(3)
O14_2 O 0.6256(3) 0.5151(3) 0.7315(2)
N9_2 N 0.3954(4) 0.6967(3) 0.9487(3)
H45_2 H 0.3821 0.7067 0.9262
N10_2 N 0.6149(3) 0.7176(3) 0.9157(2)
H46_2 H 0.6297 0.7309 0.9363
N11_2 N 0.4457(3) 0.7117(3) 0.9667(2)
N12_2 N 0.5562(3) 0.7208(3) 0.9039(2)
C50_2 C 0.6482(4) 0.5808(3) 0.7688(3)
C52_2 C 0.6846(4) 0.6172(3) 0.7763(3)
H48_2 H 0.7192 0.6206 0.7611
C54_2 C 0.5512(4) 0.6954(3) 0.8714(3)
C56_2 C 0.6718(4) 0.6486(3) 0.8052(3)
H50_2 H 0.6974 0.6728 0.8091
C58_2 C 0.6077(4) 0.6753(3) 0.8611(3)
C60_2 C 0.6196(4) 0.6441(3) 0.8293(3)
C61_2 C 0.3688(4) 0.6644(4) 0.9699(3)
C62_2 C 0.6465(4) 0.6909(3) 0.8910(3)
C64_2 C 0.5823(5) 0.6079(4) 0.8214(3)
H52_2 H 0.5473 0.6048 0.8362
C66_2 C 0.5953(4) 0.5760(3) 0.7922(3)
H54_2 H 0.5697 0.5518 0.7880
C68_2 C 0.6635(4) 0.5456(3) 0.7388(3)
C70_2 C 0.4943(5) 0.6933(5) 0.8492(4)
H58_2 H 0.4673 0.6733 0.8626
H59_2 H 0.4769 0.7228 0.8479
H60_2 H 0.5017 0.6826 0.8225
C71_2 C 0.3129(5) 0.6413(5) 0.9549(4)
H61_2 H 0.2816 0.6631 0.9514
H62_2 H 0.3211 0.6271 0.9297
H63_2 H 0.3004 0.6191 0.9740
C72_2 C 0.7110(5) 0.6821(4) 0.8979(4)
H64_2 H 0.7341 0.6957 0.8769
H65_2 H 0.7227 0.6947 0.9232
H66_2 H 0.7180 0.6503 0.8981
O17_2 O 0.4496(3) 0.7900(2) 0.90002(18)
O18_2 O 0.5349(3) 0.7982(2) 0.97273(19)
Zn7_3 Zn 0.75206(5) 0.00489(4) 0.18707(3)
O17_3 O 0.8004(3) 0.0400(2) 0.15002(18)
O18_3 O 0.7151(3) 0.0482(2) 0.22273(19)
O13_3 O 0.9496(3) 0.7900(2) 0.40002(18)
O15_3 O 0.8674(3) 0.7488(2) 0.3861(2)
N9_3 N 0.8546(4) 0.9467(3) 0.1987(3)
H45_3 H 0.8679 0.9567 0.1762
N10_3 N 0.6351(3) 0.9676(3) 0.1657(2)
H46_3 H 0.6203 0.9809 0.1863
N11_3 N 0.8043(3) 0.9617(3) 0.2167(2)
N12_3 N 0.6938(3) 0.9708(3) 0.1539(2)
C49_3 C 0.8861(4) 0.8148(3) 0.3487(3)
C50_3 C 0.6018(4) 0.8308(3) 0.0188(3)
C51_3 C 0.9289(4) 0.8459(3) 0.3353(3)
H47_3 H 0.9668 0.8461 0.3468
C52_3 C 0.5654(4) 0.8672(3) 0.0263(3)
H48_3 H 0.5308 0.8706 0.0111
C53_3 C 0.7983(4) 0.9373(3) 0.2503(3)
C54_3 C 0.6988(4) 0.9454(3) 0.1214(3)
C55_3 C 0.9155(4) 0.8761(3) 0.3054(3)
H49_3 H 0.9439 0.8971 0.2976
C56_3 C 0.5782(4) 0.8986(3) 0.0552(3)
H50_3 H 0.5526 0.9228 0.0591
C57_3 C 0.8455(4) 0.9075(3) 0.2532(3)
C58_3 C 0.6423(4) 0.9253(3) 0.1111(3)
C59_3 C 0.8597(4) 0.8755(3) 0.2866(3)
C60_3 C 0.6304(4) 0.8941(3) 0.0793(3)
C61_3 C 0.8812(4) 0.9144(4) 0.2199(3)
C62_3 C 0.6035(4) 0.9409(3) 0.1410(3)
C63_3 C 0.8173(4) 0.8444(4) 0.2996(3)
H51_3 H 0.7798 0.8436 0.2875
C64_3 C 0.6677(5) 0.8579(4) 0.0714(3)
H52_3 H 0.7027 0.8548 0.0862
C65_3 C 0.8305(4) 0.8147(3) 0.3303(3)
H53_3 H 0.8015 0.7944 0.3388
C66_3 C 0.6547(4) 0.8260(3) 0.0422(3)
H54_3 H 0.6803 0.8018 0.0380
C67_3 C 0.9011(4) 0.7821(3) 0.3806(3)
C69_3 C 0.7466(4) 0.9440(4) 0.2781(3)
H55_3 H 0.7612 0.9527 0.3040
H56_3 H 0.7245 0.9165 0.2804
H57_3 H 0.7210 0.9672 0.2678
C70_3 C 0.7557(5) 0.9433(5) 0.0992(4)
H58_3 H 0.7827 0.9233 0.1126
H59_3 H 0.7731 0.9728 0.0979
H60_3 H 0.7483 0.9326 0.0725
C71_3 C 0.9371(5) 0.8913(5) 0.2049(4)
H61_3 H 0.9684 0.9131 0.2014
H62_3 H 0.9289 0.8771 0.1797
H63_3 H 0.9496 0.8691 0.2240
C72_3 C 0.5390(5) 0.9321(4) 0.1479(4)
H64_3 H 0.5159 0.9457 0.1269
H65_3 H 0.5273 0.9447 0.1732
H66_3 H 0.5320 0.9003 0.1481
Zn9_3 Zn 0.99794(5) 0.75489(4) 0.43707(3)
O14_3 O 0.6244(3) 0.7651(3) 0.9815(2)
C68_3 C 0.5865(4) 0.7956(3) 0.9888(3)
O13_4 O 0.3004(3) 0.0400(2) 0.65002(18)
O14_4 O 0.6256(3) 0.0151(3) 0.2315(2)
N9_4 N 0.3954(4) 0.1967(3) 0.4487(3)
H45_4 H 0.3821 0.2067 0.4262
N10_4 N 0.6149(3) 0.2176(3) 0.4157(2)
H46_4 H 0.6297 0.2309 0.4363
N11_4 N 0.4457(3) 0.2117(3) 0.4667(2)
N12_4 N 0.5562(3) 0.2208(3) 0.4039(2)
C49_4 C 0.3639(4) 0.0648(3) 0.5987(3)
C50_4 C 0.6482(4) 0.0808(3) 0.2688(3)
C51_4 C 0.3211(4) 0.0959(3) 0.5853(3)
H47_4 H 0.2832 0.0961 0.5968
C52_4 C 0.6846(4) 0.1172(3) 0.2763(3)
H48_4 H 0.7192 0.1206 0.2611
C53_4 C 0.4517(4) 0.1873(3) 0.5003(3)
C54_4 C 0.5512(4) 0.1954(3) 0.3714(3)
C55_4 C 0.3345(4) 0.1261(3) 0.5554(3)
H49_4 H 0.3061 0.1471 0.5476
C56_4 C 0.6718(4) 0.1486(3) 0.3052(3)
H50_4 H 0.6974 0.1728 0.3091
C57_4 C 0.4045(4) 0.1575(3) 0.5032(3)
C58_4 C 0.6077(4) 0.1753(3) 0.3611(3)
C59_4 C 0.3903(4) 0.1255(3) 0.5366(3)
C60_4 C 0.6196(4) 0.1441(3) 0.3293(3)
C61_4 C 0.3688(4) 0.1644(4) 0.4699(3)
C62_4 C 0.6465(4) 0.1909(3) 0.3910(3)
C63_4 C 0.4327(4) 0.0944(4) 0.5496(3)
H51_4 H 0.4702 0.0936 0.5375
C64_4 C 0.5823(5) 0.1079(4) 0.3214(3)
H52_4 H 0.5473 0.1048 0.3362
C65_4 C 0.4195(4) 0.0647(3) 0.5803(3)
H53_4 H 0.4485 0.0444 0.5888
C66_4 C 0.5953(4) 0.0760(3) 0.2922(3)
H54_4 H 0.5697 0.0518 0.2880
C67_4 C 0.3489(4) 0.0321(3) 0.6306(3)
C68_4 C 0.6635(4) 0.0456(3) 0.2388(3)
C69_4 C 0.5034(4) 0.1940(4) 0.5281(3)
H55_4 H 0.4888 0.2027 0.5540
H56_4 H 0.5255 0.1665 0.5304
H57_4 H 0.5290 0.2172 0.5178
C70_4 C 0.4943(5) 0.1933(5) 0.3492(4)
H58_4 H 0.4673 0.1733 0.3626
H59_4 H 0.4769 0.2228 0.3479
H60_4 H 0.5017 0.1826 0.3225
C71_4 C 0.3129(5) 0.1413(5) 0.4549(4)
H61_4 H 0.2816 0.1631 0.4514
H62_4 H 0.3211 0.1271 0.4297
H63_4 H 0.3004 0.1191 0.4740
C72_4 C 0.7110(5) 0.1821(4) 0.3979(4)
H64_4 H 0.7341 0.1957 0.3769
H65_4 H 0.7227 0.1947 0.4232
H66_4 H 0.7180 0.1503 0.3981
Zn9_4 Zn 0.25206(5) 0.00489(4) 0.68707(3)
O17_4 O 0.4496(3) 0.2900(2) 0.40002(18)
O15_4 O 0.3674(3) 0.2488(2) 0.3861(2)
N9_5 N 0.3546(4) 0.4467(3) 0.1987(3)
H45_5 H 0.3679 0.4567 0.1762
N10_5 N 0.1351(3) 0.4676(3) 0.1657(2)
H46_5 H 0.1203 0.4809 0.1863
N11_5 N 0.3043(3) 0.4617(3) 0.2167(2)
N12_5 N 0.1938(3) 0.4708(3) 0.1539(2)
C49_5 C 0.3861(4) 0.3148(3) 0.3487(3)
C50_5 C 0.1018(4) 0.3308(3) 0.0188(3)
C51_5 C 0.4289(4) 0.3459(3) 0.3353(3)
H47_5 H 0.4668 0.3461 0.3468
C52_5 C 0.0654(4) 0.3672(3) 0.0263(3)
H48_5 H 0.0308 0.3706 0.0111
C53_5 C 0.2983(4) 0.4373(3) 0.2503(3)
C54_5 C 0.1988(4) 0.4454(3) 0.1214(3)
C55_5 C 0.4155(4) 0.3761(3) 0.3054(3)
H49_5 H 0.4439 0.3971 0.2976
C56_5 C 0.0782(4) 0.3986(3) 0.0552(3)
H50_5 H 0.0526 0.4228 0.0591
C57_5 C 0.3455(4) 0.4075(3) 0.2532(3)
C58_5 C 0.1423(4) 0.4253(3) 0.1111(3)
C59_5 C 0.3597(4) 0.3755(3) 0.2866(3)
C60_5 C 0.1304(4) 0.3941(3) 0.0793(3)
C61_5 C 0.3812(4) 0.4144(4) 0.2199(3)
C62_5 C 0.1035(4) 0.4409(3) 0.1410(3)
C63_5 C 0.3173(4) 0.3444(4) 0.2996(3)
H51_5 H 0.2798 0.3436 0.2875
C64_5 C 0.1677(5) 0.3579(4) 0.0714(3)
H52_5 H 0.2027 0.3548 0.0862
C65_5 C 0.3305(4) 0.3147(3) 0.3303(3)
H53_5 H 0.3015 0.2944 0.3388
C66_5 C 0.1547(4) 0.3260(3) 0.0422(3)
H54_5 H 0.1803 0.3018 0.0380
C67_5 C 0.4011(4) 0.2821(3) 0.3806(3)
C69_5 C 0.2466(4) 0.4440(4) 0.2781(3)
H55_5 H 0.2612 0.4527 0.3040
H56_5 H 0.2245 0.4165 0.2804
H57_5 H 0.2210 0.4672 0.2678
C70_5 C 0.2557(5) 0.4433(5) 0.0992(4)
H58_5 H 0.2827 0.4233 0.1126
H59_5 H 0.2731 0.4728 0.0979
H60_5 H 0.2483 0.4326 0.0725
C71_5 C 0.4371(5) 0.3913(5) 0.2049(4)
H61_5 H 0.4684 0.4131 0.2014
H62_5 H 0.4289 0.3771 0.1797
H63_5 H 0.4496 0.3691 0.2240
C72_5 C 0.0390(5) 0.4321(4) 0.1479(4)
H64_5 H 0.0159 0.4457 0.1269
H65_5 H 0.0273 0.4447 0.1732
H66_5 H 0.0320 0.4003 0.1481
O18_4 O 0.2151(3) 0.5482(2) 0.22273(19)
O14_5 O 0.1244(3) 0.2651(3) 0.9815(2)
O16_2 O 0.0349(3) 0.2982(2) 0.97273(19)
C68_5 C 0.0865(4) 0.2956(3) 0.9888(3)
O14_6 O 0.1256(3) 0.5151(3) 0.2315(2)
N10_6 N 0.1149(3) 0.7176(3) 0.4157(2)
H46_6 H 0.1297 0.7309 0.4363
N12_6 N 0.0562(3) 0.7208(3) 0.4039(2)
C50_6 C 0.1482(4) 0.5808(3) 0.2688(3)
C52_6 C 0.1846(4) 0.6172(3) 0.2763(3)
H48_6 H 0.2192 0.6206 0.2611
C54_6 C 0.0512(4) 0.6954(3) 0.3714(3)
C56_6 C 0.1718(4) 0.6486(3) 0.3052(3)
H50_6 H 0.1974 0.6728 0.3091
C58_6 C 0.1077(4) 0.6753(3) 0.3611(3)
C60_6 C 0.1196(4) 0.6441(3) 0.3293(3)
C62_6 C 0.1465(4) 0.6909(3) 0.3910(3)
C64_6 C 0.0823(5) 0.6079(4) 0.3214(3)
H52_6 H 0.0473 0.6048 0.3362
C66_6 C 0.0953(4) 0.5760(3) 0.2922(3)
H54_6 H 0.0697 0.5518 0.2880
C68_6 C 0.1635(4) 0.5456(3) 0.2388(3)
C69_6 C 0.0034(4) 0.6940(4) 0.5281(3)
H56_6 H 0.0255 0.6665 0.5304
H57_6 H 0.0290 0.7172 0.5178
H60_6 H 0.0017 0.6826 0.3225
C72_6 C 0.2110(5) 0.6821(4) 0.3979(4)
H64_6 H 0.2341 0.6957 0.3769
H65_6 H 0.2227 0.6947 0.4232
H66_6 H 0.2180 0.6503 0.3981
O18_5 O 0.0349(3) 0.7982(2) 0.47273(19)
O15_5 O 0.8826(3) 0.4988(2) 0.6361(2)
N9_6 N 0.8954(4) 0.6967(3) 0.4487(3)
H45_6 H 0.8821 0.7067 0.4262
N11_6 N 0.9457(3) 0.7117(3) 0.4667(2)
C49_6 C 0.8639(4) 0.5648(3) 0.5987(3)
C51_6 C 0.8211(4) 0.5959(3) 0.5853(3)
H47_6 H 0.7832 0.5961 0.5968
C53_6 C 0.9517(4) 0.6873(3) 0.5003(3)
C55_6 C 0.8345(4) 0.6261(3) 0.5554(3)
H49_6 H 0.8061 0.6471 0.5476
C57_6 C 0.9045(4) 0.6575(3) 0.5032(3)
C59_6 C 0.8903(4) 0.6255(3) 0.5366(3)
C61_6 C 0.8688(4) 0.6644(4) 0.4699(3)
C63_6 C 0.9327(4) 0.5944(4) 0.5496(3)
H51_6 H 0.9702 0.5936 0.5375
C65_6 C 0.9195(4) 0.5647(3) 0.5803(3)
H53_6 H 0.9485 0.5444 0.5888
C67_6 C 0.8489(4) 0.5321(3) 0.6306(3)
H55_6 H 0.9888 0.7027 0.5540
C70_6 C 0.9943(5) 0.6933(5) 0.3492(4)
H58_6 H 0.9673 0.6733 0.3626
H59_6 H 0.9769 0.7228 0.3479
C71_6 C 0.8129(5) 0.6413(5) 0.4549(4)
H61_6 H 0.7816 0.6631 0.4514
H62_6 H 0.8211 0.6271 0.4297
H63_6 H 0.8004 0.6191 0.4740
O18_6 O 0.2151(3) 0.0482(2) 0.72273(19)
O14_7 O 0.1244(3) 0.7651(3) 0.4815(2)
O15_6 O 0.3674(3) 0.7488(2) 0.8861(2)
N9_7 N 0.3546(4) 0.9467(3) 0.6987(3)
H45_7 H 0.3679 0.9567 0.6762
N10_7 N 0.1351(3) 0.9676(3) 0.6657(2)
H46_7 H 0.1203 0.9809 0.6863
N11_7 N 0.3043(3) 0.9617(3) 0.7167(2)
N12_7 N 0.1938(3) 0.9708(3) 0.6539(2)
C49_7 C 0.3861(4) 0.8148(3) 0.8487(3)
C50_7 C 0.1018(4) 0.8308(3) 0.5188(3)
C51_7 C 0.4289(4) 0.8459(3) 0.8353(3)
H47_7 H 0.4668 0.8461 0.8468
C52_7 C 0.0654(4) 0.8672(3) 0.5263(3)
H48_7 H 0.0308 0.8706 0.5111
C53_7 C 0.2983(4) 0.9373(3) 0.7503(3)
C54_7 C 0.1988(4) 0.9454(3) 0.6214(3)
C55_7 C 0.4155(4) 0.8761(3) 0.8054(3)
H49_7 H 0.4439 0.8971 0.7976
C56_7 C 0.0782(4) 0.8986(3) 0.5552(3)
H50_7 H 0.0526 0.9228 0.5591
C57_7 C 0.3455(4) 0.9075(3) 0.7532(3)
C58_7 C 0.1423(4) 0.9253(3) 0.6111(3)
C59_7 C 0.3597(4) 0.8755(3) 0.7866(3)
C60_7 C 0.1304(4) 0.8941(3) 0.5793(3)
C61_7 C 0.3812(4) 0.9144(4) 0.7199(3)
C62_7 C 0.1035(4) 0.9409(3) 0.6410(3)
C63_7 C 0.3173(4) 0.8444(4) 0.7996(3)
H51_7 H 0.2798 0.8436 0.7875
C64_7 C 0.1677(5) 0.8579(4) 0.5714(3)
H52_7 H 0.2027 0.8548 0.5862
C65_7 C 0.3305(4) 0.8147(3) 0.8303(3)
H53_7 H 0.3015 0.7944 0.8388
C66_7 C 0.1547(4) 0.8260(3) 0.5422(3)
H54_7 H 0.1803 0.8018 0.5380
C67_7 C 0.4011(4) 0.7821(3) 0.8806(3)
C68_7 C 0.0865(4) 0.7956(3) 0.4888(3)
C69_7 C 0.2466(4) 0.9440(4) 0.7781(3)
H55_7 H 0.2612 0.9527 0.8040
H56_7 H 0.2245 0.9165 0.7804
H57_7 H 0.2210 0.9672 0.7678
C70_7 C 0.2557(5) 0.9433(5) 0.5992(4)
H58_7 H 0.2827 0.9233 0.6126
H59_7 H 0.2731 0.9728 0.5979
H60_7 H 0.2483 0.9326 0.5725
C71_7 C 0.4371(5) 0.8913(5) 0.7049(4)
H61_7 H 0.4684 0.9131 0.7014
H62_7 H 0.4289 0.8771 0.6797
H63_7 H 0.4496 0.8691 0.7240
C72_7 C 0.0390(5) 0.9321(4) 0.6479(4)
H64_7 H 0.0159 0.9457 0.6269
H65_7 H 0.0273 0.9447 0.6732
H66_7 H 0.0320 0.9003 0.6481
O14_8 O 0.1256(3) 0.0151(3) 0.7315(2)
N10_8 N 0.1149(3) 0.2176(3) 0.9157(2)
H46_8 H 0.1297 0.2309 0.9363
N12_8 N 0.0562(3) 0.2208(3) 0.9039(2)
C50_8 C 0.1482(4) 0.0808(3) 0.7688(3)
C52_8 C 0.1846(4) 0.1172(3) 0.7763(3)
H48_8 H 0.2192 0.1206 0.7611
C54_8 C 0.0512(4) 0.1954(3) 0.8714(3)
C56_8 C 0.1718(4) 0.1486(3) 0.8052(3)
H50_8 H 0.1974 0.1728 0.8091
C58_8 C 0.1077(4) 0.1753(3) 0.8611(3)
C60_8 C 0.1196(4) 0.1441(3) 0.8293(3)
C62_8 C 0.1465(4) 0.1909(3) 0.8910(3)
C64_8 C 0.0823(5) 0.1079(4) 0.8214(3)
H52_8 H 0.0473 0.1048 0.8362
C66_8 C 0.0953(4) 0.0760(3) 0.7922(3)
H54_8 H 0.0697 0.0518 0.7880
C68_8 C 0.1635(4) 0.0456(3) 0.7388(3)
H60_8 H 0.0017 0.1826 0.8225
C72_8 C 0.2110(5) 0.1821(4) 0.8979(4)
H64_8 H 0.2341 0.1957 0.8769
H65_8 H 0.2227 0.1947 0.9232
H66_8 H 0.2180 0.1503 0.8981
C49_8 C 0.8639(4) 0.0648(3) 0.0987(3)
C51_8 C 0.8211(4) 0.0959(3) 0.0853(3)
H47_8 H 0.7832 0.0961 0.0968
C53_8 C 0.9517(4) 0.1873(3) 0.0003(3)
C55_8 C 0.8345(4) 0.1261(3) 0.0554(3)
H49_8 H 0.8061 0.1471 0.0476
C57_8 C 0.9045(4) 0.1575(3) 0.0032(3)
C59_8 C 0.8903(4) 0.1255(3) 0.0366(3)
C63_8 C 0.9327(4) 0.0944(4) 0.0496(3)
H51_8 H 0.9702 0.0936 0.0375
C65_8 C 0.9195(4) 0.0647(3) 0.0803(3)
H53_8 H 0.9485 0.0444 0.0888
C67_8 C 0.8489(4) 0.0321(3) 0.1306(3)
H55_8 H 0.9888 0.2027 0.0540
N9_8 N 0.8954(4) 0.1967(3) 0.9487(3)
H45_8 H 0.8821 0.2067 0.9262
N11_8 N 0.9457(3) 0.2117(3) 0.9667(2)
C61_8 C 0.8688(4) 0.1644(4) 0.9699(3)
C70_8 C 0.9943(5) 0.1933(5) 0.8492(4)
H58_8 H 0.9673 0.1733 0.8626
H59_8 H 0.9769 0.2228 0.8479
C71_8 C 0.8129(5) 0.1413(5) 0.9549(4)
H61_8 H 0.7816 0.1631 0.9514
H62_8 H 0.8211 0.1271 0.9297
H63_8 H 0.8004 0.1191 0.9740
Zn7_4 Zn 0.24794(5) 0.49511(4) 0.68707(3)
O13_5 O 0.0504(3) 0.7100(2) 0.90002(18)
O14_9 O 0.3756(3) 0.7349(3) 0.4815(2)
O15_7 O 0.1326(3) 0.7512(2) 0.8861(2)
O16_3 O 0.4651(3) 0.7018(2) 0.47273(19)
N9_9 N 0.1454(4) 0.5533(3) 0.6987(3)
H45_9 H 0.1321 0.5433 0.6762
N10_9 N 0.3649(3) 0.5324(3) 0.6657(2)
H46_9 H 0.3797 0.5191 0.6863
N11_9 N 0.1957(3) 0.5383(3) 0.7167(2)
N12_9 N 0.3062(3) 0.5292(3) 0.6539(2)
C49_9 C 0.1139(4) 0.6852(3) 0.8487(3)
C50_9 C 0.3982(4) 0.6692(3) 0.5188(3)
C51_9 C 0.0711(4) 0.6541(3) 0.8353(3)
H47_9 H 0.0332 0.6539 0.8468
C52_9 C 0.4346(4) 0.6328(3) 0.5263(3)
H48_9 H 0.4692 0.6294 0.5111
C53_9 C 0.2017(4) 0.5627(3) 0.7503(3)
C54_9 C 0.3012(4) 0.5546(3) 0.6214(3)
C55_9 C 0.0845(4) 0.6239(3) 0.8054(3)
H49_9 H 0.0561 0.6029 0.7976
C56_9 C 0.4218(4) 0.6014(3) 0.5552(3)
H50_9 H 0.4474 0.5772 0.5591
C57_9 C 0.1545(4) 0.5925(3) 0.7532(3)
C58_9 C 0.3577(4) 0.5747(3) 0.6111(3)
C59_9 C 0.1403(4) 0.6245(3) 0.7866(3)
C60_9 C 0.3696(4) 0.6059(3) 0.5793(3)
C61_9 C 0.1188(4) 0.5856(4) 0.7199(3)
C62_9 C 0.3965(4) 0.5591(3) 0.6410(3)
C63_9 C 0.1827(4) 0.6556(4) 0.7996(3)
H51_9 H 0.2202 0.6564 0.7875
C64_9 C 0.3323(5) 0.6421(4) 0.5714(3)
H52_9 H 0.2973 0.6452 0.5862
C65_9 C 0.1695(4) 0.6853(3) 0.8303(3)
H53_9 H 0.1985 0.7056 0.8388
C66_9 C 0.3453(4) 0.6740(3) 0.5422(3)
H54_9 H 0.3197 0.6982 0.5380
C67_9 C 0.0989(4) 0.7179(3) 0.8806(3)
C68_9 C 0.4135(4) 0.7044(3) 0.4888(3)
C69_8 C 0.2534(4) 0.5560(4) 0.7781(3)
H55_9 H 0.2388 0.5473 0.8040
H56_8 H 0.2755 0.5835 0.7804
H57_8 H 0.2790 0.5328 0.7678
C70_9 C 0.2443(5) 0.5567(5) 0.5992(4)
H58_9 H 0.2173 0.5767 0.6126
H59_9 H 0.2269 0.5272 0.5979
H60_9 H 0.2517 0.5674 0.5725
C71_9 C 0.0629(5) 0.6087(5) 0.7049(4)
H61_9 H 0.0316 0.5869 0.7014
H62_9 H 0.0711 0.6229 0.6797
H63_9 H 0.0504 0.6309 0.7240
C72_9 C 0.4610(5) 0.5679(4) 0.6479(4)
H64_9 H 0.4841 0.5543 0.6269
H65_9 H 0.4727 0.5553 0.6732
H66_9 H 0.4680 0.5997 0.6481
Zn8_2 Zn 0.50206(5) 0.74511(4) 0.43707(3)
Zn9_5 Zn 0.00206(5) 0.74511(4) 0.93707(3)
O17_5 O 0.1996(3) 0.4600(2) 0.65002(18)
O18_7 O 0.2849(3) 0.4518(2) 0.72273(19)
O13_6 O 0.1996(3) 0.9600(2) 0.15002(18)
C49_10 C 0.1361(4) 0.9352(3) 0.0987(3)
C51_10 C 0.1789(4) 0.9041(3) 0.0853(3)
H47_10 H 0.2168 0.9039 0.0968
C53_10 C 0.0483(4) 0.8127(3) 0.0003(3)
C55_10 C 0.1655(4) 0.8739(3) 0.0554(3)
H49_10 H 0.1939 0.8529 0.0476
C57_10 C 0.0955(4) 0.8425(3) 0.0032(3)
C59_10 C 0.1097(4) 0.8745(3) 0.0366(3)
C63_10 C 0.0673(4) 0.9056(4) 0.0496(3)
H51_10 H 0.0298 0.9064 0.0375
C65_10 C 0.0805(4) 0.9353(3) 0.0803(3)
H53_10 H 0.0515 0.9556 0.0888
C67_10 C 0.1511(4) 0.9679(3) 0.1306(3)
H55_10 H 0.0112 0.7973 0.0540
Zn9_6 Zn 0.24794(5) 0.99511(4) 0.18707(3)
N9_10 N 0.1046(4) 0.8033(3) 0.9487(3)
H45_10 H 0.1179 0.7933 0.9262
N11_10 N 0.0543(3) 0.7883(3) 0.9667(2)
C61_10 C 0.1312(4) 0.8356(4) 0.9699(3)
C70_10 C 0.0057(5) 0.8067(5) 0.8492(4)
H58_10 H 0.0327 0.8267 0.8626
H59_10 H 0.0231 0.7772 0.8479
C71_10 C 0.1871(5) 0.8587(5) 0.9549(4)
H61_10 H 0.2184 0.8369 0.9514
H62_10 H 0.1789 0.8729 0.9297
H63_10 H 0.1996 0.8809 0.9740
O14_10 O 0.8744(3) 0.9849(3) 0.7315(2)
O16_4 O 0.7849(3) 0.9518(2) 0.72273(19)
N10_10 N 0.8851(3) 0.7824(3) 0.9157(2)
H46_10 H 0.8703 0.7691 0.9363
N12_10 N 0.9438(3) 0.7792(3) 0.9039(2)
C50_10 C 0.8518(4) 0.9192(3) 0.7688(3)
C52_10 C 0.8154(4) 0.8828(3) 0.7763(3)
H48_10 H 0.7808 0.8794 0.7611
C54_10 C 0.9488(4) 0.8046(3) 0.8714(3)
C56_10 C 0.8282(4) 0.8514(3) 0.8052(3)
H50_10 H 0.8026 0.8272 0.8091
C58_10 C 0.8923(4) 0.8247(3) 0.8611(3)
C60_10 C 0.8804(4) 0.8559(3) 0.8293(3)
C62_10 C 0.8535(4) 0.8091(3) 0.8910(3)
C64_10 C 0.9177(5) 0.8921(4) 0.8214(3)
H52_10 H 0.9527 0.8952 0.8362
C66_10 C 0.9047(4) 0.9240(3) 0.7922(3)
H54_10 H 0.9303 0.9482 0.7880
C68_10 C 0.8365(4) 0.9544(3) 0.7388(3)
H60_10 H 0.9983 0.8174 0.8225
C72_10 C 0.7890(5) 0.8179(4) 0.8979(4)
H64_10 H 0.7659 0.8043 0.8769
H65_10 H 0.7773 0.8053 0.9232
H66_10 H 0.7820 0.8497 0.8981
Zn8_3 Zn 0.74794(5) 0.99511(4) 0.68707(3)
O18_8 O 0.9651(3) 0.7018(2) 0.97273(19)
O13_7 O 0.0504(3) 0.2100(2) 0.40002(18)
O15_8 O 0.1326(3) 0.2512(2) 0.3861(2)
N9_11 N 0.1454(4) 0.0533(3) 0.1987(3)
H45_11 H 0.1321 0.0433 0.1762
N10_11 N 0.3649(3) 0.0324(3) 0.1657(2)
H46_11 H 0.3797 0.0191 0.1863
N11_11 N 0.1957(3) 0.0383(3) 0.2167(2)
N12_11 N 0.3062(3) 0.0292(3) 0.1539(2)
C49_11 C 0.1139(4) 0.1852(3) 0.3487(3)
C50_11 C 0.3982(4) 0.1692(3) 0.0188(3)
C51_11 C 0.0711(4) 0.1541(3) 0.3353(3)
H47_11 H 0.0332 0.1539 0.3468
C52_11 C 0.4346(4) 0.1328(3) 0.0263(3)
H48_11 H 0.4692 0.1294 0.0111
C53_11 C 0.2017(4) 0.0627(3) 0.2503(3)
C54_11 C 0.3012(4) 0.0546(3) 0.1214(3)
C55_11 C 0.0845(4) 0.1239(3) 0.3054(3)
H49_11 H 0.0561 0.1029 0.2976
C56_11 C 0.4218(4) 0.1014(3) 0.0552(3)
H50_11 H 0.4474 0.0772 0.0591
C57_11 C 0.1545(4) 0.0925(3) 0.2532(3)
C58_11 C 0.3577(4) 0.0747(3) 0.1111(3)
C59_11 C 0.1403(4) 0.1245(3) 0.2866(3)
C60_11 C 0.3696(4) 0.1059(3) 0.0793(3)
C61_11 C 0.1188(4) 0.0856(4) 0.2199(3)
C62_11 C 0.3965(4) 0.0591(3) 0.1410(3)
C63_11 C 0.1827(4) 0.1556(4) 0.2996(3)
H51_11 H 0.2202 0.1564 0.2875
C64_11 C 0.3323(5) 0.1421(4) 0.0714(3)
H52_11 H 0.2973 0.1452 0.0862
C65_11 C 0.1695(4) 0.1853(3) 0.3303(3)
H53_11 H 0.1985 0.2056 0.3388
C66_11 C 0.3453(4) 0.1740(3) 0.0422(3)
H54_11 H 0.3197 0.1982 0.0380
C67_11 C 0.0989(4) 0.2179(3) 0.3806(3)
C69_9 C 0.2534(4) 0.0560(4) 0.2781(3)
H55_11 H 0.2388 0.0473 0.3040
H56_9 H 0.2755 0.0835 0.2804
H57_9 H 0.2790 0.0328 0.2678
C70_11 C 0.2443(5) 0.0567(5) 0.0992(4)
H58_11 H 0.2173 0.0767 0.1126
H59_11 H 0.2269 0.0272 0.0979
H60_11 H 0.2517 0.0674 0.0725
C71_11 C 0.0629(5) 0.1087(5) 0.2049(4)
H61_11 H 0.0316 0.0869 0.2014
H62_11 H 0.0711 0.1229 0.1797
H63_11 H 0.0504 0.1309 0.2240
C72_11 C 0.4610(5) 0.0679(4) 0.1479(4)
H64_11 H 0.4841 0.0543 0.1269
H65_11 H 0.4727 0.0553 0.1732
H66_11 H 0.4680 0.0997 0.1481
Zn9_7 Zn 0.00206(5) 0.24511(4) 0.43707(3)
O14_11 O 0.3756(3) 0.2349(3) 0.9815(2)
O16_5 O 0.4651(3) 0.2018(2) 0.97273(19)
C68_11 C 0.4135(4) 0.2044(3) 0.9888(3)
Zn8_4 Zn 0.50206(5) 0.24511(4) 0.93707(3)
O18_9 O 0.2849(3) 0.9518(2) 0.22273(19)
O15_9 O 0.1174(3) 0.5012(2) 0.6361(2)
N9_12 N 0.1046(4) 0.3033(3) 0.4487(3)
H45_12 H 0.1179 0.2933 0.4262
N11_12 N 0.0543(3) 0.2883(3) 0.4667(2)
C49_12 C 0.1361(4) 0.4352(3) 0.5987(3)
C51_12 C 0.1789(4) 0.4041(3) 0.5853(3)
H47_12 H 0.2168 0.4039 0.5968
C53_12 C 0.0483(4) 0.3127(3) 0.5003(3)
C55_12 C 0.1655(4) 0.3739(3) 0.5554(3)
H49_12 H 0.1939 0.3529 0.5476
C57_12 C 0.0955(4) 0.3425(3) 0.5032(3)
C59_12 C 0.1097(4) 0.3745(3) 0.5366(3)
C61_12 C 0.1312(4) 0.3356(4) 0.4699(3)
C63_12 C 0.0673(4) 0.4056(4) 0.5496(3)
H51_12 H 0.0298 0.4064 0.5375
C65_12 C 0.0805(4) 0.4353(3) 0.5803(3)
H53_12 H 0.0515 0.4556 0.5888
C67_12 C 0.1511(4) 0.4679(3) 0.6306(3)
H55_12 H 0.0112 0.2973 0.5540
C70_12 C 0.0057(5) 0.3067(5) 0.3492(4)
H58_12 H 0.0327 0.3267 0.3626
H59_12 H 0.0231 0.2772 0.3479
C71_12 C 0.1871(5) 0.3587(5) 0.4549(4)
H61_12 H 0.2184 0.3369 0.4514
H62_12 H 0.1789 0.3729 0.4297
H63_12 H 0.1996 0.3809 0.4740
O14_12 O 0.8744(3) 0.4849(3) 0.2315(2)
O16_6 O 0.7849(3) 0.4518(2) 0.22273(19)
N10_12 N 0.8851(3) 0.2824(3) 0.4157(2)
H46_12 H 0.8703 0.2691 0.4363
N12_12 N 0.9438(3) 0.2792(3) 0.4039(2)
C50_12 C 0.8518(4) 0.4192(3) 0.2688(3)
C52_12 C 0.8154(4) 0.3828(3) 0.2763(3)
H48_12 H 0.7808 0.3794 0.2611
C54_12 C 0.9488(4) 0.3046(3) 0.3714(3)
C56_12 C 0.8282(4) 0.3514(3) 0.3052(3)
H50_12 H 0.8026 0.3272 0.3091
C58_12 C 0.8923(4) 0.3247(3) 0.3611(3)
C60_12 C 0.8804(4) 0.3559(3) 0.3293(3)
C62_12 C 0.8535(4) 0.3091(3) 0.3910(3)
C64_12 C 0.9177(5) 0.3921(4) 0.3214(3)
H52_12 H 0.9527 0.3952 0.3362
C66_12 C 0.9047(4) 0.4240(3) 0.2922(3)
H54_12 H 0.9303 0.4482 0.2880
C68_12 C 0.8365(4) 0.4544(3) 0.2388(3)
C69_10 C 0.9966(4) 0.3060(4) 0.5281(3)
H56_10 H 0.9745 0.3335 0.5304
H57_10 H 0.9710 0.2828 0.5178
H60_12 H 0.9983 0.3174 0.3225
C72_12 C 0.7890(5) 0.3179(4) 0.3979(4)
H64_12 H 0.7659 0.3043 0.3769
H65_12 H 0.7773 0.3053 0.4232
H66_12 H 0.7820 0.3497 0.3981
Zn8_5 Zn 0.74794(5) 0.49511(4) 0.18707(3)
O18_10 O 0.9651(3) 0.2018(2) 0.47273(19)
O13_8 O 0.5504(3) 0.7100(2) 0.40002(18)
O15_10 O 0.6326(3) 0.7512(2) 0.3861(2)
N9_13 N 0.6454(4) 0.5533(3) 0.1987(3)
H45_13 H 0.6321 0.5433 0.1762
N10_13 N 0.8649(3) 0.5324(3) 0.1657(2)
H46_13 H 0.8797 0.5191 0.1863
N11_13 N 0.6957(3) 0.5383(3) 0.2167(2)
N12_13 N 0.8062(3) 0.5292(3) 0.1539(2)
C49_13 C 0.6139(4) 0.6852(3) 0.3487(3)
C50_13 C 0.8982(4) 0.6692(3) 0.0188(3)
C51_13 C 0.5711(4) 0.6541(3) 0.3353(3)
H47_13 H 0.5332 0.6539 0.3468
C52_13 C 0.9346(4) 0.6328(3) 0.0263(3)
H48_13 H 0.9692 0.6294 0.0111
C53_13 C 0.7017(4) 0.5627(3) 0.2503(3)
C54_13 C 0.8012(4) 0.5546(3) 0.1214(3)
C55_13 C 0.5845(4) 0.6239(3) 0.3054(3)
H49_13 H 0.5561 0.6029 0.2976
C56_13 C 0.9218(4) 0.6014(3) 0.0552(3)
H50_13 H 0.9474 0.5772 0.0591
C57_13 C 0.6545(4) 0.5925(3) 0.2532(3)
C58_13 C 0.8577(4) 0.5747(3) 0.1111(3)
C59_13 C 0.6403(4) 0.6245(3) 0.2866(3)
C60_13 C 0.8696(4) 0.6059(3) 0.0793(3)
C61_13 C 0.6188(4) 0.5856(4) 0.2199(3)
C62_13 C 0.8965(4) 0.5591(3) 0.1410(3)
C63_13 C 0.6827(4) 0.6556(4) 0.2996(3)
H51_13 H 0.7202 0.6564 0.2875
C64_13 C 0.8323(5) 0.6421(4) 0.0714(3)
H52_13 H 0.7973 0.6452 0.0862
C65_13 C 0.6695(4) 0.6853(3) 0.3303(3)
H53_13 H 0.6985 0.7056 0.3388
C66_13 C 0.8453(4) 0.6740(3) 0.0422(3)
H54_13 H 0.8197 0.6982 0.0380
C67_13 C 0.5989(4) 0.7179(3) 0.3806(3)
C69_11 C 0.7534(4) 0.5560(4) 0.2781(3)
H55_13 H 0.7388 0.5473 0.3040
H56_11 H 0.7755 0.5835 0.2804
H57_11 H 0.7790 0.5328 0.2678
C70_13 C 0.7443(5) 0.5567(5) 0.0992(4)
H58_13 H 0.7173 0.5767 0.1126
H59_13 H 0.7269 0.5272 0.0979
H60_13 H 0.7517 0.5674 0.0725
C71_13 C 0.5629(5) 0.6087(5) 0.2049(4)
H61_13 H 0.5316 0.5869 0.2014
H62_13 H 0.5711 0.6229 0.1797
H63_13 H 0.5504 0.6309 0.2240
C72_13 C 0.9610(5) 0.5679(4) 0.1479(4)
H64_13 H 0.9841 0.5543 0.1269
H65_13 H 0.9727 0.5553 0.1732
H66_13 H 0.9680 0.5997 0.1481
O17_6 O 0.6996(3) 0.4600(2) 0.15002(18)
O14_13 O 0.8756(3) 0.7349(3) 0.9815(2)
C68_13 C 0.9135(4) 0.7044(3) 0.9888(3)
O13_9 O 0.6996(3) 0.9600(2) 0.65002(18)
O14_14 O 0.3744(3) 0.9849(3) 0.2315(2)
N9_14 N 0.6046(4) 0.8033(3) 0.4487(3)
H45_14 H 0.6179 0.7933 0.4262
N10_14 N 0.3851(3) 0.7824(3) 0.4157(2)
H46_14 H 0.3703 0.7691 0.4363
N11_14 N 0.5543(3) 0.7883(3) 0.4667(2)
N12_14 N 0.4438(3) 0.7792(3) 0.4039(2)
C49_14 C 0.6361(4) 0.9352(3) 0.5987(3)
C50_14 C 0.3518(4) 0.9192(3) 0.2688(3)
C51_14 C 0.6789(4) 0.9041(3) 0.5853(3)
H47_14 H 0.7168 0.9039 0.5968
C52_14 C 0.3154(4) 0.8828(3) 0.2763(3)
H48_14 H 0.2808 0.8794 0.2611
C53_14 C 0.5483(4) 0.8127(3) 0.5003(3)
C54_14 C 0.4488(4) 0.8046(3) 0.3714(3)
C55_14 C 0.6655(4) 0.8739(3) 0.5554(3)
H49_14 H 0.6939 0.8529 0.5476
C56_14 C 0.3282(4) 0.8514(3) 0.3052(3)
H50_14 H 0.3026 0.8272 0.3091
C57_14 C 0.5955(4) 0.8425(3) 0.5032(3)
C58_14 C 0.3923(4) 0.8247(3) 0.3611(3)
C59_14 C 0.6097(4) 0.8745(3) 0.5366(3)
C60_14 C 0.3804(4) 0.8559(3) 0.3293(3)
C61_14 C 0.6312(4) 0.8356(4) 0.4699(3)
C62_14 C 0.3535(4) 0.8091(3) 0.3910(3)
C63_14 C 0.5673(4) 0.9056(4) 0.5496(3)
H51_14 H 0.5298 0.9064 0.5375
C64_14 C 0.4177(5) 0.8921(4) 0.3214(3)
H52_14 H 0.4527 0.8952 0.3362
C65_14 C 0.5805(4) 0.9353(3) 0.5803(3)
H53_14 H 0.5515 0.9556 0.5888
C66_14 C 0.4047(4) 0.9240(3) 0.2922(3)
H54_14 H 0.4303 0.9482 0.2880
C67_14 C 0.6511(4) 0.9679(3) 0.6306(3)
C68_14 C 0.3365(4) 0.9544(3) 0.2388(3)
C69_12 C 0.4966(4) 0.8060(4) 0.5281(3)
H55_14 H 0.5112 0.7973 0.5540
H56_12 H 0.4745 0.8335 0.5304
H57_12 H 0.4710 0.7828 0.5178
C70_14 C 0.5057(5) 0.8067(5) 0.3492(4)
H58_14 H 0.5327 0.8267 0.3626
H59_14 H 0.5231 0.7772 0.3479
H60_14 H 0.4983 0.8174 0.3225
C71_14 C 0.6871(5) 0.8587(5) 0.4549(4)
H61_14 H 0.7184 0.8369 0.4514
H62_14 H 0.6789 0.8729 0.4297
H63_14 H 0.6996 0.8809 0.4740
C72_14 C 0.2890(5) 0.8179(4) 0.3979(4)
H64_14 H 0.2659 0.8043 0.3769
H65_14 H 0.2773 0.8053 0.4232
H66_14 H 0.2820 0.8497 0.3981
O13_10 O 0.5504(3) 0.2100(2) 0.90002(18)
O14_15 O 0.8756(3) 0.2349(3) 0.4815(2)
O15_11 O 0.6326(3) 0.2512(2) 0.8861(2)
N9_15 N 0.6454(4) 0.0533(3) 0.6987(3)
H45_15 H 0.6321 0.0433 0.6762
N10_15 N 0.8649(3) 0.0324(3) 0.6657(2)
H46_15 H 0.8797 0.0191 0.6863
N11_15 N 0.6957(3) 0.0383(3) 0.7167(2)
N12_15 N 0.8062(3) 0.0292(3) 0.6539(2)
C49_15 C 0.6139(4) 0.1852(3) 0.8487(3)
C50_15 C 0.8982(4) 0.1692(3) 0.5188(3)
C51_15 C 0.5711(4) 0.1541(3) 0.8353(3)
H47_15 H 0.5332 0.1539 0.8468
C52_15 C 0.9346(4) 0.1328(3) 0.5263(3)
H48_15 H 0.9692 0.1294 0.5111
C53_15 C 0.7017(4) 0.0627(3) 0.7503(3)
C54_15 C 0.8012(4) 0.0546(3) 0.6214(3)
C55_15 C 0.5845(4) 0.1239(3) 0.8054(3)
H49_15 H 0.5561 0.1029 0.7976
C56_15 C 0.9218(4) 0.1014(3) 0.5552(3)
H50_15 H 0.9474 0.0772 0.5591
C57_15 C 0.6545(4) 0.0925(3) 0.7532(3)
C58_15 C 0.8577(4) 0.0747(3) 0.6111(3)
C59_15 C 0.6403(4) 0.1245(3) 0.7866(3)
C60_15 C 0.8696(4) 0.1059(3) 0.5793(3)
C61_15 C 0.6188(4) 0.0856(4) 0.7199(3)
C62_15 C 0.8965(4) 0.0591(3) 0.6410(3)
C63_15 C 0.6827(4) 0.1556(4) 0.7996(3)
H51_15 H 0.7202 0.1564 0.7875
C64_15 C 0.8323(5) 0.1421(4) 0.5714(3)
H52_15 H 0.7973 0.1452 0.5862
C65_15 C 0.6695(4) 0.1853(3) 0.8303(3)
H53_15 H 0.6985 0.2056 0.8388
C66_15 C 0.8453(4) 0.1740(3) 0.5422(3)
H54_15 H 0.8197 0.1982 0.5380
C67_15 C 0.5989(4) 0.2179(3) 0.8806(3)
C68_15 C 0.9135(4) 0.2044(3) 0.4888(3)
C69_13 C 0.7534(4) 0.0560(4) 0.7781(3)
H55_15 H 0.7388 0.0473 0.8040
H56_13 H 0.7755 0.0835 0.7804
H57_13 H 0.7790 0.0328 0.7678
C70_15 C 0.7443(5) 0.0567(5) 0.5992(4)
H58_15 H 0.7173 0.0767 0.6126
H59_15 H 0.7269 0.0272 0.5979
H60_15 H 0.7517 0.0674 0.5725
C71_15 C 0.5629(5) 0.1087(5) 0.7049(4)
H61_15 H 0.5316 0.0869 0.7014
H62_15 H 0.5711 0.1229 0.6797
H63_15 H 0.5504 0.1309 0.7240
C72_15 C 0.9610(5) 0.0679(4) 0.6479(4)
H64_15 H 0.9841 0.0543 0.6269
H65_15 H 0.9727 0.0553 0.6732
H66_15 H 0.9680 0.0997 0.6481
O15_12 O 0.6174(3) 0.5012(2) 0.1361(2)
C49_16 C 0.6361(4) 0.4352(3) 0.0987(3)
C51_16 C 0.6789(4) 0.4041(3) 0.0853(3)
H47_16 H 0.7168 0.4039 0.0968
C53_16 C 0.5483(4) 0.3127(3) 0.0003(3)
C55_16 C 0.6655(4) 0.3739(3) 0.0554(3)
H49_16 H 0.6939 0.3529 0.0476
C57_16 C 0.5955(4) 0.3425(3) 0.0032(3)
C59_16 C 0.6097(4) 0.3745(3) 0.0366(3)
C63_16 C 0.5673(4) 0.4056(4) 0.0496(3)
H51_16 H 0.5298 0.4064 0.0375
C65_16 C 0.5805(4) 0.4353(3) 0.0803(3)
H53_16 H 0.5515 0.4556 0.0888
C67_16 C 0.6511(4) 0.4679(3) 0.1306(3)
C69_14 C 0.4966(4) 0.3060(4) 0.0281(3)
H55_16 H 0.5112 0.2973 0.0540
H56_14 H 0.4745 0.3335 0.0304
H57_14 H 0.4710 0.2828 0.0178
O14_16 O 0.3744(3) 0.4849(3) 0.7315(2)
N9_16 N 0.6046(4) 0.3033(3) 0.9487(3)
H45_16 H 0.6179 0.2933 0.9262
N10_16 N 0.3851(3) 0.2824(3) 0.9157(2)
H46_16 H 0.3703 0.2691 0.9363
N11_16 N 0.5543(3) 0.2883(3) 0.9667(2)
N12_16 N 0.4438(3) 0.2792(3) 0.9039(2)
C50_16 C 0.3518(4) 0.4192(3) 0.7688(3)
C52_16 C 0.3154(4) 0.3828(3) 0.7763(3)
H48_16 H 0.2808 0.3794 0.7611
C54_16 C 0.4488(4) 0.3046(3) 0.8714(3)
C56_16 C 0.3282(4) 0.3514(3) 0.8052(3)
H50_16 H 0.3026 0.3272 0.8091
C58_16 C 0.3923(4) 0.3247(3) 0.8611(3)
C60_16 C 0.3804(4) 0.3559(3) 0.8293(3)
C61_16 C 0.6312(4) 0.3356(4) 0.9699(3)
C62_16 C 0.3535(4) 0.3091(3) 0.8910(3)
C64_16 C 0.4177(5) 0.3921(4) 0.8214(3)
H52_16 H 0.4527 0.3952 0.8362
C66_16 C 0.4047(4) 0.4240(3) 0.7922(3)
H54_16 H 0.4303 0.4482 0.7880
C68_16 C 0.3365(4) 0.4544(3) 0.7388(3)
C70_16 C 0.5057(5) 0.3067(5) 0.8492(4)
H58_16 H 0.5327 0.3267 0.8626
H59_16 H 0.5231 0.2772 0.8479
H60_16 H 0.4983 0.3174 0.8225
C71_16 C 0.6871(5) 0.3587(5) 0.9549(4)
H61_16 H 0.7184 0.3369 0.9514
H62_16 H 0.6789 0.3729 0.9297
H63_16 H 0.6996 0.3809 0.9740
C72_16 C 0.2890(5) 0.3179(4) 0.8979(4)
H64_16 H 0.2659 0.3043 0.8769
H65_16 H 0.2773 0.3053 0.9232
H66_16 H 0.2820 0.3497 0.8981
O15_13 O 0.1174(3) 0.0012(2) 0.1361(2)
C69_15 C 0.9966(4) 0.8060(4) 0.0281(3)
H56_15 H 0.9745 0.8335 0.0304
H57_15 H 0.9710 0.7828 0.0178
O15_14 O 0.3826(3) 0.9988(2) 0.6361(2)
O15_15 O 0.6174(3) 0.0012(2) 0.6361(2)
C69_16 C 0.0034(4) 0.1940(4) 0.0281(3)
H56_16 H 0.0255 0.1665 0.0304
H57_16 H 0.0290 0.2172 0.0178
O15_16 O 0.8826(3) 0.9988(2) 0.1361(2)
loop_
_geom_bond_atom_site_label_1
_geom_bond_atom_site_label_2
_geom_bond_site_symmetry_1
_geom_bond_site_symmetry_2
O3 C22 1_555 1_555
O4 C22 1_555 1_555
N3 H12 1_555 1_555
N4 Zn1 1_555 1_555
C13 C14 1_555 1_555
C14 H13 1_555 1_555
C15 N4 1_555 1_555
C16 C14 1_555 1_555
H14 C16 1_555 1_555
C17 C15 1_555 1_555
C18 C16 1_555 1_555
C19 N3 1_555 1_555
C20 C18 1_555 1_555
H15 C20 1_555 1_555
C21 C13 1_555 1_555
H16 C21 1_555 1_555
C22 C13 1_555 1_555
C23 C15 1_555 1_555
H17 C23 1_555 1_555
H18 C23 1_555 1_555
C24 C19 1_555 1_555
H20 C24 1_555 1_555
H21 C24 1_555 1_555
H22 C24 1_555 1_555
Zn2 O4 1_555 1_555
O5 Zn1 1_555 1_555
N3 N4 1_555 1_555
C17 C18 1_555 1_555
C17 C19 1_555 1_555
C20 C21 1_555 1_555
Zn1_2 N2 1_555 1_555
O1 C10 1_555 1_555
O2 C10 1_555 1_555
N1 H1 1_555 1_555
N2 N1 1_555 1_555
C1 C2 1_555 1_555
C2 H2 1_555 1_555
C3 N2 1_555 1_555
C4 C2 1_555 1_555
H3 C4 1_555 1_555
C5 C3 1_555 1_555
C6 C4 1_555 1_555
C7 N1 1_555 1_555
C8 C6 1_555 1_555
H4 C8 1_555 1_555
C9 C1 1_555 1_555
H5 C9 1_555 1_555
C10 C1 1_555 1_555
C11 C3 1_555 1_555
H6 C11 1_555 1_555
H7 C11 1_555 1_555
C12 C7 1_555 1_555
H9 C12 1_555 1_555
H10 C12 1_555 1_555
H11 C12 1_555 1_555
Zn3 O2 1_555 1_555
O6 Zn1_2 1_555 1_555
C5 C6 1_555 1_555
C5 C7 1_555 1_555
C8 C9 1_555 1_555
Zn2 N2_2 1_555 1_555
O1_2 C10_2 1_555 1_555
O2_2 C10_2 1_555 1_555
N1_2 H1_2 1_555 1_555
N2_2 N1_2 1_555 1_555
C1_2 C2_2 1_555 1_555
C2_2 H2_2 1_555 1_555
C3_2 N2_2 1_555 1_555
C4_2 C2_2 1_555 1_555
H3_2 C4_2 1_555 1_555
C5_2 C3_2 1_555 1_555
C6_2 C4_2 1_555 1_555
C7_2 N1_2 1_555 1_555
C8_2 C6_2 1_555 1_555
H4_2 C8_2 1_555 1_555
C9_2 C1_2 1_555 1_555
H5_2 C9_2 1_555 1_555
C10_2 C1_2 1_555 1_555
C11_2 C3_2 1_555 1_555
H6_2 C11_2 1_555 1_555
H7_2 C11_2 1_555 1_555
H8_2 C11_2 1_555 1_555
C12_2 C7_2 1_555 1_555
H9_2 C12_2 1_555 1_555
H10_2 C12_2 1_555 1_555
H11_2 C12_2 1_555 1_555
O3_2 C22_2 1_555 1_555
O4_2 C22_2 1_555 1_555
N3_2 H12_2 1_555 1_555
N4_2 Zn2 1_555 1_555
C13_2 C14_2 1_555 1_555
C14_2 H13_2 1_555 1_555
C15_2 N4_2 1_555 1_555
C16_2 C14_2 1_555 1_555
H14_2 C16_2 1_555 1_555
C17_2 C15_2 1_555 1_555
C18_2 C16_2 1_555 1_555
C19_2 N3_2 1_555 1_555
C20_2 C18_2 1_555 1_555
H15_2 C20_2 1_555 1_555
C21_2 C13_2 1_555 1_555
H16_2 C21_2 1_555 1_555
C22_2 C13_2 1_555 1_555
C23_2 C15_2 1_555 1_555
H17_2 C23_2 1_555 1_555
H18_2 C23_2 1_555 1_555
H19_2 C23_2 1_555 1_555
C24_2 C19_2 1_555 1_555
H20_2 C24_2 1_555 1_555
H21_2 C24_2 1_555 1_555
H22_2 C24_2 1_555 1_555
Zn2_2 O4_2 1_555 1_555
Zn3_2 O2_2 1_555 1_555
O6_2 Zn2 1_555 1_555
C5_2 C6_2 1_555 1_555
C5_2 C7_2 1_555 1_555
C8_2 C9_2 1_555 1_555
N3_2 N4_2 1_555 1_555
C17_2 C18_2 1_555 1_555
C17_2 C19_2 1_555 1_555
C20_2 C21_2 1_555 1_555
O3_3 C22_3 1_555 1_555
O4_3 C22_3 1_555 1_555
C13_3 C14_3 1_555 1_555
C14_3 H13_3 1_555 1_555
C16_3 C14_3 1_555 1_555
C18_3 C16_3 1_555 1_555
C20_3 C18_3 1_555 1_555
H15_3 C20_3 1_555 1_555
C21_3 C13_3 1_555 1_555
H16_3 C21_3 1_555 1_555
C22_3 C13_3 1_555 1_555
Zn2_4 O4_3 1_555 1_555
C20_3 C21_3 1_555 1_555
N3_3 H12_3 1_555 1_555
H22_3 C24_3 1_555 1_555
N1_3 H1_3 1_555 1_555
H11_3 C12_3 1_555 1_555
O6_3 Zn2_3 1_555 1_555
O1_3 C10_3 1_555 1_555
O2_3 C10_3 1_555 1_555
C1_3 C2_3 1_555 1_555
C2_3 H2_3 1_555 1_555
C4_3 C2_3 1_555 1_555
C6_3 C4_3 1_555 1_555
C8_3 C6_3 1_555 1_555
H4_3 C8_3 1_555 1_555
C9_3 C1_3 1_555 1_555
H5_3 C9_3 1_555 1_555
C10_3 C1_3 1_555 1_555
Zn3_3 O2_3 1_555 1_555
C8_3 C9_3 1_555 1_555
Zn2_4 N2_3 1_555 1_555
O1_4 C10_4 1_555 1_555
O2_4 C10_4 1_555 1_555
N1_4 H1_4 1_555 1_555
N2_3 N1_4 1_555 1_555
C1_4 C2_4 1_555 1_555
C2_4 H2_4 1_555 1_555
C3_3 N2_3 1_555 1_555
C4_4 C2_4 1_555 1_555
H3_3 C4_4 1_555 1_555
C5_3 C3_3 1_555 1_555
C6_4 C4_4 1_555 1_555
C7_3 N1_4 1_555 1_555
C8_4 C6_4 1_555 1_555
H4_4 C8_4 1_555 1_555
C9_4 C1_4 1_555 1_555
H5_4 C9_4 1_555 1_555
C10_4 C1_4 1_555 1_555
C11_3 C3_3 1_555 1_555
H6_3 C11_3 1_555 1_555
H7_3 C11_3 1_555 1_555
H8_4 C11_3 1_555 1_555
C12_4 C7_3 1_555 1_555
H9_3 C12_4 1_555 1_555
H10_4 C12_4 1_555 1_555
H11_4 C12_4 1_555 1_555
O3_4 C22_4 1_555 1_555
O5 C22_4 1_555 1_555
N3_4 H12_4 1_555 1_555
N4_3 Zn2_4 1_555 1_555
C13_4 C14_4 1_555 1_555
C14_4 H13_4 1_555 1_555
C15_3 N4_3 1_555 1_555
C16_4 C14_4 1_555 1_555
H14_3 C16_4 1_555 1_555
C17_3 C15_3 1_555 1_555
C18_4 C16_4 1_555 1_555
C19_3 N3_4 1_555 1_555
C20_4 C18_4 1_555 1_555
H15_4 C20_4 1_555 1_555
C21_4 C13_4 1_555 1_555
H16_4 C21_4 1_555 1_555
C22_4 C13_4 1_555 1_555
C23_3 C15_3 1_555 1_555
H17_3 C23_3 1_555 1_555
H18_3 C23_3 1_555 1_555
H19_4 C23_3 1_555 1_555
C24_4 C19_3 1_555 1_555
H20_3 C24_4 1_555 1_555
H21_4 C24_4 1_555 1_555
H22_4 C24_4 1_555 1_555
Zn3_4 O2_4 1_555 1_555
O6_4 Zn2_4 1_555 1_555
C5_3 C6_4 1_555 1_555
C5_3 C7_3 1_555 1_555
C8_4 C9_4 1_555 1_555
N3_4 N4_3 1_555 1_555
C17_3 C18_4 1_555 1_555
C17_3 C19_3 1_555 1_555
C20_4 C21_4 1_555 1_555
O1_5 C10_5 1_555 1_555
O6_4 C10_5 1_555 1_555
C1_5 C2_5 1_555 1_555
C2_5 H2_5 1_555 1_555
C4_5 C2_5 1_555 1_555
C6_5 C4_5 1_555 1_555
C8_5 C6_5 1_555 1_555
H4_5 C8_5 1_555 1_555
C9_5 C1_5 1_555 1_555
H5_5 C9_5 1_555 1_555
C10_5 C1_5 1_555 1_555
O3_5 C22_5 1_555 1_555
O4_4 C22_5 1_555 1_555
C13_5 C14_5 1_555 1_555
C14_5 H13_5 1_555 1_555
C16_5 C14_5 1_555 1_555
C18_5 C16_5 1_555 1_555
C20_5 C18_5 1_555 1_555
H15_5 C20_5 1_555 1_555
C21_5 C13_5 1_555 1_555
H16_5 C21_5 1_555 1_555
C22_5 C13_5 1_555 1_555
Zn3_3 O4_4 1_555 1_555
C8_5 C9_5 1_555 1_555
C20_5 C21_5 1_555 1_555
Zn3_2 N2_4 1_555 1_555
N1_5 H1_5 1_555 1_555
N2_4 N1_5 1_555 1_555
C3_4 N2_4 1_555 1_555
C5_4 C3_4 1_555 1_555
C7_4 N1_5 1_555 1_555
C11_4 C3_4 1_555 1_555
H6_4 C11_4 1_555 1_555
H7_4 C11_4 1_555 1_555
H8_5 C11_4 1_555 1_555
C12_5 C7_4 1_555 1_555
H11_5 C12_5 1_555 1_555
N3_5 H12_5 1_555 1_555
N4_4 Zn3_2 1_555 1_555
C15_4 N4_4 1_555 1_555
C17_4 C15_4 1_555 1_555
C19_4 N3_5 1_555 1_555
C23_4 C15_4 1_555 1_555
H17_4 C23_4 1_555 1_555
H18_4 C23_4 1_555 1_555
H19_5 C23_4 1_555 1_555
C24_5 C19_4 1_555 1_555
H22_5 C24_5 1_555 1_555
O5_2 Zn3_2 1_555 1_555
C5_4 C7_4 1_555 1_555
N3_5 N4_4 1_555 1_555
C17_4 C19_4 1_555 1_555
Zn3_3 N2_5 1_555 1_555
O1_6 C10_6 1_555 1_555
O6 C10_6 1_555 1_555
N1_6 H1_6 1_555 1_555
N2_5 N1_6 1_555 1_555
C1_6 C2_6 1_555 1_555
C2_6 H2_6 1_555 1_555
C3_5 N2_5 1_555 1_555
C4_6 C2_6 1_555 1_555
H3_5 C4_6 1_555 1_555
C5_5 C3_5 1_555 1_555
C6_6 C4_6 1_555 1_555
C7_5 N1_6 1_555 1_555
C8_6 C6_6 1_555 1_555
H4_6 C8_6 1_555 1_555
C9_6 C1_6 1_555 1_555
H5_6 C9_6 1_555 1_555
C10_6 C1_6 1_555 1_555
C11_5 C3_5 1_555 1_555
H6_5 C11_5 1_555 1_555
H7_5 C11_5 1_555 1_555
H8_6 C11_5 1_555 1_555
C12_6 C7_5 1_555 1_555
H9_5 C12_6 1_555 1_555
H10_6 C12_6 1_555 1_555
H11_6 C12_6 1_555 1_555
O3_6 C22_6 1_555 1_555
O4_5 C22_6 1_555 1_555
N3_6 H12_6 1_555 1_555
N4_5 Zn3_3 1_555 1_555
C13_6 C14_6 1_555 1_555
C14_6 H13_6 1_555 1_555
C15_5 N4_5 1_555 1_555
C16_6 C14_6 1_555 1_555
H14_5 C16_6 1_555 1_555
C17_5 C15_5 1_555 1_555
C18_6 C16_6 1_555 1_555
C19_5 N3_6 1_555 1_555
C20_6 C18_6 1_555 1_555
H15_6 C20_6 1_555 1_555
C21_6 C13_6 1_555 1_555
H16_6 C21_6 1_555 1_555
C22_6 C13_6 1_555 1_555
C23_5 C15_5 1_555 1_555
H17_5 C23_5 1_555 1_555
H18_5 C23_5 1_555 1_555
H19_6 C23_5 1_555 1_555
C24_6 C19_5 1_555 1_555
H20_5 C24_6 1_555 1_555
H21_6 C24_6 1_555 1_555
H22_6 C24_6 1_555 1_555
Zn3_5 O4_5 1_555 1_555
C5_5 C6_6 1_555 1_555
C5_5 C7_5 1_555 1_555
C8_6 C9_6 1_555 1_555
N3_6 N4_5 1_555 1_555
C17_5 C18_6 1_555 1_555
C17_5 C19_5 1_555 1_555
C20_6 C21_6 1_555 1_555
N1_7 H1_7 1_555 1_555
H9_6 C12_7 1_555 1_555
H11_7 C12_7 1_555 1_555
O3_7 C22_7 1_555 1_555
O4_6 C22_7 1_555 1_555
N4_6 Zn3_4 1_555 1_555
C13_7 C14_7 1_555 1_555
C14_7 H13_7 1_555 1_555
C15_6 N4_6 1_555 1_555
C16_7 C14_7 1_555 1_555
H14_6 C16_7 1_555 1_555
C17_6 C15_6 1_555 1_555
C18_7 C16_7 1_555 1_555
C20_7 C18_7 1_555 1_555
H15_7 C20_7 1_555 1_555
C21_7 C13_7 1_555 1_555
H16_7 C21_7 1_555 1_555
C22_7 C13_7 1_555 1_555
C23_6 C15_6 1_555 1_555
H17_6 C23_6 1_555 1_555
H18_6 C23_6 1_555 1_555
H19_7 C23_6 1_555 1_555
Zn3 O4_6 1_555 1_555
C17_6 C18_7 1_555 1_555
C17_6 C19_6 1_555 1_555
C20_7 C21_7 1_555 1_555
Zn3_5 N2_6 1_555 1_555
O1_7 C10_7 1_555 1_555
O6_2 C10_7 1_555 1_555
C1_7 C2_7 1_555 1_555
C2_7 H2_7 1_555 1_555
C3_6 N2_6 1_555 1_555
C4_7 C2_7 1_555 1_555
H3_6 C4_7 1_555 1_555
C5_6 C3_6 1_555 1_555
C6_7 C4_7 1_555 1_555
C8_7 C6_7 1_555 1_555
H4_7 C8_7 1_555 1_555
C9_7 C1_7 1_555 1_555
H5_7 C9_7 1_555 1_555
C10_7 C1_7 1_555 1_555
C11_6 C3_6 1_555 1_555
H6_6 C11_6 1_555 1_555
H7_6 C11_6 1_555 1_555
H8_7 C11_6 1_555 1_555
N3_7 H12_7 1_555 1_555
H20_6 C24_7 1_555 1_555
H22_7 C24_7 1_555 1_555
C5_6 C6_7 1_555 1_555
C5_6 C7_6 1_555 1_555
C8_7 C9_7 1_555 1_555
Zn3 N2_7 1_555 1_555
O1_8 C10_8 1_555 1_555
O6_3 C10_8 1_555 1_555
N1_8 H1_8 1_555 1_555
N2_7 N1_8 1_555 1_555
C1_8 C2_8 1_555 1_555
C2_8 H2_8 1_555 1_555
C3_7 N2_7 1_555 1_555
C4_8 C2_8 1_555 1_555
H3_7 C4_8 1_555 1_555
C5_7 C3_7 1_555 1_555
C6_8 C4_8 1_555 1_555
C7_7 N1_8 1_555 1_555
C8_8 C6_8 1_555 1_555
H4_8 C8_8 1_555 1_555
C9_8 C1_8 1_555 1_555
H5_8 C9_8 1_555 1_555
C10_8 C1_8 1_555 1_555
C11_7 C3_7 1_555 1_555
H6_7 C11_7 1_555 1_555
H7_7 C11_7 1_555 1_555
H8_8 C11_7 1_555 1_555
C12_8 C7_7 1_555 1_555
H9_7 C12_8 1_555 1_555
H10_8 C12_8 1_555 1_555
H11_8 C12_8 1_555 1_555
O3_8 C22_8 1_555 1_555
O5_2 C22_8 1_555 1_555
N3_8 H12_8 1_555 1_555
N4_7 Zn3 1_555 1_555
C13_8 C14_8 1_555 1_555
C14_8 H13_8 1_555 1_555
C15_7 N4_7 1_555 1_555
C16_8 C14_8 1_555 1_555
H14_7 C16_8 1_555 1_555
C17_7 C15_7 1_555 1_555
C18_8 C16_8 1_555 1_555
C19_7 N3_8 1_555 1_555
C20_8 C18_8 1_555 1_555
H15_8 C20_8 1_555 1_555
C21_8 C13_8 1_555 1_555
H16_8 C21_8 1_555 1_555
C22_8 C13_8 1_555 1_555
C23_7 C15_7 1_555 1_555
H17_7 C23_7 1_555 1_555
H18_7 C23_7 1_555 1_555
H19_8 C23_7 1_555 1_555
C24_8 C19_7 1_555 1_555
H20_7 C24_8 1_555 1_555
H21_8 C24_8 1_555 1_555
H22_8 C24_8 1_555 1_555
C5_7 C6_8 1_555 1_555
C5_7 C7_7 1_555 1_555
C8_8 C9_8 1_555 1_555
N3_8 N4_7 1_555 1_555
C17_7 C18_8 1_555 1_555
C17_7 C19_7 1_555 1_555
C20_8 C21_8 1_555 1_555
N4_8 Zn2_5 1_555 1_555
C15_8 N4_8 1_555 1_555
C17_8 C15_8 1_555 1_555
C23_8 C15_8 1_555 1_555
H17_8 C23_8 1_555 1_555
H18_8 C23_8 1_555 1_555
C17_8 C19_8 1_555 1_555
Zn2_6 N2_8 1_555 1_555
C3_8 N2_8 1_555 1_555
C5_8 C3_8 1_555 1_555
C11_8 C3_8 1_555 1_555
H6_8 C11_8 1_555 1_555
H7_8 C11_8 1_555 1_555
C5_8 C7_8 1_555 1_555
Zn4 N6 1_555 1_555
O7 C34 1_555 1_555
O8 C34 1_555 1_555
N5 H23 1_555 1_555
N6 N5 1_555 1_555
C25 C26 1_555 1_555
C26 H24 1_555 1_555
C27 N6 1_555 1_555
C28 C26 1_555 1_555
H25 C28 1_555 1_555
C29 C27 1_555 1_555
C30 C28 1_555 1_555
C31 N5 1_555 1_555
C32 C30 1_555 1_555
H26 C32 1_555 1_555
C33 C25 1_555 1_555
H27 C33 1_555 1_555
C34 C25 1_555 1_555
C35 C27 1_555 1_555
H28 C35 1_555 1_555
H29 C35 1_555 1_555
H30 C35 1_555 1_555
C36 C31 1_555 1_555
H31 C36 1_555 1_555
H32 C36 1_555 1_555
H33 C36 1_555 1_555
O9 C46 1_555 1_555
O10 C46 1_555 1_555
N7 H34 1_555 1_555
N8 Zn4 1_555 1_555
C37 C38 1_555 1_555
C38 H35 1_555 1_555
C39 N8 1_555 1_555
C40 C38 1_555 1_555
H36 C40 1_555 1_555
C41 C39 1_555 1_555
C42 C40 1_555 1_555
C43 N7 1_555 1_555
C44 C42 1_555 1_555
H37 C44 1_555 1_555
C45 C37 1_555 1_555
H38 C45 1_555 1_555
C46 C37 1_555 1_555
C47 C39 1_555 1_555
H39 C47 1_555 1_555
H40 C47 1_555 1_555
H41 C47 1_555 1_555
C48 C43 1_555 1_555
H42 C48 1_555 1_555
H43 C48 1_555 1_555
H44 C48 1_555 1_555
Zn5 O9 1_555 1_555
Zn6 O7 1_555 1_555
O11 Zn4 1_555 1_555
O12 Zn4 1_555 1_555
C29 C30 1_555 1_555
C29 C31 1_555 1_555
C32 C33 1_555 1_555
N7 N8 1_555 1_555
C41 C42 1_555 1_555
C41 C43 1_555 1_555
C44 C45 1_555 1_555
Zn4_2 N6_2 1_555 1_555
O7_2 C34_2 1_555 1_555
O8_2 C34_2 1_555 1_555
N5_2 H23_2 1_555 1_555
N6_2 N5_2 1_555 1_555
C25_2 C26_2 1_555 1_555
C26_2 H24_2 1_555 1_555
C27_2 N6_2 1_555 1_555
C28_2 C26_2 1_555 1_555
H25_2 C28_2 1_555 1_555
C29_2 C27_2 1_555 1_555
C30_2 C28_2 1_555 1_555
C31_2 N5_2 1_555 1_555
C32_2 C30_2 1_555 1_555
H26_2 C32_2 1_555 1_555
C33_2 C25_2 1_555 1_555
H27_2 C33_2 1_555 1_555
C34_2 C25_2 1_555 1_555
C35_2 C27_2 1_555 1_555
H28_2 C35_2 1_555 1_555
H29_2 C35_2 1_555 1_555
H30_2 C35_2 1_555 1_555
C36_2 C31_2 1_555 1_555
H31_2 C36_2 1_555 1_555
H32_2 C36_2 1_555 1_555
H33_2 C36_2 1_555 1_555
O11 C46_2 1_555 1_555
O10_2 C46_2 1_555 1_555
N7_2 H34_2 1_555 1_555
N8_2 Zn4_2 1_555 1_555
C37_2 C38_2 1_555 1_555
C38_2 H35_2 1_555 1_555
C39_2 N8_2 1_555 1_555
C40_2 C38_2 1_555 1_555
H36_2 C40_2 1_555 1_555
C41_2 C39_2 1_555 1_555
C42_2 C40_2 1_555 1_555
C43_2 N7_2 1_555 1_555
C44_2 C42_2 1_555 1_555
H37_2 C44_2 1_555 1_555
C45_2 C37_2 1_555 1_555
H38_2 C45_2 1_555 1_555
C46_2 C37_2 1_555 1_555
C47_2 C39_2 1_555 1_555
H39_2 C47_2 1_555 1_555
H40_2 C47_2 1_555 1_555
H41_2 C47_2 1_555 1_555
C48_2 C43_2 1_555 1_555
H42_2 C48_2 1_555 1_555
H43_2 C48_2 1_555 1_555
H44_2 C48_2 1_555 1_555
Zn6_5 O7_2 1_555 1_555
O11_2 Zn4_2 1_555 1_555
O12_2 Zn4_2 1_555 1_555
C29_2 C30_2 1_555 1_555
C29_2 C31_2 1_555 1_555
C32_2 C33_2 1_555 1_555
N7_2 N8_2 1_555 1_555
C41_2 C42_2 1_555 1_555
C41_2 C43_2 1_555 1_555
C44_2 C45_2 1_555 1_555
O11_3 Zn4_3 1_555 1_555
O7_3 C34_3 1_555 1_555
O8_3 C34_3 1_555 1_555
N5_3 H23_3 1_555 1_555
N6_3 N5_3 1_555 1_555
C25_3 C26_3 1_555 1_555
C26_3 H24_3 1_555 1_555
C27_3 N6_3 1_555 1_555
C28_3 C26_3 1_555 1_555
H25_3 C28_3 1_555 1_555
C29_3 C27_3 1_555 1_555
C30_3 C28_3 1_555 1_555
C31_3 N5_3 1_555 1_555
C32_3 C30_3 1_555 1_555
H26_3 C32_3 1_555 1_555
C33_3 C25_3 1_555 1_555
H27_3 C33_3 1_555 1_555
C34_3 C25_3 1_555 1_555
C35_3 C27_3 1_555 1_555
H28_3 C35_3 1_555 1_555
H29_3 C35_3 1_555 1_555
H30_3 C35_3 1_555 1_555
C36_3 C31_3 1_555 1_555
H31_3 C36_3 1_555 1_555
H32_3 C36_3 1_555 1_555
H33_3 C36_3 1_555 1_555
Zn6_6 O7_3 1_555 1_555
C29_3 C30_3 1_555 1_555
C29_3 C31_3 1_555 1_555
C32_3 C33_3 1_555 1_555
O12_3 Zn4_4 1_555 1_555
O11_2 C46_3 1_555 1_555
O10_3 C46_3 1_555 1_555
N7_3 H34_3 1_555 1_555
C37_3 C38_3 1_555 1_555
C38_3 H35_3 1_555 1_555
C39_3 N8_3 1_555 1_555
C40_3 C38_3 1_555 1_555
H36_3 C40_3 1_555 1_555
C41_3 C39_3 1_555 1_555
C42_3 C40_3 1_555 1_555
C43_3 N7_3 1_555 1_555
C44_3 C42_3 1_555 1_555
H37_3 C44_3 1_555 1_555
C45_3 C37_3 1_555 1_555
H38_3 C45_3 1_555 1_555
C46_3 C37_3 1_555 1_555
C47_3 C39_3 1_555 1_555
H39_3 C47_3 1_555 1_555
H40_3 C47_3 1_555 1_555
H41_3 C47_3 1_555 1_555
C48_3 C43_3 1_555 1_555
H42_3 C48_3 1_555 1_555
H43_3 C48_3 1_555 1_555
H44_3 C48_3 1_555 1_555
N7_3 N8_3 1_555 1_555
C41_3 C42_3 1_555 1_555
C41_3 C43_3 1_555 1_555
C44_3 C45_3 1_555 1_555
Zn5 N6_4 1_555 1_555
O7_4 C34_4 1_555 1_555
O8_4 C34_4 1_555 1_555
N5_4 H23_4 1_555 1_555
N6_4 N5_4 1_555 1_555
C25_4 C26_4 1_555 1_555
C26_4 H24_4 1_555 1_555
C27_4 N6_4 1_555 1_555
C28_4 C26_4 1_555 1_555
H25_4 C28_4 1_555 1_555
C29_4 C27_4 1_555 1_555
C30_4 C28_4 1_555 1_555
C31_4 N5_4 1_555 1_555
C32_4 C30_4 1_555 1_555
H26_4 C32_4 1_555 1_555
C33_4 C25_4 1_555 1_555
H27_4 C33_4 1_555 1_555
C34_4 C25_4 1_555 1_555
C35_4 C27_4 1_555 1_555
H28_4 C35_4 1_555 1_555
H29_4 C35_4 1_555 1_555
H30_4 C35_4 1_555 1_555
C36_4 C31_4 1_555 1_555
H31_4 C36_4 1_555 1_555
H32_4 C36_4 1_555 1_555
H33_4 C36_4 1_555 1_555
O11_3 C46_4 1_555 1_555
O10_4 C46_4 1_555 1_555
N7_4 H34_4 1_555 1_555
N8_4 Zn5 1_555 1_555
C37_4 C38_4 1_555 1_555
C38_4 H35_4 1_555 1_555
C39_4 N8_4 1_555 1_555
C40_4 C38_4 1_555 1_555
H36_4 C40_4 1_555 1_555
C41_4 C39_4 1_555 1_555
C42_4 C40_4 1_555 1_555
C43_4 N7_4 1_555 1_555
C44_4 C42_4 1_555 1_555
H37_4 C44_4 1_555 1_555
C45_4 C37_4 1_555 1_555
H38_4 C45_4 1_555 1_555
C46_4 C37_4 1_555 1_555
C47_4 C39_4 1_555 1_555
H39_4 C47_4 1_555 1_555
H40_4 C47_4 1_555 1_555
H41_4 C47_4 1_555 1_555
C48_4 C43_4 1_555 1_555
H42_4 C48_4 1_555 1_555
H43_4 C48_4 1_555 1_555
H44_4 C48_4 1_555 1_555
Zn6_8 O7_4 1_555 1_555
O12_4 Zn5 1_555 1_555
C29_4 C30_4 1_555 1_555
C29_4 C31_4 1_555 1_555
C32_4 C33_4 1_555 1_555
N7_4 N8_4 1_555 1_555
C41_4 C42_4 1_555 1_555
C41_4 C43_4 1_555 1_555
C44_4 C45_4 1_555 1_555
O11_4 Zn6_7 1_555 1_555
H28_5 C35_5 1_555 1_555
H29_5 C35_5 1_555 1_555
H30_5 C35_5 1_555 1_555
O9_2 C46_5 1_555 1_555
O10_5 C46_5 1_555 1_555
N7_5 H34_5 1_555 1_555
C37_5 C38_5 1_555 1_555
C38_5 H35_5 1_555 1_555
C39_5 N8_5 1_555 1_555
C40_5 C38_5 1_555 1_555
H36_5 C40_5 1_555 1_555
C41_5 C39_5 1_555 1_555
C42_5 C40_5 1_555 1_555
C43_5 N7_5 1_555 1_555
C44_5 C42_5 1_555 1_555
H37_5 C44_5 1_555 1_555
C45_5 C37_5 1_555 1_555
H38_5 C45_5 1_555 1_555
C46_5 C37_5 1_555 1_555
C48_5 C43_5 1_555 1_555
H42_5 C48_5 1_555 1_555
H43_5 C48_5 1_555 1_555
H44_5 C48_5 1_555 1_555
Zn6_6 O9_2 1_555 1_555
N7_5 N8_5 1_555 1_555
C41_5 C42_5 1_555 1_555
C41_5 C43_5 1_555 1_555
C44_5 C45_5 1_555 1_555
O12_2 C34_5 1_555 1_555
O8_5 C34_5 1_555 1_555
N5_5 H23_5 1_555 1_555
N6_5 N5_5 1_555 1_555
C25_5 C26_5 1_555 1_555
C26_5 H24_5 1_555 1_555
C27_5 N6_5 1_555 1_555
C28_5 C26_5 1_555 1_555
H25_5 C28_5 1_555 1_555
C29_5 C27_5 1_555 1_555
C30_5 C28_5 1_555 1_555
C31_5 N5_5 1_555 1_555
C32_5 C30_5 1_555 1_555
H26_5 C32_5 1_555 1_555
C33_5 C25_5 1_555 1_555
H27_5 C33_5 1_555 1_555
C34_5 C25_5 1_555 1_555
C36_5 C31_5 1_555 1_555
H31_5 C36_5 1_555 1_555
H32_5 C36_5 1_555 1_555
H33_5 C36_5 1_555 1_555
H39_5 C47_5 1_555 1_555
H40_5 C47_5 1_555 1_555
H41_5 C47_5 1_555 1_555
C29_5 C30_5 1_555 1_555
C29_5 C31_5 1_555 1_555
C32_5 C33_5 1_555 1_555
Zn6 N6_6 1_555 1_555
O12_3 C34_6 1_555 1_555
O8_6 C34_6 1_555 1_555
N5_6 H23_6 1_555 1_555
N6_6 N5_6 1_555 1_555
C25_6 C26_6 1_555 1_555
C26_6 H24_6 1_555 1_555
C27_6 N6_6 1_555 1_555
C28_6 C26_6 1_555 1_555
H25_6 C28_6 1_555 1_555
C29_6 C27_6 1_555 1_555
C30_6 C28_6 1_555 1_555
C31_6 N5_6 1_555 1_555
C32_6 C30_6 1_555 1_555
H26_6 C32_6 1_555 1_555
C33_6 C25_6 1_555 1_555
H27_6 C33_6 1_555 1_555
C34_6 C25_6 1_555 1_555
C35_6 C27_6 1_555 1_555
H28_6 C35_6 1_555 1_555
H29_6 C35_6 1_555 1_555
H30_6 C35_6 1_555 1_555
C36_6 C31_6 1_555 1_555
H31_6 C36_6 1_555 1_555
H32_6 C36_6 1_555 1_555
H33_6 C36_6 1_555 1_555
O11_4 C46_6 1_555 1_555
O10_6 C46_6 1_555 1_555
N7_6 H34_6 1_555 1_555
N8_6 Zn6 1_555 1_555
C37_6 C38_6 1_555 1_555
C38_6 H35_6 1_555 1_555
C39_6 N8_6 1_555 1_555
C40_6 C38_6 1_555 1_555
H36_6 C40_6 1_555 1_555
C41_6 C39_6 1_555 1_555
C42_6 C40_6 1_555 1_555
C43_6 N7_6 1_555 1_555
C44_6 C42_6 1_555 1_555
H37_6 C44_6 1_555 1_555
C45_6 C37_6 1_555 1_555
H38_6 C45_6 1_555 1_555
C46_6 C37_6 1_555 1_555
C47_6 C39_6 1_555 1_555
H39_6 C47_6 1_555 1_555
H40_6 C47_6 1_555 1_555
H41_6 C47_6 1_555 1_555
C48_6 C43_6 1_555 1_555
H42_6 C48_6 1_555 1_555
H43_6 C48_6 1_555 1_555
H44_6 C48_6 1_555 1_555
O11_5 Zn6 1_555 1_555
C29_6 C30_6 1_555 1_555
C29_6 C31_6 1_555 1_555
C32_6 C33_6 1_555 1_555
N7_6 N8_6 1_555 1_555
C41_6 C42_6 1_555 1_555
C41_6 C43_6 1_555 1_555
C44_6 C45_6 1_555 1_555
H28_7 C35_7 1_555 1_555
H29_7 C35_7 1_555 1_555
H30_7 C35_7 1_555 1_555
O11_6 Zn6_2 1_555 1_555
O11_5 C46_7 1_555 1_555
O10_7 C46_7 1_555 1_555
N7_7 H34_7 1_555 1_555
N8_7 Zn6_3 1_555 1_555
C37_7 C38_7 1_555 1_555
C38_7 H35_7 1_555 1_555
C39_7 N8_7 1_555 1_555
C40_7 C38_7 1_555 1_555
H36_7 C40_7 1_555 1_555
C41_7 C39_7 1_555 1_555
C42_7 C40_7 1_555 1_555
C43_7 N7_7 1_555 1_555
C44_7 C42_7 1_555 1_555
H37_7 C44_7 1_555 1_555
C45_7 C37_7 1_555 1_555
H38_7 C45_7 1_555 1_555
C46_7 C37_7 1_555 1_555
C48_7 C43_7 1_555 1_555
H42_7 C48_7 1_555 1_555
H43_7 C48_7 1_555 1_555
H44_7 C48_7 1_555 1_555
N7_7 N8_7 1_555 1_555
C41_7 C42_7 1_555 1_555
C41_7 C43_7 1_555 1_555
C44_7 C45_7 1_555 1_555
Zn6_4 N6_7 1_555 1_555
O12_4 C34_7 1_555 1_555
O8_7 C34_7 1_555 1_555
N5_7 H23_7 1_555 1_555
N6_7 N5_7 1_555 1_555
C25_7 C26_7 1_555 1_555
C26_7 H24_7 1_555 1_555
C27_7 N6_7 1_555 1_555
C28_7 C26_7 1_555 1_555
H25_7 C28_7 1_555 1_555
C29_7 C27_7 1_555 1_555
C30_7 C28_7 1_555 1_555
C31_7 N5_7 1_555 1_555
C32_7 C30_7 1_555 1_555
H26_7 C32_7 1_555 1_555
C33_7 C25_7 1_555 1_555
H27_7 C33_7 1_555 1_555
C34_7 C25_7 1_555 1_555
C36_7 C31_7 1_555 1_555
H31_7 C36_7 1_555 1_555
H32_7 C36_7 1_555 1_555
H33_7 C36_7 1_555 1_555
C29_7 C30_7 1_555 1_555
C29_7 C31_7 1_555 1_555
C32_7 C33_7 1_555 1_555
H39_7 C47_7 1_555 1_555
H40_7 C47_7 1_555 1_555
H41_7 C47_7 1_555 1_555
Zn6_6 N6_8 1_555 1_555
O12 C34_8 1_555 1_555
O8_8 C34_8 1_555 1_555
N5_8 H23_8 1_555 1_555
N6_8 N5_8 1_555 1_555
C25_8 C26_8 1_555 1_555
C26_8 H24_8 1_555 1_555
C27_8 N6_8 1_555 1_555
C28_8 C26_8 1_555 1_555
H25_8 C28_8 1_555 1_555
C29_8 C27_8 1_555 1_555
C30_8 C28_8 1_555 1_555
C31_8 N5_8 1_555 1_555
C32_8 C30_8 1_555 1_555
H26_8 C32_8 1_555 1_555
C33_8 C25_8 1_555 1_555
H27_8 C33_8 1_555 1_555
C34_8 C25_8 1_555 1_555
C35_8 C27_8 1_555 1_555
H28_8 C35_8 1_555 1_555
H29_8 C35_8 1_555 1_555
H30_8 C35_8 1_555 1_555
C36_8 C31_8 1_555 1_555
H31_8 C36_8 1_555 1_555
H32_8 C36_8 1_555 1_555
H33_8 C36_8 1_555 1_555
O11_6 C46_8 1_555 1_555
O10_8 C46_8 1_555 1_555
N7_8 H34_8 1_555 1_555
N8_8 Zn6_6 1_555 1_555
C37_8 C38_8 1_555 1_555
C38_8 H35_8 1_555 1_555
C39_8 N8_8 1_555 1_555
C40_8 C38_8 1_555 1_555
H36_8 C40_8 1_555 1_555
C41_8 C39_8 1_555 1_555
C42_8 C40_8 1_555 1_555
C43_8 N7_8 1_555 1_555
C44_8 C42_8 1_555 1_555
H37_8 C44_8 1_555 1_555
C45_8 C37_8 1_555 1_555
H38_8 C45_8 1_555 1_555
C46_8 C37_8 1_555 1_555
C47_8 C39_8 1_555 1_555
H39_8 C47_8 1_555 1_555
H40_8 C47_8 1_555 1_555
H41_8 C47_8 1_555 1_555
C48_8 C43_8 1_555 1_555
H42_8 C48_8 1_555 1_555
H43_8 C48_8 1_555 1_555
H44_8 C48_8 1_555 1_555
C29_8 C30_8 1_555 1_555
C29_8 C31_8 1_555 1_555
C32_8 C33_8 1_555 1_555
N7_8 N8_8 1_555 1_555
C41_8 C42_8 1_555 1_555
C41_8 C43_8 1_555 1_555
C44_8 C45_8 1_555 1_555
Zn7 N11 1_555 1_555
O13 C67 1_555 1_555
O14 C68 1_555 1_555
O15 C67 1_555 1_555
O16 C68 1_555 1_555
N9 H45 1_555 1_555
N10 H46 1_555 1_555
N11 N9 1_555 1_555
N12 Zn7 1_555 1_555
C49 C51 1_555 1_555
C50 C52 1_555 1_555
C51 H47 1_555 1_555
C52 H48 1_555 1_555
C53 N11 1_555 1_555
C54 N12 1_555 1_555
C55 C51 1_555 1_555
H49 C55 1_555 1_555
C56 C52 1_555 1_555
H50 C56 1_555 1_555
C57 C53 1_555 1_555
C58 C54 1_555 1_555
C59 C55 1_555 1_555
C60 C56 1_555 1_555
C61 N9 1_555 1_555
C62 N10 1_555 1_555
C63 C59 1_555 1_555
H51 C63 1_555 1_555
C64 C60 1_555 1_555
H52 C64 1_555 1_555
C65 C49 1_555 1_555
H53 C65 1_555 1_555
C66 C50 1_555 1_555
H54 C66 1_555 1_555
C67 C49 1_555 1_555
C68 C50 1_555 1_555
C69 C53 1_555 1_555
H55 C69 1_555 1_555
H56 C69 1_555 1_555
H57 C69 1_555 1_555
C70 C54 1_555 1_555
H58 C70 1_555 1_555
H59 C70 1_555 1_555
H60 C70 1_555 1_555
C71 C61 1_555 1_555
H61 C71 1_555 1_555
H62 C71 1_555 1_555
H63 C71 1_555 1_555
C72 C62 1_555 1_555
H64 C72 1_555 1_555
H65 C72 1_555 1_555
H66 C72 1_555 1_555
Zn8 O16 1_555 1_555
Zn9 O13 1_555 1_555
O17 Zn7 1_555 1_555
O18 Zn7 1_555 1_555
N10 N12 1_555 1_555
C57 C59 1_555 1_555
C57 C61 1_555 1_555
C58 C60 1_555 1_555
C58 C62 1_555 1_555
C63 C65 1_555 1_555
C64 C66 1_555 1_555
O13_2 C67_2 1_555 1_555
O15_2 C67_2 1_555 1_555
C49_2 C51_2 1_555 1_555
C51_2 H47_2 1_555 1_555
C55_2 C51_2 1_555 1_555
H49_2 C55_2 1_555 1_555
C57_2 C53_2 1_555 1_555
C59_2 C55_2 1_555 1_555
C63_2 C59_2 1_555 1_555
H51_2 C63_2 1_555 1_555
C65_2 C49_2 1_555 1_555
H53_2 C65_2 1_555 1_555
C67_2 C49_2 1_555 1_555
C69_2 C53_2 1_555 1_555
H55_2 C69_2 1_555 1_555
H56_2 C69_2 1_555 1_555
H57_2 C69_2 1_555 1_555
Zn9_2 O13_2 1_555 1_555
C57_2 C59_2 1_555 1_555
C63_2 C65_2 1_555 1_555
Zn7_2 N11_2 1_555 1_555
O14_2 C68_2 1_555 1_555
O18 C68_2 1_555 1_555
N9_2 H45_2 1_555 1_555
N10_2 H46_2 1_555 1_555
N11_2 N9_2 1_555 1_555
N12_2 Zn7_2 1_555 1_555
C50_2 C52_2 1_555 1_555
C52_2 H48_2 1_555 1_555
C54_2 N12_2 1_555 1_555
C56_2 C52_2 1_555 1_555
H50_2 C56_2 1_555 1_555
C58_2 C54_2 1_555 1_555
C60_2 C56_2 1_555 1_555
C61_2 N9_2 1_555 1_555
C62_2 N10_2 1_555 1_555
C64_2 C60_2 1_555 1_555
H52_2 C64_2 1_555 1_555
C66_2 C50_2 1_555 1_555
H54_2 C66_2 1_555 1_555
C68_2 C50_2 1_555 1_555
C70_2 C54_2 1_555 1_555
H58_2 C70_2 1_555 1_555
H59_2 C70_2 1_555 1_555
H60_2 C70_2 1_555 1_555
C71_2 C61_2 1_555 1_555
H61_2 C71_2 1_555 1_555
H62_2 C71_2 1_555 1_555
H63_2 C71_2 1_555 1_555
C72_2 C62_2 1_555 1_555
H64_2 C72_2 1_555 1_555
H65_2 C72_2 1_555 1_555
H66_2 C72_2 1_555 1_555
O17_2 Zn7_2 1_555 1_555
O18_2 Zn7_2 1_555 1_555
N10_2 N12_2 1_555 1_555
C58_2 C60_2 1_555 1_555
C58_2 C62_2 1_555 1_555
C64_2 C66_2 1_555 1_555
O17_3 Zn7_3 1_555 1_555
O18_3 Zn7_3 1_555 1_555
O13_3 C67_3 1_555 1_555
O15_3 C67_3 1_555 1_555
N9_3 H45_3 1_555 1_555
N10_3 H46_3 1_555 1_555
N11_3 N9_3 1_555 1_555
C49_3 C51_3 1_555 1_555
C50_3 C52_3 1_555 1_555
C51_3 H47_3 1_555 1_555
C52_3 H48_3 1_555 1_555
C53_3 N11_3 1_555 1_555
C54_3 N12_3 1_555 1_555
C55_3 C51_3 1_555 1_555
H49_3 C55_3 1_555 1_555
C56_3 C52_3 1_555 1_555
H50_3 C56_3 1_555 1_555
C57_3 C53_3 1_555 1_555
C58_3 C54_3 1_555 1_555
C59_3 C55_3 1_555 1_555
C60_3 C56_3 1_555 1_555
C61_3 N9_3 1_555 1_555
C62_3 N10_3 1_555 1_555
C63_3 C59_3 1_555 1_555
H51_3 C63_3 1_555 1_555
C64_3 C60_3 1_555 1_555
H52_3 C64_3 1_555 1_555
C65_3 C49_3 1_555 1_555
H53_3 C65_3 1_555 1_555
C66_3 C50_3 1_555 1_555
H54_3 C66_3 1_555 1_555
C67_3 C49_3 1_555 1_555
C69_3 C53_3 1_555 1_555
H55_3 C69_3 1_555 1_555
H56_3 C69_3 1_555 1_555
H57_3 C69_3 1_555 1_555
C70_3 C54_3 1_555 1_555
H58_3 C70_3 1_555 1_555
H59_3 C70_3 1_555 1_555
H60_3 C70_3 1_555 1_555
C71_3 C61_3 1_555 1_555
H61_3 C71_3 1_555 1_555
H62_3 C71_3 1_555 1_555
H63_3 C71_3 1_555 1_555
C72_3 C62_3 1_555 1_555
H64_3 C72_3 1_555 1_555
H65_3 C72_3 1_555 1_555
H66_3 C72_3 1_555 1_555
Zn9_3 O13_3 1_555 1_555
N10_3 N12_3 1_555 1_555
C57_3 C59_3 1_555 1_555
C57_3 C61_3 1_555 1_555
C58_3 C60_3 1_555 1_555
C58_3 C62_3 1_555 1_555
C63_3 C65_3 1_555 1_555
C64_3 C66_3 1_555 1_555
O14_3 C68_3 1_555 1_555
O18_2 C68_3 1_555 1_555
Zn8 N11_4 1_555 1_555
O13_4 C67_4 1_555 1_555
O14_4 C68_4 1_555 1_555
O18_3 C68_4 1_555 1_555
N9_4 H45_4 1_555 1_555
N10_4 H46_4 1_555 1_555
N11_4 N9_4 1_555 1_555
N12_4 Zn8 1_555 1_555
C49_4 C51_4 1_555 1_555
C50_4 C52_4 1_555 1_555
C51_4 H47_4 1_555 1_555
C52_4 H48_4 1_555 1_555
C53_4 N11_4 1_555 1_555
C54_4 N12_4 1_555 1_555
C55_4 C51_4 1_555 1_555
H49_4 C55_4 1_555 1_555
C56_4 C52_4 1_555 1_555
H50_4 C56_4 1_555 1_555
C57_4 C53_4 1_555 1_555
C58_4 C54_4 1_555 1_555
C59_4 C55_4 1_555 1_555
C60_4 C56_4 1_555 1_555
C61_4 N9_4 1_555 1_555
C62_4 N10_4 1_555 1_555
C63_4 C59_4 1_555 1_555
H51_4 C63_4 1_555 1_555
C64_4 C60_4 1_555 1_555
H52_4 C64_4 1_555 1_555
C65_4 C49_4 1_555 1_555
H53_4 C65_4 1_555 1_555
C66_4 C50_4 1_555 1_555
H54_4 C66_4 1_555 1_555
C67_4 C49_4 1_555 1_555
C68_4 C50_4 1_555 1_555
C69_4 C53_4 1_555 1_555
H55_4 C69_4 1_555 1_555
H56_4 C69_4 1_555 1_555
H57_4 C69_4 1_555 1_555
C70_4 C54_4 1_555 1_555
H58_4 C70_4 1_555 1_555
H59_4 C70_4 1_555 1_555
H60_4 C70_4 1_555 1_555
C71_4 C61_4 1_555 1_555
H61_4 C71_4 1_555 1_555
H62_4 C71_4 1_555 1_555
H63_4 C71_4 1_555 1_555
C72_4 C62_4 1_555 1_555
H64_4 C72_4 1_555 1_555
H65_4 C72_4 1_555 1_555
H66_4 C72_4 1_555 1_555
Zn9_4 O13_4 1_555 1_555
O17_4 Zn8 1_555 1_555
N10_4 N12_4 1_555 1_555
C57_4 C59_4 1_555 1_555
C57_4 C61_4 1_555 1_555
C58_4 C60_4 1_555 1_555
C58_4 C62_4 1_555 1_555
C63_4 C65_4 1_555 1_555
C64_4 C66_4 1_555 1_555
Zn9_2 N11_5 1_555 1_555
O17_4 C67_5 1_555 1_555
O15_4 C67_5 1_555 1_555
N9_5 H45_5 1_555 1_555
N10_5 H46_5 1_555 1_555
N11_5 N9_5 1_555 1_555
N12_5 Zn9_2 1_555 1_555
C49_5 C51_5 1_555 1_555
C50_5 C52_5 1_555 1_555
C51_5 H47_5 1_555 1_555
C52_5 H48_5 1_555 1_555
C53_5 N11_5 1_555 1_555
C54_5 N12_5 1_555 1_555
C55_5 C51_5 1_555 1_555
H49_5 C55_5 1_555 1_555
C56_5 C52_5 1_555 1_555
H50_5 C56_5 1_555 1_555
C57_5 C53_5 1_555 1_555
C58_5 C54_5 1_555 1_555
C59_5 C55_5 1_555 1_555
C60_5 C56_5 1_555 1_555
C61_5 N9_5 1_555 1_555
C62_5 N10_5 1_555 1_555
C63_5 C59_5 1_555 1_555
H51_5 C63_5 1_555 1_555
C64_5 C60_5 1_555 1_555
H52_5 C64_5 1_555 1_555
C65_5 C49_5 1_555 1_555
H53_5 C65_5 1_555 1_555
C66_5 C50_5 1_555 1_555
H54_5 C66_5 1_555 1_555
C67_5 C49_5 1_555 1_555
C69_5 C53_5 1_555 1_555
H55_5 C69_5 1_555 1_555
H56_5 C69_5 1_555 1_555
H57_5 C69_5 1_555 1_555
C70_5 C54_5 1_555 1_555
H58_5 C70_5 1_555 1_555
H59_5 C70_5 1_555 1_555
H60_5 C70_5 1_555 1_555
C71_5 C61_5 1_555 1_555
H61_5 C71_5 1_555 1_555
H62_5 C71_5 1_555 1_555
H63_5 C71_5 1_555 1_555
C72_5 C62_5 1_555 1_555
H64_5 C72_5 1_555 1_555
H65_5 C72_5 1_555 1_555
H66_5 C72_5 1_555 1_555
O18_4 Zn9_2 1_555 1_555
N10_5 N12_5 1_555 1_555
C57_5 C59_5 1_555 1_555
C57_5 C61_5 1_555 1_555
C58_5 C60_5 1_555 1_555
C58_5 C62_5 1_555 1_555
C63_5 C65_5 1_555 1_555
C64_5 C66_5 1_555 1_555
O14_5 C68_5 1_555 1_555
O16_2 C68_5 1_555 1_555
O14_6 C68_6 1_555 1_555
O18_4 C68_6 1_555 1_555
N10_6 H46_6 1_555 1_555
C50_6 C52_6 1_555 1_555
C52_6 H48_6 1_555 1_555
C54_6 N12_6 1_555 1_555
C56_6 C52_6 1_555 1_555
H50_6 C56_6 1_555 1_555
C58_6 C54_6 1_555 1_555
C60_6 C56_6 1_555 1_555
C62_6 N10_6 1_555 1_555
C64_6 C60_6 1_555 1_555
H52_6 C64_6 1_555 1_555
C66_6 C50_6 1_555 1_555
H54_6 C66_6 1_555 1_555
C68_6 C50_6 1_555 1_555
H56_6 C69_6 1_555 1_555
H57_6 C69_6 1_555 1_555
C72_6 C62_6 1_555 1_555
H64_6 C72_6 1_555 1_555
H65_6 C72_6 1_555 1_555
H66_6 C72_6 1_555 1_555
N10_6 N12_6 1_555 1_555
C58_6 C60_6 1_555 1_555
C58_6 C62_6 1_555 1_555
C64_6 C66_6 1_555 1_555
Zn9_3 N11_6 1_555 1_555
O17 C67_6 1_555 1_555
O15_5 C67_6 1_555 1_555
N9_6 H45_6 1_555 1_555
N11_6 N9_6 1_555 1_555
C49_6 C51_6 1_555 1_555
C51_6 H47_6 1_555 1_555
C53_6 N11_6 1_555 1_555
C55_6 C51_6 1_555 1_555
H49_6 C55_6 1_555 1_555
C57_6 C53_6 1_555 1_555
C59_6 C55_6 1_555 1_555
C61_6 N9_6 1_555 1_555
C63_6 C59_6 1_555 1_555
H51_6 C63_6 1_555 1_555
C65_6 C49_6 1_555 1_555
H53_6 C65_6 1_555 1_555
C67_6 C49_6 1_555 1_555
H58_6 C70_6 1_555 1_555
H59_6 C70_6 1_555 1_555
C71_6 C61_6 1_555 1_555
H61_6 C71_6 1_555 1_555
H62_6 C71_6 1_555 1_555
H63_6 C71_6 1_555 1_555
C57_6 C59_6 1_555 1_555
C57_6 C61_6 1_555 1_555
C63_6 C65_6 1_555 1_555
O18_6 Zn9_4 1_555 1_555
O17_2 C67_7 1_555 1_555
O14_7 C68_7 1_555 1_555
O15_6 C67_7 1_555 1_555
O18_5 C68_7 1_555 1_555
N9_7 H45_7 1_555 1_555
N10_7 H46_7 1_555 1_555
N11_7 N9_7 1_555 1_555
C49_7 C51_7 1_555 1_555
C50_7 C52_7 1_555 1_555
C51_7 H47_7 1_555 1_555
C52_7 H48_7 1_555 1_555
C53_7 N11_7 1_555 1_555
C54_7 N12_7 1_555 1_555
C55_7 C51_7 1_555 1_555
H49_7 C55_7 1_555 1_555
C56_7 C52_7 1_555 1_555
H50_7 C56_7 1_555 1_555
C57_7 C53_7 1_555 1_555
C58_7 C54_7 1_555 1_555
C59_7 C55_7 1_555 1_555
C60_7 C56_7 1_555 1_555
C61_7 N9_7 1_555 1_555
C62_7 N10_7 1_555 1_555
C63_7 C59_7 1_555 1_555
H51_7 C63_7 1_555 1_555
C64_7 C60_7 1_555 1_555
H52_7 C64_7 1_555 1_555
C65_7 C49_7 1_555 1_555
H53_7 C65_7 1_555 1_555
C66_7 C50_7 1_555 1_555
H54_7 C66_7 1_555 1_555
C67_7 C49_7 1_555 1_555
C68_7 C50_7 1_555 1_555
C69_7 C53_7 1_555 1_555
H55_7 C69_7 1_555 1_555
H56_7 C69_7 1_555 1_555
H57_7 C69_7 1_555 1_555
C70_7 C54_7 1_555 1_555
H58_7 C70_7 1_555 1_555
H59_7 C70_7 1_555 1_555
H60_7 C70_7 1_555 1_555
C71_7 C61_7 1_555 1_555
H61_7 C71_7 1_555 1_555
H62_7 C71_7 1_555 1_555
H63_7 C71_7 1_555 1_555
C72_7 C62_7 1_555 1_555
H64_7 C72_7 1_555 1_555
H65_7 C72_7 1_555 1_555
H66_7 C72_7 1_555 1_555
N10_7 N12_7 1_555 1_555
C57_7 C59_7 1_555 1_555
C57_7 C61_7 1_555 1_555
C58_7 C60_7 1_555 1_555
C58_7 C62_7 1_555 1_555
C63_7 C65_7 1_555 1_555
C64_7 C66_7 1_555 1_555
O14_8 C68_8 1_555 1_555
O18_6 C68_8 1_555 1_555
N10_8 H46_8 1_555 1_555
C50_8 C52_8 1_555 1_555
C52_8 H48_8 1_555 1_555
C54_8 N12_8 1_555 1_555
C56_8 C52_8 1_555 1_555
H50_8 C56_8 1_555 1_555
C58_8 C54_8 1_555 1_555
C60_8 C56_8 1_555 1_555
C62_8 N10_8 1_555 1_555
C64_8 C60_8 1_555 1_555
H52_8 C64_8 1_555 1_555
C66_8 C50_8 1_555 1_555
H54_8 C66_8 1_555 1_555
C68_8 C50_8 1_555 1_555
C72_8 C62_8 1_555 1_555
H64_8 C72_8 1_555 1_555
H65_8 C72_8 1_555 1_555
H66_8 C72_8 1_555 1_555
N10_8 N12_8 1_555 1_555
C58_8 C60_8 1_555 1_555
C58_8 C62_8 1_555 1_555
C64_8 C66_8 1_555 1_555
O17_3 C67_8 1_555 1_555
C49_8 C51_8 1_555 1_555
C51_8 H47_8 1_555 1_555
C55_8 C51_8 1_555 1_555
H49_8 C55_8 1_555 1_555
C57_8 C53_8 1_555 1_555
C59_8 C55_8 1_555 1_555
C63_8 C59_8 1_555 1_555
H51_8 C63_8 1_555 1_555
C65_8 C49_8 1_555 1_555
H53_8 C65_8 1_555 1_555
C67_8 C49_8 1_555 1_555
C57_8 C59_8 1_555 1_555
C63_8 C65_8 1_555 1_555
Zn9 N11_8 1_555 1_555
N9_8 H45_8 1_555 1_555
N11_8 N9_8 1_555 1_555
C61_8 N9_8 1_555 1_555
H58_8 C70_8 1_555 1_555
H59_8 C70_8 1_555 1_555
C71_8 C61_8 1_555 1_555
H61_8 C71_8 1_555 1_555
H62_8 C71_8 1_555 1_555
H63_8 C71_8 1_555 1_555
Zn7_4 N11_9 1_555 1_555
O13_5 C67_9 1_555 1_555
O14_9 C68_9 1_555 1_555
O15_7 C67_9 1_555 1_555
O16_3 C68_9 1_555 1_555
N9_9 H45_9 1_555 1_555
N10_9 H46_9 1_555 1_555
N11_9 N9_9 1_555 1_555
N12_9 Zn7_4 1_555 1_555
C49_9 C51_9 1_555 1_555
C50_9 C52_9 1_555 1_555
C51_9 H47_9 1_555 1_555
C52_9 H48_9 1_555 1_555
C53_9 N11_9 1_555 1_555
C54_9 N12_9 1_555 1_555
C55_9 C51_9 1_555 1_555
H49_9 C55_9 1_555 1_555
C56_9 C52_9 1_555 1_555
H50_9 C56_9 1_555 1_555
C57_9 C53_9 1_555 1_555
C58_9 C54_9 1_555 1_555
C59_9 C55_9 1_555 1_555
C60_9 C56_9 1_555 1_555
C61_9 N9_9 1_555 1_555
C62_9 N10_9 1_555 1_555
C63_9 C59_9 1_555 1_555
H51_9 C63_9 1_555 1_555
C64_9 C60_9 1_555 1_555
H52_9 C64_9 1_555 1_555
C65_9 C49_9 1_555 1_555
H53_9 C65_9 1_555 1_555
C66_9 C50_9 1_555 1_555
H54_9 C66_9 1_555 1_555
C67_9 C49_9 1_555 1_555
C68_9 C50_9 1_555 1_555
C69_8 C53_9 1_555 1_555
H55_9 C69_8 1_555 1_555
H56_8 C69_8 1_555 1_555
H57_8 C69_8 1_555 1_555
C70_9 C54_9 1_555 1_555
H58_9 C70_9 1_555 1_555
H59_9 C70_9 1_555 1_555
H60_9 C70_9 1_555 1_555
C71_9 C61_9 1_555 1_555
H61_9 C71_9 1_555 1_555
H62_9 C71_9 1_555 1_555
H63_9 C71_9 1_555 1_555
C72_9 C62_9 1_555 1_555
H64_9 C72_9 1_555 1_555
H65_9 C72_9 1_555 1_555
H66_9 C72_9 1_555 1_555
Zn8_2 O16_3 1_555 1_555
Zn9_5 O13_5 1_555 1_555
O17_5 Zn7_4 1_555 1_555
O18_7 Zn7_4 1_555 1_555
N10_9 N12_9 1_555 1_555
C57_9 C59_9 1_555 1_555
C57_9 C61_9 1_555 1_555
C58_9 C60_9 1_555 1_555
C58_9 C62_9 1_555 1_555
C63_9 C65_9 1_555 1_555
C64_9 C66_9 1_555 1_555
O13_6 C67_10 1_555 1_555
C49_10 C51_10 1_555 1_555
C51_10 H47_10 1_555 1_555
C55_10 C51_10 1_555 1_555
H49_10 C55_10 1_555 1_555
C57_10 C53_10 1_555 1_555
C59_10 C55_10 1_555 1_555
C63_10 C59_10 1_555 1_555
H51_10 C63_10 1_555 1_555
C65_10 C49_10 1_555 1_555
H53_10 C65_10 1_555 1_555
C67_10 C49_10 1_555 1_555
Zn9_6 O13_6 1_555 1_555
C57_10 C59_10 1_555 1_555
C63_10 C65_10 1_555 1_555
Zn9_5 N11_10 1_555 1_555
N9_10 H45_10 1_555 1_555
N11_10 N9_10 1_555 1_555
C61_10 N9_10 1_555 1_555
H58_10 C70_10 1_555 1_555
H59_10 C70_10 1_555 1_555
C71_10 C61_10 1_555 1_555
H61_10 C71_10 1_555 1_555
H62_10 C71_10 1_555 1_555
H63_10 C71_10 1_555 1_555
O14_10 C68_10 1_555 1_555
O16_4 C68_10 1_555 1_555
N10_10 H46_10 1_555 1_555
C50_10 C52_10 1_555 1_555
C52_10 H48_10 1_555 1_555
C54_10 N12_10 1_555 1_555
C56_10 C52_10 1_555 1_555
H50_10 C56_10 1_555 1_555
C58_10 C54_10 1_555 1_555
C60_10 C56_10 1_555 1_555
C62_10 N10_10 1_555 1_555
C64_10 C60_10 1_555 1_555
H52_10 C64_10 1_555 1_555
C66_10 C50_10 1_555 1_555
H54_10 C66_10 1_555 1_555
C68_10 C50_10 1_555 1_555
C72_10 C62_10 1_555 1_555
H64_10 C72_10 1_555 1_555
H65_10 C72_10 1_555 1_555
H66_10 C72_10 1_555 1_555
Zn8_3 O16_4 1_555 1_555
N10_10 N12_10 1_555 1_555
C58_10 C60_10 1_555 1_555
C58_10 C62_10 1_555 1_555
C64_10 C66_10 1_555 1_555
O13_7 C67_11 1_555 1_555
O15_8 C67_11 1_555 1_555
N9_11 H45_11 1_555 1_555
N10_11 H46_11 1_555 1_555
N11_11 N9_11 1_555 1_555
C49_11 C51_11 1_555 1_555
C50_11 C52_11 1_555 1_555
C51_11 H47_11 1_555 1_555
C52_11 H48_11 1_555 1_555
C53_11 N11_11 1_555 1_555
C54_11 N12_11 1_555 1_555
C55_11 C51_11 1_555 1_555
H49_11 C55_11 1_555 1_555
C56_11 C52_11 1_555 1_555
H50_11 C56_11 1_555 1_555
C57_11 C53_11 1_555 1_555
C58_11 C54_11 1_555 1_555
C59_11 C55_11 1_555 1_555
C60_11 C56_11 1_555 1_555
C61_11 N9_11 1_555 1_555
C62_11 N10_11 1_555 1_555
C63_11 C59_11 1_555 1_555
H51_11 C63_11 1_555 1_555
C64_11 C60_11 1_555 1_555
H52_11 C64_11 1_555 1_555
C65_11 C49_11 1_555 1_555
H53_11 C65_11 1_555 1_555
C66_11 C50_11 1_555 1_555
H54_11 C66_11 1_555 1_555
C67_11 C49_11 1_555 1_555
C69_9 C53_11 1_555 1_555
H55_11 C69_9 1_555 1_555
H56_9 C69_9 1_555 1_555
H57_9 C69_9 1_555 1_555
C70_11 C54_11 1_555 1_555
H58_11 C70_11 1_555 1_555
H59_11 C70_11 1_555 1_555
H60_11 C70_11 1_555 1_555
C71_11 C61_11 1_555 1_555
H61_11 C71_11 1_555 1_555
H62_11 C71_11 1_555 1_555
H63_11 C71_11 1_555 1_555
C72_11 C62_11 1_555 1_555
H64_11 C72_11 1_555 1_555
H65_11 C72_11 1_555 1_555
H66_11 C72_11 1_555 1_555
Zn9_7 O13_7 1_555 1_555
N10_11 N12_11 1_555 1_555
C57_11 C59_11 1_555 1_555
C57_11 C61_11 1_555 1_555
C58_11 C60_11 1_555 1_555
C58_11 C62_11 1_555 1_555
C63_11 C65_11 1_555 1_555
C64_11 C66_11 1_555 1_555
O14_11 C68_11 1_555 1_555
O16_5 C68_11 1_555 1_555
Zn8_4 O16_5 1_555 1_555
O18_9 Zn9_6 1_555 1_555
Zn9_7 N11_12 1_555 1_555
O17_5 C67_12 1_555 1_555
O15_9 C67_12 1_555 1_555
N9_12 H45_12 1_555 1_555
N11_12 N9_12 1_555 1_555
C49_12 C51_12 1_555 1_555
C51_12 H47_12 1_555 1_555
C53_12 N11_12 1_555 1_555
C55_12 C51_12 1_555 1_555
H49_12 C55_12 1_555 1_555
C57_12 C53_12 1_555 1_555
C59_12 C55_12 1_555 1_555
C61_12 N9_12 1_555 1_555
C63_12 C59_12 1_555 1_555
H51_12 C63_12 1_555 1_555
C65_12 C49_12 1_555 1_555
H53_12 C65_12 1_555 1_555
C67_12 C49_12 1_555 1_555
H58_12 C70_12 1_555 1_555
H59_12 C70_12 1_555 1_555
C71_12 C61_12 1_555 1_555
H61_12 C71_12 1_555 1_555
H62_12 C71_12 1_555 1_555
H63_12 C71_12 1_555 1_555
C57_12 C59_12 1_555 1_555
C57_12 C61_12 1_555 1_555
C63_12 C65_12 1_555 1_555
O14_12 C68_12 1_555 1_555
O16_6 C68_12 1_555 1_555
N10_12 H46_12 1_555 1_555
C50_12 C52_12 1_555 1_555
C52_12 H48_12 1_555 1_555
C54_12 N12_12 1_555 1_555
C56_12 C52_12 1_555 1_555
H50_12 C56_12 1_555 1_555
C58_12 C54_12 1_555 1_555
C60_12 C56_12 1_555 1_555
C62_12 N10_12 1_555 1_555
C64_12 C60_12 1_555 1_555
H52_12 C64_12 1_555 1_555
C66_12 C50_12 1_555 1_555
H54_12 C66_12 1_555 1_555
C68_12 C50_12 1_555 1_555
H56_10 C69_10 1_555 1_555
H57_10 C69_10 1_555 1_555
C72_12 C62_12 1_555 1_555
H64_12 C72_12 1_555 1_555
H65_12 C72_12 1_555 1_555
H66_12 C72_12 1_555 1_555
Zn8_5 O16_6 1_555 1_555
N10_12 N12_12 1_555 1_555
C58_12 C60_12 1_555 1_555
C58_12 C62_12 1_555 1_555
C64_12 C66_12 1_555 1_555
Zn8_5 N11_13 1_555 1_555
O13_8 C67_13 1_555 1_555
O15_10 C67_13 1_555 1_555
N9_13 H45_13 1_555 1_555
N10_13 H46_13 1_555 1_555
N11_13 N9_13 1_555 1_555
N12_13 Zn8_5 1_555 1_555
C49_13 C51_13 1_555 1_555
C50_13 C52_13 1_555 1_555
C51_13 H47_13 1_555 1_555
C52_13 H48_13 1_555 1_555
C53_13 N11_13 1_555 1_555
C54_13 N12_13 1_555 1_555
C55_13 C51_13 1_555 1_555
H49_13 C55_13 1_555 1_555
C56_13 C52_13 1_555 1_555
H50_13 C56_13 1_555 1_555
C57_13 C53_13 1_555 1_555
C58_13 C54_13 1_555 1_555
C59_13 C55_13 1_555 1_555
C60_13 C56_13 1_555 1_555
C61_13 N9_13 1_555 1_555
C62_13 N10_13 1_555 1_555
C63_13 C59_13 1_555 1_555
H51_13 C63_13 1_555 1_555
C64_13 C60_13 1_555 1_555
H52_13 C64_13 1_555 1_555
C65_13 C49_13 1_555 1_555
H53_13 C65_13 1_555 1_555
C66_13 C50_13 1_555 1_555
H54_13 C66_13 1_555 1_555
C67_13 C49_13 1_555 1_555
C69_11 C53_13 1_555 1_555
H55_13 C69_11 1_555 1_555
H56_11 C69_11 1_555 1_555
H57_11 C69_11 1_555 1_555
C70_13 C54_13 1_555 1_555
H58_13 C70_13 1_555 1_555
H59_13 C70_13 1_555 1_555
H60_13 C70_13 1_555 1_555
C71_13 C61_13 1_555 1_555
H61_13 C71_13 1_555 1_555
H62_13 C71_13 1_555 1_555
H63_13 C71_13 1_555 1_555
C72_13 C62_13 1_555 1_555
H64_13 C72_13 1_555 1_555
H65_13 C72_13 1_555 1_555
H66_13 C72_13 1_555 1_555
Zn8_2 O13_8 1_555 1_555
O17_6 Zn8_5 1_555 1_555
N10_13 N12_13 1_555 1_555
C57_13 C59_13 1_555 1_555
C57_13 C61_13 1_555 1_555
C58_13 C60_13 1_555 1_555
C58_13 C62_13 1_555 1_555
C63_13 C65_13 1_555 1_555
C64_13 C66_13 1_555 1_555
O14_13 C68_13 1_555 1_555
O18_8 C68_13 1_555 1_555
Zn8_2 N11_14 1_555 1_555
O13_9 C67_14 1_555 1_555
O14_14 C68_14 1_555 1_555
O18_9 C68_14 1_555 1_555
N9_14 H45_14 1_555 1_555
N10_14 H46_14 1_555 1_555
N11_14 N9_14 1_555 1_555
N12_14 Zn8_2 1_555 1_555
C49_14 C51_14 1_555 1_555
C50_14 C52_14 1_555 1_555
C51_14 H47_14 1_555 1_555
C52_14 H48_14 1_555 1_555
C53_14 N11_14 1_555 1_555
C54_14 N12_14 1_555 1_555
C55_14 C51_14 1_555 1_555
H49_14 C55_14 1_555 1_555
C56_14 C52_14 1_555 1_555
H50_14 C56_14 1_555 1_555
C57_14 C53_14 1_555 1_555
C58_14 C54_14 1_555 1_555
C59_14 C55_14 1_555 1_555
C60_14 C56_14 1_555 1_555
C61_14 N9_14 1_555 1_555
C62_14 N10_14 1_555 1_555
C63_14 C59_14 1_555 1_555
H51_14 C63_14 1_555 1_555
C64_14 C60_14 1_555 1_555
H52_14 C64_14 1_555 1_555
C65_14 C49_14 1_555 1_555
H53_14 C65_14 1_555 1_555
C66_14 C50_14 1_555 1_555
H54_14 C66_14 1_555 1_555
C67_14 C49_14 1_555 1_555
C68_14 C50_14 1_555 1_555
C69_12 C53_14 1_555 1_555
H55_14 C69_12 1_555 1_555
H56_12 C69_12 1_555 1_555
H57_12 C69_12 1_555 1_555
C70_14 C54_14 1_555 1_555
H58_14 C70_14 1_555 1_555
H59_14 C70_14 1_555 1_555
H60_14 C70_14 1_555 1_555
C71_14 C61_14 1_555 1_555
H61_14 C71_14 1_555 1_555
H62_14 C71_14 1_555 1_555
H63_14 C71_14 1_555 1_555
C72_14 C62_14 1_555 1_555
H64_14 C72_14 1_555 1_555
H65_14 C72_14 1_555 1_555
H66_14 C72_14 1_555 1_555
Zn8_3 O13_9 1_555 1_555
N10_14 N12_14 1_555 1_555
C57_14 C59_14 1_555 1_555
C57_14 C61_14 1_555 1_555
C58_14 C60_14 1_555 1_555
C58_14 C62_14 1_555 1_555
C63_14 C65_14 1_555 1_555
C64_14 C66_14 1_555 1_555
O13_10 C67_15 1_555 1_555
O14_15 C68_15 1_555 1_555
O15_11 C67_15 1_555 1_555
O18_10 C68_15 1_555 1_555
N9_15 H45_15 1_555 1_555
N10_15 H46_15 1_555 1_555
N11_15 N9_15 1_555 1_555
C49_15 C51_15 1_555 1_555
C50_15 C52_15 1_555 1_555
C51_15 H47_15 1_555 1_555
C52_15 H48_15 1_555 1_555
C53_15 N11_15 1_555 1_555
C54_15 N12_15 1_555 1_555
C55_15 C51_15 1_555 1_555
H49_15 C55_15 1_555 1_555
C56_15 C52_15 1_555 1_555
H50_15 C56_15 1_555 1_555
C57_15 C53_15 1_555 1_555
C58_15 C54_15 1_555 1_555
C59_15 C55_15 1_555 1_555
C60_15 C56_15 1_555 1_555
C61_15 N9_15 1_555 1_555
C62_15 N10_15 1_555 1_555
C63_15 C59_15 1_555 1_555
H51_15 C63_15 1_555 1_555
C64_15 C60_15 1_555 1_555
H52_15 C64_15 1_555 1_555
C65_15 C49_15 1_555 1_555
H53_15 C65_15 1_555 1_555
C66_15 C50_15 1_555 1_555
H54_15 C66_15 1_555 1_555
C67_15 C49_15 1_555 1_555
C68_15 C50_15 1_555 1_555
C69_13 C53_15 1_555 1_555
H55_15 C69_13 1_555 1_555
H56_13 C69_13 1_555 1_555
H57_13 C69_13 1_555 1_555
C70_15 C54_15 1_555 1_555
H58_15 C70_15 1_555 1_555
H59_15 C70_15 1_555 1_555
H60_15 C70_15 1_555 1_555
C71_15 C61_15 1_555 1_555
H61_15 C71_15 1_555 1_555
H62_15 C71_15 1_555 1_555
H63_15 C71_15 1_555 1_555
C72_15 C62_15 1_555 1_555
H64_15 C72_15 1_555 1_555
H65_15 C72_15 1_555 1_555
H66_15 C72_15 1_555 1_555
Zn8_4 O13_10 1_555 1_555
N10_15 N12_15 1_555 1_555
C57_15 C59_15 1_555 1_555
C57_15 C61_15 1_555 1_555
C58_15 C60_15 1_555 1_555
C58_15 C62_15 1_555 1_555
C63_15 C65_15 1_555 1_555
C64_15 C66_15 1_555 1_555
O17_6 C67_16 1_555 1_555
O15_12 C67_16 1_555 1_555
C49_16 C51_16 1_555 1_555
C51_16 H47_16 1_555 1_555
C55_16 C51_16 1_555 1_555
H49_16 C55_16 1_555 1_555
C57_16 C53_16 1_555 1_555
C59_16 C55_16 1_555 1_555
C63_16 C59_16 1_555 1_555
H51_16 C63_16 1_555 1_555
C65_16 C49_16 1_555 1_555
H53_16 C65_16 1_555 1_555
C67_16 C49_16 1_555 1_555
C69_14 C53_16 1_555 1_555
H55_16 C69_14 1_555 1_555
H56_14 C69_14 1_555 1_555
H57_14 C69_14 1_555 1_555
C57_16 C59_16 1_555 1_555
C63_16 C65_16 1_555 1_555
Zn8_4 N11_16 1_555 1_555
O14_16 C68_16 1_555 1_555
O18_7 C68_16 1_555 1_555
N9_16 H45_16 1_555 1_555
N10_16 H46_16 1_555 1_555
N11_16 N9_16 1_555 1_555
N12_16 Zn8_4 1_555 1_555
C50_16 C52_16 1_555 1_555
C52_16 H48_16 1_555 1_555
C54_16 N12_16 1_555 1_555
C56_16 C52_16 1_555 1_555
H50_16 C56_16 1_555 1_555
C58_16 C54_16 1_555 1_555
C60_16 C56_16 1_555 1_555
C61_16 N9_16 1_555 1_555
C62_16 N10_16 1_555 1_555
C64_16 C60_16 1_555 1_555
H52_16 C64_16 1_555 1_555
C66_16 C50_16 1_555 1_555
H54_16 C66_16 1_555 1_555
C68_16 C50_16 1_555 1_555
C70_16 C54_16 1_555 1_555
H58_16 C70_16 1_555 1_555
H59_16 C70_16 1_555 1_555
H60_16 C70_16 1_555 1_555
C71_16 C61_16 1_555 1_555
H61_16 C71_16 1_555 1_555
H62_16 C71_16 1_555 1_555
H63_16 C71_16 1_555 1_555
C72_16 C62_16 1_555 1_555
H64_16 C72_16 1_555 1_555
H65_16 C72_16 1_555 1_555
H66_16 C72_16 1_555 1_555
N10_16 N12_16 1_555 1_555
C58_16 C60_16 1_555 1_555
C58_16 C62_16 1_555 1_555
C64_16 C66_16 1_555 1_555
H56_15 C69_15 1_555 1_555
H57_15 C69_15 1_555 1_555
H56_16 C69_16 1_555 1_555
H57_16 C69_16 1_555 1_555

#END
