
###############################################################################
#
# This file contains modified crystal structure data generated from the
# MOF subset of the Cambridge Structural Database (CSD) v543 
# hosted by the Cambridge Crystallographic Data Centre (CCDC).
#
# This work is licensed under the Creative Commons
# Attribution-NonCommercial-ShareAlike 4.0 International License.
# To view a copy of this license, visit
# http://creativecommons.org/licenses/by-nc-sa/4.0/
# or send a letter to
# Creative Commons, PO Box 1866, Mountain View, CA 94042, USA.
#
# CIF created using the CSD Python API on 29 September 2022
# The structure has been converted into the P1 space group
# The structure has a 3D framework
# The original CSD entry NUCCEV is in the tetragonal crystal system
# The framework has been calculated to contain at least 10.0% void space
# The void calculation uses a probe of radius 1.32A, grid spacing 0.4
#
###############################################################################

data_NUCCEV
_chemical_formula_moiety         '(C192 H176 Cu15 N32 O32)n'
_symmetry_cell_setting           triclinic
_symmetry_space_group_name_H-M   'P 1'
_symmetry_Int_Tables_number      1
_space_group_name_Hall           'P 1'
loop_
_symmetry_equiv_pos_site_id
_symmetry_equiv_pos_as_xyz
1 x,y,z
_cell_length_a                   23.5927(4)
_cell_length_b                   23.5927(4)
_cell_length_c                   11.7356(3)
_cell_angle_alpha                90
_cell_angle_beta                 90
_cell_angle_gamma                90
_cell_volume                     6532.22
loop_
_atom_site_label
_atom_site_type_symbol
_atom_site_fract_x
_atom_site_fract_y
_atom_site_fract_z
N3 N 0.77699(10) 0.35522(10) 0.1339(2)
H12 H 0.8075 0.3559 0.1740
N4 N 0.73647(10) 0.31430(9) 0.14265(19)
C14 C 0.71174(12) 0.37870(12) 0.0104(2)
C18 C 0.69635(11) 0.32830(12) 0.0675(2)
C19 C 0.76381(12) 0.39424(12) 0.0558(2)
C22 C 0.80225(13) 0.44308(13) 0.0325(3)
H16 H 0.8409 0.4315 0.0434
H18 H 0.7935 0.4736 0.0837
C24 C 0.64277(13) 0.29496(13) 0.0551(3)
H20 H 0.6341 0.2766 0.1259
H21 H 0.6123 0.3200 0.0347
Cu3 Cu 0.7500 0.2500 0.2500
Cu2 Cu 1.0000 0.5000 1.0000
Cu2_2 Cu 1.0000 0.0000 1.0000
O1 O 0.94780(8) 0.04079(8) 0.90323(16)
N1 N 0.72301(10) 0.14478(10) 0.3661(2)
H1 H 0.6925 0.1441 0.3260
N2 N 0.76353(10) 0.18570(9) 0.35735(19)
C1 C 0.88055(13) 0.09547(12) 0.7462(2)
H2 H 0.8969 0.1164 0.8047
C2 C 0.78826(12) 0.12130(12) 0.4896(2)
C3 C 0.89024(12) 0.03725(13) 0.7394(2)
C4 C 0.84672(12) 0.12218(12) 0.6659(2)
H3 H 0.8405 0.1610 0.6712
C5 C 0.82190(11) 0.09147(12) 0.5773(2)
C6 C 0.80365(11) 0.17170(12) 0.4325(2)
C7 C 0.73619(12) 0.10576(12) 0.4442(2)
C8 C 0.83081(12) 0.03286(12) 0.5727(2)
H4 H 0.8138 0.0116 0.5154
C9 C 0.92944(11) 0.00933(12) 0.8238(2)
C10 C 0.69775(13) 0.05692(13) 0.4675(3)
H5 H 0.6591 0.0685 0.4566
H6 H 0.7029 0.0444 0.5447
H7 H 0.7065 0.0264 0.4163
C11 C 0.86469(12) 0.00619(12) 0.6530(2)
C12 C 0.85723(13) 0.20504(13) 0.4449(3)
H9 H 0.8659 0.2234 0.3741
H10 H 0.8877 0.1800 0.4653
H11 H 0.8525 0.2331 0.5035
O1_2 O 0.70921(8) 0.19780(8) 0.15323(16)
O2 O 0.79154(9) 0.19309(9) 0.0628(2)
H2_2 H 0.6336 0.1469 0.0547
C9_2 C 0.74067(12) 0.17944(11) 0.0738(2)
O3 O 0.79079(8) 0.30220(8) 0.34677(16)
N3_2 N 0.89478(10) 0.52699(10) 0.8839(2)
H12_2 H 0.8941 0.5575 0.9240
O4 O 0.70846(9) 0.30691(9) 0.4372(2)
N4_2 N 0.93570(9) 0.48647(10) 0.89265(19)
C13 C 0.84547(12) 0.36945(13) 0.5038(2)
H13 H 0.8664 0.3531 0.4453
C14_2 C 0.87130(12) 0.46174(12) 0.7604(2)
C15 C 0.78725(13) 0.35976(12) 0.5106(2)
C16 C 0.87218(12) 0.40328(12) 0.5841(2)
H14 H 0.9110 0.4095 0.5788
C17 C 0.84147(12) 0.42810(11) 0.6727(2)
C18_2 C 0.92170(12) 0.44635(11) 0.8175(2)
C19_2 C 0.85576(12) 0.51381(12) 0.8058(2)
C20 C 0.78286(12) 0.41919(12) 0.6773(2)
H15 H 0.7616 0.4362 0.7346
C21 C 0.75933(12) 0.32056(11) 0.4262(2)
C22_2 C 0.80692(13) 0.55225(13) 0.7825(3)
H16_2 H 0.8185 0.5909 0.7934
H17 H 0.7944 0.5471 0.7053
H18_2 H 0.7764 0.5435 0.8337
C23 C 0.75619(12) 0.38531(12) 0.5970(2)
H19 H 0.7172 0.3796 0.6011
C24_2 C 0.95504(13) 0.39277(13) 0.8051(3)
H20_2 H 0.9734 0.3841 0.8759
H21_2 H 0.9300 0.3623 0.7847
H22 H 0.9831 0.3975 0.7465
Cu1 Cu 0.5000 0.5000 0.5000
O1_3 O 0.44780(8) 0.54079(8) 0.40323(16)
O2_2 O 0.44309(9) 0.45846(9) 0.3128(2)
C1_2 C 0.38055(13) 0.59547(12) 0.2462(2)
H2_3 H 0.3969 0.6164 0.3047
C3_2 C 0.39024(12) 0.53725(13) 0.2394(2)
C4_2 C 0.34672(12) 0.62218(12) 0.1659(2)
H3_2 H 0.3405 0.6610 0.1712
C5_2 C 0.32190(11) 0.59147(12) 0.0773(2)
C8_2 C 0.33081(12) 0.53286(12) 0.0727(2)
H4_2 H 0.3138 0.5116 0.0154
C9_3 C 0.42944(11) 0.50933(12) 0.3238(2)
H6_2 H 0.2029 0.5444 0.0447
C11_2 C 0.36469(12) 0.50619(12) 0.1530(2)
H8 H 0.3704 0.4672 0.1489
H11_2 H 0.3525 0.7331 0.0035
O3_2 O 0.55220(8) 0.45921(8) 0.59677(16)
O4_2 O 0.55691(9) 0.54154(9) 0.6872(2)
C13_2 C 0.61945(13) 0.40453(12) 0.7538(2)
H13_2 H 0.6031 0.3836 0.6953
C15_2 C 0.60976(12) 0.46275(13) 0.7606(2)
C16_2 C 0.65328(12) 0.37782(12) 0.8341(2)
H14_2 H 0.6595 0.3390 0.8288
C17_2 C 0.67810(11) 0.40853(12) 0.9227(2)
C20_2 C 0.66919(12) 0.46714(12) 0.9273(2)
H15_2 H 0.6862 0.4884 0.9846
C21_2 C 0.57056(11) 0.49067(12) 0.6762(2)
H17_2 H 0.7971 0.4556 0.9553
C23_2 C 0.63531(12) 0.49381(12) 0.8470(2)
H19_2 H 0.6296 0.5328 0.8511
H22_2 H 0.6475 0.2669 0.9965
N5 N 0.43570(9) 0.48647(10) 0.60735(19)
N6 N 0.56430(9) 0.51353(10) 0.39265(19)
N3_3 N 0.60522(10) 0.47301(10) 0.3839(2)
H12_3 H 0.6059 0.4425 0.4240
C13_3 C 0.65453(12) 0.63055(13) 0.0038(2)
C14_3 C 0.62870(12) 0.53826(12) 0.2604(2)
C15_3 C 0.71275(13) 0.64024(12) 0.0106(2)
C16_3 C 0.62782(12) 0.59672(12) 0.0841(2)
H14_3 H 0.5890 0.5905 0.0788
C17_3 C 0.65853(12) 0.57190(11) 0.1727(2)
C18_3 C 0.57830(12) 0.55365(11) 0.3175(2)
C19_3 C 0.64424(12) 0.48619(12) 0.3058(2)
C20_3 C 0.71714(12) 0.58081(12) 0.1773(2)
H15_3 H 0.7384 0.5638 0.2346
C22_3 C 0.69308(13) 0.44775(13) 0.2825(3)
H16_3 H 0.6815 0.4091 0.2934
H17_3 H 0.7056 0.4529 0.2053
H18_3 H 0.7236 0.4565 0.3337
C23_3 C 0.74381(12) 0.61469(12) 0.0970(2)
H19_3 H 0.7828 0.6204 0.1011
C24_3 C 0.54496(13) 0.60723(13) 0.3051(3)
H20_3 H 0.5266 0.6159 0.3759
H21_3 H 0.5700 0.6377 0.2847
H22_3 H 0.5169 0.6025 0.2465
N1_2 N 0.39478(10) 0.52699(10) 0.6161(2)
H1_2 H 0.3941 0.5575 0.5760
C1_3 C 0.34547(12) 0.36945(13) 0.9962(2)
C2_2 C 0.37130(12) 0.46174(12) 0.7396(2)
C3_3 C 0.28725(13) 0.35976(12) 0.9894(2)
C4_3 C 0.37218(12) 0.40328(12) 0.9159(2)
H3_3 H 0.4110 0.4095 0.9212
C5_3 C 0.34147(12) 0.42810(11) 0.8273(2)
C6_2 C 0.42170(12) 0.44635(11) 0.6825(2)
C7_2 C 0.35576(12) 0.51381(12) 0.6942(2)
C8_3 C 0.28286(12) 0.41919(12) 0.8227(2)
H4_3 H 0.2616 0.4362 0.7654
C10_2 C 0.30692(13) 0.55225(13) 0.7175(3)
H5_2 H 0.3185 0.5909 0.7066
H6_3 H 0.2944 0.5471 0.7947
H7_2 H 0.2764 0.5435 0.6663
C11_3 C 0.25619(12) 0.38531(12) 0.9030(2)
H8_2 H 0.2172 0.3796 0.8989
C12_2 C 0.45504(13) 0.39277(13) 0.6949(3)
H9_2 H 0.4734 0.3841 0.6241
H10_2 H 0.4300 0.3623 0.7153
H11_3 H 0.4831 0.3975 0.7535
N1_3 N 0.22301(10) 0.64478(10) 0.8661(2)
H1_3 H 0.1925 0.6441 0.8260
N2_2 N 0.26353(10) 0.68570(9) 0.85735(19)
C2_3 C 0.28826(12) 0.62130(12) 0.9896(2)
C6_3 C 0.30365(11) 0.67170(12) 0.9325(2)
C7_3 C 0.23619(12) 0.60576(12) 0.9442(2)
C10_3 C 0.19775(13) 0.55692(13) 0.9675(3)
H5_3 H 0.1591 0.5685 0.9566
H7_3 H 0.2065 0.5264 0.9163
C12_3 C 0.35723(13) 0.70504(13) 0.9449(3)
H9_3 H 0.3659 0.7234 0.8741
H10_3 H 0.3877 0.6800 0.9653
Cu2_3 Cu 0.2500 0.7500 0.7500
O1_4 O 0.20921(8) 0.69780(8) 0.65323(16)
N1_4 N 0.10522(10) 0.47301(10) 0.1161(2)
H1_4 H 0.1059 0.4425 0.0760
O2_3 O 0.29154(9) 0.69309(9) 0.5628(2)
N2_3 N 0.06430(9) 0.51353(10) 0.10735(19)
C1_4 C 0.15453(12) 0.63055(13) 0.4962(2)
H2_4 H 0.1336 0.6469 0.5547
C2_4 C 0.12870(12) 0.53826(12) 0.2396(2)
C3_4 C 0.21275(13) 0.64024(12) 0.4894(2)
C4_4 C 0.12782(12) 0.59672(12) 0.4159(2)
H3_4 H 0.0890 0.5905 0.4212
C5_4 C 0.15853(12) 0.57190(11) 0.3273(2)
C6_4 C 0.07830(12) 0.55365(11) 0.1825(2)
C7_4 C 0.14424(12) 0.48619(12) 0.1942(2)
C8_4 C 0.21714(12) 0.58081(12) 0.3227(2)
H4_4 H 0.2384 0.5638 0.2654
C9_4 C 0.24067(12) 0.67944(11) 0.5738(2)
C10_4 C 0.19308(13) 0.44775(13) 0.2175(3)
H5_4 H 0.1815 0.4091 0.2066
H6_4 H 0.2056 0.4529 0.2947
H7_4 H 0.2236 0.4565 0.1663
C11_4 C 0.24381(12) 0.61469(12) 0.4030(2)
H8_3 H 0.2828 0.6204 0.3989
C12_4 C 0.04496(13) 0.60723(13) 0.1949(3)
H9_4 H 0.0266 0.6159 0.1241
H10_4 H 0.0700 0.6377 0.2153
H11_4 H 0.0169 0.6025 0.2535
O3_3 O 0.29079(8) 0.80220(8) 0.84677(16)
O4_3 O 0.20846(9) 0.80691(9) 0.9372(2)
H13_3 H 0.3664 0.8531 0.9453
C21_3 C 0.25933(12) 0.82056(11) 0.9262(2)
Cu2_4 Cu 0.0000 0.5000 0.0000
N6_2 N 0.23647(10) 0.81430(9) 0.64265(19)
Cu2_5 Cu -0.0000 1.0000 0.0000
O3_4 O 0.05220(8) 0.95921(8) 0.09677(16)
N3_4 N 0.27699(10) 0.85522(10) 0.6339(2)
H12_4 H 0.3075 0.8559 0.6740
C13_4 C 0.11945(13) 0.90453(12) 0.2538(2)
H13_4 H 0.1031 0.8836 0.1953
C14_4 C 0.21174(12) 0.87870(12) 0.5104(2)
C15_4 C 0.10976(12) 0.96275(13) 0.2606(2)
C16_4 C 0.15328(12) 0.87782(12) 0.3341(2)
H14_4 H 0.1595 0.8390 0.3288
C17_4 C 0.17810(11) 0.90853(12) 0.4227(2)
C18_4 C 0.19635(11) 0.82830(12) 0.5675(2)
C19_4 C 0.26381(12) 0.89424(12) 0.5558(2)
C20_4 C 0.16919(12) 0.96714(12) 0.4273(2)
H15_4 H 0.1862 0.9884 0.4846
C21_4 C 0.07056(11) 0.99067(12) 0.1762(2)
C22_4 C 0.30225(13) 0.94308(13) 0.5325(3)
H16_4 H 0.3409 0.9315 0.5434
H17_4 H 0.2971 0.9556 0.4553
H18_4 H 0.2935 0.9736 0.5837
C23_4 C 0.13531(12) 0.99381(12) 0.3470(2)
C24_4 C 0.14277(13) 0.79496(13) 0.5551(3)
H20_4 H 0.1341 0.7766 0.6259
H21_4 H 0.1123 0.8200 0.5347
H22_4 H 0.1475 0.7669 0.4965
N3_5 N 0.39478(10) 0.02699(10) 0.3839(2)
H12_5 H 0.3941 0.0575 0.4240
C19_5 C 0.35576(12) 0.01381(12) 0.3058(2)
C22_5 C 0.30692(13) 0.05225(13) 0.2825(3)
H16_5 H 0.3185 0.0909 0.2934
H17_5 H 0.2944 0.0471 0.2053
H18_5 H 0.2764 0.0435 0.3337
Cu3_2 Cu 0.5000 -0.0000 0.5000
O2_4 O 0.55691(9) 0.04154(9) 0.3128(2)
H8_4 H 0.6296 0.0328 0.1489
O3_5 O 0.44780(8) 0.04079(8) 0.59677(16)
C13_5 C 0.38055(13) 0.09547(12) 0.7538(2)
H13_5 H 0.3969 0.1164 0.6953
C15_5 C 0.39024(12) 0.03725(13) 0.7606(2)
C16_5 C 0.34672(12) 0.12218(12) 0.8341(2)
H14_5 H 0.3405 0.1610 0.8288
C17_5 C 0.32190(11) 0.09147(12) 0.9227(2)
C20_5 C 0.33081(12) 0.03286(12) 0.9273(2)
H15_5 H 0.3138 0.0116 0.9846
C21_5 C 0.42944(11) 0.00933(12) 0.6762(2)
H17_6 H 0.2029 0.0444 0.9553
C23_5 C 0.36469(12) 0.00619(12) 0.8470(2)
H22_5 H 0.3525 0.2331 0.9965
N5_2 N 0.56430(9) 0.01353(10) 0.60735(19)
C1_5 C 0.65453(12) 0.13055(13) 0.9962(2)
C2_5 C 0.62870(12) 0.03826(12) 0.7396(2)
C3_5 C 0.71275(13) 0.14024(12) 0.9894(2)
C4_5 C 0.62782(12) 0.09672(12) 0.9159(2)
H3_5 H 0.5890 0.0905 0.9212
C5_5 C 0.65853(12) 0.07190(11) 0.8273(2)
C6_5 C 0.57830(12) 0.05365(11) 0.6825(2)
C8_5 C 0.71714(12) 0.08081(12) 0.8227(2)
H4_5 H 0.7384 0.0638 0.7654
C11_5 C 0.74381(12) 0.11469(12) 0.9030(2)
H8_5 H 0.7828 0.1204 0.8989
C12_5 C 0.54496(13) 0.10723(13) 0.6949(3)
H9_5 H 0.5266 0.1159 0.6241
H10_5 H 0.5700 0.1377 0.7153
H11_5 H 0.5169 0.1025 0.7535
N4_3 N 0.43570(9) 0.98647(10) 0.39265(19)
C13_6 C 0.34547(12) 0.86945(13) 0.0038(2)
C14_5 C 0.37130(12) 0.96174(12) 0.2604(2)
C15_6 C 0.28725(13) 0.85976(12) 0.0106(2)
C16_6 C 0.37218(12) 0.90328(12) 0.0841(2)
H14_6 H 0.4110 0.9095 0.0788
C17_6 C 0.34147(12) 0.92810(11) 0.1727(2)
C18_5 C 0.42170(12) 0.94635(11) 0.3175(2)
C20_6 C 0.28286(12) 0.91919(12) 0.1773(2)
H15_6 H 0.2616 0.9362 0.2346
C23_6 C 0.25619(12) 0.88531(12) 0.0970(2)
H19_4 H 0.2172 0.8796 0.1011
C24_5 C 0.45504(13) 0.89277(13) 0.3051(3)
H20_5 H 0.4734 0.8841 0.3759
H21_5 H 0.4300 0.8623 0.2847
H22_6 H 0.4831 0.8975 0.2465
Cu3_3 Cu 0.5000 1.0000 0.5000
O1_5 O 0.55220(8) 0.95921(8) 0.40323(16)
C1_6 C 0.61945(13) 0.90453(12) 0.2462(2)
H2_5 H 0.6031 0.8836 0.3047
C3_6 C 0.60976(12) 0.96275(13) 0.2394(2)
C4_6 C 0.65328(12) 0.87782(12) 0.1659(2)
H3_6 H 0.6595 0.8390 0.1712
C5_6 C 0.67810(11) 0.90853(12) 0.0773(2)
C8_6 C 0.66919(12) 0.96714(12) 0.0727(2)
H4_6 H 0.6862 0.9884 0.0154
C9_5 C 0.57056(11) 0.99067(12) 0.3238(2)
H6_5 H 0.7971 0.9556 0.0447
C11_6 C 0.63531(12) 0.99381(12) 0.1530(2)
H11_6 H 0.6475 0.7669 0.0035
O4_4 O 0.44309(9) 0.95846(9) 0.6872(2)
H19_5 H 0.3704 0.9672 0.8511
N1_5 N 0.60522(10) 0.97301(10) 0.6161(2)
H1_5 H 0.6059 0.9425 0.5760
C7_5 C 0.64424(12) 0.98619(12) 0.6942(2)
C10_5 C 0.69308(13) 0.94775(13) 0.7175(3)
H5_5 H 0.6815 0.9091 0.7066
H6_6 H 0.7056 0.9529 0.7947
H7_5 H 0.7236 0.9565 0.6663
Cu2_6 Cu 0.0000 0.5000 1.0000
N3_6 N 0.22301(10) 0.14478(10) 0.1339(2)
H12_6 H 0.1925 0.1441 0.1740
N4_4 N 0.26353(10) 0.18570(9) 0.14265(19)
C14_6 C 0.28826(12) 0.12130(12) 0.0104(2)
C18_6 C 0.30365(11) 0.17170(12) 0.0675(2)
C19_6 C 0.23619(12) 0.10576(12) 0.0558(2)
C22_6 C 0.19775(13) 0.05692(13) 0.0325(3)
H16_6 H 0.1591 0.0685 0.0434
H18_6 H 0.2065 0.0264 0.0837
C24_6 C 0.35723(13) 0.20504(13) 0.0551(3)
H20_6 H 0.3659 0.2234 0.1259
H21_6 H 0.3877 0.1800 0.0347
Cu3_4 Cu 0.2500 0.2500 0.2500
Cu2_7 Cu -0.0000 0.0000 1.0000
N6_3 N 0.06430(9) 0.01353(10) 0.89265(19)
O1_6 O 0.05220(8) 0.45921(8) 0.90323(16)
N1_6 N 0.27699(10) 0.35522(10) 0.3661(2)
H1_6 H 0.3075 0.3559 0.3260
O2_5 O 0.05691(9) 0.54154(9) 0.8128(2)
N2_4 N 0.23647(10) 0.31430(9) 0.35735(19)
C1_7 C 0.11945(13) 0.40453(12) 0.7462(2)
H2_6 H 0.1031 0.3836 0.8047
C2_6 C 0.21174(12) 0.37870(12) 0.4896(2)
C3_7 C 0.10976(12) 0.46275(13) 0.7394(2)
C4_7 C 0.15328(12) 0.37782(12) 0.6659(2)
H3_7 H 0.1595 0.3390 0.6712
C5_7 C 0.17810(11) 0.40853(12) 0.5773(2)
C6_6 C 0.19635(11) 0.32830(12) 0.4325(2)
C7_6 C 0.26381(12) 0.39424(12) 0.4442(2)
C8_7 C 0.16919(12) 0.46714(12) 0.5727(2)
H4_7 H 0.1862 0.4884 0.5154
C9_6 C 0.07056(11) 0.49067(12) 0.8238(2)
C10_6 C 0.30225(13) 0.44308(13) 0.4675(3)
H5_6 H 0.3409 0.4315 0.4566
H6_7 H 0.2971 0.4556 0.5447
H7_6 H 0.2935 0.4736 0.4163
C11_7 C 0.13531(12) 0.49381(12) 0.6530(2)
H8_6 H 0.1296 0.5328 0.6489
C12_6 C 0.14277(13) 0.29496(13) 0.4449(3)
H9_6 H 0.1341 0.2766 0.3741
H10_6 H 0.1123 0.3200 0.4653
H11_7 H 0.1475 0.2669 0.5035
O1_7 O 0.29079(8) 0.30220(8) 0.15323(16)
O2_6 O 0.20846(9) 0.30691(9) 0.0628(2)
H2_7 H 0.3664 0.3531 0.0547
C9_7 C 0.25933(12) 0.32056(11) 0.0738(2)
O3_6 O 0.20921(8) 0.19780(8) 0.34677(16)
O4_5 O 0.29154(9) 0.19309(9) 0.4372(2)
C13_7 C 0.15453(12) 0.13055(13) 0.5038(2)
H13_6 H 0.1336 0.1469 0.4453
C14_7 C 0.12870(12) 0.03826(12) 0.7604(2)
C15_7 C 0.21275(13) 0.14024(12) 0.5106(2)
C16_7 C 0.12782(12) 0.09672(12) 0.5841(2)
H14_7 H 0.0890 0.0905 0.5788
C17_7 C 0.15853(12) 0.07190(11) 0.6727(2)
C18_7 C 0.07830(12) 0.05365(11) 0.8175(2)
C20_7 C 0.21714(12) 0.08081(12) 0.6773(2)
H15_7 H 0.2384 0.0638 0.7346
C21_6 C 0.24067(12) 0.17944(11) 0.4262(2)
C23_7 C 0.24381(12) 0.11469(12) 0.5970(2)
H19_6 H 0.2828 0.1204 0.6011
C24_7 C 0.04496(13) 0.10723(13) 0.8051(3)
H20_7 H 0.0266 0.1159 0.8759
H21_7 H 0.0700 0.1377 0.7847
H22_7 H 0.0169 0.1025 0.7465
Cu2_8 Cu 1.0000 0.5000 0.0000
N1_7 N 0.77699(10) 0.85522(10) 0.8661(2)
H1_7 H 0.8075 0.8559 0.8260
N2_5 N 0.73647(10) 0.81430(9) 0.85735(19)
C2_7 C 0.71174(12) 0.87870(12) 0.9896(2)
C6_7 C 0.69635(11) 0.82830(12) 0.9325(2)
C7_7 C 0.76381(12) 0.89424(12) 0.9442(2)
C10_7 C 0.80225(13) 0.94308(13) 0.9675(3)
H5_7 H 0.8409 0.9315 0.9566
H7_7 H 0.7935 0.9736 0.9163
C12_7 C 0.64277(13) 0.79496(13) 0.9449(3)
H9_7 H 0.6341 0.7766 0.8741
H10_7 H 0.6123 0.8200 0.9653
Cu2_9 Cu 0.7500 0.7500 0.7500
O1_8 O 0.79079(8) 0.80220(8) 0.65323(16)
O2_7 O 0.70846(9) 0.80691(9) 0.5628(2)
N2_6 N 0.93570(9) 0.98647(10) 0.10735(19)
C1_8 C 0.84547(12) 0.86945(13) 0.4962(2)
H2_8 H 0.8664 0.8531 0.5547
C2_8 C 0.87130(12) 0.96174(12) 0.2396(2)
C3_8 C 0.78725(13) 0.85976(12) 0.4894(2)
C4_8 C 0.87218(12) 0.90328(12) 0.4159(2)
H3_8 H 0.9110 0.9095 0.4212
C5_8 C 0.84147(12) 0.92810(11) 0.3273(2)
C6_8 C 0.92170(12) 0.94635(11) 0.1825(2)
C8_8 C 0.78286(12) 0.91919(12) 0.3227(2)
H4_8 H 0.7616 0.9362 0.2654
C9_8 C 0.75933(12) 0.82056(11) 0.5738(2)
C11_8 C 0.75619(12) 0.88531(12) 0.4030(2)
H8_7 H 0.7172 0.8796 0.3989
C12_8 C 0.95504(13) 0.89277(13) 0.1949(3)
H9_8 H 0.9734 0.8841 0.1241
H10_8 H 0.9300 0.8623 0.2153
H11_8 H 0.9831 0.8975 0.2535
O3_7 O 0.70921(8) 0.69780(8) 0.84677(16)
O4_6 O 0.79154(9) 0.69309(9) 0.9372(2)
H13_7 H 0.6336 0.6469 0.9453
C21_7 C 0.74067(12) 0.67944(11) 0.9262(2)
Cu2_10 Cu 1.0000 1.0000 0.0000
N6_4 N 0.76353(10) 0.68570(9) 0.64265(19)
O3_8 O 0.94780(8) 0.54079(8) 0.09677(16)
N3_7 N 0.72301(10) 0.64478(10) 0.6339(2)
H12_7 H 0.6925 0.6441 0.6740
O4_7 O 0.94309(9) 0.45846(9) 0.1872(2)
C13_8 C 0.88055(13) 0.59547(12) 0.2538(2)
H13_8 H 0.8969 0.6164 0.1953
C14_8 C 0.78826(12) 0.62130(12) 0.5104(2)
C15_8 C 0.89024(12) 0.53725(13) 0.2606(2)
C16_8 C 0.84672(12) 0.62218(12) 0.3341(2)
H14_8 H 0.8405 0.6610 0.3288
C17_8 C 0.82190(11) 0.59147(12) 0.4227(2)
C18_8 C 0.80365(11) 0.67170(12) 0.5675(2)
C19_7 C 0.73619(12) 0.60576(12) 0.5558(2)
C20_8 C 0.83081(12) 0.53286(12) 0.4273(2)
H15_8 H 0.8138 0.5116 0.4846
C21_8 C 0.92944(11) 0.50933(12) 0.1762(2)
C22_7 C 0.69775(13) 0.55692(13) 0.5325(3)
H16_7 H 0.6591 0.5685 0.5434
H17_7 H 0.7029 0.5444 0.4553
H18_7 H 0.7065 0.5264 0.5837
C23_8 C 0.86469(12) 0.50619(12) 0.3470(2)
H19_7 H 0.8704 0.4672 0.3511
C24_8 C 0.85723(13) 0.70504(13) 0.5551(3)
H20_8 H 0.8659 0.7234 0.6259
H21_8 H 0.8877 0.6800 0.5347
H22_8 H 0.8525 0.7331 0.4965
Cu2_11 Cu -0.0000 0.0000 0.0000
O4_8 O 0.05691(9) 0.04154(9) 0.1872(2)
H19_8 H 0.1296 0.0328 0.3511
Cu2_12 Cu -0.0000 1.0000 1.0000
N3_8 N 0.10522(10) 0.97301(10) 0.8839(2)
H12_8 H 0.1059 0.9425 0.9240
C19_8 C 0.14424(12) 0.98619(12) 0.8058(2)
C22_8 C 0.19308(13) 0.94775(13) 0.7825(3)
H16_8 H 0.1815 0.9091 0.7934
H17_8 H 0.2056 0.9529 0.7053
H18_8 H 0.2236 0.9565 0.8337
N1_8 N 0.89478(10) 0.02699(10) 0.1161(2)
H1_8 H 0.8941 0.0575 0.0760
C7_8 C 0.85576(12) 0.01381(12) 0.1942(2)
C10_8 C 0.80692(13) 0.05225(13) 0.2175(3)
H5_8 H 0.8185 0.0909 0.2066
H6_8 H 0.7944 0.0471 0.2947
H7_8 H 0.7764 0.0435 0.1663
Cu2_13 Cu 1.0000 0.0000 0.0000
Cu2_14 Cu 1.0000 1.0000 1.0000
O2_8 O 0.94309(9) 0.95846(9) 0.8128(2)
H8_8 H 0.8704 0.9672 0.6489
loop_
_geom_bond_atom_site_label_1
_geom_bond_atom_site_label_2
_geom_bond_site_symmetry_1
_geom_bond_site_symmetry_2
N3 H12 1_555 1_555
N4 N3 1_555 1_555
C18 N4 1_555 1_555
C19 N3 1_555 1_555
C22 C19 1_555 1_555
H16 C22 1_555 1_555
H18 C22 1_555 1_555
C24 C18 1_555 1_555
H20 C24 1_555 1_555
H21 C24 1_555 1_555
Cu3 N4 1_555 1_555
C14 C18 1_555 1_555
C14 C19 1_555 1_555
Cu2_2 O1 1_555 1_555
O1 C9 1_555 1_555
N1 H1 1_555 1_555
N2 N1 1_555 1_555
C1 H2 1_555 1_555
C2 C5 1_555 1_555
C3 C1 1_555 1_555
C4 C1 1_555 1_555
H3 C4 1_555 1_555
C5 C4 1_555 1_555
C6 N2 1_555 1_555
C7 N1 1_555 1_555
C8 C5 1_555 1_555
H4 C8 1_555 1_555
C9 C3 1_555 1_555
C10 C7 1_555 1_555
H5 C10 1_555 1_555
H6 C10 1_555 1_555
H7 C10 1_555 1_555
C11 C3 1_555 1_555
C12 C6 1_555 1_555
H9 C12 1_555 1_555
H10 C12 1_555 1_555
H11 C12 1_555 1_555
Cu3 N2 1_555 1_555
C2 C6 1_555 1_555
C2 C7 1_555 1_555
C8 C11 1_555 1_555
Cu3 O1_2 1_555 1_555
O1_2 C9_2 1_555 1_555
O2 C9_2 1_555 1_555
O3 Cu3 1_555 1_555
N3_2 H12_2 1_555 1_555
O4 C21 1_555 1_555
N4_2 N3_2 1_555 1_555
C13 H13 1_555 1_555
C14_2 C17 1_555 1_555
C15 C13 1_555 1_555
C16 C13 1_555 1_555
H14 C16 1_555 1_555
C17 C16 1_555 1_555
C18_2 N4_2 1_555 1_555
C19_2 N3_2 1_555 1_555
C20 C17 1_555 1_555
H15 C20 1_555 1_555
C21 O3 1_555 1_555
C22_2 C19_2 1_555 1_555
H16_2 C22_2 1_555 1_555
H17 C22_2 1_555 1_555
H18_2 C22_2 1_555 1_555
C23 C15 1_555 1_555
H19 C23 1_555 1_555
C24_2 C18_2 1_555 1_555
H20_2 C24_2 1_555 1_555
H21_2 C24_2 1_555 1_555
H22 C24_2 1_555 1_555
Cu2 N4_2 1_555 1_555
C14_2 C18_2 1_555 1_555
C14_2 C19_2 1_555 1_555
C15 C21 1_555 1_555
C20 C23 1_555 1_555
Cu1 O1_3 1_555 1_555
O1_3 C9_3 1_555 1_555
O2_2 C9_3 1_555 1_555
C1_2 H2_3 1_555 1_555
C3_2 C1_2 1_555 1_555
C4_2 C1_2 1_555 1_555
H3_2 C4_2 1_555 1_555
C5_2 C4_2 1_555 1_555
C8_2 C5_2 1_555 1_555
H4_2 C8_2 1_555 1_555
C9_3 C3_2 1_555 1_555
C11_2 C3_2 1_555 1_555
H8 C11_2 1_555 1_555
O3_2 Cu1 1_555 1_555
O4_2 C21_2 1_555 1_555
C13_2 H13_2 1_555 1_555
C15_2 C13_2 1_555 1_555
C16_2 C13_2 1_555 1_555
H14_2 C16_2 1_555 1_555
C17_2 C16_2 1_555 1_555
C20_2 C17_2 1_555 1_555
H15_2 C20_2 1_555 1_555
C21_2 O3_2 1_555 1_555
C23_2 C15_2 1_555 1_555
H19_2 C23_2 1_555 1_555
N5 Cu1 1_555 1_555
N6 Cu1 1_555 1_555
C8_2 C11_2 1_555 1_555
C15_2 C21_2 1_555 1_555
C20_2 C23_2 1_555 1_555
N3_3 H12_3 1_555 1_555
N6 N3_3 1_555 1_555
C14_3 C17_3 1_555 1_555
C15_3 C13_3 1_555 1_555
C16_3 C13_3 1_555 1_555
H14_3 C16_3 1_555 1_555
C17_3 C16_3 1_555 1_555
C18_3 N6 1_555 1_555
C19_3 N3_3 1_555 1_555
C20_3 C17_3 1_555 1_555
H15_3 C20_3 1_555 1_555
C22_3 C19_3 1_555 1_555
H16_3 C22_3 1_555 1_555
H17_3 C22_3 1_555 1_555
H18_3 C22_3 1_555 1_555
C23_3 C15_3 1_555 1_555
H19_3 C23_3 1_555 1_555
C24_3 C18_3 1_555 1_555
H20_3 C24_3 1_555 1_555
H21_3 C24_3 1_555 1_555
H22_3 C24_3 1_555 1_555
C14_3 C18_3 1_555 1_555
C14_3 C19_3 1_555 1_555
C20_3 C23_3 1_555 1_555
N1_2 H1_2 1_555 1_555
N5 N1_2 1_555 1_555
C2_2 C5_3 1_555 1_555
C3_3 C1_3 1_555 1_555
C4_3 C1_3 1_555 1_555
H3_3 C4_3 1_555 1_555
C5_3 C4_3 1_555 1_555
C6_2 N5 1_555 1_555
C7_2 N1_2 1_555 1_555
C8_3 C5_3 1_555 1_555
H4_3 C8_3 1_555 1_555
C10_2 C7_2 1_555 1_555
H5_2 C10_2 1_555 1_555
H6_3 C10_2 1_555 1_555
H7_2 C10_2 1_555 1_555
C11_3 C3_3 1_555 1_555
H8_2 C11_3 1_555 1_555
C12_2 C6_2 1_555 1_555
H9_2 C12_2 1_555 1_555
H10_2 C12_2 1_555 1_555
H11_3 C12_2 1_555 1_555
C2_2 C6_2 1_555 1_555
C2_2 C7_2 1_555 1_555
C8_3 C11_3 1_555 1_555
N1_3 H1_3 1_555 1_555
N2_2 N1_3 1_555 1_555
C6_3 N2_2 1_555 1_555
C7_3 N1_3 1_555 1_555
C10_3 C7_3 1_555 1_555
H5_3 C10_3 1_555 1_555
H7_3 C10_3 1_555 1_555
C12_3 C6_3 1_555 1_555
H9_3 C12_3 1_555 1_555
H10_3 C12_3 1_555 1_555
Cu2_3 N2_2 1_555 1_555
C2_3 C6_3 1_555 1_555
C2_3 C7_3 1_555 1_555
Cu2_3 O1_4 1_555 1_555
O1_4 C9_4 1_555 1_555
N1_4 H1_4 1_555 1_555
O2_3 C9_4 1_555 1_555
N2_3 N1_4 1_555 1_555
C1_4 H2_4 1_555 1_555
C2_4 C5_4 1_555 1_555
C3_4 C1_4 1_555 1_555
C4_4 C1_4 1_555 1_555
H3_4 C4_4 1_555 1_555
C5_4 C4_4 1_555 1_555
C6_4 N2_3 1_555 1_555
C7_4 N1_4 1_555 1_555
C8_4 C5_4 1_555 1_555
H4_4 C8_4 1_555 1_555
C9_4 C3_4 1_555 1_555
C10_4 C7_4 1_555 1_555
H5_4 C10_4 1_555 1_555
H6_4 C10_4 1_555 1_555
H7_4 C10_4 1_555 1_555
C11_4 C3_4 1_555 1_555
H8_3 C11_4 1_555 1_555
C12_4 C6_4 1_555 1_555
H9_4 C12_4 1_555 1_555
H10_4 C12_4 1_555 1_555
H11_4 C12_4 1_555 1_555
O3_3 Cu2_3 1_555 1_555
O4_3 C21_3 1_555 1_555
C21_3 O3_3 1_555 1_555
Cu2_4 N2_3 1_555 1_555
N6_2 Cu2_3 1_555 1_555
C2_4 C6_4 1_555 1_555
C2_4 C7_4 1_555 1_555
C8_4 C11_4 1_555 1_555
O3_4 Cu2_5 1_555 1_555
N3_4 H12_4 1_555 1_555
N6_2 N3_4 1_555 1_555
C13_4 H13_4 1_555 1_555
C14_4 C17_4 1_555 1_555
C15_4 C13_4 1_555 1_555
C16_4 C13_4 1_555 1_555
H14_4 C16_4 1_555 1_555
C17_4 C16_4 1_555 1_555
C18_4 N6_2 1_555 1_555
C19_4 N3_4 1_555 1_555
C20_4 C17_4 1_555 1_555
H15_4 C20_4 1_555 1_555
C21_4 O3_4 1_555 1_555
C22_4 C19_4 1_555 1_555
H16_4 C22_4 1_555 1_555
H17_4 C22_4 1_555 1_555
H18_4 C22_4 1_555 1_555
C23_4 C15_4 1_555 1_555
C24_4 C18_4 1_555 1_555
H20_4 C24_4 1_555 1_555
H21_4 C24_4 1_555 1_555
H22_4 C24_4 1_555 1_555
C14_4 C18_4 1_555 1_555
C14_4 C19_4 1_555 1_555
C15_4 C21_4 1_555 1_555
C20_4 C23_4 1_555 1_555
N3_5 H12_5 1_555 1_555
C19_5 N3_5 1_555 1_555
C22_5 C19_5 1_555 1_555
H16_5 C22_5 1_555 1_555
H17_5 C22_5 1_555 1_555
H18_5 C22_5 1_555 1_555
O3_5 Cu3_2 1_555 1_555
C13_5 H13_5 1_555 1_555
C15_5 C13_5 1_555 1_555
C16_5 C13_5 1_555 1_555
H14_5 C16_5 1_555 1_555
C17_5 C16_5 1_555 1_555
C20_5 C17_5 1_555 1_555
H15_5 C20_5 1_555 1_555
C21_5 O3_5 1_555 1_555
C23_5 C15_5 1_555 1_555
N5_2 Cu3_2 1_555 1_555
C15_5 C21_5 1_555 1_555
C20_5 C23_5 1_555 1_555
C2_5 C5_5 1_555 1_555
C3_5 C1_5 1_555 1_555
C4_5 C1_5 1_555 1_555
H3_5 C4_5 1_555 1_555
C5_5 C4_5 1_555 1_555
C6_5 N5_2 1_555 1_555
C8_5 C5_5 1_555 1_555
H4_5 C8_5 1_555 1_555
C11_5 C3_5 1_555 1_555
H8_5 C11_5 1_555 1_555
C12_5 C6_5 1_555 1_555
H9_5 C12_5 1_555 1_555
H10_5 C12_5 1_555 1_555
H11_5 C12_5 1_555 1_555
C2_5 C6_5 1_555 1_555
C8_5 C11_5 1_555 1_555
C14_5 C17_6 1_555 1_555
C15_6 C13_6 1_555 1_555
C16_6 C13_6 1_555 1_555
H14_6 C16_6 1_555 1_555
C17_6 C16_6 1_555 1_555
C18_5 N4_3 1_555 1_555
C20_6 C17_6 1_555 1_555
H15_6 C20_6 1_555 1_555
C23_6 C15_6 1_555 1_555
H19_4 C23_6 1_555 1_555
C24_5 C18_5 1_555 1_555
H20_5 C24_5 1_555 1_555
H21_5 C24_5 1_555 1_555
H22_6 C24_5 1_555 1_555
Cu3_3 N4_3 1_555 1_555
C14_5 C18_5 1_555 1_555
C20_6 C23_6 1_555 1_555
Cu3_3 O1_5 1_555 1_555
O1_5 C9_5 1_555 1_555
C1_6 H2_5 1_555 1_555
C3_6 C1_6 1_555 1_555
C4_6 C1_6 1_555 1_555
H3_6 C4_6 1_555 1_555
C5_6 C4_6 1_555 1_555
C8_6 C5_6 1_555 1_555
H4_6 C8_6 1_555 1_555
C9_5 C3_6 1_555 1_555
C11_6 C3_6 1_555 1_555
C8_6 C11_6 1_555 1_555
N1_5 H1_5 1_555 1_555
C7_5 N1_5 1_555 1_555
C10_5 C7_5 1_555 1_555
H5_5 C10_5 1_555 1_555
H6_6 C10_5 1_555 1_555
H7_5 C10_5 1_555 1_555
N3_6 H12_6 1_555 1_555
N4_4 N3_6 1_555 1_555
C18_6 N4_4 1_555 1_555
C19_6 N3_6 1_555 1_555
C22_6 C19_6 1_555 1_555
H16_6 C22_6 1_555 1_555
H18_6 C22_6 1_555 1_555
C24_6 C18_6 1_555 1_555
H20_6 C24_6 1_555 1_555
H21_6 C24_6 1_555 1_555
Cu3_4 N4_4 1_555 1_555
C14_6 C18_6 1_555 1_555
C14_6 C19_6 1_555 1_555
N6_3 Cu2_7 1_555 1_555
Cu2_6 O1_6 1_555 1_555
O1_6 C9_6 1_555 1_555
N1_6 H1_6 1_555 1_555
O2_5 C9_6 1_555 1_555
N2_4 N1_6 1_555 1_555
C1_7 H2_6 1_555 1_555
C2_6 C5_7 1_555 1_555
C3_7 C1_7 1_555 1_555
C4_7 C1_7 1_555 1_555
H3_7 C4_7 1_555 1_555
C5_7 C4_7 1_555 1_555
C6_6 N2_4 1_555 1_555
C7_6 N1_6 1_555 1_555
C8_7 C5_7 1_555 1_555
H4_7 C8_7 1_555 1_555
C9_6 C3_7 1_555 1_555
C10_6 C7_6 1_555 1_555
H5_6 C10_6 1_555 1_555
H6_7 C10_6 1_555 1_555
H7_6 C10_6 1_555 1_555
C11_7 C3_7 1_555 1_555
H8_6 C11_7 1_555 1_555
C12_6 C6_6 1_555 1_555
H9_6 C12_6 1_555 1_555
H10_6 C12_6 1_555 1_555
H11_7 C12_6 1_555 1_555
Cu3_4 N2_4 1_555 1_555
C2_6 C6_6 1_555 1_555
C2_6 C7_6 1_555 1_555
C8_7 C11_7 1_555 1_555
Cu3_4 O1_7 1_555 1_555
O1_7 C9_7 1_555 1_555
O2_6 C9_7 1_555 1_555
O3_6 Cu3_4 1_555 1_555
O4_5 C21_6 1_555 1_555
C13_7 H13_6 1_555 1_555
C14_7 C17_7 1_555 1_555
C15_7 C13_7 1_555 1_555
C16_7 C13_7 1_555 1_555
H14_7 C16_7 1_555 1_555
C17_7 C16_7 1_555 1_555
C18_7 N6_3 1_555 1_555
C20_7 C17_7 1_555 1_555
H15_7 C20_7 1_555 1_555
C21_6 O3_6 1_555 1_555
C23_7 C15_7 1_555 1_555
H19_6 C23_7 1_555 1_555
C24_7 C18_7 1_555 1_555
H20_7 C24_7 1_555 1_555
H21_7 C24_7 1_555 1_555
H22_7 C24_7 1_555 1_555
C14_7 C18_7 1_555 1_555
C15_7 C21_6 1_555 1_555
C20_7 C23_7 1_555 1_555
N1_7 H1_7 1_555 1_555
N2_5 N1_7 1_555 1_555
C6_7 N2_5 1_555 1_555
C7_7 N1_7 1_555 1_555
C10_7 C7_7 1_555 1_555
H5_7 C10_7 1_555 1_555
H7_7 C10_7 1_555 1_555
C12_7 C6_7 1_555 1_555
H9_7 C12_7 1_555 1_555
H10_7 C12_7 1_555 1_555
Cu2_9 N2_5 1_555 1_555
C2_7 C6_7 1_555 1_555
C2_7 C7_7 1_555 1_555
Cu2_9 O1_8 1_555 1_555
O1_8 C9_8 1_555 1_555
O2_7 C9_8 1_555 1_555
C1_8 H2_8 1_555 1_555
C2_8 C5_8 1_555 1_555
C3_8 C1_8 1_555 1_555
C4_8 C1_8 1_555 1_555
H3_8 C4_8 1_555 1_555
C5_8 C4_8 1_555 1_555
C6_8 N2_6 1_555 1_555
C8_8 C5_8 1_555 1_555
H4_8 C8_8 1_555 1_555
C9_8 C3_8 1_555 1_555
C11_8 C3_8 1_555 1_555
H8_7 C11_8 1_555 1_555
C12_8 C6_8 1_555 1_555
H9_8 C12_8 1_555 1_555
H10_8 C12_8 1_555 1_555
H11_8 C12_8 1_555 1_555
O3_7 Cu2_9 1_555 1_555
O4_6 C21_7 1_555 1_555
C21_7 O3_7 1_555 1_555
Cu2_10 N2_6 1_555 1_555
N6_4 Cu2_9 1_555 1_555
C2_8 C6_8 1_555 1_555
C8_8 C11_8 1_555 1_555
O3_8 Cu2_8 1_555 1_555
N3_7 H12_7 1_555 1_555
O4_7 C21_8 1_555 1_555
N6_4 N3_7 1_555 1_555
C13_8 H13_8 1_555 1_555
C14_8 C17_8 1_555 1_555
C15_8 C13_8 1_555 1_555
C16_8 C13_8 1_555 1_555
H14_8 C16_8 1_555 1_555
C17_8 C16_8 1_555 1_555
C18_8 N6_4 1_555 1_555
C19_7 N3_7 1_555 1_555
C20_8 C17_8 1_555 1_555
H15_8 C20_8 1_555 1_555
C21_8 O3_8 1_555 1_555
C22_7 C19_7 1_555 1_555
H16_7 C22_7 1_555 1_555
H17_7 C22_7 1_555 1_555
H18_7 C22_7 1_555 1_555
C23_8 C15_8 1_555 1_555
H19_7 C23_8 1_555 1_555
C24_8 C18_8 1_555 1_555
H20_8 C24_8 1_555 1_555
H21_8 C24_8 1_555 1_555
H22_8 C24_8 1_555 1_555
C14_8 C18_8 1_555 1_555
C14_8 C19_7 1_555 1_555
C15_8 C21_8 1_555 1_555
C20_8 C23_8 1_555 1_555
N3_8 H12_8 1_555 1_555
C19_8 N3_8 1_555 1_555
C22_8 C19_8 1_555 1_555
H16_8 C22_8 1_555 1_555
H17_8 C22_8 1_555 1_555
H18_8 C22_8 1_555 1_555
N1_8 H1_8 1_555 1_555
C7_8 N1_8 1_555 1_555
C10_8 C7_8 1_555 1_555
H5_8 C10_8 1_555 1_555
H6_8 C10_8 1_555 1_555
H7_8 C10_8 1_555 1_555

#END
