
###############################################################################
#
# This file contains modified crystal structure data generated from the
# MOF subset of the Cambridge Structural Database (CSD) v543 
# hosted by the Cambridge Crystallographic Data Centre (CCDC).
#
# This work is licensed under the Creative Commons
# Attribution-NonCommercial-ShareAlike 4.0 International License.
# To view a copy of this license, visit
# http://creativecommons.org/licenses/by-nc-sa/4.0/
# or send a letter to
# Creative Commons, PO Box 1866, Mountain View, CA 94042, USA.
#
# CIF created using the CSD Python API on 29 September 2022
# The structure has been converted into the P1 space group
# The structure has a 3D framework
# The original CSD entry NUCPEI is in the monoclinic crystal system
# The framework has been calculated to contain at least 10.0% void space
# The void calculation uses a probe of radius 1.32A, grid spacing 0.4
# The framework is charged, counterions have been retained in the structure
#
###############################################################################

data_NUCPEI
_chemical_formula_moiety         '(C200 H152 N8 O86 Zn14)n'
_symmetry_cell_setting           triclinic
_symmetry_space_group_name_H-M   'P 1'
_symmetry_Int_Tables_number      1
_space_group_name_Hall           'P 1'
loop_
_symmetry_equiv_pos_site_id
_symmetry_equiv_pos_as_xyz
1 x,y,z
_cell_length_a                   14.123(4)
_cell_length_b                   33.380(9)
_cell_length_c                   16.833(3)
_cell_angle_alpha                90
_cell_angle_beta                 111.943(16)
_cell_angle_gamma                90
_cell_volume                     7360.63
loop_
_atom_site_label
_atom_site_type_symbol
_atom_site_fract_x
_atom_site_fract_y
_atom_site_fract_z
C24 C 0.1125(4) 0.01794(16) 0.2503(4)
O11 O 0.0645(3) 0.03688(12) 0.2872(3)
O12 O 0.1950(3) 0.02894(14) 0.2458(3)
Zn6 Zn 0.30948(5) 0.058010(18) 0.32205(4)
Zn8 Zn 0.09486(5) 0.087376(18) 0.35075(4)
Zn4 Zn 0.00422(5) 0.71182(2) 0.58505(5)
C25 C 0.0693(4) 0.97908(15) 0.2091(3)
C26 C 0.1282(4) 0.95369(16) 0.1803(3)
H10 H 0.1942 0.9611 0.1869
C27 C 0.0895(4) 0.91810(15) 0.1426(4)
C31 C 0.1524(4) 0.88989(16) 0.1114(4)
O13 O 0.2411(3) 0.90242(11) 0.1217(3)
O14 O 0.1162(3) 0.85787(13) 0.0807(3)
H20 H 0.0131 0.7880 0.5558
Zn11 Zn 0.33236(5) 0.864942(18) 0.09789(4)
O23 O 0.1338(3) 0.70836(15) 0.5389(3)
O24 O 0.1522(3) 0.72641(15) 0.6680(3)
O25 O 0.0394(3) 0.89096(12) 0.6902(3)
O31 O 0.0291(5) 0.65369(18) 0.6557(4)
C45 C 0.4503(5) 0.0109(2) 0.2848(4)
O17 O 0.3949(5) 0.0134(3) 0.2096(4)
O18 O 0.4344(3) 0.02835(14) 0.3447(3)
Zn14 Zn 0.50422(5) 0.78818(2) 0.08505(5)
Zn1 Zn 0.69052(5) 0.941990(18) 0.67795(4)
Zn2 Zn 0.90514(5) 0.912624(18) 0.64925(4)
Zn3 Zn 0.83236(5) 0.635058(18) 0.59789(4)
C1 C 0.1894(4) 0.72205(19) 0.6118(5)
C2 C 0.2971(4) 0.73364(17) 0.6284(4)
C3 C 0.3495(4) 0.71109(18) 0.5912(4)
H1 H 0.3179 0.6889 0.5585
C4 C 0.4485(4) 0.72030(19) 0.6009(4)
H2 H 0.4827 0.7048 0.5742
C5 C 0.4963(4) 0.75262(17) 0.6503(4)
C6 C 0.4436(4) 0.77458(16) 0.6910(4)
H3 H 0.4767 0.7956 0.7270
C7 C 0.3438(4) 0.76605(16) 0.6794(4)
C8 C 0.2918(4) 0.79280(16) 0.7218(4)
C9 C 0.2008(4) 0.81203(16) 0.6743(4)
H4 H 0.1700 0.8069 0.6159
C10 C 0.3358(4) 0.80053(16) 0.8081(4)
H5 H 0.3968 0.7880 0.8407
C11 C 0.2909(4) 0.82644(16) 0.8469(4)
C12 C 0.3358(4) 0.83251(18) 0.9423(4)
C13 C 0.2013(4) 0.84586(17) 0.7990(4)
H6 H 0.1717 0.8638 0.8252
C14 C 0.1555(4) 0.83851(16) 0.7118(4)
C15 C 0.0564(4) 0.85786(17) 0.6603(4)
C16 C 0.6003(4) 0.76487(16) 0.6585(4)
C17 C 0.6258(4) 0.80511(16) 0.6666(4)
H7 H 0.5785 0.8238 0.6696
C18 C 0.7206(4) 0.81800(17) 0.6703(4)
C19 C 0.7930(4) 0.79007(16) 0.6695(4)
H8 H 0.8578 0.7982 0.6742
C20 C 0.7669(4) 0.74964(16) 0.6617(4)
C21 C 0.6721(4) 0.73778(17) 0.6559(4)
H9 H 0.6557 0.7107 0.6501
C22 C 0.7453(4) 0.86153(17) 0.6764(4)
C23 C 0.8433(4) 0.71911(17) 0.6556(4)
C28 C 0.9909(4) 0.90700(16) 0.1339(4)
H11 H 0.9651 0.8824 0.1092
C29 C 0.9311(4) 0.93182(16) 0.1611(4)
C30 C 0.9727(4) 0.96804(16) 0.1999(4)
H12 H 0.9340 0.9849 0.2197
C32 C 0.8257(4) 0.92066(16) 0.1521(4)
C33 C 0.7631(4) 0.89705(17) 0.0840(4)
H13 H 0.7864 0.8889 0.0416
C34 C 0.6681(5) 0.88584(19) 0.0794(4)
H14 H 0.6291 0.8687 0.0359
C35 C 0.6289(4) 0.89984(18) 0.1392(4)
C36 C 0.6871(4) 0.92460(16) 0.2056(4)
C37 C 0.7861(4) 0.93384(16) 0.2117(4)
H15 H 0.8271 0.9494 0.2574
C38 C 0.5280(5) 0.8825(2) 0.1358(4)
C39 C 0.6532(4) 0.94112(16) 0.2726(4)
C40 C 0.7094(4) 0.93469(16) 0.3583(4)
H16 H 0.7679 0.9189 0.3742
C41 C 0.6801(4) 0.95131(16) 0.4211(3)
C42 C 0.5961(4) 0.97640(16) 0.3970(4)
H17 H 0.5775 0.9886 0.4387
C43 C 0.5395(4) 0.98349(17) 0.3115(4)
C44 C 0.5686(4) 0.96573(17) 0.2507(4)
H18 H 0.5303 0.9704 0.1931
C46 C 0.7389(5) 0.94231(17) 0.5134(4)
O5 O 0.2858(3) 0.85259(15) 0.9755(3)
O6 O 0.4210(4) 0.81733(16) 0.9819(3)
O7 O 0.6745(3) 0.88515(13) 0.6699(4)
O8 O 0.8336(3) 0.87144(12) 0.6887(3)
O9 O 0.9213(3) 0.73197(13) 0.6489(4)
O10 O 0.8204(3) 0.68327(12) 0.6586(3)
O15 O 0.5291(5) 0.84631(18) 0.1557(4)
O16 O 0.4509(4) 0.90205(19) 0.1114(4)
O19 O 0.7041(4) 0.95534(16) 0.5659(3)
O20 O 0.8195(3) 0.92345(15) 0.5314(3)
O21 O 0.9705(4) 0.76754(14) 0.5200(3)
H19 H 0.9830 0.7657 0.4678
O22 O 0.6888(13) 0.9176(4) 0.8069(9)
H21 H 0.6275 0.9266 0.8134
H22 H 0.6897 0.8889 0.8059
O26 O 0.7858(3) 0.64741(15) 0.4755(3)
O27 O 0.9210(4) 0.68267(16) 0.4819(3)
O28 O 0.9355(3) 0.96312(12) 0.7128(3)
O29 O 0.8050(3) 0.97106(14) 0.7542(3)
O30 O 0.7411(3) 0.59758(11) 0.6217(3)
O32 O 0.9509(4) 0.59795(19) 0.6114(4)
O33 O 0.5656(3) 0.97165(14) 0.6553(3)
O3 O 0.9975(3) 0.84232(14) 0.5958(3)
C45_2 C 0.0497(5) 0.5109(2) 0.2152(4)
O16_2 O 0.0491(4) 0.40205(19) 0.3886(4)
O17_2 O 0.1051(5) 0.5134(3) 0.2904(4)
O18_2 O 0.0656(3) 0.52835(14) 0.1553(3)
Zn5 Zn 0.19052(5) 0.558010(18) 0.17795(4)
Zn9 Zn 0.16764(5) 0.364942(18) 0.40211(4)
C1_2 C 0.3106(4) 0.22205(19) 0.8882(5)
C2_2 C 0.2029(4) 0.23364(17) 0.8716(4)
C3_2 C 0.1505(4) 0.21109(18) 0.9088(4)
H1_2 H 0.1821 0.1889 0.9415
C4_2 C 0.0515(4) 0.22030(19) 0.8991(4)
H2_2 H 0.0173 0.2048 0.9258
C5_2 C 0.0037(4) 0.25262(17) 0.8497(4)
C6_2 C 0.0564(4) 0.27458(16) 0.8090(4)
H3_2 H 0.0233 0.2956 0.7730
C7_2 C 0.1562(4) 0.26605(16) 0.8206(4)
C8_2 C 0.2082(4) 0.29280(16) 0.7782(4)
C9_2 C 0.2992(4) 0.31203(16) 0.8257(4)
H4_2 H 0.3300 0.3069 0.8841
C10_2 C 0.1642(4) 0.30053(16) 0.6919(4)
H5_2 H 0.1032 0.2880 0.6593
C11_2 C 0.2091(4) 0.32644(16) 0.6531(4)
C12_2 C 0.1642(4) 0.33251(18) 0.5577(4)
C13_2 C 0.2987(4) 0.34586(17) 0.7010(4)
H6_2 H 0.3283 0.3638 0.6748
C14_2 C 0.3445(4) 0.33851(16) 0.7882(4)
C15_2 C 0.4436(4) 0.35786(17) 0.8397(4)
O1 O 0.3662(3) 0.20836(15) 0.9611(3)
O2 O 0.3478(3) 0.22641(15) 0.8320(3)
O3_2 O 0.5025(3) 0.34232(14) 0.9042(3)
O4 O 0.4606(3) 0.39096(12) 0.8098(3)
O5_2 O 0.2142(3) 0.35259(15) 0.5245(3)
O6_2 O 0.0790(4) 0.31733(16) 0.5181(3)
Zn7 Zn 0.59486(5) 0.412624(18) 0.85075(4)
Zn12 Zn 0.49578(5) 0.21182(2) 0.91495(5)
C24_2 C 0.3875(4) 0.51794(16) 0.2497(4)
C25_2 C 0.4307(4) 0.47908(15) 0.2909(3)
C26_2 C 0.3718(4) 0.45369(16) 0.3197(3)
H10_2 H 0.3058 0.4611 0.3131
C27_2 C 0.4105(4) 0.41810(15) 0.3574(4)
C28_2 C 0.5091(4) 0.40700(16) 0.3661(4)
H11_2 H 0.5349 0.3824 0.3908
C29_2 C 0.5689(4) 0.43182(16) 0.3389(4)
C30_2 C 0.5273(4) 0.46804(16) 0.3001(4)
H12_2 H 0.5660 0.4849 0.2803
C31_2 C 0.3476(4) 0.38989(16) 0.3886(4)
C32_2 C 0.6743(4) 0.42066(16) 0.3479(4)
C33_2 C 0.7369(4) 0.39705(17) 0.4160(4)
H13_2 H 0.7136 0.3889 0.4584
C34_2 C 0.8319(5) 0.38584(19) 0.4206(4)
H14_2 H 0.8709 0.3687 0.4641
C35_2 C 0.8711(4) 0.39984(18) 0.3608(4)
C36_2 C 0.8129(4) 0.42460(16) 0.2944(4)
C37_2 C 0.7139(4) 0.43384(16) 0.2883(4)
H15_2 H 0.6729 0.4494 0.2426
C38_2 C 0.9720(5) 0.3825(2) 0.3642(4)
C39_2 C 0.8468(4) 0.44112(16) 0.2274(4)
C40_2 C 0.7906(4) 0.43469(16) 0.1417(4)
H16_2 H 0.7321 0.4189 0.1258
C41_2 C 0.8199(4) 0.45131(16) 0.0789(3)
C42_2 C 0.9039(4) 0.47640(16) 0.1030(4)
H17_2 H 0.9225 0.4886 0.0613
C43_2 C 0.9605(4) 0.48349(17) 0.1885(4)
C44_2 C 0.9314(4) 0.46573(17) 0.2493(4)
H18_2 H 0.9697 0.4704 0.3069
O11_2 O 0.4355(3) 0.53688(12) 0.2128(3)
O12_2 O 0.3050(3) 0.52894(14) 0.2542(3)
O13_2 O 0.2589(3) 0.40242(11) 0.3783(3)
O14_2 O 0.3838(3) 0.35787(13) 0.4193(3)
O15_2 O 0.9709(5) 0.34631(18) 0.3443(4)
H19_2 H 0.5170 0.2657 0.0322
Zn8_2 Zn 0.40514(5) 0.587376(18) 0.14925(4)
Zn13 Zn 0.99578(5) 0.28818(2) 0.41495(5)
O26_2 O 0.7142(3) 0.14741(15) 0.0245(3)
O27_2 O 0.5790(4) 0.18267(16) 0.0181(3)
Zn1_2 Zn 0.80948(5) 0.441990(18) 0.82205(4)
Zn3_2 Zn 0.66764(5) 0.135058(18) 0.90211(4)
C16_2 C 0.8997(4) 0.26487(16) 0.8415(4)
C17_2 C 0.8742(4) 0.30511(16) 0.8334(4)
H7_2 H 0.9215 0.3238 0.8304
C18_2 C 0.7794(4) 0.31800(17) 0.8297(4)
C19_2 C 0.7070(4) 0.29007(16) 0.8305(4)
H8_2 H 0.6422 0.2982 0.8258
C20_2 C 0.7331(4) 0.24964(16) 0.8383(4)
C21_2 C 0.8279(4) 0.23778(17) 0.8441(4)
H9_2 H 0.8443 0.2107 0.8499
C22_2 C 0.7547(4) 0.36153(17) 0.8236(4)
C23_2 C 0.6567(4) 0.21911(17) 0.8444(4)
C46_2 C 0.7611(5) 0.44231(17) 0.9866(4)
O7_2 O 0.8255(3) 0.38515(13) 0.8301(4)
O8_2 O 0.6664(3) 0.37144(12) 0.8113(3)
O9_2 O 0.5787(3) 0.23197(13) 0.8511(4)
O10_2 O 0.6796(3) 0.18327(12) 0.8414(3)
O19_2 O 0.7959(4) 0.45534(16) 0.9341(3)
O20_2 O 0.6805(3) 0.42345(15) 0.9686(3)
O21_2 O 0.5295(4) 0.26754(14) 0.9800(3)
H20_2 H 0.4869 0.2880 0.9442
O22_2 O 0.8112(13) 0.4176(4) 0.6931(9)
H21_2 H 0.8725 0.4266 0.6866
H22_2 H 0.8103 0.3889 0.6941
O28_2 O 0.5645(3) 0.46312(12) 0.7872(3)
O29_2 O 0.6950(3) 0.47106(14) 0.7458(3)
O30_2 O 0.7589(3) 0.09758(11) 0.8783(3)
O31_2 O 0.4709(5) 0.15369(18) 0.8443(4)
O32_2 O 0.5491(4) 0.09795(19) 0.8886(4)
O33_2 O 0.9344(3) 0.47165(14) 0.8447(3)
O3_3 O 0.0025(3) 0.15768(14) 0.4042(3)
C1_3 C 0.8106(4) 0.27795(19) 0.3882(5)
C2_3 C 0.7029(4) 0.26636(17) 0.3716(4)
C3_3 C 0.6505(4) 0.28891(18) 0.4088(4)
H1_3 H 0.6821 0.3111 0.4415
C4_3 C 0.5515(4) 0.27970(19) 0.3991(4)
H2_3 H 0.5173 0.2952 0.4258
C5_3 C 0.5037(4) 0.24738(17) 0.3497(4)
C6_3 C 0.5564(4) 0.22542(16) 0.3090(4)
H3_3 H 0.5233 0.2044 0.2730
C7_3 C 0.6562(4) 0.23395(16) 0.3206(4)
C8_3 C 0.7082(4) 0.20720(16) 0.2782(4)
C9_3 C 0.7992(4) 0.18797(16) 0.3257(4)
H4_3 H 0.8300 0.1931 0.3841
C10_3 C 0.6642(4) 0.19947(16) 0.1919(4)
H5_3 H 0.6032 0.2120 0.1593
C11_3 C 0.7091(4) 0.17356(16) 0.1531(4)
C12_3 C 0.6642(4) 0.16749(18) 0.0577(4)
C13_3 C 0.7987(4) 0.15414(17) 0.2010(4)
H6_3 H 0.8283 0.1362 0.1748
C14_3 C 0.8445(4) 0.16149(16) 0.2882(4)
C15_3 C 0.9436(4) 0.14214(17) 0.3397(4)
C16_3 C 0.3997(4) 0.23513(16) 0.3415(4)
C17_3 C 0.3742(4) 0.19489(16) 0.3334(4)
H7_3 H 0.4215 0.1762 0.3304
C18_3 C 0.2794(4) 0.18200(17) 0.3297(4)
C19_3 C 0.2070(4) 0.20993(16) 0.3305(4)
H8_3 H 0.1422 0.2018 0.3258
C20_3 C 0.2331(4) 0.25036(16) 0.3383(4)
C21_3 C 0.3279(4) 0.26222(17) 0.3441(4)
H9_3 H 0.3443 0.2893 0.3499
C22_3 C 0.2547(4) 0.13847(17) 0.3236(4)
C23_3 C 0.1567(4) 0.28089(17) 0.3444(4)
C28_3 C 0.0091(4) 0.09300(16) 0.8661(4)
H11_3 H 0.0349 0.1176 0.8908
C29_3 C 0.0689(4) 0.06818(16) 0.8389(4)
C30_3 C 0.0273(4) 0.03196(16) 0.8001(4)
H12_3 H 0.0660 0.0151 0.7803
C32_3 C 0.1743(4) 0.07934(16) 0.8479(4)
C33_3 C 0.2369(4) 0.10295(17) 0.9160(4)
H13_3 H 0.2136 0.1111 0.9584
C34_3 C 0.3319(5) 0.11416(19) 0.9206(4)
H14_3 H 0.3709 0.1313 0.9641
C35_3 C 0.3711(4) 0.10016(18) 0.8608(4)
C36_3 C 0.3129(4) 0.07540(16) 0.7944(4)
C37_3 C 0.2139(4) 0.06616(16) 0.7883(4)
H15_3 H 0.1729 0.0506 0.7426
C38_3 C 0.4720(5) 0.1175(2) 0.8642(4)
C39_3 C 0.3468(4) 0.05888(16) 0.7274(4)
C40_3 C 0.2906(4) 0.06531(16) 0.6417(4)
H16_3 H 0.2321 0.0811 0.6258
C41_3 C 0.3199(4) 0.04869(16) 0.5789(3)
C42_3 C 0.4039(4) 0.02360(16) 0.6030(4)
H17_3 H 0.4225 0.0114 0.5613
C43_3 C 0.4605(4) 0.01651(17) 0.6885(4)
C44_3 C 0.4314(4) 0.03427(17) 0.7493(4)
H18_3 H 0.4697 0.0296 0.8069
C46_3 C 0.2611(5) 0.05769(17) 0.4866(4)
O1_2 O 0.8662(3) 0.29164(15) 0.4611(3)
O2_2 O 0.8478(3) 0.27359(15) 0.3320(3)
O4_2 O 0.9606(3) 0.10904(12) 0.3098(3)
O7_3 O 0.3255(3) 0.11485(13) 0.3301(4)
O8_3 O 0.1664(3) 0.12856(12) 0.3113(3)
O9_3 O 0.0787(3) 0.26803(13) 0.3511(4)
O10_3 O 0.1796(3) 0.31673(12) 0.3414(3)
O19_3 O 0.2959(4) 0.04466(16) 0.4341(3)
O20_3 O 0.1805(3) 0.07655(15) 0.4686(3)
O21_3 O 0.0295(4) 0.23246(14) 0.4800(3)
H19_3 H 0.0170 0.2343 0.5322
O22_3 O 0.3112(13) 0.0824(4) 0.1931(9)
H21_3 H 0.3725 0.0734 0.1866
H22_3 H 0.3103 0.1111 0.1941
C45_3 C 0.5497(5) 0.9891(2) 0.7152(4)
O17_3 O 0.6051(5) 0.9866(3) 0.7904(4)
C25_3 C 0.9307(4) 0.02092(15) 0.7909(3)
C26_3 C 0.8718(4) 0.04631(16) 0.8197(3)
H10_3 H 0.8058 0.0389 0.8131
C27_3 C 0.9105(4) 0.08190(15) 0.8574(4)
C31_3 C 0.8476(4) 0.11011(16) 0.8886(4)
O14_3 O 0.8838(3) 0.14213(13) 0.9193(3)
H20_3 H 0.9869 0.2120 0.4442
C24_3 C 0.8875(4) 0.98206(16) 0.7497(4)
C16_4 C 0.1003(4) 0.73513(16) 0.1585(4)
C17_4 C 0.1258(4) 0.69489(16) 0.1666(4)
H7_4 H 0.0785 0.6762 0.1696
C18_4 C 0.2206(4) 0.68200(17) 0.1703(4)
C19_4 C 0.2930(4) 0.70993(16) 0.1695(4)
H8_4 H 0.3578 0.7018 0.1742
C20_4 C 0.2669(4) 0.75036(16) 0.1617(4)
C21_4 C 0.1721(4) 0.76222(17) 0.1559(4)
H9_4 H 0.1557 0.7893 0.1501
C22_4 C 0.2453(4) 0.63847(17) 0.1764(4)
C23_4 C 0.3433(4) 0.78089(17) 0.1556(4)
C46_4 C 0.2389(5) 0.55769(17) 0.0134(4)
O7_4 O 0.1745(3) 0.61485(13) 0.1699(4)
O8_4 O 0.3336(3) 0.62856(12) 0.1887(3)
O9_4 O 0.4213(3) 0.76803(13) 0.1489(4)
O10_4 O 0.3204(3) 0.81673(12) 0.1586(3)
O19_4 O 0.2041(4) 0.54466(16) 0.0659(3)
O20_4 O 0.3195(3) 0.57655(15) 0.0314(3)
O21_4 O 0.4705(4) 0.73246(14) 0.0200(3)
H20_4 H 0.5131 0.7120 0.0558
O22_4 O 0.1888(13) 0.5824(4) 0.3069(9)
H21_4 H 0.1275 0.5734 0.3134
H22_4 H 0.1897 0.6111 0.3059
O23_2 O 0.6338(3) 0.79164(15) 0.0389(3)
O24_2 O 0.6522(3) 0.77359(15) 0.1680(3)
O25_2 O 0.5394(3) 0.60904(12) 0.1902(3)
C24_4 C 0.6125(4) 0.48206(16) 0.7503(4)
C25_4 C 0.5693(4) 0.52092(15) 0.7091(3)
C26_4 C 0.6282(4) 0.54631(16) 0.6803(3)
H10_4 H 0.6942 0.5389 0.6869
C27_4 C 0.5895(4) 0.58190(15) 0.6426(4)
C28_4 C 0.4909(4) 0.59300(16) 0.6339(4)
H11_4 H 0.4651 0.6176 0.6092
C29_4 C 0.4311(4) 0.56818(16) 0.6611(4)
C30_4 C 0.4727(4) 0.53196(16) 0.6999(4)
H12_4 H 0.4340 0.5151 0.7197
C31_4 C 0.6524(4) 0.61011(16) 0.6114(4)
C32_4 C 0.3257(4) 0.57934(16) 0.6521(4)
C33_4 C 0.2631(4) 0.60295(17) 0.5840(4)
H13_4 H 0.2864 0.6111 0.5416
C34_4 C 0.1681(5) 0.61416(19) 0.5794(4)
H14_4 H 0.1291 0.6313 0.5359
C35_4 C 0.1289(4) 0.60016(18) 0.6392(4)
C36_4 C 0.1871(4) 0.57540(16) 0.7056(4)
C37_4 C 0.2861(4) 0.56616(16) 0.7117(4)
H15_4 H 0.3271 0.5506 0.7574
C38_4 C 0.0280(5) 0.6175(2) 0.6358(4)
C39_4 C 0.1532(4) 0.55888(16) 0.7726(4)
C40_4 C 0.2094(4) 0.56531(16) 0.8583(4)
H16_4 H 0.2679 0.5811 0.8742
C41_4 C 0.1801(4) 0.54869(16) 0.9211(3)
C42_4 C 0.0961(4) 0.52360(16) 0.8970(4)
H17_4 H 0.0775 0.5114 0.9387
C43_4 C 0.0395(4) 0.51651(17) 0.8115(4)
C44_4 C 0.0686(4) 0.53427(17) 0.7507(4)
H18_4 H 0.0303 0.5296 0.6931
O14_4 O 0.6162(3) 0.64213(13) 0.5807(3)
H19_4 H 0.4830 0.7343 0.9678
C1_4 C 0.6894(4) 0.77795(19) 0.1118(5)
C2_4 C 0.7971(4) 0.76636(17) 0.1284(4)
C3_4 C 0.8495(4) 0.78891(18) 0.0912(4)
H1_4 H 0.8179 0.8111 0.0585
C4_4 C 0.9485(4) 0.77970(19) 0.1009(4)
H2_4 H 0.9827 0.7952 0.0742
C5_4 C 0.9963(4) 0.74738(17) 0.1503(4)
C6_4 C 0.9436(4) 0.72542(16) 0.1910(4)
H3_4 H 0.9767 0.7044 0.2270
C7_4 C 0.8438(4) 0.73395(16) 0.1794(4)
C8_4 C 0.7918(4) 0.70720(16) 0.2218(4)
C9_4 C 0.7008(4) 0.68797(16) 0.1743(4)
H4_4 H 0.6700 0.6931 0.1159
C10_4 C 0.8358(4) 0.69947(16) 0.3081(4)
H5_4 H 0.8968 0.7120 0.3407
C11_4 C 0.7909(4) 0.67356(16) 0.3469(4)
C12_4 C 0.8358(4) 0.66749(18) 0.4423(4)
C13_4 C 0.7013(4) 0.65414(17) 0.2990(4)
H6_4 H 0.6717 0.6362 0.3252
C14_4 C 0.6555(4) 0.66149(16) 0.2118(4)
C15_4 C 0.5564(4) 0.64214(17) 0.1603(4)
O3_4 O 0.4975(3) 0.65768(14) 0.0958(3)
C45_4 C 0.9503(5) 0.4891(2) 0.7848(4)
O17_4 O 0.8949(5) 0.4866(3) 0.7096(4)
C47 C 0.3832(19) 0.0038(9) 0.0262(17)
H25 H 0.3653 0.0310 0.0321
C48 C 0.211(2) 0.0009(10) 0.0410(19)
H30 H 0.2119 0.0285 0.0254
H26 H 0.3933 0.0008 0.9731
N1 N 0.2891(18) 0.9784(7) 0.0208(15)
H24 H 0.3103 0.9576 0.0573
H27 H 0.4451 0.9970 0.0730
H28 H 0.2138 0.9992 0.0988
H29 H 0.1490 0.9886 0.0031
H23 H 0.2603 0.9683 0.9675
N1_2 N 0.2109(18) 0.4784(7) 0.4792(15)
H23_2 H 0.2397 0.4683 0.5325
H24_2 H 0.1897 0.4576 0.4427
C47_2 C 0.1168(19) 0.5038(9) 0.4738(17)
H25_2 H 0.1347 0.5310 0.4679
H26_2 H 0.1067 0.5008 0.5269
H27_2 H 0.0549 0.4970 0.4270
C48_2 C 0.289(2) 0.5009(10) 0.4590(19)
H28_2 H 0.2862 0.4992 0.4012
H29_2 H 0.3510 0.4886 0.4969
H30_2 H 0.2881 0.5285 0.4746
H23_3 H 0.7397 0.0317 0.0325
N1_3 N 0.7109(18) 0.0216(7) 0.9792(15)
H24_3 H 0.6897 0.0424 0.9427
H27_3 H 0.5549 0.0030 0.9270
H28_3 H 0.7862 0.0008 0.9012
H29_3 H 0.8510 0.0114 0.9969
H26_3 H 0.6067 0.9992 0.0269
C47_3 C 0.6168(19) 0.9962(9) 0.9738(17)
H25_3 H 0.6347 0.9690 0.9679
C48_3 C 0.789(2) 0.9991(10) 0.9590(19)
H30_3 H 0.7881 0.9715 0.9746
N1_4 N 0.7891(18) 0.5216(7) 0.5208(15)
H23_4 H 0.7603 0.5317 0.4675
H24_4 H 0.8103 0.5424 0.5573
C47_4 C 0.8832(19) 0.4962(9) 0.5262(17)
H25_4 H 0.8653 0.4690 0.5321
H26_4 H 0.8933 0.4992 0.4731
H27_4 H 0.9451 0.5030 0.5730
C48_4 C 0.711(2) 0.4991(10) 0.5410(19)
H28_4 H 0.7138 0.5008 0.5988
H29_4 H 0.6490 0.5114 0.5031
H30_4 H 0.7119 0.4715 0.5254
N2 N 0.1761(11) 0.6936(4) 0.8368(9)
H31 H 0.1452 0.6989 0.7805
H32 H 0.1362 0.6762 0.8508
C49 C 0.2784(14) 0.6728(6) 0.8510(14)
H33 H 0.3227 0.6914 0.8386
H34 H 0.2685 0.6497 0.8146
H35 H 0.3087 0.6646 0.9099
C50 C 0.1810(19) 0.7323(6) 0.8859(16)
H36 H 0.1981 0.7269 0.9456
H37 H 0.1136 0.7435 0.8620
H38 H 0.2291 0.7510 0.8791
N2_2 N 0.3239(11) 0.1936(4) 0.6632(9)
H31_2 H 0.3548 0.1989 0.7195
H32_2 H 0.3638 0.1762 0.6492
C49_2 C 0.2216(14) 0.1728(6) 0.6490(14)
H33_2 H 0.1773 0.1914 0.6614
H34_2 H 0.2315 0.1497 0.6854
H35_2 H 0.1913 0.1646 0.5901
C50_2 C 0.3190(19) 0.2323(6) 0.6141(16)
H36_2 H 0.3019 0.2269 0.5544
H37_2 H 0.3864 0.2435 0.6380
H38_2 H 0.2709 0.2510 0.6209
N2_3 N 0.8239(11) 0.3064(4) 0.1632(9)
H31_3 H 0.8548 0.3011 0.2195
H32_3 H 0.8638 0.3238 0.1492
C49_3 C 0.7216(14) 0.3272(6) 0.1490(14)
H33_3 H 0.6773 0.3086 0.1614
H34_3 H 0.7315 0.3503 0.1854
H35_3 H 0.6913 0.3354 0.0901
C50_3 C 0.8190(19) 0.2677(6) 0.1141(16)
H36_3 H 0.8019 0.2731 0.0544
H37_3 H 0.8864 0.2565 0.1380
H38_3 H 0.7709 0.2490 0.1209
N2_4 N 0.6761(11) 0.8064(4) 0.3368(9)
H31_4 H 0.6452 0.8011 0.2805
H32_4 H 0.6362 0.8238 0.3508
C49_4 C 0.7784(14) 0.8272(6) 0.3510(14)
H33_4 H 0.8227 0.8086 0.3386
H34_4 H 0.7685 0.8503 0.3146
H35_4 H 0.8087 0.8354 0.4099
C50_4 C 0.6810(19) 0.7677(6) 0.3859(16)
H36_4 H 0.6981 0.7731 0.4456
H37_4 H 0.6136 0.7565 0.3620
H38_4 H 0.7291 0.7490 0.3791
loop_
_geom_bond_atom_site_label_1
_geom_bond_atom_site_label_2
_geom_bond_site_symmetry_1
_geom_bond_site_symmetry_2
O11 C24 1_555 1_555
O12 C24 1_555 1_555
Zn6 O12 1_555 1_555
Zn8 O11 1_555 1_555
C25 C26 1_555 1_555
C26 H10 1_555 1_555
C27 C26 1_555 1_555
C31 C27 1_555 1_555
O13 C31 1_555 1_555
O14 C31 1_555 1_555
Zn11 O13 1_555 1_555
O23 Zn4 1_555 1_555
O24 Zn4 1_555 1_555
O31 Zn4 1_555 1_555
O17 C45 1_555 1_555
O18 C45 1_555 1_555
Zn6 O18 1_555 1_555
Zn1 O7 1_555 1_555
Zn2 O8 1_555 1_555
Zn3 O10 1_555 1_555
C1 C2 1_555 1_555
C2 C3 1_555 1_555
C3 H1 1_555 1_555
C4 C3 1_555 1_555
H2 C4 1_555 1_555
C5 C4 1_555 1_555
C6 C5 1_555 1_555
H3 C6 1_555 1_555
C7 C2 1_555 1_555
C8 C7 1_555 1_555
C9 C8 1_555 1_555
H4 C9 1_555 1_555
C10 C8 1_555 1_555
H5 C10 1_555 1_555
C11 C10 1_555 1_555
C12 C11 1_555 1_555
C13 C11 1_555 1_555
H6 C13 1_555 1_555
C14 C9 1_555 1_555
C15 C14 1_555 1_555
C16 C5 1_555 1_555
C17 C16 1_555 1_555
H7 C17 1_555 1_555
C18 C17 1_555 1_555
C19 C18 1_555 1_555
H8 C19 1_555 1_555
C20 C19 1_555 1_555
C21 C16 1_555 1_555
H9 C21 1_555 1_555
C22 C18 1_555 1_555
C23 C20 1_555 1_555
H11 C28 1_555 1_555
C29 C28 1_555 1_555
H12 C30 1_555 1_555
C32 C29 1_555 1_555
C33 C32 1_555 1_555
H13 C33 1_555 1_555
C34 C33 1_555 1_555
H14 C34 1_555 1_555
C35 C34 1_555 1_555
C36 C35 1_555 1_555
C37 C32 1_555 1_555
H15 C37 1_555 1_555
C38 C35 1_555 1_555
C39 C36 1_555 1_555
C40 C39 1_555 1_555
H16 C40 1_555 1_555
C41 C40 1_555 1_555
C42 C41 1_555 1_555
H17 C42 1_555 1_555
C43 C42 1_555 1_555
C44 C39 1_555 1_555
H18 C44 1_555 1_555
C46 C41 1_555 1_555
O23 C1 1_555 1_555
O24 C1 1_555 1_555
O25 C15 1_555 1_555
O5 C12 1_555 1_555
O6 C12 1_555 1_555
O7 C22 1_555 1_555
O8 C22 1_555 1_555
O9 C23 1_555 1_555
O10 C23 1_555 1_555
O15 C38 1_555 1_555
O16 C38 1_555 1_555
O19 Zn1 1_555 1_555
O20 Zn2 1_555 1_555
H19 O21 1_555 1_555
O22 Zn1 1_555 1_555
H21 O22 1_555 1_555
H22 O22 1_555 1_555
Zn11 O16 1_555 1_555
Zn14 O15 1_555 1_555
O26 Zn3 1_555 1_555
O28 Zn2 1_555 1_555
O29 Zn1 1_555 1_555
O30 Zn3 1_555 1_555
O32 Zn3 1_555 1_555
O33 Zn1 1_555 1_555
C6 C7 1_555 1_555
C13 C14 1_555 1_555
C20 C21 1_555 1_555
C29 C30 1_555 1_555
C36 C37 1_555 1_555
C43 C44 1_555 1_555
C46 O19 1_555 1_555
C46 O20 1_555 1_555
O17_2 C45_2 1_555 1_555
O18_2 C45_2 1_555 1_555
Zn5 O18_2 1_555 1_555
Zn9 O16_2 1_555 1_555
C1_2 C2_2 1_555 1_555
C2_2 C3_2 1_555 1_555
C3_2 H1_2 1_555 1_555
C4_2 C3_2 1_555 1_555
H2_2 C4_2 1_555 1_555
C5_2 C4_2 1_555 1_555
C6_2 C5_2 1_555 1_555
H3_2 C6_2 1_555 1_555
C7_2 C2_2 1_555 1_555
C8_2 C7_2 1_555 1_555
C9_2 C8_2 1_555 1_555
H4_2 C9_2 1_555 1_555
C10_2 C8_2 1_555 1_555
H5_2 C10_2 1_555 1_555
C11_2 C10_2 1_555 1_555
C12_2 C11_2 1_555 1_555
C13_2 C11_2 1_555 1_555
H6_2 C13_2 1_555 1_555
C14_2 C9_2 1_555 1_555
C15_2 C14_2 1_555 1_555
O1 C1_2 1_555 1_555
O2 C1_2 1_555 1_555
O3_2 C15_2 1_555 1_555
O4 C15_2 1_555 1_555
O5_2 C12_2 1_555 1_555
O6_2 C12_2 1_555 1_555
Zn7 O4 1_555 1_555
Zn9 O5_2 1_555 1_555
Zn12 O1 1_555 1_555
C6_2 C7_2 1_555 1_555
C13_2 C14_2 1_555 1_555
O2 Zn12 1_555 1_555
C24_2 C25_2 1_555 1_555
C25_2 C26_2 1_555 1_555
C26_2 H10_2 1_555 1_555
C27_2 C26_2 1_555 1_555
C28_2 C27_2 1_555 1_555
H11_2 C28_2 1_555 1_555
C29_2 C28_2 1_555 1_555
C30_2 C25_2 1_555 1_555
H12_2 C30_2 1_555 1_555
C31_2 C27_2 1_555 1_555
C32_2 C29_2 1_555 1_555
C33_2 C32_2 1_555 1_555
H13_2 C33_2 1_555 1_555
C34_2 C33_2 1_555 1_555
H14_2 C34_2 1_555 1_555
C35_2 C34_2 1_555 1_555
C36_2 C35_2 1_555 1_555
C37_2 C32_2 1_555 1_555
H15_2 C37_2 1_555 1_555
C38_2 C35_2 1_555 1_555
C39_2 C36_2 1_555 1_555
C40_2 C39_2 1_555 1_555
H16_2 C40_2 1_555 1_555
C41_2 C40_2 1_555 1_555
C42_2 C41_2 1_555 1_555
H17_2 C42_2 1_555 1_555
C43_2 C42_2 1_555 1_555
C44_2 C39_2 1_555 1_555
H18_2 C44_2 1_555 1_555
O11_2 C24_2 1_555 1_555
O12_2 C24_2 1_555 1_555
O13_2 C31_2 1_555 1_555
O14_2 C31_2 1_555 1_555
O15_2 C38_2 1_555 1_555
Zn5 O12_2 1_555 1_555
Zn8_2 O11_2 1_555 1_555
Zn9 O13_2 1_555 1_555
Zn13 O15_2 1_555 1_555
C29_2 C30_2 1_555 1_555
C36_2 C37_2 1_555 1_555
C43_2 C44_2 1_555 1_555
Zn1_2 O7_2 1_555 1_555
Zn7 O8_2 1_555 1_555
Zn3_2 O10_2 1_555 1_555
Zn12 O9_2 1_555 1_555
C17_2 C16_2 1_555 1_555
H7_2 C17_2 1_555 1_555
C18_2 C17_2 1_555 1_555
C19_2 C18_2 1_555 1_555
H8_2 C19_2 1_555 1_555
C20_2 C19_2 1_555 1_555
C21_2 C16_2 1_555 1_555
H9_2 C21_2 1_555 1_555
C22_2 C18_2 1_555 1_555
C23_2 C20_2 1_555 1_555
O7_2 C22_2 1_555 1_555
O8_2 C22_2 1_555 1_555
O9_2 C23_2 1_555 1_555
O10_2 C23_2 1_555 1_555
O19_2 Zn1_2 1_555 1_555
O20_2 Zn7 1_555 1_555
O21_2 Zn12 1_555 1_555
H20_2 O21_2 1_555 1_555
O22_2 Zn1_2 1_555 1_555
H21_2 O22_2 1_555 1_555
H22_2 O22_2 1_555 1_555
O28_2 Zn7 1_555 1_555
O29_2 Zn1_2 1_555 1_555
O30_2 Zn3_2 1_555 1_555
O31_2 Zn12 1_555 1_555
O32_2 Zn3_2 1_555 1_555
O33_2 Zn1_2 1_555 1_555
C20_2 C21_2 1_555 1_555
C46_2 O19_2 1_555 1_555
C46_2 O20_2 1_555 1_555
Zn6 O7_3 1_555 1_555
Zn8 O8_3 1_555 1_555
Zn9 O10_3 1_555 1_555
C1_3 C2_3 1_555 1_555
C2_3 C3_3 1_555 1_555
C3_3 H1_3 1_555 1_555
C4_3 C3_3 1_555 1_555
H2_3 C4_3 1_555 1_555
C5_3 C4_3 1_555 1_555
C6_3 C5_3 1_555 1_555
H3_3 C6_3 1_555 1_555
C7_3 C2_3 1_555 1_555
C8_3 C7_3 1_555 1_555
C9_3 C8_3 1_555 1_555
H4_3 C9_3 1_555 1_555
C10_3 C8_3 1_555 1_555
H5_3 C10_3 1_555 1_555
C11_3 C10_3 1_555 1_555
C12_3 C11_3 1_555 1_555
C13_3 C11_3 1_555 1_555
H6_3 C13_3 1_555 1_555
C14_3 C9_3 1_555 1_555
C15_3 C14_3 1_555 1_555
C16_3 C5_3 1_555 1_555
C17_3 C16_3 1_555 1_555
H7_3 C17_3 1_555 1_555
C18_3 C17_3 1_555 1_555
C19_3 C18_3 1_555 1_555
H8_3 C19_3 1_555 1_555
C20_3 C19_3 1_555 1_555
C21_3 C16_3 1_555 1_555
H9_3 C21_3 1_555 1_555
C22_3 C18_3 1_555 1_555
C23_3 C20_3 1_555 1_555
H11_3 C28_3 1_555 1_555
C29_3 C28_3 1_555 1_555
H12_3 C30_3 1_555 1_555
C32_3 C29_3 1_555 1_555
C33_3 C32_3 1_555 1_555
H13_3 C33_3 1_555 1_555
C34_3 C33_3 1_555 1_555
H14_3 C34_3 1_555 1_555
C35_3 C34_3 1_555 1_555
C36_3 C35_3 1_555 1_555
C37_3 C32_3 1_555 1_555
H15_3 C37_3 1_555 1_555
C38_3 C35_3 1_555 1_555
C39_3 C36_3 1_555 1_555
C40_3 C39_3 1_555 1_555
H16_3 C40_3 1_555 1_555
C41_3 C40_3 1_555 1_555
C42_3 C41_3 1_555 1_555
H17_3 C42_3 1_555 1_555
C43_3 C42_3 1_555 1_555
C44_3 C39_3 1_555 1_555
H18_3 C44_3 1_555 1_555
C46_3 C41_3 1_555 1_555
O1_2 C1_3 1_555 1_555
O2_2 C1_3 1_555 1_555
O4_2 C15_3 1_555 1_555
O26_2 C12_3 1_555 1_555
O27_2 C12_3 1_555 1_555
O7_3 C22_3 1_555 1_555
O8_3 C22_3 1_555 1_555
O9_3 C23_3 1_555 1_555
O10_3 C23_3 1_555 1_555
O31_2 C38_3 1_555 1_555
O32_2 C38_3 1_555 1_555
O19_3 Zn6 1_555 1_555
O20_3 Zn8 1_555 1_555
H19_3 O21_3 1_555 1_555
O22_3 Zn6 1_555 1_555
H21_3 O22_3 1_555 1_555
H22_3 O22_3 1_555 1_555
Zn13 O1_2 1_555 1_555
C6_3 C7_3 1_555 1_555
C13_3 C14_3 1_555 1_555
C20_3 C21_3 1_555 1_555
C29_3 C30_3 1_555 1_555
C36_3 C37_3 1_555 1_555
C43_3 C44_3 1_555 1_555
C46_3 O19_3 1_555 1_555
C46_3 O20_3 1_555 1_555
O2_2 Zn13 1_555 1_555
O17_3 C45_3 1_555 1_555
O33 C45_3 1_555 1_555
C25_3 C26_3 1_555 1_555
C26_3 H10_3 1_555 1_555
C27_3 C26_3 1_555 1_555
C31_3 C27_3 1_555 1_555
O30_2 C31_3 1_555 1_555
O14_3 C31_3 1_555 1_555
O28 C24_3 1_555 1_555
O29 C24_3 1_555 1_555
Zn5 O7_4 1_555 1_555
Zn8_2 O8_4 1_555 1_555
Zn11 O10_4 1_555 1_555
Zn14 O9_4 1_555 1_555
C17_4 C16_4 1_555 1_555
H7_4 C17_4 1_555 1_555
C18_4 C17_4 1_555 1_555
C19_4 C18_4 1_555 1_555
H8_4 C19_4 1_555 1_555
C20_4 C19_4 1_555 1_555
C21_4 C16_4 1_555 1_555
H9_4 C21_4 1_555 1_555
C22_4 C18_4 1_555 1_555
C23_4 C20_4 1_555 1_555
O7_4 C22_4 1_555 1_555
O8_4 C22_4 1_555 1_555
O9_4 C23_4 1_555 1_555
O10_4 C23_4 1_555 1_555
O19_4 Zn5 1_555 1_555
O20_4 Zn8_2 1_555 1_555
O21_4 Zn14 1_555 1_555
H20_4 O21_4 1_555 1_555
O22_4 Zn5 1_555 1_555
H21_4 O22_4 1_555 1_555
H22_4 O22_4 1_555 1_555
O23_2 Zn14 1_555 1_555
O24_2 Zn14 1_555 1_555
O25_2 Zn8_2 1_555 1_555
C20_4 C21_4 1_555 1_555
C46_4 O19_4 1_555 1_555
C46_4 O20_4 1_555 1_555
C24_4 C25_4 1_555 1_555
C25_4 C26_4 1_555 1_555
C26_4 H10_4 1_555 1_555
C27_4 C26_4 1_555 1_555
C28_4 C27_4 1_555 1_555
H11_4 C28_4 1_555 1_555
C29_4 C28_4 1_555 1_555
C30_4 C25_4 1_555 1_555
H12_4 C30_4 1_555 1_555
C31_4 C27_4 1_555 1_555
C32_4 C29_4 1_555 1_555
C33_4 C32_4 1_555 1_555
H13_4 C33_4 1_555 1_555
C34_4 C33_4 1_555 1_555
H14_4 C34_4 1_555 1_555
C35_4 C34_4 1_555 1_555
C36_4 C35_4 1_555 1_555
C37_4 C32_4 1_555 1_555
H15_4 C37_4 1_555 1_555
C38_4 C35_4 1_555 1_555
C39_4 C36_4 1_555 1_555
C40_4 C39_4 1_555 1_555
H16_4 C40_4 1_555 1_555
C41_4 C40_4 1_555 1_555
C42_4 C41_4 1_555 1_555
H17_4 C42_4 1_555 1_555
C43_4 C42_4 1_555 1_555
C44_4 C39_4 1_555 1_555
H18_4 C44_4 1_555 1_555
O28_2 C24_4 1_555 1_555
O29_2 C24_4 1_555 1_555
O30 C31_4 1_555 1_555
O14_4 C31_4 1_555 1_555
O31 C38_4 1_555 1_555
C29_4 C30_4 1_555 1_555
C36_4 C37_4 1_555 1_555
C43_4 C44_4 1_555 1_555
C1_4 C2_4 1_555 1_555
C2_4 C3_4 1_555 1_555
C3_4 H1_4 1_555 1_555
C4_4 C3_4 1_555 1_555
H2_4 C4_4 1_555 1_555
C5_4 C4_4 1_555 1_555
C6_4 C5_4 1_555 1_555
H3_4 C6_4 1_555 1_555
C7_4 C2_4 1_555 1_555
C8_4 C7_4 1_555 1_555
C9_4 C8_4 1_555 1_555
H4_4 C9_4 1_555 1_555
C10_4 C8_4 1_555 1_555
H5_4 C10_4 1_555 1_555
C11_4 C10_4 1_555 1_555
C12_4 C11_4 1_555 1_555
C13_4 C11_4 1_555 1_555
H6_4 C13_4 1_555 1_555
C14_4 C9_4 1_555 1_555
C15_4 C14_4 1_555 1_555
O23_2 C1_4 1_555 1_555
O24_2 C1_4 1_555 1_555
O3_4 C15_4 1_555 1_555
O25_2 C15_4 1_555 1_555
O26 C12_4 1_555 1_555
O27 C12_4 1_555 1_555
C6_4 C7_4 1_555 1_555
C13_4 C14_4 1_555 1_555
O17_4 C45_4 1_555 1_555
O33_2 C45_4 1_555 1_555
H25 C47 1_555 1_555
H30 C48 1_555 1_555
H24 N1 1_555 1_555
N1_2 H23_2 1_555 1_555
H24_2 N1_2 1_555 1_555
C47_2 N1_2 1_555 1_555
H25_2 C47_2 1_555 1_555
H26_2 C47_2 1_555 1_555
H27_2 C47_2 1_555 1_555
C48_2 N1_2 1_555 1_555
H28_2 C48_2 1_555 1_555
H29_2 C48_2 1_555 1_555
H30_2 C48_2 1_555 1_555
H24_3 N1_3 1_555 1_555
H25_3 C47_3 1_555 1_555
H30_3 C48_3 1_555 1_555
N1_4 H23_4 1_555 1_555
H24_4 N1_4 1_555 1_555
C47_4 N1_4 1_555 1_555
H25_4 C47_4 1_555 1_555
H26_4 C47_4 1_555 1_555
H27_4 C47_4 1_555 1_555
C48_4 N1_4 1_555 1_555
H28_4 C48_4 1_555 1_555
H29_4 C48_4 1_555 1_555
H30_4 C48_4 1_555 1_555
N2 H31 1_555 1_555
H32 N2 1_555 1_555
C49 N2 1_555 1_555
H33 C49 1_555 1_555
H34 C49 1_555 1_555
H35 C49 1_555 1_555
C50 N2 1_555 1_555
H36 C50 1_555 1_555
H37 C50 1_555 1_555
H38 C50 1_555 1_555
N2_2 H31_2 1_555 1_555
H32_2 N2_2 1_555 1_555
C49_2 N2_2 1_555 1_555
H33_2 C49_2 1_555 1_555
H34_2 C49_2 1_555 1_555
H35_2 C49_2 1_555 1_555
C50_2 N2_2 1_555 1_555
H36_2 C50_2 1_555 1_555
H37_2 C50_2 1_555 1_555
H38_2 C50_2 1_555 1_555
N2_3 H31_3 1_555 1_555
H32_3 N2_3 1_555 1_555
C49_3 N2_3 1_555 1_555
H33_3 C49_3 1_555 1_555
H34_3 C49_3 1_555 1_555
H35_3 C49_3 1_555 1_555
C50_3 N2_3 1_555 1_555
H36_3 C50_3 1_555 1_555
H37_3 C50_3 1_555 1_555
H38_3 C50_3 1_555 1_555
N2_4 H31_4 1_555 1_555
H32_4 N2_4 1_555 1_555
C49_4 N2_4 1_555 1_555
H33_4 C49_4 1_555 1_555
H34_4 C49_4 1_555 1_555
H35_4 C49_4 1_555 1_555
C50_4 N2_4 1_555 1_555
H36_4 C50_4 1_555 1_555
H37_4 C50_4 1_555 1_555
H38_4 C50_4 1_555 1_555

#END
