
###############################################################################
#
# This file contains modified crystal structure data generated from the
# MOF subset of the Cambridge Structural Database (CSD) v543 
# hosted by the Cambridge Crystallographic Data Centre (CCDC).
#
# This work is licensed under the Creative Commons
# Attribution-NonCommercial-ShareAlike 4.0 International License.
# To view a copy of this license, visit
# http://creativecommons.org/licenses/by-nc-sa/4.0/
# or send a letter to
# Creative Commons, PO Box 1866, Mountain View, CA 94042, USA.
#
# CIF created using the CSD Python API on 29 September 2022
# The structure has been converted into the P1 space group
# The structure has a 3D framework
# The original CSD entry NUCREJ is in the trigonal crystal system
# The original CSD entry NUCREJ is in a Sohncke space group
# The framework has been calculated to contain at least 10.0% void space
# The void calculation uses a probe of radius 1.32A, grid spacing 0.4
#
###############################################################################

data_NUCREJ
_chemical_formula_moiety         '(C60 H48 N24 O30 Zn11)n'
_symmetry_cell_setting           triclinic
_symmetry_space_group_name_H-M   'P 1'
_symmetry_Int_Tables_number      1
_space_group_name_Hall           'P 1'
loop_
_symmetry_equiv_pos_site_id
_symmetry_equiv_pos_as_xyz
1 x,y,z
_cell_length_a                   11.321(2)
_cell_length_b                   11.321(2)
_cell_length_c                   19.872(3)
_cell_angle_alpha                90
_cell_angle_beta                 90
_cell_angle_gamma                120
_cell_volume                     2205.68
loop_
_atom_site_label
_atom_site_type_symbol
_atom_site_fract_x
_atom_site_fract_y
_atom_site_fract_z
Zn4 Zn 0.11015(9) 0.40838(13) 0.44493(4)
N8 N 0.0830(7) 0.3425(10) 0.2430(3)
Zn7 Zn 0.40838(13) 0.11015(9) 0.55507(4)
N9 N 0.3425(10) 0.0830(7) 0.7570(3)
Zn1 Zn 0.88985(9) 0.29823(9) 0.22174(4)
Zn2 Zn 0.37823(17) 0.37823(17) 0.5000
C1 C 0.8320(8) 0.5125(8) 0.2776(4)
H1 H 0.8425 0.5525 0.2355
C2 C 0.8077(8) 0.5586(9) 0.3343(4)
H2 H 0.7970 0.6345 0.3389
C3 C 0.8200(7) 0.3755(7) 0.3551(3)
C4 C 0.8133(8) 0.2598(7) 0.3900(3)
C5 C 0.8654(9) 0.1247(11) 0.4436(5)
H3 H 0.9131 0.0922 0.4683
C6 C 0.7375(9) 0.0489(10) 0.4220(5)
C7 C 0.5694(10) 0.0945(9) 0.3647(4)
H5 H 0.5322 0.0071 0.3422
H6 H 0.5777 0.1610 0.3315
C8 C 0.4701(8) 0.0841(8) 0.4182(3)
C9 C 0.7759(8) 0.4824(8) 0.4549(4)
H7 H 0.8500 0.5703 0.4692
H8 H 0.7908 0.4148 0.4772
N1 N 0.8392(6) 0.3988(6) 0.2900(3)
N2 N 0.8015(5) 0.4724(6) 0.3853(3)
N3 N 0.9170(7) 0.2595(7) 0.4237(3)
N4 N 0.7035(6) 0.1328(7) 0.3893(3)
O1 O 0.5169(6) 0.1116(6) 0.4780(2)
O2 O 0.3545(7) 0.0524(7) 0.4008(3)
O3 O 0.3269(7) 0.2201(7) 0.5571(3)
C10 C 0.6212(15) 0.4253(11) 0.4644(8)
O4 O 0.5367(15) 0.3777(13) 0.4154(8)
O5 O 0.5784(14) 0.4325(16) 0.5225(7)
Zn3 Zn 0.29823(9) 0.88985(9) 0.77826(4)
C11 C 0.5125(8) 0.8320(8) 0.7224(4)
H9 H 0.5525 0.8425 0.7645
C12 C 0.5586(9) 0.8077(8) 0.6657(4)
H10 H 0.6345 0.7970 0.6611
C13 C 0.3755(7) 0.8200(7) 0.6449(3)
C14 C 0.2598(7) 0.8133(8) 0.6100(3)
C15 C 0.1247(11) 0.8654(9) 0.5564(5)
H11 H 0.0922 0.9131 0.5317
C16 C 0.0489(10) 0.7375(9) 0.5780(5)
C17 C 0.0945(9) 0.5694(10) 0.6353(4)
H13 H 0.0071 0.5322 0.6578
H14 H 0.1610 0.5777 0.6685
C18 C 0.0841(8) 0.4701(8) 0.5818(3)
C19 C 0.4824(8) 0.7759(8) 0.5451(4)
H15 H 0.5703 0.8500 0.5308
H16 H 0.4148 0.7908 0.5228
N5 N 0.3988(6) 0.8392(6) 0.7100(3)
N6 N 0.4724(6) 0.8015(5) 0.6147(3)
N7 N 0.2595(7) 0.9170(7) 0.5763(3)
N10 N 0.1328(7) 0.7035(6) 0.6107(3)
O6 O 0.1116(6) 0.5169(6) 0.5220(2)
O7 O 0.8884(6) 0.4053(8) 0.1447(2)
O8 O 0.4053(8) 0.8884(6) 0.8553(2)
O9 O 0.0524(7) 0.3545(7) 0.5992(3)
O10 O 0.2201(7) 0.3269(7) 0.4429(3)
O11 O 0.7799(7) 0.1068(10) 0.2238(3)
O12 O 0.1068(10) 0.7799(7) 0.7762(3)
C20 C 0.4253(11) 0.6212(15) 0.5356(8)
O13 O 0.3777(13) 0.5367(15) 0.5846(8)
O14 O 0.4325(16) 0.5784(14) 0.4775(7)
Zn2_2 Zn 0.62177(17) 0.00000(24) 0.1667
C2_2 C 0.4414(9) 0.2491(12) 0.0010(4)
H2_2 H 0.3655 0.1625 0.0056
C3_2 C 0.6245(7) 0.4445(10) 0.0218(3)
C4_2 C 0.7402(7) 0.5535(11) 0.0567(3)
C5_2 C 0.8753(11) 0.7407(14) 0.1103(5)
H3_2 H 0.9078 0.8209 0.1350
C6_2 C 0.9511(10) 0.6886(13) 0.0887(5)
C7_2 C 0.9055(9) 0.4749(13) 0.0314(4)
H5_2 H 0.9929 0.5251 0.0089
C8_2 C 0.9159(8) 0.3860(11) 0.0849(3)
C9_2 C 0.5176(8) 0.2935(11) 0.1216(4)
H7_2 H 0.4297 0.2797 0.1359
H8_2 H 0.5852 0.3760 0.1439
N2_2 N 0.5276(6) 0.3291(8) 0.0520(3)
N3_2 N 0.7405(7) 0.6575(10) 0.0904(3)
N4_2 N 0.8672(7) 0.5707(9) 0.0560(3)
O2_2 O 0.9476(7) 0.3021(10) 0.0675(3)
C10_2 C 0.5747(11) 0.1959(19) 0.1311(8)
O4_2 O 0.6223(13) 0.1590(20) 0.0821(8)
O5_2 O 0.5675(16) 0.1459(21) 0.1892(7)
Zn4_2 Zn 0.59162(13) 0.70177(16) 0.11159(4)
Zn1_2 Zn 0.70177(9) 0.59162(13) 0.88841(4)
C1_2 C 0.4875(8) 0.3195(11) 0.9443(4)
H1_2 H 0.4475 0.2900 0.9022
H6_2 H 0.8390 0.4167 0.9982
N1_2 N 0.6012(6) 0.4404(8) 0.9567(3)
N8_2 N 0.6575(10) 0.7405(12) 0.9096(3)
O7_2 O 0.5947(8) 0.4831(10) 0.8113(2)
O11_2 O 0.8932(10) 0.6731(12) 0.8904(3)
Zn2_3 Zn 0.62177(17) 1.00000(24) 0.1667
C11_2 C 0.1680(8) 0.6805(11) 0.3891(4)
H9_2 H 0.1575 0.7100 0.4312
C12_2 C 0.1923(8) 0.7509(12) 0.3324(4)
H10_2 H 0.2030 0.8375 0.3278
C13_2 C 0.1800(7) 0.5555(10) 0.3116(3)
C14_2 C 0.1867(8) 0.4465(11) 0.2767(3)
C15_2 C 0.1346(9) 0.2593(14) 0.2231(5)
H11_2 H 0.0869 0.1791 0.1984
C16_2 C 0.2625(9) 0.3114(13) 0.2447(5)
H12 H 0.3184 0.2739 0.2384
C17_2 C 0.4306(10) 0.5251(13) 0.3020(4)
H13_2 H 0.4678 0.4749 0.3245
H14_2 H 0.4223 0.5833 0.3352
C18_2 C 0.5299(8) 0.6140(11) 0.2485(3)
C19_2 C 0.2241(8) 0.7065(11) 0.2118(4)
H15_2 H 0.1500 0.7203 0.1975
H16_2 H 0.2092 0.6240 0.1895
N5_2 N 0.1608(6) 0.5596(8) 0.3767(3)
N6_2 N 0.1985(5) 0.6709(8) 0.2814(3)
N10_2 N 0.2965(6) 0.4293(9) 0.2774(3)
O6_2 O 0.4831(6) 0.5947(8) 0.1887(2)
O9_2 O 0.6455(7) 0.6979(10) 0.2659(3)
O10_2 O 0.6731(7) 0.8932(10) 0.1096(3)
C20_2 C 0.3788(15) 0.8041(19) 0.2023(8)
O13_2 O 0.4633(15) 0.8410(20) 0.2513(8)
O14_2 O 0.4216(14) 0.8541(21) 0.1442(7)
C11_3 C 0.3195(11) 0.4875(8) 0.0557(4)
H9_3 H 0.2900 0.4475 0.0978
H14_3 H 0.4167 0.8390 0.0018
N5_3 N 0.4404(8) 0.6012(6) 0.0433(3)
Zn2_4 Zn -0.00000(24) 0.62177(17) 0.8333
C12_3 C 0.2491(12) 0.4414(9) 0.9990(4)
H10_3 H 0.1625 0.3655 0.9944
C13_3 C 0.4445(10) 0.6245(7) 0.9782(3)
C14_3 C 0.5535(11) 0.7402(7) 0.9433(3)
C15_3 C 0.7407(14) 0.8753(11) 0.8897(5)
H11_3 H 0.8209 0.9078 0.8650
C16_3 C 0.6886(13) 0.9511(10) 0.9113(5)
C17_3 C 0.4749(13) 0.9055(9) 0.9686(4)
H13_3 H 0.5251 0.9929 0.9911
C18_3 C 0.3860(11) 0.9159(8) 0.9151(3)
C19_3 C 0.2935(11) 0.5176(8) 0.8784(4)
H15_3 H 0.2797 0.4297 0.8641
H16_3 H 0.3760 0.5852 0.8561
N6_3 N 0.3291(8) 0.5276(6) 0.9480(3)
N10_3 N 0.5707(9) 0.8672(7) 0.9440(3)
O9_3 O 0.3021(10) 0.9476(7) 0.9325(3)
C20_3 C 0.1959(19) 0.5747(11) 0.8689(8)
O13_3 O 0.1590(20) 0.6223(13) 0.9179(8)
O14_3 O 0.1459(21) 0.5675(16) 0.8108(7)
Zn2_5 Zn 1.00000(24) 0.62177(17) 0.8333
C1_3 C 0.6805(11) 0.1680(8) 0.6109(4)
H1_3 H 0.7100 0.1575 0.5688
C2_3 C 0.7509(12) 0.1923(8) 0.6676(4)
H2_3 H 0.8375 0.2030 0.6722
C3_3 C 0.5555(10) 0.1800(7) 0.6884(3)
C4_3 C 0.4465(11) 0.1867(8) 0.7233(3)
C5_3 C 0.2593(14) 0.1346(9) 0.7769(5)
H3_3 H 0.1791 0.0869 0.8016
C6_3 C 0.3114(13) 0.2625(9) 0.7553(5)
H4 H 0.2739 0.3184 0.7616
C7_3 C 0.5251(13) 0.4306(10) 0.6980(4)
H5_3 H 0.4749 0.4678 0.6755
H6_3 H 0.5833 0.4223 0.6648
C8_3 C 0.6140(11) 0.5299(8) 0.7515(3)
C9_3 C 0.7065(11) 0.2241(8) 0.7882(4)
H7_3 H 0.7203 0.1500 0.8025
H8_3 H 0.6240 0.2092 0.8105
N1_3 N 0.5596(8) 0.1608(6) 0.6233(3)
N2_3 N 0.6709(8) 0.1985(5) 0.7186(3)
N4_3 N 0.4293(9) 0.2965(6) 0.7226(3)
O2_3 O 0.6979(10) 0.6455(7) 0.7341(3)
C10_3 C 0.8041(19) 0.3788(15) 0.7977(8)
O4_3 O 0.8410(20) 0.4633(15) 0.7487(8)
O5_3 O 0.8541(21) 0.4216(14) 0.8558(7)
H4_2 H 0.6816 0.9555 0.4283
H12_2 H 0.9555 0.6816 0.5717
H4_3 H 0.0445 0.7261 0.0950
H12_3 H 0.7261 0.0445 0.9050
loop_
_geom_bond_atom_site_label_1
_geom_bond_atom_site_label_2
_geom_bond_site_symmetry_1
_geom_bond_site_symmetry_2
Zn1 N1 1_555 1_555
Zn2 O3 1_555 1_555
C1 H1 1_555 1_555
C2 C1 1_555 1_555
H2 C2 1_555 1_555
C3 C4 1_555 1_555
C4 N3 1_555 1_555
C5 H3 1_555 1_555
C6 C5 1_555 1_555
C7 H5 1_555 1_555
H6 C7 1_555 1_555
C8 C7 1_555 1_555
C9 H7 1_555 1_555
H8 C9 1_555 1_555
N1 C1 1_555 1_555
N2 C2 1_555 1_555
N3 C5 1_555 1_555
N4 C4 1_555 1_555
O1 C8 1_555 1_555
O2 C8 1_555 1_555
O3 Zn7 1_555 1_555
C10 C9 1_555 1_555
O4 Zn2 1_555 1_555
O5 Zn2 1_555 1_555
Zn3 N5 1_555 1_555
Zn7 O1 1_555 1_555
Zn4 O6 1_555 1_555
C11 H9 1_555 1_555
C12 C11 1_555 1_555
H10 C12 1_555 1_555
C13 C14 1_555 1_555
C14 N7 1_555 1_555
C15 H11 1_555 1_555
C16 C15 1_555 1_555
C17 H13 1_555 1_555
H14 C17 1_555 1_555
C18 C17 1_555 1_555
C19 H15 1_555 1_555
H16 C19 1_555 1_555
N5 C11 1_555 1_555
N6 C12 1_555 1_555
N7 C15 1_555 1_555
N10 C14 1_555 1_555
O6 C18 1_555 1_555
O7 Zn1 1_555 1_555
O8 Zn3 1_555 1_555
O9 C18 1_555 1_555
O10 Zn2 1_555 1_555
O11 Zn1 1_555 1_555
O12 Zn3 1_555 1_555
C20 C19 1_555 1_555
O13 Zn2 1_555 1_555
O14 Zn2 1_555 1_555
C3 N1 1_555 1_555
C3 N2 1_555 1_555
C6 N4 1_555 1_555
C7 N4 1_555 1_555
C9 N2 1_555 1_555
C10 O4 1_555 1_555
C10 O5 1_555 1_555
Zn4 O10 1_555 1_555
C13 N5 1_555 1_555
C13 N6 1_555 1_555
C16 N10 1_555 1_555
C17 N10 1_555 1_555
C19 N6 1_555 1_555
C20 O13 1_555 1_555
C20 O14 1_555 1_555
Zn2_2 O11 1_555 1_555
H2_2 C2_2 1_555 1_555
C3_2 C4_2 1_555 1_555
C4_2 N3_2 1_555 1_555
C5_2 H3_2 1_555 1_555
C6_2 C5_2 1_555 1_555
C7_2 H5_2 1_555 1_555
C8_2 C7_2 1_555 1_555
C9_2 H7_2 1_555 1_555
H8_2 C9_2 1_555 1_555
N2_2 C2_2 1_555 1_555
N3_2 C5_2 1_555 1_555
N4_2 C4_2 1_555 1_555
O7 C8_2 1_555 1_555
O2_2 C8_2 1_555 1_555
C10_2 C9_2 1_555 1_555
O4_2 Zn2_2 1_555 1_555
O5_2 Zn2_2 1_555 1_555
Zn4_2 N3_2 1_555 1_555
C3_2 N2_2 1_555 1_555
C6_2 N4_2 1_555 1_555
C7_2 N4_2 1_555 1_555
C9_2 N2_2 1_555 1_555
C10_2 O4_2 1_555 1_555
C10_2 O5_2 1_555 1_555
Zn1_2 N1_2 1_555 1_555
C1_2 H1_2 1_555 1_555
N1_2 C1_2 1_555 1_555
N8_2 Zn1_2 1_555 1_555
O7_2 Zn1_2 1_555 1_555
O11_2 Zn1_2 1_555 1_555
Zn4 N5_2 1_555 1_555
Zn4_2 O6_2 1_555 1_555
C11_2 H9_2 1_555 1_555
C12_2 C11_2 1_555 1_555
H10_2 C12_2 1_555 1_555
C13_2 C14_2 1_555 1_555
C14_2 N8 1_555 1_555
C15_2 H11_2 1_555 1_555
C16_2 C15_2 1_555 1_555
H12 C16_2 1_555 1_555
C17_2 H13_2 1_555 1_555
H14_2 C17_2 1_555 1_555
C18_2 C17_2 1_555 1_555
C19_2 H15_2 1_555 1_555
H16_2 C19_2 1_555 1_555
N5_2 C11_2 1_555 1_555
N6_2 C12_2 1_555 1_555
N8 C15_2 1_555 1_555
N10_2 C14_2 1_555 1_555
O6_2 C18_2 1_555 1_555
O9_2 C18_2 1_555 1_555
O10_2 Zn2_3 1_555 1_555
C20_2 C19_2 1_555 1_555
O13_2 Zn2_3 1_555 1_555
O14_2 Zn2_3 1_555 1_555
Zn4_2 O10_2 1_555 1_555
C13_2 N5_2 1_555 1_555
C13_2 N6_2 1_555 1_555
C16_2 N10_2 1_555 1_555
C17_2 N10_2 1_555 1_555
C19_2 N6_2 1_555 1_555
C20_2 O13_2 1_555 1_555
C20_2 O14_2 1_555 1_555
Zn4_2 N5_3 1_555 1_555
C11_3 H9_3 1_555 1_555
N5_3 C11_3 1_555 1_555
H10_3 C12_3 1_555 1_555
C13_3 C14_3 1_555 1_555
C14_3 N8_2 1_555 1_555
C15_3 H11_3 1_555 1_555
C16_3 C15_3 1_555 1_555
C17_3 H13_3 1_555 1_555
C18_3 C17_3 1_555 1_555
C19_3 H15_3 1_555 1_555
H16_3 C19_3 1_555 1_555
N6_3 C12_3 1_555 1_555
N8_2 C15_3 1_555 1_555
N10_3 C14_3 1_555 1_555
O8 C18_3 1_555 1_555
O9_3 C18_3 1_555 1_555
O12 Zn2_4 1_555 1_555
C20_3 C19_3 1_555 1_555
O13_3 Zn2_4 1_555 1_555
O14_3 Zn2_4 1_555 1_555
C13_3 N6_3 1_555 1_555
C16_3 N10_3 1_555 1_555
C17_3 N10_3 1_555 1_555
C19_3 N6_3 1_555 1_555
C20_3 O13_3 1_555 1_555
C20_3 O14_3 1_555 1_555
Zn7 N1_3 1_555 1_555
Zn2_5 O11_2 1_555 1_555
C1_3 H1_3 1_555 1_555
C2_3 C1_3 1_555 1_555
H2_3 C2_3 1_555 1_555
C3_3 C4_3 1_555 1_555
C4_3 N9 1_555 1_555
C5_3 H3_3 1_555 1_555
C6_3 C5_3 1_555 1_555
H4 C6_3 1_555 1_555
C7_3 H5_3 1_555 1_555
H6_3 C7_3 1_555 1_555
C8_3 C7_3 1_555 1_555
C9_3 H7_3 1_555 1_555
H8_3 C9_3 1_555 1_555
N1_3 C1_3 1_555 1_555
N2_3 C2_3 1_555 1_555
N9 C5_3 1_555 1_555
N4_3 C4_3 1_555 1_555
O7_2 C8_3 1_555 1_555
O2_3 C8_3 1_555 1_555
C10_3 C9_3 1_555 1_555
O4_3 Zn2_5 1_555 1_555
O5_3 Zn2_5 1_555 1_555
C3_3 N1_3 1_555 1_555
C3_3 N2_3 1_555 1_555
C6_3 N4_3 1_555 1_555
C7_3 N4_3 1_555 1_555
C9_3 N2_3 1_555 1_555
C10_3 O4_3 1_555 1_555
C10_3 O5_3 1_555 1_555

#END
