
###############################################################################
#
# This file contains modified crystal structure data generated from the
# MOF subset of the Cambridge Structural Database (CSD) v543 
# hosted by the Cambridge Crystallographic Data Centre (CCDC).
#
# This work is licensed under the Creative Commons
# Attribution-NonCommercial-ShareAlike 4.0 International License.
# To view a copy of this license, visit
# http://creativecommons.org/licenses/by-nc-sa/4.0/
# or send a letter to
# Creative Commons, PO Box 1866, Mountain View, CA 94042, USA.
#
# CIF created using the CSD Python API on 29 September 2022
# The structure has been converted into the P1 space group
# The structure has a 3D framework
# The original CSD entry NUDLOP01 is in the monoclinic crystal system
# The framework has been calculated to contain at least 10.0% void space
# The void calculation uses a probe of radius 1.32A, grid spacing 0.4
#
###############################################################################

data_NUDLOP01
_chemical_formula_moiety         '(C56 H32 Mg10 N8 O40)n'
_symmetry_cell_setting           triclinic
_symmetry_space_group_name_H-M   'P 1'
_symmetry_Int_Tables_number      1
_space_group_name_Hall           'P 1'
loop_
_symmetry_equiv_pos_site_id
_symmetry_equiv_pos_as_xyz
1 x,y,z
_cell_length_a                   18.293(2)
_cell_length_b                   12.3340(14)
_cell_length_c                   11.0237(12)
_cell_angle_alpha                90
_cell_angle_beta                 102.488(5)
_cell_angle_gamma                90
_cell_volume                     2428.39
loop_
_atom_site_label
_atom_site_type_symbol
_atom_site_fract_x
_atom_site_fract_y
_atom_site_fract_z
O1 O 0.07480(8) 0.01664(13) 0.21787(13)
O2 O 0.13136(9) 0.09158(13) 0.39792(14)
O3 O 0.35699(9) 0.33009(13) 0.37266(14)
O4 O 0.41775(9) 0.28566(13) 0.22361(14)
N1 N 0.18421(11) 0.06571(16) 0.10975(17)
C1 C 0.18864(13) 0.10687(18) 0.2249(2)
C2 C 0.24546(13) 0.1744(2) 0.2833(2)
H2 H 0.2455(16) 0.202(2) 0.358(3)
C3 C 0.30230(13) 0.20078(19) 0.2221(2)
C4 C 0.29954(14) 0.1558(2) 0.1063(2)
H3 H 0.3378(15) 0.171(2) 0.065(2)
C5 C 0.23984(14) 0.0903(2) 0.0535(2)
C6 C 0.12621(13) 0.06946(18) 0.2863(2)
C7 C 0.36422(13) 0.27819(19) 0.2785(2)
Mg5 Mg 0.5000 0.39952(8) 0.2500
Mg7 Mg 0.41637(4) 0.46206(6) 0.46085(7)
Mg9 Mg 0.08363(4) 0.03794(6) 0.53915(7)
H4 H 0.2341(13) 0.0598(19) 0.973(2)
O17 O 0.02116(9) 0.08901(14) 0.94583(14)
Mg1 Mg 0.0000 0.89952(8) 0.2500
Mg2 Mg 0.08363(4) 0.96206(6) 0.03915(7)
O10 O 0.02116(9) 0.91099(14) 0.44583(14)
H5 H 0.0384(17) 0.854(2) 0.468(3)
O14 O 0.14301(9) 0.83009(13) 0.12734(14)
O16 O 0.08225(9) 0.78566(13) 0.27639(14)
O12 O 0.13136(9) 0.90842(13) 0.89792(14)
O6 O 0.92520(8) 0.01664(13) 0.28213(13)
O7 O 0.86864(9) 0.09158(13) 0.10208(14)
O8 O 0.64301(9) 0.33009(13) 0.12734(14)
O9 O 0.58225(9) 0.28566(13) 0.27639(14)
N2 N 0.81579(11) 0.06571(16) 0.39025(17)
C8 C 0.81136(13) 0.10687(18) 0.2751(2)
C9 C 0.75454(13) 0.1744(2) 0.2167(2)
H6 H 0.7545(16) 0.202(2) 0.142(3)
C10 C 0.69770(13) 0.20078(19) 0.2779(2)
C11 C 0.70046(14) 0.1558(2) 0.3937(2)
H7 H 0.6622(15) 0.171(2) 0.435(2)
C12 C 0.76016(14) 0.0903(2) 0.4465(2)
H8 H 0.7659(13) 0.0598(19) 0.527(2)
C13 C 0.87379(13) 0.06946(18) 0.2137(2)
C14 C 0.63578(13) 0.27819(19) 0.2215(2)
Mg6 Mg 0.58363(4) 0.46206(6) 0.03915(7)
O18 O 0.97884(9) 0.08901(14) 0.55417(14)
Mg8 Mg 0.91637(4) 0.03794(6) 0.96085(7)
Mg1_2 Mg 1.0000 0.89952(8) 0.2500
O5 O 0.97884(9) 0.91099(14) 0.05417(14)
H1 H 0.9616(17) 0.854(2) 0.032(3)
Mg3 Mg 0.91637(4) 0.96206(6) 0.46085(7)
O11 O 0.86864(9) 0.90842(13) 0.60208(14)
O13 O 0.85699(9) 0.83009(13) 0.37266(14)
O15 O 0.91775(9) 0.78566(13) 0.22361(14)
O1_2 O 0.57480(8) 0.51664(13) 0.21787(13)
O2_2 O 0.63136(9) 0.59158(13) 0.39792(14)
O5_2 O 0.47884(9) 0.41099(14) 0.05417(14)
H1_2 H 0.4616(17) 0.354(2) 0.032(3)
N1_2 N 0.68421(11) 0.56571(16) 0.10975(17)
C1_2 C 0.68864(13) 0.60687(18) 0.2249(2)
C2_2 C 0.74546(13) 0.6744(2) 0.2833(2)
H2_2 H 0.7455(16) 0.702(2) 0.358(3)
C3_2 C 0.80230(13) 0.70078(19) 0.2221(2)
C4_2 C 0.79954(14) 0.6558(2) 0.1063(2)
H3_2 H 0.8378(15) 0.671(2) 0.065(2)
C5_2 C 0.73984(14) 0.5903(2) 0.0535(2)
C6_2 C 0.62621(13) 0.56946(18) 0.2863(2)
C7_2 C 0.86422(13) 0.77819(19) 0.2785(2)
O6_2 O 0.42520(8) 0.51664(13) 0.28213(13)
O7_2 O 0.36864(9) 0.59158(13) 0.10208(14)
O10_2 O 0.52116(9) 0.41099(14) 0.44583(14)
H5_2 H 0.5384(17) 0.354(2) 0.468(3)
N2_2 N 0.31579(11) 0.56571(16) 0.39025(17)
C8_2 C 0.31136(13) 0.60687(18) 0.2751(2)
C9_2 C 0.25454(13) 0.6744(2) 0.2167(2)
H6_2 H 0.2545(16) 0.702(2) 0.142(3)
C10_2 C 0.19770(13) 0.70078(19) 0.2779(2)
C11_2 C 0.20046(14) 0.6558(2) 0.3937(2)
H7_2 H 0.1622(15) 0.671(2) 0.435(2)
C12_2 C 0.26016(14) 0.5903(2) 0.4465(2)
H8_2 H 0.2659(13) 0.5598(19) 0.527(2)
C13_2 C 0.37379(13) 0.56946(18) 0.2137(2)
C14_2 C 0.13578(13) 0.77819(19) 0.2215(2)
Mg9_2 Mg 0.58363(4) 0.53794(6) 0.53915(7)
O11_2 O 0.36864(9) 0.40842(13) 0.60208(14)
O18_2 O 0.47884(9) 0.58901(14) 0.55417(14)
H4_2 H 0.7341(13) 0.5598(19) 0.973(2)
Mg8_2 Mg 0.41637(4) 0.53794(6) 0.96085(7)
O12_2 O 0.63136(9) 0.40842(13) 0.89792(14)
O17_2 O 0.52116(9) 0.58901(14) 0.94583(14)
Mg1_3 Mg 0.0000 0.10048(8) 0.7500
H1_3 H 0.0384(17) 0.146(2) 0.968(3)
O13_2 O 0.14301(9) 0.16991(13) 0.62734(14)
O15_2 O 0.08225(9) 0.21434(13) 0.77639(14)
O6_3 O 0.07480(8) 0.98336(13) 0.71787(13)
O8_2 O 0.35699(9) 0.66991(13) 0.87266(14)
O9_2 O 0.41775(9) 0.71434(13) 0.72361(14)
N2_3 N 0.18421(11) 0.93429(16) 0.60975(17)
C8_3 C 0.18864(13) 0.89313(18) 0.7249(2)
C9_3 C 0.24546(13) 0.8256(2) 0.7833(2)
H6_3 H 0.2455(16) 0.798(2) 0.858(3)
C10_3 C 0.30230(13) 0.79922(19) 0.7221(2)
C11_3 C 0.29954(14) 0.8442(2) 0.6063(2)
H7_3 H 0.3378(15) 0.829(2) 0.565(2)
C12_3 C 0.23984(14) 0.9097(2) 0.5535(2)
H8_3 H 0.2341(13) 0.9402(19) 0.473(2)
C13_3 C 0.12621(13) 0.93054(18) 0.7863(2)
C14_3 C 0.36422(13) 0.72181(19) 0.7785(2)
Mg4 Mg 0.5000 0.60048(8) 0.7500
Mg1_4 Mg 1.0000 0.10048(8) 0.7500
H5_3 H 0.9616(17) 0.146(2) 0.532(3)
O14_2 O 0.85699(9) 0.16991(13) 0.87266(14)
O16_2 O 0.91775(9) 0.21434(13) 0.72361(14)
H4_3 H 0.7659(13) 0.9402(19) 0.027(2)
O1_3 O 0.92520(8) 0.98336(13) 0.78213(13)
O3_2 O 0.64301(9) 0.66991(13) 0.62734(14)
O4_2 O 0.58225(9) 0.71434(13) 0.77639(14)
N1_3 N 0.81579(11) 0.93429(16) 0.89025(17)
C1_3 C 0.81136(13) 0.89313(18) 0.7751(2)
C2_3 C 0.75454(13) 0.8256(2) 0.7167(2)
H2_3 H 0.7545(16) 0.798(2) 0.642(3)
C3_3 C 0.69770(13) 0.79922(19) 0.7779(2)
C4_3 C 0.70046(14) 0.8442(2) 0.8937(2)
H3_3 H 0.6622(15) 0.829(2) 0.935(2)
C5_3 C 0.76016(14) 0.9097(2) 0.9465(2)
C6_3 C 0.87379(13) 0.93054(18) 0.7137(2)
C7_3 C 0.63578(13) 0.72181(19) 0.7215(2)
H4_4 H 0.2659(13) 0.4402(19) 0.027(2)
O1_4 O 0.42520(8) 0.48336(13) 0.78213(13)
H1_4 H 0.5384(17) 0.646(2) 0.968(3)
N1_4 N 0.31579(11) 0.43429(16) 0.89025(17)
C1_4 C 0.31136(13) 0.39313(18) 0.7751(2)
C2_4 C 0.25454(13) 0.3256(2) 0.7167(2)
H2_4 H 0.2545(16) 0.298(2) 0.642(3)
C3_4 C 0.19770(13) 0.29922(19) 0.7779(2)
C4_4 C 0.20046(14) 0.3442(2) 0.8937(2)
H3_4 H 0.1622(15) 0.329(2) 0.935(2)
C5_4 C 0.26016(14) 0.4097(2) 0.9465(2)
C6_4 C 0.37379(13) 0.43054(18) 0.7137(2)
C7_4 C 0.13578(13) 0.22181(19) 0.7215(2)
O6_4 O 0.57480(8) 0.48336(13) 0.71787(13)
H5_4 H 0.4616(17) 0.646(2) 0.532(3)
N2_4 N 0.68421(11) 0.43429(16) 0.60975(17)
C8_4 C 0.68864(13) 0.39313(18) 0.7249(2)
C9_4 C 0.74546(13) 0.3256(2) 0.7833(2)
H6_4 H 0.7455(16) 0.298(2) 0.858(3)
C10_4 C 0.80230(13) 0.29922(19) 0.7221(2)
C11_4 C 0.79954(14) 0.3442(2) 0.6063(2)
H7_4 H 0.8378(15) 0.329(2) 0.565(2)
C12_4 C 0.73984(14) 0.4097(2) 0.5535(2)
H8_4 H 0.7341(13) 0.4402(19) 0.473(2)
C13_4 C 0.62621(13) 0.43054(18) 0.7863(2)
C14_4 C 0.86422(13) 0.22181(19) 0.7785(2)
loop_
_geom_bond_atom_site_label_1
_geom_bond_atom_site_label_2
_geom_bond_site_symmetry_1
_geom_bond_site_symmetry_2
O1 C6 1_555 1_555
O2 C6 1_555 1_555
O3 C7 1_555 1_555
O4 C7 1_555 1_555
C1 N1 1_555 1_555
C2 C1 1_555 1_555
H2 C2 1_555 1_555
C3 C2 1_555 1_555
C4 C3 1_555 1_555
H3 C4 1_555 1_555
C5 N1 1_555 1_555
C6 C1 1_555 1_555
C7 C3 1_555 1_555
Mg5 O4 1_555 1_555
Mg7 O3 1_555 1_555
Mg9 O2 1_555 1_555
C4 C5 1_555 1_555
O10 Mg1 1_555 1_555
H5 O10 1_555 1_555
O14 Mg2 1_555 1_555
O16 Mg1 1_555 1_555
O7 C13 1_555 1_555
O8 C14 1_555 1_555
O9 C14 1_555 1_555
C8 N2 1_555 1_555
C9 C8 1_555 1_555
H6 C9 1_555 1_555
C10 C9 1_555 1_555
C11 C10 1_555 1_555
H7 C11 1_555 1_555
C12 N2 1_555 1_555
H8 C12 1_555 1_555
C13 O6 1_555 1_555
C14 C10 1_555 1_555
Mg5 O9 1_555 1_555
Mg6 O8 1_555 1_555
C8 C13 1_555 1_555
C11 C12 1_555 1_555
O5 Mg1_2 1_555 1_555
H1 O5 1_555 1_555
O11 Mg3 1_555 1_555
O13 Mg3 1_555 1_555
O15 Mg1_2 1_555 1_555
Mg5 O1_2 1_555 1_555
Mg6 O1_2 1_555 1_555
O1_2 C6_2 1_555 1_555
O2_2 C6_2 1_555 1_555
O13 C7_2 1_555 1_555
O15 C7_2 1_555 1_555
O5_2 Mg5 1_555 1_555
H1_2 O5_2 1_555 1_555
N1_2 Mg6 1_555 1_555
C1_2 N1_2 1_555 1_555
C2_2 C1_2 1_555 1_555
H2_2 C2_2 1_555 1_555
C3_2 C2_2 1_555 1_555
C4_2 C3_2 1_555 1_555
H3_2 C4_2 1_555 1_555
C5_2 N1_2 1_555 1_555
C6_2 C1_2 1_555 1_555
C7_2 C3_2 1_555 1_555
Mg7 O6_2 1_555 1_555
O6_2 Mg5 1_555 1_555
O7_2 C13_2 1_555 1_555
O14 C14_2 1_555 1_555
O16 C14_2 1_555 1_555
O10_2 Mg5 1_555 1_555
H5_2 O10_2 1_555 1_555
N2_2 Mg7 1_555 1_555
C8_2 N2_2 1_555 1_555
C9_2 C8_2 1_555 1_555
H6_2 C9_2 1_555 1_555
C10_2 C9_2 1_555 1_555
C11_2 C10_2 1_555 1_555
H7_2 C11_2 1_555 1_555
C12_2 N2_2 1_555 1_555
H8_2 C12_2 1_555 1_555
C13_2 O6_2 1_555 1_555
C14_2 C10_2 1_555 1_555
Mg9_2 O2_2 1_555 1_555
O11_2 Mg7 1_555 1_555
O18_2 Mg7 1_555 1_555
Mg6 O5_2 1_555 1_555
C4_2 C5_2 1_555 1_555
Mg7 O10_2 1_555 1_555
O10_2 Mg9_2 1_555 1_555
C8_2 C13_2 1_555 1_555
C11_2 C12_2 1_555 1_555
Mg9_2 O18_2 1_555 1_555
Mg8_2 O17_2 1_555 1_555
O17 Mg1_3 1_555 1_555
H1_3 O17 1_555 1_555
O13_2 Mg9 1_555 1_555
O15_2 Mg1_3 1_555 1_555
O12 C13_3 1_555 1_555
O8_2 C14_3 1_555 1_555
O9_2 C14_3 1_555 1_555
C8_3 N2_3 1_555 1_555
C9_3 C8_3 1_555 1_555
H6_3 C9_3 1_555 1_555
C10_3 C9_3 1_555 1_555
C11_3 C10_3 1_555 1_555
H7_3 C11_3 1_555 1_555
C12_3 N2_3 1_555 1_555
H8_3 C12_3 1_555 1_555
C13_3 O6_3 1_555 1_555
C14_3 C10_3 1_555 1_555
Mg4 O9_2 1_555 1_555
Mg8_2 O8_2 1_555 1_555
C8_3 C13_3 1_555 1_555
C11_3 C12_3 1_555 1_555
O18 Mg1_4 1_555 1_555
H5_3 O18 1_555 1_555
O14_2 Mg8 1_555 1_555
O16_2 Mg1_4 1_555 1_555
O1_3 C6_3 1_555 1_555
O11 C6_3 1_555 1_555
O3_2 C7_3 1_555 1_555
O4_2 C7_3 1_555 1_555
C1_3 N1_3 1_555 1_555
C2_3 C1_3 1_555 1_555
H2_3 C2_3 1_555 1_555
C3_3 C2_3 1_555 1_555
C4_3 C3_3 1_555 1_555
H3_3 C4_3 1_555 1_555
C5_3 N1_3 1_555 1_555
C6_3 C1_3 1_555 1_555
C7_3 C3_3 1_555 1_555
Mg4 O4_2 1_555 1_555
Mg9_2 O3_2 1_555 1_555
C4_3 C5_3 1_555 1_555
Mg4 O1_4 1_555 1_555
Mg8_2 O1_4 1_555 1_555
O1_4 C6_4 1_555 1_555
O11_2 C6_4 1_555 1_555
O13_2 C7_4 1_555 1_555
O15_2 C7_4 1_555 1_555
O17_2 Mg4 1_555 1_555
H1_4 O17_2 1_555 1_555
N1_4 Mg8_2 1_555 1_555
C1_4 N1_4 1_555 1_555
C2_4 C1_4 1_555 1_555
H2_4 C2_4 1_555 1_555
C3_4 C2_4 1_555 1_555
C4_4 C3_4 1_555 1_555
H3_4 C4_4 1_555 1_555
C5_4 N1_4 1_555 1_555
C6_4 C1_4 1_555 1_555
C7_4 C3_4 1_555 1_555
Mg9_2 O6_4 1_555 1_555
O6_4 Mg4 1_555 1_555
O12_2 C13_4 1_555 1_555
O14_2 C14_4 1_555 1_555
O16_2 C14_4 1_555 1_555
O18_2 Mg4 1_555 1_555
H5_4 O18_2 1_555 1_555
N2_4 Mg9_2 1_555 1_555
C8_4 N2_4 1_555 1_555
C9_4 C8_4 1_555 1_555
H6_4 C9_4 1_555 1_555
C10_4 C9_4 1_555 1_555
C11_4 C10_4 1_555 1_555
H7_4 C11_4 1_555 1_555
C12_4 N2_4 1_555 1_555
H8_4 C12_4 1_555 1_555
C13_4 O6_4 1_555 1_555
C14_4 C10_4 1_555 1_555
C4_4 C5_4 1_555 1_555
C8_4 C13_4 1_555 1_555
C11_4 C12_4 1_555 1_555

#END
