
###############################################################################
#
# This file contains modified crystal structure data generated from the
# MOF subset of the Cambridge Structural Database (CSD) v543 
# hosted by the Cambridge Crystallographic Data Centre (CCDC).
#
# This work is licensed under the Creative Commons
# Attribution-NonCommercial-ShareAlike 4.0 International License.
# To view a copy of this license, visit
# http://creativecommons.org/licenses/by-nc-sa/4.0/
# or send a letter to
# Creative Commons, PO Box 1866, Mountain View, CA 94042, USA.
#
# CIF created using the CSD Python API on 29 September 2022
# The structure has been converted into the P1 space group
# The structure has a 3D framework
# The original CSD entry NUDLIJ is in the monoclinic crystal system
# The framework has been calculated to contain at least 10.0% void space
# The void calculation uses a probe of radius 1.32A, grid spacing 0.4
#
###############################################################################

data_NUDLIJ
_chemical_formula_moiety         '(C56 H28 Mg11 N8 O36)n'
_symmetry_cell_setting           triclinic
_symmetry_space_group_name_H-M   'P 1'
_symmetry_Int_Tables_number      1
_space_group_name_Hall           'P 1'
loop_
_symmetry_equiv_pos_site_id
_symmetry_equiv_pos_as_xyz
1 x,y,z
_cell_length_a                   10.8609(7)
_cell_length_b                   14.3088(9)
_cell_length_c                   17.0198(12)
_cell_angle_alpha                90
_cell_angle_beta                 105.940(2)
_cell_angle_gamma                90
_cell_volume                     2543.29
loop_
_atom_site_label
_atom_site_type_symbol
_atom_site_fract_x
_atom_site_fract_y
_atom_site_fract_z
O5 O 0.44690(12) 0.57922(9) 0.02175(8)
H4 H 0.476(2) 0.6258(15) 0.0351(13)
Mg5 Mg 0.05038(6) 0.52921(4) 0.09147(4)
Mg11 Mg 0.54805(6) 0.46888(4) 0.09010(4)
O11 O 0.23063(12) 0.49048(9) 0.08347(8)
O14 O 0.26514(12) 0.69710(9) 0.08131(8)
Mg2 Mg 0.24975(6) 0.59083(4) 0.99951(4)
Mg3 Mg 0.45195(6) 0.53112(4) 0.90990(4)
H3 H 0.009(2) 0.5671(14) 0.7494(12)
O6 O 0.04918(12) 0.58022(9) 0.97864(8)
H5 H 0.021(2) 0.6278(15) 0.9637(13)
N2 N 0.37992(15) 0.42958(10) 0.80728(9)
O7 O 0.26764(12) 0.49036(9) 0.91527(8)
O8 O 0.08323(12) 0.42057(9) 0.85434(8)
O9 O 0.14802(12) 0.14553(9) 0.66369(8)
O10 O 0.27577(13) 0.19111(9) 0.58747(8)
C8 C 0.26324(17) 0.39413(12) 0.80297(11)
C9 C 0.20849(19) 0.32060(13) 0.75178(12)
H6 H 0.125(2) 0.2980(14) 0.7516(12)
C10 C 0.27800(18) 0.28161(13) 0.70267(11)
C11 C 0.39720(19) 0.31907(13) 0.70506(12)
H7 H 0.442(2) 0.2967(14) 0.6706(13)
C12 C 0.44407(19) 0.39267(13) 0.75823(12)
H8 H 0.525(2) 0.4199(14) 0.7631(12)
C13 C 0.19817(18) 0.43822(12) 0.86162(11)
C14 C 0.22850(18) 0.19895(12) 0.64671(11)
Mg6 Mg 0.25025(6) 0.09083(4) 0.50049(4)
Mg10 Mg 0.04805(6) 0.03112(4) 0.59010(4)
O12 O 0.58787(13) 0.58620(9) 0.86065(8)
O15 O 0.55310(12) 0.42078(9) 0.97825(8)
O17 O 0.35198(12) 0.64553(9) 0.83631(8)
O18 O 0.22423(13) 0.69111(9) 0.91253(8)
Mg7 Mg 0.75025(6) 0.40917(4) 0.00049(4)
O16 O 0.95082(12) 0.41978(9) 0.02136(8)
Mg1 Mg 0.94962(6) 0.47079(4) 0.90853(4)
N1 N 0.87518(15) 0.56741(10) 0.80406(10)
O1 O 0.76937(12) 0.50952(9) 0.91653(8)
O3 O 0.64560(12) 0.85168(9) 0.66160(8)
O4 O 0.76514(12) 0.80290(9) 0.58131(8)
C1 C 0.76366(17) 0.60801(12) 0.80495(11)
C2 C 0.70972(18) 0.68201(13) 0.75439(12)
H1 H 0.631(2) 0.7091(14) 0.7586(12)
C3 C 0.77278(18) 0.71441(12) 0.69874(11)
C4 C 0.88533(18) 0.67038(13) 0.69481(12)
H2 H 0.928(2) 0.6882(14) 0.6573(13)
C5 C 0.93326(19) 0.59794(13) 0.74890(12)
C6 C 0.70050(18) 0.56561(12) 0.86556(11)
C7 C 0.72346(17) 0.79626(12) 0.64297(11)
Mg4 Mg 0.55038(6) 0.97079(4) 0.59147(4)
Mg8 Mg 0.74975(6) 0.90917(4) 0.49951(4)
O13 O 0.85440(12) 0.35168(9) 0.83840(8)
N1_2 N 0.62482(15) 0.06741(10) 0.69594(10)
O1_2 O 0.73063(12) 0.00952(9) 0.58347(8)
O2 O 0.91213(13) 0.08620(9) 0.63935(8)
O4_2 O 0.73486(12) 0.30290(9) 0.91869(8)
C1_2 C 0.73634(17) 0.10801(12) 0.69505(11)
C2_2 C 0.79028(18) 0.18201(13) 0.74561(12)
H1_2 H 0.869(2) 0.2091(14) 0.7414(12)
C3_2 C 0.72722(18) 0.21441(12) 0.80126(11)
C4_2 C 0.61467(18) 0.17038(13) 0.80519(12)
H2_2 H 0.572(2) 0.1882(14) 0.8427(13)
C5_2 C 0.56674(19) 0.09794(13) 0.75110(12)
H3_2 H 0.491(2) 0.0671(14) 0.7506(12)
C6_2 C 0.79950(18) 0.06561(12) 0.63444(11)
C7_2 C 0.77654(17) 0.29626(12) 0.85703(11)
O5_2 O 0.05310(12) 0.07922(9) 0.47825(8)
H4_2 H 0.024(2) 0.1258(15) 0.4649(13)
O6_2 O 0.45082(12) 0.08022(9) 0.52136(8)
H5_2 H 0.479(2) 0.1278(15) 0.5363(13)
Mg5_2 Mg 0.44962(6) 0.02921(4) 0.40853(4)
O14_2 O 0.23486(12) 0.19710(9) 0.41869(8)
N2_2 N 0.12008(15) 0.92958(10) 0.69272(9)
O7_2 O 0.23236(12) 0.99036(9) 0.58473(8)
O8_2 O 0.41677(12) 0.92057(9) 0.64566(8)
C8_2 C 0.23676(17) 0.89413(12) 0.69703(11)
C9_2 C 0.29151(19) 0.82060(13) 0.74822(12)
H6_2 H 0.375(2) 0.7980(14) 0.7484(12)
C10_2 C 0.22200(18) 0.78161(13) 0.79733(11)
C11_2 C 0.10280(19) 0.81907(13) 0.79494(12)
H7_2 H 0.058(2) 0.7967(14) 0.8294(13)
C12_2 C 0.05593(19) 0.89267(13) 0.74177(12)
C13_2 C 0.30183(18) 0.93822(12) 0.63838(11)
C14_2 C 0.27150(18) 0.69895(12) 0.85329(11)
O11_2 O 0.26937(12) 0.99048(9) 0.41653(8)
O16_2 O 0.54918(12) 0.91978(9) 0.47864(8)
H8_2 H 0.975(2) 0.9199(14) 0.7369(12)
Mg11_2 Mg 0.95195(6) 0.96888(4) 0.40990(4)
O15_2 O 0.94690(12) 0.92078(9) 0.52175(8)
N1_3 N 0.12482(15) 0.43259(10) 0.19594(10)
O2_2 O 0.41213(13) 0.41380(9) 0.13935(8)
O3_2 O 0.35440(12) 0.14832(9) 0.33840(8)
C1_3 C 0.23634(17) 0.39199(12) 0.19505(11)
C2_3 C 0.29028(18) 0.31799(13) 0.24561(12)
H1_3 H 0.369(2) 0.2909(14) 0.2414(12)
C3_3 C 0.22722(18) 0.28559(12) 0.30126(11)
C4_3 C 0.11467(18) 0.32962(13) 0.30519(12)
H2_3 H 0.072(2) 0.3118(14) 0.3427(13)
C5_3 C 0.06674(19) 0.40206(13) 0.25110(12)
C6_3 C 0.29950(18) 0.43439(12) 0.13444(11)
C7_3 C 0.27654(17) 0.20374(12) 0.35703(11)
O13_2 O 0.14560(12) 0.64832(9) 0.16160(8)
H3_3 H 0.991(2) 0.4329(14) 0.2506(12)
H5_3 H 0.979(2) 0.3722(15) 0.0363(13)
N2_3 N 0.62008(15) 0.57042(10) 0.19272(9)
O7_3 O 0.73236(12) 0.50964(9) 0.08473(8)
O8_3 O 0.91677(12) 0.57943(9) 0.14566(8)
O9_2 O 0.85198(12) 0.85447(9) 0.33631(8)
O10_2 O 0.72423(13) 0.80889(9) 0.41253(8)
C8_3 C 0.73676(17) 0.60587(12) 0.19703(11)
C9_3 C 0.79151(19) 0.67940(13) 0.24822(12)
H6_3 H 0.875(2) 0.7020(14) 0.2484(12)
C10_3 C 0.72200(18) 0.71839(13) 0.29733(11)
C11_3 C 0.60280(19) 0.68093(13) 0.29494(12)
H7_3 H 0.558(2) 0.7033(14) 0.3294(13)
C12_3 C 0.55593(19) 0.60733(13) 0.24177(12)
H8_3 H 0.475(2) 0.5801(14) 0.2369(12)
C13_3 C 0.80183(18) 0.56178(12) 0.13838(11)
C14_3 C 0.77150(18) 0.80105(12) 0.35329(11)
O17_2 O 0.64802(12) 0.35447(9) 0.16369(8)
O18_2 O 0.77577(13) 0.30889(9) 0.08747(8)
H4_3 H 0.524(2) 0.3742(15) 0.9649(13)
H8_4 H 0.025(2) 0.0801(14) 0.2631(12)
O12_2 O 0.08787(13) 0.91380(9) 0.36065(8)
N2_4 N 0.87992(15) 0.07042(10) 0.30728(9)
O7_4 O 0.76764(12) 0.00964(9) 0.41527(8)
O8_4 O 0.58323(12) 0.07943(9) 0.35434(8)
C8_4 C 0.76324(17) 0.10587(12) 0.30297(11)
C9_4 C 0.70849(19) 0.17940(13) 0.25178(12)
H6_4 H 0.625(2) 0.2020(14) 0.2516(12)
C10_4 C 0.77800(18) 0.21839(13) 0.20267(11)
C11_4 C 0.89720(19) 0.18093(13) 0.20506(12)
H7_4 H 0.942(2) 0.2033(14) 0.1706(13)
C12_4 C 0.94407(19) 0.10733(13) 0.25823(12)
C13_4 C 0.69817(18) 0.06178(12) 0.36162(11)
C14_4 C 0.72850(18) 0.30105(12) 0.14671(11)
N1_4 N 0.37518(15) 0.93259(10) 0.30406(10)
C1_4 C 0.26366(17) 0.89199(12) 0.30495(11)
C2_4 C 0.20972(18) 0.81799(13) 0.25439(12)
H1_4 H 0.131(2) 0.7909(14) 0.2586(12)
C3_4 C 0.27278(18) 0.78559(12) 0.19874(11)
C4_4 C 0.38533(18) 0.82962(13) 0.19481(12)
H2_4 H 0.428(2) 0.8118(14) 0.1573(13)
C5_4 C 0.43326(19) 0.90206(13) 0.24890(12)
H3_4 H 0.509(2) 0.9329(14) 0.2494(12)
C6_4 C 0.20050(18) 0.93439(12) 0.36556(11)
C7_4 C 0.22346(17) 0.70374(12) 0.14297(11)
H4_4 H 0.976(2) 0.8742(15) 0.5351(13)
H5_4 H 0.521(2) 0.8722(15) 0.4637(13)
loop_
_geom_bond_atom_site_label_1
_geom_bond_atom_site_label_2
_geom_bond_site_symmetry_1
_geom_bond_site_symmetry_2
O5 H4 1_555 1_555
Mg11 O5 1_555 1_555
Mg5 O11 1_555 1_555
H5 O6 1_555 1_555
N2 Mg3 1_555 1_555
O7 Mg2 1_555 1_555
O9 C14 1_555 1_555
O10 C14 1_555 1_555
C8 N2 1_555 1_555
C9 C8 1_555 1_555
H6 C9 1_555 1_555
C10 C9 1_555 1_555
C11 C10 1_555 1_555
H7 C11 1_555 1_555
C12 N2 1_555 1_555
H8 C12 1_555 1_555
C13 O7 1_555 1_555
C14 C10 1_555 1_555
Mg6 O10 1_555 1_555
Mg10 O9 1_555 1_555
O12 Mg3 1_555 1_555
O15 Mg3 1_555 1_555
O17 Mg3 1_555 1_555
O18 Mg2 1_555 1_555
Mg2 O6 1_555 1_555
Mg3 O7 1_555 1_555
O8 C13 1_555 1_555
C8 C13 1_555 1_555
C11 C12 1_555 1_555
Mg7 O16 1_555 1_555
Mg1 N1 1_555 1_555
N1 C1 1_555 1_555
O1 Mg1 1_555 1_555
O12 C6 1_555 1_555
O3 C7 1_555 1_555
O4 C7 1_555 1_555
C1 C2 1_555 1_555
C2 H1 1_555 1_555
C3 C2 1_555 1_555
C4 C3 1_555 1_555
H2 C4 1_555 1_555
C5 N1 1_555 1_555
C6 O1 1_555 1_555
C7 C3 1_555 1_555
Mg4 O3 1_555 1_555
Mg8 O4 1_555 1_555
O13 Mg1 1_555 1_555
C1 C6 1_555 1_555
C4 C5 1_555 1_555
Mg6 O5_2 1_555 1_555
Mg10 O5_2 1_555 1_555
N1_2 C1_2 1_555 1_555
O2 C6_2 1_555 1_555
O13 C7_2 1_555 1_555
O4_2 C7_2 1_555 1_555
C1_2 C2_2 1_555 1_555
C2_2 H1_2 1_555 1_555
C3_2 C2_2 1_555 1_555
C4_2 C3_2 1_555 1_555
H2_2 C4_2 1_555 1_555
C5_2 N1_2 1_555 1_555
H3_2 C5_2 1_555 1_555
C6_2 O1_2 1_555 1_555
C7_2 C3_2 1_555 1_555
O5_2 H4_2 1_555 1_555
H5_2 O6_2 1_555 1_555
Mg5_2 O6_2 1_555 1_555
O14_2 Mg6 1_555 1_555
Mg6 O6_2 1_555 1_555
C1_2 C6_2 1_555 1_555
C4_2 C5_2 1_555 1_555
O8_2 Mg4 1_555 1_555
O17 C14_2 1_555 1_555
O18 C14_2 1_555 1_555
C8_2 N2_2 1_555 1_555
C9_2 C8_2 1_555 1_555
H6_2 C9_2 1_555 1_555
C10_2 C9_2 1_555 1_555
C11_2 C10_2 1_555 1_555
H7_2 C11_2 1_555 1_555
C12_2 N2_2 1_555 1_555
C13_2 O7_2 1_555 1_555
C14_2 C10_2 1_555 1_555
O16_2 Mg4 1_555 1_555
O8_2 C13_2 1_555 1_555
C8_2 C13_2 1_555 1_555
C11_2 C12_2 1_555 1_555
Mg8 O16_2 1_555 1_555
Mg11_2 O15_2 1_555 1_555
Mg5 N1_3 1_555 1_555
N1_3 C1_3 1_555 1_555
O2_2 C6_3 1_555 1_555
O3_2 C7_3 1_555 1_555
O14_2 C7_3 1_555 1_555
C1_3 C2_3 1_555 1_555
C2_3 H1_3 1_555 1_555
C3_3 C2_3 1_555 1_555
C4_3 C3_3 1_555 1_555
H2_3 C4_3 1_555 1_555
C5_3 N1_3 1_555 1_555
C6_3 O11 1_555 1_555
C7_3 C3_3 1_555 1_555
Mg5_2 O3_2 1_555 1_555
Mg11 O2_2 1_555 1_555
O13_2 Mg5 1_555 1_555
C1_3 C6_3 1_555 1_555
C4_3 C5_3 1_555 1_555
H5_3 O16 1_555 1_555
N2_3 Mg11 1_555 1_555
O7_3 Mg7 1_555 1_555
O9_2 C14_3 1_555 1_555
O10_2 C14_3 1_555 1_555
C8_3 N2_3 1_555 1_555
C9_3 C8_3 1_555 1_555
H6_3 C9_3 1_555 1_555
C10_3 C9_3 1_555 1_555
C11_3 C10_3 1_555 1_555
H7_3 C11_3 1_555 1_555
C12_3 N2_3 1_555 1_555
H8_3 C12_3 1_555 1_555
C13_3 O7_3 1_555 1_555
C14_3 C10_3 1_555 1_555
Mg8 O10_2 1_555 1_555
Mg11_2 O9_2 1_555 1_555
O17_2 Mg11 1_555 1_555
O18_2 Mg7 1_555 1_555
Mg11 O7_3 1_555 1_555
O8_3 C13_3 1_555 1_555
C8_3 C13_3 1_555 1_555
C11_3 C12_3 1_555 1_555
O15 H4_3 1_555 1_555
O8_4 Mg5_2 1_555 1_555
O17_2 C14_4 1_555 1_555
O18_2 C14_4 1_555 1_555
C8_4 N2_4 1_555 1_555
C9_4 C8_4 1_555 1_555
H6_4 C9_4 1_555 1_555
C10_4 C9_4 1_555 1_555
C11_4 C10_4 1_555 1_555
H7_4 C11_4 1_555 1_555
C12_4 N2_4 1_555 1_555
C13_4 O7_4 1_555 1_555
C14_4 C10_4 1_555 1_555
O8_4 C13_4 1_555 1_555
C8_4 C13_4 1_555 1_555
C11_4 C12_4 1_555 1_555
Mg8 O15_2 1_555 1_555
N1_4 C1_4 1_555 1_555
O12_2 C6_4 1_555 1_555
O13_2 C7_4 1_555 1_555
O14 C7_4 1_555 1_555
C1_4 C2_4 1_555 1_555
C2_4 H1_4 1_555 1_555
C3_4 C2_4 1_555 1_555
C4_4 C3_4 1_555 1_555
H2_4 C4_4 1_555 1_555
C5_4 N1_4 1_555 1_555
H3_4 C5_4 1_555 1_555
C6_4 O11_2 1_555 1_555
C7_4 C3_4 1_555 1_555
O15_2 H4_4 1_555 1_555
H5_4 O16_2 1_555 1_555
C1_4 C6_4 1_555 1_555
C4_4 C5_4 1_555 1_555

#END
