
###############################################################################
#
# This file contains modified crystal structure data generated from the
# MOF subset of the Cambridge Structural Database (CSD) v543 
# hosted by the Cambridge Crystallographic Data Centre (CCDC).
#
# This work is licensed under the Creative Commons
# Attribution-NonCommercial-ShareAlike 4.0 International License.
# To view a copy of this license, visit
# http://creativecommons.org/licenses/by-nc-sa/4.0/
# or send a letter to
# Creative Commons, PO Box 1866, Mountain View, CA 94042, USA.
#
# CIF created using the CSD Python API on 29 September 2022
# The structure has been converted into the P1 space group
# The structure has a 3D framework
# The original CSD entry NUDLOP is in the monoclinic crystal system
# The framework has been calculated to contain at least 10.0% void space
# The void calculation uses a probe of radius 1.32A, grid spacing 0.4
#
###############################################################################

data_NUDLOP
_chemical_formula_moiety         '(C56 H32 Mg10 N8 O40)n'
_symmetry_cell_setting           triclinic
_symmetry_space_group_name_H-M   'P 1'
_symmetry_Int_Tables_number      1
_space_group_name_Hall           'P 1'
loop_
_symmetry_equiv_pos_site_id
_symmetry_equiv_pos_as_xyz
1 x,y,z
_cell_length_a                   18.180(10)
_cell_length_b                   12.464(8)
_cell_length_c                   11.005(6)
_cell_angle_alpha                90
_cell_angle_beta                 102.778(16)
_cell_angle_gamma                90
_cell_volume                     2431.93
loop_
_atom_site_label
_atom_site_type_symbol
_atom_site_fract_x
_atom_site_fract_y
_atom_site_fract_z
Mg1 Mg 0.08423(5) 0.03809(8) 0.03950(8)
Mg2 Mg 0.0000 0.10018(11) 0.2500
O10 O 0.02131(13) 0.0877(2) 0.44572(19)
H5 H 0.0365(16) 0.135(2) 0.471(3)
O14 O 0.14331(11) 0.16989(18) 0.12714(19)
O16 O 0.08256(11) 0.21306(17) 0.27473(18)
O12 O 0.13157(11) 0.09032(16) 0.89798(18)
N1 N 0.18539(14) 0.9348(2) 0.1120(2)
O1 O 0.07554(10) 0.98406(16) 0.21881(16)
O2 O 0.13157(11) 0.90968(16) 0.39798(18)
O3 O 0.35669(11) 0.66989(18) 0.37286(19)
O4 O 0.41744(11) 0.71306(17) 0.22527(18)
C1 C 0.18930(16) 0.8936(2) 0.2263(2)
C2 C 0.24541(17) 0.8262(3) 0.2837(3)
H2 H 0.2427(14) 0.799(2) 0.360(3)
C3 C 0.30252(16) 0.7986(2) 0.2242(2)
C4 C 0.3002(2) 0.8449(3) 0.1097(3)
H3 H 0.3364(17) 0.829(2) 0.073(3)
C5 C 0.24118(19) 0.9095(3) 0.0562(3)
C6 C 0.12679(17) 0.9310(2) 0.2866(3)
C7 C 0.36412(17) 0.7211(3) 0.2793(3)
Mg5 Mg 0.41577(5) 0.53809(8) 0.46050(8)
Mg7 Mg 0.08423(5) 0.96191(8) 0.53950(8)
Mg9 Mg 0.5000 0.60018(11) 0.2500
H4 H 0.2368(18) 0.944(3) 0.972(3)
O17 O 0.02131(13) 0.9123(2) 0.94572(19)
Mg2_2 Mg 1.0000 0.10018(11) 0.2500
O5 O 0.97869(13) 0.0877(2) 0.05428(19)
H1 H 0.9635(16) 0.135(2) 0.029(3)
Mg3 Mg 0.91577(5) 0.03809(8) 0.46050(8)
O11 O 0.86843(11) 0.09032(16) 0.60202(18)
O13 O 0.85669(11) 0.16989(18) 0.37286(19)
O15 O 0.91744(11) 0.21306(17) 0.22527(18)
N2 N 0.81461(14) 0.9348(2) 0.3880(2)
O6 O 0.92446(10) 0.98406(16) 0.28119(16)
O7 O 0.86843(11) 0.90968(16) 0.10202(18)
O8 O 0.64331(11) 0.66989(18) 0.12714(19)
O9 O 0.58256(11) 0.71306(17) 0.27473(18)
C8 C 0.81070(16) 0.8936(2) 0.2737(2)
C9 C 0.75459(17) 0.8262(3) 0.2163(3)
H6 H 0.7573(14) 0.799(2) 0.140(3)
C10 C 0.69748(16) 0.7986(2) 0.2758(2)
C11 C 0.6998(2) 0.8449(3) 0.3903(3)
H7 H 0.6636(17) 0.829(2) 0.427(3)
C12 C 0.75882(19) 0.9095(3) 0.4438(3)
H8 H 0.7632(18) 0.944(3) 0.528(3)
C13 C 0.87321(17) 0.9310(2) 0.2134(3)
C14 C 0.63588(17) 0.7211(3) 0.2207(3)
Mg4 Mg 0.58423(5) 0.53809(8) 0.03950(8)
O18 O 0.97869(13) 0.9123(2) 0.55428(19)
Mg6 Mg 0.91577(5) 0.96191(8) 0.96050(8)
N1_2 N 0.68539(14) 0.4348(2) 0.1120(2)
O1_2 O 0.57554(10) 0.48406(16) 0.21881(16)
O2_2 O 0.63157(11) 0.40968(16) 0.39798(18)
O5_2 O 0.47869(13) 0.5877(2) 0.05428(19)
H1_2 H 0.4635(16) 0.635(2) 0.029(3)
C1_2 C 0.68930(16) 0.3936(2) 0.2263(2)
C2_2 C 0.74541(17) 0.3262(3) 0.2837(3)
H2_2 H 0.7427(14) 0.299(2) 0.360(3)
C3_2 C 0.80252(16) 0.2986(2) 0.2242(2)
C4_2 C 0.8002(2) 0.3449(3) 0.1097(3)
H3_2 H 0.8364(17) 0.329(2) 0.073(3)
C5_2 C 0.74118(19) 0.4095(3) 0.0562(3)
C6_2 C 0.62679(17) 0.4310(2) 0.2866(3)
C7_2 C 0.86412(17) 0.2211(3) 0.2793(3)
N2_2 N 0.31461(14) 0.4348(2) 0.3880(2)
O6_2 O 0.42446(10) 0.48406(16) 0.28119(16)
O7_2 O 0.36843(11) 0.40968(16) 0.10202(18)
O10_2 O 0.52131(13) 0.5877(2) 0.44572(19)
H5_2 H 0.5365(16) 0.635(2) 0.471(3)
C8_2 C 0.31070(16) 0.3936(2) 0.2737(2)
C9_2 C 0.25459(17) 0.3262(3) 0.2163(3)
H6_2 H 0.2573(14) 0.299(2) 0.140(3)
C10_2 C 0.19748(16) 0.2986(2) 0.2758(2)
C11_2 C 0.1998(2) 0.3449(3) 0.3903(3)
H7_2 H 0.1636(17) 0.329(2) 0.427(3)
C12_2 C 0.25882(19) 0.4095(3) 0.4438(3)
H8_2 H 0.2632(18) 0.444(3) 0.528(3)
C13_2 C 0.37321(17) 0.4310(2) 0.2134(3)
C14_2 C 0.13588(17) 0.2211(3) 0.2207(3)
Mg7_2 Mg 0.58423(5) 0.46191(8) 0.53950(8)
O11_2 O 0.36843(11) 0.59032(16) 0.60202(18)
O18_2 O 0.47869(13) 0.4123(2) 0.55428(19)
H4_2 H 0.7368(18) 0.444(3) 0.972(3)
Mg6_2 Mg 0.41577(5) 0.46191(8) 0.96050(8)
O12_2 O 0.63157(11) 0.59032(16) 0.89798(18)
O17_2 O 0.52131(13) 0.4123(2) 0.94572(19)
N2_3 N 0.18539(14) 0.0652(2) 0.6120(2)
O6_3 O 0.07554(10) 0.01594(16) 0.71881(16)
O8_2 O 0.35669(11) 0.33011(18) 0.87286(19)
O9_2 O 0.41744(11) 0.28694(17) 0.72527(18)
C8_3 C 0.18930(16) 0.1064(2) 0.7263(2)
C9_3 C 0.24541(17) 0.1738(3) 0.7837(3)
H6_3 H 0.2427(14) 0.201(2) 0.860(3)
C10_3 C 0.30252(16) 0.2014(2) 0.7242(2)
C11_3 C 0.3002(2) 0.1551(3) 0.6097(3)
H7_3 H 0.3364(17) 0.171(2) 0.573(3)
C12_3 C 0.24118(19) 0.0905(3) 0.5562(3)
H8_3 H 0.2368(18) 0.056(3) 0.472(3)
C13_3 C 0.12679(17) 0.0690(2) 0.7866(3)
C14_3 C 0.36412(17) 0.2789(3) 0.7793(3)
Mg8 Mg 0.5000 0.39982(11) 0.7500
Mg2_3 Mg 0.0000 0.89982(11) 0.7500
H1_3 H 0.0365(16) 0.865(2) 0.971(3)
O13_2 O 0.14331(11) 0.83011(18) 0.62714(19)
O15_2 O 0.08256(11) 0.78694(17) 0.77473(18)
H4_3 H 0.7632(18) 0.056(3) 0.028(3)
N1_3 N 0.81461(14) 0.0652(2) 0.8880(2)
O1_3 O 0.92446(10) 0.01594(16) 0.78119(16)
O3_2 O 0.64331(11) 0.33011(18) 0.62714(19)
O4_2 O 0.58256(11) 0.28694(17) 0.77473(18)
C1_3 C 0.81070(16) 0.1064(2) 0.7737(2)
C2_3 C 0.75459(17) 0.1738(3) 0.7163(3)
H2_3 H 0.7573(14) 0.201(2) 0.640(3)
C3_3 C 0.69748(16) 0.2014(2) 0.7758(2)
C4_3 C 0.6998(2) 0.1551(3) 0.8903(3)
H3_3 H 0.6636(17) 0.171(2) 0.927(3)
C5_3 C 0.75882(19) 0.0905(3) 0.9438(3)
C6_3 C 0.87321(17) 0.0690(2) 0.7134(3)
C7_3 C 0.63588(17) 0.2789(3) 0.7207(3)
Mg2_4 Mg 1.0000 0.89982(11) 0.7500
H5_3 H 0.9635(16) 0.865(2) 0.529(3)
O14_2 O 0.85669(11) 0.83011(18) 0.87286(19)
O16_2 O 0.91744(11) 0.78694(17) 0.72527(18)
H4_4 H 0.2632(18) 0.556(3) 0.028(3)
N1_4 N 0.31461(14) 0.5652(2) 0.8880(2)
O1_4 O 0.42446(10) 0.51594(16) 0.78119(16)
H1_4 H 0.5365(16) 0.365(2) 0.971(3)
C1_4 C 0.31070(16) 0.6064(2) 0.7737(2)
C2_4 C 0.25459(17) 0.6738(3) 0.7163(3)
H2_4 H 0.2573(14) 0.701(2) 0.640(3)
C3_4 C 0.19748(16) 0.7014(2) 0.7758(2)
C4_4 C 0.1998(2) 0.6551(3) 0.8903(3)
H3_4 H 0.1636(17) 0.671(2) 0.927(3)
C5_4 C 0.25882(19) 0.5905(3) 0.9438(3)
C6_4 C 0.37321(17) 0.5690(2) 0.7134(3)
C7_4 C 0.13588(17) 0.7789(3) 0.7207(3)
N2_4 N 0.68539(14) 0.5652(2) 0.6120(2)
O6_4 O 0.57554(10) 0.51594(16) 0.71881(16)
H5_4 H 0.4635(16) 0.365(2) 0.529(3)
C8_4 C 0.68930(16) 0.6064(2) 0.7263(2)
C9_4 C 0.74541(17) 0.6738(3) 0.7837(3)
H6_4 H 0.7427(14) 0.701(2) 0.860(3)
C10_4 C 0.80252(16) 0.7014(2) 0.7242(2)
C11_4 C 0.8002(2) 0.6551(3) 0.6097(3)
H7_4 H 0.8364(17) 0.671(2) 0.573(3)
C12_4 C 0.74118(19) 0.5905(3) 0.5562(3)
H8_4 H 0.7368(18) 0.556(3) 0.472(3)
C13_4 C 0.62679(17) 0.5690(2) 0.7866(3)
C14_4 C 0.86412(17) 0.7789(3) 0.7793(3)
loop_
_geom_bond_atom_site_label_1
_geom_bond_atom_site_label_2
_geom_bond_site_symmetry_1
_geom_bond_site_symmetry_2
O10 Mg2 1_555 1_555
H5 O10 1_555 1_555
O14 Mg1 1_555 1_555
O16 Mg2 1_555 1_555
N1 C1 1_555 1_555
O2 C6 1_555 1_555
O3 C7 1_555 1_555
O4 C7 1_555 1_555
C1 C2 1_555 1_555
C2 H2 1_555 1_555
C3 C2 1_555 1_555
C4 C3 1_555 1_555
H3 C4 1_555 1_555
C5 N1 1_555 1_555
C6 O1 1_555 1_555
C7 C3 1_555 1_555
Mg5 O3 1_555 1_555
Mg7 O2 1_555 1_555
Mg9 O4 1_555 1_555
C1 C6 1_555 1_555
C4 C5 1_555 1_555
H1 O5 1_555 1_555
O11 Mg3 1_555 1_555
O13 Mg3 1_555 1_555
O15 Mg2_2 1_555 1_555
Mg2_2 O5 1_555 1_555
N2 C8 1_555 1_555
O7 C13 1_555 1_555
O8 C14 1_555 1_555
O9 C14 1_555 1_555
C8 C9 1_555 1_555
C9 H6 1_555 1_555
C10 C9 1_555 1_555
C11 C10 1_555 1_555
H7 C11 1_555 1_555
C12 N2 1_555 1_555
H8 C12 1_555 1_555
C13 O6 1_555 1_555
C14 C10 1_555 1_555
Mg4 O8 1_555 1_555
Mg9 O9 1_555 1_555
C8 C13 1_555 1_555
C11 C12 1_555 1_555
Mg4 N1_2 1_555 1_555
Mg9 O1_2 1_555 1_555
N1_2 C1_2 1_555 1_555
O1_2 Mg4 1_555 1_555
O2_2 C6_2 1_555 1_555
O13 C7_2 1_555 1_555
O15 C7_2 1_555 1_555
O5_2 Mg4 1_555 1_555
H1_2 O5_2 1_555 1_555
C1_2 C2_2 1_555 1_555
C2_2 H2_2 1_555 1_555
C3_2 C2_2 1_555 1_555
C4_2 C3_2 1_555 1_555
H3_2 C4_2 1_555 1_555
C5_2 N1_2 1_555 1_555
C6_2 O1_2 1_555 1_555
C7_2 C3_2 1_555 1_555
Mg5 N2_2 1_555 1_555
N2_2 C8_2 1_555 1_555
O6_2 Mg9 1_555 1_555
O7_2 C13_2 1_555 1_555
O14 C14_2 1_555 1_555
O16 C14_2 1_555 1_555
O10_2 Mg9 1_555 1_555
H5_2 O10_2 1_555 1_555
C8_2 C9_2 1_555 1_555
C9_2 H6_2 1_555 1_555
C10_2 C9_2 1_555 1_555
C11_2 C10_2 1_555 1_555
H7_2 C11_2 1_555 1_555
C12_2 N2_2 1_555 1_555
H8_2 C12_2 1_555 1_555
C13_2 O6_2 1_555 1_555
C14_2 C10_2 1_555 1_555
Mg7_2 O2_2 1_555 1_555
O11_2 Mg5 1_555 1_555
O18_2 Mg5 1_555 1_555
Mg9 O5_2 1_555 1_555
C1_2 C6_2 1_555 1_555
C4_2 C5_2 1_555 1_555
Mg5 O6_2 1_555 1_555
Mg5 O10_2 1_555 1_555
O10_2 Mg7_2 1_555 1_555
C8_2 C13_2 1_555 1_555
C11_2 C12_2 1_555 1_555
Mg7_2 O18_2 1_555 1_555
Mg6_2 O17_2 1_555 1_555
N2_3 C8_3 1_555 1_555
O12 C13_3 1_555 1_555
O8_2 C14_3 1_555 1_555
O9_2 C14_3 1_555 1_555
C8_3 C9_3 1_555 1_555
C9_3 H6_3 1_555 1_555
C10_3 C9_3 1_555 1_555
C11_3 C10_3 1_555 1_555
H7_3 C11_3 1_555 1_555
C12_3 N2_3 1_555 1_555
H8_3 C12_3 1_555 1_555
C13_3 O6_3 1_555 1_555
C14_3 C10_3 1_555 1_555
Mg6_2 O8_2 1_555 1_555
Mg8 O9_2 1_555 1_555
C8_3 C13_3 1_555 1_555
C11_3 C12_3 1_555 1_555
H1_3 O17 1_555 1_555
O13_2 Mg7 1_555 1_555
O15_2 Mg2_3 1_555 1_555
Mg2_3 O17 1_555 1_555
N1_3 C1_3 1_555 1_555
O11 C6_3 1_555 1_555
O3_2 C7_3 1_555 1_555
O4_2 C7_3 1_555 1_555
C1_3 C2_3 1_555 1_555
C2_3 H2_3 1_555 1_555
C3_3 C2_3 1_555 1_555
C4_3 C3_3 1_555 1_555
H3_3 C4_3 1_555 1_555
C5_3 N1_3 1_555 1_555
C6_3 O1_3 1_555 1_555
C7_3 C3_3 1_555 1_555
Mg7_2 O3_2 1_555 1_555
Mg8 O4_2 1_555 1_555
C1_3 C6_3 1_555 1_555
C4_3 C5_3 1_555 1_555
O18 Mg2_4 1_555 1_555
H5_3 O18 1_555 1_555
O14_2 Mg6 1_555 1_555
O16_2 Mg2_4 1_555 1_555
Mg6_2 N1_4 1_555 1_555
Mg8 O1_4 1_555 1_555
N1_4 C1_4 1_555 1_555
O1_4 Mg6_2 1_555 1_555
O11_2 C6_4 1_555 1_555
O13_2 C7_4 1_555 1_555
O15_2 C7_4 1_555 1_555
H1_4 O17_2 1_555 1_555
C1_4 C2_4 1_555 1_555
C2_4 H2_4 1_555 1_555
C3_4 C2_4 1_555 1_555
C4_4 C3_4 1_555 1_555
H3_4 C4_4 1_555 1_555
C5_4 N1_4 1_555 1_555
C6_4 O1_4 1_555 1_555
C7_4 C3_4 1_555 1_555
Mg7_2 N2_4 1_555 1_555
N2_4 C8_4 1_555 1_555
O6_4 Mg8 1_555 1_555
O12_2 C13_4 1_555 1_555
O14_2 C14_4 1_555 1_555
O16_2 C14_4 1_555 1_555
O18_2 Mg8 1_555 1_555
H5_4 O18_2 1_555 1_555
C8_4 C9_4 1_555 1_555
C9_4 H6_4 1_555 1_555
C10_4 C9_4 1_555 1_555
C11_4 C10_4 1_555 1_555
H7_4 C11_4 1_555 1_555
C12_4 N2_4 1_555 1_555
H8_4 C12_4 1_555 1_555
C13_4 O6_4 1_555 1_555
C14_4 C10_4 1_555 1_555
Mg8 O17_2 1_555 1_555
C1_4 C6_4 1_555 1_555
C4_4 C5_4 1_555 1_555
Mg7_2 O6_4 1_555 1_555
C8_4 C13_4 1_555 1_555
C11_4 C12_4 1_555 1_555

#END
