
###############################################################################
#
# This file contains modified crystal structure data generated from the
# MOF subset of the Cambridge Structural Database (CSD) v543 
# hosted by the Cambridge Crystallographic Data Centre (CCDC).
#
# This work is licensed under the Creative Commons
# Attribution-NonCommercial-ShareAlike 4.0 International License.
# To view a copy of this license, visit
# http://creativecommons.org/licenses/by-nc-sa/4.0/
# or send a letter to
# Creative Commons, PO Box 1866, Mountain View, CA 94042, USA.
#
# CIF created using the CSD Python API on 29 September 2022
# The structure has been converted into the P1 space group
# The structure has a 3D framework
# The original CSD entry NUDMOQ is in the monoclinic crystal system
# The framework has been calculated to contain at least 10.0% void space
# The void calculation uses a probe of radius 1.32A, grid spacing 0.4
#
###############################################################################

data_NUDMOQ
_chemical_formula_moiety         '(C56 H32 Mg12 N8 O40)n'
_symmetry_cell_setting           triclinic
_symmetry_space_group_name_H-M   'P 1'
_symmetry_Int_Tables_number      1
_space_group_name_Hall           'P 1'
loop_
_symmetry_equiv_pos_site_id
_symmetry_equiv_pos_as_xyz
1 x,y,z
_cell_length_a                   17.8074(7)
_cell_length_b                   13.1145(6)
_cell_length_c                   11.0514(5)
_cell_angle_alpha                90
_cell_angle_beta                 103.844(3)
_cell_angle_gamma                90
_cell_volume                     2505.92
loop_
_atom_site_label
_atom_site_type_symbol
_atom_site_fract_x
_atom_site_fract_y
_atom_site_fract_z
Mg9 Mg -0.0000 0.59502(11) 0.7500
O11 O 0.36415(12) 0.08556(17) 0.09568(19)
Mg1 Mg 0.58662(5) 0.03403(8) 0.54347(9)
Mg2 Mg 0.5000 0.09502(11) 0.7500
O5 O 0.47874(12) 0.08445(17) 0.5538(2)
H1 H 0.467(4) 0.136(5) 0.528(6)
Mg3 Mg 0.41338(5) 0.03403(8) 0.95653(9)
O10 O 0.52126(12) 0.08445(17) 0.9462(2)
H5 H 0.533(4) 0.136(5) 0.972(6)
O12 O 0.63585(12) 0.08556(17) 0.40432(19)
O13 O 0.35157(13) 0.15944(19) 0.8676(2)
O14 O 0.64843(13) 0.15944(19) 0.6324(2)
O15 O 0.41611(12) 0.20314(17) 0.7240(2)
O16 O 0.58389(12) 0.20314(17) 0.7760(2)
H8 H 0.266(2) 0.930(3) 0.025(3)
Mg7 Mg 0.58662(5) 0.96597(8) 0.04347(9)
O18 O 0.47874(12) 0.91555(17) 0.0538(2)
N1 N 0.68677(15) 0.9312(2) 0.6155(2)
O1 O 0.57715(12) 0.98486(17) 0.72229(19)
O2 O 0.63585(12) 0.91444(17) 0.90432(19)
O3 O 0.85157(13) 0.65944(19) 0.8676(2)
O4 O 0.91611(12) 0.70314(17) 0.7240(2)
C1 C 0.69094(17) 0.8926(3) 0.7303(3)
C2 C 0.74621(19) 0.8220(3) 0.7874(3)
H2 H 0.747(3) 0.799(3) 0.877(4)
C3 C 0.80081(18) 0.7903(3) 0.7238(3)
C4 C 0.79819(19) 0.8323(3) 0.6073(3)
H3 H 0.835(2) 0.808(3) 0.555(4)
C5 C 0.74046(19) 0.9012(3) 0.5565(3)
H4 H 0.734(2) 0.930(3) 0.475(3)
C6 C 0.63005(17) 0.9333(2) 0.7921(3)
C7 C 0.86140(18) 0.7108(2) 0.7772(3)
N2 N 0.31323(15) 0.9312(2) 0.8845(2)
O6 O 0.42285(12) 0.98486(17) 0.77771(19)
O7 O 0.36415(12) 0.91444(17) 0.59568(19)
O8 O 0.14843(13) 0.65944(19) 0.6324(2)
O9 O 0.08389(12) 0.70314(17) 0.7760(2)
C8 C 0.30906(17) 0.8926(3) 0.7697(3)
C9 C 0.25379(19) 0.8220(3) 0.7126(3)
H6 H 0.253(3) 0.799(3) 0.623(4)
C10 C 0.19919(18) 0.7903(3) 0.7762(3)
C11 C 0.20181(19) 0.8323(3) 0.8927(3)
H7 H 0.165(2) 0.808(3) 0.945(4)
C12 C 0.25954(19) 0.9012(3) 0.9435(3)
C13 C 0.36995(17) 0.9333(2) 0.7079(3)
C14 C 0.13860(18) 0.7108(2) 0.7228(3)
Mg4 Mg 0.08662(5) 0.53403(8) 0.54347(9)
Mg5 Mg 0.91338(5) 0.53403(8) 0.95653(9)
Mg6 Mg 0.41338(5) 0.96597(8) 0.45653(9)
Mg9_2 Mg 1.0000 0.59502(11) 0.7500
O17 O 0.52126(12) 0.91555(17) 0.4462(2)
Mg7_2 Mg 0.08662(5) 0.46597(8) 0.04347(9)
N1_2 N 0.18677(15) 0.4312(2) 0.6155(2)
O1_2 O 0.07715(12) 0.48486(17) 0.72229(19)
O2_2 O 0.13585(12) 0.41444(17) 0.90432(19)
C1_2 C 0.19094(17) 0.3926(3) 0.7303(3)
C2_2 C 0.24621(19) 0.3220(3) 0.7874(3)
H2_2 H 0.247(3) 0.299(3) 0.877(4)
C3_2 C 0.30081(18) 0.2903(3) 0.7238(3)
C4_2 C 0.29819(19) 0.3323(3) 0.6073(3)
H3_2 H 0.335(2) 0.308(3) 0.555(4)
C5_2 C 0.24046(19) 0.4012(3) 0.5565(3)
H4_2 H 0.234(2) 0.430(3) 0.475(3)
C6_2 C 0.13005(17) 0.4333(2) 0.7921(3)
C7_2 C 0.36140(18) 0.2108(2) 0.7772(3)
O10_2 O 0.02126(12) 0.58445(17) 0.9462(2)
H5_2 H 0.033(4) 0.636(5) 0.972(6)
O12_2 O 0.13585(12) 0.58556(17) 0.40432(19)
O17_2 O 0.02126(12) 0.41555(17) 0.4462(2)
H8_2 H 0.766(2) 0.430(3) 0.025(3)
O11_2 O 0.86415(12) 0.58556(17) 0.09568(19)
O18_2 O 0.97874(12) 0.41555(17) 0.0538(2)
O5_2 O 0.97874(12) 0.58445(17) 0.5538(2)
H1_2 H 0.967(4) 0.636(5) 0.528(6)
N2_2 N 0.81323(15) 0.4312(2) 0.8845(2)
O6_2 O 0.92285(12) 0.48486(17) 0.77771(19)
O7_2 O 0.86415(12) 0.41444(17) 0.59568(19)
C8_2 C 0.80906(17) 0.3926(3) 0.7697(3)
C9_2 C 0.75379(19) 0.3220(3) 0.7126(3)
H6_2 H 0.753(3) 0.299(3) 0.623(4)
C10_2 C 0.69919(18) 0.2903(3) 0.7762(3)
C11_2 C 0.70181(19) 0.3323(3) 0.8927(3)
H7_2 H 0.665(2) 0.308(3) 0.945(4)
C12_2 C 0.75954(19) 0.4012(3) 0.9435(3)
C13_2 C 0.86995(17) 0.4333(2) 0.7079(3)
C14_2 C 0.63860(18) 0.2108(2) 0.7228(3)
Mg6_2 Mg 0.91338(5) 0.46597(8) 0.45653(9)
Mg8 Mg 0.0000 0.40498(11) 0.2500
N1_3 N 0.31323(15) 0.0688(2) 0.3845(2)
O1_3 O 0.42285(12) 0.01514(17) 0.27771(19)
O3_2 O 0.14843(13) 0.34056(19) 0.1324(2)
O4_2 O 0.08389(12) 0.29686(17) 0.2760(2)
C1_3 C 0.30906(17) 0.1074(3) 0.2697(3)
C2_3 C 0.25379(19) 0.1780(3) 0.2126(3)
H2_3 H 0.253(3) 0.201(3) 0.123(4)
C3_3 C 0.19919(18) 0.2097(3) 0.2762(3)
C4_3 C 0.20181(19) 0.1677(3) 0.3927(3)
H3_3 H 0.165(2) 0.192(3) 0.445(4)
C5_3 C 0.25954(19) 0.0988(3) 0.4435(3)
H4_3 H 0.266(2) 0.070(3) 0.525(3)
C6_3 C 0.36995(17) 0.0667(2) 0.2079(3)
C7_3 C 0.13860(18) 0.2892(2) 0.2228(3)
N2_3 N 0.68677(15) 0.0688(2) 0.1155(2)
O6_3 O 0.57715(12) 0.01514(17) 0.22229(19)
O8_2 O 0.85157(13) 0.34056(19) 0.3676(2)
O9_2 O 0.91611(12) 0.29686(17) 0.2240(2)
C8_3 C 0.69094(17) 0.1074(3) 0.2303(3)
C9_3 C 0.74621(19) 0.1780(3) 0.2874(3)
H6_3 H 0.747(3) 0.201(3) 0.377(4)
C10_3 C 0.80081(18) 0.2097(3) 0.2238(3)
C11_3 C 0.79819(19) 0.1677(3) 0.1073(3)
H7_3 H 0.835(2) 0.192(3) 0.055(4)
C12_3 C 0.74046(19) 0.0988(3) 0.0565(3)
C13_3 C 0.63005(17) 0.0667(2) 0.2921(3)
C14_3 C 0.86140(18) 0.2892(2) 0.2772(3)
Mg8_2 Mg 1.0000 0.40498(11) 0.2500
H8_3 H 0.734(2) 0.070(3) 0.975(3)
Mg2_2 Mg 0.5000 0.90498(11) 0.2500
H1_3 H 0.533(4) 0.864(5) 0.472(6)
H5_3 H 0.467(4) 0.864(5) 0.028(6)
O13_2 O 0.64843(13) 0.84056(19) 0.1324(2)
O14_2 O 0.35157(13) 0.84056(19) 0.3676(2)
O15_2 O 0.58389(12) 0.79686(17) 0.2760(2)
O16_2 O 0.41611(12) 0.79686(17) 0.2240(2)
H1_4 H 0.033(4) 0.364(5) 0.472(6)
N2_4 N 0.18677(15) 0.5688(2) 0.1155(2)
O6_4 O 0.07715(12) 0.51514(17) 0.22229(19)
C8_4 C 0.19094(17) 0.6074(3) 0.2303(3)
C9_4 C 0.24621(19) 0.6780(3) 0.2874(3)
H6_4 H 0.247(3) 0.701(3) 0.377(4)
C10_4 C 0.30081(18) 0.7097(3) 0.2238(3)
C11_4 C 0.29819(19) 0.6677(3) 0.1073(3)
H7_4 H 0.335(2) 0.692(3) 0.055(4)
C12_4 C 0.24046(19) 0.5988(3) 0.0565(3)
C13_4 C 0.13005(17) 0.5667(2) 0.2921(3)
C14_4 C 0.36140(18) 0.7892(2) 0.2772(3)
H8_4 H 0.234(2) 0.570(3) 0.975(3)
N1_4 N 0.81323(15) 0.5688(2) 0.3845(2)
O1_4 O 0.92285(12) 0.51514(17) 0.27771(19)
C1_4 C 0.80906(17) 0.6074(3) 0.2697(3)
C2_4 C 0.75379(19) 0.6780(3) 0.2126(3)
H2_4 H 0.753(3) 0.701(3) 0.123(4)
C3_4 C 0.69919(18) 0.7097(3) 0.2762(3)
C4_4 C 0.70181(19) 0.6677(3) 0.3927(3)
H3_4 H 0.665(2) 0.692(3) 0.445(4)
C5_4 C 0.75954(19) 0.5988(3) 0.4435(3)
H4_4 H 0.766(2) 0.570(3) 0.525(3)
C6_4 C 0.86995(17) 0.5667(2) 0.2079(3)
C7_4 C 0.63860(18) 0.7892(2) 0.2228(3)
H5_4 H 0.967(4) 0.364(5) 0.028(6)
loop_
_geom_bond_atom_site_label_1
_geom_bond_atom_site_label_2
_geom_bond_site_symmetry_1
_geom_bond_site_symmetry_2
O5 Mg1 1_555 1_555
H1 O5 1_555 1_555
O10 Mg2 1_555 1_555
H5 O10 1_555 1_555
O12 Mg1 1_555 1_555
O13 Mg3 1_555 1_555
O14 Mg1 1_555 1_555
O15 Mg2 1_555 1_555
O16 Mg2 1_555 1_555
Mg2 O5 1_555 1_555
Mg3 O10 1_555 1_555
Mg7 O18 1_555 1_555
N1 C1 1_555 1_555
O2 C6 1_555 1_555
O3 C7 1_555 1_555
O4 C7 1_555 1_555
C1 C2 1_555 1_555
C2 H2 1_555 1_555
C3 C2 1_555 1_555
C4 C3 1_555 1_555
H3 C4 1_555 1_555
C5 N1 1_555 1_555
H4 C5 1_555 1_555
C6 O1 1_555 1_555
C7 C3 1_555 1_555
N2 C8 1_555 1_555
O7 C13 1_555 1_555
O8 C14 1_555 1_555
O9 C14 1_555 1_555
C8 C9 1_555 1_555
C9 H6 1_555 1_555
C10 C9 1_555 1_555
C11 C10 1_555 1_555
H7 C11 1_555 1_555
C12 N2 1_555 1_555
C13 O6 1_555 1_555
C14 C10 1_555 1_555
Mg4 O8 1_555 1_555
Mg5 O3 1_555 1_555
Mg9 O9 1_555 1_555
Mg9_2 O4 1_555 1_555
C1 C6 1_555 1_555
C4 C5 1_555 1_555
O7 Mg6 1_555 1_555
C8 C13 1_555 1_555
C11 C12 1_555 1_555
Mg6 O17 1_555 1_555
Mg4 N1_2 1_555 1_555
Mg9 O1_2 1_555 1_555
N1_2 C1_2 1_555 1_555
O1_2 Mg4 1_555 1_555
O2_2 C6_2 1_555 1_555
O13 C7_2 1_555 1_555
O15 C7_2 1_555 1_555
C1_2 C2_2 1_555 1_555
C2_2 H2_2 1_555 1_555
C3_2 C2_2 1_555 1_555
C4_2 C3_2 1_555 1_555
H3_2 C4_2 1_555 1_555
C5_2 N1_2 1_555 1_555
H4_2 C5_2 1_555 1_555
C6_2 O1_2 1_555 1_555
C7_2 C3_2 1_555 1_555
O10_2 Mg9 1_555 1_555
H5_2 O10_2 1_555 1_555
O12_2 Mg4 1_555 1_555
O17_2 Mg4 1_555 1_555
C1_2 C6_2 1_555 1_555
C4_2 C5_2 1_555 1_555
H1_2 O5_2 1_555 1_555
Mg5 N2_2 1_555 1_555
N2_2 C8_2 1_555 1_555
O6_2 Mg9_2 1_555 1_555
O7_2 C13_2 1_555 1_555
O14 C14_2 1_555 1_555
O16 C14_2 1_555 1_555
C8_2 C9_2 1_555 1_555
C9_2 H6_2 1_555 1_555
C10_2 C9_2 1_555 1_555
C11_2 C10_2 1_555 1_555
H7_2 C11_2 1_555 1_555
C12_2 N2_2 1_555 1_555
C13_2 O6_2 1_555 1_555
C14_2 C10_2 1_555 1_555
Mg6_2 O5_2 1_555 1_555
Mg9_2 O5_2 1_555 1_555
Mg5 O6_2 1_555 1_555
O7_2 Mg6_2 1_555 1_555
C8_2 C13_2 1_555 1_555
C11_2 C12_2 1_555 1_555
N1_3 C1_3 1_555 1_555
O11 C6_3 1_555 1_555
O3_2 C7_3 1_555 1_555
O4_2 C7_3 1_555 1_555
C1_3 C2_3 1_555 1_555
C2_3 H2_3 1_555 1_555
C3_3 C2_3 1_555 1_555
C4_3 C3_3 1_555 1_555
H3_3 C4_3 1_555 1_555
C5_3 N1_3 1_555 1_555
H4_3 C5_3 1_555 1_555
C6_3 O1_3 1_555 1_555
C7_3 C3_3 1_555 1_555
N2_3 C8_3 1_555 1_555
O12 C13_3 1_555 1_555
O8_2 C14_3 1_555 1_555
O9_2 C14_3 1_555 1_555
C8_3 C9_3 1_555 1_555
C9_3 H6_3 1_555 1_555
C10_3 C9_3 1_555 1_555
C11_3 C10_3 1_555 1_555
H7_3 C11_3 1_555 1_555
C12_3 N2_3 1_555 1_555
C13_3 O6_3 1_555 1_555
C14_3 C10_3 1_555 1_555
Mg6_2 O8_2 1_555 1_555
Mg7_2 O3_2 1_555 1_555
Mg8_2 O9_2 1_555 1_555
Mg8 O4_2 1_555 1_555
C1_3 C6_3 1_555 1_555
C4_3 C5_3 1_555 1_555
C8_3 C13_3 1_555 1_555
C11_3 C12_3 1_555 1_555
H1_3 O17 1_555 1_555
O18 Mg2_2 1_555 1_555
H5_3 O18 1_555 1_555
O13_2 Mg7 1_555 1_555
O14_2 Mg6 1_555 1_555
O15_2 Mg2_2 1_555 1_555
O16_2 Mg2_2 1_555 1_555
Mg2_2 O17 1_555 1_555
H1_4 O17_2 1_555 1_555
Mg7_2 N2_4 1_555 1_555
N2_4 C8_4 1_555 1_555
O6_4 Mg8 1_555 1_555
O12_2 C13_4 1_555 1_555
O14_2 C14_4 1_555 1_555
O16_2 C14_4 1_555 1_555
C8_4 C9_4 1_555 1_555
C9_4 H6_4 1_555 1_555
C10_4 C9_4 1_555 1_555
C11_4 C10_4 1_555 1_555
H7_4 C11_4 1_555 1_555
C12_4 N2_4 1_555 1_555
C13_4 O6_4 1_555 1_555
C14_4 C10_4 1_555 1_555
Mg8 O17_2 1_555 1_555
Mg7_2 O6_4 1_555 1_555
C8_4 C13_4 1_555 1_555
C11_4 C12_4 1_555 1_555
Mg6_2 N1_4 1_555 1_555
Mg8_2 O1_4 1_555 1_555
N1_4 C1_4 1_555 1_555
O1_4 Mg6_2 1_555 1_555
O11_2 C6_4 1_555 1_555
O13_2 C7_4 1_555 1_555
O15_2 C7_4 1_555 1_555
C1_4 C2_4 1_555 1_555
C2_4 H2_4 1_555 1_555
C3_4 C2_4 1_555 1_555
C4_4 C3_4 1_555 1_555
H3_4 C4_4 1_555 1_555
C5_4 N1_4 1_555 1_555
H4_4 C5_4 1_555 1_555
C6_4 O1_4 1_555 1_555
C7_4 C3_4 1_555 1_555
O18_2 Mg8_2 1_555 1_555
H5_4 O18_2 1_555 1_555
C1_4 C6_4 1_555 1_555
C4_4 C5_4 1_555 1_555

#END
