
###############################################################################
#
# This file contains modified crystal structure data generated from the
# MOF subset of the Cambridge Structural Database (CSD) v543 
# hosted by the Cambridge Crystallographic Data Centre (CCDC).
#
# This work is licensed under the Creative Commons
# Attribution-NonCommercial-ShareAlike 4.0 International License.
# To view a copy of this license, visit
# http://creativecommons.org/licenses/by-nc-sa/4.0/
# or send a letter to
# Creative Commons, PO Box 1866, Mountain View, CA 94042, USA.
#
# CIF created using the CSD Python API on 29 September 2022
# The structure has been converted into the P1 space group
# The structure has a 3D framework
# The original CSD entry NUDMUW01 is in the monoclinic crystal system
# The framework has been calculated to contain at least 10.0% void space
# The void calculation uses a probe of radius 1.32A, grid spacing 0.4
#
###############################################################################

data_NUDMUW01
_chemical_formula_moiety         '(C56 H32 Mg12 N8 O40)n'
_symmetry_cell_setting           triclinic
_symmetry_space_group_name_H-M   'P 1'
_symmetry_Int_Tables_number      1
_space_group_name_Hall           'P 1'
loop_
_symmetry_equiv_pos_site_id
_symmetry_equiv_pos_as_xyz
1 x,y,z
_cell_length_a                   17.979(4)
_cell_length_b                   12.814(2)
_cell_length_c                   11.017(2)
_cell_angle_alpha                90
_cell_angle_beta                 103.296(5)
_cell_angle_gamma                90
_cell_volume                     2470.09
loop_
_atom_site_label
_atom_site_type_symbol
_atom_site_fract_x
_atom_site_fract_y
_atom_site_fract_z
Mg1 Mg -0.0000 0.40303(18) 0.2500
Mg2 Mg 0.08534(9) 0.46438(13) 0.04154(14)
O1 O 0.07657(19) 0.5155(3) 0.2208(3)
O2 O 0.1336(2) 0.5886(3) 0.4011(3)
O3 O 0.3534(2) 0.8369(3) 0.3687(3)
O4 O 0.4162(2) 0.7931(3) 0.2232(3)
N1 N 0.1855(2) 0.5676(3) 0.1131(4)
C1 C 0.1899(3) 0.6073(4) 0.2276(4)
C2 C 0.2460(3) 0.6765(4) 0.2848(5)
H2 H 0.251(3) 0.700(4) 0.355(5)
C3 C 0.3013(3) 0.7072(4) 0.2232(4)
C4 C 0.2983(3) 0.6632(5) 0.1063(5)
H3 H 0.337(3) 0.681(4) 0.063(5)
C5 C 0.2401(3) 0.5956(4) 0.0542(5)
C6 C 0.1289(3) 0.5686(4) 0.2897(5)
C7 C 0.3620(3) 0.7850(4) 0.2772(4)
O10 O 0.0210(2) 0.4140(3) 0.4461(3)
H5 H 0.041(3) 0.356(5) 0.471(5)
Mg5 Mg 0.5000 0.90303(18) 0.2500
Mg7 Mg 0.41466(9) 0.96438(13) 0.45846(14)
Mg9 Mg 0.08534(9) 0.53562(13) 0.54154(14)
O14 O 0.1466(2) 0.3369(3) 0.1313(3)
O16 O 0.0838(2) 0.2931(3) 0.2768(3)
H4 H 0.242(3) 0.569(4) 0.976(5)
O12 O 0.1336(2) 0.4114(3) 0.9011(3)
O17 O 0.0210(2) 0.5860(3) 0.9461(3)
Mg1_2 Mg 1.0000 0.40303(18) 0.2500
O5 O 0.9790(2) 0.4140(3) 0.0539(3)
H1 H 0.959(3) 0.356(5) 0.029(5)
Mg3 Mg 0.91466(9) 0.46438(13) 0.45846(14)
O6 O 0.92343(19) 0.5155(3) 0.2792(3)
O7 O 0.8664(2) 0.5886(3) 0.0989(3)
O8 O 0.6466(2) 0.8369(3) 0.1313(3)
O9 O 0.5838(2) 0.7931(3) 0.2768(3)
N2 N 0.8145(2) 0.5676(3) 0.3869(4)
C8 C 0.8101(3) 0.6073(4) 0.2724(4)
C9 C 0.7540(3) 0.6765(4) 0.2152(5)
H6 H 0.749(3) 0.700(4) 0.145(5)
C10 C 0.6987(3) 0.7072(4) 0.2768(4)
C11 C 0.7017(3) 0.6632(5) 0.3937(5)
H7 H 0.663(3) 0.681(4) 0.437(5)
C12 C 0.7599(3) 0.5956(4) 0.4458(5)
H8 H 0.758(3) 0.569(4) 0.524(5)
C13 C 0.8711(3) 0.5686(4) 0.2103(5)
C14 C 0.6380(3) 0.7850(4) 0.2228(4)
Mg6 Mg 0.58534(9) 0.96438(13) 0.04154(14)
O11 O 0.8664(2) 0.4114(3) 0.5989(3)
O13 O 0.8534(2) 0.3369(3) 0.3687(3)
O15 O 0.9162(2) 0.2931(3) 0.2232(3)
O18 O 0.9790(2) 0.5860(3) 0.5539(3)
Mg8 Mg 0.91466(9) 0.53562(13) 0.95846(14)
O1_2 O 0.57657(19) 0.0155(3) 0.2208(3)
O2_2 O 0.6336(2) 0.0886(3) 0.4011(3)
N1_2 N 0.6855(2) 0.0676(3) 0.1131(4)
C1_2 C 0.6899(3) 0.1073(4) 0.2276(4)
C2_2 C 0.7460(3) 0.1765(4) 0.2848(5)
H2_2 H 0.751(3) 0.200(4) 0.355(5)
C3_2 C 0.8013(3) 0.2072(4) 0.2232(4)
C4_2 C 0.7983(3) 0.1632(5) 0.1063(5)
H3_2 H 0.837(3) 0.181(4) 0.063(5)
C5_2 C 0.7401(3) 0.0956(4) 0.0542(5)
C6_2 C 0.6289(3) 0.0686(4) 0.2897(5)
C7_2 C 0.8620(3) 0.2850(4) 0.2772(4)
O6_2 O 0.42343(19) 0.0155(3) 0.2792(3)
O7_2 O 0.3664(2) 0.0886(3) 0.0989(3)
N2_2 N 0.3145(2) 0.0676(3) 0.3869(4)
C8_2 C 0.3101(3) 0.1073(4) 0.2724(4)
C9_2 C 0.2540(3) 0.1765(4) 0.2152(5)
H6_2 H 0.249(3) 0.200(4) 0.145(5)
C10_2 C 0.1987(3) 0.2072(4) 0.2768(4)
C11_2 C 0.2017(3) 0.1632(5) 0.3937(5)
H7_2 H 0.163(3) 0.181(4) 0.437(5)
C12_2 C 0.2599(3) 0.0956(4) 0.4458(5)
H8_2 H 0.258(3) 0.069(4) 0.524(5)
C13_2 C 0.3711(3) 0.0686(4) 0.2103(5)
C14_2 C 0.1380(3) 0.2850(4) 0.2228(4)
Mg9_2 Mg 0.58534(9) 0.03562(13) 0.54154(14)
O18_2 O 0.4790(2) 0.0860(3) 0.5539(3)
H4_2 H 0.742(3) 0.069(4) 0.976(5)
Mg8_2 Mg 0.41466(9) 0.03562(13) 0.95846(14)
O17_2 O 0.5210(2) 0.0860(3) 0.9461(3)
O5_2 O 0.4790(2) 0.9140(3) 0.0539(3)
H1_2 H 0.459(3) 0.856(5) 0.029(5)
O10_2 O 0.5210(2) 0.9140(3) 0.4461(3)
H5_2 H 0.541(3) 0.856(5) 0.471(5)
O11_2 O 0.3664(2) 0.9114(3) 0.5989(3)
O12_2 O 0.6336(2) 0.9114(3) 0.9011(3)
Mg1_3 Mg 0.0000 0.59697(18) 0.7500
H1_3 H 0.041(3) 0.644(5) 0.971(5)
O6_3 O 0.07657(19) 0.4845(3) 0.7208(3)
O8_2 O 0.3534(2) 0.1631(3) 0.8687(3)
O9_2 O 0.4162(2) 0.2069(3) 0.7232(3)
N2_3 N 0.1855(2) 0.4324(3) 0.6131(4)
C8_3 C 0.1899(3) 0.3927(4) 0.7276(4)
C9_3 C 0.2460(3) 0.3235(4) 0.7848(5)
H6_3 H 0.251(3) 0.300(4) 0.855(5)
C10_3 C 0.3013(3) 0.2928(4) 0.7232(4)
C11_3 C 0.2983(3) 0.3368(5) 0.6063(5)
H7_3 H 0.337(3) 0.319(4) 0.563(5)
C12_3 C 0.2401(3) 0.4044(4) 0.5542(5)
H8_3 H 0.242(3) 0.431(4) 0.476(5)
C13_3 C 0.1289(3) 0.4314(4) 0.7897(5)
C14_3 C 0.3620(3) 0.2150(4) 0.7772(4)
Mg4 Mg 0.5000 0.09697(18) 0.7500
O13_2 O 0.1466(2) 0.6631(3) 0.6313(3)
O15_2 O 0.0838(2) 0.7069(3) 0.7768(3)
H4_3 H 0.758(3) 0.431(4) 0.024(5)
Mg1_4 Mg 1.0000 0.59697(18) 0.7500
O1_3 O 0.92343(19) 0.4845(3) 0.7792(3)
O3_2 O 0.6466(2) 0.1631(3) 0.6313(3)
O4_2 O 0.5838(2) 0.2069(3) 0.7768(3)
N1_3 N 0.8145(2) 0.4324(3) 0.8869(4)
C1_3 C 0.8101(3) 0.3927(4) 0.7724(4)
C2_3 C 0.7540(3) 0.3235(4) 0.7152(5)
H2_3 H 0.749(3) 0.300(4) 0.645(5)
C3_3 C 0.6987(3) 0.2928(4) 0.7768(4)
C4_3 C 0.7017(3) 0.3368(5) 0.8937(5)
H3_3 H 0.663(3) 0.319(4) 0.937(5)
C5_3 C 0.7599(3) 0.4044(4) 0.9458(5)
C6_3 C 0.8711(3) 0.4314(4) 0.7103(5)
C7_3 C 0.6380(3) 0.2150(4) 0.7228(4)
H5_3 H 0.959(3) 0.644(5) 0.529(5)
O14_2 O 0.8534(2) 0.6631(3) 0.8687(3)
O16_2 O 0.9162(2) 0.7069(3) 0.7232(3)
H1_4 H 0.541(3) 0.144(5) 0.971(5)
H5_4 H 0.459(3) 0.144(5) 0.529(5)
H4_4 H 0.258(3) 0.931(4) 0.024(5)
O1_4 O 0.42343(19) 0.9845(3) 0.7792(3)
N1_4 N 0.3145(2) 0.9324(3) 0.8869(4)
C1_4 C 0.3101(3) 0.8927(4) 0.7724(4)
C2_4 C 0.2540(3) 0.8235(4) 0.7152(5)
H2_4 H 0.249(3) 0.800(4) 0.645(5)
C3_4 C 0.1987(3) 0.7928(4) 0.7768(4)
C4_4 C 0.2017(3) 0.8368(5) 0.8937(5)
H3_4 H 0.163(3) 0.819(4) 0.937(5)
C5_4 C 0.2599(3) 0.9044(4) 0.9458(5)
C6_4 C 0.3711(3) 0.9314(4) 0.7103(5)
C7_4 C 0.1380(3) 0.7150(4) 0.7228(4)
O6_4 O 0.57657(19) 0.9845(3) 0.7208(3)
N2_4 N 0.6855(2) 0.9324(3) 0.6131(4)
C8_4 C 0.6899(3) 0.8927(4) 0.7276(4)
C9_4 C 0.7460(3) 0.8235(4) 0.7848(5)
H6_4 H 0.751(3) 0.800(4) 0.855(5)
C10_4 C 0.8013(3) 0.7928(4) 0.7232(4)
C11_4 C 0.7983(3) 0.8368(5) 0.6063(5)
H7_4 H 0.837(3) 0.819(4) 0.563(5)
C12_4 C 0.7401(3) 0.9044(4) 0.5542(5)
H8_4 H 0.742(3) 0.931(4) 0.476(5)
C13_4 C 0.6289(3) 0.9314(4) 0.7897(5)
C14_4 C 0.8620(3) 0.7150(4) 0.7772(4)
loop_
_geom_bond_atom_site_label_1
_geom_bond_atom_site_label_2
_geom_bond_site_symmetry_1
_geom_bond_site_symmetry_2
Mg1 O1 1_555 1_555
Mg2 O1 1_555 1_555
O1 C6 1_555 1_555
O2 C6 1_555 1_555
O3 C7 1_555 1_555
O4 C7 1_555 1_555
N1 Mg2 1_555 1_555
C1 N1 1_555 1_555
C2 C1 1_555 1_555
H2 C2 1_555 1_555
C3 C2 1_555 1_555
C4 C3 1_555 1_555
H3 C4 1_555 1_555
C5 N1 1_555 1_555
C6 C1 1_555 1_555
C7 C3 1_555 1_555
O10 Mg1 1_555 1_555
H5 O10 1_555 1_555
Mg5 O4 1_555 1_555
Mg7 O3 1_555 1_555
Mg9 O2 1_555 1_555
O14 Mg2 1_555 1_555
O16 Mg1 1_555 1_555
C4 C5 1_555 1_555
O10 Mg9 1_555 1_555
O5 Mg1_2 1_555 1_555
H1 O5 1_555 1_555
Mg3 O6 1_555 1_555
O6 Mg1_2 1_555 1_555
O7 C13 1_555 1_555
O8 C14 1_555 1_555
O9 C14 1_555 1_555
N2 Mg3 1_555 1_555
C8 N2 1_555 1_555
C9 C8 1_555 1_555
H6 C9 1_555 1_555
C10 C9 1_555 1_555
C11 C10 1_555 1_555
H7 C11 1_555 1_555
C12 N2 1_555 1_555
H8 C12 1_555 1_555
C13 O6 1_555 1_555
C14 C10 1_555 1_555
Mg5 O9 1_555 1_555
Mg6 O8 1_555 1_555
O11 Mg3 1_555 1_555
O13 Mg3 1_555 1_555
O15 Mg1_2 1_555 1_555
O18 Mg3 1_555 1_555
C8 C13 1_555 1_555
C11 C12 1_555 1_555
O1_2 C6_2 1_555 1_555
O2_2 C6_2 1_555 1_555
O13 C7_2 1_555 1_555
O15 C7_2 1_555 1_555
C1_2 N1_2 1_555 1_555
C2_2 C1_2 1_555 1_555
H2_2 C2_2 1_555 1_555
C3_2 C2_2 1_555 1_555
C4_2 C3_2 1_555 1_555
H3_2 C4_2 1_555 1_555
C5_2 N1_2 1_555 1_555
C6_2 C1_2 1_555 1_555
C7_2 C3_2 1_555 1_555
O7_2 C13_2 1_555 1_555
O14 C14_2 1_555 1_555
O16 C14_2 1_555 1_555
C8_2 N2_2 1_555 1_555
C9_2 C8_2 1_555 1_555
H6_2 C9_2 1_555 1_555
C10_2 C9_2 1_555 1_555
C11_2 C10_2 1_555 1_555
H7_2 C11_2 1_555 1_555
C12_2 N2_2 1_555 1_555
H8_2 C12_2 1_555 1_555
C13_2 O6_2 1_555 1_555
C14_2 C10_2 1_555 1_555
Mg9_2 O2_2 1_555 1_555
C4_2 C5_2 1_555 1_555
C8_2 C13_2 1_555 1_555
C11_2 C12_2 1_555 1_555
Mg9_2 O18_2 1_555 1_555
Mg8_2 O17_2 1_555 1_555
O5_2 Mg5 1_555 1_555
H1_2 O5_2 1_555 1_555
O10_2 Mg5 1_555 1_555
H5_2 O10_2 1_555 1_555
O11_2 Mg7 1_555 1_555
Mg6 O5_2 1_555 1_555
Mg7 O10_2 1_555 1_555
O17 Mg1_3 1_555 1_555
H1_3 O17 1_555 1_555
Mg9 O6_3 1_555 1_555
O6_3 Mg1_3 1_555 1_555
O12 C13_3 1_555 1_555
O8_2 C14_3 1_555 1_555
O9_2 C14_3 1_555 1_555
N2_3 Mg9 1_555 1_555
C8_3 N2_3 1_555 1_555
C9_3 C8_3 1_555 1_555
H6_3 C9_3 1_555 1_555
C10_3 C9_3 1_555 1_555
C11_3 C10_3 1_555 1_555
H7_3 C11_3 1_555 1_555
C12_3 N2_3 1_555 1_555
H8_3 C12_3 1_555 1_555
C13_3 O6_3 1_555 1_555
C14_3 C10_3 1_555 1_555
Mg4 O9_2 1_555 1_555
Mg8_2 O8_2 1_555 1_555
O13_2 Mg9 1_555 1_555
O15_2 Mg1_3 1_555 1_555
C8_3 C13_3 1_555 1_555
C11_3 C12_3 1_555 1_555
Mg1_4 O1_3 1_555 1_555
Mg8 O1_3 1_555 1_555
O1_3 C6_3 1_555 1_555
O11 C6_3 1_555 1_555
O3_2 C7_3 1_555 1_555
O4_2 C7_3 1_555 1_555
N1_3 Mg8 1_555 1_555
C1_3 N1_3 1_555 1_555
C2_3 C1_3 1_555 1_555
H2_3 C2_3 1_555 1_555
C3_3 C2_3 1_555 1_555
C4_3 C3_3 1_555 1_555
H3_3 C4_3 1_555 1_555
C5_3 N1_3 1_555 1_555
C6_3 C1_3 1_555 1_555
C7_3 C3_3 1_555 1_555
O18 Mg1_4 1_555 1_555
H5_3 O18 1_555 1_555
Mg4 O4_2 1_555 1_555
Mg9_2 O3_2 1_555 1_555
O14_2 Mg8 1_555 1_555
O16_2 Mg1_4 1_555 1_555
C4_3 C5_3 1_555 1_555
O17_2 Mg4 1_555 1_555
H1_4 O17_2 1_555 1_555
O18_2 Mg4 1_555 1_555
H5_4 O18_2 1_555 1_555
O1_4 C6_4 1_555 1_555
O11_2 C6_4 1_555 1_555
O13_2 C7_4 1_555 1_555
O15_2 C7_4 1_555 1_555
C1_4 N1_4 1_555 1_555
C2_4 C1_4 1_555 1_555
H2_4 C2_4 1_555 1_555
C3_4 C2_4 1_555 1_555
C4_4 C3_4 1_555 1_555
H3_4 C4_4 1_555 1_555
C5_4 N1_4 1_555 1_555
C6_4 C1_4 1_555 1_555
C7_4 C3_4 1_555 1_555
O12_2 C13_4 1_555 1_555
O14_2 C14_4 1_555 1_555
O16_2 C14_4 1_555 1_555
C8_4 N2_4 1_555 1_555
C9_4 C8_4 1_555 1_555
H6_4 C9_4 1_555 1_555
C10_4 C9_4 1_555 1_555
C11_4 C10_4 1_555 1_555
H7_4 C11_4 1_555 1_555
C12_4 N2_4 1_555 1_555
H8_4 C12_4 1_555 1_555
C13_4 O6_4 1_555 1_555
C14_4 C10_4 1_555 1_555
C4_4 C5_4 1_555 1_555
C8_4 C13_4 1_555 1_555
C11_4 C12_4 1_555 1_555

#END
