
###############################################################################
#
# This file contains modified crystal structure data generated from the
# MOF subset of the Cambridge Structural Database (CSD) v543 
# hosted by the Cambridge Crystallographic Data Centre (CCDC).
#
# This work is licensed under the Creative Commons
# Attribution-NonCommercial-ShareAlike 4.0 International License.
# To view a copy of this license, visit
# http://creativecommons.org/licenses/by-nc-sa/4.0/
# or send a letter to
# Creative Commons, PO Box 1866, Mountain View, CA 94042, USA.
#
# CIF created using the CSD Python API on 29 September 2022
# The structure has been converted into the P1 space group
# The structure has a 3D framework
# The original CSD entry NUDMUW is in the monoclinic crystal system
# The framework has been calculated to contain at least 10.0% void space
# The void calculation uses a probe of radius 1.32A, grid spacing 0.4
#
###############################################################################

data_NUDMUW
_chemical_formula_moiety         '(C56 H32 Mg10 N8 O40)n'
_symmetry_cell_setting           triclinic
_symmetry_space_group_name_H-M   'P 1'
_symmetry_Int_Tables_number      1
_space_group_name_Hall           'P 1'
loop_
_symmetry_equiv_pos_site_id
_symmetry_equiv_pos_as_xyz
1 x,y,z
_cell_length_a                   18.1667(9)
_cell_length_b                   12.5175(7)
_cell_length_c                   11.0210(6)
_cell_angle_alpha                90
_cell_angle_beta                 102.672(3)
_cell_angle_gamma                90
_cell_volume                     2445.15
loop_
_atom_site_label
_atom_site_type_symbol
_atom_site_fract_x
_atom_site_fract_y
_atom_site_fract_z
Mg1 Mg 0.0000 0.09915(9) 0.2500
Mg2 Mg 0.08427(4) 0.03632(6) 0.04019(7)
O10 O 0.02081(9) 0.08840(14) 0.44579(15)
H5 H 0.0379(18) 0.149(3) 0.472(3)
O14 O 0.14518(9) 0.16603(14) 0.12982(15)
O16 O 0.08308(9) 0.21139(13) 0.27596(15)
O12 O 0.13210(9) 0.09005(13) 0.89936(14)
N1 N 0.18411(11) 0.93187(16) 0.11037(18)
O1 O 0.07527(9) 0.98368(13) 0.21889(14)
O2 O 0.13210(9) 0.90995(13) 0.39936(14)
O3 O 0.35482(9) 0.66603(14) 0.37018(15)
O4 O 0.41692(9) 0.71139(13) 0.22404(15)
C1 C 0.18875(13) 0.89201(19) 0.2261(2)
C2 C 0.24513(13) 0.8245(2) 0.2838(2)
H2 H 0.2461(15) 0.802(2) 0.355(3)
C3 C 0.30073(13) 0.79547(19) 0.2218(2)
C4 C 0.29761(14) 0.8382(2) 0.1046(2)
H3 H 0.3335(16) 0.821(2) 0.061(3)
C5 C 0.23857(14) 0.9048(2) 0.0524(2)
C6 C 0.12693(13) 0.93049(19) 0.2876(2)
C7 C 0.36331(13) 0.71765(19) 0.2775(2)
Mg5 Mg 0.5000 0.59915(9) 0.2500
Mg7 Mg 0.41573(4) 0.53632(6) 0.45981(7)
Mg9 Mg 0.08427(4) 0.96368(6) 0.54019(7)
H4 H 0.2322(15) 0.932(2) 0.971(3)
O17 O 0.02081(9) 0.91160(14) 0.94579(15)
Mg1_2 Mg 1.0000 0.09915(9) 0.2500
O5 O 0.97919(9) 0.08840(14) 0.05421(15)
H1 H 0.9621(18) 0.149(3) 0.028(3)
Mg3 Mg 0.91573(4) 0.03632(6) 0.45981(7)
O11 O 0.86790(9) 0.09005(13) 0.60064(14)
O13 O 0.85482(9) 0.16603(14) 0.37018(15)
O15 O 0.91692(9) 0.21139(13) 0.22404(15)
N2 N 0.81589(11) 0.93187(16) 0.38963(18)
O6 O 0.92473(9) 0.98368(13) 0.28111(14)
O7 O 0.86790(9) 0.90995(13) 0.10064(14)
O8 O 0.64518(9) 0.66603(14) 0.12982(15)
O9 O 0.58308(9) 0.71139(13) 0.27596(15)
C8 C 0.81125(13) 0.89201(19) 0.2739(2)
C9 C 0.75487(13) 0.8245(2) 0.2162(2)
H6 H 0.7539(15) 0.802(2) 0.145(3)
C10 C 0.69927(13) 0.79547(19) 0.2782(2)
C11 C 0.70239(14) 0.8382(2) 0.3954(2)
H7 H 0.6665(16) 0.821(2) 0.439(3)
C12 C 0.76143(14) 0.9048(2) 0.4476(2)
H8 H 0.7678(15) 0.932(2) 0.529(3)
C13 C 0.87307(13) 0.93049(19) 0.2124(2)
C14 C 0.63669(13) 0.71765(19) 0.2225(2)
Mg6 Mg 0.58427(4) 0.53632(6) 0.04019(7)
O18 O 0.97919(9) 0.91160(14) 0.55421(15)
Mg8 Mg 0.91573(4) 0.96368(6) 0.95981(7)
N1_2 N 0.68411(11) 0.43187(16) 0.11037(18)
O1_2 O 0.57527(9) 0.48368(13) 0.21889(14)
O2_2 O 0.63210(9) 0.40995(13) 0.39936(14)
O5_2 O 0.47919(9) 0.58840(14) 0.05421(15)
H1_2 H 0.4621(18) 0.649(3) 0.028(3)
C1_2 C 0.68875(13) 0.39201(19) 0.2261(2)
C2_2 C 0.74513(13) 0.3245(2) 0.2838(2)
H2_2 H 0.7461(15) 0.302(2) 0.355(3)
C3_2 C 0.80073(13) 0.29547(19) 0.2218(2)
C4_2 C 0.79761(14) 0.3382(2) 0.1046(2)
H3_2 H 0.8335(16) 0.321(2) 0.061(3)
C5_2 C 0.73857(14) 0.4048(2) 0.0524(2)
C6_2 C 0.62693(13) 0.43049(19) 0.2876(2)
C7_2 C 0.86331(13) 0.21765(19) 0.2775(2)
N2_2 N 0.31589(11) 0.43187(16) 0.38963(18)
O6_2 O 0.42473(9) 0.48368(13) 0.28111(14)
O7_2 O 0.36790(9) 0.40995(13) 0.10064(14)
O10_2 O 0.52081(9) 0.58840(14) 0.44579(15)
H5_2 H 0.5379(18) 0.649(3) 0.472(3)
C8_2 C 0.31125(13) 0.39201(19) 0.2739(2)
C9_2 C 0.25487(13) 0.3245(2) 0.2162(2)
H6_2 H 0.2539(15) 0.302(2) 0.145(3)
C10_2 C 0.19927(13) 0.29547(19) 0.2782(2)
C11_2 C 0.20239(14) 0.3382(2) 0.3954(2)
H7_2 H 0.1665(16) 0.321(2) 0.439(3)
C12_2 C 0.26143(14) 0.4048(2) 0.4476(2)
H8_2 H 0.2678(15) 0.432(2) 0.529(3)
C13_2 C 0.37307(13) 0.43049(19) 0.2124(2)
C14_2 C 0.13669(13) 0.21765(19) 0.2225(2)
Mg9_2 Mg 0.58427(4) 0.46368(6) 0.54019(7)
O11_2 O 0.36790(9) 0.59005(13) 0.60064(14)
O18_2 O 0.47919(9) 0.41160(14) 0.55421(15)
H4_2 H 0.7322(15) 0.432(2) 0.971(3)
Mg8_2 Mg 0.41573(4) 0.46368(6) 0.95981(7)
O12_2 O 0.63210(9) 0.59005(13) 0.89936(14)
O17_2 O 0.52081(9) 0.41160(14) 0.94579(15)
N2_3 N 0.18411(11) 0.06813(16) 0.61037(18)
O6_3 O 0.07527(9) 0.01632(13) 0.71889(14)
O8_2 O 0.35482(9) 0.33397(14) 0.87018(15)
O9_2 O 0.41692(9) 0.28861(13) 0.72404(15)
C8_3 C 0.18875(13) 0.10799(19) 0.7261(2)
C9_3 C 0.24513(13) 0.1755(2) 0.7838(2)
H6_3 H 0.2461(15) 0.198(2) 0.855(3)
C10_3 C 0.30073(13) 0.20453(19) 0.7218(2)
C11_3 C 0.29761(14) 0.1618(2) 0.6046(2)
H7_3 H 0.3335(16) 0.179(2) 0.561(3)
C12_3 C 0.23857(14) 0.0952(2) 0.5524(2)
H8_3 H 0.2322(15) 0.068(2) 0.471(3)
C13_3 C 0.12693(13) 0.06951(19) 0.7876(2)
C14_3 C 0.36331(13) 0.28235(19) 0.7775(2)
Mg4 Mg 0.5000 0.40085(9) 0.7500
Mg1_3 Mg 0.0000 0.90085(9) 0.7500
H1_3 H 0.0379(18) 0.851(3) 0.972(3)
O13_2 O 0.14518(9) 0.83397(14) 0.62982(15)
O15_2 O 0.08308(9) 0.78861(13) 0.77596(15)
H4_3 H 0.7678(15) 0.068(2) 0.029(3)
N1_3 N 0.81589(11) 0.06813(16) 0.88963(18)
O1_3 O 0.92473(9) 0.01632(13) 0.78111(14)
O3_2 O 0.64518(9) 0.33397(14) 0.62982(15)
O4_2 O 0.58308(9) 0.28861(13) 0.77596(15)
C1_3 C 0.81125(13) 0.10799(19) 0.7739(2)
C2_3 C 0.75487(13) 0.1755(2) 0.7162(2)
H2_3 H 0.7539(15) 0.198(2) 0.645(3)
C3_3 C 0.69927(13) 0.20453(19) 0.7782(2)
C4_3 C 0.70239(14) 0.1618(2) 0.8954(2)
H3_3 H 0.6665(16) 0.179(2) 0.939(3)
C5_3 C 0.76143(14) 0.0952(2) 0.9476(2)
C6_3 C 0.87307(13) 0.06951(19) 0.7124(2)
C7_3 C 0.63669(13) 0.28235(19) 0.7225(2)
Mg1_4 Mg 1.0000 0.90085(9) 0.7500
H5_3 H 0.9621(18) 0.851(3) 0.528(3)
O14_2 O 0.85482(9) 0.83397(14) 0.87018(15)
O16_2 O 0.91692(9) 0.78861(13) 0.72404(15)
H4_4 H 0.2678(15) 0.568(2) 0.029(3)
N1_4 N 0.31589(11) 0.56813(16) 0.88963(18)
O1_4 O 0.42473(9) 0.51632(13) 0.78111(14)
H1_4 H 0.5379(18) 0.351(3) 0.972(3)
C1_4 C 0.31125(13) 0.60799(19) 0.7739(2)
C2_4 C 0.25487(13) 0.6755(2) 0.7162(2)
H2_4 H 0.2539(15) 0.698(2) 0.645(3)
C3_4 C 0.19927(13) 0.70453(19) 0.7782(2)
C4_4 C 0.20239(14) 0.6618(2) 0.8954(2)
H3_4 H 0.1665(16) 0.679(2) 0.939(3)
C5_4 C 0.26143(14) 0.5952(2) 0.9476(2)
C6_4 C 0.37307(13) 0.56951(19) 0.7124(2)
C7_4 C 0.13669(13) 0.78235(19) 0.7225(2)
N2_4 N 0.68411(11) 0.56813(16) 0.61037(18)
O6_4 O 0.57527(9) 0.51632(13) 0.71889(14)
H5_4 H 0.4621(18) 0.351(3) 0.528(3)
C8_4 C 0.68875(13) 0.60799(19) 0.7261(2)
C9_4 C 0.74513(13) 0.6755(2) 0.7838(2)
H6_4 H 0.7461(15) 0.698(2) 0.855(3)
C10_4 C 0.80073(13) 0.70453(19) 0.7218(2)
C11_4 C 0.79761(14) 0.6618(2) 0.6046(2)
H7_4 H 0.8335(16) 0.679(2) 0.561(3)
C12_4 C 0.73857(14) 0.5952(2) 0.5524(2)
H8_4 H 0.7322(15) 0.568(2) 0.471(3)
C13_4 C 0.62693(13) 0.56951(19) 0.7876(2)
C14_4 C 0.86331(13) 0.78235(19) 0.7775(2)
loop_
_geom_bond_atom_site_label_1
_geom_bond_atom_site_label_2
_geom_bond_site_symmetry_1
_geom_bond_site_symmetry_2
O10 Mg1 1_555 1_555
H5 O10 1_555 1_555
O14 Mg2 1_555 1_555
O16 Mg1 1_555 1_555
N1 C1 1_555 1_555
O2 C6 1_555 1_555
O3 C7 1_555 1_555
O4 C7 1_555 1_555
C1 C2 1_555 1_555
C2 H2 1_555 1_555
C3 C2 1_555 1_555
C4 C3 1_555 1_555
H3 C4 1_555 1_555
C5 N1 1_555 1_555
C6 O1 1_555 1_555
C7 C3 1_555 1_555
Mg5 O4 1_555 1_555
Mg7 O3 1_555 1_555
Mg9 O2 1_555 1_555
C1 C6 1_555 1_555
C4 C5 1_555 1_555
O5 Mg1_2 1_555 1_555
H1 O5 1_555 1_555
O11 Mg3 1_555 1_555
O13 Mg3 1_555 1_555
O15 Mg1_2 1_555 1_555
N2 C8 1_555 1_555
O7 C13 1_555 1_555
O8 C14 1_555 1_555
O9 C14 1_555 1_555
C8 C9 1_555 1_555
C9 H6 1_555 1_555
C10 C9 1_555 1_555
C11 C10 1_555 1_555
H7 C11 1_555 1_555
C12 N2 1_555 1_555
H8 C12 1_555 1_555
C13 O6 1_555 1_555
C14 C10 1_555 1_555
Mg5 O9 1_555 1_555
Mg6 O8 1_555 1_555
C8 C13 1_555 1_555
C11 C12 1_555 1_555
Mg5 O1_2 1_555 1_555
Mg6 N1_2 1_555 1_555
N1_2 C1_2 1_555 1_555
O1_2 Mg6 1_555 1_555
O2_2 C6_2 1_555 1_555
O13 C7_2 1_555 1_555
O15 C7_2 1_555 1_555
O5_2 Mg5 1_555 1_555
H1_2 O5_2 1_555 1_555
C1_2 C2_2 1_555 1_555
C2_2 H2_2 1_555 1_555
C3_2 C2_2 1_555 1_555
C4_2 C3_2 1_555 1_555
H3_2 C4_2 1_555 1_555
C5_2 N1_2 1_555 1_555
C6_2 O1_2 1_555 1_555
C7_2 C3_2 1_555 1_555
Mg7 N2_2 1_555 1_555
N2_2 C8_2 1_555 1_555
O6_2 Mg5 1_555 1_555
O7_2 C13_2 1_555 1_555
O14 C14_2 1_555 1_555
O16 C14_2 1_555 1_555
O10_2 Mg5 1_555 1_555
H5_2 O10_2 1_555 1_555
C8_2 C9_2 1_555 1_555
C9_2 H6_2 1_555 1_555
C10_2 C9_2 1_555 1_555
C11_2 C10_2 1_555 1_555
H7_2 C11_2 1_555 1_555
C12_2 N2_2 1_555 1_555
H8_2 C12_2 1_555 1_555
C13_2 O6_2 1_555 1_555
C14_2 C10_2 1_555 1_555
Mg9_2 O2_2 1_555 1_555
O11_2 Mg7 1_555 1_555
O18_2 Mg7 1_555 1_555
Mg6 O5_2 1_555 1_555
C1_2 C6_2 1_555 1_555
C4_2 C5_2 1_555 1_555
Mg7 O6_2 1_555 1_555
Mg7 O10_2 1_555 1_555
O10_2 Mg9_2 1_555 1_555
C8_2 C13_2 1_555 1_555
C11_2 C12_2 1_555 1_555
Mg9_2 O18_2 1_555 1_555
Mg8_2 O17_2 1_555 1_555
N2_3 C8_3 1_555 1_555
O12 C13_3 1_555 1_555
O8_2 C14_3 1_555 1_555
O9_2 C14_3 1_555 1_555
C8_3 C9_3 1_555 1_555
C9_3 H6_3 1_555 1_555
C10_3 C9_3 1_555 1_555
C11_3 C10_3 1_555 1_555
H7_3 C11_3 1_555 1_555
C12_3 N2_3 1_555 1_555
H8_3 C12_3 1_555 1_555
C13_3 O6_3 1_555 1_555
C14_3 C10_3 1_555 1_555
Mg4 O9_2 1_555 1_555
Mg8_2 O8_2 1_555 1_555
C8_3 C13_3 1_555 1_555
C11_3 C12_3 1_555 1_555
O17 Mg1_3 1_555 1_555
H1_3 O17 1_555 1_555
O13_2 Mg9 1_555 1_555
O15_2 Mg1_3 1_555 1_555
N1_3 C1_3 1_555 1_555
O11 C6_3 1_555 1_555
O3_2 C7_3 1_555 1_555
O4_2 C7_3 1_555 1_555
C1_3 C2_3 1_555 1_555
C2_3 H2_3 1_555 1_555
C3_3 C2_3 1_555 1_555
C4_3 C3_3 1_555 1_555
H3_3 C4_3 1_555 1_555
C5_3 N1_3 1_555 1_555
C6_3 O1_3 1_555 1_555
C7_3 C3_3 1_555 1_555
Mg4 O4_2 1_555 1_555
Mg9_2 O3_2 1_555 1_555
C1_3 C6_3 1_555 1_555
C4_3 C5_3 1_555 1_555
O18 Mg1_4 1_555 1_555
H5_3 O18 1_555 1_555
O14_2 Mg8 1_555 1_555
O16_2 Mg1_4 1_555 1_555
Mg4 O1_4 1_555 1_555
Mg8_2 N1_4 1_555 1_555
N1_4 C1_4 1_555 1_555
O1_4 Mg8_2 1_555 1_555
O11_2 C6_4 1_555 1_555
O13_2 C7_4 1_555 1_555
O15_2 C7_4 1_555 1_555
O17_2 Mg4 1_555 1_555
H1_4 O17_2 1_555 1_555
C1_4 C2_4 1_555 1_555
C2_4 H2_4 1_555 1_555
C3_4 C2_4 1_555 1_555
C4_4 C3_4 1_555 1_555
H3_4 C4_4 1_555 1_555
C5_4 N1_4 1_555 1_555
C6_4 O1_4 1_555 1_555
C7_4 C3_4 1_555 1_555
Mg9_2 N2_4 1_555 1_555
N2_4 C8_4 1_555 1_555
O6_4 Mg4 1_555 1_555
O12_2 C13_4 1_555 1_555
O14_2 C14_4 1_555 1_555
O16_2 C14_4 1_555 1_555
O18_2 Mg4 1_555 1_555
H5_4 O18_2 1_555 1_555
C8_4 C9_4 1_555 1_555
C9_4 H6_4 1_555 1_555
C10_4 C9_4 1_555 1_555
C11_4 C10_4 1_555 1_555
H7_4 C11_4 1_555 1_555
C12_4 N2_4 1_555 1_555
H8_4 C12_4 1_555 1_555
C13_4 O6_4 1_555 1_555
C14_4 C10_4 1_555 1_555
C1_4 C6_4 1_555 1_555
C4_4 C5_4 1_555 1_555
Mg9_2 O6_4 1_555 1_555
C8_4 C13_4 1_555 1_555
C11_4 C12_4 1_555 1_555

#END
