
###############################################################################
#
# This file contains modified crystal structure data generated from the
# MOF subset of the Cambridge Structural Database (CSD) v543 
# hosted by the Cambridge Crystallographic Data Centre (CCDC).
#
# This work is licensed under the Creative Commons
# Attribution-NonCommercial-ShareAlike 4.0 International License.
# To view a copy of this license, visit
# http://creativecommons.org/licenses/by-nc-sa/4.0/
# or send a letter to
# Creative Commons, PO Box 1866, Mountain View, CA 94042, USA.
#
# CIF created using the CSD Python API on 29 September 2022
# The structure has been converted into the P1 space group
# The structure has a 3D framework
# The original CSD entry NUDMEG is in the monoclinic crystal system
# The framework has been calculated to contain at least 10.0% void space
# The void calculation uses a probe of radius 1.32A, grid spacing 0.4
#
###############################################################################

data_NUDMEG
_chemical_formula_moiety         '(C56 H32 Mg12 N8 O40)n'
_symmetry_cell_setting           triclinic
_symmetry_space_group_name_H-M   'P 1'
_symmetry_Int_Tables_number      1
_space_group_name_Hall           'P 1'
loop_
_symmetry_equiv_pos_site_id
_symmetry_equiv_pos_as_xyz
1 x,y,z
_cell_length_a                   18.204(3)
_cell_length_b                   12.3884(18)
_cell_length_c                   11.0014(19)
_cell_angle_alpha                90
_cell_angle_beta                 102.366(6)
_cell_angle_gamma                90
_cell_volume                     2423.46
loop_
_atom_site_label
_atom_site_type_symbol
_atom_site_fract_x
_atom_site_fract_y
_atom_site_fract_z
Mg2 Mg -0.0000 0.39659(19) 0.2500
O5 O 0.0210(2) 0.4103(3) 0.4454(4)
H1 H 0.035(3) 0.366(5) 0.480(6)
N2 N 0.1836(2) 0.5678(4) 0.1101(4)
Mg3 Mg 0.08297(9) 0.46405(14) 0.03959(17)
O6 O 0.07530(17) 0.5144(3) 0.2195(3)
O7 O 0.13051(19) 0.5912(3) 0.3982(3)
O8 O 0.35466(19) 0.8328(3) 0.3717(4)
O9 O 0.41883(19) 0.7821(3) 0.2288(3)
C8 C 0.1881(3) 0.6070(4) 0.2257(5)
C9 C 0.2451(3) 0.6745(4) 0.2843(5)
H6 H 0.242(3) 0.702(4) 0.357(5)
C10 C 0.3004(3) 0.7012(4) 0.2223(5)
C11 C 0.2976(3) 0.6600(5) 0.1063(5)
H7 H 0.339(3) 0.671(4) 0.060(6)
C12 C 0.2380(3) 0.5952(5) 0.0526(6)
C13 C 0.1258(3) 0.5682(4) 0.2876(5)
C14 C 0.3637(3) 0.7781(4) 0.2806(5)
Mg4 Mg 0.41703(9) 0.96405(14) 0.46041(17)
Mg6 Mg 0.08297(9) 0.53595(14) 0.53959(17)
Mg9 Mg 0.5000 0.89659(19) 0.2500
O13 O 0.14534(19) 0.3328(3) 0.1283(4)
O15 O 0.08117(19) 0.2821(3) 0.2712(3)
H8 H 0.235(3) 0.571(5) 0.977(6)
O11 O 0.13051(19) 0.4088(3) 0.8982(3)
O18 O 0.0210(2) 0.5897(3) 0.9454(4)
N1 N 0.8164(2) 0.5678(4) 0.3899(4)
Mg1 Mg 0.91703(9) 0.46405(14) 0.46041(17)
Mg2_2 Mg 1.0000 0.39659(19) 0.2500
O1 O 0.92470(17) 0.5144(3) 0.2805(3)
O2 O 0.86949(19) 0.5912(3) 0.1018(3)
O3 O 0.64534(19) 0.8328(3) 0.1283(4)
O4 O 0.58117(19) 0.7821(3) 0.2712(3)
C1 C 0.8119(3) 0.6070(4) 0.2743(5)
C2 C 0.7549(3) 0.6745(4) 0.2157(5)
H2 H 0.758(3) 0.702(4) 0.143(5)
C3 C 0.6996(3) 0.7012(4) 0.2777(5)
C4 C 0.7024(3) 0.6600(5) 0.3937(5)
H3 H 0.661(3) 0.671(4) 0.440(6)
C5 C 0.7620(3) 0.5952(5) 0.4474(6)
H4 H 0.765(3) 0.571(5) 0.523(6)
C6 C 0.8742(3) 0.5682(4) 0.2124(5)
C7 C 0.6363(3) 0.7781(4) 0.2194(5)
O10 O 0.9790(2) 0.4103(3) 0.0546(4)
H5 H 0.965(3) 0.366(5) 0.020(6)
Mg5 Mg 0.58297(9) 0.96405(14) 0.03959(17)
O12 O 0.86949(19) 0.4088(3) 0.6018(3)
O14 O 0.85466(19) 0.3328(3) 0.3717(4)
O16 O 0.91883(19) 0.2821(3) 0.2288(3)
O17 O 0.9790(2) 0.5897(3) 0.5546(4)
Mg7 Mg 0.91703(9) 0.53595(14) 0.96041(17)
N1_2 N 0.3164(2) 0.0678(4) 0.3899(4)
O1_2 O 0.42470(17) 0.0144(3) 0.2805(3)
O2_2 O 0.36949(19) 0.0912(3) 0.1018(3)
C1_2 C 0.3119(3) 0.1070(4) 0.2743(5)
C2_2 C 0.2549(3) 0.1745(4) 0.2157(5)
H2_2 H 0.258(3) 0.202(4) 0.143(5)
C3_2 C 0.1996(3) 0.2012(4) 0.2777(5)
C4_2 C 0.2024(3) 0.1600(5) 0.3937(5)
H3_2 H 0.161(3) 0.171(4) 0.440(6)
C5_2 C 0.2620(3) 0.0952(5) 0.4474(6)
H4_2 H 0.265(3) 0.071(5) 0.523(6)
C6_2 C 0.3742(3) 0.0682(4) 0.2124(5)
C7_2 C 0.1363(3) 0.2781(4) 0.2194(5)
N2_2 N 0.6836(2) 0.0678(4) 0.1101(4)
O6_2 O 0.57530(17) 0.0144(3) 0.2195(3)
O7_2 O 0.63051(19) 0.0912(3) 0.3982(3)
C8_2 C 0.6881(3) 0.1070(4) 0.2257(5)
C9_2 C 0.7451(3) 0.1745(4) 0.2843(5)
H6_2 H 0.742(3) 0.202(4) 0.357(5)
C10_2 C 0.8004(3) 0.2012(4) 0.2223(5)
C11_2 C 0.7976(3) 0.1600(5) 0.1063(5)
H7_2 H 0.839(3) 0.171(4) 0.060(6)
C12_2 C 0.7380(3) 0.0952(5) 0.0526(6)
C13_2 C 0.6258(3) 0.0682(4) 0.2876(5)
C14_2 C 0.8637(3) 0.2781(4) 0.2806(5)
Mg6_2 Mg 0.58297(9) 0.03595(14) 0.53959(17)
O17_2 O 0.4790(2) 0.0897(3) 0.5546(4)
H8_2 H 0.735(3) 0.071(5) 0.977(6)
Mg7_2 Mg 0.41703(9) 0.03595(14) 0.96041(17)
O18_2 O 0.5210(2) 0.0897(3) 0.9454(4)
O5_2 O 0.5210(2) 0.9103(3) 0.4454(4)
H1_2 H 0.535(3) 0.866(5) 0.480(6)
O10_2 O 0.4790(2) 0.9103(3) 0.0546(4)
H5_2 H 0.465(3) 0.866(5) 0.020(6)
O12_2 O 0.36949(19) 0.9088(3) 0.6018(3)
O11_2 O 0.63051(19) 0.9088(3) 0.8982(3)
N1_3 N 0.1836(2) 0.4322(4) 0.6101(4)
Mg2_3 Mg 0.0000 0.60341(19) 0.7500
O1_3 O 0.07530(17) 0.4856(3) 0.7195(3)
O3_2 O 0.35466(19) 0.1672(3) 0.8717(4)
O4_2 O 0.41883(19) 0.2179(3) 0.7288(3)
C1_3 C 0.1881(3) 0.3930(4) 0.7257(5)
C2_3 C 0.2451(3) 0.3255(4) 0.7843(5)
H2_3 H 0.242(3) 0.298(4) 0.857(5)
C3_3 C 0.3004(3) 0.2988(4) 0.7223(5)
C4_3 C 0.2976(3) 0.3400(5) 0.6063(5)
H3_3 H 0.339(3) 0.329(4) 0.560(6)
C5_3 C 0.2380(3) 0.4048(5) 0.5526(6)
H4_3 H 0.235(3) 0.429(5) 0.477(6)
C6_3 C 0.1258(3) 0.4318(4) 0.7876(5)
C7_3 C 0.3637(3) 0.2219(4) 0.7806(5)
H5_3 H 0.035(3) 0.634(5) 0.980(6)
Mg8 Mg 0.5000 0.10341(19) 0.7500
O14_2 O 0.14534(19) 0.6672(3) 0.6283(4)
O16_2 O 0.08117(19) 0.7179(3) 0.7712(3)
H8_3 H 0.765(3) 0.429(5) 0.023(6)
Mg2_4 Mg 1.0000 0.60341(19) 0.7500
H1_3 H 0.965(3) 0.634(5) 0.520(6)
N2_3 N 0.8164(2) 0.4322(4) 0.8899(4)
O6_3 O 0.92470(17) 0.4856(3) 0.7805(3)
O8_2 O 0.64534(19) 0.1672(3) 0.6283(4)
O9_2 O 0.58117(19) 0.2179(3) 0.7712(3)
C8_3 C 0.8119(3) 0.3930(4) 0.7743(5)
C9_3 C 0.7549(3) 0.3255(4) 0.7157(5)
H6_3 H 0.758(3) 0.298(4) 0.643(5)
C10_3 C 0.6996(3) 0.2988(4) 0.7777(5)
C11_3 C 0.7024(3) 0.3400(5) 0.8937(5)
H7_3 H 0.661(3) 0.329(4) 0.940(6)
C12_3 C 0.7620(3) 0.4048(5) 0.9474(6)
C13_3 C 0.8742(3) 0.4318(4) 0.7124(5)
C14_3 C 0.6363(3) 0.2219(4) 0.7194(5)
O13_2 O 0.85466(19) 0.6672(3) 0.8717(4)
O15_2 O 0.91883(19) 0.7179(3) 0.7288(3)
H1_4 H 0.465(3) 0.134(5) 0.520(6)
H5_4 H 0.535(3) 0.134(5) 0.980(6)
H8_4 H 0.265(3) 0.929(5) 0.023(6)
N1_4 N 0.6836(2) 0.9322(4) 0.6101(4)
O1_4 O 0.57530(17) 0.9856(3) 0.7195(3)
C1_4 C 0.6881(3) 0.8930(4) 0.7257(5)
C2_4 C 0.7451(3) 0.8255(4) 0.7843(5)
H2_4 H 0.742(3) 0.798(4) 0.857(5)
C3_4 C 0.8004(3) 0.7988(4) 0.7223(5)
C4_4 C 0.7976(3) 0.8400(5) 0.6063(5)
H3_4 H 0.839(3) 0.829(4) 0.560(6)
C5_4 C 0.7380(3) 0.9048(5) 0.5526(6)
H4_4 H 0.735(3) 0.929(5) 0.477(6)
C6_4 C 0.6258(3) 0.9318(4) 0.7876(5)
C7_4 C 0.8637(3) 0.7219(4) 0.7806(5)
N2_4 N 0.3164(2) 0.9322(4) 0.8899(4)
O6_4 O 0.42470(17) 0.9856(3) 0.7805(3)
C8_4 C 0.3119(3) 0.8930(4) 0.7743(5)
C9_4 C 0.2549(3) 0.8255(4) 0.7157(5)
H6_4 H 0.258(3) 0.798(4) 0.643(5)
C10_4 C 0.1996(3) 0.7988(4) 0.7777(5)
C11_4 C 0.2024(3) 0.8400(5) 0.8937(5)
H7_4 H 0.161(3) 0.829(4) 0.940(6)
C12_4 C 0.2620(3) 0.9048(5) 0.9474(6)
C13_4 C 0.3742(3) 0.9318(4) 0.7124(5)
C14_4 C 0.1363(3) 0.7219(4) 0.7194(5)
loop_
_geom_bond_atom_site_label_1
_geom_bond_atom_site_label_2
_geom_bond_site_symmetry_1
_geom_bond_site_symmetry_2
H1 O5 1_555 1_555
N2 Mg3 1_555 1_555
Mg3 O6 1_555 1_555
O6 Mg2 1_555 1_555
O7 C13 1_555 1_555
O8 C14 1_555 1_555
O9 C14 1_555 1_555
C8 N2 1_555 1_555
C9 C8 1_555 1_555
H6 C9 1_555 1_555
C10 C9 1_555 1_555
C11 C10 1_555 1_555
H7 C11 1_555 1_555
C12 N2 1_555 1_555
C13 O6 1_555 1_555
C14 C10 1_555 1_555
Mg4 O8 1_555 1_555
Mg6 O5 1_555 1_555
Mg9 O9 1_555 1_555
O13 Mg3 1_555 1_555
O15 Mg2 1_555 1_555
Mg2 O5 1_555 1_555
O7 Mg6 1_555 1_555
C8 C13 1_555 1_555
C11 C12 1_555 1_555
N1 Mg1 1_555 1_555
Mg1 O1 1_555 1_555
Mg2_2 O1 1_555 1_555
O1 C6 1_555 1_555
O2 C6 1_555 1_555
O3 C7 1_555 1_555
O4 C7 1_555 1_555
C1 N1 1_555 1_555
C2 C1 1_555 1_555
H2 C2 1_555 1_555
C3 C2 1_555 1_555
C4 C3 1_555 1_555
H3 C4 1_555 1_555
C5 N1 1_555 1_555
H4 C5 1_555 1_555
C6 C1 1_555 1_555
C7 C3 1_555 1_555
O10 Mg2_2 1_555 1_555
H5 O10 1_555 1_555
Mg5 O3 1_555 1_555
Mg9 O4 1_555 1_555
O12 Mg1 1_555 1_555
O14 Mg1 1_555 1_555
O16 Mg2_2 1_555 1_555
O17 Mg1 1_555 1_555
C4 C5 1_555 1_555
O1_2 C6_2 1_555 1_555
O2_2 C6_2 1_555 1_555
O13 C7_2 1_555 1_555
O15 C7_2 1_555 1_555
C1_2 N1_2 1_555 1_555
C2_2 C1_2 1_555 1_555
H2_2 C2_2 1_555 1_555
C3_2 C2_2 1_555 1_555
C4_2 C3_2 1_555 1_555
H3_2 C4_2 1_555 1_555
C5_2 N1_2 1_555 1_555
H4_2 C5_2 1_555 1_555
C6_2 C1_2 1_555 1_555
C7_2 C3_2 1_555 1_555
O7_2 C13_2 1_555 1_555
O14 C14_2 1_555 1_555
O16 C14_2 1_555 1_555
C8_2 N2_2 1_555 1_555
C9_2 C8_2 1_555 1_555
H6_2 C9_2 1_555 1_555
C10_2 C9_2 1_555 1_555
C11_2 C10_2 1_555 1_555
H7_2 C11_2 1_555 1_555
C12_2 N2_2 1_555 1_555
C13_2 O6_2 1_555 1_555
C14_2 C10_2 1_555 1_555
C4_2 C5_2 1_555 1_555
O7_2 Mg6_2 1_555 1_555
C8_2 C13_2 1_555 1_555
C11_2 C12_2 1_555 1_555
Mg6_2 O17_2 1_555 1_555
Mg7_2 O18_2 1_555 1_555
O5_2 Mg4 1_555 1_555
H1_2 O5_2 1_555 1_555
O10_2 Mg9 1_555 1_555
H5_2 O10_2 1_555 1_555
O12_2 Mg4 1_555 1_555
Mg9 O5_2 1_555 1_555
Mg5 O10_2 1_555 1_555
N1_3 Mg6 1_555 1_555
Mg6 O1_3 1_555 1_555
Mg2_3 O1_3 1_555 1_555
O1_3 C6_3 1_555 1_555
O11 C6_3 1_555 1_555
O3_2 C7_3 1_555 1_555
O4_2 C7_3 1_555 1_555
C1_3 N1_3 1_555 1_555
C2_3 C1_3 1_555 1_555
H2_3 C2_3 1_555 1_555
C3_3 C2_3 1_555 1_555
C4_3 C3_3 1_555 1_555
H3_3 C4_3 1_555 1_555
C5_3 N1_3 1_555 1_555
H4_3 C5_3 1_555 1_555
C6_3 C1_3 1_555 1_555
C7_3 C3_3 1_555 1_555
O18 Mg2_3 1_555 1_555
H5_3 O18 1_555 1_555
Mg7_2 O3_2 1_555 1_555
Mg8 O4_2 1_555 1_555
O14_2 Mg6 1_555 1_555
O16_2 Mg2_3 1_555 1_555
C4_3 C5_3 1_555 1_555
H1_3 O17 1_555 1_555
N2_3 Mg7 1_555 1_555
Mg7 O6_3 1_555 1_555
O6_3 Mg2_4 1_555 1_555
O12 C13_3 1_555 1_555
O8_2 C14_3 1_555 1_555
O9_2 C14_3 1_555 1_555
C8_3 N2_3 1_555 1_555
C9_3 C8_3 1_555 1_555
H6_3 C9_3 1_555 1_555
C10_3 C9_3 1_555 1_555
C11_3 C10_3 1_555 1_555
H7_3 C11_3 1_555 1_555
C12_3 N2_3 1_555 1_555
C13_3 O6_3 1_555 1_555
C14_3 C10_3 1_555 1_555
Mg6_2 O8_2 1_555 1_555
Mg8 O9_2 1_555 1_555
O13_2 Mg7 1_555 1_555
O15_2 Mg2_4 1_555 1_555
Mg2_4 O17 1_555 1_555
C8_3 C13_3 1_555 1_555
C11_3 C12_3 1_555 1_555
H1_4 O17_2 1_555 1_555
O18_2 Mg8 1_555 1_555
H5_4 O18_2 1_555 1_555
Mg8 O17_2 1_555 1_555
O1_4 C6_4 1_555 1_555
O11_2 C6_4 1_555 1_555
O13_2 C7_4 1_555 1_555
O15_2 C7_4 1_555 1_555
C1_4 N1_4 1_555 1_555
C2_4 C1_4 1_555 1_555
H2_4 C2_4 1_555 1_555
C3_4 C2_4 1_555 1_555
C4_4 C3_4 1_555 1_555
H3_4 C4_4 1_555 1_555
C5_4 N1_4 1_555 1_555
H4_4 C5_4 1_555 1_555
C6_4 C1_4 1_555 1_555
C7_4 C3_4 1_555 1_555
O12_2 C13_4 1_555 1_555
O14_2 C14_4 1_555 1_555
O16_2 C14_4 1_555 1_555
C8_4 N2_4 1_555 1_555
C9_4 C8_4 1_555 1_555
H6_4 C9_4 1_555 1_555
C10_4 C9_4 1_555 1_555
C11_4 C10_4 1_555 1_555
H7_4 C11_4 1_555 1_555
C12_4 N2_4 1_555 1_555
C13_4 O6_4 1_555 1_555
C14_4 C10_4 1_555 1_555
C4_4 C5_4 1_555 1_555
C8_4 C13_4 1_555 1_555
C11_4 C12_4 1_555 1_555

#END
