
###############################################################################
#
# This file contains modified crystal structure data generated from the
# MOF subset of the Cambridge Structural Database (CSD) v543 
# hosted by the Cambridge Crystallographic Data Centre (CCDC).
#
# This work is licensed under the Creative Commons
# Attribution-NonCommercial-ShareAlike 4.0 International License.
# To view a copy of this license, visit
# http://creativecommons.org/licenses/by-nc-sa/4.0/
# or send a letter to
# Creative Commons, PO Box 1866, Mountain View, CA 94042, USA.
#
# CIF created using the CSD Python API on 29 September 2022
# The structure has been converted into the P1 space group
# The structure has a 3D framework
# The original CSD entry NUDNUW13 is in the trigonal crystal system
# The framework has been calculated to contain at least 10.0% void space
# The void calculation uses a probe of radius 1.32A, grid spacing 0.4
# The framework is charged, counterions have been retained in the structure
#
###############################################################################

data_NUDNUW13
_chemical_formula_moiety         '(C12 H12 Fe6 O24 1-)n'
_symmetry_cell_setting           triclinic
_symmetry_space_group_name_H-M   'P 1'
_symmetry_Int_Tables_number      1
_space_group_name_Hall           'P 1'
loop_
_symmetry_equiv_pos_site_id
_symmetry_equiv_pos_as_xyz
1 x,y,z
_cell_length_a                   8.2357(16)
_cell_length_b                   8.2357(16)
_cell_length_c                   13.327(2)
_cell_angle_alpha                90
_cell_angle_beta                 90
_cell_angle_gamma                120
_cell_volume                     782.824
loop_
_atom_site_label
_atom_site_type_symbol
_atom_site_fract_x
_atom_site_fract_y
_atom_site_fract_z
Fe6 Fe -0.000000 -0.000000 0.000000
Fe6_2 Fe -0.000000 -0.000000 1.000000
O9 O 0.423(7) 0.120(5) 0.178(2)
O10 O 0.170(8) 0.025(5) 0.0905(16)
C5 C 0.319(12) 0.141(9) 0.124(3)
H5 H 0.357977 0.263941 0.105327
Fe4 Fe 0.666667 0.333333 0.250000
Fe6_3 Fe -0.000000 1.000000 0.000000
Fe7 Fe -0.000000 -0.000000 0.500000
Fe6_4 Fe -0.000000 1.000000 1.000000
O16 O 0.145(6) 0.170(8) 0.9095(16)
Fe7_2 Fe -0.000000 1.000000 0.500000
O15 O 0.025(5) 0.855(6) 0.9095(16)
Fe6_5 Fe 1.000000 -0.000000 0.000000
Fe6_6 Fe 1.000000 -0.000000 1.000000
O1 O 0.880(5) 0.303(5) 0.178(2)
O2 O 0.975(5) 0.145(6) 0.0905(16)
C1 C 0.859(9) 0.178(8) 0.124(3)
H1 H 0.736059 0.094036 0.105327
O5 O 0.697(5) 0.577(7) 0.178(2)
O6 O 0.855(6) 0.830(8) 0.0905(16)
C3 C 0.822(8) 0.681(12) 0.124(3)
H3 H 0.905964 0.642023 0.105327
O11 O 0.697(5) 0.120(5) 0.322(2)
O12 O 0.855(6) 0.025(5) 0.4095(16)
C6 C 0.822(8) 0.141(9) 0.376(3)
H6 H 0.905964 0.263941 0.394673
O13 O 0.423(7) 0.303(5) 0.322(2)
O14 O 0.880(5) 0.577(7) 0.322(2)
Fe6_7 Fe 1.000000 1.000000 0.000000
Fe7_3 Fe 1.000000 -0.000000 0.500000
Fe6_8 Fe 1.000000 1.000000 1.000000
Fe7_4 Fe 1.000000 1.000000 0.500000
O17 O 0.830(8) 0.975(5) 0.9095(16)
O12_2 O 0.975(5) 0.830(8) 0.4095(16)
C6_2 C 0.859(9) 0.681(12) 0.376(3)
H6_2 H 0.736059 0.642023 0.394673
O12_3 O 0.170(8) 0.145(6) 0.4095(16)
C6_3 C 0.319(12) 0.178(8) 0.376(3)
H6_3 H 0.357977 0.094036 0.394673
O17_2 O 0.025(5) 0.170(8) 0.5905(16)
O15_2 O 0.145(6) 0.975(5) 0.5905(16)
O16_2 O 0.830(8) 0.855(6) 0.5905(16)
O3 O 0.303(5) 0.423(7) 0.822(2)
C2 C 0.178(8) 0.319(12) 0.876(3)
H2 H 0.094036 0.357977 0.894673
Fe3 Fe 0.333333 0.666667 0.750000
O1_2 O 0.120(5) 0.697(5) 0.822(2)
C1_2 C 0.141(9) 0.822(8) 0.876(3)
H1_2 H 0.263941 0.905964 0.894673
O7 O 0.577(7) 0.880(5) 0.822(2)
C4 C 0.681(12) 0.859(9) 0.876(3)
H4 H 0.642023 0.736059 0.894673
O11_2 O 0.303(5) 0.880(5) 0.678(2)
C6_4 C 0.178(8) 0.859(9) 0.624(3)
H6_4 H 0.094036 0.736059 0.605327
O13_2 O 0.577(7) 0.697(5) 0.678(2)
O14_2 O 0.120(5) 0.423(7) 0.678(2)
C6_5 C 0.141(9) 0.319(12) 0.624(3)
H6_5 H 0.263941 0.357977 0.605327
C6_6 C 0.681(12) 0.822(8) 0.624(3)
H6_6 H 0.642023 0.905964 0.605327
loop_
_geom_bond_atom_site_label_1
_geom_bond_atom_site_label_2
_geom_bond_site_symmetry_1
_geom_bond_site_symmetry_2
O9 C5 1_555 1_555
O10 Fe6 1_555 1_555
C5 O10 1_555 1_555
H5 C5 1_555 1_555
Fe4 O9 1_555 1_555
O16 Fe6_2 1_555 1_555
O15 Fe6_4 1_555 1_555
Fe4 O1 1_555 1_555
O1 C1 1_555 1_555
Fe6_5 O2 1_555 1_555
O2 C1 1_555 1_555
C1 H1 1_555 1_555
O5 Fe4 1_555 1_555
O6 C3 1_555 1_555
C3 O5 1_555 1_555
H3 C3 1_555 1_555
O11 Fe4 1_555 1_555
O12 C6 1_555 1_555
C6 O11 1_555 1_555
H6 C6 1_555 1_555
O13 Fe4 1_555 1_555
O14 Fe4 1_555 1_555
Fe6_7 O6 1_555 1_555
Fe7_3 O12 1_555 1_555
O17 Fe6_8 1_555 1_555
O12_2 C6_2 1_555 1_555
C6_2 O14 1_555 1_555
H6_2 C6_2 1_555 1_555
Fe7_4 O12_2 1_555 1_555
O12_3 C6_3 1_555 1_555
C6_3 O13 1_555 1_555
H6_3 C6_3 1_555 1_555
Fe7 O12_3 1_555 1_555
O17_2 Fe7 1_555 1_555
O15_2 Fe7_2 1_555 1_555
O16_2 Fe7_4 1_555 1_555
O3 C2 1_555 1_555
C2 O16 1_555 1_555
H2 C2 1_555 1_555
Fe3 O3 1_555 1_555
Fe3 O1_2 1_555 1_555
O1_2 C1_2 1_555 1_555
O15 C1_2 1_555 1_555
C1_2 H1_2 1_555 1_555
O7 Fe3 1_555 1_555
O17 C4 1_555 1_555
C4 O7 1_555 1_555
H4 C4 1_555 1_555
O11_2 Fe3 1_555 1_555
O15_2 C6_4 1_555 1_555
C6_4 O11_2 1_555 1_555
H6_4 C6_4 1_555 1_555
O13_2 Fe3 1_555 1_555
O14_2 Fe3 1_555 1_555
O17_2 C6_5 1_555 1_555
C6_5 O14_2 1_555 1_555
H6_5 C6_5 1_555 1_555
O16_2 C6_6 1_555 1_555
C6_6 O13_2 1_555 1_555
H6_6 C6_6 1_555 1_555

#END
