
###############################################################################
#
# This file contains modified crystal structure data generated from the
# MOF subset of the Cambridge Structural Database (CSD) v543 
# hosted by the Cambridge Crystallographic Data Centre (CCDC).
#
# This work is licensed under the Creative Commons
# Attribution-NonCommercial-ShareAlike 4.0 International License.
# To view a copy of this license, visit
# http://creativecommons.org/licenses/by-nc-sa/4.0/
# or send a letter to
# Creative Commons, PO Box 1866, Mountain View, CA 94042, USA.
#
# CIF created using the CSD Python API on 29 September 2022
# The structure has been converted into the P1 space group
# The structure has a 3D framework
# The original CSD entry NUDNUW05 is in the trigonal crystal system
# The framework has been calculated to contain at least 10.0% void space
# The void calculation uses a probe of radius 1.32A, grid spacing 0.4
# The framework is charged, counterions have been retained in the structure
#
###############################################################################

data_NUDNUW05
_chemical_formula_moiety         '(C12 H12 Fe7 O18 1-)n'
_symmetry_cell_setting           triclinic
_symmetry_space_group_name_H-M   'P 1'
_symmetry_Int_Tables_number      1
_space_group_name_Hall           'P 1'
loop_
_symmetry_equiv_pos_site_id
_symmetry_equiv_pos_as_xyz
1 x,y,z
_cell_length_a                   8.2485(2)
_cell_length_b                   8.2485(2)
_cell_length_c                   13.8542(5)
_cell_angle_alpha                90
_cell_angle_beta                 90
_cell_angle_gamma                120
_cell_volume                     816.323
loop_
_atom_site_label
_atom_site_type_symbol
_atom_site_fract_x
_atom_site_fract_y
_atom_site_fract_z
Fe6 Fe 0.0000 0.0000 0.0000
Fe6_2 Fe 0.0000 0.0000 1.0000
O2 O 0.01242(13) 0.20642(13) 0.08177(7)
O11 O 0.45580(21) 0.11388(15) 0.16643(9)
C6 C 0.33612(16) 0.12521(11) 0.11835(6)
H6 H 0.3542(6) 0.2629(4) 0.1050(3)
Fe4 Fe 0.6667 0.3333 0.2500
Fe6_3 Fe 0.0000 1.0000 0.0000
Fe7 Fe -0.0000 0.0000 0.5000
Fe6_4 Fe 0.0000 1.0000 1.0000
O16 O 0.20642(13) 0.19400(18) 0.91823(7)
O12 O 0.19400(18) 0.98758(13) 0.08177(7)
Fe7_2 Fe -0.0000 1.0000 0.5000
Fe6_5 Fe 1.0000 0.0000 0.0000
Fe6_6 Fe 1.0000 0.0000 1.0000
O1 O 0.88612(15) 0.34192(15) 0.16643(9)
C1 C 0.87479(11) 0.21091(12) 0.11835(6)
H1 H 0.7371(4) 0.0913(5) 0.1050(3)
O5 O 0.65808(15) 0.54420(21) 0.16643(9)
O6 O 0.79358(13) 0.80600(18) 0.08177(7)
C3 C 0.78909(12) 0.66388(16) 0.11835(6)
H3 H 0.9087(5) 0.6458(6) 0.1050(3)
O7 O 0.65808(15) 0.11388(15) 0.33357(9)
C4 C 0.78909(12) 0.12521(11) 0.38165(6)
H4 H 0.9087(5) 0.2629(4) 0.3950(3)
Fe6_7 Fe 1.0000 1.0000 0.0000
Fe7_3 Fe 1.0000 0.0000 0.5000
O13 O 0.88612(15) 0.54420(21) 0.33357(9)
O14 O 0.45580(21) 0.34192(15) 0.33357(9)
Fe6_8 Fe 1.0000 1.0000 1.0000
O17 O 0.80600(18) 0.01242(13) 0.91823(7)
O8 O 0.79358(13) 0.98758(13) 0.41823(7)
Fe7_4 Fe 1.0000 1.0000 0.5000
O15 O 0.98758(13) 0.79358(13) 0.91823(7)
O8_2 O 0.01242(13) 0.80600(18) 0.41823(7)
C4_2 C 0.87479(11) 0.66388(16) 0.38165(6)
H4_2 H 0.7371(4) 0.6458(6) 0.3950(3)
O4 O 0.19400(18) 0.20642(13) 0.41823(7)
C2 C 0.33612(16) 0.21091(12) 0.38165(6)
H2 H 0.3542(6) 0.0913(5) 0.3950(3)
O15_2 O 0.20642(13) 0.01242(13) 0.58177(7)
O17_2 O 0.98758(13) 0.19400(18) 0.58177(7)
O16_2 O 0.80600(18) 0.79358(13) 0.58177(7)
O3 O 0.34192(15) 0.45580(21) 0.83357(9)
C2_2 C 0.21091(12) 0.33612(16) 0.88165(6)
H2_2 H 0.0913(5) 0.3542(6) 0.8950(3)
Fe3 Fe 0.3333 0.6667 0.7500
O1_2 O 0.11388(15) 0.65808(15) 0.83357(9)
C1_2 C 0.12521(11) 0.78909(12) 0.88165(6)
H1_2 H 0.2629(4) 0.9087(5) 0.8950(3)
O7_2 O 0.34192(15) 0.88612(15) 0.66643(9)
C4_3 C 0.21091(12) 0.87479(11) 0.61835(6)
H4_3 H 0.0913(5) 0.7371(4) 0.6050(3)
O9 O 0.54420(21) 0.88612(15) 0.83357(9)
C5 C 0.66388(16) 0.87479(11) 0.88165(6)
H5 H 0.6458(6) 0.7371(4) 0.8950(3)
O13_2 O 0.11388(15) 0.45580(21) 0.66643(9)
O14_2 O 0.54420(21) 0.65808(15) 0.66643(9)
C4_4 C 0.12521(11) 0.33612(16) 0.61835(6)
H4_4 H 0.2629(4) 0.3542(6) 0.6050(3)
C3_2 C 0.66388(16) 0.78909(12) 0.61835(6)
H3_2 H 0.6458(6) 0.9087(5) 0.6050(3)
loop_
_geom_bond_atom_site_label_1
_geom_bond_atom_site_label_2
_geom_bond_site_symmetry_1
_geom_bond_site_symmetry_2
Fe6 O2 1_555 1_555
O11 C6 1_555 1_555
H6 C6 1_555 1_555
Fe4 O11 1_555 1_555
O16 Fe6_2 1_555 1_555
O12 Fe6_3 1_555 1_555
Fe4 O1 1_555 1_555
O1 C1 1_555 1_555
C1 H1 1_555 1_555
O5 Fe4 1_555 1_555
O6 C3 1_555 1_555
C3 O5 1_555 1_555
H3 C3 1_555 1_555
O7 Fe4 1_555 1_555
C4 O7 1_555 1_555
H4 C4 1_555 1_555
Fe6_7 O6 1_555 1_555
O13 Fe4 1_555 1_555
O14 Fe4 1_555 1_555
O17 Fe6_6 1_555 1_555
Fe7_4 O8 1_555 1_555
O15 Fe6_8 1_555 1_555
Fe7_2 O8_2 1_555 1_555
C4_2 O13 1_555 1_555
H4_2 C4_2 1_555 1_555
O14 C2 1_555 1_555
O4 Fe7 1_555 1_555
C2 O4 1_555 1_555
H2 C2 1_555 1_555
O15_2 Fe7 1_555 1_555
O17_2 Fe7_3 1_555 1_555
O16_2 Fe7_4 1_555 1_555
O3 C2_2 1_555 1_555
C2_2 O16 1_555 1_555
H2_2 C2_2 1_555 1_555
Fe3 O3 1_555 1_555
Fe3 O1_2 1_555 1_555
O1_2 C1_2 1_555 1_555
C1_2 H1_2 1_555 1_555
O7_2 Fe3 1_555 1_555
C4_3 O7_2 1_555 1_555
H4_3 C4_3 1_555 1_555
O9 Fe3 1_555 1_555
C5 O9 1_555 1_555
H5 C5 1_555 1_555
O13_2 Fe3 1_555 1_555
O14_2 Fe3 1_555 1_555
C4_4 O13_2 1_555 1_555
H4_4 C4_4 1_555 1_555
O16_2 C3_2 1_555 1_555
C3_2 O14_2 1_555 1_555
H3_2 C3_2 1_555 1_555

#END
