
###############################################################################
#
# This file contains modified crystal structure data generated from the
# MOF subset of the Cambridge Structural Database (CSD) v543 
# hosted by the Cambridge Crystallographic Data Centre (CCDC).
#
# This work is licensed under the Creative Commons
# Attribution-NonCommercial-ShareAlike 4.0 International License.
# To view a copy of this license, visit
# http://creativecommons.org/licenses/by-nc-sa/4.0/
# or send a letter to
# Creative Commons, PO Box 1866, Mountain View, CA 94042, USA.
#
# CIF created using the CSD Python API on 29 September 2022
# The structure has been converted into the P1 space group
# The structure has a 3D framework
# The original CSD entry NUDNUW14 is in the trigonal crystal system
# The framework has been calculated to contain at least 10.0% void space
# The void calculation uses a probe of radius 1.32A, grid spacing 0.4
# The framework is charged, counterions have been retained in the structure
#
###############################################################################

data_NUDNUW14
_chemical_formula_moiety         '(C12 H12 Fe6 O18)n'
_symmetry_cell_setting           triclinic
_symmetry_space_group_name_H-M   'P 1'
_symmetry_Int_Tables_number      1
_space_group_name_Hall           'P 1'
loop_
_symmetry_equiv_pos_site_id
_symmetry_equiv_pos_as_xyz
1 x,y,z
_cell_length_a                   8.2675(5)
_cell_length_b                   8.2675(5)
_cell_length_c                   13.1686(5)
_cell_angle_alpha                90
_cell_angle_beta                 90
_cell_angle_gamma                120
_cell_volume                     779.505
loop_
_atom_site_label
_atom_site_type_symbol
_atom_site_fract_x
_atom_site_fract_y
_atom_site_fract_z
Fe6 Fe 0.0000 0.0000 0.0000
Fe6_2 Fe 0.0000 0.0000 1.0000
Fe6_3 Fe 0.0000 1.0000 0.0000
Fe6_4 Fe 0.0000 1.0000 1.0000
Fe6_5 Fe 1.0000 0.0000 0.0000
O17 O 0.1898(6) 0.2080(4) 0.08518(18)
O2 O 0.2080(4) 0.0182(4) 0.91482(18)
O5 O 0.1116(5) 0.4603(6) 0.8362(2)
C3 C 0.1186(6) 0.3356(8) 0.8814(2)
H3 H 0.2363 0.3500 0.8920
Fe4 Fe 0.3333 0.6667 0.7500
Fe6_6 Fe 1.0000 0.0000 1.0000
Fe7 Fe 0.0000 0.0000 0.5000
Fe6_7 Fe 1.0000 1.0000 0.0000
O16 O 0.0182(4) 0.8102(6) 0.08518(18)
O1 O 0.3487(4) 0.8884(5) 0.8362(2)
C1 C 0.2170(6) 0.8814(6) 0.8814(2)
H1 H 0.1137 0.7637 0.8920
O9 O 0.5397(6) 0.6513(4) 0.8362(2)
C5 C 0.6644(8) 0.7830(6) 0.8814(2)
H5 H 0.6500 0.8863 0.8920
O10 O 0.8102(6) 0.7920(4) 0.91482(18)
O11 O 0.1116(5) 0.6513(4) 0.6638(2)
C6 C 0.1186(6) 0.7830(6) 0.6186(2)
H6 H 0.2363 0.8863 0.6080
Fe6_8 Fe 1.0000 1.0000 1.0000
Fe7_2 Fe 0.0000 1.0000 0.5000
O13 O 0.5397(6) 0.8884(5) 0.6638(2)
O14 O 0.3487(4) 0.4603(6) 0.6638(2)
O6 O 0.9818(4) 0.1898(6) 0.91482(18)
Fe7_3 Fe 1.0000 0.0000 0.5000
O15 O 0.7920(4) 0.9818(4) 0.08518(18)
O12 O 0.9818(4) 0.7920(4) 0.58518(18)
Fe7_4 Fe 1.0000 1.0000 0.5000
C6_2 C 0.2170(6) 0.3356(8) 0.6186(2)
H6_2 H 0.1137 0.3500 0.6080
O12_2 O 0.2080(4) 0.1898(6) 0.58518(18)
O12_3 O 0.8102(6) 0.0182(4) 0.58518(18)
C6_3 C 0.6644(8) 0.8814(6) 0.6186(2)
H6_3 H 0.6500 0.7637 0.6080
O15_2 O 0.0182(4) 0.2080(4) 0.41482(18)
O16_2 O 0.1898(6) 0.9818(4) 0.41482(18)
O17_2 O 0.7920(4) 0.8102(6) 0.41482(18)
O7 O 0.4603(6) 0.3487(4) 0.1638(2)
C4 C 0.3356(8) 0.2170(6) 0.1186(2)
H4 H 0.3500 0.1137 0.1080
Fe3 Fe 0.6667 0.3333 0.2500
O1_2 O 0.6513(4) 0.1116(5) 0.1638(2)
C1_2 C 0.7830(6) 0.1186(6) 0.1186(2)
H1_2 H 0.8863 0.2363 0.1080
O3 O 0.8884(5) 0.5397(6) 0.1638(2)
C2 C 0.8814(6) 0.6644(8) 0.1186(2)
H2 H 0.7637 0.6500 0.1080
O11_2 O 0.8884(5) 0.3487(4) 0.3362(2)
C6_4 C 0.8814(6) 0.2170(6) 0.3814(2)
H6_4 H 0.7637 0.1137 0.3920
O13_2 O 0.4603(6) 0.1116(5) 0.3362(2)
O14_2 O 0.6513(4) 0.5397(6) 0.3362(2)
C6_5 C 0.7830(6) 0.6644(8) 0.3814(2)
H6_5 H 0.8863 0.6500 0.3920
C6_6 C 0.3356(8) 0.1186(6) 0.3814(2)
H6_6 H 0.3500 0.2363 0.3920
loop_
_geom_bond_atom_site_label_1
_geom_bond_atom_site_label_2
_geom_bond_site_symmetry_1
_geom_bond_site_symmetry_2
O17 Fe6 1_555 1_555
Fe6_2 O2 1_555 1_555
O5 C3 1_555 1_555
C3 H3 1_555 1_555
Fe4 O5 1_555 1_555
O16 Fe6_3 1_555 1_555
Fe4 O1 1_555 1_555
O1 C1 1_555 1_555
C1 H1 1_555 1_555
O9 Fe4 1_555 1_555
C5 O9 1_555 1_555
H5 C5 1_555 1_555
O10 C5 1_555 1_555
O11 Fe4 1_555 1_555
C6 O11 1_555 1_555
H6 C6 1_555 1_555
Fe6_8 O10 1_555 1_555
O13 Fe4 1_555 1_555
O14 Fe4 1_555 1_555
O6 Fe6_6 1_555 1_555
O15 Fe6_7 1_555 1_555
Fe7_4 O12 1_555 1_555
C6_2 O14 1_555 1_555
H6_2 C6_2 1_555 1_555
O12_2 C6_2 1_555 1_555
Fe7 O12_2 1_555 1_555
Fe7_3 O12_3 1_555 1_555
C6_3 O13 1_555 1_555
H6_3 C6_3 1_555 1_555
O15_2 Fe7 1_555 1_555
O16_2 Fe7_2 1_555 1_555
O17_2 Fe7_4 1_555 1_555
O7 C4 1_555 1_555
C4 H4 1_555 1_555
Fe3 O7 1_555 1_555
C4 O17 1_555 1_555
Fe3 O1_2 1_555 1_555
O1_2 C1_2 1_555 1_555
C1_2 H1_2 1_555 1_555
O3 Fe3 1_555 1_555
C2 O3 1_555 1_555
H2 C2 1_555 1_555
O11_2 Fe3 1_555 1_555
C6_4 O11_2 1_555 1_555
H6_4 C6_4 1_555 1_555
O13_2 Fe3 1_555 1_555
O14_2 Fe3 1_555 1_555
C6_5 O14_2 1_555 1_555
H6_5 C6_5 1_555 1_555
O17_2 C6_5 1_555 1_555
C6_6 O13_2 1_555 1_555
H6_6 C6_6 1_555 1_555

#END
