
###############################################################################
#
# This file contains modified crystal structure data generated from the
# MOF subset of the Cambridge Structural Database (CSD) v543 
# hosted by the Cambridge Crystallographic Data Centre (CCDC).
#
# This work is licensed under the Creative Commons
# Attribution-NonCommercial-ShareAlike 4.0 International License.
# To view a copy of this license, visit
# http://creativecommons.org/licenses/by-nc-sa/4.0/
# or send a letter to
# Creative Commons, PO Box 1866, Mountain View, CA 94042, USA.
#
# CIF created using the CSD Python API on 29 September 2022
# The structure has been converted into the P1 space group
# The structure has a 3D framework
# The original CSD entry NUDNEH is in the monoclinic crystal system
# The framework has been calculated to contain at least 10.0% void space
# The void calculation uses a probe of radius 1.32A, grid spacing 0.4
#
###############################################################################

data_NUDNEH
_chemical_formula_moiety         '(C56 H32 Mg10 N8 O40)n'
_symmetry_cell_setting           triclinic
_symmetry_space_group_name_H-M   'P 1'
_symmetry_Int_Tables_number      1
_space_group_name_Hall           'P 1'
loop_
_symmetry_equiv_pos_site_id
_symmetry_equiv_pos_as_xyz
1 x,y,z
_cell_length_a                   18.0488(5)
_cell_length_b                   12.7515(4)
_cell_length_c                   10.9978(3)
_cell_angle_alpha                90
_cell_angle_beta                 103.1300(10)
_cell_angle_gamma                90
_cell_volume                     2464.96
loop_
_atom_site_label
_atom_site_type_symbol
_atom_site_fract_x
_atom_site_fract_y
_atom_site_fract_z
Mg1 Mg 0.08501(4) 0.03650(6) 0.54126(7)
Mg2 Mg 0.0000 0.09826(8) 0.7500
O10 O 0.02120(9) 0.08679(14) 0.94627(15)
H5 H 0.0376(17) 0.145(3) 0.972(3)
O12 O 0.13326(10) 0.08933(14) 0.40084(15)
O14 O 0.14537(10) 0.16607(15) 0.63017(16)
O16 O 0.08299(10) 0.20971(14) 0.77613(17)
Mg7 Mg 0.08501(4) 0.96350(6) 0.04126(7)
N1 N 0.18565(11) 0.93323(17) 0.61203(19)
O1 O 0.07652(9) 0.98555(13) 0.72054(15)
O2 O 0.13326(10) 0.91067(14) 0.90084(15)
O3 O 0.35463(10) 0.66607(15) 0.86983(16)
O4 O 0.41701(10) 0.70971(14) 0.72387(17)
C1 C 0.19032(14) 0.89409(19) 0.7276(2)
C2 C 0.24655(14) 0.8259(2) 0.7859(2)
H2 H 0.2445(17) 0.806(2) 0.864(3)
C3 C 0.30175(14) 0.7957(2) 0.7225(2)
C4 C 0.29836(15) 0.8379(2) 0.6048(3)
H3 H 0.3362(19) 0.820(3) 0.559(3)
C5 C 0.23999(16) 0.9055(2) 0.5533(3)
H4 H 0.2322(18) 0.934(3) 0.466(3)
C6 C 0.12824(13) 0.93213(18) 0.7890(2)
C7 C 0.36325(14) 0.71731(19) 0.7775(2)
Mg5 Mg 0.41499(4) 0.53650(6) 0.95874(7)
Mg9 Mg 0.5000 0.59826(8) 0.7500
O17 O 0.02120(9) 0.91321(14) 0.44627(15)
O11 O 0.86674(10) 0.08933(14) 0.09916(15)
Mg2_2 Mg 1.0000 0.09826(8) 0.7500
O5 O 0.97880(9) 0.08679(14) 0.55373(15)
H1 H 0.9624(17) 0.145(3) 0.528(3)
Mg3 Mg 0.91499(4) 0.03650(6) 0.95874(7)
O13 O 0.85463(10) 0.16607(15) 0.86983(16)
O15 O 0.91701(10) 0.20971(14) 0.72387(17)
H8 H 0.7678(18) 0.934(3) 0.034(3)
O18 O 0.97880(9) 0.91321(14) 0.05373(15)
N2 N 0.81435(11) 0.93323(17) 0.88797(19)
O6 O 0.92348(9) 0.98555(13) 0.77946(15)
O7 O 0.86674(10) 0.91067(14) 0.59916(15)
O8 O 0.64537(10) 0.66607(15) 0.63017(16)
O9 O 0.58299(10) 0.70971(14) 0.77613(17)
C8 C 0.80968(14) 0.89409(19) 0.7724(2)
C9 C 0.75345(14) 0.8259(2) 0.7141(2)
H6 H 0.7555(17) 0.806(2) 0.636(3)
C10 C 0.69825(14) 0.7957(2) 0.7775(2)
C11 C 0.70164(15) 0.8379(2) 0.8952(3)
H7 H 0.6638(19) 0.820(3) 0.941(3)
C12 C 0.76001(16) 0.9055(2) 0.9467(3)
C13 C 0.87176(13) 0.93213(18) 0.7110(2)
C14 C 0.63675(14) 0.71731(19) 0.7225(2)
Mg4 Mg 0.58501(4) 0.53650(6) 0.54126(7)
Mg6 Mg 0.91499(4) 0.96350(6) 0.45874(7)
H8_2 H 0.2678(18) 0.434(3) 0.034(3)
Mg7_2 Mg 0.58501(4) 0.46350(6) 0.04126(7)
O11_2 O 0.36674(10) 0.58933(14) 0.09916(15)
O18_2 O 0.47880(9) 0.41321(14) 0.05373(15)
N1_2 N 0.68565(11) 0.43323(17) 0.61203(19)
O1_2 O 0.57652(9) 0.48555(13) 0.72054(15)
O2_2 O 0.63326(10) 0.41067(14) 0.90084(15)
O5_2 O 0.47880(9) 0.58679(14) 0.55373(15)
H1_2 H 0.4624(17) 0.645(3) 0.528(3)
C1_2 C 0.69032(14) 0.39409(19) 0.7276(2)
C2_2 C 0.74655(14) 0.3259(2) 0.7859(2)
H2_2 H 0.7445(17) 0.306(2) 0.864(3)
C3_2 C 0.80175(14) 0.2957(2) 0.7225(2)
C4_2 C 0.79836(15) 0.3379(2) 0.6048(3)
H3_2 H 0.8362(19) 0.320(3) 0.559(3)
C5_2 C 0.73999(16) 0.4055(2) 0.5533(3)
H4_2 H 0.7322(18) 0.434(3) 0.466(3)
C6_2 C 0.62824(13) 0.43213(18) 0.7890(2)
C7_2 C 0.86325(14) 0.21731(19) 0.7775(2)
N2_2 N 0.31435(11) 0.43323(17) 0.88797(19)
O6_2 O 0.42348(9) 0.48555(13) 0.77946(15)
O7_2 O 0.36674(10) 0.41067(14) 0.59916(15)
O10_2 O 0.52120(9) 0.58679(14) 0.94627(15)
H5_2 H 0.5376(17) 0.645(3) 0.972(3)
C8_2 C 0.30968(14) 0.39409(19) 0.7724(2)
C9_2 C 0.25345(14) 0.3259(2) 0.7141(2)
H6_2 H 0.2555(17) 0.306(2) 0.636(3)
C10_2 C 0.19825(14) 0.2957(2) 0.7775(2)
C11_2 C 0.20164(15) 0.3379(2) 0.8952(3)
H7_2 H 0.1638(19) 0.320(3) 0.941(3)
C12_2 C 0.26001(16) 0.4055(2) 0.9467(3)
C13_2 C 0.37176(13) 0.43213(18) 0.7110(2)
C14_2 C 0.13675(14) 0.21731(19) 0.7225(2)
Mg6_2 Mg 0.41499(4) 0.46350(6) 0.45874(7)
O12_2 O 0.63326(10) 0.58933(14) 0.40084(15)
O17_2 O 0.52120(9) 0.41321(14) 0.44627(15)
N2_3 N 0.18565(11) 0.06677(17) 0.11203(19)
O6_3 O 0.07652(9) 0.01445(13) 0.22054(15)
O8_2 O 0.35463(10) 0.33393(15) 0.36983(16)
O9_2 O 0.41701(10) 0.29029(14) 0.22387(17)
C8_3 C 0.19032(14) 0.10591(19) 0.2276(2)
C9_3 C 0.24655(14) 0.1741(2) 0.2859(2)
H6_3 H 0.2445(17) 0.194(2) 0.364(3)
C10_3 C 0.30175(14) 0.2043(2) 0.2225(2)
C11_3 C 0.29836(15) 0.1621(2) 0.1048(3)
H7_3 H 0.3362(19) 0.180(3) 0.059(3)
C12_3 C 0.23999(16) 0.0945(2) 0.0533(3)
C13_3 C 0.12824(13) 0.06787(18) 0.2890(2)
C14_3 C 0.36325(14) 0.28269(19) 0.2775(2)
Mg8 Mg 0.5000 0.40174(8) 0.2500
H8_3 H 0.2322(18) 0.066(3) 0.966(3)
Mg2_3 Mg -0.0000 0.90174(8) 0.2500
H1_3 H 0.0376(17) 0.855(3) 0.472(3)
O13_2 O 0.14537(10) 0.83393(15) 0.13017(16)
O15_2 O 0.08299(10) 0.79029(14) 0.27613(17)
N1_3 N 0.81435(11) 0.06677(17) 0.38797(19)
O1_3 O 0.92348(9) 0.01445(13) 0.27946(15)
O3_2 O 0.64537(10) 0.33393(15) 0.13017(16)
O4_2 O 0.58299(10) 0.29029(14) 0.27613(17)
C1_3 C 0.80968(14) 0.10591(19) 0.2724(2)
C2_3 C 0.75345(14) 0.1741(2) 0.2141(2)
H2_3 H 0.7555(17) 0.194(2) 0.136(3)
C3_3 C 0.69825(14) 0.2043(2) 0.2775(2)
C4_3 C 0.70164(15) 0.1621(2) 0.3952(3)
H3_3 H 0.6638(19) 0.180(3) 0.441(3)
C5_3 C 0.76001(16) 0.0945(2) 0.4467(3)
H4_3 H 0.7678(18) 0.066(3) 0.534(3)
C6_3 C 0.87176(13) 0.06787(18) 0.2110(2)
C7_3 C 0.63675(14) 0.28269(19) 0.2225(2)
Mg2_4 Mg 1.0000 0.90174(8) 0.2500
H5_3 H 0.9624(17) 0.855(3) 0.028(3)
O14_2 O 0.85463(10) 0.83393(15) 0.36983(16)
O16_2 O 0.91701(10) 0.79029(14) 0.22387(17)
N1_4 N 0.31435(11) 0.56677(17) 0.38797(19)
O1_4 O 0.42348(9) 0.51445(13) 0.27946(15)
H1_4 H 0.5376(17) 0.355(3) 0.472(3)
C1_4 C 0.30968(14) 0.60591(19) 0.2724(2)
C2_4 C 0.25345(14) 0.6741(2) 0.2141(2)
H2_4 H 0.2555(17) 0.694(2) 0.136(3)
C3_4 C 0.19825(14) 0.7043(2) 0.2775(2)
C4_4 C 0.20164(15) 0.6621(2) 0.3952(3)
H3_4 H 0.1638(19) 0.680(3) 0.441(3)
C5_4 C 0.26001(16) 0.5945(2) 0.4467(3)
H4_4 H 0.2678(18) 0.566(3) 0.534(3)
C6_4 C 0.37176(13) 0.56787(18) 0.2110(2)
C7_4 C 0.13675(14) 0.78269(19) 0.2225(2)
N2_4 N 0.68565(11) 0.56677(17) 0.11203(19)
O6_4 O 0.57652(9) 0.51445(13) 0.22054(15)
H5_4 H 0.4624(17) 0.355(3) 0.028(3)
C8_4 C 0.69032(14) 0.60591(19) 0.2276(2)
C9_4 C 0.74655(14) 0.6741(2) 0.2859(2)
H6_4 H 0.7445(17) 0.694(2) 0.364(3)
C10_4 C 0.80175(14) 0.7043(2) 0.2225(2)
C11_4 C 0.79836(15) 0.6621(2) 0.1048(3)
H7_4 H 0.8362(19) 0.680(3) 0.059(3)
C12_4 C 0.73999(16) 0.5945(2) 0.0533(3)
C13_4 C 0.62824(13) 0.56787(18) 0.2890(2)
C14_4 C 0.86325(14) 0.78269(19) 0.2775(2)
H8_4 H 0.7322(18) 0.566(3) 0.966(3)
loop_
_geom_bond_atom_site_label_1
_geom_bond_atom_site_label_2
_geom_bond_site_symmetry_1
_geom_bond_site_symmetry_2
O10 Mg2 1_555 1_555
H5 O10 1_555 1_555
O12 Mg1 1_555 1_555
O14 Mg1 1_555 1_555
O16 Mg2 1_555 1_555
O1 C6 1_555 1_555
O2 C6 1_555 1_555
O3 C7 1_555 1_555
O4 C7 1_555 1_555
C1 N1 1_555 1_555
C2 C1 1_555 1_555
H2 C2 1_555 1_555
C3 C2 1_555 1_555
C4 C3 1_555 1_555
H3 C4 1_555 1_555
C5 N1 1_555 1_555
H4 C5 1_555 1_555
C6 C1 1_555 1_555
C7 C3 1_555 1_555
Mg5 O3 1_555 1_555
Mg9 O4 1_555 1_555
C4 C5 1_555 1_555
H1 O5 1_555 1_555
O13 Mg3 1_555 1_555
O15 Mg2_2 1_555 1_555
Mg2_2 O5 1_555 1_555
O7 C13 1_555 1_555
O8 C14 1_555 1_555
O9 C14 1_555 1_555
C8 N2 1_555 1_555
C9 C8 1_555 1_555
H6 C9 1_555 1_555
C10 C9 1_555 1_555
C11 C10 1_555 1_555
H7 C11 1_555 1_555
C12 N2 1_555 1_555
C13 O6 1_555 1_555
C14 C10 1_555 1_555
Mg4 O8 1_555 1_555
Mg9 O9 1_555 1_555
O7 Mg6 1_555 1_555
C8 C13 1_555 1_555
C11 C12 1_555 1_555
Mg7_2 O18_2 1_555 1_555
N1_2 Mg4 1_555 1_555
Mg4 O1_2 1_555 1_555
Mg9 O1_2 1_555 1_555
O1_2 C6_2 1_555 1_555
O2_2 C6_2 1_555 1_555
O13 C7_2 1_555 1_555
O15 C7_2 1_555 1_555
O5_2 Mg4 1_555 1_555
H1_2 O5_2 1_555 1_555
C1_2 N1_2 1_555 1_555
C2_2 C1_2 1_555 1_555
H2_2 C2_2 1_555 1_555
C3_2 C2_2 1_555 1_555
C4_2 C3_2 1_555 1_555
H3_2 C4_2 1_555 1_555
C5_2 N1_2 1_555 1_555
H4_2 C5_2 1_555 1_555
C6_2 C1_2 1_555 1_555
C7_2 C3_2 1_555 1_555
N2_2 Mg5 1_555 1_555
Mg5 O6_2 1_555 1_555
O6_2 Mg9 1_555 1_555
O7_2 C13_2 1_555 1_555
O14 C14_2 1_555 1_555
O16 C14_2 1_555 1_555
O10_2 Mg9 1_555 1_555
H5_2 O10_2 1_555 1_555
C8_2 N2_2 1_555 1_555
C9_2 C8_2 1_555 1_555
H6_2 C9_2 1_555 1_555
C10_2 C9_2 1_555 1_555
C11_2 C10_2 1_555 1_555
H7_2 C11_2 1_555 1_555
C12_2 N2_2 1_555 1_555
C13_2 O6_2 1_555 1_555
C14_2 C10_2 1_555 1_555
Mg6_2 O5_2 1_555 1_555
O12_2 Mg4 1_555 1_555
O17_2 Mg4 1_555 1_555
Mg9 O5_2 1_555 1_555
C4_2 C5_2 1_555 1_555
Mg5 O10_2 1_555 1_555
O7_2 Mg6_2 1_555 1_555
C8_2 C13_2 1_555 1_555
C11_2 C12_2 1_555 1_555
Mg6_2 O17_2 1_555 1_555
O12 C13_3 1_555 1_555
O8_2 C14_3 1_555 1_555
O9_2 C14_3 1_555 1_555
C8_3 N2_3 1_555 1_555
C9_3 C8_3 1_555 1_555
H6_3 C9_3 1_555 1_555
C10_3 C9_3 1_555 1_555
C11_3 C10_3 1_555 1_555
H7_3 C11_3 1_555 1_555
C12_3 N2_3 1_555 1_555
C13_3 O6_3 1_555 1_555
C14_3 C10_3 1_555 1_555
Mg6_2 O8_2 1_555 1_555
Mg8 O9_2 1_555 1_555
C8_3 C13_3 1_555 1_555
C11_3 C12_3 1_555 1_555
H1_3 O17 1_555 1_555
O13_2 Mg7 1_555 1_555
O15_2 Mg2_3 1_555 1_555
Mg2_3 O17 1_555 1_555
O1_3 C6_3 1_555 1_555
O11 C6_3 1_555 1_555
O3_2 C7_3 1_555 1_555
O4_2 C7_3 1_555 1_555
C1_3 N1_3 1_555 1_555
C2_3 C1_3 1_555 1_555
H2_3 C2_3 1_555 1_555
C3_3 C2_3 1_555 1_555
C4_3 C3_3 1_555 1_555
H3_3 C4_3 1_555 1_555
C5_3 N1_3 1_555 1_555
H4_3 C5_3 1_555 1_555
C6_3 C1_3 1_555 1_555
C7_3 C3_3 1_555 1_555
Mg7_2 O3_2 1_555 1_555
Mg8 O4_2 1_555 1_555
C4_3 C5_3 1_555 1_555
O18 Mg2_4 1_555 1_555
H5_3 O18 1_555 1_555
O14_2 Mg6 1_555 1_555
O16_2 Mg2_4 1_555 1_555
N1_4 Mg6_2 1_555 1_555
Mg6_2 O1_4 1_555 1_555
Mg8 O1_4 1_555 1_555
O1_4 C6_4 1_555 1_555
O11_2 C6_4 1_555 1_555
O13_2 C7_4 1_555 1_555
O15_2 C7_4 1_555 1_555
H1_4 O17_2 1_555 1_555
C1_4 N1_4 1_555 1_555
C2_4 C1_4 1_555 1_555
H2_4 C2_4 1_555 1_555
C3_4 C2_4 1_555 1_555
C4_4 C3_4 1_555 1_555
H3_4 C4_4 1_555 1_555
C5_4 N1_4 1_555 1_555
H4_4 C5_4 1_555 1_555
C6_4 C1_4 1_555 1_555
C7_4 C3_4 1_555 1_555
N2_4 Mg7_2 1_555 1_555
Mg7_2 O6_4 1_555 1_555
O6_4 Mg8 1_555 1_555
O12_2 C13_4 1_555 1_555
O14_2 C14_4 1_555 1_555
O16_2 C14_4 1_555 1_555
O18_2 Mg8 1_555 1_555
H5_4 O18_2 1_555 1_555
C8_4 N2_4 1_555 1_555
C9_4 C8_4 1_555 1_555
H6_4 C9_4 1_555 1_555
C10_4 C9_4 1_555 1_555
C11_4 C10_4 1_555 1_555
H7_4 C11_4 1_555 1_555
C12_4 N2_4 1_555 1_555
C13_4 O6_4 1_555 1_555
C14_4 C10_4 1_555 1_555
Mg8 O17_2 1_555 1_555
C4_4 C5_4 1_555 1_555
C8_4 C13_4 1_555 1_555
C11_4 C12_4 1_555 1_555

#END
