
###############################################################################
#
# This file contains modified crystal structure data generated from the
# MOF subset of the Cambridge Structural Database (CSD) v543 
# hosted by the Cambridge Crystallographic Data Centre (CCDC).
#
# This work is licensed under the Creative Commons
# Attribution-NonCommercial-ShareAlike 4.0 International License.
# To view a copy of this license, visit
# http://creativecommons.org/licenses/by-nc-sa/4.0/
# or send a letter to
# Creative Commons, PO Box 1866, Mountain View, CA 94042, USA.
#
# CIF created using the CSD Python API on 29 September 2022
# The structure has been converted into the P1 space group
# The structure has a 3D framework
# The original CSD entry NUDNUW04 is in the trigonal crystal system
# The framework has been calculated to contain at least 10.0% void space
# The void calculation uses a probe of radius 1.32A, grid spacing 0.4
# The framework is charged, counterions have been retained in the structure
#
###############################################################################

data_NUDNUW04
_chemical_formula_moiety         '(C12 H12 Fe7 O18 1-)n'
_symmetry_cell_setting           triclinic
_symmetry_space_group_name_H-M   'P 1'
_symmetry_Int_Tables_number      1
_space_group_name_Hall           'P 1'
loop_
_symmetry_equiv_pos_site_id
_symmetry_equiv_pos_as_xyz
1 x,y,z
_cell_length_a                   8.2550(12)
_cell_length_b                   8.2550(12)
_cell_length_c                   13.891(3)
_cell_angle_alpha                90
_cell_angle_beta                 90
_cell_angle_gamma                120
_cell_volume                     819.782
loop_
_atom_site_label
_atom_site_type_symbol
_atom_site_fract_x
_atom_site_fract_y
_atom_site_fract_z
Fe6 Fe 0.0000 -0.0000 0.0000
Fe6_2 Fe 0.0000 -0.0000 1.0000
O2 O 0.0123(5) 0.2065(5) 0.0817(3)
O11 O 0.4557(8) 0.1135(5) 0.1668(4)
C6 C 0.3362(6) 0.1248(4) 0.1182(3)
H6 H 0.3540(22) 0.2626(13) 0.1048(14)
Fe4 Fe 0.6667 0.3333 0.2500
Fe6_3 Fe 0.0000 1.0000 0.0000
Fe7 Fe -0.0000 -0.0000 0.5000
Fe6_4 Fe 0.0000 1.0000 1.0000
O16 O 0.2065(5) 0.1942(7) 0.9183(3)
O12 O 0.1942(7) 0.9877(5) 0.0817(3)
Fe7_2 Fe -0.0000 1.0000 0.5000
Fe6_5 Fe 1.0000 -0.0000 0.0000
Fe6_6 Fe 1.0000 -0.0000 1.0000
O1 O 0.8865(5) 0.3422(6) 0.1668(4)
C1 C 0.8752(4) 0.2114(5) 0.1182(3)
H1 H 0.7374(13) 0.0914(18) 0.1048(14)
O5 O 0.6578(6) 0.5443(8) 0.1668(4)
O6 O 0.7935(5) 0.8058(7) 0.0817(3)
C3 C 0.7886(5) 0.6638(6) 0.1182(3)
H3 H 0.9086(18) 0.6460(22) 0.1048(14)
O7 O 0.6578(6) 0.1135(5) 0.3332(4)
C4 C 0.7886(5) 0.1248(4) 0.3818(3)
H4 H 0.9086(18) 0.2626(13) 0.3952(14)
Fe6_7 Fe 1.0000 1.0000 0.0000
Fe7_3 Fe 1.0000 -0.0000 0.5000
O13 O 0.8865(5) 0.5443(8) 0.3332(4)
O14 O 0.4557(8) 0.3422(6) 0.3332(4)
Fe6_8 Fe 1.0000 1.0000 1.0000
O17 O 0.8058(7) 0.0123(5) 0.9183(3)
O8 O 0.7935(5) 0.9877(5) 0.4183(3)
Fe7_4 Fe 1.0000 1.0000 0.5000
O15 O 0.9877(5) 0.7935(5) 0.9183(3)
O8_2 O 0.0123(5) 0.8058(7) 0.4183(3)
C4_2 C 0.8752(4) 0.6638(6) 0.3818(3)
H4_2 H 0.7374(13) 0.6460(22) 0.3952(14)
O4 O 0.1942(7) 0.2065(5) 0.4183(3)
C2 C 0.3362(6) 0.2114(5) 0.3818(3)
H2 H 0.3540(22) 0.0914(18) 0.3952(14)
O15_2 O 0.2065(5) 0.0123(5) 0.5817(3)
O17_2 O 0.9877(5) 0.1942(7) 0.5817(3)
O16_2 O 0.8058(7) 0.7935(5) 0.5817(3)
O3 O 0.3422(6) 0.4557(8) 0.8332(4)
C2_2 C 0.2114(5) 0.3362(6) 0.8818(3)
H2_2 H 0.0914(18) 0.3540(22) 0.8952(14)
Fe3 Fe 0.3333 0.6667 0.7500
O1_2 O 0.1135(5) 0.6578(6) 0.8332(4)
C1_2 C 0.1248(4) 0.7886(5) 0.8818(3)
H1_2 H 0.2626(13) 0.9086(18) 0.8952(14)
O7_2 O 0.3422(6) 0.8865(5) 0.6668(4)
C4_3 C 0.2114(5) 0.8752(4) 0.6182(3)
H4_3 H 0.0914(18) 0.7374(13) 0.6048(14)
O9 O 0.5443(8) 0.8865(5) 0.8332(4)
C5 C 0.6638(6) 0.8752(4) 0.8818(3)
H5 H 0.6460(22) 0.7374(13) 0.8952(14)
O13_2 O 0.1135(5) 0.4557(8) 0.6668(4)
O14_2 O 0.5443(8) 0.6578(6) 0.6668(4)
C4_4 C 0.1248(4) 0.3362(6) 0.6182(3)
H4_4 H 0.2626(13) 0.3540(22) 0.6048(14)
C3_2 C 0.6638(6) 0.7886(5) 0.6182(3)
H3_2 H 0.6460(22) 0.9086(18) 0.6048(14)
loop_
_geom_bond_atom_site_label_1
_geom_bond_atom_site_label_2
_geom_bond_site_symmetry_1
_geom_bond_site_symmetry_2
Fe6 O2 1_555 1_555
O11 C6 1_555 1_555
H6 C6 1_555 1_555
Fe4 O11 1_555 1_555
O16 Fe6_2 1_555 1_555
O12 Fe6_3 1_555 1_555
Fe4 O1 1_555 1_555
O1 C1 1_555 1_555
C1 H1 1_555 1_555
O5 Fe4 1_555 1_555
O6 C3 1_555 1_555
C3 O5 1_555 1_555
H3 C3 1_555 1_555
O7 Fe4 1_555 1_555
C4 O7 1_555 1_555
H4 C4 1_555 1_555
Fe6_7 O6 1_555 1_555
O13 Fe4 1_555 1_555
O14 Fe4 1_555 1_555
O17 Fe6_6 1_555 1_555
Fe7_4 O8 1_555 1_555
O15 Fe6_8 1_555 1_555
Fe7_2 O8_2 1_555 1_555
C4_2 O13 1_555 1_555
H4_2 C4_2 1_555 1_555
O14 C2 1_555 1_555
O4 Fe7 1_555 1_555
C2 O4 1_555 1_555
H2 C2 1_555 1_555
O15_2 Fe7 1_555 1_555
O17_2 Fe7_3 1_555 1_555
O16_2 Fe7_4 1_555 1_555
O3 C2_2 1_555 1_555
C2_2 O16 1_555 1_555
H2_2 C2_2 1_555 1_555
Fe3 O3 1_555 1_555
Fe3 O1_2 1_555 1_555
O1_2 C1_2 1_555 1_555
C1_2 H1_2 1_555 1_555
O7_2 Fe3 1_555 1_555
C4_3 O7_2 1_555 1_555
H4_3 C4_3 1_555 1_555
O9 Fe3 1_555 1_555
C5 O9 1_555 1_555
H5 C5 1_555 1_555
O13_2 Fe3 1_555 1_555
O14_2 Fe3 1_555 1_555
C4_4 O13_2 1_555 1_555
H4_4 C4_4 1_555 1_555
O16_2 C3_2 1_555 1_555
C3_2 O14_2 1_555 1_555
H3_2 C3_2 1_555 1_555

#END
