
###############################################################################
#
# This file contains modified crystal structure data generated from the
# MOF subset of the Cambridge Structural Database (CSD) v543 
# hosted by the Cambridge Crystallographic Data Centre (CCDC).
#
# This work is licensed under the Creative Commons
# Attribution-NonCommercial-ShareAlike 4.0 International License.
# To view a copy of this license, visit
# http://creativecommons.org/licenses/by-nc-sa/4.0/
# or send a letter to
# Creative Commons, PO Box 1866, Mountain View, CA 94042, USA.
#
# CIF created using the CSD Python API on 29 September 2022
# The structure has been converted into the P1 space group
# The structure has a 3D framework
# The original CSD entry NUDPAE04 is in the rhombohedral crystal system
# The framework has been calculated to contain at least 10.0% void space
# The void calculation uses a probe of radius 1.32A, grid spacing 0.4
# The framework is charged, counterions have been retained in the structure
#
###############################################################################

data_NUDPAE04
_chemical_formula_moiety         '(C22 H22 Fe7 O30 7-)n'
_symmetry_cell_setting           triclinic
_symmetry_space_group_name_H-M   'P 1'
_symmetry_Int_Tables_number      1
_space_group_name_Hall           'P 1'
loop_
_symmetry_equiv_pos_site_id
_symmetry_equiv_pos_as_xyz
1 x,y,z
_cell_length_a                   8.17987(18)
_cell_length_b                   8.17987(18)
_cell_length_c                   22.0315(6)
_cell_angle_alpha                90
_cell_angle_beta                 90
_cell_angle_gamma                120
_cell_volume                     1276.64
loop_
_atom_site_label
_atom_site_type_symbol
_atom_site_fract_x
_atom_site_fract_y
_atom_site_fract_z
C1 C 0.000000 0.4523(5) 0.250000
H1 H -0.000002 0.565995 0.249999
O2 O 0.1277(3) 0.4460(4) 0.22130(10)
Fe4 Fe 0.333333 0.666667 0.166667
Fe1 Fe 0.666667 0.333333 0.333333
O1 O 0.8723(3) 0.3183(3) 0.27870(10)
C1_2 C 1.000000 0.4523(5) 0.250000
H1_2 H 0.999998 0.565995 0.249999
O3 O 0.6817(3) 0.5540(4) 0.27870(10)
C2 C 0.5477(5) 0.54770(50) 0.250000
H2 H 0.434005 0.434003 0.249999
O4 O 0.5540(4) 0.6817(3) 0.22130(10)
O5 O 0.4460(4) 0.1277(3) 0.27870(10)
C3 C 0.45230(50) 0.000000 0.250000
H3 H 0.565997 0.000002 0.249999
O7 O 0.4610(3) 0.3484(3) 0.38797(10)
O8 O 0.6516(3) 0.1127(4) 0.38797(10)
O9 O 0.8873(4) 0.5390(3) 0.38797(10)
C3_2 C 0.45230(50) 1.000000 0.250000
H3_2 H 0.565997 1.000002 0.249999
O6 O 0.3183(3) 0.8723(3) 0.22130(10)
O7_2 O 0.3484(3) 0.4610(3) 0.11203(10)
O8_2 O 0.1127(4) 0.6516(3) 0.11203(10)
O9_2 O 0.5390(3) 0.8873(4) 0.11203(10)
Fe4_2 Fe -0.000000 0.000000 0.500000
Fe4_3 Fe -0.000000 1.000000 0.500000
O4_2 O 0.2207(4) 0.0150(3) 0.55463(10)
Fe4_4 Fe 1.000000 0.000000 0.500000
Fe1_2 Fe 0.333334 0.666666 0.666666
O1_2 O 0.5390(3) 0.6516(3) 0.61203(10)
C1_3 C 0.666667 0.7856(5) 0.583333
H1_3 H 0.666665 0.899328 0.583332
O2_2 O 0.7944(3) 0.7793(4) 0.55463(10)
O3_2 O 0.3484(3) 0.8873(4) 0.61203(10)
C2_2 C 0.2144(5) 0.88103(50) 0.583333
H2_2 H 0.100672 0.767336 0.583332
O5_2 O 0.1127(4) 0.4610(3) 0.61203(10)
C3_3 C 0.11897(50) 0.333333 0.583333
H3_3 H 0.232664 0.333335 0.583332
Fe4_5 Fe 1.000000 1.000000 0.500000
O7_3 O 0.1277(3) 0.6817(3) 0.72130(10)
O8_3 O 0.3183(3) 0.4460(4) 0.72130(10)
O9_3 O 0.5540(4) 0.8723(3) 0.72130(10)
O6_2 O 0.9850(3) 0.2056(3) 0.55463(10)
O9_4 O 0.2056(3) 0.2207(4) 0.44537(10)
O7_4 O 0.0150(3) 0.7944(3) 0.44537(10)
O8_4 O 0.7793(4) 0.9850(3) 0.44537(10)
Fe1_3 Fe 0.000000 -0.000000 -0.000000
O9_5 O 0.2207(4) 0.2056(3) 0.05463(10)
Fe1_4 Fe 0.000000 -0.000000 1.000000
C1_4 C 0.333333 0.1190(5) 0.916667
H1_4 H 0.333331 0.232662 0.916666
O2_3 O 0.4610(3) 0.1127(4) 0.88797(10)
O3_3 O 0.0150(3) 0.2207(4) 0.94537(10)
Fe4_6 Fe 0.666666 0.333334 0.833334
Fe1_5 Fe 0.000000 1.000000 -0.000000
Fe1_6 Fe 0.000000 1.000000 1.000000
O1_3 O 0.2056(3) 0.9850(3) 0.94537(10)
Fe1_7 Fe 1.000000 -0.000000 -0.000000
O7_5 O 0.7944(3) 0.0150(3) 0.05463(10)
Fe1_8 Fe 1.000000 -0.000000 1.000000
C2_3 C 0.8810(5) 0.21437(50) 0.916667
H2_3 H 0.767338 0.100670 0.916666
O4_3 O 0.8873(4) 0.3484(3) 0.88797(10)
Fe1_9 Fe 1.000000 1.000000 -0.000000
O8_5 O 0.9850(3) 0.7793(4) 0.05463(10)
Fe1_10 Fe 1.000000 1.000000 1.000000
O5_3 O 0.7793(4) 0.7944(3) 0.94537(10)
C3_4 C 0.78563(50) 0.666667 0.916667
H3_4 H 0.899330 0.666669 0.916666
O6_3 O 0.6516(3) 0.5390(3) 0.88797(10)
O7_6 O 0.6817(3) 0.1277(3) 0.77870(10)
O8_6 O 0.4460(4) 0.3183(3) 0.77870(10)
O9_6 O 0.8723(3) 0.5540(4) 0.77870(10)
C3_5 C 0.54770(50) 0.000000 0.750000
H3_5 H 0.434003 -0.000002 0.750001
C1_5 C -0.000000 0.5477(5) 0.750000
H1_5 H 0.000002 0.434005 0.750001
C2_4 C 0.4523(5) 0.45230(50) 0.750000
H2_4 H 0.565995 0.565997 0.750001
C3_6 C 0.54770(50) 1.000000 0.750000
H3_6 H 0.434003 0.999998 0.750001
C1_6 C 1.000000 0.5477(5) 0.750000
H1_6 H 1.000002 0.434005 0.750001
C1_7 C 0.333333 0.2144(5) 0.416667
H1_7 H 0.333335 0.100672 0.416668
C2_5 C 0.7856(5) 0.11897(50) 0.416667
H2_5 H 0.899328 0.232664 0.416668
C3_7 C 0.88103(50) 0.666667 0.416667
H3_7 H 0.767336 0.666665 0.416668
C3_8 C 0.21437(50) 0.333333 0.083333
H3_8 H 0.100670 0.333331 0.083334
C2_6 C 0.1190(5) 0.78563(50) 0.083333
H2_6 H 0.232662 0.899330 0.083334
C1_8 C 0.666667 0.8810(5) 0.083333
H1_8 H 0.666669 0.767338 0.083334
loop_
_geom_bond_atom_site_label_1
_geom_bond_atom_site_label_2
_geom_bond_site_symmetry_1
_geom_bond_site_symmetry_2
C1 H1 1_555 1_555
O2 C1 1_555 1_555
Fe4 O2 1_555 1_555
Fe1 O1 1_555 1_555
O1 C1_2 1_555 1_555
C1_2 H1_2 1_555 1_555
O3 Fe1 1_555 1_555
C2 O3 1_555 1_555
H2 C2 1_555 1_555
O4 C2 1_555 1_555
O5 Fe1 1_555 1_555
C3 O5 1_555 1_555
H3 C3 1_555 1_555
Fe4 O4 1_555 1_555
O7 Fe1 1_555 1_555
O8 Fe1 1_555 1_555
O9 Fe1 1_555 1_555
H3_2 C3_2 1_555 1_555
O6 C3_2 1_555 1_555
Fe4 O6 1_555 1_555
O7_2 Fe4 1_555 1_555
O8_2 Fe4 1_555 1_555
O9_2 Fe4 1_555 1_555
Fe4_2 O4_2 1_555 1_555
Fe1_2 O1_2 1_555 1_555
O1_2 C1_3 1_555 1_555
C1_3 H1_3 1_555 1_555
O2_2 C1_3 1_555 1_555
O3_2 Fe1_2 1_555 1_555
C2_2 O3_2 1_555 1_555
H2_2 C2_2 1_555 1_555
O5_2 Fe1_2 1_555 1_555
C3_3 O5_2 1_555 1_555
H3_3 C3_3 1_555 1_555
Fe4_5 O2_2 1_555 1_555
O7_3 Fe1_2 1_555 1_555
O8_3 Fe1_2 1_555 1_555
O9_3 Fe1_2 1_555 1_555
Fe4_4 O6_2 1_555 1_555
O9_4 Fe4_2 1_555 1_555
O7_4 Fe4_3 1_555 1_555
O8_4 Fe4_5 1_555 1_555
O9_5 Fe1_3 1_555 1_555
C1_4 H1_4 1_555 1_555
O2_3 C1_4 1_555 1_555
O3_3 Fe1_4 1_555 1_555
Fe4_6 O2_3 1_555 1_555
Fe1_6 O1_3 1_555 1_555
O7_5 Fe1_7 1_555 1_555
H2_3 C2_3 1_555 1_555
O4_3 C2_3 1_555 1_555
Fe4_6 O4_3 1_555 1_555
O8_5 Fe1_9 1_555 1_555
O5_3 Fe1_10 1_555 1_555
C3_4 O5_3 1_555 1_555
H3_4 C3_4 1_555 1_555
O6_3 C3_4 1_555 1_555
Fe4_6 O6_3 1_555 1_555
O7_6 Fe4_6 1_555 1_555
O8_6 Fe4_6 1_555 1_555
O9_6 Fe4_6 1_555 1_555
H3_5 C3_5 1_555 1_555
O7_6 C3_5 1_555 1_555
O7_3 C1_5 1_555 1_555
C1_5 H1_5 1_555 1_555
C2_4 O8_3 1_555 1_555
H2_4 C2_4 1_555 1_555
O8_6 C2_4 1_555 1_555
C3_6 O9_3 1_555 1_555
H3_6 C3_6 1_555 1_555
C1_6 H1_6 1_555 1_555
O9_6 C1_6 1_555 1_555
O7 C1_7 1_555 1_555
C1_7 H1_7 1_555 1_555
O9_4 C1_7 1_555 1_555
C2_5 O8 1_555 1_555
H2_5 C2_5 1_555 1_555
C3_7 O9 1_555 1_555
H3_7 C3_7 1_555 1_555
C3_8 O9_5 1_555 1_555
H3_8 C3_8 1_555 1_555
O7_2 C3_8 1_555 1_555
H2_6 C2_6 1_555 1_555
O8_2 C2_6 1_555 1_555
C1_8 H1_8 1_555 1_555
O9_2 C1_8 1_555 1_555

#END
