
###############################################################################
#
# This file contains modified crystal structure data generated from the
# MOF subset of the Cambridge Structural Database (CSD) v543 
# hosted by the Cambridge Crystallographic Data Centre (CCDC).
#
# This work is licensed under the Creative Commons
# Attribution-NonCommercial-ShareAlike 4.0 International License.
# To view a copy of this license, visit
# http://creativecommons.org/licenses/by-nc-sa/4.0/
# or send a letter to
# Creative Commons, PO Box 1866, Mountain View, CA 94042, USA.
#
# CIF created using the CSD Python API on 29 September 2022
# The structure has been converted into the P1 space group
# The structure has a 3D framework
# The original CSD entry NUDPAE16 is in the rhombohedral crystal system
# The framework has been calculated to contain at least 10.0% void space
# The void calculation uses a probe of radius 1.32A, grid spacing 0.4
# The framework is charged, counterions have been retained in the structure
#
###############################################################################

data_NUDPAE16
_chemical_formula_moiety         '(C22 H22 Fe9 O32 3-)n'
_symmetry_cell_setting           triclinic
_symmetry_space_group_name_H-M   'P 1'
_symmetry_Int_Tables_number      1
_space_group_name_Hall           'P 1'
loop_
_symmetry_equiv_pos_site_id
_symmetry_equiv_pos_as_xyz
1 x,y,z
_cell_length_a                   8.0926(18)
_cell_length_b                   8.0926(18)
_cell_length_c                   21.515(4)
_cell_angle_alpha                90
_cell_angle_beta                 90
_cell_angle_gamma                120
_cell_volume                     1220.25
loop_
_atom_site_label
_atom_site_type_symbol
_atom_site_fract_x
_atom_site_fract_y
_atom_site_fract_z
Fe1 Fe 0.0000 0.0000 0.0000
O8 O 0.2220(8) 0.2021(11) 0.0545(3)
Fe1_2 Fe 0.0000 0.0000 1.0000
O1 O 0.0199(8) 0.2220(8) 0.9455(3)
C3 C 0.3333(24) 0.1200(17) 0.9167
H3 H 0.3333 0.2349 0.9167
O6 O 0.4646(11) 0.1113(8) 0.8878(3)
Fe4 Fe 0.6667 0.3333 0.8333
Fe1_3 Fe -0.0000 1.0000 0.0000
Fe1_4 Fe -0.0000 1.0000 1.0000
O5 O 0.2021(11) 0.9801(8) 0.9455(3)
Fe1_5 Fe 1.0000 0.0000 0.0000
O9 O 0.7979(11) 0.0199(8) 0.0545(3)
Fe1_6 Fe 1.0000 0.0000 1.0000
C1 C 0.8800(17) 0.2133(17) 0.9167
H1 H 0.7651 0.0984 0.9167
O2 O 0.8887(8) 0.3532(8) 0.8878(3)
Fe1_7 Fe 1.0000 1.0000 0.0000
O7 O 0.9801(8) 0.7780(8) 0.0545(3)
Fe1_8 Fe 1.0000 1.0000 1.0000
O3 O 0.7780(8) 0.7979(11) 0.9455(3)
C2 C 0.7867(17) 0.6667(24) 0.9167
H2 H 0.9016 0.6667 0.9167
O4 O 0.6468(8) 0.5354(11) 0.8878(3)
Fe1_9 Fe 0.0000 0.0000 0.5000
C2_2 C 0.1200(29) 0.3333(24) 0.5833
H2_2 H 0.2349 0.3333 0.5833
O4_2 O 0.1113(14) 0.4646(11) 0.6122(3)
O5_2 O 0.2220(14) 0.0199(8) 0.5545(3)
Fe2 Fe 0.3333 0.6667 0.6667
O7_2 O 0.2021(11) 0.2220(8) 0.4455(3)
Fe1_10 Fe 0.0000 1.0000 0.5000
C3_2 C 0.2133(29) 0.8800(17) 0.5833
H3_2 H 0.0984 0.7651 0.5833
O6_2 O 0.3532(14) 0.8887(8) 0.6122(3)
O8_2 O 0.0199(14) 0.7979(11) 0.4455(3)
Fe1_11 Fe 1.0000 0.0000 0.5000
O3_2 O 0.9801(14) 0.2021(11) 0.5545(3)
Fe1_12 Fe 1.0000 1.0000 0.5000
O1_2 O 0.7979(11) 0.7780(8) 0.5545(3)
C1_2 C 0.6667(24) 0.7867(17) 0.5833
H1_2 H 0.6667 0.9016 0.5833
O2_2 O 0.5354(11) 0.6468(8) 0.6122(3)
O9_2 O 0.7780(14) 0.9801(8) 0.4455(3)
C3_3 C -0.0000(24) 0.4533(17) 0.2500
H3_3 H -0.0000 0.5682 0.2500
O6_3 O 0.1312(11) 0.4447(8) 0.2212(3)
Fe4_2 Fe 0.3333 0.6667 0.1667
Fe1_13 Fe 0.6667 0.3333 0.3333
O1_3 O 0.6866(8) 0.5553(8) 0.2788(3)
C1_3 C 0.5467(17) 0.5466(17) 0.2500
H1_3 H 0.4318 0.4317 0.2500
O2_3 O 0.5553(8) 0.6866(8) 0.2212(3)
O3_3 O 0.4447(8) 0.1312(11) 0.2788(3)
C2_3 C 0.4534(17) 0.0000(24) 0.2500
H2_3 H 0.5683 0.0000 0.2500
O5_3 O 0.8688(11) 0.3134(8) 0.2788(3)
C3_4 C 1.0000(24) 0.4533(17) 0.2500
H3_4 H 1.0000 0.5682 0.2500
O7_3 O 0.6468(8) 0.1113(8) 0.3878(3)
O8_3 O 0.8887(8) 0.5354(11) 0.3878(3)
O9_3 O 0.4646(11) 0.3532(8) 0.3878(3)
C2_4 C 0.4534(17) 1.0000(24) 0.2500
H2_4 H 0.5683 1.0000 0.2500
O4_3 O 0.3134(8) 0.8688(11) 0.2212(3)
O7_4 O 0.8688(11) 0.5553(8) 0.7788(3)
O8_4 O 0.6866(14) 0.1312(11) 0.7788(3)
O9_4 O 0.4447(14) 0.3134(8) 0.7788(3)
O7_5 O 0.3134(8) 0.4447(8) 0.7212(3)
O8_5 O 0.5553(8) 0.8688(11) 0.7212(3)
O9_5 O 0.1312(11) 0.6866(8) 0.7212(3)
O7_6 O 0.5354(11) 0.8887(8) 0.1122(3)
O8_6 O 0.3532(14) 0.4646(11) 0.1122(3)
O9_6 O 0.1113(14) 0.6468(8) 0.1122(3)
C2_5 C 0.2133(17) 0.3333(24) 0.0833
H2_5 H 0.0984 0.3333 0.0833
C1_4 C 0.1200(17) 0.7867(17) 0.0833
H1_4 H 0.2349 0.9016 0.0833
C3_5 C 0.6667(24) 0.8800(17) 0.0833
H3_5 H 0.6667 0.7651 0.0833
C1_5 C 0.3333(24) 0.2133(17) 0.4167
H1_5 H 0.3333 0.0984 0.4167
C3_6 C 0.7867(29) 0.1200(17) 0.4167
H3_6 H 0.9016 0.2349 0.4167
C2_6 C 0.8800(29) 0.6667(24) 0.4167
H2_6 H 0.7651 0.6667 0.4167
C2_7 C 0.5466(17) -0.0000(24) 0.7500
H2_7 H 0.4317 -0.0000 0.7500
C1_6 C 0.4533(17) 0.4534(17) 0.7500
H1_6 H 0.5682 0.5683 0.7500
C2_8 C 0.5466(17) 1.0000(24) 0.7500
H2_8 H 0.4317 1.0000 0.7500
C3_7 C 0.0000(24) 0.5467(17) 0.7500
H3_7 H 0.0000 0.4318 0.7500
C3_8 C 1.0000(24) 0.5467(17) 0.7500
H3_8 H 1.0000 0.4318 0.7500
loop_
_geom_bond_atom_site_label_1
_geom_bond_atom_site_label_2
_geom_bond_site_symmetry_1
_geom_bond_site_symmetry_2
O8 Fe1 1_555 1_555
Fe1_2 O1 1_555 1_555
H3 C3 1_555 1_555
O6 C3 1_555 1_555
Fe4 O6 1_555 1_555
O5 Fe1_4 1_555 1_555
O9 Fe1_5 1_555 1_555
C1 H1 1_555 1_555
O2 C1 1_555 1_555
Fe4 O2 1_555 1_555
O7 Fe1_7 1_555 1_555
O3 Fe1_8 1_555 1_555
C2 O3 1_555 1_555
H2 C2 1_555 1_555
O4 C2 1_555 1_555
Fe4 O4 1_555 1_555
H2_2 C2_2 1_555 1_555
O4_2 C2_2 1_555 1_555
O5_2 Fe1_9 1_555 1_555
Fe2 O4_2 1_555 1_555
O7_2 Fe1_9 1_555 1_555
H3_2 C3_2 1_555 1_555
O6_2 C3_2 1_555 1_555
Fe2 O6_2 1_555 1_555
O8_2 Fe1_10 1_555 1_555
O3_2 Fe1_11 1_555 1_555
Fe1_12 O1_2 1_555 1_555
O1_2 C1_2 1_555 1_555
C1_2 H1_2 1_555 1_555
O2_2 C1_2 1_555 1_555
Fe2 O2_2 1_555 1_555
O9_2 Fe1_12 1_555 1_555
H3_3 C3_3 1_555 1_555
O6_3 C3_3 1_555 1_555
Fe4_2 O6_3 1_555 1_555
Fe1_13 O1_3 1_555 1_555
O1_3 C1_3 1_555 1_555
C1_3 H1_3 1_555 1_555
O2_3 C1_3 1_555 1_555
O3_3 Fe1_13 1_555 1_555
C2_3 O3_3 1_555 1_555
H2_3 C2_3 1_555 1_555
O5_3 Fe1_13 1_555 1_555
C3_4 O5_3 1_555 1_555
H3_4 C3_4 1_555 1_555
Fe4_2 O2_3 1_555 1_555
O7_3 Fe1_13 1_555 1_555
O8_3 Fe1_13 1_555 1_555
O9_3 Fe1_13 1_555 1_555
H2_4 C2_4 1_555 1_555
O4_3 C2_4 1_555 1_555
Fe4_2 O4_3 1_555 1_555
O7_4 Fe4 1_555 1_555
O8_4 Fe4 1_555 1_555
O9_4 Fe4 1_555 1_555
O7_5 Fe2 1_555 1_555
O8_5 Fe2 1_555 1_555
O9_5 Fe2 1_555 1_555
O7_6 Fe4_2 1_555 1_555
O8_6 Fe4_2 1_555 1_555
O9_6 Fe4_2 1_555 1_555
C2_5 O8 1_555 1_555
H2_5 C2_5 1_555 1_555
O8_6 C2_5 1_555 1_555
C1_4 H1_4 1_555 1_555
O9_6 C1_4 1_555 1_555
H3_5 C3_5 1_555 1_555
O7_6 C3_5 1_555 1_555
O7_2 C1_5 1_555 1_555
C1_5 H1_5 1_555 1_555
O9_3 C1_5 1_555 1_555
H3_6 C3_6 1_555 1_555
O7_3 C3_6 1_555 1_555
H2_6 C2_6 1_555 1_555
O8_3 C2_6 1_555 1_555
H2_7 C2_7 1_555 1_555
O8_4 C2_7 1_555 1_555
O7_5 C1_6 1_555 1_555
C1_6 H1_6 1_555 1_555
O9_4 C1_6 1_555 1_555
C2_8 O8_5 1_555 1_555
H2_8 C2_8 1_555 1_555
C3_7 O9_5 1_555 1_555
H3_7 C3_7 1_555 1_555
H3_8 C3_8 1_555 1_555
O7_4 C3_8 1_555 1_555

#END
