
###############################################################################
#
# This file contains modified crystal structure data generated from the
# MOF subset of the Cambridge Structural Database (CSD) v543 
# hosted by the Cambridge Crystallographic Data Centre (CCDC).
#
# This work is licensed under the Creative Commons
# Attribution-NonCommercial-ShareAlike 4.0 International License.
# To view a copy of this license, visit
# http://creativecommons.org/licenses/by-nc-sa/4.0/
# or send a letter to
# Creative Commons, PO Box 1866, Mountain View, CA 94042, USA.
#
# CIF created using the CSD Python API on 29 September 2022
# The structure has been converted into the P1 space group
# The structure has a 3D framework
# The original CSD entry NUDPAE is in the rhombohedral crystal system
# The framework has been calculated to contain at least 10.0% void space
# The void calculation uses a probe of radius 1.32A, grid spacing 0.4
# The framework is charged, counterions have been retained in the structure
#
###############################################################################

data_NUDPAE
_chemical_formula_moiety         '(C22 H22 Fe10 O32 10-)n'
_symmetry_cell_setting           triclinic
_symmetry_space_group_name_H-M   'P 1'
_symmetry_Int_Tables_number      1
_space_group_name_Hall           'P 1'
loop_
_symmetry_equiv_pos_site_id
_symmetry_equiv_pos_as_xyz
1 x,y,z
_cell_length_a                   8.2310(5)
_cell_length_b                   8.2310(5)
_cell_length_c                   22.399(3)
_cell_angle_alpha                90
_cell_angle_beta                 90
_cell_angle_gamma                120
_cell_volume                     1314.21
loop_
_atom_site_label
_atom_site_type_symbol
_atom_site_fract_x
_atom_site_fract_y
_atom_site_fract_z
Fe1 Fe 0.0000 0.0000 0.0000
Fe4 Fe 0.3333 0.6667 0.1667
O6 O 0.11440(18) 0.45975(16) 0.11227(3)
O7 O 0.21893(18) 0.01201(9) 0.05440(3)
C3 C 0.12100(15) 0.3333 0.0833
H3 H 0.2376 0.3333 0.0833
Fe1_2 Fe -0.0000 0.0000 1.0000
Fe3 Fe 0.6667 0.3333 0.8333
O3 O 0.20692(16) 0.21893(18) 0.94560(3)
O4 O 0.45975(16) 0.34534(9) 0.88773(3)
C2 C 0.3333 0.21230(15) 0.9167
H2 H 0.3333 0.0957 0.9167
Fe1_3 Fe 0.0000 1.0000 0.0000
Fe1_4 Fe 0.0000 1.0000 1.0000
O1 O 0.01201(9) 0.79308(16) 0.94560(3)
Fe1_5 Fe 1.0000 0.0000 0.0000
O5 O 0.98799(9) 0.20692(16) 0.05440(3)
Fe1_6 Fe 1.0000 0.0000 1.0000
Fe1_7 Fe 1.0000 1.0000 0.0000
O8 O 0.79308(16) 0.78107(18) 0.05440(3)
Fe1_8 Fe 1.0000 1.0000 1.0000
C1 C 0.87900(15) 0.6667 0.9167
H1 H 0.7624 0.6667 0.9167
O2 O 0.88560(18) 0.54025(16) 0.88773(3)
O9 O 0.78107(18) 0.98799(9) 0.94560(3)
O4_2 O 0.65466(9) 0.11440(18) 0.88773(3)
C2_2 C 0.78770(15) 0.12100(15) 0.9167
H2_2 H 0.9043 0.2376 0.9167
O6_2 O 0.54025(16) 0.65466(24) 0.11227(3)
C3_2 C 0.6667 0.78770(15) 0.0833
H3_2 H 0.6667 0.9043 0.0833
O6_3 O 0.34534(24) 0.88560(18) 0.11227(3)
C3_3 C 0.21230(15) 0.87900(15) 0.0833
H3_3 H 0.0957 0.7624 0.0833
Fe1_9 Fe -0.0000 0.0000 0.5000
Fe3_2 Fe 0.3333 0.6667 0.6667
Fe4_2 Fe 0.6667 0.3333 0.3333
O3_2 O 0.21893(18) 0.20692(16) 0.55440(3)
O4_3 O 0.34534(9) 0.45975(16) 0.61227(3)
O6_4 O 0.45975(16) 0.11440(18) 0.38773(3)
O7_2 O 0.01201(9) 0.21893(18) 0.44560(3)
C2_3 C 0.21230(15) 0.3333 0.5833
C3_4 C 0.3333 0.12100(15) 0.4167
H2_3 H 0.0957 0.3333 0.5833
H3_4 H 0.3333 0.2376 0.4167
Fe1_10 Fe 0.0000 1.0000 0.5000
O5_2 O 0.20692(16) 0.98799(9) 0.44560(3)
Fe1_11 Fe 1.0000 0.0000 0.5000
O1_2 O 0.79308(16) 0.01201(9) 0.55440(3)
Fe1_12 Fe 1.0000 1.0000 0.5000
C1_2 C 0.6667 0.87900(15) 0.5833
H1_2 H 0.6667 0.7624 0.5833
O2_2 O 0.54025(16) 0.88560(18) 0.61227(3)
O8_2 O 0.78107(18) 0.79308(16) 0.44560(3)
O9_2 O 0.98799(9) 0.78107(18) 0.55440(3)
O4_4 O 0.11440(18) 0.65466(9) 0.61227(3)
C2_4 C 0.12100(15) 0.78770(15) 0.5833
H2_4 H 0.2376 0.9043 0.5833
O6_5 O 0.65466(24) 0.54025(16) 0.38773(3)
C3_5 C 0.78770(15) 0.6667 0.4167
H3_5 H 0.9043 0.6667 0.4167
O6_6 O 0.88560(18) 0.34534(24) 0.38773(3)
C3_6 C 0.87900(15) 0.21230(15) 0.4167
H3_6 H 0.7624 0.0957 0.4167
O4_5 O 0.12641(16) 0.67868(9) 0.22107(3)
C2_5 C -0.0000 0.54563(15) 0.2500
H2_5 H -0.0000 0.4290 0.2500
O1_3 O 0.67868(9) 0.12641(16) 0.27893(3)
C1_3 C 0.54567(15) 0.0000 0.2500
H1_3 H 0.4291 0.0000 0.2500
O3_3 O 0.87359(16) 0.55226(18) 0.27893(3)
O9_3 O 0.44774(18) 0.32132(9) 0.27893(3)
C2_6 C 1.0000 0.54563(15) 0.2500
H2_6 H 1.0000 0.4290 0.2500
C1_4 C 0.54567(15) 1.0000 0.2500
H1_4 H 0.4291 1.0000 0.2500
O2_3 O 0.55226(18) 0.87359(16) 0.22107(3)
O4_6 O 0.32132(9) 0.44774(18) 0.22107(3)
C2_7 C 0.45437(15) 0.45433(15) 0.2500
H2_7 H 0.5710 0.5709 0.2500
O6_7 O 0.12641(16) 0.44774(18) 0.72107(3)
C3_7 C -0.0000 0.45433(15) 0.7500
H3_7 H -0.0000 0.5709 0.7500
O5_3 O 0.87359(16) 0.32132(9) 0.77893(3)
O7_3 O 0.67868(9) 0.55226(18) 0.77893(3)
O8_3 O 0.44774(18) 0.12641(16) 0.77893(3)
C3_8 C 1.0000 0.45433(15) 0.7500
H3_8 H 1.0000 0.5709 0.7500
C3_9 C 0.45437(15) 0.0000 0.7500
H3_9 H 0.5710 0.0000 0.7500
O6_8 O 0.32132(24) 0.87359(16) 0.72107(3)
C3_10 C 0.45437(15) 1.0000 0.7500
H3_10 H 0.5710 1.0000 0.7500
O6_9 O 0.55226(18) 0.67868(24) 0.72107(3)
C3_11 C 0.54567(15) 0.54563(15) 0.7500
H3_11 H 0.4291 0.4290 0.7500
loop_
_geom_bond_atom_site_label_1
_geom_bond_atom_site_label_2
_geom_bond_site_symmetry_1
_geom_bond_site_symmetry_2
Fe4 O6 1_555 1_555
O6 C3 1_555 1_555
O7 Fe1 1_555 1_555
H3 C3 1_555 1_555
Fe3 O4 1_555 1_555
O3 Fe1_2 1_555 1_555
O4 C2 1_555 1_555
C2 O3 1_555 1_555
H2 C2 1_555 1_555
Fe1_4 O1 1_555 1_555
O5 Fe1_5 1_555 1_555
O8 Fe1_7 1_555 1_555
C1 H1 1_555 1_555
Fe3 O2 1_555 1_555
O2 C1 1_555 1_555
O9 Fe1_8 1_555 1_555
Fe3 O4_2 1_555 1_555
O4_2 C2_2 1_555 1_555
H2_2 C2_2 1_555 1_555
Fe4 O6_2 1_555 1_555
O6_2 C3_2 1_555 1_555
C3_2 O8 1_555 1_555
H3_2 C3_2 1_555 1_555
Fe4 O6_3 1_555 1_555
O6_3 C3_3 1_555 1_555
H3_3 C3_3 1_555 1_555
Fe3_2 O4_3 1_555 1_555
Fe4_2 O6_4 1_555 1_555
O3_2 Fe1_9 1_555 1_555
O4_3 C2_3 1_555 1_555
O6_4 C3_4 1_555 1_555
O7_2 Fe1_9 1_555 1_555
C2_3 O3_2 1_555 1_555
H2_3 C2_3 1_555 1_555
H3_4 C3_4 1_555 1_555
O5_2 Fe1_10 1_555 1_555
Fe1_11 O1_2 1_555 1_555
C1_2 H1_2 1_555 1_555
Fe3_2 O2_2 1_555 1_555
O2_2 C1_2 1_555 1_555
O8_2 Fe1_12 1_555 1_555
O9_2 Fe1_12 1_555 1_555
Fe3_2 O4_4 1_555 1_555
O4_4 C2_4 1_555 1_555
H2_4 C2_4 1_555 1_555
Fe4_2 O6_5 1_555 1_555
O6_5 C3_5 1_555 1_555
C3_5 O8_2 1_555 1_555
H3_5 C3_5 1_555 1_555
Fe4_2 O6_6 1_555 1_555
O6_6 C3_6 1_555 1_555
H3_6 C3_6 1_555 1_555
Fe4 O4_5 1_555 1_555
O4_5 C2_5 1_555 1_555
H2_5 C2_5 1_555 1_555
Fe4_2 O1_3 1_555 1_555
O1_3 C1_3 1_555 1_555
C1_3 H1_3 1_555 1_555
O3_3 Fe4_2 1_555 1_555
O9_3 Fe4_2 1_555 1_555
C2_6 O3_3 1_555 1_555
H2_6 C2_6 1_555 1_555
C1_4 H1_4 1_555 1_555
Fe4 O2_3 1_555 1_555
O2_3 C1_4 1_555 1_555
Fe4 O4_6 1_555 1_555
O4_6 C2_7 1_555 1_555
C2_7 O9_3 1_555 1_555
H2_7 C2_7 1_555 1_555
Fe3_2 O6_7 1_555 1_555
O6_7 C3_7 1_555 1_555
H3_7 C3_7 1_555 1_555
O5_3 Fe3 1_555 1_555
O7_3 Fe3 1_555 1_555
O8_3 Fe3 1_555 1_555
C3_8 O5_3 1_555 1_555
H3_8 C3_8 1_555 1_555
C3_9 O8_3 1_555 1_555
H3_9 C3_9 1_555 1_555
Fe3_2 O6_8 1_555 1_555
O6_8 C3_10 1_555 1_555
H3_10 C3_10 1_555 1_555
Fe3_2 O6_9 1_555 1_555
O6_9 C3_11 1_555 1_555
C3_11 O7_3 1_555 1_555
H3_11 C3_11 1_555 1_555

#END
