
###############################################################################
#
# This file contains modified crystal structure data generated from the
# MOF subset of the Cambridge Structural Database (CSD) v543 
# hosted by the Cambridge Crystallographic Data Centre (CCDC).
#
# This work is licensed under the Creative Commons
# Attribution-NonCommercial-ShareAlike 4.0 International License.
# To view a copy of this license, visit
# http://creativecommons.org/licenses/by-nc-sa/4.0/
# or send a letter to
# Creative Commons, PO Box 1866, Mountain View, CA 94042, USA.
#
# CIF created using the CSD Python API on 29 September 2022
# The structure has been converted into the P1 space group
# The structure has a 3D framework
# The original CSD entry NUDPAE15 is in the rhombohedral crystal system
# The framework has been calculated to contain at least 10.0% void space
# The void calculation uses a probe of radius 1.32A, grid spacing 0.4
# The framework is charged, counterions have been retained in the structure
#
###############################################################################

data_NUDPAE15
_chemical_formula_moiety         '(C30 H22 Fe9 O32 3-)n'
_symmetry_cell_setting           triclinic
_symmetry_space_group_name_H-M   'P 1'
_symmetry_Int_Tables_number      1
_space_group_name_Hall           'P 1'
loop_
_symmetry_equiv_pos_site_id
_symmetry_equiv_pos_as_xyz
1 x,y,z
_cell_length_a                   8.119(2)
_cell_length_b                   8.119(2)
_cell_length_c                   21.679(4)
_cell_angle_alpha                90
_cell_angle_beta                 90
_cell_angle_gamma                120
_cell_volume                     1237.58
loop_
_atom_site_label
_atom_site_type_symbol
_atom_site_fract_x
_atom_site_fract_y
_atom_site_fract_z
Fe1 Fe 0.0000 0.0000 0.0000
O8 O 0.2184(9) 0.2021(13) 0.0558(3)
Fe1_2 Fe -0.0000 0.0000 1.0000
O1 O 0.0163(9) 0.2184(9) 0.9442(3)
C3 C 0.333(3) 0.121(2) 0.9167
H3 H 0.3333 0.2357 0.9167
O6 O 0.4646(13) 0.1149(9) 0.8891(3)
Fe4 Fe 0.6667 0.3333 0.8333
Fe1_3 Fe 0.0000 1.0000 0.0000
Fe1_4 Fe -0.0000 1.0000 1.0000
O5 O 0.2021(13) 0.9837(9) 0.9442(3)
Fe1_5 Fe 1.0000 0.0000 0.0000
O9 O 0.7979(13) 0.0163(9) 0.0558(3)
Fe1_6 Fe 1.0000 0.0000 1.0000
C1 C 0.879(2) 0.212(2) 0.9167
H1 H 0.7643 0.0976 0.9167
O2 O 0.8851(9) 0.3496(9) 0.8891(3)
Fe1_7 Fe 1.0000 1.0000 0.0000
O7 O 0.9837(9) 0.7816(9) 0.0558(3)
Fe1_8 Fe 1.0000 1.0000 1.0000
O3 O 0.7816(9) 0.7979(13) 0.9442(3)
C2 C 0.788(2) 0.667(3) 0.9167
H2 H 0.9024 0.6667 0.9167
O4 O 0.6504(9) 0.5354(13) 0.8891(3)
Fe1_9 Fe -0.0000 0.0000 0.5000
C2_2 C 0.121(4) 0.333(3) 0.5833
H2_2 H 0.2357 0.3333 0.5833
O4_2 O 0.1149(16) 0.4646(13) 0.6109(3)
O5_2 O 0.2184(16) 0.0163(9) 0.5558(3)
Fe2 Fe 0.3333 0.6667 0.6667
O7_2 O 0.2021(13) 0.2184(9) 0.4442(3)
Fe1_10 Fe 0.0000 1.0000 0.5000
C3_2 C 0.212(4) 0.879(2) 0.5833
H3_2 H 0.0976 0.7643 0.5833
O6_2 O 0.3496(16) 0.8851(9) 0.6109(3)
O8_2 O 0.0163(16) 0.7979(13) 0.4442(3)
Fe1_11 Fe 1.0000 0.0000 0.5000
O3_2 O 0.9837(16) 0.2021(13) 0.5558(3)
Fe1_12 Fe 1.0000 1.0000 0.5000
O1_2 O 0.7979(13) 0.7816(9) 0.5558(3)
C1_2 C 0.667(3) 0.788(2) 0.5833
H1_2 H 0.6667 0.9024 0.5833
O2_2 O 0.5354(13) 0.6504(9) 0.6109(3)
O9_2 O 0.7816(16) 0.9837(9) 0.4442(3)
H3_3 H -0.0000 0.5690 0.2500
O6_3 O 0.1312(13) 0.4483(9) 0.2225(3)
Fe4_2 Fe 0.3333 0.6667 0.1667
Fe1_13 Fe 0.6667 0.3333 0.3333
O1_3 O 0.6830(9) 0.5517(9) 0.2775(3)
C1_3 C 0.546(2) 0.545(2) 0.2500
H1_3 H 0.4310 0.4309 0.2500
O2_3 O 0.5517(9) 0.6830(9) 0.2225(3)
O3_3 O 0.4483(9) 0.1312(13) 0.2775(3)
C2_3 C 0.455(2) 0.000(3) 0.2500
H2_3 H 0.5691 0.0000 0.2500
O5_3 O 0.8688(13) 0.3170(9) 0.2775(3)
C3_3 C 1.000(3) 0.454(2) 0.2500
H3_4 H 1.0000 0.5690 0.2500
O7_3 O 0.6504(9) 0.1149(9) 0.3891(3)
O8_3 O 0.8851(9) 0.5354(13) 0.3891(3)
O9_3 O 0.4646(13) 0.3496(9) 0.3891(3)
H2_4 H 0.5691 1.0000 0.2500
O4_3 O 0.3170(9) 0.8688(13) 0.2225(3)
C1_4 C 0.334(3) 0.121(2) 0.9166
C2_4 C 0.788(4) 0.666(3) 0.9166
O7_4 O 0.8688(13) 0.5517(9) 0.7775(3)
O8_4 O 0.6830(16) 0.1312(13) 0.7775(3)
O9_4 O 0.4483(16) 0.3170(9) 0.7775(3)
C2_5 C 0.121(2) 0.334(3) 0.5834
C3_4 C 0.666(3) 0.788(2) 0.5834
O7_5 O 0.3170(9) 0.4483(9) 0.7225(3)
O8_5 O 0.5517(9) 0.8688(13) 0.7225(3)
O9_5 O 0.1312(13) 0.6830(9) 0.7225(3)
C1_5 C 0.000(3) 0.455(2) 0.2500
C2_6 C 0.454(4) 1.000(3) 0.2500
O7_6 O 0.5354(13) 0.8851(9) 0.1109(3)
O8_6 O 0.3496(16) 0.4646(13) 0.1109(3)
O9_6 O 0.1149(16) 0.6504(9) 0.1109(3)
C2_7 C 0.212(2) 0.333(3) 0.0833
H2_5 H 0.0976 0.3333 0.0833
C1_6 C 0.121(2) 0.788(2) 0.0833
H1_4 H 0.2357 0.9024 0.0833
C3_5 C 0.667(3) 0.879(2) 0.0833
H3_5 H 0.6667 0.7643 0.0833
C1_7 C 0.333(3) 0.212(2) 0.4167
H1_5 H 0.3333 0.0976 0.4167
C3_6 C 0.788(4) 0.121(2) 0.4167
H3_6 H 0.9024 0.2357 0.4167
C2_8 C 0.879(4) 0.667(3) 0.4167
H2_6 H 0.7643 0.6667 0.4167
H2_7 H 0.4309 -0.0000 0.7500
C1_8 C 0.454(2) 0.455(2) 0.7500
H1_6 H 0.5690 0.5691 0.7500
C2_9 C 0.545(2) 1.000(3) 0.7500
H2_8 H 0.4309 1.0000 0.7500
C3_7 C 0.000(3) 0.546(2) 0.7500
H3_7 H 0.0000 0.4310 0.7500
H3_8 H 1.0000 0.4310 0.7500
C1_9 C 0.666(3) 0.879(2) 0.0834
C2_10 C 0.212(4) 0.334(3) 0.0834
C2_11 C 0.879(2) 0.666(3) 0.4166
C3_8 C 0.334(3) 0.212(2) 0.4166
C1_10 C 1.000(3) 0.545(2) 0.7500
C2_12 C 0.546(4) 0.000(3) 0.7500
loop_
_geom_bond_atom_site_label_1
_geom_bond_atom_site_label_2
_geom_bond_site_symmetry_1
_geom_bond_site_symmetry_2
O8 Fe1 1_555 1_555
Fe1_2 O1 1_555 1_555
H3 C3 1_555 1_555
O6 C3 1_555 1_555
Fe4 O6 1_555 1_555
O5 Fe1_4 1_555 1_555
O9 Fe1_5 1_555 1_555
C1 H1 1_555 1_555
O2 C1 1_555 1_555
Fe4 O2 1_555 1_555
O7 Fe1_7 1_555 1_555
O3 Fe1_8 1_555 1_555
C2 O3 1_555 1_555
H2 C2 1_555 1_555
O4 C2 1_555 1_555
Fe4 O4 1_555 1_555
H2_2 C2_2 1_555 1_555
O4_2 C2_2 1_555 1_555
O5_2 Fe1_9 1_555 1_555
Fe2 O4_2 1_555 1_555
O7_2 Fe1_9 1_555 1_555
H3_2 C3_2 1_555 1_555
O6_2 C3_2 1_555 1_555
Fe2 O6_2 1_555 1_555
O8_2 Fe1_10 1_555 1_555
O3_2 Fe1_11 1_555 1_555
Fe1_12 O1_2 1_555 1_555
O1_2 C1_2 1_555 1_555
C1_2 H1_2 1_555 1_555
O2_2 C1_2 1_555 1_555
Fe2 O2_2 1_555 1_555
O9_2 Fe1_12 1_555 1_555
Fe4_2 O6_3 1_555 1_555
Fe1_13 O1_3 1_555 1_555
O1_3 C1_3 1_555 1_555
C1_3 H1_3 1_555 1_555
O2_3 C1_3 1_555 1_555
O3_3 Fe1_13 1_555 1_555
C2_3 O3_3 1_555 1_555
H2_3 C2_3 1_555 1_555
O5_3 Fe1_13 1_555 1_555
C3_3 O5_3 1_555 1_555
H3_4 C3_3 1_555 1_555
Fe4_2 O2_3 1_555 1_555
O7_3 Fe1_13 1_555 1_555
O8_3 Fe1_13 1_555 1_555
O9_3 Fe1_13 1_555 1_555
Fe4_2 O4_3 1_555 1_555
O6 C1_4 1_555 1_555
C1_4 H3 1_555 1_555
C2_4 O4 1_555 1_555
H2 C2_4 1_555 1_555
O3 C2_4 1_555 1_555
O7_4 Fe4 1_555 1_555
O8_4 Fe4 1_555 1_555
O9_4 Fe4 1_555 1_555
C2_5 O4_2 1_555 1_555
H2_2 C2_5 1_555 1_555
C3_4 O2_2 1_555 1_555
H1_2 C3_4 1_555 1_555
O1_2 C3_4 1_555 1_555
O7_5 Fe2 1_555 1_555
O8_5 Fe2 1_555 1_555
O9_5 Fe2 1_555 1_555
O6_3 C1_5 1_555 1_555
C1_5 H3_3 1_555 1_555
C2_6 O4_3 1_555 1_555
H2_4 C2_6 1_555 1_555
O7_6 Fe4_2 1_555 1_555
O8_6 Fe4_2 1_555 1_555
O9_6 Fe4_2 1_555 1_555
C2_7 O8 1_555 1_555
H2_5 C2_7 1_555 1_555
O8_6 C2_7 1_555 1_555
C1_6 H1_4 1_555 1_555
O9_6 C1_6 1_555 1_555
H3_5 C3_5 1_555 1_555
O7_6 C3_5 1_555 1_555
O7_2 C1_7 1_555 1_555
C1_7 H1_5 1_555 1_555
O9_3 C1_7 1_555 1_555
H3_6 C3_6 1_555 1_555
O7_3 C3_6 1_555 1_555
H2_6 C2_8 1_555 1_555
O8_3 C2_8 1_555 1_555
O7_5 C1_8 1_555 1_555
C1_8 H1_6 1_555 1_555
O9_4 C1_8 1_555 1_555
C2_9 O8_5 1_555 1_555
H2_8 C2_9 1_555 1_555
C3_7 O9_5 1_555 1_555
H3_7 C3_7 1_555 1_555
O7_6 C1_9 1_555 1_555
C1_9 H3_5 1_555 1_555
C2_10 O8_6 1_555 1_555
H2_5 C2_10 1_555 1_555
O8 C2_10 1_555 1_555
C2_11 O8_3 1_555 1_555
H2_6 C2_11 1_555 1_555
C3_8 O9_3 1_555 1_555
H1_5 C3_8 1_555 1_555
O7_2 C3_8 1_555 1_555
O7_4 C1_10 1_555 1_555
C1_10 H3_8 1_555 1_555
C2_12 O8_4 1_555 1_555
H2_7 C2_12 1_555 1_555

#END
