
###############################################################################
#
# This file contains modified crystal structure data generated from the
# MOF subset of the Cambridge Structural Database (CSD) v543 
# hosted by the Cambridge Crystallographic Data Centre (CCDC).
#
# This work is licensed under the Creative Commons
# Attribution-NonCommercial-ShareAlike 4.0 International License.
# To view a copy of this license, visit
# http://creativecommons.org/licenses/by-nc-sa/4.0/
# or send a letter to
# Creative Commons, PO Box 1866, Mountain View, CA 94042, USA.
#
# CIF created using the CSD Python API on 29 September 2022
# The structure has been converted into the P1 space group
# The structure has a 3D framework
# The original CSD entry NUDPAE01 is in the rhombohedral crystal system
# The framework has been calculated to contain at least 10.0% void space
# The void calculation uses a probe of radius 1.32A, grid spacing 0.4
# The framework is charged, counterions have been retained in the structure
#
###############################################################################

data_NUDPAE01
_chemical_formula_moiety         '(C22 H36 Fe9 O32 3-)n'
_symmetry_cell_setting           triclinic
_symmetry_space_group_name_H-M   'P 1'
_symmetry_Int_Tables_number      1
_space_group_name_Hall           'P 1'
loop_
_symmetry_equiv_pos_site_id
_symmetry_equiv_pos_as_xyz
1 x,y,z
_cell_length_a                   8.241(2)
_cell_length_b                   8.241(2)
_cell_length_c                   22.545(6)
_cell_angle_alpha                90
_cell_angle_beta                 90
_cell_angle_gamma                120
_cell_volume                     1325.99
loop_
_atom_site_label
_atom_site_type_symbol
_atom_site_fract_x
_atom_site_fract_y
_atom_site_fract_z
Fe1 Fe -0.0000 0.0000 0.0000
O9 O 0.2170(4) 0.2086(3) 0.05427(11)
Fe1_2 Fe -0.0000 0.0000 1.0000
C1 C 0.3333(8) 0.1217(6) 0.9167
H1 H 0.334(10) 0.231(14) 0.9166
Fe2 Fe 0.6667 0.3333 0.8333
O2 O 0.4581(3) 0.1163(4) 0.88760(11)
O3 O 0.0084(3) 0.2170(4) 0.94573(11)
Fe1_3 Fe -0.0000 1.0000 0.0000
Fe1_4 Fe -0.0000 1.0000 1.0000
O1 O 0.2086(3) 0.9916(3) 0.94573(11)
Fe1_5 Fe 1.0000 0.0000 0.0000
O7 O 0.7914(3) 0.0084(3) 0.05427(11)
Fe1_6 Fe 1.0000 0.0000 1.0000
O4 O 0.8837(4) 0.3417(3) 0.88760(11)
C2 C 0.8783(6) 0.2116(10) 0.9167
H2 H 0.769(14) 0.103(17) 0.9166
Fe1_7 Fe 1.0000 1.0000 0.0000
O8 O 0.9916(3) 0.7830(4) 0.05427(11)
Fe1_8 Fe 1.0000 1.0000 1.0000
O5 O 0.7830(4) 0.7914(3) 0.94573(11)
O6 O 0.6583(3) 0.5419(3) 0.88760(11)
C3 C 0.7884(10) 0.6667(8) 0.9167
H3 H 0.897(17) 0.666(10) 0.9166
Fe1_9 Fe 0.0000 -0.0000 0.5000
C1_2 C 0.1217(6) 0.3333(8) 0.5833
H1_2 H 0.231(14) 0.334(10) 0.5834
Fe2_2 Fe 0.3333 0.6667 0.6667
O2_2 O 0.1163(4) 0.4581(3) 0.61240(11)
O3_2 O 0.2170(4) 0.0084(3) 0.55427(11)
O9_2 O 0.2086(3) 0.2170(4) 0.44573(11)
Fe1_10 Fe -0.0000 1.0000 0.5000
O4_2 O 0.3417(3) 0.8837(4) 0.61240(11)
O7_2 O 0.0084(3) 0.7914(3) 0.44573(11)
C2_2 C 0.2116(10) 0.8783(6) 0.5833
H2_2 H 0.103(17) 0.769(14) 0.5834
Fe1_11 Fe 1.0000 -0.0000 0.5000
O1_2 O 0.9916(3) 0.2086(3) 0.55427(11)
Fe1_12 Fe 1.0000 1.0000 0.5000
O5_2 O 0.7914(3) 0.7830(4) 0.55427(11)
O6_2 O 0.5419(3) 0.6583(3) 0.61240(11)
O8_2 O 0.7830(4) 0.9916(3) 0.44573(11)
C3_2 C 0.6667(8) 0.7884(10) 0.5833
H3_2 H 0.666(10) 0.897(17) 0.5834
C1_3 C -0.0000(8) 0.4550(6) 0.2500
H1_3 H 0.001(10) 0.564(14) 0.2499
Fe2_3 Fe 0.3333 0.6667 0.1667
O2_3 O 0.1247(3) 0.4497(4) 0.22094(11)
Fe1_13 Fe 0.6667 0.3333 0.3333
O1_3 O 0.8753(3) 0.3249(3) 0.27906(11)
C1_4 C 1.0000(8) 0.4550(6) 0.2500
O3_3 O 0.6751(3) 0.5503(4) 0.27906(11)
O4_3 O 0.5503(4) 0.6751(3) 0.22094(11)
O5_3 O 0.4497(4) 0.1247(3) 0.27906(11)
O7_3 O 0.4581(3) 0.3417(3) 0.38760(11)
O8_3 O 0.6583(3) 0.1163(4) 0.38760(11)
O9_3 O 0.8837(4) 0.5419(3) 0.38760(11)
C2_3 C 0.5450(6) 0.5449(10) 0.2500
C3_3 C 0.4551(10) 0.0000(8) 0.2500
H2_3 H 0.436(14) 0.436(17) 0.2499
O6_3 O 0.3249(3) 0.8753(3) 0.22094(11)
C3_4 C 0.4551(10) 1.0000(8) 0.2500
H3_3 H 0.564(17) 0.999(10) 0.2499
H1_4 H 0.898(14) 0.667(10) 0.9167
O7_4 O 0.6751(3) 0.1247(3) 0.77906(11)
O8_4 O 0.4497(4) 0.3249(3) 0.77906(11)
O9_4 O 0.8753(3) 0.5503(4) 0.77906(11)
H2_4 H 0.770(17) 0.102(14) 0.9167
H3_4 H 0.333(10) 0.230(17) 0.9167
H1_5 H 0.667(10) 0.898(14) 0.5833
O7_5 O 0.1247(3) 0.6751(3) 0.72094(11)
O8_5 O 0.3249(3) 0.4497(4) 0.72094(11)
O9_5 O 0.5503(4) 0.8753(3) 0.72094(11)
H2_5 H 0.102(14) 0.770(17) 0.5833
H3_5 H 0.230(17) 0.333(10) 0.5833
H1_6 H 0.564(14) 0.001(10) 0.2501
O7_6 O 0.3417(3) 0.4581(3) 0.11240(11)
O8_6 O 0.1163(4) 0.6583(3) 0.11240(11)
O9_6 O 0.5419(3) 0.8837(4) 0.11240(11)
H2_6 H 0.436(17) 0.436(14) 0.2501
H3_6 H 0.999(10) 0.564(17) 0.2501
C3_5 C 0.2116(10) 0.3333(8) 0.0833
H3_7 H 0.103(17) 0.334(10) 0.0834
C2_4 C 0.1217(6) 0.7884(10) 0.0833
H2_7 H 0.231(14) 0.897(17) 0.0834
C1_5 C 0.6667(8) 0.8783(6) 0.0833
H1_7 H 0.666(10) 0.769(14) 0.0834
C3_6 C 0.3333(8) 0.2116(10) 0.4167
H3_8 H 0.334(10) 0.103(17) 0.4166
C2_5 C 0.7884(10) 0.1217(6) 0.4167
H2_8 H 0.897(17) 0.231(14) 0.4166
C1_6 C 0.8783(6) 0.6667(8) 0.4167
H1_8 H 0.769(14) 0.666(10) 0.4166
C3_7 C 0.5449(10) -0.0000(8) 0.7500
H3_9 H 0.436(17) 0.001(10) 0.7501
C1_7 C 0.0000(8) 0.5450(6) 0.7500
C2_6 C 0.4550(6) 0.4551(10) 0.7500
C3_8 C 0.5449(10) 1.0000(8) 0.7500
H2_9 H 0.564(14) 0.564(17) 0.7501
C1_8 C 1.0000(8) 0.5450(6) 0.7500
H1_9 H 0.999(10) 0.436(14) 0.7501
H1_10 H 0.102(14) 0.333(10) 0.0833
H2_10 H 0.230(17) 0.898(14) 0.0833
H3_10 H 0.667(10) 0.770(17) 0.0833
H1_11 H 0.333(10) 0.102(14) 0.4167
H2_11 H 0.898(14) 0.230(17) 0.4167
H3_11 H 0.770(17) 0.667(10) 0.4167
H3_12 H 0.001(10) 0.436(17) 0.7499
H2_12 H 0.564(17) 0.564(14) 0.7499
H1_12 H 0.436(14) 0.999(10) 0.7499
loop_
_geom_bond_atom_site_label_1
_geom_bond_atom_site_label_2
_geom_bond_site_symmetry_1
_geom_bond_site_symmetry_2
O9 Fe1 1_555 1_555
C1 H1 1_555 1_555
Fe2 O2 1_555 1_555
O2 C1 1_555 1_555
O3 Fe1_2 1_555 1_555
Fe1_4 O1 1_555 1_555
O7 Fe1_5 1_555 1_555
Fe2 O4 1_555 1_555
O4 C2 1_555 1_555
H2 C2 1_555 1_555
O8 Fe1_7 1_555 1_555
Fe2 O6 1_555 1_555
O5 Fe1_8 1_555 1_555
O6 C3 1_555 1_555
C3 O5 1_555 1_555
H3 C3 1_555 1_555
C1_2 H1_2 1_555 1_555
Fe2_2 O2_2 1_555 1_555
O2_2 C1_2 1_555 1_555
O3_2 Fe1_9 1_555 1_555
O9_2 Fe1_9 1_555 1_555
Fe2_2 O4_2 1_555 1_555
O4_2 C2_2 1_555 1_555
O7_2 Fe1_10 1_555 1_555
H2_2 C2_2 1_555 1_555
Fe1_11 O1_2 1_555 1_555
Fe2_2 O6_2 1_555 1_555
O5_2 Fe1_12 1_555 1_555
O6_2 C3_2 1_555 1_555
O8_2 Fe1_12 1_555 1_555
C3_2 O5_2 1_555 1_555
H3_2 C3_2 1_555 1_555
C1_3 H1_3 1_555 1_555
Fe2_3 O2_3 1_555 1_555
O2_3 C1_3 1_555 1_555
Fe1_13 O1_3 1_555 1_555
O1_3 C1_4 1_555 1_555
Fe2_3 O4_3 1_555 1_555
O3_3 Fe1_13 1_555 1_555
O4_3 C2_3 1_555 1_555
O5_3 Fe1_13 1_555 1_555
O7_3 Fe1_13 1_555 1_555
O8_3 Fe1_13 1_555 1_555
O9_3 Fe1_13 1_555 1_555
C2_3 O3_3 1_555 1_555
C3_3 O5_3 1_555 1_555
H2_3 C2_3 1_555 1_555
Fe2_3 O6_3 1_555 1_555
O6_3 C3_4 1_555 1_555
H3_3 C3_4 1_555 1_555
C3 H1_4 1_555 1_555
O7_4 Fe2 1_555 1_555
O8_4 Fe2 1_555 1_555
O9_4 Fe2 1_555 1_555
H2_4 C2 1_555 1_555
H3_4 C1 1_555 1_555
C3_2 H1_5 1_555 1_555
O7_5 Fe2_2 1_555 1_555
O8_5 Fe2_2 1_555 1_555
O9_5 Fe2_2 1_555 1_555
H2_5 C2_2 1_555 1_555
H3_5 C1_2 1_555 1_555
C3_3 H1_6 1_555 1_555
O7_6 Fe2_3 1_555 1_555
O8_6 Fe2_3 1_555 1_555
O9_6 Fe2_3 1_555 1_555
H2_6 C2_3 1_555 1_555
H3_6 C1_4 1_555 1_555
O7_6 C3_5 1_555 1_555
C3_5 O9 1_555 1_555
H3_7 C3_5 1_555 1_555
O8_6 C2_4 1_555 1_555
H2_7 C2_4 1_555 1_555
C1_5 H1_7 1_555 1_555
O9_6 C1_5 1_555 1_555
O7_3 C3_6 1_555 1_555
C3_6 O9_2 1_555 1_555
H3_8 C3_6 1_555 1_555
O8_3 C2_5 1_555 1_555
H2_8 C2_5 1_555 1_555
C1_6 H1_8 1_555 1_555
O9_3 C1_6 1_555 1_555
O7_4 C3_7 1_555 1_555
H3_9 C3_7 1_555 1_555
O7_5 C1_7 1_555 1_555
O8_4 C2_6 1_555 1_555
C2_6 O8_5 1_555 1_555
C3_8 O9_5 1_555 1_555
H2_9 C2_6 1_555 1_555
C1_8 H1_9 1_555 1_555
O9_4 C1_8 1_555 1_555
C3_5 H1_10 1_555 1_555
H2_10 C2_4 1_555 1_555
H3_10 C1_5 1_555 1_555
C3_6 H1_11 1_555 1_555
H2_11 C2_5 1_555 1_555
H3_11 C1_6 1_555 1_555
H3_12 C1_7 1_555 1_555
H2_12 C2_6 1_555 1_555
C3_8 H1_12 1_555 1_555

#END
