
###############################################################################
#
# This file contains modified crystal structure data generated from the
# MOF subset of the Cambridge Structural Database (CSD) v543 
# hosted by the Cambridge Crystallographic Data Centre (CCDC).
#
# This work is licensed under the Creative Commons
# Attribution-NonCommercial-ShareAlike 4.0 International License.
# To view a copy of this license, visit
# http://creativecommons.org/licenses/by-nc-sa/4.0/
# or send a letter to
# Creative Commons, PO Box 1866, Mountain View, CA 94042, USA.
#
# CIF created using the CSD Python API on 29 September 2022
# The structure has been converted into the P1 space group
# The structure has a 3D framework
# The original CSD entry NUDYAP is in the monoclinic crystal system
# The framework has been calculated to contain at least 10.0% void space
# The void calculation uses a probe of radius 1.32A, grid spacing 0.4
#
###############################################################################

data_NUDYAP
_chemical_formula_moiety         '(C424 H288 N32 O128 S16 Zn16)n'
_symmetry_cell_setting           triclinic
_symmetry_space_group_name_H-M   'P 1'
_symmetry_Int_Tables_number      1
_space_group_name_Hall           'P 1'
loop_
_symmetry_equiv_pos_site_id
_symmetry_equiv_pos_as_xyz
1 x,y,z
_cell_length_a                   20.7812(10)
_cell_length_b                   16.1138(7)
_cell_length_c                   36.3151(16)
_cell_angle_alpha                90
_cell_angle_beta                 103.015(2)
_cell_angle_gamma                90
_cell_volume                     11848.2
loop_
_atom_site_label
_atom_site_type_symbol
_atom_site_fract_x
_atom_site_fract_y
_atom_site_fract_z
O5 O 0.00117(18) 0.2898(2) 0.67426(9)
N2 N 0.1484(2) 0.1863(2) 0.75734(11)
N3 N 0.08281(19) 0.5908(3) 0.54057(10)
C24 C 0.1263(2) 0.2616(3) 0.76118(12)
H15 H 0.1446 0.2900 0.7833
C25 C 0.0781(2) 0.3016(3) 0.73488(13)
H16 H 0.0657 0.3558 0.7387
C26 C 0.0488(3) 0.2583(3) 0.70259(13)
C27 C 0.0690(4) 0.1774(4) 0.69884(17)
H17 H 0.0494 0.1461 0.6778
C28 C 0.1184(4) 0.1437(4) 0.72668(17)
H18 H 0.1313 0.0891 0.7240
C32 C 0.0203(2) 0.5258(3) 0.59409(12)
H23 H 0.0140 0.4100 0.6846
C49 C 0.0616(2) 0.5128(3) 0.53872(13)
H33 H 0.0686 0.4800 0.5189
C50 C 0.0300(2) 0.4777(3) 0.56439(12)
H34 H 0.0155 0.4229 0.5618
C51 C 0.0432(3) 0.6059(3) 0.59686(15)
H35 H 0.0386 0.6390 0.6171
C52 C 0.0730(3) 0.6369(3) 0.56964(15)
H36 H 0.0870 0.6919 0.5714
Zn3 Zn 0.12426(3) 0.63592(3) 0.49877(2)
Zn4 Zn 0.23181(3) 0.14199(3) 0.79472(2)
Zn1 Zn 0.62426(3) 0.13592(3) 0.49877(2)
Zn2 Zn 0.73181(3) 0.64199(3) 0.79472(2)
S1 S 0.33198(8) 0.44210(10) 0.39283(5)
O1 O 0.3113(3) 0.4652(3) 0.42611(17)
O2 O 0.2898(2) 0.3880(3) 0.3660(2)
O3 O 0.82361(17) 0.3586(2) 0.60448(9)
O4 O 0.84862(17) 0.4342(2) 0.68267(9)
O6 O 0.98795(16) 0.4991(2) 0.62063(9)
O7 O 0.63347(16) 0.03596(19) 0.46972(8)
O8 O 0.72082(18) 0.0119(2) 0.51639(9)
O11 O 0.2452(2) 0.7436(3) 0.33089(15)
O12 O 0.5837(3) 0.2191(3) 0.46105(12)
O13 O 0.4803(4) 0.1985(3) 0.47336(17)
O14 O 0.3149(2) 0.7750(3) 0.29947(13)
N1 N 0.6948(2) 0.2073(2) 0.53122(10)
N4 N 0.7679(2) 0.5738(3) 0.75590(11)
C1 C 0.4136(3) 0.4028(3) 0.40450(15)
C2 C 0.5247(5) 0.2357(4) 0.4588(2)
C3 C 0.4986(3) 0.3114(4) 0.43303(16)
C4 C 0.4343(3) 0.3322(4) 0.42555(16)
H1 H 0.4041 0.2995 0.4344
C5 C 0.3562(3) 0.5308(3) 0.37073(14)
C6 C 0.4235(2) 0.5281(3) 0.37106(13)
C7 C 0.4570(3) 0.4545(3) 0.39060(14)
C8 C 0.5228(3) 0.4317(3) 0.39662(18)
H2 H 0.5526 0.4625 0.3865
C9 C 0.5432(3) 0.3608(4) 0.41836(19)
H3 H 0.5875 0.3456 0.4233
C10 C 0.4483(3) 0.5909(4) 0.35315(19)
H4 H 0.4922 0.5896 0.3512
C11 C 0.4082(3) 0.6563(4) 0.3379(2)
H5 H 0.4256 0.6982 0.3255
C12 C 0.3432(3) 0.6616(3) 0.34046(14)
C13 C 0.3159(3) 0.5967(3) 0.35668(15)
H6 H 0.2718 0.5975 0.3581
C14 C 0.2991(3) 0.7319(3) 0.32385(14)
C15 C 0.6961(2) 0.2903(3) 0.52704(13)
H7 H 0.6669 0.3140 0.5066
C16 C 0.7379(2) 0.3413(3) 0.55128(13)
H8 H 0.7367 0.3985 0.5476
C17 C 0.7825(2) 0.3059(3) 0.58171(13)
C18 C 0.8787(2) 0.3242(3) 0.63220(13)
H9 H 0.9012 0.2820 0.6207
H10 H 0.8633 0.2994 0.6530
C19 C 0.9249(2) 0.3968(3) 0.64611(12)
C20 C 0.8871(2) 0.4690(3) 0.65802(13)
H11 H 0.9174 0.5107 0.6712
H12 H 0.8586 0.4946 0.6361
C21 C 0.8229(2) 0.4839(3) 0.70543(13)
C22 C 0.8271(3) 0.5689(3) 0.70638(13)
H13 H 0.8482 0.5975 0.6902
C23 C 0.7992(3) 0.6106(3) 0.73198(15)
H14 H 0.8024 0.6682 0.7327
C29 C 0.7619(3) 0.4918(3) 0.75332(15)
H19 H 0.7389 0.4649 0.7690
C30 C 0.7877(3) 0.4451(3) 0.72893(15)
H20 H 0.7819 0.3879 0.7280
C31 C 0.9571(3) 0.4196(3) 0.61352(12)
H21 H 0.9898 0.3781 0.6112
H22 H 0.9239 0.4210 0.5900
C33 C 0.9777(2) 0.3708(3) 0.68048(12)
H24 H 0.9594 0.3704 0.7028
C34 C 0.7813(3) 0.2208(3) 0.58706(13)
H25 H 0.8096 0.1959 0.6076
C35 C 0.7374(3) 0.1742(3) 0.56130(13)
H26 H 0.7369 0.1170 0.5648
Zn6 Zn 0.23181(3) 0.85801(3) 0.29472(2)
O17 O 0.7452(2) 0.7564(3) 0.83089(15)
O18 O 0.8149(2) 0.7250(3) 0.79947(13)
O19 O 0.7563(5) 0.5661(3) 0.83921(15)
O20 O 0.6558(6) 0.5335(5) 0.8133(3)
N5 N 0.6484(2) 0.6863(2) 0.75734(11)
N6 N 0.58281(19) 0.0908(3) 0.54057(10)
S2 S 0.61450(9) 0.76100(9) 0.38008(4)
O9 O 0.5547(3) 0.7327(3) 0.38874(13)
O10 O 0.6086(3) 0.8087(3) 0.34631(11)
O15 O 0.7563(5) 0.4339(3) 0.33921(15)
O16 O 0.6558(6) 0.4665(5) 0.3133(3)
C36 C 0.6835(2) 0.9926(3) 0.48650(12)
C37 C 0.6959(3) 0.9138(3) 0.46709(13)
C38 C 0.7535(3) 0.8685(3) 0.48106(14)
H27 H 0.7835 0.8882 0.5022
C39 C 0.7674(3) 0.7951(3) 0.46454(14)
H28 H 0.8063 0.7662 0.4743
C40 C 0.7222(3) 0.7654(3) 0.43311(14)
C41 C 0.6644(3) 0.8111(3) 0.41961(14)
C42 C 0.6713(4) 0.6778(3) 0.38223(16)
C43 C 0.7259(4) 0.6885(3) 0.41168(16)
C44 C 0.7752(5) 0.6283(4) 0.41787(18)
H29 H 0.8124 0.6331 0.4376
C45 C 0.7668(5) 0.5598(4) 0.3932(2)
H30 H 0.7994 0.5193 0.3968
C46 C 0.7122(5) 0.5506(4) 0.36418(19)
C47 C 0.6625(5) 0.6110(4) 0.35818(18)
H31 H 0.6250 0.6061 0.3387
C48 C 0.6504(3) 0.8847(3) 0.43544(13)
H32 H 0.6119 0.9140 0.4254
C53 C 0.7070(9) 0.4771(5) 0.3371(3)
Zn5 Zn 0.73181(3) 0.35801(3) 0.29472(2)
N4_2 N 0.2679(2) 0.0738(3) 0.75590(11)
H11_2 H 0.4174 0.0107 0.6712
C22_2 C 0.3271(3) 0.0689(3) 0.70638(13)
H13_2 H 0.3482 0.0975 0.6902
C23_2 C 0.2992(3) 0.1106(3) 0.73198(15)
H14_2 H 0.3024 0.1682 0.7327
C32_2 C 0.5203(2) 0.0258(3) 0.59409(12)
C49_2 C 0.5616(2) 0.0128(3) 0.53872(13)
C51_2 C 0.5432(3) 0.1059(3) 0.59686(15)
H35_2 H 0.5386 0.1390 0.6171
C52_2 C 0.5730(3) 0.1369(3) 0.56964(15)
H36_2 H 0.5870 0.1919 0.5714
O17_2 O 0.2452(2) 0.2564(3) 0.83089(15)
O18_2 O 0.3149(2) 0.2250(3) 0.79947(13)
O19_2 O 0.2563(5) 0.0661(3) 0.83921(15)
O20_2 O 0.1558(6) 0.0335(5) 0.8133(3)
S2_2 S 0.11450(9) 0.26100(9) 0.38008(4)
O3_2 O 0.32361(17) 0.8586(2) 0.60448(9)
O4_2 O 0.34862(17) 0.9342(2) 0.68267(9)
O5_2 O 0.50117(18) 0.7898(2) 0.67426(9)
O6_2 O 0.48795(16) 0.9991(2) 0.62063(9)
O7_2 O 0.13347(16) 0.53596(19) 0.46972(8)
O8_2 O 0.22082(18) 0.5119(2) 0.51639(9)
O9_2 O 0.0547(3) 0.2327(3) 0.38874(13)
O10_2 O 0.1086(3) 0.3087(3) 0.34631(11)
O12_2 O 0.0837(3) 0.7191(3) 0.46105(12)
N1_2 N 0.1948(2) 0.7073(2) 0.53122(10)
C2_2 C 0.0247(5) 0.7357(4) 0.4588(2)
C8_2 C 0.0228(3) 0.9317(3) 0.39662(18)
H2_2 H 0.0526 0.9625 0.3865
C9_2 C 0.0432(3) 0.8608(4) 0.41836(19)
H3_2 H 0.0875 0.8456 0.4233
C15_2 C 0.1961(2) 0.7903(3) 0.52704(13)
H7_2 H 0.1669 0.8140 0.5066
C16_2 C 0.2379(2) 0.8413(3) 0.55128(13)
H8_2 H 0.2367 0.8985 0.5476
C17_2 C 0.2825(2) 0.8059(3) 0.58171(13)
C18_2 C 0.3787(2) 0.8242(3) 0.63220(13)
H9_2 H 0.4012 0.7820 0.6207
H10_2 H 0.3633 0.7994 0.6530
C19_2 C 0.4249(2) 0.8968(3) 0.64611(12)
C20_2 C 0.3871(2) 0.9690(3) 0.65802(13)
H12_2 H 0.3586 0.9946 0.6361
C21_2 C 0.3229(2) 0.9839(3) 0.70543(13)
C24_2 C 0.6263(2) 0.7616(3) 0.76118(12)
H15_2 H 0.6446 0.7900 0.7833
C25_2 C 0.5781(2) 0.8016(3) 0.73488(13)
H16_2 H 0.5657 0.8558 0.7387
C26_2 C 0.5488(3) 0.7583(3) 0.70259(13)
C27_2 C 0.5690(4) 0.6774(4) 0.69884(17)
H17_2 H 0.5494 0.6461 0.6778
C28_2 C 0.6184(4) 0.6437(4) 0.72668(17)
H18_2 H 0.6313 0.5891 0.7240
C29_2 C 0.2619(3) 0.9918(3) 0.75332(15)
H19_2 H 0.2389 0.9649 0.7690
C30_2 C 0.2877(3) 0.9451(3) 0.72893(15)
H20_2 H 0.2819 0.8879 0.7280
C31_2 C 0.4571(3) 0.9196(3) 0.61352(12)
H21_2 H 0.4898 0.8781 0.6112
H22_2 H 0.4239 0.9210 0.5900
C33_2 C 0.4777(2) 0.8708(3) 0.68048(12)
H23_2 H 0.5140 0.9100 0.6846
H24_2 H 0.4594 0.8704 0.7028
C34_2 C 0.2813(3) 0.7208(3) 0.58706(13)
H25_2 H 0.3096 0.6959 0.6076
C35_2 C 0.2374(3) 0.6742(3) 0.56130(13)
H26_2 H 0.2369 0.6170 0.5648
C36_2 C 0.1835(2) 0.4926(3) 0.48650(12)
C37_2 C 0.1959(3) 0.4138(3) 0.46709(13)
C38_2 C 0.2535(3) 0.3685(3) 0.48106(14)
H27_2 H 0.2835 0.3882 0.5022
C39_2 C 0.2674(3) 0.2951(3) 0.46454(14)
H28_2 H 0.3063 0.2662 0.4743
C40_2 C 0.2222(3) 0.2654(3) 0.43311(14)
C41_2 C 0.1644(3) 0.3111(3) 0.41961(14)
C42_2 C 0.1713(4) 0.1778(3) 0.38223(16)
C43_2 C 0.2259(4) 0.1885(3) 0.41168(16)
C44_2 C 0.2752(5) 0.1283(4) 0.41787(18)
H29_2 H 0.3124 0.1331 0.4376
C45_2 C 0.2668(5) 0.0598(4) 0.3932(2)
H30_2 H 0.2994 0.0193 0.3968
C46_2 C 0.2122(5) 0.0506(4) 0.36418(19)
C47_2 C 0.1625(5) 0.1110(4) 0.35818(18)
H31_2 H 0.1250 0.1061 0.3387
C48_2 C 0.1504(3) 0.3847(3) 0.43544(13)
H32_2 H 0.1119 0.4140 0.4254
H33_2 H 0.5686 0.9800 0.5189
C50_2 C 0.5300(2) 0.9777(3) 0.56439(12)
H34_2 H 0.5155 0.9229 0.5618
O15_2 O 0.2563(5) 0.9339(3) 0.33921(15)
O16_2 O 0.1558(6) 0.9665(5) 0.3133(3)
C53_2 C 0.2070(9) 0.9771(5) 0.3371(3)
O11_2 O 0.7452(2) 0.2436(3) 0.33089(15)
O14_2 O 0.8149(2) 0.2750(3) 0.29947(13)
C5_2 C 0.8562(3) 0.0308(3) 0.37073(14)
C6_2 C 0.9235(2) 0.0281(3) 0.37106(13)
C10_2 C 0.9483(3) 0.0909(4) 0.35315(19)
H4_2 H 0.9922 0.0896 0.3512
C11_2 C 0.9082(3) 0.1563(4) 0.3379(2)
H5_2 H 0.9256 0.1982 0.3255
C12_2 C 0.8432(3) 0.1616(3) 0.34046(14)
C13_2 C 0.8159(3) 0.0967(3) 0.35668(15)
H6_2 H 0.7718 0.0975 0.3581
C14_2 C 0.7991(3) 0.2319(3) 0.32385(14)
O5_3 O 0.00117(18) 0.7102(2) 0.17426(9)
N2_2 N 0.1484(2) 0.8137(2) 0.25734(11)
N3_2 N 0.08281(19) 0.4092(3) 0.04057(10)
C24_3 C 0.1263(2) 0.7384(3) 0.26118(12)
H15_3 H 0.1446 0.7100 0.2833
C25_3 C 0.0781(2) 0.6984(3) 0.23488(13)
H16_3 H 0.0657 0.6442 0.2387
C26_3 C 0.0488(3) 0.7417(3) 0.20259(13)
C27_3 C 0.0690(4) 0.8226(4) 0.19884(17)
H17_3 H 0.0494 0.8539 0.1778
C28_3 C 0.1184(4) 0.8563(4) 0.22668(17)
H18_3 H 0.1313 0.9109 0.2240
C32_3 C 0.0203(2) 0.4742(3) 0.09409(12)
H23_3 H 0.0140 0.5900 0.1846
C49_3 C 0.0616(2) 0.4872(3) 0.03872(13)
H33_3 H 0.0686 0.5200 0.0189
C50_3 C 0.0300(2) 0.5223(3) 0.06439(12)
H34_3 H 0.0155 0.5771 0.0618
C51_3 C 0.0432(3) 0.3941(3) 0.09686(15)
H35_3 H 0.0386 0.3610 0.1171
C52_3 C 0.0730(3) 0.3631(3) 0.06964(15)
H36_3 H 0.0870 0.3081 0.0714
S2_3 S 0.61450(9) 0.23900(9) 0.88008(4)
O9_3 O 0.5547(3) 0.2673(3) 0.88874(13)
O10_3 O 0.6086(3) 0.1913(3) 0.84631(11)
C36_3 C 0.6835(2) 0.0074(3) 0.98650(12)
C37_3 C 0.6959(3) 0.0862(3) 0.96709(13)
C38_3 C 0.7535(3) 0.1315(3) 0.98106(14)
C39_3 C 0.7674(3) 0.2049(3) 0.96454(14)
H28_3 H 0.8063 0.2338 0.9743
C40_3 C 0.7222(3) 0.2346(3) 0.93311(14)
C41_3 C 0.6644(3) 0.1889(3) 0.91961(14)
C42_3 C 0.6713(4) 0.3222(3) 0.88223(16)
C43_3 C 0.7259(4) 0.3115(3) 0.91168(16)
C44_3 C 0.7752(5) 0.3717(4) 0.91787(18)
H29_3 H 0.8124 0.3669 0.9376
C45_3 C 0.7668(5) 0.4402(4) 0.8932(2)
H30_3 H 0.7994 0.4807 0.8968
C46_3 C 0.7122(5) 0.4494(4) 0.86418(19)
C47_3 C 0.6625(5) 0.3890(4) 0.85818(18)
H31_3 H 0.6250 0.3939 0.8387
C48_3 C 0.6504(3) 0.1153(3) 0.93544(13)
H32_3 H 0.6119 0.0860 0.9254
C53_3 C 0.7070(9) 0.5229(5) 0.8371(3)
O3_3 O 0.82361(17) 0.6414(2) 0.10448(9)
O4_3 O 0.84862(17) 0.5658(2) 0.18267(9)
O6_3 O 0.98795(16) 0.5009(2) 0.12063(9)
O8_3 O 0.72082(18) 0.9881(2) 0.01639(9)
N1_3 N 0.6948(2) 0.7927(2) 0.03122(10)
N4_3 N 0.7679(2) 0.4262(3) 0.25590(11)
C15_3 C 0.6961(2) 0.7097(3) 0.02704(13)
H7_3 H 0.6669 0.6860 0.0066
C16_3 C 0.7379(2) 0.6587(3) 0.05128(13)
H8_3 H 0.7367 0.6015 0.0476
C17_3 C 0.7825(2) 0.6941(3) 0.08171(13)
C18_3 C 0.8787(2) 0.6758(3) 0.13220(13)
H9_3 H 0.9012 0.7180 0.1207
H10_3 H 0.8633 0.7006 0.1530
C19_3 C 0.9249(2) 0.6032(3) 0.14611(12)
C20_3 C 0.8871(2) 0.5310(3) 0.15802(13)
H11_3 H 0.9174 0.4893 0.1712
H12_3 H 0.8586 0.5054 0.1361
C21_3 C 0.8229(2) 0.5161(3) 0.20543(13)
C22_3 C 0.8271(3) 0.4311(3) 0.20638(13)
H13_3 H 0.8482 0.4025 0.1902
C23_3 C 0.7992(3) 0.3894(3) 0.23198(15)
H14_3 H 0.8024 0.3318 0.2327
C29_3 C 0.7619(3) 0.5082(3) 0.25332(15)
H19_3 H 0.7389 0.5351 0.2690
C30_3 C 0.7877(3) 0.5549(3) 0.22893(15)
H20_3 H 0.7819 0.6121 0.2280
C31_3 C 0.9571(3) 0.5804(3) 0.11352(12)
H21_3 H 0.9898 0.6219 0.1112
H22_3 H 0.9239 0.5790 0.0900
C33_3 C 0.9777(2) 0.6292(3) 0.18048(12)
H24_3 H 0.9594 0.6296 0.2028
C34_3 C 0.7813(3) 0.7792(3) 0.08706(13)
H25_3 H 0.8096 0.8041 0.1076
C35_3 C 0.7374(3) 0.8258(3) 0.06130(13)
H26_3 H 0.7369 0.8830 0.0648
N5_2 N 0.6484(2) 0.3137(2) 0.25734(11)
N6_2 N 0.58281(19) 0.9092(3) 0.04057(10)
Zn1_2 Zn 0.62426(3) 0.86408(3) 0.99877(2)
S1_2 S 0.33198(8) 0.55790(10) 0.89283(5)
O1_2 O 0.3113(3) 0.5348(3) 0.92611(17)
O2_2 O 0.2898(2) 0.6120(3) 0.8660(2)
O7_3 O 0.63347(16) 0.96404(19) 0.96972(8)
O12_3 O 0.5837(3) 0.7809(3) 0.96105(12)
O13_2 O 0.4803(4) 0.8015(3) 0.97336(17)
C1_2 C 0.4136(3) 0.5972(3) 0.90450(15)
C2_3 C 0.5247(5) 0.7643(4) 0.9588(2)
C3_2 C 0.4986(3) 0.6886(4) 0.93303(16)
C4_2 C 0.4343(3) 0.6678(4) 0.92555(16)
H1_2 H 0.4041 0.7005 0.9344
C5_3 C 0.3562(3) 0.4692(3) 0.87073(14)
C6_3 C 0.4235(2) 0.4719(3) 0.87106(13)
C7_2 C 0.4570(3) 0.5455(3) 0.89060(14)
C8_3 C 0.5228(3) 0.5683(3) 0.89662(18)
H2_3 H 0.5526 0.5375 0.8865
C9_3 C 0.5432(3) 0.6392(4) 0.91836(19)
H3_3 H 0.5875 0.6544 0.9233
C10_3 C 0.4483(3) 0.4091(4) 0.85315(19)
H4_3 H 0.4922 0.4104 0.8512
C11_3 C 0.4082(3) 0.3437(4) 0.8379(2)
H5_3 H 0.4256 0.3018 0.8255
C12_3 C 0.3432(3) 0.3384(3) 0.84046(14)
C13_3 C 0.3159(3) 0.4033(3) 0.85668(15)
H6_3 H 0.2718 0.4025 0.8581
C14_3 C 0.2991(3) 0.2681(3) 0.82385(14)
C53_4 C 0.2070(9) 0.0229(5) 0.8371(3)
O3_4 O 0.32361(17) 0.1414(2) 0.10448(9)
O4_4 O 0.34862(17) 0.0658(2) 0.18267(9)
O5_4 O 0.50117(18) 0.2102(2) 0.17426(9)
O6_4 O 0.48795(16) 0.0009(2) 0.12063(9)
O8_4 O 0.22082(18) 0.4881(2) 0.01639(9)
N1_4 N 0.1948(2) 0.2927(2) 0.03122(10)
C15_4 C 0.1961(2) 0.2097(3) 0.02704(13)
H7_4 H 0.1669 0.1860 0.0066
C16_4 C 0.2379(2) 0.1587(3) 0.05128(13)
H8_4 H 0.2367 0.1015 0.0476
C17_4 C 0.2825(2) 0.1941(3) 0.08171(13)
C18_4 C 0.3787(2) 0.1758(3) 0.13220(13)
H9_4 H 0.4012 0.2180 0.1207
H10_4 H 0.3633 0.2006 0.1530
C19_4 C 0.4249(2) 0.1032(3) 0.14611(12)
C20_4 C 0.3871(2) 0.0310(3) 0.15802(13)
H12_4 H 0.3586 0.0054 0.1361
C21_4 C 0.3229(2) 0.0161(3) 0.20543(13)
C24_4 C 0.6263(2) 0.2384(3) 0.26118(12)
H15_4 H 0.6446 0.2100 0.2833
C25_4 C 0.5781(2) 0.1984(3) 0.23488(13)
H16_4 H 0.5657 0.1442 0.2387
C26_4 C 0.5488(3) 0.2417(3) 0.20259(13)
C27_4 C 0.5690(4) 0.3226(4) 0.19884(17)
H17_4 H 0.5494 0.3539 0.1778
C28_4 C 0.6184(4) 0.3563(4) 0.22668(17)
H18_4 H 0.6313 0.4109 0.2240
C29_4 C 0.2619(3) 0.0082(3) 0.25332(15)
H19_4 H 0.2389 0.0351 0.2690
C30_4 C 0.2877(3) 0.0549(3) 0.22893(15)
H20_4 H 0.2819 0.1121 0.2280
C31_4 C 0.4571(3) 0.0804(3) 0.11352(12)
H21_4 H 0.4898 0.1219 0.1112
H22_4 H 0.4239 0.0790 0.0900
C33_4 C 0.4777(2) 0.1292(3) 0.18048(12)
H23_4 H 0.5140 0.0900 0.1846
H24_4 H 0.4594 0.1296 0.2028
C34_4 C 0.2813(3) 0.2792(3) 0.08706(13)
H25_4 H 0.3096 0.3041 0.1076
C35_4 C 0.2374(3) 0.3258(3) 0.06130(13)
H26_4 H 0.2369 0.3830 0.0648
H27_3 H 0.2835 0.6118 0.0022
H33_4 H 0.5686 0.0200 0.0189
C50_4 C 0.5300(2) 0.0223(3) 0.06439(12)
H34_4 H 0.5155 0.0771 0.0618
N4_4 N 0.2679(2) 0.9262(3) 0.25590(11)
H11_4 H 0.4174 0.9893 0.1712
C22_4 C 0.3271(3) 0.9311(3) 0.20638(13)
H13_4 H 0.3482 0.9025 0.1902
C23_4 C 0.2992(3) 0.8894(3) 0.23198(15)
H14_4 H 0.3024 0.8318 0.2327
C32_4 C 0.5203(2) 0.9742(3) 0.09409(12)
C49_4 C 0.5616(2) 0.9872(3) 0.03872(13)
C51_4 C 0.5432(3) 0.8941(3) 0.09686(15)
H35_4 H 0.5386 0.8610 0.1171
C52_4 C 0.5730(3) 0.8631(3) 0.06964(15)
H36_4 H 0.5870 0.8081 0.0714
C5_4 C 0.8562(3) 0.9692(3) 0.87073(14)
C6_4 C 0.9235(2) 0.9719(3) 0.87106(13)
C10_4 C 0.9483(3) 0.9091(4) 0.85315(19)
H4_4 H 0.9922 0.9104 0.8512
C11_4 C 0.9082(3) 0.8437(4) 0.8379(2)
H5_4 H 0.9256 0.8018 0.8255
C12_4 C 0.8432(3) 0.8384(3) 0.84046(14)
C13_4 C 0.8159(3) 0.9033(3) 0.85668(15)
H6_4 H 0.7718 0.9025 0.8581
C14_4 C 0.7991(3) 0.7681(3) 0.82385(14)
Zn1_3 Zn 0.37574(3) 0.13592(3) 0.00123(2)
S1_3 S 0.66802(8) 0.44210(10) 0.10717(5)
O1_3 O 0.6887(3) 0.4652(3) 0.07389(17)
O2_3 O 0.7102(2) 0.3880(3) 0.1340(2)
O7_4 O 0.36653(16) 0.03596(19) 0.03028(8)
O11_3 O 0.7548(2) 0.7436(3) 0.16911(15)
O12_4 O 0.4163(3) 0.2191(3) 0.03895(12)
O13_3 O 0.5197(4) 0.1985(3) 0.02664(17)
O14_3 O 0.6851(2) 0.7750(3) 0.20053(13)
C1_3 C 0.5864(3) 0.4028(3) 0.09550(15)
C2_4 C 0.4753(5) 0.2357(4) 0.0412(2)
C3_3 C 0.5014(3) 0.3114(4) 0.06697(16)
C4_3 C 0.5657(3) 0.3322(4) 0.07445(16)
H1_3 H 0.5959 0.2995 0.0656
C5_5 C 0.6438(3) 0.5308(3) 0.12927(14)
C6_5 C 0.5765(2) 0.5281(3) 0.12894(13)
C7_3 C 0.5430(3) 0.4545(3) 0.10940(14)
C8_4 C 0.4772(3) 0.4317(3) 0.10338(18)
H2_4 H 0.4474 0.4625 0.1135
C9_4 C 0.4568(3) 0.3608(4) 0.08164(19)
H3_4 H 0.4125 0.3456 0.0767
C10_5 C 0.5517(3) 0.5909(4) 0.14685(19)
H4_5 H 0.5078 0.5896 0.1488
C11_5 C 0.5918(3) 0.6563(4) 0.1621(2)
H5_5 H 0.5744 0.6982 0.1745
C12_5 C 0.6568(3) 0.6616(3) 0.15954(14)
C13_5 C 0.6841(3) 0.5967(3) 0.14332(15)
H6_5 H 0.7282 0.5975 0.1419
C14_5 C 0.7009(3) 0.7319(3) 0.17615(14)
Zn6_2 Zn 0.76819(3) 0.85801(3) 0.20528(2)
Zn2_2 Zn 0.26819(3) 0.64199(3) 0.70528(2)
O3_5 O 0.17639(17) 0.3586(2) 0.89552(9)
O4_5 O 0.15138(17) 0.4342(2) 0.81733(9)
O6_5 O 0.01205(16) 0.4991(2) 0.87937(9)
O8_5 O 0.27918(18) 0.0119(2) 0.98361(9)
N1_5 N 0.3052(2) 0.2073(2) 0.96878(10)
N4_5 N 0.2321(2) 0.5738(3) 0.74410(11)
C15_5 C 0.3039(2) 0.2903(3) 0.97296(13)
H7_5 H 0.3331 0.3140 0.9934
C16_5 C 0.2621(2) 0.3413(3) 0.94872(13)
H8_5 H 0.2633 0.3985 0.9524
C17_5 C 0.2175(2) 0.3059(3) 0.91829(13)
C18_5 C 0.1213(2) 0.3242(3) 0.86780(13)
H9_5 H 0.0988 0.2820 0.8793
H10_5 H 0.1367 0.2994 0.8470
C19_5 C 0.0751(2) 0.3968(3) 0.85389(12)
C20_5 C 0.1129(2) 0.4690(3) 0.84198(13)
H11_5 H 0.0826 0.5107 0.8288
H12_5 H 0.1414 0.4946 0.8639
C21_5 C 0.1771(2) 0.4839(3) 0.79457(13)
C22_5 C 0.1729(3) 0.5689(3) 0.79362(13)
H13_5 H 0.1518 0.5975 0.8098
C23_5 C 0.2008(3) 0.6106(3) 0.76802(15)
H14_5 H 0.1976 0.6682 0.7673
C29_5 C 0.2381(3) 0.4918(3) 0.74668(15)
H19_5 H 0.2611 0.4649 0.7310
C30_5 C 0.2123(3) 0.4451(3) 0.77107(15)
H20_5 H 0.2181 0.3879 0.7720
C31_5 C 0.0429(3) 0.4196(3) 0.88648(12)
H21_5 H 0.0102 0.3781 0.8888
H22_5 H 0.0761 0.4210 0.9100
C33_5 C 0.0223(2) 0.3708(3) 0.81952(12)
H24_5 H 0.0406 0.3704 0.7972
C34_5 C 0.2187(3) 0.2208(3) 0.91294(13)
H25_5 H 0.1904 0.1959 0.8924
C35_5 C 0.2626(3) 0.1742(3) 0.93870(13)
H26_5 H 0.2631 0.1170 0.9352
O17_3 O 0.2548(2) 0.7564(3) 0.66911(15)
O18_3 O 0.1851(2) 0.7250(3) 0.70053(13)
O19_3 O 0.2437(5) 0.5661(3) 0.66079(15)
O20_3 O 0.3442(6) 0.5335(5) 0.6867(3)
N5_3 N 0.3516(2) 0.6863(2) 0.74266(11)
N6_3 N 0.41719(19) 0.0908(3) 0.95943(10)
S2_4 S 0.38550(9) 0.76100(9) 0.11992(4)
O9_4 O 0.4453(3) 0.7327(3) 0.11126(13)
O10_4 O 0.3914(3) 0.8087(3) 0.15369(11)
O15_3 O 0.2437(5) 0.4339(3) 0.16079(15)
O16_3 O 0.3442(6) 0.4665(5) 0.1867(3)
C36_4 C 0.3165(2) 0.9926(3) 0.01350(12)
C37_4 C 0.3041(3) 0.9138(3) 0.03291(13)
C38_4 C 0.2465(3) 0.8685(3) 0.01894(14)
C39_4 C 0.2326(3) 0.7951(3) 0.03546(14)
H28_4 H 0.1937 0.7662 0.0257
C40_4 C 0.2778(3) 0.7654(3) 0.06689(14)
C41_4 C 0.3356(3) 0.8111(3) 0.08039(14)
C42_4 C 0.3287(4) 0.6778(3) 0.11777(16)
C43_4 C 0.2741(4) 0.6885(3) 0.08832(16)
C44_4 C 0.2248(5) 0.6283(4) 0.08213(18)
H29_4 H 0.1876 0.6331 0.0624
C45_4 C 0.2332(5) 0.5598(4) 0.1068(2)
H30_4 H 0.2006 0.5193 0.1032
C46_4 C 0.2878(5) 0.5506(4) 0.13582(19)
C47_4 C 0.3375(5) 0.6110(4) 0.14182(18)
H31_4 H 0.3750 0.6061 0.1613
C48_4 C 0.3496(3) 0.8847(3) 0.06456(13)
H32_4 H 0.3881 0.9140 0.0746
C53_5 C 0.2930(9) 0.4771(5) 0.1629(3)
Zn5_2 Zn 0.26819(3) 0.35801(3) 0.20528(2)
O5_5 O 0.99883(18) 0.2898(2) 0.82574(9)
N2_3 N 0.8516(2) 0.1863(2) 0.74266(11)
N3_3 N 0.91719(19) 0.5908(3) 0.95943(10)
C24_5 C 0.8737(2) 0.2616(3) 0.73882(12)
H15_5 H 0.8554 0.2900 0.7167
C25_5 C 0.9219(2) 0.3016(3) 0.76512(13)
H16_5 H 0.9343 0.3558 0.7613
C26_5 C 0.9512(3) 0.2583(3) 0.79741(13)
C27_5 C 0.9310(4) 0.1774(4) 0.80116(17)
H17_5 H 0.9506 0.1461 0.8222
C28_5 C 0.8816(4) 0.1437(4) 0.77332(17)
H18_5 H 0.8687 0.0891 0.7760
C32_5 C 0.9797(2) 0.5258(3) 0.90591(12)
H23_5 H 0.9860 0.4100 0.8154
C49_5 C 0.9384(2) 0.5128(3) 0.96128(13)
H33_5 H 0.9314 0.4800 0.9811
C50_5 C 0.9700(2) 0.4777(3) 0.93561(12)
H34_5 H 0.9845 0.4229 0.9382
C51_5 C 0.9568(3) 0.6059(3) 0.90314(15)
H35_5 H 0.9614 0.6390 0.8829
C52_5 C 0.9270(3) 0.6369(3) 0.93036(15)
H36_5 H 0.9130 0.6919 0.9286
Zn4_2 Zn 0.76819(3) 0.14199(3) 0.70528(2)
O11_4 O 0.2548(2) 0.2436(3) 0.16911(15)
O14_4 O 0.1851(2) 0.2750(3) 0.20053(13)
C5_6 C 0.1438(3) 0.0308(3) 0.12927(14)
C6_6 C 0.0765(2) 0.0281(3) 0.12894(13)
C10_6 C 0.0517(3) 0.0909(4) 0.14685(19)
H4_6 H 0.0078 0.0896 0.1488
C11_6 C 0.0918(3) 0.1563(4) 0.1621(2)
H5_6 H 0.0744 0.1982 0.1745
C12_6 C 0.1568(3) 0.1616(3) 0.15954(14)
C13_6 C 0.1841(3) 0.0967(3) 0.14332(15)
H6_6 H 0.2282 0.0975 0.1419
C14_6 C 0.2009(3) 0.2319(3) 0.17615(14)
N4_6 N 0.7321(2) 0.0738(3) 0.74410(11)
H11_6 H 0.5826 0.0107 0.8288
C22_6 C 0.6729(3) 0.0689(3) 0.79362(13)
H13_6 H 0.6518 0.0975 0.8098
C23_6 C 0.7008(3) 0.1106(3) 0.76802(15)
H14_6 H 0.6976 0.1682 0.7673
C32_6 C 0.4797(2) 0.0258(3) 0.90591(12)
C49_6 C 0.4384(2) 0.0128(3) 0.96128(13)
C51_6 C 0.4568(3) 0.1059(3) 0.90314(15)
H35_6 H 0.4614 0.1390 0.8829
C52_6 C 0.4270(3) 0.1369(3) 0.93036(15)
H36_6 H 0.4130 0.1919 0.9286
O17_4 O 0.7548(2) 0.2564(3) 0.66911(15)
O18_4 O 0.6851(2) 0.2250(3) 0.70053(13)
O19_4 O 0.7437(5) 0.0661(3) 0.66079(15)
O20_4 O 0.8442(6) 0.0335(5) 0.6867(3)
O3_6 O 0.67639(17) 0.8586(2) 0.89552(9)
O4_6 O 0.65138(17) 0.9342(2) 0.81733(9)
O5_6 O 0.49883(18) 0.7898(2) 0.82574(9)
O6_6 O 0.51205(16) 0.9991(2) 0.87937(9)
O8_6 O 0.77918(18) 0.5119(2) 0.98361(9)
N1_6 N 0.8052(2) 0.7073(2) 0.96878(10)
C15_6 C 0.8039(2) 0.7903(3) 0.97296(13)
H7_6 H 0.8331 0.8140 0.9934
C16_6 C 0.7621(2) 0.8413(3) 0.94872(13)
H8_6 H 0.7633 0.8985 0.9524
C17_6 C 0.7175(2) 0.8059(3) 0.91829(13)
C18_6 C 0.6213(2) 0.8242(3) 0.86780(13)
H9_6 H 0.5988 0.7820 0.8793
H10_6 H 0.6367 0.7994 0.8470
C19_6 C 0.5751(2) 0.8968(3) 0.85389(12)
C20_6 C 0.6129(2) 0.9690(3) 0.84198(13)
H12_6 H 0.6414 0.9946 0.8639
C21_6 C 0.6771(2) 0.9839(3) 0.79457(13)
C24_6 C 0.3737(2) 0.7616(3) 0.73882(12)
H15_6 H 0.3554 0.7900 0.7167
C25_6 C 0.4219(2) 0.8016(3) 0.76512(13)
H16_6 H 0.4343 0.8558 0.7613
C26_6 C 0.4512(3) 0.7583(3) 0.79741(13)
C27_6 C 0.4310(4) 0.6774(4) 0.80116(17)
H17_6 H 0.4506 0.6461 0.8222
C28_6 C 0.3816(4) 0.6437(4) 0.77332(17)
H18_6 H 0.3687 0.5891 0.7760
C29_6 C 0.7381(3) 0.9918(3) 0.74668(15)
H19_6 H 0.7611 0.9649 0.7310
C30_6 C 0.7123(3) 0.9451(3) 0.77107(15)
H20_6 H 0.7181 0.8879 0.7720
C31_6 C 0.5429(3) 0.9196(3) 0.88648(12)
H21_6 H 0.5102 0.8781 0.8888
H22_6 H 0.5761 0.9210 0.9100
C33_6 C 0.5223(2) 0.8708(3) 0.81952(12)
H23_6 H 0.4860 0.9100 0.8154
H24_6 H 0.5406 0.8704 0.7972
C34_6 C 0.7187(3) 0.7208(3) 0.91294(13)
H25_6 H 0.6904 0.6959 0.8924
C35_6 C 0.7626(3) 0.6742(3) 0.93870(13)
H26_6 H 0.7631 0.6170 0.9352
H27_4 H 0.7165 0.3882 0.9978
H33_6 H 0.4314 0.9800 0.9811
C50_6 C 0.4700(2) 0.9777(3) 0.93561(12)
H34_6 H 0.4845 0.9229 0.9382
O15_4 O 0.7437(5) 0.9339(3) 0.16079(15)
O16_4 O 0.8442(6) 0.9665(5) 0.1867(3)
C53_6 C 0.7930(9) 0.9771(5) 0.1629(3)
S2_5 S 0.38550(9) 0.23900(9) 0.61992(4)
O9_5 O 0.4453(3) 0.2673(3) 0.61126(13)
O10_5 O 0.3914(3) 0.1913(3) 0.65369(11)
C36_5 C 0.3165(2) 0.0074(3) 0.51350(12)
C37_5 C 0.3041(3) 0.0862(3) 0.53291(13)
C38_5 C 0.2465(3) 0.1315(3) 0.51894(14)
H27_5 H 0.2165 0.1118 0.4978
C39_5 C 0.2326(3) 0.2049(3) 0.53546(14)
H28_5 H 0.1937 0.2338 0.5257
C40_5 C 0.2778(3) 0.2346(3) 0.56689(14)
C41_5 C 0.3356(3) 0.1889(3) 0.58039(14)
C42_5 C 0.3287(4) 0.3222(3) 0.61777(16)
C43_5 C 0.2741(4) 0.3115(3) 0.58832(16)
C44_5 C 0.2248(5) 0.3717(4) 0.58213(18)
H29_5 H 0.1876 0.3669 0.5624
C45_5 C 0.2332(5) 0.4402(4) 0.6068(2)
H30_5 H 0.2006 0.4807 0.6032
C46_5 C 0.2878(5) 0.4494(4) 0.63582(19)
C47_5 C 0.3375(5) 0.3890(4) 0.64182(18)
H31_5 H 0.3750 0.3939 0.6613
C48_5 C 0.3496(3) 0.1153(3) 0.56456(13)
H32_5 H 0.3881 0.0860 0.5746
C53_7 C 0.2930(9) 0.5229(5) 0.6629(3)
Zn1_4 Zn 0.37574(3) 0.86408(3) 0.50123(2)
S1_4 S 0.66802(8) 0.55790(10) 0.60717(5)
O1_4 O 0.6887(3) 0.5348(3) 0.57389(17)
O2_4 O 0.7102(2) 0.6120(3) 0.6340(2)
O3_7 O 0.17639(17) 0.6414(2) 0.39552(9)
O4_7 O 0.15138(17) 0.5658(2) 0.31733(9)
O6_7 O 0.01205(16) 0.5009(2) 0.37937(9)
O7_5 O 0.36653(16) 0.96404(19) 0.53028(8)
O8_7 O 0.27918(18) 0.9881(2) 0.48361(9)
O12_5 O 0.4163(3) 0.7809(3) 0.53895(12)
O13_4 O 0.5197(4) 0.8015(3) 0.52664(17)
N1_7 N 0.3052(2) 0.7927(2) 0.46878(10)
N4_7 N 0.2321(2) 0.4262(3) 0.24410(11)
C1_4 C 0.5864(3) 0.5972(3) 0.59550(15)
C2_5 C 0.4753(5) 0.7643(4) 0.5412(2)
C3_4 C 0.5014(3) 0.6886(4) 0.56697(16)
C4_4 C 0.5657(3) 0.6678(4) 0.57445(16)
H1_4 H 0.5959 0.7005 0.5656
C5_7 C 0.6438(3) 0.4692(3) 0.62927(14)
C6_7 C 0.5765(2) 0.4719(3) 0.62894(13)
C7_4 C 0.5430(3) 0.5455(3) 0.60940(14)
C8_5 C 0.4772(3) 0.5683(3) 0.60338(18)
H2_5 H 0.4474 0.5375 0.6135
C9_5 C 0.4568(3) 0.6392(4) 0.58164(19)
H3_5 H 0.4125 0.6544 0.5767
C10_7 C 0.5517(3) 0.4091(4) 0.64685(19)
H4_7 H 0.5078 0.4104 0.6488
C11_7 C 0.5918(3) 0.3437(4) 0.6621(2)
H5_7 H 0.5744 0.3018 0.6745
C12_7 C 0.6568(3) 0.3384(3) 0.65954(14)
C13_7 C 0.6841(3) 0.4033(3) 0.64332(15)
H6_7 H 0.7282 0.4025 0.6419
C14_7 C 0.7009(3) 0.2681(3) 0.67615(14)
C15_7 C 0.3039(2) 0.7097(3) 0.47296(13)
H7_7 H 0.3331 0.6860 0.4934
C16_7 C 0.2621(2) 0.6587(3) 0.44872(13)
H8_7 H 0.2633 0.6015 0.4524
C17_7 C 0.2175(2) 0.6941(3) 0.41829(13)
C18_7 C 0.1213(2) 0.6758(3) 0.36780(13)
H9_7 H 0.0988 0.7180 0.3793
H10_7 H 0.1367 0.7006 0.3470
C19_7 C 0.0751(2) 0.6032(3) 0.35389(12)
C20_7 C 0.1129(2) 0.5310(3) 0.34198(13)
H11_7 H 0.0826 0.4893 0.3288
H12_7 H 0.1414 0.5054 0.3639
C21_7 C 0.1771(2) 0.5161(3) 0.29457(13)
C22_7 C 0.1729(3) 0.4311(3) 0.29362(13)
H13_7 H 0.1518 0.4025 0.3098
C23_7 C 0.2008(3) 0.3894(3) 0.26802(15)
H14_7 H 0.1976 0.3318 0.2673
C29_7 C 0.2381(3) 0.5082(3) 0.24668(15)
H19_7 H 0.2611 0.5351 0.2310
C30_7 C 0.2123(3) 0.5549(3) 0.27107(15)
H20_7 H 0.2181 0.6121 0.2720
C31_7 C 0.0429(3) 0.5804(3) 0.38648(12)
H21_7 H 0.0102 0.6219 0.3888
H22_7 H 0.0761 0.5790 0.4100
C33_7 C 0.0223(2) 0.6292(3) 0.31952(12)
H24_7 H 0.0406 0.6296 0.2972
C34_7 C 0.2187(3) 0.7792(3) 0.41294(13)
H25_7 H 0.1904 0.8041 0.3924
C35_7 C 0.2626(3) 0.8258(3) 0.43870(13)
H26_7 H 0.2631 0.8830 0.4352
N5_4 N 0.3516(2) 0.3137(2) 0.24266(11)
N6_4 N 0.41719(19) 0.9092(3) 0.45943(10)
O5_7 O 0.99883(18) 0.7102(2) 0.32574(9)
N2_4 N 0.8516(2) 0.8137(2) 0.24266(11)
N3_4 N 0.91719(19) 0.4092(3) 0.45943(10)
C24_7 C 0.8737(2) 0.7384(3) 0.23882(12)
H15_7 H 0.8554 0.7100 0.2167
C25_7 C 0.9219(2) 0.6984(3) 0.26512(13)
H16_7 H 0.9343 0.6442 0.2613
C26_7 C 0.9512(3) 0.7417(3) 0.29741(13)
C27_7 C 0.9310(4) 0.8226(4) 0.30116(17)
H17_7 H 0.9506 0.8539 0.3222
C28_7 C 0.8816(4) 0.8563(4) 0.27332(17)
H18_7 H 0.8687 0.9109 0.2760
C32_7 C 0.9797(2) 0.4742(3) 0.40591(12)
H23_7 H 0.9860 0.5900 0.3154
C49_7 C 0.9384(2) 0.4872(3) 0.46128(13)
H33_7 H 0.9314 0.5200 0.4811
C50_7 C 0.9700(2) 0.5223(3) 0.43561(12)
H34_7 H 0.9845 0.5771 0.4382
C51_7 C 0.9568(3) 0.3941(3) 0.40314(15)
H35_7 H 0.9614 0.3610 0.3829
C52_7 C 0.9270(3) 0.3631(3) 0.43036(15)
H36_7 H 0.9130 0.3081 0.4286
Zn3_2 Zn 0.87574(3) 0.36408(3) 0.50123(2)
C5_8 C 0.1438(3) 0.9692(3) 0.62927(14)
C6_8 C 0.0765(2) 0.9719(3) 0.62894(13)
C10_8 C 0.0517(3) 0.9091(4) 0.64685(19)
H4_8 H 0.0078 0.9104 0.6488
C11_8 C 0.0918(3) 0.8437(4) 0.6621(2)
H5_8 H 0.0744 0.8018 0.6745
C12_8 C 0.1568(3) 0.8384(3) 0.65954(14)
C13_8 C 0.1841(3) 0.9033(3) 0.64332(15)
H6_8 H 0.2282 0.9025 0.6419
C14_8 C 0.2009(3) 0.7681(3) 0.67615(14)
C53_8 C 0.7930(9) 0.0229(5) 0.6629(3)
S2_6 S 0.88550(9) 0.73900(9) 0.61992(4)
O3_8 O 0.67639(17) 0.1414(2) 0.39552(9)
O4_8 O 0.65138(17) 0.0658(2) 0.31733(9)
O5_8 O 0.49883(18) 0.2102(2) 0.32574(9)
O6_8 O 0.51205(16) 0.0009(2) 0.37937(9)
O7_6 O 0.86653(16) 0.46404(19) 0.53028(8)
O8_8 O 0.77918(18) 0.4881(2) 0.48361(9)
O9_6 O 0.9453(3) 0.7673(3) 0.61126(13)
O10_6 O 0.8914(3) 0.6913(3) 0.65369(11)
O12_6 O 0.9163(3) 0.2809(3) 0.53895(12)
N1_8 N 0.8052(2) 0.2927(2) 0.46878(10)
C2_6 C 0.9753(5) 0.2643(4) 0.5412(2)
C8_6 C 0.9772(3) 0.0683(3) 0.60338(18)
H2_6 H 0.9474 0.0375 0.6135
C9_6 C 0.9568(3) 0.1392(4) 0.58164(19)
H3_6 H 0.9125 0.1544 0.5767
C15_8 C 0.8039(2) 0.2097(3) 0.47296(13)
H7_8 H 0.8331 0.1860 0.4934
C16_8 C 0.7621(2) 0.1587(3) 0.44872(13)
H8_8 H 0.7633 0.1015 0.4524
C17_8 C 0.7175(2) 0.1941(3) 0.41829(13)
C18_8 C 0.6213(2) 0.1758(3) 0.36780(13)
H9_8 H 0.5988 0.2180 0.3793
H10_8 H 0.6367 0.2006 0.3470
C19_8 C 0.5751(2) 0.1032(3) 0.35389(12)
C20_8 C 0.6129(2) 0.0310(3) 0.34198(13)
H12_8 H 0.6414 0.0054 0.3639
C21_8 C 0.6771(2) 0.0161(3) 0.29457(13)
C24_8 C 0.3737(2) 0.2384(3) 0.23882(12)
H15_8 H 0.3554 0.2100 0.2167
C25_8 C 0.4219(2) 0.1984(3) 0.26512(13)
H16_8 H 0.4343 0.1442 0.2613
C26_8 C 0.4512(3) 0.2417(3) 0.29741(13)
C27_8 C 0.4310(4) 0.3226(4) 0.30116(17)
H17_8 H 0.4506 0.3539 0.3222
C28_8 C 0.3816(4) 0.3563(4) 0.27332(17)
H18_8 H 0.3687 0.4109 0.2760
C29_8 C 0.7381(3) 0.0082(3) 0.24668(15)
H19_8 H 0.7611 0.0351 0.2310
C30_8 C 0.7123(3) 0.0549(3) 0.27107(15)
H20_8 H 0.7181 0.1121 0.2720
C31_8 C 0.5429(3) 0.0804(3) 0.38648(12)
H21_8 H 0.5102 0.1219 0.3888
H22_8 H 0.5761 0.0790 0.4100
C33_8 C 0.5223(2) 0.1292(3) 0.31952(12)
H23_8 H 0.4860 0.0900 0.3154
H24_8 H 0.5406 0.1296 0.2972
C34_8 C 0.7187(3) 0.2792(3) 0.41294(13)
H25_8 H 0.6904 0.3041 0.3924
C35_8 C 0.7626(3) 0.3258(3) 0.43870(13)
H26_8 H 0.7631 0.3830 0.4352
C36_6 C 0.8165(2) 0.5074(3) 0.51350(12)
C37_6 C 0.8041(3) 0.5862(3) 0.53291(13)
C38_6 C 0.7465(3) 0.6315(3) 0.51894(14)
H27_6 H 0.7165 0.6118 0.4978
C39_6 C 0.7326(3) 0.7049(3) 0.53546(14)
H28_6 H 0.6937 0.7338 0.5257
C40_6 C 0.7778(3) 0.7346(3) 0.56689(14)
C41_6 C 0.8356(3) 0.6889(3) 0.58039(14)
C42_6 C 0.8287(4) 0.8222(3) 0.61777(16)
C43_6 C 0.7741(4) 0.8115(3) 0.58832(16)
C44_6 C 0.7248(5) 0.8717(4) 0.58213(18)
H29_6 H 0.6876 0.8669 0.5624
C45_6 C 0.7332(5) 0.9402(4) 0.6068(2)
H30_6 H 0.7006 0.9807 0.6032
C46_6 C 0.7878(5) 0.9494(4) 0.63582(19)
C47_6 C 0.8375(5) 0.8890(4) 0.64182(18)
H31_6 H 0.8750 0.8939 0.6613
C48_6 C 0.8496(3) 0.6153(3) 0.56456(13)
H32_6 H 0.8881 0.5860 0.5746
H33_8 H 0.4314 0.0200 0.4811
C50_8 C 0.4700(2) 0.0223(3) 0.43561(12)
H34_8 H 0.4845 0.0771 0.4382
N4_8 N 0.7321(2) 0.9262(3) 0.24410(11)
H11_8 H 0.5826 0.9893 0.3288
C22_8 C 0.6729(3) 0.9311(3) 0.29362(13)
H13_8 H 0.6518 0.9025 0.3098
C23_8 C 0.7008(3) 0.8894(3) 0.26802(15)
H14_8 H 0.6976 0.8318 0.2673
C32_8 C 0.4797(2) 0.9742(3) 0.40591(12)
C49_8 C 0.4384(2) 0.9872(3) 0.46128(13)
C51_8 C 0.4568(3) 0.8941(3) 0.40314(15)
H35_8 H 0.4614 0.8610 0.3829
C52_8 C 0.4270(3) 0.8631(3) 0.43036(15)
H36_8 H 0.4130 0.8081 0.4286
H27_7 H 0.2165 0.8882 0.9978
Zn3_3 Zn 0.87574(3) 0.63592(3) 0.00123(2)
S2_7 S 0.88550(9) 0.26100(9) 0.11992(4)
O7_7 O 0.86653(16) 0.53596(19) 0.03028(8)
O9_7 O 0.9453(3) 0.2327(3) 0.11126(13)
O10_7 O 0.8914(3) 0.3087(3) 0.15369(11)
O12_7 O 0.9163(3) 0.7191(3) 0.03895(12)
C2_7 C 0.9753(5) 0.7357(4) 0.0412(2)
C8_7 C 0.9772(3) 0.9317(3) 0.10338(18)
H2_7 H 0.9474 0.9625 0.1135
C9_7 C 0.9568(3) 0.8608(4) 0.08164(19)
H3_7 H 0.9125 0.8456 0.0767
C36_7 C 0.8165(2) 0.4926(3) 0.01350(12)
C37_7 C 0.8041(3) 0.4138(3) 0.03291(13)
C38_7 C 0.7465(3) 0.3685(3) 0.01894(14)
C39_7 C 0.7326(3) 0.2951(3) 0.03546(14)
H28_7 H 0.6937 0.2662 0.0257
C40_7 C 0.7778(3) 0.2654(3) 0.06689(14)
C41_7 C 0.8356(3) 0.3111(3) 0.08039(14)
C42_7 C 0.8287(4) 0.1778(3) 0.11777(16)
C43_7 C 0.7741(4) 0.1885(3) 0.08832(16)
C44_7 C 0.7248(5) 0.1283(4) 0.08213(18)
H29_7 H 0.6876 0.1331 0.0624
C45_7 C 0.7332(5) 0.0598(4) 0.1068(2)
H30_7 H 0.7006 0.0193 0.1032
C46_7 C 0.7878(5) 0.0506(4) 0.13582(19)
C47_7 C 0.8375(5) 0.1110(4) 0.14182(18)
H31_7 H 0.8750 0.1061 0.1613
C48_7 C 0.8496(3) 0.3847(3) 0.06456(13)
H32_7 H 0.8881 0.4140 0.0746
S1_5 S 0.83198(8) 0.94210(10) 0.39283(5)
O1_5 O 0.8113(3) 0.9652(3) 0.42611(17)
O2_5 O 0.7898(2) 0.8880(3) 0.3660(2)
O13_5 O 0.9803(4) 0.6985(3) 0.47336(17)
C1_5 C 0.9136(3) 0.9028(3) 0.40450(15)
C3_5 C 0.9986(3) 0.8114(4) 0.43303(16)
C4_5 C 0.9343(3) 0.8322(4) 0.42555(16)
H1_5 H 0.9041 0.7995 0.4344
C7_5 C 0.9570(3) 0.9545(3) 0.39060(14)
S1_6 S 0.16802(8) 0.94210(10) 0.10717(5)
O1_6 O 0.1887(3) 0.9652(3) 0.07389(17)
O2_6 O 0.2102(2) 0.8880(3) 0.1340(2)
O13_6 O 0.0197(4) 0.6985(3) 0.02664(17)
C1_6 C 0.0864(3) 0.9028(3) 0.09550(15)
C3_6 C 0.0014(3) 0.8114(4) 0.06697(16)
C4_6 C 0.0657(3) 0.8322(4) 0.07445(16)
H1_6 H 0.0959 0.7995 0.0656
C7_6 C 0.0430(3) 0.9545(3) 0.10940(14)
Zn3_4 Zn 0.12426(3) 0.36408(3) 0.99877(2)
S2_8 S 0.11450(9) 0.73900(9) 0.88008(4)
O7_8 O 0.13347(16) 0.46404(19) 0.96972(8)
O9_8 O 0.0547(3) 0.7673(3) 0.88874(13)
O10_8 O 0.1086(3) 0.6913(3) 0.84631(11)
O12_8 O 0.0837(3) 0.2809(3) 0.96105(12)
C2_8 C 0.0247(5) 0.2643(4) 0.9588(2)
C8_8 C 0.0228(3) 0.0683(3) 0.89662(18)
H2_8 H 0.0526 0.0375 0.8865
C9_8 C 0.0432(3) 0.1392(4) 0.91836(19)
H3_8 H 0.0875 0.1544 0.9233
C36_8 C 0.1835(2) 0.5074(3) 0.98650(12)
C37_8 C 0.1959(3) 0.5862(3) 0.96709(13)
C38_8 C 0.2535(3) 0.6315(3) 0.98106(14)
C39_8 C 0.2674(3) 0.7049(3) 0.96454(14)
H28_8 H 0.3063 0.7338 0.9743
C40_8 C 0.2222(3) 0.7346(3) 0.93311(14)
C41_8 C 0.1644(3) 0.6889(3) 0.91961(14)
C42_8 C 0.1713(4) 0.8222(3) 0.88223(16)
C43_8 C 0.2259(4) 0.8115(3) 0.91168(16)
C44_8 C 0.2752(5) 0.8717(4) 0.91787(18)
H29_8 H 0.3124 0.8669 0.9376
C45_8 C 0.2668(5) 0.9402(4) 0.8932(2)
H30_8 H 0.2994 0.9807 0.8968
C46_8 C 0.2122(5) 0.9494(4) 0.86418(19)
C47_8 C 0.1625(5) 0.8890(4) 0.85818(18)
H31_8 H 0.1250 0.8939 0.8387
C48_8 C 0.1504(3) 0.6153(3) 0.93544(13)
H32_8 H 0.1119 0.5860 0.9254
H27_8 H 0.7835 0.1118 0.0022
S1_7 S 0.16802(8) 0.05790(10) 0.60717(5)
O1_7 O 0.1887(3) 0.0348(3) 0.57389(17)
O2_7 O 0.2102(2) 0.1120(3) 0.6340(2)
O13_7 O 0.0197(4) 0.3015(3) 0.52664(17)
C1_7 C 0.0864(3) 0.0972(3) 0.59550(15)
C3_7 C 0.0014(3) 0.1886(4) 0.56697(16)
C4_7 C 0.0657(3) 0.1678(4) 0.57445(16)
H1_7 H 0.0959 0.2005 0.5656
C7_7 C 0.0430(3) 0.0455(3) 0.60940(14)
S1_8 S 0.83198(8) 0.05790(10) 0.89283(5)
O1_8 O 0.8113(3) 0.0348(3) 0.92611(17)
O2_8 O 0.7898(2) 0.1120(3) 0.8660(2)
O13_8 O 0.9803(4) 0.3015(3) 0.97336(17)
C1_8 C 0.9136(3) 0.0972(3) 0.90450(15)
C3_8 C 0.9986(3) 0.1886(4) 0.93303(16)
C4_8 C 0.9343(3) 0.1678(4) 0.92555(16)
H1_8 H 0.9041 0.2005 0.9344
C7_8 C 0.9570(3) 0.0455(3) 0.89060(14)
loop_
_geom_bond_atom_site_label_1
_geom_bond_atom_site_label_2
_geom_bond_site_symmetry_1
_geom_bond_site_symmetry_2
O5 C26 1_555 1_555
N2 C24 1_555 1_555
N3 C49 1_555 1_555
C24 H15 1_555 1_555
C25 C24 1_555 1_555
H16 C25 1_555 1_555
C26 C25 1_555 1_555
C27 C26 1_555 1_555
H17 C27 1_555 1_555
C28 N2 1_555 1_555
H18 C28 1_555 1_555
C49 H33 1_555 1_555
C50 C32 1_555 1_555
H34 C50 1_555 1_555
C51 C32 1_555 1_555
H35 C51 1_555 1_555
C52 N3 1_555 1_555
H36 C52 1_555 1_555
Zn3 N3 1_555 1_555
Zn4 N2 1_555 1_555
C27 C28 1_555 1_555
C49 C50 1_555 1_555
C51 C52 1_555 1_555
Zn1 O7 1_555 1_555
Zn2 N4 1_555 1_555
S1 O1 1_555 1_555
O2 S1 1_555 1_555
O3 C17 1_555 1_555
O4 C20 1_555 1_555
O6 C31 1_555 1_555
O11 C14 1_555 1_555
O12 Zn1 1_555 1_555
O13 C2 1_555 1_555
O14 C14 1_555 1_555
N1 Zn1 1_555 1_555
N4 C23 1_555 1_555
C1 S1 1_555 1_555
C2 O12 1_555 1_555
C3 C2 1_555 1_555
C4 C1 1_555 1_555
H1 C4 1_555 1_555
C5 S1 1_555 1_555
C6 C5 1_555 1_555
C7 C1 1_555 1_555
C8 C7 1_555 1_555
H2 C8 1_555 1_555
C9 C3 1_555 1_555
H3 C9 1_555 1_555
C10 C6 1_555 1_555
H4 C10 1_555 1_555
C11 C10 1_555 1_555
H5 C11 1_555 1_555
C12 C11 1_555 1_555
C13 C5 1_555 1_555
H6 C13 1_555 1_555
C14 C12 1_555 1_555
C15 N1 1_555 1_555
H7 C15 1_555 1_555
C16 C15 1_555 1_555
H8 C16 1_555 1_555
C17 C16 1_555 1_555
C18 O3 1_555 1_555
H9 C18 1_555 1_555
H10 C18 1_555 1_555
C19 C18 1_555 1_555
C20 C19 1_555 1_555
H11 C20 1_555 1_555
H12 C20 1_555 1_555
C21 O4 1_555 1_555
C22 C21 1_555 1_555
H13 C22 1_555 1_555
C23 C22 1_555 1_555
H14 C23 1_555 1_555
C29 N4 1_555 1_555
H19 C29 1_555 1_555
C30 C21 1_555 1_555
H20 C30 1_555 1_555
C31 C19 1_555 1_555
H21 C31 1_555 1_555
H22 C31 1_555 1_555
H24 C33 1_555 1_555
C34 C17 1_555 1_555
H25 C34 1_555 1_555
C35 N1 1_555 1_555
H26 C35 1_555 1_555
Zn6 O11 1_555 1_555
O17 Zn2 1_555 1_555
O18 Zn2 1_555 1_555
O19 Zn2 1_555 1_555
O20 Zn2 1_555 1_555
N5 Zn2 1_555 1_555
N6 Zn1 1_555 1_555
O14 Zn6 1_555 1_555
C3 C4 1_555 1_555
C6 C7 1_555 1_555
C8 C9 1_555 1_555
C12 C13 1_555 1_555
C19 C33 1_555 1_555
C29 C30 1_555 1_555
C34 C35 1_555 1_555
S2 O9 1_555 1_555
O10 S2 1_555 1_555
O15 C53 1_555 1_555
O16 C53 1_555 1_555
C36 C37 1_555 1_555
C37 C38 1_555 1_555
C38 H27 1_555 1_555
C39 C38 1_555 1_555
H28 C39 1_555 1_555
C40 C39 1_555 1_555
C41 S2 1_555 1_555
C42 S2 1_555 1_555
C43 C40 1_555 1_555
C44 C43 1_555 1_555
H29 C44 1_555 1_555
C45 C44 1_555 1_555
H30 C45 1_555 1_555
C46 C45 1_555 1_555
C47 C42 1_555 1_555
H31 C47 1_555 1_555
C48 C37 1_555 1_555
H32 C48 1_555 1_555
C53 C46 1_555 1_555
Zn5 O15 1_555 1_555
O16 Zn5 1_555 1_555
C40 C41 1_555 1_555
C41 C48 1_555 1_555
C42 C43 1_555 1_555
C46 C47 1_555 1_555
Zn4 N4_2 1_555 1_555
N6 C49_2 1_555 1_555
N4_2 C23_2 1_555 1_555
H13_2 C22_2 1_555 1_555
C23_2 C22_2 1_555 1_555
H14_2 C23_2 1_555 1_555
C51_2 C32_2 1_555 1_555
H35_2 C51_2 1_555 1_555
C52_2 N6 1_555 1_555
H36_2 C52_2 1_555 1_555
O17_2 Zn4 1_555 1_555
O18_2 Zn4 1_555 1_555
O19_2 Zn4 1_555 1_555
O20_2 Zn4 1_555 1_555
C51_2 C52_2 1_555 1_555
Zn3 O7_2 1_555 1_555
S2_2 O9_2 1_555 1_555
O3_2 C17_2 1_555 1_555
O4_2 C20_2 1_555 1_555
O5_2 C26_2 1_555 1_555
O6_2 C31_2 1_555 1_555
O7_2 C36_2 1_555 1_555
O8_2 C36_2 1_555 1_555
O10_2 S2_2 1_555 1_555
O12_2 Zn3 1_555 1_555
N1_2 Zn3 1_555 1_555
N5 C24_2 1_555 1_555
C2_2 O12_2 1_555 1_555
H2_2 C8_2 1_555 1_555
H3_2 C9_2 1_555 1_555
C15_2 N1_2 1_555 1_555
H7_2 C15_2 1_555 1_555
C16_2 C15_2 1_555 1_555
H8_2 C16_2 1_555 1_555
C17_2 C16_2 1_555 1_555
C18_2 O3_2 1_555 1_555
H9_2 C18_2 1_555 1_555
H10_2 C18_2 1_555 1_555
C19_2 C18_2 1_555 1_555
C20_2 C19_2 1_555 1_555
H12_2 C20_2 1_555 1_555
C21_2 O4_2 1_555 1_555
C24_2 H15_2 1_555 1_555
C25_2 C24_2 1_555 1_555
H16_2 C25_2 1_555 1_555
C26_2 C25_2 1_555 1_555
C27_2 C26_2 1_555 1_555
H17_2 C27_2 1_555 1_555
C28_2 N5 1_555 1_555
H18_2 C28_2 1_555 1_555
H19_2 C29_2 1_555 1_555
C30_2 C21_2 1_555 1_555
H20_2 C30_2 1_555 1_555
C31_2 C19_2 1_555 1_555
H21_2 C31_2 1_555 1_555
H22_2 C31_2 1_555 1_555
C33_2 O5_2 1_555 1_555
H23_2 C33_2 1_555 1_555
H24_2 C33_2 1_555 1_555
C34_2 C17_2 1_555 1_555
H25_2 C34_2 1_555 1_555
C35_2 N1_2 1_555 1_555
H26_2 C35_2 1_555 1_555
C36_2 C37_2 1_555 1_555
C37_2 C38_2 1_555 1_555
C38_2 H27_2 1_555 1_555
C39_2 C38_2 1_555 1_555
H28_2 C39_2 1_555 1_555
C40_2 C39_2 1_555 1_555
C41_2 S2_2 1_555 1_555
C42_2 S2_2 1_555 1_555
C43_2 C40_2 1_555 1_555
C44_2 C43_2 1_555 1_555
H29_2 C44_2 1_555 1_555
C45_2 C44_2 1_555 1_555
H30_2 C45_2 1_555 1_555
C46_2 C45_2 1_555 1_555
C47_2 C42_2 1_555 1_555
H31_2 C47_2 1_555 1_555
C48_2 C37_2 1_555 1_555
H32_2 C48_2 1_555 1_555
H34_2 C50_2 1_555 1_555
C8_2 C9_2 1_555 1_555
C19_2 C33_2 1_555 1_555
C27_2 C28_2 1_555 1_555
C29_2 C30_2 1_555 1_555
C34_2 C35_2 1_555 1_555
C40_2 C41_2 1_555 1_555
C41_2 C48_2 1_555 1_555
C42_2 C43_2 1_555 1_555
C46_2 C47_2 1_555 1_555
O15_2 C53_2 1_555 1_555
O16_2 C53_2 1_555 1_555
Zn6 O15_2 1_555 1_555
O16_2 Zn6 1_555 1_555
O11_2 C14_2 1_555 1_555
O14_2 C14_2 1_555 1_555
C6_2 C5_2 1_555 1_555
C10_2 C6_2 1_555 1_555
H4_2 C10_2 1_555 1_555
C11_2 C10_2 1_555 1_555
H5_2 C11_2 1_555 1_555
C12_2 C11_2 1_555 1_555
C13_2 C5_2 1_555 1_555
H6_2 C13_2 1_555 1_555
C14_2 C12_2 1_555 1_555
Zn5 O11_2 1_555 1_555
O14_2 Zn5 1_555 1_555
C12_2 C13_2 1_555 1_555
O5_3 C26_3 1_555 1_555
N2_2 C24_3 1_555 1_555
N3_2 C49_3 1_555 1_555
C24_3 H15_3 1_555 1_555
C25_3 C24_3 1_555 1_555
H16_3 C25_3 1_555 1_555
C26_3 C25_3 1_555 1_555
C27_3 C26_3 1_555 1_555
H17_3 C27_3 1_555 1_555
C28_3 N2_2 1_555 1_555
H18_3 C28_3 1_555 1_555
C49_3 H33_3 1_555 1_555
C50_3 C32_3 1_555 1_555
H34_3 C50_3 1_555 1_555
C51_3 C32_3 1_555 1_555
H35_3 C51_3 1_555 1_555
C52_3 N3_2 1_555 1_555
H36_3 C52_3 1_555 1_555
Zn6 N2_2 1_555 1_555
C27_3 C28_3 1_555 1_555
C49_3 C50_3 1_555 1_555
C51_3 C52_3 1_555 1_555
S2_3 O9_3 1_555 1_555
O10_3 S2_3 1_555 1_555
O19 C53_3 1_555 1_555
O20 C53_3 1_555 1_555
C36_3 C37_3 1_555 1_555
C37_3 C38_3 1_555 1_555
C39_3 C38_3 1_555 1_555
H28_3 C39_3 1_555 1_555
C40_3 C39_3 1_555 1_555
C41_3 S2_3 1_555 1_555
C42_3 S2_3 1_555 1_555
C43_3 C40_3 1_555 1_555
C44_3 C43_3 1_555 1_555
H29_3 C44_3 1_555 1_555
C45_3 C44_3 1_555 1_555
H30_3 C45_3 1_555 1_555
C46_3 C45_3 1_555 1_555
C47_3 C42_3 1_555 1_555
H31_3 C47_3 1_555 1_555
C48_3 C37_3 1_555 1_555
H32_3 C48_3 1_555 1_555
C53_3 C46_3 1_555 1_555
C40_3 C41_3 1_555 1_555
C41_3 C48_3 1_555 1_555
C42_3 C43_3 1_555 1_555
C46_3 C47_3 1_555 1_555
Zn5 N4_3 1_555 1_555
O3_3 C17_3 1_555 1_555
O4_3 C20_3 1_555 1_555
O6_3 C31_3 1_555 1_555
N4_3 C23_3 1_555 1_555
C15_3 N1_3 1_555 1_555
H7_3 C15_3 1_555 1_555
C16_3 C15_3 1_555 1_555
H8_3 C16_3 1_555 1_555
C17_3 C16_3 1_555 1_555
C18_3 O3_3 1_555 1_555
H9_3 C18_3 1_555 1_555
H10_3 C18_3 1_555 1_555
C19_3 C18_3 1_555 1_555
C20_3 C19_3 1_555 1_555
H11_3 C20_3 1_555 1_555
H12_3 C20_3 1_555 1_555
C21_3 O4_3 1_555 1_555
C22_3 C21_3 1_555 1_555
H13_3 C22_3 1_555 1_555
C23_3 C22_3 1_555 1_555
H14_3 C23_3 1_555 1_555
C29_3 N4_3 1_555 1_555
H19_3 C29_3 1_555 1_555
C30_3 C21_3 1_555 1_555
H20_3 C30_3 1_555 1_555
C31_3 C19_3 1_555 1_555
H21_3 C31_3 1_555 1_555
H22_3 C31_3 1_555 1_555
H24_3 C33_3 1_555 1_555
C34_3 C17_3 1_555 1_555
H25_3 C34_3 1_555 1_555
C35_3 N1_3 1_555 1_555
H26_3 C35_3 1_555 1_555
N5_2 Zn5 1_555 1_555
C19_3 C33_3 1_555 1_555
C29_3 C30_3 1_555 1_555
C34_3 C35_3 1_555 1_555
Zn1_2 O7_3 1_555 1_555
S1_2 O1_2 1_555 1_555
O2_2 S1_2 1_555 1_555
O17_2 C14_3 1_555 1_555
O12_3 Zn1_2 1_555 1_555
O13_2 C2_3 1_555 1_555
O18_2 C14_3 1_555 1_555
C1_2 S1_2 1_555 1_555
C2_3 O12_3 1_555 1_555
C3_2 C2_3 1_555 1_555
C4_2 C1_2 1_555 1_555
H1_2 C4_2 1_555 1_555
C5_3 S1_2 1_555 1_555
C6_3 C5_3 1_555 1_555
C7_2 C1_2 1_555 1_555
C8_3 C7_2 1_555 1_555
H2_3 C8_3 1_555 1_555
C9_3 C3_2 1_555 1_555
H3_3 C9_3 1_555 1_555
C10_3 C6_3 1_555 1_555
H4_3 C10_3 1_555 1_555
C11_3 C10_3 1_555 1_555
H5_3 C11_3 1_555 1_555
C12_3 C11_3 1_555 1_555
C13_3 C5_3 1_555 1_555
H6_3 C13_3 1_555 1_555
C14_3 C12_3 1_555 1_555
C3_2 C4_2 1_555 1_555
C6_3 C7_2 1_555 1_555
C8_3 C9_3 1_555 1_555
C12_3 C13_3 1_555 1_555
O19_2 C53_4 1_555 1_555
O20_2 C53_4 1_555 1_555
O3_4 C17_4 1_555 1_555
O4_4 C20_4 1_555 1_555
O5_4 C26_4 1_555 1_555
O6_4 C31_4 1_555 1_555
N5_2 C24_4 1_555 1_555
C15_4 N1_4 1_555 1_555
H7_4 C15_4 1_555 1_555
C16_4 C15_4 1_555 1_555
H8_4 C16_4 1_555 1_555
C17_4 C16_4 1_555 1_555
C18_4 O3_4 1_555 1_555
H9_4 C18_4 1_555 1_555
H10_4 C18_4 1_555 1_555
C19_4 C18_4 1_555 1_555
C20_4 C19_4 1_555 1_555
H12_4 C20_4 1_555 1_555
C21_4 O4_4 1_555 1_555
C24_4 H15_4 1_555 1_555
C25_4 C24_4 1_555 1_555
H16_4 C25_4 1_555 1_555
C26_4 C25_4 1_555 1_555
C27_4 C26_4 1_555 1_555
H17_4 C27_4 1_555 1_555
C28_4 N5_2 1_555 1_555
H18_4 C28_4 1_555 1_555
H19_4 C29_4 1_555 1_555
C30_4 C21_4 1_555 1_555
H20_4 C30_4 1_555 1_555
C31_4 C19_4 1_555 1_555
H21_4 C31_4 1_555 1_555
H22_4 C31_4 1_555 1_555
C33_4 O5_4 1_555 1_555
H23_4 C33_4 1_555 1_555
H24_4 C33_4 1_555 1_555
C34_4 C17_4 1_555 1_555
H25_4 C34_4 1_555 1_555
C35_4 N1_4 1_555 1_555
H26_4 C35_4 1_555 1_555
H34_4 C50_4 1_555 1_555
C19_4 C33_4 1_555 1_555
C27_4 C28_4 1_555 1_555
C29_4 C30_4 1_555 1_555
C34_4 C35_4 1_555 1_555
Zn6 N4_4 1_555 1_555
N6_2 C49_4 1_555 1_555
N4_4 C23_4 1_555 1_555
H13_4 C22_4 1_555 1_555
C23_4 C22_4 1_555 1_555
H14_4 C23_4 1_555 1_555
C51_4 C32_4 1_555 1_555
H35_4 C51_4 1_555 1_555
C52_4 N6_2 1_555 1_555
H36_4 C52_4 1_555 1_555
C51_4 C52_4 1_555 1_555
O17 C14_4 1_555 1_555
O18 C14_4 1_555 1_555
C6_4 C5_4 1_555 1_555
C10_4 C6_4 1_555 1_555
H4_4 C10_4 1_555 1_555
C11_4 C10_4 1_555 1_555
H5_4 C11_4 1_555 1_555
C12_4 C11_4 1_555 1_555
C13_4 C5_4 1_555 1_555
H6_4 C13_4 1_555 1_555
C14_4 C12_4 1_555 1_555
C12_4 C13_4 1_555 1_555
Zn1_3 O7_4 1_555 1_555
S1_3 O1_3 1_555 1_555
O2_3 S1_3 1_555 1_555
O11_3 C14_5 1_555 1_555
O12_4 Zn1_3 1_555 1_555
O13_3 C2_4 1_555 1_555
O14_3 C14_5 1_555 1_555
C1_3 S1_3 1_555 1_555
C2_4 O12_4 1_555 1_555
C3_3 C2_4 1_555 1_555
C4_3 C1_3 1_555 1_555
H1_3 C4_3 1_555 1_555
C5_5 S1_3 1_555 1_555
C6_5 C5_5 1_555 1_555
C7_3 C1_3 1_555 1_555
C8_4 C7_3 1_555 1_555
H2_4 C8_4 1_555 1_555
C9_4 C3_3 1_555 1_555
H3_4 C9_4 1_555 1_555
C10_5 C6_5 1_555 1_555
H4_5 C10_5 1_555 1_555
C11_5 C10_5 1_555 1_555
H5_5 C11_5 1_555 1_555
C12_5 C11_5 1_555 1_555
C13_5 C5_5 1_555 1_555
H6_5 C13_5 1_555 1_555
C14_5 C12_5 1_555 1_555
Zn6_2 O11_3 1_555 1_555
O14_3 Zn6_2 1_555 1_555
C3_3 C4_3 1_555 1_555
C6_5 C7_3 1_555 1_555
C8_4 C9_4 1_555 1_555
C12_5 C13_5 1_555 1_555
Zn2_2 N4_5 1_555 1_555
O3_5 C17_5 1_555 1_555
O4_5 C20_5 1_555 1_555
O6_5 C31_5 1_555 1_555
N4_5 C23_5 1_555 1_555
C15_5 N1_5 1_555 1_555
H7_5 C15_5 1_555 1_555
C16_5 C15_5 1_555 1_555
H8_5 C16_5 1_555 1_555
C17_5 C16_5 1_555 1_555
C18_5 O3_5 1_555 1_555
H9_5 C18_5 1_555 1_555
H10_5 C18_5 1_555 1_555
C19_5 C18_5 1_555 1_555
C20_5 C19_5 1_555 1_555
H11_5 C20_5 1_555 1_555
H12_5 C20_5 1_555 1_555
C21_5 O4_5 1_555 1_555
C22_5 C21_5 1_555 1_555
H13_5 C22_5 1_555 1_555
C23_5 C22_5 1_555 1_555
H14_5 C23_5 1_555 1_555
C29_5 N4_5 1_555 1_555
H19_5 C29_5 1_555 1_555
C30_5 C21_5 1_555 1_555
H20_5 C30_5 1_555 1_555
C31_5 C19_5 1_555 1_555
H21_5 C31_5 1_555 1_555
H22_5 C31_5 1_555 1_555
H24_5 C33_5 1_555 1_555
C34_5 C17_5 1_555 1_555
H25_5 C34_5 1_555 1_555
C35_5 N1_5 1_555 1_555
H26_5 C35_5 1_555 1_555
O17_3 Zn2_2 1_555 1_555
O18_3 Zn2_2 1_555 1_555
O19_3 Zn2_2 1_555 1_555
O20_3 Zn2_2 1_555 1_555
N5_3 Zn2_2 1_555 1_555
C19_5 C33_5 1_555 1_555
C29_5 C30_5 1_555 1_555
C34_5 C35_5 1_555 1_555
S2_4 O9_4 1_555 1_555
O10_4 S2_4 1_555 1_555
O15_3 C53_5 1_555 1_555
O16_3 C53_5 1_555 1_555
C36_4 C37_4 1_555 1_555
C37_4 C38_4 1_555 1_555
C39_4 C38_4 1_555 1_555
H28_4 C39_4 1_555 1_555
C40_4 C39_4 1_555 1_555
C41_4 S2_4 1_555 1_555
C42_4 S2_4 1_555 1_555
C43_4 C40_4 1_555 1_555
C44_4 C43_4 1_555 1_555
H29_4 C44_4 1_555 1_555
C45_4 C44_4 1_555 1_555
H30_4 C45_4 1_555 1_555
C46_4 C45_4 1_555 1_555
C47_4 C42_4 1_555 1_555
H31_4 C47_4 1_555 1_555
C48_4 C37_4 1_555 1_555
H32_4 C48_4 1_555 1_555
C53_5 C46_4 1_555 1_555
Zn5_2 O15_3 1_555 1_555
O16_3 Zn5_2 1_555 1_555
C40_4 C41_4 1_555 1_555
C41_4 C48_4 1_555 1_555
C42_4 C43_4 1_555 1_555
C46_4 C47_4 1_555 1_555
O5_5 C26_5 1_555 1_555
N2_3 C24_5 1_555 1_555
N3_3 C49_5 1_555 1_555
C24_5 H15_5 1_555 1_555
C25_5 C24_5 1_555 1_555
H16_5 C25_5 1_555 1_555
C26_5 C25_5 1_555 1_555
C27_5 C26_5 1_555 1_555
H17_5 C27_5 1_555 1_555
C28_5 N2_3 1_555 1_555
H18_5 C28_5 1_555 1_555
C49_5 H33_5 1_555 1_555
C50_5 C32_5 1_555 1_555
H34_5 C50_5 1_555 1_555
C51_5 C32_5 1_555 1_555
H35_5 C51_5 1_555 1_555
C52_5 N3_3 1_555 1_555
H36_5 C52_5 1_555 1_555
Zn4_2 N2_3 1_555 1_555
C27_5 C28_5 1_555 1_555
C49_5 C50_5 1_555 1_555
C51_5 C52_5 1_555 1_555
O11_4 C14_6 1_555 1_555
O14_4 C14_6 1_555 1_555
C6_6 C5_6 1_555 1_555
C10_6 C6_6 1_555 1_555
H4_6 C10_6 1_555 1_555
C11_6 C10_6 1_555 1_555
H5_6 C11_6 1_555 1_555
C12_6 C11_6 1_555 1_555
C13_6 C5_6 1_555 1_555
H6_6 C13_6 1_555 1_555
C14_6 C12_6 1_555 1_555
Zn5_2 O11_4 1_555 1_555
O14_4 Zn5_2 1_555 1_555
C12_6 C13_6 1_555 1_555
Zn4_2 N4_6 1_555 1_555
N6_3 C49_6 1_555 1_555
N4_6 C23_6 1_555 1_555
H13_6 C22_6 1_555 1_555
C23_6 C22_6 1_555 1_555
H14_6 C23_6 1_555 1_555
C51_6 C32_6 1_555 1_555
H35_6 C51_6 1_555 1_555
C52_6 N6_3 1_555 1_555
H36_6 C52_6 1_555 1_555
O17_4 Zn4_2 1_555 1_555
O18_4 Zn4_2 1_555 1_555
O19_4 Zn4_2 1_555 1_555
O20_4 Zn4_2 1_555 1_555
C51_6 C52_6 1_555 1_555
O3_6 C17_6 1_555 1_555
O4_6 C20_6 1_555 1_555
O5_6 C26_6 1_555 1_555
O6_6 C31_6 1_555 1_555
N5_3 C24_6 1_555 1_555
C15_6 N1_6 1_555 1_555
H7_6 C15_6 1_555 1_555
C16_6 C15_6 1_555 1_555
H8_6 C16_6 1_555 1_555
C17_6 C16_6 1_555 1_555
C18_6 O3_6 1_555 1_555
H9_6 C18_6 1_555 1_555
H10_6 C18_6 1_555 1_555
C19_6 C18_6 1_555 1_555
C20_6 C19_6 1_555 1_555
H12_6 C20_6 1_555 1_555
C21_6 O4_6 1_555 1_555
C24_6 H15_6 1_555 1_555
C25_6 C24_6 1_555 1_555
H16_6 C25_6 1_555 1_555
C26_6 C25_6 1_555 1_555
C27_6 C26_6 1_555 1_555
H17_6 C27_6 1_555 1_555
C28_6 N5_3 1_555 1_555
H18_6 C28_6 1_555 1_555
H19_6 C29_6 1_555 1_555
C30_6 C21_6 1_555 1_555
H20_6 C30_6 1_555 1_555
C31_6 C19_6 1_555 1_555
H21_6 C31_6 1_555 1_555
H22_6 C31_6 1_555 1_555
C33_6 O5_6 1_555 1_555
H23_6 C33_6 1_555 1_555
H24_6 C33_6 1_555 1_555
C34_6 C17_6 1_555 1_555
H25_6 C34_6 1_555 1_555
C35_6 N1_6 1_555 1_555
H26_6 C35_6 1_555 1_555
H34_6 C50_6 1_555 1_555
C19_6 C33_6 1_555 1_555
C27_6 C28_6 1_555 1_555
C29_6 C30_6 1_555 1_555
C34_6 C35_6 1_555 1_555
O15_4 C53_6 1_555 1_555
O16_4 C53_6 1_555 1_555
Zn6_2 O15_4 1_555 1_555
O16_4 Zn6_2 1_555 1_555
S2_5 O9_5 1_555 1_555
O10_5 S2_5 1_555 1_555
O19_3 C53_7 1_555 1_555
O20_3 C53_7 1_555 1_555
C36_5 C37_5 1_555 1_555
C37_5 C38_5 1_555 1_555
C38_5 H27_5 1_555 1_555
C39_5 C38_5 1_555 1_555
H28_5 C39_5 1_555 1_555
C40_5 C39_5 1_555 1_555
C41_5 S2_5 1_555 1_555
C42_5 S2_5 1_555 1_555
C43_5 C40_5 1_555 1_555
C44_5 C43_5 1_555 1_555
H29_5 C44_5 1_555 1_555
C45_5 C44_5 1_555 1_555
H30_5 C45_5 1_555 1_555
C46_5 C45_5 1_555 1_555
C47_5 C42_5 1_555 1_555
H31_5 C47_5 1_555 1_555
C48_5 C37_5 1_555 1_555
H32_5 C48_5 1_555 1_555
C53_7 C46_5 1_555 1_555
C40_5 C41_5 1_555 1_555
C41_5 C48_5 1_555 1_555
C42_5 C43_5 1_555 1_555
C46_5 C47_5 1_555 1_555
Zn1_4 O7_5 1_555 1_555
Zn5_2 N4_7 1_555 1_555
S1_4 O1_4 1_555 1_555
O2_4 S1_4 1_555 1_555
O3_7 C17_7 1_555 1_555
O4_7 C20_7 1_555 1_555
O6_7 C31_7 1_555 1_555
O17_4 C14_7 1_555 1_555
O12_5 Zn1_4 1_555 1_555
O13_4 C2_5 1_555 1_555
O18_4 C14_7 1_555 1_555
N1_7 Zn1_4 1_555 1_555
N4_7 C23_7 1_555 1_555
C1_4 S1_4 1_555 1_555
C2_5 O12_5 1_555 1_555
C3_4 C2_5 1_555 1_555
C4_4 C1_4 1_555 1_555
H1_4 C4_4 1_555 1_555
C5_7 S1_4 1_555 1_555
C6_7 C5_7 1_555 1_555
C7_4 C1_4 1_555 1_555
C8_5 C7_4 1_555 1_555
H2_5 C8_5 1_555 1_555
C9_5 C3_4 1_555 1_555
H3_5 C9_5 1_555 1_555
C10_7 C6_7 1_555 1_555
H4_7 C10_7 1_555 1_555
C11_7 C10_7 1_555 1_555
H5_7 C11_7 1_555 1_555
C12_7 C11_7 1_555 1_555
C13_7 C5_7 1_555 1_555
H6_7 C13_7 1_555 1_555
C14_7 C12_7 1_555 1_555
C15_7 N1_7 1_555 1_555
H7_7 C15_7 1_555 1_555
C16_7 C15_7 1_555 1_555
H8_7 C16_7 1_555 1_555
C17_7 C16_7 1_555 1_555
C18_7 O3_7 1_555 1_555
H9_7 C18_7 1_555 1_555
H10_7 C18_7 1_555 1_555
C19_7 C18_7 1_555 1_555
C20_7 C19_7 1_555 1_555
H11_7 C20_7 1_555 1_555
H12_7 C20_7 1_555 1_555
C21_7 O4_7 1_555 1_555
C22_7 C21_7 1_555 1_555
H13_7 C22_7 1_555 1_555
C23_7 C22_7 1_555 1_555
H14_7 C23_7 1_555 1_555
C29_7 N4_7 1_555 1_555
H19_7 C29_7 1_555 1_555
C30_7 C21_7 1_555 1_555
H20_7 C30_7 1_555 1_555
C31_7 C19_7 1_555 1_555
H21_7 C31_7 1_555 1_555
H22_7 C31_7 1_555 1_555
H24_7 C33_7 1_555 1_555
C34_7 C17_7 1_555 1_555
H25_7 C34_7 1_555 1_555
C35_7 N1_7 1_555 1_555
H26_7 C35_7 1_555 1_555
N5_4 Zn5_2 1_555 1_555
N6_4 Zn1_4 1_555 1_555
C3_4 C4_4 1_555 1_555
C6_7 C7_4 1_555 1_555
C8_5 C9_5 1_555 1_555
C12_7 C13_7 1_555 1_555
C19_7 C33_7 1_555 1_555
C29_7 C30_7 1_555 1_555
C34_7 C35_7 1_555 1_555
O5_7 C26_7 1_555 1_555
N2_4 C24_7 1_555 1_555
N3_4 C49_7 1_555 1_555
C24_7 H15_7 1_555 1_555
C25_7 C24_7 1_555 1_555
H16_7 C25_7 1_555 1_555
C26_7 C25_7 1_555 1_555
C27_7 C26_7 1_555 1_555
H17_7 C27_7 1_555 1_555
C28_7 N2_4 1_555 1_555
H18_7 C28_7 1_555 1_555
C49_7 H33_7 1_555 1_555
C50_7 C32_7 1_555 1_555
H34_7 C50_7 1_555 1_555
C51_7 C32_7 1_555 1_555
H35_7 C51_7 1_555 1_555
C52_7 N3_4 1_555 1_555
H36_7 C52_7 1_555 1_555
Zn3_2 N3_4 1_555 1_555
Zn6_2 N2_4 1_555 1_555
C27_7 C28_7 1_555 1_555
C49_7 C50_7 1_555 1_555
C51_7 C52_7 1_555 1_555
O17_3 C14_8 1_555 1_555
O18_3 C14_8 1_555 1_555
C6_8 C5_8 1_555 1_555
C10_8 C6_8 1_555 1_555
H4_8 C10_8 1_555 1_555
C11_8 C10_8 1_555 1_555
H5_8 C11_8 1_555 1_555
C12_8 C11_8 1_555 1_555
C13_8 C5_8 1_555 1_555
H6_8 C13_8 1_555 1_555
C14_8 C12_8 1_555 1_555
C12_8 C13_8 1_555 1_555
O19_4 C53_8 1_555 1_555
O20_4 C53_8 1_555 1_555
Zn3_2 O7_6 1_555 1_555
S2_6 O9_6 1_555 1_555
O3_8 C17_8 1_555 1_555
O4_8 C20_8 1_555 1_555
O5_8 C26_8 1_555 1_555
O6_8 C31_8 1_555 1_555
O7_6 C36_6 1_555 1_555
O8_8 C36_6 1_555 1_555
O10_6 S2_6 1_555 1_555
O12_6 Zn3_2 1_555 1_555
N1_8 Zn3_2 1_555 1_555
N5_4 C24_8 1_555 1_555
C2_6 O12_6 1_555 1_555
H2_6 C8_6 1_555 1_555
H3_6 C9_6 1_555 1_555
C15_8 N1_8 1_555 1_555
H7_8 C15_8 1_555 1_555
C16_8 C15_8 1_555 1_555
H8_8 C16_8 1_555 1_555
C17_8 C16_8 1_555 1_555
C18_8 O3_8 1_555 1_555
H9_8 C18_8 1_555 1_555
H10_8 C18_8 1_555 1_555
C19_8 C18_8 1_555 1_555
C20_8 C19_8 1_555 1_555
H12_8 C20_8 1_555 1_555
C21_8 O4_8 1_555 1_555
C24_8 H15_8 1_555 1_555
C25_8 C24_8 1_555 1_555
H16_8 C25_8 1_555 1_555
C26_8 C25_8 1_555 1_555
C27_8 C26_8 1_555 1_555
H17_8 C27_8 1_555 1_555
C28_8 N5_4 1_555 1_555
H18_8 C28_8 1_555 1_555
H19_8 C29_8 1_555 1_555
C30_8 C21_8 1_555 1_555
H20_8 C30_8 1_555 1_555
C31_8 C19_8 1_555 1_555
H21_8 C31_8 1_555 1_555
H22_8 C31_8 1_555 1_555
C33_8 O5_8 1_555 1_555
H23_8 C33_8 1_555 1_555
H24_8 C33_8 1_555 1_555
C34_8 C17_8 1_555 1_555
H25_8 C34_8 1_555 1_555
C35_8 N1_8 1_555 1_555
H26_8 C35_8 1_555 1_555
C36_6 C37_6 1_555 1_555
C37_6 C38_6 1_555 1_555
C38_6 H27_6 1_555 1_555
C39_6 C38_6 1_555 1_555
H28_6 C39_6 1_555 1_555
C40_6 C39_6 1_555 1_555
C41_6 S2_6 1_555 1_555
C42_6 S2_6 1_555 1_555
C43_6 C40_6 1_555 1_555
C44_6 C43_6 1_555 1_555
H29_6 C44_6 1_555 1_555
C45_6 C44_6 1_555 1_555
H30_6 C45_6 1_555 1_555
C46_6 C45_6 1_555 1_555
C47_6 C42_6 1_555 1_555
H31_6 C47_6 1_555 1_555
C48_6 C37_6 1_555 1_555
H32_6 C48_6 1_555 1_555
H34_8 C50_8 1_555 1_555
C8_6 C9_6 1_555 1_555
C19_8 C33_8 1_555 1_555
C27_8 C28_8 1_555 1_555
C29_8 C30_8 1_555 1_555
C34_8 C35_8 1_555 1_555
C40_6 C41_6 1_555 1_555
C41_6 C48_6 1_555 1_555
C42_6 C43_6 1_555 1_555
C46_6 C47_6 1_555 1_555
Zn6_2 N4_8 1_555 1_555
N6_4 C49_8 1_555 1_555
N4_8 C23_8 1_555 1_555
H13_8 C22_8 1_555 1_555
C23_8 C22_8 1_555 1_555
H14_8 C23_8 1_555 1_555
C51_8 C32_8 1_555 1_555
H35_8 C51_8 1_555 1_555
C52_8 N6_4 1_555 1_555
H36_8 C52_8 1_555 1_555
C51_8 C52_8 1_555 1_555
Zn3_3 O7_7 1_555 1_555
S2_7 O9_7 1_555 1_555
O7_7 C36_7 1_555 1_555
O10_7 S2_7 1_555 1_555
O12_7 Zn3_3 1_555 1_555
C2_7 O12_7 1_555 1_555
H2_7 C8_7 1_555 1_555
H3_7 C9_7 1_555 1_555
C36_7 C37_7 1_555 1_555
C37_7 C38_7 1_555 1_555
C39_7 C38_7 1_555 1_555
H28_7 C39_7 1_555 1_555
C40_7 C39_7 1_555 1_555
C41_7 S2_7 1_555 1_555
C42_7 S2_7 1_555 1_555
C43_7 C40_7 1_555 1_555
C44_7 C43_7 1_555 1_555
H29_7 C44_7 1_555 1_555
C45_7 C44_7 1_555 1_555
H30_7 C45_7 1_555 1_555
C46_7 C45_7 1_555 1_555
C47_7 C42_7 1_555 1_555
H31_7 C47_7 1_555 1_555
C48_7 C37_7 1_555 1_555
H32_7 C48_7 1_555 1_555
C8_7 C9_7 1_555 1_555
C40_7 C41_7 1_555 1_555
C41_7 C48_7 1_555 1_555
C42_7 C43_7 1_555 1_555
C46_7 C47_7 1_555 1_555
S1_5 O1_5 1_555 1_555
O2_5 S1_5 1_555 1_555
C1_5 S1_5 1_555 1_555
C4_5 C1_5 1_555 1_555
H1_5 C4_5 1_555 1_555
C7_5 C1_5 1_555 1_555
C3_5 C4_5 1_555 1_555
S1_6 O1_6 1_555 1_555
O2_6 S1_6 1_555 1_555
C1_6 S1_6 1_555 1_555
C4_6 C1_6 1_555 1_555
H1_6 C4_6 1_555 1_555
C7_6 C1_6 1_555 1_555
C3_6 C4_6 1_555 1_555
Zn3_4 O7_8 1_555 1_555
S2_8 O9_8 1_555 1_555
O7_8 C36_8 1_555 1_555
O10_8 S2_8 1_555 1_555
O12_8 Zn3_4 1_555 1_555
C2_8 O12_8 1_555 1_555
H2_8 C8_8 1_555 1_555
H3_8 C9_8 1_555 1_555
C36_8 C37_8 1_555 1_555
C37_8 C38_8 1_555 1_555
C39_8 C38_8 1_555 1_555
H28_8 C39_8 1_555 1_555
C40_8 C39_8 1_555 1_555
C41_8 S2_8 1_555 1_555
C42_8 S2_8 1_555 1_555
C43_8 C40_8 1_555 1_555
C44_8 C43_8 1_555 1_555
H29_8 C44_8 1_555 1_555
C45_8 C44_8 1_555 1_555
H30_8 C45_8 1_555 1_555
C46_8 C45_8 1_555 1_555
C47_8 C42_8 1_555 1_555
H31_8 C47_8 1_555 1_555
C48_8 C37_8 1_555 1_555
H32_8 C48_8 1_555 1_555
C8_8 C9_8 1_555 1_555
C40_8 C41_8 1_555 1_555
C41_8 C48_8 1_555 1_555
C42_8 C43_8 1_555 1_555
C46_8 C47_8 1_555 1_555
S1_7 O1_7 1_555 1_555
O2_7 S1_7 1_555 1_555
C1_7 S1_7 1_555 1_555
C4_7 C1_7 1_555 1_555
H1_7 C4_7 1_555 1_555
C7_7 C1_7 1_555 1_555
C3_7 C4_7 1_555 1_555
S1_8 O1_8 1_555 1_555
O2_8 S1_8 1_555 1_555
C1_8 S1_8 1_555 1_555
C4_8 C1_8 1_555 1_555
H1_8 C4_8 1_555 1_555
C7_8 C1_8 1_555 1_555
C3_8 C4_8 1_555 1_555

#END
