
###############################################################################
#
# This file contains modified crystal structure data generated from the
# MOF subset of the Cambridge Structural Database (CSD) v543 
# hosted by the Cambridge Crystallographic Data Centre (CCDC).
#
# This work is licensed under the Creative Commons
# Attribution-NonCommercial-ShareAlike 4.0 International License.
# To view a copy of this license, visit
# http://creativecommons.org/licenses/by-nc-sa/4.0/
# or send a letter to
# Creative Commons, PO Box 1866, Mountain View, CA 94042, USA.
#
# CIF created using the CSD Python API on 29 September 2022
# The structure has been converted into the P1 space group
# The structure has a 3D framework
# The original CSD entry NUDYET is in the orthorhombic crystal system
# The framework has been calculated to contain at least 10.0% void space
# The void calculation uses a probe of radius 1.32A, grid spacing 0.4
#
###############################################################################

data_NUDYET
_chemical_formula_moiety         '(C428 H288 Cd16 N32 O128 S16)n'
_symmetry_cell_setting           triclinic
_symmetry_space_group_name_H-M   'P 1'
_symmetry_Int_Tables_number      1
_space_group_name_Hall           'P 1'
loop_
_symmetry_equiv_pos_site_id
_symmetry_equiv_pos_as_xyz
1 x,y,z
_cell_length_a                   15.1979(9)
_cell_length_b                   29.4200(18)
_cell_length_c                   32.182(2)
_cell_angle_alpha                90
_cell_angle_beta                 90
_cell_angle_gamma                90
_cell_volume                     14389.3
loop_
_atom_site_label
_atom_site_type_symbol
_atom_site_fract_x
_atom_site_fract_y
_atom_site_fract_z
Cd5 Cd 0.11320(2) 0.78239(2) 0.80544(2)
Cd1 Cd 0.38680(2) 0.28239(2) 0.80544(2)
S1 S 0.32462(5) 0.54108(3) 0.81546(4)
O1 O 0.35697(17) 0.54578(8) 0.85788(11)
O2 O 0.18947(14) 0.71357(6) 0.80667(6)
O3 O 0.04524(13) 0.70493(7) 0.80516(6)
O4 O 0.37267(13) 0.35962(7) 0.81033(7)
O5 O 0.24169(13) 0.32737(7) 0.80682(7)
O6 O 0.38625(14) 0.54900(8) 0.78241(12)
O7 O 0.4369(3) 0.29644(14) 0.60896(10)
O8 O 0.4001(2) 0.21686(15) 0.50442(9)
N1 N 0.39882(15) 0.28838(8) 0.73527(8)
N2 N 0.39204(15) 0.21797(8) 0.37669(8)
C1 C 0.21870(19) 0.61982(10) 0.80919(9)
H1 H 0.2682 0.6383 0.8114
C2 C 0.12152(17) 0.68892(10) 0.80590(8)
C3 C 0.29001(19) 0.36129(10) 0.80822(9)
C4 C 0.24990(19) 0.40839(9) 0.80719(10)
C5 C 0.13383(19) 0.63873(10) 0.80574(8)
C6 C 0.22620(19) 0.57280(10) 0.80927(10)
C7 C 0.12323(19) 0.45742(10) 0.80249(10)
H2 H 0.0627 0.4611 0.7998
C8 C 0.3055(2) 0.44578(11) 0.81046(12)
H3 H 0.3661 0.4421 0.8129
C9 C 0.15938(19) 0.41434(10) 0.80335(9)
H4 H 0.1229 0.3891 0.8013
C10 C 0.4515(2) 0.19224(10) 0.39663(10)
H5 H 0.4904 0.1751 0.3808
C11 C 0.37441(17) 0.25408(11) 0.71118(10)
H6 H 0.3499 0.2286 0.7238
C12 C 0.0614(2) 0.60915(10) 0.80231(10)
H7 H 0.0052 0.6215 0.8003
C13 C 0.07098(19) 0.56235(10) 0.80176(10)
H8 H 0.0220 0.5437 0.7989
C14 C 0.38320(18) 0.25400(12) 0.66876(10)
H9 H 0.3645 0.2293 0.6531
C15 C 0.43292(19) 0.32550(10) 0.71649(10)
H10 H 0.4493 0.3502 0.7328
C16 C 0.1780(2) 0.49531(10) 0.80572(10)
C17 C 0.4582(2) 0.18979(13) 0.43917(11)
H11 H 0.5001 0.1713 0.4517
C18 C 0.3362(2) 0.24235(12) 0.39993(11)
H12 H 0.2943 0.2602 0.3866
C19 C 0.15400(19) 0.54361(10) 0.80543(10)
C20 C 0.2682(2) 0.48843(10) 0.80996(11)
C21 C 0.4443(2) 0.32811(13) 0.67419(11)
H13 H 0.4677 0.3541 0.6621
C22 C 0.3380(3) 0.24218(15) 0.44220(11)
H14 H 0.2979 0.2595 0.4573
C23 C 0.4203(3) 0.29129(14) 0.64987(11)
C24 C 0.4010(3) 0.21564(16) 0.46269(12)
C25 C 0.5000 0.2500 0.55445(17)
C26 C 0.4808(3) 0.2081(2) 0.52759(15)
H15 H 0.5292 0.2026 0.5086
H16 H 0.4737 0.1815 0.5450
C27 C 0.4172(4) 0.2608(2) 0.58069(14)
H17 H 0.3693 0.2698 0.5626
H18 H 0.3991 0.2339 0.5959
O9 O 0.5631(3) 0.20356(14) 0.60896(10)
O10 O 0.5999(2) 0.28314(15) 0.50442(9)
N3 N 0.60118(15) 0.21162(8) 0.73527(8)
N4 N 0.60796(15) 0.28203(8) 0.37669(8)
C28 C 0.5485(2) 0.30776(10) 0.39663(10)
H19 H 0.5096 0.3249 0.3808
C29 C 0.62559(17) 0.24592(11) 0.71118(10)
H20 H 0.6501 0.2714 0.7238
C30 C 0.61680(18) 0.24600(12) 0.66876(10)
H21 H 0.6355 0.2707 0.6531
C31 C 0.56708(19) 0.17450(10) 0.71649(10)
H22 H 0.5507 0.1498 0.7328
C32 C 0.5418(2) 0.31021(13) 0.43917(11)
H23 H 0.4999 0.3287 0.4517
C33 C 0.6638(2) 0.25765(12) 0.39993(11)
H24 H 0.7057 0.2398 0.3866
C34 C 0.5557(2) 0.17189(13) 0.67419(11)
H25 H 0.5323 0.1459 0.6621
C35 C 0.6620(3) 0.25782(15) 0.44220(11)
H26 H 0.7021 0.2405 0.4573
C36 C 0.5797(3) 0.20871(14) 0.64987(11)
C37 C 0.5990(3) 0.28436(16) 0.46269(12)
C38 C 0.5192(3) 0.2919(2) 0.52759(15)
H27 H 0.4708 0.2974 0.5086
H28 H 0.5263 0.3185 0.5450
C39 C 0.5828(4) 0.2392(2) 0.58069(14)
H29 H 0.6307 0.2302 0.5626
H30 H 0.6009 0.2661 0.5959
Cd2 Cd 0.61320(2) 0.21761(2) 0.80544(2)
O14 O 0.62733(13) 0.14038(7) 0.81033(7)
O15 O 0.75831(13) 0.17263(7) 0.80682(7)
C42 C 0.70999(19) 0.13871(10) 0.80822(9)
C43 C 0.75010(19) 0.09161(9) 0.80719(10)
C46 C 0.87677(19) 0.04258(10) 0.80249(10)
H32 H 0.9373 0.0389 0.7998
C47 C 0.6945(2) 0.05422(11) 0.81046(12)
H33 H 0.6339 0.0579 0.8129
C48 C 0.84062(19) 0.08566(10) 0.80335(9)
H34 H 0.8771 0.1109 0.8013
C51 C 0.8220(2) 0.00469(10) 0.80572(10)
C53 C 0.7318(2) 0.01157(10) 0.80996(11)
Cd3 Cd 0.38680(2) 0.21761(2) 0.30544(2)
Cd8 Cd 0.61320(2) 0.28239(2) 0.30544(2)
O17 O 0.31053(14) 0.21357(6) 0.80667(6)
O18 O 0.68947(14) 0.28643(6) 0.80667(6)
O19 O 0.45476(13) 0.20493(7) 0.80516(6)
O20 O 0.54524(13) 0.29507(7) 0.80516(6)
N5 N 0.39204(15) 0.28203(8) 0.87669(8)
N6 N 0.60796(15) 0.21797(8) 0.87669(8)
S2 S 0.67538(5) 0.95892(3) 0.81546(4)
O11 O 0.64303(17) 0.95422(8) 0.85788(11)
O12 O 0.81053(14) 0.78643(6) 0.80667(6)
O13 O 0.95476(13) 0.79507(7) 0.80516(6)
O16 O 0.61375(14) 0.95100(8) 0.78241(12)
C40 C 0.78130(19) 0.88018(10) 0.80919(9)
H31 H 0.7318 0.8617 0.8114
C41 C 0.87848(17) 0.81108(10) 0.80590(8)
C44 C 0.86617(19) 0.86127(10) 0.80574(8)
C45 C 0.77380(19) 0.92720(10) 0.80927(10)
C49 C 0.9386(2) 0.89085(10) 0.80231(10)
H35 H 0.9948 0.8785 0.8003
C50 C 0.92902(19) 0.93765(10) 0.80176(10)
H36 H 0.9780 0.9563 0.7989
C52 C 0.84600(19) 0.95639(10) 0.80543(10)
Cd7 Cd 0.88680(2) 0.71761(2) 0.80544(2)
Cd1_2 Cd 0.11320(2) 0.71761(2) 0.30544(2)
S1_2 S 0.17538(5) 0.45892(3) 0.31546(4)
O1_2 O 0.14303(17) 0.45422(8) 0.35788(11)
O2_2 O 0.31053(14) 0.28643(6) 0.30667(6)
O3_2 O 0.45476(13) 0.29507(7) 0.30516(6)
O4_2 O 0.12733(13) 0.64038(7) 0.31033(7)
O5_2 O 0.25831(13) 0.67263(7) 0.30682(7)
O6_2 O 0.11375(14) 0.45100(8) 0.28241(12)
O7_2 O 0.0631(3) 0.70356(14) 0.10896(10)
O8_2 O 0.0999(2) 0.78314(15) 0.00442(9)
N1_2 N 0.10118(15) 0.71162(8) 0.23527(8)
C1_2 C 0.28130(19) 0.38018(10) 0.30919(9)
H1_2 H 0.2318 0.3617 0.3114
C2_2 C 0.37848(17) 0.31108(10) 0.30590(8)
C3_2 C 0.20999(19) 0.63871(10) 0.30822(9)
C4_2 C 0.25010(19) 0.59161(9) 0.30719(10)
C5_2 C 0.36617(19) 0.36127(10) 0.30574(8)
C6_2 C 0.27380(19) 0.42720(10) 0.30927(10)
C7_2 C 0.37677(19) 0.54258(10) 0.30249(10)
H2_2 H 0.4373 0.5389 0.2998
C8_2 C 0.1945(2) 0.55422(11) 0.31046(12)
H3_2 H 0.1339 0.5579 0.3129
C9_2 C 0.34062(19) 0.58566(10) 0.30335(9)
H4_2 H 0.3771 0.6109 0.3013
C11_2 C 0.12559(17) 0.74592(11) 0.21118(10)
H6_2 H 0.1501 0.7714 0.2238
C12_2 C 0.4386(2) 0.39085(10) 0.30231(10)
H7_2 H 0.4948 0.3785 0.3003
C13_2 C 0.42902(19) 0.43765(10) 0.30176(10)
H8_2 H 0.4780 0.4563 0.2989
C14_2 C 0.11680(18) 0.74600(12) 0.16876(10)
H9_2 H 0.1355 0.7707 0.1531
C15_2 C 0.06708(19) 0.67450(10) 0.21649(10)
H10_2 H 0.0507 0.6498 0.2328
C16_2 C 0.3220(2) 0.50469(10) 0.30572(10)
C19_2 C 0.34600(19) 0.45639(10) 0.30543(10)
C20_2 C 0.2318(2) 0.51157(10) 0.30996(11)
C21_2 C 0.0557(2) 0.67189(13) 0.17419(11)
H13_2 H 0.0323 0.6459 0.1621
C23_2 C 0.0797(3) 0.70871(14) 0.14987(11)
C25_2 C 0.0000 0.7500 0.05445(17)
C26_2 C 0.0192(3) 0.7919(2) 0.02759(15)
H16_2 H 0.0263 0.8185 0.0450
C27_2 C 0.0828(4) 0.7392(2) 0.08069(14)
H17_2 H 0.1307 0.7302 0.0626
H18_2 H 0.1009 0.7661 0.0959
H27_2 H 0.0292 0.7026 0.0086
O17_2 O 0.18947(14) 0.78643(6) 0.30667(6)
O19_2 O 0.04524(13) 0.79507(7) 0.30516(6)
N5_2 N 0.10796(15) 0.71797(8) 0.37669(8)
N2_2 N 0.10796(15) 0.78203(8) 0.87669(8)
C10_2 C 0.0485(2) 0.80776(10) 0.89663(10)
H5_2 H 0.0096 0.8249 0.8808
C17_2 C 0.0418(2) 0.81021(13) 0.93917(11)
C18_2 C 0.1638(2) 0.75765(12) 0.89993(11)
H12_2 H 0.2057 0.7398 0.8866
C22_2 C 0.1620(3) 0.75782(15) 0.94220(11)
H14_2 H 0.2021 0.7405 0.9573
C24_2 C 0.0990(3) 0.78436(16) 0.96269(12)
H23_2 H 0.0001 0.6713 0.9517
S2_2 S 0.82462(5) 0.04108(3) 0.31546(4)
O11_2 O 0.85697(17) 0.04578(8) 0.35788(11)
O12_2 O 0.68947(14) 0.21357(6) 0.30667(6)
O13_2 O 0.54524(13) 0.20493(7) 0.30516(6)
O16_2 O 0.88625(14) 0.04900(8) 0.28241(12)
C40_2 C 0.71870(19) 0.11982(10) 0.30919(9)
H31_2 H 0.7682 0.1383 0.3114
C41_2 C 0.62152(17) 0.18892(10) 0.30590(8)
C44_2 C 0.63383(19) 0.13873(10) 0.30574(8)
C45_2 C 0.72620(19) 0.07280(10) 0.30927(10)
C49_2 C 0.5614(2) 0.10915(10) 0.30231(10)
H35_2 H 0.5052 0.1215 0.3003
C50_2 C 0.57098(19) 0.06235(10) 0.30176(10)
H36_2 H 0.5220 0.0437 0.2989
C52_2 C 0.65400(19) 0.04361(10) 0.30543(10)
C25_3 C 1.0000 0.7500 0.05445(17)
H15_2 H 0.9708 0.7974 0.0086
O9_2 O 0.9369(3) 0.79644(14) 0.10896(10)
O10_2 O 0.9001(2) 0.71686(15) 0.00442(9)
N3_2 N 0.89882(15) 0.78838(8) 0.23527(8)
C29_2 C 0.87441(17) 0.75408(11) 0.21118(10)
H20_2 H 0.8499 0.7286 0.2238
C30_2 C 0.88320(18) 0.75400(12) 0.16876(10)
H21_2 H 0.8645 0.7293 0.1531
C31_2 C 0.93292(19) 0.82550(10) 0.21649(10)
H22_2 H 0.9493 0.8502 0.2328
C34_2 C 0.9443(2) 0.82811(13) 0.17419(11)
H25_2 H 0.9677 0.8541 0.1621
C36_2 C 0.9203(3) 0.79129(14) 0.14987(11)
C38_2 C 0.9808(3) 0.7081(2) 0.02759(15)
H28_2 H 0.9737 0.6815 0.0450
C39_2 C 0.9172(4) 0.7608(2) 0.08069(14)
H29_2 H 0.8693 0.7698 0.0626
H30_2 H 0.8991 0.7339 0.0959
Cd2_2 Cd 0.88680(2) 0.78239(2) 0.30544(2)
O14_2 O 0.87267(13) 0.85962(7) 0.31033(7)
O15_2 O 0.74169(13) 0.82737(7) 0.30682(7)
C42_2 C 0.79001(19) 0.86129(10) 0.30822(9)
C43_2 C 0.74990(19) 0.90839(9) 0.30719(10)
C46_2 C 0.62323(19) 0.95742(10) 0.30249(10)
H32_2 H 0.5627 0.9611 0.2998
C47_2 C 0.8055(2) 0.94578(11) 0.31046(12)
H33_2 H 0.8661 0.9421 0.3129
C48_2 C 0.65938(19) 0.91434(10) 0.30335(9)
H34_2 H 0.6229 0.8891 0.3013
C51_2 C 0.6780(2) 0.99531(10) 0.30572(10)
C53_2 C 0.7682(2) 0.98843(10) 0.30996(11)
O18_2 O 0.81053(14) 0.71357(6) 0.30667(6)
O20_2 O 0.95476(13) 0.70493(7) 0.30516(6)
N6_2 N 0.89204(15) 0.78203(8) 0.37669(8)
H11_2 H 0.9999 0.8287 0.9517
N4_2 N 0.89204(15) 0.71797(8) 0.87669(8)
C28_2 C 0.9515(2) 0.69224(10) 0.89663(10)
H19_2 H 0.9904 0.6751 0.8808
C32_2 C 0.9582(2) 0.68979(13) 0.93917(11)
C33_2 C 0.8362(2) 0.74235(12) 0.89993(11)
H24_2 H 0.7943 0.7602 0.8866
C35_2 C 0.8380(3) 0.74218(15) 0.94220(11)
H26_2 H 0.7979 0.7595 0.9573
C37_2 C 0.9010(3) 0.71564(16) 0.96269(12)
O4_3 O 0.37267(13) 0.14038(7) 0.31033(7)
O5_3 O 0.24169(13) 0.17263(7) 0.30682(7)
O7_3 O 0.4369(3) 0.20356(14) 0.10896(10)
O8_3 O 0.4001(2) 0.28314(15) 0.00442(9)
N1_3 N 0.39882(15) 0.21162(8) 0.23527(8)
C3_3 C 0.29001(19) 0.13871(10) 0.30822(9)
C4_3 C 0.24990(19) 0.09161(9) 0.30719(10)
C7_3 C 0.12323(19) 0.04258(10) 0.30249(10)
H2_3 H 0.0627 0.0389 0.2998
C8_3 C 0.3055(2) 0.05422(11) 0.31046(12)
H3_3 H 0.3661 0.0579 0.3129
C9_3 C 0.15938(19) 0.08566(10) 0.30335(9)
H4_3 H 0.1229 0.1109 0.3013
C11_3 C 0.37441(17) 0.24592(11) 0.21118(10)
H6_3 H 0.3499 0.2714 0.2238
C14_3 C 0.38320(18) 0.24600(12) 0.16876(10)
H9_3 H 0.3645 0.2707 0.1531
C15_3 C 0.43292(19) 0.17450(10) 0.21649(10)
H10_3 H 0.4493 0.1498 0.2328
C16_3 C 0.1780(2) 0.00469(10) 0.30572(10)
C20_3 C 0.2682(2) 0.01157(10) 0.30996(11)
C21_3 C 0.4443(2) 0.17189(13) 0.17419(11)
H13_3 H 0.4677 0.1459 0.1621
C23_3 C 0.4203(3) 0.20871(14) 0.14987(11)
C25_4 C 0.5000 0.2500 0.05445(17)
C26_3 C 0.4808(3) 0.2919(2) 0.02759(15)
H15_3 H 0.5292 0.2974 0.0086
H16_3 H 0.4737 0.3185 0.0450
C27_3 C 0.4172(4) 0.2392(2) 0.08069(14)
H17_3 H 0.3693 0.2302 0.0626
H18_3 H 0.3991 0.2661 0.0959
O9_3 O 0.5631(3) 0.29644(14) 0.10896(10)
O10_3 O 0.5999(2) 0.21686(15) 0.00442(9)
N3_3 N 0.60118(15) 0.28838(8) 0.23527(8)
C29_3 C 0.62559(17) 0.25408(11) 0.21118(10)
H20_3 H 0.6501 0.2286 0.2238
C30_3 C 0.61680(18) 0.25400(12) 0.16876(10)
H21_3 H 0.6355 0.2293 0.1531
C31_3 C 0.56708(19) 0.32550(10) 0.21649(10)
H22_3 H 0.5507 0.3502 0.2328
C34_3 C 0.5557(2) 0.32811(13) 0.17419(11)
H25_3 H 0.5323 0.3541 0.1621
C36_3 C 0.5797(3) 0.29129(14) 0.14987(11)
C38_3 C 0.5192(3) 0.2081(2) 0.02759(15)
H27_3 H 0.4708 0.2026 0.0086
H28_3 H 0.5263 0.1815 0.0450
C39_3 C 0.5828(4) 0.2608(2) 0.08069(14)
H29_3 H 0.6307 0.2698 0.0626
H30_3 H 0.6009 0.2339 0.0959
S2_3 S 0.67538(5) 0.54108(3) 0.31546(4)
O11_3 O 0.64303(17) 0.54578(8) 0.35788(11)
O14_3 O 0.62733(13) 0.35962(7) 0.31033(7)
O15_3 O 0.75831(13) 0.32737(7) 0.30682(7)
O16_3 O 0.61375(14) 0.54900(8) 0.28241(12)
C40_3 C 0.78130(19) 0.61982(10) 0.30919(9)
H31_3 H 0.7318 0.6383 0.3114
C41_3 C 0.87848(17) 0.68892(10) 0.30590(8)
C42_3 C 0.70999(19) 0.36129(10) 0.30822(9)
C43_3 C 0.75010(19) 0.40839(9) 0.30719(10)
C44_3 C 0.86617(19) 0.63873(10) 0.30574(8)
C45_3 C 0.77380(19) 0.57280(10) 0.30927(10)
C46_3 C 0.87677(19) 0.45742(10) 0.30249(10)
H32_3 H 0.9373 0.4611 0.2998
C47_3 C 0.6945(2) 0.44578(11) 0.31046(12)
H33_3 H 0.6339 0.4421 0.3129
C48_3 C 0.84062(19) 0.41434(10) 0.30335(9)
H34_3 H 0.8771 0.3891 0.3013
C49_3 C 0.9386(2) 0.60915(10) 0.30231(10)
H35_3 H 0.9948 0.6215 0.3003
C50_3 C 0.92902(19) 0.56235(10) 0.30176(10)
H36_3 H 0.9780 0.5437 0.2989
C51_3 C 0.8220(2) 0.49531(10) 0.30572(10)
C52_3 C 0.84600(19) 0.54361(10) 0.30543(10)
C53_3 C 0.7318(2) 0.48843(10) 0.30996(11)
C10_3 C 0.4515(2) 0.30776(10) 0.89663(10)
H5_3 H 0.4904 0.3249 0.8808
C17_3 C 0.4582(2) 0.31021(13) 0.93917(11)
H11_3 H 0.5001 0.3287 0.9517
C18_3 C 0.3362(2) 0.25765(12) 0.89993(11)
H12_3 H 0.2943 0.2398 0.8866
C22_3 C 0.3380(3) 0.25782(15) 0.94220(11)
H14_3 H 0.2979 0.2405 0.9573
C24_3 C 0.4010(3) 0.28436(16) 0.96269(12)
C28_3 C 0.5485(2) 0.19224(10) 0.89663(10)
H19_3 H 0.5096 0.1751 0.8808
C32_3 C 0.5418(2) 0.18979(13) 0.93917(11)
H23_3 H 0.4999 0.1713 0.9517
C33_3 C 0.6638(2) 0.24235(12) 0.89993(11)
H24_3 H 0.7057 0.2602 0.8866
C35_3 C 0.6620(3) 0.24218(15) 0.94220(11)
H26_3 H 0.7021 0.2595 0.9573
C37_3 C 0.5990(3) 0.21564(16) 0.96269(12)
S1_3 S 0.32462(5) 0.95892(3) 0.31546(4)
O1_3 O 0.35697(17) 0.95422(8) 0.35788(11)
O6_3 O 0.38625(14) 0.95100(8) 0.28241(12)
C1_3 C 0.21870(19) 0.88018(10) 0.30919(9)
H1_3 H 0.2682 0.8617 0.3114
C2_3 C 0.12152(17) 0.81108(10) 0.30590(8)
C5_3 C 0.13383(19) 0.86127(10) 0.30574(8)
C6_3 C 0.22620(19) 0.92720(10) 0.30927(10)
C12_3 C 0.0614(2) 0.89085(10) 0.30231(10)
H7_3 H 0.0052 0.8785 0.3003
C13_3 C 0.07098(19) 0.93765(10) 0.30176(10)
H8_3 H 0.0220 0.9563 0.2989
C19_3 C 0.15400(19) 0.95639(10) 0.30543(10)
S1_4 S 0.17538(5) 0.04108(3) 0.81546(4)
O1_4 O 0.14303(17) 0.04578(8) 0.85788(11)
O6_4 O 0.11375(14) 0.04900(8) 0.78241(12)
C1_4 C 0.28130(19) 0.11982(10) 0.80919(9)
H1_4 H 0.2318 0.1383 0.8114
C2_4 C 0.37848(17) 0.18892(10) 0.80590(8)
C5_4 C 0.36617(19) 0.13873(10) 0.80574(8)
C6_4 C 0.27380(19) 0.07280(10) 0.80927(10)
C12_4 C 0.4386(2) 0.10915(10) 0.80231(10)
H7_4 H 0.4948 0.1215 0.8003
C13_4 C 0.42902(19) 0.06235(10) 0.80176(10)
H8_4 H 0.4780 0.0437 0.7989
C19_4 C 0.34600(19) 0.04361(10) 0.80543(10)
O4_4 O 0.12733(13) 0.85962(7) 0.81033(7)
O5_4 O 0.25831(13) 0.82737(7) 0.80682(7)
O7_4 O 0.0631(3) 0.79644(14) 0.60896(10)
O8_4 O 0.0999(2) 0.71686(15) 0.50442(9)
N1_4 N 0.10118(15) 0.78838(8) 0.73527(8)
C3_4 C 0.20999(19) 0.86129(10) 0.80822(9)
C4_4 C 0.25010(19) 0.90839(9) 0.80719(10)
C7_4 C 0.37677(19) 0.95742(10) 0.80249(10)
H2_4 H 0.4373 0.9611 0.7998
C8_4 C 0.1945(2) 0.94578(11) 0.81046(12)
H3_4 H 0.1339 0.9421 0.8129
C9_4 C 0.34062(19) 0.91434(10) 0.80335(9)
H4_4 H 0.3771 0.8891 0.8013
C10_4 C 0.0485(2) 0.69224(10) 0.39663(10)
H5_4 H 0.0096 0.6751 0.3808
C11_4 C 0.12559(17) 0.75408(11) 0.71118(10)
H6_4 H 0.1501 0.7286 0.7238
C14_4 C 0.11680(18) 0.75400(12) 0.66876(10)
H9_4 H 0.1355 0.7293 0.6531
C15_4 C 0.06708(19) 0.82550(10) 0.71649(10)
H10_4 H 0.0507 0.8502 0.7328
C16_4 C 0.3220(2) 0.99531(10) 0.80572(10)
C17_4 C 0.0418(2) 0.68979(13) 0.43917(11)
C18_4 C 0.1638(2) 0.74235(12) 0.39993(11)
H12_4 H 0.2057 0.7602 0.3866
C20_4 C 0.2318(2) 0.98843(10) 0.80996(11)
C21_4 C 0.0557(2) 0.82811(13) 0.67419(11)
H13_4 H 0.0323 0.8541 0.6621
C22_4 C 0.1620(3) 0.74218(15) 0.44220(11)
H14_4 H 0.2021 0.7595 0.4573
C23_4 C 0.0797(3) 0.79129(14) 0.64987(11)
C24_4 C 0.0990(3) 0.71564(16) 0.46269(12)
C25_5 C 0.0000 0.7500 0.55445(17)
C26_4 C 0.0192(3) 0.7081(2) 0.52759(15)
H16_4 H 0.0263 0.6815 0.5450
C27_4 C 0.0828(4) 0.7608(2) 0.58069(14)
H17_4 H 0.1307 0.7698 0.5626
H18_4 H 0.1009 0.7339 0.5959
H23_4 H 0.0001 0.8287 0.4517
H27_4 H 0.0292 0.7974 0.5086
H11_4 H 0.9999 0.6713 0.4517
C25_6 C 1.0000 0.7500 0.55445(17)
H15_4 H 0.9708 0.7026 0.5086
O9_4 O 0.9369(3) 0.70356(14) 0.60896(10)
O10_4 O 0.9001(2) 0.78314(15) 0.50442(9)
N3_4 N 0.89882(15) 0.71162(8) 0.73527(8)
C28_4 C 0.9515(2) 0.80776(10) 0.39663(10)
H19_4 H 0.9904 0.8249 0.3808
C29_4 C 0.87441(17) 0.74592(11) 0.71118(10)
H20_4 H 0.8499 0.7714 0.7238
C30_4 C 0.88320(18) 0.74600(12) 0.66876(10)
H21_4 H 0.8645 0.7707 0.6531
C31_4 C 0.93292(19) 0.67450(10) 0.71649(10)
H22_4 H 0.9493 0.6498 0.7328
C32_4 C 0.9582(2) 0.81021(13) 0.43917(11)
C33_4 C 0.8362(2) 0.75765(12) 0.39993(11)
H24_4 H 0.7943 0.7398 0.3866
C34_4 C 0.9443(2) 0.67189(13) 0.67419(11)
H25_4 H 0.9677 0.6459 0.6621
C35_4 C 0.8380(3) 0.75782(15) 0.44220(11)
H26_4 H 0.7979 0.7405 0.4573
C36_4 C 0.9203(3) 0.70871(14) 0.64987(11)
C37_4 C 0.9010(3) 0.78436(16) 0.46269(12)
C38_4 C 0.9808(3) 0.7919(2) 0.52759(15)
H28_4 H 0.9737 0.8185 0.5450
C39_4 C 0.9172(4) 0.7392(2) 0.58069(14)
H29_4 H 0.8693 0.7302 0.5626
H30_4 H 0.8991 0.7661 0.5959
S2_4 S 0.82462(5) 0.45892(3) 0.81546(4)
O11_4 O 0.85697(17) 0.45422(8) 0.85788(11)
O14_4 O 0.87267(13) 0.64038(7) 0.81033(7)
O15_4 O 0.74169(13) 0.67263(7) 0.80682(7)
O16_4 O 0.88625(14) 0.45100(8) 0.78241(12)
C40_4 C 0.71870(19) 0.38018(10) 0.80919(9)
H31_4 H 0.7682 0.3617 0.8114
C41_4 C 0.62152(17) 0.31108(10) 0.80590(8)
C42_4 C 0.79001(19) 0.63871(10) 0.80822(9)
C43_4 C 0.74990(19) 0.59161(9) 0.80719(10)
C44_4 C 0.63383(19) 0.36127(10) 0.80574(8)
C45_4 C 0.72620(19) 0.42720(10) 0.80927(10)
C46_4 C 0.62323(19) 0.54258(10) 0.80249(10)
H32_4 H 0.5627 0.5389 0.7998
C47_4 C 0.8055(2) 0.55422(11) 0.81046(12)
H33_4 H 0.8661 0.5579 0.8129
C48_4 C 0.65938(19) 0.58566(10) 0.80335(9)
H34_4 H 0.6229 0.6109 0.8013
C49_4 C 0.5614(2) 0.39085(10) 0.80231(10)
H35_4 H 0.5052 0.3785 0.8003
C50_4 C 0.57098(19) 0.43765(10) 0.80176(10)
H36_4 H 0.5220 0.4563 0.7989
C51_4 C 0.6780(2) 0.50469(10) 0.80572(10)
C52_4 C 0.65400(19) 0.45639(10) 0.80543(10)
C53_4 C 0.7682(2) 0.51157(10) 0.80996(11)
Cd6 Cd 0.11320(2) 0.21761(2) 0.69456(2)
S1_5 S 0.67538(5) 0.04108(3) 0.68454(4)
O1_5 O 0.64303(17) 0.04578(8) 0.64212(11)
O2_3 O 0.81053(14) 0.21357(6) 0.69333(6)
O3_3 O 0.95476(13) 0.20493(7) 0.69484(6)
O6_5 O 0.61375(14) 0.04900(8) 0.71759(12)
C1_5 C 0.78130(19) 0.11982(10) 0.69081(9)
H1_5 H 0.7318 0.1383 0.6886
C2_5 C 0.87848(17) 0.18892(10) 0.69410(8)
C5_5 C 0.86617(19) 0.13873(10) 0.69426(8)
C6_5 C 0.77380(19) 0.07280(10) 0.69073(10)
C12_5 C 0.9386(2) 0.10915(10) 0.69769(10)
H7_5 H 0.9948 0.1215 0.6997
C13_5 C 0.92902(19) 0.06235(10) 0.69824(10)
H8_5 H 0.9780 0.0437 0.7011
C19_5 C 0.84600(19) 0.04361(10) 0.69457(10)
Cd4 Cd 0.88680(2) 0.28239(2) 0.69456(2)
N2_3 N 0.60796(15) 0.71797(8) 0.12331(8)
C10_5 C 0.5485(2) 0.69224(10) 0.10337(10)
H5_5 H 0.5096 0.6751 0.1192
C17_5 C 0.5418(2) 0.68979(13) 0.06083(11)
H11_5 H 0.4999 0.6713 0.0483
C18_5 C 0.6638(2) 0.74235(12) 0.10007(11)
H12_5 H 0.7057 0.7602 0.1134
C22_5 C 0.6620(3) 0.74218(15) 0.05780(11)
H14_5 H 0.7021 0.7595 0.0427
C24_5 C 0.5990(3) 0.71564(16) 0.03731(12)
N4_3 N 0.39204(15) 0.78203(8) 0.12331(8)
C28_5 C 0.4515(2) 0.80776(10) 0.10337(10)
H19_5 H 0.4904 0.8249 0.1192
C32_5 C 0.4582(2) 0.81021(13) 0.06083(11)
H23_5 H 0.5001 0.8287 0.0483
C33_5 C 0.3362(2) 0.75765(12) 0.10007(11)
H24_5 H 0.2943 0.7398 0.1134
C35_5 C 0.3380(3) 0.75782(15) 0.05780(11)
H26_5 H 0.2979 0.7405 0.0427
C37_5 C 0.4010(3) 0.78436(16) 0.03731(12)
Cd3_2 Cd 0.61320(2) 0.71761(2) 0.19456(2)
Cd8_2 Cd 0.38680(2) 0.78239(2) 0.19456(2)
Cd1_3 Cd 0.61320(2) 0.78239(2) 0.69456(2)
O4_5 O 0.62733(13) 0.85962(7) 0.68967(7)
O5_5 O 0.75831(13) 0.82737(7) 0.69318(7)
O7_5 O 0.5631(3) 0.79644(14) 0.89104(10)
O8_5 O 0.5999(2) 0.71686(15) 0.99558(9)
N1_5 N 0.60118(15) 0.78838(8) 0.76473(8)
C3_5 C 0.70999(19) 0.86129(10) 0.69178(9)
C4_5 C 0.75010(19) 0.90839(9) 0.69281(10)
C7_5 C 0.87677(19) 0.95742(10) 0.69751(10)
H2_5 H 0.9373 0.9611 0.7002
C8_5 C 0.6945(2) 0.94578(11) 0.68954(12)
H3_5 H 0.6339 0.9421 0.6871
C9_5 C 0.84062(19) 0.91434(10) 0.69665(9)
H4_5 H 0.8771 0.8891 0.6987
C11_5 C 0.62559(17) 0.75408(11) 0.78882(10)
H6_5 H 0.6501 0.7286 0.7762
C14_5 C 0.61680(18) 0.75400(12) 0.83124(10)
H9_5 H 0.6355 0.7293 0.8469
C15_5 C 0.56708(19) 0.82550(10) 0.78351(10)
H10_5 H 0.5507 0.8502 0.7672
C16_5 C 0.8220(2) 0.99531(10) 0.69428(10)
C20_5 C 0.7318(2) 0.98843(10) 0.69004(11)
C21_5 C 0.5557(2) 0.82811(13) 0.82581(11)
H13_5 H 0.5323 0.8541 0.8379
C23_5 C 0.5797(3) 0.79129(14) 0.85013(11)
C25_7 C 0.5000 0.7500 0.94555(17)
C26_5 C 0.5192(3) 0.7081(2) 0.97241(15)
H15_5 H 0.4708 0.7026 0.9914
H16_5 H 0.5263 0.6815 0.9550
C27_5 C 0.5828(4) 0.7608(2) 0.91931(14)
H17_5 H 0.6307 0.7698 0.9374
H18_5 H 0.6009 0.7339 0.9041
O9_5 O 0.4369(3) 0.70356(14) 0.89104(10)
O10_5 O 0.4001(2) 0.78314(15) 0.99558(9)
N3_5 N 0.39882(15) 0.71162(8) 0.76473(8)
C29_5 C 0.37441(17) 0.74592(11) 0.78882(10)
H20_5 H 0.3499 0.7714 0.7762
C30_5 C 0.38320(18) 0.74600(12) 0.83124(10)
H21_5 H 0.3645 0.7707 0.8469
C31_5 C 0.43292(19) 0.67450(10) 0.78351(10)
H22_5 H 0.4493 0.6498 0.7672
C34_5 C 0.4443(2) 0.67189(13) 0.82581(11)
H25_5 H 0.4677 0.6459 0.8379
C36_5 C 0.4203(3) 0.70871(14) 0.85013(11)
C38_5 C 0.4808(3) 0.7919(2) 0.97241(15)
H27_5 H 0.5292 0.7974 0.9914
H28_5 H 0.4737 0.8185 0.9550
C39_5 C 0.4172(4) 0.7392(2) 0.91931(14)
H29_5 H 0.3693 0.7302 0.9374
H30_5 H 0.3991 0.7661 0.9041
Cd2_3 Cd 0.38680(2) 0.71761(2) 0.69456(2)
S2_5 S 0.32462(5) 0.45892(3) 0.68454(4)
O11_5 O 0.35697(17) 0.45422(8) 0.64212(11)
O12_3 O 0.18947(14) 0.28643(6) 0.69333(6)
O13_3 O 0.04524(13) 0.29507(7) 0.69484(6)
O14_5 O 0.37267(13) 0.64038(7) 0.68967(7)
O15_5 O 0.24169(13) 0.67263(7) 0.69318(7)
O16_5 O 0.38625(14) 0.45100(8) 0.71759(12)
C40_5 C 0.21870(19) 0.38018(10) 0.69081(9)
H31_5 H 0.2682 0.3617 0.6886
C41_5 C 0.12152(17) 0.31108(10) 0.69410(8)
C42_5 C 0.29001(19) 0.63871(10) 0.69178(9)
C43_5 C 0.24990(19) 0.59161(9) 0.69281(10)
C44_5 C 0.13383(19) 0.36127(10) 0.69426(8)
C45_5 C 0.22620(19) 0.42720(10) 0.69073(10)
C46_5 C 0.12323(19) 0.54258(10) 0.69751(10)
H32_5 H 0.0627 0.5389 0.7002
C47_5 C 0.3055(2) 0.55422(11) 0.68954(12)
H33_5 H 0.3661 0.5579 0.6871
C48_5 C 0.15938(19) 0.58566(10) 0.69665(9)
H34_5 H 0.1229 0.6109 0.6987
C49_5 C 0.0614(2) 0.39085(10) 0.69769(10)
H35_5 H 0.0052 0.3785 0.6997
C50_5 C 0.07098(19) 0.43765(10) 0.69824(10)
H36_5 H 0.0220 0.4563 0.7011
C51_5 C 0.1780(2) 0.50469(10) 0.69428(10)
C52_5 C 0.15400(19) 0.45639(10) 0.69457(10)
C53_5 C 0.2682(2) 0.51157(10) 0.69004(11)
O17_3 O 0.68947(14) 0.71357(6) 0.69333(6)
O18_3 O 0.31053(14) 0.78643(6) 0.69333(6)
O19_3 O 0.54524(13) 0.70493(7) 0.69484(6)
O20_3 O 0.45476(13) 0.79507(7) 0.69484(6)
N5_3 N 0.60796(15) 0.78203(8) 0.62331(8)
N6_3 N 0.39204(15) 0.71797(8) 0.62331(8)
H11_6 H 0.0001 0.3287 0.5483
C25_8 C 0.0000 0.2500 0.44555(17)
H15_6 H 0.0292 0.2974 0.4914
O9_6 O 0.0631(3) 0.29644(14) 0.39104(10)
O10_6 O 0.0999(2) 0.21686(15) 0.49558(9)
N3_6 N 0.10118(15) 0.28838(8) 0.26473(8)
N4_4 N 0.10796(15) 0.21797(8) 0.62331(8)
C28_6 C 0.0485(2) 0.19224(10) 0.60337(10)
H19_6 H 0.0096 0.1751 0.6192
C29_6 C 0.12559(17) 0.25408(11) 0.28882(10)
H20_6 H 0.1501 0.2286 0.2762
C30_6 C 0.11680(18) 0.25400(12) 0.33124(10)
H21_6 H 0.1355 0.2293 0.3469
C31_6 C 0.06708(19) 0.32550(10) 0.28351(10)
H22_6 H 0.0507 0.3502 0.2672
C32_6 C 0.0418(2) 0.18979(13) 0.56083(11)
C33_6 C 0.1638(2) 0.24235(12) 0.60007(11)
H24_6 H 0.2057 0.2602 0.6134
C34_6 C 0.0557(2) 0.32811(13) 0.32581(11)
H25_6 H 0.0323 0.3541 0.3379
C35_6 C 0.1620(3) 0.24218(15) 0.55780(11)
H26_6 H 0.2021 0.2595 0.5427
C36_6 C 0.0797(3) 0.29129(14) 0.35013(11)
C37_6 C 0.0990(3) 0.21564(16) 0.53731(12)
C38_6 C 0.0192(3) 0.2081(2) 0.47241(15)
H28_6 H 0.0263 0.1815 0.4550
C39_6 C 0.0828(4) 0.2608(2) 0.41931(14)
H29_6 H 0.1307 0.2698 0.4374
H30_6 H 0.1009 0.2339 0.4041
Cd2_4 Cd 0.11320(2) 0.28239(2) 0.19456(2)
S2_6 S 0.17538(5) 0.54108(3) 0.18454(4)
O11_6 O 0.14303(17) 0.54578(8) 0.14212(11)
O12_4 O 0.31053(14) 0.71357(6) 0.19333(6)
O13_4 O 0.45476(13) 0.70493(7) 0.19484(6)
O14_6 O 0.12733(13) 0.35962(7) 0.18967(7)
O15_6 O 0.25831(13) 0.32737(7) 0.19318(7)
O16_6 O 0.11375(14) 0.54900(8) 0.21759(12)
C40_6 C 0.28130(19) 0.61982(10) 0.19081(9)
H31_6 H 0.2318 0.6383 0.1886
C41_6 C 0.37848(17) 0.68892(10) 0.19410(8)
C42_6 C 0.20999(19) 0.36129(10) 0.19178(9)
C43_6 C 0.25010(19) 0.40839(9) 0.19281(10)
C44_6 C 0.36617(19) 0.63873(10) 0.19426(8)
C45_6 C 0.27380(19) 0.57280(10) 0.19073(10)
C46_6 C 0.37677(19) 0.45742(10) 0.19751(10)
H32_6 H 0.4373 0.4611 0.2002
C47_6 C 0.1945(2) 0.44578(11) 0.18954(12)
H33_6 H 0.1339 0.4421 0.1871
C48_6 C 0.34062(19) 0.41434(10) 0.19665(9)
H34_6 H 0.3771 0.3891 0.1987
C49_6 C 0.4386(2) 0.60915(10) 0.19769(10)
H35_6 H 0.4948 0.6215 0.1997
C50_6 C 0.42902(19) 0.56235(10) 0.19824(10)
H36_6 H 0.4780 0.5437 0.2011
C51_6 C 0.3220(2) 0.49531(10) 0.19428(10)
C52_6 C 0.34600(19) 0.54361(10) 0.19457(10)
C53_6 C 0.2318(2) 0.48843(10) 0.19004(11)
O18_4 O 0.18947(14) 0.21357(6) 0.19333(6)
O20_4 O 0.04524(13) 0.20493(7) 0.19484(6)
N6_4 N 0.10796(15) 0.28203(8) 0.12331(8)
Cd1_4 Cd 0.88680(2) 0.21761(2) 0.19456(2)
O4_6 O 0.87267(13) 0.14038(7) 0.18967(7)
O5_6 O 0.74169(13) 0.17263(7) 0.19318(7)
O7_6 O 0.9369(3) 0.20356(14) 0.39104(10)
O8_6 O 0.9001(2) 0.28314(15) 0.49558(9)
N1_6 N 0.89882(15) 0.21162(8) 0.26473(8)
N2_4 N 0.89204(15) 0.28203(8) 0.62331(8)
C3_6 C 0.79001(19) 0.13871(10) 0.19178(9)
C4_6 C 0.74990(19) 0.09161(9) 0.19281(10)
C7_6 C 0.62323(19) 0.04258(10) 0.19751(10)
H2_6 H 0.5627 0.0389 0.2002
C8_6 C 0.8055(2) 0.05422(11) 0.18954(12)
H3_6 H 0.8661 0.0579 0.1871
C9_6 C 0.65938(19) 0.08566(10) 0.19665(9)
H4_6 H 0.6229 0.1109 0.1987
C10_6 C 0.9515(2) 0.30776(10) 0.60337(10)
H5_6 H 0.9904 0.3249 0.6192
C11_6 C 0.87441(17) 0.24592(11) 0.28882(10)
H6_6 H 0.8499 0.2714 0.2762
C14_6 C 0.88320(18) 0.24600(12) 0.33124(10)
H9_6 H 0.8645 0.2707 0.3469
C15_6 C 0.93292(19) 0.17450(10) 0.28351(10)
H10_6 H 0.9493 0.1498 0.2672
C16_6 C 0.6780(2) 0.00469(10) 0.19428(10)
C17_6 C 0.9582(2) 0.31021(13) 0.56083(11)
C18_6 C 0.8362(2) 0.25765(12) 0.60007(11)
H12_6 H 0.7943 0.2398 0.6134
C20_6 C 0.7682(2) 0.01157(10) 0.19004(11)
C21_6 C 0.9443(2) 0.17189(13) 0.32581(11)
H13_6 H 0.9677 0.1459 0.3379
C22_6 C 0.8380(3) 0.25782(15) 0.55780(11)
H14_6 H 0.7979 0.2405 0.5427
C23_6 C 0.9203(3) 0.20871(14) 0.35013(11)
C24_6 C 0.9010(3) 0.28436(16) 0.53731(12)
C25_9 C 1.0000 0.2500 0.44555(17)
C26_6 C 0.9808(3) 0.2919(2) 0.47241(15)
H16_6 H 0.9737 0.3185 0.4550
C27_6 C 0.9172(4) 0.2392(2) 0.41931(14)
H17_6 H 0.8693 0.2302 0.4374
H18_6 H 0.8991 0.2661 0.4041
H23_6 H 0.9999 0.1713 0.5483
H27_6 H 0.9708 0.2026 0.4914
O17_4 O 0.81053(14) 0.28643(6) 0.19333(6)
O19_4 O 0.95476(13) 0.29507(7) 0.19484(6)
N5_4 N 0.89204(15) 0.21797(8) 0.12331(8)
S1_6 S 0.82462(5) 0.95892(3) 0.18454(4)
O1_6 O 0.85697(17) 0.95422(8) 0.14212(11)
O2_4 O 0.68947(14) 0.78643(6) 0.19333(6)
O3_4 O 0.54524(13) 0.79507(7) 0.19484(6)
O6_6 O 0.88625(14) 0.95100(8) 0.21759(12)
C1_6 C 0.71870(19) 0.88018(10) 0.19081(9)
H1_6 H 0.7682 0.8617 0.1886
C2_6 C 0.62152(17) 0.81108(10) 0.19410(8)
C5_6 C 0.63383(19) 0.86127(10) 0.19426(8)
C6_6 C 0.72620(19) 0.92720(10) 0.19073(10)
C12_6 C 0.5614(2) 0.89085(10) 0.19769(10)
H7_6 H 0.5052 0.8785 0.1997
C13_6 C 0.57098(19) 0.93765(10) 0.19824(10)
H8_6 H 0.5220 0.9563 0.2011
C19_6 C 0.65400(19) 0.95639(10) 0.19457(10)
S2_7 S 0.32462(5) 0.04108(3) 0.18454(4)
O11_7 O 0.35697(17) 0.04578(8) 0.14212(11)
O16_7 O 0.38625(14) 0.04900(8) 0.21759(12)
C40_7 C 0.21870(19) 0.11982(10) 0.19081(9)
H31_7 H 0.2682 0.1383 0.1886
C41_7 C 0.12152(17) 0.18892(10) 0.19410(8)
C44_7 C 0.13383(19) 0.13873(10) 0.19426(8)
C45_7 C 0.22620(19) 0.07280(10) 0.19073(10)
C49_7 C 0.0614(2) 0.10915(10) 0.19769(10)
H35_7 H 0.0052 0.1215 0.1997
C50_7 C 0.07098(19) 0.06235(10) 0.19824(10)
H36_7 H 0.0220 0.0437 0.2011
C52_7 C 0.15400(19) 0.04361(10) 0.19457(10)
S1_7 S 0.67538(5) 0.45892(3) 0.18454(4)
O1_7 O 0.64303(17) 0.45422(8) 0.14212(11)
O4_7 O 0.62733(13) 0.64038(7) 0.18967(7)
O5_7 O 0.75831(13) 0.67263(7) 0.19318(7)
O6_7 O 0.61375(14) 0.45100(8) 0.21759(12)
O7_7 O 0.5631(3) 0.70356(14) 0.39104(10)
O8_7 O 0.5999(2) 0.78314(15) 0.49558(9)
N1_7 N 0.60118(15) 0.71162(8) 0.26473(8)
C1_7 C 0.78130(19) 0.38018(10) 0.19081(9)
H1_7 H 0.7318 0.3617 0.1886
C2_7 C 0.87848(17) 0.31108(10) 0.19410(8)
C3_7 C 0.70999(19) 0.63871(10) 0.19178(9)
C4_7 C 0.75010(19) 0.59161(9) 0.19281(10)
C5_7 C 0.86617(19) 0.36127(10) 0.19426(8)
C6_7 C 0.77380(19) 0.42720(10) 0.19073(10)
C7_7 C 0.87677(19) 0.54258(10) 0.19751(10)
H2_7 H 0.9373 0.5389 0.2002
C8_7 C 0.6945(2) 0.55422(11) 0.18954(12)
H3_7 H 0.6339 0.5579 0.1871
C9_7 C 0.84062(19) 0.58566(10) 0.19665(9)
H4_7 H 0.8771 0.6109 0.1987
C10_7 C 0.5485(2) 0.80776(10) 0.60337(10)
H5_7 H 0.5096 0.8249 0.6192
C11_7 C 0.62559(17) 0.74592(11) 0.28882(10)
H6_7 H 0.6501 0.7714 0.2762
C12_7 C 0.9386(2) 0.39085(10) 0.19769(10)
H7_7 H 0.9948 0.3785 0.1997
C13_7 C 0.92902(19) 0.43765(10) 0.19824(10)
H8_7 H 0.9780 0.4563 0.2011
C14_7 C 0.61680(18) 0.74600(12) 0.33124(10)
H9_7 H 0.6355 0.7707 0.3469
C15_7 C 0.56708(19) 0.67450(10) 0.28351(10)
H10_7 H 0.5507 0.6498 0.2672
C16_7 C 0.8220(2) 0.50469(10) 0.19428(10)
C17_7 C 0.5418(2) 0.81021(13) 0.56083(11)
H11_7 H 0.4999 0.8287 0.5483
C18_7 C 0.6638(2) 0.75765(12) 0.60007(11)
H12_7 H 0.7057 0.7398 0.6134
C19_7 C 0.84600(19) 0.45639(10) 0.19457(10)
C20_7 C 0.7318(2) 0.51157(10) 0.19004(11)
C21_7 C 0.5557(2) 0.67189(13) 0.32581(11)
H13_7 H 0.5323 0.6459 0.3379
C22_7 C 0.6620(3) 0.75782(15) 0.55780(11)
H14_7 H 0.7021 0.7405 0.5427
C23_7 C 0.5797(3) 0.70871(14) 0.35013(11)
C24_7 C 0.5990(3) 0.78436(16) 0.53731(12)
C25_10 C 0.5000 0.7500 0.44555(17)
C26_7 C 0.5192(3) 0.7919(2) 0.47241(15)
H15_7 H 0.4708 0.7974 0.4914
H16_7 H 0.5263 0.8185 0.4550
C27_7 C 0.5828(4) 0.7392(2) 0.41931(14)
H17_7 H 0.6307 0.7302 0.4374
H18_7 H 0.6009 0.7661 0.4041
O9_7 O 0.4369(3) 0.79644(14) 0.39104(10)
O10_7 O 0.4001(2) 0.71686(15) 0.49558(9)
N3_7 N 0.39882(15) 0.78838(8) 0.26473(8)
C28_7 C 0.4515(2) 0.69224(10) 0.60337(10)
H19_7 H 0.4904 0.6751 0.6192
C29_7 C 0.37441(17) 0.75408(11) 0.28882(10)
H20_7 H 0.3499 0.7286 0.2762
C30_7 C 0.38320(18) 0.75400(12) 0.33124(10)
H21_7 H 0.3645 0.7293 0.3469
C31_7 C 0.43292(19) 0.82550(10) 0.28351(10)
H22_7 H 0.4493 0.8502 0.2672
C32_7 C 0.4582(2) 0.68979(13) 0.56083(11)
H23_7 H 0.5001 0.6713 0.5483
C33_7 C 0.3362(2) 0.74235(12) 0.60007(11)
H24_7 H 0.2943 0.7602 0.6134
C34_7 C 0.4443(2) 0.82811(13) 0.32581(11)
H25_7 H 0.4677 0.8541 0.3379
C35_7 C 0.3380(3) 0.74218(15) 0.55780(11)
H26_7 H 0.2979 0.7595 0.5427
C36_7 C 0.4203(3) 0.79129(14) 0.35013(11)
C37_7 C 0.4010(3) 0.71564(16) 0.53731(12)
C38_7 C 0.4808(3) 0.7081(2) 0.47241(15)
H27_7 H 0.5292 0.7026 0.4914
H28_7 H 0.4737 0.6815 0.4550
C39_7 C 0.4172(4) 0.7608(2) 0.41931(14)
H29_7 H 0.3693 0.7698 0.4374
H30_7 H 0.3991 0.7339 0.4041
O14_7 O 0.37267(13) 0.85962(7) 0.18967(7)
O15_7 O 0.24169(13) 0.82737(7) 0.19318(7)
C42_7 C 0.29001(19) 0.86129(10) 0.19178(9)
C43_7 C 0.24990(19) 0.90839(9) 0.19281(10)
C46_7 C 0.12323(19) 0.95742(10) 0.19751(10)
H32_7 H 0.0627 0.9611 0.2002
C47_7 C 0.3055(2) 0.94578(11) 0.18954(12)
H33_7 H 0.3661 0.9421 0.1871
C48_7 C 0.15938(19) 0.91434(10) 0.19665(9)
H34_7 H 0.1229 0.8891 0.1987
C51_7 C 0.1780(2) 0.99531(10) 0.19428(10)
C53_7 C 0.2682(2) 0.98843(10) 0.19004(11)
H11_8 H 0.0001 0.1713 0.0483
C28_8 C 0.0485(2) 0.30776(10) 0.10337(10)
H19_8 H 0.0096 0.3249 0.1192
C32_8 C 0.0418(2) 0.31021(13) 0.06083(11)
C33_8 C 0.1638(2) 0.25765(12) 0.10007(11)
H24_8 H 0.2057 0.2398 0.1134
C35_8 C 0.1620(3) 0.25782(15) 0.05780(11)
H26_8 H 0.2021 0.2405 0.0427
C37_8 C 0.0990(3) 0.28436(16) 0.03731(12)
C25_11 C 0.0000 0.2500 0.94555(17)
H15_8 H 0.0292 0.2026 0.9914
O9_8 O 0.0631(3) 0.20356(14) 0.89104(10)
O10_8 O 0.0999(2) 0.28314(15) 0.99558(9)
N3_8 N 0.10118(15) 0.21162(8) 0.76473(8)
C29_8 C 0.12559(17) 0.24592(11) 0.78882(10)
H20_8 H 0.1501 0.2714 0.7762
C30_8 C 0.11680(18) 0.24600(12) 0.83124(10)
H21_8 H 0.1355 0.2707 0.8469
C31_8 C 0.06708(19) 0.17450(10) 0.78351(10)
H22_8 H 0.0507 0.1498 0.7672
C34_8 C 0.0557(2) 0.17189(13) 0.82581(11)
H25_8 H 0.0323 0.1459 0.8379
C36_8 C 0.0797(3) 0.20871(14) 0.85013(11)
C38_8 C 0.0192(3) 0.2919(2) 0.97241(15)
H28_8 H 0.0263 0.3185 0.9550
C39_8 C 0.0828(4) 0.2392(2) 0.91931(14)
H29_8 H 0.1307 0.2302 0.9374
H30_8 H 0.1009 0.2661 0.9041
O14_8 O 0.12733(13) 0.14038(7) 0.68967(7)
O15_8 O 0.25831(13) 0.17263(7) 0.69318(7)
C42_8 C 0.20999(19) 0.13871(10) 0.69178(9)
C43_8 C 0.25010(19) 0.09161(9) 0.69281(10)
C46_8 C 0.37677(19) 0.04258(10) 0.69751(10)
H32_8 H 0.4373 0.0389 0.7002
C47_8 C 0.1945(2) 0.05422(11) 0.68954(12)
H33_8 H 0.1339 0.0579 0.6871
C48_8 C 0.34062(19) 0.08566(10) 0.69665(9)
H34_8 H 0.3771 0.1109 0.6987
C51_8 C 0.3220(2) 0.00469(10) 0.69428(10)
C53_8 C 0.2318(2) 0.01157(10) 0.69004(11)
S2_8 S 0.17538(5) 0.95892(3) 0.68454(4)
O11_8 O 0.14303(17) 0.95422(8) 0.64212(11)
O16_8 O 0.11375(14) 0.95100(8) 0.71759(12)
C40_8 C 0.28130(19) 0.88018(10) 0.69081(9)
H31_8 H 0.2318 0.8617 0.6886
C41_8 C 0.37848(17) 0.81108(10) 0.69410(8)
C44_8 C 0.36617(19) 0.86127(10) 0.69426(8)
C45_8 C 0.27380(19) 0.92720(10) 0.69073(10)
C49_8 C 0.4386(2) 0.89085(10) 0.69769(10)
H35_8 H 0.4948 0.8785 0.6997
C50_8 C 0.42902(19) 0.93765(10) 0.69824(10)
H36_8 H 0.4780 0.9563 0.7011
C52_8 C 0.34600(19) 0.95639(10) 0.69457(10)
C10_8 C 0.9515(2) 0.19224(10) 0.10337(10)
H5_8 H 0.9904 0.1751 0.1192
C17_8 C 0.9582(2) 0.18979(13) 0.06083(11)
C18_8 C 0.8362(2) 0.24235(12) 0.10007(11)
H12_8 H 0.7943 0.2602 0.1134
C22_8 C 0.8380(3) 0.24218(15) 0.05780(11)
H14_8 H 0.7979 0.2595 0.0427
C24_8 C 0.9010(3) 0.21564(16) 0.03731(12)
H23_8 H 0.9999 0.3287 0.0483
S1_8 S 0.82462(5) 0.54108(3) 0.68454(4)
O1_8 O 0.85697(17) 0.54578(8) 0.64212(11)
O4_8 O 0.87267(13) 0.35962(7) 0.68967(7)
O5_8 O 0.74169(13) 0.32737(7) 0.69318(7)
O6_8 O 0.88625(14) 0.54900(8) 0.71759(12)
O7_8 O 0.9369(3) 0.29644(14) 0.89104(10)
O8_8 O 0.9001(2) 0.21686(15) 0.99558(9)
N1_8 N 0.89882(15) 0.28838(8) 0.76473(8)
C1_8 C 0.71870(19) 0.61982(10) 0.69081(9)
H1_8 H 0.7682 0.6383 0.6886
C2_8 C 0.62152(17) 0.68892(10) 0.69410(8)
C3_8 C 0.79001(19) 0.36129(10) 0.69178(9)
C4_8 C 0.74990(19) 0.40839(9) 0.69281(10)
C5_8 C 0.63383(19) 0.63873(10) 0.69426(8)
C6_8 C 0.72620(19) 0.57280(10) 0.69073(10)
C7_8 C 0.62323(19) 0.45742(10) 0.69751(10)
H2_8 H 0.5627 0.4611 0.7002
C8_8 C 0.8055(2) 0.44578(11) 0.68954(12)
H3_8 H 0.8661 0.4421 0.6871
C9_8 C 0.65938(19) 0.41434(10) 0.69665(9)
H4_8 H 0.6229 0.3891 0.6987
C11_8 C 0.87441(17) 0.25408(11) 0.78882(10)
H6_8 H 0.8499 0.2286 0.7762
C12_8 C 0.5614(2) 0.60915(10) 0.69769(10)
H7_8 H 0.5052 0.6215 0.6997
C13_8 C 0.57098(19) 0.56235(10) 0.69824(10)
H8_8 H 0.5220 0.5437 0.7011
C14_8 C 0.88320(18) 0.25400(12) 0.83124(10)
H9_8 H 0.8645 0.2293 0.8469
C15_8 C 0.93292(19) 0.32550(10) 0.78351(10)
H10_8 H 0.9493 0.3502 0.7672
C16_8 C 0.6780(2) 0.49531(10) 0.69428(10)
C19_8 C 0.65400(19) 0.54361(10) 0.69457(10)
C20_8 C 0.7682(2) 0.48843(10) 0.69004(11)
C21_8 C 0.9443(2) 0.32811(13) 0.82581(11)
H13_8 H 0.9677 0.3541 0.8379
C23_8 C 0.9203(3) 0.29129(14) 0.85013(11)
C25_12 C 1.0000 0.2500 0.94555(17)
C26_8 C 0.9808(3) 0.2081(2) 0.97241(15)
H16_8 H 0.9737 0.1815 0.9550
C27_8 C 0.9172(4) 0.2608(2) 0.91931(14)
H17_8 H 0.8693 0.2698 0.9374
H18_8 H 0.8991 0.2339 0.9041
H27_8 H 0.9708 0.2974 0.9914
loop_
_geom_bond_atom_site_label_1
_geom_bond_atom_site_label_2
_geom_bond_site_symmetry_1
_geom_bond_site_symmetry_2
Cd1 O4 1_555 1_555
S1 O1 1_555 1_555
O2 C2 1_555 1_555
O3 C2 1_555 1_555
O4 C3 1_555 1_555
O5 Cd1 1_555 1_555
O6 S1 1_555 1_555
O7 C23 1_555 1_555
O8 C24 1_555 1_555
N1 Cd1 1_555 1_555
N2 C10 1_555 1_555
C1 H1 1_555 1_555
C2 C5 1_555 1_555
C3 O5 1_555 1_555
C4 C3 1_555 1_555
C5 C1 1_555 1_555
C6 S1 1_555 1_555
C7 H2 1_555 1_555
C8 C4 1_555 1_555
H3 C8 1_555 1_555
C9 C4 1_555 1_555
H4 C9 1_555 1_555
C10 H5 1_555 1_555
C11 N1 1_555 1_555
H6 C11 1_555 1_555
C12 C5 1_555 1_555
H7 C12 1_555 1_555
C13 C12 1_555 1_555
H8 C13 1_555 1_555
C14 C11 1_555 1_555
H9 C14 1_555 1_555
C15 N1 1_555 1_555
H10 C15 1_555 1_555
C16 C7 1_555 1_555
C17 C10 1_555 1_555
H11 C17 1_555 1_555
C18 N2 1_555 1_555
H12 C18 1_555 1_555
C19 C6 1_555 1_555
C20 S1 1_555 1_555
C21 C15 1_555 1_555
H13 C21 1_555 1_555
C22 C18 1_555 1_555
H14 C22 1_555 1_555
C23 C14 1_555 1_555
C24 C17 1_555 1_555
C25 C26 1_555 1_555
C26 O8 1_555 1_555
H15 C26 1_555 1_555
H16 C26 1_555 1_555
C27 O7 1_555 1_555
H17 C27 1_555 1_555
H18 C27 1_555 1_555
O9 C36 1_555 1_555
O10 C37 1_555 1_555
N3 C29 1_555 1_555
N4 C28 1_555 1_555
C28 H19 1_555 1_555
C29 H20 1_555 1_555
C30 C29 1_555 1_555
H21 C30 1_555 1_555
C31 N3 1_555 1_555
H22 C31 1_555 1_555
C32 C28 1_555 1_555
H23 C32 1_555 1_555
C33 N4 1_555 1_555
H24 C33 1_555 1_555
C34 C31 1_555 1_555
H25 C34 1_555 1_555
C35 C33 1_555 1_555
H26 C35 1_555 1_555
C36 C30 1_555 1_555
C37 C32 1_555 1_555
C38 C25 1_555 1_555
H27 C38 1_555 1_555
H28 C38 1_555 1_555
C39 C25 1_555 1_555
H29 C39 1_555 1_555
H30 C39 1_555 1_555
Cd2 N3 1_555 1_555
O14 Cd2 1_555 1_555
O15 Cd2 1_555 1_555
C42 O14 1_555 1_555
C43 C42 1_555 1_555
C46 H32 1_555 1_555
C47 C43 1_555 1_555
H33 C47 1_555 1_555
C48 C43 1_555 1_555
H34 C48 1_555 1_555
C51 C46 1_555 1_555
Cd3 N2 1_555 1_555
Cd5 O2 1_555 1_555
Cd8 N4 1_555 1_555
O17 Cd1 1_555 1_555
O18 Cd2 1_555 1_555
O19 Cd1 1_555 1_555
O20 Cd1 1_555 1_555
N5 Cd1 1_555 1_555
N6 Cd2 1_555 1_555
O3 Cd5 1_555 1_555
C1 C6 1_555 1_555
C7 C9 1_555 1_555
C8 C20 1_555 1_555
C13 C19 1_555 1_555
C16 C19 1_555 1_555
C16 C20 1_555 1_555
C21 C23 1_555 1_555
C22 C24 1_555 1_555
C25 C27 1_555 1_555
O9 C39 1_555 1_555
O10 C38 1_555 1_555
C34 C36 1_555 1_555
C35 C37 1_555 1_555
Cd2 O19 1_555 1_555
Cd2 O20 1_555 1_555
O15 C42 1_555 1_555
C46 C48 1_555 1_555
C47 C53 1_555 1_555
C51 C53 1_555 1_555
S2 O11 1_555 1_555
O12 C41 1_555 1_555
O13 C41 1_555 1_555
O16 S2 1_555 1_555
C40 H31 1_555 1_555
C41 C44 1_555 1_555
C44 C40 1_555 1_555
C45 S2 1_555 1_555
C49 C44 1_555 1_555
H35 C49 1_555 1_555
C50 C49 1_555 1_555
H36 C50 1_555 1_555
C52 C45 1_555 1_555
Cd7 O12 1_555 1_555
O13 Cd7 1_555 1_555
C40 C45 1_555 1_555
C50 C52 1_555 1_555
Cd1_2 O4_2 1_555 1_555
S1_2 O1_2 1_555 1_555
O2_2 C2_2 1_555 1_555
O3_2 C2_2 1_555 1_555
O4_2 C3_2 1_555 1_555
O5_2 Cd1_2 1_555 1_555
O6_2 S1_2 1_555 1_555
O7_2 C23_2 1_555 1_555
N1_2 Cd1_2 1_555 1_555
C1_2 H1_2 1_555 1_555
C2_2 C5_2 1_555 1_555
C3_2 O5_2 1_555 1_555
C4_2 C3_2 1_555 1_555
C5_2 C1_2 1_555 1_555
C6_2 S1_2 1_555 1_555
C7_2 H2_2 1_555 1_555
C8_2 C4_2 1_555 1_555
H3_2 C8_2 1_555 1_555
C9_2 C4_2 1_555 1_555
H4_2 C9_2 1_555 1_555
C11_2 N1_2 1_555 1_555
H6_2 C11_2 1_555 1_555
C12_2 C5_2 1_555 1_555
H7_2 C12_2 1_555 1_555
C13_2 C12_2 1_555 1_555
H8_2 C13_2 1_555 1_555
C14_2 C11_2 1_555 1_555
H9_2 C14_2 1_555 1_555
C15_2 N1_2 1_555 1_555
H10_2 C15_2 1_555 1_555
C16_2 C7_2 1_555 1_555
C19_2 C6_2 1_555 1_555
C20_2 S1_2 1_555 1_555
C21_2 C15_2 1_555 1_555
H13_2 C21_2 1_555 1_555
C23_2 C14_2 1_555 1_555
C25_2 C26_2 1_555 1_555
C26_2 O8_2 1_555 1_555
H16_2 C26_2 1_555 1_555
C27_2 O7_2 1_555 1_555
H17_2 C27_2 1_555 1_555
H18_2 C27_2 1_555 1_555
Cd3 O2_2 1_555 1_555
Cd8 O3_2 1_555 1_555
O17_2 Cd1_2 1_555 1_555
O19_2 Cd1_2 1_555 1_555
N5_2 Cd1_2 1_555 1_555
O3_2 Cd3 1_555 1_555
C1_2 C6_2 1_555 1_555
C7_2 C9_2 1_555 1_555
C8_2 C20_2 1_555 1_555
C13_2 C19_2 1_555 1_555
C16_2 C19_2 1_555 1_555
C16_2 C20_2 1_555 1_555
C21_2 C23_2 1_555 1_555
C25_2 C27_2 1_555 1_555
N2_2 C10_2 1_555 1_555
C10_2 H5_2 1_555 1_555
C17_2 C10_2 1_555 1_555
C18_2 N2_2 1_555 1_555
H12_2 C18_2 1_555 1_555
C22_2 C18_2 1_555 1_555
H14_2 C22_2 1_555 1_555
C24_2 C17_2 1_555 1_555
Cd5 N2_2 1_555 1_555
C22_2 C24_2 1_555 1_555
S2_2 O11_2 1_555 1_555
O12_2 C41_2 1_555 1_555
O13_2 C41_2 1_555 1_555
O16_2 S2_2 1_555 1_555
C40_2 H31_2 1_555 1_555
C41_2 C44_2 1_555 1_555
C44_2 C40_2 1_555 1_555
C45_2 S2_2 1_555 1_555
C49_2 C44_2 1_555 1_555
H35_2 C49_2 1_555 1_555
C50_2 C49_2 1_555 1_555
H36_2 C50_2 1_555 1_555
C52_2 C45_2 1_555 1_555
Cd3 O13_2 1_555 1_555
Cd8 O12_2 1_555 1_555
O13_2 Cd8 1_555 1_555
C40_2 C45_2 1_555 1_555
C50_2 C52_2 1_555 1_555
O9_2 C36_2 1_555 1_555
N3_2 C29_2 1_555 1_555
C29_2 H20_2 1_555 1_555
C30_2 C29_2 1_555 1_555
H21_2 C30_2 1_555 1_555
C31_2 N3_2 1_555 1_555
H22_2 C31_2 1_555 1_555
C34_2 C31_2 1_555 1_555
H25_2 C34_2 1_555 1_555
C36_2 C30_2 1_555 1_555
C38_2 C25_3 1_555 1_555
H28_2 C38_2 1_555 1_555
C39_2 C25_3 1_555 1_555
H29_2 C39_2 1_555 1_555
H30_2 C39_2 1_555 1_555
Cd2_2 N3_2 1_555 1_555
O14_2 Cd2_2 1_555 1_555
O15_2 Cd2_2 1_555 1_555
C42_2 O14_2 1_555 1_555
C43_2 C42_2 1_555 1_555
C46_2 H32_2 1_555 1_555
C47_2 C43_2 1_555 1_555
H33_2 C47_2 1_555 1_555
C48_2 C43_2 1_555 1_555
H34_2 C48_2 1_555 1_555
C51_2 C46_2 1_555 1_555
O18_2 Cd2_2 1_555 1_555
N6_2 Cd2_2 1_555 1_555
O9_2 C39_2 1_555 1_555
O10_2 C38_2 1_555 1_555
C34_2 C36_2 1_555 1_555
Cd2_2 O20_2 1_555 1_555
O15_2 C42_2 1_555 1_555
C46_2 C48_2 1_555 1_555
C47_2 C53_2 1_555 1_555
C51_2 C53_2 1_555 1_555
N4_2 C28_2 1_555 1_555
C28_2 H19_2 1_555 1_555
C32_2 C28_2 1_555 1_555
C33_2 N4_2 1_555 1_555
H24_2 C33_2 1_555 1_555
C35_2 C33_2 1_555 1_555
H26_2 C35_2 1_555 1_555
C37_2 C32_2 1_555 1_555
Cd7 N4_2 1_555 1_555
C35_2 C37_2 1_555 1_555
Cd3 O4_3 1_555 1_555
O4_3 C3_3 1_555 1_555
O5_3 Cd3 1_555 1_555
O7_3 C23_3 1_555 1_555
N1_3 Cd3 1_555 1_555
C3_3 O5_3 1_555 1_555
C4_3 C3_3 1_555 1_555
C7_3 H2_3 1_555 1_555
C8_3 C4_3 1_555 1_555
H3_3 C8_3 1_555 1_555
C9_3 C4_3 1_555 1_555
H4_3 C9_3 1_555 1_555
C11_3 N1_3 1_555 1_555
H6_3 C11_3 1_555 1_555
C14_3 C11_3 1_555 1_555
H9_3 C14_3 1_555 1_555
C15_3 N1_3 1_555 1_555
H10_3 C15_3 1_555 1_555
C16_3 C7_3 1_555 1_555
C21_3 C15_3 1_555 1_555
H13_3 C21_3 1_555 1_555
C23_3 C14_3 1_555 1_555
C25_4 C26_3 1_555 1_555
C26_3 O8_3 1_555 1_555
H15_3 C26_3 1_555 1_555
H16_3 C26_3 1_555 1_555
C27_3 O7_3 1_555 1_555
H17_3 C27_3 1_555 1_555
H18_3 C27_3 1_555 1_555
O9_3 C36_3 1_555 1_555
N3_3 C29_3 1_555 1_555
C29_3 H20_3 1_555 1_555
C30_3 C29_3 1_555 1_555
H21_3 C30_3 1_555 1_555
C31_3 N3_3 1_555 1_555
H22_3 C31_3 1_555 1_555
C34_3 C31_3 1_555 1_555
H25_3 C34_3 1_555 1_555
C36_3 C30_3 1_555 1_555
C38_3 C25_4 1_555 1_555
H27_3 C38_3 1_555 1_555
H28_3 C38_3 1_555 1_555
C39_3 C25_4 1_555 1_555
H29_3 C39_3 1_555 1_555
H30_3 C39_3 1_555 1_555
Cd8 N3_3 1_555 1_555
S2_3 O11_3 1_555 1_555
O18_2 C41_3 1_555 1_555
O20_2 C41_3 1_555 1_555
O14_3 Cd8 1_555 1_555
O15_3 Cd8 1_555 1_555
O16_3 S2_3 1_555 1_555
C40_3 H31_3 1_555 1_555
C41_3 C44_3 1_555 1_555
C42_3 O14_3 1_555 1_555
C43_3 C42_3 1_555 1_555
C44_3 C40_3 1_555 1_555
C45_3 S2_3 1_555 1_555
C46_3 H32_3 1_555 1_555
C47_3 C43_3 1_555 1_555
H33_3 C47_3 1_555 1_555
C48_3 C43_3 1_555 1_555
H34_3 C48_3 1_555 1_555
C49_3 C44_3 1_555 1_555
H35_3 C49_3 1_555 1_555
C50_3 C49_3 1_555 1_555
H36_3 C50_3 1_555 1_555
C51_3 C46_3 1_555 1_555
C52_3 C45_3 1_555 1_555
C53_3 S2_3 1_555 1_555
C7_3 C9_3 1_555 1_555
C8_3 C20_3 1_555 1_555
C16_3 C20_3 1_555 1_555
C21_3 C23_3 1_555 1_555
C25_4 C27_3 1_555 1_555
O9_3 C39_3 1_555 1_555
O10_3 C38_3 1_555 1_555
C34_3 C36_3 1_555 1_555
O15_3 C42_3 1_555 1_555
C40_3 C45_3 1_555 1_555
C46_3 C48_3 1_555 1_555
C47_3 C53_3 1_555 1_555
C50_3 C52_3 1_555 1_555
C51_3 C52_3 1_555 1_555
C51_3 C53_3 1_555 1_555
N5 C10_3 1_555 1_555
C10_3 H5_3 1_555 1_555
C17_3 C10_3 1_555 1_555
H11_3 C17_3 1_555 1_555
C18_3 N5 1_555 1_555
H12_3 C18_3 1_555 1_555
C22_3 C18_3 1_555 1_555
H14_3 C22_3 1_555 1_555
C24_3 C17_3 1_555 1_555
N6 C28_3 1_555 1_555
C28_3 H19_3 1_555 1_555
C32_3 C28_3 1_555 1_555
H23_3 C32_3 1_555 1_555
C33_3 N6 1_555 1_555
H24_3 C33_3 1_555 1_555
C35_3 C33_3 1_555 1_555
H26_3 C35_3 1_555 1_555
C37_3 C32_3 1_555 1_555
C22_3 C24_3 1_555 1_555
C35_3 C37_3 1_555 1_555
S1_3 O1_3 1_555 1_555
O17_2 C2_3 1_555 1_555
O19_2 C2_3 1_555 1_555
O6_3 S1_3 1_555 1_555
C1_3 H1_3 1_555 1_555
C2_3 C5_3 1_555 1_555
C5_3 C1_3 1_555 1_555
C6_3 S1_3 1_555 1_555
C12_3 C5_3 1_555 1_555
H7_3 C12_3 1_555 1_555
C13_3 C12_3 1_555 1_555
H8_3 C13_3 1_555 1_555
C19_3 C6_3 1_555 1_555
C1_3 C6_3 1_555 1_555
C13_3 C19_3 1_555 1_555
S1_4 O1_4 1_555 1_555
O17 C2_4 1_555 1_555
O19 C2_4 1_555 1_555
O6_4 S1_4 1_555 1_555
C1_4 H1_4 1_555 1_555
C2_4 C5_4 1_555 1_555
C5_4 C1_4 1_555 1_555
C6_4 S1_4 1_555 1_555
C12_4 C5_4 1_555 1_555
H7_4 C12_4 1_555 1_555
C13_4 C12_4 1_555 1_555
H8_4 C13_4 1_555 1_555
C19_4 C6_4 1_555 1_555
C1_4 C6_4 1_555 1_555
C13_4 C19_4 1_555 1_555
Cd5 O4_4 1_555 1_555
O4_4 C3_4 1_555 1_555
O5_4 Cd5 1_555 1_555
O7_4 C23_4 1_555 1_555
O8_4 C24_4 1_555 1_555
N1_4 Cd5 1_555 1_555
N5_2 C10_4 1_555 1_555
C3_4 O5_4 1_555 1_555
C4_4 C3_4 1_555 1_555
C7_4 H2_4 1_555 1_555
C8_4 C4_4 1_555 1_555
H3_4 C8_4 1_555 1_555
C9_4 C4_4 1_555 1_555
H4_4 C9_4 1_555 1_555
C10_4 H5_4 1_555 1_555
C11_4 N1_4 1_555 1_555
H6_4 C11_4 1_555 1_555
C14_4 C11_4 1_555 1_555
H9_4 C14_4 1_555 1_555
C15_4 N1_4 1_555 1_555
H10_4 C15_4 1_555 1_555
C16_4 C7_4 1_555 1_555
C17_4 C10_4 1_555 1_555
C18_4 N5_2 1_555 1_555
H12_4 C18_4 1_555 1_555
C21_4 C15_4 1_555 1_555
H13_4 C21_4 1_555 1_555
C22_4 C18_4 1_555 1_555
H14_4 C22_4 1_555 1_555
C23_4 C14_4 1_555 1_555
C24_4 C17_4 1_555 1_555
C25_5 C26_4 1_555 1_555
C26_4 O8_4 1_555 1_555
H16_4 C26_4 1_555 1_555
C27_4 O7_4 1_555 1_555
H17_4 C27_4 1_555 1_555
H18_4 C27_4 1_555 1_555
C7_4 C9_4 1_555 1_555
C8_4 C20_4 1_555 1_555
C16_4 C20_4 1_555 1_555
C21_4 C23_4 1_555 1_555
C22_4 C24_4 1_555 1_555
C25_5 C27_4 1_555 1_555
O9_4 C36_4 1_555 1_555
O10_4 C37_4 1_555 1_555
N3_4 C29_4 1_555 1_555
N6_2 C28_4 1_555 1_555
C28_4 H19_4 1_555 1_555
C29_4 H20_4 1_555 1_555
C30_4 C29_4 1_555 1_555
H21_4 C30_4 1_555 1_555
C31_4 N3_4 1_555 1_555
H22_4 C31_4 1_555 1_555
C32_4 C28_4 1_555 1_555
C33_4 N6_2 1_555 1_555
H24_4 C33_4 1_555 1_555
C34_4 C31_4 1_555 1_555
H25_4 C34_4 1_555 1_555
C35_4 C33_4 1_555 1_555
H26_4 C35_4 1_555 1_555
C36_4 C30_4 1_555 1_555
C37_4 C32_4 1_555 1_555
C38_4 C25_6 1_555 1_555
H28_4 C38_4 1_555 1_555
C39_4 C25_6 1_555 1_555
H29_4 C39_4 1_555 1_555
H30_4 C39_4 1_555 1_555
Cd7 N3_4 1_555 1_555
S2_4 O11_4 1_555 1_555
O18 C41_4 1_555 1_555
O20 C41_4 1_555 1_555
O14_4 Cd7 1_555 1_555
O15_4 Cd7 1_555 1_555
O16_4 S2_4 1_555 1_555
C40_4 H31_4 1_555 1_555
C41_4 C44_4 1_555 1_555
C42_4 O14_4 1_555 1_555
C43_4 C42_4 1_555 1_555
C44_4 C40_4 1_555 1_555
C45_4 S2_4 1_555 1_555
C46_4 H32_4 1_555 1_555
C47_4 C43_4 1_555 1_555
H33_4 C47_4 1_555 1_555
C48_4 C43_4 1_555 1_555
H34_4 C48_4 1_555 1_555
C49_4 C44_4 1_555 1_555
H35_4 C49_4 1_555 1_555
C50_4 C49_4 1_555 1_555
H36_4 C50_4 1_555 1_555
C51_4 C46_4 1_555 1_555
C52_4 C45_4 1_555 1_555
C53_4 S2_4 1_555 1_555
O9_4 C39_4 1_555 1_555
O10_4 C38_4 1_555 1_555
C34_4 C36_4 1_555 1_555
C35_4 C37_4 1_555 1_555
O15_4 C42_4 1_555 1_555
C40_4 C45_4 1_555 1_555
C46_4 C48_4 1_555 1_555
C47_4 C53_4 1_555 1_555
C50_4 C52_4 1_555 1_555
C51_4 C52_4 1_555 1_555
C51_4 C53_4 1_555 1_555
S1_5 O1_5 1_555 1_555
O2_3 C2_5 1_555 1_555
O3_3 C2_5 1_555 1_555
O6_5 S1_5 1_555 1_555
C1_5 H1_5 1_555 1_555
C2_5 C5_5 1_555 1_555
C5_5 C1_5 1_555 1_555
C6_5 S1_5 1_555 1_555
C12_5 C5_5 1_555 1_555
H7_5 C12_5 1_555 1_555
C13_5 C12_5 1_555 1_555
H8_5 C13_5 1_555 1_555
C19_5 C6_5 1_555 1_555
Cd4 O2_3 1_555 1_555
O3_3 Cd4 1_555 1_555
C1_5 C6_5 1_555 1_555
C13_5 C19_5 1_555 1_555
N2_3 C10_5 1_555 1_555
C10_5 H5_5 1_555 1_555
C17_5 C10_5 1_555 1_555
H11_5 C17_5 1_555 1_555
C18_5 N2_3 1_555 1_555
H12_5 C18_5 1_555 1_555
C22_5 C18_5 1_555 1_555
H14_5 C22_5 1_555 1_555
C24_5 C17_5 1_555 1_555
N4_3 C28_5 1_555 1_555
C28_5 H19_5 1_555 1_555
C32_5 C28_5 1_555 1_555
H23_5 C32_5 1_555 1_555
C33_5 N4_3 1_555 1_555
H24_5 C33_5 1_555 1_555
C35_5 C33_5 1_555 1_555
H26_5 C35_5 1_555 1_555
C37_5 C32_5 1_555 1_555
Cd3_2 N2_3 1_555 1_555
Cd8_2 N4_3 1_555 1_555
C22_5 C24_5 1_555 1_555
C35_5 C37_5 1_555 1_555
Cd1_3 O4_5 1_555 1_555
O4_5 C3_5 1_555 1_555
O5_5 Cd1_3 1_555 1_555
O7_5 C23_5 1_555 1_555
N1_5 Cd1_3 1_555 1_555
C3_5 O5_5 1_555 1_555
C4_5 C3_5 1_555 1_555
C7_5 H2_5 1_555 1_555
C8_5 C4_5 1_555 1_555
H3_5 C8_5 1_555 1_555
C9_5 C4_5 1_555 1_555
H4_5 C9_5 1_555 1_555
C11_5 N1_5 1_555 1_555
H6_5 C11_5 1_555 1_555
C14_5 C11_5 1_555 1_555
H9_5 C14_5 1_555 1_555
C15_5 N1_5 1_555 1_555
H10_5 C15_5 1_555 1_555
C16_5 C7_5 1_555 1_555
C21_5 C15_5 1_555 1_555
H13_5 C21_5 1_555 1_555
C23_5 C14_5 1_555 1_555
C25_7 C26_5 1_555 1_555
C26_5 O8_5 1_555 1_555
H15_5 C26_5 1_555 1_555
H16_5 C26_5 1_555 1_555
C27_5 O7_5 1_555 1_555
H17_5 C27_5 1_555 1_555
H18_5 C27_5 1_555 1_555
O9_5 C36_5 1_555 1_555
N3_5 C29_5 1_555 1_555
C29_5 H20_5 1_555 1_555
C30_5 C29_5 1_555 1_555
H21_5 C30_5 1_555 1_555
C31_5 N3_5 1_555 1_555
H22_5 C31_5 1_555 1_555
C34_5 C31_5 1_555 1_555
H25_5 C34_5 1_555 1_555
C36_5 C30_5 1_555 1_555
C38_5 C25_7 1_555 1_555
H27_5 C38_5 1_555 1_555
H28_5 C38_5 1_555 1_555
C39_5 C25_7 1_555 1_555
H29_5 C39_5 1_555 1_555
H30_5 C39_5 1_555 1_555
Cd2_3 N3_5 1_555 1_555
S2_5 O11_5 1_555 1_555
O12_3 C41_5 1_555 1_555
O13_3 C41_5 1_555 1_555
O14_5 Cd2_3 1_555 1_555
O15_5 Cd2_3 1_555 1_555
O16_5 S2_5 1_555 1_555
C40_5 H31_5 1_555 1_555
C41_5 C44_5 1_555 1_555
C42_5 O14_5 1_555 1_555
C43_5 C42_5 1_555 1_555
C44_5 C40_5 1_555 1_555
C45_5 S2_5 1_555 1_555
C46_5 H32_5 1_555 1_555
C47_5 C43_5 1_555 1_555
H33_5 C47_5 1_555 1_555
C48_5 C43_5 1_555 1_555
H34_5 C48_5 1_555 1_555
C49_5 C44_5 1_555 1_555
H35_5 C49_5 1_555 1_555
C50_5 C49_5 1_555 1_555
H36_5 C50_5 1_555 1_555
C51_5 C46_5 1_555 1_555
C52_5 C45_5 1_555 1_555
C53_5 S2_5 1_555 1_555
Cd6 O12_3 1_555 1_555
O17_3 Cd1_3 1_555 1_555
O18_3 Cd2_3 1_555 1_555
O19_3 Cd1_3 1_555 1_555
O20_3 Cd1_3 1_555 1_555
N5_3 Cd1_3 1_555 1_555
N6_3 Cd2_3 1_555 1_555
C7_5 C9_5 1_555 1_555
C8_5 C20_5 1_555 1_555
C16_5 C20_5 1_555 1_555
C21_5 C23_5 1_555 1_555
C25_7 C27_5 1_555 1_555
O9_5 C39_5 1_555 1_555
O10_5 C38_5 1_555 1_555
C34_5 C36_5 1_555 1_555
Cd2_3 O19_3 1_555 1_555
Cd2_3 O20_3 1_555 1_555
O13_3 Cd6 1_555 1_555
O15_5 C42_5 1_555 1_555
C40_5 C45_5 1_555 1_555
C46_5 C48_5 1_555 1_555
C47_5 C53_5 1_555 1_555
C50_5 C52_5 1_555 1_555
C51_5 C52_5 1_555 1_555
C51_5 C53_5 1_555 1_555
O9_6 C36_6 1_555 1_555
O10_6 C37_6 1_555 1_555
N3_6 C29_6 1_555 1_555
N4_4 C28_6 1_555 1_555
C28_6 H19_6 1_555 1_555
C29_6 H20_6 1_555 1_555
C30_6 C29_6 1_555 1_555
H21_6 C30_6 1_555 1_555
C31_6 N3_6 1_555 1_555
H22_6 C31_6 1_555 1_555
C32_6 C28_6 1_555 1_555
C33_6 N4_4 1_555 1_555
H24_6 C33_6 1_555 1_555
C34_6 C31_6 1_555 1_555
H25_6 C34_6 1_555 1_555
C35_6 C33_6 1_555 1_555
H26_6 C35_6 1_555 1_555
C36_6 C30_6 1_555 1_555
C37_6 C32_6 1_555 1_555
C38_6 C25_8 1_555 1_555
H28_6 C38_6 1_555 1_555
C39_6 C25_8 1_555 1_555
H29_6 C39_6 1_555 1_555
H30_6 C39_6 1_555 1_555
Cd2_4 N3_6 1_555 1_555
S2_6 O11_6 1_555 1_555
O12_4 C41_6 1_555 1_555
O13_4 C41_6 1_555 1_555
O14_6 Cd2_4 1_555 1_555
O15_6 Cd2_4 1_555 1_555
O16_6 S2_6 1_555 1_555
C40_6 H31_6 1_555 1_555
C41_6 C44_6 1_555 1_555
C42_6 O14_6 1_555 1_555
C43_6 C42_6 1_555 1_555
C44_6 C40_6 1_555 1_555
C45_6 S2_6 1_555 1_555
C46_6 H32_6 1_555 1_555
C47_6 C43_6 1_555 1_555
H33_6 C47_6 1_555 1_555
C48_6 C43_6 1_555 1_555
H34_6 C48_6 1_555 1_555
C49_6 C44_6 1_555 1_555
H35_6 C49_6 1_555 1_555
C50_6 C49_6 1_555 1_555
H36_6 C50_6 1_555 1_555
C51_6 C46_6 1_555 1_555
C52_6 C45_6 1_555 1_555
C53_6 S2_6 1_555 1_555
Cd3_2 O13_4 1_555 1_555
Cd8_2 O12_4 1_555 1_555
Cd6 N4_4 1_555 1_555
O18_4 Cd2_4 1_555 1_555
N6_4 Cd2_4 1_555 1_555
O9_6 C39_6 1_555 1_555
O10_6 C38_6 1_555 1_555
C34_6 C36_6 1_555 1_555
C35_6 C37_6 1_555 1_555
Cd2_4 O20_4 1_555 1_555
O13_4 Cd8_2 1_555 1_555
O15_6 C42_6 1_555 1_555
C40_6 C45_6 1_555 1_555
C46_6 C48_6 1_555 1_555
C47_6 C53_6 1_555 1_555
C50_6 C52_6 1_555 1_555
C51_6 C52_6 1_555 1_555
C51_6 C53_6 1_555 1_555
Cd1_4 O4_6 1_555 1_555
O4_6 C3_6 1_555 1_555
O5_6 Cd1_4 1_555 1_555
O7_6 C23_6 1_555 1_555
O8_6 C24_6 1_555 1_555
N1_6 Cd1_4 1_555 1_555
N2_4 C10_6 1_555 1_555
C3_6 O5_6 1_555 1_555
C4_6 C3_6 1_555 1_555
C7_6 H2_6 1_555 1_555
C8_6 C4_6 1_555 1_555
H3_6 C8_6 1_555 1_555
C9_6 C4_6 1_555 1_555
H4_6 C9_6 1_555 1_555
C10_6 H5_6 1_555 1_555
C11_6 N1_6 1_555 1_555
H6_6 C11_6 1_555 1_555
C14_6 C11_6 1_555 1_555
H9_6 C14_6 1_555 1_555
C15_6 N1_6 1_555 1_555
H10_6 C15_6 1_555 1_555
C16_6 C7_6 1_555 1_555
C17_6 C10_6 1_555 1_555
C18_6 N2_4 1_555 1_555
H12_6 C18_6 1_555 1_555
C21_6 C15_6 1_555 1_555
H13_6 C21_6 1_555 1_555
C22_6 C18_6 1_555 1_555
H14_6 C22_6 1_555 1_555
C23_6 C14_6 1_555 1_555
C24_6 C17_6 1_555 1_555
C25_9 C26_6 1_555 1_555
C26_6 O8_6 1_555 1_555
H16_6 C26_6 1_555 1_555
C27_6 O7_6 1_555 1_555
H17_6 C27_6 1_555 1_555
H18_6 C27_6 1_555 1_555
Cd4 N2_4 1_555 1_555
O17_4 Cd1_4 1_555 1_555
O19_4 Cd1_4 1_555 1_555
N5_4 Cd1_4 1_555 1_555
C7_6 C9_6 1_555 1_555
C8_6 C20_6 1_555 1_555
C16_6 C20_6 1_555 1_555
C21_6 C23_6 1_555 1_555
C22_6 C24_6 1_555 1_555
C25_9 C27_6 1_555 1_555
S1_6 O1_6 1_555 1_555
O2_4 C2_6 1_555 1_555
O3_4 C2_6 1_555 1_555
O6_6 S1_6 1_555 1_555
C1_6 H1_6 1_555 1_555
C2_6 C5_6 1_555 1_555
C5_6 C1_6 1_555 1_555
C6_6 S1_6 1_555 1_555
C12_6 C5_6 1_555 1_555
H7_6 C12_6 1_555 1_555
C13_6 C12_6 1_555 1_555
H8_6 C13_6 1_555 1_555
C19_6 C6_6 1_555 1_555
Cd3_2 O2_4 1_555 1_555
Cd8_2 O3_4 1_555 1_555
O3_4 Cd3_2 1_555 1_555
C1_6 C6_6 1_555 1_555
C13_6 C19_6 1_555 1_555
S2_7 O11_7 1_555 1_555
O18_4 C41_7 1_555 1_555
O20_4 C41_7 1_555 1_555
O16_7 S2_7 1_555 1_555
C40_7 H31_7 1_555 1_555
C41_7 C44_7 1_555 1_555
C44_7 C40_7 1_555 1_555
C45_7 S2_7 1_555 1_555
C49_7 C44_7 1_555 1_555
H35_7 C49_7 1_555 1_555
C50_7 C49_7 1_555 1_555
H36_7 C50_7 1_555 1_555
C52_7 C45_7 1_555 1_555
C40_7 C45_7 1_555 1_555
C50_7 C52_7 1_555 1_555
Cd3_2 O4_7 1_555 1_555
S1_7 O1_7 1_555 1_555
O17_4 C2_7 1_555 1_555
O19_4 C2_7 1_555 1_555
O4_7 C3_7 1_555 1_555
O5_7 Cd3_2 1_555 1_555
O6_7 S1_7 1_555 1_555
O7_7 C23_7 1_555 1_555
O8_7 C24_7 1_555 1_555
N1_7 Cd3_2 1_555 1_555
N5_3 C10_7 1_555 1_555
C1_7 H1_7 1_555 1_555
C2_7 C5_7 1_555 1_555
C3_7 O5_7 1_555 1_555
C4_7 C3_7 1_555 1_555
C5_7 C1_7 1_555 1_555
C6_7 S1_7 1_555 1_555
C7_7 H2_7 1_555 1_555
C8_7 C4_7 1_555 1_555
H3_7 C8_7 1_555 1_555
C9_7 C4_7 1_555 1_555
H4_7 C9_7 1_555 1_555
C10_7 H5_7 1_555 1_555
C11_7 N1_7 1_555 1_555
H6_7 C11_7 1_555 1_555
C12_7 C5_7 1_555 1_555
H7_7 C12_7 1_555 1_555
C13_7 C12_7 1_555 1_555
H8_7 C13_7 1_555 1_555
C14_7 C11_7 1_555 1_555
H9_7 C14_7 1_555 1_555
C15_7 N1_7 1_555 1_555
H10_7 C15_7 1_555 1_555
C16_7 C7_7 1_555 1_555
C17_7 C10_7 1_555 1_555
H11_7 C17_7 1_555 1_555
C18_7 N5_3 1_555 1_555
H12_7 C18_7 1_555 1_555
C19_7 C6_7 1_555 1_555
C20_7 S1_7 1_555 1_555
C21_7 C15_7 1_555 1_555
H13_7 C21_7 1_555 1_555
C22_7 C18_7 1_555 1_555
H14_7 C22_7 1_555 1_555
C23_7 C14_7 1_555 1_555
C24_7 C17_7 1_555 1_555
C25_10 C26_7 1_555 1_555
C26_7 O8_7 1_555 1_555
H15_7 C26_7 1_555 1_555
H16_7 C26_7 1_555 1_555
C27_7 O7_7 1_555 1_555
H17_7 C27_7 1_555 1_555
H18_7 C27_7 1_555 1_555
O9_7 C36_7 1_555 1_555
O10_7 C37_7 1_555 1_555
N3_7 C29_7 1_555 1_555
N6_3 C28_7 1_555 1_555
C28_7 H19_7 1_555 1_555
C29_7 H20_7 1_555 1_555
C30_7 C29_7 1_555 1_555
H21_7 C30_7 1_555 1_555
C31_7 N3_7 1_555 1_555
H22_7 C31_7 1_555 1_555
C32_7 C28_7 1_555 1_555
H23_7 C32_7 1_555 1_555
C33_7 N6_3 1_555 1_555
H24_7 C33_7 1_555 1_555
C34_7 C31_7 1_555 1_555
H25_7 C34_7 1_555 1_555
C35_7 C33_7 1_555 1_555
H26_7 C35_7 1_555 1_555
C36_7 C30_7 1_555 1_555
C37_7 C32_7 1_555 1_555
C38_7 C25_10 1_555 1_555
H27_7 C38_7 1_555 1_555
H28_7 C38_7 1_555 1_555
C39_7 C25_10 1_555 1_555
H29_7 C39_7 1_555 1_555
H30_7 C39_7 1_555 1_555
Cd8_2 N3_7 1_555 1_555
O14_7 Cd8_2 1_555 1_555
O15_7 Cd8_2 1_555 1_555
C42_7 O14_7 1_555 1_555
C43_7 C42_7 1_555 1_555
C46_7 H32_7 1_555 1_555
C47_7 C43_7 1_555 1_555
H33_7 C47_7 1_555 1_555
C48_7 C43_7 1_555 1_555
H34_7 C48_7 1_555 1_555
C51_7 C46_7 1_555 1_555
C1_7 C6_7 1_555 1_555
C7_7 C9_7 1_555 1_555
C8_7 C20_7 1_555 1_555
C13_7 C19_7 1_555 1_555
C16_7 C19_7 1_555 1_555
C16_7 C20_7 1_555 1_555
C21_7 C23_7 1_555 1_555
C22_7 C24_7 1_555 1_555
C25_10 C27_7 1_555 1_555
O9_7 C39_7 1_555 1_555
O10_7 C38_7 1_555 1_555
C34_7 C36_7 1_555 1_555
C35_7 C37_7 1_555 1_555
O15_7 C42_7 1_555 1_555
C46_7 C48_7 1_555 1_555
C47_7 C53_7 1_555 1_555
C51_7 C53_7 1_555 1_555
N6_4 C28_8 1_555 1_555
C28_8 H19_8 1_555 1_555
C32_8 C28_8 1_555 1_555
C33_8 N6_4 1_555 1_555
H24_8 C33_8 1_555 1_555
C35_8 C33_8 1_555 1_555
H26_8 C35_8 1_555 1_555
C37_8 C32_8 1_555 1_555
C35_8 C37_8 1_555 1_555
O9_8 C36_8 1_555 1_555
N3_8 C29_8 1_555 1_555
C29_8 H20_8 1_555 1_555
C30_8 C29_8 1_555 1_555
H21_8 C30_8 1_555 1_555
C31_8 N3_8 1_555 1_555
H22_8 C31_8 1_555 1_555
C34_8 C31_8 1_555 1_555
H25_8 C34_8 1_555 1_555
C36_8 C30_8 1_555 1_555
C38_8 C25_11 1_555 1_555
H28_8 C38_8 1_555 1_555
C39_8 C25_11 1_555 1_555
H29_8 C39_8 1_555 1_555
H30_8 C39_8 1_555 1_555
Cd6 N3_8 1_555 1_555
O14_8 Cd6 1_555 1_555
O15_8 Cd6 1_555 1_555
C42_8 O14_8 1_555 1_555
C43_8 C42_8 1_555 1_555
C46_8 H32_8 1_555 1_555
C47_8 C43_8 1_555 1_555
H33_8 C47_8 1_555 1_555
C48_8 C43_8 1_555 1_555
H34_8 C48_8 1_555 1_555
C51_8 C46_8 1_555 1_555
O9_8 C39_8 1_555 1_555
O10_8 C38_8 1_555 1_555
C34_8 C36_8 1_555 1_555
O15_8 C42_8 1_555 1_555
C46_8 C48_8 1_555 1_555
C47_8 C53_8 1_555 1_555
C51_8 C53_8 1_555 1_555
S2_8 O11_8 1_555 1_555
O18_3 C41_8 1_555 1_555
O20_3 C41_8 1_555 1_555
O16_8 S2_8 1_555 1_555
C40_8 H31_8 1_555 1_555
C41_8 C44_8 1_555 1_555
C44_8 C40_8 1_555 1_555
C45_8 S2_8 1_555 1_555
C49_8 C44_8 1_555 1_555
H35_8 C49_8 1_555 1_555
C50_8 C49_8 1_555 1_555
H36_8 C50_8 1_555 1_555
C52_8 C45_8 1_555 1_555
C40_8 C45_8 1_555 1_555
C50_8 C52_8 1_555 1_555
N5_4 C10_8 1_555 1_555
C10_8 H5_8 1_555 1_555
C17_8 C10_8 1_555 1_555
C18_8 N5_4 1_555 1_555
H12_8 C18_8 1_555 1_555
C22_8 C18_8 1_555 1_555
H14_8 C22_8 1_555 1_555
C24_8 C17_8 1_555 1_555
C22_8 C24_8 1_555 1_555
Cd4 O4_8 1_555 1_555
S1_8 O1_8 1_555 1_555
O17_3 C2_8 1_555 1_555
O19_3 C2_8 1_555 1_555
O4_8 C3_8 1_555 1_555
O5_8 Cd4 1_555 1_555
O6_8 S1_8 1_555 1_555
O7_8 C23_8 1_555 1_555
N1_8 Cd4 1_555 1_555
C1_8 H1_8 1_555 1_555
C2_8 C5_8 1_555 1_555
C3_8 O5_8 1_555 1_555
C4_8 C3_8 1_555 1_555
C5_8 C1_8 1_555 1_555
C6_8 S1_8 1_555 1_555
C7_8 H2_8 1_555 1_555
C8_8 C4_8 1_555 1_555
H3_8 C8_8 1_555 1_555
C9_8 C4_8 1_555 1_555
H4_8 C9_8 1_555 1_555
C11_8 N1_8 1_555 1_555
H6_8 C11_8 1_555 1_555
C12_8 C5_8 1_555 1_555
H7_8 C12_8 1_555 1_555
C13_8 C12_8 1_555 1_555
H8_8 C13_8 1_555 1_555
C14_8 C11_8 1_555 1_555
H9_8 C14_8 1_555 1_555
C15_8 N1_8 1_555 1_555
H10_8 C15_8 1_555 1_555
C16_8 C7_8 1_555 1_555
C19_8 C6_8 1_555 1_555
C20_8 S1_8 1_555 1_555
C21_8 C15_8 1_555 1_555
H13_8 C21_8 1_555 1_555
C23_8 C14_8 1_555 1_555
C25_12 C26_8 1_555 1_555
C26_8 O8_8 1_555 1_555
H16_8 C26_8 1_555 1_555
C27_8 O7_8 1_555 1_555
H17_8 C27_8 1_555 1_555
H18_8 C27_8 1_555 1_555
C1_8 C6_8 1_555 1_555
C7_8 C9_8 1_555 1_555
C8_8 C20_8 1_555 1_555
C13_8 C19_8 1_555 1_555
C16_8 C19_8 1_555 1_555
C16_8 C20_8 1_555 1_555
C21_8 C23_8 1_555 1_555
C25_12 C27_8 1_555 1_555

#END
