
###############################################################################
#
# This file contains modified crystal structure data generated from the
# MOF subset of the Cambridge Structural Database (CSD) v543 
# hosted by the Cambridge Crystallographic Data Centre (CCDC).
#
# This work is licensed under the Creative Commons
# Attribution-NonCommercial-ShareAlike 4.0 International License.
# To view a copy of this license, visit
# http://creativecommons.org/licenses/by-nc-sa/4.0/
# or send a letter to
# Creative Commons, PO Box 1866, Mountain View, CA 94042, USA.
#
# CIF created using the CSD Python API on 29 September 2022
# The structure has been converted into the P1 space group
# The structure has a 3D framework
# The original CSD entry NUFBOH is in the monoclinic crystal system
# The framework has been calculated to contain at least 10.0% void space
# The void calculation uses a probe of radius 1.32A, grid spacing 0.4
# The framework is charged, counterions have been retained in the structure
#
###############################################################################

data_NUFBOH
_chemical_formula_moiety         '(C112 H104 N8 O51 Zn8 1+)n'
_symmetry_cell_setting           triclinic
_symmetry_space_group_name_H-M   'P 1'
_symmetry_Int_Tables_number      1
_space_group_name_Hall           'P 1'
loop_
_symmetry_equiv_pos_site_id
_symmetry_equiv_pos_as_xyz
1 x,y,z
_cell_length_a                   18.3439(3)
_cell_length_b                   8.80900(10)
_cell_length_c                   23.4388(4)
_cell_angle_alpha                90
_cell_angle_beta                 101.965(2)
_cell_angle_gamma                90
_cell_volume                     3705.22
loop_
_atom_site_label
_atom_site_type_symbol
_atom_site_fract_x
_atom_site_fract_y
_atom_site_fract_z
Zn1 Zn 0.42347(2) 0.70336(5) 0.696656(17)
O2 O 0.5000 0.8441(4) 0.7500
O3 O 0.59560(13) 0.5951(3) 0.72867(10)
O4 O 0.81566(12) 0.1297(3) 0.65266(11)
C1 C 0.54861(18) 0.2997(4) 0.61971(14)
H1 H 0.4960 0.3105 0.6095
O5 O 0.82419(12) 0.3501(3) 0.69756(10)
O6 O 0.48394(13) 0.5275(3) 0.67640(11)
C2 C 0.58351(18) 0.1875(4) 0.59322(13)
C4 C 0.66772(17) 0.3799(4) 0.67584(14)
H2 H 0.6965 0.4458 0.7039
C5 C 0.55379(18) 0.5164(4) 0.69109(14)
C6 C 0.66076(18) 0.1722(4) 0.60808(14)
H3 H 0.6848 0.0964 0.5898
C7 C 0.70286(18) 0.2676(4) 0.64967(14)
C8 C 0.54369(17) 0.1181(4) 0.48919(14)
H4 H 0.5741 0.2000 0.4817
C9 C 0.59032(18) 0.3964(4) 0.66109(14)
C10 C 0.53959(17) 0.0871(4) 0.54692(14)
C12 C 0.78591(18) 0.2476(4) 0.66721(14)
H5 H 0.490(3) 0.911(7) 0.778(3)
O8 O 0.56071(14) 0.1784(3) 0.37766(10)
O13 O 0.46674(16) 0.0265(3) 0.33848(11)
C15 C 0.51136(17) 0.0828(4) 0.38091(13)
C23 C 0.50511(17) 0.0341(4) 0.44208(13)
H10 H 0.510(3) 0.911(7) 0.722(3)
Zn2 Zn 0.57653(2) 0.70336(5) 0.803344(17)
Zn4 Zn 0.92347(2) 0.20336(5) 0.696656(17)
Zn6 Zn 0.57653(2) 0.29664(5) 0.303344(17)
O14 O 0.43929(14) 0.8216(3) 0.62234(10)
O15 O 0.56071(14) 0.8216(3) 0.87766(10)
O16 O 0.40440(13) 0.5951(3) 0.77133(10)
O17 O 0.31566(12) 0.6297(3) 0.65266(11)
O18 O 0.68434(12) 0.6297(3) 0.84734(11)
O19 O 0.32419(12) 0.8501(3) 0.69756(10)
O20 O 0.67581(12) 0.8501(3) 0.80244(10)
O21 O 0.51606(13) 0.5275(3) 0.82360(11)
O7 O 0.53326(16) 0.9735(3) 0.66152(11)
C3 C 0.48864(17) 0.9172(4) 0.61909(13)
C11 C 0.49489(17) 0.9659(4) 0.55792(13)
O9 O 0.40440(13) 0.4049(3) 0.27133(10)
O10 O 0.18434(12) 0.8703(3) 0.34734(11)
C13 C 0.45139(18) 0.7003(4) 0.38029(14)
H6 H 0.5040 0.6895 0.3905
O11 O 0.17581(12) 0.6499(3) 0.30244(10)
O12 O 0.51606(13) 0.4725(3) 0.32360(11)
C14 C 0.41649(18) 0.8125(4) 0.40678(13)
C16 C 0.33228(17) 0.6201(4) 0.32416(14)
H7 H 0.3035 0.5542 0.2961
C17 C 0.44621(18) 0.4836(4) 0.30891(14)
C18 C 0.33924(18) 0.8278(4) 0.39192(14)
H8 H 0.3152 0.9036 0.4102
C19 C 0.29714(18) 0.7324(4) 0.35033(14)
C20 C 0.45631(17) 0.8819(4) 0.51081(14)
H9 H 0.4259 0.8000 0.5183
C21 C 0.40968(18) 0.6036(4) 0.33891(14)
C22 C 0.46041(17) 0.9129(4) 0.45308(14)
C24 C 0.21409(18) 0.7524(4) 0.33279(14)
Zn7 Zn 0.42347(2) 0.29664(5) 0.196656(17)
Zn8 Zn 0.07653(2) 0.79664(5) 0.303344(17)
C8_2 C 0.45631(17) 0.1181(4) 0.01081(14)
H4_2 H 0.4259 0.2000 0.0183
O8_2 O 0.43929(14) 0.1784(3) 0.12234(10)
O13_2 O 0.53326(16) 0.0265(3) 0.16152(11)
C15_2 C 0.48864(17) 0.0828(4) 0.11909(13)
C23_2 C 0.49489(17) 0.0341(4) 0.05792(13)
O4_2 O 0.18434(12) 0.1297(3) 0.84734(11)
C1_2 C 0.45139(18) 0.2997(4) 0.88029(14)
H1_2 H 0.5040 0.3105 0.8905
O5_2 O 0.17581(12) 0.3501(3) 0.80244(10)
C2_2 C 0.41649(18) 0.1875(4) 0.90678(13)
C4_2 C 0.33228(17) 0.3799(4) 0.82416(14)
H2_2 H 0.3035 0.4458 0.7961
C5_2 C 0.44621(18) 0.5164(4) 0.80891(14)
C6_2 C 0.33924(18) 0.1722(4) 0.89192(14)
H3_2 H 0.3152 0.0964 0.9102
C7_2 C 0.29714(18) 0.2676(4) 0.85033(14)
C9_2 C 0.40968(18) 0.3964(4) 0.83891(14)
C10_2 C 0.46041(17) 0.0871(4) 0.95308(14)
C12_2 C 0.21409(18) 0.2476(4) 0.83279(14)
Zn4_2 Zn 0.07653(2) 0.20336(5) 0.803344(17)
O9_2 O 0.59560(13) 0.4049(3) 0.22867(10)
O10_2 O 0.81566(12) 0.8703(3) 0.15266(11)
C13_2 C 0.54861(18) 0.7003(4) 0.11971(14)
H6_2 H 0.4960 0.6895 0.1095
O11_2 O 0.82419(12) 0.6499(3) 0.19756(10)
O12_2 O 0.48394(13) 0.4725(3) 0.17640(11)
C14_2 C 0.58351(18) 0.8125(4) 0.09322(13)
C16_2 C 0.66772(17) 0.6201(4) 0.17584(14)
H7_2 H 0.6965 0.5542 0.2039
C17_2 C 0.55379(18) 0.4836(4) 0.19109(14)
C18_2 C 0.66076(18) 0.8278(4) 0.10808(14)
H8_2 H 0.6848 0.9036 0.0898
C19_2 C 0.70286(18) 0.7324(4) 0.14967(14)
C21_2 C 0.59032(18) 0.6036(4) 0.16109(14)
C22_2 C 0.53959(17) 0.9129(4) 0.04692(14)
C24_2 C 0.78591(18) 0.7524(4) 0.16721(14)
Zn8_2 Zn 0.92347(2) 0.79664(5) 0.196656(17)
O7_2 O 0.46674(16) 0.9735(3) 0.83848(11)
C3_2 C 0.51136(17) 0.9172(4) 0.88091(13)
C11_2 C 0.50511(17) 0.9659(4) 0.94208(13)
C20_2 C 0.54369(17) 0.8819(4) 0.98919(14)
H9_2 H 0.5741 0.8000 0.9817
O2_2 O 0.0000 0.3441(4) 0.7500
O3_2 O 0.09560(13) 0.0951(3) 0.72867(10)
C5_3 C 0.05379(18) 0.0164(4) 0.69109(14)
H10_2 H 0.010(3) 0.411(7) 0.722(3)
O15_2 O 0.06071(14) 0.3216(3) 0.87766(10)
O21_2 O 0.01606(13) 0.0275(3) 0.82360(11)
C1_3 C 0.04861(18) 0.7997(4) 0.61971(14)
O7_3 O 0.03326(16) 0.4735(3) 0.66152(11)
C2_3 C 0.08351(18) 0.6875(4) 0.59322(13)
C4_3 C 0.16772(17) 0.8799(4) 0.67584(14)
H2_3 H 0.1965 0.9458 0.7039
C6_3 C 0.16076(18) 0.6722(4) 0.60808(14)
H3_3 H 0.1848 0.5964 0.5898
C7_3 C 0.20286(18) 0.7676(4) 0.64967(14)
C8_3 C 0.04369(17) 0.6181(4) 0.48919(14)
H4_3 H 0.0741 0.7000 0.4817
C9_3 C 0.09032(18) 0.8964(4) 0.66109(14)
C10_3 C 0.03959(17) 0.5871(4) 0.54692(14)
C12_3 C 0.28591(18) 0.7476(4) 0.66721(14)
O8_3 O 0.06071(14) 0.6784(3) 0.37766(10)
H6_3 H 0.0040 0.1895 0.3905
C15_3 C 0.01136(17) 0.5828(4) 0.38091(13)
C23_3 C 0.00511(17) 0.5341(4) 0.44208(13)
O12_3 O 0.01606(13) 0.9725(3) 0.32360(11)
O2_3 O 1.0000 0.3441(4) 0.7500
O6_2 O 0.98394(13) 0.0275(3) 0.67640(11)
H5_2 H 0.990(3) 0.411(7) 0.778(3)
O14_2 O 0.93929(14) 0.3216(3) 0.62234(10)
O16_2 O 0.90440(13) 0.0951(3) 0.77133(10)
H1_3 H 0.9960 0.8105 0.6095
C3_3 C 0.98864(17) 0.4172(4) 0.61909(13)
C11_3 C 0.99489(17) 0.4659(4) 0.55792(13)
O10_3 O 0.68434(12) 0.3703(3) 0.34734(11)
C13_3 C 0.95139(18) 0.2003(4) 0.38029(14)
O11_3 O 0.67581(12) 0.1499(3) 0.30244(10)
O13_3 O 0.96674(16) 0.5265(3) 0.33848(11)
C14_3 C 0.91649(18) 0.3125(4) 0.40678(13)
C16_3 C 0.83228(17) 0.1201(4) 0.32416(14)
H7_3 H 0.8035 0.0542 0.2961
C18_3 C 0.83924(18) 0.3278(4) 0.39192(14)
H8_3 H 0.8152 0.4036 0.4102
C19_3 C 0.79714(18) 0.2324(4) 0.35033(14)
C20_3 C 0.95631(17) 0.3819(4) 0.51081(14)
H9_3 H 0.9259 0.3000 0.5183
C21_3 C 0.90968(18) 0.1036(4) 0.33891(14)
C22_3 C 0.96041(17) 0.4129(4) 0.45308(14)
C24_3 C 0.71409(18) 0.2524(4) 0.33279(14)
O9_3 O 0.90440(13) 0.9049(3) 0.27133(10)
C17_3 C 0.94621(18) 0.9836(4) 0.30891(14)
O10_4 O 0.31566(12) 0.3703(3) 0.15266(11)
C13_4 C 0.04861(18) 0.2003(4) 0.11971(14)
O11_4 O 0.32419(12) 0.1499(3) 0.19756(10)
O13_4 O 0.03326(16) 0.5265(3) 0.16152(11)
C14_4 C 0.08351(18) 0.3125(4) 0.09322(13)
C16_4 C 0.16772(17) 0.1201(4) 0.17584(14)
H7_4 H 0.1965 0.0542 0.2039
C18_4 C 0.16076(18) 0.3278(4) 0.10808(14)
H8_4 H 0.1848 0.4036 0.0898
C19_4 C 0.20286(18) 0.2324(4) 0.14967(14)
C21_4 C 0.09032(18) 0.1036(4) 0.16109(14)
C22_4 C 0.03959(17) 0.4129(4) 0.04692(14)
C24_4 C 0.28591(18) 0.2524(4) 0.16721(14)
H1_4 H 0.0040 0.8105 0.8905
C3_4 C 0.01136(17) 0.4172(4) 0.88091(13)
C11_4 C 0.00511(17) 0.4659(4) 0.94208(13)
C20_4 C 0.04369(17) 0.3819(4) 0.98919(14)
H9_4 H 0.0741 0.3000 0.9817
O9_4 O 0.09560(13) 0.9049(3) 0.22867(10)
C17_4 C 0.05379(18) 0.9836(4) 0.19109(14)
C5_4 C 0.94621(18) 0.0164(4) 0.80891(14)
C8_4 C 0.95631(17) 0.6181(4) 0.01081(14)
H4_4 H 0.9259 0.7000 0.0183
O8_4 O 0.93929(14) 0.6784(3) 0.12234(10)
H6_4 H 0.9960 0.1895 0.1095
C15_4 C 0.98864(17) 0.5828(4) 0.11909(13)
C23_4 C 0.99489(17) 0.5341(4) 0.05792(13)
C1_4 C 0.95139(18) 0.7997(4) 0.88029(14)
O7_4 O 0.96674(16) 0.4735(3) 0.83848(11)
C2_4 C 0.91649(18) 0.6875(4) 0.90678(13)
C4_4 C 0.83228(17) 0.8799(4) 0.82416(14)
H2_4 H 0.8035 0.9458 0.7961
C6_4 C 0.83924(18) 0.6722(4) 0.89192(14)
H3_4 H 0.8152 0.5964 0.9102
C7_4 C 0.79714(18) 0.7676(4) 0.85033(14)
C9_4 C 0.90968(18) 0.8964(4) 0.83891(14)
C10_4 C 0.96041(17) 0.5871(4) 0.95308(14)
C12_4 C 0.71409(18) 0.7476(4) 0.83279(14)
O12_4 O 0.98394(13) 0.9725(3) 0.17640(11)
O2_4 O 0.5000 0.1559(4) 0.2500
H5_3 H 0.510(3) 0.089(7) 0.222(3)
H10_3 H 0.490(3) 0.089(7) 0.278(3)
O2_5 O 0.0000 0.6559(4) 0.2500
H5_4 H 0.010(3) 0.589(7) 0.222(3)
O2_6 O 1.0000 0.6559(4) 0.2500
H10_4 H 0.990(3) 0.589(7) 0.278(3)
C25 C 0.6058(3) 0.8008(5) 0.2945(2)
H11 H 0.6061 0.8219 0.2535
H12 H 0.5657 0.8587 0.3062
H13 H 0.5977 0.6921 0.2995
N1 N 0.6778(2) 0.8455(5) 0.33106(18)
H14 H 0.6751 0.8368 0.3697
H15 H 0.6868 0.9458 0.3240
C26 C 0.7417(3) 0.7522(6) 0.3204(2)
H16 H 0.7466 0.7647 0.2798
H17 H 0.7327 0.6450 0.3278
H18 H 0.7877 0.7856 0.3465
C25_2 C 0.3942(3) 0.8008(5) 0.2055(2)
H11_2 H 0.3939 0.8219 0.2465
H12_2 H 0.4343 0.8587 0.1938
H13_2 H 0.4023 0.6921 0.2005
N1_2 N 0.3222(2) 0.8455(5) 0.16894(18)
H14_2 H 0.3249 0.8368 0.1303
H15_2 H 0.3132 0.9458 0.1760
C26_2 C 0.2583(3) 0.7522(6) 0.1796(2)
H16_2 H 0.2534 0.7647 0.2202
H17_2 H 0.2673 0.6450 0.1722
H18_2 H 0.2123 0.7856 0.1535
C25_3 C 0.1058(3) 0.3008(5) 0.2945(2)
H11_3 H 0.1061 0.3219 0.2535
H12_3 H 0.0657 0.3587 0.3062
H13_3 H 0.0977 0.1921 0.2995
N1_3 N 0.1778(2) 0.3455(5) 0.33106(18)
H14_3 H 0.1751 0.3368 0.3697
H15_3 H 0.1868 0.4458 0.3240
C26_3 C 0.2417(3) 0.2522(6) 0.3204(2)
H16_3 H 0.2466 0.2647 0.2798
H17_3 H 0.2327 0.1450 0.3278
H18_3 H 0.2877 0.2856 0.3465
C25_4 C 0.8942(3) 0.3008(5) 0.2055(2)
H11_4 H 0.8939 0.3219 0.2465
H12_4 H 0.9343 0.3587 0.1938
H13_4 H 0.9023 0.1921 0.2005
N1_4 N 0.8222(2) 0.3455(5) 0.16894(18)
H14_4 H 0.8249 0.3368 0.1303
H15_4 H 0.8132 0.4458 0.1760
C26_4 C 0.7583(3) 0.2522(6) 0.1796(2)
H16_4 H 0.7534 0.2647 0.2202
H17_4 H 0.7673 0.1450 0.1722
H18_4 H 0.7123 0.2856 0.1535
C25_5 C 0.3942(3) 0.1992(5) 0.7055(2)
H11_5 H 0.3939 0.1781 0.7465
H12_5 H 0.4343 0.1413 0.6938
H13_5 H 0.4023 0.3079 0.7005
N1_5 N 0.3222(2) 0.1545(5) 0.66894(18)
H14_5 H 0.3249 0.1632 0.6303
H15_5 H 0.3132 0.0542 0.6760
C26_5 C 0.2583(3) 0.2478(6) 0.6796(2)
H16_5 H 0.2534 0.2353 0.7202
H17_5 H 0.2673 0.3550 0.6722
H18_5 H 0.2123 0.2144 0.6535
C25_6 C 0.6058(3) 0.1992(5) 0.7945(2)
H11_6 H 0.6061 0.1781 0.7535
H12_6 H 0.5657 0.1413 0.8062
H13_6 H 0.5977 0.3079 0.7995
N1_6 N 0.6778(2) 0.1545(5) 0.83106(18)
H14_6 H 0.6751 0.1632 0.8697
H15_6 H 0.6868 0.0542 0.8240
C26_6 C 0.7417(3) 0.2478(6) 0.8204(2)
H16_6 H 0.7466 0.2353 0.7798
H17_6 H 0.7327 0.3550 0.8278
H18_6 H 0.7877 0.2144 0.8465
C25_7 C 0.8942(3) 0.6992(5) 0.7055(2)
H11_7 H 0.8939 0.6781 0.7465
H12_7 H 0.9343 0.6413 0.6938
H13_7 H 0.9023 0.8079 0.7005
N1_7 N 0.8222(2) 0.6545(5) 0.66894(18)
H14_7 H 0.8249 0.6632 0.6303
H15_7 H 0.8132 0.5542 0.6760
C26_7 C 0.7583(3) 0.7478(6) 0.6796(2)
H16_7 H 0.7534 0.7353 0.7202
H17_7 H 0.7673 0.8550 0.6722
H18_7 H 0.7123 0.7144 0.6535
C25_8 C 0.1058(3) 0.6992(5) 0.7945(2)
H11_8 H 0.1061 0.6781 0.7535
H12_8 H 0.0657 0.6413 0.8062
H13_8 H 0.0977 0.8079 0.7995
N1_8 N 0.1778(2) 0.6545(5) 0.83106(18)
H14_8 H 0.1751 0.6632 0.8697
H15_8 H 0.1868 0.5542 0.8240
C26_8 C 0.2417(3) 0.7478(6) 0.8204(2)
H16_8 H 0.2466 0.7353 0.7798
H17_8 H 0.2327 0.8550 0.8278
H18_8 H 0.2877 0.7144 0.8465
loop_
_geom_bond_atom_site_label_1
_geom_bond_atom_site_label_2
_geom_bond_site_symmetry_1
_geom_bond_site_symmetry_2
Zn1 O2 1_555 1_555
O2 H5 1_555 1_555
O3 C5 1_555 1_555
O4 C12 1_555 1_555
C1 H1 1_555 1_555
O5 C12 1_555 1_555
O6 Zn1 1_555 1_555
C2 C1 1_555 1_555
C4 H2 1_555 1_555
C5 O6 1_555 1_555
C6 C2 1_555 1_555
H3 C6 1_555 1_555
C7 C4 1_555 1_555
C8 H4 1_555 1_555
C9 C1 1_555 1_555
C10 C2 1_555 1_555
C12 C7 1_555 1_555
O8 C15 1_555 1_555
O13 C15 1_555 1_555
C15 C23 1_555 1_555
C23 C8 1_555 1_555
H10 O2 1_555 1_555
Zn2 O2 1_555 1_555
Zn4 O4 1_555 1_555
Zn6 O8 1_555 1_555
O14 Zn1 1_555 1_555
O15 Zn2 1_555 1_555
O16 Zn1 1_555 1_555
O17 Zn1 1_555 1_555
O18 Zn2 1_555 1_555
O19 Zn1 1_555 1_555
O20 Zn2 1_555 1_555
O21 Zn2 1_555 1_555
O3 Zn2 1_555 1_555
O5 Zn4 1_555 1_555
C4 C9 1_555 1_555
C5 C9 1_555 1_555
C6 C7 1_555 1_555
C8 C10 1_555 1_555
O14 C3 1_555 1_555
O7 C3 1_555 1_555
C3 C11 1_555 1_555
O9 C17 1_555 1_555
O10 C24 1_555 1_555
C13 H6 1_555 1_555
O11 C24 1_555 1_555
O12 C17 1_555 1_555
C14 C13 1_555 1_555
C16 H7 1_555 1_555
C17 C21 1_555 1_555
C18 C14 1_555 1_555
H8 C18 1_555 1_555
C19 C16 1_555 1_555
C20 C11 1_555 1_555
H9 C20 1_555 1_555
C21 C13 1_555 1_555
C22 C14 1_555 1_555
C24 C19 1_555 1_555
Zn6 O12 1_555 1_555
Zn7 O9 1_555 1_555
Zn8 O10 1_555 1_555
O11 Zn8 1_555 1_555
C16 C21 1_555 1_555
C18 C19 1_555 1_555
C20 C22 1_555 1_555
C8_2 H4_2 1_555 1_555
O8_2 C15_2 1_555 1_555
O13_2 C15_2 1_555 1_555
C15_2 C23_2 1_555 1_555
C23_2 C8_2 1_555 1_555
Zn7 O8_2 1_555 1_555
O16 C5_2 1_555 1_555
O4_2 C12_2 1_555 1_555
C1_2 H1_2 1_555 1_555
O5_2 C12_2 1_555 1_555
C2_2 C1_2 1_555 1_555
C4_2 H2_2 1_555 1_555
C5_2 O21 1_555 1_555
C6_2 C2_2 1_555 1_555
H3_2 C6_2 1_555 1_555
C7_2 C4_2 1_555 1_555
C9_2 C1_2 1_555 1_555
C10_2 C2_2 1_555 1_555
C12_2 C7_2 1_555 1_555
Zn4_2 O4_2 1_555 1_555
O5_2 Zn4_2 1_555 1_555
C4_2 C9_2 1_555 1_555
C5_2 C9_2 1_555 1_555
C6_2 C7_2 1_555 1_555
O9_2 C17_2 1_555 1_555
O10_2 C24_2 1_555 1_555
C13_2 H6_2 1_555 1_555
O11_2 C24_2 1_555 1_555
O12_2 C17_2 1_555 1_555
C14_2 C13_2 1_555 1_555
C16_2 H7_2 1_555 1_555
C17_2 C21_2 1_555 1_555
C18_2 C14_2 1_555 1_555
H8_2 C18_2 1_555 1_555
C19_2 C16_2 1_555 1_555
C21_2 C13_2 1_555 1_555
C22_2 C14_2 1_555 1_555
C24_2 C19_2 1_555 1_555
Zn7 O12_2 1_555 1_555
Zn6 O9_2 1_555 1_555
Zn8_2 O10_2 1_555 1_555
O11_2 Zn8_2 1_555 1_555
C16_2 C21_2 1_555 1_555
C18_2 C19_2 1_555 1_555
O15 C3_2 1_555 1_555
O7_2 C3_2 1_555 1_555
C3_2 C11_2 1_555 1_555
C20_2 C11_2 1_555 1_555
H9_2 C20_2 1_555 1_555
O3_2 C5_3 1_555 1_555
H10_2 O2_2 1_555 1_555
Zn4_2 O2_2 1_555 1_555
O15_2 Zn4_2 1_555 1_555
O21_2 Zn4_2 1_555 1_555
O3_2 Zn4_2 1_555 1_555
O17 C12_3 1_555 1_555
O19 C12_3 1_555 1_555
C2_3 C1_3 1_555 1_555
C4_3 H2_3 1_555 1_555
C6_3 C2_3 1_555 1_555
H3_3 C6_3 1_555 1_555
C7_3 C4_3 1_555 1_555
C8_3 H4_3 1_555 1_555
C9_3 C1_3 1_555 1_555
C10_3 C2_3 1_555 1_555
C12_3 C7_3 1_555 1_555
O8_3 C15_3 1_555 1_555
C15_3 C23_3 1_555 1_555
C23_3 C8_3 1_555 1_555
Zn8 O8_3 1_555 1_555
C4_3 C9_3 1_555 1_555
C6_3 C7_3 1_555 1_555
C8_3 C10_3 1_555 1_555
Zn8 O12_3 1_555 1_555
Zn4 O2_3 1_555 1_555
O2_3 H5_2 1_555 1_555
O6_2 Zn4 1_555 1_555
O14_2 Zn4 1_555 1_555
O16_2 Zn4 1_555 1_555
O14_2 C3_3 1_555 1_555
C3_3 C11_3 1_555 1_555
O10_3 C24_3 1_555 1_555
O11_3 C24_3 1_555 1_555
C14_3 C13_3 1_555 1_555
C16_3 H7_3 1_555 1_555
C18_3 C14_3 1_555 1_555
H8_3 C18_3 1_555 1_555
C19_3 C16_3 1_555 1_555
C20_3 C11_3 1_555 1_555
H9_3 C20_3 1_555 1_555
C21_3 C13_3 1_555 1_555
C22_3 C14_3 1_555 1_555
C24_3 C19_3 1_555 1_555
Zn6 O10_3 1_555 1_555
O11_3 Zn6 1_555 1_555
C16_3 C21_3 1_555 1_555
C18_3 C19_3 1_555 1_555
C20_3 C22_3 1_555 1_555
O9_3 C17_3 1_555 1_555
Zn8_2 O9_3 1_555 1_555
O10_4 C24_4 1_555 1_555
O11_4 C24_4 1_555 1_555
C14_4 C13_4 1_555 1_555
C16_4 H7_4 1_555 1_555
C18_4 C14_4 1_555 1_555
H8_4 C18_4 1_555 1_555
C19_4 C16_4 1_555 1_555
C21_4 C13_4 1_555 1_555
C22_4 C14_4 1_555 1_555
C24_4 C19_4 1_555 1_555
Zn7 O10_4 1_555 1_555
O11_4 Zn7 1_555 1_555
C16_4 C21_4 1_555 1_555
C18_4 C19_4 1_555 1_555
O15_2 C3_4 1_555 1_555
C3_4 C11_4 1_555 1_555
C20_4 C11_4 1_555 1_555
H9_4 C20_4 1_555 1_555
O9_4 C17_4 1_555 1_555
Zn8 O9_4 1_555 1_555
O16_2 C5_4 1_555 1_555
C8_4 H4_4 1_555 1_555
O8_4 C15_4 1_555 1_555
C15_4 C23_4 1_555 1_555
C23_4 C8_4 1_555 1_555
Zn8_2 O8_4 1_555 1_555
O18 C12_4 1_555 1_555
O20 C12_4 1_555 1_555
C2_4 C1_4 1_555 1_555
C4_4 H2_4 1_555 1_555
C6_4 C2_4 1_555 1_555
H3_4 C6_4 1_555 1_555
C7_4 C4_4 1_555 1_555
C9_4 C1_4 1_555 1_555
C10_4 C2_4 1_555 1_555
C12_4 C7_4 1_555 1_555
C4_4 C9_4 1_555 1_555
C6_4 C7_4 1_555 1_555
Zn8_2 O12_4 1_555 1_555
Zn6 O2_4 1_555 1_555
O2_4 H5_3 1_555 1_555
H10_3 O2_4 1_555 1_555
Zn7 O2_4 1_555 1_555
Zn8 O2_5 1_555 1_555
O2_5 H5_4 1_555 1_555
H10_4 O2_6 1_555 1_555
Zn8_2 O2_6 1_555 1_555
C25 H11 1_555 1_555
H12 C25 1_555 1_555
H13 C25 1_555 1_555
N1 C25 1_555 1_555
H14 N1 1_555 1_555
H15 N1 1_555 1_555
C26 N1 1_555 1_555
H16 C26 1_555 1_555
H17 C26 1_555 1_555
H18 C26 1_555 1_555
C25_2 H11_2 1_555 1_555
H12_2 C25_2 1_555 1_555
H13_2 C25_2 1_555 1_555
N1_2 C25_2 1_555 1_555
H14_2 N1_2 1_555 1_555
H15_2 N1_2 1_555 1_555
C26_2 N1_2 1_555 1_555
H16_2 C26_2 1_555 1_555
H17_2 C26_2 1_555 1_555
H18_2 C26_2 1_555 1_555
C25_3 H11_3 1_555 1_555
H12_3 C25_3 1_555 1_555
H13_3 C25_3 1_555 1_555
N1_3 C25_3 1_555 1_555
H14_3 N1_3 1_555 1_555
H15_3 N1_3 1_555 1_555
C26_3 N1_3 1_555 1_555
H16_3 C26_3 1_555 1_555
H17_3 C26_3 1_555 1_555
H18_3 C26_3 1_555 1_555
C25_4 H11_4 1_555 1_555
H12_4 C25_4 1_555 1_555
H13_4 C25_4 1_555 1_555
N1_4 C25_4 1_555 1_555
H14_4 N1_4 1_555 1_555
H15_4 N1_4 1_555 1_555
C26_4 N1_4 1_555 1_555
H16_4 C26_4 1_555 1_555
H17_4 C26_4 1_555 1_555
H18_4 C26_4 1_555 1_555
C25_5 H11_5 1_555 1_555
H12_5 C25_5 1_555 1_555
H13_5 C25_5 1_555 1_555
N1_5 C25_5 1_555 1_555
H14_5 N1_5 1_555 1_555
H15_5 N1_5 1_555 1_555
C26_5 N1_5 1_555 1_555
H16_5 C26_5 1_555 1_555
H17_5 C26_5 1_555 1_555
H18_5 C26_5 1_555 1_555
C25_6 H11_6 1_555 1_555
H12_6 C25_6 1_555 1_555
H13_6 C25_6 1_555 1_555
N1_6 C25_6 1_555 1_555
H14_6 N1_6 1_555 1_555
H15_6 N1_6 1_555 1_555
C26_6 N1_6 1_555 1_555
H16_6 C26_6 1_555 1_555
H17_6 C26_6 1_555 1_555
H18_6 C26_6 1_555 1_555
C25_7 H11_7 1_555 1_555
H12_7 C25_7 1_555 1_555
H13_7 C25_7 1_555 1_555
N1_7 C25_7 1_555 1_555
H14_7 N1_7 1_555 1_555
H15_7 N1_7 1_555 1_555
C26_7 N1_7 1_555 1_555
H16_7 C26_7 1_555 1_555
H17_7 C26_7 1_555 1_555
H18_7 C26_7 1_555 1_555
C25_8 H11_8 1_555 1_555
H12_8 C25_8 1_555 1_555
H13_8 C25_8 1_555 1_555
N1_8 C25_8 1_555 1_555
H14_8 N1_8 1_555 1_555
H15_8 N1_8 1_555 1_555
C26_8 N1_8 1_555 1_555
H16_8 C26_8 1_555 1_555
H17_8 C26_8 1_555 1_555
H18_8 C26_8 1_555 1_555

#END
