
###############################################################################
#
# This file contains modified crystal structure data generated from the
# MOF subset of the Cambridge Structural Database (CSD) v543 
# hosted by the Cambridge Crystallographic Data Centre (CCDC).
#
# This work is licensed under the Creative Commons
# Attribution-NonCommercial-ShareAlike 4.0 International License.
# To view a copy of this license, visit
# http://creativecommons.org/licenses/by-nc-sa/4.0/
# or send a letter to
# Creative Commons, PO Box 1866, Mountain View, CA 94042, USA.
#
# CIF created using the CSD Python API on 29 September 2022
# The structure has been converted into the P1 space group
# The structure has a 3D framework
# The original CSD entry NUFBEX is in the triclinic crystal system
# The framework has been calculated to contain at least 10.0% void space
# The void calculation uses a probe of radius 1.32A, grid spacing 0.4
# The framework is charged, counterions have been retained in the structure
# H atom positions have been added when not included in the experimental data
# Generated hydrogen atom positions removed from atoms on special positions
#
###############################################################################

data_NUFBEX
_chemical_formula_moiety         '(C48 H28 O22 Zn7 2-)n'
_symmetry_cell_setting           triclinic
_symmetry_space_group_name_H-M   'P 1'
_symmetry_Int_Tables_number      1
_space_group_name_Hall           'P 1'
loop_
_symmetry_equiv_pos_site_id
_symmetry_equiv_pos_as_xyz
1 x,y,z
_cell_length_a                   9.3789(3)
_cell_length_b                   10.9247(4)
_cell_length_c                   18.8993(6)
_cell_angle_alpha                104.858(3)
_cell_angle_beta                 94.314(2)
_cell_angle_gamma                107.714(3)
_cell_volume                     1758.1
loop_
_atom_site_label
_atom_site_type_symbol
_atom_site_fract_x
_atom_site_fract_y
_atom_site_fract_z
Zn9 Zn 0.0000 0.0000 0.0000
Zn9_2 Zn 0.0000 0.0000 1.0000
Zn9_3 Zn 0.0000 1.0000 0.0000
Zn9_4 Zn 0.0000 1.0000 1.0000
Zn9_5 Zn 1.0000 0.0000 0.0000
Zn11 Zn 0.31589(4) 0.03581(4) 0.137863(19)
Zn9_6 Zn 1.0000 0.0000 1.0000
C39 C 0.4111(3) 0.5829(3) 0.09106(16)
H16 H 0.3587 0.5273 0.1187
C40 C 0.3288(3) 0.6165(3) 0.03877(15)
C41 C 0.6463(3) 0.7125(3) 0.06395(16)
H17 H 0.7541 0.7468 0.0732
C42 C 0.5660(3) 0.7454(3) 0.01077(15)
C43 C 0.1597(3) 0.5606(3) 0.02190(15)
C44 C 0.5691(3) 0.6301(3) 0.10317(16)
O23 O 0.8026(3) 0.6297(3) 0.15792(15)
C45 C 0.0695(3) 0.6353(3) 0.00736(15)
C46 C 0.0876(3) 0.4256(3) 0.01514(15)
H18 H 0.1463 0.3735 0.0260
C47 C 0.1288(3) 0.7858(3) 0.02589(15)
C48 C 0.6595(4) 0.5896(4) 0.15678(19)
O24 O 0.5949(3) 0.5228(4) 0.1953(2)
O26 O 0.2106(2) 0.84414(19) 0.08923(11)
Zn9_7 Zn 1.0000 1.0000 0.0000
Zn16 Zn 0.95579(5) 0.63405(5) 0.23207(3)
O21 O 0.7900(2) 0.8472(2) 0.96746(12)
O22 O 0.5731(2) 0.8620(2) 0.92154(13)
C37 C 0.4082(3) 0.6982(3) 0.99853(15)
H15 H 0.3539 0.7215 0.9625
C38 C 0.6502(3) 0.8256(3) 0.96448(15)
O25 O 0.0893(2) 0.84168(18) 0.98190(11)
Zn9_8 Zn 1.0000 1.0000 1.0000
Zn14 Zn 0.68411(4) 0.96419(4) 0.862137(19)
O2 O 0.2100(2) 0.1528(2) 0.03254(12)
O3 O 0.4269(2) 0.1380(2) 0.07846(13)
O4 O 0.1737(2) 0.0806(2) 0.20025(12)
C1 C 0.5918(3) 0.3018(3) 0.00147(15)
H1 H 0.6461 0.2785 0.0375
C2 C 0.3498(3) 0.1744(3) 0.03552(15)
C4 C 0.0310(3) 0.0328(3) 0.17492(15)
H5 H 0.0854 0.0264 0.3141
O5 O 0.9107(2) 0.15832(18) 0.01810(11)
O15 O 0.0273(2) 0.0031(2) 0.89148(10)
C28 C 0.3200(3) 0.0085(3) 0.73584(16)
O18 O 0.5826(3) 0.0844(4) 0.72800(16)
O19 O 0.0735(3) 0.2668(3) 0.67197(16)
C30 C 0.4818(3) 0.0184(4) 0.75532(17)
C31 C 0.2674(3) 0.0148(4) 0.66586(17)
H13 H 0.3348 0.0269 0.6312
C32 C 0.1164(4) 0.0033(4) 0.64731(17)
C33 C 0.0595(4) 0.0053(4) 0.57199(18)
Zn15 Zn 0.04421(5) 0.36595(5) 0.76793(3)
O36 O 0.4975(2) 0.0447(3) 0.19886(13)
C3 C 0.5889(3) 0.4171(3) 0.90894(16)
H2 H 0.6413 0.4727 0.8813
C5 C 0.6712(3) 0.3835(3) 0.96123(15)
C7 C 0.3537(3) 0.2875(3) 0.93605(16)
H4 H 0.2459 0.2532 0.9268
C9 C 0.4340(3) 0.2546(3) 0.98923(15)
C10 C 0.8403(3) 0.4394(3) 0.97810(15)
C13 C 0.4309(3) 0.3699(3) 0.89683(16)
O6 O 0.7894(2) 0.15586(19) 0.91077(11)
O8 O 0.1974(3) 0.3703(3) 0.84208(15)
C14 C 0.9305(3) 0.3647(3) 0.99264(15)
C15 C 0.9124(3) 0.5744(3) 0.98486(15)
H6 H 0.8537 0.6265 0.9740
C16 C 0.8712(3) 0.2142(3) 0.97411(15)
C17 C 0.3405(4) 0.4104(4) 0.84322(19)
O12 O 0.4051(3) 0.4772(4) 0.8047(2)
O13 O 0.0357(5) 0.5405(4) 0.7631(3)
C22 C 0.0835(4) 0.9198(5) 0.5103(2)
H8 H 0.1418 0.8649 0.5169
C23 C 0.0252(4) 0.9108(5) 0.4384(2)
O14 O 0.1726(4) 0.7957(5) 0.37184(18)
C24 C 0.0454(5) 0.8065(5) 0.3752(2)
C26 C 0.2226(3) 0.9919(3) 0.78682(15)
H11 H 0.2586 0.9875 0.8341
C27 C 0.0724(3) 0.9817(3) 0.76873(15)
C29 C 0.0185(3) 0.9845(4) 0.69875(17)
O17 O 0.5025(2) 0.9553(3) 0.80114(13)
O27 O 0.1445(3) 0.7298(4) 0.20279(16)
H19 H 0.111(6) 0.795(4) 0.220(2)
H20 H 0.177(6) 0.730(4) 0.1614(15)
O32 O 0.8263(2) 0.9194(2) 0.79975(12)
C6 C 0.7774(3) 0.0081(3) 0.21318(15)
H3 H 0.7414 0.0125 0.1659
C8 C 0.9276(3) 0.0183(3) 0.23127(15)
C12 C 0.9815(3) 0.0155(4) 0.30125(17)
C34 C 0.9165(4) 0.0802(5) 0.4897(2)
H14 H 0.8582 0.1351 0.4831
C35 C 0.9748(4) 0.0892(5) 0.5616(2)
O20 O 0.8274(4) 0.2043(5) 0.62816(18)
C36 C 0.9546(5) 0.1935(5) 0.6248(2)
O11 O 0.8555(3) 0.2702(4) 0.79721(16)
H9 H 0.889(6) 0.205(4) 0.780(2)
H10 H 0.823(6) 0.270(4) 0.8386(15)
H22 H 0.952633 0.526601 0.722939
O1 O 0.9727(2) 0.9969(2) 0.10852(10)
C11 C 0.6800(3) 0.9915(3) 0.26416(16)
O9 O 0.4174(3) 0.9156(4) 0.27200(16)
O10 O 0.9265(3) 0.7332(3) 0.32803(16)
C18 C 0.5182(3) 0.9816(4) 0.24468(17)
C19 C 0.7326(3) 0.9852(4) 0.33414(17)
H7 H 0.6652 0.9731 0.3688
C20 C 0.8836(4) 0.9967(4) 0.35269(17)
C21 C 0.9405(4) 0.9947(4) 0.42801(18)
C25 C 0.9690(3) 0.9672(3) 0.82508(15)
H12 H 0.9146 0.9736 0.6859
O28 O 0.9643(5) 0.4595(4) 0.2369(3)
H22_2 H 0.0473666 0.473399 0.277061
loop_
_geom_bond_atom_site_label_1
_geom_bond_atom_site_label_2
_geom_bond_site_symmetry_1
_geom_bond_site_symmetry_2
C39 H16 1_555 1_555
C41 H17 1_555 1_555
C43 C40 1_555 1_555
C44 C39 1_555 1_555
O23 C48 1_555 1_555
H18 C46 1_555 1_555
C47 C45 1_555 1_555
C48 C44 1_555 1_555
O24 C48 1_555 1_555
O26 C47 1_555 1_555
Zn16 O23 1_555 1_555
C39 C40 1_555 1_555
C41 C42 1_555 1_555
C41 C44 1_555 1_555
C43 C45 1_555 1_555
C43 C46 1_555 1_555
O21 C38 1_555 1_555
O22 C38 1_555 1_555
C37 H15 1_555 1_555
Zn9_4 O25 1_555 1_555
Zn9_8 O21 1_555 1_555
Zn14 O22 1_555 1_555
Zn11 O3 1_555 1_555
O2 Zn9 1_555 1_555
O3 C2 1_555 1_555
O4 Zn11 1_555 1_555
C1 H1 1_555 1_555
C2 O2 1_555 1_555
C4 O4 1_555 1_555
O18 C30 1_555 1_555
C30 C28 1_555 1_555
C31 C28 1_555 1_555
H13 C31 1_555 1_555
Zn9_2 O15 1_555 1_555
Zn9_5 O5 1_555 1_555
Zn15 O19 1_555 1_555
O36 Zn11 1_555 1_555
C31 C32 1_555 1_555
C32 C33 1_555 1_555
Zn15 O8 1_555 1_555
C3 H2 1_555 1_555
C7 H4 1_555 1_555
C10 C5 1_555 1_555
C13 C3 1_555 1_555
O6 C16 1_555 1_555
O8 C17 1_555 1_555
C14 C10 1_555 1_555
C15 C10 1_555 1_555
H6 C15 1_555 1_555
C16 C14 1_555 1_555
C17 C13 1_555 1_555
O12 C17 1_555 1_555
O13 Zn15 1_555 1_555
C3 C5 1_555 1_555
C7 C9 1_555 1_555
C7 C13 1_555 1_555
C22 H8 1_555 1_555
O14 C24 1_555 1_555
C24 C23 1_555 1_555
C26 H11 1_555 1_555
C27 C26 1_555 1_555
C29 C27 1_555 1_555
H19 O27 1_555 1_555
H20 O27 1_555 1_555
Zn14 O17 1_555 1_555
C22 C23 1_555 1_555
O32 Zn14 1_555 1_555
C6 H3 1_555 1_555
C12 C8 1_555 1_555
H14 C34 1_555 1_555
O20 C36 1_555 1_555
C36 C35 1_555 1_555
C6 C8 1_555 1_555
C34 C35 1_555 1_555
H9 O11 1_555 1_555
H10 O11 1_555 1_555
Zn9_7 O1 1_555 1_555
O9 C18 1_555 1_555
C18 C11 1_555 1_555
C19 C11 1_555 1_555
H7 C19 1_555 1_555
C21 C20 1_555 1_555
O32 C25 1_555 1_555
Zn16 O10 1_555 1_555
O28 Zn16 1_555 1_555
C19 C20 1_555 1_555

#END
