
###############################################################################
#
# This file contains modified crystal structure data generated from the
# MOF subset of the Cambridge Structural Database (CSD) v543 
# hosted by the Cambridge Crystallographic Data Centre (CCDC).
#
# This work is licensed under the Creative Commons
# Attribution-NonCommercial-ShareAlike 4.0 International License.
# To view a copy of this license, visit
# http://creativecommons.org/licenses/by-nc-sa/4.0/
# or send a letter to
# Creative Commons, PO Box 1866, Mountain View, CA 94042, USA.
#
# CIF created using the CSD Python API on 29 September 2022
# The structure has been converted into the P1 space group
# The structure has a 3D framework
# The original CSD entry NUFBUN is in the monoclinic crystal system
# The framework has been calculated to contain at least 10.0% void space
# The void calculation uses a probe of radius 1.32A, grid spacing 0.4
# H atom positions have been added when not included in the experimental data
# Generated hydrogen atom positions removed from atoms on special positions
#
###############################################################################

data_NUFBUN
_chemical_formula_moiety         '(C64 H60 N4 O40 Zn8)n'
_symmetry_cell_setting           triclinic
_symmetry_space_group_name_H-M   'P 1'
_symmetry_Int_Tables_number      1
_space_group_name_Hall           'P 1'
loop_
_symmetry_equiv_pos_site_id
_symmetry_equiv_pos_as_xyz
1 x,y,z
_cell_length_a                   12.024(3)
_cell_length_b                   13.773(4)
_cell_length_c                   15.850(4)
_cell_angle_alpha                90
_cell_angle_beta                 99.093(5)
_cell_angle_gamma                90
_cell_volume                     2591.88
loop_
_atom_site_label
_atom_site_type_symbol
_atom_site_fract_x
_atom_site_fract_y
_atom_site_fract_z
C32 C 0.0045(7) 0.2010(6) 0.8607(7)
H21 H 0.0354 0.2224 0.9186
H22 H 0.0564 0.1545 0.8407
Zn1 Zn 0.37139(3) 0.21356(3) 0.43228(2)
Zn2 Zn 0.25255(3) 0.10472(3) 0.24010(2)
O3 O 0.60148(18) 0.5582(2) 0.18146(16)
O4 O 0.49961(19) 0.62851(19) 0.06943(17)
C1 C 0.0195(2) 0.5160(2) 0.08625(18)
H1 H 0.0325 0.5270 0.1462
C2 C 0.4144(2) 0.5083(2) 0.14346(18)
C3 C 0.2184(2) 0.4634(2) 0.10284(17)
C4 C 0.1066(2) 0.4785(2) 0.04780(18)
C6 C 0.3115(2) 0.5170(2) 0.08819(18)
H2 H 0.3055 0.5596 0.0405
C7 C 0.3301(3) 0.3894(2) 0.22512(19)
C9 C 0.2282(2) 0.4001(2) 0.1717(2)
H3 H 0.1646 0.3639 0.1822
O5 O 0.2711(2) 0.2521(2) 0.29752(18)
C10 C 0.4228(2) 0.4448(2) 0.21283(19)
H4 H 0.4915 0.4395 0.2514
C11 C 0.5126(2) 0.5693(2) 0.13116(19)
O6 O 0.4017(2) 0.20897(18) 0.03841(16)
O7 O 0.3554(2) 0.1399(2) 0.15299(16)
O8 O 0.1047(2) 0.1496(3) 0.15862(18)
O9 O 0.4196(3) 0.3296(2) 0.35939(17)
C12 C 0.3398(3) 0.3197(3) 0.2973(2)
C13 C 0.3333(3) 0.1953(2) 0.08974(19)
Zn6 Zn 0.62861(3) 0.71356(3) 0.06772(2)
Zn10 Zn 0.74745(3) 0.60472(3) 0.25990(2)
O21 O 0.23963(17) 0.14198(18) 0.45630(13)
O23 O 0.16102(18) 0.06893(18) 0.33394(13)
O25 O 0.39852(18) 0.0582(2) 0.31854(16)
O27 O 0.50039(19) 0.12851(19) 0.43057(17)
O30 O 0.4017(2) 0.29103(18) 0.53841(16)
H25 H 0.252505 0.232704 0.0789
O11 O 0.23963(17) 0.35802(18) 0.95630(13)
O12 O 0.16102(18) 0.43107(18) 0.83394(13)
C21 C 0.0857(2) 0.4620(2) 0.95952(18)
C24 C 0.1699(2) 0.4147(2) 0.91208(18)
Zn8 Zn 0.37139(3) 0.28644(3) 0.93228(2)
Zn12 Zn 0.25255(3) 0.39528(3) 0.74010(2)
O1 O 0.76037(17) 0.64198(18) 0.04370(13)
O2 O 0.83898(18) 0.56893(18) 0.16606(13)
C5 C 0.9143(2) 0.5380(2) 0.04048(18)
C8 C 0.8301(2) 0.5853(2) 0.08792(18)
O13 O 0.39852(18) 0.4418(2) 0.81854(16)
O14 O 0.50039(19) 0.37149(19) 0.93057(17)
C17 C 0.9805(2) 0.4840(2) 0.91375(18)
H12 H 0.9675 0.4730 0.8538
C18 C 0.5856(2) 0.4917(2) 0.85654(18)
C19 C 0.7816(2) 0.5366(2) 0.89716(17)
C20 C 0.8934(2) 0.5215(2) 0.95220(18)
C22 C 0.6885(2) 0.4830(2) 0.91181(18)
H13 H 0.6945 0.4404 0.9595
C23 C 0.6699(3) 0.6106(2) 0.77488(19)
C25 C 0.7718(2) 0.5999(2) 0.8283(2)
H14 H 0.8354 0.6361 0.8178
O15 O 0.7289(2) 0.7479(2) 0.70248(18)
C26 C 0.5772(2) 0.5552(2) 0.78717(19)
H15 H 0.5085 0.5605 0.7486
C27 C 0.4874(2) 0.4307(2) 0.86884(19)
O16 O 0.5804(3) 0.6704(2) 0.64061(17)
C28 C 0.6602(3) 0.6803(3) 0.7027(2)
Zn3 Zn 0.62861(3) 0.78644(3) 0.56772(2)
Zn4 Zn 0.74745(3) 0.89528(3) 0.75990(2)
O17 O 0.5983(2) 0.79103(18) 0.96159(16)
O18 O 0.6446(2) 0.8601(2) 0.84701(16)
O19 O 0.8953(2) 0.8504(3) 0.84138(18)
C29 C 0.6667(3) 0.8047(2) 0.91026(19)
O22 O 0.76037(17) 0.85802(18) 0.54370(13)
O24 O 0.83898(18) 0.93107(18) 0.66606(13)
O26 O 0.60148(18) 0.9418(2) 0.68146(16)
O28 O 0.49961(19) 0.87149(19) 0.56943(17)
O29 O 0.5983(2) 0.70897(18) 0.46159(16)
H28 H 0.747495 0.767296 0.9211
C5_2 C 0.0857(2) 0.0380(2) 0.45952(18)
C8_2 C 0.1699(2) 0.0853(2) 0.41208(18)
C19_2 C 0.2184(2) 0.0366(2) 0.60284(17)
C20_2 C 0.1066(2) 0.0215(2) 0.54780(18)
C23_2 C 0.3301(3) 0.1106(2) 0.72512(19)
C25_2 C 0.2282(2) 0.0999(2) 0.6717(2)
H14_2 H 0.1646 0.1361 0.6822
O15_2 O 0.2711(2) 0.2479(2) 0.79752(18)
C26_2 C 0.4228(2) 0.0552(2) 0.71283(19)
H15_2 H 0.4915 0.0605 0.7514
O16_2 O 0.4196(3) 0.1704(2) 0.85939(17)
C28_2 C 0.3398(3) 0.1803(3) 0.7973(2)
O18_2 O 0.3554(2) 0.3601(2) 0.65299(16)
O19_2 O 0.1047(2) 0.3504(3) 0.65862(18)
O20 O 0.2283(3) 0.5356(2) 0.68752(18)
C29_2 C 0.3333(3) 0.3047(2) 0.58974(19)
C30 C 0.1355(5) 0.5771(4) 0.6825(4)
H16 H 0.0832 0.5485 0.7141
N2 N 0.1006(5) 0.6561(4) 0.6387(4)
C31 C 0.1680(9) 0.7009(6) 0.5856(6)
H17 H 0.1439 0.6800 0.5265
H18 H 0.1604 0.7716 0.5893
H19 H 0.2469 0.6826 0.6039
H20 H 0.0050 0.7571 0.6777
H28_2 H 0.252505 0.267296 0.5789
C16 C 0.0045(7) 0.2990(6) 0.3607(7)
H10 H 0.0354 0.2776 0.4186
H11 H 0.0564 0.3455 0.3407
C17_2 C 0.0195(2) 0.9840(2) 0.58625(18)
H12_2 H 0.0325 0.9730 0.6462
C18_2 C 0.4144(2) 0.9917(2) 0.64346(18)
C22_2 C 0.3115(2) 0.9830(2) 0.58819(18)
H13_2 H 0.3055 0.9404 0.5405
C27_2 C 0.5126(2) 0.9307(2) 0.63116(19)
C1_2 C 0.9805(2) 0.0160(2) 0.41375(18)
H1_2 H 0.9675 0.0270 0.3538
C2_2 C 0.5856(2) 0.0083(2) 0.35654(18)
C6_2 C 0.6885(2) 0.0170(2) 0.41181(18)
H2_2 H 0.6945 0.0596 0.4595
C11_2 C 0.4874(2) 0.0693(2) 0.36884(19)
C32_2 C 0.9955(7) 0.7010(6) 0.6393(7)
H21_2 H 0.9646 0.7224 0.5814
H22_2 H 0.9436 0.6545 0.6593
C3_2 C 0.7816(2) 0.9634(2) 0.39716(17)
C4_2 C 0.8934(2) 0.9785(2) 0.45220(18)
C7_2 C 0.6699(3) 0.8894(2) 0.27488(19)
C9_2 C 0.7718(2) 0.9001(2) 0.3283(2)
H3_2 H 0.8354 0.8639 0.3178
O5_2 O 0.7289(2) 0.7521(2) 0.20248(18)
C10_2 C 0.5772(2) 0.9448(2) 0.28717(19)
H4_2 H 0.5085 0.9395 0.2486
O7_2 O 0.6446(2) 0.6399(2) 0.34701(16)
O8_2 O 0.8953(2) 0.6496(3) 0.34138(18)
O9_2 O 0.5804(3) 0.8296(2) 0.14061(17)
C12_2 C 0.6602(3) 0.8197(3) 0.2027(2)
O10 O 0.7717(3) 0.4644(2) 0.31248(18)
C13_2 C 0.6667(3) 0.6953(2) 0.41026(19)
C14 C 0.8645(5) 0.4229(4) 0.3175(4)
H5 H 0.9168 0.4515 0.2859
N1 N 0.8994(5) 0.3439(4) 0.3613(4)
C15 C 0.8320(9) 0.2991(6) 0.4144(6)
H6 H 0.8561 0.3200 0.4735
H7 H 0.8396 0.2284 0.4107
H8 H 0.7531 0.3174 0.3961
H9 H 0.9950 0.2429 0.3223
C21_2 C 0.9143(2) 0.9620(2) 0.54048(18)
C24_2 C 0.8301(2) 0.9147(2) 0.58792(18)
H25_2 H 0.747495 0.732704 0.4211
O10_2 O 0.2283(3) 0.9644(2) 0.18752(18)
C14_2 C 0.1355(5) 0.9229(4) 0.1825(4)
H5_2 H 0.0832 0.9515 0.2141
N1_2 N 0.1006(5) 0.8439(4) 0.1387(4)
C15_2 C 0.1680(9) 0.7991(6) 0.0856(6)
H6_2 H 0.1439 0.8200 0.0265
H7_2 H 0.1604 0.7284 0.0893
H8_2 H 0.2469 0.8174 0.1039
H9_2 H 0.0050 0.7429 0.1777
O20_2 O 0.7717(3) 0.0356(2) 0.81248(18)
C30_2 C 0.8645(5) 0.0771(4) 0.8175(4)
H16_2 H 0.9168 0.0485 0.7859
N2_2 N 0.8994(5) 0.1561(4) 0.8613(4)
C31_2 C 0.8320(9) 0.2009(6) 0.9144(6)
H17_2 H 0.8561 0.1800 0.9735
H18_2 H 0.8396 0.2716 0.9107
H19_2 H 0.7531 0.1826 0.8961
H20_2 H 0.9950 0.2571 0.8223
C16_2 C 0.9955(7) 0.7990(6) 0.1393(7)
H10_2 H 0.9646 0.7776 0.0814
H11_2 H 0.9436 0.8455 0.1593
loop_
_geom_bond_atom_site_label_1
_geom_bond_atom_site_label_2
_geom_bond_site_symmetry_1
_geom_bond_site_symmetry_2
H21 C32 1_555 1_555
H22 C32 1_555 1_555
Zn1 O5 1_555 1_555
Zn2 O5 1_555 1_555
O3 C11 1_555 1_555
O4 C11 1_555 1_555
C1 H1 1_555 1_555
C2 C6 1_555 1_555
C3 C4 1_555 1_555
C4 C1 1_555 1_555
C6 C3 1_555 1_555
H2 C6 1_555 1_555
C7 C9 1_555 1_555
C9 C3 1_555 1_555
H3 C9 1_555 1_555
O5 C12 1_555 1_555
C10 C2 1_555 1_555
H4 C10 1_555 1_555
C11 C2 1_555 1_555
O6 C13 1_555 1_555
O7 Zn2 1_555 1_555
O8 Zn2 1_555 1_555
O9 Zn1 1_555 1_555
C12 C7 1_555 1_555
C13 O7 1_555 1_555
Zn6 O4 1_555 1_555
Zn10 O3 1_555 1_555
O21 Zn1 1_555 1_555
O23 Zn2 1_555 1_555
O25 Zn2 1_555 1_555
O27 Zn1 1_555 1_555
O30 Zn1 1_555 1_555
C7 C10 1_555 1_555
O9 C12 1_555 1_555
C13 H25 1_555 1_555
O11 C24 1_555 1_555
O12 C24 1_555 1_555
C24 C21 1_555 1_555
Zn12 O12 1_555 1_555
O11 Zn8 1_555 1_555
O1 C8 1_555 1_555
O2 C8 1_555 1_555
C8 C5 1_555 1_555
Zn6 O1 1_555 1_555
Zn10 O2 1_555 1_555
O13 C27 1_555 1_555
O14 C27 1_555 1_555
C17 H12 1_555 1_555
C18 C22 1_555 1_555
C19 C20 1_555 1_555
C22 C19 1_555 1_555
H13 C22 1_555 1_555
C23 C25 1_555 1_555
C25 C19 1_555 1_555
H14 C25 1_555 1_555
O15 C28 1_555 1_555
C26 C18 1_555 1_555
H15 C26 1_555 1_555
C27 C18 1_555 1_555
O16 C28 1_555 1_555
C28 C23 1_555 1_555
Zn3 O15 1_555 1_555
Zn4 O15 1_555 1_555
O17 C29 1_555 1_555
O18 Zn4 1_555 1_555
O19 Zn4 1_555 1_555
C29 O18 1_555 1_555
Zn8 O14 1_555 1_555
Zn12 O13 1_555 1_555
O22 Zn3 1_555 1_555
O24 Zn4 1_555 1_555
O26 Zn4 1_555 1_555
O28 Zn3 1_555 1_555
O29 Zn3 1_555 1_555
C17 C20 1_555 1_555
C23 C26 1_555 1_555
O16 Zn3 1_555 1_555
C29 H28 1_555 1_555
O21 C8_2 1_555 1_555
O23 C8_2 1_555 1_555
C8_2 C5_2 1_555 1_555
C19_2 C20_2 1_555 1_555
C20_2 C5_2 1_555 1_555
C23_2 C25_2 1_555 1_555
C25_2 C19_2 1_555 1_555
H14_2 C25_2 1_555 1_555
O15_2 C28_2 1_555 1_555
H15_2 C26_2 1_555 1_555
O16_2 C28_2 1_555 1_555
C28_2 C23_2 1_555 1_555
Zn8 O15_2 1_555 1_555
Zn12 O15_2 1_555 1_555
O30 C29_2 1_555 1_555
O18_2 Zn12 1_555 1_555
O19_2 Zn12 1_555 1_555
O20 Zn12 1_555 1_555
C29_2 O18_2 1_555 1_555
C30 O20 1_555 1_555
H16 C30 1_555 1_555
N2 C30 1_555 1_555
C31 N2 1_555 1_555
H17 C31 1_555 1_555
H18 C31 1_555 1_555
H19 C31 1_555 1_555
C23_2 C26_2 1_555 1_555
O16_2 Zn8 1_555 1_555
C29_2 H28_2 1_555 1_555
H10 C16 1_555 1_555
H11 C16 1_555 1_555
O26 C27_2 1_555 1_555
O28 C27_2 1_555 1_555
C17_2 H12_2 1_555 1_555
C18_2 C22_2 1_555 1_555
H13_2 C22_2 1_555 1_555
C27_2 C18_2 1_555 1_555
O25 C11_2 1_555 1_555
O27 C11_2 1_555 1_555
C1_2 H1_2 1_555 1_555
C2_2 C6_2 1_555 1_555
H2_2 C6_2 1_555 1_555
C11_2 C2_2 1_555 1_555
H21_2 C32_2 1_555 1_555
H22_2 C32_2 1_555 1_555
Zn6 O5_2 1_555 1_555
Zn10 O5_2 1_555 1_555
C3_2 C4_2 1_555 1_555
C7_2 C9_2 1_555 1_555
C9_2 C3_2 1_555 1_555
H3_2 C9_2 1_555 1_555
O5_2 C12_2 1_555 1_555
H4_2 C10_2 1_555 1_555
O29 C13_2 1_555 1_555
O7_2 Zn10 1_555 1_555
O8_2 Zn10 1_555 1_555
O9_2 Zn6 1_555 1_555
C12_2 C7_2 1_555 1_555
O10 Zn10 1_555 1_555
C13_2 O7_2 1_555 1_555
C14 O10 1_555 1_555
H5 C14 1_555 1_555
N1 C14 1_555 1_555
C15 N1 1_555 1_555
H6 C15 1_555 1_555
H7 C15 1_555 1_555
H8 C15 1_555 1_555
O22 C24_2 1_555 1_555
O24 C24_2 1_555 1_555
C21_2 C4_2 1_555 1_555
C24_2 C21_2 1_555 1_555
C7_2 C10_2 1_555 1_555
O9_2 C12_2 1_555 1_555
C13_2 H25_2 1_555 1_555
C14_2 O10_2 1_555 1_555
H5_2 C14_2 1_555 1_555
N1_2 C14_2 1_555 1_555
C15_2 N1_2 1_555 1_555
H6_2 C15_2 1_555 1_555
H7_2 C15_2 1_555 1_555
H8_2 C15_2 1_555 1_555
C30_2 O20_2 1_555 1_555
H16_2 C30_2 1_555 1_555
N2_2 C30_2 1_555 1_555
C31_2 N2_2 1_555 1_555
H17_2 C31_2 1_555 1_555
H18_2 C31_2 1_555 1_555
H19_2 C31_2 1_555 1_555
H10_2 C16_2 1_555 1_555
H11_2 C16_2 1_555 1_555

#END
