
###############################################################################
#
# This file contains modified crystal structure data generated from the
# MOF subset of the Cambridge Structural Database (CSD) v543 
# hosted by the Cambridge Crystallographic Data Centre (CCDC).
#
# This work is licensed under the Creative Commons
# Attribution-NonCommercial-ShareAlike 4.0 International License.
# To view a copy of this license, visit
# http://creativecommons.org/licenses/by-nc-sa/4.0/
# or send a letter to
# Creative Commons, PO Box 1866, Mountain View, CA 94042, USA.
#
# CIF created using the CSD Python API on 29 September 2022
# The structure has been converted into the P1 space group
# The structure has a 3D framework
# The original CSD entry NUFCAU is in the monoclinic crystal system
# The framework has been calculated to contain at least 10.0% void space
# The void calculation uses a probe of radius 1.32A, grid spacing 0.4
# The framework is charged, counterions have been retained in the structure
# H atom positions have been added when not included in the experimental data
#
###############################################################################

data_NUFCAU
_chemical_formula_moiety         '(C152 H172 N16 O62 Zn16 8+)n'
_symmetry_cell_setting           triclinic
_symmetry_space_group_name_H-M   'P 1'
_symmetry_Int_Tables_number      1
_space_group_name_Hall           'P 1'
loop_
_symmetry_equiv_pos_site_id
_symmetry_equiv_pos_as_xyz
1 x,y,z
_cell_length_a                   17.0549(3)
_cell_length_b                   15.3986(3)
_cell_length_c                   23.0104(5)
_cell_angle_alpha                90
_cell_angle_beta                 102.754(2)
_cell_angle_gamma                90
_cell_volume                     5893.93
loop_
_atom_site_label
_atom_site_type_symbol
_atom_site_fract_x
_atom_site_fract_y
_atom_site_fract_z
O5 O 0.00814(6) 0.69934(6) 0.58020(5)
O12 O 0.06858(6) 0.12774(6) 0.59063(4)
O14 O 0.04307(6) 0.29899(6) 0.64236(4)
C25 C 0.0500(3) 0.0512(3) 0.60038(18)
N2 N 0.1320(4) 0.3265(5) 0.7280(3)
C26 C 0.0916(5) 0.2747(5) 0.6858(3)
H10 H 0.1016 0.2141 0.6900
C30 C 0.1826(6) 0.0178(7) 0.6567(4)
H16 H 0.1929 0.0774 0.6454
H18 H 0.1925 0.0134 0.7002
C31 C 0.1185(6) 0.4199(6) 0.7272(5)
H19 H 0.0830 0.4365 0.6893
H20 H 0.1701 0.4502 0.7317
H21 H 0.0935 0.4359 0.7602
C36 C 0.1900(11) 0.2934(11) 0.7778(7)
H34 H 0.1913 0.2298 0.7755
H35 H 0.1752 0.3108 0.8149
H36 H 0.2432 0.3167 0.7770
Zn6 Zn 0.01877(4) 0.77439(4) 0.42776(3)
Zn8 Zn 0.11460(4) 0.66892(4) 0.56750(3)
O20 O 0.04605(6) 0.28640(6) 0.51689(4)
Zn3 Zn 0.59030(5) 0.03125(5) 0.62390(3)
O2 O 0.82000(6) 0.22954(6) 0.43963(4)
O4 O 0.91645(6) 0.15346(6) 0.50090(4)
O8 O 0.55069(7) 0.11308(9) 0.37757(8)
O13 O 0.62848(19) 0.13584(6) 0.58835(10)
C1 C 0.80772(6) 0.01882(6) 0.50725(4)
H1 H 0.8621 0.0118 0.5279
C3 C 0.7850(3) 0.0946(3) 0.4747(2)
C4 C 0.6496(3) 0.0402(4) 0.4469(2)
C11 C 0.8464(3) 0.1638(3) 0.4722(2)
C18 C 0.70511(17) 0.10491(19) 0.44399(13)
H7 H 0.6890 0.1560 0.4213
C22 C 0.5642(3) 0.0514(4) 0.4136(2)
N3 N 0.6134(5) 0.2468(4) 0.5256(3)
C27 C 0.5875(4) 0.1774(4) 0.5487(3)
H11 H 0.5337 0.1590 0.5334
C33 C 0.6954(7) 0.2764(7) 0.5441(5)
H25 H 0.7288 0.2295 0.5654
H26 H 0.6976 0.3266 0.5705
H27 H 0.7156 0.2931 0.5090
C35 C 0.5614(8) 0.2944(8) 0.4763(6)
H31 H 0.5284 0.2530 0.4490
H32 H 0.5948 0.3279 0.4548
H33 H 0.5263 0.3339 0.4923
Zn5 Zn 0.98123(4) 0.22561(4) 0.57224(3)
Zn7 Zn 0.88540(4) 0.33108(4) 0.43250(3)
Zn12 Zn 0.45350(5) 0.17039(5) 0.33255(3)
O25 O 0.61400(8) 0.04467(7) 0.71005(4)
O26 O 0.48617(7) 0.00295(9) 0.57729(8)
Zn4 Zn 0.54650(5) 0.82961(5) 0.66745(3)
O1 O 0.51337(8) 0.70633(6) 0.70034(8)
O3 O 0.95395(6) 0.71360(6) 0.48311(4)
O6 O 0.88346(6) 0.42177(6) 0.49110(4)
O7 O 0.89311(6) 0.32072(6) 0.56132(4)
O9 O 0.67065(6) 0.94862(6) 0.60799(4)
O10 O 0.90939(7) 0.40819(7) 0.76648(5)
O11 O 0.88600(8) 0.54467(7) 0.78995(4)
O15 O 0.51383(7) 0.99705(9) 0.42271(8)
O16 O 0.91951(6) 0.15470(6) 0.62592(4)
O17 O 0.62308(6) 0.81415(6) 0.61746(4)
O18 O 0.83205(7) 0.38335(7) 0.35412(4)
C2 C 0.86784(6) 0.55346(6) 0.57081(4)
H2 H 0.8639 0.5683 0.5302
C5 C 0.7687(3) 0.7474(4) 0.6036(2)
H3 H 0.7408 0.7185 0.6295
C6 C 0.8835(3) 0.4688(3) 0.5892(2)
C7 C 0.74168(14) 0.82818(15) 0.58072(10)
C8 C 0.95218(14) 0.71835(15) 0.53622(10)
C9 C 0.88730(14) 0.39763(15) 0.54381(10)
C10 C 0.67262(14) 0.96523(15) 0.47936(10)
H4 H 0.6339 0.9214 0.4808
C12 C 0.86550(13) 0.59574(15) 0.67089(10)
H5 H 0.8586 0.6388 0.6989
C13 C 0.78065(13) 0.87092(15) 0.54107(10)
C14 C 0.75255(13) 0.95342(15) 0.51011(10)
C15 C 0.88340(13) 0.51018(15) 0.68943(10)
C16 C 0.84764(13) 0.83134(15) 0.52708(10)
H6 H 0.8746 0.8595 0.5003
C17 C 0.8763(3) 0.7509(3) 0.5516(2)
C19 C 0.83624(17) 0.70722(19) 0.58962(13)
C20 C 0.89215(17) 0.44707(19) 0.64874(13)
H8 H 0.9041 0.3889 0.6615
C21 C 0.8578(3) 0.6174(3) 0.6114(2)
C23 C 0.6725(3) 0.8663(4) 0.6033(2)
C24 C 0.8949(3) 0.4854(3) 0.75395(18)
H9 H 0.9963 0.0329 0.5846
N4 N 0.8349(5) 0.1400(6) 0.6873(3)
C28 C 0.8781(4) 0.1853(4) 0.6571(3)
H12 H 0.8765 0.2468 0.6601
C29 C 0.7865(8) 0.1858(12) 0.7253(6)
H13 H 0.8187 0.2326 0.7477
H14 H 0.7714 0.1443 0.7533
H15 H 0.7378 0.2103 0.6999
C34 C 0.8397(9) 0.0441(8) 0.6887(6)
H28 H 0.8929 0.0258 0.6836
H29 H 0.7982 0.0200 0.6563
H30 H 0.8314 0.0229 0.7270
C37 C 0.7199(13) 0.4287(14) 0.3057(10)
H37 H 0.7338 0.4906 0.3070
H38 H 0.6644 0.4209 0.2833
H39 H 0.7564 0.3965 0.2861
C38 C 0.7299(7) 0.3870(9) 0.3835(6)
H40 H 0.7038 0.3307 0.3883
H41 H 0.7266 0.4302 0.4148
Zn9 Zn 0.90970(5) 0.53125(5) 0.87610(3)
Zn10 Zn 0.40970(5) 0.96875(5) 0.37610(3)
Zn11 Zn 0.95350(5) 0.32961(5) 0.83255(3)
O22 O 0.99186(6) 0.30066(6) 0.41980(5)
O23 O 0.44931(7) 0.88692(9) 0.62243(8)
O24 O 0.59061(7) 0.90819(7) 0.73352(5)
H42 H 0.56208 0.677553 0.724171
H43 H 0.474147 0.716225 0.725773
Zn10_2 Zn 0.09030(5) 0.46875(5) 0.12390(3)
Zn12_2 Zn 0.04650(5) 0.67039(5) 0.16745(3)
O23_2 O 0.05069(7) 0.38692(9) 0.87757(8)
O26_2 O 0.01383(7) 0.50295(9) 0.92271(8)
H43_2 H 0.0258533 0.216225 0.774227
O2_2 O 0.68000(6) 0.72954(6) 0.06037(4)
O3_2 O 0.54605(6) 0.21360(6) 0.01689(4)
O8_2 O 0.94931(7) 0.61308(9) 0.12243(8)
O15_2 O 0.98617(7) 0.49705(9) 0.07729(8)
C3_2 C 0.7150(3) 0.5946(3) 0.0253(2)
C4_2 C 0.8504(3) 0.5402(4) 0.0531(2)
C10_2 C 0.82738(14) 0.46523(15) 0.02064(10)
H4_2 H 0.8661 0.4214 0.0192
C11_2 C 0.6536(3) 0.6638(3) 0.0278(2)
C18_2 C 0.79489(17) 0.60491(19) 0.05601(13)
H7_2 H 0.8110 0.6560 0.0787
C22_2 C 0.9358(3) 0.5514(4) 0.0864(2)
C35_2 C 0.9386(8) 0.7944(8) 0.0237(6)
H31_2 H 0.9716 0.7530 0.0510
H32_2 H 0.9052 0.8279 0.0452
H33_2 H 0.9737 0.8339 0.0077
Zn6_2 Zn 0.48123(4) 0.27439(4) 0.07224(3)
Zn7_2 Zn 0.61460(4) 0.83108(4) 0.06750(3)
O1_2 O 0.98663(8) 0.20633(6) 0.79966(8)
O4_2 O 0.58355(6) 0.65346(6) 0.99910(4)
O5_2 O 0.49186(6) 0.19934(6) 0.91980(5)
O9_2 O 0.82935(6) 0.44862(6) 0.89201(4)
O13_2 O 0.87152(19) 0.63584(6) 0.91165(10)
O17_2 O 0.87692(6) 0.31415(6) 0.88254(4)
C1_2 C 0.69228(6) 0.51882(6) 0.99275(4)
H1_2 H 0.6379 0.5118 0.9721
C2_2 C 0.63216(6) 0.05346(6) 0.92919(4)
H2_2 H 0.6361 0.0683 0.9698
C5_2 C 0.7313(3) 0.2474(4) 0.8964(2)
H3_2 H 0.7592 0.2185 0.8705
C7_2 C 0.75832(14) 0.32818(15) 0.91928(10)
C8_2 C 0.54782(14) 0.21835(15) 0.96378(10)
C12_2 C 0.63450(13) 0.09574(15) 0.82911(10)
H5_2 H 0.6414 0.1388 0.8011
C13_2 C 0.71935(13) 0.37092(15) 0.95893(10)
C14_2 C 0.74745(13) 0.45342(15) 0.98989(10)
C15_2 C 0.61660(13) 0.01018(15) 0.81057(10)
C16_2 C 0.65236(13) 0.33134(15) 0.97292(10)
H6_2 H 0.6254 0.3595 0.9997
C17_2 C 0.6237(3) 0.2509(3) 0.9484(2)
C19_2 C 0.66376(17) 0.20722(19) 0.91038(13)
C21_2 C 0.6422(3) 0.1174(3) 0.8886(2)
C23_2 C 0.8275(3) 0.3663(4) 0.8967(2)
N3_2 N 0.8866(5) 0.7468(4) 0.9744(3)
C27_2 C 0.9125(4) 0.6774(4) 0.9513(3)
H11_2 H 0.9663 0.6590 0.9666
C33_2 C 0.8046(7) 0.7764(7) 0.9559(5)
H25_2 H 0.7712 0.7295 0.9346
H26_2 H 0.8024 0.8266 0.9295
H27_2 H 0.7844 0.7931 0.9910
Zn5_2 Zn 0.51877(4) 0.72561(4) 0.92776(3)
Zn8_2 Zn 0.38540(4) 0.16892(4) 0.93250(3)
H42_2 H 0.93792 0.177553 0.775829
O6_2 O 0.61654(6) 0.92177(6) 0.00890(4)
O18_2 O 0.66795(7) 0.88335(7) 0.14588(4)
C37_2 C 0.7801(13) 0.9287(14) 0.1943(10)
H37_2 H 0.7662 0.9906 0.1930
H38_2 H 0.8356 0.9209 0.2167
H39_2 H 0.7436 0.8965 0.2139
C38_2 C 0.7701(7) 0.8870(9) 0.1165(6)
H40_2 H 0.7962 0.8307 0.1117
H41_2 H 0.7734 0.9302 0.0852
O22_2 O 0.50814(6) 0.80066(6) 0.08020(5)
O7_2 O 0.60689(6) 0.82072(6) 0.93868(4)
O12_2 O 0.43142(6) 0.62774(6) 0.90937(4)
O14_2 O 0.45693(6) 0.79899(6) 0.85764(4)
O16_2 O 0.58049(6) 0.65470(6) 0.87408(4)
C6_2 C 0.6165(3) 0.9688(3) 0.9108(2)
N1 N 0.39980(14) 0.49512(15) 0.86898(10)
C9_2 C 0.61270(14) 0.89763(15) 0.95619(10)
C20_2 C 0.60785(17) 0.94707(19) 0.85126(13)
H8_2 H 0.5959 0.8889 0.8385
C24_2 C 0.6051(3) 0.9854(3) 0.74605(18)
C25_2 C 0.4500(3) 0.5512(3) 0.89962(18)
H9_2 H 0.5037 0.5329 0.9154
N2_2 N 0.3680(4) 0.8265(5) 0.7720(3)
N4_2 N 0.6651(5) 0.6400(6) 0.8127(3)
C26_2 C 0.4084(5) 0.7747(5) 0.8142(3)
H10_2 H 0.3984 0.7141 0.8100
C28_2 C 0.6219(4) 0.6853(4) 0.8429(3)
H12_2 H 0.6235 0.7468 0.8399
C29_2 C 0.7135(8) 0.6858(12) 0.7747(6)
H13_2 H 0.6813 0.7326 0.7523
H14_2 H 0.7286 0.6443 0.7467
H15_2 H 0.7622 0.7103 0.8001
C30_2 C 0.3174(6) 0.5178(7) 0.8433(4)
H16_2 H 0.3071 0.5774 0.8546
H17 H 0.2815 0.4779 0.8581
H18_2 H 0.3075 0.5134 0.7998
C31_2 C 0.3815(6) 0.9199(6) 0.7728(5)
H19_2 H 0.4170 0.9365 0.8107
H20_2 H 0.3299 0.9502 0.7683
H21_2 H 0.4065 0.9359 0.7398
C32 C 0.4300(8) 0.4082(5) 0.8572(4)
H22 H 0.4457 0.4087 0.8187
H23 H 0.3876 0.3650 0.8562
H24 H 0.4767 0.3934 0.8888
C34_2 C 0.6603(9) 0.5441(8) 0.8113(6)
H28_2 H 0.6071 0.5258 0.8164
H29_2 H 0.7018 0.5200 0.8437
H30_2 H 0.6686 0.5229 0.7730
C36_2 C 0.3100(11) 0.7934(11) 0.7222(7)
H34_2 H 0.3087 0.7298 0.7245
H35_2 H 0.3248 0.8108 0.6851
H36_2 H 0.2568 0.8167 0.7230
O20_2 O 0.45395(6) 0.78640(6) 0.98311(4)
O1_3 O 0.48663(8) 0.29367(6) 0.29966(8)
O6_3 O 0.11654(6) 0.57823(6) 0.50890(4)
O7_3 O 0.10689(6) 0.67928(6) 0.43868(4)
O9_3 O 0.32935(6) 0.05138(6) 0.39201(4)
O10_2 O 0.09061(7) 0.59181(7) 0.23352(5)
O11_2 O 0.11400(8) 0.45533(7) 0.21005(4)
O16_3 O 0.08049(6) 0.84530(6) 0.37408(4)
O17_3 O 0.37692(6) 0.18585(6) 0.38254(4)
O18_3 O 0.16795(7) 0.61665(7) 0.64588(4)
C2_3 C 0.13216(6) 0.44654(6) 0.42919(4)
H2_3 H 0.1361 0.4317 0.4698
C5_3 C 0.2313(3) 0.2526(4) 0.3964(2)
H3_3 H 0.2592 0.2815 0.3705
C6_3 C 0.1165(3) 0.5312(3) 0.4108(2)
C7_3 C 0.25832(14) 0.17182(15) 0.41928(10)
C8_3 C 0.04782(14) 0.28165(15) 0.46378(10)
C9_3 C 0.11270(14) 0.60237(15) 0.45619(10)
C10_3 C 0.32738(14) 0.03477(15) 0.52064(10)
H4_3 H 0.3661 0.0786 0.5192
C12_3 C 0.13450(13) 0.40426(15) 0.32911(10)
H5_3 H 0.1414 0.3612 0.3011
C13_3 C 0.21935(13) 0.12908(15) 0.45893(10)
C14_3 C 0.24745(13) 0.04658(15) 0.48989(10)
C15_3 C 0.11660(13) 0.48982(15) 0.31057(10)
C16_3 C 0.15236(13) 0.16866(15) 0.47292(10)
H6_3 H 0.1254 0.1405 0.4997
C17_3 C 0.1237(3) 0.2491(3) 0.4484(2)
C19_3 C 0.16376(17) 0.29278(19) 0.41038(13)
C20_3 C 0.10785(17) 0.55293(19) 0.35126(13)
H8_3 H 0.0959 0.6111 0.3385
C21_3 C 0.1422(3) 0.3826(3) 0.3886(2)
C23_3 C 0.3275(3) 0.1337(4) 0.3967(2)
C24_3 C 0.1051(3) 0.5146(3) 0.24605(18)
H9_3 H 0.0037 0.9671 0.4154
N4_3 N 0.1651(5) 0.8600(6) 0.3127(3)
C28_3 C 0.1219(4) 0.8147(4) 0.3429(3)
H12_3 H 0.1235 0.7532 0.3399
C29_3 C 0.2135(8) 0.8142(12) 0.2747(6)
H13_3 H 0.1813 0.7674 0.2523
H14_3 H 0.2286 0.8557 0.2467
H15_3 H 0.2622 0.7897 0.3001
C34_3 C 0.1603(9) 0.9559(8) 0.3113(6)
H28_3 H 0.1071 0.9742 0.3164
H29_3 H 0.2018 0.9800 0.3437
H30_3 H 0.1686 0.9771 0.2730
C37_3 C 0.2801(13) 0.5713(14) 0.6943(10)
H37_3 H 0.2662 0.5094 0.6930
H38_3 H 0.3356 0.5791 0.7167
H39_3 H 0.2436 0.6035 0.7139
C38_3 C 0.2701(7) 0.6130(9) 0.6165(6)
H40_3 H 0.2962 0.6693 0.6117
H41_3 H 0.2734 0.5698 0.5852
O19 O 0.18000(6) 0.77046(6) 0.56037(4)
O21 O 0.08355(6) 0.84654(6) 0.49910(4)
O24_2 O 0.40939(7) 0.09181(7) 0.26648(5)
H42_3 H 0.43792 0.322447 0.275829
H43_3 H 0.525853 0.283775 0.274227
O13_3 O 0.37152(19) 0.86416(6) 0.41165(10)
C1_3 C 0.19228(6) 0.98118(6) 0.49275(4)
H1_3 H 0.1379 0.9882 0.4721
C3_3 C 0.2150(3) 0.9054(3) 0.5253(2)
C4_3 C 0.3504(3) 0.9598(4) 0.5531(2)
C11_3 C 0.1536(3) 0.8362(3) 0.5278(2)
C18_3 C 0.29489(17) 0.89509(19) 0.55601(13)
H7_3 H 0.3110 0.8440 0.5787
C22_3 C 0.4358(3) 0.9486(4) 0.5864(2)
N3_3 N 0.3866(5) 0.7532(4) 0.4744(3)
C27_3 C 0.4125(4) 0.8226(4) 0.4513(3)
H11_3 H 0.4663 0.8410 0.4666
C33_3 C 0.3046(7) 0.7236(7) 0.4559(5)
H25_3 H 0.2712 0.7705 0.4346
H26_3 H 0.3024 0.6734 0.4295
H27_3 H 0.2844 0.7069 0.4910
C35_3 C 0.4386(8) 0.7056(8) 0.5237(6)
H31_3 H 0.4716 0.7470 0.5510
H32_3 H 0.4052 0.6721 0.5452
H33_3 H 0.4737 0.6661 0.5077
O25_2 O 0.38600(8) 0.95533(7) 0.28995(4)
O12_3 O 0.93142(6) 0.87226(6) 0.40937(4)
O14_3 O 0.95693(6) 0.70101(6) 0.35764(4)
C25_3 C 0.9500(3) 0.9488(3) 0.39962(18)
N2_3 N 0.8680(4) 0.6735(5) 0.2720(3)
C26_3 C 0.9084(5) 0.7253(5) 0.3142(3)
H10_3 H 0.8984 0.7859 0.3100
C30_3 C 0.8174(6) 0.9822(7) 0.3433(4)
H16_3 H 0.8071 0.9226 0.3546
H18_3 H 0.8075 0.9866 0.2998
C31_3 C 0.8815(6) 0.5801(6) 0.2728(5)
H19_3 H 0.9170 0.5635 0.3107
H20_3 H 0.8299 0.5498 0.2683
H21_3 H 0.9065 0.5641 0.2398
C36_3 C 0.8100(11) 0.7066(11) 0.2222(7)
H34_3 H 0.8087 0.7702 0.2245
H35_3 H 0.8248 0.6892 0.1851
H36_3 H 0.7568 0.6833 0.2230
O7_4 O 0.39311(6) 0.17928(6) 0.06132(4)
O12_4 O 0.56858(6) 0.37226(6) 0.09063(4)
O14_4 O 0.54307(6) 0.20101(6) 0.14236(4)
O16_4 O 0.41951(6) 0.34530(6) 0.12592(4)
C6_4 C 0.3835(3) 0.0312(3) 0.0892(2)
N1_2 N 0.60020(14) 0.50488(15) 0.13102(10)
C9_4 C 0.38730(14) 0.10237(15) 0.04381(10)
C20_4 C 0.39215(17) 0.05293(19) 0.14874(13)
H8_4 H 0.4041 0.1111 0.1615
C24_4 C 0.3949(3) 0.0146(3) 0.25395(18)
C25_4 C 0.5500(3) 0.4488(3) 0.10038(18)
H9_4 H 0.4963 0.4671 0.0846
N2_4 N 0.6320(4) 0.1735(5) 0.2280(3)
N4_4 N 0.3349(5) 0.3600(6) 0.1873(3)
C26_4 C 0.5916(5) 0.2253(5) 0.1858(3)
H10_4 H 0.6016 0.2859 0.1900
C28_4 C 0.3781(4) 0.3147(4) 0.1571(3)
H12_4 H 0.3765 0.2532 0.1601
C29_4 C 0.2865(8) 0.3142(12) 0.2253(6)
H13_4 H 0.3187 0.2674 0.2477
H14_4 H 0.2714 0.3557 0.2533
H15_4 H 0.2378 0.2897 0.1999
C30_4 C 0.6826(6) 0.4822(7) 0.1567(4)
H16_4 H 0.6929 0.4226 0.1454
H17_2 H 0.7185 0.5221 0.1419
H18_4 H 0.6925 0.4866 0.2002
C31_4 C 0.6185(6) 0.0801(6) 0.2272(5)
H19_4 H 0.5830 0.0635 0.1893
H20_4 H 0.6701 0.0498 0.2317
H21_4 H 0.5935 0.0641 0.2602
C32_2 C 0.5700(8) 0.5918(5) 0.1428(4)
H22_2 H 0.5543 0.5913 0.1813
H23_2 H 0.6124 0.6350 0.1438
H24_2 H 0.5233 0.6066 0.1112
C34_4 C 0.3397(9) 0.4559(8) 0.1887(6)
H28_4 H 0.3929 0.4742 0.1836
H29_4 H 0.2982 0.4800 0.1563
H30_4 H 0.3314 0.4771 0.2270
C36_4 C 0.6900(11) 0.2066(11) 0.2778(7)
H34_4 H 0.6913 0.2702 0.2755
H35_4 H 0.6752 0.1892 0.3149
H36_4 H 0.7432 0.1833 0.2770
O21_2 O 0.41645(6) 0.34654(6) 0.00090(4)
O6_4 O 0.38346(6) 0.07823(6) 0.99110(4)
O18_4 O 0.33205(7) 0.11665(7) 0.85412(4)
C37_4 C 0.2199(13) 0.0713(14) 0.8057(10)
H37_4 H 0.2338 0.0094 0.8070
H38_4 H 0.1644 0.0791 0.7833
H39_4 H 0.2564 0.1035 0.7861
C38_4 C 0.2299(7) 0.1130(9) 0.8835(6)
H40_4 H 0.2038 0.1693 0.8883
H41_4 H 0.2266 0.0698 0.9148
O19_2 O 0.32000(6) 0.27046(6) 0.93963(4)
O1_4 O 0.01337(8) 0.79367(6) 0.20034(8)
O9_4 O 0.17065(6) 0.55138(6) 0.10799(4)
O13_4 O 0.12848(19) 0.36416(6) 0.08835(10)
O17_4 O 0.12308(6) 0.68585(6) 0.11746(4)
C1_4 C 0.30772(6) 0.48118(6) 0.00725(4)
H1_4 H 0.3621 0.4882 0.0279
C2_4 C 0.36784(6) 0.94654(6) 0.07081(4)
H2_4 H 0.3639 0.9317 0.0302
C5_4 C 0.2687(3) 0.7526(4) 0.1036(2)
H3_4 H 0.2408 0.7815 0.1295
C7_4 C 0.24168(14) 0.67182(15) 0.08072(10)
C8_4 C 0.45218(14) 0.78165(15) 0.03622(10)
C12_4 C 0.36550(13) 0.90426(15) 0.17089(10)
H5_4 H 0.3586 0.8612 0.1989
C13_4 C 0.28065(13) 0.62908(15) 0.04107(10)
C14_4 C 0.25255(13) 0.54658(15) 0.01011(10)
C15_4 C 0.38340(13) 0.98982(15) 0.18943(10)
C16_4 C 0.34764(13) 0.66866(15) 0.02708(10)
H6_4 H 0.3746 0.6405 0.0003
C17_4 C 0.3763(3) 0.7491(3) 0.0516(2)
C19_4 C 0.33624(17) 0.79278(19) 0.08962(13)
C21_4 C 0.3578(3) 0.8826(3) 0.1114(2)
C23_4 C 0.1725(3) 0.6337(4) 0.1033(2)
N3_4 N 0.1134(5) 0.2532(4) 0.0256(3)
C27_4 C 0.0875(4) 0.3226(4) 0.0487(3)
H11_4 H 0.0337 0.3410 0.0334
C33_4 C 0.1954(7) 0.2236(7) 0.0441(5)
H25_4 H 0.2288 0.2705 0.0654
H26_4 H 0.1976 0.1734 0.0705
H27_4 H 0.2156 0.2069 0.0090
H42_4 H 0.06208 0.822447 0.224171
C3_4 C 0.2850(3) 0.4054(3) 0.9747(2)
C4_4 C 0.1496(3) 0.4598(4) 0.9469(2)
C10_4 C 0.17262(14) 0.53477(15) 0.97936(10)
H4_4 H 0.1339 0.5786 0.9808
C11_4 C 0.3464(3) 0.3362(3) 0.9722(2)
C18_4 C 0.20511(17) 0.39509(19) 0.94399(13)
H7_4 H 0.1890 0.3440 0.9213
C22_4 C 0.0642(3) 0.4486(4) 0.9136(2)
C35_4 C 0.0614(8) 0.2056(8) 0.9763(6)
H31_4 H 0.0284 0.2470 0.9490
H32_4 H 0.0948 0.1721 0.9548
H33_4 H 0.0263 0.1661 0.9923
H43_4 H 0.974147 0.783775 0.225773
N1_3 N 0.10020(14) 0.99512(15) 0.63102(10)
H17_3 H 0.2185 0.9779 0.6419
C32_3 C 0.0700(8) 0.9082(5) 0.6428(4)
H22_3 H 0.0543 0.9087 0.6813
H23_3 H 0.1124 0.8650 0.6438
H24_3 H 0.0233 0.8934 0.6112
N1_4 N 0.89980(14) 0.00488(15) 0.36898(10)
H17_4 H 0.7815 0.0221 0.3581
C32_4 C 0.9300(8) 0.0918(5) 0.3572(4)
H22_4 H 0.9457 0.0913 0.3187
H23_4 H 0.8876 0.1350 0.3562
H24_4 H 0.9767 0.1066 0.3888
loop_
_geom_bond_atom_site_label_1
_geom_bond_atom_site_label_2
_geom_bond_site_symmetry_1
_geom_bond_site_symmetry_2
C25 O12 1_555 1_555
N2 C26 1_555 1_555
C26 O14 1_555 1_555
H10 C26 1_555 1_555
H16 C30 1_555 1_555
H18 C30 1_555 1_555
C31 N2 1_555 1_555
H19 C31 1_555 1_555
H20 C31 1_555 1_555
H21 C31 1_555 1_555
C36 N2 1_555 1_555
H34 C36 1_555 1_555
H35 C36 1_555 1_555
H36 C36 1_555 1_555
Zn8 O5 1_555 1_555
O2 C11 1_555 1_555
O4 C11 1_555 1_555
O8 C22 1_555 1_555
O13 Zn3 1_555 1_555
C1 H1 1_555 1_555
C3 C1 1_555 1_555
C11 C3 1_555 1_555
C18 C3 1_555 1_555
H7 C18 1_555 1_555
C22 C4 1_555 1_555
N3 C27 1_555 1_555
C27 O13 1_555 1_555
H11 C27 1_555 1_555
C33 N3 1_555 1_555
H25 C33 1_555 1_555
H26 C33 1_555 1_555
H27 C33 1_555 1_555
C35 N3 1_555 1_555
H31 C35 1_555 1_555
H32 C35 1_555 1_555
H33 C35 1_555 1_555
Zn5 O4 1_555 1_555
Zn7 O2 1_555 1_555
Zn12 O8 1_555 1_555
O25 Zn3 1_555 1_555
O26 Zn3 1_555 1_555
C4 C18 1_555 1_555
Zn5 O7 1_555 1_555
Zn7 O6 1_555 1_555
Zn4 O1 1_555 1_555
O3 C8 1_555 1_555
O6 C9 1_555 1_555
O7 C9 1_555 1_555
O9 C23 1_555 1_555
O10 C24 1_555 1_555
O11 C24 1_555 1_555
O16 Zn5 1_555 1_555
O17 Zn4 1_555 1_555
O18 Zn7 1_555 1_555
C2 H2 1_555 1_555
C5 H3 1_555 1_555
C6 C2 1_555 1_555
C7 C5 1_555 1_555
C8 C17 1_555 1_555
C9 C6 1_555 1_555
C10 H4 1_555 1_555
C12 H5 1_555 1_555
C13 C7 1_555 1_555
C15 C12 1_555 1_555
C16 C13 1_555 1_555
H6 C16 1_555 1_555
C17 C16 1_555 1_555
C19 C5 1_555 1_555
C20 C6 1_555 1_555
H8 C20 1_555 1_555
C21 C2 1_555 1_555
C23 O17 1_555 1_555
C24 C15 1_555 1_555
N4 C28 1_555 1_555
C28 O16 1_555 1_555
H12 C28 1_555 1_555
C29 N4 1_555 1_555
H13 C29 1_555 1_555
H14 C29 1_555 1_555
H15 C29 1_555 1_555
C34 N4 1_555 1_555
H28 C34 1_555 1_555
H29 C34 1_555 1_555
H30 C34 1_555 1_555
C37 H37 1_555 1_555
H38 C37 1_555 1_555
H39 C37 1_555 1_555
C38 O18 1_555 1_555
H40 C38 1_555 1_555
H41 C38 1_555 1_555
Zn9 O11 1_555 1_555
Zn10 O15 1_555 1_555
Zn11 O10 1_555 1_555
O22 Zn7 1_555 1_555
O23 Zn4 1_555 1_555
O24 Zn4 1_555 1_555
C7 C23 1_555 1_555
C10 C14 1_555 1_555
C12 C21 1_555 1_555
C13 C14 1_555 1_555
C15 C20 1_555 1_555
C17 C19 1_555 1_555
C19 C21 1_555 1_555
C37 C38 1_555 1_555
O1 H42 1_555 1_555
O1 H43 1_555 1_555
O2_2 C11_2 1_555 1_555
O8_2 C22_2 1_555 1_555
O15_2 C22_2 1_555 1_555
C4_2 C10_2 1_555 1_555
C10_2 H4_2 1_555 1_555
C11_2 C3_2 1_555 1_555
C18_2 C3_2 1_555 1_555
H7_2 C18_2 1_555 1_555
C22_2 C4_2 1_555 1_555
H31_2 C35_2 1_555 1_555
H32_2 C35_2 1_555 1_555
H33_2 C35_2 1_555 1_555
Zn6_2 O3_2 1_555 1_555
Zn7_2 O2_2 1_555 1_555
C4_2 C18_2 1_555 1_555
Zn9 O9_2 1_555 1_555
Zn11 O1_2 1_555 1_555
O5_2 C8_2 1_555 1_555
O9_2 C23_2 1_555 1_555
O13_2 Zn9 1_555 1_555
O17_2 Zn11 1_555 1_555
C1_2 H1_2 1_555 1_555
C2_2 H2_2 1_555 1_555
C5_2 H3_2 1_555 1_555
C7_2 C5_2 1_555 1_555
C8_2 C17_2 1_555 1_555
C12_2 H5_2 1_555 1_555
C13_2 C7_2 1_555 1_555
C14_2 C1_2 1_555 1_555
C15_2 C12_2 1_555 1_555
C16_2 C13_2 1_555 1_555
H6_2 C16_2 1_555 1_555
C17_2 C16_2 1_555 1_555
C19_2 C5_2 1_555 1_555
C21_2 C2_2 1_555 1_555
C23_2 O17_2 1_555 1_555
N3_2 C27_2 1_555 1_555
C27_2 O13_2 1_555 1_555
H11_2 C27_2 1_555 1_555
C33_2 N3_2 1_555 1_555
H25_2 C33_2 1_555 1_555
H26_2 C33_2 1_555 1_555
H27_2 C33_2 1_555 1_555
Zn5_2 O4_2 1_555 1_555
Zn8_2 O5_2 1_555 1_555
C7_2 C23_2 1_555 1_555
C12_2 C21_2 1_555 1_555
C13_2 C14_2 1_555 1_555
C17_2 C19_2 1_555 1_555
C19_2 C21_2 1_555 1_555
O1_2 H42_2 1_555 1_555
Zn7_2 O6_2 1_555 1_555
O18_2 Zn7_2 1_555 1_555
C37_2 H37_2 1_555 1_555
H38_2 C37_2 1_555 1_555
H39_2 C37_2 1_555 1_555
C38_2 O18_2 1_555 1_555
H40_2 C38_2 1_555 1_555
H41_2 C38_2 1_555 1_555
O22_2 Zn7_2 1_555 1_555
C37_2 C38_2 1_555 1_555
Zn5_2 O7_2 1_555 1_555
O7_2 C9_2 1_555 1_555
O24 C24_2 1_555 1_555
O12_2 Zn5_2 1_555 1_555
O14_2 Zn5_2 1_555 1_555
O16_2 Zn5_2 1_555 1_555
N1 C25_2 1_555 1_555
C9_2 C6_2 1_555 1_555
C20_2 C6_2 1_555 1_555
H8_2 C20_2 1_555 1_555
C25_2 O12_2 1_555 1_555
H9_2 C25_2 1_555 1_555
N2_2 C26_2 1_555 1_555
N4_2 C28_2 1_555 1_555
C26_2 O14_2 1_555 1_555
H10_2 C26_2 1_555 1_555
C28_2 O16_2 1_555 1_555
H12_2 C28_2 1_555 1_555
C29_2 N4_2 1_555 1_555
H13_2 C29_2 1_555 1_555
H14_2 C29_2 1_555 1_555
H15_2 C29_2 1_555 1_555
C30_2 N1 1_555 1_555
H16_2 C30_2 1_555 1_555
H17 C30_2 1_555 1_555
H18_2 C30_2 1_555 1_555
C31_2 N2_2 1_555 1_555
H19_2 C31_2 1_555 1_555
H20_2 C31_2 1_555 1_555
H21_2 C31_2 1_555 1_555
C32 N1 1_555 1_555
H22 C32 1_555 1_555
H23 C32 1_555 1_555
H24 C32 1_555 1_555
C34_2 N4_2 1_555 1_555
H28_2 C34_2 1_555 1_555
H29_2 C34_2 1_555 1_555
H30_2 C34_2 1_555 1_555
C36_2 N2_2 1_555 1_555
H34_2 C36_2 1_555 1_555
H35_2 C36_2 1_555 1_555
H36_2 C36_2 1_555 1_555
O20_2 Zn5_2 1_555 1_555
Zn6 O7_3 1_555 1_555
Zn8 O6_3 1_555 1_555
Zn12 O1_3 1_555 1_555
O20 C8_3 1_555 1_555
O6_3 C9_3 1_555 1_555
O7_3 C9_3 1_555 1_555
O9_3 C23_3 1_555 1_555
O10_2 C24_3 1_555 1_555
O11_2 C24_3 1_555 1_555
O16_3 Zn6 1_555 1_555
O17_3 Zn12 1_555 1_555
O18_3 Zn8 1_555 1_555
C2_3 H2_3 1_555 1_555
C5_3 H3_3 1_555 1_555
C6_3 C2_3 1_555 1_555
C7_3 C5_3 1_555 1_555
C8_3 C17_3 1_555 1_555
C9_3 C6_3 1_555 1_555
C10_3 H4_3 1_555 1_555
C12_3 H5_3 1_555 1_555
C13_3 C7_3 1_555 1_555
C15_3 C12_3 1_555 1_555
C16_3 C13_3 1_555 1_555
H6_3 C16_3 1_555 1_555
C17_3 C16_3 1_555 1_555
C19_3 C5_3 1_555 1_555
C20_3 C6_3 1_555 1_555
H8_3 C20_3 1_555 1_555
C21_3 C2_3 1_555 1_555
C23_3 O17_3 1_555 1_555
C24_3 C15_3 1_555 1_555
N4_3 C28_3 1_555 1_555
C28_3 O16_3 1_555 1_555
H12_3 C28_3 1_555 1_555
C29_3 N4_3 1_555 1_555
H13_3 C29_3 1_555 1_555
H14_3 C29_3 1_555 1_555
H15_3 C29_3 1_555 1_555
C34_3 N4_3 1_555 1_555
H28_3 C34_3 1_555 1_555
H29_3 C34_3 1_555 1_555
H30_3 C34_3 1_555 1_555
C37_3 H37_3 1_555 1_555
H38_3 C37_3 1_555 1_555
H39_3 C37_3 1_555 1_555
C38_3 O18_3 1_555 1_555
H40_3 C38_3 1_555 1_555
H41_3 C38_3 1_555 1_555
Zn10_2 O11_2 1_555 1_555
Zn12_2 O10_2 1_555 1_555
O19 Zn8 1_555 1_555
O21 Zn6 1_555 1_555
O24_2 Zn12 1_555 1_555
C7_3 C23_3 1_555 1_555
C10_3 C14_3 1_555 1_555
C12_3 C21_3 1_555 1_555
C13_3 C14_3 1_555 1_555
C15_3 C20_3 1_555 1_555
C17_3 C19_3 1_555 1_555
C19_3 C21_3 1_555 1_555
C37_3 C38_3 1_555 1_555
O1_3 H42_3 1_555 1_555
O1_3 H43_3 1_555 1_555
O19 C11_3 1_555 1_555
O21 C11_3 1_555 1_555
O23 C22_3 1_555 1_555
O13_3 Zn10 1_555 1_555
C1_3 H1_3 1_555 1_555
C3_3 C1_3 1_555 1_555
C11_3 C3_3 1_555 1_555
C18_3 C3_3 1_555 1_555
H7_3 C18_3 1_555 1_555
C22_3 C4_3 1_555 1_555
N3_3 C27_3 1_555 1_555
C27_3 O13_3 1_555 1_555
H11_3 C27_3 1_555 1_555
C33_3 N3_3 1_555 1_555
H25_3 C33_3 1_555 1_555
H26_3 C33_3 1_555 1_555
H27_3 C33_3 1_555 1_555
C35_3 N3_3 1_555 1_555
H31_3 C35_3 1_555 1_555
H32_3 C35_3 1_555 1_555
H33_3 C35_3 1_555 1_555
O25_2 Zn10 1_555 1_555
C4_3 C18_3 1_555 1_555
C25_3 O12_3 1_555 1_555
N2_3 C26_3 1_555 1_555
C26_3 O14_3 1_555 1_555
H10_3 C26_3 1_555 1_555
H16_3 C30_3 1_555 1_555
H18_3 C30_3 1_555 1_555
C31_3 N2_3 1_555 1_555
H19_3 C31_3 1_555 1_555
H20_3 C31_3 1_555 1_555
H21_3 C31_3 1_555 1_555
C36_3 N2_3 1_555 1_555
H34_3 C36_3 1_555 1_555
H35_3 C36_3 1_555 1_555
H36_3 C36_3 1_555 1_555
Zn6_2 O7_4 1_555 1_555
O7_4 C9_4 1_555 1_555
O24_2 C24_4 1_555 1_555
O12_4 Zn6_2 1_555 1_555
O14_4 Zn6_2 1_555 1_555
O16_4 Zn6_2 1_555 1_555
N1_2 C25_4 1_555 1_555
C9_4 C6_4 1_555 1_555
C20_4 C6_4 1_555 1_555
H8_4 C20_4 1_555 1_555
C25_4 O12_4 1_555 1_555
H9_4 C25_4 1_555 1_555
N2_4 C26_4 1_555 1_555
N4_4 C28_4 1_555 1_555
C26_4 O14_4 1_555 1_555
H10_4 C26_4 1_555 1_555
C28_4 O16_4 1_555 1_555
H12_4 C28_4 1_555 1_555
C29_4 N4_4 1_555 1_555
H13_4 C29_4 1_555 1_555
H14_4 C29_4 1_555 1_555
H15_4 C29_4 1_555 1_555
C30_4 N1_2 1_555 1_555
H16_4 C30_4 1_555 1_555
H17_2 C30_4 1_555 1_555
H18_4 C30_4 1_555 1_555
C31_4 N2_4 1_555 1_555
H19_4 C31_4 1_555 1_555
H20_4 C31_4 1_555 1_555
H21_4 C31_4 1_555 1_555
C32_2 N1_2 1_555 1_555
H22_2 C32_2 1_555 1_555
H23_2 C32_2 1_555 1_555
H24_2 C32_2 1_555 1_555
C34_4 N4_4 1_555 1_555
H28_4 C34_4 1_555 1_555
H29_4 C34_4 1_555 1_555
H30_4 C34_4 1_555 1_555
C36_4 N2_4 1_555 1_555
H34_4 C36_4 1_555 1_555
H35_4 C36_4 1_555 1_555
H36_4 C36_4 1_555 1_555
O21_2 Zn6_2 1_555 1_555
Zn8_2 O6_4 1_555 1_555
O18_4 Zn8_2 1_555 1_555
C37_4 H37_4 1_555 1_555
H38_4 C37_4 1_555 1_555
H39_4 C37_4 1_555 1_555
C38_4 O18_4 1_555 1_555
H40_4 C38_4 1_555 1_555
H41_4 C38_4 1_555 1_555
O19_2 Zn8_2 1_555 1_555
C37_4 C38_4 1_555 1_555
Zn10_2 O9_4 1_555 1_555
Zn12_2 O1_4 1_555 1_555
O22_2 C8_4 1_555 1_555
O9_4 C23_4 1_555 1_555
O13_4 Zn10_2 1_555 1_555
O17_4 Zn12_2 1_555 1_555
C1_4 H1_4 1_555 1_555
C2_4 H2_4 1_555 1_555
C5_4 H3_4 1_555 1_555
C7_4 C5_4 1_555 1_555
C8_4 C17_4 1_555 1_555
C12_4 H5_4 1_555 1_555
C13_4 C7_4 1_555 1_555
C14_4 C1_4 1_555 1_555
C15_4 C12_4 1_555 1_555
C16_4 C13_4 1_555 1_555
H6_4 C16_4 1_555 1_555
C17_4 C16_4 1_555 1_555
C19_4 C5_4 1_555 1_555
C21_4 C2_4 1_555 1_555
C23_4 O17_4 1_555 1_555
N3_4 C27_4 1_555 1_555
C27_4 O13_4 1_555 1_555
H11_4 C27_4 1_555 1_555
C33_4 N3_4 1_555 1_555
H25_4 C33_4 1_555 1_555
H26_4 C33_4 1_555 1_555
H27_4 C33_4 1_555 1_555
C7_4 C23_4 1_555 1_555
C12_4 C21_4 1_555 1_555
C13_4 C14_4 1_555 1_555
C17_4 C19_4 1_555 1_555
C19_4 C21_4 1_555 1_555
O1_4 H42_4 1_555 1_555
O19_2 C11_4 1_555 1_555
O23_2 C22_4 1_555 1_555
O26_2 C22_4 1_555 1_555
C4_4 C10_4 1_555 1_555
C10_4 H4_4 1_555 1_555
C11_4 C3_4 1_555 1_555
C18_4 C3_4 1_555 1_555
H7_4 C18_4 1_555 1_555
C22_4 C4_4 1_555 1_555
H31_4 C35_4 1_555 1_555
H32_4 C35_4 1_555 1_555
H33_4 C35_4 1_555 1_555
C4_4 C18_4 1_555 1_555
C32_3 N1_3 1_555 1_555
H22_3 C32_3 1_555 1_555
H23_3 C32_3 1_555 1_555
H24_3 C32_3 1_555 1_555
C32_4 N1_4 1_555 1_555
H22_4 C32_4 1_555 1_555
H23_4 C32_4 1_555 1_555
H24_4 C32_4 1_555 1_555

#END
