
###############################################################################
#
# This file contains modified crystal structure data generated from the
# MOF subset of the Cambridge Structural Database (CSD) v543 
# hosted by the Cambridge Crystallographic Data Centre (CCDC).
#
# This work is licensed under the Creative Commons
# Attribution-NonCommercial-ShareAlike 4.0 International License.
# To view a copy of this license, visit
# http://creativecommons.org/licenses/by-nc-sa/4.0/
# or send a letter to
# Creative Commons, PO Box 1866, Mountain View, CA 94042, USA.
#
# CIF created using the CSD Python API on 29 September 2022
# The structure has been converted into the P1 space group
# The structure has a 3D framework
# The original CSD entry NUFDIE is in the monoclinic crystal system
# The framework has been calculated to contain at least 10.0% void space
# The void calculation uses a probe of radius 1.32A, grid spacing 0.4
#
###############################################################################

data_NUFDIE
_chemical_formula_moiety         '(C416 H208 Cd20 N16 O192)n'
_symmetry_cell_setting           triclinic
_symmetry_space_group_name_H-M   'P 1'
_symmetry_Int_Tables_number      1
_space_group_name_Hall           'P 1'
loop_
_symmetry_equiv_pos_site_id
_symmetry_equiv_pos_as_xyz
1 x,y,z
_cell_length_a                   35.699(4)
_cell_length_b                   16.305(2)
_cell_length_c                   36.670(4)
_cell_angle_alpha                90
_cell_angle_beta                 102.959(4)
_cell_angle_gamma                90
_cell_volume                     20801
loop_
_atom_site_label
_atom_site_type_symbol
_atom_site_fract_x
_atom_site_fract_y
_atom_site_fract_z
Cd3 Cd 0.28624(3) 0.01181(7) 0.46453(3)
O25 O 0.3132(3) 0.0835(6) 0.4146(3)
O26 O 0.2655(3) 0.1381(6) 0.4349(3)
O31 O 0.3448(3) 0.0861(7) 0.5043(3)
O32 O 0.2926(3) 0.0531(6) 0.5241(3)
Cd1 Cd 0.12008(3) 0.23220(7) 0.74429(3)
Cd2 Cd 0.51620(3) 0.23049(7) 0.63306(3)
O1 O 0.1385(3) 0.2862(8) 0.6878(3)
O2 O 0.1718(3) 0.1934(8) 0.7201(4)
O3 O 0.1868(3) 0.4165(6) 0.5854(3)
O4 O 0.2345(3) 0.3619(6) 0.5651(3)
O7 O 0.4588(3) 0.0977(6) 0.8317(3)
O8 O 0.4377(3) 0.2211(7) 0.8113(3)
O9 O 0.4553(3) 0.2141(7) 0.6559(3)
O10 O 0.4606(3) 0.1777(6) 0.5992(3)
O13 O 0.5254(4) 0.3624(7) 0.6516(3)
O14 O 0.4741(3) 0.3725(6) 0.6056(4)
O15 O 0.5889(3) 0.6130(7) 0.7124(3)
O16 O 0.5578(3) 0.7304(6) 0.7008(4)
O17 O 0.4016(3) 0.7025(8) 0.6997(3)
O18 O 0.3443(3) 0.6629(7) 0.7031(3)
O19 O 0.2545(3) 0.5533(7) 0.5892(3)
O20 O 0.2763(3) 0.5355(7) 0.5383(3)
O21 O 0.3115(4) 0.8585(9) 0.4961(4)
O22 O 0.3334(3) 0.9304(7) 0.4552(4)
O23 O 0.4342(4) 0.8243(9) 0.3988(4)
O24 O 0.4684(5) 0.7221(10) 0.4231(5)
N1 N 0.3158(3) 0.1531(7) 0.6570(3)
N2 N 0.4133(4) 0.6459(8) 0.5684(4)
C1 C 0.1669(5) 0.2394(12) 0.6942(5)
C2 C 0.2121(5) 0.3613(9) 0.5858(4)
C3 C 0.2213(3) 0.1792(5) 0.6708(2)
H1 H 0.223699 0.138386 0.689702
C4 C 0.1925(3) 0.2381(6) 0.6671(3)
C5 C 0.1890(3) 0.2977(6) 0.6395(3)
H2 H 0.169294 0.337992 0.636907
C6 C 0.2142(3) 0.2986(5) 0.6156(2)
C7 C 0.2429(2) 0.2397(6) 0.6193(2)
H3 H 0.260174 0.240230 0.602966
C8 C 0.2465(2) 0.1800(5) 0.6469(3)
C9 C 0.2781(4) 0.1180(10) 0.6529(5)
H4 H 0.277369 0.085775 0.675596
H5 H 0.273378 0.079794 0.631381
C11 C 0.4367(4) 0.1415(11) 0.8087(4)
C12 C 0.3845(3) 0.1614(4) 0.7513(3)
H6 H 0.386540 0.219173 0.754349
C13 C 0.4079(2) 0.1100(5) 0.7770(2)
C14 C 0.4049(2) 0.0254(5) 0.7726(2)
C16 C 0.3550(2) 0.0436(5) 0.7169(2)
H8 H 0.336902 0.020863 0.696365
C17 C 0.3580(2) 0.1281(5) 0.7213(2)
C18 C 0.3328(5) 0.1885(10) 0.6952(4)
H9 H 0.311623 0.206577 0.706772
H10 H 0.348232 0.237425 0.692233
C19 C 0.4413(4) 0.1852(9) 0.6235(5)
C20 C 0.3274(5) 0.0839(9) 0.5305(4)
C21 C 0.3775(3) 0.1670(5) 0.6402(2)
H11 H 0.388802 0.185441 0.664771
C22 C 0.39941(19) 0.1629(6) 0.6133(3)
C23 C 0.3828(2) 0.1360(6) 0.5774(2)
H12 H 0.397830 0.133154 0.559029
C24 C 0.3444(3) 0.1131(6) 0.5683(2)
C25 C 0.32244(19) 0.1172(5) 0.5951(3)
H13 H 0.296133 0.101609 0.588887
C26 C 0.3390(2) 0.1442(6) 0.6311(2)
C27 C 0.3702(6) 0.6716(10) 0.6853(4)
C28 C 0.2816(4) 0.5592(9) 0.5714(5)
C29 C 0.3910(2) 0.6538(6) 0.6246(3)
H14 H 0.415559 0.674404 0.636506
C30 C 0.3625(3) 0.6458(6) 0.64470(19)
C31 C 0.3265(2) 0.6156(6) 0.6273(2)
H15 H 0.307024 0.610097 0.641019
C32 C 0.3190(2) 0.5934(5) 0.5897(2)
C33 C 0.3475(3) 0.6014(5) 0.56963(18)
H16 H 0.342402 0.586230 0.543972
C34 C 0.3835(2) 0.6316(6) 0.5871(2)
C35 C 0.3340(5) 0.8678(11) 0.4775(6)
C36 C 0.4412(6) 0.7749(15) 0.4222(6)
C37 C 0.3724(3) 0.7408(7) 0.5025(3)
H17 H 0.356673 0.734105 0.520037
C38 C 0.3662(3) 0.8064(6) 0.4777(3)
C39 C 0.3892(3) 0.8162(6) 0.4520(3)
H18 H 0.385004 0.861062 0.435080
C40 C 0.4184(3) 0.7604(7) 0.4512(3)
C41 C 0.4246(3) 0.6947(6) 0.4760(3)
H19 H 0.444609 0.656555 0.475461
C42 C 0.4016(3) 0.6849(6) 0.5017(3)
C43 C 0.4118(5) 0.6180(10) 0.5317(5)
H20 H 0.392474 0.573585 0.525752
H21 H 0.437085 0.594345 0.530679
C44 C 0.4998(6) 0.4036(8) 0.6299(5)
C45 C 0.5610(4) 0.6552(8) 0.6948(4)
C46 C 0.5051(3) 0.6647(4) 0.6400(3)
H22 H 0.506349 0.722677 0.642498
C47 C 0.5313(2) 0.6158(6) 0.6644(2)
C48 C 0.5295(3) 0.5309(5) 0.6608(3)
H23 H 0.547424 0.497498 0.677389
C49 C 0.5016(3) 0.4950(4) 0.6328(3)
C50 C 0.4754(2) 0.5439(6) 0.6085(2)
H24 H 0.456252 0.519317 0.589366
C51 C 0.4772(2) 0.6287(5) 0.6121(2)
C52 C 0.4495(5) 0.6818(11) 0.5835(5)
H25 H 0.445297 0.734095 0.595723
H26 H 0.461962 0.694987 0.562707
Cd4 Cd 0.62008(3) 0.73220(7) 0.74429(3)
Cd6 Cd 0.37992(3) 0.73220(7) 0.75571(3)
Cd7 Cd 0.48380(3) 0.23049(7) 0.86694(3)
Cd8 Cd 0.48380(3) 0.76951(7) 0.36694(3)
Cd10 Cd 0.21376(3) 0.48819(7) 0.53547(3)
O27 O 0.1550(4) 0.3674(7) 0.7783(3)
O28 O 0.0961(3) 0.3594(6) 0.7462(3)
O29 O 0.5412(3) 0.0977(6) 0.6683(3)
O30 O 0.5623(3) 0.2211(7) 0.6887(3)
O33 O 0.0889(3) 0.1130(7) 0.7124(3)
O34 O 0.0578(3) 0.2304(6) 0.7008(4)
O35 O 0.0984(3) 0.2025(8) 0.8003(3)
O36 O 0.1557(3) 0.1629(7) 0.7969(3)
O37 O 0.2455(3) 0.9467(7) 0.4108(3)
O38 O 0.2237(3) 0.9645(7) 0.4617(3)
O39 O 0.5658(4) 0.1757(9) 0.6012(4)
O40 O 0.5316(5) 0.2779(10) 0.5769(5)
O5 O 0.3450(4) 0.8674(7) 0.7217(3)
O6 O 0.4039(3) 0.8594(6) 0.7538(3)
C10 C 0.3757(4) 0.9022(7) 0.7383(4)
H7 H 0.420881 0.990301 0.790089
C15 C 0.3784(3) 0.9922(4) 0.7425(3)
Cd3_2 Cd 0.71376(3) 0.01181(7) 0.03547(3)
O25_2 O 0.6868(3) 0.0835(6) 0.0854(3)
O26_2 O 0.7345(3) 0.1381(6) 0.0651(3)
O31_2 O 0.6552(3) 0.0861(7) 0.9957(3)
O32_2 O 0.7074(3) 0.0531(6) 0.9759(3)
O21_2 O 0.6885(4) 0.8585(9) 0.0039(4)
O22_2 O 0.6666(3) 0.9304(7) 0.0448(4)
O23_2 O 0.5658(4) 0.8243(9) 0.1012(4)
O24_2 O 0.5316(5) 0.7221(10) 0.0769(5)
C35_2 C 0.6660(5) 0.8678(11) 0.0225(6)
C36_2 C 0.5588(6) 0.7749(15) 0.0778(6)
C38_2 C 0.6338(3) 0.8064(6) 0.0223(3)
C39_2 C 0.6108(3) 0.8162(6) 0.0480(3)
H18_2 H 0.614996 0.861062 0.064920
C40_2 C 0.5816(3) 0.7604(7) 0.0488(3)
C41_2 C 0.5754(3) 0.6947(6) 0.0240(3)
H19_2 H 0.555391 0.656555 0.024539
Cd8_2 Cd 0.51620(3) 0.76951(7) 0.13306(3)
O37_2 O 0.7545(3) 0.9467(7) 0.0892(3)
O38_2 O 0.7763(3) 0.9645(7) 0.0383(3)
Cd1_2 Cd 0.87992(3) 0.23220(7) 0.75571(3)
O1_2 O 0.8615(3) 0.2862(8) 0.8122(3)
O2_2 O 0.8282(3) 0.1934(8) 0.7799(4)
O3_2 O 0.8132(3) 0.4165(6) 0.9146(3)
O4_2 O 0.7655(3) 0.3619(6) 0.9349(3)
O9_2 O 0.5447(3) 0.2141(7) 0.8441(3)
O10_2 O 0.5394(3) 0.1777(6) 0.9008(3)
O13_2 O 0.4746(4) 0.3624(7) 0.8484(3)
O14_2 O 0.5259(3) 0.3725(6) 0.8944(4)
O15_2 O 0.4111(3) 0.6130(7) 0.7876(3)
O16_2 O 0.4422(3) 0.7304(6) 0.7992(4)
O17_2 O 0.5984(3) 0.7025(8) 0.8003(3)
O18_2 O 0.6557(3) 0.6629(7) 0.7969(3)
O19_2 O 0.7455(3) 0.5533(7) 0.9108(3)
O20_2 O 0.7237(3) 0.5355(7) 0.9617(3)
N1_2 N 0.6842(3) 0.1531(7) 0.8430(3)
N2_2 N 0.5867(4) 0.6459(8) 0.9316(4)
C1_2 C 0.8331(5) 0.2394(12) 0.8058(5)
C2_2 C 0.7879(5) 0.3613(9) 0.9142(4)
C3_2 C 0.7787(3) 0.1792(5) 0.8292(2)
H1_2 H 0.776301 0.138386 0.810298
C4_2 C 0.8075(3) 0.2381(6) 0.8329(3)
C5_2 C 0.8110(3) 0.2977(6) 0.8605(3)
H2_2 H 0.830706 0.337992 0.863093
C6_2 C 0.7858(3) 0.2986(5) 0.8844(2)
C7_2 C 0.7571(2) 0.2397(6) 0.8807(2)
H3_2 H 0.739826 0.240230 0.897034
C8_2 C 0.7535(2) 0.1800(5) 0.8531(3)
C9_2 C 0.7219(4) 0.1180(10) 0.8471(5)
H4_2 H 0.722631 0.085775 0.824404
H5_2 H 0.726622 0.079794 0.868619
C11_2 C 0.5633(4) 0.1415(11) 0.6913(4)
C12_2 C 0.6155(3) 0.1614(4) 0.7487(3)
H6_2 H 0.613460 0.219173 0.745651
C13_2 C 0.5921(2) 0.1100(5) 0.7230(2)
C14_2 C 0.5951(2) 0.0254(5) 0.7274(2)
C16_2 C 0.6450(2) 0.0436(5) 0.7831(2)
H8_2 H 0.663098 0.020863 0.803635
C17_2 C 0.6420(2) 0.1281(5) 0.7787(2)
C18_2 C 0.6672(5) 0.1885(10) 0.8048(4)
H9_2 H 0.688377 0.206577 0.793228
H10_2 H 0.651768 0.237425 0.807767
C19_2 C 0.5587(4) 0.1852(9) 0.8765(5)
C20_2 C 0.6726(5) 0.0839(9) 0.9695(4)
C21_2 C 0.6225(3) 0.1670(5) 0.8598(2)
H11_2 H 0.611198 0.185441 0.835229
C22_2 C 0.60059(19) 0.1629(6) 0.8867(3)
C23_2 C 0.6172(2) 0.1360(6) 0.9226(2)
H12_2 H 0.602170 0.133154 0.940971
C24_2 C 0.6556(3) 0.1131(6) 0.9317(2)
C25_2 C 0.67756(19) 0.1172(5) 0.9049(3)
H13_2 H 0.703867 0.101609 0.911113
C26_2 C 0.6610(2) 0.1442(6) 0.8689(2)
C27_2 C 0.6298(6) 0.6716(10) 0.8147(4)
C28_2 C 0.7184(4) 0.5592(9) 0.9286(5)
C29_2 C 0.6090(2) 0.6538(6) 0.8754(3)
H14_2 H 0.584441 0.674404 0.863494
C30_2 C 0.6375(3) 0.6458(6) 0.85530(19)
C31_2 C 0.6735(2) 0.6156(6) 0.8727(2)
H15_2 H 0.692976 0.610097 0.858981
C32_2 C 0.6810(2) 0.5934(5) 0.9103(2)
C33_2 C 0.6525(3) 0.6014(5) 0.93037(18)
H16_2 H 0.657598 0.586230 0.956028
C34_2 C 0.6165(2) 0.6316(6) 0.9129(2)
C37_2 C 0.6276(3) 0.7408(7) 0.9975(3)
H17_2 H 0.643327 0.734105 0.979963
C42_2 C 0.5984(3) 0.6849(6) 0.9983(3)
C43_2 C 0.5882(5) 0.6180(10) 0.9683(5)
H20_2 H 0.607526 0.573585 0.974248
H21_2 H 0.562915 0.594345 0.969321
C44_2 C 0.5002(6) 0.4036(8) 0.8701(5)
C45_2 C 0.4390(4) 0.6552(8) 0.8052(4)
C46_2 C 0.4949(3) 0.6647(4) 0.8600(3)
H22_2 H 0.493651 0.722677 0.857502
C47_2 C 0.4687(2) 0.6158(6) 0.8356(2)
C48_2 C 0.4705(3) 0.5309(5) 0.8392(3)
H23_2 H 0.452576 0.497498 0.822611
C49_2 C 0.4984(3) 0.4950(4) 0.8672(3)
C50_2 C 0.5246(2) 0.5439(6) 0.8915(2)
H24_2 H 0.543748 0.519317 0.910634
C51_2 C 0.5228(2) 0.6287(5) 0.8879(2)
C52_2 C 0.5505(5) 0.6818(11) 0.9165(5)
H25_2 H 0.554703 0.734095 0.904277
H26_2 H 0.538038 0.694987 0.937293
Cd10_2 Cd 0.78624(3) 0.48819(7) 0.96453(3)
O27_2 O 0.8450(4) 0.3674(7) 0.7217(3)
O28_2 O 0.9039(3) 0.3594(6) 0.7538(3)
O33_2 O 0.9111(3) 0.1130(7) 0.7876(3)
O34_2 O 0.9422(3) 0.2304(6) 0.7992(4)
O35_2 O 0.9016(3) 0.2025(8) 0.6997(3)
O36_2 O 0.8443(3) 0.1629(7) 0.7031(3)
O39_2 O 0.4342(4) 0.1757(9) 0.8988(4)
O40_2 O 0.4684(5) 0.2779(10) 0.9231(5)
O5_2 O 0.6550(4) 0.8674(7) 0.7783(3)
O6_2 O 0.5961(3) 0.8594(6) 0.7462(3)
C10_2 C 0.6243(4) 0.9022(7) 0.7617(4)
H7_2 H 0.579119 0.990301 0.709911
C15_2 C 0.6216(3) 0.9922(4) 0.7575(3)
C45_3 C 0.0610(4) 0.1552(8) 0.6948(4)
C46_3 C 0.0051(3) 0.1647(4) 0.6400(3)
H22_3 H 0.006349 0.222677 0.642498
C47_3 C 0.0313(2) 0.1158(6) 0.6644(2)
C48_3 C 0.0295(3) 0.0309(5) 0.6608(3)
Cd2_2 Cd 0.01620(3) 0.73049(7) 0.63306(3)
O13_3 O 0.0254(4) 0.8624(7) 0.6516(3)
H23_3 H 0.047424 0.997498 0.677389
C49_3 C 0.0016(3) 0.9950(4) 0.6328(3)
O29_2 O 0.0412(3) 0.5977(6) 0.6683(3)
O30_2 O 0.0623(3) 0.7211(7) 0.6887(3)
O39_3 O 0.0658(4) 0.6757(9) 0.6012(4)
O40_3 O 0.0316(5) 0.7779(10) 0.5769(5)
Cd3_3 Cd 0.78624(3) 0.51181(7) 0.46453(3)
O19_3 O 0.7545(3) 0.0533(7) 0.5892(3)
O20_3 O 0.7763(3) 0.0355(7) 0.5383(3)
O21_3 O 0.8115(4) 0.3585(9) 0.4961(4)
O22_3 O 0.8334(3) 0.4304(7) 0.4552(4)
O23_3 O 0.9342(4) 0.3243(9) 0.3988(4)
O24_3 O 0.9684(5) 0.2221(10) 0.4231(5)
N2_3 N 0.9133(4) 0.1459(8) 0.5684(4)
C27_3 C 0.8702(6) 0.1716(10) 0.6853(4)
C28_3 C 0.7816(4) 0.0592(9) 0.5714(5)
C29_3 C 0.8910(2) 0.1538(6) 0.6246(3)
H14_3 H 0.915559 0.174404 0.636506
C30_3 C 0.8625(3) 0.1458(6) 0.64470(19)
C31_3 C 0.8265(2) 0.1156(6) 0.6273(2)
H15_3 H 0.807024 0.110097 0.641019
C32_3 C 0.8190(2) 0.0934(5) 0.5897(2)
C33_3 C 0.8475(3) 0.1014(5) 0.56963(18)
H16_3 H 0.842402 0.086230 0.543972
C34_3 C 0.8835(2) 0.1316(6) 0.5871(2)
C35_3 C 0.8340(5) 0.3678(11) 0.4775(6)
C36_3 C 0.9412(6) 0.2749(15) 0.4222(6)
C37_3 C 0.8724(3) 0.2408(7) 0.5025(3)
H17_3 H 0.856673 0.234105 0.520037
C38_3 C 0.8662(3) 0.3064(6) 0.4777(3)
C39_3 C 0.8892(3) 0.3162(6) 0.4520(3)
H18_3 H 0.885004 0.361062 0.435080
C40_3 C 0.9184(3) 0.2604(7) 0.4512(3)
C41_3 C 0.9246(3) 0.1947(6) 0.4760(3)
H19_3 H 0.944609 0.156555 0.475461
C42_3 C 0.9016(3) 0.1849(6) 0.5017(3)
C43_3 C 0.9118(5) 0.1180(10) 0.5317(5)
H20_3 H 0.892474 0.073585 0.525752
H21_3 H 0.937085 0.094345 0.530679
C50_3 C 0.9754(2) 0.0439(6) 0.6085(2)
H24_3 H 0.956252 0.019317 0.589366
C51_3 C 0.9772(2) 0.1287(5) 0.6121(2)
C52_3 C 0.9495(5) 0.1818(11) 0.5835(5)
H25_3 H 0.945297 0.234095 0.595723
H26_3 H 0.961962 0.194987 0.562707
Cd8_3 Cd 0.98380(3) 0.26951(7) 0.36694(3)
O25_3 O 0.8132(3) 0.5835(6) 0.4146(3)
O26_3 O 0.7655(3) 0.6381(6) 0.4349(3)
O31_3 O 0.8448(3) 0.5861(7) 0.5043(3)
O32_3 O 0.7926(3) 0.5531(6) 0.5241(3)
O37_3 O 0.7455(3) 0.4467(7) 0.4108(3)
O38_3 O 0.7237(3) 0.4645(7) 0.4617(3)
O1_3 O 0.6385(3) 0.7862(8) 0.6878(3)
O2_3 O 0.6718(3) 0.6934(8) 0.7201(4)
O3_3 O 0.6868(3) 0.9165(6) 0.5854(3)
O4_3 O 0.7345(3) 0.8619(6) 0.5651(3)
O7_2 O 0.9588(3) 0.5977(6) 0.8317(3)
O8_2 O 0.9377(3) 0.7211(7) 0.8113(3)
O9_3 O 0.9553(3) 0.7141(7) 0.6559(3)
O10_3 O 0.9606(3) 0.6777(6) 0.5992(3)
O14_3 O 0.9741(3) 0.8725(6) 0.6056(4)
N1_3 N 0.8158(3) 0.6531(7) 0.6570(3)
C1_3 C 0.6669(5) 0.7394(12) 0.6942(5)
C2_3 C 0.7121(5) 0.8613(9) 0.5858(4)
C3_3 C 0.7213(3) 0.6792(5) 0.6708(2)
H1_3 H 0.723699 0.638386 0.689702
C4_3 C 0.6925(3) 0.7381(6) 0.6671(3)
C5_3 C 0.6890(3) 0.7977(6) 0.6395(3)
H2_3 H 0.669294 0.837992 0.636907
C6_3 C 0.7142(3) 0.7986(5) 0.6156(2)
C7_3 C 0.7429(2) 0.7397(6) 0.6193(2)
H3_3 H 0.760174 0.740230 0.602966
C8_3 C 0.7465(2) 0.6800(5) 0.6469(3)
C9_3 C 0.7781(4) 0.6180(10) 0.6529(5)
H4_3 H 0.777369 0.585775 0.675596
H5_3 H 0.773378 0.579794 0.631381
C10_3 C 0.8757(4) 0.4022(7) 0.7383(4)
C11_3 C 0.9367(4) 0.6415(11) 0.8087(4)
C12_3 C 0.8845(3) 0.6614(4) 0.7513(3)
H6_3 H 0.886540 0.719173 0.754349
C13_3 C 0.9079(2) 0.6100(5) 0.7770(2)
C14_3 C 0.9049(2) 0.5254(5) 0.7726(2)
H7_3 H 0.920881 0.490301 0.790089
C15_3 C 0.8784(3) 0.4922(4) 0.7425(3)
C16_3 C 0.8550(2) 0.5436(5) 0.7169(2)
H8_3 H 0.836902 0.520863 0.696365
C17_3 C 0.8580(2) 0.6281(5) 0.7213(2)
C18_3 C 0.8328(5) 0.6885(10) 0.6952(4)
H9_3 H 0.811623 0.706577 0.706772
H10_3 H 0.848232 0.737425 0.692233
C19_3 C 0.9413(4) 0.6852(9) 0.6235(5)
C20_3 C 0.8274(5) 0.5839(9) 0.5305(4)
C21_3 C 0.8775(3) 0.6670(5) 0.6402(2)
H11_3 H 0.888802 0.685441 0.664771
C22_3 C 0.89941(19) 0.6629(6) 0.6133(3)
C23_3 C 0.8828(2) 0.6360(6) 0.5774(2)
H12_3 H 0.897830 0.633154 0.559029
C24_3 C 0.8444(3) 0.6131(6) 0.5683(2)
C25_3 C 0.82244(19) 0.6172(5) 0.5951(3)
H13_3 H 0.796133 0.601609 0.588887
C26_3 C 0.8390(2) 0.6442(6) 0.6311(2)
C44_3 C 0.9998(6) 0.9036(8) 0.6299(5)
Cd7_2 Cd 0.98380(3) 0.73049(7) 0.86694(3)
Cd10_3 Cd 0.71376(3) 0.98819(7) 0.53547(3)
Cd3_4 Cd 0.21376(3) 0.51181(7) 0.03547(3)
O21_4 O 0.1885(4) 0.3585(9) 0.0039(4)
O22_4 O 0.1666(3) 0.4304(7) 0.0448(4)
O23_4 O 0.0658(4) 0.3243(9) 0.1012(4)
O24_4 O 0.0316(5) 0.2221(10) 0.0769(5)
C35_4 C 0.1660(5) 0.3678(11) 0.0225(6)
C36_4 C 0.0588(6) 0.2749(15) 0.0778(6)
C38_4 C 0.1338(3) 0.3064(6) 0.0223(3)
C39_4 C 0.1108(3) 0.3162(6) 0.0480(3)
H18_4 H 0.114996 0.361062 0.064920
C40_4 C 0.0816(3) 0.2604(7) 0.0488(3)
C41_4 C 0.0754(3) 0.1947(6) 0.0240(3)
H19_4 H 0.055391 0.156555 0.024539
Cd8_4 Cd 0.01620(3) 0.26951(7) 0.13306(3)
O25_4 O 0.1868(3) 0.5835(6) 0.0854(3)
O26_4 O 0.2345(3) 0.6381(6) 0.0651(3)
O37_4 O 0.2545(3) 0.4467(7) 0.0892(3)
O38_4 O 0.2763(3) 0.4645(7) 0.0383(3)
O19_4 O 0.2455(3) 0.0533(7) 0.9108(3)
O20_4 O 0.2237(3) 0.0355(7) 0.9617(3)
N2_4 N 0.0867(4) 0.1459(8) 0.9316(4)
C27_4 C 0.1298(6) 0.1716(10) 0.8147(4)
C28_4 C 0.2184(4) 0.0592(9) 0.9286(5)
C29_4 C 0.1090(2) 0.1538(6) 0.8754(3)
H14_4 H 0.084441 0.174404 0.863494
C30_4 C 0.1375(3) 0.1458(6) 0.85530(19)
C31_4 C 0.1735(2) 0.1156(6) 0.8727(2)
H15_4 H 0.192976 0.110097 0.858981
C32_4 C 0.1810(2) 0.0934(5) 0.9103(2)
C33_4 C 0.1525(3) 0.1014(5) 0.93037(18)
H16_4 H 0.157598 0.086230 0.956028
C34_4 C 0.1165(2) 0.1316(6) 0.9129(2)
C37_4 C 0.1276(3) 0.2408(7) 0.9975(3)
H17_4 H 0.143327 0.234105 0.979963
C42_4 C 0.0984(3) 0.1849(6) 0.9983(3)
C43_4 C 0.0882(5) 0.1180(10) 0.9683(5)
H20_4 H 0.107526 0.073585 0.974248
H21_4 H 0.062915 0.094345 0.969321
C50_4 C 0.0246(2) 0.0439(6) 0.8915(2)
H24_4 H 0.043748 0.019317 0.910634
C51_4 C 0.0228(2) 0.1287(5) 0.8879(2)
C52_4 C 0.0505(5) 0.1818(11) 0.9165(5)
H25_4 H 0.054703 0.234095 0.904277
H26_4 H 0.038038 0.194987 0.937293
O31_4 O 0.1552(3) 0.5861(7) 0.9957(3)
O32_4 O 0.2074(3) 0.5531(6) 0.9759(3)
O1_4 O 0.3615(3) 0.7862(8) 0.8122(3)
O2_4 O 0.3282(3) 0.6934(8) 0.7799(4)
O3_4 O 0.3132(3) 0.9165(6) 0.9146(3)
O4_4 O 0.2655(3) 0.8619(6) 0.9349(3)
O9_4 O 0.0447(3) 0.7141(7) 0.8441(3)
O10_4 O 0.0394(3) 0.6777(6) 0.9008(3)
O14_4 O 0.0259(3) 0.8725(6) 0.8944(4)
N1_4 N 0.1842(3) 0.6531(7) 0.8430(3)
C1_4 C 0.3331(5) 0.7394(12) 0.8058(5)
C2_4 C 0.2879(5) 0.8613(9) 0.9142(4)
C3_4 C 0.2787(3) 0.6792(5) 0.8292(2)
H1_4 H 0.276301 0.638386 0.810298
C4_4 C 0.3075(3) 0.7381(6) 0.8329(3)
C5_4 C 0.3110(3) 0.7977(6) 0.8605(3)
H2_4 H 0.330706 0.837992 0.863093
C6_4 C 0.2858(3) 0.7986(5) 0.8844(2)
C7_4 C 0.2571(2) 0.7397(6) 0.8807(2)
H3_4 H 0.239826 0.740230 0.897034
C8_4 C 0.2535(2) 0.6800(5) 0.8531(3)
C9_4 C 0.2219(4) 0.6180(10) 0.8471(5)
H4_4 H 0.222631 0.585775 0.824404
H5_4 H 0.226622 0.579794 0.868619
C10_4 C 0.1243(4) 0.4022(7) 0.7617(4)
C11_4 C 0.0633(4) 0.6415(11) 0.6913(4)
C12_4 C 0.1155(3) 0.6614(4) 0.7487(3)
H6_4 H 0.113460 0.719173 0.745651
C13_4 C 0.0921(2) 0.6100(5) 0.7230(2)
C14_4 C 0.0951(2) 0.5254(5) 0.7274(2)
H7_4 H 0.079119 0.490301 0.709911
C15_4 C 0.1216(3) 0.4922(4) 0.7575(3)
C16_4 C 0.1450(2) 0.5436(5) 0.7831(2)
H8_4 H 0.163098 0.520863 0.803635
C17_4 C 0.1420(2) 0.6281(5) 0.7787(2)
C18_4 C 0.1672(5) 0.6885(10) 0.8048(4)
H9_4 H 0.188377 0.706577 0.793228
H10_4 H 0.151768 0.737425 0.807767
C19_4 C 0.0587(4) 0.6852(9) 0.8765(5)
C20_4 C 0.1726(5) 0.5839(9) 0.9695(4)
C21_4 C 0.1225(3) 0.6670(5) 0.8598(2)
H11_4 H 0.111198 0.685441 0.835229
C22_4 C 0.10059(19) 0.6629(6) 0.8867(3)
C23_4 C 0.1172(2) 0.6360(6) 0.9226(2)
H12_4 H 0.102170 0.633154 0.940971
C24_4 C 0.1556(3) 0.6131(6) 0.9317(2)
C25_4 C 0.17756(19) 0.6172(5) 0.9049(3)
H13_4 H 0.203867 0.601609 0.911113
C26_4 C 0.1610(2) 0.6442(6) 0.8689(2)
C44_4 C 0.0002(6) 0.9036(8) 0.8701(5)
Cd10_4 Cd 0.28624(3) 0.98819(7) 0.96453(3)
C45_4 C 0.9390(4) 0.1552(8) 0.8052(4)
C46_4 C 0.9949(3) 0.1647(4) 0.8600(3)
H22_4 H 0.993651 0.222677 0.857502
C47_4 C 0.9687(2) 0.1158(6) 0.8356(2)
C48_4 C 0.9705(3) 0.0309(5) 0.8392(3)
O13_4 O 0.9746(4) 0.8624(7) 0.8484(3)
H23_4 H 0.952576 0.997498 0.822611
C49_4 C 0.9984(3) 0.9950(4) 0.8672(3)
O39_4 O 0.9342(4) 0.6757(9) 0.8988(4)
O40_4 O 0.9684(5) 0.7779(10) 0.9231(5)
O5_3 O 0.6550(4) 0.1326(7) 0.2783(3)
O6_3 O 0.5961(3) 0.1406(6) 0.2462(3)
C10_5 C 0.6243(4) 0.0978(7) 0.2617(4)
H7_5 H 0.579119 0.009699 0.209911
C15_5 C 0.6216(3) 0.0078(4) 0.2575(3)
Cd5 Cd 0.62008(3) 0.26780(7) 0.24429(3)
Cd1_3 Cd 0.87992(3) 0.76780(7) 0.25571(3)
O1_5 O 0.8615(3) 0.7138(8) 0.3122(3)
O2_5 O 0.8282(3) 0.8066(8) 0.2799(4)
O7_3 O 0.5412(3) 0.9023(6) 0.1683(3)
O8_3 O 0.5623(3) 0.7789(7) 0.1887(3)
O9_5 O 0.5447(3) 0.7859(7) 0.3441(3)
O10_5 O 0.5394(3) 0.8223(6) 0.4008(3)
O11 O 0.6552(3) 0.9139(7) 0.4957(3)
O12 O 0.7074(3) 0.9469(6) 0.4759(3)
O13_5 O 0.4746(4) 0.6376(7) 0.3484(3)
O14_5 O 0.5259(3) 0.6275(6) 0.3944(4)
O15_3 O 0.4111(3) 0.3870(7) 0.2876(3)
O16_3 O 0.4422(3) 0.2696(6) 0.2992(4)
O17_3 O 0.5984(3) 0.2975(8) 0.3003(3)
O18_3 O 0.6557(3) 0.3371(7) 0.2969(3)
O21_5 O 0.6885(4) 0.1415(9) 0.5039(4)
O22_5 O 0.6666(3) 0.0696(7) 0.5448(4)
N1_5 N 0.6842(3) 0.8469(7) 0.3430(3)
N2_5 N 0.5867(4) 0.3541(8) 0.4316(4)
C1_5 C 0.8331(5) 0.7606(12) 0.3058(5)
C2_5 C 0.7879(5) 0.6387(9) 0.4142(4)
C3_5 C 0.7787(3) 0.8208(5) 0.3292(2)
H1_5 H 0.776301 0.861614 0.310298
C4_5 C 0.8075(3) 0.7619(6) 0.3329(3)
C5_5 C 0.8110(3) 0.7023(6) 0.3605(3)
H2_5 H 0.830706 0.662008 0.363093
C6_5 C 0.7858(3) 0.7014(5) 0.3844(2)
C7_5 C 0.7571(2) 0.7603(6) 0.3807(2)
H3_5 H 0.739826 0.759770 0.397034
C8_5 C 0.7535(2) 0.8200(5) 0.3531(3)
C9_5 C 0.7219(4) 0.8820(10) 0.3471(5)
H4_5 H 0.722631 0.914225 0.324404
H5_5 H 0.726622 0.920206 0.368619
C11_5 C 0.5633(4) 0.8585(11) 0.1913(4)
C12_5 C 0.6155(3) 0.8386(4) 0.2487(3)
H6_5 H 0.613460 0.780827 0.245651
C13_5 C 0.5921(2) 0.8900(5) 0.2230(2)
C14_5 C 0.5951(2) 0.9746(5) 0.2274(2)
C16_5 C 0.6450(2) 0.9564(5) 0.2831(2)
H8_5 H 0.663098 0.979137 0.303635
C17_5 C 0.6420(2) 0.8719(5) 0.2787(2)
C18_5 C 0.6672(5) 0.8115(10) 0.3048(4)
H9_5 H 0.688377 0.793423 0.293228
H10_5 H 0.651768 0.762575 0.307767
C19_5 C 0.5587(4) 0.8148(9) 0.3765(5)
C20_5 C 0.6726(5) 0.9161(9) 0.4695(4)
C21_5 C 0.6225(3) 0.8330(5) 0.3598(2)
H11_5 H 0.611198 0.814559 0.335229
C22_5 C 0.60059(19) 0.8371(6) 0.3867(3)
C23_5 C 0.6172(2) 0.8640(6) 0.4226(2)
H12_5 H 0.602170 0.866846 0.440971
C24_5 C 0.6556(3) 0.8869(6) 0.4317(2)
C25_5 C 0.67756(19) 0.8828(5) 0.4049(3)
H13_5 H 0.703867 0.898391 0.411113
C26_5 C 0.6610(2) 0.8558(6) 0.3689(2)
C27_5 C 0.6298(6) 0.3284(10) 0.3147(4)
C28_5 C 0.7184(4) 0.4408(9) 0.4286(5)
C29_5 C 0.6090(2) 0.3462(6) 0.3754(3)
H14_5 H 0.584441 0.325596 0.363494
C30_5 C 0.6375(3) 0.3542(6) 0.35530(19)
C31_5 C 0.6735(2) 0.3844(6) 0.3727(2)
H15_5 H 0.692976 0.389903 0.358981
C32_5 C 0.6810(2) 0.4066(5) 0.4103(2)
C33_5 C 0.6525(3) 0.3986(5) 0.43037(18)
H16_5 H 0.657598 0.413770 0.456028
C34_5 C 0.6165(2) 0.3684(6) 0.4129(2)
C35_5 C 0.6660(5) 0.1322(11) 0.5225(6)
C36_5 C 0.5588(6) 0.2251(15) 0.5778(6)
C37_5 C 0.6276(3) 0.2592(7) 0.4975(3)
H17_5 H 0.643327 0.265895 0.479963
C38_5 C 0.6338(3) 0.1936(6) 0.5223(3)
C39_5 C 0.6108(3) 0.1838(6) 0.5480(3)
H18_5 H 0.614996 0.138938 0.564920
C40_5 C 0.5816(3) 0.2396(7) 0.5488(3)
C41_5 C 0.5754(3) 0.3053(6) 0.5240(3)
H19_5 H 0.555391 0.343445 0.524539
C42_5 C 0.5984(3) 0.3151(6) 0.4983(3)
C43_5 C 0.5882(5) 0.3820(10) 0.4683(5)
H20_5 H 0.607526 0.426415 0.474248
H21_5 H 0.562915 0.405655 0.469321
C44_5 C 0.5002(6) 0.5964(8) 0.3701(5)
C45_5 C 0.4390(4) 0.3448(8) 0.3052(4)
C46_5 C 0.4949(3) 0.3353(4) 0.3600(3)
H22_5 H 0.493651 0.277323 0.357502
C47_5 C 0.4687(2) 0.3842(6) 0.3356(2)
C48_5 C 0.4705(3) 0.4691(5) 0.3392(3)
H23_5 H 0.452576 0.502502 0.322611
C49_5 C 0.4984(3) 0.5050(4) 0.3672(3)
C50_5 C 0.5246(2) 0.4561(6) 0.3915(2)
H24_5 H 0.543748 0.480683 0.410634
C51_5 C 0.5228(2) 0.3713(5) 0.3879(2)
C52_5 C 0.5505(5) 0.3182(11) 0.4165(5)
H25_5 H 0.554703 0.265905 0.404277
H26_5 H 0.538038 0.305013 0.437293
Cd4_2 Cd 0.37992(3) 0.26780(7) 0.25571(3)
O27_3 O 0.8450(4) 0.6326(7) 0.2217(3)
O28_3 O 0.9039(3) 0.6406(6) 0.2538(3)
O29_3 O 0.4588(3) 0.9023(6) 0.3317(3)
O30_3 O 0.4377(3) 0.7789(7) 0.3113(3)
O33_3 O 0.9111(3) 0.8870(7) 0.2876(3)
O34_3 O 0.9422(3) 0.7696(6) 0.2992(4)
O35_3 O 0.9016(3) 0.7975(8) 0.1997(3)
O36_3 O 0.8443(3) 0.8371(7) 0.2031(3)
O5_4 O 0.3450(4) 0.1326(7) 0.2217(3)
O6_4 O 0.4039(3) 0.1406(6) 0.2538(3)
C10_6 C 0.3757(4) 0.0978(7) 0.2383(4)
H7_6 H 0.420881 0.009699 0.290089
C15_6 C 0.3784(3) 0.0078(4) 0.2425(3)
Cd1_4 Cd 0.12008(3) 0.76780(7) 0.24429(3)
O1_6 O 0.1385(3) 0.7138(8) 0.1878(3)
O2_6 O 0.1718(3) 0.8066(8) 0.2201(4)
O9_6 O 0.4553(3) 0.7859(7) 0.1559(3)
O10_6 O 0.4606(3) 0.8223(6) 0.0992(3)
O11_2 O 0.3448(3) 0.9139(7) 0.0043(3)
O12_2 O 0.2926(3) 0.9469(6) 0.0241(3)
O13_6 O 0.5254(4) 0.6376(7) 0.1516(3)
O14_6 O 0.4741(3) 0.6275(6) 0.1056(4)
O15_4 O 0.5889(3) 0.3870(7) 0.2124(3)
O16_4 O 0.5578(3) 0.2696(6) 0.2008(4)
O17_4 O 0.4016(3) 0.2975(8) 0.1997(3)
O18_4 O 0.3443(3) 0.3371(7) 0.2031(3)
N1_6 N 0.3158(3) 0.8469(7) 0.1570(3)
N2_6 N 0.4133(4) 0.3541(8) 0.0684(4)
C1_6 C 0.1669(5) 0.7606(12) 0.1942(5)
C2_6 C 0.2121(5) 0.6387(9) 0.0858(4)
C3_6 C 0.2213(3) 0.8208(5) 0.1708(2)
H1_6 H 0.223699 0.861614 0.189702
C4_6 C 0.1925(3) 0.7619(6) 0.1671(3)
C5_6 C 0.1890(3) 0.7023(6) 0.1395(3)
H2_6 H 0.169294 0.662008 0.136907
C6_6 C 0.2142(3) 0.7014(5) 0.1156(2)
C7_6 C 0.2429(2) 0.7603(6) 0.1193(2)
H3_6 H 0.260174 0.759770 0.102966
C8_6 C 0.2465(2) 0.8200(5) 0.1469(3)
C9_6 C 0.2781(4) 0.8820(10) 0.1529(5)
H4_6 H 0.277369 0.914225 0.175596
H5_6 H 0.273378 0.920206 0.131381
C11_6 C 0.4367(4) 0.8585(11) 0.3087(4)
C12_6 C 0.3845(3) 0.8386(4) 0.2513(3)
H6_6 H 0.386540 0.780827 0.254349
C13_6 C 0.4079(2) 0.8900(5) 0.2770(2)
C14_6 C 0.4049(2) 0.9746(5) 0.2726(2)
C16_6 C 0.3550(2) 0.9564(5) 0.2169(2)
H8_6 H 0.336902 0.979137 0.196365
C17_6 C 0.3580(2) 0.8719(5) 0.2213(2)
C18_6 C 0.3328(5) 0.8115(10) 0.1952(4)
H9_6 H 0.311623 0.793423 0.206772
H10_6 H 0.348232 0.762575 0.192233
C19_6 C 0.4413(4) 0.8148(9) 0.1235(5)
C20_6 C 0.3274(5) 0.9161(9) 0.0305(4)
C21_6 C 0.3775(3) 0.8330(5) 0.1402(2)
H11_6 H 0.388802 0.814559 0.164771
C22_6 C 0.39941(19) 0.8371(6) 0.1133(3)
C23_6 C 0.3828(2) 0.8640(6) 0.0774(2)
H12_6 H 0.397830 0.866846 0.059029
C24_6 C 0.3444(3) 0.8869(6) 0.0683(2)
C25_6 C 0.32244(19) 0.8828(5) 0.0951(3)
H13_6 H 0.296133 0.898391 0.088887
C26_6 C 0.3390(2) 0.8558(6) 0.1311(2)
C27_6 C 0.3702(6) 0.3284(10) 0.1853(4)
C28_6 C 0.2816(4) 0.4408(9) 0.0714(5)
C29_6 C 0.3910(2) 0.3462(6) 0.1246(3)
H14_6 H 0.415559 0.325596 0.136506
C30_6 C 0.3625(3) 0.3542(6) 0.14470(19)
C31_6 C 0.3265(2) 0.3844(6) 0.1273(2)
H15_6 H 0.307024 0.389903 0.141019
C32_6 C 0.3190(2) 0.4066(5) 0.0897(2)
C33_6 C 0.3475(3) 0.3986(5) 0.06963(18)
H16_6 H 0.342402 0.413770 0.043972
C34_6 C 0.3835(2) 0.3684(6) 0.0871(2)
C37_6 C 0.3724(3) 0.2592(7) 0.0025(3)
H17_6 H 0.356673 0.265895 0.020037
C42_6 C 0.4016(3) 0.3151(6) 0.0017(3)
C43_6 C 0.4118(5) 0.3820(10) 0.0317(5)
H20_6 H 0.392474 0.426415 0.025752
H21_6 H 0.437085 0.405655 0.030679
C44_6 C 0.4998(6) 0.5964(8) 0.1299(5)
C45_6 C 0.5610(4) 0.3448(8) 0.1948(4)
C46_6 C 0.5051(3) 0.3353(4) 0.1400(3)
H22_6 H 0.506349 0.277323 0.142498
C47_6 C 0.5313(2) 0.3842(6) 0.1644(2)
C48_6 C 0.5295(3) 0.4691(5) 0.1608(3)
H23_6 H 0.547424 0.502502 0.177389
C49_6 C 0.5016(3) 0.5050(4) 0.1328(3)
C50_6 C 0.4754(2) 0.4561(6) 0.1085(2)
H24_6 H 0.456252 0.480683 0.089366
C51_6 C 0.4772(2) 0.3713(5) 0.1121(2)
C52_6 C 0.4495(5) 0.3182(11) 0.0835(5)
H25_6 H 0.445297 0.265905 0.095723
H26_6 H 0.461962 0.305013 0.062707
O27_4 O 0.1550(4) 0.6326(7) 0.2783(3)
O28_4 O 0.0961(3) 0.6406(6) 0.2462(3)
O33_4 O 0.0889(3) 0.8870(7) 0.2124(3)
O34_4 O 0.0578(3) 0.7696(6) 0.2008(4)
O35_4 O 0.0984(3) 0.7975(8) 0.3003(3)
O36_4 O 0.1557(3) 0.8371(7) 0.2969(3)
O21_6 O 0.3115(4) 0.1415(9) 0.9961(4)
O22_6 O 0.3334(3) 0.0696(7) 0.9552(4)
C35_6 C 0.3340(5) 0.1322(11) 0.9775(6)
C36_6 C 0.4412(6) 0.2251(15) 0.9222(6)
C38_6 C 0.3662(3) 0.1936(6) 0.9777(3)
C39_6 C 0.3892(3) 0.1838(6) 0.9520(3)
H18_6 H 0.385004 0.138938 0.935080
C40_6 C 0.4184(3) 0.2396(7) 0.9512(3)
C41_6 C 0.4246(3) 0.3053(6) 0.9760(3)
H19_6 H 0.444609 0.343445 0.975461
O1_7 O 0.3615(3) 0.2138(8) 0.3122(3)
O2_7 O 0.3282(3) 0.3066(8) 0.2799(4)
O7_4 O 0.0412(3) 0.4023(6) 0.1683(3)
O8_4 O 0.0623(3) 0.2789(7) 0.1887(3)
O9_7 O 0.0447(3) 0.2859(7) 0.3441(3)
O10_7 O 0.0394(3) 0.3223(6) 0.4008(3)
O11_3 O 0.1552(3) 0.4139(7) 0.4957(3)
O12_3 O 0.2074(3) 0.4469(6) 0.4759(3)
O14_7 O 0.0259(3) 0.1275(6) 0.3944(4)
N1_7 N 0.1842(3) 0.3469(7) 0.3430(3)
C1_7 C 0.3331(5) 0.2606(12) 0.3058(5)
C2_7 C 0.2879(5) 0.1387(9) 0.4142(4)
C3_7 C 0.2787(3) 0.3208(5) 0.3292(2)
H1_7 H 0.276301 0.361614 0.310298
C4_7 C 0.3075(3) 0.2619(6) 0.3329(3)
C5_7 C 0.3110(3) 0.2023(6) 0.3605(3)
H2_7 H 0.330706 0.162008 0.363093
C6_7 C 0.2858(3) 0.2014(5) 0.3844(2)
C7_7 C 0.2571(2) 0.2603(6) 0.3807(2)
H3_7 H 0.239826 0.259770 0.397034
C8_7 C 0.2535(2) 0.3200(5) 0.3531(3)
C9_7 C 0.2219(4) 0.3820(10) 0.3471(5)
H4_7 H 0.222631 0.414225 0.324404
H5_7 H 0.226622 0.420206 0.368619
C10_7 C 0.1243(4) 0.5978(7) 0.2617(4)
C11_7 C 0.0633(4) 0.3585(11) 0.1913(4)
C12_7 C 0.1155(3) 0.3386(4) 0.2487(3)
H6_7 H 0.113460 0.280827 0.245651
C13_7 C 0.0921(2) 0.3900(5) 0.2230(2)
C14_7 C 0.0951(2) 0.4746(5) 0.2274(2)
H7_7 H 0.079119 0.509699 0.209911
C15_7 C 0.1216(3) 0.5078(4) 0.2575(3)
C16_7 C 0.1450(2) 0.4564(5) 0.2831(2)
H8_7 H 0.163098 0.479137 0.303635
C17_7 C 0.1420(2) 0.3719(5) 0.2787(2)
C18_7 C 0.1672(5) 0.3115(10) 0.3048(4)
H9_7 H 0.188377 0.293423 0.293228
H10_7 H 0.151768 0.262575 0.307767
C19_7 C 0.0587(4) 0.3148(9) 0.3765(5)
C20_7 C 0.1726(5) 0.4161(9) 0.4695(4)
C21_7 C 0.1225(3) 0.3330(5) 0.3598(2)
H11_7 H 0.111198 0.314559 0.335229
C22_7 C 0.10059(19) 0.3371(6) 0.3867(3)
C23_7 C 0.1172(2) 0.3640(6) 0.4226(2)
H12_7 H 0.102170 0.366846 0.440971
C24_7 C 0.1556(3) 0.3869(6) 0.4317(2)
C25_7 C 0.17756(19) 0.3828(5) 0.4049(3)
H13_7 H 0.203867 0.398391 0.411113
C26_7 C 0.1610(2) 0.3558(6) 0.3689(2)
C44_7 C 0.0002(6) 0.0964(8) 0.3701(5)
O21_7 O 0.1885(4) 0.6415(9) 0.5039(4)
O22_7 O 0.1666(3) 0.5696(7) 0.5448(4)
N2_7 N 0.0867(4) 0.8541(8) 0.4316(4)
C27_7 C 0.1298(6) 0.8284(10) 0.3147(4)
C28_7 C 0.2184(4) 0.9408(9) 0.4286(5)
C29_7 C 0.1090(2) 0.8462(6) 0.3754(3)
H14_7 H 0.084441 0.825596 0.363494
C30_7 C 0.1375(3) 0.8542(6) 0.35530(19)
C31_7 C 0.1735(2) 0.8844(6) 0.3727(2)
H15_7 H 0.192976 0.889903 0.358981
C32_7 C 0.1810(2) 0.9066(5) 0.4103(2)
C33_7 C 0.1525(3) 0.8986(5) 0.43037(18)
H16_7 H 0.157598 0.913770 0.456028
C34_7 C 0.1165(2) 0.8684(6) 0.4129(2)
C35_7 C 0.1660(5) 0.6322(11) 0.5225(6)
C36_7 C 0.0588(6) 0.7251(15) 0.5778(6)
C37_7 C 0.1276(3) 0.7592(7) 0.4975(3)
H17_7 H 0.143327 0.765895 0.479963
C38_7 C 0.1338(3) 0.6936(6) 0.5223(3)
C39_7 C 0.1108(3) 0.6838(6) 0.5480(3)
H18_7 H 0.114996 0.638938 0.564920
C40_7 C 0.0816(3) 0.7396(7) 0.5488(3)
C41_7 C 0.0754(3) 0.8053(6) 0.5240(3)
H19_7 H 0.055391 0.843445 0.524539
C42_7 C 0.0984(3) 0.8151(6) 0.4983(3)
C43_7 C 0.0882(5) 0.8820(10) 0.4683(5)
H20_7 H 0.107526 0.926415 0.474248
H21_7 H 0.062915 0.905655 0.469321
C50_7 C 0.0246(2) 0.9561(6) 0.3915(2)
H24_7 H 0.043748 0.980683 0.410634
C51_7 C 0.0228(2) 0.8713(5) 0.3879(2)
C52_7 C 0.0505(5) 0.8182(11) 0.4165(5)
H25_7 H 0.054703 0.765905 0.404277
H26_7 H 0.038038 0.805013 0.437293
O13_7 O 0.9746(4) 0.1376(7) 0.3484(3)
H23_7 H 0.952576 0.002502 0.322611
C49_7 C 0.9984(3) 0.0050(4) 0.3672(3)
O29_4 O 0.9588(3) 0.4023(6) 0.3317(3)
O30_4 O 0.9377(3) 0.2789(7) 0.3113(3)
C45_7 C 0.9390(4) 0.8448(8) 0.3052(4)
C46_7 C 0.9949(3) 0.8353(4) 0.3600(3)
H22_7 H 0.993651 0.777323 0.357502
C47_7 C 0.9687(2) 0.8842(6) 0.3356(2)
C48_7 C 0.9705(3) 0.9691(5) 0.3392(3)
O13_8 O 0.0254(4) 0.1376(7) 0.1516(3)
H23_8 H 0.047424 0.002502 0.177389
C49_8 C 0.0016(3) 0.0050(4) 0.1328(3)
C45_8 C 0.0610(4) 0.8448(8) 0.1948(4)
C46_8 C 0.0051(3) 0.8353(4) 0.1400(3)
H22_8 H 0.006349 0.777323 0.142498
C47_8 C 0.0313(2) 0.8842(6) 0.1644(2)
C48_8 C 0.0295(3) 0.9691(5) 0.1608(3)
O1_8 O 0.6385(3) 0.2138(8) 0.1878(3)
O2_8 O 0.6718(3) 0.3066(8) 0.2201(4)
O9_8 O 0.9553(3) 0.2859(7) 0.1559(3)
O10_8 O 0.9606(3) 0.3223(6) 0.0992(3)
O11_4 O 0.8448(3) 0.4139(7) 0.0043(3)
O12_4 O 0.7926(3) 0.4469(6) 0.0241(3)
O14_8 O 0.9741(3) 0.1275(6) 0.1056(4)
N1_8 N 0.8158(3) 0.3469(7) 0.1570(3)
C1_8 C 0.6669(5) 0.2606(12) 0.1942(5)
C2_8 C 0.7121(5) 0.1387(9) 0.0858(4)
C3_8 C 0.7213(3) 0.3208(5) 0.1708(2)
H1_8 H 0.723699 0.361614 0.189702
C4_8 C 0.6925(3) 0.2619(6) 0.1671(3)
C5_8 C 0.6890(3) 0.2023(6) 0.1395(3)
H2_8 H 0.669294 0.162008 0.136907
C6_8 C 0.7142(3) 0.2014(5) 0.1156(2)
C7_8 C 0.7429(2) 0.2603(6) 0.1193(2)
H3_8 H 0.760174 0.259770 0.102966
C8_8 C 0.7465(2) 0.3200(5) 0.1469(3)
C9_8 C 0.7781(4) 0.3820(10) 0.1529(5)
H4_8 H 0.777369 0.414225 0.175596
H5_8 H 0.773378 0.420206 0.131381
C10_8 C 0.8757(4) 0.5978(7) 0.2383(4)
C11_8 C 0.9367(4) 0.3585(11) 0.3087(4)
C12_8 C 0.8845(3) 0.3386(4) 0.2513(3)
H6_8 H 0.886540 0.280827 0.254349
C13_8 C 0.9079(2) 0.3900(5) 0.2770(2)
C14_8 C 0.9049(2) 0.4746(5) 0.2726(2)
H7_8 H 0.920881 0.509699 0.290089
C15_8 C 0.8784(3) 0.5078(4) 0.2425(3)
C16_8 C 0.8550(2) 0.4564(5) 0.2169(2)
H8_8 H 0.836902 0.479137 0.196365
C17_8 C 0.8580(2) 0.3719(5) 0.2213(2)
C18_8 C 0.8328(5) 0.3115(10) 0.1952(4)
H9_8 H 0.811623 0.293423 0.206772
H10_8 H 0.848232 0.262575 0.192233
C19_8 C 0.9413(4) 0.3148(9) 0.1235(5)
C20_8 C 0.8274(5) 0.4161(9) 0.0305(4)
C21_8 C 0.8775(3) 0.3330(5) 0.1402(2)
H11_8 H 0.888802 0.314559 0.164771
C22_8 C 0.89941(19) 0.3371(6) 0.1133(3)
C23_8 C 0.8828(2) 0.3640(6) 0.0774(2)
H12_8 H 0.897830 0.366846 0.059029
C24_8 C 0.8444(3) 0.3869(6) 0.0683(2)
C25_8 C 0.82244(19) 0.3828(5) 0.0951(3)
H13_8 H 0.796133 0.398391 0.088887
C26_8 C 0.8390(2) 0.3558(6) 0.1311(2)
C44_8 C 0.9998(6) 0.0964(8) 0.1299(5)
N2_8 N 0.9133(4) 0.8541(8) 0.0684(4)
C27_8 C 0.8702(6) 0.8284(10) 0.1853(4)
C28_8 C 0.7816(4) 0.9408(9) 0.0714(5)
C29_8 C 0.8910(2) 0.8462(6) 0.1246(3)
H14_8 H 0.915559 0.825596 0.136506
C30_8 C 0.8625(3) 0.8542(6) 0.14470(19)
C31_8 C 0.8265(2) 0.8844(6) 0.1273(2)
H15_8 H 0.807024 0.889903 0.141019
C32_8 C 0.8190(2) 0.9066(5) 0.0897(2)
C33_8 C 0.8475(3) 0.8986(5) 0.06963(18)
H16_8 H 0.842402 0.913770 0.043972
C34_8 C 0.8835(2) 0.8684(6) 0.0871(2)
C37_8 C 0.8724(3) 0.7592(7) 0.0025(3)
H17_8 H 0.856673 0.765895 0.020037
C42_8 C 0.9016(3) 0.8151(6) 0.0017(3)
C43_8 C 0.9118(5) 0.8820(10) 0.0317(5)
H20_8 H 0.892474 0.926415 0.025752
H21_8 H 0.937085 0.905655 0.030679
C50_8 C 0.9754(2) 0.9561(6) 0.1085(2)
H24_8 H 0.956252 0.980683 0.089366
C51_8 C 0.9772(2) 0.8713(5) 0.1121(2)
C52_8 C 0.9495(5) 0.8182(11) 0.0835(5)
H25_8 H 0.945297 0.765905 0.095723
H26_8 H 0.961962 0.805013 0.062707
O21_8 O 0.8115(4) 0.6415(9) 0.9961(4)
O22_8 O 0.8334(3) 0.5696(7) 0.9552(4)
C35_8 C 0.8340(5) 0.6322(11) 0.9775(6)
C36_8 C 0.9412(6) 0.7251(15) 0.9222(6)
C38_8 C 0.8662(3) 0.6936(6) 0.9777(3)
C39_8 C 0.8892(3) 0.6838(6) 0.9520(3)
H18_8 H 0.885004 0.638938 0.935080
C40_8 C 0.9184(3) 0.7396(7) 0.9512(3)
C41_8 C 0.9246(3) 0.8053(6) 0.9760(3)
H19_8 H 0.944609 0.843445 0.975461
loop_
_geom_bond_atom_site_label_1
_geom_bond_atom_site_label_2
_geom_bond_site_symmetry_1
_geom_bond_site_symmetry_2
O25 Cd3 1_555 1_555
O26 Cd3 1_555 1_555
O31 Cd3 1_555 1_555
O32 Cd3 1_555 1_555
Cd1 O1 1_555 1_555
Cd2 O9 1_555 1_555
O1 C1 1_555 1_555
O2 Cd1 1_555 1_555
O3 C2 1_555 1_555
O4 C2 1_555 1_555
O7 C11 1_555 1_555
O8 C11 1_555 1_555
O9 C19 1_555 1_555
O10 Cd2 1_555 1_555
O31 C20 1_555 1_555
O32 C20 1_555 1_555
O13 Cd2 1_555 1_555
O14 C44 1_555 1_555
O15 C45 1_555 1_555
O16 C45 1_555 1_555
O17 C27 1_555 1_555
O18 C27 1_555 1_555
O19 C28 1_555 1_555
O20 C28 1_555 1_555
O21 C35 1_555 1_555
O23 C36 1_555 1_555
O24 C36 1_555 1_555
N1 C9 1_555 1_555
N2 C34 1_555 1_555
C1 O2 1_555 1_555
C2 C6 1_555 1_555
C3 H1 1_555 1_555
C4 C1 1_555 1_555
C5 C4 1_555 1_555
H2 C5 1_555 1_555
C6 C5 1_555 1_555
C7 C6 1_555 1_555
H3 C7 1_555 1_555
C8 C3 1_555 1_555
C9 C8 1_555 1_555
H4 C9 1_555 1_555
H5 C9 1_555 1_555
C11 C13 1_555 1_555
C12 H6 1_555 1_555
C13 C12 1_555 1_555
C14 C13 1_555 1_555
H8 C16 1_555 1_555
C17 C12 1_555 1_555
C18 N1 1_555 1_555
H9 C18 1_555 1_555
H10 C18 1_555 1_555
C19 O10 1_555 1_555
C20 C24 1_555 1_555
C21 H11 1_555 1_555
C22 C19 1_555 1_555
C23 C22 1_555 1_555
H12 C23 1_555 1_555
C24 C23 1_555 1_555
C25 C24 1_555 1_555
H13 C25 1_555 1_555
C26 N1 1_555 1_555
C27 C30 1_555 1_555
C28 C32 1_555 1_555
C29 H14 1_555 1_555
C30 C29 1_555 1_555
C31 C30 1_555 1_555
H15 C31 1_555 1_555
C32 C31 1_555 1_555
C33 C32 1_555 1_555
H16 C33 1_555 1_555
C34 C29 1_555 1_555
C35 O22 1_555 1_555
C36 C40 1_555 1_555
C37 H17 1_555 1_555
C38 C35 1_555 1_555
C39 C38 1_555 1_555
H18 C39 1_555 1_555
C40 C39 1_555 1_555
C41 C40 1_555 1_555
H19 C41 1_555 1_555
C42 C37 1_555 1_555
C43 N2 1_555 1_555
H20 C43 1_555 1_555
H21 C43 1_555 1_555
C44 O13 1_555 1_555
C45 C47 1_555 1_555
C46 H22 1_555 1_555
C47 C46 1_555 1_555
C48 C47 1_555 1_555
H23 C48 1_555 1_555
C49 C44 1_555 1_555
C50 C49 1_555 1_555
H24 C50 1_555 1_555
C51 C46 1_555 1_555
C52 N2 1_555 1_555
H25 C52 1_555 1_555
H26 C52 1_555 1_555
Cd4 O15 1_555 1_555
Cd6 O17 1_555 1_555
Cd7 O7 1_555 1_555
Cd8 O23 1_555 1_555
Cd10 O3 1_555 1_555
O27 Cd1 1_555 1_555
O28 Cd1 1_555 1_555
O29 Cd2 1_555 1_555
O30 Cd2 1_555 1_555
O33 Cd1 1_555 1_555
O34 Cd1 1_555 1_555
O35 Cd1 1_555 1_555
O36 Cd1 1_555 1_555
O39 Cd2 1_555 1_555
O40 Cd2 1_555 1_555
O4 Cd10 1_555 1_555
O8 Cd7 1_555 1_555
O16 Cd4 1_555 1_555
O18 Cd6 1_555 1_555
O19 Cd10 1_555 1_555
O20 Cd10 1_555 1_555
O24 Cd8 1_555 1_555
C3 C4 1_555 1_555
C7 C8 1_555 1_555
C16 C17 1_555 1_555
C17 C18 1_555 1_555
C21 C22 1_555 1_555
C21 C26 1_555 1_555
C25 C26 1_555 1_555
C33 C34 1_555 1_555
C37 C38 1_555 1_555
C41 C42 1_555 1_555
C42 C43 1_555 1_555
C48 C49 1_555 1_555
C50 C51 1_555 1_555
C51 C52 1_555 1_555
O5 C10 1_555 1_555
O6 C10 1_555 1_555
C10 C15 1_555 1_555
Cd6 O5 1_555 1_555
O6 Cd6 1_555 1_555
O25_2 Cd3_2 1_555 1_555
O26_2 Cd3_2 1_555 1_555
O21_2 C35_2 1_555 1_555
O23_2 C36_2 1_555 1_555
O24_2 C36_2 1_555 1_555
C35_2 O22_2 1_555 1_555
C36_2 C40_2 1_555 1_555
C38_2 C35_2 1_555 1_555
C39_2 C38_2 1_555 1_555
H18_2 C39_2 1_555 1_555
C40_2 C39_2 1_555 1_555
C41_2 C40_2 1_555 1_555
H19_2 C41_2 1_555 1_555
Cd8_2 O23_2 1_555 1_555
O24_2 Cd8_2 1_555 1_555
Cd1_2 O1_2 1_555 1_555
Cd7 O9_2 1_555 1_555
O1_2 C1_2 1_555 1_555
O2_2 Cd1_2 1_555 1_555
O3_2 C2_2 1_555 1_555
O4_2 C2_2 1_555 1_555
O29 C11_2 1_555 1_555
O30 C11_2 1_555 1_555
O9_2 C19_2 1_555 1_555
O10_2 Cd7 1_555 1_555
O31_2 C20_2 1_555 1_555
O32_2 C20_2 1_555 1_555
O13_2 Cd7 1_555 1_555
O14_2 C44_2 1_555 1_555
O15_2 C45_2 1_555 1_555
O16_2 C45_2 1_555 1_555
O17_2 C27_2 1_555 1_555
O18_2 C27_2 1_555 1_555
O19_2 C28_2 1_555 1_555
O20_2 C28_2 1_555 1_555
N1_2 C9_2 1_555 1_555
N2_2 C34_2 1_555 1_555
C1_2 O2_2 1_555 1_555
C2_2 C6_2 1_555 1_555
C3_2 H1_2 1_555 1_555
C4_2 C1_2 1_555 1_555
C5_2 C4_2 1_555 1_555
H2_2 C5_2 1_555 1_555
C6_2 C5_2 1_555 1_555
C7_2 C6_2 1_555 1_555
H3_2 C7_2 1_555 1_555
C8_2 C3_2 1_555 1_555
C9_2 C8_2 1_555 1_555
H4_2 C9_2 1_555 1_555
H5_2 C9_2 1_555 1_555
C11_2 C13_2 1_555 1_555
C12_2 H6_2 1_555 1_555
C13_2 C12_2 1_555 1_555
C14_2 C13_2 1_555 1_555
H8_2 C16_2 1_555 1_555
C17_2 C12_2 1_555 1_555
C18_2 N1_2 1_555 1_555
H9_2 C18_2 1_555 1_555
H10_2 C18_2 1_555 1_555
C19_2 O10_2 1_555 1_555
C20_2 C24_2 1_555 1_555
C21_2 H11_2 1_555 1_555
C22_2 C19_2 1_555 1_555
C23_2 C22_2 1_555 1_555
H12_2 C23_2 1_555 1_555
C24_2 C23_2 1_555 1_555
C25_2 C24_2 1_555 1_555
H13_2 C25_2 1_555 1_555
C26_2 N1_2 1_555 1_555
C27_2 C30_2 1_555 1_555
C28_2 C32_2 1_555 1_555
C29_2 H14_2 1_555 1_555
C30_2 C29_2 1_555 1_555
C31_2 C30_2 1_555 1_555
H15_2 C31_2 1_555 1_555
C32_2 C31_2 1_555 1_555
C33_2 C32_2 1_555 1_555
H16_2 C33_2 1_555 1_555
C34_2 C29_2 1_555 1_555
C37_2 H17_2 1_555 1_555
C42_2 C37_2 1_555 1_555
C43_2 N2_2 1_555 1_555
H20_2 C43_2 1_555 1_555
H21_2 C43_2 1_555 1_555
C44_2 O13_2 1_555 1_555
C45_2 C47_2 1_555 1_555
C46_2 H22_2 1_555 1_555
C47_2 C46_2 1_555 1_555
C48_2 C47_2 1_555 1_555
H23_2 C48_2 1_555 1_555
C49_2 C44_2 1_555 1_555
C50_2 C49_2 1_555 1_555
H24_2 C50_2 1_555 1_555
C51_2 C46_2 1_555 1_555
C52_2 N2_2 1_555 1_555
H25_2 C52_2 1_555 1_555
H26_2 C52_2 1_555 1_555
Cd6 O15_2 1_555 1_555
Cd4 O17_2 1_555 1_555
Cd10_2 O3_2 1_555 1_555
O27_2 Cd1_2 1_555 1_555
O28_2 Cd1_2 1_555 1_555
O33_2 Cd1_2 1_555 1_555
O34_2 Cd1_2 1_555 1_555
O35_2 Cd1_2 1_555 1_555
O36_2 Cd1_2 1_555 1_555
O39_2 Cd7 1_555 1_555
O40_2 Cd7 1_555 1_555
O4_2 Cd10_2 1_555 1_555
O16_2 Cd6 1_555 1_555
O18_2 Cd4 1_555 1_555
O19_2 Cd10_2 1_555 1_555
O20_2 Cd10_2 1_555 1_555
C3_2 C4_2 1_555 1_555
C7_2 C8_2 1_555 1_555
C16_2 C17_2 1_555 1_555
C17_2 C18_2 1_555 1_555
C21_2 C22_2 1_555 1_555
C21_2 C26_2 1_555 1_555
C25_2 C26_2 1_555 1_555
C33_2 C34_2 1_555 1_555
C42_2 C43_2 1_555 1_555
C48_2 C49_2 1_555 1_555
C50_2 C51_2 1_555 1_555
C51_2 C52_2 1_555 1_555
O5_2 C10_2 1_555 1_555
O6_2 C10_2 1_555 1_555
C10_2 C15_2 1_555 1_555
Cd4 O5_2 1_555 1_555
O6_2 Cd4 1_555 1_555
O33 C45_3 1_555 1_555
O34 C45_3 1_555 1_555
C45_3 C47_3 1_555 1_555
C46_3 H22_3 1_555 1_555
C47_3 C46_3 1_555 1_555
C48_3 C47_3 1_555 1_555
O13_3 Cd2_2 1_555 1_555
O29_2 Cd2_2 1_555 1_555
O30_2 Cd2_2 1_555 1_555
O39_3 Cd2_2 1_555 1_555
O40_3 Cd2_2 1_555 1_555
Cd3_3 O21_3 1_555 1_555
O35_2 C27_3 1_555 1_555
O36_2 C27_3 1_555 1_555
O19_3 C28_3 1_555 1_555
O20_3 C28_3 1_555 1_555
O21_3 C35_3 1_555 1_555
O22_3 Cd3_3 1_555 1_555
O23_3 C36_3 1_555 1_555
O24_3 C36_3 1_555 1_555
N2_3 C34_3 1_555 1_555
C27_3 C30_3 1_555 1_555
C28_3 C32_3 1_555 1_555
C29_3 H14_3 1_555 1_555
C30_3 C29_3 1_555 1_555
C31_3 C30_3 1_555 1_555
H15_3 C31_3 1_555 1_555
C32_3 C31_3 1_555 1_555
C33_3 C32_3 1_555 1_555
H16_3 C33_3 1_555 1_555
C34_3 C29_3 1_555 1_555
C35_3 O22_3 1_555 1_555
C36_3 C40_3 1_555 1_555
C37_3 H17_3 1_555 1_555
C38_3 C35_3 1_555 1_555
C39_3 C38_3 1_555 1_555
H18_3 C39_3 1_555 1_555
C40_3 C39_3 1_555 1_555
C41_3 C40_3 1_555 1_555
H19_3 C41_3 1_555 1_555
C42_3 C37_3 1_555 1_555
C43_3 N2_3 1_555 1_555
H20_3 C43_3 1_555 1_555
H21_3 C43_3 1_555 1_555
H24_3 C50_3 1_555 1_555
C52_3 N2_3 1_555 1_555
H25_3 C52_3 1_555 1_555
H26_3 C52_3 1_555 1_555
Cd8_3 O23_3 1_555 1_555
O25_3 Cd3_3 1_555 1_555
O26_3 Cd3_3 1_555 1_555
O31_3 Cd3_3 1_555 1_555
O32_3 Cd3_3 1_555 1_555
O37_3 Cd3_3 1_555 1_555
O38_3 Cd3_3 1_555 1_555
O24_3 Cd8_3 1_555 1_555
C33_3 C34_3 1_555 1_555
C37_3 C38_3 1_555 1_555
C41_3 C42_3 1_555 1_555
C42_3 C43_3 1_555 1_555
C50_3 C51_3 1_555 1_555
C51_3 C52_3 1_555 1_555
Cd4 O1_3 1_555 1_555
O1_3 C1_3 1_555 1_555
O2_3 Cd4 1_555 1_555
O3_3 C2_3 1_555 1_555
O4_3 C2_3 1_555 1_555
O27_2 C10_3 1_555 1_555
O28_2 C10_3 1_555 1_555
O7_2 C11_3 1_555 1_555
O8_2 C11_3 1_555 1_555
O9_3 C19_3 1_555 1_555
O31_3 C20_3 1_555 1_555
O32_3 C20_3 1_555 1_555
O14_3 C44_3 1_555 1_555
N1_3 C9_3 1_555 1_555
C1_3 O2_3 1_555 1_555
C2_3 C6_3 1_555 1_555
C3_3 H1_3 1_555 1_555
C4_3 C1_3 1_555 1_555
C5_3 C4_3 1_555 1_555
H2_3 C5_3 1_555 1_555
C6_3 C5_3 1_555 1_555
C7_3 C6_3 1_555 1_555
H3_3 C7_3 1_555 1_555
C8_3 C3_3 1_555 1_555
C9_3 C8_3 1_555 1_555
H4_3 C9_3 1_555 1_555
H5_3 C9_3 1_555 1_555
C10_3 C15_3 1_555 1_555
C11_3 C13_3 1_555 1_555
C12_3 H6_3 1_555 1_555
C13_3 C12_3 1_555 1_555
C14_3 C13_3 1_555 1_555
H7_3 C14_3 1_555 1_555
C15_3 C14_3 1_555 1_555
C16_3 C15_3 1_555 1_555
H8_3 C16_3 1_555 1_555
C17_3 C12_3 1_555 1_555
C18_3 N1_3 1_555 1_555
H9_3 C18_3 1_555 1_555
H10_3 C18_3 1_555 1_555
C19_3 O10_3 1_555 1_555
C20_3 C24_3 1_555 1_555
C21_3 H11_3 1_555 1_555
C22_3 C19_3 1_555 1_555
C23_3 C22_3 1_555 1_555
H12_3 C23_3 1_555 1_555
C24_3 C23_3 1_555 1_555
C25_3 C24_3 1_555 1_555
H13_3 C25_3 1_555 1_555
C26_3 N1_3 1_555 1_555
Cd7_2 O7_2 1_555 1_555
Cd10_3 O3_3 1_555 1_555
O4_3 Cd10_3 1_555 1_555
O8_2 Cd7_2 1_555 1_555
C3_3 C4_3 1_555 1_555
C7_3 C8_3 1_555 1_555
C16_3 C17_3 1_555 1_555
C17_3 C18_3 1_555 1_555
C21_3 C22_3 1_555 1_555
C21_3 C26_3 1_555 1_555
C25_3 C26_3 1_555 1_555
Cd3_4 O21_4 1_555 1_555
O21_4 C35_4 1_555 1_555
O22_4 Cd3_4 1_555 1_555
O23_4 C36_4 1_555 1_555
O24_4 C36_4 1_555 1_555
C35_4 O22_4 1_555 1_555
C36_4 C40_4 1_555 1_555
C38_4 C35_4 1_555 1_555
C39_4 C38_4 1_555 1_555
H18_4 C39_4 1_555 1_555
C40_4 C39_4 1_555 1_555
C41_4 C40_4 1_555 1_555
H19_4 C41_4 1_555 1_555
Cd8_4 O23_4 1_555 1_555
O25_4 Cd3_4 1_555 1_555
O26_4 Cd3_4 1_555 1_555
O37_4 Cd3_4 1_555 1_555
O38_4 Cd3_4 1_555 1_555
O24_4 Cd8_4 1_555 1_555
O35 C27_4 1_555 1_555
O36 C27_4 1_555 1_555
O19_4 C28_4 1_555 1_555
O20_4 C28_4 1_555 1_555
N2_4 C34_4 1_555 1_555
C27_4 C30_4 1_555 1_555
C28_4 C32_4 1_555 1_555
C29_4 H14_4 1_555 1_555
C30_4 C29_4 1_555 1_555
C31_4 C30_4 1_555 1_555
H15_4 C31_4 1_555 1_555
C32_4 C31_4 1_555 1_555
C33_4 C32_4 1_555 1_555
H16_4 C33_4 1_555 1_555
C34_4 C29_4 1_555 1_555
C37_4 H17_4 1_555 1_555
C42_4 C37_4 1_555 1_555
C43_4 N2_4 1_555 1_555
H20_4 C43_4 1_555 1_555
H21_4 C43_4 1_555 1_555
H24_4 C50_4 1_555 1_555
C52_4 N2_4 1_555 1_555
H25_4 C52_4 1_555 1_555
H26_4 C52_4 1_555 1_555
C33_4 C34_4 1_555 1_555
C42_4 C43_4 1_555 1_555
C50_4 C51_4 1_555 1_555
C51_4 C52_4 1_555 1_555
Cd6 O1_4 1_555 1_555
O1_4 C1_4 1_555 1_555
O2_4 Cd6 1_555 1_555
O3_4 C2_4 1_555 1_555
O4_4 C2_4 1_555 1_555
O27 C10_4 1_555 1_555
O28 C10_4 1_555 1_555
O29_2 C11_4 1_555 1_555
O30_2 C11_4 1_555 1_555
O9_4 C19_4 1_555 1_555
O31_4 C20_4 1_555 1_555
O32_4 C20_4 1_555 1_555
O14_4 C44_4 1_555 1_555
N1_4 C9_4 1_555 1_555
C1_4 O2_4 1_555 1_555
C2_4 C6_4 1_555 1_555
C3_4 H1_4 1_555 1_555
C4_4 C1_4 1_555 1_555
C5_4 C4_4 1_555 1_555
H2_4 C5_4 1_555 1_555
C6_4 C5_4 1_555 1_555
C7_4 C6_4 1_555 1_555
H3_4 C7_4 1_555 1_555
C8_4 C3_4 1_555 1_555
C9_4 C8_4 1_555 1_555
H4_4 C9_4 1_555 1_555
H5_4 C9_4 1_555 1_555
C10_4 C15_4 1_555 1_555
C11_4 C13_4 1_555 1_555
C12_4 H6_4 1_555 1_555
C13_4 C12_4 1_555 1_555
C14_4 C13_4 1_555 1_555
H7_4 C14_4 1_555 1_555
C15_4 C14_4 1_555 1_555
C16_4 C15_4 1_555 1_555
H8_4 C16_4 1_555 1_555
C17_4 C12_4 1_555 1_555
C18_4 N1_4 1_555 1_555
H9_4 C18_4 1_555 1_555
H10_4 C18_4 1_555 1_555
C19_4 O10_4 1_555 1_555
C20_4 C24_4 1_555 1_555
C21_4 H11_4 1_555 1_555
C22_4 C19_4 1_555 1_555
C23_4 C22_4 1_555 1_555
H12_4 C23_4 1_555 1_555
C24_4 C23_4 1_555 1_555
C25_4 C24_4 1_555 1_555
H13_4 C25_4 1_555 1_555
C26_4 N1_4 1_555 1_555
Cd10_4 O3_4 1_555 1_555
O4_4 Cd10_4 1_555 1_555
C3_4 C4_4 1_555 1_555
C7_4 C8_4 1_555 1_555
C16_4 C17_4 1_555 1_555
C17_4 C18_4 1_555 1_555
C21_4 C22_4 1_555 1_555
C21_4 C26_4 1_555 1_555
C25_4 C26_4 1_555 1_555
O33_2 C45_4 1_555 1_555
O34_2 C45_4 1_555 1_555
C45_4 C47_4 1_555 1_555
C46_4 H22_4 1_555 1_555
C47_4 C46_4 1_555 1_555
C48_4 C47_4 1_555 1_555
O13_4 Cd7_2 1_555 1_555
O39_4 Cd7_2 1_555 1_555
O40_4 Cd7_2 1_555 1_555
O5_3 C10_5 1_555 1_555
O6_3 C10_5 1_555 1_555
C10_5 C15_5 1_555 1_555
Cd5 O5_3 1_555 1_555
O6_3 Cd5 1_555 1_555
Cd1_3 O1_5 1_555 1_555
Cd8 O9_5 1_555 1_555
O1_5 C1_5 1_555 1_555
O2_5 Cd1_3 1_555 1_555
O25_3 C2_5 1_555 1_555
O26_3 C2_5 1_555 1_555
O7_3 C11_5 1_555 1_555
O8_3 C11_5 1_555 1_555
O9_5 C19_5 1_555 1_555
O10_5 Cd8 1_555 1_555
O11 C20_5 1_555 1_555
O12 C20_5 1_555 1_555
O13_5 Cd8 1_555 1_555
O14_5 C44_5 1_555 1_555
O15_3 C45_5 1_555 1_555
O16_3 C45_5 1_555 1_555
O17_3 C27_5 1_555 1_555
O18_3 C27_5 1_555 1_555
O37_3 C28_5 1_555 1_555
O38_3 C28_5 1_555 1_555
O21_5 C35_5 1_555 1_555
O39 C36_5 1_555 1_555
O40 C36_5 1_555 1_555
N1_5 C9_5 1_555 1_555
N2_5 C34_5 1_555 1_555
C1_5 O2_5 1_555 1_555
C2_5 C6_5 1_555 1_555
C3_5 H1_5 1_555 1_555
C4_5 C1_5 1_555 1_555
C5_5 C4_5 1_555 1_555
H2_5 C5_5 1_555 1_555
C6_5 C5_5 1_555 1_555
C7_5 C6_5 1_555 1_555
H3_5 C7_5 1_555 1_555
C8_5 C3_5 1_555 1_555
C9_5 C8_5 1_555 1_555
H4_5 C9_5 1_555 1_555
H5_5 C9_5 1_555 1_555
C11_5 C13_5 1_555 1_555
C12_5 H6_5 1_555 1_555
C13_5 C12_5 1_555 1_555
C14_5 C13_5 1_555 1_555
H8_5 C16_5 1_555 1_555
C17_5 C12_5 1_555 1_555
C18_5 N1_5 1_555 1_555
H9_5 C18_5 1_555 1_555
H10_5 C18_5 1_555 1_555
C19_5 O10_5 1_555 1_555
C20_5 C24_5 1_555 1_555
C21_5 H11_5 1_555 1_555
C22_5 C19_5 1_555 1_555
C23_5 C22_5 1_555 1_555
H12_5 C23_5 1_555 1_555
C24_5 C23_5 1_555 1_555
C25_5 C24_5 1_555 1_555
H13_5 C25_5 1_555 1_555
C26_5 N1_5 1_555 1_555
C27_5 C30_5 1_555 1_555
C28_5 C32_5 1_555 1_555
C29_5 H14_5 1_555 1_555
C30_5 C29_5 1_555 1_555
C31_5 C30_5 1_555 1_555
H15_5 C31_5 1_555 1_555
C32_5 C31_5 1_555 1_555
C33_5 C32_5 1_555 1_555
H16_5 C33_5 1_555 1_555
C34_5 C29_5 1_555 1_555
C35_5 O22_5 1_555 1_555
C36_5 C40_5 1_555 1_555
C37_5 H17_5 1_555 1_555
C38_5 C35_5 1_555 1_555
C39_5 C38_5 1_555 1_555
H18_5 C39_5 1_555 1_555
C40_5 C39_5 1_555 1_555
C41_5 C40_5 1_555 1_555
H19_5 C41_5 1_555 1_555
C42_5 C37_5 1_555 1_555
C43_5 N2_5 1_555 1_555
H20_5 C43_5 1_555 1_555
H21_5 C43_5 1_555 1_555
C44_5 O13_5 1_555 1_555
C45_5 C47_5 1_555 1_555
C46_5 H22_5 1_555 1_555
C47_5 C46_5 1_555 1_555
C48_5 C47_5 1_555 1_555
H23_5 C48_5 1_555 1_555
C49_5 C44_5 1_555 1_555
C50_5 C49_5 1_555 1_555
H24_5 C50_5 1_555 1_555
C51_5 C46_5 1_555 1_555
C52_5 N2_5 1_555 1_555
H25_5 C52_5 1_555 1_555
H26_5 C52_5 1_555 1_555
Cd4_2 O15_3 1_555 1_555
Cd5 O17_3 1_555 1_555
Cd8_2 O7_3 1_555 1_555
Cd10_3 O11 1_555 1_555
O27_3 Cd1_3 1_555 1_555
O28_3 Cd1_3 1_555 1_555
O29_3 Cd8 1_555 1_555
O30_3 Cd8 1_555 1_555
O33_3 Cd1_3 1_555 1_555
O34_3 Cd1_3 1_555 1_555
O35_3 Cd1_3 1_555 1_555
O36_3 Cd1_3 1_555 1_555
O8_3 Cd8_2 1_555 1_555
O12 Cd10_3 1_555 1_555
O16_3 Cd4_2 1_555 1_555
O18_3 Cd5 1_555 1_555
C3_5 C4_5 1_555 1_555
C7_5 C8_5 1_555 1_555
C16_5 C17_5 1_555 1_555
C17_5 C18_5 1_555 1_555
C21_5 C22_5 1_555 1_555
C21_5 C26_5 1_555 1_555
C25_5 C26_5 1_555 1_555
C33_5 C34_5 1_555 1_555
C37_5 C38_5 1_555 1_555
C41_5 C42_5 1_555 1_555
C42_5 C43_5 1_555 1_555
C48_5 C49_5 1_555 1_555
C50_5 C51_5 1_555 1_555
C51_5 C52_5 1_555 1_555
O5_4 C10_6 1_555 1_555
O6_4 C10_6 1_555 1_555
C10_6 C15_6 1_555 1_555
Cd4_2 O5_4 1_555 1_555
O6_4 Cd4_2 1_555 1_555
Cd1_4 O1_6 1_555 1_555
Cd8_2 O9_6 1_555 1_555
O1_6 C1_6 1_555 1_555
O2_6 Cd1_4 1_555 1_555
O25_4 C2_6 1_555 1_555
O26_4 C2_6 1_555 1_555
O29_3 C11_6 1_555 1_555
O30_3 C11_6 1_555 1_555
O9_6 C19_6 1_555 1_555
O10_6 Cd8_2 1_555 1_555
O11_2 C20_6 1_555 1_555
O12_2 C20_6 1_555 1_555
O13_6 Cd8_2 1_555 1_555
O14_6 C44_6 1_555 1_555
O15_4 C45_6 1_555 1_555
O16_4 C45_6 1_555 1_555
O17_4 C27_6 1_555 1_555
O18_4 C27_6 1_555 1_555
O37_4 C28_6 1_555 1_555
O38_4 C28_6 1_555 1_555
N1_6 C9_6 1_555 1_555
N2_6 C34_6 1_555 1_555
C1_6 O2_6 1_555 1_555
C2_6 C6_6 1_555 1_555
C3_6 H1_6 1_555 1_555
C4_6 C1_6 1_555 1_555
C5_6 C4_6 1_555 1_555
H2_6 C5_6 1_555 1_555
C6_6 C5_6 1_555 1_555
C7_6 C6_6 1_555 1_555
H3_6 C7_6 1_555 1_555
C8_6 C3_6 1_555 1_555
C9_6 C8_6 1_555 1_555
H4_6 C9_6 1_555 1_555
H5_6 C9_6 1_555 1_555
C11_6 C13_6 1_555 1_555
C12_6 H6_6 1_555 1_555
C13_6 C12_6 1_555 1_555
C14_6 C13_6 1_555 1_555
H8_6 C16_6 1_555 1_555
C17_6 C12_6 1_555 1_555
C18_6 N1_6 1_555 1_555
H9_6 C18_6 1_555 1_555
H10_6 C18_6 1_555 1_555
C19_6 O10_6 1_555 1_555
C20_6 C24_6 1_555 1_555
C21_6 H11_6 1_555 1_555
C22_6 C19_6 1_555 1_555
C23_6 C22_6 1_555 1_555
H12_6 C23_6 1_555 1_555
C24_6 C23_6 1_555 1_555
C25_6 C24_6 1_555 1_555
H13_6 C25_6 1_555 1_555
C26_6 N1_6 1_555 1_555
C27_6 C30_6 1_555 1_555
C28_6 C32_6 1_555 1_555
C29_6 H14_6 1_555 1_555
C30_6 C29_6 1_555 1_555
C31_6 C30_6 1_555 1_555
H15_6 C31_6 1_555 1_555
C32_6 C31_6 1_555 1_555
C33_6 C32_6 1_555 1_555
H16_6 C33_6 1_555 1_555
C34_6 C29_6 1_555 1_555
C37_6 H17_6 1_555 1_555
C42_6 C37_6 1_555 1_555
C43_6 N2_6 1_555 1_555
H20_6 C43_6 1_555 1_555
H21_6 C43_6 1_555 1_555
C44_6 O13_6 1_555 1_555
C45_6 C47_6 1_555 1_555
C46_6 H22_6 1_555 1_555
C47_6 C46_6 1_555 1_555
C48_6 C47_6 1_555 1_555
H23_6 C48_6 1_555 1_555
C49_6 C44_6 1_555 1_555
C50_6 C49_6 1_555 1_555
H24_6 C50_6 1_555 1_555
C51_6 C46_6 1_555 1_555
C52_6 N2_6 1_555 1_555
H25_6 C52_6 1_555 1_555
H26_6 C52_6 1_555 1_555
Cd5 O15_4 1_555 1_555
Cd4_2 O17_4 1_555 1_555
O27_4 Cd1_4 1_555 1_555
O28_4 Cd1_4 1_555 1_555
O33_4 Cd1_4 1_555 1_555
O34_4 Cd1_4 1_555 1_555
O35_4 Cd1_4 1_555 1_555
O36_4 Cd1_4 1_555 1_555
O16_4 Cd5 1_555 1_555
O18_4 Cd4_2 1_555 1_555
C3_6 C4_6 1_555 1_555
C7_6 C8_6 1_555 1_555
C16_6 C17_6 1_555 1_555
C17_6 C18_6 1_555 1_555
C21_6 C22_6 1_555 1_555
C21_6 C26_6 1_555 1_555
C25_6 C26_6 1_555 1_555
C33_6 C34_6 1_555 1_555
C42_6 C43_6 1_555 1_555
C48_6 C49_6 1_555 1_555
C50_6 C51_6 1_555 1_555
C51_6 C52_6 1_555 1_555
O21_6 C35_6 1_555 1_555
O39_2 C36_6 1_555 1_555
O40_2 C36_6 1_555 1_555
C35_6 O22_6 1_555 1_555
C36_6 C40_6 1_555 1_555
C38_6 C35_6 1_555 1_555
C39_6 C38_6 1_555 1_555
H18_6 C39_6 1_555 1_555
C40_6 C39_6 1_555 1_555
C41_6 C40_6 1_555 1_555
H19_6 C41_6 1_555 1_555
Cd4_2 O1_7 1_555 1_555
O1_7 C1_7 1_555 1_555
O2_7 Cd4_2 1_555 1_555
O25 C2_7 1_555 1_555
O26 C2_7 1_555 1_555
O27_4 C10_7 1_555 1_555
O28_4 C10_7 1_555 1_555
O7_4 C11_7 1_555 1_555
O8_4 C11_7 1_555 1_555
O9_7 C19_7 1_555 1_555
O11_3 C20_7 1_555 1_555
O12_3 C20_7 1_555 1_555
O14_7 C44_7 1_555 1_555
N1_7 C9_7 1_555 1_555
C1_7 O2_7 1_555 1_555
C2_7 C6_7 1_555 1_555
C3_7 H1_7 1_555 1_555
C4_7 C1_7 1_555 1_555
C5_7 C4_7 1_555 1_555
H2_7 C5_7 1_555 1_555
C6_7 C5_7 1_555 1_555
C7_7 C6_7 1_555 1_555
H3_7 C7_7 1_555 1_555
C8_7 C3_7 1_555 1_555
C9_7 C8_7 1_555 1_555
H4_7 C9_7 1_555 1_555
H5_7 C9_7 1_555 1_555
C10_7 C15_7 1_555 1_555
C11_7 C13_7 1_555 1_555
C12_7 H6_7 1_555 1_555
C13_7 C12_7 1_555 1_555
C14_7 C13_7 1_555 1_555
H7_7 C14_7 1_555 1_555
C15_7 C14_7 1_555 1_555
C16_7 C15_7 1_555 1_555
H8_7 C16_7 1_555 1_555
C17_7 C12_7 1_555 1_555
C18_7 N1_7 1_555 1_555
H9_7 C18_7 1_555 1_555
H10_7 C18_7 1_555 1_555
C19_7 O10_7 1_555 1_555
C20_7 C24_7 1_555 1_555
C21_7 H11_7 1_555 1_555
C22_7 C19_7 1_555 1_555
C23_7 C22_7 1_555 1_555
H12_7 C23_7 1_555 1_555
C24_7 C23_7 1_555 1_555
C25_7 C24_7 1_555 1_555
H13_7 C25_7 1_555 1_555
C26_7 N1_7 1_555 1_555
Cd8_4 O7_4 1_555 1_555
Cd10 O11_3 1_555 1_555
O8_4 Cd8_4 1_555 1_555
O12_3 Cd10 1_555 1_555
C3_7 C4_7 1_555 1_555
C7_7 C8_7 1_555 1_555
C16_7 C17_7 1_555 1_555
C17_7 C18_7 1_555 1_555
C21_7 C22_7 1_555 1_555
C21_7 C26_7 1_555 1_555
C25_7 C26_7 1_555 1_555
Cd10 O21_7 1_555 1_555
O35_4 C27_7 1_555 1_555
O36_4 C27_7 1_555 1_555
O37 C28_7 1_555 1_555
O38 C28_7 1_555 1_555
O21_7 C35_7 1_555 1_555
O22_7 Cd10 1_555 1_555
O39_3 C36_7 1_555 1_555
O40_3 C36_7 1_555 1_555
N2_7 C34_7 1_555 1_555
C27_7 C30_7 1_555 1_555
C28_7 C32_7 1_555 1_555
C29_7 H14_7 1_555 1_555
C30_7 C29_7 1_555 1_555
C31_7 C30_7 1_555 1_555
H15_7 C31_7 1_555 1_555
C32_7 C31_7 1_555 1_555
C33_7 C32_7 1_555 1_555
H16_7 C33_7 1_555 1_555
C34_7 C29_7 1_555 1_555
C35_7 O22_7 1_555 1_555
C36_7 C40_7 1_555 1_555
C37_7 H17_7 1_555 1_555
C38_7 C35_7 1_555 1_555
C39_7 C38_7 1_555 1_555
H18_7 C39_7 1_555 1_555
C40_7 C39_7 1_555 1_555
C41_7 C40_7 1_555 1_555
H19_7 C41_7 1_555 1_555
C42_7 C37_7 1_555 1_555
C43_7 N2_7 1_555 1_555
H20_7 C43_7 1_555 1_555
H21_7 C43_7 1_555 1_555
H24_7 C50_7 1_555 1_555
C52_7 N2_7 1_555 1_555
H25_7 C52_7 1_555 1_555
H26_7 C52_7 1_555 1_555
C33_7 C34_7 1_555 1_555
C37_7 C38_7 1_555 1_555
C41_7 C42_7 1_555 1_555
C42_7 C43_7 1_555 1_555
C50_7 C51_7 1_555 1_555
C51_7 C52_7 1_555 1_555
O13_7 Cd8_3 1_555 1_555
O29_4 Cd8_3 1_555 1_555
O30_4 Cd8_3 1_555 1_555
O33_3 C45_7 1_555 1_555
O34_3 C45_7 1_555 1_555
C45_7 C47_7 1_555 1_555
C46_7 H22_7 1_555 1_555
C47_7 C46_7 1_555 1_555
C48_7 C47_7 1_555 1_555
O13_8 Cd8_4 1_555 1_555
O33_4 C45_8 1_555 1_555
O34_4 C45_8 1_555 1_555
C45_8 C47_8 1_555 1_555
C46_8 H22_8 1_555 1_555
C47_8 C46_8 1_555 1_555
C48_8 C47_8 1_555 1_555
Cd5 O1_8 1_555 1_555
O1_8 C1_8 1_555 1_555
O2_8 Cd5 1_555 1_555
O25_2 C2_8 1_555 1_555
O26_2 C2_8 1_555 1_555
O27_3 C10_8 1_555 1_555
O28_3 C10_8 1_555 1_555
O29_4 C11_8 1_555 1_555
O30_4 C11_8 1_555 1_555
O9_8 C19_8 1_555 1_555
O11_4 C20_8 1_555 1_555
O12_4 C20_8 1_555 1_555
O14_8 C44_8 1_555 1_555
N1_8 C9_8 1_555 1_555
C1_8 O2_8 1_555 1_555
C2_8 C6_8 1_555 1_555
C3_8 H1_8 1_555 1_555
C4_8 C1_8 1_555 1_555
C5_8 C4_8 1_555 1_555
H2_8 C5_8 1_555 1_555
C6_8 C5_8 1_555 1_555
C7_8 C6_8 1_555 1_555
H3_8 C7_8 1_555 1_555
C8_8 C3_8 1_555 1_555
C9_8 C8_8 1_555 1_555
H4_8 C9_8 1_555 1_555
H5_8 C9_8 1_555 1_555
C10_8 C15_8 1_555 1_555
C11_8 C13_8 1_555 1_555
C12_8 H6_8 1_555 1_555
C13_8 C12_8 1_555 1_555
C14_8 C13_8 1_555 1_555
H7_8 C14_8 1_555 1_555
C15_8 C14_8 1_555 1_555
C16_8 C15_8 1_555 1_555
H8_8 C16_8 1_555 1_555
C17_8 C12_8 1_555 1_555
C18_8 N1_8 1_555 1_555
H9_8 C18_8 1_555 1_555
H10_8 C18_8 1_555 1_555
C19_8 O10_8 1_555 1_555
C20_8 C24_8 1_555 1_555
C21_8 H11_8 1_555 1_555
C22_8 C19_8 1_555 1_555
C23_8 C22_8 1_555 1_555
H12_8 C23_8 1_555 1_555
C24_8 C23_8 1_555 1_555
C25_8 C24_8 1_555 1_555
H13_8 C25_8 1_555 1_555
C26_8 N1_8 1_555 1_555
C3_8 C4_8 1_555 1_555
C7_8 C8_8 1_555 1_555
C16_8 C17_8 1_555 1_555
C17_8 C18_8 1_555 1_555
C21_8 C22_8 1_555 1_555
C21_8 C26_8 1_555 1_555
C25_8 C26_8 1_555 1_555
O35_3 C27_8 1_555 1_555
O36_3 C27_8 1_555 1_555
O37_2 C28_8 1_555 1_555
O38_2 C28_8 1_555 1_555
N2_8 C34_8 1_555 1_555
C27_8 C30_8 1_555 1_555
C28_8 C32_8 1_555 1_555
C29_8 H14_8 1_555 1_555
C30_8 C29_8 1_555 1_555
C31_8 C30_8 1_555 1_555
H15_8 C31_8 1_555 1_555
C32_8 C31_8 1_555 1_555
C33_8 C32_8 1_555 1_555
H16_8 C33_8 1_555 1_555
C34_8 C29_8 1_555 1_555
C37_8 H17_8 1_555 1_555
C42_8 C37_8 1_555 1_555
C43_8 N2_8 1_555 1_555
H20_8 C43_8 1_555 1_555
H21_8 C43_8 1_555 1_555
H24_8 C50_8 1_555 1_555
C52_8 N2_8 1_555 1_555
H25_8 C52_8 1_555 1_555
H26_8 C52_8 1_555 1_555
C33_8 C34_8 1_555 1_555
C42_8 C43_8 1_555 1_555
C50_8 C51_8 1_555 1_555
C51_8 C52_8 1_555 1_555
Cd10_2 O21_8 1_555 1_555
O21_8 C35_8 1_555 1_555
O22_8 Cd10_2 1_555 1_555
O39_4 C36_8 1_555 1_555
O40_4 C36_8 1_555 1_555
C35_8 O22_8 1_555 1_555
C36_8 C40_8 1_555 1_555
C38_8 C35_8 1_555 1_555
C39_8 C38_8 1_555 1_555
H18_8 C39_8 1_555 1_555
C40_8 C39_8 1_555 1_555
C41_8 C40_8 1_555 1_555
H19_8 C41_8 1_555 1_555

#END
