
###############################################################################
#
# This file contains modified crystal structure data generated from the
# MOF subset of the Cambridge Structural Database (CSD) v543 
# hosted by the Cambridge Crystallographic Data Centre (CCDC).
#
# This work is licensed under the Creative Commons
# Attribution-NonCommercial-ShareAlike 4.0 International License.
# To view a copy of this license, visit
# http://creativecommons.org/licenses/by-nc-sa/4.0/
# or send a letter to
# Creative Commons, PO Box 1866, Mountain View, CA 94042, USA.
#
# CIF created using the CSD Python API on 29 September 2022
# The structure has been converted into the P1 space group
# The structure has a 3D framework
# The original CSD entry NUFTOY is in the tetragonal crystal system
# The framework has been calculated to contain at least 10.0% void space
# The void calculation uses a probe of radius 1.32A, grid spacing 0.4
#
###############################################################################

data_NUFTOY
_chemical_formula_moiety         '(C224 H192 In8 N8 O64)n'
_symmetry_cell_setting           triclinic
_symmetry_space_group_name_H-M   'P 1'
_symmetry_Int_Tables_number      1
_space_group_name_Hall           'P 1'
loop_
_symmetry_equiv_pos_site_id
_symmetry_equiv_pos_as_xyz
1 x,y,z
_cell_length_a                   31.745(3)
_cell_length_b                   31.745(3)
_cell_length_c                   8.2835(15)
_cell_angle_alpha                90
_cell_angle_beta                 90
_cell_angle_gamma                90
_cell_volume                     8347.66
loop_
_atom_site_label
_atom_site_type_symbol
_atom_site_fract_x
_atom_site_fract_y
_atom_site_fract_z
In3 In 0.30696(2) 0.03458(2) 0.90310(8)
O2 O 0.0705(2) 0.1850(2) 0.1365(8)
O3 O 0.2974(2) 0.0595(2) 0.6324(8)
O4 O 0.2609(2) 0.0827(2) 0.8368(9)
O5 O 0.0097(2) 0.2503(2) 0.0440(9)
C1 C 0.0949(3) 0.1591(3) 0.0690(12)
C2 C 0.1327(3) 0.1442(3) 0.1564(13)
C3 C 0.1390(4) 0.1563(3) 0.3100(13)
H1 H 0.1203 0.1753 0.3565
C4 C 0.1731(3) 0.1411(3) 0.4033(13)
C5 C 0.1796(4) 0.1519(4) 0.5663(14)
H2 H 0.1618 0.1716 0.6137
C6 C 0.2103(4) 0.1349(4) 0.6559(14)
H3 H 0.2138 0.1425 0.7636
C7 C 0.2378(3) 0.1048(3) 0.5809(13)
C8 C 0.2346(3) 0.0949(3) 0.4226(12)
H4 H 0.2540 0.0766 0.3760
C9 C 0.2014(3) 0.1126(3) 0.3260(13)
C10 C 0.1951(3) 0.1017(4) 0.1669(13)
H5 H 0.2142 0.0838 0.1165
C11 C 0.1615(3) 0.1165(3) 0.0816(13)
C12 C 0.2676(3) 0.0819(3) 0.6876(14)
O1 O 0.3528(2) 0.0879(2) 0.9281(9)
H6 H 0.3916 0.1576 0.9747
In1 In 0.53458(2) 0.69304(2) 0.09690(8)
O1_2 O 0.5879(2) 0.6472(2) 0.0719(9)
O6 O 0.4847(2) 0.7358(2) 0.1935(9)
O8 O 0.3408(2) 0.9833(2) 0.0469(9)
H6_2 H 0.6576 0.6084 0.0253
C13 C 0.4859(4) 0.7588(3) 0.0710(13)
C14 C 0.4598(4) 0.7978(3) 0.0641(14)
C15 C 0.4309(3) 0.8074(4) 0.1922(15)
H7 H 0.4279 0.7888 0.2782
C16 C 0.4082(4) 0.8429(4) 0.1884(14)
H8 H 0.3900 0.8487 0.2734
C17 C 0.4111(4) 0.8713(4) 0.0610(13)
C18 C 0.3872(3) 0.9095(3) 0.0551(13)
H9 H 0.3691 0.9161 0.1397
O9 O 0.5595(2) 0.7026(2) 0.3676(8)
O10 O 0.5827(2) 0.7391(2) 0.1632(9)
O11 O 0.4955(2) 0.6410(2) 0.2020(9)
O6_2 O 0.0153(2) 0.7642(2) 0.1935(9)
O8_2 O 0.1592(2) 0.5167(2) 0.0469(9)
C13_2 C 0.0141(4) 0.7412(3) 0.0710(13)
C14_2 C 0.0402(4) 0.7022(3) 0.0641(14)
C15_2 C 0.0691(3) 0.6926(4) 0.1922(15)
H7_2 H 0.0721 0.7112 0.2782
C16_2 C 0.0918(4) 0.6571(4) 0.1884(14)
H8_2 H 0.1100 0.6513 0.2734
C17_2 C 0.0889(4) 0.6287(4) 0.0610(13)
C18_2 C 0.1128(3) 0.5905(3) 0.0551(13)
H9_2 H 0.1309 0.5839 0.1397
O11_2 O 0.0045(2) 0.8590(2) 0.2020(9)
In3_2 In 0.03458(2) 0.19304(2) 0.90310(8)
O2_2 O 0.6850(2) 0.9295(2) 0.8635(8)
O5_2 O 0.7503(2) 0.9903(2) 0.9560(9)
C1_2 C 0.6591(3) 0.9051(3) 0.9310(12)
C2_2 C 0.6442(3) 0.8673(3) 0.8436(13)
C3_2 C 0.6563(3) 0.8610(4) 0.6900(13)
H1_2 H 0.6753 0.8797 0.6435
C4_2 C 0.6411(3) 0.8269(3) 0.5967(13)
C5_2 C 0.6519(4) 0.8204(4) 0.4337(14)
H2_2 H 0.6716 0.8382 0.3863
C6_2 C 0.6349(4) 0.7897(4) 0.3441(14)
H3_2 H 0.6425 0.7862 0.2364
C7_2 C 0.6048(3) 0.7622(3) 0.4191(13)
C8_2 C 0.5949(3) 0.7654(3) 0.5774(12)
H4_2 H 0.5766 0.7460 0.6240
C9_2 C 0.6126(3) 0.7986(3) 0.6740(13)
C10_2 C 0.6017(4) 0.8049(3) 0.8331(13)
H5_2 H 0.5838 0.7858 0.8835
C11_2 C 0.6165(3) 0.8385(3) 0.9184(13)
C12_2 C 0.5819(3) 0.7324(3) 0.3124(14)
O1_3 O 0.0879(2) 0.1472(2) 0.9281(9)
H6_3 H 0.1576 0.1084 0.9747
O9_2 O 0.0595(2) 0.2026(2) 0.6324(8)
O10_2 O 0.0827(2) 0.2391(2) 0.8368(9)
O2_3 O 0.1850(2) 0.4295(2) 0.1365(8)
O5_3 O 0.2503(2) 0.4903(2) 0.0440(9)
C1_3 C 0.1591(3) 0.4051(3) 0.0690(12)
C2_3 C 0.1442(3) 0.3673(3) 0.1564(13)
C3_3 C 0.1563(3) 0.3610(4) 0.3100(13)
H1_3 H 0.1753 0.3797 0.3565
C4_3 C 0.1411(3) 0.3269(3) 0.4033(13)
C5_3 C 0.1519(4) 0.3204(4) 0.5663(14)
H2_3 H 0.1716 0.3382 0.6137
C6_3 C 0.1349(4) 0.2897(4) 0.6559(14)
H3_3 H 0.1425 0.2862 0.7636
C7_3 C 0.1048(3) 0.2622(3) 0.5809(13)
C8_3 C 0.0949(3) 0.2654(3) 0.4226(12)
H4_3 H 0.0766 0.2460 0.3760
C9_3 C 0.1126(3) 0.2986(3) 0.3260(13)
C10_3 C 0.1017(4) 0.3049(3) 0.1669(13)
H5_3 H 0.0838 0.2858 0.1165
C11_3 C 0.1165(3) 0.3385(3) 0.0816(13)
C12_3 C 0.0819(3) 0.2324(3) 0.6876(14)
C19 C 0.4359(3) 0.6094(4) 0.0701(13)
C20 C 0.4276(3) 0.5818(3) 0.2006(13)
H10 H 0.4458 0.5804 0.2884
C21 C 0.3928(3) 0.5574(3) 0.1951(14)
H11 H 0.3878 0.5383 0.2780
C22 C 0.3637(3) 0.5604(3) 0.0651(13)
C23 C 0.3261(3) 0.5370(4) 0.0573(13)
H12 H 0.3204 0.5181 0.1405
C24 C 0.4739(3) 0.6381(3) 0.0762(14)
C19_2 C 0.0641(3) 0.8906(4) 0.0701(13)
C20_2 C 0.0724(3) 0.9182(3) 0.2006(13)
H10_2 H 0.0542 0.9196 0.2884
C21_2 C 0.1072(3) 0.9426(3) 0.1951(14)
H11_2 H 0.1122 0.9617 0.2780
C22_2 C 0.1363(3) 0.9396(3) 0.0651(13)
C23_2 C 0.1739(3) 0.9630(4) 0.0573(13)
H12_2 H 0.1796 0.9819 0.1405
C24_2 C 0.0261(3) 0.8619(3) 0.0762(14)
O2_4 O 0.5705(2) 0.6850(2) 0.8635(8)
O3_2 O 0.7974(2) 0.5595(2) 0.3676(8)
O4_2 O 0.7609(2) 0.5827(2) 0.1632(9)
O5_4 O 0.5097(2) 0.7503(2) 0.9560(9)
O7 O 0.3590(2) 0.9955(2) 0.7980(9)
C1_4 C 0.5949(3) 0.6591(3) 0.9310(12)
C2_4 C 0.6327(3) 0.6442(3) 0.8436(13)
C3_4 C 0.6390(4) 0.6563(3) 0.6900(13)
H1_4 H 0.6203 0.6753 0.6435
C4_4 C 0.6731(3) 0.6411(3) 0.5967(13)
C5_4 C 0.6796(4) 0.6519(4) 0.4337(14)
H2_4 H 0.6618 0.6716 0.3863
C6_4 C 0.7103(4) 0.6349(4) 0.3441(14)
H3_4 H 0.7138 0.6425 0.2364
C7_4 C 0.7378(3) 0.6048(3) 0.4191(13)
C8_4 C 0.7346(3) 0.5949(3) 0.5774(12)
H4_4 H 0.7540 0.5766 0.6240
C9_4 C 0.7014(3) 0.6126(3) 0.6740(13)
C10_4 C 0.6951(3) 0.6017(4) 0.8331(13)
H5_4 H 0.7142 0.5838 0.8835
C11_4 C 0.6615(3) 0.6165(3) 0.9184(13)
C12_4 C 0.7676(3) 0.5819(3) 0.3124(14)
C19_3 C 0.3906(4) 0.9359(3) 0.9299(13)
C20_3 C 0.4182(3) 0.9276(3) 0.7994(13)
H10_3 H 0.4196 0.9458 0.7116
C21_3 C 0.4426(3) 0.8928(3) 0.8049(14)
H11_3 H 0.4617 0.8878 0.7220
C22_3 C 0.4396(3) 0.8637(3) 0.9349(13)
C23_3 C 0.4630(4) 0.8261(3) 0.9427(13)
H12_3 H 0.4819 0.8204 0.8595
C24_3 C 0.3619(3) 0.9739(3) 0.9238(14)
In2 In 0.80696(2) 0.53458(2) 0.09690(8)
O12 O 0.4833(2) 0.6592(2) 0.9531(9)
O7_2 O 0.1410(2) 0.5045(2) 0.7980(9)
C19_4 C 0.1094(4) 0.5641(3) 0.9299(13)
C20_4 C 0.0818(3) 0.5724(3) 0.7994(13)
H10_4 H 0.0804 0.5542 0.7116
C21_4 C 0.0574(3) 0.6072(3) 0.8049(14)
H11_4 H 0.0383 0.6122 0.7220
C22_4 C 0.0604(3) 0.6363(3) 0.9349(13)
C23_4 C 0.0370(4) 0.6739(3) 0.9427(13)
H12_4 H 0.0181 0.6796 0.8595
C24_4 C 0.1381(3) 0.5261(3) 0.9238(14)
In3_3 In 0.19304(2) 0.46542(2) 0.90310(8)
O12_2 O 0.0167(2) 0.8408(2) 0.9531(9)
O1_4 O 0.8528(2) 0.5879(2) 0.0719(9)
O6_3 O 0.7642(2) 0.4847(2) 0.1935(9)
O8_3 O 0.5167(2) 0.3408(2) 0.0469(9)
H6_4 H 0.8916 0.6576 0.0253
C13_3 C 0.7412(3) 0.4859(4) 0.0710(13)
C14_3 C 0.7022(3) 0.4598(4) 0.0641(14)
C15_3 C 0.6926(4) 0.4309(3) 0.1922(15)
H7_3 H 0.7112 0.4279 0.2782
C16_3 C 0.6571(4) 0.4082(4) 0.1884(14)
H8_3 H 0.6513 0.3900 0.2734
C17_3 C 0.6287(4) 0.4111(4) 0.0610(13)
C18_3 C 0.5905(3) 0.3872(3) 0.0551(13)
H9_3 H 0.5839 0.3691 0.1397
O11_3 O 0.8590(2) 0.4955(2) 0.2020(9)
O6_4 O 0.7358(2) 0.0153(2) 0.1935(9)
O8_4 O 0.9833(2) 0.1592(2) 0.0469(9)
C13_4 C 0.7588(3) 0.0141(4) 0.0710(13)
C14_4 C 0.7978(3) 0.0402(4) 0.0641(14)
C15_4 C 0.8074(4) 0.0691(3) 0.1922(15)
H7_4 H 0.7888 0.0721 0.2782
C16_4 C 0.8429(4) 0.0918(4) 0.1884(14)
H8_4 H 0.8487 0.1100 0.2734
C17_4 C 0.8713(4) 0.0889(4) 0.0610(13)
C18_4 C 0.9095(3) 0.1128(3) 0.0551(13)
H9_4 H 0.9161 0.1309 0.1397
O11_4 O 0.6410(2) 0.0045(2) 0.2020(9)
O2_5 O 0.4295(2) 0.3150(2) 0.1365(8)
O3_3 O 0.2026(2) 0.4405(2) 0.6324(8)
O4_3 O 0.2391(2) 0.4173(2) 0.8368(9)
O5_5 O 0.4903(2) 0.2497(2) 0.0440(9)
C1_5 C 0.4051(3) 0.3409(3) 0.0690(12)
C2_5 C 0.3673(3) 0.3558(3) 0.1564(13)
C3_5 C 0.3610(4) 0.3437(3) 0.3100(13)
H1_5 H 0.3797 0.3247 0.3565
C4_5 C 0.3269(3) 0.3589(3) 0.4033(13)
C5_5 C 0.3204(4) 0.3481(4) 0.5663(14)
H2_5 H 0.3382 0.3284 0.6137
C6_5 C 0.2897(4) 0.3651(4) 0.6559(14)
H3_5 H 0.2862 0.3575 0.7636
C7_5 C 0.2622(3) 0.3952(3) 0.5809(13)
C8_5 C 0.2654(3) 0.4051(3) 0.4226(12)
H4_5 H 0.2460 0.4234 0.3760
C9_5 C 0.2986(3) 0.3874(3) 0.3260(13)
C10_5 C 0.3049(3) 0.3983(4) 0.1669(13)
H5_5 H 0.2858 0.4162 0.1165
C11_5 C 0.3385(3) 0.3835(3) 0.0816(13)
C12_5 C 0.2324(3) 0.4181(3) 0.6876(14)
C19_5 C 0.6094(4) 0.0641(3) 0.0701(13)
C20_5 C 0.5818(3) 0.0724(3) 0.2006(13)
H10_5 H 0.5804 0.0542 0.2884
C21_5 C 0.5574(3) 0.1072(3) 0.1951(14)
H11_5 H 0.5383 0.1122 0.2780
C22_5 C 0.5604(3) 0.1363(3) 0.0651(13)
C23_5 C 0.5370(4) 0.1739(3) 0.0573(13)
H12_5 H 0.5181 0.1796 0.1405
C24_5 C 0.6381(3) 0.0261(3) 0.0762(14)
C19_6 C 0.8906(4) 0.4359(3) 0.0701(13)
C20_6 C 0.9182(3) 0.4276(3) 0.2006(13)
H10_6 H 0.9196 0.4458 0.2884
C21_6 C 0.9426(3) 0.3928(3) 0.1951(14)
H11_6 H 0.9617 0.3878 0.2780
C22_6 C 0.9396(3) 0.3637(3) 0.0651(13)
C23_6 C 0.9630(4) 0.3261(3) 0.0573(13)
H12_6 H 0.9819 0.3204 0.1405
C24_6 C 0.8619(3) 0.4739(3) 0.0762(14)
O1_5 O 0.1472(2) 0.4121(2) 0.9281(9)
O6_5 O 0.2358(2) 0.5153(2) 0.8065(9)
H6_5 H 0.1084 0.3424 0.9747
C13_5 C 0.2588(3) 0.5141(4) 0.9290(13)
C14_5 C 0.2978(3) 0.5402(4) 0.9359(14)
C15_5 C 0.3074(4) 0.5691(3) 0.8078(15)
H7_5 H 0.2888 0.5721 0.7218
C16_5 C 0.3429(4) 0.5918(4) 0.8116(14)
H8_5 H 0.3487 0.6100 0.7266
C17_5 C 0.3713(4) 0.5889(4) 0.9390(13)
C18_5 C 0.4095(3) 0.6128(3) 0.9449(13)
H9_5 H 0.4161 0.6309 0.8603
O6_6 O 0.2642(2) 0.9847(2) 0.8065(9)
C13_6 C 0.2412(3) 0.9859(4) 0.9290(13)
C14_6 C 0.2022(3) 0.9598(4) 0.9359(14)
C15_6 C 0.1926(4) 0.9309(3) 0.8078(15)
H7_6 H 0.2112 0.9279 0.7218
C16_6 C 0.1571(4) 0.9082(4) 0.8116(14)
H8_6 H 0.1513 0.8900 0.7266
C17_6 C 0.1287(4) 0.9111(4) 0.9390(13)
C18_6 C 0.0905(3) 0.8872(3) 0.9449(13)
H9_6 H 0.0839 0.8691 0.8603
In1_2 In 0.96542(2) 0.80696(2) 0.09690(8)
O1_6 O 0.9121(2) 0.8528(2) 0.0719(9)
H6_6 H 0.8424 0.8916 0.0253
O9_3 O 0.9405(2) 0.7974(2) 0.3676(8)
O10_3 O 0.9173(2) 0.7609(2) 0.1632(9)
O2_6 O 0.8150(2) 0.5705(2) 0.8635(8)
O5_6 O 0.7497(2) 0.5097(2) 0.9560(9)
O7_3 O 0.5045(2) 0.3590(2) 0.7980(9)
C1_6 C 0.8409(3) 0.5949(3) 0.9310(12)
C2_6 C 0.8558(3) 0.6327(3) 0.8436(13)
C3_6 C 0.8437(3) 0.6390(4) 0.6900(13)
H1_6 H 0.8247 0.6203 0.6435
C4_6 C 0.8589(3) 0.6731(3) 0.5967(13)
C5_6 C 0.8481(4) 0.6796(4) 0.4337(14)
H2_6 H 0.8284 0.6618 0.3863
C6_6 C 0.8651(4) 0.7103(4) 0.3441(14)
H3_6 H 0.8575 0.7138 0.2364
C7_6 C 0.8952(3) 0.7378(3) 0.4191(13)
C8_6 C 0.9051(3) 0.7346(3) 0.5774(12)
H4_6 H 0.9234 0.7540 0.6240
C9_6 C 0.8874(3) 0.7014(3) 0.6740(13)
C10_6 C 0.8983(4) 0.6951(3) 0.8331(13)
H5_6 H 0.9162 0.7142 0.8835
C11_6 C 0.8835(3) 0.6615(3) 0.9184(13)
C12_6 C 0.9181(3) 0.7676(3) 0.3124(14)
C19_7 C 0.5641(3) 0.3906(4) 0.9299(13)
C20_7 C 0.5724(3) 0.4182(3) 0.7994(13)
H10_7 H 0.5542 0.4196 0.7116
C21_7 C 0.6072(3) 0.4426(3) 0.8049(14)
H11_7 H 0.6122 0.4617 0.7220
C22_7 C 0.6363(3) 0.4396(3) 0.9349(13)
C23_7 C 0.6739(3) 0.4630(4) 0.9427(13)
H12_7 H 0.6796 0.4819 0.8595
C24_7 C 0.5261(3) 0.3619(3) 0.9238(14)
In3_4 In 0.46542(2) 0.30696(2) 0.90310(8)
O12_3 O 0.8408(2) 0.4833(2) 0.9531(9)
O7_4 O 0.9955(2) 0.1410(2) 0.7980(9)
C19_8 C 0.9359(3) 0.1094(4) 0.9299(13)
C20_8 C 0.9276(3) 0.0818(3) 0.7994(13)
H10_8 H 0.9458 0.0804 0.7116
C21_8 C 0.8928(3) 0.0574(3) 0.8049(14)
H11_8 H 0.8878 0.0383 0.7220
C22_8 C 0.8637(3) 0.0604(3) 0.9349(13)
C23_8 C 0.8261(3) 0.0370(4) 0.9427(13)
H12_8 H 0.8204 0.0181 0.8595
C24_8 C 0.9739(3) 0.1381(3) 0.9238(14)
O12_4 O 0.6592(2) 0.0167(2) 0.9531(9)
O1_7 O 0.4121(2) 0.3528(2) 0.9281(9)
O6_7 O 0.5153(2) 0.2642(2) 0.8065(9)
H6_7 H 0.3424 0.3916 0.9747
C13_7 C 0.5141(4) 0.2412(3) 0.9290(13)
C14_7 C 0.5402(4) 0.2022(3) 0.9359(14)
C15_7 C 0.5691(3) 0.1926(4) 0.8078(15)
H7_7 H 0.5721 0.2112 0.7218
C16_7 C 0.5918(4) 0.1571(4) 0.8116(14)
H8_7 H 0.6100 0.1513 0.7266
C17_7 C 0.5889(4) 0.1287(4) 0.9390(13)
C18_7 C 0.6128(3) 0.0905(3) 0.9449(13)
H9_7 H 0.6309 0.0839 0.8603
O9_4 O 0.4405(2) 0.2974(2) 0.6324(8)
O10_4 O 0.4173(2) 0.2609(2) 0.8368(9)
O6_8 O 0.9847(2) 0.2358(2) 0.8065(9)
C13_8 C 0.9859(4) 0.2588(3) 0.9290(13)
C14_8 C 0.9598(4) 0.2978(3) 0.9359(14)
C15_8 C 0.9309(3) 0.3074(4) 0.8078(15)
H7_8 H 0.9279 0.2888 0.7218
C16_8 C 0.9082(4) 0.3429(4) 0.8116(14)
H8_8 H 0.8900 0.3487 0.7266
C17_8 C 0.9111(4) 0.3713(4) 0.9390(13)
C18_8 C 0.8872(3) 0.4095(3) 0.9449(13)
H9_8 H 0.8691 0.4161 0.8603
O2_7 O 0.3150(2) 0.0705(2) 0.1365(8)
O5_7 O 0.2497(2) 0.0097(2) 0.0440(9)
C1_7 C 0.3409(3) 0.0949(3) 0.0690(12)
C2_7 C 0.3558(3) 0.1327(3) 0.1564(13)
C3_7 C 0.3437(3) 0.1390(4) 0.3100(13)
H1_7 H 0.3247 0.1203 0.3565
C4_7 C 0.3589(3) 0.1731(3) 0.4033(13)
C5_7 C 0.3481(4) 0.1796(4) 0.5663(14)
H2_7 H 0.3284 0.1618 0.6137
C6_7 C 0.3651(4) 0.2103(4) 0.6559(14)
H3_7 H 0.3575 0.2138 0.7636
C7_7 C 0.3952(3) 0.2378(3) 0.5809(13)
C8_7 C 0.4051(3) 0.2346(3) 0.4226(12)
H4_7 H 0.4234 0.2540 0.3760
C9_7 C 0.3874(3) 0.2014(3) 0.3260(13)
C10_7 C 0.3983(4) 0.1951(3) 0.1669(13)
H5_7 H 0.4162 0.2142 0.1165
C11_7 C 0.3835(3) 0.1615(3) 0.0816(13)
C12_7 C 0.4181(3) 0.2676(3) 0.6876(14)
O2_8 O 0.9295(2) 0.8150(2) 0.8635(8)
O3_4 O 0.7026(2) 0.9405(2) 0.3676(8)
O4_4 O 0.7391(2) 0.9173(2) 0.1632(9)
O5_8 O 0.9903(2) 0.7497(2) 0.9560(9)
C1_8 C 0.9051(3) 0.8409(3) 0.9310(12)
C2_8 C 0.8673(3) 0.8558(3) 0.8436(13)
C3_8 C 0.8610(4) 0.8437(3) 0.6900(13)
H1_8 H 0.8797 0.8247 0.6435
C4_8 C 0.8269(3) 0.8589(3) 0.5967(13)
C5_8 C 0.8204(4) 0.8481(4) 0.4337(14)
H2_8 H 0.8382 0.8284 0.3863
C6_8 C 0.7897(4) 0.8651(4) 0.3441(14)
H3_8 H 0.7862 0.8575 0.2364
C7_8 C 0.7622(3) 0.8952(3) 0.4191(13)
C8_8 C 0.7654(3) 0.9051(3) 0.5774(12)
H4_8 H 0.7460 0.9234 0.6240
C9_8 C 0.7986(3) 0.8874(3) 0.6740(13)
C10_8 C 0.8049(3) 0.8983(4) 0.8331(13)
H5_8 H 0.7858 0.9162 0.8835
C11_8 C 0.8385(3) 0.8835(3) 0.9184(13)
C12_8 C 0.7324(3) 0.9181(3) 0.3124(14)
In2_2 In 0.69304(2) 0.96542(2) 0.09690(8)
O1_8 O 0.6472(2) 0.9121(2) 0.0719(9)
H6_8 H 0.6084 0.8424 0.0253
N1 N 0.5041(3) 0.6744(3) 0.6057(11)
H13 H 0.5241 0.6828 0.5358
H14 H 0.5136 0.6794 0.7063
C25 C 0.4972(6) 0.6296(5) 0.5864(17)
H15 H 0.4826 0.6246 0.4852
H16 H 0.4791 0.6197 0.6729
C26 C 0.5375(5) 0.6044(5) 0.588(2)
H17 H 0.5575 0.6171 0.5158
H18 H 0.5318 0.5761 0.5534
H19 H 0.5489 0.6040 0.6952
C27 C 0.4655(5) 0.6989(6) 0.5778(19)
H20 H 0.4444 0.6917 0.6582
H21 H 0.4541 0.6924 0.4720
C28 C 0.4759(6) 0.7460(6) 0.5884(19)
H22 H 0.4505 0.7617 0.6088
H23 H 0.4881 0.7552 0.4884
H24 H 0.4955 0.7507 0.6748
C25_2 C 0.0028(6) 0.8704(5) 0.5864(17)
H15_2 H 0.0174 0.8754 0.4852
H16_2 H 0.0209 0.8803 0.6729
C27_2 C 0.0345(5) 0.8011(6) 0.5778(19)
H20_2 H 0.0556 0.8083 0.6582
H21_2 H 0.0459 0.8076 0.4720
C28_2 C 0.0241(6) 0.7540(6) 0.5884(19)
H22_2 H 0.0495 0.7383 0.6088
H23_2 H 0.0119 0.7448 0.4884
H24_2 H 0.0045 0.7493 0.6748
N1_2 N 0.9959(3) 0.8256(3) 0.6057(11)
H13_2 H 0.9759 0.8172 0.5358
H14_2 H 0.9864 0.8206 0.7063
C26_2 C 0.9625(5) 0.8956(5) 0.588(2)
H17_2 H 0.9425 0.8829 0.5158
H18_2 H 0.9682 0.9239 0.5534
H19_2 H 0.9511 0.8960 0.6952
N1_3 N 0.8256(3) 0.5041(3) 0.6057(11)
H13_3 H 0.8172 0.5241 0.5358
H14_3 H 0.8206 0.5136 0.7063
C25_3 C 0.8704(5) 0.4972(6) 0.5864(17)
H15_3 H 0.8754 0.4826 0.4852
H16_3 H 0.8803 0.4791 0.6729
C26_3 C 0.8956(5) 0.5375(5) 0.588(2)
H17_3 H 0.8829 0.5575 0.5158
H18_3 H 0.9239 0.5318 0.5534
H19_3 H 0.8960 0.5489 0.6952
C27_3 C 0.8011(6) 0.4655(5) 0.5778(19)
H20_3 H 0.8083 0.4444 0.6582
H21_3 H 0.8076 0.4541 0.4720
C28_3 C 0.7540(6) 0.4759(6) 0.5884(19)
H22_3 H 0.7383 0.4505 0.6088
H23_3 H 0.7448 0.4881 0.4884
H24_3 H 0.7493 0.4955 0.6748
C25_4 C 0.6296(5) 0.0028(6) 0.5864(17)
H15_4 H 0.6246 0.0174 0.4852
H16_4 H 0.6197 0.0209 0.6729
C27_4 C 0.6989(6) 0.0345(5) 0.5778(19)
H20_4 H 0.6917 0.0556 0.6582
H21_4 H 0.6924 0.0459 0.4720
C28_4 C 0.7460(6) 0.0241(6) 0.5884(19)
H22_4 H 0.7617 0.0495 0.6088
H23_4 H 0.7552 0.0119 0.4884
H24_4 H 0.7507 0.0045 0.6748
N1_4 N 0.6744(3) 0.9959(3) 0.6057(11)
H13_4 H 0.6828 0.9759 0.5358
H14_4 H 0.6794 0.9864 0.7063
C26_4 C 0.6044(5) 0.9625(5) 0.588(2)
H17_4 H 0.6171 0.9425 0.5158
H18_4 H 0.5761 0.9682 0.5534
H19_4 H 0.6040 0.9511 0.6952
N1_5 N 0.4959(3) 0.3256(3) 0.3943(11)
H13_5 H 0.4759 0.3172 0.4642
H14_5 H 0.4864 0.3206 0.2937
C25_5 C 0.5028(6) 0.3704(5) 0.4136(17)
H15_5 H 0.5174 0.3754 0.5148
H16_5 H 0.5209 0.3803 0.3271
C26_5 C 0.4625(5) 0.3956(5) 0.412(2)
H17_5 H 0.4425 0.3829 0.4842
H18_5 H 0.4682 0.4239 0.4466
H19_5 H 0.4511 0.3960 0.3048
C27_5 C 0.5345(5) 0.3011(6) 0.4222(19)
H20_5 H 0.5556 0.3083 0.3418
H21_5 H 0.5459 0.3076 0.5280
C28_5 C 0.5241(6) 0.2540(6) 0.4116(19)
H22_5 H 0.5495 0.2383 0.3912
H23_5 H 0.5119 0.2448 0.5116
H24_5 H 0.5045 0.2493 0.3252
N1_6 N 0.0041(3) 0.1744(3) 0.3943(11)
H13_6 H 0.0241 0.1828 0.4642
H14_6 H 0.0136 0.1794 0.2937
C26_6 C 0.0375(5) 0.1044(5) 0.412(2)
H17_6 H 0.0575 0.1171 0.4842
H18_6 H 0.0318 0.0761 0.4466
H19_6 H 0.0489 0.1040 0.3048
C25_6 C 0.9972(6) 0.1296(5) 0.4136(17)
H15_6 H 0.9826 0.1246 0.5148
H16_6 H 0.9791 0.1197 0.3271
C27_6 C 0.9655(5) 0.1989(6) 0.4222(19)
H20_6 H 0.9444 0.1917 0.3418
H21_6 H 0.9541 0.1924 0.5280
C28_6 C 0.9759(6) 0.2460(6) 0.4116(19)
H22_6 H 0.9505 0.2617 0.3912
H23_6 H 0.9881 0.2552 0.5116
H24_6 H 0.9955 0.2507 0.3252
N1_7 N 0.1744(3) 0.4959(3) 0.3943(11)
H13_7 H 0.1828 0.4759 0.4642
H14_7 H 0.1794 0.4864 0.2937
C25_7 C 0.1296(5) 0.5028(6) 0.4136(17)
H15_7 H 0.1246 0.5174 0.5148
H16_7 H 0.1197 0.5209 0.3271
C26_7 C 0.1044(5) 0.4625(5) 0.412(2)
H17_7 H 0.1171 0.4425 0.4842
H18_7 H 0.0761 0.4682 0.4466
H19_7 H 0.1040 0.4511 0.3048
C27_7 C 0.1989(6) 0.5345(5) 0.4222(19)
H20_7 H 0.1917 0.5556 0.3418
H21_7 H 0.1924 0.5459 0.5280
C28_7 C 0.2460(6) 0.5241(6) 0.4116(19)
H22_7 H 0.2617 0.5495 0.3912
H23_7 H 0.2552 0.5119 0.5116
H24_7 H 0.2507 0.5045 0.3252
N1_8 N 0.3256(3) 0.0041(3) 0.3943(11)
H13_8 H 0.3172 0.0241 0.4642
H14_8 H 0.3206 0.0136 0.2937
C26_8 C 0.3956(5) 0.0375(5) 0.412(2)
H17_8 H 0.3829 0.0575 0.4842
H18_8 H 0.4239 0.0318 0.4466
H19_8 H 0.3960 0.0489 0.3048
C25_8 C 0.3704(5) 0.9972(6) 0.4136(17)
H15_8 H 0.3754 0.9826 0.5148
H16_8 H 0.3803 0.9791 0.3271
C27_8 C 0.3011(6) 0.9655(5) 0.4222(19)
H20_8 H 0.3083 0.9444 0.3418
H21_8 H 0.3076 0.9541 0.5280
C28_8 C 0.2540(6) 0.9759(6) 0.4116(19)
H22_8 H 0.2383 0.9505 0.3912
H23_8 H 0.2448 0.9881 0.5116
H24_8 H 0.2493 0.9955 0.3252
loop_
_geom_bond_atom_site_label_1
_geom_bond_atom_site_label_2
_geom_bond_site_symmetry_1
_geom_bond_site_symmetry_2
O3 C12 1_555 1_555
O4 C12 1_555 1_555
C1 O2 1_555 1_555
C2 C1 1_555 1_555
C3 C2 1_555 1_555
H1 C3 1_555 1_555
C4 C3 1_555 1_555
C5 C4 1_555 1_555
H2 C5 1_555 1_555
C6 C5 1_555 1_555
H3 C6 1_555 1_555
C7 C6 1_555 1_555
C8 C7 1_555 1_555
H4 C8 1_555 1_555
C9 C4 1_555 1_555
C10 C9 1_555 1_555
H5 C10 1_555 1_555
C11 C2 1_555 1_555
C12 C7 1_555 1_555
In3 O3 1_555 1_555
O4 In3 1_555 1_555
C8 C9 1_555 1_555
C10 C11 1_555 1_555
In3 O1 1_555 1_555
In1 O1_2 1_555 1_555
O6 In1 1_555 1_555
C14 C13 1_555 1_555
C15 C14 1_555 1_555
H7 C15 1_555 1_555
C16 C15 1_555 1_555
H8 C16 1_555 1_555
C17 C16 1_555 1_555
C18 C17 1_555 1_555
H9 C18 1_555 1_555
O9 In1 1_555 1_555
O10 In1 1_555 1_555
O11 In1 1_555 1_555
O6 C13 1_555 1_555
C14_2 C13_2 1_555 1_555
C15_2 C14_2 1_555 1_555
H7_2 C15_2 1_555 1_555
C16_2 C15_2 1_555 1_555
H8_2 C16_2 1_555 1_555
C17_2 C16_2 1_555 1_555
C18_2 C17_2 1_555 1_555
H9_2 C18_2 1_555 1_555
O6_2 C13_2 1_555 1_555
O9 C12_2 1_555 1_555
O10 C12_2 1_555 1_555
C1_2 O2_2 1_555 1_555
C2_2 C1_2 1_555 1_555
C3_2 C2_2 1_555 1_555
H1_2 C3_2 1_555 1_555
C4_2 C3_2 1_555 1_555
C5_2 C4_2 1_555 1_555
H2_2 C5_2 1_555 1_555
C6_2 C5_2 1_555 1_555
H3_2 C6_2 1_555 1_555
C7_2 C6_2 1_555 1_555
C8_2 C7_2 1_555 1_555
H4_2 C8_2 1_555 1_555
C9_2 C4_2 1_555 1_555
C10_2 C9_2 1_555 1_555
H5_2 C10_2 1_555 1_555
C11_2 C2_2 1_555 1_555
C12_2 C7_2 1_555 1_555
C8_2 C9_2 1_555 1_555
C10_2 C11_2 1_555 1_555
In3_2 O1_3 1_555 1_555
O9_2 In3_2 1_555 1_555
O10_2 In3_2 1_555 1_555
O9_2 C12_3 1_555 1_555
O10_2 C12_3 1_555 1_555
O11 C24 1_555 1_555
C1_3 O2_3 1_555 1_555
C2_3 C1_3 1_555 1_555
C3_3 C2_3 1_555 1_555
H1_3 C3_3 1_555 1_555
C4_3 C3_3 1_555 1_555
C5_3 C4_3 1_555 1_555
H2_3 C5_3 1_555 1_555
C6_3 C5_3 1_555 1_555
H3_3 C6_3 1_555 1_555
C7_3 C6_3 1_555 1_555
C8_3 C7_3 1_555 1_555
H4_3 C8_3 1_555 1_555
C9_3 C4_3 1_555 1_555
C10_3 C9_3 1_555 1_555
H5_3 C10_3 1_555 1_555
C11_3 C2_3 1_555 1_555
C12_3 C7_3 1_555 1_555
C20 C19 1_555 1_555
H10 C20 1_555 1_555
C21 C20 1_555 1_555
H11 C21 1_555 1_555
H12 C23 1_555 1_555
C24 C19 1_555 1_555
C8_3 C9_3 1_555 1_555
C10_3 C11_3 1_555 1_555
C21 C22 1_555 1_555
C22 C23 1_555 1_555
O11_2 C24_2 1_555 1_555
C20_2 C19_2 1_555 1_555
H10_2 C20_2 1_555 1_555
C21_2 C20_2 1_555 1_555
H11_2 C21_2 1_555 1_555
H12_2 C23_2 1_555 1_555
C24_2 C19_2 1_555 1_555
C21_2 C22_2 1_555 1_555
C22_2 C23_2 1_555 1_555
O3_2 C12_4 1_555 1_555
O4_2 C12_4 1_555 1_555
O7 C24_3 1_555 1_555
C1_4 O2_4 1_555 1_555
C2_4 C1_4 1_555 1_555
C3_4 C2_4 1_555 1_555
H1_4 C3_4 1_555 1_555
C4_4 C3_4 1_555 1_555
C5_4 C4_4 1_555 1_555
H2_4 C5_4 1_555 1_555
C6_4 C5_4 1_555 1_555
H3_4 C6_4 1_555 1_555
C7_4 C6_4 1_555 1_555
C8_4 C7_4 1_555 1_555
H4_4 C8_4 1_555 1_555
C9_4 C4_4 1_555 1_555
C10_4 C9_4 1_555 1_555
H5_4 C10_4 1_555 1_555
C11_4 C2_4 1_555 1_555
C12_4 C7_4 1_555 1_555
C20_3 C19_3 1_555 1_555
H10_3 C20_3 1_555 1_555
C21_3 C20_3 1_555 1_555
H11_3 C21_3 1_555 1_555
H12_3 C23_3 1_555 1_555
C24_3 C19_3 1_555 1_555
In2 O3_2 1_555 1_555
O4_2 In2 1_555 1_555
C8_4 C9_4 1_555 1_555
C10_4 C11_4 1_555 1_555
C21_3 C22_3 1_555 1_555
C22_3 C23_3 1_555 1_555
O7_2 C24_4 1_555 1_555
C20_4 C19_4 1_555 1_555
H10_4 C20_4 1_555 1_555
C21_4 C20_4 1_555 1_555
H11_4 C21_4 1_555 1_555
H12_4 C23_4 1_555 1_555
C24_4 C19_4 1_555 1_555
In3_3 O7_2 1_555 1_555
C21_4 C22_4 1_555 1_555
C22_4 C23_4 1_555 1_555
In2 O1_4 1_555 1_555
O6_3 In2 1_555 1_555
C14_3 C13_3 1_555 1_555
C15_3 C14_3 1_555 1_555
H7_3 C15_3 1_555 1_555
C16_3 C15_3 1_555 1_555
H8_3 C16_3 1_555 1_555
C17_3 C16_3 1_555 1_555
C18_3 C17_3 1_555 1_555
H9_3 C18_3 1_555 1_555
O11_3 In2 1_555 1_555
O6_3 C13_3 1_555 1_555
C14_4 C13_4 1_555 1_555
C15_4 C14_4 1_555 1_555
H7_4 C15_4 1_555 1_555
C16_4 C15_4 1_555 1_555
H8_4 C16_4 1_555 1_555
C17_4 C16_4 1_555 1_555
C18_4 C17_4 1_555 1_555
H9_4 C18_4 1_555 1_555
O6_4 C13_4 1_555 1_555
O3_3 C12_5 1_555 1_555
O4_3 C12_5 1_555 1_555
O11_4 C24_5 1_555 1_555
C1_5 O2_5 1_555 1_555
C2_5 C1_5 1_555 1_555
C3_5 C2_5 1_555 1_555
H1_5 C3_5 1_555 1_555
C4_5 C3_5 1_555 1_555
C5_5 C4_5 1_555 1_555
H2_5 C5_5 1_555 1_555
C6_5 C5_5 1_555 1_555
H3_5 C6_5 1_555 1_555
C7_5 C6_5 1_555 1_555
C8_5 C7_5 1_555 1_555
H4_5 C8_5 1_555 1_555
C9_5 C4_5 1_555 1_555
C10_5 C9_5 1_555 1_555
H5_5 C10_5 1_555 1_555
C11_5 C2_5 1_555 1_555
C12_5 C7_5 1_555 1_555
C20_5 C19_5 1_555 1_555
H10_5 C20_5 1_555 1_555
C21_5 C20_5 1_555 1_555
H11_5 C21_5 1_555 1_555
H12_5 C23_5 1_555 1_555
C24_5 C19_5 1_555 1_555
In3_3 O3_3 1_555 1_555
O4_3 In3_3 1_555 1_555
C8_5 C9_5 1_555 1_555
C10_5 C11_5 1_555 1_555
C21_5 C22_5 1_555 1_555
C22_5 C23_5 1_555 1_555
O11_3 C24_6 1_555 1_555
C20_6 C19_6 1_555 1_555
H10_6 C20_6 1_555 1_555
C21_6 C20_6 1_555 1_555
H11_6 C21_6 1_555 1_555
H12_6 C23_6 1_555 1_555
C24_6 C19_6 1_555 1_555
C21_6 C22_6 1_555 1_555
C22_6 C23_6 1_555 1_555
In3_3 O1_5 1_555 1_555
O6_5 In3_3 1_555 1_555
C14_5 C13_5 1_555 1_555
C15_5 C14_5 1_555 1_555
H7_5 C15_5 1_555 1_555
C16_5 C15_5 1_555 1_555
H8_5 C16_5 1_555 1_555
C17_5 C16_5 1_555 1_555
C18_5 C17_5 1_555 1_555
H9_5 C18_5 1_555 1_555
O6_5 C13_5 1_555 1_555
C14_6 C13_6 1_555 1_555
C15_6 C14_6 1_555 1_555
H7_6 C15_6 1_555 1_555
C16_6 C15_6 1_555 1_555
H8_6 C16_6 1_555 1_555
C17_6 C16_6 1_555 1_555
C18_6 C17_6 1_555 1_555
H9_6 C18_6 1_555 1_555
O6_6 C13_6 1_555 1_555
In1_2 O1_6 1_555 1_555
O9_3 In1_2 1_555 1_555
O10_3 In1_2 1_555 1_555
O9_3 C12_6 1_555 1_555
O10_3 C12_6 1_555 1_555
O7_3 C24_7 1_555 1_555
C1_6 O2_6 1_555 1_555
C2_6 C1_6 1_555 1_555
C3_6 C2_6 1_555 1_555
H1_6 C3_6 1_555 1_555
C4_6 C3_6 1_555 1_555
C5_6 C4_6 1_555 1_555
H2_6 C5_6 1_555 1_555
C6_6 C5_6 1_555 1_555
H3_6 C6_6 1_555 1_555
C7_6 C6_6 1_555 1_555
C8_6 C7_6 1_555 1_555
H4_6 C8_6 1_555 1_555
C9_6 C4_6 1_555 1_555
C10_6 C9_6 1_555 1_555
H5_6 C10_6 1_555 1_555
C11_6 C2_6 1_555 1_555
C12_6 C7_6 1_555 1_555
C20_7 C19_7 1_555 1_555
H10_7 C20_7 1_555 1_555
C21_7 C20_7 1_555 1_555
H11_7 C21_7 1_555 1_555
H12_7 C23_7 1_555 1_555
C24_7 C19_7 1_555 1_555
In3_4 O7_3 1_555 1_555
C8_6 C9_6 1_555 1_555
C10_6 C11_6 1_555 1_555
C21_7 C22_7 1_555 1_555
C22_7 C23_7 1_555 1_555
O7_4 C24_8 1_555 1_555
C20_8 C19_8 1_555 1_555
H10_8 C20_8 1_555 1_555
C21_8 C20_8 1_555 1_555
H11_8 C21_8 1_555 1_555
H12_8 C23_8 1_555 1_555
C24_8 C19_8 1_555 1_555
C21_8 C22_8 1_555 1_555
C22_8 C23_8 1_555 1_555
In3_4 O1_7 1_555 1_555
O6_7 In3_4 1_555 1_555
C14_7 C13_7 1_555 1_555
C15_7 C14_7 1_555 1_555
H7_7 C15_7 1_555 1_555
C16_7 C15_7 1_555 1_555
H8_7 C16_7 1_555 1_555
C17_7 C16_7 1_555 1_555
C18_7 C17_7 1_555 1_555
H9_7 C18_7 1_555 1_555
O9_4 In3_4 1_555 1_555
O10_4 In3_4 1_555 1_555
O6_7 C13_7 1_555 1_555
C14_8 C13_8 1_555 1_555
C15_8 C14_8 1_555 1_555
H7_8 C15_8 1_555 1_555
C16_8 C15_8 1_555 1_555
H8_8 C16_8 1_555 1_555
C17_8 C16_8 1_555 1_555
C18_8 C17_8 1_555 1_555
H9_8 C18_8 1_555 1_555
O6_8 C13_8 1_555 1_555
O9_4 C12_7 1_555 1_555
O10_4 C12_7 1_555 1_555
C1_7 O2_7 1_555 1_555
C2_7 C1_7 1_555 1_555
C3_7 C2_7 1_555 1_555
H1_7 C3_7 1_555 1_555
C4_7 C3_7 1_555 1_555
C5_7 C4_7 1_555 1_555
H2_7 C5_7 1_555 1_555
C6_7 C5_7 1_555 1_555
H3_7 C6_7 1_555 1_555
C7_7 C6_7 1_555 1_555
C8_7 C7_7 1_555 1_555
H4_7 C8_7 1_555 1_555
C9_7 C4_7 1_555 1_555
C10_7 C9_7 1_555 1_555
H5_7 C10_7 1_555 1_555
C11_7 C2_7 1_555 1_555
C12_7 C7_7 1_555 1_555
C8_7 C9_7 1_555 1_555
C10_7 C11_7 1_555 1_555
O3_4 C12_8 1_555 1_555
O4_4 C12_8 1_555 1_555
C1_8 O2_8 1_555 1_555
C2_8 C1_8 1_555 1_555
C3_8 C2_8 1_555 1_555
H1_8 C3_8 1_555 1_555
C4_8 C3_8 1_555 1_555
C5_8 C4_8 1_555 1_555
H2_8 C5_8 1_555 1_555
C6_8 C5_8 1_555 1_555
H3_8 C6_8 1_555 1_555
C7_8 C6_8 1_555 1_555
C8_8 C7_8 1_555 1_555
H4_8 C8_8 1_555 1_555
C9_8 C4_8 1_555 1_555
C10_8 C9_8 1_555 1_555
H5_8 C10_8 1_555 1_555
C11_8 C2_8 1_555 1_555
C12_8 C7_8 1_555 1_555
In2_2 O3_4 1_555 1_555
O4_4 In2_2 1_555 1_555
C8_8 C9_8 1_555 1_555
C10_8 C11_8 1_555 1_555
In2_2 O1_8 1_555 1_555
N1 H13 1_555 1_555
H14 N1 1_555 1_555
C25 N1 1_555 1_555
H15 C25 1_555 1_555
H16 C25 1_555 1_555
C26 C25 1_555 1_555
H17 C26 1_555 1_555
H18 C26 1_555 1_555
H19 C26 1_555 1_555
C27 N1 1_555 1_555
H20 C27 1_555 1_555
H21 C27 1_555 1_555
C28 C27 1_555 1_555
H22 C28 1_555 1_555
H23 C28 1_555 1_555
H24 C28 1_555 1_555
H15_2 C25_2 1_555 1_555
H16_2 C25_2 1_555 1_555
H20_2 C27_2 1_555 1_555
H21_2 C27_2 1_555 1_555
C28_2 C27_2 1_555 1_555
H22_2 C28_2 1_555 1_555
H23_2 C28_2 1_555 1_555
H24_2 C28_2 1_555 1_555
N1_2 H13_2 1_555 1_555
H14_2 N1_2 1_555 1_555
H17_2 C26_2 1_555 1_555
H18_2 C26_2 1_555 1_555
H19_2 C26_2 1_555 1_555
N1_3 H13_3 1_555 1_555
H14_3 N1_3 1_555 1_555
C25_3 N1_3 1_555 1_555
H15_3 C25_3 1_555 1_555
H16_3 C25_3 1_555 1_555
C26_3 C25_3 1_555 1_555
H17_3 C26_3 1_555 1_555
H18_3 C26_3 1_555 1_555
H19_3 C26_3 1_555 1_555
C27_3 N1_3 1_555 1_555
H20_3 C27_3 1_555 1_555
H21_3 C27_3 1_555 1_555
C28_3 C27_3 1_555 1_555
H22_3 C28_3 1_555 1_555
H23_3 C28_3 1_555 1_555
H24_3 C28_3 1_555 1_555
H15_4 C25_4 1_555 1_555
H16_4 C25_4 1_555 1_555
H20_4 C27_4 1_555 1_555
H21_4 C27_4 1_555 1_555
C28_4 C27_4 1_555 1_555
H22_4 C28_4 1_555 1_555
H23_4 C28_4 1_555 1_555
H24_4 C28_4 1_555 1_555
N1_4 H13_4 1_555 1_555
H14_4 N1_4 1_555 1_555
H17_4 C26_4 1_555 1_555
H18_4 C26_4 1_555 1_555
H19_4 C26_4 1_555 1_555
N1_5 H13_5 1_555 1_555
H14_5 N1_5 1_555 1_555
C25_5 N1_5 1_555 1_555
H15_5 C25_5 1_555 1_555
H16_5 C25_5 1_555 1_555
C26_5 C25_5 1_555 1_555
H17_5 C26_5 1_555 1_555
H18_5 C26_5 1_555 1_555
H19_5 C26_5 1_555 1_555
C27_5 N1_5 1_555 1_555
H20_5 C27_5 1_555 1_555
H21_5 C27_5 1_555 1_555
C28_5 C27_5 1_555 1_555
H22_5 C28_5 1_555 1_555
H23_5 C28_5 1_555 1_555
H24_5 C28_5 1_555 1_555
N1_6 H13_6 1_555 1_555
H14_6 N1_6 1_555 1_555
H17_6 C26_6 1_555 1_555
H18_6 C26_6 1_555 1_555
H19_6 C26_6 1_555 1_555
H15_6 C25_6 1_555 1_555
H16_6 C25_6 1_555 1_555
H20_6 C27_6 1_555 1_555
H21_6 C27_6 1_555 1_555
C28_6 C27_6 1_555 1_555
H22_6 C28_6 1_555 1_555
H23_6 C28_6 1_555 1_555
H24_6 C28_6 1_555 1_555
N1_7 H13_7 1_555 1_555
H14_7 N1_7 1_555 1_555
C25_7 N1_7 1_555 1_555
H15_7 C25_7 1_555 1_555
H16_7 C25_7 1_555 1_555
C26_7 C25_7 1_555 1_555
H17_7 C26_7 1_555 1_555
H18_7 C26_7 1_555 1_555
H19_7 C26_7 1_555 1_555
C27_7 N1_7 1_555 1_555
H20_7 C27_7 1_555 1_555
H21_7 C27_7 1_555 1_555
C28_7 C27_7 1_555 1_555
H22_7 C28_7 1_555 1_555
H23_7 C28_7 1_555 1_555
H24_7 C28_7 1_555 1_555
N1_8 H13_8 1_555 1_555
H14_8 N1_8 1_555 1_555
H17_8 C26_8 1_555 1_555
H18_8 C26_8 1_555 1_555
H19_8 C26_8 1_555 1_555
H15_8 C25_8 1_555 1_555
H16_8 C25_8 1_555 1_555
H20_8 C27_8 1_555 1_555
H21_8 C27_8 1_555 1_555
C28_8 C27_8 1_555 1_555
H22_8 C28_8 1_555 1_555
H23_8 C28_8 1_555 1_555
H24_8 C28_8 1_555 1_555

#END
