
###############################################################################
#
# This file contains modified crystal structure data generated from the
# MOF subset of the Cambridge Structural Database (CSD) v543 
# hosted by the Cambridge Crystallographic Data Centre (CCDC).
#
# This work is licensed under the Creative Commons
# Attribution-NonCommercial-ShareAlike 4.0 International License.
# To view a copy of this license, visit
# http://creativecommons.org/licenses/by-nc-sa/4.0/
# or send a letter to
# Creative Commons, PO Box 1866, Mountain View, CA 94042, USA.
#
# CIF created using the CSD Python API on 29 September 2022
# The structure has been converted into the P1 space group
# The structure has a 3D framework
# The original CSD entry NUGTAN is in the monoclinic crystal system
# The framework has been calculated to contain at least 10.0% void space
# The void calculation uses a probe of radius 1.32A, grid spacing 0.4
#
###############################################################################

data_NUGTAN
_chemical_formula_moiety         '(C224 H160 N16 O48 Zn6)n'
_symmetry_cell_setting           triclinic
_symmetry_space_group_name_H-M   'P 1'
_symmetry_Int_Tables_number      1
_space_group_name_Hall           'P 1'
loop_
_symmetry_equiv_pos_site_id
_symmetry_equiv_pos_as_xyz
1 x,y,z
_cell_length_a                   28.180(4)
_cell_length_b                   14.880(2)
_cell_length_c                   18.158(3)
_cell_angle_alpha                90
_cell_angle_beta                 124.421(6)
_cell_angle_gamma                90
_cell_volume                     6280.82
loop_
_atom_site_label
_atom_site_type_symbol
_atom_site_fract_x
_atom_site_fract_y
_atom_site_fract_z
N4 N 0.68751(12) 0.45077(18) 0.18935(17)
C47 C 0.65505(14) 0.4459(2) 0.0998(2)
H33 H 0.6571 0.4935 0.0668
C48 C 0.61872(14) 0.3744(2) 0.0538(2)
C49 C 0.61475(15) 0.3041(2) 0.0998(2)
C50 C 0.64770(16) 0.3104(2) 0.1932(2)
H35 H 0.6458 0.2644 0.2277
C51 C 0.68258(16) 0.3835(2) 0.2340(2)
H36 H 0.7044 0.3868 0.2973
C52 C 0.57722(15) 0.2274(2) 0.0509(2)
C53 C 0.57307(15) 0.1529(2) 0.0880(2)
H38 H 0.5970 0.1498 0.1513
C54 C 0.53573(14) 0.0759(2) 0.0417(2)
C55 C 0.53243(15) 0.0078(2) 0.0918(2)
H39 H 0.5547 0.0127 0.1550
Zn3 Zn 0.75266(2) 0.54208(3) 0.25274(3)
C20 C 0.50250(15) 0.0661(2) 0.9487(2)
H18 H 0.5040 0.1111 0.9130
H34 H 0.5964 0.3737 0.9904
H37 H 0.5539 0.2309 0.9876
C10 C 0.99785(16) 0.0656(3) 0.5522(2)
H10 H 0.9968 0.1103 0.5885
N3 N 0.81967(12) 0.45667(19) 0.32185(18)
C37 C 0.82969(16) 0.3991(2) 0.2756(2)
H25 H 0.8129 0.4105 0.2141
C38 C 0.86360(17) 0.3237(2) 0.3142(2)
H26 H 0.8694 0.2837 0.2792
C39 C 0.88938(16) 0.3063(3) 0.4052(2)
C40 C 0.88095(17) 0.3691(3) 0.4530(2)
H27 H 0.8992 0.3616 0.5154
C41 C 0.84623(16) 0.4419(3) 0.4100(2)
H28 H 0.8406 0.4839 0.4438
C42 C 0.92497(17) 0.2272(3) 0.4516(3)
H29 H 0.9457 0.2265 0.5149
C43 C 0.93063(16) 0.1575(3) 0.4133(2)
H30 H 0.9100 0.1585 0.3501
C44 C 0.96607(16) 0.0775(2) 0.4594(2)
C45 C 0.96912(16) 0.0110(3) 0.4088(2)
H31 H 0.9481 0.0181 0.3459
O13 O 0.73868(11) 0.60723(17) 0.15036(16)
O14 O 0.75265(11) 0.63398(16) 0.32714(16)
C24 C 0.70759(17) 0.7184(2) 0.0098(2)
H19 H 0.6786 0.6965 0.0166
O8 O 0.82960(12) 0.60211(17) 0.19527(16)
O9 O 0.86338(12) 0.6966(2) 0.11548(18)
H21 H 0.8666 0.6609 0.1539
C29 C 0.77815(17) 0.6288(2) 0.1440(2)
C30 C 0.76406(16) 0.6906(2) 0.0688(2)
C31 C 0.80724(16) 0.7221(2) 0.0592(2)
Zn1 Zn 0.74734(2) 0.95792(3) 0.74726(3)
O1 O 0.76132(11) 0.89277(17) 0.84964(16)
O2 O 0.67040(12) 0.89789(17) 0.80473(16)
O3 O 0.63662(12) 0.8034(2) 0.88452(18)
H1 H 0.6334 0.8391 0.8461
O4 O 0.74735(11) 0.86602(16) 0.67286(16)
O5 O 0.75546(11) 0.97145(16) 0.59406(16)
O6 O 0.75514(11) 0.92657(15) 0.45691(15)
H2 H 0.7553 0.9617 0.4933
C21 C 0.72185(17) 0.8712(2) 0.8560(2)
C22 C 0.73594(16) 0.8094(2) 0.9312(2)
C23 C 0.69276(16) 0.7779(2) 0.9408(2)
C25 C 0.75164(14) 0.8894(2) 0.6132(2)
C26 C 0.74960(14) 0.8186(2) 0.5521(2)
C27 C 0.75281(14) 0.8398(2) 0.4793(2)
C28 C 0.75338(14) 0.7709(2) 0.4284(2)
H20 H 0.7558 0.7849 0.3796
C32 C 0.79241(17) 0.7816(2) 0.9902(2)
H22 H 0.8214 0.8035 0.9834
O11 O 0.74454(11) 0.52855(16) 0.40594(16)
O12 O 0.74486(11) 0.57343(15) 0.54309(15)
H23 H 0.7447 0.5383 0.5067
C33 C 0.74836(14) 0.6106(2) 0.3868(2)
C34 C 0.75040(14) 0.6814(2) 0.4479(2)
C35 C 0.74719(14) 0.6602(2) 0.5207(2)
C36 C 0.74662(14) 0.7291(2) 0.5716(2)
H24 H 0.7442 0.7151 0.6204
H12 H 0.4036 0.6263 0.0096
H15 H 0.4461 0.7691 0.0124
C24_2 C 0.20759(17) 0.2184(2) 0.0098(2)
H19_2 H 0.1786 0.1965 0.0166
O7 O 0.23868(11) 0.10723(17) 0.15036(16)
O8_2 O 0.32960(12) 0.10211(17) 0.19527(16)
O9_2 O 0.36338(12) 0.1966(2) 0.11548(18)
H21_2 H 0.3666 0.1609 0.1539
C29_2 C 0.27815(17) 0.1288(2) 0.1440(2)
C30_2 C 0.26406(16) 0.1906(2) 0.0688(2)
C31_2 C 0.30724(16) 0.2221(2) 0.0592(2)
C56 C 0.49750(15) 0.9339(2) 0.0513(2)
H40 H 0.4960 0.8889 0.0870
Zn5 Zn 0.25266(2) 0.04208(3) 0.25274(3)
Zn1_2 Zn 0.24734(2) 0.45792(3) 0.74726(3)
O1_2 O 0.26132(11) 0.39277(17) 0.84964(16)
O2_2 O 0.17040(12) 0.39789(17) 0.80473(16)
O3_2 O 0.13662(12) 0.3034(2) 0.88452(18)
H1_2 H 0.1334 0.3391 0.8461
O4_2 O 0.24735(11) 0.36602(16) 0.67286(16)
O5_2 O 0.25546(11) 0.47145(16) 0.59406(16)
O6_2 O 0.25514(11) 0.42657(15) 0.45691(15)
H2_2 H 0.2553 0.4617 0.4933
N1 N 0.18033(12) 0.54333(19) 0.67815(18)
C1 C 0.17031(16) 0.6009(2) 0.7244(2)
H3 H 0.1871 0.5895 0.7859
C2 C 0.13640(17) 0.6763(2) 0.6858(2)
H4 H 0.1306 0.7163 0.7208
C3 C 0.11062(16) 0.6937(3) 0.5948(2)
C4 C 0.11905(17) 0.6309(3) 0.5470(2)
H5 H 0.1008 0.6384 0.4846
C5 C 0.15377(16) 0.5581(3) 0.5900(2)
H6 H 0.1594 0.5161 0.5562
C6 C 0.07503(17) 0.7728(3) 0.5484(3)
H7 H 0.0543 0.7735 0.4851
C7 C 0.06937(16) 0.8425(3) 0.5867(2)
H8 H 0.0900 0.8415 0.6499
C8 C 0.03393(16) 0.9225(2) 0.5406(2)
C9 C 0.03088(16) 0.9890(3) 0.5912(2)
H9 H 0.0519 0.9819 0.6541
N2 N 0.31249(12) 0.54923(18) 0.81065(17)
C11 C 0.34495(14) 0.5541(2) 0.9002(2)
H11 H 0.3429 0.5065 0.9332
C12 C 0.38128(14) 0.6256(2) 0.9462(2)
C13 C 0.38525(15) 0.6959(2) 0.9002(2)
C14 C 0.35230(16) 0.6896(2) 0.8068(2)
H13 H 0.3542 0.7356 0.7723
C15 C 0.31742(16) 0.6165(2) 0.7660(2)
H14 H 0.2956 0.6132 0.7027
C16 C 0.42278(15) 0.7726(2) 0.9491(2)
C17 C 0.42693(15) 0.8471(2) 0.9120(2)
H16 H 0.4030 0.8502 0.8487
C18 C 0.46427(14) 0.9241(2) 0.9583(2)
C19 C 0.46757(15) 0.9922(2) 0.9082(2)
H17 H 0.4453 0.9873 0.8450
C21_2 C 0.22185(17) 0.3712(2) 0.8560(2)
C22_2 C 0.23594(16) 0.3094(2) 0.9312(2)
C23_2 C 0.19276(16) 0.2779(2) 0.9408(2)
C25_2 C 0.25164(14) 0.3894(2) 0.6132(2)
C26_2 C 0.24960(14) 0.3186(2) 0.5521(2)
C27_2 C 0.25281(14) 0.3398(2) 0.4793(2)
C28_2 C 0.25338(14) 0.2709(2) 0.4284(2)
H20_2 H 0.2558 0.2849 0.3796
C32_2 C 0.29241(17) 0.2816(2) 0.9902(2)
H22_2 H 0.3214 0.3035 0.9834
O10 O 0.25265(11) 0.13398(16) 0.32714(16)
O11_2 O 0.24454(11) 0.02855(16) 0.40594(16)
O12_2 O 0.24486(11) 0.07343(15) 0.54309(15)
H23_2 H 0.2447 0.0383 0.5067
C33_2 C 0.24836(14) 0.1106(2) 0.3868(2)
C34_2 C 0.25040(14) 0.1814(2) 0.4479(2)
C35_2 C 0.24719(14) 0.1602(2) 0.5207(2)
C36_2 C 0.24662(14) 0.2291(2) 0.5716(2)
H24_2 H 0.2442 0.2151 0.6204
C46 C 0.00215(16) 0.9344(3) 0.4478(2)
H32 H 0.0032 0.8897 0.4115
N3_2 N 0.18033(12) 0.45667(19) 0.17815(18)
C37_2 C 0.17031(16) 0.3991(2) 0.2244(2)
H25_2 H 0.1871 0.4105 0.2859
C38_2 C 0.13640(17) 0.3237(2) 0.1858(2)
H26_2 H 0.1306 0.2837 0.2208
C39_2 C 0.11062(16) 0.3063(3) 0.0948(2)
C40_2 C 0.11905(17) 0.3691(3) 0.0470(2)
C41_2 C 0.15377(16) 0.4419(3) 0.0900(2)
H28_2 H 0.1594 0.4839 0.0562
C42_2 C 0.07503(17) 0.2272(3) 0.0484(3)
C43_2 C 0.06937(16) 0.1575(3) 0.0867(2)
H30_2 H 0.0900 0.1585 0.1499
C44_2 C 0.03393(16) 0.0775(2) 0.0406(2)
C45_2 C 0.03088(16) 0.0110(3) 0.0912(2)
H31_2 H 0.0519 0.0181 0.1541
Zn2 Zn 0.24734(2) 0.54208(3) 0.24726(3)
O13_2 O 0.26132(11) 0.60723(17) 0.34964(16)
O14_2 O 0.24735(11) 0.63398(16) 0.17286(16)
N5 N 0.31249(12) 0.45077(18) 0.31065(17)
C10_2 C 0.00215(16) 0.0656(3) 0.9478(2)
H10_2 H 0.0032 0.1103 0.9115
H27_2 H 0.1008 0.3616 0.9846
H29_2 H 0.0543 0.2265 0.9851
C20_2 C 0.49750(15) 0.0661(2) 0.5513(2)
H18_2 H 0.4960 0.1111 0.5870
C47_2 C 0.34495(14) 0.4459(2) 0.4002(2)
H33_2 H 0.3429 0.4935 0.4332
C48_2 C 0.38128(14) 0.3744(2) 0.4462(2)
H34_2 H 0.4036 0.3737 0.5096
C49_2 C 0.38525(15) 0.3041(2) 0.4002(2)
C50_2 C 0.35230(16) 0.3104(2) 0.3068(2)
H35_2 H 0.3542 0.2644 0.2723
C51_2 C 0.31742(16) 0.3835(2) 0.2660(2)
H36_2 H 0.2956 0.3868 0.2027
C52_2 C 0.42278(15) 0.2274(2) 0.4491(2)
H37_2 H 0.4461 0.2309 0.5124
C53_2 C 0.42693(15) 0.1529(2) 0.4120(2)
H38_2 H 0.4030 0.1498 0.3487
C54_2 C 0.46427(14) 0.0759(2) 0.4583(2)
C55_2 C 0.46757(15) 0.0078(2) 0.4082(2)
H39_2 H 0.4453 0.0127 0.3450
O6_3 O 0.24486(11) 0.92657(15) 0.04309(15)
H2_3 H 0.2447 0.9617 0.0067
C27_3 C 0.24719(14) 0.8398(2) 0.0207(2)
C28_3 C 0.24662(14) 0.7709(2) 0.0716(2)
H20_3 H 0.2442 0.7849 0.1204
O11_3 O 0.25546(11) 0.52855(16) 0.09406(16)
C33_3 C 0.25164(14) 0.6106(2) 0.1132(2)
C34_3 C 0.24960(14) 0.6814(2) 0.0521(2)
Zn1_3 Zn 0.25266(2) 0.95792(3) 0.75274(3)
O1_3 O 0.23868(11) 0.89277(17) 0.65036(16)
O2_3 O 0.32960(12) 0.89789(17) 0.69527(16)
O3_3 O 0.36338(12) 0.8034(2) 0.61548(18)
H1_3 H 0.3666 0.8391 0.6539
O4_3 O 0.25265(11) 0.86602(16) 0.82714(16)
O5_3 O 0.24454(11) 0.97145(16) 0.90594(16)
C21_3 C 0.27815(17) 0.8712(2) 0.6440(2)
C22_3 C 0.26406(16) 0.8094(2) 0.5688(2)
C23_3 C 0.30724(16) 0.7779(2) 0.5592(2)
C24_3 C 0.29241(17) 0.7184(2) 0.4902(2)
H19_3 H 0.3214 0.6965 0.4834
C25_3 C 0.24836(14) 0.8894(2) 0.8868(2)
C26_3 C 0.25040(14) 0.8186(2) 0.9479(2)
O8_3 O 0.17040(12) 0.60211(17) 0.30473(16)
O9_3 O 0.13662(12) 0.6966(2) 0.38452(18)
H21_3 H 0.1334 0.6609 0.3461
C29_3 C 0.22185(17) 0.6288(2) 0.3560(2)
C30_3 C 0.23594(16) 0.6906(2) 0.4312(2)
C31_3 C 0.19276(16) 0.7221(2) 0.4408(2)
C32_3 C 0.20759(17) 0.7816(2) 0.5098(2)
H22_3 H 0.1786 0.8035 0.5166
O12_3 O 0.25514(11) 0.57343(15) 0.95691(15)
H23_3 H 0.2553 0.5383 0.9933
C35_3 C 0.25281(14) 0.6602(2) 0.9793(2)
C36_3 C 0.25338(14) 0.7291(2) 0.9284(2)
H24_3 H 0.2558 0.7151 0.8796
O6_4 O 0.74486(11) 0.42657(15) 0.04309(15)
H2_4 H 0.7447 0.4617 0.0067
H5_2 H 0.8992 0.6384 0.0154
H7_2 H 0.9457 0.7735 0.0149
C27_4 C 0.74719(14) 0.3398(2) 0.0207(2)
C28_4 C 0.74662(14) 0.2709(2) 0.0716(2)
H20_4 H 0.7442 0.2849 0.1204
O10_2 O 0.74735(11) 0.13398(16) 0.17286(16)
O11_4 O 0.75546(11) 0.02855(16) 0.09406(16)
C33_4 C 0.75164(14) 0.1106(2) 0.1132(2)
C34_4 C 0.74960(14) 0.1814(2) 0.0521(2)
C46_2 C 0.99785(16) 0.9344(3) 0.0522(2)
H32_2 H 0.9968 0.8897 0.0885
Zn4 Zn 0.74734(2) 0.04208(3) 0.24726(3)
Zn1_4 Zn 0.75266(2) 0.45792(3) 0.75274(3)
O1_4 O 0.73868(11) 0.39277(17) 0.65036(16)
O2_4 O 0.82960(12) 0.39789(17) 0.69527(16)
O3_4 O 0.86338(12) 0.3034(2) 0.61548(18)
H1_4 H 0.8666 0.3391 0.6539
O4_4 O 0.75265(11) 0.36602(16) 0.82714(16)
O5_4 O 0.74454(11) 0.47145(16) 0.90594(16)
N1_2 N 0.81967(12) 0.54333(19) 0.82185(18)
C1_2 C 0.82969(16) 0.6009(2) 0.7756(2)
H3_2 H 0.8129 0.5895 0.7141
C2_2 C 0.86360(17) 0.6763(2) 0.8142(2)
H4_2 H 0.8694 0.7163 0.7792
C3_2 C 0.88938(16) 0.6937(3) 0.9052(2)
C4_2 C 0.88095(17) 0.6309(3) 0.9530(2)
C5_2 C 0.84623(16) 0.5581(3) 0.9100(2)
H6_2 H 0.8406 0.5161 0.9438
C6_2 C 0.92497(17) 0.7728(3) 0.9516(3)
C7_2 C 0.93063(16) 0.8425(3) 0.9133(2)
H8_2 H 0.9100 0.8415 0.8501
C8_2 C 0.96607(16) 0.9225(2) 0.9594(2)
C9_2 C 0.96912(16) 0.9890(3) 0.9088(2)
H9_2 H 0.9481 0.9819 0.8459
N2_2 N 0.68751(12) 0.54923(18) 0.68935(17)
C11_2 C 0.65505(14) 0.5541(2) 0.5998(2)
H11_2 H 0.6571 0.5065 0.5668
C12_2 C 0.61872(14) 0.6256(2) 0.5538(2)
H12_2 H 0.5964 0.6263 0.4904
C13_2 C 0.61475(15) 0.6959(2) 0.5998(2)
C14_2 C 0.64770(16) 0.6896(2) 0.6932(2)
H13_2 H 0.6458 0.7356 0.7277
C15_2 C 0.68258(16) 0.6165(2) 0.7340(2)
H14_2 H 0.7044 0.6132 0.7973
C16_2 C 0.57722(15) 0.7726(2) 0.5509(2)
H15_2 H 0.5539 0.7691 0.4876
C17_2 C 0.57307(15) 0.8471(2) 0.5880(2)
H16_2 H 0.5970 0.8502 0.6513
C18_2 C 0.53573(14) 0.9241(2) 0.5417(2)
C19_2 C 0.53243(15) 0.9922(2) 0.5918(2)
H17_2 H 0.5547 0.9873 0.6550
C21_4 C 0.77815(17) 0.3712(2) 0.6440(2)
C22_4 C 0.76406(16) 0.3094(2) 0.5688(2)
C23_4 C 0.80724(16) 0.2779(2) 0.5592(2)
C24_4 C 0.79241(17) 0.2184(2) 0.4902(2)
H19_4 H 0.8214 0.1965 0.4834
C25_4 C 0.74836(14) 0.3894(2) 0.8868(2)
C26_4 C 0.75040(14) 0.3186(2) 0.9479(2)
O7_2 O 0.76132(11) 0.10723(17) 0.34964(16)
O8_4 O 0.67040(12) 0.10211(17) 0.30473(16)
O9_4 O 0.63662(12) 0.1966(2) 0.38452(18)
H21_4 H 0.6334 0.1609 0.3461
C29_4 C 0.72185(17) 0.1288(2) 0.3560(2)
C30_4 C 0.73594(16) 0.1906(2) 0.4312(2)
C31_4 C 0.69276(16) 0.2221(2) 0.4408(2)
C32_4 C 0.70759(17) 0.2816(2) 0.5098(2)
H22_4 H 0.6786 0.3035 0.5166
O12_4 O 0.75514(11) 0.07343(15) 0.95691(15)
H23_4 H 0.7553 0.0383 0.9933
C35_4 C 0.75281(14) 0.1602(2) 0.9793(2)
C36_4 C 0.75338(14) 0.2291(2) 0.9284(2)
H24_4 H 0.7558 0.2151 0.8796
C56_2 C 0.50250(15) 0.9339(2) 0.4487(2)
H40_2 H 0.5040 0.8889 0.4130
N4_2 N 0.18751(12) 0.95077(18) 0.18935(17)
C47_3 C 0.15505(14) 0.9459(2) 0.0998(2)
H33_3 H 0.1571 0.9935 0.0668
C48_3 C 0.11872(14) 0.8744(2) 0.0538(2)
C49_3 C 0.11475(15) 0.8041(2) 0.0998(2)
C50_3 C 0.14770(16) 0.8104(2) 0.1932(2)
H35_3 H 0.1458 0.7644 0.2277
C51_3 C 0.18258(16) 0.8835(2) 0.2340(2)
H36_3 H 0.2044 0.8868 0.2973
C52_3 C 0.07722(15) 0.7274(2) 0.0509(2)
C53_3 C 0.07307(15) 0.6529(2) 0.0880(2)
H38_3 H 0.0970 0.6498 0.1513
C54_3 C 0.03573(14) 0.5759(2) 0.0417(2)
C55_3 C 0.03243(15) 0.5078(2) 0.0918(2)
H39_3 H 0.0547 0.5127 0.1550
N1_3 N 0.68033(12) 0.04333(19) 0.67815(18)
C1_3 C 0.67031(16) 0.1009(2) 0.7244(2)
H3_3 H 0.6871 0.0895 0.7859
C2_3 C 0.63640(17) 0.1763(2) 0.6858(2)
H4_3 H 0.6306 0.2163 0.7208
C3_3 C 0.61062(16) 0.1937(3) 0.5948(2)
C4_3 C 0.61905(17) 0.1309(3) 0.5470(2)
H5_3 H 0.6008 0.1384 0.4846
C5_3 C 0.65377(16) 0.0581(3) 0.5900(2)
H6_3 H 0.6594 0.0161 0.5562
C6_3 C 0.57503(17) 0.2728(3) 0.5484(3)
H7_3 H 0.5543 0.2735 0.4851
C7_3 C 0.56937(16) 0.3425(3) 0.5867(2)
H8_3 H 0.5900 0.3415 0.6499
C8_3 C 0.53393(16) 0.4225(2) 0.5406(2)
C9_3 C 0.53088(16) 0.4890(3) 0.5912(2)
H9_3 H 0.5519 0.4819 0.6541
C10_3 C 0.49785(16) 0.5656(3) 0.5522(2)
H10_3 H 0.4968 0.6103 0.5885
N2_3 N 0.81249(12) 0.04923(18) 0.81065(17)
C11_3 C 0.84495(14) 0.0541(2) 0.9002(2)
H11_3 H 0.8429 0.0065 0.9332
C12_3 C 0.88128(14) 0.1256(2) 0.9462(2)
C13_3 C 0.88525(15) 0.1959(2) 0.9002(2)
C14_3 C 0.85230(16) 0.1896(2) 0.8068(2)
H13_3 H 0.8542 0.2356 0.7723
C15_3 C 0.81742(16) 0.1165(2) 0.7660(2)
H14_3 H 0.7956 0.1132 0.7027
C16_3 C 0.92278(15) 0.2726(2) 0.9491(2)
C17_3 C 0.92693(15) 0.3471(2) 0.9120(2)
H16_3 H 0.9030 0.3502 0.8487
C18_3 C 0.96427(14) 0.4241(2) 0.9583(2)
C19_3 C 0.96757(15) 0.4922(2) 0.9082(2)
H17_3 H 0.9453 0.4873 0.8450
N3_3 N 0.31967(12) 0.95667(19) 0.32185(18)
C37_3 C 0.32969(16) 0.8991(2) 0.2756(2)
H25_3 H 0.3129 0.9105 0.2141
C38_3 C 0.36360(17) 0.8237(2) 0.3142(2)
H26_3 H 0.3694 0.7837 0.2792
C39_3 C 0.38938(16) 0.8063(3) 0.4052(2)
C40_3 C 0.38095(17) 0.8691(3) 0.4530(2)
H27_3 H 0.3992 0.8616 0.5154
C41_3 C 0.34623(16) 0.9419(3) 0.4100(2)
H28_3 H 0.3406 0.9839 0.4438
C42_3 C 0.42497(17) 0.7272(3) 0.4516(3)
H29_3 H 0.4457 0.7265 0.5149
C43_3 C 0.43063(16) 0.6575(3) 0.4133(2)
H30_3 H 0.4100 0.6585 0.3501
C44_3 C 0.46607(16) 0.5775(2) 0.4594(2)
C45_3 C 0.46912(16) 0.5110(3) 0.4088(2)
H31_3 H 0.4481 0.5181 0.3459
C46_3 C 0.50215(16) 0.4344(3) 0.4478(2)
H32_3 H 0.5032 0.3897 0.4115
C20_3 C 0.00250(15) 0.5661(2) 0.9487(2)
H18_3 H 0.0040 0.6111 0.9130
H34_3 H 0.0964 0.8737 0.9904
H37_3 H 0.0539 0.7309 0.9876
H12_3 H 0.9036 0.1263 0.0096
H15_3 H 0.9461 0.2691 0.0124
C56_3 C 0.99750(15) 0.4339(2) 0.0513(2)
H40_3 H 0.9960 0.3889 0.0870
H5_4 H 0.3992 0.1384 0.0154
H7_4 H 0.4457 0.2735 0.0149
N3_4 N 0.68033(12) 0.95667(19) 0.17815(18)
C37_4 C 0.67031(16) 0.8991(2) 0.2244(2)
H25_4 H 0.6871 0.9105 0.2859
C38_4 C 0.63640(17) 0.8237(2) 0.1858(2)
H26_4 H 0.6306 0.7837 0.2208
C39_4 C 0.61062(16) 0.8063(3) 0.0948(2)
C40_4 C 0.61905(17) 0.8691(3) 0.0470(2)
C41_4 C 0.65377(16) 0.9419(3) 0.0900(2)
H28_4 H 0.6594 0.9839 0.0562
C42_4 C 0.57503(17) 0.7272(3) 0.0484(3)
C43_4 C 0.56937(16) 0.6575(3) 0.0867(2)
H30_4 H 0.5900 0.6585 0.1499
C44_4 C 0.53393(16) 0.5775(2) 0.0406(2)
C45_4 C 0.53088(16) 0.5110(3) 0.0912(2)
H31_4 H 0.5519 0.5181 0.1541
C46_4 C 0.49785(16) 0.4344(3) 0.0522(2)
H32_4 H 0.4968 0.3897 0.0885
N5_2 N 0.81249(12) 0.95077(18) 0.31065(17)
C20_4 C 0.99750(15) 0.5661(2) 0.5513(2)
H18_4 H 0.9960 0.6111 0.5870
C47_4 C 0.84495(14) 0.9459(2) 0.4002(2)
H33_4 H 0.8429 0.9935 0.4332
C48_4 C 0.88128(14) 0.8744(2) 0.4462(2)
H34_4 H 0.9036 0.8737 0.5096
C49_4 C 0.88525(15) 0.8041(2) 0.4002(2)
C50_4 C 0.85230(16) 0.8104(2) 0.3068(2)
H35_4 H 0.8542 0.7644 0.2723
C51_4 C 0.81742(16) 0.8835(2) 0.2660(2)
H36_4 H 0.7956 0.8868 0.2027
C52_4 C 0.92278(15) 0.7274(2) 0.4491(2)
H37_4 H 0.9461 0.7309 0.5124
C53_4 C 0.92693(15) 0.6529(2) 0.4120(2)
H38_4 H 0.9030 0.6498 0.3487
C54_4 C 0.96427(14) 0.5759(2) 0.4583(2)
C55_4 C 0.96757(15) 0.5078(2) 0.4082(2)
H39_4 H 0.9453 0.5127 0.3450
N1_4 N 0.31967(12) 0.04333(19) 0.82185(18)
C1_4 C 0.32969(16) 0.1009(2) 0.7756(2)
H3_4 H 0.3129 0.0895 0.7141
C2_4 C 0.36360(17) 0.1763(2) 0.8142(2)
H4_4 H 0.3694 0.2163 0.7792
C3_4 C 0.38938(16) 0.1937(3) 0.9052(2)
C4_4 C 0.38095(17) 0.1309(3) 0.9530(2)
C5_4 C 0.34623(16) 0.0581(3) 0.9100(2)
H6_4 H 0.3406 0.0161 0.9438
C6_4 C 0.42497(17) 0.2728(3) 0.9516(3)
C7_4 C 0.43063(16) 0.3425(3) 0.9133(2)
H8_4 H 0.4100 0.3415 0.8501
C8_4 C 0.46607(16) 0.4225(2) 0.9594(2)
C9_4 C 0.46912(16) 0.4890(3) 0.9088(2)
H9_4 H 0.4481 0.4819 0.8459
C10_4 C 0.50215(16) 0.5656(3) 0.9478(2)
H10_4 H 0.5032 0.6103 0.9115
N2_4 N 0.18751(12) 0.04923(18) 0.68935(17)
C11_4 C 0.15505(14) 0.0541(2) 0.5998(2)
H11_4 H 0.1571 0.0065 0.5668
C12_4 C 0.11872(14) 0.1256(2) 0.5538(2)
H12_4 H 0.0964 0.1263 0.4904
C13_4 C 0.11475(15) 0.1959(2) 0.5998(2)
C14_4 C 0.14770(16) 0.1896(2) 0.6932(2)
H13_4 H 0.1458 0.2356 0.7277
C15_4 C 0.18258(16) 0.1165(2) 0.7340(2)
H14_4 H 0.2044 0.1132 0.7973
C16_4 C 0.07722(15) 0.2726(2) 0.5509(2)
H15_4 H 0.0539 0.2691 0.4876
C17_4 C 0.07307(15) 0.3471(2) 0.5880(2)
H16_4 H 0.0970 0.3502 0.6513
C18_4 C 0.03573(14) 0.4241(2) 0.5417(2)
C19_4 C 0.03243(15) 0.4922(2) 0.5918(2)
H17_4 H 0.0547 0.4873 0.6550
H27_4 H 0.6008 0.8616 0.9846
H29_4 H 0.5543 0.7265 0.9851
C56_4 C 0.00250(15) 0.4339(2) 0.4487(2)
H40_4 H 0.0040 0.3889 0.4130
loop_
_geom_bond_atom_site_label_1
_geom_bond_atom_site_label_2
_geom_bond_site_symmetry_1
_geom_bond_site_symmetry_2
N4 C47 1_555 1_555
C47 H33 1_555 1_555
C48 C47 1_555 1_555
C49 C48 1_555 1_555
C50 C49 1_555 1_555
H35 C50 1_555 1_555
C51 N4 1_555 1_555
H36 C51 1_555 1_555
C52 C49 1_555 1_555
C53 C52 1_555 1_555
H38 C53 1_555 1_555
C55 C54 1_555 1_555
H39 C55 1_555 1_555
Zn3 N4 1_555 1_555
C50 C51 1_555 1_555
C53 C54 1_555 1_555
H18 C20 1_555 1_555
H10 C10 1_555 1_555
N3 C37 1_555 1_555
C37 H25 1_555 1_555
C38 C37 1_555 1_555
H26 C38 1_555 1_555
C39 C38 1_555 1_555
C40 C39 1_555 1_555
H27 C40 1_555 1_555
C41 N3 1_555 1_555
H28 C41 1_555 1_555
C42 C39 1_555 1_555
H29 C42 1_555 1_555
C43 C42 1_555 1_555
H30 C43 1_555 1_555
C44 C10 1_555 1_555
C45 C44 1_555 1_555
H31 C45 1_555 1_555
Zn3 N3 1_555 1_555
O13 Zn3 1_555 1_555
O14 Zn3 1_555 1_555
C40 C41 1_555 1_555
C43 C44 1_555 1_555
H19 C24 1_555 1_555
O13 C29 1_555 1_555
O8 C29 1_555 1_555
O9 H21 1_555 1_555
C29 C30 1_555 1_555
C30 C24 1_555 1_555
C31 O9 1_555 1_555
C30 C31 1_555 1_555
Zn1 O1 1_555 1_555
O1 C21 1_555 1_555
O2 C21 1_555 1_555
O3 H1 1_555 1_555
O4 Zn1 1_555 1_555
O5 C25 1_555 1_555
O6 H2 1_555 1_555
C21 C22 1_555 1_555
C22 C23 1_555 1_555
C23 O3 1_555 1_555
C25 O4 1_555 1_555
C26 C25 1_555 1_555
C27 O6 1_555 1_555
C28 C27 1_555 1_555
H20 C28 1_555 1_555
C32 C22 1_555 1_555
H22 C32 1_555 1_555
O14 C33 1_555 1_555
O11 C33 1_555 1_555
O12 H23 1_555 1_555
C33 C34 1_555 1_555
C34 C28 1_555 1_555
C35 O12 1_555 1_555
C36 C26 1_555 1_555
H24 C36 1_555 1_555
C26 C27 1_555 1_555
C34 C35 1_555 1_555
C35 C36 1_555 1_555
H19_2 C24_2 1_555 1_555
O7 C29_2 1_555 1_555
O8_2 C29_2 1_555 1_555
O9_2 H21_2 1_555 1_555
C29_2 C30_2 1_555 1_555
C30_2 C24_2 1_555 1_555
C31_2 O9_2 1_555 1_555
H40 C56 1_555 1_555
Zn5 O7 1_555 1_555
C30_2 C31_2 1_555 1_555
Zn1_2 O1_2 1_555 1_555
O1_2 C21_2 1_555 1_555
O2_2 C21_2 1_555 1_555
O3_2 H1_2 1_555 1_555
O4_2 Zn1_2 1_555 1_555
O5_2 C25_2 1_555 1_555
O6_2 H2_2 1_555 1_555
N1 Zn1_2 1_555 1_555
C1 N1 1_555 1_555
H3 C1 1_555 1_555
C2 C1 1_555 1_555
H4 C2 1_555 1_555
C3 C2 1_555 1_555
C4 C3 1_555 1_555
H5 C4 1_555 1_555
C5 N1 1_555 1_555
H6 C5 1_555 1_555
C6 C3 1_555 1_555
H7 C6 1_555 1_555
C7 C6 1_555 1_555
H8 C7 1_555 1_555
C8 C7 1_555 1_555
C9 C8 1_555 1_555
H9 C9 1_555 1_555
N2 Zn1_2 1_555 1_555
C11 N2 1_555 1_555
H11 C11 1_555 1_555
C12 C11 1_555 1_555
C13 C12 1_555 1_555
C14 C13 1_555 1_555
H13 C14 1_555 1_555
C15 N2 1_555 1_555
H14 C15 1_555 1_555
C16 C13 1_555 1_555
C17 C16 1_555 1_555
H16 C17 1_555 1_555
C18 C17 1_555 1_555
C19 C18 1_555 1_555
H17 C19 1_555 1_555
C21_2 C22_2 1_555 1_555
C22_2 C23_2 1_555 1_555
C23_2 O3_2 1_555 1_555
C25_2 O4_2 1_555 1_555
C26_2 C25_2 1_555 1_555
C27_2 O6_2 1_555 1_555
C28_2 C27_2 1_555 1_555
H20_2 C28_2 1_555 1_555
C32_2 C22_2 1_555 1_555
H22_2 C32_2 1_555 1_555
O10 C33_2 1_555 1_555
O11_2 C33_2 1_555 1_555
O12_2 H23_2 1_555 1_555
C33_2 C34_2 1_555 1_555
C34_2 C28_2 1_555 1_555
C35_2 O12_2 1_555 1_555
C36_2 C26_2 1_555 1_555
H24_2 C36_2 1_555 1_555
C46 C8 1_555 1_555
H32 C46 1_555 1_555
Zn5 O10 1_555 1_555
C4 C5 1_555 1_555
C14 C15 1_555 1_555
C26_2 C27_2 1_555 1_555
C34_2 C35_2 1_555 1_555
C35_2 C36_2 1_555 1_555
N3_2 C37_2 1_555 1_555
C37_2 H25_2 1_555 1_555
C38_2 C37_2 1_555 1_555
H26_2 C38_2 1_555 1_555
C39_2 C38_2 1_555 1_555
C40_2 C39_2 1_555 1_555
C41_2 N3_2 1_555 1_555
H28_2 C41_2 1_555 1_555
C42_2 C39_2 1_555 1_555
C43_2 C42_2 1_555 1_555
H30_2 C43_2 1_555 1_555
C45_2 C44_2 1_555 1_555
H31_2 C45_2 1_555 1_555
Zn2 N3_2 1_555 1_555
O13_2 Zn2 1_555 1_555
O14_2 Zn2 1_555 1_555
N5 Zn2 1_555 1_555
C40_2 C41_2 1_555 1_555
C43_2 C44_2 1_555 1_555
H10_2 C10_2 1_555 1_555
H18_2 C20_2 1_555 1_555
N5 C47_2 1_555 1_555
C47_2 H33_2 1_555 1_555
C48_2 C47_2 1_555 1_555
H34_2 C48_2 1_555 1_555
C49_2 C48_2 1_555 1_555
C50_2 C49_2 1_555 1_555
H35_2 C50_2 1_555 1_555
C51_2 N5 1_555 1_555
H36_2 C51_2 1_555 1_555
C52_2 C49_2 1_555 1_555
H37_2 C52_2 1_555 1_555
C53_2 C52_2 1_555 1_555
H38_2 C53_2 1_555 1_555
C54_2 C20_2 1_555 1_555
C55_2 C54_2 1_555 1_555
H39_2 C55_2 1_555 1_555
C50_2 C51_2 1_555 1_555
C53_2 C54_2 1_555 1_555
O6_3 H2_3 1_555 1_555
C27_3 O6_3 1_555 1_555
C28_3 C27_3 1_555 1_555
H20_3 C28_3 1_555 1_555
O14_2 C33_3 1_555 1_555
O11_3 C33_3 1_555 1_555
C33_3 C34_3 1_555 1_555
C34_3 C28_3 1_555 1_555
Zn1_3 O1_3 1_555 1_555
O1_3 C21_3 1_555 1_555
O2_3 C21_3 1_555 1_555
O3_3 H1_3 1_555 1_555
O4_3 Zn1_3 1_555 1_555
O5_3 C25_3 1_555 1_555
C21_3 C22_3 1_555 1_555
C22_3 C23_3 1_555 1_555
C23_3 O3_3 1_555 1_555
C24_3 C23_3 1_555 1_555
H19_3 C24_3 1_555 1_555
C25_3 O4_3 1_555 1_555
C26_3 C25_3 1_555 1_555
O13_2 C29_3 1_555 1_555
O8_3 C29_3 1_555 1_555
O9_3 H21_3 1_555 1_555
C29_3 C30_3 1_555 1_555
C30_3 C24_3 1_555 1_555
C31_3 O9_3 1_555 1_555
C32_3 C22_3 1_555 1_555
H22_3 C32_3 1_555 1_555
O12_3 H23_3 1_555 1_555
C35_3 O12_3 1_555 1_555
C36_3 C26_3 1_555 1_555
H24_3 C36_3 1_555 1_555
C30_3 C31_3 1_555 1_555
C31_3 C32_3 1_555 1_555
C35_3 C36_3 1_555 1_555
O6_4 H2_4 1_555 1_555
C27_4 O6_4 1_555 1_555
C28_4 C27_4 1_555 1_555
H20_4 C28_4 1_555 1_555
O10_2 C33_4 1_555 1_555
O11_4 C33_4 1_555 1_555
C33_4 C34_4 1_555 1_555
C34_4 C28_4 1_555 1_555
H32_2 C46_2 1_555 1_555
Zn4 O10_2 1_555 1_555
Zn1_4 O1_4 1_555 1_555
O1_4 C21_4 1_555 1_555
O2_4 C21_4 1_555 1_555
O3_4 H1_4 1_555 1_555
O4_4 Zn1_4 1_555 1_555
O5_4 C25_4 1_555 1_555
N1_2 Zn1_4 1_555 1_555
C1_2 N1_2 1_555 1_555
H3_2 C1_2 1_555 1_555
C2_2 C1_2 1_555 1_555
H4_2 C2_2 1_555 1_555
C3_2 C2_2 1_555 1_555
C4_2 C3_2 1_555 1_555
C5_2 N1_2 1_555 1_555
H6_2 C5_2 1_555 1_555
C6_2 C3_2 1_555 1_555
C7_2 C6_2 1_555 1_555
H8_2 C7_2 1_555 1_555
C8_2 C7_2 1_555 1_555
C9_2 C8_2 1_555 1_555
H9_2 C9_2 1_555 1_555
N2_2 Zn1_4 1_555 1_555
C11_2 N2_2 1_555 1_555
H11_2 C11_2 1_555 1_555
C12_2 C11_2 1_555 1_555
H12_2 C12_2 1_555 1_555
C13_2 C12_2 1_555 1_555
C14_2 C13_2 1_555 1_555
H13_2 C14_2 1_555 1_555
C15_2 N2_2 1_555 1_555
H14_2 C15_2 1_555 1_555
C16_2 C13_2 1_555 1_555
H15_2 C16_2 1_555 1_555
C17_2 C16_2 1_555 1_555
H16_2 C17_2 1_555 1_555
C18_2 C17_2 1_555 1_555
C19_2 C18_2 1_555 1_555
H17_2 C19_2 1_555 1_555
C21_4 C22_4 1_555 1_555
C22_4 C23_4 1_555 1_555
C23_4 O3_4 1_555 1_555
C24_4 C23_4 1_555 1_555
H19_4 C24_4 1_555 1_555
C25_4 O4_4 1_555 1_555
C26_4 C25_4 1_555 1_555
O7_2 C29_4 1_555 1_555
O8_4 C29_4 1_555 1_555
O9_4 H21_4 1_555 1_555
C29_4 C30_4 1_555 1_555
C30_4 C24_4 1_555 1_555
C31_4 O9_4 1_555 1_555
C32_4 C22_4 1_555 1_555
H22_4 C32_4 1_555 1_555
O12_4 H23_4 1_555 1_555
C35_4 O12_4 1_555 1_555
C36_4 C26_4 1_555 1_555
H24_4 C36_4 1_555 1_555
C56_2 C18_2 1_555 1_555
H40_2 C56_2 1_555 1_555
Zn4 O7_2 1_555 1_555
C4_2 C5_2 1_555 1_555
C14_2 C15_2 1_555 1_555
C30_4 C31_4 1_555 1_555
C31_4 C32_4 1_555 1_555
C35_4 C36_4 1_555 1_555
N4_2 C47_3 1_555 1_555
C47_3 H33_3 1_555 1_555
C48_3 C47_3 1_555 1_555
C49_3 C48_3 1_555 1_555
C50_3 C49_3 1_555 1_555
H35_3 C50_3 1_555 1_555
C51_3 N4_2 1_555 1_555
H36_3 C51_3 1_555 1_555
C52_3 C49_3 1_555 1_555
C53_3 C52_3 1_555 1_555
H38_3 C53_3 1_555 1_555
C55_3 C54_3 1_555 1_555
H39_3 C55_3 1_555 1_555
C50_3 C51_3 1_555 1_555
C53_3 C54_3 1_555 1_555
C1_3 N1_3 1_555 1_555
H3_3 C1_3 1_555 1_555
C2_3 C1_3 1_555 1_555
H4_3 C2_3 1_555 1_555
C3_3 C2_3 1_555 1_555
C4_3 C3_3 1_555 1_555
H5_3 C4_3 1_555 1_555
C5_3 N1_3 1_555 1_555
H6_3 C5_3 1_555 1_555
C6_3 C3_3 1_555 1_555
H7_3 C6_3 1_555 1_555
C7_3 C6_3 1_555 1_555
H8_3 C7_3 1_555 1_555
C8_3 C7_3 1_555 1_555
C9_3 C8_3 1_555 1_555
H9_3 C9_3 1_555 1_555
C10_3 C9_3 1_555 1_555
H10_3 C10_3 1_555 1_555
C11_3 N2_3 1_555 1_555
H11_3 C11_3 1_555 1_555
C12_3 C11_3 1_555 1_555
C13_3 C12_3 1_555 1_555
C14_3 C13_3 1_555 1_555
H13_3 C14_3 1_555 1_555
C15_3 N2_3 1_555 1_555
H14_3 C15_3 1_555 1_555
C16_3 C13_3 1_555 1_555
C17_3 C16_3 1_555 1_555
H16_3 C17_3 1_555 1_555
C18_3 C17_3 1_555 1_555
C19_3 C18_3 1_555 1_555
H17_3 C19_3 1_555 1_555
N3_3 C37_3 1_555 1_555
C37_3 H25_3 1_555 1_555
C38_3 C37_3 1_555 1_555
H26_3 C38_3 1_555 1_555
C39_3 C38_3 1_555 1_555
C40_3 C39_3 1_555 1_555
H27_3 C40_3 1_555 1_555
C41_3 N3_3 1_555 1_555
H28_3 C41_3 1_555 1_555
C42_3 C39_3 1_555 1_555
H29_3 C42_3 1_555 1_555
C43_3 C42_3 1_555 1_555
H30_3 C43_3 1_555 1_555
C44_3 C10_3 1_555 1_555
C45_3 C44_3 1_555 1_555
H31_3 C45_3 1_555 1_555
C46_3 C8_3 1_555 1_555
H32_3 C46_3 1_555 1_555
C4_3 C5_3 1_555 1_555
C14_3 C15_3 1_555 1_555
C40_3 C41_3 1_555 1_555
C43_3 C44_3 1_555 1_555
C45_3 C46_3 1_555 1_555
H18_3 C20_3 1_555 1_555
H40_3 C56_3 1_555 1_555
N3_4 C37_4 1_555 1_555
C37_4 H25_4 1_555 1_555
C38_4 C37_4 1_555 1_555
H26_4 C38_4 1_555 1_555
C39_4 C38_4 1_555 1_555
C40_4 C39_4 1_555 1_555
C41_4 N3_4 1_555 1_555
H28_4 C41_4 1_555 1_555
C42_4 C39_4 1_555 1_555
C43_4 C42_4 1_555 1_555
H30_4 C43_4 1_555 1_555
C45_4 C44_4 1_555 1_555
H31_4 C45_4 1_555 1_555
H32_4 C46_4 1_555 1_555
C40_4 C41_4 1_555 1_555
C43_4 C44_4 1_555 1_555
C45_4 C46_4 1_555 1_555
H18_4 C20_4 1_555 1_555
N5_2 C47_4 1_555 1_555
C47_4 H33_4 1_555 1_555
C48_4 C47_4 1_555 1_555
H34_4 C48_4 1_555 1_555
C49_4 C48_4 1_555 1_555
C50_4 C49_4 1_555 1_555
H35_4 C50_4 1_555 1_555
C51_4 N5_2 1_555 1_555
H36_4 C51_4 1_555 1_555
C52_4 C49_4 1_555 1_555
H37_4 C52_4 1_555 1_555
C53_4 C52_4 1_555 1_555
H38_4 C53_4 1_555 1_555
C54_4 C20_4 1_555 1_555
C55_4 C54_4 1_555 1_555
H39_4 C55_4 1_555 1_555
C50_4 C51_4 1_555 1_555
C53_4 C54_4 1_555 1_555
C1_4 N1_4 1_555 1_555
H3_4 C1_4 1_555 1_555
C2_4 C1_4 1_555 1_555
H4_4 C2_4 1_555 1_555
C3_4 C2_4 1_555 1_555
C4_4 C3_4 1_555 1_555
C5_4 N1_4 1_555 1_555
H6_4 C5_4 1_555 1_555
C6_4 C3_4 1_555 1_555
C7_4 C6_4 1_555 1_555
H8_4 C7_4 1_555 1_555
C8_4 C7_4 1_555 1_555
C9_4 C8_4 1_555 1_555
H9_4 C9_4 1_555 1_555
C10_4 C9_4 1_555 1_555
H10_4 C10_4 1_555 1_555
C11_4 N2_4 1_555 1_555
H11_4 C11_4 1_555 1_555
C12_4 C11_4 1_555 1_555
H12_4 C12_4 1_555 1_555
C13_4 C12_4 1_555 1_555
C14_4 C13_4 1_555 1_555
H13_4 C14_4 1_555 1_555
C15_4 N2_4 1_555 1_555
H14_4 C15_4 1_555 1_555
C16_4 C13_4 1_555 1_555
H15_4 C16_4 1_555 1_555
C17_4 C16_4 1_555 1_555
H16_4 C17_4 1_555 1_555
C18_4 C17_4 1_555 1_555
C19_4 C18_4 1_555 1_555
H17_4 C19_4 1_555 1_555
C56_4 C18_4 1_555 1_555
H40_4 C56_4 1_555 1_555
C4_4 C5_4 1_555 1_555
C14_4 C15_4 1_555 1_555

#END
