
###############################################################################
#
# This file contains modified crystal structure data generated from the
# MOF subset of the Cambridge Structural Database (CSD) v543 
# hosted by the Cambridge Crystallographic Data Centre (CCDC).
#
# This work is licensed under the Creative Commons
# Attribution-NonCommercial-ShareAlike 4.0 International License.
# To view a copy of this license, visit
# http://creativecommons.org/licenses/by-nc-sa/4.0/
# or send a letter to
# Creative Commons, PO Box 1866, Mountain View, CA 94042, USA.
#
# CIF created using the CSD Python API on 29 September 2022
# The structure has been converted into the P1 space group
# The structure has a 3D framework
# The original CSD entry NUHGOP is in the orthorhombic crystal system
# The original CSD entry NUHGOP is in a Sohncke space group
# The framework has been calculated to contain at least 10.0% void space
# The void calculation uses a probe of radius 1.32A, grid spacing 0.4
#
###############################################################################

data_NUHGOP
_chemical_formula_moiety         '(C48 H48 N6 O20 Zn4)n'
_symmetry_cell_setting           triclinic
_symmetry_space_group_name_H-M   'P 1'
_symmetry_Int_Tables_number      1
_space_group_name_Hall           'P 1'
loop_
_symmetry_equiv_pos_site_id
_symmetry_equiv_pos_as_xyz
1 x,y,z
_cell_length_a                   11.203(5)
_cell_length_b                   11.394(5)
_cell_length_c                   14.313(5)
_cell_angle_alpha                90
_cell_angle_beta                 90
_cell_angle_gamma                90
_cell_volume                     1827.01
loop_
_atom_site_label
_atom_site_type_symbol
_atom_site_fract_x
_atom_site_fract_y
_atom_site_fract_z
N2 N 0.3742(4) 0.0610(4) 0.2082(3)
C11 C 0.5023(5) 0.0674(6) 0.1916(6)
H8 H 0.537728 0.135584 0.224328
H9 H 0.519729 0.073858 0.124029
C12 C 0.2959(5) 0.1556(5) 0.1858(5)
H10 H 0.335675 0.230367 0.199028
H11 H 0.223210 0.149490 0.223674
H12 H 0.274834 0.151926 0.119439
Zn1 Zn 0.16496(4) 0.81013(4) 0.33888(3)
O1 O 0.2822(3) 0.7532(2) 0.4284(2)
O2 O 0.4104(3) 0.3080(3) 0.7594(2)
O3 O 0.2317(3) 0.3082(3) 0.6935(2)
O4 O 0.1307(3) 0.6477(3) 0.4821(2)
O5 O 0.2366(3) 0.9512(3) 0.2815(2)
N1 N 0.5130(3) 0.6057(3) 0.6180(2)
C1 C 0.4796(3) 0.5060(3) 0.6615(3)
H1 H 0.534757 0.468297 0.702078
C2 C 0.3220(4) 0.6126(3) 0.5436(3)
C3 C 0.3324(4) 0.3489(4) 0.7030(3)
C4 C 0.3668(3) 0.4563(3) 0.6490(3)
C5 C 0.4482(4) 0.8935(4) 0.2758(4)
H2 H 0.462260 0.885719 0.343756
H3 H 0.437358 0.814460 0.248385
C6 C 0.2887(4) 0.5095(4) 0.5893(3)
H4 H 0.211953 0.476453 0.578911
C7 C 0.2361(4) 0.6734(4) 0.4804(3)
C8 C 0.3426(4) 0.9698(4) 0.2565(3)
C9 C 0.4349(4) 0.6565(3) 0.5596(3)
H5 H 0.458453 0.725901 0.527794
C10 C 0.5485(5) 0.9575(5) 0.2294(5)
H6 H 0.612553 0.973810 0.275265
H7 H 0.582321 0.909028 0.178493
Zn2 Zn 0.33504(4) 0.18987(4) 0.83888(3)
Zn3 Zn 0.66496(4) 0.68987(4) 0.66112(3)
O6 O 0.0896(3) 0.6920(3) 0.2594(2)
N3 N 0.0130(3) 0.8943(3) 0.3820(2)
O3_2 O 0.2683(3) 0.6918(3) 0.1935(2)
C1_2 C 0.0204(3) 0.4940(3) 0.1615(3)
C2_2 C 0.1780(4) 0.3874(3) 0.0436(3)
C3_2 C 0.1676(4) 0.6511(4) 0.2030(3)
C4_2 C 0.1332(3) 0.5437(3) 0.1490(3)
C6_2 C 0.2113(4) 0.4905(4) 0.0893(3)
H4_2 H 0.288047 0.523547 0.078911
C9_2 C 0.0651(4) 0.3435(3) 0.0596(3)
H5_2 H 0.041547 0.274099 0.027794
O1_2 O 0.2178(3) 0.2468(2) 0.9284(2)
O4_2 O 0.3693(3) 0.3523(3) 0.9821(2)
O5_2 O 0.2634(3) 0.0488(3) 0.7815(2)
C5_2 C 0.0518(4) 0.1065(4) 0.7758(4)
H2_2 H 0.037740 0.114281 0.843756
H3_2 H 0.062642 0.185540 0.748385
C7_2 C 0.2639(4) 0.3266(4) 0.9804(3)
C8_2 C 0.1574(4) 0.0302(4) 0.7565(3)
N3_2 N 0.4870(3) 0.1057(3) 0.8820(2)
C10_2 C 0.0485(5) 0.5425(5) 0.7706(5)
H6_2 H 0.112553 0.526190 0.724735
H7_2 H 0.082321 0.590972 0.821507
C11_2 C 0.0023(5) 0.4326(6) 0.8084(6)
H8_2 H 0.037728 0.364416 0.775672
H9_2 H 0.019729 0.426142 0.875971
O1_3 O 0.7822(3) 0.7468(2) 0.5716(2)
O4_3 O 0.6307(3) 0.8523(3) 0.5179(2)
O5_3 O 0.7366(3) 0.5488(3) 0.7185(2)
C1_3 C 0.9796(3) 0.9940(3) 0.3385(3)
C2_3 C 0.8220(4) 0.8874(3) 0.4564(3)
N2_2 N 0.8742(4) 0.4390(4) 0.7918(3)
C5_3 C 0.9482(4) 0.6065(4) 0.7242(4)
H2_3 H 0.962260 0.614281 0.656244
H3_3 H 0.937358 0.685540 0.751615
C6_3 C 0.7887(4) 0.9905(4) 0.4107(3)
C7_3 C 0.7361(4) 0.8266(4) 0.5196(3)
C8_3 C 0.8426(4) 0.5302(4) 0.7435(3)
C9_3 C 0.9349(4) 0.8435(3) 0.4404(3)
H5_3 H 0.958453 0.774099 0.472206
C12_2 C 0.7959(5) 0.3444(5) 0.8142(5)
H10_2 H 0.835675 0.269633 0.800972
H11_2 H 0.723210 0.350510 0.776326
H12_2 H 0.774834 0.348074 0.880561
O6_2 O 0.5896(3) 0.8080(3) 0.7406(2)
C1_4 C 0.5204(3) 0.0060(3) 0.8385(3)
C2_4 C 0.6780(4) 0.1126(3) 0.9564(3)
C6_4 C 0.7113(4) 0.0095(4) 0.9107(3)
C9_4 C 0.5651(4) 0.1565(3) 0.9404(3)
H5_4 H 0.541547 0.225901 0.972206
O3_3 O 0.7683(3) 0.8082(3) 0.8065(2)
H1_2 H 0.465243 0.968297 0.797922
C3_3 C 0.6676(4) 0.8489(4) 0.7970(3)
C4_3 C 0.6332(3) 0.9563(3) 0.8510(3)
H4_3 H 0.788047 0.976453 0.921089
N2_3 N 0.1258(4) 0.9390(4) 0.7082(3)
C12_3 C 0.2041(5) 0.8444(5) 0.6858(5)
H10_3 H 0.164325 0.769633 0.699028
H11_3 H 0.276790 0.850510 0.723674
H12_3 H 0.225166 0.848074 0.619439
N1_2 N 0.9870(3) 0.3943(3) 0.1180(2)
H1_3 H 0.965243 0.531703 0.202078
Zn3_2 Zn 0.83504(4) 0.31013(4) 0.16112(3)
O2_2 O 0.9104(3) 0.1920(3) 0.2406(2)
O3_4 O 0.7317(3) 0.1918(3) 0.3065(2)
C3_4 C 0.8324(4) 0.1511(4) 0.2970(3)
C4_4 C 0.8668(3) 0.0437(3) 0.3510(3)
H4_4 H 0.711953 0.023547 0.421089
O1_4 O 0.7178(3) 0.2532(2) 0.0716(2)
O4_4 O 0.8693(3) 0.1477(3) 0.0179(2)
O5_4 O 0.7634(3) 0.4512(3) 0.2185(2)
N2_4 N 0.6258(4) 0.5610(4) 0.2918(3)
C5_4 C 0.5518(4) 0.3935(4) 0.2242(4)
H2_4 H 0.537740 0.385719 0.156244
H3_4 H 0.562642 0.314460 0.251615
C7_4 C 0.7639(4) 0.1734(4) 0.0196(3)
C8_4 C 0.6574(4) 0.4698(4) 0.2435(3)
C10_3 C 0.4515(5) 0.4575(5) 0.2706(5)
H6_3 H 0.387447 0.473810 0.224735
H7_3 H 0.417679 0.409028 0.321507
C11_3 C 0.4977(5) 0.5674(6) 0.3084(6)
H8_3 H 0.462272 0.635584 0.275672
H9_3 H 0.480271 0.573858 0.375971
C12_4 C 0.7041(5) 0.6556(5) 0.3142(5)
H10_4 H 0.664325 0.730367 0.300972
H11_4 H 0.776790 0.649490 0.276326
H12_4 H 0.725166 0.651926 0.380561
C10_4 C 0.9515(5) 0.0425(5) 0.7294(5)
H6_4 H 0.887447 0.026190 0.775265
H7_4 H 0.917679 0.090972 0.678493
C11_4 C 0.9977(5) 0.9326(6) 0.6916(6)
H8_4 H 0.962272 0.864416 0.724328
H9_4 H 0.980271 0.926142 0.624029
H1_4 H 0.034757 0.031703 0.297922
loop_
_geom_bond_atom_site_label_1
_geom_bond_atom_site_label_2
_geom_bond_site_symmetry_1
_geom_bond_site_symmetry_2
C11 N2 1_555 1_555
H8 C11 1_555 1_555
H9 C11 1_555 1_555
C12 N2 1_555 1_555
H10 C12 1_555 1_555
H11 C12 1_555 1_555
H12 C12 1_555 1_555
Zn1 O1 1_555 1_555
O1 C7 1_555 1_555
O2 C3 1_555 1_555
O3 C3 1_555 1_555
O4 C7 1_555 1_555
O5 Zn1 1_555 1_555
N1 C1 1_555 1_555
C1 H1 1_555 1_555
C2 C6 1_555 1_555
C3 C4 1_555 1_555
C4 C1 1_555 1_555
C5 H2 1_555 1_555
H3 C5 1_555 1_555
C6 C4 1_555 1_555
H4 C6 1_555 1_555
C7 C2 1_555 1_555
C8 O5 1_555 1_555
C9 N1 1_555 1_555
H5 C9 1_555 1_555
C10 C5 1_555 1_555
H6 C10 1_555 1_555
H7 C10 1_555 1_555
Zn2 O2 1_555 1_555
Zn3 N1 1_555 1_555
O6 Zn1 1_555 1_555
N3 Zn1 1_555 1_555
C2 C9 1_555 1_555
C5 C8 1_555 1_555
O6 C3_2 1_555 1_555
O3_2 C3_2 1_555 1_555
C2_2 C6_2 1_555 1_555
C3_2 C4_2 1_555 1_555
C4_2 C1_2 1_555 1_555
C6_2 C4_2 1_555 1_555
H4_2 C6_2 1_555 1_555
H5_2 C9_2 1_555 1_555
C2_2 C9_2 1_555 1_555
Zn2 O1_2 1_555 1_555
O1_2 C7_2 1_555 1_555
O4_2 C7_2 1_555 1_555
O5_2 Zn2 1_555 1_555
C5_2 H2_2 1_555 1_555
H3_2 C5_2 1_555 1_555
C8_2 O5_2 1_555 1_555
N3_2 Zn2 1_555 1_555
C5_2 C8_2 1_555 1_555
H6_2 C10_2 1_555 1_555
H7_2 C10_2 1_555 1_555
H8_2 C11_2 1_555 1_555
H9_2 C11_2 1_555 1_555
C10_2 C11_2 1_555 1_555
Zn3 O1_3 1_555 1_555
O1_3 C7_3 1_555 1_555
O4_3 C7_3 1_555 1_555
O5_3 Zn3 1_555 1_555
C2_3 C6_3 1_555 1_555
N2_2 C8_3 1_555 1_555
C5_3 H2_3 1_555 1_555
H3_3 C5_3 1_555 1_555
C7_3 C2_3 1_555 1_555
C8_3 O5_3 1_555 1_555
H5_3 C9_3 1_555 1_555
C12_2 N2_2 1_555 1_555
H10_2 C12_2 1_555 1_555
H11_2 C12_2 1_555 1_555
H12_2 C12_2 1_555 1_555
O6_2 Zn3 1_555 1_555
C2_3 C9_3 1_555 1_555
C5_3 C8_3 1_555 1_555
N3_2 C1_4 1_555 1_555
C2_4 C6_4 1_555 1_555
C9_4 N3_2 1_555 1_555
H5_4 C9_4 1_555 1_555
C2_4 C9_4 1_555 1_555
O6_2 C3_3 1_555 1_555
O3_3 C3_3 1_555 1_555
C3_3 C4_3 1_555 1_555
C12_3 N2_3 1_555 1_555
H10_3 C12_3 1_555 1_555
H11_3 C12_3 1_555 1_555
H12_3 C12_3 1_555 1_555
Zn3_2 N1_2 1_555 1_555
O2_2 C3_4 1_555 1_555
O3_4 C3_4 1_555 1_555
C3_4 C4_4 1_555 1_555
Zn3_2 O2_2 1_555 1_555
Zn3_2 O1_4 1_555 1_555
O1_4 C7_4 1_555 1_555
O4_4 C7_4 1_555 1_555
O5_4 Zn3_2 1_555 1_555
N2_4 C8_4 1_555 1_555
C5_4 H2_4 1_555 1_555
H3_4 C5_4 1_555 1_555
C8_4 O5_4 1_555 1_555
C10_3 C5_4 1_555 1_555
H6_3 C10_3 1_555 1_555
H7_3 C10_3 1_555 1_555
C11_3 N2_4 1_555 1_555
H8_3 C11_3 1_555 1_555
H9_3 C11_3 1_555 1_555
C12_4 N2_4 1_555 1_555
H10_4 C12_4 1_555 1_555
H11_4 C12_4 1_555 1_555
H12_4 C12_4 1_555 1_555
C5_4 C8_4 1_555 1_555
C10_3 C11_3 1_555 1_555
H6_4 C10_4 1_555 1_555
H7_4 C10_4 1_555 1_555
H8_4 C11_4 1_555 1_555
H9_4 C11_4 1_555 1_555

#END
