
###############################################################################
#
# This file contains modified crystal structure data generated from the
# MOF subset of the Cambridge Structural Database (CSD) v543 
# hosted by the Cambridge Crystallographic Data Centre (CCDC).
#
# This work is licensed under the Creative Commons
# Attribution-NonCommercial-ShareAlike 4.0 International License.
# To view a copy of this license, visit
# http://creativecommons.org/licenses/by-nc-sa/4.0/
# or send a letter to
# Creative Commons, PO Box 1866, Mountain View, CA 94042, USA.
#
# CIF created using the CSD Python API on 29 September 2022
# The structure has been converted into the P1 space group
# The structure has a 3D framework
# The original CSD entry NUHHEG is in the monoclinic crystal system
# The framework has been calculated to contain at least 10.0% void space
# The void calculation uses a probe of radius 1.32A, grid spacing 0.4
#
###############################################################################

data_NUHHEG
_chemical_formula_moiety         '(C130 H112 Mn12 N24 O56)n'
_symmetry_cell_setting           triclinic
_symmetry_space_group_name_H-M   'P 1'
_symmetry_Int_Tables_number      1
_space_group_name_Hall           'P 1'
loop_
_symmetry_equiv_pos_site_id
_symmetry_equiv_pos_as_xyz
1 x,y,z
_cell_length_a                   11.5931(6)
_cell_length_b                   13.5663(5)
_cell_length_c                   27.2835(13)
_cell_angle_alpha                90
_cell_angle_beta                 89.922(5)
_cell_angle_gamma                90
_cell_volume                     4291.02
loop_
_atom_site_label
_atom_site_type_symbol
_atom_site_fract_x
_atom_site_fract_y
_atom_site_fract_z
Mn12 Mn 0.0255(2) 0.13944(12) 0.36429(6)
O1 O 0.4410(8) 0.2493(6) 0.6955(3)
Mn1 Mn 0.5252(2) 0.22237(11) 0.62726(6)
C2 C 0.2264(12) 0.3025(8) 0.7872(4)
H4 H 0.168706 0.257682 0.776583
N1 N 0.2024(10) 0.3599(7) 0.8244(4)
Mn2 Mn 0.2494(2) 0.04087(12) 0.67034(5)
O2 O 0.2879(8) 0.1588(6) 0.7201(3)
C3 C 0.3320(10) 0.3032(8) 0.7622(5)
O3 O 0.5774(9) 0.4990(7) 0.8172(4)
C4 C 0.4129(14) 0.3691(8) 0.7787(4)
H5 H 0.485571 0.372025 0.762654
C5 C 0.3925(12) 0.4315(9) 0.8180(4)
N3 N 0.6236(10) 0.1959(7) 0.5525(3)
C6 C 0.2798(12) 0.4231(8) 0.8405(4)
H6 H 0.261115 0.464180 0.867555
C7 C 0.3547(11) 0.2299(8) 0.7225(4)
C8 C 0.4777(15) 0.5047(8) 0.8368(4)
O7 O 0.0759(9) 0.0798(6) 0.6850(3)
O8 O 0.4479(8) 0.5650(6) 0.8684(3)
O10 O 0.8739(9) 0.1681(7) 0.4063(3)
O11 O 0.7471(12) 0.0498(7) 0.3937(3)
C23 C 0.7279(12) 0.1500(8) 0.4634(5)
C24 C 0.6299(14) 0.0993(10) 0.4807(5)
H15 H 0.597445 0.047249 0.462009
C25 C 0.5828(16) 0.1250(10) 0.5238(6)
H16 H 0.516030 0.090414 0.534409
C26 C 0.7864(15) 0.1194(9) 0.4159(5)
C27 C 0.7144(16) 0.2450(11) 0.5365(5)
H17 H 0.744113 0.296792 0.556208
C28 C 0.7677(16) 0.2251(10) 0.4929(5)
H18 H 0.832476 0.263078 0.482922
O14 O 0.5474(10) 0.3825(6) 0.6155(4)
C30 C 0.512(3) 0.4326(16) 0.5830(8)
H22 H 0.431844 0.428153 0.576846
C31 C 0.697(3) 0.500(2) 0.5637(15)
H23 H 0.739836 0.494845 0.532881
H24 H 0.718720 0.446114 0.585551
H25 H 0.714854 0.563388 0.579438
C32 C 0.518(4) 0.558(2) 0.5164(13)
H26 H 0.440569 0.533478 0.508939
H27 H 0.565176 0.557304 0.486579
H28 H 0.512692 0.625679 0.528885
N6 N 0.571(2) 0.4951(17) 0.5535(10)
Mn5 Mn 0.4748(2) 0.72237(11) 0.87274(6)
Mn8 Mn 0.7506(2) 0.54087(12) 0.82966(5)
Mn11 Mn 0.0255(2) 0.36056(12) 0.86429(6)
O16 O 0.2327(11) 0.1558(6) 0.6149(3)
O17 O 0.3813(9) 0.2281(6) 0.5785(3)
N8 N 0.7054(10) 0.2307(6) 0.6643(4)
O19 O 0.5521(8) 0.0650(6) 0.6316(3)
C22 C 0.0168(19) 0.6434(9) 0.6583(6)
H14 H 0.096560 0.659308 0.658958
C29 C 0.0623(19) 0.4984(13) 0.7081(7)
H19 H 0.137517 0.530600 0.711363
H20 H 0.071719 0.435483 0.690858
H21 H 0.029653 0.486377 0.740688
Mn10 Mn 0.7506(2) 0.95913(12) 0.32966(5)
O15 O 0.4226(9) 0.9990(7) 0.6828(4)
O18 O 0.2222(8) 0.9184(6) 0.7210(3)
O20 O 0.0531(8) 0.8452(6) 0.7061(3)
O21 O 0.1261(9) 0.8319(7) 0.5937(3)
O22 O 0.2529(12) 0.9502(7) 0.6063(3)
O6 O 0.7778(8) 0.4184(6) 0.7790(3)
O9 O 0.9469(8) 0.3452(6) 0.7939(3)
O12 O 0.9532(8) 0.0188(5) 0.6285(3)
C15 C 0.8321(11) 0.2868(8) 0.7288(4)
C16 C 0.7289(13) 0.2919(8) 0.7014(4)
H11 H 0.673809 0.341029 0.709639
C17 C 0.8492(13) 0.3558(9) 0.7708(4)
C18 C 0.7878(13) 0.1650(8) 0.6513(4)
H12 H 0.774358 0.122924 0.624058
C19 C 0.8926(12) 0.1569(8) 0.6768(4)
C20 C 0.9124(12) 0.2182(8) 0.7141(4)
H13 H 0.984026 0.214430 0.730855
C21 C 0.9777(12) 0.0795(7) 0.6617(4)
C1 C 0.867(2) 0.5335(13) 0.6814(8)
H1 H 0.836495 0.539969 0.714805
H2 H 0.858743 0.465050 0.670482
H3 H 0.823059 0.576788 0.659381
N2 N 0.8785(10) 0.8508(7) 0.5632(3)
Mn3 Mn 0.9745(2) 0.86056(12) 0.63571(6)
O4 O 0.7673(11) 0.8442(6) 0.3851(3)
O5 O 0.6187(9) 0.7719(6) 0.4215(3)
C9 C 0.9211(14) 0.8916(9) 0.5239(5)
H7 H 0.989435 0.929710 0.527008
C10 C 0.8708(13) 0.8822(9) 0.4765(4)
H8 H 0.904819 0.912998 0.448706
C11 C 0.7275(13) 0.7829(9) 0.5122(4)
H9 H 0.661138 0.742128 0.509981
C12 C 0.7804(14) 0.7971(9) 0.5574(5)
H10 H 0.746399 0.767828 0.585602
C13 C 0.7135(13) 0.8141(8) 0.4209(4)
C14 C 0.7691(13) 0.8261(8) 0.4719(4)
O13 O 0.9553(11) 0.6996(6) 0.6375(3)
N5 N 0.9858(14) 0.5610(8) 0.6806(4)
Mn6 Mn 0.4748(2) 0.77763(11) 0.37274(6)
N7 N 0.7976(10) 0.8599(7) 0.6756(4)
O4_2 O 0.2327(11) 0.3442(6) 0.1149(3)
O5_2 O 0.3813(9) 0.2719(6) 0.0785(3)
C10_2 C 0.1292(13) 0.3822(9) 0.0235(4)
H8_2 H 0.095181 0.412998 0.051294
C13_2 C 0.2865(13) 0.3141(8) 0.0791(4)
C14_2 C 0.2309(13) 0.3261(8) 0.0281(4)
Mn6_2 Mn 0.5252(2) 0.27763(11) 0.12726(6)
Mn9 Mn 0.2494(2) 0.45913(12) 0.17034(5)
C1_2 C 0.133(2) 0.0335(13) 0.8186(8)
H1_2 H 0.163505 0.039969 0.785195
H3_2 H 0.176941 0.076788 0.840619
N2_2 N 0.1215(10) 0.3508(7) 0.9368(3)
C9_2 C 0.0789(14) 0.3916(9) 0.9761(5)
H7_2 H 0.010565 0.429710 0.972992
N4 N 0.2946(10) 0.7307(6) 0.8357(4)
C11_2 C 0.2725(13) 0.2829(9) 0.9878(4)
H9_2 H 0.338862 0.242128 0.990019
C12_2 C 0.2196(14) 0.2971(9) 0.9426(5)
H10_2 H 0.253601 0.267828 0.914398
O12_2 O 0.0468(8) 0.5188(5) 0.8715(3)
C15_2 C 0.1679(11) 0.7868(8) 0.7712(4)
C16_2 C 0.2711(13) 0.7919(8) 0.7986(4)
H11_2 H 0.326191 0.841029 0.790361
C17_2 C 0.1508(13) 0.8558(9) 0.7292(4)
C18_2 C 0.2122(13) 0.6650(8) 0.8487(4)
H12_2 H 0.225642 0.622924 0.875942
C19_2 C 0.1074(12) 0.6569(8) 0.8232(4)
C20_2 C 0.0876(12) 0.7182(8) 0.7859(4)
H13_2 H 0.015974 0.714430 0.769145
C21_2 C 0.0223(12) 0.5795(7) 0.8383(4)
O13_2 O 0.0447(11) 0.1996(6) 0.8625(3)
N5_2 N 0.0142(14) 0.0610(8) 0.8194(4)
C8_2 C 0.5223(15) 0.0047(8) 0.6632(4)
C31_2 C 0.303(3) 0.000(2) 0.9363(15)
H25_2 H 0.285146 0.063388 0.920562
C32_2 C 0.482(4) 0.058(2) 0.9836(13)
H26_2 H 0.559431 0.033478 0.991061
H28_2 H 0.487308 0.125679 0.971115
O10_2 O 0.1261(9) 0.6681(7) 0.0937(3)
O11_2 O 0.2529(12) 0.5498(7) 0.1063(3)
C23_2 C 0.2721(12) 0.6500(8) 0.0366(5)
C24_2 C 0.3701(14) 0.5993(10) 0.0193(5)
H15_2 H 0.402555 0.547249 0.037991
C26_2 C 0.2136(15) 0.6194(9) 0.0841(5)
C28_2 C 0.2323(16) 0.7251(10) 0.0071(5)
H18_2 H 0.167524 0.763078 0.017078
O1_2 O 0.5590(8) 0.7493(6) 0.8045(3)
C2_2 C 0.7736(12) 0.8025(8) 0.7128(4)
H4_2 H 0.831294 0.757682 0.723417
O2_2 O 0.7121(8) 0.6588(6) 0.7799(3)
C3_2 C 0.6680(10) 0.8032(8) 0.7378(5)
C4_2 C 0.5871(14) 0.8691(8) 0.7213(4)
H5_2 H 0.514429 0.872025 0.737346
C5_2 C 0.6075(12) 0.9315(9) 0.6820(4)
N3_2 N 0.3764(10) 0.6959(7) 0.9475(3)
C6_2 C 0.7202(12) 0.9231(8) 0.6595(4)
H6_2 H 0.738885 0.964180 0.632445
C7_2 C 0.6453(11) 0.7299(8) 0.7775(4)
O7_2 O 0.9241(9) 0.5798(6) 0.8150(3)
C22_2 C 0.9832(19) 0.1434(9) 0.8417(6)
H14_2 H 0.903440 0.159308 0.841042
C25_2 C 0.4172(16) 0.6250(10) 0.9762(6)
H16_2 H 0.483970 0.590414 0.965591
C27_2 C 0.2856(16) 0.7450(11) 0.9635(5)
H17_2 H 0.255887 0.796792 0.943792
H19_2 H 0.862483 0.030600 0.788637
O14_2 O 0.4526(10) 0.8825(6) 0.8845(4)
C30_2 C 0.488(3) 0.9326(16) 0.9170(8)
H22_2 H 0.568156 0.928153 0.923154
C31_3 C 0.303(3) 1.000(2) 0.9363(15)
H23_2 H 0.260164 0.994845 0.967119
H24_2 H 0.281280 0.946114 0.914449
N6_2 N 0.429(2) 0.9951(17) 0.9465(10)
O16_2 O 0.7673(11) 0.6558(6) 0.8851(3)
O17_2 O 0.6187(9) 0.7281(6) 0.9215(3)
O21_2 O 0.8739(9) 0.3319(7) 0.9063(3)
O22_2 O 0.7471(12) 0.4502(7) 0.8937(3)
Mn12_2 Mn 0.9745(2) 0.63944(12) 0.13571(6)
C1_3 C 0.133(2) 0.4665(13) 0.3186(8)
H1_3 H 0.163505 0.460031 0.285195
H2_2 H 0.141257 0.534950 0.329518
H3_3 H 0.176941 0.423212 0.340619
N2_3 N 0.1215(10) 0.1492(7) 0.4368(3)
C9_3 C 0.0789(14) 0.1084(9) 0.4761(5)
H7_3 H 0.010565 0.070290 0.472992
C10_3 C 0.1292(13) 0.1178(9) 0.5235(4)
H8_3 H 0.095181 0.087002 0.551294
C11_3 C 0.2725(13) 0.2171(9) 0.4878(4)
H9_3 H 0.338862 0.257872 0.490019
C12_3 C 0.2196(14) 0.2029(9) 0.4426(5)
H10_3 H 0.253601 0.232172 0.414398
C13_3 C 0.2865(13) 0.1859(8) 0.5791(4)
C14_3 C 0.2309(13) 0.1739(8) 0.5281(4)
O13_3 O 0.0447(11) 0.3004(6) 0.3625(3)
N5_3 N 0.0142(14) 0.4390(8) 0.3194(4)
N7_2 N 0.2024(10) 0.1401(7) 0.3244(4)
O6_2 O 0.2222(8) 0.5816(6) 0.2210(3)
N4_2 N 0.2946(10) 0.7693(6) 0.3357(4)
O9_2 O 0.0531(8) 0.6548(6) 0.2061(3)
O12_3 O 0.0468(8) 0.9812(5) 0.3715(3)
C15_3 C 0.1679(11) 0.7132(8) 0.2712(4)
C16_3 C 0.2711(13) 0.7081(8) 0.2986(4)
H11_3 H 0.326191 0.658971 0.290361
C17_3 C 0.1508(13) 0.6442(9) 0.2292(4)
C18_3 C 0.2122(13) 0.8350(8) 0.3487(4)
H12_3 H 0.225642 0.877076 0.375942
C19_3 C 0.1074(12) 0.8431(8) 0.3232(4)
C20_3 C 0.0876(12) 0.7818(8) 0.2859(4)
H13_3 H 0.015974 0.785570 0.269145
C21_3 C 0.0223(12) 0.9205(7) 0.3383(4)
C22_3 C 0.9832(19) 0.3566(9) 0.3417(6)
H14_3 H 0.903440 0.340692 0.341042
C29_2 C 0.9377(19) 0.5016(13) 0.2919(7)
H19_3 H 0.862483 0.469400 0.288637
H20_2 H 0.928281 0.564517 0.309142
H21_2 H 0.970347 0.513623 0.259312
O15_2 O 0.5774(9) 0.0010(7) 0.3172(4)
O18_2 O 0.7778(8) 0.0816(6) 0.2790(3)
O20_2 O 0.9469(8) 0.1548(6) 0.2939(3)
O1_3 O 0.5590(8) 0.7507(6) 0.3045(3)
C2_3 C 0.7736(12) 0.6975(8) 0.2128(4)
H4_3 H 0.831294 0.742318 0.223417
N1_2 N 0.7976(10) 0.6401(7) 0.1756(4)
O2_3 O 0.7121(8) 0.8412(6) 0.2799(3)
C3_3 C 0.6680(10) 0.6968(8) 0.2378(5)
O3_2 O 0.4226(9) 0.5010(7) 0.1828(4)
C4_3 C 0.5871(14) 0.6309(8) 0.2213(4)
H5_3 H 0.514429 0.627975 0.237346
C5_3 C 0.6075(12) 0.5685(9) 0.1820(4)
N3_3 N 0.3764(10) 0.8041(7) 0.4475(3)
C6_3 C 0.7202(12) 0.5769(8) 0.1595(4)
H6_3 H 0.738885 0.535820 0.132445
C7_3 C 0.6453(11) 0.7701(8) 0.2775(4)
C8_3 C 0.5223(15) 0.4953(8) 0.1632(4)
O7_3 O 0.9241(9) 0.9202(6) 0.3150(3)
O8_2 O 0.5521(8) 0.4350(6) 0.1316(3)
C23_3 C 0.2721(12) 0.8500(8) 0.5366(5)
C24_3 C 0.3701(14) 0.9007(10) 0.5193(5)
H15_3 H 0.402555 0.952751 0.537991
C25_3 C 0.4172(16) 0.8750(10) 0.4762(6)
H16_3 H 0.483970 0.909586 0.465591
C26_3 C 0.2136(15) 0.8806(9) 0.5841(5)
C27_3 C 0.2856(16) 0.7550(11) 0.4635(5)
H17_3 H 0.255887 0.703208 0.443792
C28_3 C 0.2323(16) 0.7749(10) 0.5071(5)
H18_3 H 0.167524 0.736922 0.517078
O14_3 O 0.4526(10) 0.6175(6) 0.3845(4)
C30_3 C 0.488(3) 0.5674(16) 0.4170(8)
H22_3 H 0.568156 0.571847 0.423154
C31_4 C 0.303(3) 0.500(2) 0.4363(15)
H23_3 H 0.260164 0.505155 0.467119
H24_3 H 0.281280 0.553886 0.414449
H25_3 H 0.285146 0.436612 0.420562
C32_3 C 0.482(4) 0.442(2) 0.4836(13)
H26_3 H 0.559431 0.466522 0.491061
H27_2 H 0.434824 0.442696 0.513421
H28_3 H 0.487308 0.374321 0.471115
N6_3 N 0.429(2) 0.5049(17) 0.4465(10)
O19_2 O 0.4479(8) 0.9350(6) 0.3684(3)
O1_4 O 0.4410(8) 0.2507(6) 0.1955(3)
C2_4 C 0.2264(12) 0.1975(8) 0.2872(4)
H4_4 H 0.168706 0.242318 0.276583
O2_4 O 0.2879(8) 0.3412(6) 0.2201(3)
C3_4 C 0.3320(10) 0.1968(8) 0.2622(5)
C4_4 C 0.4129(14) 0.1309(8) 0.2787(4)
H5_4 H 0.485571 0.127975 0.262654
C5_4 C 0.3925(12) 0.0685(9) 0.3180(4)
N3_4 N 0.6236(10) 0.3041(7) 0.0525(3)
C6_4 C 0.2798(12) 0.0769(8) 0.3405(4)
H6_4 H 0.261115 0.035820 0.367555
C7_4 C 0.3547(11) 0.2701(8) 0.2225(4)
O7_4 O 0.0759(9) 0.4202(6) 0.1850(3)
C22_4 C 0.0168(19) 0.8566(9) 0.1583(6)
H14_4 H 0.096560 0.840692 0.158958
C25_4 C 0.5828(16) 0.3750(10) 0.0238(6)
H16_4 H 0.516030 0.409586 0.034409
C27_4 C 0.7144(16) 0.2550(11) 0.0365(5)
H17_4 H 0.744113 0.203208 0.056208
H19_4 H 0.137517 0.969400 0.211363
O14_4 O 0.5474(10) 0.1175(6) 0.1155(4)
C30_4 C 0.512(3) 0.0674(16) 0.0830(8)
H22_4 H 0.431844 0.071847 0.076846
C31_5 C 0.697(3) 0.000(2) 0.0637(15)
H23_4 H 0.739836 0.005155 0.032881
H24_4 H 0.718720 0.053886 0.085551
N6_4 N 0.571(2) 0.0049(17) 0.0535(10)
N8_2 N 0.7054(10) 0.2693(6) 0.1643(4)
C23_4 C 0.7279(12) 0.3500(8) 0.9634(5)
C24_4 C 0.6299(14) 0.4007(10) 0.9807(5)
H15_4 H 0.597445 0.452751 0.962009
C26_4 C 0.7864(15) 0.3806(9) 0.9159(5)
C28_4 C 0.7677(16) 0.2749(10) 0.9929(5)
H18_4 H 0.832476 0.236922 0.982922
C8_4 C 0.4777(15) 0.9953(8) 0.3368(4)
C31_6 C 0.697(3) 1.000(2) 0.0637(15)
H25_4 H 0.714854 0.936612 0.079438
C32_4 C 0.518(4) 0.942(2) 0.0164(13)
H26_4 H 0.440569 0.966522 0.008939
H28_4 H 0.512692 0.874321 0.028885
C1_4 C 0.867(2) 0.9665(13) 0.1814(8)
H1_4 H 0.836495 0.960031 0.214805
H3_4 H 0.823059 0.923212 0.159381
N2_4 N 0.8785(10) 0.6492(7) 0.0632(3)
C9_4 C 0.9211(14) 0.6084(9) 0.0239(5)
H7_4 H 0.989435 0.570290 0.027008
C11_4 C 0.7275(13) 0.7171(9) 0.0122(4)
H9_4 H 0.661138 0.757872 0.009981
C12_4 C 0.7804(14) 0.7029(9) 0.0574(5)
H10_4 H 0.746399 0.732172 0.085602
O12_4 O 0.9532(8) 0.4812(5) 0.1285(3)
C15_4 C 0.8321(11) 0.2132(8) 0.2288(4)
C16_4 C 0.7289(13) 0.2081(8) 0.2014(4)
H11_4 H 0.673809 0.158971 0.209639
C17_4 C 0.8492(13) 0.1442(9) 0.2708(4)
C18_4 C 0.7878(13) 0.3350(8) 0.1513(4)
H12_4 H 0.774358 0.377076 0.124058
C19_4 C 0.8926(12) 0.3431(8) 0.1768(4)
C20_4 C 0.9124(12) 0.2818(8) 0.2141(4)
H13_4 H 0.984026 0.285570 0.230855
C21_4 C 0.9777(12) 0.4205(7) 0.1617(4)
O13_4 O 0.9553(11) 0.8004(6) 0.1375(3)
N5_4 N 0.9858(14) 0.9390(8) 0.1806(4)
C10_4 C 0.8708(13) 0.6178(9) 0.9765(4)
H8_4 H 0.904819 0.587002 0.948706
C13_4 C 0.7135(13) 0.6859(8) 0.9209(4)
C14_4 C 0.7691(13) 0.6739(8) 0.9719(4)
H2_3 H 0.141257 0.965050 0.829518
H27_3 H 0.434824 0.057304 0.013421
C29_3 C 0.9377(19) 0.9984(13) 0.7919(7)
H20_3 H 0.928281 0.935483 0.809142
H21_3 H 0.970347 0.986377 0.759312
C29_4 C 0.0623(19) 0.0016(13) 0.2081(7)
H20_4 H 0.071719 0.064517 0.190858
H21_4 H 0.029653 0.013623 0.240688
H27_4 H 0.565176 0.942696 0.986579
H2_4 H 0.858743 0.034950 0.170482
loop_
_geom_bond_atom_site_label_1
_geom_bond_atom_site_label_2
_geom_bond_site_symmetry_1
_geom_bond_site_symmetry_2
O1 Mn1 1_555 1_555
Mn1 N3 1_555 1_555
C2 H4 1_555 1_555
N1 C2 1_555 1_555
Mn2 O2 1_555 1_555
O2 C7 1_555 1_555
C3 C2 1_555 1_555
O3 C8 1_555 1_555
C4 C3 1_555 1_555
H5 C4 1_555 1_555
C5 C4 1_555 1_555
N3 C25 1_555 1_555
C6 N1 1_555 1_555
H6 C6 1_555 1_555
C7 O1 1_555 1_555
C8 C5 1_555 1_555
O7 Mn2 1_555 1_555
O8 C8 1_555 1_555
O10 C26 1_555 1_555
O11 C26 1_555 1_555
C23 C24 1_555 1_555
C24 H15 1_555 1_555
C25 C24 1_555 1_555
H16 C25 1_555 1_555
C26 C23 1_555 1_555
C27 N3 1_555 1_555
H17 C27 1_555 1_555
C28 C23 1_555 1_555
H18 C28 1_555 1_555
O14 Mn1 1_555 1_555
C30 O14 1_555 1_555
H22 C30 1_555 1_555
C31 H23 1_555 1_555
H24 C31 1_555 1_555
H25 C31 1_555 1_555
C32 H26 1_555 1_555
H27 C32 1_555 1_555
H28 C32 1_555 1_555
N6 C30 1_555 1_555
Mn5 O8 1_555 1_555
Mn8 O3 1_555 1_555
Mn11 N1 1_555 1_555
O16 Mn2 1_555 1_555
O17 Mn1 1_555 1_555
N8 Mn1 1_555 1_555
O19 Mn1 1_555 1_555
C3 C7 1_555 1_555
C5 C6 1_555 1_555
C27 C28 1_555 1_555
C31 N6 1_555 1_555
C32 N6 1_555 1_555
H14 C22 1_555 1_555
H19 C29 1_555 1_555
H20 C29 1_555 1_555
H21 C29 1_555 1_555
O6 C17 1_555 1_555
N8 C16 1_555 1_555
O9 C17 1_555 1_555
O12 C21 1_555 1_555
C15 C16 1_555 1_555
C16 H11 1_555 1_555
C17 C15 1_555 1_555
C18 N8 1_555 1_555
H12 C18 1_555 1_555
C19 C18 1_555 1_555
C20 C15 1_555 1_555
H13 C20 1_555 1_555
Mn8 O6 1_555 1_555
C19 C20 1_555 1_555
C19 C21 1_555 1_555
C1 H1 1_555 1_555
H2 C1 1_555 1_555
H3 C1 1_555 1_555
N2 Mn3 1_555 1_555
O4 C13 1_555 1_555
O5 C13 1_555 1_555
C9 N2 1_555 1_555
H7 C9 1_555 1_555
C10 C9 1_555 1_555
H8 C10 1_555 1_555
C11 H9 1_555 1_555
C12 N2 1_555 1_555
H10 C12 1_555 1_555
C13 C14 1_555 1_555
C14 C10 1_555 1_555
O13 Mn3 1_555 1_555
N5 C1 1_555 1_555
Mn6 O5 1_555 1_555
N7 Mn3 1_555 1_555
Mn10 O4 1_555 1_555
C11 C12 1_555 1_555
C11 C14 1_555 1_555
O4_2 C13_2 1_555 1_555
O5_2 C13_2 1_555 1_555
H8_2 C10_2 1_555 1_555
C13_2 C14_2 1_555 1_555
C14_2 C10_2 1_555 1_555
Mn6_2 O5_2 1_555 1_555
Mn9 O4_2 1_555 1_555
C1_2 H1_2 1_555 1_555
H3_2 C1_2 1_555 1_555
N2_2 Mn11 1_555 1_555
Mn11 O12_2 1_555 1_555
O18 C17_2 1_555 1_555
C9_2 N2_2 1_555 1_555
H7_2 C9_2 1_555 1_555
N4 C16_2 1_555 1_555
O20 C17_2 1_555 1_555
C11_2 H9_2 1_555 1_555
C12_2 N2_2 1_555 1_555
H10_2 C12_2 1_555 1_555
O12_2 C21_2 1_555 1_555
C15_2 C16_2 1_555 1_555
C16_2 H11_2 1_555 1_555
C17_2 C15_2 1_555 1_555
C18_2 N4 1_555 1_555
H12_2 C18_2 1_555 1_555
C19_2 C18_2 1_555 1_555
C20_2 C15_2 1_555 1_555
H13_2 C20_2 1_555 1_555
O13_2 Mn11 1_555 1_555
N5_2 C1_2 1_555 1_555
Mn5 N4 1_555 1_555
C11_2 C12_2 1_555 1_555
C19_2 C20_2 1_555 1_555
C19_2 C21_2 1_555 1_555
O19 C8_2 1_555 1_555
H25_2 C31_2 1_555 1_555
C32_2 H26_2 1_555 1_555
H28_2 C32_2 1_555 1_555
O10_2 C26_2 1_555 1_555
O11_2 C26_2 1_555 1_555
C23_2 C24_2 1_555 1_555
C24_2 H15_2 1_555 1_555
C26_2 C23_2 1_555 1_555
C28_2 C23_2 1_555 1_555
H18_2 C28_2 1_555 1_555
Mn9 O11_2 1_555 1_555
O1_2 Mn5 1_555 1_555
Mn5 N3_2 1_555 1_555
C2_2 H4_2 1_555 1_555
N7 C2_2 1_555 1_555
Mn8 O2_2 1_555 1_555
O2_2 C7_2 1_555 1_555
C3_2 C2_2 1_555 1_555
C4_2 C3_2 1_555 1_555
H5_2 C4_2 1_555 1_555
C5_2 C4_2 1_555 1_555
N3_2 C25_2 1_555 1_555
C6_2 N7 1_555 1_555
H6_2 C6_2 1_555 1_555
C7_2 O1_2 1_555 1_555
O7_2 Mn8 1_555 1_555
H14_2 C22_2 1_555 1_555
H16_2 C25_2 1_555 1_555
C27_2 N3_2 1_555 1_555
H17_2 C27_2 1_555 1_555
O14_2 Mn5 1_555 1_555
C30_2 O14_2 1_555 1_555
H22_2 C30_2 1_555 1_555
C31_3 H23_2 1_555 1_555
H24_2 C31_3 1_555 1_555
N6_2 C30_2 1_555 1_555
O16_2 Mn8 1_555 1_555
O17_2 Mn5 1_555 1_555
O22_2 Mn8 1_555 1_555
C3_2 C7_2 1_555 1_555
C5_2 C6_2 1_555 1_555
C31_3 N6_2 1_555 1_555
C1_3 H1_3 1_555 1_555
H2_2 C1_3 1_555 1_555
H3_3 C1_3 1_555 1_555
N2_3 Mn12 1_555 1_555
O16 C13_3 1_555 1_555
O17 C13_3 1_555 1_555
C9_3 N2_3 1_555 1_555
H7_3 C9_3 1_555 1_555
C10_3 C9_3 1_555 1_555
H8_3 C10_3 1_555 1_555
C11_3 H9_3 1_555 1_555
C12_3 N2_3 1_555 1_555
H10_3 C12_3 1_555 1_555
C13_3 C14_3 1_555 1_555
C14_3 C10_3 1_555 1_555
O13_3 Mn12 1_555 1_555
N5_3 C1_3 1_555 1_555
N7_2 Mn12 1_555 1_555
C11_3 C12_3 1_555 1_555
C11_3 C14_3 1_555 1_555
O6_2 C17_3 1_555 1_555
N4_2 C16_3 1_555 1_555
O9_2 C17_3 1_555 1_555
O12_3 C21_3 1_555 1_555
C15_3 C16_3 1_555 1_555
C16_3 H11_3 1_555 1_555
C17_3 C15_3 1_555 1_555
C18_3 N4_2 1_555 1_555
H12_3 C18_3 1_555 1_555
C19_3 C18_3 1_555 1_555
C20_3 C15_3 1_555 1_555
H13_3 C20_3 1_555 1_555
Mn6 N4_2 1_555 1_555
Mn9 O6_2 1_555 1_555
C19_3 C20_3 1_555 1_555
C19_3 C21_3 1_555 1_555
H14_3 C22_3 1_555 1_555
H19_3 C29_2 1_555 1_555
H20_2 C29_2 1_555 1_555
H21_2 C29_2 1_555 1_555
O1_3 Mn6 1_555 1_555
Mn6 N3_3 1_555 1_555
C2_3 H4_3 1_555 1_555
N1_2 C2_3 1_555 1_555
Mn10 O2_3 1_555 1_555
O2_3 C7_3 1_555 1_555
C3_3 C2_3 1_555 1_555
O3_2 C8_3 1_555 1_555
C4_3 C3_3 1_555 1_555
H5_3 C4_3 1_555 1_555
C5_3 C4_3 1_555 1_555
N3_3 C25_3 1_555 1_555
C6_3 N1_2 1_555 1_555
H6_3 C6_3 1_555 1_555
C7_3 O1_3 1_555 1_555
C8_3 C5_3 1_555 1_555
O7_3 Mn10 1_555 1_555
O8_2 C8_3 1_555 1_555
O21 C26_3 1_555 1_555
O22 C26_3 1_555 1_555
C23_3 C24_3 1_555 1_555
C24_3 H15_3 1_555 1_555
C25_3 C24_3 1_555 1_555
H16_3 C25_3 1_555 1_555
C26_3 C23_3 1_555 1_555
C27_3 N3_3 1_555 1_555
H17_3 C27_3 1_555 1_555
C28_3 C23_3 1_555 1_555
H18_3 C28_3 1_555 1_555
O14_3 Mn6 1_555 1_555
C30_3 O14_3 1_555 1_555
H22_3 C30_3 1_555 1_555
C31_4 H23_3 1_555 1_555
H24_3 C31_4 1_555 1_555
H25_3 C31_4 1_555 1_555
C32_3 H26_3 1_555 1_555
H27_2 C32_3 1_555 1_555
H28_3 C32_3 1_555 1_555
N6_3 C30_3 1_555 1_555
Mn6_2 O8_2 1_555 1_555
Mn9 O3_2 1_555 1_555
Mn12_2 N1_2 1_555 1_555
O19_2 Mn6 1_555 1_555
C3_3 C7_3 1_555 1_555
C5_3 C6_3 1_555 1_555
C27_3 C28_3 1_555 1_555
C31_4 N6_3 1_555 1_555
C32_3 N6_3 1_555 1_555
O1_4 Mn6_2 1_555 1_555
Mn6_2 N3_4 1_555 1_555
C2_4 H4_4 1_555 1_555
N7_2 C2_4 1_555 1_555
Mn9 O2_4 1_555 1_555
O2_4 C7_4 1_555 1_555
C3_4 C2_4 1_555 1_555
C4_4 C3_4 1_555 1_555
H5_4 C4_4 1_555 1_555
C5_4 C4_4 1_555 1_555
N3_4 C25_4 1_555 1_555
C6_4 N7_2 1_555 1_555
H6_4 C6_4 1_555 1_555
C7_4 O1_4 1_555 1_555
O7_4 Mn9 1_555 1_555
H14_4 C22_4 1_555 1_555
H16_4 C25_4 1_555 1_555
C27_4 N3_4 1_555 1_555
H17_4 C27_4 1_555 1_555
O14_4 Mn6_2 1_555 1_555
C30_4 O14_4 1_555 1_555
H22_4 C30_4 1_555 1_555
C31_5 H23_4 1_555 1_555
H24_4 C31_5 1_555 1_555
N6_4 C30_4 1_555 1_555
N8_2 Mn6_2 1_555 1_555
C3_4 C7_4 1_555 1_555
C5_4 C6_4 1_555 1_555
C31_5 N6_4 1_555 1_555
O21_2 C26_4 1_555 1_555
O22_2 C26_4 1_555 1_555
C23_4 C24_4 1_555 1_555
C24_4 H15_4 1_555 1_555
C26_4 C23_4 1_555 1_555
C28_4 C23_4 1_555 1_555
H18_4 C28_4 1_555 1_555
O19_2 C8_4 1_555 1_555
H25_4 C31_6 1_555 1_555
C32_4 H26_4 1_555 1_555
H28_4 C32_4 1_555 1_555
C1_4 H1_4 1_555 1_555
H3_4 C1_4 1_555 1_555
N2_4 Mn12_2 1_555 1_555
Mn12_2 O12_4 1_555 1_555
O18_2 C17_4 1_555 1_555
C9_4 N2_4 1_555 1_555
H7_4 C9_4 1_555 1_555
N8_2 C16_4 1_555 1_555
O20_2 C17_4 1_555 1_555
C11_4 H9_4 1_555 1_555
C12_4 N2_4 1_555 1_555
H10_4 C12_4 1_555 1_555
O12_4 C21_4 1_555 1_555
C15_4 C16_4 1_555 1_555
C16_4 H11_4 1_555 1_555
C17_4 C15_4 1_555 1_555
C18_4 N8_2 1_555 1_555
H12_4 C18_4 1_555 1_555
C19_4 C18_4 1_555 1_555
C20_4 C15_4 1_555 1_555
H13_4 C20_4 1_555 1_555
O13_4 Mn12_2 1_555 1_555
N5_4 C1_4 1_555 1_555
C11_4 C12_4 1_555 1_555
C19_4 C20_4 1_555 1_555
C19_4 C21_4 1_555 1_555
O16_2 C13_4 1_555 1_555
O17_2 C13_4 1_555 1_555
H8_4 C10_4 1_555 1_555
C13_4 C14_4 1_555 1_555
C14_4 C10_4 1_555 1_555
H20_3 C29_3 1_555 1_555
H21_3 C29_3 1_555 1_555
H20_4 C29_4 1_555 1_555
H21_4 C29_4 1_555 1_555

#END
