
###############################################################################
#
# This file contains modified crystal structure data generated from the
# MOF subset of the Cambridge Structural Database (CSD) v543 
# hosted by the Cambridge Crystallographic Data Centre (CCDC).
#
# This work is licensed under the Creative Commons
# Attribution-NonCommercial-ShareAlike 4.0 International License.
# To view a copy of this license, visit
# http://creativecommons.org/licenses/by-nc-sa/4.0/
# or send a letter to
# Creative Commons, PO Box 1866, Mountain View, CA 94042, USA.
#
# CIF created using the CSD Python API on 29 September 2022
# The structure has been converted into the P1 space group
# The structure has a 3D framework
# The original CSD entry NUHPAI is in the orthorhombic crystal system
# The framework has been calculated to contain at least 10.0% void space
# The void calculation uses a probe of radius 1.32A, grid spacing 0.4
# The framework is charged, counterions have been retained in the structure
#
###############################################################################

data_NUHPAI
_chemical_formula_moiety         '(C256 H352 N64 O16 Zn8 16+)n'
_symmetry_cell_setting           triclinic
_symmetry_space_group_name_H-M   'P 1'
_symmetry_Int_Tables_number      1
_space_group_name_Hall           'P 1'
loop_
_symmetry_equiv_pos_site_id
_symmetry_equiv_pos_as_xyz
1 x,y,z
_cell_length_a                   12.335(2)
_cell_length_b                   21.737(4)
_cell_length_c                   34.216(6)
_cell_angle_alpha                90
_cell_angle_beta                 90
_cell_angle_gamma                90
_cell_volume                     9174.2
loop_
_atom_site_label
_atom_site_type_symbol
_atom_site_fract_x
_atom_site_fract_y
_atom_site_fract_z
H20 H 0.3783 0.0600 0.0006
H32 H 0.2335 0.0026 0.0334
H41 H 0.0928 0.0661 0.0077
C17 C 0.3762(5) 0.0310(3) 0.97986(18)
C20 C 0.4450(5) 0.0366(3) 0.94803(18)
H23 H 0.4932 0.0706 0.9462
C32 C 0.0830(5) 0.0376(3) 0.98537(16)
H44 H 0.1335 0.0502 0.9643
C26 C 0.2224(5) 0.9713(3) 0.01271(15)
H29 H 0.2340 0.9303 0.0245
C29 C 0.0316(4) 0.9585(3) 0.02918(17)
H35 H 0.0471 0.9161 0.0381
H38 H 0.0412 0.9866 0.0517
O1 O 0.9525(5) 0.6250 0.1250
H1 H 0.911(5) 0.636(3) 0.1049(14)
H12 H 0.911(5) 0.614(3) 0.1451(14)
N9 N 0.8578(3) 0.7257(2) 0.00242(12)
H20_2 H 0.3717 0.6900 0.0006
C26_2 C 0.5276(5) 0.7787(3) 0.01271(15)
H29_2 H 0.5160 0.8197 0.0245
H32_2 H 0.5165 0.7474 0.0334
C29_2 C 0.7184(4) 0.7915(3) 0.02918(17)
H35_2 H 0.7029 0.8339 0.0381
H38_2 H 0.7088 0.7634 0.0517
C31 C 0.8330(5) 0.7876(3) 0.01463(16)
H41_2 H 0.6572 0.6839 0.0077
H43 H 0.8835 0.8002 0.0357
O1_2 O 0.9525(5) 0.1250 0.6250
H1_2 H 0.911(5) 0.114(3) 0.6451(14)
H12_2 H 0.911(5) 0.136(3) 0.6049(14)
N9_2 N 0.8578(3) 0.0243(2) 0.74758(12)
C17_2 C 0.3738(5) 0.0310(3) 0.77014(18)
H20_3 H 0.3717 0.0600 0.7494
C20_2 C 0.3050(5) 0.0366(3) 0.80197(18)
H23_2 H 0.2568 0.0706 0.8038
C25 C 0.9724(5) 0.0287(3) 0.76271(15)
H28 H 0.9840 0.0697 0.7745
H32_3 H 0.5165 0.0026 0.7166
C28 C 0.7816(4) 0.0415(3) 0.77918(17)
H34 H 0.7971 0.0839 0.7881
H37 H 0.7912 0.0134 0.8017
C32_2 C 0.6670(5) 0.0376(3) 0.76463(16)
H41_3 H 0.6572 0.0661 0.7423
H44_2 H 0.6165 0.0502 0.7857
Zn2 Zn 0.3750 0.3750 0.3750
N5 N 0.3771(4) 0.4445(2) 0.42017(13)
N10 N 0.1078(3) 0.4757(2) 0.49758(12)
C11 C 0.3094(4) 0.4393(2) 0.45058(15)
H17 H 0.2627 0.4046 0.4515
C14 C 0.3033(4) 0.4813(3) 0.48059(14)
C17_3 C 0.3762(5) 0.5310(3) 0.47986(18)
H20_4 H 0.3783 0.5600 0.5006
C20_3 C 0.4450(5) 0.5366(3) 0.44803(18)
H23_3 H 0.4932 0.5706 0.4462
C23 C 0.4431(5) 0.4932(2) 0.41935(16)
H26 H 0.4910 0.4977 0.3978
C26_3 C 0.2224(5) 0.4713(3) 0.51271(15)
H29_3 H 0.2340 0.4303 0.5245
H32_4 H 0.2335 0.5026 0.5334
C29_3 C 0.0316(4) 0.4585(3) 0.52918(17)
H35_3 H 0.0471 0.4161 0.5381
H38_3 H 0.0412 0.4866 0.5517
C32_3 C 0.0830(5) 0.5376(3) 0.48537(16)
H41_4 H 0.0928 0.5661 0.5077
H44_3 H 0.1335 0.5502 0.4643
N5_2 N 0.3729(4) 0.3055(2) 0.42017(13)
N9_3 N 0.8578(3) 0.2257(2) 0.50242(12)
N10_2 N 0.6422(3) 0.2743(2) 0.49758(12)
C11_2 C 0.4406(4) 0.3107(2) 0.45058(15)
H17_2 H 0.4873 0.3454 0.4515
C14_2 C 0.4467(4) 0.2687(3) 0.48059(14)
C17_4 C 0.3738(5) 0.2190(3) 0.47986(18)
H20_5 H 0.3717 0.1900 0.5006
C20_4 C 0.3050(5) 0.2134(3) 0.44803(18)
H23_4 H 0.2568 0.1794 0.4462
C23_2 C 0.3069(5) 0.2568(2) 0.41935(16)
H26_2 H 0.2590 0.2523 0.3978
C25_2 C 0.9724(5) 0.2213(3) 0.48729(15)
C26_4 C 0.5276(5) 0.2787(3) 0.51271(15)
H28_2 H 0.9840 0.1803 0.4755
H29_4 H 0.5160 0.3197 0.5245
H31 H 0.9835 0.2526 0.4666
H32_5 H 0.5165 0.2474 0.5334
C28_2 C 0.7816(4) 0.2085(3) 0.47082(17)
C29_4 C 0.7184(4) 0.2915(3) 0.52918(17)
H34_2 H 0.7971 0.1661 0.4619
H35_4 H 0.7029 0.3339 0.5381
H37_2 H 0.7912 0.2366 0.4483
H38_4 H 0.7088 0.2634 0.5517
C31_2 C 0.8330(5) 0.2876(3) 0.51463(16)
C32_4 C 0.6670(5) 0.2124(3) 0.48537(16)
H40 H 0.8428 0.3161 0.4923
H41_5 H 0.6572 0.1839 0.5077
H43_2 H 0.8835 0.3002 0.5357
H44_4 H 0.6165 0.1998 0.4643
N5_3 N 0.3729(4) 0.4445(2) 0.32983(13)
N9_4 N 0.8578(3) 0.5243(2) 0.24758(12)
N10_3 N 0.6422(3) 0.4757(2) 0.25242(12)
C11_3 C 0.4406(4) 0.4393(2) 0.29942(15)
H17_3 H 0.4873 0.4046 0.2985
C14_3 C 0.4467(4) 0.4813(3) 0.26941(14)
C17_5 C 0.3738(5) 0.5310(3) 0.27014(18)
H20_6 H 0.3717 0.5600 0.2494
C20_5 C 0.3050(5) 0.5366(3) 0.30197(18)
H23_5 H 0.2568 0.5706 0.3038
C23_3 C 0.3069(5) 0.4932(2) 0.33065(16)
H26_3 H 0.2590 0.4977 0.3522
C25_3 C 0.9724(5) 0.5287(3) 0.26271(15)
C26_5 C 0.5276(5) 0.4713(3) 0.23729(15)
H28_3 H 0.9840 0.5697 0.2745
H29_5 H 0.5160 0.4303 0.2255
H31_2 H 0.9835 0.4974 0.2834
H32_6 H 0.5165 0.5026 0.2166
C28_3 C 0.7816(4) 0.5415(3) 0.27918(17)
C29_5 C 0.7184(4) 0.4585(3) 0.22082(17)
H34_3 H 0.7971 0.5839 0.2881
H35_5 H 0.7029 0.4161 0.2119
H37_3 H 0.7912 0.5134 0.3017
H38_5 H 0.7088 0.4866 0.1983
C31_3 C 0.8330(5) 0.4624(3) 0.23537(16)
C32_5 C 0.6670(5) 0.5376(3) 0.26463(16)
H40_2 H 0.8428 0.4339 0.2577
H41_6 H 0.6572 0.5661 0.2423
H43_3 H 0.8835 0.4498 0.2143
H44_5 H 0.6165 0.5502 0.2857
N5_4 N 0.3771(4) 0.3055(2) 0.32983(13)
N10_4 N 0.1078(3) 0.2743(2) 0.25242(12)
C11_4 C 0.3094(4) 0.3107(2) 0.29942(15)
H17_4 H 0.2627 0.3454 0.2985
C14_4 C 0.3033(4) 0.2687(3) 0.26941(14)
C17_6 C 0.3762(5) 0.2190(3) 0.27014(18)
H20_7 H 0.3783 0.1900 0.2494
C20_6 C 0.4450(5) 0.2134(3) 0.30197(18)
H23_6 H 0.4932 0.1794 0.3038
C23_4 C 0.4431(5) 0.2568(2) 0.33065(16)
H26_4 H 0.4910 0.2523 0.3522
C26_6 C 0.2224(5) 0.2787(3) 0.23729(15)
H29_6 H 0.2340 0.3197 0.2255
H32_7 H 0.2335 0.2474 0.2166
C29_6 C 0.0316(4) 0.2915(3) 0.22082(17)
H35_6 H 0.0471 0.3339 0.2119
H38_6 H 0.0412 0.2634 0.1983
C32_6 C 0.0830(5) 0.2124(3) 0.26463(16)
H41_7 H 0.0928 0.1839 0.2423
H44_6 H 0.1335 0.1998 0.2857
O1_3 O 0.2025(5) 0.3750 0.3750
H1_3 H 0.161(5) 0.364(3) 0.3549(14)
O2 O 0.5475(5) 0.3750 0.3750
H12_3 H 0.161(5) 0.386(3) 0.3951(14)
H13 H 0.589(5) 0.364(3) 0.3951(14)
H14 H 0.589(5) 0.386(3) 0.3549(14)
Zn2_2 Zn 0.3750 0.8750 0.8750
N5_5 N 0.3771(4) 0.9445(2) 0.92017(13)
N10_5 N 0.1078(3) 0.9757(2) 0.99758(12)
C11_5 C 0.3094(4) 0.9393(2) 0.95058(15)
H17_5 H 0.2627 0.9046 0.9515
C14_5 C 0.3033(4) 0.9813(3) 0.98059(14)
C23_5 C 0.4431(5) 0.9932(2) 0.91935(16)
H26_5 H 0.4910 0.9977 0.8978
N5_6 N 0.3729(4) 0.8055(2) 0.92017(13)
N10_6 N 0.6422(3) 0.7743(2) 0.99758(12)
C11_6 C 0.4406(4) 0.8107(2) 0.95058(15)
H17_6 H 0.4873 0.8454 0.9515
C14_6 C 0.4467(4) 0.7687(3) 0.98059(14)
C17_7 C 0.3738(5) 0.7190(3) 0.97986(18)
C20_7 C 0.3050(5) 0.7134(3) 0.94803(18)
H23_7 H 0.2568 0.6794 0.9462
C23_6 C 0.3069(5) 0.7568(2) 0.91935(16)
H26_6 H 0.2590 0.7523 0.8978
C25_4 C 0.9724(5) 0.7213(3) 0.98729(15)
H28_4 H 0.9840 0.6803 0.9755
H31_3 H 0.9835 0.7526 0.9666
C28_4 C 0.7816(4) 0.7085(3) 0.97082(17)
H34_4 H 0.7971 0.6661 0.9619
H37_4 H 0.7912 0.7366 0.9483
C32_7 C 0.6670(5) 0.7124(3) 0.98537(16)
H40_3 H 0.8428 0.8161 0.9923
H44_7 H 0.6165 0.6998 0.9643
N5_7 N 0.3729(4) 0.9445(2) 0.82983(13)
N10_7 N 0.6422(3) 0.9757(2) 0.75242(12)
C11_7 C 0.4406(4) 0.9393(2) 0.79942(15)
H17_7 H 0.4873 0.9046 0.7985
C14_7 C 0.4467(4) 0.9813(3) 0.76941(14)
C23_7 C 0.3069(5) 0.9932(2) 0.83065(16)
H26_7 H 0.2590 0.9977 0.8522
C26_7 C 0.5276(5) 0.9713(3) 0.73729(15)
H29_7 H 0.5160 0.9303 0.7255
H31_4 H 0.9835 0.9974 0.7834
C29_7 C 0.7184(4) 0.9585(3) 0.72082(17)
H35_7 H 0.7029 0.9161 0.7119
H38_7 H 0.7088 0.9866 0.6983
C31_4 C 0.8330(5) 0.9624(3) 0.73537(16)
H40_4 H 0.8428 0.9339 0.7577
H43_4 H 0.8835 0.9498 0.7143
N5_8 N 0.3771(4) 0.8055(2) 0.82983(13)
N10_8 N 0.1078(3) 0.7743(2) 0.75242(12)
C11_8 C 0.3094(4) 0.8107(2) 0.79942(15)
H17_8 H 0.2627 0.8454 0.7985
C14_8 C 0.3033(4) 0.7687(3) 0.76941(14)
C17_8 C 0.3762(5) 0.7190(3) 0.77014(18)
H20_8 H 0.3783 0.6900 0.7494
C20_8 C 0.4450(5) 0.7134(3) 0.80197(18)
H23_8 H 0.4932 0.6794 0.8038
C23_8 C 0.4431(5) 0.7568(2) 0.83065(16)
H26_8 H 0.4910 0.7523 0.8522
C26_8 C 0.2224(5) 0.7787(3) 0.73729(15)
H29_8 H 0.2340 0.8197 0.7255
H32_8 H 0.2335 0.7474 0.7166
C29_8 C 0.0316(4) 0.7915(3) 0.72082(17)
H35_8 H 0.0471 0.8339 0.7119
H38_8 H 0.0412 0.7634 0.6983
C32_8 C 0.0830(5) 0.7124(3) 0.76463(16)
H41_8 H 0.0928 0.6839 0.7423
H44_8 H 0.1335 0.6998 0.7857
O1_4 O 0.2025(5) 0.8750 0.8750
H1_4 H 0.161(5) 0.886(3) 0.8951(14)
O2_2 O 0.5475(5) 0.8750 0.8750
H12_4 H 0.161(5) 0.864(3) 0.8549(14)
H13_2 H 0.589(5) 0.886(3) 0.8549(14)
H14_2 H 0.589(5) 0.864(3) 0.8951(14)
Zn1 Zn 0.6250 0.1250 0.1250
O1_5 O 0.7975(5) 0.1250 0.1250
H1_5 H 0.839(5) 0.114(3) 0.1049(14)
N1 N 0.6271(4) 0.1945(2) 0.07983(13)
N2 N 0.3578(3) 0.2257(2) 0.00242(12)
C1 C 0.5594(4) 0.1893(2) 0.04942(15)
H2 H 0.5127 0.1546 0.0485
C2 C 0.5533(4) 0.2313(3) 0.01941(14)
C3 C 0.6262(5) 0.2810(3) 0.02014(18)
C4 C 0.6950(5) 0.2866(3) 0.05197(18)
H4 H 0.7432 0.3206 0.0538
C5 C 0.6931(5) 0.2432(2) 0.08065(16)
H5 H 0.7410 0.2477 0.1022
C8 C 0.3330(5) 0.2876(3) 0.01463(16)
H11 H 0.3835 0.3002 0.0357
O2_3 O 0.4525(5) 0.1250 0.1250
H12_5 H 0.839(5) 0.136(3) 0.1451(14)
H13_3 H 0.411(5) 0.114(3) 0.1451(14)
H14_3 H 0.411(5) 0.136(3) 0.1049(14)
N4 N 0.6229(4) 0.0555(2) 0.07983(13)
N6 N 0.6229(4) 0.1945(2) 0.17017(13)
N7 N 0.6271(4) 0.0555(2) 0.17017(13)
N9_5 N 0.8922(3) 0.0243(2) 0.00242(12)
C10 C 0.6906(4) 0.0607(2) 0.04942(15)
H16 H 0.7373 0.0954 0.0485
C13 C 0.6967(4) 0.0187(3) 0.01941(14)
C22 C 0.5569(5) 0.0068(2) 0.08065(16)
H25 H 0.5090 0.0023 0.1022
C24 C 0.0276(5) 0.2787(3) 0.01271(15)
H27 H 0.0160 0.3197 0.0245
H30 H 0.0165 0.2474 0.0334
C27 C 0.2184(4) 0.2915(3) 0.02918(17)
H33 H 0.2029 0.3339 0.0381
H36 H 0.2088 0.2634 0.0517
H39 H 0.1572 0.1839 0.0077
N2_2 N 0.3578(3) 0.0243(2) 0.24758(12)
C1_2 C 0.5594(4) 0.0607(2) 0.20058(15)
H2_2 H 0.5127 0.0954 0.2015
C2_2 C 0.5533(4) 0.0187(3) 0.23059(14)
C5_2 C 0.6931(5) 0.0068(2) 0.16935(16)
H5_2 H 0.7410 0.0023 0.1478
C6 C 0.4724(5) 0.0287(3) 0.26271(15)
H6 H 0.4840 0.0697 0.2745
C7 C 0.2816(4) 0.0415(3) 0.27918(17)
H8 H 0.2971 0.0839 0.2881
H9 H 0.2912 0.0134 0.3017
N9_6 N 0.8922(3) 0.2257(2) 0.24758(12)
C10_2 C 0.6906(4) 0.1893(2) 0.20058(15)
H16_2 H 0.7373 0.1546 0.2015
C13_2 C 0.6967(4) 0.2313(3) 0.23059(14)
C16 C 0.6238(5) 0.2810(3) 0.22986(18)
H19 H 0.6217 0.3100 0.2506
C19 C 0.5550(5) 0.2866(3) 0.19803(18)
H22 H 0.5068 0.3206 0.1962
C22_2 C 0.5569(5) 0.2432(2) 0.16935(16)
H25_2 H 0.5090 0.2477 0.1478
C25_5 C 0.7776(5) 0.2213(3) 0.26271(15)
H28_5 H 0.7660 0.1803 0.2745
H30_2 H 0.0165 0.0026 0.2166
H31_5 H 0.7665 0.2526 0.2834
C28_5 C 0.9684(4) 0.2085(3) 0.27918(17)
H34_5 H 0.9529 0.1661 0.2881
H37_5 H 0.9588 0.2366 0.3017
C30 C 0.1670(5) 0.0376(3) 0.26463(16)
C31_5 C 0.9170(5) 0.2876(3) 0.23537(16)
H39_2 H 0.1572 0.0661 0.2423
H40_5 H 0.9072 0.3161 0.2577
H42 H 0.1165 0.0502 0.2857
H43_5 H 0.8665 0.3002 0.2143
H3 H 0.6283 0.3100 0.9994
C6_2 C 0.4724(5) 0.2213(3) 0.98729(15)
H6_2 H 0.4840 0.1803 0.9755
H7 H 0.4835 0.2526 0.9666
C7_2 C 0.2816(4) 0.2085(3) 0.97082(17)
H8_2 H 0.2971 0.1661 0.9619
H9_2 H 0.2912 0.2366 0.9483
H10 H 0.3428 0.3161 0.9923
N8 N 0.1422(3) 0.2743(2) 0.99758(12)
C25_6 C 0.7776(5) 0.0287(3) 0.98729(15)
H28_6 H 0.7660 0.0697 0.9755
C28_6 C 0.9684(4) 0.0415(3) 0.97082(17)
H34_6 H 0.9529 0.0839 0.9619
H37_6 H 0.9588 0.0134 0.9483
C30_2 C 0.1670(5) 0.2124(3) 0.98537(16)
H42_2 H 0.1165 0.1998 0.9643
Zn1_2 Zn 0.6250 0.6250 0.6250
O1_6 O 0.7975(5) 0.6250 0.6250
H1_6 H 0.839(5) 0.636(3) 0.6451(14)
N1_2 N 0.6271(4) 0.5555(2) 0.67017(13)
N2_3 N 0.3578(3) 0.5243(2) 0.74758(12)
C1_3 C 0.5594(4) 0.5607(2) 0.70058(15)
H2_3 H 0.5127 0.5954 0.7015
C2_3 C 0.5533(4) 0.5187(3) 0.73059(14)
C3_2 C 0.6262(5) 0.4690(3) 0.72986(18)
H3_2 H 0.6283 0.4400 0.7506
C4_2 C 0.6950(5) 0.4634(3) 0.69803(18)
H4_2 H 0.7432 0.4294 0.6962
C5_3 C 0.6931(5) 0.5068(2) 0.66935(16)
H5_3 H 0.7410 0.5023 0.6478
C6_3 C 0.4724(5) 0.5287(3) 0.76271(15)
H6_3 H 0.4840 0.5697 0.7745
H7_2 H 0.4835 0.4974 0.7834
C7_3 C 0.2816(4) 0.5415(3) 0.77918(17)
H8_3 H 0.2971 0.5839 0.7881
H9_3 H 0.2912 0.5134 0.8017
C8_2 C 0.3330(5) 0.4624(3) 0.73537(16)
H10_2 H 0.3428 0.4339 0.7577
H11_2 H 0.3835 0.4498 0.7143
O2_4 O 0.4525(5) 0.6250 0.6250
H12_6 H 0.839(5) 0.614(3) 0.6049(14)
H13_4 H 0.411(5) 0.636(3) 0.6049(14)
H14_4 H 0.411(5) 0.614(3) 0.6451(14)
N4_2 N 0.6229(4) 0.6945(2) 0.67017(13)
N6_2 N 0.6229(4) 0.5555(2) 0.57983(13)
N7_2 N 0.6271(4) 0.6945(2) 0.57983(13)
N8_2 N 0.1422(3) 0.4757(2) 0.75242(12)
N9_7 N 0.8922(3) 0.7257(2) 0.74758(12)
C10_3 C 0.6906(4) 0.6893(2) 0.70058(15)
H16_3 H 0.7373 0.6546 0.7015
C13_3 C 0.6967(4) 0.7313(3) 0.73059(14)
C16_2 C 0.6238(5) 0.7810(3) 0.72986(18)
H19_2 H 0.6217 0.8100 0.7506
C19_2 C 0.5550(5) 0.7866(3) 0.69803(18)
H22_2 H 0.5068 0.8206 0.6962
C22_3 C 0.5569(5) 0.7432(2) 0.66935(16)
H25_3 H 0.5090 0.7477 0.6478
C24_2 C 0.0276(5) 0.4713(3) 0.73729(15)
C25_7 C 0.7776(5) 0.7213(3) 0.76271(15)
H27_2 H 0.0160 0.4303 0.7255
H28_7 H 0.7660 0.6803 0.7745
H30_3 H 0.0165 0.5026 0.7166
H31_6 H 0.7665 0.7526 0.7834
C27_2 C 0.2184(4) 0.4585(3) 0.72082(17)
C28_7 C 0.9684(4) 0.7085(3) 0.77918(17)
H33_2 H 0.2029 0.4161 0.7119
H34_7 H 0.9529 0.6661 0.7881
H36_2 H 0.2088 0.4866 0.6983
H37_7 H 0.9588 0.7366 0.8017
C30_3 C 0.1670(5) 0.5376(3) 0.76463(16)
C31_6 C 0.9170(5) 0.7876(3) 0.73537(16)
H39_3 H 0.1572 0.5661 0.7423
H40_6 H 0.9072 0.8161 0.7577
H42_3 H 0.1165 0.5502 0.7857
H43_6 H 0.8665 0.8002 0.7143
N2_4 N 0.3578(3) 0.7257(2) 0.50242(12)
C1_4 C 0.5594(4) 0.6893(2) 0.54942(15)
H2_4 H 0.5127 0.6546 0.5485
C2_4 C 0.5533(4) 0.7313(3) 0.51941(14)
C3_3 C 0.6262(5) 0.7810(3) 0.52014(18)
H3_3 H 0.6283 0.8100 0.4994
C4_3 C 0.6950(5) 0.7866(3) 0.55197(18)
H4_3 H 0.7432 0.8206 0.5538
C5_4 C 0.6931(5) 0.7432(2) 0.58065(16)
H5_4 H 0.7410 0.7477 0.6022
C6_4 C 0.4724(5) 0.7213(3) 0.48729(15)
H6_4 H 0.4840 0.6803 0.4755
H7_3 H 0.4835 0.7526 0.4666
C7_4 C 0.2816(4) 0.7085(3) 0.47082(17)
H8_4 H 0.2971 0.6661 0.4619
H9_4 H 0.2912 0.7366 0.4483
C8_3 C 0.3330(5) 0.7876(3) 0.51463(16)
H10_3 H 0.3428 0.8161 0.4923
H11_3 H 0.3835 0.8002 0.5357
N8_3 N 0.1422(3) 0.7743(2) 0.49758(12)
N9_8 N 0.8922(3) 0.5243(2) 0.50242(12)
C10_4 C 0.6906(4) 0.5607(2) 0.54942(15)
H16_4 H 0.7373 0.5954 0.5485
C13_4 C 0.6967(4) 0.5187(3) 0.51941(14)
C16_3 C 0.6238(5) 0.4690(3) 0.52014(18)
H19_3 H 0.6217 0.4400 0.4994
C19_3 C 0.5550(5) 0.4634(3) 0.55197(18)
H22_3 H 0.5068 0.4294 0.5538
C22_4 C 0.5569(5) 0.5068(2) 0.58065(16)
H25_4 H 0.5090 0.5023 0.6022
C24_3 C 0.0276(5) 0.7787(3) 0.51271(15)
C25_8 C 0.7776(5) 0.5287(3) 0.48729(15)
H27_3 H 0.0160 0.8197 0.5245
H28_8 H 0.7660 0.5697 0.4755
H30_4 H 0.0165 0.7474 0.5334
H31_7 H 0.7665 0.4974 0.4666
C27_3 C 0.2184(4) 0.7915(3) 0.52918(17)
C28_8 C 0.9684(4) 0.5415(3) 0.47082(17)
H33_3 H 0.2029 0.8339 0.5381
H34_8 H 0.9529 0.5839 0.4619
H36_3 H 0.2088 0.7634 0.5517
H37_8 H 0.9588 0.5134 0.4483
C30_4 C 0.1670(5) 0.7124(3) 0.48537(16)
C31_7 C 0.9170(5) 0.4624(3) 0.51463(16)
H39_4 H 0.1572 0.6839 0.5077
H40_7 H 0.9072 0.4339 0.4923
H42_4 H 0.1165 0.6998 0.4643
H43_7 H 0.8665 0.4498 0.5357
C3_4 C 0.6262(5) 0.9690(3) 0.22986(18)
H3_4 H 0.6283 0.9400 0.2506
C4_4 C 0.6950(5) 0.9634(3) 0.19803(18)
H4_4 H 0.7432 0.9294 0.1962
H7_4 H 0.4835 0.9974 0.2834
C8_4 C 0.3330(5) 0.9624(3) 0.23537(16)
H10_4 H 0.3428 0.9339 0.2577
H11_4 H 0.3835 0.9498 0.2143
N8_4 N 0.1422(3) 0.9757(2) 0.25242(12)
C24_4 C 0.0276(5) 0.9713(3) 0.23729(15)
H27_4 H 0.0160 0.9303 0.2255
C27_4 C 0.2184(4) 0.9585(3) 0.22082(17)
H33_4 H 0.2029 0.9161 0.2119
H36_4 H 0.2088 0.9866 0.1983
O1_7 O 0.0475(5) 0.3750 0.8750
H1_7 H 0.089(5) 0.364(3) 0.8951(14)
H12_7 H 0.089(5) 0.386(3) 0.8549(14)
O1_8 O 0.0475(5) 0.8750 0.3750
H1_8 H 0.089(5) 0.886(3) 0.3549(14)
H12_8 H 0.089(5) 0.864(3) 0.3951(14)
C16_4 C 0.6238(5) 0.9690(3) 0.02014(18)
C19_4 C 0.5550(5) 0.9634(3) 0.05197(18)
H22_4 H 0.5068 0.9294 0.0538
C31_8 C 0.9170(5) 0.9624(3) 0.01463(16)
H43_8 H 0.8665 0.9498 0.0357
H19_4 H 0.6217 0.9400 0.9994
H31_8 H 0.7665 0.9974 0.9666
H40_8 H 0.9072 0.9339 0.9923
H18 H 0.8717 0.1900 0.0006
Zn1_3 Zn 0.1250 0.6250 0.1250
N1_3 N 0.1229(4) 0.5555(2) 0.07983(13)
N2_5 N 0.3922(3) 0.5243(2) 0.00242(12)
C1_5 C 0.1906(4) 0.5607(2) 0.04942(15)
H2_5 H 0.2373 0.5954 0.0485
C2_5 C 0.1967(4) 0.5187(3) 0.01941(14)
C3_5 C 0.1238(5) 0.4690(3) 0.02014(18)
C4_5 C 0.0550(5) 0.4634(3) 0.05197(18)
H4_5 H 0.0068 0.4294 0.0538
C5_5 C 0.0569(5) 0.5068(2) 0.08065(16)
H5_5 H 0.0090 0.5023 0.1022
C8_5 C 0.4170(5) 0.4624(3) 0.01463(16)
H11_5 H 0.3665 0.4498 0.0357
O2_5 O 0.2975(5) 0.6250 0.1250
H13_5 H 0.339(5) 0.636(3) 0.1451(14)
H14_5 H 0.339(5) 0.614(3) 0.1049(14)
N4_3 N 0.1271(4) 0.6945(2) 0.07983(13)
N6_3 N 0.1271(4) 0.5555(2) 0.17017(13)
N7_3 N 0.1229(4) 0.6945(2) 0.17017(13)
C10_5 C 0.0594(4) 0.6893(2) 0.04942(15)
H16_5 H 0.0127 0.6546 0.0485
C13_5 C 0.0533(4) 0.7313(3) 0.01941(14)
C16_5 C 0.1262(5) 0.7810(3) 0.02014(18)
H18_2 H 0.8783 0.5600 0.0006
C19_5 C 0.1950(5) 0.7866(3) 0.05197(18)
H22_5 H 0.2432 0.8206 0.0538
C22_5 C 0.1931(5) 0.7432(2) 0.08065(16)
H25_5 H 0.2410 0.7477 0.1022
C24_5 C 0.7224(5) 0.4713(3) 0.01271(15)
H27_5 H 0.7340 0.4303 0.0245
H30_5 H 0.7335 0.5026 0.0334
C27_5 C 0.5316(4) 0.4585(3) 0.02918(17)
H33_5 H 0.5471 0.4161 0.0381
H36_5 H 0.5412 0.4866 0.0517
H39_5 H 0.5928 0.5661 0.0077
Zn3 Zn 0.8750 0.8750 0.3750
N3 N 0.8729(4) 0.8055(2) 0.42017(13)
C9 C 0.9406(4) 0.8107(2) 0.45058(15)
H15 H 0.9873 0.8454 0.4515
C12 C 0.9467(4) 0.7687(3) 0.48059(14)
C15 C 0.8738(5) 0.7190(3) 0.47986(18)
H18_3 H 0.8717 0.6900 0.5006
C18 C 0.8050(5) 0.7134(3) 0.44803(18)
H21 H 0.7568 0.6794 0.4462
C21 C 0.8069(5) 0.7568(2) 0.41935(16)
H24 H 0.7590 0.7523 0.3978
C3_6 C 0.1238(5) 0.9690(3) 0.52014(18)
H3_5 H 0.1217 0.9400 0.4994
C4_6 C 0.0550(5) 0.9634(3) 0.55197(18)
H4_6 H 0.0068 0.9294 0.5538
H7_5 H 0.2665 0.9974 0.4666
C8_6 C 0.4170(5) 0.9624(3) 0.51463(16)
H10_5 H 0.4072 0.9339 0.4923
H11_6 H 0.3665 0.9498 0.5357
N3_2 N 0.8771(4) 0.9445(2) 0.42017(13)
N8_5 N 0.6078(3) 0.9757(2) 0.49758(12)
C9_2 C 0.8094(4) 0.9393(2) 0.45058(15)
H15_2 H 0.7627 0.9046 0.4515
C12_2 C 0.8033(4) 0.9813(3) 0.48059(14)
C21_2 C 0.9431(5) 0.9932(2) 0.41935(16)
H24_2 H 0.9910 0.9977 0.3978
C24_6 C 0.7224(5) 0.9713(3) 0.51271(15)
H27_6 H 0.7340 0.9303 0.5245
C27_6 C 0.5316(4) 0.9585(3) 0.52918(17)
H33_6 H 0.5471 0.9161 0.5381
H36_6 H 0.5412 0.9866 0.5517
N2_6 N 0.3922(3) 0.7257(2) 0.24758(12)
C1_6 C 0.1906(4) 0.6893(2) 0.20058(15)
H2_6 H 0.2373 0.6546 0.2015
C2_6 C 0.1967(4) 0.7313(3) 0.23059(14)
C3_7 C 0.1238(5) 0.7810(3) 0.22986(18)
H3_6 H 0.1217 0.8100 0.2506
C4_7 C 0.0550(5) 0.7866(3) 0.19803(18)
H4_7 H 0.0068 0.8206 0.1962
C5_6 C 0.0569(5) 0.7432(2) 0.16935(16)
H5_6 H 0.0090 0.7477 0.1478
C6_5 C 0.2776(5) 0.7213(3) 0.26271(15)
H6_5 H 0.2660 0.6803 0.2745
H7_6 H 0.2665 0.7526 0.2834
C7_5 C 0.4684(4) 0.7085(3) 0.27918(17)
H8_5 H 0.4529 0.6661 0.2881
H9_5 H 0.4588 0.7366 0.3017
C8_7 C 0.4170(5) 0.7876(3) 0.23537(16)
H10_6 H 0.4072 0.8161 0.2577
H11_7 H 0.3665 0.8002 0.2143
N3_3 N 0.8771(4) 0.8055(2) 0.32983(13)
N8_6 N 0.6078(3) 0.7743(2) 0.25242(12)
C9_3 C 0.8094(4) 0.8107(2) 0.29942(15)
C10_6 C 0.0594(4) 0.5607(2) 0.20058(15)
H15_3 H 0.7627 0.8454 0.2985
H16_6 H 0.0127 0.5954 0.2015
C12_3 C 0.8033(4) 0.7687(3) 0.26941(14)
C13_6 C 0.0533(4) 0.5187(3) 0.23059(14)
C15_2 C 0.8762(5) 0.7190(3) 0.27014(18)
C16_6 C 0.1262(5) 0.4690(3) 0.22986(18)
H18_4 H 0.8783 0.6900 0.2494
H19_5 H 0.1283 0.4400 0.2506
C18_2 C 0.9450(5) 0.7134(3) 0.30197(18)
C19_6 C 0.1950(5) 0.4634(3) 0.19803(18)
H21_2 H 0.9932 0.6794 0.3038
H22_6 H 0.2432 0.4294 0.1962
C21_3 C 0.9431(5) 0.7568(2) 0.33065(16)
C22_6 C 0.1931(5) 0.5068(2) 0.16935(16)
H24_3 H 0.9910 0.7523 0.3522
H25_6 H 0.2410 0.5023 0.1478
C24_7 C 0.7224(5) 0.7787(3) 0.23729(15)
H27_7 H 0.7340 0.8197 0.2255
H30_6 H 0.7335 0.7474 0.2166
C27_7 C 0.5316(4) 0.7915(3) 0.22082(17)
H33_7 H 0.5471 0.8339 0.2119
H36_7 H 0.5412 0.7634 0.1983
C30_5 C 0.5830(5) 0.7124(3) 0.26463(16)
H39_6 H 0.5928 0.6839 0.2423
H42_5 H 0.6335 0.6998 0.2857
N3_4 N 0.8729(4) 0.9445(2) 0.32983(13)
C9_4 C 0.9406(4) 0.9393(2) 0.29942(15)
H15_4 H 0.9873 0.9046 0.2985
C12_4 C 0.9467(4) 0.9813(3) 0.26941(14)
C21_4 C 0.8069(5) 0.9932(2) 0.33065(16)
H24_4 H 0.7590 0.9977 0.3522
O2_6 O 0.7025(5) 0.8750 0.3750
H13_6 H 0.661(5) 0.886(3) 0.3951(14)
H14_6 H 0.661(5) 0.864(3) 0.3549(14)
Zn3_2 Zn 0.8750 0.3750 0.8750
N3_5 N 0.8729(4) 0.3055(2) 0.92017(13)
C9_5 C 0.9406(4) 0.3107(2) 0.95058(15)
H15_5 H 0.9873 0.3454 0.9515
C12_5 C 0.9467(4) 0.2687(3) 0.98059(14)
C15_3 C 0.8738(5) 0.2190(3) 0.97986(18)
C18_3 C 0.8050(5) 0.2134(3) 0.94803(18)
H21_3 H 0.7568 0.1794 0.9462
C21_5 C 0.8069(5) 0.2568(2) 0.91935(16)
H24_5 H 0.7590 0.2523 0.8978
H3_7 H 0.1217 0.4400 0.9994
C6_6 C 0.2776(5) 0.5287(3) 0.98729(15)
H6_6 H 0.2660 0.5697 0.9755
H7_7 H 0.2665 0.4974 0.9666
C7_6 C 0.4684(4) 0.5415(3) 0.97082(17)
H8_6 H 0.4529 0.5839 0.9619
H9_6 H 0.4588 0.5134 0.9483
H10_7 H 0.4072 0.4339 0.9923
N3_6 N 0.8771(4) 0.4445(2) 0.92017(13)
N8_7 N 0.6078(3) 0.4757(2) 0.99758(12)
C9_6 C 0.8094(4) 0.4393(2) 0.95058(15)
H15_6 H 0.7627 0.4046 0.9515
C12_6 C 0.8033(4) 0.4813(3) 0.98059(14)
C15_4 C 0.8762(5) 0.5310(3) 0.97986(18)
H19_6 H 0.1283 0.8100 0.9994
C18_4 C 0.9450(5) 0.5366(3) 0.94803(18)
H21_4 H 0.9932 0.5706 0.9462
C21_6 C 0.9431(5) 0.4932(2) 0.91935(16)
H24_6 H 0.9910 0.4977 0.8978
C30_6 C 0.5830(5) 0.5376(3) 0.98537(16)
H42_6 H 0.6335 0.5502 0.9643
Zn1_4 Zn 0.1250 0.1250 0.6250
N1_4 N 0.1229(4) 0.1945(2) 0.67017(13)
N2_7 N 0.3922(3) 0.2257(2) 0.74758(12)
C1_7 C 0.1906(4) 0.1893(2) 0.70058(15)
H2_7 H 0.2373 0.1546 0.7015
C2_7 C 0.1967(4) 0.2313(3) 0.73059(14)
C3_8 C 0.1238(5) 0.2810(3) 0.72986(18)
H3_8 H 0.1217 0.3100 0.7506
C4_8 C 0.0550(5) 0.2866(3) 0.69803(18)
H4_8 H 0.0068 0.3206 0.6962
C5_7 C 0.0569(5) 0.2432(2) 0.66935(16)
H5_7 H 0.0090 0.2477 0.6478
C6_7 C 0.2776(5) 0.2213(3) 0.76271(15)
H6_7 H 0.2660 0.1803 0.7745
H7_8 H 0.2665 0.2526 0.7834
C7_7 C 0.4684(4) 0.2085(3) 0.77918(17)
H8_7 H 0.4529 0.1661 0.7881
H9_7 H 0.4588 0.2366 0.8017
C8_8 C 0.4170(5) 0.2876(3) 0.73537(16)
H10_8 H 0.4072 0.3161 0.7577
H11_8 H 0.3665 0.3002 0.7143
O2_7 O 0.2975(5) 0.1250 0.6250
H13_7 H 0.339(5) 0.114(3) 0.6049(14)
H14_7 H 0.339(5) 0.136(3) 0.6451(14)
N3_7 N 0.8771(4) 0.3055(2) 0.82983(13)
N4_4 N 0.1271(4) 0.0555(2) 0.67017(13)
N6_4 N 0.1271(4) 0.1945(2) 0.57983(13)
N7_4 N 0.1229(4) 0.0555(2) 0.57983(13)
N8_8 N 0.6078(3) 0.2743(2) 0.75242(12)
C9_7 C 0.8094(4) 0.3107(2) 0.79942(15)
C10_7 C 0.0594(4) 0.0607(2) 0.70058(15)
H15_7 H 0.7627 0.3454 0.7985
H16_7 H 0.0127 0.0954 0.7015
C12_7 C 0.8033(4) 0.2687(3) 0.76941(14)
C13_7 C 0.0533(4) 0.0187(3) 0.73059(14)
C15_5 C 0.8762(5) 0.2190(3) 0.77014(18)
H18_5 H 0.8783 0.1900 0.7494
C18_5 C 0.9450(5) 0.2134(3) 0.80197(18)
H21_5 H 0.9932 0.1794 0.8038
C21_7 C 0.9431(5) 0.2568(2) 0.83065(16)
C22_7 C 0.1931(5) 0.0068(2) 0.66935(16)
H24_7 H 0.9910 0.2523 0.8522
H25_7 H 0.2410 0.0023 0.6478
C24_8 C 0.7224(5) 0.2787(3) 0.73729(15)
H27_8 H 0.7340 0.3197 0.7255
H30_7 H 0.7335 0.2474 0.7166
C27_8 C 0.5316(4) 0.2915(3) 0.72082(17)
H33_8 H 0.5471 0.3339 0.7119
H36_8 H 0.5412 0.2634 0.6983
C30_7 C 0.5830(5) 0.2124(3) 0.76463(16)
H39_7 H 0.5928 0.1839 0.7423
H42_7 H 0.6335 0.1998 0.7857
N3_8 N 0.8729(4) 0.4445(2) 0.82983(13)
C9_8 C 0.9406(4) 0.4393(2) 0.79942(15)
H15_8 H 0.9873 0.4046 0.7985
C12_8 C 0.9467(4) 0.4813(3) 0.76941(14)
C15_6 C 0.8738(5) 0.5310(3) 0.77014(18)
H18_6 H 0.8717 0.5600 0.7494
C18_6 C 0.8050(5) 0.5366(3) 0.80197(18)
H21_6 H 0.7568 0.5706 0.8038
C21_8 C 0.8069(5) 0.4932(2) 0.83065(16)
H24_8 H 0.7590 0.4977 0.8522
N2_8 N 0.3922(3) 0.0243(2) 0.50242(12)
C1_8 C 0.1906(4) 0.0607(2) 0.54942(15)
H2_8 H 0.2373 0.0954 0.5485
C2_8 C 0.1967(4) 0.0187(3) 0.51941(14)
C5_8 C 0.0569(5) 0.0068(2) 0.58065(16)
H5_8 H 0.0090 0.0023 0.6022
C6_8 C 0.2776(5) 0.0287(3) 0.48729(15)
H6_8 H 0.2660 0.0697 0.4755
C7_8 C 0.4684(4) 0.0415(3) 0.47082(17)
H8_8 H 0.4529 0.0839 0.4619
H9_8 H 0.4588 0.0134 0.4483
C10_8 C 0.0594(4) 0.1893(2) 0.54942(15)
H16_8 H 0.0127 0.1546 0.5485
C13_8 C 0.0533(4) 0.2313(3) 0.51941(14)
C15_7 C 0.8762(5) 0.0310(3) 0.47986(18)
C16_7 C 0.1262(5) 0.2810(3) 0.52014(18)
H18_7 H 0.8783 0.0600 0.5006
H19_7 H 0.1283 0.3100 0.4994
C18_7 C 0.9450(5) 0.0366(3) 0.44803(18)
C19_7 C 0.1950(5) 0.2866(3) 0.55197(18)
H21_7 H 0.9932 0.0706 0.4462
H22_7 H 0.2432 0.3206 0.5538
C22_8 C 0.1931(5) 0.2432(2) 0.58065(16)
H25_8 H 0.2410 0.2477 0.6022
H30_8 H 0.7335 0.0026 0.5334
C30_8 C 0.5830(5) 0.0376(3) 0.48537(16)
H39_8 H 0.5928 0.0661 0.5077
H42_8 H 0.6335 0.0502 0.4643
O2_8 O 0.7025(5) 0.3750 0.8750
H13_8 H 0.661(5) 0.364(3) 0.8549(14)
H14_8 H 0.661(5) 0.386(3) 0.8951(14)
C16_8 C 0.1262(5) 0.9690(3) 0.72986(18)
H19_8 H 0.1283 0.9400 0.7506
C19_8 C 0.1950(5) 0.9634(3) 0.69803(18)
H22_8 H 0.2432 0.9294 0.6962
C15_8 C 0.8738(5) 0.0310(3) 0.27014(18)
H18_8 H 0.8717 0.0600 0.2494
C18_8 C 0.8050(5) 0.0366(3) 0.30197(18)
H21_8 H 0.7568 0.0706 0.3038
loop_
_geom_bond_atom_site_label_1
_geom_bond_atom_site_label_2
_geom_bond_site_symmetry_1
_geom_bond_site_symmetry_2
C20 C17 1_555 1_555
H23 C20 1_555 1_555
H44 C32 1_555 1_555
H29 C26 1_555 1_555
H35 C29 1_555 1_555
H38 C29 1_555 1_555
O1 H1 1_555 1_555
H12 O1 1_555 1_555
H29_2 C26_2 1_555 1_555
H32_2 C26_2 1_555 1_555
H35_2 C29_2 1_555 1_555
H38_2 C29_2 1_555 1_555
C31 N9 1_555 1_555
H43 C31 1_555 1_555
C29_2 C31 1_555 1_555
O1_2 H1_2 1_555 1_555
H12_2 O1_2 1_555 1_555
N9_2 C25 1_555 1_555
H20_3 C17_2 1_555 1_555
C20_2 C17_2 1_555 1_555
H23_2 C20_2 1_555 1_555
H28 C25 1_555 1_555
C28 N9_2 1_555 1_555
H34 C28 1_555 1_555
H37 C28 1_555 1_555
H41_3 C32_2 1_555 1_555
H44_2 C32_2 1_555 1_555
C28 C32_2 1_555 1_555
Zn2 N5 1_555 1_555
N5 C11 1_555 1_555
N10 C26_3 1_555 1_555
C11 H17 1_555 1_555
C14 C11 1_555 1_555
C17_3 C14 1_555 1_555
H20_4 C17_3 1_555 1_555
C20_3 C17_3 1_555 1_555
H23_3 C20_3 1_555 1_555
C23 N5 1_555 1_555
H26 C23 1_555 1_555
C26_3 C14 1_555 1_555
H29_3 C26_3 1_555 1_555
H32_4 C26_3 1_555 1_555
C29_3 N10 1_555 1_555
H35_3 C29_3 1_555 1_555
H38_3 C29_3 1_555 1_555
C32_3 N10 1_555 1_555
H41_4 C32_3 1_555 1_555
H44_3 C32_3 1_555 1_555
C20_3 C23 1_555 1_555
Zn2 N5_2 1_555 1_555
N5_2 C11_2 1_555 1_555
N9_3 C25_2 1_555 1_555
N10_2 C26_4 1_555 1_555
C11_2 H17_2 1_555 1_555
C14_2 C11_2 1_555 1_555
C17_4 C14_2 1_555 1_555
H20_5 C17_4 1_555 1_555
C20_4 C17_4 1_555 1_555
H23_4 C20_4 1_555 1_555
C23_2 N5_2 1_555 1_555
H26_2 C23_2 1_555 1_555
C26_4 C14_2 1_555 1_555
H28_2 C25_2 1_555 1_555
H29_4 C26_4 1_555 1_555
H31 C25_2 1_555 1_555
H32_5 C26_4 1_555 1_555
C28_2 N9_3 1_555 1_555
C29_4 N10_2 1_555 1_555
H34_2 C28_2 1_555 1_555
H35_4 C29_4 1_555 1_555
H37_2 C28_2 1_555 1_555
H38_4 C29_4 1_555 1_555
C31_2 N9_3 1_555 1_555
C32_4 N10_2 1_555 1_555
H40 C31_2 1_555 1_555
H41_5 C32_4 1_555 1_555
H43_2 C31_2 1_555 1_555
H44_4 C32_4 1_555 1_555
C20_4 C23_2 1_555 1_555
C28_2 C32_4 1_555 1_555
C29_4 C31_2 1_555 1_555
Zn2 N5_3 1_555 1_555
N5_3 C11_3 1_555 1_555
N9_4 C25_3 1_555 1_555
N10_3 C26_5 1_555 1_555
C11_3 H17_3 1_555 1_555
C14_3 C11_3 1_555 1_555
C17_5 C14_3 1_555 1_555
H20_6 C17_5 1_555 1_555
C20_5 C17_5 1_555 1_555
H23_5 C20_5 1_555 1_555
C23_3 N5_3 1_555 1_555
H26_3 C23_3 1_555 1_555
C26_5 C14_3 1_555 1_555
H28_3 C25_3 1_555 1_555
H29_5 C26_5 1_555 1_555
H31_2 C25_3 1_555 1_555
H32_6 C26_5 1_555 1_555
C28_3 N9_4 1_555 1_555
C29_5 N10_3 1_555 1_555
H34_3 C28_3 1_555 1_555
H35_5 C29_5 1_555 1_555
H37_3 C28_3 1_555 1_555
H38_5 C29_5 1_555 1_555
C31_3 N9_4 1_555 1_555
C32_5 N10_3 1_555 1_555
H40_2 C31_3 1_555 1_555
H41_6 C32_5 1_555 1_555
H43_3 C31_3 1_555 1_555
H44_5 C32_5 1_555 1_555
C20_5 C23_3 1_555 1_555
C28_3 C32_5 1_555 1_555
C29_5 C31_3 1_555 1_555
Zn2 N5_4 1_555 1_555
N5_4 C11_4 1_555 1_555
N10_4 C26_6 1_555 1_555
C11_4 H17_4 1_555 1_555
C14_4 C11_4 1_555 1_555
C17_6 C14_4 1_555 1_555
H20_7 C17_6 1_555 1_555
C20_6 C17_6 1_555 1_555
H23_6 C20_6 1_555 1_555
C23_4 N5_4 1_555 1_555
H26_4 C23_4 1_555 1_555
C26_6 C14_4 1_555 1_555
H29_6 C26_6 1_555 1_555
H32_7 C26_6 1_555 1_555
C29_6 N10_4 1_555 1_555
H35_6 C29_6 1_555 1_555
H38_6 C29_6 1_555 1_555
C32_6 N10_4 1_555 1_555
H41_7 C32_6 1_555 1_555
H44_6 C32_6 1_555 1_555
C20_6 C23_4 1_555 1_555
Zn2 O1_3 1_555 1_555
O1_3 H1_3 1_555 1_555
O2 Zn2 1_555 1_555
H12_3 O1_3 1_555 1_555
H13 O2 1_555 1_555
H14 O2 1_555 1_555
Zn2_2 N5_5 1_555 1_555
N5_5 C11_5 1_555 1_555
C11_5 H17_5 1_555 1_555
C14_5 C11_5 1_555 1_555
C23_5 N5_5 1_555 1_555
H26_5 C23_5 1_555 1_555
Zn2_2 N5_6 1_555 1_555
N5_6 C11_6 1_555 1_555
C11_6 H17_6 1_555 1_555
C14_6 C11_6 1_555 1_555
C17_7 C14_6 1_555 1_555
C20_7 C17_7 1_555 1_555
H23_7 C20_7 1_555 1_555
C23_6 N5_6 1_555 1_555
H26_6 C23_6 1_555 1_555
H28_4 C25_4 1_555 1_555
H31_3 C25_4 1_555 1_555
H34_4 C28_4 1_555 1_555
H37_4 C28_4 1_555 1_555
C32_7 N10_6 1_555 1_555
H44_7 C32_7 1_555 1_555
C20_7 C23_6 1_555 1_555
C28_4 C32_7 1_555 1_555
Zn2_2 N5_7 1_555 1_555
N5_7 C11_7 1_555 1_555
N10_7 C26_7 1_555 1_555
C11_7 H17_7 1_555 1_555
C14_7 C11_7 1_555 1_555
C23_7 N5_7 1_555 1_555
H26_7 C23_7 1_555 1_555
C26_7 C14_7 1_555 1_555
H29_7 C26_7 1_555 1_555
C29_7 N10_7 1_555 1_555
H35_7 C29_7 1_555 1_555
H38_7 C29_7 1_555 1_555
H40_4 C31_4 1_555 1_555
H43_4 C31_4 1_555 1_555
C29_7 C31_4 1_555 1_555
Zn2_2 N5_8 1_555 1_555
N5_8 C11_8 1_555 1_555
N10_8 C26_8 1_555 1_555
C11_8 H17_8 1_555 1_555
C14_8 C11_8 1_555 1_555
C17_8 C14_8 1_555 1_555
H20_8 C17_8 1_555 1_555
C20_8 C17_8 1_555 1_555
H23_8 C20_8 1_555 1_555
C23_8 N5_8 1_555 1_555
H26_8 C23_8 1_555 1_555
C26_8 C14_8 1_555 1_555
H29_8 C26_8 1_555 1_555
H32_8 C26_8 1_555 1_555
C29_8 N10_8 1_555 1_555
H35_8 C29_8 1_555 1_555
H38_8 C29_8 1_555 1_555
C32_8 N10_8 1_555 1_555
H41_8 C32_8 1_555 1_555
H44_8 C32_8 1_555 1_555
C20_8 C23_8 1_555 1_555
Zn2_2 O1_4 1_555 1_555
O1_4 H1_4 1_555 1_555
O2_2 Zn2_2 1_555 1_555
H12_4 O1_4 1_555 1_555
H13_2 O2_2 1_555 1_555
H14_2 O2_2 1_555 1_555
Zn1 O1_5 1_555 1_555
O1_5 H1_5 1_555 1_555
N1 Zn1 1_555 1_555
C1 N1 1_555 1_555
H2 C1 1_555 1_555
C2 C1 1_555 1_555
C3 C2 1_555 1_555
C4 C3 1_555 1_555
H4 C4 1_555 1_555
C5 N1 1_555 1_555
H5 C5 1_555 1_555
C8 N2 1_555 1_555
H11 C8 1_555 1_555
O2_3 Zn1 1_555 1_555
H12_5 O1_5 1_555 1_555
H13_3 O2_3 1_555 1_555
H14_3 O2_3 1_555 1_555
N4 Zn1 1_555 1_555
N6 Zn1 1_555 1_555
N7 Zn1 1_555 1_555
C10 N4 1_555 1_555
H16 C10 1_555 1_555
C13 C10 1_555 1_555
C22 N4 1_555 1_555
H25 C22 1_555 1_555
H27 C24 1_555 1_555
H30 C24 1_555 1_555
C27 C8 1_555 1_555
H33 C27 1_555 1_555
H36 C27 1_555 1_555
C4 C5 1_555 1_555
N2_2 C6 1_555 1_555
C1_2 N7 1_555 1_555
H2_2 C1_2 1_555 1_555
C2_2 C1_2 1_555 1_555
C5_2 N7 1_555 1_555
H5_2 C5_2 1_555 1_555
C6 C2_2 1_555 1_555
H6 C6 1_555 1_555
C7 N2_2 1_555 1_555
H8 C7 1_555 1_555
H9 C7 1_555 1_555
N9_6 C25_5 1_555 1_555
C10_2 N6 1_555 1_555
H16_2 C10_2 1_555 1_555
C13_2 C10_2 1_555 1_555
C16 C13_2 1_555 1_555
H19 C16 1_555 1_555
C19 C16 1_555 1_555
H22 C19 1_555 1_555
C22_2 N6 1_555 1_555
H25_2 C22_2 1_555 1_555
C25_5 C13_2 1_555 1_555
H28_5 C25_5 1_555 1_555
H31_5 C25_5 1_555 1_555
C28_5 N9_6 1_555 1_555
H34_5 C28_5 1_555 1_555
H37_5 C28_5 1_555 1_555
C30 C7 1_555 1_555
C31_5 N9_6 1_555 1_555
H39_2 C30 1_555 1_555
H40_5 C31_5 1_555 1_555
H42 C30 1_555 1_555
H43_5 C31_5 1_555 1_555
C19 C22_2 1_555 1_555
H6_2 C6_2 1_555 1_555
H7 C6_2 1_555 1_555
H8_2 C7_2 1_555 1_555
H9_2 C7_2 1_555 1_555
H28_6 C25_6 1_555 1_555
H34_6 C28_6 1_555 1_555
H37_6 C28_6 1_555 1_555
C30_2 C7_2 1_555 1_555
H42_2 C30_2 1_555 1_555
N8 C30_2 1_555 1_555
Zn1_2 O1_6 1_555 1_555
O1_6 H1_6 1_555 1_555
N1_2 Zn1_2 1_555 1_555
N2_3 C6_3 1_555 1_555
C1_3 N1_2 1_555 1_555
H2_3 C1_3 1_555 1_555
C2_3 C1_3 1_555 1_555
C3_2 C2_3 1_555 1_555
H3_2 C3_2 1_555 1_555
C4_2 C3_2 1_555 1_555
H4_2 C4_2 1_555 1_555
C5_3 N1_2 1_555 1_555
H5_3 C5_3 1_555 1_555
C6_3 C2_3 1_555 1_555
H6_3 C6_3 1_555 1_555
H7_2 C6_3 1_555 1_555
C7_3 N2_3 1_555 1_555
H8_3 C7_3 1_555 1_555
H9_3 C7_3 1_555 1_555
C8_2 N2_3 1_555 1_555
H10_2 C8_2 1_555 1_555
H11_2 C8_2 1_555 1_555
O2_4 Zn1_2 1_555 1_555
H12_6 O1_6 1_555 1_555
H13_4 O2_4 1_555 1_555
H14_4 O2_4 1_555 1_555
N4_2 Zn1_2 1_555 1_555
N6_2 Zn1_2 1_555 1_555
N7_2 Zn1_2 1_555 1_555
N8_2 C24_2 1_555 1_555
N9_7 C25_7 1_555 1_555
C10_3 N4_2 1_555 1_555
H16_3 C10_3 1_555 1_555
C13_3 C10_3 1_555 1_555
C16_2 C13_3 1_555 1_555
H19_2 C16_2 1_555 1_555
C19_2 C16_2 1_555 1_555
H22_2 C19_2 1_555 1_555
C22_3 N4_2 1_555 1_555
H25_3 C22_3 1_555 1_555
C25_7 C13_3 1_555 1_555
H27_2 C24_2 1_555 1_555
H28_7 C25_7 1_555 1_555
H30_3 C24_2 1_555 1_555
H31_6 C25_7 1_555 1_555
C27_2 C8_2 1_555 1_555
C28_7 N9_7 1_555 1_555
H33_2 C27_2 1_555 1_555
H34_7 C28_7 1_555 1_555
H36_2 C27_2 1_555 1_555
H37_7 C28_7 1_555 1_555
C30_3 C7_3 1_555 1_555
C31_6 N9_7 1_555 1_555
H39_3 C30_3 1_555 1_555
H40_6 C31_6 1_555 1_555
H42_3 C30_3 1_555 1_555
H43_6 C31_6 1_555 1_555
C4_2 C5_3 1_555 1_555
N8_2 C27_2 1_555 1_555
N8_2 C30_3 1_555 1_555
C19_2 C22_3 1_555 1_555
N2_4 C6_4 1_555 1_555
C1_4 N7_2 1_555 1_555
H2_4 C1_4 1_555 1_555
C2_4 C1_4 1_555 1_555
C3_3 C2_4 1_555 1_555
H3_3 C3_3 1_555 1_555
C4_3 C3_3 1_555 1_555
H4_3 C4_3 1_555 1_555
C5_4 N7_2 1_555 1_555
H5_4 C5_4 1_555 1_555
C6_4 C2_4 1_555 1_555
H6_4 C6_4 1_555 1_555
H7_3 C6_4 1_555 1_555
C7_4 N2_4 1_555 1_555
H8_4 C7_4 1_555 1_555
H9_4 C7_4 1_555 1_555
C8_3 N2_4 1_555 1_555
H10_3 C8_3 1_555 1_555
H11_3 C8_3 1_555 1_555
N8_3 C24_3 1_555 1_555
N9_8 C25_8 1_555 1_555
C10_4 N6_2 1_555 1_555
H16_4 C10_4 1_555 1_555
C13_4 C10_4 1_555 1_555
C16_3 C13_4 1_555 1_555
H19_3 C16_3 1_555 1_555
C19_3 C16_3 1_555 1_555
H22_3 C19_3 1_555 1_555
C22_4 N6_2 1_555 1_555
H25_4 C22_4 1_555 1_555
C25_8 C13_4 1_555 1_555
H27_3 C24_3 1_555 1_555
H28_8 C25_8 1_555 1_555
H30_4 C24_3 1_555 1_555
H31_7 C25_8 1_555 1_555
C27_3 C8_3 1_555 1_555
C28_8 N9_8 1_555 1_555
H33_3 C27_3 1_555 1_555
H34_8 C28_8 1_555 1_555
H36_3 C27_3 1_555 1_555
H37_8 C28_8 1_555 1_555
C30_4 C7_4 1_555 1_555
C31_7 N9_8 1_555 1_555
H39_4 C30_4 1_555 1_555
H40_7 C31_7 1_555 1_555
H42_4 C30_4 1_555 1_555
H43_7 C31_7 1_555 1_555
C4_3 C5_4 1_555 1_555
N8_3 C27_3 1_555 1_555
N8_3 C30_4 1_555 1_555
C19_3 C22_4 1_555 1_555
H3_4 C3_4 1_555 1_555
C4_4 C3_4 1_555 1_555
H4_4 C4_4 1_555 1_555
H10_4 C8_4 1_555 1_555
H11_4 C8_4 1_555 1_555
N8_4 C24_4 1_555 1_555
H27_4 C24_4 1_555 1_555
C27_4 C8_4 1_555 1_555
H33_4 C27_4 1_555 1_555
H36_4 C27_4 1_555 1_555
N8_4 C27_4 1_555 1_555
O1_7 H1_7 1_555 1_555
H12_7 O1_7 1_555 1_555
O1_8 H1_8 1_555 1_555
H12_8 O1_8 1_555 1_555
C19_4 C16_4 1_555 1_555
H22_4 C19_4 1_555 1_555
H43_8 C31_8 1_555 1_555
N1_3 Zn1_3 1_555 1_555
C1_5 N1_3 1_555 1_555
H2_5 C1_5 1_555 1_555
C2_5 C1_5 1_555 1_555
C3_5 C2_5 1_555 1_555
C4_5 C3_5 1_555 1_555
H4_5 C4_5 1_555 1_555
C5_5 N1_3 1_555 1_555
H5_5 C5_5 1_555 1_555
C8_5 N2_5 1_555 1_555
H11_5 C8_5 1_555 1_555
O2_5 Zn1_3 1_555 1_555
H13_5 O2_5 1_555 1_555
H14_5 O2_5 1_555 1_555
N4_3 Zn1_3 1_555 1_555
N6_3 Zn1_3 1_555 1_555
N7_3 Zn1_3 1_555 1_555
C10_5 N4_3 1_555 1_555
H16_5 C10_5 1_555 1_555
C13_5 C10_5 1_555 1_555
C16_5 C13_5 1_555 1_555
C19_5 C16_5 1_555 1_555
H22_5 C19_5 1_555 1_555
C22_5 N4_3 1_555 1_555
H25_5 C22_5 1_555 1_555
H27_5 C24_5 1_555 1_555
H30_5 C24_5 1_555 1_555
C27_5 C8_5 1_555 1_555
H33_5 C27_5 1_555 1_555
H36_5 C27_5 1_555 1_555
C4_5 C5_5 1_555 1_555
C19_5 C22_5 1_555 1_555
Zn3 N3 1_555 1_555
N3 C9 1_555 1_555
C9 H15 1_555 1_555
C12 C9 1_555 1_555
C15 C12 1_555 1_555
H18_3 C15 1_555 1_555
C18 C15 1_555 1_555
H21 C18 1_555 1_555
C21 N3 1_555 1_555
H24 C21 1_555 1_555
C18 C21 1_555 1_555
H3_5 C3_6 1_555 1_555
C4_6 C3_6 1_555 1_555
H4_6 C4_6 1_555 1_555
H10_5 C8_6 1_555 1_555
H11_6 C8_6 1_555 1_555
Zn3 N3_2 1_555 1_555
N3_2 C9_2 1_555 1_555
N8_5 C24_6 1_555 1_555
C9_2 H15_2 1_555 1_555
C12_2 C9_2 1_555 1_555
C21_2 N3_2 1_555 1_555
H24_2 C21_2 1_555 1_555
C24_6 C12_2 1_555 1_555
H27_6 C24_6 1_555 1_555
C27_6 C8_6 1_555 1_555
H33_6 C27_6 1_555 1_555
H36_6 C27_6 1_555 1_555
N8_5 C27_6 1_555 1_555
N2_6 C6_5 1_555 1_555
C1_6 N7_3 1_555 1_555
H2_6 C1_6 1_555 1_555
C2_6 C1_6 1_555 1_555
C3_7 C2_6 1_555 1_555
H3_6 C3_7 1_555 1_555
C4_7 C3_7 1_555 1_555
H4_7 C4_7 1_555 1_555
C5_6 N7_3 1_555 1_555
H5_6 C5_6 1_555 1_555
C6_5 C2_6 1_555 1_555
H6_5 C6_5 1_555 1_555
H7_6 C6_5 1_555 1_555
C7_5 N2_6 1_555 1_555
H8_5 C7_5 1_555 1_555
H9_5 C7_5 1_555 1_555
C8_7 N2_6 1_555 1_555
H10_6 C8_7 1_555 1_555
H11_7 C8_7 1_555 1_555
Zn3 N3_3 1_555 1_555
N3_3 C9_3 1_555 1_555
N8_6 C24_7 1_555 1_555
C9_3 H15_3 1_555 1_555
C10_6 N6_3 1_555 1_555
H16_6 C10_6 1_555 1_555
C12_3 C9_3 1_555 1_555
C13_6 C10_6 1_555 1_555
C15_2 C12_3 1_555 1_555
C16_6 C13_6 1_555 1_555
H18_4 C15_2 1_555 1_555
H19_5 C16_6 1_555 1_555
C18_2 C15_2 1_555 1_555
C19_6 C16_6 1_555 1_555
H21_2 C18_2 1_555 1_555
H22_6 C19_6 1_555 1_555
C21_3 N3_3 1_555 1_555
C22_6 N6_3 1_555 1_555
H24_3 C21_3 1_555 1_555
H25_6 C22_6 1_555 1_555
C24_7 C12_3 1_555 1_555
H27_7 C24_7 1_555 1_555
H30_6 C24_7 1_555 1_555
C27_7 C8_7 1_555 1_555
H33_7 C27_7 1_555 1_555
H36_7 C27_7 1_555 1_555
C30_5 C7_5 1_555 1_555
H39_6 C30_5 1_555 1_555
H42_5 C30_5 1_555 1_555
C4_7 C5_6 1_555 1_555
N8_6 C27_7 1_555 1_555
N8_6 C30_5 1_555 1_555
C18_2 C21_3 1_555 1_555
C19_6 C22_6 1_555 1_555
Zn3 N3_4 1_555 1_555
N3_4 C9_4 1_555 1_555
C9_4 H15_4 1_555 1_555
C12_4 C9_4 1_555 1_555
C21_4 N3_4 1_555 1_555
H24_4 C21_4 1_555 1_555
O2_6 Zn3 1_555 1_555
H13_6 O2_6 1_555 1_555
H14_6 O2_6 1_555 1_555
Zn3_2 N3_5 1_555 1_555
N3_5 C9_5 1_555 1_555
C9_5 H15_5 1_555 1_555
C12_5 C9_5 1_555 1_555
C15_3 C12_5 1_555 1_555
C18_3 C15_3 1_555 1_555
H21_3 C18_3 1_555 1_555
C21_5 N3_5 1_555 1_555
H24_5 C21_5 1_555 1_555
C18_3 C21_5 1_555 1_555
H6_6 C6_6 1_555 1_555
H7_7 C6_6 1_555 1_555
H8_6 C7_6 1_555 1_555
H9_6 C7_6 1_555 1_555
Zn3_2 N3_6 1_555 1_555
N3_6 C9_6 1_555 1_555
C9_6 H15_6 1_555 1_555
C12_6 C9_6 1_555 1_555
C15_4 C12_6 1_555 1_555
C18_4 C15_4 1_555 1_555
H21_4 C18_4 1_555 1_555
C21_6 N3_6 1_555 1_555
H24_6 C21_6 1_555 1_555
C30_6 C7_6 1_555 1_555
H42_6 C30_6 1_555 1_555
N8_7 C30_6 1_555 1_555
C18_4 C21_6 1_555 1_555
N1_4 Zn1_4 1_555 1_555
N2_7 C6_7 1_555 1_555
C1_7 N1_4 1_555 1_555
H2_7 C1_7 1_555 1_555
C2_7 C1_7 1_555 1_555
C3_8 C2_7 1_555 1_555
H3_8 C3_8 1_555 1_555
C4_8 C3_8 1_555 1_555
H4_8 C4_8 1_555 1_555
C5_7 N1_4 1_555 1_555
H5_7 C5_7 1_555 1_555
C6_7 C2_7 1_555 1_555
H6_7 C6_7 1_555 1_555
H7_8 C6_7 1_555 1_555
C7_7 N2_7 1_555 1_555
H8_7 C7_7 1_555 1_555
H9_7 C7_7 1_555 1_555
C8_8 N2_7 1_555 1_555
H10_8 C8_8 1_555 1_555
H11_8 C8_8 1_555 1_555
Zn3_2 N3_7 1_555 1_555
O2_7 Zn1_4 1_555 1_555
H13_7 O2_7 1_555 1_555
H14_7 O2_7 1_555 1_555
N3_7 C9_7 1_555 1_555
N4_4 Zn1_4 1_555 1_555
N6_4 Zn1_4 1_555 1_555
N7_4 Zn1_4 1_555 1_555
N8_8 C24_8 1_555 1_555
C9_7 H15_7 1_555 1_555
C10_7 N4_4 1_555 1_555
H16_7 C10_7 1_555 1_555
C12_7 C9_7 1_555 1_555
C13_7 C10_7 1_555 1_555
C15_5 C12_7 1_555 1_555
H18_5 C15_5 1_555 1_555
C18_5 C15_5 1_555 1_555
H21_5 C18_5 1_555 1_555
C21_7 N3_7 1_555 1_555
C22_7 N4_4 1_555 1_555
H24_7 C21_7 1_555 1_555
H25_7 C22_7 1_555 1_555
C24_8 C12_7 1_555 1_555
H27_8 C24_8 1_555 1_555
H30_7 C24_8 1_555 1_555
C27_8 C8_8 1_555 1_555
H33_8 C27_8 1_555 1_555
H36_8 C27_8 1_555 1_555
C30_7 C7_7 1_555 1_555
H39_7 C30_7 1_555 1_555
H42_7 C30_7 1_555 1_555
C4_8 C5_7 1_555 1_555
N8_8 C27_8 1_555 1_555
N8_8 C30_7 1_555 1_555
C18_5 C21_7 1_555 1_555
Zn3_2 N3_8 1_555 1_555
N3_8 C9_8 1_555 1_555
C9_8 H15_8 1_555 1_555
C12_8 C9_8 1_555 1_555
C15_6 C12_8 1_555 1_555
H18_6 C15_6 1_555 1_555
C18_6 C15_6 1_555 1_555
H21_6 C18_6 1_555 1_555
C21_8 N3_8 1_555 1_555
H24_8 C21_8 1_555 1_555
C18_6 C21_8 1_555 1_555
N2_8 C6_8 1_555 1_555
C1_8 N7_4 1_555 1_555
H2_8 C1_8 1_555 1_555
C2_8 C1_8 1_555 1_555
C5_8 N7_4 1_555 1_555
H5_8 C5_8 1_555 1_555
C6_8 C2_8 1_555 1_555
H6_8 C6_8 1_555 1_555
C7_8 N2_8 1_555 1_555
H8_8 C7_8 1_555 1_555
H9_8 C7_8 1_555 1_555
C10_8 N6_4 1_555 1_555
H16_8 C10_8 1_555 1_555
C13_8 C10_8 1_555 1_555
C16_7 C13_8 1_555 1_555
H18_7 C15_7 1_555 1_555
H19_7 C16_7 1_555 1_555
C18_7 C15_7 1_555 1_555
C19_7 C16_7 1_555 1_555
H21_7 C18_7 1_555 1_555
H22_7 C19_7 1_555 1_555
C22_8 N6_4 1_555 1_555
H25_8 C22_8 1_555 1_555
C30_8 C7_8 1_555 1_555
H39_8 C30_8 1_555 1_555
H42_8 C30_8 1_555 1_555
C19_7 C22_8 1_555 1_555
O2_8 Zn3_2 1_555 1_555
H13_8 O2_8 1_555 1_555
H14_8 O2_8 1_555 1_555
H19_8 C16_8 1_555 1_555
C19_8 C16_8 1_555 1_555
H22_8 C19_8 1_555 1_555
H18_8 C15_8 1_555 1_555
C18_8 C15_8 1_555 1_555
H21_8 C18_8 1_555 1_555

#END
