
###############################################################################
#
# This file contains modified crystal structure data generated from the
# MOF subset of the Cambridge Structural Database (CSD) v543 
# hosted by the Cambridge Crystallographic Data Centre (CCDC).
#
# This work is licensed under the Creative Commons
# Attribution-NonCommercial-ShareAlike 4.0 International License.
# To view a copy of this license, visit
# http://creativecommons.org/licenses/by-nc-sa/4.0/
# or send a letter to
# Creative Commons, PO Box 1866, Mountain View, CA 94042, USA.
#
# CIF created using the CSD Python API on 29 September 2022
# The structure has been converted into the P1 space group
# The structure has a 3D framework
# The original CSD entry NUHQAK is in the monoclinic crystal system
# The framework has been calculated to contain at least 10.0% void space
# The void calculation uses a probe of radius 1.32A, grid spacing 0.4
#
###############################################################################

data_NUHQAK
_chemical_formula_moiety         '(C144 H128 Eu8 N8 O64)n'
_symmetry_cell_setting           triclinic
_symmetry_space_group_name_H-M   'P 1'
_symmetry_Int_Tables_number      1
_space_group_name_Hall           'P 1'
loop_
_symmetry_equiv_pos_site_id
_symmetry_equiv_pos_as_xyz
1 x,y,z
_cell_length_a                   24.623(5)
_cell_length_b                   12.866(3)
_cell_length_c                   14.868(3)
_cell_angle_alpha                90
_cell_angle_beta                 96.78(3)
_cell_angle_gamma                90
_cell_volume                     4677.24
loop_
_atom_site_label
_atom_site_type_symbol
_atom_site_fract_x
_atom_site_fract_y
_atom_site_fract_z
H16 H 0.648(3) 0.018(4) 0.399(6)
Eu2 Eu 0.327833(6) 0.797637(15) 0.033208(11)
Eu1 Eu 0.672167(6) 0.797637(15) 0.466792(11)
O1 O 0.30739(12) 0.7414(3) 0.88105(19)
O2 O 0.22886(11) 0.6528(3) 0.8531(2)
O3 O 0.27461(11) 0.3550(2) 0.53957(19)
O4 O 0.20259(12) 0.4495(3) 0.5580(2)
O5 O 0.58707(13) 0.8312(3) 0.5365(3)
O6 O 0.60086(13) 0.6694(3) 0.4986(3)
C1 C 0.29780(15) 0.6273(3) 0.7567(3)
C2 C 0.26595(15) 0.5578(3) 0.7025(3)
H1 H 0.2301 0.5446 0.7132
C3 C 0.28763(15) 0.5077(3) 0.6318(3)
C4 C 0.34099(15) 0.5290(3) 0.6146(3)
H2 H 0.3559 0.4928 0.5693
C5 C 0.37216(15) 0.6041(3) 0.6649(3)
C6 C 0.35016(16) 0.6518(3) 0.7372(3)
H3 H 0.3708 0.7004 0.7727
C7 C 0.42630(16) 0.6363(3) 0.6395(3)
C8 C 0.44156(19) 0.7409(4) 0.6431(4)
H4 H 0.4191 0.7897 0.6664
C9 C 0.4903(2) 0.7726(4) 0.6121(4)
H5 H 0.5002 0.8424 0.6154
C10 C 0.52377(17) 0.7021(3) 0.5769(3)
C11 C 0.51007(18) 0.5985(4) 0.5775(4)
H6 H 0.5336 0.5495 0.5573
C12 C 0.46138(18) 0.5656(4) 0.6080(4)
H7 H 0.4526 0.4953 0.6070
C13 C 0.27629(15) 0.6777(3) 0.8373(3)
C14 C 0.25266(16) 0.4324(3) 0.5732(3)
C15 C 0.57362(16) 0.7359(4) 0.5347(3)
O7 O 0.6254(2) 0.7357(5) 0.3230(3)
N1 N 0.6103(5) 0.6551(11) 0.1844(9)
C16 C 0.6458(7) 0.6958(11) 0.2531(9)
H8 H 0.6834 0.6952 0.2503
C17 C 0.5570(7) 0.6662(18) 0.1823(14)
H9 H 0.5389 0.6312 0.1301
H10 H 0.5478 0.7387 0.1793
H11 H 0.5453 0.6366 0.2361
C18 C 0.6392(8) 0.6022(17) 0.1208(14)
H12 H 0.6776 0.6025 0.1418
H13 H 0.6331 0.6367 0.0632
H14 H 0.6265 0.5318 0.1144
O8 O 0.6275(2) 0.9511(5) 0.3907(4)
H15 H 0.5913(18) 0.963(6) 0.355(5)
Eu3 Eu 0.172167(6) 0.297637(15) 0.466792(11)
Eu4 Eu 0.327833(6) 0.202363(15) 0.533208(11)
Eu5 Eu 0.172167(6) 0.702363(15) 0.966792(11)
O9 O 0.69261(12) 0.7414(3) 0.61895(19)
O10 O 0.72886(11) 0.8472(3) 0.3531(2)
O11 O 0.77461(11) 0.8550(2) 0.53957(19)
O12 O 0.72539(11) 0.6450(2) 0.46043(19)
O13 O 0.70259(12) 0.9495(3) 0.5580(2)
O6_2 O 0.39914(13) 0.6694(3) 0.0014(3)
O7_2 O 0.3746(2) 0.7357(5) 0.1770(3)
N1_2 N 0.3897(5) 0.6551(11) 0.3156(9)
C16_2 C 0.3542(7) 0.6958(11) 0.2469(9)
H8_2 H 0.3166 0.6952 0.2497
C17_2 C 0.4430(7) 0.6662(18) 0.3177(14)
H9_2 H 0.4611 0.6312 0.3699
H10_2 H 0.4522 0.7387 0.3207
H11_2 H 0.4547 0.6366 0.2639
C18_2 C 0.3608(8) 0.6022(17) 0.3792(14)
H12_2 H 0.3224 0.6025 0.3582
H13_2 H 0.3669 0.6367 0.4368
H14_2 H 0.3735 0.5318 0.3856
O8_2 O 0.3725(2) 0.9511(5) 0.1093(4)
H15_2 H 0.4087(18) 0.963(6) 0.145(5)
Eu3_2 Eu 0.827833(6) 0.297637(15) 0.033208(11)
O10_2 O 0.27114(11) 0.8472(3) 0.1469(2)
O12_2 O 0.27461(11) 0.6450(2) 0.03957(19)
O2_2 O 0.77114(11) 0.6528(3) 0.6469(2)
O3_2 O 0.72539(11) 0.3550(2) 0.96043(19)
O4_2 O 0.79741(12) 0.4495(3) 0.9420(2)
O5_2 O 0.41293(13) 0.8312(3) 0.9635(3)
C1_2 C 0.70220(15) 0.6273(3) 0.7433(3)
C2_2 C 0.73405(15) 0.5578(3) 0.7975(3)
H1_2 H 0.7699 0.5446 0.7868
C3_2 C 0.71237(15) 0.5077(3) 0.8682(3)
C4_2 C 0.65901(15) 0.5290(3) 0.8854(3)
H2_2 H 0.6441 0.4928 0.9307
C5_2 C 0.62784(15) 0.6041(3) 0.8351(3)
C6_2 C 0.64984(16) 0.6518(3) 0.7628(3)
H3_2 H 0.6292 0.7004 0.7273
C7_2 C 0.57370(16) 0.6363(3) 0.8605(3)
C8_2 C 0.55844(19) 0.7409(4) 0.8569(4)
H4_2 H 0.5809 0.7897 0.8336
C9_2 C 0.5097(2) 0.7726(4) 0.8879(4)
H5_2 H 0.4998 0.8424 0.8846
C10_2 C 0.47623(17) 0.7021(3) 0.9231(3)
C11_2 C 0.48993(18) 0.5985(4) 0.9225(4)
H6_2 H 0.4664 0.5495 0.9427
C12_2 C 0.53862(18) 0.5656(4) 0.8920(4)
H7_2 H 0.5474 0.4953 0.8930
C13_2 C 0.72371(15) 0.6777(3) 0.6627(3)
C14_2 C 0.74734(16) 0.4324(3) 0.9268(3)
C15_2 C 0.42638(16) 0.7359(4) 0.9653(3)
Eu4_2 Eu 0.672167(6) 0.202363(15) 0.966792(11)
Eu5_2 Eu 0.827833(6) 0.702363(15) 0.533208(11)
O11_2 O 0.22539(11) 0.8550(2) 0.96043(19)
O13_2 O 0.29741(12) 0.9495(3) 0.9420(2)
O5_3 O 0.08707(13) 0.3312(3) 0.5365(3)
O6_3 O 0.10086(13) 0.1694(3) 0.4986(3)
H5_3 H 0.0002 0.3424 0.6154
C10_3 C 0.02377(17) 0.2021(3) 0.5769(3)
C11_3 C 0.01007(18) 0.0985(4) 0.5775(4)
H6_3 H 0.0336 0.0495 0.5573
C15_3 C 0.07362(16) 0.2359(4) 0.5347(3)
O7_3 O 0.1254(2) 0.2357(5) 0.3230(3)
N1_3 N 0.1103(5) 0.1551(11) 0.1844(9)
C16_3 C 0.1458(7) 0.1958(11) 0.2531(9)
H8_3 H 0.1834 0.1952 0.2503
C17_3 C 0.0570(7) 0.1662(18) 0.1823(14)
H9_3 H 0.0389 0.1312 0.1301
H10_3 H 0.0478 0.2387 0.1793
H11_3 H 0.0453 0.1366 0.2361
C18_3 C 0.1392(8) 0.1022(17) 0.1208(14)
H12_3 H 0.1776 0.1025 0.1418
H13_3 H 0.1331 0.1367 0.0632
H14_3 H 0.1265 0.0318 0.1144
O8_3 O 0.1275(2) 0.4511(5) 0.3907(4)
H15_3 H 0.0913(18) 0.463(6) 0.355(5)
H16_2 H 0.148(3) 0.518(4) 0.399(6)
O9_2 O 0.19261(12) 0.2414(3) 0.61895(19)
O10_3 O 0.22886(11) 0.3472(3) 0.3531(2)
O12_3 O 0.22539(11) 0.1450(2) 0.46043(19)
O1_2 O 0.80739(12) 0.2414(3) 0.88105(19)
O2_3 O 0.72886(11) 0.1528(3) 0.8531(2)
C1_3 C 0.79780(15) 0.1273(3) 0.7567(3)
C2_3 C 0.76595(15) 0.0578(3) 0.7025(3)
H1_3 H 0.7301 0.0446 0.7132
C3_3 C 0.78763(15) 0.0077(3) 0.6318(3)
C4_3 C 0.84099(15) 0.0290(3) 0.6146(3)
C5_3 C 0.87216(15) 0.1041(3) 0.6649(3)
C6_3 C 0.85016(16) 0.1518(3) 0.7372(3)
H3_3 H 0.8708 0.2004 0.7727
C7_3 C 0.92630(16) 0.1363(3) 0.6395(3)
C8_3 C 0.94156(19) 0.2409(4) 0.6431(4)
H4_3 H 0.9191 0.2897 0.6664
C9_3 C 0.9903(2) 0.2726(4) 0.6121(4)
C12_3 C 0.96138(18) 0.0656(4) 0.6080(4)
C13_3 C 0.77629(15) 0.1777(3) 0.8373(3)
H2_3 H 0.8559 0.9928 0.5693
H7_3 H 0.9526 0.9953 0.6070
C14_3 C 0.75266(16) 0.9324(3) 0.5732(3)
O2_4 O 0.27114(11) 0.1528(3) 0.6469(2)
C1_4 C 0.20220(15) 0.1273(3) 0.7433(3)
C2_4 C 0.23405(15) 0.0578(3) 0.7975(3)
H1_4 H 0.2699 0.0446 0.7868
C3_4 C 0.21237(15) 0.0077(3) 0.8682(3)
C4_4 C 0.15901(15) 0.0290(3) 0.8854(3)
C5_4 C 0.12784(15) 0.1041(3) 0.8351(3)
C6_4 C 0.14984(16) 0.1518(3) 0.7628(3)
H3_4 H 0.1292 0.2004 0.7273
C7_4 C 0.07370(16) 0.1363(3) 0.8605(3)
C8_4 C 0.05844(19) 0.2409(4) 0.8569(4)
H4_4 H 0.0809 0.2897 0.8336
C9_4 C 0.0097(2) 0.2726(4) 0.8879(4)
C12_4 C 0.03862(18) 0.0656(4) 0.8920(4)
C13_4 C 0.22371(15) 0.1777(3) 0.6627(3)
H2_4 H 0.1441 0.9928 0.9307
H7_4 H 0.0474 0.9953 0.8930
C14_4 C 0.24734(16) 0.9324(3) 0.9268(3)
O6_4 O 0.89914(13) 0.1694(3) 0.0014(3)
O7_4 O 0.8746(2) 0.2357(5) 0.1770(3)
N1_4 N 0.8897(5) 0.1551(11) 0.3156(9)
C16_4 C 0.8542(7) 0.1958(11) 0.2469(9)
H8_4 H 0.8166 0.1952 0.2497
C17_4 C 0.9430(7) 0.1662(18) 0.3177(14)
H9_4 H 0.9611 0.1312 0.3699
H10_4 H 0.9522 0.2387 0.3207
H11_4 H 0.9547 0.1366 0.2639
C18_4 C 0.8608(8) 0.1022(17) 0.3792(14)
H12_4 H 0.8224 0.1025 0.3582
H13_4 H 0.8669 0.1367 0.4368
H14_4 H 0.8735 0.0318 0.3856
O8_4 O 0.8725(2) 0.4511(5) 0.1093(4)
H15_4 H 0.9087(18) 0.463(6) 0.145(5)
H16_3 H 0.852(3) 0.518(4) 0.101(6)
O10_4 O 0.77114(11) 0.3472(3) 0.1469(2)
O12_4 O 0.77461(11) 0.1450(2) 0.03957(19)
O5_4 O 0.91293(13) 0.3312(3) 0.9635(3)
H5_4 H 0.9998 0.3424 0.8846
C10_4 C 0.97623(17) 0.2021(3) 0.9231(3)
C11_4 C 0.98993(18) 0.0985(4) 0.9225(4)
H6_4 H 0.9664 0.0495 0.9427
C15_4 C 0.92638(16) 0.2359(4) 0.9653(3)
O1_3 O 0.69261(12) 0.2586(3) 0.11895(19)
O4_3 O 0.79741(12) 0.5505(3) 0.4420(2)
O5_5 O 0.41293(13) 0.1688(3) 0.4635(3)
O6_5 O 0.39914(13) 0.3306(3) 0.5014(3)
C1_5 C 0.70220(15) 0.3727(3) 0.2433(3)
C2_5 C 0.73405(15) 0.4422(3) 0.2975(3)
H1_5 H 0.7699 0.4554 0.2868
C3_5 C 0.71237(15) 0.4923(3) 0.3682(3)
C4_5 C 0.65901(15) 0.4710(3) 0.3854(3)
H2_5 H 0.6441 0.5072 0.4307
C5_5 C 0.62784(15) 0.3959(3) 0.3351(3)
C6_5 C 0.64984(16) 0.3482(3) 0.2628(3)
H3_5 H 0.6292 0.2996 0.2273
C7_5 C 0.57370(16) 0.3637(3) 0.3605(3)
C8_5 C 0.55844(19) 0.2591(4) 0.3569(4)
H4_5 H 0.5809 0.2103 0.3336
C9_5 C 0.5097(2) 0.2274(4) 0.3879(4)
H5_5 H 0.4998 0.1576 0.3846
C10_5 C 0.47623(17) 0.2979(3) 0.4231(3)
C11_5 C 0.48993(18) 0.4015(4) 0.4225(4)
H6_5 H 0.4664 0.4505 0.4427
C12_5 C 0.53862(18) 0.4344(4) 0.3920(4)
H7_5 H 0.5474 0.5047 0.3930
C13_5 C 0.72371(15) 0.3223(3) 0.1627(3)
C14_5 C 0.74734(16) 0.5676(3) 0.4268(3)
C15_5 C 0.42638(16) 0.2641(4) 0.4653(3)
O7_5 O 0.3746(2) 0.2643(5) 0.6770(3)
N1_5 N 0.3897(5) 0.3449(11) 0.8156(9)
C16_5 C 0.3542(7) 0.3042(11) 0.7469(9)
H8_5 H 0.3166 0.3048 0.7497
C17_5 C 0.4430(7) 0.3338(18) 0.8177(14)
H9_5 H 0.4611 0.3688 0.8699
H10_5 H 0.4522 0.2613 0.8207
H11_5 H 0.4547 0.3634 0.7639
C18_5 C 0.3608(8) 0.3978(17) 0.8792(14)
H12_5 H 0.3224 0.3975 0.8582
H13_5 H 0.3669 0.3633 0.9368
H14_5 H 0.3735 0.4682 0.8856
O8_5 O 0.3725(2) 0.0489(5) 0.6093(4)
H15_5 H 0.4087(18) 0.037(6) 0.645(5)
O9_3 O 0.30739(12) 0.2586(3) 0.38105(19)
O13_3 O 0.29741(12) 0.0505(3) 0.4420(2)
O4_4 O 0.20259(12) 0.5505(3) 0.0580(2)
O5_6 O 0.58707(13) 0.1688(3) 0.0365(3)
C1_6 C 0.29780(15) 0.3727(3) 0.2567(3)
C2_6 C 0.26595(15) 0.4422(3) 0.2025(3)
H1_6 H 0.2301 0.4554 0.2132
C3_6 C 0.28763(15) 0.4923(3) 0.1318(3)
C4_6 C 0.34099(15) 0.4710(3) 0.1146(3)
H2_6 H 0.3559 0.5072 0.0693
C5_6 C 0.37216(15) 0.3959(3) 0.1649(3)
C6_6 C 0.35016(16) 0.3482(3) 0.2372(3)
H3_6 H 0.3708 0.2996 0.2727
C7_6 C 0.42630(16) 0.3637(3) 0.1395(3)
C8_6 C 0.44156(19) 0.2591(4) 0.1431(4)
H4_6 H 0.4191 0.2103 0.1664
C9_6 C 0.4903(2) 0.2274(4) 0.1121(4)
H5_6 H 0.5002 0.1576 0.1154
C10_6 C 0.52377(17) 0.2979(3) 0.0769(3)
C11_6 C 0.51007(18) 0.4015(4) 0.0775(4)
H6_6 H 0.5336 0.4505 0.0573
C12_6 C 0.46138(18) 0.4344(4) 0.1080(4)
H7_6 H 0.4526 0.5047 0.1070
C13_6 C 0.27629(15) 0.3223(3) 0.3373(3)
C14_6 C 0.25266(16) 0.5676(3) 0.0732(3)
C15_6 C 0.57362(16) 0.2641(4) 0.0347(3)
O13_4 O 0.70259(12) 0.0505(3) 0.0580(2)
O6_6 O 0.60086(13) 0.3306(3) 0.9986(3)
O7_6 O 0.6254(2) 0.2643(5) 0.8230(3)
N1_6 N 0.6103(5) 0.3449(11) 0.6844(9)
C16_6 C 0.6458(7) 0.3042(11) 0.7531(9)
H8_6 H 0.6834 0.3048 0.7503
C17_6 C 0.5570(7) 0.3338(18) 0.6823(14)
H9_6 H 0.5389 0.3688 0.6301
H10_6 H 0.5478 0.2613 0.6793
H11_6 H 0.5453 0.3634 0.7361
C18_6 C 0.6392(8) 0.3978(17) 0.6208(14)
H12_6 H 0.6776 0.3975 0.6418
H13_6 H 0.6331 0.3633 0.5632
H14_6 H 0.6265 0.4682 0.6144
O8_6 O 0.6275(2) 0.0489(5) 0.8907(4)
H15_6 H 0.5913(18) 0.037(6) 0.855(5)
H2_7 H 0.1441 0.0072 0.4307
H7_7 H 0.0474 0.0047 0.3930
C14_7 C 0.24734(16) 0.0676(3) 0.4268(3)
O1_4 O 0.19261(12) 0.7586(3) 0.11895(19)
C1_7 C 0.20220(15) 0.8727(3) 0.2433(3)
C2_7 C 0.23405(15) 0.9422(3) 0.2975(3)
H1_7 H 0.2699 0.9554 0.2868
C3_7 C 0.21237(15) 0.9923(3) 0.3682(3)
C4_7 C 0.15901(15) 0.9710(3) 0.3854(3)
C5_7 C 0.12784(15) 0.8959(3) 0.3351(3)
C6_7 C 0.14984(16) 0.8482(3) 0.2628(3)
H3_7 H 0.1292 0.7996 0.2273
C7_7 C 0.07370(16) 0.8637(3) 0.3605(3)
C8_7 C 0.05844(19) 0.7591(4) 0.3569(4)
H4_7 H 0.0809 0.7103 0.3336
C9_7 C 0.0097(2) 0.7274(4) 0.3879(4)
C12_7 C 0.03862(18) 0.9344(4) 0.3920(4)
C13_7 C 0.22371(15) 0.8223(3) 0.1627(3)
O5_7 O 0.91293(13) 0.6688(3) 0.4635(3)
O6_7 O 0.89914(13) 0.8306(3) 0.5014(3)
H5_7 H 0.9998 0.6576 0.3846
C10_7 C 0.97623(17) 0.7979(3) 0.4231(3)
C11_7 C 0.98993(18) 0.9015(4) 0.4225(4)
H6_7 H 0.9664 0.9505 0.4427
C15_7 C 0.92638(16) 0.7641(4) 0.4653(3)
O7_7 O 0.8746(2) 0.7643(5) 0.6770(3)
N1_7 N 0.8897(5) 0.8449(11) 0.8156(9)
C16_7 C 0.8542(7) 0.8042(11) 0.7469(9)
H8_7 H 0.8166 0.8048 0.7497
C17_7 C 0.9430(7) 0.8338(18) 0.8177(14)
H9_7 H 0.9611 0.8688 0.8699
H10_7 H 0.9522 0.7613 0.8207
H11_7 H 0.9547 0.8634 0.7639
C18_7 C 0.8608(8) 0.8978(17) 0.8792(14)
H12_7 H 0.8224 0.8975 0.8582
H13_7 H 0.8669 0.8633 0.9368
H14_7 H 0.8735 0.9682 0.8856
O8_7 O 0.8725(2) 0.5489(5) 0.6093(4)
H15_7 H 0.9087(18) 0.537(6) 0.645(5)
H16_4 H 0.852(3) 0.482(4) 0.601(6)
O9_4 O 0.80739(12) 0.7586(3) 0.38105(19)
O5_8 O 0.08707(13) 0.6688(3) 0.0365(3)
H5_8 H 0.0002 0.6576 0.1154
C10_8 C 0.02377(17) 0.7979(3) 0.0769(3)
C11_8 C 0.01007(18) 0.9015(4) 0.0775(4)
H6_8 H 0.0336 0.9505 0.0573
C15_8 C 0.07362(16) 0.7641(4) 0.0347(3)
O6_8 O 0.10086(13) 0.8306(3) 0.9986(3)
O7_8 O 0.1254(2) 0.7643(5) 0.8230(3)
N1_8 N 0.1103(5) 0.8449(11) 0.6844(9)
C16_8 C 0.1458(7) 0.8042(11) 0.7531(9)
H8_8 H 0.1834 0.8048 0.7503
C17_8 C 0.0570(7) 0.8338(18) 0.6823(14)
H9_8 H 0.0389 0.8688 0.6301
H10_8 H 0.0478 0.7613 0.6793
H11_8 H 0.0453 0.8634 0.7361
C18_8 C 0.1392(8) 0.8978(17) 0.6208(14)
H12_8 H 0.1776 0.8975 0.6418
H13_8 H 0.1331 0.8633 0.5632
H14_8 H 0.1265 0.9682 0.6144
O8_8 O 0.1275(2) 0.5489(5) 0.8907(4)
H15_8 H 0.0913(18) 0.537(6) 0.855(5)
H16_5 H 0.148(3) 0.482(4) 0.899(6)
H2_8 H 0.8559 0.0072 0.0693
H7_8 H 0.9526 0.0047 0.1070
C14_8 C 0.75266(16) 0.0676(3) 0.0732(3)
C1_8 C 0.79780(15) 0.8727(3) 0.2567(3)
C2_8 C 0.76595(15) 0.9422(3) 0.2025(3)
H1_8 H 0.7301 0.9554 0.2132
C3_8 C 0.78763(15) 0.9923(3) 0.1318(3)
C4_8 C 0.84099(15) 0.9710(3) 0.1146(3)
C5_8 C 0.87216(15) 0.8959(3) 0.1649(3)
C6_8 C 0.85016(16) 0.8482(3) 0.2372(3)
H3_8 H 0.8708 0.7996 0.2727
C7_8 C 0.92630(16) 0.8637(3) 0.1395(3)
C8_8 C 0.94156(19) 0.7591(4) 0.1431(4)
H4_8 H 0.9191 0.7103 0.1664
C9_8 C 0.9903(2) 0.7274(4) 0.1121(4)
C12_8 C 0.96138(18) 0.9344(4) 0.1080(4)
C13_8 C 0.77629(15) 0.8223(3) 0.3373(3)
H16_6 H 0.352(3) 0.018(4) 0.101(6)
H16_7 H 0.352(3) 0.982(4) 0.601(6)
H16_8 H 0.648(3) 0.982(4) 0.899(6)
loop_
_geom_bond_atom_site_label_1
_geom_bond_atom_site_label_2
_geom_bond_site_symmetry_1
_geom_bond_site_symmetry_2
Eu1 O5 1_555 1_555
O1 C13 1_555 1_555
O2 C13 1_555 1_555
O3 C14 1_555 1_555
O4 C14 1_555 1_555
O5 C15 1_555 1_555
O6 Eu1 1_555 1_555
C1 C2 1_555 1_555
C2 H1 1_555 1_555
C3 C2 1_555 1_555
C4 C3 1_555 1_555
H2 C4 1_555 1_555
C5 C4 1_555 1_555
C6 C1 1_555 1_555
H3 C6 1_555 1_555
C7 C5 1_555 1_555
C8 C7 1_555 1_555
H4 C8 1_555 1_555
C9 C8 1_555 1_555
H5 C9 1_555 1_555
C10 C9 1_555 1_555
C11 C10 1_555 1_555
H6 C11 1_555 1_555
C12 C7 1_555 1_555
H7 C12 1_555 1_555
C13 C1 1_555 1_555
C14 C3 1_555 1_555
C15 O6 1_555 1_555
O7 Eu1 1_555 1_555
N1 C16 1_555 1_555
C16 O7 1_555 1_555
H8 C16 1_555 1_555
C17 N1 1_555 1_555
H9 C17 1_555 1_555
H10 C17 1_555 1_555
H11 C17 1_555 1_555
C18 N1 1_555 1_555
H12 C18 1_555 1_555
H13 C18 1_555 1_555
H14 C18 1_555 1_555
O8 Eu1 1_555 1_555
H15 O8 1_555 1_555
Eu3 O3 1_555 1_555
Eu4 O3 1_555 1_555
Eu5 O2 1_555 1_555
O9 Eu1 1_555 1_555
O10 Eu1 1_555 1_555
O11 Eu1 1_555 1_555
O12 Eu1 1_555 1_555
O13 Eu1 1_555 1_555
O4 Eu3 1_555 1_555
C5 C6 1_555 1_555
C10 C15 1_555 1_555
C11 C12 1_555 1_555
O6_2 Eu2 1_555 1_555
O7_2 Eu2 1_555 1_555
N1_2 C16_2 1_555 1_555
C16_2 O7_2 1_555 1_555
H8_2 C16_2 1_555 1_555
C17_2 N1_2 1_555 1_555
H9_2 C17_2 1_555 1_555
H10_2 C17_2 1_555 1_555
H11_2 C17_2 1_555 1_555
C18_2 N1_2 1_555 1_555
H12_2 C18_2 1_555 1_555
H13_2 C18_2 1_555 1_555
H14_2 C18_2 1_555 1_555
O8_2 Eu2 1_555 1_555
H15_2 O8_2 1_555 1_555
O10_2 Eu2 1_555 1_555
O12_2 Eu2 1_555 1_555
O9 C13_2 1_555 1_555
O2_2 C13_2 1_555 1_555
O3_2 C14_2 1_555 1_555
O4_2 C14_2 1_555 1_555
O5_2 C15_2 1_555 1_555
C1_2 C2_2 1_555 1_555
C2_2 H1_2 1_555 1_555
C3_2 C2_2 1_555 1_555
C4_2 C3_2 1_555 1_555
H2_2 C4_2 1_555 1_555
C5_2 C4_2 1_555 1_555
C6_2 C1_2 1_555 1_555
H3_2 C6_2 1_555 1_555
C7_2 C5_2 1_555 1_555
C8_2 C7_2 1_555 1_555
H4_2 C8_2 1_555 1_555
C9_2 C8_2 1_555 1_555
H5_2 C9_2 1_555 1_555
C10_2 C9_2 1_555 1_555
C11_2 C10_2 1_555 1_555
H6_2 C11_2 1_555 1_555
C12_2 C7_2 1_555 1_555
H7_2 C12_2 1_555 1_555
C13_2 C1_2 1_555 1_555
C14_2 C3_2 1_555 1_555
Eu4_2 O3_2 1_555 1_555
Eu5_2 O2_2 1_555 1_555
C5_2 C6_2 1_555 1_555
C10_2 C15_2 1_555 1_555
C11_2 C12_2 1_555 1_555
Eu3 O5_3 1_555 1_555
O5_3 C15_3 1_555 1_555
O6_3 Eu3 1_555 1_555
C11_3 C10_3 1_555 1_555
H6_3 C11_3 1_555 1_555
C15_3 O6_3 1_555 1_555
O7_3 Eu3 1_555 1_555
N1_3 C16_3 1_555 1_555
C16_3 O7_3 1_555 1_555
H8_3 C16_3 1_555 1_555
C17_3 N1_3 1_555 1_555
H9_3 C17_3 1_555 1_555
H10_3 C17_3 1_555 1_555
H11_3 C17_3 1_555 1_555
C18_3 N1_3 1_555 1_555
H12_3 C18_3 1_555 1_555
H13_3 C18_3 1_555 1_555
H14_3 C18_3 1_555 1_555
O8_3 Eu3 1_555 1_555
H15_3 O8_3 1_555 1_555
H16_2 O8_3 1_555 1_555
O9_2 Eu3 1_555 1_555
O10_3 Eu3 1_555 1_555
O12_3 Eu3 1_555 1_555
C10_3 C15_3 1_555 1_555
O1_2 C13_3 1_555 1_555
O2_3 C13_3 1_555 1_555
C1_3 C2_3 1_555 1_555
C2_3 H1_3 1_555 1_555
C3_3 C2_3 1_555 1_555
C4_3 C3_3 1_555 1_555
C5_3 C4_3 1_555 1_555
C6_3 C1_3 1_555 1_555
H3_3 C6_3 1_555 1_555
C7_3 C5_3 1_555 1_555
C8_3 C7_3 1_555 1_555
H4_3 C8_3 1_555 1_555
C9_3 C8_3 1_555 1_555
C12_3 C7_3 1_555 1_555
C13_3 C1_3 1_555 1_555
Eu4_2 O2_3 1_555 1_555
C5_3 C6_3 1_555 1_555
O11 C14_3 1_555 1_555
O13 C14_3 1_555 1_555
Eu5_2 O11 1_555 1_555
O9_2 C13_4 1_555 1_555
O2_4 C13_4 1_555 1_555
C1_4 C2_4 1_555 1_555
C2_4 H1_4 1_555 1_555
C3_4 C2_4 1_555 1_555
C4_4 C3_4 1_555 1_555
C5_4 C4_4 1_555 1_555
C6_4 C1_4 1_555 1_555
H3_4 C6_4 1_555 1_555
C7_4 C5_4 1_555 1_555
C8_4 C7_4 1_555 1_555
H4_4 C8_4 1_555 1_555
C9_4 C8_4 1_555 1_555
C12_4 C7_4 1_555 1_555
C13_4 C1_4 1_555 1_555
Eu4 O2_4 1_555 1_555
C5_4 C6_4 1_555 1_555
O11_2 C14_4 1_555 1_555
O13_2 C14_4 1_555 1_555
Eu5 O11_2 1_555 1_555
O6_4 Eu3_2 1_555 1_555
O7_4 Eu3_2 1_555 1_555
N1_4 C16_4 1_555 1_555
C16_4 O7_4 1_555 1_555
H8_4 C16_4 1_555 1_555
C17_4 N1_4 1_555 1_555
H9_4 C17_4 1_555 1_555
H10_4 C17_4 1_555 1_555
H11_4 C17_4 1_555 1_555
C18_4 N1_4 1_555 1_555
H12_4 C18_4 1_555 1_555
H13_4 C18_4 1_555 1_555
H14_4 C18_4 1_555 1_555
O8_4 Eu3_2 1_555 1_555
H15_4 O8_4 1_555 1_555
H16_3 O8_4 1_555 1_555
O10_4 Eu3_2 1_555 1_555
O12_4 Eu3_2 1_555 1_555
O5_4 C15_4 1_555 1_555
C11_4 C10_4 1_555 1_555
H6_4 C11_4 1_555 1_555
C10_4 C15_4 1_555 1_555
Eu4 O5_5 1_555 1_555
O1_3 C13_5 1_555 1_555
O10_4 C13_5 1_555 1_555
O12 C14_5 1_555 1_555
O4_3 C14_5 1_555 1_555
O5_5 C15_5 1_555 1_555
O6_5 Eu4 1_555 1_555
C1_5 C2_5 1_555 1_555
C2_5 H1_5 1_555 1_555
C3_5 C2_5 1_555 1_555
C4_5 C3_5 1_555 1_555
H2_5 C4_5 1_555 1_555
C5_5 C4_5 1_555 1_555
C6_5 C1_5 1_555 1_555
H3_5 C6_5 1_555 1_555
C7_5 C5_5 1_555 1_555
C8_5 C7_5 1_555 1_555
H4_5 C8_5 1_555 1_555
C9_5 C8_5 1_555 1_555
H5_5 C9_5 1_555 1_555
C10_5 C9_5 1_555 1_555
C11_5 C10_5 1_555 1_555
H6_5 C11_5 1_555 1_555
C12_5 C7_5 1_555 1_555
H7_5 C12_5 1_555 1_555
C13_5 C1_5 1_555 1_555
C14_5 C3_5 1_555 1_555
C15_5 O6_5 1_555 1_555
O7_5 Eu4 1_555 1_555
N1_5 C16_5 1_555 1_555
C16_5 O7_5 1_555 1_555
H8_5 C16_5 1_555 1_555
C17_5 N1_5 1_555 1_555
H9_5 C17_5 1_555 1_555
H10_5 C17_5 1_555 1_555
H11_5 C17_5 1_555 1_555
C18_5 N1_5 1_555 1_555
H12_5 C18_5 1_555 1_555
H13_5 C18_5 1_555 1_555
H14_5 C18_5 1_555 1_555
O8_5 Eu4 1_555 1_555
H15_5 O8_5 1_555 1_555
Eu5_2 O12 1_555 1_555
O9_3 Eu4 1_555 1_555
O12_3 Eu4 1_555 1_555
O13_3 Eu4 1_555 1_555
O4_3 Eu5_2 1_555 1_555
C5_5 C6_5 1_555 1_555
C10_5 C15_5 1_555 1_555
C11_5 C12_5 1_555 1_555
O9_3 C13_6 1_555 1_555
O10_3 C13_6 1_555 1_555
O12_2 C14_6 1_555 1_555
O4_4 C14_6 1_555 1_555
O5_6 C15_6 1_555 1_555
C1_6 C2_6 1_555 1_555
C2_6 H1_6 1_555 1_555
C3_6 C2_6 1_555 1_555
C4_6 C3_6 1_555 1_555
H2_6 C4_6 1_555 1_555
C5_6 C4_6 1_555 1_555
C6_6 C1_6 1_555 1_555
H3_6 C6_6 1_555 1_555
C7_6 C5_6 1_555 1_555
C8_6 C7_6 1_555 1_555
H4_6 C8_6 1_555 1_555
C9_6 C8_6 1_555 1_555
H5_6 C9_6 1_555 1_555
C10_6 C9_6 1_555 1_555
C11_6 C10_6 1_555 1_555
H6_6 C11_6 1_555 1_555
C12_6 C7_6 1_555 1_555
H7_6 C12_6 1_555 1_555
C13_6 C1_6 1_555 1_555
C14_6 C3_6 1_555 1_555
C5_6 C6_6 1_555 1_555
C10_6 C15_6 1_555 1_555
C11_6 C12_6 1_555 1_555
O6_6 Eu4_2 1_555 1_555
O7_6 Eu4_2 1_555 1_555
N1_6 C16_6 1_555 1_555
C16_6 O7_6 1_555 1_555
H8_6 C16_6 1_555 1_555
C17_6 N1_6 1_555 1_555
H9_6 C17_6 1_555 1_555
H10_6 C17_6 1_555 1_555
H11_6 C17_6 1_555 1_555
C18_6 N1_6 1_555 1_555
H12_6 C18_6 1_555 1_555
H13_6 C18_6 1_555 1_555
H14_6 C18_6 1_555 1_555
O8_6 Eu4_2 1_555 1_555
H15_6 O8_6 1_555 1_555
O12_3 C14_7 1_555 1_555
O13_3 C14_7 1_555 1_555
O1_4 C13_7 1_555 1_555
O10_2 C13_7 1_555 1_555
C1_7 C2_7 1_555 1_555
C2_7 H1_7 1_555 1_555
C3_7 C2_7 1_555 1_555
C4_7 C3_7 1_555 1_555
C5_7 C4_7 1_555 1_555
C6_7 C1_7 1_555 1_555
H3_7 C6_7 1_555 1_555
C7_7 C5_7 1_555 1_555
C8_7 C7_7 1_555 1_555
H4_7 C8_7 1_555 1_555
C9_7 C8_7 1_555 1_555
C12_7 C7_7 1_555 1_555
C13_7 C1_7 1_555 1_555
C5_7 C6_7 1_555 1_555
Eu5_2 O5_7 1_555 1_555
O5_7 C15_7 1_555 1_555
O6_7 Eu5_2 1_555 1_555
C11_7 C10_7 1_555 1_555
H6_7 C11_7 1_555 1_555
C15_7 O6_7 1_555 1_555
O7_7 Eu5_2 1_555 1_555
N1_7 C16_7 1_555 1_555
C16_7 O7_7 1_555 1_555
H8_7 C16_7 1_555 1_555
C17_7 N1_7 1_555 1_555
H9_7 C17_7 1_555 1_555
H10_7 C17_7 1_555 1_555
H11_7 C17_7 1_555 1_555
C18_7 N1_7 1_555 1_555
H12_7 C18_7 1_555 1_555
H13_7 C18_7 1_555 1_555
H14_7 C18_7 1_555 1_555
O8_7 Eu5_2 1_555 1_555
H15_7 O8_7 1_555 1_555
H16_4 O8_7 1_555 1_555
O9_4 Eu5_2 1_555 1_555
C10_7 C15_7 1_555 1_555
O5_8 C15_8 1_555 1_555
C11_8 C10_8 1_555 1_555
H6_8 C11_8 1_555 1_555
C10_8 C15_8 1_555 1_555
O6_8 Eu5 1_555 1_555
O7_8 Eu5 1_555 1_555
N1_8 C16_8 1_555 1_555
C16_8 O7_8 1_555 1_555
H8_8 C16_8 1_555 1_555
C17_8 N1_8 1_555 1_555
H9_8 C17_8 1_555 1_555
H10_8 C17_8 1_555 1_555
H11_8 C17_8 1_555 1_555
C18_8 N1_8 1_555 1_555
H12_8 C18_8 1_555 1_555
H13_8 C18_8 1_555 1_555
H14_8 C18_8 1_555 1_555
O8_8 Eu5 1_555 1_555
H15_8 O8_8 1_555 1_555
H16_5 O8_8 1_555 1_555
O12_4 C14_8 1_555 1_555
O13_4 C14_8 1_555 1_555
O9_4 C13_8 1_555 1_555
O10 C13_8 1_555 1_555
C1_8 C2_8 1_555 1_555
C2_8 H1_8 1_555 1_555
C3_8 C2_8 1_555 1_555
C4_8 C3_8 1_555 1_555
C5_8 C4_8 1_555 1_555
C6_8 C1_8 1_555 1_555
H3_8 C6_8 1_555 1_555
C7_8 C5_8 1_555 1_555
C8_8 C7_8 1_555 1_555
H4_8 C8_8 1_555 1_555
C9_8 C8_8 1_555 1_555
C12_8 C7_8 1_555 1_555
C13_8 C1_8 1_555 1_555
C5_8 C6_8 1_555 1_555

#END
