
###############################################################################
#
# This file contains modified crystal structure data generated from the
# MOF subset of the Cambridge Structural Database (CSD) v543 
# hosted by the Cambridge Crystallographic Data Centre (CCDC).
#
# This work is licensed under the Creative Commons
# Attribution-NonCommercial-ShareAlike 4.0 International License.
# To view a copy of this license, visit
# http://creativecommons.org/licenses/by-nc-sa/4.0/
# or send a letter to
# Creative Commons, PO Box 1866, Mountain View, CA 94042, USA.
#
# CIF created using the CSD Python API on 29 September 2022
# The structure has been converted into the P1 space group
# The structure has a 3D framework
# The original CSD entry NUHYUL is in the orthorhombic crystal system
# The framework has been calculated to contain at least 10.0% void space
# The void calculation uses a probe of radius 1.32A, grid spacing 0.4
#
###############################################################################

data_NUHYUL
_chemical_formula_moiety         '(C496 H288 Cu29 N48 O160 S16)n'
_symmetry_cell_setting           triclinic
_symmetry_space_group_name_H-M   'P 1'
_symmetry_Int_Tables_number      1
_space_group_name_Hall           'P 1'
loop_
_symmetry_equiv_pos_site_id
_symmetry_equiv_pos_as_xyz
1 x,y,z
_cell_length_a                   19.1842(19)
_cell_length_b                   43.462(4)
_cell_length_c                   15.4484(15)
_cell_angle_alpha                90
_cell_angle_beta                 90
_cell_angle_gamma                90
_cell_volume                     12880.6
loop_
_atom_site_label
_atom_site_type_symbol
_atom_site_fract_x
_atom_site_fract_y
_atom_site_fract_z
O5 O 0.2755(3) 0.08391(12) 0.2395(3)
O6 O 0.33014(19) 0.11946(10) 0.1592(3)
O7 O 0.1935(2) 0.10862(10) 0.0476(3)
O8 O 0.1855(2) 0.15842(9) 0.0091(2)
O9 O 0.0457(2) 0.22237(11) 0.2112(3)
O10 O 0.0775(2) 0.22003(11) 0.3658(3)
S1 S 0.05977(8) 0.20460(4) 0.28658(11)
H1 H 0.0032 0.1785 0.4359
C9 C 0.1899(2) 0.13659(13) 0.0623(4)
C10 C 0.1858(3) 0.14660(13) 0.1569(4)
C11 C 0.1368(3) 0.16942(13) 0.1770(4)
H4 H 0.1114 0.1789 0.1331
C12 C 0.1263(3) 0.17778(13) 0.2616(4)
C13 C 0.1638(3) 0.16443(16) 0.3280(4)
H5 H 0.1556 0.1700 0.3852
C14 C 0.2141(3) 0.14256(16) 0.3079(4)
H6 H 0.2411 0.1340 0.3518
C15 C 0.2243(3) 0.13342(14) 0.2231(4)
C16 C 0.2808(3) 0.10944(15) 0.2062(4)
C18 C 0.0373(3) 0.03435(15) 0.4904(4)
H8 H 0.0376 0.0285 0.4325
C19 C 0.0834(3) 0.02117(13) 0.5479(4)
C20 C 0.0793(3) 0.03047(14) 0.6353(5)
H9 H 0.1089 0.0220 0.6766
C21 C 0.0306(3) 0.05244(15) 0.6587(4)
H10 H 0.0284 0.0585 0.7163
H11 H 0.1292 0.0055 0.3913
Cu4 Cu 0.41596(3) 0.097664(15) 0.13702(4)
Cu10 Cu 0.71233(3) 0.085720(16) 0.42908(4)
N6 N 0.0299(2) 0.19914(12) 0.7148(3)
N7 N 0.6344(2) 0.05561(11) 0.4472(3)
O16 O 0.03275(19) 0.13309(9) 0.6561(2)
C58 C 0.6222(4) 0.03620(15) 0.3829(4)
H33 H 0.6495 0.0374 0.3333
C59 C 0.5694(3) 0.01382(17) 0.3867(5)
H34 H 0.5621 0.0005 0.3403
C60 C 0.5286(3) 0.01175(14) 0.4601(4)
C61 C 0.5445(3) 0.02975(17) 0.5282(5)
H35 H 0.5207 0.0274 0.5802
C62 C 0.5974(3) 0.05216(14) 0.5202(4)
H36 H 0.6069 0.0649 0.5671
Cu5 Cu 0.16596(3) 0.152336(15) 0.88702(4)
Cu9 Cu 0.21233(3) 0.085720(16) 0.92908(4)
Cu2 Cu 0.28767(3) 0.914280(16) 0.42908(4)
N2 N 0.2201(2) 0.94914(12) 0.4648(3)
N3 N 0.3656(2) 0.94439(11) 0.4472(3)
C22 C 0.1329(3) 0.99706(13) 0.5192(4)
C23 C 0.1479(3) 0.99256(14) 0.4331(4)
C24 C 0.1912(3) 0.96844(14) 0.4094(4)
H12 H 0.2005 0.9657 0.3508
C25 C 0.2067(3) 0.95378(15) 0.5495(4)
H13 H 0.2263 0.9404 0.5895
C26 C 0.1650(3) 0.97760(16) 0.5801(4)
H14 H 0.1585 0.9806 0.6391
C27 C 0.3778(4) 0.96380(15) 0.3829(4)
H15 H 0.3505 0.9626 0.3333
C28 C 0.4306(3) 0.98618(17) 0.3867(5)
H16 H 0.4379 0.9995 0.3403
C29 C 0.4714(3) 0.98825(14) 0.4601(4)
C30 C 0.4555(3) 0.97025(17) 0.5282(5)
H17 H 0.4793 0.9726 0.5802
C31 C 0.4026(3) 0.94784(14) 0.5202(4)
H18 H 0.3931 0.9351 0.5671
O12 O 0.3250(2) 0.90978(9) 0.3062(2)
O15 O 0.21725(19) 0.88309(9) 0.4061(2)
O22 O 0.3065(2) 0.89138(10) 0.5476(3)
Cu11 Cu 0.46233(3) 0.164280(16) 0.17908(4)
N4 N 0.4860(2) 0.06551(11) 0.1013(3)
O11 O 0.4250(2) 0.15978(9) 0.0562(2)
O13 O 0.4109(2) 0.11086(9) 0.0159(3)
O26 O 0.4355(2) 0.09158(9) 0.2591(2)
C32 C 0.4184(2) 0.13906(14) 0.0016(4)
C48 C 0.4901(3) 0.05651(15) 0.0196(4)
C50 C 0.5834(3) 0.02117(13) 0.0479(4)
C51 C 0.5793(3) 0.03047(14) 0.1353(5)
H27 H 0.6089 0.0220 0.1766
C52 C 0.5306(3) 0.05244(15) 0.1587(4)
H28 H 0.5284 0.0585 0.2163
Cu1 Cu 0.91596(3) 0.097664(15) 0.63702(4)
N1 N 0.9860(2) 0.06551(11) 0.6013(3)
O1 O 0.9250(2) 0.15978(9) 0.5562(2)
O2 O 0.9109(2) 0.11086(9) 0.5159(3)
O3 O 0.78275(19) 0.11691(9) 0.4061(2)
O4 O 0.8370(2) 0.08883(10) 0.3057(3)
C1 C 0.9184(2) 0.13906(14) 0.5016(4)
C2 C 0.9240(3) 0.14895(13) 0.4086(4)
C3 C 0.9765(3) 0.17055(13) 0.3909(4)
C4 C 0.9887(3) 0.18001(13) 0.3073(3)
C5 C 0.9478(3) 0.16947(16) 0.2381(4)
H2 H 0.9544 0.1769 0.1823
C6 C 0.8969(3) 0.14739(15) 0.2558(4)
H3 H 0.8701 0.1396 0.2107
C7 C 0.8854(3) 0.13669(13) 0.3410(4)
C8 C 0.8316(3) 0.11159(13) 0.3507(4)
C17 C 0.9901(3) 0.05651(15) 0.5196(4)
H7 H 0.9600 0.0654 0.4796
Cu6 Cu 0.66596(3) 0.152336(15) 0.38702(4)
Cu7 Cu 0.96233(3) 0.164280(16) 0.67908(4)
N8 N 0.8844(2) 0.19439(11) 0.6972(3)
O14 O 0.28275(19) 0.11691(9) 0.9061(2)
O17 O 0.3370(2) 0.08883(10) 0.8057(3)
O18 O 0.7755(3) 0.08391(12) 0.7395(3)
O19 O 0.83014(19) 0.11946(10) 0.6592(3)
O21 O 0.6935(2) 0.10862(10) 0.5476(3)
O23 O 0.9435(2) 0.14138(10) 0.7976(3)
O24 O 0.6855(2) 0.15842(9) 0.5091(2)
O25 O 0.9355(2) 0.09158(9) 0.7591(2)
O27 O 0.5457(2) 0.22237(11) 0.7112(3)
O28 O 0.5775(2) 0.22003(11) 0.8658(3)
S2 S 0.55977(8) 0.20460(4) 0.78658(11)
C33 C 0.4240(3) 0.14895(13) 0.9086(4)
C34 C 0.4765(3) 0.17055(13) 0.8909(4)
H19 H 0.5032 0.1785 0.9359
C35 C 0.4887(3) 0.18001(13) 0.8073(3)
C36 C 0.4478(3) 0.16947(16) 0.7381(4)
H20 H 0.4544 0.1769 0.6823
C37 C 0.3969(3) 0.14739(15) 0.7558(4)
H21 H 0.3701 0.1396 0.7107
C38 C 0.3854(3) 0.13669(13) 0.8410(4)
C39 C 0.3316(3) 0.11159(13) 0.8507(4)
C40 C 0.6899(2) 0.13659(13) 0.5623(4)
C41 C 0.6858(3) 0.14660(13) 0.6569(4)
C42 C 0.6368(3) 0.16942(13) 0.6770(4)
H22 H 0.6114 0.1789 0.6331
C43 C 0.6263(3) 0.17778(13) 0.7616(4)
C44 C 0.6638(3) 0.16443(16) 0.8280(4)
H23 H 0.6556 0.1700 0.8852
C45 C 0.7141(3) 0.14256(16) 0.8079(4)
H24 H 0.7411 0.1340 0.8518
C46 C 0.7243(3) 0.13342(14) 0.7231(4)
C47 C 0.7808(3) 0.10944(15) 0.7062(4)
H25 H 0.4600 0.0654 0.9796
C49 C 0.5373(3) 0.03435(15) 0.9904(4)
H26 H 0.5376 0.0285 0.9325
H29 H 0.6292 0.0055 0.8913
C53 C 0.6329(3) 0.99706(13) 0.0192(4)
C56 C 0.7067(3) 0.95378(15) 0.0495(4)
H31 H 0.7263 0.9404 0.0895
C57 C 0.6650(3) 0.97760(16) 0.0801(4)
H32 H 0.6585 0.9806 0.1391
Cu13 Cu 0.78767(3) 0.914280(16) 0.92908(4)
N5 N 0.7201(2) 0.94914(12) 0.9648(3)
C54 C 0.6479(3) 0.99256(14) 0.9331(4)
C55 C 0.6912(3) 0.96844(14) 0.9094(4)
H30 H 0.7005 0.9657 0.8508
C53_2 C 0.3671(3) 0.00294(13) 0.0192(4)
C56_2 C 0.2933(3) 0.04622(15) 0.0495(4)
H31_2 H 0.2737 0.0596 0.0895
C57_2 C 0.3350(3) 0.02240(16) 0.0801(4)
H32_2 H 0.3415 0.0194 0.1391
N5_2 N 0.2799(2) 0.05086(12) 0.9648(3)
C54_2 C 0.3521(3) 0.00744(14) 0.9331(4)
C55_2 C 0.3088(3) 0.03156(14) 0.9094(4)
H30_2 H 0.2995 0.0343 0.8508
Cu3 Cu 0.58404(3) 0.902336(15) 0.13702(4)
Cu11_2 Cu 0.53767(3) 0.835720(16) 0.17908(4)
N4_2 N 0.5140(2) 0.93449(11) 0.1013(3)
O11_2 O 0.5750(2) 0.84022(9) 0.0562(2)
O13_2 O 0.5891(2) 0.88914(9) 0.0159(3)
O20 O 0.66986(19) 0.88054(10) 0.1592(3)
O26_2 O 0.5645(2) 0.90842(9) 0.2591(2)
C32_2 C 0.5816(2) 0.86094(14) 0.0016(4)
C48_2 C 0.5099(3) 0.94349(15) 0.0196(4)
C50_2 C 0.4166(3) 0.97883(13) 0.0479(4)
C51_2 C 0.4207(3) 0.96953(14) 0.1353(5)
H27_2 H 0.3911 0.9780 0.1766
C52_2 C 0.4694(3) 0.94756(15) 0.1587(4)
H28_2 H 0.4716 0.9415 0.2163
Cu1_2 Cu 0.08404(3) 0.902336(15) 0.63702(4)
N1_2 N 0.0140(2) 0.93449(11) 0.6013(3)
O1_2 O 0.0750(2) 0.84022(9) 0.5562(2)
O2_2 O 0.0891(2) 0.88914(9) 0.5159(3)
O4_2 O 0.1630(2) 0.91117(10) 0.3057(3)
C1_2 C 0.0816(2) 0.86094(14) 0.5016(4)
C2_2 C 0.0760(3) 0.85105(13) 0.4086(4)
C3_2 C 0.0235(3) 0.82945(13) 0.3909(4)
C4_2 C 0.0113(3) 0.81999(13) 0.3073(3)
C5_2 C 0.0522(3) 0.83053(16) 0.2381(4)
H2_2 H 0.0456 0.8231 0.1823
C6_2 C 0.1031(3) 0.85261(15) 0.2558(4)
H3_2 H 0.1299 0.8604 0.2107
C7_2 C 0.1146(3) 0.86331(13) 0.3410(4)
C8_2 C 0.1684(3) 0.88841(13) 0.3507(4)
C17_2 C 0.0099(3) 0.94349(15) 0.5196(4)
H7_2 H 0.0400 0.9346 0.4796
Cu6_2 Cu 0.33404(3) 0.847664(15) 0.38702(4)
Cu7_2 Cu 0.03767(3) 0.835720(16) 0.67908(4)
N8_2 N 0.1156(2) 0.80561(11) 0.6972(3)
O14_2 O 0.71725(19) 0.88309(9) 0.9061(2)
O17_2 O 0.6630(2) 0.91117(10) 0.8057(3)
O18_2 O 0.2245(3) 0.91609(12) 0.7395(3)
O19_2 O 0.16986(19) 0.88054(10) 0.6592(3)
O23_2 O 0.0565(2) 0.85862(10) 0.7976(3)
O24_2 O 0.3145(2) 0.84158(9) 0.5091(2)
O25_2 O 0.0645(2) 0.90842(9) 0.7591(2)
O27_2 O 0.4543(2) 0.77763(11) 0.7112(3)
O28_2 O 0.4225(2) 0.77997(11) 0.8658(3)
S2_2 S 0.44023(8) 0.79540(4) 0.78658(11)
C33_2 C 0.5760(3) 0.85105(13) 0.9086(4)
C34_2 C 0.5235(3) 0.82945(13) 0.8909(4)
H19_2 H 0.4968 0.8215 0.9359
C35_2 C 0.5113(3) 0.81999(13) 0.8073(3)
C36_2 C 0.5522(3) 0.83053(16) 0.7381(4)
H20_2 H 0.5456 0.8231 0.6823
C37_2 C 0.6031(3) 0.85261(15) 0.7558(4)
H21_2 H 0.6299 0.8604 0.7107
C38_2 C 0.6146(3) 0.86331(13) 0.8410(4)
C39_2 C 0.6684(3) 0.88841(13) 0.8507(4)
C40_2 C 0.3101(2) 0.86341(13) 0.5623(4)
C41_2 C 0.3142(3) 0.85340(13) 0.6569(4)
C42_2 C 0.3632(3) 0.83058(13) 0.6770(4)
H22_2 H 0.3886 0.8211 0.6331
C43_2 C 0.3737(3) 0.82222(13) 0.7616(4)
C44_2 C 0.3362(3) 0.83557(16) 0.8280(4)
H23_2 H 0.3444 0.8300 0.8852
C45_2 C 0.2859(3) 0.85744(16) 0.8079(4)
H24_2 H 0.2589 0.8660 0.8518
C46_2 C 0.2757(3) 0.86658(14) 0.7231(4)
C47_2 C 0.2192(3) 0.89056(15) 0.7062(4)
H25_2 H 0.5400 0.9346 0.9796
C49_2 C 0.4627(3) 0.96565(15) 0.9904(4)
H26_2 H 0.4624 0.9715 0.9325
H29_2 H 0.3708 0.9945 0.8913
N2_2 N 0.7799(2) 0.05086(12) 0.4648(3)
C22_2 C 0.8671(3) 0.00294(13) 0.5192(4)
C23_2 C 0.8521(3) 0.00744(14) 0.4331(4)
C24_2 C 0.8088(3) 0.03156(14) 0.4094(4)
H12_2 H 0.7995 0.0343 0.3508
C25_2 C 0.7933(3) 0.04622(15) 0.5495(4)
H13_2 H 0.7737 0.0596 0.5895
C26_2 C 0.8350(3) 0.02240(16) 0.5801(4)
H14_2 H 0.8415 0.0194 0.6391
O12_2 O 0.6750(2) 0.09022(9) 0.3062(2)
O5_2 O 0.7245(3) 0.91609(12) 0.2395(3)
O7_2 O 0.8065(2) 0.89138(10) 0.0476(3)
O8_2 O 0.8145(2) 0.84158(9) 0.0091(2)
O9_2 O 0.9543(2) 0.77763(11) 0.2112(3)
O10_2 O 0.9225(2) 0.77997(11) 0.3658(3)
S1_2 S 0.94023(8) 0.79540(4) 0.28658(11)
H1_2 H 0.9968 0.8215 0.4359
C9_2 C 0.8101(2) 0.86341(13) 0.0623(4)
C10_2 C 0.8142(3) 0.85340(13) 0.1569(4)
C11_2 C 0.8632(3) 0.83058(13) 0.1770(4)
H4_2 H 0.8886 0.8211 0.1331
C12_2 C 0.8737(3) 0.82222(13) 0.2616(4)
C13_2 C 0.8362(3) 0.83557(16) 0.3280(4)
H5_2 H 0.8444 0.8300 0.3852
C14_2 C 0.7859(3) 0.85744(16) 0.3079(4)
H6_2 H 0.7589 0.8660 0.3518
C15_2 C 0.7757(3) 0.86658(14) 0.2231(4)
C16_2 C 0.7192(3) 0.89056(15) 0.2062(4)
C18_2 C 0.9627(3) 0.96565(15) 0.4904(4)
H8_2 H 0.9624 0.9715 0.4325
C19_2 C 0.9166(3) 0.97883(13) 0.5479(4)
C20_2 C 0.9207(3) 0.96953(14) 0.6353(5)
H9_2 H 0.8911 0.9780 0.6766
C21_2 C 0.9694(3) 0.94756(15) 0.6587(4)
H10_2 H 0.9716 0.9415 0.7163
H11_2 H 0.8708 0.9945 0.3913
N6_2 N 0.9701(2) 0.80086(12) 0.7148(3)
O16_2 O 0.96725(19) 0.86691(9) 0.6561(2)
Cu5_2 Cu 0.83404(3) 0.847664(15) 0.88702(4)
Cu13_2 Cu 0.03767(3) 0.335720(16) 0.17908(4)
Cu2_2 Cu 0.53767(3) 0.335720(16) 0.67908(4)
N1_3 N 0.2360(2) 0.18449(11) 0.8513(3)
N2_3 N 0.4701(2) 0.30086(12) 0.7148(3)
N3_2 N 0.6156(2) 0.30561(11) 0.6972(3)
O1_3 O 0.1750(2) 0.09022(9) 0.8062(2)
O2_3 O 0.1609(2) 0.13914(9) 0.7659(3)
O4_3 O 0.0870(2) 0.16117(10) 0.5557(3)
O5_3 O 0.5255(3) 0.16609(12) 0.4895(3)
O6_2 O 0.58014(19) 0.13054(10) 0.4092(3)
O7_3 O 0.4435(2) 0.14138(10) 0.2976(3)
O9_3 O 0.2957(2) 0.02763(11) 0.4612(3)
O10_3 O 0.3275(2) 0.02997(11) 0.6158(3)
S1_3 S 0.30977(8) 0.04540(4) 0.53658(11)
C1_3 C 0.1684(2) 0.11094(14) 0.7516(4)
C2_3 C 0.1740(3) 0.10105(13) 0.6586(4)
C3_3 C 0.2265(3) 0.07945(13) 0.6409(4)
H1_3 H 0.2532 0.0715 0.6859
C4_3 C 0.2387(3) 0.06999(13) 0.5573(3)
C5_3 C 0.1978(3) 0.08053(16) 0.4881(4)
H2_3 H 0.2044 0.0731 0.4323
C6_3 C 0.1469(3) 0.10261(15) 0.5058(4)
H3_3 H 0.1201 0.1104 0.4607
C7_3 C 0.1354(3) 0.11331(13) 0.5910(4)
C8_3 C 0.0816(3) 0.13841(13) 0.6007(4)
C9_3 C 0.4399(2) 0.11341(13) 0.3123(4)
C10_3 C 0.4358(3) 0.10340(13) 0.4069(4)
C11_3 C 0.3868(3) 0.08058(13) 0.4270(4)
H4_3 H 0.3614 0.0711 0.3831
C12_3 C 0.3763(3) 0.07222(13) 0.5116(4)
C13_3 C 0.4138(3) 0.08557(16) 0.5780(4)
H5_3 H 0.4056 0.0800 0.6352
C14_3 C 0.4641(3) 0.10744(16) 0.5579(4)
H6_3 H 0.4911 0.1160 0.6018
C15_3 C 0.4743(3) 0.11658(14) 0.4731(4)
C16_3 C 0.5308(3) 0.14056(15) 0.4562(4)
C17_3 C 0.2401(3) 0.19349(15) 0.7696(4)
H7_3 H 0.2100 0.1846 0.7296
C18_3 C 0.2873(3) 0.21565(15) 0.7404(4)
H8_3 H 0.2876 0.2215 0.6825
C19_3 C 0.3334(3) 0.22883(13) 0.7979(4)
C20_3 C 0.3293(3) 0.21953(14) 0.8853(5)
H9_3 H 0.3589 0.2280 0.9266
C21_3 C 0.2806(3) 0.19756(15) 0.9087(4)
H10_3 H 0.2784 0.1915 0.9663
C22_3 C 0.3829(3) 0.25294(13) 0.7692(4)
C23_3 C 0.3979(3) 0.25744(14) 0.6831(4)
H11_3 H 0.3792 0.2445 0.6413
C24_3 C 0.4412(3) 0.28156(14) 0.6594(4)
H12_3 H 0.4505 0.2843 0.6008
C25_3 C 0.4567(3) 0.29622(15) 0.7995(4)
H13_3 H 0.4763 0.3096 0.8395
C26_3 C 0.4150(3) 0.27240(16) 0.8301(4)
H14_3 H 0.4085 0.2694 0.8891
C27_2 C 0.6278(4) 0.28620(15) 0.6329(4)
H15_2 H 0.6005 0.2874 0.5833
C28_2 C 0.6806(3) 0.26382(17) 0.6367(5)
H16_2 H 0.6879 0.2505 0.5903
C29_2 C 0.7214(3) 0.26175(14) 0.7101(4)
C30_2 C 0.7055(3) 0.27975(17) 0.7782(5)
H17_2 H 0.7293 0.2774 0.8302
C31_2 C 0.6526(3) 0.30216(14) 0.7702(4)
H18_2 H 0.6431 0.3149 0.8171
N8_3 N 0.1344(2) 0.05561(11) 0.9472(3)
O12_3 O 0.5750(2) 0.34022(9) 0.5562(2)
O15_2 O 0.46725(19) 0.36691(9) 0.6561(2)
O18_3 O 0.0255(3) 0.16609(12) 0.9895(3)
O19_3 O 0.08014(19) 0.13054(10) 0.9092(3)
O22_2 O 0.5565(2) 0.35862(10) 0.7976(3)
C47_3 C 0.0308(3) 0.14056(15) 0.9562(4)
C58_2 C 0.8722(4) 0.21380(15) 0.6329(4)
H33_2 H 0.8995 0.2126 0.5833
C59_2 C 0.8194(3) 0.23618(17) 0.6367(5)
H34_2 H 0.8121 0.2495 0.5903
C60_2 C 0.7786(3) 0.23825(14) 0.7101(4)
C61_2 C 0.7945(3) 0.22025(17) 0.7782(5)
H35_2 H 0.7707 0.2226 0.8302
C62_2 C 0.8474(3) 0.19784(14) 0.7702(4)
H36_2 H 0.8569 0.1851 0.8171
N4_3 N 0.7360(2) 0.18449(11) 0.3513(3)
N5_3 N 0.9701(2) 0.30086(12) 0.2148(3)
O13_3 O 0.6609(2) 0.13914(9) 0.2659(3)
O14_3 O 0.53275(19) 0.13309(9) 0.1561(2)
O17_3 O 0.5870(2) 0.16117(10) 0.0557(3)
O28_3 O 0.8275(2) 0.02997(11) 0.1158(3)
S2_3 S 0.80977(8) 0.04540(4) 0.03658(11)
C32_3 C 0.6684(2) 0.11094(14) 0.2516(4)
C33_3 C 0.6740(3) 0.10105(13) 0.1586(4)
C34_3 C 0.7265(3) 0.07945(13) 0.1409(4)
H19_3 H 0.7532 0.0715 0.1859
C35_3 C 0.7387(3) 0.06999(13) 0.0573(3)
C37_3 C 0.6469(3) 0.10261(15) 0.0058(4)
C38_3 C 0.6354(3) 0.11331(13) 0.0910(4)
C39_3 C 0.5816(3) 0.13841(13) 0.1007(4)
C43_3 C 0.8763(3) 0.07222(13) 0.0116(4)
C44_3 C 0.9138(3) 0.08557(16) 0.0780(4)
H23_3 H 0.9056 0.0800 0.1352
C45_3 C 0.9641(3) 0.10744(16) 0.0579(4)
H24_3 H 0.9911 0.1160 0.1018
C48_3 C 0.7401(3) 0.19349(15) 0.2696(4)
H25_3 H 0.7100 0.1846 0.2296
C49_3 C 0.7873(3) 0.21565(15) 0.2404(4)
H26_3 H 0.7876 0.2215 0.1825
C50_3 C 0.8334(3) 0.22883(13) 0.2979(4)
C51_3 C 0.8293(3) 0.21953(14) 0.3853(5)
H27_3 H 0.8589 0.2280 0.4266
C52_3 C 0.7806(3) 0.19756(15) 0.4087(4)
H28_3 H 0.7784 0.1915 0.4663
C53_3 C 0.8829(3) 0.25294(13) 0.2692(4)
C54_3 C 0.8979(3) 0.25744(14) 0.1831(4)
H29_3 H 0.8792 0.2445 0.1413
C55_3 C 0.9412(3) 0.28156(14) 0.1594(4)
H30_3 H 0.9505 0.2843 0.1008
C56_3 C 0.9567(3) 0.29622(15) 0.2995(4)
H31_3 H 0.9763 0.3096 0.3395
C57_3 C 0.9150(3) 0.27240(16) 0.3301(4)
H32_3 H 0.9085 0.2694 0.3891
O27_3 O 0.7957(2) 0.02763(11) 0.9612(3)
C36_3 C 0.6978(3) 0.08053(16) 0.9881(4)
H20_3 H 0.7044 0.0731 0.9323
H21_3 H 0.6201 0.1104 0.9607
C40_3 C 0.9399(2) 0.11341(13) 0.8123(4)
C41_3 C 0.9358(3) 0.10340(13) 0.9069(4)
C42_3 C 0.8868(3) 0.08058(13) 0.9270(4)
H22_3 H 0.8614 0.0711 0.8831
C46_3 C 0.9743(3) 0.11658(14) 0.9731(4)
Cu3_2 Cu 0.83404(3) 0.347664(15) 0.38702(4)
Cu11_3 Cu 0.78767(3) 0.414280(16) 0.42908(4)
N4_4 N 0.7640(2) 0.31551(11) 0.3513(3)
N5_4 N 0.5299(2) 0.19914(12) 0.2148(3)
O11_3 O 0.8250(2) 0.40978(9) 0.3062(2)
O13_4 O 0.8391(2) 0.36086(9) 0.2659(3)
O14_4 O 0.96725(19) 0.36691(9) 0.1561(2)
O17_4 O 0.9130(2) 0.33883(10) 0.0557(3)
O20_2 O 0.91986(19) 0.36946(10) 0.4092(3)
O23_3 O 0.3065(2) 0.39138(10) 0.0476(3)
O25_3 O 0.3145(2) 0.34158(9) 0.0091(2)
O26_3 O 0.8145(2) 0.34158(9) 0.5091(2)
O28_4 O 0.6725(2) 0.47003(11) 0.1158(3)
S2_4 S 0.69023(8) 0.45460(4) 0.03658(11)
C32_4 C 0.8316(2) 0.38906(14) 0.2516(4)
C33_4 C 0.8260(3) 0.39895(13) 0.1586(4)
C34_4 C 0.7735(3) 0.42055(13) 0.1409(4)
H19_4 H 0.7468 0.4285 0.1859
C35_4 C 0.7613(3) 0.43001(13) 0.0573(3)
C37_4 C 0.8531(3) 0.39739(15) 0.0058(4)
C38_4 C 0.8646(3) 0.38669(13) 0.0910(4)
C39_4 C 0.9184(3) 0.36159(13) 0.1007(4)
C43_4 C 0.6237(3) 0.42778(13) 0.0116(4)
C44_4 C 0.5862(3) 0.41443(16) 0.0780(4)
H23_4 H 0.5944 0.4200 0.1352
C45_4 C 0.5359(3) 0.39256(16) 0.0579(4)
H24_4 H 0.5089 0.3840 0.1018
C48_4 C 0.7599(3) 0.30651(15) 0.2696(4)
H25_4 H 0.7900 0.3154 0.2296
C49_4 C 0.7127(3) 0.28435(15) 0.2404(4)
H26_4 H 0.7124 0.2785 0.1825
C50_4 C 0.6666(3) 0.27117(13) 0.2979(4)
C51_4 C 0.6707(3) 0.28047(14) 0.3853(5)
H27_4 H 0.6411 0.2720 0.4266
C52_4 C 0.7194(3) 0.30244(15) 0.4087(4)
H28_4 H 0.7216 0.3085 0.4663
C53_4 C 0.6171(3) 0.24706(13) 0.2692(4)
C54_4 C 0.6021(3) 0.24256(14) 0.1831(4)
H29_4 H 0.6208 0.2555 0.1413
C55_4 C 0.5588(3) 0.21844(14) 0.1594(4)
H30_4 H 0.5495 0.2157 0.1008
C56_4 C 0.5433(3) 0.20378(15) 0.2995(4)
H31_4 H 0.5237 0.1904 0.3395
C57_4 C 0.5850(3) 0.22760(16) 0.3301(4)
H32_4 H 0.5915 0.2306 0.3891
Cu1_3 Cu 0.33404(3) 0.347664(15) 0.88702(4)
N1_4 N 0.2640(2) 0.31551(11) 0.8513(3)
O1_4 O 0.3250(2) 0.40978(9) 0.8062(2)
O2_4 O 0.3391(2) 0.36086(9) 0.7659(3)
O4_4 O 0.4130(2) 0.33883(10) 0.5557(3)
O7_4 O 0.0565(2) 0.35862(10) 0.2976(3)
O8_3 O 0.0645(2) 0.40842(9) 0.2591(2)
O9_4 O 0.2043(2) 0.47237(11) 0.4612(3)
O10_4 O 0.1725(2) 0.47003(11) 0.6158(3)
S1_4 S 0.19023(8) 0.45460(4) 0.53658(11)
C1_4 C 0.3316(2) 0.38906(14) 0.7516(4)
C2_4 C 0.3260(3) 0.39895(13) 0.6586(4)
C3_4 C 0.2735(3) 0.42055(13) 0.6409(4)
H1_4 H 0.2468 0.4285 0.6859
C4_4 C 0.2613(3) 0.43001(13) 0.5573(3)
C5_4 C 0.3022(3) 0.41947(16) 0.4881(4)
H2_4 H 0.2956 0.4269 0.4323
C6_4 C 0.3531(3) 0.39739(15) 0.5058(4)
H3_4 H 0.3799 0.3896 0.4607
C7_4 C 0.3646(3) 0.38669(13) 0.5910(4)
C8_4 C 0.4184(3) 0.36159(13) 0.6007(4)
C9_4 C 0.0601(2) 0.38659(13) 0.3123(4)
C10_4 C 0.0642(3) 0.39660(13) 0.4069(4)
C11_4 C 0.1132(3) 0.41942(13) 0.4270(4)
H4_4 H 0.1386 0.4289 0.3831
C12_4 C 0.1237(3) 0.42778(13) 0.5116(4)
C13_4 C 0.0862(3) 0.41443(16) 0.5780(4)
H5_4 H 0.0944 0.4200 0.6352
C14_4 C 0.0359(3) 0.39256(16) 0.5579(4)
H6_4 H 0.0089 0.3840 0.6018
C15_4 C 0.0257(3) 0.38342(14) 0.4731(4)
C17_4 C 0.2599(3) 0.30651(15) 0.7696(4)
H7_4 H 0.2900 0.3154 0.7296
C18_4 C 0.2127(3) 0.28435(15) 0.7404(4)
H8_4 H 0.2124 0.2785 0.6825
C19_4 C 0.1666(3) 0.27117(13) 0.7979(4)
C20_4 C 0.1707(3) 0.28047(14) 0.8853(5)
H9_4 H 0.1411 0.2720 0.9266
C21_4 C 0.2194(3) 0.30244(15) 0.9087(4)
H10_4 H 0.2216 0.3085 0.9663
C22_4 C 0.1171(3) 0.24706(13) 0.7692(4)
C23_4 C 0.1021(3) 0.24256(14) 0.6831(4)
H11_4 H 0.1208 0.2555 0.6413
C24_4 C 0.0588(3) 0.21844(14) 0.6594(4)
H12_4 H 0.0495 0.2157 0.6008
C25_4 C 0.0433(3) 0.20378(15) 0.7995(4)
H13_4 H 0.0237 0.1904 0.8395
C26_4 C 0.0850(3) 0.22760(16) 0.8301(4)
H14_4 H 0.0915 0.2306 0.8891
Cu5_3 Cu 0.08404(3) 0.402336(15) 0.13702(4)
Cu6_3 Cu 0.58404(3) 0.402336(15) 0.63702(4)
Cu7_3 Cu 0.28767(3) 0.414280(16) 0.92908(4)
N6_3 N 0.2201(2) 0.44914(12) 0.9648(3)
N8_4 N 0.3656(2) 0.44439(11) 0.9472(3)
O16_3 O 0.21725(19) 0.38309(9) 0.9061(2)
O18_4 O 0.4745(3) 0.33391(12) 0.9895(3)
O19_4 O 0.41986(19) 0.36946(10) 0.9092(3)
O24_3 O 0.5645(2) 0.40842(9) 0.7591(2)
O27_4 O 0.7043(2) 0.47237(11) 0.9612(3)
C36_4 C 0.8022(3) 0.41947(16) 0.9881(4)
H20_4 H 0.7956 0.4269 0.9323
H21_4 H 0.8799 0.3896 0.9607
C40_4 C 0.5601(2) 0.38659(13) 0.8123(4)
C41_4 C 0.5642(3) 0.39660(13) 0.9069(4)
C42_4 C 0.6132(3) 0.41942(13) 0.9270(4)
H22_4 H 0.6386 0.4289 0.8831
C46_4 C 0.5257(3) 0.38342(14) 0.9731(4)
C47_4 C 0.4692(3) 0.35944(15) 0.9562(4)
O5_4 O 0.9745(3) 0.33391(12) 0.4895(3)
C16_4 C 0.9692(3) 0.35944(15) 0.4562(4)
C19_5 C 0.0834(3) 0.52117(13) 0.0479(4)
C20_5 C 0.0793(3) 0.53047(14) 0.1353(5)
H9_5 H 0.1089 0.5220 0.1766
C21_5 C 0.0306(3) 0.55244(15) 0.1587(4)
H10_5 H 0.0284 0.5585 0.2163
C22_5 C 0.1329(3) 0.49706(13) 0.0192(4)
C25_5 C 0.2067(3) 0.45378(15) 0.0495(4)
H13_5 H 0.2263 0.4404 0.0895
C26_5 C 0.1650(3) 0.47760(16) 0.0801(4)
H14_5 H 0.1585 0.4806 0.1391
C30_3 C 0.4555(3) 0.47025(17) 0.0282(5)
H17_3 H 0.4793 0.4726 0.0802
C31_3 C 0.4026(3) 0.44784(14) 0.0202(4)
H18_3 H 0.3931 0.4351 0.0671
N6_4 N 0.0299(2) 0.69914(12) 0.2148(3)
O16_4 O 0.03275(19) 0.63309(9) 0.1561(2)
C61_3 C 0.5445(3) 0.52975(17) 0.0282(5)
H35_3 H 0.5207 0.5274 0.0802
C62_3 C 0.5974(3) 0.55216(14) 0.0202(4)
H36_3 H 0.6069 0.5649 0.0671
O5_5 O 0.2755(3) 0.58391(12) 0.7395(3)
O6_3 O 0.33014(19) 0.61946(10) 0.6592(3)
O7_5 O 0.1935(2) 0.60862(10) 0.5476(3)
O8_4 O 0.1855(2) 0.65842(9) 0.5091(2)
O9_5 O 0.0457(2) 0.72237(11) 0.7112(3)
O10_5 O 0.0775(2) 0.72003(11) 0.8658(3)
S1_5 S 0.05977(8) 0.70460(4) 0.78658(11)
H1_5 H 0.0032 0.6785 0.9359
C9_5 C 0.1899(2) 0.63659(13) 0.5623(4)
C10_5 C 0.1858(3) 0.64660(13) 0.6569(4)
C11_5 C 0.1368(3) 0.66942(13) 0.6770(4)
H4_5 H 0.1114 0.6789 0.6331
C12_5 C 0.1263(3) 0.67778(13) 0.7616(4)
C13_5 C 0.1638(3) 0.66443(16) 0.8280(4)
H5_5 H 0.1556 0.6700 0.8852
C14_5 C 0.2141(3) 0.64256(16) 0.8079(4)
H6_5 H 0.2411 0.6340 0.8518
C15_5 C 0.2243(3) 0.63342(14) 0.7231(4)
C16_5 C 0.2808(3) 0.60944(15) 0.7062(4)
C18_5 C 0.0373(3) 0.53435(15) 0.9904(4)
H8_5 H 0.0376 0.5285 0.9325
C23_5 C 0.1479(3) 0.49256(14) 0.9331(4)
H11_5 H 0.1292 0.5055 0.8913
C24_5 C 0.1912(3) 0.46844(14) 0.9094(4)
H12_5 H 0.2005 0.4657 0.8508
C27_3 C 0.3778(4) 0.46380(15) 0.8829(4)
H15_3 H 0.3505 0.4626 0.8333
C28_3 C 0.4306(3) 0.48618(17) 0.8867(5)
H16_3 H 0.4379 0.4995 0.8403
C29_3 C 0.4714(3) 0.48825(14) 0.9601(4)
Cu4_2 Cu 0.41596(3) 0.597664(15) 0.63702(4)
Cu5_4 Cu 0.16596(3) 0.652336(15) 0.38702(4)
Cu9_2 Cu 0.21233(3) 0.585720(16) 0.42908(4)
Cu10_2 Cu 0.71233(3) 0.585720(16) 0.92908(4)
N7_2 N 0.6344(2) 0.55561(11) 0.9472(3)
C58_3 C 0.6222(4) 0.53620(15) 0.8829(4)
H33_3 H 0.6495 0.5374 0.8333
C59_3 C 0.5694(3) 0.51382(17) 0.8867(5)
H34_3 H 0.5621 0.5005 0.8403
C60_3 C 0.5286(3) 0.51175(14) 0.9601(4)
Cu1_4 Cu 0.91596(3) 0.597664(15) 0.13702(4)
N1_5 N 0.9860(2) 0.56551(11) 0.1013(3)
O1_5 O 0.9250(2) 0.65978(9) 0.0562(2)
O2_5 O 0.9109(2) 0.61086(9) 0.0159(3)
C1_5 C 0.9184(2) 0.63906(14) 0.0016(4)
C17_5 C 0.9901(3) 0.55651(15) 0.0196(4)
Cu7_4 Cu 0.96233(3) 0.664280(16) 0.17908(4)
Cu11_4 Cu 0.46233(3) 0.664280(16) 0.67908(4)
N4_5 N 0.4860(2) 0.56551(11) 0.6013(3)
N5_5 N 0.7201(2) 0.44914(12) 0.4648(3)
N8_5 N 0.8844(2) 0.69439(11) 0.1972(3)
O11_4 O 0.4250(2) 0.65978(9) 0.5562(2)
O13_5 O 0.4109(2) 0.61086(9) 0.5159(3)
O14_5 O 0.28275(19) 0.61691(9) 0.4061(2)
O17_5 O 0.3370(2) 0.58883(10) 0.3057(3)
O18_5 O 0.7755(3) 0.58391(12) 0.2395(3)
O19_5 O 0.83014(19) 0.61946(10) 0.1592(3)
O21_2 O 0.6935(2) 0.60862(10) 0.0476(3)
O23_4 O 0.9435(2) 0.64138(10) 0.2976(3)
O24_4 O 0.6855(2) 0.65842(9) 0.0091(2)
O25_4 O 0.9355(2) 0.59158(9) 0.2591(2)
O26_4 O 0.4355(2) 0.59158(9) 0.7591(2)
O27_5 O 0.5457(2) 0.72237(11) 0.2112(3)
O28_5 O 0.5775(2) 0.72003(11) 0.3658(3)
S2_5 S 0.55977(8) 0.70460(4) 0.28658(11)
C32_5 C 0.4184(2) 0.63906(14) 0.5016(4)
C33_5 C 0.4240(3) 0.64895(13) 0.4086(4)
C34_5 C 0.4765(3) 0.67055(13) 0.3909(4)
H19_5 H 0.5032 0.6785 0.4359
C35_5 C 0.4887(3) 0.68001(13) 0.3073(3)
C36_5 C 0.4478(3) 0.66947(16) 0.2381(4)
H20_5 H 0.4544 0.6769 0.1823
C37_5 C 0.3969(3) 0.64739(15) 0.2558(4)
H21_5 H 0.3701 0.6396 0.2107
C38_5 C 0.3854(3) 0.63669(13) 0.3410(4)
C39_5 C 0.3316(3) 0.61159(13) 0.3507(4)
C40_5 C 0.6899(2) 0.63659(13) 0.0623(4)
C41_5 C 0.6858(3) 0.64660(13) 0.1569(4)
C42_5 C 0.6368(3) 0.66942(13) 0.1770(4)
H22_5 H 0.6114 0.6789 0.1331
C43_5 C 0.6263(3) 0.67778(13) 0.2616(4)
C44_5 C 0.6638(3) 0.66443(16) 0.3280(4)
H23_5 H 0.6556 0.6700 0.3852
C45_5 C 0.7141(3) 0.64256(16) 0.3079(4)
H24_5 H 0.7411 0.6340 0.3518
C46_5 C 0.7243(3) 0.63342(14) 0.2231(4)
C47_5 C 0.7808(3) 0.60944(15) 0.2062(4)
C48_5 C 0.4901(3) 0.55651(15) 0.5196(4)
H25_5 H 0.4600 0.5654 0.4796
C49_5 C 0.5373(3) 0.53435(15) 0.4904(4)
H26_5 H 0.5376 0.5285 0.4325
C50_5 C 0.5834(3) 0.52117(13) 0.5479(4)
C51_5 C 0.5793(3) 0.53047(14) 0.6353(5)
H27_5 H 0.6089 0.5220 0.6766
C52_5 C 0.5306(3) 0.55244(15) 0.6587(4)
H28_5 H 0.5284 0.5585 0.7163
C53_5 C 0.6329(3) 0.49706(13) 0.5192(4)
C54_5 C 0.6479(3) 0.49256(14) 0.4331(4)
H29_5 H 0.6292 0.5055 0.3913
C55_5 C 0.6912(3) 0.46844(14) 0.4094(4)
H30_5 H 0.7005 0.4657 0.3508
C56_5 C 0.7067(3) 0.45378(15) 0.5495(4)
H31_5 H 0.7263 0.4404 0.5895
C57_5 C 0.6650(3) 0.47760(16) 0.5801(4)
H32_5 H 0.6585 0.4806 0.6391
O3_2 O 0.78275(19) 0.61691(9) 0.9061(2)
O4_5 O 0.8370(2) 0.58883(10) 0.8057(3)
C2_5 C 0.9240(3) 0.64895(13) 0.9086(4)
C3_5 C 0.9765(3) 0.67055(13) 0.8909(4)
C4_5 C 0.9887(3) 0.68001(13) 0.8073(3)
C5_5 C 0.9478(3) 0.66947(16) 0.7381(4)
H2_5 H 0.9544 0.6769 0.6823
C6_5 C 0.8969(3) 0.64739(15) 0.7558(4)
H3_5 H 0.8701 0.6396 0.7107
C7_5 C 0.8854(3) 0.63669(13) 0.8410(4)
C8_5 C 0.8316(3) 0.61159(13) 0.8507(4)
H7_5 H 0.9600 0.5654 0.9796
Cu6_4 Cu 0.66596(3) 0.652336(15) 0.88702(4)
N1_6 N 0.0140(2) 0.43449(11) 0.1013(3)
O1_6 O 0.0750(2) 0.34022(9) 0.0562(2)
O2_6 O 0.0891(2) 0.38914(9) 0.0159(3)
C1_6 C 0.0816(2) 0.36094(14) 0.0016(4)
C17_6 C 0.0099(3) 0.44349(15) 0.0196(4)
N4_6 N 0.5140(2) 0.43449(11) 0.6013(3)
N5_6 N 0.2799(2) 0.55086(12) 0.4648(3)
N8_6 N 0.1156(2) 0.30561(11) 0.1972(3)
O13_6 O 0.5891(2) 0.38914(9) 0.5159(3)
O14_6 O 0.71725(19) 0.38309(9) 0.4061(2)
O17_6 O 0.6630(2) 0.41117(10) 0.3057(3)
O18_6 O 0.2245(3) 0.41609(12) 0.2395(3)
O19_6 O 0.16986(19) 0.38054(10) 0.1592(3)
O20_3 O 0.66986(19) 0.38054(10) 0.6592(3)
O27_6 O 0.4543(2) 0.27763(11) 0.2112(3)
O28_6 O 0.4225(2) 0.27997(11) 0.3658(3)
S2_6 S 0.44023(8) 0.29540(4) 0.28658(11)
C32_6 C 0.5816(2) 0.36094(14) 0.5016(4)
C33_6 C 0.5760(3) 0.35105(13) 0.4086(4)
C34_6 C 0.5235(3) 0.32945(13) 0.3909(4)
H19_6 H 0.4968 0.3215 0.4359
C35_6 C 0.5113(3) 0.31999(13) 0.3073(3)
C36_6 C 0.5522(3) 0.33053(16) 0.2381(4)
H20_6 H 0.5456 0.3231 0.1823
C37_6 C 0.6031(3) 0.35261(15) 0.2558(4)
H21_6 H 0.6299 0.3604 0.2107
C38_6 C 0.6146(3) 0.36331(13) 0.3410(4)
C39_6 C 0.6684(3) 0.38841(13) 0.3507(4)
C40_6 C 0.3101(2) 0.36341(13) 0.0623(4)
C41_6 C 0.3142(3) 0.35340(13) 0.1569(4)
C42_6 C 0.3632(3) 0.33058(13) 0.1770(4)
H22_6 H 0.3886 0.3211 0.1331
C43_6 C 0.3737(3) 0.32222(13) 0.2616(4)
C44_6 C 0.3362(3) 0.33557(16) 0.3280(4)
H23_6 H 0.3444 0.3300 0.3852
C45_6 C 0.2859(3) 0.35744(16) 0.3079(4)
H24_6 H 0.2589 0.3660 0.3518
C46_6 C 0.2757(3) 0.36658(14) 0.2231(4)
C47_6 C 0.2192(3) 0.39056(15) 0.2062(4)
C48_6 C 0.5099(3) 0.44349(15) 0.5196(4)
H25_6 H 0.5400 0.4346 0.4796
C49_6 C 0.4627(3) 0.46565(15) 0.4904(4)
H26_6 H 0.4624 0.4715 0.4325
C50_6 C 0.4166(3) 0.47883(13) 0.5479(4)
C51_6 C 0.4207(3) 0.46953(14) 0.6353(5)
H27_6 H 0.3911 0.4780 0.6766
C52_6 C 0.4694(3) 0.44756(15) 0.6587(4)
H28_6 H 0.4716 0.4415 0.7163
C53_6 C 0.3671(3) 0.50294(13) 0.5192(4)
C54_6 C 0.3521(3) 0.50744(14) 0.4331(4)
H29_6 H 0.3708 0.4945 0.3913
C55_6 C 0.3088(3) 0.53156(14) 0.4094(4)
H30_6 H 0.2995 0.5343 0.3508
C56_6 C 0.2933(3) 0.54622(15) 0.5495(4)
H31_6 H 0.2737 0.5596 0.5895
C57_6 C 0.3350(3) 0.52240(16) 0.5801(4)
H32_6 H 0.3415 0.5194 0.6391
O4_6 O 0.1630(2) 0.41117(10) 0.8057(3)
C2_6 C 0.0760(3) 0.35105(13) 0.9086(4)
C3_6 C 0.0235(3) 0.32945(13) 0.8909(4)
C4_6 C 0.0113(3) 0.31999(13) 0.8073(3)
C5_6 C 0.0522(3) 0.33053(16) 0.7381(4)
H2_6 H 0.0456 0.3231 0.6823
C6_6 C 0.1031(3) 0.35261(15) 0.7558(4)
H3_6 H 0.1299 0.3604 0.7107
C7_6 C 0.1146(3) 0.36331(13) 0.8410(4)
C8_6 C 0.1684(3) 0.38841(13) 0.8507(4)
H7_6 H 0.0400 0.4346 0.9796
C19_6 C 0.9166(3) 0.47883(13) 0.0479(4)
C20_6 C 0.9207(3) 0.46953(14) 0.1353(5)
H9_6 H 0.8911 0.4780 0.1766
C21_6 C 0.9694(3) 0.44756(15) 0.1587(4)
H10_6 H 0.9716 0.4415 0.2163
C22_6 C 0.8671(3) 0.50294(13) 0.0192(4)
C25_6 C 0.7933(3) 0.54622(15) 0.0495(4)
H13_6 H 0.7737 0.5596 0.0895
C26_6 C 0.8350(3) 0.52240(16) 0.0801(4)
H14_6 H 0.8415 0.5194 0.1391
N2_4 N 0.7799(2) 0.55086(12) 0.9648(3)
O5_6 O 0.7245(3) 0.41609(12) 0.7395(3)
O7_6 O 0.8065(2) 0.39138(10) 0.5476(3)
O9_6 O 0.9543(2) 0.27763(11) 0.7112(3)
O10_6 O 0.9225(2) 0.27997(11) 0.8658(3)
S1_6 S 0.94023(8) 0.29540(4) 0.78658(11)
H1_6 H 0.9968 0.3215 0.9359
C9_6 C 0.8101(2) 0.36341(13) 0.5623(4)
C10_6 C 0.8142(3) 0.35340(13) 0.6569(4)
C11_6 C 0.8632(3) 0.33058(13) 0.6770(4)
H4_6 H 0.8886 0.3211 0.6331
C12_6 C 0.8737(3) 0.32222(13) 0.7616(4)
C13_6 C 0.8362(3) 0.33557(16) 0.8280(4)
H5_6 H 0.8444 0.3300 0.8852
C14_6 C 0.7859(3) 0.35744(16) 0.8079(4)
H6_6 H 0.7589 0.3660 0.8518
C15_6 C 0.7757(3) 0.36658(14) 0.7231(4)
C16_6 C 0.7192(3) 0.39056(15) 0.7062(4)
C18_6 C 0.9627(3) 0.46565(15) 0.9904(4)
H8_6 H 0.9624 0.4715 0.9325
C23_6 C 0.8521(3) 0.50744(14) 0.9331(4)
H11_6 H 0.8708 0.4945 0.8913
C24_6 C 0.8088(3) 0.53156(14) 0.9094(4)
H12_6 H 0.7995 0.5343 0.8508
O12_4 O 0.6750(2) 0.59022(9) 0.8062(2)
N1_7 N 0.2360(2) 0.68449(11) 0.3513(3)
N2_5 N 0.4701(2) 0.80086(12) 0.2148(3)
N3_3 N 0.6156(2) 0.80561(11) 0.1972(3)
O1_7 O 0.1750(2) 0.59022(9) 0.3062(2)
O2_7 O 0.1609(2) 0.63914(9) 0.2659(3)
O4_7 O 0.0870(2) 0.66117(10) 0.0557(3)
O10_7 O 0.3275(2) 0.52997(11) 0.1158(3)
S1_7 S 0.30977(8) 0.54540(4) 0.03658(11)
C1_7 C 0.1684(2) 0.61094(14) 0.2516(4)
C2_7 C 0.1740(3) 0.60105(13) 0.1586(4)
C3_7 C 0.2265(3) 0.57945(13) 0.1409(4)
H1_7 H 0.2532 0.5715 0.1859
C4_7 C 0.2387(3) 0.56999(13) 0.0573(3)
C6_7 C 0.1469(3) 0.60261(15) 0.0058(4)
C7_7 C 0.1354(3) 0.61331(13) 0.0910(4)
C8_7 C 0.0816(3) 0.63841(13) 0.1007(4)
C12_7 C 0.3763(3) 0.57222(13) 0.0116(4)
C13_7 C 0.4138(3) 0.58557(16) 0.0780(4)
H5_7 H 0.4056 0.5800 0.1352
C14_7 C 0.4641(3) 0.60744(16) 0.0579(4)
H6_7 H 0.4911 0.6160 0.1018
C17_7 C 0.2401(3) 0.69349(15) 0.2696(4)
H7_7 H 0.2100 0.6846 0.2296
C18_7 C 0.2873(3) 0.71565(15) 0.2404(4)
H8_7 H 0.2876 0.7215 0.1825
C19_7 C 0.3334(3) 0.72883(13) 0.2979(4)
C20_7 C 0.3293(3) 0.71953(14) 0.3853(5)
H9_7 H 0.3589 0.7280 0.4266
C21_7 C 0.2806(3) 0.69756(15) 0.4087(4)
H10_7 H 0.2784 0.6915 0.4663
C22_7 C 0.3829(3) 0.75294(13) 0.2692(4)
C23_7 C 0.3979(3) 0.75744(14) 0.1831(4)
H11_7 H 0.3792 0.7445 0.1413
C24_7 C 0.4412(3) 0.78156(14) 0.1594(4)
H12_7 H 0.4505 0.7843 0.1008
C25_7 C 0.4567(3) 0.79622(15) 0.2995(4)
H13_7 H 0.4763 0.8096 0.3395
C26_7 C 0.4150(3) 0.77240(16) 0.3301(4)
H14_7 H 0.4085 0.7694 0.3891
C27_4 C 0.6278(4) 0.78620(15) 0.1329(4)
H15_4 H 0.6005 0.7874 0.0833
C28_4 C 0.6806(3) 0.76382(17) 0.1367(5)
H16_4 H 0.6879 0.7505 0.0903
C29_4 C 0.7214(3) 0.76175(14) 0.2101(4)
C30_4 C 0.7055(3) 0.77975(17) 0.2782(5)
H17_4 H 0.7293 0.7774 0.3302
C31_4 C 0.6526(3) 0.80216(14) 0.2702(4)
H18_4 H 0.6431 0.8149 0.3171
N8_7 N 0.1344(2) 0.55561(11) 0.4472(3)
O15_3 O 0.46725(19) 0.86691(9) 0.1561(2)
O18_7 O 0.0255(3) 0.66609(12) 0.4895(3)
O19_7 O 0.08014(19) 0.63054(10) 0.4092(3)
O22_3 O 0.5565(2) 0.85862(10) 0.2976(3)
C47_7 C 0.0308(3) 0.64056(15) 0.4562(4)
C58_4 C 0.8722(4) 0.71380(15) 0.1329(4)
H33_4 H 0.8995 0.7126 0.0833
C59_4 C 0.8194(3) 0.73618(17) 0.1367(5)
H34_4 H 0.8121 0.7495 0.0903
C60_4 C 0.7786(3) 0.73825(14) 0.2101(4)
C61_4 C 0.7945(3) 0.72025(17) 0.2782(5)
H35_4 H 0.7707 0.7226 0.3302
C62_4 C 0.8474(3) 0.69784(14) 0.2702(4)
H36_4 H 0.8569 0.6851 0.3171
O5_7 O 0.5255(3) 0.66609(12) 0.9895(3)
O6_4 O 0.58014(19) 0.63054(10) 0.9092(3)
O7_7 O 0.4435(2) 0.64138(10) 0.7976(3)
O9_7 O 0.2957(2) 0.52763(11) 0.9612(3)
C5_7 C 0.1978(3) 0.58053(16) 0.9881(4)
H2_7 H 0.2044 0.5731 0.9323
H3_7 H 0.1201 0.6104 0.9607
C9_7 C 0.4399(2) 0.61341(13) 0.8123(4)
C10_7 C 0.4358(3) 0.60340(13) 0.9069(4)
C11_7 C 0.3868(3) 0.58058(13) 0.9270(4)
H4_7 H 0.3614 0.5711 0.8831
C15_7 C 0.4743(3) 0.61658(14) 0.9731(4)
C16_7 C 0.5308(3) 0.64056(15) 0.9562(4)
N4_7 N 0.7360(2) 0.68449(11) 0.8513(3)
O13_7 O 0.6609(2) 0.63914(9) 0.7659(3)
O14_7 O 0.53275(19) 0.63309(9) 0.6561(2)
O17_7 O 0.5870(2) 0.66117(10) 0.5557(3)
O27_7 O 0.7957(2) 0.52763(11) 0.4612(3)
O28_7 O 0.8275(2) 0.52997(11) 0.6158(3)
S2_7 S 0.80977(8) 0.54540(4) 0.53658(11)
C32_7 C 0.6684(2) 0.61094(14) 0.7516(4)
C33_7 C 0.6740(3) 0.60105(13) 0.6586(4)
C34_7 C 0.7265(3) 0.57945(13) 0.6409(4)
H19_7 H 0.7532 0.5715 0.6859
C35_7 C 0.7387(3) 0.56999(13) 0.5573(3)
C36_7 C 0.6978(3) 0.58053(16) 0.4881(4)
H20_7 H 0.7044 0.5731 0.4323
C37_7 C 0.6469(3) 0.60261(15) 0.5058(4)
H21_7 H 0.6201 0.6104 0.4607
C38_7 C 0.6354(3) 0.61331(13) 0.5910(4)
C39_7 C 0.5816(3) 0.63841(13) 0.6007(4)
C40_7 C 0.9399(2) 0.61341(13) 0.3123(4)
C41_7 C 0.9358(3) 0.60340(13) 0.4069(4)
C42_7 C 0.8868(3) 0.58058(13) 0.4270(4)
H22_7 H 0.8614 0.5711 0.3831
C43_7 C 0.8763(3) 0.57222(13) 0.5116(4)
C44_7 C 0.9138(3) 0.58557(16) 0.5780(4)
H23_7 H 0.9056 0.5800 0.6352
C45_7 C 0.9641(3) 0.60744(16) 0.5579(4)
H24_7 H 0.9911 0.6160 0.6018
C46_7 C 0.9743(3) 0.61658(14) 0.4731(4)
C48_7 C 0.7401(3) 0.69349(15) 0.7696(4)
H25_7 H 0.7100 0.6846 0.7296
C49_7 C 0.7873(3) 0.71565(15) 0.7404(4)
H26_7 H 0.7876 0.7215 0.6825
C50_7 C 0.8334(3) 0.72883(13) 0.7979(4)
C51_7 C 0.8293(3) 0.71953(14) 0.8853(5)
H27_7 H 0.8589 0.7280 0.9266
C52_7 C 0.7806(3) 0.69756(15) 0.9087(4)
H28_7 H 0.7784 0.6915 0.9663
C53_7 C 0.8829(3) 0.75294(13) 0.7692(4)
C54_7 C 0.8979(3) 0.75744(14) 0.6831(4)
H29_7 H 0.8792 0.7445 0.6413
C55_7 C 0.9412(3) 0.78156(14) 0.6594(4)
H30_7 H 0.9505 0.7843 0.6008
C56_7 C 0.9567(3) 0.79622(15) 0.7995(4)
H31_7 H 0.9763 0.8096 0.8395
C57_7 C 0.9150(3) 0.77240(16) 0.8301(4)
H32_7 H 0.9085 0.7694 0.8891
N1_8 N 0.2640(2) 0.81551(11) 0.3513(3)
O2_8 O 0.3391(2) 0.86086(9) 0.2659(3)
O4_8 O 0.4130(2) 0.83883(10) 0.0557(3)
O10_8 O 0.1725(2) 0.97003(11) 0.1158(3)
S1_8 S 0.19023(8) 0.95460(4) 0.03658(11)
C1_8 C 0.3316(2) 0.88906(14) 0.2516(4)
C2_8 C 0.3260(3) 0.89895(13) 0.1586(4)
C3_8 C 0.2735(3) 0.92055(13) 0.1409(4)
H1_8 H 0.2468 0.9285 0.1859
C4_8 C 0.2613(3) 0.93001(13) 0.0573(3)
C6_8 C 0.3531(3) 0.89739(15) 0.0058(4)
C7_8 C 0.3646(3) 0.88669(13) 0.0910(4)
C8_8 C 0.4184(3) 0.86159(13) 0.1007(4)
C12_8 C 0.1237(3) 0.92778(13) 0.0116(4)
C13_8 C 0.0862(3) 0.91443(16) 0.0780(4)
H5_8 H 0.0944 0.9200 0.1352
C14_8 C 0.0359(3) 0.89256(16) 0.0579(4)
H6_8 H 0.0089 0.8840 0.1018
C17_8 C 0.2599(3) 0.80651(15) 0.2696(4)
H7_8 H 0.2900 0.8154 0.2296
C18_8 C 0.2127(3) 0.78435(15) 0.2404(4)
H8_8 H 0.2124 0.7785 0.1825
C19_8 C 0.1666(3) 0.77117(13) 0.2979(4)
C20_8 C 0.1707(3) 0.78047(14) 0.3853(5)
H9_8 H 0.1411 0.7720 0.4266
C21_8 C 0.2194(3) 0.80244(15) 0.4087(4)
H10_8 H 0.2216 0.8085 0.4663
C22_8 C 0.1171(3) 0.74706(13) 0.2692(4)
C23_8 C 0.1021(3) 0.74256(14) 0.1831(4)
H11_8 H 0.1208 0.7555 0.1413
C24_8 C 0.0588(3) 0.71844(14) 0.1594(4)
H12_8 H 0.0495 0.7157 0.1008
C25_8 C 0.0433(3) 0.70378(15) 0.2995(4)
H13_8 H 0.0237 0.6904 0.3395
C26_8 C 0.0850(3) 0.72760(16) 0.3301(4)
H14_8 H 0.0915 0.7306 0.3891
N4_8 N 0.7640(2) 0.81551(11) 0.8513(3)
N5_7 N 0.5299(2) 0.69914(12) 0.7148(3)
O11_5 O 0.8250(2) 0.90978(9) 0.8062(2)
O13_8 O 0.8391(2) 0.86086(9) 0.7659(3)
O17_8 O 0.9130(2) 0.83883(10) 0.5557(3)
O18_8 O 0.4745(3) 0.83391(12) 0.4895(3)
O19_8 O 0.41986(19) 0.86946(10) 0.4092(3)
O20_4 O 0.91986(19) 0.86946(10) 0.9092(3)
O27_8 O 0.7043(2) 0.97237(11) 0.4612(3)
O28_8 O 0.6725(2) 0.97003(11) 0.6158(3)
S2_8 S 0.69023(8) 0.95460(4) 0.53658(11)
C32_8 C 0.8316(2) 0.88906(14) 0.7516(4)
C33_8 C 0.8260(3) 0.89895(13) 0.6586(4)
C34_8 C 0.7735(3) 0.92055(13) 0.6409(4)
H19_8 H 0.7468 0.9285 0.6859
C35_8 C 0.7613(3) 0.93001(13) 0.5573(3)
C36_8 C 0.8022(3) 0.91947(16) 0.4881(4)
H20_8 H 0.7956 0.9269 0.4323
C37_8 C 0.8531(3) 0.89739(15) 0.5058(4)
H21_8 H 0.8799 0.8896 0.4607
C38_8 C 0.8646(3) 0.88669(13) 0.5910(4)
C39_8 C 0.9184(3) 0.86159(13) 0.6007(4)
C40_8 C 0.5601(2) 0.88659(13) 0.3123(4)
C41_8 C 0.5642(3) 0.89660(13) 0.4069(4)
C42_8 C 0.6132(3) 0.91942(13) 0.4270(4)
H22_8 H 0.6386 0.9289 0.3831
C43_8 C 0.6237(3) 0.92778(13) 0.5116(4)
C44_8 C 0.5862(3) 0.91443(16) 0.5780(4)
H23_8 H 0.5944 0.9200 0.6352
C45_8 C 0.5359(3) 0.89256(16) 0.5579(4)
H24_8 H 0.5089 0.8840 0.6018
C46_8 C 0.5257(3) 0.88342(14) 0.4731(4)
C47_8 C 0.4692(3) 0.85944(15) 0.4562(4)
C48_8 C 0.7599(3) 0.80651(15) 0.7696(4)
H25_8 H 0.7900 0.8154 0.7296
C49_8 C 0.7127(3) 0.78435(15) 0.7404(4)
H26_8 H 0.7124 0.7785 0.6825
C50_8 C 0.6666(3) 0.77117(13) 0.7979(4)
C51_8 C 0.6707(3) 0.78047(14) 0.8853(5)
H27_8 H 0.6411 0.7720 0.9266
C52_8 C 0.7194(3) 0.80244(15) 0.9087(4)
H28_8 H 0.7216 0.8085 0.9663
C53_8 C 0.6171(3) 0.74706(13) 0.7692(4)
C54_8 C 0.6021(3) 0.74256(14) 0.6831(4)
H29_8 H 0.6208 0.7555 0.6413
C55_8 C 0.5588(3) 0.71844(14) 0.6594(4)
H30_8 H 0.5495 0.7157 0.6008
C56_8 C 0.5433(3) 0.70378(15) 0.7995(4)
H31_8 H 0.5237 0.6904 0.8395
C57_8 C 0.5850(3) 0.72760(16) 0.8301(4)
H32_8 H 0.5915 0.7306 0.8891
O9_8 O 0.2043(2) 0.97237(11) 0.9612(3)
C5_8 C 0.3022(3) 0.91947(16) 0.9881(4)
H2_8 H 0.2956 0.9269 0.9323
H3_8 H 0.3799 0.8896 0.9607
C9_8 C 0.0601(2) 0.88659(13) 0.8123(4)
C10_8 C 0.0642(3) 0.89660(13) 0.9069(4)
C11_8 C 0.1132(3) 0.91942(13) 0.9270(4)
H4_8 H 0.1386 0.9289 0.8831
C15_8 C 0.0257(3) 0.88342(14) 0.9731(4)
O5_8 O 0.9745(3) 0.83391(12) 0.9895(3)
C16_8 C 0.9692(3) 0.85944(15) 0.9562(4)
C61_5 C 0.0445(3) 0.02975(17) 0.0282(5)
H35_5 H 0.0207 0.0274 0.0802
C62_5 C 0.0974(3) 0.05216(14) 0.0202(4)
H36_5 H 0.1069 0.0649 0.0671
C58_5 C 0.1222(4) 0.03620(15) 0.8829(4)
H33_5 H 0.1495 0.0374 0.8333
C59_5 C 0.0694(3) 0.01382(17) 0.8867(5)
H34_5 H 0.0621 0.0005 0.8403
C60_5 C 0.0286(3) 0.01175(14) 0.9601(4)
N8_8 N 0.3844(2) 0.19439(11) 0.1972(3)
C30_5 C 0.9555(3) 0.97025(17) 0.0282(5)
H17_5 H 0.9793 0.9726 0.0802
C31_5 C 0.9026(3) 0.94784(14) 0.0202(4)
H18_5 H 0.8931 0.9351 0.0671
N3_4 N 0.8656(2) 0.94439(11) 0.9472(3)
C27_5 C 0.8778(4) 0.96380(15) 0.8829(4)
H15_5 H 0.8505 0.9626 0.8333
C28_5 C 0.9306(3) 0.98618(17) 0.8867(5)
H16_5 H 0.9379 0.9995 0.8403
C29_5 C 0.9714(3) 0.98825(14) 0.9601(4)
C27_6 C 0.1278(4) 0.28620(15) 0.1329(4)
H15_6 H 0.1005 0.2874 0.0833
C28_6 C 0.1806(3) 0.26382(17) 0.1367(5)
H16_6 H 0.1879 0.2505 0.0903
C29_6 C 0.2214(3) 0.26175(14) 0.2101(4)
C30_6 C 0.2055(3) 0.27975(17) 0.2782(5)
H17_6 H 0.2293 0.2774 0.3302
C31_6 C 0.1526(3) 0.30216(14) 0.2702(4)
H18_6 H 0.1431 0.3149 0.3171
C58_6 C 0.3722(4) 0.21380(15) 0.1329(4)
H33_6 H 0.3995 0.2126 0.0833
C59_6 C 0.3194(3) 0.23618(17) 0.1367(5)
H34_6 H 0.3121 0.2495 0.0903
C60_6 C 0.2786(3) 0.23825(14) 0.2101(4)
C61_6 C 0.2945(3) 0.22025(17) 0.2782(5)
H35_6 H 0.2707 0.2226 0.3302
C62_6 C 0.3474(3) 0.19784(14) 0.2702(4)
H36_6 H 0.3569 0.1851 0.3171
N8_9 N 0.8656(2) 0.44439(11) 0.4472(3)
C58_7 C 0.1222(4) 0.53620(15) 0.3829(4)
H33_7 H 0.1495 0.5374 0.3333
C59_7 C 0.0694(3) 0.51382(17) 0.3867(5)
H34_7 H 0.0621 0.5005 0.3403
C60_7 C 0.0286(3) 0.51175(14) 0.4601(4)
C61_7 C 0.0445(3) 0.52975(17) 0.5282(5)
H35_7 H 0.0207 0.5274 0.5802
C62_7 C 0.0974(3) 0.55216(14) 0.5202(4)
H36_7 H 0.1069 0.5649 0.5671
C27_7 C 0.8778(4) 0.46380(15) 0.3829(4)
H15_7 H 0.8505 0.4626 0.3333
C28_7 C 0.9306(3) 0.48618(17) 0.3867(5)
H16_7 H 0.9379 0.4995 0.3403
C29_7 C 0.9714(3) 0.48825(14) 0.4601(4)
C30_7 C 0.9555(3) 0.47025(17) 0.5282(5)
H17_7 H 0.9793 0.4726 0.5802
C31_7 C 0.9026(3) 0.44784(14) 0.5202(4)
H18_7 H 0.8931 0.4351 0.5671
N8_10 N 0.3844(2) 0.69439(11) 0.6972(3)
C27_8 C 0.1278(4) 0.78620(15) 0.6329(4)
H15_8 H 0.1005 0.7874 0.5833
C28_8 C 0.1806(3) 0.76382(17) 0.6367(5)
H16_8 H 0.1879 0.7505 0.5903
C29_8 C 0.2214(3) 0.76175(14) 0.7101(4)
C30_8 C 0.2055(3) 0.77975(17) 0.7782(5)
H17_8 H 0.2293 0.7774 0.8302
C31_8 C 0.1526(3) 0.80216(14) 0.7702(4)
H18_8 H 0.1431 0.8149 0.8171
C58_8 C 0.3722(4) 0.71380(15) 0.6329(4)
H33_8 H 0.3995 0.7126 0.5833
C59_8 C 0.3194(3) 0.73618(17) 0.6367(5)
H34_8 H 0.3121 0.7495 0.5903
C60_8 C 0.2786(3) 0.73825(14) 0.7101(4)
C61_8 C 0.2945(3) 0.72025(17) 0.7782(5)
H35_8 H 0.2707 0.7226 0.8302
C62_8 C 0.3474(3) 0.69784(14) 0.7702(4)
H36_8 H 0.3569 0.6851 0.8171
loop_
_geom_bond_atom_site_label_1
_geom_bond_atom_site_label_2
_geom_bond_site_symmetry_1
_geom_bond_site_symmetry_2
O5 C16 1_555 1_555
O6 C16 1_555 1_555
O7 C9 1_555 1_555
O8 C9 1_555 1_555
O9 S1 1_555 1_555
O10 S1 1_555 1_555
C9 C10 1_555 1_555
C10 C11 1_555 1_555
C11 H4 1_555 1_555
C12 S1 1_555 1_555
C13 C12 1_555 1_555
H5 C13 1_555 1_555
C14 C13 1_555 1_555
H6 C14 1_555 1_555
C15 C10 1_555 1_555
C16 C15 1_555 1_555
H8 C18 1_555 1_555
C19 C18 1_555 1_555
C20 C19 1_555 1_555
H9 C20 1_555 1_555
H10 C21 1_555 1_555
Cu4 O6 1_555 1_555
Cu10 N7 1_555 1_555
N7 C58 1_555 1_555
C58 H33 1_555 1_555
C59 C58 1_555 1_555
H34 C59 1_555 1_555
C61 C60 1_555 1_555
H35 C61 1_555 1_555
C62 N7 1_555 1_555
H36 C62 1_555 1_555
C11 C12 1_555 1_555
C14 C15 1_555 1_555
C20 C21 1_555 1_555
C59 C60 1_555 1_555
C61 C62 1_555 1_555
Cu2 N2 1_555 1_555
N2 C24 1_555 1_555
N3 Cu2 1_555 1_555
C23 C22 1_555 1_555
C24 C23 1_555 1_555
H12 C24 1_555 1_555
C25 N2 1_555 1_555
H13 C25 1_555 1_555
C26 C22 1_555 1_555
H14 C26 1_555 1_555
C27 N3 1_555 1_555
H15 C27 1_555 1_555
C28 C27 1_555 1_555
H16 C28 1_555 1_555
C29 C28 1_555 1_555
C30 C29 1_555 1_555
H17 C30 1_555 1_555
C31 N3 1_555 1_555
H18 C31 1_555 1_555
O12 Cu2 1_555 1_555
O15 Cu2 1_555 1_555
O22 Cu2 1_555 1_555
C25 C26 1_555 1_555
C30 C31 1_555 1_555
Cu4 N4 1_555 1_555
Cu11 O11 1_555 1_555
N4 C48 1_555 1_555
O11 C32 1_555 1_555
O13 Cu4 1_555 1_555
O26 Cu4 1_555 1_555
C32 O13 1_555 1_555
C51 C50 1_555 1_555
H27 C51 1_555 1_555
C52 N4 1_555 1_555
H28 C52 1_555 1_555
C51 C52 1_555 1_555
Cu1 N1 1_555 1_555
N1 C17 1_555 1_555
O1 C1 1_555 1_555
O2 Cu1 1_555 1_555
O3 C8 1_555 1_555
O4 C8 1_555 1_555
C1 O2 1_555 1_555
C2 C1 1_555 1_555
C3 C2 1_555 1_555
C4 C3 1_555 1_555
C5 C4 1_555 1_555
H2 C5 1_555 1_555
C6 C5 1_555 1_555
H3 C6 1_555 1_555
C7 C2 1_555 1_555
C8 C7 1_555 1_555
C17 H7 1_555 1_555
Cu6 O24 1_555 1_555
Cu7 O1 1_555 1_555
Cu10 O3 1_555 1_555
Cu9 O14 1_555 1_555
N8 Cu7 1_555 1_555
O14 C39 1_555 1_555
O17 C39 1_555 1_555
O18 C47 1_555 1_555
O19 Cu1 1_555 1_555
O21 Cu10 1_555 1_555
O23 Cu7 1_555 1_555
O24 C40 1_555 1_555
O25 Cu1 1_555 1_555
O27 S2 1_555 1_555
O28 S2 1_555 1_555
S2 C35 1_555 1_555
C34 C33 1_555 1_555
H19 C34 1_555 1_555
C35 C34 1_555 1_555
C36 C35 1_555 1_555
H20 C36 1_555 1_555
C37 C36 1_555 1_555
H21 C37 1_555 1_555
C38 C33 1_555 1_555
C39 C38 1_555 1_555
C40 O21 1_555 1_555
C41 C40 1_555 1_555
C42 C41 1_555 1_555
H22 C42 1_555 1_555
C43 S2 1_555 1_555
C44 C43 1_555 1_555
H23 C44 1_555 1_555
C45 C44 1_555 1_555
H24 C45 1_555 1_555
C46 C41 1_555 1_555
C47 O19 1_555 1_555
H26 C49 1_555 1_555
C6 C7 1_555 1_555
C37 C38 1_555 1_555
C42 C43 1_555 1_555
C45 C46 1_555 1_555
C46 C47 1_555 1_555
H31 C56 1_555 1_555
C57 C53 1_555 1_555
H32 C57 1_555 1_555
C56 C57 1_555 1_555
Cu13 N5 1_555 1_555
N5 C55 1_555 1_555
C55 C54 1_555 1_555
H30 C55 1_555 1_555
H31_2 C56_2 1_555 1_555
C57_2 C53_2 1_555 1_555
H32_2 C57_2 1_555 1_555
C56_2 C57_2 1_555 1_555
Cu9 N5_2 1_555 1_555
N5_2 C55_2 1_555 1_555
C55_2 C54_2 1_555 1_555
H30_2 C55_2 1_555 1_555
Cu3 N4_2 1_555 1_555
Cu11_2 O11_2 1_555 1_555
N4_2 C48_2 1_555 1_555
O11_2 C32_2 1_555 1_555
O13_2 Cu3 1_555 1_555
O20 Cu3 1_555 1_555
O26_2 Cu3 1_555 1_555
C32_2 O13_2 1_555 1_555
C51_2 C50_2 1_555 1_555
H27_2 C51_2 1_555 1_555
C52_2 N4_2 1_555 1_555
H28_2 C52_2 1_555 1_555
C51_2 C52_2 1_555 1_555
Cu1_2 N1_2 1_555 1_555
N1_2 C17_2 1_555 1_555
O1_2 C1_2 1_555 1_555
O2_2 Cu1_2 1_555 1_555
O15 C8_2 1_555 1_555
O4_2 C8_2 1_555 1_555
C1_2 O2_2 1_555 1_555
C2_2 C1_2 1_555 1_555
C3_2 C2_2 1_555 1_555
C4_2 C3_2 1_555 1_555
C5_2 C4_2 1_555 1_555
H2_2 C5_2 1_555 1_555
C6_2 C5_2 1_555 1_555
H3_2 C6_2 1_555 1_555
C7_2 C2_2 1_555 1_555
C8_2 C7_2 1_555 1_555
C17_2 H7_2 1_555 1_555
Cu6_2 O24_2 1_555 1_555
Cu7_2 O1_2 1_555 1_555
Cu13 O14_2 1_555 1_555
N8_2 Cu7_2 1_555 1_555
O14_2 C39_2 1_555 1_555
O17_2 C39_2 1_555 1_555
O18_2 C47_2 1_555 1_555
O19_2 Cu1_2 1_555 1_555
O23_2 Cu7_2 1_555 1_555
O24_2 C40_2 1_555 1_555
O25_2 Cu1_2 1_555 1_555
O27_2 S2_2 1_555 1_555
O28_2 S2_2 1_555 1_555
S2_2 C35_2 1_555 1_555
C34_2 C33_2 1_555 1_555
H19_2 C34_2 1_555 1_555
C35_2 C34_2 1_555 1_555
C36_2 C35_2 1_555 1_555
H20_2 C36_2 1_555 1_555
C37_2 C36_2 1_555 1_555
H21_2 C37_2 1_555 1_555
C38_2 C33_2 1_555 1_555
C39_2 C38_2 1_555 1_555
C40_2 O22 1_555 1_555
C41_2 C40_2 1_555 1_555
C42_2 C41_2 1_555 1_555
H22_2 C42_2 1_555 1_555
C43_2 S2_2 1_555 1_555
C44_2 C43_2 1_555 1_555
H23_2 C44_2 1_555 1_555
C45_2 C44_2 1_555 1_555
H24_2 C45_2 1_555 1_555
C46_2 C41_2 1_555 1_555
C47_2 O19_2 1_555 1_555
H26_2 C49_2 1_555 1_555
C6_2 C7_2 1_555 1_555
C37_2 C38_2 1_555 1_555
C42_2 C43_2 1_555 1_555
C45_2 C46_2 1_555 1_555
C46_2 C47_2 1_555 1_555
Cu10 N2_2 1_555 1_555
N2_2 C24_2 1_555 1_555
C23_2 C22_2 1_555 1_555
C24_2 C23_2 1_555 1_555
H12_2 C24_2 1_555 1_555
C25_2 N2_2 1_555 1_555
H13_2 C25_2 1_555 1_555
C26_2 C22_2 1_555 1_555
H14_2 C26_2 1_555 1_555
O12_2 Cu10 1_555 1_555
C25_2 C26_2 1_555 1_555
O5_2 C16_2 1_555 1_555
O20 C16_2 1_555 1_555
O7_2 C9_2 1_555 1_555
O8_2 C9_2 1_555 1_555
O9_2 S1_2 1_555 1_555
O10_2 S1_2 1_555 1_555
C9_2 C10_2 1_555 1_555
C10_2 C11_2 1_555 1_555
C11_2 H4_2 1_555 1_555
C12_2 S1_2 1_555 1_555
C13_2 C12_2 1_555 1_555
H5_2 C13_2 1_555 1_555
C14_2 C13_2 1_555 1_555
H6_2 C14_2 1_555 1_555
C15_2 C10_2 1_555 1_555
C16_2 C15_2 1_555 1_555
H8_2 C18_2 1_555 1_555
C19_2 C18_2 1_555 1_555
C20_2 C19_2 1_555 1_555
H9_2 C20_2 1_555 1_555
H10_2 C21_2 1_555 1_555
C11_2 C12_2 1_555 1_555
C14_2 C15_2 1_555 1_555
C20_2 C21_2 1_555 1_555
Cu5 N1_3 1_555 1_555
Cu2_2 N2_3 1_555 1_555
N1_3 C17_3 1_555 1_555
N2_3 C24_3 1_555 1_555
N3_2 Cu2_2 1_555 1_555
O1_3 C1_3 1_555 1_555
O2_3 Cu5 1_555 1_555
O16 C8_3 1_555 1_555
O4_3 C8_3 1_555 1_555
O5_3 C16_3 1_555 1_555
O6_2 C16_3 1_555 1_555
O7_3 C9_3 1_555 1_555
O26 C9_3 1_555 1_555
O9_3 S1_3 1_555 1_555
O10_3 S1_3 1_555 1_555
S1_3 C4_3 1_555 1_555
C1_3 O2_3 1_555 1_555
C2_3 C1_3 1_555 1_555
C3_3 C2_3 1_555 1_555
H1_3 C3_3 1_555 1_555
C4_3 C3_3 1_555 1_555
C5_3 C4_3 1_555 1_555
H2_3 C5_3 1_555 1_555
C6_3 C5_3 1_555 1_555
H3_3 C6_3 1_555 1_555
C7_3 C2_3 1_555 1_555
C8_3 C7_3 1_555 1_555
C9_3 C10_3 1_555 1_555
C10_3 C11_3 1_555 1_555
C11_3 H4_3 1_555 1_555
C12_3 S1_3 1_555 1_555
C13_3 C12_3 1_555 1_555
H5_3 C13_3 1_555 1_555
C14_3 C13_3 1_555 1_555
H6_3 C14_3 1_555 1_555
C15_3 C10_3 1_555 1_555
C16_3 C15_3 1_555 1_555
C17_3 H7_3 1_555 1_555
C18_3 C17_3 1_555 1_555
H8_3 C18_3 1_555 1_555
C19_3 C18_3 1_555 1_555
C20_3 C19_3 1_555 1_555
H9_3 C20_3 1_555 1_555
C21_3 N1_3 1_555 1_555
H10_3 C21_3 1_555 1_555
C22_3 C19_3 1_555 1_555
C23_3 C22_3 1_555 1_555
H11_3 C23_3 1_555 1_555
C24_3 C23_3 1_555 1_555
H12_3 C24_3 1_555 1_555
C25_3 N2_3 1_555 1_555
H13_3 C25_3 1_555 1_555
C26_3 C22_3 1_555 1_555
H14_3 C26_3 1_555 1_555
C27_2 N3_2 1_555 1_555
H15_2 C27_2 1_555 1_555
C28_2 C27_2 1_555 1_555
H16_2 C28_2 1_555 1_555
C29_2 C28_2 1_555 1_555
C30_2 C29_2 1_555 1_555
H17_2 C30_2 1_555 1_555
C31_2 N3_2 1_555 1_555
H18_2 C31_2 1_555 1_555
Cu6 O6_2 1_555 1_555
Cu9 O1_3 1_555 1_555
Cu11 O7_3 1_555 1_555
N8 C58_2 1_555 1_555
N8_3 Cu9 1_555 1_555
O12_3 Cu2_2 1_555 1_555
O15_2 Cu2_2 1_555 1_555
O18_3 C47_3 1_555 1_555
O19_3 Cu5 1_555 1_555
O22_2 Cu2_2 1_555 1_555
C47_3 O19_3 1_555 1_555
C58_2 H33_2 1_555 1_555
C59_2 C58_2 1_555 1_555
H34_2 C59_2 1_555 1_555
C60_2 C29_2 1_555 1_555
C61_2 C60_2 1_555 1_555
H35_2 C61_2 1_555 1_555
C62_2 N8 1_555 1_555
H36_2 C62_2 1_555 1_555
C6_3 C7_3 1_555 1_555
C11_3 C12_3 1_555 1_555
C14_3 C15_3 1_555 1_555
C20_3 C21_3 1_555 1_555
C25_3 C26_3 1_555 1_555
C30_2 C31_2 1_555 1_555
C59_2 C60_2 1_555 1_555
C61_2 C62_2 1_555 1_555
Cu6 N4_3 1_555 1_555
Cu11 O14_3 1_555 1_555
N4_3 C48_3 1_555 1_555
N5_3 C55_3 1_555 1_555
O12_2 C32_3 1_555 1_555
O13_3 Cu6 1_555 1_555
O14_3 C39_3 1_555 1_555
O17_3 C39_3 1_555 1_555
O28_3 S2_3 1_555 1_555
S2_3 C35_3 1_555 1_555
C32_3 O13_3 1_555 1_555
C33_3 C32_3 1_555 1_555
C34_3 C33_3 1_555 1_555
H19_3 C34_3 1_555 1_555
C35_3 C34_3 1_555 1_555
C38_3 C33_3 1_555 1_555
C39_3 C38_3 1_555 1_555
C43_3 S2_3 1_555 1_555
C44_3 C43_3 1_555 1_555
H23_3 C44_3 1_555 1_555
C45_3 C44_3 1_555 1_555
H24_3 C45_3 1_555 1_555
C48_3 H25_3 1_555 1_555
C49_3 C48_3 1_555 1_555
H26_3 C49_3 1_555 1_555
C50_3 C49_3 1_555 1_555
C51_3 C50_3 1_555 1_555
H27_3 C51_3 1_555 1_555
C52_3 N4_3 1_555 1_555
H28_3 C52_3 1_555 1_555
C53_3 C50_3 1_555 1_555
C54_3 C53_3 1_555 1_555
H29_3 C54_3 1_555 1_555
C55_3 C54_3 1_555 1_555
H30_3 C55_3 1_555 1_555
C56_3 N5_3 1_555 1_555
H31_3 C56_3 1_555 1_555
C57_3 C53_3 1_555 1_555
H32_3 C57_3 1_555 1_555
C37_3 C38_3 1_555 1_555
C51_3 C52_3 1_555 1_555
C56_3 C57_3 1_555 1_555
O25 C40_3 1_555 1_555
H20_3 C36_3 1_555 1_555
C40_3 O23 1_555 1_555
C41_3 C40_3 1_555 1_555
C42_3 C41_3 1_555 1_555
H22_3 C42_3 1_555 1_555
C46_3 C41_3 1_555 1_555
Cu3_2 N4_4 1_555 1_555
Cu11_3 O11_3 1_555 1_555
Cu11 N5_4 1_555 1_555
N4_4 C48_4 1_555 1_555
N5_4 C55_4 1_555 1_555
O11_3 C32_4 1_555 1_555
O13_4 Cu3_2 1_555 1_555
O14_4 C39_4 1_555 1_555
O17_4 C39_4 1_555 1_555
O20_2 Cu3_2 1_555 1_555
O26_3 Cu3_2 1_555 1_555
O28_4 S2_4 1_555 1_555
S2_4 C35_4 1_555 1_555
C32_4 O13_4 1_555 1_555
C33_4 C32_4 1_555 1_555
C34_4 C33_4 1_555 1_555
H19_4 C34_4 1_555 1_555
C35_4 C34_4 1_555 1_555
C38_4 C33_4 1_555 1_555
C39_4 C38_4 1_555 1_555
C43_4 S2_4 1_555 1_555
C44_4 C43_4 1_555 1_555
H23_4 C44_4 1_555 1_555
C45_4 C44_4 1_555 1_555
H24_4 C45_4 1_555 1_555
C48_4 H25_4 1_555 1_555
C49_4 C48_4 1_555 1_555
H26_4 C49_4 1_555 1_555
C50_4 C49_4 1_555 1_555
C51_4 C50_4 1_555 1_555
H27_4 C51_4 1_555 1_555
C52_4 N4_4 1_555 1_555
H28_4 C52_4 1_555 1_555
C53_4 C50_4 1_555 1_555
C54_4 C53_4 1_555 1_555
H29_4 C54_4 1_555 1_555
C55_4 C54_4 1_555 1_555
H30_4 C55_4 1_555 1_555
C56_4 N5_4 1_555 1_555
H31_4 C56_4 1_555 1_555
C57_4 C53_4 1_555 1_555
H32_4 C57_4 1_555 1_555
C37_4 C38_4 1_555 1_555
C51_4 C52_4 1_555 1_555
C56_4 C57_4 1_555 1_555
Cu1_3 N1_4 1_555 1_555
N1_4 C17_4 1_555 1_555
N6 C24_4 1_555 1_555
O1_4 C1_4 1_555 1_555
O2_4 Cu1_3 1_555 1_555
O15_2 C8_4 1_555 1_555
O4_4 C8_4 1_555 1_555
O7_4 C9_4 1_555 1_555
O8_3 C9_4 1_555 1_555
O9_4 S1_4 1_555 1_555
O10_4 S1_4 1_555 1_555
S1_4 C4_4 1_555 1_555
C1_4 O2_4 1_555 1_555
C2_4 C1_4 1_555 1_555
C3_4 C2_4 1_555 1_555
H1_4 C3_4 1_555 1_555
C4_4 C3_4 1_555 1_555
C5_4 C4_4 1_555 1_555
H2_4 C5_4 1_555 1_555
C6_4 C5_4 1_555 1_555
H3_4 C6_4 1_555 1_555
C7_4 C2_4 1_555 1_555
C8_4 C7_4 1_555 1_555
C9_4 C10_4 1_555 1_555
C10_4 C11_4 1_555 1_555
C11_4 H4_4 1_555 1_555
C12_4 S1_4 1_555 1_555
C13_4 C12_4 1_555 1_555
H5_4 C13_4 1_555 1_555
C14_4 C13_4 1_555 1_555
H6_4 C14_4 1_555 1_555
C15_4 C10_4 1_555 1_555
C17_4 H7_4 1_555 1_555
C18_4 C17_4 1_555 1_555
H8_4 C18_4 1_555 1_555
C19_4 C18_4 1_555 1_555
C20_4 C19_4 1_555 1_555
H9_4 C20_4 1_555 1_555
C21_4 N1_4 1_555 1_555
H10_4 C21_4 1_555 1_555
C22_4 C19_4 1_555 1_555
C23_4 C22_4 1_555 1_555
H11_4 C23_4 1_555 1_555
C24_4 C23_4 1_555 1_555
H12_4 C24_4 1_555 1_555
C25_4 N6 1_555 1_555
H13_4 C25_4 1_555 1_555
C26_4 C22_4 1_555 1_555
H14_4 C26_4 1_555 1_555
Cu5_3 O8_3 1_555 1_555
Cu6_3 O24_3 1_555 1_555
Cu7_3 O1_4 1_555 1_555
Cu13_2 O7_4 1_555 1_555
N6_3 Cu7_3 1_555 1_555
N8_4 Cu7_3 1_555 1_555
O16_3 Cu7_3 1_555 1_555
O18_4 C47_4 1_555 1_555
O19_4 Cu1_3 1_555 1_555
O24_3 C40_4 1_555 1_555
H20_4 C36_4 1_555 1_555
C40_4 O22_2 1_555 1_555
C41_4 C40_4 1_555 1_555
C42_4 C41_4 1_555 1_555
H22_4 C42_4 1_555 1_555
C46_4 C41_4 1_555 1_555
C47_4 O19_4 1_555 1_555
C6_4 C7_4 1_555 1_555
C11_4 C12_4 1_555 1_555
C14_4 C15_4 1_555 1_555
C20_4 C21_4 1_555 1_555
C25_4 C26_4 1_555 1_555
C46_4 C47_4 1_555 1_555
O5_4 C16_4 1_555 1_555
O20_2 C16_4 1_555 1_555
C20_5 C19_5 1_555 1_555
H9_5 C20_5 1_555 1_555
H10_5 C21_5 1_555 1_555
C22_5 C19_5 1_555 1_555
H13_5 C25_5 1_555 1_555
C26_5 C22_5 1_555 1_555
H14_5 C26_5 1_555 1_555
H17_3 C30_3 1_555 1_555
H18_3 C31_3 1_555 1_555
H35_3 C61_3 1_555 1_555
H36_3 C62_3 1_555 1_555
C20_5 C21_5 1_555 1_555
C25_5 C26_5 1_555 1_555
C30_3 C31_3 1_555 1_555
C61_3 C62_3 1_555 1_555
N6_3 C24_5 1_555 1_555
O5_5 C16_5 1_555 1_555
O6_3 C16_5 1_555 1_555
O7_5 C9_5 1_555 1_555
O8_4 C9_5 1_555 1_555
O9_5 S1_5 1_555 1_555
O10_5 S1_5 1_555 1_555
C9_5 C10_5 1_555 1_555
C10_5 C11_5 1_555 1_555
C11_5 H4_5 1_555 1_555
C12_5 S1_5 1_555 1_555
C13_5 C12_5 1_555 1_555
H5_5 C13_5 1_555 1_555
C14_5 C13_5 1_555 1_555
H6_5 C14_5 1_555 1_555
C15_5 C10_5 1_555 1_555
C16_5 C15_5 1_555 1_555
H8_5 C18_5 1_555 1_555
H11_5 C23_5 1_555 1_555
C24_5 C23_5 1_555 1_555
H12_5 C24_5 1_555 1_555
C27_3 N8_4 1_555 1_555
H15_3 C27_3 1_555 1_555
C28_3 C27_3 1_555 1_555
H16_3 C28_3 1_555 1_555
C29_3 C28_3 1_555 1_555
Cu4_2 O6_3 1_555 1_555
Cu5_4 O8_4 1_555 1_555
Cu9_2 O7_5 1_555 1_555
Cu10_2 N7_2 1_555 1_555
N7_2 C58_3 1_555 1_555
C58_3 H33_3 1_555 1_555
C59_3 C58_3 1_555 1_555
H34_3 C59_3 1_555 1_555
C60_3 C29_3 1_555 1_555
C11_5 C12_5 1_555 1_555
C14_5 C15_5 1_555 1_555
C59_3 C60_3 1_555 1_555
Cu1_4 N1_5 1_555 1_555
N1_5 C17_5 1_555 1_555
O1_5 C1_5 1_555 1_555
O2_5 Cu1_4 1_555 1_555
C1_5 O2_5 1_555 1_555
Cu4_2 N4_5 1_555 1_555
Cu7_4 O1_5 1_555 1_555
Cu11_4 O11_4 1_555 1_555
Cu9_2 O14_5 1_555 1_555
Cu11_3 N5_5 1_555 1_555
N4_5 C48_5 1_555 1_555
N5_5 C55_5 1_555 1_555
N8_5 Cu7_4 1_555 1_555
O11_4 C32_5 1_555 1_555
O13_5 Cu4_2 1_555 1_555
O14_5 C39_5 1_555 1_555
O17_5 C39_5 1_555 1_555
O18_5 C47_5 1_555 1_555
O19_5 Cu1_4 1_555 1_555
O23_4 Cu7_4 1_555 1_555
O24_4 C40_5 1_555 1_555
O25_4 Cu1_4 1_555 1_555
O26_4 Cu4_2 1_555 1_555
O27_5 S2_5 1_555 1_555
O28_5 S2_5 1_555 1_555
S2_5 C35_5 1_555 1_555
C32_5 O13_5 1_555 1_555
C33_5 C32_5 1_555 1_555
C34_5 C33_5 1_555 1_555
H19_5 C34_5 1_555 1_555
C35_5 C34_5 1_555 1_555
C36_5 C35_5 1_555 1_555
H20_5 C36_5 1_555 1_555
C37_5 C36_5 1_555 1_555
H21_5 C37_5 1_555 1_555
C38_5 C33_5 1_555 1_555
C39_5 C38_5 1_555 1_555
C40_5 O21_2 1_555 1_555
C41_5 C40_5 1_555 1_555
C42_5 C41_5 1_555 1_555
H22_5 C42_5 1_555 1_555
C43_5 S2_5 1_555 1_555
C44_5 C43_5 1_555 1_555
H23_5 C44_5 1_555 1_555
C45_5 C44_5 1_555 1_555
H24_5 C45_5 1_555 1_555
C46_5 C41_5 1_555 1_555
C47_5 O19_5 1_555 1_555
C48_5 H25_5 1_555 1_555
C49_5 C48_5 1_555 1_555
H26_5 C49_5 1_555 1_555
C50_5 C49_5 1_555 1_555
C51_5 C50_5 1_555 1_555
H27_5 C51_5 1_555 1_555
C52_5 N4_5 1_555 1_555
H28_5 C52_5 1_555 1_555
C53_5 C50_5 1_555 1_555
C54_5 C53_5 1_555 1_555
H29_5 C54_5 1_555 1_555
C55_5 C54_5 1_555 1_555
H30_5 C55_5 1_555 1_555
C56_5 N5_5 1_555 1_555
H31_5 C56_5 1_555 1_555
C57_5 C53_5 1_555 1_555
H32_5 C57_5 1_555 1_555
C37_5 C38_5 1_555 1_555
C42_5 C43_5 1_555 1_555
C45_5 C46_5 1_555 1_555
C46_5 C47_5 1_555 1_555
C51_5 C52_5 1_555 1_555
C56_5 C57_5 1_555 1_555
O3_2 C8_5 1_555 1_555
O4_5 C8_5 1_555 1_555
C3_5 C2_5 1_555 1_555
C4_5 C3_5 1_555 1_555
C5_5 C4_5 1_555 1_555
H2_5 C5_5 1_555 1_555
C6_5 C5_5 1_555 1_555
H3_5 C6_5 1_555 1_555
C7_5 C2_5 1_555 1_555
C8_5 C7_5 1_555 1_555
Cu10_2 O3_2 1_555 1_555
C6_5 C7_5 1_555 1_555
Cu5_3 N1_6 1_555 1_555
N1_6 C17_6 1_555 1_555
O1_6 C1_6 1_555 1_555
O2_6 Cu5_3 1_555 1_555
C1_6 O2_6 1_555 1_555
Cu6_3 N4_6 1_555 1_555
Cu13_2 O1_6 1_555 1_555
Cu11_3 O14_6 1_555 1_555
Cu9_2 N5_6 1_555 1_555
N4_6 C48_6 1_555 1_555
N5_6 C55_6 1_555 1_555
N8_6 Cu13_2 1_555 1_555
O12_3 C32_6 1_555 1_555
O13_6 Cu6_3 1_555 1_555
O14_6 C39_6 1_555 1_555
O17_6 C39_6 1_555 1_555
O18_6 C47_6 1_555 1_555
O19_6 Cu5_3 1_555 1_555
O20_3 Cu6_3 1_555 1_555
O25_3 C40_6 1_555 1_555
O27_6 S2_6 1_555 1_555
O28_6 S2_6 1_555 1_555
S2_6 C35_6 1_555 1_555
C32_6 O13_6 1_555 1_555
C33_6 C32_6 1_555 1_555
C34_6 C33_6 1_555 1_555
H19_6 C34_6 1_555 1_555
C35_6 C34_6 1_555 1_555
C36_6 C35_6 1_555 1_555
H20_6 C36_6 1_555 1_555
C37_6 C36_6 1_555 1_555
H21_6 C37_6 1_555 1_555
C38_6 C33_6 1_555 1_555
C39_6 C38_6 1_555 1_555
C40_6 O23_3 1_555 1_555
C41_6 C40_6 1_555 1_555
C42_6 C41_6 1_555 1_555
H22_6 C42_6 1_555 1_555
C43_6 S2_6 1_555 1_555
C44_6 C43_6 1_555 1_555
H23_6 C44_6 1_555 1_555
C45_6 C44_6 1_555 1_555
H24_6 C45_6 1_555 1_555
C46_6 C41_6 1_555 1_555
C47_6 O19_6 1_555 1_555
C48_6 H25_6 1_555 1_555
C49_6 C48_6 1_555 1_555
H26_6 C49_6 1_555 1_555
C50_6 C49_6 1_555 1_555
C51_6 C50_6 1_555 1_555
H27_6 C51_6 1_555 1_555
C52_6 N4_6 1_555 1_555
H28_6 C52_6 1_555 1_555
C53_6 C50_6 1_555 1_555
C54_6 C53_6 1_555 1_555
H29_6 C54_6 1_555 1_555
C55_6 C54_6 1_555 1_555
H30_6 C55_6 1_555 1_555
C56_6 N5_6 1_555 1_555
H31_6 C56_6 1_555 1_555
C57_6 C53_6 1_555 1_555
H32_6 C57_6 1_555 1_555
C37_6 C38_6 1_555 1_555
C42_6 C43_6 1_555 1_555
C45_6 C46_6 1_555 1_555
C46_6 C47_6 1_555 1_555
C51_6 C52_6 1_555 1_555
C56_6 C57_6 1_555 1_555
O16_3 C8_6 1_555 1_555
O4_6 C8_6 1_555 1_555
C3_6 C2_6 1_555 1_555
C4_6 C3_6 1_555 1_555
C5_6 C4_6 1_555 1_555
H2_6 C5_6 1_555 1_555
C6_6 C5_6 1_555 1_555
H3_6 C6_6 1_555 1_555
C7_6 C2_6 1_555 1_555
C8_6 C7_6 1_555 1_555
C6_6 C7_6 1_555 1_555
C20_6 C19_6 1_555 1_555
H9_6 C20_6 1_555 1_555
H10_6 C21_6 1_555 1_555
C22_6 C19_6 1_555 1_555
H13_6 C25_6 1_555 1_555
C26_6 C22_6 1_555 1_555
H14_6 C26_6 1_555 1_555
C20_6 C21_6 1_555 1_555
C25_6 C26_6 1_555 1_555
Cu10_2 N2_4 1_555 1_555
N2_4 C24_6 1_555 1_555
O5_6 C16_6 1_555 1_555
O20_3 C16_6 1_555 1_555
O7_6 C9_6 1_555 1_555
O26_3 C9_6 1_555 1_555
O9_6 S1_6 1_555 1_555
O10_6 S1_6 1_555 1_555
C9_6 C10_6 1_555 1_555
C10_6 C11_6 1_555 1_555
C11_6 H4_6 1_555 1_555
C12_6 S1_6 1_555 1_555
C13_6 C12_6 1_555 1_555
H5_6 C13_6 1_555 1_555
C14_6 C13_6 1_555 1_555
H6_6 C14_6 1_555 1_555
C15_6 C10_6 1_555 1_555
C16_6 C15_6 1_555 1_555
H8_6 C18_6 1_555 1_555
H11_6 C23_6 1_555 1_555
C24_6 C23_6 1_555 1_555
H12_6 C24_6 1_555 1_555
Cu11_3 O7_6 1_555 1_555
O12_4 Cu10_2 1_555 1_555
C11_6 C12_6 1_555 1_555
C14_6 C15_6 1_555 1_555
Cu5_4 N1_7 1_555 1_555
Cu11_2 N2_5 1_555 1_555
N1_7 C17_7 1_555 1_555
N2_5 C24_7 1_555 1_555
N3_3 Cu11_2 1_555 1_555
O1_7 C1_7 1_555 1_555
O2_7 Cu5_4 1_555 1_555
O16_4 C8_7 1_555 1_555
O4_7 C8_7 1_555 1_555
O10_7 S1_7 1_555 1_555
S1_7 C4_7 1_555 1_555
C1_7 O2_7 1_555 1_555
C2_7 C1_7 1_555 1_555
C3_7 C2_7 1_555 1_555
H1_7 C3_7 1_555 1_555
C4_7 C3_7 1_555 1_555
C7_7 C2_7 1_555 1_555
C8_7 C7_7 1_555 1_555
C12_7 S1_7 1_555 1_555
C13_7 C12_7 1_555 1_555
H5_7 C13_7 1_555 1_555
C14_7 C13_7 1_555 1_555
H6_7 C14_7 1_555 1_555
C17_7 H7_7 1_555 1_555
C18_7 C17_7 1_555 1_555
H8_7 C18_7 1_555 1_555
C19_7 C18_7 1_555 1_555
C20_7 C19_7 1_555 1_555
H9_7 C20_7 1_555 1_555
C21_7 N1_7 1_555 1_555
H10_7 C21_7 1_555 1_555
C22_7 C19_7 1_555 1_555
C23_7 C22_7 1_555 1_555
H11_7 C23_7 1_555 1_555
C24_7 C23_7 1_555 1_555
H12_7 C24_7 1_555 1_555
C25_7 N2_5 1_555 1_555
H13_7 C25_7 1_555 1_555
C26_7 C22_7 1_555 1_555
H14_7 C26_7 1_555 1_555
C27_4 N3_3 1_555 1_555
H15_4 C27_4 1_555 1_555
C28_4 C27_4 1_555 1_555
H16_4 C28_4 1_555 1_555
C29_4 C28_4 1_555 1_555
C30_4 C29_4 1_555 1_555
H17_4 C30_4 1_555 1_555
C31_4 N3_3 1_555 1_555
H18_4 C31_4 1_555 1_555
Cu9_2 O1_7 1_555 1_555
N8_5 C58_4 1_555 1_555
N8_7 Cu9_2 1_555 1_555
O15_3 Cu11_2 1_555 1_555
O18_7 C47_7 1_555 1_555
O19_7 Cu5_4 1_555 1_555
O22_3 Cu11_2 1_555 1_555
C47_7 O19_7 1_555 1_555
C58_4 H33_4 1_555 1_555
C59_4 C58_4 1_555 1_555
H34_4 C59_4 1_555 1_555
C60_4 C29_4 1_555 1_555
C61_4 C60_4 1_555 1_555
H35_4 C61_4 1_555 1_555
C62_4 N8_5 1_555 1_555
H36_4 C62_4 1_555 1_555
C6_7 C7_7 1_555 1_555
C20_7 C21_7 1_555 1_555
C25_7 C26_7 1_555 1_555
C30_4 C31_4 1_555 1_555
C59_4 C60_4 1_555 1_555
C61_4 C62_4 1_555 1_555
O5_7 C16_7 1_555 1_555
O6_4 C16_7 1_555 1_555
O7_7 C9_7 1_555 1_555
O26_4 C9_7 1_555 1_555
H2_7 C5_7 1_555 1_555
C9_7 C10_7 1_555 1_555
C10_7 C11_7 1_555 1_555
C11_7 H4_7 1_555 1_555
C15_7 C10_7 1_555 1_555
C16_7 C15_7 1_555 1_555
Cu6_4 O6_4 1_555 1_555
Cu11_4 O7_7 1_555 1_555
Cu6_4 N4_7 1_555 1_555
Cu11_4 O14_7 1_555 1_555
N4_7 C48_7 1_555 1_555
N6_2 C55_7 1_555 1_555
O12_4 C32_7 1_555 1_555
O13_7 Cu6_4 1_555 1_555
O14_7 C39_7 1_555 1_555
O17_7 C39_7 1_555 1_555
O25_4 C40_7 1_555 1_555
O27_7 S2_7 1_555 1_555
O28_7 S2_7 1_555 1_555
S2_7 C35_7 1_555 1_555
C32_7 O13_7 1_555 1_555
C33_7 C32_7 1_555 1_555
C34_7 C33_7 1_555 1_555
H19_7 C34_7 1_555 1_555
C35_7 C34_7 1_555 1_555
C36_7 C35_7 1_555 1_555
H20_7 C36_7 1_555 1_555
C37_7 C36_7 1_555 1_555
H21_7 C37_7 1_555 1_555
C38_7 C33_7 1_555 1_555
C39_7 C38_7 1_555 1_555
C40_7 O23_4 1_555 1_555
C41_7 C40_7 1_555 1_555
C42_7 C41_7 1_555 1_555
H22_7 C42_7 1_555 1_555
C43_7 S2_7 1_555 1_555
C44_7 C43_7 1_555 1_555
H23_7 C44_7 1_555 1_555
C45_7 C44_7 1_555 1_555
H24_7 C45_7 1_555 1_555
C46_7 C41_7 1_555 1_555
C48_7 H25_7 1_555 1_555
C49_7 C48_7 1_555 1_555
H26_7 C49_7 1_555 1_555
C50_7 C49_7 1_555 1_555
C51_7 C50_7 1_555 1_555
H27_7 C51_7 1_555 1_555
C52_7 N4_7 1_555 1_555
H28_7 C52_7 1_555 1_555
C53_7 C50_7 1_555 1_555
C54_7 C53_7 1_555 1_555
H29_7 C54_7 1_555 1_555
C55_7 C54_7 1_555 1_555
H30_7 C55_7 1_555 1_555
C56_7 N6_2 1_555 1_555
H31_7 C56_7 1_555 1_555
C57_7 C53_7 1_555 1_555
H32_7 C57_7 1_555 1_555
C37_7 C38_7 1_555 1_555
C42_7 C43_7 1_555 1_555
C45_7 C46_7 1_555 1_555
C51_7 C52_7 1_555 1_555
C56_7 C57_7 1_555 1_555
Cu6_2 N1_8 1_555 1_555
N1_8 C17_8 1_555 1_555
N6_4 C24_8 1_555 1_555
O12 C1_8 1_555 1_555
O2_8 Cu6_2 1_555 1_555
O15_3 C8_8 1_555 1_555
O4_8 C8_8 1_555 1_555
O10_8 S1_8 1_555 1_555
S1_8 C4_8 1_555 1_555
C1_8 O2_8 1_555 1_555
C2_8 C1_8 1_555 1_555
C3_8 C2_8 1_555 1_555
H1_8 C3_8 1_555 1_555
C4_8 C3_8 1_555 1_555
C7_8 C2_8 1_555 1_555
C8_8 C7_8 1_555 1_555
C12_8 S1_8 1_555 1_555
C13_8 C12_8 1_555 1_555
H5_8 C13_8 1_555 1_555
C14_8 C13_8 1_555 1_555
H6_8 C14_8 1_555 1_555
C17_8 H7_8 1_555 1_555
C18_8 C17_8 1_555 1_555
H8_8 C18_8 1_555 1_555
C19_8 C18_8 1_555 1_555
C20_8 C19_8 1_555 1_555
H9_8 C20_8 1_555 1_555
C21_8 N1_8 1_555 1_555
H10_8 C21_8 1_555 1_555
C22_8 C19_8 1_555 1_555
C23_8 C22_8 1_555 1_555
H11_8 C23_8 1_555 1_555
C24_8 C23_8 1_555 1_555
H12_8 C24_8 1_555 1_555
C25_8 N6_4 1_555 1_555
H13_8 C25_8 1_555 1_555
C26_8 C22_8 1_555 1_555
H14_8 C26_8 1_555 1_555
Cu5_2 N4_8 1_555 1_555
Cu13 O11_5 1_555 1_555
Cu11_4 N5_7 1_555 1_555
N4_8 C48_8 1_555 1_555
N5_7 C55_8 1_555 1_555
O11_5 C32_8 1_555 1_555
O13_8 Cu5_2 1_555 1_555
O16_2 C39_8 1_555 1_555
O17_8 C39_8 1_555 1_555
O18_8 C47_8 1_555 1_555
O19_8 Cu6_2 1_555 1_555
O20_4 Cu5_2 1_555 1_555
O26_2 C40_8 1_555 1_555
O27_8 S2_8 1_555 1_555
O28_8 S2_8 1_555 1_555
S2_8 C35_8 1_555 1_555
C32_8 O13_8 1_555 1_555
C33_8 C32_8 1_555 1_555
C34_8 C33_8 1_555 1_555
H19_8 C34_8 1_555 1_555
C35_8 C34_8 1_555 1_555
C36_8 C35_8 1_555 1_555
H20_8 C36_8 1_555 1_555
C37_8 C36_8 1_555 1_555
H21_8 C37_8 1_555 1_555
C38_8 C33_8 1_555 1_555
C39_8 C38_8 1_555 1_555
C40_8 O22_3 1_555 1_555
C41_8 C40_8 1_555 1_555
C42_8 C41_8 1_555 1_555
H22_8 C42_8 1_555 1_555
C43_8 S2_8 1_555 1_555
C44_8 C43_8 1_555 1_555
H23_8 C44_8 1_555 1_555
C45_8 C44_8 1_555 1_555
H24_8 C45_8 1_555 1_555
C46_8 C41_8 1_555 1_555
C47_8 O19_8 1_555 1_555
C48_8 H25_8 1_555 1_555
C49_8 C48_8 1_555 1_555
H26_8 C49_8 1_555 1_555
C50_8 C49_8 1_555 1_555
C51_8 C50_8 1_555 1_555
H27_8 C51_8 1_555 1_555
C52_8 N4_8 1_555 1_555
H28_8 C52_8 1_555 1_555
C53_8 C50_8 1_555 1_555
C54_8 C53_8 1_555 1_555
H29_8 C54_8 1_555 1_555
C55_8 C54_8 1_555 1_555
H30_8 C55_8 1_555 1_555
C56_8 N5_7 1_555 1_555
H31_8 C56_8 1_555 1_555
C57_8 C53_8 1_555 1_555
H32_8 C57_8 1_555 1_555
C6_8 C7_8 1_555 1_555
C20_8 C21_8 1_555 1_555
C25_8 C26_8 1_555 1_555
C37_8 C38_8 1_555 1_555
C42_8 C43_8 1_555 1_555
C45_8 C46_8 1_555 1_555
C46_8 C47_8 1_555 1_555
C51_8 C52_8 1_555 1_555
C56_8 C57_8 1_555 1_555
O23_2 C9_8 1_555 1_555
O25_2 C9_8 1_555 1_555
H2_8 C5_8 1_555 1_555
C9_8 C10_8 1_555 1_555
C10_8 C11_8 1_555 1_555
C11_8 H4_8 1_555 1_555
C15_8 C10_8 1_555 1_555
O5_8 C16_8 1_555 1_555
O20_4 C16_8 1_555 1_555
H35_5 C61_5 1_555 1_555
H36_5 C62_5 1_555 1_555
C61_5 C62_5 1_555 1_555
N8_3 C58_5 1_555 1_555
C58_5 H33_5 1_555 1_555
C59_5 C58_5 1_555 1_555
H34_5 C59_5 1_555 1_555
C59_5 C60_5 1_555 1_555
N8_8 Cu11 1_555 1_555
H17_5 C30_5 1_555 1_555
H18_5 C31_5 1_555 1_555
C30_5 C31_5 1_555 1_555
N3_4 Cu13 1_555 1_555
C27_5 N3_4 1_555 1_555
H15_5 C27_5 1_555 1_555
C28_5 C27_5 1_555 1_555
H16_5 C28_5 1_555 1_555
C29_5 C28_5 1_555 1_555
C27_6 N8_6 1_555 1_555
H15_6 C27_6 1_555 1_555
C28_6 C27_6 1_555 1_555
H16_6 C28_6 1_555 1_555
C29_6 C28_6 1_555 1_555
C30_6 C29_6 1_555 1_555
H17_6 C30_6 1_555 1_555
C31_6 N8_6 1_555 1_555
H18_6 C31_6 1_555 1_555
N8_8 C58_6 1_555 1_555
C58_6 H33_6 1_555 1_555
C59_6 C58_6 1_555 1_555
H34_6 C59_6 1_555 1_555
C60_6 C29_6 1_555 1_555
C61_6 C60_6 1_555 1_555
H35_6 C61_6 1_555 1_555
C62_6 N8_8 1_555 1_555
H36_6 C62_6 1_555 1_555
C30_6 C31_6 1_555 1_555
C59_6 C60_6 1_555 1_555
C61_6 C62_6 1_555 1_555
N8_9 Cu11_3 1_555 1_555
N8_7 C58_7 1_555 1_555
C58_7 H33_7 1_555 1_555
C59_7 C58_7 1_555 1_555
H34_7 C59_7 1_555 1_555
C61_7 C60_7 1_555 1_555
H35_7 C61_7 1_555 1_555
C62_7 N8_7 1_555 1_555
H36_7 C62_7 1_555 1_555
C59_7 C60_7 1_555 1_555
C61_7 C62_7 1_555 1_555
C27_7 N8_9 1_555 1_555
H15_7 C27_7 1_555 1_555
C28_7 C27_7 1_555 1_555
H16_7 C28_7 1_555 1_555
C29_7 C28_7 1_555 1_555
C30_7 C29_7 1_555 1_555
H17_7 C30_7 1_555 1_555
C31_7 N8_9 1_555 1_555
H18_7 C31_7 1_555 1_555
N8_10 Cu11_4 1_555 1_555
C30_7 C31_7 1_555 1_555
C27_8 N8_2 1_555 1_555
H15_8 C27_8 1_555 1_555
C28_8 C27_8 1_555 1_555
H16_8 C28_8 1_555 1_555
C29_8 C28_8 1_555 1_555
C30_8 C29_8 1_555 1_555
H17_8 C30_8 1_555 1_555
C31_8 N8_2 1_555 1_555
H18_8 C31_8 1_555 1_555
N8_10 C58_8 1_555 1_555
C58_8 H33_8 1_555 1_555
C59_8 C58_8 1_555 1_555
H34_8 C59_8 1_555 1_555
C60_8 C29_8 1_555 1_555
C61_8 C60_8 1_555 1_555
H35_8 C61_8 1_555 1_555
C62_8 N8_10 1_555 1_555
H36_8 C62_8 1_555 1_555
C30_8 C31_8 1_555 1_555
C59_8 C60_8 1_555 1_555
C61_8 C62_8 1_555 1_555

#END
