
###############################################################################
#
# This file contains modified crystal structure data generated from the
# MOF subset of the Cambridge Structural Database (CSD) v543 
# hosted by the Cambridge Crystallographic Data Centre (CCDC).
#
# This work is licensed under the Creative Commons
# Attribution-NonCommercial-ShareAlike 4.0 International License.
# To view a copy of this license, visit
# http://creativecommons.org/licenses/by-nc-sa/4.0/
# or send a letter to
# Creative Commons, PO Box 1866, Mountain View, CA 94042, USA.
#
# CIF created using the CSD Python API on 29 September 2022
# The structure has been converted into the P1 space group
# The structure has a 3D framework
# The original CSD entry NUKROD is in the orthorhombic crystal system
# The original CSD entry NUKROD is in a Sohncke space group
# The framework has been calculated to contain at least 10.0% void space
# The void calculation uses a probe of radius 1.32A, grid spacing 0.4
#
###############################################################################

data_NUKROD
_chemical_formula_moiety         '(C232 H152 Co8 N48 O24)n'
_symmetry_cell_setting           triclinic
_symmetry_space_group_name_H-M   'P 1'
_symmetry_Int_Tables_number      1
_space_group_name_Hall           'P 1'
loop_
_symmetry_equiv_pos_site_id
_symmetry_equiv_pos_as_xyz
1 x,y,z
_cell_length_a                   31.0300(17)
_cell_length_b                   9.4558(5)
_cell_length_c                   22.7370(13)
_cell_angle_alpha                90
_cell_angle_beta                 90
_cell_angle_gamma                90
_cell_volume                     6671.34
loop_
_atom_site_label
_atom_site_type_symbol
_atom_site_fract_x
_atom_site_fract_y
_atom_site_fract_z
N6 N 0.4326(2) 0.1068(7) 0.1347(3)
N7 N 0.4561(2) 0.2055(7) 0.0517(3)
C1 C 0.5402(2) 0.0686(8) 0.4600(3)
C7 C 0.5936(3) 0.2168(8) 0.5145(3)
C8 C 0.5984(3) 0.4653(9) 0.5295(4)
H1 H 0.5851 0.5528 0.5391
C9 C 0.4654(3) 0.1158(9) 0.0964(4)
H2 H 0.4918 0.0656 0.1002
C15 C 0.5673(2) 0.0865(8) 0.5097(3)
C16 C 0.5743(3) 0.3452(9) 0.5274(4)
H7 H 0.5442 0.3495 0.5347
C20 C 0.3996(3) 0.1886(9) 0.1139(4)
H9 H 0.3719 0.1987 0.1310
N9 N 0.7140(3) 0.7446(9) 0.4848(5)
H13 H 0.6145 0.0734 0.6161
C28 C 0.5145(3) 0.1106(9) 0.3703(4)
H14 H 0.5089 0.1492 0.3325
N11 N 0.6664(2) 0.5893(8) 0.5162(4)
C30 C 0.4143(3) 0.2538(9) 0.0632(4)
H16 H 0.3986 0.3201 0.0402
C34 C 0.5426(3) 0.1619(9) 0.4107(3)
H18 H 0.5603 0.2434 0.4070
C39 C 0.6426(3) 0.4615(10) 0.5179(5)
C41 C 0.6979(3) 0.6166(11) 0.4737(6)
H22 H 0.7063 0.5553 0.4427
C43 C 0.6382(3) 0.2126(9) 0.5046(5)
H24 H 0.6517 0.1257 0.4947
C44 C 0.6636(3) 0.7035(10) 0.5536(6)
H25 H 0.6445 0.7149 0.5859
C45 C 0.4370(3) 0.0459(9) 0.1927(4)
C48 C 0.6624(3) 0.3345(10) 0.5094(5)
H28 H 0.6929 0.3299 0.5068
C49 C 0.6936(4) 0.7955(11) 0.5346(6)
H29 H 0.6999 0.8834 0.5529
C50 C 0.4243(3) 0.0585(12) 0.2963(4)
H30 H 0.4111 0.1011 0.3296
C54 C 0.4147(3) 0.1092(11) 0.2393(4)
H35 H 0.3942 0.1823 0.2329
Co4 Co 0.49880(3) 0.29139(10) 0.00012(4)
Co5 Co 0.76418(5) 0.81436(16) 0.44227(9)
Co1 Co 0.50120(3) 0.79139(10) 0.49988(4)
N1 N 0.5108(2) 0.9624(6) 0.4509(3)
N2 N 0.49150(19) 0.6179(6) 0.5473(3)
N3 N 0.5467(2) 0.8581(6) 0.5555(3)
N4 N 0.4554(2) 0.7258(7) 0.4445(3)
N5 N 0.5423(2) 0.3805(6) 0.9488(3)
N8 N 0.5665(2) 0.4719(7) 0.8661(3)
C2 C 0.4616(3) 0.5122(8) 0.5384(3)
C3 C 0.4337(2) 0.6009(8) 0.4461(3)
C4 C 0.5075(2) 0.5930(8) 0.6047(3)
C5 C 0.4084(3) 0.3709(8) 0.4856(3)
C6 C 0.4361(3) 0.4997(8) 0.4904(3)
C10 C 0.4949(3) 0.9874(8) 0.3952(3)
C11 C 0.4614(3) 0.4179(9) 0.5889(3)
H3 H 0.4450 0.3335 0.5927
C12 C 0.5320(3) 0.4653(8) 0.9049(3)
H4 H 0.5054 0.5138 0.9006
C13 C 0.4880(3) 0.4698(8) 0.6285(4)
H5 H 0.4933 0.4314 0.6664
C14 C 0.5860(3) 0.8892(9) 0.6423(3)
H6 H 0.5971 0.8728 0.6806
C17 C 0.4649(3) 0.9044(8) 0.3666(3)
C18 C 0.5559(2) 0.7984(8) 0.6099(3)
C19 C 0.4270(3) 0.2445(9) 0.4701(4)
H8 H 0.4568 0.2432 0.4607
C21 C 0.5836(3) 0.3320(9) 0.9378(4)
H10 H 0.5994 0.2688 0.9622
C22 C 0.5622(3) 0.5355(9) 0.8080(3)
C23 C 0.5980(3) 0.3896(10) 0.8865(4)
H11 H 0.6253 0.3742 0.8687
C24 C 0.5692(2) 0.9834(8) 0.5547(3)
C25 C 0.4038(3) 0.1171(9) 0.4674(4)
H12 H 0.4175 0.0313 0.4563
C26 C 0.4463(3) 0.7838(8) 0.3895(3)
C27 C 0.5949(3) 0.9988(9) 0.6077(3)
C29 C 0.3655(3) 0.3718(9) 0.4986(5)
H15 H 0.3520 0.4583 0.5090
C31 C 0.4088(3) 0.5797(8) 0.3934(4)
H17 H 0.3906 0.5018 0.3848
C32 C 0.4522(3) 0.9495(9) 0.3040(3)
C33 C 0.5381(3) 0.6777(9) 0.6332(3)
C35 C 0.5498(3) 0.6341(9) 0.6952(3)
C36 C 0.4167(3) 0.6932(9) 0.3586(4)
H19 H 0.4048 0.7099 0.3207
C37 C 0.3602(3) 0.1200(9) 0.4815(4)
C38 C 0.5800(3) 0.5287(13) 0.7049(4)
H20 H 0.5961 0.4916 0.6729
C40 C 0.3409(3) 0.2462(10) 0.4968(5)
H21 H 0.3110 0.2486 0.5061
C42 C 0.4643(4) 0.9410(10) 0.2011(4)
H23 H 0.4789 0.8999 0.1686
C46 C 0.5338(4) 0.6382(10) 0.7983(4)
H26 H 0.5184 0.6775 0.8305
C47 C 0.5263(4) 0.6893(11) 0.7416(4)
H27 H 0.5054 0.7609 0.7350
C51 C 0.4718(4) 0.8906(11) 0.2578(4)
H32 H 0.4910 0.8136 0.2636
C52 C 0.5870(3) 0.4755(12) 0.7629(4)
H33 H 0.6075 0.4031 0.7706
N13 N 0.4577(2) 0.8805(6) 0.5512(3)
N14 N 0.5439(2) 0.7055(7) 0.4483(3)
C1_2 C 0.9598(2) 0.9314(8) 0.9600(3)
N9_2 N 0.7860(3) 0.2554(9) 0.9848(5)
C28_2 C 0.9855(3) 0.8894(9) 0.8703(4)
H14_2 H 0.9911 0.8508 0.8325
C34_2 C 0.9574(3) 0.8381(9) 0.9107(3)
H18_2 H 0.9397 0.7566 0.9070
C41_2 C 0.8021(3) 0.3834(11) 0.9737(6)
H22_2 H 0.7937 0.4447 0.9427
H24_2 H 0.8483 0.8743 0.9947
Co5_2 Co 0.73582(5) 0.18564(16) 0.94227(9)
N1_2 N 0.4892(2) 0.4624(6) 0.0491(3)
N4_2 N 0.5446(2) 0.2258(7) 0.0555(3)
N6_2 N 0.5674(2) 0.6068(7) 0.3653(3)
C1_3 C 0.4598(2) 0.5686(8) 0.0400(3)
C3_2 C 0.5663(2) 0.1009(8) 0.0539(3)
C9_2 C 0.5346(3) 0.6158(9) 0.4036(4)
H2_2 H 0.5082 0.5656 0.3998
C10_2 C 0.5051(3) 0.4874(8) 0.1048(3)
C17_2 C 0.5351(3) 0.4044(8) 0.1334(3)
C20_2 C 0.6004(3) 0.6886(9) 0.3861(4)
H9_2 H 0.6281 0.6987 0.3690
C26_2 C 0.5537(3) 0.2838(8) 0.1105(3)
C28_3 C 0.4855(3) 0.6106(9) 0.1297(4)
H14_3 H 0.4911 0.6492 0.1675
C30_2 C 0.5857(3) 0.7538(9) 0.4368(4)
H16_2 H 0.6014 0.8201 0.4598
C31_2 C 0.5912(3) 0.0797(8) 0.1066(4)
H17_2 H 0.6094 0.0018 0.1152
C32_2 C 0.5478(3) 0.4495(9) 0.1960(3)
C34_3 C 0.4574(3) 0.6619(9) 0.0893(3)
H18_3 H 0.4397 0.7434 0.0930
C36_2 C 0.5833(3) 0.1932(9) 0.1414(4)
H19_2 H 0.5952 0.2099 0.1793
C42_2 C 0.5357(4) 0.4410(10) 0.2989(4)
H23_2 H 0.5211 0.3999 0.3314
H24_3 H 0.3483 0.6257 0.0053
C45_2 C 0.5630(3) 0.5459(9) 0.3073(4)
C50_2 C 0.5757(3) 0.5585(12) 0.2037(4)
H30_2 H 0.5889 0.6011 0.1704
C51_2 C 0.5282(4) 0.3906(11) 0.2422(4)
H32_2 H 0.5090 0.3136 0.2364
C54_2 C 0.5853(3) 0.6092(11) 0.2607(4)
H35_2 H 0.6058 0.6823 0.2671
N2_2 N 0.50850(19) 0.1179(6) 0.9527(3)
N3_2 N 0.4533(2) 0.3581(6) 0.9445(3)
C2_2 C 0.5384(3) 0.0122(8) 0.9616(3)
C4_2 C 0.4925(2) 0.0930(8) 0.8953(3)
C7_2 C 0.4064(3) 0.7168(8) 0.9855(3)
C8_2 C 0.4016(3) 0.9653(9) 0.9705(4)
H4_2 H 0.4946 0.0138 0.5994
C14_2 C 0.4140(3) 0.3892(9) 0.8577(3)
H6_2 H 0.4029 0.3728 0.8194
C15_2 C 0.4327(2) 0.5865(8) 0.9903(3)
C16_2 C 0.4257(3) 0.8452(9) 0.9726(4)
H7_2 H 0.4558 0.8495 0.9653
C18_2 C 0.4441(2) 0.2984(8) 0.8901(3)
C22_2 C 0.4378(3) 0.0355(9) 0.6920(3)
C24_2 C 0.4308(2) 0.4834(8) 0.9453(3)
C27_2 C 0.4051(3) 0.4988(9) 0.8923(3)
H13_2 H 0.3855 0.5734 0.8839
C33_2 C 0.4619(3) 0.1777(9) 0.8668(3)
C35_2 C 0.4502(3) 0.1341(9) 0.8048(3)
C38_2 C 0.4200(3) 0.0287(13) 0.7951(4)
C39_2 C 0.3574(3) 0.9615(10) 0.9821(5)
C43_2 C 0.3618(3) 0.7126(9) 0.9954(5)
C46_2 C 0.4662(4) 0.1382(10) 0.7017(4)
H26_2 H 0.4816 0.1775 0.6695
C47_2 C 0.4737(4) 0.1893(11) 0.7584(4)
H27_2 H 0.4946 0.2609 0.7650
C48_2 C 0.3376(3) 0.8345(10) 0.9906(5)
H28_2 H 0.3071 0.8299 0.9932
N8_2 N 0.4335(2) 0.9719(7) 0.6339(3)
C11_2 C 0.5386(3) 0.9179(9) 0.9111(3)
H3_2 H 0.5550 0.8335 0.9073
C12_2 C 0.4680(3) 0.9653(8) 0.5951(3)
C13_2 C 0.5120(3) 0.9698(8) 0.8715(4)
H5_2 H 0.5067 0.9314 0.8336
C21_2 C 0.4164(3) 0.8320(9) 0.5622(4)
H10_2 H 0.4006 0.7688 0.5378
C23_2 C 0.4020(3) 0.8896(10) 0.6135(4)
H11_2 H 0.3747 0.8742 0.6313
H15_2 H 0.6480 0.9583 0.9910
O1 O 0.7376(3) 0.3172(11) 0.8790(5)
O2 O 0.7671(3) 0.0344(11) 0.9097(6)
N12 N 0.7000(3) 0.3100(9) 0.9885(4)
H20_2 H 0.4039 0.9916 0.8271
O3 O 0.7307(3) 0.0213(10) 0.9900(6)
H21_2 H 0.6890 0.7486 0.9939
O4 O 0.6881(3) 0.1510(10) 0.8897(5)
O5 O 0.6843(3) 0.3020(16) 0.8075(5)
H31 H 0.6937 0.3988 0.7991
C52_2 C 0.4130(3) 0.9755(12) 0.7371(4)
H33_2 H 0.3925 0.9031 0.7294
C55 C 0.6892(3) 0.4426(10) 0.9766(5)
H36 H 0.6986 0.4945 0.9431
C58 C 0.7032(5) 0.2580(18) 0.8552(7)
C5_2 C 0.9084(3) 0.1291(8) 0.5144(3)
C6_2 C 0.9361(3) 0.0003(8) 0.5096(3)
C11_3 C 0.9614(3) 0.0821(9) 0.4111(3)
H3_3 H 0.9450 0.1665 0.4073
C13_3 C 0.9880(3) 0.0302(8) 0.3715(4)
H5_3 H 0.9933 0.0686 0.3336
C19_2 C 0.9270(3) 0.2555(9) 0.5299(4)
H8_2 H 0.9568 0.2568 0.5393
C25_2 C 0.9038(3) 0.3829(9) 0.5326(4)
H12_2 H 0.9175 0.4687 0.5437
N10 N 0.8375(2) 0.5061(8) 0.5198(4)
C29_2 C 0.8655(3) 0.1282(9) 0.5014(5)
H15_3 H 0.8520 0.0417 0.4910
O1_2 O 0.7624(3) 0.6828(11) 0.3790(5)
O2_2 O 0.7329(3) 0.9656(11) 0.4097(6)
N12_2 N 0.8000(3) 0.6900(9) 0.4885(4)
C37_2 C 0.8602(3) 0.3800(9) 0.5185(4)
O3_2 O 0.7693(3) 0.9787(10) 0.4900(6)
C40_2 C 0.8409(3) 0.2538(10) 0.5032(5)
H21_3 H 0.8110 0.2514 0.4939
O4_2 O 0.8119(3) 0.8490(10) 0.3897(5)
O5_2 O 0.8157(3) 0.6980(16) 0.3075(5)
H31_2 H 0.8063 0.6012 0.2991
C53 C 0.8165(3) 0.7260(11) 0.5409(5)
H34 H 0.8121 0.8140 0.5602
C55_2 C 0.8108(3) 0.5574(10) 0.4766(5)
H36_2 H 0.8014 0.5055 0.4431
C56 C 0.8411(3) 0.6141(10) 0.5629(5)
H37 H 0.8567 0.6110 0.5988
C58_2 C 0.7968(5) 0.7420(18) 0.3552(7)
Co2 Co 0.26418(5) 0.68564(16) 0.55773(9)
N10_2 N 0.3375(2) 0.9939(8) 0.4802(4)
O1_3 O 0.2624(3) 0.8172(11) 0.6210(5)
O2_3 O 0.2329(3) 0.5344(11) 0.5903(6)
N12_3 N 0.3000(3) 0.8100(9) 0.5115(4)
O3_3 O 0.2693(3) 0.5213(10) 0.5100(6)
O4_3 O 0.3119(3) 0.6510(10) 0.6103(5)
O5_3 O 0.3157(3) 0.8020(16) 0.6925(5)
H31_3 H 0.3063 0.8988 0.7009
C53_2 C 0.3165(3) 0.7740(11) 0.4591(5)
H34_2 H 0.3121 0.6860 0.4398
C55_3 C 0.3108(3) 0.9426(10) 0.5234(5)
H36_3 H 0.3014 0.9945 0.5569
C56_2 C 0.3411(3) 0.8859(10) 0.4371(5)
H37_2 H 0.3567 0.8890 0.4012
C57 C 0.2463(4) 0.4528(13) 0.5469(9)
O6 O 0.2412(4) 0.3213(12) 0.5518(8)
H38 H 0.2244 0.3030 0.5875
C58_3 C 0.2968(5) 0.7580(18) 0.6448(7)
N15 N 0.2140(3) 0.7554(9) 0.5152(5)
H1_2 H 0.0851 0.9472 0.4609
N11_2 N 0.1664(2) 0.9107(8) 0.4838(4)
C41_3 C 0.1979(3) 0.8834(11) 0.5263(6)
H22_3 H 0.2063 0.9447 0.5573
C44_2 C 0.1636(3) 0.7965(10) 0.4464(6)
H25_2 H 0.1445 0.7851 0.4141
C49_2 C 0.1936(4) 0.7045(11) 0.4654(6)
H29_2 H 0.1999 0.6166 0.4471
Co2_2 Co 0.23582(5) 0.31436(16) 0.05773(9)
O1_4 O 0.2376(3) 0.1828(11) 0.1210(5)
O2_4 O 0.2671(3) 0.4656(11) 0.0903(6)
N12_4 N 0.2000(3) 0.1900(9) 0.0115(4)
O3_4 O 0.2307(3) 0.4787(10) 0.0100(6)
O4_4 O 0.1881(3) 0.3490(10) 0.1103(5)
O5_4 O 0.1843(3) 0.1980(16) 0.1925(5)
H31_4 H 0.1937 0.1012 0.2009
C55_4 C 0.1892(3) 0.0574(10) 0.0234(5)
H36_4 H 0.1986 0.0055 0.0569
C57_2 C 0.2537(4) 0.5472(13) 0.0469(9)
O6_2 O 0.2588(4) 0.6787(12) 0.0518(8)
H38_2 H 0.2756 0.6970 0.0875
C58_4 C 0.2032(5) 0.2420(18) 0.1448(7)
N15_2 N 0.2860(3) 0.2446(9) 0.0152(5)
C41_4 C 0.3021(3) 0.1166(11) 0.0263(6)
H22_4 H 0.2937 0.0553 0.0573
N10_3 N 0.1625(2) 0.0061(8) 0.9802(4)
C53_3 C 0.1835(3) 0.2260(11) 0.9591(5)
H34_3 H 0.1879 0.3140 0.9398
C56_3 C 0.1589(3) 0.1141(10) 0.9371(5)
H37_3 H 0.1433 0.1110 0.9012
N2_3 N 0.00850(19) 0.3821(6) 0.0473(3)
C2_3 C 0.0384(3) 0.4878(8) 0.0384(3)
C11_4 C 0.0386(3) 0.5821(9) 0.0889(3)
H3_4 H 0.0550 0.6665 0.0927
C13_4 C 0.0120(3) 0.5302(8) 0.1285(4)
H5_4 H 0.0067 0.5686 0.1664
H15_4 H 0.1480 0.5417 0.0090
H21_4 H 0.1890 0.7514 0.0061
Co3 Co 0.00120(3) 0.70861(10) 0.50012(4)
N13_2 N 0.0423(2) 0.1195(6) 0.0512(3)
N6_3 N 0.0674(2) 0.8932(7) 0.6347(3)
N7_2 N 0.0439(2) 0.7945(7) 0.5517(3)
C9_3 C 0.0346(3) 0.8842(9) 0.5964(4)
H2_3 H 0.0082 0.9344 0.6002
C20_3 C 0.1004(3) 0.8114(9) 0.6139(4)
H9_3 H 0.1281 0.8013 0.6310
C30_3 C 0.0857(3) 0.7462(9) 0.5632(4)
H16_3 H 0.1014 0.6799 0.5402
C45_3 C 0.0630(3) 0.9541(9) 0.6927(4)
C50_3 C 0.0757(3) 0.9415(12) 0.7963(4)
H30_3 H 0.0889 0.8989 0.8296
C54_3 C 0.0853(3) 0.8908(11) 0.7393(4)
H35_3 H 0.1058 0.8177 0.7329
N8_3 N 0.0665(2) 0.0281(7) 0.1339(3)
C12_3 C 0.0320(3) 0.0347(8) 0.0951(3)
C21_3 C 0.0836(3) 0.1680(9) 0.0622(4)
H10_3 H 0.0994 0.2312 0.0378
C23_3 C 0.0980(3) 0.1104(10) 0.1135(4)
H11_3 H 0.1253 0.1258 0.1313
H20_3 H 0.0961 0.0084 0.3271
C52_3 C 0.0870(3) 0.0245(12) 0.2371(4)
H33_3 H 0.1075 0.0969 0.2294
N1_3 N 0.0108(2) 0.5376(6) 0.5491(3)
N3_3 N 0.0467(2) 0.6419(6) 0.4445(3)
C1_4 C 0.0402(2) 0.4314(8) 0.5400(3)
C4_3 C 0.0075(2) 0.9070(8) 0.3953(3)
C7_3 C 0.0936(3) 0.2832(8) 0.4855(3)
C8_3 C 0.0984(3) 0.0347(9) 0.4705(4)
H4_3 H 0.0054 0.9862 0.0994
C14_3 C 0.0860(3) 0.6108(9) 0.3577(3)
H6_3 H 0.0971 0.6272 0.3194
C15_3 C 0.0673(2) 0.4135(8) 0.4903(3)
C16_3 C 0.0743(3) 0.1548(9) 0.4726(4)
H7_3 H 0.0442 0.1505 0.4653
C18_3 C 0.0559(2) 0.7016(8) 0.3901(3)
C22_3 C 0.0622(3) 0.9645(9) 0.1920(3)
C24_3 C 0.0692(2) 0.5166(8) 0.4453(3)
C27_3 C 0.0949(3) 0.5012(9) 0.3923(3)
H13_3 H 0.1145 0.4266 0.3839
C28_4 C 0.0145(3) 0.3894(9) 0.6297(4)
H14_4 H 0.0089 0.3508 0.6675
C33_3 C 0.0381(3) 0.8223(9) 0.3668(3)
C34_4 C 0.0426(3) 0.3381(9) 0.5893(3)
H18_4 H 0.0603 0.2566 0.5930
C35_3 C 0.0498(3) 0.8659(9) 0.3048(3)
C38_3 C 0.0800(3) 0.9713(13) 0.2951(4)
C39_3 C 0.1426(3) 0.0385(10) 0.4821(5)
C43_3 C 0.1382(3) 0.2874(9) 0.4954(5)
H24_4 H 0.1517 0.3743 0.5053
C46_3 C 0.0338(4) 0.8618(10) 0.2017(4)
H26_3 H 0.0184 0.8225 0.1695
C47_3 C 0.0263(4) 0.8107(11) 0.2584(4)
H27_3 H 0.0054 0.7391 0.2650
C48_3 C 0.1624(3) 0.1655(10) 0.4906(5)
H28_3 H 0.1929 0.1701 0.4932
N4_3 N 0.0446(2) 0.2742(7) 0.9445(3)
C3_3 C 0.0663(2) 0.3991(8) 0.9461(3)
C5_3 C 0.0916(3) 0.6291(8) 0.9856(3)
C6_3 C 0.0639(3) 0.5003(8) 0.9904(3)
C10_3 C 0.0051(3) 0.0126(8) 0.8952(3)
C17_3 C 0.0351(3) 0.0956(8) 0.8666(3)
C19_3 C 0.0730(3) 0.7555(9) 0.9701(4)
H8_3 H 0.0432 0.7568 0.9607
C25_3 C 0.0962(3) 0.8829(9) 0.9674(4)
H12_3 H 0.0825 0.9687 0.9563
C26_3 C 0.0537(3) 0.2162(8) 0.8895(3)
C29_3 C 0.1345(3) 0.6282(9) 0.9986(5)
C31_3 C 0.0912(3) 0.4203(8) 0.8934(4)
H17_3 H 0.1094 0.4982 0.8848
C32_3 C 0.0478(3) 0.0505(9) 0.8040(3)
C36_3 C 0.0833(3) 0.3068(9) 0.8586(4)
H19_3 H 0.0952 0.2901 0.8207
C37_3 C 0.1398(3) 0.8800(9) 0.9815(4)
C40_3 C 0.1591(3) 0.7538(10) 0.9968(5)
C42_3 C 0.0357(4) 0.0590(10) 0.7011(4)
H23_3 H 0.0211 0.1001 0.6686
C51_3 C 0.0282(4) 0.1094(11) 0.7578(4)
H32_3 H 0.0090 0.1864 0.7636
N3_4 N 0.9533(2) 0.1419(6) 0.0555(3)
N5_2 N 0.9577(2) 0.6195(6) 0.4488(3)
N8_4 N 0.9335(2) 0.5281(7) 0.3661(3)
C4_4 C 0.9925(2) 0.4070(8) 0.1047(3)
C12_4 C 0.9680(3) 0.5347(8) 0.4049(3)
H4_4 H 0.9946 0.4862 0.4006
C14_4 C 0.9140(3) 0.1108(9) 0.1423(3)
H6_4 H 0.9029 0.1272 0.1806
C18_4 C 0.9441(2) 0.2016(8) 0.1099(3)
C21_4 C 0.9164(3) 0.6680(9) 0.4378(4)
H10_4 H 0.9006 0.7312 0.4622
C22_4 C 0.9378(3) 0.4645(9) 0.3080(3)
C23_4 C 0.9020(3) 0.6104(10) 0.3865(4)
H11_4 H 0.8747 0.6258 0.3687
C24_4 C 0.9308(2) 0.0166(8) 0.0547(3)
C27_4 C 0.9051(3) 0.0012(9) 0.1077(3)
C33_4 C 0.9619(3) 0.3223(9) 0.1332(3)
C35_4 C 0.9502(3) 0.3659(9) 0.1952(3)
C38_4 C 0.9200(3) 0.4713(13) 0.2049(4)
H20_4 H 0.9039 0.5084 0.1729
C46_4 C 0.9662(4) 0.3618(10) 0.2983(4)
H26_4 H 0.9816 0.3225 0.3305
C47_4 C 0.9737(4) 0.3107(11) 0.2416(4)
H27_4 H 0.9946 0.2391 0.2350
C52_4 C 0.9130(3) 0.5245(12) 0.2629(4)
H33_4 H 0.8925 0.5969 0.2706
Co1_2 Co 0.99880(3) 0.20861(10) 0.99988(4)
N1_4 N 0.9892(2) 0.0376(6) 0.9509(3)
N14_2 N 0.9561(2) 0.2945(7) 0.9483(3)
N2_4 N 0.99150(19) 0.8821(6) 0.4527(3)
N4_4 N 0.9554(2) 0.7742(7) 0.5555(3)
N6_4 N 0.9326(2) 0.3932(7) 0.8653(3)
C2_4 C 0.9616(3) 0.9878(8) 0.4616(3)
C3_4 C 0.9337(2) 0.8991(8) 0.5539(3)
C9_4 C 0.9654(3) 0.3842(9) 0.9036(4)
H2_4 H 0.9918 0.4344 0.8998
C10_4 C 0.9949(3) 0.5126(8) 0.6048(3)
C17_4 C 0.9649(3) 0.5956(8) 0.6334(3)
C20_4 C 0.8996(3) 0.3114(9) 0.8861(4)
H9_4 H 0.8719 0.3013 0.8690
C26_4 C 0.9463(3) 0.7162(8) 0.6105(3)
C30_4 C 0.9143(3) 0.2462(9) 0.9368(4)
H16_4 H 0.8986 0.1799 0.9598
C31_4 C 0.9088(3) 0.9203(8) 0.6066(4)
H17_4 H 0.8906 0.9982 0.6152
C32_4 C 0.9522(3) 0.5505(9) 0.6960(3)
C36_4 C 0.9167(3) 0.8068(9) 0.6414(4)
H19_4 H 0.9048 0.7901 0.6793
C42_4 C 0.9643(4) 0.5590(10) 0.7989(4)
H23_4 H 0.9789 0.6001 0.8314
C45_4 C 0.9370(3) 0.4541(9) 0.8073(4)
C50_4 C 0.9243(3) 0.4415(12) 0.7037(4)
H30_4 H 0.9111 0.3989 0.6704
C51_4 C 0.9718(4) 0.6094(11) 0.7422(4)
H32_4 H 0.9910 0.6864 0.7364
C54_4 C 0.9147(3) 0.3908(11) 0.7607(4)
H35_4 H 0.8942 0.3177 0.7671
C7_4 C 0.9064(3) 0.7832(8) 0.0145(3)
C8_4 C 0.9016(3) 0.5347(9) 0.0295(4)
H1_3 H 0.9149 0.4472 0.0391
C15_4 C 0.9327(2) 0.9135(8) 0.0097(3)
C16_4 C 0.9257(3) 0.6548(9) 0.0274(4)
H7_4 H 0.9558 0.6505 0.0347
H13_4 H 0.8855 0.9266 0.1161
N11_3 N 0.8336(2) 0.4107(8) 0.0162(4)
C39_4 C 0.8574(3) 0.5385(10) 0.0179(5)
C43_4 C 0.8618(3) 0.7874(9) 0.0046(5)
C44_3 C 0.8364(3) 0.2965(10) 0.0536(6)
H25_3 H 0.8555 0.2851 0.0859
C48_4 C 0.8376(3) 0.6655(10) 0.0094(5)
H28_4 H 0.8071 0.6701 0.0068
C49_3 C 0.8064(4) 0.2045(11) 0.0346(6)
H29_3 H 0.8001 0.1166 0.0529
H1_4 H 0.4149 0.0528 0.9609
N11_4 N 0.3336(2) 0.0893(8) 0.9838(4)
C44_4 C 0.3364(3) 0.2035(10) 0.9464(6)
H25_4 H 0.3555 0.2149 0.9141
C49_4 C 0.3064(4) 0.2955(11) 0.9654(6)
H29_4 H 0.3001 0.3834 0.9471
C5_4 C 0.5916(3) 0.8709(8) 0.0144(3)
C6_4 C 0.5639(3) 0.9997(8) 0.0096(3)
C19_4 C 0.5730(3) 0.7445(9) 0.0299(4)
H8_4 H 0.5432 0.7432 0.0393
C25_4 C 0.5962(3) 0.6171(9) 0.0326(4)
H12_4 H 0.5825 0.5313 0.0437
N10_4 N 0.6625(2) 0.4939(8) 0.0198(4)
C29_4 C 0.6345(3) 0.8718(9) 0.0014(5)
C37_4 C 0.6398(3) 0.6200(9) 0.0185(4)
C40_4 C 0.6591(3) 0.7462(10) 0.0032(5)
C53_4 C 0.6835(3) 0.2740(11) 0.0409(5)
H34_4 H 0.6879 0.1860 0.0602
C56_4 C 0.6589(3) 0.3859(10) 0.0629(5)
H37_4 H 0.6433 0.3890 0.0988
C57_3 C 0.7537(4) 0.9528(13) 0.9531(9)
O6_3 O 0.7588(4) 0.8213(12) 0.9482(8)
H38_3 H 0.7756 0.8030 0.9125
C57_4 C 0.7463(4) 0.0472(13) 0.4531(9)
O6_4 O 0.7412(4) 0.1787(12) 0.4482(8)
H38_4 H 0.7244 0.1970 0.4125
loop_
_geom_bond_atom_site_label_1
_geom_bond_atom_site_label_2
_geom_bond_site_symmetry_1
_geom_bond_site_symmetry_2
N6 C9 1_555 1_555
N7 C9 1_555 1_555
C1 C15 1_555 1_555
C7 C15 1_555 1_555
C8 H1 1_555 1_555
C9 H2 1_555 1_555
C16 C7 1_555 1_555
H7 C16 1_555 1_555
C20 N6 1_555 1_555
H9 C20 1_555 1_555
N9 C41 1_555 1_555
H14 C28 1_555 1_555
N11 C39 1_555 1_555
C30 N7 1_555 1_555
H16 C30 1_555 1_555
C34 C1 1_555 1_555
H18 C34 1_555 1_555
C39 C8 1_555 1_555
C41 N11 1_555 1_555
H22 C41 1_555 1_555
C43 C7 1_555 1_555
H24 C43 1_555 1_555
C44 N11 1_555 1_555
H25 C44 1_555 1_555
C45 N6 1_555 1_555
C48 C39 1_555 1_555
H28 C48 1_555 1_555
C49 N9 1_555 1_555
H29 C49 1_555 1_555
H30 C50 1_555 1_555
C54 C45 1_555 1_555
H35 C54 1_555 1_555
Co4 N7 1_555 1_555
Co5 N9 1_555 1_555
C8 C16 1_555 1_555
C20 C30 1_555 1_555
C28 C34 1_555 1_555
C43 C48 1_555 1_555
C44 C49 1_555 1_555
C50 C54 1_555 1_555
Co1 N1 1_555 1_555
N2 Co1 1_555 1_555
N3 Co1 1_555 1_555
N4 Co1 1_555 1_555
N5 C12 1_555 1_555
N8 C12 1_555 1_555
C2 N2 1_555 1_555
C3 N4 1_555 1_555
C4 N2 1_555 1_555
C5 C6 1_555 1_555
C6 C2 1_555 1_555
C10 N1 1_555 1_555
C11 C2 1_555 1_555
H3 C11 1_555 1_555
C12 H4 1_555 1_555
C13 C4 1_555 1_555
H5 C13 1_555 1_555
C14 H6 1_555 1_555
C17 C10 1_555 1_555
C18 N3 1_555 1_555
C19 C5 1_555 1_555
H8 C19 1_555 1_555
C21 N5 1_555 1_555
H10 C21 1_555 1_555
C22 N8 1_555 1_555
C23 N8 1_555 1_555
H11 C23 1_555 1_555
C24 N3 1_555 1_555
C25 C19 1_555 1_555
H12 C25 1_555 1_555
C26 N4 1_555 1_555
C27 C14 1_555 1_555
C29 C5 1_555 1_555
H15 C29 1_555 1_555
C31 C3 1_555 1_555
H17 C31 1_555 1_555
C32 C17 1_555 1_555
C33 C4 1_555 1_555
C35 C33 1_555 1_555
C36 C26 1_555 1_555
H19 C36 1_555 1_555
C37 C25 1_555 1_555
C38 C35 1_555 1_555
H20 C38 1_555 1_555
C40 C29 1_555 1_555
H21 C40 1_555 1_555
C42 H23 1_555 1_555
C46 C22 1_555 1_555
H26 C46 1_555 1_555
C47 C35 1_555 1_555
H27 C47 1_555 1_555
C51 C32 1_555 1_555
H32 C51 1_555 1_555
C52 C22 1_555 1_555
H33 C52 1_555 1_555
N13 Co1 1_555 1_555
N14 Co1 1_555 1_555
C3 C6 1_555 1_555
C11 C13 1_555 1_555
C14 C18 1_555 1_555
C17 C26 1_555 1_555
C18 C33 1_555 1_555
C21 C23 1_555 1_555
C24 C27 1_555 1_555
C31 C36 1_555 1_555
C37 C40 1_555 1_555
C38 C52 1_555 1_555
C42 C51 1_555 1_555
C46 C47 1_555 1_555
N9_2 C41_2 1_555 1_555
H14_2 C28_2 1_555 1_555
C34_2 C1_2 1_555 1_555
H18_2 C34_2 1_555 1_555
H22_2 C41_2 1_555 1_555
Co5_2 N9_2 1_555 1_555
C28_2 C34_2 1_555 1_555
Co4 N1_2 1_555 1_555
N1_2 C1_3 1_555 1_555
N4_2 Co4 1_555 1_555
N6_2 C9_2 1_555 1_555
N14 C9_2 1_555 1_555
C3_2 N4_2 1_555 1_555
C9_2 H2_2 1_555 1_555
C10_2 N1_2 1_555 1_555
C17_2 C10_2 1_555 1_555
C20_2 N6_2 1_555 1_555
H9_2 C20_2 1_555 1_555
C26_2 N4_2 1_555 1_555
C28_3 C10_2 1_555 1_555
H14_3 C28_3 1_555 1_555
C30_2 N14 1_555 1_555
H16_2 C30_2 1_555 1_555
C31_2 C3_2 1_555 1_555
H17_2 C31_2 1_555 1_555
C32_2 C17_2 1_555 1_555
C34_3 C1_3 1_555 1_555
H18_3 C34_3 1_555 1_555
C36_2 C26_2 1_555 1_555
H19_2 C36_2 1_555 1_555
C42_2 H23_2 1_555 1_555
C45_2 N6_2 1_555 1_555
C50_2 C32_2 1_555 1_555
H30_2 C50_2 1_555 1_555
C51_2 C32_2 1_555 1_555
H32_2 C51_2 1_555 1_555
C54_2 C45_2 1_555 1_555
H35_2 C54_2 1_555 1_555
C17_2 C26_2 1_555 1_555
C20_2 C30_2 1_555 1_555
C28_3 C34_3 1_555 1_555
C31_2 C36_2 1_555 1_555
C42_2 C45_2 1_555 1_555
C42_2 C51_2 1_555 1_555
C50_2 C54_2 1_555 1_555
C2_2 N2_2 1_555 1_555
C4_2 N2_2 1_555 1_555
C7_2 C15_2 1_555 1_555
C14_2 H6_2 1_555 1_555
C15_2 C24_2 1_555 1_555
C16_2 C7_2 1_555 1_555
H7_2 C16_2 1_555 1_555
C18_2 N3_2 1_555 1_555
C24_2 N3_2 1_555 1_555
C27_2 C14_2 1_555 1_555
H13_2 C27_2 1_555 1_555
C33_2 C4_2 1_555 1_555
C35_2 C33_2 1_555 1_555
C38_2 C35_2 1_555 1_555
C39_2 C8_2 1_555 1_555
C43_2 C7_2 1_555 1_555
C46_2 C22_2 1_555 1_555
H26_2 C46_2 1_555 1_555
C47_2 C35_2 1_555 1_555
H27_2 C47_2 1_555 1_555
C48_2 C39_2 1_555 1_555
H28_2 C48_2 1_555 1_555
C8_2 C16_2 1_555 1_555
C14_2 C18_2 1_555 1_555
C18_2 C33_2 1_555 1_555
C24_2 C27_2 1_555 1_555
C43_2 C48_2 1_555 1_555
C46_2 C47_2 1_555 1_555
Co5_2 O1 1_555 1_555
N13 C12_2 1_555 1_555
N8_2 C12_2 1_555 1_555
H3_2 C11_2 1_555 1_555
H5_2 C13_2 1_555 1_555
C21_2 N13 1_555 1_555
H10_2 C21_2 1_555 1_555
C23_2 N8_2 1_555 1_555
H11_2 C23_2 1_555 1_555
O1 C58 1_555 1_555
O2 Co5_2 1_555 1_555
N12 Co5_2 1_555 1_555
O3 Co5_2 1_555 1_555
O4 Co5_2 1_555 1_555
O5 H31 1_555 1_555
H33_2 C52_2 1_555 1_555
H36 C55 1_555 1_555
C58 O4 1_555 1_555
C11_2 C13_2 1_555 1_555
C21_2 C23_2 1_555 1_555
N12 C55 1_555 1_555
O5 C58 1_555 1_555
Co5 O1_2 1_555 1_555
C5_2 C6_2 1_555 1_555
H3_3 C11_3 1_555 1_555
H5_3 C13_3 1_555 1_555
C19_2 C5_2 1_555 1_555
H8_2 C19_2 1_555 1_555
C25_2 C19_2 1_555 1_555
H12_2 C25_2 1_555 1_555
N10 C37_2 1_555 1_555
C29_2 C5_2 1_555 1_555
H15_3 C29_2 1_555 1_555
O1_2 C58_2 1_555 1_555
O2_2 Co5 1_555 1_555
N12_2 Co5 1_555 1_555
C37_2 C25_2 1_555 1_555
O3_2 Co5 1_555 1_555
C40_2 C29_2 1_555 1_555
H21_3 C40_2 1_555 1_555
O4_2 Co5 1_555 1_555
O5_2 H31_2 1_555 1_555
C53 N12_2 1_555 1_555
H34 C53 1_555 1_555
C55_2 N10 1_555 1_555
H36_2 C55_2 1_555 1_555
C56 N10 1_555 1_555
H37 C56 1_555 1_555
C58_2 O4_2 1_555 1_555
C11_3 C13_3 1_555 1_555
N12_2 C55_2 1_555 1_555
C37_2 C40_2 1_555 1_555
O5_2 C58_2 1_555 1_555
C53 C56 1_555 1_555
Co2 O1_3 1_555 1_555
O1_3 C58_3 1_555 1_555
O2_3 Co2 1_555 1_555
N12_3 Co2 1_555 1_555
O3_3 Co2 1_555 1_555
O4_3 Co2 1_555 1_555
O5_3 H31_3 1_555 1_555
C53_2 N12_3 1_555 1_555
H34_2 C53_2 1_555 1_555
C55_3 N10_2 1_555 1_555
H36_3 C55_3 1_555 1_555
C56_2 N10_2 1_555 1_555
H37_2 C56_2 1_555 1_555
C57 O2_3 1_555 1_555
O6 C57 1_555 1_555
H38 O6 1_555 1_555
C58_3 O4_3 1_555 1_555
N15 Co2 1_555 1_555
N12_3 C55_3 1_555 1_555
O3_3 C57 1_555 1_555
O5_3 C58_3 1_555 1_555
C53_2 C56_2 1_555 1_555
N15 C41_3 1_555 1_555
C41_3 N11_2 1_555 1_555
H22_3 C41_3 1_555 1_555
C44_2 N11_2 1_555 1_555
H25_2 C44_2 1_555 1_555
C49_2 N15 1_555 1_555
H29_2 C49_2 1_555 1_555
C44_2 C49_2 1_555 1_555
Co2_2 O1_4 1_555 1_555
O1_4 C58_4 1_555 1_555
O2_4 Co2_2 1_555 1_555
N12_4 Co2_2 1_555 1_555
O3_4 Co2_2 1_555 1_555
O4_4 Co2_2 1_555 1_555
O5_4 H31_4 1_555 1_555
H36_4 C55_4 1_555 1_555
C57_2 O2_4 1_555 1_555
O6_2 C57_2 1_555 1_555
H38_2 O6_2 1_555 1_555
C58_4 O4_4 1_555 1_555
N15_2 Co2_2 1_555 1_555
N12_4 C55_4 1_555 1_555
O3_4 C57_2 1_555 1_555
O5_4 C58_4 1_555 1_555
N15_2 C41_4 1_555 1_555
H22_4 C41_4 1_555 1_555
H34_3 C53_3 1_555 1_555
C56_3 N10_3 1_555 1_555
H37_3 C56_3 1_555 1_555
C53_3 C56_3 1_555 1_555
C2_3 N2_3 1_555 1_555
C11_4 C2_3 1_555 1_555
H3_4 C11_4 1_555 1_555
H5_4 C13_4 1_555 1_555
C11_4 C13_4 1_555 1_555
N6_3 C9_3 1_555 1_555
N7_2 C9_3 1_555 1_555
C9_3 H2_3 1_555 1_555
C20_3 N6_3 1_555 1_555
H9_3 C20_3 1_555 1_555
C30_3 N7_2 1_555 1_555
H16_3 C30_3 1_555 1_555
C45_3 N6_3 1_555 1_555
H30_3 C50_3 1_555 1_555
C54_3 C45_3 1_555 1_555
H35_3 C54_3 1_555 1_555
Co3 N7_2 1_555 1_555
C20_3 C30_3 1_555 1_555
C50_3 C54_3 1_555 1_555
N13_2 C12_3 1_555 1_555
N8_3 C12_3 1_555 1_555
C21_3 N13_2 1_555 1_555
H10_3 C21_3 1_555 1_555
C23_3 N8_3 1_555 1_555
H11_3 C23_3 1_555 1_555
H33_3 C52_3 1_555 1_555
C21_3 C23_3 1_555 1_555
Co3 N1_3 1_555 1_555
N1_3 C1_4 1_555 1_555
N3_3 Co3 1_555 1_555
C1_4 C15_3 1_555 1_555
C7_3 C15_3 1_555 1_555
C14_3 H6_3 1_555 1_555
C15_3 C24_3 1_555 1_555
C16_3 C7_3 1_555 1_555
H7_3 C16_3 1_555 1_555
C18_3 N3_3 1_555 1_555
C24_3 N3_3 1_555 1_555
C27_3 C14_3 1_555 1_555
H13_3 C27_3 1_555 1_555
H14_4 C28_4 1_555 1_555
C33_3 C4_3 1_555 1_555
C34_4 C1_4 1_555 1_555
H18_4 C34_4 1_555 1_555
C35_3 C33_3 1_555 1_555
C38_3 C35_3 1_555 1_555
C39_3 C8_3 1_555 1_555
C43_3 C7_3 1_555 1_555
H24_4 C43_3 1_555 1_555
C46_3 C22_3 1_555 1_555
H26_3 C46_3 1_555 1_555
C47_3 C35_3 1_555 1_555
H27_3 C47_3 1_555 1_555
C48_3 C39_3 1_555 1_555
H28_3 C48_3 1_555 1_555
C8_3 C16_3 1_555 1_555
C14_3 C18_3 1_555 1_555
C18_3 C33_3 1_555 1_555
C24_3 C27_3 1_555 1_555
C28_4 C34_4 1_555 1_555
C43_3 C48_3 1_555 1_555
C46_3 C47_3 1_555 1_555
C3_3 N4_3 1_555 1_555
C5_3 C6_3 1_555 1_555
C17_3 C10_3 1_555 1_555
C19_3 C5_3 1_555 1_555
H8_3 C19_3 1_555 1_555
C25_3 C19_3 1_555 1_555
H12_3 C25_3 1_555 1_555
C26_3 N4_3 1_555 1_555
C29_3 C5_3 1_555 1_555
C31_3 C3_3 1_555 1_555
H17_3 C31_3 1_555 1_555
C32_3 C17_3 1_555 1_555
C36_3 C26_3 1_555 1_555
H19_3 C36_3 1_555 1_555
C37_3 C25_3 1_555 1_555
C40_3 C29_3 1_555 1_555
C42_3 H23_3 1_555 1_555
C51_3 C32_3 1_555 1_555
H32_3 C51_3 1_555 1_555
C3_3 C6_3 1_555 1_555
C17_3 C26_3 1_555 1_555
C31_3 C36_3 1_555 1_555
C37_3 C40_3 1_555 1_555
C42_3 C51_3 1_555 1_555
N5_2 C12_4 1_555 1_555
N8_4 C12_4 1_555 1_555
C12_4 H4_4 1_555 1_555
C14_4 H6_4 1_555 1_555
C18_4 N3_4 1_555 1_555
C21_4 N5_2 1_555 1_555
H10_4 C21_4 1_555 1_555
C22_4 N8_4 1_555 1_555
C23_4 N8_4 1_555 1_555
H11_4 C23_4 1_555 1_555
C24_4 N3_4 1_555 1_555
C27_4 C14_4 1_555 1_555
C33_4 C4_4 1_555 1_555
C35_4 C33_4 1_555 1_555
C38_4 C35_4 1_555 1_555
H20_4 C38_4 1_555 1_555
C46_4 C22_4 1_555 1_555
H26_4 C46_4 1_555 1_555
C47_4 C35_4 1_555 1_555
H27_4 C47_4 1_555 1_555
C52_4 C22_4 1_555 1_555
H33_4 C52_4 1_555 1_555
C14_4 C18_4 1_555 1_555
C18_4 C33_4 1_555 1_555
C21_4 C23_4 1_555 1_555
C24_4 C27_4 1_555 1_555
C38_4 C52_4 1_555 1_555
C46_4 C47_4 1_555 1_555
Co1_2 N1_4 1_555 1_555
N14_2 Co1_2 1_555 1_555
N6_4 C9_4 1_555 1_555
N14_2 C9_4 1_555 1_555
C2_4 N2_4 1_555 1_555
C3_4 N4_4 1_555 1_555
C9_4 H2_4 1_555 1_555
C17_4 C10_4 1_555 1_555
C20_4 N6_4 1_555 1_555
H9_4 C20_4 1_555 1_555
C26_4 N4_4 1_555 1_555
C30_4 N14_2 1_555 1_555
H16_4 C30_4 1_555 1_555
C31_4 C3_4 1_555 1_555
H17_4 C31_4 1_555 1_555
C32_4 C17_4 1_555 1_555
C36_4 C26_4 1_555 1_555
H19_4 C36_4 1_555 1_555
C42_4 H23_4 1_555 1_555
C45_4 N6_4 1_555 1_555
C50_4 C32_4 1_555 1_555
H30_4 C50_4 1_555 1_555
C51_4 C32_4 1_555 1_555
H32_4 C51_4 1_555 1_555
C54_4 C45_4 1_555 1_555
H35_4 C54_4 1_555 1_555
C17_4 C26_4 1_555 1_555
C20_4 C30_4 1_555 1_555
C31_4 C36_4 1_555 1_555
C42_4 C45_4 1_555 1_555
C42_4 C51_4 1_555 1_555
C50_4 C54_4 1_555 1_555
C7_4 C15_4 1_555 1_555
C8_4 H1_3 1_555 1_555
C16_4 C7_4 1_555 1_555
H7_4 C16_4 1_555 1_555
N11_3 C39_4 1_555 1_555
C39_4 C8_4 1_555 1_555
C43_4 C7_4 1_555 1_555
C44_3 N11_3 1_555 1_555
H25_3 C44_3 1_555 1_555
C48_4 C39_4 1_555 1_555
H28_4 C48_4 1_555 1_555
H29_3 C49_3 1_555 1_555
C8_4 C16_4 1_555 1_555
C43_4 C48_4 1_555 1_555
C44_3 C49_3 1_555 1_555
C44_4 N11_4 1_555 1_555
H25_4 C44_4 1_555 1_555
H29_4 C49_4 1_555 1_555
C44_4 C49_4 1_555 1_555
C5_4 C6_4 1_555 1_555
C19_4 C5_4 1_555 1_555
H8_4 C19_4 1_555 1_555
C25_4 C19_4 1_555 1_555
H12_4 C25_4 1_555 1_555
N10_4 C37_4 1_555 1_555
C29_4 C5_4 1_555 1_555
C37_4 C25_4 1_555 1_555
C40_4 C29_4 1_555 1_555
H34_4 C53_4 1_555 1_555
C56_4 N10_4 1_555 1_555
H37_4 C56_4 1_555 1_555
C37_4 C40_4 1_555 1_555
C53_4 C56_4 1_555 1_555
O6_3 C57_3 1_555 1_555
H38_3 O6_3 1_555 1_555
O6_4 C57_4 1_555 1_555
H38_4 O6_4 1_555 1_555

#END
