
###############################################################################
#
# This file contains modified crystal structure data generated from the
# MOF subset of the Cambridge Structural Database (CSD) v543 
# hosted by the Cambridge Crystallographic Data Centre (CCDC).
#
# This work is licensed under the Creative Commons
# Attribution-NonCommercial-ShareAlike 4.0 International License.
# To view a copy of this license, visit
# http://creativecommons.org/licenses/by-nc-sa/4.0/
# or send a letter to
# Creative Commons, PO Box 1866, Mountain View, CA 94042, USA.
#
# CIF created using the CSD Python API on 29 September 2022
# The structure has been converted into the P1 space group
# The structure has a 3D framework
# The original CSD entry NUKRET is in the orthorhombic crystal system
# The framework has been calculated to contain at least 10.0% void space
# The void calculation uses a probe of radius 1.32A, grid spacing 0.4
# H atom positions have been added when not included in the experimental data
# Generated hydrogen atom positions removed from atoms on special positions
#
###############################################################################

data_NUKRET
_chemical_formula_moiety         '(C224 H184 Co14 N48 O16)n'
_symmetry_cell_setting           triclinic
_symmetry_space_group_name_H-M   'P 1'
_symmetry_Int_Tables_number      1
_space_group_name_Hall           'P 1'
loop_
_symmetry_equiv_pos_site_id
_symmetry_equiv_pos_as_xyz
1 x,y,z
_cell_length_a                   23.354(13)
_cell_length_b                   31.86(3)
_cell_length_c                   9.240(8)
_cell_angle_alpha                90
_cell_angle_beta                 90
_cell_angle_gamma                90
_cell_volume                     6875.1
loop_
_atom_site_label
_atom_site_type_symbol
_atom_site_fract_x
_atom_site_fract_y
_atom_site_fract_z
Co4 Co 0.000000 0.500000 0.500000
Co1 Co 0.500000 0.500000 0.000000
N5 N 0.44338(15) 0.54197(12) 0.0710(4)
C25 C 0.38999(19) 0.54993(15) 0.0120(5)
C26 C 0.3588(2) 0.57804(18) 0.1054(6)
H17 H 0.321868 0.588135 0.090380
C27 C 0.3924(2) 0.58676(18) 0.2163(6)
H18 H 0.383463 0.604325 0.293467
C28 C 0.44500(19) 0.56449(15) 0.1971(5)
N7 N 0.4835(2) 0.66139(14) 0.8126(5)
N8 N 0.94308(19) 0.45031(16) 0.3949(5)
N9 N 0.85745(18) 0.43402(14) 0.3163(5)
N10 N 0.54829(15) 0.51120(11) 0.1720(4)
C29 C 0.5226(3) 0.68982(16) 0.8511(6)
H22 H 0.551984 0.698984 0.790883
C31 C 0.4493(3) 0.6555(2) 0.9296(7)
H24 H 0.418849 0.636773 0.937491
C32 C 0.8999(2) 0.4615(2) 0.3160(6)
H25 H 0.898799 0.486437 0.264026
C33 C 0.9276(2) 0.4124(2) 0.4524(7)
H26 H 0.949559 0.396148 0.514784
C34 C 0.8755(3) 0.40275(19) 0.4036(7)
H27 H 0.855072 0.378554 0.425959
C35 C 0.8013(2) 0.44054(18) 0.2564(6)
C36 C 0.7914(3) 0.4733(3) 0.1694(7)
H28 H 0.821264 0.491038 0.143151
C37 C 0.7371(2) 0.4804(3) 0.1191(8)
H29 H 0.731034 0.502768 0.056211
C38 C 0.6923(2) 0.45654(17) 0.1566(5)
C39 C 0.7019(3) 0.4243(2) 0.2443(11)
H30 H 0.671605 0.407127 0.271250
C40 C 0.7580(3) 0.4156(2) 0.2979(10)
H31 H 0.764405 0.393202 0.360236
C41 C 0.4825(2) 0.63779(15) 0.6791(5)
C42 C 0.4985(3) 0.65573(17) 0.5514(7)
H32 H 0.508874 0.683894 0.548821
C43 C 0.4993(3) 0.63245(18) 0.4268(6)
H33 H 0.509254 0.645229 0.339881
C44 C 0.48568(19) 0.59096(15) 0.4281(5)
C45 C 0.4687(2) 0.57345(16) 0.5573(5)
H34 H 0.457921 0.545365 0.559585
C46 C 0.4673(2) 0.59642(16) 0.6832(5)
H35 H 0.456247 0.583977 0.769777
C47 C 0.48924(19) 0.56394(15) 0.2959(5)
C48 C 0.53793(18) 0.53952(14) 0.2811(4)
C49 C 0.5867(2) 0.54023(16) 0.3785(5)
H36 H 0.589792 0.556062 0.462715
C50 C 0.6257(2) 0.51460(17) 0.3268(5)
H37 H 0.661497 0.509298 0.366653
C51 C 0.6026(2) 0.49615(14) 0.1964(5)
C52 C 0.63193(19) 0.46827(16) 0.1131(5)
N12 N 0.5149(3) 0.70319(14) 0.9825(5)
Co4_2 Co 1.000000 0.500000 0.500000
N13 N 0.44308(19) 0.45031(16) 0.1051(5)
Co1_2 Co 0.500000 0.500000 1.000000
N1 N 0.5165(2) 0.33861(14) 0.1874(5)
N2 N 0.05692(19) 0.54969(16) 0.6051(5)
N3 N 0.14255(18) 0.56598(14) 0.6837(5)
N4 N 0.45171(15) 0.48880(11) 0.8280(4)
C1 C 0.4774(3) 0.31018(16) 0.1489(6)
H1 H 0.448016 0.301016 0.209117
C3 C 0.5507(3) 0.3445(2) 0.0704(7)
H3 H 0.581151 0.363227 0.062509
C4 C 0.1001(2) 0.5385(2) 0.6840(6)
H4 H 0.101201 0.513563 0.735974
C5 C 0.0724(2) 0.5876(2) 0.5476(7)
H5 H 0.050441 0.603852 0.485216
C6 C 0.1245(3) 0.59725(19) 0.5964(7)
H6 H 0.144928 0.621446 0.574041
C7 C 0.1987(2) 0.55946(18) 0.7436(6)
C8 C 0.2086(3) 0.5267(3) 0.8306(7)
H7 H 0.178736 0.508962 0.856849
C9 C 0.2629(2) 0.5196(3) 0.8809(8)
H8 H 0.268966 0.497232 0.943789
C10 C 0.3077(2) 0.54346(17) 0.8434(5)
C11 C 0.2981(3) 0.5757(2) 0.7557(11)
H9 H 0.328395 0.592873 0.728750
C12 C 0.2420(3) 0.5844(2) 0.7021(10)
H10 H 0.235595 0.606798 0.639764
C13 C 0.5175(2) 0.36221(15) 0.3209(5)
C14 C 0.5015(3) 0.34427(17) 0.4486(7)
H11 H 0.491126 0.316106 0.451179
C15 C 0.5007(3) 0.36755(18) 0.5732(6)
H12 H 0.490746 0.354771 0.660119
C16 C 0.51432(19) 0.40904(15) 0.5719(5)
C17 C 0.5313(2) 0.42655(16) 0.4427(5)
H13 H 0.542079 0.454635 0.440415
C18 C 0.5327(2) 0.40358(16) 0.3168(5)
H14 H 0.543753 0.416023 0.230223
C19 C 0.51076(19) 0.43606(15) 0.7041(5)
C20 C 0.46207(18) 0.46048(14) 0.7189(4)
C21 C 0.4133(2) 0.45977(16) 0.6215(5)
H15 H 0.410208 0.443938 0.537285
C22 C 0.3743(2) 0.48540(17) 0.6732(5)
H16 H 0.338503 0.490702 0.633347
C23 C 0.3974(2) 0.50385(14) 0.8036(5)
C24 C 0.36807(19) 0.53173(16) 0.8869(5)
O3 O 0.3748(4) 0.250000 0.0730(12)
H21 H 0.3537(5) 0.2296(3) 0.081(7)
N6 N 0.4851(3) 0.29681(14) 0.0175(5)
N11 N 0.55662(15) 0.45803(12) 0.9290(4)
C53 C 0.61001(19) 0.45007(15) 0.9880(5)
C54 C 0.6412(2) 0.42196(18) 0.8946(6)
H38 H 0.678132 0.411865 0.909620
C55 C 0.6076(2) 0.41324(18) 0.7837(6)
H39 H 0.616537 0.395675 0.706533
C56 C 0.55500(19) 0.43551(15) 0.8029(5)
H41 H 0.3537(5) 0.2704(3) 0.081(7)
N14 N 0.55692(19) 0.54969(16) 0.8949(5)
N15 N 0.4851(3) 0.20319(14) 0.0175(5)
N3_2 N 0.35745(18) 0.43402(14) 0.1837(5)
N4_2 N 0.04829(15) 0.51120(11) 0.3280(4)
N5_2 N 0.05662(15) 0.45803(12) 0.5710(4)
C4_2 C 0.3999(2) 0.4615(2) 0.1840(6)
H4_2 H 0.398799 0.486437 0.235974
C5_2 C 0.4276(2) 0.4124(2) 0.0476(7)
C6_2 C 0.3755(3) 0.40275(19) 0.0964(7)
H6_2 H 0.355072 0.378554 0.074041
C7_2 C 0.3013(2) 0.44054(18) 0.2436(6)
C8_2 C 0.2914(3) 0.4733(3) 0.3306(7)
H7_2 H 0.321264 0.491038 0.356849
C9_2 C 0.2371(2) 0.4804(3) 0.3809(8)
H8_2 H 0.231034 0.502768 0.443789
C10_2 C 0.1923(2) 0.45654(17) 0.3434(5)
C11_2 C 0.2019(3) 0.4243(2) 0.2557(11)
H9_2 H 0.171605 0.407127 0.228750
C12_2 C 0.2580(3) 0.4156(2) 0.2021(10)
H10_2 H 0.264405 0.393202 0.139764
H12_2 H 0.009254 0.645229 0.160119
C20_2 C 0.03793(18) 0.53952(14) 0.2189(4)
C21_2 C 0.0867(2) 0.54023(16) 0.1215(5)
H15_2 H 0.089792 0.556062 0.037285
C22_2 C 0.1257(2) 0.51460(17) 0.1732(5)
H16_2 H 0.161497 0.509298 0.133347
C23_2 C 0.1026(2) 0.49615(14) 0.3036(5)
C24_2 C 0.13193(19) 0.46827(16) 0.3869(5)
C25_2 C 0.11001(19) 0.45007(15) 0.5120(5)
C26_2 C 0.1412(2) 0.42196(18) 0.6054(6)
H17_2 H 0.178132 0.411865 0.590380
C27_2 C 0.1076(2) 0.41324(18) 0.7163(6)
H18_2 H 0.116537 0.395675 0.793467
C28_2 C 0.05500(19) 0.43551(15) 0.6971(5)
C43_2 C 0.0007(3) 0.36755(18) 0.9268(6)
C44_2 C 0.01432(19) 0.40904(15) 0.9281(5)
C47_2 C 0.01076(19) 0.43606(15) 0.7959(5)
C1_2 C 0.0226(3) 0.68982(16) 0.6489(6)
H1_2 H 0.051984 0.698984 0.709117
H5_2 H 0.449559 0.396148 0.985216
H11_2 H 0.008874 0.683894 0.951179
Co2 Co 0.06093(8) 0.750000 0.40923(13)
O1 O 0.0071(3) 0.750000 0.2001(5)
H19 H 0.000725 0.774264 0.175305
O2 O 0.1151(4) 0.7986(3) 0.3052(8)
O3_2 O 0.1252(4) 0.750000 0.5730(12)
H21_2 H 0.1463(5) 0.7704(3) 0.581(7)
N6_2 N 0.0149(3) 0.70319(14) 0.5175(5)
H40 H 0.000725 0.725736 0.175305
H41_2 H 0.1463(5) 0.7296(3) 0.581(7)
O4 O 0.1151(4) 0.7014(3) 0.3052(8)
N15_2 N 0.0149(3) 0.79681(14) 0.5175(5)
C29_2 C 0.9774(3) 0.31018(16) 0.3511(6)
H22_2 H 0.948016 0.301016 0.290883
H26_2 H 0.550441 0.603852 0.014784
H32_2 H 0.991126 0.316106 0.048821
N12_2 N 0.9851(3) 0.29681(14) 0.4825(5)
Co5 Co 0.93907(8) 0.250000 0.59077(13)
C15_2 C 0.9993(3) 0.63245(18) 0.0732(6)
C16_2 C 0.98568(19) 0.59096(15) 0.0719(5)
C19_2 C 0.98924(19) 0.56394(15) 0.2041(5)
N9_2 N 0.64255(18) 0.56598(14) 0.8163(5)
N10_2 N 0.95171(15) 0.48880(11) 0.6720(4)
N11_2 N 0.94338(15) 0.54197(12) 0.4290(4)
C32_2 C 0.6001(2) 0.5385(2) 0.8160(6)
H25_2 H 0.601201 0.513563 0.764026
C33_2 C 0.5724(2) 0.5876(2) 0.9524(7)
C34_2 C 0.6245(3) 0.59725(19) 0.9036(7)
H27_2 H 0.644928 0.621446 0.925959
C35_2 C 0.6987(2) 0.55946(18) 0.7564(6)
C36_2 C 0.7086(3) 0.5267(3) 0.6694(7)
H28_2 H 0.678736 0.508962 0.643151
C37_2 C 0.7629(2) 0.5196(3) 0.6191(8)
H29_2 H 0.768966 0.497232 0.556211
C38_2 C 0.8077(2) 0.54346(17) 0.6566(5)
C39_2 C 0.7981(3) 0.5757(2) 0.7443(11)
H30_2 H 0.828395 0.592873 0.771250
C40_2 C 0.7420(3) 0.5844(2) 0.7979(10)
H31_2 H 0.735595 0.606798 0.860236
H33_2 H 0.990746 0.354771 0.839881
C48_2 C 0.96207(18) 0.46048(14) 0.7811(4)
C49_2 C 0.9133(2) 0.45977(16) 0.8785(5)
H36_2 H 0.910208 0.443938 0.962715
C50_2 C 0.8743(2) 0.48540(17) 0.8268(5)
H37_2 H 0.838503 0.490702 0.866653
C51_2 C 0.8974(2) 0.50385(14) 0.6964(5)
C52_2 C 0.86807(19) 0.53173(16) 0.6131(5)
C53_2 C 0.88999(19) 0.54993(15) 0.4880(5)
C54_2 C 0.8588(2) 0.57804(18) 0.3946(6)
H38_2 H 0.821868 0.588135 0.409620
C55_2 C 0.8924(2) 0.58676(18) 0.2837(6)
H39_2 H 0.883463 0.604325 0.206533
C56_2 C 0.94500(19) 0.56449(15) 0.3029(5)
Co3 Co -0.000000 -0.000000 0.500000
Co3_2 Co 0.000000 1.000000 0.500000
Co1_3 Co 0.500000 0.000000 0.000000
N2_2 N 0.94308(19) 0.04969(16) 0.3949(5)
N3_3 N 0.85745(18) 0.06598(14) 0.3163(5)
C4_3 C 0.8999(2) 0.0385(2) 0.3160(6)
H4_3 H 0.898799 0.013563 0.264026
C5_3 C 0.9276(2) 0.0876(2) 0.4524(7)
H5_3 H 0.949559 0.103852 0.514784
C6_3 C 0.8755(3) 0.09725(19) 0.4036(7)
H6_3 H 0.855072 0.121446 0.425959
C7_3 C 0.8013(2) 0.05946(18) 0.2564(6)
C8_3 C 0.7914(3) 0.0267(3) 0.1694(7)
H7_3 H 0.821264 0.008962 0.143151
C9_3 C 0.7371(2) 0.0196(3) 0.1191(8)
C10_3 C 0.6923(2) 0.04346(17) 0.1566(5)
C11_3 C 0.7019(3) 0.0757(2) 0.2443(11)
H9_3 H 0.671605 0.092873 0.271250
C12_3 C 0.7580(3) 0.0844(2) 0.2979(10)
H10_3 H 0.764405 0.106798 0.360236
C23_3 C 0.6026(2) 0.00385(14) 0.1964(5)
C24_3 C 0.63193(19) 0.03173(16) 0.1131(5)
Co3_3 Co 1.000000 -0.000000 0.500000
N14_2 N 0.44308(19) 0.04969(16) 0.1051(5)
Co1_4 Co 0.500000 -0.000000 1.000000
N5_3 N 0.55662(15) 0.04197(12) 0.9290(4)
C25_3 C 0.61001(19) 0.04993(15) 0.9880(5)
C26_3 C 0.6412(2) 0.07804(18) 0.8946(6)
H17_3 H 0.678132 0.088135 0.909620
C27_3 C 0.6076(2) 0.08676(18) 0.7837(6)
H18_3 H 0.616537 0.104325 0.706533
C28_3 C 0.55500(19) 0.06449(15) 0.8029(5)
N7_2 N 0.5165(2) 0.16139(14) 0.1874(5)
N10_3 N 0.45171(15) 0.01120(11) 0.8280(4)
C29_3 C 0.4774(3) 0.18982(16) 0.1489(6)
H22_3 H 0.448016 0.198984 0.209117
C31_2 C 0.5507(3) 0.1555(2) 0.0704(7)
H24_2 H 0.581151 0.136773 0.062509
H29_3 H 0.268966 0.002768 0.943789
C41_2 C 0.5175(2) 0.13779(15) 0.3209(5)
C42_2 C 0.5015(3) 0.15573(17) 0.4486(7)
H32_3 H 0.491126 0.183894 0.451179
C43_3 C 0.5007(3) 0.13245(18) 0.5732(6)
H33_3 H 0.490746 0.145229 0.660119
C44_3 C 0.51432(19) 0.09096(15) 0.5719(5)
C45_2 C 0.5313(2) 0.07345(16) 0.4427(5)
H34_2 H 0.542079 0.045365 0.440415
C46_2 C 0.5327(2) 0.09642(16) 0.3168(5)
H35_2 H 0.543753 0.083977 0.230223
C47_3 C 0.51076(19) 0.06394(15) 0.7041(5)
C48_3 C 0.46207(18) 0.03952(14) 0.7189(4)
C49_3 C 0.4133(2) 0.04023(16) 0.6215(5)
H36_3 H 0.410208 0.056062 0.537285
C50_3 C 0.3743(2) 0.01460(17) 0.6732(5)
H37_3 H 0.338503 0.009298 0.633347
Co1_5 Co 0.500000 1.000000 0.000000
N1_2 N 0.4835(2) 0.83861(14) 0.8126(5)
N4_3 N 0.54829(15) 0.98880(11) 0.1720(4)
C1_3 C 0.5226(3) 0.81018(16) 0.8511(6)
H1_3 H 0.551984 0.801016 0.790883
C3_2 C 0.4493(3) 0.8445(2) 0.9296(7)
H3_2 H 0.418849 0.863227 0.937491
H8_3 H 0.731034 0.997232 0.056211
C13_2 C 0.4825(2) 0.86221(15) 0.6791(5)
C14_2 C 0.4985(3) 0.84427(17) 0.5514(7)
H11_3 H 0.508874 0.816106 0.548821
C15_3 C 0.4993(3) 0.86755(18) 0.4268(6)
H12_3 H 0.509254 0.854771 0.339881
C16_3 C 0.48568(19) 0.90904(15) 0.4281(5)
C17_2 C 0.4687(2) 0.92655(16) 0.5573(5)
H13_2 H 0.457921 0.954635 0.559585
C18_2 C 0.4673(2) 0.90358(16) 0.6832(5)
H14_2 H 0.456247 0.916023 0.769777
C19_3 C 0.48924(19) 0.93606(15) 0.2959(5)
C20_3 C 0.53793(18) 0.96048(14) 0.2811(4)
C21_3 C 0.5867(2) 0.95977(16) 0.3785(5)
H15_3 H 0.589792 0.943938 0.462715
C22_3 C 0.6257(2) 0.98540(17) 0.3268(5)
H16_3 H 0.661497 0.990702 0.366653
O3_3 O 0.6252(4) 0.750000 0.9270(12)
H21_3 H 0.6463(5) 0.7296(3) 0.919(7)
N6_3 N 0.5149(3) 0.79681(14) 0.9825(5)
N11_3 N 0.44338(15) 0.95803(12) 0.0710(4)
C53_3 C 0.38999(19) 0.95007(15) 0.0120(5)
C54_3 C 0.3588(2) 0.92196(18) 0.1054(6)
H38_3 H 0.321868 0.911865 0.090380
C55_3 C 0.3924(2) 0.91324(18) 0.2163(6)
H39_3 H 0.383463 0.895675 0.293467
C56_3 C 0.44500(19) 0.93551(15) 0.1971(5)
H41_3 H 0.6463(5) 0.7704(3) 0.919(7)
Co3_4 Co 1.000000 1.000000 0.500000
Co1_6 Co 0.500000 1.000000 1.000000
N8_2 N 0.05692(19) 0.95031(16) 0.6051(5)
N9_3 N 0.14255(18) 0.93402(14) 0.6837(5)
C32_3 C 0.1001(2) 0.9615(2) 0.6840(6)
H25_3 H 0.101201 0.986437 0.735974
C33_3 C 0.0724(2) 0.9124(2) 0.5476(7)
H26_3 H 0.050441 0.896148 0.485216
C34_3 C 0.1245(3) 0.90275(19) 0.5964(7)
H27_3 H 0.144928 0.878554 0.574041
C35_3 C 0.1987(2) 0.94054(18) 0.7436(6)
C36_3 C 0.2086(3) 0.9733(3) 0.8306(7)
H28_3 H 0.178736 0.991038 0.856849
C37_3 C 0.2629(2) 0.9804(3) 0.8809(8)
C38_3 C 0.3077(2) 0.95654(17) 0.8434(5)
C39_3 C 0.2981(3) 0.9243(2) 0.7557(11)
H30_3 H 0.328395 0.907127 0.728750
C40_3 C 0.2420(3) 0.9156(2) 0.7021(10)
H31_3 H 0.235595 0.893202 0.639764
C51_3 C 0.3974(2) 0.99615(14) 0.8036(5)
C52_3 C 0.36807(19) 0.96827(16) 0.8869(5)
N13_2 N 0.55692(19) 0.95031(16) 0.8949(5)
C15_4 C 0.0007(3) 0.13245(18) 0.9268(6)
C16_4 C 0.01432(19) 0.09096(15) 0.9281(5)
C19_4 C 0.01076(19) 0.06394(15) 0.7959(5)
N9_4 N 0.35745(18) 0.06598(14) 0.1837(5)
N11_4 N 0.05662(15) 0.04197(12) 0.5710(4)
C32_4 C 0.3999(2) 0.0385(2) 0.1840(6)
H25_4 H 0.398799 0.013563 0.235974
C33_4 C 0.4276(2) 0.0876(2) 0.0476(7)
C34_4 C 0.3755(3) 0.09725(19) 0.0964(7)
H27_4 H 0.355072 0.121446 0.074041
C35_4 C 0.3013(2) 0.05946(18) 0.2436(6)
C36_4 C 0.2914(3) 0.0267(3) 0.3306(7)
H28_4 H 0.321264 0.008962 0.356849
C37_4 C 0.2371(2) 0.0196(3) 0.3809(8)
C38_4 C 0.1923(2) 0.04346(17) 0.3434(5)
C39_4 C 0.2019(3) 0.0757(2) 0.2557(11)
H30_4 H 0.171605 0.092873 0.228750
C40_4 C 0.2580(3) 0.0844(2) 0.2021(10)
H31_4 H 0.264405 0.106798 0.139764
C51_4 C 0.1026(2) 0.00385(14) 0.3036(5)
C52_4 C 0.13193(19) 0.03173(16) 0.3869(5)
C53_4 C 0.11001(19) 0.04993(15) 0.5120(5)
C54_4 C 0.1412(2) 0.07804(18) 0.6054(6)
H38_4 H 0.178132 0.088135 0.590380
C55_4 C 0.1076(2) 0.08676(18) 0.7163(6)
H39_4 H 0.116537 0.104325 0.793467
C56_4 C 0.05500(19) 0.06449(15) 0.6971(5)
H26_4 H 0.449559 0.103852 0.985216
N10_4 N 0.04829(15) 0.98880(11) 0.3280(4)
H29_4 H 0.231034 0.997232 0.443789
H33_4 H 0.009254 0.854771 0.160119
C48_4 C 0.03793(18) 0.96048(14) 0.2189(4)
C49_4 C 0.0867(2) 0.95977(16) 0.1215(5)
H36_4 H 0.089792 0.943938 0.037285
C50_4 C 0.1257(2) 0.98540(17) 0.1732(5)
H37_4 H 0.161497 0.990702 0.133347
C29_4 C 0.0226(3) 0.81018(16) 0.6489(6)
H22_4 H 0.051984 0.801016 0.709117
H32_4 H 0.008874 0.816106 0.951179
C1_4 C 0.9774(3) 0.18982(16) 0.3511(6)
H1_4 H 0.948016 0.198984 0.290883
H11_4 H 0.991126 0.183894 0.048821
O1_2 O 0.9929(3) 0.250000 0.7999(5)
H19_2 H 0.999275 0.274264 0.824695
O2_2 O 0.8849(4) 0.2986(3) 0.6948(8)
O3_4 O 0.8748(4) 0.250000 0.4270(12)
H21_4 H 0.8537(5) 0.2704(3) 0.419(7)
N6_4 N 0.9851(3) 0.20319(14) 0.4825(5)
H40_2 H 0.999275 0.225736 0.824695
H41_4 H 0.8537(5) 0.2296(3) 0.419(7)
O4_2 O 0.8849(4) 0.2014(3) 0.6948(8)
N4_4 N 0.95171(15) 0.01120(11) 0.6720(4)
H8_4 H 0.768966 0.002768 0.556211
H12_4 H 0.990746 0.145229 0.839881
C20_4 C 0.96207(18) 0.03952(14) 0.7811(4)
C21_4 C 0.9133(2) 0.04023(16) 0.8785(5)
H15_4 H 0.910208 0.056062 0.962715
C22_4 C 0.8743(2) 0.01460(17) 0.8268(5)
H16_4 H 0.838503 0.009298 0.866653
H5_4 H 0.550441 0.896148 0.014784
N3_4 N 0.64255(18) 0.93402(14) 0.8163(5)
N5_4 N 0.94338(15) 0.95803(12) 0.4290(4)
C4_4 C 0.6001(2) 0.9615(2) 0.8160(6)
H4_4 H 0.601201 0.986437 0.764026
C5_4 C 0.5724(2) 0.9124(2) 0.9524(7)
C6_4 C 0.6245(3) 0.90275(19) 0.9036(7)
H6_4 H 0.644928 0.878554 0.925959
C7_4 C 0.6987(2) 0.94054(18) 0.7564(6)
C8_4 C 0.7086(3) 0.9733(3) 0.6694(7)
H7_4 H 0.678736 0.991038 0.643151
C9_4 C 0.7629(2) 0.9804(3) 0.6191(8)
C10_4 C 0.8077(2) 0.95654(17) 0.6566(5)
C11_4 C 0.7981(3) 0.9243(2) 0.7443(11)
H9_4 H 0.828395 0.907127 0.771250
C12_4 C 0.7420(3) 0.9156(2) 0.7979(10)
H10_4 H 0.735595 0.893202 0.860236
C23_4 C 0.8974(2) 0.99615(14) 0.6964(5)
C24_4 C 0.86807(19) 0.96827(16) 0.6131(5)
C25_4 C 0.88999(19) 0.95007(15) 0.4880(5)
C26_4 C 0.8588(2) 0.92196(18) 0.3946(6)
H17_4 H 0.821868 0.911865 0.409620
C27_4 C 0.8924(2) 0.91324(18) 0.2837(6)
H18_4 H 0.883463 0.895675 0.206533
C28_4 C 0.94500(19) 0.93551(15) 0.3029(5)
C43_4 C 0.9993(3) 0.86755(18) 0.0732(6)
C44_4 C 0.98568(19) 0.90904(15) 0.0719(5)
C47_4 C 0.98924(19) 0.93606(15) 0.2041(5)
C30 C 0.4683(4) 0.6819(2) 0.0313(7)
H23 H 0.451864 0.685342 0.122287
Co5_2 Co 0.56093(8) 0.750000 0.09077(13)
C2 C 0.4683(4) 0.8181(2) 0.0313(7)
H2 H 0.451864 0.814658 0.122287
O1_3 O 0.5071(3) 0.750000 0.2999(5)
H19_3 H 0.500725 0.725736 0.324695
O2_3 O 0.6151(4) 0.7014(3) 0.1948(8)
H40_3 H 0.500725 0.774264 0.324695
O4_3 O 0.6151(4) 0.7986(3) 0.1948(8)
C2_2 C 0.5317(4) 0.3181(2) 0.9687(7)
H2_2 H 0.548136 0.314658 0.877713
Co2_2 Co 0.43907(8) 0.250000 0.90923(13)
O1_4 O 0.4929(3) 0.250000 0.7001(5)
H19_4 H 0.499275 0.225736 0.675305
O2_4 O 0.3849(4) 0.2014(3) 0.8052(8)
H40_4 H 0.499275 0.274264 0.675305
O4_4 O 0.3849(4) 0.2986(3) 0.8052(8)
C30_2 C 0.5317(4) 0.1819(2) 0.9687(7)
H23_2 H 0.548136 0.185342 0.877713
N7_3 N 0.0165(2) 0.33861(14) 0.3126(5)
C30_3 C 0.0317(4) 0.3181(2) 0.5313(7)
H23_3 H 0.048136 0.314658 0.622287
C31_3 C 0.0507(3) 0.3445(2) 0.4296(7)
H24_3 H 0.081151 0.363227 0.437491
C41_3 C 0.0175(2) 0.36221(15) 0.1791(5)
C42_3 C 0.0015(3) 0.34427(17) 0.0514(7)
C45_3 C 0.0313(2) 0.42655(16) 0.0573(5)
H34_3 H 0.042079 0.454635 0.059585
C46_3 C 0.0327(2) 0.40358(16) 0.1832(5)
H35_3 H 0.043753 0.416023 0.269777
N1_3 N 0.9835(2) 0.66139(14) 0.6874(5)
C2_3 C 0.9683(4) 0.6819(2) 0.4687(7)
H2_3 H 0.951864 0.685342 0.377713
C3_3 C 0.9493(3) 0.6555(2) 0.5704(7)
H3_3 H 0.918849 0.636773 0.562509
C13_3 C 0.9825(2) 0.63779(15) 0.8209(5)
C14_3 C 0.9985(3) 0.65573(17) 0.9486(7)
C17_3 C 0.9687(2) 0.57345(16) 0.9427(5)
H13_3 H 0.957921 0.545365 0.940415
C18_3 C 0.9673(2) 0.59642(16) 0.8168(5)
H14_3 H 0.956247 0.583977 0.730223
N1_4 N 0.0165(2) 0.16139(14) 0.3126(5)
C2_4 C 0.0317(4) 0.1819(2) 0.5313(7)
H2_4 H 0.048136 0.185342 0.622287
C3_4 C 0.0507(3) 0.1555(2) 0.4296(7)
H3_4 H 0.081151 0.136773 0.437491
C13_4 C 0.0175(2) 0.13779(15) 0.1791(5)
C14_4 C 0.0015(3) 0.15573(17) 0.0514(7)
C17_4 C 0.0313(2) 0.07345(16) 0.0573(5)
H13_4 H 0.042079 0.045365 0.059585
C18_4 C 0.0327(2) 0.09642(16) 0.1832(5)
H14_4 H 0.043753 0.083977 0.269777
N7_4 N 0.9835(2) 0.83861(14) 0.6874(5)
C30_4 C 0.9683(4) 0.8181(2) 0.4687(7)
H23_4 H 0.951864 0.814658 0.377713
C31_4 C 0.9493(3) 0.8445(2) 0.5704(7)
H24_4 H 0.918849 0.863227 0.562509
C41_4 C 0.9825(2) 0.86221(15) 0.8209(5)
C42_4 C 0.9985(3) 0.84427(17) 0.9486(7)
C45_4 C 0.9687(2) 0.92655(16) 0.9427(5)
H34_4 H 0.957921 0.954635 0.940415
C46_4 C 0.9673(2) 0.90358(16) 0.8168(5)
H35_4 H 0.956247 0.916023 0.730223
loop_
_geom_bond_atom_site_label_1
_geom_bond_atom_site_label_2
_geom_bond_site_symmetry_1
_geom_bond_site_symmetry_2
N5 Co1 1_555 1_555
C25 N5 1_555 1_555
C26 C25 1_555 1_555
H17 C26 1_555 1_555
C27 C26 1_555 1_555
H18 C27 1_555 1_555
C28 N5 1_555 1_555
N7 C29 1_555 1_555
N8 C32 1_555 1_555
N9 C32 1_555 1_555
N10 Co1 1_555 1_555
C29 H22 1_555 1_555
C31 N7 1_555 1_555
H24 C31 1_555 1_555
C32 H25 1_555 1_555
C33 N8 1_555 1_555
H26 C33 1_555 1_555
C34 N9 1_555 1_555
H27 C34 1_555 1_555
C35 N9 1_555 1_555
C36 C35 1_555 1_555
H28 C36 1_555 1_555
C37 C36 1_555 1_555
H29 C37 1_555 1_555
C38 C37 1_555 1_555
C39 C38 1_555 1_555
H30 C39 1_555 1_555
C40 C35 1_555 1_555
H31 C40 1_555 1_555
C41 N7 1_555 1_555
C42 C41 1_555 1_555
H32 C42 1_555 1_555
C43 C42 1_555 1_555
H33 C43 1_555 1_555
C44 C43 1_555 1_555
C45 C44 1_555 1_555
H34 C45 1_555 1_555
C46 C41 1_555 1_555
H35 C46 1_555 1_555
C47 C28 1_555 1_555
C48 N10 1_555 1_555
C49 C48 1_555 1_555
H36 C49 1_555 1_555
C50 C49 1_555 1_555
H37 C50 1_555 1_555
C51 N10 1_555 1_555
C52 C38 1_555 1_555
N12 C29 1_555 1_555
Co4_2 N8 1_555 1_555
N13 Co1 1_555 1_555
C27 C28 1_555 1_555
C33 C34 1_555 1_555
C39 C40 1_555 1_555
C44 C47 1_555 1_555
C45 C46 1_555 1_555
C47 C48 1_555 1_555
C50 C51 1_555 1_555
C51 C52 1_555 1_555
Co1_2 N4 1_555 1_555
N1 C1 1_555 1_555
N2 C4 1_555 1_555
N3 C4 1_555 1_555
N4 C20 1_555 1_555
C1 H1 1_555 1_555
C3 N1 1_555 1_555
H3 C3 1_555 1_555
C4 H4 1_555 1_555
C5 N2 1_555 1_555
H5 C5 1_555 1_555
C6 N3 1_555 1_555
H6 C6 1_555 1_555
C7 N3 1_555 1_555
C8 C7 1_555 1_555
H7 C8 1_555 1_555
C9 C8 1_555 1_555
H8 C9 1_555 1_555
C10 C9 1_555 1_555
C11 C10 1_555 1_555
H9 C11 1_555 1_555
C12 C7 1_555 1_555
H10 C12 1_555 1_555
C13 N1 1_555 1_555
C14 C13 1_555 1_555
H11 C14 1_555 1_555
C15 C14 1_555 1_555
H12 C15 1_555 1_555
C16 C15 1_555 1_555
C17 C16 1_555 1_555
H13 C17 1_555 1_555
C18 C13 1_555 1_555
H14 C18 1_555 1_555
C19 C16 1_555 1_555
C20 C19 1_555 1_555
C21 C20 1_555 1_555
H15 C21 1_555 1_555
C22 C21 1_555 1_555
H16 C22 1_555 1_555
C23 N4 1_555 1_555
C24 C10 1_555 1_555
H21 O3 1_555 1_555
N6 C1 1_555 1_555
N11 Co1_2 1_555 1_555
C53 N11 1_555 1_555
C54 C53 1_555 1_555
H38 C54 1_555 1_555
C55 C54 1_555 1_555
H39 C55 1_555 1_555
C56 C19 1_555 1_555
H41 O3 1_555 1_555
Co4 N2 1_555 1_555
N14 Co1_2 1_555 1_555
C5 C6 1_555 1_555
C11 C12 1_555 1_555
C17 C18 1_555 1_555
C22 C23 1_555 1_555
C23 C24 1_555 1_555
N11 C56 1_555 1_555
C55 C56 1_555 1_555
Co4 N4_2 1_555 1_555
N13 C4_2 1_555 1_555
N3_2 C4_2 1_555 1_555
N4_2 C20_2 1_555 1_555
N5_2 Co4 1_555 1_555
C4_2 H4_2 1_555 1_555
C5_2 N13 1_555 1_555
C6_2 N3_2 1_555 1_555
H6_2 C6_2 1_555 1_555
C7_2 N3_2 1_555 1_555
C8_2 C7_2 1_555 1_555
H7_2 C8_2 1_555 1_555
C9_2 C8_2 1_555 1_555
H8_2 C9_2 1_555 1_555
C10_2 C9_2 1_555 1_555
C11_2 C10_2 1_555 1_555
H9_2 C11_2 1_555 1_555
C12_2 C7_2 1_555 1_555
H10_2 C12_2 1_555 1_555
C21_2 C20_2 1_555 1_555
H15_2 C21_2 1_555 1_555
C22_2 C21_2 1_555 1_555
H16_2 C22_2 1_555 1_555
C23_2 N4_2 1_555 1_555
C24_2 C10_2 1_555 1_555
C25_2 N5_2 1_555 1_555
C26_2 C25_2 1_555 1_555
H17_2 C26_2 1_555 1_555
C27_2 C26_2 1_555 1_555
H18_2 C27_2 1_555 1_555
C28_2 N5_2 1_555 1_555
C44_2 C43_2 1_555 1_555
C47_2 C28_2 1_555 1_555
C5_2 C6_2 1_555 1_555
C11_2 C12_2 1_555 1_555
C22_2 C23_2 1_555 1_555
C23_2 C24_2 1_555 1_555
C24_2 C25_2 1_555 1_555
C27_2 C28_2 1_555 1_555
C44_2 C47_2 1_555 1_555
C1_2 H1_2 1_555 1_555
Co2 O1 1_555 1_555
O1 H19 1_555 1_555
O2 Co2 1_555 1_555
O3_2 Co2 1_555 1_555
H21_2 O3_2 1_555 1_555
N6_2 C1_2 1_555 1_555
H40 O1 1_555 1_555
H41_2 O3_2 1_555 1_555
O4 Co2 1_555 1_555
N15_2 Co2 1_555 1_555
Co2 N6_2 1_555 1_555
C29_2 H22_2 1_555 1_555
N12_2 C29_2 1_555 1_555
Co5 N12_2 1_555 1_555
C16_2 C15_2 1_555 1_555
C19_2 C16_2 1_555 1_555
N14 C32_2 1_555 1_555
N9_2 C32_2 1_555 1_555
N10_2 Co4_2 1_555 1_555
N11_2 Co4_2 1_555 1_555
C32_2 H25_2 1_555 1_555
C33_2 N14 1_555 1_555
C34_2 N9_2 1_555 1_555
H27_2 C34_2 1_555 1_555
C35_2 N9_2 1_555 1_555
C36_2 C35_2 1_555 1_555
H28_2 C36_2 1_555 1_555
C37_2 C36_2 1_555 1_555
H29_2 C37_2 1_555 1_555
C38_2 C37_2 1_555 1_555
C39_2 C38_2 1_555 1_555
H30_2 C39_2 1_555 1_555
C40_2 C35_2 1_555 1_555
H31_2 C40_2 1_555 1_555
C48_2 N10_2 1_555 1_555
C49_2 C48_2 1_555 1_555
H36_2 C49_2 1_555 1_555
C50_2 C49_2 1_555 1_555
H37_2 C50_2 1_555 1_555
C51_2 N10_2 1_555 1_555
C52_2 C38_2 1_555 1_555
C53_2 N11_2 1_555 1_555
C54_2 C53_2 1_555 1_555
H38_2 C54_2 1_555 1_555
C55_2 C54_2 1_555 1_555
H39_2 C55_2 1_555 1_555
C56_2 C19_2 1_555 1_555
N11_2 C56_2 1_555 1_555
C33_2 C34_2 1_555 1_555
C39_2 C40_2 1_555 1_555
C50_2 C51_2 1_555 1_555
C51_2 C52_2 1_555 1_555
C52_2 C53_2 1_555 1_555
C55_2 C56_2 1_555 1_555
N2_2 C4_3 1_555 1_555
N3_3 C4_3 1_555 1_555
C4_3 H4_3 1_555 1_555
C5_3 N2_2 1_555 1_555
H5_3 C5_3 1_555 1_555
C6_3 N3_3 1_555 1_555
H6_3 C6_3 1_555 1_555
C7_3 N3_3 1_555 1_555
C8_3 C7_3 1_555 1_555
H7_3 C8_3 1_555 1_555
C9_3 C8_3 1_555 1_555
C10_3 C9_3 1_555 1_555
C11_3 C10_3 1_555 1_555
H9_3 C11_3 1_555 1_555
C12_3 C7_3 1_555 1_555
H10_3 C12_3 1_555 1_555
C24_3 C10_3 1_555 1_555
Co3_3 N2_2 1_555 1_555
N14_2 Co1_3 1_555 1_555
C5_3 C6_3 1_555 1_555
C11_3 C12_3 1_555 1_555
C23_3 C24_3 1_555 1_555
N5_3 Co1_4 1_555 1_555
C25_3 N5_3 1_555 1_555
C26_3 C25_3 1_555 1_555
H17_3 C26_3 1_555 1_555
C27_3 C26_3 1_555 1_555
H18_3 C27_3 1_555 1_555
C28_3 N5_3 1_555 1_555
N7_2 C29_3 1_555 1_555
N10_3 Co1_4 1_555 1_555
C29_3 H22_3 1_555 1_555
C31_2 N7_2 1_555 1_555
H24_2 C31_2 1_555 1_555
C41_2 N7_2 1_555 1_555
C42_2 C41_2 1_555 1_555
H32_3 C42_2 1_555 1_555
C43_3 C42_2 1_555 1_555
H33_3 C43_3 1_555 1_555
C44_3 C43_3 1_555 1_555
C45_2 C44_3 1_555 1_555
H34_2 C45_2 1_555 1_555
C46_2 C41_2 1_555 1_555
H35_2 C46_2 1_555 1_555
C47_3 C28_3 1_555 1_555
C48_3 N10_3 1_555 1_555
C49_3 C48_3 1_555 1_555
H36_3 C49_3 1_555 1_555
C50_3 C49_3 1_555 1_555
H37_3 C50_3 1_555 1_555
N15 C29_3 1_555 1_555
C27_3 C28_3 1_555 1_555
C44_3 C47_3 1_555 1_555
C45_2 C46_2 1_555 1_555
C47_3 C48_3 1_555 1_555
Co1_5 N4_3 1_555 1_555
N1_2 C1_3 1_555 1_555
N4_3 C20_3 1_555 1_555
C1_3 H1_3 1_555 1_555
C3_2 N1_2 1_555 1_555
H3_2 C3_2 1_555 1_555
C13_2 N1_2 1_555 1_555
C14_2 C13_2 1_555 1_555
H11_3 C14_2 1_555 1_555
C15_3 C14_2 1_555 1_555
H12_3 C15_3 1_555 1_555
C16_3 C15_3 1_555 1_555
C17_2 C16_3 1_555 1_555
H13_2 C17_2 1_555 1_555
C18_2 C13_2 1_555 1_555
H14_2 C18_2 1_555 1_555
C19_3 C16_3 1_555 1_555
C20_3 C19_3 1_555 1_555
C21_3 C20_3 1_555 1_555
H15_3 C21_3 1_555 1_555
C22_3 C21_3 1_555 1_555
H16_3 C22_3 1_555 1_555
H21_3 O3_3 1_555 1_555
N6_3 C1_3 1_555 1_555
N11_3 Co1_5 1_555 1_555
C53_3 N11_3 1_555 1_555
C54_3 C53_3 1_555 1_555
H38_3 C54_3 1_555 1_555
C55_3 C54_3 1_555 1_555
H39_3 C55_3 1_555 1_555
C56_3 C19_3 1_555 1_555
H41_3 O3_3 1_555 1_555
C17_2 C18_2 1_555 1_555
N11_3 C56_3 1_555 1_555
C55_3 C56_3 1_555 1_555
N8_2 C32_3 1_555 1_555
N9_3 C32_3 1_555 1_555
C32_3 H25_3 1_555 1_555
C33_3 N8_2 1_555 1_555
H26_3 C33_3 1_555 1_555
C34_3 N9_3 1_555 1_555
H27_3 C34_3 1_555 1_555
C35_3 N9_3 1_555 1_555
C36_3 C35_3 1_555 1_555
H28_3 C36_3 1_555 1_555
C37_3 C36_3 1_555 1_555
C38_3 C37_3 1_555 1_555
C39_3 C38_3 1_555 1_555
H30_3 C39_3 1_555 1_555
C40_3 C35_3 1_555 1_555
H31_3 C40_3 1_555 1_555
C52_3 C38_3 1_555 1_555
Co3_2 N8_2 1_555 1_555
N13_2 Co1_6 1_555 1_555
C33_3 C34_3 1_555 1_555
C39_3 C40_3 1_555 1_555
C51_3 C52_3 1_555 1_555
C16_4 C15_4 1_555 1_555
C19_4 C16_4 1_555 1_555
N14_2 C32_4 1_555 1_555
N9_4 C32_4 1_555 1_555
N11_4 Co3 1_555 1_555
C32_4 H25_4 1_555 1_555
C33_4 N14_2 1_555 1_555
C34_4 N9_4 1_555 1_555
H27_4 C34_4 1_555 1_555
C35_4 N9_4 1_555 1_555
C36_4 C35_4 1_555 1_555
H28_4 C36_4 1_555 1_555
C37_4 C36_4 1_555 1_555
C38_4 C37_4 1_555 1_555
C39_4 C38_4 1_555 1_555
H30_4 C39_4 1_555 1_555
C40_4 C35_4 1_555 1_555
H31_4 C40_4 1_555 1_555
C52_4 C38_4 1_555 1_555
C53_4 N11_4 1_555 1_555
C54_4 C53_4 1_555 1_555
H38_4 C54_4 1_555 1_555
C55_4 C54_4 1_555 1_555
H39_4 C55_4 1_555 1_555
C56_4 C19_4 1_555 1_555
N11_4 C56_4 1_555 1_555
C33_4 C34_4 1_555 1_555
C39_4 C40_4 1_555 1_555
C51_4 C52_4 1_555 1_555
C52_4 C53_4 1_555 1_555
C55_4 C56_4 1_555 1_555
N10_4 Co3_2 1_555 1_555
C48_4 N10_4 1_555 1_555
C49_4 C48_4 1_555 1_555
H36_4 C49_4 1_555 1_555
C50_4 C49_4 1_555 1_555
H37_4 C50_4 1_555 1_555
C29_4 H22_4 1_555 1_555
N15_2 C29_4 1_555 1_555
C1_4 H1_4 1_555 1_555
Co5 O1_2 1_555 1_555
O1_2 H19_2 1_555 1_555
O2_2 Co5 1_555 1_555
O3_4 Co5 1_555 1_555
H21_4 O3_4 1_555 1_555
N6_4 C1_4 1_555 1_555
H40_2 O1_2 1_555 1_555
H41_4 O3_4 1_555 1_555
O4_2 Co5 1_555 1_555
Co5 N6_4 1_555 1_555
Co3_3 N4_4 1_555 1_555
N4_4 C20_4 1_555 1_555
C21_4 C20_4 1_555 1_555
H15_4 C21_4 1_555 1_555
C22_4 C21_4 1_555 1_555
H16_4 C22_4 1_555 1_555
N13_2 C4_4 1_555 1_555
N3_4 C4_4 1_555 1_555
N5_4 Co3_4 1_555 1_555
C4_4 H4_4 1_555 1_555
C5_4 N13_2 1_555 1_555
C6_4 N3_4 1_555 1_555
H6_4 C6_4 1_555 1_555
C7_4 N3_4 1_555 1_555
C8_4 C7_4 1_555 1_555
H7_4 C8_4 1_555 1_555
C9_4 C8_4 1_555 1_555
C10_4 C9_4 1_555 1_555
C11_4 C10_4 1_555 1_555
H9_4 C11_4 1_555 1_555
C12_4 C7_4 1_555 1_555
H10_4 C12_4 1_555 1_555
C24_4 C10_4 1_555 1_555
C25_4 N5_4 1_555 1_555
C26_4 C25_4 1_555 1_555
H17_4 C26_4 1_555 1_555
C27_4 C26_4 1_555 1_555
H18_4 C27_4 1_555 1_555
C28_4 N5_4 1_555 1_555
C44_4 C43_4 1_555 1_555
C47_4 C28_4 1_555 1_555
C5_4 C6_4 1_555 1_555
C11_4 C12_4 1_555 1_555
C23_4 C24_4 1_555 1_555
C24_4 C25_4 1_555 1_555
C27_4 C28_4 1_555 1_555
C44_4 C47_4 1_555 1_555
C30 H23 1_555 1_555
C2 H2 1_555 1_555
Co5_2 O1_3 1_555 1_555
O1_3 H19_3 1_555 1_555
O2_3 Co5_2 1_555 1_555
H40_3 O1_3 1_555 1_555
O4_3 Co5_2 1_555 1_555
C2_2 H2_2 1_555 1_555
Co2_2 O1_4 1_555 1_555
O1_4 H19_4 1_555 1_555
O2_4 Co2_2 1_555 1_555
H40_4 O1_4 1_555 1_555
O4_4 Co2_2 1_555 1_555
C30_2 H23_2 1_555 1_555
C30_3 H23_3 1_555 1_555
C31_3 N7_3 1_555 1_555
H24_3 C31_3 1_555 1_555
C41_3 N7_3 1_555 1_555
C42_3 C41_3 1_555 1_555
H34_3 C45_3 1_555 1_555
C46_3 C41_3 1_555 1_555
H35_3 C46_3 1_555 1_555
C30_3 C31_3 1_555 1_555
C45_3 C46_3 1_555 1_555
C2_3 H2_3 1_555 1_555
C3_3 N1_3 1_555 1_555
H3_3 C3_3 1_555 1_555
C13_3 N1_3 1_555 1_555
C14_3 C13_3 1_555 1_555
H13_3 C17_3 1_555 1_555
C18_3 C13_3 1_555 1_555
H14_3 C18_3 1_555 1_555
C2_3 C3_3 1_555 1_555
C17_3 C18_3 1_555 1_555
C2_4 H2_4 1_555 1_555
C3_4 N1_4 1_555 1_555
H3_4 C3_4 1_555 1_555
C13_4 N1_4 1_555 1_555
C14_4 C13_4 1_555 1_555
H13_4 C17_4 1_555 1_555
C18_4 C13_4 1_555 1_555
H14_4 C18_4 1_555 1_555
C2_4 C3_4 1_555 1_555
C17_4 C18_4 1_555 1_555
C30_4 H23_4 1_555 1_555
C31_4 N7_4 1_555 1_555
H24_4 C31_4 1_555 1_555
C41_4 N7_4 1_555 1_555
C42_4 C41_4 1_555 1_555
H34_4 C45_4 1_555 1_555
C46_4 C41_4 1_555 1_555
H35_4 C46_4 1_555 1_555
C30_4 C31_4 1_555 1_555
C45_4 C46_4 1_555 1_555

#END
