
###############################################################################
#
# This file contains modified crystal structure data generated from the
# MOF subset of the Cambridge Structural Database (CSD) v543 
# hosted by the Cambridge Crystallographic Data Centre (CCDC).
#
# This work is licensed under the Creative Commons
# Attribution-NonCommercial-ShareAlike 4.0 International License.
# To view a copy of this license, visit
# http://creativecommons.org/licenses/by-nc-sa/4.0/
# or send a letter to
# Creative Commons, PO Box 1866, Mountain View, CA 94042, USA.
#
# CIF created using the CSD Python API on 29 September 2022
# The structure has been converted into the P1 space group
# The structure has a 3D framework
# The original CSD entry NULMAJ is in the orthorhombic crystal system
# The framework has been calculated to contain at least 10.0% void space
# The void calculation uses a probe of radius 1.32A, grid spacing 0.4
#
###############################################################################

data_NULMAJ
_chemical_formula_moiety         '(C256 H448 Mo8 N128 Ni31)n'
_symmetry_cell_setting           triclinic
_symmetry_space_group_name_H-M   'P 1'
_symmetry_Int_Tables_number      1
_space_group_name_Hall           'P 1'
loop_
_symmetry_equiv_pos_site_id
_symmetry_equiv_pos_as_xyz
1 x,y,z
_cell_length_a                   28.569(10)
_cell_length_b                   27.219(10)
_cell_length_c                   16.819(6)
_cell_angle_alpha                90
_cell_angle_beta                 90
_cell_angle_gamma                90
_cell_volume                     13078.8
loop_
_atom_site_label
_atom_site_type_symbol
_atom_site_fract_x
_atom_site_fract_y
_atom_site_fract_z
H8 H 0.0041 0.3874 0.0811
H9 H 0.0177 0.3432 0.0265
N4 N 0.01914(10) 0.30989(11) 0.17701(17)
H13 H 0.0449 0.3020 0.1491
H14 H 0.0261 0.3360 0.2078
Ni1 Ni -0.0000 0.2500 0.2500
C15 C 0.04447(12) 0.22193(14) 0.4014(2)
C17 C 0.04447(12) 0.52807(14) 0.3486(2)
H15 H 0.0220 0.2401 0.4342
H17 H 0.0220 0.5099 0.3158
C18 C 0.08438(11) 0.21284(12) 0.45653(18)
C20 C 0.08438(11) 0.53716(12) 0.29347(18)
H18 H 0.0938 0.2437 0.4804
H20 H 0.0938 0.5063 0.2696
H21 H 0.1107 0.2003 0.4263
H23 H 0.1107 0.5497 0.3237
C21 C 0.07206(12) 0.17571(14) 0.5235(2)
C23 C 0.07206(12) 0.57429(14) 0.2265(2)
H24 H 0.1009 0.1660 0.5496
H26 H 0.1009 0.5840 0.2004
H27 H 0.0529 0.1924 0.5626
H29 H 0.0529 0.5576 0.1874
C24 C 0.04680(13) 0.13014(14) 0.4974(2)
C26 C 0.04680(13) 0.61986(14) 0.2526(2)
H30 H 0.0685 0.1083 0.4708
H32 H 0.0685 0.6417 0.2792
H33 H 0.0344 0.1132 0.5436
H35 H 0.0344 0.6368 0.2064
C27 C 0.00754(11) 0.14289(13) 0.4421(2)
C29 C 0.00754(11) 0.60711(13) 0.3079(2)
H37 H 0.0041 0.3626 0.6689
H40 H 0.0177 0.4068 0.7235
C30 C 0.01798(13) 0.17705(14) 0.3773(2)
C32 C 0.01798(13) 0.57295(14) 0.3727(2)
H42 H 0.0402 0.1589 0.3440
H44 H 0.0402 0.5911 0.4060
N8 N 0.04308(8) 0.20131(9) 0.18400(13)
N9 N 0.04308(8) 0.54869(9) 0.56600(13)
N13 N 0.05384(9) 0.25576(10) 0.33438(16)
N15 N 0.05384(9) 0.49424(10) 0.41562(16)
H45 H 0.0814 0.2481 0.3117
H47 H 0.0814 0.5019 0.4383
H48 H 0.0555 0.2868 0.3524
H50 H 0.0555 0.4632 0.3976
N17 N 0.01914(10) 0.44011(11) 0.57299(17)
H52 H 0.0449 0.4480 0.6009
H55 H 0.0261 0.4140 0.5422
Ni2 Ni -0.0000 0.5000 0.5000
C1 C 0.92886(8) 0.32532(9) 0.33825(15)
C2 C 0.90400(10) 0.33790(11) 0.47842(16)
C3 C 0.95553(12) 0.27807(14) 0.0986(2)
H1 H 0.9780 0.2599 0.0658
C4 C 0.91562(11) 0.28716(12) 0.04347(18)
H2 H 0.9062 0.2563 0.0196
H3 H 0.8893 0.2997 0.0737
C6 C 0.95320(13) 0.36986(14) 0.0026(2)
H6 H 0.9315 0.3917 0.0292
C7 C 0.99246(11) 0.35711(13) 0.0579(2)
C8 C 0.98202(13) 0.32295(14) 0.1227(2)
H10 H 0.9598 0.3411 0.1560
Mo1 Mo 0.8750 0.3750 0.3750
N1 N 0.95692(8) 0.29869(9) 0.31600(13)
N2 N 0.91934(8) 0.31665(9) 0.52839(14)
N3 N 0.94616(9) 0.24424(10) 0.16562(16)
H11 H 0.9186 0.2519 0.1883
H12 H 0.9445 0.2132 0.1476
Ni1_2 Ni 1.0000 0.2500 0.2500
C9 C 0.92886(8) 0.42468(9) 0.41175(15)
C10 C 0.82114(8) 0.32532(9) 0.41175(15)
C11 C 0.82114(8) 0.42468(9) 0.33825(15)
C12 C 0.90400(10) 0.41210(11) 0.27158(16)
C13 C 0.84600(10) 0.33790(11) 0.27158(16)
C14 C 0.84600(10) 0.41210(11) 0.47842(16)
C16 C 0.95553(12) 0.47193(14) 0.6514(2)
H16 H 0.9780 0.4901 0.6842
C19 C 0.91562(11) 0.46284(12) 0.70653(18)
H19 H 0.9062 0.4937 0.7304
H22 H 0.8893 0.4503 0.6763
C22 C 0.92794(12) 0.42571(14) 0.7735(2)
H25 H 0.8991 0.4160 0.7996
H28 H 0.9471 0.4424 0.8126
C25 C 0.95320(13) 0.38014(14) 0.7474(2)
H31 H 0.9315 0.3583 0.7208
H34 H 0.9656 0.3632 0.7936
C28 C 0.99246(11) 0.39289(13) 0.6921(2)
H36 H 0.9959 0.1126 0.4189
H38 H 0.9959 0.6374 0.3311
H39 H 0.9823 0.1568 0.4735
H41 H 0.9823 0.5932 0.2765
C31 C 0.98202(13) 0.42705(14) 0.6273(2)
H43 H 0.9598 0.4089 0.5940
N5 N 0.95692(8) 0.45131(9) 0.43400(13)
N6 N 0.79308(8) 0.29869(9) 0.43400(13)
N7 N 0.79308(8) 0.45131(9) 0.31600(13)
N10 N 0.91934(8) 0.43335(9) 0.22161(14)
N11 N 0.83066(8) 0.31665(9) 0.22161(14)
N12 N 0.83066(8) 0.43335(9) 0.52839(14)
N14 N 0.94616(9) 0.50576(10) 0.58438(16)
H46 H 0.9186 0.4981 0.5617
H49 H 0.9445 0.5368 0.6024
N16 N 0.98086(10) 0.19011(11) 0.32299(17)
N18 N 0.98086(10) 0.55989(11) 0.42701(17)
H51 H 0.9551 0.1980 0.3509
H53 H 0.9551 0.5520 0.3991
H54 H 0.9739 0.1640 0.2922
H56 H 0.9739 0.5860 0.4578
Ni2_2 Ni 1.0000 0.5000 0.5000
Ni3 Ni 0.7500 0.2500 0.5000
Ni4 Ni 0.7500 0.5000 0.2500
C5 C 0.92794(12) 0.32429(14) 0.9765(2)
H4 H 0.8991 0.3340 0.9504
H5 H 0.9471 0.3076 0.9374
H7 H 0.9656 0.3868 0.9564
N3_2 N 0.30384(9) 0.00576(10) 0.16562(16)
H12_2 H 0.3055 0.0368 0.1476
Ni1_3 Ni 0.2500 -0.0000 0.2500
C15_2 C 0.20553(12) 0.02807(14) 0.4014(2)
H15_2 H 0.2280 0.0099 0.4342
C18_2 C 0.16562(11) 0.03716(12) 0.45653(18)
H18_2 H 0.1562 0.0063 0.4804
H21_2 H 0.1393 0.0497 0.4263
C21_2 C 0.17794(12) 0.07429(14) 0.5235(2)
H24_2 H 0.1491 0.0840 0.5496
H27_2 H 0.1971 0.0576 0.5626
C24_2 C 0.20320(13) 0.11986(14) 0.4974(2)
H30_2 H 0.1815 0.1417 0.4708
H33_2 H 0.2156 0.1368 0.5436
C27_2 C 0.24246(11) 0.10711(13) 0.4421(2)
H36_2 H 0.2541 0.1374 0.4189
H39_2 H 0.2677 0.0932 0.4735
C30_2 C 0.23202(13) 0.07295(14) 0.3773(2)
H42_2 H 0.2098 0.0911 0.3440
N8_2 N 0.20692(8) 0.04869(9) 0.18400(13)
H45_2 H 0.1686 0.0019 0.3117
N16_2 N 0.26914(10) 0.05989(11) 0.32299(17)
H51_2 H 0.2949 0.0520 0.3509
H54_2 H 0.2761 0.0860 0.2922
Ni3_2 Ni 0.5000 -0.0000 0.5000
C1_2 C 0.32114(8) 0.92468(9) 0.33825(15)
C2_2 C 0.34600(10) 0.91210(11) 0.47842(16)
C3_2 C 0.29447(12) 0.97193(14) 0.0986(2)
H1_2 H 0.2720 0.9901 0.0658
C4_2 C 0.33438(11) 0.96284(12) 0.04347(18)
H2_2 H 0.3438 0.9937 0.0196
H3_2 H 0.3607 0.9503 0.0737
C6_2 C 0.29680(13) 0.88014(14) 0.0026(2)
H6_2 H 0.3185 0.8583 0.0292
C7_2 C 0.25754(11) 0.89289(13) 0.0579(2)
H8_2 H 0.2459 0.8626 0.0811
H9_2 H 0.2323 0.9068 0.0265
C8_2 C 0.26798(13) 0.92705(14) 0.1227(2)
H10_2 H 0.2902 0.9089 0.1560
Mo1_2 Mo 0.3750 0.8750 0.3750
N1_2 N 0.29308(8) 0.95131(9) 0.31600(13)
N2_2 N 0.33066(8) 0.93335(9) 0.52839(14)
H11_2 H 0.3314 0.9981 0.1883
N4_2 N 0.23086(10) 0.94011(11) 0.17701(17)
H13_2 H 0.2051 0.9480 0.1491
H14_2 H 0.2239 0.9140 0.2078
Ni1_4 Ni 0.2500 1.0000 0.2500
C9_2 C 0.32114(8) 0.82532(9) 0.41175(15)
C10_2 C 0.42886(8) 0.92468(9) 0.41175(15)
C11_2 C 0.42886(8) 0.82532(9) 0.33825(15)
C12_2 C 0.34600(10) 0.83790(11) 0.27158(16)
C13_2 C 0.40400(10) 0.91210(11) 0.27158(16)
C14_2 C 0.40400(10) 0.83790(11) 0.47842(16)
C16_2 C 0.29447(12) 0.77807(14) 0.6514(2)
C17_2 C 0.20553(12) 0.72193(14) 0.3486(2)
H16_2 H 0.2720 0.7599 0.6842
H17_2 H 0.2280 0.7401 0.3158
C19_2 C 0.33438(11) 0.78716(12) 0.70653(18)
C20_2 C 0.16562(11) 0.71284(12) 0.29347(18)
H19_2 H 0.3438 0.7563 0.7304
H20_2 H 0.1562 0.7437 0.2696
H22_2 H 0.3607 0.7997 0.6763
H23_2 H 0.1393 0.7003 0.3237
C22_2 C 0.32206(12) 0.82429(14) 0.7735(2)
C23_2 C 0.17794(12) 0.67571(14) 0.2265(2)
H25_2 H 0.3509 0.8340 0.7996
H26_2 H 0.1491 0.6660 0.2004
H28_2 H 0.3029 0.8076 0.8126
H29_2 H 0.1971 0.6924 0.1874
C25_2 C 0.29680(13) 0.86986(14) 0.7474(2)
C26_2 C 0.20320(13) 0.63014(14) 0.2526(2)
H31_2 H 0.3185 0.8917 0.7208
H32_2 H 0.1815 0.6083 0.2792
H34_2 H 0.2844 0.8868 0.7936
H35_2 H 0.2156 0.6132 0.2064
C28_2 C 0.25754(11) 0.85711(13) 0.6921(2)
C29_2 C 0.24246(11) 0.64289(13) 0.3079(2)
H37_2 H 0.2459 0.8874 0.6689
H38_2 H 0.2541 0.6126 0.3311
H40_2 H 0.2323 0.8432 0.7235
H41_2 H 0.2677 0.6568 0.2765
C31_2 C 0.26798(13) 0.82295(14) 0.6273(2)
C32_2 C 0.23202(13) 0.67705(14) 0.3727(2)
H43_2 H 0.2902 0.8411 0.5940
H44_2 H 0.2098 0.6589 0.4060
N5_2 N 0.29308(8) 0.79869(9) 0.43400(13)
N6_2 N 0.45692(8) 0.95131(9) 0.43400(13)
N7_2 N 0.45692(8) 0.79869(9) 0.31600(13)
N9_2 N 0.20692(8) 0.70131(9) 0.56600(13)
N10_2 N 0.33066(8) 0.81665(9) 0.22161(14)
N11_2 N 0.41934(8) 0.93335(9) 0.22161(14)
N12_2 N 0.41934(8) 0.81665(9) 0.52839(14)
N13_2 N 0.19616(9) 0.99424(10) 0.33438(16)
N14_2 N 0.30384(9) 0.74424(10) 0.58438(16)
N15_2 N 0.19616(9) 0.75576(10) 0.41562(16)
H46_2 H 0.3314 0.7519 0.5617
H47_2 H 0.1686 0.7481 0.4383
H48_2 H 0.1945 0.9632 0.3524
H49_2 H 0.3055 0.7132 0.6024
H50_2 H 0.1945 0.7868 0.3976
N17_2 N 0.23086(10) 0.80989(11) 0.57299(17)
N18_2 N 0.26914(10) 0.69011(11) 0.42701(17)
H52_2 H 0.2051 0.8020 0.6009
H53_2 H 0.2949 0.6980 0.3991
H55_2 H 0.2239 0.8360 0.5422
H56_2 H 0.2761 0.6640 0.4578
Ni2_3 Ni 0.2500 0.7500 0.5000
Ni3_3 Ni 0.5000 1.0000 0.5000
Ni4_2 Ni 0.5000 0.7500 0.2500
C5_2 C 0.32206(12) 0.92571(14) 0.9765(2)
H4_2 H 0.3509 0.9160 0.9504
H5_2 H 0.3029 0.9424 0.9374
H7_2 H 0.2844 0.8632 0.9564
Ni1_5 Ni 0.0000 -0.0000 0.0000
N8_3 N 0.04308(8) 0.04869(9) 0.06600(13)
Ni1_6 Ni 0.0000 -0.0000 1.0000
C15_3 C 0.04447(12) 0.02807(14) 0.8486(2)
H15_3 H 0.0220 0.0099 0.8158
C18_3 C 0.08438(11) 0.03716(12) 0.79347(18)
H18_3 H 0.0938 0.0063 0.7696
H21_3 H 0.1107 0.0497 0.8237
C21_3 C 0.07206(12) 0.07429(14) 0.7265(2)
H24_3 H 0.1009 0.0840 0.7004
H27_3 H 0.0529 0.0576 0.6874
C24_3 C 0.04680(13) 0.11986(14) 0.7526(2)
H30_3 H 0.0685 0.1417 0.7792
H33_3 H 0.0344 0.1368 0.7064
C27_3 C 0.00754(11) 0.10711(13) 0.8079(2)
C30_3 C 0.01798(13) 0.07295(14) 0.8727(2)
H42_3 H 0.0402 0.0911 0.9060
H45_3 H 0.0814 0.0019 0.9383
H8_3 H 0.0041 0.8626 0.1689
H9_3 H 0.0177 0.9068 0.2235
N4_3 N 0.01914(10) 0.94011(11) 0.07299(17)
H13_3 H 0.0449 0.9480 0.1009
H14_3 H 0.0261 0.9140 0.0422
Ni1_7 Ni -0.0000 1.0000 0.0000
C23_3 C 0.07206(12) 0.67571(14) 0.0235(2)
H26_3 H 0.1009 0.6660 0.0496
H29_3 H 0.0529 0.6924 0.0626
H35_3 H 0.0344 0.6132 0.0436
Ni1_8 Ni 0.0000 1.0000 1.0000
C17_3 C 0.04447(12) 0.72193(14) 0.9014(2)
H17_3 H 0.0220 0.7401 0.9342
C20_3 C 0.08438(11) 0.71284(12) 0.95653(18)
H20_3 H 0.0938 0.7437 0.9804
H23_3 H 0.1107 0.7003 0.9263
C26_3 C 0.04680(13) 0.63014(14) 0.9974(2)
H32_3 H 0.0685 0.6083 0.9708
C29_3 C 0.00754(11) 0.64289(13) 0.9421(2)
H37_3 H 0.0041 0.8874 0.5811
H40_3 H 0.0177 0.8432 0.5265
C32_3 C 0.01798(13) 0.67705(14) 0.8773(2)
H44_3 H 0.0402 0.6589 0.8440
N9_3 N 0.04308(8) 0.70131(9) 0.68400(13)
N13_3 N 0.05384(9) 0.99424(10) 0.91562(16)
N15_3 N 0.05384(9) 0.75576(10) 0.83438(16)
H47_3 H 0.0814 0.7481 0.8117
H48_3 H 0.0555 0.9632 0.8976
H50_3 H 0.0555 0.7868 0.8524
N17_3 N 0.01914(10) 0.80989(11) 0.67701(17)
H52_3 H 0.0449 0.8020 0.6491
H55_3 H 0.0261 0.8360 0.7078
Ni2_4 Ni -0.0000 0.7500 0.7500
N3_3 N 0.94616(9) 0.00576(10) 0.08438(16)
H12_3 H 0.9445 0.0368 0.1024
Ni1_9 Ni 1.0000 -0.0000 0.0000
Ni1_10 Ni 1.0000 -0.0000 1.0000
H36_3 H 0.9959 0.1374 0.8311
H39_3 H 0.9823 0.0932 0.7765
N16_3 N 0.98086(10) 0.05989(11) 0.92701(17)
H51_3 H 0.9551 0.0520 0.8991
H54_3 H 0.9739 0.0860 0.9578
Ni3_4 Ni 0.7500 -0.0000 0.7500
C3_3 C 0.95553(12) 0.97193(14) 0.1514(2)
H1_3 H 0.9780 0.9901 0.1842
C4_3 C 0.91562(11) 0.96284(12) 0.20653(18)
H2_3 H 0.9062 0.9937 0.2304
H3_3 H 0.8893 0.9503 0.1763
C5_3 C 0.92794(12) 0.92571(14) 0.2735(2)
H4_3 H 0.8991 0.9160 0.2996
H5_3 H 0.9471 0.9424 0.3126
C6_3 C 0.95320(13) 0.88014(14) 0.2474(2)
H6_3 H 0.9315 0.8583 0.2208
H7_3 H 0.9656 0.8632 0.2936
C7_3 C 0.99246(11) 0.89289(13) 0.1921(2)
C8_3 C 0.98202(13) 0.92705(14) 0.1273(2)
H10_3 H 0.9598 0.9089 0.0940
H11_3 H 0.9186 0.9981 0.0617
Ni1_11 Ni 1.0000 1.0000 0.0000
N10_3 N 0.91934(8) 0.81665(9) 0.02839(14)
N11_3 N 0.83066(8) 0.93335(9) 0.02839(14)
Ni4_3 Ni 0.7500 0.7500 0.0000
C1_3 C 0.92886(8) 0.92468(9) 0.91175(15)
C2_3 C 0.90400(10) 0.91210(11) 0.77158(16)
Mo1_3 Mo 0.8750 0.8750 0.8750
N1_3 N 0.95692(8) 0.95131(9) 0.93400(13)
N2_3 N 0.91934(8) 0.93335(9) 0.72161(14)
Ni1_12 Ni 1.0000 1.0000 1.0000
C9_3 C 0.92886(8) 0.82532(9) 0.83825(15)
C10_3 C 0.82114(8) 0.92468(9) 0.83825(15)
C11_3 C 0.82114(8) 0.82532(9) 0.91175(15)
C12_3 C 0.90400(10) 0.83790(11) 0.97842(16)
C13_3 C 0.84600(10) 0.91210(11) 0.97842(16)
C14_3 C 0.84600(10) 0.83790(11) 0.77158(16)
C16_3 C 0.95553(12) 0.77807(14) 0.5986(2)
H16_3 H 0.9780 0.7599 0.5658
C19_3 C 0.91562(11) 0.78716(12) 0.54347(18)
H19_3 H 0.9062 0.7563 0.5196
H22_3 H 0.8893 0.7997 0.5737
C22_3 C 0.92794(12) 0.82429(14) 0.4765(2)
H25_3 H 0.8991 0.8340 0.4504
H28_3 H 0.9471 0.8076 0.4374
C25_3 C 0.95320(13) 0.86986(14) 0.5026(2)
H31_3 H 0.9315 0.8917 0.5292
H34_3 H 0.9656 0.8868 0.4564
C28_3 C 0.99246(11) 0.85711(13) 0.5579(2)
H38_3 H 0.9959 0.6126 0.9189
H41_3 H 0.9823 0.6568 0.9735
C31_3 C 0.98202(13) 0.82295(14) 0.6227(2)
H43_3 H 0.9598 0.8411 0.6560
N5_3 N 0.95692(8) 0.79869(9) 0.81600(13)
N6_3 N 0.79308(8) 0.95131(9) 0.81600(13)
N7_3 N 0.79308(8) 0.79869(9) 0.93400(13)
N12_3 N 0.83066(8) 0.81665(9) 0.72161(14)
N14_3 N 0.94616(9) 0.74424(10) 0.66562(16)
H46_3 H 0.9186 0.7519 0.6883
H49_3 H 0.9445 0.7132 0.6476
N18_3 N 0.98086(10) 0.69011(11) 0.82299(17)
H53_3 H 0.9551 0.6980 0.8509
H56_3 H 0.9739 0.6640 0.7922
Ni2_5 Ni 1.0000 0.7500 0.7500
Ni3_5 Ni 0.7500 1.0000 0.7500
Ni4_4 Ni 0.7500 0.7500 1.0000
C3_4 C 0.29447(12) 0.27807(14) 0.1514(2)
H1_4 H 0.2720 0.2599 0.1842
C4_4 C 0.33438(11) 0.28716(12) 0.20653(18)
H2_4 H 0.3438 0.2563 0.2304
H3_4 H 0.3607 0.2997 0.1763
C5_4 C 0.32206(12) 0.32429(14) 0.2735(2)
H4_4 H 0.3509 0.3340 0.2996
H5_4 H 0.3029 0.3076 0.3126
C6_4 C 0.29680(13) 0.36986(14) 0.2474(2)
H6_4 H 0.3185 0.3917 0.2208
H7_4 H 0.2844 0.3868 0.2936
C7_4 C 0.25754(11) 0.35711(13) 0.1921(2)
H8_4 H 0.2459 0.3874 0.1689
H9_4 H 0.2323 0.3432 0.2235
C8_4 C 0.26798(13) 0.32295(14) 0.1273(2)
H10_4 H 0.2902 0.3411 0.0940
N3_4 N 0.30384(9) 0.24424(10) 0.08438(16)
H11_4 H 0.3314 0.2519 0.0617
H12_4 H 0.3055 0.2132 0.1024
N4_4 N 0.23086(10) 0.30989(11) 0.07299(17)
H13_4 H 0.2051 0.3020 0.1009
H14_4 H 0.2239 0.3360 0.0422
Ni1_13 Ni 0.2500 0.2500 0.0000
C23_4 C 0.17794(12) 0.57429(14) 0.0235(2)
H26_4 H 0.1491 0.5840 0.0496
H29_4 H 0.1971 0.5576 0.0626
H35_4 H 0.2156 0.6368 0.0436
N8_4 N 0.20692(8) 0.20131(9) 0.06600(13)
N10_4 N 0.33066(8) 0.43335(9) 0.02839(14)
N11_4 N 0.41934(8) 0.31665(9) 0.02839(14)
Ni4_5 Ni 0.5000 0.5000 0.0000
C1_4 C 0.32114(8) 0.32532(9) 0.91175(15)
C2_4 C 0.34600(10) 0.33790(11) 0.77158(16)
Mo1_4 Mo 0.3750 0.3750 0.8750
N1_4 N 0.29308(8) 0.29869(9) 0.93400(13)
N2_4 N 0.33066(8) 0.31665(9) 0.72161(14)
Ni1_14 Ni 0.2500 0.2500 1.0000
C9_4 C 0.32114(8) 0.42468(9) 0.83825(15)
C10_4 C 0.42886(8) 0.32532(9) 0.83825(15)
C11_4 C 0.42886(8) 0.42468(9) 0.91175(15)
C12_4 C 0.34600(10) 0.41210(11) 0.97842(16)
C13_4 C 0.40400(10) 0.33790(11) 0.97842(16)
C14_4 C 0.40400(10) 0.41210(11) 0.77158(16)
C15_4 C 0.20553(12) 0.22193(14) 0.8486(2)
C16_4 C 0.29447(12) 0.47193(14) 0.5986(2)
C17_4 C 0.20553(12) 0.52807(14) 0.9014(2)
H15_4 H 0.2280 0.2401 0.8158
H16_4 H 0.2720 0.4901 0.5658
H17_4 H 0.2280 0.5099 0.9342
C18_4 C 0.16562(11) 0.21284(12) 0.79347(18)
C19_4 C 0.33438(11) 0.46284(12) 0.54347(18)
C20_4 C 0.16562(11) 0.53716(12) 0.95653(18)
H18_4 H 0.1562 0.2437 0.7696
H19_4 H 0.3438 0.4937 0.5196
H20_4 H 0.1562 0.5063 0.9804
H21_4 H 0.1393 0.2003 0.8237
H22_4 H 0.3607 0.4503 0.5737
H23_4 H 0.1393 0.5497 0.9263
C21_4 C 0.17794(12) 0.17571(14) 0.7265(2)
C22_4 C 0.32206(12) 0.42571(14) 0.4765(2)
H24_4 H 0.1491 0.1660 0.7004
H25_4 H 0.3509 0.4160 0.4504
H27_4 H 0.1971 0.1924 0.6874
H28_4 H 0.3029 0.4424 0.4374
C24_4 C 0.20320(13) 0.13014(14) 0.7526(2)
C25_4 C 0.29680(13) 0.38014(14) 0.5026(2)
C26_4 C 0.20320(13) 0.61986(14) 0.9974(2)
H30_4 H 0.1815 0.1083 0.7792
H31_4 H 0.3185 0.3583 0.5292
H32_4 H 0.1815 0.6417 0.9708
H33_4 H 0.2156 0.1132 0.7064
H34_4 H 0.2844 0.3632 0.4564
C27_4 C 0.24246(11) 0.14289(13) 0.8079(2)
C28_4 C 0.25754(11) 0.39289(13) 0.5579(2)
C29_4 C 0.24246(11) 0.60711(13) 0.9421(2)
H36_4 H 0.2541 0.1126 0.8311
H37_4 H 0.2459 0.3626 0.5811
H38_4 H 0.2541 0.6374 0.9189
H39_4 H 0.2677 0.1568 0.7765
H40_4 H 0.2323 0.4068 0.5265
H41_4 H 0.2677 0.5932 0.9735
C30_4 C 0.23202(13) 0.17705(14) 0.8727(2)
C31_4 C 0.26798(13) 0.42705(14) 0.6227(2)
C32_4 C 0.23202(13) 0.57295(14) 0.8773(2)
H42_4 H 0.2098 0.1589 0.9060
H43_4 H 0.2902 0.4089 0.6560
H44_4 H 0.2098 0.5911 0.8440
N5_4 N 0.29308(8) 0.45131(9) 0.81600(13)
N6_4 N 0.45692(8) 0.29869(9) 0.81600(13)
N7_4 N 0.45692(8) 0.45131(9) 0.93400(13)
N9_4 N 0.20692(8) 0.54869(9) 0.68400(13)
N12_4 N 0.41934(8) 0.43335(9) 0.72161(14)
N13_4 N 0.19616(9) 0.25576(10) 0.91562(16)
N14_4 N 0.30384(9) 0.50576(10) 0.66562(16)
N15_4 N 0.19616(9) 0.49424(10) 0.83438(16)
H45_4 H 0.1686 0.2481 0.9383
H46_4 H 0.3314 0.4981 0.6883
H47_4 H 0.1686 0.5019 0.8117
H48_4 H 0.1945 0.2868 0.8976
H49_4 H 0.3055 0.5368 0.6476
H50_4 H 0.1945 0.4632 0.8524
N16_4 N 0.26914(10) 0.19011(11) 0.92701(17)
N17_4 N 0.23086(10) 0.44011(11) 0.67701(17)
N18_4 N 0.26914(10) 0.55989(11) 0.82299(17)
H51_4 H 0.2949 0.1980 0.8991
H52_4 H 0.2051 0.4480 0.6491
H53_4 H 0.2949 0.5520 0.8509
H54_4 H 0.2761 0.1640 0.9578
H55_4 H 0.2239 0.4140 0.7078
H56_4 H 0.2761 0.5860 0.7922
Ni2_6 Ni 0.2500 0.5000 0.7500
Ni3_6 Ni 0.5000 0.2500 0.7500
Ni4_6 Ni 0.5000 0.5000 1.0000
C16_5 C 0.45553(12) 0.47193(14) 0.1514(2)
H16_5 H 0.4780 0.4901 0.1842
C19_5 C 0.41562(11) 0.46284(12) 0.20653(18)
H19_5 H 0.4062 0.4937 0.2304
H22_5 H 0.3893 0.4503 0.1763
C21_5 C 0.57206(12) 0.17571(14) 0.0235(2)
C22_5 C 0.42794(12) 0.42571(14) 0.2735(2)
H24_5 H 0.6009 0.1660 0.0496
H25_5 H 0.3991 0.4160 0.2996
H27_5 H 0.5529 0.1924 0.0626
H28_5 H 0.4471 0.4424 0.3126
C25_5 C 0.45320(13) 0.38014(14) 0.2474(2)
H31_5 H 0.4315 0.3583 0.2208
H33_5 H 0.5344 0.1132 0.0436
H34_5 H 0.4656 0.3632 0.2936
C28_5 C 0.49246(11) 0.39289(13) 0.1921(2)
H37_5 H 0.5041 0.3626 0.1689
H40_5 H 0.5177 0.4068 0.2235
C31_5 C 0.48202(13) 0.42705(14) 0.1273(2)
H43_5 H 0.4598 0.4089 0.0940
N9_5 N 0.54308(8) 0.54869(9) 0.06600(13)
N14_5 N 0.44616(9) 0.50576(10) 0.08438(16)
H46_5 H 0.4186 0.4981 0.0617
H49_5 H 0.4445 0.5368 0.1024
N17_5 N 0.51914(10) 0.44011(11) 0.07299(17)
H52_5 H 0.5449 0.4480 0.1009
H55_5 H 0.5261 0.4140 0.0422
C3_5 C 0.45553(12) 0.27807(14) 0.5986(2)
H1_5 H 0.4780 0.2599 0.5658
C4_5 C 0.41562(11) 0.28716(12) 0.54347(18)
H2_5 H 0.4062 0.2563 0.5196
H3_5 H 0.3893 0.2997 0.5737
C5_5 C 0.42794(12) 0.32429(14) 0.4765(2)
H4_5 H 0.3991 0.3340 0.4504
H5_5 H 0.4471 0.3076 0.4374
C6_5 C 0.45320(13) 0.36986(14) 0.5026(2)
H6_5 H 0.4315 0.3917 0.5292
H7_5 H 0.4656 0.3868 0.4564
C7_5 C 0.49246(11) 0.35711(13) 0.5579(2)
H8_5 H 0.5041 0.3874 0.5811
H9_5 H 0.5177 0.3432 0.5265
C8_5 C 0.48202(13) 0.32295(14) 0.6227(2)
H10_5 H 0.4598 0.3411 0.6560
N3_5 N 0.44616(9) 0.24424(10) 0.66562(16)
H11_5 H 0.4186 0.2519 0.6883
H12_5 H 0.4445 0.2132 0.6476
N4_5 N 0.51914(10) 0.30989(11) 0.67701(17)
H13_5 H 0.5449 0.3020 0.6491
H14_5 H 0.5261 0.3360 0.7078
C15_5 C 0.54447(12) 0.22193(14) 0.9014(2)
C17_5 C 0.54447(12) 0.52807(14) 0.8486(2)
H15_5 H 0.5220 0.2401 0.9342
H17_5 H 0.5220 0.5099 0.8158
C18_5 C 0.58438(11) 0.21284(12) 0.95653(18)
C20_5 C 0.58438(11) 0.53716(12) 0.79347(18)
H18_5 H 0.5938 0.2437 0.9804
H20_5 H 0.5938 0.5063 0.7696
H21_5 H 0.6107 0.2003 0.9263
H23_5 H 0.6107 0.5497 0.8237
C23_5 C 0.57206(12) 0.57429(14) 0.7265(2)
H26_5 H 0.6009 0.5840 0.7004
H29_5 H 0.5529 0.5576 0.6874
C24_5 C 0.54680(13) 0.13014(14) 0.9974(2)
C26_5 C 0.54680(13) 0.61986(14) 0.7526(2)
H30_5 H 0.5685 0.1083 0.9708
H32_5 H 0.5685 0.6417 0.7792
H35_5 H 0.5344 0.6368 0.7064
C27_5 C 0.50754(11) 0.14289(13) 0.9421(2)
C29_5 C 0.50754(11) 0.60711(13) 0.8079(2)
H36_5 H 0.4959 0.1126 0.9189
H38_5 H 0.4959 0.6374 0.8311
H39_5 H 0.4823 0.1568 0.9735
H41_5 H 0.4823 0.5932 0.7765
C30_5 C 0.51798(13) 0.17705(14) 0.8773(2)
C32_5 C 0.51798(13) 0.57295(14) 0.8727(2)
H42_5 H 0.5402 0.1589 0.8440
H44_5 H 0.5402 0.5911 0.9060
N8_5 N 0.54308(8) 0.20131(9) 0.68400(13)
N13_5 N 0.55384(9) 0.25576(10) 0.83438(16)
N15_5 N 0.55384(9) 0.49424(10) 0.91562(16)
H45_5 H 0.5814 0.2481 0.8117
H47_5 H 0.5814 0.5019 0.9383
H48_5 H 0.5555 0.2868 0.8524
H50_5 H 0.5555 0.4632 0.8976
N16_5 N 0.48086(10) 0.19011(11) 0.82299(17)
N18_5 N 0.48086(10) 0.55989(11) 0.92701(17)
H51_5 H 0.4551 0.1980 0.8509
H53_5 H 0.4551 0.5520 0.8991
H54_5 H 0.4739 0.1640 0.7922
H56_5 H 0.4739 0.5860 0.9578
C21_6 C 0.67794(12) 0.07429(14) 0.0235(2)
H24_6 H 0.6491 0.0840 0.0496
H27_6 H 0.6971 0.0576 0.0626
H33_6 H 0.7156 0.1368 0.0436
N3_6 N 0.80384(9) 0.00576(10) 0.66562(16)
H12_6 H 0.8055 0.0368 0.6476
C15_6 C 0.70553(12) 0.02807(14) 0.9014(2)
H15_6 H 0.7280 0.0099 0.9342
C18_6 C 0.66562(11) 0.03716(12) 0.95653(18)
H18_6 H 0.6562 0.0063 0.9804
H21_6 H 0.6393 0.0497 0.9263
C24_6 C 0.70320(13) 0.11986(14) 0.9974(2)
H30_6 H 0.6815 0.1417 0.9708
C27_6 C 0.74246(11) 0.10711(13) 0.9421(2)
H36_6 H 0.7541 0.1374 0.9189
H39_6 H 0.7677 0.0932 0.9735
C30_6 C 0.73202(13) 0.07295(14) 0.8773(2)
H42_6 H 0.7098 0.0911 0.8440
N8_6 N 0.70692(8) 0.04869(9) 0.68400(13)
H45_6 H 0.6686 0.0019 0.8117
N16_6 N 0.76914(10) 0.05989(11) 0.82299(17)
H51_6 H 0.7949 0.0520 0.8509
H54_6 H 0.7761 0.0860 0.7922
C16_6 C 0.79447(12) 0.77807(14) 0.1514(2)
H16_6 H 0.7720 0.7599 0.1842
C19_6 C 0.83438(11) 0.78716(12) 0.20653(18)
H19_6 H 0.8438 0.7563 0.2304
H22_6 H 0.8607 0.7997 0.1763
C22_6 C 0.82206(12) 0.82429(14) 0.2735(2)
H25_6 H 0.8509 0.8340 0.2996
H28_6 H 0.8029 0.8076 0.3126
C25_6 C 0.79680(13) 0.86986(14) 0.2474(2)
H31_6 H 0.8185 0.8917 0.2208
H34_6 H 0.7844 0.8868 0.2936
C28_6 C 0.75754(11) 0.85711(13) 0.1921(2)
H37_6 H 0.7459 0.8874 0.1689
H40_6 H 0.7323 0.8432 0.2235
C31_6 C 0.76798(13) 0.82295(14) 0.1273(2)
H43_6 H 0.7902 0.8411 0.0940
N9_6 N 0.70692(8) 0.70131(9) 0.06600(13)
N14_6 N 0.80384(9) 0.74424(10) 0.08438(16)
H46_6 H 0.8314 0.7519 0.0617
H49_6 H 0.8055 0.7132 0.1024
N17_6 N 0.73086(10) 0.80989(11) 0.07299(17)
H52_6 H 0.7051 0.8020 0.1009
H55_6 H 0.7239 0.8360 0.0422
C3_6 C 0.79447(12) 0.97193(14) 0.5986(2)
H1_6 H 0.7720 0.9901 0.5658
C4_6 C 0.83438(11) 0.96284(12) 0.54347(18)
H2_6 H 0.8438 0.9937 0.5196
H3_6 H 0.8607 0.9503 0.5737
C5_6 C 0.82206(12) 0.92571(14) 0.4765(2)
H4_6 H 0.8509 0.9160 0.4504
H5_6 H 0.8029 0.9424 0.4374
C6_6 C 0.79680(13) 0.88014(14) 0.5026(2)
H6_6 H 0.8185 0.8583 0.5292
H7_6 H 0.7844 0.8632 0.4564
C7_6 C 0.75754(11) 0.89289(13) 0.5579(2)
H8_6 H 0.7459 0.8626 0.5811
H9_6 H 0.7323 0.9068 0.5265
C8_6 C 0.76798(13) 0.92705(14) 0.6227(2)
H10_6 H 0.7902 0.9089 0.6560
H11_6 H 0.8314 0.9981 0.6883
N4_6 N 0.73086(10) 0.94011(11) 0.67701(17)
H13_6 H 0.7051 0.9480 0.6491
H14_6 H 0.7239 0.9140 0.7078
C17_6 C 0.70553(12) 0.72193(14) 0.8486(2)
H17_6 H 0.7280 0.7401 0.8158
C20_6 C 0.66562(11) 0.71284(12) 0.79347(18)
H20_6 H 0.6562 0.7437 0.7696
H23_6 H 0.6393 0.7003 0.8237
C23_6 C 0.67794(12) 0.67571(14) 0.7265(2)
H26_6 H 0.6491 0.6660 0.7004
H29_6 H 0.6971 0.6924 0.6874
C26_6 C 0.70320(13) 0.63014(14) 0.7526(2)
H32_6 H 0.6815 0.6083 0.7792
H35_6 H 0.7156 0.6132 0.7064
C29_6 C 0.74246(11) 0.64289(13) 0.8079(2)
H38_6 H 0.7541 0.6126 0.8311
H41_6 H 0.7677 0.6568 0.7765
C32_6 C 0.73202(13) 0.67705(14) 0.8727(2)
H44_6 H 0.7098 0.6589 0.9060
N13_6 N 0.69616(9) 0.99424(10) 0.83438(16)
N15_6 N 0.69616(9) 0.75576(10) 0.91562(16)
H47_6 H 0.6686 0.7481 0.9383
H48_6 H 0.6945 0.9632 0.8524
H50_6 H 0.6945 0.7868 0.8976
N18_6 N 0.76914(10) 0.69011(11) 0.92701(17)
H53_6 H 0.7949 0.6980 0.8991
H56_6 H 0.7761 0.6640 0.9578
N3_7 N 0.44616(9) 0.00576(10) 0.58438(16)
H12_7 H 0.4445 0.0368 0.6024
C15_7 C 0.54447(12) 0.02807(14) 0.3486(2)
H15_7 H 0.5220 0.0099 0.3158
C18_7 C 0.58438(11) 0.03716(12) 0.29347(18)
H18_7 H 0.5938 0.0063 0.2696
H21_7 H 0.6107 0.0497 0.3237
C21_7 C 0.57206(12) 0.07429(14) 0.2265(2)
H24_7 H 0.6009 0.0840 0.2004
H27_7 H 0.5529 0.0576 0.1874
C24_7 C 0.54680(13) 0.11986(14) 0.2526(2)
H30_7 H 0.5685 0.1417 0.2792
H33_7 H 0.5344 0.1368 0.2064
C27_7 C 0.50754(11) 0.10711(13) 0.3079(2)
H36_7 H 0.4959 0.1374 0.3311
H39_7 H 0.4823 0.0932 0.2765
C30_7 C 0.51798(13) 0.07295(14) 0.3727(2)
H42_7 H 0.5402 0.0911 0.4060
N8_7 N 0.54308(8) 0.04869(9) 0.56600(13)
H45_7 H 0.5814 0.0019 0.4383
N16_7 N 0.48086(10) 0.05989(11) 0.42701(17)
H51_7 H 0.4551 0.0520 0.3991
H54_7 H 0.4739 0.0860 0.4578
C3_7 C 0.45553(12) 0.97193(14) 0.6514(2)
H1_7 H 0.4780 0.9901 0.6842
C4_7 C 0.41562(11) 0.96284(12) 0.70653(18)
H2_7 H 0.4062 0.9937 0.7304
H3_7 H 0.3893 0.9503 0.6763
C5_7 C 0.42794(12) 0.92571(14) 0.7735(2)
H4_7 H 0.3991 0.9160 0.7996
H5_7 H 0.4471 0.9424 0.8126
C6_7 C 0.45320(13) 0.88014(14) 0.7474(2)
H6_7 H 0.4315 0.8583 0.7208
H7_7 H 0.4656 0.8632 0.7936
C7_7 C 0.49246(11) 0.89289(13) 0.6921(2)
H8_7 H 0.5041 0.8626 0.6689
H9_7 H 0.5177 0.9068 0.7235
C8_7 C 0.48202(13) 0.92705(14) 0.6273(2)
H10_7 H 0.4598 0.9089 0.5940
H11_7 H 0.4186 0.9981 0.5617
N4_7 N 0.51914(10) 0.94011(11) 0.57299(17)
H13_7 H 0.5449 0.9480 0.6009
H14_7 H 0.5261 0.9140 0.5422
C16_7 C 0.45553(12) 0.77807(14) 0.0986(2)
C17_7 C 0.54447(12) 0.72193(14) 0.4014(2)
H16_7 H 0.4780 0.7599 0.0658
H17_7 H 0.5220 0.7401 0.4342
C19_7 C 0.41562(11) 0.78716(12) 0.04347(18)
C20_7 C 0.58438(11) 0.71284(12) 0.45653(18)
H19_7 H 0.4062 0.7563 0.0196
H20_7 H 0.5938 0.7437 0.4804
H22_7 H 0.3893 0.7997 0.0737
H23_7 H 0.6107 0.7003 0.4263
C23_7 C 0.57206(12) 0.67571(14) 0.5235(2)
H26_7 H 0.6009 0.6660 0.5496
H29_7 H 0.5529 0.6924 0.5626
C25_7 C 0.45320(13) 0.86986(14) 0.0026(2)
C26_7 C 0.54680(13) 0.63014(14) 0.4974(2)
H31_7 H 0.4315 0.8917 0.0292
H32_7 H 0.5685 0.6083 0.4708
H35_7 H 0.5344 0.6132 0.5436
C28_7 C 0.49246(11) 0.85711(13) 0.0579(2)
C29_7 C 0.50754(11) 0.64289(13) 0.4421(2)
H37_7 H 0.5041 0.8874 0.0811
H38_7 H 0.4959 0.6126 0.4189
H40_7 H 0.5177 0.8432 0.0265
H41_7 H 0.4823 0.6568 0.4735
C31_7 C 0.48202(13) 0.82295(14) 0.1227(2)
C32_7 C 0.51798(13) 0.67705(14) 0.3773(2)
H43_7 H 0.4598 0.8411 0.1560
H44_7 H 0.5402 0.6589 0.3440
N9_7 N 0.54308(8) 0.70131(9) 0.18400(13)
N13_7 N 0.55384(9) 0.99424(10) 0.41562(16)
N14_7 N 0.44616(9) 0.74424(10) 0.16562(16)
N15_7 N 0.55384(9) 0.75576(10) 0.33438(16)
H46_7 H 0.4186 0.7519 0.1883
H47_7 H 0.5814 0.7481 0.3117
H48_7 H 0.5555 0.9632 0.3976
H49_7 H 0.4445 0.7132 0.1476
H50_7 H 0.5555 0.7868 0.3524
N17_7 N 0.51914(10) 0.80989(11) 0.17701(17)
N18_7 N 0.48086(10) 0.69011(11) 0.32299(17)
H52_7 H 0.5449 0.8020 0.1491
H53_7 H 0.4551 0.6980 0.3509
H55_7 H 0.5261 0.8360 0.2078
H56_7 H 0.4739 0.6640 0.2922
C22_7 C 0.42794(12) 0.82429(14) 0.9765(2)
H25_7 H 0.3991 0.8340 0.9504
H28_7 H 0.4471 0.8076 0.9374
H34_7 H 0.4656 0.8868 0.9564
C3_8 C 0.79447(12) 0.27807(14) 0.6514(2)
H1_8 H 0.7720 0.2599 0.6842
C4_8 C 0.83438(11) 0.28716(12) 0.70653(18)
H2_8 H 0.8438 0.2563 0.7304
H3_8 H 0.8607 0.2997 0.6763
C5_8 C 0.82206(12) 0.32429(14) 0.7735(2)
H4_8 H 0.8509 0.3340 0.7996
H5_8 H 0.8029 0.3076 0.8126
C6_8 C 0.79680(13) 0.36986(14) 0.7474(2)
H6_8 H 0.8185 0.3917 0.7208
H7_8 H 0.7844 0.3868 0.7936
C7_8 C 0.75754(11) 0.35711(13) 0.6921(2)
H8_8 H 0.7459 0.3874 0.6689
H9_8 H 0.7323 0.3432 0.7235
C8_8 C 0.76798(13) 0.32295(14) 0.6273(2)
H10_8 H 0.7902 0.3411 0.5940
N3_8 N 0.80384(9) 0.24424(10) 0.58438(16)
H11_8 H 0.8314 0.2519 0.5617
H12_8 H 0.8055 0.2132 0.6024
N4_8 N 0.73086(10) 0.30989(11) 0.57299(17)
H13_8 H 0.7051 0.3020 0.6009
H14_8 H 0.7239 0.3360 0.5422
C15_8 C 0.70553(12) 0.22193(14) 0.3486(2)
C16_8 C 0.79447(12) 0.47193(14) 0.0986(2)
C17_8 C 0.70553(12) 0.52807(14) 0.4014(2)
H15_8 H 0.7280 0.2401 0.3158
H16_8 H 0.7720 0.4901 0.0658
H17_8 H 0.7280 0.5099 0.4342
C18_8 C 0.66562(11) 0.21284(12) 0.29347(18)
C19_8 C 0.83438(11) 0.46284(12) 0.04347(18)
C20_8 C 0.66562(11) 0.53716(12) 0.45653(18)
H18_8 H 0.6562 0.2437 0.2696
H19_8 H 0.8438 0.4937 0.0196
H20_8 H 0.6562 0.5063 0.4804
H21_8 H 0.6393 0.2003 0.3237
H22_8 H 0.8607 0.4503 0.0737
H23_8 H 0.6393 0.5497 0.4263
C21_8 C 0.67794(12) 0.17571(14) 0.2265(2)
C23_8 C 0.67794(12) 0.57429(14) 0.5235(2)
H24_8 H 0.6491 0.1660 0.2004
H26_8 H 0.6491 0.5840 0.5496
H27_8 H 0.6971 0.1924 0.1874
H29_8 H 0.6971 0.5576 0.5626
C24_8 C 0.70320(13) 0.13014(14) 0.2526(2)
C25_8 C 0.79680(13) 0.38014(14) 0.0026(2)
C26_8 C 0.70320(13) 0.61986(14) 0.4974(2)
H30_8 H 0.6815 0.1083 0.2792
H31_8 H 0.8185 0.3583 0.0292
H32_8 H 0.6815 0.6417 0.4708
H33_8 H 0.7156 0.1132 0.2064
H35_8 H 0.7156 0.6368 0.5436
C27_8 C 0.74246(11) 0.14289(13) 0.3079(2)
C28_8 C 0.75754(11) 0.39289(13) 0.0579(2)
C29_8 C 0.74246(11) 0.60711(13) 0.4421(2)
H36_8 H 0.7541 0.1126 0.3311
H37_8 H 0.7459 0.3626 0.0811
H38_8 H 0.7541 0.6374 0.4189
H39_8 H 0.7677 0.1568 0.2765
H40_8 H 0.7323 0.4068 0.0265
H41_8 H 0.7677 0.5932 0.4735
C30_8 C 0.73202(13) 0.17705(14) 0.3727(2)
C31_8 C 0.76798(13) 0.42705(14) 0.1227(2)
C32_8 C 0.73202(13) 0.57295(14) 0.3773(2)
H42_8 H 0.7098 0.1589 0.4060
H43_8 H 0.7902 0.4089 0.1560
H44_8 H 0.7098 0.5911 0.3440
N8_8 N 0.70692(8) 0.20131(9) 0.56600(13)
N9_8 N 0.70692(8) 0.54869(9) 0.18400(13)
N13_8 N 0.69616(9) 0.25576(10) 0.41562(16)
N14_8 N 0.80384(9) 0.50576(10) 0.16562(16)
N15_8 N 0.69616(9) 0.49424(10) 0.33438(16)
H45_8 H 0.6686 0.2481 0.4383
H46_8 H 0.8314 0.4981 0.1883
H47_8 H 0.6686 0.5019 0.3117
H48_8 H 0.6945 0.2868 0.3976
H49_8 H 0.8055 0.5368 0.1476
H50_8 H 0.6945 0.4632 0.3524
N16_8 N 0.76914(10) 0.19011(11) 0.42701(17)
N17_8 N 0.73086(10) 0.44011(11) 0.17701(17)
N18_8 N 0.76914(10) 0.55989(11) 0.32299(17)
H51_8 H 0.7949 0.1980 0.3991
H52_8 H 0.7051 0.4480 0.1491
H53_8 H 0.7949 0.5520 0.3509
H54_8 H 0.7761 0.1640 0.4578
H55_8 H 0.7239 0.4140 0.2078
H56_8 H 0.7761 0.5860 0.2922
C22_8 C 0.82206(12) 0.42571(14) 0.9765(2)
H25_8 H 0.8509 0.4160 0.9504
H28_8 H 0.8029 0.4424 0.9374
H34_8 H 0.7844 0.3632 0.9564
C1_5 C 0.07114(8) 0.67468(9) 0.66175(15)
C2_5 C 0.09600(10) 0.66210(11) 0.52158(16)
Mo1_5 Mo 0.1250 0.6250 0.6250
N2_5 N 0.08066(8) 0.68335(9) 0.47161(14)
C9_5 C 0.07114(8) 0.57532(9) 0.58825(15)
C10_5 C 0.17886(8) 0.67468(9) 0.58825(15)
C11_5 C 0.17886(8) 0.57532(9) 0.66175(15)
C12_5 C 0.09600(10) 0.58790(11) 0.72842(16)
C13_5 C 0.15400(10) 0.66210(11) 0.72842(16)
C14_5 C 0.15400(10) 0.58790(11) 0.52158(16)
N10_5 N 0.08066(8) 0.56665(9) 0.77839(14)
N11_5 N 0.16934(8) 0.68335(9) 0.77839(14)
N12_5 N 0.16934(8) 0.56665(9) 0.47161(14)
C1_6 C 0.67886(8) 0.07532(9) 0.66175(15)
C2_6 C 0.65400(10) 0.08790(11) 0.52158(16)
Mo1_6 Mo 0.6250 0.1250 0.6250
N2_6 N 0.66934(8) 0.06665(9) 0.47161(14)
C9_6 C 0.67886(8) 0.17468(9) 0.58825(15)
C10_6 C 0.57114(8) 0.07532(9) 0.58825(15)
C11_6 C 0.57114(8) 0.17468(9) 0.66175(15)
C12_6 C 0.65400(10) 0.16210(11) 0.72842(16)
C13_6 C 0.59600(10) 0.08790(11) 0.72842(16)
C14_6 C 0.59600(10) 0.16210(11) 0.52158(16)
N10_6 N 0.66934(8) 0.18335(9) 0.77839(14)
N11_6 N 0.58066(8) 0.06665(9) 0.77839(14)
N12_6 N 0.58066(8) 0.18335(9) 0.47161(14)
C1_7 C 0.07114(8) 0.07532(9) 0.08825(15)
C2_7 C 0.09600(10) 0.08790(11) 0.22842(16)
Mo1_7 Mo 0.1250 0.1250 0.1250
N2_7 N 0.08066(8) 0.06665(9) 0.27839(14)
C9_7 C 0.07114(8) 0.17468(9) 0.16175(15)
C10_7 C 0.17886(8) 0.07532(9) 0.16175(15)
C11_7 C 0.17886(8) 0.17468(9) 0.08825(15)
C12_7 C 0.09600(10) 0.16210(11) 0.02158(16)
C13_7 C 0.15400(10) 0.08790(11) 0.02158(16)
C14_7 C 0.15400(10) 0.16210(11) 0.22842(16)
N12_7 N 0.16934(8) 0.18335(9) 0.27839(14)
N10_7 N 0.08066(8) 0.18335(9) 0.97161(14)
N11_7 N 0.16934(8) 0.06665(9) 0.97161(14)
C1_8 C 0.67886(8) 0.67468(9) 0.08825(15)
C2_8 C 0.65400(10) 0.66210(11) 0.22842(16)
Mo1_8 Mo 0.6250 0.6250 0.1250
N2_8 N 0.66934(8) 0.68335(9) 0.27839(14)
C9_8 C 0.67886(8) 0.57532(9) 0.16175(15)
C10_8 C 0.57114(8) 0.67468(9) 0.16175(15)
C11_8 C 0.57114(8) 0.57532(9) 0.08825(15)
C12_8 C 0.65400(10) 0.58790(11) 0.02158(16)
C13_8 C 0.59600(10) 0.66210(11) 0.02158(16)
C14_8 C 0.59600(10) 0.58790(11) 0.22842(16)
N12_8 N 0.58066(8) 0.56665(9) 0.27839(14)
N10_8 N 0.66934(8) 0.56665(9) 0.97161(14)
N11_8 N 0.58066(8) 0.68335(9) 0.97161(14)
loop_
_geom_bond_atom_site_label_1
_geom_bond_atom_site_label_2
_geom_bond_site_symmetry_1
_geom_bond_site_symmetry_2
H13 N4 1_555 1_555
H14 N4 1_555 1_555
C15 H15 1_555 1_555
C17 H17 1_555 1_555
C18 C15 1_555 1_555
C20 C17 1_555 1_555
H18 C18 1_555 1_555
H20 C20 1_555 1_555
H21 C18 1_555 1_555
H23 C20 1_555 1_555
C21 C18 1_555 1_555
C23 C20 1_555 1_555
H24 C21 1_555 1_555
H26 C23 1_555 1_555
H27 C21 1_555 1_555
H29 C23 1_555 1_555
C24 C21 1_555 1_555
C26 C23 1_555 1_555
H30 C24 1_555 1_555
H32 C26 1_555 1_555
H33 C24 1_555 1_555
H35 C26 1_555 1_555
C27 C24 1_555 1_555
C29 C26 1_555 1_555
C30 C15 1_555 1_555
C32 C17 1_555 1_555
H42 C30 1_555 1_555
H44 C32 1_555 1_555
N8 Ni1 1_555 1_555
N9 Ni2 1_555 1_555
N13 Ni1 1_555 1_555
N15 C17 1_555 1_555
H45 N13 1_555 1_555
H47 N15 1_555 1_555
H48 N13 1_555 1_555
H50 N15 1_555 1_555
H52 N17 1_555 1_555
H55 N17 1_555 1_555
N4 Ni1 1_555 1_555
C15 N13 1_555 1_555
C27 C30 1_555 1_555
C29 C32 1_555 1_555
N15 Ni2 1_555 1_555
N17 Ni2 1_555 1_555
C1 Mo1 1_555 1_555
C2 Mo1 1_555 1_555
C3 H1 1_555 1_555
C4 C3 1_555 1_555
H2 C4 1_555 1_555
H3 C4 1_555 1_555
H6 C6 1_555 1_555
C7 C6 1_555 1_555
C8 C3 1_555 1_555
H10 C8 1_555 1_555
Mo1 C9 1_555 1_555
N1 C1 1_555 1_555
N2 C2 1_555 1_555
N3 C3 1_555 1_555
H11 N3 1_555 1_555
H12 N3 1_555 1_555
Ni1_2 N1 1_555 1_555
C9 N5 1_555 1_555
C10 Mo1 1_555 1_555
C11 Mo1 1_555 1_555
C12 Mo1 1_555 1_555
C13 Mo1 1_555 1_555
C14 Mo1 1_555 1_555
C16 H16 1_555 1_555
C19 C16 1_555 1_555
H19 C19 1_555 1_555
H22 C19 1_555 1_555
C22 C19 1_555 1_555
H25 C22 1_555 1_555
H28 C22 1_555 1_555
C25 C22 1_555 1_555
H31 C25 1_555 1_555
H34 C25 1_555 1_555
C28 C25 1_555 1_555
C31 C16 1_555 1_555
H43 C31 1_555 1_555
N5 Ni2_2 1_555 1_555
N6 C10 1_555 1_555
N7 C11 1_555 1_555
N10 C12 1_555 1_555
N11 C13 1_555 1_555
N12 C14 1_555 1_555
N14 C16 1_555 1_555
H46 N14 1_555 1_555
H49 N14 1_555 1_555
N16 Ni1_2 1_555 1_555
H51 N16 1_555 1_555
H53 N18 1_555 1_555
H54 N16 1_555 1_555
H56 N18 1_555 1_555
Ni2_2 N14 1_555 1_555
Ni3 N6 1_555 1_555
Ni4 N7 1_555 1_555
C7 C8 1_555 1_555
N3 Ni1_2 1_555 1_555
C28 C31 1_555 1_555
N18 Ni2_2 1_555 1_555
H4 C5 1_555 1_555
H5 C5 1_555 1_555
H12_2 N3_2 1_555 1_555
C15_2 H15_2 1_555 1_555
C18_2 C15_2 1_555 1_555
H18_2 C18_2 1_555 1_555
H21_2 C18_2 1_555 1_555
C21_2 C18_2 1_555 1_555
H24_2 C21_2 1_555 1_555
H27_2 C21_2 1_555 1_555
C24_2 C21_2 1_555 1_555
H30_2 C24_2 1_555 1_555
H33_2 C24_2 1_555 1_555
C27_2 C24_2 1_555 1_555
H36_2 C27_2 1_555 1_555
H39_2 C27_2 1_555 1_555
C30_2 C15_2 1_555 1_555
H42_2 C30_2 1_555 1_555
N8_2 Ni1_3 1_555 1_555
N16_2 Ni1_3 1_555 1_555
H51_2 N16_2 1_555 1_555
H54_2 N16_2 1_555 1_555
N3_2 Ni1_3 1_555 1_555
C27_2 C30_2 1_555 1_555
C30_2 N16_2 1_555 1_555
C1_2 Mo1_2 1_555 1_555
C2_2 Mo1_2 1_555 1_555
C3_2 H1_2 1_555 1_555
C4_2 C3_2 1_555 1_555
H2_2 C4_2 1_555 1_555
H3_2 C4_2 1_555 1_555
H6_2 C6_2 1_555 1_555
C7_2 C6_2 1_555 1_555
H8_2 C7_2 1_555 1_555
H9_2 C7_2 1_555 1_555
C8_2 C3_2 1_555 1_555
H10_2 C8_2 1_555 1_555
Mo1_2 C9_2 1_555 1_555
N1_2 C1_2 1_555 1_555
N2_2 C2_2 1_555 1_555
N4_2 C8_2 1_555 1_555
H13_2 N4_2 1_555 1_555
H14_2 N4_2 1_555 1_555
Ni1_4 N1_2 1_555 1_555
C9_2 N5_2 1_555 1_555
C10_2 Mo1_2 1_555 1_555
C11_2 Mo1_2 1_555 1_555
C12_2 Mo1_2 1_555 1_555
C13_2 Mo1_2 1_555 1_555
C14_2 Mo1_2 1_555 1_555
C16_2 H16_2 1_555 1_555
C17_2 H17_2 1_555 1_555
C19_2 C16_2 1_555 1_555
C20_2 C17_2 1_555 1_555
H19_2 C19_2 1_555 1_555
H20_2 C20_2 1_555 1_555
H22_2 C19_2 1_555 1_555
H23_2 C20_2 1_555 1_555
C22_2 C19_2 1_555 1_555
C23_2 C20_2 1_555 1_555
H25_2 C22_2 1_555 1_555
H26_2 C23_2 1_555 1_555
H28_2 C22_2 1_555 1_555
H29_2 C23_2 1_555 1_555
C25_2 C22_2 1_555 1_555
C26_2 C23_2 1_555 1_555
H31_2 C25_2 1_555 1_555
H32_2 C26_2 1_555 1_555
H34_2 C25_2 1_555 1_555
H35_2 C26_2 1_555 1_555
C28_2 C25_2 1_555 1_555
C29_2 C26_2 1_555 1_555
H37_2 C28_2 1_555 1_555
H38_2 C29_2 1_555 1_555
H40_2 C28_2 1_555 1_555
H41_2 C29_2 1_555 1_555
C31_2 C16_2 1_555 1_555
C32_2 C17_2 1_555 1_555
H43_2 C31_2 1_555 1_555
H44_2 C32_2 1_555 1_555
N5_2 Ni2_3 1_555 1_555
N6_2 C10_2 1_555 1_555
N7_2 C11_2 1_555 1_555
N9_2 Ni2_3 1_555 1_555
N10_2 C12_2 1_555 1_555
N11_2 C13_2 1_555 1_555
N12_2 C14_2 1_555 1_555
N13_2 Ni1_4 1_555 1_555
N14_2 C16_2 1_555 1_555
N15_2 C17_2 1_555 1_555
H46_2 N14_2 1_555 1_555
H47_2 N15_2 1_555 1_555
H48_2 N13_2 1_555 1_555
H49_2 N14_2 1_555 1_555
H50_2 N15_2 1_555 1_555
N17_2 C31_2 1_555 1_555
N18_2 C32_2 1_555 1_555
H52_2 N17_2 1_555 1_555
H53_2 N18_2 1_555 1_555
H55_2 N17_2 1_555 1_555
H56_2 N18_2 1_555 1_555
Ni2_3 N14_2 1_555 1_555
Ni3_3 N6_2 1_555 1_555
Ni4_2 N7_2 1_555 1_555
C7_2 C8_2 1_555 1_555
N4_2 Ni1_4 1_555 1_555
C28_2 C31_2 1_555 1_555
C29_2 C32_2 1_555 1_555
N15_2 Ni2_3 1_555 1_555
N17_2 Ni2_3 1_555 1_555
N18_2 Ni2_3 1_555 1_555
H4_2 C5_2 1_555 1_555
H5_2 C5_2 1_555 1_555
N8_3 Ni1_5 1_555 1_555
C15_3 H15_3 1_555 1_555
C18_3 C15_3 1_555 1_555
H18_3 C18_3 1_555 1_555
H21_3 C18_3 1_555 1_555
C21_3 C18_3 1_555 1_555
H24_3 C21_3 1_555 1_555
H27_3 C21_3 1_555 1_555
C24_3 C21_3 1_555 1_555
H30_3 C24_3 1_555 1_555
H33_3 C24_3 1_555 1_555
C27_3 C24_3 1_555 1_555
C30_3 C15_3 1_555 1_555
H42_3 C30_3 1_555 1_555
C27_3 C30_3 1_555 1_555
H13_3 N4_3 1_555 1_555
H14_3 N4_3 1_555 1_555
H26_3 C23_3 1_555 1_555
H29_3 C23_3 1_555 1_555
N4_3 Ni1_7 1_555 1_555
C17_3 H17_3 1_555 1_555
C20_3 C17_3 1_555 1_555
H20_3 C20_3 1_555 1_555
H23_3 C20_3 1_555 1_555
H32_3 C26_3 1_555 1_555
C29_3 C26_3 1_555 1_555
C32_3 C17_3 1_555 1_555
H44_3 C32_3 1_555 1_555
N9_3 Ni2_4 1_555 1_555
N13_3 Ni1_8 1_555 1_555
N15_3 C17_3 1_555 1_555
H47_3 N15_3 1_555 1_555
H48_3 N13_3 1_555 1_555
H50_3 N15_3 1_555 1_555
H52_3 N17_3 1_555 1_555
H55_3 N17_3 1_555 1_555
C29_3 C32_3 1_555 1_555
N15_3 Ni2_4 1_555 1_555
N17_3 Ni2_4 1_555 1_555
H12_3 N3_3 1_555 1_555
N3_3 Ni1_9 1_555 1_555
N16_3 Ni1_10 1_555 1_555
H51_3 N16_3 1_555 1_555
H54_3 N16_3 1_555 1_555
C3_3 H1_3 1_555 1_555
C4_3 C3_3 1_555 1_555
H2_3 C4_3 1_555 1_555
H3_3 C4_3 1_555 1_555
C5_3 C4_3 1_555 1_555
H4_3 C5_3 1_555 1_555
H5_3 C5_3 1_555 1_555
C6_3 C5_3 1_555 1_555
H6_3 C6_3 1_555 1_555
H7_3 C6_3 1_555 1_555
C7_3 C6_3 1_555 1_555
C8_3 C3_3 1_555 1_555
H10_3 C8_3 1_555 1_555
C7_3 C8_3 1_555 1_555
C1_3 Mo1_3 1_555 1_555
C2_3 Mo1_3 1_555 1_555
Mo1_3 C9_3 1_555 1_555
N1_3 C1_3 1_555 1_555
N2_3 C2_3 1_555 1_555
Ni1_12 N1_3 1_555 1_555
C9_3 N5_3 1_555 1_555
C10_3 Mo1_3 1_555 1_555
C11_3 Mo1_3 1_555 1_555
C12_3 Mo1_3 1_555 1_555
C13_3 Mo1_3 1_555 1_555
C14_3 Mo1_3 1_555 1_555
C16_3 H16_3 1_555 1_555
C19_3 C16_3 1_555 1_555
H19_3 C19_3 1_555 1_555
H22_3 C19_3 1_555 1_555
C22_3 C19_3 1_555 1_555
H25_3 C22_3 1_555 1_555
H28_3 C22_3 1_555 1_555
C25_3 C22_3 1_555 1_555
H31_3 C25_3 1_555 1_555
H34_3 C25_3 1_555 1_555
C28_3 C25_3 1_555 1_555
C31_3 C16_3 1_555 1_555
H43_3 C31_3 1_555 1_555
N5_3 Ni2_5 1_555 1_555
N6_3 C10_3 1_555 1_555
N7_3 C11_3 1_555 1_555
N12_3 C14_3 1_555 1_555
N14_3 C16_3 1_555 1_555
H46_3 N14_3 1_555 1_555
H49_3 N14_3 1_555 1_555
H53_3 N18_3 1_555 1_555
H56_3 N18_3 1_555 1_555
Ni2_5 N14_3 1_555 1_555
Ni3_5 N6_3 1_555 1_555
Ni4_4 N7_3 1_555 1_555
C28_3 C31_3 1_555 1_555
N18_3 Ni2_5 1_555 1_555
C3_4 H1_4 1_555 1_555
C4_4 C3_4 1_555 1_555
H2_4 C4_4 1_555 1_555
H3_4 C4_4 1_555 1_555
C5_4 C4_4 1_555 1_555
H4_4 C5_4 1_555 1_555
H5_4 C5_4 1_555 1_555
C6_4 C5_4 1_555 1_555
H6_4 C6_4 1_555 1_555
H7_4 C6_4 1_555 1_555
C7_4 C6_4 1_555 1_555
H8_4 C7_4 1_555 1_555
H9_4 C7_4 1_555 1_555
C8_4 C3_4 1_555 1_555
H10_4 C8_4 1_555 1_555
N3_4 C3_4 1_555 1_555
H11_4 N3_4 1_555 1_555
H12_4 N3_4 1_555 1_555
N4_4 C8_4 1_555 1_555
H13_4 N4_4 1_555 1_555
H14_4 N4_4 1_555 1_555
H26_4 C23_4 1_555 1_555
H29_4 C23_4 1_555 1_555
N8_4 Ni1_13 1_555 1_555
C7_4 C8_4 1_555 1_555
N3_4 Ni1_13 1_555 1_555
N4_4 Ni1_13 1_555 1_555
C1_4 Mo1_4 1_555 1_555
C2_4 Mo1_4 1_555 1_555
Mo1_4 C9_4 1_555 1_555
N1_4 C1_4 1_555 1_555
N2_4 C2_4 1_555 1_555
Ni1_14 N1_4 1_555 1_555
C9_4 N5_4 1_555 1_555
C10_4 Mo1_4 1_555 1_555
C11_4 Mo1_4 1_555 1_555
C12_4 Mo1_4 1_555 1_555
C13_4 Mo1_4 1_555 1_555
C14_4 Mo1_4 1_555 1_555
C15_4 H15_4 1_555 1_555
C16_4 H16_4 1_555 1_555
C17_4 H17_4 1_555 1_555
C18_4 C15_4 1_555 1_555
C19_4 C16_4 1_555 1_555
C20_4 C17_4 1_555 1_555
H18_4 C18_4 1_555 1_555
H19_4 C19_4 1_555 1_555
H20_4 C20_4 1_555 1_555
H21_4 C18_4 1_555 1_555
H22_4 C19_4 1_555 1_555
H23_4 C20_4 1_555 1_555
C21_4 C18_4 1_555 1_555
C22_4 C19_4 1_555 1_555
H24_4 C21_4 1_555 1_555
H25_4 C22_4 1_555 1_555
H27_4 C21_4 1_555 1_555
H28_4 C22_4 1_555 1_555
C24_4 C21_4 1_555 1_555
C25_4 C22_4 1_555 1_555
H30_4 C24_4 1_555 1_555
H31_4 C25_4 1_555 1_555
H32_4 C26_4 1_555 1_555
H33_4 C24_4 1_555 1_555
H34_4 C25_4 1_555 1_555
C27_4 C24_4 1_555 1_555
C28_4 C25_4 1_555 1_555
C29_4 C26_4 1_555 1_555
H36_4 C27_4 1_555 1_555
H37_4 C28_4 1_555 1_555
H38_4 C29_4 1_555 1_555
H39_4 C27_4 1_555 1_555
H40_4 C28_4 1_555 1_555
H41_4 C29_4 1_555 1_555
C30_4 C15_4 1_555 1_555
C31_4 C16_4 1_555 1_555
C32_4 C17_4 1_555 1_555
H42_4 C30_4 1_555 1_555
H43_4 C31_4 1_555 1_555
H44_4 C32_4 1_555 1_555
N5_4 Ni2_6 1_555 1_555
N6_4 C10_4 1_555 1_555
N7_4 C11_4 1_555 1_555
N9_4 Ni2_6 1_555 1_555
N12_4 C14_4 1_555 1_555
N13_4 Ni1_14 1_555 1_555
N14_4 C16_4 1_555 1_555
N15_4 C17_4 1_555 1_555
H45_4 N13_4 1_555 1_555
H46_4 N14_4 1_555 1_555
H47_4 N15_4 1_555 1_555
H48_4 N13_4 1_555 1_555
H49_4 N14_4 1_555 1_555
H50_4 N15_4 1_555 1_555
N16_4 Ni1_14 1_555 1_555
N17_4 C31_4 1_555 1_555
N18_4 C32_4 1_555 1_555
H51_4 N16_4 1_555 1_555
H52_4 N17_4 1_555 1_555
H53_4 N18_4 1_555 1_555
H54_4 N16_4 1_555 1_555
H55_4 N17_4 1_555 1_555
H56_4 N18_4 1_555 1_555
Ni2_6 N14_4 1_555 1_555
Ni3_6 N6_4 1_555 1_555
Ni4_6 N7_4 1_555 1_555
C15_4 N13_4 1_555 1_555
C27_4 C30_4 1_555 1_555
C28_4 C31_4 1_555 1_555
C29_4 C32_4 1_555 1_555
C30_4 N16_4 1_555 1_555
N15_4 Ni2_6 1_555 1_555
N17_4 Ni2_6 1_555 1_555
N18_4 Ni2_6 1_555 1_555
C16_5 H16_5 1_555 1_555
C19_5 C16_5 1_555 1_555
H19_5 C19_5 1_555 1_555
H22_5 C19_5 1_555 1_555
C22_5 C19_5 1_555 1_555
H24_5 C21_5 1_555 1_555
H25_5 C22_5 1_555 1_555
H27_5 C21_5 1_555 1_555
H28_5 C22_5 1_555 1_555
C25_5 C22_5 1_555 1_555
H31_5 C25_5 1_555 1_555
H34_5 C25_5 1_555 1_555
C28_5 C25_5 1_555 1_555
H37_5 C28_5 1_555 1_555
H40_5 C28_5 1_555 1_555
C31_5 C16_5 1_555 1_555
H43_5 C31_5 1_555 1_555
N9_5 Ni4_5 1_555 1_555
N14_5 C16_5 1_555 1_555
H46_5 N14_5 1_555 1_555
H49_5 N14_5 1_555 1_555
N17_5 C31_5 1_555 1_555
H52_5 N17_5 1_555 1_555
H55_5 N17_5 1_555 1_555
Ni4_5 N14_5 1_555 1_555
C28_5 C31_5 1_555 1_555
N17_5 Ni4_5 1_555 1_555
C3_5 H1_5 1_555 1_555
C4_5 C3_5 1_555 1_555
H2_5 C4_5 1_555 1_555
H3_5 C4_5 1_555 1_555
C5_5 C4_5 1_555 1_555
H4_5 C5_5 1_555 1_555
H5_5 C5_5 1_555 1_555
C6_5 C5_5 1_555 1_555
H6_5 C6_5 1_555 1_555
H7_5 C6_5 1_555 1_555
C7_5 C6_5 1_555 1_555
H8_5 C7_5 1_555 1_555
H9_5 C7_5 1_555 1_555
C8_5 C3_5 1_555 1_555
H10_5 C8_5 1_555 1_555
N3_5 C3_5 1_555 1_555
H11_5 N3_5 1_555 1_555
H12_5 N3_5 1_555 1_555
N4_5 C8_5 1_555 1_555
H13_5 N4_5 1_555 1_555
H14_5 N4_5 1_555 1_555
C15_5 H15_5 1_555 1_555
C17_5 H17_5 1_555 1_555
C18_5 C15_5 1_555 1_555
C20_5 C17_5 1_555 1_555
H18_5 C18_5 1_555 1_555
H20_5 C20_5 1_555 1_555
H21_5 C18_5 1_555 1_555
H23_5 C20_5 1_555 1_555
C23_5 C20_5 1_555 1_555
H26_5 C23_5 1_555 1_555
H29_5 C23_5 1_555 1_555
C26_5 C23_5 1_555 1_555
H30_5 C24_5 1_555 1_555
H32_5 C26_5 1_555 1_555
H35_5 C26_5 1_555 1_555
C27_5 C24_5 1_555 1_555
C29_5 C26_5 1_555 1_555
H36_5 C27_5 1_555 1_555
H38_5 C29_5 1_555 1_555
H39_5 C27_5 1_555 1_555
H41_5 C29_5 1_555 1_555
C30_5 C15_5 1_555 1_555
C32_5 C17_5 1_555 1_555
H42_5 C30_5 1_555 1_555
H44_5 C32_5 1_555 1_555
N8_5 Ni3_6 1_555 1_555
N13_5 Ni3_6 1_555 1_555
N15_5 C17_5 1_555 1_555
H45_5 N13_5 1_555 1_555
H47_5 N15_5 1_555 1_555
H48_5 N13_5 1_555 1_555
H50_5 N15_5 1_555 1_555
N16_5 Ni3_6 1_555 1_555
N18_5 C32_5 1_555 1_555
H51_5 N16_5 1_555 1_555
H53_5 N18_5 1_555 1_555
H54_5 N16_5 1_555 1_555
H56_5 N18_5 1_555 1_555
C7_5 C8_5 1_555 1_555
N3_5 Ni3_6 1_555 1_555
N4_5 Ni3_6 1_555 1_555
C15_5 N13_5 1_555 1_555
C27_5 C30_5 1_555 1_555
C29_5 C32_5 1_555 1_555
C30_5 N16_5 1_555 1_555
N15_5 Ni4_6 1_555 1_555
N18_5 Ni4_6 1_555 1_555
H24_6 C21_6 1_555 1_555
H27_6 C21_6 1_555 1_555
H12_6 N3_6 1_555 1_555
C15_6 H15_6 1_555 1_555
C18_6 C15_6 1_555 1_555
H18_6 C18_6 1_555 1_555
H21_6 C18_6 1_555 1_555
H30_6 C24_6 1_555 1_555
C27_6 C24_6 1_555 1_555
H36_6 C27_6 1_555 1_555
H39_6 C27_6 1_555 1_555
C30_6 C15_6 1_555 1_555
H42_6 C30_6 1_555 1_555
N8_6 Ni3_4 1_555 1_555
N16_6 Ni3_4 1_555 1_555
H51_6 N16_6 1_555 1_555
H54_6 N16_6 1_555 1_555
N3_6 Ni3_4 1_555 1_555
C27_6 C30_6 1_555 1_555
C30_6 N16_6 1_555 1_555
C16_6 H16_6 1_555 1_555
C19_6 C16_6 1_555 1_555
H19_6 C19_6 1_555 1_555
H22_6 C19_6 1_555 1_555
C22_6 C19_6 1_555 1_555
H25_6 C22_6 1_555 1_555
H28_6 C22_6 1_555 1_555
C25_6 C22_6 1_555 1_555
H31_6 C25_6 1_555 1_555
H34_6 C25_6 1_555 1_555
C28_6 C25_6 1_555 1_555
H37_6 C28_6 1_555 1_555
H40_6 C28_6 1_555 1_555
C31_6 C16_6 1_555 1_555
H43_6 C31_6 1_555 1_555
N9_6 Ni4_3 1_555 1_555
N14_6 C16_6 1_555 1_555
H46_6 N14_6 1_555 1_555
H49_6 N14_6 1_555 1_555
N17_6 C31_6 1_555 1_555
H52_6 N17_6 1_555 1_555
H55_6 N17_6 1_555 1_555
Ni4_3 N14_6 1_555 1_555
C28_6 C31_6 1_555 1_555
N17_6 Ni4_3 1_555 1_555
C3_6 H1_6 1_555 1_555
C4_6 C3_6 1_555 1_555
H2_6 C4_6 1_555 1_555
H3_6 C4_6 1_555 1_555
C5_6 C4_6 1_555 1_555
H4_6 C5_6 1_555 1_555
H5_6 C5_6 1_555 1_555
C6_6 C5_6 1_555 1_555
H6_6 C6_6 1_555 1_555
H7_6 C6_6 1_555 1_555
C7_6 C6_6 1_555 1_555
H8_6 C7_6 1_555 1_555
H9_6 C7_6 1_555 1_555
C8_6 C3_6 1_555 1_555
H10_6 C8_6 1_555 1_555
N4_6 C8_6 1_555 1_555
H13_6 N4_6 1_555 1_555
H14_6 N4_6 1_555 1_555
C17_6 H17_6 1_555 1_555
C20_6 C17_6 1_555 1_555
H20_6 C20_6 1_555 1_555
H23_6 C20_6 1_555 1_555
C23_6 C20_6 1_555 1_555
H26_6 C23_6 1_555 1_555
H29_6 C23_6 1_555 1_555
C26_6 C23_6 1_555 1_555
H32_6 C26_6 1_555 1_555
H35_6 C26_6 1_555 1_555
C29_6 C26_6 1_555 1_555
H38_6 C29_6 1_555 1_555
H41_6 C29_6 1_555 1_555
C32_6 C17_6 1_555 1_555
H44_6 C32_6 1_555 1_555
N13_6 Ni3_5 1_555 1_555
N15_6 C17_6 1_555 1_555
H47_6 N15_6 1_555 1_555
H48_6 N13_6 1_555 1_555
H50_6 N15_6 1_555 1_555
N18_6 C32_6 1_555 1_555
H53_6 N18_6 1_555 1_555
H56_6 N18_6 1_555 1_555
C7_6 C8_6 1_555 1_555
N4_6 Ni3_5 1_555 1_555
C29_6 C32_6 1_555 1_555
N15_6 Ni4_4 1_555 1_555
N18_6 Ni4_4 1_555 1_555
H12_7 N3_7 1_555 1_555
C15_7 H15_7 1_555 1_555
C18_7 C15_7 1_555 1_555
H18_7 C18_7 1_555 1_555
H21_7 C18_7 1_555 1_555
C21_7 C18_7 1_555 1_555
H24_7 C21_7 1_555 1_555
H27_7 C21_7 1_555 1_555
C24_7 C21_7 1_555 1_555
H30_7 C24_7 1_555 1_555
H33_7 C24_7 1_555 1_555
C27_7 C24_7 1_555 1_555
H36_7 C27_7 1_555 1_555
H39_7 C27_7 1_555 1_555
C30_7 C15_7 1_555 1_555
H42_7 C30_7 1_555 1_555
N8_7 Ni3_2 1_555 1_555
N16_7 Ni3_2 1_555 1_555
H51_7 N16_7 1_555 1_555
H54_7 N16_7 1_555 1_555
N3_7 Ni3_2 1_555 1_555
C27_7 C30_7 1_555 1_555
C30_7 N16_7 1_555 1_555
C3_7 H1_7 1_555 1_555
C4_7 C3_7 1_555 1_555
H2_7 C4_7 1_555 1_555
H3_7 C4_7 1_555 1_555
C5_7 C4_7 1_555 1_555
H4_7 C5_7 1_555 1_555
H5_7 C5_7 1_555 1_555
C6_7 C5_7 1_555 1_555
H6_7 C6_7 1_555 1_555
H7_7 C6_7 1_555 1_555
C7_7 C6_7 1_555 1_555
H8_7 C7_7 1_555 1_555
H9_7 C7_7 1_555 1_555
C8_7 C3_7 1_555 1_555
H10_7 C8_7 1_555 1_555
N4_7 C8_7 1_555 1_555
H13_7 N4_7 1_555 1_555
H14_7 N4_7 1_555 1_555
C16_7 H16_7 1_555 1_555
C17_7 H17_7 1_555 1_555
C19_7 C16_7 1_555 1_555
C20_7 C17_7 1_555 1_555
H19_7 C19_7 1_555 1_555
H20_7 C20_7 1_555 1_555
H22_7 C19_7 1_555 1_555
H23_7 C20_7 1_555 1_555
C23_7 C20_7 1_555 1_555
H26_7 C23_7 1_555 1_555
H29_7 C23_7 1_555 1_555
C26_7 C23_7 1_555 1_555
H31_7 C25_7 1_555 1_555
H32_7 C26_7 1_555 1_555
H35_7 C26_7 1_555 1_555
C28_7 C25_7 1_555 1_555
C29_7 C26_7 1_555 1_555
H37_7 C28_7 1_555 1_555
H38_7 C29_7 1_555 1_555
H40_7 C28_7 1_555 1_555
H41_7 C29_7 1_555 1_555
C31_7 C16_7 1_555 1_555
C32_7 C17_7 1_555 1_555
H43_7 C31_7 1_555 1_555
H44_7 C32_7 1_555 1_555
N9_7 Ni4_2 1_555 1_555
N13_7 Ni3_3 1_555 1_555
N14_7 C16_7 1_555 1_555
N15_7 C17_7 1_555 1_555
H46_7 N14_7 1_555 1_555
H47_7 N15_7 1_555 1_555
H48_7 N13_7 1_555 1_555
H49_7 N14_7 1_555 1_555
H50_7 N15_7 1_555 1_555
N17_7 C31_7 1_555 1_555
N18_7 C32_7 1_555 1_555
H52_7 N17_7 1_555 1_555
H53_7 N18_7 1_555 1_555
H55_7 N17_7 1_555 1_555
H56_7 N18_7 1_555 1_555
Ni4_2 N14_7 1_555 1_555
C7_7 C8_7 1_555 1_555
N4_7 Ni3_3 1_555 1_555
C28_7 C31_7 1_555 1_555
C29_7 C32_7 1_555 1_555
N15_7 Ni4_2 1_555 1_555
N17_7 Ni4_2 1_555 1_555
N18_7 Ni4_2 1_555 1_555
H25_7 C22_7 1_555 1_555
H28_7 C22_7 1_555 1_555
C3_8 H1_8 1_555 1_555
C4_8 C3_8 1_555 1_555
H2_8 C4_8 1_555 1_555
H3_8 C4_8 1_555 1_555
C5_8 C4_8 1_555 1_555
H4_8 C5_8 1_555 1_555
H5_8 C5_8 1_555 1_555
C6_8 C5_8 1_555 1_555
H6_8 C6_8 1_555 1_555
H7_8 C6_8 1_555 1_555
C7_8 C6_8 1_555 1_555
H8_8 C7_8 1_555 1_555
H9_8 C7_8 1_555 1_555
C8_8 C3_8 1_555 1_555
H10_8 C8_8 1_555 1_555
N3_8 C3_8 1_555 1_555
H11_8 N3_8 1_555 1_555
H12_8 N3_8 1_555 1_555
N4_8 C8_8 1_555 1_555
H13_8 N4_8 1_555 1_555
H14_8 N4_8 1_555 1_555
C15_8 H15_8 1_555 1_555
C16_8 H16_8 1_555 1_555
C17_8 H17_8 1_555 1_555
C18_8 C15_8 1_555 1_555
C19_8 C16_8 1_555 1_555
C20_8 C17_8 1_555 1_555
H18_8 C18_8 1_555 1_555
H19_8 C19_8 1_555 1_555
H20_8 C20_8 1_555 1_555
H21_8 C18_8 1_555 1_555
H22_8 C19_8 1_555 1_555
H23_8 C20_8 1_555 1_555
C21_8 C18_8 1_555 1_555
C23_8 C20_8 1_555 1_555
H24_8 C21_8 1_555 1_555
H26_8 C23_8 1_555 1_555
H27_8 C21_8 1_555 1_555
H29_8 C23_8 1_555 1_555
C24_8 C21_8 1_555 1_555
C26_8 C23_8 1_555 1_555
H30_8 C24_8 1_555 1_555
H31_8 C25_8 1_555 1_555
H32_8 C26_8 1_555 1_555
H33_8 C24_8 1_555 1_555
H35_8 C26_8 1_555 1_555
C27_8 C24_8 1_555 1_555
C28_8 C25_8 1_555 1_555
C29_8 C26_8 1_555 1_555
H36_8 C27_8 1_555 1_555
H37_8 C28_8 1_555 1_555
H38_8 C29_8 1_555 1_555
H39_8 C27_8 1_555 1_555
H40_8 C28_8 1_555 1_555
H41_8 C29_8 1_555 1_555
C30_8 C15_8 1_555 1_555
C31_8 C16_8 1_555 1_555
C32_8 C17_8 1_555 1_555
H42_8 C30_8 1_555 1_555
H43_8 C31_8 1_555 1_555
H44_8 C32_8 1_555 1_555
N8_8 Ni3 1_555 1_555
N9_8 Ni4 1_555 1_555
N13_8 Ni3 1_555 1_555
N14_8 C16_8 1_555 1_555
N15_8 C17_8 1_555 1_555
H45_8 N13_8 1_555 1_555
H46_8 N14_8 1_555 1_555
H47_8 N15_8 1_555 1_555
H48_8 N13_8 1_555 1_555
H49_8 N14_8 1_555 1_555
H50_8 N15_8 1_555 1_555
N16_8 Ni3 1_555 1_555
N17_8 C31_8 1_555 1_555
N18_8 C32_8 1_555 1_555
H51_8 N16_8 1_555 1_555
H52_8 N17_8 1_555 1_555
H53_8 N18_8 1_555 1_555
H54_8 N16_8 1_555 1_555
H55_8 N17_8 1_555 1_555
H56_8 N18_8 1_555 1_555
Ni4 N14_8 1_555 1_555
C7_8 C8_8 1_555 1_555
N3_8 Ni3 1_555 1_555
N4_8 Ni3 1_555 1_555
C15_8 N13_8 1_555 1_555
C27_8 C30_8 1_555 1_555
C28_8 C31_8 1_555 1_555
C29_8 C32_8 1_555 1_555
C30_8 N16_8 1_555 1_555
N15_8 Ni4 1_555 1_555
N17_8 Ni4 1_555 1_555
N18_8 Ni4 1_555 1_555
H25_8 C22_8 1_555 1_555
H28_8 C22_8 1_555 1_555
C1_5 Mo1_5 1_555 1_555
C2_5 Mo1_5 1_555 1_555
Mo1_5 C9_5 1_555 1_555
N9_3 C1_5 1_555 1_555
N2_5 C2_5 1_555 1_555
C9_5 N9 1_555 1_555
C10_5 Mo1_5 1_555 1_555
C11_5 Mo1_5 1_555 1_555
C12_5 Mo1_5 1_555 1_555
C13_5 Mo1_5 1_555 1_555
C14_5 Mo1_5 1_555 1_555
N9_2 C10_5 1_555 1_555
N9_4 C11_5 1_555 1_555
N10_5 C12_5 1_555 1_555
N11_5 C13_5 1_555 1_555
N12_5 C14_5 1_555 1_555
C1_6 Mo1_6 1_555 1_555
C2_6 Mo1_6 1_555 1_555
Mo1_6 C9_6 1_555 1_555
N8_6 C1_6 1_555 1_555
N2_6 C2_6 1_555 1_555
C9_6 N8_8 1_555 1_555
C10_6 Mo1_6 1_555 1_555
C11_6 Mo1_6 1_555 1_555
C12_6 Mo1_6 1_555 1_555
C13_6 Mo1_6 1_555 1_555
C14_6 Mo1_6 1_555 1_555
N8_7 C10_6 1_555 1_555
N8_5 C11_6 1_555 1_555
N10_6 C12_6 1_555 1_555
N11_6 C13_6 1_555 1_555
N12_6 C14_6 1_555 1_555
C1_7 Mo1_7 1_555 1_555
C2_7 Mo1_7 1_555 1_555
Mo1_7 C9_7 1_555 1_555
N8_3 C1_7 1_555 1_555
N2_7 C2_7 1_555 1_555
C9_7 N8 1_555 1_555
C10_7 Mo1_7 1_555 1_555
C11_7 Mo1_7 1_555 1_555
C12_7 Mo1_7 1_555 1_555
C13_7 Mo1_7 1_555 1_555
C14_7 Mo1_7 1_555 1_555
N8_2 C10_7 1_555 1_555
N8_4 C11_7 1_555 1_555
N12_7 C14_7 1_555 1_555
C1_8 Mo1_8 1_555 1_555
C2_8 Mo1_8 1_555 1_555
Mo1_8 C9_8 1_555 1_555
N9_6 C1_8 1_555 1_555
N2_8 C2_8 1_555 1_555
C9_8 N9_8 1_555 1_555
C10_8 Mo1_8 1_555 1_555
C11_8 Mo1_8 1_555 1_555
C12_8 Mo1_8 1_555 1_555
C13_8 Mo1_8 1_555 1_555
C14_8 Mo1_8 1_555 1_555
N9_7 C10_8 1_555 1_555
N9_5 C11_8 1_555 1_555
N12_8 C14_8 1_555 1_555

#END
