
###############################################################################
#
# This file contains modified crystal structure data generated from the
# MOF subset of the Cambridge Structural Database (CSD) v543 
# hosted by the Cambridge Crystallographic Data Centre (CCDC).
#
# This work is licensed under the Creative Commons
# Attribution-NonCommercial-ShareAlike 4.0 International License.
# To view a copy of this license, visit
# http://creativecommons.org/licenses/by-nc-sa/4.0/
# or send a letter to
# Creative Commons, PO Box 1866, Mountain View, CA 94042, USA.
#
# CIF created using the CSD Python API on 29 September 2022
# The structure has been converted into the P1 space group
# The structure has a 3D framework
# The original CSD entry NULNOA is in the rhombohedral crystal system
# The framework has been calculated to contain at least 10.0% void space
# The void calculation uses a probe of radius 1.32A, grid spacing 0.4
# H atom positions have been added when not included in the experimental data
# Generated hydrogen atom positions removed from atoms on special positions
#
###############################################################################

data_NULNOA
_chemical_formula_moiety         '(C468 H324 Cu54 N72 O184)n'
_symmetry_cell_setting           triclinic
_symmetry_space_group_name_H-M   'P 1'
_symmetry_Int_Tables_number      1
_space_group_name_Hall           'P 1'
loop_
_symmetry_equiv_pos_site_id
_symmetry_equiv_pos_as_xyz
1 x,y,z
_cell_length_a                   18.4889(6)
_cell_length_b                   18.4889(6)
_cell_length_c                   55.2602(18)
_cell_angle_alpha                90
_cell_angle_beta                 90
_cell_angle_gamma                120
_cell_volume                     16359.3
loop_
_atom_site_label
_atom_site_type_symbol
_atom_site_fract_x
_atom_site_fract_y
_atom_site_fract_z
O13 O 0.13594(21) 0.46324(15) 0.49281(4)
O14 O 0.22323(18) 0.56953(13) 0.46968(4)
N5 N 0.11935(23) 0.61594(16) 0.36337(4)
C29 C 0.07804(25) 0.50502(18) 0.46129(5)
C30 C 0.09160(25) 0.54096(18) 0.43838(5)
H20 H 0.1466 0.5701 0.4320
C31 C 0.02555(27) 0.53450(19) 0.42491(5)
C34 C 0.14971(25) 0.51221(18) 0.47594(5)
C35 C 0.03911(27) 0.57292(19) 0.40038(5)
C37 C 0.0001(3) 0.6356(2) 0.36865(6)
C38 C 0.06637(27) 0.6403(2) 0.35491(5)
H23 H 0.0743 0.6617 0.3389
C39 C 0.10518(25) 0.58285(18) 0.38576(5)
H24 H 0.1420 0.5654 0.3919
Cu6 Cu 0.30338(2) 0.55691(2) 0.49019(2)
Cu10 Cu 0.25353(3) 0.69662(2) 0.49019(2)
Cu11 Cu 0.22358(2) 0.63671(2) 0.34314(2)
Cu1 Cu 0.6667 0.3333 0.46087(2)
Cu2 Cu 0.69662(2) 0.44309(2) 0.50981(2)
O1 O 0.5852(2) 0.37354(19) 0.45716(5)
O2 O 0.6667 0.3333 0.42573(9)
O3 O 0.63516(14) 0.47087(13) 0.48643(4)
O4 O 0.53676(15) 0.67270(15) 0.49281(4)
O5 O 0.43047(13) 0.65370(13) 0.46968(4)
O6 O 0.6667 0.3333 0.49576(6)
N1 N 0.38406(16) 0.50341(16) 0.36337(4)
N2 N 0.3354(3) 0.2853(2) 0.35957(6)
H1 H 0.3395 0.2470 0.3686
H2 H 0.3129 0.2718 0.3447
C1 C 0.5436(2) 0.47475(19) 0.45759(5)
C2 C 0.53728(18) 0.53550(18) 0.47066(5)
H3 H 0.5623 0.5514 0.4862
C3 C 0.49498(18) 0.57302(18) 0.46129(5)
C4 C 0.45904(18) 0.55064(18) 0.43838(5)
H4 H 0.4299 0.5765 0.4320
C5 C 0.46550(19) 0.49105(19) 0.42491(5)
C6 C 0.5078(2) 0.45277(19) 0.43457(5)
H5 H 0.5123 0.4116 0.4255
C7 C 0.5922(2) 0.43573(19) 0.46790(5)
C8 C 0.48779(18) 0.63750(17) 0.47594(5)
C9 C 0.42708(19) 0.46619(19) 0.40038(5)
C10 C 0.3998(2) 0.3863(2) 0.39167(6)
H6 H 0.4053 0.3467 0.4013
C11 C 0.3644(2) 0.3645(2) 0.36865(6)
C12 C 0.3597(2) 0.42607(18) 0.35491(5)
H7 H 0.3383 0.4126 0.3389
C13 C 0.41715(18) 0.52233(18) 0.38576(5)
H8 H 0.4346 0.5766 0.3919
Cu3 Cu 0.55691(2) 0.25353(3) 0.50981(2)
O7 O 0.62646(19) 0.21166(28) 0.45716(5)
O8 O 0.52913(13) 0.16429(19) 0.48643(4)
N4 N 0.7147(2) 0.0501(4) 0.35957(6)
H9 H 0.7530 0.0925 0.3686
H10 H 0.7282 0.0411 0.3447
C14 C 0.52525(19) 0.06885(28) 0.45759(5)
C15 C 0.46450(18) 0.00178(25) 0.47066(5)
H11 H 0.4486 0.0109 0.4862
C19 C 0.54723(19) 0.05503(28) 0.43457(5)
H13 H 0.5884 0.1007 0.4255
C20 C 0.56427(19) 0.15647(28) 0.46790(5)
C23 C 0.6137(2) 0.0135(3) 0.39167(6)
H14 H 0.6533 0.0586 0.4013
Cu4 Cu 0.74647(3) 0.30338(2) 0.50981(2)
O11 O 0.78834(28) 0.4148(2) 0.45716(5)
O12 O 0.83571(19) 0.36484(14) 0.48643(4)
N6 N 0.9499(4) 0.6646(3) 0.35957(6)
H17 H 0.9075 0.6605 0.3686
H18 H 0.9589 0.6871 0.3447
C27 C 0.93115(28) 0.4564(2) 0.45759(5)
C28 C 0.99822(25) 0.46272(18) 0.47066(5)
H19 H 0.9891 0.4377 0.4862
C32 C 0.94497(28) 0.4922(2) 0.43457(5)
H21 H 0.8993 0.4877 0.4255
C33 C 0.84353(28) 0.4078(2) 0.46790(5)
C36 C 0.9865(3) 0.6002(2) 0.39167(6)
H22 H 0.9414 0.5947 0.4013
Cu8 Cu 0.44309(2) 0.74647(3) 0.49019(2)
Cu13 Cu 0.36329(2) 0.58686(3) 0.34314(2)
O15 O 0.46324(15) 0.32730(15) 0.50719(4)
O16 O 0.67270(15) 0.13594(21) 0.50719(4)
O17 O 0.86406(21) 0.53676(15) 0.50719(4)
O18 O 0.56953(13) 0.34630(13) 0.53032(4)
O19 O 0.65370(13) 0.22323(18) 0.53032(4)
O20 O 0.77677(18) 0.43047(13) 0.53032(4)
N7 N 0.82992(16) 0.28261(16) 0.53004(4)
N8 N 0.45268(23) 0.17008(16) 0.53004(4)
N9 N 0.71739(16) 0.54732(23) 0.53004(4)
O9 O 0.32730(15) 0.86406(21) 0.49281(4)
O10 O 0.34630(13) 0.77677(18) 0.46968(4)
N3 N 0.49659(16) 0.88065(23) 0.36337(4)
C16 C 0.42698(18) 0.92196(25) 0.46129(5)
C17 C 0.44936(18) 0.90840(25) 0.43838(5)
H12 H 0.4235 0.8534 0.4320
C18 C 0.50895(19) 0.97445(27) 0.42491(5)
C21 C 0.36250(17) 0.85029(25) 0.47594(5)
C22 C 0.53381(19) 0.96089(27) 0.40038(5)
C24 C 0.6355(2) 0.9999(3) 0.36865(6)
C25 C 0.57393(18) 0.93363(27) 0.35491(5)
H15 H 0.5874 0.9257 0.3389
C26 C 0.47767(18) 0.89482(25) 0.38576(5)
H16 H 0.4234 0.8580 0.3919
Cu12 Cu 0.41314(3) 0.77642(2) 0.34314(2)
O13_2 O 0.46324(15) 0.13594(21) 0.00719(4)
O14_2 O 0.56953(13) 0.22323(18) 0.03032(4)
N5_2 N 0.61594(16) 0.11935(23) 0.13663(4)
C29_2 C 0.50502(18) 0.07804(25) 0.03871(5)
C30_2 C 0.54096(18) 0.09160(25) 0.06162(5)
H20_2 H 0.5701 0.1466 0.0680
C31_2 C 0.53450(19) 0.02555(27) 0.07509(5)
C34_2 C 0.51221(18) 0.14971(25) 0.02406(5)
C35_2 C 0.57292(19) 0.03911(27) 0.09962(5)
C37_2 C 0.6356(2) 0.0001(3) 0.13135(6)
C38_2 C 0.6403(2) 0.06637(27) 0.14509(5)
H23_2 H 0.6617 0.0743 0.1611
C39_2 C 0.58285(18) 0.10518(25) 0.11424(5)
H24_2 H 0.5654 0.1420 0.1081
Cu6_2 Cu 0.55691(2) 0.30338(2) 0.00981(2)
Cu10_2 Cu 0.69662(2) 0.25353(3) 0.00981(2)
Cu11_2 Cu 0.63671(2) 0.22358(2) 0.15686(2)
Cu1_2 Cu 0.3333 0.6667 0.03913(2)
O1_2 O 0.37354(19) 0.5852(2) 0.04284(5)
O2_2 O 0.3333 0.6667 0.07427(9)
O3_2 O 0.47087(13) 0.63516(14) 0.01357(4)
O4_2 O 0.67270(15) 0.53676(15) 0.00719(4)
O5_2 O 0.65370(13) 0.43047(13) 0.03032(4)
O6_2 O 0.3333 0.6667 0.00424(6)
N1_2 N 0.50341(16) 0.38406(16) 0.13663(4)
N2_2 N 0.2853(2) 0.3354(3) 0.14043(6)
H1_2 H 0.2470 0.3395 0.1314
H2_2 H 0.2718 0.3129 0.1553
C1_2 C 0.47475(19) 0.5436(2) 0.04241(5)
C2_2 C 0.53550(18) 0.53728(18) 0.02934(5)
H3_2 H 0.5514 0.5623 0.0138
C3_2 C 0.57302(18) 0.49498(18) 0.03871(5)
C4_2 C 0.55064(18) 0.45904(18) 0.06162(5)
H4_2 H 0.5765 0.4299 0.0680
C5_2 C 0.49105(19) 0.46550(19) 0.07509(5)
C6_2 C 0.45277(19) 0.5078(2) 0.06543(5)
H5_2 H 0.4116 0.5123 0.0745
C7_2 C 0.43573(19) 0.5922(2) 0.03210(5)
C8_2 C 0.63750(17) 0.48779(18) 0.02406(5)
C9_2 C 0.46619(19) 0.42708(19) 0.09962(5)
C10_2 C 0.3863(2) 0.3998(2) 0.10833(6)
H6_2 H 0.3467 0.4053 0.0987
C11_2 C 0.3645(2) 0.3644(2) 0.13135(6)
C12_2 C 0.42607(18) 0.3597(2) 0.14509(5)
H7_2 H 0.4126 0.3383 0.1611
C13_2 C 0.52233(18) 0.41715(18) 0.11424(5)
H8_2 H 0.5766 0.4346 0.1081
O7_2 O 0.21166(28) 0.62646(19) 0.04284(5)
O8_2 O 0.16429(19) 0.52913(13) 0.01357(4)
N4_2 N 0.0501(4) 0.7147(2) 0.14043(6)
H9_2 H 0.0925 0.7530 0.1314
H10_2 H 0.0411 0.7282 0.1553
C14_2 C 0.06885(28) 0.52525(19) 0.04241(5)
C15_2 C 0.00178(25) 0.46450(18) 0.02934(5)
H11_2 H 0.0109 0.4486 0.0138
C19_2 C 0.05503(28) 0.54723(19) 0.06543(5)
H13_2 H 0.1007 0.5884 0.0745
C20_2 C 0.15647(28) 0.56427(19) 0.03210(5)
C23_2 C 0.0135(3) 0.6137(2) 0.10833(6)
H14_2 H 0.0586 0.6533 0.0987
O11_2 O 0.4148(2) 0.78834(28) 0.04284(5)
O12_2 O 0.36484(14) 0.83571(19) 0.01357(4)
N6_2 N 0.6646(3) 0.9499(4) 0.14043(6)
H17_2 H 0.6605 0.9075 0.1314
H18_2 H 0.6871 0.9589 0.1553
C27_2 C 0.4564(2) 0.93115(28) 0.04241(5)
C28_2 C 0.46272(18) 0.99822(25) 0.02934(5)
H19_2 H 0.4377 0.9891 0.0138
C32_2 C 0.4922(2) 0.94497(28) 0.06543(5)
H21_2 H 0.4877 0.8993 0.0745
C33_2 C 0.4078(2) 0.84353(28) 0.03210(5)
C36_2 C 0.6002(2) 0.9865(3) 0.10833(6)
H22_2 H 0.5947 0.9414 0.0987
Cu8_2 Cu 0.74647(3) 0.44309(2) 0.00981(2)
Cu13_2 Cu 0.58686(3) 0.36329(2) 0.15686(2)
Cu2_2 Cu 0.44309(2) 0.69662(2) 0.99019(2)
Cu3_2 Cu 0.25353(3) 0.55691(2) 0.99019(2)
Cu4_2 Cu 0.30338(2) 0.74647(3) 0.99019(2)
O15_2 O 0.32730(15) 0.46324(15) 0.99281(4)
O16_2 O 0.13594(21) 0.67270(15) 0.99281(4)
O17_2 O 0.53676(15) 0.86406(21) 0.99281(4)
O18_2 O 0.34630(13) 0.56953(13) 0.96968(4)
O19_2 O 0.22323(18) 0.65370(13) 0.96968(4)
O20_2 O 0.43047(13) 0.77677(18) 0.96968(4)
N7_2 N 0.28261(16) 0.82992(16) 0.96996(4)
N8_2 N 0.17008(16) 0.45268(23) 0.96996(4)
N9_2 N 0.54732(23) 0.71739(16) 0.96996(4)
O9_2 O 0.86406(21) 0.32730(15) 0.00719(4)
O10_2 O 0.77677(18) 0.34630(13) 0.03032(4)
N3_2 N 0.88065(23) 0.49659(16) 0.13663(4)
C16_2 C 0.92196(25) 0.42698(18) 0.03871(5)
C17_2 C 0.90840(25) 0.44936(18) 0.06162(5)
H12_2 H 0.8534 0.4235 0.0680
C18_2 C 0.97445(27) 0.50895(19) 0.07509(5)
C21_2 C 0.85029(25) 0.36250(17) 0.02406(5)
C22_2 C 0.96089(27) 0.53381(19) 0.09962(5)
C24_2 C 0.9999(3) 0.6355(2) 0.13135(6)
C25_2 C 0.93363(27) 0.57393(18) 0.14509(5)
H15_2 H 0.9257 0.5874 0.1611
C26_2 C 0.89482(25) 0.47767(18) 0.11424(5)
H16_2 H 0.8580 0.4234 0.1081
Cu12_2 Cu 0.77642(2) 0.41314(3) 0.15686(2)
O4_3 O 0.20343(15) 0.00603(15) 0.82614(4)
H18_3 H 0.6256 0.0204 0.6780
Cu8_3 Cu 0.10976(2) 0.07980(3) 0.82352(2)
Cu10_3 Cu 0.92020(3) 0.02995(2) 0.82352(2)
Cu1_3 Cu 0.3334 0.6666 0.79420(2)
Cu2_3 Cu 0.36329(2) 0.77642(2) 0.84314(2)
O1_3 O 0.2519(2) 0.70687(19) 0.79049(5)
O2_3 O 0.3334 0.6666 0.75906(9)
O3_3 O 0.30183(14) 0.80420(13) 0.81976(4)
O5_3 O 0.09714(13) 0.98703(13) 0.80301(4)
O6_3 O 0.3334 0.6666 0.82909(6)
N1_3 N 0.05073(16) 0.83674(16) 0.69670(4)
N2_3 N 0.0021(3) 0.6186(2) 0.69290(6)
H1_3 H 0.0062 0.5803 0.7019
C1_3 C 0.2103(2) 0.80808(19) 0.79092(5)
C2_3 C 0.20395(18) 0.86883(18) 0.80399(5)
H3_3 H 0.2290 0.8847 0.8195
C3_3 C 0.16165(18) 0.90635(18) 0.79462(5)
C4_3 C 0.12571(18) 0.88397(18) 0.77171(5)
H4_3 H 0.0966 0.9098 0.7653
C5_3 C 0.13217(19) 0.82438(19) 0.75824(5)
C6_3 C 0.1745(2) 0.78610(19) 0.76790(5)
H5_3 H 0.1790 0.7449 0.7588
C7_3 C 0.2589(2) 0.76906(19) 0.80123(5)
C8_3 C 0.15446(18) 0.97083(17) 0.80927(5)
C9_3 C 0.09375(19) 0.79952(19) 0.73371(5)
C10_3 C 0.0665(2) 0.7196(2) 0.72500(6)
H6_3 H 0.0720 0.6800 0.7346
C11_3 C 0.0311(2) 0.6978(2) 0.70198(6)
C12_3 C 0.0264(2) 0.75940(18) 0.68824(5)
H7_3 H 0.0050 0.7459 0.6722
C13_3 C 0.08382(18) 0.85566(18) 0.71909(5)
H8_3 H 0.1013 0.9099 0.7252
Cu3_3 Cu 0.22358(2) 0.58686(3) 0.84314(2)
O7_3 O 0.29313(19) 0.54499(28) 0.79049(5)
O8_3 O 0.19580(13) 0.49762(19) 0.81976(4)
O10_3 O 0.01297(13) 0.11010(18) 0.80301(4)
N3_3 N 0.16326(16) 0.21398(23) 0.69670(4)
N4_3 N 0.3814(2) 0.3834(4) 0.69290(6)
H9_3 H 0.4197 0.4258 0.7019
H10_3 H 0.3949 0.3744 0.6780
C14_3 C 0.19192(19) 0.40218(28) 0.79092(5)
C15_3 C 0.13117(18) 0.33511(25) 0.80399(5)
H11_3 H 0.1153 0.3442 0.8195
C16_3 C 0.09365(18) 0.25529(25) 0.79462(5)
C17_3 C 0.11603(18) 0.24173(25) 0.77171(5)
H12_3 H 0.0902 0.1867 0.7653
C18_3 C 0.17562(19) 0.30778(27) 0.75824(5)
C19_3 C 0.21390(19) 0.38836(28) 0.76790(5)
H13_3 H 0.2551 0.4340 0.7588
C20_3 C 0.23094(19) 0.48980(28) 0.80123(5)
C21_3 C 0.02917(17) 0.18362(25) 0.80927(5)
C22_3 C 0.20048(19) 0.29422(27) 0.73371(5)
C23_3 C 0.2804(2) 0.3468(3) 0.72500(6)
H14_3 H 0.3200 0.3919 0.7346
C24_3 C 0.3022(2) 0.3332(3) 0.70198(6)
C25_3 C 0.24060(18) 0.26696(27) 0.68824(5)
H15_3 H 0.2541 0.2590 0.6722
C26_3 C 0.14434(18) 0.22815(25) 0.71909(5)
H16_3 H 0.0901 0.1913 0.7252
Cu4_3 Cu 0.41314(3) 0.63671(2) 0.84314(2)
O11_3 O 0.45501(28) 0.7481(2) 0.79049(5)
O12_3 O 0.50238(19) 0.69817(14) 0.81976(4)
O13_3 O 0.80261(21) 0.79657(15) 0.82614(4)
O14_3 O 0.88990(18) 0.90286(13) 0.80301(4)
N5_3 N 0.78602(23) 0.94927(16) 0.69670(4)
N6_3 N 0.6166(4) 0.9979(3) 0.69290(6)
H17_3 H 0.5742 0.9938 0.7019
C27_3 C 0.59782(28) 0.7897(2) 0.79092(5)
C28_3 C 0.66489(25) 0.79605(18) 0.80399(5)
H19_3 H 0.6558 0.7710 0.8195
C29_3 C 0.74471(25) 0.83835(18) 0.79462(5)
C30_3 C 0.75827(25) 0.87429(18) 0.77171(5)
H20_3 H 0.8133 0.9034 0.7653
C31_3 C 0.69222(27) 0.86783(19) 0.75824(5)
C32_3 C 0.61164(28) 0.8255(2) 0.76790(5)
H21_3 H 0.5660 0.8210 0.7588
C33_3 C 0.51020(28) 0.7411(2) 0.80123(5)
C34_3 C 0.81638(25) 0.84554(18) 0.80927(5)
C35_3 C 0.70578(27) 0.90625(19) 0.73371(5)
C36_3 C 0.6532(3) 0.9335(2) 0.72500(6)
H22_3 H 0.6081 0.9280 0.7346
C37_3 C 0.6668(3) 0.9689(2) 0.70198(6)
C38_3 C 0.73304(27) 0.9736(2) 0.68824(5)
H23_3 H 0.7410 0.9950 0.6722
C39_3 C 0.77185(25) 0.91618(18) 0.71909(5)
H24_3 H 0.8087 0.8987 0.7252
Cu6_3 Cu 0.97005(2) 0.89024(2) 0.82352(2)
Cu11_3 Cu 0.89024(2) 0.97005(2) 0.67648(2)
Cu12_3 Cu 0.07980(3) 0.10976(2) 0.67648(2)
Cu13_3 Cu 0.02995(2) 0.92020(3) 0.67648(2)
O15_3 O 0.12991(15) 0.66063(15) 0.84052(4)
O16_3 O 0.33937(15) 0.46927(21) 0.84052(4)
O17_3 O 0.53073(21) 0.87009(15) 0.84052(4)
O18_3 O 0.23620(13) 0.67963(13) 0.86365(4)
O19_3 O 0.32037(13) 0.55656(18) 0.86365(4)
O20_3 O 0.44344(18) 0.76380(13) 0.86365(4)
N7_3 N 0.49659(16) 0.61594(16) 0.86337(4)
N8_3 N 0.11935(23) 0.50341(16) 0.86337(4)
N9_3 N 0.38406(16) 0.88065(23) 0.86337(4)
H2_3 H 0.9796 0.6051 0.6780
O9_3 O 0.99397(15) 0.19739(21) 0.82614(4)
Cu1_4 Cu -0.0000 0.0000 0.37246(2)
Cu2_4 Cu 0.10976(2) 0.02995(2) 0.32352(2)
O2_4 O -0.0000 0.0000 0.40760(9)
O6_4 O -0.0000 0.0000 0.33757(6)
O11_4 O 0.0815(2) 0.12167(28) 0.37617(5)
O12_4 O 0.03151(14) 0.16904(19) 0.34690(4)
O13_4 O 0.12991(15) 0.46927(21) 0.34052(4)
O14_4 O 0.23620(13) 0.55656(18) 0.36365(4)
N5_4 N 0.28261(16) 0.45268(23) 0.46996(4)
N6_4 N 0.3313(3) 0.2832(4) 0.47376(6)
H17_4 H 0.3272 0.2408 0.4647
H18_4 H 0.3538 0.2922 0.4886
C27_4 C 0.1231(2) 0.26448(28) 0.37574(5)
C28_4 C 0.12939(18) 0.33155(25) 0.36267(5)
H19_4 H 0.1044 0.3224 0.3471
C29_4 C 0.17169(18) 0.41137(25) 0.37204(5)
C30_4 C 0.20763(18) 0.42493(25) 0.39495(5)
H20_4 H 0.2368 0.4799 0.4013
C31_4 C 0.20117(19) 0.35888(27) 0.40842(5)
C32_4 C 0.1589(2) 0.27830(28) 0.39876(5)
H21_4 H 0.1544 0.2326 0.4078
C33_4 C 0.0745(2) 0.17686(28) 0.36543(5)
C34_4 C 0.17888(18) 0.48304(25) 0.35739(5)
C35_4 C 0.23959(19) 0.37244(27) 0.43295(5)
C36_4 C 0.2669(2) 0.3198(3) 0.44166(6)
H22_4 H 0.2614 0.2747 0.4320
C37_4 C 0.3023(2) 0.3334(3) 0.46468(6)
C38_4 C 0.3070(2) 0.39970(27) 0.47842(5)
H23_4 H 0.3284 0.4076 0.4944
C39_4 C 0.24952(18) 0.43851(25) 0.44757(5)
H24_4 H 0.2321 0.4753 0.4414
O17_4 O 0.20343(15) 0.19739(21) 0.32614(4)
O20_4 O 0.09714(13) 0.11010(18) 0.30301(4)
N9_4 N 0.21398(23) 0.05073(16) 0.30330(4)
H25 H 0.0573482 0.0190003 0.413593
Cu1_5 Cu -0.0000 1.0000 0.37246(2)
O1_4 O 0.04021(19) 0.9185(2) 0.37617(5)
O2_5 O -0.0000 1.0000 0.40760(9)
O3_4 O 0.13754(13) 0.96849(14) 0.34690(4)
O4_4 O 0.33937(15) 0.87009(15) 0.34052(4)
O5_4 O 0.32037(13) 0.76380(13) 0.36365(4)
O6_5 O -0.0000 1.0000 0.33757(6)
N1_4 N 0.17008(16) 0.71739(16) 0.46996(4)
C1_4 C 0.14142(19) 0.8769(2) 0.37574(5)
C2_4 C 0.20217(18) 0.87061(18) 0.36267(5)
H3_4 H 0.2181 0.8956 0.3471
C3_4 C 0.23969(18) 0.82831(18) 0.37204(5)
C4_4 C 0.21731(18) 0.79237(18) 0.39495(5)
H4_4 H 0.2432 0.7632 0.4013
C5_4 C 0.15772(19) 0.79883(19) 0.40842(5)
C6_4 C 0.11944(19) 0.8411(2) 0.39876(5)
H5_4 H 0.0783 0.8456 0.4078
C7_4 C 0.10240(19) 0.9255(2) 0.36543(5)
C8_4 C 0.30417(17) 0.82112(18) 0.35739(5)
C9_4 C 0.13286(19) 0.76041(19) 0.43295(5)
C10_4 C 0.0530(2) 0.7331(2) 0.44166(6)
H6_4 H 0.0134 0.7386 0.4320
C11_4 C 0.0312(2) 0.6977(2) 0.46468(6)
C12_4 C 0.09274(18) 0.6930(2) 0.47842(5)
H7_4 H 0.0793 0.6716 0.4944
C13_4 C 0.18900(18) 0.75048(18) 0.44757(5)
H8_4 H 0.2433 0.7679 0.4414
O18_4 O 0.01297(13) 0.90286(13) 0.30301(4)
Cu1_6 Cu 1.0000 0.0000 0.37246(2)
O2_6 O 1.0000 0.0000 0.40760(9)
O6_6 O 1.0000 0.0000 0.33757(6)
N4_4 N 0.7168(4) 0.0480(2) 0.47376(6)
H9_4 H 0.7592 0.0863 0.4647
H10_4 H 0.7078 0.0615 0.4886
Cu4_4 Cu 0.97005(2) 0.07980(3) 0.32352(2)
O16_4 O 0.80261(21) 0.00603(15) 0.32614(4)
N7_4 N 0.94927(16) 0.16326(16) 0.30330(4)
H26 H 0.981 0.038448 0.413593
Cu1_7 Cu 1.0000 1.0000 0.37246(2)
O2_7 O 1.0000 1.0000 0.40760(9)
O6_7 O 1.0000 1.0000 0.33757(6)
N2_4 N 0.9520(2) 0.6687(3) 0.47376(6)
H1_4 H 0.9137 0.6728 0.4647
H2_4 H 0.9385 0.6462 0.4886
Cu3_4 Cu 0.92020(3) 0.89024(2) 0.32352(2)
O7_4 O 0.87833(28) 0.95979(19) 0.37617(5)
O8_4 O 0.83096(19) 0.86246(13) 0.34690(4)
O9_4 O 0.53073(21) 0.66063(15) 0.34052(4)
O10_4 O 0.44344(18) 0.67963(13) 0.36365(4)
N3_4 N 0.54732(23) 0.82992(16) 0.46996(4)
C14_4 C 0.73552(28) 0.85858(19) 0.37574(5)
C15_4 C 0.66845(25) 0.79783(18) 0.36267(5)
H11_4 H 0.6776 0.7819 0.3471
C16_4 C 0.58863(25) 0.76031(18) 0.37204(5)
C17_4 C 0.57507(25) 0.78269(18) 0.39495(5)
H12_4 H 0.5201 0.7568 0.4013
C18_4 C 0.64112(27) 0.84228(19) 0.40842(5)
C19_4 C 0.72170(28) 0.88056(19) 0.39876(5)
H13_4 H 0.7674 0.9217 0.4078
C20_4 C 0.82314(28) 0.89760(19) 0.36543(5)
C21_4 C 0.51696(25) 0.69583(17) 0.35739(5)
C22_4 C 0.62756(27) 0.86714(19) 0.43295(5)
C23_4 C 0.6802(3) 0.9470(2) 0.44166(6)
H14_4 H 0.7253 0.9866 0.4320
C24_4 C 0.6666(3) 0.9688(2) 0.46468(6)
C25_4 C 0.60030(27) 0.90726(18) 0.47842(5)
H15_4 H 0.5924 0.9207 0.4944
C26_4 C 0.56149(25) 0.81100(18) 0.44757(5)
H16_4 H 0.5247 0.7567 0.4414
O15_4 O 0.99397(15) 0.79657(15) 0.32614(4)
O19_4 O 0.88990(18) 0.98703(13) 0.30301(4)
N8_4 N 0.83674(16) 0.78602(23) 0.30330(4)
H25_2 H 0.961652 0.942652 0.413593
Cu1_8 Cu 0.0000 -0.0000 0.12754(2)
Cu2_5 Cu 0.02995(2) 0.10976(2) 0.17648(2)
O2_8 O 0.0000 -0.0000 0.09240(9)
O6_8 O 0.0000 -0.0000 0.16243(6)
O11_5 O 0.12167(28) 0.0815(2) 0.12383(5)
O12_5 O 0.16904(19) 0.03151(14) 0.15310(4)
O13_5 O 0.46927(21) 0.12991(15) 0.15948(4)
O14_5 O 0.55656(18) 0.23620(13) 0.13635(4)
N5_5 N 0.45268(23) 0.28261(16) 0.03004(4)
N6_5 N 0.2832(4) 0.3313(3) 0.02624(6)
H17_5 H 0.2408 0.3272 0.0353
H18_5 H 0.2922 0.3538 0.0114
C27_5 C 0.26448(28) 0.1231(2) 0.12426(5)
C28_5 C 0.33155(25) 0.12939(18) 0.13733(5)
H19_5 H 0.3224 0.1044 0.1529
C29_5 C 0.41137(25) 0.17169(18) 0.12796(5)
C30_5 C 0.42493(25) 0.20763(18) 0.10505(5)
H20_5 H 0.4799 0.2368 0.0987
C31_5 C 0.35888(27) 0.20117(19) 0.09158(5)
C32_5 C 0.27830(28) 0.1589(2) 0.10124(5)
H21_5 H 0.2326 0.1544 0.0922
C33_5 C 0.17686(28) 0.0745(2) 0.13457(5)
C34_5 C 0.48304(25) 0.17888(18) 0.14261(5)
C35_5 C 0.37244(27) 0.23959(19) 0.06705(5)
C36_5 C 0.3198(3) 0.2669(2) 0.05834(6)
H22_5 H 0.2747 0.2614 0.0680
C37_5 C 0.3334(3) 0.3023(2) 0.03532(6)
C38_5 C 0.39970(27) 0.3070(2) 0.02158(5)
H23_5 H 0.4076 0.3284 0.0056
C39_5 C 0.43851(25) 0.24952(18) 0.05243(5)
H24_5 H 0.4753 0.2321 0.0586
O17_5 O 0.19739(21) 0.20343(15) 0.17386(4)
O20_5 O 0.11010(18) 0.09714(13) 0.19699(4)
N9_5 N 0.05073(16) 0.21398(23) 0.19670(4)
H25_3 H 0.0190003 0.0573482 0.0864068
Cu1_9 Cu 0.0000 1.0000 0.12754(2)
O2_9 O 0.0000 1.0000 0.09240(9)
O6_9 O 0.0000 1.0000 0.16243(6)
N4_5 N 0.0480(2) 0.7168(4) 0.02624(6)
H9_5 H 0.0863 0.7592 0.0353
H10_5 H 0.0615 0.7078 0.0114
Cu4_5 Cu 0.07980(3) 0.97005(2) 0.17648(2)
O16_5 O 0.00603(15) 0.80261(21) 0.17386(4)
N7_5 N 0.16326(16) 0.94927(16) 0.19670(4)
H26_2 H 0.038448 0.981 0.0864068
Cu1_10 Cu 1.0000 -0.0000 0.12754(2)
O1_5 O 0.9185(2) 0.04021(19) 0.12383(5)
O2_10 O 1.0000 -0.0000 0.09240(9)
O3_5 O 0.96849(14) 0.13754(13) 0.15310(4)
O4_5 O 0.87009(15) 0.33937(15) 0.15948(4)
O5_5 O 0.76380(13) 0.32037(13) 0.13635(4)
O6_10 O 1.0000 -0.0000 0.16243(6)
N1_5 N 0.71739(16) 0.17008(16) 0.03004(4)
C1_5 C 0.8769(2) 0.14142(19) 0.12426(5)
C2_5 C 0.87061(18) 0.20217(18) 0.13733(5)
H3_5 H 0.8956 0.2181 0.1529
C3_5 C 0.82831(18) 0.23969(18) 0.12796(5)
C4_5 C 0.79237(18) 0.21731(18) 0.10505(5)
H4_5 H 0.7632 0.2432 0.0987
C5_5 C 0.79883(19) 0.15772(19) 0.09158(5)
C6_5 C 0.8411(2) 0.11944(19) 0.10124(5)
H5_5 H 0.8456 0.0783 0.0922
C7_5 C 0.9255(2) 0.10240(19) 0.13457(5)
C8_5 C 0.82112(18) 0.30417(17) 0.14261(5)
C9_5 C 0.76041(19) 0.13286(19) 0.06705(5)
C10_5 C 0.7331(2) 0.0530(2) 0.05834(6)
H6_5 H 0.7386 0.0134 0.0680
C11_5 C 0.6977(2) 0.0312(2) 0.03532(6)
C12_5 C 0.6930(2) 0.09274(18) 0.02158(5)
H7_5 H 0.6716 0.0793 0.0056
C13_5 C 0.75048(18) 0.18900(18) 0.05243(5)
H8_5 H 0.7679 0.2433 0.0586
O18_5 O 0.90286(13) 0.01297(13) 0.19699(4)
Cu1_11 Cu 1.0000 1.0000 0.12754(2)
O2_11 O 1.0000 1.0000 0.09240(9)
O6_11 O 1.0000 1.0000 0.16243(6)
N2_5 N 0.6687(3) 0.9520(2) 0.02624(6)
H1_5 H 0.6728 0.9137 0.0353
H2_5 H 0.6462 0.9385 0.0114
Cu3_5 Cu 0.89024(2) 0.92020(3) 0.17648(2)
O7_5 O 0.95979(19) 0.87833(28) 0.12383(5)
O8_5 O 0.86246(13) 0.83096(19) 0.15310(4)
O9_5 O 0.66063(15) 0.53073(21) 0.15948(4)
O10_5 O 0.67963(13) 0.44344(18) 0.13635(4)
N3_5 N 0.82992(16) 0.54732(23) 0.03004(4)
C14_5 C 0.85858(19) 0.73552(28) 0.12426(5)
C15_5 C 0.79783(18) 0.66845(25) 0.13733(5)
H11_5 H 0.7819 0.6776 0.1529
C16_5 C 0.76031(18) 0.58863(25) 0.12796(5)
C17_5 C 0.78269(18) 0.57507(25) 0.10505(5)
H12_5 H 0.7568 0.5201 0.0987
C18_5 C 0.84228(19) 0.64112(27) 0.09158(5)
C19_5 C 0.88056(19) 0.72170(28) 0.10124(5)
H13_5 H 0.9217 0.7674 0.0922
C20_5 C 0.89760(19) 0.82314(28) 0.13457(5)
C21_5 C 0.69583(17) 0.51696(25) 0.14261(5)
C22_5 C 0.86714(19) 0.62756(27) 0.06705(5)
C23_5 C 0.9470(2) 0.6802(3) 0.05834(6)
H14_5 H 0.9866 0.7253 0.0680
C24_5 C 0.9688(2) 0.6666(3) 0.03532(6)
C25_5 C 0.90726(18) 0.60030(27) 0.02158(5)
H15_5 H 0.9207 0.5924 0.0056
C26_5 C 0.81100(18) 0.56149(25) 0.05243(5)
H16_5 H 0.7567 0.5247 0.0586
O15_5 O 0.79657(15) 0.99397(15) 0.17386(4)
O19_5 O 0.98703(13) 0.88990(18) 0.19699(4)
N8_5 N 0.78602(23) 0.83674(16) 0.19670(4)
H25_4 H 0.942652 0.961652 0.0864068
O4_6 O 0.00603(15) 0.20343(15) 0.67386(4)
H18_6 H 0.0204 0.6256 0.8220
Cu1_12 Cu 0.6666 0.3334 0.70580(2)
Cu2_6 Cu 0.77642(2) 0.36329(2) 0.65686(2)
O1_6 O 0.70687(19) 0.2519(2) 0.70951(5)
O2_12 O 0.6666 0.3334 0.74094(9)
O3_6 O 0.80420(13) 0.30183(14) 0.68024(4)
O5_6 O 0.98703(13) 0.09714(13) 0.69699(4)
O6_12 O 0.6666 0.3334 0.67091(6)
N1_6 N 0.83674(16) 0.05073(16) 0.80330(4)
N2_6 N 0.6186(2) 0.0021(3) 0.80710(6)
H1_6 H 0.5803 0.0062 0.7981
C1_6 C 0.80808(19) 0.2103(2) 0.70908(5)
C2_6 C 0.86883(18) 0.20395(18) 0.69601(5)
H3_6 H 0.8847 0.2290 0.6805
C3_6 C 0.90635(18) 0.16165(18) 0.70538(5)
C4_6 C 0.88397(18) 0.12571(18) 0.72829(5)
H4_6 H 0.9098 0.0966 0.7347
C5_6 C 0.82438(19) 0.13217(19) 0.74176(5)
C6_6 C 0.78610(19) 0.1745(2) 0.73210(5)
H5_6 H 0.7449 0.1790 0.7412
C7_6 C 0.76906(19) 0.2589(2) 0.69877(5)
C8_6 C 0.97083(17) 0.15446(18) 0.69073(5)
C9_6 C 0.79952(19) 0.09375(19) 0.76629(5)
C10_6 C 0.7196(2) 0.0665(2) 0.77500(6)
H6_6 H 0.6800 0.0720 0.7654
C11_6 C 0.6978(2) 0.0311(2) 0.79802(6)
C12_6 C 0.75940(18) 0.0264(2) 0.81176(5)
H7_6 H 0.7459 0.0050 0.8278
C13_6 C 0.85566(18) 0.08382(18) 0.78091(5)
H8_6 H 0.9099 0.1013 0.7748
Cu3_6 Cu 0.58686(3) 0.22358(2) 0.65686(2)
O7_6 O 0.54499(28) 0.29313(19) 0.70951(5)
O8_6 O 0.49762(19) 0.19580(13) 0.68024(4)
O10_6 O 0.11010(18) 0.01297(13) 0.69699(4)
N3_6 N 0.21398(23) 0.16326(16) 0.80330(4)
N4_6 N 0.3834(4) 0.3814(2) 0.80710(6)
H9_6 H 0.4258 0.4197 0.7981
H10_6 H 0.3744 0.3949 0.8220
C14_6 C 0.40218(28) 0.19192(19) 0.70908(5)
C15_6 C 0.33511(25) 0.13117(18) 0.69601(5)
H11_6 H 0.3442 0.1153 0.6805
C16_6 C 0.25529(25) 0.09365(18) 0.70538(5)
C17_6 C 0.24173(25) 0.11603(18) 0.72829(5)
H12_6 H 0.1867 0.0902 0.7347
C18_6 C 0.30778(27) 0.17562(19) 0.74176(5)
C19_6 C 0.38836(28) 0.21390(19) 0.73210(5)
H13_6 H 0.4340 0.2551 0.7412
C20_6 C 0.48980(28) 0.23094(19) 0.69877(5)
C21_6 C 0.18362(25) 0.02917(17) 0.69073(5)
C22_6 C 0.29422(27) 0.20048(19) 0.76629(5)
C23_6 C 0.3468(3) 0.2804(2) 0.77500(6)
H14_6 H 0.3919 0.3200 0.7654
C24_6 C 0.3332(3) 0.3022(2) 0.79802(6)
C25_6 C 0.26696(27) 0.24060(18) 0.81176(5)
H15_6 H 0.2590 0.2541 0.8278
C26_6 C 0.22815(25) 0.14434(18) 0.78091(5)
H16_6 H 0.1913 0.0901 0.7748
Cu4_6 Cu 0.63671(2) 0.41314(3) 0.65686(2)
O11_6 O 0.7481(2) 0.45501(28) 0.70951(5)
O12_6 O 0.69817(14) 0.50238(19) 0.68024(4)
O13_6 O 0.79657(15) 0.80261(21) 0.67386(4)
O14_6 O 0.90286(13) 0.88990(18) 0.69699(4)
N5_6 N 0.94927(16) 0.78602(23) 0.80330(4)
N6_6 N 0.9979(3) 0.6166(4) 0.80710(6)
H17_6 H 0.9938 0.5742 0.7981
C27_6 C 0.7897(2) 0.59782(28) 0.70908(5)
C28_6 C 0.79605(18) 0.66489(25) 0.69601(5)
H19_6 H 0.7710 0.6558 0.6805
C29_6 C 0.83835(18) 0.74471(25) 0.70538(5)
C30_6 C 0.87429(18) 0.75827(25) 0.72829(5)
H20_6 H 0.9034 0.8133 0.7347
C31_6 C 0.86783(19) 0.69222(27) 0.74176(5)
C32_6 C 0.8255(2) 0.61164(28) 0.73210(5)
H21_6 H 0.8210 0.5660 0.7412
C33_6 C 0.7411(2) 0.51020(28) 0.69877(5)
C34_6 C 0.84554(18) 0.81638(25) 0.69073(5)
C35_6 C 0.90625(19) 0.70578(27) 0.76629(5)
C36_6 C 0.9335(2) 0.6532(3) 0.77500(6)
H22_6 H 0.9280 0.6081 0.7654
C37_6 C 0.9689(2) 0.6668(3) 0.79802(6)
C38_6 C 0.9736(2) 0.73304(27) 0.81176(5)
H23_6 H 0.9950 0.7410 0.8278
C39_6 C 0.91618(18) 0.77185(25) 0.78091(5)
H24_6 H 0.8987 0.8087 0.7748
O15_6 O 0.66063(15) 0.12991(15) 0.65948(4)
O16_6 O 0.46927(21) 0.33937(15) 0.65948(4)
O17_6 O 0.87009(15) 0.53073(21) 0.65948(4)
O18_6 O 0.67963(13) 0.23620(13) 0.63635(4)
O19_6 O 0.55656(18) 0.32037(13) 0.63635(4)
O20_6 O 0.76380(13) 0.44344(18) 0.63635(4)
N7_6 N 0.61594(16) 0.49659(16) 0.63663(4)
N8_6 N 0.50341(16) 0.11935(23) 0.63663(4)
N9_6 N 0.88065(23) 0.38406(16) 0.63663(4)
H2_6 H 0.6051 0.9796 0.8220
O9_6 O 0.19739(21) 0.99397(15) 0.67386(4)
C16_7 C 0.57302(18) 0.07804(25) 0.53871(5)
C17_7 C 0.55064(18) 0.09160(25) 0.56162(5)
H12_7 H 0.5765 0.1466 0.5680
C18_7 C 0.49105(19) 0.02555(27) 0.57509(5)
C21_7 C 0.63750(17) 0.14971(25) 0.52406(5)
C22_7 C 0.46619(19) 0.03911(27) 0.59962(5)
C24_7 C 0.3645(2) 0.0001(3) 0.63135(6)
C25_7 C 0.42607(18) 0.06637(27) 0.64509(5)
H15_7 H 0.4126 0.0743 0.6611
C26_7 C 0.52233(18) 0.10518(25) 0.61424(5)
H16_7 H 0.5766 0.1420 0.6081
Cu1_13 Cu 0.3333 0.6667 0.53913(2)
O1_7 O 0.4148(2) 0.62646(19) 0.54284(5)
O2_13 O 0.3333 0.6667 0.57427(9)
O3_7 O 0.36484(14) 0.52913(13) 0.51357(4)
O6_13 O 0.3333 0.6667 0.50424(6)
N2_7 N 0.6646(3) 0.7147(2) 0.64043(6)
H1_7 H 0.6605 0.7530 0.6314
H2_7 H 0.6871 0.7282 0.6553
C1_7 C 0.4564(2) 0.52525(19) 0.54241(5)
C2_7 C 0.46272(18) 0.46450(18) 0.52934(5)
H3_7 H 0.4377 0.4486 0.5138
C3_7 C 0.50502(18) 0.42698(18) 0.53871(5)
C4_7 C 0.54096(18) 0.44936(18) 0.56162(5)
H4_7 H 0.5701 0.4235 0.5680
C5_7 C 0.53450(19) 0.50895(19) 0.57509(5)
C6_7 C 0.4922(2) 0.54723(19) 0.56543(5)
H5_7 H 0.4877 0.5884 0.5745
C7_7 C 0.4078(2) 0.56427(19) 0.53210(5)
C8_7 C 0.51221(18) 0.36250(17) 0.52406(5)
C9_7 C 0.57292(19) 0.53381(19) 0.59962(5)
C10_7 C 0.6002(2) 0.6137(2) 0.60833(6)
H6_7 H 0.5947 0.6533 0.5987
C11_7 C 0.6356(2) 0.6355(2) 0.63135(6)
C12_7 C 0.6403(2) 0.57393(18) 0.64509(5)
H7_7 H 0.6617 0.5874 0.6611
C13_7 C 0.58285(18) 0.47767(18) 0.61424(5)
H8_7 H 0.5654 0.4234 0.6081
O7_7 O 0.37354(19) 0.78834(28) 0.54284(5)
O8_7 O 0.47087(13) 0.83571(19) 0.51357(4)
N4_7 N 0.2853(2) 0.9499(4) 0.64043(6)
H9_7 H 0.2470 0.9075 0.6314
H10_7 H 0.2718 0.9589 0.6553
C14_7 C 0.47475(19) 0.93115(28) 0.54241(5)
C15_7 C 0.53550(18) 0.99822(25) 0.52934(5)
H11_7 H 0.5514 0.9891 0.5138
C19_7 C 0.45277(19) 0.94497(28) 0.56543(5)
H13_7 H 0.4116 0.8993 0.5745
C20_7 C 0.43573(19) 0.84353(28) 0.53210(5)
C23_7 C 0.3863(2) 0.9865(3) 0.60833(6)
H14_7 H 0.3467 0.9414 0.5987
O11_7 O 0.21166(28) 0.5852(2) 0.54284(5)
O12_7 O 0.16429(19) 0.63516(14) 0.51357(4)
N6_7 N 0.0501(4) 0.3354(3) 0.64043(6)
H17_7 H 0.0925 0.3395 0.6314
H18_7 H 0.0411 0.3129 0.6553
C27_7 C 0.06885(28) 0.5436(2) 0.54241(5)
C28_7 C 0.00178(25) 0.53728(18) 0.52934(5)
H19_7 H 0.0109 0.5623 0.5138
C32_7 C 0.05503(28) 0.5078(2) 0.56543(5)
H21_7 H 0.1007 0.5123 0.5745
C33_7 C 0.15647(28) 0.5922(2) 0.53210(5)
C36_7 C 0.0135(3) 0.3998(2) 0.60833(6)
H22_7 H 0.0586 0.4053 0.5987
C29_7 C 0.92196(25) 0.49498(18) 0.53871(5)
C30_7 C 0.90840(25) 0.45904(18) 0.56162(5)
H20_7 H 0.8534 0.4299 0.5680
C31_7 C 0.97445(27) 0.46550(19) 0.57509(5)
C34_7 C 0.85029(25) 0.48779(18) 0.52406(5)
C35_7 C 0.96089(27) 0.42708(19) 0.59962(5)
C37_7 C 0.9999(3) 0.3644(2) 0.63135(6)
C38_7 C 0.93363(27) 0.3597(2) 0.64509(5)
H23_7 H 0.9257 0.3383 0.6611
C39_7 C 0.89482(25) 0.41715(18) 0.61424(5)
H24_7 H 0.8580 0.4346 0.6081
C16_8 C 0.07804(25) 0.57302(18) 0.96129(5)
C17_8 C 0.09160(25) 0.55064(18) 0.93838(5)
H12_8 H 0.1466 0.5765 0.9320
C18_8 C 0.02555(27) 0.49105(19) 0.92491(5)
C21_8 C 0.14971(25) 0.63750(17) 0.97594(5)
C22_8 C 0.03911(27) 0.46619(19) 0.90038(5)
C24_8 C 0.0001(3) 0.3645(2) 0.86865(6)
C25_8 C 0.06637(27) 0.42607(18) 0.85491(5)
H15_8 H 0.0743 0.4126 0.8389
C26_8 C 0.10518(25) 0.52233(18) 0.88576(5)
H16_8 H 0.1420 0.5766 0.8919
Cu1_14 Cu 0.6667 0.3333 0.96087(2)
O1_8 O 0.62646(19) 0.4148(2) 0.95716(5)
O2_14 O 0.6667 0.3333 0.92573(9)
O3_8 O 0.52913(13) 0.36484(14) 0.98643(4)
O6_14 O 0.6667 0.3333 0.99576(6)
N2_8 N 0.7147(2) 0.6646(3) 0.85957(6)
H1_8 H 0.7530 0.6605 0.8686
H2_8 H 0.7282 0.6871 0.8447
C1_8 C 0.52525(19) 0.4564(2) 0.95759(5)
C2_8 C 0.46450(18) 0.46272(18) 0.97066(5)
H3_8 H 0.4486 0.4377 0.9862
C3_8 C 0.42698(18) 0.50502(18) 0.96129(5)
C4_8 C 0.44936(18) 0.54096(18) 0.93838(5)
H4_8 H 0.4235 0.5701 0.9320
C5_8 C 0.50895(19) 0.53450(19) 0.92491(5)
C6_8 C 0.54723(19) 0.4922(2) 0.93457(5)
H5_8 H 0.5884 0.4877 0.9255
C7_8 C 0.56427(19) 0.4078(2) 0.96790(5)
C8_8 C 0.36250(17) 0.51221(18) 0.97594(5)
C9_8 C 0.53381(19) 0.57292(19) 0.90038(5)
C10_8 C 0.6137(2) 0.6002(2) 0.89167(6)
H6_8 H 0.6533 0.5947 0.9013
C11_8 C 0.6355(2) 0.6356(2) 0.86865(6)
C12_8 C 0.57393(18) 0.6403(2) 0.85491(5)
H7_8 H 0.5874 0.6617 0.8389
C13_8 C 0.47767(18) 0.58285(18) 0.88576(5)
H8_8 H 0.4234 0.5654 0.8919
O7_8 O 0.78834(28) 0.37354(19) 0.95716(5)
O8_8 O 0.83571(19) 0.47087(13) 0.98643(4)
N4_8 N 0.9499(4) 0.2853(2) 0.85957(6)
H9_8 H 0.9075 0.2470 0.8686
H10_8 H 0.9589 0.2718 0.8447
C14_8 C 0.93115(28) 0.47475(19) 0.95759(5)
C15_8 C 0.99822(25) 0.53550(18) 0.97066(5)
H11_8 H 0.9891 0.5514 0.9862
C19_8 C 0.94497(28) 0.45277(19) 0.93457(5)
H13_8 H 0.8993 0.4116 0.9255
C20_8 C 0.84353(28) 0.43573(19) 0.96790(5)
C23_8 C 0.9865(3) 0.3863(2) 0.89167(6)
H14_8 H 0.9414 0.3467 0.9013
O11_8 O 0.5852(2) 0.21166(28) 0.95716(5)
O12_8 O 0.63516(14) 0.16429(19) 0.98643(4)
N6_8 N 0.3354(3) 0.0501(4) 0.85957(6)
H17_8 H 0.3395 0.0925 0.8686
H18_8 H 0.3129 0.0411 0.8447
C27_8 C 0.5436(2) 0.06885(28) 0.95759(5)
C28_8 C 0.53728(18) 0.00178(25) 0.97066(5)
H19_8 H 0.5623 0.0109 0.9862
C32_8 C 0.5078(2) 0.05503(28) 0.93457(5)
H21_8 H 0.5123 0.1007 0.9255
C33_8 C 0.5922(2) 0.15647(28) 0.96790(5)
C36_8 C 0.3998(2) 0.0135(3) 0.89167(6)
H22_8 H 0.4053 0.0586 0.9013
C29_8 C 0.49498(18) 0.92196(25) 0.96129(5)
C30_8 C 0.45904(18) 0.90840(25) 0.93838(5)
H20_8 H 0.4299 0.8534 0.9320
C31_8 C 0.46550(19) 0.97445(27) 0.92491(5)
C34_8 C 0.48779(18) 0.85029(25) 0.97594(5)
C35_8 C 0.42708(19) 0.96089(27) 0.90038(5)
C37_8 C 0.3644(2) 0.9999(3) 0.86865(6)
C38_8 C 0.3597(2) 0.93363(27) 0.85491(5)
H23_8 H 0.3383 0.9257 0.8389
C39_8 C 0.41715(18) 0.89482(25) 0.88576(5)
H24_8 H 0.4346 0.8580 0.8919
H2_9 H 0.0204 0.3949 0.3220
Cu1_15 Cu 0.6666 0.3334 0.20580(2)
O1_9 O 0.7481(2) 0.29313(19) 0.20951(5)
O2_15 O 0.6666 0.3334 0.24094(9)
O3_9 O 0.69817(14) 0.19580(13) 0.18024(4)
O6_15 O 0.6666 0.3334 0.17091(6)
N2_9 N 0.9979(3) 0.3814(2) 0.30710(6)
H1_9 H 0.9938 0.4197 0.2981
C1_9 C 0.7897(2) 0.19192(19) 0.20908(5)
C2_9 C 0.79605(18) 0.13117(18) 0.19601(5)
H3_9 H 0.7710 0.1153 0.1805
C3_9 C 0.83835(18) 0.09365(18) 0.20538(5)
C4_9 C 0.87429(18) 0.11603(18) 0.22829(5)
H4_9 H 0.9034 0.0902 0.2347
C5_9 C 0.86783(19) 0.17562(19) 0.24176(5)
C6_9 C 0.8255(2) 0.21390(19) 0.23210(5)
H5_9 H 0.8210 0.2551 0.2412
C7_9 C 0.7411(2) 0.23094(19) 0.19877(5)
C8_9 C 0.84554(18) 0.02917(17) 0.19073(5)
C9_9 C 0.90625(19) 0.20048(19) 0.26629(5)
C10_9 C 0.9335(2) 0.2804(2) 0.27500(6)
H6_9 H 0.9280 0.3200 0.2654
C11_9 C 0.9689(2) 0.3022(2) 0.29802(6)
C12_9 C 0.9736(2) 0.24060(18) 0.31176(5)
H7_9 H 0.9950 0.2541 0.3278
C13_9 C 0.91618(18) 0.14434(18) 0.28091(5)
H8_9 H 0.8987 0.0901 0.2748
O7_9 O 0.70687(19) 0.45501(28) 0.20951(5)
O8_9 O 0.80420(13) 0.50238(19) 0.18024(4)
N4_9 N 0.6186(2) 0.6166(4) 0.30710(6)
H9_9 H 0.5803 0.5742 0.2981
H10_9 H 0.6051 0.6256 0.3220
C14_9 C 0.80808(19) 0.59782(28) 0.20908(5)
C15_9 C 0.86883(18) 0.66489(25) 0.19601(5)
H11_9 H 0.8847 0.6558 0.1805
C16_9 C 0.90635(18) 0.74471(25) 0.20538(5)
C17_9 C 0.88397(18) 0.75827(25) 0.22829(5)
H12_9 H 0.9098 0.8133 0.2347
C18_9 C 0.82438(19) 0.69222(27) 0.24176(5)
C19_9 C 0.78610(19) 0.61164(28) 0.23210(5)
H13_9 H 0.7449 0.5660 0.2412
C20_9 C 0.76906(19) 0.51020(28) 0.19877(5)
C21_9 C 0.97083(17) 0.81638(25) 0.19073(5)
C22_9 C 0.79952(19) 0.70578(27) 0.26629(5)
C23_9 C 0.7196(2) 0.6532(3) 0.27500(6)
H14_9 H 0.6800 0.6081 0.2654
C24_9 C 0.6978(2) 0.6668(3) 0.29802(6)
C25_9 C 0.75940(18) 0.73304(27) 0.31176(5)
H15_9 H 0.7459 0.7410 0.3278
C26_9 C 0.85566(18) 0.77185(25) 0.28091(5)
H16_9 H 0.9099 0.8087 0.2748
O11_9 O 0.54499(28) 0.2519(2) 0.20951(5)
O12_9 O 0.49762(19) 0.30183(14) 0.18024(4)
N6_9 N 0.3834(4) 0.0021(3) 0.30710(6)
H17_9 H 0.4258 0.0062 0.2981
C27_9 C 0.40218(28) 0.2103(2) 0.20908(5)
C28_9 C 0.33511(25) 0.20395(18) 0.19601(5)
H19_9 H 0.3442 0.2290 0.1805
C29_9 C 0.25529(25) 0.16165(18) 0.20538(5)
C30_9 C 0.24173(25) 0.12571(18) 0.22829(5)
H20_9 H 0.1867 0.0966 0.2347
C31_9 C 0.30778(27) 0.13217(19) 0.24176(5)
C32_9 C 0.38836(28) 0.1745(2) 0.23210(5)
H21_9 H 0.4340 0.1790 0.2412
C33_9 C 0.48980(28) 0.2589(2) 0.19877(5)
C34_9 C 0.18362(25) 0.15446(18) 0.19073(5)
C35_9 C 0.29422(27) 0.09375(19) 0.26629(5)
C36_9 C 0.3468(3) 0.0665(2) 0.27500(6)
H22_9 H 0.3919 0.0720 0.2654
C37_9 C 0.3332(3) 0.0311(2) 0.29802(6)
C38_9 C 0.26696(27) 0.0264(2) 0.31176(5)
H23_9 H 0.2590 0.0050 0.3278
C39_9 C 0.22815(25) 0.08382(18) 0.28091(5)
H24_9 H 0.1913 0.1013 0.2748
H18_9 H 0.3744 0.9796 0.3220
Cu1_16 Cu 0.0000 -0.0000 0.62754(2)
O2_16 O 0.0000 -0.0000 0.59240(9)
O6_16 O 0.0000 -0.0000 0.66243(6)
N2_10 N 0.0480(2) 0.3313(3) 0.52624(6)
H1_10 H 0.0863 0.3272 0.5353
H2_10 H 0.0615 0.3538 0.5114
O7_10 O 0.12167(28) 0.04021(19) 0.62383(5)
O8_10 O 0.16904(19) 0.13754(13) 0.65310(4)
C14_10 C 0.26448(28) 0.14142(19) 0.62426(5)
C15_10 C 0.33155(25) 0.20217(18) 0.63733(5)
H11_10 H 0.3224 0.2181 0.6529
C16_10 C 0.41137(25) 0.23969(18) 0.62796(5)
C17_10 C 0.42493(25) 0.21731(18) 0.60505(5)
H12_10 H 0.4799 0.2432 0.5987
C18_10 C 0.35888(27) 0.15772(19) 0.59158(5)
C19_10 C 0.27830(28) 0.11944(19) 0.60124(5)
H13_10 H 0.2326 0.0783 0.5922
C20_10 C 0.17686(28) 0.10240(19) 0.63457(5)
C21_10 C 0.48304(25) 0.30417(17) 0.64261(5)
C22_10 C 0.37244(27) 0.13286(19) 0.56705(5)
C23_10 C 0.3198(3) 0.0530(2) 0.55834(6)
H14_10 H 0.2747 0.0134 0.5680
C24_10 C 0.3334(3) 0.0312(2) 0.53532(6)
C25_10 C 0.39970(27) 0.09274(18) 0.52158(5)
H15_10 H 0.4076 0.0793 0.5056
C26_10 C 0.43851(25) 0.18900(18) 0.55243(5)
H16_10 H 0.4753 0.2433 0.5586
Cu1_17 Cu 0.0000 1.0000 0.62754(2)
O2_17 O 0.0000 1.0000 0.59240(9)
O6_17 O 0.0000 1.0000 0.66243(6)
N4_10 N 0.2832(4) 0.9520(2) 0.52624(6)
H9_10 H 0.2408 0.9137 0.5353
H10_10 H 0.2922 0.9385 0.5114
H26_3 H 0.0190003 0.961552 0.586407
Cu1_18 Cu 1.0000 -0.0000 0.62754(2)
O1_10 O 0.95979(19) 0.0815(2) 0.62383(5)
O2_18 O 1.0000 -0.0000 0.59240(9)
O3_10 O 0.86246(13) 0.03151(14) 0.65310(4)
O6_18 O 1.0000 -0.0000 0.66243(6)
C1_10 C 0.85858(19) 0.1231(2) 0.62426(5)
C2_10 C 0.79783(18) 0.12939(18) 0.63733(5)
H3_10 H 0.7819 0.1044 0.6529
C3_10 C 0.76031(18) 0.17169(18) 0.62796(5)
C4_10 C 0.78269(18) 0.20763(18) 0.60505(5)
H4_10 H 0.7568 0.2368 0.5987
C5_10 C 0.84228(19) 0.20117(19) 0.59158(5)
C6_10 C 0.88056(19) 0.1589(2) 0.60124(5)
H5_10 H 0.9217 0.1544 0.5922
C7_10 C 0.89760(19) 0.0745(2) 0.63457(5)
C8_10 C 0.69583(17) 0.17888(18) 0.64261(5)
C9_10 C 0.86714(19) 0.23959(19) 0.56705(5)
C10_10 C 0.9470(2) 0.2669(2) 0.55834(6)
H6_10 H 0.9866 0.2614 0.5680
C11_10 C 0.9688(2) 0.3023(2) 0.53532(6)
C12_10 C 0.90726(18) 0.3070(2) 0.52158(5)
H7_10 H 0.9207 0.3284 0.5056
C13_10 C 0.81100(18) 0.24952(18) 0.55243(5)
H8_10 H 0.7567 0.2321 0.5586
Cu1_19 Cu 1.0000 1.0000 0.62754(2)
O2_19 O 1.0000 1.0000 0.59240(9)
O6_19 O 1.0000 1.0000 0.66243(6)
O11_10 O 0.9185(2) 0.87833(28) 0.62383(5)
O12_10 O 0.96849(14) 0.83096(19) 0.65310(4)
N6_10 N 0.6687(3) 0.7168(4) 0.52624(6)
H17_10 H 0.6728 0.7592 0.5353
H18_10 H 0.6462 0.7078 0.5114
C27_10 C 0.8769(2) 0.73552(28) 0.62426(5)
C28_10 C 0.87061(18) 0.66845(25) 0.63733(5)
H19_10 H 0.8956 0.6776 0.6529
C29_10 C 0.82831(18) 0.58863(25) 0.62796(5)
C30_10 C 0.79237(18) 0.57507(25) 0.60505(5)
H20_10 H 0.7632 0.5201 0.5987
C31_10 C 0.79883(19) 0.64112(27) 0.59158(5)
C32_10 C 0.8411(2) 0.72170(28) 0.60124(5)
H21_10 H 0.8456 0.7674 0.5922
C33_10 C 0.9255(2) 0.82314(28) 0.63457(5)
C34_10 C 0.82112(18) 0.51696(25) 0.64261(5)
C35_10 C 0.76041(19) 0.62756(27) 0.56705(5)
C36_10 C 0.7331(2) 0.6802(3) 0.55834(6)
H22_10 H 0.7386 0.7253 0.5680
C37_10 C 0.6977(2) 0.6666(3) 0.53532(6)
C38_10 C 0.6930(2) 0.60030(27) 0.52158(5)
H23_10 H 0.6716 0.5924 0.5056
C39_10 C 0.75048(18) 0.56149(25) 0.55243(5)
H24_10 H 0.7679 0.5247 0.5586
H25_5 H 0.942652 0.981 0.586407
H25_6 H 0.038348 0.0573482 0.586407
Cu1_20 Cu -0.0000 0.0000 0.87246(2)
O2_20 O -0.0000 0.0000 0.90760(9)
O6_20 O -0.0000 0.0000 0.83757(6)
N2_11 N 0.3313(3) 0.0480(2) 0.97376(6)
H1_11 H 0.3272 0.0863 0.9647
H2_11 H 0.3538 0.0615 0.9886
O7_11 O 0.04021(19) 0.12167(28) 0.87617(5)
O8_11 O 0.13754(13) 0.16904(19) 0.84690(4)
C14_11 C 0.14142(19) 0.26448(28) 0.87574(5)
C15_11 C 0.20217(18) 0.33155(25) 0.86267(5)
H11_11 H 0.2181 0.3224 0.8471
C16_11 C 0.23969(18) 0.41137(25) 0.87204(5)
C17_11 C 0.21731(18) 0.42493(25) 0.89495(5)
H12_11 H 0.2432 0.4799 0.9013
C18_11 C 0.15772(19) 0.35888(27) 0.90842(5)
C19_11 C 0.11944(19) 0.27830(28) 0.89876(5)
H13_11 H 0.0783 0.2326 0.9078
C20_11 C 0.10240(19) 0.17686(28) 0.86543(5)
C21_11 C 0.30417(17) 0.48304(25) 0.85739(5)
C22_11 C 0.13286(19) 0.37244(27) 0.93295(5)
C23_11 C 0.0530(2) 0.3198(3) 0.94166(6)
H14_11 H 0.0134 0.2747 0.9320
C24_11 C 0.0312(2) 0.3334(3) 0.96468(6)
C25_11 C 0.09274(18) 0.39970(27) 0.97842(5)
H15_11 H 0.0793 0.4076 0.9944
C26_11 C 0.18900(18) 0.43851(25) 0.94757(5)
H16_11 H 0.2433 0.4753 0.9414
Cu1_21 Cu -0.0000 1.0000 0.87246(2)
O1_11 O 0.0815(2) 0.95979(19) 0.87617(5)
O2_21 O -0.0000 1.0000 0.90760(9)
O3_11 O 0.03151(14) 0.86246(13) 0.84690(4)
O6_21 O -0.0000 1.0000 0.83757(6)
C1_11 C 0.1231(2) 0.85858(19) 0.87574(5)
C2_11 C 0.12939(18) 0.79783(18) 0.86267(5)
H3_11 H 0.1044 0.7819 0.8471
C3_11 C 0.17169(18) 0.76031(18) 0.87204(5)
C4_11 C 0.20763(18) 0.78269(18) 0.89495(5)
H4_11 H 0.2368 0.7568 0.9013
C5_11 C 0.20117(19) 0.84228(19) 0.90842(5)
C6_11 C 0.1589(2) 0.88056(19) 0.89876(5)
H5_11 H 0.1544 0.9217 0.9078
C7_11 C 0.0745(2) 0.89760(19) 0.86543(5)
C8_11 C 0.17888(18) 0.69583(17) 0.85739(5)
C9_11 C 0.23959(19) 0.86714(19) 0.93295(5)
C10_11 C 0.2669(2) 0.9470(2) 0.94166(6)
H6_11 H 0.2614 0.9866 0.9320
C11_11 C 0.3023(2) 0.9688(2) 0.96468(6)
C12_11 C 0.3070(2) 0.90726(18) 0.97842(5)
H7_11 H 0.3284 0.9207 0.9944
C13_11 C 0.24952(18) 0.81100(18) 0.94757(5)
H8_11 H 0.2321 0.7567 0.9414
Cu1_22 Cu 1.0000 0.0000 0.87246(2)
O2_22 O 1.0000 0.0000 0.90760(9)
O6_22 O 1.0000 0.0000 0.83757(6)
N4_11 N 0.9520(2) 0.2832(4) 0.97376(6)
H9_11 H 0.9137 0.2408 0.9647
H10_11 H 0.9385 0.2922 0.9886
H26_4 H 0.961552 0.0190003 0.913593
Cu1_23 Cu 1.0000 1.0000 0.87246(2)
O2_23 O 1.0000 1.0000 0.90760(9)
O6_23 O 1.0000 1.0000 0.83757(6)
O11_11 O 0.87833(28) 0.9185(2) 0.87617(5)
O12_11 O 0.83096(19) 0.96849(14) 0.84690(4)
N6_11 N 0.7168(4) 0.6687(3) 0.97376(6)
H17_11 H 0.7592 0.6728 0.9647
H18_11 H 0.7078 0.6462 0.9886
C27_11 C 0.73552(28) 0.8769(2) 0.87574(5)
C28_11 C 0.66845(25) 0.87061(18) 0.86267(5)
H19_11 H 0.6776 0.8956 0.8471
C29_11 C 0.58863(25) 0.82831(18) 0.87204(5)
C30_11 C 0.57507(25) 0.79237(18) 0.89495(5)
H20_11 H 0.5201 0.7632 0.9013
C31_11 C 0.64112(27) 0.79883(19) 0.90842(5)
C32_11 C 0.72170(28) 0.8411(2) 0.89876(5)
H21_11 H 0.7674 0.8456 0.9078
C33_11 C 0.82314(28) 0.9255(2) 0.86543(5)
C34_11 C 0.51696(25) 0.82112(18) 0.85739(5)
C35_11 C 0.62756(27) 0.76041(19) 0.93295(5)
C36_11 C 0.6802(3) 0.7331(2) 0.94166(6)
H22_11 H 0.7253 0.7386 0.9320
C37_11 C 0.6666(3) 0.6977(2) 0.96468(6)
C38_11 C 0.60030(27) 0.6930(2) 0.97842(5)
H23_11 H 0.5924 0.6716 0.9944
C39_11 C 0.56149(25) 0.75048(18) 0.94757(5)
H24_11 H 0.5247 0.7679 0.9414
H25_7 H 0.981 0.942652 0.913593
H25_8 H 0.0573482 0.038348 0.913593
H2_12 H 0.3949 0.0204 0.1780
Cu1_24 Cu 0.3334 0.6666 0.29420(2)
O1_12 O 0.29313(19) 0.7481(2) 0.29049(5)
O2_24 O 0.3334 0.6666 0.25906(9)
O3_12 O 0.19580(13) 0.69817(14) 0.31976(4)
O6_24 O 0.3334 0.6666 0.32909(6)
N2_12 N 0.3814(2) 0.9979(3) 0.19290(6)
H1_12 H 0.4197 0.9938 0.2019
C1_12 C 0.19192(19) 0.7897(2) 0.29092(5)
C2_12 C 0.13117(18) 0.79605(18) 0.30399(5)
H3_12 H 0.1153 0.7710 0.3195
C3_12 C 0.09365(18) 0.83835(18) 0.29462(5)
C4_12 C 0.11603(18) 0.87429(18) 0.27171(5)
H4_12 H 0.0902 0.9034 0.2653
C5_12 C 0.17562(19) 0.86783(19) 0.25824(5)
C6_12 C 0.21390(19) 0.8255(2) 0.26790(5)
H5_12 H 0.2551 0.8210 0.2588
C7_12 C 0.23094(19) 0.7411(2) 0.30123(5)
C8_12 C 0.02917(17) 0.84554(18) 0.30927(5)
C9_12 C 0.20048(19) 0.90625(19) 0.23371(5)
C10_12 C 0.2804(2) 0.9335(2) 0.22500(6)
H6_12 H 0.3200 0.9280 0.2346
C11_12 C 0.3022(2) 0.9689(2) 0.20198(6)
C12_12 C 0.24060(18) 0.9736(2) 0.18824(5)
H7_12 H 0.2541 0.9950 0.1722
C13_12 C 0.14434(18) 0.91618(18) 0.21909(5)
H8_12 H 0.0901 0.8987 0.2252
O7_12 O 0.45501(28) 0.70687(19) 0.29049(5)
O8_12 O 0.50238(19) 0.80420(13) 0.31976(4)
N4_12 N 0.6166(4) 0.6186(2) 0.19290(6)
H9_12 H 0.5742 0.5803 0.2019
H10_12 H 0.6256 0.6051 0.1780
C14_12 C 0.59782(28) 0.80808(19) 0.29092(5)
C15_12 C 0.66489(25) 0.86883(18) 0.30399(5)
H11_12 H 0.6558 0.8847 0.3195
C16_12 C 0.74471(25) 0.90635(18) 0.29462(5)
C17_12 C 0.75827(25) 0.88397(18) 0.27171(5)
H12_12 H 0.8133 0.9098 0.2653
C18_12 C 0.69222(27) 0.82438(19) 0.25824(5)
C19_12 C 0.61164(28) 0.78610(19) 0.26790(5)
H13_12 H 0.5660 0.7449 0.2588
C20_12 C 0.51020(28) 0.76906(19) 0.30123(5)
C21_12 C 0.81638(25) 0.97083(17) 0.30927(5)
C22_12 C 0.70578(27) 0.79952(19) 0.23371(5)
C23_12 C 0.6532(3) 0.7196(2) 0.22500(6)
H14_12 H 0.6081 0.6800 0.2346
C24_12 C 0.6668(3) 0.6978(2) 0.20198(6)
C25_12 C 0.73304(27) 0.75940(18) 0.18824(5)
H15_12 H 0.7410 0.7459 0.1722
C26_12 C 0.77185(25) 0.85566(18) 0.21909(5)
H16_12 H 0.8087 0.9099 0.2252
O11_12 O 0.2519(2) 0.54499(28) 0.29049(5)
O12_12 O 0.30183(14) 0.49762(19) 0.31976(4)
N6_12 N 0.0021(3) 0.3834(4) 0.19290(6)
H17_12 H 0.0062 0.4258 0.2019
C27_12 C 0.2103(2) 0.40218(28) 0.29092(5)
C28_12 C 0.20395(18) 0.33511(25) 0.30399(5)
H19_12 H 0.2290 0.3442 0.3195
C29_12 C 0.16165(18) 0.25529(25) 0.29462(5)
C30_12 C 0.12571(18) 0.24173(25) 0.27171(5)
H20_12 H 0.0966 0.1867 0.2653
C31_12 C 0.13217(19) 0.30778(27) 0.25824(5)
C32_12 C 0.1745(2) 0.38836(28) 0.26790(5)
H21_12 H 0.1790 0.4340 0.2588
C33_12 C 0.2589(2) 0.48980(28) 0.30123(5)
C34_12 C 0.15446(18) 0.18362(25) 0.30927(5)
C35_12 C 0.09375(19) 0.29422(27) 0.23371(5)
C36_12 C 0.0665(2) 0.3468(3) 0.22500(6)
H22_12 H 0.0720 0.3919 0.2346
C37_12 C 0.0311(2) 0.3332(3) 0.20198(6)
C38_12 C 0.0264(2) 0.26696(27) 0.18824(5)
H23_12 H 0.0050 0.2590 0.1722
C39_12 C 0.08382(18) 0.22815(25) 0.21909(5)
H24_12 H 0.1013 0.1913 0.2252
H18_12 H 0.9796 0.3744 0.1780
loop_
_geom_bond_atom_site_label_1
_geom_bond_atom_site_label_2
_geom_bond_site_symmetry_1
_geom_bond_site_symmetry_2
O13 C34 1_555 1_555
O14 C34 1_555 1_555
N5 C38 1_555 1_555
C30 C29 1_555 1_555
H20 C30 1_555 1_555
C31 C30 1_555 1_555
C34 C29 1_555 1_555
C35 C31 1_555 1_555
C38 C37 1_555 1_555
H23 C38 1_555 1_555
C39 N5 1_555 1_555
H24 C39 1_555 1_555
Cu6 O13 1_555 1_555
Cu10 O14 1_555 1_555
Cu11 N5 1_555 1_555
O14 Cu6 1_555 1_555
C35 C39 1_555 1_555
Cu1 O1 1_555 1_555
Cu2 O3 1_555 1_555
O1 C7 1_555 1_555
O2 Cu1 1_555 1_555
O3 C7 1_555 1_555
O4 C8 1_555 1_555
O5 C8 1_555 1_555
O6 Cu1 1_555 1_555
N1 C12 1_555 1_555
N2 H1 1_555 1_555
H2 N2 1_555 1_555
C1 C2 1_555 1_555
C2 H3 1_555 1_555
C3 C2 1_555 1_555
C4 C3 1_555 1_555
H4 C4 1_555 1_555
C5 C4 1_555 1_555
C6 C1 1_555 1_555
H5 C6 1_555 1_555
C7 C1 1_555 1_555
C8 C3 1_555 1_555
C9 C5 1_555 1_555
C10 C9 1_555 1_555
H6 C10 1_555 1_555
C11 N2 1_555 1_555
C12 C11 1_555 1_555
H7 C12 1_555 1_555
C13 N1 1_555 1_555
H8 C13 1_555 1_555
Cu3 O6 1_555 1_555
O7 Cu1 1_555 1_555
O8 Cu3 1_555 1_555
N4 H9 1_555 1_555
H10 N4 1_555 1_555
C14 C15 1_555 1_555
C15 H11 1_555 1_555
C19 C14 1_555 1_555
H13 C19 1_555 1_555
C20 O7 1_555 1_555
H14 C23 1_555 1_555
Cu4 O6 1_555 1_555
O11 Cu1 1_555 1_555
O12 Cu4 1_555 1_555
N6 H17 1_555 1_555
H18 N6 1_555 1_555
C27 C28 1_555 1_555
C28 H19 1_555 1_555
C32 C27 1_555 1_555
H21 C32 1_555 1_555
C33 O11 1_555 1_555
H22 C36 1_555 1_555
Cu6 O5 1_555 1_555
Cu8 O4 1_555 1_555
Cu13 N1 1_555 1_555
O15 Cu3 1_555 1_555
O16 Cu4 1_555 1_555
O17 Cu2 1_555 1_555
O18 Cu2 1_555 1_555
O19 Cu3 1_555 1_555
O20 Cu2 1_555 1_555
N7 Cu4 1_555 1_555
N8 Cu3 1_555 1_555
N9 Cu2 1_555 1_555
Cu2 O6 1_555 1_555
O5 Cu8 1_555 1_555
C5 C6 1_555 1_555
C9 C13 1_555 1_555
C10 C11 1_555 1_555
Cu3 O18 1_555 1_555
O8 C20 1_555 1_555
C14 C20 1_555 1_555
Cu4 O19 1_555 1_555
Cu4 O20 1_555 1_555
O12 C33 1_555 1_555
C27 C33 1_555 1_555
O9 C21 1_555 1_555
O10 C21 1_555 1_555
N3 C25 1_555 1_555
C17 C16 1_555 1_555
H12 C17 1_555 1_555
C18 C17 1_555 1_555
C21 C16 1_555 1_555
C22 C18 1_555 1_555
C25 C24 1_555 1_555
H15 C25 1_555 1_555
C26 N3 1_555 1_555
H16 C26 1_555 1_555
Cu8 O10 1_555 1_555
Cu10 O9 1_555 1_555
Cu12 N3 1_555 1_555
O10 Cu10 1_555 1_555
C22 C26 1_555 1_555
O13_2 C34_2 1_555 1_555
O14_2 C34_2 1_555 1_555
N5_2 C38_2 1_555 1_555
C30_2 C29_2 1_555 1_555
H20_2 C30_2 1_555 1_555
C31_2 C30_2 1_555 1_555
C34_2 C29_2 1_555 1_555
C35_2 C31_2 1_555 1_555
C38_2 C37_2 1_555 1_555
H23_2 C38_2 1_555 1_555
C39_2 N5_2 1_555 1_555
H24_2 C39_2 1_555 1_555
Cu6_2 O13_2 1_555 1_555
Cu10_2 O14_2 1_555 1_555
Cu11_2 N5_2 1_555 1_555
O14_2 Cu6_2 1_555 1_555
C35_2 C39_2 1_555 1_555
Cu1_2 O1_2 1_555 1_555
O1_2 C7_2 1_555 1_555
O2_2 Cu1_2 1_555 1_555
O3_2 C7_2 1_555 1_555
O4_2 C8_2 1_555 1_555
O5_2 C8_2 1_555 1_555
O6_2 Cu1_2 1_555 1_555
N1_2 C12_2 1_555 1_555
N2_2 H1_2 1_555 1_555
H2_2 N2_2 1_555 1_555
C1_2 C2_2 1_555 1_555
C2_2 H3_2 1_555 1_555
C3_2 C2_2 1_555 1_555
C4_2 C3_2 1_555 1_555
H4_2 C4_2 1_555 1_555
C5_2 C4_2 1_555 1_555
C6_2 C1_2 1_555 1_555
H5_2 C6_2 1_555 1_555
C7_2 C1_2 1_555 1_555
C8_2 C3_2 1_555 1_555
C9_2 C5_2 1_555 1_555
C10_2 C9_2 1_555 1_555
H6_2 C10_2 1_555 1_555
C11_2 N2_2 1_555 1_555
C12_2 C11_2 1_555 1_555
H7_2 C12_2 1_555 1_555
C13_2 N1_2 1_555 1_555
H8_2 C13_2 1_555 1_555
O7_2 Cu1_2 1_555 1_555
N4_2 H9_2 1_555 1_555
H10_2 N4_2 1_555 1_555
C14_2 C15_2 1_555 1_555
C15_2 H11_2 1_555 1_555
C19_2 C14_2 1_555 1_555
H13_2 C19_2 1_555 1_555
C20_2 O7_2 1_555 1_555
H14_2 C23_2 1_555 1_555
O11_2 Cu1_2 1_555 1_555
N6_2 H17_2 1_555 1_555
H18_2 N6_2 1_555 1_555
C27_2 C28_2 1_555 1_555
C28_2 H19_2 1_555 1_555
C32_2 C27_2 1_555 1_555
H21_2 C32_2 1_555 1_555
C33_2 O11_2 1_555 1_555
H22_2 C36_2 1_555 1_555
Cu6_2 O5_2 1_555 1_555
Cu8_2 O4_2 1_555 1_555
Cu13_2 N1_2 1_555 1_555
O5_2 Cu8_2 1_555 1_555
C5_2 C6_2 1_555 1_555
C9_2 C13_2 1_555 1_555
C10_2 C11_2 1_555 1_555
O8_2 C20_2 1_555 1_555
C14_2 C20_2 1_555 1_555
O12_2 C33_2 1_555 1_555
C27_2 C33_2 1_555 1_555
O15_2 Cu3_2 1_555 1_555
O16_2 Cu4_2 1_555 1_555
O17_2 Cu2_2 1_555 1_555
O18_2 Cu2_2 1_555 1_555
O19_2 Cu3_2 1_555 1_555
O20_2 Cu2_2 1_555 1_555
N7_2 Cu4_2 1_555 1_555
N8_2 Cu3_2 1_555 1_555
N9_2 Cu2_2 1_555 1_555
Cu3_2 O18_2 1_555 1_555
Cu4_2 O19_2 1_555 1_555
Cu4_2 O20_2 1_555 1_555
O9_2 C21_2 1_555 1_555
O10_2 C21_2 1_555 1_555
N3_2 C25_2 1_555 1_555
C17_2 C16_2 1_555 1_555
H12_2 C17_2 1_555 1_555
C18_2 C17_2 1_555 1_555
C21_2 C16_2 1_555 1_555
C22_2 C18_2 1_555 1_555
C25_2 C24_2 1_555 1_555
H15_2 C25_2 1_555 1_555
C26_2 N3_2 1_555 1_555
H16_2 C26_2 1_555 1_555
Cu8_2 O10_2 1_555 1_555
Cu10_2 O9_2 1_555 1_555
Cu12_2 N3_2 1_555 1_555
O10_2 Cu10_2 1_555 1_555
C22_2 C26_2 1_555 1_555
Cu8_3 O4_3 1_555 1_555
Cu1_3 O1_3 1_555 1_555
Cu2_3 O3_3 1_555 1_555
O1_3 C7_3 1_555 1_555
O2_3 Cu1_3 1_555 1_555
O3_3 C7_3 1_555 1_555
O5_3 C8_3 1_555 1_555
O6_3 Cu1_3 1_555 1_555
N1_3 C12_3 1_555 1_555
N2_3 H1_3 1_555 1_555
C1_3 C2_3 1_555 1_555
C2_3 H3_3 1_555 1_555
C3_3 C2_3 1_555 1_555
C4_3 C3_3 1_555 1_555
H4_3 C4_3 1_555 1_555
C5_3 C4_3 1_555 1_555
C6_3 C1_3 1_555 1_555
H5_3 C6_3 1_555 1_555
C7_3 C1_3 1_555 1_555
C8_3 C3_3 1_555 1_555
C9_3 C5_3 1_555 1_555
C10_3 C9_3 1_555 1_555
H6_3 C10_3 1_555 1_555
C11_3 N2_3 1_555 1_555
C12_3 C11_3 1_555 1_555
H7_3 C12_3 1_555 1_555
C13_3 N1_3 1_555 1_555
H8_3 C13_3 1_555 1_555
Cu3_3 O6_3 1_555 1_555
O7_3 Cu1_3 1_555 1_555
O8_3 Cu3_3 1_555 1_555
O10_3 C21_3 1_555 1_555
N3_3 C25_3 1_555 1_555
N4_3 H9_3 1_555 1_555
H10_3 N4_3 1_555 1_555
C14_3 C15_3 1_555 1_555
C15_3 H11_3 1_555 1_555
C16_3 C15_3 1_555 1_555
C17_3 C16_3 1_555 1_555
H12_3 C17_3 1_555 1_555
C18_3 C17_3 1_555 1_555
C19_3 C14_3 1_555 1_555
H13_3 C19_3 1_555 1_555
C20_3 O7_3 1_555 1_555
C21_3 C16_3 1_555 1_555
C22_3 C18_3 1_555 1_555
C23_3 C22_3 1_555 1_555
H14_3 C23_3 1_555 1_555
C24_3 N4_3 1_555 1_555
C25_3 C24_3 1_555 1_555
H15_3 C25_3 1_555 1_555
C26_3 N3_3 1_555 1_555
H16_3 C26_3 1_555 1_555
Cu4_3 O6_3 1_555 1_555
O11_3 Cu1_3 1_555 1_555
O12_3 Cu4_3 1_555 1_555
O13_3 C34_3 1_555 1_555
O14_3 C34_3 1_555 1_555
N5_3 C38_3 1_555 1_555
N6_3 H17_3 1_555 1_555
C27_3 C28_3 1_555 1_555
C28_3 H19_3 1_555 1_555
C29_3 C28_3 1_555 1_555
C30_3 C29_3 1_555 1_555
H20_3 C30_3 1_555 1_555
C31_3 C30_3 1_555 1_555
C32_3 C27_3 1_555 1_555
H21_3 C32_3 1_555 1_555
C33_3 O11_3 1_555 1_555
C34_3 C29_3 1_555 1_555
C35_3 C31_3 1_555 1_555
C36_3 C35_3 1_555 1_555
H22_3 C36_3 1_555 1_555
C37_3 N6_3 1_555 1_555
C38_3 C37_3 1_555 1_555
H23_3 C38_3 1_555 1_555
C39_3 N5_3 1_555 1_555
H24_3 C39_3 1_555 1_555
Cu6_3 O13_3 1_555 1_555
Cu8_3 O10_3 1_555 1_555
Cu11_3 N5_3 1_555 1_555
Cu12_3 N3_3 1_555 1_555
Cu13_3 N1_3 1_555 1_555
O15_3 Cu3_3 1_555 1_555
O16_3 Cu4_3 1_555 1_555
O17_3 Cu2_3 1_555 1_555
O18_3 Cu2_3 1_555 1_555
O19_3 Cu3_3 1_555 1_555
O20_3 Cu2_3 1_555 1_555
N7_3 Cu4_3 1_555 1_555
N8_3 Cu3_3 1_555 1_555
N9_3 Cu2_3 1_555 1_555
Cu2_3 O6_3 1_555 1_555
C5_3 C6_3 1_555 1_555
C9_3 C13_3 1_555 1_555
C10_3 C11_3 1_555 1_555
Cu3_3 O18_3 1_555 1_555
O8_3 C20_3 1_555 1_555
C14_3 C20_3 1_555 1_555
C18_3 C19_3 1_555 1_555
C22_3 C26_3 1_555 1_555
C23_3 C24_3 1_555 1_555
Cu4_3 O19_3 1_555 1_555
Cu4_3 O20_3 1_555 1_555
O12_3 C33_3 1_555 1_555
O14_3 Cu6_3 1_555 1_555
C27_3 C33_3 1_555 1_555
C31_3 C32_3 1_555 1_555
C35_3 C39_3 1_555 1_555
C36_3 C37_3 1_555 1_555
Cu10_3 O9_3 1_555 1_555
O2_4 Cu1_4 1_555 1_555
O6_4 Cu1_4 1_555 1_555
O11_4 Cu1_4 1_555 1_555
O13_4 C34_4 1_555 1_555
O14_4 C34_4 1_555 1_555
N5_4 C38_4 1_555 1_555
N6_4 H17_4 1_555 1_555
H18_4 N6_4 1_555 1_555
C27_4 C28_4 1_555 1_555
C28_4 H19_4 1_555 1_555
C29_4 C28_4 1_555 1_555
C30_4 C29_4 1_555 1_555
H20_4 C30_4 1_555 1_555
C31_4 C30_4 1_555 1_555
C32_4 C27_4 1_555 1_555
H21_4 C32_4 1_555 1_555
C33_4 O11_4 1_555 1_555
C34_4 C29_4 1_555 1_555
C35_4 C31_4 1_555 1_555
C36_4 C35_4 1_555 1_555
H22_4 C36_4 1_555 1_555
C37_4 N6_4 1_555 1_555
C38_4 C37_4 1_555 1_555
H23_4 C38_4 1_555 1_555
C39_4 N5_4 1_555 1_555
H24_4 C39_4 1_555 1_555
Cu11 O13_4 1_555 1_555
Cu13 O14_4 1_555 1_555
Cu6 N5_4 1_555 1_555
O17_4 Cu2_4 1_555 1_555
O20_4 Cu2_4 1_555 1_555
N9_4 Cu2_4 1_555 1_555
Cu2_4 O6_4 1_555 1_555
O12_4 C33_4 1_555 1_555
O14_4 Cu11 1_555 1_555
C27_4 C33_4 1_555 1_555
C31_4 C32_4 1_555 1_555
C35_4 C39_4 1_555 1_555
C36_4 C37_4 1_555 1_555
O2_4 H25 1_555 1_555
Cu1_5 O1_4 1_555 1_555
O1_4 C7_4 1_555 1_555
O2_5 Cu1_5 1_555 1_555
O3_4 C7_4 1_555 1_555
O4_4 C8_4 1_555 1_555
O5_4 C8_4 1_555 1_555
O6_5 Cu1_5 1_555 1_555
N1_4 C12_4 1_555 1_555
C1_4 C2_4 1_555 1_555
C2_4 H3_4 1_555 1_555
C3_4 C2_4 1_555 1_555
C4_4 C3_4 1_555 1_555
H4_4 C4_4 1_555 1_555
C5_4 C4_4 1_555 1_555
C6_4 C1_4 1_555 1_555
H5_4 C6_4 1_555 1_555
C7_4 C1_4 1_555 1_555
C8_4 C3_4 1_555 1_555
C9_4 C5_4 1_555 1_555
C10_4 C9_4 1_555 1_555
H6_4 C10_4 1_555 1_555
C12_4 C11_4 1_555 1_555
H7_4 C12_4 1_555 1_555
C13_4 N1_4 1_555 1_555
H8_4 C13_4 1_555 1_555
Cu11 O5_4 1_555 1_555
Cu12 O4_4 1_555 1_555
Cu10 N1_4 1_555 1_555
O5_4 Cu12 1_555 1_555
C5_4 C6_4 1_555 1_555
C9_4 C13_4 1_555 1_555
C10_4 C11_4 1_555 1_555
O2_6 Cu1_6 1_555 1_555
O6_6 Cu1_6 1_555 1_555
N4_4 H9_4 1_555 1_555
H10_4 N4_4 1_555 1_555
Cu4_4 O6_6 1_555 1_555
O16_4 Cu4_4 1_555 1_555
N7_4 Cu4_4 1_555 1_555
O2_6 H26 1_555 1_555
O2_7 Cu1_7 1_555 1_555
O6_7 Cu1_7 1_555 1_555
N2_4 H1_4 1_555 1_555
H2_4 N2_4 1_555 1_555
Cu3_4 O6_7 1_555 1_555
O7_4 Cu1_7 1_555 1_555
O8_4 Cu3_4 1_555 1_555
O9_4 C21_4 1_555 1_555
O10_4 C21_4 1_555 1_555
N3_4 C25_4 1_555 1_555
C14_4 C15_4 1_555 1_555
C15_4 H11_4 1_555 1_555
C16_4 C15_4 1_555 1_555
C17_4 C16_4 1_555 1_555
H12_4 C17_4 1_555 1_555
C18_4 C17_4 1_555 1_555
C19_4 C14_4 1_555 1_555
H13_4 C19_4 1_555 1_555
C20_4 O7_4 1_555 1_555
C21_4 C16_4 1_555 1_555
C22_4 C18_4 1_555 1_555
C23_4 C22_4 1_555 1_555
H14_4 C23_4 1_555 1_555
C25_4 C24_4 1_555 1_555
H15_4 C25_4 1_555 1_555
C26_4 N3_4 1_555 1_555
H16_4 C26_4 1_555 1_555
Cu12 O10_4 1_555 1_555
Cu13 O9_4 1_555 1_555
Cu8 N3_4 1_555 1_555
O15_4 Cu3_4 1_555 1_555
O19_4 Cu3_4 1_555 1_555
N8_4 Cu3_4 1_555 1_555
O8_4 C20_4 1_555 1_555
O10_4 Cu13 1_555 1_555
C14_4 C20_4 1_555 1_555
C18_4 C19_4 1_555 1_555
C22_4 C26_4 1_555 1_555
C23_4 C24_4 1_555 1_555
O2_7 H25_2 1_555 1_555
O2_8 Cu1_8 1_555 1_555
O6_8 Cu1_8 1_555 1_555
O11_5 Cu1_8 1_555 1_555
O13_5 C34_5 1_555 1_555
O14_5 C34_5 1_555 1_555
N5_5 C38_5 1_555 1_555
N6_5 H17_5 1_555 1_555
H18_5 N6_5 1_555 1_555
C27_5 C28_5 1_555 1_555
C28_5 H19_5 1_555 1_555
C29_5 C28_5 1_555 1_555
C30_5 C29_5 1_555 1_555
H20_5 C30_5 1_555 1_555
C31_5 C30_5 1_555 1_555
C32_5 C27_5 1_555 1_555
H21_5 C32_5 1_555 1_555
C33_5 O11_5 1_555 1_555
C34_5 C29_5 1_555 1_555
C35_5 C31_5 1_555 1_555
C36_5 C35_5 1_555 1_555
H22_5 C36_5 1_555 1_555
C37_5 N6_5 1_555 1_555
C38_5 C37_5 1_555 1_555
H23_5 C38_5 1_555 1_555
C39_5 N5_5 1_555 1_555
H24_5 C39_5 1_555 1_555
Cu11_2 O13_5 1_555 1_555
Cu13_2 O14_5 1_555 1_555
Cu6_2 N5_5 1_555 1_555
O17_5 Cu2_5 1_555 1_555
O20_5 Cu2_5 1_555 1_555
N9_5 Cu2_5 1_555 1_555
Cu2_5 O6_8 1_555 1_555
O12_5 C33_5 1_555 1_555
O14_5 Cu11_2 1_555 1_555
C27_5 C33_5 1_555 1_555
C31_5 C32_5 1_555 1_555
C35_5 C39_5 1_555 1_555
C36_5 C37_5 1_555 1_555
O2_8 H25_3 1_555 1_555
O2_9 Cu1_9 1_555 1_555
O6_9 Cu1_9 1_555 1_555
N4_5 H9_5 1_555 1_555
H10_5 N4_5 1_555 1_555
Cu4_5 O6_9 1_555 1_555
O16_5 Cu4_5 1_555 1_555
N7_5 Cu4_5 1_555 1_555
O2_9 H26_2 1_555 1_555
Cu1_10 O1_5 1_555 1_555
O1_5 C7_5 1_555 1_555
O2_10 Cu1_10 1_555 1_555
O3_5 C7_5 1_555 1_555
O4_5 C8_5 1_555 1_555
O5_5 C8_5 1_555 1_555
O6_10 Cu1_10 1_555 1_555
N1_5 C12_5 1_555 1_555
C1_5 C2_5 1_555 1_555
C2_5 H3_5 1_555 1_555
C3_5 C2_5 1_555 1_555
C4_5 C3_5 1_555 1_555
H4_5 C4_5 1_555 1_555
C5_5 C4_5 1_555 1_555
C6_5 C1_5 1_555 1_555
H5_5 C6_5 1_555 1_555
C7_5 C1_5 1_555 1_555
C8_5 C3_5 1_555 1_555
C9_5 C5_5 1_555 1_555
C10_5 C9_5 1_555 1_555
H6_5 C10_5 1_555 1_555
C12_5 C11_5 1_555 1_555
H7_5 C12_5 1_555 1_555
C13_5 N1_5 1_555 1_555
H8_5 C13_5 1_555 1_555
Cu11_2 O5_5 1_555 1_555
Cu12_2 O4_5 1_555 1_555
Cu10_2 N1_5 1_555 1_555
O5_5 Cu12_2 1_555 1_555
C5_5 C6_5 1_555 1_555
C9_5 C13_5 1_555 1_555
C10_5 C11_5 1_555 1_555
O2_11 Cu1_11 1_555 1_555
O6_11 Cu1_11 1_555 1_555
N2_5 H1_5 1_555 1_555
H2_5 N2_5 1_555 1_555
Cu3_5 O6_11 1_555 1_555
O7_5 Cu1_11 1_555 1_555
O8_5 Cu3_5 1_555 1_555
O9_5 C21_5 1_555 1_555
O10_5 C21_5 1_555 1_555
N3_5 C25_5 1_555 1_555
C14_5 C15_5 1_555 1_555
C15_5 H11_5 1_555 1_555
C16_5 C15_5 1_555 1_555
C17_5 C16_5 1_555 1_555
H12_5 C17_5 1_555 1_555
C18_5 C17_5 1_555 1_555
C19_5 C14_5 1_555 1_555
H13_5 C19_5 1_555 1_555
C20_5 O7_5 1_555 1_555
C21_5 C16_5 1_555 1_555
C22_5 C18_5 1_555 1_555
C23_5 C22_5 1_555 1_555
H14_5 C23_5 1_555 1_555
C25_5 C24_5 1_555 1_555
H15_5 C25_5 1_555 1_555
C26_5 N3_5 1_555 1_555
H16_5 C26_5 1_555 1_555
Cu12_2 O10_5 1_555 1_555
Cu13_2 O9_5 1_555 1_555
Cu8_2 N3_5 1_555 1_555
O15_5 Cu3_5 1_555 1_555
O19_5 Cu3_5 1_555 1_555
N8_5 Cu3_5 1_555 1_555
O8_5 C20_5 1_555 1_555
O10_5 Cu13_2 1_555 1_555
C14_5 C20_5 1_555 1_555
C18_5 C19_5 1_555 1_555
C22_5 C26_5 1_555 1_555
C23_5 C24_5 1_555 1_555
O2_11 H25_4 1_555 1_555
Cu12_3 O4_6 1_555 1_555
Cu1_12 O1_6 1_555 1_555
Cu2_6 O3_6 1_555 1_555
O1_6 C7_6 1_555 1_555
O2_12 Cu1_12 1_555 1_555
O3_6 C7_6 1_555 1_555
O5_6 C8_6 1_555 1_555
O6_12 Cu1_12 1_555 1_555
N1_6 C12_6 1_555 1_555
N2_6 H1_6 1_555 1_555
C1_6 C2_6 1_555 1_555
C2_6 H3_6 1_555 1_555
C3_6 C2_6 1_555 1_555
C4_6 C3_6 1_555 1_555
H4_6 C4_6 1_555 1_555
C5_6 C4_6 1_555 1_555
C6_6 C1_6 1_555 1_555
H5_6 C6_6 1_555 1_555
C7_6 C1_6 1_555 1_555
C8_6 C3_6 1_555 1_555
C9_6 C5_6 1_555 1_555
C10_6 C9_6 1_555 1_555
H6_6 C10_6 1_555 1_555
C11_6 N2_6 1_555 1_555
C12_6 C11_6 1_555 1_555
H7_6 C12_6 1_555 1_555
C13_6 N1_6 1_555 1_555
H8_6 C13_6 1_555 1_555
Cu3_6 O6_12 1_555 1_555
O7_6 Cu1_12 1_555 1_555
O8_6 Cu3_6 1_555 1_555
O10_6 C21_6 1_555 1_555
N3_6 C25_6 1_555 1_555
N4_6 H9_6 1_555 1_555
H10_6 N4_6 1_555 1_555
C14_6 C15_6 1_555 1_555
C15_6 H11_6 1_555 1_555
C16_6 C15_6 1_555 1_555
C17_6 C16_6 1_555 1_555
H12_6 C17_6 1_555 1_555
C18_6 C17_6 1_555 1_555
C19_6 C14_6 1_555 1_555
H13_6 C19_6 1_555 1_555
C20_6 O7_6 1_555 1_555
C21_6 C16_6 1_555 1_555
C22_6 C18_6 1_555 1_555
C23_6 C22_6 1_555 1_555
H14_6 C23_6 1_555 1_555
C24_6 N4_6 1_555 1_555
C25_6 C24_6 1_555 1_555
H15_6 C25_6 1_555 1_555
C26_6 N3_6 1_555 1_555
H16_6 C26_6 1_555 1_555
Cu4_6 O6_12 1_555 1_555
O11_6 Cu1_12 1_555 1_555
O12_6 Cu4_6 1_555 1_555
O13_6 C34_6 1_555 1_555
O14_6 C34_6 1_555 1_555
N5_6 C38_6 1_555 1_555
N6_6 H17_6 1_555 1_555
C27_6 C28_6 1_555 1_555
C28_6 H19_6 1_555 1_555
C29_6 C28_6 1_555 1_555
C30_6 C29_6 1_555 1_555
H20_6 C30_6 1_555 1_555
C31_6 C30_6 1_555 1_555
C32_6 C27_6 1_555 1_555
H21_6 C32_6 1_555 1_555
C33_6 O11_6 1_555 1_555
C34_6 C29_6 1_555 1_555
C35_6 C31_6 1_555 1_555
C36_6 C35_6 1_555 1_555
H22_6 C36_6 1_555 1_555
C37_6 N6_6 1_555 1_555
C38_6 C37_6 1_555 1_555
H23_6 C38_6 1_555 1_555
C39_6 N5_6 1_555 1_555
H24_6 C39_6 1_555 1_555
Cu11_3 O13_6 1_555 1_555
Cu12_3 O10_6 1_555 1_555
Cu6_3 N5_6 1_555 1_555
Cu8_3 N3_6 1_555 1_555
Cu10_3 N1_6 1_555 1_555
O15_6 Cu3_6 1_555 1_555
O16_6 Cu4_6 1_555 1_555
O17_6 Cu2_6 1_555 1_555
O18_6 Cu2_6 1_555 1_555
O19_6 Cu3_6 1_555 1_555
O20_6 Cu2_6 1_555 1_555
N7_6 Cu4_6 1_555 1_555
N8_6 Cu3_6 1_555 1_555
N9_6 Cu2_6 1_555 1_555
Cu2_6 O6_12 1_555 1_555
C5_6 C6_6 1_555 1_555
C9_6 C13_6 1_555 1_555
C10_6 C11_6 1_555 1_555
Cu3_6 O18_6 1_555 1_555
O8_6 C20_6 1_555 1_555
C14_6 C20_6 1_555 1_555
C18_6 C19_6 1_555 1_555
C22_6 C26_6 1_555 1_555
C23_6 C24_6 1_555 1_555
Cu4_6 O19_6 1_555 1_555
Cu4_6 O20_6 1_555 1_555
O12_6 C33_6 1_555 1_555
O14_6 Cu11_3 1_555 1_555
C27_6 C33_6 1_555 1_555
C31_6 C32_6 1_555 1_555
C35_6 C39_6 1_555 1_555
C36_6 C37_6 1_555 1_555
Cu13_3 O9_6 1_555 1_555
O16 C21_7 1_555 1_555
O19 C21_7 1_555 1_555
N8_6 C25_7 1_555 1_555
C17_7 C16_7 1_555 1_555
H12_7 C17_7 1_555 1_555
C18_7 C17_7 1_555 1_555
C21_7 C16_7 1_555 1_555
C22_7 C18_7 1_555 1_555
C25_7 C24_7 1_555 1_555
H15_7 C25_7 1_555 1_555
C26_7 N8_6 1_555 1_555
H16_7 C26_7 1_555 1_555
C22_7 C26_7 1_555 1_555
Cu1_13 O1_7 1_555 1_555
Cu6 O3_7 1_555 1_555
O1_7 C7_7 1_555 1_555
O2_13 Cu1_13 1_555 1_555
O3_7 C7_7 1_555 1_555
O15 C8_7 1_555 1_555
O18 C8_7 1_555 1_555
O6_13 Cu1_13 1_555 1_555
N7_6 C12_7 1_555 1_555
N2_7 H1_7 1_555 1_555
H2_7 N2_7 1_555 1_555
C1_7 C2_7 1_555 1_555
C2_7 H3_7 1_555 1_555
C3_7 C2_7 1_555 1_555
C4_7 C3_7 1_555 1_555
H4_7 C4_7 1_555 1_555
C5_7 C4_7 1_555 1_555
C6_7 C1_7 1_555 1_555
H5_7 C6_7 1_555 1_555
C7_7 C1_7 1_555 1_555
C8_7 C3_7 1_555 1_555
C9_7 C5_7 1_555 1_555
C10_7 C9_7 1_555 1_555
H6_7 C10_7 1_555 1_555
C11_7 N2_7 1_555 1_555
C12_7 C11_7 1_555 1_555
H7_7 C12_7 1_555 1_555
C13_7 N7_6 1_555 1_555
H8_7 C13_7 1_555 1_555
Cu8 O6_13 1_555 1_555
O7_7 Cu1_13 1_555 1_555
O8_7 Cu8 1_555 1_555
N4_7 H9_7 1_555 1_555
H10_7 N4_7 1_555 1_555
C14_7 C15_7 1_555 1_555
C15_7 H11_7 1_555 1_555
C19_7 C14_7 1_555 1_555
H13_7 C19_7 1_555 1_555
C20_7 O7_7 1_555 1_555
H14_7 C23_7 1_555 1_555
Cu10 O6_13 1_555 1_555
O11_7 Cu1_13 1_555 1_555
O12_7 Cu10 1_555 1_555
N6_7 H17_7 1_555 1_555
H18_7 N6_7 1_555 1_555
C27_7 C28_7 1_555 1_555
C28_7 H19_7 1_555 1_555
C32_7 C27_7 1_555 1_555
H21_7 C32_7 1_555 1_555
C33_7 O11_7 1_555 1_555
H22_7 C36_7 1_555 1_555
Cu6 O6_13 1_555 1_555
C5_7 C6_7 1_555 1_555
C9_7 C13_7 1_555 1_555
C10_7 C11_7 1_555 1_555
O8_7 C20_7 1_555 1_555
C14_7 C20_7 1_555 1_555
O12_7 C33_7 1_555 1_555
C27_7 C33_7 1_555 1_555
O17 C34_7 1_555 1_555
O20 C34_7 1_555 1_555
N9_6 C38_7 1_555 1_555
C30_7 C29_7 1_555 1_555
H20_7 C30_7 1_555 1_555
C31_7 C30_7 1_555 1_555
C34_7 C29_7 1_555 1_555
C35_7 C31_7 1_555 1_555
C38_7 C37_7 1_555 1_555
H23_7 C38_7 1_555 1_555
C39_7 N9_6 1_555 1_555
H24_7 C39_7 1_555 1_555
C35_7 C39_7 1_555 1_555
O16_2 C21_8 1_555 1_555
O19_2 C21_8 1_555 1_555
N8_3 C25_8 1_555 1_555
C17_8 C16_8 1_555 1_555
H12_8 C17_8 1_555 1_555
C18_8 C17_8 1_555 1_555
C21_8 C16_8 1_555 1_555
C22_8 C18_8 1_555 1_555
C25_8 C24_8 1_555 1_555
H15_8 C25_8 1_555 1_555
C26_8 N8_3 1_555 1_555
H16_8 C26_8 1_555 1_555
C22_8 C26_8 1_555 1_555
Cu1_14 O1_8 1_555 1_555
O1_8 C7_8 1_555 1_555
O2_14 Cu1_14 1_555 1_555
O3_8 C7_8 1_555 1_555
O15_2 C8_8 1_555 1_555
O18_2 C8_8 1_555 1_555
O6_14 Cu1_14 1_555 1_555
N7_3 C12_8 1_555 1_555
N2_8 H1_8 1_555 1_555
H2_8 N2_8 1_555 1_555
C1_8 C2_8 1_555 1_555
C2_8 H3_8 1_555 1_555
C3_8 C2_8 1_555 1_555
C4_8 C3_8 1_555 1_555
H4_8 C4_8 1_555 1_555
C5_8 C4_8 1_555 1_555
C6_8 C1_8 1_555 1_555
H5_8 C6_8 1_555 1_555
C7_8 C1_8 1_555 1_555
C8_8 C3_8 1_555 1_555
C9_8 C5_8 1_555 1_555
C10_8 C9_8 1_555 1_555
H6_8 C10_8 1_555 1_555
C11_8 N2_8 1_555 1_555
C12_8 C11_8 1_555 1_555
H7_8 C12_8 1_555 1_555
C13_8 N7_3 1_555 1_555
H8_8 C13_8 1_555 1_555
O7_8 Cu1_14 1_555 1_555
N4_8 H9_8 1_555 1_555
H10_8 N4_8 1_555 1_555
C14_8 C15_8 1_555 1_555
C15_8 H11_8 1_555 1_555
C19_8 C14_8 1_555 1_555
H13_8 C19_8 1_555 1_555
C20_8 O7_8 1_555 1_555
H14_8 C23_8 1_555 1_555
O11_8 Cu1_14 1_555 1_555
N6_8 H17_8 1_555 1_555
H18_8 N6_8 1_555 1_555
C27_8 C28_8 1_555 1_555
C28_8 H19_8 1_555 1_555
C32_8 C27_8 1_555 1_555
H21_8 C32_8 1_555 1_555
C33_8 O11_8 1_555 1_555
H22_8 C36_8 1_555 1_555
C5_8 C6_8 1_555 1_555
C9_8 C13_8 1_555 1_555
C10_8 C11_8 1_555 1_555
O8_8 C20_8 1_555 1_555
C14_8 C20_8 1_555 1_555
O12_8 C33_8 1_555 1_555
C27_8 C33_8 1_555 1_555
O17_2 C34_8 1_555 1_555
O20_2 C34_8 1_555 1_555
N9_3 C38_8 1_555 1_555
C30_8 C29_8 1_555 1_555
H20_8 C30_8 1_555 1_555
C31_8 C30_8 1_555 1_555
C34_8 C29_8 1_555 1_555
C35_8 C31_8 1_555 1_555
C38_8 C37_8 1_555 1_555
H23_8 C38_8 1_555 1_555
C39_8 N9_3 1_555 1_555
H24_8 C39_8 1_555 1_555
C35_8 C39_8 1_555 1_555
Cu1_15 O1_9 1_555 1_555
Cu11_2 O3_9 1_555 1_555
O1_9 C7_9 1_555 1_555
O2_15 Cu1_15 1_555 1_555
O3_9 C7_9 1_555 1_555
O18_5 C8_9 1_555 1_555
O6_15 Cu1_15 1_555 1_555
N7_4 C12_9 1_555 1_555
N2_9 H1_9 1_555 1_555
C1_9 C2_9 1_555 1_555
C2_9 H3_9 1_555 1_555
C3_9 C2_9 1_555 1_555
C4_9 C3_9 1_555 1_555
H4_9 C4_9 1_555 1_555
C5_9 C4_9 1_555 1_555
C6_9 C1_9 1_555 1_555
H5_9 C6_9 1_555 1_555
C7_9 C1_9 1_555 1_555
C8_9 C3_9 1_555 1_555
C9_9 C5_9 1_555 1_555
C10_9 C9_9 1_555 1_555
H6_9 C10_9 1_555 1_555
C11_9 N2_9 1_555 1_555
C12_9 C11_9 1_555 1_555
H7_9 C12_9 1_555 1_555
C13_9 N7_4 1_555 1_555
H8_9 C13_9 1_555 1_555
Cu12_2 O6_15 1_555 1_555
O7_9 Cu1_15 1_555 1_555
O8_9 Cu12_2 1_555 1_555
O19_5 C21_9 1_555 1_555
N8_4 C25_9 1_555 1_555
N4_9 H9_9 1_555 1_555
H10_9 N4_9 1_555 1_555
C14_9 C15_9 1_555 1_555
C15_9 H11_9 1_555 1_555
C16_9 C15_9 1_555 1_555
C17_9 C16_9 1_555 1_555
H12_9 C17_9 1_555 1_555
C18_9 C17_9 1_555 1_555
C19_9 C14_9 1_555 1_555
H13_9 C19_9 1_555 1_555
C20_9 O7_9 1_555 1_555
C21_9 C16_9 1_555 1_555
C22_9 C18_9 1_555 1_555
C23_9 C22_9 1_555 1_555
H14_9 C23_9 1_555 1_555
C24_9 N4_9 1_555 1_555
C25_9 C24_9 1_555 1_555
H15_9 C25_9 1_555 1_555
C26_9 N8_4 1_555 1_555
H16_9 C26_9 1_555 1_555
Cu13_2 O6_15 1_555 1_555
O11_9 Cu1_15 1_555 1_555
O12_9 Cu13_2 1_555 1_555
O17_5 C34_9 1_555 1_555
O20_5 C34_9 1_555 1_555
N9_4 C38_9 1_555 1_555
N6_9 H17_9 1_555 1_555
C27_9 C28_9 1_555 1_555
C28_9 H19_9 1_555 1_555
C29_9 C28_9 1_555 1_555
C30_9 C29_9 1_555 1_555
H20_9 C30_9 1_555 1_555
C31_9 C30_9 1_555 1_555
C32_9 C27_9 1_555 1_555
H21_9 C32_9 1_555 1_555
C33_9 O11_9 1_555 1_555
C34_9 C29_9 1_555 1_555
C35_9 C31_9 1_555 1_555
C36_9 C35_9 1_555 1_555
H22_9 C36_9 1_555 1_555
C37_9 N6_9 1_555 1_555
C38_9 C37_9 1_555 1_555
H23_9 C38_9 1_555 1_555
C39_9 N9_4 1_555 1_555
H24_9 C39_9 1_555 1_555
Cu11_2 O6_15 1_555 1_555
C5_9 C6_9 1_555 1_555
C9_9 C13_9 1_555 1_555
C10_9 C11_9 1_555 1_555
O8_9 C20_9 1_555 1_555
C14_9 C20_9 1_555 1_555
C18_9 C19_9 1_555 1_555
C22_9 C26_9 1_555 1_555
C23_9 C24_9 1_555 1_555
O12_9 C33_9 1_555 1_555
C27_9 C33_9 1_555 1_555
C31_9 C32_9 1_555 1_555
C35_9 C39_9 1_555 1_555
C36_9 C37_9 1_555 1_555
O2_16 Cu1_16 1_555 1_555
O6_16 Cu1_16 1_555 1_555
N2_10 H1_10 1_555 1_555
H2_10 N2_10 1_555 1_555
Cu12_3 O6_16 1_555 1_555
O7_10 Cu1_16 1_555 1_555
O8_10 Cu12_3 1_555 1_555
O16_6 C21_10 1_555 1_555
O19_6 C21_10 1_555 1_555
N8 C25_10 1_555 1_555
C14_10 C15_10 1_555 1_555
C15_10 H11_10 1_555 1_555
C16_10 C15_10 1_555 1_555
C17_10 C16_10 1_555 1_555
H12_10 C17_10 1_555 1_555
C18_10 C17_10 1_555 1_555
C19_10 C14_10 1_555 1_555
H13_10 C19_10 1_555 1_555
C20_10 O7_10 1_555 1_555
C21_10 C16_10 1_555 1_555
C22_10 C18_10 1_555 1_555
C23_10 C22_10 1_555 1_555
H14_10 C23_10 1_555 1_555
C25_10 C24_10 1_555 1_555
H15_10 C25_10 1_555 1_555
C26_10 N8 1_555 1_555
H16_10 C26_10 1_555 1_555
O8_10 C20_10 1_555 1_555
C14_10 C20_10 1_555 1_555
C18_10 C19_10 1_555 1_555
C22_10 C26_10 1_555 1_555
C23_10 C24_10 1_555 1_555
O2_17 Cu1_17 1_555 1_555
O6_17 Cu1_17 1_555 1_555
N4_10 H9_10 1_555 1_555
H10_10 N4_10 1_555 1_555
Cu13_3 O6_17 1_555 1_555
O2_17 H26_3 1_555 1_555
Cu1_18 O1_10 1_555 1_555
O1_10 C7_10 1_555 1_555
O2_18 Cu1_18 1_555 1_555
O3_10 C7_10 1_555 1_555
O15_6 C8_10 1_555 1_555
O18_6 C8_10 1_555 1_555
O6_18 Cu1_18 1_555 1_555
N7 C12_10 1_555 1_555
C1_10 C2_10 1_555 1_555
C2_10 H3_10 1_555 1_555
C3_10 C2_10 1_555 1_555
C4_10 C3_10 1_555 1_555
H4_10 C4_10 1_555 1_555
C5_10 C4_10 1_555 1_555
C6_10 C1_10 1_555 1_555
H5_10 C6_10 1_555 1_555
C7_10 C1_10 1_555 1_555
C8_10 C3_10 1_555 1_555
C9_10 C5_10 1_555 1_555
C10_10 C9_10 1_555 1_555
H6_10 C10_10 1_555 1_555
C12_10 C11_10 1_555 1_555
H7_10 C12_10 1_555 1_555
C13_10 N7 1_555 1_555
H8_10 C13_10 1_555 1_555
C5_10 C6_10 1_555 1_555
C9_10 C13_10 1_555 1_555
C10_10 C11_10 1_555 1_555
O2_19 Cu1_19 1_555 1_555
O6_19 Cu1_19 1_555 1_555
O11_10 Cu1_19 1_555 1_555
O17_6 C34_10 1_555 1_555
O20_6 C34_10 1_555 1_555
N9 C38_10 1_555 1_555
N6_10 H17_10 1_555 1_555
H18_10 N6_10 1_555 1_555
C27_10 C28_10 1_555 1_555
C28_10 H19_10 1_555 1_555
C29_10 C28_10 1_555 1_555
C30_10 C29_10 1_555 1_555
H20_10 C30_10 1_555 1_555
C31_10 C30_10 1_555 1_555
C32_10 C27_10 1_555 1_555
H21_10 C32_10 1_555 1_555
C33_10 O11_10 1_555 1_555
C34_10 C29_10 1_555 1_555
C35_10 C31_10 1_555 1_555
C36_10 C35_10 1_555 1_555
H22_10 C36_10 1_555 1_555
C37_10 N6_10 1_555 1_555
C38_10 C37_10 1_555 1_555
H23_10 C38_10 1_555 1_555
C39_10 N9 1_555 1_555
H24_10 C39_10 1_555 1_555
Cu11_3 O6_19 1_555 1_555
O12_10 C33_10 1_555 1_555
C27_10 C33_10 1_555 1_555
C31_10 C32_10 1_555 1_555
C35_10 C39_10 1_555 1_555
C36_10 C37_10 1_555 1_555
O2_19 H25_5 1_555 1_555
O2_16 H25_6 1_555 1_555
O2_20 Cu1_20 1_555 1_555
O6_20 Cu1_20 1_555 1_555
N2_11 H1_11 1_555 1_555
H2_11 N2_11 1_555 1_555
Cu8_3 O6_20 1_555 1_555
O7_11 Cu1_20 1_555 1_555
O8_11 Cu8_3 1_555 1_555
O16_3 C21_11 1_555 1_555
O19_3 C21_11 1_555 1_555
N8_2 C25_11 1_555 1_555
C14_11 C15_11 1_555 1_555
C15_11 H11_11 1_555 1_555
C16_11 C15_11 1_555 1_555
C17_11 C16_11 1_555 1_555
H12_11 C17_11 1_555 1_555
C18_11 C17_11 1_555 1_555
C19_11 C14_11 1_555 1_555
H13_11 C19_11 1_555 1_555
C20_11 O7_11 1_555 1_555
C21_11 C16_11 1_555 1_555
C22_11 C18_11 1_555 1_555
C23_11 C22_11 1_555 1_555
H14_11 C23_11 1_555 1_555
C25_11 C24_11 1_555 1_555
H15_11 C25_11 1_555 1_555
C26_11 N8_2 1_555 1_555
H16_11 C26_11 1_555 1_555
O8_11 C20_11 1_555 1_555
C14_11 C20_11 1_555 1_555
C18_11 C19_11 1_555 1_555
C22_11 C26_11 1_555 1_555
C23_11 C24_11 1_555 1_555
Cu1_21 O1_11 1_555 1_555
O1_11 C7_11 1_555 1_555
O2_21 Cu1_21 1_555 1_555
O3_11 C7_11 1_555 1_555
O15_3 C8_11 1_555 1_555
O18_3 C8_11 1_555 1_555
O6_21 Cu1_21 1_555 1_555
N7_2 C12_11 1_555 1_555
C1_11 C2_11 1_555 1_555
C2_11 H3_11 1_555 1_555
C3_11 C2_11 1_555 1_555
C4_11 C3_11 1_555 1_555
H4_11 C4_11 1_555 1_555
C5_11 C4_11 1_555 1_555
C6_11 C1_11 1_555 1_555
H5_11 C6_11 1_555 1_555
C7_11 C1_11 1_555 1_555
C8_11 C3_11 1_555 1_555
C9_11 C5_11 1_555 1_555
C10_11 C9_11 1_555 1_555
H6_11 C10_11 1_555 1_555
C12_11 C11_11 1_555 1_555
H7_11 C12_11 1_555 1_555
C13_11 N7_2 1_555 1_555
H8_11 C13_11 1_555 1_555
C5_11 C6_11 1_555 1_555
C9_11 C13_11 1_555 1_555
C10_11 C11_11 1_555 1_555
O2_22 Cu1_22 1_555 1_555
O6_22 Cu1_22 1_555 1_555
N4_11 H9_11 1_555 1_555
H10_11 N4_11 1_555 1_555
Cu10_3 O6_22 1_555 1_555
O2_22 H26_4 1_555 1_555
O2_23 Cu1_23 1_555 1_555
O6_23 Cu1_23 1_555 1_555
O11_11 Cu1_23 1_555 1_555
O17_3 C34_11 1_555 1_555
O20_3 C34_11 1_555 1_555
N9_2 C38_11 1_555 1_555
N6_11 H17_11 1_555 1_555
H18_11 N6_11 1_555 1_555
C27_11 C28_11 1_555 1_555
C28_11 H19_11 1_555 1_555
C29_11 C28_11 1_555 1_555
C30_11 C29_11 1_555 1_555
H20_11 C30_11 1_555 1_555
C31_11 C30_11 1_555 1_555
C32_11 C27_11 1_555 1_555
H21_11 C32_11 1_555 1_555
C33_11 O11_11 1_555 1_555
C34_11 C29_11 1_555 1_555
C35_11 C31_11 1_555 1_555
C36_11 C35_11 1_555 1_555
H22_11 C36_11 1_555 1_555
C37_11 N6_11 1_555 1_555
C38_11 C37_11 1_555 1_555
H23_11 C38_11 1_555 1_555
C39_11 N9_2 1_555 1_555
H24_11 C39_11 1_555 1_555
Cu6_3 O6_23 1_555 1_555
O12_11 C33_11 1_555 1_555
C27_11 C33_11 1_555 1_555
C31_11 C32_11 1_555 1_555
C35_11 C39_11 1_555 1_555
C36_11 C37_11 1_555 1_555
O2_23 H25_7 1_555 1_555
O2_20 H25_8 1_555 1_555
Cu1_24 O1_12 1_555 1_555
Cu11 O3_12 1_555 1_555
O1_12 C7_12 1_555 1_555
O2_24 Cu1_24 1_555 1_555
O3_12 C7_12 1_555 1_555
O18_4 C8_12 1_555 1_555
O6_24 Cu1_24 1_555 1_555
N7_5 C12_12 1_555 1_555
N2_12 H1_12 1_555 1_555
C1_12 C2_12 1_555 1_555
C2_12 H3_12 1_555 1_555
C3_12 C2_12 1_555 1_555
C4_12 C3_12 1_555 1_555
H4_12 C4_12 1_555 1_555
C5_12 C4_12 1_555 1_555
C6_12 C1_12 1_555 1_555
H5_12 C6_12 1_555 1_555
C7_12 C1_12 1_555 1_555
C8_12 C3_12 1_555 1_555
C9_12 C5_12 1_555 1_555
C10_12 C9_12 1_555 1_555
H6_12 C10_12 1_555 1_555
C11_12 N2_12 1_555 1_555
C12_12 C11_12 1_555 1_555
H7_12 C12_12 1_555 1_555
C13_12 N7_5 1_555 1_555
H8_12 C13_12 1_555 1_555
Cu12 O6_24 1_555 1_555
O7_12 Cu1_24 1_555 1_555
O8_12 Cu12 1_555 1_555
O19_4 C21_12 1_555 1_555
N8_5 C25_12 1_555 1_555
N4_12 H9_12 1_555 1_555
H10_12 N4_12 1_555 1_555
C14_12 C15_12 1_555 1_555
C15_12 H11_12 1_555 1_555
C16_12 C15_12 1_555 1_555
C17_12 C16_12 1_555 1_555
H12_12 C17_12 1_555 1_555
C18_12 C17_12 1_555 1_555
C19_12 C14_12 1_555 1_555
H13_12 C19_12 1_555 1_555
C20_12 O7_12 1_555 1_555
C21_12 C16_12 1_555 1_555
C22_12 C18_12 1_555 1_555
C23_12 C22_12 1_555 1_555
H14_12 C23_12 1_555 1_555
C24_12 N4_12 1_555 1_555
C25_12 C24_12 1_555 1_555
H15_12 C25_12 1_555 1_555
C26_12 N8_5 1_555 1_555
H16_12 C26_12 1_555 1_555
Cu13 O6_24 1_555 1_555
O11_12 Cu1_24 1_555 1_555
O12_12 Cu13 1_555 1_555
O17_4 C34_12 1_555 1_555
O20_4 C34_12 1_555 1_555
N9_5 C38_12 1_555 1_555
N6_12 H17_12 1_555 1_555
C27_12 C28_12 1_555 1_555
C28_12 H19_12 1_555 1_555
C29_12 C28_12 1_555 1_555
C30_12 C29_12 1_555 1_555
H20_12 C30_12 1_555 1_555
C31_12 C30_12 1_555 1_555
C32_12 C27_12 1_555 1_555
H21_12 C32_12 1_555 1_555
C33_12 O11_12 1_555 1_555
C34_12 C29_12 1_555 1_555
C35_12 C31_12 1_555 1_555
C36_12 C35_12 1_555 1_555
H22_12 C36_12 1_555 1_555
C37_12 N6_12 1_555 1_555
C38_12 C37_12 1_555 1_555
H23_12 C38_12 1_555 1_555
C39_12 N9_5 1_555 1_555
H24_12 C39_12 1_555 1_555
Cu11 O6_24 1_555 1_555
C5_12 C6_12 1_555 1_555
C9_12 C13_12 1_555 1_555
C10_12 C11_12 1_555 1_555
O8_12 C20_12 1_555 1_555
C14_12 C20_12 1_555 1_555
C18_12 C19_12 1_555 1_555
C22_12 C26_12 1_555 1_555
C23_12 C24_12 1_555 1_555
O12_12 C33_12 1_555 1_555
C27_12 C33_12 1_555 1_555
C31_12 C32_12 1_555 1_555
C35_12 C39_12 1_555 1_555
C36_12 C37_12 1_555 1_555

#END
