
###############################################################################
#
# This file contains modified crystal structure data generated from the
# MOF subset of the Cambridge Structural Database (CSD) v543 
# hosted by the Cambridge Crystallographic Data Centre (CCDC).
#
# This work is licensed under the Creative Commons
# Attribution-NonCommercial-ShareAlike 4.0 International License.
# To view a copy of this license, visit
# http://creativecommons.org/licenses/by-nc-sa/4.0/
# or send a letter to
# Creative Commons, PO Box 1866, Mountain View, CA 94042, USA.
#
# CIF created using the CSD Python API on 29 September 2022
# The structure has been converted into the P1 space group
# The structure has a 3D framework
# The original CSD entry NULRUH is in the tetragonal crystal system
# The framework has been calculated to contain at least 10.0% void space
# The void calculation uses a probe of radius 1.32A, grid spacing 0.4
# The framework is charged, counterions have been retained in the structure
#
###############################################################################

data_NULRUH
_chemical_formula_moiety         '(C40 H32 Cu6 N8 6+)n'
_symmetry_cell_setting           triclinic
_symmetry_space_group_name_H-M   'P 1'
_symmetry_Int_Tables_number      1
_space_group_name_Hall           'P 1'
loop_
_symmetry_equiv_pos_site_id
_symmetry_equiv_pos_as_xyz
1 x,y,z
_cell_length_a                   10.4187(6)
_cell_length_b                   10.4187(6)
_cell_length_c                   10.0232(7)
_cell_angle_alpha                90
_cell_angle_beta                 90
_cell_angle_gamma                90
_cell_volume                     1088.01
loop_
_atom_site_label
_atom_site_type_symbol
_atom_site_fract_x
_atom_site_fract_y
_atom_site_fract_z
Cu1 Cu 0.0000 0.0000 0.0000
N6 N 0.1466(2) 0.0247(2) 0.1345(2)
Cu1_2 Cu 0.0000 1.0000 1.0000
N1 N 0.0247(2) 0.8534(2) 0.8655(2)
C3 C 0.1019(2) 0.8699(3) 0.7592(3)
C4 C 0.0920(3) 0.7951(3) 0.6463(3)
C5 C 0.0009(2) 0.6998(3) 0.6404(3)
H2 H 0.1641(2) 0.9339(3) 0.7621(3)
H3 H 0.1468(3) 0.8089(3) 0.5745(3)
Cu1_3 Cu 1.0000 0.0000 1.0000
N5 N 0.9753(2) 0.1466(2) 0.8655(2)
Cu1_4 Cu 1.0000 1.0000 0.0000
N3 N 0.8534(2) 0.9753(2) 0.1345(2)
C13 C 0.8699(3) 0.8981(2) 0.2408(3)
C14 C 0.7951(3) 0.9080(3) 0.3537(3)
C15 C 0.6998(3) 0.9991(2) 0.3596(3)
H10 H 0.9339(3) 0.8359(2) 0.2379(3)
H11 H 0.8089(3) 0.8532(3) 0.4255(3)
C13_2 C 0.8981(2) 0.1301(3) 0.7592(3)
C14_2 C 0.9080(3) 0.2049(3) 0.6463(3)
C15_2 C 0.9991(2) 0.3002(3) 0.6404(3)
H10_2 H 0.8359(2) 0.0661(3) 0.7621(3)
H11_2 H 0.8532(3) 0.1911(3) 0.5745(3)
C13_3 C 0.1301(3) 0.1019(2) 0.2408(3)
C14_3 C 0.2049(3) 0.0920(3) 0.3537(3)
C15_3 C 0.3002(3) 0.0009(2) 0.3596(3)
H10_3 H 0.0661(3) 0.1641(2) 0.2379(3)
H11_3 H 0.1911(3) 0.1468(3) 0.4255(3)
Cu1_5 Cu 0.0000 0.0000 1.0000
Cu1_6 Cu 0.0000 1.0000 0.0000
Cu1_7 Cu 1.0000 0.0000 0.0000
C11 C 0.6795(2) 0.0794(2) 0.2505(3)
C12 C 0.7592(2) 0.0628(2) 0.1410(2)
H9 H 0.7465(2) 0.1157(2) 0.0674(2)
H12 H 0.6494(3) 0.0070(2) 0.4357(3)
C16 C 0.5794(2) 0.1795(2) 0.2495(3)
C17 C 0.5628(2) 0.2592(2) 0.3590(2)
N4 N 0.4753(2) 0.3534(2) 0.3655(2)
C18 C 0.3981(2) 0.3699(3) 0.2592(3)
C19 C 0.4080(3) 0.2951(3) 0.1463(3)
C20 C 0.4991(2) 0.1998(3) 0.1404(3)
H13 H 0.5070(2) 0.1494(3) 0.0643(3)
H14 H 0.3532(3) 0.3089(3) 0.0745(3)
H15 H 0.3359(2) 0.4339(3) 0.2621(3)
H16 H 0.6157(2) 0.2465(2) 0.4326(2)
Cu3 Cu 0.5000 0.5000 0.5000
Cu1_8 Cu 1.0000 1.0000 1.0000
C1 C 0.9206(2) 0.6795(2) 0.7495(3)
C2 C 0.9372(2) 0.7592(2) 0.8590(2)
H1 H 0.8843(2) 0.7465(2) 0.9326(2)
H4 H 0.9930(2) 0.6494(3) 0.5643(3)
C6 C 0.8205(2) 0.5794(2) 0.7505(3)
C7 C 0.7408(2) 0.5628(2) 0.6410(2)
N2 N 0.6466(2) 0.4753(2) 0.6345(2)
C8 C 0.6301(3) 0.3981(2) 0.7408(3)
C9 C 0.7049(3) 0.4080(3) 0.8537(3)
C10 C 0.8002(3) 0.4991(2) 0.8596(3)
H5 H 0.8506(3) 0.5070(2) 0.9357(3)
H6 H 0.6911(3) 0.3532(3) 0.9255(3)
H7 H 0.5661(3) 0.3359(2) 0.7379(3)
H8 H 0.7535(2) 0.6157(2) 0.5674(2)
C11_2 C 0.0794(2) 0.3205(2) 0.7495(3)
C12_2 C 0.0628(2) 0.2408(2) 0.8590(2)
H9_2 H 0.1157(2) 0.2535(2) 0.9326(2)
H12_2 H 0.0070(2) 0.3506(3) 0.5643(3)
C16_2 C 0.1795(2) 0.4206(2) 0.7505(3)
C17_2 C 0.2592(2) 0.4372(2) 0.6410(2)
N4_2 N 0.3534(2) 0.5247(2) 0.6345(2)
C18_2 C 0.3699(3) 0.6019(2) 0.7408(3)
C19_2 C 0.2951(3) 0.5920(3) 0.8537(3)
C20_2 C 0.1998(3) 0.5009(2) 0.8596(3)
H13_2 H 0.1494(3) 0.4930(2) 0.9357(3)
H14_2 H 0.3089(3) 0.6468(3) 0.9255(3)
H15_2 H 0.4339(3) 0.6641(2) 0.7379(3)
H16_2 H 0.2465(2) 0.3843(2) 0.5674(2)
N5_2 N 0.5247(2) 0.6466(2) 0.3655(2)
C11_3 C 0.3205(2) 0.9206(2) 0.2505(3)
C12_3 C 0.2408(2) 0.9372(2) 0.1410(2)
H9_3 H 0.2535(2) 0.8843(2) 0.0674(2)
H12_3 H 0.3506(3) 0.9930(2) 0.4357(3)
C16_3 C 0.4206(2) 0.8205(2) 0.2495(3)
C17_3 C 0.4372(2) 0.7408(2) 0.3590(2)
C18_3 C 0.6019(2) 0.6301(3) 0.2592(3)
C19_3 C 0.5920(3) 0.7049(3) 0.1463(3)
C20_3 C 0.5009(2) 0.8002(3) 0.1404(3)
H13_3 H 0.4930(2) 0.8506(3) 0.0643(3)
H14_3 H 0.6468(3) 0.6911(3) 0.0745(3)
H15_3 H 0.6641(2) 0.5661(3) 0.2621(3)
H16_3 H 0.3843(2) 0.7535(2) 0.4326(2)
loop_
_geom_bond_atom_site_label_1
_geom_bond_atom_site_label_2
_geom_bond_site_symmetry_1
_geom_bond_site_symmetry_2
N6 Cu1 1_555 1_555
Cu1_2 N1 1_555 1_555
C3 N1 1_555 1_555
C4 C3 1_555 1_555
H2 C3 1_555 1_555
H3 C4 1_555 1_555
C4 C5 1_555 1_555
N5 Cu1_3 1_555 1_555
N3 Cu1_4 1_555 1_555
C13 N3 1_555 1_555
C14 C13 1_555 1_555
H10 C13 1_555 1_555
H11 C14 1_555 1_555
C14 C15 1_555 1_555
C13_2 N5 1_555 1_555
C14_2 C13_2 1_555 1_555
H10_2 C13_2 1_555 1_555
H11_2 C14_2 1_555 1_555
C14_2 C15_2 1_555 1_555
C13_3 N6 1_555 1_555
C14_3 C13_3 1_555 1_555
H10_3 C13_3 1_555 1_555
H11_3 C14_3 1_555 1_555
C14_3 C15_3 1_555 1_555
C11 C12 1_555 1_555
H9 C12 1_555 1_555
C16 C11 1_555 1_555
C17 C16 1_555 1_555
N4 C17 1_555 1_555
C18 N4 1_555 1_555
C19 C18 1_555 1_555
C20 C16 1_555 1_555
H13 C20 1_555 1_555
H14 C19 1_555 1_555
H15 C18 1_555 1_555
H16 C17 1_555 1_555
Cu3 N4 1_555 1_555
C19 C20 1_555 1_555
C1 C2 1_555 1_555
C2 H1 1_555 1_555
C6 C1 1_555 1_555
C7 C6 1_555 1_555
N2 C7 1_555 1_555
C8 N2 1_555 1_555
C9 C8 1_555 1_555
C10 C6 1_555 1_555
H5 C10 1_555 1_555
H6 C9 1_555 1_555
H7 C8 1_555 1_555
H8 C7 1_555 1_555
Cu3 N2 1_555 1_555
C9 C10 1_555 1_555
C11_2 C12_2 1_555 1_555
H9_2 C12_2 1_555 1_555
C16_2 C11_2 1_555 1_555
C17_2 C16_2 1_555 1_555
N4_2 C17_2 1_555 1_555
C18_2 N4_2 1_555 1_555
C19_2 C18_2 1_555 1_555
C20_2 C16_2 1_555 1_555
H13_2 C20_2 1_555 1_555
H14_2 C19_2 1_555 1_555
H15_2 C18_2 1_555 1_555
H16_2 C17_2 1_555 1_555
Cu3 N4_2 1_555 1_555
C19_2 C20_2 1_555 1_555
N5_2 Cu3 1_555 1_555
C11_3 C12_3 1_555 1_555
H9_3 C12_3 1_555 1_555
C16_3 C11_3 1_555 1_555
C17_3 C16_3 1_555 1_555
N5_2 C17_3 1_555 1_555
C18_3 N5_2 1_555 1_555
C19_3 C18_3 1_555 1_555
C20_3 C16_3 1_555 1_555
H13_3 C20_3 1_555 1_555
H14_3 C19_3 1_555 1_555
H15_3 C18_3 1_555 1_555
H16_3 C17_3 1_555 1_555
C19_3 C20_3 1_555 1_555

#END
