
###############################################################################
#
# This file contains modified crystal structure data generated from the
# MOF subset of the Cambridge Structural Database (CSD) v543 
# hosted by the Cambridge Crystallographic Data Centre (CCDC).
#
# This work is licensed under the Creative Commons
# Attribution-NonCommercial-ShareAlike 4.0 International License.
# To view a copy of this license, visit
# http://creativecommons.org/licenses/by-nc-sa/4.0/
# or send a letter to
# Creative Commons, PO Box 1866, Mountain View, CA 94042, USA.
#
# CIF created using the CSD Python API on 29 September 2022
# The structure has been converted into the P1 space group
# The structure has a 3D framework
# The original CSD entry NUMSEW is in the tetragonal crystal system
# The original CSD entry NUMSEW is in a Sohncke space group
# The framework has been calculated to contain at least 10.0% void space
# The void calculation uses a probe of radius 1.32A, grid spacing 0.4
#
###############################################################################

data_NUMSEW
_chemical_formula_moiety         '(C168 H56 F48 O57 Tb14)n'
_symmetry_cell_setting           triclinic
_symmetry_space_group_name_H-M   'P 1'
_symmetry_Int_Tables_number      1
_space_group_name_Hall           'P 1'
loop_
_symmetry_equiv_pos_site_id
_symmetry_equiv_pos_as_xyz
1 x,y,z
_cell_length_a                   15.8993(2)
_cell_length_b                   15.8993(2)
_cell_length_c                   27.5708(7)
_cell_angle_alpha                90
_cell_angle_beta                 90
_cell_angle_gamma                90
_cell_volume                     6969.56
loop_
_atom_site_label
_atom_site_type_symbol
_atom_site_fract_x
_atom_site_fract_y
_atom_site_fract_z
Tb1 Tb 0.000000 0.18286(2) 0.000000
F4 F 0.1609(3) 0.2524(4) 0.1367(3)
F6 F 0.5904(7) 0.1866(13) 0.1924(8)
O2 O -0.000000 0.0335(5) 0.000000
O4 O 0.0180(3) 0.1323(3) 0.08141(19)
O5 O 0.0171(3) 0.1002(4) 0.15773(18)
O6 O 0.7377(4) 0.0906(6) 0.1289(2)
O7 O 0.7037(3) 0.0319(4) 0.19945(19)
C8 C 0.0557(4) 0.1148(4) 0.1192(3)
C9 C 0.1513(4) 0.1115(5) 0.1196(3)
C10 C 0.1998(4) 0.1786(6) 0.1303(4)
C11 C 0.2861(5) 0.1762(6) 0.1340(4)
H4 H 0.316158 0.224783 0.141214
C12 C 0.3277(4) 0.1004(5) 0.1269(3)
C13 C 0.2788(5) 0.0284(6) 0.1133(4)
C14 C 0.1913(5) 0.0376(6) 0.1112(4)
C15 C 0.4215(3) 0.0938(5) 0.1304(3)
C16 C 0.4658(4) 0.1570(5) 0.1541(4)
H6 H 0.438354 0.205830 0.163818
C17 C 0.5513(4) 0.1473(5) 0.1631(3)
C18 C 0.5924(3) 0.0744(5) 0.1485(3)
C19 C 0.5480(4) 0.0112(4) 0.1249(3)
C20 C 0.4625(4) 0.0209(4) 0.1158(3)
C21 C 0.6857(4) 0.0649(7) 0.1605(3)
Tb4 Tb 0.81714(2) -0.000000 0.250000
Tb6 Tb 0.87673(2) 0.12327(2) 0.125000
O16 O 0.1431(3) 0.2185(4) 0.02393(18)
Tb1_2 Tb 0.000000 0.18286(2) 1.000000
O2_2 O 0.000000 0.0335(5) 1.000000
H1 H 0.025511 0.016288 0.976129
Tb8 Tb 0.12327(2) 0.12327(2) 0.875000
O14 O 0.1421(3) 0.1413(3) 0.95802(17)
O21 O 0.0319(4) 0.2963(3) 0.94945(19)
F3 F 0.1477(4) 0.9693(4) 0.1008(4)
F5 F 0.5906(5) 0.9522(6) 0.1008(6)
H5 H 0.304289 0.977314 0.106107
H7 H 0.432838 0.978649 0.100030
Tb4_2 Tb 0.81714(2) 1.000000 0.250000
Tb1_3 Tb 1.000000 0.18286(2) 0.000000
F2 F 0.7210(3) 0.0318(3) 0.0200(3)
O1 O 0.8579(3) 0.1413(3) 0.04198(17)
O2_3 O 1.000000 0.0335(5) 0.000000
C1 C 0.8192(4) 0.1795(5) 0.0077(2)
C2 C 0.7240(4) 0.1769(4) 0.0051(3)
C5 C 0.5464(4) 0.1713(5) 0.0011(4)
C6 C 0.5919(4) 0.0992(5) 0.0097(3)
H3 H 0.564849 0.047951 0.014233
C7 C 0.6779(5) 0.1044(6) 0.0116(3)
F7 F 0.2829(3) 0.3199(3) 0.0124(3)
C24 C 0.3235(4) 0.2449(5) 0.0047(4)
C25 C 0.4086(4) 0.2467(6) 0.0084(4)
H8 H 0.436641 0.295854 0.016979
H10 H 0.974489 0.016288 0.023871
O15 O 0.8587(3) 0.1421(3) 0.20802(17)
O20 O 0.9094(6) 0.2623(4) 0.1211(2)
O22 O 0.9681(4) 0.2963(3) 0.05055(19)
Tb1_4 Tb 1.000000 0.18286(2) 1.000000
F1 F 0.7171(3) 0.3199(3) 0.9876(3)
O2_4 O 1.000000 0.0335(5) 1.000000
O3 O 0.8569(3) 0.2185(4) 0.97607(18)
C3 C 0.6765(4) 0.2449(5) 0.9953(4)
C4 C 0.5914(4) 0.2467(6) 0.9916(4)
H2 H 0.563359 0.295854 0.983021
F8 F 0.2790(3) 0.0318(3) 0.9800(3)
C22 C 0.1808(4) 0.1795(5) 0.9923(2)
C23 C 0.2760(4) 0.1769(4) 0.9949(3)
C26 C 0.4536(4) 0.1713(5) 0.9989(4)
C27 C 0.4081(4) 0.0992(5) 0.9903(3)
H9 H 0.435151 0.047951 0.985767
C28 C 0.3221(5) 0.1044(6) 0.9884(3)
F10 F 0.8391(3) 0.2524(4) 0.8633(3)
F12 F 0.4096(7) 0.1866(13) 0.8076(8)
O10 O 0.9820(3) 0.1323(3) 0.91859(19)
O11 O 0.9829(3) 0.1002(4) 0.84227(18)
O12 O 0.2623(4) 0.0906(6) 0.8711(2)
O13 O 0.2963(3) 0.0319(4) 0.80055(19)
C29 C 0.9443(4) 0.1148(4) 0.8808(3)
C30 C 0.8487(4) 0.1115(5) 0.8804(3)
C31 C 0.8002(4) 0.1786(6) 0.8697(4)
C32 C 0.7139(5) 0.1762(6) 0.8660(4)
H11 H 0.683842 0.224783 0.858786
C33 C 0.6723(4) 0.1004(5) 0.8731(3)
C34 C 0.7212(5) 0.0284(6) 0.8867(4)
C35 C 0.8087(5) 0.0376(6) 0.8888(4)
C36 C 0.5785(3) 0.0938(5) 0.8696(3)
C37 C 0.5342(4) 0.1570(5) 0.8459(4)
H13 H 0.561646 0.205830 0.836182
C38 C 0.4487(4) 0.1473(5) 0.8369(3)
C39 C 0.4076(3) 0.0744(5) 0.8515(3)
C40 C 0.4520(4) 0.0112(4) 0.8751(3)
C41 C 0.5375(4) 0.0209(4) 0.8842(3)
C42 C 0.3143(4) 0.0649(7) 0.8395(3)
Tb5 Tb 0.18286(2) -0.000000 0.750000
O17 O 0.8677(3) 0.9820(3) 0.16859(19)
O18 O 0.8998(4) 0.9829(3) 0.09227(18)
F9 F 0.8523(4) 0.9693(4) 0.8992(4)
F11 F 0.4094(5) 0.9522(6) 0.8992(6)
H12 H 0.695711 0.977314 0.893893
H14 H 0.567162 0.978649 0.899970
Tb5_2 Tb 0.18286(2) 1.000000 0.750000
F3_2 F 0.0307(4) 0.1477(4) 0.3508(4)
F5_2 F 0.0478(6) 0.5906(5) 0.3508(6)
H5_2 H 0.022686 0.304289 0.356107
H7_2 H 0.021351 0.432838 0.350030
Tb4_3 Tb -0.000000 0.81714(2) 0.500000
F9_2 F 0.0307(4) 0.8523(4) 0.1492(4)
F11_2 F 0.0478(6) 0.4094(5) 0.1492(6)
H12_2 H 0.022686 0.695711 0.143893
H14_2 H 0.021351 0.567162 0.149970
O17_2 O 0.0180(3) 0.8677(3) 0.41859(19)
O18_2 O 0.0171(3) 0.8998(4) 0.34227(18)
F4_2 F 0.7476(4) 0.1609(3) 0.3867(3)
F6_2 F 0.8134(13) 0.5904(7) 0.4424(8)
O2_5 O 0.9665(5) -0.000000 0.250000
H1_2 H 0.983712 0.025511 0.226129
O4_2 O 0.8677(3) 0.0180(3) 0.33141(19)
O5_2 O 0.8998(4) 0.0171(3) 0.40773(18)
O6_2 O 0.9094(6) 0.7377(4) 0.3789(2)
O7_2 O 0.9681(4) 0.7037(3) 0.44945(19)
C8_2 C 0.8852(4) 0.0557(4) 0.3692(3)
C9_2 C 0.8885(5) 0.1513(4) 0.3696(3)
C10_2 C 0.8214(6) 0.1998(4) 0.3803(4)
C11_2 C 0.8238(6) 0.2861(5) 0.3840(4)
H4_2 H 0.775217 0.316158 0.391214
C12_2 C 0.8996(5) 0.3277(4) 0.3769(3)
C13_2 C 0.9716(6) 0.2788(5) 0.3633(4)
C14_2 C 0.9624(6) 0.1913(5) 0.3612(4)
C15_2 C 0.9062(5) 0.4215(3) 0.3804(3)
C16_2 C 0.8430(5) 0.4658(4) 0.4041(4)
H6_2 H 0.794170 0.438354 0.413818
C17_2 C 0.8527(5) 0.5513(4) 0.4131(3)
C18_2 C 0.9256(5) 0.5924(3) 0.3985(3)
C19_2 C 0.9888(4) 0.5480(4) 0.3749(3)
C20_2 C 0.9791(4) 0.4625(4) 0.3658(3)
C21_2 C 0.9351(7) 0.6857(4) 0.4105(3)
Tb4_4 Tb 1.000000 0.81714(2) 0.500000
Tb6_2 Tb 0.87673(2) 0.87673(2) 0.375000
O16_2 O 0.7815(4) 0.1431(3) 0.27393(18)
F1_2 F 0.6801(3) 0.7171(3) 0.2376(3)
F2_2 F 0.9682(3) 0.7210(3) 0.2700(3)
O1_2 O 0.8587(3) 0.8579(3) 0.29198(17)
O2_6 O 0.9665(5) 1.000000 0.250000
O3_2 O 0.7815(4) 0.8569(3) 0.22607(18)
C1_2 C 0.8205(5) 0.8192(4) 0.2577(2)
C2_2 C 0.8231(4) 0.7240(4) 0.2551(3)
C3_2 C 0.7551(5) 0.6765(4) 0.2453(4)
C4_2 C 0.7533(6) 0.5914(4) 0.2416(4)
H2_2 H 0.704146 0.563359 0.233021
C5_2 C 0.8287(5) 0.5464(4) 0.2511(4)
C6_2 C 0.9008(5) 0.5919(4) 0.2597(3)
H3_2 H 0.952049 0.564849 0.264233
C7_2 C 0.8956(6) 0.6779(5) 0.2616(3)
F7_2 F 0.6801(3) 0.2829(3) 0.2624(3)
F8_2 F 0.9682(3) 0.2790(3) 0.2300(3)
C22_2 C 0.8205(5) 0.1808(4) 0.2423(2)
C23_2 C 0.8231(4) 0.2760(4) 0.2449(3)
C24_2 C 0.7551(5) 0.3235(4) 0.2547(4)
C25_2 C 0.7533(6) 0.4086(4) 0.2584(4)
H8_2 H 0.704146 0.436641 0.266979
C26_2 C 0.8287(5) 0.4536(4) 0.2489(4)
C27_2 C 0.9008(5) 0.4081(4) 0.2403(3)
H9_2 H 0.952049 0.435151 0.235767
C28_2 C 0.8956(6) 0.3221(5) 0.2384(3)
H10_2 H 0.983712 0.974489 0.273871
F10_2 F 0.7476(4) 0.8391(3) 0.1133(3)
F12_2 F 0.8134(13) 0.4096(7) 0.0576(8)
C29_2 C 0.8852(4) 0.9443(4) 0.1308(3)
C30_2 C 0.8885(5) 0.8487(4) 0.1304(3)
C31_2 C 0.8214(6) 0.8002(4) 0.1197(4)
C32_2 C 0.8238(6) 0.7139(5) 0.1160(4)
H11_2 H 0.775217 0.683842 0.108786
C33_2 C 0.8996(5) 0.6723(4) 0.1231(3)
C34_2 C 0.9716(6) 0.7212(5) 0.1367(4)
C35_2 C 0.9624(6) 0.8087(5) 0.1388(4)
C36_2 C 0.9062(5) 0.5785(3) 0.1196(3)
C37_2 C 0.8430(5) 0.5342(4) 0.0959(4)
H13_2 H 0.794170 0.561646 0.086182
C38_2 C 0.8527(5) 0.4487(4) 0.0869(3)
C39_2 C 0.9256(5) 0.4076(3) 0.1015(3)
C40_2 C 0.9888(4) 0.4520(4) 0.1251(3)
C41_2 C 0.9791(4) 0.5375(4) 0.1342(3)
C42_2 C 0.9351(7) 0.3143(4) 0.0895(3)
O15_2 O 0.8579(3) 0.8587(3) 0.45802(17)
O20_2 O 0.7377(4) 0.9094(6) 0.3711(2)
O22_2 O 0.7037(3) 0.9681(4) 0.30055(19)
F9_3 F 0.1477(4) 0.0307(4) 0.3992(4)
F11_3 F 0.5906(5) 0.0478(6) 0.3992(6)
H12_3 H 0.304289 0.022686 0.393893
H14_3 H 0.432838 0.021351 0.399970
O17_3 O 0.1323(3) 0.0180(3) 0.66859(19)
O18_3 O 0.1002(4) 0.0171(3) 0.59227(18)
Tb2 Tb 0.12327(2) 0.87673(2) 0.625000
F1_3 F 0.2829(3) 0.6801(3) 0.4876(3)
F2_3 F 0.2790(3) 0.9682(3) 0.5200(3)
O1_3 O 0.1421(3) 0.8587(3) 0.54198(17)
O2_7 O 0.000000 0.9665(5) 0.500000
O3_3 O 0.1431(3) 0.7815(4) 0.47607(18)
C1_3 C 0.1808(4) 0.8205(5) 0.5077(2)
C2_3 C 0.2760(4) 0.8231(4) 0.5051(3)
C3_3 C 0.3235(4) 0.7551(5) 0.4953(4)
C4_3 C 0.4086(4) 0.7533(6) 0.4916(4)
H2_3 H 0.436641 0.704146 0.483021
C5_3 C 0.4536(4) 0.8287(5) 0.5011(4)
C6_3 C 0.4081(4) 0.9008(5) 0.5097(3)
H3_3 H 0.435151 0.952049 0.514233
C7_3 C 0.3221(5) 0.8956(6) 0.5116(3)
F7_3 F 0.7171(3) 0.6801(3) 0.5124(3)
F8_3 F 0.7210(3) 0.9682(3) 0.4800(3)
O9 O 0.8569(3) 0.7815(4) 0.52393(18)
C22_3 C 0.8192(4) 0.8205(5) 0.4923(2)
C23_3 C 0.7240(4) 0.8231(4) 0.4949(3)
C24_3 C 0.6765(4) 0.7551(5) 0.5047(4)
C25_3 C 0.5914(4) 0.7533(6) 0.5084(4)
H8_3 H 0.563359 0.704146 0.516979
C26_3 C 0.5464(4) 0.8287(5) 0.4989(4)
C27_3 C 0.5919(4) 0.9008(5) 0.4903(3)
H9_3 H 0.564849 0.952049 0.485767
C28_3 C 0.6779(5) 0.8956(6) 0.4884(3)
H10_3 H 0.025511 0.983712 0.523871
F10_3 F 0.1609(3) 0.7476(4) 0.3633(3)
F12_3 F 0.5904(7) 0.8134(13) 0.3076(8)
C29_3 C 0.0557(4) 0.8852(4) 0.3808(3)
C30_3 C 0.1513(4) 0.8885(5) 0.3804(3)
C31_3 C 0.1998(4) 0.8214(6) 0.3697(4)
C32_3 C 0.2861(5) 0.8238(6) 0.3660(4)
H11_3 H 0.316158 0.775217 0.358786
C33_3 C 0.3277(4) 0.8996(5) 0.3731(3)
C34_3 C 0.2788(5) 0.9716(6) 0.3867(4)
C35_3 C 0.1913(5) 0.9624(6) 0.3888(4)
C36_3 C 0.4215(3) 0.9062(5) 0.3696(3)
C37_3 C 0.4658(4) 0.8430(5) 0.3459(4)
H13_3 H 0.438354 0.794170 0.336182
C38_3 C 0.5513(4) 0.8527(5) 0.3369(3)
C39_3 C 0.5924(3) 0.9256(5) 0.3515(3)
C40_3 C 0.5480(4) 0.9888(4) 0.3751(3)
C41_3 C 0.4625(4) 0.9791(4) 0.3842(3)
C42_3 C 0.6857(4) 0.9351(7) 0.3395(3)
O15_3 O 0.1413(3) 0.8579(3) 0.70802(17)
O19 O 0.2623(4) 0.9094(6) 0.6289(2)
O20_3 O 0.0906(6) 0.7377(4) 0.6211(2)
O22_3 O 0.0319(4) 0.7037(3) 0.55055(19)
F3_3 F 0.8523(4) 0.0307(4) 0.6008(4)
F5_3 F 0.4094(5) 0.0478(6) 0.6008(6)
H5_3 H 0.695711 0.022686 0.606107
H7_3 H 0.567162 0.021351 0.600030
F4_3 F 0.8391(3) 0.7476(4) 0.6367(3)
F6_3 F 0.4096(7) 0.8134(13) 0.6924(8)
O2_8 O 1.000000 0.9665(5) 0.500000
H1_3 H 0.974489 0.983712 0.476129
O4_3 O 0.9820(3) 0.8677(3) 0.58141(19)
O5_3 O 0.9829(3) 0.8998(4) 0.65773(18)
O7_3 O 0.2963(3) 0.9681(4) 0.69945(19)
C8_3 C 0.9443(4) 0.8852(4) 0.6192(3)
C9_3 C 0.8487(4) 0.8885(5) 0.6196(3)
C10_3 C 0.8002(4) 0.8214(6) 0.6303(4)
C11_3 C 0.7139(5) 0.8238(6) 0.6340(4)
H4_3 H 0.683842 0.775217 0.641214
C12_3 C 0.6723(4) 0.8996(5) 0.6269(3)
C13_3 C 0.7212(5) 0.9716(6) 0.6133(4)
C14_3 C 0.8087(5) 0.9624(6) 0.6112(4)
C15_3 C 0.5785(3) 0.9062(5) 0.6304(3)
C16_3 C 0.5342(4) 0.8430(5) 0.6541(4)
H6_3 H 0.561646 0.794170 0.663818
C17_3 C 0.4487(4) 0.8527(5) 0.6631(3)
C18_3 C 0.4076(3) 0.9256(5) 0.6485(3)
C19_3 C 0.4520(4) 0.9888(4) 0.6249(3)
C20_3 C 0.5375(4) 0.9791(4) 0.6158(3)
C21_3 C 0.3143(4) 0.9351(7) 0.6605(3)
F1_4 F 0.3199(3) 0.2829(3) 0.7376(3)
F2_4 F 0.0318(3) 0.2790(3) 0.7700(3)
O1_4 O 0.1413(3) 0.1421(3) 0.79198(17)
O2_9 O 0.0335(5) -0.000000 0.750000
O3_4 O 0.2185(4) 0.1431(3) 0.72607(18)
C1_4 C 0.1795(5) 0.1808(4) 0.7577(2)
C2_4 C 0.1769(4) 0.2760(4) 0.7551(3)
C3_4 C 0.2449(5) 0.3235(4) 0.7453(4)
C4_4 C 0.2467(6) 0.4086(4) 0.7416(4)
H2_4 H 0.295854 0.436641 0.733021
C5_4 C 0.1713(5) 0.4536(4) 0.7511(4)
C6_4 C 0.0992(5) 0.4081(4) 0.7597(3)
H3_4 H 0.047951 0.435151 0.764233
C7_4 C 0.1044(6) 0.3221(5) 0.7616(3)
F7_4 F 0.3199(3) 0.7171(3) 0.7624(3)
F8_4 F 0.0318(3) 0.7210(3) 0.7300(3)
O9_2 O 0.2185(4) 0.8569(3) 0.77393(18)
C22_4 C 0.1795(5) 0.8192(4) 0.7423(2)
C23_4 C 0.1769(4) 0.7240(4) 0.7449(3)
C24_4 C 0.2449(5) 0.6765(4) 0.7547(4)
C25_4 C 0.2467(6) 0.5914(4) 0.7584(4)
H8_4 H 0.295854 0.563359 0.766979
C26_4 C 0.1713(5) 0.5464(4) 0.7489(4)
C27_4 C 0.0992(5) 0.5919(4) 0.7403(3)
H9_4 H 0.047951 0.564849 0.735767
C28_4 C 0.1044(6) 0.6779(5) 0.7384(3)
H10_4 H 0.016288 0.025511 0.773871
F10_4 F 0.2524(4) 0.1609(3) 0.6133(3)
F12_4 F 0.1866(13) 0.5904(7) 0.5576(8)
C29_4 C 0.1148(4) 0.0557(4) 0.6308(3)
C30_4 C 0.1115(5) 0.1513(4) 0.6304(3)
C31_4 C 0.1786(6) 0.1998(4) 0.6197(4)
C32_4 C 0.1762(6) 0.2861(5) 0.6160(4)
H11_4 H 0.224783 0.316158 0.608786
C33_4 C 0.1004(5) 0.3277(4) 0.6231(3)
C34_4 C 0.0284(6) 0.2788(5) 0.6367(4)
C35_4 C 0.0376(6) 0.1913(5) 0.6388(4)
C36_4 C 0.0938(5) 0.4215(3) 0.6196(3)
C37_4 C 0.1570(5) 0.4658(4) 0.5959(4)
H13_4 H 0.205830 0.438354 0.586182
C38_4 C 0.1473(5) 0.5513(4) 0.5869(3)
C39_4 C 0.0744(5) 0.5924(3) 0.6015(3)
C40_4 C 0.0112(4) 0.5480(4) 0.6251(3)
C41_4 C 0.0209(4) 0.4625(4) 0.6342(3)
C42_4 C 0.0649(7) 0.6857(4) 0.5895(3)
O19_2 O 0.0906(6) 0.2623(4) 0.8789(2)
F4_4 F 0.2524(4) 0.8391(3) 0.8867(3)
F6_4 F 0.1866(13) 0.4096(7) 0.9424(8)
O2_10 O 0.0335(5) 1.000000 0.750000
H1_4 H 0.016288 0.974489 0.726129
O4_4 O 0.1323(3) 0.9820(3) 0.83141(19)
O5_4 O 0.1002(4) 0.9829(3) 0.90773(18)
C8_4 C 0.1148(4) 0.9443(4) 0.8692(3)
C9_4 C 0.1115(5) 0.8487(4) 0.8696(3)
C10_4 C 0.1786(6) 0.8002(4) 0.8803(4)
C11_4 C 0.1762(6) 0.7139(5) 0.8840(4)
H4_4 H 0.224783 0.683842 0.891214
C12_4 C 0.1004(5) 0.6723(4) 0.8769(3)
C13_4 C 0.0284(6) 0.7212(5) 0.8633(4)
C14_4 C 0.0376(6) 0.8087(5) 0.8612(4)
C15_4 C 0.0938(5) 0.5785(3) 0.8804(3)
C16_4 C 0.1570(5) 0.5342(4) 0.9041(4)
H6_4 H 0.205830 0.561646 0.913818
C17_4 C 0.1473(5) 0.4487(4) 0.9131(3)
C18_4 C 0.0744(5) 0.4076(3) 0.8985(3)
C19_4 C 0.0112(4) 0.4520(4) 0.8749(3)
C20_4 C 0.0209(4) 0.5375(4) 0.8658(3)
C21_4 C 0.0649(7) 0.3143(4) 0.9105(3)
F9_4 F 0.9693(4) 0.1477(4) 0.6492(4)
F11_4 F 0.9522(6) 0.5906(5) 0.6492(6)
H12_4 H 0.977314 0.304289 0.643893
H14_4 H 0.978649 0.432838 0.649970
F3_4 F 0.9693(4) 0.8523(4) 0.8508(4)
F5_4 F 0.9522(6) 0.4094(5) 0.8508(6)
H5_4 H 0.977314 0.695711 0.856107
H7_4 H 0.978649 0.567162 0.850030
loop_
_geom_bond_atom_site_label_1
_geom_bond_atom_site_label_2
_geom_bond_site_symmetry_1
_geom_bond_site_symmetry_2
F4 C10 1_555 1_555
F6 C17 1_555 1_555
O2 Tb1 1_555 1_555
O4 Tb1 1_555 1_555
O6 C21 1_555 1_555
O7 C21 1_555 1_555
C8 O4 1_555 1_555
C9 C8 1_555 1_555
C10 C9 1_555 1_555
C11 C10 1_555 1_555
H4 C11 1_555 1_555
C12 C11 1_555 1_555
C13 C12 1_555 1_555
C14 C9 1_555 1_555
C15 C12 1_555 1_555
C16 C15 1_555 1_555
H6 C16 1_555 1_555
C17 C16 1_555 1_555
C18 C17 1_555 1_555
C19 C18 1_555 1_555
C20 C15 1_555 1_555
C21 C18 1_555 1_555
Tb4 O7 1_555 1_555
Tb6 O6 1_555 1_555
O16 Tb1 1_555 1_555
O5 C8 1_555 1_555
C13 C14 1_555 1_555
C19 C20 1_555 1_555
O2_2 Tb1_2 1_555 1_555
H1 O2_2 1_555 1_555
O14 Tb1_2 1_555 1_555
O21 Tb1_2 1_555 1_555
Tb8 O14 1_555 1_555
Tb1_3 O1 1_555 1_555
Tb6 O1 1_555 1_555
F2 C7 1_555 1_555
O1 C1 1_555 1_555
O2_3 Tb1_3 1_555 1_555
C2 C1 1_555 1_555
C6 C5 1_555 1_555
H3 C6 1_555 1_555
C7 C2 1_555 1_555
F7 C24 1_555 1_555
C24 C25 1_555 1_555
C25 H8 1_555 1_555
H10 O2_3 1_555 1_555
O15 Tb6 1_555 1_555
O20 Tb6 1_555 1_555
O22 Tb1_3 1_555 1_555
C6 C7 1_555 1_555
F1 C3 1_555 1_555
O2_4 Tb1_4 1_555 1_555
O3 Tb1_4 1_555 1_555
C4 C3 1_555 1_555
H2 C4 1_555 1_555
F8 C28 1_555 1_555
O14 C22 1_555 1_555
C22 C23 1_555 1_555
C27 C26 1_555 1_555
H9 C27 1_555 1_555
C28 C23 1_555 1_555
F10 C31 1_555 1_555
F12 C38 1_555 1_555
O10 Tb1_4 1_555 1_555
O11 C29 1_555 1_555
O12 C42 1_555 1_555
O13 C42 1_555 1_555
C29 O10 1_555 1_555
C30 C29 1_555 1_555
C31 C30 1_555 1_555
C32 C31 1_555 1_555
H11 C32 1_555 1_555
C33 C32 1_555 1_555
C34 C33 1_555 1_555
C35 C30 1_555 1_555
C36 C33 1_555 1_555
C37 C36 1_555 1_555
H13 C37 1_555 1_555
C38 C37 1_555 1_555
C39 C38 1_555 1_555
C40 C39 1_555 1_555
C41 C36 1_555 1_555
C42 C39 1_555 1_555
Tb5 O13 1_555 1_555
C27 C28 1_555 1_555
O12 Tb8 1_555 1_555
C34 C35 1_555 1_555
C40 C41 1_555 1_555
F4_2 C10_2 1_555 1_555
F6_2 C17_2 1_555 1_555
O2_5 Tb4 1_555 1_555
H1_2 O2_5 1_555 1_555
O4_2 Tb4 1_555 1_555
O6_2 C21_2 1_555 1_555
O7_2 C21_2 1_555 1_555
C8_2 O4_2 1_555 1_555
C9_2 C8_2 1_555 1_555
C10_2 C9_2 1_555 1_555
C11_2 C10_2 1_555 1_555
H4_2 C11_2 1_555 1_555
C12_2 C11_2 1_555 1_555
C13_2 C12_2 1_555 1_555
C14_2 C9_2 1_555 1_555
C15_2 C12_2 1_555 1_555
C16_2 C15_2 1_555 1_555
H6_2 C16_2 1_555 1_555
C17_2 C16_2 1_555 1_555
C18_2 C17_2 1_555 1_555
C19_2 C18_2 1_555 1_555
C20_2 C15_2 1_555 1_555
C21_2 C18_2 1_555 1_555
Tb4_4 O7_2 1_555 1_555
Tb6_2 O6_2 1_555 1_555
O15 Tb4 1_555 1_555
O16_2 Tb4 1_555 1_555
O5_2 C8_2 1_555 1_555
C13_2 C14_2 1_555 1_555
C19_2 C20_2 1_555 1_555
Tb4_2 O1_2 1_555 1_555
Tb6_2 O1_2 1_555 1_555
F1_2 C3_2 1_555 1_555
F2_2 C7_2 1_555 1_555
O1_2 C1_2 1_555 1_555
O2_6 Tb4_2 1_555 1_555
O3_2 Tb4_2 1_555 1_555
C1_2 O3_2 1_555 1_555
C2_2 C1_2 1_555 1_555
C3_2 C2_2 1_555 1_555
C4_2 C3_2 1_555 1_555
H2_2 C4_2 1_555 1_555
C5_2 C4_2 1_555 1_555
C6_2 C5_2 1_555 1_555
H3_2 C6_2 1_555 1_555
C7_2 C2_2 1_555 1_555
F7_2 C24_2 1_555 1_555
F8_2 C28_2 1_555 1_555
O15 C22_2 1_555 1_555
O16_2 C22_2 1_555 1_555
C22_2 C23_2 1_555 1_555
C23_2 C24_2 1_555 1_555
C24_2 C25_2 1_555 1_555
C25_2 H8_2 1_555 1_555
C26_2 C5_2 1_555 1_555
C27_2 C26_2 1_555 1_555
H9_2 C27_2 1_555 1_555
C28_2 C23_2 1_555 1_555
H10_2 O2_6 1_555 1_555
F10_2 C31_2 1_555 1_555
F12_2 C38_2 1_555 1_555
O17 Tb4_2 1_555 1_555
O18 C29_2 1_555 1_555
O20 C42_2 1_555 1_555
O22 C42_2 1_555 1_555
C29_2 O17 1_555 1_555
C30_2 C29_2 1_555 1_555
C31_2 C30_2 1_555 1_555
C32_2 C31_2 1_555 1_555
H11_2 C32_2 1_555 1_555
C33_2 C32_2 1_555 1_555
C34_2 C33_2 1_555 1_555
C35_2 C30_2 1_555 1_555
C36_2 C33_2 1_555 1_555
C37_2 C36_2 1_555 1_555
H13_2 C37_2 1_555 1_555
C38_2 C37_2 1_555 1_555
C39_2 C38_2 1_555 1_555
C40_2 C39_2 1_555 1_555
C41_2 C36_2 1_555 1_555
C42_2 C39_2 1_555 1_555
O15_2 Tb6_2 1_555 1_555
O20_2 Tb6_2 1_555 1_555
O22_2 Tb4_2 1_555 1_555
C6_2 C7_2 1_555 1_555
C25_2 C26_2 1_555 1_555
C27_2 C28_2 1_555 1_555
C34_2 C35_2 1_555 1_555
C40_2 C41_2 1_555 1_555
Tb4_3 O1_3 1_555 1_555
Tb2 O1_3 1_555 1_555
F1_3 C3_3 1_555 1_555
F2_3 C7_3 1_555 1_555
O1_3 C1_3 1_555 1_555
O2_7 Tb4_3 1_555 1_555
O3_3 Tb4_3 1_555 1_555
C1_3 O3_3 1_555 1_555
C2_3 C1_3 1_555 1_555
C3_3 C2_3 1_555 1_555
C4_3 C3_3 1_555 1_555
H2_3 C4_3 1_555 1_555
C5_3 C4_3 1_555 1_555
C6_3 C5_3 1_555 1_555
H3_3 C6_3 1_555 1_555
C7_3 C2_3 1_555 1_555
F7_3 C24_3 1_555 1_555
F8_3 C28_3 1_555 1_555
O15_2 C22_3 1_555 1_555
O9 C22_3 1_555 1_555
C22_3 C23_3 1_555 1_555
C23_3 C24_3 1_555 1_555
C24_3 C25_3 1_555 1_555
C25_3 H8_3 1_555 1_555
C26_3 C5_3 1_555 1_555
C27_3 C26_3 1_555 1_555
H9_3 C27_3 1_555 1_555
C28_3 C23_3 1_555 1_555
H10_3 O2_7 1_555 1_555
F10_3 C31_3 1_555 1_555
F12_3 C38_3 1_555 1_555
O17_2 Tb4_3 1_555 1_555
O18_2 C29_3 1_555 1_555
O20_2 C42_3 1_555 1_555
O22_2 C42_3 1_555 1_555
C29_3 O17_2 1_555 1_555
C30_3 C29_3 1_555 1_555
C31_3 C30_3 1_555 1_555
C32_3 C31_3 1_555 1_555
H11_3 C32_3 1_555 1_555
C33_3 C32_3 1_555 1_555
C34_3 C33_3 1_555 1_555
C35_3 C30_3 1_555 1_555
C36_3 C33_3 1_555 1_555
C37_3 C36_3 1_555 1_555
H13_3 C37_3 1_555 1_555
C38_3 C37_3 1_555 1_555
C39_3 C38_3 1_555 1_555
C40_3 C39_3 1_555 1_555
C41_3 C36_3 1_555 1_555
C42_3 C39_3 1_555 1_555
Tb4_4 O15_2 1_555 1_555
O15_3 Tb2 1_555 1_555
O19 Tb2 1_555 1_555
O20_3 Tb2 1_555 1_555
O22_3 Tb4_3 1_555 1_555
C6_3 C7_3 1_555 1_555
O9 Tb4_4 1_555 1_555
C25_3 C26_3 1_555 1_555
C27_3 C28_3 1_555 1_555
C34_3 C35_3 1_555 1_555
C40_3 C41_3 1_555 1_555
F4_3 C10_3 1_555 1_555
F6_3 C17_3 1_555 1_555
O2_8 Tb4_4 1_555 1_555
H1_3 O2_8 1_555 1_555
O4_3 Tb4_4 1_555 1_555
O19 C21_3 1_555 1_555
O7_3 C21_3 1_555 1_555
C8_3 O4_3 1_555 1_555
C9_3 C8_3 1_555 1_555
C10_3 C9_3 1_555 1_555
C11_3 C10_3 1_555 1_555
H4_3 C11_3 1_555 1_555
C12_3 C11_3 1_555 1_555
C13_3 C12_3 1_555 1_555
C14_3 C9_3 1_555 1_555
C15_3 C12_3 1_555 1_555
C16_3 C15_3 1_555 1_555
H6_3 C16_3 1_555 1_555
C17_3 C16_3 1_555 1_555
C18_3 C17_3 1_555 1_555
C19_3 C18_3 1_555 1_555
C20_3 C15_3 1_555 1_555
C21_3 C18_3 1_555 1_555
Tb5_2 O7_3 1_555 1_555
O5_3 C8_3 1_555 1_555
C13_3 C14_3 1_555 1_555
C19_3 C20_3 1_555 1_555
Tb5 O1_4 1_555 1_555
Tb8 O1_4 1_555 1_555
F1_4 C3_4 1_555 1_555
F2_4 C7_4 1_555 1_555
O1_4 C1_4 1_555 1_555
O2_9 Tb5 1_555 1_555
O3_4 Tb5 1_555 1_555
C1_4 O3_4 1_555 1_555
C2_4 C1_4 1_555 1_555
C3_4 C2_4 1_555 1_555
C4_4 C3_4 1_555 1_555
H2_4 C4_4 1_555 1_555
C5_4 C4_4 1_555 1_555
C6_4 C5_4 1_555 1_555
H3_4 C6_4 1_555 1_555
C7_4 C2_4 1_555 1_555
F7_4 C24_4 1_555 1_555
F8_4 C28_4 1_555 1_555
O15_3 C22_4 1_555 1_555
O9_2 C22_4 1_555 1_555
C22_4 C23_4 1_555 1_555
C23_4 C24_4 1_555 1_555
C24_4 C25_4 1_555 1_555
C25_4 H8_4 1_555 1_555
C26_4 C5_4 1_555 1_555
C27_4 C26_4 1_555 1_555
H9_4 C27_4 1_555 1_555
C28_4 C23_4 1_555 1_555
H10_4 O2_9 1_555 1_555
F10_4 C31_4 1_555 1_555
F12_4 C38_4 1_555 1_555
O17_3 Tb5 1_555 1_555
O18_3 C29_4 1_555 1_555
O20_3 C42_4 1_555 1_555
O22_3 C42_4 1_555 1_555
C29_4 O17_3 1_555 1_555
C30_4 C29_4 1_555 1_555
C31_4 C30_4 1_555 1_555
C32_4 C31_4 1_555 1_555
H11_4 C32_4 1_555 1_555
C33_4 C32_4 1_555 1_555
C34_4 C33_4 1_555 1_555
C35_4 C30_4 1_555 1_555
C36_4 C33_4 1_555 1_555
C37_4 C36_4 1_555 1_555
H13_4 C37_4 1_555 1_555
C38_4 C37_4 1_555 1_555
C39_4 C38_4 1_555 1_555
C40_4 C39_4 1_555 1_555
C41_4 C36_4 1_555 1_555
C42_4 C39_4 1_555 1_555
Tb5_2 O15_3 1_555 1_555
O19_2 Tb8 1_555 1_555
C6_4 C7_4 1_555 1_555
O9_2 Tb5_2 1_555 1_555
C25_4 C26_4 1_555 1_555
C27_4 C28_4 1_555 1_555
C34_4 C35_4 1_555 1_555
C40_4 C41_4 1_555 1_555
F4_4 C10_4 1_555 1_555
F6_4 C17_4 1_555 1_555
O2_10 Tb5_2 1_555 1_555
H1_4 O2_10 1_555 1_555
O4_4 Tb5_2 1_555 1_555
O19_2 C21_4 1_555 1_555
O21 C21_4 1_555 1_555
C8_4 O4_4 1_555 1_555
C9_4 C8_4 1_555 1_555
C10_4 C9_4 1_555 1_555
C11_4 C10_4 1_555 1_555
H4_4 C11_4 1_555 1_555
C12_4 C11_4 1_555 1_555
C13_4 C12_4 1_555 1_555
C14_4 C9_4 1_555 1_555
C15_4 C12_4 1_555 1_555
C16_4 C15_4 1_555 1_555
H6_4 C16_4 1_555 1_555
C17_4 C16_4 1_555 1_555
C18_4 C17_4 1_555 1_555
C19_4 C18_4 1_555 1_555
C20_4 C15_4 1_555 1_555
C21_4 C18_4 1_555 1_555
O5_4 C8_4 1_555 1_555
C13_4 C14_4 1_555 1_555
C19_4 C20_4 1_555 1_555

#END
