####################################################################### 
# 
# This file contains crystal structure data downloaded from the 
# Cambridge Structural Database (CSD) hosted by the Cambridge 
# Crystallographic Data Centre (CCDC).
# 
# Full information about CCDC data access policies and citation 
# guidelines are available at http://www.ccdc.cam.ac.uk/access/V1 
# 
# Audit and citation data items may have been added by the CCDC. 
# Please retain this information to preserve the provenance of 
# this file and to allow appropriate attribution of the data. 
# 
#######################################################################

data_VICS_phase_1
_audit_block_doi                 10.5517/cc1jxrkr
_database_code_depnum_ccdc_archive 'CCDC 1427815'
loop_
_citation_id
_citation_doi
_citation_year
1 10.1021/acs.inorgchem.5b01176 2015
2 10.1021/ic971493k 1998
_audit_update_record             
;
2015-09-22 deposited with the CCDC.	2024-07-11 downloaded from the CCDC.
;


_pd_phase_name                   LaCr(ox)3
_cell_length_a                   36.08000
_cell_length_b                   10.90600
_cell_length_c                   10.93500
_cell_angle_alpha                90
_cell_angle_beta                 105.55000
_cell_angle_gamma                90
_symmetry_space_group_name_H-M   'C 2  '
_symmetry_Int_Tables_number      5

loop_
_symmetry_equiv_pos_site_id
_symmetry_equiv_pos_as_xyz
1 'x, y, z'
2 '-x, y, -z'
3 'x+1/2, y+1/2, z'
4 '-x+1/2, y+1/2, -z'

loop_
_atom_site_label
_atom_site_occupancy
_atom_site_fract_x
_atom_site_fract_y
_atom_site_fract_z
_atom_site_thermal_displace_type
_atom_site_B_iso_or_equiv
_atom_site_type_symbol
La1 1.0 0.11880 -0.00090 0.85330 Biso 1.000 La
Cr1 1.0 -0.05330 0.02420 0.70220 Biso 1.000 Cr
O11 1.0 -0.05840 0.13880 0.55530 Biso 1.000 O
O21 1.0 -0.09150 -0.07610 0.58070 Biso 1.000 O
C11 1.0 -0.08110 0.08960 0.45260 Biso 1.000 C
C21 1.0 -0.09840 -0.03630 0.46620 Biso 1.000 C
O31 1.0 -0.08930 0.13720 0.34730 Biso 1.000 O
O41 1.0 -0.11700 -0.08860 0.37230 Biso 1.000 O
O12 1.0 -0.09020 0.11960 0.76860 Biso 1.000 O
O22 1.0 -0.05510 -0.08780 0.84200 Biso 1.000 O
C12 1.0 -0.09710 0.07290 0.86770 Biso 1.000 C
C22 1.0 -0.07750 -0.05070 0.90880 Biso 1.000 C
O32 1.0 -0.11810 0.11590 0.92870 Biso 1.000 O
O42 1.0 -0.08290 -0.10470 1.00030 Biso 1.000 O
O13 1.0 -0.00960 0.12040 0.80670 Biso 1.000 O
O23 1.0 -0.01160 -0.07300 0.66450 Biso 1.000 O
C13 1.0 0.02290 0.07830 0.80390 Biso 1.000 C
C23 1.0 0.02180 -0.03840 0.72400 Biso 1.000 C
O33 1.0 0.05440 0.12280 0.85950 Biso 1.000 O
O43 1.0 0.05230 -0.08900 0.72270 Biso 1.000 O
La2 1.0 0.13190 0.53080 0.34530 Biso 1.000 La
Cr2 1.0 0.30300 0.53190 0.56000 Biso 1.000 Cr
O14 1.0 0.26390 0.60140 0.41480 Biso 1.000 O
O24 1.0 0.25730 0.45970 0.60090 Biso 1.000 O
C14 1.0 0.22950 0.56870 0.40990 Biso 1.000 C
C24 1.0 0.22600 0.49030 0.52230 Biso 1.000 C
O34 1.0 0.20040 0.59740 0.32610 Biso 1.000 O
O44 1.0 0.19320 0.46050 0.52940 Biso 1.000 O
O15 1.0 0.31010 0.38650 0.45990 Biso 1.000 O
O25 1.0 0.33710 0.44030 0.69990 Biso 1.000 O
C15 1.0 0.33050 0.30360 0.52720 Biso 1.000 C
C25 1.0 0.34580 0.33360 0.66900 Biso 1.000 C
O35 1.0 0.33850 0.20300 0.48980 Biso 1.000 O
O45 1.0 0.36410 0.25540 0.74030 Biso 1.000 O
O16 1.0 0.15650 0.12650 0.48640 Biso 1.000 O
O26 1.0 0.19740 0.17300 0.32770 Biso 1.000 O
C16 1.0 0.15000 0.23120 0.43250 Biso 1.000 C
C26 1.0 0.17290 0.25610 0.33510 Biso 1.000 C
O36 1.0 0.12900 0.31270 0.45180 Biso 1.000 O
O46 1.0 0.16740 0.35120 0.27230 Biso 1.000 O
O1W 1.0 0.17550 -0.05180 1.04780 Biso 1.000 O
O2W 1.0 0.18390 -0.03050 0.79690 Biso 1.000 O
O3W 1.0 0.12590 -0.23500 0.86160 Biso 1.000 O
O4W 1.0 0.15340 0.20120 0.88010 Biso 1.000 O
O5W 1.0 0.06880 0.65210 0.27030 Biso 1.000 O
O6W 1.0 0.09890 0.53640 0.51900 Biso 1.000 O
O7W 1.0 0.07580 0.39140 0.22720 Biso 1.000 O
O8W 1.0 0.12490 0.55260 0.10520 Biso 1.000 O
O9W 1.0 0.20430 0.28410 0.74690 Biso 1.000 O
O10W 1.0 0.17430 0.62710 0.76660 Biso 1.000 O
O11W 1.0 0.24420 0.49410 1.04950 Biso 1.000 O
O12W 1.0 0.07310 0.37590 0.68130 Biso 1.000 O
O13W 1.0 0.21640 0.73160 1.11230 Biso 1.000 O
O14W 1.0 0.04320 0.70420 0.54890 Biso 1.000 O
O15W 1.0 0.03670 0.36520 0.97290 Biso 1.000 O
O16A 0.500 0.20210 0.32220 0.07980 Biso 1.000 O
O17A 0.500 0 0.71100 0 Biso 1.000 O
O16B 0.500 0.24240 0.16680 0.14330 Biso 1.000 O
O17B 0.500 0.13100 -0.54700 0.88600 Biso 1.000 O
O18W 1.0 0.00910 0.36200 0.39500 Biso 1.000 O
O19W 1.0 0 0.56900 0.70200 Biso 1.000 O
O20W 1.0 0.06270 0.64800 0.91100 Biso 1.000 O
