
###############################################################################
#
# This file contains modified crystal structure data generated from the
# MOF subset of the Cambridge Structural Database (CSD) v543 
# hosted by the Cambridge Crystallographic Data Centre (CCDC).
#
# This work is licensed under the Creative Commons
# Attribution-NonCommercial-ShareAlike 4.0 International License.
# To view a copy of this license, visit
# http://creativecommons.org/licenses/by-nc-sa/4.0/
# or send a letter to
# Creative Commons, PO Box 1866, Mountain View, CA 94042, USA.
#
# CIF created using the CSD Python API on 29 September 2022
# The structure has been converted into the P1 space group
# The structure has a 3D framework
# The original CSD entry NUTQEZ is in the rhombohedral crystal system
# The framework has been calculated to contain at least 10.0% void space
# The void calculation uses a probe of radius 1.32A, grid spacing 0.4
# H atom positions have been added when not included in the experimental data
# Generated hydrogen atom positions removed from atoms on special positions
#
###############################################################################

data_NUTQEZ
_chemical_formula_moiety         '(C204 H140 Cu18 O82)n'
_symmetry_cell_setting           triclinic
_symmetry_space_group_name_H-M   'P 1'
_symmetry_Int_Tables_number      1
_space_group_name_Hall           'P 1'
loop_
_symmetry_equiv_pos_site_id
_symmetry_equiv_pos_as_xyz
1 x,y,z
_cell_length_a                   23.773(3)
_cell_length_b                   23.773(3)
_cell_length_c                   19.072(4)
_cell_angle_alpha                90
_cell_angle_beta                 90
_cell_angle_gamma                120
_cell_volume                     9334.58
loop_
_atom_site_label
_atom_site_type_symbol
_atom_site_fract_x
_atom_site_fract_y
_atom_site_fract_z
Cu1 Cu 0.26999(4) 0.13499(2) 0.15502(5)
O1 O 0.27067(19) 0.1941(2) 0.2268(2)
C1 C 0.3215(3) 0.2380(3) 0.2535(3)
O2 O 0.37750(19) 0.2468(2) 0.2467(2)
C2 C 0.3145(3) 0.2859(3) 0.2966(4)
O3 O 0.1678(3) 0.08390(14) 0.1439(4)
C3 C 0.3669(3) 0.3333 0.3333
H1 H 0.4069 0.3333 0.3333
C4 C 0.2566(3) 0.2858(3) 0.2966(4)
H2 H 0.2204 0.2532 0.2715
C5 C 0.2510(4) 0.3333 0.3333
C6 C 0.1914(4) 0.3333 0.3333
Cu2 Cu 0.46833(4) 0.53168(2) 0.51165(5)
Cu3 Cu 0.39668(4) 0.19833(4) 0.17831(5)
Cu4 Cu 0.53168(2) 0.46833(4) 0.48835(5)
Cu7 Cu 0.06334(4) 0.53168(2) 0.51165(5)
O4 O 0.40990(28) 0.4726(2) 0.4399(2)
O6 O 0.06266(19) 0.4726(2) 0.4399(2)
O7 O 0.27067(19) 0.07657(28) 0.2268(2)
O8 O 0.5274(2) 0.59010(28) 0.4399(2)
C7 C 0.4168(4) 0.4287(3) 0.4132(3)
C9 C 0.0118(3) 0.4287(3) 0.4132(3)
O9 O 0.46403(28) 0.4199(2) 0.4200(2)
O12 O 0.28917(19) 0.20263(28) 0.0866(2)
O13 O 0.28917(19) 0.0865(2) 0.0866(2)
O14 O 0.4199(2) 0.46403(28) 0.5800(2)
O15 O 0.53597(28) 0.5801(2) 0.5800(2)
C10 C 0.3619(4) 0.3808(3) 0.3701(4)
C12 C 0.0188(3) 0.3808(3) 0.3701(4)
O16 O 0.41723(33) 0.58277(14) 0.5228(4)
C14 C 0.3041(4) 0.3809(3) 0.3701(4)
C15 C 0.0292(4) 0.2858(3) 0.2966(4)
C16 C 0.0767(3) 0.3809(3) 0.3701(4)
H4 H 0.3005 0.4135 0.3952
H5 H 0.1129 0.4135 0.3952
H6 H 0.0328 0.2532 0.2715
C17 C 0.0823(4) 0.3333 0.3333
C18 C 0.1419(4) 0.3333 0.3333
Cu5 Cu 0.86500(4) 0.13499(2) 0.15502(5)
Cu6 Cu 0.80166(2) 0.19833(4) 0.17831(5)
Cu8 Cu 0.93666(4) 0.46833(4) 0.48835(5)
O5 O 0.92343(28) 0.1941(2) 0.2268(2)
C8 C 0.9165(4) 0.2380(3) 0.2535(3)
O10 O 0.86930(28) 0.2468(2) 0.2467(2)
O11 O 0.95583(19) 0.4199(2) 0.4200(2)
C11 C 0.9714(4) 0.2859(3) 0.2966(4)
C13 C 0.9664(3) 0.3333 0.3333
H3 H 0.9264 0.3333 0.3333
O1_2 O 0.8059(2) 0.07657(28) 0.2268(2)
C1_2 C 0.7620(3) 0.0835(4) 0.2535(3)
O2_2 O 0.7532(2) 0.13070(28) 0.2467(2)
C2_2 C 0.7141(3) 0.0286(4) 0.2966(4)
O3_2 O 0.91610(14) 0.08390(33) 0.1439(4)
C3_2 C 0.6667 0.0336(3) 0.3333
H1_2 H 0.6667 0.0736 0.3333
Cu4_2 Cu 0.53167(4) 0.06334(4) 0.48835(5)
O9_2 O 0.5801(2) 0.04417(34) 0.4200(2)
O12_2 O 0.79737(28) 0.08653(34) 0.0866(2)
O13_2 O 0.9135(2) 0.20263(28) 0.0866(2)
C4_2 C 0.7142(3) 0.9708(4) 0.2966(4)
H2_2 H 0.7468 0.9672 0.2715
C5_2 C 0.6667 0.9177(4) 0.3333
C6_2 C 0.6667 0.8581(4) 0.3333
Cu2_2 Cu 0.46832(2) 0.93666(4) 0.51165(5)
Cu5_2 Cu 0.86501(2) 0.73001(4) 0.15502(5)
Cu6_2 Cu 0.80167(4) 0.60332(4) 0.17831(5)
O4_2 O 0.5274(2) 0.93734(34) 0.4399(2)
O5_2 O 0.8059(2) 0.72933(34) 0.2268(2)
O8_2 O 0.40990(28) 0.93734(34) 0.4399(2)
C7_2 C 0.5713(3) 0.9882(5) 0.4132(3)
C8_2 C 0.7620(3) 0.6785(5) 0.2535(3)
C9_2 C 0.5713(3) 0.5832(4) 0.4132(3)
O10_2 O 0.7532(2) 0.62250(34) 0.2467(2)
O11_2 O 0.5801(2) 0.53597(28) 0.4200(2)
O14_2 O 0.53597(28) 0.95583(34) 0.5800(2)
O15_2 O 0.4199(2) 0.95583(34) 0.5800(2)
C10_2 C 0.6192(3) 0.9812(5) 0.3701(4)
C11_2 C 0.7141(3) 0.6855(5) 0.2966(4)
C12_2 C 0.6192(3) 0.6381(4) 0.3701(4)
O16_2 O 0.41723(14) 0.83447(36) 0.5228(4)
C13_2 C 0.6667 0.6331(3) 0.3333
H3_2 H 0.6667 0.5931 0.3333
C14_2 C 0.6191(3) 0.9233(5) 0.3701(4)
C15_2 C 0.7142(3) 0.7434(5) 0.2966(4)
C16_2 C 0.6191(3) 0.6959(4) 0.3701(4)
H4_2 H 0.5865 0.8871 0.3952
H5_2 H 0.5865 0.6995 0.3952
H6_2 H 0.7468 0.7796 0.2715
C17_2 C 0.6667 0.7490(4) 0.3333
C18_2 C 0.6667 0.8086(4) 0.3333
C8_3 C 0.3215(5) 0.0835(4) 0.2535(3)
O10_3 O 0.37750(34) 0.13070(28) 0.2467(2)
O11_3 O 0.46403(28) 0.04417(19) 0.4200(2)
C11_3 C 0.3145(5) 0.0286(4) 0.2966(4)
C13_3 C 0.3669(3) 0.0336(3) 0.3333
H3_3 H 0.4069 0.0736 0.3333
C4_3 C 0.0292(4) 0.7434(3) 0.2966(4)
H2_3 H 0.0328 0.7796 0.2715
C5_3 C 0.0823(4) 0.7490(4) 0.3333
C6_3 C 0.1419(4) 0.8086(4) 0.3333
O4_3 O 0.06266(34) 0.59010(28) 0.4399(2)
C7_3 C 0.0118(5) 0.5832(4) 0.4132(3)
C9_3 C 0.4168(4) 0.9882(3) 0.4132(3)
O14_3 O 0.04417(34) 0.5801(2) 0.5800(2)
O15_3 O 0.04417(34) 0.46403(28) 0.5800(2)
C10_3 C 0.0188(5) 0.6381(4) 0.3701(4)
C12_3 C 0.3619(4) 0.9812(3) 0.3701(4)
O16_3 O 0.16553(36) 0.58277(33) 0.5228(4)
C14_3 C 0.0767(5) 0.6959(4) 0.3701(4)
C15_3 C 0.2566(5) 0.9708(4) 0.2966(4)
C16_3 C 0.3041(4) 0.9233(3) 0.3701(4)
H4_3 H 0.1129 0.6995 0.3952
H5_3 H 0.3005 0.8871 0.3952
H6_3 H 0.2204 0.9672 0.2715
C17_3 C 0.2510(4) 0.9177(4) 0.3333
C18_3 C 0.1914(4) 0.8581(4) 0.3333
O1_3 O 0.92343(28) 0.72933(19) 0.2268(2)
C1_3 C 0.9165(4) 0.6785(3) 0.2535(3)
O2_3 O 0.86930(28) 0.62250(19) 0.2467(2)
C2_3 C 0.9714(4) 0.6855(3) 0.2966(4)
O3_3 O 0.91610(33) 0.8322(3) 0.1439(4)
C3_3 C 0.9664(3) 0.6331(3) 0.3333
H1_3 H 0.9264 0.5931 0.3333
O9_3 O 0.95583(34) 0.53597(28) 0.4200(2)
O12_3 O 0.91347(34) 0.71083(19) 0.0866(2)
O13_3 O 0.79737(28) 0.71083(19) 0.0866(2)
Cu1_2 Cu 0.13500(4) 0.86501(2) 0.84498(5)
O1_4 O 0.07657(28) 0.8059(2) 0.7732(2)
C1_4 C 0.0835(4) 0.7620(3) 0.7465(3)
O2_4 O 0.13070(28) 0.7532(2) 0.7533(2)
C2_4 C 0.0286(4) 0.7141(3) 0.7034(4)
O3_4 O 0.08390(33) 0.91610(14) 0.8561(4)
C3_4 C 0.0336(3) 0.6667 0.6667
H1_4 H 0.0736 0.6667 0.6667
Cu3_2 Cu 0.19834(6) 0.80167(4) 0.82169(5)
O7_2 O 0.19410(34) 0.92343(28) 0.7732(2)
O12_4 O 0.08653(34) 0.79737(28) 0.9134(2)
O13_4 O 0.20263(28) 0.9135(2) 0.9134(2)
C4_4 C 0.9708(4) 0.7142(3) 0.7034(4)
H2_4 H 0.9672 0.7468 0.7285
C5_4 C 0.9177(4) 0.6667 0.6667
C6_4 C 0.8581(4) 0.6667 0.6667
Cu5_3 Cu 0.73001(4) 0.86501(2) 0.84498(5)
Cu6_3 Cu 0.60332(4) 0.80167(4) 0.82169(5)
O4_4 O 0.93734(34) 0.5274(2) 0.5601(2)
O5_3 O 0.72933(34) 0.8059(2) 0.7732(2)
O6_2 O 0.59010(28) 0.5274(2) 0.5601(2)
O8_3 O 0.93734(34) 0.40990(28) 0.5601(2)
C7_4 C 0.9882(5) 0.5713(3) 0.5868(3)
C8_4 C 0.6785(5) 0.7620(3) 0.7465(3)
C9_4 C 0.5832(4) 0.5713(3) 0.5868(3)
O10_4 O 0.62250(34) 0.7532(2) 0.7533(2)
C10_4 C 0.9812(5) 0.6192(3) 0.6299(4)
C11_4 C 0.6855(5) 0.7141(3) 0.7034(4)
C12_4 C 0.6381(4) 0.6192(3) 0.6299(4)
O16_4 O 0.83447(36) 0.41723(14) 0.4772(4)
C13_4 C 0.6331(3) 0.6667 0.6667
H3_4 H 0.5931 0.6667 0.6667
C14_4 C 0.9233(5) 0.6191(3) 0.6299(4)
C15_4 C 0.7434(5) 0.7142(3) 0.7034(4)
C16_4 C 0.6959(4) 0.6191(3) 0.6299(4)
H4_4 H 0.8871 0.5865 0.6048
H5_4 H 0.6995 0.5865 0.6048
H6_4 H 0.7796 0.7468 0.7285
C17_4 C 0.7490(4) 0.6667 0.6667
C18_4 C 0.8086(4) 0.6667 0.6667
Cu5_4 Cu 0.13500(4) 0.26999(4) 0.84498(5)
Cu6_4 Cu 0.19834(2) 0.39668(4) 0.82169(5)
O5_4 O 0.07657(28) 0.27067(34) 0.7732(2)
C8_5 C 0.0835(4) 0.3215(5) 0.7465(3)
O10_5 O 0.13070(28) 0.37750(34) 0.7533(2)
C11_5 C 0.0286(4) 0.3145(5) 0.7034(4)
C13_5 C 0.0336(3) 0.3669(3) 0.6667
H3_5 H 0.0736 0.4069 0.6667
C4_5 C 0.7434(3) 0.0292(4) 0.7034(4)
H2_5 H 0.7796 0.0328 0.7285
C5_5 C 0.7490(4) 0.0823(4) 0.6667
C6_5 C 0.8086(4) 0.1419(4) 0.6667
O4_5 O 0.59010(28) 0.06266(34) 0.5601(2)
O8_4 O 0.4726(2) 0.06266(34) 0.5601(2)
C7_5 C 0.5832(4) 0.0118(5) 0.5868(3)
C9_5 C 0.9882(3) 0.4168(4) 0.5868(3)
C10_5 C 0.6381(4) 0.0188(5) 0.6299(4)
C12_5 C 0.9812(3) 0.3619(4) 0.6299(4)
O16_5 O 0.58277(33) 0.16553(36) 0.4772(4)
C14_5 C 0.6959(4) 0.0767(5) 0.6299(4)
C15_5 C 0.9708(4) 0.2566(5) 0.7034(4)
C16_5 C 0.9233(3) 0.3041(4) 0.6299(4)
H4_5 H 0.6995 0.1129 0.6048
H5_5 H 0.8871 0.3005 0.6048
H6_5 H 0.9672 0.2204 0.7285
C17_5 C 0.9177(4) 0.2510(4) 0.6667
C18_5 C 0.8581(4) 0.1914(4) 0.6667
O1_5 O 0.72933(19) 0.92343(28) 0.7732(2)
C1_5 C 0.6785(3) 0.9165(4) 0.7465(3)
O2_5 O 0.62250(19) 0.86930(28) 0.7533(2)
C2_5 C 0.6855(3) 0.9714(4) 0.7034(4)
O3_5 O 0.8322(3) 0.91610(33) 0.8561(4)
C3_5 C 0.6331(3) 0.9664(3) 0.6667
H1_5 H 0.5931 0.9264 0.6667
O12_5 O 0.71083(19) 0.91347(34) 0.9134(2)
O13_5 O 0.71083(19) 0.79737(28) 0.9134(2)
O1_6 O 0.1941(2) 0.27067(19) 0.7732(2)
C1_6 C 0.2380(3) 0.3215(3) 0.7465(3)
O2_6 O 0.2468(2) 0.37750(19) 0.7533(2)
C2_6 C 0.2859(3) 0.3145(3) 0.7034(4)
O3_6 O 0.08390(14) 0.1678(3) 0.8561(4)
C3_6 C 0.3333 0.3669(3) 0.6667
H1_6 H 0.3333 0.4069 0.6667
C4_6 C 0.2858(3) 0.2566(3) 0.7034(4)
H2_6 H 0.2532 0.2204 0.7285
C5_6 C 0.3333 0.2510(4) 0.6667
C6_6 C 0.3333 0.1914(4) 0.6667
O4_6 O 0.4726(2) 0.40990(28) 0.5601(2)
C7_6 C 0.4287(3) 0.4168(4) 0.5868(3)
C9_6 C 0.4287(3) 0.0118(3) 0.5868(3)
O12_6 O 0.20263(28) 0.28917(19) 0.9134(2)
O13_6 O 0.0865(2) 0.28917(19) 0.9134(2)
C10_6 C 0.3808(3) 0.3619(4) 0.6299(4)
C12_6 C 0.3808(3) 0.0188(3) 0.6299(4)
O16_6 O 0.58277(14) 0.41723(33) 0.4772(4)
C14_6 C 0.3809(3) 0.3041(4) 0.6299(4)
C15_6 C 0.2858(3) 0.0292(4) 0.7034(4)
C16_6 C 0.3809(3) 0.0767(3) 0.6299(4)
H4_6 H 0.4135 0.3005 0.6048
H5_6 H 0.4135 0.1129 0.6048
H6_6 H 0.2532 0.0328 0.7285
C17_6 C 0.3333 0.0823(4) 0.6667
C18_6 C 0.3333 0.1419(4) 0.6667
C8_6 C 0.2380(3) 0.9165(4) 0.7465(3)
O10_6 O 0.2468(2) 0.86930(28) 0.7533(2)
C11_6 C 0.2859(3) 0.9714(4) 0.7034(4)
C13_6 C 0.3333 0.9664(3) 0.6667
H3_6 H 0.3333 0.9264 0.6667
O1_7 O 0.74324(28) 0.1392(2) 0.1065(2)
C1_7 C 0.7502(4) 0.0953(3) 0.0798(3)
C2_7 C 0.6953(4) 0.0474(3) 0.0367(4)
O3_7 O 0.75057(33) 0.24943(14) 0.1894(4)
C3_7 C 0.7003(3) 0.0000 0.0000
H1_7 H 0.7403 0.0000 0.0000
C4_7 C 0.6375(4) 0.0475(3) 0.0367(4)
H2_7 H 0.6339 0.0801 0.0618
C5_7 C 0.5844(4) 0.0000 0.0000
C6_7 C 0.5248(4) 0.0000 0.0000
O5_5 O 0.39600(34) 0.1392(2) 0.1065(2)
O7_3 O 0.86077(34) 0.25676(28) 0.1065(2)
C8_7 C 0.3452(5) 0.0953(3) 0.0798(3)
C11_7 C 0.3522(5) 0.0474(3) 0.0367(4)
C13_7 C 0.2998(3) 0.0000 0.0000
H3_7 H 0.2598 0.0000 0.0000
C15_7 C 0.4101(5) 0.0475(3) 0.0367(4)
H6_7 H 0.4463 0.0801 0.0618
C17_7 C 0.4157(4) 0.0000 0.0000
C18_7 C 0.4753(4) 0.0000 0.0000
C3_8 C 0.7003(3) 1.0000 1.0000
H1_8 H 0.7403 1.0000 1.0000
C5_8 C 0.5844(4) 1.0000 1.0000
C6_8 C 0.5248(4) 1.0000 1.0000
O4_7 O 0.60400(34) 0.8608(2) 0.8935(2)
O6_3 O 0.25676(28) 0.8608(2) 0.8935(2)
O8_5 O 0.60400(34) 0.74324(28) 0.8935(2)
C7_7 C 0.6548(5) 0.9047(3) 0.9202(3)
C9_7 C 0.2498(4) 0.9047(3) 0.9202(3)
C10_7 C 0.6478(5) 0.9526(3) 0.9633(4)
C12_7 C 0.3047(4) 0.9526(3) 0.9633(4)
O16_7 O 0.50113(36) 0.75057(14) 0.8106(4)
C13_8 C 0.2998(3) 1.0000 1.0000
H3_8 H 0.2598 1.0000 1.0000
C14_7 C 0.5899(5) 0.9525(3) 0.9633(4)
C16_7 C 0.3625(4) 0.9525(3) 0.9633(4)
H4_7 H 0.5537 0.9199 0.9382
H5_7 H 0.3661 0.9199 0.9382
C17_8 C 0.4157(4) 1.0000 1.0000
C18_8 C 0.4753(4) 1.0000 1.0000
O1_8 O 0.39600(19) 0.25676(28) 0.1065(2)
C1_8 C 0.3452(3) 0.2498(4) 0.0798(3)
C2_8 C 0.3522(3) 0.3047(4) 0.0367(4)
O3_8 O 0.4989(3) 0.24943(33) 0.1894(4)
C3_9 C 0.2998(3) 0.2997(3) 0.0000
H1_9 H 0.2598 0.2597 0.0000
C4_8 C 0.4101(3) 0.3625(4) 0.0367(4)
H2_8 H 0.4463 0.3661 0.0618
C5_9 C 0.4157(4) 0.4156(4) 0.0000
C6_9 C 0.4753(4) 0.4752(4) 0.0000
O5_6 O 0.74324(28) 0.60400(34) 0.1065(2)
C8_8 C 0.7502(4) 0.6548(5) 0.0798(3)
C11_8 C 0.6953(4) 0.6478(5) 0.0367(4)
C13_9 C 0.7003(3) 0.7002(3) 0.0000
H3_9 H 0.7403 0.7402 0.0000
C15_8 C 0.6375(4) 0.5899(5) 0.0367(4)
H6_8 H 0.6339 0.5537 0.0618
C17_9 C 0.5844(4) 0.5843(4) 0.0000
C18_9 C 0.5248(4) 0.5247(4) 0.0000
C3_10 C 0.2998(3) 0.2997(3) 1.0000
H1_10 H 0.2598 0.2597 1.0000
C5_10 C 0.4157(4) 0.4156(4) 1.0000
C6_10 C 0.4753(4) 0.4752(4) 1.0000
O4_8 O 0.25676(28) 0.39600(34) 0.8935(2)
O8_6 O 0.1392(2) 0.39600(34) 0.8935(2)
C7_8 C 0.2498(4) 0.3452(5) 0.9202(3)
C9_8 C 0.6548(3) 0.7502(4) 0.9202(3)
C10_8 C 0.3047(4) 0.3522(5) 0.9633(4)
C12_8 C 0.6478(3) 0.6953(4) 0.9633(4)
O16_8 O 0.24943(33) 0.49887(36) 0.8106(4)
C13_10 C 0.7003(3) 0.7002(3) 1.0000
H3_10 H 0.7403 0.7402 1.0000
C14_8 C 0.3625(4) 0.4101(5) 0.9633(4)
C16_8 C 0.5899(3) 0.6375(4) 0.9633(4)
H4_8 H 0.3661 0.4463 0.9382
H5_8 H 0.5537 0.6339 0.9382
C17_10 C 0.5844(4) 0.5843(4) 1.0000
C18_10 C 0.5248(4) 0.5247(4) 1.0000
C3_11 C -0.0000 0.7002(3) 1.0000
H1_11 H -0.0000 0.7402 1.0000
C5_11 C -0.0000 0.5843(4) 1.0000
C6_11 C -0.0000 0.5247(4) 1.0000
O4_9 O 0.1392(2) 0.74324(28) 0.8935(2)
C7_9 C 0.0953(3) 0.7502(4) 0.9202(3)
C9_9 C 0.0953(3) 0.3452(3) 0.9202(3)
C10_9 C 0.0474(3) 0.6953(4) 0.9633(4)
C12_9 C 0.0474(3) 0.3522(3) 0.9633(4)
O16_9 O 0.24943(14) 0.75057(33) 0.8106(4)
C13_11 C -0.0000 0.2997(3) 1.0000
H3_11 H -0.0000 0.2597 1.0000
C14_9 C 0.0475(3) 0.6375(4) 0.9633(4)
C16_9 C 0.0475(3) 0.4101(3) 0.9633(4)
H4_9 H 0.0801 0.6339 0.9382
H5_9 H 0.0801 0.4463 0.9382
C17_11 C -0.0000 0.4156(4) 1.0000
C18_11 C -0.0000 0.4752(4) 1.0000
O1_9 O 0.8608(2) 0.60400(19) 0.1065(2)
C1_9 C 0.9047(3) 0.6548(3) 0.0798(3)
C2_9 C 0.9526(3) 0.6478(3) 0.0367(4)
O3_9 O 0.75057(14) 0.5011(3) 0.1894(4)
C3_12 C 1.0000 0.7002(3) 0.0000
H1_12 H 1.0000 0.7402 0.0000
C4_9 C 0.9525(3) 0.5899(3) 0.0367(4)
H2_9 H 0.9199 0.5537 0.0618
C5_12 C 1.0000 0.5843(4) 0.0000
C6_12 C 1.0000 0.5247(4) 0.0000
C8_9 C 0.9047(3) 0.2498(4) 0.0798(3)
C11_9 C 0.9526(3) 0.3047(4) 0.0367(4)
C13_12 C 1.0000 0.2997(3) 0.0000
H3_12 H 1.0000 0.2597 0.0000
C15_9 C 0.9525(3) 0.3625(4) 0.0367(4)
H6_9 H 0.9199 0.3661 0.0618
C17_12 C 1.0000 0.4156(4) 0.0000
C18_12 C 1.0000 0.4752(4) 0.0000
C3_13 C 0.7003(3) 0.0000 1.0000
H1_13 H 0.7403 0.0000 1.0000
C5_13 C 0.5844(4) 0.0000 1.0000
C6_13 C 0.5248(4) 0.0000 1.0000
C13_13 C 0.2998(3) 0.0000 1.0000
H3_13 H 0.2598 0.0000 1.0000
C17_13 C 0.4157(4) 0.0000 1.0000
C18_13 C 0.4753(4) 0.0000 1.0000
C3_14 C 0.7003(3) 1.0000 0.0000
H1_14 H 0.7403 1.0000 0.0000
C5_14 C 0.5844(4) 1.0000 0.0000
C6_14 C 0.5248(4) 1.0000 0.0000
C13_14 C 0.2998(3) 1.0000 0.0000
H3_14 H 0.2598 1.0000 0.0000
C17_14 C 0.4157(4) 1.0000 0.0000
C18_14 C 0.4753(4) 1.0000 0.0000
C3_15 C -0.0000 0.7002(3) 0.0000
H1_15 H -0.0000 0.7402 0.0000
C5_15 C -0.0000 0.5843(4) 0.0000
C6_15 C -0.0000 0.5247(4) 0.0000
C13_15 C -0.0000 0.2997(3) 0.0000
H3_15 H -0.0000 0.2597 0.0000
C17_15 C -0.0000 0.4156(4) 0.0000
C18_15 C -0.0000 0.4752(4) 0.0000
C3_16 C 1.0000 0.7002(3) 1.0000
H1_16 H 1.0000 0.7402 1.0000
C5_16 C 1.0000 0.5843(4) 1.0000
C6_16 C 1.0000 0.5247(4) 1.0000
C13_16 C 1.0000 0.2997(3) 1.0000
H3_16 H 1.0000 0.2597 1.0000
C17_16 C 1.0000 0.4156(4) 1.0000
C18_16 C 1.0000 0.4752(4) 1.0000
loop_
_geom_bond_atom_site_label_1
_geom_bond_atom_site_label_2
_geom_bond_site_symmetry_1
_geom_bond_site_symmetry_2
Cu1 O1 1_555 1_555
O1 C1 1_555 1_555
C1 O2 1_555 1_555
O2 Cu3 1_555 1_555
C2 C1 1_555 1_555
O3 Cu1 1_555 1_555
C3 C2 1_555 1_555
H1 C3 1_555 1_555
C4 C2 1_555 1_555
H2 C4 1_555 1_555
C5 C4 1_555 1_555
C6 C5 1_555 1_555
Cu2 O4 1_555 1_555
Cu4 O9 1_555 1_555
Cu7 O6 1_555 1_555
O4 C7 1_555 1_555
O6 C9 1_555 1_555
O7 Cu1 1_555 1_555
O8 Cu2 1_555 1_555
C7 O9 1_555 1_555
O12 Cu1 1_555 1_555
O13 Cu1 1_555 1_555
O14 Cu2 1_555 1_555
O15 Cu2 1_555 1_555
C10 C3 1_555 1_555
C12 C9 1_555 1_555
O16 Cu2 1_555 1_555
C14 C5 1_555 1_555
C16 C12 1_555 1_555
H4 C14 1_555 1_555
H5 C16 1_555 1_555
H6 C15 1_555 1_555
C17 C15 1_555 1_555
C18 C6 1_555 1_555
C7 C10 1_555 1_555
C10 C14 1_555 1_555
C16 C17 1_555 1_555
C17 C18 1_555 1_555
Cu5 O5 1_555 1_555
Cu6 O10 1_555 1_555
Cu8 O11 1_555 1_555
O5 C8 1_555 1_555
C8 O10 1_555 1_555
C11 C8 1_555 1_555
C13 C11 1_555 1_555
H3 C13 1_555 1_555
Cu5 O1_2 1_555 1_555
O1_2 C1_2 1_555 1_555
C1_2 O2_2 1_555 1_555
O2_2 Cu6 1_555 1_555
C2_2 C1_2 1_555 1_555
O3_2 Cu5 1_555 1_555
C3_2 C2_2 1_555 1_555
H1_2 C3_2 1_555 1_555
Cu4_2 O9_2 1_555 1_555
O12_2 Cu5 1_555 1_555
O13_2 Cu5 1_555 1_555
H2_2 C4_2 1_555 1_555
C5_2 C4_2 1_555 1_555
C6_2 C5_2 1_555 1_555
Cu2_2 O4_2 1_555 1_555
Cu5_2 O5_2 1_555 1_555
Cu6_2 O10_2 1_555 1_555
Cu4 O11_2 1_555 1_555
O4_2 C7_2 1_555 1_555
O5_2 C8_2 1_555 1_555
O8 C9_2 1_555 1_555
O8_2 Cu2_2 1_555 1_555
C8_2 O10_2 1_555 1_555
C9_2 O11_2 1_555 1_555
O14_2 Cu2_2 1_555 1_555
O15_2 Cu2_2 1_555 1_555
C11_2 C8_2 1_555 1_555
C12_2 C9_2 1_555 1_555
O16_2 Cu2_2 1_555 1_555
C13_2 C11_2 1_555 1_555
H3_2 C13_2 1_555 1_555
C14_2 C5_2 1_555 1_555
C15_2 C11_2 1_555 1_555
C16_2 C12_2 1_555 1_555
H4_2 C14_2 1_555 1_555
H5_2 C16_2 1_555 1_555
H6_2 C15_2 1_555 1_555
C17_2 C15_2 1_555 1_555
C18_2 C6_2 1_555 1_555
C7_2 C10_2 1_555 1_555
C10_2 C14_2 1_555 1_555
C12_2 C13_2 1_555 1_555
C16_2 C17_2 1_555 1_555
C17_2 C18_2 1_555 1_555
Cu3 O10_3 1_555 1_555
Cu4_2 O11_3 1_555 1_555
O7 C8_3 1_555 1_555
C8_3 O10_3 1_555 1_555
C11_3 C8_3 1_555 1_555
C13_3 C11_3 1_555 1_555
H3_3 C13_3 1_555 1_555
H2_3 C4_3 1_555 1_555
C5_3 C4_3 1_555 1_555
C6_3 C5_3 1_555 1_555
Cu7 O4_3 1_555 1_555
O4_3 C7_3 1_555 1_555
O8_2 C9_3 1_555 1_555
O14_3 Cu7 1_555 1_555
O15_3 Cu7 1_555 1_555
C12_3 C9_3 1_555 1_555
O16_3 Cu7 1_555 1_555
C14_3 C5_3 1_555 1_555
C16_3 C12_3 1_555 1_555
H4_3 C14_3 1_555 1_555
H5_3 C16_3 1_555 1_555
H6_3 C15_3 1_555 1_555
C17_3 C15_3 1_555 1_555
C18_3 C6_3 1_555 1_555
C7_3 C10_3 1_555 1_555
C10_3 C14_3 1_555 1_555
C16_3 C17_3 1_555 1_555
C17_3 C18_3 1_555 1_555
Cu5_2 O1_3 1_555 1_555
O1_3 C1_3 1_555 1_555
C1_3 O2_3 1_555 1_555
O2_3 Cu6_2 1_555 1_555
C2_3 C1_3 1_555 1_555
O3_3 Cu5_2 1_555 1_555
C3_3 C2_3 1_555 1_555
H1_3 C3_3 1_555 1_555
Cu8 O9_3 1_555 1_555
O12_3 Cu5_2 1_555 1_555
O13_3 Cu5_2 1_555 1_555
Cu1_2 O1_4 1_555 1_555
O1_4 C1_4 1_555 1_555
C1_4 O2_4 1_555 1_555
O2_4 Cu3_2 1_555 1_555
C2_4 C1_4 1_555 1_555
O3_4 Cu1_2 1_555 1_555
C3_4 C2_4 1_555 1_555
H1_4 C3_4 1_555 1_555
O7_2 Cu1_2 1_555 1_555
O12_4 Cu1_2 1_555 1_555
O13_4 Cu1_2 1_555 1_555
H2_4 C4_4 1_555 1_555
C5_4 C4_4 1_555 1_555
C6_4 C5_4 1_555 1_555
Cu8 O4_4 1_555 1_555
Cu5_3 O5_3 1_555 1_555
Cu6_3 O10_4 1_555 1_555
Cu4 O6_2 1_555 1_555
O4_4 C7_4 1_555 1_555
O5_3 C8_4 1_555 1_555
O6_2 C9_4 1_555 1_555
O8_3 Cu8 1_555 1_555
C8_4 O10_4 1_555 1_555
C9_4 O15 1_555 1_555
C11_4 C8_4 1_555 1_555
C12_4 C9_4 1_555 1_555
O16_4 Cu8 1_555 1_555
C13_4 C11_4 1_555 1_555
H3_4 C13_4 1_555 1_555
C14_4 C5_4 1_555 1_555
C15_4 C11_4 1_555 1_555
C16_4 C12_4 1_555 1_555
H4_4 C14_4 1_555 1_555
H5_4 C16_4 1_555 1_555
H6_4 C15_4 1_555 1_555
C17_4 C15_4 1_555 1_555
C18_4 C6_4 1_555 1_555
C7_4 C10_4 1_555 1_555
C10_4 C14_4 1_555 1_555
C12_4 C13_4 1_555 1_555
C16_4 C17_4 1_555 1_555
C17_4 C18_4 1_555 1_555
Cu5_4 O5_4 1_555 1_555
Cu6_4 O10_5 1_555 1_555
O5_4 C8_5 1_555 1_555
C8_5 O10_5 1_555 1_555
C11_5 C8_5 1_555 1_555
C13_5 C11_5 1_555 1_555
H3_5 C13_5 1_555 1_555
H2_5 C4_5 1_555 1_555
C5_5 C4_5 1_555 1_555
C6_5 C5_5 1_555 1_555
Cu4_2 O4_5 1_555 1_555
O4_5 C7_5 1_555 1_555
O8_3 C9_5 1_555 1_555
O8_4 Cu4_2 1_555 1_555
C12_5 C9_5 1_555 1_555
O16_5 Cu4_2 1_555 1_555
C14_5 C5_5 1_555 1_555
C16_5 C12_5 1_555 1_555
H4_5 C14_5 1_555 1_555
H5_5 C16_5 1_555 1_555
H6_5 C15_5 1_555 1_555
C17_5 C15_5 1_555 1_555
C18_5 C6_5 1_555 1_555
C7_5 C10_5 1_555 1_555
C10_5 C14_5 1_555 1_555
C16_5 C17_5 1_555 1_555
C17_5 C18_5 1_555 1_555
Cu5_3 O1_5 1_555 1_555
O1_5 C1_5 1_555 1_555
C1_5 O2_5 1_555 1_555
O2_5 Cu6_3 1_555 1_555
C2_5 C1_5 1_555 1_555
O3_5 Cu5_3 1_555 1_555
C3_5 C2_5 1_555 1_555
H1_5 C3_5 1_555 1_555
O12_5 Cu5_3 1_555 1_555
O13_5 Cu5_3 1_555 1_555
Cu5_4 O1_6 1_555 1_555
O1_6 C1_6 1_555 1_555
C1_6 O2_6 1_555 1_555
O2_6 Cu6_4 1_555 1_555
C2_6 C1_6 1_555 1_555
O3_6 Cu5_4 1_555 1_555
C3_6 C2_6 1_555 1_555
H1_6 C3_6 1_555 1_555
C4_6 C2_6 1_555 1_555
H2_6 C4_6 1_555 1_555
C5_6 C4_6 1_555 1_555
C6_6 C5_6 1_555 1_555
Cu4 O4_6 1_555 1_555
O4_6 C7_6 1_555 1_555
O8_4 C9_6 1_555 1_555
C7_6 O14 1_555 1_555
O12_6 Cu5_4 1_555 1_555
O13_6 Cu5_4 1_555 1_555
C10_6 C3_6 1_555 1_555
C12_6 C9_6 1_555 1_555
O16_6 Cu4 1_555 1_555
C14_6 C5_6 1_555 1_555
C16_6 C12_6 1_555 1_555
H4_6 C14_6 1_555 1_555
H5_6 C16_6 1_555 1_555
H6_6 C15_6 1_555 1_555
C17_6 C15_6 1_555 1_555
C18_6 C6_6 1_555 1_555
C7_6 C10_6 1_555 1_555
C10_6 C14_6 1_555 1_555
C16_6 C17_6 1_555 1_555
C17_6 C18_6 1_555 1_555
Cu3_2 O10_6 1_555 1_555
O7_2 C8_6 1_555 1_555
C8_6 O10_6 1_555 1_555
C11_6 C8_6 1_555 1_555
C13_6 C11_6 1_555 1_555
H3_6 C13_6 1_555 1_555
Cu6 O1_7 1_555 1_555
O1_7 C1_7 1_555 1_555
C1_7 O12_2 1_555 1_555
C2_7 C1_7 1_555 1_555
O3_7 Cu6 1_555 1_555
C3_7 C2_7 1_555 1_555
H1_7 C3_7 1_555 1_555
C4_7 C2_7 1_555 1_555
H2_7 C4_7 1_555 1_555
C5_7 C4_7 1_555 1_555
C6_7 C5_7 1_555 1_555
Cu3 O5_5 1_555 1_555
O5_5 C8_7 1_555 1_555
O7_3 Cu6 1_555 1_555
C8_7 O13 1_555 1_555
C11_7 C8_7 1_555 1_555
C13_7 C11_7 1_555 1_555
H3_7 C13_7 1_555 1_555
C15_7 C11_7 1_555 1_555
H6_7 C15_7 1_555 1_555
C17_7 C15_7 1_555 1_555
C18_7 C6_7 1_555 1_555
C17_7 C18_7 1_555 1_555
H1_8 C3_8 1_555 1_555
C6_8 C5_8 1_555 1_555
Cu6_3 O4_7 1_555 1_555
Cu3_2 O6_3 1_555 1_555
O4_7 C7_7 1_555 1_555
O6_3 C9_7 1_555 1_555
O8_5 Cu6_3 1_555 1_555
C7_7 O12_5 1_555 1_555
C9_7 O13_4 1_555 1_555
C10_7 C3_8 1_555 1_555
C12_7 C9_7 1_555 1_555
O16_7 Cu6_3 1_555 1_555
H3_8 C13_8 1_555 1_555
C14_7 C5_8 1_555 1_555
C16_7 C12_7 1_555 1_555
H4_7 C14_7 1_555 1_555
H5_7 C16_7 1_555 1_555
C18_8 C6_8 1_555 1_555
C7_7 C10_7 1_555 1_555
C10_7 C14_7 1_555 1_555
C12_7 C13_8 1_555 1_555
C16_7 C17_8 1_555 1_555
C17_8 C18_8 1_555 1_555
Cu3 O1_8 1_555 1_555
O1_8 C1_8 1_555 1_555
C1_8 O12 1_555 1_555
C2_8 C1_8 1_555 1_555
O3_8 Cu3 1_555 1_555
C3_9 C2_8 1_555 1_555
H1_9 C3_9 1_555 1_555
C4_8 C2_8 1_555 1_555
H2_8 C4_8 1_555 1_555
C5_9 C4_8 1_555 1_555
C6_9 C5_9 1_555 1_555
Cu6_2 O5_6 1_555 1_555
O5_6 C8_8 1_555 1_555
C8_8 O13_3 1_555 1_555
C11_8 C8_8 1_555 1_555
C13_9 C11_8 1_555 1_555
H3_9 C13_9 1_555 1_555
C15_8 C11_8 1_555 1_555
H6_8 C15_8 1_555 1_555
C17_9 C15_8 1_555 1_555
C18_9 C6_9 1_555 1_555
C17_9 C18_9 1_555 1_555
H1_10 C3_10 1_555 1_555
C6_10 C5_10 1_555 1_555
Cu6_4 O4_8 1_555 1_555
O4_8 C7_8 1_555 1_555
O8_5 C9_8 1_555 1_555
O8_6 Cu6_4 1_555 1_555
C7_8 O12_6 1_555 1_555
C9_8 O13_5 1_555 1_555
C10_8 C3_10 1_555 1_555
C12_8 C9_8 1_555 1_555
O16_8 Cu6_4 1_555 1_555
H3_10 C13_10 1_555 1_555
C14_8 C5_10 1_555 1_555
C16_8 C12_8 1_555 1_555
H4_8 C14_8 1_555 1_555
H5_8 C16_8 1_555 1_555
C18_10 C6_10 1_555 1_555
C7_8 C10_8 1_555 1_555
C10_8 C14_8 1_555 1_555
C12_8 C13_10 1_555 1_555
C16_8 C17_10 1_555 1_555
C17_10 C18_10 1_555 1_555
H1_11 C3_11 1_555 1_555
C6_11 C5_11 1_555 1_555
Cu3_2 O4_9 1_555 1_555
O4_9 C7_9 1_555 1_555
O8_6 C9_9 1_555 1_555
C7_9 O12_4 1_555 1_555
C9_9 O13_6 1_555 1_555
C10_9 C3_11 1_555 1_555
C12_9 C9_9 1_555 1_555
O16_9 Cu3_2 1_555 1_555
H3_11 C13_11 1_555 1_555
C14_9 C5_11 1_555 1_555
C16_9 C12_9 1_555 1_555
H4_9 C14_9 1_555 1_555
H5_9 C16_9 1_555 1_555
C18_11 C6_11 1_555 1_555
C7_9 C10_9 1_555 1_555
C10_9 C14_9 1_555 1_555
C12_9 C13_11 1_555 1_555
C16_9 C17_11 1_555 1_555
C17_11 C18_11 1_555 1_555
Cu6_2 O1_9 1_555 1_555
O1_9 C1_9 1_555 1_555
C1_9 O12_3 1_555 1_555
C2_9 C1_9 1_555 1_555
O3_9 Cu6_2 1_555 1_555
C3_12 C2_9 1_555 1_555
H1_12 C3_12 1_555 1_555
C4_9 C2_9 1_555 1_555
H2_9 C4_9 1_555 1_555
C5_12 C4_9 1_555 1_555
C6_12 C5_12 1_555 1_555
O7_3 C8_9 1_555 1_555
C8_9 O13_2 1_555 1_555
C11_9 C8_9 1_555 1_555
C13_12 C11_9 1_555 1_555
H3_12 C13_12 1_555 1_555
C15_9 C11_9 1_555 1_555
H6_9 C15_9 1_555 1_555
C17_12 C15_9 1_555 1_555
C18_12 C6_12 1_555 1_555
C17_12 C18_12 1_555 1_555
H1_13 C3_13 1_555 1_555
C6_13 C5_13 1_555 1_555
H3_13 C13_13 1_555 1_555
C18_13 C6_13 1_555 1_555
C17_13 C18_13 1_555 1_555
H1_14 C3_14 1_555 1_555
C6_14 C5_14 1_555 1_555
H3_14 C13_14 1_555 1_555
C18_14 C6_14 1_555 1_555
C17_14 C18_14 1_555 1_555
H1_15 C3_15 1_555 1_555
C6_15 C5_15 1_555 1_555
H3_15 C13_15 1_555 1_555
C18_15 C6_15 1_555 1_555
C17_15 C18_15 1_555 1_555
H1_16 C3_16 1_555 1_555
C6_16 C5_16 1_555 1_555
H3_16 C13_16 1_555 1_555
C18_16 C6_16 1_555 1_555
C17_16 C18_16 1_555 1_555

#END
