
###############################################################################
#
# This file contains modified crystal structure data generated from the
# MOF subset of the Cambridge Structural Database (CSD) v543 
# hosted by the Cambridge Crystallographic Data Centre (CCDC).
#
# This work is licensed under the Creative Commons
# Attribution-NonCommercial-ShareAlike 4.0 International License.
# To view a copy of this license, visit
# http://creativecommons.org/licenses/by-nc-sa/4.0/
# or send a letter to
# Creative Commons, PO Box 1866, Mountain View, CA 94042, USA.
#
# CIF created using the CSD Python API on 29 September 2022
# The structure has been converted into the P1 space group
# The structure has a 3D framework
# The original CSD entry NUTQAX is in the monoclinic crystal system
# The framework has been calculated to contain at least 10.0% void space
# The void calculation uses a probe of radius 1.32A, grid spacing 0.4
# H atom positions have been added when not included in the experimental data
#
###############################################################################

data_NUTQAX
_chemical_formula_moiety         '(C364 H268 Cd24 Cl72 Co44 N196 O20)n'
_symmetry_cell_setting           triclinic
_symmetry_space_group_name_H-M   'P 1'
_symmetry_Int_Tables_number      1
_space_group_name_Hall           'P 1'
loop_
_symmetry_equiv_pos_site_id
_symmetry_equiv_pos_as_xyz
1 x,y,z
_cell_length_a                   22.5985(6)
_cell_length_b                   19.7687(5)
_cell_length_c                   33.4937(10)
_cell_angle_alpha                90
_cell_angle_beta                 98.555(3)
_cell_angle_gamma                90
_cell_volume                     14796.6
loop_
_atom_site_label
_atom_site_type_symbol
_atom_site_fract_x
_atom_site_fract_y
_atom_site_fract_z
C41 C 0.0216(8) 0.7376(9) 0.0073(8)
H23 H 0.044110 0.765151 0.026272
Cd9 Cd 0.02759(16) 0.3845(2) 0.15851(12)
Cl4 Cl 0.03727(16) 0.1367(2) 0.92467(15)
C39 C 0.0105(7) 0.6813(9) 0.9453(7)
H21 H 0.025330 0.668964 0.921900
C40 C 0.0453(8) 0.7172(11) 0.9735(7)
H22 H 0.084414 0.728212 0.970498
C44 C 0.0288(7) 0.2800(10) 0.7520(6)
H26 H 0.055264 0.286129 0.733516
C45 C 0.0464(6) 0.2419(10) 0.7866(5)
H27 H 0.084068 0.221926 0.791382
C46 C 0.0060(5) 0.2344(8) 0.8137(4)
H28 H 0.015565 0.209338 0.837259
H61 H 0.002053 0.062090 0.827231
C90 C 0.015(4) 0.036(6) 0.747(3)
Cl21 Cl 0.07736(17) 0.6683(2) 0.85339(18)
Cl23 Cl 0.0450(5) 0.4979(6) 0.8773(4)
H67 H 0.0533712 0.069909 0.751925
Cd2 Cd 0.50112(4) 0.79139(5) 0.00892(3)
Cd5 Cd 0.85611(4) 0.43453(6) 0.12586(3)
Co8 Co 0.76622(6) 0.17940(8) 0.02061(5)
Co10 Co 0.8183(2) 0.5117(4) 0.23787(16)
Cl9 Cl 0.5406(5) 0.8610(6) 0.0642(4)
Cl10 Cl 0.92264(17) 0.3317(2) 0.14661(18)
Cl11 Cl 0.7813(2) 0.4692(3) 0.16742(14)
Cl12 Cl 0.8363(8) 0.6359(12) 0.2507(6)
Cl13 Cl 0.7158(3) 0.5208(4) 0.26860(18)
N32 N 0.8462(4) 0.1161(5) 0.0323(3)
N33 N 0.7619(4) 0.1879(5) 0.0853(3)
N34 N 0.8004(5) 0.3663(5) 0.0759(3)
N35 N 0.7776(4) 0.2819(5) 0.0326(3)
N36 N 0.7856(4) 0.3392(4) 0.0103(3)
N37 N 0.8270(4) 0.4962(5) 0.0661(3)
N39 N 0.8222(4) 0.5604(5) 0.0123(4)
N40 N 0.8409(5) 0.6775(5) 0.0495(3)
N48 N 0.7102(5) 0.0862(5) 0.0143(3)
C42 C 0.9638(6) 0.7173(8) 0.0136(6)
H24 H 0.948978 0.729150 0.037037
C52 C 0.8780(5) 0.1135(7) 0.0004(4)
C53 C 0.9301(8) 0.0767(10) 0.0012(6)
C54 C 0.9511(10) 0.0401(12) 0.0367(5)
H30 H 0.987421 0.017315 0.039026
C55 C 0.9172(10) 0.0381(12) 0.0683(5)
H31 H 0.928127 0.011158 0.090935
C56 C 0.8650(7) 0.0794(8) 0.0642(5)
H32 H 0.842973 0.080276 0.085526
C57 C 0.7462(6) 0.1403(8) 0.1107(5)
H33 H 0.736700 0.097268 0.100502
C58 C 0.7436(7) 0.1519(8) 0.1502(5)
H34 H 0.733060 0.117041 0.166409
C59 C 0.7562(8) 0.2142(10) 0.1662(5)
H35 H 0.755693 0.221680 0.193512
C60 C 0.7698(7) 0.2663(9) 0.1418(4)
H36 H 0.776355 0.309908 0.151902
C61 C 0.7735(5) 0.2512(7) 0.1012(4)
C62 C 0.7860(5) 0.3001(7) 0.0705(4)
C63 C 0.7997(5) 0.3872(6) 0.0381(4)
C64 C 0.8129(5) 0.4592(6) 0.0325(4)
C65 C 0.8337(5) 0.5597(6) 0.0522(4)
C66 C 0.8398(5) 0.6239(7) 0.0730(5)
C67 C 0.8410(6) 0.6278(7) 0.1145(4)
H37 H 0.840055 0.588644 0.129738
C68 C 0.8436(10) 0.6910(11) 0.1330(6)
H38 H 0.846247 0.695125 0.160828
C69 C 0.8420(8) 0.7479(9) 0.1082(6)
H39 H 0.841276 0.791192 0.119012
C70 C 0.8414(7) 0.7383(7) 0.0661(5)
H40 H 0.841362 0.776143 0.049590
C71 C 0.7228(7) 0.0206(8) 0.0221(5)
H41 H 0.761813 0.009156 0.033052
H54 H 0.688380 0.469378 0.001528
Co11 Co 0.71678(19) 0.43103(16) 0.31611(9)
Cl16 Cl 0.9550(5) 0.5021(6) 0.1227(4)
Cl17 Cl 0.6141(8) 0.4342(10) 0.3398(6)
Cl18 Cl 0.7803(8) 0.4580(8) 0.3756(3)
N50 N 0.4887(4) 0.6945(4) 0.0493(3)
N51 N 0.4075(4) 0.7985(4) 0.0298(3)
Cd1 Cd 0.56851(4) 0.72874(4) 0.92138(3)
Cd3 Cd 0.93624(4) 0.12104(5) 0.89015(3)
Cd4 Cd 0.56593(5) 0.30600(5) 0.70802(3)
Co1 Co 0.64458(5) 0.41607(7) 0.89135(4)
Co2 Co 0.76411(6) 0.48878(7) 0.93289(4)
Co3 Co 0.76800(6) 0.38446(7) 0.86142(4)
Co4 Co 0.74419(6) 0.33240(7) 0.94707(4)
Co5 Co 0.47438(6) 0.44350(7) 0.85914(5)
Co6 Co 0.83704(7) 0.65059(8) 0.98504(6)
Co7 Co 0.84183(7) 0.34716(8) 0.76731(5)
Cl1 Cl 0.5741(5) 0.4392(4) 0.7016(3)
Cl2 Cl 0.4679(6) 0.3162(8) 0.6789(4)
Cl3 Cl 0.5551(3) 0.1815(2) 0.72020(18)
Cl5 Cl 0.9073(3) 0.0001(2) 0.90573(18)
Cl6 Cl 0.55320(19) 0.8081(2) 0.86645(12)
Cl7 Cl 0.60528(13) 0.79326(17) 0.98770(10)
Cl8 Cl 0.47133(16) 0.70468(19) 0.94851(12)
O1 O 0.7016(3) 0.3329(3) 0.8874(2)
O2 O 0.6965(3) 0.4250(3) 0.9480(2)
O3 O 0.8046(3) 0.3972(3) 0.9229(2)
O4 O 0.7174(3) 0.4677(3) 0.8741(2)
N1 N 0.8079(4) 0.7548(5) 0.9679(3)
N2 N 0.6634(4) 0.6787(4) 0.9290(3)
N3 N 0.7523(4) 0.6387(4) 0.9529(3)
N4 N 0.7165(4) 0.5842(4) 0.9398(3)
N5 N 0.5630(4) 0.6212(4) 0.8925(3)
N6 N 0.5966(3) 0.5147(4) 0.8962(3)
N7 N 0.5390(4) 0.5150(4) 0.8763(3)
N8 N 0.4313(4) 0.5377(5) 0.8378(3)
N9 N 0.4174(4) 0.3798(5) 0.8140(3)
N10 N 0.5542(4) 0.3381(5) 0.7739(3)
N11 N 0.5341(4) 0.3963(5) 0.8266(3)
N12 N 0.5954(4) 0.3984(5) 0.8286(3)
N13 N 0.6609(4) 0.3135(5) 0.7472(3)
N14 N 0.7176(4) 0.3647(4) 0.7991(3)
N15 N 0.7535(4) 0.3388(5) 0.7731(3)
N16 N 0.8066(4) 0.2778(5) 0.7192(3)
N17 N 0.8676(5) 0.4213(5) 0.7249(3)
N18 N 0.8930(5) 0.5299(5) 0.8152(3)
N19 N 0.8413(4) 0.4370(5) 0.7984(3)
N20 N 0.8340(4) 0.4512(4) 0.8371(3)
N21 N 0.9204(4) 0.5893(5) 0.8897(4)
N22 N 0.8378(4) 0.5484(4) 0.9112(3)
N23 N 0.8640(4) 0.5953(5) 0.9388(3)
N24 N 0.9307(4) 0.6803(5) 0.9847(4)
N25 N 0.9346(4) 0.3019(6) 0.7713(3)
N26 N 0.9060(4) 0.2285(5) 0.8664(3)
N27 N 0.8593(4) 0.3038(5) 0.8243(3)
N28 N 0.8256(4) 0.2972(5) 0.8548(3)
N29 N 0.8748(4) 0.1700(5) 0.9322(3)
N30 N 0.8004(4) 0.2427(4) 0.9396(3)
N31 N 0.8099(4) 0.1992(4) 0.9723(3)
N38 N 0.8081(4) 0.4960(4) 0.9983(3)
N41 N 0.4066(4) 0.4302(5) 0.9003(3)
N42 N 0.5113(4) 0.3055(4) 0.9507(3)
N43 N 0.5166(4) 0.3874(5) 0.9068(3)
N44 N 0.5734(3) 0.3600(4) 0.9153(3)
N45 N 0.5925(4) 0.2015(4) 0.9702(3)
N46 N 0.6707(3) 0.2681(4) 0.9652(3)
N47 N 0.6908(3) 0.2068(4) 0.9825(3)
C1 C 0.8390(7) 0.8121(7) 0.9708(5)
H1 H 0.879015 0.810490 0.982395
C2 C 0.8151(8) 0.8744(7) 0.9573(6)
H2 H 0.838259 0.913476 0.959640
C3 C 0.7574(7) 0.8758(7) 0.9409(6)
H3 H 0.740132 0.917027 0.932480
C4 C 0.7229(6) 0.8185(6) 0.9360(4)
H4 H 0.683225 0.819791 0.923729
C5 C 0.7495(5) 0.7594(5) 0.9500(4)
C6 C 0.7189(5) 0.6930(5) 0.9455(3)
C7 C 0.6639(4) 0.6112(5) 0.9256(3)
C8 C 0.6092(5) 0.5790(5) 0.9055(3)
C9 C 0.5212(5) 0.5789(6) 0.8749(3)
C10 C 0.4627(5) 0.5944(6) 0.8515(4)
C11 C 0.4419(6) 0.6586(7) 0.8421(4)
H5 H 0.465402 0.695885 0.850825
C12 C 0.3857(6) 0.6677(8) 0.8197(5)
H6 H 0.369497 0.710608 0.814599
C13 C 0.3543(6) 0.6088(9) 0.8051(5)
H7 H 0.317091 0.613102 0.789159
C14 C 0.3770(5) 0.5469(7) 0.8136(4)
H8 H 0.355523 0.509297 0.802881
C15 C 0.3590(6) 0.3650(9) 0.8126(5)
H9 H 0.337138 0.388645 0.829427
C16 C 0.3304(7) 0.3171(12) 0.7877(7)
H10 H 0.289749 0.308861 0.787218
C17 C 0.3637(7) 0.2801(9) 0.7627(5)
H11 H 0.345802 0.246024 0.745962
C18 C 0.4235(6) 0.2958(9) 0.7636(5)
H12 H 0.446105 0.273419 0.746627
C19 C 0.4486(5) 0.3430(6) 0.7889(4)
C20 C 0.5120(5) 0.3591(6) 0.7953(3)
C21 C 0.6055(4) 0.3631(6) 0.7969(3)
C22 C 0.6616(5) 0.3474(5) 0.7820(3)
C23 C 0.7185(5) 0.3084(6) 0.7437(4)
C24 C 0.7486(5) 0.2710(6) 0.7136(4)
C25 C 0.7170(7) 0.2306(8) 0.6845(5)
H13 H 0.675561 0.226994 0.681912
C26 C 0.7499(8) 0.1949(8) 0.6590(5)
H14 H 0.730112 0.166436 0.639278
C27 C 0.8097(8) 0.2014(9) 0.6627(5)
H15 H 0.831813 0.179234 0.645343
C28 C 0.8388(6) 0.2456(7) 0.6958(4)
H16 H 0.880159 0.250350 0.699987
C29 C 0.8731(7) 0.4161(8) 0.6873(5)
H17 H 0.865155 0.373873 0.675475
C30 C 0.8904(10) 0.4693(12) 0.6614(7)
H18 H 0.887223 0.465772 0.633516
C31 C 0.9111(11) 0.5233(14) 0.6821(7)
H19 H 0.929244 0.557106 0.668934
C32 C 0.9070(9) 0.5315(11) 0.7220(6)
H20 H 0.918552 0.571963 0.735053
C33 C 0.8862(7) 0.4803(8) 0.7423(5)
C34 C 0.8760(6) 0.4824(6) 0.7868(4)
C35 C 0.8654(5) 0.5074(6) 0.8457(4)
C36 C 0.8717(4) 0.5464(5) 0.8826(4)
C37 C 0.9119(5) 0.6192(6) 0.9252(5)
C38 C 0.9527(6) 0.6620(6) 0.9502(6)
C43 C 0.9736(6) 0.3084(8) 0.7447(5)
H25 H 0.962481 0.332707 0.721067
C47 C 0.9502(5) 0.2662(6) 0.8042(4)
C48 C 0.9055(4) 0.2639(6) 0.8318(3)
C49 C 0.8556(4) 0.2523(6) 0.8795(3)
C50 C 0.8413(4) 0.2224(5) 0.9164(3)
C51 C 0.8542(5) 0.1579(5) 0.9668(3)
H29 H 0.950670 0.076072 0.979173
C74 C 0.6089(6) 0.0490(7) 0.9888(5)
H44 H 0.570065 0.060221 0.977545
C75 C 0.6526(5) 0.0987(6) 0.9962(4)
C76 C 0.6445(4) 0.1685(5) 0.9835(3)
C77 C 0.6129(4) 0.2611(5) 0.9594(3)
C78 C 0.5675(4) 0.3110(5) 0.9408(3)
C79 C 0.4825(4) 0.3550(6) 0.9285(3)
C80 C 0.4214(4) 0.3805(6) 0.9282(4)
C81 C 0.3825(5) 0.3588(8) 0.9528(4)
H45 H 0.391942 0.322483 0.970193
C82 C 0.3290(6) 0.3919(9) 0.9511(5)
H46 H 0.302849 0.379856 0.968886
C83 C 0.3139(6) 0.4407(9) 0.9246(5)
H47 H 0.276483 0.461073 0.922448
C84 C 0.3539(5) 0.4604(7) 0.9008(4)
H48 H 0.344168 0.497208 0.883818
C85 C 0.6803(7) 0.2681(7) 0.8704(5)
H49 H 0.696649 0.232367 0.888106
H50 H 0.692824 0.262349 0.844466
H51 H 0.637427 0.266859 0.867499
C86 C 0.6639(6) 0.4410(8) 0.9826(5)
H52 H 0.655055 0.399731 0.995627
H53 H 0.627215 0.464022 0.972688
C87 C 0.8702(7) 0.3938(8) 0.9383(6)
H55 H 0.885163 0.438500 0.944773
H56 H 0.890833 0.374433 0.918020
H57 H 0.876613 0.366116 0.962162
C88 C 0.7061(7) 0.5181(7) 0.8440(5)
H58 H 0.741393 0.544956 0.843789
H59 H 0.673874 0.546494 0.849681
H60 H 0.695238 0.497007 0.818145
Cd6 Cd 0.97241(16) 0.6155(2) 0.84149(12)
Cl14 Cl 0.5730(4) 0.2422(6) 0.6396(3)
O5 O 0.9248(15) 0.1019(18) 0.8237(10)
N49 N 0.9679(17) 0.062(2) 0.7679(12)
C89 C 0.968(2) 0.075(3) 0.8094(18)
C91 C 0.928(2) 0.106(3) 0.7421(15)
H62 H 0.949710 0.144239 0.734070
H63 H 0.896745 0.121856 0.756455
H64 H 0.910371 0.081580 0.718542
Cd7 Cd 0.49888(4) 0.20861(5) 0.99108(3)
Co12 Co 0.62908(12) 0.42658(15) 0.64562(8)
Cl20 Cl 0.9449(3) 0.6815(2) 0.77980(18)
Cd8 Cd 0.52759(16) 0.1155(2) 0.65851(12)
Cl22 Cl 0.9270(4) 0.7422(6) 0.8604(3)
H66 H 0.998613 0.032642 0.714799
Co9 Co 0.87092(12) 0.92658(15) 0.85438(8)
C73 C 0.6237(8) 0.9843(7) 0.9982(6)
H43 H 0.595132 0.950258 0.993431
Cl15 Cl 0.7677(4) 0.9308(5) 0.8358(4)
Cl19 Cl 0.9259(5) 0.9392(4) 0.7984(3)
Cl8_2 Cl 0.02867(16) 0.20468(19) 0.55149(12)
N8_2 N 0.0687(4) 0.0377(5) 0.6622(3)
C10_2 C 0.0373(5) 0.0944(6) 0.6485(4)
C11_2 C 0.0581(6) 0.1586(7) 0.6579(4)
H5_2 H 0.034598 0.195885 0.649175
C12_2 C 0.1143(6) 0.1677(8) 0.6803(5)
H6_2 H 0.130503 0.210608 0.685401
C13_2 C 0.1457(6) 0.1088(9) 0.6949(5)
H7_2 H 0.182909 0.113102 0.710841
C14_2 C 0.1230(5) 0.0469(7) 0.6864(4)
H8_2 H 0.144477 0.009297 0.697119
N50_2 N 0.0113(4) 0.1945(4) 0.4507(3)
N51_2 N 0.0925(4) 0.2985(4) 0.4702(3)
Co5_2 Co 0.02562(6) 0.94350(7) 0.64086(5)
Cl2_2 Cl 0.0321(6) 0.8162(8) 0.8211(4)
N9_2 N 0.0826(4) 0.8798(5) 0.6860(3)
N41_2 N 0.0934(4) 0.9302(5) 0.5997(3)
C15_2 C 0.1410(6) 0.8650(9) 0.6874(5)
H9_2 H 0.162862 0.888645 0.670573
C16_2 C 0.1696(7) 0.8171(12) 0.7123(7)
H10_2 H 0.210251 0.808861 0.712782
C17_2 C 0.1363(7) 0.7801(9) 0.7373(5)
H11_2 H 0.154198 0.746024 0.754038
C18_2 C 0.0765(6) 0.7958(9) 0.7364(5)
H12_2 H 0.053895 0.773419 0.753373
C19_2 C 0.0514(5) 0.8430(6) 0.7111(4)
C79_2 C 0.0175(4) 0.8550(6) 0.5715(3)
C80_2 C 0.0786(4) 0.8805(6) 0.5718(4)
C81_2 C 0.1175(5) 0.8588(8) 0.5472(4)
H45_2 H 0.108058 0.822483 0.529807
C82_2 C 0.1710(6) 0.8919(9) 0.5489(5)
H46_2 H 0.197151 0.879856 0.531114
C83_2 C 0.1861(6) 0.9407(9) 0.5754(5)
H47_2 H 0.223517 0.961073 0.577552
C84_2 C 0.1461(5) 0.9604(7) 0.5992(4)
H48_2 H 0.155832 0.997208 0.616182
Cd7_2 Cd 0.00112(4) 0.70861(5) 0.50892(3)
Cd1_2 Cd 0.93149(4) 0.22874(4) 0.57862(3)
Cd2_2 Cd 0.99888(4) 0.29139(5) 0.49108(3)
Co6_2 Co 0.66296(7) 0.15059(8) 0.51496(6)
Co10_2 Co 0.6817(2) 0.0117(4) 0.26213(16)
Cl6_2 Cl 0.94680(19) 0.3081(2) 0.63355(12)
Cl7_2 Cl 0.89472(13) 0.29326(17) 0.51230(10)
Cl9_2 Cl 0.9594(5) 0.3610(6) 0.4358(4)
Cl12_2 Cl 0.6637(8) 0.1359(12) 0.2493(6)
Cl13_2 Cl 0.7842(3) 0.0208(4) 0.23140(18)
N1_2 N 0.6921(4) 0.2548(5) 0.5321(3)
N2_2 N 0.8366(4) 0.1787(4) 0.5710(3)
N3_2 N 0.7477(4) 0.1387(4) 0.5471(3)
N4_2 N 0.7835(4) 0.0842(4) 0.5602(3)
N5_2 N 0.9370(4) 0.1212(4) 0.6075(3)
N6_2 N 0.9034(3) 0.0147(4) 0.6038(3)
N7_2 N 0.9610(4) 0.0150(4) 0.6237(3)
N18_2 N 0.6070(5) 0.0299(5) 0.6848(3)
N21_2 N 0.5796(4) 0.0893(5) 0.6103(4)
N22_2 N 0.6622(4) 0.0484(4) 0.5888(3)
N23_2 N 0.6360(4) 0.0953(5) 0.5612(3)
N24_2 N 0.5693(4) 0.1803(5) 0.5153(4)
N39_2 N 0.6778(4) 0.0604(5) 0.4877(4)
N40_2 N 0.6591(5) 0.1775(5) 0.4505(3)
C1_2 C 0.6610(7) 0.3121(7) 0.5292(5)
H1_2 H 0.620985 0.310490 0.517605
C2_2 C 0.6849(8) 0.3744(7) 0.5427(6)
H2_2 H 0.661741 0.413476 0.540360
C3_2 C 0.7426(7) 0.3758(7) 0.5591(6)
H3_2 H 0.759868 0.417027 0.567520
C4_2 C 0.7771(6) 0.3185(6) 0.5640(4)
H4_2 H 0.816775 0.319791 0.576271
C5_2 C 0.7505(5) 0.2594(5) 0.5500(4)
C6_2 C 0.7811(5) 0.1930(5) 0.5545(3)
C7_2 C 0.8361(4) 0.1112(5) 0.5744(3)
C8_2 C 0.8908(5) 0.0790(5) 0.5945(3)
C9_2 C 0.9788(5) 0.0789(6) 0.6251(3)
C31_2 C 0.5889(11) 0.0233(14) 0.8179(7)
H19_2 H 0.570756 0.057106 0.831066
C32_2 C 0.5930(9) 0.0315(11) 0.7780(6)
H20_2 H 0.581448 0.071963 0.764947
C35_2 C 0.6346(5) 0.0074(6) 0.6543(4)
C36_2 C 0.6283(4) 0.0464(5) 0.6174(4)
C37_2 C 0.5881(5) 0.1192(6) 0.5748(5)
C38_2 C 0.5473(6) 0.1620(6) 0.5498(6)
C39_2 C 0.4895(7) 0.1813(9) 0.5547(7)
H21_2 H 0.474670 0.168964 0.578100
C40_2 C 0.4547(8) 0.2172(11) 0.5265(7)
H22_2 H 0.415586 0.228212 0.529502
C41_2 C 0.4784(8) 0.2376(9) 0.4927(8)
H23_2 H 0.455890 0.265151 0.473728
C42_2 C 0.5362(6) 0.2173(8) 0.4864(6)
H24_2 H 0.551022 0.229150 0.462963
C65_2 C 0.6663(5) 0.0597(6) 0.4478(4)
C66_2 C 0.6602(5) 0.1239(7) 0.4270(5)
C67_2 C 0.6590(6) 0.1278(7) 0.3855(4)
H37_2 H 0.659945 0.088644 0.370262
C68_2 C 0.6564(10) 0.1910(11) 0.3670(6)
H38_2 H 0.653753 0.195125 0.339172
C69_2 C 0.6580(8) 0.2479(9) 0.3918(6)
H39_2 H 0.658724 0.291192 0.380988
C70_2 C 0.6586(7) 0.2383(7) 0.4339(5)
H40_2 H 0.658638 0.276143 0.450410
C88_2 C 0.7939(7) 0.0181(7) 0.6560(5)
H58_2 H 0.758607 0.044956 0.656211
H59_2 H 0.826126 0.046494 0.650319
Cl16_2 Cl 0.5450(5) 0.0021(6) 0.3773(4)
Cl21_2 Cl 0.42264(17) 0.1683(2) 0.64661(18)
Cd3_2 Cd 0.56376(4) 0.62104(5) 0.60985(3)
Cd4_2 Cd 0.93407(5) 0.80600(5) 0.79198(3)
Cd5_2 Cd 0.64389(4) 0.93453(6) 0.37414(3)
Co1_2 Co 0.85542(5) 0.91607(7) 0.60865(4)
Co2_2 Co 0.73589(6) 0.98878(7) 0.56711(4)
Co3_2 Co 0.73200(6) 0.88446(7) 0.63858(4)
Co4_2 Co 0.75581(6) 0.83240(7) 0.55293(4)
Co7_2 Co 0.65817(7) 0.84716(8) 0.73269(5)
Co8_2 Co 0.73378(6) 0.67940(8) 0.47939(5)
Cl4_2 Cl 0.46273(16) 0.6367(2) 0.57533(15)
Cl5_2 Cl 0.5927(3) 0.5001(2) 0.59427(18)
Cl10_2 Cl 0.57736(17) 0.8317(2) 0.35339(18)
Cl11_2 Cl 0.7187(2) 0.9692(3) 0.33258(14)
O1_2 O 0.7984(3) 0.8329(3) 0.6126(2)
O2_2 O 0.8035(3) 0.9250(3) 0.5520(2)
O3_2 O 0.6954(3) 0.8972(3) 0.5771(2)
O4_2 O 0.7826(3) 0.9677(3) 0.6259(2)
N10_2 N 0.9458(4) 0.8381(5) 0.7261(3)
N11_2 N 0.9659(4) 0.8963(5) 0.6734(3)
N12_2 N 0.9046(4) 0.8984(5) 0.6714(3)
N13_2 N 0.8391(4) 0.8135(5) 0.7528(3)
N14_2 N 0.7824(4) 0.8647(4) 0.7009(3)
N15_2 N 0.7465(4) 0.8388(5) 0.7269(3)
N16_2 N 0.6934(4) 0.7778(5) 0.7808(3)
N17_2 N 0.6324(5) 0.9213(5) 0.7751(3)
N19_2 N 0.6587(4) 0.9370(5) 0.7016(3)
N20_2 N 0.6660(4) 0.9512(4) 0.6629(3)
N25_2 N 0.5654(4) 0.8019(6) 0.7287(3)
N26_2 N 0.5940(4) 0.7285(5) 0.6336(3)
N27_2 N 0.6407(4) 0.8038(5) 0.6757(3)
N28_2 N 0.6744(4) 0.7972(5) 0.6452(3)
N29_2 N 0.6252(4) 0.6700(5) 0.5678(3)
N30_2 N 0.6996(4) 0.7427(4) 0.5604(3)
N31_2 N 0.6901(4) 0.6992(4) 0.5277(3)
N32_2 N 0.6538(4) 0.6161(5) 0.4677(3)
N33_2 N 0.7381(4) 0.6879(5) 0.4147(3)
N34_2 N 0.6996(5) 0.8663(5) 0.4241(3)
N35_2 N 0.7224(4) 0.7819(5) 0.4674(3)
N36_2 N 0.7144(4) 0.8392(4) 0.4897(3)
N37_2 N 0.6730(4) 0.9962(5) 0.4339(3)
N38_2 N 0.6919(4) 0.9960(4) 0.5017(3)
N42_2 N 0.9887(4) 0.8055(4) 0.5493(3)
N43_2 N 0.9834(4) 0.8874(5) 0.5932(3)
N44_2 N 0.9266(3) 0.8600(4) 0.5847(3)
N45_2 N 0.9075(4) 0.7015(4) 0.5298(3)
N46_2 N 0.8293(3) 0.7681(4) 0.5348(3)
N47_2 N 0.8092(3) 0.7068(4) 0.5175(3)
N48_2 N 0.7898(5) 0.5862(5) 0.4857(3)
C20_2 C 0.9880(5) 0.8591(6) 0.7047(3)
C21_2 C 0.8945(4) 0.8631(6) 0.7031(3)
C22_2 C 0.8384(5) 0.8474(5) 0.7180(3)
C23_2 C 0.7815(5) 0.8084(6) 0.7563(4)
C24_2 C 0.7514(5) 0.7710(6) 0.7864(4)
C25_2 C 0.7830(7) 0.7306(8) 0.8155(5)
H13_2 H 0.824439 0.726994 0.818088
C26_2 C 0.7501(8) 0.6949(8) 0.8410(5)
H14_2 H 0.769888 0.666436 0.860722
C27_2 C 0.6903(8) 0.7014(9) 0.8373(5)
H15_2 H 0.668187 0.679234 0.854657
C28_2 C 0.6612(6) 0.7456(7) 0.8042(4)
H16_2 H 0.619841 0.750350 0.800013
C29_2 C 0.6269(7) 0.9161(8) 0.8127(5)
H17_2 H 0.634845 0.873873 0.824525
C30_2 C 0.6096(10) 0.9693(12) 0.8386(7)
H18_2 H 0.612777 0.965772 0.866484
C33_2 C 0.6138(7) 0.9803(8) 0.7577(5)
C34_2 C 0.6240(6) 0.9824(6) 0.7132(4)
C43_2 C 0.5264(6) 0.8084(8) 0.7553(5)
H25_2 H 0.537519 0.832707 0.778933
C44_2 C 0.4712(7) 0.7800(10) 0.7480(6)
H26_2 H 0.444736 0.786129 0.766484
C45_2 C 0.4536(6) 0.7419(10) 0.7134(5)
H27_2 H 0.415932 0.721926 0.708618
C46_2 C 0.4940(5) 0.7344(8) 0.6863(4)
H28_2 H 0.484435 0.709338 0.662741
C47_2 C 0.5498(5) 0.7662(6) 0.6958(4)
C48_2 C 0.5945(4) 0.7639(6) 0.6682(3)
C49_2 C 0.6444(4) 0.7523(6) 0.6205(3)
C50_2 C 0.6587(4) 0.7224(5) 0.5836(3)
C51_2 C 0.6458(5) 0.6579(5) 0.5332(3)
C52_2 C 0.6220(5) 0.6135(7) 0.4996(4)
C53_2 C 0.5699(8) 0.5767(10) 0.4988(6)
H29_2 H 0.549330 0.576072 0.520827
C54_2 C 0.5489(10) 0.5401(12) 0.4633(5)
H30_2 H 0.512579 0.517315 0.460974
C55_2 C 0.5828(10) 0.5381(12) 0.4317(5)
H31_2 H 0.571873 0.511158 0.409065
C56_2 C 0.6350(7) 0.5794(8) 0.4358(5)
H32_2 H 0.657027 0.580276 0.414474
C57_2 C 0.7538(6) 0.6403(8) 0.3893(5)
H33_2 H 0.763300 0.597268 0.399498
C58_2 C 0.7564(7) 0.6519(8) 0.3498(5)
H34_2 H 0.766940 0.617041 0.333591
C59_2 C 0.7438(8) 0.7142(10) 0.3338(5)
H35_2 H 0.744307 0.721680 0.306488
C60_2 C 0.7302(7) 0.7663(9) 0.3582(4)
H36_2 H 0.723645 0.809908 0.348098
C61_2 C 0.7265(5) 0.7512(7) 0.3988(4)
C62_2 C 0.7140(5) 0.8001(7) 0.4295(4)
C63_2 C 0.7003(5) 0.8872(6) 0.4619(4)
C64_2 C 0.6871(5) 0.9592(6) 0.4675(4)
C71_2 C 0.7772(7) 0.5206(8) 0.4779(5)
H41_2 H 0.738187 0.509156 0.466948
C72 C 0.8187(8) 0.4692(7) 0.4851(6)
H42 H 0.807682 0.424740 0.478765
C73_2 C 0.8763(8) 0.4843(7) 0.5018(6)
H43_2 H 0.904868 0.450258 0.506569
C74_2 C 0.8911(6) 0.5490(7) 0.5112(5)
H44_2 H 0.929935 0.560221 0.522455
C75_2 C 0.8474(5) 0.5987(6) 0.5038(4)
C76_2 C 0.8555(4) 0.6685(5) 0.5165(3)
C77_2 C 0.8871(4) 0.7611(5) 0.5406(3)
C78_2 C 0.9325(4) 0.8110(5) 0.5592(3)
C85_2 C 0.8197(7) 0.7681(7) 0.6296(5)
H49_2 H 0.803351 0.732367 0.611894
H50_2 H 0.807176 0.762349 0.655534
H51_2 H 0.862573 0.766859 0.632501
C86_2 C 0.8361(6) 0.9410(8) 0.5174(5)
H52_2 H 0.844945 0.899731 0.504373
H53_2 H 0.872785 0.964022 0.527312
H54_2 H 0.811620 0.969378 0.498472
C87_2 C 0.6298(7) 0.8938(8) 0.5617(6)
H55_2 H 0.614837 0.938500 0.555227
H56_2 H 0.609167 0.874433 0.581980
H57_2 H 0.623387 0.866116 0.537838
H60_2 H 0.804762 0.997007 0.681855
Co11_2 Co 0.78322(19) 0.93103(16) 0.18389(9)
Cl15_2 Cl 0.7323(4) 0.4308(5) 0.6642(4)
Cl17_2 Cl 0.8859(8) 0.9342(10) 0.1602(6)
Cl18_2 Cl 0.7197(8) 0.9580(8) 0.1244(3)
O5_2 O 0.5752(15) 0.6019(18) 0.6763(10)
N49_2 N 0.5321(17) 0.562(2) 0.7321(12)
C89_2 C 0.532(2) 0.575(3) 0.6906(18)
H61_2 H 0.497947 0.562090 0.672769
C90_2 C 0.485(4) 0.536(6) 0.753(3)
C91_2 C 0.572(2) 0.606(3) 0.7579(15)
H62_2 H 0.550290 0.644239 0.765930
H63_2 H 0.603255 0.621856 0.743545
H64_2 H 0.589629 0.581580 0.781458
Cd9_2 Cd 0.47241(16) 0.8845(2) 0.34149(12)
Cl23_2 Cl 0.4550(5) 0.9979(6) 0.6227(4)
H65 H 0.471663 0.485951 0.741397
H66_2 H 0.501387 0.532642 0.785201
H67_2 H 0.446629 0.569909 0.748075
Co9_2 Co 0.12908(12) 0.07342(15) 0.14562(8)
C73_3 C 0.3763(8) 0.0157(7) 0.0018(6)
H43_3 H 0.404868 0.049742 0.006569
Cl15_3 Cl 0.2323(4) 0.0692(5) 0.1642(4)
Cl19_2 Cl 0.0741(5) 0.0608(4) 0.2016(3)
Cd1_3 Cd 0.43149(4) 0.27126(4) 0.07862(3)
Cd3_3 Cd 0.06376(4) 0.87896(5) 0.10985(3)
Cd4_3 Cd 0.43407(5) 0.69400(5) 0.29198(3)
Co1_3 Co 0.35542(5) 0.58393(7) 0.10865(4)
Co2_3 Co 0.23589(6) 0.51122(7) 0.06711(4)
Co3_3 Co 0.23200(6) 0.61554(7) 0.13858(4)
Co4_3 Co 0.25581(6) 0.66760(7) 0.05293(4)
Co5_3 Co 0.52562(6) 0.55650(7) 0.14086(5)
Co6_3 Co 0.16296(7) 0.34941(8) 0.01496(6)
Co7_3 Co 0.15817(7) 0.65284(8) 0.23269(5)
Cl1_2 Cl 0.4259(5) 0.5608(4) 0.2984(3)
Cl2_3 Cl 0.5321(6) 0.6838(8) 0.3211(4)
Cl3_2 Cl 0.4449(3) 0.8185(2) 0.27980(18)
Cl5_3 Cl 0.0927(3) 0.9999(2) 0.09427(18)
Cl6_3 Cl 0.44680(19) 0.1919(2) 0.13355(12)
Cl7_3 Cl 0.39472(13) 0.20674(17) 0.01230(10)
Cl8_3 Cl 0.52867(16) 0.29532(19) 0.05149(12)
O1_3 O 0.2984(3) 0.6671(3) 0.1126(2)
O2_3 O 0.3035(3) 0.5750(3) 0.0520(2)
O3_3 O 0.1954(3) 0.6028(3) 0.0771(2)
O4_3 O 0.2826(3) 0.5323(3) 0.1259(2)
N1_3 N 0.1921(4) 0.2452(5) 0.0321(3)
N2_3 N 0.3366(4) 0.3213(4) 0.0710(3)
N3_3 N 0.2477(4) 0.3613(4) 0.0471(3)
N4_3 N 0.2835(4) 0.4158(4) 0.0602(3)
N5_3 N 0.4370(4) 0.3788(4) 0.1075(3)
N6_3 N 0.4034(3) 0.4853(4) 0.1038(3)
N7_3 N 0.4610(4) 0.4850(4) 0.1237(3)
N8_3 N 0.5687(4) 0.4623(5) 0.1622(3)
N9_3 N 0.5826(4) 0.6202(5) 0.1860(3)
N10_3 N 0.4458(4) 0.6619(5) 0.2261(3)
N11_3 N 0.4659(4) 0.6037(5) 0.1734(3)
N12_3 N 0.4046(4) 0.6016(5) 0.1714(3)
N13_3 N 0.3391(4) 0.6865(5) 0.2528(3)
N14_3 N 0.2824(4) 0.6353(4) 0.2009(3)
N15_3 N 0.2465(4) 0.6612(5) 0.2269(3)
N16_3 N 0.1934(4) 0.7222(5) 0.2808(3)
N17_3 N 0.1324(5) 0.5787(5) 0.2751(3)
N18_3 N 0.1070(5) 0.4701(5) 0.1848(3)
N19_3 N 0.1587(4) 0.5630(5) 0.2016(3)
N20_3 N 0.1660(4) 0.5488(4) 0.1629(3)
N21_3 N 0.0796(4) 0.4107(5) 0.1103(4)
N22_3 N 0.1622(4) 0.4516(4) 0.0888(3)
N23_3 N 0.1360(4) 0.4047(5) 0.0612(3)
N24_3 N 0.0693(4) 0.3197(5) 0.0153(4)
N25_3 N 0.0654(4) 0.6981(6) 0.2287(3)
N26_3 N 0.0940(4) 0.7715(5) 0.1336(3)
N27_3 N 0.1407(4) 0.6962(5) 0.1757(3)
N28_3 N 0.1744(4) 0.7028(5) 0.1452(3)
N29_3 N 0.1252(4) 0.8300(5) 0.0678(3)
N30_3 N 0.1996(4) 0.7573(4) 0.0604(3)
N31_3 N 0.1901(4) 0.8008(4) 0.0277(3)
N38_3 N 0.1919(4) 0.5040(4) 0.0017(3)
N41_3 N 0.5934(4) 0.5698(5) 0.0997(3)
N43_3 N 0.4834(4) 0.6126(5) 0.0932(3)
N44_3 N 0.4266(3) 0.6400(4) 0.0847(3)
N46_3 N 0.3293(3) 0.7319(4) 0.0348(3)
N47_3 N 0.3092(3) 0.7932(4) 0.0175(3)
C1_3 C 0.1610(7) 0.1879(7) 0.0292(5)
H1_3 H 0.120985 0.189510 0.017605
C2_3 C 0.1849(8) 0.1256(7) 0.0427(6)
H2_3 H 0.161741 0.086524 0.040360
C3_3 C 0.2426(7) 0.1242(7) 0.0591(6)
H3_3 H 0.259868 0.082973 0.067520
C4_3 C 0.2771(6) 0.1815(6) 0.0640(4)
H4_3 H 0.316775 0.180209 0.076271
C5_3 C 0.2505(5) 0.2406(5) 0.0500(4)
C6_3 C 0.2811(5) 0.3070(5) 0.0545(3)
C7_3 C 0.3361(4) 0.3888(5) 0.0744(3)
C8_3 C 0.3908(5) 0.4210(5) 0.0945(3)
C9_3 C 0.4788(5) 0.4211(6) 0.1251(3)
C10_3 C 0.5373(5) 0.4056(6) 0.1485(4)
C11_3 C 0.5581(6) 0.3414(7) 0.1579(4)
H5_3 H 0.534598 0.304115 0.149175
C12_3 C 0.6143(6) 0.3323(8) 0.1803(5)
H6_3 H 0.630503 0.289392 0.185401
C13_3 C 0.6457(6) 0.3912(9) 0.1949(5)
H7_3 H 0.682909 0.386898 0.210841
C14_3 C 0.6230(5) 0.4531(7) 0.1864(4)
H8_3 H 0.644477 0.490703 0.197119
C15_3 C 0.6410(6) 0.6350(9) 0.1874(5)
H9_3 H 0.662862 0.611355 0.170573
C16_3 C 0.6696(7) 0.6829(12) 0.2123(7)
H10_3 H 0.710251 0.691139 0.212782
C17_3 C 0.6363(7) 0.7199(9) 0.2373(5)
H11_3 H 0.654198 0.753976 0.254038
C18_3 C 0.5765(6) 0.7042(9) 0.2364(5)
H12_3 H 0.553895 0.726581 0.253373
C19_3 C 0.5514(5) 0.6570(6) 0.2111(4)
C20_3 C 0.4880(5) 0.6409(6) 0.2047(3)
C21_3 C 0.3945(4) 0.6369(6) 0.2031(3)
C22_3 C 0.3384(5) 0.6526(5) 0.2180(3)
C23_3 C 0.2815(5) 0.6916(6) 0.2563(4)
C24_3 C 0.2514(5) 0.7290(6) 0.2864(4)
C25_3 C 0.2830(7) 0.7694(8) 0.3155(5)
H13_3 H 0.324439 0.773006 0.318088
C26_3 C 0.2501(8) 0.8051(8) 0.3410(5)
H14_3 H 0.269888 0.833564 0.360722
C27_3 C 0.1903(8) 0.7986(9) 0.3373(5)
H15_3 H 0.168187 0.820766 0.354657
C28_3 C 0.1612(6) 0.7544(7) 0.3042(4)
H16_3 H 0.119841 0.749650 0.300013
C29_3 C 0.1269(7) 0.5839(8) 0.3127(5)
H17_3 H 0.134845 0.626127 0.324525
C30_3 C 0.1096(10) 0.5307(12) 0.3386(7)
H18_3 H 0.112777 0.534228 0.366484
C31_3 C 0.0889(11) 0.4767(14) 0.3179(7)
H19_3 H 0.070756 0.442894 0.331066
C32_3 C 0.0930(9) 0.4685(11) 0.2780(6)
H20_3 H 0.081448 0.428037 0.264947
C33_3 C 0.1138(7) 0.5197(8) 0.2577(5)
C34_3 C 0.1240(6) 0.5176(6) 0.2132(4)
C35_3 C 0.1346(5) 0.4926(6) 0.1543(4)
C36_3 C 0.1283(4) 0.4536(5) 0.1174(4)
C37_3 C 0.0881(5) 0.3808(6) 0.0748(5)
C38_3 C 0.0473(6) 0.3380(6) 0.0498(6)
C43_3 C 0.0264(6) 0.6916(8) 0.2553(5)
H25_3 H 0.037519 0.667293 0.278933
C47_3 C 0.0498(5) 0.7338(6) 0.1958(4)
C48_3 C 0.0945(4) 0.7361(6) 0.1682(3)
C49_3 C 0.1444(4) 0.7477(6) 0.1205(3)
C50_3 C 0.1587(4) 0.7776(5) 0.0836(3)
C51_3 C 0.1458(5) 0.8421(5) 0.0332(3)
H29_3 H 0.049330 0.923928 0.020827
C74_3 C 0.3911(6) 0.9510(7) 0.0112(5)
H44_3 H 0.429935 0.939779 0.022455
C75_3 C 0.3474(5) 0.9013(6) 0.0038(4)
C76_3 C 0.3555(4) 0.8315(5) 0.0165(3)
C77_3 C 0.3871(4) 0.7389(5) 0.0406(3)
C78_3 C 0.4325(4) 0.6890(5) 0.0592(3)
C79_3 C 0.5175(4) 0.6450(6) 0.0715(3)
C80_3 C 0.5786(4) 0.6195(6) 0.0718(4)
C81_3 C 0.6175(5) 0.6412(8) 0.0472(4)
H45_3 H 0.608058 0.677517 0.029807
C82_3 C 0.6710(6) 0.6081(9) 0.0489(5)
H46_3 H 0.697151 0.620144 0.031114
C83_3 C 0.6861(6) 0.5593(9) 0.0754(5)
H47_3 H 0.723517 0.538927 0.077552
C84_3 C 0.6461(5) 0.5396(7) 0.0992(4)
H48_3 H 0.655832 0.502792 0.116182
C85_3 C 0.3197(7) 0.7319(7) 0.1296(5)
H49_3 H 0.303351 0.767633 0.111894
H50_3 H 0.307176 0.737651 0.155534
H51_3 H 0.362573 0.733141 0.132501
C86_3 C 0.3361(6) 0.5590(8) 0.0174(5)
H52_3 H 0.344945 0.600269 0.004373
H53_3 H 0.372785 0.535978 0.027312
C87_3 C 0.1298(7) 0.6062(8) 0.0617(6)
H55_3 H 0.114837 0.561500 0.055227
H56_3 H 0.109167 0.625567 0.081980
H57_3 H 0.123387 0.633884 0.037838
C88_3 C 0.2939(7) 0.4819(7) 0.1560(5)
H58_3 H 0.258607 0.455044 0.156211
H59_3 H 0.326126 0.453506 0.150319
H60_3 H 0.304762 0.502993 0.181855
Cl14_2 Cl 0.4270(4) 0.7578(6) 0.3604(3)
O5_3 O 0.0752(15) 0.8981(18) 0.1763(10)
N49_3 N 0.0321(17) 0.938(2) 0.2321(12)
C89_3 C 0.032(2) 0.925(3) 0.1906(18)
C91_3 C 0.072(2) 0.894(3) 0.2579(15)
H62_3 H 0.050290 0.855761 0.265930
H63_3 H 0.103255 0.878144 0.243545
H64_3 H 0.089629 0.918420 0.281458
Co12_2 Co 0.37092(12) 0.57342(15) 0.35438(8)
Cl20_2 Cl 0.0551(3) 0.3185(2) 0.22020(18)
Cl22_2 Cl 0.0730(4) 0.2578(6) 0.1396(3)
H66_3 H 0.00138717 0.967358 0.285201
Cd5_3 Cd 0.14389(4) 0.56547(6) 0.87414(3)
Co8_3 Co 0.23378(6) 0.82060(8) 0.97939(5)
Co10_3 Co 0.1817(2) 0.4883(4) 0.76213(16)
Cl9_3 Cl 0.4594(5) 0.1390(6) 0.9358(4)
Cl11_3 Cl 0.2187(2) 0.5308(3) 0.83258(14)
Cl12_3 Cl 0.1637(8) 0.3641(12) 0.7493(6)
Cl13_3 Cl 0.2842(3) 0.4792(4) 0.73140(18)
N32_3 N 0.1538(4) 0.8839(5) 0.9677(3)
N33_3 N 0.2381(4) 0.8121(5) 0.9147(3)
N34_3 N 0.1996(5) 0.6337(5) 0.9241(3)
N35_3 N 0.2224(4) 0.7181(5) 0.9674(3)
N36_3 N 0.2144(4) 0.6608(4) 0.9897(3)
N37_3 N 0.1730(4) 0.5038(5) 0.9339(3)
N39_3 N 0.1778(4) 0.4396(5) 0.9877(4)
N40_3 N 0.1591(5) 0.3225(5) 0.9505(3)
N48_3 N 0.2898(5) 0.9138(5) 0.9857(3)
C42_3 C 0.0362(6) 0.2827(8) 0.9864(6)
H24_3 H 0.051022 0.270850 0.962963
C52_3 C 0.1220(5) 0.8865(7) 0.9996(4)
C53_3 C 0.0699(8) 0.9233(10) 0.9988(6)
C54_3 C 0.0489(10) 0.9599(12) 0.9633(5)
H30_3 H 0.012579 0.982685 0.960974
C55_3 C 0.0828(10) 0.9619(12) 0.9317(5)
H31_3 H 0.071873 0.988842 0.909065
C56_3 C 0.1350(7) 0.9206(8) 0.9358(5)
H32_3 H 0.157027 0.919724 0.914474
C57_3 C 0.2538(6) 0.8597(8) 0.8893(5)
H33_3 H 0.263300 0.902732 0.899498
C58_3 C 0.2564(7) 0.8481(8) 0.8498(5)
H34_3 H 0.266940 0.882959 0.833591
C59_3 C 0.2438(8) 0.7858(10) 0.8338(5)
H35_3 H 0.244307 0.778320 0.806488
C60_3 C 0.2302(7) 0.7337(9) 0.8582(4)
H36_3 H 0.223645 0.690092 0.848098
C61_3 C 0.2265(5) 0.7488(7) 0.8988(4)
C62_3 C 0.2140(5) 0.6999(7) 0.9295(4)
C63_3 C 0.2003(5) 0.6128(6) 0.9619(4)
C64_3 C 0.1871(5) 0.5408(6) 0.9675(4)
C65_3 C 0.1663(5) 0.4403(6) 0.9478(4)
C66_3 C 0.1602(5) 0.3761(7) 0.9270(5)
C67_3 C 0.1590(6) 0.3722(7) 0.8855(4)
H37_3 H 0.159945 0.411356 0.870262
C68_3 C 0.1564(10) 0.3090(11) 0.8670(6)
H38_3 H 0.153753 0.304875 0.839172
C69_3 C 0.1580(8) 0.2521(9) 0.8918(6)
H39_3 H 0.158724 0.208808 0.880988
C70_3 C 0.1586(7) 0.2617(7) 0.9339(5)
H40_3 H 0.158638 0.223857 0.950410
C71_3 C 0.2772(7) 0.9794(8) 0.9779(5)
H41_3 H 0.238187 0.990844 0.966948
H54_3 H 0.311620 0.530622 0.998472
Co11_3 Co 0.28322(19) 0.56897(16) 0.68389(9)
Cl17_3 Cl 0.3859(8) 0.5658(10) 0.6602(6)
Cl18_3 Cl 0.2197(8) 0.5420(8) 0.6244(3)
Cl4_3 Cl 0.96273(16) 0.8633(2) 0.07533(15)
C39_3 C 0.9895(7) 0.3187(9) 0.0547(7)
H21_3 H 0.974670 0.331036 0.078100
C40_3 C 0.9547(8) 0.2828(11) 0.0265(7)
H22_3 H 0.915586 0.271788 0.029502
C44_3 C 0.9712(7) 0.7200(10) 0.2480(6)
H26_3 H 0.944736 0.713871 0.266484
C45_3 C 0.9536(6) 0.7581(10) 0.2134(5)
H27_3 H 0.915932 0.778074 0.208618
C46_3 C 0.9940(5) 0.7656(8) 0.1863(4)
H28_3 H 0.984435 0.790662 0.162741
H61_3 H 0.997947 0.937910 0.172769
C90_3 C 0.985(4) 0.964(6) 0.253(3)
H67_3 H 0.946629 0.930091 0.248075
C41_3 C 0.9784(8) 0.2624(9) 0.9927(8)
H23_3 H 0.955890 0.234849 0.973728
Cd3_4 Cd 0.43624(4) 0.37896(5) 0.39015(3)
Cd4_4 Cd 0.06593(5) 0.19400(5) 0.20802(3)
Cd5_4 Cd 0.35611(4) 0.06547(6) 0.62586(3)
Co1_4 Co 0.14458(5) 0.08393(7) 0.39135(4)
Co2_4 Co 0.26411(6) 0.01122(7) 0.43289(4)
Co3_4 Co 0.26800(6) 0.11554(7) 0.36142(4)
Co4_4 Co 0.24419(6) 0.16760(7) 0.44707(4)
Co7_4 Co 0.34183(7) 0.15284(8) 0.26731(5)
Co8_4 Co 0.26622(6) 0.32060(8) 0.52061(5)
Cl4_4 Cl 0.53727(16) 0.3633(2) 0.42467(15)
Cl5_4 Cl 0.4073(3) 0.4999(2) 0.40573(18)
Cl11_4 Cl 0.2813(2) 0.0308(3) 0.66742(14)
O1_4 O 0.2016(3) 0.1671(3) 0.3874(2)
O2_4 O 0.1965(3) 0.0750(3) 0.4480(2)
O3_4 O 0.3046(3) 0.1028(3) 0.4229(2)
O4_4 O 0.2174(3) 0.0323(3) 0.3741(2)
N10_4 N 0.0542(4) 0.1619(5) 0.2739(3)
N11_4 N 0.0341(4) 0.1037(5) 0.3266(3)
N12_4 N 0.0954(4) 0.1016(5) 0.3286(3)
N13_4 N 0.1609(4) 0.1865(5) 0.2472(3)
N14_4 N 0.2176(4) 0.1353(4) 0.2991(3)
N15_4 N 0.2535(4) 0.1612(5) 0.2731(3)
N16_4 N 0.3066(4) 0.2222(5) 0.2192(3)
N17_4 N 0.3676(5) 0.0787(5) 0.2249(3)
N19_4 N 0.3413(4) 0.0630(5) 0.2984(3)
N20_4 N 0.3340(4) 0.0488(4) 0.3371(3)
N25_4 N 0.4346(4) 0.1981(6) 0.2713(3)
N26_4 N 0.4060(4) 0.2715(5) 0.3664(3)
N27_4 N 0.3593(4) 0.1962(5) 0.3243(3)
N28_4 N 0.3256(4) 0.2028(5) 0.3548(3)
N29_4 N 0.3748(4) 0.3300(5) 0.4322(3)
N30_4 N 0.3004(4) 0.2573(4) 0.4396(3)
N31_4 N 0.3099(4) 0.3008(4) 0.4723(3)
N32_4 N 0.3462(4) 0.3839(5) 0.5323(3)
N33_4 N 0.2619(4) 0.3121(5) 0.5853(3)
N34_4 N 0.3004(5) 0.1337(5) 0.5759(3)
N35_4 N 0.2776(4) 0.2181(5) 0.5326(3)
N36_4 N 0.2856(4) 0.1608(4) 0.5103(3)
N37_4 N 0.3270(4) 0.0038(5) 0.5661(3)
N38_4 N 0.3081(4) 0.0040(4) 0.4983(3)
N43_4 N 0.0166(4) 0.1126(5) 0.4068(3)
N44_4 N 0.0734(3) 0.1400(4) 0.4153(3)
N46_4 N 0.1707(3) 0.2319(4) 0.4652(3)
N47_4 N 0.1908(3) 0.2932(4) 0.4825(3)
N48_4 N 0.2102(5) 0.4138(5) 0.5143(3)
C20_4 C 0.0120(5) 0.1409(6) 0.2953(3)
C21_4 C 0.1055(4) 0.1369(6) 0.2969(3)
C22_4 C 0.1616(5) 0.1526(5) 0.2820(3)
C23_4 C 0.2185(5) 0.1916(6) 0.2437(4)
C24_4 C 0.2486(5) 0.2290(6) 0.2136(4)
C25_4 C 0.2170(7) 0.2694(8) 0.1845(5)
H13_4 H 0.175561 0.273006 0.181912
C26_4 C 0.2499(8) 0.3051(8) 0.1590(5)
H14_4 H 0.230112 0.333564 0.139278
C27_4 C 0.3097(8) 0.2986(9) 0.1627(5)
H15_4 H 0.331813 0.320766 0.145343
C28_4 C 0.3388(6) 0.2544(7) 0.1958(4)
H16_4 H 0.380159 0.249650 0.199987
C29_4 C 0.3731(7) 0.0839(8) 0.1873(5)
H17_4 H 0.365155 0.126127 0.175475
C30_4 C 0.3904(10) 0.0307(12) 0.1614(7)
H18_4 H 0.387223 0.034228 0.133516
C33_4 C 0.3862(7) 0.0197(8) 0.2423(5)
C34_4 C 0.3760(6) 0.0176(6) 0.2868(4)
C43_4 C 0.4736(6) 0.1916(8) 0.2447(5)
H25_4 H 0.462481 0.167293 0.221067
C44_4 C 0.5288(7) 0.2200(10) 0.2520(6)
H26_4 H 0.555264 0.213871 0.233516
C45_4 C 0.5464(6) 0.2581(10) 0.2866(5)
H27_4 H 0.584068 0.278074 0.291382
C46_4 C 0.5060(5) 0.2656(8) 0.3137(4)
H28_4 H 0.515565 0.290662 0.337259
C47_4 C 0.4502(5) 0.2338(6) 0.3042(4)
C48_4 C 0.4055(4) 0.2361(6) 0.3318(3)
C49_4 C 0.3556(4) 0.2477(6) 0.3795(3)
C50_4 C 0.3413(4) 0.2776(5) 0.4164(3)
C51_4 C 0.3542(5) 0.3421(5) 0.4668(3)
C52_4 C 0.3780(5) 0.3865(7) 0.5004(4)
C53_4 C 0.4301(8) 0.4233(10) 0.5012(6)
H29_4 H 0.450670 0.423928 0.479173
C54_4 C 0.4511(10) 0.4599(12) 0.5367(5)
H30_4 H 0.487421 0.482685 0.539026
C55_4 C 0.4172(10) 0.4619(12) 0.5683(5)
H31_4 H 0.428127 0.488842 0.590935
C56_4 C 0.3650(7) 0.4206(8) 0.5642(5)
H32_4 H 0.342973 0.419724 0.585526
C57_4 C 0.2462(6) 0.3597(8) 0.6107(5)
H33_4 H 0.236700 0.402732 0.600502
C58_4 C 0.2436(7) 0.3481(8) 0.6502(5)
H34_4 H 0.233060 0.382959 0.666409
C59_4 C 0.2562(8) 0.2858(10) 0.6662(5)
H35_4 H 0.255693 0.278320 0.693512
C60_4 C 0.2698(7) 0.2337(9) 0.6418(4)
H36_4 H 0.276355 0.190092 0.651902
C61_4 C 0.2735(5) 0.2488(7) 0.6012(4)
C62_4 C 0.2860(5) 0.1999(7) 0.5705(4)
C63_4 C 0.2997(5) 0.1128(6) 0.5381(4)
C64_4 C 0.3129(5) 0.0408(6) 0.5325(4)
C71_4 C 0.2228(7) 0.4794(8) 0.5221(5)
H41_4 H 0.261813 0.490844 0.533052
C72_2 C 0.1813(8) 0.5308(7) 0.5149(6)
H42_2 H 0.192318 0.575260 0.521235
C73_4 C 0.1237(8) 0.5157(7) 0.4982(6)
H43_4 H 0.095132 0.549742 0.493431
C74_4 C 0.1089(6) 0.4510(7) 0.4888(5)
H44_4 H 0.070065 0.439779 0.477545
C75_4 C 0.1526(5) 0.4013(6) 0.4962(4)
C76_4 C 0.1445(4) 0.3315(5) 0.4835(3)
C77_4 C 0.1129(4) 0.2389(5) 0.4594(3)
C78_4 C 0.0675(4) 0.1890(5) 0.4408(3)
C85_4 C 0.1803(7) 0.2319(7) 0.3704(5)
H49_4 H 0.196649 0.267633 0.388106
H50_4 H 0.192824 0.237651 0.344466
H51_4 H 0.137427 0.233141 0.367499
C86_4 C 0.1639(6) 0.0590(8) 0.4826(5)
H52_4 H 0.155055 0.100269 0.495627
H53_4 H 0.127215 0.035978 0.472688
H54_4 H 0.188380 0.030622 0.501528
C87_4 C 0.3702(7) 0.1062(8) 0.4383(6)
H55_4 H 0.385163 0.061500 0.444773
H56_4 H 0.390833 0.125567 0.418020
H57_4 H 0.376613 0.133884 0.462162
H60_4 H 0.195238 0.002993 0.318145
Co11_4 Co 0.21678(19) 0.06897(16) 0.81611(9)
Cl15_4 Cl 0.2677(4) 0.5692(5) 0.3358(4)
Cl17_4 Cl 0.1141(8) 0.0658(10) 0.8398(6)
Cl18_4 Cl 0.2803(8) 0.0420(8) 0.8756(3)
O5_4 O 0.4248(15) 0.3981(18) 0.3237(10)
N49_4 N 0.4679(17) 0.438(2) 0.2679(12)
C89_4 C 0.468(2) 0.425(3) 0.3094(18)
H61_4 H 0.502053 0.437910 0.327231
C90_4 C 0.515(4) 0.464(6) 0.247(3)
C91_4 C 0.428(2) 0.394(3) 0.2421(15)
H62_4 H 0.449710 0.355761 0.234070
H63_4 H 0.396745 0.378144 0.256455
H64_4 H 0.410371 0.418420 0.218542
H65_2 H 0.528337 0.514049 0.258603
H66_4 H 0.498613 0.467358 0.214799
H67_4 H 0.553371 0.430091 0.251925
Cd1_4 Cd 0.06851(4) 0.77126(4) 0.42138(3)
Co6_4 Co 0.33704(7) 0.84941(8) 0.48504(6)
Co10_4 Co 0.3183(2) 0.9883(4) 0.73787(16)
Cl6_4 Cl 0.05320(19) 0.6919(2) 0.36645(12)
Cl7_4 Cl 0.10528(13) 0.70674(17) 0.48770(10)
Cl9_4 Cl 0.0406(5) 0.6390(6) 0.5642(4)
Cl12_4 Cl 0.3363(8) 0.8641(12) 0.7507(6)
Cl13_4 Cl 0.2158(3) 0.9792(4) 0.76860(18)
N1_4 N 0.3079(4) 0.7452(5) 0.4679(3)
N2_4 N 0.1634(4) 0.8213(4) 0.4290(3)
N3_4 N 0.2523(4) 0.8613(4) 0.4529(3)
N4_4 N 0.2165(4) 0.9158(4) 0.4398(3)
N5_4 N 0.0630(4) 0.8788(4) 0.3925(3)
N6_4 N 0.0966(3) 0.9853(4) 0.3962(3)
N7_4 N 0.0390(4) 0.9850(4) 0.3763(3)
N18_4 N 0.3930(5) 0.9701(5) 0.3152(3)
N21_4 N 0.4204(4) 0.9107(5) 0.3897(4)
N22_4 N 0.3378(4) 0.9516(4) 0.4112(3)
N23_4 N 0.3640(4) 0.9047(5) 0.4388(3)
N24_4 N 0.4307(4) 0.8197(5) 0.4847(4)
N39_4 N 0.3222(4) 0.9396(5) 0.5123(4)
N40_4 N 0.3409(5) 0.8225(5) 0.5495(3)
C1_4 C 0.3390(7) 0.6879(7) 0.4708(5)
H1_4 H 0.379015 0.689510 0.482395
C2_4 C 0.3151(8) 0.6256(7) 0.4573(6)
H2_4 H 0.338259 0.586524 0.459640
C3_4 C 0.2574(7) 0.6242(7) 0.4409(6)
H3_4 H 0.240132 0.582973 0.432480
C4_4 C 0.2229(6) 0.6815(6) 0.4360(4)
H4_4 H 0.183225 0.680209 0.423729
C5_4 C 0.2495(5) 0.7406(5) 0.4500(4)
C6_4 C 0.2189(5) 0.8070(5) 0.4455(3)
C7_4 C 0.1639(4) 0.8888(5) 0.4256(3)
C8_4 C 0.1092(5) 0.9210(5) 0.4055(3)
C9_4 C 0.0212(5) 0.9211(6) 0.3749(3)
C31_4 C 0.4111(11) 0.9767(14) 0.1821(7)
H19_4 H 0.429244 0.942894 0.168934
C32_4 C 0.4070(9) 0.9685(11) 0.2220(6)
H20_4 H 0.418552 0.928037 0.235053
C35_4 C 0.3654(5) 0.9926(6) 0.3457(4)
C36_4 C 0.3717(4) 0.9536(5) 0.3826(4)
C37_4 C 0.4119(5) 0.8808(6) 0.4252(5)
C38_4 C 0.4527(6) 0.8380(6) 0.4502(6)
C39_4 C 0.5105(7) 0.8187(9) 0.4453(7)
H21_4 H 0.525330 0.831036 0.421900
C40_4 C 0.5453(8) 0.7828(11) 0.4735(7)
H22_4 H 0.584414 0.771788 0.470498
C41_4 C 0.5216(8) 0.7624(9) 0.5073(8)
H23_4 H 0.544110 0.734849 0.526272
C42_4 C 0.4638(6) 0.7827(8) 0.5136(6)
H24_4 H 0.448978 0.770850 0.537037
C65_4 C 0.3337(5) 0.9403(6) 0.5522(4)
C66_4 C 0.3398(5) 0.8761(7) 0.5730(5)
C67_4 C 0.3410(6) 0.8722(7) 0.6145(4)
H37_4 H 0.340055 0.911356 0.629738
C68_4 C 0.3436(10) 0.8090(11) 0.6330(6)
H38_4 H 0.346247 0.804875 0.660828
C69_4 C 0.3420(8) 0.7521(9) 0.6082(6)
H39_4 H 0.341276 0.708808 0.619012
C70_4 C 0.3414(7) 0.7617(7) 0.5661(5)
H40_4 H 0.341362 0.723857 0.549590
C88_4 C 0.2061(7) 0.9819(7) 0.3440(5)
H58_4 H 0.241393 0.955044 0.343789
H59_4 H 0.173874 0.953506 0.349681
Co5_4 Co 0.97438(6) 0.05650(7) 0.35914(5)
Cl2_4 Cl 0.9679(6) 0.1838(8) 0.1789(4)
N9_4 N 0.9174(4) 0.1202(5) 0.3140(3)
N41_4 N 0.9066(4) 0.0698(5) 0.4003(3)
C15_4 C 0.8590(6) 0.1350(9) 0.3126(5)
H9_4 H 0.837138 0.111355 0.329427
C16_4 C 0.8304(7) 0.1829(12) 0.2877(7)
H10_4 H 0.789749 0.191139 0.287218
C17_4 C 0.8637(7) 0.2199(9) 0.2627(5)
H11_4 H 0.845802 0.253976 0.245962
C18_4 C 0.9235(6) 0.2042(9) 0.2636(5)
H12_4 H 0.946105 0.226581 0.246627
C19_4 C 0.9486(5) 0.1570(6) 0.2889(4)
C79_4 C 0.9825(4) 0.1450(6) 0.4285(3)
C80_4 C 0.9214(4) 0.1195(6) 0.4282(4)
C81_4 C 0.8825(5) 0.1412(8) 0.4528(4)
H45_4 H 0.891942 0.177517 0.470193
C82_4 C 0.8290(6) 0.1081(9) 0.4511(5)
H46_4 H 0.802849 0.120144 0.468886
C83_4 C 0.8139(6) 0.0593(9) 0.4246(5)
H47_4 H 0.776483 0.038927 0.422448
C84_4 C 0.8539(5) 0.0396(7) 0.4008(4)
H48_4 H 0.844168 0.002792 0.383818
Cl8_4 Cl 0.97133(16) 0.79532(19) 0.44851(12)
N8_4 N 0.9313(4) 0.9623(5) 0.3378(3)
C10_4 C 0.9627(5) 0.9056(6) 0.3515(4)
C11_4 C 0.9419(6) 0.8414(7) 0.3421(4)
H5_4 H 0.965402 0.804115 0.350825
C12_4 C 0.8857(6) 0.8323(8) 0.3197(5)
H6_4 H 0.869497 0.789392 0.314599
C13_4 C 0.8543(6) 0.8912(9) 0.3051(5)
H7_4 H 0.817091 0.886898 0.289159
C14_4 C 0.8770(5) 0.9531(7) 0.3136(4)
H8_4 H 0.855523 0.990703 0.302881
H65_3 H 0.0283367 0.985951 0.758603
C72_3 C 0.6813(8) 0.9692(7) 0.0149(6)
H42_3 H 0.692318 0.924740 0.021235
C72_4 C 0.3187(8) 0.0308(7) 0.9851(6)
H42_4 H 0.307682 0.075260 0.978765
H65_4 H 0.971663 0.0140486 0.241397
loop_
_geom_bond_atom_site_label_1
_geom_bond_atom_site_label_2
_geom_bond_site_symmetry_1
_geom_bond_site_symmetry_2
H23 C41 1_555 1_555
H21 C39 1_555 1_555
C40 C39 1_555 1_555
H22 C40 1_555 1_555
H26 C44 1_555 1_555
C45 C44 1_555 1_555
H27 C45 1_555 1_555
C46 C45 1_555 1_555
H28 C46 1_555 1_555
C90 H67 1_555 1_555
Cd5 Cl10 1_555 1_555
Co10 Cl11 1_555 1_555
Cl9 Cd2 1_555 1_555
Cl11 Cd5 1_555 1_555
Cl12 Co10 1_555 1_555
Cl13 Co10 1_555 1_555
N32 Co8 1_555 1_555
N33 Co8 1_555 1_555
N34 Cd5 1_555 1_555
N35 Co8 1_555 1_555
N37 Cd5 1_555 1_555
N48 Co8 1_555 1_555
H24 C42 1_555 1_555
C52 N32 1_555 1_555
C53 C52 1_555 1_555
C54 C53 1_555 1_555
H30 C54 1_555 1_555
C55 C54 1_555 1_555
H31 C55 1_555 1_555
C56 N32 1_555 1_555
H32 C56 1_555 1_555
C57 N33 1_555 1_555
H33 C57 1_555 1_555
C58 C57 1_555 1_555
H34 C58 1_555 1_555
C59 C58 1_555 1_555
H35 C59 1_555 1_555
C60 C59 1_555 1_555
H36 C60 1_555 1_555
C61 N33 1_555 1_555
C62 N34 1_555 1_555
C63 N34 1_555 1_555
C64 N37 1_555 1_555
C65 N37 1_555 1_555
C66 N40 1_555 1_555
C67 C66 1_555 1_555
H37 C67 1_555 1_555
C68 C67 1_555 1_555
H38 C68 1_555 1_555
C69 C68 1_555 1_555
H39 C69 1_555 1_555
C70 N40 1_555 1_555
H40 C70 1_555 1_555
C71 N48 1_555 1_555
H41 C71 1_555 1_555
Co11 Cl13 1_555 1_555
Cl16 Cd5 1_555 1_555
Cl17 Co11 1_555 1_555
Cl18 Co11 1_555 1_555
N50 Cd2 1_555 1_555
N51 Cd2 1_555 1_555
N35 N36 1_555 1_555
N35 C62 1_555 1_555
N36 C63 1_555 1_555
N39 C65 1_555 1_555
C55 C56 1_555 1_555
C60 C61 1_555 1_555
C61 C62 1_555 1_555
C63 C64 1_555 1_555
C65 C66 1_555 1_555
C69 C70 1_555 1_555
Cd1 Cl6 1_555 1_555
Cd4 Cl1 1_555 1_555
Co1 O1 1_555 1_555
Co2 O2 1_555 1_555
Co3 O1 1_555 1_555
Co4 O1 1_555 1_555
Co5 N7 1_555 1_555
Co6 N1 1_555 1_555
Co7 N15 1_555 1_555
Cl1 Co12 1_555 1_555
Cl2 Cd4 1_555 1_555
Cl3 Cd4 1_555 1_555
Cl5 Cd3 1_555 1_555
Cl7 Cd1 1_555 1_555
Cl8 Cd1 1_555 1_555
O1 C85 1_555 1_555
O2 Co1 1_555 1_555
O3 Co2 1_555 1_555
O4 Co1 1_555 1_555
N1 C1 1_555 1_555
N2 Cd1 1_555 1_555
N3 Co6 1_555 1_555
N4 Co2 1_555 1_555
N5 Cd1 1_555 1_555
N6 Co1 1_555 1_555
N7 N6 1_555 1_555
N8 Co5 1_555 1_555
N9 Co5 1_555 1_555
N10 Cd4 1_555 1_555
N11 Co5 1_555 1_555
N12 Co1 1_555 1_555
N13 Cd4 1_555 1_555
N14 Co3 1_555 1_555
N15 N14 1_555 1_555
N16 Co7 1_555 1_555
N17 Co7 1_555 1_555
N18 C34 1_555 1_555
N19 Co7 1_555 1_555
N20 Co3 1_555 1_555
N21 C36 1_555 1_555
N22 Co2 1_555 1_555
N23 Co6 1_555 1_555
N24 Co6 1_555 1_555
N25 Co7 1_555 1_555
N26 Cd3 1_555 1_555
N27 Co7 1_555 1_555
N28 Co3 1_555 1_555
N29 Cd3 1_555 1_555
N30 Co4 1_555 1_555
N31 N30 1_555 1_555
N38 Co2 1_555 1_555
N41 Co5 1_555 1_555
N42 C78 1_555 1_555
N43 Co5 1_555 1_555
N44 Co1 1_555 1_555
N45 C76 1_555 1_555
N46 Co4 1_555 1_555
C1 H1 1_555 1_555
C2 C1 1_555 1_555
H2 C2 1_555 1_555
C3 C2 1_555 1_555
H3 C3 1_555 1_555
C4 C3 1_555 1_555
H4 C4 1_555 1_555
C5 N1 1_555 1_555
C6 N2 1_555 1_555
C7 N2 1_555 1_555
C8 N5 1_555 1_555
C9 N5 1_555 1_555
C10 N8 1_555 1_555
C11 C10 1_555 1_555
H5 C11 1_555 1_555
C12 C11 1_555 1_555
H6 C12 1_555 1_555
C13 C12 1_555 1_555
H7 C13 1_555 1_555
C14 N8 1_555 1_555
H8 C14 1_555 1_555
C15 N9 1_555 1_555
H9 C15 1_555 1_555
C16 C15 1_555 1_555
H10 C16 1_555 1_555
C17 C16 1_555 1_555
H11 C17 1_555 1_555
C18 C17 1_555 1_555
H12 C18 1_555 1_555
C19 N9 1_555 1_555
C20 N10 1_555 1_555
C21 N10 1_555 1_555
C22 N13 1_555 1_555
C23 N13 1_555 1_555
C24 N16 1_555 1_555
C25 C24 1_555 1_555
H13 C25 1_555 1_555
C26 C25 1_555 1_555
H14 C26 1_555 1_555
C27 C26 1_555 1_555
H15 C27 1_555 1_555
C28 N16 1_555 1_555
H16 C28 1_555 1_555
C29 N17 1_555 1_555
H17 C29 1_555 1_555
C30 C29 1_555 1_555
H18 C30 1_555 1_555
C31 C30 1_555 1_555
H19 C31 1_555 1_555
C32 C31 1_555 1_555
H20 C32 1_555 1_555
C33 N17 1_555 1_555
C34 N19 1_555 1_555
C35 N18 1_555 1_555
C36 N22 1_555 1_555
C37 N21 1_555 1_555
C38 N24 1_555 1_555
C43 N25 1_555 1_555
H25 C43 1_555 1_555
C47 N25 1_555 1_555
C48 N26 1_555 1_555
C49 N26 1_555 1_555
C50 N29 1_555 1_555
C51 N29 1_555 1_555
H44 C74 1_555 1_555
C76 N47 1_555 1_555
C77 N45 1_555 1_555
C78 N44 1_555 1_555
C79 N42 1_555 1_555
C80 N41 1_555 1_555
C81 C80 1_555 1_555
H45 C81 1_555 1_555
C82 C81 1_555 1_555
H46 C82 1_555 1_555
C83 C82 1_555 1_555
H47 C83 1_555 1_555
C84 N41 1_555 1_555
H48 C84 1_555 1_555
C85 H49 1_555 1_555
H50 C85 1_555 1_555
H51 C85 1_555 1_555
C86 O2 1_555 1_555
H52 C86 1_555 1_555
H53 C86 1_555 1_555
C87 O3 1_555 1_555
H55 C87 1_555 1_555
H56 C87 1_555 1_555
H57 C87 1_555 1_555
C88 O4 1_555 1_555
H58 C88 1_555 1_555
H59 C88 1_555 1_555
H60 C88 1_555 1_555
Cd6 N18 1_555 1_555
Cl14 Cd4 1_555 1_555
O5 Cd3 1_555 1_555
N49 C89 1_555 1_555
C89 O5 1_555 1_555
C91 N49 1_555 1_555
H62 C91 1_555 1_555
H63 C91 1_555 1_555
H64 C91 1_555 1_555
Cd7 N42 1_555 1_555
Cl20 Cd6 1_555 1_555
Cd8 Cl3 1_555 1_555
Cl22 Cd6 1_555 1_555
Co2 O4 1_555 1_555
Co3 O3 1_555 1_555
Co3 O4 1_555 1_555
Co4 O2 1_555 1_555
Co4 O3 1_555 1_555
N3 N4 1_555 1_555
N3 C6 1_555 1_555
N4 C7 1_555 1_555
N6 C8 1_555 1_555
N7 C9 1_555 1_555
N11 N12 1_555 1_555
N11 C20 1_555 1_555
N12 C21 1_555 1_555
N14 C22 1_555 1_555
N15 C23 1_555 1_555
N19 N20 1_555 1_555
N20 C35 1_555 1_555
N21 Cd6 1_555 1_555
N22 N23 1_555 1_555
N23 C37 1_555 1_555
N27 N28 1_555 1_555
N27 C48 1_555 1_555
N28 C49 1_555 1_555
N30 C50 1_555 1_555
N31 C51 1_555 1_555
N43 N44 1_555 1_555
N43 C79 1_555 1_555
N45 Cd7 1_555 1_555
N46 N47 1_555 1_555
N46 C77 1_555 1_555
C4 C5 1_555 1_555
C5 C6 1_555 1_555
C7 C8 1_555 1_555
C9 C10 1_555 1_555
C13 C14 1_555 1_555
C18 C19 1_555 1_555
C19 C20 1_555 1_555
C21 C22 1_555 1_555
C23 C24 1_555 1_555
C27 C28 1_555 1_555
C32 C33 1_555 1_555
C33 C34 1_555 1_555
C35 C36 1_555 1_555
C37 C38 1_555 1_555
C47 C48 1_555 1_555
C49 C50 1_555 1_555
C74 C75 1_555 1_555
C75 C76 1_555 1_555
C77 C78 1_555 1_555
C79 C80 1_555 1_555
C83 C84 1_555 1_555
Cl14 Cd8 1_555 1_555
H43 C73 1_555 1_555
Cl15 Co9 1_555 1_555
Cl19 Co9 1_555 1_555
C10_2 N8_2 1_555 1_555
C11_2 C10_2 1_555 1_555
H5_2 C11_2 1_555 1_555
C12_2 C11_2 1_555 1_555
H6_2 C12_2 1_555 1_555
C13_2 C12_2 1_555 1_555
H7_2 C13_2 1_555 1_555
C14_2 N8_2 1_555 1_555
H8_2 C14_2 1_555 1_555
C13_2 C14_2 1_555 1_555
N9_2 Co5_2 1_555 1_555
N41_2 Co5_2 1_555 1_555
C15_2 N9_2 1_555 1_555
H9_2 C15_2 1_555 1_555
C16_2 C15_2 1_555 1_555
H10_2 C16_2 1_555 1_555
C17_2 C16_2 1_555 1_555
H11_2 C17_2 1_555 1_555
C18_2 C17_2 1_555 1_555
H12_2 C18_2 1_555 1_555
C19_2 N9_2 1_555 1_555
C80_2 N41_2 1_555 1_555
C81_2 C80_2 1_555 1_555
H45_2 C81_2 1_555 1_555
C82_2 C81_2 1_555 1_555
H46_2 C82_2 1_555 1_555
C83_2 C82_2 1_555 1_555
H47_2 C83_2 1_555 1_555
C84_2 N41_2 1_555 1_555
H48_2 C84_2 1_555 1_555
C18_2 C19_2 1_555 1_555
C79_2 C80_2 1_555 1_555
C83_2 C84_2 1_555 1_555
Cd1_2 Cl6_2 1_555 1_555
Cd2_2 Cl7_2 1_555 1_555
Co6_2 N1_2 1_555 1_555
Cl7_2 Cd1_2 1_555 1_555
Cl9_2 Cd2_2 1_555 1_555
Cl12_2 Co10_2 1_555 1_555
Cl13_2 Co10_2 1_555 1_555
N1_2 C1_2 1_555 1_555
N2_2 Cd1_2 1_555 1_555
N3_2 Co6_2 1_555 1_555
N5_2 Cd1_2 1_555 1_555
N7_2 N6_2 1_555 1_555
N21_2 C36_2 1_555 1_555
N23_2 Co6_2 1_555 1_555
N24_2 Co6_2 1_555 1_555
N39_2 Co6_2 1_555 1_555
N40_2 Co6_2 1_555 1_555
C1_2 H1_2 1_555 1_555
C2_2 C1_2 1_555 1_555
H2_2 C2_2 1_555 1_555
C3_2 C2_2 1_555 1_555
H3_2 C3_2 1_555 1_555
C4_2 C3_2 1_555 1_555
H4_2 C4_2 1_555 1_555
C5_2 N1_2 1_555 1_555
C6_2 N2_2 1_555 1_555
C7_2 N2_2 1_555 1_555
C8_2 N5_2 1_555 1_555
C9_2 N5_2 1_555 1_555
H19_2 C31_2 1_555 1_555
C32_2 C31_2 1_555 1_555
H20_2 C32_2 1_555 1_555
C35_2 N18_2 1_555 1_555
C36_2 N22_2 1_555 1_555
C37_2 N21_2 1_555 1_555
C38_2 N24_2 1_555 1_555
C39_2 C38_2 1_555 1_555
H21_2 C39_2 1_555 1_555
C40_2 C39_2 1_555 1_555
H22_2 C40_2 1_555 1_555
C41_2 C40_2 1_555 1_555
H23_2 C41_2 1_555 1_555
C42_2 N24_2 1_555 1_555
H24_2 C42_2 1_555 1_555
C66_2 N40_2 1_555 1_555
C67_2 C66_2 1_555 1_555
H37_2 C67_2 1_555 1_555
C68_2 C67_2 1_555 1_555
H38_2 C68_2 1_555 1_555
C69_2 C68_2 1_555 1_555
H39_2 C69_2 1_555 1_555
C70_2 N40_2 1_555 1_555
H40_2 C70_2 1_555 1_555
H58_2 C88_2 1_555 1_555
H59_2 C88_2 1_555 1_555
Cd8 N18_2 1_555 1_555
Cl21_2 Cd8 1_555 1_555
N3_2 N4_2 1_555 1_555
N3_2 C6_2 1_555 1_555
N4_2 C7_2 1_555 1_555
N6_2 C8_2 1_555 1_555
N7_2 C9_2 1_555 1_555
N21_2 Cd8 1_555 1_555
N22_2 N23_2 1_555 1_555
N23_2 C37_2 1_555 1_555
N39_2 C65_2 1_555 1_555
C4_2 C5_2 1_555 1_555
C5_2 C6_2 1_555 1_555
C7_2 C8_2 1_555 1_555
C35_2 C36_2 1_555 1_555
C37_2 C38_2 1_555 1_555
C41_2 C42_2 1_555 1_555
C65_2 C66_2 1_555 1_555
C69_2 C70_2 1_555 1_555
Cd3_2 Cl4_2 1_555 1_555
Cd4_2 Cl19 1_555 1_555
Cd5_2 Cl10_2 1_555 1_555
Co1_2 O1_2 1_555 1_555
Co2_2 O2_2 1_555 1_555
Co3_2 O1_2 1_555 1_555
Co4_2 O1_2 1_555 1_555
Co7_2 N15_2 1_555 1_555
Co8_2 N31_2 1_555 1_555
Co12 Cl5_2 1_555 1_555
Cl20 Cd4_2 1_555 1_555
Cl5_2 Cd3_2 1_555 1_555
Cl10_2 Cd9_2 1_555 1_555
Cl11_2 Cd5_2 1_555 1_555
O1_2 C85_2 1_555 1_555
O2_2 Co1_2 1_555 1_555
O3_2 Co2_2 1_555 1_555
O4_2 Co1_2 1_555 1_555
N10_2 Cd4_2 1_555 1_555
N12_2 Co1_2 1_555 1_555
N13_2 Cd4_2 1_555 1_555
N14_2 Co3_2 1_555 1_555
N15_2 N14_2 1_555 1_555
N16_2 Co7_2 1_555 1_555
N17_2 Co7_2 1_555 1_555
N19_2 Co7_2 1_555 1_555
N20_2 Co3_2 1_555 1_555
N25_2 Co7_2 1_555 1_555
N26_2 Cd3_2 1_555 1_555
N27_2 Co7_2 1_555 1_555
N28_2 Co3_2 1_555 1_555
N29_2 Cd3_2 1_555 1_555
N30_2 Co4_2 1_555 1_555
N31_2 N30_2 1_555 1_555
N32_2 Co8_2 1_555 1_555
N33_2 Co8_2 1_555 1_555
N34_2 Cd5_2 1_555 1_555
N35_2 Co8_2 1_555 1_555
N36_2 Co4_2 1_555 1_555
N37_2 Cd5_2 1_555 1_555
N38_2 Co2_2 1_555 1_555
N42_2 C78_2 1_555 1_555
N44_2 Co1_2 1_555 1_555
N45_2 C76_2 1_555 1_555
N46_2 Co4_2 1_555 1_555
N47_2 Co8_2 1_555 1_555
N48_2 Co8_2 1_555 1_555
C20_2 N10_2 1_555 1_555
C21_2 N10_2 1_555 1_555
C22_2 N13_2 1_555 1_555
C23_2 N13_2 1_555 1_555
C24_2 N16_2 1_555 1_555
C25_2 C24_2 1_555 1_555
H13_2 C25_2 1_555 1_555
C26_2 C25_2 1_555 1_555
H14_2 C26_2 1_555 1_555
C27_2 C26_2 1_555 1_555
H15_2 C27_2 1_555 1_555
C28_2 N16_2 1_555 1_555
H16_2 C28_2 1_555 1_555
C29_2 N17_2 1_555 1_555
H17_2 C29_2 1_555 1_555
C30_2 C29_2 1_555 1_555
H18_2 C30_2 1_555 1_555
C33_2 N17_2 1_555 1_555
C34_2 N19_2 1_555 1_555
C43_2 N25_2 1_555 1_555
H25_2 C43_2 1_555 1_555
C44_2 C43_2 1_555 1_555
H26_2 C44_2 1_555 1_555
C45_2 C44_2 1_555 1_555
H27_2 C45_2 1_555 1_555
C46_2 C45_2 1_555 1_555
H28_2 C46_2 1_555 1_555
C47_2 N25_2 1_555 1_555
C48_2 N26_2 1_555 1_555
C49_2 N26_2 1_555 1_555
C50_2 N29_2 1_555 1_555
C51_2 N29_2 1_555 1_555
C52_2 N32_2 1_555 1_555
C53_2 C52_2 1_555 1_555
H29_2 C53_2 1_555 1_555
C54_2 C53_2 1_555 1_555
H30_2 C54_2 1_555 1_555
C55_2 C54_2 1_555 1_555
H31_2 C55_2 1_555 1_555
C56_2 N32_2 1_555 1_555
H32_2 C56_2 1_555 1_555
C57_2 N33_2 1_555 1_555
H33_2 C57_2 1_555 1_555
C58_2 C57_2 1_555 1_555
H34_2 C58_2 1_555 1_555
C59_2 C58_2 1_555 1_555
H35_2 C59_2 1_555 1_555
C60_2 C59_2 1_555 1_555
H36_2 C60_2 1_555 1_555
C61_2 N33_2 1_555 1_555
C62_2 N34_2 1_555 1_555
C63_2 N34_2 1_555 1_555
C64_2 N37_2 1_555 1_555
C71_2 N48_2 1_555 1_555
H41_2 C71_2 1_555 1_555
C72 C71_2 1_555 1_555
H42 C72 1_555 1_555
C73_2 C72 1_555 1_555
H43_2 C73_2 1_555 1_555
C74_2 C73_2 1_555 1_555
H44_2 C74_2 1_555 1_555
C75_2 N48_2 1_555 1_555
C76_2 N47_2 1_555 1_555
C77_2 N45_2 1_555 1_555
C78_2 N44_2 1_555 1_555
C85_2 H49_2 1_555 1_555
H50_2 C85_2 1_555 1_555
H51_2 C85_2 1_555 1_555
C86_2 O2_2 1_555 1_555
H52_2 C86_2 1_555 1_555
H53_2 C86_2 1_555 1_555
H54_2 C86_2 1_555 1_555
C87_2 O3_2 1_555 1_555
H55_2 C87_2 1_555 1_555
H56_2 C87_2 1_555 1_555
H57_2 C87_2 1_555 1_555
Cl22 Cd4_2 1_555 1_555
Cl15_2 Co12 1_555 1_555
Cl17_2 Co11_2 1_555 1_555
Cl18_2 Co11_2 1_555 1_555
O5_2 Cd3_2 1_555 1_555
N49_2 C89_2 1_555 1_555
C89_2 O5_2 1_555 1_555
H61_2 C89_2 1_555 1_555
C90_2 N49_2 1_555 1_555
C91_2 N49_2 1_555 1_555
H62_2 C91_2 1_555 1_555
H63_2 C91_2 1_555 1_555
H64_2 C91_2 1_555 1_555
Co2_2 O4_2 1_555 1_555
Co3_2 O3_2 1_555 1_555
Co3_2 O4_2 1_555 1_555
Co4_2 O2_2 1_555 1_555
Co4_2 O3_2 1_555 1_555
N11_2 N12_2 1_555 1_555
N11_2 C20_2 1_555 1_555
N12_2 C21_2 1_555 1_555
N14_2 C22_2 1_555 1_555
N15_2 C23_2 1_555 1_555
N19_2 N20_2 1_555 1_555
N27_2 N28_2 1_555 1_555
N27_2 C48_2 1_555 1_555
N28_2 C49_2 1_555 1_555
N30_2 C50_2 1_555 1_555
N31_2 C51_2 1_555 1_555
N35_2 N36_2 1_555 1_555
N35_2 C62_2 1_555 1_555
N36_2 C63_2 1_555 1_555
N38_2 C64_2 1_555 1_555
N43_2 N44_2 1_555 1_555
N46_2 N47_2 1_555 1_555
N46_2 C77_2 1_555 1_555
C21_2 C22_2 1_555 1_555
C23_2 C24_2 1_555 1_555
C27_2 C28_2 1_555 1_555
C33_2 C34_2 1_555 1_555
C46_2 C47_2 1_555 1_555
C47_2 C48_2 1_555 1_555
C49_2 C50_2 1_555 1_555
C51_2 C52_2 1_555 1_555
C55_2 C56_2 1_555 1_555
C60_2 C61_2 1_555 1_555
C61_2 C62_2 1_555 1_555
C63_2 C64_2 1_555 1_555
C74_2 C75_2 1_555 1_555
C75_2 C76_2 1_555 1_555
C77_2 C78_2 1_555 1_555
C90_2 H65 1_555 1_555
C90_2 H66_2 1_555 1_555
C90_2 H67_2 1_555 1_555
H43_3 C73_3 1_555 1_555
Cl15_3 Co9_2 1_555 1_555
Cl19_2 Co9_2 1_555 1_555
Cd1_3 Cl6_3 1_555 1_555
Cd4_3 Cl1_2 1_555 1_555
Co1_3 O1_3 1_555 1_555
Co2_3 O2_3 1_555 1_555
Co3_3 O1_3 1_555 1_555
Co4_3 O1_3 1_555 1_555
Co5_3 N7_3 1_555 1_555
Co6_3 N1_3 1_555 1_555
Co7_3 N15_3 1_555 1_555
Cl1_2 Co12_2 1_555 1_555
Cl2_3 Cd4_3 1_555 1_555
Cl3_2 Cd4_3 1_555 1_555
Cl5_3 Cd3_3 1_555 1_555
Cl7_3 Cd1_3 1_555 1_555
Cl8_3 Cd1_3 1_555 1_555
O1_3 C85_3 1_555 1_555
O2_3 Co1_3 1_555 1_555
O3_3 Co2_3 1_555 1_555
O4_3 Co1_3 1_555 1_555
N1_3 C1_3 1_555 1_555
N2_3 Cd1_3 1_555 1_555
N3_3 Co6_3 1_555 1_555
N4_3 Co2_3 1_555 1_555
N5_3 Cd1_3 1_555 1_555
N6_3 Co1_3 1_555 1_555
N7_3 N6_3 1_555 1_555
N8_3 Co5_3 1_555 1_555
N9_3 Co5_3 1_555 1_555
N10_3 Cd4_3 1_555 1_555
N11_3 Co5_3 1_555 1_555
N12_3 Co1_3 1_555 1_555
N13_3 Cd4_3 1_555 1_555
N14_3 Co3_3 1_555 1_555
N15_3 N14_3 1_555 1_555
N16_3 Co7_3 1_555 1_555
N17_3 Co7_3 1_555 1_555
N18_3 C34_3 1_555 1_555
N19_3 Co7_3 1_555 1_555
N20_3 Co3_3 1_555 1_555
N21_3 C36_3 1_555 1_555
N22_3 Co2_3 1_555 1_555
N23_3 Co6_3 1_555 1_555
N24_3 Co6_3 1_555 1_555
N25_3 Co7_3 1_555 1_555
N26_3 Cd3_3 1_555 1_555
N27_3 Co7_3 1_555 1_555
N28_3 Co3_3 1_555 1_555
N29_3 Cd3_3 1_555 1_555
N30_3 Co4_3 1_555 1_555
N31_3 N30_3 1_555 1_555
N38_3 Co2_3 1_555 1_555
N41_3 Co5_3 1_555 1_555
N50 C78_3 1_555 1_555
N43_3 Co5_3 1_555 1_555
N44_3 Co1_3 1_555 1_555
N51 C76_3 1_555 1_555
N46_3 Co4_3 1_555 1_555
C1_3 H1_3 1_555 1_555
C2_3 C1_3 1_555 1_555
H2_3 C2_3 1_555 1_555
C3_3 C2_3 1_555 1_555
H3_3 C3_3 1_555 1_555
C4_3 C3_3 1_555 1_555
H4_3 C4_3 1_555 1_555
C5_3 N1_3 1_555 1_555
C6_3 N2_3 1_555 1_555
C7_3 N2_3 1_555 1_555
C8_3 N5_3 1_555 1_555
C9_3 N5_3 1_555 1_555
C10_3 N8_3 1_555 1_555
C11_3 C10_3 1_555 1_555
H5_3 C11_3 1_555 1_555
C12_3 C11_3 1_555 1_555
H6_3 C12_3 1_555 1_555
C13_3 C12_3 1_555 1_555
H7_3 C13_3 1_555 1_555
C14_3 N8_3 1_555 1_555
H8_3 C14_3 1_555 1_555
C15_3 N9_3 1_555 1_555
H9_3 C15_3 1_555 1_555
C16_3 C15_3 1_555 1_555
H10_3 C16_3 1_555 1_555
C17_3 C16_3 1_555 1_555
H11_3 C17_3 1_555 1_555
C18_3 C17_3 1_555 1_555
H12_3 C18_3 1_555 1_555
C19_3 N9_3 1_555 1_555
C20_3 N10_3 1_555 1_555
C21_3 N10_3 1_555 1_555
C22_3 N13_3 1_555 1_555
C23_3 N13_3 1_555 1_555
C24_3 N16_3 1_555 1_555
C25_3 C24_3 1_555 1_555
H13_3 C25_3 1_555 1_555
C26_3 C25_3 1_555 1_555
H14_3 C26_3 1_555 1_555
C27_3 C26_3 1_555 1_555
H15_3 C27_3 1_555 1_555
C28_3 N16_3 1_555 1_555
H16_3 C28_3 1_555 1_555
C29_3 N17_3 1_555 1_555
H17_3 C29_3 1_555 1_555
C30_3 C29_3 1_555 1_555
H18_3 C30_3 1_555 1_555
C31_3 C30_3 1_555 1_555
H19_3 C31_3 1_555 1_555
C32_3 C31_3 1_555 1_555
H20_3 C32_3 1_555 1_555
C33_3 N17_3 1_555 1_555
C34_3 N19_3 1_555 1_555
C35_3 N18_3 1_555 1_555
C36_3 N22_3 1_555 1_555
C37_3 N21_3 1_555 1_555
C38_3 N24_3 1_555 1_555
C43_3 N25_3 1_555 1_555
H25_3 C43_3 1_555 1_555
C47_3 N25_3 1_555 1_555
C48_3 N26_3 1_555 1_555
C49_3 N26_3 1_555 1_555
C50_3 N29_3 1_555 1_555
C51_3 N29_3 1_555 1_555
H44_3 C74_3 1_555 1_555
C76_3 N47_3 1_555 1_555
C77_3 N51 1_555 1_555
C78_3 N44_3 1_555 1_555
C79_3 N50 1_555 1_555
C80_3 N41_3 1_555 1_555
C81_3 C80_3 1_555 1_555
H45_3 C81_3 1_555 1_555
C82_3 C81_3 1_555 1_555
H46_3 C82_3 1_555 1_555
C83_3 C82_3 1_555 1_555
H47_3 C83_3 1_555 1_555
C84_3 N41_3 1_555 1_555
H48_3 C84_3 1_555 1_555
C85_3 H49_3 1_555 1_555
H50_3 C85_3 1_555 1_555
H51_3 C85_3 1_555 1_555
C86_3 O2_3 1_555 1_555
H52_3 C86_3 1_555 1_555
H53_3 C86_3 1_555 1_555
C87_3 O3_3 1_555 1_555
H55_3 C87_3 1_555 1_555
H56_3 C87_3 1_555 1_555
H57_3 C87_3 1_555 1_555
C88_3 O4_3 1_555 1_555
H58_3 C88_3 1_555 1_555
H59_3 C88_3 1_555 1_555
H60_3 C88_3 1_555 1_555
Cd9 N18_3 1_555 1_555
Cl14_2 Cd4_3 1_555 1_555
O5_3 Cd3_3 1_555 1_555
N49_3 C89_3 1_555 1_555
C89_3 O5_3 1_555 1_555
C91_3 N49_3 1_555 1_555
H62_3 C91_3 1_555 1_555
H63_3 C91_3 1_555 1_555
H64_3 C91_3 1_555 1_555
Cl20_2 Cd9 1_555 1_555
Cd9_2 Cl3_2 1_555 1_555
Cl22_2 Cd9 1_555 1_555
Co2_3 O4_3 1_555 1_555
Co3_3 O3_3 1_555 1_555
Co3_3 O4_3 1_555 1_555
Co4_3 O2_3 1_555 1_555
Co4_3 O3_3 1_555 1_555
N3_3 N4_3 1_555 1_555
N3_3 C6_3 1_555 1_555
N4_3 C7_3 1_555 1_555
N6_3 C8_3 1_555 1_555
N7_3 C9_3 1_555 1_555
N11_3 N12_3 1_555 1_555
N11_3 C20_3 1_555 1_555
N12_3 C21_3 1_555 1_555
N14_3 C22_3 1_555 1_555
N15_3 C23_3 1_555 1_555
N19_3 N20_3 1_555 1_555
N20_3 C35_3 1_555 1_555
N21_3 Cd9 1_555 1_555
N22_3 N23_3 1_555 1_555
N23_3 C37_3 1_555 1_555
N27_3 N28_3 1_555 1_555
N27_3 C48_3 1_555 1_555
N28_3 C49_3 1_555 1_555
N30_3 C50_3 1_555 1_555
N31_3 C51_3 1_555 1_555
N43_3 N44_3 1_555 1_555
N43_3 C79_3 1_555 1_555
N46_3 N47_3 1_555 1_555
N46_3 C77_3 1_555 1_555
C4_3 C5_3 1_555 1_555
C5_3 C6_3 1_555 1_555
C7_3 C8_3 1_555 1_555
C9_3 C10_3 1_555 1_555
C13_3 C14_3 1_555 1_555
C18_3 C19_3 1_555 1_555
C19_3 C20_3 1_555 1_555
C21_3 C22_3 1_555 1_555
C23_3 C24_3 1_555 1_555
C27_3 C28_3 1_555 1_555
C32_3 C33_3 1_555 1_555
C33_3 C34_3 1_555 1_555
C35_3 C36_3 1_555 1_555
C37_3 C38_3 1_555 1_555
C47_3 C48_3 1_555 1_555
C49_3 C50_3 1_555 1_555
C74_3 C75_3 1_555 1_555
C75_3 C76_3 1_555 1_555
C77_3 C78_3 1_555 1_555
C79_3 C80_3 1_555 1_555
C83_3 C84_3 1_555 1_555
Cl14_2 Cd9_2 1_555 1_555
Cd5_3 Cl21 1_555 1_555
Co10_3 Cl11_3 1_555 1_555
Cl9_3 Cd7 1_555 1_555
Cl11_3 Cd5_3 1_555 1_555
Cl12_3 Co10_3 1_555 1_555
Cl13_3 Co10_3 1_555 1_555
N32_3 Co8_3 1_555 1_555
N33_3 Co8_3 1_555 1_555
N34_3 Cd5_3 1_555 1_555
N35_3 Co8_3 1_555 1_555
N37_3 Cd5_3 1_555 1_555
N48_3 Co8_3 1_555 1_555
H24_3 C42_3 1_555 1_555
C52_3 N32_3 1_555 1_555
C53_3 C52_3 1_555 1_555
C54_3 C53_3 1_555 1_555
H30_3 C54_3 1_555 1_555
C55_3 C54_3 1_555 1_555
H31_3 C55_3 1_555 1_555
C56_3 N32_3 1_555 1_555
H32_3 C56_3 1_555 1_555
C57_3 N33_3 1_555 1_555
H33_3 C57_3 1_555 1_555
C58_3 C57_3 1_555 1_555
H34_3 C58_3 1_555 1_555
C59_3 C58_3 1_555 1_555
H35_3 C59_3 1_555 1_555
C60_3 C59_3 1_555 1_555
H36_3 C60_3 1_555 1_555
C61_3 N33_3 1_555 1_555
C62_3 N34_3 1_555 1_555
C63_3 N34_3 1_555 1_555
C64_3 N37_3 1_555 1_555
C65_3 N37_3 1_555 1_555
C66_3 N40_3 1_555 1_555
C67_3 C66_3 1_555 1_555
H37_3 C67_3 1_555 1_555
C68_3 C67_3 1_555 1_555
H38_3 C68_3 1_555 1_555
C69_3 C68_3 1_555 1_555
H39_3 C69_3 1_555 1_555
C70_3 N40_3 1_555 1_555
H40_3 C70_3 1_555 1_555
C71_3 N48_3 1_555 1_555
H41_3 C71_3 1_555 1_555
Co11_3 Cl13_3 1_555 1_555
Cl23 Cd5_3 1_555 1_555
Cl17_3 Co11_3 1_555 1_555
Cl18_3 Co11_3 1_555 1_555
N35_3 N36_3 1_555 1_555
N35_3 C62_3 1_555 1_555
N36_3 C63_3 1_555 1_555
N39_3 C65_3 1_555 1_555
C55_3 C56_3 1_555 1_555
C60_3 C61_3 1_555 1_555
C61_3 C62_3 1_555 1_555
C63_3 C64_3 1_555 1_555
C65_3 C66_3 1_555 1_555
C69_3 C70_3 1_555 1_555
H21_3 C39_3 1_555 1_555
C40_3 C39_3 1_555 1_555
H22_3 C40_3 1_555 1_555
H26_3 C44_3 1_555 1_555
C45_3 C44_3 1_555 1_555
H27_3 C45_3 1_555 1_555
C46_3 C45_3 1_555 1_555
H28_3 C46_3 1_555 1_555
C90_3 H67_3 1_555 1_555
H23_3 C41_3 1_555 1_555
Cd3_4 Cl4_4 1_555 1_555
Cd4_4 Cl19_2 1_555 1_555
Cd5_4 Cl21_2 1_555 1_555
Co1_4 O1_4 1_555 1_555
Co2_4 O2_4 1_555 1_555
Co3_4 O1_4 1_555 1_555
Co4_4 O1_4 1_555 1_555
Co7_4 N15_4 1_555 1_555
Co8_4 N31_4 1_555 1_555
Co12_2 Cl5_4 1_555 1_555
Cl20_2 Cd4_4 1_555 1_555
Cl5_4 Cd3_4 1_555 1_555
Cl11_4 Cd5_4 1_555 1_555
O1_4 C85_4 1_555 1_555
O2_4 Co1_4 1_555 1_555
O3_4 Co2_4 1_555 1_555
O4_4 Co1_4 1_555 1_555
N10_4 Cd4_4 1_555 1_555
N12_4 Co1_4 1_555 1_555
N13_4 Cd4_4 1_555 1_555
N14_4 Co3_4 1_555 1_555
N15_4 N14_4 1_555 1_555
N16_4 Co7_4 1_555 1_555
N17_4 Co7_4 1_555 1_555
N19_4 Co7_4 1_555 1_555
N20_4 Co3_4 1_555 1_555
N25_4 Co7_4 1_555 1_555
N26_4 Cd3_4 1_555 1_555
N27_4 Co7_4 1_555 1_555
N28_4 Co3_4 1_555 1_555
N29_4 Cd3_4 1_555 1_555
N30_4 Co4_4 1_555 1_555
N31_4 N30_4 1_555 1_555
N32_4 Co8_4 1_555 1_555
N33_4 Co8_4 1_555 1_555
N34_4 Cd5_4 1_555 1_555
N35_4 Co8_4 1_555 1_555
N36_4 Co4_4 1_555 1_555
N37_4 Cd5_4 1_555 1_555
N38_4 Co2_4 1_555 1_555
N50_2 C78_4 1_555 1_555
N44_4 Co1_4 1_555 1_555
N51_2 C76_4 1_555 1_555
N46_4 Co4_4 1_555 1_555
N47_4 Co8_4 1_555 1_555
N48_4 Co8_4 1_555 1_555
C20_4 N10_4 1_555 1_555
C21_4 N10_4 1_555 1_555
C22_4 N13_4 1_555 1_555
C23_4 N13_4 1_555 1_555
C24_4 N16_4 1_555 1_555
C25_4 C24_4 1_555 1_555
H13_4 C25_4 1_555 1_555
C26_4 C25_4 1_555 1_555
H14_4 C26_4 1_555 1_555
C27_4 C26_4 1_555 1_555
H15_4 C27_4 1_555 1_555
C28_4 N16_4 1_555 1_555
H16_4 C28_4 1_555 1_555
C29_4 N17_4 1_555 1_555
H17_4 C29_4 1_555 1_555
C30_4 C29_4 1_555 1_555
H18_4 C30_4 1_555 1_555
C33_4 N17_4 1_555 1_555
C34_4 N19_4 1_555 1_555
C43_4 N25_4 1_555 1_555
H25_4 C43_4 1_555 1_555
C44_4 C43_4 1_555 1_555
H26_4 C44_4 1_555 1_555
C45_4 C44_4 1_555 1_555
H27_4 C45_4 1_555 1_555
C46_4 C45_4 1_555 1_555
H28_4 C46_4 1_555 1_555
C47_4 N25_4 1_555 1_555
C48_4 N26_4 1_555 1_555
C49_4 N26_4 1_555 1_555
C50_4 N29_4 1_555 1_555
C51_4 N29_4 1_555 1_555
C52_4 N32_4 1_555 1_555
C53_4 C52_4 1_555 1_555
H29_4 C53_4 1_555 1_555
C54_4 C53_4 1_555 1_555
H30_4 C54_4 1_555 1_555
C55_4 C54_4 1_555 1_555
H31_4 C55_4 1_555 1_555
C56_4 N32_4 1_555 1_555
H32_4 C56_4 1_555 1_555
C57_4 N33_4 1_555 1_555
H33_4 C57_4 1_555 1_555
C58_4 C57_4 1_555 1_555
H34_4 C58_4 1_555 1_555
C59_4 C58_4 1_555 1_555
H35_4 C59_4 1_555 1_555
C60_4 C59_4 1_555 1_555
H36_4 C60_4 1_555 1_555
C61_4 N33_4 1_555 1_555
C62_4 N34_4 1_555 1_555
C63_4 N34_4 1_555 1_555
C64_4 N37_4 1_555 1_555
C71_4 N48_4 1_555 1_555
H41_4 C71_4 1_555 1_555
C72_2 C71_4 1_555 1_555
H42_2 C72_2 1_555 1_555
C73_4 C72_2 1_555 1_555
H43_4 C73_4 1_555 1_555
C74_4 C73_4 1_555 1_555
H44_4 C74_4 1_555 1_555
C75_4 N48_4 1_555 1_555
C76_4 N47_4 1_555 1_555
C77_4 N51_2 1_555 1_555
C78_4 N44_4 1_555 1_555
C85_4 H49_4 1_555 1_555
H50_4 C85_4 1_555 1_555
H51_4 C85_4 1_555 1_555
C86_4 O2_4 1_555 1_555
H52_4 C86_4 1_555 1_555
H53_4 C86_4 1_555 1_555
H54_4 C86_4 1_555 1_555
C87_4 O3_4 1_555 1_555
H55_4 C87_4 1_555 1_555
H56_4 C87_4 1_555 1_555
H57_4 C87_4 1_555 1_555
Cl22_2 Cd4_4 1_555 1_555
Cl15_4 Co12_2 1_555 1_555
Cl17_4 Co11_4 1_555 1_555
Cl18_4 Co11_4 1_555 1_555
O5_4 Cd3_4 1_555 1_555
N49_4 C89_4 1_555 1_555
C89_4 O5_4 1_555 1_555
H61_4 C89_4 1_555 1_555
C90_4 N49_4 1_555 1_555
C91_4 N49_4 1_555 1_555
H62_4 C91_4 1_555 1_555
H63_4 C91_4 1_555 1_555
H64_4 C91_4 1_555 1_555
Co2_4 O4_4 1_555 1_555
Co3_4 O3_4 1_555 1_555
Co3_4 O4_4 1_555 1_555
Co4_4 O2_4 1_555 1_555
Co4_4 O3_4 1_555 1_555
N11_4 N12_4 1_555 1_555
N11_4 C20_4 1_555 1_555
N12_4 C21_4 1_555 1_555
N14_4 C22_4 1_555 1_555
N15_4 C23_4 1_555 1_555
N19_4 N20_4 1_555 1_555
N27_4 N28_4 1_555 1_555
N27_4 C48_4 1_555 1_555
N28_4 C49_4 1_555 1_555
N30_4 C50_4 1_555 1_555
N31_4 C51_4 1_555 1_555
N35_4 N36_4 1_555 1_555
N35_4 C62_4 1_555 1_555
N36_4 C63_4 1_555 1_555
N38_4 C64_4 1_555 1_555
N43_4 N44_4 1_555 1_555
N46_4 N47_4 1_555 1_555
N46_4 C77_4 1_555 1_555
C21_4 C22_4 1_555 1_555
C23_4 C24_4 1_555 1_555
C27_4 C28_4 1_555 1_555
C33_4 C34_4 1_555 1_555
C46_4 C47_4 1_555 1_555
C47_4 C48_4 1_555 1_555
C49_4 C50_4 1_555 1_555
C51_4 C52_4 1_555 1_555
C55_4 C56_4 1_555 1_555
C60_4 C61_4 1_555 1_555
C61_4 C62_4 1_555 1_555
C63_4 C64_4 1_555 1_555
C74_4 C75_4 1_555 1_555
C75_4 C76_4 1_555 1_555
C77_4 C78_4 1_555 1_555
C90_4 H65_2 1_555 1_555
C90_4 H66_4 1_555 1_555
C90_4 H67_4 1_555 1_555
Cd1_4 Cl6_4 1_555 1_555
Cd7_2 Cl7_4 1_555 1_555
Co6_4 N1_4 1_555 1_555
Cl7_4 Cd1_4 1_555 1_555
Cl9_4 Cd7_2 1_555 1_555
Cl12_4 Co10_4 1_555 1_555
Cl13_4 Co10_4 1_555 1_555
N1_4 C1_4 1_555 1_555
N2_4 Cd1_4 1_555 1_555
N3_4 Co6_4 1_555 1_555
N5_4 Cd1_4 1_555 1_555
N7_4 N6_4 1_555 1_555
N21_4 C36_4 1_555 1_555
N23_4 Co6_4 1_555 1_555
N24_4 Co6_4 1_555 1_555
N39_4 Co6_4 1_555 1_555
N40_4 Co6_4 1_555 1_555
C1_4 H1_4 1_555 1_555
C2_4 C1_4 1_555 1_555
H2_4 C2_4 1_555 1_555
C3_4 C2_4 1_555 1_555
H3_4 C3_4 1_555 1_555
C4_4 C3_4 1_555 1_555
H4_4 C4_4 1_555 1_555
C5_4 N1_4 1_555 1_555
C6_4 N2_4 1_555 1_555
C7_4 N2_4 1_555 1_555
C8_4 N5_4 1_555 1_555
C9_4 N5_4 1_555 1_555
H19_4 C31_4 1_555 1_555
C32_4 C31_4 1_555 1_555
H20_4 C32_4 1_555 1_555
C35_4 N18_4 1_555 1_555
C36_4 N22_4 1_555 1_555
C37_4 N21_4 1_555 1_555
C38_4 N24_4 1_555 1_555
C39_4 C38_4 1_555 1_555
H21_4 C39_4 1_555 1_555
C40_4 C39_4 1_555 1_555
H22_4 C40_4 1_555 1_555
C41_4 C40_4 1_555 1_555
H23_4 C41_4 1_555 1_555
C42_4 N24_4 1_555 1_555
H24_4 C42_4 1_555 1_555
C66_4 N40_4 1_555 1_555
C67_4 C66_4 1_555 1_555
H37_4 C67_4 1_555 1_555
C68_4 C67_4 1_555 1_555
H38_4 C68_4 1_555 1_555
C69_4 C68_4 1_555 1_555
H39_4 C69_4 1_555 1_555
C70_4 N40_4 1_555 1_555
H40_4 C70_4 1_555 1_555
H58_4 C88_4 1_555 1_555
H59_4 C88_4 1_555 1_555
Cd9_2 N18_4 1_555 1_555
N3_4 N4_4 1_555 1_555
N3_4 C6_4 1_555 1_555
N4_4 C7_4 1_555 1_555
N6_4 C8_4 1_555 1_555
N7_4 C9_4 1_555 1_555
N21_4 Cd9_2 1_555 1_555
N22_4 N23_4 1_555 1_555
N23_4 C37_4 1_555 1_555
N39_4 C65_4 1_555 1_555
C4_4 C5_4 1_555 1_555
C5_4 C6_4 1_555 1_555
C7_4 C8_4 1_555 1_555
C35_4 C36_4 1_555 1_555
C37_4 C38_4 1_555 1_555
C41_4 C42_4 1_555 1_555
C65_4 C66_4 1_555 1_555
C69_4 C70_4 1_555 1_555
N9_4 Co5_4 1_555 1_555
N41_4 Co5_4 1_555 1_555
C15_4 N9_4 1_555 1_555
H9_4 C15_4 1_555 1_555
C16_4 C15_4 1_555 1_555
H10_4 C16_4 1_555 1_555
C17_4 C16_4 1_555 1_555
H11_4 C17_4 1_555 1_555
C18_4 C17_4 1_555 1_555
H12_4 C18_4 1_555 1_555
C19_4 N9_4 1_555 1_555
C80_4 N41_4 1_555 1_555
C81_4 C80_4 1_555 1_555
H45_4 C81_4 1_555 1_555
C82_4 C81_4 1_555 1_555
H46_4 C82_4 1_555 1_555
C83_4 C82_4 1_555 1_555
H47_4 C83_4 1_555 1_555
C84_4 N41_4 1_555 1_555
H48_4 C84_4 1_555 1_555
C18_4 C19_4 1_555 1_555
C79_4 C80_4 1_555 1_555
C83_4 C84_4 1_555 1_555
C10_4 N8_4 1_555 1_555
C11_4 C10_4 1_555 1_555
H5_4 C11_4 1_555 1_555
C12_4 C11_4 1_555 1_555
H6_4 C12_4 1_555 1_555
C13_4 C12_4 1_555 1_555
H7_4 C13_4 1_555 1_555
C14_4 N8_4 1_555 1_555
H8_4 C14_4 1_555 1_555
C13_4 C14_4 1_555 1_555
H42_3 C72_3 1_555 1_555
H42_4 C72_4 1_555 1_555

#END
