
###############################################################################
#
# This file contains modified crystal structure data generated from the
# MOF subset of the Cambridge Structural Database (CSD) v543 
# hosted by the Cambridge Crystallographic Data Centre (CCDC).
#
# This work is licensed under the Creative Commons
# Attribution-NonCommercial-ShareAlike 4.0 International License.
# To view a copy of this license, visit
# http://creativecommons.org/licenses/by-nc-sa/4.0/
# or send a letter to
# Creative Commons, PO Box 1866, Mountain View, CA 94042, USA.
#
# CIF created using the CSD Python API on 29 September 2022
# The structure has been converted into the P1 space group
# The structure has a 3D framework
# The original CSD entry NUTQAV is in the rhombohedral crystal system
# The framework has been calculated to contain at least 10.0% void space
# The void calculation uses a probe of radius 1.32A, grid spacing 0.4
# H atom positions have been added when not included in the experimental data
# Generated hydrogen atom positions removed from atoms on special positions
#
###############################################################################

data_NUTQAV
_chemical_formula_moiety         '(C162 H126 Cu18 O90)n'
_symmetry_cell_setting           triclinic
_symmetry_space_group_name_H-M   'P 1'
_symmetry_Int_Tables_number      1
_space_group_name_Hall           'P 1'
loop_
_symmetry_equiv_pos_site_id
_symmetry_equiv_pos_as_xyz
1 x,y,z
_cell_length_a                   18.837(8)
_cell_length_b                   18.837(8)
_cell_length_c                   32.120(18)
_cell_angle_alpha                90
_cell_angle_beta                 90
_cell_angle_gamma                120
_cell_volume                     9870.28
loop_
_atom_site_label
_atom_site_type_symbol
_atom_site_fract_x
_atom_site_fract_y
_atom_site_fract_z
Cu5 Cu 0.37831(2) 0.189156(12) 0.201396(12)
Cu6 Cu 0.28835(2) 0.144176(23) 0.131938(12)
Cu7 Cu 0.522489(12) 0.04498(2) 0.465271(12)
O5 O 0.29921(11) 0.07661(12) 0.21757(6)
O10 O 0.22251(11) 0.03914(11) 0.15966(6)
C17 C 0.23897(16) 0.02629(17) 0.19566(9)
O1 O 0.03412(11) 0.59006(12) 0.44910(6)
O2 O 0.11082(11) 0.62753(11) 0.50701(6)
C1 C 0.1738(2) 0.8262(2) 0.35011(16)
C2 C 0.22499(13) 0.77501(13) 0.47028(12)
H1 H 0.2364 0.7636 0.4971
C3 C 0.15297(17) 0.71960(17) 0.45075(9)
C4 C 0.19051(16) 0.80949(16) 0.39104(15)
C5 C 0.13502(19) 0.73630(19) 0.41130(9)
H2 H 0.0858 0.6987 0.3981
C6 C 0.09436(16) 0.64038(17) 0.47101(9)
Cu3 Cu 0.04498(2) 0.522491(23) 0.534729(12)
Cu8 Cu 0.477509(23) 0.95502(2) 0.534729(12)
O6 O 0.40994(12) 0.96588(11) 0.44910(6)
O7 O 0.03412(11) 0.44406(16) 0.44910(6)
O11 O 0.37247(11) 0.88918(11) 0.50701(6)
C7 C 0.1595(2) 0.8405(2) 0.31656(16)
C8 C 0.10834(13) 0.89166(13) 0.19639(12)
H3 H 0.0969 0.9031 0.1696
C9 C 0.28040(17) 0.84703(17) 0.45075(9)
C10 C 0.18036(17) 0.94707(17) 0.21592(9)
C11 C 0.05293(17) 0.81964(17) 0.21592(9)
C12 C 0.14282(16) 0.85718(16) 0.27563(15)
C13 C 0.26370(19) 0.86498(19) 0.41130(9)
C14 C 0.19831(19) 0.93037(19) 0.25537(9)
C15 C 0.06963(19) 0.80169(19) 0.25537(9)
H4 H 0.0320 0.7525 0.2686
H5 H 0.2475 0.9680 0.2686
H6 H 0.3013 0.9142 0.3981
C18 C 0.35962(17) 0.90564(16) 0.47101(9)
Cu1 Cu 0.95502(2) 0.477511(12) 0.465271(12)
O3 O 0.8952(3) 0.44760(13) 0.40630(10)
Cu2 Cu 0.810844(12) 0.62169(2) 0.201396(12)
Cu4 Cu 0.855824(23) 0.71165(2) 0.131938(12)
O4 O 0.92339(12) 0.70079(11) 0.21757(6)
O8 O 0.77739(16) 0.70079(11) 0.21757(6)
O9 O 0.96086(11) 0.77749(11) 0.15966(6)
O12 O 0.88918(11) 0.51671(16) 0.49299(6)
O13 O 0.88918(11) 0.37247(11) 0.49299(6)
O14 O 0.85004(16) 0.55585(11) 0.17368(6)
O15 O 0.70580(11) 0.55585(11) 0.17368(6)
O16 O 0.78093(13) 0.5619(3) 0.26037(10)
C16 C 0.97371(17) 0.76103(16) 0.19566(9)
Cu1_2 Cu 0.522489(12) 0.477509(23) 0.465271(12)
O1_2 O 0.40994(12) 0.44406(16) 0.44910(6)
O2_2 O 0.37247(11) 0.48329(16) 0.50701(6)
O3_2 O 0.55240(13) 0.44760(33) 0.40630(10)
C1_2 C 0.1738(2) 0.3476(3) 0.35011(16)
C2_2 C 0.22499(13) 0.44998(18) 0.47028(12)
H1_2 H 0.2364 0.4728 0.4971
C3_2 C 0.28040(17) 0.43337(24) 0.45075(9)
C4_2 C 0.19051(16) 0.38102(23) 0.39104(15)
C5_2 C 0.26370(19) 0.39872(27) 0.41130(9)
H2_2 H 0.3013 0.3871 0.3981
C6_2 C 0.35962(17) 0.45398(23) 0.47101(9)
Cu3_2 Cu 0.477509(23) 0.522489(30) 0.534729(12)
O4_2 O 0.29921(11) 0.22261(16) 0.21757(6)
O7_2 O 0.55594(16) 0.59006(19) 0.44910(6)
O9_2 O 0.22251(11) 0.18338(16) 0.15966(6)
O11_2 O 0.11082(11) 0.48329(16) 0.50701(6)
O12_2 O 0.48329(16) 0.37247(19) 0.49299(6)
O13_2 O 0.62753(11) 0.51671(16) 0.49299(6)
O14_2 O 0.44415(11) 0.29420(19) 0.17368(6)
O15_2 O 0.44415(11) 0.14996(16) 0.17368(6)
O16_2 O 0.4381(3) 0.21907(33) 0.26037(10)
C7_2 C 0.1595(2) 0.3191(3) 0.31656(16)
C8_2 C 0.10834(13) 0.21669(18) 0.19639(12)
H3_2 H 0.0969 0.1939 0.1696
C9_2 C 0.15297(17) 0.43337(24) 0.45075(9)
C10_2 C 0.05293(17) 0.23330(24) 0.21592(9)
C11_2 C 0.18036(17) 0.23330(24) 0.21592(9)
C12_2 C 0.14282(16) 0.28565(23) 0.27563(15)
C13_2 C 0.13502(19) 0.39872(27) 0.41130(9)
C14_2 C 0.06963(19) 0.26795(27) 0.25537(9)
C15_2 C 0.19831(19) 0.26795(27) 0.25537(9)
H4_2 H 0.2475 0.2796 0.2686
H5_2 H 0.0320 0.2796 0.2686
H6_2 H 0.0858 0.3871 0.3981
C16_2 C 0.23897(16) 0.21269(23) 0.19566(9)
C18_2 C 0.09436(16) 0.45398(23) 0.47101(9)
Cu5_2 Cu 0.810844(12) 0.189158(23) 0.201396(12)
Cu6_2 Cu 0.855824(23) 0.144178(30) 0.131938(12)
O5_2 O 0.92339(12) 0.22261(16) 0.21757(6)
O10_2 O 0.96086(11) 0.18338(16) 0.15966(6)
C17_2 C 0.97371(17) 0.21269(23) 0.19566(9)
O3_3 O 0.55240(33) 0.1048(3) 0.40630(10)
O4_3 O 0.77739(16) 0.07661(12) 0.21757(6)
O9_3 O 0.81662(16) 0.03914(11) 0.15966(6)
O12_3 O 0.62753(19) 0.11082(11) 0.49299(6)
O13_3 O 0.48329(16) 0.11082(11) 0.49299(6)
O14_3 O 0.70580(19) 0.14996(16) 0.17368(6)
O15_3 O 0.85004(16) 0.29420(11) 0.17368(6)
O16_3 O 0.78093(33) 0.21907(13) 0.26037(10)
C16_3 C 0.78731(23) 0.02629(17) 0.19566(9)
O1_3 O 0.55594(16) 0.96588(11) 0.44910(6)
O2_3 O 0.51671(16) 0.88918(11) 0.50701(6)
C1_3 C 0.6524(3) 0.8262(2) 0.35011(16)
C2_3 C 0.55002(18) 0.77501(13) 0.47028(12)
H1_3 H 0.5272 0.7636 0.4971
C3_3 C 0.56663(24) 0.84703(17) 0.45075(9)
C4_3 C 0.61898(23) 0.80949(16) 0.39104(15)
C5_3 C 0.60128(27) 0.86498(19) 0.41130(9)
H2_3 H 0.6129 0.9142 0.3981
C6_3 C 0.54602(23) 0.90564(16) 0.47101(9)
O10_3 O 0.81662(16) 0.77749(11) 0.15966(6)
O11_3 O 0.51671(16) 0.62753(11) 0.50701(6)
C7_3 C 0.6809(3) 0.8405(2) 0.31656(16)
C8_3 C 0.78331(18) 0.89166(13) 0.19639(12)
H3_3 H 0.8061 0.9031 0.1696
C9_3 C 0.56663(24) 0.71960(17) 0.45075(9)
C10_3 C 0.76670(24) 0.81964(17) 0.21592(9)
C11_3 C 0.76670(24) 0.94707(17) 0.21592(9)
C12_3 C 0.71435(23) 0.85718(16) 0.27563(15)
C13_3 C 0.60128(27) 0.73630(19) 0.41130(9)
C14_3 C 0.73205(27) 0.80169(19) 0.25537(9)
C15_3 C 0.73205(27) 0.93037(19) 0.25537(9)
H4_3 H 0.7204 0.9680 0.2686
H5_3 H 0.7204 0.7525 0.2686
H6_3 H 0.6129 0.6987 0.3981
C17_3 C 0.78731(23) 0.76103(16) 0.19566(9)
C18_3 C 0.54602(23) 0.64038(17) 0.47101(9)
O1_4 O 0.44406(16) 0.40994(12) 0.55090(6)
O3_4 O 0.44760(33) 0.55240(13) 0.59370(10)
C1_4 C 0.3476(3) 0.1738(2) 0.64989(16)
C2_4 C 0.44998(18) 0.22499(13) 0.52972(12)
H1_4 H 0.4728 0.2364 0.5029
C3_4 C 0.43337(24) 0.28040(17) 0.54925(9)
C4_4 C 0.38102(23) 0.19051(16) 0.60896(15)
C5_4 C 0.39872(27) 0.26370(19) 0.58870(9)
H2_4 H 0.3871 0.3013 0.6019
C6_4 C 0.45398(23) 0.35962(17) 0.52899(9)
Cu2_2 Cu 0.189158(23) 0.37831(2) 0.798604(12)
Cu4_2 Cu 0.144178(30) 0.28835(2) 0.868062(12)
O4_4 O 0.22261(16) 0.29921(11) 0.78243(6)
O6_2 O 0.44406(16) 0.03412(11) 0.55090(6)
O7_3 O 0.59006(19) 0.55594(16) 0.55090(6)
O8_2 O 0.07661(19) 0.29921(11) 0.78243(6)
O9_4 O 0.18338(16) 0.22251(11) 0.84034(6)
O14_4 O 0.29420(19) 0.44415(11) 0.82632(6)
O15_4 O 0.14996(16) 0.44415(11) 0.82632(6)
O16_4 O 0.21907(33) 0.4381(3) 0.73963(10)
C7_4 C 0.3191(3) 0.1595(2) 0.68344(16)
C8_4 C 0.21669(18) 0.10834(13) 0.80361(12)
H3_4 H 0.1939 0.0969 0.8304
C9_4 C 0.43337(24) 0.15297(17) 0.54925(9)
C10_4 C 0.23330(24) 0.05293(17) 0.78408(9)
C11_4 C 0.23330(24) 0.18036(17) 0.78408(9)
C12_4 C 0.28565(23) 0.14282(16) 0.72437(15)
C13_4 C 0.39872(27) 0.13502(19) 0.58870(9)
C14_4 C 0.26795(27) 0.06963(19) 0.74463(9)
C15_4 C 0.26795(27) 0.19831(19) 0.74463(9)
H4_4 H 0.2796 0.2475 0.7314
H5_4 H 0.2796 0.0320 0.7314
H6_4 H 0.3871 0.0858 0.6019
C16_4 C 0.21269(23) 0.23897(16) 0.80434(9)
C18_4 C 0.45398(23) 0.09436(16) 0.52899(9)
Cu5_3 Cu 0.189158(23) 0.810844(12) 0.798604(12)
Cu6_3 Cu 0.144178(30) 0.855824(23) 0.868062(12)
O5_3 O 0.22261(16) 0.92339(12) 0.78243(6)
O10_4 O 0.18338(16) 0.96086(11) 0.84034(6)
C17_4 C 0.21269(23) 0.97371(17) 0.80434(9)
O3_5 O 0.1048(3) 0.55240(33) 0.59370(10)
O4_5 O 0.07661(12) 0.77739(16) 0.78243(6)
O9_5 O 0.03914(11) 0.81662(16) 0.84034(6)
O14_5 O 0.14996(16) 0.70580(19) 0.82632(6)
O15_5 O 0.29420(11) 0.85004(16) 0.82632(6)
O16_5 O 0.21907(13) 0.78093(33) 0.73963(10)
C16_5 C 0.02629(17) 0.78731(23) 0.80434(9)
O1_5 O 0.96588(11) 0.55594(16) 0.55090(6)
C1_5 C 0.8262(2) 0.6524(3) 0.64989(16)
C2_5 C 0.77501(13) 0.55002(18) 0.52972(12)
H1_5 H 0.7636 0.5272 0.5029
C3_5 C 0.84703(17) 0.56663(24) 0.54925(9)
C4_5 C 0.80949(16) 0.61898(23) 0.60896(15)
C5_5 C 0.86498(19) 0.60128(27) 0.58870(9)
H2_5 H 0.9142 0.6129 0.6019
C6_5 C 0.90564(16) 0.54602(23) 0.52899(9)
Cu5_4 Cu 0.62169(2) 0.810842(23) 0.798604(12)
Cu6_4 Cu 0.71165(2) 0.855822(30) 0.868062(12)
O5_4 O 0.70079(11) 0.77739(16) 0.78243(6)
O7_4 O 0.96588(11) 0.40994(19) 0.55090(6)
O10_5 O 0.77749(11) 0.81662(16) 0.84034(6)
C7_5 C 0.8405(2) 0.6809(3) 0.68344(16)
C8_5 C 0.89166(13) 0.78331(18) 0.80361(12)
H3_5 H 0.9031 0.8061 0.8304
C9_5 C 0.71960(17) 0.56663(24) 0.54925(9)
C10_5 C 0.81964(17) 0.76670(24) 0.78408(9)
C11_5 C 0.94707(17) 0.76670(24) 0.78408(9)
C12_5 C 0.85718(16) 0.71435(23) 0.72437(15)
C13_5 C 0.73630(19) 0.60128(27) 0.58870(9)
C14_5 C 0.80169(19) 0.73205(27) 0.74463(9)
C15_5 C 0.93037(19) 0.73205(27) 0.74463(9)
H4_5 H 0.9680 0.7204 0.7314
H5_5 H 0.7525 0.7204 0.7314
H6_5 H 0.6987 0.6129 0.6019
C17_5 C 0.76103(16) 0.78731(23) 0.80434(9)
C18_5 C 0.64038(17) 0.54602(23) 0.52899(9)
O10_6 O 0.03914(11) 0.22251(11) 0.84034(6)
C17_6 C 0.02629(17) 0.23897(16) 0.80434(9)
O1_6 O 0.59006(12) 0.03412(11) 0.55090(6)
C1_6 C 0.8262(2) 0.1738(2) 0.64989(16)
C2_6 C 0.77501(13) 0.22499(13) 0.52972(12)
H1_6 H 0.7636 0.2364 0.5029
C3_6 C 0.71960(17) 0.15297(17) 0.54925(9)
C4_6 C 0.80949(16) 0.19051(16) 0.60896(15)
C5_6 C 0.73630(19) 0.13502(19) 0.58870(9)
H2_6 H 0.6987 0.0858 0.6019
C6_6 C 0.64038(17) 0.09436(16) 0.52899(9)
C7_6 C 0.8405(2) 0.1595(2) 0.68344(16)
C8_6 C 0.89166(13) 0.10834(13) 0.80361(12)
H3_6 H 0.9031 0.0969 0.8304
C9_6 C 0.84703(17) 0.28040(17) 0.54925(9)
C10_6 C 0.94707(17) 0.18036(17) 0.78408(9)
C11_6 C 0.81964(17) 0.05293(17) 0.78408(9)
C12_6 C 0.85718(16) 0.14282(16) 0.72437(15)
C13_6 C 0.86498(19) 0.26370(19) 0.58870(9)
C14_6 C 0.93037(19) 0.19831(19) 0.74463(9)
C15_6 C 0.80169(19) 0.06963(19) 0.74463(9)
H4_6 H 0.7525 0.0320 0.7314
H5_6 H 0.9680 0.2475 0.7314
H6_6 H 0.9142 0.3013 0.6019
C18_6 C 0.90564(16) 0.35962(17) 0.52899(9)
O3_6 O 0.44760(13) 0.8952(3) 0.59370(10)
O4_6 O 0.70079(11) 0.92339(12) 0.78243(6)
O9_6 O 0.77749(11) 0.96086(11) 0.84034(6)
O14_6 O 0.55585(11) 0.85004(16) 0.82632(6)
O15_6 O 0.55585(11) 0.70580(11) 0.82632(6)
O16_6 O 0.5619(3) 0.78093(13) 0.73963(10)
C16_6 C 0.76103(16) 0.97371(17) 0.80434(9)
O1_7 O 0.11073(16) 0.74327(12) 0.88423(6)
O3_7 O 0.11427(33) 0.88573(13) 0.92703(10)
C1_7 C 0.0143(3) 0.5071(2) 0.98322(16)
C2_7 C 0.11665(18) 0.55832(13) 0.86305(12)
H1_7 H 0.1395 0.5697 0.8362
C3_7 C 0.10004(24) 0.61373(17) 0.88258(9)
C4_7 C 0.04769(23) 0.52384(16) 0.94229(15)
C5_7 C 0.06539(27) 0.59703(19) 0.92203(9)
H2_7 H 0.0538 0.6346 0.9352
C6_7 C 0.12065(23) 0.69295(17) 0.86232(9)
O6_3 O 0.11073(16) 0.36745(11) 0.88423(6)
O7_5 O 0.25673(19) 0.88927(16) 0.88423(6)
C9_7 C 0.10004(24) 0.48630(17) 0.88258(9)
C13_7 C 0.06539(27) 0.46835(19) 0.92203(9)
H6_7 H 0.0538 0.4191 0.9352
C18_7 C 0.12065(23) 0.42769(16) 0.86232(9)
O4_7 O 0.88927(16) 0.63255(11) 0.11577(6)
O5_5 O 0.88927(16) 0.25673(12) 0.11577(6)
O8_3 O 0.74327(19) 0.63255(11) 0.11577(6)
O16_7 O 0.88573(33) 0.7715(3) 0.07297(10)
C7_7 C 0.9857(3) 0.4929(2) 0.01678(16)
C8_7 C 0.88335(18) 0.44168(13) 0.13695(12)
H3_7 H 0.8605 0.4303 0.1638
C10_7 C 0.89996(24) 0.38627(17) 0.11742(9)
C11_7 C 0.89996(24) 0.51370(17) 0.11742(9)
C12_7 C 0.95231(23) 0.47616(16) 0.05771(15)
C14_7 C 0.93461(27) 0.40297(19) 0.07797(9)
C15_7 C 0.93461(27) 0.53165(19) 0.07797(9)
H4_7 H 0.9462 0.5809 0.0648
H5_7 H 0.9462 0.3654 0.0648
C16_7 C 0.87935(23) 0.57231(16) 0.13768(9)
C17_7 C 0.87935(23) 0.30705(17) 0.13768(9)
O4_8 O 0.74327(12) 0.11073(16) 0.11577(6)
O5_6 O 0.36745(11) 0.11073(16) 0.11577(6)
O16_8 O 0.88573(13) 0.11427(33) 0.07297(10)
C7_8 C 0.5071(2) 0.0143(3) 0.01678(16)
C8_8 C 0.55832(13) 0.11665(18) 0.13695(12)
H3_8 H 0.5697 0.1395 0.1638
C10_8 C 0.48630(17) 0.10004(24) 0.11742(9)
C11_8 C 0.61373(17) 0.10004(24) 0.11742(9)
C12_8 C 0.52384(16) 0.04769(23) 0.05771(15)
C14_8 C 0.46835(19) 0.06539(27) 0.07797(9)
C15_8 C 0.59703(19) 0.06539(27) 0.07797(9)
H4_8 H 0.6346 0.0538 0.0648
H5_8 H 0.4191 0.0538 0.0648
C16_8 C 0.69295(17) 0.12065(23) 0.13768(9)
C17_8 C 0.42769(16) 0.12065(23) 0.13768(9)
O1_8 O 0.63255(11) 0.88927(16) 0.88423(6)
O3_8 O 0.7715(3) 0.88573(33) 0.92703(10)
C1_8 C 0.4929(2) 0.9857(3) 0.98322(16)
C2_8 C 0.44168(13) 0.88335(18) 0.86305(12)
H1_8 H 0.4303 0.8605 0.8362
C3_8 C 0.51370(17) 0.89996(24) 0.88258(9)
C4_8 C 0.47616(16) 0.95231(23) 0.94229(15)
C5_8 C 0.53165(19) 0.93461(27) 0.92203(9)
H2_8 H 0.5809 0.9462 0.9352
C6_8 C 0.57231(16) 0.87935(23) 0.86232(9)
O7_6 O 0.63255(11) 0.74327(19) 0.88423(6)
C9_8 C 0.38627(17) 0.89996(24) 0.88258(9)
C13_8 C 0.40297(19) 0.93461(27) 0.92203(9)
H6_8 H 0.3654 0.9462 0.9352
C18_8 C 0.30705(17) 0.87935(23) 0.86232(9)
O4_9 O 0.36745(11) 0.25673(12) 0.11577(6)
O16_9 O 0.2285(3) 0.11427(13) 0.07297(10)
C7_9 C 0.5071(2) 0.4929(2) 0.01678(16)
C8_9 C 0.55832(13) 0.44168(13) 0.13695(12)
H3_9 H 0.5697 0.4303 0.1638
C10_9 C 0.61373(17) 0.51370(17) 0.11742(9)
C11_9 C 0.48630(17) 0.38627(17) 0.11742(9)
C12_9 C 0.52384(16) 0.47616(16) 0.05771(15)
C14_9 C 0.59703(19) 0.53165(19) 0.07797(9)
C15_9 C 0.46835(19) 0.40297(19) 0.07797(9)
H4_9 H 0.4191 0.3654 0.0648
H5_9 H 0.6346 0.5809 0.0648
C16_9 C 0.42769(16) 0.30705(17) 0.13768(9)
C17_9 C 0.69295(17) 0.57231(16) 0.13768(9)
O1_9 O 0.25673(12) 0.36745(11) 0.88423(6)
O3_9 O 0.11427(13) 0.2285(3) 0.92703(10)
C1_9 C 0.4929(2) 0.5071(2) 0.98322(16)
C2_9 C 0.44168(13) 0.55832(13) 0.86305(12)
H1_9 H 0.4303 0.5697 0.8362
C3_9 C 0.38627(17) 0.48630(17) 0.88258(9)
C4_9 C 0.47616(16) 0.52384(16) 0.94229(15)
C5_9 C 0.40297(19) 0.46835(19) 0.92203(9)
H2_9 H 0.3654 0.4191 0.9352
C6_9 C 0.30705(17) 0.42769(16) 0.86232(9)
C9_9 C 0.51370(17) 0.61373(17) 0.88258(9)
C13_9 C 0.53165(19) 0.59703(19) 0.92203(9)
H6_9 H 0.5809 0.6346 0.9352
C18_9 C 0.57231(16) 0.69295(17) 0.86232(9)
loop_
_geom_bond_atom_site_label_1
_geom_bond_atom_site_label_2
_geom_bond_site_symmetry_1
_geom_bond_site_symmetry_2
Cu5 O5 1_555 1_555
Cu6 O10 1_555 1_555
O5 C17 1_555 1_555
O10 C17 1_555 1_555
O1 C6 1_555 1_555
O2 C6 1_555 1_555
C1 C4 1_555 1_555
C2 H1 1_555 1_555
C3 C2 1_555 1_555
C4 C5 1_555 1_555
C5 C3 1_555 1_555
H2 C5 1_555 1_555
C6 C3 1_555 1_555
Cu3 O2 1_555 1_555
Cu8 O11 1_555 1_555
O6 C18 1_555 1_555
O11 C18 1_555 1_555
C7 C1 1_555 1_555
C8 H3 1_555 1_555
C9 C2 1_555 1_555
C10 C8 1_555 1_555
C11 C8 1_555 1_555
C12 C7 1_555 1_555
C13 C4 1_555 1_555
C14 C10 1_555 1_555
C15 C11 1_555 1_555
H4 C15 1_555 1_555
H5 C14 1_555 1_555
H6 C13 1_555 1_555
C18 C9 1_555 1_555
C9 C13 1_555 1_555
C12 C14 1_555 1_555
C12 C15 1_555 1_555
O3 Cu1 1_555 1_555
Cu2 O4 1_555 1_555
Cu4 O9 1_555 1_555
O4 C16 1_555 1_555
O8 Cu2 1_555 1_555
O9 C16 1_555 1_555
O12 Cu1 1_555 1_555
O13 Cu1 1_555 1_555
O14 Cu2 1_555 1_555
O15 Cu2 1_555 1_555
O16 Cu2 1_555 1_555
Cu1_2 O1_2 1_555 1_555
O1_2 C6_2 1_555 1_555
O2_2 C6_2 1_555 1_555
O3_2 Cu1_2 1_555 1_555
C1_2 C4_2 1_555 1_555
C2_2 H1_2 1_555 1_555
C3_2 C2_2 1_555 1_555
C4_2 C5_2 1_555 1_555
C5_2 C3_2 1_555 1_555
H2_2 C5_2 1_555 1_555
C6_2 C3_2 1_555 1_555
Cu5 O4_2 1_555 1_555
Cu3_2 O2_2 1_555 1_555
Cu6 O9_2 1_555 1_555
Cu3 O11_2 1_555 1_555
O4_2 C16_2 1_555 1_555
O7 C18_2 1_555 1_555
O7_2 Cu1_2 1_555 1_555
O9_2 C16_2 1_555 1_555
O11_2 C18_2 1_555 1_555
O12_2 Cu1_2 1_555 1_555
O13_2 Cu1_2 1_555 1_555
O14_2 Cu5 1_555 1_555
O15_2 Cu5 1_555 1_555
O16_2 Cu5 1_555 1_555
C7_2 C1_2 1_555 1_555
C8_2 H3_2 1_555 1_555
C9_2 C2_2 1_555 1_555
C10_2 C8_2 1_555 1_555
C11_2 C8_2 1_555 1_555
C12_2 C7_2 1_555 1_555
C13_2 C4_2 1_555 1_555
C14_2 C10_2 1_555 1_555
C15_2 C11_2 1_555 1_555
H4_2 C15_2 1_555 1_555
H5_2 C14_2 1_555 1_555
H6_2 C13_2 1_555 1_555
C16_2 C11_2 1_555 1_555
C18_2 C9_2 1_555 1_555
C9_2 C13_2 1_555 1_555
C12_2 C14_2 1_555 1_555
C12_2 C15_2 1_555 1_555
Cu5_2 O5_2 1_555 1_555
Cu6_2 O10_2 1_555 1_555
O5_2 C17_2 1_555 1_555
O10_2 C17_2 1_555 1_555
O3_3 Cu7 1_555 1_555
Cu5_2 O4_3 1_555 1_555
Cu6_2 O9_3 1_555 1_555
O4_3 C16_3 1_555 1_555
O9_3 C16_3 1_555 1_555
O12_3 Cu7 1_555 1_555
O13_3 Cu7 1_555 1_555
O14_3 Cu5_2 1_555 1_555
O15_3 Cu5_2 1_555 1_555
O16_3 Cu5_2 1_555 1_555
O1_3 C6_3 1_555 1_555
O2_3 C6_3 1_555 1_555
C1_3 C4_3 1_555 1_555
C2_3 H1_3 1_555 1_555
C3_3 C2_3 1_555 1_555
C4_3 C5_3 1_555 1_555
C5_3 C3_3 1_555 1_555
H2_3 C5_3 1_555 1_555
C6_3 C3_3 1_555 1_555
Cu8 O2_3 1_555 1_555
Cu4 O10_3 1_555 1_555
Cu3_2 O11_3 1_555 1_555
O8 C17_3 1_555 1_555
O7_2 C18_3 1_555 1_555
O10_3 C17_3 1_555 1_555
O11_3 C18_3 1_555 1_555
C7_3 C1_3 1_555 1_555
C8_3 H3_3 1_555 1_555
C9_3 C2_3 1_555 1_555
C10_3 C8_3 1_555 1_555
C11_3 C8_3 1_555 1_555
C12_3 C7_3 1_555 1_555
C13_3 C4_3 1_555 1_555
C14_3 C10_3 1_555 1_555
C15_3 C11_3 1_555 1_555
H4_3 C15_3 1_555 1_555
H5_3 C14_3 1_555 1_555
H6_3 C13_3 1_555 1_555
C17_3 C10_3 1_555 1_555
C18_3 C9_3 1_555 1_555
C9_3 C13_3 1_555 1_555
C12_3 C14_3 1_555 1_555
C12_3 C15_3 1_555 1_555
Cu3_2 O1_4 1_555 1_555
O1_4 C6_4 1_555 1_555
O12_2 C6_4 1_555 1_555
O3_4 Cu3_2 1_555 1_555
C1_4 C4_4 1_555 1_555
C2_4 H1_4 1_555 1_555
C3_4 C2_4 1_555 1_555
C4_4 C5_4 1_555 1_555
C5_4 C3_4 1_555 1_555
H2_4 C5_4 1_555 1_555
C6_4 C3_4 1_555 1_555
Cu2_2 O4_4 1_555 1_555
Cu4_2 O9_4 1_555 1_555
O4_4 C16_4 1_555 1_555
O6_2 C18_4 1_555 1_555
O7_3 Cu3_2 1_555 1_555
O8_2 Cu2_2 1_555 1_555
O9_4 C16_4 1_555 1_555
O13_3 C18_4 1_555 1_555
O14_4 Cu2_2 1_555 1_555
O15_4 Cu2_2 1_555 1_555
O16_4 Cu2_2 1_555 1_555
C7_4 C1_4 1_555 1_555
C8_4 H3_4 1_555 1_555
C9_4 C2_4 1_555 1_555
C10_4 C8_4 1_555 1_555
C11_4 C8_4 1_555 1_555
C12_4 C7_4 1_555 1_555
C13_4 C4_4 1_555 1_555
C14_4 C10_4 1_555 1_555
C15_4 C11_4 1_555 1_555
H4_4 C15_4 1_555 1_555
H5_4 C14_4 1_555 1_555
H6_4 C13_4 1_555 1_555
C16_4 C11_4 1_555 1_555
C18_4 C9_4 1_555 1_555
C9_4 C13_4 1_555 1_555
C12_4 C14_4 1_555 1_555
C12_4 C15_4 1_555 1_555
Cu5_3 O5_3 1_555 1_555
Cu6_3 O10_4 1_555 1_555
O5_3 C17_4 1_555 1_555
O10_4 C17_4 1_555 1_555
O3_5 Cu3 1_555 1_555
Cu5_3 O4_5 1_555 1_555
Cu6_3 O9_5 1_555 1_555
O4_5 C16_5 1_555 1_555
O9_5 C16_5 1_555 1_555
O14_5 Cu5_3 1_555 1_555
O15_5 Cu5_3 1_555 1_555
O16_5 Cu5_3 1_555 1_555
O1_5 C6_5 1_555 1_555
O12 C6_5 1_555 1_555
C1_5 C4_5 1_555 1_555
C2_5 H1_5 1_555 1_555
C3_5 C2_5 1_555 1_555
C4_5 C5_5 1_555 1_555
C5_5 C3_5 1_555 1_555
H2_5 C5_5 1_555 1_555
C6_5 C3_5 1_555 1_555
Cu5_4 O5_4 1_555 1_555
Cu6_4 O10_5 1_555 1_555
O5_4 C17_5 1_555 1_555
O7_3 C18_5 1_555 1_555
O10_5 C17_5 1_555 1_555
O13_2 C18_5 1_555 1_555
C7_5 C1_5 1_555 1_555
C8_5 H3_5 1_555 1_555
C9_5 C2_5 1_555 1_555
C10_5 C8_5 1_555 1_555
C11_5 C8_5 1_555 1_555
C12_5 C7_5 1_555 1_555
C13_5 C4_5 1_555 1_555
C14_5 C10_5 1_555 1_555
C15_5 C11_5 1_555 1_555
H4_5 C15_5 1_555 1_555
H5_5 C14_5 1_555 1_555
H6_5 C13_5 1_555 1_555
C17_5 C10_5 1_555 1_555
C18_5 C9_5 1_555 1_555
C9_5 C13_5 1_555 1_555
C12_5 C14_5 1_555 1_555
C12_5 C15_5 1_555 1_555
Cu4_2 O10_6 1_555 1_555
O8_2 C17_6 1_555 1_555
O10_6 C17_6 1_555 1_555
O1_6 C6_6 1_555 1_555
O12_3 C6_6 1_555 1_555
C1_6 C4_6 1_555 1_555
C2_6 H1_6 1_555 1_555
C3_6 C2_6 1_555 1_555
C4_6 C5_6 1_555 1_555
C5_6 C3_6 1_555 1_555
H2_6 C5_6 1_555 1_555
C6_6 C3_6 1_555 1_555
O7_4 C18_6 1_555 1_555
O13 C18_6 1_555 1_555
C7_6 C1_6 1_555 1_555
C8_6 H3_6 1_555 1_555
C9_6 C2_6 1_555 1_555
C10_6 C8_6 1_555 1_555
C11_6 C8_6 1_555 1_555
C12_6 C7_6 1_555 1_555
C13_6 C4_6 1_555 1_555
C14_6 C10_6 1_555 1_555
C15_6 C11_6 1_555 1_555
H4_6 C15_6 1_555 1_555
H5_6 C14_6 1_555 1_555
H6_6 C13_6 1_555 1_555
C18_6 C9_6 1_555 1_555
C9_6 C13_6 1_555 1_555
C12_6 C14_6 1_555 1_555
C12_6 C15_6 1_555 1_555
O3_6 Cu8 1_555 1_555
Cu5_4 O4_6 1_555 1_555
Cu6_4 O9_6 1_555 1_555
O4_6 C16_6 1_555 1_555
O9_6 C16_6 1_555 1_555
O14_6 Cu5_4 1_555 1_555
O15_6 Cu5_4 1_555 1_555
O16_6 Cu5_4 1_555 1_555
Cu6_3 O1_7 1_555 1_555
O1_7 C6_7 1_555 1_555
O14_5 C6_7 1_555 1_555
O3_7 Cu6_3 1_555 1_555
C1_7 C4_7 1_555 1_555
C2_7 H1_7 1_555 1_555
C3_7 C2_7 1_555 1_555
C4_7 C5_7 1_555 1_555
C5_7 C3_7 1_555 1_555
H2_7 C5_7 1_555 1_555
C6_7 C3_7 1_555 1_555
Cu4_2 O6_3 1_555 1_555
O6_3 C18_7 1_555 1_555
O7_5 Cu6_3 1_555 1_555
O15_4 C18_7 1_555 1_555
C9_7 C2_7 1_555 1_555
C13_7 C4_7 1_555 1_555
H6_7 C13_7 1_555 1_555
C18_7 C9_7 1_555 1_555
C9_7 C13_7 1_555 1_555
Cu4 O4_7 1_555 1_555
Cu6_2 O5_5 1_555 1_555
O4_7 C16_7 1_555 1_555
O5_5 C17_7 1_555 1_555
O8_3 Cu4 1_555 1_555
O14 C16_7 1_555 1_555
O15_3 C17_7 1_555 1_555
O16_7 Cu4 1_555 1_555
C8_7 H3_7 1_555 1_555
C10_7 C8_7 1_555 1_555
C11_7 C8_7 1_555 1_555
C12_7 C7_7 1_555 1_555
C14_7 C10_7 1_555 1_555
C15_7 C11_7 1_555 1_555
H4_7 C15_7 1_555 1_555
H5_7 C14_7 1_555 1_555
C16_7 C11_7 1_555 1_555
C17_7 C10_7 1_555 1_555
C12_7 C14_7 1_555 1_555
C12_7 C15_7 1_555 1_555
Cu6_2 O4_8 1_555 1_555
Cu6 O5_6 1_555 1_555
O4_8 C16_8 1_555 1_555
O5_6 C17_8 1_555 1_555
O14_3 C16_8 1_555 1_555
O15_2 C17_8 1_555 1_555
O16_8 Cu6_2 1_555 1_555
C8_8 H3_8 1_555 1_555
C10_8 C8_8 1_555 1_555
C11_8 C8_8 1_555 1_555
C12_8 C7_8 1_555 1_555
C14_8 C10_8 1_555 1_555
C15_8 C11_8 1_555 1_555
H4_8 C15_8 1_555 1_555
H5_8 C14_8 1_555 1_555
C16_8 C11_8 1_555 1_555
C17_8 C10_8 1_555 1_555
C12_8 C14_8 1_555 1_555
C12_8 C15_8 1_555 1_555
Cu6_4 O1_8 1_555 1_555
O1_8 C6_8 1_555 1_555
O14_6 C6_8 1_555 1_555
O3_8 Cu6_4 1_555 1_555
C1_8 C4_8 1_555 1_555
C2_8 H1_8 1_555 1_555
C3_8 C2_8 1_555 1_555
C4_8 C5_8 1_555 1_555
C5_8 C3_8 1_555 1_555
H2_8 C5_8 1_555 1_555
C6_8 C3_8 1_555 1_555
O7_5 C18_8 1_555 1_555
O7_6 Cu6_4 1_555 1_555
O15_5 C18_8 1_555 1_555
C9_8 C2_8 1_555 1_555
C13_8 C4_8 1_555 1_555
H6_8 C13_8 1_555 1_555
C18_8 C9_8 1_555 1_555
C9_8 C13_8 1_555 1_555
Cu6 O4_9 1_555 1_555
O4_9 C16_9 1_555 1_555
O8_3 C17_9 1_555 1_555
O14_2 C16_9 1_555 1_555
O15 C17_9 1_555 1_555
O16_9 Cu6 1_555 1_555
C8_9 H3_9 1_555 1_555
C10_9 C8_9 1_555 1_555
C11_9 C8_9 1_555 1_555
C12_9 C7_9 1_555 1_555
C14_9 C10_9 1_555 1_555
C15_9 C11_9 1_555 1_555
H4_9 C15_9 1_555 1_555
H5_9 C14_9 1_555 1_555
C16_9 C11_9 1_555 1_555
C17_9 C10_9 1_555 1_555
C12_9 C14_9 1_555 1_555
C12_9 C15_9 1_555 1_555
Cu4_2 O1_9 1_555 1_555
O1_9 C6_9 1_555 1_555
O14_4 C6_9 1_555 1_555
O3_9 Cu4_2 1_555 1_555
C1_9 C4_9 1_555 1_555
C2_9 H1_9 1_555 1_555
C3_9 C2_9 1_555 1_555
C4_9 C5_9 1_555 1_555
C5_9 C3_9 1_555 1_555
H2_9 C5_9 1_555 1_555
C6_9 C3_9 1_555 1_555
O7_6 C18_9 1_555 1_555
O15_6 C18_9 1_555 1_555
C9_9 C2_9 1_555 1_555
C13_9 C4_9 1_555 1_555
H6_9 C13_9 1_555 1_555
C18_9 C9_9 1_555 1_555
C9_9 C13_9 1_555 1_555

#END
