
###############################################################################
#
# This file contains modified crystal structure data generated from the
# MOF subset of the Cambridge Structural Database (CSD) v543 
# hosted by the Cambridge Crystallographic Data Centre (CCDC).
#
# This work is licensed under the Creative Commons
# Attribution-NonCommercial-ShareAlike 4.0 International License.
# To view a copy of this license, visit
# http://creativecommons.org/licenses/by-nc-sa/4.0/
# or send a letter to
# Creative Commons, PO Box 1866, Mountain View, CA 94042, USA.
#
# CIF created using the CSD Python API on 29 September 2022
# The structure has been converted into the P1 space group
# The structure has a 3D framework
# The original CSD entry NUVDUE is in the trigonal crystal system
# The original CSD entry NUVDUE is in a Sohncke space group
# The framework has been calculated to contain at least 10.0% void space
# The void calculation uses a probe of radius 1.32A, grid spacing 0.4
#
###############################################################################

data_NUVDUE
_chemical_formula_moiety         '(C12 H3 Eu5 N11 O14)n'
_symmetry_cell_setting           triclinic
_symmetry_space_group_name_H-M   'P 1'
_symmetry_Int_Tables_number      1
_space_group_name_Hall           'P 1'
loop_
_symmetry_equiv_pos_site_id
_symmetry_equiv_pos_as_xyz
1 x,y,z
_cell_length_a                   8.674(5)
_cell_length_b                   8.674(5)
_cell_length_c                   9.796(6)
_cell_angle_alpha                90
_cell_angle_beta                 90
_cell_angle_gamma                120
_cell_volume                     638.29
loop_
_atom_site_label
_atom_site_type_symbol
_atom_site_fract_x
_atom_site_fract_y
_atom_site_fract_z
O1 O 0.0000 0.2443(3) 0.3333
Eu4 Eu 0.22460(4) 0.22460(4) 0.5000
H2 H 0.0719 0.3544 0.3201
N5 N 0.0717(3) 0.0000(3) 0.1667
Eu2 Eu 0.0000 0.77540(4) 0.8334
N5_2 N 0.0717(3) 1.0000(3) 0.1667
Eu1 Eu 0.77540(4) 0.0000 0.1667
O1_2 O 1.0000 0.2443(3) 0.3333
H1 H 0.9281 0.2825 0.3466
O6 O 0.8266(3) 0.2909(3) 0.1019
O9 O 0.6004 0.0661(3) 0.3084
N4 N 0.9355(3) 0.1278(3) 0.9328
Eu1_2 Eu 0.77540(4) 1.0000 0.1667
O2 O 0.5357 0.7091(3) 0.2314
N1 N 0.8077 0.8722(3) 0.4005
O3 O 0.3996 0.4657(3) 0.3583
N2 N 0.9283 0.9283(3) 0.5000
C1 C 0.5220 0.6189(3) 0.3369
C2 C 0.6719 0.7128(3) 0.4363
Eu2_2 Eu 1.0000 0.77540(4) 0.8334
O4 O 0.7557(3) 0.7557(3) -0.0000
H3 H 0.7175 0.6456 0.0133
O5 O 0.7091(3) 0.5357 0.7686
N3 N 0.8722(3) 0.8077 0.5995
O7 O 0.4657(3) 0.3996 0.6417
O8 O 0.5343(3) 0.9339(3) 0.0250
C3 C 0.6189(3) 0.5220 0.6631
C4 C 0.7128(3) 0.6719 0.5637
O4_2 O 0.7557(3) 0.7557(3) 1.0000
H4 H 0.6456 0.7175 0.9867
O5_2 O 0.4643 0.1734(3) 0.4353
N3_2 N 0.1923 0.0645(3) 0.2662
C3_2 C 0.4780 0.0969(3) 0.3298
C4_2 C 0.3281 0.0409(3) 0.2304
O4_3 O 0.2443(3) 0.0000(4) 0.6666
H3_2 H 0.3544 0.0719 0.6799
N5_3 N 0.0000(3) 0.0717(4) 0.8333
N1_2 N 0.1278(3) 0.9355(3) 0.0672
C1_2 C 0.3811(3) 0.9031(3) 0.0036
C2_2 C 0.2872(3) 0.9591(3) 0.1030
O2_2 O 0.2909(3) 0.8266(3) 0.8981
O4_4 O 0.2443(3) 1.0000(4) 0.6666
H4_2 H 0.2825 0.9281 0.6534
O8_2 O 0.0661(3) 0.6004(4) 0.6916
N5_4 N 1.0000(3) 0.0717(4) 0.8333
O9_2 O 0.9339(3) 0.5343(3) 0.9750
O2_3 O 0.1734(3) 0.4643 0.5647
N1_3 N 0.0645(3) 0.1923 0.7338
C1_3 C 0.0969(3) 0.4780 0.6702
C2_3 C 0.0409(3) 0.3281 0.7696
C3_3 C 0.9031(3) 0.3811(3) 0.9964
C4_3 C 0.9591(3) 0.2872(3) 0.8970
loop_
_geom_bond_atom_site_label_1
_geom_bond_atom_site_label_2
_geom_bond_site_symmetry_1
_geom_bond_site_symmetry_2
Eu4 O1 1_555 1_555
H2 O1 1_555 1_555
Eu1 O1_2 1_555 1_555
O1_2 H1 1_555 1_555
O6 Eu1 1_555 1_555
O9 Eu1 1_555 1_555
O2 Eu1_2 1_555 1_555
N1 Eu1_2 1_555 1_555
O3 C1 1_555 1_555
N2 N1 1_555 1_555
C1 O2 1_555 1_555
C2 N1 1_555 1_555
Eu2_2 O5 1_555 1_555
Eu4 O3 1_555 1_555
O4 Eu1_2 1_555 1_555
H3 O4 1_555 1_555
O5 C3 1_555 1_555
N3 N2 1_555 1_555
O7 Eu4 1_555 1_555
O8 Eu1_2 1_555 1_555
C3 O7 1_555 1_555
C4 C2 1_555 1_555
C1 C2 1_555 1_555
Eu2_2 N3 1_555 1_555
N3 C4 1_555 1_555
C3 C4 1_555 1_555
H4 O4_2 1_555 1_555
Eu4 O5_2 1_555 1_555
O5_2 C3_2 1_555 1_555
N3_2 N5 1_555 1_555
C3_2 O9 1_555 1_555
Eu4 N3_2 1_555 1_555
N3_2 C4_2 1_555 1_555
C3_2 C4_2 1_555 1_555
H3_2 O4_3 1_555 1_555
O8 C1_2 1_555 1_555
N5_2 N1_2 1_555 1_555
C2_2 N1_2 1_555 1_555
C1_2 C2_2 1_555 1_555
O2_2 Eu2 1_555 1_555
O4_4 Eu2 1_555 1_555
H4_2 O4_4 1_555 1_555
O8_2 Eu2 1_555 1_555
Eu2_2 O4_2 1_555 1_555
O9_2 Eu2_2 1_555 1_555
Eu4 O4_3 1_555 1_555
O2_3 Eu4 1_555 1_555
N1_3 Eu4 1_555 1_555
O8_2 C1_3 1_555 1_555
N5_3 N1_3 1_555 1_555
C1_3 O2_3 1_555 1_555
C2_3 N1_3 1_555 1_555
C1_3 C2_3 1_555 1_555
N4 N5_4 1_555 1_555
C3_3 O9_2 1_555 1_555
N4 C4_3 1_555 1_555
C3_3 C4_3 1_555 1_555

#END
