
###############################################################################
#
# This file contains modified crystal structure data generated from the
# MOF subset of the Cambridge Structural Database (CSD) v543 
# hosted by the Cambridge Crystallographic Data Centre (CCDC).
#
# This work is licensed under the Creative Commons
# Attribution-NonCommercial-ShareAlike 4.0 International License.
# To view a copy of this license, visit
# http://creativecommons.org/licenses/by-nc-sa/4.0/
# or send a letter to
# Creative Commons, PO Box 1866, Mountain View, CA 94042, USA.
#
# CIF created using the CSD Python API on 29 September 2022
# The structure has been converted into the P1 space group
# The structure has a 3D framework
# The original CSD entry NUVDOY is in the trigonal crystal system
# The original CSD entry NUVDOY is in a Sohncke space group
# The framework has been calculated to contain at least 10.0% void space
# The void calculation uses a probe of radius 1.32A, grid spacing 0.4
#
###############################################################################

data_NUVDOY
_chemical_formula_moiety         '(C12 H4 N12 O15 Sm5)n'
_symmetry_cell_setting           triclinic
_symmetry_space_group_name_H-M   'P 1'
_symmetry_Int_Tables_number      1
_space_group_name_Hall           'P 1'
loop_
_symmetry_equiv_pos_site_id
_symmetry_equiv_pos_as_xyz
1 x,y,z
_cell_length_a                   8.712(8)
_cell_length_b                   8.712(8)
_cell_length_c                   9.818(9)
_cell_angle_alpha                90
_cell_angle_beta                 90
_cell_angle_gamma                120
_cell_volume                     645.341
loop_
_atom_site_label
_atom_site_type_symbol
_atom_site_fract_x
_atom_site_fract_y
_atom_site_fract_z
Sm4 Sm 0.22491(5) 0.22491(5) 0.0000
O1 O 0.0000 0.2459(9) 0.8333
H1 H 0.0689 0.3375 0.7873
Sm4_2 Sm 0.22491(5) 0.22491(5) 1.0000
N5 N 0.0707(9) -0.0000(13) 0.6667
Sm2 Sm -0.0000 0.77509(5) 0.3334
N5_2 N 0.0707(9) 1.0000(13) 0.6667
Sm1 Sm 0.77509(5) -0.0000 0.6667
O1_2 O 1.0000 0.2459(9) 0.8333
H2 H 0.9311 0.2686 0.8794
O7 O 0.5990(7) 0.0652(10) 0.8083(5)
O9 O 0.8248(11) 0.2899(8) 0.6002(5)
N4 N 0.9353(11) 0.1280(8) 0.4331(6)
N2 N 0.9293(9) 0.9293(9) 0.0000
Sm2_2 Sm 1.0000 0.77509(5) 0.3334
C3 C 0.7128(9) 0.6725(9) 0.0636(7)
O5 O 0.4662(7) 0.4010(7) 0.1416(5)
O8 O 0.7101(8) 0.5349(7) 0.2669(5)
C4 C 0.6209(10) 0.5244(10) 0.1632(7)
N3 N 0.8720(8) 0.8073(7) 0.0998(6)
Sm1_2 Sm 0.77509(5) 1.0000 0.6667
C1 C 0.6725(9) 0.7128(9) 0.9364(7)
O2 O 0.4010(7) 0.4662(7) 0.8584(5)
O3 O 0.5349(7) 0.7101(8) 0.7331(5)
C2 C 0.5244(10) 0.6209(10) 0.8368(7)
N1 N 0.8073(7) 0.8720(8) 0.9002(6)
N2_2 N 0.9293(9) 0.9293(9) 1.0000
O4 O 0.7541(9) 0.7541(9) 0.5000
H3 H 0.6625 0.7314 0.4540
H4 H 0.7314 0.6625 0.5460
O6 O 0.5338(7) 0.9348(10) 0.5251(5)
O4_2 O 0.2459(9) -0.0000(13) 0.1666
H4_2 H 0.3375 0.0689 0.2127
C3_2 C 0.3275(9) 0.0403(13) 0.7303(7)
O8_2 O 0.4651(7) 0.1752(11) 0.9336(5)
C4_2 C 0.4756(10) 0.0965(14) 0.8299(7)
N3_2 N 0.1927(7) 0.0647(11) 0.7665(6)
N5_3 N 0.0000(13) 0.0707(16) 0.3333
C1_2 C 0.2872(9) 0.9597(13) 0.6031(7)
O3_2 O 0.2899(8) 0.8248(11) 0.3998(5)
C2_2 C 0.3791(10) 0.9035(14) 0.5035(7)
N1_2 N 0.1280(8) 0.9353(11) 0.5669(6)
O4_3 O 0.2459(9) 1.0000(13) 0.1666
H3_2 H 0.2686 0.9311 0.1206
O6_2 O 0.0652(10) 0.5990(12) 0.1917(5)
N5_4 N 1.0000(13) 0.0707(16) 0.3333
O7_2 O 0.9348(10) 0.5338(12) 0.4749(5)
C1_3 C 0.0403(13) 0.3275(9) 0.2697(7)
O3_3 O 0.1752(11) 0.4651(7) 0.0664(5)
C2_3 C 0.0965(14) 0.4756(10) 0.1701(7)
N1_3 N 0.0647(11) 0.1927(7) 0.2335(6)
C3_3 C 0.9597(13) 0.2872(9) 0.3969(7)
C4_3 C 0.9035(14) 0.3791(10) 0.4965(7)
loop_
_geom_bond_atom_site_label_1
_geom_bond_atom_site_label_2
_geom_bond_site_symmetry_1
_geom_bond_site_symmetry_2
O1 H1 1_555 1_555
Sm4_2 O1 1_555 1_555
Sm1 O1_2 1_555 1_555
H2 O1_2 1_555 1_555
O7 Sm1 1_555 1_555
O9 Sm1 1_555 1_555
N4 Sm1 1_555 1_555
Sm2_2 O8 1_555 1_555
O5 Sm4 1_555 1_555
O8 C4 1_555 1_555
C4 C3 1_555 1_555
N3 N2 1_555 1_555
Sm2_2 N3 1_555 1_555
C3 N3 1_555 1_555
O5 C4 1_555 1_555
C1 C2 1_555 1_555
O2 C2 1_555 1_555
O3 Sm1_2 1_555 1_555
C2 O3 1_555 1_555
N1 Sm1_2 1_555 1_555
N2_2 N1 1_555 1_555
Sm4_2 O2 1_555 1_555
O4 Sm1_2 1_555 1_555
H3 O4 1_555 1_555
H4 O4 1_555 1_555
O6 Sm1_2 1_555 1_555
C1 N1 1_555 1_555
Sm4_2 O8_2 1_555 1_555
H4_2 O4_2 1_555 1_555
O8_2 C4_2 1_555 1_555
C4_2 C3_2 1_555 1_555
N3_2 N5 1_555 1_555
Sm4_2 N3_2 1_555 1_555
C3_2 N3_2 1_555 1_555
O7 C4_2 1_555 1_555
C1_2 C2_2 1_555 1_555
O6 C2_2 1_555 1_555
O3_2 Sm2 1_555 1_555
C2_2 O3_2 1_555 1_555
N1_2 Sm2 1_555 1_555
N5_2 N1_2 1_555 1_555
O4_3 Sm2 1_555 1_555
H3_2 O4_3 1_555 1_555
O6_2 Sm2 1_555 1_555
C1_2 N1_2 1_555 1_555
Sm2_2 O4 1_555 1_555
O7_2 Sm2_2 1_555 1_555
Sm4 O4_2 1_555 1_555
C1_3 C2_3 1_555 1_555
O6_2 C2_3 1_555 1_555
O3_3 Sm4 1_555 1_555
C2_3 O3_3 1_555 1_555
N1_3 Sm4 1_555 1_555
N5_3 N1_3 1_555 1_555
C1_3 N1_3 1_555 1_555
O9 C4_3 1_555 1_555
C4_3 C3_3 1_555 1_555
N4 N5_4 1_555 1_555
C3_3 N4 1_555 1_555
O7_2 C4_3 1_555 1_555

#END
