
###############################################################################
#
# This file contains modified crystal structure data generated from the
# MOF subset of the Cambridge Structural Database (CSD) v543 
# hosted by the Cambridge Crystallographic Data Centre (CCDC).
#
# This work is licensed under the Creative Commons
# Attribution-NonCommercial-ShareAlike 4.0 International License.
# To view a copy of this license, visit
# http://creativecommons.org/licenses/by-nc-sa/4.0/
# or send a letter to
# Creative Commons, PO Box 1866, Mountain View, CA 94042, USA.
#
# CIF created using the CSD Python API on 29 September 2022
# The structure has been converted into the P1 space group
# The structure has a 3D framework
# The original CSD entry NUVFAM is in the trigonal crystal system
# The original CSD entry NUVFAM is in a Sohncke space group
# The framework has been calculated to contain at least 10.0% void space
# The void calculation uses a probe of radius 1.32A, grid spacing 0.4
#
###############################################################################

data_NUVFAM
_chemical_formula_moiety         '(C12 H3 Gd5 N11 O14)n'
_symmetry_cell_setting           triclinic
_symmetry_space_group_name_H-M   'P 1'
_symmetry_Int_Tables_number      1
_space_group_name_Hall           'P 1'
loop_
_symmetry_equiv_pos_site_id
_symmetry_equiv_pos_as_xyz
1 x,y,z
_cell_length_a                   8.639(5)
_cell_length_b                   8.639(5)
_cell_length_c                   9.772(5)
_cell_angle_alpha                90
_cell_angle_beta                 90
_cell_angle_gamma                120
_cell_volume                     631.598
loop_
_atom_site_label
_atom_site_type_symbol
_atom_site_fract_x
_atom_site_fract_y
_atom_site_fract_z
Gd1 Gd 0.22438(5) -0.0000 0.1667
O1 O 0.2434(3) 0.2434(3) 0.0000
H1 H 0.3003 0.3576 0.0033
N4 N 0.1926(4) 0.1280(3) 0.3997
O7 O 0.4641(3) 0.0673(3) 0.0243
O9 O 0.4644(4) 0.2925(3) 0.2308
O1_2 O 0.2434(3) 0.2434(3) 1.0000
Gd2 Gd 0.0000 0.22438(5) 0.8334
H2 H 0.3576 0.3003 0.9967
Gd1_2 Gd 0.22438(5) 1.0000 0.1667
O3 O 0.1719(3) 0.7075(3) 0.1025
O4 O 0.0000(4) 0.7566(3) 0.3333
H3 H 0.0573 0.6997 0.3366
O6 O 0.3968(4) 0.9327(3) 0.3090
N1 N 0.0646(3) 0.8720(3) 0.9336
C1 C 0.0411(3) 0.7121(3) 0.8964
O2 O 0.0673(3) 0.4641(3) 0.9757
C2 C 0.0960(3) 0.6197(3) 0.9976
N5 N 0.9295(4) 0.0004(3) 0.1666
Gd2_2 Gd 1.0000 0.22438(5) 0.8334
O4_2 O 1.0000(4) 0.7566(3) 0.3333
H4 H 0.9427 0.6424 0.3300
N2 N 0.9996(3) 0.9291(3) 0.8333
Gd4 Gd 0.77562(5) 0.77562(5) 0.5000
N3 N 0.9354(3) 0.8074(4) 0.7331
C3 C 0.9589(3) 0.6710(4) 0.7703
O5 O 0.9327(3) 0.3968(4) 0.6910
O8 O 0.8281(3) 0.5356(4) 0.5642
C4 C 0.9040(3) 0.5237(4) 0.6691
N1_2 N 0.1280(3) 0.1926(4) 0.6003
N2_2 N 0.0709(3) 0.0705(4) 0.5000
C1_2 C 0.2879(3) 0.3290(4) 0.5631
O2_2 O 0.5359(3) 0.6032(4) 0.6424
O3_2 O 0.2925(3) 0.4644(4) 0.7692
C2_2 C 0.3803(3) 0.4763(4) 0.6643
C3_2 C 0.3290(4) 0.2879(5) 0.4369
O5_2 O 0.6032(4) 0.5359(5) 0.3576
C4_2 C 0.4763(4) 0.3803(5) 0.3357
N4_2 N 0.8720(3) 0.0646(5) 0.0664
O1_3 O 0.7566(3) 0.0000(4) 0.6667
H2_2 H 0.6997 0.0573 0.6634
O9_2 O 0.7075(3) 0.1719(5) 0.8975
O1_4 O 0.7566(3) 1.0000(4) 0.6667
H1_2 H 0.6424 0.9427 0.6700
C3_3 C 0.7121(5) 0.0411(3) 0.1036
C4_3 C 0.6197(5) 0.0960(3) 0.0024
N1_3 N 0.8074(4) 0.9354(3) 0.2669
C1_3 C 0.6710(4) 0.9589(3) 0.2297
O3_3 O 0.5356(4) 0.8281(3) 0.4358
C2_3 C 0.5237(4) 0.9040(3) 0.3309
N5_2 N 0.9291(5) 0.9996(3) 0.1667
N2_3 N 0.0004(3) 0.9295(4) 0.8334
loop_
_geom_bond_atom_site_label_1
_geom_bond_atom_site_label_2
_geom_bond_site_symmetry_1
_geom_bond_site_symmetry_2
Gd1 O1 1_555 1_555
O1 H1 1_555 1_555
N4 Gd1 1_555 1_555
O7 Gd1 1_555 1_555
O9 Gd1 1_555 1_555
Gd2 O1_2 1_555 1_555
H2 O1_2 1_555 1_555
O3 Gd1_2 1_555 1_555
O4 Gd1_2 1_555 1_555
H3 O4 1_555 1_555
O6 Gd1_2 1_555 1_555
C1 N1 1_555 1_555
O2 C2 1_555 1_555
C2 C1 1_555 1_555
Gd2 O2 1_555 1_555
H4 O4_2 1_555 1_555
Gd4 N3 1_555 1_555
N3 N2 1_555 1_555
O5 Gd2_2 1_555 1_555
O8 Gd4 1_555 1_555
C4 C3 1_555 1_555
N3 C3 1_555 1_555
O5 C4 1_555 1_555
O8 C4 1_555 1_555
N1_2 Gd2 1_555 1_555
N2_2 N1_2 1_555 1_555
C1_2 N1_2 1_555 1_555
O2_2 C2_2 1_555 1_555
O3_2 Gd2 1_555 1_555
C2_2 C1_2 1_555 1_555
Gd4 O2_2 1_555 1_555
N4 N2_2 1_555 1_555
C3_2 C1_2 1_555 1_555
O5_2 Gd4 1_555 1_555
C4_2 C3_2 1_555 1_555
O3_2 C2_2 1_555 1_555
N4 C3_2 1_555 1_555
O5_2 C4_2 1_555 1_555
O9 C4_2 1_555 1_555
Gd2_2 O1_3 1_555 1_555
H2_2 O1_3 1_555 1_555
O9_2 Gd2_2 1_555 1_555
O1_4 H1_2 1_555 1_555
Gd4 O1_4 1_555 1_555
N4_2 N5 1_555 1_555
C4_3 C3_3 1_555 1_555
N4_2 C3_3 1_555 1_555
O7 C4_3 1_555 1_555
Gd4 O4_2 1_555 1_555
N1_3 Gd4 1_555 1_555
C1_3 N1_3 1_555 1_555
O6 C2_3 1_555 1_555
O3_3 Gd4 1_555 1_555
C2_3 C1_3 1_555 1_555
O3_3 C2_3 1_555 1_555
N1 N2_3 1_555 1_555
N1_3 N5_2 1_555 1_555

#END
