
###############################################################################
#
# This file contains modified crystal structure data generated from the
# MOF subset of the Cambridge Structural Database (CSD) v543 
# hosted by the Cambridge Crystallographic Data Centre (CCDC).
#
# This work is licensed under the Creative Commons
# Attribution-NonCommercial-ShareAlike 4.0 International License.
# To view a copy of this license, visit
# http://creativecommons.org/licenses/by-nc-sa/4.0/
# or send a letter to
# Creative Commons, PO Box 1866, Mountain View, CA 94042, USA.
#
# CIF created using the CSD Python API on 29 September 2022
# The structure has been converted into the P1 space group
# The structure has a 3D framework
# The original CSD entry NUVXOT is in the cubic crystal system
# The framework has been calculated to contain at least 10.0% void space
# The void calculation uses a probe of radius 1.32A, grid spacing 0.4
#
###############################################################################

data_NUVXOT
_chemical_formula_moiety         '(C96 H48 N48 O56 Zn24)n'
_symmetry_cell_setting           triclinic
_symmetry_space_group_name_H-M   'P 1'
_symmetry_Int_Tables_number      1
_space_group_name_Hall           'P 1'
loop_
_symmetry_equiv_pos_site_id
_symmetry_equiv_pos_as_xyz
1 x,y,z
_cell_length_a                   20.123(2)
_cell_length_b                   20.123(2)
_cell_length_c                   20.123(2)
_cell_angle_alpha                90
_cell_angle_beta                 90
_cell_angle_gamma                90
_cell_volume                     8148.51
loop_
_atom_site_label
_atom_site_type_symbol
_atom_site_fract_x
_atom_site_fract_y
_atom_site_fract_z
Zn1 Zn 0.35581(3) 0.25061(3) 0.23074(3)
O1 O 0.30003(18) 0.30003(18) 0.30003(18)
O2 O 0.4467(2) 0.2827(3) 0.2423(3)
O3 O 0.4532(3) 0.2072(3) 0.1638(3)
C1 C 0.4796(3) 0.2500(4) 0.1993(4)
C2 C 0.5999(3) 0.2318(3) 0.1578(3)
H1 H 0.5918 0.1973 0.1281
C3 C 0.5513(3) 0.2634(3) 0.1958(4)
C4 C 0.5872(3) 0.3100(4) 0.2319(3)
H2 H 0.5690 0.3391 0.2628
N1 N 0.6510(2) 0.3070(3) 0.2161(3)
N2 N 0.6590(2) 0.2576(3) 0.1698(3)
Zn2 Zn 0.23074(3) 0.35581(3) 0.25061(3)
O4 O 0.2423(3) 0.4467(2) 0.2827(3)
O5 O 0.1638(3) 0.4532(3) 0.2072(3)
C5 C 0.1993(4) 0.4796(3) 0.2500(4)
C6 C 0.1578(3) 0.5999(3) 0.2318(3)
H3 H 0.1281 0.5918 0.1973
C7 C 0.1958(4) 0.5513(3) 0.2634(3)
C8 C 0.2319(3) 0.5872(3) 0.3100(4)
H4 H 0.2628 0.5690 0.3391
N3 N 0.2161(3) 0.6510(2) 0.3070(3)
N4 N 0.1698(3) 0.6590(2) 0.2576(3)
Zn3 Zn 0.25061(3) 0.23074(3) 0.35581(3)
O6 O 0.2827(3) 0.2423(3) 0.4467(2)
O7 O 0.2072(3) 0.1638(3) 0.4532(3)
C9 C 0.2500(4) 0.1993(4) 0.4796(3)
C10 C 0.2318(3) 0.1578(3) 0.5999(3)
H5 H 0.1973 0.1281 0.5918
C11 C 0.2634(3) 0.1958(4) 0.5513(3)
C12 C 0.3100(4) 0.2319(3) 0.5872(3)
H6 H 0.3391 0.2628 0.5690
N5 N 0.3070(3) 0.2161(3) 0.6510(2)
N6 N 0.2576(3) 0.1698(3) 0.6590(2)
Zn4 Zn 0.35581(3) 0.24939(3) 0.73074(3)
Zn5 Zn 0.14419(3) 0.75061(3) 0.23074(3)
Zn6 Zn 0.73074(3) 0.35581(3) 0.24939(3)
Zn7 Zn 0.23074(3) 0.14419(3) 0.75061(3)
Zn8 Zn 0.24939(3) 0.73074(3) 0.35581(3)
Zn9 Zn 0.75061(3) 0.23074(3) 0.14419(3)
N7 N 0.1510(2) 0.3070(3) 0.2839(3)
N8 N 0.2839(3) 0.1510(2) 0.3070(3)
N9 N 0.3070(3) 0.2839(3) 0.1510(2)
N10 N 0.1590(2) 0.2576(3) 0.3302(3)
N11 N 0.3302(3) 0.1590(2) 0.2576(3)
N12 N 0.2576(3) 0.3302(3) 0.1590(2)
C10_2 C 0.2682(3) 0.8422(3) 0.0999(3)
H5_2 H 0.3027 0.8719 0.0918
C11_2 C 0.2366(3) 0.8042(4) 0.0513(3)
C12_2 C 0.1900(4) 0.7681(3) 0.0872(3)
H6_2 H 0.1609 0.7372 0.0690
N5_2 N 0.1930(3) 0.7839(3) 0.1510(2)
N6_2 N 0.2424(3) 0.8302(3) 0.1590(2)
Zn7_2 Zn 0.26926(3) 0.85581(3) 0.25061(3)
Zn1_2 Zn 0.14419(3) 0.74939(3) 0.73074(3)
O1_2 O 0.19997(18) 0.69997(18) 0.80003(18)
O2_2 O 0.0533(2) 0.7173(3) 0.7423(3)
O3_2 O 0.0468(3) 0.7928(3) 0.6638(3)
C1_2 C 0.0204(3) 0.7500(4) 0.6993(4)
Zn2_2 Zn 0.26926(3) 0.64419(3) 0.75061(3)
O4_2 O 0.2577(3) 0.5533(2) 0.7827(3)
O5_2 O 0.3362(3) 0.5468(3) 0.7072(3)
C5_2 C 0.3007(4) 0.5204(3) 0.7500(4)
C6_2 C 0.3422(3) 0.4001(3) 0.7318(3)
H3_2 H 0.3719 0.4082 0.6973
C7_2 C 0.3042(4) 0.4487(3) 0.7634(3)
C8_2 C 0.2681(3) 0.4128(3) 0.8100(4)
H4_2 H 0.2372 0.4310 0.8391
N3_2 N 0.2839(3) 0.3490(2) 0.8070(3)
N4_2 N 0.3302(3) 0.3410(2) 0.7576(3)
Zn3_2 Zn 0.24939(3) 0.76926(3) 0.85581(3)
O6_2 O 0.2173(3) 0.7577(3) 0.9467(2)
O7_2 O 0.2928(3) 0.8362(3) 0.9532(3)
C9_2 C 0.2500(4) 0.8007(4) 0.9796(3)
Zn8_2 Zn 0.25061(3) 0.26926(3) 0.85581(3)
N7_2 N 0.3490(2) 0.6930(3) 0.7839(3)
N8_2 N 0.2161(3) 0.8490(2) 0.8070(3)
N9_2 N 0.1930(3) 0.7161(3) 0.6510(2)
N10_2 N 0.3410(2) 0.7424(3) 0.8302(3)
N11_2 N 0.1698(3) 0.8410(2) 0.7576(3)
N12_2 N 0.2424(3) 0.6698(3) 0.6590(2)
C2_2 C 0.9001(3) 0.7682(3) 0.6578(3)
H1_2 H 0.9082 0.8027 0.6281
C3_2 C 0.9487(3) 0.7366(3) 0.6958(4)
C4_2 C 0.9128(3) 0.6900(4) 0.7319(3)
H2_2 H 0.9310 0.6609 0.7628
N1_2 N 0.8490(2) 0.6930(3) 0.7161(3)
N2_2 N 0.8410(2) 0.7424(3) 0.6698(3)
Zn6_2 Zn 0.76926(3) 0.64419(3) 0.74939(3)
Zn9_2 Zn 0.74939(3) 0.76926(3) 0.64419(3)
C6_3 C 0.8422(3) 0.0999(3) 0.2682(3)
H3_3 H 0.8719 0.0918 0.3027
C7_3 C 0.8042(4) 0.0513(3) 0.2366(3)
C8_3 C 0.7681(3) 0.0872(3) 0.1900(4)
H4_3 H 0.7372 0.0690 0.1609
N3_3 N 0.7839(3) 0.1510(2) 0.1930(3)
N4_3 N 0.8302(3) 0.1590(2) 0.2424(3)
Zn5_2 Zn 0.85581(3) 0.25061(3) 0.26926(3)
Zn1_3 Zn 0.64419(3) 0.75061(3) 0.26926(3)
O1_3 O 0.69997(18) 0.80003(18) 0.19997(18)
O2_3 O 0.5533(2) 0.7827(3) 0.2577(3)
O3_3 O 0.5468(3) 0.7072(3) 0.3362(3)
C1_3 C 0.5204(3) 0.7500(4) 0.3007(4)
C2_3 C 0.4001(3) 0.7318(3) 0.3422(3)
H1_3 H 0.4082 0.6973 0.3719
C3_3 C 0.4487(3) 0.7634(3) 0.3042(4)
C4_3 C 0.4128(3) 0.8100(4) 0.2681(3)
H2_3 H 0.4310 0.8391 0.2372
N1_3 N 0.3490(2) 0.8070(3) 0.2839(3)
N2_3 N 0.3410(2) 0.7576(3) 0.3302(3)
Zn2_3 Zn 0.76926(3) 0.85581(3) 0.24939(3)
O4_3 O 0.7577(3) 0.9467(2) 0.2173(3)
O5_3 O 0.8362(3) 0.9532(3) 0.2928(3)
C5_3 C 0.8007(4) 0.9796(3) 0.2500(4)
Zn3_3 Zn 0.74939(3) 0.73074(3) 0.14419(3)
O6_3 O 0.7173(3) 0.7423(3) 0.0533(2)
O7_3 O 0.7928(3) 0.6638(3) 0.0468(3)
C9_3 C 0.7500(4) 0.6993(4) 0.0204(3)
N7_3 N 0.8490(2) 0.8070(3) 0.2161(3)
N8_3 N 0.7161(3) 0.6510(2) 0.1930(3)
N9_3 N 0.6930(3) 0.7839(3) 0.3490(2)
N10_3 N 0.8410(2) 0.7576(3) 0.1698(3)
N11_3 N 0.6698(3) 0.6590(2) 0.2424(3)
N12_3 N 0.7424(3) 0.8302(3) 0.3410(2)
C10_3 C 0.7682(3) 0.6578(3) 0.9001(3)
H5_3 H 0.8027 0.6281 0.9082
C11_3 C 0.7366(3) 0.6958(4) 0.9487(3)
C12_3 C 0.6900(4) 0.7319(3) 0.9128(3)
H6_3 H 0.6609 0.7628 0.9310
N5_3 N 0.6930(3) 0.7161(3) 0.8490(2)
N6_3 N 0.7424(3) 0.6698(3) 0.8410(2)
Zn4_2 Zn 0.64419(3) 0.74939(3) 0.76926(3)
C2_4 C 0.0999(3) 0.2682(3) 0.8422(3)
H1_4 H 0.0918 0.3027 0.8719
C3_4 C 0.0513(3) 0.2366(3) 0.8042(4)
C4_4 C 0.0872(3) 0.1900(4) 0.7681(3)
H2_4 H 0.0690 0.1609 0.7372
N1_4 N 0.1510(2) 0.1930(3) 0.7839(3)
N2_4 N 0.1590(2) 0.2424(3) 0.8302(3)
Zn1_4 Zn 0.85581(3) 0.24939(3) 0.76926(3)
O1_4 O 0.80003(18) 0.19997(18) 0.69997(18)
O2_4 O 0.9467(2) 0.2173(3) 0.7577(3)
O3_4 O 0.9532(3) 0.2928(3) 0.8362(3)
C1_4 C 0.9796(3) 0.2500(4) 0.8007(4)
Zn2_4 Zn 0.73074(3) 0.14419(3) 0.74939(3)
O4_4 O 0.7423(3) 0.0533(2) 0.7173(3)
O5_4 O 0.6638(3) 0.0468(3) 0.7928(3)
C5_4 C 0.6993(4) 0.0204(3) 0.7500(4)
Zn3_4 Zn 0.75061(3) 0.26926(3) 0.64419(3)
O6_4 O 0.7827(3) 0.2577(3) 0.5533(2)
O7_4 O 0.7072(3) 0.3362(3) 0.5468(3)
C9_4 C 0.7500(4) 0.3007(4) 0.5204(3)
C10_4 C 0.7318(3) 0.3422(3) 0.4001(3)
H5_4 H 0.6973 0.3719 0.4082
C11_4 C 0.7634(3) 0.3042(4) 0.4487(3)
C12_4 C 0.8100(4) 0.2681(3) 0.4128(3)
H6_4 H 0.8391 0.2372 0.4310
N5_4 N 0.8070(3) 0.2839(3) 0.3490(2)
N6_4 N 0.7576(3) 0.3302(3) 0.3410(2)
N7_4 N 0.6510(2) 0.1930(3) 0.7161(3)
N8_4 N 0.7839(3) 0.3490(2) 0.6930(3)
N9_4 N 0.8070(3) 0.2161(3) 0.8490(2)
N10_4 N 0.6590(2) 0.2424(3) 0.6698(3)
N11_4 N 0.8302(3) 0.3410(2) 0.7424(3)
N12_4 N 0.7576(3) 0.1698(3) 0.8410(2)
C6_4 C 0.6578(3) 0.9001(3) 0.7682(3)
H3_4 H 0.6281 0.9082 0.8027
C7_4 C 0.6958(4) 0.9487(3) 0.7366(3)
C8_4 C 0.7319(3) 0.9128(3) 0.6900(4)
H4_4 H 0.7628 0.9310 0.6609
N3_4 N 0.7161(3) 0.8490(2) 0.6930(3)
N4_4 N 0.6698(3) 0.8410(2) 0.7424(3)
O1_5 O 0.69997(18) 0.69997(18) 0.69997(18)
O2_5 O 0.5533(2) 0.7173(3) 0.7577(3)
O3_5 O 0.5468(3) 0.7928(3) 0.8362(3)
C1_5 C 0.5204(3) 0.7500(4) 0.8007(4)
C2_5 C 0.4001(3) 0.7682(3) 0.8422(3)
H1_5 H 0.4082 0.8027 0.8719
C3_5 C 0.4487(3) 0.7366(3) 0.8042(4)
C4_5 C 0.4128(3) 0.6900(4) 0.7681(3)
H2_5 H 0.4310 0.6609 0.7372
O4_5 O 0.7577(3) 0.5533(2) 0.7173(3)
O5_5 O 0.8362(3) 0.5468(3) 0.7928(3)
C5_5 C 0.8007(4) 0.5204(3) 0.7500(4)
C6_5 C 0.8422(3) 0.4001(3) 0.7682(3)
H3_5 H 0.8719 0.4082 0.8027
C7_5 C 0.8042(4) 0.4487(3) 0.7366(3)
C8_5 C 0.7681(3) 0.4128(3) 0.6900(4)
H4_5 H 0.7372 0.4310 0.6609
O6_5 O 0.7173(3) 0.7577(3) 0.5533(2)
O7_5 O 0.7928(3) 0.8362(3) 0.5468(3)
C9_5 C 0.7500(4) 0.8007(4) 0.5204(3)
C10_5 C 0.7682(3) 0.8422(3) 0.4001(3)
H5_5 H 0.8027 0.8719 0.4082
C11_5 C 0.7366(3) 0.8042(4) 0.4487(3)
C12_5 C 0.6900(4) 0.7681(3) 0.4128(3)
H6_5 H 0.6609 0.7372 0.4310
C2_6 C 0.0999(3) 0.2318(3) 0.3422(3)
H1_6 H 0.0918 0.1973 0.3719
C3_6 C 0.0513(3) 0.2634(3) 0.3042(4)
C4_6 C 0.0872(3) 0.3100(4) 0.2681(3)
H2_6 H 0.0690 0.3391 0.2372
O1_6 O 0.80003(18) 0.30003(18) 0.19997(18)
O2_6 O 0.9467(2) 0.2827(3) 0.2577(3)
O3_6 O 0.9532(3) 0.2072(3) 0.3362(3)
C1_6 C 0.9796(3) 0.2500(4) 0.3007(4)
O4_6 O 0.7423(3) 0.4467(2) 0.2173(3)
O5_6 O 0.6638(3) 0.4532(3) 0.2928(3)
C5_6 C 0.6993(4) 0.4796(3) 0.2500(4)
C6_6 C 0.6578(3) 0.5999(3) 0.2682(3)
H3_6 H 0.6281 0.5918 0.3027
C7_6 C 0.6958(4) 0.5513(3) 0.2366(3)
C8_6 C 0.7319(3) 0.5872(3) 0.1900(4)
H4_6 H 0.7628 0.5690 0.1609
O6_6 O 0.7827(3) 0.2423(3) 0.0533(2)
O7_6 O 0.7072(3) 0.1638(3) 0.0468(3)
C9_6 C 0.7500(4) 0.1993(4) 0.0204(3)
C10_6 C 0.7318(3) 0.1578(3) 0.9001(3)
H5_6 H 0.6973 0.1281 0.9082
C11_6 C 0.7634(3) 0.1958(4) 0.9487(3)
C12_6 C 0.8100(4) 0.2319(3) 0.9128(3)
H6_6 H 0.8391 0.2628 0.9310
C10_7 C 0.2318(3) 0.3422(3) 0.0999(3)
H5_7 H 0.1973 0.3719 0.0918
C11_7 C 0.2634(3) 0.3042(4) 0.0513(3)
C12_7 C 0.3100(4) 0.2681(3) 0.0872(3)
H6_7 H 0.3391 0.2372 0.0690
O1_7 O 0.30003(18) 0.19997(18) 0.80003(18)
O2_7 O 0.4467(2) 0.2173(3) 0.7423(3)
O3_7 O 0.4532(3) 0.2928(3) 0.6638(3)
C1_7 C 0.4796(3) 0.2500(4) 0.6993(4)
C2_7 C 0.5999(3) 0.2682(3) 0.6578(3)
H1_7 H 0.5918 0.3027 0.6281
C3_7 C 0.5513(3) 0.2366(3) 0.6958(4)
C4_7 C 0.5872(3) 0.1900(4) 0.7319(3)
H2_7 H 0.5690 0.1609 0.7628
O4_7 O 0.2423(3) 0.0533(2) 0.7827(3)
O5_7 O 0.1638(3) 0.0468(3) 0.7072(3)
C5_7 C 0.1993(4) 0.0204(3) 0.7500(4)
O6_7 O 0.2827(3) 0.2577(3) 0.9467(2)
O7_7 O 0.2072(3) 0.3362(3) 0.9532(3)
C9_7 C 0.2500(4) 0.3007(4) 0.9796(3)
C6_7 C 0.1578(3) 0.9001(3) 0.7318(3)
H3_7 H 0.1281 0.9082 0.6973
C7_7 C 0.1958(4) 0.9487(3) 0.7634(3)
C8_7 C 0.2319(3) 0.9128(3) 0.8100(4)
H4_7 H 0.2628 0.9310 0.8391
C6_8 C 0.3422(3) 0.0999(3) 0.2318(3)
H3_8 H 0.3719 0.0918 0.1973
C7_8 C 0.3042(4) 0.0513(3) 0.2634(3)
C8_8 C 0.2681(3) 0.0872(3) 0.3100(4)
H4_8 H 0.2372 0.0690 0.3391
O1_8 O 0.19997(18) 0.80003(18) 0.30003(18)
O2_8 O 0.0533(2) 0.7827(3) 0.2423(3)
O3_8 O 0.0468(3) 0.7072(3) 0.1638(3)
C1_8 C 0.0204(3) 0.7500(4) 0.1993(4)
O4_8 O 0.2577(3) 0.9467(2) 0.2827(3)
O5_8 O 0.3362(3) 0.9532(3) 0.2072(3)
C5_8 C 0.3007(4) 0.9796(3) 0.2500(4)
O6_8 O 0.2173(3) 0.7423(3) 0.4467(2)
O7_8 O 0.2928(3) 0.6638(3) 0.4532(3)
C9_8 C 0.2500(4) 0.6993(4) 0.4796(3)
C10_8 C 0.2682(3) 0.6578(3) 0.5999(3)
H5_8 H 0.3027 0.6281 0.5918
C11_8 C 0.2366(3) 0.6958(4) 0.5513(3)
C12_8 C 0.1900(4) 0.7319(3) 0.5872(3)
H6_8 H 0.1609 0.7628 0.5690
C2_8 C 0.9001(3) 0.7318(3) 0.1578(3)
H1_8 H 0.9082 0.6973 0.1281
C3_8 C 0.9487(3) 0.7634(3) 0.1958(4)
C4_8 C 0.9128(3) 0.8100(4) 0.2319(3)
H2_8 H 0.9310 0.8391 0.2628
loop_
_geom_bond_atom_site_label_1
_geom_bond_atom_site_label_2
_geom_bond_site_symmetry_1
_geom_bond_site_symmetry_2
Zn1 O1 1_555 1_555
O1 Zn2 1_555 1_555
O2 Zn1 1_555 1_555
O3 Zn1 1_555 1_555
C1 O2 1_555 1_555
C2 H1 1_555 1_555
C3 C1 1_555 1_555
C4 C3 1_555 1_555
H2 C4 1_555 1_555
N1 C4 1_555 1_555
N2 C2 1_555 1_555
Zn2 O4 1_555 1_555
O4 C5 1_555 1_555
O5 Zn2 1_555 1_555
C5 O5 1_555 1_555
C6 H3 1_555 1_555
C7 C5 1_555 1_555
C8 C7 1_555 1_555
H4 C8 1_555 1_555
N3 C8 1_555 1_555
N4 C6 1_555 1_555
Zn3 O1 1_555 1_555
O6 Zn3 1_555 1_555
O7 Zn3 1_555 1_555
C9 O6 1_555 1_555
C10 H5 1_555 1_555
C11 C9 1_555 1_555
C12 C11 1_555 1_555
H6 C12 1_555 1_555
N5 C12 1_555 1_555
N6 C10 1_555 1_555
Zn4 N5 1_555 1_555
Zn5 N4 1_555 1_555
Zn6 N1 1_555 1_555
Zn7 N6 1_555 1_555
Zn8 N3 1_555 1_555
Zn9 N2 1_555 1_555
N7 Zn2 1_555 1_555
N8 Zn3 1_555 1_555
N9 Zn1 1_555 1_555
N10 Zn3 1_555 1_555
N11 Zn1 1_555 1_555
N12 Zn2 1_555 1_555
O3 C1 1_555 1_555
C2 C3 1_555 1_555
N1 N2 1_555 1_555
C6 C7 1_555 1_555
N3 N4 1_555 1_555
O7 C9 1_555 1_555
C10 C11 1_555 1_555
N5 N6 1_555 1_555
N7 N10 1_555 1_555
N8 N11 1_555 1_555
N9 N12 1_555 1_555
C10_2 H5_2 1_555 1_555
C12_2 C11_2 1_555 1_555
H6_2 C12_2 1_555 1_555
N5_2 C12_2 1_555 1_555
N6_2 C10_2 1_555 1_555
Zn5 N5_2 1_555 1_555
Zn7_2 N6_2 1_555 1_555
C10_2 C11_2 1_555 1_555
N5_2 N6_2 1_555 1_555
Zn1_2 O1_2 1_555 1_555
O1_2 Zn2_2 1_555 1_555
O2_2 Zn1_2 1_555 1_555
O3_2 Zn1_2 1_555 1_555
C1_2 O2_2 1_555 1_555
Zn2_2 O4_2 1_555 1_555
O4_2 C5_2 1_555 1_555
O5_2 Zn2_2 1_555 1_555
C5_2 O5_2 1_555 1_555
C6_2 H3_2 1_555 1_555
C7_2 C5_2 1_555 1_555
C8_2 C7_2 1_555 1_555
H4_2 C8_2 1_555 1_555
N3_2 C8_2 1_555 1_555
N4_2 C6_2 1_555 1_555
Zn3_2 O1_2 1_555 1_555
O6_2 Zn3_2 1_555 1_555
O7_2 Zn3_2 1_555 1_555
C9_2 O6_2 1_555 1_555
Zn4 N4_2 1_555 1_555
Zn8_2 N3_2 1_555 1_555
N7_2 Zn2_2 1_555 1_555
N8_2 Zn3_2 1_555 1_555
N9_2 Zn1_2 1_555 1_555
N10_2 Zn3_2 1_555 1_555
N11_2 Zn1_2 1_555 1_555
N12_2 Zn2_2 1_555 1_555
O3_2 C1_2 1_555 1_555
C6_2 C7_2 1_555 1_555
N3_2 N4_2 1_555 1_555
O7_2 C9_2 1_555 1_555
N7_2 N10_2 1_555 1_555
N8_2 N11_2 1_555 1_555
N9_2 N12_2 1_555 1_555
C2_2 H1_2 1_555 1_555
C4_2 C3_2 1_555 1_555
H2_2 C4_2 1_555 1_555
N1_2 C4_2 1_555 1_555
N2_2 C2_2 1_555 1_555
Zn6_2 N1_2 1_555 1_555
Zn9_2 N2_2 1_555 1_555
C2_2 C3_2 1_555 1_555
N1_2 N2_2 1_555 1_555
C6_3 H3_3 1_555 1_555
C8_3 C7_3 1_555 1_555
H4_3 C8_3 1_555 1_555
N3_3 C8_3 1_555 1_555
N4_3 C6_3 1_555 1_555
Zn5_2 N4_3 1_555 1_555
Zn9 N3_3 1_555 1_555
C6_3 C7_3 1_555 1_555
N3_3 N4_3 1_555 1_555
Zn1_3 O1_3 1_555 1_555
O1_3 Zn2_3 1_555 1_555
O2_3 Zn1_3 1_555 1_555
O3_3 Zn1_3 1_555 1_555
C1_3 O2_3 1_555 1_555
C2_3 H1_3 1_555 1_555
C3_3 C1_3 1_555 1_555
C4_3 C3_3 1_555 1_555
H2_3 C4_3 1_555 1_555
N1_3 C4_3 1_555 1_555
N2_3 C2_3 1_555 1_555
Zn2_3 O4_3 1_555 1_555
O4_3 C5_3 1_555 1_555
O5_3 Zn2_3 1_555 1_555
C5_3 O5_3 1_555 1_555
Zn3_3 O1_3 1_555 1_555
O6_3 Zn3_3 1_555 1_555
O7_3 Zn3_3 1_555 1_555
C9_3 O6_3 1_555 1_555
Zn7_2 N1_3 1_555 1_555
Zn8 N2_3 1_555 1_555
N7_3 Zn2_3 1_555 1_555
N8_3 Zn3_3 1_555 1_555
N9_3 Zn1_3 1_555 1_555
N10_3 Zn3_3 1_555 1_555
N11_3 Zn1_3 1_555 1_555
N12_3 Zn2_3 1_555 1_555
O3_3 C1_3 1_555 1_555
C2_3 C3_3 1_555 1_555
N1_3 N2_3 1_555 1_555
O7_3 C9_3 1_555 1_555
N7_3 N10_3 1_555 1_555
N8_3 N11_3 1_555 1_555
N9_3 N12_3 1_555 1_555
C10_3 H5_3 1_555 1_555
C12_3 C11_3 1_555 1_555
H6_3 C12_3 1_555 1_555
N5_3 C12_3 1_555 1_555
N6_3 C10_3 1_555 1_555
Zn4_2 N5_3 1_555 1_555
Zn6_2 N6_3 1_555 1_555
C10_3 C11_3 1_555 1_555
N5_3 N6_3 1_555 1_555
C2_4 H1_4 1_555 1_555
C4_4 C3_4 1_555 1_555
H2_4 C4_4 1_555 1_555
N1_4 C4_4 1_555 1_555
N2_4 C2_4 1_555 1_555
Zn7 N1_4 1_555 1_555
Zn8_2 N2_4 1_555 1_555
C2_4 C3_4 1_555 1_555
N1_4 N2_4 1_555 1_555
Zn1_4 O1_4 1_555 1_555
O1_4 Zn2_4 1_555 1_555
O2_4 Zn1_4 1_555 1_555
O3_4 Zn1_4 1_555 1_555
C1_4 O2_4 1_555 1_555
Zn2_4 O4_4 1_555 1_555
O4_4 C5_4 1_555 1_555
O5_4 Zn2_4 1_555 1_555
C5_4 O5_4 1_555 1_555
Zn3_4 O1_4 1_555 1_555
O6_4 Zn3_4 1_555 1_555
O7_4 Zn3_4 1_555 1_555
C9_4 O6_4 1_555 1_555
C10_4 H5_4 1_555 1_555
C11_4 C9_4 1_555 1_555
C12_4 C11_4 1_555 1_555
H6_4 C12_4 1_555 1_555
N5_4 C12_4 1_555 1_555
N6_4 C10_4 1_555 1_555
Zn5_2 N5_4 1_555 1_555
Zn6 N6_4 1_555 1_555
N7_4 Zn2_4 1_555 1_555
N8_4 Zn3_4 1_555 1_555
N9_4 Zn1_4 1_555 1_555
N10_4 Zn3_4 1_555 1_555
N11_4 Zn1_4 1_555 1_555
N12_4 Zn2_4 1_555 1_555
O3_4 C1_4 1_555 1_555
O7_4 C9_4 1_555 1_555
C10_4 C11_4 1_555 1_555
N5_4 N6_4 1_555 1_555
N7_4 N10_4 1_555 1_555
N8_4 N11_4 1_555 1_555
N9_4 N12_4 1_555 1_555
C6_4 H3_4 1_555 1_555
C8_4 C7_4 1_555 1_555
H4_4 C8_4 1_555 1_555
N3_4 C8_4 1_555 1_555
N4_4 C6_4 1_555 1_555
Zn4_2 N4_4 1_555 1_555
Zn9_2 N3_4 1_555 1_555
C6_4 C7_4 1_555 1_555
N3_4 N4_4 1_555 1_555
Zn4_2 O1_5 1_555 1_555
O1_5 Zn6_2 1_555 1_555
O2_5 Zn4_2 1_555 1_555
O3_5 Zn4_2 1_555 1_555
C1_5 O2_5 1_555 1_555
C2_5 H1_5 1_555 1_555
C3_5 C1_5 1_555 1_555
C4_5 C3_5 1_555 1_555
H2_5 C4_5 1_555 1_555
N7_2 C4_5 1_555 1_555
N10_2 C2_5 1_555 1_555
Zn6_2 O4_5 1_555 1_555
O4_5 C5_5 1_555 1_555
O5_5 Zn6_2 1_555 1_555
C5_5 O5_5 1_555 1_555
C6_5 H3_5 1_555 1_555
C7_5 C5_5 1_555 1_555
C8_5 C7_5 1_555 1_555
H4_5 C8_5 1_555 1_555
N8_4 C8_5 1_555 1_555
N11_4 C6_5 1_555 1_555
Zn9_2 O1_5 1_555 1_555
O6_5 Zn9_2 1_555 1_555
O7_5 Zn9_2 1_555 1_555
C9_5 O6_5 1_555 1_555
C10_5 H5_5 1_555 1_555
C11_5 C9_5 1_555 1_555
C12_5 C11_5 1_555 1_555
H6_5 C12_5 1_555 1_555
N9_3 C12_5 1_555 1_555
N12_3 C10_5 1_555 1_555
O3_5 C1_5 1_555 1_555
C2_5 C3_5 1_555 1_555
C6_5 C7_5 1_555 1_555
O7_5 C9_5 1_555 1_555
C10_5 C11_5 1_555 1_555
C2_6 H1_6 1_555 1_555
C4_6 C3_6 1_555 1_555
H2_6 C4_6 1_555 1_555
N7 C4_6 1_555 1_555
N10 C2_6 1_555 1_555
C2_6 C3_6 1_555 1_555
Zn5_2 O1_6 1_555 1_555
O1_6 Zn6 1_555 1_555
O2_6 Zn5_2 1_555 1_555
O3_6 Zn5_2 1_555 1_555
C1_6 O2_6 1_555 1_555
Zn6 O4_6 1_555 1_555
O4_6 C5_6 1_555 1_555
O5_6 Zn6 1_555 1_555
C5_6 O5_6 1_555 1_555
C6_6 H3_6 1_555 1_555
C7_6 C5_6 1_555 1_555
C8_6 C7_6 1_555 1_555
H4_6 C8_6 1_555 1_555
N8_3 C8_6 1_555 1_555
N11_3 C6_6 1_555 1_555
Zn9 O1_6 1_555 1_555
O6_6 Zn9 1_555 1_555
O7_6 Zn9 1_555 1_555
C9_6 O6_6 1_555 1_555
O3_6 C1_6 1_555 1_555
C6_6 C7_6 1_555 1_555
O7_6 C9_6 1_555 1_555
C10_6 H5_6 1_555 1_555
C12_6 C11_6 1_555 1_555
H6_6 C12_6 1_555 1_555
N9_4 C12_6 1_555 1_555
N12_4 C10_6 1_555 1_555
C10_6 C11_6 1_555 1_555
C10_7 H5_7 1_555 1_555
C12_7 C11_7 1_555 1_555
H6_7 C12_7 1_555 1_555
N9 C12_7 1_555 1_555
N12 C10_7 1_555 1_555
C10_7 C11_7 1_555 1_555
Zn4 O1_7 1_555 1_555
O1_7 Zn7 1_555 1_555
O2_7 Zn4 1_555 1_555
O3_7 Zn4 1_555 1_555
C1_7 O2_7 1_555 1_555
C2_7 H1_7 1_555 1_555
C3_7 C1_7 1_555 1_555
C4_7 C3_7 1_555 1_555
H2_7 C4_7 1_555 1_555
N7_4 C4_7 1_555 1_555
N10_4 C2_7 1_555 1_555
Zn7 O4_7 1_555 1_555
O4_7 C5_7 1_555 1_555
O5_7 Zn7 1_555 1_555
C5_7 O5_7 1_555 1_555
Zn8_2 O1_7 1_555 1_555
O6_7 Zn8_2 1_555 1_555
O7_7 Zn8_2 1_555 1_555
C9_7 O6_7 1_555 1_555
O3_7 C1_7 1_555 1_555
C2_7 C3_7 1_555 1_555
O7_7 C9_7 1_555 1_555
C6_7 H3_7 1_555 1_555
C8_7 C7_7 1_555 1_555
H4_7 C8_7 1_555 1_555
N8_2 C8_7 1_555 1_555
N11_2 C6_7 1_555 1_555
C6_7 C7_7 1_555 1_555
C6_8 H3_8 1_555 1_555
C8_8 C7_8 1_555 1_555
H4_8 C8_8 1_555 1_555
N8 C8_8 1_555 1_555
N11 C6_8 1_555 1_555
C6_8 C7_8 1_555 1_555
Zn5 O1_8 1_555 1_555
O1_8 Zn7_2 1_555 1_555
O2_8 Zn5 1_555 1_555
O3_8 Zn5 1_555 1_555
C1_8 O2_8 1_555 1_555
Zn7_2 O4_8 1_555 1_555
O4_8 C5_8 1_555 1_555
O5_8 Zn7_2 1_555 1_555
C5_8 O5_8 1_555 1_555
Zn8 O1_8 1_555 1_555
O6_8 Zn8 1_555 1_555
O7_8 Zn8 1_555 1_555
C9_8 O6_8 1_555 1_555
C10_8 H5_8 1_555 1_555
C11_8 C9_8 1_555 1_555
C12_8 C11_8 1_555 1_555
H6_8 C12_8 1_555 1_555
N9_2 C12_8 1_555 1_555
N12_2 C10_8 1_555 1_555
O3_8 C1_8 1_555 1_555
O7_8 C9_8 1_555 1_555
C10_8 C11_8 1_555 1_555
C2_8 H1_8 1_555 1_555
C4_8 C3_8 1_555 1_555
H2_8 C4_8 1_555 1_555
N7_3 C4_8 1_555 1_555
N10_3 C2_8 1_555 1_555
C2_8 C3_8 1_555 1_555

#END
