
###############################################################################
#
# This file contains modified crystal structure data generated from the
# MOF subset of the Cambridge Structural Database (CSD) v543 
# hosted by the Cambridge Crystallographic Data Centre (CCDC).
#
# This work is licensed under the Creative Commons
# Attribution-NonCommercial-ShareAlike 4.0 International License.
# To view a copy of this license, visit
# http://creativecommons.org/licenses/by-nc-sa/4.0/
# or send a letter to
# Creative Commons, PO Box 1866, Mountain View, CA 94042, USA.
#
# CIF created using the CSD Python API on 29 September 2022
# The structure has been converted into the P1 space group
# The structure has a 3D framework
# The original CSD entry NUVYIN is in the monoclinic crystal system
# The framework has been calculated to contain at least 10.0% void space
# The void calculation uses a probe of radius 1.32A, grid spacing 0.4
#
###############################################################################

data_NUVYIN
_chemical_formula_moiety         '(C240 H168 N24 Ni14 O64)n'
_symmetry_cell_setting           triclinic
_symmetry_space_group_name_H-M   'P 1'
_symmetry_Int_Tables_number      1
_space_group_name_Hall           'P 1'
loop_
_symmetry_equiv_pos_site_id
_symmetry_equiv_pos_as_xyz
1 x,y,z
_cell_length_a                   17.0025(14)
_cell_length_b                   36.907(3)
_cell_length_c                   11.2149(10)
_cell_angle_alpha                90
_cell_angle_beta                 94.907(2)
_cell_angle_gamma                90
_cell_volume                     7011.68
loop_
_atom_site_label
_atom_site_type_symbol
_atom_site_fract_x
_atom_site_fract_y
_atom_site_fract_z
C18 C 0.0634(2) 0.14778(9) 0.0513(3)
C19 C 0.1033(2) 0.18073(10) 0.0512(3)
H10 H 0.1450 0.1853 0.1083
C21 C 0.1104(2) 0.05647(10) 0.1878(3)
H12 H 0.1053 0.0322 0.1657
C22 C 0.0815(2) 0.08217(10) 0.1078(3)
H13 H 0.0569 0.0753 0.0339
C23 C 0.0892(2) 0.11875(10) 0.1379(3)
C24 C 0.1242(3) 0.12664(10) 0.2502(3)
H14 H 0.1296 0.1506 0.2751
C25 C 0.1510(3) 0.09912(10) 0.3254(3)
H15 H 0.1742 0.1053 0.4008
N2 N 0.14578(15) 0.06421(8) 0.2966(2)
Ni4 Ni 0.19710(2) 0.024740(11) 0.40851(3)
C17 C 0.0003(2) 0.14302(10) 0.9665(3)
C20 C 0.0808(2) 0.20646(10) 0.9666(3)
H11 H 0.1086 0.2282 0.9675
N1 N 0.02073(17) 0.20162(8) 0.8831(3)
Ni1 Ni 0.0000 0.239267(16) 0.7500
C31 C 0.2844(2) 0.46054(10) 0.1309(3)
C32 C 0.33053(19) 0.43096(8) 0.3784(3)
C33 C 0.2782(2) 0.42091(10) 0.1582(3)
C34 C 0.2521(2) 0.39703(11) 0.0665(3)
C35 C 0.2463(3) 0.36061(11) 0.0884(4)
H23 H 0.2298 0.3449 0.0263
C36 C 0.2647(3) 0.34727(11) 0.2011(4)
H24 H 0.2607 0.3226 0.2158
C37 C 0.2894(2) 0.37083(9) 0.2936(3)
C38 C 0.29827(18) 0.40772(9) 0.2745(3)
C39 C 0.2565(2) 0.33710(10) 0.4626(3)
C40 C 0.2828(2) 0.30771(10) 0.5263(3)
H25 H 0.3358 0.3012 0.5296
C41 C 0.2296(2) 0.28710(10) 0.5873(3)
H26 H 0.2475 0.2670 0.6316
C42 C 0.1512(2) 0.29651(10) 0.5819(3)
C43 C 0.1267(3) 0.32718(13) 0.5185(4)
H27 H 0.0739 0.3340 0.5147
C44 C 0.1797(3) 0.34806(13) 0.4604(4)
H28 H 0.1631 0.3692 0.4206
C45 C 0.0935(2) 0.27433(10) 0.6436(3)
C46 C 0.0192(2) 0.17049(11) 0.6138(3)
H29 H 0.0626 0.1672 0.6689
H30 H 0.0285 0.1216 0.5364
C56 C 0.1795(2) 0.46773(12) 0.7641(3)
H37 H 0.2229 0.4718 0.8187
C57 C 0.1067(2) 0.46562(13) 0.8062(3)
H38 H 0.1016 0.4686 0.8875
C58 C 0.0405(2) 0.45905(15) 0.7290(3)
C59 C 0.0535(2) 0.45349(18) 0.6090(4)
H39 H 0.0115 0.4481 0.5533
C60 C 0.1288(2) 0.45610(16) 0.5740(4)
H40 H 0.1362 0.4520 0.4939
N7 N 0.35422(15) 0.43579(8) 0.7034(2)
N8 N 0.19199(16) 0.46422(9) 0.6482(3)
O9 O 0.31608(14) 0.48133(6) 0.21052(19)
O11 O 0.31608(14) 0.51867(6) 0.71052(19)
O12 O 0.25801(15) 0.47261(7) 0.0304(2)
O14 O 0.25801(15) 0.52739(7) 0.5304(2)
O15 O 0.40388(12) 0.43420(6) 0.3948(2)
O16 O 0.28017(12) 0.44344(6) 0.44478(18)
O17 O 0.31182(15) 0.35769(7) 0.4083(2)
O18 O 0.02021(16) 0.28007(7) 0.6235(2)
O19 O 0.11727(15) 0.24984(7) 0.7171(2)
O20 O 0.41230(13) 0.49171(7) 0.5386(2)
H41 H 0.4444 0.4962 0.5986
H42 H 0.4254 0.4724 0.5044
Ni3 Ni 0.30290(2) 0.475260(11) 0.59149(3)
Ni7 Ni 0.30290(2) 0.524740(11) 0.09149(3)
C1 C 0.7156(2) 0.46054(10) 0.3691(3)
C2 C 0.66947(19) 0.43096(8) 0.1216(3)
C3 C 0.7218(2) 0.42091(10) 0.3418(3)
C4 C 0.7479(2) 0.39703(11) 0.4335(3)
H1 H 0.7616 0.4059 0.5101
C5 C 0.7537(3) 0.36061(11) 0.4116(4)
H2 H 0.7702 0.3449 0.4737
C6 C 0.7353(3) 0.34727(11) 0.2989(4)
H3 H 0.7393 0.3226 0.2842
C7 C 0.7106(2) 0.37083(9) 0.2064(3)
C8 C 0.70173(18) 0.40772(9) 0.2255(3)
C9 C 0.7435(2) 0.33710(10) 0.0374(3)
C14 C 0.8203(3) 0.34806(13) 0.0396(4)
H7 H 0.8369 0.3692 0.0794
H19 H 0.8638 0.4520 0.0061
O1 O 0.68392(14) 0.48133(6) 0.28948(19)
O2 O 0.74199(15) 0.47261(7) 0.4696(2)
O3 O 0.59612(12) 0.43420(6) 0.1052(2)
O4 O 0.71983(12) 0.44344(6) 0.05522(18)
O5 O 0.68818(15) 0.35769(7) 0.0917(2)
Ni5 Ni 0.69710(2) 0.524740(11) 0.40851(3)
C10 C 0.7172(2) 0.30771(10) 0.9737(3)
H4 H 0.6642 0.3012 0.9704
C11 C 0.7704(2) 0.28710(10) 0.9127(3)
H5 H 0.7525 0.2670 0.8684
C12 C 0.8488(2) 0.29651(10) 0.9181(3)
C13 C 0.8733(3) 0.32718(13) 0.9815(4)
H6 H 0.9261 0.3340 0.9853
C15 C 0.9065(2) 0.27433(10) 0.8564(3)
C16 C 0.9808(2) 0.17049(11) 0.8862(3)
H8 H 0.9374 0.1672 0.8311
H9 H 0.9715 0.1216 0.9636
C26 C 0.8205(2) 0.46773(12) 0.7359(3)
H16 H 0.7771 0.4718 0.6813
C27 C 0.8933(2) 0.46562(13) 0.6938(3)
H17 H 0.8984 0.4686 0.6125
C28 C 0.9595(2) 0.45905(15) 0.7710(3)
C29 C 0.9465(2) 0.45349(18) 0.8910(4)
H18 H 0.9885 0.4481 0.9467
C30 C 0.8712(2) 0.45610(16) 0.9260(4)
N3 N 0.80801(16) 0.46422(9) 0.8518(3)
O6 O 0.97979(16) 0.28007(7) 0.8765(2)
O7 O 0.88273(15) 0.24984(7) 0.7829(2)
O8 O 0.58770(13) 0.49171(7) 0.9614(2)
H20 H 0.5556 0.4962 0.9014
H21 H 0.5746 0.4724 0.9956
Ni1_2 Ni 1.0000 0.239267(16) 0.7500
Ni2 Ni 0.69710(2) 0.475260(11) 0.90851(3)
C47 C 0.9997(2) 0.14302(10) 0.5335(3)
C48 C 0.9366(2) 0.14778(9) 0.4487(3)
C49 C 0.8967(2) 0.18073(10) 0.4488(3)
H31 H 0.8550 0.1853 0.3917
C50 C 0.9192(2) 0.20646(10) 0.5334(3)
H32 H 0.8914 0.2282 0.5325
C51 C 0.8896(2) 0.05647(10) 0.3122(3)
H33 H 0.8947 0.0322 0.3343
C52 C 0.9185(2) 0.08217(10) 0.3922(3)
H34 H 0.9431 0.0753 0.4661
C53 C 0.9108(2) 0.11875(10) 0.3621(3)
C54 C 0.8758(3) 0.12664(10) 0.2498(3)
H35 H 0.8704 0.1506 0.2249
C55 C 0.8490(3) 0.09912(10) 0.1746(3)
H36 H 0.8258 0.1053 0.0992
N4 N 0.97927(17) 0.20162(8) 0.6169(3)
N5 N 0.85422(15) 0.06421(8) 0.2034(2)
N6 N 0.64578(15) 0.43579(8) 0.7966(2)
O10 O 0.68392(14) 0.51867(6) 0.78948(19)
O13 O 0.74199(15) 0.52739(7) 0.9696(2)
Ni6 Ni 0.80290(2) 0.024740(11) 0.09149(3)
O10_2 O 0.18392(14) 0.01867(6) 0.78948(19)
O11_2 O 0.81608(14) 0.01867(6) 0.71052(19)
O13_2 O 0.24199(15) 0.02739(7) 0.9696(2)
O14_2 O 0.75801(15) 0.02739(7) 0.5304(2)
C1_2 C 0.2156(2) 0.96054(10) 0.3691(3)
C2_2 C 0.16947(19) 0.93096(8) 0.1216(3)
C3_2 C 0.2218(2) 0.92091(10) 0.3418(3)
C4_2 C 0.2479(2) 0.89703(11) 0.4335(3)
H1_2 H 0.2616 0.9059 0.5101
C5_2 C 0.2537(3) 0.86061(11) 0.4116(4)
H2_2 H 0.2702 0.8449 0.4737
C6_2 C 0.2353(3) 0.84727(11) 0.2989(4)
H3_2 H 0.2393 0.8226 0.2842
C7_2 C 0.2106(2) 0.87083(9) 0.2064(3)
C8_2 C 0.20173(18) 0.90772(9) 0.2255(3)
C9_2 C 0.2435(2) 0.83710(10) 0.0374(3)
C14_2 C 0.3203(3) 0.84806(13) 0.0396(4)
H7_2 H 0.3369 0.8692 0.0794
C18_2 C 0.5634(2) 0.64778(9) 0.0513(3)
C19_2 C 0.6033(2) 0.68073(10) 0.0512(3)
H10_2 H 0.6450 0.6853 0.1083
C21_2 C 0.6104(2) 0.55647(10) 0.1878(3)
H12_2 H 0.6053 0.5322 0.1657
C22_2 C 0.5815(2) 0.58217(10) 0.1078(3)
H13_2 H 0.5569 0.5753 0.0339
C23_2 C 0.5892(2) 0.61875(10) 0.1379(3)
C24_2 C 0.6242(3) 0.62664(10) 0.2502(3)
H14_2 H 0.6296 0.6506 0.2751
C25_2 C 0.6510(3) 0.59912(10) 0.3254(3)
H15_2 H 0.6742 0.6053 0.4008
H19_2 H 0.3638 0.9520 0.0061
N2_2 N 0.64578(15) 0.56421(8) 0.2966(2)
O1_2 O 0.18392(14) 0.98133(6) 0.28948(19)
O2_2 O 0.24199(15) 0.97261(7) 0.4696(2)
O3_2 O 0.09612(12) 0.93420(6) 0.1052(2)
O4_2 O 0.21983(12) 0.94344(6) 0.05522(18)
O5_2 O 0.18818(15) 0.85769(7) 0.0917(2)
C10_2 C 0.2172(2) 0.80771(10) 0.9737(3)
H4_2 H 0.1642 0.8012 0.9704
C11_2 C 0.2704(2) 0.78710(10) 0.9127(3)
H5_2 H 0.2525 0.7670 0.8684
C12_2 C 0.3488(2) 0.79651(10) 0.9181(3)
C13_2 C 0.3733(3) 0.82718(13) 0.9815(4)
H6_2 H 0.4261 0.8340 0.9853
C15_2 C 0.4065(2) 0.77433(10) 0.8564(3)
C16_2 C 0.4808(2) 0.67049(11) 0.8862(3)
H8_2 H 0.4374 0.6672 0.8311
C17_2 C 0.5003(2) 0.64302(10) 0.9665(3)
H9_2 H 0.4715 0.6216 0.9636
C20_2 C 0.5808(2) 0.70646(10) 0.9666(3)
H11_2 H 0.6086 0.7282 0.9675
C26_2 C 0.3205(2) 0.96773(12) 0.7359(3)
H16_2 H 0.2771 0.9718 0.6813
C27_2 C 0.3933(2) 0.96562(13) 0.6938(3)
H17_2 H 0.3984 0.9686 0.6125
C28_2 C 0.4595(2) 0.95905(15) 0.7710(3)
C29_2 C 0.4465(2) 0.95349(18) 0.8910(4)
H18_2 H 0.4885 0.9481 0.9467
C30_2 C 0.3712(2) 0.95610(16) 0.9260(4)
N1_2 N 0.52073(17) 0.70162(8) 0.8831(3)
N3_2 N 0.30801(16) 0.96422(9) 0.8518(3)
O6_2 O 0.47979(16) 0.78007(7) 0.8765(2)
O7_2 O 0.38273(15) 0.74984(7) 0.7829(2)
O8_2 O 0.08770(13) 0.99171(7) 0.9614(2)
H20_2 H 0.0556 0.9962 0.9014
H21_2 H 0.0746 0.9724 0.9956
Ni1_3 Ni 0.5000 0.739267(16) 0.7500
Ni2_2 Ni 0.19710(2) 0.975260(11) 0.90851(3)
C31_2 C 0.7844(2) 0.96054(10) 0.1309(3)
C32_2 C 0.83053(19) 0.93096(8) 0.3784(3)
C33_2 C 0.7782(2) 0.92091(10) 0.1582(3)
C34_2 C 0.7521(2) 0.89703(11) 0.0665(3)
C35_2 C 0.7463(3) 0.86061(11) 0.0884(4)
H23_2 H 0.7298 0.8449 0.0263
C36_2 C 0.7647(3) 0.84727(11) 0.2011(4)
H24_2 H 0.7607 0.8226 0.2158
C37_2 C 0.7894(2) 0.87083(9) 0.2936(3)
C38_2 C 0.79827(18) 0.90772(9) 0.2745(3)
C39_2 C 0.7565(2) 0.83710(10) 0.4626(3)
C40_2 C 0.7828(2) 0.80771(10) 0.5263(3)
H25_2 H 0.8358 0.8012 0.5296
C41_2 C 0.7296(2) 0.78710(10) 0.5873(3)
H26_2 H 0.7475 0.7670 0.6316
C42_2 C 0.6512(2) 0.79651(10) 0.5819(3)
C43_2 C 0.6267(3) 0.82718(13) 0.5185(4)
H27_2 H 0.5739 0.8340 0.5147
C44_2 C 0.6797(3) 0.84806(13) 0.4604(4)
H28_2 H 0.6631 0.8692 0.4206
C45_2 C 0.5935(2) 0.77433(10) 0.6436(3)
C46_2 C 0.5192(2) 0.67049(11) 0.6138(3)
H29_2 H 0.5626 0.6672 0.6689
C47_2 C 0.4997(2) 0.64302(10) 0.5335(3)
H30_2 H 0.5285 0.6216 0.5364
C48_2 C 0.4366(2) 0.64778(9) 0.4487(3)
C49_2 C 0.3967(2) 0.68073(10) 0.4488(3)
H31_2 H 0.3550 0.6853 0.3917
C50_2 C 0.4192(2) 0.70646(10) 0.5334(3)
H32_2 H 0.3914 0.7282 0.5325
C51_2 C 0.3896(2) 0.55647(10) 0.3122(3)
H33_2 H 0.3947 0.5322 0.3343
C52_2 C 0.4185(2) 0.58217(10) 0.3922(3)
H34_2 H 0.4431 0.5753 0.4661
C53_2 C 0.4108(2) 0.61875(10) 0.3621(3)
C54_2 C 0.3758(3) 0.62664(10) 0.2498(3)
H35_2 H 0.3704 0.6506 0.2249
C55_2 C 0.3490(3) 0.59912(10) 0.1746(3)
H36_2 H 0.3258 0.6053 0.0992
C56_2 C 0.6795(2) 0.96773(12) 0.7641(3)
H37_2 H 0.7229 0.9718 0.8187
C57_2 C 0.6067(2) 0.96562(13) 0.8062(3)
H38_2 H 0.6016 0.9686 0.8875
C58_2 C 0.5405(2) 0.95905(15) 0.7290(3)
C59_2 C 0.5535(2) 0.95349(18) 0.6090(4)
H39_2 H 0.5115 0.9481 0.5533
C60_2 C 0.6288(2) 0.95610(16) 0.5740(4)
H40_2 H 0.6362 0.9520 0.4939
N4_2 N 0.47927(17) 0.70162(8) 0.6169(3)
N5_2 N 0.35422(15) 0.56421(8) 0.2034(2)
N6_2 N 0.14578(15) 0.93579(8) 0.7966(2)
N7_2 N 0.85422(15) 0.93579(8) 0.7034(2)
N8_2 N 0.69199(16) 0.96422(9) 0.6482(3)
O9_2 O 0.81608(14) 0.98133(6) 0.21052(19)
O12_2 O 0.75801(15) 0.97261(7) 0.0304(2)
O15_2 O 0.90388(12) 0.93420(6) 0.3948(2)
O16_2 O 0.78017(12) 0.94344(6) 0.44478(18)
O17_2 O 0.81182(15) 0.85769(7) 0.4083(2)
O18_2 O 0.52021(16) 0.78007(7) 0.6235(2)
O19_2 O 0.61727(15) 0.74984(7) 0.7171(2)
O20_2 O 0.91230(13) 0.99171(7) 0.5386(2)
H41_2 H 0.9444 0.9962 0.5986
H42_2 H 0.9254 0.9724 0.5044
Ni3_2 Ni 0.80290(2) 0.975260(11) 0.59149(3)
C10_3 C 0.2828(2) 0.69229(10) 0.0263(3)
H4_3 H 0.3358 0.6988 0.0296
C11_3 C 0.2296(2) 0.71290(10) 0.0873(3)
H5_3 H 0.2475 0.7330 0.1316
C12_3 C 0.1512(2) 0.70349(10) 0.0819(3)
C13_3 C 0.1267(3) 0.67282(13) 0.0185(4)
H6_3 H 0.0739 0.6660 0.0147
C15_3 C 0.0935(2) 0.72567(10) 0.1436(3)
C16_3 C 0.0192(2) 0.82951(11) 0.1138(3)
H8_3 H 0.0626 0.8328 0.1689
H9_3 H 0.0285 0.8784 0.0364
C26_3 C 0.1795(2) 0.53227(12) 0.2641(3)
H16_3 H 0.2229 0.5282 0.3187
C27_3 C 0.1067(2) 0.53438(13) 0.3062(3)
H17_3 H 0.1016 0.5314 0.3875
C28_3 C 0.0405(2) 0.54095(15) 0.2290(3)
C29_3 C 0.0535(2) 0.54651(18) 0.1090(4)
H18_3 H 0.0115 0.5519 0.0533
C30_3 C 0.1288(2) 0.54390(16) 0.0740(4)
N3_3 N 0.19199(16) 0.53578(9) 0.1482(3)
O6_3 O 0.02021(16) 0.71993(7) 0.1235(2)
O7_3 O 0.11727(15) 0.75016(7) 0.2171(2)
O8_3 O 0.41230(13) 0.50829(7) 0.0386(2)
H20_3 H 0.4444 0.5038 0.0986
H21_3 H 0.4254 0.5276 0.0044
Ni1_4 Ni 0.0000 0.760733(16) 0.2500
C47_3 C 0.0003(2) 0.85698(10) 0.4665(3)
C48_3 C 0.0634(2) 0.85222(9) 0.5513(3)
C49_3 C 0.1033(2) 0.81927(10) 0.5512(3)
H31_3 H 0.1450 0.8147 0.6083
C50_3 C 0.0808(2) 0.79354(10) 0.4666(3)
H32_3 H 0.1086 0.7718 0.4675
C51_3 C 0.1104(2) 0.94353(10) 0.6878(3)
H33_3 H 0.1053 0.9678 0.6657
C52_3 C 0.0815(2) 0.91783(10) 0.6078(3)
H34_3 H 0.0569 0.9247 0.5339
C53_3 C 0.0892(2) 0.88125(10) 0.6379(3)
C54_3 C 0.1242(3) 0.87336(10) 0.7502(3)
H35_3 H 0.1296 0.8494 0.7751
C55_3 C 0.1510(3) 0.90088(10) 0.8254(3)
H36_3 H 0.1742 0.8947 0.9008
N4_3 N 0.02073(17) 0.79838(8) 0.3831(3)
C1_3 C 0.2844(2) 0.53946(10) 0.6309(3)
C2_3 C 0.33053(19) 0.56904(8) 0.8784(3)
C3_3 C 0.2782(2) 0.57909(10) 0.6582(3)
C4_3 C 0.2521(2) 0.60297(11) 0.5665(3)
H1_3 H 0.2384 0.5941 0.4899
C5_3 C 0.2463(3) 0.63939(11) 0.5884(4)
H2_3 H 0.2298 0.6551 0.5263
C6_3 C 0.2647(3) 0.65273(11) 0.7011(4)
H3_3 H 0.2607 0.6774 0.7158
C7_3 C 0.2894(2) 0.62917(9) 0.7936(3)
C8_3 C 0.29827(18) 0.59228(9) 0.7745(3)
C9_3 C 0.2565(2) 0.66290(10) 0.9626(3)
C14_3 C 0.1797(3) 0.65194(13) 0.9604(4)
H7_3 H 0.1631 0.6308 0.9206
H19_3 H 0.1362 0.5480 0.9939
O3_3 O 0.40388(12) 0.56580(6) 0.8948(2)
O4_3 O 0.28017(12) 0.55656(6) 0.94478(18)
O5_3 O 0.31182(15) 0.64231(7) 0.9083(2)
C17_3 C 0.9997(2) 0.85698(10) 0.0335(3)
C20_3 C 0.9192(2) 0.79354(10) 0.0334(3)
H11_3 H 0.8914 0.7718 0.0325
N1_3 N 0.97927(17) 0.79838(8) 0.1169(3)
Ni1_5 Ni 1.0000 0.760733(16) 0.2500
C31_3 C 0.7156(2) 0.53946(10) 0.8691(3)
C32_3 C 0.66947(19) 0.56904(8) 0.6216(3)
C33_3 C 0.7218(2) 0.57909(10) 0.8418(3)
C34_3 C 0.7479(2) 0.60297(11) 0.9335(3)
C35_3 C 0.7537(3) 0.63939(11) 0.9116(4)
H23_3 H 0.7702 0.6551 0.9737
C36_3 C 0.7353(3) 0.65273(11) 0.7989(4)
H24_3 H 0.7393 0.6774 0.7842
C37_3 C 0.7106(2) 0.62917(9) 0.7064(3)
C38_3 C 0.70173(18) 0.59228(9) 0.7255(3)
C39_3 C 0.7435(2) 0.66290(10) 0.5374(3)
C40_3 C 0.7172(2) 0.69229(10) 0.4737(3)
H25_3 H 0.6642 0.6988 0.4704
C41_3 C 0.7704(2) 0.71290(10) 0.4127(3)
H26_3 H 0.7525 0.7330 0.3684
C42_3 C 0.8488(2) 0.70349(10) 0.4181(3)
C43_3 C 0.8733(3) 0.67282(13) 0.4815(4)
H27_3 H 0.9261 0.6660 0.4853
C44_3 C 0.8203(3) 0.65194(13) 0.5396(4)
H28_3 H 0.8369 0.6308 0.5794
C45_3 C 0.9065(2) 0.72567(10) 0.3564(3)
C46_3 C 0.9808(2) 0.82951(11) 0.3862(3)
H29_3 H 0.9374 0.8328 0.3311
H30_3 H 0.9715 0.8784 0.4636
C56_3 C 0.8205(2) 0.53227(12) 0.2359(3)
H37_3 H 0.7771 0.5282 0.1813
C57_3 C 0.8933(2) 0.53438(13) 0.1938(3)
H38_3 H 0.8984 0.5314 0.1125
C58_3 C 0.9595(2) 0.54095(15) 0.2710(3)
C59_3 C 0.9465(2) 0.54651(18) 0.3910(4)
H39_3 H 0.9885 0.5519 0.4467
C60_3 C 0.8712(2) 0.54390(16) 0.4260(4)
H40_3 H 0.8638 0.5480 0.5061
N8_3 N 0.80801(16) 0.53578(9) 0.3518(3)
O15_3 O 0.59612(12) 0.56580(6) 0.6052(2)
O16_3 O 0.71983(12) 0.55656(6) 0.55522(18)
O17_3 O 0.68818(15) 0.64231(7) 0.5917(2)
O18_3 O 0.97979(16) 0.71993(7) 0.3765(2)
O19_3 O 0.88273(15) 0.75016(7) 0.2829(2)
O20_3 O 0.58770(13) 0.50829(7) 0.4614(2)
H41_3 H 0.5556 0.5038 0.4014
H42_3 H 0.5746 0.5276 0.4956
C18_3 C 0.9366(2) 0.85222(9) 0.9487(3)
C19_3 C 0.8967(2) 0.81927(10) 0.9488(3)
H10_3 H 0.8550 0.8147 0.8917
C21_3 C 0.8896(2) 0.94353(10) 0.8122(3)
H12_3 H 0.8947 0.9678 0.8343
C22_3 C 0.9185(2) 0.91783(10) 0.8922(3)
H13_3 H 0.9431 0.9247 0.9661
C23_3 C 0.9108(2) 0.88125(10) 0.8621(3)
C24_3 C 0.8758(3) 0.87336(10) 0.7498(3)
H14_3 H 0.8704 0.8494 0.7249
C25_3 C 0.8490(3) 0.90088(10) 0.6746(3)
H15_3 H 0.8258 0.8947 0.5992
C10_4 C 0.7828(2) 0.19229(10) 0.0263(3)
H4_4 H 0.8358 0.1988 0.0296
C11_4 C 0.7296(2) 0.21290(10) 0.0873(3)
H5_4 H 0.7475 0.2330 0.1316
C12_4 C 0.6512(2) 0.20349(10) 0.0819(3)
C13_4 C 0.6267(3) 0.17282(13) 0.0185(4)
H6_4 H 0.5739 0.1660 0.0147
C15_4 C 0.5935(2) 0.22567(10) 0.1436(3)
C16_4 C 0.5192(2) 0.32951(11) 0.1138(3)
H8_4 H 0.5626 0.3328 0.1689
C17_4 C 0.4997(2) 0.35698(10) 0.0335(3)
H9_4 H 0.5285 0.3784 0.0364
C20_4 C 0.4192(2) 0.29354(10) 0.0334(3)
H11_4 H 0.3914 0.2718 0.0325
C26_4 C 0.6795(2) 0.03227(12) 0.2641(3)
H16_4 H 0.7229 0.0282 0.3187
C27_4 C 0.6067(2) 0.03438(13) 0.3062(3)
H17_4 H 0.6016 0.0314 0.3875
C28_4 C 0.5405(2) 0.04095(15) 0.2290(3)
C29_4 C 0.5535(2) 0.04651(18) 0.1090(4)
H18_4 H 0.5115 0.0519 0.0533
C30_4 C 0.6288(2) 0.04390(16) 0.0740(4)
N1_4 N 0.47927(17) 0.29838(8) 0.1169(3)
N3_4 N 0.69199(16) 0.03578(9) 0.1482(3)
O6_4 O 0.52021(16) 0.21993(7) 0.1235(2)
O7_4 O 0.61727(15) 0.25016(7) 0.2171(2)
O8_4 O 0.91230(13) 0.00829(7) 0.0386(2)
H20_4 H 0.9444 0.0038 0.0986
H21_4 H 0.9254 0.0276 0.0044
Ni1_6 Ni 0.5000 0.260733(16) 0.2500
C31_4 C 0.2156(2) 0.03946(10) 0.8691(3)
C32_4 C 0.16947(19) 0.06904(8) 0.6216(3)
C33_4 C 0.2218(2) 0.07909(10) 0.8418(3)
C34_4 C 0.2479(2) 0.10297(11) 0.9335(3)
C35_4 C 0.2537(3) 0.13939(11) 0.9116(4)
H23_4 H 0.2702 0.1551 0.9737
C36_4 C 0.2353(3) 0.15273(11) 0.7989(4)
H24_4 H 0.2393 0.1774 0.7842
C37_4 C 0.2106(2) 0.12917(9) 0.7064(3)
C38_4 C 0.20173(18) 0.09228(9) 0.7255(3)
C39_4 C 0.2435(2) 0.16290(10) 0.5374(3)
C40_4 C 0.2172(2) 0.19229(10) 0.4737(3)
H25_4 H 0.1642 0.1988 0.4704
C41_4 C 0.2704(2) 0.21290(10) 0.4127(3)
H26_4 H 0.2525 0.2330 0.3684
C42_4 C 0.3488(2) 0.20349(10) 0.4181(3)
C43_4 C 0.3733(3) 0.17282(13) 0.4815(4)
H27_4 H 0.4261 0.1660 0.4853
C44_4 C 0.3203(3) 0.15194(13) 0.5396(4)
H28_4 H 0.3369 0.1308 0.5794
C45_4 C 0.4065(2) 0.22567(10) 0.3564(3)
C46_4 C 0.4808(2) 0.32951(11) 0.3862(3)
H29_4 H 0.4374 0.3328 0.3311
C47_4 C 0.5003(2) 0.35698(10) 0.4665(3)
H30_4 H 0.4715 0.3784 0.4636
C48_4 C 0.5634(2) 0.35222(9) 0.5513(3)
C49_4 C 0.6033(2) 0.31927(10) 0.5512(3)
H31_4 H 0.6450 0.3147 0.6083
C50_4 C 0.5808(2) 0.29354(10) 0.4666(3)
H32_4 H 0.6086 0.2718 0.4675
C51_4 C 0.6104(2) 0.44353(10) 0.6878(3)
H33_4 H 0.6053 0.4678 0.6657
C52_4 C 0.5815(2) 0.41783(10) 0.6078(3)
H34_4 H 0.5569 0.4247 0.5339
C53_4 C 0.5892(2) 0.38125(10) 0.6379(3)
C54_4 C 0.6242(3) 0.37336(10) 0.7502(3)
H35_4 H 0.6296 0.3494 0.7751
C55_4 C 0.6510(3) 0.40088(10) 0.8254(3)
H36_4 H 0.6742 0.3947 0.9008
C56_4 C 0.3205(2) 0.03227(12) 0.2359(3)
H37_4 H 0.2771 0.0282 0.1813
C57_4 C 0.3933(2) 0.03438(13) 0.1938(3)
H38_4 H 0.3984 0.0314 0.1125
C58_4 C 0.4595(2) 0.04095(15) 0.2710(3)
C59_4 C 0.4465(2) 0.04651(18) 0.3910(4)
H39_4 H 0.4885 0.0519 0.4467
C60_4 C 0.3712(2) 0.04390(16) 0.4260(4)
H40_4 H 0.3638 0.0480 0.5061
N4_4 N 0.52073(17) 0.29838(8) 0.3831(3)
N8_4 N 0.30801(16) 0.03578(9) 0.3518(3)
O15_4 O 0.09612(12) 0.06580(6) 0.6052(2)
O16_4 O 0.21983(12) 0.05656(6) 0.55522(18)
O17_4 O 0.18818(15) 0.14231(7) 0.5917(2)
O18_4 O 0.47979(16) 0.21993(7) 0.3765(2)
O19_4 O 0.38273(15) 0.25016(7) 0.2829(2)
O20_4 O 0.08770(13) 0.00829(7) 0.4614(2)
H41_4 H 0.0556 0.0038 0.4014
H42_4 H 0.0746 0.0276 0.4956
C1_4 C 0.7844(2) 0.03946(10) 0.6309(3)
C2_4 C 0.83053(19) 0.06904(8) 0.8784(3)
C3_4 C 0.7782(2) 0.07909(10) 0.6582(3)
C4_4 C 0.7521(2) 0.10297(11) 0.5665(3)
H1_4 H 0.7384 0.0941 0.4899
C5_4 C 0.7463(3) 0.13939(11) 0.5884(4)
H2_4 H 0.7298 0.1551 0.5263
C6_4 C 0.7647(3) 0.15273(11) 0.7011(4)
H3_4 H 0.7607 0.1774 0.7158
C7_4 C 0.7894(2) 0.12917(9) 0.7936(3)
C8_4 C 0.79827(18) 0.09228(9) 0.7745(3)
C9_4 C 0.7565(2) 0.16290(10) 0.9626(3)
C14_4 C 0.6797(3) 0.15194(13) 0.9604(4)
H7_4 H 0.6631 0.1308 0.9206
C18_4 C 0.4366(2) 0.35222(9) 0.9487(3)
C19_4 C 0.3967(2) 0.31927(10) 0.9488(3)
H10_4 H 0.3550 0.3147 0.8917
C21_4 C 0.3896(2) 0.44353(10) 0.8122(3)
H12_4 H 0.3947 0.4678 0.8343
C22_4 C 0.4185(2) 0.41783(10) 0.8922(3)
H13_4 H 0.4431 0.4247 0.9661
C23_4 C 0.4108(2) 0.38125(10) 0.8621(3)
C24_4 C 0.3758(3) 0.37336(10) 0.7498(3)
H14_4 H 0.3704 0.3494 0.7249
C25_4 C 0.3490(3) 0.40088(10) 0.6746(3)
H15_4 H 0.3258 0.3947 0.5992
H19_4 H 0.6362 0.0480 0.9939
O3_4 O 0.90388(12) 0.06580(6) 0.8948(2)
O4_4 O 0.78017(12) 0.05656(6) 0.94478(18)
O5_4 O 0.81182(15) 0.14231(7) 0.9083(2)
H22 H 0.2384 0.4059 0.9899
H22_2 H 0.7384 0.9059 0.9899
H22_3 H 0.7616 0.5941 0.0101
H22_4 H 0.2616 0.0941 0.0101
loop_
_geom_bond_atom_site_label_1
_geom_bond_atom_site_label_2
_geom_bond_site_symmetry_1
_geom_bond_site_symmetry_2
C19 C18 1_555 1_555
H10 C19 1_555 1_555
C21 H12 1_555 1_555
C22 C21 1_555 1_555
H13 C22 1_555 1_555
C23 C18 1_555 1_555
C24 C23 1_555 1_555
H14 C24 1_555 1_555
C25 C24 1_555 1_555
H15 C25 1_555 1_555
N2 C21 1_555 1_555
Ni4 N2 1_555 1_555
C22 C23 1_555 1_555
C25 N2 1_555 1_555
H11 C20 1_555 1_555
Ni1 N1 1_555 1_555
C31 C33 1_555 1_555
C32 C38 1_555 1_555
C33 C34 1_555 1_555
C35 C34 1_555 1_555
H23 C35 1_555 1_555
C36 C35 1_555 1_555
H24 C36 1_555 1_555
C37 C36 1_555 1_555
C38 C33 1_555 1_555
C39 C40 1_555 1_555
C40 H25 1_555 1_555
C41 C40 1_555 1_555
H26 C41 1_555 1_555
C42 C41 1_555 1_555
C43 C42 1_555 1_555
H27 C43 1_555 1_555
C44 C39 1_555 1_555
H28 C44 1_555 1_555
C45 C42 1_555 1_555
C46 H29 1_555 1_555
C56 H37 1_555 1_555
C57 C56 1_555 1_555
H38 C57 1_555 1_555
C59 C58 1_555 1_555
H39 C59 1_555 1_555
C60 C59 1_555 1_555
H40 C60 1_555 1_555
N7 Ni3 1_555 1_555
N8 C56 1_555 1_555
O9 C31 1_555 1_555
O11 Ni3 1_555 1_555
O12 C31 1_555 1_555
O14 Ni3 1_555 1_555
O15 C32 1_555 1_555
O16 C32 1_555 1_555
O17 C37 1_555 1_555
O18 Ni1 1_555 1_555
O19 Ni1 1_555 1_555
O20 H41 1_555 1_555
H42 O20 1_555 1_555
Ni3 N8 1_555 1_555
Ni7 O9 1_555 1_555
C20 N1 1_555 1_555
C37 C38 1_555 1_555
C39 O17 1_555 1_555
C43 C44 1_555 1_555
C45 O18 1_555 1_555
C45 O19 1_555 1_555
C57 C58 1_555 1_555
C60 N8 1_555 1_555
O12 Ni7 1_555 1_555
O16 Ni3 1_555 1_555
O20 Ni3 1_555 1_555
C1 C3 1_555 1_555
C2 C8 1_555 1_555
C3 C4 1_555 1_555
C4 H1 1_555 1_555
C5 C4 1_555 1_555
H2 C5 1_555 1_555
C6 C5 1_555 1_555
H3 C6 1_555 1_555
C7 C6 1_555 1_555
C8 C3 1_555 1_555
C14 C9 1_555 1_555
H7 C14 1_555 1_555
O1 C1 1_555 1_555
O2 C1 1_555 1_555
O3 C2 1_555 1_555
O4 C2 1_555 1_555
O5 C7 1_555 1_555
Ni5 O1 1_555 1_555
C7 C8 1_555 1_555
C9 O5 1_555 1_555
O2 Ni5 1_555 1_555
C10 H4 1_555 1_555
C11 C10 1_555 1_555
H5 C11 1_555 1_555
C12 C11 1_555 1_555
C13 C12 1_555 1_555
H6 C13 1_555 1_555
C15 C12 1_555 1_555
C16 H8 1_555 1_555
C26 H16 1_555 1_555
C27 C26 1_555 1_555
H17 C27 1_555 1_555
C28 C27 1_555 1_555
C29 C28 1_555 1_555
H18 C29 1_555 1_555
C30 C29 1_555 1_555
N3 C26 1_555 1_555
O6 C15 1_555 1_555
O7 C15 1_555 1_555
O8 H20 1_555 1_555
H21 O8 1_555 1_555
Ni2 N3 1_555 1_555
C48 C47 1_555 1_555
C49 C48 1_555 1_555
H31 C49 1_555 1_555
C50 C49 1_555 1_555
H32 C50 1_555 1_555
C51 H33 1_555 1_555
C52 C51 1_555 1_555
H34 C52 1_555 1_555
C53 C48 1_555 1_555
C54 C53 1_555 1_555
H35 C54 1_555 1_555
C55 C54 1_555 1_555
H36 C55 1_555 1_555
N4 Ni1_2 1_555 1_555
N5 C51 1_555 1_555
N6 Ni2 1_555 1_555
O10 Ni2 1_555 1_555
O13 Ni2 1_555 1_555
Ni6 N5 1_555 1_555
C30 N3 1_555 1_555
O6 Ni1_2 1_555 1_555
O7 Ni1_2 1_555 1_555
O8 Ni2 1_555 1_555
C50 N4 1_555 1_555
C52 C53 1_555 1_555
C55 N5 1_555 1_555
C1_2 C3_2 1_555 1_555
C2_2 C8_2 1_555 1_555
C3_2 C4_2 1_555 1_555
C4_2 H1_2 1_555 1_555
C5_2 C4_2 1_555 1_555
H2_2 C5_2 1_555 1_555
C6_2 C5_2 1_555 1_555
H3_2 C6_2 1_555 1_555
C7_2 C6_2 1_555 1_555
C8_2 C3_2 1_555 1_555
C14_2 C9_2 1_555 1_555
H7_2 C14_2 1_555 1_555
C19_2 C18_2 1_555 1_555
H10_2 C19_2 1_555 1_555
C21_2 H12_2 1_555 1_555
C22_2 C21_2 1_555 1_555
H13_2 C22_2 1_555 1_555
C23_2 C18_2 1_555 1_555
C24_2 C23_2 1_555 1_555
H14_2 C24_2 1_555 1_555
C25_2 C24_2 1_555 1_555
H15_2 C25_2 1_555 1_555
N2_2 C21_2 1_555 1_555
O1_2 C1_2 1_555 1_555
O2_2 C1_2 1_555 1_555
O3_2 C2_2 1_555 1_555
O4_2 C2_2 1_555 1_555
O5_2 C7_2 1_555 1_555
Ni5 N2_2 1_555 1_555
C7_2 C8_2 1_555 1_555
C9_2 O5_2 1_555 1_555
C22_2 C23_2 1_555 1_555
C25_2 N2_2 1_555 1_555
C10_2 H4_2 1_555 1_555
C11_2 C10_2 1_555 1_555
H5_2 C11_2 1_555 1_555
C12_2 C11_2 1_555 1_555
C13_2 C12_2 1_555 1_555
H6_2 C13_2 1_555 1_555
C15_2 C12_2 1_555 1_555
C16_2 H8_2 1_555 1_555
C17_2 C16_2 1_555 1_555
H9_2 C17_2 1_555 1_555
H11_2 C20_2 1_555 1_555
C26_2 H16_2 1_555 1_555
C27_2 C26_2 1_555 1_555
H17_2 C27_2 1_555 1_555
C28_2 C27_2 1_555 1_555
C29_2 C28_2 1_555 1_555
H18_2 C29_2 1_555 1_555
C30_2 C29_2 1_555 1_555
N1_2 C16_2 1_555 1_555
N3_2 C26_2 1_555 1_555
O6_2 C15_2 1_555 1_555
O7_2 C15_2 1_555 1_555
O8_2 H20_2 1_555 1_555
H21_2 O8_2 1_555 1_555
Ni1_3 N1_2 1_555 1_555
Ni2_2 N3_2 1_555 1_555
C31_2 C33_2 1_555 1_555
C32_2 C38_2 1_555 1_555
C33_2 C34_2 1_555 1_555
C35_2 C34_2 1_555 1_555
H23_2 C35_2 1_555 1_555
C36_2 C35_2 1_555 1_555
H24_2 C36_2 1_555 1_555
C37_2 C36_2 1_555 1_555
C38_2 C33_2 1_555 1_555
C39_2 C40_2 1_555 1_555
C40_2 H25_2 1_555 1_555
C41_2 C40_2 1_555 1_555
H26_2 C41_2 1_555 1_555
C42_2 C41_2 1_555 1_555
C43_2 C42_2 1_555 1_555
H27_2 C43_2 1_555 1_555
C44_2 C39_2 1_555 1_555
H28_2 C44_2 1_555 1_555
C45_2 C42_2 1_555 1_555
C46_2 H29_2 1_555 1_555
C47_2 C46_2 1_555 1_555
H30_2 C47_2 1_555 1_555
C48_2 C47_2 1_555 1_555
C49_2 C48_2 1_555 1_555
H31_2 C49_2 1_555 1_555
C50_2 C49_2 1_555 1_555
H32_2 C50_2 1_555 1_555
C51_2 H33_2 1_555 1_555
C52_2 C51_2 1_555 1_555
H34_2 C52_2 1_555 1_555
C53_2 C48_2 1_555 1_555
C54_2 C53_2 1_555 1_555
H35_2 C54_2 1_555 1_555
C55_2 C54_2 1_555 1_555
H36_2 C55_2 1_555 1_555
C56_2 H37_2 1_555 1_555
C57_2 C56_2 1_555 1_555
H38_2 C57_2 1_555 1_555
C58_2 C28_2 1_555 1_555
C59_2 C58_2 1_555 1_555
H39_2 C59_2 1_555 1_555
C60_2 C59_2 1_555 1_555
H40_2 C60_2 1_555 1_555
N4_2 Ni1_3 1_555 1_555
N5_2 C51_2 1_555 1_555
N6_2 Ni2_2 1_555 1_555
N7_2 Ni3_2 1_555 1_555
N8_2 C56_2 1_555 1_555
O9_2 C31_2 1_555 1_555
O12_2 C31_2 1_555 1_555
O15_2 C32_2 1_555 1_555
O16_2 C32_2 1_555 1_555
O17_2 C37_2 1_555 1_555
O18_2 Ni1_3 1_555 1_555
O19_2 Ni1_3 1_555 1_555
O20_2 H41_2 1_555 1_555
H42_2 O20_2 1_555 1_555
Ni3_2 N8_2 1_555 1_555
Ni7 N5_2 1_555 1_555
C20_2 N1_2 1_555 1_555
C30_2 N3_2 1_555 1_555
O6_2 Ni1_3 1_555 1_555
O7_2 Ni1_3 1_555 1_555
O8_2 Ni2_2 1_555 1_555
C37_2 C38_2 1_555 1_555
C39_2 O17_2 1_555 1_555
C43_2 C44_2 1_555 1_555
C45_2 O18_2 1_555 1_555
C45_2 O19_2 1_555 1_555
C46_2 N4_2 1_555 1_555
C50_2 N4_2 1_555 1_555
C52_2 C53_2 1_555 1_555
C55_2 N5_2 1_555 1_555
C57_2 C58_2 1_555 1_555
C60_2 N8_2 1_555 1_555
O16_2 Ni3_2 1_555 1_555
O20_2 Ni3_2 1_555 1_555
C10_3 H4_3 1_555 1_555
C11_3 C10_3 1_555 1_555
H5_3 C11_3 1_555 1_555
C12_3 C11_3 1_555 1_555
C13_3 C12_3 1_555 1_555
H6_3 C13_3 1_555 1_555
C15_3 C12_3 1_555 1_555
C16_3 H8_3 1_555 1_555
C26_3 H16_3 1_555 1_555
C27_3 C26_3 1_555 1_555
H17_3 C27_3 1_555 1_555
C28_3 C27_3 1_555 1_555
C29_3 C28_3 1_555 1_555
H18_3 C29_3 1_555 1_555
C30_3 C29_3 1_555 1_555
N3_3 C26_3 1_555 1_555
O6_3 C15_3 1_555 1_555
O7_3 C15_3 1_555 1_555
O8_3 H20_3 1_555 1_555
H21_3 O8_3 1_555 1_555
Ni7 N3_3 1_555 1_555
C48_3 C47_3 1_555 1_555
C49_3 C48_3 1_555 1_555
H31_3 C49_3 1_555 1_555
C50_3 C49_3 1_555 1_555
H32_3 C50_3 1_555 1_555
C51_3 H33_3 1_555 1_555
C52_3 C51_3 1_555 1_555
H34_3 C52_3 1_555 1_555
C53_3 C48_3 1_555 1_555
C54_3 C53_3 1_555 1_555
H35_3 C54_3 1_555 1_555
C55_3 C54_3 1_555 1_555
H36_3 C55_3 1_555 1_555
N4_3 Ni1_4 1_555 1_555
N6_2 C51_3 1_555 1_555
C30_3 N3_3 1_555 1_555
O6_3 Ni1_4 1_555 1_555
O7_3 Ni1_4 1_555 1_555
O8_3 Ni7 1_555 1_555
C50_3 N4_3 1_555 1_555
C52_3 C53_3 1_555 1_555
C55_3 N6_2 1_555 1_555
C1_3 C3_3 1_555 1_555
C2_3 C8_3 1_555 1_555
C3_3 C4_3 1_555 1_555
C4_3 H1_3 1_555 1_555
C5_3 C4_3 1_555 1_555
H2_3 C5_3 1_555 1_555
C6_3 C5_3 1_555 1_555
H3_3 C6_3 1_555 1_555
C7_3 C6_3 1_555 1_555
C8_3 C3_3 1_555 1_555
C14_3 C9_3 1_555 1_555
H7_3 C14_3 1_555 1_555
O11 C1_3 1_555 1_555
O14 C1_3 1_555 1_555
O3_3 C2_3 1_555 1_555
O4_3 C2_3 1_555 1_555
O5_3 C7_3 1_555 1_555
C7_3 C8_3 1_555 1_555
C9_3 O5_3 1_555 1_555
H11_3 C20_3 1_555 1_555
Ni1_5 N1_3 1_555 1_555
C31_3 C33_3 1_555 1_555
C32_3 C38_3 1_555 1_555
C33_3 C34_3 1_555 1_555
C35_3 C34_3 1_555 1_555
H23_3 C35_3 1_555 1_555
C36_3 C35_3 1_555 1_555
H24_3 C36_3 1_555 1_555
C37_3 C36_3 1_555 1_555
C38_3 C33_3 1_555 1_555
C39_3 C40_3 1_555 1_555
C40_3 H25_3 1_555 1_555
C41_3 C40_3 1_555 1_555
H26_3 C41_3 1_555 1_555
C42_3 C41_3 1_555 1_555
C43_3 C42_3 1_555 1_555
H27_3 C43_3 1_555 1_555
C44_3 C39_3 1_555 1_555
H28_3 C44_3 1_555 1_555
C45_3 C42_3 1_555 1_555
C46_3 H29_3 1_555 1_555
C56_3 H37_3 1_555 1_555
C57_3 C56_3 1_555 1_555
H38_3 C57_3 1_555 1_555
C59_3 C58_3 1_555 1_555
H39_3 C59_3 1_555 1_555
C60_3 C59_3 1_555 1_555
H40_3 C60_3 1_555 1_555
N8_3 C56_3 1_555 1_555
O10 C31_3 1_555 1_555
O13 C31_3 1_555 1_555
O15_3 C32_3 1_555 1_555
O16_3 C32_3 1_555 1_555
O17_3 C37_3 1_555 1_555
O18_3 Ni1_5 1_555 1_555
O19_3 Ni1_5 1_555 1_555
O20_3 H41_3 1_555 1_555
H42_3 O20_3 1_555 1_555
Ni5 N8_3 1_555 1_555
C20_3 N1_3 1_555 1_555
C37_3 C38_3 1_555 1_555
C39_3 O17_3 1_555 1_555
C43_3 C44_3 1_555 1_555
C45_3 O18_3 1_555 1_555
C45_3 O19_3 1_555 1_555
C57_3 C58_3 1_555 1_555
C60_3 N8_3 1_555 1_555
O16_3 Ni5 1_555 1_555
O20_3 Ni5 1_555 1_555
C19_3 C18_3 1_555 1_555
H10_3 C19_3 1_555 1_555
C21_3 H12_3 1_555 1_555
C22_3 C21_3 1_555 1_555
H13_3 C22_3 1_555 1_555
C23_3 C18_3 1_555 1_555
C24_3 C23_3 1_555 1_555
H14_3 C24_3 1_555 1_555
C25_3 C24_3 1_555 1_555
H15_3 C25_3 1_555 1_555
N7_2 C21_3 1_555 1_555
C22_3 C23_3 1_555 1_555
C25_3 N7_2 1_555 1_555
C10_4 H4_4 1_555 1_555
C11_4 C10_4 1_555 1_555
H5_4 C11_4 1_555 1_555
C12_4 C11_4 1_555 1_555
C13_4 C12_4 1_555 1_555
H6_4 C13_4 1_555 1_555
C15_4 C12_4 1_555 1_555
C16_4 H8_4 1_555 1_555
C17_4 C16_4 1_555 1_555
H9_4 C17_4 1_555 1_555
H11_4 C20_4 1_555 1_555
C26_4 H16_4 1_555 1_555
C27_4 C26_4 1_555 1_555
H17_4 C27_4 1_555 1_555
C28_4 C27_4 1_555 1_555
C29_4 C28_4 1_555 1_555
H18_4 C29_4 1_555 1_555
C30_4 C29_4 1_555 1_555
N1_4 C16_4 1_555 1_555
N3_4 C26_4 1_555 1_555
O6_4 C15_4 1_555 1_555
O7_4 C15_4 1_555 1_555
O8_4 H20_4 1_555 1_555
H21_4 O8_4 1_555 1_555
Ni1_6 N1_4 1_555 1_555
Ni6 N3_4 1_555 1_555
C31_4 C33_4 1_555 1_555
C32_4 C38_4 1_555 1_555
C33_4 C34_4 1_555 1_555
C35_4 C34_4 1_555 1_555
H23_4 C35_4 1_555 1_555
C36_4 C35_4 1_555 1_555
H24_4 C36_4 1_555 1_555
C37_4 C36_4 1_555 1_555
C38_4 C33_4 1_555 1_555
C39_4 C40_4 1_555 1_555
C40_4 H25_4 1_555 1_555
C41_4 C40_4 1_555 1_555
H26_4 C41_4 1_555 1_555
C42_4 C41_4 1_555 1_555
C43_4 C42_4 1_555 1_555
H27_4 C43_4 1_555 1_555
C44_4 C39_4 1_555 1_555
H28_4 C44_4 1_555 1_555
C45_4 C42_4 1_555 1_555
C46_4 H29_4 1_555 1_555
C47_4 C46_4 1_555 1_555
H30_4 C47_4 1_555 1_555
C48_4 C47_4 1_555 1_555
C49_4 C48_4 1_555 1_555
H31_4 C49_4 1_555 1_555
C50_4 C49_4 1_555 1_555
H32_4 C50_4 1_555 1_555
C51_4 H33_4 1_555 1_555
C52_4 C51_4 1_555 1_555
H34_4 C52_4 1_555 1_555
C53_4 C48_4 1_555 1_555
C54_4 C53_4 1_555 1_555
H35_4 C54_4 1_555 1_555
C55_4 C54_4 1_555 1_555
H36_4 C55_4 1_555 1_555
C56_4 H37_4 1_555 1_555
C57_4 C56_4 1_555 1_555
H38_4 C57_4 1_555 1_555
C58_4 C28_4 1_555 1_555
C59_4 C58_4 1_555 1_555
H39_4 C59_4 1_555 1_555
C60_4 C59_4 1_555 1_555
H40_4 C60_4 1_555 1_555
N4_4 Ni1_6 1_555 1_555
N6 C51_4 1_555 1_555
N8_4 C56_4 1_555 1_555
O10_2 C31_4 1_555 1_555
O13_2 C31_4 1_555 1_555
O15_4 C32_4 1_555 1_555
O16_4 C32_4 1_555 1_555
O17_4 C37_4 1_555 1_555
O18_4 Ni1_6 1_555 1_555
O19_4 Ni1_6 1_555 1_555
O20_4 H41_4 1_555 1_555
H42_4 O20_4 1_555 1_555
Ni4 N8_4 1_555 1_555
C20_4 N1_4 1_555 1_555
C30_4 N3_4 1_555 1_555
O6_4 Ni1_6 1_555 1_555
O7_4 Ni1_6 1_555 1_555
O8_4 Ni6 1_555 1_555
C37_4 C38_4 1_555 1_555
C39_4 O17_4 1_555 1_555
C43_4 C44_4 1_555 1_555
C45_4 O18_4 1_555 1_555
C45_4 O19_4 1_555 1_555
C46_4 N4_4 1_555 1_555
C50_4 N4_4 1_555 1_555
C52_4 C53_4 1_555 1_555
C55_4 N6 1_555 1_555
C57_4 C58_4 1_555 1_555
C60_4 N8_4 1_555 1_555
O16_4 Ni4 1_555 1_555
O20_4 Ni4 1_555 1_555
C1_4 C3_4 1_555 1_555
C2_4 C8_4 1_555 1_555
C3_4 C4_4 1_555 1_555
C4_4 H1_4 1_555 1_555
C5_4 C4_4 1_555 1_555
H2_4 C5_4 1_555 1_555
C6_4 C5_4 1_555 1_555
H3_4 C6_4 1_555 1_555
C7_4 C6_4 1_555 1_555
C8_4 C3_4 1_555 1_555
C14_4 C9_4 1_555 1_555
H7_4 C14_4 1_555 1_555
C19_4 C18_4 1_555 1_555
H10_4 C19_4 1_555 1_555
C21_4 H12_4 1_555 1_555
C22_4 C21_4 1_555 1_555
H13_4 C22_4 1_555 1_555
C23_4 C18_4 1_555 1_555
C24_4 C23_4 1_555 1_555
H14_4 C24_4 1_555 1_555
C25_4 C24_4 1_555 1_555
H15_4 C25_4 1_555 1_555
N7 C21_4 1_555 1_555
O11_2 C1_4 1_555 1_555
O14_2 C1_4 1_555 1_555
O3_4 C2_4 1_555 1_555
O4_4 C2_4 1_555 1_555
O5_4 C7_4 1_555 1_555
C7_4 C8_4 1_555 1_555
C9_4 O5_4 1_555 1_555
C22_4 C23_4 1_555 1_555
C25_4 N7 1_555 1_555

#END
