
###############################################################################
#
# This file contains modified crystal structure data generated from the
# MOF subset of the Cambridge Structural Database (CSD) v543 
# hosted by the Cambridge Crystallographic Data Centre (CCDC).
#
# This work is licensed under the Creative Commons
# Attribution-NonCommercial-ShareAlike 4.0 International License.
# To view a copy of this license, visit
# http://creativecommons.org/licenses/by-nc-sa/4.0/
# or send a letter to
# Creative Commons, PO Box 1866, Mountain View, CA 94042, USA.
#
# CIF created using the CSD Python API on 29 September 2022
# The structure has been converted into the P1 space group
# The structure has a 3D framework
# The original CSD entry NUVYEK is in the tetragonal crystal system
# The framework has been calculated to contain at least 10.0% void space
# The void calculation uses a probe of radius 1.32A, grid spacing 0.4
#
###############################################################################

data_NUVYEK
_chemical_formula_moiety         '(C192 H96 O52 Zn16)n'
_symmetry_cell_setting           triclinic
_symmetry_space_group_name_H-M   'P 1'
_symmetry_Int_Tables_number      1
_space_group_name_Hall           'P 1'
loop_
_symmetry_equiv_pos_site_id
_symmetry_equiv_pos_as_xyz
1 x,y,z
_cell_length_a                   19.7213(13)
_cell_length_b                   19.7213(13)
_cell_length_c                   39.411(3)
_cell_angle_alpha                90
_cell_angle_beta                 90
_cell_angle_gamma                90
_cell_volume                     15328.1
loop_
_atom_site_label
_atom_site_type_symbol
_atom_site_fract_x
_atom_site_fract_y
_atom_site_fract_z
O6 O 0.09893(14) 0.21077(17) 0.27559(9)
O7 O 0.09657(12) 0.29038(15) 0.31583(8)
C21 C 0.0686(2) 0.2495(2) 0.29509(12)
Zn6 Zn 0.193467(19) 0.306533(19) 0.324397(14)
Zn8 Zn 0.19298(2) 0.19298(2) 0.267452(14)
Zn1 Zn 0.306533(19) 0.193467(19) 0.324397(14)
Zn2 Zn 0.30702(2) 0.30702(2) 0.267452(14)
O1 O 0.2500 0.2500 0.29559(9)
O2 O 0.40107(14) 0.28923(17) 0.27559(9)
O3 O 0.40343(12) 0.20962(15) 0.31583(8)
O4 O 0.29014(17) 0.20986(17) 0.37228(10)
O5 O 0.28989(16) 0.21011(16) 0.72041(10)
C1 C 0.4314(2) 0.2505(2) 0.29509(12)
C2 C 0.50554(18) 0.2508(2) 0.29622(11)
C3 C 0.5412(2) 0.2929(3) 0.27533(17)
H1 H 0.5180 0.3218 0.2607
C4 C 0.6106(3) 0.2933(4) 0.27557(19)
H2 H 0.6335 0.3234 0.2615
C5 C 0.6468(2) 0.2514(3) 0.29554(14)
C6 C 0.6123(3) 0.2078(3) 0.31588(17)
H3 H 0.6361 0.1776 0.3295
C7 C 0.5413(2) 0.2079(3) 0.31650(16)
H4 H 0.5184 0.1785 0.3309
C8 C 0.7200(2) 0.2493(3) 0.29669(11)
C9 C 0.2500 0.2500 0.3875(2)
C10 C 0.2500 0.2500 0.4234(2)
C11 C 0.2914(4) 0.2086(4) 0.44097(18)
H5 H 0.3205 0.1795 0.4295
C12 C 0.2907(4) 0.2093(4) 0.4769(2)
H6 H 0.3198 0.1802 0.4884
C13 C 0.2500 0.2500 0.4951(3)
C14 C 0.2500 0.2500 0.5315(3)
C15 C 0.2500 0.2500 0.5608(3)
C16 C 0.2500 0.2500 0.5985(3)
C17 C 0.2928(3) 0.2072(3) 0.61492(18)
H7 H 0.3216 0.1784 0.6030
C18 C 0.2919(3) 0.2081(3) 0.64959(16)
H8 H 0.3208 0.1792 0.6614
C19 C 0.2500 0.2500 0.6675(2)
C20 C 0.2500 0.2500 0.7065(2)
C22 C 0.99446(18) 0.2492(2) 0.29622(11)
C23 C 0.9588(2) 0.2071(3) 0.27533(17)
H9 H 0.9820 0.1782 0.2607
C24 C 0.8894(3) 0.2067(4) 0.27557(19)
H10 H 0.8665 0.1766 0.2615
C25 C 0.8532(2) 0.2486(3) 0.29554(14)
C26 C 0.8877(3) 0.2922(3) 0.31588(17)
H11 H 0.8639 0.3224 0.3295
C27 C 0.9587(2) 0.2921(3) 0.31650(16)
H12 H 0.9816 0.3215 0.3309
C28 C 0.7800(2) 0.2507(3) 0.29669(11)
O8 O 0.20986(17) 0.29014(17) 0.37228(10)
O9 O 0.21011(16) 0.28989(16) 0.72041(10)
C29 C 0.2086(4) 0.2914(4) 0.44097(18)
H13 H 0.1795 0.3205 0.4295
C30 C 0.2093(4) 0.2907(4) 0.4769(2)
H14 H 0.1802 0.3198 0.4884
C31 C 0.2072(3) 0.2928(3) 0.61492(18)
H15 H 0.1784 0.3216 0.6030
C32 C 0.2081(3) 0.2919(3) 0.64959(16)
H16 H 0.1792 0.3208 0.6614
Zn9 Zn 0.19298(2) 0.30702(2) 0.767452(14)
Zn10 Zn 0.30702(2) 0.19298(2) 0.767452(14)
O14 O 0.21077(17) 0.09893(14) 0.27559(9)
O15 O 0.28923(17) 0.40107(14) 0.27559(9)
O16 O 0.29038(15) 0.09657(12) 0.31583(8)
O17 O 0.20962(15) 0.40343(12) 0.31583(8)
O18 O 0.28989(16) 0.28989(16) 0.22041(10)
O19 O 0.21011(16) 0.21011(16) 0.22041(10)
O6_2 O 0.28923(17) 0.09893(14) 0.77559(9)
O7_2 O 0.20962(15) 0.09657(12) 0.81583(8)
C21_2 C 0.2505(2) 0.0686(2) 0.79509(12)
Zn6_2 Zn 0.193467(19) 0.193467(19) 0.824397(14)
C14_2 C 0.2500 0.2500 0.0315(3)
C15_2 C 0.2500 0.2500 0.0608(3)
C16_2 C 0.2500 0.2500 0.0985(3)
C17_2 C 0.2928(3) 0.2928(3) 0.11492(18)
H7_2 H 0.3216 0.3216 0.1030
C18_2 C 0.2919(3) 0.2919(3) 0.14959(16)
H8_2 H 0.3208 0.3208 0.1614
C19_2 C 0.2500 0.2500 0.1675(2)
C20_2 C 0.2500 0.2500 0.2065(2)
C31_2 C 0.2072(3) 0.2072(3) 0.11492(18)
H15_2 H 0.1784 0.1784 0.1030
C32_2 C 0.2081(3) 0.2081(3) 0.14959(16)
H16_2 H 0.1792 0.1792 0.1614
Zn1_2 Zn 0.306533(19) 0.306533(19) 0.824397(14)
O1_2 O 0.2500 0.2500 0.79559(9)
O2_2 O 0.21077(17) 0.40107(14) 0.77559(9)
O3_2 O 0.29038(15) 0.40343(12) 0.81583(8)
O4_2 O 0.29014(17) 0.29014(17) 0.87228(10)
C1_2 C 0.2495(2) 0.4314(2) 0.79509(12)
C2_2 C 0.2492(2) 0.50554(18) 0.79622(11)
C3_2 C 0.2071(3) 0.5412(2) 0.77533(17)
H1_2 H 0.1782 0.5180 0.7607
C4_2 C 0.2067(4) 0.6106(3) 0.77557(19)
H2_2 H 0.1766 0.6335 0.7615
C5_2 C 0.2486(3) 0.6468(2) 0.79554(14)
C6_2 C 0.2922(3) 0.6123(3) 0.81588(17)
H3_2 H 0.3224 0.6361 0.8295
C7_2 C 0.2921(3) 0.5413(2) 0.81650(16)
H4_2 H 0.3215 0.5184 0.8309
C8_2 C 0.2507(3) 0.7200(2) 0.79669(11)
C9_2 C 0.2500 0.2500 0.8875(2)
C10_2 C 0.2500 0.2500 0.9234(2)
C11_2 C 0.2914(4) 0.2914(4) 0.94097(18)
H5_2 H 0.3205 0.3205 0.9295
C12_2 C 0.2907(4) 0.2907(4) 0.9769(2)
H6_2 H 0.3198 0.3198 0.9884
C13_2 C 0.2500 0.2500 0.9951(3)
C22_2 C 0.2508(2) 0.99446(18) 0.79622(11)
C23_2 C 0.2929(3) 0.9588(2) 0.77533(17)
H9_2 H 0.3218 0.9820 0.7607
C24_2 C 0.2933(4) 0.8894(3) 0.77557(19)
H10_2 H 0.3234 0.8665 0.7615
C25_2 C 0.2514(3) 0.8532(2) 0.79554(14)
C26_2 C 0.2078(3) 0.8877(3) 0.81588(17)
H11_2 H 0.1776 0.8639 0.8295
C27_2 C 0.2079(3) 0.9587(2) 0.81650(16)
H12_2 H 0.1785 0.9816 0.8309
C28_2 C 0.2493(3) 0.7800(2) 0.79669(11)
O8_2 O 0.20986(17) 0.20986(17) 0.87228(10)
C29_2 C 0.2086(4) 0.2086(4) 0.94097(18)
H13_2 H 0.1795 0.1795 0.9295
C30_2 C 0.2093(4) 0.2093(4) 0.9769(2)
H14_2 H 0.1802 0.1802 0.9884
O14_2 O 0.40107(14) 0.21077(17) 0.77559(9)
O15_2 O 0.09893(14) 0.28923(17) 0.77559(9)
O16_2 O 0.40343(12) 0.29038(15) 0.81583(8)
O17_2 O 0.09657(12) 0.20962(15) 0.81583(8)
C21_3 C 0.0686(2) 0.2505(2) 0.79509(12)
C1_3 C 0.4314(2) 0.2495(2) 0.79509(12)
C2_3 C 0.50554(18) 0.2492(2) 0.79622(11)
C3_3 C 0.5412(2) 0.2071(3) 0.77533(17)
H1_3 H 0.5180 0.1782 0.7607
C4_3 C 0.6106(3) 0.2067(4) 0.77557(19)
H2_3 H 0.6335 0.1766 0.7615
C5_3 C 0.6468(2) 0.2486(3) 0.79554(14)
C6_3 C 0.6123(3) 0.2922(3) 0.81588(17)
H3_3 H 0.6361 0.3224 0.8295
C7_3 C 0.5413(2) 0.2921(3) 0.81650(16)
H4_3 H 0.5184 0.3215 0.8309
C8_3 C 0.7200(2) 0.2507(3) 0.79669(11)
C22_3 C 0.99446(18) 0.2508(2) 0.79622(11)
C23_3 C 0.9588(2) 0.2929(3) 0.77533(17)
H9_3 H 0.9820 0.3218 0.7607
C24_3 C 0.8894(3) 0.2933(4) 0.77557(19)
H10_3 H 0.8665 0.3234 0.7615
C25_3 C 0.8532(2) 0.2514(3) 0.79554(14)
C26_3 C 0.8877(3) 0.2078(3) 0.81588(17)
H11_3 H 0.8639 0.1776 0.8295
C27_3 C 0.9587(2) 0.2079(3) 0.81650(16)
H12_3 H 0.9816 0.1785 0.8309
C28_3 C 0.7800(2) 0.2493(3) 0.79669(11)
C41 C 0.2495(2) 0.0686(2) 0.29509(12)
C33 C 0.2505(2) 0.4314(2) 0.29509(12)
C34 C 0.2508(2) 0.50554(18) 0.29622(11)
C35 C 0.2929(3) 0.5412(2) 0.27533(17)
H17 H 0.3218 0.5180 0.2607
C36 C 0.2933(4) 0.6106(3) 0.27557(19)
H18 H 0.3234 0.6335 0.2615
C37 C 0.2514(3) 0.6468(2) 0.29554(14)
C38 C 0.2078(3) 0.6123(3) 0.31588(17)
H19 H 0.1776 0.6361 0.3295
C39 C 0.2079(3) 0.5413(2) 0.31650(16)
H20 H 0.1785 0.5184 0.3309
C40 C 0.2493(3) 0.7200(2) 0.29669(11)
C42 C 0.2492(2) 0.99446(18) 0.29622(11)
C43 C 0.2071(3) 0.9588(2) 0.27533(17)
H21 H 0.1782 0.9820 0.2607
C44 C 0.2067(4) 0.8894(3) 0.27557(19)
H22 H 0.1766 0.8665 0.2615
C45 C 0.2486(3) 0.8532(2) 0.29554(14)
C46 C 0.2922(3) 0.8877(3) 0.31588(17)
H23 H 0.3224 0.8639 0.3295
C47 C 0.2921(3) 0.9587(2) 0.31650(16)
H24 H 0.3215 0.9816 0.3309
C48 C 0.2507(3) 0.7800(2) 0.29669(11)
C34_2 C 0.00554(18) 0.7492(2) 0.20378(11)
C35_2 C 0.0412(2) 0.7071(3) 0.22467(17)
H17_2 H 0.0180 0.6782 0.2393
C36_2 C 0.1106(3) 0.7067(4) 0.22443(19)
H18_2 H 0.1335 0.6766 0.2385
C37_2 C 0.1468(2) 0.7486(3) 0.20446(14)
C38_2 C 0.1123(3) 0.7922(3) 0.18412(17)
H19_2 H 0.1361 0.8224 0.1705
C39_2 C 0.0413(2) 0.7921(3) 0.18350(16)
H20_2 H 0.0184 0.8215 0.1691
C40_2 C 0.2200(2) 0.7507(3) 0.20331(11)
O12 O 0.59893(14) 0.78923(17) 0.22441(9)
O13 O 0.59657(12) 0.70962(15) 0.18417(8)
C41_2 C 0.5686(2) 0.7505(2) 0.20491(12)
C42_2 C 0.49446(18) 0.7508(2) 0.20378(11)
C43_2 C 0.4588(2) 0.7929(3) 0.22467(17)
H21_2 H 0.4820 0.8218 0.2393
C44_2 C 0.3894(3) 0.7933(4) 0.22443(19)
H22_2 H 0.3665 0.8234 0.2385
C45_2 C 0.3532(2) 0.7514(3) 0.20446(14)
C46_2 C 0.3877(3) 0.7078(3) 0.18412(17)
H23_2 H 0.3639 0.6776 0.1705
C47_2 C 0.4587(2) 0.7079(3) 0.18350(16)
H24_2 H 0.4816 0.6785 0.1691
C48_2 C 0.2800(2) 0.7493(3) 0.20331(11)
Zn5 Zn 0.693467(19) 0.693467(19) 0.175603(14)
Zn7 Zn 0.69298(2) 0.80702(2) 0.232548(14)
O1_3 O 0.7500 0.7500 0.20441(9)
O4_3 O 0.70986(17) 0.70986(17) 0.12772(10)
C9_3 C 0.7500 0.7500 0.1125(2)
C10_3 C 0.7500 0.7500 0.0766(2)
C11_3 C 0.7086(4) 0.7086(4) 0.05903(18)
H5_3 H 0.6795 0.6795 0.0705
C12_3 C 0.7093(4) 0.7093(4) 0.0231(2)
H6_3 H 0.6802 0.6802 0.0116
C13_3 C 0.7500 0.7500 0.0049(3)
O8_3 O 0.79014(17) 0.79014(17) 0.12772(10)
C29_3 C 0.7914(4) 0.7914(4) 0.05903(18)
H13_3 H 0.8205 0.8205 0.0705
C30_3 C 0.7907(4) 0.7907(4) 0.0231(2)
H14_3 H 0.8198 0.8198 0.0116
Zn3 Zn 0.806533(19) 0.806533(19) 0.175603(14)
Zn4 Zn 0.80702(2) 0.69298(2) 0.232548(14)
O10 O 0.90107(14) 0.71077(17) 0.22441(9)
O11 O 0.90343(12) 0.79038(15) 0.18417(8)
C33_2 C 0.9314(2) 0.7495(2) 0.20491(12)
O14_3 O 0.78923(17) 0.59893(14) 0.22441(9)
O15_3 O 0.71077(17) 0.90107(14) 0.22441(9)
O16_3 O 0.70962(15) 0.59657(12) 0.18417(8)
O17_3 O 0.79038(15) 0.90343(12) 0.18417(8)
O18_2 O 0.71011(16) 0.78989(16) 0.27959(10)
O19_2 O 0.78989(16) 0.71011(16) 0.27959(10)
O5_2 O 0.71011(16) 0.71011(16) 0.77959(10)
C14_3 C 0.7500 0.7500 0.9685(3)
C15_3 C 0.7500 0.7500 0.9392(3)
C16_3 C 0.7500 0.7500 0.9015(3)
C17_3 C 0.7072(3) 0.7072(3) 0.88508(18)
H7_3 H 0.6784 0.6784 0.8970
C18_3 C 0.7081(3) 0.7081(3) 0.85041(16)
H8_3 H 0.6792 0.6792 0.8386
C19_3 C 0.7500 0.7500 0.8325(2)
C20_3 C 0.7500 0.7500 0.7935(2)
O9_2 O 0.78989(16) 0.78989(16) 0.77959(10)
C31_3 C 0.7928(3) 0.7928(3) 0.88508(18)
H15_3 H 0.8216 0.8216 0.8970
C32_3 C 0.7919(3) 0.7919(3) 0.85041(16)
H16_3 H 0.8208 0.8208 0.8386
Zn9_2 Zn 0.80702(2) 0.80702(2) 0.732548(14)
Zn10_2 Zn 0.69298(2) 0.69298(2) 0.732548(14)
C2_4 C 0.7508(2) 0.00554(18) 0.70378(11)
C3_4 C 0.7929(3) 0.0412(2) 0.72467(17)
H1_4 H 0.8218 0.0180 0.7393
C4_4 C 0.7933(4) 0.1106(3) 0.72443(19)
H2_4 H 0.8234 0.1335 0.7385
C5_4 C 0.7514(3) 0.1468(2) 0.70446(14)
C6_4 C 0.7078(3) 0.1123(3) 0.68412(17)
H3_4 H 0.6776 0.1361 0.6705
C7_4 C 0.7079(3) 0.0413(2) 0.68350(16)
H4_4 H 0.6785 0.0184 0.6691
C8_4 C 0.7493(3) 0.2200(2) 0.70331(11)
O6_3 O 0.71077(17) 0.59893(14) 0.72441(9)
O7_3 O 0.79038(15) 0.59657(12) 0.68417(8)
C21_4 C 0.7495(2) 0.5686(2) 0.70491(12)
C22_4 C 0.7492(2) 0.49446(18) 0.70378(11)
C23_4 C 0.7071(3) 0.4588(2) 0.72467(17)
H9_4 H 0.6782 0.4820 0.7393
C24_4 C 0.7067(4) 0.3894(3) 0.72443(19)
H10_4 H 0.6766 0.3665 0.7385
C25_4 C 0.7486(3) 0.3532(2) 0.70446(14)
C26_4 C 0.7922(3) 0.3877(3) 0.68412(17)
H11_4 H 0.8224 0.3639 0.6705
C27_4 C 0.7921(3) 0.4587(2) 0.68350(16)
H12_4 H 0.8215 0.4816 0.6691
C28_4 C 0.7507(3) 0.2800(2) 0.70331(11)
Zn6_3 Zn 0.806533(19) 0.693467(19) 0.675603(14)
Zn1_3 Zn 0.693467(19) 0.806533(19) 0.675603(14)
O1_4 O 0.7500 0.7500 0.70441(9)
O2_3 O 0.78923(17) 0.90107(14) 0.72441(9)
O3_3 O 0.70962(15) 0.90343(12) 0.68417(8)
O4_4 O 0.70986(17) 0.79014(17) 0.62772(10)
C1_4 C 0.7505(2) 0.9314(2) 0.70491(12)
C9_4 C 0.7500 0.7500 0.6125(2)
C10_4 C 0.7500 0.7500 0.5766(2)
C11_4 C 0.7086(4) 0.7914(4) 0.55903(18)
H5_4 H 0.6795 0.8205 0.5705
C12_4 C 0.7093(4) 0.7907(4) 0.5231(2)
H6_4 H 0.6802 0.8198 0.5116
C13_4 C 0.7500 0.7500 0.5049(3)
C14_4 C 0.7500 0.7500 0.4685(3)
C15_4 C 0.7500 0.7500 0.4392(3)
C16_4 C 0.7500 0.7500 0.4015(3)
C17_4 C 0.7072(3) 0.7928(3) 0.38508(18)
H7_4 H 0.6784 0.8216 0.3970
C18_4 C 0.7081(3) 0.7919(3) 0.35041(16)
H8_4 H 0.6792 0.8208 0.3386
C19_4 C 0.7500 0.7500 0.3325(2)
C20_4 C 0.7500 0.7500 0.2935(2)
O8_4 O 0.79014(17) 0.70986(17) 0.62772(10)
C29_4 C 0.7914(4) 0.7086(4) 0.55903(18)
H13_4 H 0.8205 0.6795 0.5705
C30_4 C 0.7907(4) 0.7093(4) 0.5231(2)
H14_4 H 0.8198 0.6802 0.5116
C31_4 C 0.7928(3) 0.7072(3) 0.38508(18)
H15_4 H 0.8216 0.6784 0.3970
C32_4 C 0.7919(3) 0.7081(3) 0.35041(16)
H16_4 H 0.8208 0.6792 0.3386
O14_4 O 0.59893(14) 0.71077(17) 0.72441(9)
O15_4 O 0.90107(14) 0.78923(17) 0.72441(9)
O16_4 O 0.59657(12) 0.79038(15) 0.68417(8)
O17_4 O 0.90343(12) 0.70962(15) 0.68417(8)
C34_3 C 0.00554(18) 0.7508(2) 0.70378(11)
C35_3 C 0.0412(2) 0.7929(3) 0.72467(17)
H17_3 H 0.0180 0.8218 0.7393
C36_3 C 0.1106(3) 0.7933(4) 0.72443(19)
H18_3 H 0.1335 0.8234 0.7385
C37_3 C 0.1468(2) 0.7514(3) 0.70446(14)
C38_3 C 0.1123(3) 0.7078(3) 0.68412(17)
H19_3 H 0.1361 0.6776 0.6705
C39_3 C 0.0413(2) 0.7079(3) 0.68350(16)
H20_3 H 0.0184 0.6785 0.6691
C40_3 C 0.2200(2) 0.7493(3) 0.70331(11)
C41_3 C 0.5686(2) 0.7495(2) 0.70491(12)
C42_3 C 0.49446(18) 0.7492(2) 0.70378(11)
C43_3 C 0.4588(2) 0.7071(3) 0.72467(17)
H21_3 H 0.4820 0.6782 0.7393
C44_3 C 0.3894(3) 0.7067(4) 0.72443(19)
H22_3 H 0.3665 0.6766 0.7385
C45_3 C 0.3532(2) 0.7486(3) 0.70446(14)
C46_3 C 0.3877(3) 0.7922(3) 0.68412(17)
H23_3 H 0.3639 0.8224 0.6705
C47_3 C 0.4587(2) 0.7921(3) 0.68350(16)
H24_3 H 0.4816 0.8215 0.6691
C48_3 C 0.2800(2) 0.7507(3) 0.70331(11)
C33_3 C 0.9314(2) 0.7505(2) 0.70491(12)
C34_4 C 0.7492(2) 0.00554(18) 0.20378(11)
C35_4 C 0.7071(3) 0.0412(2) 0.22467(17)
H17_4 H 0.6782 0.0180 0.2393
C36_4 C 0.7067(4) 0.1106(3) 0.22443(19)
H18_4 H 0.6766 0.1335 0.2385
C37_4 C 0.7486(3) 0.1468(2) 0.20446(14)
C38_4 C 0.7922(3) 0.1123(3) 0.18412(17)
H19_4 H 0.8224 0.1361 0.1705
C39_4 C 0.7921(3) 0.0413(2) 0.18350(16)
H20_4 H 0.8215 0.0184 0.1691
C40_4 C 0.7507(3) 0.2200(2) 0.20331(11)
C41_4 C 0.7505(2) 0.5686(2) 0.20491(12)
C42_4 C 0.7508(2) 0.49446(18) 0.20378(11)
C43_4 C 0.7929(3) 0.4588(2) 0.22467(17)
H21_4 H 0.8218 0.4820 0.2393
C44_4 C 0.7933(4) 0.3894(3) 0.22443(19)
H22_4 H 0.8234 0.3665 0.2385
C45_4 C 0.7514(3) 0.3532(2) 0.20446(14)
C46_4 C 0.7078(3) 0.3877(3) 0.18412(17)
H23_4 H 0.6776 0.3639 0.1705
C47_4 C 0.7079(3) 0.4587(2) 0.18350(16)
H24_4 H 0.6785 0.4816 0.1691
C48_4 C 0.7493(3) 0.2800(2) 0.20331(11)
C33_4 C 0.7495(2) 0.9314(2) 0.20491(12)
loop_
_geom_bond_atom_site_label_1
_geom_bond_atom_site_label_2
_geom_bond_site_symmetry_1
_geom_bond_site_symmetry_2
O6 C21 1_555 1_555
O7 C21 1_555 1_555
Zn6 O7 1_555 1_555
Zn8 O6 1_555 1_555
Zn1 O1 1_555 1_555
Zn2 O1 1_555 1_555
O1 Zn6 1_555 1_555
O2 Zn2 1_555 1_555
O3 Zn1 1_555 1_555
O4 Zn1 1_555 1_555
O5 C20 1_555 1_555
C1 O2 1_555 1_555
C2 C1 1_555 1_555
C3 C2 1_555 1_555
H1 C3 1_555 1_555
C4 C3 1_555 1_555
H2 C4 1_555 1_555
C5 C4 1_555 1_555
C6 C5 1_555 1_555
H3 C6 1_555 1_555
C7 C2 1_555 1_555
H4 C7 1_555 1_555
C8 C5 1_555 1_555
C9 O4 1_555 1_555
C10 C9 1_555 1_555
C11 C10 1_555 1_555
H5 C11 1_555 1_555
C12 C11 1_555 1_555
H6 C12 1_555 1_555
C13 C12 1_555 1_555
C14 C13 1_555 1_555
C15 C14 1_555 1_555
C16 C15 1_555 1_555
C17 C16 1_555 1_555
H7 C17 1_555 1_555
C18 C17 1_555 1_555
H8 C18 1_555 1_555
C19 C18 1_555 1_555
C20 C19 1_555 1_555
C22 C23 1_555 1_555
C23 H9 1_555 1_555
C24 C23 1_555 1_555
H10 C24 1_555 1_555
C25 C24 1_555 1_555
C26 C25 1_555 1_555
H11 C26 1_555 1_555
C27 C22 1_555 1_555
H12 C27 1_555 1_555
C28 C8 1_555 1_555
O8 C9 1_555 1_555
O9 C20 1_555 1_555
C29 C10 1_555 1_555
H13 C29 1_555 1_555
C30 C13 1_555 1_555
H14 C30 1_555 1_555
C31 C16 1_555 1_555
H15 C31 1_555 1_555
C32 C19 1_555 1_555
H16 C32 1_555 1_555
Zn6 O8 1_555 1_555
Zn8 O1 1_555 1_555
Zn9 O9 1_555 1_555
Zn10 O5 1_555 1_555
O14 Zn8 1_555 1_555
O15 Zn2 1_555 1_555
O16 Zn1 1_555 1_555
O17 Zn6 1_555 1_555
O18 Zn2 1_555 1_555
O19 Zn8 1_555 1_555
O3 C1 1_555 1_555
C6 C7 1_555 1_555
C25 C28 1_555 1_555
C26 C27 1_555 1_555
C29 C30 1_555 1_555
C31 C32 1_555 1_555
O6_2 C21_2 1_555 1_555
O7_2 C21_2 1_555 1_555
Zn6_2 O7_2 1_555 1_555
Zn10 O6_2 1_555 1_555
O18 C20_2 1_555 1_555
C15_2 C14_2 1_555 1_555
C16_2 C15_2 1_555 1_555
C17_2 C16_2 1_555 1_555
H7_2 C17_2 1_555 1_555
C18_2 C17_2 1_555 1_555
H8_2 C18_2 1_555 1_555
C19_2 C18_2 1_555 1_555
C20_2 C19_2 1_555 1_555
O19 C20_2 1_555 1_555
C31_2 C16_2 1_555 1_555
H15_2 C31_2 1_555 1_555
C32_2 C19_2 1_555 1_555
H16_2 C32_2 1_555 1_555
C31_2 C32_2 1_555 1_555
Zn1_2 O1_2 1_555 1_555
Zn9 O1_2 1_555 1_555
O1_2 Zn6_2 1_555 1_555
O2_2 Zn9 1_555 1_555
O3_2 Zn1_2 1_555 1_555
O4_2 Zn1_2 1_555 1_555
C1_2 O2_2 1_555 1_555
C2_2 C1_2 1_555 1_555
C3_2 C2_2 1_555 1_555
H1_2 C3_2 1_555 1_555
C4_2 C3_2 1_555 1_555
H2_2 C4_2 1_555 1_555
C5_2 C4_2 1_555 1_555
C6_2 C5_2 1_555 1_555
H3_2 C6_2 1_555 1_555
C7_2 C2_2 1_555 1_555
H4_2 C7_2 1_555 1_555
C8_2 C5_2 1_555 1_555
C9_2 O4_2 1_555 1_555
C10_2 C9_2 1_555 1_555
C11_2 C10_2 1_555 1_555
H5_2 C11_2 1_555 1_555
C12_2 C11_2 1_555 1_555
H6_2 C12_2 1_555 1_555
C13_2 C12_2 1_555 1_555
C22_2 C23_2 1_555 1_555
C23_2 H9_2 1_555 1_555
C24_2 C23_2 1_555 1_555
H10_2 C24_2 1_555 1_555
C25_2 C24_2 1_555 1_555
C26_2 C25_2 1_555 1_555
H11_2 C26_2 1_555 1_555
C27_2 C22_2 1_555 1_555
H12_2 C27_2 1_555 1_555
C28_2 C8_2 1_555 1_555
O8_2 C9_2 1_555 1_555
C29_2 C10_2 1_555 1_555
H13_2 C29_2 1_555 1_555
C30_2 C13_2 1_555 1_555
H14_2 C30_2 1_555 1_555
Zn6_2 O8_2 1_555 1_555
Zn10 O1_2 1_555 1_555
O14_2 Zn10 1_555 1_555
O15_2 Zn9 1_555 1_555
O16_2 Zn1_2 1_555 1_555
O17_2 Zn6_2 1_555 1_555
O3_2 C1_2 1_555 1_555
C6_2 C7_2 1_555 1_555
C25_2 C28_2 1_555 1_555
C26_2 C27_2 1_555 1_555
C29_2 C30_2 1_555 1_555
O15_2 C21_3 1_555 1_555
O17_2 C21_3 1_555 1_555
C1_3 O14_2 1_555 1_555
C2_3 C1_3 1_555 1_555
C3_3 C2_3 1_555 1_555
H1_3 C3_3 1_555 1_555
C4_3 C3_3 1_555 1_555
H2_3 C4_3 1_555 1_555
C5_3 C4_3 1_555 1_555
C6_3 C5_3 1_555 1_555
H3_3 C6_3 1_555 1_555
C7_3 C2_3 1_555 1_555
H4_3 C7_3 1_555 1_555
C8_3 C5_3 1_555 1_555
C22_3 C23_3 1_555 1_555
C23_3 H9_3 1_555 1_555
C24_3 C23_3 1_555 1_555
H10_3 C24_3 1_555 1_555
C25_3 C24_3 1_555 1_555
C26_3 C25_3 1_555 1_555
H11_3 C26_3 1_555 1_555
C27_3 C22_3 1_555 1_555
H12_3 C27_3 1_555 1_555
C28_3 C8_3 1_555 1_555
O16_2 C1_3 1_555 1_555
C6_3 C7_3 1_555 1_555
C25_3 C28_3 1_555 1_555
C26_3 C27_3 1_555 1_555
O14 C41 1_555 1_555
O16 C41 1_555 1_555
C33 O15 1_555 1_555
C34 C33 1_555 1_555
C35 C34 1_555 1_555
H17 C35 1_555 1_555
C36 C35 1_555 1_555
H18 C36 1_555 1_555
C37 C36 1_555 1_555
C38 C37 1_555 1_555
H19 C38 1_555 1_555
C39 C34 1_555 1_555
H20 C39 1_555 1_555
C40 C37 1_555 1_555
C42 C43 1_555 1_555
C43 H21 1_555 1_555
C44 C43 1_555 1_555
H22 C44 1_555 1_555
C45 C44 1_555 1_555
C46 C45 1_555 1_555
H23 C46 1_555 1_555
C47 C42 1_555 1_555
H24 C47 1_555 1_555
C48 C40 1_555 1_555
O17 C33 1_555 1_555
C38 C39 1_555 1_555
C45 C48 1_555 1_555
C46 C47 1_555 1_555
C35_2 C34_2 1_555 1_555
H17_2 C35_2 1_555 1_555
C36_2 C35_2 1_555 1_555
H18_2 C36_2 1_555 1_555
C37_2 C36_2 1_555 1_555
C38_2 C37_2 1_555 1_555
H19_2 C38_2 1_555 1_555
C39_2 C34_2 1_555 1_555
H20_2 C39_2 1_555 1_555
C40_2 C37_2 1_555 1_555
O12 C41_2 1_555 1_555
O13 C41_2 1_555 1_555
C41_2 C42_2 1_555 1_555
C42_2 C43_2 1_555 1_555
C43_2 H21_2 1_555 1_555
C44_2 C43_2 1_555 1_555
H22_2 C44_2 1_555 1_555
C45_2 C44_2 1_555 1_555
C46_2 C45_2 1_555 1_555
H23_2 C46_2 1_555 1_555
C47_2 C42_2 1_555 1_555
H24_2 C47_2 1_555 1_555
C48_2 C40_2 1_555 1_555
Zn5 O13 1_555 1_555
Zn7 O12 1_555 1_555
C38_2 C39_2 1_555 1_555
C45_2 C48_2 1_555 1_555
C46_2 C47_2 1_555 1_555
Zn5 O1_3 1_555 1_555
Zn7 O1_3 1_555 1_555
O1_3 Zn3 1_555 1_555
O4_3 Zn5 1_555 1_555
C9_3 O4_3 1_555 1_555
C10_3 C9_3 1_555 1_555
C11_3 C10_3 1_555 1_555
H5_3 C11_3 1_555 1_555
C12_3 C11_3 1_555 1_555
H6_3 C12_3 1_555 1_555
C13_3 C12_3 1_555 1_555
O8_3 C9_3 1_555 1_555
C29_3 C10_3 1_555 1_555
H13_3 C29_3 1_555 1_555
C30_3 C13_3 1_555 1_555
H14_3 C30_3 1_555 1_555
Zn3 O8_3 1_555 1_555
Zn4 O1_3 1_555 1_555
O10 Zn4 1_555 1_555
O11 Zn3 1_555 1_555
C33_2 O10 1_555 1_555
O14_3 Zn4 1_555 1_555
O15_3 Zn7 1_555 1_555
O16_3 Zn5 1_555 1_555
O17_3 Zn3 1_555 1_555
O18_2 Zn7 1_555 1_555
O19_2 Zn4 1_555 1_555
C29_3 C30_3 1_555 1_555
O11 C33_2 1_555 1_555
O5_2 C20_3 1_555 1_555
C15_3 C14_3 1_555 1_555
C16_3 C15_3 1_555 1_555
C17_3 C16_3 1_555 1_555
H7_3 C17_3 1_555 1_555
C18_3 C17_3 1_555 1_555
H8_3 C18_3 1_555 1_555
C19_3 C18_3 1_555 1_555
C20_3 C19_3 1_555 1_555
O9_2 C20_3 1_555 1_555
C31_3 C16_3 1_555 1_555
H15_3 C31_3 1_555 1_555
C32_3 C19_3 1_555 1_555
H16_3 C32_3 1_555 1_555
Zn9_2 O9_2 1_555 1_555
Zn10_2 O5_2 1_555 1_555
C31_3 C32_3 1_555 1_555
C3_4 C2_4 1_555 1_555
H1_4 C3_4 1_555 1_555
C4_4 C3_4 1_555 1_555
H2_4 C4_4 1_555 1_555
C5_4 C4_4 1_555 1_555
C6_4 C5_4 1_555 1_555
H3_4 C6_4 1_555 1_555
C7_4 C2_4 1_555 1_555
H4_4 C7_4 1_555 1_555
C8_4 C5_4 1_555 1_555
O6_3 C21_4 1_555 1_555
O7_3 C21_4 1_555 1_555
C21_4 C22_4 1_555 1_555
C22_4 C23_4 1_555 1_555
C23_4 H9_4 1_555 1_555
C24_4 C23_4 1_555 1_555
H10_4 C24_4 1_555 1_555
C25_4 C24_4 1_555 1_555
C26_4 C25_4 1_555 1_555
H11_4 C26_4 1_555 1_555
C27_4 C22_4 1_555 1_555
H12_4 C27_4 1_555 1_555
C28_4 C8_4 1_555 1_555
Zn6_3 O7_3 1_555 1_555
Zn10_2 O6_3 1_555 1_555
C6_4 C7_4 1_555 1_555
C25_4 C28_4 1_555 1_555
C26_4 C27_4 1_555 1_555
Zn1_3 O1_4 1_555 1_555
Zn9_2 O1_4 1_555 1_555
O1_4 Zn6_3 1_555 1_555
O2_3 Zn9_2 1_555 1_555
O3_3 Zn1_3 1_555 1_555
O4_4 Zn1_3 1_555 1_555
O18_2 C20_4 1_555 1_555
C1_4 O2_3 1_555 1_555
C9_4 O4_4 1_555 1_555
C10_4 C9_4 1_555 1_555
C11_4 C10_4 1_555 1_555
H5_4 C11_4 1_555 1_555
C12_4 C11_4 1_555 1_555
H6_4 C12_4 1_555 1_555
C13_4 C12_4 1_555 1_555
C14_4 C13_4 1_555 1_555
C15_4 C14_4 1_555 1_555
C16_4 C15_4 1_555 1_555
C17_4 C16_4 1_555 1_555
H7_4 C17_4 1_555 1_555
C18_4 C17_4 1_555 1_555
H8_4 C18_4 1_555 1_555
C19_4 C18_4 1_555 1_555
C20_4 C19_4 1_555 1_555
O8_4 C9_4 1_555 1_555
O19_2 C20_4 1_555 1_555
C29_4 C10_4 1_555 1_555
H13_4 C29_4 1_555 1_555
C30_4 C13_4 1_555 1_555
H14_4 C30_4 1_555 1_555
C31_4 C16_4 1_555 1_555
H15_4 C31_4 1_555 1_555
C32_4 C19_4 1_555 1_555
H16_4 C32_4 1_555 1_555
Zn6_3 O8_4 1_555 1_555
Zn10_2 O1_4 1_555 1_555
O14_4 Zn10_2 1_555 1_555
O15_4 Zn9_2 1_555 1_555
O16_4 Zn1_3 1_555 1_555
O17_4 Zn6_3 1_555 1_555
O3_3 C1_4 1_555 1_555
C29_4 C30_4 1_555 1_555
C31_4 C32_4 1_555 1_555
C35_3 C34_3 1_555 1_555
H17_3 C35_3 1_555 1_555
C36_3 C35_3 1_555 1_555
H18_3 C36_3 1_555 1_555
C37_3 C36_3 1_555 1_555
C38_3 C37_3 1_555 1_555
H19_3 C38_3 1_555 1_555
C39_3 C34_3 1_555 1_555
H20_3 C39_3 1_555 1_555
C40_3 C37_3 1_555 1_555
O14_4 C41_3 1_555 1_555
O16_4 C41_3 1_555 1_555
C41_3 C42_3 1_555 1_555
C42_3 C43_3 1_555 1_555
C43_3 H21_3 1_555 1_555
C44_3 C43_3 1_555 1_555
H22_3 C44_3 1_555 1_555
C45_3 C44_3 1_555 1_555
C46_3 C45_3 1_555 1_555
H23_3 C46_3 1_555 1_555
C47_3 C42_3 1_555 1_555
H24_3 C47_3 1_555 1_555
C48_3 C40_3 1_555 1_555
C38_3 C39_3 1_555 1_555
C45_3 C48_3 1_555 1_555
C46_3 C47_3 1_555 1_555
C33_3 O15_4 1_555 1_555
O17_4 C33_3 1_555 1_555
C35_4 C34_4 1_555 1_555
H17_4 C35_4 1_555 1_555
C36_4 C35_4 1_555 1_555
H18_4 C36_4 1_555 1_555
C37_4 C36_4 1_555 1_555
C38_4 C37_4 1_555 1_555
H19_4 C38_4 1_555 1_555
C39_4 C34_4 1_555 1_555
H20_4 C39_4 1_555 1_555
C40_4 C37_4 1_555 1_555
O14_3 C41_4 1_555 1_555
O16_3 C41_4 1_555 1_555
C41_4 C42_4 1_555 1_555
C42_4 C43_4 1_555 1_555
C43_4 H21_4 1_555 1_555
C44_4 C43_4 1_555 1_555
H22_4 C44_4 1_555 1_555
C45_4 C44_4 1_555 1_555
C46_4 C45_4 1_555 1_555
H23_4 C46_4 1_555 1_555
C47_4 C42_4 1_555 1_555
H24_4 C47_4 1_555 1_555
C48_4 C40_4 1_555 1_555
C38_4 C39_4 1_555 1_555
C45_4 C48_4 1_555 1_555
C46_4 C47_4 1_555 1_555
C33_4 O15_3 1_555 1_555
O17_3 C33_4 1_555 1_555

#END
