
###############################################################################
#
# This file contains modified crystal structure data generated from the
# MOF subset of the Cambridge Structural Database (CSD) v543 
# hosted by the Cambridge Crystallographic Data Centre (CCDC).
#
# This work is licensed under the Creative Commons
# Attribution-NonCommercial-ShareAlike 4.0 International License.
# To view a copy of this license, visit
# http://creativecommons.org/licenses/by-nc-sa/4.0/
# or send a letter to
# Creative Commons, PO Box 1866, Mountain View, CA 94042, USA.
#
# CIF created using the CSD Python API on 29 September 2022
# The structure has been converted into the P1 space group
# The structure has a 3D framework
# The original CSD entry NUVYIO is in the trigonal crystal system
# The original CSD entry NUVYIO is in a Sohncke space group
# The framework has been calculated to contain at least 10.0% void space
# The void calculation uses a probe of radius 1.32A, grid spacing 0.4
#
###############################################################################

data_NUVYIO
_chemical_formula_moiety         '(C648 H288 O156 Zn44)n'
_symmetry_cell_setting           triclinic
_symmetry_space_group_name_H-M   'P 1'
_symmetry_Int_Tables_number      1
_space_group_name_Hall           'P 1'
loop_
_symmetry_equiv_pos_site_id
_symmetry_equiv_pos_as_xyz
1 x,y,z
_cell_length_a                   31.114(2)
_cell_length_b                   31.114(2)
_cell_length_c                   39.280(3)
_cell_angle_alpha                90
_cell_angle_beta                 90
_cell_angle_gamma                120
_cell_volume                     32931.7
loop_
_atom_site_label
_atom_site_type_symbol
_atom_site_fract_x
_atom_site_fract_y
_atom_site_fract_z
Zn8 Zn 0.33791(2) 0.00552(3) 0.19546(2)
O12 O 0.27171(17) 0.97443(19) 0.21599(12)
O13 O 0.21876(18) 0.9374(2) 0.17392(14)
C46 C 0.0351(4) 0.8508(4) 0.3166(3)
C47 C 0.0712(4) 0.8709(4) 0.2980(3)
C48 C 0.1106(4) 0.8888(4) 0.2747(3)
C49 C 0.1576(4) 0.9215(4) 0.2843(3)
H21 H 0.1636 0.9333 0.3066
C50 C 0.1966(3) 0.9378(3) 0.2619(2)
H22 H 0.2285 0.9610 0.2688
C51 C 0.1881(3) 0.9195(3) 0.2287(2)
C52 C 0.1428(4) 0.8871(4) 0.2192(3)
H23 H 0.1373 0.8764 0.1967
C53 C 0.1023(4) 0.8681(4) 0.2416(3)
H24 H 0.0711 0.8428 0.2350
C54 C 0.2292(3) 0.9482(3) 0.2030(2)
Zn9 Zn 0.26469(2) 0.96746(3) 0.13424(2)
Zn1 Zn 0.60056(2) 0.63475(2) 0.46373(2)
Zn2 Zn 0.70176(3) 0.63183(3) 0.46108(2)
Zn3 Zn 0.66761(2) 0.66209(2) 0.52879(2)
Zn4 Zn 0.70277(2) 0.73531(2) 0.46757(2)
O1 O 0.66885(11) 0.66754(11) 0.47980(10)
O2 O 0.5819(2) 0.58051(19) 0.43213(15)
O3 O 0.6565(4) 0.5949(3) 0.4240(2)
O4 O 0.3828(4) 0.1162(3) 0.1636(2)
O5 O 0.3703(2) 0.0692(2) 0.21650(15)
O6 O 0.55023(16) 0.60773(17) 0.50060(12)
O7 O 0.6006(2) 0.6340(2) 0.54656(14)
O8 O 0.09518(16) 0.41232(16) 0.77121(11)
O9 O 0.08908(18) 0.33895(19) 0.77037(12)
O10 O 0.7579(2) 0.6856(2) 0.43560(15)
O11 O 0.76652(19) 0.7588(2) 0.44499(15)
C1 C 0.6093(5) 0.5689(4) 0.4187(2)
C2 C 0.5886(4) 0.5237(4) 0.3952(3)
C3 C 0.5386(5) 0.4953(4) 0.3912(3)
H1 H 0.5174 0.5036 0.4024
C4 C 0.5199(4) 0.4543(4) 0.3705(3)
H2 H 0.4857 0.4333 0.3691
C5 C 0.5505(5) 0.4438(5) 0.3520(3)
C6 C 0.5998(5) 0.4743(5) 0.3562(3)
H3 H 0.6212 0.4687 0.3429
C7 C 0.6203(4) 0.5128(4) 0.3787(3)
H4 H 0.6543 0.5306 0.3827
C8 C 0.5323(5) 0.4061(5) 0.3321(3)
C9 C 0.5079(4) 0.3656(4) 0.3109(3)
C10 C 0.4953(4) 0.3270(4) 0.2947(3)
C11 C 0.4677(4) 0.2873(4) 0.2769(2)
C12 C 0.4399(4) 0.2419(4) 0.2562(2)
C13 C 0.4280(4) 0.2393(4) 0.2236(3)
H5 H 0.4360 0.2688 0.2125
C14 C 0.4043(4) 0.1956(4) 0.2047(3)
H6 H 0.3925 0.1949 0.1828
C15 C 0.3993(4) 0.1544(4) 0.2196(3)
C16 C 0.4120(4) 0.1541(4) 0.2540(3)
H7 H 0.4049 0.1245 0.2645
C17 C 0.4349(4) 0.1979(4) 0.2720(3)
H8 H 0.4468 0.1991 0.2938
C18 C 0.3813(4) 0.1097(4) 0.1957(3)
C19 C 0.5595(3) 0.6117(3) 0.5323(2)
C20 C 0.5145(3) 0.5835(3) 0.5557(2)
C21 C 0.4690(4) 0.5489(4) 0.5440(2)
H9 H 0.4652 0.5389 0.5214
C22 C 0.4293(3) 0.5289(3) 0.5651(2)
H10 H 0.3984 0.5060 0.5565
C23 C 0.4335(3) 0.5413(4) 0.5979(2)
C24 C 0.4799(4) 0.5784(4) 0.6103(2)
H11 H 0.4829 0.5895 0.6327
C25 C 0.5202(3) 0.5979(4) 0.5898(2)
H12 H 0.5513 0.6205 0.5984
C26 C 0.3921(4) 0.5172(4) 0.6182(2)
C27 C 0.3532(4) 0.4996(4) 0.6389(2)
C28 C 0.3151(3) 0.4826(4) 0.6602(3)
C29 C 0.2847(4) 0.4647(4) 0.6816(3)
C30 C 0.2390(4) 0.4386(4) 0.7000(2)
C31 C 0.2242(3) 0.4704(4) 0.7139(3)
H13 H 0.2418 0.5041 0.7088
C32 C 0.1829(3) 0.4519(4) 0.7355(2)
H14 H 0.1732 0.4734 0.7445
C33 C 0.1564(4) 0.4017(4) 0.7435(3)
C34 C 0.1730(4) 0.3710(4) 0.7290(2)
H15 H 0.1561 0.3371 0.7335
C35 C 0.2140(3) 0.3911(3) 0.7081(3)
H16 H 0.2246 0.3702 0.6994
C36 C 0.1074(3) 0.3815(4) 0.7636(2)
C37 C 0.7799(3) 0.7295(4) 0.4325(2)
C38 C 0.8305(4) 0.7547(4) 0.4153(2)
C39 C 0.8408(4) 0.7267(4) 0.3944(3)
H17 H 0.8182 0.6929 0.3925
C40 C 0.8835(4) 0.7467(4) 0.3760(3)
H18 H 0.8898 0.7258 0.3626
C41 C 0.9189(4) 0.7981(4) 0.3764(2)
C42 C 0.9054(4) 0.8244(4) 0.3966(3)
H19 H 0.9272 0.8584 0.3979
C43 C 0.8627(4) 0.8056(4) 0.4153(3)
H20 H 0.8554 0.8266 0.4277
C44 C 0.9604(4) 0.8188(4) 0.3583(3)
C45 C 0.9865(4) 0.8216(4) 0.3369(3)
Zn5 Zn 0.03419(3) 0.39944(2) 0.79706(2)
Zn6 Zn 0.36817(3) 0.06993(4) 0.12775(2)
Zn10 Zn 0.03254(3) 0.29723(2) 0.80090(2)
O14 O 0.7334(5) 0.6172(4) 0.4969(2)
O15 O 0.6989(3) 0.6297(2) 0.54983(15)
O16 O 0.58768(16) 0.68286(23) 0.43788(11)
O17 O 0.66105(19) 0.75013(26) 0.43704(12)
O18 O 0.70272(25) 0.72829(17) 0.54932(12)
O19 O 0.71864(27) 0.78124(18) 0.50725(14)
O1_2 O 0.33246(11) 0.00131(16) 0.14647(10)
O2_2 O 0.41949(19) 0.00139(28) 0.09880(15)
O3_2 O 0.4051(3) 0.0616(5) 0.0907(2)
O10_2 O 0.3144(2) 0.0723(3) 0.10227(15)
O11_2 O 0.2412(2) 0.00772(28) 0.11166(15)
C1_2 C 0.4311(4) 0.0404(6) 0.0854(2)
C2_2 C 0.4763(4) 0.0649(6) 0.0619(3)
C3_2 C 0.5047(4) 0.0433(6) 0.0579(3)
H1_2 H 0.4964 0.0138 0.0691
C4_2 C 0.5457(4) 0.0656(6) 0.0372(3)
H2_2 H 0.5667 0.0524 0.0358
C5_2 C 0.5562(5) 0.1067(7) 0.0187(3)
C6_2 C 0.5257(5) 0.1255(7) 0.0229(3)
H3_2 H 0.5313 0.1525 0.0096
C7_2 C 0.4872(4) 0.1075(6) 0.0454(3)
H4_2 H 0.4694 0.1237 0.0494
C37_2 C 0.2705(4) 0.0504(5) 0.0992(2)
C38_2 C 0.2453(4) 0.0758(6) 0.0820(2)
C39_2 C 0.2733(4) 0.1141(6) 0.0611(3)
H17_2 H 0.3071 0.1253 0.0592
C40_2 C 0.2533(4) 0.1368(6) 0.0427(3)
H18_2 H 0.2742 0.1640 0.0293
C41_2 C 0.2019(4) 0.1208(6) 0.0431(2)
C42_2 C 0.1756(4) 0.0810(6) 0.0633(3)
H19_2 H 0.1416 0.0688 0.0646
C43_2 C 0.1944(4) 0.0571(6) 0.0820(3)
H20_2 H 0.1734 0.0288 0.0944
C44_2 C 0.1812(4) 0.1416(6) 0.0250(3)
C45_2 C 0.1784(4) 0.1649(6) 0.0036(3)
O4_2 O 0.8838(3) 0.2666(5) 0.8303(2)
O5_2 O 0.9308(2) 0.3011(3) 0.88317(15)
O12_2 O 0.02557(19) 0.29728(25) 0.88266(12)
O13_2 O 0.0626(2) 0.28136(27) 0.84059(14)
C8_2 C 0.5939(5) 0.1262(7) 0.9988(3)
C9_2 C 0.6344(4) 0.1423(6) 0.9776(3)
C10_2 C 0.6730(4) 0.1683(6) 0.9614(3)
C11_2 C 0.7127(4) 0.1804(6) 0.9436(2)
C12_2 C 0.7581(4) 0.1980(6) 0.9229(2)
C13_2 C 0.7607(4) 0.1887(6) 0.8903(3)
H5_2 H 0.7312 0.1672 0.8792
C14_2 C 0.8044(4) 0.2087(6) 0.8714(3)
H6_2 H 0.8051 0.1976 0.8495
C15_2 C 0.8456(4) 0.2449(6) 0.8863(3)
C16_2 C 0.8459(4) 0.2579(6) 0.9207(3)
H7_2 H 0.8755 0.2804 0.9312
C17_2 C 0.8021(4) 0.2370(6) 0.9387(3)
H8_2 H 0.8009 0.2477 0.9605
C18_2 C 0.8903(4) 0.2716(6) 0.8624(3)
C46_2 C 0.1492(4) 0.1843(6) 0.9833(3)
C47_2 C 0.1291(4) 0.2003(6) 0.9647(3)
C48_2 C 0.1112(4) 0.2218(6) 0.9414(3)
C49_2 C 0.0785(4) 0.2361(6) 0.9510(3)
H21_2 H 0.0667 0.2303 0.9733
C50_2 C 0.0622(3) 0.2588(4) 0.9286(2)
H22_2 H 0.0390 0.2675 0.9355
C51_2 C 0.0805(3) 0.2686(4) 0.8954(2)
C52_2 C 0.1129(4) 0.2557(6) 0.8859(3)
H23_2 H 0.1236 0.2609 0.8634
C53_2 C 0.1319(4) 0.2342(6) 0.9083(3)
H24_2 H 0.1572 0.2283 0.9017
C54_2 C 0.0518(3) 0.2810(4) 0.8697(2)
Zn6_2 Zn 0.93007(4) 0.29824(5) 0.79441(2)
Zn7 Zn 0.99448(3) 0.33239(4) 0.86212(2)
Zn1_2 Zn 0.36525(2) 0.96581(3) 0.13040(2)
O6_2 O 0.39227(17) 0.94250(23) 0.16727(12)
O7_2 O 0.3660(2) 0.9666(3) 0.21323(14)
C19_2 C 0.3883(3) 0.9478(4) 0.1990(2)
C20_2 C 0.4165(3) 0.9310(4) 0.2224(2)
C21_2 C 0.4511(4) 0.9201(6) 0.2107(2)
H9_2 H 0.4611 0.9263 0.1881
C22_2 C 0.4711(3) 0.9004(4) 0.2318(2)
H10_2 H 0.4940 0.8924 0.2232
C23_2 C 0.4587(4) 0.8922(5) 0.2646(2)
C24_2 C 0.4216(4) 0.9015(6) 0.2770(2)
H11_2 H 0.4105 0.8934 0.2994
C25_2 C 0.4021(4) 0.9223(5) 0.2565(2)
H12_2 H 0.3795 0.9308 0.2651
C26_2 C 0.4828(4) 0.8749(6) 0.2849(2)
C27_2 C 0.5004(4) 0.8536(6) 0.3056(2)
C28_2 C 0.5174(4) 0.8325(5) 0.3269(3)
C29_2 C 0.5353(4) 0.8200(6) 0.3483(3)
C30_2 C 0.5614(4) 0.8004(6) 0.3667(2)
C31_2 C 0.5296(4) 0.7538(5) 0.3806(3)
H13_2 H 0.4959 0.7377 0.3755
C32_2 C 0.5481(4) 0.7310(5) 0.4022(2)
H14_2 H 0.5266 0.6998 0.4112
C33_2 C 0.5983(4) 0.7547(6) 0.4102(3)
C34_2 C 0.6290(4) 0.8020(6) 0.3957(2)
H15_2 H 0.6629 0.8190 0.4002
C35_2 C 0.6089(3) 0.8229(4) 0.3748(3)
H16_2 H 0.6298 0.8544 0.3661
C36_2 C 0.6185(4) 0.7259(5) 0.4303(2)
O16_2 O 0.31714(23) 0.90482(28) 0.10454(11)
O17_2 O 0.24987(26) 0.91092(32) 0.10370(12)
C29_3 C 0.1800(6) 0.7153(4) 0.0149(3)
C30_3 C 0.1996(6) 0.7610(4) 0.0333(2)
C31_3 C 0.2462(5) 0.7758(3) 0.0472(3)
H13_3 H 0.2623 0.7582 0.0421
C32_3 C 0.2690(5) 0.8171(3) 0.0688(2)
H14_3 H 0.3002 0.8268 0.0778
C33_3 C 0.2453(6) 0.8436(4) 0.0768(3)
C34_3 C 0.1980(6) 0.8270(4) 0.0623(2)
H15_3 H 0.1810 0.8439 0.0668
C35_3 C 0.1771(4) 0.7860(3) 0.0414(3)
H16_3 H 0.1456 0.7754 0.0327
C36_3 C 0.2741(5) 0.8926(3) 0.0969(2)
O6_3 O 0.05750(23) 0.44977(16) 0.83393(12)
O7_3 O 0.0334(3) 0.3994(2) 0.87989(14)
C19_3 C 0.0522(4) 0.4405(3) 0.8656(2)
C20_3 C 0.0690(4) 0.4855(3) 0.8890(2)
C21_3 C 0.0799(6) 0.5310(4) 0.8773(2)
H9_3 H 0.0737 0.5348 0.8547
C22_3 C 0.0996(4) 0.5707(3) 0.8984(2)
H10_3 H 0.1076 0.6016 0.8898
C23_3 C 0.1078(5) 0.5665(3) 0.9312(2)
C24_3 C 0.0985(6) 0.5201(4) 0.9436(2)
H11_3 H 0.1066 0.5171 0.9660
C25_3 C 0.0777(5) 0.4798(3) 0.9231(2)
H12_3 H 0.0692 0.4487 0.9317
C26_3 C 0.1251(6) 0.6079(4) 0.9515(2)
C27_3 C 0.1464(6) 0.6468(4) 0.9722(2)
C28_3 C 0.1675(5) 0.6849(3) 0.9935(3)
O1_3 O 0.99869(16) 0.33115(11) 0.81313(10)
O2_3 O 0.99861(28) 0.4181(2) 0.76546(15)
O3_3 O 0.9384(5) 0.3435(4) 0.7573(2)
O10_3 O 0.9277(3) 0.2421(2) 0.76893(15)
O11_3 O 0.99228(28) 0.23348(19) 0.77832(15)
C1_3 C 0.9596(6) 0.3907(5) 0.7520(2)
C2_3 C 0.9351(6) 0.4114(4) 0.7285(3)
C3_3 C 0.9567(6) 0.4614(5) 0.7245(3)
H1_3 H 0.9862 0.4826 0.7357
C4_3 C 0.9344(6) 0.4801(4) 0.7038(3)
H2_3 H 0.9476 0.5143 0.7024
C5_3 C 0.8933(7) 0.4495(5) 0.6853(3)
C6_3 C 0.8745(7) 0.4002(5) 0.6895(3)
H3_3 H 0.8475 0.3788 0.6762
C7_3 C 0.8925(6) 0.3797(4) 0.7120(3)
H4_3 H 0.8763 0.3457 0.7160
C8_3 C 0.8738(7) 0.4677(5) 0.6654(3)
C9_3 C 0.8577(6) 0.4921(4) 0.6442(3)
C10_3 C 0.8317(6) 0.5047(4) 0.6280(3)
C11_3 C 0.8196(6) 0.5323(4) 0.6102(2)
C12_3 C 0.8020(6) 0.5601(4) 0.5895(2)
C13_3 C 0.8113(6) 0.5720(4) 0.5569(3)
H5_3 H 0.8328 0.5640 0.5458
C14_3 C 0.7913(6) 0.5957(4) 0.5380(3)
H6_3 H 0.8024 0.6075 0.5161
C15_3 C 0.7551(6) 0.6007(4) 0.5529(3)
C16_3 C 0.7421(6) 0.5880(4) 0.5873(3)
H7_3 H 0.7196 0.5951 0.5978
C17_3 C 0.7630(6) 0.5651(4) 0.6053(3)
H8_3 H 0.7523 0.5532 0.6271
C18_3 C 0.7284(6) 0.6187(4) 0.5290(3)
C37_3 C 0.9496(5) 0.2201(3) 0.7658(2)
C38_3 C 0.9242(6) 0.1695(4) 0.7486(2)
C39_3 C 0.8859(6) 0.1592(4) 0.7277(3)
H17_3 H 0.8747 0.1818 0.7258
C40_3 C 0.8632(6) 0.1165(4) 0.7093(3)
H18_3 H 0.8360 0.1102 0.6959
C41_3 C 0.8792(6) 0.0811(4) 0.7097(2)
C42_3 C 0.9190(6) 0.0946(4) 0.7299(3)
H19_3 H 0.9312 0.0728 0.7312
C43_3 C 0.9429(6) 0.1373(4) 0.7486(3)
H20_3 H 0.9712 0.1446 0.7610
C44_3 C 0.8584(6) 0.0396(4) 0.6916(3)
C45_3 C 0.8351(6) 0.0135(4) 0.6702(3)
C46_3 C 0.8157(6) 0.9649(4) 0.6499(3)
C47_3 C 0.7997(6) 0.9288(4) 0.6313(3)
C48_3 C 0.7782(6) 0.8894(4) 0.6080(3)
C49_3 C 0.7639(6) 0.8424(4) 0.6176(3)
H21_3 H 0.7697 0.8364 0.6399
C50_3 C 0.7412(4) 0.8034(3) 0.5952(2)
H22_3 H 0.7325 0.7715 0.6021
C51_3 C 0.7314(4) 0.8119(3) 0.5620(2)
C52_3 C 0.7443(6) 0.8572(4) 0.5525(3)
H23_3 H 0.7391 0.8627 0.5300
C53_3 C 0.7658(6) 0.8977(4) 0.5749(3)
H24_3 H 0.7717 0.9289 0.5683
C54_3 C 0.7190(4) 0.7708(3) 0.5363(2)
O4_3 O 0.8838(3) 0.6172(4) 0.1697(2)
O5_3 O 0.9308(2) 0.6297(2) 0.11683(15)
C8_4 C 0.5939(5) 0.4677(5) 0.0012(3)
C9_4 C 0.6344(4) 0.4921(4) 0.0224(3)
C10_4 C 0.6730(4) 0.5047(4) 0.0386(3)
C11_4 C 0.7127(4) 0.5323(4) 0.0564(2)
C12_4 C 0.7581(4) 0.5601(4) 0.0771(2)
C13_4 C 0.7607(4) 0.5720(4) 0.1097(3)
H5_4 H 0.7312 0.5640 0.1208
C14_4 C 0.8044(4) 0.5957(4) 0.1286(3)
H6_4 H 0.8051 0.6075 0.1505
C15_4 C 0.8456(4) 0.6007(4) 0.1137(3)
C16_4 C 0.8459(4) 0.5880(4) 0.0793(3)
H7_4 H 0.8755 0.5951 0.0688
C17_4 C 0.8021(4) 0.5651(4) 0.0613(3)
H8_4 H 0.8009 0.5532 0.0395
C18_4 C 0.8903(4) 0.6187(4) 0.1376(3)
Zn6_3 Zn 0.93007(4) 0.63183(3) 0.20559(2)
Zn7_2 Zn 0.99448(3) 0.66209(2) 0.13788(2)
Zn1_3 Zn 0.36525(2) 0.39944(2) 0.86960(2)
Zn2_2 Zn 0.36817(3) 0.29824(3) 0.87225(2)
Zn3_2 Zn 0.33791(2) 0.33239(2) 0.80454(2)
Zn4_2 Zn 0.26469(2) 0.29723(2) 0.86576(2)
O1_4 O 0.33246(11) 0.33115(11) 0.85353(10)
O2_4 O 0.41949(19) 0.4181(2) 0.90120(15)
O3_4 O 0.4051(3) 0.3435(4) 0.9093(2)
O6_4 O 0.39227(17) 0.44977(16) 0.83273(12)
O7_4 O 0.3660(2) 0.3994(2) 0.78677(14)
O8_2 O 0.58768(16) 0.90482(16) 0.56212(11)
O9_2 O 0.66105(19) 0.91092(18) 0.56296(12)
O10_4 O 0.3144(2) 0.2421(2) 0.89773(15)
O11_4 O 0.2412(2) 0.23348(19) 0.88834(15)
C1_4 C 0.4311(4) 0.3907(5) 0.9146(2)
C2_4 C 0.4763(4) 0.4114(4) 0.9381(3)
C3_4 C 0.5047(4) 0.4614(5) 0.9421(3)
H1_4 H 0.4964 0.4826 0.9309
C4_4 C 0.5457(4) 0.4801(4) 0.9628(3)
H2_4 H 0.5667 0.5143 0.9642
C5_4 C 0.5562(5) 0.4495(5) 0.9813(3)
C6_4 C 0.5257(5) 0.4002(5) 0.9771(3)
H3_4 H 0.5313 0.3788 0.9904
C7_4 C 0.4872(4) 0.3797(4) 0.9546(3)
H4_4 H 0.4694 0.3457 0.9506
C19_4 C 0.3883(3) 0.4405(3) 0.8010(2)
C20_4 C 0.4165(3) 0.4855(3) 0.7776(2)
C21_4 C 0.4511(4) 0.5310(4) 0.7893(2)
H9_4 H 0.4611 0.5348 0.8119
C22_4 C 0.4711(3) 0.5707(3) 0.7682(2)
H10_4 H 0.4940 0.6016 0.7768
C23_4 C 0.4587(4) 0.5665(3) 0.7354(2)
C24_4 C 0.4216(4) 0.5201(4) 0.7230(2)
H11_4 H 0.4105 0.5171 0.7006
C25_4 C 0.4021(4) 0.4798(3) 0.7435(2)
H12_4 H 0.3795 0.4487 0.7349
C26_4 C 0.4828(4) 0.6079(4) 0.7151(2)
C27_4 C 0.5004(4) 0.6468(4) 0.6944(2)
C28_4 C 0.5174(4) 0.6849(3) 0.6731(3)
C29_4 C 0.5353(4) 0.7153(4) 0.6517(3)
C30_4 C 0.5614(4) 0.7610(4) 0.6333(2)
C31_4 C 0.5296(4) 0.7758(3) 0.6194(3)
H13_4 H 0.4959 0.7582 0.6245
C32_4 C 0.5481(4) 0.8171(3) 0.5978(2)
H14_4 H 0.5266 0.8268 0.5888
C33_4 C 0.5983(4) 0.8436(4) 0.5898(3)
C34_4 C 0.6290(4) 0.8270(4) 0.6043(2)
H15_4 H 0.6629 0.8439 0.5998
C35_4 C 0.6089(3) 0.7860(3) 0.6252(3)
H16_4 H 0.6298 0.7754 0.6339
C36_4 C 0.6185(4) 0.8926(3) 0.5697(2)
C37_4 C 0.2705(4) 0.2201(3) 0.9008(2)
C38_4 C 0.2453(4) 0.1695(4) 0.9180(2)
C39_4 C 0.2733(4) 0.1592(4) 0.9389(3)
H17_4 H 0.3071 0.1818 0.9408
C40_4 C 0.2533(4) 0.1165(4) 0.9573(3)
H18_4 H 0.2742 0.1102 0.9707
C41_4 C 0.2019(4) 0.0811(4) 0.9569(2)
C42_4 C 0.1756(4) 0.0946(4) 0.9367(3)
H19_4 H 0.1416 0.0728 0.9354
C43_4 C 0.1944(4) 0.1373(4) 0.9180(3)
H20_4 H 0.1734 0.1446 0.9056
C44_4 C 0.1812(4) 0.0396(4) 0.9750(3)
C45_4 C 0.1784(4) 0.0135(4) 0.9964(3)
Zn5_2 Zn 0.60056(2) 0.96581(3) 0.53627(2)
Zn10_2 Zn 0.70277(2) 0.96746(3) 0.53243(2)
O14_2 O 0.3828(4) 0.2666(5) 0.8364(2)
O15_2 O 0.3703(2) 0.3011(3) 0.78350(15)
O16_3 O 0.31714(23) 0.41232(16) 0.89546(11)
O17_3 O 0.24987(26) 0.33895(19) 0.89630(12)
O18_2 O 0.27171(17) 0.29728(25) 0.78401(12)
O19_2 O 0.21876(18) 0.28136(27) 0.82608(14)
O12_3 O 0.02557(19) 0.72829(17) 0.11734(12)
O13_3 O 0.0626(2) 0.78124(18) 0.15941(14)
C46_4 C 0.1492(4) 0.9649(4) 0.0167(3)
C47_4 C 0.1291(4) 0.9288(4) 0.0353(3)
C48_4 C 0.1112(4) 0.8894(4) 0.0586(3)
C49_4 C 0.0785(4) 0.8424(4) 0.0490(3)
H21_4 H 0.0667 0.8364 0.0267
C50_4 C 0.0622(3) 0.8034(3) 0.0714(2)
H22_4 H 0.0390 0.7715 0.0645
C51_4 C 0.0805(3) 0.8119(3) 0.1046(2)
C52_4 C 0.1129(4) 0.8572(4) 0.1141(3)
H23_4 H 0.1236 0.8627 0.1366
C53_4 C 0.1319(4) 0.8977(4) 0.0917(3)
H24_4 H 0.1572 0.9289 0.0983
C54_4 C 0.0518(3) 0.7708(3) 0.1303(2)
Zn9_2 Zn 0.03254(3) 0.73531(2) 0.19910(2)
Zn1_4 Zn 0.03419(3) 0.63475(2) 0.20294(2)
O6_5 O 0.05750(23) 0.60773(17) 0.16607(12)
O7_5 O 0.0334(3) 0.6340(2) 0.12011(14)
C19_5 C 0.0522(4) 0.6117(3) 0.1344(2)
C20_5 C 0.0690(4) 0.5835(3) 0.1110(2)
C21_5 C 0.0799(6) 0.5489(4) 0.1227(2)
H9_5 H 0.0737 0.5389 0.1453
C22_5 C 0.0996(4) 0.5289(3) 0.1016(2)
H10_5 H 0.1076 0.5060 0.1102
C23_5 C 0.1078(5) 0.5413(4) 0.0688(2)
C24_5 C 0.0985(6) 0.5784(4) 0.0564(2)
H11_5 H 0.1066 0.5895 0.0340
C25_5 C 0.0777(5) 0.5979(4) 0.0769(2)
H12_5 H 0.0692 0.6205 0.0683
C26_5 C 0.1251(6) 0.5172(4) 0.0485(2)
C27_5 C 0.1464(6) 0.4996(4) 0.0278(2)
C28_5 C 0.1675(5) 0.4826(4) 0.0065(3)
O16_4 O 0.09518(28) 0.68286(23) 0.22879(11)
O17_4 O 0.08908(32) 0.75013(26) 0.22963(12)
C29_5 C 0.1800(6) 0.4647(4) 0.9851(3)
C30_5 C 0.1996(6) 0.4386(4) 0.9667(2)
C31_5 C 0.2462(5) 0.4704(4) 0.9528(3)
H13_5 H 0.2623 0.5041 0.9579
C32_5 C 0.2690(5) 0.4519(4) 0.9312(2)
H14_5 H 0.3002 0.4734 0.9222
C33_5 C 0.2453(6) 0.4017(4) 0.9232(3)
C34_5 C 0.1980(6) 0.3710(4) 0.9377(2)
H15_5 H 0.1810 0.3371 0.9332
C35_5 C 0.1771(4) 0.3911(3) 0.9586(3)
H16_5 H 0.1456 0.3702 0.9673
C36_5 C 0.2741(5) 0.3815(4) 0.9031(2)
Zn8_2 Zn 0.66761(4) 0.00552(3) 0.47121(2)
O1_5 O 0.99869(16) 0.66754(11) 0.18687(10)
O2_5 O 0.99861(28) 0.58051(19) 0.23454(15)
O3_5 O 0.9384(5) 0.5949(3) 0.2427(2)
O4_4 O 0.7334(5) 0.1162(3) 0.5031(2)
O5_4 O 0.6989(3) 0.0692(2) 0.45017(15)
O10_5 O 0.9277(3) 0.6856(2) 0.23107(15)
O11_5 O 0.99228(28) 0.7588(2) 0.22168(15)
O12_4 O 0.70272(25) 0.97443(19) 0.45068(12)
O13_4 O 0.71864(27) 0.9374(2) 0.49275(14)
C1_5 C 0.9596(6) 0.5689(4) 0.2480(2)
C2_5 C 0.9351(6) 0.5237(4) 0.2715(3)
C3_5 C 0.9567(6) 0.4953(4) 0.2755(3)
H1_5 H 0.9862 0.5036 0.2643
C4_5 C 0.9344(6) 0.4543(4) 0.2962(3)
H2_5 H 0.9476 0.4333 0.2976
C5_5 C 0.8933(7) 0.4438(5) 0.3147(3)
C6_5 C 0.8745(7) 0.4743(5) 0.3105(3)
H3_5 H 0.8475 0.4687 0.3238
C7_5 C 0.8925(6) 0.5128(4) 0.2880(3)
H4_5 H 0.8763 0.5306 0.2840
C8_5 C 0.8738(7) 0.4061(5) 0.3346(3)
C9_5 C 0.8577(6) 0.3656(4) 0.3558(3)
C10_5 C 0.8317(6) 0.3270(4) 0.3720(3)
C11_5 C 0.8196(6) 0.2873(4) 0.3898(2)
C12_5 C 0.8020(6) 0.2419(4) 0.4105(2)
C13_5 C 0.8113(6) 0.2393(4) 0.4431(3)
H5_5 H 0.8328 0.2688 0.4542
C14_5 C 0.7913(6) 0.1956(4) 0.4620(3)
H6_5 H 0.8024 0.1949 0.4839
C15_5 C 0.7551(6) 0.1544(4) 0.4471(3)
C16_5 C 0.7421(6) 0.1541(4) 0.4127(3)
H7_5 H 0.7196 0.1245 0.4022
C17_5 C 0.7630(6) 0.1979(4) 0.3947(3)
H8_5 H 0.7523 0.1991 0.3729
C18_5 C 0.7284(6) 0.1097(4) 0.4710(3)
C37_5 C 0.9496(5) 0.7295(4) 0.2342(2)
C38_5 C 0.9242(6) 0.7547(4) 0.2514(2)
C39_5 C 0.8859(6) 0.7267(4) 0.2723(3)
H17_5 H 0.8747 0.6929 0.2742
C40_5 C 0.8632(6) 0.7467(4) 0.2907(3)
H18_5 H 0.8360 0.7258 0.3041
C41_5 C 0.8792(6) 0.7981(4) 0.2903(2)
C42_5 C 0.9190(6) 0.8244(4) 0.2701(3)
H19_5 H 0.9312 0.8584 0.2688
C43_5 C 0.9429(6) 0.8056(4) 0.2514(3)
H20_5 H 0.9712 0.8266 0.2390
C44_5 C 0.8584(6) 0.8188(4) 0.3084(3)
C45_5 C 0.8351(6) 0.8216(4) 0.3298(3)
C46_5 C 0.8157(6) 0.8508(4) 0.3501(3)
C47_5 C 0.7997(6) 0.8709(4) 0.3687(3)
C48_5 C 0.7782(6) 0.8888(4) 0.3920(3)
C49_5 C 0.7639(6) 0.9215(4) 0.3824(3)
H21_5 H 0.7697 0.9333 0.3601
C50_5 C 0.7412(4) 0.9378(3) 0.4048(2)
H22_5 H 0.7325 0.9610 0.3979
C51_5 C 0.7314(4) 0.9195(3) 0.4380(2)
C52_5 C 0.7443(6) 0.8871(4) 0.4475(3)
H23_5 H 0.7391 0.8764 0.4700
C53_5 C 0.7658(6) 0.8681(4) 0.4251(3)
H24_5 H 0.7717 0.8428 0.4317
C54_5 C 0.7190(4) 0.9482(3) 0.4637(2)
Zn6_4 Zn 0.70176(5) 0.06993(4) 0.53892(2)
C46_6 C 0.0351(4) 0.1843(6) 0.6834(3)
C47_6 C 0.0712(4) 0.2003(6) 0.7020(3)
C48_6 C 0.1106(4) 0.2218(6) 0.7253(3)
C49_6 C 0.1576(4) 0.2361(6) 0.7157(3)
H21_6 H 0.1636 0.2303 0.6934
C50_6 C 0.1966(3) 0.2588(4) 0.7381(2)
H22_6 H 0.2285 0.2675 0.7312
C51_6 C 0.1881(3) 0.2686(4) 0.7713(2)
C52_6 C 0.1428(4) 0.2557(6) 0.7808(3)
H23_6 H 0.1373 0.2609 0.8033
C53_6 C 0.1023(4) 0.2342(6) 0.7584(3)
H24_6 H 0.0711 0.2283 0.7650
C54_6 C 0.2292(3) 0.2810(4) 0.7970(2)
O1_6 O 0.66885(11) 0.00131(16) 0.52020(10)
O2_6 O 0.5819(2) 0.00139(28) 0.56787(15)
O3_6 O 0.6565(4) 0.0616(5) 0.5760(2)
O10_6 O 0.7579(2) 0.0723(3) 0.56440(15)
O11_6 O 0.76652(19) 0.00772(28) 0.55501(15)
C1_6 C 0.6093(5) 0.0404(6) 0.5813(2)
C2_6 C 0.5886(4) 0.0649(6) 0.6048(3)
C3_6 C 0.5386(5) 0.0433(6) 0.6088(3)
H1_6 H 0.5174 0.0138 0.5976
C4_6 C 0.5199(4) 0.0656(6) 0.6295(3)
H2_6 H 0.4857 0.0524 0.6309
C5_6 C 0.5505(5) 0.1067(7) 0.6480(3)
C6_6 C 0.5998(5) 0.1255(7) 0.6438(3)
H3_6 H 0.6212 0.1525 0.6571
C7_6 C 0.6203(4) 0.1075(6) 0.6213(3)
H4_6 H 0.6543 0.1237 0.6173
C8_6 C 0.5323(5) 0.1262(7) 0.6679(3)
C9_6 C 0.5079(4) 0.1423(6) 0.6891(3)
C10_6 C 0.4953(4) 0.1683(6) 0.7053(3)
C11_6 C 0.4677(4) 0.1804(6) 0.7231(2)
C12_6 C 0.4399(4) 0.1980(6) 0.7438(2)
C13_6 C 0.4280(4) 0.1887(6) 0.7764(3)
H5_6 H 0.4360 0.1672 0.7875
C14_6 C 0.4043(4) 0.2087(6) 0.7953(3)
H6_6 H 0.3925 0.1976 0.8172
C15_6 C 0.3993(4) 0.2449(6) 0.7804(3)
C16_6 C 0.4120(4) 0.2579(6) 0.7460(3)
H7_6 H 0.4049 0.2804 0.7355
C17_6 C 0.4349(4) 0.2370(6) 0.7280(3)
H8_6 H 0.4468 0.2477 0.7062
C18_6 C 0.3813(4) 0.2716(6) 0.8043(3)
C37_6 C 0.7799(3) 0.0504(5) 0.5675(2)
C38_6 C 0.8305(4) 0.0758(6) 0.5847(2)
C39_6 C 0.8408(4) 0.1141(6) 0.6056(3)
H17_6 H 0.8182 0.1253 0.6075
C40_6 C 0.8835(4) 0.1368(6) 0.6240(3)
H18_6 H 0.8898 0.1640 0.6374
C41_6 C 0.9189(4) 0.1208(6) 0.6236(2)
C42_6 C 0.9054(4) 0.0810(6) 0.6034(3)
H19_6 H 0.9272 0.0688 0.6021
C43_6 C 0.8627(4) 0.0571(6) 0.5847(3)
H20_6 H 0.8554 0.0288 0.5723
C44_6 C 0.9604(4) 0.1416(6) 0.6417(3)
C45_6 C 0.9865(4) 0.1649(6) 0.6631(3)
O6_6 O 0.55023(16) 0.94250(23) 0.49940(12)
O7_6 O 0.6006(2) 0.9666(3) 0.45344(14)
C19_6 C 0.5595(3) 0.9478(4) 0.4677(2)
C20_6 C 0.5145(3) 0.9310(4) 0.4443(2)
C21_6 C 0.4690(4) 0.9201(6) 0.4560(2)
H9_6 H 0.4652 0.9263 0.4786
C22_6 C 0.4293(3) 0.9004(4) 0.4349(2)
H10_6 H 0.3984 0.8924 0.4435
C23_6 C 0.4335(3) 0.8922(5) 0.4021(2)
C24_6 C 0.4799(4) 0.9015(6) 0.3897(2)
H11_6 H 0.4829 0.8934 0.3673
C25_6 C 0.5202(3) 0.9223(5) 0.4102(2)
H12_6 H 0.5513 0.9308 0.4016
C26_6 C 0.3921(4) 0.8749(6) 0.3818(2)
C27_6 C 0.3532(4) 0.8536(6) 0.3611(2)
C28_6 C 0.3151(3) 0.8325(5) 0.3398(3)
C29_6 C 0.2847(4) 0.8200(6) 0.3184(3)
C30_6 C 0.2390(4) 0.8004(6) 0.3000(2)
C31_6 C 0.2242(3) 0.7538(5) 0.2861(3)
H13_6 H 0.2418 0.7377 0.2912
C32_6 C 0.1829(3) 0.7310(5) 0.2645(2)
H14_6 H 0.1732 0.6998 0.2555
C33_6 C 0.1564(4) 0.7547(6) 0.2565(3)
C34_6 C 0.1730(4) 0.8020(6) 0.2710(2)
H15_6 H 0.1561 0.8190 0.2665
C35_6 C 0.2140(3) 0.8229(4) 0.2919(3)
H16_6 H 0.2246 0.8544 0.3006
C36_6 C 0.1074(3) 0.7259(5) 0.2364(2)
Zn11 Zn 0.32760(3) 0.32781(2) 0.45777(2)
O20 O 0.33127(11) 0.33239(10) 0.50668(9)
O21 O 0.2679(3) 0.2960(3) 0.4348(2)
O22 O 0.3678(2) 0.3001(2) 0.44286(13)
O23 O 0.3649(2) 0.39659(19) 0.43858(13)
Zn12 Zn 0.26227(2) 0.29772(3) 0.52533(2)
Zn13 Zn 0.36614(2) 0.29935(2) 0.52337(2)
Zn14 Zn 0.36460(2) 0.40031(2) 0.520074(18)
C55 C 0.2234(4) 0.2817(4) 0.4577(3)
C56 C 0.3862(3) 0.2778(3) 0.45497(19)
C57 C 0.3898(3) 0.4379(3) 0.4514(2)
O24 O 0.2152(4) 0.2730(4) 0.4902(3)
O25 O 0.2646(4) 0.2549(2) 0.56132(14)
O26 O 0.2653(3) 0.3536(2) 0.55330(16)
O27 O 0.38990(17) 0.27209(18) 0.48754(11)
O28 O 0.3321(4) 0.2517(2) 0.55675(17)
O29 O 0.42585(25) 0.34688(18) 0.54814(11)
O30 O 0.39663(19) 0.44693(18) 0.48151(13)
O31 O 0.42080(27) 0.41410(18) 0.55005(13)
O32 O 0.32408(28) 0.4229(2) 0.54183(14)
C58 C 0.1805(4) 0.2639(5) 0.4312(3)
C59 C 0.4011(4) 0.2491(4) 0.4325(2)
C60 C 0.4131(4) 0.4795(3) 0.4271(2)
C61 C 0.1406(5) 0.2594(6) 0.4497(3)
C62 C 0.1772(4) 0.2446(4) 0.3993(3)
C63 C 0.4149(4) 0.2663(4) 0.3989(2)
C64 C 0.4088(4) 0.2115(4) 0.4441(3)
C65 C 0.3972(4) 0.4722(3) 0.3932(2)
C66 C 0.4481(4) 0.5266(5) 0.4359(3)
H25 H 0.1432 0.2705 0.4720
C67 C 0.0962(4) 0.2365(4) 0.4314(3)
C68 C 0.1314(5) 0.2216(5) 0.3829(3)
H26 H 0.2051 0.2468 0.3889
H27 H 0.4084 0.2904 0.3905
C69 C 0.4379(4) 0.2482(4) 0.3783(3)
C70 C 0.4283(3) 0.1911(3) 0.4227(2)
H28 H 0.4008 0.2002 0.4664
H29 H 0.3745 0.4405 0.3855
C71 C 0.4152(4) 0.5124(4) 0.3709(2)
C72 C 0.4685(3) 0.5649(4) 0.4143(3)
H30 H 0.4585 0.5325 0.4584
H31 H 0.0685 0.2341 0.4422
C73 C 0.0893(4) 0.2176(5) 0.3996(3)
H32 H 0.1286 0.2089 0.3611
H33 H 0.4506 0.2621 0.3571
C74 C 0.4413(4) 0.2076(4) 0.3906(3)
H34 H 0.4327 0.1653 0.4305
H35 H 0.4021 0.5070 0.3490
C75 C 0.4513(4) 0.5594(4) 0.3796(3)
H36 H 0.4940 0.5955 0.4218
C76 C 0.0463(4) 0.1937(5) 0.3811(3)
C77 C 0.4611(4) 0.1828(4) 0.3694(2)
C78 C 0.4716(4) 0.5988(4) 0.3563(2)
C79 C 0.0087(4) 0.1697(4) 0.3593(3)
C80 C 0.4798(4) 0.1682(4) 0.3463(3)
C81 C 0.4874(4) 0.6322(4) 0.3376(3)
C83 C 0.4975(4) 0.1445(4) 0.3292(3)
C84 C 0.5040(4) 0.6731(4) 0.3187(2)
C86 C 0.5170(4) 0.1338(4) 0.3082(3)
C87 C 0.5186(4) 0.7066(4) 0.2964(2)
C89 C 0.5373(4) 0.1065(4) 0.2845(3)
C90 C 0.5398(4) 0.7512(4) 0.2774(2)
C93 C 0.5858(4) 0.1417(3) 0.2709(2)
C94 C 0.5142(5) 0.0603(5) 0.2782(3)
C95 C 0.5883(4) 0.7849(4) 0.2797(2)
C96 C 0.5122(4) 0.7624(3) 0.2561(3)
H39 H 0.6016 0.1757 0.2750
C99 C 0.6059(4) 0.1198(3) 0.2514(2)
C100 C 0.5364(4) 0.0405(4) 0.2567(3)
H40 H 0.4830 0.0398 0.2876
H41 H 0.6085 0.7788 0.2940
C101 C 0.6084(4) 0.8277(4) 0.2617(3)
C102 C 0.5324(4) 0.8063(3) 0.2383(2)
H42 H 0.4786 0.7397 0.2536
H45 H 0.6376 0.1401 0.2427
C104 C 0.5834(3) 0.0712(4) 0.2440(2)
H46 H 0.5195 0.0069 0.2512
H47 H 0.6420 0.8505 0.2639
C105 C 0.5805(4) 0.8377(4) 0.2407(2)
H48 H 0.5125 0.8136 0.2247
C107 C 0.6091(4) 0.0497(3) 0.2252(2)
C108 C 0.6070(4) 0.8887(3) 0.2223(2)
O35 O 0.65312(18) 0.07897(31) 0.21481(11)
O36 O 0.58590(18) 0.00670(32) 0.21672(13)
O37 O 0.6464(2) 0.9117(4) 0.21997(16)
O38 O 0.5771(2) 0.90118(34) 0.20850(14)
Zn17 Zn 0.70065(2) 0.06679(3) 0.19004(2)
Zn19 Zn 0.70228(3) 0.96455(4) 0.19200(2)
Zn20 Zn 0.59969(2) 0.96429(3) 0.186741(18)
C82 C 0.9587(5) 0.1515(5) 0.3461(3)
C85 C 0.9202(4) 0.1287(5) 0.3351(3)
C88 C 0.8864(4) 0.1120(5) 0.3058(3)
C91 C 0.8582(4) 0.0642(4) 0.2995(3)
C92 C 0.8748(5) 0.1429(5) 0.2869(3)
H37 H 0.8651 0.0418 0.3104
C97 C 0.8183(4) 0.0463(4) 0.2771(3)
C98 C 0.8363(5) 0.1251(5) 0.2641(3)
H38 H 0.8941 0.1771 0.2898
H43 H 0.7984 0.0121 0.2749
C103 C 0.8073(4) 0.0748(4) 0.2590(3)
H44 H 0.8298 0.1470 0.2522
C106 C 0.7650(3) 0.0540(4) 0.2348(2)
O33 O 0.7451(2) 0.0097(4) 0.22799(14)
O34 O 0.7483(2) 0.0804(4) 0.22342(17)
Zn18 Zn 0.03571(3) 0.63540(4) 0.853407(18)
Zn15 Zn 0.03545(4) 0.73773(5) 0.85866(2)
O22_2 O 0.6999(2) 0.0677(3) 0.10953(13)
C56_2 C 0.7222(3) 0.1084(4) 0.12164(19)
O27_2 O 0.72791(18) 0.11781(25) 0.15421(11)
C59_2 C 0.7509(4) 0.1520(6) 0.0992(2)
C63_2 C 0.7337(4) 0.1486(6) 0.0656(2)
C64_2 C 0.7885(4) 0.1973(6) 0.1108(3)
H27_2 H 0.7096 0.1180 0.0572
C69_2 C 0.7518(4) 0.1897(6) 0.0450(3)
C70_2 C 0.8089(3) 0.2372(4) 0.0894(2)
H28_2 H 0.7998 0.2006 0.1331
H33_2 H 0.7379 0.1885 0.0238
C74_2 C 0.7924(4) 0.2337(6) 0.0573(3)
H34_2 H 0.8347 0.2674 0.0972
C77_2 C 0.8172(4) 0.2783(6) 0.0361(2)
C80_2 C 0.8318(4) 0.3116(6) 0.0130(3)
C83_2 C 0.8555(4) 0.3530(6) 0.9959(3)
C86_2 C 0.8662(4) 0.3832(6) 0.9749(3)
C89_2 C 0.8935(4) 0.4308(6) 0.9512(3)
C93_2 C 0.8583(3) 0.4441(5) 0.9376(2)
C94_2 C 0.9397(5) 0.4539(7) 0.9449(3)
H39_2 H 0.8243 0.4259 0.9417
C99_2 C 0.8802(3) 0.4861(5) 0.9181(2)
C100_2 C 0.9595(4) 0.4959(6) 0.9234(3)
H40_2 H 0.9602 0.4432 0.9543
H45_2 H 0.8599 0.4975 0.9094
C104_2 C 0.9288(4) 0.5122(5) 0.9107(2)
H46_2 H 0.9931 0.5126 0.9179
C107_2 C 0.9503(3) 0.5594(5) 0.8919(2)
O35_2 O 0.92103(31) 0.57415(36) 0.88147(11)
O36_2 O 0.99330(32) 0.57920(37) 0.88338(13)
Zn17_2 Zn 0.93321(3) 0.63386(4) 0.85670(2)
Zn11_2 Zn 0.67219(2) 0.99979(4) 0.12444(2)
O20_2 O 0.66761(10) 0.99888(15) 0.17335(9)
O21_2 O 0.7040(3) 0.9719(4) 0.1015(2)
O23_2 O 0.60341(19) 0.96831(28) 0.10525(13)
C55_2 C 0.7183(4) 0.9417(6) 0.1244(3)
C57_2 C 0.5621(3) 0.9519(4) 0.1181(2)
O24_2 O 0.7270(4) 0.9422(6) 0.1569(3)
O30_2 O 0.55307(18) 0.94970(26) 0.14818(13)
C58_2 C 0.7361(5) 0.9166(6) 0.0979(3)
C60_2 C 0.5205(3) 0.9336(5) 0.0938(2)
C61_2 C 0.7406(6) 0.8812(8) 0.1164(3)
C62_2 C 0.7554(4) 0.9326(6) 0.0660(3)
C65_2 C 0.5278(3) 0.9250(5) 0.0599(2)
C66_2 C 0.4734(5) 0.9215(6) 0.1026(3)
H25_2 H 0.7295 0.8727 0.1387
C67_2 C 0.7635(4) 0.8597(6) 0.0981(3)
C68_2 C 0.7784(5) 0.9098(7) 0.0496(3)
H26_2 H 0.7532 0.9583 0.0556
H29_2 H 0.5595 0.9340 0.0522
C71_2 C 0.4876(4) 0.9028(6) 0.0376(2)
C72_2 C 0.4351(4) 0.9036(5) 0.0810(3)
H30_2 H 0.4675 0.9260 0.1251
H31_2 H 0.7659 0.8344 0.1089
C73_2 C 0.7824(5) 0.8717(6) 0.0663(3)
H32_2 H 0.7911 0.9197 0.0278
H35_2 H 0.4930 0.8951 0.0157
C75_2 C 0.4406(4) 0.8919(6) 0.0463(3)
H36_2 H 0.4045 0.8985 0.0885
C76_2 C 0.8063(5) 0.8526(6) 0.0478(3)
C78_2 C 0.4012(4) 0.8728(6) 0.0230(2)
C79_2 C 0.8303(4) 0.8390(6) 0.0260(3)
C81_2 C 0.3678(4) 0.8552(6) 0.0043(3)
C82_2 C 0.8485(5) 0.8072(7) 0.0128(3)
C85_2 C 0.8713(5) 0.7915(6) 0.0018(3)
C84_2 C 0.3269(4) 0.8309(6) 0.9854(2)
C87_2 C 0.2934(4) 0.8120(6) 0.9631(2)
C88_2 C 0.8880(5) 0.7744(6) 0.9725(3)
C90_2 C 0.2488(4) 0.7886(6) 0.9441(2)
C91_2 C 0.9358(4) 0.7940(6) 0.9662(3)
C92_2 C 0.8571(5) 0.7319(7) 0.9536(3)
C95_2 C 0.2151(4) 0.8034(6) 0.9464(2)
C96_2 C 0.2376(3) 0.7498(5) 0.9228(3)
H37_2 H 0.9582 0.8233 0.9771
C97_2 C 0.9537(4) 0.7720(6) 0.9438(3)
C98_2 C 0.8749(5) 0.7112(7) 0.9308(3)
H38_2 H 0.8229 0.7170 0.9565
H41_2 H 0.2212 0.8297 0.9607
C101_2 C 0.1723(4) 0.7807(6) 0.9284(3)
C102_2 C 0.1937(3) 0.7261(5) 0.9050(2)
H42_2 H 0.2603 0.7389 0.9203
H43_2 H 0.9879 0.7863 0.9416
C103_2 C 0.9252(4) 0.7325(6) 0.9257(3)
H44_2 H 0.8530 0.6828 0.9189
H47_2 H 0.1495 0.7915 0.9306
C105_2 C 0.1623(4) 0.7428(6) 0.9074(2)
H48_2 H 0.1864 0.6989 0.8914
C106_2 C 0.9460(4) 0.7110(5) 0.9015(2)
C108_2 C 0.1113(3) 0.7183(5) 0.8890(2)
O33_2 O 0.9903(4) 0.7354(4) 0.89465(14)
O34_2 O 0.9196(4) 0.6679(4) 0.89008(17)
O37_2 O 0.0883(4) 0.7347(4) 0.88663(16)
O38_2 O 0.09882(34) 0.67592(39) 0.87516(14)
C82_3 C 0.1928(7) 0.0413(5) 0.6794(3)
C85_3 C 0.2085(6) 0.0798(4) 0.6684(3)
C88_3 C 0.2256(6) 0.1136(4) 0.6391(3)
C91_3 C 0.2060(6) 0.1418(4) 0.6328(3)
C92_3 C 0.2681(7) 0.1252(5) 0.6202(3)
H37_3 H 0.1767 0.1349 0.6437
C97_3 C 0.2280(6) 0.1817(4) 0.6104(3)
C98_3 C 0.2888(7) 0.1637(5) 0.5974(3)
H38_3 H 0.2830 0.1059 0.6231
H43_3 H 0.2137 0.2016 0.6082
C103_3 C 0.2675(6) 0.1927(4) 0.5923(3)
H44_3 H 0.3172 0.1702 0.5855
C106_3 C 0.2890(5) 0.2350(3) 0.5681(2)
Zn11_3 Zn 0.00021(4) 0.67240(3) 0.79110(2)
O20_3 O 0.00112(15) 0.66873(11) 0.84001(9)
O21_3 O 0.0281(4) 0.7321(3) 0.7681(2)
O23_3 O 0.03169(28) 0.6351(2) 0.77191(13)
C55_3 C 0.0583(6) 0.7766(4) 0.7910(3)
C57_3 C 0.0481(4) 0.6102(3) 0.7847(2)
O24_3 O 0.0578(6) 0.7848(4) 0.8235(3)
O30_3 O 0.05030(26) 0.60337(19) 0.81484(13)
C58_3 C 0.0834(6) 0.8195(4) 0.7645(3)
C60_3 C 0.0664(5) 0.5869(4) 0.7604(2)
C61_3 C 0.1188(8) 0.8594(5) 0.7830(3)
C62_3 C 0.0674(6) 0.8228(4) 0.7326(3)
C65_3 C 0.0750(5) 0.6028(4) 0.7265(2)
C66_3 C 0.0785(6) 0.5519(4) 0.7692(3)
H25_3 H 0.1273 0.8568 0.8053
C67_3 C 0.1403(6) 0.9038(4) 0.7647(3)
C68_3 C 0.0902(7) 0.8686(5) 0.7162(3)
H26_3 H 0.0417 0.7949 0.7222
H29_3 H 0.0660 0.6255 0.7188
C71_3 C 0.0972(6) 0.5848(4) 0.7042(2)
C72_3 C 0.0964(5) 0.5315(3) 0.7476(3)
H30_3 H 0.0740 0.5415 0.7917
H31_3 H 0.1656 0.9315 0.7755
C73_3 C 0.1283(6) 0.9107(4) 0.7329(3)
H32_3 H 0.0803 0.8714 0.6944
H35_3 H 0.1049 0.5979 0.6823
C75_3 C 0.1081(6) 0.5487(4) 0.7129(3)
H36_3 H 0.1015 0.5060 0.7551
C76_3 C 0.1474(6) 0.9537(4) 0.7144(3)
C78_3 C 0.1272(6) 0.5284(4) 0.6896(2)
C79_3 C 0.1610(6) 0.9913(4) 0.6926(3)
C81_3 C 0.1448(6) 0.5126(4) 0.6709(3)
C84_3 C 0.1691(6) 0.4960(4) 0.6520(2)
C87_3 C 0.1880(6) 0.4814(4) 0.6297(2)
C90_3 C 0.2114(6) 0.4602(4) 0.6107(2)
C95_3 C 0.1966(6) 0.4117(4) 0.6130(2)
C96_3 C 0.2502(5) 0.4878(4) 0.5894(3)
H41_3 H 0.1703 0.3915 0.6273
C101_3 C 0.2193(6) 0.3916(4) 0.5950(3)
C102_3 C 0.2739(5) 0.4676(4) 0.5716(2)
H42_3 H 0.2611 0.5214 0.5869
H47_3 H 0.2085 0.3580 0.5972
C105_3 C 0.2572(6) 0.4195(4) 0.5740(2)
H48_3 H 0.3011 0.4875 0.5580
C108_3 C 0.2817(5) 0.3930(4) 0.5556(2)
O22_3 O 0.9323(3) 0.6322(2) 0.77619(13)
C56_3 C 0.8916(4) 0.6138(3) 0.78830(19)
O27_3 O 0.88219(25) 0.61010(17) 0.82087(11)
C59_3 C 0.8480(6) 0.5989(4) 0.7658(2)
C63_3 C 0.8514(6) 0.5851(4) 0.7322(2)
C64_3 C 0.8027(6) 0.5912(4) 0.7774(3)
H27_3 H 0.8820 0.5916 0.7238
C69_3 C 0.8103(6) 0.5621(4) 0.7116(3)
C70_3 C 0.7628(4) 0.5717(3) 0.7560(2)
H28_3 H 0.7994 0.5992 0.7997
H33_3 H 0.8115 0.5494 0.6904
C74_3 C 0.7663(6) 0.5587(4) 0.7239(3)
H34_3 H 0.7326 0.5673 0.7638
C77_3 C 0.7217(6) 0.5389(4) 0.7027(2)
C80_3 C 0.6884(6) 0.5202(4) 0.6796(3)
C83_3 C 0.6470(6) 0.5025(4) 0.6625(3)
C86_3 C 0.6168(6) 0.4830(4) 0.6415(3)
C89_3 C 0.5692(6) 0.4627(4) 0.6178(3)
C93_3 C 0.5559(5) 0.4142(4) 0.6042(2)
C94_3 C 0.5461(7) 0.4858(5) 0.6115(3)
H39_3 H 0.5741 0.3984 0.6083
C99_3 C 0.5139(5) 0.3941(4) 0.5847(2)
C100_3 C 0.5041(6) 0.4636(4) 0.5900(3)
H40_3 H 0.5568 0.5170 0.6209
H45_3 H 0.5025 0.3624 0.5760
C104_3 C 0.4878(5) 0.4166(3) 0.5773(2)
H46_3 H 0.4874 0.4805 0.5845
C107_3 C 0.4406(5) 0.3909(4) 0.5585(2)
Zn15_2 Zn 0.03545(4) 0.29772(3) 0.14134(2)
Zn18_2 Zn 0.03571(3) 0.40031(2) 0.146593(18)
C88_4 C 0.8880(5) 0.1136(4) 0.0275(3)
C91_4 C 0.9358(4) 0.1418(4) 0.0338(3)
C92_4 C 0.8571(5) 0.1252(5) 0.0464(3)
H37_4 H 0.9582 0.1349 0.0229
C97_4 C 0.9537(4) 0.1817(4) 0.0562(3)
C98_4 C 0.8749(5) 0.1637(5) 0.0692(3)
H38_4 H 0.8229 0.1059 0.0435
H43_4 H 0.9879 0.2016 0.0584
C103_4 C 0.9252(4) 0.1927(4) 0.0743(3)
H44_4 H 0.8530 0.1702 0.0811
C106_4 C 0.9460(4) 0.2350(3) 0.0985(2)
O33_3 O 0.9903(4) 0.2549(2) 0.10535(14)
O34_3 O 0.9196(4) 0.2517(2) 0.10992(17)
Zn16 Zn 0.93321(3) 0.29935(2) 0.14330(2)
C83_4 C 0.8555(4) 0.5025(4) 0.0041(3)
C84_4 C 0.3269(4) 0.4960(4) 0.0146(2)
C86_4 C 0.8662(4) 0.4830(4) 0.0251(3)
C87_4 C 0.2934(4) 0.4814(4) 0.0369(2)
C89_4 C 0.8935(4) 0.4627(4) 0.0488(3)
C90_4 C 0.2488(4) 0.4602(4) 0.0559(2)
C93_4 C 0.8583(3) 0.4142(4) 0.0624(2)
C94_4 C 0.9397(5) 0.4858(5) 0.0551(3)
C95_4 C 0.2151(4) 0.4117(4) 0.0536(2)
C96_4 C 0.2376(3) 0.4878(4) 0.0772(3)
H39_4 H 0.8243 0.3984 0.0583
C99_4 C 0.8802(3) 0.3941(4) 0.0819(2)
C100_4 C 0.9595(4) 0.4636(4) 0.0766(3)
H40_4 H 0.9602 0.5170 0.0457
H41_4 H 0.2212 0.3915 0.0393
C101_4 C 0.1723(4) 0.3916(4) 0.0716(3)
C102_4 C 0.1937(3) 0.4676(4) 0.0950(2)
H42_4 H 0.2603 0.5214 0.0797
H45_4 H 0.8599 0.3624 0.0906
C104_4 C 0.9288(4) 0.4166(3) 0.0893(2)
H46_4 H 0.9931 0.4805 0.0821
H47_4 H 0.1495 0.3580 0.0694
C105_4 C 0.1623(4) 0.4195(4) 0.0926(2)
H48_4 H 0.1864 0.4875 0.1086
C107_4 C 0.9503(3) 0.3909(4) 0.1081(2)
C108_4 C 0.1113(3) 0.3930(4) 0.1110(2)
O35_3 O 0.92103(31) 0.34688(18) 0.11853(11)
O36_3 O 0.99330(32) 0.41410(18) 0.11662(13)
O37_3 O 0.0883(4) 0.3536(2) 0.11337(16)
O38_3 O 0.09882(34) 0.4229(2) 0.12484(14)
Zn11_4 Zn 0.67219(2) 0.67240(3) 0.87556(2)
O20_4 O 0.66761(10) 0.66873(11) 0.82665(9)
O21_4 O 0.7040(3) 0.7321(3) 0.8985(2)
O22_4 O 0.6999(2) 0.6322(2) 0.89047(13)
O23_4 O 0.60341(19) 0.6351(2) 0.89475(13)
Zn12_2 Zn 0.70228(3) 0.73773(2) 0.80800(2)
Zn13_2 Zn 0.70065(2) 0.63386(2) 0.80996(2)
Zn14_2 Zn 0.59969(2) 0.63540(2) 0.813259(18)
C55_4 C 0.7183(4) 0.7766(4) 0.8756(3)
C56_4 C 0.7222(3) 0.6138(3) 0.87836(19)
C57_4 C 0.5621(3) 0.6102(3) 0.8819(2)
O24_4 O 0.7270(4) 0.7848(4) 0.8431(3)
O25_2 O 0.7451(2) 0.7354(4) 0.77201(14)
O26_2 O 0.6464(2) 0.7347(3) 0.78003(16)
O27_4 O 0.72791(18) 0.61010(17) 0.84579(11)
O28_2 O 0.7483(2) 0.6679(4) 0.77658(17)
O29_2 O 0.65312(18) 0.57415(25) 0.78519(11)
O30_4 O 0.55307(18) 0.60337(19) 0.85182(13)
O31_2 O 0.58590(18) 0.57920(27) 0.78328(13)
O32_2 O 0.5771(2) 0.67592(28) 0.79150(14)
C58_4 C 0.7361(5) 0.8195(4) 0.9021(3)
C59_4 C 0.7509(4) 0.5989(4) 0.9008(2)
C60_4 C 0.5205(3) 0.5869(4) 0.9062(2)
C61_4 C 0.7406(6) 0.8594(5) 0.8836(3)
C62_4 C 0.7554(4) 0.8228(4) 0.9340(3)
C63_4 C 0.7337(4) 0.5851(4) 0.9344(2)
C64_4 C 0.7885(4) 0.5912(4) 0.8892(3)
C65_4 C 0.5278(3) 0.6028(4) 0.9401(2)
C66_4 C 0.4734(5) 0.5519(4) 0.8974(3)
H25_4 H 0.7295 0.8568 0.8613
C67_4 C 0.7635(4) 0.9038(4) 0.9019(3)
C68_4 C 0.7784(5) 0.8686(5) 0.9504(3)
H26_4 H 0.7532 0.7949 0.9444
H27_4 H 0.7096 0.5916 0.9428
C69_4 C 0.7518(4) 0.5621(4) 0.9550(3)
C70_4 C 0.8089(3) 0.5717(3) 0.9106(2)
H28_4 H 0.7998 0.5992 0.8669
H29_4 H 0.5595 0.6255 0.9478
C71_4 C 0.4876(4) 0.5848(4) 0.9624(2)
C72_4 C 0.4351(4) 0.5315(3) 0.9190(3)
H30_4 H 0.4675 0.5415 0.8749
H31_4 H 0.7659 0.9315 0.8911
C73_4 C 0.7824(5) 0.9107(4) 0.9337(3)
H32_4 H 0.7911 0.8714 0.9722
H33_4 H 0.7379 0.5494 0.9762
C74_4 C 0.7924(4) 0.5587(4) 0.9427(3)
H34_4 H 0.8347 0.5673 0.9028
H35_4 H 0.4930 0.5979 0.9843
C75_4 C 0.4406(4) 0.5487(4) 0.9537(3)
H36_4 H 0.4045 0.5060 0.9115
C76_4 C 0.8063(5) 0.9537(4) 0.9522(3)
C77_4 C 0.8172(4) 0.5389(4) 0.9639(2)
C78_4 C 0.4012(4) 0.5284(4) 0.9770(2)
C79_4 C 0.8303(4) 0.9913(4) 0.9740(3)
C80_4 C 0.8318(4) 0.5202(4) 0.9870(3)
C81_4 C 0.3678(4) 0.5126(4) 0.9957(3)
Zn11_5 Zn 0.00021(4) 0.32781(2) 0.20890(2)
O20_5 O 0.00112(15) 0.33239(10) 0.15999(9)
O21_5 O 0.0281(4) 0.2960(3) 0.2319(2)
O23_5 O 0.03169(28) 0.39659(19) 0.22809(13)
C55_5 C 0.0583(6) 0.2817(4) 0.2090(3)
C57_5 C 0.0481(4) 0.4379(3) 0.2153(2)
O24_5 O 0.0578(6) 0.2730(4) 0.1765(3)
O30_5 O 0.05030(26) 0.44693(18) 0.18516(13)
C58_5 C 0.0834(6) 0.2639(5) 0.2355(3)
C60_5 C 0.0664(5) 0.4795(3) 0.2396(2)
C61_5 C 0.1188(8) 0.2594(6) 0.2170(3)
C62_5 C 0.0674(6) 0.2446(4) 0.2674(3)
C65_5 C 0.0750(5) 0.4722(3) 0.2735(2)
C66_5 C 0.0785(6) 0.5266(5) 0.2308(3)
H25_5 H 0.1273 0.2705 0.1947
C67_5 C 0.1403(6) 0.2365(4) 0.2353(3)
C68_5 C 0.0902(7) 0.2216(5) 0.2838(3)
H26_5 H 0.0417 0.2468 0.2778
H29_5 H 0.0660 0.4405 0.2812
C71_5 C 0.0972(6) 0.5124(4) 0.2958(2)
C72_5 C 0.0964(5) 0.5649(4) 0.2524(3)
H30_5 H 0.0740 0.5325 0.2083
H31_5 H 0.1656 0.2341 0.2245
C73_5 C 0.1283(6) 0.2176(5) 0.2671(3)
H32_5 H 0.0803 0.2089 0.3056
H35_5 H 0.1049 0.5070 0.3177
C75_5 C 0.1081(6) 0.5594(4) 0.2871(3)
H36_5 H 0.1015 0.5955 0.2449
C76_5 C 0.1474(6) 0.1937(5) 0.2856(3)
C78_5 C 0.1272(6) 0.5988(4) 0.3104(2)
C79_5 C 0.1610(6) 0.1697(4) 0.3074(3)
C81_5 C 0.1448(6) 0.6322(4) 0.3291(3)
C82_4 C 0.1928(7) 0.1515(5) 0.3206(3)
C84_5 C 0.1691(6) 0.6731(4) 0.3480(2)
C85_4 C 0.2085(6) 0.1287(5) 0.3316(3)
C87_5 C 0.1880(6) 0.7066(4) 0.3703(2)
C88_5 C 0.2256(6) 0.1120(5) 0.3609(3)
C90_5 C 0.2114(6) 0.7512(4) 0.3893(2)
C91_5 C 0.2060(6) 0.0642(4) 0.3672(3)
C92_5 C 0.2681(7) 0.1429(5) 0.3798(3)
C95_5 C 0.1966(6) 0.7849(4) 0.3870(2)
C96_5 C 0.2502(5) 0.7624(3) 0.4106(3)
H37_5 H 0.1767 0.0418 0.3563
C97_5 C 0.2280(6) 0.0463(4) 0.3896(3)
C98_5 C 0.2888(7) 0.1251(5) 0.4026(3)
H38_5 H 0.2830 0.1771 0.3769
H41_5 H 0.1703 0.7788 0.3727
C101_5 C 0.2193(6) 0.8277(4) 0.4050(3)
C102_5 C 0.2739(5) 0.8063(3) 0.4284(2)
H42_5 H 0.2611 0.7397 0.4131
H43_5 H 0.2137 0.0121 0.3918
C103_5 C 0.2675(6) 0.0748(4) 0.4077(3)
H44_5 H 0.3172 0.1470 0.4145
H47_5 H 0.2085 0.8505 0.4028
C105_5 C 0.2572(6) 0.8377(4) 0.4260(2)
H48_5 H 0.3011 0.8136 0.4420
C106_5 C 0.2890(5) 0.0540(4) 0.4319(2)
C108_5 C 0.2817(5) 0.8887(3) 0.4444(2)
O33_4 O 0.2646(4) 0.0097(4) 0.43868(14)
O34_4 O 0.3321(4) 0.0804(4) 0.44325(17)
O37_4 O 0.2653(4) 0.9117(4) 0.44670(16)
O38_4 O 0.32408(39) 0.90118(34) 0.45817(14)
Zn16_2 Zn 0.36614(4) 0.06679(3) 0.47663(2)
Zn19_2 Zn 0.26227(5) 0.96455(4) 0.47467(2)
Zn20_2 Zn 0.36460(4) 0.96429(3) 0.479926(18)
O22_5 O 0.9323(3) 0.3001(2) 0.22381(13)
C56_5 C 0.8916(4) 0.2778(3) 0.21170(19)
O27_5 O 0.88219(25) 0.27209(18) 0.17913(11)
C59_5 C 0.8480(6) 0.2491(4) 0.2342(2)
C63_5 C 0.8514(6) 0.2663(4) 0.2678(2)
C64_5 C 0.8027(6) 0.2115(4) 0.2226(3)
H27_5 H 0.8820 0.2904 0.2762
C69_5 C 0.8103(6) 0.2482(4) 0.2884(3)
C70_5 C 0.7628(4) 0.1911(3) 0.2440(2)
H28_5 H 0.7994 0.2002 0.2003
H33_5 H 0.8115 0.2621 0.3096
C74_5 C 0.7663(6) 0.2076(4) 0.2761(3)
H34_5 H 0.7326 0.1653 0.2362
C77_5 C 0.7217(6) 0.1828(4) 0.2973(2)
C80_5 C 0.6884(6) 0.1682(4) 0.3204(3)
C83_5 C 0.6470(6) 0.1445(4) 0.3375(3)
C86_5 C 0.6168(6) 0.1338(4) 0.3585(3)
C89_5 C 0.5692(6) 0.1065(4) 0.3822(3)
C93_5 C 0.5559(5) 0.1417(3) 0.3958(2)
C94_5 C 0.5461(7) 0.0603(5) 0.3885(3)
H39_5 H 0.5741 0.1757 0.3917
C99_5 C 0.5139(5) 0.1198(3) 0.4153(2)
C100_5 C 0.5041(6) 0.0405(4) 0.4100(3)
H40_5 H 0.5568 0.0398 0.3791
H45_5 H 0.5025 0.1401 0.4240
C104_5 C 0.4878(5) 0.0712(4) 0.4227(2)
H46_5 H 0.4874 0.0069 0.4155
C107_5 C 0.4406(5) 0.0497(3) 0.4415(2)
O35_4 O 0.42585(36) 0.07897(31) 0.45186(11)
O36_4 O 0.42080(37) 0.00670(32) 0.44995(13)
O22_6 O 0.3678(2) 0.0677(3) 0.55714(13)
C56_6 C 0.3862(3) 0.1084(4) 0.54503(19)
O27_6 O 0.38990(17) 0.11781(25) 0.51246(11)
C59_6 C 0.4011(4) 0.1520(6) 0.5675(2)
C63_6 C 0.4149(4) 0.1486(6) 0.6011(2)
C64_6 C 0.4088(4) 0.1973(6) 0.5559(3)
H27_6 H 0.4084 0.1180 0.6095
C69_6 C 0.4379(4) 0.1897(6) 0.6217(3)
C70_6 C 0.4283(3) 0.2372(4) 0.5773(2)
H28_6 H 0.4008 0.2006 0.5336
H33_6 H 0.4506 0.1885 0.6429
C74_6 C 0.4413(4) 0.2337(6) 0.6094(3)
H34_6 H 0.4327 0.2674 0.5695
C77_6 C 0.4611(4) 0.2783(6) 0.6306(2)
C80_6 C 0.4798(4) 0.3116(6) 0.6537(3)
C83_6 C 0.4975(4) 0.3530(6) 0.6708(3)
C86_6 C 0.5170(4) 0.3832(6) 0.6918(3)
C89_6 C 0.5373(4) 0.4308(6) 0.7155(3)
C93_6 C 0.5858(4) 0.4441(5) 0.7291(2)
C94_6 C 0.5142(5) 0.4539(7) 0.7218(3)
H39_6 H 0.6016 0.4259 0.7250
C99_6 C 0.6059(4) 0.4861(5) 0.7486(2)
C100_6 C 0.5364(4) 0.4959(6) 0.7433(3)
H40_6 H 0.4830 0.4432 0.7124
H45_6 H 0.6376 0.4975 0.7573
C104_6 C 0.5834(3) 0.5122(5) 0.7560(2)
H46_6 H 0.5195 0.5126 0.7488
C107_6 C 0.6091(4) 0.5594(5) 0.7748(2)
Zn11_6 Zn 0.32760(3) 0.99979(4) 0.54223(2)
O20_6 O 0.33127(11) 0.99888(15) 0.49332(9)
O21_6 O 0.2679(3) 0.9719(4) 0.5652(2)
O23_6 O 0.3649(2) 0.96831(28) 0.56142(13)
C55_6 C 0.2234(4) 0.9417(6) 0.5423(3)
C57_6 C 0.3898(3) 0.9519(4) 0.5486(2)
O24_6 O 0.2152(4) 0.9422(6) 0.5098(3)
O30_6 O 0.39663(19) 0.94970(26) 0.51849(13)
C58_6 C 0.1805(4) 0.9166(6) 0.5688(3)
C60_6 C 0.4131(4) 0.9336(5) 0.5729(2)
C61_6 C 0.1406(5) 0.8812(8) 0.5503(3)
C62_6 C 0.1772(4) 0.9326(6) 0.6007(3)
C65_6 C 0.3972(4) 0.9250(5) 0.6068(2)
C66_6 C 0.4481(4) 0.9215(6) 0.5641(3)
H25_6 H 0.1432 0.8727 0.5280
C67_6 C 0.0962(4) 0.8597(6) 0.5686(3)
C68_6 C 0.1314(5) 0.9098(7) 0.6171(3)
H26_6 H 0.2051 0.9583 0.6111
H29_6 H 0.3745 0.9340 0.6145
C71_6 C 0.4152(4) 0.9028(6) 0.6291(2)
C72_6 C 0.4685(3) 0.9036(5) 0.5857(3)
H30_6 H 0.4585 0.9260 0.5416
H31_6 H 0.0685 0.8344 0.5578
C73_6 C 0.0893(4) 0.8717(6) 0.6004(3)
H32_6 H 0.1286 0.9197 0.6389
H35_6 H 0.4021 0.8951 0.6510
C75_6 C 0.4513(4) 0.8919(6) 0.6204(3)
H36_6 H 0.4940 0.8985 0.5782
C76_6 C 0.0463(4) 0.8526(6) 0.6189(3)
C78_6 C 0.4716(4) 0.8728(6) 0.6437(2)
C79_6 C 0.0087(4) 0.8390(6) 0.6407(3)
C81_6 C 0.4874(4) 0.8552(6) 0.6624(3)
C84_6 C 0.5040(4) 0.8309(6) 0.6813(2)
C87_6 C 0.5186(4) 0.8120(6) 0.7036(2)
C90_6 C 0.5398(4) 0.7886(6) 0.7226(2)
C95_6 C 0.5883(4) 0.8034(6) 0.7203(2)
C96_6 C 0.5122(4) 0.7498(5) 0.7439(3)
H41_6 H 0.6085 0.8297 0.7060
C101_6 C 0.6084(4) 0.7807(6) 0.7383(3)
C102_6 C 0.5324(4) 0.7261(5) 0.7617(2)
H42_6 H 0.4786 0.7389 0.7464
H47_6 H 0.6420 0.7915 0.7361
C105_6 C 0.5805(4) 0.7428(6) 0.7593(2)
H48_6 H 0.5125 0.6989 0.7753
C108_6 C 0.6070(4) 0.7183(5) 0.7777(2)
C82_5 C 0.9587(5) 0.8072(7) 0.6539(3)
C85_5 C 0.9202(4) 0.7915(6) 0.6649(3)
C88_6 C 0.8864(4) 0.7744(6) 0.6942(3)
C91_6 C 0.8582(4) 0.7940(6) 0.7005(3)
C92_6 C 0.8748(5) 0.7319(7) 0.7131(3)
H37_6 H 0.8651 0.8233 0.6896
C97_6 C 0.8183(4) 0.7720(6) 0.7229(3)
C98_6 C 0.8363(5) 0.7112(7) 0.7359(3)
H38_6 H 0.8941 0.7170 0.7102
H43_6 H 0.7984 0.7863 0.7251
C103_6 C 0.8073(4) 0.7325(6) 0.7410(3)
H44_6 H 0.8298 0.6828 0.7478
C106_6 C 0.7650(3) 0.7110(5) 0.7652(2)
C82_6 C 0.8485(5) 0.0413(5) 0.9872(3)
C85_6 C 0.8713(5) 0.0798(4) 0.9982(3)
loop_
_geom_bond_atom_site_label_1
_geom_bond_atom_site_label_2
_geom_bond_site_symmetry_1
_geom_bond_site_symmetry_2
O12 C54 1_555 1_555
O13 C54 1_555 1_555
C47 C46 1_555 1_555
C48 C47 1_555 1_555
C49 C48 1_555 1_555
H21 C49 1_555 1_555
C50 C49 1_555 1_555
H22 C50 1_555 1_555
C51 C50 1_555 1_555
C52 C51 1_555 1_555
H23 C52 1_555 1_555
C53 C48 1_555 1_555
H24 C53 1_555 1_555
C54 C51 1_555 1_555
Zn9 O13 1_555 1_555
C52 C53 1_555 1_555
Zn1 O1 1_555 1_555
Zn2 O1 1_555 1_555
Zn3 O1 1_555 1_555
Zn4 O1 1_555 1_555
O2 Zn1 1_555 1_555
O3 Zn2 1_555 1_555
O4 C18 1_555 1_555
O5 C18 1_555 1_555
O6 Zn1 1_555 1_555
O7 Zn3 1_555 1_555
O8 C36 1_555 1_555
O9 C36 1_555 1_555
O10 Zn2 1_555 1_555
O11 Zn4 1_555 1_555
C1 O2 1_555 1_555
C2 C1 1_555 1_555
C3 C2 1_555 1_555
H1 C3 1_555 1_555
C4 C3 1_555 1_555
H2 C4 1_555 1_555
C5 C4 1_555 1_555
C6 C5 1_555 1_555
H3 C6 1_555 1_555
C7 C2 1_555 1_555
H4 C7 1_555 1_555
C8 C5 1_555 1_555
C9 C8 1_555 1_555
C10 C9 1_555 1_555
C11 C10 1_555 1_555
C12 C11 1_555 1_555
C13 C12 1_555 1_555
H5 C13 1_555 1_555
C14 C13 1_555 1_555
H6 C14 1_555 1_555
C15 C14 1_555 1_555
C16 C15 1_555 1_555
H7 C16 1_555 1_555
C17 C12 1_555 1_555
H8 C17 1_555 1_555
C18 C15 1_555 1_555
C19 O6 1_555 1_555
C20 C19 1_555 1_555
C21 C20 1_555 1_555
H9 C21 1_555 1_555
C22 C21 1_555 1_555
H10 C22 1_555 1_555
C23 C22 1_555 1_555
C24 C23 1_555 1_555
H11 C24 1_555 1_555
C25 C20 1_555 1_555
H12 C25 1_555 1_555
C26 C23 1_555 1_555
C27 C26 1_555 1_555
C28 C27 1_555 1_555
C29 C28 1_555 1_555
C30 C29 1_555 1_555
C31 C30 1_555 1_555
H13 C31 1_555 1_555
C32 C31 1_555 1_555
H14 C32 1_555 1_555
C33 C32 1_555 1_555
C34 C33 1_555 1_555
H15 C34 1_555 1_555
C35 C30 1_555 1_555
H16 C35 1_555 1_555
C36 C33 1_555 1_555
C37 O10 1_555 1_555
C38 C37 1_555 1_555
C39 C38 1_555 1_555
H17 C39 1_555 1_555
C40 C39 1_555 1_555
H18 C40 1_555 1_555
C41 C40 1_555 1_555
C42 C41 1_555 1_555
H19 C42 1_555 1_555
C43 C38 1_555 1_555
H20 C43 1_555 1_555
C44 C41 1_555 1_555
C45 C44 1_555 1_555
Zn5 O8 1_555 1_555
Zn6 O4 1_555 1_555
Zn8 O5 1_555 1_555
Zn10 O9 1_555 1_555
O14 Zn2 1_555 1_555
O15 Zn3 1_555 1_555
O16 Zn1 1_555 1_555
O17 Zn4 1_555 1_555
O18 Zn3 1_555 1_555
O19 Zn4 1_555 1_555
O3 C1 1_555 1_555
O7 C19 1_555 1_555
O11 C37 1_555 1_555
C6 C7 1_555 1_555
C16 C17 1_555 1_555
C24 C25 1_555 1_555
C34 C35 1_555 1_555
C42 C43 1_555 1_555
Zn6 O1_2 1_555 1_555
Zn8 O1_2 1_555 1_555
O3_2 Zn6 1_555 1_555
O10_2 Zn6 1_555 1_555
C1_2 O2_2 1_555 1_555
C2_2 C1_2 1_555 1_555
C3_2 C2_2 1_555 1_555
H1_2 C3_2 1_555 1_555
C4_2 C3_2 1_555 1_555
H2_2 C4_2 1_555 1_555
C5_2 C4_2 1_555 1_555
C6_2 C5_2 1_555 1_555
H3_2 C6_2 1_555 1_555
C7_2 C2_2 1_555 1_555
H4_2 C7_2 1_555 1_555
C37_2 O10_2 1_555 1_555
C38_2 C37_2 1_555 1_555
C39_2 C38_2 1_555 1_555
H17_2 C39_2 1_555 1_555
C40_2 C39_2 1_555 1_555
H18_2 C40_2 1_555 1_555
C41_2 C40_2 1_555 1_555
C42_2 C41_2 1_555 1_555
H19_2 C42_2 1_555 1_555
C43_2 C38_2 1_555 1_555
H20_2 C43_2 1_555 1_555
C44_2 C41_2 1_555 1_555
C45_2 C44_2 1_555 1_555
O3_2 C1_2 1_555 1_555
O11_2 C37_2 1_555 1_555
C6_2 C7_2 1_555 1_555
C42_2 C43_2 1_555 1_555
O4_2 C18_2 1_555 1_555
O5_2 C18_2 1_555 1_555
O12_2 C54_2 1_555 1_555
O13_2 C54_2 1_555 1_555
C9_2 C8_2 1_555 1_555
C10_2 C9_2 1_555 1_555
C11_2 C10_2 1_555 1_555
C12_2 C11_2 1_555 1_555
C13_2 C12_2 1_555 1_555
H5_2 C13_2 1_555 1_555
C14_2 C13_2 1_555 1_555
H6_2 C14_2 1_555 1_555
C15_2 C14_2 1_555 1_555
C16_2 C15_2 1_555 1_555
H7_2 C16_2 1_555 1_555
C17_2 C12_2 1_555 1_555
H8_2 C17_2 1_555 1_555
C18_2 C15_2 1_555 1_555
C47_2 C46_2 1_555 1_555
C48_2 C47_2 1_555 1_555
C49_2 C48_2 1_555 1_555
H21_2 C49_2 1_555 1_555
C50_2 C49_2 1_555 1_555
H22_2 C50_2 1_555 1_555
C51_2 C50_2 1_555 1_555
C52_2 C51_2 1_555 1_555
H23_2 C52_2 1_555 1_555
C53_2 C48_2 1_555 1_555
H24_2 C53_2 1_555 1_555
C54_2 C51_2 1_555 1_555
Zn6_2 O4_2 1_555 1_555
Zn7 O5_2 1_555 1_555
Zn10 O13_2 1_555 1_555
C16_2 C17_2 1_555 1_555
C52_2 C53_2 1_555 1_555
O6_2 Zn1_2 1_555 1_555
O16 C36_2 1_555 1_555
O17 C36_2 1_555 1_555
C19_2 O6_2 1_555 1_555
C20_2 C19_2 1_555 1_555
C21_2 C20_2 1_555 1_555
H9_2 C21_2 1_555 1_555
C22_2 C21_2 1_555 1_555
H10_2 C22_2 1_555 1_555
C23_2 C22_2 1_555 1_555
C24_2 C23_2 1_555 1_555
H11_2 C24_2 1_555 1_555
C25_2 C20_2 1_555 1_555
H12_2 C25_2 1_555 1_555
C26_2 C23_2 1_555 1_555
C27_2 C26_2 1_555 1_555
C28_2 C27_2 1_555 1_555
C29_2 C28_2 1_555 1_555
C30_2 C29_2 1_555 1_555
C31_2 C30_2 1_555 1_555
H13_2 C31_2 1_555 1_555
C32_2 C31_2 1_555 1_555
H14_2 C32_2 1_555 1_555
C33_2 C32_2 1_555 1_555
C34_2 C33_2 1_555 1_555
H15_2 C34_2 1_555 1_555
C35_2 C30_2 1_555 1_555
H16_2 C35_2 1_555 1_555
C36_2 C33_2 1_555 1_555
O16_2 Zn1_2 1_555 1_555
O17_2 Zn9 1_555 1_555
O7_2 C19_2 1_555 1_555
C24_2 C25_2 1_555 1_555
C34_2 C35_2 1_555 1_555
O16_2 C36_3 1_555 1_555
O17_2 C36_3 1_555 1_555
C30_3 C29_3 1_555 1_555
C31_3 C30_3 1_555 1_555
H13_3 C31_3 1_555 1_555
C32_3 C31_3 1_555 1_555
H14_3 C32_3 1_555 1_555
C33_3 C32_3 1_555 1_555
C34_3 C33_3 1_555 1_555
H15_3 C34_3 1_555 1_555
C35_3 C30_3 1_555 1_555
H16_3 C35_3 1_555 1_555
C36_3 C33_3 1_555 1_555
C34_3 C35_3 1_555 1_555
O6_3 Zn5 1_555 1_555
C19_3 O6_3 1_555 1_555
C20_3 C19_3 1_555 1_555
C21_3 C20_3 1_555 1_555
H9_3 C21_3 1_555 1_555
C22_3 C21_3 1_555 1_555
H10_3 C22_3 1_555 1_555
C23_3 C22_3 1_555 1_555
C24_3 C23_3 1_555 1_555
H11_3 C24_3 1_555 1_555
C25_3 C20_3 1_555 1_555
H12_3 C25_3 1_555 1_555
C26_3 C23_3 1_555 1_555
C27_3 C26_3 1_555 1_555
C28_3 C27_3 1_555 1_555
O7_3 C19_3 1_555 1_555
C24_3 C25_3 1_555 1_555
Zn6_2 O1_3 1_555 1_555
Zn7 O1_3 1_555 1_555
O3_3 Zn6_2 1_555 1_555
O14 C18_3 1_555 1_555
O15 C18_3 1_555 1_555
O10_3 Zn6_2 1_555 1_555
C1_3 O2_3 1_555 1_555
C2_3 C1_3 1_555 1_555
C3_3 C2_3 1_555 1_555
H1_3 C3_3 1_555 1_555
C4_3 C3_3 1_555 1_555
H2_3 C4_3 1_555 1_555
C5_3 C4_3 1_555 1_555
C6_3 C5_3 1_555 1_555
H3_3 C6_3 1_555 1_555
C7_3 C2_3 1_555 1_555
H4_3 C7_3 1_555 1_555
C8_3 C5_3 1_555 1_555
C9_3 C8_3 1_555 1_555
C10_3 C9_3 1_555 1_555
C11_3 C10_3 1_555 1_555
C12_3 C11_3 1_555 1_555
C13_3 C12_3 1_555 1_555
H5_3 C13_3 1_555 1_555
C14_3 C13_3 1_555 1_555
H6_3 C14_3 1_555 1_555
C15_3 C14_3 1_555 1_555
C16_3 C15_3 1_555 1_555
H7_3 C16_3 1_555 1_555
C17_3 C12_3 1_555 1_555
H8_3 C17_3 1_555 1_555
C18_3 C15_3 1_555 1_555
C37_3 O10_3 1_555 1_555
C38_3 C37_3 1_555 1_555
C39_3 C38_3 1_555 1_555
H17_3 C39_3 1_555 1_555
C40_3 C39_3 1_555 1_555
H18_3 C40_3 1_555 1_555
C41_3 C40_3 1_555 1_555
C42_3 C41_3 1_555 1_555
H19_3 C42_3 1_555 1_555
C43_3 C38_3 1_555 1_555
H20_3 C43_3 1_555 1_555
C44_3 C41_3 1_555 1_555
C45_3 C44_3 1_555 1_555
O3_3 C1_3 1_555 1_555
O11_3 C37_3 1_555 1_555
C6_3 C7_3 1_555 1_555
C16_3 C17_3 1_555 1_555
C42_3 C43_3 1_555 1_555
O18 C54_3 1_555 1_555
O19 C54_3 1_555 1_555
C47_3 C46_3 1_555 1_555
C48_3 C47_3 1_555 1_555
C49_3 C48_3 1_555 1_555
H21_3 C49_3 1_555 1_555
C50_3 C49_3 1_555 1_555
H22_3 C50_3 1_555 1_555
C51_3 C50_3 1_555 1_555
C52_3 C51_3 1_555 1_555
H23_3 C52_3 1_555 1_555
C53_3 C48_3 1_555 1_555
H24_3 C53_3 1_555 1_555
C54_3 C51_3 1_555 1_555
C52_3 C53_3 1_555 1_555
O4_3 C18_4 1_555 1_555
O5_3 C18_4 1_555 1_555
C9_4 C8_4 1_555 1_555
C10_4 C9_4 1_555 1_555
C11_4 C10_4 1_555 1_555
C12_4 C11_4 1_555 1_555
C13_4 C12_4 1_555 1_555
H5_4 C13_4 1_555 1_555
C14_4 C13_4 1_555 1_555
H6_4 C14_4 1_555 1_555
C15_4 C14_4 1_555 1_555
C16_4 C15_4 1_555 1_555
H7_4 C16_4 1_555 1_555
C17_4 C12_4 1_555 1_555
H8_4 C17_4 1_555 1_555
C18_4 C15_4 1_555 1_555
Zn6_3 O4_3 1_555 1_555
Zn7_2 O5_3 1_555 1_555
C16_4 C17_4 1_555 1_555
Zn1_3 O1_4 1_555 1_555
Zn2_2 O1_4 1_555 1_555
Zn3_2 O1_4 1_555 1_555
Zn4_2 O1_4 1_555 1_555
O2_4 Zn1_3 1_555 1_555
O3_4 Zn2_2 1_555 1_555
O6_4 Zn1_3 1_555 1_555
O7_4 Zn3_2 1_555 1_555
O8_2 C36_4 1_555 1_555
O9_2 C36_4 1_555 1_555
O10_4 Zn2_2 1_555 1_555
O11_4 Zn4_2 1_555 1_555
C1_4 O2_4 1_555 1_555
C2_4 C1_4 1_555 1_555
C3_4 C2_4 1_555 1_555
H1_4 C3_4 1_555 1_555
C4_4 C3_4 1_555 1_555
H2_4 C4_4 1_555 1_555
C5_4 C4_4 1_555 1_555
C6_4 C5_4 1_555 1_555
H3_4 C6_4 1_555 1_555
C7_4 C2_4 1_555 1_555
H4_4 C7_4 1_555 1_555
C19_4 O6_4 1_555 1_555
C20_4 C19_4 1_555 1_555
C21_4 C20_4 1_555 1_555
H9_4 C21_4 1_555 1_555
C22_4 C21_4 1_555 1_555
H10_4 C22_4 1_555 1_555
C23_4 C22_4 1_555 1_555
C24_4 C23_4 1_555 1_555
H11_4 C24_4 1_555 1_555
C25_4 C20_4 1_555 1_555
H12_4 C25_4 1_555 1_555
C26_4 C23_4 1_555 1_555
C27_4 C26_4 1_555 1_555
C28_4 C27_4 1_555 1_555
C29_4 C28_4 1_555 1_555
C30_4 C29_4 1_555 1_555
C31_4 C30_4 1_555 1_555
H13_4 C31_4 1_555 1_555
C32_4 C31_4 1_555 1_555
H14_4 C32_4 1_555 1_555
C33_4 C32_4 1_555 1_555
C34_4 C33_4 1_555 1_555
H15_4 C34_4 1_555 1_555
C35_4 C30_4 1_555 1_555
H16_4 C35_4 1_555 1_555
C36_4 C33_4 1_555 1_555
C37_4 O10_4 1_555 1_555
C38_4 C37_4 1_555 1_555
C39_4 C38_4 1_555 1_555
H17_4 C39_4 1_555 1_555
C40_4 C39_4 1_555 1_555
H18_4 C40_4 1_555 1_555
C41_4 C40_4 1_555 1_555
C42_4 C41_4 1_555 1_555
H19_4 C42_4 1_555 1_555
C43_4 C38_4 1_555 1_555
H20_4 C43_4 1_555 1_555
C44_4 C41_4 1_555 1_555
C45_4 C44_4 1_555 1_555
Zn5_2 O8_2 1_555 1_555
Zn10_2 O9_2 1_555 1_555
O14_2 Zn2_2 1_555 1_555
O15_2 Zn3_2 1_555 1_555
O16_3 Zn1_3 1_555 1_555
O17_3 Zn4_2 1_555 1_555
O18_2 Zn3_2 1_555 1_555
O19_2 Zn4_2 1_555 1_555
O3_4 C1_4 1_555 1_555
O7_4 C19_4 1_555 1_555
O11_4 C37_4 1_555 1_555
C6_4 C7_4 1_555 1_555
C24_4 C25_4 1_555 1_555
C34_4 C35_4 1_555 1_555
C42_4 C43_4 1_555 1_555
O12_3 C54_4 1_555 1_555
O13_3 C54_4 1_555 1_555
C47_4 C46_4 1_555 1_555
C48_4 C47_4 1_555 1_555
C49_4 C48_4 1_555 1_555
H21_4 C49_4 1_555 1_555
C50_4 C49_4 1_555 1_555
H22_4 C50_4 1_555 1_555
C51_4 C50_4 1_555 1_555
C52_4 C51_4 1_555 1_555
H23_4 C52_4 1_555 1_555
C53_4 C48_4 1_555 1_555
H24_4 C53_4 1_555 1_555
C54_4 C51_4 1_555 1_555
Zn9_2 O13_3 1_555 1_555
C52_4 C53_4 1_555 1_555
O6_5 Zn1_4 1_555 1_555
C19_5 O6_5 1_555 1_555
C20_5 C19_5 1_555 1_555
C21_5 C20_5 1_555 1_555
H9_5 C21_5 1_555 1_555
C22_5 C21_5 1_555 1_555
H10_5 C22_5 1_555 1_555
C23_5 C22_5 1_555 1_555
C24_5 C23_5 1_555 1_555
H11_5 C24_5 1_555 1_555
C25_5 C20_5 1_555 1_555
H12_5 C25_5 1_555 1_555
C26_5 C23_5 1_555 1_555
C27_5 C26_5 1_555 1_555
C28_5 C27_5 1_555 1_555
O16_4 Zn1_4 1_555 1_555
O17_4 Zn9_2 1_555 1_555
O7_5 C19_5 1_555 1_555
C24_5 C25_5 1_555 1_555
O16_3 C36_5 1_555 1_555
O17_3 C36_5 1_555 1_555
C30_5 C29_5 1_555 1_555
C31_5 C30_5 1_555 1_555
H13_5 C31_5 1_555 1_555
C32_5 C31_5 1_555 1_555
H14_5 C32_5 1_555 1_555
C33_5 C32_5 1_555 1_555
C34_5 C33_5 1_555 1_555
H15_5 C34_5 1_555 1_555
C35_5 C30_5 1_555 1_555
H16_5 C35_5 1_555 1_555
C36_5 C33_5 1_555 1_555
C34_5 C35_5 1_555 1_555
Zn6_3 O1_5 1_555 1_555
Zn7_2 O1_5 1_555 1_555
O3_5 Zn6_3 1_555 1_555
O4_4 C18_5 1_555 1_555
O5_4 C18_5 1_555 1_555
O10_5 Zn6_3 1_555 1_555
O12_4 C54_5 1_555 1_555
O13_4 C54_5 1_555 1_555
C1_5 O2_5 1_555 1_555
C2_5 C1_5 1_555 1_555
C3_5 C2_5 1_555 1_555
H1_5 C3_5 1_555 1_555
C4_5 C3_5 1_555 1_555
H2_5 C4_5 1_555 1_555
C5_5 C4_5 1_555 1_555
C6_5 C5_5 1_555 1_555
H3_5 C6_5 1_555 1_555
C7_5 C2_5 1_555 1_555
H4_5 C7_5 1_555 1_555
C8_5 C5_5 1_555 1_555
C9_5 C8_5 1_555 1_555
C10_5 C9_5 1_555 1_555
C11_5 C10_5 1_555 1_555
C12_5 C11_5 1_555 1_555
C13_5 C12_5 1_555 1_555
H5_5 C13_5 1_555 1_555
C14_5 C13_5 1_555 1_555
H6_5 C14_5 1_555 1_555
C15_5 C14_5 1_555 1_555
C16_5 C15_5 1_555 1_555
H7_5 C16_5 1_555 1_555
C17_5 C12_5 1_555 1_555
H8_5 C17_5 1_555 1_555
C18_5 C15_5 1_555 1_555
C37_5 O10_5 1_555 1_555
C38_5 C37_5 1_555 1_555
C39_5 C38_5 1_555 1_555
H17_5 C39_5 1_555 1_555
C40_5 C39_5 1_555 1_555
H18_5 C40_5 1_555 1_555
C41_5 C40_5 1_555 1_555
C42_5 C41_5 1_555 1_555
H19_5 C42_5 1_555 1_555
C43_5 C38_5 1_555 1_555
H20_5 C43_5 1_555 1_555
C44_5 C41_5 1_555 1_555
C45_5 C44_5 1_555 1_555
C46_5 C45_5 1_555 1_555
C47_5 C46_5 1_555 1_555
C48_5 C47_5 1_555 1_555
C49_5 C48_5 1_555 1_555
H21_5 C49_5 1_555 1_555
C50_5 C49_5 1_555 1_555
H22_5 C50_5 1_555 1_555
C51_5 C50_5 1_555 1_555
C52_5 C51_5 1_555 1_555
H23_5 C52_5 1_555 1_555
C53_5 C48_5 1_555 1_555
H24_5 C53_5 1_555 1_555
C54_5 C51_5 1_555 1_555
Zn6_4 O4_4 1_555 1_555
Zn8_2 O5_4 1_555 1_555
Zn10_2 O13_4 1_555 1_555
O3_5 C1_5 1_555 1_555
O11_5 C37_5 1_555 1_555
C6_5 C7_5 1_555 1_555
C16_5 C17_5 1_555 1_555
C42_5 C43_5 1_555 1_555
C52_5 C53_5 1_555 1_555
O18_2 C54_6 1_555 1_555
O19_2 C54_6 1_555 1_555
C47_6 C46_6 1_555 1_555
C48_6 C47_6 1_555 1_555
C49_6 C48_6 1_555 1_555
H21_6 C49_6 1_555 1_555
C50_6 C49_6 1_555 1_555
H22_6 C50_6 1_555 1_555
C51_6 C50_6 1_555 1_555
C52_6 C51_6 1_555 1_555
H23_6 C52_6 1_555 1_555
C53_6 C48_6 1_555 1_555
H24_6 C53_6 1_555 1_555
C54_6 C51_6 1_555 1_555
C52_6 C53_6 1_555 1_555
Zn6_4 O1_6 1_555 1_555
Zn8_2 O1_6 1_555 1_555
O3_6 Zn6_4 1_555 1_555
O14_2 C18_6 1_555 1_555
O15_2 C18_6 1_555 1_555
O10_6 Zn6_4 1_555 1_555
C1_6 O2_6 1_555 1_555
C2_6 C1_6 1_555 1_555
C3_6 C2_6 1_555 1_555
H1_6 C3_6 1_555 1_555
C4_6 C3_6 1_555 1_555
H2_6 C4_6 1_555 1_555
C5_6 C4_6 1_555 1_555
C6_6 C5_6 1_555 1_555
H3_6 C6_6 1_555 1_555
C7_6 C2_6 1_555 1_555
H4_6 C7_6 1_555 1_555
C8_6 C5_6 1_555 1_555
C9_6 C8_6 1_555 1_555
C10_6 C9_6 1_555 1_555
C11_6 C10_6 1_555 1_555
C12_6 C11_6 1_555 1_555
C13_6 C12_6 1_555 1_555
H5_6 C13_6 1_555 1_555
C14_6 C13_6 1_555 1_555
H6_6 C14_6 1_555 1_555
C15_6 C14_6 1_555 1_555
C16_6 C15_6 1_555 1_555
H7_6 C16_6 1_555 1_555
C17_6 C12_6 1_555 1_555
H8_6 C17_6 1_555 1_555
C18_6 C15_6 1_555 1_555
C37_6 O10_6 1_555 1_555
C38_6 C37_6 1_555 1_555
C39_6 C38_6 1_555 1_555
H17_6 C39_6 1_555 1_555
C40_6 C39_6 1_555 1_555
H18_6 C40_6 1_555 1_555
C41_6 C40_6 1_555 1_555
C42_6 C41_6 1_555 1_555
H19_6 C42_6 1_555 1_555
C43_6 C38_6 1_555 1_555
H20_6 C43_6 1_555 1_555
C44_6 C41_6 1_555 1_555
C45_6 C44_6 1_555 1_555
O3_6 C1_6 1_555 1_555
O11_6 C37_6 1_555 1_555
C6_6 C7_6 1_555 1_555
C16_6 C17_6 1_555 1_555
C42_6 C43_6 1_555 1_555
O6_6 Zn5_2 1_555 1_555
O16_4 C36_6 1_555 1_555
O17_4 C36_6 1_555 1_555
C19_6 O6_6 1_555 1_555
C20_6 C19_6 1_555 1_555
C21_6 C20_6 1_555 1_555
H9_6 C21_6 1_555 1_555
C22_6 C21_6 1_555 1_555
H10_6 C22_6 1_555 1_555
C23_6 C22_6 1_555 1_555
C24_6 C23_6 1_555 1_555
H11_6 C24_6 1_555 1_555
C25_6 C20_6 1_555 1_555
H12_6 C25_6 1_555 1_555
C26_6 C23_6 1_555 1_555
C27_6 C26_6 1_555 1_555
C28_6 C27_6 1_555 1_555
C29_6 C28_6 1_555 1_555
C30_6 C29_6 1_555 1_555
C31_6 C30_6 1_555 1_555
H13_6 C31_6 1_555 1_555
C32_6 C31_6 1_555 1_555
H14_6 C32_6 1_555 1_555
C33_6 C32_6 1_555 1_555
C34_6 C33_6 1_555 1_555
H15_6 C34_6 1_555 1_555
C35_6 C30_6 1_555 1_555
H16_6 C35_6 1_555 1_555
C36_6 C33_6 1_555 1_555
O7_6 C19_6 1_555 1_555
C24_6 C25_6 1_555 1_555
C34_6 C35_6 1_555 1_555
Zn11 O20 1_555 1_555
O20 Zn12 1_555 1_555
O21 Zn11 1_555 1_555
O22 Zn11 1_555 1_555
O23 Zn11 1_555 1_555
Zn12 O24 1_555 1_555
Zn13 O20 1_555 1_555
Zn14 O20 1_555 1_555
C55 O21 1_555 1_555
C56 O22 1_555 1_555
C57 O23 1_555 1_555
O24 C55 1_555 1_555
O25 Zn12 1_555 1_555
O26 Zn12 1_555 1_555
O27 Zn13 1_555 1_555
O28 Zn13 1_555 1_555
O29 Zn13 1_555 1_555
O30 Zn14 1_555 1_555
O31 Zn14 1_555 1_555
O32 Zn14 1_555 1_555
C58 C55 1_555 1_555
C59 C56 1_555 1_555
C60 C57 1_555 1_555
C61 C58 1_555 1_555
C62 C58 1_555 1_555
C63 C59 1_555 1_555
C64 C59 1_555 1_555
C65 C60 1_555 1_555
C66 C60 1_555 1_555
H25 C61 1_555 1_555
C67 C61 1_555 1_555
C68 C62 1_555 1_555
H26 C62 1_555 1_555
H27 C63 1_555 1_555
C69 C63 1_555 1_555
C70 C64 1_555 1_555
H28 C64 1_555 1_555
H29 C65 1_555 1_555
C71 C65 1_555 1_555
C72 C66 1_555 1_555
H30 C66 1_555 1_555
H31 C67 1_555 1_555
C73 C67 1_555 1_555
H32 C68 1_555 1_555
H33 C69 1_555 1_555
C74 C69 1_555 1_555
H34 C70 1_555 1_555
H35 C71 1_555 1_555
C75 C71 1_555 1_555
H36 C72 1_555 1_555
C76 C73 1_555 1_555
C77 C74 1_555 1_555
C78 C75 1_555 1_555
C79 C76 1_555 1_555
C80 C77 1_555 1_555
C81 C78 1_555 1_555
C83 C80 1_555 1_555
C84 C81 1_555 1_555
C86 C83 1_555 1_555
C87 C84 1_555 1_555
C89 C86 1_555 1_555
C90 C87 1_555 1_555
C93 C89 1_555 1_555
C94 C89 1_555 1_555
C95 C90 1_555 1_555
C96 C90 1_555 1_555
H39 C93 1_555 1_555
C99 C93 1_555 1_555
C100 C94 1_555 1_555
H40 C94 1_555 1_555
H41 C95 1_555 1_555
C101 C95 1_555 1_555
C102 C96 1_555 1_555
H42 C96 1_555 1_555
H45 C99 1_555 1_555
C104 C99 1_555 1_555
H46 C100 1_555 1_555
H47 C101 1_555 1_555
C105 C101 1_555 1_555
H48 C102 1_555 1_555
C107 C104 1_555 1_555
C108 C105 1_555 1_555
O35 C107 1_555 1_555
O36 C107 1_555 1_555
O37 C108 1_555 1_555
O38 C108 1_555 1_555
Zn17 O35 1_555 1_555
Zn19 O37 1_555 1_555
Zn20 O38 1_555 1_555
C56 O27 1_555 1_555
C57 O30 1_555 1_555
C68 C73 1_555 1_555
C70 C74 1_555 1_555
C72 C75 1_555 1_555
C100 C104 1_555 1_555
C102 C105 1_555 1_555
C85 C82 1_555 1_555
C88 C85 1_555 1_555
C91 C88 1_555 1_555
C92 C88 1_555 1_555
H37 C91 1_555 1_555
C97 C91 1_555 1_555
C98 C92 1_555 1_555
H38 C92 1_555 1_555
H43 C97 1_555 1_555
C103 C97 1_555 1_555
H44 C98 1_555 1_555
C106 C103 1_555 1_555
O33 C106 1_555 1_555
O34 C106 1_555 1_555
Zn17 O34 1_555 1_555
C98 C103 1_555 1_555
C56_2 O22_2 1_555 1_555
O27_2 Zn17 1_555 1_555
C59_2 C56_2 1_555 1_555
C63_2 C59_2 1_555 1_555
C64_2 C59_2 1_555 1_555
H27_2 C63_2 1_555 1_555
C69_2 C63_2 1_555 1_555
C70_2 C64_2 1_555 1_555
H28_2 C64_2 1_555 1_555
H33_2 C69_2 1_555 1_555
C74_2 C69_2 1_555 1_555
H34_2 C70_2 1_555 1_555
C77_2 C74_2 1_555 1_555
C80_2 C77_2 1_555 1_555
C56_2 O27_2 1_555 1_555
C70_2 C74_2 1_555 1_555
C86_2 C83_2 1_555 1_555
C89_2 C86_2 1_555 1_555
C93_2 C89_2 1_555 1_555
C94_2 C89_2 1_555 1_555
H39_2 C93_2 1_555 1_555
C99_2 C93_2 1_555 1_555
C100_2 C94_2 1_555 1_555
H40_2 C94_2 1_555 1_555
H45_2 C99_2 1_555 1_555
C104_2 C99_2 1_555 1_555
H46_2 C100_2 1_555 1_555
C107_2 C104_2 1_555 1_555
O35_2 C107_2 1_555 1_555
O36_2 C107_2 1_555 1_555
Zn17_2 O35_2 1_555 1_555
C100_2 C104_2 1_555 1_555
Zn11_2 O20_2 1_555 1_555
O20_2 Zn19 1_555 1_555
O21_2 Zn11_2 1_555 1_555
O23_2 Zn11_2 1_555 1_555
Zn19 O24_2 1_555 1_555
Zn20 O20_2 1_555 1_555
C55_2 O21_2 1_555 1_555
C57_2 O23_2 1_555 1_555
O24_2 C55_2 1_555 1_555
O30_2 Zn20 1_555 1_555
C58_2 C55_2 1_555 1_555
C60_2 C57_2 1_555 1_555
C61_2 C58_2 1_555 1_555
C62_2 C58_2 1_555 1_555
C65_2 C60_2 1_555 1_555
C66_2 C60_2 1_555 1_555
H25_2 C61_2 1_555 1_555
C67_2 C61_2 1_555 1_555
C68_2 C62_2 1_555 1_555
H26_2 C62_2 1_555 1_555
H29_2 C65_2 1_555 1_555
C71_2 C65_2 1_555 1_555
C72_2 C66_2 1_555 1_555
H30_2 C66_2 1_555 1_555
H31_2 C67_2 1_555 1_555
C73_2 C67_2 1_555 1_555
H32_2 C68_2 1_555 1_555
H35_2 C71_2 1_555 1_555
C75_2 C71_2 1_555 1_555
H36_2 C72_2 1_555 1_555
C76_2 C73_2 1_555 1_555
C78_2 C75_2 1_555 1_555
C79_2 C76_2 1_555 1_555
C81_2 C78_2 1_555 1_555
C82_2 C79_2 1_555 1_555
C85_2 C82_2 1_555 1_555
C57_2 O30_2 1_555 1_555
C68_2 C73_2 1_555 1_555
C72_2 C75_2 1_555 1_555
C87_2 C84_2 1_555 1_555
C90_2 C87_2 1_555 1_555
C91_2 C88_2 1_555 1_555
C92_2 C88_2 1_555 1_555
C95_2 C90_2 1_555 1_555
C96_2 C90_2 1_555 1_555
H37_2 C91_2 1_555 1_555
C97_2 C91_2 1_555 1_555
C98_2 C92_2 1_555 1_555
H38_2 C92_2 1_555 1_555
H41_2 C95_2 1_555 1_555
C101_2 C95_2 1_555 1_555
C102_2 C96_2 1_555 1_555
H42_2 C96_2 1_555 1_555
H43_2 C97_2 1_555 1_555
C103_2 C97_2 1_555 1_555
H44_2 C98_2 1_555 1_555
H47_2 C101_2 1_555 1_555
C105_2 C101_2 1_555 1_555
H48_2 C102_2 1_555 1_555
C106_2 C103_2 1_555 1_555
C108_2 C105_2 1_555 1_555
O33_2 C106_2 1_555 1_555
O34_2 C106_2 1_555 1_555
O37_2 C108_2 1_555 1_555
O38_2 C108_2 1_555 1_555
Zn17_2 O34_2 1_555 1_555
Zn15 O37_2 1_555 1_555
Zn18 O38_2 1_555 1_555
C98_2 C103_2 1_555 1_555
C102_2 C105_2 1_555 1_555
C85_3 C82_3 1_555 1_555
C88_3 C85_3 1_555 1_555
C91_3 C88_3 1_555 1_555
C92_3 C88_3 1_555 1_555
H37_3 C91_3 1_555 1_555
C97_3 C91_3 1_555 1_555
C98_3 C92_3 1_555 1_555
H38_3 C92_3 1_555 1_555
H43_3 C97_3 1_555 1_555
C103_3 C97_3 1_555 1_555
H44_3 C98_3 1_555 1_555
C106_3 C103_3 1_555 1_555
O25 C106_3 1_555 1_555
O28 C106_3 1_555 1_555
C98_3 C103_3 1_555 1_555
Zn11_3 O20_3 1_555 1_555
O20_3 Zn15 1_555 1_555
O21_3 Zn11_3 1_555 1_555
O23_3 Zn11_3 1_555 1_555
Zn15 O24_3 1_555 1_555
Zn18 O20_3 1_555 1_555
C55_3 O21_3 1_555 1_555
C57_3 O23_3 1_555 1_555
O24_3 C55_3 1_555 1_555
O30_3 Zn18 1_555 1_555
C58_3 C55_3 1_555 1_555
C60_3 C57_3 1_555 1_555
C61_3 C58_3 1_555 1_555
C62_3 C58_3 1_555 1_555
C65_3 C60_3 1_555 1_555
C66_3 C60_3 1_555 1_555
H25_3 C61_3 1_555 1_555
C67_3 C61_3 1_555 1_555
C68_3 C62_3 1_555 1_555
H26_3 C62_3 1_555 1_555
H29_3 C65_3 1_555 1_555
C71_3 C65_3 1_555 1_555
C72_3 C66_3 1_555 1_555
H30_3 C66_3 1_555 1_555
H31_3 C67_3 1_555 1_555
C73_3 C67_3 1_555 1_555
H32_3 C68_3 1_555 1_555
H35_3 C71_3 1_555 1_555
C75_3 C71_3 1_555 1_555
H36_3 C72_3 1_555 1_555
C76_3 C73_3 1_555 1_555
C78_3 C75_3 1_555 1_555
C79_3 C76_3 1_555 1_555
C81_3 C78_3 1_555 1_555
C84_3 C81_3 1_555 1_555
C87_3 C84_3 1_555 1_555
C90_3 C87_3 1_555 1_555
C95_3 C90_3 1_555 1_555
C96_3 C90_3 1_555 1_555
H41_3 C95_3 1_555 1_555
C101_3 C95_3 1_555 1_555
C102_3 C96_3 1_555 1_555
H42_3 C96_3 1_555 1_555
H47_3 C101_3 1_555 1_555
C105_3 C101_3 1_555 1_555
H48_3 C102_3 1_555 1_555
C108_3 C105_3 1_555 1_555
O26 C108_3 1_555 1_555
O32 C108_3 1_555 1_555
C57_3 O30_3 1_555 1_555
C68_3 C73_3 1_555 1_555
C72_3 C75_3 1_555 1_555
C102_3 C105_3 1_555 1_555
C56_3 O22_3 1_555 1_555
O27_3 Zn17_2 1_555 1_555
C59_3 C56_3 1_555 1_555
C63_3 C59_3 1_555 1_555
C64_3 C59_3 1_555 1_555
H27_3 C63_3 1_555 1_555
C69_3 C63_3 1_555 1_555
C70_3 C64_3 1_555 1_555
H28_3 C64_3 1_555 1_555
H33_3 C69_3 1_555 1_555
C74_3 C69_3 1_555 1_555
H34_3 C70_3 1_555 1_555
C77_3 C74_3 1_555 1_555
C80_3 C77_3 1_555 1_555
C83_3 C80_3 1_555 1_555
C86_3 C83_3 1_555 1_555
C89_3 C86_3 1_555 1_555
C93_3 C89_3 1_555 1_555
C94_3 C89_3 1_555 1_555
H39_3 C93_3 1_555 1_555
C99_3 C93_3 1_555 1_555
C100_3 C94_3 1_555 1_555
H40_3 C94_3 1_555 1_555
H45_3 C99_3 1_555 1_555
C104_3 C99_3 1_555 1_555
H46_3 C100_3 1_555 1_555
C107_3 C104_3 1_555 1_555
O29 C107_3 1_555 1_555
O31 C107_3 1_555 1_555
C56_3 O27_3 1_555 1_555
C70_3 C74_3 1_555 1_555
C100_3 C104_3 1_555 1_555
C91_4 C88_4 1_555 1_555
C92_4 C88_4 1_555 1_555
H37_4 C91_4 1_555 1_555
C97_4 C91_4 1_555 1_555
C98_4 C92_4 1_555 1_555
H38_4 C92_4 1_555 1_555
H43_4 C97_4 1_555 1_555
C103_4 C97_4 1_555 1_555
H44_4 C98_4 1_555 1_555
C106_4 C103_4 1_555 1_555
O33_3 C106_4 1_555 1_555
O34_3 C106_4 1_555 1_555
Zn16 O34_3 1_555 1_555
C98_4 C103_4 1_555 1_555
C86_4 C83_4 1_555 1_555
C87_4 C84_4 1_555 1_555
C89_4 C86_4 1_555 1_555
C90_4 C87_4 1_555 1_555
C93_4 C89_4 1_555 1_555
C94_4 C89_4 1_555 1_555
C95_4 C90_4 1_555 1_555
C96_4 C90_4 1_555 1_555
H39_4 C93_4 1_555 1_555
C99_4 C93_4 1_555 1_555
C100_4 C94_4 1_555 1_555
H40_4 C94_4 1_555 1_555
H41_4 C95_4 1_555 1_555
C101_4 C95_4 1_555 1_555
C102_4 C96_4 1_555 1_555
H42_4 C96_4 1_555 1_555
H45_4 C99_4 1_555 1_555
C104_4 C99_4 1_555 1_555
H46_4 C100_4 1_555 1_555
H47_4 C101_4 1_555 1_555
C105_4 C101_4 1_555 1_555
H48_4 C102_4 1_555 1_555
C107_4 C104_4 1_555 1_555
C108_4 C105_4 1_555 1_555
O35_3 C107_4 1_555 1_555
O36_3 C107_4 1_555 1_555
O37_3 C108_4 1_555 1_555
O38_3 C108_4 1_555 1_555
Zn16 O35_3 1_555 1_555
Zn15_2 O37_3 1_555 1_555
Zn18_2 O38_3 1_555 1_555
C100_4 C104_4 1_555 1_555
C102_4 C105_4 1_555 1_555
Zn11_4 O20_4 1_555 1_555
O20_4 Zn12_2 1_555 1_555
O21_4 Zn11_4 1_555 1_555
O22_4 Zn11_4 1_555 1_555
O23_4 Zn11_4 1_555 1_555
Zn12_2 O24_4 1_555 1_555
Zn13_2 O20_4 1_555 1_555
Zn14_2 O20_4 1_555 1_555
C55_4 O21_4 1_555 1_555
C56_4 O22_4 1_555 1_555
C57_4 O23_4 1_555 1_555
O24_4 C55_4 1_555 1_555
O25_2 Zn12_2 1_555 1_555
O26_2 Zn12_2 1_555 1_555
O27_4 Zn13_2 1_555 1_555
O28_2 Zn13_2 1_555 1_555
O29_2 Zn13_2 1_555 1_555
O30_4 Zn14_2 1_555 1_555
O31_2 Zn14_2 1_555 1_555
O32_2 Zn14_2 1_555 1_555
C58_4 C55_4 1_555 1_555
C59_4 C56_4 1_555 1_555
C60_4 C57_4 1_555 1_555
C61_4 C58_4 1_555 1_555
C62_4 C58_4 1_555 1_555
C63_4 C59_4 1_555 1_555
C64_4 C59_4 1_555 1_555
C65_4 C60_4 1_555 1_555
C66_4 C60_4 1_555 1_555
H25_4 C61_4 1_555 1_555
C67_4 C61_4 1_555 1_555
C68_4 C62_4 1_555 1_555
H26_4 C62_4 1_555 1_555
H27_4 C63_4 1_555 1_555
C69_4 C63_4 1_555 1_555
C70_4 C64_4 1_555 1_555
H28_4 C64_4 1_555 1_555
H29_4 C65_4 1_555 1_555
C71_4 C65_4 1_555 1_555
C72_4 C66_4 1_555 1_555
H30_4 C66_4 1_555 1_555
H31_4 C67_4 1_555 1_555
C73_4 C67_4 1_555 1_555
H32_4 C68_4 1_555 1_555
H33_4 C69_4 1_555 1_555
C74_4 C69_4 1_555 1_555
H34_4 C70_4 1_555 1_555
H35_4 C71_4 1_555 1_555
C75_4 C71_4 1_555 1_555
H36_4 C72_4 1_555 1_555
C76_4 C73_4 1_555 1_555
C77_4 C74_4 1_555 1_555
C78_4 C75_4 1_555 1_555
C79_4 C76_4 1_555 1_555
C80_4 C77_4 1_555 1_555
C81_4 C78_4 1_555 1_555
C56_4 O27_4 1_555 1_555
C57_4 O30_4 1_555 1_555
C68_4 C73_4 1_555 1_555
C70_4 C74_4 1_555 1_555
C72_4 C75_4 1_555 1_555
Zn11_5 O20_5 1_555 1_555
O20_5 Zn15_2 1_555 1_555
O21_5 Zn11_5 1_555 1_555
O23_5 Zn11_5 1_555 1_555
Zn15_2 O24_5 1_555 1_555
Zn18_2 O20_5 1_555 1_555
C55_5 O21_5 1_555 1_555
C57_5 O23_5 1_555 1_555
O24_5 C55_5 1_555 1_555
O30_5 Zn18_2 1_555 1_555
C58_5 C55_5 1_555 1_555
C60_5 C57_5 1_555 1_555
C61_5 C58_5 1_555 1_555
C62_5 C58_5 1_555 1_555
C65_5 C60_5 1_555 1_555
C66_5 C60_5 1_555 1_555
H25_5 C61_5 1_555 1_555
C67_5 C61_5 1_555 1_555
C68_5 C62_5 1_555 1_555
H26_5 C62_5 1_555 1_555
H29_5 C65_5 1_555 1_555
C71_5 C65_5 1_555 1_555
C72_5 C66_5 1_555 1_555
H30_5 C66_5 1_555 1_555
H31_5 C67_5 1_555 1_555
C73_5 C67_5 1_555 1_555
H32_5 C68_5 1_555 1_555
H35_5 C71_5 1_555 1_555
C75_5 C71_5 1_555 1_555
H36_5 C72_5 1_555 1_555
C76_5 C73_5 1_555 1_555
C78_5 C75_5 1_555 1_555
C79_5 C76_5 1_555 1_555
C81_5 C78_5 1_555 1_555
C82_4 C79_5 1_555 1_555
C84_5 C81_5 1_555 1_555
C85_4 C82_4 1_555 1_555
C87_5 C84_5 1_555 1_555
C88_5 C85_4 1_555 1_555
C90_5 C87_5 1_555 1_555
C91_5 C88_5 1_555 1_555
C92_5 C88_5 1_555 1_555
C95_5 C90_5 1_555 1_555
C96_5 C90_5 1_555 1_555
H37_5 C91_5 1_555 1_555
C97_5 C91_5 1_555 1_555
C98_5 C92_5 1_555 1_555
H38_5 C92_5 1_555 1_555
H41_5 C95_5 1_555 1_555
C101_5 C95_5 1_555 1_555
C102_5 C96_5 1_555 1_555
H42_5 C96_5 1_555 1_555
H43_5 C97_5 1_555 1_555
C103_5 C97_5 1_555 1_555
H44_5 C98_5 1_555 1_555
H47_5 C101_5 1_555 1_555
C105_5 C101_5 1_555 1_555
H48_5 C102_5 1_555 1_555
C106_5 C103_5 1_555 1_555
C108_5 C105_5 1_555 1_555
O33_4 C106_5 1_555 1_555
O34_4 C106_5 1_555 1_555
O37_4 C108_5 1_555 1_555
O38_4 C108_5 1_555 1_555
Zn16_2 O34_4 1_555 1_555
Zn19_2 O37_4 1_555 1_555
Zn20_2 O38_4 1_555 1_555
C57_5 O30_5 1_555 1_555
C68_5 C73_5 1_555 1_555
C72_5 C75_5 1_555 1_555
C98_5 C103_5 1_555 1_555
C102_5 C105_5 1_555 1_555
C56_5 O22_5 1_555 1_555
O27_5 Zn16 1_555 1_555
C59_5 C56_5 1_555 1_555
C63_5 C59_5 1_555 1_555
C64_5 C59_5 1_555 1_555
H27_5 C63_5 1_555 1_555
C69_5 C63_5 1_555 1_555
C70_5 C64_5 1_555 1_555
H28_5 C64_5 1_555 1_555
H33_5 C69_5 1_555 1_555
C74_5 C69_5 1_555 1_555
H34_5 C70_5 1_555 1_555
C77_5 C74_5 1_555 1_555
C80_5 C77_5 1_555 1_555
C83_5 C80_5 1_555 1_555
C86_5 C83_5 1_555 1_555
C89_5 C86_5 1_555 1_555
C93_5 C89_5 1_555 1_555
C94_5 C89_5 1_555 1_555
H39_5 C93_5 1_555 1_555
C99_5 C93_5 1_555 1_555
C100_5 C94_5 1_555 1_555
H40_5 C94_5 1_555 1_555
H45_5 C99_5 1_555 1_555
C104_5 C99_5 1_555 1_555
H46_5 C100_5 1_555 1_555
C107_5 C104_5 1_555 1_555
O35_4 C107_5 1_555 1_555
O36_4 C107_5 1_555 1_555
Zn16_2 O35_4 1_555 1_555
C56_5 O27_5 1_555 1_555
C70_5 C74_5 1_555 1_555
C100_5 C104_5 1_555 1_555
C56_6 O22_6 1_555 1_555
O27_6 Zn16_2 1_555 1_555
C59_6 C56_6 1_555 1_555
C63_6 C59_6 1_555 1_555
C64_6 C59_6 1_555 1_555
H27_6 C63_6 1_555 1_555
C69_6 C63_6 1_555 1_555
C70_6 C64_6 1_555 1_555
H28_6 C64_6 1_555 1_555
H33_6 C69_6 1_555 1_555
C74_6 C69_6 1_555 1_555
H34_6 C70_6 1_555 1_555
C77_6 C74_6 1_555 1_555
C80_6 C77_6 1_555 1_555
C83_6 C80_6 1_555 1_555
C86_6 C83_6 1_555 1_555
C89_6 C86_6 1_555 1_555
C93_6 C89_6 1_555 1_555
C94_6 C89_6 1_555 1_555
H39_6 C93_6 1_555 1_555
C99_6 C93_6 1_555 1_555
C100_6 C94_6 1_555 1_555
H40_6 C94_6 1_555 1_555
H45_6 C99_6 1_555 1_555
C104_6 C99_6 1_555 1_555
H46_6 C100_6 1_555 1_555
C107_6 C104_6 1_555 1_555
O29_2 C107_6 1_555 1_555
O31_2 C107_6 1_555 1_555
C56_6 O27_6 1_555 1_555
C70_6 C74_6 1_555 1_555
C100_6 C104_6 1_555 1_555
Zn11_6 O20_6 1_555 1_555
O20_6 Zn19_2 1_555 1_555
O21_6 Zn11_6 1_555 1_555
O23_6 Zn11_6 1_555 1_555
Zn19_2 O24_6 1_555 1_555
Zn20_2 O20_6 1_555 1_555
C55_6 O21_6 1_555 1_555
C57_6 O23_6 1_555 1_555
O24_6 C55_6 1_555 1_555
O30_6 Zn20_2 1_555 1_555
C58_6 C55_6 1_555 1_555
C60_6 C57_6 1_555 1_555
C61_6 C58_6 1_555 1_555
C62_6 C58_6 1_555 1_555
C65_6 C60_6 1_555 1_555
C66_6 C60_6 1_555 1_555
H25_6 C61_6 1_555 1_555
C67_6 C61_6 1_555 1_555
C68_6 C62_6 1_555 1_555
H26_6 C62_6 1_555 1_555
H29_6 C65_6 1_555 1_555
C71_6 C65_6 1_555 1_555
C72_6 C66_6 1_555 1_555
H30_6 C66_6 1_555 1_555
H31_6 C67_6 1_555 1_555
C73_6 C67_6 1_555 1_555
H32_6 C68_6 1_555 1_555
H35_6 C71_6 1_555 1_555
C75_6 C71_6 1_555 1_555
H36_6 C72_6 1_555 1_555
C76_6 C73_6 1_555 1_555
C78_6 C75_6 1_555 1_555
C79_6 C76_6 1_555 1_555
C81_6 C78_6 1_555 1_555
C84_6 C81_6 1_555 1_555
C87_6 C84_6 1_555 1_555
C90_6 C87_6 1_555 1_555
C95_6 C90_6 1_555 1_555
C96_6 C90_6 1_555 1_555
H41_6 C95_6 1_555 1_555
C101_6 C95_6 1_555 1_555
C102_6 C96_6 1_555 1_555
H42_6 C96_6 1_555 1_555
H47_6 C101_6 1_555 1_555
C105_6 C101_6 1_555 1_555
H48_6 C102_6 1_555 1_555
C108_6 C105_6 1_555 1_555
O26_2 C108_6 1_555 1_555
O32_2 C108_6 1_555 1_555
C57_6 O30_6 1_555 1_555
C68_6 C73_6 1_555 1_555
C72_6 C75_6 1_555 1_555
C102_6 C105_6 1_555 1_555
C85_5 C82_5 1_555 1_555
C88_6 C85_5 1_555 1_555
C91_6 C88_6 1_555 1_555
C92_6 C88_6 1_555 1_555
H37_6 C91_6 1_555 1_555
C97_6 C91_6 1_555 1_555
C98_6 C92_6 1_555 1_555
H38_6 C92_6 1_555 1_555
H43_6 C97_6 1_555 1_555
C103_6 C97_6 1_555 1_555
H44_6 C98_6 1_555 1_555
C106_6 C103_6 1_555 1_555
O25_2 C106_6 1_555 1_555
O28_2 C106_6 1_555 1_555
C98_6 C103_6 1_555 1_555
C85_6 C82_6 1_555 1_555

#END
