
###############################################################################
#
# This file contains modified crystal structure data generated from the
# MOF subset of the Cambridge Structural Database (CSD) v543 
# hosted by the Cambridge Crystallographic Data Centre (CCDC).
#
# This work is licensed under the Creative Commons
# Attribution-NonCommercial-ShareAlike 4.0 International License.
# To view a copy of this license, visit
# http://creativecommons.org/licenses/by-nc-sa/4.0/
# or send a letter to
# Creative Commons, PO Box 1866, Mountain View, CA 94042, USA.
#
# CIF created using the CSD Python API on 29 September 2022
# The structure has been converted into the P1 space group
# The structure has a 3D framework
# The original CSD entry NUVYOT is in the monoclinic crystal system
# The framework has been calculated to contain at least 10.0% void space
# The void calculation uses a probe of radius 1.32A, grid spacing 0.4
# The framework is charged, counterions have been retained in the structure
#
###############################################################################

data_NUVYOT
_chemical_formula_moiety         '(C240 H184 N24 Ni12 O72)n'
_symmetry_cell_setting           triclinic
_symmetry_space_group_name_H-M   'P 1'
_symmetry_Int_Tables_number      1
_space_group_name_Hall           'P 1'
loop_
_symmetry_equiv_pos_site_id
_symmetry_equiv_pos_as_xyz
1 x,y,z
_cell_length_a                   11.336(3)
_cell_length_b                   19.518(6)
_cell_length_c                   27.059(8)
_cell_angle_alpha                90
_cell_angle_beta                 98.092(5)
_cell_angle_gamma                90
_cell_volume                     5927.36
loop_
_atom_site_label
_atom_site_type_symbol
_atom_site_fract_x
_atom_site_fract_y
_atom_site_fract_z
H13 H 0.0162 0.2334 0.6705
C1 C 0.3387(9) 0.0911(6) 0.3357(4)
C3 C 0.3171(8) 0.0718(5) 0.2822(4)
C4 C 0.3459(11) 0.1177(6) 0.2451(4)
H1 H 0.3812 0.1595 0.2547
C5 C 0.3235(13) 0.1021(6) 0.1976(4)
H2 H 0.3438 0.1334 0.1743
C6 C 0.2709(12) 0.0408(6) 0.1810(4)
H3 H 0.2562 0.0304 0.1471
C8 C 0.2644(8) 0.0092(5) 0.2672(4)
C16 C 0.4648(11) 0.2951(5) 0.5180(4)
C17 C 0.4221(11) 0.3547(6) 0.4926(4)
C18 C 0.4755(16) 0.4177(7) 0.5088(6)
H8 H 0.4486 0.4581 0.4926
C19 C 0.5626(16) 0.4200(6) 0.5462(5)
H9 H 0.5968 0.4623 0.5554
C20 C 0.6053(12) 0.3632(6) 0.5724(5)
H10 H 0.6673 0.3658 0.5988
C21 C 0.5505(9) 0.3010(5) 0.5574(4)
C22 C 0.4114(9) 0.2242(5) 0.5013(4)
C23 C 0.3227(13) 0.3554(6) 0.4487(4)
C24 C 0.7062(9) 0.2377(5) 0.6109(4)
C25 C 0.7956(11) 0.2498(7) 0.5821(5)
H11 H 0.7771 0.2593 0.5482
C26 C 0.9128(10) 0.2474(6) 0.6045(6)
H12 H 0.9744 0.2549 0.5858
C27 C 0.9377(9) 0.2338(6) 0.6549(5)
C28 C 0.8474(9) 0.2209(5) 0.6814(4)
H14 H 0.8658 0.2098 0.7150
C29 C 0.7289(8) 0.2235(5) 0.6605(4)
C30 C 0.6380(8) 0.2100(4) 0.6936(4)
C31 C 0.1147(11) 0.0649(6) 0.4150(5)
H15 H 0.1538 0.0250 0.4079
C35 C 0.1219(10) 0.1784(6) 0.4350(5)
H18 H 0.1636 0.2191 0.4420
C41 C 0.5437(10) 0.3242(6) 0.7889(5)
H23 H 0.6236 0.3246 0.7846
C42 C 0.4847(10) 0.3862(5) 0.7872(5)
H24 H 0.5245 0.4266 0.7817
C43 C 0.3675(10) 0.3879(5) 0.7935(4)
C44 C 0.3117(10) 0.3248(5) 0.8013(5)
H25 H 0.2310 0.3227 0.8042
C45 C 0.3826(11) 0.2652(6) 0.8044(5)
H26 H 0.3482 0.2242 0.8125
C46 C 0.2946(11) 0.5753(6) 0.7939(4)
H27 H 0.3360 0.6162 0.7926
C47 C 0.3574(9) 0.5135(5) 0.7926(5)
H28 H 0.4388 0.5141 0.7912
C48 C 0.2994(10) 0.4533(5) 0.7935(4)
C49 C 0.1780(10) 0.4541(6) 0.7954(5)
H29 H 0.1343 0.4137 0.7950
C50 C 0.1216(10) 0.5205(6) 0.7982(5)
H30 H 0.0407 0.5218 0.8009
C51 C 0.3630(12) 0.3227(6) 0.6476(5)
H31 H 0.4271 0.3150 0.6725
C52 C 0.3006(13) 0.3825(7) 0.6501(5)
H32 H 0.3231 0.4141 0.6754
C53 C 0.2043(11) 0.3945(6) 0.6144(4)
C54 C 0.1787(10) 0.3447(5) 0.5776(5)
H33 H 0.1161 0.3515 0.5520
C55 C 0.2433(10) 0.2871(6) 0.5787(4)
H34 H 0.2211 0.2536 0.5548
C56 C 0.0479(11) 0.5523(5) 0.6500(4)
H35 H 0.0185 0.5693 0.6780
C57 C 0.0970(10) 0.4875(5) 0.6522(5)
H36 H 0.1002 0.4618 0.6813
C58 C 0.1415(11) 0.4607(6) 0.6115(5)
C59 C 0.1285(10) 0.4995(5) 0.5685(4)
H37 H 0.1539 0.4826 0.5396
C60 C 0.0768(9) 0.5646(5) 0.5688(4)
H38 H 0.0671 0.5901 0.5395
N1 N 0.1802(7) 0.1224(5) 0.4241(4)
N3 N 0.4941(8) 0.2639(4) 0.7965(4)
N4 N 0.1779(8) 0.5780(4) 0.7970(4)
N5 N 0.3400(8) 0.2757(4) 0.6134(4)
N6 N 0.0409(8) 0.5915(5) 0.6092(3)
O1 O 0.3471(7) 0.1539(4) 0.3483(3)
O2 O 0.3495(6) 0.0466(4) 0.3688(2)
O8 O 0.3488(9) 0.3724(4) 0.4077(3)
O9 O 0.2211(9) 0.3402(6) 0.4576(4)
O10 O 0.3883(6) 0.2147(4) 0.4555(3)
O11 O 0.4003(6) 0.1816(3) 0.5335(3)
O12 O 0.5874(6) 0.2417(4) 0.5860(3)
O13 O 0.5258(6) 0.2041(4) 0.6772(3)
O14 O 0.6757(6) 0.2041(4) 0.7400(3)
O15 O 0.3782(7) 0.0526(4) 0.4820(3)
H39 H 0.4077 0.0347 0.5097
H40 H 0.3225 0.0265 0.4687
O16 O 0.7384(8) 0.2137(4) 0.8415(3)
H41 H 0.6977 0.2076 0.8653
H42 H 0.7773 0.2508 0.8473
O17 O 0.5373(13) 0.1460(6) 0.8650(4)
H43 H 0.4721 0.1276 0.8519
H44 H 0.5669 0.1234 0.8904
O18 O 0.4479(7) 0.1279(3) 0.7540(3)
H45 H 0.4016 0.1274 0.7767
H46 H 0.4432 0.1644 0.7388
Ni1 Ni 0.36610(10) 0.12136(6) 0.42468(5)
Ni2 Ni 0.44457(10) 0.18496(6) 0.60804(5)
Ni3 Ni 0.59157(11) 0.17272(6) 0.79743(5)
N7 N 0.5556(8) 0.1187(5) 0.4264(4)
N8 N 0.6779(8) 0.0780(4) 0.7970(4)
N9 N 0.5409(8) 0.0915(5) 0.6092(3)
O19 O 0.3050(6) 0.1361(4) 0.6285(3)
Ni7 Ni 0.09157(11) 0.67272(6) 0.79743(5)
C32 C 0.9962(10) 0.0616(6) 0.4157(5)
H16 H 0.9565 0.0202 0.4087
C33 C 0.9322(9) 0.1192(6) 0.4266(4)
C34 C 0.9980(11) 0.1769(6) 0.4360(6)
H17 H 0.9598 0.2171 0.4434
C36 C 0.6129(11) 0.1767(6) 0.4240(5)
H19 H 0.5704 0.2176 0.4216
C37 C 0.7385(12) 0.1786(6) 0.4250(6)
H20 H 0.7771 0.2205 0.4238
C38 C 0.8029(9) 0.1189(6) 0.4277(4)
C39 C 0.7377(10) 0.0569(6) 0.4287(4)
H21 H 0.7754 0.0146 0.4293
C40 C 0.6186(10) 0.0619(6) 0.4287(5)
H22 H 0.5771 0.0211 0.4305
Ni5 Ni 0.94457(10) 0.68496(6) 0.60804(5)
C2 C 0.2280(10) 0.0439(5) 0.8031(4)
C7 C 0.2409(10) 0.0043(5) 0.7165(4)
C9 C 0.0963(9) 0.0698(5) 0.6626(4)
C13 C 0.0246(10) 0.0863(6) 0.5779(5)
H7 H 0.0381 0.0932 0.5452
C14 C 0.1187(11) 0.0836(6) 0.6155(4)
C15 C 0.2426(9) 0.0929(5) 0.6019(4)
O3 O 0.1316(7) 0.0342(4) 0.8193(3)
O4 O 0.2969(8) 0.0948(4) 0.8134(3)
O5 O 0.1898(8) 0.0680(4) 0.7031(3)
O7 O 0.2687(8) 0.0622(4) 0.5661(4)
Ni5_2 Ni 0.94457(10) 0.31504(6) 0.10804(5)
C19_2 C 0.0626(16) 0.9200(6) 0.5462(5)
H9_2 H 0.0968 0.9623 0.5554
C20_2 C 0.1053(12) 0.8632(6) 0.5724(5)
H10_2 H 0.1673 0.8658 0.5988
C21_2 C 0.0505(9) 0.8010(5) 0.5574(4)
C24_2 C 0.2062(9) 0.7377(5) 0.6109(4)
C25_2 C 0.2956(11) 0.7498(7) 0.5821(5)
H11_2 H 0.2771 0.7593 0.5482
C26_2 C 0.4128(10) 0.7474(6) 0.6045(6)
H12_2 H 0.4744 0.7549 0.5858
C27_2 C 0.4377(9) 0.7338(6) 0.6549(5)
H13_2 H 0.5162 0.7334 0.6705
C28_2 C 0.3474(9) 0.7209(5) 0.6814(4)
H14_2 H 0.3658 0.7098 0.7150
C29_2 C 0.2289(8) 0.7235(5) 0.6605(4)
C30_2 C 0.1380(8) 0.7100(4) 0.6936(4)
C41_2 C 0.0437(10) 0.8242(6) 0.7889(5)
H23_2 H 0.1236 0.8246 0.7846
H24_2 H 0.0245 0.9266 0.7817
O12_2 O 0.0874(6) 0.7417(4) 0.5860(3)
O13_2 O 0.0258(6) 0.7041(4) 0.6772(3)
O14_2 O 0.1757(6) 0.7041(4) 0.7400(3)
O16_2 O 0.2384(8) 0.7137(4) 0.8415(3)
H41_2 H 0.1977 0.7076 0.8653
H42_2 H 0.2773 0.7508 0.8473
O17_2 O 0.0373(13) 0.6460(6) 0.8650(4)
H44_2 H 0.0669 0.6234 0.8904
N7_2 N 0.0556(8) 0.6187(5) 0.4264(4)
C46_2 C 0.7946(11) 0.0753(6) 0.7939(4)
H27_2 H 0.8360 0.1162 0.7926
C47_2 C 0.8574(9) 0.0135(5) 0.7926(5)
H28_2 H 0.9388 0.0141 0.7912
C50_2 C 0.6216(10) 0.0205(6) 0.7982(5)
H30_2 H 0.5407 0.0218 0.8009
C56_2 C 0.5479(11) 0.0523(5) 0.6500(4)
H35_2 H 0.5185 0.0693 0.6780
C60_2 C 0.5768(9) 0.0646(5) 0.5688(4)
H38_2 H 0.5671 0.0901 0.5395
C1_2 C 0.8387(9) 0.5911(6) 0.3357(4)
C2_2 C 0.7280(10) 0.4561(5) 0.3031(4)
C3_2 C 0.8171(8) 0.5718(5) 0.2822(4)
C4_2 C 0.8459(11) 0.6177(6) 0.2451(4)
H1_2 H 0.8812 0.6595 0.2547
C5_2 C 0.8235(13) 0.6021(6) 0.1976(4)
H2_2 H 0.8438 0.6334 0.1743
C6_2 C 0.7709(12) 0.5408(6) 0.1810(4)
H3_2 H 0.7562 0.5304 0.1471
C7_2 C 0.7409(10) 0.4957(5) 0.2165(4)
C8_2 C 0.7644(8) 0.5092(5) 0.2672(4)
C9_2 C 0.5963(9) 0.4302(5) 0.1626(4)
C10 C 0.4833(14) 0.4405(7) 0.1737(6)
H4 H 0.4706 0.4508 0.2061
C11 C 0.3889(14) 0.4353(8) 0.1356(6)
H5 H 0.3117 0.4414 0.1428
C12 C 0.4059(13) 0.4216(8) 0.0888(7)
H6 H 0.3413 0.4173 0.0636
C13_2 C 0.5246(10) 0.4137(6) 0.0779(5)
H7_2 H 0.5381 0.4068 0.0452
C14_2 C 0.6187(11) 0.4164(6) 0.1155(4)
C15_2 C 0.7426(9) 0.4071(5) 0.1019(4)
C16_2 C 0.9648(11) 0.7951(5) 0.5180(4)
C17_2 C 0.9221(11) 0.8547(6) 0.4926(4)
C18_2 C 0.9755(16) 0.9177(7) 0.5088(6)
H8_2 H 0.9486 0.9581 0.4926
C22_2 C 0.9114(9) 0.7242(5) 0.5013(4)
C23_2 C 0.8227(13) 0.8554(6) 0.4487(4)
C31_2 C 0.6147(11) 0.5649(6) 0.4150(5)
H15_2 H 0.6538 0.5250 0.4079
C32_2 C 0.4962(10) 0.5616(6) 0.4157(5)
H16_2 H 0.4565 0.5202 0.4087
C33_2 C 0.4322(9) 0.6192(6) 0.4266(4)
C34_2 C 0.4980(11) 0.6769(6) 0.4360(6)
H17_2 H 0.4598 0.7171 0.4434
C35_2 C 0.6219(10) 0.6784(6) 0.4350(5)
H18_2 H 0.6636 0.7191 0.4420
C36_2 C 0.1129(11) 0.6767(6) 0.4240(5)
H19_2 H 0.0704 0.7176 0.4216
C37_2 C 0.2385(12) 0.6786(6) 0.4250(6)
H20_2 H 0.2771 0.7205 0.4238
C38_2 C 0.3029(9) 0.6189(6) 0.4277(4)
C39_2 C 0.2377(10) 0.5569(6) 0.4287(4)
H21_2 H 0.2754 0.5146 0.4293
C40_2 C 0.1186(10) 0.5619(6) 0.4287(5)
H22_2 H 0.0771 0.5211 0.4305
C42_2 C 0.9847(10) 0.8862(5) 0.7872(5)
C43_2 C 0.8675(10) 0.8879(5) 0.7935(4)
C44_2 C 0.8117(10) 0.8248(5) 0.8013(5)
H25_2 H 0.7310 0.8227 0.8042
C45_2 C 0.8826(11) 0.7652(6) 0.8044(5)
H26_2 H 0.8482 0.7242 0.8125
C48_2 C 0.7994(10) 0.9533(5) 0.7935(4)
C49_2 C 0.6780(10) 0.9541(6) 0.7954(5)
H29_2 H 0.6343 0.9137 0.7950
C51_2 C 0.8630(12) 0.8227(6) 0.6476(5)
H31_2 H 0.9271 0.8150 0.6725
C52_2 C 0.8006(13) 0.8825(7) 0.6501(5)
H32_2 H 0.8231 0.9141 0.6754
C53_2 C 0.7043(11) 0.8945(6) 0.6144(4)
C54_2 C 0.6787(10) 0.8447(5) 0.5776(5)
H33_2 H 0.6161 0.8515 0.5520
C55_2 C 0.7433(10) 0.7871(6) 0.5787(4)
H34_2 H 0.7211 0.7536 0.5548
C57_2 C 0.5970(10) 0.9875(5) 0.6522(5)
H36_2 H 0.6002 0.9618 0.6813
C58_2 C 0.6415(11) 0.9607(6) 0.6115(5)
C59_2 C 0.6285(10) 0.9995(5) 0.5685(4)
H37_2 H 0.6539 0.9826 0.5396
N1_2 N 0.6802(7) 0.6224(5) 0.4241(4)
N3_2 N 0.9941(8) 0.7639(4) 0.7965(4)
N5_2 N 0.8400(8) 0.7757(4) 0.6134(4)
O1_2 O 0.8471(7) 0.6539(4) 0.3483(3)
O2_2 O 0.8495(6) 0.5466(4) 0.3688(2)
O3_2 O 0.6316(7) 0.4658(4) 0.3193(3)
O4_2 O 0.7969(8) 0.4052(4) 0.3134(3)
O5_2 O 0.6898(8) 0.4320(4) 0.2031(3)
O6 O 0.8050(6) 0.3639(4) 0.1285(3)
O7_2 O 0.7687(8) 0.4378(4) 0.0661(4)
O8_2 O 0.8488(9) 0.8724(4) 0.4077(3)
O9_2 O 0.7211(9) 0.8402(6) 0.4576(4)
O10_2 O 0.8883(6) 0.7147(4) 0.4555(3)
O11_2 O 0.9003(6) 0.6816(3) 0.5335(3)
O15_2 O 0.8782(7) 0.5526(4) 0.4820(3)
H39_2 H 0.9077 0.5347 0.5097
H40_2 H 0.8225 0.5265 0.4687
H43_2 H 0.9721 0.6276 0.8519
O18_2 O 0.9479(7) 0.6279(3) 0.7540(3)
H45_2 H 0.9016 0.6274 0.7767
H46_2 H 0.9432 0.6644 0.7388
Ni1_2 Ni 0.86610(10) 0.62136(6) 0.42468(5)
O19_2 O 0.8050(6) 0.6361(4) 0.6285(3)
N7_3 N 0.0556(8) 0.3813(5) 0.9264(4)
C16_3 C 0.9648(11) 0.2049(5) 0.0180(4)
C18_3 C 0.9755(16) 0.0823(7) 0.0088(6)
C22_3 C 0.9114(9) 0.2758(5) 0.0013(4)
C42_3 C 0.9847(10) 0.1138(5) 0.2872(5)
C43_3 C 0.8675(10) 0.1121(5) 0.2935(4)
C44_3 C 0.8117(10) 0.1752(5) 0.3013(5)
H25_3 H 0.7310 0.1773 0.3042
C45_3 C 0.8826(11) 0.2348(6) 0.3044(5)
H26_3 H 0.8482 0.2758 0.3125
C48_3 C 0.7994(10) 0.0467(5) 0.2935(4)
C49_3 C 0.6780(10) 0.0459(6) 0.2954(5)
H29_3 H 0.6343 0.0863 0.2950
C51_3 C 0.8630(12) 0.1773(6) 0.1476(5)
H31_3 H 0.9271 0.1850 0.1725
C52_3 C 0.8006(13) 0.1175(7) 0.1501(5)
H32_3 H 0.8231 0.0859 0.1754
C53_3 C 0.7043(11) 0.1055(6) 0.1144(4)
C54_3 C 0.6787(10) 0.1553(5) 0.0776(5)
H33_3 H 0.6161 0.1485 0.0520
C55_3 C 0.7433(10) 0.2129(6) 0.0787(4)
H34_3 H 0.7211 0.2464 0.0548
C57_3 C 0.5970(10) 0.0125(5) 0.1522(5)
H36_3 H 0.6002 0.0382 0.1813
C58_3 C 0.6415(11) 0.0393(6) 0.1115(5)
C59_3 C 0.6285(10) 0.0005(5) 0.0685(4)
H37_3 H 0.6539 0.0174 0.0396
N3_3 N 0.9941(8) 0.2361(4) 0.2965(4)
N5_3 N 0.8400(8) 0.2243(4) 0.1134(4)
O11_3 O 0.9003(6) 0.3184(3) 0.0335(3)
H39_3 H 0.9077 0.4653 0.0097
H43_3 H 0.9721 0.3724 0.3519
O18_3 O 0.9479(7) 0.3721(3) 0.2540(3)
H45_3 H 0.9016 0.3726 0.2767
H46_3 H 0.9432 0.3356 0.2388
C1_3 C 0.8387(9) 0.4089(6) 0.8357(4)
C2_3 C 0.7280(10) 0.5439(5) 0.8031(4)
C3_3 C 0.8171(8) 0.4282(5) 0.7822(4)
C4_3 C 0.8459(11) 0.3823(6) 0.7451(4)
H1_3 H 0.8812 0.3405 0.7547
C5_3 C 0.8235(13) 0.3979(6) 0.6976(4)
H2_3 H 0.8438 0.3666 0.6743
C6_3 C 0.7709(12) 0.4592(6) 0.6810(4)
H3_3 H 0.7562 0.4696 0.6471
C7_3 C 0.7409(10) 0.5043(5) 0.7165(4)
C8_3 C 0.7644(8) 0.4908(5) 0.7672(4)
C9_3 C 0.5963(9) 0.5698(5) 0.6626(4)
C10_2 C 0.4833(14) 0.5595(7) 0.6737(6)
H4_2 H 0.4706 0.5492 0.7061
C11_2 C 0.3889(14) 0.5647(8) 0.6356(6)
H5_2 H 0.3117 0.5586 0.6428
C12_2 C 0.4059(13) 0.5784(8) 0.5888(7)
H6_2 H 0.3413 0.5827 0.5636
C13_3 C 0.5246(10) 0.5863(6) 0.5779(5)
H7_3 H 0.5381 0.5932 0.5452
C14_3 C 0.6187(11) 0.5836(6) 0.6155(4)
C15_3 C 0.7426(9) 0.5929(5) 0.6019(4)
C17_3 C 0.9221(11) 0.1453(6) 0.9926(4)
H8_3 H 0.9486 0.0419 0.9926
C23_3 C 0.8227(13) 0.1446(6) 0.9487(4)
C31_3 C 0.6147(11) 0.4351(6) 0.9150(5)
H15_3 H 0.6538 0.4750 0.9079
C32_3 C 0.4962(10) 0.4384(6) 0.9157(5)
H16_3 H 0.4565 0.4798 0.9087
C33_3 C 0.4322(9) 0.3808(6) 0.9266(4)
C34_3 C 0.4980(11) 0.3231(6) 0.9360(6)
H17_3 H 0.4598 0.2829 0.9434
C35_3 C 0.6219(10) 0.3216(6) 0.9350(5)
H18_3 H 0.6636 0.2809 0.9420
C36_3 C 0.1129(11) 0.3233(6) 0.9240(5)
H19_3 H 0.0704 0.2824 0.9216
C37_3 C 0.2385(12) 0.3214(6) 0.9250(6)
H20_3 H 0.2771 0.2795 0.9238
C38_3 C 0.3029(9) 0.3811(6) 0.9277(4)
C39_3 C 0.2377(10) 0.4431(6) 0.9287(4)
H21_3 H 0.2754 0.4854 0.9293
C40_3 C 0.1186(10) 0.4381(6) 0.9287(5)
H22_3 H 0.0771 0.4789 0.9305
N1_3 N 0.6802(7) 0.3776(5) 0.9241(4)
O1_3 O 0.8471(7) 0.3461(4) 0.8483(3)
O2_3 O 0.8495(6) 0.4534(4) 0.8688(2)
O3_3 O 0.6316(7) 0.5342(4) 0.8193(3)
O4_3 O 0.7969(8) 0.5948(4) 0.8134(3)
O5_3 O 0.6898(8) 0.5680(4) 0.7031(3)
O7_3 O 0.7687(8) 0.5622(4) 0.5661(4)
O8_3 O 0.8488(9) 0.1276(4) 0.9077(3)
O9_3 O 0.7211(9) 0.1598(6) 0.9576(4)
O10_3 O 0.8883(6) 0.2853(4) 0.9555(3)
O15_3 O 0.8782(7) 0.4474(4) 0.9820(3)
H40_3 H 0.8225 0.4735 0.9687
Ni1_3 Ni 0.86610(10) 0.37864(6) 0.92468(5)
C2_4 C 0.2280(10) 0.9561(5) 0.3031(4)
C7_4 C 0.2409(10) 0.9957(5) 0.2165(4)
C9_4 C 0.0963(9) 0.9302(5) 0.1626(4)
C13_4 C 0.0246(10) 0.9137(6) 0.0779(5)
H7_4 H 0.0381 0.9068 0.0452
C14_4 C 0.1187(11) 0.9164(6) 0.1155(4)
C15_4 C 0.2426(9) 0.9071(5) 0.1019(4)
O3_4 O 0.1316(7) 0.9658(4) 0.3193(3)
O4_4 O 0.2969(8) 0.9052(4) 0.3134(3)
O5_4 O 0.1898(8) 0.9320(4) 0.2031(3)
O6_2 O 0.3050(6) 0.8639(4) 0.1285(3)
O7_4 O 0.2687(8) 0.9378(4) 0.0661(4)
Ni6 Ni 0.44457(10) 0.81504(6) 0.10804(5)
C16_4 C 0.4648(11) 0.7049(5) 0.0180(4)
C18_4 C 0.4755(16) 0.5823(7) 0.0088(6)
C19_3 C 0.5626(16) 0.5800(6) 0.0462(5)
H9_3 H 0.5968 0.5377 0.0554
C20_3 C 0.6053(12) 0.6368(6) 0.0724(5)
H10_3 H 0.6673 0.6342 0.0988
C21_3 C 0.5505(9) 0.6990(5) 0.0574(4)
C22_4 C 0.4114(9) 0.7758(5) 0.0013(4)
C24_3 C 0.7062(9) 0.7623(5) 0.1109(4)
C25_3 C 0.7956(11) 0.7502(7) 0.0821(5)
H11_3 H 0.7771 0.7407 0.0482
C26_3 C 0.9128(10) 0.7526(6) 0.1045(6)
H12_3 H 0.9744 0.7451 0.0858
C27_3 C 0.9377(9) 0.7662(6) 0.1549(5)
C28_3 C 0.8474(9) 0.7791(5) 0.1814(4)
H14_3 H 0.8658 0.7902 0.2150
C29_3 C 0.7289(8) 0.7765(5) 0.1605(4)
C30_3 C 0.6380(8) 0.7900(4) 0.1936(4)
C41_3 C 0.5437(10) 0.6758(6) 0.2889(5)
H23_3 H 0.6236 0.6754 0.2846
C42_4 C 0.4847(10) 0.6138(5) 0.2872(5)
H24_3 H 0.5245 0.5734 0.2817
C43_4 C 0.3675(10) 0.6121(5) 0.2935(4)
C44_4 C 0.3117(10) 0.6752(5) 0.3013(5)
H25_4 H 0.2310 0.6773 0.3042
C45_4 C 0.3826(11) 0.7348(6) 0.3044(5)
H26_4 H 0.3482 0.7758 0.3125
C46_3 C 0.2946(11) 0.4247(6) 0.2939(4)
H27_3 H 0.3360 0.3838 0.2926
C47_3 C 0.3574(9) 0.4865(5) 0.2926(5)
H28_3 H 0.4388 0.4859 0.2912
C48_4 C 0.2994(10) 0.5467(5) 0.2935(4)
C49_4 C 0.1780(10) 0.5459(6) 0.2954(5)
H29_4 H 0.1343 0.5863 0.2950
C50_3 C 0.1216(10) 0.4795(6) 0.2982(5)
H30_3 H 0.0407 0.4782 0.3009
C51_4 C 0.3630(12) 0.6773(6) 0.1476(5)
H31_4 H 0.4271 0.6850 0.1725
C52_4 C 0.3006(13) 0.6175(7) 0.1501(5)
H32_4 H 0.3231 0.5859 0.1754
C53_4 C 0.2043(11) 0.6055(6) 0.1144(4)
C54_4 C 0.1787(10) 0.6553(5) 0.0776(5)
H33_4 H 0.1161 0.6485 0.0520
C55_4 C 0.2433(10) 0.7129(6) 0.0787(4)
H34_4 H 0.2211 0.7464 0.0548
C56_3 C 0.0479(11) 0.4477(5) 0.1500(4)
H35_3 H 0.0185 0.4307 0.1780
C57_4 C 0.0970(10) 0.5125(5) 0.1522(5)
H36_4 H 0.1002 0.5382 0.1813
C58_4 C 0.1415(11) 0.5393(6) 0.1115(5)
C59_4 C 0.1285(10) 0.5005(5) 0.0685(4)
H37_4 H 0.1539 0.5174 0.0396
C60_3 C 0.0768(9) 0.4354(5) 0.0688(4)
H38_3 H 0.0671 0.4099 0.0395
N3_4 N 0.4941(8) 0.7361(4) 0.2965(4)
N4_2 N 0.1779(8) 0.4220(4) 0.2970(4)
N5_4 N 0.3400(8) 0.7243(4) 0.1134(4)
N6_2 N 0.0409(8) 0.4085(5) 0.1092(3)
O11_4 O 0.4003(6) 0.8184(3) 0.0335(3)
O12_3 O 0.5874(6) 0.7583(4) 0.0860(3)
O13_3 O 0.5258(6) 0.7959(4) 0.1772(3)
O14_3 O 0.6757(6) 0.7959(4) 0.2400(3)
H39_4 H 0.4077 0.9653 0.0097
O16_3 O 0.7384(8) 0.7863(4) 0.3415(3)
H41_3 H 0.6977 0.7924 0.3653
H42_3 H 0.7773 0.7492 0.3473
O17_3 O 0.5373(13) 0.8540(6) 0.3650(4)
H43_4 H 0.4721 0.8724 0.3519
H44_3 H 0.5669 0.8766 0.3904
O18_4 O 0.4479(7) 0.8721(3) 0.2540(3)
H45_4 H 0.4016 0.8726 0.2767
H46_4 H 0.4432 0.8356 0.2388
Ni3_2 Ni 0.59157(11) 0.82728(6) 0.29743(5)
N8_2 N 0.6779(8) 0.9220(4) 0.2970(4)
N9_2 N 0.5409(8) 0.9085(5) 0.1092(3)
Ni7_2 Ni 0.09157(11) 0.32728(6) 0.29743(5)
C19_4 C 0.0626(16) 0.0800(6) 0.0462(5)
H9_4 H 0.0968 0.0377 0.0554
C20_4 C 0.1053(12) 0.1368(6) 0.0724(5)
H10_4 H 0.1673 0.1342 0.0988
C21_4 C 0.0505(9) 0.1990(5) 0.0574(4)
C24_4 C 0.2062(9) 0.2623(5) 0.1109(4)
C25_4 C 0.2956(11) 0.2502(7) 0.0821(5)
H11_4 H 0.2771 0.2407 0.0482
C26_4 C 0.4128(10) 0.2526(6) 0.1045(6)
H12_4 H 0.4744 0.2451 0.0858
C27_4 C 0.4377(9) 0.2662(6) 0.1549(5)
H13_3 H 0.5162 0.2666 0.1705
C28_4 C 0.3474(9) 0.2791(5) 0.1814(4)
H14_4 H 0.3658 0.2902 0.2150
C29_4 C 0.2289(8) 0.2765(5) 0.1605(4)
C30_4 C 0.1380(8) 0.2900(4) 0.1936(4)
C41_4 C 0.0437(10) 0.1758(6) 0.2889(5)
H23_4 H 0.1236 0.1754 0.2846
H24_4 H 0.0245 0.0734 0.2817
O12_4 O 0.0874(6) 0.2583(4) 0.0860(3)
O13_4 O 0.0258(6) 0.2959(4) 0.1772(3)
O14_4 O 0.1757(6) 0.2959(4) 0.2400(3)
O16_4 O 0.2384(8) 0.2863(4) 0.3415(3)
H41_4 H 0.1977 0.2924 0.3653
H42_4 H 0.2773 0.2492 0.3473
O17_4 O 0.0373(13) 0.3540(6) 0.3650(4)
H44_4 H 0.0669 0.3766 0.3904
C46_4 C 0.7946(11) 0.9247(6) 0.2939(4)
H27_4 H 0.8360 0.8838 0.2926
C47_4 C 0.8574(9) 0.9865(5) 0.2926(5)
H28_4 H 0.9388 0.9859 0.2912
C50_4 C 0.6216(10) 0.9795(6) 0.2982(5)
H30_4 H 0.5407 0.9782 0.3009
C56_4 C 0.5479(11) 0.9477(5) 0.1500(4)
H35_4 H 0.5185 0.9307 0.1780
C60_4 C 0.5768(9) 0.9354(5) 0.0688(4)
H38_4 H 0.5671 0.9099 0.0395
C10_3 C 0.9833(14) 0.9405(7) 0.1737(6)
H4_3 H 0.9706 0.9508 0.2061
C11_3 C 0.8889(14) 0.9353(8) 0.1356(6)
H5_3 H 0.8117 0.9414 0.1428
C12_3 C 0.9059(13) 0.9216(8) 0.0888(7)
H6_3 H 0.8413 0.9173 0.0636
H13_4 H 0.0162 0.7666 0.1705
C1_4 C 0.3387(9) 0.9089(6) 0.8357(4)
C3_4 C 0.3171(8) 0.9282(5) 0.7822(4)
C4_4 C 0.3459(11) 0.8823(6) 0.7451(4)
H1_4 H 0.3812 0.8405 0.7547
C5_4 C 0.3235(13) 0.8979(6) 0.6976(4)
H2_4 H 0.3438 0.8666 0.6743
C6_4 C 0.2709(12) 0.9592(6) 0.6810(4)
H3_4 H 0.2562 0.9696 0.6471
C8_4 C 0.2644(8) 0.9908(5) 0.7672(4)
C17_4 C 0.4221(11) 0.6453(6) 0.9926(4)
H8_4 H 0.4486 0.5419 0.9926
C23_4 C 0.3227(13) 0.6446(6) 0.9487(4)
C31_4 C 0.1147(11) 0.9351(6) 0.9150(5)
H15_4 H 0.1538 0.9750 0.9079
C35_4 C 0.1219(10) 0.8216(6) 0.9350(5)
H18_4 H 0.1636 0.7809 0.9420
N1_4 N 0.1802(7) 0.8776(5) 0.9241(4)
O1_4 O 0.3471(7) 0.8461(4) 0.8483(3)
O2_4 O 0.3495(6) 0.9534(4) 0.8688(2)
O8_4 O 0.3488(9) 0.6276(4) 0.9077(3)
O9_4 O 0.2211(9) 0.6598(6) 0.9576(4)
O10_4 O 0.3883(6) 0.7853(4) 0.9555(3)
O15_4 O 0.3782(7) 0.9474(4) 0.9820(3)
H40_4 H 0.3225 0.9735 0.9687
Ni1_4 Ni 0.36610(10) 0.87864(6) 0.92468(5)
N7_4 N 0.5556(8) 0.8813(5) 0.9264(4)
C32_4 C 0.9962(10) 0.9384(6) 0.9157(5)
H16_4 H 0.9565 0.9798 0.9087
C33_4 C 0.9322(9) 0.8808(6) 0.9266(4)
C34_4 C 0.9980(11) 0.8231(6) 0.9360(6)
H17_4 H 0.9598 0.7829 0.9434
C36_4 C 0.6129(11) 0.8233(6) 0.9240(5)
H19_4 H 0.5704 0.7824 0.9216
C37_4 C 0.7385(12) 0.8214(6) 0.9250(6)
H20_4 H 0.7771 0.7795 0.9238
C38_4 C 0.8029(9) 0.8811(6) 0.9277(4)
C39_4 C 0.7377(10) 0.9431(6) 0.9287(4)
H21_4 H 0.7754 0.9854 0.9293
C40_4 C 0.6186(10) 0.9381(6) 0.9287(5)
H22_4 H 0.5771 0.9789 0.9305
C10_4 C 0.9833(14) 0.0595(7) 0.6737(6)
H4_4 H 0.9706 0.0492 0.7061
C11_4 C 0.8889(14) 0.0647(8) 0.6356(6)
H5_4 H 0.8117 0.0586 0.6428
C12_4 C 0.9059(13) 0.0784(8) 0.5888(7)
H6_4 H 0.8413 0.0827 0.5636
loop_
_geom_bond_atom_site_label_1
_geom_bond_atom_site_label_2
_geom_bond_site_symmetry_1
_geom_bond_site_symmetry_2
C1 C3 1_555 1_555
C3 C4 1_555 1_555
C4 H1 1_555 1_555
C5 C4 1_555 1_555
H2 C5 1_555 1_555
C6 C5 1_555 1_555
H3 C6 1_555 1_555
C8 C3 1_555 1_555
C16 C17 1_555 1_555
C17 C18 1_555 1_555
C18 H8 1_555 1_555
C19 C18 1_555 1_555
H9 C19 1_555 1_555
C20 C19 1_555 1_555
H10 C20 1_555 1_555
C21 C16 1_555 1_555
C22 C16 1_555 1_555
C23 C17 1_555 1_555
C24 C25 1_555 1_555
C25 H11 1_555 1_555
C26 C25 1_555 1_555
H12 C26 1_555 1_555
C27 C26 1_555 1_555
C28 C27 1_555 1_555
H14 C28 1_555 1_555
C29 C24 1_555 1_555
C30 C29 1_555 1_555
C31 H15 1_555 1_555
H18 C35 1_555 1_555
C41 H23 1_555 1_555
C42 C41 1_555 1_555
H24 C42 1_555 1_555
C43 C42 1_555 1_555
C44 C43 1_555 1_555
H25 C44 1_555 1_555
C45 C44 1_555 1_555
H26 C45 1_555 1_555
C46 H27 1_555 1_555
C47 C46 1_555 1_555
H28 C47 1_555 1_555
C48 C43 1_555 1_555
C49 C48 1_555 1_555
H29 C49 1_555 1_555
C50 C49 1_555 1_555
H30 C50 1_555 1_555
C51 H31 1_555 1_555
C52 C51 1_555 1_555
H32 C52 1_555 1_555
C53 C52 1_555 1_555
C54 C53 1_555 1_555
H33 C54 1_555 1_555
C55 C54 1_555 1_555
H34 C55 1_555 1_555
C56 H35 1_555 1_555
C57 C56 1_555 1_555
H36 C57 1_555 1_555
C58 C53 1_555 1_555
C59 C58 1_555 1_555
H37 C59 1_555 1_555
C60 C59 1_555 1_555
H38 C60 1_555 1_555
N1 C31 1_555 1_555
N3 C41 1_555 1_555
N4 C46 1_555 1_555
N5 C51 1_555 1_555
N6 C56 1_555 1_555
O1 C1 1_555 1_555
O2 C1 1_555 1_555
O8 C23 1_555 1_555
O9 C23 1_555 1_555
O10 C22 1_555 1_555
O11 C22 1_555 1_555
O12 C21 1_555 1_555
O13 C30 1_555 1_555
O14 C30 1_555 1_555
O15 H39 1_555 1_555
H40 O15 1_555 1_555
O16 H41 1_555 1_555
H42 O16 1_555 1_555
O17 H43 1_555 1_555
H44 O17 1_555 1_555
O18 H45 1_555 1_555
H46 O18 1_555 1_555
Ni1 N1 1_555 1_555
Ni2 N5 1_555 1_555
Ni3 N3 1_555 1_555
N7 Ni1 1_555 1_555
N8 Ni3 1_555 1_555
N9 Ni2 1_555 1_555
O19 Ni2 1_555 1_555
Ni7 N4 1_555 1_555
C20 C21 1_555 1_555
C24 O12 1_555 1_555
C28 C29 1_555 1_555
C35 N1 1_555 1_555
C45 N3 1_555 1_555
C47 C48 1_555 1_555
C50 N4 1_555 1_555
C55 N5 1_555 1_555
C57 C58 1_555 1_555
C60 N6 1_555 1_555
O1 Ni1 1_555 1_555
O2 Ni1 1_555 1_555
O10 Ni1 1_555 1_555
O11 Ni2 1_555 1_555
O12 Ni2 1_555 1_555
O13 Ni2 1_555 1_555
O14 Ni3 1_555 1_555
O15 Ni1 1_555 1_555
O16 Ni3 1_555 1_555
O17 Ni3 1_555 1_555
O18 Ni3 1_555 1_555
H16 C32 1_555 1_555
C33 C32 1_555 1_555
C34 C33 1_555 1_555
H17 C34 1_555 1_555
C36 H19 1_555 1_555
C37 C36 1_555 1_555
H20 C37 1_555 1_555
C38 C33 1_555 1_555
C39 C38 1_555 1_555
H21 C39 1_555 1_555
C40 C39 1_555 1_555
H22 C40 1_555 1_555
N7 C36 1_555 1_555
C37 C38 1_555 1_555
C40 N7 1_555 1_555
H7 C13 1_555 1_555
C14 C9 1_555 1_555
C15 C14 1_555 1_555
O3 C2 1_555 1_555
O4 C2 1_555 1_555
O5 C7 1_555 1_555
O19 C15 1_555 1_555
O7 C15 1_555 1_555
C9 O5 1_555 1_555
C13 C14 1_555 1_555
H9_2 C19_2 1_555 1_555
C20_2 C19_2 1_555 1_555
H10_2 C20_2 1_555 1_555
C24_2 C25_2 1_555 1_555
C25_2 H11_2 1_555 1_555
C26_2 C25_2 1_555 1_555
H12_2 C26_2 1_555 1_555
C27_2 C26_2 1_555 1_555
H13_2 C27_2 1_555 1_555
C28_2 C27_2 1_555 1_555
H14_2 C28_2 1_555 1_555
C29_2 C24_2 1_555 1_555
C30_2 C29_2 1_555 1_555
C41_2 H23_2 1_555 1_555
O12_2 C21_2 1_555 1_555
O13_2 C30_2 1_555 1_555
O14_2 C30_2 1_555 1_555
O16_2 H41_2 1_555 1_555
H42_2 O16_2 1_555 1_555
H44_2 O17_2 1_555 1_555
C20_2 C21_2 1_555 1_555
C24_2 O12_2 1_555 1_555
C28_2 C29_2 1_555 1_555
O14_2 Ni7 1_555 1_555
O16_2 Ni7 1_555 1_555
O17_2 Ni7 1_555 1_555
C46_2 H27_2 1_555 1_555
C47_2 C46_2 1_555 1_555
H28_2 C47_2 1_555 1_555
H30_2 C50_2 1_555 1_555
C56_2 H35_2 1_555 1_555
H38_2 C60_2 1_555 1_555
N8 C46_2 1_555 1_555
N9 C56_2 1_555 1_555
C50_2 N8 1_555 1_555
C60_2 N9 1_555 1_555
C1_2 C3_2 1_555 1_555
C2_2 C8_2 1_555 1_555
C3_2 C4_2 1_555 1_555
C4_2 H1_2 1_555 1_555
C5_2 C4_2 1_555 1_555
H2_2 C5_2 1_555 1_555
C6_2 C5_2 1_555 1_555
H3_2 C6_2 1_555 1_555
C7_2 C6_2 1_555 1_555
C8_2 C3_2 1_555 1_555
C9_2 C10 1_555 1_555
C10 H4 1_555 1_555
C11 C10 1_555 1_555
H5 C11 1_555 1_555
C12 C11 1_555 1_555
H6 C12 1_555 1_555
C13_2 C12 1_555 1_555
H7_2 C13_2 1_555 1_555
C14_2 C9_2 1_555 1_555
C15_2 C14_2 1_555 1_555
C16_2 C17_2 1_555 1_555
C17_2 C18_2 1_555 1_555
C18_2 H8_2 1_555 1_555
C22_2 C16_2 1_555 1_555
C23_2 C17_2 1_555 1_555
C31_2 H15_2 1_555 1_555
C32_2 C31_2 1_555 1_555
H16_2 C32_2 1_555 1_555
C33_2 C32_2 1_555 1_555
C34_2 C33_2 1_555 1_555
H17_2 C34_2 1_555 1_555
C35_2 C34_2 1_555 1_555
H18_2 C35_2 1_555 1_555
C36_2 H19_2 1_555 1_555
C37_2 C36_2 1_555 1_555
H20_2 C37_2 1_555 1_555
C38_2 C33_2 1_555 1_555
C39_2 C38_2 1_555 1_555
H21_2 C39_2 1_555 1_555
C40_2 C39_2 1_555 1_555
H22_2 C40_2 1_555 1_555
C43_2 C42_2 1_555 1_555
C44_2 C43_2 1_555 1_555
H25_2 C44_2 1_555 1_555
C45_2 C44_2 1_555 1_555
H26_2 C45_2 1_555 1_555
C48_2 C43_2 1_555 1_555
C49_2 C48_2 1_555 1_555
H29_2 C49_2 1_555 1_555
C51_2 H31_2 1_555 1_555
C52_2 C51_2 1_555 1_555
H32_2 C52_2 1_555 1_555
C53_2 C52_2 1_555 1_555
C54_2 C53_2 1_555 1_555
H33_2 C54_2 1_555 1_555
C55_2 C54_2 1_555 1_555
H34_2 C55_2 1_555 1_555
H36_2 C57_2 1_555 1_555
C58_2 C53_2 1_555 1_555
C59_2 C58_2 1_555 1_555
H37_2 C59_2 1_555 1_555
N1_2 C31_2 1_555 1_555
N7_2 C36_2 1_555 1_555
N5_2 C51_2 1_555 1_555
O1_2 C1_2 1_555 1_555
O2_2 C1_2 1_555 1_555
O3_2 C2_2 1_555 1_555
O4_2 C2_2 1_555 1_555
O5_2 C7_2 1_555 1_555
O6 C15_2 1_555 1_555
O7_2 C15_2 1_555 1_555
O8_2 C23_2 1_555 1_555
O9_2 C23_2 1_555 1_555
O10_2 C22_2 1_555 1_555
O11_2 C22_2 1_555 1_555
O15_2 H39_2 1_555 1_555
H40_2 O15_2 1_555 1_555
O18_2 H45_2 1_555 1_555
H46_2 O18_2 1_555 1_555
Ni1_2 N1_2 1_555 1_555
Ni5 N5_2 1_555 1_555
O19_2 Ni5 1_555 1_555
Ni5_2 O6 1_555 1_555
C7_2 C8_2 1_555 1_555
C9_2 O5_2 1_555 1_555
C13_2 C14_2 1_555 1_555
C35_2 N1_2 1_555 1_555
C37_2 C38_2 1_555 1_555
C40_2 N7_2 1_555 1_555
C45_2 N3_2 1_555 1_555
C55_2 N5_2 1_555 1_555
C57_2 C58_2 1_555 1_555
O1_2 Ni1_2 1_555 1_555
O2_2 Ni1_2 1_555 1_555
O10_2 Ni1_2 1_555 1_555
O11_2 Ni5 1_555 1_555
O15_2 Ni1_2 1_555 1_555
C22_3 C16_3 1_555 1_555
C43_3 C42_3 1_555 1_555
C44_3 C43_3 1_555 1_555
H25_3 C44_3 1_555 1_555
C45_3 C44_3 1_555 1_555
H26_3 C45_3 1_555 1_555
C48_3 C43_3 1_555 1_555
C49_3 C48_3 1_555 1_555
H29_3 C49_3 1_555 1_555
C51_3 H31_3 1_555 1_555
C52_3 C51_3 1_555 1_555
H32_3 C52_3 1_555 1_555
C53_3 C52_3 1_555 1_555
C54_3 C53_3 1_555 1_555
H33_3 C54_3 1_555 1_555
C55_3 C54_3 1_555 1_555
H34_3 C55_3 1_555 1_555
H36_3 C57_3 1_555 1_555
C58_3 C53_3 1_555 1_555
C59_3 C58_3 1_555 1_555
H37_3 C59_3 1_555 1_555
N5_3 C51_3 1_555 1_555
O11_3 C22_3 1_555 1_555
O18_3 H45_3 1_555 1_555
H46_3 O18_3 1_555 1_555
Ni5_2 N5_3 1_555 1_555
C45_3 N3_3 1_555 1_555
C55_3 N5_3 1_555 1_555
C57_3 C58_3 1_555 1_555
O11_3 Ni5_2 1_555 1_555
C1_3 C3_3 1_555 1_555
C2_3 C8_3 1_555 1_555
C3_3 C4_3 1_555 1_555
C4_3 H1_3 1_555 1_555
C5_3 C4_3 1_555 1_555
H2_3 C5_3 1_555 1_555
C6_3 C5_3 1_555 1_555
H3_3 C6_3 1_555 1_555
C7_3 C6_3 1_555 1_555
C8_3 C3_3 1_555 1_555
C9_3 C10_2 1_555 1_555
C10_2 H4_2 1_555 1_555
C11_2 C10_2 1_555 1_555
H5_2 C11_2 1_555 1_555
C12_2 C11_2 1_555 1_555
H6_2 C12_2 1_555 1_555
C13_3 C12_2 1_555 1_555
H7_3 C13_3 1_555 1_555
C14_3 C9_3 1_555 1_555
C15_3 C14_3 1_555 1_555
C23_3 C17_3 1_555 1_555
C31_3 H15_3 1_555 1_555
C32_3 C31_3 1_555 1_555
H16_3 C32_3 1_555 1_555
C33_3 C32_3 1_555 1_555
C34_3 C33_3 1_555 1_555
H17_3 C34_3 1_555 1_555
C35_3 C34_3 1_555 1_555
H18_3 C35_3 1_555 1_555
C36_3 H19_3 1_555 1_555
C37_3 C36_3 1_555 1_555
H20_3 C37_3 1_555 1_555
C38_3 C33_3 1_555 1_555
C39_3 C38_3 1_555 1_555
H21_3 C39_3 1_555 1_555
C40_3 C39_3 1_555 1_555
H22_3 C40_3 1_555 1_555
N1_3 C31_3 1_555 1_555
N7_3 C36_3 1_555 1_555
O1_3 C1_3 1_555 1_555
O2_3 C1_3 1_555 1_555
O3_3 C2_3 1_555 1_555
O4_3 C2_3 1_555 1_555
O5_3 C7_3 1_555 1_555
O19_2 C15_3 1_555 1_555
O7_3 C15_3 1_555 1_555
O8_3 C23_3 1_555 1_555
O9_3 C23_3 1_555 1_555
H40_3 O15_3 1_555 1_555
Ni1_3 N1_3 1_555 1_555
C7_3 C8_3 1_555 1_555
C9_3 O5_3 1_555 1_555
C13_3 C14_3 1_555 1_555
C35_3 N1_3 1_555 1_555
C37_3 C38_3 1_555 1_555
C40_3 N7_3 1_555 1_555
O1_3 Ni1_3 1_555 1_555
O2_3 Ni1_3 1_555 1_555
O10_3 Ni1_3 1_555 1_555
O15_3 Ni1_3 1_555 1_555
H7_4 C13_4 1_555 1_555
C14_4 C9_4 1_555 1_555
C15_4 C14_4 1_555 1_555
O3_4 C2_4 1_555 1_555
O4_4 C2_4 1_555 1_555
O5_4 C7_4 1_555 1_555
O6_2 C15_4 1_555 1_555
O7_4 C15_4 1_555 1_555
Ni6 O6_2 1_555 1_555
C9_4 O5_4 1_555 1_555
C13_4 C14_4 1_555 1_555
C19_3 C18_4 1_555 1_555
H9_3 C19_3 1_555 1_555
C20_3 C19_3 1_555 1_555
H10_3 C20_3 1_555 1_555
C21_3 C16_4 1_555 1_555
C22_4 C16_4 1_555 1_555
C24_3 C25_3 1_555 1_555
C25_3 H11_3 1_555 1_555
C26_3 C25_3 1_555 1_555
H12_3 C26_3 1_555 1_555
C27_3 C26_3 1_555 1_555
C28_3 C27_3 1_555 1_555
H14_3 C28_3 1_555 1_555
C29_3 C24_3 1_555 1_555
C30_3 C29_3 1_555 1_555
C41_3 H23_3 1_555 1_555
C42_4 C41_3 1_555 1_555
H24_3 C42_4 1_555 1_555
C43_4 C42_4 1_555 1_555
C44_4 C43_4 1_555 1_555
H25_4 C44_4 1_555 1_555
C45_4 C44_4 1_555 1_555
H26_4 C45_4 1_555 1_555
C46_3 H27_3 1_555 1_555
C47_3 C46_3 1_555 1_555
H28_3 C47_3 1_555 1_555
C48_4 C43_4 1_555 1_555
C49_4 C48_4 1_555 1_555
H29_4 C49_4 1_555 1_555
C50_3 C49_4 1_555 1_555
H30_3 C50_3 1_555 1_555
C51_4 H31_4 1_555 1_555
C52_4 C51_4 1_555 1_555
H32_4 C52_4 1_555 1_555
C53_4 C52_4 1_555 1_555
C54_4 C53_4 1_555 1_555
H33_4 C54_4 1_555 1_555
C55_4 C54_4 1_555 1_555
H34_4 C55_4 1_555 1_555
C56_3 H35_3 1_555 1_555
C57_4 C56_3 1_555 1_555
H36_4 C57_4 1_555 1_555
C58_4 C53_4 1_555 1_555
C59_4 C58_4 1_555 1_555
H37_4 C59_4 1_555 1_555
C60_3 C59_4 1_555 1_555
H38_3 C60_3 1_555 1_555
N3_4 C41_3 1_555 1_555
N4_2 C46_3 1_555 1_555
N5_4 C51_4 1_555 1_555
N6_2 C56_3 1_555 1_555
O11_4 C22_4 1_555 1_555
O12_3 C21_3 1_555 1_555
O13_3 C30_3 1_555 1_555
O14_3 C30_3 1_555 1_555
O16_3 H41_3 1_555 1_555
H42_3 O16_3 1_555 1_555
O17_3 H43_4 1_555 1_555
H44_3 O17_3 1_555 1_555
O18_4 H45_4 1_555 1_555
H46_4 O18_4 1_555 1_555
Ni6 N5_4 1_555 1_555
Ni3_2 N3_4 1_555 1_555
N8_2 Ni3_2 1_555 1_555
N9_2 Ni6 1_555 1_555
Ni7_2 N4_2 1_555 1_555
C20_3 C21_3 1_555 1_555
C24_3 O12_3 1_555 1_555
C28_3 C29_3 1_555 1_555
C45_4 N3_4 1_555 1_555
C47_3 C48_4 1_555 1_555
C50_3 N4_2 1_555 1_555
C55_4 N5_4 1_555 1_555
C57_4 C58_4 1_555 1_555
C60_3 N6_2 1_555 1_555
O11_4 Ni6 1_555 1_555
O12_3 Ni6 1_555 1_555
O13_3 Ni6 1_555 1_555
O14_3 Ni3_2 1_555 1_555
O16_3 Ni3_2 1_555 1_555
O17_3 Ni3_2 1_555 1_555
O18_4 Ni3_2 1_555 1_555
H9_4 C19_4 1_555 1_555
C20_4 C19_4 1_555 1_555
H10_4 C20_4 1_555 1_555
C24_4 C25_4 1_555 1_555
C25_4 H11_4 1_555 1_555
C26_4 C25_4 1_555 1_555
H12_4 C26_4 1_555 1_555
C27_4 C26_4 1_555 1_555
H13_3 C27_4 1_555 1_555
C28_4 C27_4 1_555 1_555
H14_4 C28_4 1_555 1_555
C29_4 C24_4 1_555 1_555
C30_4 C29_4 1_555 1_555
C41_4 H23_4 1_555 1_555
O12_4 C21_4 1_555 1_555
O13_4 C30_4 1_555 1_555
O14_4 C30_4 1_555 1_555
O16_4 H41_4 1_555 1_555
H42_4 O16_4 1_555 1_555
H44_4 O17_4 1_555 1_555
C20_4 C21_4 1_555 1_555
C24_4 O12_4 1_555 1_555
C28_4 C29_4 1_555 1_555
O14_4 Ni7_2 1_555 1_555
O16_4 Ni7_2 1_555 1_555
O17_4 Ni7_2 1_555 1_555
C46_4 H27_4 1_555 1_555
C47_4 C46_4 1_555 1_555
H28_4 C47_4 1_555 1_555
H30_4 C50_4 1_555 1_555
C56_4 H35_4 1_555 1_555
H38_4 C60_4 1_555 1_555
N8_2 C46_4 1_555 1_555
N9_2 C56_4 1_555 1_555
C50_4 N8_2 1_555 1_555
C60_4 N9_2 1_555 1_555
C10_3 H4_3 1_555 1_555
C11_3 C10_3 1_555 1_555
H5_3 C11_3 1_555 1_555
C12_3 C11_3 1_555 1_555
H6_3 C12_3 1_555 1_555
C1_4 C3_4 1_555 1_555
C3_4 C4_4 1_555 1_555
C4_4 H1_4 1_555 1_555
C5_4 C4_4 1_555 1_555
H2_4 C5_4 1_555 1_555
C6_4 C5_4 1_555 1_555
H3_4 C6_4 1_555 1_555
C8_4 C3_4 1_555 1_555
C23_4 C17_4 1_555 1_555
C31_4 H15_4 1_555 1_555
H18_4 C35_4 1_555 1_555
N1_4 C31_4 1_555 1_555
O1_4 C1_4 1_555 1_555
O2_4 C1_4 1_555 1_555
O8_4 C23_4 1_555 1_555
O9_4 C23_4 1_555 1_555
H40_4 O15_4 1_555 1_555
Ni1_4 N1_4 1_555 1_555
N7_4 Ni1_4 1_555 1_555
C35_4 N1_4 1_555 1_555
O1_4 Ni1_4 1_555 1_555
O2_4 Ni1_4 1_555 1_555
O10_4 Ni1_4 1_555 1_555
O15_4 Ni1_4 1_555 1_555
H16_4 C32_4 1_555 1_555
C33_4 C32_4 1_555 1_555
C34_4 C33_4 1_555 1_555
H17_4 C34_4 1_555 1_555
C36_4 H19_4 1_555 1_555
C37_4 C36_4 1_555 1_555
H20_4 C37_4 1_555 1_555
C38_4 C33_4 1_555 1_555
C39_4 C38_4 1_555 1_555
H21_4 C39_4 1_555 1_555
C40_4 C39_4 1_555 1_555
H22_4 C40_4 1_555 1_555
N7_4 C36_4 1_555 1_555
C37_4 C38_4 1_555 1_555
C40_4 N7_4 1_555 1_555
C10_4 H4_4 1_555 1_555
C11_4 C10_4 1_555 1_555
H5_4 C11_4 1_555 1_555
C12_4 C11_4 1_555 1_555
H6_4 C12_4 1_555 1_555

#END
