
###############################################################################
#
# This file contains modified crystal structure data generated from the
# MOF subset of the Cambridge Structural Database (CSD) v543 
# hosted by the Cambridge Crystallographic Data Centre (CCDC).
#
# This work is licensed under the Creative Commons
# Attribution-NonCommercial-ShareAlike 4.0 International License.
# To view a copy of this license, visit
# http://creativecommons.org/licenses/by-nc-sa/4.0/
# or send a letter to
# Creative Commons, PO Box 1866, Mountain View, CA 94042, USA.
#
# CIF created using the CSD Python API on 29 September 2022
# The structure has been converted into the P1 space group
# The structure has a 3D framework
# The original CSD entry NUWVEI is in the orthorhombic crystal system
# The framework has been calculated to contain at least 10.0% void space
# The void calculation uses a probe of radius 1.32A, grid spacing 0.4
#
###############################################################################

data_NUWVEI
_chemical_formula_moiety         '(C48 H44 N8 O8 Zn2)n'
_symmetry_cell_setting           triclinic
_symmetry_space_group_name_H-M   'P 1'
_symmetry_Int_Tables_number      1
_space_group_name_Hall           'P 1'
loop_
_symmetry_equiv_pos_site_id
_symmetry_equiv_pos_as_xyz
1 x,y,z
_cell_length_a                   11.2987(7)
_cell_length_b                   14.6667(9)
_cell_length_c                   8.2144(5)
_cell_angle_alpha                90
_cell_angle_beta                 90
_cell_angle_gamma                90
_cell_volume                     1361.25
loop_
_atom_site_label
_atom_site_type_symbol
_atom_site_fract_x
_atom_site_fract_y
_atom_site_fract_z
Zn3 Zn 0.0000 0.0000 0.95596(14)
N2 N 0.1946(4) 0.0260(3) 0.7279(6)
H1 H 0.1977 0.0828 0.7621
C11 C 0.3352(6) 0.0530(4) 0.4993(7)
H6 H 0.3021 0.1146 0.4902
H7 H 0.3454 0.0271 0.3903
H8 H 0.4121 0.0559 0.5543
O2 O 0.1737(3) 0.1679(2) 0.9327(5)
Zn3_2 Zn 0.0000 1.0000 0.95596(14)
O1 O 0.4424(3) 0.5922(2) 0.1071(5)
N1 N 0.1303(4) 0.9582(3) 0.8015(5)
C1 C 0.3682(4) 0.6553(3) 0.0695(6)
C2 C 0.3325(5) 0.7180(3) 0.2065(7)
C3 C 0.2477(7) 0.7840(5) 0.1775(7)
H2 H 0.2114 0.7876 0.0733
C4 C 0.2148(7) 0.8449(5) 0.2979(8)
H3 H 0.1585 0.8911 0.2744
C5 C 0.2634(4) 0.8391(3) 0.4530(8)
C6 C 0.3455(5) 0.7717(4) 0.4828(7)
H4 H 0.3789 0.7658 0.5884
C7 C 0.3800(5) 0.7122(4) 0.3593(7)
H5 H 0.4375 0.6666 0.3817
C8 C 0.2245(5) 0.9032(4) 0.5808(6)
C9 C 0.2523(6) 0.9940(4) 0.5961(6)
C10 C 0.1478(4) 0.8831(3) 0.7116(6)
C12 C 0.0944(5) 0.7936(3) 0.7527(7)
H9 H 0.0264 0.8030 0.8249
H10 H 0.1534 0.7555 0.8078
H11 H 0.0682 0.7633 0.6527
O3 O 0.5576(3) 0.4078(2) 0.1071(5)
N3 N 0.8697(4) 0.0418(3) 0.8015(5)
C13 C 0.6318(4) 0.3447(3) 0.0695(6)
C14 C 0.6675(5) 0.2820(3) 0.2065(7)
C15 C 0.7523(7) 0.2160(5) 0.1775(7)
H13 H 0.7886 0.2124 0.0733
C16 C 0.7852(7) 0.1551(5) 0.2979(8)
H14 H 0.8415 0.1089 0.2744
C17 C 0.7366(4) 0.1609(3) 0.4530(8)
C18 C 0.6545(5) 0.2283(4) 0.4828(7)
H15 H 0.6211 0.2342 0.5884
C19 C 0.6200(5) 0.2878(4) 0.3593(7)
H16 H 0.5625 0.3334 0.3817
C20 C 0.7755(5) 0.0968(4) 0.5808(6)
C21 C 0.7477(6) 0.0060(4) 0.5961(6)
C22 C 0.8522(4) 0.1169(3) 0.7116(6)
C24 C 0.9056(5) 0.2064(3) 0.7527(7)
H20 H 0.9736 0.1970 0.8249
H21 H 0.8466 0.2445 0.8078
H22 H 0.9318 0.2367 0.6527
Zn3_3 Zn 1.0000 0.0000 0.95596(14)
Zn1 Zn 0.5000 0.5000 0.95596(14)
O2_2 O 0.3263(3) 0.6679(2) 0.9327(5)
O4 O 0.6737(3) 0.3321(2) 0.9327(5)
N5 N 0.3697(4) 0.4582(3) 0.8015(5)
N6 N 0.6303(4) 0.5418(3) 0.8015(5)
O1_2 O 0.0576(3) 0.0922(2) 0.1071(5)
N2_2 N 0.3054(4) 0.5260(3) 0.7279(6)
H1_2 H 0.3023 0.5828 0.7621
C1_2 C 0.1318(4) 0.1553(3) 0.0695(6)
C2_2 C 0.1675(5) 0.2180(3) 0.2065(7)
C3_2 C 0.2523(7) 0.2840(5) 0.1775(7)
H2_2 H 0.2886 0.2876 0.0733
C4_2 C 0.2852(7) 0.3449(5) 0.2979(8)
H3_2 H 0.3415 0.3911 0.2744
C5_2 C 0.2366(4) 0.3391(3) 0.4530(8)
C6_2 C 0.1545(5) 0.2717(4) 0.4828(7)
H4_2 H 0.1211 0.2658 0.5884
C7_2 C 0.1200(5) 0.2122(4) 0.3593(7)
H5_2 H 0.0625 0.1666 0.3817
C8_2 C 0.2755(5) 0.4032(4) 0.5808(6)
C9_2 C 0.2477(6) 0.4940(4) 0.5961(6)
C10_2 C 0.3522(4) 0.3831(3) 0.7116(6)
C11_2 C 0.1648(6) 0.5530(4) 0.4993(7)
H6_2 H 0.1979 0.6146 0.4902
H7_2 H 0.1546 0.5271 0.3903
H8_2 H 0.0879 0.5559 0.5543
C12_2 C 0.4056(5) 0.2936(3) 0.7527(7)
H9_2 H 0.4736 0.3030 0.8249
H10_2 H 0.3466 0.2555 0.8078
H11_2 H 0.4318 0.2633 0.6527
O3_2 O 0.9424(3) 0.9078(2) 0.1071(5)
N4 N 0.6946(4) 0.4740(3) 0.7279(6)
H12 H 0.6977 0.4172 0.7621
C13_2 C 0.8682(4) 0.8447(3) 0.0695(6)
C14_2 C 0.8325(5) 0.7820(3) 0.2065(7)
C15_2 C 0.7477(7) 0.7160(5) 0.1775(7)
H13_2 H 0.7114 0.7124 0.0733
C16_2 C 0.7148(7) 0.6551(5) 0.2979(8)
H14_2 H 0.6585 0.6089 0.2744
C17_2 C 0.7634(4) 0.6609(3) 0.4530(8)
C18_2 C 0.8455(5) 0.7283(4) 0.4828(7)
H15_2 H 0.8789 0.7342 0.5884
C19_2 C 0.8800(5) 0.7878(4) 0.3593(7)
H16_2 H 0.9375 0.8334 0.3817
C20_2 C 0.7245(5) 0.5968(4) 0.5808(6)
C21_2 C 0.7523(6) 0.5060(4) 0.5961(6)
C22_2 C 0.6478(4) 0.6169(3) 0.7116(6)
C23 C 0.8352(6) 0.4470(4) 0.4993(7)
H17 H 0.8021 0.3854 0.4902
H18 H 0.8454 0.4729 0.3903
H19 H 0.9121 0.4441 0.5543
C24_2 C 0.5944(5) 0.7064(3) 0.7527(7)
H20_2 H 0.5264 0.6970 0.8249
H21_2 H 0.6534 0.7445 0.8078
H22_2 H 0.5682 0.7367 0.6527
N4_2 N 0.8054(4) 0.9740(3) 0.7279(6)
H12_2 H 0.8023 0.9172 0.7621
C23_2 C 0.6648(6) 0.9470(4) 0.4993(7)
H17_2 H 0.6979 0.8854 0.4902
H18_2 H 0.6546 0.9729 0.3903
H19_2 H 0.5879 0.9441 0.5543
Zn3_4 Zn 1.0000 1.0000 0.95596(14)
O4_2 O 0.8263(3) 0.8321(2) 0.9327(5)
loop_
_geom_bond_atom_site_label_1
_geom_bond_atom_site_label_2
_geom_bond_site_symmetry_1
_geom_bond_site_symmetry_2
N2 H1 1_555 1_555
H6 C11 1_555 1_555
H7 C11 1_555 1_555
H8 C11 1_555 1_555
O1 C1 1_555 1_555
C1 C2 1_555 1_555
C2 C3 1_555 1_555
C3 H2 1_555 1_555
C4 C3 1_555 1_555
H3 C4 1_555 1_555
C5 C4 1_555 1_555
C6 C5 1_555 1_555
H4 C6 1_555 1_555
C7 C2 1_555 1_555
H5 C7 1_555 1_555
C8 C5 1_555 1_555
C10 N1 1_555 1_555
C12 C10 1_555 1_555
H9 C12 1_555 1_555
H10 C12 1_555 1_555
H11 C12 1_555 1_555
C13 O3 1_555 1_555
C14 C13 1_555 1_555
C15 C14 1_555 1_555
H13 C15 1_555 1_555
C16 C15 1_555 1_555
H14 C16 1_555 1_555
C17 C16 1_555 1_555
C18 C17 1_555 1_555
H15 C18 1_555 1_555
C19 C14 1_555 1_555
H16 C19 1_555 1_555
C20 C17 1_555 1_555
C22 N3 1_555 1_555
C24 C22 1_555 1_555
H20 C24 1_555 1_555
H21 C24 1_555 1_555
H22 C24 1_555 1_555
Zn3_2 N1 1_555 1_555
Zn3_3 N3 1_555 1_555
C6 C7 1_555 1_555
C8 C9 1_555 1_555
C8 C10 1_555 1_555
C18 C19 1_555 1_555
C20 C21 1_555 1_555
C20 C22 1_555 1_555
N5 Zn1 1_555 1_555
N6 Zn1 1_555 1_555
O1_2 C1_2 1_555 1_555
N5 N2_2 1_555 1_555
N2_2 H1_2 1_555 1_555
C1_2 C2_2 1_555 1_555
C2_2 C3_2 1_555 1_555
C3_2 H2_2 1_555 1_555
C4_2 C3_2 1_555 1_555
H3_2 C4_2 1_555 1_555
C5_2 C4_2 1_555 1_555
C6_2 C5_2 1_555 1_555
H4_2 C6_2 1_555 1_555
C7_2 C2_2 1_555 1_555
H5_2 C7_2 1_555 1_555
C8_2 C5_2 1_555 1_555
C9_2 N2_2 1_555 1_555
C10_2 N5 1_555 1_555
C11_2 C9_2 1_555 1_555
H6_2 C11_2 1_555 1_555
H7_2 C11_2 1_555 1_555
H8_2 C11_2 1_555 1_555
C12_2 C10_2 1_555 1_555
H9_2 C12_2 1_555 1_555
H10_2 C12_2 1_555 1_555
H11_2 C12_2 1_555 1_555
C6_2 C7_2 1_555 1_555
C8_2 C9_2 1_555 1_555
C8_2 C10_2 1_555 1_555
N6 N4 1_555 1_555
N4 H12 1_555 1_555
C13_2 O3_2 1_555 1_555
C14_2 C13_2 1_555 1_555
C15_2 C14_2 1_555 1_555
H13_2 C15_2 1_555 1_555
C16_2 C15_2 1_555 1_555
H14_2 C16_2 1_555 1_555
C17_2 C16_2 1_555 1_555
C18_2 C17_2 1_555 1_555
H15_2 C18_2 1_555 1_555
C19_2 C14_2 1_555 1_555
H16_2 C19_2 1_555 1_555
C20_2 C17_2 1_555 1_555
C21_2 N4 1_555 1_555
C22_2 N6 1_555 1_555
C23 C21_2 1_555 1_555
H17 C23 1_555 1_555
H18 C23 1_555 1_555
H19 C23 1_555 1_555
C24_2 C22_2 1_555 1_555
H20_2 C24_2 1_555 1_555
H21_2 C24_2 1_555 1_555
H22_2 C24_2 1_555 1_555
C18_2 C19_2 1_555 1_555
C20_2 C21_2 1_555 1_555
C20_2 C22_2 1_555 1_555
N4_2 H12_2 1_555 1_555
H17_2 C23_2 1_555 1_555
H18_2 C23_2 1_555 1_555
H19_2 C23_2 1_555 1_555

#END
