
###############################################################################
#
# This file contains modified crystal structure data generated from the
# MOF subset of the Cambridge Structural Database (CSD) v543 
# hosted by the Cambridge Crystallographic Data Centre (CCDC).
#
# This work is licensed under the Creative Commons
# Attribution-NonCommercial-ShareAlike 4.0 International License.
# To view a copy of this license, visit
# http://creativecommons.org/licenses/by-nc-sa/4.0/
# or send a letter to
# Creative Commons, PO Box 1866, Mountain View, CA 94042, USA.
#
# CIF created using the CSD Python API on 29 September 2022
# The structure has been converted into the P1 space group
# The structure has a 3D framework
# The original CSD entry NUWVIM is in the orthorhombic crystal system
# The framework has been calculated to contain at least 10.0% void space
# The void calculation uses a probe of radius 1.32A, grid spacing 0.4
#
###############################################################################

data_NUWVIM
_chemical_formula_moiety         '(C768 H704 N128 O128 Zn38)n'
_symmetry_cell_setting           triclinic
_symmetry_space_group_name_H-M   'P 1'
_symmetry_Int_Tables_number      1
_space_group_name_Hall           'P 1'
loop_
_symmetry_equiv_pos_site_id
_symmetry_equiv_pos_as_xyz
1 x,y,z
_cell_length_a                   22.694(2)
_cell_length_b                   29.694(3)
_cell_length_c                   33.408(3)
_cell_angle_alpha                90
_cell_angle_beta                 90
_cell_angle_gamma                90
_cell_volume                     22512.8
loop_
_atom_site_label
_atom_site_type_symbol
_atom_site_fract_x
_atom_site_fract_y
_atom_site_fract_z
Zn2 Zn 0.7500 0.2500 0.01288(5)
Zn1 Zn 0.5000 0.0000 0.76288(5)
O1 O 0.5392(3) 0.0403(2) 0.7994(2)
O2 O 0.6072(4) 0.0712(3) 0.7586(2)
N1 N 0.6927(4) 0.2217(3) 0.9732(3)
N2 N 0.6536(4) 0.2501(3) 0.9554(3)
H1 H 0.6461 0.2773 0.9645
C1 C 0.5827(5) 0.0669(4) 0.7913(4)
C2 C 0.6026(4) 0.0972(3) 0.8261(3)
C3 C 0.6365(4) 0.1345(4) 0.8175(3)
H2 H 0.6499 0.1393 0.7909
C4 C 0.6513(4) 0.1649(4) 0.8469(3)
H3 H 0.6724 0.1914 0.8399
C5 C 0.6358(4) 0.1576(3) 0.8863(3)
C6 C 0.6043(5) 0.1194(3) 0.8948(4)
H4 H 0.5944 0.1125 0.9217
C7 C 0.5863(5) 0.0903(4) 0.8639(3)
H5 H 0.5621 0.0651 0.8701
C8 C 0.6501(4) 0.1906(4) 0.9193(4)
C9 C 0.6911(5) 0.1847(3) 0.9494(3)
C10 C 0.6281(5) 0.2334(3) 0.9234(3)
C11 C 0.7282(5) 0.1454(3) 0.9594(4)
H6 H 0.7499 0.1515 0.9842
H7 H 0.7561 0.1399 0.9376
H8 H 0.7031 0.1189 0.9631
C12 C 0.5819(7) 0.2593(4) 0.8992(5)
H9 H 0.5927 0.2913 0.8983
H10 H 0.5433 0.2561 0.9120
H11 H 0.5802 0.2473 0.8720
N6 N 0.4427(4) 0.0283(3) 0.7232(3)
Zn3 Zn 0.2500 0.7500 0.01288(5)
Zn1_2 Zn 0.5000 1.0000 0.76288(5)
O3 O 0.4608(3) 0.9597(2) 0.7994(2)
O4 O 0.3928(4) 0.9288(3) 0.7586(2)
N3 N 0.3073(4) 0.7783(3) 0.9732(3)
N4 N 0.3464(4) 0.7499(3) 0.9554(3)
H12 H 0.3539 0.7227 0.9645
C13 C 0.4173(5) 0.9331(4) 0.7913(4)
C14 C 0.3974(4) 0.9028(3) 0.8261(3)
C15 C 0.3635(4) 0.8655(4) 0.8175(3)
H13 H 0.3501 0.8607 0.7909
C16 C 0.3487(4) 0.8351(4) 0.8469(3)
H14 H 0.3276 0.8086 0.8399
C17 C 0.3642(4) 0.8424(3) 0.8863(3)
C18 C 0.3957(5) 0.8806(3) 0.8948(4)
H15 H 0.4056 0.8875 0.9217
C19 C 0.4137(5) 0.9097(4) 0.8639(3)
H16 H 0.4379 0.9349 0.8701
C20 C 0.3499(4) 0.8094(4) 0.9193(4)
C21 C 0.3089(5) 0.8153(3) 0.9494(3)
C22 C 0.3719(5) 0.7666(3) 0.9234(3)
C23 C 0.2718(5) 0.8546(3) 0.9594(4)
H17 H 0.2501 0.8485 0.9842
H18 H 0.2439 0.8601 0.9376
H19 H 0.2969 0.8811 0.9631
C24 C 0.4181(7) 0.7407(4) 0.8992(5)
H20 H 0.4073 0.7087 0.8983
H21 H 0.4567 0.7439 0.9120
H22 H 0.4198 0.7527 0.8720
N5 N 0.5573(4) 0.9717(3) 0.7232(3)
H7_2 H 0.0061 0.1101 0.1876
Zn2_2 Zn -0.0000 -0.0000 0.26288(5)
Zn2_3 Zn -0.0000 1.0000 0.26288(5)
O1_2 O 0.7892(3) 0.2097(2) 0.0494(2)
O2_2 O 0.8572(4) 0.1788(3) 0.0086(2)
N1_2 N 0.9427(4) 0.0283(3) 0.2232(3)
C1_2 C 0.8327(5) 0.1831(4) 0.0413(4)
C2_2 C 0.8526(4) 0.1528(3) 0.0761(3)
C3_2 C 0.8865(4) 0.1155(4) 0.0675(3)
H2_2 H 0.8999 0.1107 0.0409
C4_2 C 0.9013(4) 0.0851(4) 0.0969(3)
H3_2 H 0.9224 0.0586 0.0899
C5_2 C 0.8858(4) 0.0924(3) 0.1363(3)
C6_2 C 0.8543(5) 0.1306(3) 0.1448(4)
H4_2 H 0.8444 0.1375 0.1717
C7_2 C 0.8363(5) 0.1597(4) 0.1139(3)
H5_2 H 0.8121 0.1849 0.1201
C8_2 C 0.9001(4) 0.0594(4) 0.1693(4)
C9_2 C 0.9411(5) 0.0653(3) 0.1994(3)
C10_2 C 0.8781(5) 0.0166(3) 0.1734(3)
C11_2 C 0.9782(5) 0.1046(3) 0.2094(4)
H6_2 H 0.9999 0.0985 0.2342
H8_2 H 0.9531 0.1311 0.2131
H11_2 H 0.8302 0.0027 0.1220
O3_2 O 0.7108(3) 0.2903(2) 0.0494(2)
O4_2 O 0.6428(4) 0.3212(3) 0.0086(2)
N3_2 N 0.5573(4) 0.4717(3) 0.2232(3)
N4_2 N 0.5964(4) 0.5001(3) 0.2054(3)
H12_2 H 0.6039 0.5273 0.2145
C13_2 C 0.6673(5) 0.3169(4) 0.0413(4)
C14_2 C 0.6474(4) 0.3472(3) 0.0761(3)
C15_2 C 0.6135(4) 0.3845(4) 0.0675(3)
H13_2 H 0.6001 0.3893 0.0409
C16_2 C 0.5987(4) 0.4149(4) 0.0969(3)
H14_2 H 0.5776 0.4414 0.0899
C17_2 C 0.6142(4) 0.4076(3) 0.1363(3)
C18_2 C 0.6457(5) 0.3694(3) 0.1448(4)
H15_2 H 0.6556 0.3625 0.1717
C19_2 C 0.6637(5) 0.3403(4) 0.1139(3)
H16_2 H 0.6879 0.3151 0.1201
C20_2 C 0.5999(4) 0.4406(4) 0.1693(4)
C21_2 C 0.5589(5) 0.4347(3) 0.1994(3)
C22_2 C 0.6219(5) 0.4834(3) 0.1734(3)
C23_2 C 0.5218(5) 0.3954(3) 0.2094(4)
H17_2 H 0.5001 0.4015 0.2342
H18_2 H 0.4939 0.3899 0.1876
H19_2 H 0.5469 0.3689 0.2131
C24_2 C 0.6681(7) 0.5093(4) 0.1492(5)
H20_2 H 0.6573 0.5413 0.1483
H21_2 H 0.7067 0.5061 0.1620
H22_2 H 0.6698 0.4973 0.1220
Zn2_4 Zn 1.0000 -0.0000 0.26288(5)
Zn3_2 Zn 0.5000 0.5000 0.26288(5)
N5_2 N 0.8073(4) 0.2783(3) 0.9732(3)
N2_2 N 0.9036(4) 0.9999(3) 0.2054(3)
H1_2 H 0.8961 0.9727 0.2145
C12_2 C 0.8319(7) 0.9907(4) 0.1492(5)
H9_2 H 0.8427 0.9587 0.1483
H10_2 H 0.7933 0.9939 0.1620
Zn2_5 Zn 1.0000 1.0000 0.26288(5)
O1_3 O 0.5392(3) 0.5403(2) 0.2994(2)
O2_3 O 0.6072(4) 0.5712(3) 0.2586(2)
N1_3 N 0.6927(4) 0.7217(3) 0.4732(3)
N2_3 N 0.6536(4) 0.7501(3) 0.4554(3)
H1_3 H 0.6461 0.7773 0.4645
C1_3 C 0.5827(5) 0.5669(4) 0.2913(4)
C2_3 C 0.6026(4) 0.5972(3) 0.3261(3)
C3_3 C 0.6365(4) 0.6345(4) 0.3175(3)
H2_3 H 0.6499 0.6393 0.2909
C4_3 C 0.6513(4) 0.6649(4) 0.3469(3)
H3_3 H 0.6724 0.6914 0.3399
C5_3 C 0.6358(4) 0.6576(3) 0.3863(3)
C6_3 C 0.6043(5) 0.6194(3) 0.3948(4)
H4_3 H 0.5944 0.6125 0.4217
C7_3 C 0.5863(5) 0.5903(4) 0.3639(3)
H5_3 H 0.5621 0.5651 0.3701
C8_3 C 0.6501(4) 0.6906(4) 0.4193(4)
C9_3 C 0.6911(5) 0.6847(3) 0.4494(3)
C10_3 C 0.6281(5) 0.7334(3) 0.4234(3)
C11_3 C 0.7282(5) 0.6454(3) 0.4594(4)
H6_3 H 0.7499 0.6515 0.4842
H7_3 H 0.7561 0.6399 0.4376
H8_3 H 0.7031 0.6189 0.4631
C12_3 C 0.5819(7) 0.7593(4) 0.3992(5)
H9_3 H 0.5927 0.7913 0.3983
H10_3 H 0.5433 0.7561 0.4120
H11_3 H 0.5802 0.7473 0.3720
O3_3 O 0.4608(3) 0.4597(2) 0.2994(2)
O4_3 O 0.3928(4) 0.4288(3) 0.2586(2)
N3_3 N 0.3073(4) 0.2783(3) 0.4732(3)
N4_3 N 0.3464(4) 0.2499(3) 0.4554(3)
H12_3 H 0.3539 0.2227 0.4645
C13_3 C 0.4173(5) 0.4331(4) 0.2913(4)
C14_3 C 0.3974(4) 0.4028(3) 0.3261(3)
C15_3 C 0.3635(4) 0.3655(4) 0.3175(3)
H13_3 H 0.3501 0.3607 0.2909
C16_3 C 0.3487(4) 0.3351(4) 0.3469(3)
H14_3 H 0.3276 0.3086 0.3399
C17_3 C 0.3642(4) 0.3424(3) 0.3863(3)
C18_3 C 0.3957(5) 0.3806(3) 0.3948(4)
H15_3 H 0.4056 0.3875 0.4217
C19_3 C 0.4137(5) 0.4097(4) 0.3639(3)
H16_3 H 0.4379 0.4349 0.3701
C20_3 C 0.3499(4) 0.3094(4) 0.4193(4)
C21_3 C 0.3089(5) 0.3153(3) 0.4494(3)
C22_3 C 0.3719(5) 0.2666(3) 0.4234(3)
C23_3 C 0.2718(5) 0.3546(3) 0.4594(4)
H17_3 H 0.2501 0.3485 0.4842
H18_3 H 0.2439 0.3601 0.4376
H19_3 H 0.2969 0.3811 0.4631
C24_3 C 0.4181(7) 0.2407(4) 0.3992(5)
H20_3 H 0.4073 0.2087 0.3983
H21_3 H 0.4567 0.2439 0.4120
H22_3 H 0.4198 0.2527 0.3720
Zn2_6 Zn 0.7500 0.7500 0.51288(5)
Zn3_3 Zn 0.2500 0.2500 0.51288(5)
N6_2 N 0.4427(4) 0.5283(3) 0.2232(3)
H7_4 H 0.0061 0.6101 0.6876
Zn2_7 Zn 0.0000 0.5000 0.76288(5)
N4_4 N 0.5964(4) 0.0001(3) 0.7054(3)
H12_4 H 0.6039 0.0273 0.7145
C24_4 C 0.6681(7) 0.0093(4) 0.6492(5)
H20_4 H 0.6573 0.0413 0.6483
H21_4 H 0.7067 0.0061 0.6620
O1_4 O 0.7892(3) 0.7097(2) 0.5494(2)
O2_4 O 0.8572(4) 0.6788(3) 0.5086(2)
N1_4 N 0.9427(4) 0.5283(3) 0.7232(3)
N2_4 N 0.9036(4) 0.4999(3) 0.7054(3)
H1_4 H 0.8961 0.4727 0.7145
C1_4 C 0.8327(5) 0.6831(4) 0.5413(4)
C2_4 C 0.8526(4) 0.6528(3) 0.5761(3)
C3_4 C 0.8865(4) 0.6155(4) 0.5675(3)
H2_4 H 0.8999 0.6107 0.5409
C4_4 C 0.9013(4) 0.5851(4) 0.5969(3)
H3_4 H 0.9224 0.5586 0.5899
C5_4 C 0.8858(4) 0.5924(3) 0.6363(3)
C6_4 C 0.8543(5) 0.6306(3) 0.6448(4)
H4_4 H 0.8444 0.6375 0.6717
C7_4 C 0.8363(5) 0.6597(4) 0.6139(3)
H5_4 H 0.8121 0.6849 0.6201
C8_4 C 0.9001(4) 0.5594(4) 0.6693(4)
C9_4 C 0.9411(5) 0.5653(3) 0.6994(3)
C10_4 C 0.8781(5) 0.5166(3) 0.6734(3)
C11_4 C 0.9782(5) 0.6046(3) 0.7094(4)
H6_4 H 0.9999 0.5985 0.7342
H8_4 H 0.9531 0.6311 0.7131
C12_4 C 0.8319(7) 0.4907(4) 0.6492(5)
H9_4 H 0.8427 0.4587 0.6483
H10_4 H 0.7933 0.4939 0.6620
H11_4 H 0.8302 0.5027 0.6220
O3_4 O 0.7108(3) 0.7903(2) 0.5494(2)
O4_4 O 0.6428(4) 0.8212(3) 0.5086(2)
C13_4 C 0.6673(5) 0.8169(4) 0.5413(4)
C14_4 C 0.6474(4) 0.8472(3) 0.5761(3)
C15_4 C 0.6135(4) 0.8845(4) 0.5675(3)
H13_4 H 0.6001 0.8893 0.5409
C16_4 C 0.5987(4) 0.9149(4) 0.5969(3)
H14_4 H 0.5776 0.9414 0.5899
C17_4 C 0.6142(4) 0.9076(3) 0.6363(3)
C18_4 C 0.6457(5) 0.8694(3) 0.6448(4)
H15_4 H 0.6556 0.8625 0.6717
C19_4 C 0.6637(5) 0.8403(4) 0.6139(3)
H16_4 H 0.6879 0.8151 0.6201
C20_4 C 0.5999(4) 0.9406(4) 0.6693(4)
C21_4 C 0.5589(5) 0.9347(3) 0.6994(3)
C22_4 C 0.6219(5) 0.9834(3) 0.6734(3)
C23_4 C 0.5218(5) 0.8954(3) 0.7094(4)
H17_4 H 0.5001 0.9015 0.7342
H18_4 H 0.4939 0.8899 0.6876
H19_4 H 0.5469 0.8689 0.7131
H22_4 H 0.6698 0.9973 0.6220
Zn2_8 Zn 1.0000 0.5000 0.76288(5)
N5_3 N 0.8073(4) 0.7783(3) 0.4732(3)
O1_5 O 0.0392(3) 0.0403(2) 0.2994(2)
O2_5 O 0.1072(4) 0.0712(3) 0.2586(2)
N1_5 N 0.1927(4) 0.2217(3) 0.4732(3)
N2_5 N 0.1536(4) 0.2501(3) 0.4554(3)
H1_5 H 0.1461 0.2773 0.4645
C1_5 C 0.0827(5) 0.0669(4) 0.2913(4)
C2_5 C 0.1026(4) 0.0972(3) 0.3261(3)
C3_5 C 0.1365(4) 0.1345(4) 0.3175(3)
H2_5 H 0.1499 0.1393 0.2909
C4_5 C 0.1513(4) 0.1649(4) 0.3469(3)
H3_5 H 0.1724 0.1914 0.3399
C5_5 C 0.1358(4) 0.1576(3) 0.3863(3)
C6_5 C 0.1043(5) 0.1194(3) 0.3948(4)
H4_5 H 0.0944 0.1125 0.4217
C7_5 C 0.0863(5) 0.0903(4) 0.3639(3)
H5_5 H 0.0621 0.0651 0.3701
C8_5 C 0.1501(4) 0.1906(4) 0.4193(4)
C9_5 C 0.1911(5) 0.1847(3) 0.4494(3)
C10_5 C 0.1281(5) 0.2334(3) 0.4234(3)
C11_5 C 0.2282(5) 0.1454(3) 0.4594(4)
H6_5 H 0.2499 0.1515 0.4842
H7_5 H 0.2561 0.1399 0.4376
H8_5 H 0.2031 0.1189 0.4631
C12_5 C 0.0819(7) 0.2593(4) 0.3992(5)
H9_5 H 0.0927 0.2913 0.3983
H10_5 H 0.0433 0.2561 0.4120
H11_5 H 0.0802 0.2473 0.3720
N5_4 N 0.0573(4) 0.9717(3) 0.2232(3)
O3_5 O 0.9608(3) 0.9597(2) 0.2994(2)
O4_5 O 0.8928(4) 0.9288(3) 0.2586(2)
N4_5 N 0.8464(4) 0.7499(3) 0.4554(3)
H12_5 H 0.8539 0.7227 0.4645
C13_5 C 0.9173(5) 0.9331(4) 0.2913(4)
C14_5 C 0.8974(4) 0.9028(3) 0.3261(3)
C15_5 C 0.8635(4) 0.8655(4) 0.3175(3)
H13_5 H 0.8501 0.8607 0.2909
C16_5 C 0.8487(4) 0.8351(4) 0.3469(3)
H14_5 H 0.8276 0.8086 0.3399
C17_5 C 0.8642(4) 0.8424(3) 0.3863(3)
C18_5 C 0.8957(5) 0.8806(3) 0.3948(4)
H15_5 H 0.9056 0.8875 0.4217
C19_5 C 0.9137(5) 0.9097(4) 0.3639(3)
H16_5 H 0.9379 0.9349 0.3701
C20_5 C 0.8499(4) 0.8094(4) 0.4193(4)
C21_5 C 0.8089(5) 0.8153(3) 0.4494(3)
C22_5 C 0.8719(5) 0.7666(3) 0.4234(3)
C23_5 C 0.7718(5) 0.8546(3) 0.4594(4)
H17_5 H 0.7501 0.8485 0.4842
H18_5 H 0.7439 0.8601 0.4376
H19_5 H 0.7969 0.8811 0.4631
C24_5 C 0.9181(7) 0.7407(4) 0.3992(5)
H20_5 H 0.9073 0.7087 0.3983
H21_5 H 0.9567 0.7439 0.4120
H22_5 H 0.9198 0.7527 0.3720
O1_6 O 0.2892(3) 0.2097(2) 0.5494(2)
O2_6 O 0.3572(4) 0.1788(3) 0.5086(2)
C1_6 C 0.3327(5) 0.1831(4) 0.5413(4)
C2_6 C 0.3526(4) 0.1528(3) 0.5761(3)
C3_6 C 0.3865(4) 0.1155(4) 0.5675(3)
H2_6 H 0.3999 0.1107 0.5409
C4_6 C 0.4013(4) 0.0851(4) 0.5969(3)
H3_6 H 0.4224 0.0586 0.5899
C5_6 C 0.3858(4) 0.0924(3) 0.6363(3)
C6_6 C 0.3543(5) 0.1306(3) 0.6448(4)
H4_6 H 0.3444 0.1375 0.6717
C7_6 C 0.3363(5) 0.1597(4) 0.6139(3)
H5_6 H 0.3121 0.1849 0.6201
C8_6 C 0.4001(4) 0.0594(4) 0.6693(4)
C9_6 C 0.4411(5) 0.0653(3) 0.6994(3)
C10_6 C 0.3781(5) 0.0166(3) 0.6734(3)
C11_6 C 0.4782(5) 0.1046(3) 0.7094(4)
H6_6 H 0.4999 0.0985 0.7342
H7_6 H 0.5061 0.1101 0.6876
H8_6 H 0.4531 0.1311 0.7131
H11_6 H 0.3302 0.0027 0.6220
O3_6 O 0.2108(3) 0.2903(2) 0.5494(2)
O4_6 O 0.1428(4) 0.3212(3) 0.5086(2)
N3_4 N 0.0573(4) 0.4717(3) 0.7232(3)
N4_6 N 0.0964(4) 0.5001(3) 0.7054(3)
H12_6 H 0.1039 0.5273 0.7145
C13_6 C 0.1673(5) 0.3169(4) 0.5413(4)
C14_6 C 0.1474(4) 0.3472(3) 0.5761(3)
C15_6 C 0.1135(4) 0.3845(4) 0.5675(3)
H13_6 H 0.1001 0.3893 0.5409
C16_6 C 0.0987(4) 0.4149(4) 0.5969(3)
H14_6 H 0.0776 0.4414 0.5899
C17_6 C 0.1142(4) 0.4076(3) 0.6363(3)
C18_6 C 0.1457(5) 0.3694(3) 0.6448(4)
H15_6 H 0.1556 0.3625 0.6717
C19_6 C 0.1637(5) 0.3403(4) 0.6139(3)
H16_6 H 0.1879 0.3151 0.6201
C20_6 C 0.0999(4) 0.4406(4) 0.6693(4)
C21_6 C 0.0589(5) 0.4347(3) 0.6994(3)
C22_6 C 0.1219(5) 0.4834(3) 0.6734(3)
C23_6 C 0.0218(5) 0.3954(3) 0.7094(4)
H17_6 H 0.0001 0.4015 0.7342
H19_6 H 0.0469 0.3689 0.7131
C24_6 C 0.1681(7) 0.5093(4) 0.6492(5)
H20_6 H 0.1573 0.5413 0.6483
H21_6 H 0.2067 0.5061 0.6620
H22_6 H 0.1698 0.4973 0.6220
N2_6 N 0.4036(4) 0.9999(3) 0.7054(3)
H1_6 H 0.3961 0.9727 0.7145
C12_6 C 0.3319(7) 0.9907(4) 0.6492(5)
H9_6 H 0.3427 0.9587 0.6483
H10_6 H 0.2933 0.9939 0.6620
H18_6 H 0.9939 0.3899 0.6876
O1_7 O 0.0392(3) 0.5403(2) 0.7994(2)
O2_7 O 0.1072(4) 0.5712(3) 0.7586(2)
N1_6 N 0.1927(4) 0.7217(3) 0.9732(3)
N2_7 N 0.1536(4) 0.7501(3) 0.9554(3)
H1_7 H 0.1461 0.7773 0.9645
C1_7 C 0.0827(5) 0.5669(4) 0.7913(4)
C2_7 C 0.1026(4) 0.5972(3) 0.8261(3)
C3_7 C 0.1365(4) 0.6345(4) 0.8175(3)
H2_7 H 0.1499 0.6393 0.7909
C4_7 C 0.1513(4) 0.6649(4) 0.8469(3)
H3_7 H 0.1724 0.6914 0.8399
C5_7 C 0.1358(4) 0.6576(3) 0.8863(3)
C6_7 C 0.1043(5) 0.6194(3) 0.8948(4)
H4_7 H 0.0944 0.6125 0.9217
C7_7 C 0.0863(5) 0.5903(4) 0.8639(3)
H5_7 H 0.0621 0.5651 0.8701
C8_7 C 0.1501(4) 0.6906(4) 0.9193(4)
C9_7 C 0.1911(5) 0.6847(3) 0.9494(3)
C10_7 C 0.1281(5) 0.7334(3) 0.9234(3)
C11_7 C 0.2282(5) 0.6454(3) 0.9594(4)
H6_7 H 0.2499 0.6515 0.9842
H7_7 H 0.2561 0.6399 0.9376
H8_7 H 0.2031 0.6189 0.9631
C12_7 C 0.0819(7) 0.7593(4) 0.8992(5)
H9_7 H 0.0927 0.7913 0.8983
H10_7 H 0.0433 0.7561 0.9120
H11_7 H 0.0802 0.7473 0.8720
O3_7 O 0.9608(3) 0.4597(2) 0.7994(2)
O4_7 O 0.8928(4) 0.4288(3) 0.7586(2)
N4_7 N 0.8464(4) 0.2499(3) 0.9554(3)
H12_7 H 0.8539 0.2227 0.9645
C13_7 C 0.9173(5) 0.4331(4) 0.7913(4)
C14_7 C 0.8974(4) 0.4028(3) 0.8261(3)
C15_7 C 0.8635(4) 0.3655(4) 0.8175(3)
H13_7 H 0.8501 0.3607 0.7909
C16_7 C 0.8487(4) 0.3351(4) 0.8469(3)
H14_7 H 0.8276 0.3086 0.8399
C17_7 C 0.8642(4) 0.3424(3) 0.8863(3)
C18_7 C 0.8957(5) 0.3806(3) 0.8948(4)
H15_7 H 0.9056 0.3875 0.9217
C19_7 C 0.9137(5) 0.4097(4) 0.8639(3)
H16_7 H 0.9379 0.4349 0.8701
C20_7 C 0.8499(4) 0.3094(4) 0.9193(4)
C21_7 C 0.8089(5) 0.3153(3) 0.9494(3)
C22_7 C 0.8719(5) 0.2666(3) 0.9234(3)
C23_7 C 0.7718(5) 0.3546(3) 0.9594(4)
H17_7 H 0.7501 0.3485 0.9842
H18_7 H 0.7439 0.3601 0.9376
H19_7 H 0.7969 0.3811 0.9631
C24_7 C 0.9181(7) 0.2407(4) 0.8992(5)
H20_7 H 0.9073 0.2087 0.8983
H21_7 H 0.9567 0.2439 0.9120
H22_7 H 0.9198 0.2527 0.8720
N4_8 N 0.0964(4) 0.0001(3) 0.2054(3)
H12_8 H 0.1039 0.0273 0.2145
C24_8 C 0.1681(7) 0.0093(4) 0.1492(5)
H20_8 H 0.1573 0.0413 0.1483
H21_8 H 0.2067 0.0061 0.1620
O1_8 O 0.2892(3) 0.7097(2) 0.0494(2)
O2_8 O 0.3572(4) 0.6788(3) 0.0086(2)
N2_8 N 0.4036(4) 0.4999(3) 0.2054(3)
H1_8 H 0.3961 0.4727 0.2145
C1_8 C 0.3327(5) 0.6831(4) 0.0413(4)
C2_8 C 0.3526(4) 0.6528(3) 0.0761(3)
C3_8 C 0.3865(4) 0.6155(4) 0.0675(3)
H2_8 H 0.3999 0.6107 0.0409
C4_8 C 0.4013(4) 0.5851(4) 0.0969(3)
H3_8 H 0.4224 0.5586 0.0899
C5_8 C 0.3858(4) 0.5924(3) 0.1363(3)
C6_8 C 0.3543(5) 0.6306(3) 0.1448(4)
H4_8 H 0.3444 0.6375 0.1717
C7_8 C 0.3363(5) 0.6597(4) 0.1139(3)
H5_8 H 0.3121 0.6849 0.1201
C8_8 C 0.4001(4) 0.5594(4) 0.1693(4)
C9_8 C 0.4411(5) 0.5653(3) 0.1994(3)
C10_8 C 0.3781(5) 0.5166(3) 0.1734(3)
C11_8 C 0.4782(5) 0.6046(3) 0.2094(4)
H6_8 H 0.4999 0.5985 0.2342
H7_8 H 0.5061 0.6101 0.1876
H8_8 H 0.4531 0.6311 0.2131
C12_8 C 0.3319(7) 0.4907(4) 0.1492(5)
H9_8 H 0.3427 0.4587 0.1483
H10_8 H 0.2933 0.4939 0.1620
H11_8 H 0.3302 0.5027 0.1220
O3_8 O 0.2108(3) 0.7903(2) 0.0494(2)
O4_8 O 0.1428(4) 0.8212(3) 0.0086(2)
C13_8 C 0.1673(5) 0.8169(4) 0.0413(4)
C14_8 C 0.1474(4) 0.8472(3) 0.0761(3)
C15_8 C 0.1135(4) 0.8845(4) 0.0675(3)
H13_8 H 0.1001 0.8893 0.0409
C16_8 C 0.0987(4) 0.9149(4) 0.0969(3)
H14_8 H 0.0776 0.9414 0.0899
C17_8 C 0.1142(4) 0.9076(3) 0.1363(3)
C18_8 C 0.1457(5) 0.8694(3) 0.1448(4)
H15_8 H 0.1556 0.8625 0.1717
C19_8 C 0.1637(5) 0.8403(4) 0.1139(3)
H16_8 H 0.1879 0.8151 0.1201
C20_8 C 0.0999(4) 0.9406(4) 0.1693(4)
C21_8 C 0.0589(5) 0.9347(3) 0.1994(3)
C22_8 C 0.1219(5) 0.9834(3) 0.1734(3)
C23_8 C 0.0218(5) 0.8954(3) 0.2094(4)
H17_8 H 0.0001 0.9015 0.2342
H19_8 H 0.0469 0.8689 0.2131
H22_8 H 0.1698 0.9973 0.1220
H18_8 H 0.9939 0.8899 0.1876
Zn4 Zn 0.49759(5) 0.25455(3) 0.71821(4)
O5 O 0.5374(3) 0.2935(2) 0.7556(2)
O6 O 0.6187(4) 0.2530(3) 0.7677(3)
O7 O 0.4565(3) 0.2952(2) 0.6814(2)
O8 O 0.3714(3) 0.2606(3) 0.6699(2)
N7 N 0.6504(4) 0.4471(3) 0.9542(3)
H23 H 0.6376 0.4552 0.9780
N8 N 0.6994(3) 0.4639(3) 0.9369(3)
N9 N 0.3672(4) 0.4630(3) 0.4864(3)
H24 H 0.3819 0.4774 0.4656
N10 N 0.3094(4) 0.4677(3) 0.4987(3)
C25 C 0.5869(6) 0.2870(4) 0.7729(3)
C26 C 0.6070(5) 0.3218(4) 0.8028(3)
C27 C 0.5708(5) 0.3570(3) 0.8144(3)
H25 H 0.5336 0.3605 0.8016
C28 C 0.5867(4) 0.3866(4) 0.8434(3)
H26 H 0.5605 0.4101 0.8508
C29 C 0.6417(5) 0.3828(4) 0.8623(4)
C30 C 0.6800(5) 0.3475(4) 0.8508(4)
H27 H 0.7171 0.3441 0.8635
C31 C 0.6627(5) 0.3174(4) 0.8201(4)
H28 H 0.6888 0.2944 0.8114
C32 C 0.6548(5) 0.4128(4) 0.8969(3)
C33 C 0.7043(4) 0.4424(3) 0.9016(4)
C34 C 0.6233(5) 0.4165(4) 0.9307(4)
C35 C 0.7543(4) 0.4502(4) 0.8739(4)
H29 H 0.7899 0.4571 0.8894
H30 H 0.7451 0.4756 0.8562
H31 H 0.7611 0.4231 0.8578
C36 C 0.5697(6) 0.3926(6) 0.9449(4)
H32 H 0.5541 0.3738 0.9232
H33 H 0.5399 0.4147 0.9529
H34 H 0.5798 0.3736 0.9678
C37 C 0.4076(5) 0.2904(4) 0.6641(4)
C38 C 0.3968(5) 0.3235(4) 0.6312(3)
C39 C 0.4366(5) 0.3584(4) 0.6234(3)
H35 H 0.4722 0.3604 0.6383
C40 C 0.4243(5) 0.3902(4) 0.5938(3)
H36 H 0.4515 0.4138 0.5888
C41 C 0.3716(5) 0.3877(4) 0.5711(4)
C42 C 0.3323(5) 0.3507(4) 0.5793(4)
H37 H 0.2975 0.3472 0.5638
C43 C 0.3442(6) 0.3212(4) 0.6086(4)
H38 H 0.3166 0.2981 0.6144
C44 C 0.3599(5) 0.4197(4) 0.5392(4)
C45 C 0.3057(5) 0.4412(4) 0.5307(4)
C46 C 0.3985(5) 0.4348(4) 0.5086(4)
C47 C 0.2493(5) 0.4371(5) 0.5534(5)
H39 H 0.2291 0.4662 0.5536
H40 H 0.2578 0.4278 0.5809
H41 H 0.2241 0.4145 0.5405
C48 C 0.4603(6) 0.4258(6) 0.5009(4)
H42 H 0.4694 0.4330 0.4730
H43 H 0.4684 0.3938 0.5058
H44 H 0.4846 0.4442 0.5187
Zn5 Zn 0.75241(5) 0.50455(3) 0.96821(4)
Zn6 Zn 0.25241(5) 0.50455(3) 0.46821(4)
N11 N 0.5506(3) 0.2139(3) 0.6869(3)
N12 N 0.4406(4) 0.2177(3) 0.7487(3)
O5_2 O 0.7126(3) 0.5435(2) 0.0056(2)
O6_2 O 0.6313(4) 0.5030(3) 0.0177(3)
N7_2 N 0.5996(4) 0.6971(3) 0.2042(3)
H23_2 H 0.6124 0.7052 0.2280
N8_2 N 0.5506(3) 0.7139(3) 0.1869(3)
C25_2 C 0.6631(6) 0.5370(4) 0.0229(3)
C26_2 C 0.6430(5) 0.5718(4) 0.0528(3)
C27_2 C 0.6792(5) 0.6070(3) 0.0644(3)
H25_2 H 0.7164 0.6105 0.0516
C28_2 C 0.6633(4) 0.6366(4) 0.0934(3)
H26_2 H 0.6895 0.6601 0.1008
C29_2 C 0.6083(5) 0.6328(4) 0.1123(4)
C30_2 C 0.5700(5) 0.5975(4) 0.1008(4)
H27_2 H 0.5329 0.5941 0.1135
C31_2 C 0.5873(5) 0.5674(4) 0.0701(4)
H28_2 H 0.5612 0.5444 0.0614
C32_2 C 0.5952(5) 0.6628(4) 0.1469(3)
C33_2 C 0.5457(4) 0.6924(3) 0.1516(4)
C34_2 C 0.6267(5) 0.6665(4) 0.1807(4)
C35_2 C 0.4957(4) 0.7002(4) 0.1239(4)
H29_2 H 0.4601 0.7071 0.1394
H30_2 H 0.5049 0.7256 0.1062
H31_2 H 0.4889 0.6731 0.1078
C36_2 C 0.6803(6) 0.6426(6) 0.1949(4)
H32_2 H 0.6959 0.6238 0.1732
H33_2 H 0.7101 0.6647 0.2029
H34_2 H 0.6702 0.6236 0.2178
Zn5_2 Zn 0.49759(5) 0.75455(3) 0.21821(4)
O7_2 O 0.7935(3) 0.5452(2) 0.9314(2)
O8_2 O 0.8786(3) 0.5106(3) 0.9199(2)
N9_2 N 0.8828(4) 0.7130(3) 0.7364(3)
H24_2 H 0.8681 0.7274 0.7156
N10_2 N 0.9406(4) 0.7177(3) 0.7487(3)
C37_2 C 0.8424(5) 0.5404(4) 0.9141(4)
C38_2 C 0.8532(5) 0.5735(4) 0.8812(3)
C39_2 C 0.8134(5) 0.6084(4) 0.8734(3)
H35_2 H 0.7778 0.6104 0.8883
C40_2 C 0.8257(5) 0.6402(4) 0.8438(3)
H36_2 H 0.7985 0.6638 0.8388
C41_2 C 0.8784(5) 0.6377(4) 0.8211(4)
C42_2 C 0.9177(5) 0.6007(4) 0.8293(4)
H37_2 H 0.9525 0.5972 0.8138
C43_2 C 0.9058(6) 0.5712(4) 0.8586(4)
H38_2 H 0.9334 0.5481 0.8644
C44_2 C 0.8901(5) 0.6697(4) 0.7892(4)
C45_2 C 0.9443(5) 0.6912(4) 0.7807(4)
C46_2 C 0.8515(5) 0.6848(4) 0.7586(4)
H40_2 H 0.9922 0.6778 0.8309
C48_2 C 0.7897(6) 0.6758(6) 0.7509(4)
H42_2 H 0.7806 0.6830 0.7230
H43_2 H 0.7816 0.6438 0.7558
H44_2 H 0.7654 0.6942 0.7687
Zn6_2 Zn 0.99759(5) 0.75455(3) 0.71821(4)
N12_2 N 0.8094(4) 0.4677(3) 0.9987(3)
Zn5_3 Zn 0.75241(5) 0.00455(3) 0.46821(4)
Zn6_3 Zn 0.25241(5) 0.00455(3) 0.96821(4)
O5_3 O 0.5374(3) 0.7935(2) 0.2556(2)
O6_3 O 0.6187(4) 0.7530(3) 0.2677(3)
O7_3 O 0.4565(3) 0.7952(2) 0.1814(2)
O8_3 O 0.3714(3) 0.7606(3) 0.1699(2)
N7_3 N 0.6504(4) 0.9471(3) 0.4542(3)
H23_3 H 0.6376 0.9552 0.4780
N8_3 N 0.6994(3) 0.9639(3) 0.4369(3)
C25_3 C 0.5869(6) 0.7870(4) 0.2729(3)
C26_3 C 0.6070(5) 0.8218(4) 0.3028(3)
C27_3 C 0.5708(5) 0.8570(3) 0.3144(3)
H25_3 H 0.5336 0.8605 0.3016
C28_3 C 0.5867(4) 0.8866(4) 0.3434(3)
H26_3 H 0.5605 0.9101 0.3508
C29_3 C 0.6417(5) 0.8828(4) 0.3623(4)
C30_3 C 0.6800(5) 0.8475(4) 0.3508(4)
H27_3 H 0.7171 0.8441 0.3635
C31_3 C 0.6627(5) 0.8174(4) 0.3201(4)
H28_3 H 0.6888 0.7944 0.3114
C32_3 C 0.6548(5) 0.9128(4) 0.3969(3)
C33_3 C 0.7043(4) 0.9424(3) 0.4016(4)
C34_3 C 0.6233(5) 0.9165(4) 0.4307(4)
C35_3 C 0.7543(4) 0.9502(4) 0.3739(4)
H29_3 H 0.7899 0.9571 0.3894
H30_3 H 0.7451 0.9756 0.3562
H31_3 H 0.7611 0.9231 0.3578
C36_3 C 0.5697(6) 0.8926(6) 0.4449(4)
H32_3 H 0.5541 0.8738 0.4232
H33_3 H 0.5399 0.9147 0.4529
H34_3 H 0.5798 0.8736 0.4678
C37_3 C 0.4076(5) 0.7904(4) 0.1641(4)
C38_3 C 0.3968(5) 0.8235(4) 0.1312(3)
C39_3 C 0.4366(5) 0.8584(4) 0.1234(3)
H35_3 H 0.4722 0.8604 0.1383
C40_3 C 0.4243(5) 0.8902(4) 0.0938(3)
H36_3 H 0.4515 0.9138 0.0888
C41_3 C 0.3716(5) 0.8877(4) 0.0711(4)
C42_3 C 0.3323(5) 0.8507(4) 0.0793(4)
H37_3 H 0.2975 0.8472 0.0638
C43_3 C 0.3442(6) 0.8212(4) 0.1086(4)
H38_3 H 0.3166 0.7981 0.1144
C44_3 C 0.3599(5) 0.9197(4) 0.0392(4)
C45_3 C 0.3057(5) 0.9412(4) 0.0307(4)
C46_3 C 0.3985(5) 0.9348(4) 0.0086(4)
C47_2 C 0.2493(5) 0.9371(5) 0.0534(5)
H39_2 H 0.2291 0.9662 0.0536
H40_3 H 0.2578 0.9278 0.0809
H41_2 H 0.2241 0.9145 0.0405
C48_3 C 0.4603(6) 0.9258(6) 0.0009(4)
H43_3 H 0.4684 0.8938 0.0058
H44_3 H 0.4846 0.9442 0.0187
N12_3 N 0.4406(4) 0.7177(3) 0.2487(3)
N9_3 N 0.3672(4) 0.9630(3) 0.9864(3)
H24_3 H 0.3819 0.9774 0.9656
N10_3 N 0.3094(4) 0.9677(3) 0.9987(3)
H42_3 H 0.4694 0.9330 0.9730
O5_4 O 0.7126(3) 0.0435(2) 0.5056(2)
O6_4 O 0.6313(4) 0.0030(3) 0.5177(3)
O7_4 O 0.7935(3) 0.0452(2) 0.4314(2)
O8_4 O 0.8786(3) 0.0106(3) 0.4199(2)
N7_4 N 0.5996(4) 0.1971(3) 0.7042(3)
H23_4 H 0.6124 0.2052 0.7280
N9_4 N 0.8828(4) 0.2130(3) 0.2364(3)
H24_4 H 0.8681 0.2274 0.2156
N10_4 N 0.9406(4) 0.2177(3) 0.2487(3)
C25_4 C 0.6631(6) 0.0370(4) 0.5229(3)
C26_4 C 0.6430(5) 0.0718(4) 0.5528(3)
C27_4 C 0.6792(5) 0.1070(3) 0.5644(3)
H25_4 H 0.7164 0.1105 0.5516
C28_4 C 0.6633(4) 0.1366(4) 0.5934(3)
H26_4 H 0.6895 0.1601 0.6008
C29_4 C 0.6083(5) 0.1328(4) 0.6123(4)
C30_4 C 0.5700(5) 0.0975(4) 0.6008(4)
H27_4 H 0.5329 0.0941 0.6135
C31_4 C 0.5873(5) 0.0674(4) 0.5701(4)
H28_4 H 0.5612 0.0444 0.5614
C32_4 C 0.5952(5) 0.1628(4) 0.6469(3)
C33_4 C 0.5457(4) 0.1924(3) 0.6516(4)
C34_4 C 0.6267(5) 0.1665(4) 0.6807(4)
C35_4 C 0.4957(4) 0.2002(4) 0.6239(4)
H29_4 H 0.4601 0.2071 0.6394
H30_4 H 0.5049 0.2256 0.6062
H31_4 H 0.4889 0.1731 0.6078
C36_4 C 0.6803(6) 0.1426(6) 0.6949(4)
H32_4 H 0.6959 0.1238 0.6732
H33_4 H 0.7101 0.1647 0.7029
H34_4 H 0.6702 0.1236 0.7178
C37_4 C 0.8424(5) 0.0404(4) 0.4141(4)
C38_4 C 0.8532(5) 0.0735(4) 0.3812(3)
C39_4 C 0.8134(5) 0.1084(4) 0.3734(3)
H35_4 H 0.7778 0.1104 0.3883
C40_4 C 0.8257(5) 0.1402(4) 0.3438(3)
H36_4 H 0.7985 0.1638 0.3388
C41_4 C 0.8784(5) 0.1377(4) 0.3211(4)
C42_4 C 0.9177(5) 0.1007(4) 0.3293(4)
H37_4 H 0.9525 0.0972 0.3138
C43_4 C 0.9058(6) 0.0712(4) 0.3586(4)
H38_4 H 0.9334 0.0481 0.3644
C44_4 C 0.8901(5) 0.1697(4) 0.2892(4)
C45_4 C 0.9443(5) 0.1912(4) 0.2807(4)
C46_4 C 0.8515(5) 0.1848(4) 0.2586(4)
H40_4 H 0.9922 0.1778 0.3309
C48_4 C 0.7897(6) 0.1758(6) 0.2509(4)
H42_4 H 0.7806 0.1830 0.2230
H43_4 H 0.7816 0.1438 0.2558
H44_4 H 0.7654 0.1942 0.2687
Zn6_4 Zn 0.99759(5) 0.25455(3) 0.21821(4)
N12_4 N 0.8094(4) 0.9677(3) 0.4987(3)
O5_5 O 0.0374(3) 0.2935(2) 0.2556(2)
O6_5 O 0.1187(4) 0.2530(3) 0.2677(3)
N7_5 N 0.1504(4) 0.4471(3) 0.4542(3)
H23_5 H 0.1376 0.4552 0.4780
N8_4 N 0.1994(3) 0.4639(3) 0.4369(3)
C25_5 C 0.0869(6) 0.2870(4) 0.2729(3)
C26_5 C 0.1070(5) 0.3218(4) 0.3028(3)
C27_5 C 0.0708(5) 0.3570(3) 0.3144(3)
H25_5 H 0.0336 0.3605 0.3016
C28_5 C 0.0867(4) 0.3866(4) 0.3434(3)
H26_5 H 0.0605 0.4101 0.3508
C29_5 C 0.1417(5) 0.3828(4) 0.3623(4)
C30_5 C 0.1800(5) 0.3475(4) 0.3508(4)
H27_5 H 0.2171 0.3441 0.3635
C31_5 C 0.1627(5) 0.3174(4) 0.3201(4)
H28_5 H 0.1888 0.2944 0.3114
C32_5 C 0.1548(5) 0.4128(4) 0.3969(3)
C33_5 C 0.2043(4) 0.4424(3) 0.4016(4)
C34_5 C 0.1233(5) 0.4165(4) 0.4307(4)
C35_5 C 0.2543(4) 0.4502(4) 0.3739(4)
H29_5 H 0.2899 0.4571 0.3894
H30_5 H 0.2451 0.4756 0.3562
H31_5 H 0.2611 0.4231 0.3578
C36_5 C 0.0697(6) 0.3926(6) 0.4449(4)
H32_5 H 0.0541 0.3738 0.4232
H33_5 H 0.0399 0.4147 0.4529
H34_5 H 0.0798 0.3736 0.4678
N11_2 N 0.0506(3) 0.2139(3) 0.1869(3)
O7_5 O 0.9565(3) 0.2952(2) 0.1814(2)
O8_5 O 0.8714(3) 0.2606(3) 0.1699(2)
C37_5 C 0.9076(5) 0.2904(4) 0.1641(4)
C38_5 C 0.8968(5) 0.3235(4) 0.1312(3)
C39_5 C 0.9366(5) 0.3584(4) 0.1234(3)
H35_5 H 0.9722 0.3604 0.1383
C40_5 C 0.9243(5) 0.3902(4) 0.0938(3)
H36_5 H 0.9515 0.4138 0.0888
C41_5 C 0.8716(5) 0.3877(4) 0.0711(4)
C42_5 C 0.8323(5) 0.3507(4) 0.0793(4)
H37_5 H 0.7975 0.3472 0.0638
C43_5 C 0.8442(6) 0.3212(4) 0.1086(4)
H38_5 H 0.8166 0.2981 0.1144
C44_5 C 0.8599(5) 0.4197(4) 0.0392(4)
C45_5 C 0.8057(5) 0.4412(4) 0.0307(4)
C46_5 C 0.8985(5) 0.4348(4) 0.0086(4)
C47_3 C 0.7493(5) 0.4371(5) 0.0534(5)
H39_3 H 0.7291 0.4662 0.0536
H40_5 H 0.7578 0.4278 0.0809
H41_3 H 0.7241 0.4145 0.0405
C48_5 C 0.9603(6) 0.4258(6) 0.0009(4)
H43_5 H 0.9684 0.3938 0.0058
H44_5 H 0.9846 0.4442 0.0187
N9_5 N 0.8672(4) 0.4630(3) 0.9864(3)
H24_5 H 0.8819 0.4774 0.9656
H42_5 H 0.9694 0.4330 0.9730
O5_6 O 0.2126(3) 0.5435(2) 0.5056(2)
O6_6 O 0.1313(4) 0.5030(3) 0.5177(3)
O7_6 O 0.2935(3) 0.5452(2) 0.4314(2)
O8_6 O 0.3786(3) 0.5106(3) 0.4199(2)
N7_6 N 0.0996(4) 0.6971(3) 0.7042(3)
H23_6 H 0.1124 0.7052 0.7280
N8_5 N 0.0506(3) 0.7139(3) 0.6869(3)
N9_6 N 0.3828(4) 0.7130(3) 0.2364(3)
H24_6 H 0.3681 0.7274 0.2156
C25_6 C 0.1631(6) 0.5370(4) 0.5229(3)
C26_6 C 0.1430(5) 0.5718(4) 0.5528(3)
C27_6 C 0.1792(5) 0.6070(3) 0.5644(3)
H25_6 H 0.2164 0.6105 0.5516
C28_6 C 0.1633(4) 0.6366(4) 0.5934(3)
H26_6 H 0.1895 0.6601 0.6008
C29_6 C 0.1083(5) 0.6328(4) 0.6123(4)
C30_6 C 0.0700(5) 0.5975(4) 0.6008(4)
H27_6 H 0.0329 0.5941 0.6135
C31_6 C 0.0873(5) 0.5674(4) 0.5701(4)
H28_6 H 0.0612 0.5444 0.5614
C32_6 C 0.0952(5) 0.6628(4) 0.6469(3)
C33_6 C 0.0457(4) 0.6924(3) 0.6516(4)
C34_6 C 0.1267(5) 0.6665(4) 0.6807(4)
H30_6 H 0.0049 0.7256 0.6062
C36_6 C 0.1803(6) 0.6426(6) 0.6949(4)
H32_6 H 0.1959 0.6238 0.6732
H33_6 H 0.2101 0.6647 0.7029
H34_6 H 0.1702 0.6236 0.7178
C37_6 C 0.3424(5) 0.5404(4) 0.4141(4)
C38_6 C 0.3532(5) 0.5735(4) 0.3812(3)
C39_6 C 0.3134(5) 0.6084(4) 0.3734(3)
H35_6 H 0.2778 0.6104 0.3883
C40_6 C 0.3257(5) 0.6402(4) 0.3438(3)
H36_6 H 0.2985 0.6638 0.3388
C41_6 C 0.3784(5) 0.6377(4) 0.3211(4)
C42_6 C 0.4177(5) 0.6007(4) 0.3293(4)
H37_6 H 0.4525 0.5972 0.3138
C43_6 C 0.4058(6) 0.5712(4) 0.3586(4)
H38_6 H 0.4334 0.5481 0.3644
C44_6 C 0.3901(5) 0.6697(4) 0.2892(4)
C45_6 C 0.4443(5) 0.6912(4) 0.2807(4)
C46_6 C 0.3515(5) 0.6848(4) 0.2586(4)
C47_4 C 0.5007(5) 0.6871(5) 0.3034(5)
H39_4 H 0.5209 0.7162 0.3036
H40_6 H 0.4922 0.6778 0.3309
H41_4 H 0.5259 0.6645 0.2905
C48_6 C 0.2897(6) 0.6758(6) 0.2509(4)
H42_6 H 0.2806 0.6830 0.2230
H43_6 H 0.2816 0.6438 0.2558
H44_6 H 0.2654 0.6942 0.2687
C35_6 C 0.9957(4) 0.7002(4) 0.6239(4)
H29_6 H 0.9601 0.7071 0.6394
H31_6 H 0.9889 0.6731 0.6078
O5_7 O 0.0374(3) 0.7935(2) 0.7556(2)
O6_7 O 0.1187(4) 0.7530(3) 0.7677(3)
N7_7 N 0.1504(4) 0.9471(3) 0.9542(3)
H23_7 H 0.1376 0.9552 0.9780
N8_6 N 0.1994(3) 0.9639(3) 0.9369(3)
C25_7 C 0.0869(6) 0.7870(4) 0.7729(3)
C26_7 C 0.1070(5) 0.8218(4) 0.8028(3)
C27_7 C 0.0708(5) 0.8570(3) 0.8144(3)
H25_7 H 0.0336 0.8605 0.8016
C28_7 C 0.0867(4) 0.8866(4) 0.8434(3)
H26_7 H 0.0605 0.9101 0.8508
C29_7 C 0.1417(5) 0.8828(4) 0.8623(4)
C30_7 C 0.1800(5) 0.8475(4) 0.8508(4)
H27_7 H 0.2171 0.8441 0.8635
C31_7 C 0.1627(5) 0.8174(4) 0.8201(4)
H28_7 H 0.1888 0.7944 0.8114
C32_7 C 0.1548(5) 0.9128(4) 0.8969(3)
C33_7 C 0.2043(4) 0.9424(3) 0.9016(4)
C34_7 C 0.1233(5) 0.9165(4) 0.9307(4)
C35_7 C 0.2543(4) 0.9502(4) 0.8739(4)
H29_7 H 0.2899 0.9571 0.8894
H30_7 H 0.2451 0.9756 0.8562
H31_7 H 0.2611 0.9231 0.8578
C36_7 C 0.0697(6) 0.8926(6) 0.9449(4)
H32_7 H 0.0541 0.8738 0.9232
H33_7 H 0.0399 0.9147 0.9529
H34_7 H 0.0798 0.8736 0.9678
O7_7 O 0.9565(3) 0.7952(2) 0.6814(2)
O8_7 O 0.8714(3) 0.7606(3) 0.6699(2)
N9_7 N 0.8672(4) 0.9630(3) 0.4864(3)
H24_7 H 0.8819 0.9774 0.4656
C37_7 C 0.9076(5) 0.7904(4) 0.6641(4)
C38_7 C 0.8968(5) 0.8235(4) 0.6312(3)
C39_7 C 0.9366(5) 0.8584(4) 0.6234(3)
H35_7 H 0.9722 0.8604 0.6383
C40_7 C 0.9243(5) 0.8902(4) 0.5938(3)
H36_7 H 0.9515 0.9138 0.5888
C41_7 C 0.8716(5) 0.8877(4) 0.5711(4)
C42_7 C 0.8323(5) 0.8507(4) 0.5793(4)
H37_7 H 0.7975 0.8472 0.5638
C43_7 C 0.8442(6) 0.8212(4) 0.6086(4)
H38_7 H 0.8166 0.7981 0.6144
C44_7 C 0.8599(5) 0.9197(4) 0.5392(4)
C45_7 C 0.8057(5) 0.9412(4) 0.5307(4)
C46_7 C 0.8985(5) 0.9348(4) 0.5086(4)
C47_5 C 0.7493(5) 0.9371(5) 0.5534(5)
H39_5 H 0.7291 0.9662 0.5536
H40_7 H 0.7578 0.9278 0.5809
H41_5 H 0.7241 0.9145 0.5405
C48_7 C 0.9603(6) 0.9258(6) 0.5009(4)
H42_7 H 0.9694 0.9330 0.4730
H43_7 H 0.9684 0.8938 0.5058
H44_7 H 0.9846 0.9442 0.5187
O5_8 O 0.2126(3) 0.0435(2) 0.0056(2)
O6_8 O 0.1313(4) 0.0030(3) 0.0177(3)
N7_8 N 0.0996(4) 0.1971(3) 0.2042(3)
H23_8 H 0.1124 0.2052 0.2280
C25_8 C 0.1631(6) 0.0370(4) 0.0229(3)
C26_8 C 0.1430(5) 0.0718(4) 0.0528(3)
C27_8 C 0.1792(5) 0.1070(3) 0.0644(3)
H25_8 H 0.2164 0.1105 0.0516
C28_8 C 0.1633(4) 0.1366(4) 0.0934(3)
H26_8 H 0.1895 0.1601 0.1008
C29_8 C 0.1083(5) 0.1328(4) 0.1123(4)
C30_8 C 0.0700(5) 0.0975(4) 0.1008(4)
H27_8 H 0.0329 0.0941 0.1135
C31_8 C 0.0873(5) 0.0674(4) 0.0701(4)
H28_8 H 0.0612 0.0444 0.0614
C32_8 C 0.0952(5) 0.1628(4) 0.1469(3)
C33_8 C 0.0457(4) 0.1924(3) 0.1516(4)
C34_8 C 0.1267(5) 0.1665(4) 0.1807(4)
H30_8 H 0.0049 0.2256 0.1062
C36_8 C 0.1803(6) 0.1426(6) 0.1949(4)
H32_8 H 0.1959 0.1238 0.1732
H33_8 H 0.2101 0.1647 0.2029
H34_8 H 0.1702 0.1236 0.2178
O7_8 O 0.2935(3) 0.0452(2) 0.9314(2)
O8_8 O 0.3786(3) 0.0106(3) 0.9199(2)
N9_8 N 0.3828(4) 0.2130(3) 0.7364(3)
H24_8 H 0.3681 0.2274 0.7156
C37_8 C 0.3424(5) 0.0404(4) 0.9141(4)
C38_8 C 0.3532(5) 0.0735(4) 0.8812(3)
C39_8 C 0.3134(5) 0.1084(4) 0.8734(3)
H35_8 H 0.2778 0.1104 0.8883
C40_8 C 0.3257(5) 0.1402(4) 0.8438(3)
H36_8 H 0.2985 0.1638 0.8388
C41_8 C 0.3784(5) 0.1377(4) 0.8211(4)
C42_8 C 0.4177(5) 0.1007(4) 0.8293(4)
H37_8 H 0.4525 0.0972 0.8138
C43_8 C 0.4058(6) 0.0712(4) 0.8586(4)
H38_8 H 0.4334 0.0481 0.8644
C44_8 C 0.3901(5) 0.1697(4) 0.7892(4)
C45_8 C 0.4443(5) 0.1912(4) 0.7807(4)
C46_8 C 0.3515(5) 0.1848(4) 0.7586(4)
C47_6 C 0.5007(5) 0.1871(5) 0.8034(5)
H39_6 H 0.5209 0.2162 0.8036
H40_8 H 0.4922 0.1778 0.8309
H41_6 H 0.5259 0.1645 0.7905
C48_8 C 0.2897(6) 0.1758(6) 0.7509(4)
H42_8 H 0.2806 0.1830 0.7230
H43_8 H 0.2816 0.1438 0.7558
H44_8 H 0.2654 0.1942 0.7687
C35_8 C 0.9957(4) 0.2002(4) 0.1239(4)
H29_8 H 0.9601 0.2071 0.1394
H31_8 H 0.9889 0.1731 0.1078
Zn4_2 Zn 0.50241(5) 0.74545(3) 0.71821(4)
O5_9 O 0.4626(3) 0.7065(2) 0.7556(2)
O6_9 O 0.3813(4) 0.7470(3) 0.7677(3)
O7_9 O 0.5435(3) 0.7048(2) 0.6814(2)
O8_9 O 0.6286(3) 0.7394(3) 0.6699(2)
N7_9 N 0.3496(4) 0.5529(3) 0.9542(3)
H23_9 H 0.3624 0.5448 0.9780
N8_7 N 0.3006(3) 0.5361(3) 0.9369(3)
N9_9 N 0.6328(4) 0.5370(3) 0.4864(3)
H24_9 H 0.6181 0.5226 0.4656
N10_5 N 0.6906(4) 0.5323(3) 0.4987(3)
C25_9 C 0.4131(6) 0.7130(4) 0.7729(3)
C26_9 C 0.3930(5) 0.6782(4) 0.8028(3)
C27_9 C 0.4292(5) 0.6430(3) 0.8144(3)
H25_9 H 0.4664 0.6395 0.8016
C28_9 C 0.4133(4) 0.6134(4) 0.8434(3)
H26_9 H 0.4395 0.5899 0.8508
C29_9 C 0.3583(5) 0.6172(4) 0.8623(4)
C30_9 C 0.3200(5) 0.6525(4) 0.8508(4)
H27_9 H 0.2829 0.6559 0.8635
C31_9 C 0.3373(5) 0.6826(4) 0.8201(4)
H28_9 H 0.3112 0.7056 0.8114
C32_9 C 0.3452(5) 0.5872(4) 0.8969(3)
C33_9 C 0.2957(4) 0.5576(3) 0.9016(4)
C34_9 C 0.3767(5) 0.5835(4) 0.9307(4)
C35_9 C 0.2457(4) 0.5498(4) 0.8739(4)
H29_9 H 0.2101 0.5429 0.8894
H30_9 H 0.2549 0.5244 0.8562
H31_9 H 0.2389 0.5769 0.8578
C36_9 C 0.4303(6) 0.6074(6) 0.9449(4)
H32_9 H 0.4459 0.6262 0.9232
H33_9 H 0.4601 0.5853 0.9529
H34_9 H 0.4202 0.6264 0.9678
C37_9 C 0.5924(5) 0.7096(4) 0.6641(4)
C38_9 C 0.6032(5) 0.6765(4) 0.6312(3)
C39_9 C 0.5634(5) 0.6416(4) 0.6234(3)
H35_9 H 0.5278 0.6396 0.6383
C40_9 C 0.5757(5) 0.6098(4) 0.5938(3)
H36_9 H 0.5485 0.5862 0.5888
C41_9 C 0.6284(5) 0.6123(4) 0.5711(4)
C42_9 C 0.6677(5) 0.6493(4) 0.5793(4)
H37_9 H 0.7025 0.6528 0.5638
C43_9 C 0.6558(6) 0.6788(4) 0.6086(4)
H38_9 H 0.6834 0.7019 0.6144
C44_9 C 0.6401(5) 0.5803(4) 0.5392(4)
C45_9 C 0.6943(5) 0.5588(4) 0.5307(4)
C46_9 C 0.6015(5) 0.5652(4) 0.5086(4)
C47_7 C 0.7507(5) 0.5629(5) 0.5534(5)
H39_7 H 0.7709 0.5338 0.5536
H40_9 H 0.7422 0.5722 0.5809
H41_7 H 0.7759 0.5855 0.5405
C48_9 C 0.5397(6) 0.5742(6) 0.5009(4)
H42_9 H 0.5306 0.5670 0.4730
H43_9 H 0.5316 0.6062 0.5058
H44_9 H 0.5154 0.5558 0.5187
Zn5_4 Zn 0.24759(5) 0.49545(3) 0.96821(4)
Zn6_5 Zn 0.74759(5) 0.49545(3) 0.46821(4)
N11_3 N 0.4494(3) 0.7861(3) 0.6869(3)
N12_5 N 0.5594(4) 0.7823(3) 0.7487(3)
C35_10 C 0.0043(4) 0.7998(4) 0.1239(4)
H29_10 H 0.0399 0.7929 0.1394
H31_10 H 0.0111 0.8269 0.1078
Zn5_5 Zn 0.00241(5) 0.74545(3) 0.21821(4)
N11_4 N 0.8006(3) 0.0361(3) 0.9369(3)
N12_6 N 0.6906(4) 0.0323(3) 0.9987(3)
O5_10 O 0.7874(3) 0.9565(2) 0.0056(2)
O6_10 O 0.8687(4) 0.9970(3) 0.0177(3)
N7_10 N 0.9004(4) 0.8029(3) 0.2042(3)
H23_10 H 0.8876 0.7948 0.2280
N8_8 N 0.9494(3) 0.7861(3) 0.1869(3)
C25_10 C 0.8369(6) 0.9630(4) 0.0229(3)
C26_10 C 0.8570(5) 0.9282(4) 0.0528(3)
C27_10 C 0.8208(5) 0.8930(3) 0.0644(3)
H25_10 H 0.7836 0.8895 0.0516
C28_10 C 0.8367(4) 0.8634(4) 0.0934(3)
H26_10 H 0.8105 0.8399 0.1008
C29_10 C 0.8917(5) 0.8672(4) 0.1123(4)
C30_10 C 0.9300(5) 0.9025(4) 0.1008(4)
H27_10 H 0.9671 0.9059 0.1135
C31_10 C 0.9127(5) 0.9326(4) 0.0701(4)
H28_10 H 0.9388 0.9556 0.0614
C32_10 C 0.9048(5) 0.8372(4) 0.1469(3)
C33_10 C 0.9543(4) 0.8076(3) 0.1516(4)
C34_10 C 0.8733(5) 0.8335(4) 0.1807(4)
H30_10 H 0.9951 0.7744 0.1062
C36_10 C 0.8197(6) 0.8574(6) 0.1949(4)
H32_10 H 0.8041 0.8762 0.1732
H33_10 H 0.7899 0.8353 0.2029
H34_10 H 0.8298 0.8764 0.2178
Zn4_3 Zn 0.74759(5) 0.99545(3) 0.96821(4)
O7_10 O 0.7065(3) 0.9548(2) 0.9314(2)
O8_10 O 0.6214(3) 0.9894(3) 0.9199(2)
N9_10 N 0.6172(4) 0.7870(3) 0.7364(3)
H24_10 H 0.6319 0.7726 0.7156
C37_10 C 0.6576(5) 0.9596(4) 0.9141(4)
C38_10 C 0.6468(5) 0.9265(4) 0.8812(3)
C39_10 C 0.6866(5) 0.8916(4) 0.8734(3)
H35_10 H 0.7222 0.8896 0.8883
C40_10 C 0.6743(5) 0.8598(4) 0.8438(3)
H36_10 H 0.7015 0.8362 0.8388
C41_10 C 0.6216(5) 0.8623(4) 0.8211(4)
C42_10 C 0.5823(5) 0.8993(4) 0.8293(4)
H37_10 H 0.5475 0.9028 0.8138
C43_10 C 0.5942(6) 0.9288(4) 0.8586(4)
H38_10 H 0.5666 0.9519 0.8644
C44_10 C 0.6099(5) 0.8303(4) 0.7892(4)
C45_10 C 0.5557(5) 0.8088(4) 0.7807(4)
C46_10 C 0.6485(5) 0.8152(4) 0.7586(4)
C47_8 C 0.4993(5) 0.8129(5) 0.8034(5)
H39_8 H 0.4791 0.7838 0.8036
H40_10 H 0.5078 0.8222 0.8309
H41_8 H 0.4741 0.8355 0.7905
C48_10 C 0.7103(6) 0.8242(6) 0.7509(4)
H42_10 H 0.7194 0.8170 0.7230
H43_10 H 0.7184 0.8562 0.7558
H44_10 H 0.7346 0.8058 0.7687
Zn4_4 Zn 0.50241(5) 0.24545(3) 0.21821(4)
O5_11 O 0.4626(3) 0.2065(2) 0.2556(2)
O6_11 O 0.3813(4) 0.2470(3) 0.2677(3)
O7_11 O 0.5435(3) 0.2048(2) 0.1814(2)
O8_11 O 0.6286(3) 0.2394(3) 0.1699(2)
N7_11 N 0.3496(4) 0.0529(3) 0.4542(3)
H23_11 H 0.3624 0.0448 0.4780
N8_9 N 0.3006(3) 0.0361(3) 0.4369(3)
C25_11 C 0.4131(6) 0.2130(4) 0.2729(3)
C26_11 C 0.3930(5) 0.1782(4) 0.3028(3)
C27_11 C 0.4292(5) 0.1430(3) 0.3144(3)
H25_11 H 0.4664 0.1395 0.3016
C28_11 C 0.4133(4) 0.1134(4) 0.3434(3)
H26_11 H 0.4395 0.0899 0.3508
C29_11 C 0.3583(5) 0.1172(4) 0.3623(4)
C30_11 C 0.3200(5) 0.1525(4) 0.3508(4)
H27_11 H 0.2829 0.1559 0.3635
C31_11 C 0.3373(5) 0.1826(4) 0.3201(4)
H28_11 H 0.3112 0.2056 0.3114
C32_11 C 0.3452(5) 0.0872(4) 0.3969(3)
C33_11 C 0.2957(4) 0.0576(3) 0.4016(4)
C34_11 C 0.3767(5) 0.0835(4) 0.4307(4)
C35_11 C 0.2457(4) 0.0498(4) 0.3739(4)
H29_11 H 0.2101 0.0429 0.3894
H30_11 H 0.2549 0.0244 0.3562
H31_11 H 0.2389 0.0769 0.3578
C36_11 C 0.4303(6) 0.1074(6) 0.4449(4)
H32_11 H 0.4459 0.1262 0.4232
H33_11 H 0.4601 0.0853 0.4529
H34_11 H 0.4202 0.1264 0.4678
C37_11 C 0.5924(5) 0.2096(4) 0.1641(4)
C38_11 C 0.6032(5) 0.1765(4) 0.1312(3)
C39_11 C 0.5634(5) 0.1416(4) 0.1234(3)
H35_11 H 0.5278 0.1396 0.1383
C40_11 C 0.5757(5) 0.1098(4) 0.0938(3)
H36_11 H 0.5485 0.0862 0.0888
C41_11 C 0.6284(5) 0.1123(4) 0.0711(4)
C42_11 C 0.6677(5) 0.1493(4) 0.0793(4)
H37_11 H 0.7025 0.1528 0.0638
C43_11 C 0.6558(6) 0.1788(4) 0.1086(4)
H38_11 H 0.6834 0.2019 0.1144
C44_11 C 0.6401(5) 0.0803(4) 0.0392(4)
C45_11 C 0.6943(5) 0.0588(4) 0.0307(4)
C46_11 C 0.6015(5) 0.0652(4) 0.0086(4)
C47_9 C 0.7507(5) 0.0629(5) 0.0534(5)
H39_9 H 0.7709 0.0338 0.0536
H40_11 H 0.7422 0.0722 0.0809
H41_9 H 0.7759 0.0855 0.0405
C48_11 C 0.5397(6) 0.0742(6) 0.0009(4)
H43_11 H 0.5316 0.1062 0.0058
H44_11 H 0.5154 0.0558 0.0187
N11_5 N 0.4494(3) 0.2861(3) 0.1869(3)
N12_7 N 0.5594(4) 0.2823(3) 0.2487(3)
N9_11 N 0.6328(4) 0.0370(3) 0.9864(3)
H24_11 H 0.6181 0.0226 0.9656
H42_11 H 0.5306 0.0670 0.9730
Zn5_6 Zn 0.24759(5) 0.99545(3) 0.46821(4)
C35_12 C 0.0043(4) 0.2998(4) 0.6239(4)
H29_12 H 0.0399 0.2929 0.6394
H31_12 H 0.0111 0.3269 0.6078
Zn5_7 Zn 0.00241(5) 0.24545(3) 0.71821(4)
O5_12 O 0.7874(3) 0.4565(2) 0.5056(2)
O6_12 O 0.8687(4) 0.4970(3) 0.5177(3)
O7_12 O 0.7065(3) 0.4548(2) 0.4314(2)
O8_12 O 0.6214(3) 0.4894(3) 0.4199(2)
N7_12 N 0.9004(4) 0.3029(3) 0.7042(3)
H23_12 H 0.8876 0.2948 0.7280
N8_10 N 0.9494(3) 0.2861(3) 0.6869(3)
N9_12 N 0.6172(4) 0.2870(3) 0.2364(3)
H24_12 H 0.6319 0.2726 0.2156
C25_12 C 0.8369(6) 0.4630(4) 0.5229(3)
C26_12 C 0.8570(5) 0.4282(4) 0.5528(3)
C27_12 C 0.8208(5) 0.3930(3) 0.5644(3)
H25_12 H 0.7836 0.3895 0.5516
C28_12 C 0.8367(4) 0.3634(4) 0.5934(3)
H26_12 H 0.8105 0.3399 0.6008
C29_12 C 0.8917(5) 0.3672(4) 0.6123(4)
C30_12 C 0.9300(5) 0.4025(4) 0.6008(4)
H27_12 H 0.9671 0.4059 0.6135
C31_12 C 0.9127(5) 0.4326(4) 0.5701(4)
H28_12 H 0.9388 0.4556 0.5614
C32_12 C 0.9048(5) 0.3372(4) 0.6469(3)
C33_12 C 0.9543(4) 0.3076(3) 0.6516(4)
C34_12 C 0.8733(5) 0.3335(4) 0.6807(4)
H30_12 H 0.9951 0.2744 0.6062
C36_12 C 0.8197(6) 0.3574(6) 0.6949(4)
H32_12 H 0.8041 0.3762 0.6732
H33_12 H 0.7899 0.3353 0.7029
H34_12 H 0.8298 0.3764 0.7178
C37_12 C 0.6576(5) 0.4596(4) 0.4141(4)
C38_12 C 0.6468(5) 0.4265(4) 0.3812(3)
C39_12 C 0.6866(5) 0.3916(4) 0.3734(3)
H35_12 H 0.7222 0.3896 0.3883
C40_12 C 0.6743(5) 0.3598(4) 0.3438(3)
H36_12 H 0.7015 0.3362 0.3388
C41_12 C 0.6216(5) 0.3623(4) 0.3211(4)
C42_12 C 0.5823(5) 0.3993(4) 0.3293(4)
H37_12 H 0.5475 0.4028 0.3138
C43_12 C 0.5942(6) 0.4288(4) 0.3586(4)
H38_12 H 0.5666 0.4519 0.3644
C44_12 C 0.6099(5) 0.3303(4) 0.2892(4)
C45_12 C 0.5557(5) 0.3088(4) 0.2807(4)
C46_12 C 0.6485(5) 0.3152(4) 0.2586(4)
C47_10 C 0.4993(5) 0.3129(5) 0.3034(5)
H39_10 H 0.4791 0.2838 0.3036
H40_12 H 0.5078 0.3222 0.3309
H41_10 H 0.4741 0.3355 0.2905
C48_12 C 0.7103(6) 0.3242(6) 0.2509(4)
H42_12 H 0.7194 0.3170 0.2230
H43_12 H 0.7184 0.3562 0.2558
H44_12 H 0.7346 0.3058 0.2687
N11_6 N 0.8006(3) 0.5361(3) 0.4369(3)
O7_13 O 0.0435(3) 0.7048(2) 0.1814(2)
O8_13 O 0.1286(3) 0.7394(3) 0.1699(2)
C37_13 C 0.0924(5) 0.7096(4) 0.1641(4)
C38_13 C 0.1032(5) 0.6765(4) 0.1312(3)
C39_13 C 0.0634(5) 0.6416(4) 0.1234(3)
H35_13 H 0.0278 0.6396 0.1383
C40_13 C 0.0757(5) 0.6098(4) 0.0938(3)
H36_13 H 0.0485 0.5862 0.0888
C41_13 C 0.1284(5) 0.6123(4) 0.0711(4)
C42_13 C 0.1677(5) 0.6493(4) 0.0793(4)
H37_13 H 0.2025 0.6528 0.0638
C43_13 C 0.1558(6) 0.6788(4) 0.1086(4)
H38_13 H 0.1834 0.7019 0.1144
C44_13 C 0.1401(5) 0.5803(4) 0.0392(4)
C45_13 C 0.1943(5) 0.5588(4) 0.0307(4)
C46_13 C 0.1015(5) 0.5652(4) 0.0086(4)
C47_11 C 0.2507(5) 0.5629(5) 0.0534(5)
H39_11 H 0.2709 0.5338 0.0536
H40_13 H 0.2422 0.5722 0.0809
H41_11 H 0.2759 0.5855 0.0405
C48_13 C 0.0397(6) 0.5742(6) 0.0009(4)
H43_13 H 0.0316 0.6062 0.0058
H44_13 H 0.0154 0.5558 0.0187
N12_8 N 0.0594(4) 0.7823(3) 0.2487(3)
N9_13 N 0.1328(4) 0.5370(3) 0.9864(3)
H24_13 H 0.1181 0.5226 0.9656
N10_6 N 0.1906(4) 0.5323(3) 0.9987(3)
H42_13 H 0.0306 0.5670 0.9730
O5_13 O 0.9626(3) 0.7065(2) 0.2556(2)
O6_13 O 0.8813(4) 0.7470(3) 0.2677(3)
N7_13 N 0.8496(4) 0.5529(3) 0.4542(3)
H23_13 H 0.8624 0.5448 0.4780
C25_13 C 0.9131(6) 0.7130(4) 0.2729(3)
C26_13 C 0.8930(5) 0.6782(4) 0.3028(3)
C27_13 C 0.9292(5) 0.6430(3) 0.3144(3)
H25_13 H 0.9664 0.6395 0.3016
C28_13 C 0.9133(4) 0.6134(4) 0.3434(3)
H26_13 H 0.9395 0.5899 0.3508
C29_13 C 0.8583(5) 0.6172(4) 0.3623(4)
C30_13 C 0.8200(5) 0.6525(4) 0.3508(4)
H27_13 H 0.7829 0.6559 0.3635
C31_13 C 0.8373(5) 0.6826(4) 0.3201(4)
H28_13 H 0.8112 0.7056 0.3114
C32_13 C 0.8452(5) 0.5872(4) 0.3969(3)
C33_13 C 0.7957(4) 0.5576(3) 0.4016(4)
C34_13 C 0.8767(5) 0.5835(4) 0.4307(4)
C35_13 C 0.7457(4) 0.5498(4) 0.3739(4)
H29_13 H 0.7101 0.5429 0.3894
H30_13 H 0.7549 0.5244 0.3562
H31_13 H 0.7389 0.5769 0.3578
C36_13 C 0.9303(6) 0.6074(6) 0.4449(4)
H32_13 H 0.9459 0.6262 0.4232
H33_13 H 0.9601 0.5853 0.4529
H34_13 H 0.9202 0.6264 0.4678
N12_9 N 0.1906(4) 0.0323(3) 0.4987(3)
O5_14 O 0.2874(3) 0.9565(2) 0.5056(2)
O6_14 O 0.3687(4) 0.9970(3) 0.5177(3)
O7_14 O 0.2065(3) 0.9548(2) 0.4314(2)
O8_14 O 0.1214(3) 0.9894(3) 0.4199(2)
N7_14 N 0.4004(4) 0.8029(3) 0.7042(3)
H23_14 H 0.3876 0.7948 0.7280
N9_14 N 0.1172(4) 0.7870(3) 0.2364(3)
H24_14 H 0.1319 0.7726 0.2156
C25_14 C 0.3369(6) 0.9630(4) 0.5229(3)
C26_14 C 0.3570(5) 0.9282(4) 0.5528(3)
C27_14 C 0.3208(5) 0.8930(3) 0.5644(3)
H25_14 H 0.2836 0.8895 0.5516
C28_14 C 0.3367(4) 0.8634(4) 0.5934(3)
H26_14 H 0.3105 0.8399 0.6008
C29_14 C 0.3917(5) 0.8672(4) 0.6123(4)
C30_14 C 0.4300(5) 0.9025(4) 0.6008(4)
H27_14 H 0.4671 0.9059 0.6135
C31_14 C 0.4127(5) 0.9326(4) 0.5701(4)
H28_14 H 0.4388 0.9556 0.5614
C32_14 C 0.4048(5) 0.8372(4) 0.6469(3)
C33_14 C 0.4543(4) 0.8076(3) 0.6516(4)
C34_14 C 0.3733(5) 0.8335(4) 0.6807(4)
C35_14 C 0.5043(4) 0.7998(4) 0.6239(4)
H29_14 H 0.5399 0.7929 0.6394
H30_14 H 0.4951 0.7744 0.6062
H31_14 H 0.5111 0.8269 0.6078
C36_14 C 0.3197(6) 0.8574(6) 0.6949(4)
H32_14 H 0.3041 0.8762 0.6732
H33_14 H 0.2899 0.8353 0.7029
H34_14 H 0.3298 0.8764 0.7178
C37_14 C 0.1576(5) 0.9596(4) 0.4141(4)
C38_14 C 0.1468(5) 0.9265(4) 0.3812(3)
C39_14 C 0.1866(5) 0.8916(4) 0.3734(3)
H35_14 H 0.2222 0.8896 0.3883
C40_14 C 0.1743(5) 0.8598(4) 0.3438(3)
H36_14 H 0.2015 0.8362 0.3388
C41_14 C 0.1216(5) 0.8623(4) 0.3211(4)
C42_14 C 0.0823(5) 0.8993(4) 0.3293(4)
H37_14 H 0.0475 0.9028 0.3138
C43_14 C 0.0942(6) 0.9288(4) 0.3586(4)
H38_14 H 0.0666 0.9519 0.3644
C44_14 C 0.1099(5) 0.8303(4) 0.2892(4)
C45_14 C 0.0557(5) 0.8088(4) 0.2807(4)
C46_14 C 0.1485(5) 0.8152(4) 0.2586(4)
H40_14 H 0.0078 0.8222 0.3309
C48_14 C 0.2103(6) 0.8242(6) 0.2509(4)
H42_14 H 0.2194 0.8170 0.2230
H43_14 H 0.2184 0.8562 0.2558
H44_14 H 0.2346 0.8058 0.2687
O7_15 O 0.0435(3) 0.2048(2) 0.6814(2)
O8_15 O 0.1286(3) 0.2394(3) 0.6699(2)
N9_15 N 0.1328(4) 0.0370(3) 0.4864(3)
H24_15 H 0.1181 0.0226 0.4656
C37_15 C 0.0924(5) 0.2096(4) 0.6641(4)
C38_15 C 0.1032(5) 0.1765(4) 0.6312(3)
C39_15 C 0.0634(5) 0.1416(4) 0.6234(3)
H35_15 H 0.0278 0.1396 0.6383
C40_15 C 0.0757(5) 0.1098(4) 0.5938(3)
H36_15 H 0.0485 0.0862 0.5888
C41_15 C 0.1284(5) 0.1123(4) 0.5711(4)
C42_15 C 0.1677(5) 0.1493(4) 0.5793(4)
H37_15 H 0.2025 0.1528 0.5638
C43_15 C 0.1558(6) 0.1788(4) 0.6086(4)
H38_15 H 0.1834 0.2019 0.6144
C44_15 C 0.1401(5) 0.0803(4) 0.5392(4)
C45_15 C 0.1943(5) 0.0588(4) 0.5307(4)
C46_15 C 0.1015(5) 0.0652(4) 0.5086(4)
C47_12 C 0.2507(5) 0.0629(5) 0.5534(5)
H39_12 H 0.2709 0.0338 0.5536
H40_15 H 0.2422 0.0722 0.5809
H41_12 H 0.2759 0.0855 0.5405
C48_15 C 0.0397(6) 0.0742(6) 0.5009(4)
H42_15 H 0.0306 0.0670 0.4730
H43_15 H 0.0316 0.1062 0.5058
H44_15 H 0.0154 0.0558 0.5187
N12_10 N 0.0594(4) 0.2823(3) 0.7487(3)
O5_15 O 0.9626(3) 0.2065(2) 0.7556(2)
O6_15 O 0.8813(4) 0.2470(3) 0.7677(3)
N7_15 N 0.8496(4) 0.0529(3) 0.9542(3)
H23_15 H 0.8624 0.0448 0.9780
C25_15 C 0.9131(6) 0.2130(4) 0.7729(3)
C26_15 C 0.8930(5) 0.1782(4) 0.8028(3)
C27_15 C 0.9292(5) 0.1430(3) 0.8144(3)
H25_15 H 0.9664 0.1395 0.8016
C28_15 C 0.9133(4) 0.1134(4) 0.8434(3)
H26_15 H 0.9395 0.0899 0.8508
C29_15 C 0.8583(5) 0.1172(4) 0.8623(4)
C30_15 C 0.8200(5) 0.1525(4) 0.8508(4)
H27_15 H 0.7829 0.1559 0.8635
C31_15 C 0.8373(5) 0.1826(4) 0.8201(4)
H28_15 H 0.8112 0.2056 0.8114
C32_15 C 0.8452(5) 0.0872(4) 0.8969(3)
C33_15 C 0.7957(4) 0.0576(3) 0.9016(4)
C34_15 C 0.8767(5) 0.0835(4) 0.9307(4)
C35_15 C 0.7457(4) 0.0498(4) 0.8739(4)
H29_15 H 0.7101 0.0429 0.8894
H30_15 H 0.7549 0.0244 0.8562
H31_15 H 0.7389 0.0769 0.8578
C36_15 C 0.9303(6) 0.1074(6) 0.9449(4)
H32_15 H 0.9459 0.1262 0.9232
H33_15 H 0.9601 0.0853 0.9529
H34_15 H 0.9202 0.1264 0.9678
O5_16 O 0.2874(3) 0.4565(2) 0.0056(2)
O6_16 O 0.3687(4) 0.4970(3) 0.0177(3)
N7_16 N 0.4004(4) 0.3029(3) 0.2042(3)
H23_16 H 0.3876 0.2948 0.2280
C25_16 C 0.3369(6) 0.4630(4) 0.0229(3)
C26_16 C 0.3570(5) 0.4282(4) 0.0528(3)
C27_16 C 0.3208(5) 0.3930(3) 0.0644(3)
H25_16 H 0.2836 0.3895 0.0516
C28_16 C 0.3367(4) 0.3634(4) 0.0934(3)
H26_16 H 0.3105 0.3399 0.1008
C29_16 C 0.3917(5) 0.3672(4) 0.1123(4)
C30_16 C 0.4300(5) 0.4025(4) 0.1008(4)
H27_16 H 0.4671 0.4059 0.1135
C31_16 C 0.4127(5) 0.4326(4) 0.0701(4)
H28_16 H 0.4388 0.4556 0.0614
C32_16 C 0.4048(5) 0.3372(4) 0.1469(3)
C33_16 C 0.4543(4) 0.3076(3) 0.1516(4)
C34_16 C 0.3733(5) 0.3335(4) 0.1807(4)
C35_16 C 0.5043(4) 0.2998(4) 0.1239(4)
H29_16 H 0.5399 0.2929 0.1394
H30_16 H 0.4951 0.2744 0.1062
H31_16 H 0.5111 0.3269 0.1078
C36_16 C 0.3197(6) 0.3574(6) 0.1949(4)
H32_16 H 0.3041 0.3762 0.1732
H33_16 H 0.2899 0.3353 0.2029
H34_16 H 0.3298 0.3764 0.2178
O7_16 O 0.2065(3) 0.4548(2) 0.9314(2)
O8_16 O 0.1214(3) 0.4894(3) 0.9199(2)
N9_16 N 0.1172(4) 0.2870(3) 0.7364(3)
H24_16 H 0.1319 0.2726 0.7156
C37_16 C 0.1576(5) 0.4596(4) 0.9141(4)
C38_16 C 0.1468(5) 0.4265(4) 0.8812(3)
C39_16 C 0.1866(5) 0.3916(4) 0.8734(3)
H35_16 H 0.2222 0.3896 0.8883
C40_16 C 0.1743(5) 0.3598(4) 0.8438(3)
H36_16 H 0.2015 0.3362 0.8388
C41_16 C 0.1216(5) 0.3623(4) 0.8211(4)
C42_16 C 0.0823(5) 0.3993(4) 0.8293(4)
H37_16 H 0.0475 0.4028 0.8138
C43_16 C 0.0942(6) 0.4288(4) 0.8586(4)
H38_16 H 0.0666 0.4519 0.8644
C44_16 C 0.1099(5) 0.3303(4) 0.7892(4)
C45_16 C 0.0557(5) 0.3088(4) 0.7807(4)
C46_16 C 0.1485(5) 0.3152(4) 0.7586(4)
H40_16 H 0.0078 0.3222 0.8309
C48_16 C 0.2103(6) 0.3242(6) 0.7509(4)
H42_16 H 0.2194 0.3170 0.7230
H43_16 H 0.2184 0.3562 0.7558
H44_16 H 0.2346 0.3058 0.7687
C47_13 C 0.0007(5) 0.6871(5) 0.8034(5)
H39_13 H 0.0209 0.7162 0.8036
H41_13 H 0.0259 0.6645 0.7905
C47_14 C 0.0007(5) 0.1871(5) 0.3034(5)
H39_14 H 0.0209 0.2162 0.3036
H41_14 H 0.0259 0.1645 0.2905
C47_15 C 0.9993(5) 0.8129(5) 0.3034(5)
H39_15 H 0.9791 0.7838 0.3036
H41_15 H 0.9741 0.8355 0.2905
C47_16 C 0.9993(5) 0.3129(5) 0.8034(5)
H39_16 H 0.9791 0.2838 0.8036
H41_16 H 0.9741 0.3355 0.7905
C59 C 0.0072(5) 0.0667(6) 0.7096(4)
H50 H 0.0377 0.0492 0.7234
H51 H 0.0185 0.0986 0.7093
H52 H 0.0033 0.0559 0.6820
Zn8 Zn -0.0000 0.0000 0.79552(6)
O9 O 0.0375(4) 0.0447(4) 0.8283(3)
O10 O 0.1224(4) 0.0110(4) 0.8385(3)
C49 C 0.0874(6) 0.0411(4) 0.8455(4)
C50 C 0.1015(5) 0.0755(4) 0.8772(3)
C51 C 0.0652(5) 0.1134(5) 0.8849(4)
H46 H 0.0304 0.1174 0.8696
C52 C 0.0795(5) 0.1446(5) 0.9142(4)
H47 H 0.0561 0.1709 0.9179
C53 C 0.1294(5) 0.1366(4) 0.9386(4)
C54 C 0.1678(6) 0.1024(4) 0.9304(4)
H48 H 0.2033 0.0992 0.9452
C55 C 0.1534(5) 0.0717(4) 0.8993(4)
H49 H 0.1799 0.0479 0.8934
C56 C 0.1435(5) 0.1688(4) 0.9708(4)
C57 C 0.1985(5) 0.1887(5) 0.9814(4)
C59_2 C 0.2572(5) 0.1833(6) 0.9596(4)
H50_2 H 0.2877 0.2008 0.9734
H51_2 H 0.2685 0.1514 0.9593
H52_2 H 0.2533 0.1941 0.9320
H54 H 0.0171 0.2022 0.9955
H55 H 0.0289 0.1492 0.9928
Zn8_2 Zn -0.0000 1.0000 0.79552(6)
Zn7 Zn 0.7500 0.2500 0.54552(6)
O9_2 O 0.7875(4) 0.2053(4) 0.5783(3)
O10_2 O 0.8724(4) 0.2390(4) 0.5885(3)
N13 N 0.8857(4) 0.0372(3) 0.7730(3)
H45 H 0.8705 0.0218 0.7930
N14 N 0.9435(3) 0.0355(3) 0.7624(3)
C49_2 C 0.8374(6) 0.2089(4) 0.5955(4)
C50_2 C 0.8515(5) 0.1745(4) 0.6272(3)
C51_2 C 0.8152(5) 0.1366(5) 0.6349(4)
H46_2 H 0.7804 0.1326 0.6196
C52_2 C 0.8295(5) 0.1054(5) 0.6642(4)
H47_2 H 0.8061 0.0791 0.6679
C53_2 C 0.8794(5) 0.1134(4) 0.6886(4)
C54_2 C 0.9178(6) 0.1476(4) 0.6804(4)
H48_2 H 0.9533 0.1508 0.6952
C55_2 C 0.9034(5) 0.1783(4) 0.6493(4)
H49_2 H 0.9299 0.2021 0.6434
C56_2 C 0.8935(5) 0.0812(4) 0.7208(4)
C57_2 C 0.9485(5) 0.0613(5) 0.7314(4)
C58 C 0.8557(5) 0.0639(4) 0.7507(3)
C60 C 0.7898(5) 0.0729(5) 0.7566(4)
H53 H 0.7813 0.0759 0.7852
H54_2 H 0.7671 0.0478 0.7455
H55_2 H 0.7789 0.1008 0.7428
O11 O 0.7125(4) 0.2947(4) 0.5783(3)
O12 O 0.6276(4) 0.2610(4) 0.5885(3)
N15 N 0.6143(4) 0.4628(3) 0.7730(3)
H56 H 0.6295 0.4782 0.7930
N16 N 0.5565(3) 0.4645(3) 0.7624(3)
C61 C 0.6626(6) 0.2911(4) 0.5955(4)
C62 C 0.6485(5) 0.3255(4) 0.6272(3)
C63 C 0.6848(5) 0.3634(5) 0.6349(4)
H57 H 0.7196 0.3674 0.6196
C64 C 0.6705(5) 0.3946(5) 0.6642(4)
H58 H 0.6939 0.4209 0.6679
C65 C 0.6206(5) 0.3866(4) 0.6886(4)
C66 C 0.5822(6) 0.3524(4) 0.6804(4)
H59 H 0.5467 0.3492 0.6952
C67 C 0.5966(5) 0.3217(4) 0.6493(4)
H60 H 0.5701 0.2979 0.6434
C68 C 0.6065(5) 0.4188(4) 0.7208(4)
C69 C 0.5515(5) 0.4387(5) 0.7314(4)
C70 C 0.6443(5) 0.4361(4) 0.7507(3)
C71 C 0.4928(5) 0.4333(6) 0.7096(4)
H61 H 0.4623 0.4508 0.7234
H62 H 0.4815 0.4014 0.7093
H63 H 0.4967 0.4441 0.6820
C72 C 0.7102(5) 0.4271(5) 0.7566(4)
H64 H 0.7187 0.4241 0.7852
H65 H 0.7329 0.4522 0.7455
H66 H 0.7211 0.3992 0.7428
Zn8_3 Zn 1.0000 0.0000 0.79552(6)
Zn9 Zn 0.5000 0.5000 0.79552(6)
N17 N 0.6935(3) 0.2145(3) 0.5124(3)
N18 N 0.8065(3) 0.2855(3) 0.5124(3)
Zn7_2 Zn 0.2500 0.7500 0.54552(6)
O9_3 O 0.2125(4) 0.7947(4) 0.5783(3)
O10_3 O 0.1276(4) 0.7610(4) 0.5885(3)
N13_2 N 0.1143(4) 0.9628(3) 0.7730(3)
H45_2 H 0.1295 0.9782 0.7930
N14_2 N 0.0565(3) 0.9645(3) 0.7624(3)
C49_3 C 0.1626(6) 0.7911(4) 0.5955(4)
C50_3 C 0.1485(5) 0.8255(4) 0.6272(3)
C51_3 C 0.1848(5) 0.8634(5) 0.6349(4)
H46_3 H 0.2196 0.8674 0.6196
C52_3 C 0.1705(5) 0.8946(5) 0.6642(4)
H47_3 H 0.1939 0.9209 0.6679
C53_3 C 0.1206(5) 0.8866(4) 0.6886(4)
C54_3 C 0.0822(6) 0.8524(4) 0.6804(4)
H48_3 H 0.0467 0.8492 0.6952
C55_3 C 0.0966(5) 0.8217(4) 0.6493(4)
H49_3 H 0.0701 0.7979 0.6434
C56_3 C 0.1065(5) 0.9188(4) 0.7208(4)
C57_3 C 0.0515(5) 0.9387(5) 0.7314(4)
C58_2 C 0.1443(5) 0.9361(4) 0.7507(3)
C60_2 C 0.2102(5) 0.9271(5) 0.7566(4)
H53_2 H 0.2187 0.9241 0.7852
H54_3 H 0.2329 0.9522 0.7455
H55_3 H 0.2211 0.8992 0.7428
O11_2 O 0.2875(4) 0.7053(4) 0.5783(3)
O12_2 O 0.3724(4) 0.7390(4) 0.5885(3)
N15_2 N 0.3857(4) 0.5372(3) 0.7730(3)
H56_2 H 0.3705 0.5218 0.7930
N16_2 N 0.4435(3) 0.5355(3) 0.7624(3)
C61_2 C 0.3374(6) 0.7089(4) 0.5955(4)
C62_2 C 0.3515(5) 0.6745(4) 0.6272(3)
C63_2 C 0.3152(5) 0.6366(5) 0.6349(4)
H57_2 H 0.2804 0.6326 0.6196
C64_2 C 0.3295(5) 0.6054(5) 0.6642(4)
H58_2 H 0.3061 0.5791 0.6679
C65_2 C 0.3794(5) 0.6134(4) 0.6886(4)
C66_2 C 0.4178(6) 0.6476(4) 0.6804(4)
H59_2 H 0.4533 0.6508 0.6952
C67_2 C 0.4034(5) 0.6783(4) 0.6493(4)
H60_2 H 0.4299 0.7021 0.6434
C68_2 C 0.3935(5) 0.5812(4) 0.7208(4)
C69_2 C 0.4485(5) 0.5613(5) 0.7314(4)
C70_2 C 0.3557(5) 0.5639(4) 0.7507(3)
C71_2 C 0.5072(5) 0.5667(6) 0.7096(4)
H61_2 H 0.5377 0.5492 0.7234
H62_2 H 0.5185 0.5986 0.7093
H63_2 H 0.5033 0.5559 0.6820
C72_2 C 0.2898(5) 0.5729(5) 0.7566(4)
H64_2 H 0.2813 0.5759 0.7852
H65_2 H 0.2671 0.5478 0.7455
H66_2 H 0.2789 0.6008 0.7428
N17_2 N 0.3065(3) 0.7855(3) 0.5124(3)
N18_2 N 0.1935(3) 0.7145(3) 0.5124(3)
N13_3 N 0.1357(4) 0.2128(3) 0.0230(3)
H45_3 H 0.1205 0.2282 0.0430
N14_3 N 0.1935(3) 0.2145(3) 0.0124(3)
C58_3 C 0.1057(5) 0.1861(4) 0.0007(3)
C60_3 C 0.0398(5) 0.1771(5) 0.0066(4)
H53_3 H 0.0313 0.1741 0.0352
Zn8_4 Zn 0.2500 0.2500 0.04552(6)
N15_3 N 0.8643(4) 0.7872(3) 0.0230(3)
H56_3 H 0.8795 0.7718 0.0430
N16_3 N 0.8065(3) 0.7855(3) 0.0124(3)
C70_3 C 0.8943(5) 0.8139(4) 0.0007(3)
C72_3 C 0.9602(5) 0.8229(5) 0.0066(4)
H64_3 H 0.9687 0.8259 0.0352
Zn9_2 Zn 0.7500 0.7500 0.04552(6)
N13_4 N 0.3643(4) 0.2872(3) 0.0230(3)
H45_4 H 0.3795 0.2718 0.0430
N14_4 N 0.3065(3) 0.2855(3) 0.0124(3)
C58_4 C 0.3943(5) 0.3139(4) 0.0007(3)
C60_4 C 0.4602(5) 0.3229(5) 0.0066(4)
H53_4 H 0.4687 0.3259 0.0352
N15_4 N 0.6357(4) 0.7128(3) 0.0230(3)
H56_4 H 0.6205 0.7282 0.0430
N16_4 N 0.6935(3) 0.7145(3) 0.0124(3)
C70_4 C 0.6057(5) 0.6861(4) 0.0007(3)
C72_4 C 0.5398(5) 0.6771(5) 0.0066(4)
H64_4 H 0.5313 0.6741 0.0352
O9_4 O 0.4625(4) 0.4553(4) 0.8283(3)
O10_4 O 0.3776(4) 0.4890(4) 0.8385(3)
C49_4 C 0.4126(6) 0.4589(4) 0.8455(4)
C50_4 C 0.3985(5) 0.4245(4) 0.8772(3)
C51_4 C 0.4348(5) 0.3866(5) 0.8849(4)
H46_4 H 0.4696 0.3826 0.8696
C52_4 C 0.4205(5) 0.3554(5) 0.9142(4)
H47_4 H 0.4439 0.3291 0.9179
C53_4 C 0.3706(5) 0.3634(4) 0.9386(4)
C54_4 C 0.3322(6) 0.3976(4) 0.9304(4)
H48_4 H 0.2967 0.4008 0.9452
C55_4 C 0.3466(5) 0.4283(4) 0.8993(4)
H49_4 H 0.3201 0.4521 0.8934
C56_4 C 0.3565(5) 0.3312(4) 0.9708(4)
C57_4 C 0.3015(5) 0.3113(5) 0.9814(4)
C59_3 C 0.2428(5) 0.3167(6) 0.9596(4)
H50_3 H 0.2123 0.2992 0.9734
H51_3 H 0.2315 0.3486 0.9593
H52_3 H 0.2467 0.3059 0.9320
H54_4 H 0.4829 0.2978 0.9955
H55_4 H 0.4711 0.3508 0.9928
O11_3 O 0.5375(4) 0.5447(4) 0.8283(3)
O12_3 O 0.6224(4) 0.5110(4) 0.8385(3)
C61_3 C 0.5874(6) 0.5411(4) 0.8455(4)
C62_3 C 0.6015(5) 0.5755(4) 0.8772(3)
C63_3 C 0.5652(5) 0.6134(5) 0.8849(4)
H57_3 H 0.5304 0.6174 0.8696
C64_3 C 0.5795(5) 0.6446(5) 0.9142(4)
H58_3 H 0.5561 0.6709 0.9179
C65_3 C 0.6294(5) 0.6366(4) 0.9386(4)
C66_3 C 0.6678(6) 0.6024(4) 0.9304(4)
H59_3 H 0.7033 0.5992 0.9452
C67_3 C 0.6534(5) 0.5717(4) 0.8993(4)
H60_3 H 0.6799 0.5479 0.8934
C68_3 C 0.6435(5) 0.6688(4) 0.9708(4)
C69_3 C 0.6985(5) 0.6887(5) 0.9814(4)
C71_3 C 0.7572(5) 0.6833(6) 0.9596(4)
H61_3 H 0.7877 0.7008 0.9734
H62_3 H 0.7685 0.6514 0.9593
H63_3 H 0.7533 0.6941 0.9320
H65_3 H 0.5171 0.7022 0.9955
H66_3 H 0.5289 0.6492 0.9928
C59_4 C 0.0072(5) 0.5667(6) 0.2096(4)
H50_4 H 0.0377 0.5492 0.2234
H51_4 H 0.0185 0.5986 0.2093
H52_4 H 0.0033 0.5559 0.1820
Zn8_5 Zn -0.0000 0.5000 0.29552(6)
Zn9_3 Zn 0.5000 0.0000 0.29552(6)
O9_5 O 0.7875(4) 0.7053(4) 0.0783(3)
O10_5 O 0.8724(4) 0.7390(4) 0.0885(3)
N13_5 N 0.8857(4) 0.5372(3) 0.2730(3)
H45_5 H 0.8705 0.5218 0.2930
N14_5 N 0.9435(3) 0.5355(3) 0.2624(3)
C49_5 C 0.8374(6) 0.7089(4) 0.0955(4)
C50_5 C 0.8515(5) 0.6745(4) 0.1272(3)
C51_5 C 0.8152(5) 0.6366(5) 0.1349(4)
H46_5 H 0.7804 0.6326 0.1196
C52_5 C 0.8295(5) 0.6054(5) 0.1642(4)
H47_5 H 0.8061 0.5791 0.1679
C53_5 C 0.8794(5) 0.6134(4) 0.1886(4)
C54_5 C 0.9178(6) 0.6476(4) 0.1804(4)
H48_5 H 0.9533 0.6508 0.1952
C55_5 C 0.9034(5) 0.6783(4) 0.1493(4)
H49_5 H 0.9299 0.7021 0.1434
C56_5 C 0.8935(5) 0.5812(4) 0.2208(4)
C57_5 C 0.9485(5) 0.5613(5) 0.2314(4)
C58_5 C 0.8557(5) 0.5639(4) 0.2507(3)
C60_5 C 0.7898(5) 0.5729(5) 0.2566(4)
H53_5 H 0.7813 0.5759 0.2852
H54_5 H 0.7671 0.5478 0.2455
H55_5 H 0.7789 0.6008 0.2428
O11_4 O 0.7125(4) 0.7947(4) 0.0783(3)
O12_4 O 0.6276(4) 0.7610(4) 0.0885(3)
N15_5 N 0.6143(4) 0.9628(3) 0.2730(3)
H56_5 H 0.6295 0.9782 0.2930
N16_5 N 0.5565(3) 0.9645(3) 0.2624(3)
C61_4 C 0.6626(6) 0.7911(4) 0.0955(4)
C62_4 C 0.6485(5) 0.8255(4) 0.1272(3)
C63_4 C 0.6848(5) 0.8634(5) 0.1349(4)
H57_4 H 0.7196 0.8674 0.1196
C64_4 C 0.6705(5) 0.8946(5) 0.1642(4)
H58_4 H 0.6939 0.9209 0.1679
C65_4 C 0.6206(5) 0.8866(4) 0.1886(4)
C66_4 C 0.5822(6) 0.8524(4) 0.1804(4)
H59_4 H 0.5467 0.8492 0.1952
C67_4 C 0.5966(5) 0.8217(4) 0.1493(4)
H60_4 H 0.5701 0.7979 0.1434
C68_4 C 0.6065(5) 0.9188(4) 0.2208(4)
C69_4 C 0.5515(5) 0.9387(5) 0.2314(4)
C70_5 C 0.6443(5) 0.9361(4) 0.2507(3)
C71_4 C 0.4928(5) 0.9333(6) 0.2096(4)
H61_4 H 0.4623 0.9508 0.2234
H62_4 H 0.4815 0.9014 0.2093
H63_4 H 0.4967 0.9441 0.1820
C72_5 C 0.7102(5) 0.9271(5) 0.2566(4)
H64_5 H 0.7187 0.9241 0.2852
H65_4 H 0.7329 0.9522 0.2455
H66_4 H 0.7211 0.8992 0.2428
Zn8_6 Zn 1.0000 0.5000 0.29552(6)
Zn9_4 Zn 0.5000 1.0000 0.29552(6)
O9_6 O 0.2125(4) 0.2947(4) 0.0783(3)
O10_6 O 0.1276(4) 0.2610(4) 0.0885(3)
N13_6 N 0.1143(4) 0.4628(3) 0.2730(3)
H45_6 H 0.1295 0.4782 0.2930
N14_6 N 0.0565(3) 0.4645(3) 0.2624(3)
C49_6 C 0.1626(6) 0.2911(4) 0.0955(4)
C50_6 C 0.1485(5) 0.3255(4) 0.1272(3)
C51_6 C 0.1848(5) 0.3634(5) 0.1349(4)
H46_6 H 0.2196 0.3674 0.1196
C52_6 C 0.1705(5) 0.3946(5) 0.1642(4)
H47_6 H 0.1939 0.4209 0.1679
C53_6 C 0.1206(5) 0.3866(4) 0.1886(4)
C54_6 C 0.0822(6) 0.3524(4) 0.1804(4)
H48_6 H 0.0467 0.3492 0.1952
C55_6 C 0.0966(5) 0.3217(4) 0.1493(4)
H49_6 H 0.0701 0.2979 0.1434
C56_6 C 0.1065(5) 0.4188(4) 0.2208(4)
C57_6 C 0.0515(5) 0.4387(5) 0.2314(4)
C58_6 C 0.1443(5) 0.4361(4) 0.2507(3)
C60_6 C 0.2102(5) 0.4271(5) 0.2566(4)
H53_6 H 0.2187 0.4241 0.2852
H54_6 H 0.2329 0.4522 0.2455
H55_6 H 0.2211 0.3992 0.2428
O11_5 O 0.2875(4) 0.2053(4) 0.0783(3)
O12_5 O 0.3724(4) 0.2390(4) 0.0885(3)
N15_6 N 0.3857(4) 0.0372(3) 0.2730(3)
H56_6 H 0.3705 0.0218 0.2930
N16_6 N 0.4435(3) 0.0355(3) 0.2624(3)
C61_5 C 0.3374(6) 0.2089(4) 0.0955(4)
C62_5 C 0.3515(5) 0.1745(4) 0.1272(3)
C63_5 C 0.3152(5) 0.1366(5) 0.1349(4)
H57_5 H 0.2804 0.1326 0.1196
C64_5 C 0.3295(5) 0.1054(5) 0.1642(4)
H58_5 H 0.3061 0.0791 0.1679
C65_5 C 0.3794(5) 0.1134(4) 0.1886(4)
C66_5 C 0.4178(6) 0.1476(4) 0.1804(4)
H59_5 H 0.4533 0.1508 0.1952
C67_5 C 0.4034(5) 0.1783(4) 0.1493(4)
H60_5 H 0.4299 0.2021 0.1434
C68_5 C 0.3935(5) 0.0812(4) 0.2208(4)
C69_5 C 0.4485(5) 0.0613(5) 0.2314(4)
C70_6 C 0.3557(5) 0.0639(4) 0.2507(3)
C71_5 C 0.5072(5) 0.0667(6) 0.2096(4)
H61_5 H 0.5377 0.0492 0.2234
H62_5 H 0.5185 0.0986 0.2093
H63_5 H 0.5033 0.0559 0.1820
C72_6 C 0.2898(5) 0.0729(5) 0.2566(4)
H64_6 H 0.2813 0.0759 0.2852
H65_5 H 0.2671 0.0478 0.2455
H66_5 H 0.2789 0.1008 0.2428
C59_5 C 0.9928(5) 0.4333(6) 0.2096(4)
H50_5 H 0.9623 0.4508 0.2234
H51_5 H 0.9815 0.4014 0.2093
H52_5 H 0.9967 0.4441 0.1820
O9_7 O 0.0375(4) 0.5447(4) 0.3283(3)
O10_7 O 0.1224(4) 0.5110(4) 0.3385(3)
N13_7 N 0.1357(4) 0.7128(3) 0.5230(3)
H45_7 H 0.1205 0.7282 0.5430
C49_7 C 0.0874(6) 0.5411(4) 0.3455(4)
C50_7 C 0.1015(5) 0.5755(4) 0.3772(3)
C51_7 C 0.0652(5) 0.6134(5) 0.3849(4)
H46_7 H 0.0304 0.6174 0.3696
C52_7 C 0.0795(5) 0.6446(5) 0.4142(4)
H47_7 H 0.0561 0.6709 0.4179
C53_7 C 0.1294(5) 0.6366(4) 0.4386(4)
C54_7 C 0.1678(6) 0.6024(4) 0.4304(4)
H48_7 H 0.2033 0.5992 0.4452
C55_7 C 0.1534(5) 0.5717(4) 0.3993(4)
H49_7 H 0.1799 0.5479 0.3934
C56_7 C 0.1435(5) 0.6688(4) 0.4708(4)
C57_7 C 0.1985(5) 0.6887(5) 0.4814(4)
C58_7 C 0.1057(5) 0.6861(4) 0.5007(3)
C59_6 C 0.2572(5) 0.6833(6) 0.4596(4)
H50_6 H 0.2877 0.7008 0.4734
H51_6 H 0.2685 0.6514 0.4593
H52_6 H 0.2533 0.6941 0.4320
C60_7 C 0.0398(5) 0.6771(5) 0.5066(4)
H53_7 H 0.0313 0.6741 0.5352
H54_7 H 0.0171 0.7022 0.4955
H55_7 H 0.0289 0.6492 0.4928
O11_6 O 0.9625(4) 0.4553(4) 0.3283(3)
O12_6 O 0.8776(4) 0.4890(4) 0.3385(3)
N15_7 N 0.8643(4) 0.2872(3) 0.5230(3)
H56_7 H 0.8795 0.2718 0.5430
C61_6 C 0.9126(6) 0.4589(4) 0.3455(4)
C62_6 C 0.8985(5) 0.4245(4) 0.3772(3)
C63_6 C 0.9348(5) 0.3866(5) 0.3849(4)
H57_6 H 0.9696 0.3826 0.3696
C64_6 C 0.9205(5) 0.3554(5) 0.4142(4)
H58_6 H 0.9439 0.3291 0.4179
C65_6 C 0.8706(5) 0.3634(4) 0.4386(4)
C66_6 C 0.8322(6) 0.3976(4) 0.4304(4)
H59_6 H 0.7967 0.4008 0.4452
C67_6 C 0.8466(5) 0.4283(4) 0.3993(4)
H60_6 H 0.8201 0.4521 0.3934
C68_6 C 0.8565(5) 0.3312(4) 0.4708(4)
C69_6 C 0.8015(5) 0.3113(5) 0.4814(4)
C70_7 C 0.8943(5) 0.3139(4) 0.5007(3)
C71_6 C 0.7428(5) 0.3167(6) 0.4596(4)
H61_6 H 0.7123 0.2992 0.4734
H62_6 H 0.7315 0.3486 0.4593
H63_6 H 0.7467 0.3059 0.4320
C72_7 C 0.9602(5) 0.3229(5) 0.5066(4)
H64_7 H 0.9687 0.3259 0.5352
H65_6 H 0.9829 0.2978 0.4955
H66_6 H 0.9711 0.3508 0.4928
O11_7 O 0.5375(4) 0.0447(4) 0.3283(3)
O12_7 O 0.6224(4) 0.0110(4) 0.3385(3)
N15_8 N 0.6357(4) 0.2128(3) 0.5230(3)
H56_8 H 0.6205 0.2282 0.5430
C61_7 C 0.5874(6) 0.0411(4) 0.3455(4)
C62_7 C 0.6015(5) 0.0755(4) 0.3772(3)
C63_7 C 0.5652(5) 0.1134(5) 0.3849(4)
H57_7 H 0.5304 0.1174 0.3696
C64_7 C 0.5795(5) 0.1446(5) 0.4142(4)
H58_7 H 0.5561 0.1709 0.4179
C65_7 C 0.6294(5) 0.1366(4) 0.4386(4)
C66_7 C 0.6678(6) 0.1024(4) 0.4304(4)
H59_7 H 0.7033 0.0992 0.4452
C67_7 C 0.6534(5) 0.0717(4) 0.3993(4)
H60_7 H 0.6799 0.0479 0.3934
C68_7 C 0.6435(5) 0.1688(4) 0.4708(4)
C69_7 C 0.6985(5) 0.1887(5) 0.4814(4)
C70_8 C 0.6057(5) 0.1861(4) 0.5007(3)
C71_7 C 0.7572(5) 0.1833(6) 0.4596(4)
H61_7 H 0.7877 0.2008 0.4734
H62_7 H 0.7685 0.1514 0.4593
H63_7 H 0.7533 0.1941 0.4320
C72_8 C 0.5398(5) 0.1771(5) 0.5066(4)
H64_8 H 0.5313 0.1741 0.5352
H65_7 H 0.5171 0.2022 0.4955
H66_7 H 0.5289 0.1492 0.4928
O9_8 O 0.4625(4) 0.9553(4) 0.3283(3)
O10_8 O 0.3776(4) 0.9890(4) 0.3385(3)
N13_8 N 0.3643(4) 0.7872(3) 0.5230(3)
H45_8 H 0.3795 0.7718 0.5430
C49_8 C 0.4126(6) 0.9589(4) 0.3455(4)
C50_8 C 0.3985(5) 0.9245(4) 0.3772(3)
C51_8 C 0.4348(5) 0.8866(5) 0.3849(4)
H46_8 H 0.4696 0.8826 0.3696
C52_8 C 0.4205(5) 0.8554(5) 0.4142(4)
H47_8 H 0.4439 0.8291 0.4179
C53_8 C 0.3706(5) 0.8634(4) 0.4386(4)
C54_8 C 0.3322(6) 0.8976(4) 0.4304(4)
H48_8 H 0.2967 0.9008 0.4452
C55_8 C 0.3466(5) 0.9283(4) 0.3993(4)
H49_8 H 0.3201 0.9521 0.3934
C56_8 C 0.3565(5) 0.8312(4) 0.4708(4)
C57_8 C 0.3015(5) 0.8113(5) 0.4814(4)
C58_8 C 0.3943(5) 0.8139(4) 0.5007(3)
C59_7 C 0.2428(5) 0.8167(6) 0.4596(4)
H50_7 H 0.2123 0.7992 0.4734
H51_7 H 0.2315 0.8486 0.4593
H52_7 H 0.2467 0.8059 0.4320
C60_8 C 0.4602(5) 0.8229(5) 0.5066(4)
H53_8 H 0.4687 0.8259 0.5352
H54_8 H 0.4829 0.7978 0.4955
H55_8 H 0.4711 0.8508 0.4928
Zn8_7 Zn 1.0000 1.0000 0.79552(6)
C59_8 C 0.9928(5) 0.9333(6) 0.7096(4)
H50_8 H 0.9623 0.9508 0.7234
H51_8 H 0.9815 0.9014 0.7093
H52_8 H 0.9967 0.9441 0.6820
O11_8 O 0.9625(4) 0.9553(4) 0.8283(3)
O12_8 O 0.8776(4) 0.9890(4) 0.8385(3)
C61_8 C 0.9126(6) 0.9589(4) 0.8455(4)
C62_8 C 0.8985(5) 0.9245(4) 0.8772(3)
C63_8 C 0.9348(5) 0.8866(5) 0.8849(4)
H57_8 H 0.9696 0.8826 0.8696
C64_8 C 0.9205(5) 0.8554(5) 0.9142(4)
H58_8 H 0.9439 0.8291 0.9179
C65_8 C 0.8706(5) 0.8634(4) 0.9386(4)
C66_8 C 0.8322(6) 0.8976(4) 0.9304(4)
H59_8 H 0.7967 0.9008 0.9452
C67_8 C 0.8466(5) 0.9283(4) 0.8993(4)
H60_8 H 0.8201 0.9521 0.8934
C68_8 C 0.8565(5) 0.8312(4) 0.9708(4)
C69_8 C 0.8015(5) 0.8113(5) 0.9814(4)
C71_8 C 0.7428(5) 0.8167(6) 0.9596(4)
H61_8 H 0.7123 0.7992 0.9734
H62_8 H 0.7315 0.8486 0.9593
H63_8 H 0.7467 0.8059 0.9320
H65_8 H 0.9829 0.7978 0.9955
H66_8 H 0.9711 0.8508 0.9928
loop_
_geom_bond_atom_site_label_1
_geom_bond_atom_site_label_2
_geom_bond_site_symmetry_1
_geom_bond_site_symmetry_2
Zn1 O1 1_555 1_555
O1 C1 1_555 1_555
O2 C1 1_555 1_555
N1 N2 1_555 1_555
N2 H1 1_555 1_555
C1 C2 1_555 1_555
C2 C3 1_555 1_555
C3 H2 1_555 1_555
C4 C3 1_555 1_555
H3 C4 1_555 1_555
C5 C4 1_555 1_555
C6 C5 1_555 1_555
H4 C6 1_555 1_555
C7 C2 1_555 1_555
H5 C7 1_555 1_555
C8 C5 1_555 1_555
C9 N1 1_555 1_555
C10 N2 1_555 1_555
C11 C9 1_555 1_555
H6 C11 1_555 1_555
H7 C11 1_555 1_555
H8 C11 1_555 1_555
C12 C10 1_555 1_555
H9 C12 1_555 1_555
H10 C12 1_555 1_555
H11 C12 1_555 1_555
N6 Zn1 1_555 1_555
C6 C7 1_555 1_555
C8 C9 1_555 1_555
C8 C10 1_555 1_555
O3 Zn1_2 1_555 1_555
O4 C13 1_555 1_555
N3 N4 1_555 1_555
N4 H12 1_555 1_555
C13 O3 1_555 1_555
C14 C13 1_555 1_555
C15 C14 1_555 1_555
H13 C15 1_555 1_555
C16 C15 1_555 1_555
H14 C16 1_555 1_555
C17 C16 1_555 1_555
C18 C17 1_555 1_555
H15 C18 1_555 1_555
C19 C14 1_555 1_555
H16 C19 1_555 1_555
C20 C17 1_555 1_555
C21 N3 1_555 1_555
C22 N4 1_555 1_555
C23 C21 1_555 1_555
H17 C23 1_555 1_555
H18 C23 1_555 1_555
H19 C23 1_555 1_555
C24 C22 1_555 1_555
H20 C24 1_555 1_555
H21 C24 1_555 1_555
H22 C24 1_555 1_555
N5 Zn1_2 1_555 1_555
C18 C19 1_555 1_555
C20 C21 1_555 1_555
C20 C22 1_555 1_555
Zn2 O1_2 1_555 1_555
O1_2 C1_2 1_555 1_555
O2_2 C1_2 1_555 1_555
C1_2 C2_2 1_555 1_555
C2_2 C3_2 1_555 1_555
C3_2 H2_2 1_555 1_555
C4_2 C3_2 1_555 1_555
H3_2 C4_2 1_555 1_555
C5_2 C4_2 1_555 1_555
C6_2 C5_2 1_555 1_555
H4_2 C6_2 1_555 1_555
C7_2 C2_2 1_555 1_555
H5_2 C7_2 1_555 1_555
C8_2 C5_2 1_555 1_555
C9_2 N1_2 1_555 1_555
C11_2 C9_2 1_555 1_555
H6_2 C11_2 1_555 1_555
H8_2 C11_2 1_555 1_555
O3_2 Zn2 1_555 1_555
O4_2 C13_2 1_555 1_555
N3_2 N4_2 1_555 1_555
N4_2 H12_2 1_555 1_555
C13_2 O3_2 1_555 1_555
C14_2 C13_2 1_555 1_555
C15_2 C14_2 1_555 1_555
H13_2 C15_2 1_555 1_555
C16_2 C15_2 1_555 1_555
H14_2 C16_2 1_555 1_555
C17_2 C16_2 1_555 1_555
C18_2 C17_2 1_555 1_555
H15_2 C18_2 1_555 1_555
C19_2 C14_2 1_555 1_555
H16_2 C19_2 1_555 1_555
C20_2 C17_2 1_555 1_555
C21_2 N3_2 1_555 1_555
C22_2 N4_2 1_555 1_555
C23_2 C21_2 1_555 1_555
H17_2 C23_2 1_555 1_555
H18_2 C23_2 1_555 1_555
H19_2 C23_2 1_555 1_555
C24_2 C22_2 1_555 1_555
H20_2 C24_2 1_555 1_555
H21_2 C24_2 1_555 1_555
H22_2 C24_2 1_555 1_555
Zn2_4 N1_2 1_555 1_555
Zn3_2 N3_2 1_555 1_555
C6_2 C7_2 1_555 1_555
C8_2 C9_2 1_555 1_555
C8_2 C10_2 1_555 1_555
C18_2 C19_2 1_555 1_555
C20_2 C21_2 1_555 1_555
C20_2 C22_2 1_555 1_555
N2_2 H1_2 1_555 1_555
H9_2 C12_2 1_555 1_555
H10_2 C12_2 1_555 1_555
Zn3_2 O1_3 1_555 1_555
O1_3 C1_3 1_555 1_555
O2_3 C1_3 1_555 1_555
N1_3 N2_3 1_555 1_555
N2_3 H1_3 1_555 1_555
C1_3 C2_3 1_555 1_555
C2_3 C3_3 1_555 1_555
C3_3 H2_3 1_555 1_555
C4_3 C3_3 1_555 1_555
H3_3 C4_3 1_555 1_555
C5_3 C4_3 1_555 1_555
C6_3 C5_3 1_555 1_555
H4_3 C6_3 1_555 1_555
C7_3 C2_3 1_555 1_555
H5_3 C7_3 1_555 1_555
C8_3 C5_3 1_555 1_555
C9_3 N1_3 1_555 1_555
C10_3 N2_3 1_555 1_555
C11_3 C9_3 1_555 1_555
H6_3 C11_3 1_555 1_555
H7_3 C11_3 1_555 1_555
H8_3 C11_3 1_555 1_555
C12_3 C10_3 1_555 1_555
H9_3 C12_3 1_555 1_555
H10_3 C12_3 1_555 1_555
H11_3 C12_3 1_555 1_555
O3_3 Zn3_2 1_555 1_555
O4_3 C13_3 1_555 1_555
N3_3 N4_3 1_555 1_555
N4_3 H12_3 1_555 1_555
C13_3 O3_3 1_555 1_555
C14_3 C13_3 1_555 1_555
C15_3 C14_3 1_555 1_555
H13_3 C15_3 1_555 1_555
C16_3 C15_3 1_555 1_555
H14_3 C16_3 1_555 1_555
C17_3 C16_3 1_555 1_555
C18_3 C17_3 1_555 1_555
H15_3 C18_3 1_555 1_555
C19_3 C14_3 1_555 1_555
H16_3 C19_3 1_555 1_555
C20_3 C17_3 1_555 1_555
C21_3 N3_3 1_555 1_555
C22_3 N4_3 1_555 1_555
C23_3 C21_3 1_555 1_555
H17_3 C23_3 1_555 1_555
H18_3 C23_3 1_555 1_555
H19_3 C23_3 1_555 1_555
C24_3 C22_3 1_555 1_555
H20_3 C24_3 1_555 1_555
H21_3 C24_3 1_555 1_555
H22_3 C24_3 1_555 1_555
Zn2_6 N1_3 1_555 1_555
Zn3_3 N3_3 1_555 1_555
N6_2 Zn3_2 1_555 1_555
C6_3 C7_3 1_555 1_555
C8_3 C9_3 1_555 1_555
C8_3 C10_3 1_555 1_555
C18_3 C19_3 1_555 1_555
C20_3 C21_3 1_555 1_555
C20_3 C22_3 1_555 1_555
N4_4 H12_4 1_555 1_555
H20_4 C24_4 1_555 1_555
H21_4 C24_4 1_555 1_555
Zn2_6 O1_4 1_555 1_555
O1_4 C1_4 1_555 1_555
O2_4 C1_4 1_555 1_555
N1_4 N2_4 1_555 1_555
N2_4 H1_4 1_555 1_555
C1_4 C2_4 1_555 1_555
C2_4 C3_4 1_555 1_555
C3_4 H2_4 1_555 1_555
C4_4 C3_4 1_555 1_555
H3_4 C4_4 1_555 1_555
C5_4 C4_4 1_555 1_555
C6_4 C5_4 1_555 1_555
H4_4 C6_4 1_555 1_555
C7_4 C2_4 1_555 1_555
H5_4 C7_4 1_555 1_555
C8_4 C5_4 1_555 1_555
C9_4 N1_4 1_555 1_555
C10_4 N2_4 1_555 1_555
C11_4 C9_4 1_555 1_555
H6_4 C11_4 1_555 1_555
H8_4 C11_4 1_555 1_555
C12_4 C10_4 1_555 1_555
H9_4 C12_4 1_555 1_555
H10_4 C12_4 1_555 1_555
H11_4 C12_4 1_555 1_555
O3_4 Zn2_6 1_555 1_555
O4_4 C13_4 1_555 1_555
C13_4 O3_4 1_555 1_555
C14_4 C13_4 1_555 1_555
C15_4 C14_4 1_555 1_555
H13_4 C15_4 1_555 1_555
C16_4 C15_4 1_555 1_555
H14_4 C16_4 1_555 1_555
C17_4 C16_4 1_555 1_555
C18_4 C17_4 1_555 1_555
H15_4 C18_4 1_555 1_555
C19_4 C14_4 1_555 1_555
H16_4 C19_4 1_555 1_555
C20_4 C17_4 1_555 1_555
C21_4 N5 1_555 1_555
C23_4 C21_4 1_555 1_555
H17_4 C23_4 1_555 1_555
H18_4 C23_4 1_555 1_555
H19_4 C23_4 1_555 1_555
Zn2_8 N1_4 1_555 1_555
N5_3 Zn2_6 1_555 1_555
C6_4 C7_4 1_555 1_555
C8_4 C9_4 1_555 1_555
C8_4 C10_4 1_555 1_555
C18_4 C19_4 1_555 1_555
C20_4 C21_4 1_555 1_555
C20_4 C22_4 1_555 1_555
Zn2_2 O1_5 1_555 1_555
O1_5 C1_5 1_555 1_555
O2_5 C1_5 1_555 1_555
N1_5 N2_5 1_555 1_555
N2_5 H1_5 1_555 1_555
C1_5 C2_5 1_555 1_555
C2_5 C3_5 1_555 1_555
C3_5 H2_5 1_555 1_555
C4_5 C3_5 1_555 1_555
H3_5 C4_5 1_555 1_555
C5_5 C4_5 1_555 1_555
C6_5 C5_5 1_555 1_555
H4_5 C6_5 1_555 1_555
C7_5 C2_5 1_555 1_555
H5_5 C7_5 1_555 1_555
C8_5 C5_5 1_555 1_555
C9_5 N1_5 1_555 1_555
C10_5 N2_5 1_555 1_555
C11_5 C9_5 1_555 1_555
H6_5 C11_5 1_555 1_555
H7_5 C11_5 1_555 1_555
H8_5 C11_5 1_555 1_555
C12_5 C10_5 1_555 1_555
H9_5 C12_5 1_555 1_555
H10_5 C12_5 1_555 1_555
H11_5 C12_5 1_555 1_555
Zn3_3 N1_5 1_555 1_555
C6_5 C7_5 1_555 1_555
C8_5 C9_5 1_555 1_555
C8_5 C10_5 1_555 1_555
N5_4 Zn2_3 1_555 1_555
O3_5 Zn2_5 1_555 1_555
O4_5 C13_5 1_555 1_555
N5_3 N4_5 1_555 1_555
N4_5 H12_5 1_555 1_555
C13_5 O3_5 1_555 1_555
C14_5 C13_5 1_555 1_555
C15_5 C14_5 1_555 1_555
H13_5 C15_5 1_555 1_555
C16_5 C15_5 1_555 1_555
H14_5 C16_5 1_555 1_555
C17_5 C16_5 1_555 1_555
C18_5 C17_5 1_555 1_555
H15_5 C18_5 1_555 1_555
C19_5 C14_5 1_555 1_555
H16_5 C19_5 1_555 1_555
C20_5 C17_5 1_555 1_555
C21_5 N5_3 1_555 1_555
C22_5 N4_5 1_555 1_555
C23_5 C21_5 1_555 1_555
H17_5 C23_5 1_555 1_555
H18_5 C23_5 1_555 1_555
H19_5 C23_5 1_555 1_555
C24_5 C22_5 1_555 1_555
H20_5 C24_5 1_555 1_555
H21_5 C24_5 1_555 1_555
H22_5 C24_5 1_555 1_555
C18_5 C19_5 1_555 1_555
C20_5 C21_5 1_555 1_555
C20_5 C22_5 1_555 1_555
Zn3_3 O1_6 1_555 1_555
O1_6 C1_6 1_555 1_555
O2_6 C1_6 1_555 1_555
C1_6 C2_6 1_555 1_555
C2_6 C3_6 1_555 1_555
C3_6 H2_6 1_555 1_555
C4_6 C3_6 1_555 1_555
H3_6 C4_6 1_555 1_555
C5_6 C4_6 1_555 1_555
C6_6 C5_6 1_555 1_555
H4_6 C6_6 1_555 1_555
C7_6 C2_6 1_555 1_555
H5_6 C7_6 1_555 1_555
C8_6 C5_6 1_555 1_555
C9_6 N6 1_555 1_555
C11_6 C9_6 1_555 1_555
H6_6 C11_6 1_555 1_555
H7_6 C11_6 1_555 1_555
H8_6 C11_6 1_555 1_555
O3_6 Zn3_3 1_555 1_555
O4_6 C13_6 1_555 1_555
N3_4 N4_6 1_555 1_555
N4_6 H12_6 1_555 1_555
C13_6 O3_6 1_555 1_555
C14_6 C13_6 1_555 1_555
C15_6 C14_6 1_555 1_555
H13_6 C15_6 1_555 1_555
C16_6 C15_6 1_555 1_555
H14_6 C16_6 1_555 1_555
C17_6 C16_6 1_555 1_555
C18_6 C17_6 1_555 1_555
H15_6 C18_6 1_555 1_555
C19_6 C14_6 1_555 1_555
H16_6 C19_6 1_555 1_555
C20_6 C17_6 1_555 1_555
C21_6 N3_4 1_555 1_555
C22_6 N4_6 1_555 1_555
C23_6 C21_6 1_555 1_555
H17_6 C23_6 1_555 1_555
H19_6 C23_6 1_555 1_555
C24_6 C22_6 1_555 1_555
H20_6 C24_6 1_555 1_555
H21_6 C24_6 1_555 1_555
H22_6 C24_6 1_555 1_555
Zn2_7 N3_4 1_555 1_555
C6_6 C7_6 1_555 1_555
C8_6 C9_6 1_555 1_555
C8_6 C10_6 1_555 1_555
C18_6 C19_6 1_555 1_555
C20_6 C21_6 1_555 1_555
C20_6 C22_6 1_555 1_555
N2_6 H1_6 1_555 1_555
H9_6 C12_6 1_555 1_555
H10_6 C12_6 1_555 1_555
Zn2_7 O1_7 1_555 1_555
O1_7 C1_7 1_555 1_555
O2_7 C1_7 1_555 1_555
N1_6 N2_7 1_555 1_555
N2_7 H1_7 1_555 1_555
C1_7 C2_7 1_555 1_555
C2_7 C3_7 1_555 1_555
C3_7 H2_7 1_555 1_555
C4_7 C3_7 1_555 1_555
H3_7 C4_7 1_555 1_555
C5_7 C4_7 1_555 1_555
C6_7 C5_7 1_555 1_555
H4_7 C6_7 1_555 1_555
C7_7 C2_7 1_555 1_555
H5_7 C7_7 1_555 1_555
C8_7 C5_7 1_555 1_555
C9_7 N1_6 1_555 1_555
C10_7 N2_7 1_555 1_555
C11_7 C9_7 1_555 1_555
H6_7 C11_7 1_555 1_555
H7_7 C11_7 1_555 1_555
H8_7 C11_7 1_555 1_555
C12_7 C10_7 1_555 1_555
H9_7 C12_7 1_555 1_555
H10_7 C12_7 1_555 1_555
H11_7 C12_7 1_555 1_555
C6_7 C7_7 1_555 1_555
C8_7 C9_7 1_555 1_555
C8_7 C10_7 1_555 1_555
O3_7 Zn2_8 1_555 1_555
O4_7 C13_7 1_555 1_555
N5_2 N4_7 1_555 1_555
N4_7 H12_7 1_555 1_555
C13_7 O3_7 1_555 1_555
C14_7 C13_7 1_555 1_555
C15_7 C14_7 1_555 1_555
H13_7 C15_7 1_555 1_555
C16_7 C15_7 1_555 1_555
H14_7 C16_7 1_555 1_555
C17_7 C16_7 1_555 1_555
C18_7 C17_7 1_555 1_555
H15_7 C18_7 1_555 1_555
C19_7 C14_7 1_555 1_555
H16_7 C19_7 1_555 1_555
C20_7 C17_7 1_555 1_555
C21_7 N5_2 1_555 1_555
C22_7 N4_7 1_555 1_555
C23_7 C21_7 1_555 1_555
H17_7 C23_7 1_555 1_555
H18_7 C23_7 1_555 1_555
H19_7 C23_7 1_555 1_555
C24_7 C22_7 1_555 1_555
H20_7 C24_7 1_555 1_555
H21_7 C24_7 1_555 1_555
H22_7 C24_7 1_555 1_555
C18_7 C19_7 1_555 1_555
C20_7 C21_7 1_555 1_555
C20_7 C22_7 1_555 1_555
N4_8 H12_8 1_555 1_555
H20_8 C24_8 1_555 1_555
H21_8 C24_8 1_555 1_555
Zn3 O1_8 1_555 1_555
O1_8 C1_8 1_555 1_555
O2_8 C1_8 1_555 1_555
N6_2 N2_8 1_555 1_555
N2_8 H1_8 1_555 1_555
C1_8 C2_8 1_555 1_555
C2_8 C3_8 1_555 1_555
C3_8 H2_8 1_555 1_555
C4_8 C3_8 1_555 1_555
H3_8 C4_8 1_555 1_555
C5_8 C4_8 1_555 1_555
C6_8 C5_8 1_555 1_555
H4_8 C6_8 1_555 1_555
C7_8 C2_8 1_555 1_555
H5_8 C7_8 1_555 1_555
C8_8 C5_8 1_555 1_555
C9_8 N6_2 1_555 1_555
C10_8 N2_8 1_555 1_555
C11_8 C9_8 1_555 1_555
H6_8 C11_8 1_555 1_555
H7_8 C11_8 1_555 1_555
H8_8 C11_8 1_555 1_555
C12_8 C10_8 1_555 1_555
H9_8 C12_8 1_555 1_555
H10_8 C12_8 1_555 1_555
H11_8 C12_8 1_555 1_555
O3_8 Zn3 1_555 1_555
O4_8 C13_8 1_555 1_555
C13_8 O3_8 1_555 1_555
C14_8 C13_8 1_555 1_555
C15_8 C14_8 1_555 1_555
H13_8 C15_8 1_555 1_555
C16_8 C15_8 1_555 1_555
H14_8 C16_8 1_555 1_555
C17_8 C16_8 1_555 1_555
C18_8 C17_8 1_555 1_555
H15_8 C18_8 1_555 1_555
C19_8 C14_8 1_555 1_555
H16_8 C19_8 1_555 1_555
C20_8 C17_8 1_555 1_555
C21_8 N5_4 1_555 1_555
C23_8 C21_8 1_555 1_555
H17_8 C23_8 1_555 1_555
H19_8 C23_8 1_555 1_555
C6_8 C7_8 1_555 1_555
C8_8 C9_8 1_555 1_555
C8_8 C10_8 1_555 1_555
C18_8 C19_8 1_555 1_555
C20_8 C21_8 1_555 1_555
C20_8 C22_8 1_555 1_555
Zn4 O5 1_555 1_555
O5 C25 1_555 1_555
O6 C25 1_555 1_555
O7 Zn4 1_555 1_555
O8 C37 1_555 1_555
N7 H23 1_555 1_555
N8 N7 1_555 1_555
N9 H24 1_555 1_555
N10 N9 1_555 1_555
C25 C26 1_555 1_555
C26 C27 1_555 1_555
C27 H25 1_555 1_555
C28 C27 1_555 1_555
H26 C28 1_555 1_555
C29 C28 1_555 1_555
C30 C29 1_555 1_555
H27 C30 1_555 1_555
C31 C26 1_555 1_555
H28 C31 1_555 1_555
C32 C29 1_555 1_555
C33 N8 1_555 1_555
C34 N7 1_555 1_555
C35 C33 1_555 1_555
H29 C35 1_555 1_555
H30 C35 1_555 1_555
H31 C35 1_555 1_555
C36 C34 1_555 1_555
H32 C36 1_555 1_555
H33 C36 1_555 1_555
H34 C36 1_555 1_555
C37 O7 1_555 1_555
C38 C37 1_555 1_555
C39 C38 1_555 1_555
H35 C39 1_555 1_555
C40 C39 1_555 1_555
H36 C40 1_555 1_555
C41 C40 1_555 1_555
C42 C41 1_555 1_555
H37 C42 1_555 1_555
C43 C38 1_555 1_555
H38 C43 1_555 1_555
C44 C41 1_555 1_555
C45 N10 1_555 1_555
C46 N9 1_555 1_555
C47 C45 1_555 1_555
H39 C47 1_555 1_555
H40 C47 1_555 1_555
H41 C47 1_555 1_555
C48 C46 1_555 1_555
H42 C48 1_555 1_555
H43 C48 1_555 1_555
H44 C48 1_555 1_555
Zn5 N8 1_555 1_555
Zn6 N10 1_555 1_555
N11 Zn4 1_555 1_555
N12 Zn4 1_555 1_555
C30 C31 1_555 1_555
C32 C33 1_555 1_555
C32 C34 1_555 1_555
C42 C43 1_555 1_555
C44 C45 1_555 1_555
C44 C46 1_555 1_555
O5_2 C25_2 1_555 1_555
O6_2 C25_2 1_555 1_555
N7_2 H23_2 1_555 1_555
N8_2 N7_2 1_555 1_555
C25_2 C26_2 1_555 1_555
C26_2 C27_2 1_555 1_555
C27_2 H25_2 1_555 1_555
C28_2 C27_2 1_555 1_555
H26_2 C28_2 1_555 1_555
C29_2 C28_2 1_555 1_555
C30_2 C29_2 1_555 1_555
H27_2 C30_2 1_555 1_555
C31_2 C26_2 1_555 1_555
H28_2 C31_2 1_555 1_555
C32_2 C29_2 1_555 1_555
C33_2 N8_2 1_555 1_555
C34_2 N7_2 1_555 1_555
C35_2 C33_2 1_555 1_555
H29_2 C35_2 1_555 1_555
H30_2 C35_2 1_555 1_555
H31_2 C35_2 1_555 1_555
C36_2 C34_2 1_555 1_555
H32_2 C36_2 1_555 1_555
H33_2 C36_2 1_555 1_555
H34_2 C36_2 1_555 1_555
Zn5_2 N8_2 1_555 1_555
C30_2 C31_2 1_555 1_555
C32_2 C33_2 1_555 1_555
C32_2 C34_2 1_555 1_555
O7_2 Zn5 1_555 1_555
O8_2 C37_2 1_555 1_555
N9_2 H24_2 1_555 1_555
N10_2 N9_2 1_555 1_555
C37_2 O7_2 1_555 1_555
C38_2 C37_2 1_555 1_555
C39_2 C38_2 1_555 1_555
H35_2 C39_2 1_555 1_555
C40_2 C39_2 1_555 1_555
H36_2 C40_2 1_555 1_555
C41_2 C40_2 1_555 1_555
C42_2 C41_2 1_555 1_555
H37_2 C42_2 1_555 1_555
C43_2 C38_2 1_555 1_555
H38_2 C43_2 1_555 1_555
C44_2 C41_2 1_555 1_555
C45_2 N10_2 1_555 1_555
C46_2 N9_2 1_555 1_555
C48_2 C46_2 1_555 1_555
H42_2 C48_2 1_555 1_555
H43_2 C48_2 1_555 1_555
H44_2 C48_2 1_555 1_555
Zn6_2 N10_2 1_555 1_555
N12_2 Zn5 1_555 1_555
C42_2 C43_2 1_555 1_555
C44_2 C45_2 1_555 1_555
C44_2 C46_2 1_555 1_555
Zn5_2 O5_3 1_555 1_555
O5_3 C25_3 1_555 1_555
O6_3 C25_3 1_555 1_555
O7_3 Zn5_2 1_555 1_555
O8_3 C37_3 1_555 1_555
N7_3 H23_3 1_555 1_555
N8_3 N7_3 1_555 1_555
C25_3 C26_3 1_555 1_555
C26_3 C27_3 1_555 1_555
C27_3 H25_3 1_555 1_555
C28_3 C27_3 1_555 1_555
H26_3 C28_3 1_555 1_555
C29_3 C28_3 1_555 1_555
C30_3 C29_3 1_555 1_555
H27_3 C30_3 1_555 1_555
C31_3 C26_3 1_555 1_555
H28_3 C31_3 1_555 1_555
C32_3 C29_3 1_555 1_555
C33_3 N8_3 1_555 1_555
C34_3 N7_3 1_555 1_555
C35_3 C33_3 1_555 1_555
H29_3 C35_3 1_555 1_555
H30_3 C35_3 1_555 1_555
H31_3 C35_3 1_555 1_555
C36_3 C34_3 1_555 1_555
H32_3 C36_3 1_555 1_555
H33_3 C36_3 1_555 1_555
H34_3 C36_3 1_555 1_555
C37_3 O7_3 1_555 1_555
C38_3 C37_3 1_555 1_555
C39_3 C38_3 1_555 1_555
H35_3 C39_3 1_555 1_555
C40_3 C39_3 1_555 1_555
H36_3 C40_3 1_555 1_555
C41_3 C40_3 1_555 1_555
C42_3 C41_3 1_555 1_555
H37_3 C42_3 1_555 1_555
C43_3 C38_3 1_555 1_555
H38_3 C43_3 1_555 1_555
C44_3 C41_3 1_555 1_555
C47_2 C45_3 1_555 1_555
H39_2 C47_2 1_555 1_555
H40_3 C47_2 1_555 1_555
H41_2 C47_2 1_555 1_555
C48_3 C46_3 1_555 1_555
H43_3 C48_3 1_555 1_555
H44_3 C48_3 1_555 1_555
N12_3 Zn5_2 1_555 1_555
C30_3 C31_3 1_555 1_555
C32_3 C33_3 1_555 1_555
C32_3 C34_3 1_555 1_555
C42_3 C43_3 1_555 1_555
C44_3 C45_3 1_555 1_555
C44_3 C46_3 1_555 1_555
N9_3 H24_3 1_555 1_555
N10_3 N9_3 1_555 1_555
Zn5_3 O5_4 1_555 1_555
O5_4 C25_4 1_555 1_555
O6_4 C25_4 1_555 1_555
O7_4 Zn5_3 1_555 1_555
O8_4 C37_4 1_555 1_555
N7_4 H23_4 1_555 1_555
N11 N7_4 1_555 1_555
N9_4 H24_4 1_555 1_555
N10_4 N9_4 1_555 1_555
C25_4 C26_4 1_555 1_555
C26_4 C27_4 1_555 1_555
C27_4 H25_4 1_555 1_555
C28_4 C27_4 1_555 1_555
H26_4 C28_4 1_555 1_555
C29_4 C28_4 1_555 1_555
C30_4 C29_4 1_555 1_555
H27_4 C30_4 1_555 1_555
C31_4 C26_4 1_555 1_555
H28_4 C31_4 1_555 1_555
C32_4 C29_4 1_555 1_555
C33_4 N11 1_555 1_555
C34_4 N7_4 1_555 1_555
C35_4 C33_4 1_555 1_555
H29_4 C35_4 1_555 1_555
H30_4 C35_4 1_555 1_555
H31_4 C35_4 1_555 1_555
C36_4 C34_4 1_555 1_555
H32_4 C36_4 1_555 1_555
H33_4 C36_4 1_555 1_555
H34_4 C36_4 1_555 1_555
C37_4 O7_4 1_555 1_555
C38_4 C37_4 1_555 1_555
C39_4 C38_4 1_555 1_555
H35_4 C39_4 1_555 1_555
C40_4 C39_4 1_555 1_555
H36_4 C40_4 1_555 1_555
C41_4 C40_4 1_555 1_555
C42_4 C41_4 1_555 1_555
H37_4 C42_4 1_555 1_555
C43_4 C38_4 1_555 1_555
H38_4 C43_4 1_555 1_555
C44_4 C41_4 1_555 1_555
C45_4 N10_4 1_555 1_555
C46_4 N9_4 1_555 1_555
C48_4 C46_4 1_555 1_555
H42_4 C48_4 1_555 1_555
H43_4 C48_4 1_555 1_555
H44_4 C48_4 1_555 1_555
Zn6_4 N10_4 1_555 1_555
C30_4 C31_4 1_555 1_555
C32_4 C33_4 1_555 1_555
C32_4 C34_4 1_555 1_555
C42_4 C43_4 1_555 1_555
C44_4 C45_4 1_555 1_555
C44_4 C46_4 1_555 1_555
O5_5 C25_5 1_555 1_555
O6_5 C25_5 1_555 1_555
N7_5 H23_5 1_555 1_555
N8_4 N7_5 1_555 1_555
C25_5 C26_5 1_555 1_555
C26_5 C27_5 1_555 1_555
C27_5 H25_5 1_555 1_555
C28_5 C27_5 1_555 1_555
H26_5 C28_5 1_555 1_555
C29_5 C28_5 1_555 1_555
C30_5 C29_5 1_555 1_555
H27_5 C30_5 1_555 1_555
C31_5 C26_5 1_555 1_555
H28_5 C31_5 1_555 1_555
C32_5 C29_5 1_555 1_555
C33_5 N8_4 1_555 1_555
C34_5 N7_5 1_555 1_555
C35_5 C33_5 1_555 1_555
H29_5 C35_5 1_555 1_555
H30_5 C35_5 1_555 1_555
H31_5 C35_5 1_555 1_555
C36_5 C34_5 1_555 1_555
H32_5 C36_5 1_555 1_555
H33_5 C36_5 1_555 1_555
H34_5 C36_5 1_555 1_555
Zn6 N8_4 1_555 1_555
C30_5 C31_5 1_555 1_555
C32_5 C33_5 1_555 1_555
C32_5 C34_5 1_555 1_555
O7_5 Zn6_4 1_555 1_555
O8_5 C37_5 1_555 1_555
C37_5 O7_5 1_555 1_555
C38_5 C37_5 1_555 1_555
C39_5 C38_5 1_555 1_555
H35_5 C39_5 1_555 1_555
C40_5 C39_5 1_555 1_555
H36_5 C40_5 1_555 1_555
C41_5 C40_5 1_555 1_555
C42_5 C41_5 1_555 1_555
H37_5 C42_5 1_555 1_555
C43_5 C38_5 1_555 1_555
H38_5 C43_5 1_555 1_555
C44_5 C41_5 1_555 1_555
C47_3 C45_5 1_555 1_555
H39_3 C47_3 1_555 1_555
H40_5 C47_3 1_555 1_555
H41_3 C47_3 1_555 1_555
C48_5 C46_5 1_555 1_555
H43_5 C48_5 1_555 1_555
H44_5 C48_5 1_555 1_555
C42_5 C43_5 1_555 1_555
C44_5 C45_5 1_555 1_555
C44_5 C46_5 1_555 1_555
N9_5 H24_5 1_555 1_555
N12_2 N9_5 1_555 1_555
Zn6 O5_6 1_555 1_555
O5_6 C25_6 1_555 1_555
O6_6 C25_6 1_555 1_555
O7_6 Zn6 1_555 1_555
O8_6 C37_6 1_555 1_555
N7_6 H23_6 1_555 1_555
N8_5 N7_6 1_555 1_555
N9_6 H24_6 1_555 1_555
N12_3 N9_6 1_555 1_555
C25_6 C26_6 1_555 1_555
C26_6 C27_6 1_555 1_555
C27_6 H25_6 1_555 1_555
C28_6 C27_6 1_555 1_555
H26_6 C28_6 1_555 1_555
C29_6 C28_6 1_555 1_555
C30_6 C29_6 1_555 1_555
H27_6 C30_6 1_555 1_555
C31_6 C26_6 1_555 1_555
H28_6 C31_6 1_555 1_555
C32_6 C29_6 1_555 1_555
C33_6 N8_5 1_555 1_555
C34_6 N7_6 1_555 1_555
C36_6 C34_6 1_555 1_555
H32_6 C36_6 1_555 1_555
H33_6 C36_6 1_555 1_555
H34_6 C36_6 1_555 1_555
C37_6 O7_6 1_555 1_555
C38_6 C37_6 1_555 1_555
C39_6 C38_6 1_555 1_555
H35_6 C39_6 1_555 1_555
C40_6 C39_6 1_555 1_555
H36_6 C40_6 1_555 1_555
C41_6 C40_6 1_555 1_555
C42_6 C41_6 1_555 1_555
H37_6 C42_6 1_555 1_555
C43_6 C38_6 1_555 1_555
H38_6 C43_6 1_555 1_555
C44_6 C41_6 1_555 1_555
C45_6 N12_3 1_555 1_555
C46_6 N9_6 1_555 1_555
C47_4 C45_6 1_555 1_555
H39_4 C47_4 1_555 1_555
H40_6 C47_4 1_555 1_555
H41_4 C47_4 1_555 1_555
C48_6 C46_6 1_555 1_555
H42_6 C48_6 1_555 1_555
H43_6 C48_6 1_555 1_555
H44_6 C48_6 1_555 1_555
C30_6 C31_6 1_555 1_555
C32_6 C33_6 1_555 1_555
C32_6 C34_6 1_555 1_555
C42_6 C43_6 1_555 1_555
C44_6 C45_6 1_555 1_555
C44_6 C46_6 1_555 1_555
H29_6 C35_6 1_555 1_555
H31_6 C35_6 1_555 1_555
O5_7 C25_7 1_555 1_555
O6_7 C25_7 1_555 1_555
N7_7 H23_7 1_555 1_555
N8_6 N7_7 1_555 1_555
C25_7 C26_7 1_555 1_555
C26_7 C27_7 1_555 1_555
C27_7 H25_7 1_555 1_555
C28_7 C27_7 1_555 1_555
H26_7 C28_7 1_555 1_555
C29_7 C28_7 1_555 1_555
C30_7 C29_7 1_555 1_555
H27_7 C30_7 1_555 1_555
C31_7 C26_7 1_555 1_555
H28_7 C31_7 1_555 1_555
C32_7 C29_7 1_555 1_555
C33_7 N8_6 1_555 1_555
C34_7 N7_7 1_555 1_555
C35_7 C33_7 1_555 1_555
H29_7 C35_7 1_555 1_555
H30_7 C35_7 1_555 1_555
H31_7 C35_7 1_555 1_555
C36_7 C34_7 1_555 1_555
H32_7 C36_7 1_555 1_555
H33_7 C36_7 1_555 1_555
H34_7 C36_7 1_555 1_555
C30_7 C31_7 1_555 1_555
C32_7 C33_7 1_555 1_555
C32_7 C34_7 1_555 1_555
O7_7 Zn6_2 1_555 1_555
O8_7 C37_7 1_555 1_555
N9_7 H24_7 1_555 1_555
N12_4 N9_7 1_555 1_555
C37_7 O7_7 1_555 1_555
C38_7 C37_7 1_555 1_555
C39_7 C38_7 1_555 1_555
H35_7 C39_7 1_555 1_555
C40_7 C39_7 1_555 1_555
H36_7 C40_7 1_555 1_555
C41_7 C40_7 1_555 1_555
C42_7 C41_7 1_555 1_555
H37_7 C42_7 1_555 1_555
C43_7 C38_7 1_555 1_555
H38_7 C43_7 1_555 1_555
C44_7 C41_7 1_555 1_555
C45_7 N12_4 1_555 1_555
C46_7 N9_7 1_555 1_555
C47_5 C45_7 1_555 1_555
H39_5 C47_5 1_555 1_555
H40_7 C47_5 1_555 1_555
H41_5 C47_5 1_555 1_555
C48_7 C46_7 1_555 1_555
H42_7 C48_7 1_555 1_555
H43_7 C48_7 1_555 1_555
H44_7 C48_7 1_555 1_555
C42_7 C43_7 1_555 1_555
C44_7 C45_7 1_555 1_555
C44_7 C46_7 1_555 1_555
O5_8 C25_8 1_555 1_555
O6_8 C25_8 1_555 1_555
N7_8 H23_8 1_555 1_555
N11_2 N7_8 1_555 1_555
C25_8 C26_8 1_555 1_555
C26_8 C27_8 1_555 1_555
C27_8 H25_8 1_555 1_555
C28_8 C27_8 1_555 1_555
H26_8 C28_8 1_555 1_555
C29_8 C28_8 1_555 1_555
C30_8 C29_8 1_555 1_555
H27_8 C30_8 1_555 1_555
C31_8 C26_8 1_555 1_555
H28_8 C31_8 1_555 1_555
C32_8 C29_8 1_555 1_555
C33_8 N11_2 1_555 1_555
C34_8 N7_8 1_555 1_555
C36_8 C34_8 1_555 1_555
H32_8 C36_8 1_555 1_555
H33_8 C36_8 1_555 1_555
H34_8 C36_8 1_555 1_555
C30_8 C31_8 1_555 1_555
C32_8 C33_8 1_555 1_555
C32_8 C34_8 1_555 1_555
O7_8 Zn6_3 1_555 1_555
O8_8 C37_8 1_555 1_555
N9_8 H24_8 1_555 1_555
N12 N9_8 1_555 1_555
C37_8 O7_8 1_555 1_555
C38_8 C37_8 1_555 1_555
C39_8 C38_8 1_555 1_555
H35_8 C39_8 1_555 1_555
C40_8 C39_8 1_555 1_555
H36_8 C40_8 1_555 1_555
C41_8 C40_8 1_555 1_555
C42_8 C41_8 1_555 1_555
H37_8 C42_8 1_555 1_555
C43_8 C38_8 1_555 1_555
H38_8 C43_8 1_555 1_555
C44_8 C41_8 1_555 1_555
C45_8 N12 1_555 1_555
C46_8 N9_8 1_555 1_555
C47_6 C45_8 1_555 1_555
H39_6 C47_6 1_555 1_555
H40_8 C47_6 1_555 1_555
H41_6 C47_6 1_555 1_555
C48_8 C46_8 1_555 1_555
H42_8 C48_8 1_555 1_555
H43_8 C48_8 1_555 1_555
H44_8 C48_8 1_555 1_555
C42_8 C43_8 1_555 1_555
C44_8 C45_8 1_555 1_555
C44_8 C46_8 1_555 1_555
H29_8 C35_8 1_555 1_555
H31_8 C35_8 1_555 1_555
Zn4_2 O5_9 1_555 1_555
O5_9 C25_9 1_555 1_555
O6_9 C25_9 1_555 1_555
O7_9 Zn4_2 1_555 1_555
O8_9 C37_9 1_555 1_555
N7_9 H23_9 1_555 1_555
N8_7 N7_9 1_555 1_555
N9_9 H24_9 1_555 1_555
N10_5 N9_9 1_555 1_555
C25_9 C26_9 1_555 1_555
C26_9 C27_9 1_555 1_555
C27_9 H25_9 1_555 1_555
C28_9 C27_9 1_555 1_555
H26_9 C28_9 1_555 1_555
C29_9 C28_9 1_555 1_555
C30_9 C29_9 1_555 1_555
H27_9 C30_9 1_555 1_555
C31_9 C26_9 1_555 1_555
H28_9 C31_9 1_555 1_555
C32_9 C29_9 1_555 1_555
C33_9 N8_7 1_555 1_555
C34_9 N7_9 1_555 1_555
C35_9 C33_9 1_555 1_555
H29_9 C35_9 1_555 1_555
H30_9 C35_9 1_555 1_555
H31_9 C35_9 1_555 1_555
C36_9 C34_9 1_555 1_555
H32_9 C36_9 1_555 1_555
H33_9 C36_9 1_555 1_555
H34_9 C36_9 1_555 1_555
C37_9 O7_9 1_555 1_555
C38_9 C37_9 1_555 1_555
C39_9 C38_9 1_555 1_555
H35_9 C39_9 1_555 1_555
C40_9 C39_9 1_555 1_555
H36_9 C40_9 1_555 1_555
C41_9 C40_9 1_555 1_555
C42_9 C41_9 1_555 1_555
H37_9 C42_9 1_555 1_555
C43_9 C38_9 1_555 1_555
H38_9 C43_9 1_555 1_555
C44_9 C41_9 1_555 1_555
C45_9 N10_5 1_555 1_555
C46_9 N9_9 1_555 1_555
C47_7 C45_9 1_555 1_555
H39_7 C47_7 1_555 1_555
H40_9 C47_7 1_555 1_555
H41_7 C47_7 1_555 1_555
C48_9 C46_9 1_555 1_555
H42_9 C48_9 1_555 1_555
H43_9 C48_9 1_555 1_555
H44_9 C48_9 1_555 1_555
Zn5_4 N8_7 1_555 1_555
Zn6_5 N10_5 1_555 1_555
N11_3 Zn4_2 1_555 1_555
N12_5 Zn4_2 1_555 1_555
C30_9 C31_9 1_555 1_555
C32_9 C33_9 1_555 1_555
C32_9 C34_9 1_555 1_555
C42_9 C43_9 1_555 1_555
C44_9 C45_9 1_555 1_555
C44_9 C46_9 1_555 1_555
H29_10 C35_10 1_555 1_555
H31_10 C35_10 1_555 1_555
O5_10 C25_10 1_555 1_555
O6_10 C25_10 1_555 1_555
N7_10 H23_10 1_555 1_555
N8_8 N7_10 1_555 1_555
C25_10 C26_10 1_555 1_555
C26_10 C27_10 1_555 1_555
C27_10 H25_10 1_555 1_555
C28_10 C27_10 1_555 1_555
H26_10 C28_10 1_555 1_555
C29_10 C28_10 1_555 1_555
C30_10 C29_10 1_555 1_555
H27_10 C30_10 1_555 1_555
C31_10 C26_10 1_555 1_555
H28_10 C31_10 1_555 1_555
C32_10 C29_10 1_555 1_555
C33_10 N8_8 1_555 1_555
C34_10 N7_10 1_555 1_555
C36_10 C34_10 1_555 1_555
H32_10 C36_10 1_555 1_555
H33_10 C36_10 1_555 1_555
H34_10 C36_10 1_555 1_555
C30_10 C31_10 1_555 1_555
C32_10 C33_10 1_555 1_555
C32_10 C34_10 1_555 1_555
O7_10 Zn4_3 1_555 1_555
O8_10 C37_10 1_555 1_555
N9_10 H24_10 1_555 1_555
N12_5 N9_10 1_555 1_555
C37_10 O7_10 1_555 1_555
C38_10 C37_10 1_555 1_555
C39_10 C38_10 1_555 1_555
H35_10 C39_10 1_555 1_555
C40_10 C39_10 1_555 1_555
H36_10 C40_10 1_555 1_555
C41_10 C40_10 1_555 1_555
C42_10 C41_10 1_555 1_555
H37_10 C42_10 1_555 1_555
C43_10 C38_10 1_555 1_555
H38_10 C43_10 1_555 1_555
C44_10 C41_10 1_555 1_555
C45_10 N12_5 1_555 1_555
C46_10 N9_10 1_555 1_555
C47_8 C45_10 1_555 1_555
H39_8 C47_8 1_555 1_555
H40_10 C47_8 1_555 1_555
H41_8 C47_8 1_555 1_555
C48_10 C46_10 1_555 1_555
H42_10 C48_10 1_555 1_555
H43_10 C48_10 1_555 1_555
H44_10 C48_10 1_555 1_555
C42_10 C43_10 1_555 1_555
C44_10 C45_10 1_555 1_555
C44_10 C46_10 1_555 1_555
Zn4_4 O5_11 1_555 1_555
O5_11 C25_11 1_555 1_555
O6_11 C25_11 1_555 1_555
O7_11 Zn4_4 1_555 1_555
O8_11 C37_11 1_555 1_555
N7_11 H23_11 1_555 1_555
N8_9 N7_11 1_555 1_555
C25_11 C26_11 1_555 1_555
C26_11 C27_11 1_555 1_555
C27_11 H25_11 1_555 1_555
C28_11 C27_11 1_555 1_555
H26_11 C28_11 1_555 1_555
C29_11 C28_11 1_555 1_555
C30_11 C29_11 1_555 1_555
H27_11 C30_11 1_555 1_555
C31_11 C26_11 1_555 1_555
H28_11 C31_11 1_555 1_555
C32_11 C29_11 1_555 1_555
C33_11 N8_9 1_555 1_555
C34_11 N7_11 1_555 1_555
C35_11 C33_11 1_555 1_555
H29_11 C35_11 1_555 1_555
H30_11 C35_11 1_555 1_555
H31_11 C35_11 1_555 1_555
C36_11 C34_11 1_555 1_555
H32_11 C36_11 1_555 1_555
H33_11 C36_11 1_555 1_555
H34_11 C36_11 1_555 1_555
C37_11 O7_11 1_555 1_555
C38_11 C37_11 1_555 1_555
C39_11 C38_11 1_555 1_555
H35_11 C39_11 1_555 1_555
C40_11 C39_11 1_555 1_555
H36_11 C40_11 1_555 1_555
C41_11 C40_11 1_555 1_555
C42_11 C41_11 1_555 1_555
H37_11 C42_11 1_555 1_555
C43_11 C38_11 1_555 1_555
H38_11 C43_11 1_555 1_555
C44_11 C41_11 1_555 1_555
C47_9 C45_11 1_555 1_555
H39_9 C47_9 1_555 1_555
H40_11 C47_9 1_555 1_555
H41_9 C47_9 1_555 1_555
C48_11 C46_11 1_555 1_555
H43_11 C48_11 1_555 1_555
H44_11 C48_11 1_555 1_555
N11_5 Zn4_4 1_555 1_555
N12_7 Zn4_4 1_555 1_555
C30_11 C31_11 1_555 1_555
C32_11 C33_11 1_555 1_555
C32_11 C34_11 1_555 1_555
C42_11 C43_11 1_555 1_555
C44_11 C45_11 1_555 1_555
C44_11 C46_11 1_555 1_555
N9_11 H24_11 1_555 1_555
N12_6 N9_11 1_555 1_555
H29_12 C35_12 1_555 1_555
H31_12 C35_12 1_555 1_555
Zn6_5 O5_12 1_555 1_555
O5_12 C25_12 1_555 1_555
O6_12 C25_12 1_555 1_555
O7_12 Zn6_5 1_555 1_555
O8_12 C37_12 1_555 1_555
N7_12 H23_12 1_555 1_555
N8_10 N7_12 1_555 1_555
N9_12 H24_12 1_555 1_555
N12_7 N9_12 1_555 1_555
C25_12 C26_12 1_555 1_555
C26_12 C27_12 1_555 1_555
C27_12 H25_12 1_555 1_555
C28_12 C27_12 1_555 1_555
H26_12 C28_12 1_555 1_555
C29_12 C28_12 1_555 1_555
C30_12 C29_12 1_555 1_555
H27_12 C30_12 1_555 1_555
C31_12 C26_12 1_555 1_555
H28_12 C31_12 1_555 1_555
C32_12 C29_12 1_555 1_555
C33_12 N8_10 1_555 1_555
C34_12 N7_12 1_555 1_555
C36_12 C34_12 1_555 1_555
H32_12 C36_12 1_555 1_555
H33_12 C36_12 1_555 1_555
H34_12 C36_12 1_555 1_555
C37_12 O7_12 1_555 1_555
C38_12 C37_12 1_555 1_555
C39_12 C38_12 1_555 1_555
H35_12 C39_12 1_555 1_555
C40_12 C39_12 1_555 1_555
H36_12 C40_12 1_555 1_555
C41_12 C40_12 1_555 1_555
C42_12 C41_12 1_555 1_555
H37_12 C42_12 1_555 1_555
C43_12 C38_12 1_555 1_555
H38_12 C43_12 1_555 1_555
C44_12 C41_12 1_555 1_555
C45_12 N12_7 1_555 1_555
C46_12 N9_12 1_555 1_555
C47_10 C45_12 1_555 1_555
H39_10 C47_10 1_555 1_555
H40_12 C47_10 1_555 1_555
H41_10 C47_10 1_555 1_555
C48_12 C46_12 1_555 1_555
H42_12 C48_12 1_555 1_555
H43_12 C48_12 1_555 1_555
H44_12 C48_12 1_555 1_555
N11_6 Zn6_5 1_555 1_555
C30_12 C31_12 1_555 1_555
C32_12 C33_12 1_555 1_555
C32_12 C34_12 1_555 1_555
C42_12 C43_12 1_555 1_555
C44_12 C45_12 1_555 1_555
C44_12 C46_12 1_555 1_555
O7_13 Zn5_5 1_555 1_555
O8_13 C37_13 1_555 1_555
C37_13 O7_13 1_555 1_555
C38_13 C37_13 1_555 1_555
C39_13 C38_13 1_555 1_555
H35_13 C39_13 1_555 1_555
C40_13 C39_13 1_555 1_555
H36_13 C40_13 1_555 1_555
C41_13 C40_13 1_555 1_555
C42_13 C41_13 1_555 1_555
H37_13 C42_13 1_555 1_555
C43_13 C38_13 1_555 1_555
H38_13 C43_13 1_555 1_555
C44_13 C41_13 1_555 1_555
C47_11 C45_13 1_555 1_555
H39_11 C47_11 1_555 1_555
H40_13 C47_11 1_555 1_555
H41_11 C47_11 1_555 1_555
C48_13 C46_13 1_555 1_555
H43_13 C48_13 1_555 1_555
H44_13 C48_13 1_555 1_555
N12_8 Zn5_5 1_555 1_555
C42_13 C43_13 1_555 1_555
C44_13 C45_13 1_555 1_555
C44_13 C46_13 1_555 1_555
N9_13 H24_13 1_555 1_555
N10_6 N9_13 1_555 1_555
Zn5_4 N10_6 1_555 1_555
O5_13 C25_13 1_555 1_555
O6_13 C25_13 1_555 1_555
N7_13 H23_13 1_555 1_555
N11_6 N7_13 1_555 1_555
C25_13 C26_13 1_555 1_555
C26_13 C27_13 1_555 1_555
C27_13 H25_13 1_555 1_555
C28_13 C27_13 1_555 1_555
H26_13 C28_13 1_555 1_555
C29_13 C28_13 1_555 1_555
C30_13 C29_13 1_555 1_555
H27_13 C30_13 1_555 1_555
C31_13 C26_13 1_555 1_555
H28_13 C31_13 1_555 1_555
C32_13 C29_13 1_555 1_555
C33_13 N11_6 1_555 1_555
C34_13 N7_13 1_555 1_555
C35_13 C33_13 1_555 1_555
H29_13 C35_13 1_555 1_555
H30_13 C35_13 1_555 1_555
H31_13 C35_13 1_555 1_555
C36_13 C34_13 1_555 1_555
H32_13 C36_13 1_555 1_555
H33_13 C36_13 1_555 1_555
H34_13 C36_13 1_555 1_555
C30_13 C31_13 1_555 1_555
C32_13 C33_13 1_555 1_555
C32_13 C34_13 1_555 1_555
Zn5_6 O5_14 1_555 1_555
O5_14 C25_14 1_555 1_555
O6_14 C25_14 1_555 1_555
O7_14 Zn5_6 1_555 1_555
O8_14 C37_14 1_555 1_555
N7_14 H23_14 1_555 1_555
N11_3 N7_14 1_555 1_555
N9_14 H24_14 1_555 1_555
N12_8 N9_14 1_555 1_555
C25_14 C26_14 1_555 1_555
C26_14 C27_14 1_555 1_555
C27_14 H25_14 1_555 1_555
C28_14 C27_14 1_555 1_555
H26_14 C28_14 1_555 1_555
C29_14 C28_14 1_555 1_555
C30_14 C29_14 1_555 1_555
H27_14 C30_14 1_555 1_555
C31_14 C26_14 1_555 1_555
H28_14 C31_14 1_555 1_555
C32_14 C29_14 1_555 1_555
C33_14 N11_3 1_555 1_555
C34_14 N7_14 1_555 1_555
C35_14 C33_14 1_555 1_555
H29_14 C35_14 1_555 1_555
H30_14 C35_14 1_555 1_555
H31_14 C35_14 1_555 1_555
C36_14 C34_14 1_555 1_555
H32_14 C36_14 1_555 1_555
H33_14 C36_14 1_555 1_555
H34_14 C36_14 1_555 1_555
C37_14 O7_14 1_555 1_555
C38_14 C37_14 1_555 1_555
C39_14 C38_14 1_555 1_555
H35_14 C39_14 1_555 1_555
C40_14 C39_14 1_555 1_555
H36_14 C40_14 1_555 1_555
C41_14 C40_14 1_555 1_555
C42_14 C41_14 1_555 1_555
H37_14 C42_14 1_555 1_555
C43_14 C38_14 1_555 1_555
H38_14 C43_14 1_555 1_555
C44_14 C41_14 1_555 1_555
C45_14 N12_8 1_555 1_555
C46_14 N9_14 1_555 1_555
C48_14 C46_14 1_555 1_555
H42_14 C48_14 1_555 1_555
H43_14 C48_14 1_555 1_555
H44_14 C48_14 1_555 1_555
C30_14 C31_14 1_555 1_555
C32_14 C33_14 1_555 1_555
C32_14 C34_14 1_555 1_555
C42_14 C43_14 1_555 1_555
C44_14 C45_14 1_555 1_555
C44_14 C46_14 1_555 1_555
O7_15 Zn5_7 1_555 1_555
O8_15 C37_15 1_555 1_555
N9_15 H24_15 1_555 1_555
N12_9 N9_15 1_555 1_555
C37_15 O7_15 1_555 1_555
C38_15 C37_15 1_555 1_555
C39_15 C38_15 1_555 1_555
H35_15 C39_15 1_555 1_555
C40_15 C39_15 1_555 1_555
H36_15 C40_15 1_555 1_555
C41_15 C40_15 1_555 1_555
C42_15 C41_15 1_555 1_555
H37_15 C42_15 1_555 1_555
C43_15 C38_15 1_555 1_555
H38_15 C43_15 1_555 1_555
C44_15 C41_15 1_555 1_555
C45_15 N12_9 1_555 1_555
C46_15 N9_15 1_555 1_555
C47_12 C45_15 1_555 1_555
H39_12 C47_12 1_555 1_555
H40_15 C47_12 1_555 1_555
H41_12 C47_12 1_555 1_555
C48_15 C46_15 1_555 1_555
H42_15 C48_15 1_555 1_555
H43_15 C48_15 1_555 1_555
H44_15 C48_15 1_555 1_555
N12_10 Zn5_7 1_555 1_555
C42_15 C43_15 1_555 1_555
C44_15 C45_15 1_555 1_555
C44_15 C46_15 1_555 1_555
O5_15 C25_15 1_555 1_555
O6_15 C25_15 1_555 1_555
N7_15 H23_15 1_555 1_555
N11_4 N7_15 1_555 1_555
C25_15 C26_15 1_555 1_555
C26_15 C27_15 1_555 1_555
C27_15 H25_15 1_555 1_555
C28_15 C27_15 1_555 1_555
H26_15 C28_15 1_555 1_555
C29_15 C28_15 1_555 1_555
C30_15 C29_15 1_555 1_555
H27_15 C30_15 1_555 1_555
C31_15 C26_15 1_555 1_555
H28_15 C31_15 1_555 1_555
C32_15 C29_15 1_555 1_555
C33_15 N11_4 1_555 1_555
C34_15 N7_15 1_555 1_555
C35_15 C33_15 1_555 1_555
H29_15 C35_15 1_555 1_555
H30_15 C35_15 1_555 1_555
H31_15 C35_15 1_555 1_555
C36_15 C34_15 1_555 1_555
H32_15 C36_15 1_555 1_555
H33_15 C36_15 1_555 1_555
H34_15 C36_15 1_555 1_555
C30_15 C31_15 1_555 1_555
C32_15 C33_15 1_555 1_555
C32_15 C34_15 1_555 1_555
O5_16 C25_16 1_555 1_555
O6_16 C25_16 1_555 1_555
N7_16 H23_16 1_555 1_555
N11_5 N7_16 1_555 1_555
C25_16 C26_16 1_555 1_555
C26_16 C27_16 1_555 1_555
C27_16 H25_16 1_555 1_555
C28_16 C27_16 1_555 1_555
H26_16 C28_16 1_555 1_555
C29_16 C28_16 1_555 1_555
C30_16 C29_16 1_555 1_555
H27_16 C30_16 1_555 1_555
C31_16 C26_16 1_555 1_555
H28_16 C31_16 1_555 1_555
C32_16 C29_16 1_555 1_555
C33_16 N11_5 1_555 1_555
C34_16 N7_16 1_555 1_555
C35_16 C33_16 1_555 1_555
H29_16 C35_16 1_555 1_555
H30_16 C35_16 1_555 1_555
H31_16 C35_16 1_555 1_555
C36_16 C34_16 1_555 1_555
H32_16 C36_16 1_555 1_555
H33_16 C36_16 1_555 1_555
H34_16 C36_16 1_555 1_555
C30_16 C31_16 1_555 1_555
C32_16 C33_16 1_555 1_555
C32_16 C34_16 1_555 1_555
O7_16 Zn5_4 1_555 1_555
O8_16 C37_16 1_555 1_555
N9_16 H24_16 1_555 1_555
N12_10 N9_16 1_555 1_555
C37_16 O7_16 1_555 1_555
C38_16 C37_16 1_555 1_555
C39_16 C38_16 1_555 1_555
H35_16 C39_16 1_555 1_555
C40_16 C39_16 1_555 1_555
H36_16 C40_16 1_555 1_555
C41_16 C40_16 1_555 1_555
C42_16 C41_16 1_555 1_555
H37_16 C42_16 1_555 1_555
C43_16 C38_16 1_555 1_555
H38_16 C43_16 1_555 1_555
C44_16 C41_16 1_555 1_555
C45_16 N12_10 1_555 1_555
C46_16 N9_16 1_555 1_555
C48_16 C46_16 1_555 1_555
H42_16 C48_16 1_555 1_555
H43_16 C48_16 1_555 1_555
H44_16 C48_16 1_555 1_555
C42_16 C43_16 1_555 1_555
C44_16 C45_16 1_555 1_555
C44_16 C46_16 1_555 1_555
H39_13 C47_13 1_555 1_555
H41_13 C47_13 1_555 1_555
H39_14 C47_14 1_555 1_555
H41_14 C47_14 1_555 1_555
H39_15 C47_15 1_555 1_555
H41_15 C47_15 1_555 1_555
H39_16 C47_16 1_555 1_555
H41_16 C47_16 1_555 1_555
H50 C59 1_555 1_555
H51 C59 1_555 1_555
H52 C59 1_555 1_555
Zn8 O9 1_555 1_555
O9 C49 1_555 1_555
O10 C49 1_555 1_555
C49 C50 1_555 1_555
C50 C51 1_555 1_555
C51 H46 1_555 1_555
C52 C51 1_555 1_555
H47 C52 1_555 1_555
C53 C52 1_555 1_555
C54 C53 1_555 1_555
H48 C54 1_555 1_555
C55 C50 1_555 1_555
H49 C55 1_555 1_555
C56 C53 1_555 1_555
C59_2 C57 1_555 1_555
H50_2 C59_2 1_555 1_555
H51_2 C59_2 1_555 1_555
H52_2 C59_2 1_555 1_555
C54 C55 1_555 1_555
C56 C57 1_555 1_555
Zn7 O9_2 1_555 1_555
O9_2 C49_2 1_555 1_555
O10_2 C49_2 1_555 1_555
N13 H45 1_555 1_555
N14 N13 1_555 1_555
C49_2 C50_2 1_555 1_555
C50_2 C51_2 1_555 1_555
C51_2 H46_2 1_555 1_555
C52_2 C51_2 1_555 1_555
H47_2 C52_2 1_555 1_555
C53_2 C52_2 1_555 1_555
C54_2 C53_2 1_555 1_555
H48_2 C54_2 1_555 1_555
C55_2 C50_2 1_555 1_555
H49_2 C55_2 1_555 1_555
C56_2 C53_2 1_555 1_555
C57_2 N14 1_555 1_555
C58 N13 1_555 1_555
C60 C58 1_555 1_555
H53 C60 1_555 1_555
H54_2 C60 1_555 1_555
H55_2 C60 1_555 1_555
O11 Zn7 1_555 1_555
O12 C61 1_555 1_555
N15 H56 1_555 1_555
N16 N15 1_555 1_555
C61 O11 1_555 1_555
C62 C61 1_555 1_555
C63 C62 1_555 1_555
H57 C63 1_555 1_555
C64 C63 1_555 1_555
H58 C64 1_555 1_555
C65 C64 1_555 1_555
C66 C65 1_555 1_555
H59 C66 1_555 1_555
C67 C62 1_555 1_555
H60 C67 1_555 1_555
C68 C65 1_555 1_555
C69 N16 1_555 1_555
C70 N15 1_555 1_555
C71 C69 1_555 1_555
H61 C71 1_555 1_555
H62 C71 1_555 1_555
H63 C71 1_555 1_555
C72 C70 1_555 1_555
H64 C72 1_555 1_555
H65 C72 1_555 1_555
H66 C72 1_555 1_555
Zn8_3 N14 1_555 1_555
Zn9 N16 1_555 1_555
N17 Zn7 1_555 1_555
N18 Zn7 1_555 1_555
C54_2 C55_2 1_555 1_555
C56_2 C57_2 1_555 1_555
C56_2 C58 1_555 1_555
C66 C67 1_555 1_555
C68 C69 1_555 1_555
C68 C70 1_555 1_555
Zn7_2 O9_3 1_555 1_555
O9_3 C49_3 1_555 1_555
O10_3 C49_3 1_555 1_555
N13_2 H45_2 1_555 1_555
N14_2 N13_2 1_555 1_555
C49_3 C50_3 1_555 1_555
C50_3 C51_3 1_555 1_555
C51_3 H46_3 1_555 1_555
C52_3 C51_3 1_555 1_555
H47_3 C52_3 1_555 1_555
C53_3 C52_3 1_555 1_555
C54_3 C53_3 1_555 1_555
H48_3 C54_3 1_555 1_555
C55_3 C50_3 1_555 1_555
H49_3 C55_3 1_555 1_555
C56_3 C53_3 1_555 1_555
C57_3 N14_2 1_555 1_555
C58_2 N13_2 1_555 1_555
C60_2 C58_2 1_555 1_555
H53_2 C60_2 1_555 1_555
H54_3 C60_2 1_555 1_555
H55_3 C60_2 1_555 1_555
O11_2 Zn7_2 1_555 1_555
O12_2 C61_2 1_555 1_555
N15_2 H56_2 1_555 1_555
N16_2 N15_2 1_555 1_555
C61_2 O11_2 1_555 1_555
C62_2 C61_2 1_555 1_555
C63_2 C62_2 1_555 1_555
H57_2 C63_2 1_555 1_555
C64_2 C63_2 1_555 1_555
H58_2 C64_2 1_555 1_555
C65_2 C64_2 1_555 1_555
C66_2 C65_2 1_555 1_555
H59_2 C66_2 1_555 1_555
C67_2 C62_2 1_555 1_555
H60_2 C67_2 1_555 1_555
C68_2 C65_2 1_555 1_555
C69_2 N16_2 1_555 1_555
C70_2 N15_2 1_555 1_555
C71_2 C69_2 1_555 1_555
H61_2 C71_2 1_555 1_555
H62_2 C71_2 1_555 1_555
H63_2 C71_2 1_555 1_555
C72_2 C70_2 1_555 1_555
H64_2 C72_2 1_555 1_555
H65_2 C72_2 1_555 1_555
H66_2 C72_2 1_555 1_555
Zn8_2 N14_2 1_555 1_555
Zn9 N16_2 1_555 1_555
N17_2 Zn7_2 1_555 1_555
N18_2 Zn7_2 1_555 1_555
C54_3 C55_3 1_555 1_555
C56_3 C57_3 1_555 1_555
C56_3 C58_2 1_555 1_555
C66_2 C67_2 1_555 1_555
C68_2 C69_2 1_555 1_555
C68_2 C70_2 1_555 1_555
N13_3 H45_3 1_555 1_555
N14_3 N13_3 1_555 1_555
C58_3 N13_3 1_555 1_555
C60_3 C58_3 1_555 1_555
H53_3 C60_3 1_555 1_555
Zn8_4 N14_3 1_555 1_555
N15_3 H56_3 1_555 1_555
N16_3 N15_3 1_555 1_555
C70_3 N15_3 1_555 1_555
C72_3 C70_3 1_555 1_555
H64_3 C72_3 1_555 1_555
Zn9_2 N16_3 1_555 1_555
N13_4 H45_4 1_555 1_555
N14_4 N13_4 1_555 1_555
C58_4 N13_4 1_555 1_555
C60_4 C58_4 1_555 1_555
H53_4 C60_4 1_555 1_555
N15_4 H56_4 1_555 1_555
N16_4 N15_4 1_555 1_555
C70_4 N15_4 1_555 1_555
C72_4 C70_4 1_555 1_555
H64_4 C72_4 1_555 1_555
Zn8_4 N14_4 1_555 1_555
Zn9_2 N16_4 1_555 1_555
Zn9 O9_4 1_555 1_555
O9_4 C49_4 1_555 1_555
O10_4 C49_4 1_555 1_555
C49_4 C50_4 1_555 1_555
C50_4 C51_4 1_555 1_555
C51_4 H46_4 1_555 1_555
C52_4 C51_4 1_555 1_555
H47_4 C52_4 1_555 1_555
C53_4 C52_4 1_555 1_555
C54_4 C53_4 1_555 1_555
H48_4 C54_4 1_555 1_555
C55_4 C50_4 1_555 1_555
H49_4 C55_4 1_555 1_555
C56_4 C53_4 1_555 1_555
C59_3 C57_4 1_555 1_555
H50_3 C59_3 1_555 1_555
H51_3 C59_3 1_555 1_555
H52_3 C59_3 1_555 1_555
O11_3 Zn9 1_555 1_555
O12_3 C61_3 1_555 1_555
C61_3 O11_3 1_555 1_555
C62_3 C61_3 1_555 1_555
C63_3 C62_3 1_555 1_555
H57_3 C63_3 1_555 1_555
C64_3 C63_3 1_555 1_555
H58_3 C64_3 1_555 1_555
C65_3 C64_3 1_555 1_555
C66_3 C65_3 1_555 1_555
H59_3 C66_3 1_555 1_555
C67_3 C62_3 1_555 1_555
H60_3 C67_3 1_555 1_555
C68_3 C65_3 1_555 1_555
C71_3 C69_3 1_555 1_555
H61_3 C71_3 1_555 1_555
H62_3 C71_3 1_555 1_555
H63_3 C71_3 1_555 1_555
C54_4 C55_4 1_555 1_555
C56_4 C57_4 1_555 1_555
C66_3 C67_3 1_555 1_555
C68_3 C69_3 1_555 1_555
H50_4 C59_4 1_555 1_555
H51_4 C59_4 1_555 1_555
H52_4 C59_4 1_555 1_555
Zn9_2 O9_5 1_555 1_555
O9_5 C49_5 1_555 1_555
O10_5 C49_5 1_555 1_555
N13_5 H45_5 1_555 1_555
N14_5 N13_5 1_555 1_555
C49_5 C50_5 1_555 1_555
C50_5 C51_5 1_555 1_555
C51_5 H46_5 1_555 1_555
C52_5 C51_5 1_555 1_555
H47_5 C52_5 1_555 1_555
C53_5 C52_5 1_555 1_555
C54_5 C53_5 1_555 1_555
H48_5 C54_5 1_555 1_555
C55_5 C50_5 1_555 1_555
H49_5 C55_5 1_555 1_555
C56_5 C53_5 1_555 1_555
C57_5 N14_5 1_555 1_555
C58_5 N13_5 1_555 1_555
C60_5 C58_5 1_555 1_555
H53_5 C60_5 1_555 1_555
H54_5 C60_5 1_555 1_555
H55_5 C60_5 1_555 1_555
O11_4 Zn9_2 1_555 1_555
O12_4 C61_4 1_555 1_555
N15_5 H56_5 1_555 1_555
N16_5 N15_5 1_555 1_555
C61_4 O11_4 1_555 1_555
C62_4 C61_4 1_555 1_555
C63_4 C62_4 1_555 1_555
H57_4 C63_4 1_555 1_555
C64_4 C63_4 1_555 1_555
H58_4 C64_4 1_555 1_555
C65_4 C64_4 1_555 1_555
C66_4 C65_4 1_555 1_555
H59_4 C66_4 1_555 1_555
C67_4 C62_4 1_555 1_555
H60_4 C67_4 1_555 1_555
C68_4 C65_4 1_555 1_555
C69_4 N16_5 1_555 1_555
C70_5 N15_5 1_555 1_555
C71_4 C69_4 1_555 1_555
H61_4 C71_4 1_555 1_555
H62_4 C71_4 1_555 1_555
H63_4 C71_4 1_555 1_555
C72_5 C70_5 1_555 1_555
H64_5 C72_5 1_555 1_555
H65_4 C72_5 1_555 1_555
H66_4 C72_5 1_555 1_555
Zn8_6 N14_5 1_555 1_555
Zn9_4 N16_5 1_555 1_555
C54_5 C55_5 1_555 1_555
C56_5 C57_5 1_555 1_555
C56_5 C58_5 1_555 1_555
C66_4 C67_4 1_555 1_555
C68_4 C69_4 1_555 1_555
C68_4 C70_5 1_555 1_555
Zn8_4 O9_6 1_555 1_555
O9_6 C49_6 1_555 1_555
O10_6 C49_6 1_555 1_555
N13_6 H45_6 1_555 1_555
N14_6 N13_6 1_555 1_555
C49_6 C50_6 1_555 1_555
C50_6 C51_6 1_555 1_555
C51_6 H46_6 1_555 1_555
C52_6 C51_6 1_555 1_555
H47_6 C52_6 1_555 1_555
C53_6 C52_6 1_555 1_555
C54_6 C53_6 1_555 1_555
H48_6 C54_6 1_555 1_555
C55_6 C50_6 1_555 1_555
H49_6 C55_6 1_555 1_555
C56_6 C53_6 1_555 1_555
C57_6 N14_6 1_555 1_555
C58_6 N13_6 1_555 1_555
C60_6 C58_6 1_555 1_555
H53_6 C60_6 1_555 1_555
H54_6 C60_6 1_555 1_555
H55_6 C60_6 1_555 1_555
O11_5 Zn8_4 1_555 1_555
O12_5 C61_5 1_555 1_555
N15_6 H56_6 1_555 1_555
N16_6 N15_6 1_555 1_555
C61_5 O11_5 1_555 1_555
C62_5 C61_5 1_555 1_555
C63_5 C62_5 1_555 1_555
H57_5 C63_5 1_555 1_555
C64_5 C63_5 1_555 1_555
H58_5 C64_5 1_555 1_555
C65_5 C64_5 1_555 1_555
C66_5 C65_5 1_555 1_555
H59_5 C66_5 1_555 1_555
C67_5 C62_5 1_555 1_555
H60_5 C67_5 1_555 1_555
C68_5 C65_5 1_555 1_555
C69_5 N16_6 1_555 1_555
C70_6 N15_6 1_555 1_555
C71_5 C69_5 1_555 1_555
H61_5 C71_5 1_555 1_555
H62_5 C71_5 1_555 1_555
H63_5 C71_5 1_555 1_555
C72_6 C70_6 1_555 1_555
H64_6 C72_6 1_555 1_555
H65_5 C72_6 1_555 1_555
H66_5 C72_6 1_555 1_555
Zn8_5 N14_6 1_555 1_555
Zn9_3 N16_6 1_555 1_555
C54_6 C55_6 1_555 1_555
C56_6 C57_6 1_555 1_555
C56_6 C58_6 1_555 1_555
C66_5 C67_5 1_555 1_555
C68_5 C69_5 1_555 1_555
C68_5 C70_6 1_555 1_555
H50_5 C59_5 1_555 1_555
H51_5 C59_5 1_555 1_555
H52_5 C59_5 1_555 1_555
Zn8_5 O9_7 1_555 1_555
O9_7 C49_7 1_555 1_555
O10_7 C49_7 1_555 1_555
N13_7 H45_7 1_555 1_555
N18_2 N13_7 1_555 1_555
C49_7 C50_7 1_555 1_555
C50_7 C51_7 1_555 1_555
C51_7 H46_7 1_555 1_555
C52_7 C51_7 1_555 1_555
H47_7 C52_7 1_555 1_555
C53_7 C52_7 1_555 1_555
C54_7 C53_7 1_555 1_555
H48_7 C54_7 1_555 1_555
C55_7 C50_7 1_555 1_555
H49_7 C55_7 1_555 1_555
C56_7 C53_7 1_555 1_555
C57_7 N18_2 1_555 1_555
C58_7 N13_7 1_555 1_555
C59_6 C57_7 1_555 1_555
H50_6 C59_6 1_555 1_555
H51_6 C59_6 1_555 1_555
H52_6 C59_6 1_555 1_555
C60_7 C58_7 1_555 1_555
H53_7 C60_7 1_555 1_555
H54_7 C60_7 1_555 1_555
H55_7 C60_7 1_555 1_555
C54_7 C55_7 1_555 1_555
C56_7 C57_7 1_555 1_555
C56_7 C58_7 1_555 1_555
O11_6 Zn8_6 1_555 1_555
O12_6 C61_6 1_555 1_555
N15_7 H56_7 1_555 1_555
N18 N15_7 1_555 1_555
C61_6 O11_6 1_555 1_555
C62_6 C61_6 1_555 1_555
C63_6 C62_6 1_555 1_555
H57_6 C63_6 1_555 1_555
C64_6 C63_6 1_555 1_555
H58_6 C64_6 1_555 1_555
C65_6 C64_6 1_555 1_555
C66_6 C65_6 1_555 1_555
H59_6 C66_6 1_555 1_555
C67_6 C62_6 1_555 1_555
H60_6 C67_6 1_555 1_555
C68_6 C65_6 1_555 1_555
C69_6 N18 1_555 1_555
C70_7 N15_7 1_555 1_555
C71_6 C69_6 1_555 1_555
H61_6 C71_6 1_555 1_555
H62_6 C71_6 1_555 1_555
H63_6 C71_6 1_555 1_555
C72_7 C70_7 1_555 1_555
H64_7 C72_7 1_555 1_555
H65_6 C72_7 1_555 1_555
H66_6 C72_7 1_555 1_555
C66_6 C67_6 1_555 1_555
C68_6 C69_6 1_555 1_555
C68_6 C70_7 1_555 1_555
O11_7 Zn9_3 1_555 1_555
O12_7 C61_7 1_555 1_555
N15_8 H56_8 1_555 1_555
N17 N15_8 1_555 1_555
C61_7 O11_7 1_555 1_555
C62_7 C61_7 1_555 1_555
C63_7 C62_7 1_555 1_555
H57_7 C63_7 1_555 1_555
C64_7 C63_7 1_555 1_555
H58_7 C64_7 1_555 1_555
C65_7 C64_7 1_555 1_555
C66_7 C65_7 1_555 1_555
H59_7 C66_7 1_555 1_555
C67_7 C62_7 1_555 1_555
H60_7 C67_7 1_555 1_555
C68_7 C65_7 1_555 1_555
C69_7 N17 1_555 1_555
C70_8 N15_8 1_555 1_555
C71_7 C69_7 1_555 1_555
H61_7 C71_7 1_555 1_555
H62_7 C71_7 1_555 1_555
H63_7 C71_7 1_555 1_555
C72_8 C70_8 1_555 1_555
H64_8 C72_8 1_555 1_555
H65_7 C72_8 1_555 1_555
H66_7 C72_8 1_555 1_555
C66_7 C67_7 1_555 1_555
C68_7 C69_7 1_555 1_555
C68_7 C70_8 1_555 1_555
Zn9_4 O9_8 1_555 1_555
O9_8 C49_8 1_555 1_555
O10_8 C49_8 1_555 1_555
N13_8 H45_8 1_555 1_555
N17_2 N13_8 1_555 1_555
C49_8 C50_8 1_555 1_555
C50_8 C51_8 1_555 1_555
C51_8 H46_8 1_555 1_555
C52_8 C51_8 1_555 1_555
H47_8 C52_8 1_555 1_555
C53_8 C52_8 1_555 1_555
C54_8 C53_8 1_555 1_555
H48_8 C54_8 1_555 1_555
C55_8 C50_8 1_555 1_555
H49_8 C55_8 1_555 1_555
C56_8 C53_8 1_555 1_555
C57_8 N17_2 1_555 1_555
C58_8 N13_8 1_555 1_555
C59_7 C57_8 1_555 1_555
H50_7 C59_7 1_555 1_555
H51_7 C59_7 1_555 1_555
H52_7 C59_7 1_555 1_555
C60_8 C58_8 1_555 1_555
H53_8 C60_8 1_555 1_555
H54_8 C60_8 1_555 1_555
H55_8 C60_8 1_555 1_555
C54_8 C55_8 1_555 1_555
C56_8 C57_8 1_555 1_555
C56_8 C58_8 1_555 1_555
H50_8 C59_8 1_555 1_555
H51_8 C59_8 1_555 1_555
H52_8 C59_8 1_555 1_555
O11_8 Zn8_7 1_555 1_555
O12_8 C61_8 1_555 1_555
C61_8 O11_8 1_555 1_555
C62_8 C61_8 1_555 1_555
C63_8 C62_8 1_555 1_555
H57_8 C63_8 1_555 1_555
C64_8 C63_8 1_555 1_555
H58_8 C64_8 1_555 1_555
C65_8 C64_8 1_555 1_555
C66_8 C65_8 1_555 1_555
H59_8 C66_8 1_555 1_555
C67_8 C62_8 1_555 1_555
H60_8 C67_8 1_555 1_555
C68_8 C65_8 1_555 1_555
C71_8 C69_8 1_555 1_555
H61_8 C71_8 1_555 1_555
H62_8 C71_8 1_555 1_555
H63_8 C71_8 1_555 1_555
C66_8 C67_8 1_555 1_555
C68_8 C69_8 1_555 1_555

#END
