
###############################################################################
#
# This file contains modified crystal structure data generated from the
# MOF subset of the Cambridge Structural Database (CSD) v543 
# hosted by the Cambridge Crystallographic Data Centre (CCDC).
#
# This work is licensed under the Creative Commons
# Attribution-NonCommercial-ShareAlike 4.0 International License.
# To view a copy of this license, visit
# http://creativecommons.org/licenses/by-nc-sa/4.0/
# or send a letter to
# Creative Commons, PO Box 1866, Mountain View, CA 94042, USA.
#
# CIF created using the CSD Python API on 29 September 2022
# The structure has been converted into the P1 space group
# The structure has a 3D framework
# The original CSD entry NUWXAF is in the monoclinic crystal system
# The framework has been calculated to contain at least 10.0% void space
# The void calculation uses a probe of radius 1.32A, grid spacing 0.4
#
###############################################################################

data_NUWXAF
_chemical_formula_moiety         '(C160 H104 N40 O30 Zn8)n'
_symmetry_cell_setting           triclinic
_symmetry_space_group_name_H-M   'P 1'
_symmetry_Int_Tables_number      1
_space_group_name_Hall           'P 1'
loop_
_symmetry_equiv_pos_site_id
_symmetry_equiv_pos_as_xyz
1 x,y,z
_cell_length_a                   17.498(4)
_cell_length_b                   10.193(2)
_cell_length_c                   23.340(5)
_cell_angle_alpha                90
_cell_angle_beta                 90.47(3)
_cell_angle_gamma                90
_cell_volume                     4162.71
loop_
_atom_site_label
_atom_site_type_symbol
_atom_site_fract_x
_atom_site_fract_y
_atom_site_fract_z
C2 C 0.0328(5) 0.5836(8) 0.1458(3)
H2 H 0.0643 0.5247 0.1651
N5 N 0.0340(4) 0.7080(6) 0.1622(3)
Zn3 Zn 0.11783(5) 0.77344(8) 0.23159(3)
N12 N 0.0589(3) 0.7870(6) 0.4301(2)
O9 O 0.0453(3) 0.6055(5) 0.3327(2)
C7 C 0.5778(4) 0.3176(7) 0.7512(3)
H4 H 0.5987 0.3696 0.7226
C8 C 0.5608(4) 0.1060(7) 0.7943(3)
C9 C 0.5010(4) 0.2955(7) 0.8352(3)
H5 H 0.4706 0.3326 0.8634
C10 C 0.5203(4) 0.5200(6) 0.7937(3)
C11 C 0.5323(4) 0.3744(7) 0.7929(3)
C13 C 0.5148(4) 0.1626(7) 0.8356(3)
H6 H 0.4932 0.1104 0.8638
H23 H 0.6233 0.1481 0.7244
C39 C 0.5922(4) 0.1851(7) 0.7521(3)
O7 O 0.5450(3) 0.5858(5) 0.7534(2)
O8 O 0.4857(3) 0.5652(4) 0.83667(19)
Zn4 Zn 0.61783(5) 0.72656(8) 0.73159(3)
Zn7 Zn 0.47582(5) 0.75304(8) 0.86122(3)
Zn2 Zn 0.97582(5) 0.74696(8) 0.36122(3)
C4 C 0.6424(4) 0.6455(7) 0.0271(3)
C5 C 0.6861(4) 0.6093(8) 0.0791(3)
C6 C 0.5747(4) 0.9610(7) 0.7940(3)
C12 C 0.8007(4) 0.6381(8) 0.2027(3)
C15 C 0.7816(4) 0.6021(7) 0.8983(3)
C16 C 0.6242(5) 0.7720(8) 0.0151(3)
H7 H 0.6394 0.8386 0.0400
C17 C 0.7153(4) 0.5519(7) 0.8119(3)
H8 H 0.6998 0.4890 0.7854
C18 C 0.8286(5) 0.5437(8) 0.2397(3)
H9 H 0.8163 0.4559 0.2341
C19 C 0.8535(5) 0.6917(8) 0.5424(3)
H10 H 0.8998 0.7360 0.5453
C20 C 0.8652(4) 0.7949(8) 0.2603(3)
H11 H 0.8771 0.8823 0.2675
C21 C 0.8747(5) 0.5798(8) 0.2849(3)
H12 H 0.8929 0.5150 0.3095
C23 C 0.6857(5) 0.6085(8) 0.6366(3)
C24 C 0.8823(4) 0.6530(8) 0.4405(3)
C25 C 0.7381(4) 0.6144(7) 0.5864(3)
C26 C 0.7577(4) 0.5115(8) 0.8586(3)
H13 H 0.7700 0.4233 0.8632
C27 C 0.8319(4) 0.6370(7) 0.4913(3)
C28 C 0.7519(5) 0.6011(8) 0.1533(3)
C29 C 0.8181(5) 0.7669(8) 0.2139(3)
H14 H 0.7987 0.8338 0.1909
C31 C 0.8240(4) 0.5657(8) 0.9498(3)
C32 C 0.7633(4) 0.7312(8) 0.8874(3)
H16 H 0.7799 0.7964 0.9124
C33 C 0.7209(5) 0.7644(8) 0.8399(3)
H17 H 0.7095 0.8524 0.8336
C35 C 0.7644(5) 0.5671(9) 0.4878(3)
H19 H 0.7504 0.5269 0.4535
C38 C 0.7175(5) 0.5567(8) 0.5351(3)
H22 H 0.6718 0.5104 0.5323
C40 C 0.8064(4) 0.6814(8) 0.5903(3)
H24 H 0.8211 0.7197 0.6248
N1 N 0.6954(3) 0.6764(6) 0.8027(2)
N2 N 0.8642(3) 0.6507(6) 0.9830(3)
N3 N 0.8263(4) 0.4437(7) 0.9686(3)
N6 N 0.8944(3) 0.7047(6) 0.2948(3)
N7 N 0.7249(4) 0.6865(6) 0.1140(3)
N8 N 0.7331(4) 0.4769(7) 0.1452(3)
N9 N 0.6909(4) 0.4835(7) 0.0966(3)
O1 O 0.6967(3) 0.6946(6) 0.6751(2)
O2 O 0.6345(4) 0.5242(6) 0.6384(3)
O3 O 0.9101(4) 0.5580(6) 0.4171(3)
O4 O 0.8959(3) 0.7686(5) 0.4244(2)
O5 O 0.6159(3) 0.9160(5) 0.7547(2)
O6 O 0.5453(3) 0.8945(5) 0.8327(2)
H26 H 0.6620 0.4240 0.0899
N11 N 0.5340(4) 0.7920(6) 0.6622(3)
O11 O 0.9857(3) 0.9348(4) 0.33667(19)
C3 C 0.6191(6) 0.5522(9) 0.9892(4)
H3 H 0.6313 0.4644 0.9952
C30 C 0.5770(6) 0.5896(9) 0.9416(4)
H15 H 0.5605 0.5247 0.9163
C37 C 0.5834(5) 0.8020(8) 0.9663(3)
H21 H 0.5727 0.8897 0.9586
N10 N 0.5589(3) 0.7130(6) 0.9301(2)
C1 C 0.4906(5) 0.7095(8) 0.6328(3)
H1 H 0.4915 0.6213 0.6429
C2_2 C 0.5328(5) 0.9164(8) 0.6458(3)
H2_2 H 0.5643 0.9753 0.6651
C6_2 C 0.0747(4) 0.5390(7) 0.2940(3)
C7_2 C 0.0778(4) 0.1824(7) 0.2512(3)
H4_2 H 0.0987 0.1304 0.2226
C8_2 C 0.0608(4) 0.3940(7) 0.2943(3)
C9_2 C 0.0010(4) 0.2045(7) 0.3352(3)
C11_2 C 0.0323(4) 0.1256(7) 0.2929(3)
C13_2 C 0.0148(4) 0.3374(7) 0.3356(3)
C14 C 0.4417(4) 0.8787(8) 0.5717(3)
C15_2 C 0.2816(4) 0.8979(7) 0.3983(3)
C17_2 C 0.2153(4) 0.9481(7) 0.3119(3)
C19_2 C 0.3535(5) 0.8083(8) 0.0424(3)
H10_2 H 0.3998 0.7640 0.0453
C22 C 0.3931(4) 0.9222(8) 0.5247(3)
C23_2 C 0.1857(5) 0.8915(8) 0.1366(3)
C25_2 C 0.2381(4) 0.8856(7) 0.0864(3)
C26_2 C 0.2577(4) 0.9885(8) 0.3586(3)
C31_2 C 0.3240(4) 0.9343(8) 0.4498(3)
C32_2 C 0.2633(4) 0.7688(8) 0.3874(3)
H16_2 H 0.2799 0.7036 0.4124
C33_2 C 0.2209(5) 0.7356(8) 0.3399(3)
H17_2 H 0.2095 0.6476 0.3336
C34 C 0.4873(5) 0.9640(8) 0.6017(3)
C36 C 0.4437(5) 0.7482(8) 0.5876(4)
H20 H 0.4139 0.6868 0.5681
C38_2 C 0.2175(5) 0.9433(8) 0.0351(3)
H22_2 H 0.1718 0.9896 0.0323
H23_2 H 0.1233 0.3519 0.2244
C39_2 C 0.0922(4) 0.3149(7) 0.2521(3)
C40_2 C 0.3064(4) 0.8186(8) 0.0903(3)
H24_2 H 0.3211 0.7803 0.1248
N1_2 N 0.1954(3) 0.8236(6) 0.3027(2)
N2_2 N 0.3642(3) 0.8493(6) 0.4830(3)
O1_2 O 0.1967(3) 0.8054(6) 0.1751(2)
O2_2 O 0.1345(4) 0.9758(6) 0.1384(3)
O5_2 O 0.1159(3) 0.5840(5) 0.2547(2)
O10 O 0.0450(3) 0.9142(5) 0.2534(2)
C3_2 C 0.1191(6) 0.9478(9) 0.4892(4)
C4_2 C 0.1424(4) 0.8545(7) 0.5271(3)
C5_2 C 0.1861(4) 0.8907(8) 0.5791(3)
C12_2 C 0.3007(4) 0.8619(8) 0.7027(3)
C16_2 C 0.1242(5) 0.7280(8) 0.5151(3)
H7_2 H 0.1394 0.6614 0.5400
C18_2 C 0.3286(5) 0.9563(8) 0.7397(3)
C20_2 C 0.3652(4) 0.7051(8) 0.7603(3)
H11_2 H 0.3771 0.6177 0.7675
C21_2 C 0.3747(5) 0.9202(8) 0.7849(3)
H12_2 H 0.3929 0.9850 0.8095
C24_2 C 0.3823(4) 0.8470(8) 0.9405(3)
C27_2 C 0.3319(4) 0.8630(7) 0.9913(3)
C28_2 C 0.2519(5) 0.8989(8) 0.6533(3)
C29_2 C 0.3181(5) 0.7331(8) 0.7139(3)
H14_2 H 0.2987 0.6662 0.6909
C30_2 C 0.0770(6) 0.9104(9) 0.4416(4)
H15_2 H 0.0605 0.9753 0.4163
C35_2 C 0.2644(5) 0.9329(9) 0.9878(3)
H19_2 H 0.2504 0.9731 0.9535
C37_2 C 0.0834(5) 0.6980(8) 0.4663(3)
H21_2 H 0.0727 0.6103 0.4586
N6_2 N 0.3944(3) 0.7953(6) 0.7948(3)
N7_2 N 0.2249(4) 0.8135(6) 0.6140(3)
O3_2 O 0.4101(4) 0.9420(6) 0.9171(3)
O4_2 O 0.3959(3) 0.7314(5) 0.9244(2)
C10_2 C 0.0203(4) 0.9800(6) 0.2937(3)
H5_2 H 0.9706 0.1674 0.3634
H6_2 H 0.9932 0.3896 0.3638
C1_2 C 0.9906(5) 0.7905(8) 0.1328(3)
H1_2 H 0.9915 0.8787 0.1429
C14_2 C 0.9417(4) 0.6213(8) 0.0717(3)
C22_2 C 0.8931(4) 0.5778(8) 0.0247(3)
C34_2 C 0.9873(5) 0.5360(8) 0.1017(3)
H18 H 0.9878 0.4472 0.0925
C36_2 C 0.9437(5) 0.7518(8) 0.0876(4)
H20_2 H 0.9139 0.8132 0.0681
N4 N 0.8697(4) 0.4533(7) 0.0167(3)
H25 H 0.8806 0.3798 0.0380
O8_2 O 0.0143(3) 0.0652(4) 0.66333(19)
Zn7_2 Zn 0.02418(5) 0.25304(8) 0.63878(3)
H5_3 H 0.0294 0.8326 0.6366
H6_3 H 0.0068 0.6104 0.6362
C10_3 C 0.9797(4) 0.0200(6) 0.7063(3)
O7_2 O 0.9550(3) 0.0858(5) 0.7466(2)
Zn4_2 Zn 0.88217(5) 0.22656(8) 0.76841(3)
Zn2_2 Zn 0.52418(5) 0.24696(8) 0.13878(3)
C3_3 C 0.8809(6) 0.0522(9) 0.5108(4)
C4_3 C 0.8576(4) 0.1455(7) 0.4729(3)
C5_3 C 0.8139(4) 0.1093(8) 0.4209(3)
C12_3 C 0.6993(4) 0.1381(8) 0.2973(3)
C16_3 C 0.8758(5) 0.2720(8) 0.4849(3)
H7_3 H 0.8606 0.3386 0.4600
C18_3 C 0.6714(5) 0.0437(8) 0.2603(3)
C20_3 C 0.6348(4) 0.2949(8) 0.2397(3)
H11_3 H 0.6229 0.3823 0.2325
C21_3 C 0.6253(5) 0.0798(8) 0.2151(3)
H12_3 H 0.6071 0.0150 0.1905
C24_3 C 0.6177(4) 0.1530(8) 0.0595(3)
C27_3 C 0.6681(4) 0.1370(7) 0.0087(3)
C28_3 C 0.7481(5) 0.1011(8) 0.3467(3)
C29_3 C 0.6819(5) 0.2669(8) 0.2861(3)
H14_3 H 0.7013 0.3338 0.3091
C30_3 C 0.9230(6) 0.0896(9) 0.5584(4)
H15_3 H 0.9395 0.0247 0.5837
C35_3 C 0.7356(5) 0.0671(9) 0.0122(3)
H19_3 H 0.7496 0.0269 0.0465
C37_3 C 0.9166(5) 0.3020(8) 0.5337(3)
H21_3 H 0.9273 0.3897 0.5414
N6_3 N 0.6056(3) 0.2047(6) 0.2052(3)
N7_3 N 0.7751(4) 0.1865(6) 0.3860(3)
N10_2 N 0.9411(3) 0.2130(6) 0.5699(2)
O3_3 O 0.5899(4) 0.0580(6) 0.0829(3)
O4_3 O 0.6041(3) 0.2686(5) 0.0756(2)
N12_2 N 0.4411(3) 0.2870(6) 0.0699(2)
O9_2 O 0.4547(3) 0.1055(5) 0.1673(2)
O11_2 O 0.5143(3) 0.4348(4) 0.16333(19)
C1_3 C 0.5094(5) 0.2905(8) 0.3672(3)
H1_3 H 0.5085 0.3787 0.3571
C2_3 C 0.4672(5) 0.0836(8) 0.3542(3)
H2_3 H 0.4357 0.0247 0.3349
C6_3 C 0.9253(4) 0.4610(7) 0.7060(3)
C7_3 C 0.9222(4) 0.8176(7) 0.7488(3)
H4_3 H 0.9013 0.8696 0.7774
C8_3 C 0.9392(4) 0.6060(7) 0.7057(3)
C9_3 C 0.9990(4) 0.7955(7) 0.6648(3)
C11_3 C 0.9677(4) 0.8744(7) 0.7071(3)
C13_3 C 0.9852(4) 0.6626(7) 0.6644(3)
C14_3 C 0.5583(4) 0.1213(8) 0.4283(3)
C15_3 C 0.7184(4) 0.1021(7) 0.6017(3)
C17_3 C 0.7847(4) 0.0519(7) 0.6881(3)
C19_3 C 0.6465(5) 0.1917(8) 0.9576(3)
H10_3 H 0.6002 0.2360 0.9547
C22_3 C 0.6069(4) 0.0778(8) 0.4753(3)
C23_3 C 0.8143(5) 0.1085(8) 0.8634(3)
C25_3 C 0.7619(4) 0.1144(7) 0.9136(3)
C26_3 C 0.7423(4) 0.0115(8) 0.6414(3)
C31_3 C 0.6760(4) 0.0657(8) 0.5502(3)
C32_3 C 0.7367(4) 0.2312(8) 0.6126(3)
H16_3 H 0.7201 0.2964 0.5876
C33_3 C 0.7791(5) 0.2644(8) 0.6601(3)
H17_3 H 0.7905 0.3524 0.6664
C34_3 C 0.5127(5) 0.0360(8) 0.3983(3)
C36_3 C 0.5563(5) 0.2518(8) 0.4124(4)
H20_3 H 0.5861 0.3132 0.4319
C38_3 C 0.7825(5) 0.0567(8) 0.9649(3)
H22_3 H 0.8282 0.0104 0.9677
H23_3 H 0.8767 0.6481 0.7756
C39_3 C 0.9078(4) 0.6851(7) 0.7479(3)
C40_3 C 0.6936(4) 0.1814(8) 0.9097(3)
H24_3 H 0.6789 0.2197 0.8752
N1_3 N 0.8046(3) 0.1764(6) 0.6973(2)
N2_3 N 0.6358(3) 0.1507(6) 0.5170(3)
N5_2 N 0.4660(4) 0.2080(6) 0.3378(3)
O1_3 O 0.8033(3) 0.1946(6) 0.8249(2)
O2_3 O 0.8655(4) 0.0242(6) 0.8616(3)
O5_3 O 0.8841(3) 0.4160(5) 0.7453(2)
O6_2 O 0.9547(3) 0.3945(5) 0.6673(2)
Zn3_2 Zn 0.38217(5) 0.27344(8) 0.26841(3)
N11_2 N 0.9660(4) 0.2920(6) 0.8378(3)
C3_4 C 0.3809(6) 0.4478(9) 0.0108(4)
H3_2 H 0.3687 0.5356 0.0048
C30_4 C 0.4230(6) 0.4104(9) 0.0584(4)
H15_4 H 0.4395 0.4753 0.0837
C37_4 C 0.4166(5) 0.1980(8) 0.0337(3)
H21_4 H 0.4273 0.1103 0.0414
C4_4 C 0.3576(4) 0.3545(7) 0.9729(3)
C5_4 C 0.3139(4) 0.3907(8) 0.9209(3)
C6_4 C 0.4253(4) 0.0390(7) 0.2060(3)
C12_4 C 0.1993(4) 0.3619(8) 0.7973(3)
C15_4 C 0.2184(4) 0.3979(7) 0.1017(3)
C16_4 C 0.3758(5) 0.2280(8) 0.9849(3)
H7_4 H 0.3606 0.1614 0.9600
C17_4 C 0.2847(4) 0.4481(7) 0.1881(3)
H8_2 H 0.3002 0.5110 0.2146
C18_4 C 0.1714(5) 0.4563(8) 0.7603(3)
H9_2 H 0.1837 0.5441 0.7659
C19_4 C 0.1465(5) 0.3083(8) 0.4576(3)
H10_4 H 0.1002 0.2640 0.4547
C20_4 C 0.1348(4) 0.2051(8) 0.7397(3)
H11_4 H 0.1229 0.1177 0.7325
C21_4 C 0.1253(5) 0.4202(8) 0.7151(3)
H12_4 H 0.1071 0.4850 0.6905
C23_4 C 0.3143(5) 0.3915(8) 0.3634(3)
C24_4 C 0.1177(4) 0.3470(8) 0.5595(3)
C25_4 C 0.2619(4) 0.3856(7) 0.4136(3)
C26_4 C 0.2423(4) 0.4885(8) 0.1414(3)
H13_2 H 0.2300 0.5767 0.1368
C27_4 C 0.1681(4) 0.3630(7) 0.5087(3)
C28_4 C 0.2481(5) 0.3989(8) 0.8467(3)
C29_4 C 0.1819(5) 0.2331(8) 0.7861(3)
H14_4 H 0.2013 0.1662 0.8091
C31_4 C 0.1760(4) 0.4343(8) 0.0502(3)
C32_4 C 0.2367(4) 0.2688(8) 0.1126(3)
H16_4 H 0.2201 0.2036 0.0876
C33_4 C 0.2791(5) 0.2356(8) 0.1601(3)
H17_4 H 0.2905 0.1476 0.1664
C35_4 C 0.2356(5) 0.4329(9) 0.5122(3)
H19_4 H 0.2496 0.4731 0.5465
C38_4 C 0.2825(5) 0.4433(8) 0.4649(3)
H22_4 H 0.3282 0.4896 0.4677
C40_4 C 0.1936(4) 0.3186(8) 0.4097(3)
H24_4 H 0.1789 0.2803 0.3752
N1_4 N 0.3046(3) 0.3236(6) 0.1973(2)
N2_4 N 0.1358(3) 0.3493(6) 0.0170(3)
N3_2 N 0.1737(4) 0.5563(7) 0.0314(3)
N6_4 N 0.1056(3) 0.2953(6) 0.7052(3)
N7_4 N 0.2751(4) 0.3135(6) 0.8860(3)
N8_2 N 0.2669(4) 0.5231(7) 0.8548(3)
N9_2 N 0.3091(4) 0.5165(7) 0.9034(3)
O1_4 O 0.3033(3) 0.3054(6) 0.3249(2)
O2_4 O 0.3655(4) 0.4758(6) 0.3616(3)
O3_4 O 0.0899(4) 0.4420(6) 0.5829(3)
O4_4 O 0.1041(3) 0.2314(5) 0.5756(2)
O5_4 O 0.3841(3) 0.0840(5) 0.2453(2)
H26_2 H 0.3380 0.5760 0.9101
O10_2 O 0.4550(3) 0.4142(5) 0.2466(2)
C7_4 C 0.4222(4) 0.6824(7) 0.2488(3)
H4_4 H 0.4013 0.6304 0.2774
C8_4 C 0.4392(4) 0.8940(7) 0.2057(3)
C9_4 C 0.4990(4) 0.7045(7) 0.1648(3)
H5_4 H 0.5294 0.6674 0.1366
C10_4 C 0.4797(4) 0.4800(6) 0.2063(3)
C11_4 C 0.4677(4) 0.6256(7) 0.2071(3)
C13_4 C 0.4852(4) 0.8374(7) 0.1644(3)
H6_4 H 0.5068 0.8896 0.1362
H23_4 H 0.3767 0.8519 0.2756
C39_4 C 0.4078(4) 0.8149(7) 0.2479(3)
C2_4 C 0.9672(5) 0.4164(8) 0.8542(3)
H2_4 H 0.9357 0.4753 0.8349
H3_3 H 0.8687 0.9644 0.5048
H9_3 H 0.6837 0.9559 0.2659
N8_3 N 0.7669(4) 0.9769(7) 0.3548(3)
N9_3 N 0.8091(4) 0.9835(7) 0.4034(3)
H26_3 H 0.8380 0.9240 0.4101
H8_3 H 0.8002 0.9890 0.7146
H13_3 H 0.7300 0.9233 0.6368
H18_2 H 0.5122 0.9472 0.4075
N3_3 N 0.6737(4) 0.9437(7) 0.5314(3)
N4_2 N 0.6303(4) 0.9533(7) 0.4833(3)
H25_2 H 0.6194 0.8798 0.4620
C1_4 C 0.0094(5) 0.2095(8) 0.8672(3)
H1_4 H 0.0085 0.1213 0.8571
C14_4 C 0.0583(4) 0.3787(8) 0.9283(3)
C22_4 C 0.1069(4) 0.4222(8) 0.9753(3)
C34_4 C 0.0127(5) 0.4640(8) 0.8983(3)
H18_3 H 0.0122 0.5528 0.9075
C36_4 C 0.0563(5) 0.2482(8) 0.9124(4)
H20_4 H 0.0861 0.1868 0.9319
N4_3 N 0.1303(4) 0.5467(7) 0.9833(3)
H25_3 H 0.1194 0.6202 0.9620
H8_4 H 0.1998 0.0110 0.2854
H13_4 H 0.2700 0.0767 0.3632
H18_4 H 0.4878 0.0528 0.5925
N3_4 N 0.3263(4) 0.0563(7) 0.4686(3)
N4_4 N 0.3697(4) 0.0467(7) 0.5167(3)
H25_4 H 0.3806 0.1202 0.5380
H3_4 H 0.1313 0.0356 0.4952
H9_4 H 0.3163 0.0441 0.7341
N8_4 N 0.2331(4) 0.0231(7) 0.6452(3)
N9_4 N 0.1909(4) 0.0165(7) 0.5966(3)
H26_4 H 0.1620 0.0760 0.5899
loop_
_geom_bond_atom_site_label_1
_geom_bond_atom_site_label_2
_geom_bond_site_symmetry_1
_geom_bond_site_symmetry_2
C2 H2 1_555 1_555
Zn3 N5 1_555 1_555
C2 N5 1_555 1_555
C7 H4 1_555 1_555
C8 C13 1_555 1_555
C9 H5 1_555 1_555
C10 C11 1_555 1_555
C11 C7 1_555 1_555
C13 C9 1_555 1_555
H6 C13 1_555 1_555
H23 C39 1_555 1_555
C39 C7 1_555 1_555
O7 C10 1_555 1_555
O8 C10 1_555 1_555
Zn4 O7 1_555 1_555
Zn7 O8 1_555 1_555
C8 C39 1_555 1_555
C9 C11 1_555 1_555
Zn4 N1 1_555 1_555
Zn2 N6 1_555 1_555
C5 C4 1_555 1_555
C12 C18 1_555 1_555
C15 C26 1_555 1_555
C16 C4 1_555 1_555
H7 C16 1_555 1_555
C17 H8 1_555 1_555
C18 H9 1_555 1_555
C19 H10 1_555 1_555
C20 H11 1_555 1_555
C21 C18 1_555 1_555
H12 C21 1_555 1_555
C23 C25 1_555 1_555
C24 C27 1_555 1_555
C25 C38 1_555 1_555
C26 C17 1_555 1_555
H13 C26 1_555 1_555
C27 C19 1_555 1_555
C28 C12 1_555 1_555
C29 C12 1_555 1_555
H14 C29 1_555 1_555
C31 C15 1_555 1_555
C32 C15 1_555 1_555
H16 C32 1_555 1_555
C33 C32 1_555 1_555
H17 C33 1_555 1_555
C35 C27 1_555 1_555
H19 C35 1_555 1_555
C38 C35 1_555 1_555
H22 C38 1_555 1_555
C40 C19 1_555 1_555
H24 C40 1_555 1_555
N1 C17 1_555 1_555
N2 C31 1_555 1_555
N3 C31 1_555 1_555
N6 C20 1_555 1_555
N7 C5 1_555 1_555
N8 C28 1_555 1_555
N9 C5 1_555 1_555
O1 Zn4 1_555 1_555
O2 C23 1_555 1_555
O3 C24 1_555 1_555
O4 Zn2 1_555 1_555
O5 Zn4 1_555 1_555
O6 C6 1_555 1_555
H26 N9 1_555 1_555
Zn7 O6 1_555 1_555
N11 Zn4 1_555 1_555
O11 Zn2 1_555 1_555
C6 O5 1_555 1_555
C20 C29 1_555 1_555
C21 N6 1_555 1_555
C23 O1 1_555 1_555
C24 O4 1_555 1_555
C25 C40 1_555 1_555
C28 N7 1_555 1_555
C33 N1 1_555 1_555
N8 N9 1_555 1_555
C3 H3 1_555 1_555
C30 C3 1_555 1_555
H15 C30 1_555 1_555
H21 C37 1_555 1_555
N10 C30 1_555 1_555
Zn7 N10 1_555 1_555
C37 N10 1_555 1_555
Zn3 N1_2 1_555 1_555
C1 H1 1_555 1_555
C2_2 H2_2 1_555 1_555
C6_2 C8_2 1_555 1_555
C7_2 H4_2 1_555 1_555
C8_2 C13_2 1_555 1_555
C11_2 C7_2 1_555 1_555
C13_2 C9_2 1_555 1_555
C14 C22 1_555 1_555
C15_2 C26_2 1_555 1_555
C19_2 H10_2 1_555 1_555
C22 N2_2 1_555 1_555
C23_2 C25_2 1_555 1_555
C25_2 C38_2 1_555 1_555
C26_2 C17_2 1_555 1_555
C31_2 C15_2 1_555 1_555
C32_2 C15_2 1_555 1_555
H16_2 C32_2 1_555 1_555
C33_2 C32_2 1_555 1_555
H17_2 C33_2 1_555 1_555
C34 C2_2 1_555 1_555
C36 C1 1_555 1_555
H20 C36 1_555 1_555
H22_2 C38_2 1_555 1_555
H23_2 C39_2 1_555 1_555
C39_2 C7_2 1_555 1_555
C40_2 C19_2 1_555 1_555
H24_2 C40_2 1_555 1_555
N1_2 C17_2 1_555 1_555
N2_2 C31_2 1_555 1_555
N11 C1 1_555 1_555
O1_2 Zn3 1_555 1_555
O2_2 C23_2 1_555 1_555
O5_2 Zn3 1_555 1_555
O9 C6_2 1_555 1_555
O10 Zn3 1_555 1_555
C2_2 N11 1_555 1_555
C6_2 O5_2 1_555 1_555
C8_2 C39_2 1_555 1_555
C9_2 C11_2 1_555 1_555
C14 C34 1_555 1_555
C14 C36 1_555 1_555
C23_2 O1_2 1_555 1_555
C25_2 C40_2 1_555 1_555
C33_2 N1_2 1_555 1_555
Zn7 N6_2 1_555 1_555
C4_2 C3_2 1_555 1_555
C5_2 C4_2 1_555 1_555
C12_2 C18_2 1_555 1_555
C16_2 C4_2 1_555 1_555
H7_2 C16_2 1_555 1_555
C20_2 H11_2 1_555 1_555
C21_2 C18_2 1_555 1_555
H12_2 C21_2 1_555 1_555
C24_2 C27_2 1_555 1_555
C28_2 C12_2 1_555 1_555
C29_2 C12_2 1_555 1_555
H14_2 C29_2 1_555 1_555
C30_2 C3_2 1_555 1_555
H15_2 C30_2 1_555 1_555
C35_2 C27_2 1_555 1_555
H19_2 C35_2 1_555 1_555
C37_2 C16_2 1_555 1_555
H21_2 C37_2 1_555 1_555
N6_2 C20_2 1_555 1_555
N7_2 C5_2 1_555 1_555
N12 C30_2 1_555 1_555
O3_2 C24_2 1_555 1_555
O4_2 Zn7 1_555 1_555
C20_2 C29_2 1_555 1_555
C21_2 N6_2 1_555 1_555
C24_2 O4_2 1_555 1_555
C28_2 N7_2 1_555 1_555
C37_2 N12 1_555 1_555
O10 C10_2 1_555 1_555
C1_2 H1_2 1_555 1_555
C14_2 C22_2 1_555 1_555
H18 C34_2 1_555 1_555
C36_2 C1_2 1_555 1_555
H20_2 C36_2 1_555 1_555
N4 C22_2 1_555 1_555
H25 N4 1_555 1_555
C14_2 C34_2 1_555 1_555
C14_2 C36_2 1_555 1_555
Zn7_2 O8_2 1_555 1_555
O7_2 C10_3 1_555 1_555
Zn4_2 O7_2 1_555 1_555
Zn2_2 N6_3 1_555 1_555
C4_3 C3_3 1_555 1_555
C5_3 C4_3 1_555 1_555
C12_3 C18_3 1_555 1_555
C16_3 C4_3 1_555 1_555
H7_3 C16_3 1_555 1_555
C20_3 H11_3 1_555 1_555
C21_3 C18_3 1_555 1_555
H12_3 C21_3 1_555 1_555
C24_3 C27_3 1_555 1_555
C28_3 C12_3 1_555 1_555
C29_3 C12_3 1_555 1_555
H14_3 C29_3 1_555 1_555
C30_3 C3_3 1_555 1_555
H15_3 C30_3 1_555 1_555
C35_3 C27_3 1_555 1_555
H19_3 C35_3 1_555 1_555
C37_3 C16_3 1_555 1_555
H21_3 C37_3 1_555 1_555
N6_3 C20_3 1_555 1_555
N7_3 C5_3 1_555 1_555
N10_2 C30_3 1_555 1_555
O3_3 C24_3 1_555 1_555
O4_3 Zn2_2 1_555 1_555
N12_2 Zn2_2 1_555 1_555
O9_2 Zn2_2 1_555 1_555
O11_2 Zn2_2 1_555 1_555
C20_3 C29_3 1_555 1_555
C21_3 N6_3 1_555 1_555
C24_3 O4_3 1_555 1_555
C28_3 N7_3 1_555 1_555
C37_3 N10_2 1_555 1_555
Zn4_2 N1_3 1_555 1_555
C1_3 H1_3 1_555 1_555
C2_3 H2_3 1_555 1_555
C6_3 C8_3 1_555 1_555
C7_3 H4_3 1_555 1_555
C8_3 C13_3 1_555 1_555
C11_3 C7_3 1_555 1_555
C13_3 C9_3 1_555 1_555
C14_3 C22_3 1_555 1_555
C15_3 C26_3 1_555 1_555
C19_3 H10_3 1_555 1_555
C22_3 N2_3 1_555 1_555
C23_3 C25_3 1_555 1_555
C25_3 C38_3 1_555 1_555
C26_3 C17_3 1_555 1_555
C31_3 C15_3 1_555 1_555
C32_3 C15_3 1_555 1_555
H16_3 C32_3 1_555 1_555
C33_3 C32_3 1_555 1_555
H17_3 C33_3 1_555 1_555
C34_3 C2_3 1_555 1_555
C36_3 C1_3 1_555 1_555
H20_3 C36_3 1_555 1_555
H22_3 C38_3 1_555 1_555
H23_3 C39_3 1_555 1_555
C39_3 C7_3 1_555 1_555
C40_3 C19_3 1_555 1_555
H24_3 C40_3 1_555 1_555
N1_3 C17_3 1_555 1_555
N2_3 C31_3 1_555 1_555
N5_2 C1_3 1_555 1_555
O1_3 Zn4_2 1_555 1_555
O2_3 C23_3 1_555 1_555
O5_3 Zn4_2 1_555 1_555
O6_2 C6_3 1_555 1_555
Zn3_2 N5_2 1_555 1_555
N11_2 Zn4_2 1_555 1_555
C2_3 N5_2 1_555 1_555
C6_3 O5_3 1_555 1_555
C8_3 C39_3 1_555 1_555
C9_3 C11_3 1_555 1_555
C14_3 C34_3 1_555 1_555
C14_3 C36_3 1_555 1_555
C23_3 O1_3 1_555 1_555
C25_3 C40_3 1_555 1_555
C33_3 N1_3 1_555 1_555
C3_4 H3_2 1_555 1_555
C30_4 C3_4 1_555 1_555
H15_4 C30_4 1_555 1_555
H21_4 C37_4 1_555 1_555
N12_2 C30_4 1_555 1_555
C37_4 N12_2 1_555 1_555
Zn3_2 N1_4 1_555 1_555
Zn7_2 N6_4 1_555 1_555
C5_4 C4_4 1_555 1_555
C12_4 C18_4 1_555 1_555
C15_4 C26_4 1_555 1_555
C16_4 C4_4 1_555 1_555
H7_4 C16_4 1_555 1_555
C17_4 H8_2 1_555 1_555
C18_4 H9_2 1_555 1_555
C19_4 H10_4 1_555 1_555
C20_4 H11_4 1_555 1_555
C21_4 C18_4 1_555 1_555
H12_4 C21_4 1_555 1_555
C23_4 C25_4 1_555 1_555
C24_4 C27_4 1_555 1_555
C25_4 C38_4 1_555 1_555
C26_4 C17_4 1_555 1_555
H13_2 C26_4 1_555 1_555
C27_4 C19_4 1_555 1_555
C28_4 C12_4 1_555 1_555
C29_4 C12_4 1_555 1_555
H14_4 C29_4 1_555 1_555
C31_4 C15_4 1_555 1_555
C32_4 C15_4 1_555 1_555
H16_4 C32_4 1_555 1_555
C33_4 C32_4 1_555 1_555
H17_4 C33_4 1_555 1_555
C35_4 C27_4 1_555 1_555
H19_4 C35_4 1_555 1_555
C38_4 C35_4 1_555 1_555
H22_4 C38_4 1_555 1_555
C40_4 C19_4 1_555 1_555
H24_4 C40_4 1_555 1_555
N1_4 C17_4 1_555 1_555
N2_4 C31_4 1_555 1_555
N3_2 C31_4 1_555 1_555
N6_4 C20_4 1_555 1_555
N7_4 C5_4 1_555 1_555
N8_2 C28_4 1_555 1_555
N9_2 C5_4 1_555 1_555
O1_4 Zn3_2 1_555 1_555
O2_4 C23_4 1_555 1_555
O3_4 C24_4 1_555 1_555
O4_4 Zn7_2 1_555 1_555
O5_4 Zn3_2 1_555 1_555
O9_2 C6_4 1_555 1_555
H26_2 N9_2 1_555 1_555
O10_2 Zn3_2 1_555 1_555
C6_4 O5_4 1_555 1_555
C20_4 C29_4 1_555 1_555
C21_4 N6_4 1_555 1_555
C23_4 O1_4 1_555 1_555
C24_4 O4_4 1_555 1_555
C25_4 C40_4 1_555 1_555
C28_4 N7_4 1_555 1_555
C33_4 N1_4 1_555 1_555
N8_2 N9_2 1_555 1_555
C7_4 H4_4 1_555 1_555
C8_4 C13_4 1_555 1_555
C9_4 H5_4 1_555 1_555
C10_4 C11_4 1_555 1_555
C11_4 C7_4 1_555 1_555
C13_4 C9_4 1_555 1_555
H6_4 C13_4 1_555 1_555
H23_4 C39_4 1_555 1_555
C39_4 C7_4 1_555 1_555
O10_2 C10_4 1_555 1_555
O11_2 C10_4 1_555 1_555
C8_4 C39_4 1_555 1_555
C9_4 C11_4 1_555 1_555
C2_4 H2_4 1_555 1_555
C2_4 N11_2 1_555 1_555
H26_3 N9_3 1_555 1_555
N8_3 N9_3 1_555 1_555
H25_2 N4_2 1_555 1_555
N3_3 N4_2 1_555 1_555
C1_4 H1_4 1_555 1_555
C14_4 C22_4 1_555 1_555
H18_3 C34_4 1_555 1_555
C36_4 C1_4 1_555 1_555
H20_4 C36_4 1_555 1_555
N4_3 C22_4 1_555 1_555
H25_3 N4_3 1_555 1_555
C14_4 C34_4 1_555 1_555
C14_4 C36_4 1_555 1_555
H25_4 N4_4 1_555 1_555
N3_4 N4_4 1_555 1_555
H26_4 N9_4 1_555 1_555
N8_4 N9_4 1_555 1_555

#END
