
###############################################################################
#
# This file contains modified crystal structure data generated from the
# MOF subset of the Cambridge Structural Database (CSD) v543 
# hosted by the Cambridge Crystallographic Data Centre (CCDC).
#
# This work is licensed under the Creative Commons
# Attribution-NonCommercial-ShareAlike 4.0 International License.
# To view a copy of this license, visit
# http://creativecommons.org/licenses/by-nc-sa/4.0/
# or send a letter to
# Creative Commons, PO Box 1866, Mountain View, CA 94042, USA.
#
# CIF created using the CSD Python API on 29 September 2022
# The structure has been converted into the P1 space group
# The structure has a 3D framework
# The original CSD entry NUXYIP is in the rhombohedral crystal system
# The framework has been calculated to contain at least 10.0% void space
# The void calculation uses a probe of radius 1.32A, grid spacing 0.4
#
###############################################################################

data_NUXYIP
_chemical_formula_moiety         '(C252 H144 I54 N90 O68 Pb18)n'
_symmetry_cell_setting           triclinic
_symmetry_space_group_name_H-M   'P 1'
_symmetry_Int_Tables_number      1
_space_group_name_Hall           'P 1'
loop_
_symmetry_equiv_pos_site_id
_symmetry_equiv_pos_as_xyz
1 x,y,z
_cell_length_a                   28.218(2)
_cell_length_b                   28.218(2)
_cell_length_c                   17.741(1)
_cell_angle_alpha                90
_cell_angle_beta                 90
_cell_angle_gamma                120
_cell_volume                     12233.8
loop_
_atom_site_label
_atom_site_type_symbol
_atom_site_fract_x
_atom_site_fract_y
_atom_site_fract_z
O6 O 0.2493(5) 0.0106(3) 0.3483(4)
Pb1 Pb 0.185288(16) 0.918598(16) 0.31869(2)
I1 I 0.08100(4) 0.87108(4) 0.51556(4)
I2 I 0.10139(3) 0.76261(3) 0.79575(4)
I3 I 0.27618(4) 0.84096(5) 0.55700(5)
O1 O 0.2192(3) 0.9220(3) 0.4641(3)
O2 O 0.1756(3) 0.8373(3) 0.4215(4)
O3 O 0.0106(3) 0.7613(4) 0.6517(4)
O4 O 0.0414(4) 0.8407(4) 0.7115(5)
N1 N 0.2134(4) 0.7923(4) 0.7117(5)
H1 H 0.2007 0.7760 0.7540
H2 H 0.2442 0.7974 0.6952
N2 N 0.2690(4) 0.9191(4) 0.3091(4)
N3 N 0.3429(4) 0.9348(4) 0.2473(5)
H3 H 0.3659 0.9437 0.2109
N4 N 0.2929(5) 0.9659(4) 0.1124(5)
H4 H 0.3216 0.9668 0.0942
N5 N 0.2292(4) 0.9545(4) 0.1930(5)
C1 C 0.1915(4) 0.8714(4) 0.4745(5)
C2 C 0.1737(4) 0.8500(4) 0.5536(5)
C3 C 0.1252(4) 0.8433(4) 0.5820(5)
C4 C 0.1043(4) 0.8194(4) 0.6505(5)
C5 C 0.1348(4) 0.8031(4) 0.6946(5)
C6 C 0.1843(4) 0.8103(4) 0.6704(5)
C7 C 0.2029(4) 0.8332(4) 0.5981(6)
C8 C 0.0480(5) 0.8061(5) 0.6735(5)
C9 C 0.3012(5) 0.9072(5) 0.3539(7)
H5 H 0.2924 0.8938 0.4029
C10 C 0.3486(5) 0.9178(6) 0.3164(7)
H6 H 0.3775 0.9140 0.3345
C11 C 0.2968(5) 0.9356(4) 0.2443(5)
C12 C 0.2732(5) 0.9509(4) 0.1837(6)
C13 C 0.2597(7) 0.9792(5) 0.0756(7)
H7 H 0.2628 0.9908 0.0259
C14 C 0.2217(6) 0.9722(5) 0.1248(7)
H8 H 0.1931 0.9786 0.1143
Pb2 Pb 0.148045(16) 0.748069(16) 0.34798(2)
O5 O 0.1577(3) 0.8294(3) 0.2452(4)
Pb3 Pb 0.918598(16) 0.733310(23) 0.68131(2)
Pb1_2 Pb 0.081402(16) 0.266690(23) 0.31869(2)
I1_2 I 0.12892(4) 0.20992(6) 0.51556(4)
I2_2 I 0.23739(3) 0.33878(4) 0.79575(4)
I3_2 I 0.15904(5) 0.43522(6) 0.55700(5)
O1_2 O 0.0780(3) 0.2972(4) 0.4641(3)
O2_2 O 0.1627(3) 0.3383(4) 0.4215(4)
O3_2 O 0.2387(4) 0.2493(5) 0.6517(4)
O4_2 O 0.1593(4) 0.2007(6) 0.7115(5)
N1_2 N 0.2077(4) 0.4211(6) 0.7117(5)
H1_2 H 0.2240 0.4247 0.7540
H2_2 H 0.2026 0.4468 0.6952
N2_2 N 0.0809(4) 0.3499(6) 0.3091(4)
N3_2 N 0.0652(4) 0.4081(6) 0.2473(5)
H3_2 H 0.0563 0.4222 0.2109
N4_2 N 0.0341(4) 0.3270(6) 0.1124(5)
H4_2 H 0.0332 0.3548 0.0942
N5_2 N 0.0455(4) 0.2747(6) 0.1930(5)
C1_2 C 0.1286(4) 0.3201(6) 0.4745(5)
C2_2 C 0.1500(4) 0.3237(6) 0.5536(5)
C3_2 C 0.1567(4) 0.2819(6) 0.5820(5)
C4_2 C 0.1806(4) 0.2849(6) 0.6505(5)
C5_2 C 0.1969(4) 0.3317(6) 0.6946(5)
C6_2 C 0.1897(4) 0.3740(6) 0.6704(5)
C7_2 C 0.1668(4) 0.3697(6) 0.5981(6)
C8_2 C 0.1939(5) 0.2419(7) 0.6735(5)
C9_2 C 0.0928(5) 0.3940(7) 0.3539(7)
H5_2 H 0.1062 0.3986 0.4029
C10_2 C 0.0822(6) 0.4308(8) 0.3164(7)
H6_2 H 0.0860 0.4635 0.3345
C11_2 C 0.0644(4) 0.3612(6) 0.2443(5)
C12_2 C 0.0491(4) 0.3223(6) 0.1837(6)
C13_2 C 0.0208(5) 0.2805(9) 0.0756(7)
H7_2 H 0.0092 0.2720 0.0259
C14_2 C 0.0278(5) 0.2495(8) 0.1248(7)
H8_2 H 0.0214 0.2145 0.1143
Pb2_2 Pb 0.251931(16) 0.399977(23) 0.34798(2)
Pb3_2 Pb 0.266690(23) 0.185288(28) 0.68131(2)
O5_2 O 0.1706(3) 0.3284(4) 0.2452(4)
O6_2 O 0.9894(3) 0.2387(6) 0.3483(4)
Pb3_3 Pb 0.814712(28) 0.081402(16) 0.68131(2)
Pb1_3 Pb 0.733310(23) 0.814712(16) 0.31869(2)
I1_3 I 0.79008(6) 0.91900(4) 0.51556(4)
I2_3 I 0.66122(4) 0.89861(3) 0.79575(4)
I3_3 I 0.56478(6) 0.72382(4) 0.55700(5)
O1_3 O 0.7028(4) 0.7808(3) 0.4641(3)
O2_3 O 0.6617(4) 0.8244(3) 0.4215(4)
O3_3 O 0.7507(5) 0.9894(3) 0.6517(4)
O4_3 O 0.7993(6) 0.9586(4) 0.7115(5)
N1_3 N 0.5789(6) 0.7866(4) 0.7117(5)
H1_3 H 0.5753 0.7993 0.7540
H2_3 H 0.5532 0.7558 0.6952
N2_3 N 0.6501(6) 0.7310(4) 0.3091(4)
N3_3 N 0.5919(6) 0.6571(4) 0.2473(5)
H3_3 H 0.5778 0.6341 0.2109
N4_3 N 0.6730(6) 0.7071(5) 0.1124(5)
H4_3 H 0.6452 0.6784 0.0942
N5_3 N 0.7253(6) 0.7708(4) 0.1930(5)
C1_3 C 0.6799(6) 0.8085(4) 0.4745(5)
C2_3 C 0.6763(6) 0.8263(4) 0.5536(5)
C3_3 C 0.7181(6) 0.8748(4) 0.5820(5)
C4_3 C 0.7151(6) 0.8957(4) 0.6505(5)
C5_3 C 0.6683(6) 0.8652(4) 0.6946(5)
C6_3 C 0.6260(6) 0.8157(4) 0.6704(5)
C7_3 C 0.6303(6) 0.7971(4) 0.5981(6)
C8_3 C 0.7581(7) 0.9520(5) 0.6735(5)
C9_3 C 0.6060(7) 0.6988(5) 0.3539(7)
H5_3 H 0.6014 0.7076 0.4029
C10_3 C 0.5692(8) 0.6514(5) 0.3164(7)
H6_3 H 0.5365 0.6225 0.3345
C11_3 C 0.6388(6) 0.7032(5) 0.2443(5)
C12_3 C 0.6777(6) 0.7268(5) 0.1837(6)
C13_3 C 0.7195(9) 0.7403(7) 0.0756(7)
H7_3 H 0.7280 0.7372 0.0259
C14_3 C 0.7505(8) 0.7783(6) 0.1248(7)
H8_3 H 0.7855 0.8069 0.1143
Pb2_3 Pb 0.600023(23) 0.851955(16) 0.34798(2)
O5_3 O 0.6716(4) 0.8423(3) 0.2452(4)
O6_3 O 0.7613(6) 0.7507(5) 0.3483(4)
Pb1_4 Pb 0.851955(16) 0.251931(16) 0.65202(2)
I1_4 I 0.74767(4) 0.20441(4) 0.84889(4)
I3_4 I 0.94285(4) 0.17429(5) 0.89033(5)
O1_4 O 0.8859(3) 0.2553(3) 0.7974(3)
O2_4 O 0.8423(3) 0.1706(3) 0.7548(4)
O3_4 O 0.6773(3) 0.0946(4) 0.9850(4)
N2_4 N 0.9357(4) 0.2524(4) 0.6424(4)
N4_4 N 0.9596(5) 0.2992(4) 0.4457(5)
H4_4 H 0.9883 0.3001 0.4275
N5_4 N 0.8959(4) 0.2878(4) 0.5263(5)
C1_4 C 0.8582(4) 0.2047(4) 0.8078(5)
C2_4 C 0.8404(4) 0.1833(4) 0.8869(5)
C3_4 C 0.7919(4) 0.1766(4) 0.9153(5)
C4_4 C 0.7710(4) 0.1527(4) 0.9838(5)
C7_4 C 0.8696(4) 0.1665(4) 0.9314(6)
C9_4 C 0.9679(5) 0.2405(5) 0.6872(7)
H5_4 H 0.9591 0.2271 0.7362
C11_4 C 0.9635(5) 0.2689(4) 0.5776(5)
C12_4 C 0.9399(5) 0.2842(4) 0.5170(6)
C13_4 C 0.9264(7) 0.3125(5) 0.4089(7)
H7_4 H 0.9295 0.3241 0.3592
C14_4 C 0.8884(6) 0.3055(5) 0.4581(7)
H8_4 H 0.8598 0.3119 0.4476
O5_4 O 0.8244(3) 0.1627(3) 0.5785(4)
O6_4 O 0.9160(5) 0.3439(3) 0.6816(4)
Pb1_5 Pb 0.748069(16) 0.600023(23) 0.65202(2)
I1_5 I 0.79559(4) 0.54325(6) 0.84889(4)
I3_5 I 0.82571(5) 0.76855(6) 0.89033(5)
O1_5 O 0.7447(3) 0.6305(4) 0.7974(3)
O2_5 O 0.8294(3) 0.6716(4) 0.7548(4)
O3_5 O 0.9054(4) 0.5826(5) 0.9850(4)
N2_5 N 0.7476(4) 0.6832(6) 0.6424(4)
N3_4 N 0.7319(4) 0.7414(6) 0.5806(5)
H3_4 H 0.7230 0.7555 0.5442
N4_5 N 0.7008(4) 0.6603(6) 0.4457(5)
H4_5 H 0.6999 0.6881 0.4275
N5_5 N 0.7122(4) 0.6080(6) 0.5263(5)
C1_5 C 0.7953(4) 0.6534(6) 0.8078(5)
C2_5 C 0.8167(4) 0.6570(6) 0.8869(5)
C3_5 C 0.8234(4) 0.6152(6) 0.9153(5)
C4_5 C 0.8473(4) 0.6182(6) 0.9838(5)
C7_5 C 0.8335(4) 0.7030(6) 0.9314(6)
C9_5 C 0.7595(5) 0.7273(7) 0.6872(7)
H5_5 H 0.7729 0.7319 0.7362
C10_4 C 0.7489(6) 0.7641(8) 0.6497(7)
H6_4 H 0.7527 0.7968 0.6678
C11_5 C 0.7311(4) 0.6945(6) 0.5776(5)
C12_5 C 0.7158(4) 0.6556(6) 0.5170(6)
C13_5 C 0.6875(5) 0.6138(9) 0.4089(7)
H7_5 H 0.6759 0.6053 0.3592
C14_5 C 0.6945(5) 0.5828(8) 0.4581(7)
H8_5 H 0.6881 0.5478 0.4476
O5_5 O 0.8373(3) 0.6617(4) 0.5785(4)
O6_5 O 0.6561(3) 0.5720(6) 0.6816(4)
I2_4 I 0.32789(4) 0.23194(3) 0.12908(4)
O4_4 O 0.4660(6) 0.2919(4) 0.0448(5)
N1_4 N 0.2456(6) 0.1199(4) 0.0450(5)
H1_4 H 0.2420 0.1326 0.0873
H2_4 H 0.2199 0.0891 0.0285
C5_4 C 0.3350(6) 0.1985(4) 0.0279(5)
C6_4 C 0.2927(6) 0.1490(4) 0.0037(5)
C8_4 C 0.4248(7) 0.2853(5) 0.0068(5)
Pb3_4 Pb 0.481379(28) 0.414735(16) 0.01464(2)
Pb1_6 Pb 0.399977(23) 0.148045(16) 0.65202(2)
I1_6 I 0.45675(6) 0.25233(4) 0.84889(4)
I3_6 I 0.23145(6) 0.05715(4) 0.89033(5)
O1_6 O 0.3695(4) 0.1141(3) 0.7974(3)
O2_6 O 0.3284(4) 0.1577(3) 0.7548(4)
O3_6 O 0.4174(5) 0.3227(3) 0.9850(4)
N2_6 N 0.3168(6) 0.0643(4) 0.6424(4)
N4_6 N 0.3397(6) 0.0404(5) 0.4457(5)
H4_6 H 0.3119 0.0117 0.4275
N5_6 N 0.3920(6) 0.1041(4) 0.5263(5)
C1_6 C 0.3466(6) 0.1418(4) 0.8078(5)
C2_6 C 0.3430(6) 0.1596(4) 0.8869(5)
C3_6 C 0.3848(6) 0.2081(4) 0.9153(5)
C4_6 C 0.3818(6) 0.2290(4) 0.9838(5)
C7_6 C 0.2970(6) 0.1304(4) 0.9314(6)
C9_6 C 0.2727(7) 0.0321(5) 0.6872(7)
H5_6 H 0.2681 0.0409 0.7362
C11_6 C 0.3055(6) 0.0365(5) 0.5776(5)
C12_6 C 0.3444(6) 0.0601(5) 0.5170(6)
C13_6 C 0.3862(9) 0.0736(7) 0.4089(7)
H7_6 H 0.3947 0.0705 0.3592
C14_6 C 0.4172(8) 0.1116(6) 0.4581(7)
H8_6 H 0.4522 0.1402 0.4476
O5_6 O 0.3383(4) 0.1756(3) 0.5785(4)
O6_6 O 0.4280(6) 0.0840(5) 0.6816(4)
I1_7 I 0.41433(4) 0.53775(4) 0.18223(4)
I2_5 I 0.43472(3) 0.42928(3) 0.46242(4)
I3_7 I 0.60951(4) 0.50763(5) 0.22367(5)
O1_7 O 0.5525(3) 0.5887(3) 0.1308(3)
O2_7 O 0.5089(3) 0.5040(3) 0.0882(4)
O3_7 O 0.3439(3) 0.4280(4) 0.3184(4)
O4_5 O 0.3747(4) 0.5074(4) 0.3782(5)
N1_5 N 0.5467(4) 0.4590(4) 0.3784(5)
H1_5 H 0.5340 0.4427 0.4207
H2_5 H 0.5775 0.4641 0.3619
C1_7 C 0.5248(4) 0.5381(4) 0.1412(5)
C2_7 C 0.5070(4) 0.5167(4) 0.2203(5)
C3_7 C 0.4585(4) 0.5100(4) 0.2487(5)
C4_7 C 0.4376(4) 0.4861(4) 0.3172(5)
C5_5 C 0.4681(4) 0.4698(4) 0.3613(5)
C6_5 C 0.5176(4) 0.4770(4) 0.3371(5)
C7_7 C 0.5362(4) 0.4999(4) 0.2648(6)
C8_5 C 0.3813(5) 0.4728(5) 0.3402(5)
C9_7 C 0.6345(5) 0.5739(5) 0.0206(7)
H5_7 H 0.6257 0.5605 0.0696
H6_5 H 0.7108 0.5807 0.0012
O6_7 O 0.5826(5) 0.6773(3) 0.0150(4)
Pb1_7 Pb 0.518621(16) 0.585265(16) 0.98536(2)
N2_7 N 0.6023(4) 0.5858(4) 0.9758(4)
N3_5 N 0.6762(4) 0.6015(4) 0.9140(5)
H3_5 H 0.6992 0.6104 0.8776
N4_7 N 0.6262(5) 0.6326(4) 0.7791(5)
H4_7 H 0.6549 0.6335 0.7609
N5_7 N 0.5625(4) 0.6212(4) 0.8597(5)
C10_5 C 0.6819(5) 0.5845(6) 0.9831(7)
C11_7 C 0.6301(5) 0.6023(4) 0.9110(5)
C12_7 C 0.6065(5) 0.6176(4) 0.8504(6)
C13_7 C 0.5930(7) 0.6459(5) 0.7423(7)
H7_7 H 0.5961 0.6575 0.6926
C14_7 C 0.5550(6) 0.6389(5) 0.7915(7)
H8_7 H 0.5264 0.6453 0.7810
O5_7 O 0.4911(3) 0.4960(3) 0.9118(4)
I1_8 I 0.46225(4) 0.87659(6) 0.18223(4)
O1_8 O 0.4113(3) 0.9639(4) 0.1308(3)
O3_8 O 0.5720(4) 0.9160(5) 0.3184(4)
O4_6 O 0.4926(4) 0.8674(6) 0.3782(5)
C1_8 C 0.4619(4) 0.9868(6) 0.1412(5)
C2_8 C 0.4833(4) 0.9904(6) 0.2203(5)
C3_8 C 0.4900(4) 0.9486(6) 0.2487(5)
C4_8 C 0.5139(4) 0.9516(6) 0.3172(5)
C5_6 C 0.5302(4) 0.9984(6) 0.3613(5)
C8_6 C 0.5272(5) 0.9086(7) 0.3402(5)
O6_8 O 0.3227(3) 0.9054(6) 0.0150(4)
I1_9 I 0.12341(6) 0.58567(4) 0.18223(4)
O1_9 O 0.0361(4) 0.4475(3) 0.1308(3)
O3_9 O 0.0840(5) 0.6561(3) 0.3184(4)
O4_7 O 0.1326(6) 0.6253(4) 0.3782(5)
C1_9 C 0.0132(6) 0.4752(4) 0.1412(5)
C2_9 C 0.0096(6) 0.4930(4) 0.2203(5)
C3_9 C 0.0514(6) 0.5415(4) 0.2487(5)
C4_9 C 0.0484(6) 0.5624(4) 0.3172(5)
C5_7 C 0.0016(6) 0.5319(4) 0.3613(5)
C8_7 C 0.0914(7) 0.6187(5) 0.3402(5)
O6_9 O 0.0946(6) 0.4174(5) 0.0150(4)
I1_10 I 0.91900(4) 0.12892(4) 0.48444(4)
I2_6 I 0.89861(3) 0.23739(3) 0.20425(4)
I3_8 I 0.72382(4) 0.15904(5) 0.44300(5)
O1_10 O 0.7808(3) 0.0780(3) 0.5359(3)
O4_8 O 0.9586(4) 0.1593(4) 0.2885(5)
N1_6 N 0.7866(4) 0.2077(4) 0.2883(5)
H1_6 H 0.7993 0.2240 0.2460
H2_6 H 0.7558 0.2026 0.3048
N2_8 N 0.7310(4) 0.0809(4) 0.6909(4)
N3_6 N 0.6571(4) 0.0652(4) 0.7527(5)
H3_6 H 0.6341 0.0563 0.7891
N4_8 N 0.7071(5) 0.0341(4) 0.8876(5)
H4_8 H 0.6784 0.0332 0.9058
N5_8 N 0.7708(4) 0.0455(4) 0.8070(5)
C1_10 C 0.8085(4) 0.1286(4) 0.5255(5)
C2_10 C 0.8263(4) 0.1500(4) 0.4464(5)
C3_10 C 0.8748(4) 0.1567(4) 0.4180(5)
C4_10 C 0.8957(4) 0.1806(4) 0.3495(5)
C5_8 C 0.8652(4) 0.1969(4) 0.3054(5)
C6_6 C 0.8157(4) 0.1897(4) 0.3296(5)
C7_8 C 0.7971(4) 0.1668(4) 0.4019(6)
C8_8 C 0.9520(5) 0.1939(5) 0.3265(5)
C9_8 C 0.6988(5) 0.0928(5) 0.6461(7)
H5_8 H 0.7076 0.1062 0.5971
C10_6 C 0.6514(5) 0.0822(6) 0.6836(7)
H6_6 H 0.6225 0.0860 0.6655
C11_8 C 0.7032(5) 0.0644(4) 0.7557(5)
C12_8 C 0.7268(5) 0.0491(4) 0.8163(6)
C13_8 C 0.7403(7) 0.0208(5) 0.9244(7)
H7_8 H 0.7372 0.0092 0.9741
C14_8 C 0.7783(6) 0.0278(5) 0.8752(7)
H8_8 H 0.8069 0.0214 0.8857
I1_11 I 0.87108(4) 0.79008(6) 0.48444(4)
I2_7 I 0.76261(3) 0.66122(4) 0.20425(4)
I3_9 I 0.84096(5) 0.56478(6) 0.44300(5)
O1_11 O 0.9220(3) 0.7028(4) 0.5359(3)
O4_9 O 0.8407(4) 0.7993(6) 0.2885(5)
N1_7 N 0.7923(4) 0.5789(6) 0.2883(5)
H1_7 H 0.7760 0.5753 0.2460
H2_7 H 0.7974 0.5532 0.3048
N2_9 N 0.9191(4) 0.6501(6) 0.6909(4)
N3_7 N 0.9348(4) 0.5919(6) 0.7527(5)
H3_7 H 0.9437 0.5778 0.7891
N4_9 N 0.9659(4) 0.6730(6) 0.8876(5)
H4_9 H 0.9668 0.6452 0.9058
N5_9 N 0.9545(4) 0.7253(6) 0.8070(5)
C1_11 C 0.8714(4) 0.6799(6) 0.5255(5)
C2_11 C 0.8500(4) 0.6763(6) 0.4464(5)
C3_11 C 0.8433(4) 0.7181(6) 0.4180(5)
C4_11 C 0.8194(4) 0.7151(6) 0.3495(5)
C5_9 C 0.8031(4) 0.6683(6) 0.3054(5)
C6_7 C 0.8103(4) 0.6260(6) 0.3296(5)
C7_9 C 0.8332(4) 0.6303(6) 0.4019(6)
C8_9 C 0.8061(5) 0.7581(7) 0.3265(5)
C9_9 C 0.9072(5) 0.6060(7) 0.6461(7)
H5_9 H 0.8938 0.6014 0.5971
C10_7 C 0.9178(6) 0.5692(8) 0.6836(7)
H6_7 H 0.9140 0.5365 0.6655
C11_9 C 0.9356(4) 0.6388(6) 0.7557(5)
C12_9 C 0.9509(4) 0.6777(6) 0.8163(6)
C13_9 C 0.9792(5) 0.7195(9) 0.9244(7)
H7_9 H 0.9908 0.7280 0.9741
C14_9 C 0.9722(5) 0.7505(8) 0.8752(7)
H8_9 H 0.9786 0.7855 0.8857
I1_12 I 0.20992(6) 0.08100(4) 0.48444(4)
I2_8 I 0.33878(4) 0.10139(3) 0.20425(4)
I3_10 I 0.43522(6) 0.27618(4) 0.44300(5)
O1_12 O 0.2972(4) 0.2192(3) 0.5359(3)
O4_10 O 0.2007(6) 0.0414(4) 0.2885(5)
N1_8 N 0.4211(6) 0.2134(4) 0.2883(5)
H1_8 H 0.4247 0.2007 0.2460
H2_8 H 0.4468 0.2442 0.3048
N2_10 N 0.3499(6) 0.2690(4) 0.6909(4)
N3_8 N 0.4081(6) 0.3429(4) 0.7527(5)
H3_8 H 0.4222 0.3659 0.7891
N4_10 N 0.3270(6) 0.2929(5) 0.8876(5)
H4_10 H 0.3548 0.3216 0.9058
N5_10 N 0.2747(6) 0.2292(4) 0.8070(5)
C1_12 C 0.3201(6) 0.1915(4) 0.5255(5)
C2_12 C 0.3237(6) 0.1737(4) 0.4464(5)
C3_12 C 0.2819(6) 0.1252(4) 0.4180(5)
C4_12 C 0.2849(6) 0.1043(4) 0.3495(5)
C5_10 C 0.3317(6) 0.1348(4) 0.3054(5)
C6_8 C 0.3740(6) 0.1843(4) 0.3296(5)
C7_10 C 0.3697(6) 0.2029(4) 0.4019(6)
C8_10 C 0.2419(7) 0.0480(5) 0.3265(5)
C9_10 C 0.3940(7) 0.3012(5) 0.6461(7)
H5_10 H 0.3986 0.2924 0.5971
C10_8 C 0.4308(8) 0.3486(5) 0.6836(7)
H6_8 H 0.4635 0.3775 0.6655
C11_10 C 0.3612(6) 0.2968(5) 0.7557(5)
C12_10 C 0.3223(6) 0.2732(5) 0.8163(6)
C13_10 C 0.2805(9) 0.2597(7) 0.9244(7)
H7_10 H 0.2720 0.2628 0.9741
C14_10 C 0.2495(8) 0.2217(6) 0.8752(7)
H8_10 H 0.2145 0.1931 0.8857
I1_13 I 0.25233(4) 0.79559(4) 0.15111(4)
I3_11 I 0.05715(4) 0.82571(5) 0.10967(5)
O1_13 O 0.1141(3) 0.7447(3) 0.2026(3)
N2_11 N 0.0643(4) 0.7476(4) 0.3576(4)
N4_11 N 0.0404(5) 0.7008(4) 0.5543(5)
H4_11 H 0.0117 0.6999 0.5725
N5_11 N 0.1041(4) 0.7122(4) 0.4737(5)
C1_13 C 0.1418(4) 0.7953(4) 0.1922(5)
C2_13 C 0.1596(4) 0.8167(4) 0.1131(5)
C3_13 C 0.2081(4) 0.8234(4) 0.0847(5)
C4_13 C 0.2290(4) 0.8473(4) 0.0162(5)
C7_11 C 0.1304(4) 0.8335(4) 0.0686(6)
C9_11 C 0.0321(5) 0.7595(5) 0.3128(7)
H5_11 H 0.0409 0.7729 0.2638
C11_11 C 0.0365(5) 0.7311(4) 0.4224(5)
C12_11 C 0.0601(5) 0.7158(4) 0.4830(6)
C13_11 C 0.0736(7) 0.6875(5) 0.5911(7)
H7_11 H 0.0705 0.6759 0.6408
C14_11 C 0.1116(6) 0.6945(5) 0.5419(7)
H8_11 H 0.1402 0.6881 0.5524
I1_14 I 0.20441(4) 0.45675(6) 0.15111(4)
I3_12 I 0.17429(5) 0.23145(6) 0.10967(5)
O1_14 O 0.2553(3) 0.3695(4) 0.2026(3)
N2_12 N 0.2524(4) 0.3168(6) 0.3576(4)
N3_9 N 0.2681(4) 0.2586(6) 0.4194(5)
H3_9 H 0.2770 0.2445 0.4558
N4_12 N 0.2992(4) 0.3397(6) 0.5543(5)
H4_12 H 0.3001 0.3119 0.5725
N5_12 N 0.2878(4) 0.3920(6) 0.4737(5)
C1_14 C 0.2047(4) 0.3466(6) 0.1922(5)
C2_14 C 0.1833(4) 0.3430(6) 0.1131(5)
C3_14 C 0.1766(4) 0.3848(6) 0.0847(5)
C4_14 C 0.1527(4) 0.3818(6) 0.0162(5)
C7_12 C 0.1665(4) 0.2970(6) 0.0686(6)
C9_12 C 0.2405(5) 0.2727(7) 0.3128(7)
H5_12 H 0.2271 0.2681 0.2638
C10_9 C 0.2511(6) 0.2359(8) 0.3503(7)
H6_9 H 0.2473 0.2032 0.3322
C11_12 C 0.2689(4) 0.3055(6) 0.4224(5)
C12_12 C 0.2842(4) 0.3444(6) 0.4830(6)
C13_12 C 0.3125(5) 0.3862(9) 0.5911(7)
H7_12 H 0.3241 0.3947 0.6408
C14_12 C 0.3055(5) 0.4172(8) 0.5419(7)
H8_12 H 0.3119 0.4522 0.5524
I1_15 I 0.54325(6) 0.74767(4) 0.15111(4)
I3_13 I 0.76855(6) 0.94285(4) 0.10967(5)
O1_15 O 0.6305(4) 0.8859(3) 0.2026(3)
N2_13 N 0.6832(6) 0.9357(4) 0.3576(4)
N4_13 N 0.6603(6) 0.9596(5) 0.5543(5)
H4_13 H 0.6881 0.9883 0.5725
N5_13 N 0.6080(6) 0.8959(4) 0.4737(5)
C1_15 C 0.6534(6) 0.8582(4) 0.1922(5)
C2_15 C 0.6570(6) 0.8404(4) 0.1131(5)
C3_15 C 0.6152(6) 0.7919(4) 0.0847(5)
C4_15 C 0.6182(6) 0.7710(4) 0.0162(5)
C7_13 C 0.7030(6) 0.8696(4) 0.0686(6)
C9_13 C 0.7273(7) 0.9679(5) 0.3128(7)
H5_13 H 0.7319 0.9591 0.2638
C11_13 C 0.6945(6) 0.9635(5) 0.4224(5)
C12_13 C 0.6556(6) 0.9399(5) 0.4830(6)
C13_13 C 0.6138(9) 0.9264(7) 0.5911(7)
H7_13 H 0.6053 0.9295 0.6408
C14_13 C 0.5828(8) 0.8884(6) 0.5419(7)
H8_13 H 0.5478 0.8598 0.5524
I2_9 I 0.67211(4) 0.76806(3) 0.87092(4)
O4_11 O 0.5340(6) 0.7081(4) 0.9552(5)
N1_9 N 0.7544(6) 0.8801(4) 0.9550(5)
H1_9 H 0.7580 0.8674 0.9127
H2_9 H 0.7801 0.9109 0.9715
C5_11 C 0.6650(6) 0.8015(4) 0.9721(5)
C6_9 C 0.7073(6) 0.8510(4) 0.9963(5)
C8_11 C 0.5752(7) 0.7147(5) 0.9932(5)
N2_14 N 0.3977(4) 0.4142(4) 0.0242(4)
N3_10 N 0.3238(4) 0.3985(4) 0.0860(5)
H3_10 H 0.3008 0.3896 0.1224
N4_14 N 0.3738(5) 0.3674(4) 0.2209(5)
H4_14 H 0.3451 0.3665 0.2391
N5_14 N 0.4375(4) 0.3788(4) 0.1403(5)
C10_10 C 0.3181(5) 0.4155(6) 0.0169(7)
C11_14 C 0.3699(5) 0.3977(4) 0.0890(5)
C12_14 C 0.3935(5) 0.3824(4) 0.1496(6)
C13_14 C 0.4070(7) 0.3541(5) 0.2577(7)
H7_14 H 0.4039 0.3425 0.3074
C14_14 C 0.4450(6) 0.3611(5) 0.2085(7)
H8_14 H 0.4736 0.3547 0.2190
I1_16 I 0.58567(4) 0.46225(4) 0.81777(4)
I2_10 I 0.56528(3) 0.57072(3) 0.53758(4)
I3_14 I 0.39049(4) 0.49237(5) 0.77633(5)
O1_16 O 0.4475(3) 0.4113(3) 0.8692(3)
O4_12 O 0.6253(4) 0.4926(4) 0.6218(5)
N1_10 N 0.4533(4) 0.5410(4) 0.6216(5)
H1_10 H 0.4660 0.5573 0.5793
H2_10 H 0.4225 0.5359 0.6381
C1_16 C 0.4752(4) 0.4619(4) 0.8588(5)
C2_16 C 0.4930(4) 0.4833(4) 0.7797(5)
C3_16 C 0.5415(4) 0.4900(4) 0.7513(5)
C4_16 C 0.5624(4) 0.5139(4) 0.6828(5)
C5_12 C 0.5319(4) 0.5302(4) 0.6387(5)
C6_10 C 0.4824(4) 0.5230(4) 0.6629(5)
C7_14 C 0.4638(4) 0.5001(4) 0.7352(6)
C8_12 C 0.6187(5) 0.5272(5) 0.6598(5)
C9_14 C 0.3655(5) 0.4261(5) 0.9794(7)
H5_14 H 0.3743 0.4395 0.9304
H6_10 H 0.2892 0.4193 0.9988
I1_17 I 0.53775(4) 0.12341(6) 0.81777(4)
O1_17 O 0.5887(3) 0.0361(4) 0.8692(3)
O4_13 O 0.5074(4) 0.1326(6) 0.6218(5)
C1_17 C 0.5381(4) 0.0132(6) 0.8588(5)
C2_17 C 0.5167(4) 0.0096(6) 0.7797(5)
C3_17 C 0.5100(4) 0.0514(6) 0.7513(5)
C4_17 C 0.4861(4) 0.0484(6) 0.6828(5)
C5_13 C 0.4698(4) 0.0016(6) 0.6387(5)
C8_13 C 0.4728(5) 0.0914(7) 0.6598(5)
I1_18 I 0.87659(6) 0.41433(4) 0.81777(4)
O1_18 O 0.9639(4) 0.5525(3) 0.8692(3)
O4_14 O 0.8674(6) 0.3747(4) 0.6218(5)
C1_18 C 0.9868(6) 0.5248(4) 0.8588(5)
C2_18 C 0.9904(6) 0.5070(4) 0.7797(5)
C3_18 C 0.9486(6) 0.4585(4) 0.7513(5)
C4_18 C 0.9516(6) 0.4376(4) 0.6828(5)
C5_14 C 0.9984(6) 0.4681(4) 0.6387(5)
C8_14 C 0.9086(7) 0.3813(5) 0.6598(5)
N3_11 N 0.0096(4) 0.2681(4) 0.5806(5)
H3_11 H 0.0326 0.2770 0.5442
C10_11 C 0.0153(5) 0.2511(6) 0.6497(7)
H6_11 H 0.0442 0.2473 0.6678
I2_11 I 0.76806(3) 0.09594(3) 0.12908(4)
O4_15 O 0.7081(4) 0.1740(4) 0.0448(5)
N1_11 N 0.8801(4) 0.1256(4) 0.0450(5)
H1_11 H 0.8674 0.1093 0.0873
H2_11 H 0.9109 0.1307 0.0285
C5_15 C 0.8015(4) 0.1364(4) 0.0279(5)
C6_11 C 0.8510(4) 0.1436(4) 0.0037(5)
C8_15 C 0.7147(5) 0.1394(5) 0.0068(5)
Pb3_5 Pb 0.585265(16) 0.066643(23) 0.01464(2)
I2_12 I 0.57072(3) 0.00545(4) 0.46242(4)
I3_15 I 0.49237(5) 0.10189(6) 0.22367(5)
O2_8 O 0.4960(3) 0.0050(4) 0.0882(4)
N1_12 N 0.5410(4) 0.0878(6) 0.3784(5)
H1_12 H 0.5573 0.0914 0.4207
H2_12 H 0.5359 0.1135 0.3619
C6_12 C 0.5230(4) 0.0407(6) 0.3371(5)
C7_15 C 0.5001(4) 0.0364(6) 0.2648(6)
C9_15 C 0.4261(5) 0.0607(7) 0.0206(7)
H5_15 H 0.4395 0.0653 0.0696
H6_12 H 0.4193 0.1302 0.0012
N4_15 N 0.6326(4) 0.0063(6) 0.2209(5)
N5_15 N 0.6212(4) 0.0586(6) 0.1403(5)
C12_15 C 0.6176(4) 0.0110(6) 0.1496(6)
C13_15 C 0.6459(5) 0.0528(9) 0.2577(7)
H7_15 H 0.6575 0.0613 0.3074
C14_15 C 0.6389(5) 0.0838(8) 0.2085(7)
H8_15 H 0.6453 0.1188 0.2190
I2_13 I 0.90406(3) 0.67211(4) 0.12908(4)
O4_16 O 0.8260(4) 0.5340(6) 0.0448(5)
N1_13 N 0.8744(4) 0.7544(6) 0.0450(5)
H1_13 H 0.8907 0.7580 0.0873
H2_13 H 0.8693 0.7801 0.0285
C5_16 C 0.8636(4) 0.6650(6) 0.0279(5)
C6_13 C 0.8564(4) 0.7073(6) 0.0037(5)
C8_16 C 0.8606(5) 0.5752(7) 0.0068(5)
Pb3_6 Pb 0.933357(23) 0.518621(28) 0.01464(2)
I2_14 I 0.99455(4) 0.56528(3) 0.46242(4)
I3_16 I 0.89811(6) 0.39049(4) 0.22367(5)
O2_9 O 0.9950(4) 0.4911(3) 0.0882(4)
N1_14 N 0.9122(6) 0.4533(4) 0.3784(5)
H1_14 H 0.9086 0.4660 0.4207
H2_14 H 0.8865 0.4225 0.3619
C6_14 C 0.9593(6) 0.4824(4) 0.3371(5)
C7_16 C 0.9636(6) 0.4638(4) 0.2648(6)
C9_16 C 0.9393(7) 0.3655(5) 0.0206(7)
H5_16 H 0.9347 0.3743 0.0696
H6_13 H 0.8698 0.2892 0.0012
N4_16 N 0.9937(6) 0.6262(5) 0.2209(5)
N5_16 N 0.9414(6) 0.5625(4) 0.1403(5)
C12_16 C 0.9890(6) 0.6065(5) 0.1496(6)
C13_16 C 0.9472(9) 0.5930(7) 0.2577(7)
H7_16 H 0.9387 0.5961 0.3074
C14_16 C 0.9162(8) 0.5550(6) 0.2085(7)
H8_16 H 0.8812 0.5264 0.2190
N3_12 N 0.2586(6) 0.9904(4) 0.5806(5)
H3_12 H 0.2445 0.9674 0.5442
C10_12 C 0.2359(8) 0.9847(5) 0.6497(7)
H6_14 H 0.2032 0.9558 0.6678
N2_15 N 0.4142(4) 0.0166(6) 0.9758(4)
N3_13 N 0.3985(4) 0.0748(6) 0.9140(5)
H3_13 H 0.3896 0.0889 0.8776
H4_15 H 0.3665 0.0215 0.7609
C10_13 C 0.4155(6) 0.0975(8) 0.9831(7)
C11_15 C 0.3977(4) 0.0279(6) 0.9110(5)
Pb1_8 Pb 0.414735(16) 0.933357(23) 0.98536(2)
N4_17 N 0.3674(4) 0.9937(6) 0.7791(5)
N5_17 N 0.3788(4) 0.9414(6) 0.8597(5)
C12_17 C 0.3824(4) 0.9890(6) 0.8504(6)
C13_17 C 0.3541(5) 0.9472(9) 0.7423(7)
H7_17 H 0.3425 0.9387 0.6926
C14_17 C 0.3611(5) 0.9162(8) 0.7915(7)
H8_17 H 0.3547 0.8812 0.7810
O5_8 O 0.5040(3) 0.9950(4) 0.9118(4)
I2_15 I 0.23194(3) 0.90406(3) 0.87092(4)
O4_17 O 0.2919(4) 0.8260(4) 0.9552(5)
N1_15 N 0.1199(4) 0.8744(4) 0.9550(5)
H1_15 H 0.1326 0.8907 0.9127
H2_15 H 0.0891 0.8693 0.9715
C5_17 C 0.1985(4) 0.8636(4) 0.9721(5)
C6_15 C 0.1490(4) 0.8564(4) 0.9963(5)
C8_17 C 0.2853(5) 0.8606(5) 0.9932(5)
I2_16 I 0.42928(3) 0.99455(4) 0.53758(4)
I3_17 I 0.50763(5) 0.89811(6) 0.77633(5)
N1_16 N 0.4590(4) 0.9122(6) 0.6216(5)
H1_16 H 0.4427 0.9086 0.5793
H2_16 H 0.4641 0.8865 0.6381
C6_16 C 0.4770(4) 0.9593(6) 0.6629(5)
C7_17 C 0.4999(4) 0.9636(6) 0.7352(6)
C9_17 C 0.5739(5) 0.9393(7) 0.9794(7)
H5_17 H 0.5605 0.9347 0.9304
H6_15 H 0.5807 0.8698 0.9988
Pb1_9 Pb 0.066643(23) 0.481379(16) 0.98536(2)
N4_18 N 0.0063(6) 0.3738(5) 0.7791(5)
N5_18 N 0.0586(6) 0.4375(4) 0.8597(5)
C12_18 C 0.0110(6) 0.3935(5) 0.8504(6)
C13_18 C 0.0528(9) 0.4070(7) 0.7423(7)
H7_18 H 0.0613 0.4039 0.6926
C14_18 C 0.0838(8) 0.4450(6) 0.7915(7)
H8_18 H 0.1188 0.4736 0.7810
O5_9 O 0.0050(4) 0.5089(3) 0.9118(4)
I2_17 I 0.09594(3) 0.32789(4) 0.87092(4)
O4_18 O 0.1740(4) 0.4660(6) 0.9552(5)
N1_17 N 0.1256(4) 0.2456(6) 0.9550(5)
H1_17 H 0.1093 0.2420 0.9127
H2_17 H 0.1307 0.2199 0.9715
C5_18 C 0.1364(4) 0.3350(6) 0.9721(5)
C6_17 C 0.1436(4) 0.2927(6) 0.9963(5)
C8_18 C 0.1394(5) 0.4248(7) 0.9932(5)
I2_18 I 0.00545(4) 0.43472(3) 0.53758(4)
I3_18 I 0.10189(6) 0.60951(4) 0.77633(5)
N1_18 N 0.0878(6) 0.5467(4) 0.6216(5)
H1_18 H 0.0914 0.5340 0.5793
H2_18 H 0.1135 0.5775 0.6381
C6_18 C 0.0407(6) 0.5176(4) 0.6629(5)
C7_18 C 0.0364(6) 0.5362(4) 0.7352(6)
C9_18 C 0.0607(7) 0.6345(5) 0.9794(7)
H5_18 H 0.0653 0.6257 0.9304
H6_16 H 0.1302 0.7108 0.9988
N2_16 N 0.9834(6) 0.3977(4) 0.9758(4)
N3_14 N 0.9252(6) 0.3238(4) 0.9140(5)
H3_14 H 0.9111 0.3008 0.8776
H4_16 H 0.9785 0.3451 0.7609
C10_14 C 0.9025(8) 0.3181(5) 0.9831(7)
C11_16 C 0.9721(6) 0.3699(5) 0.9110(5)
N3_15 N 0.9904(4) 0.7319(4) 0.4194(5)
H3_15 H 0.9674 0.7230 0.4558
C10_15 C 0.9847(5) 0.7489(6) 0.3503(7)
H6_17 H 0.9558 0.7527 0.3322
N3_16 N 0.7414(6) 0.0096(4) 0.4194(5)
H3_16 H 0.7555 0.0326 0.4558
C10_16 C 0.7641(8) 0.0153(5) 0.3503(7)
H6_18 H 0.7968 0.0442 0.3322
N2_17 N 0.5858(4) 0.9834(6) 0.0242(4)
N3_17 N 0.6015(4) 0.9252(6) 0.0860(5)
H3_17 H 0.6104 0.9111 0.1224
H4_17 H 0.6335 0.9785 0.2391
C10_17 C 0.5845(6) 0.9025(8) 0.0169(7)
C11_17 C 0.6023(4) 0.9721(6) 0.0890(5)
N2_18 N 0.0166(6) 0.6023(4) 0.0242(4)
N3_18 N 0.0748(6) 0.6762(4) 0.0860(5)
H3_18 H 0.0889 0.6992 0.1224
H4_18 H 0.0215 0.6549 0.2391
C10_18 C 0.0975(8) 0.6819(5) 0.0169(7)
C11_18 C 0.0279(6) 0.6301(5) 0.0890(5)
loop_
_geom_bond_atom_site_label_1
_geom_bond_atom_site_label_2
_geom_bond_site_symmetry_1
_geom_bond_site_symmetry_2
Pb1 O1 1_555 1_555
I1 C3 1_555 1_555
I2 C5 1_555 1_555
I3 C7 1_555 1_555
O1 C1 1_555 1_555
O2 Pb1 1_555 1_555
O3 C8 1_555 1_555
O4 C8 1_555 1_555
N1 H1 1_555 1_555
H2 N1 1_555 1_555
N2 Pb1 1_555 1_555
N3 H3 1_555 1_555
N4 H4 1_555 1_555
N5 Pb1 1_555 1_555
C1 O2 1_555 1_555
C2 C1 1_555 1_555
C3 C2 1_555 1_555
C4 C3 1_555 1_555
C5 C4 1_555 1_555
C6 N1 1_555 1_555
C7 C2 1_555 1_555
C8 C4 1_555 1_555
C9 N2 1_555 1_555
H5 C9 1_555 1_555
C10 N3 1_555 1_555
H6 C10 1_555 1_555
C11 N2 1_555 1_555
C12 N4 1_555 1_555
C13 N4 1_555 1_555
H7 C13 1_555 1_555
C14 N5 1_555 1_555
H8 C14 1_555 1_555
Pb2 O2 1_555 1_555
O5 Pb1 1_555 1_555
N3 C11 1_555 1_555
N5 C12 1_555 1_555
C5 C6 1_555 1_555
C6 C7 1_555 1_555
C9 C10 1_555 1_555
C11 C12 1_555 1_555
C13 C14 1_555 1_555
Pb2 O5 1_555 1_555
Pb1_2 O1_2 1_555 1_555
I1_2 C3_2 1_555 1_555
I2_2 C5_2 1_555 1_555
I3_2 C7_2 1_555 1_555
O1_2 C1_2 1_555 1_555
O2_2 Pb1_2 1_555 1_555
O3_2 C8_2 1_555 1_555
O4_2 C8_2 1_555 1_555
N1_2 H1_2 1_555 1_555
H2_2 N1_2 1_555 1_555
N2_2 Pb1_2 1_555 1_555
N3_2 H3_2 1_555 1_555
N4_2 H4_2 1_555 1_555
N5_2 Pb1_2 1_555 1_555
C1_2 O2_2 1_555 1_555
C2_2 C1_2 1_555 1_555
C3_2 C2_2 1_555 1_555
C4_2 C3_2 1_555 1_555
C5_2 C4_2 1_555 1_555
C6_2 N1_2 1_555 1_555
C7_2 C2_2 1_555 1_555
C8_2 C4_2 1_555 1_555
C9_2 N2_2 1_555 1_555
H5_2 C9_2 1_555 1_555
C10_2 N3_2 1_555 1_555
H6_2 C10_2 1_555 1_555
C11_2 N2_2 1_555 1_555
C12_2 N4_2 1_555 1_555
C13_2 N4_2 1_555 1_555
H7_2 C13_2 1_555 1_555
C14_2 N5_2 1_555 1_555
H8_2 C14_2 1_555 1_555
Pb2_2 O2_2 1_555 1_555
Pb3_2 O3_2 1_555 1_555
O5_2 Pb1_2 1_555 1_555
N3_2 C11_2 1_555 1_555
N5_2 C12_2 1_555 1_555
C5_2 C6_2 1_555 1_555
C6_2 C7_2 1_555 1_555
C9_2 C10_2 1_555 1_555
C11_2 C12_2 1_555 1_555
C13_2 C14_2 1_555 1_555
Pb2_2 O5_2 1_555 1_555
Pb1_3 O1_3 1_555 1_555
I1_3 C3_3 1_555 1_555
I2_3 C5_3 1_555 1_555
I3_3 C7_3 1_555 1_555
O1_3 C1_3 1_555 1_555
O2_3 Pb1_3 1_555 1_555
O3_3 C8_3 1_555 1_555
O4_3 C8_3 1_555 1_555
N1_3 H1_3 1_555 1_555
H2_3 N1_3 1_555 1_555
N2_3 Pb1_3 1_555 1_555
N3_3 H3_3 1_555 1_555
N4_3 H4_3 1_555 1_555
N5_3 Pb1_3 1_555 1_555
C1_3 O2_3 1_555 1_555
C2_3 C1_3 1_555 1_555
C3_3 C2_3 1_555 1_555
C4_3 C3_3 1_555 1_555
C5_3 C4_3 1_555 1_555
C6_3 N1_3 1_555 1_555
C7_3 C2_3 1_555 1_555
C8_3 C4_3 1_555 1_555
C9_3 N2_3 1_555 1_555
H5_3 C9_3 1_555 1_555
C10_3 N3_3 1_555 1_555
H6_3 C10_3 1_555 1_555
C11_3 N2_3 1_555 1_555
C12_3 N4_3 1_555 1_555
C13_3 N4_3 1_555 1_555
H7_3 C13_3 1_555 1_555
C14_3 N5_3 1_555 1_555
H8_3 C14_3 1_555 1_555
Pb2_3 O2_3 1_555 1_555
O5_3 Pb1_3 1_555 1_555
O6_3 Pb1_3 1_555 1_555
N3_3 C11_3 1_555 1_555
N5_3 C12_3 1_555 1_555
C5_3 C6_3 1_555 1_555
C6_3 C7_3 1_555 1_555
C9_3 C10_3 1_555 1_555
C11_3 C12_3 1_555 1_555
C13_3 C14_3 1_555 1_555
Pb2_3 O5_3 1_555 1_555
Pb1_4 O1_4 1_555 1_555
I1_4 C3_4 1_555 1_555
I3_4 C7_4 1_555 1_555
O1_4 C1_4 1_555 1_555
O2_4 Pb1_4 1_555 1_555
N2_4 Pb1_4 1_555 1_555
N4_4 H4_4 1_555 1_555
N5_4 Pb1_4 1_555 1_555
C1_4 O2_4 1_555 1_555
C2_4 C1_4 1_555 1_555
C3_4 C2_4 1_555 1_555
C4_4 C3_4 1_555 1_555
C7_4 C2_4 1_555 1_555
C9_4 N2_4 1_555 1_555
H5_4 C9_4 1_555 1_555
C11_4 N2_4 1_555 1_555
C12_4 N4_4 1_555 1_555
C13_4 N4_4 1_555 1_555
H7_4 C13_4 1_555 1_555
C14_4 N5_4 1_555 1_555
H8_4 C14_4 1_555 1_555
Pb3_3 O2_4 1_555 1_555
O5_4 Pb1_4 1_555 1_555
O6_4 Pb1_4 1_555 1_555
N5_4 C12_4 1_555 1_555
C11_4 C12_4 1_555 1_555
C13_4 C14_4 1_555 1_555
Pb3_3 O5_4 1_555 1_555
Pb1_5 O1_5 1_555 1_555
I1_5 C3_5 1_555 1_555
I3_5 C7_5 1_555 1_555
O1_5 C1_5 1_555 1_555
O2_5 Pb1_5 1_555 1_555
N2_5 Pb1_5 1_555 1_555
N3_4 H3_4 1_555 1_555
N4_5 H4_5 1_555 1_555
N5_5 Pb1_5 1_555 1_555
C1_5 O2_5 1_555 1_555
C2_5 C1_5 1_555 1_555
C3_5 C2_5 1_555 1_555
C4_5 C3_5 1_555 1_555
C7_5 C2_5 1_555 1_555
C9_5 N2_5 1_555 1_555
H5_5 C9_5 1_555 1_555
C10_4 N3_4 1_555 1_555
H6_4 C10_4 1_555 1_555
C11_5 N2_5 1_555 1_555
C12_5 N4_5 1_555 1_555
C13_5 N4_5 1_555 1_555
H7_5 C13_5 1_555 1_555
C14_5 N5_5 1_555 1_555
H8_5 C14_5 1_555 1_555
Pb3 O2_5 1_555 1_555
O5_5 Pb1_5 1_555 1_555
O6_5 Pb1_5 1_555 1_555
N3_4 C11_5 1_555 1_555
N5_5 C12_5 1_555 1_555
C9_5 C10_4 1_555 1_555
C11_5 C12_5 1_555 1_555
C13_5 C14_5 1_555 1_555
Pb3 O5_5 1_555 1_555
I2_4 C5_4 1_555 1_555
O4_4 C8_4 1_555 1_555
N1_4 H1_4 1_555 1_555
H2_4 N1_4 1_555 1_555
C6_4 N1_4 1_555 1_555
C5_4 C6_4 1_555 1_555
Pb1_6 O1_6 1_555 1_555
I1_6 C3_6 1_555 1_555
I3_6 C7_6 1_555 1_555
O1_6 C1_6 1_555 1_555
O2_6 Pb1_6 1_555 1_555
N2_6 Pb1_6 1_555 1_555
N4_6 H4_6 1_555 1_555
N5_6 Pb1_6 1_555 1_555
C1_6 O2_6 1_555 1_555
C2_6 C1_6 1_555 1_555
C3_6 C2_6 1_555 1_555
C4_6 C3_6 1_555 1_555
C7_6 C2_6 1_555 1_555
C9_6 N2_6 1_555 1_555
H5_6 C9_6 1_555 1_555
C11_6 N2_6 1_555 1_555
C12_6 N4_6 1_555 1_555
C13_6 N4_6 1_555 1_555
H7_6 C13_6 1_555 1_555
C14_6 N5_6 1_555 1_555
H8_6 C14_6 1_555 1_555
Pb3_2 O2_6 1_555 1_555
O5_6 Pb1_6 1_555 1_555
O6_6 Pb1_6 1_555 1_555
N5_6 C12_6 1_555 1_555
C11_6 C12_6 1_555 1_555
C13_6 C14_6 1_555 1_555
Pb3_2 O5_6 1_555 1_555
I1_7 C3_7 1_555 1_555
I2_5 C5_5 1_555 1_555
I3_7 C7_7 1_555 1_555
O1_7 C1_7 1_555 1_555
O3_7 C8_5 1_555 1_555
O4_5 C8_5 1_555 1_555
N1_5 H1_5 1_555 1_555
H2_5 N1_5 1_555 1_555
C1_7 O2_7 1_555 1_555
C2_7 C1_7 1_555 1_555
C3_7 C2_7 1_555 1_555
C4_7 C3_7 1_555 1_555
C5_5 C4_7 1_555 1_555
C6_5 N1_5 1_555 1_555
C7_7 C2_7 1_555 1_555
C8_5 C4_7 1_555 1_555
H5_7 C9_7 1_555 1_555
Pb3_4 O2_7 1_555 1_555
Pb2_2 O3_7 1_555 1_555
C5_5 C6_5 1_555 1_555
C6_5 C7_7 1_555 1_555
N2_7 Pb1_7 1_555 1_555
N3_5 H3_5 1_555 1_555
N4_7 H4_7 1_555 1_555
N5_7 Pb1_7 1_555 1_555
C10_5 N3_5 1_555 1_555
C11_7 N2_7 1_555 1_555
C12_7 N4_7 1_555 1_555
C13_7 N4_7 1_555 1_555
H7_7 C13_7 1_555 1_555
C14_7 N5_7 1_555 1_555
H8_7 C14_7 1_555 1_555
O5_7 Pb1_7 1_555 1_555
N3_5 C11_7 1_555 1_555
N5_7 C12_7 1_555 1_555
C11_7 C12_7 1_555 1_555
C13_7 C14_7 1_555 1_555
I1_8 C3_8 1_555 1_555
O1_8 C1_8 1_555 1_555
O3_8 C8_6 1_555 1_555
O4_6 C8_6 1_555 1_555
C2_8 C1_8 1_555 1_555
C3_8 C2_8 1_555 1_555
C4_8 C3_8 1_555 1_555
C5_6 C4_8 1_555 1_555
C8_6 C4_8 1_555 1_555
Pb2_3 O3_8 1_555 1_555
I1_9 C3_9 1_555 1_555
O1_9 C1_9 1_555 1_555
O3_9 C8_7 1_555 1_555
O4_7 C8_7 1_555 1_555
C2_9 C1_9 1_555 1_555
C3_9 C2_9 1_555 1_555
C4_9 C3_9 1_555 1_555
C5_7 C4_9 1_555 1_555
C8_7 C4_9 1_555 1_555
Pb2 O3_9 1_555 1_555
Pb3_3 O1_10 1_555 1_555
I1_10 C3_10 1_555 1_555
I2_6 C5_8 1_555 1_555
I3_8 C7_8 1_555 1_555
O1_10 C1_10 1_555 1_555
O6_2 C8_8 1_555 1_555
O4_8 C8_8 1_555 1_555
N1_6 H1_6 1_555 1_555
H2_6 N1_6 1_555 1_555
N2_8 Pb3_3 1_555 1_555
N3_6 H3_6 1_555 1_555
N4_8 H4_8 1_555 1_555
N5_8 Pb3_3 1_555 1_555
C1_10 O5_4 1_555 1_555
C2_10 C1_10 1_555 1_555
C3_10 C2_10 1_555 1_555
C4_10 C3_10 1_555 1_555
C5_8 C4_10 1_555 1_555
C6_6 N1_6 1_555 1_555
C7_8 C2_10 1_555 1_555
C8_8 C4_10 1_555 1_555
C9_8 N2_8 1_555 1_555
H5_8 C9_8 1_555 1_555
C10_6 N3_6 1_555 1_555
H6_6 C10_6 1_555 1_555
C11_8 N2_8 1_555 1_555
C12_8 N4_8 1_555 1_555
C13_8 N4_8 1_555 1_555
H7_8 C13_8 1_555 1_555
C14_8 N5_8 1_555 1_555
H8_8 C14_8 1_555 1_555
N3_6 C11_8 1_555 1_555
N5_8 C12_8 1_555 1_555
C5_8 C6_6 1_555 1_555
C6_6 C7_8 1_555 1_555
C9_8 C10_6 1_555 1_555
C11_8 C12_8 1_555 1_555
C13_8 C14_8 1_555 1_555
Pb3 O1_11 1_555 1_555
I1_11 C3_11 1_555 1_555
I2_7 C5_9 1_555 1_555
I3_9 C7_9 1_555 1_555
O1_11 C1_11 1_555 1_555
O6_3 C8_9 1_555 1_555
O4_9 C8_9 1_555 1_555
N1_7 H1_7 1_555 1_555
H2_7 N1_7 1_555 1_555
N2_9 Pb3 1_555 1_555
N3_7 H3_7 1_555 1_555
N4_9 H4_9 1_555 1_555
N5_9 Pb3 1_555 1_555
C1_11 O5_5 1_555 1_555
C2_11 C1_11 1_555 1_555
C3_11 C2_11 1_555 1_555
C4_11 C3_11 1_555 1_555
C5_9 C4_11 1_555 1_555
C6_7 N1_7 1_555 1_555
C7_9 C2_11 1_555 1_555
C8_9 C4_11 1_555 1_555
C9_9 N2_9 1_555 1_555
H5_9 C9_9 1_555 1_555
C10_7 N3_7 1_555 1_555
H6_7 C10_7 1_555 1_555
C11_9 N2_9 1_555 1_555
C12_9 N4_9 1_555 1_555
C13_9 N4_9 1_555 1_555
H7_9 C13_9 1_555 1_555
C14_9 N5_9 1_555 1_555
H8_9 C14_9 1_555 1_555
N3_7 C11_9 1_555 1_555
N5_9 C12_9 1_555 1_555
C5_9 C6_7 1_555 1_555
C6_7 C7_9 1_555 1_555
C9_9 C10_7 1_555 1_555
C11_9 C12_9 1_555 1_555
C13_9 C14_9 1_555 1_555
Pb3_2 O1_12 1_555 1_555
I1_12 C3_12 1_555 1_555
I2_8 C5_10 1_555 1_555
I3_10 C7_10 1_555 1_555
O1_12 C1_12 1_555 1_555
O6 C8_10 1_555 1_555
O4_10 C8_10 1_555 1_555
N1_8 H1_8 1_555 1_555
H2_8 N1_8 1_555 1_555
N2_10 Pb3_2 1_555 1_555
N3_8 H3_8 1_555 1_555
N4_10 H4_10 1_555 1_555
N5_10 Pb3_2 1_555 1_555
C1_12 O5_6 1_555 1_555
C2_12 C1_12 1_555 1_555
C3_12 C2_12 1_555 1_555
C4_12 C3_12 1_555 1_555
C5_10 C4_12 1_555 1_555
C6_8 N1_8 1_555 1_555
C7_10 C2_12 1_555 1_555
C8_10 C4_12 1_555 1_555
C9_10 N2_10 1_555 1_555
H5_10 C9_10 1_555 1_555
C10_8 N3_8 1_555 1_555
H6_8 C10_8 1_555 1_555
C11_10 N2_10 1_555 1_555
C12_10 N4_10 1_555 1_555
C13_10 N4_10 1_555 1_555
H7_10 C13_10 1_555 1_555
C14_10 N5_10 1_555 1_555
H8_10 C14_10 1_555 1_555
N3_8 C11_10 1_555 1_555
N5_10 C12_10 1_555 1_555
C5_10 C6_8 1_555 1_555
C6_8 C7_10 1_555 1_555
C9_10 C10_8 1_555 1_555
C11_10 C12_10 1_555 1_555
C13_10 C14_10 1_555 1_555
Pb2 O1_13 1_555 1_555
I1_13 C3_13 1_555 1_555
I3_11 C7_11 1_555 1_555
O1_13 C1_13 1_555 1_555
N2_11 Pb2 1_555 1_555
N4_11 H4_11 1_555 1_555
N5_11 Pb2 1_555 1_555
C1_13 O5 1_555 1_555
C2_13 C1_13 1_555 1_555
C3_13 C2_13 1_555 1_555
C4_13 C3_13 1_555 1_555
C7_11 C2_13 1_555 1_555
C9_11 N2_11 1_555 1_555
H5_11 C9_11 1_555 1_555
C11_11 N2_11 1_555 1_555
C12_11 N4_11 1_555 1_555
C13_11 N4_11 1_555 1_555
H7_11 C13_11 1_555 1_555
C14_11 N5_11 1_555 1_555
H8_11 C14_11 1_555 1_555
N5_11 C12_11 1_555 1_555
C11_11 C12_11 1_555 1_555
C13_11 C14_11 1_555 1_555
Pb2_2 O1_14 1_555 1_555
I1_14 C3_14 1_555 1_555
I3_12 C7_12 1_555 1_555
O1_14 C1_14 1_555 1_555
N2_12 Pb2_2 1_555 1_555
N3_9 H3_9 1_555 1_555
N4_12 H4_12 1_555 1_555
N5_12 Pb2_2 1_555 1_555
C1_14 O5_2 1_555 1_555
C2_14 C1_14 1_555 1_555
C3_14 C2_14 1_555 1_555
C4_14 C3_14 1_555 1_555
C7_12 C2_14 1_555 1_555
C9_12 N2_12 1_555 1_555
H5_12 C9_12 1_555 1_555
C10_9 N3_9 1_555 1_555
H6_9 C10_9 1_555 1_555
C11_12 N2_12 1_555 1_555
C12_12 N4_12 1_555 1_555
C13_12 N4_12 1_555 1_555
H7_12 C13_12 1_555 1_555
C14_12 N5_12 1_555 1_555
H8_12 C14_12 1_555 1_555
N3_9 C11_12 1_555 1_555
N5_12 C12_12 1_555 1_555
C9_12 C10_9 1_555 1_555
C11_12 C12_12 1_555 1_555
C13_12 C14_12 1_555 1_555
Pb2_3 O1_15 1_555 1_555
I1_15 C3_15 1_555 1_555
I3_13 C7_13 1_555 1_555
O1_15 C1_15 1_555 1_555
N2_13 Pb2_3 1_555 1_555
N4_13 H4_13 1_555 1_555
N5_13 Pb2_3 1_555 1_555
C1_15 O5_3 1_555 1_555
C2_15 C1_15 1_555 1_555
C3_15 C2_15 1_555 1_555
C4_15 C3_15 1_555 1_555
C7_13 C2_15 1_555 1_555
C9_13 N2_13 1_555 1_555
H5_13 C9_13 1_555 1_555
C11_13 N2_13 1_555 1_555
C12_13 N4_13 1_555 1_555
C13_13 N4_13 1_555 1_555
H7_13 C13_13 1_555 1_555
C14_13 N5_13 1_555 1_555
H8_13 C14_13 1_555 1_555
N5_13 C12_13 1_555 1_555
C11_13 C12_13 1_555 1_555
C13_13 C14_13 1_555 1_555
I2_9 C5_11 1_555 1_555
O4_11 C8_11 1_555 1_555
N1_9 H1_9 1_555 1_555
H2_9 N1_9 1_555 1_555
C6_9 N1_9 1_555 1_555
C5_11 C6_9 1_555 1_555
N2_14 Pb3_4 1_555 1_555
N3_10 H3_10 1_555 1_555
N4_14 H4_14 1_555 1_555
N5_14 Pb3_4 1_555 1_555
C10_10 N3_10 1_555 1_555
C11_14 N2_14 1_555 1_555
C12_14 N4_14 1_555 1_555
C13_14 N4_14 1_555 1_555
H7_14 C13_14 1_555 1_555
C14_14 N5_14 1_555 1_555
H8_14 C14_14 1_555 1_555
N3_10 C11_14 1_555 1_555
N5_14 C12_14 1_555 1_555
C11_14 C12_14 1_555 1_555
C13_14 C14_14 1_555 1_555
I1_16 C3_16 1_555 1_555
I2_10 C5_12 1_555 1_555
I3_14 C7_14 1_555 1_555
O1_16 C1_16 1_555 1_555
O6_5 C8_12 1_555 1_555
O4_12 C8_12 1_555 1_555
N1_10 H1_10 1_555 1_555
H2_10 N1_10 1_555 1_555
C1_16 O5_7 1_555 1_555
C2_16 C1_16 1_555 1_555
C3_16 C2_16 1_555 1_555
C4_16 C3_16 1_555 1_555
C5_12 C4_16 1_555 1_555
C6_10 N1_10 1_555 1_555
C7_14 C2_16 1_555 1_555
C8_12 C4_16 1_555 1_555
H5_14 C9_14 1_555 1_555
C5_12 C6_10 1_555 1_555
C6_10 C7_14 1_555 1_555
I1_17 C3_17 1_555 1_555
O1_17 C1_17 1_555 1_555
O6_6 C8_13 1_555 1_555
O4_13 C8_13 1_555 1_555
C2_17 C1_17 1_555 1_555
C3_17 C2_17 1_555 1_555
C4_17 C3_17 1_555 1_555
C5_13 C4_17 1_555 1_555
C8_13 C4_17 1_555 1_555
I1_18 C3_18 1_555 1_555
O1_18 C1_18 1_555 1_555
O6_4 C8_14 1_555 1_555
O4_14 C8_14 1_555 1_555
C2_18 C1_18 1_555 1_555
C3_18 C2_18 1_555 1_555
C4_18 C3_18 1_555 1_555
C5_14 C4_18 1_555 1_555
C8_14 C4_18 1_555 1_555
N3_11 H3_11 1_555 1_555
C10_11 N3_11 1_555 1_555
H6_11 C10_11 1_555 1_555
I2_11 C5_15 1_555 1_555
O4_15 C8_15 1_555 1_555
N1_11 H1_11 1_555 1_555
H2_11 N1_11 1_555 1_555
C6_11 N1_11 1_555 1_555
C5_15 C6_11 1_555 1_555
I3_15 C7_15 1_555 1_555
N1_12 H1_12 1_555 1_555
H2_12 N1_12 1_555 1_555
C6_12 N1_12 1_555 1_555
H5_15 C9_15 1_555 1_555
Pb3_5 O2_8 1_555 1_555
C6_12 C7_15 1_555 1_555
N5_15 Pb3_5 1_555 1_555
C12_15 N4_15 1_555 1_555
C13_15 N4_15 1_555 1_555
H7_15 C13_15 1_555 1_555
C14_15 N5_15 1_555 1_555
H8_15 C14_15 1_555 1_555
N5_15 C12_15 1_555 1_555
C13_15 C14_15 1_555 1_555
I2_13 C5_16 1_555 1_555
O4_16 C8_16 1_555 1_555
N1_13 H1_13 1_555 1_555
H2_13 N1_13 1_555 1_555
C6_13 N1_13 1_555 1_555
C5_16 C6_13 1_555 1_555
I3_16 C7_16 1_555 1_555
N1_14 H1_14 1_555 1_555
H2_14 N1_14 1_555 1_555
C6_14 N1_14 1_555 1_555
H5_16 C9_16 1_555 1_555
Pb3_6 O2_9 1_555 1_555
C6_14 C7_16 1_555 1_555
N5_16 Pb3_6 1_555 1_555
C12_16 N4_16 1_555 1_555
C13_16 N4_16 1_555 1_555
H7_16 C13_16 1_555 1_555
C14_16 N5_16 1_555 1_555
H8_16 C14_16 1_555 1_555
N5_16 C12_16 1_555 1_555
C13_16 C14_16 1_555 1_555
N3_12 H3_12 1_555 1_555
C10_12 N3_12 1_555 1_555
H6_14 C10_12 1_555 1_555
N3_13 H3_13 1_555 1_555
C10_13 N3_13 1_555 1_555
C11_15 N2_15 1_555 1_555
N3_13 C11_15 1_555 1_555
N5_17 Pb1_8 1_555 1_555
C12_17 N4_17 1_555 1_555
C13_17 N4_17 1_555 1_555
H7_17 C13_17 1_555 1_555
C14_17 N5_17 1_555 1_555
H8_17 C14_17 1_555 1_555
O5_8 Pb1_8 1_555 1_555
N5_17 C12_17 1_555 1_555
C13_17 C14_17 1_555 1_555
I2_15 C5_17 1_555 1_555
O4_17 C8_17 1_555 1_555
N1_15 H1_15 1_555 1_555
H2_15 N1_15 1_555 1_555
C6_15 N1_15 1_555 1_555
C5_17 C6_15 1_555 1_555
I3_17 C7_17 1_555 1_555
N1_16 H1_16 1_555 1_555
H2_16 N1_16 1_555 1_555
C6_16 N1_16 1_555 1_555
H5_17 C9_17 1_555 1_555
C6_16 C7_17 1_555 1_555
N5_18 Pb1_9 1_555 1_555
C12_18 N4_18 1_555 1_555
C13_18 N4_18 1_555 1_555
H7_18 C13_18 1_555 1_555
C14_18 N5_18 1_555 1_555
H8_18 C14_18 1_555 1_555
O5_9 Pb1_9 1_555 1_555
N5_18 C12_18 1_555 1_555
C13_18 C14_18 1_555 1_555
I2_17 C5_18 1_555 1_555
O4_18 C8_18 1_555 1_555
N1_17 H1_17 1_555 1_555
H2_17 N1_17 1_555 1_555
C6_17 N1_17 1_555 1_555
C5_18 C6_17 1_555 1_555
I3_18 C7_18 1_555 1_555
N1_18 H1_18 1_555 1_555
H2_18 N1_18 1_555 1_555
C6_18 N1_18 1_555 1_555
H5_18 C9_18 1_555 1_555
C6_18 C7_18 1_555 1_555
N3_14 H3_14 1_555 1_555
C10_14 N3_14 1_555 1_555
C11_16 N2_16 1_555 1_555
N3_14 C11_16 1_555 1_555
N3_15 H3_15 1_555 1_555
C10_15 N3_15 1_555 1_555
H6_17 C10_15 1_555 1_555
N3_16 H3_16 1_555 1_555
C10_16 N3_16 1_555 1_555
H6_18 C10_16 1_555 1_555
N3_17 H3_17 1_555 1_555
C10_17 N3_17 1_555 1_555
C11_17 N2_17 1_555 1_555
N3_17 C11_17 1_555 1_555
N3_18 H3_18 1_555 1_555
C10_18 N3_18 1_555 1_555
C11_18 N2_18 1_555 1_555
N3_18 C11_18 1_555 1_555

#END
