
###############################################################################
#
# This file contains modified crystal structure data generated from the
# MOF subset of the Cambridge Structural Database (CSD) v543 
# hosted by the Cambridge Crystallographic Data Centre (CCDC).
#
# This work is licensed under the Creative Commons
# Attribution-NonCommercial-ShareAlike 4.0 International License.
# To view a copy of this license, visit
# http://creativecommons.org/licenses/by-nc-sa/4.0/
# or send a letter to
# Creative Commons, PO Box 1866, Mountain View, CA 94042, USA.
#
# CIF created using the CSD Python API on 29 September 2022
# The structure has been converted into the P1 space group
# The structure has a 3D framework
# The original CSD entry NUXZIQ is in the orthorhombic crystal system
# The framework has been calculated to contain at least 10.0% void space
# The void calculation uses a probe of radius 1.32A, grid spacing 0.4
#
###############################################################################

data_NUXZIQ
_chemical_formula_moiety         '(C128 H80 Cu8 N32 O32 S8)n'
_symmetry_cell_setting           triclinic
_symmetry_space_group_name_H-M   'P 1'
_symmetry_Int_Tables_number      1
_space_group_name_Hall           'P 1'
loop_
_symmetry_equiv_pos_site_id
_symmetry_equiv_pos_as_xyz
1 x,y,z
_cell_length_a                   15.945(4)
_cell_length_b                   14.811(4)
_cell_length_c                   15.159(4)
_cell_angle_alpha                90
_cell_angle_beta                 90
_cell_angle_gamma                90
_cell_volume                     3579.97
loop_
_atom_site_label
_atom_site_type_symbol
_atom_site_fract_x
_atom_site_fract_y
_atom_site_fract_z
Cu1 Cu 0.43780(3) 0.17295(4) 0.37258(4)
N1 N 0.4360(2) 0.0374(2) 0.3596(2)
O1 O 0.55484(17) 0.1738(2) 0.4107(2)
O2 O 0.60742(19) 0.1734(2) 0.2756(2)
O3 O 0.81856(18) 0.1671(2) 0.5911(2)
O4 O 0.8633(2) 0.2242(3) 0.4643(2)
H1 H 0.5445 0.0052 0.4087
H4 H 0.3265 0.0381 0.3022
C13 C 0.6141(3) 0.1779(3) 0.3565(3)
C14 C 0.7005(3) 0.1907(3) 0.3923(3)
H9 H 0.7427 0.2067 0.3530
C15 C 0.7206(3) 0.1810(3) 0.4754(3)
H10 H 0.6780 0.1661 0.5148
C16 C 0.8082(3) 0.1922(3) 0.5121(4)
Cu3 Cu 0.56220(3) 0.17295(4) 0.12742(4)
Cu4 Cu 0.93780(3) 0.17295(4) 0.62742(4)
N5 N 0.4344(2) 0.3084(2) 0.3605(2)
O5 O 0.39258(19) 0.1734(2) 0.2244(2)
O6 O 0.31856(18) 0.1671(2) 0.4089(2)
S1 S 0.47151(8) 0.67317(9) 0.37732(10)
N2 N 0.3498(3) 0.7188(3) 0.2781(3)
N3 N 0.3506(3) 0.6267(3) 0.2782(3)
C1 C 0.4961(3) 0.9809(3) 0.3842(3)
C2 C 0.4913(3) 0.8891(3) 0.3758(3)
H2 H 0.5347 0.8525 0.3960
C3 C 0.4208(3) 0.8513(3) 0.3366(3)
C4 C 0.3583(3) 0.9094(3) 0.3093(3)
H3 H 0.3099 0.8873 0.2829
C5 C 0.3689(3) 0.9998(3) 0.3216(3)
C6 C 0.4097(3) 0.7522(3) 0.3264(3)
C7 C 0.4095(3) 0.5929(3) 0.3284(3)
C8 C 0.4202(3) 0.4948(3) 0.3411(3)
C9 C 0.4896(3) 0.4568(3) 0.3794(3)
H5 H 0.5329 0.4931 0.4000
C10 C 0.4945(3) 0.3650(3) 0.3872(3)
H6 H 0.5425 0.3405 0.4125
C11 C 0.3667(3) 0.3455(3) 0.3236(3)
H7 H 0.3237 0.3078 0.3047
C12 C 0.3580(3) 0.4360(3) 0.3125(4)
H8 H 0.3101 0.4587 0.2855
N1_2 N 0.5640(2) 0.0374(2) 0.1404(2)
O1_2 O 0.44516(17) 0.1738(2) 0.0893(2)
O4_2 O 0.1367(2) 0.2242(3) 0.0357(2)
H1_2 H 0.4555 0.0052 0.0913
H4_2 H 0.6735 0.0381 0.1978
C13_2 C 0.3859(3) 0.1779(3) 0.1435(3)
C14_2 C 0.2995(3) 0.1907(3) 0.1077(3)
H9_2 H 0.2573 0.2067 0.1470
C15_2 C 0.2794(3) 0.1810(3) 0.0246(3)
N5_2 N 0.5656(2) 0.3084(2) 0.1395(2)
O6_2 O 0.68144(18) 0.1671(2) 0.0911(2)
O3_2 O 0.18144(18) 0.1671(2) 0.9089(2)
H10_2 H 0.3220 0.1661 0.9852
C16_2 C 0.1918(3) 0.1922(3) 0.9879(4)
Cu4_2 Cu 0.06220(3) 0.17295(4) 0.87258(4)
S1_2 S 0.52849(8) 0.67317(9) 0.12268(10)
N2_2 N 0.6502(3) 0.7188(3) 0.2219(3)
N3_2 N 0.6494(3) 0.6267(3) 0.2218(3)
C1_2 C 0.5039(3) 0.9809(3) 0.1158(3)
C2_2 C 0.5087(3) 0.8891(3) 0.1242(3)
H2_2 H 0.4653 0.8525 0.1040
C3_2 C 0.5792(3) 0.8513(3) 0.1634(3)
C4_2 C 0.6417(3) 0.9094(3) 0.1907(3)
H3_2 H 0.6901 0.8873 0.2171
C5_2 C 0.6311(3) 0.9998(3) 0.1784(3)
C6_2 C 0.5903(3) 0.7522(3) 0.1736(3)
C7_2 C 0.5905(3) 0.5929(3) 0.1716(3)
C8_2 C 0.5798(3) 0.4948(3) 0.1589(3)
C9_2 C 0.5104(3) 0.4568(3) 0.1206(3)
H5_2 H 0.4671 0.4931 0.1000
C10_2 C 0.5055(3) 0.3650(3) 0.1128(3)
H6_2 H 0.4575 0.3405 0.0875
C11_2 C 0.6333(3) 0.3455(3) 0.1764(3)
H7_2 H 0.6763 0.3078 0.1953
C12_2 C 0.6420(3) 0.4360(3) 0.1875(4)
H8_2 H 0.6899 0.4587 0.2145
O1_3 O 0.05484(17) 0.1738(2) 0.5893(2)
O2_2 O 0.10742(19) 0.1734(2) 0.7244(2)
O4_3 O 0.3633(2) 0.2242(3) 0.5357(2)
H1_3 H 0.0445 0.0052 0.5913
C13_3 C 0.1141(3) 0.1779(3) 0.6435(3)
C14_3 C 0.2005(3) 0.1907(3) 0.6077(3)
H9_3 H 0.2427 0.2067 0.6470
C15_3 C 0.2206(3) 0.1810(3) 0.5246(3)
H10_3 H 0.1780 0.1661 0.4852
C16_3 C 0.3082(3) 0.1922(3) 0.4879(4)
N1_3 N 0.9360(2) 0.0374(2) 0.6404(2)
H4_3 H 0.8265 0.0381 0.6978
N5_3 N 0.9344(2) 0.3084(2) 0.6395(2)
O5_2 O 0.89258(19) 0.1734(2) 0.7756(2)
S1_3 S 0.97151(8) 0.67317(9) 0.62268(10)
N2_3 N 0.8498(3) 0.7188(3) 0.7219(3)
N3_3 N 0.8506(3) 0.6267(3) 0.7218(3)
C1_3 C 0.9961(3) 0.9809(3) 0.6158(3)
C2_3 C 0.9913(3) 0.8891(3) 0.6242(3)
C3_3 C 0.9208(3) 0.8513(3) 0.6634(3)
C4_3 C 0.8583(3) 0.9094(3) 0.6907(3)
H3_3 H 0.8099 0.8873 0.7171
C5_3 C 0.8689(3) 0.9998(3) 0.6784(3)
C6_3 C 0.9097(3) 0.7522(3) 0.6736(3)
C7_3 C 0.9095(3) 0.5929(3) 0.6716(3)
C8_3 C 0.9202(3) 0.4948(3) 0.6589(3)
C9_3 C 0.9896(3) 0.4568(3) 0.6206(3)
C10_3 C 0.9945(3) 0.3650(3) 0.6128(3)
C11_3 C 0.8667(3) 0.3455(3) 0.6764(3)
H7_3 H 0.8237 0.3078 0.6953
C12_3 C 0.8580(3) 0.4360(3) 0.6875(4)
H8_3 H 0.8101 0.4587 0.7145
N1_4 N 0.0640(2) 0.0374(2) 0.8596(2)
H4_4 H 0.1735 0.0381 0.8022
N5_4 N 0.0656(2) 0.3084(2) 0.8605(2)
S1_4 S 0.02849(8) 0.67317(9) 0.87732(10)
N2_4 N 0.1502(3) 0.7188(3) 0.7781(3)
N3_4 N 0.1494(3) 0.6267(3) 0.7782(3)
C1_4 C 0.0039(3) 0.9809(3) 0.8842(3)
C2_4 C 0.0087(3) 0.8891(3) 0.8758(3)
C3_4 C 0.0792(3) 0.8513(3) 0.8366(3)
C4_4 C 0.1417(3) 0.9094(3) 0.8093(3)
H3_4 H 0.1901 0.8873 0.7829
C5_4 C 0.1311(3) 0.9998(3) 0.8216(3)
C6_4 C 0.0903(3) 0.7522(3) 0.8264(3)
C7_4 C 0.0905(3) 0.5929(3) 0.8284(3)
C8_4 C 0.0798(3) 0.4948(3) 0.8411(3)
C9_4 C 0.0104(3) 0.4568(3) 0.8794(3)
C10_4 C 0.0055(3) 0.3650(3) 0.8872(3)
C11_4 C 0.1333(3) 0.3455(3) 0.8236(3)
H7_4 H 0.1763 0.3078 0.8047
C12_4 C 0.1420(3) 0.4360(3) 0.8125(4)
H8_4 H 0.1899 0.4587 0.7855
H10_4 H 0.8220 0.1661 0.0148
C16_4 C 0.6918(3) 0.1922(3) 0.0121(4)
O1_4 O 0.94516(17) 0.1738(2) 0.9107(2)
O4_4 O 0.6367(2) 0.2242(3) 0.9643(2)
H1_4 H 0.9555 0.0052 0.9087
C13_4 C 0.8859(3) 0.1779(3) 0.8565(3)
C14_4 C 0.7995(3) 0.1907(3) 0.8923(3)
H9_4 H 0.7573 0.2067 0.8530
C15_4 C 0.7794(3) 0.1810(3) 0.9754(3)
S1_5 S 0.02849(8) 0.32683(9) 0.37732(10)
N2_5 N 0.1502(3) 0.2812(3) 0.2781(3)
N3_5 N 0.1494(3) 0.3733(3) 0.2782(3)
N4 N 0.0656(2) 0.6916(2) 0.3605(2)
C1_5 C 0.0039(3) 0.0191(3) 0.3842(3)
C2_5 C 0.0087(3) 0.1109(3) 0.3758(3)
C3_5 C 0.0792(3) 0.1487(3) 0.3366(3)
C4_5 C 0.1417(3) 0.0906(3) 0.3093(3)
H3_5 H 0.1901 0.1127 0.2829
C5_5 C 0.1311(3) 0.0002(3) 0.3216(3)
C6_5 C 0.0903(3) 0.2478(3) 0.3264(3)
C7_5 C 0.0905(3) 0.4071(3) 0.3284(3)
C8_5 C 0.0798(3) 0.5052(3) 0.3411(3)
C9_5 C 0.0104(3) 0.5432(3) 0.3794(3)
C10_5 C 0.0055(3) 0.6350(3) 0.3872(3)
C11_5 C 0.1333(3) 0.6545(3) 0.3236(3)
H7_5 H 0.1763 0.6922 0.3047
C12_5 C 0.1420(3) 0.5640(3) 0.3125(4)
H8_5 H 0.1899 0.5413 0.2855
Cu2 Cu 0.06220(3) 0.82705(4) 0.37258(4)
N1_5 N 0.0640(2) 0.9626(2) 0.3596(2)
H4_5 H 0.1735 0.9619 0.3022
O5_3 O 0.10742(19) 0.8266(2) 0.2244(2)
O6_3 O 0.18144(18) 0.8329(2) 0.4089(2)
O1_5 O 0.94516(17) 0.8262(2) 0.4107(2)
O2_3 O 0.89258(19) 0.8266(2) 0.2756(2)
O3_3 O 0.68144(18) 0.8329(2) 0.5911(2)
O4_5 O 0.6367(2) 0.7758(3) 0.4643(2)
H1_5 H 0.9555 0.9948 0.4087
C13_5 C 0.8859(3) 0.8221(3) 0.3565(3)
C14_5 C 0.7995(3) 0.8093(3) 0.3923(3)
H9_5 H 0.7573 0.7933 0.3530
C15_5 C 0.7794(3) 0.8190(3) 0.4754(3)
H10_5 H 0.8220 0.8339 0.5148
C16_5 C 0.6918(3) 0.8078(3) 0.5121(4)
Cu3_2 Cu 0.93780(3) 0.82705(4) 0.12742(4)
Cu4_3 Cu 0.56220(3) 0.82705(4) 0.62742(4)
O1_6 O 0.05484(17) 0.8262(2) 0.0893(2)
O4_6 O 0.3633(2) 0.7758(3) 0.0357(2)
H1_6 H 0.0445 0.9948 0.0913
C13_6 C 0.1141(3) 0.8221(3) 0.1435(3)
C14_6 C 0.2005(3) 0.8093(3) 0.1077(3)
H9_6 H 0.2427 0.7933 0.1470
C15_6 C 0.2206(3) 0.8190(3) 0.0246(3)
O3_4 O 0.31856(18) 0.8329(2) 0.9089(2)
H10_6 H 0.1780 0.8339 0.9852
C16_6 C 0.3082(3) 0.8078(3) 0.9879(4)
Cu4_4 Cu 0.43780(3) 0.82705(4) 0.87258(4)
S1_6 S 0.97151(8) 0.32683(9) 0.12268(10)
N2_6 N 0.8498(3) 0.2812(3) 0.2219(3)
N3_6 N 0.8506(3) 0.3733(3) 0.2218(3)
N4_2 N 0.9344(2) 0.6916(2) 0.1395(2)
C1_6 C 0.9961(3) 0.0191(3) 0.1158(3)
C2_6 C 0.9913(3) 0.1109(3) 0.1242(3)
C3_6 C 0.9208(3) 0.1487(3) 0.1634(3)
C4_6 C 0.8583(3) 0.0906(3) 0.1907(3)
H3_6 H 0.8099 0.1127 0.2171
C5_6 C 0.8689(3) 0.0002(3) 0.1784(3)
C6_6 C 0.9097(3) 0.2478(3) 0.1736(3)
C7_6 C 0.9095(3) 0.4071(3) 0.1716(3)
C8_6 C 0.9202(3) 0.5052(3) 0.1589(3)
C9_6 C 0.9896(3) 0.5432(3) 0.1206(3)
C10_6 C 0.9945(3) 0.6350(3) 0.1128(3)
C11_6 C 0.8667(3) 0.6545(3) 0.1764(3)
H7_6 H 0.8237 0.6922 0.1953
C12_6 C 0.8580(3) 0.5640(3) 0.1875(4)
H8_6 H 0.8101 0.5413 0.2145
N1_6 N 0.9360(2) 0.9626(2) 0.1404(2)
H4_6 H 0.8265 0.9619 0.1978
O6_4 O 0.81856(18) 0.8329(2) 0.0911(2)
S1_7 S 0.52849(8) 0.32683(9) 0.62268(10)
N2_7 N 0.6502(3) 0.2812(3) 0.7219(3)
N3_7 N 0.6494(3) 0.3733(3) 0.7218(3)
N4_3 N 0.5656(2) 0.6916(2) 0.6395(2)
C1_7 C 0.5039(3) 0.0191(3) 0.6158(3)
C2_7 C 0.5087(3) 0.1109(3) 0.6242(3)
H2_3 H 0.4653 0.1475 0.6040
C3_7 C 0.5792(3) 0.1487(3) 0.6634(3)
C4_7 C 0.6417(3) 0.0906(3) 0.6907(3)
H3_7 H 0.6901 0.1127 0.7171
C5_7 C 0.6311(3) 0.0002(3) 0.6784(3)
C6_7 C 0.5903(3) 0.2478(3) 0.6736(3)
C7_7 C 0.5905(3) 0.4071(3) 0.6716(3)
C8_7 C 0.5798(3) 0.5052(3) 0.6589(3)
C9_7 C 0.5104(3) 0.5432(3) 0.6206(3)
H5_3 H 0.4671 0.5069 0.6000
C10_7 C 0.5055(3) 0.6350(3) 0.6128(3)
H6_3 H 0.4575 0.6595 0.5875
C11_7 C 0.6333(3) 0.6545(3) 0.6764(3)
H7_7 H 0.6763 0.6922 0.6953
C12_7 C 0.6420(3) 0.5640(3) 0.6875(4)
H8_7 H 0.6899 0.5413 0.7145
N1_7 N 0.5640(2) 0.9626(2) 0.6404(2)
O1_7 O 0.44516(17) 0.8262(2) 0.5893(2)
O2_4 O 0.39258(19) 0.8266(2) 0.7244(2)
O4_7 O 0.1367(2) 0.7758(3) 0.5357(2)
H1_7 H 0.4555 0.9948 0.5913
H4_7 H 0.6735 0.9619 0.6978
C13_7 C 0.3859(3) 0.8221(3) 0.6435(3)
C14_7 C 0.2995(3) 0.8093(3) 0.6077(3)
H9_7 H 0.2573 0.7933 0.6470
C15_7 C 0.2794(3) 0.8190(3) 0.5246(3)
H10_7 H 0.3220 0.8339 0.4852
C16_7 C 0.1918(3) 0.8078(3) 0.4879(4)
O5_4 O 0.60742(19) 0.8266(2) 0.7756(2)
S1_8 S 0.47151(8) 0.32683(9) 0.87732(10)
N2_8 N 0.3498(3) 0.2812(3) 0.7781(3)
N3_8 N 0.3506(3) 0.3733(3) 0.7782(3)
N4_4 N 0.4344(2) 0.6916(2) 0.8605(2)
C1_8 C 0.4961(3) 0.0191(3) 0.8842(3)
C2_8 C 0.4913(3) 0.1109(3) 0.8758(3)
H2_4 H 0.5347 0.1475 0.8960
C3_8 C 0.4208(3) 0.1487(3) 0.8366(3)
C4_8 C 0.3583(3) 0.0906(3) 0.8093(3)
H3_8 H 0.3099 0.1127 0.7829
C5_8 C 0.3689(3) 0.0002(3) 0.8216(3)
C6_8 C 0.4097(3) 0.2478(3) 0.8264(3)
C7_8 C 0.4095(3) 0.4071(3) 0.8284(3)
C8_8 C 0.4202(3) 0.5052(3) 0.8411(3)
C9_8 C 0.4896(3) 0.5432(3) 0.8794(3)
H5_4 H 0.5329 0.5069 0.9000
C10_8 C 0.4945(3) 0.6350(3) 0.8872(3)
H6_4 H 0.5425 0.6595 0.9125
C11_8 C 0.3667(3) 0.6545(3) 0.8236(3)
H7_8 H 0.3237 0.6922 0.8047
C12_8 C 0.3580(3) 0.5640(3) 0.8125(4)
H8_8 H 0.3101 0.5413 0.7855
H10_8 H 0.6780 0.8339 0.0148
C16_8 C 0.8082(3) 0.8078(3) 0.0121(4)
N1_8 N 0.4360(2) 0.9626(2) 0.8596(2)
O1_8 O 0.55484(17) 0.8262(2) 0.9107(2)
O4_8 O 0.8633(2) 0.7758(3) 0.9643(2)
H1_8 H 0.5445 0.9948 0.9087
H4_8 H 0.3265 0.9619 0.8022
C13_8 C 0.6141(3) 0.8221(3) 0.8565(3)
C14_8 C 0.7005(3) 0.8093(3) 0.8923(3)
H9_8 H 0.7427 0.7933 0.8530
C15_8 C 0.7206(3) 0.8190(3) 0.9754(3)
H2_5 H 0.9653 0.1475 0.3960
H5_5 H 0.9671 0.5069 0.4000
H6_5 H 0.9575 0.6595 0.4125
H2_6 H 0.0347 0.1475 0.1040
H5_6 H 0.0329 0.5069 0.1000
H6_6 H 0.0425 0.6595 0.0875
H2_7 H 0.0347 0.8525 0.6040
H5_7 H 0.0329 0.4931 0.6000
H6_7 H 0.0425 0.3405 0.5875
H2_8 H 0.9653 0.8525 0.8960
H5_8 H 0.9671 0.4931 0.9000
H6_8 H 0.9575 0.3405 0.9125
loop_
_geom_bond_atom_site_label_1
_geom_bond_atom_site_label_2
_geom_bond_site_symmetry_1
_geom_bond_site_symmetry_2
Cu1 N1 1_555 1_555
O1 Cu1 1_555 1_555
O2 C13 1_555 1_555
O3 C16 1_555 1_555
O4 C16 1_555 1_555
C13 O1 1_555 1_555
C14 C13 1_555 1_555
H9 C14 1_555 1_555
C15 C14 1_555 1_555
H10 C15 1_555 1_555
C16 C15 1_555 1_555
Cu3 O2 1_555 1_555
Cu4 O3 1_555 1_555
N5 Cu1 1_555 1_555
O5 Cu1 1_555 1_555
O6 Cu1 1_555 1_555
S1 C6 1_555 1_555
N2 N3 1_555 1_555
N3 C7 1_555 1_555
N5 C10 1_555 1_555
C2 C1 1_555 1_555
H2 C2 1_555 1_555
C3 C2 1_555 1_555
C4 C3 1_555 1_555
H3 C4 1_555 1_555
C6 N2 1_555 1_555
C7 S1 1_555 1_555
C8 C7 1_555 1_555
C9 C8 1_555 1_555
H5 C9 1_555 1_555
C10 C9 1_555 1_555
H6 C10 1_555 1_555
C11 N5 1_555 1_555
H7 C11 1_555 1_555
C12 C8 1_555 1_555
H8 C12 1_555 1_555
C3 C6 1_555 1_555
C4 C5 1_555 1_555
C11 C12 1_555 1_555
Cu3 N1_2 1_555 1_555
O1_2 Cu3 1_555 1_555
O5 C13_2 1_555 1_555
C13_2 O1_2 1_555 1_555
C14_2 C13_2 1_555 1_555
H9_2 C14_2 1_555 1_555
C15_2 C14_2 1_555 1_555
N5_2 Cu3 1_555 1_555
O6_2 Cu3 1_555 1_555
O3_2 C16_2 1_555 1_555
Cu4_2 O3_2 1_555 1_555
S1_2 C6_2 1_555 1_555
N2_2 N3_2 1_555 1_555
N3_2 C7_2 1_555 1_555
N5_2 C10_2 1_555 1_555
C2_2 C1_2 1_555 1_555
H2_2 C2_2 1_555 1_555
C3_2 C2_2 1_555 1_555
C4_2 C3_2 1_555 1_555
H3_2 C4_2 1_555 1_555
C6_2 N2_2 1_555 1_555
C7_2 S1_2 1_555 1_555
C8_2 C7_2 1_555 1_555
C9_2 C8_2 1_555 1_555
H5_2 C9_2 1_555 1_555
C10_2 C9_2 1_555 1_555
H6_2 C10_2 1_555 1_555
C11_2 N5_2 1_555 1_555
H7_2 C11_2 1_555 1_555
C12_2 C8_2 1_555 1_555
H8_2 C12_2 1_555 1_555
C3_2 C6_2 1_555 1_555
C4_2 C5_2 1_555 1_555
C11_2 C12_2 1_555 1_555
O2_2 C13_3 1_555 1_555
O6 C16_3 1_555 1_555
O4_3 C16_3 1_555 1_555
C13_3 O1_3 1_555 1_555
C14_3 C13_3 1_555 1_555
H9_3 C14_3 1_555 1_555
C15_3 C14_3 1_555 1_555
H10_3 C15_3 1_555 1_555
C16_3 C15_3 1_555 1_555
Cu4_2 O2_2 1_555 1_555
Cu4 N1_3 1_555 1_555
N5_3 Cu4 1_555 1_555
O5_2 Cu4 1_555 1_555
S1_3 C6_3 1_555 1_555
N2_3 N3_3 1_555 1_555
N3_3 C7_3 1_555 1_555
N5_3 C10_3 1_555 1_555
C2_3 C1_3 1_555 1_555
C3_3 C2_3 1_555 1_555
C4_3 C3_3 1_555 1_555
H3_3 C4_3 1_555 1_555
C6_3 N2_3 1_555 1_555
C7_3 S1_3 1_555 1_555
C8_3 C7_3 1_555 1_555
C9_3 C8_3 1_555 1_555
C10_3 C9_3 1_555 1_555
C11_3 N5_3 1_555 1_555
H7_3 C11_3 1_555 1_555
C12_3 C8_3 1_555 1_555
H8_3 C12_3 1_555 1_555
C3_3 C6_3 1_555 1_555
C4_3 C5_3 1_555 1_555
C11_3 C12_3 1_555 1_555
Cu4_2 N1_4 1_555 1_555
N5_4 Cu4_2 1_555 1_555
S1_4 C6_4 1_555 1_555
N2_4 N3_4 1_555 1_555
N3_4 C7_4 1_555 1_555
N5_4 C10_4 1_555 1_555
C2_4 C1_4 1_555 1_555
C3_4 C2_4 1_555 1_555
C4_4 C3_4 1_555 1_555
H3_4 C4_4 1_555 1_555
C6_4 N2_4 1_555 1_555
C7_4 S1_4 1_555 1_555
C8_4 C7_4 1_555 1_555
C9_4 C8_4 1_555 1_555
C10_4 C9_4 1_555 1_555
C11_4 N5_4 1_555 1_555
H7_4 C11_4 1_555 1_555
C12_4 C8_4 1_555 1_555
H8_4 C12_4 1_555 1_555
C3_4 C6_4 1_555 1_555
C4_4 C5_4 1_555 1_555
C11_4 C12_4 1_555 1_555
O6_2 C16_4 1_555 1_555
O5_2 C13_4 1_555 1_555
C13_4 O1_4 1_555 1_555
C14_4 C13_4 1_555 1_555
H9_4 C14_4 1_555 1_555
C15_4 C14_4 1_555 1_555
S1_5 C6_5 1_555 1_555
N2_5 N3_5 1_555 1_555
N3_5 C7_5 1_555 1_555
N4 C10_5 1_555 1_555
C2_5 C1_5 1_555 1_555
C3_5 C2_5 1_555 1_555
C4_5 C3_5 1_555 1_555
H3_5 C4_5 1_555 1_555
C6_5 N2_5 1_555 1_555
C7_5 S1_5 1_555 1_555
C8_5 C7_5 1_555 1_555
C9_5 C8_5 1_555 1_555
C10_5 C9_5 1_555 1_555
C11_5 N4 1_555 1_555
H7_5 C11_5 1_555 1_555
C12_5 C8_5 1_555 1_555
H8_5 C12_5 1_555 1_555
Cu2 N4 1_555 1_555
C3_5 C6_5 1_555 1_555
C4_5 C5_5 1_555 1_555
C11_5 C12_5 1_555 1_555
Cu2 N1_5 1_555 1_555
O5_3 Cu2 1_555 1_555
O6_3 Cu2 1_555 1_555
O2_3 C13_5 1_555 1_555
O3_3 C16_5 1_555 1_555
O4_5 C16_5 1_555 1_555
C13_5 O1_5 1_555 1_555
C14_5 C13_5 1_555 1_555
H9_5 C14_5 1_555 1_555
C15_5 C14_5 1_555 1_555
H10_5 C15_5 1_555 1_555
C16_5 C15_5 1_555 1_555
Cu3_2 O2_3 1_555 1_555
Cu4_3 O3_3 1_555 1_555
O5_3 C13_6 1_555 1_555
C13_6 O1_6 1_555 1_555
C14_6 C13_6 1_555 1_555
H9_6 C14_6 1_555 1_555
C15_6 C14_6 1_555 1_555
O3_4 C16_6 1_555 1_555
Cu4_4 O3_4 1_555 1_555
S1_6 C6_6 1_555 1_555
N2_6 N3_6 1_555 1_555
N3_6 C7_6 1_555 1_555
N4_2 C10_6 1_555 1_555
C2_6 C1_6 1_555 1_555
C3_6 C2_6 1_555 1_555
C4_6 C3_6 1_555 1_555
H3_6 C4_6 1_555 1_555
C6_6 N2_6 1_555 1_555
C7_6 S1_6 1_555 1_555
C8_6 C7_6 1_555 1_555
C9_6 C8_6 1_555 1_555
C10_6 C9_6 1_555 1_555
C11_6 N4_2 1_555 1_555
H7_6 C11_6 1_555 1_555
C12_6 C8_6 1_555 1_555
H8_6 C12_6 1_555 1_555
Cu3_2 N4_2 1_555 1_555
C3_6 C6_6 1_555 1_555
C4_6 C5_6 1_555 1_555
C11_6 C12_6 1_555 1_555
Cu3_2 N1_6 1_555 1_555
O6_4 Cu3_2 1_555 1_555
S1_7 C6_7 1_555 1_555
N2_7 N3_7 1_555 1_555
N3_7 C7_7 1_555 1_555
N4_3 C10_7 1_555 1_555
C2_7 C1_7 1_555 1_555
H2_3 C2_7 1_555 1_555
C3_7 C2_7 1_555 1_555
C4_7 C3_7 1_555 1_555
H3_7 C4_7 1_555 1_555
C6_7 N2_7 1_555 1_555
C7_7 S1_7 1_555 1_555
C8_7 C7_7 1_555 1_555
C9_7 C8_7 1_555 1_555
H5_3 C9_7 1_555 1_555
C10_7 C9_7 1_555 1_555
H6_3 C10_7 1_555 1_555
C11_7 N4_3 1_555 1_555
H7_7 C11_7 1_555 1_555
C12_7 C8_7 1_555 1_555
H8_7 C12_7 1_555 1_555
Cu4_3 N4_3 1_555 1_555
C3_7 C6_7 1_555 1_555
C4_7 C5_7 1_555 1_555
C11_7 C12_7 1_555 1_555
Cu4_3 N1_7 1_555 1_555
O1_7 Cu4_3 1_555 1_555
O2_4 C13_7 1_555 1_555
O6_3 C16_7 1_555 1_555
O4_7 C16_7 1_555 1_555
C13_7 O1_7 1_555 1_555
C14_7 C13_7 1_555 1_555
H9_7 C14_7 1_555 1_555
C15_7 C14_7 1_555 1_555
H10_7 C15_7 1_555 1_555
C16_7 C15_7 1_555 1_555
Cu4_4 O2_4 1_555 1_555
O5_4 Cu4_3 1_555 1_555
S1_8 C6_8 1_555 1_555
N2_8 N3_8 1_555 1_555
N3_8 C7_8 1_555 1_555
N4_4 C10_8 1_555 1_555
C2_8 C1_8 1_555 1_555
H2_4 C2_8 1_555 1_555
C3_8 C2_8 1_555 1_555
C4_8 C3_8 1_555 1_555
H3_8 C4_8 1_555 1_555
C6_8 N2_8 1_555 1_555
C7_8 S1_8 1_555 1_555
C8_8 C7_8 1_555 1_555
C9_8 C8_8 1_555 1_555
H5_4 C9_8 1_555 1_555
C10_8 C9_8 1_555 1_555
H6_4 C10_8 1_555 1_555
C11_8 N4_4 1_555 1_555
H7_8 C11_8 1_555 1_555
C12_8 C8_8 1_555 1_555
H8_8 C12_8 1_555 1_555
Cu4_4 N4_4 1_555 1_555
C3_8 C6_8 1_555 1_555
C4_8 C5_8 1_555 1_555
C11_8 C12_8 1_555 1_555
O6_4 C16_8 1_555 1_555
Cu4_4 N1_8 1_555 1_555
O1_8 Cu4_4 1_555 1_555
O5_4 C13_8 1_555 1_555
C13_8 O1_8 1_555 1_555
C14_8 C13_8 1_555 1_555
H9_8 C14_8 1_555 1_555
C15_8 C14_8 1_555 1_555

#END
