
###############################################################################
#
# This file contains modified crystal structure data generated from the
# MOF subset of the Cambridge Structural Database (CSD) v543 
# hosted by the Cambridge Crystallographic Data Centre (CCDC).
#
# This work is licensed under the Creative Commons
# Attribution-NonCommercial-ShareAlike 4.0 International License.
# To view a copy of this license, visit
# http://creativecommons.org/licenses/by-nc-sa/4.0/
# or send a letter to
# Creative Commons, PO Box 1866, Mountain View, CA 94042, USA.
#
# CIF created using the CSD Python API on 29 September 2022
# The structure has been converted into the P1 space group
# The structure has a 3D framework
# The original CSD entry NUYNAY is in the trigonal crystal system
# The original CSD entry NUYNAY is in a Sohncke space group
# The framework has been calculated to contain at least 10.0% void space
# The void calculation uses a probe of radius 1.32A, grid spacing 0.4
# H atom positions have been added when not included in the experimental data
# Generated hydrogen atom positions removed from atoms on special positions
#
###############################################################################

data_NUYNAY
_chemical_formula_moiety         '(C48 H78 O32 Ti6 3-)n'
_symmetry_cell_setting           triclinic
_symmetry_space_group_name_H-M   'P 1'
_symmetry_Int_Tables_number      1
_space_group_name_Hall           'P 1'
loop_
_symmetry_equiv_pos_site_id
_symmetry_equiv_pos_as_xyz
1 x,y,z
_cell_length_a                   11.69182(64)
_cell_length_b                   11.69182(64)
_cell_length_c                   13.8937(12)
_cell_angle_alpha                90
_cell_angle_beta                 90
_cell_angle_gamma                120
_cell_volume                     1644.8
loop_
_atom_site_label
_atom_site_type_symbol
_atom_site_fract_x
_atom_site_fract_y
_atom_site_fract_z
_atom_site_U_iso_or_equiv
_atom_site_thermal_displace_type
O8 O 0.46704(99) 0.24305(55) 0.22840(65) 0.0583 Uiso
O10 O 0.53363(70) 0.45961(64) 0.26160(54) 0.1013 Uiso
C9 C 0.58904 0.44705 0.0171 0.0013 Uiso
C10 C 0.3931 0.33823 0.11772 0.0266 Uiso
C11 C 0.45617 0.32244 0.02734 0.0228 Uiso
C12 C 0.35579 0.44461 0.11582 0.1013 Uiso
C13 C 0.48451 0.5723 0.10616 0.1013 Uiso
C14 C 0.56345 0.56272 0.01346 0.0507 Uiso
C16 C 0.47501(80) 0.35543(56) 0.21212(42) 0.0013 Uiso
C28 C 0.08882 0.64421 0.11582 0.1013 Uiso
C29 C 0.08779 0.51549 0.10616 0.1013 Uiso
O30 O 0.75695(55) 0.2240(11) 0.22840(65) 0.0583 Uiso
O32 O 0.54039(64) 0.07402(95) 0.26160(54) 0.1013 Uiso
C41 C 0.55295 0.14199 0.0171 0.0013 Uiso
C42 C 0.66177 0.05487 0.11772 0.0266 Uiso
C43 C 0.67756 0.13373 0.02734 0.0228 Uiso
C46 C 0.43728 0.00073 0.01346 0.0507 Uiso
C48 C 0.64457(56) 0.11958(98) 0.21212(42) 0.0013 Uiso
Ti9 Ti 0.68319(78) 0.49778(51) 0.33954(40) 0.0732 Uiso
Ti12 Ti 0.81459(59) 0.31681(78) 0.33954(40) 0.0732 Uiso
Ti13 Ti 0.50222(51) 0.18541(59) 0.33954(40) 0.0732 Uiso
H6 H 0.137803 0.694156 0.182231 . .
H7 H 0.138974 0.708299 0.0547476 . .
H8 H 0.0455555 0.456362 0.170759 . .
H9 H 0.188348 0.534801 0.096473 . .
H27 H 0.763173 0.232386 0.0338079 . .
H33 H 0.542356 0.19386 0.0784974 . .
H37 H 0.345532 0.0027744 0.00662588 . .
H38 H 0.754546 0.0552882 0.126409 . .
H45 H 0.300742 0.245454 0.126409 . .
H51 H 0.305844 0.443647 0.182231 . .
H52 H 0.291701 0.430675 0.0547476 . .
H57 H 0.469213 0.236827 0.0338079 . .
H61 H 0.543638 0.589194 0.170759 . .
H62 H 0.465199 0.653547 0.096473 . .
H67 H 0.651504 0.457644 0.0784974 . .
H68 H 0.657243 0.654468 0.00662588 . .
Ti2 Ti 0.52601(72) 0.75748(72) 0.83941(47) 0.1013 Uiso
O1 O 0.31811(73) 0.0654(11) 0.33547(84) 0.1013 Uiso
O2 O 0.69747(43) 0.79617(96) 0.86610(89) 0.0013 Uiso
O3 O 0.49607(51) 0.58217(44) 0.77594(40) 0.1013 Uiso
O4 O 0.44321(54) 0.26530(42) 0.44215(46) 0.0241 Uiso
O5 O 0.27530(47) 0.44675(73) 0.70826(57) 0.1013 Uiso
O6 O 0.56912(40) 0.46938(44) 0.44127(40) 0.0013 Uiso
O7 O 0.47220(44) 0.67679(38) 0.95422(36) 0.1013 Uiso
O9 O 0.38707(53) 0.47570(78) 0.88495(41) 0.1013 Uiso
C1 C 0.45667(50) 0.37945(72) 0.4549(10) 0.0709 Uiso
C2 C 0.39952(74) 0.50179(64) 0.72811(66) 0.0101 Uiso
C3 C 0.32975 0.37092 0.4836 0.1013 Uiso
C4 C 0.4535 0.43161 0.66332 0.1013 Uiso
C5 C 0.37426 0.50796 0.51891 0.1013 Uiso
C6 C 0.34446 0.28729 0.64496 0.1013 Uiso
C7 C 0.48833 0.54335 0.58692 0.0013 Uiso
C8 C 0.25125 0.27553 0.56392 0.1013 Uiso
C15 C 0.46195(81) 0.56337(60) 0.93953(56) 0.1013 Uiso
O11 O 0.333333 0.666667 0.80382(57) 0.1013 Uiso
O12 O 0.666667 0.333333 0.3355(13) 0.0013 Uiso
Ti4 Ti 0.2315(10) 0.47399(72) 0.83941(47) 0.1013 Uiso
O14 O 0.0987(11) 0.30253(43) 0.86610(89) 0.0013 Uiso
O15 O 0.08610(67) 0.50393(51) 0.77594(40) 0.1013 Uiso
O17 O 0.17145(87) 0.72470(47) 0.70826(57) 0.1013 Uiso
O19 O 0.20459(58) 0.52780(44) 0.95422(36) 0.1013 Uiso
O21 O 0.08863(94) 0.61293(53) 0.88495(41) 0.1013 Uiso
C18 C 0.10227(98) 0.60048(74) 0.72811(66) 0.0101 Uiso
C19 C 0.04117 0.67025 0.4836 0.1013 Uiso
C21 C 0.13370 0.62574 0.51891 0.1013 Uiso
C23 C 0.05502 0.51167 0.58692 0.0013 Uiso
C24 C 0.02428 0.74875 0.56392 0.1013 Uiso
C31 C 0.1014(10) 0.53805(81) 0.93953(56) 0.1013 Uiso
O23 O 0.9346(11) 0.2527(13) 0.33547(84) 0.1013 Uiso
O26 O 0.73470(42) 0.17791(68) 0.44215(46) 0.0241 Uiso
O28 O 0.53062(44) 0.09974(59) 0.44127(40) 0.0013 Uiso
C33 C 0.62055(72) 0.07722(88) 0.4549(10) 0.0709 Uiso
C36 C 0.56839 0.02189 0.66332 0.1013 Uiso
C38 C 0.71271 0.05717 0.64496 0.1013 Uiso
Ti14 Ti 0.24252(72) 0.7685(10) 0.83941(47) 0.1013 Uiso
O34 O 0.55325(73) 0.82855(87) 0.70826(57) 0.1013 Uiso
O35 O 0.90026(59) 0.43088(40) 0.44127(40) 0.0013 Uiso
O41 O 0.52430(78) 0.91137(94) 0.88495(41) 0.1013 Uiso
O42 O 0.92598(95) 0.46637(70) 0.26160(54) 0.1013 Uiso
H2 H 0.933261 0.217144 0.270318 . .
H10 H 0.216659 0.705962 0.556664 . .
H11 H 0.170276 0.593501 0.458701 . .
H15 H 0.122332 0.48785 0.624306 . .
H19 H 0.0831589 0.73288 0.420516 . .
H24 H 0.120913 0.821648 0.591418 . .
H25 H 0.442072 0.0156692 0.54539 . .
H28 H 0.6897 0.0842512 0.965049 . .
H29 H 0.752129 0.0393378 0.710688 . .
H30 H 0.770294 0.161312 0.625939 . .
H31 H 0.562872 0.104836 0.693746 . .
H32 H 0.556721 0.193956 0.95107 . .
H43 H 0.825025 0.0262574 0.536113 . .
H46 H 0.294038 0.510696 0.556664 . .
H47 H 0.406499 0.576775 0.458701 . .
H48 H 0.541964 0.437128 0.693746 . .
H49 H 0.201233 0.174975 0.536113 . .
H50 H 0.178352 0.299265 0.591418 . .
H53 H 0.271035 0.113762 0.319028 . .
H55 H 0.287209 0.247871 0.710688 . .
H56 H 0.391018 0.229706 0.625939 . .
H58 H 0.394551 0.3103 0.965049 . .
H63 H 0.26712 0.350279 0.420516 . .
H64 H 0.573597 0.557928 0.54539 . .
H65 H 0.51215 0.634482 0.624306 . .
H66 H 0.637235 0.443279 0.95107 . .
C44 C 0.55539 0.91118 0.11582 0.1013 Uiso
C45 C 0.4277 0.91221 0.10616 0.1013 Uiso
H39 H 0.556353 0.862197 0.182231 . .
H40 H 0.569325 0.861026 0.0547476 . .
H41 H 0.410806 0.954445 0.170759 . .
H42 H 0.346453 0.811652 0.096473 . .
O24 O 0.20383(96) 0.9013(11) 0.86610(89) 0.0013 Uiso
O25 O 0.41783(44) 0.91390(67) 0.77594(40) 0.1013 Uiso
O29 O 0.32321(38) 0.79541(58) 0.95422(36) 0.1013 Uiso
C34 C 0.49821(64) 0.89773(98) 0.72811(66) 0.0101 Uiso
C35 C 0.62908 0.95883 0.4836 0.1013 Uiso
C37 C 0.49204 0.86630 0.51891 0.1013 Uiso
C39 C 0.45665 0.94498 0.58692 0.0013 Uiso
C40 C 0.72447 0.97572 0.56392 0.1013 Uiso
C47 C 0.43663(60) 0.8986(10) 0.93953(56) 0.1013 Uiso
H26 H 0.365518 0.877668 0.624306 . .
H34 H 0.649721 0.916841 0.420516 . .
H35 H 0.489304 0.783341 0.556664 . .
H36 H 0.423225 0.829724 0.458701 . .
H44 H 0.700735 0.879087 0.591418 . .
H54 H 0.298891 0.996906 0.285907 . .
O20 O 0.7760(11) 0.53296(99) 0.22840(65) 0.0583 Uiso
C25 C 0.85801 0.41096 0.0171 0.0013 Uiso
C26 C 0.94513 0.6069 0.11772 0.0266 Uiso
C27 C 0.86627 0.54383 0.02734 0.0228 Uiso
C30 C 0.99927 0.43655 0.01346 0.0507 Uiso
C32 C 0.88042(98) 0.52499(80) 0.21212(42) 0.0013 Uiso
H4 H 0.944712 0.699258 0.126409 . .
H12 H 0.767614 0.530787 0.0338079 . .
H17 H 0.80614 0.348496 0.0784974 . .
H18 H 0.997226 0.342757 0.00662588 . .
O13 O 0.7473(13) 0.68189(73) 0.33547(84) 0.1013 Uiso
O16 O 0.82209(68) 0.55679(54) 0.44215(46) 0.0241 Uiso
C17 C 0.92278(88) 0.54333(50) 0.4549(10) 0.0709 Uiso
C20 C 0.97811 0.5465 0.66332 0.1013 Uiso
C22 C 0.94283 0.65554 0.64496 0.1013 Uiso
H13 H 0.915749 0.605449 0.965049 . .
H14 H 0.984331 0.426403 0.54539 . .
H16 H 0.806044 0.362765 0.95107 . .
H20 H 0.895164 0.458036 0.693746 . .
H21 H 0.960662 0.712791 0.710688 . .
H22 H 0.838688 0.608982 0.625939 . .
H23 H 0.973743 0.798767 0.536113 . .
H1 H 0.886238 0.157273 0.319028 . .
H2_2 H 0.283883 0.0667388 0.270318 . .
H54_2 H 0.0030944 0.301985 0.285907 . .
loop_
_geom_bond_atom_site_label_1
_geom_bond_atom_site_label_2
_geom_bond_site_symmetry_1
_geom_bond_site_symmetry_2
O8 C16 1_555 1_555
O10 C16 1_555 1_555
C9 C11 1_555 1_555
C10 C11 1_555 1_555
C12 C10 1_555 1_555
C13 C12 1_555 1_555
C14 C9 1_555 1_555
C16 C10 1_555 1_555
C29 C28 1_555 1_555
O30 C48 1_555 1_555
O32 C48 1_555 1_555
C41 C43 1_555 1_555
C42 C43 1_555 1_555
C46 C41 1_555 1_555
C48 C42 1_555 1_555
Ti9 O10 1_555 1_555
Ti12 O30 1_555 1_555
Ti13 O8 1_555 1_555
C13 C14 1_555 1_555
O32 Ti13 1_555 1_555
C28 H6 1_555 1_555
C28 H7 1_555 1_555
C29 H8 1_555 1_555
C29 H9 1_555 1_555
C43 H27 1_555 1_555
C41 H33 1_555 1_555
C46 H37 1_555 1_555
C42 H38 1_555 1_555
C10 H45 1_555 1_555
C12 H51 1_555 1_555
C12 H52 1_555 1_555
C11 H57 1_555 1_555
C13 H61 1_555 1_555
C13 H62 1_555 1_555
C9 H67 1_555 1_555
C14 H68 1_555 1_555
Ti13 O1 1_555 1_555
Ti2 O2 1_555 1_555
O3 Ti2 1_555 1_555
O4 Ti13 1_555 1_555
O5 C2 1_555 1_555
O6 C1 1_555 1_555
O7 Ti2 1_555 1_555
O9 C15 1_555 1_555
C1 O4 1_555 1_555
C2 O3 1_555 1_555
C3 C1 1_555 1_555
C4 C2 1_555 1_555
C5 C3 1_555 1_555
C6 C4 1_555 1_555
C7 C4 1_555 1_555
C8 C3 1_555 1_555
C15 O7 1_555 1_555
O11 Ti2 1_555 1_555
O12 Ti13 1_555 1_555
Ti4 O5 1_555 1_555
O14 Ti4 1_555 1_555
O15 Ti4 1_555 1_555
O17 C18 1_555 1_555
O19 Ti4 1_555 1_555
O21 C31 1_555 1_555
C18 O15 1_555 1_555
C21 C19 1_555 1_555
C24 C19 1_555 1_555
C31 O19 1_555 1_555
Ti12 O12 1_555 1_555
O23 Ti12 1_555 1_555
O26 Ti12 1_555 1_555
O28 Ti13 1_555 1_555
C33 O26 1_555 1_555
C38 C36 1_555 1_555
Ti9 O6 1_555 1_555
Ti14 O11 1_555 1_555
O34 Ti2 1_555 1_555
O35 Ti12 1_555 1_555
O41 Ti2 1_555 1_555
O42 Ti12 1_555 1_555
O9 Ti4 1_555 1_555
C5 C7 1_555 1_555
C6 C8 1_555 1_555
O11 Ti4 1_555 1_555
O12 Ti9 1_555 1_555
O17 Ti14 1_555 1_555
O21 Ti14 1_555 1_555
C21 C23 1_555 1_555
O28 C33 1_555 1_555
O23 H2 1_555 1_555
C21 H10 1_555 1_555
C21 H11 1_555 1_555
C23 H15 1_555 1_555
C19 H19 1_555 1_555
C24 H24 1_555 1_555
C38 H29 1_555 1_555
C38 H30 1_555 1_555
C36 H31 1_555 1_555
C5 H46 1_555 1_555
C5 H47 1_555 1_555
C4 H48 1_555 1_555
C8 H49 1_555 1_555
C8 H50 1_555 1_555
O1 H53 1_555 1_555
C6 H55 1_555 1_555
C6 H56 1_555 1_555
C3 H63 1_555 1_555
C7 H64 1_555 1_555
C7 H65 1_555 1_555
C45 C44 1_555 1_555
C44 H39 1_555 1_555
C44 H40 1_555 1_555
C45 H41 1_555 1_555
C45 H42 1_555 1_555
Ti14 O24 1_555 1_555
O25 Ti14 1_555 1_555
O34 C34 1_555 1_555
O29 Ti14 1_555 1_555
O41 C47 1_555 1_555
C34 O25 1_555 1_555
C37 C35 1_555 1_555
C40 C35 1_555 1_555
C47 O29 1_555 1_555
C37 C39 1_555 1_555
C39 H26 1_555 1_555
C35 H34 1_555 1_555
C37 H35 1_555 1_555
C37 H36 1_555 1_555
C40 H44 1_555 1_555
O20 C32 1_555 1_555
O42 C32 1_555 1_555
C25 C27 1_555 1_555
C26 C27 1_555 1_555
C30 C25 1_555 1_555
C32 C26 1_555 1_555
Ti9 O20 1_555 1_555
C26 H4 1_555 1_555
C27 H12 1_555 1_555
C25 H17 1_555 1_555
C30 H18 1_555 1_555
Ti9 O13 1_555 1_555
O16 Ti9 1_555 1_555
O35 C17 1_555 1_555
C17 O16 1_555 1_555
C22 C20 1_555 1_555
C20 H20 1_555 1_555
C22 H21 1_555 1_555
C22 H22 1_555 1_555
O23 H1 1_555 1_555
O1 H2_2 1_555 1_555

#END
