
###############################################################################
#
# This file contains modified crystal structure data generated from the
# MOF subset of the Cambridge Structural Database (CSD) v543 
# hosted by the Cambridge Crystallographic Data Centre (CCDC).
#
# This work is licensed under the Creative Commons
# Attribution-NonCommercial-ShareAlike 4.0 International License.
# To view a copy of this license, visit
# http://creativecommons.org/licenses/by-nc-sa/4.0/
# or send a letter to
# Creative Commons, PO Box 1866, Mountain View, CA 94042, USA.
#
# CIF created using the CSD Python API on 29 September 2022
# The structure has been converted into the P1 space group
# The structure has a 3D framework
# The original CSD entry NUYNEC is in the trigonal crystal system
# The original CSD entry NUYNEC is in a Sohncke space group
# The framework has been calculated to contain at least 10.0% void space
# The void calculation uses a probe of radius 1.32A, grid spacing 0.4
# H atom positions have been added when not included in the experimental data
# Generated hydrogen atom positions removed from atoms on special positions
#
###############################################################################

data_NUYNEC
_chemical_formula_moiety         '(C48 H78 O32 Ti6 2-)n'
_symmetry_cell_setting           triclinic
_symmetry_space_group_name_H-M   'P 1'
_symmetry_Int_Tables_number      1
_space_group_name_Hall           'P 1'
loop_
_symmetry_equiv_pos_site_id
_symmetry_equiv_pos_as_xyz
1 x,y,z
_cell_length_a                   12.6539(13)
_cell_length_b                   12.6539(13)
_cell_length_c                   15.1151(15)
_cell_angle_alpha                90
_cell_angle_beta                 90
_cell_angle_gamma                120
_cell_volume                     2096
loop_
_atom_site_label
_atom_site_type_symbol
_atom_site_fract_x
_atom_site_fract_y
_atom_site_fract_z
Ti1 Ti 0.52750(69) 0.21230(67) 0.35853(73)
Ti2 Ti 0.49026(61) 0.75639(59) 0.81731(79)
O1 O 0.37582(92) 0.0984(17) 0.32235(87)
O2 O 0.64794(67) 0.8246(12) 0.78837(78)
O3 O 0.43225(66) 0.6887(10) 0.70891(38)
O4 O 0.48479(90) 0.31651(93) 0.41903(53)
O5 O 0.6132(11) 0.48320(97) 0.46866(76)
O7 O 0.56028(48) 0.3181(11) 0.25412(51)
O9 O 0.52705(54) 0.41053(78) 0.32778(39)
O10 O 0.39440(66) 0.50384(63) 0.76780(42)
C1 C 0.5030(13) 0.3962(16) 0.47915(69)
C2 C 0.4374(11) 0.5961(12) 0.72361(48)
C3 C 0.402540 0.419998 0.520763
C4 C 0.540318 0.603315 0.666220
C5 C 0.412182 0.547521 0.522544
C6 C 0.537807 0.481417 0.655615
C7 C 0.521835 0.646149 0.575134
C8 C 0.420503 0.384477 0.612243
C10 C 0.470501 0.412380 0.161831
C11 C 0.537236 0.400067 0.081858
C12 C 0.498139 0.543576 0.171934
C13 C 0.477101 0.595942 0.089163
C14 C 0.524665 0.566158 0.005617
C16 C 0.51332(57) 0.38860(99) 0.24951(79)
O11 O 0.666667 0.333333 0.40397(81)
O12 O 0.333333 0.666667 0.84779(83)
Ti4 Ti 0.26613(85) 0.50974(61) 0.81731(79)
O14 O 0.1767(14) 0.35206(67) 0.78837(78)
O15 O 0.2564(12) 0.56775(66) 0.70891(38)
O22 O 0.10944(91) 0.60560(66) 0.76780(42)
C18 C 0.1587(16) 0.5626(11) 0.72361(48)
C19 C 0.017458 0.597460 0.520763
C20 C 0.062997 0.459682 0.666220
C21 C 0.135339 0.587818 0.522544
C23 C 0.124314 0.478165 0.575134
C28 C 0.045437 0.501861 0.171934
C29 C 0.118841 0.522899 0.089163
C30 C 0.041493 0.475335 0.005617
Ti5 Ti 0.78770(67) 0.31520(96) 0.35853(73)
O23 O 0.9016(17) 0.2774(19) 0.32235(87)
O26 O 0.68349(93) 0.1683(13) 0.41903(53)
O27 O 0.51680(97) 0.1300(15) 0.46866(76)
O29 O 0.6819(11) 0.2422(12) 0.25412(51)
O31 O 0.58947(78) 0.11652(95) 0.32778(39)
C33 C 0.6038(16) 0.1068(21) 0.47915(69)
C38 C 0.518583 0.056390 0.655615
C40 C 0.615523 0.036026 0.612243
C42 C 0.587620 0.058121 0.161831
C43 C 0.599933 0.137169 0.081858
C48 C 0.61140(99) 0.1247(11) 0.24951(79)
Ti7 Ti 0.68480(96) 0.47250(69) 0.35853(73)
Ti12 Ti 0.24361(59) 0.73387(85) 0.81731(79)
O33 O 0.8700(15) 0.3868(11) 0.46866(76)
O35 O 0.1270(11) 0.50202(79) 0.86057(54)
O37 O 0.49798(79) 0.62502(78) 0.86057(54)
O39 O 0.50593(94) 0.8378(15) 0.92108(63)
O40 O 0.3319(11) 0.49407(94) 0.92108(63)
O41 O 0.88348(95) 0.47295(54) 0.32778(39)
O44 O 0.49616(63) 0.89056(91) 0.76780(42)
H1 H 0.313056 0.352292 0.49602
H2 H 0.628011 0.671281 0.693439
H3 H 0.328967 0.537031 0.552077
H4 H 0.419703 0.579071 0.454575
H5 H 0.54568 0.449166 0.720733
H6 H 0.614879 0.495971 0.614806
H11 H 0.423407 0.300073 0.607755
H12 H 0.343637 0.369782 0.653354
H16 H 0.635074 0.460676 0.0898214
H17 H 0.517792 0.306168 0.0767558
H18 H 0.699927 0.123335 0.607755
H23 H 0.648444 0.0210272 0.154598
H26 H 0.0432707 0.371989 0.693439
H30 H 0.039235 0.686944 0.49602
H31 H 0.372583 0.351556 0.154598
H33 H 0.0261456 0.656363 0.653354
H34 H 0.171889 0.477138 0.0962029
H35 H 0.180375 0.62065 0.0816871
H41 H 0.539324 0.174398 0.0898214
H42 H 0.693832 0.211623 0.0767558
H44 H 0.550834 0.096514 0.720733
H45 H 0.504029 0.118908 0.614806
H46 H 0.593414 0.599885 0.191082
H47 H 0.439871 0.546199 0.223889
H49 H 0.208064 0.671033 0.552077
H50 H 0.159368 0.580297 0.454575
H54 H 0.522862 0.694751 0.0962029
H55 H 0.37935 0.559725 0.0816871
H59 H 0.604122 0.674881 0.5361
H60 H 0.507831 0.723506 0.585145
H61 H 0.0707592 0.395878 0.5361
H62 H 0.215674 0.492169 0.585145
H63 H 0.0064705 0.406586 0.191082
H64 H 0.106329 0.560129 0.223889
C9 C 0.494773 0.433942 0.998835
C15 C 0.44351(83) 0.56912(89) 0.93002(58)
O20 O 0.1622(15) 0.6681(11) 0.92108(63)
C31 C 0.1256(12) 0.55649(83) 0.93002(58)
C41 C 0.566058 0.060831 0.998835
H20 H 0.625327 0.0219484 0.991481
H21 H 0.576593 0.117716 0.941693
H24 H 0.396621 0.374673 0.991481
H25 H 0.541122 0.423407 0.941693
H51 H 0.621126 0.630238 0.994489
H65 H 0.00911262 0.378874 0.994489
O24 O 0.1754(12) 0.8233(14) 0.78837(78)
O25 O 0.3113(10) 0.7436(12) 0.70891(38)
C34 C 0.4039(12) 0.8413(16) 0.72361(48)
C35 C 0.580002 0.982542 0.520763
C36 C 0.396685 0.937003 0.666220
C37 C 0.452479 0.864661 0.522544
C39 C 0.353851 0.875686 0.575134
C44 C 0.456424 0.954563 0.171934
C45 C 0.404058 0.881159 0.089163
C46 C 0.433842 0.958507 0.005617
O36 O 0.37498(78) 0.8730(11) 0.86057(54)
H13 H 0.325119 0.929241 0.5361
H14 H 0.276494 0.784326 0.585145
H19 H 0.630218 0.973854 0.653354
H22 H 0.328719 0.956729 0.693439
H37 H 0.462969 0.791936 0.552077
H38 H 0.420929 0.840632 0.454575
H39 H 0.400115 0.993529 0.191082
H40 H 0.453801 0.893671 0.223889
H43 H 0.647708 0.960765 0.49602
H67 H 0.305249 0.828111 0.0962029
H68 H 0.440275 0.819625 0.0816871
C47 C 0.43088(89) 0.8744(12) 0.93002(58)
H66 H 0.369762 0.990887 0.994489
O13 O 0.7226(19) 0.62418(92) 0.32235(87)
O16 O 0.8317(13) 0.51521(90) 0.41903(53)
O19 O 0.7578(12) 0.43972(48) 0.25412(51)
C17 C 0.8932(21) 0.4970(13) 0.47915(69)
C22 C 0.943610 0.462193 0.655615
C24 C 0.963974 0.579497 0.612243
C26 C 0.941879 0.529499 0.161831
C27 C 0.862831 0.462764 0.081858
C32 C 0.8753(11) 0.48668(57) 0.24951(79)
H27 H 0.825602 0.364926 0.0898214
H28 H 0.788377 0.482208 0.0767558
H32 H 0.876665 0.576593 0.607755
H36 H 0.978973 0.627417 0.154598
H52 H 0.903486 0.45432 0.720733
H53 H 0.881092 0.385121 0.614806
C25 C 0.939169 0.505227 0.998835
H56 H 0.978052 0.603379 0.991481
H57 H 0.882284 0.458878 0.941693
loop_
_geom_bond_atom_site_label_1
_geom_bond_atom_site_label_2
_geom_bond_site_symmetry_1
_geom_bond_site_symmetry_2
Ti1 O1 1_555 1_555
Ti2 O2 1_555 1_555
O3 Ti2 1_555 1_555
O4 Ti1 1_555 1_555
O5 C1 1_555 1_555
O7 Ti1 1_555 1_555
O9 C16 1_555 1_555
O10 C2 1_555 1_555
C1 O4 1_555 1_555
C2 O3 1_555 1_555
C3 C1 1_555 1_555
C4 C2 1_555 1_555
C5 C3 1_555 1_555
C6 C4 1_555 1_555
C7 C4 1_555 1_555
C8 C3 1_555 1_555
C10 C11 1_555 1_555
C12 C10 1_555 1_555
C13 C12 1_555 1_555
C16 O7 1_555 1_555
O11 Ti1 1_555 1_555
O12 Ti2 1_555 1_555
Ti4 O10 1_555 1_555
O14 Ti4 1_555 1_555
O15 Ti4 1_555 1_555
O22 C18 1_555 1_555
C18 O15 1_555 1_555
C20 C18 1_555 1_555
C21 C19 1_555 1_555
C23 C20 1_555 1_555
C29 C28 1_555 1_555
Ti5 O11 1_555 1_555
O23 Ti5 1_555 1_555
O26 Ti5 1_555 1_555
O27 Ti1 1_555 1_555
O29 Ti5 1_555 1_555
O31 Ti1 1_555 1_555
C33 O26 1_555 1_555
C42 C43 1_555 1_555
C48 O29 1_555 1_555
Ti7 O5 1_555 1_555
Ti12 O12 1_555 1_555
O33 Ti5 1_555 1_555
O35 Ti4 1_555 1_555
O37 Ti2 1_555 1_555
O39 Ti2 1_555 1_555
O40 Ti4 1_555 1_555
O41 Ti5 1_555 1_555
O44 Ti2 1_555 1_555
O9 Ti7 1_555 1_555
C5 C7 1_555 1_555
C6 C8 1_555 1_555
C10 C16 1_555 1_555
C13 C14 1_555 1_555
O11 Ti7 1_555 1_555
O12 Ti4 1_555 1_555
O22 Ti12 1_555 1_555
C21 C23 1_555 1_555
C29 C30 1_555 1_555
O27 C33 1_555 1_555
O31 C48 1_555 1_555
C38 C40 1_555 1_555
C42 C48 1_555 1_555
C3 H1 1_555 1_555
C4 H2 1_555 1_555
C5 H3 1_555 1_555
C5 H4 1_555 1_555
C6 H5 1_555 1_555
C6 H6 1_555 1_555
C8 H11 1_555 1_555
C8 H12 1_555 1_555
C11 H16 1_555 1_555
C11 H17 1_555 1_555
C40 H18 1_555 1_555
C42 H23 1_555 1_555
C20 H26 1_555 1_555
C19 H30 1_555 1_555
C10 H31 1_555 1_555
C29 H34 1_555 1_555
C29 H35 1_555 1_555
C43 H41 1_555 1_555
C43 H42 1_555 1_555
C38 H44 1_555 1_555
C38 H45 1_555 1_555
C12 H46 1_555 1_555
C12 H47 1_555 1_555
C21 H49 1_555 1_555
C21 H50 1_555 1_555
C13 H54 1_555 1_555
C13 H55 1_555 1_555
C7 H59 1_555 1_555
C7 H60 1_555 1_555
C23 H61 1_555 1_555
C23 H62 1_555 1_555
C28 H63 1_555 1_555
C28 H64 1_555 1_555
O37 C15 1_555 1_555
O40 C15 1_555 1_555
O35 C31 1_555 1_555
O20 C31 1_555 1_555
Ti12 O20 1_555 1_555
C41 H20 1_555 1_555
C41 H21 1_555 1_555
C9 H24 1_555 1_555
C9 H25 1_555 1_555
Ti12 O24 1_555 1_555
O25 Ti12 1_555 1_555
O44 C34 1_555 1_555
C34 O25 1_555 1_555
C36 C34 1_555 1_555
C37 C35 1_555 1_555
C39 C36 1_555 1_555
C45 C44 1_555 1_555
O36 Ti12 1_555 1_555
C37 C39 1_555 1_555
C45 C46 1_555 1_555
C39 H13 1_555 1_555
C39 H14 1_555 1_555
C36 H22 1_555 1_555
C37 H37 1_555 1_555
C37 H38 1_555 1_555
C44 H39 1_555 1_555
C44 H40 1_555 1_555
C35 H43 1_555 1_555
C45 H67 1_555 1_555
C45 H68 1_555 1_555
O36 C47 1_555 1_555
O39 C47 1_555 1_555
Ti7 O13 1_555 1_555
O16 Ti7 1_555 1_555
O33 C17 1_555 1_555
O19 Ti7 1_555 1_555
O41 C32 1_555 1_555
C17 O16 1_555 1_555
C26 C27 1_555 1_555
C32 O19 1_555 1_555
C22 C24 1_555 1_555
C26 C32 1_555 1_555
C27 H27 1_555 1_555
C27 H28 1_555 1_555
C24 H32 1_555 1_555
C26 H36 1_555 1_555
C22 H52 1_555 1_555
C22 H53 1_555 1_555
C25 H56 1_555 1_555
C25 H57 1_555 1_555

#END
