
###############################################################################
#
# This file contains modified crystal structure data generated from the
# MOF subset of the Cambridge Structural Database (CSD) v543 
# hosted by the Cambridge Crystallographic Data Centre (CCDC).
#
# This work is licensed under the Creative Commons
# Attribution-NonCommercial-ShareAlike 4.0 International License.
# To view a copy of this license, visit
# http://creativecommons.org/licenses/by-nc-sa/4.0/
# or send a letter to
# Creative Commons, PO Box 1866, Mountain View, CA 94042, USA.
#
# CIF created using the CSD Python API on 29 September 2022
# The structure has been converted into the P1 space group
# The structure has a 3D framework
# The original CSD entry NUYVUZ is in the monoclinic crystal system
# The framework has been calculated to contain at least 10.0% void space
# The void calculation uses a probe of radius 1.32A, grid spacing 0.4
#
###############################################################################

data_NUYVUZ
_chemical_formula_moiety         '(C164 H136 Cd8 N16 O48)n'
_symmetry_cell_setting           triclinic
_symmetry_space_group_name_H-M   'P 1'
_symmetry_Int_Tables_number      1
_space_group_name_Hall           'P 1'
loop_
_symmetry_equiv_pos_site_id
_symmetry_equiv_pos_as_xyz
1 x,y,z
_cell_length_a                   14.8550(7)
_cell_length_b                   18.3497(9)
_cell_length_c                   17.3074(8)
_cell_angle_alpha                90
_cell_angle_beta                 109.7860(10)
_cell_angle_gamma                90
_cell_volume                     4439.22
loop_
_atom_site_label
_atom_site_type_symbol
_atom_site_fract_x
_atom_site_fract_y
_atom_site_fract_z
C23 C 0.3045(2) 0.01703(17) 0.01706(19)
Cd5 Cd 0.513737(14) 0.009098(10) 0.168421(12)
O3 O 0.04324(17) 0.41291(13) 0.33637(17)
N1 N 0.08613(17) 0.69566(14) 0.06806(16)
N4 N 0.34960(17) 0.99633(13) 0.09453(15)
C1 C 0.0768(2) 0.64149(18) 0.01349(19)
C2 C 0.1748(2) 0.7148(2) 0.1158(2)
H6 H 0.1815 0.7516 0.1542
C3 C 0.2559(2) 0.6826(3) 0.1106(3)
H7 H 0.3161 0.6980 0.1442
C4 C 0.2467(3) 0.6273(3) 0.0548(3)
H8 H 0.3004 0.6042 0.0502
C5 C 0.1568(2) 0.6070(2) 0.0062(2)
H20 H 0.0463 0.8567 0.0346
C20 C 0.1607(2) 0.95342(16) 0.00942(18)
C21 C 0.2078(2) 0.93262(18) 0.09004(19)
H22 H 0.1770 0.9035 0.1173
C22 C 0.3002(2) 0.95514(18) 0.12943(19)
H23 H 0.3300 0.9408 0.1837
Cd3 Cd 0.039939(14) 0.251726(11) 0.394626(13)
O13 O 0.06667(15) 0.82631(11) 0.19061(14)
Cd1 Cd 0.960061(14) 0.751726(11) 0.105374(13)
O1 O 0.97498(17) 0.64952(12) 0.19184(15)
O2 O 0.85238(16) 0.65389(12) 0.07730(14)
O4 O 0.93333(15) 0.32631(11) 0.30939(14)
O5 O 0.64498(14) 0.44485(13) 0.09739(14)
H1 H 0.6257 0.4161 0.1246
O11 O 0.8341(2) 0.80311(16) 0.1462(2)
H3 H 0.8557 0.8462 0.1482
C25 C 0.8992(2) 0.62285(16) 0.14281(19)
C26 C 0.8641(2) 0.55077(15) 0.16320(17)
C27 C 0.9242(2) 0.50639(15) 0.22313(18)
H26 H 0.9859 0.5219 0.2529
C28 C 0.8925(2) 0.43872(15) 0.23886(17)
C29 C 0.9625(2) 0.38910(17) 0.29936(18)
C30 C 0.7988(2) 0.41731(16) 0.19811(18)
H27 H 0.7770 0.3725 0.2096
C31 C 0.73779(19) 0.46323(16) 0.14005(18)
C32 C 0.7713(2) 0.52932(15) 0.12088(18)
H28 H 0.7314 0.5589 0.0798
C41 C 0.8010(4) 0.7813(4) 0.2074(4)
H32 H 0.7679 0.7358 0.1926
H33 H 0.7580 0.8175 0.2150
H34 H 0.8540 0.7754 0.2576
Cd2 Cd 0.513737(14) 0.490902(10) 0.668421(12)
O6 O 0.49944(15) 0.61972(10) 0.69617(12)
O7 O 0.53782(15) 0.59072(10) 0.58792(12)
O8 O 0.49312(17) 0.87621(11) 0.77660(13)
O9 O 0.52477(15) 0.96467(10) 0.70419(12)
O10 O 0.59602(19) 0.83031(12) 0.47311(13)
H2 H 0.5932 0.8747 0.4671
O12 O 0.55839(18) 0.42179(12) 0.57583(13)
H4 H 0.5259 0.4221 0.5249
H5 H 0.5883 0.3828 0.5954
N2 N 0.67109(18) 0.51058(14) 0.75844(15)
N3 N 0.87886(16) 0.80696(13) 0.98197(15)
C6 C 0.9794(2) 0.62163(18) 0.9626(2)
H10 H 0.9307 0.6526 0.9646
C7 C 0.9539(2) 0.5645(2) 0.9146(2)
C8 C 0.8559(2) 0.54517(19) 0.8638(2)
C9 C 0.7758(2) 0.57842(18) 0.8719(2)
H12 H 0.7822 0.6130 0.9127
C10 C 0.6861(2) 0.55954(18) 0.81868(19)
H13 H 0.6332 0.5823 0.8252
C11 C 0.7478(2) 0.4762(2) 0.7536(2)
H14 H 0.7391 0.4404 0.7137
C12 C 0.8390(2) 0.4909(2) 0.8044(3)
H15 H 0.8900 0.4643 0.7993
C13 C 0.9142(2) 0.85772(16) 0.94395(18)
C14 C 0.7873(2) 0.78630(17) 0.9474(2)
H16 H 0.7631 0.7514 0.9741
C15 C 0.7278(2) 0.81424(19) 0.8746(2)
H17 H 0.6645 0.7991 0.8527
C16 C 0.7640(2) 0.8652(2) 0.8345(2)
H18 H 0.7259 0.8842 0.7843
C17 C 0.8568(2) 0.88720(19) 0.8696(2)
H19 H 0.8818 0.9222 0.8435
C33 C 0.5227(2) 0.63765(15) 0.63557(17)
C34 C 0.53370(19) 0.71703(14) 0.61913(17)
C35 C 0.51867(19) 0.76882(15) 0.67253(17)
H29 H 0.5014 0.7543 0.7170
C36 C 0.52982(18) 0.84260(15) 0.65857(16)
C37 C 0.51454(18) 0.89809(14) 0.71654(16)
C38 C 0.5559(2) 0.86377(15) 0.59216(17)
H30 H 0.5638 0.9130 0.5832
C39 C 0.5704(2) 0.81209(16) 0.53912(18)
C40 C 0.5597(2) 0.73863(15) 0.55321(18)
H31 H 0.5701 0.7038 0.5181
Cd4 Cd 0.486263(14) 0.990902(10) 0.831579(12)
O14 O 0.50688(17) 0.37621(11) 0.72340(13)
O15 O 0.47523(15) 0.46467(10) 0.79581(12)
N5 N 0.34960(17) 0.50367(13) 0.59453(15)
O1_2 O 0.02502(17) 0.14952(12) 0.30816(15)
O2_2 O 0.14762(16) 0.15389(12) 0.42270(14)
O6_2 O 0.50056(15) 0.11972(10) 0.80383(12)
O7_2 O 0.46218(15) 0.09072(10) 0.91208(12)
O11_2 O 0.1659(2) 0.30311(16) 0.3538(2)
H3_2 H 0.1443 0.3462 0.3518
N2_2 N 0.32891(18) 0.01058(14) 0.74156(15)
N3_2 N 0.12114(16) 0.30696(13) 0.51803(15)
C6_2 C 0.0206(2) 0.12163(18) 0.5374(2)
H10_2 H 0.0693 0.1526 0.5354
C7_2 C 0.0461(2) 0.0645(2) 0.5854(2)
C8_2 C 0.1441(2) 0.04517(19) 0.6362(2)
C9_2 C 0.2242(2) 0.07842(18) 0.6281(2)
H12_2 H 0.2178 0.1130 0.5873
C10_2 C 0.3139(2) 0.05954(18) 0.68132(19)
H13_2 H 0.3668 0.0823 0.6748
C13_2 C 0.0858(2) 0.35772(16) 0.55605(18)
C14_2 C 0.2127(2) 0.28630(17) 0.5526(2)
H16_2 H 0.2369 0.2514 0.5259
C15_2 C 0.2722(2) 0.31424(19) 0.6254(2)
H17_2 H 0.3355 0.2991 0.6473
C16_2 C 0.2360(2) 0.3652(2) 0.6655(2)
H18_2 H 0.2741 0.3842 0.7157
C17_2 C 0.1432(2) 0.38720(19) 0.6304(2)
H19_2 H 0.1182 0.4222 0.6565
C25_2 C 0.1008(2) 0.12285(16) 0.35719(19)
C26_2 C 0.1359(2) 0.05077(15) 0.33680(17)
C27_2 C 0.0758(2) 0.00639(15) 0.27687(18)
H26_2 H 0.0141 0.0219 0.2471
C32_2 C 0.2287(2) 0.02932(15) 0.37912(18)
H28_2 H 0.2686 0.0589 0.4202
C33_2 C 0.4773(2) 0.13765(15) 0.86443(17)
C34_2 C 0.46630(19) 0.21703(14) 0.88087(17)
C35_2 C 0.48133(19) 0.26882(15) 0.82747(17)
H29_2 H 0.4986 0.2543 0.7830
C36_2 C 0.47018(18) 0.34260(15) 0.84143(16)
C37_2 C 0.48546(18) 0.39809(14) 0.78346(16)
C38_2 C 0.4441(2) 0.36377(15) 0.90784(17)
H30_2 H 0.4362 0.4130 0.9168
C39_2 C 0.4296(2) 0.31209(16) 0.96088(18)
C40_2 C 0.4403(2) 0.23863(15) 0.94679(18)
H31_2 H 0.4299 0.2038 0.9819
C41_2 C 0.1990(4) 0.2813(4) 0.2926(4)
H32_2 H 0.2321 0.2358 0.3074
H33_2 H 0.2420 0.3175 0.2850
H34_2 H 0.1460 0.2754 0.2424
N5_2 N 0.65040(17) 0.00367(13) 0.90547(15)
O5_2 O 0.35502(14) 0.94485(13) 0.40261(14)
H1_2 H 0.3743 0.9161 0.3754
O12_2 O 0.44161(18) 0.92179(12) 0.92417(13)
H4_2 H 0.4741 0.9221 0.9751
H5_2 H 0.4117 0.8828 0.9046
C11_2 C 0.2522(2) 0.9762(2) 0.7464(2)
H14_2 H 0.2609 0.9404 0.7863
C12_2 C 0.1610(2) 0.9909(2) 0.6956(3)
H15_2 H 0.1100 0.9643 0.7007
C28_2 C 0.1075(2) 0.93872(15) 0.26114(17)
C29_2 C 0.0375(2) 0.88910(17) 0.20064(18)
C30_2 C 0.2012(2) 0.91731(16) 0.30189(18)
H27_2 H 0.2230 0.8725 0.2904
C31_2 C 0.26221(19) 0.96323(16) 0.35995(18)
N1_2 N 0.91387(17) 0.19566(14) 0.43194(16)
N4_2 N 0.65040(17) 0.49633(13) 0.40547(15)
C1_2 C 0.9232(2) 0.14149(18) 0.48651(19)
C2_2 C 0.8252(2) 0.2148(2) 0.3842(2)
H6_2 H 0.8185 0.2516 0.3458
C3_2 C 0.7441(2) 0.1826(3) 0.3894(3)
H7_2 H 0.6839 0.1980 0.3558
C4_2 C 0.7533(3) 0.1273(3) 0.4452(3)
H8_2 H 0.6996 0.1042 0.4498
C5_2 C 0.8432(2) 0.1070(2) 0.4938(2)
H9 H 0.8509 0.0698 0.5320
H11 H 0.9975 0.0334 0.5875
C18 C 0.9865(2) 0.38087(17) 0.51405(19)
H20_2 H 0.9537 0.3567 0.4654
C19 C 0.9384(2) 0.43166(17) 0.53693(19)
H21 H 0.9692 0.4557 0.5861
C20_2 C 0.8393(2) 0.45342(16) 0.49058(18)
C21_2 C 0.7922(2) 0.43262(18) 0.40996(19)
H22_2 H 0.8230 0.4035 0.3827
C22_2 C 0.6998(2) 0.45514(18) 0.37057(19)
H23_2 H 0.6700 0.4408 0.3163
C23_2 C 0.6955(2) 0.51703(17) 0.48294(19)
H24 H 0.6627 0.5460 0.5086
C24 C 0.7885(2) 0.49754(17) 0.5266(2)
H25 H 0.8172 0.5139 0.5802
Cd5_2 Cd 0.486263(14) 0.509098(10) 0.331579(12)
O3_2 O 0.95676(17) 0.91291(13) 0.16363(17)
O6_3 O 0.50056(15) 0.38028(10) 0.30383(12)
O7_3 O 0.46218(15) 0.40928(10) 0.41208(12)
O8_2 O 0.50688(17) 0.12379(11) 0.22340(13)
O9_2 O 0.47523(15) 0.03533(10) 0.29581(12)
O10_2 O 0.40398(19) 0.16969(12) 0.52689(13)
H2_2 H 0.4068 0.1253 0.5329
O12_3 O 0.44161(18) 0.57821(12) 0.42417(13)
H4_3 H 0.4741 0.5779 0.4751
H5_3 H 0.4117 0.6172 0.4046
N2_3 N 0.32891(18) 0.48942(14) 0.24156(15)
N3_3 N 0.12114(16) 0.19304(13) 0.01803(15)
C6_3 C 0.0206(2) 0.37837(18) 0.0374(2)
H10_3 H 0.0693 0.3474 0.0354
C7_3 C 0.0461(2) 0.4355(2) 0.0854(2)
C8_3 C 0.1441(2) 0.45483(19) 0.1362(2)
C9_3 C 0.2242(2) 0.42158(18) 0.1281(2)
H12_3 H 0.2178 0.3870 0.0873
C10_3 C 0.3139(2) 0.44046(18) 0.18132(19)
H13_3 H 0.3668 0.4177 0.1748
C11_3 C 0.2522(2) 0.5238(2) 0.2464(2)
H14_3 H 0.2609 0.5596 0.2863
C12_3 C 0.1610(2) 0.5091(2) 0.1956(3)
H15_3 H 0.1100 0.5357 0.2007
C13_3 C 0.0858(2) 0.14228(16) 0.05605(18)
C14_3 C 0.2127(2) 0.21370(17) 0.0526(2)
H16_3 H 0.2369 0.2486 0.0259
C15_3 C 0.2722(2) 0.18576(19) 0.1254(2)
H17_3 H 0.3355 0.2009 0.1473
C16_3 C 0.2360(2) 0.1348(2) 0.1655(2)
H18_3 H 0.2741 0.1158 0.2157
C17_3 C 0.1432(2) 0.11280(19) 0.1304(2)
H19_3 H 0.1182 0.0778 0.1565
C33_3 C 0.4773(2) 0.36235(15) 0.36443(17)
C34_3 C 0.46630(19) 0.28297(14) 0.38087(17)
C35_3 C 0.48133(19) 0.23118(15) 0.32747(17)
H29_3 H 0.4986 0.2457 0.2830
C36_3 C 0.47018(18) 0.15740(15) 0.34143(16)
C37_3 C 0.48546(18) 0.10191(14) 0.28346(16)
C38_3 C 0.4441(2) 0.13623(15) 0.40784(17)
H30_3 H 0.4362 0.0870 0.4168
C39_3 C 0.4296(2) 0.18791(16) 0.46088(18)
C40_3 C 0.4403(2) 0.26137(15) 0.44679(18)
H31_3 H 0.4299 0.2962 0.4819
O14_2 O 0.49312(17) 0.62379(11) 0.27660(13)
O15_2 O 0.52477(15) 0.53533(10) 0.20419(12)
Cd1_2 Cd 0.039939(14) 0.248274(11) 0.894626(13)
O1_3 O 0.02502(17) 0.35048(12) 0.80816(15)
O2_3 O 0.14762(16) 0.34611(12) 0.92270(14)
O4_2 O 0.06667(15) 0.67369(11) 0.69061(14)
O5_3 O 0.35502(14) 0.55515(13) 0.90261(14)
H1_3 H 0.3743 0.5839 0.8754
O11_3 O 0.1659(2) 0.19689(16) 0.8538(2)
H3_3 H 0.1443 0.1538 0.8518
C25_3 C 0.1008(2) 0.37715(16) 0.85719(19)
C26_3 C 0.1359(2) 0.44923(15) 0.83680(17)
C27_3 C 0.0758(2) 0.49361(15) 0.77687(18)
H26_3 H 0.0141 0.4781 0.7471
C28_3 C 0.1075(2) 0.56128(15) 0.76114(17)
C29_3 C 0.0375(2) 0.61090(17) 0.70064(18)
C30_3 C 0.2012(2) 0.58269(16) 0.80189(18)
H27_3 H 0.2230 0.6275 0.7904
C31_3 C 0.26221(19) 0.53677(16) 0.85995(18)
C32_3 C 0.2287(2) 0.47068(15) 0.87912(18)
H28_3 H 0.2686 0.4411 0.9202
C41_3 C 0.1990(4) 0.2187(4) 0.7926(4)
H32_3 H 0.2321 0.2642 0.8074
H33_3 H 0.2420 0.1825 0.7850
H34_3 H 0.1460 0.2246 0.7424
O3_3 O 0.95676(17) 0.58709(13) 0.66363(17)
N1_3 N 0.91387(17) 0.30434(14) 0.93194(16)
C1_3 C 0.9232(2) 0.35851(18) 0.98651(19)
C2_3 C 0.8252(2) 0.2852(2) 0.8842(2)
H6_3 H 0.8185 0.2484 0.8458
C3_3 C 0.7441(2) 0.3174(3) 0.8894(3)
H7_3 H 0.6839 0.3020 0.8558
C4_3 C 0.7533(3) 0.3727(3) 0.9452(3)
H8_3 H 0.6996 0.3958 0.9498
C5_3 C 0.8432(2) 0.3930(2) 0.9938(2)
H20_3 H 0.9537 0.1433 0.9654
C20_3 C 0.8393(2) 0.04658(16) 0.99058(18)
C21_3 C 0.7922(2) 0.06738(18) 0.90996(19)
H22_3 H 0.8230 0.0965 0.8827
C22_3 C 0.6998(2) 0.04486(18) 0.87057(19)
H23_3 H 0.6700 0.0592 0.8163
Cd3_2 Cd 0.960061(14) 0.748274(11) 0.605374(13)
O13_2 O 0.93333(15) 0.17369(11) 0.80939(14)
C23_3 C 0.6955(2) 0.98297(17) 0.98294(19)
O3_4 O 0.04324(17) 0.08709(13) 0.83637(17)
N1_4 N 0.08613(17) 0.80434(14) 0.56806(16)
C1_4 C 0.0768(2) 0.85851(18) 0.51349(19)
C2_4 C 0.1748(2) 0.7852(2) 0.6158(2)
H6_4 H 0.1815 0.7484 0.6542
C3_4 C 0.2559(2) 0.8174(3) 0.6106(3)
H7_4 H 0.3161 0.8020 0.6442
C4_4 C 0.2467(3) 0.8727(3) 0.5548(3)
H8_4 H 0.3004 0.8958 0.5502
C5_4 C 0.1568(2) 0.8930(2) 0.5062(2)
H9_2 H 0.1491 0.9302 0.4680
H11_2 H 0.0025 0.9666 0.4125
C18_2 C 0.0135(2) 0.61913(17) 0.48595(19)
H20_4 H 0.0463 0.6433 0.5346
C19_2 C 0.0616(2) 0.56834(17) 0.46307(19)
H21_2 H 0.0308 0.5443 0.4139
C20_4 C 0.1607(2) 0.54658(16) 0.50942(18)
C21_4 C 0.2078(2) 0.56738(18) 0.59004(19)
H22_4 H 0.1770 0.5965 0.6173
C22_4 C 0.3002(2) 0.54486(18) 0.62943(19)
H23_4 H 0.3300 0.5592 0.6837
C23_4 C 0.3045(2) 0.48297(17) 0.51706(19)
H24_2 H 0.3373 0.4540 0.4914
C24_2 C 0.2115(2) 0.50246(17) 0.4734(2)
H25_2 H 0.1828 0.4861 0.4198
O5_4 O 0.64498(14) 0.05515(13) 0.59739(14)
H1_4 H 0.6257 0.0839 0.6246
O12_4 O 0.55839(18) 0.07821(12) 0.07583(13)
H4_4 H 0.5259 0.0779 0.0249
H5_4 H 0.5883 0.1172 0.0954
C11_4 C 0.7478(2) 0.0238(2) 0.2536(2)
H14_4 H 0.7391 0.0596 0.2137
C12_4 C 0.8390(2) 0.0091(2) 0.3044(3)
H15_4 H 0.8900 0.0357 0.2993
C28_4 C 0.8925(2) 0.06128(15) 0.73886(17)
C29_4 C 0.9625(2) 0.11090(17) 0.79936(18)
C30_4 C 0.7988(2) 0.08269(16) 0.69811(18)
H27_4 H 0.7770 0.1275 0.7096
C31_4 C 0.73779(19) 0.03677(16) 0.64005(18)
O1_4 O 0.97498(17) 0.85048(12) 0.69184(15)
O2_4 O 0.85238(16) 0.84611(12) 0.57730(14)
O6_4 O 0.49944(15) 0.88028(10) 0.19617(12)
O7_4 O 0.53782(15) 0.90928(10) 0.08792(12)
O11_4 O 0.8341(2) 0.69689(16) 0.6462(2)
H3_4 H 0.8557 0.6538 0.6482
N2_4 N 0.67109(18) 0.98942(14) 0.25844(15)
N3_4 N 0.87886(16) 0.69304(13) 0.48197(15)
C6_4 C 0.9794(2) 0.87837(18) 0.4626(2)
H10_4 H 0.9307 0.8474 0.4646
C7_4 C 0.9539(2) 0.9355(2) 0.4146(2)
C8_4 C 0.8559(2) 0.95483(19) 0.3638(2)
C9_4 C 0.7758(2) 0.92158(18) 0.3719(2)
H12_4 H 0.7822 0.8870 0.4127
C10_4 C 0.6861(2) 0.94046(18) 0.31868(19)
H13_4 H 0.6332 0.9177 0.3252
C13_4 C 0.9142(2) 0.64228(16) 0.44395(18)
C14_4 C 0.7873(2) 0.71370(17) 0.4474(2)
H16_4 H 0.7631 0.7486 0.4741
C15_4 C 0.7278(2) 0.68576(19) 0.3746(2)
H17_4 H 0.6645 0.7009 0.3527
C16_4 C 0.7640(2) 0.6348(2) 0.3345(2)
H18_4 H 0.7259 0.6158 0.2843
C17_4 C 0.8568(2) 0.61280(19) 0.3696(2)
H19_4 H 0.8818 0.5778 0.3435
C25_4 C 0.8992(2) 0.87715(16) 0.64281(19)
C26_4 C 0.8641(2) 0.94923(15) 0.66320(17)
C27_4 C 0.9242(2) 0.99361(15) 0.72313(18)
H26_4 H 0.9859 0.9781 0.7529
C32_4 C 0.7713(2) 0.97068(15) 0.62088(18)
H28_4 H 0.7314 0.9411 0.5798
C33_4 C 0.5227(2) 0.86235(15) 0.13557(17)
C34_4 C 0.53370(19) 0.78297(14) 0.11913(17)
C35_4 C 0.51867(19) 0.73118(15) 0.17253(17)
H29_4 H 0.5014 0.7457 0.2170
C36_4 C 0.52982(18) 0.65740(15) 0.15857(16)
C37_4 C 0.51454(18) 0.60191(14) 0.21654(16)
C38_4 C 0.5559(2) 0.63623(15) 0.09216(17)
H30_4 H 0.5638 0.5870 0.0832
C39_4 C 0.5704(2) 0.68791(16) 0.03912(18)
C40_4 C 0.5597(2) 0.76137(15) 0.05321(18)
H31_4 H 0.5701 0.7962 0.0181
C41_4 C 0.8010(4) 0.7187(4) 0.7074(4)
H32_4 H 0.7679 0.7642 0.6926
H33_4 H 0.7580 0.6825 0.7150
H34_4 H 0.8540 0.7246 0.7576
H24_3 H 0.3373 0.0460 0.9914
H25_3 H 0.1828 0.0139 0.9198
H9_3 H 0.1491 0.5698 0.9680
H11_3 H 0.0025 0.5334 0.9125
C18_3 C 0.0135(2) 0.88087(17) 0.98595(19)
C19_3 C 0.0616(2) 0.93166(17) 0.96307(19)
H21_3 H 0.0308 0.9557 0.9139
C24_3 C 0.2115(2) 0.99754(17) 0.9734(2)
O10_3 O 0.40398(19) 0.33031(12) 0.02689(13)
H2_3 H 0.4068 0.3747 0.0329
H9_4 H 0.8509 0.4302 0.0320
H11_4 H 0.9975 0.4666 0.0875
C18_4 C 0.9865(2) 0.11913(17) 0.01405(19)
C19_4 C 0.9384(2) 0.06834(17) 0.03693(19)
H21_4 H 0.9692 0.0443 0.0861
C24_4 C 0.7885(2) 0.00246(17) 0.0266(2)
H24_4 H 0.6627 0.9540 0.0086
H25_4 H 0.8172 0.9861 0.0802
O10_4 O 0.59602(19) 0.66969(12) 0.97311(13)
H2_4 H 0.5932 0.6253 0.9671
loop_
_geom_bond_atom_site_label_1
_geom_bond_atom_site_label_2
_geom_bond_site_symmetry_1
_geom_bond_site_symmetry_2
N4 C22 1_555 1_555
C1 N1 1_555 1_555
C2 N1 1_555 1_555
H6 C2 1_555 1_555
C3 C2 1_555 1_555
H7 C3 1_555 1_555
C4 C3 1_555 1_555
H8 C4 1_555 1_555
C5 C1 1_555 1_555
C21 C20 1_555 1_555
H22 C21 1_555 1_555
C22 C21 1_555 1_555
H23 C22 1_555 1_555
C4 C5 1_555 1_555
Cd1 O1 1_555 1_555
O1 C25 1_555 1_555
O2 Cd1 1_555 1_555
O4 C29 1_555 1_555
O5 H1 1_555 1_555
O11 Cd1 1_555 1_555
H3 O11 1_555 1_555
C25 O2 1_555 1_555
C26 C25 1_555 1_555
C27 C26 1_555 1_555
H26 C27 1_555 1_555
C28 C27 1_555 1_555
C29 C28 1_555 1_555
C30 C28 1_555 1_555
H27 C30 1_555 1_555
C31 O5 1_555 1_555
C32 C26 1_555 1_555
H28 C32 1_555 1_555
C41 O11 1_555 1_555
H32 C41 1_555 1_555
H33 C41 1_555 1_555
H34 C41 1_555 1_555
C30 C31 1_555 1_555
C31 C32 1_555 1_555
Cd2 O6 1_555 1_555
O6 C33 1_555 1_555
O7 Cd2 1_555 1_555
O8 C37 1_555 1_555
O9 C37 1_555 1_555
O10 H2 1_555 1_555
O12 Cd2 1_555 1_555
H4 O12 1_555 1_555
H5 O12 1_555 1_555
N2 Cd2 1_555 1_555
H10 C6 1_555 1_555
C7 C6 1_555 1_555
C8 C7 1_555 1_555
C9 C8 1_555 1_555
H12 C9 1_555 1_555
C10 N2 1_555 1_555
H13 C10 1_555 1_555
C11 N2 1_555 1_555
H14 C11 1_555 1_555
C12 C8 1_555 1_555
H15 C12 1_555 1_555
C13 N3 1_555 1_555
C14 N3 1_555 1_555
H16 C14 1_555 1_555
C15 C14 1_555 1_555
H17 C15 1_555 1_555
C16 C15 1_555 1_555
H18 C16 1_555 1_555
C17 C13 1_555 1_555
H19 C17 1_555 1_555
C33 O7 1_555 1_555
C34 C33 1_555 1_555
C35 C34 1_555 1_555
H29 C35 1_555 1_555
C36 C35 1_555 1_555
C37 C36 1_555 1_555
C38 C36 1_555 1_555
H30 C38 1_555 1_555
C39 O10 1_555 1_555
C40 C34 1_555 1_555
H31 C40 1_555 1_555
Cd4 O8 1_555 1_555
O14 Cd2 1_555 1_555
O15 Cd2 1_555 1_555
N5 Cd2 1_555 1_555
O9 Cd4 1_555 1_555
C9 C10 1_555 1_555
C11 C12 1_555 1_555
C16 C17 1_555 1_555
C38 C39 1_555 1_555
C39 C40 1_555 1_555
Cd3 O1_2 1_555 1_555
O1_2 C25_2 1_555 1_555
O2_2 Cd3 1_555 1_555
O6_2 C33_2 1_555 1_555
O14 C37_2 1_555 1_555
O15 C37_2 1_555 1_555
O11_2 Cd3 1_555 1_555
H3_2 O11_2 1_555 1_555
N3_2 Cd3 1_555 1_555
H10_2 C6_2 1_555 1_555
C7_2 C6_2 1_555 1_555
C8_2 C7_2 1_555 1_555
C9_2 C8_2 1_555 1_555
H12_2 C9_2 1_555 1_555
C10_2 N2_2 1_555 1_555
H13_2 C10_2 1_555 1_555
C13_2 N3_2 1_555 1_555
C14_2 N3_2 1_555 1_555
H16_2 C14_2 1_555 1_555
C15_2 C14_2 1_555 1_555
H17_2 C15_2 1_555 1_555
C16_2 C15_2 1_555 1_555
H18_2 C16_2 1_555 1_555
C17_2 C13_2 1_555 1_555
H19_2 C17_2 1_555 1_555
C25_2 O2_2 1_555 1_555
C26_2 C25_2 1_555 1_555
C27_2 C26_2 1_555 1_555
H26_2 C27_2 1_555 1_555
C32_2 C26_2 1_555 1_555
H28_2 C32_2 1_555 1_555
C33_2 O7_2 1_555 1_555
C34_2 C33_2 1_555 1_555
C35_2 C34_2 1_555 1_555
H29_2 C35_2 1_555 1_555
C36_2 C35_2 1_555 1_555
C37_2 C36_2 1_555 1_555
C38_2 C36_2 1_555 1_555
H30_2 C38_2 1_555 1_555
C40_2 C34_2 1_555 1_555
H31_2 C40_2 1_555 1_555
C41_2 O11_2 1_555 1_555
H32_2 C41_2 1_555 1_555
H33_2 C41_2 1_555 1_555
H34_2 C41_2 1_555 1_555
C9_2 C10_2 1_555 1_555
C16_2 C17_2 1_555 1_555
C38_2 C39_2 1_555 1_555
C39_2 C40_2 1_555 1_555
O13 C29_2 1_555 1_555
O5_2 H1_2 1_555 1_555
O12_2 Cd4 1_555 1_555
H4_2 O12_2 1_555 1_555
H5_2 O12_2 1_555 1_555
H14_2 C11_2 1_555 1_555
H15_2 C12_2 1_555 1_555
C29_2 C28_2 1_555 1_555
C30_2 C28_2 1_555 1_555
H27_2 C30_2 1_555 1_555
C31_2 O5_2 1_555 1_555
C11_2 C12_2 1_555 1_555
C30_2 C31_2 1_555 1_555
N4_2 C22_2 1_555 1_555
C1_2 N1_2 1_555 1_555
C2_2 N1_2 1_555 1_555
H6_2 C2_2 1_555 1_555
C3_2 C2_2 1_555 1_555
H7_2 C3_2 1_555 1_555
C4_2 C3_2 1_555 1_555
H8_2 C4_2 1_555 1_555
C5_2 C1_2 1_555 1_555
H9 C5_2 1_555 1_555
H20_2 C18 1_555 1_555
C19 C18 1_555 1_555
H21 C19 1_555 1_555
C20_2 C19 1_555 1_555
C21_2 C20_2 1_555 1_555
H22_2 C21_2 1_555 1_555
C22_2 C21_2 1_555 1_555
H23_2 C22_2 1_555 1_555
C23_2 N4_2 1_555 1_555
H24 C23_2 1_555 1_555
C24 C20_2 1_555 1_555
H25 C24 1_555 1_555
Cd5_2 N4_2 1_555 1_555
C4_2 C5_2 1_555 1_555
C23_2 C24 1_555 1_555
Cd5_2 O6_3 1_555 1_555
O6_3 C33_3 1_555 1_555
O7_3 Cd5_2 1_555 1_555
O8_2 C37_3 1_555 1_555
O9_2 C37_3 1_555 1_555
O10_2 H2_2 1_555 1_555
O12_3 Cd5_2 1_555 1_555
H4_3 O12_3 1_555 1_555
H5_3 O12_3 1_555 1_555
N2_3 Cd5_2 1_555 1_555
H10_3 C6_3 1_555 1_555
C7_3 C6_3 1_555 1_555
C8_3 C7_3 1_555 1_555
C9_3 C8_3 1_555 1_555
H12_3 C9_3 1_555 1_555
C10_3 N2_3 1_555 1_555
H13_3 C10_3 1_555 1_555
C11_3 N2_3 1_555 1_555
H14_3 C11_3 1_555 1_555
C12_3 C8_3 1_555 1_555
H15_3 C12_3 1_555 1_555
C13_3 N3_3 1_555 1_555
C14_3 N3_3 1_555 1_555
H16_3 C14_3 1_555 1_555
C15_3 C14_3 1_555 1_555
H17_3 C15_3 1_555 1_555
C16_3 C15_3 1_555 1_555
H18_3 C16_3 1_555 1_555
C17_3 C13_3 1_555 1_555
H19_3 C17_3 1_555 1_555
C33_3 O7_3 1_555 1_555
C34_3 C33_3 1_555 1_555
C35_3 C34_3 1_555 1_555
H29_3 C35_3 1_555 1_555
C36_3 C35_3 1_555 1_555
C37_3 C36_3 1_555 1_555
C38_3 C36_3 1_555 1_555
H30_3 C38_3 1_555 1_555
C39_3 O10_2 1_555 1_555
C40_3 C34_3 1_555 1_555
H31_3 C40_3 1_555 1_555
Cd5 O8_2 1_555 1_555
O14_2 Cd5_2 1_555 1_555
O15_2 Cd5_2 1_555 1_555
O9_2 Cd5 1_555 1_555
C9_3 C10_3 1_555 1_555
C11_3 C12_3 1_555 1_555
C16_3 C17_3 1_555 1_555
C38_3 C39_3 1_555 1_555
C39_3 C40_3 1_555 1_555
Cd1_2 O1_3 1_555 1_555
O1_3 C25_3 1_555 1_555
O2_3 Cd1_2 1_555 1_555
O4_2 C29_3 1_555 1_555
O5_3 H1_3 1_555 1_555
O11_3 Cd1_2 1_555 1_555
H3_3 O11_3 1_555 1_555
C25_3 O2_3 1_555 1_555
C26_3 C25_3 1_555 1_555
C27_3 C26_3 1_555 1_555
H26_3 C27_3 1_555 1_555
C28_3 C27_3 1_555 1_555
C29_3 C28_3 1_555 1_555
C30_3 C28_3 1_555 1_555
H27_3 C30_3 1_555 1_555
C31_3 O5_3 1_555 1_555
C32_3 C26_3 1_555 1_555
H28_3 C32_3 1_555 1_555
C41_3 O11_3 1_555 1_555
H32_3 C41_3 1_555 1_555
H33_3 C41_3 1_555 1_555
H34_3 C41_3 1_555 1_555
C30_3 C31_3 1_555 1_555
C31_3 C32_3 1_555 1_555
N5_2 C22_3 1_555 1_555
C1_3 N1_3 1_555 1_555
C2_3 N1_3 1_555 1_555
H6_3 C2_3 1_555 1_555
C3_3 C2_3 1_555 1_555
H7_3 C3_3 1_555 1_555
C4_3 C3_3 1_555 1_555
H8_3 C4_3 1_555 1_555
C5_3 C1_3 1_555 1_555
C21_3 C20_3 1_555 1_555
H22_3 C21_3 1_555 1_555
C22_3 C21_3 1_555 1_555
H23_3 C22_3 1_555 1_555
C4_3 C5_3 1_555 1_555
N5 C22_4 1_555 1_555
C1_4 N1_4 1_555 1_555
C2_4 N1_4 1_555 1_555
H6_4 C2_4 1_555 1_555
C3_4 C2_4 1_555 1_555
H7_4 C3_4 1_555 1_555
C4_4 C3_4 1_555 1_555
H8_4 C4_4 1_555 1_555
C5_4 C1_4 1_555 1_555
H9_2 C5_4 1_555 1_555
H20_4 C18_2 1_555 1_555
C19_2 C18_2 1_555 1_555
H21_2 C19_2 1_555 1_555
C20_4 C19_2 1_555 1_555
C21_4 C20_4 1_555 1_555
H22_4 C21_4 1_555 1_555
C22_4 C21_4 1_555 1_555
H23_4 C22_4 1_555 1_555
C23_4 N5 1_555 1_555
H24_2 C23_4 1_555 1_555
C24_2 C20_4 1_555 1_555
H25_2 C24_2 1_555 1_555
C4_4 C5_4 1_555 1_555
C23_4 C24_2 1_555 1_555
O13_2 C29_4 1_555 1_555
O5_4 H1_4 1_555 1_555
O12_4 Cd5 1_555 1_555
H4_4 O12_4 1_555 1_555
H5_4 O12_4 1_555 1_555
H14_4 C11_4 1_555 1_555
H15_4 C12_4 1_555 1_555
C29_4 C28_4 1_555 1_555
C30_4 C28_4 1_555 1_555
H27_4 C30_4 1_555 1_555
C31_4 O5_4 1_555 1_555
C11_4 C12_4 1_555 1_555
C30_4 C31_4 1_555 1_555
Cd3_2 O1_4 1_555 1_555
O1_4 C25_4 1_555 1_555
O2_4 Cd3_2 1_555 1_555
O6_4 C33_4 1_555 1_555
O14_2 C37_4 1_555 1_555
O15_2 C37_4 1_555 1_555
O11_4 Cd3_2 1_555 1_555
H3_4 O11_4 1_555 1_555
N3_4 Cd3_2 1_555 1_555
H10_4 C6_4 1_555 1_555
C7_4 C6_4 1_555 1_555
C8_4 C7_4 1_555 1_555
C9_4 C8_4 1_555 1_555
H12_4 C9_4 1_555 1_555
C10_4 N2_4 1_555 1_555
H13_4 C10_4 1_555 1_555
C13_4 N3_4 1_555 1_555
C14_4 N3_4 1_555 1_555
H16_4 C14_4 1_555 1_555
C15_4 C14_4 1_555 1_555
H17_4 C15_4 1_555 1_555
C16_4 C15_4 1_555 1_555
H18_4 C16_4 1_555 1_555
C17_4 C13_4 1_555 1_555
H19_4 C17_4 1_555 1_555
C25_4 O2_4 1_555 1_555
C26_4 C25_4 1_555 1_555
C27_4 C26_4 1_555 1_555
H26_4 C27_4 1_555 1_555
C32_4 C26_4 1_555 1_555
H28_4 C32_4 1_555 1_555
C33_4 O7_4 1_555 1_555
C34_4 C33_4 1_555 1_555
C35_4 C34_4 1_555 1_555
H29_4 C35_4 1_555 1_555
C36_4 C35_4 1_555 1_555
C37_4 C36_4 1_555 1_555
C38_4 C36_4 1_555 1_555
H30_4 C38_4 1_555 1_555
C40_4 C34_4 1_555 1_555
H31_4 C40_4 1_555 1_555
C41_4 O11_4 1_555 1_555
H32_4 C41_4 1_555 1_555
H33_4 C41_4 1_555 1_555
H34_4 C41_4 1_555 1_555
C9_4 C10_4 1_555 1_555
C16_4 C17_4 1_555 1_555
C38_4 C39_4 1_555 1_555
C39_4 C40_4 1_555 1_555
C19_3 C18_3 1_555 1_555
H21_3 C19_3 1_555 1_555
O10_3 H2_3 1_555 1_555
C19_4 C18_4 1_555 1_555
H21_4 C19_4 1_555 1_555
O10_4 H2_4 1_555 1_555

#END
