
###############################################################################
#
# This file contains modified crystal structure data generated from the
# MOF subset of the Cambridge Structural Database (CSD) v543 
# hosted by the Cambridge Crystallographic Data Centre (CCDC).
#
# This work is licensed under the Creative Commons
# Attribution-NonCommercial-ShareAlike 4.0 International License.
# To view a copy of this license, visit
# http://creativecommons.org/licenses/by-nc-sa/4.0/
# or send a letter to
# Creative Commons, PO Box 1866, Mountain View, CA 94042, USA.
#
# CIF created using the CSD Python API on 29 September 2022
# The structure has been converted into the P1 space group
# The structure has a 3D framework
# The original CSD entry NUYVIN is in the monoclinic crystal system
# The framework has been calculated to contain at least 10.0% void space
# The void calculation uses a probe of radius 1.32A, grid spacing 0.4
#
###############################################################################

data_NUYVIN
_chemical_formula_moiety         '(C164 H136 Cd8 N18 O40)n'
_symmetry_cell_setting           triclinic
_symmetry_space_group_name_H-M   'P 1'
_symmetry_Int_Tables_number      1
_space_group_name_Hall           'P 1'
loop_
_symmetry_equiv_pos_site_id
_symmetry_equiv_pos_as_xyz
1 x,y,z
_cell_length_a                   14.9647(17)
_cell_length_b                   18.433(2)
_cell_length_c                   17.2557(19)
_cell_angle_alpha                90
_cell_angle_beta                 111.517(2)
_cell_angle_gamma                90
_cell_volume                     4428.16
loop_
_atom_site_label
_atom_site_type_symbol
_atom_site_fract_x
_atom_site_fract_y
_atom_site_fract_z
Cd1 Cd 0.03938(2) 0.250877(18) 0.38962(2)
O5 O 0.1606(2) 0.15564(17) 0.4299(2)
O6 O 0.0372(3) 0.14825(18) 0.3115(2)
O9 O 0.1601(3) 0.3081(2) 0.3512(3)
H1 H 0.1946 0.3457 0.3849
N1 N 0.3233(3) -0.0000(2) 0.7343(2)
N4 N 0.1178(2) 0.3069(2) 0.5163(2)
C1 C 0.1379(3) 0.0424(3) 0.6317(3)
C2 C 0.2178(3) 0.0674(3) 0.6182(3)
H4 H 0.2114 0.0995 0.5749
C3 C 0.3072(3) 0.0439(3) 0.6697(3)
H5 H 0.3601 0.0600 0.6585
C6 C 0.0399(3) 0.0665(3) 0.5825(3)
C7 C 0.0170(3) 0.1214(3) 0.5308(3)
H9 H 0.0673 0.1484 0.5263
C20 C 0.0816(3) 0.3572(3) 0.5540(3)
C21 C 0.2096(3) 0.2871(3) 0.5533(3)
H20 H 0.2341 0.2526 0.5270
C22 C 0.2707(3) 0.3153(3) 0.6291(3)
H21 H 0.3346 0.3008 0.6526
C23 C 0.2335(3) 0.3650(3) 0.6680(3)
H22 H 0.2715 0.3838 0.7196
C24 C 0.1398(3) 0.3868(3) 0.6303(3)
H23 H 0.1149 0.4216 0.6557
C33 C 0.1148(3) 0.1233(3) 0.3642(3)
C34 C 0.1484(3) 0.0510(2) 0.3464(3)
C35 C 0.0871(3) 0.0064(2) 0.2846(3)
H28 H 0.0258 0.0229 0.2529
C39 C 0.2406(3) 0.0261(3) 0.3928(3)
H31 H 0.2816 0.0543 0.4358
C41 C 0.1831(6) 0.2899(5) 0.2829(5)
H32 H 0.2091 0.2417 0.2898
H33 H 0.2299 0.3235 0.2782
H34 H 0.1263 0.2920 0.2333
O11 O 0.4901(2) 0.11116(16) 0.7982(2)
O12 O 0.4583(2) 0.08207(16) 0.90931(19)
N5 N 0.6462(3) 0.00013(19) 0.9016(2)
Cd2 Cd 0.48154(2) 0.982401(17) 0.82811(2)
O1 O 0.5227(2) 0.95454(17) 0.7051(2)
O2 O 0.4888(2) 0.86594(17) 0.7755(2)
O3 O 0.5099(2) 0.61116(16) 0.7018(2)
O4 O 0.5417(2) 0.58207(16) 0.59069(19)
O8 O 0.0680(2) 0.82596(18) 0.1985(2)
O10 O 0.4416(3) 0.91561(18) 0.9227(2)
H2 H 0.4641 0.9160 0.9756
H3 H 0.4069 0.8796 0.8990
N1_2 N 0.3233(3) 1.0000(2) 0.7343(2)
C4 C 0.2456(4) 0.9745(3) 0.7453(4)
H6 H 0.2541 0.9426 0.7892
C5 C 0.1541(4) 0.9925(4) 0.6954(4)
H7 H 0.1023 0.9712 0.7042
C25 C 0.5127(3) 0.8877(2) 0.7173(3)
C26 C 0.5335(3) 0.8330(2) 0.6621(3)
C27 C 0.5669(4) 0.8526(3) 0.5998(3)
H24 H 0.5746 0.9015 0.5906
C28 C 0.5888(4) 0.8018(3) 0.5514(3)
H25 H 0.6124 0.8164 0.5110
C29 C 0.5759(4) 0.7290(3) 0.5627(3)
H26 H 0.5898 0.6946 0.5294
C30 C 0.5420(3) 0.7071(2) 0.6243(3)
C31 C 0.5216(3) 0.7595(2) 0.6735(3)
H27 H 0.4995 0.7450 0.7150
C32 C 0.5301(3) 0.6288(2) 0.6397(3)
C36 C 0.1153(3) 0.9378(2) 0.2693(3)
C37 C 0.2086(3) 0.9149(3) 0.3143(3)
H29 H 0.2293 0.8697 0.3039
C38 C 0.2707(3) 0.9600(3) 0.3749(3)
H30 H 0.3336 0.9451 0.4037
C40 C 0.0425(3) 0.8904(3) 0.2072(3)
Cd4 Cd 0.51846(2) 0.482401(17) 0.67189(2)
N2 N 0.9112(3) 0.1972(2) 0.4227(3)
N3 N 0.6462(3) 0.49987(19) 0.4016(2)
H8 H 0.9897 0.0404 0.5885
C8 C 0.9192(3) 0.1446(3) 0.4792(3)
C9 C 0.8231(4) 0.2176(3) 0.3735(4)
H10 H 0.8173 0.2527 0.3332
C10 C 0.7403(4) 0.1896(4) 0.3790(4)
H11 H 0.6803 0.2065 0.3444
C11 C 0.7481(4) 0.1364(4) 0.4363(4)
H12 H 0.6934 0.1156 0.4405
C12 C 0.8380(4) 0.1140(3) 0.4877(4)
H13 H 0.8447 0.0788 0.5280
C13 C 0.8360(3) 0.4537(3) 0.4866(3)
C14 C 0.7854(3) 0.4343(3) 0.4039(3)
H14 H 0.8140 0.4052 0.3755
C15 C 0.6922(4) 0.4587(3) 0.3643(3)
H15 H 0.6598 0.4458 0.3089
C16 C 0.6946(3) 0.5180(3) 0.4804(3)
H16 H 0.6638 0.5464 0.5076
C17 C 0.7873(3) 0.4971(3) 0.5238(3)
H17 H 0.8180 0.5120 0.5787
C18 C 0.9348(3) 0.4305(3) 0.5326(3)
H18 H 0.9674 0.4536 0.5830
C19 C 0.9826(3) 0.3798(3) 0.5092(3)
H19 H 0.9496 0.3561 0.4593
Cd5 Cd 0.48154(2) 0.517599(17) 0.32811(2)
O13 O 0.9320(2) 0.32596(18) 0.3015(2)
O7 O 0.9628(3) 0.91583(19) 0.1671(2)
Cd3 Cd 0.96062(2) 0.750877(18) 0.11038(2)
C16_2 C 0.3054(3) 0.0180(3) 0.0196(3)
Cd5_2 Cd 0.51846(2) 0.017599(17) 0.17189(2)
O7_2 O 0.0372(3) 0.41583(19) 0.3329(2)
N2_2 N 0.0888(3) 0.6972(2) 0.0773(3)
N3_2 N 0.3538(3) 0.99987(19) 0.0984(2)
C8_2 C 0.0808(3) 0.6446(3) 0.0208(3)
C9_2 C 0.1769(4) 0.7176(3) 0.1265(4)
H10_2 H 0.1827 0.7527 0.1668
C10_2 C 0.2597(4) 0.6896(4) 0.1210(4)
H11_2 H 0.3197 0.7065 0.1556
C11_2 C 0.2519(4) 0.6364(4) 0.0637(4)
H12_2 H 0.3066 0.6156 0.0595
C12_2 C 0.1620(4) 0.6140(3) 0.0123(4)
C13_2 C 0.1640(3) 0.9537(3) 0.0134(3)
C14_2 C 0.2146(3) 0.9343(3) 0.0961(3)
H14_2 H 0.1860 0.9052 0.1245
C15_2 C 0.3078(4) 0.9587(3) 0.1357(3)
H15_2 H 0.3402 0.9458 0.1911
H19_2 H 0.0504 0.8561 0.0407
O5_2 O 0.8394(2) 0.65564(17) 0.0701(2)
O6_2 O 0.9628(3) 0.64825(18) 0.1885(2)
O9_2 O 0.8399(3) 0.8081(2) 0.1488(3)
H1_2 H 0.8054 0.8457 0.1151
C33_2 C 0.8852(3) 0.6233(3) 0.1358(3)
C34_2 C 0.8516(3) 0.5510(2) 0.1536(3)
C35_2 C 0.9129(3) 0.5064(2) 0.2154(3)
H28_2 H 0.9742 0.5229 0.2471
C36_2 C 0.8847(3) 0.4378(2) 0.2307(3)
C37_2 C 0.7914(3) 0.4149(3) 0.1857(3)
H29_2 H 0.7707 0.3697 0.1961
C38_2 C 0.7293(3) 0.4600(3) 0.1251(3)
H30_2 H 0.6664 0.4451 0.0963
C39_2 C 0.7594(3) 0.5261(3) 0.1072(3)
H31_2 H 0.7184 0.5543 0.0642
C40_2 C 0.9575(3) 0.3904(3) 0.2928(3)
C41_2 C 0.8169(6) 0.7899(5) 0.2171(5)
H32_2 H 0.7909 0.7417 0.2102
H33_2 H 0.7701 0.8235 0.2218
H34_2 H 0.8737 0.7920 0.2667
O1_2 O 0.4773(2) 0.45454(17) 0.7949(2)
O2_2 O 0.5112(2) 0.36594(17) 0.7245(2)
O10_2 O 0.5584(3) 0.41561(18) 0.5773(2)
H2_2 H 0.5359 0.4160 0.5244
H3_2 H 0.5931 0.3796 0.6010
N1_3 N 0.6767(3) 0.5000(2) 0.7657(2)
N4_2 N 0.8822(2) 0.8069(2) 0.9837(2)
C1_2 C 0.8621(3) 0.5424(3) 0.8683(3)
C2_2 C 0.7822(3) 0.5674(3) 0.8818(3)
H4_2 H 0.7886 0.5995 0.9251
C3_2 C 0.6928(3) 0.5439(3) 0.8303(3)
H5_2 H 0.6399 0.5600 0.8415
C4_2 C 0.7544(4) 0.4745(3) 0.7547(4)
H6_2 H 0.7459 0.4426 0.7108
C5_2 C 0.8459(4) 0.4925(4) 0.8046(4)
H7_2 H 0.8977 0.4712 0.7958
C6_2 C 0.9601(3) 0.5665(3) 0.9175(3)
C7_2 C 0.9830(3) 0.6214(3) 0.9692(3)
H9_2 H 0.9327 0.6484 0.9737
C20_2 C 0.9184(3) 0.8572(3) 0.9460(3)
C21_2 C 0.7904(3) 0.7871(3) 0.9467(3)
H20_2 H 0.7659 0.7526 0.9730
C22_2 C 0.7293(3) 0.8153(3) 0.8709(3)
H21_2 H 0.6654 0.8008 0.8474
C23_2 C 0.7665(3) 0.8650(3) 0.8320(3)
H22_2 H 0.7285 0.8838 0.7804
C24_2 C 0.8602(3) 0.8868(3) 0.8697(3)
H23_2 H 0.8851 0.9216 0.8443
C25_2 C 0.4873(3) 0.3877(2) 0.7827(3)
C26_2 C 0.4665(3) 0.3330(2) 0.8379(3)
C27_2 C 0.4331(4) 0.3526(3) 0.9002(3)
H24_2 H 0.4254 0.4015 0.9094
C28_2 C 0.4112(4) 0.3018(3) 0.9486(3)
H25_2 H 0.3876 0.3164 0.9890
C29_2 C 0.4241(4) 0.2290(3) 0.9373(3)
H26_2 H 0.4102 0.1946 0.9706
C30_2 C 0.4580(3) 0.2071(2) 0.8757(3)
C31_2 C 0.4784(3) 0.2595(2) 0.8265(3)
H27_2 H 0.5005 0.2450 0.7850
C32_2 C 0.4699(3) 0.1288(2) 0.8603(3)
N5_2 N 0.3538(3) 0.50013(19) 0.5984(2)
O7_3 O 0.0372(3) 0.08417(19) 0.8329(2)
Cd3_2 Cd 0.03938(2) 0.249123(18) 0.88962(2)
N2_3 N 0.0888(3) 0.8028(2) 0.5773(3)
H8_2 H 0.0103 0.9596 0.4115
C8_3 C 0.0808(3) 0.8554(3) 0.5208(3)
C9_3 C 0.1769(4) 0.7824(3) 0.6265(4)
H10_3 H 0.1827 0.7473 0.6668
C10_3 C 0.2597(4) 0.8104(4) 0.6210(4)
H11_3 H 0.3197 0.7935 0.6556
C11_3 C 0.2519(4) 0.8636(4) 0.5637(4)
H12_3 H 0.3066 0.8844 0.5595
C12_3 C 0.1620(4) 0.8860(3) 0.5123(4)
H13_2 H 0.1553 0.9212 0.4720
C13_3 C 0.1640(3) 0.5463(3) 0.5134(3)
C14_3 C 0.2146(3) 0.5657(3) 0.5961(3)
H14_3 H 0.1860 0.5948 0.6245
C15_3 C 0.3078(4) 0.5413(3) 0.6357(3)
H15_3 H 0.3402 0.5542 0.6911
C16_3 C 0.3054(3) 0.4820(3) 0.5196(3)
H16_2 H 0.3362 0.4536 0.4924
C17_2 C 0.2127(3) 0.5029(3) 0.4762(3)
H17_2 H 0.1820 0.4880 0.4213
C18_2 C 0.0652(3) 0.5695(3) 0.4674(3)
H18_2 H 0.0326 0.5464 0.4170
C19_2 C 0.0174(3) 0.6202(3) 0.4908(3)
H19_3 H 0.0504 0.6439 0.5407
O13_2 O 0.0680(2) 0.67404(18) 0.6985(2)
O1_3 O 0.4773(2) 0.04546(17) 0.2949(2)
O2_3 O 0.5112(2) 0.13406(17) 0.2245(2)
O3_2 O 0.4901(2) 0.38884(16) 0.2982(2)
O4_2 O 0.4583(2) 0.41793(16) 0.40931(19)
O8_2 O 0.9320(2) 0.17404(18) 0.8015(2)
O10_3 O 0.5584(3) 0.08439(18) 0.0773(2)
H2_3 H 0.5359 0.0840 0.0244
H3_3 H 0.5931 0.1204 0.1010
N1_4 N 0.6767(3) 0.0000(2) 0.2657(2)
C4_3 C 0.7544(4) 0.0255(3) 0.2547(4)
H6_3 H 0.7459 0.0574 0.2108
C5_3 C 0.8459(4) 0.0075(4) 0.3046(4)
H7_3 H 0.8977 0.0288 0.2958
C25_3 C 0.4873(3) 0.1123(2) 0.2827(3)
C26_3 C 0.4665(3) 0.1670(2) 0.3379(3)
C27_3 C 0.4331(4) 0.1474(3) 0.4002(3)
H24_3 H 0.4254 0.0985 0.4094
C28_3 C 0.4112(4) 0.1982(3) 0.4486(3)
H25_3 H 0.3876 0.1836 0.4890
C29_3 C 0.4241(4) 0.2710(3) 0.4373(3)
H26_3 H 0.4102 0.3054 0.4706
C30_3 C 0.4580(3) 0.2929(2) 0.3757(3)
C31_3 C 0.4784(3) 0.2405(2) 0.3265(3)
H27_3 H 0.5005 0.2550 0.2850
C32_3 C 0.4699(3) 0.3712(2) 0.3603(3)
C36_3 C 0.8847(3) 0.0622(2) 0.7307(3)
C37_3 C 0.7914(3) 0.0851(3) 0.6857(3)
H29_3 H 0.7707 0.1303 0.6961
C38_3 C 0.7293(3) 0.0400(3) 0.6251(3)
H30_3 H 0.6664 0.0549 0.5963
C40_3 C 0.9575(3) 0.1096(3) 0.7928(3)
Cd1_2 Cd 0.96062(2) 0.749123(18) 0.61038(2)
O5_3 O 0.8394(2) 0.84436(17) 0.5701(2)
O6_3 O 0.9628(3) 0.85175(18) 0.6885(2)
O9_3 O 0.8399(3) 0.6919(2) 0.6488(3)
H1_3 H 0.8054 0.6543 0.6151
N1_5 N 0.6767(3) 1.0000(2) 0.2657(2)
N4_3 N 0.8822(2) 0.6931(2) 0.4837(2)
C1_3 C 0.8621(3) 0.9576(3) 0.3683(3)
C2_3 C 0.7822(3) 0.9326(3) 0.3818(3)
H4_3 H 0.7886 0.9005 0.4251
C3_3 C 0.6928(3) 0.9561(3) 0.3303(3)
H5_3 H 0.6399 0.9400 0.3415
C6_3 C 0.9601(3) 0.9335(3) 0.4175(3)
C7_3 C 0.9830(3) 0.8786(3) 0.4692(3)
H9_3 H 0.9327 0.8516 0.4737
C20_3 C 0.9184(3) 0.6428(3) 0.4460(3)
C21_3 C 0.7904(3) 0.7129(3) 0.4467(3)
H20_3 H 0.7659 0.7474 0.4730
C22_3 C 0.7293(3) 0.6847(3) 0.3709(3)
H21_3 H 0.6654 0.6992 0.3474
C23_3 C 0.7665(3) 0.6350(3) 0.3320(3)
H22_3 H 0.7285 0.6162 0.2804
C24_3 C 0.8602(3) 0.6132(3) 0.3697(3)
H23_3 H 0.8851 0.5784 0.3443
C33_3 C 0.8852(3) 0.8767(3) 0.6358(3)
C34_3 C 0.8516(3) 0.9490(2) 0.6536(3)
C35_3 C 0.9129(3) 0.9936(2) 0.7154(3)
H28_3 H 0.9742 0.9771 0.7471
C39_3 C 0.7594(3) 0.9739(3) 0.6072(3)
H31_3 H 0.7184 0.9457 0.5642
C41_3 C 0.8169(6) 0.7101(5) 0.7171(5)
H32_3 H 0.7909 0.7583 0.7102
H33_3 H 0.7701 0.6765 0.7218
H34_3 H 0.8737 0.7080 0.7667
O11_2 O 0.5099(2) 0.88884(16) 0.2018(2)
O12_2 O 0.5417(2) 0.91793(16) 0.09069(19)
O1_4 O 0.5227(2) 0.54546(17) 0.2051(2)
O2_4 O 0.4888(2) 0.63406(17) 0.2755(2)
O10_4 O 0.4416(3) 0.58439(18) 0.4227(2)
H2_4 H 0.4641 0.5840 0.4756
H3_4 H 0.4069 0.6204 0.3990
N1_6 N 0.3233(3) 0.5000(2) 0.2343(2)
N4_4 N 0.1178(2) 0.1931(2) 0.0163(2)
C1_4 C 0.1379(3) 0.4576(3) 0.1317(3)
C2_4 C 0.2178(3) 0.4326(3) 0.1182(3)
H4_4 H 0.2114 0.4005 0.0749
C3_4 C 0.3072(3) 0.4561(3) 0.1697(3)
H5_4 H 0.3601 0.4400 0.1585
C4_4 C 0.2456(4) 0.5255(3) 0.2453(4)
H6_4 H 0.2541 0.5574 0.2892
C5_4 C 0.1541(4) 0.5075(4) 0.1954(4)
H7_4 H 0.1023 0.5288 0.2042
C6_4 C 0.0399(3) 0.4335(3) 0.0825(3)
C7_4 C 0.0170(3) 0.3786(3) 0.0308(3)
H9_4 H 0.0673 0.3516 0.0263
C20_4 C 0.0816(3) 0.1428(3) 0.0540(3)
C21_4 C 0.2096(3) 0.2129(3) 0.0533(3)
H20_4 H 0.2341 0.2474 0.0270
C22_4 C 0.2707(3) 0.1847(3) 0.1291(3)
H21_4 H 0.3346 0.1992 0.1526
C23_4 C 0.2335(3) 0.1350(3) 0.1680(3)
H22_4 H 0.2715 0.1162 0.2196
C24_4 C 0.1398(3) 0.1132(3) 0.1303(3)
H23_4 H 0.1149 0.0784 0.1557
C25_4 C 0.5127(3) 0.6123(2) 0.2173(3)
C26_4 C 0.5335(3) 0.6670(2) 0.1621(3)
C27_4 C 0.5669(4) 0.6474(3) 0.0998(3)
H24_4 H 0.5746 0.5985 0.0906
C28_4 C 0.5888(4) 0.6982(3) 0.0514(3)
H25_4 H 0.6124 0.6836 0.0110
C29_4 C 0.5759(4) 0.7710(3) 0.0627(3)
H26_4 H 0.5898 0.8054 0.0294
C30_4 C 0.5420(3) 0.7929(2) 0.1243(3)
C31_4 C 0.5216(3) 0.7405(2) 0.1735(3)
H27_4 H 0.4995 0.7550 0.2150
C32_4 C 0.5301(3) 0.8712(2) 0.1397(3)
O5_4 O 0.1606(2) 0.34436(17) 0.9299(2)
O6_4 O 0.0372(3) 0.35175(18) 0.8115(2)
O9_4 O 0.1601(3) 0.1919(2) 0.8512(3)
H1_4 H 0.1946 0.1543 0.8849
C33_4 C 0.1148(3) 0.3767(3) 0.8642(3)
C34_4 C 0.1484(3) 0.4490(2) 0.8464(3)
C35_4 C 0.0871(3) 0.4936(2) 0.7846(3)
H28_4 H 0.0258 0.4771 0.7529
C36_4 C 0.1153(3) 0.5622(2) 0.7693(3)
C37_4 C 0.2086(3) 0.5851(3) 0.8143(3)
H29_4 H 0.2293 0.6303 0.8039
C38_4 C 0.2707(3) 0.5400(3) 0.8749(3)
H30_4 H 0.3336 0.5549 0.9037
C39_4 C 0.2406(3) 0.4739(3) 0.8928(3)
H31_4 H 0.2816 0.4457 0.9358
C40_4 C 0.0425(3) 0.6096(3) 0.7072(3)
C41_4 C 0.1831(6) 0.2101(5) 0.7829(5)
H32_4 H 0.2091 0.2583 0.7898
H33_4 H 0.2299 0.1765 0.7782
H34_4 H 0.1263 0.2080 0.7333
O7_4 O 0.9628(3) 0.58417(19) 0.6671(2)
N2_4 N 0.9112(3) 0.3028(2) 0.9227(3)
C8_4 C 0.9192(3) 0.3554(3) 0.9792(3)
C9_4 C 0.8231(4) 0.2824(3) 0.8735(4)
H10_4 H 0.8173 0.2473 0.8332
C10_4 C 0.7403(4) 0.3104(4) 0.8790(4)
H11_4 H 0.6803 0.2935 0.8444
C11_4 C 0.7481(4) 0.3636(4) 0.9363(4)
H12_4 H 0.6934 0.3844 0.9405
C12_4 C 0.8380(4) 0.3860(3) 0.9877(4)
C13_4 C 0.8360(3) 0.0463(3) 0.9866(3)
C14_4 C 0.7854(3) 0.0657(3) 0.9039(3)
H14_4 H 0.8140 0.0948 0.8755
C15_4 C 0.6922(4) 0.0413(3) 0.8643(3)
H15_4 H 0.6598 0.0542 0.8089
H19_4 H 0.9496 0.1439 0.9593
C16_4 C 0.6946(3) 0.9820(3) 0.9804(3)
H16_3 H 0.3362 0.0464 0.9924
H17_3 H 0.1820 0.0120 0.9213
H8_3 H 0.0103 0.5404 0.9115
H13_3 H 0.1553 0.5788 0.9720
C17_3 C 0.2127(3) 0.9971(3) 0.9762(3)
C18_3 C 0.0652(3) 0.9305(3) 0.9674(3)
H18_3 H 0.0326 0.9536 0.9170
C19_3 C 0.0174(3) 0.8798(3) 0.9908(3)
H8_4 H 0.9897 0.4596 0.0885
H13_4 H 0.8447 0.4212 0.0280
C17_4 C 0.7873(3) 0.0029(3) 0.0238(3)
C18_4 C 0.9348(3) 0.0695(3) 0.0326(3)
H18_4 H 0.9674 0.0464 0.0830
C19_4 C 0.9826(3) 0.1202(3) 0.0092(3)
H16_4 H 0.6638 0.9536 0.0076
H17_4 H 0.8180 0.9880 0.0787
loop_
_geom_bond_atom_site_label_1
_geom_bond_atom_site_label_2
_geom_bond_site_symmetry_1
_geom_bond_site_symmetry_2
Cd1 O5 1_555 1_555
O5 C33 1_555 1_555
O6 Cd1 1_555 1_555
O9 Cd1 1_555 1_555
H1 O9 1_555 1_555
N4 Cd1 1_555 1_555
C1 C2 1_555 1_555
C2 H4 1_555 1_555
C3 N1 1_555 1_555
H5 C3 1_555 1_555
C6 C1 1_555 1_555
C7 C6 1_555 1_555
H9 C7 1_555 1_555
C20 N4 1_555 1_555
C21 N4 1_555 1_555
H20 C21 1_555 1_555
C22 C21 1_555 1_555
H21 C22 1_555 1_555
C23 C22 1_555 1_555
H22 C23 1_555 1_555
C24 C20 1_555 1_555
H23 C24 1_555 1_555
C33 O6 1_555 1_555
C34 C33 1_555 1_555
C35 C34 1_555 1_555
H28 C35 1_555 1_555
C39 C34 1_555 1_555
H31 C39 1_555 1_555
C41 O9 1_555 1_555
H32 C41 1_555 1_555
H33 C41 1_555 1_555
H34 C41 1_555 1_555
C2 C3 1_555 1_555
C23 C24 1_555 1_555
Cd2 O1 1_555 1_555
O1 C25 1_555 1_555
O2 Cd2 1_555 1_555
O3 C32 1_555 1_555
O4 C32 1_555 1_555
O8 C40 1_555 1_555
O10 Cd2 1_555 1_555
H2 O10 1_555 1_555
H3 O10 1_555 1_555
N1_2 Cd2 1_555 1_555
C4 N1_2 1_555 1_555
H6 C4 1_555 1_555
H7 C5 1_555 1_555
C25 O2 1_555 1_555
C26 C25 1_555 1_555
C27 C26 1_555 1_555
H24 C27 1_555 1_555
C28 C27 1_555 1_555
H25 C28 1_555 1_555
C29 C28 1_555 1_555
H26 C29 1_555 1_555
C30 C29 1_555 1_555
C31 C26 1_555 1_555
H27 C31 1_555 1_555
C32 C30 1_555 1_555
C37 C36 1_555 1_555
H29 C37 1_555 1_555
C38 C37 1_555 1_555
H30 C38 1_555 1_555
C40 C36 1_555 1_555
Cd4 O3 1_555 1_555
O4 Cd4 1_555 1_555
C4 C5 1_555 1_555
C30 C31 1_555 1_555
N3 C15 1_555 1_555
C8 N2 1_555 1_555
C9 N2 1_555 1_555
H10 C9 1_555 1_555
C10 C9 1_555 1_555
H11 C10 1_555 1_555
C11 C10 1_555 1_555
H12 C11 1_555 1_555
C12 C8 1_555 1_555
H13 C12 1_555 1_555
C13 C14 1_555 1_555
C14 H14 1_555 1_555
C15 C14 1_555 1_555
H15 C15 1_555 1_555
C16 N3 1_555 1_555
H16 C16 1_555 1_555
C17 C13 1_555 1_555
H17 C17 1_555 1_555
C18 C13 1_555 1_555
H18 C18 1_555 1_555
C19 C18 1_555 1_555
H19 C19 1_555 1_555
Cd5 N3 1_555 1_555
C11 C12 1_555 1_555
C16 C17 1_555 1_555
N3_2 C15_2 1_555 1_555
C8_2 N2_2 1_555 1_555
C9_2 N2_2 1_555 1_555
H10_2 C9_2 1_555 1_555
C10_2 C9_2 1_555 1_555
H11_2 C10_2 1_555 1_555
C11_2 C10_2 1_555 1_555
H12_2 C11_2 1_555 1_555
C12_2 C8_2 1_555 1_555
C13_2 C14_2 1_555 1_555
C14_2 H14_2 1_555 1_555
C15_2 C14_2 1_555 1_555
H15_2 C15_2 1_555 1_555
C11_2 C12_2 1_555 1_555
Cd3 O5_2 1_555 1_555
O5_2 C33_2 1_555 1_555
O6_2 Cd3 1_555 1_555
O13 C40_2 1_555 1_555
O9_2 Cd3 1_555 1_555
H1_2 O9_2 1_555 1_555
C33_2 O6_2 1_555 1_555
C34_2 C33_2 1_555 1_555
C35_2 C34_2 1_555 1_555
H28_2 C35_2 1_555 1_555
C36_2 C35_2 1_555 1_555
C37_2 C36_2 1_555 1_555
H29_2 C37_2 1_555 1_555
C38_2 C37_2 1_555 1_555
H30_2 C38_2 1_555 1_555
C39_2 C34_2 1_555 1_555
H31_2 C39_2 1_555 1_555
C40_2 C36_2 1_555 1_555
C41_2 O9_2 1_555 1_555
H32_2 C41_2 1_555 1_555
H33_2 C41_2 1_555 1_555
H34_2 C41_2 1_555 1_555
C38_2 C39_2 1_555 1_555
Cd4 O1_2 1_555 1_555
O1_2 C25_2 1_555 1_555
O2_2 Cd4 1_555 1_555
O11 C32_2 1_555 1_555
O12 C32_2 1_555 1_555
O10_2 Cd4 1_555 1_555
H2_2 O10_2 1_555 1_555
H3_2 O10_2 1_555 1_555
N1_3 Cd4 1_555 1_555
C1_2 C2_2 1_555 1_555
C2_2 H4_2 1_555 1_555
C3_2 N1_3 1_555 1_555
H5_2 C3_2 1_555 1_555
C4_2 N1_3 1_555 1_555
H6_2 C4_2 1_555 1_555
C5_2 C1_2 1_555 1_555
H7_2 C5_2 1_555 1_555
C6_2 C1_2 1_555 1_555
C7_2 C6_2 1_555 1_555
H9_2 C7_2 1_555 1_555
C20_2 N4_2 1_555 1_555
C21_2 N4_2 1_555 1_555
H20_2 C21_2 1_555 1_555
C22_2 C21_2 1_555 1_555
H21_2 C22_2 1_555 1_555
C23_2 C22_2 1_555 1_555
H22_2 C23_2 1_555 1_555
C24_2 C20_2 1_555 1_555
H23_2 C24_2 1_555 1_555
C25_2 O2_2 1_555 1_555
C26_2 C25_2 1_555 1_555
C27_2 C26_2 1_555 1_555
H24_2 C27_2 1_555 1_555
C28_2 C27_2 1_555 1_555
H25_2 C28_2 1_555 1_555
C29_2 C28_2 1_555 1_555
H26_2 C29_2 1_555 1_555
C30_2 C29_2 1_555 1_555
C31_2 C26_2 1_555 1_555
H27_2 C31_2 1_555 1_555
C32_2 C30_2 1_555 1_555
N5_2 Cd4 1_555 1_555
C2_2 C3_2 1_555 1_555
C4_2 C5_2 1_555 1_555
C23_2 C24_2 1_555 1_555
C30_2 C31_2 1_555 1_555
N5_2 C15_3 1_555 1_555
C8_3 N2_3 1_555 1_555
C9_3 N2_3 1_555 1_555
H10_3 C9_3 1_555 1_555
C10_3 C9_3 1_555 1_555
H11_3 C10_3 1_555 1_555
C11_3 C10_3 1_555 1_555
H12_3 C11_3 1_555 1_555
C12_3 C8_3 1_555 1_555
H13_2 C12_3 1_555 1_555
C13_3 C14_3 1_555 1_555
C14_3 H14_3 1_555 1_555
C15_3 C14_3 1_555 1_555
H15_3 C15_3 1_555 1_555
C16_3 N5_2 1_555 1_555
H16_2 C16_3 1_555 1_555
C17_2 C13_3 1_555 1_555
H17_2 C17_2 1_555 1_555
C18_2 C13_3 1_555 1_555
H18_2 C18_2 1_555 1_555
C19_2 C18_2 1_555 1_555
H19_3 C19_2 1_555 1_555
C11_3 C12_3 1_555 1_555
C16_3 C17_2 1_555 1_555
Cd5_2 O1_3 1_555 1_555
O1_3 C25_3 1_555 1_555
O2_3 Cd5_2 1_555 1_555
O3_2 C32_3 1_555 1_555
O4_2 C32_3 1_555 1_555
O8_2 C40_3 1_555 1_555
O10_3 Cd5_2 1_555 1_555
H2_3 O10_3 1_555 1_555
H3_3 O10_3 1_555 1_555
N1_4 Cd5_2 1_555 1_555
C4_3 N1_4 1_555 1_555
H6_3 C4_3 1_555 1_555
H7_3 C5_3 1_555 1_555
C25_3 O2_3 1_555 1_555
C26_3 C25_3 1_555 1_555
C27_3 C26_3 1_555 1_555
H24_3 C27_3 1_555 1_555
C28_3 C27_3 1_555 1_555
H25_3 C28_3 1_555 1_555
C29_3 C28_3 1_555 1_555
H26_3 C29_3 1_555 1_555
C30_3 C29_3 1_555 1_555
C31_3 C26_3 1_555 1_555
H27_3 C31_3 1_555 1_555
C32_3 C30_3 1_555 1_555
C37_3 C36_3 1_555 1_555
H29_3 C37_3 1_555 1_555
C38_3 C37_3 1_555 1_555
H30_3 C38_3 1_555 1_555
C40_3 C36_3 1_555 1_555
Cd5 O3_2 1_555 1_555
O4_2 Cd5 1_555 1_555
C4_3 C5_3 1_555 1_555
C30_3 C31_3 1_555 1_555
Cd1_2 O5_3 1_555 1_555
O5_3 C33_3 1_555 1_555
O6_3 Cd1_2 1_555 1_555
O9_3 Cd1_2 1_555 1_555
H1_3 O9_3 1_555 1_555
N4_3 Cd1_2 1_555 1_555
C1_3 C2_3 1_555 1_555
C2_3 H4_3 1_555 1_555
C3_3 N1_5 1_555 1_555
H5_3 C3_3 1_555 1_555
C6_3 C1_3 1_555 1_555
C7_3 C6_3 1_555 1_555
H9_3 C7_3 1_555 1_555
C20_3 N4_3 1_555 1_555
C21_3 N4_3 1_555 1_555
H20_3 C21_3 1_555 1_555
C22_3 C21_3 1_555 1_555
H21_3 C22_3 1_555 1_555
C23_3 C22_3 1_555 1_555
H22_3 C23_3 1_555 1_555
C24_3 C20_3 1_555 1_555
H23_3 C24_3 1_555 1_555
C33_3 O6_3 1_555 1_555
C34_3 C33_3 1_555 1_555
C35_3 C34_3 1_555 1_555
H28_3 C35_3 1_555 1_555
C39_3 C34_3 1_555 1_555
H31_3 C39_3 1_555 1_555
C41_3 O9_3 1_555 1_555
H32_3 C41_3 1_555 1_555
H33_3 C41_3 1_555 1_555
H34_3 C41_3 1_555 1_555
C2_3 C3_3 1_555 1_555
C23_3 C24_3 1_555 1_555
Cd5 O1_4 1_555 1_555
O1_4 C25_4 1_555 1_555
O2_4 Cd5 1_555 1_555
O11_2 C32_4 1_555 1_555
O12_2 C32_4 1_555 1_555
O10_4 Cd5 1_555 1_555
H2_4 O10_4 1_555 1_555
H3_4 O10_4 1_555 1_555
N1_6 Cd5 1_555 1_555
C1_4 C2_4 1_555 1_555
C2_4 H4_4 1_555 1_555
C3_4 N1_6 1_555 1_555
H5_4 C3_4 1_555 1_555
C4_4 N1_6 1_555 1_555
H6_4 C4_4 1_555 1_555
C5_4 C1_4 1_555 1_555
H7_4 C5_4 1_555 1_555
C6_4 C1_4 1_555 1_555
C7_4 C6_4 1_555 1_555
H9_4 C7_4 1_555 1_555
C20_4 N4_4 1_555 1_555
C21_4 N4_4 1_555 1_555
H20_4 C21_4 1_555 1_555
C22_4 C21_4 1_555 1_555
H21_4 C22_4 1_555 1_555
C23_4 C22_4 1_555 1_555
H22_4 C23_4 1_555 1_555
C24_4 C20_4 1_555 1_555
H23_4 C24_4 1_555 1_555
C25_4 O2_4 1_555 1_555
C26_4 C25_4 1_555 1_555
C27_4 C26_4 1_555 1_555
H24_4 C27_4 1_555 1_555
C28_4 C27_4 1_555 1_555
H25_4 C28_4 1_555 1_555
C29_4 C28_4 1_555 1_555
H26_4 C29_4 1_555 1_555
C30_4 C29_4 1_555 1_555
C31_4 C26_4 1_555 1_555
H27_4 C31_4 1_555 1_555
C32_4 C30_4 1_555 1_555
C2_4 C3_4 1_555 1_555
C4_4 C5_4 1_555 1_555
C23_4 C24_4 1_555 1_555
C30_4 C31_4 1_555 1_555
Cd3_2 O5_4 1_555 1_555
O5_4 C33_4 1_555 1_555
O6_4 Cd3_2 1_555 1_555
O13_2 C40_4 1_555 1_555
O9_4 Cd3_2 1_555 1_555
H1_4 O9_4 1_555 1_555
C33_4 O6_4 1_555 1_555
C34_4 C33_4 1_555 1_555
C35_4 C34_4 1_555 1_555
H28_4 C35_4 1_555 1_555
C36_4 C35_4 1_555 1_555
C37_4 C36_4 1_555 1_555
H29_4 C37_4 1_555 1_555
C38_4 C37_4 1_555 1_555
H30_4 C38_4 1_555 1_555
C39_4 C34_4 1_555 1_555
H31_4 C39_4 1_555 1_555
C40_4 C36_4 1_555 1_555
C41_4 O9_4 1_555 1_555
H32_4 C41_4 1_555 1_555
H33_4 C41_4 1_555 1_555
H34_4 C41_4 1_555 1_555
C38_4 C39_4 1_555 1_555
N5 C15_4 1_555 1_555
C8_4 N2_4 1_555 1_555
C9_4 N2_4 1_555 1_555
H10_4 C9_4 1_555 1_555
C10_4 C9_4 1_555 1_555
H11_4 C10_4 1_555 1_555
C11_4 C10_4 1_555 1_555
H12_4 C11_4 1_555 1_555
C12_4 C8_4 1_555 1_555
C13_4 C14_4 1_555 1_555
C14_4 H14_4 1_555 1_555
C15_4 C14_4 1_555 1_555
H15_4 C15_4 1_555 1_555
C11_4 C12_4 1_555 1_555
H18_3 C18_3 1_555 1_555
C19_3 C18_3 1_555 1_555
H18_4 C18_4 1_555 1_555
C19_4 C18_4 1_555 1_555

#END
