
###############################################################################
#
# This file contains modified crystal structure data generated from the
# MOF subset of the Cambridge Structural Database (CSD) v543 
# hosted by the Cambridge Crystallographic Data Centre (CCDC).
#
# This work is licensed under the Creative Commons
# Attribution-NonCommercial-ShareAlike 4.0 International License.
# To view a copy of this license, visit
# http://creativecommons.org/licenses/by-nc-sa/4.0/
# or send a letter to
# Creative Commons, PO Box 1866, Mountain View, CA 94042, USA.
#
# CIF created using the CSD Python API on 29 September 2022
# The structure has been converted into the P1 space group
# The structure has a 3D framework
# The original CSD entry NUYWEK is in the triclinic crystal system
# The original CSD entry NUYWEK is in a Sohncke space group
# The framework has been calculated to contain at least 10.0% void space
# The void calculation uses a probe of radius 1.32A, grid spacing 0.4
#
###############################################################################

data_NUYWEK
_chemical_formula_moiety         '(C40 H28 Cd2 N8 O8)n'
_symmetry_cell_setting           triclinic
_symmetry_space_group_name_H-M   'P 1'
_symmetry_Int_Tables_number      1
_space_group_name_Hall           'P 1'
loop_
_symmetry_equiv_pos_site_id
_symmetry_equiv_pos_as_xyz
1 x,y,z
_cell_length_a                   9.147(5)
_cell_length_b                   9.219(2)
_cell_length_c                   14.604(3)
_cell_angle_alpha                97.973(5)
_cell_angle_beta                 104.956(4)
_cell_angle_gamma                104.565(5)
_cell_volume                     1123.92
loop_
_atom_site_label
_atom_site_type_symbol
_atom_site_fract_x
_atom_site_fract_y
_atom_site_fract_z
_atom_site_U_iso_or_equiv
_atom_site_thermal_displace_type
O3 O 0.2401(10) 0.0026(9) 0.6880(6) 0.0346 Uani
O4 O 0.3471(10) 0.1617(9) 0.8336(5) 0.0453 Uani
C15 C 0.0105(14) 0.3145(13) 0.5803(7) 0.0384 Uani
C16 C 0.0933(14) 0.2118(12) 0.6157(9) 0.0412 Uani
H12 H 0.0973 0.1299 0.5723 0.0490 Uiso
C17 C 0.1661(12) 0.2324(11) 0.7117(7) 0.0295 Uani
C18 C 0.1566(14) 0.3474(14) 0.7765(8) 0.0444 Uani
H13 H 0.2078 0.3591 0.8422 0.0530 Uiso
C19 C 0.0731(15) 0.4478(12) 0.7478(7) 0.0399 Uani
H14 H 0.0665 0.5252 0.7933 0.0480 Uiso
C20 C 0.2577(13) 0.1247(12) 0.7452(9) 0.0352 Uani
N10 N 0.6683(12) 0.0212(12) 0.8499(7) 0.0465 Uani
N6 N 0.9125(11) 0.1400(10) 0.9418(6) 0.0405 Uani
C22 C 0.9147(14) 0.0158(14) 0.8788(10) 0.0525 Uani
C23 C 0.7618(16) 0.1392(16) 0.9160(10) 0.0577 Uani
H17 H 0.7271 0.2165 0.9430 0.0690 Uiso
N2 N 0.0522(11) 0.8112(11) 0.2796(6) 0.0426 Uani
C1 C 0.0449(15) 0.8282(16) 0.4263(8) 0.0509 Uani
H1 H 0.0747 0.8404 0.4934 0.0610 Uiso
C2 C 0.1368(16) 0.8243(16) 0.3723(8) 0.0544 Uani
H2 H 0.2434 0.8297 0.3940 0.0650 Uiso
C4 C 0.1118(15) 0.8119(15) 0.1967(7) 0.0476 Uani
C5 C 0.0021(18) 0.7558(18) 0.1023(9) 0.0626 Uani
C6 C 0.0720(15) 0.7731(16) 0.0247(8) 0.0555 Uani
C7 C 0.2222(14) 0.8200(14) 0.0381(7) 0.0429 Uani
C8 C 0.3254(16) 0.8700(15) 0.1345(8) 0.0529 Uani
H6 H 0.4337 0.9090 0.1443 0.0640 Uiso
C9 C 0.2745(14) 0.8636(14) 0.2118(7) 0.0477 Uani
H7 H 0.3457 0.8929 0.2742 0.0570 Uiso
Cd1 Cd 0.40284(6) 0.92096(6) 0.81123(4) 0.0351 Uani
O1 O 0.1941(12) 0.8310(12) 0.8729(7) 0.0516 Uani
O2 O 0.4323(9) 0.8689(10) 0.9676(6) 0.0483 Uani
H5 H 0.0044 0.7487 0.9615 0.0660 Uiso
C10 C 0.2924(13) 0.8431(13) 0.9558(7) 0.0427 Uani
N11 N 0.3852(12) 0.7195(12) 0.6962(7) 0.0323 Uani
N8 N 0.4131(11) 0.5255(9) 0.6050(6) 0.0317 Uani
C31 C 0.3389(14) 0.7337(12) 0.6010(8) 0.0407 Uani
H22 H 0.2983 0.8102 0.5797 0.0490 Uiso
C32 C 0.3612(17) 0.6226(14) 0.5457(9) 0.0505 Uani
H23 H 0.3457 0.6098 0.4792 0.0650 Uiso
C33 C 0.4312(13) 0.5957(12) 0.6972(7) 0.0306 Uani
H24 H 0.4703 0.5611 0.7527 0.0370 Uiso
C34 C 0.4640(13) 0.3945(13) 0.5772(8) 0.0330 Uani
C35 C 0.4179(16) 0.3291(14) 0.4769(8) 0.0504 Uani
H25 H 0.3516 0.3659 0.4325 0.0610 Uiso
C36 C 0.470(2) 0.2133(15) 0.4457(9) 0.0601 Uani
H26 H 0.4507 0.1794 0.3794 0.0810 Uiso
C37 C 0.5551(14) 0.1418(12) 0.5119(8) 0.0395 Uani
C38 C 0.5902(17) 0.2002(16) 0.6111(9) 0.0498 Uani
H27 H 0.6428 0.1551 0.6570 0.0590 Uiso
C39 C 0.5421(15) 0.3333(14) 0.6404(7) 0.0456 Uani
H28 H 0.5679 0.3759 0.7062 0.0550 Uiso
C40 C 0.5988(13) 0.0105(13) 0.4774(9) 0.0401 Uani
C21 C 0.7693(15) 0.9479(15) 0.8236(9) 0.0558 Uani
H15 H 0.7384 0.8619 0.7735 0.0670 Uiso
Cd2 Cd 0.66166(6) 0.75242(6) 0.40398(4) 0.0369 Uani
O5 O 0.4018(13) 0.5923(13) 0.3304(6) 0.0522 Uani
O6 O 0.5530(11) 0.6152(11) 0.2362(6) 0.0522 Uani
O7 O 0.6074(12) 0.9848(10) 0.3876(6) 0.0529 Uani
O8 O 0.6416(13) 0.9285(11) 0.5320(7) 0.0484 Uani
N3 N 0.7706(10) 0.6463(10) 0.5259(7) 0.0288 Uani
N4 N 0.9195(10) 0.5372(9) 0.6165(5) 0.0294 Uani
C11 C 0.8360(14) 0.7382(12) 0.6170(8) 0.0395 Uani
H8 H 0.8198 0.8317 0.6368 0.0470 Uiso
C12 C 0.9268(15) 0.6712(12) 0.6727(8) 0.0432 Uani
H9 H 0.9846 0.7092 0.7380 0.0520 Uiso
C13 C 0.8271(13) 0.5276(12) 0.5286(8) 0.0355 Uani
H10 H 0.8046 0.4479 0.4756 0.0430 Uiso
C14 C 0.9976(12) 0.4295(11) 0.6470(8) 0.0304 Uani
H11 H 0.9660 0.3045 0.5140 0.0460 Uiso
C24 C 0.0427(14) 0.2441(15) 0.0175(8) 0.0472 Uani
C25 C 0.1973(16) 0.2617(14) 0.0164(9) 0.0505 Uani
C26 C 0.3160(16) 0.3638(15) 0.0943(9) 0.0531 Uani
H19 H 0.4201 0.3781 0.0937 0.0640 Uiso
C27 C 0.2930(14) 0.4451(15) 0.1718(8) 0.0456 Uani
C28 C 0.140(2) 0.4359(19) 0.1688(11) 0.0738 Uani
H20 H 0.1203 0.5002 0.2161 0.0930 Uiso
C29 C 0.014(3) 0.330(3) 0.0952(19) 0.0749 Uani
C30 C 0.4229(14) 0.5550(13) 0.2516(7) 0.0378 Uani
N9 N 0.8890(14) 0.8104(14) 0.3641(7) 0.0478 Uani
C3 C 0.9061(17) 0.8040(17) 0.2805(9) 0.0608 Uani
H3 H 0.8239 0.7950 0.2250 0.0730 Uiso
H4 H 0.8941 0.7116 0.0911 0.0750 Uiso
H18 H 0.2199 0.2077 0.9658 0.0610 Uiso
H16 H 0.0035 0.9858 0.8761 0.0620 Uiso
H21 H 0.9108 0.3164 0.0973 0.1080 Uiso
loop_
_atom_site_aniso_label
_atom_site_aniso_U_11
_atom_site_aniso_U_22
_atom_site_aniso_U_33
_atom_site_aniso_U_23
_atom_site_aniso_U_13
_atom_site_aniso_U_12
O3 0.038 0.037 0.033 0.007 0.006 0.024
O4 0.052 0.047 0.037 0.007 0.002 0.028
C15 0.042 0.046 0.025 0.002 0.005 0.018
C16 0.037 0.029 0.06 0.004 0.014 0.018
C17 0.027 0.026 0.042 0.011 0.005 0.023
C18 0.044 0.061 0.035 0.014 0.01 0.028
C19 0.06 0.042 0.029 0.005 0.011 0.039
C20 0.034 0.039 0.05 0.018 0.024 0.025
N10 0.042 0.06 0.03 0 -0.006 0.025
N6 0.035 0.049 0.036 0.003 0.012 0.012
C22 0.028 0.054 0.076 0.001 0.023 0.013
C23 0.039 0.073 0.055 -0.011 0.008 0.026
N2 0.034 0.055 0.031 0 0.003 0.012
C1 0.042 0.08 0.031 0.005 0.007 0.027
C2 0.041 0.087 0.028 0.014 -0.005 0.022
C4 0.046 0.073 0.02 0.008 0 0.023
C5 0.048 0.094 0.041 0.01 0.011 0.018
C6 0.038 0.091 0.025 0.003 -0.001 0.014
C7 0.04 0.06 0.027 0.007 0.003 0.021
C8 0.047 0.071 0.035 -0.004 0.004 0.025
C9 0.03 0.07 0.025 0.004 -0.006 0.002
Cd1 0.0408 0.0401 0.0296 0.0059 0.0074 0.0255
O1 0.052 0.066 0.045 0.012 0.012 0.035
O2 0.029 0.072 0.046 0.017 0.01 0.018
C10 0.041 0.048 0.03 -0.001 -0.004 0.018
N11 0.034 0.031 0.033 0.005 0.008 0.015
N8 0.037 0.026 0.035 0.008 0.009 0.016
C31 0.058 0.042 0.038 0.018 0.019 0.033
C32 0.084 0.064 0.035 0.025 0.027 0.06
C33 0.031 0.035 0.025 0.005 0.005 0.013
C34 0.033 0.034 0.037 0.014 0.016 0.01
C35 0.063 0.05 0.031 -0.005 -0.007 0.034
C36 0.096 0.055 0.021 -0.01 -0.017 0.054
C37 0.043 0.033 0.042 0.006 0.008 0.017
C38 0.066 0.059 0.044 0.027 0.018 0.043
C39 0.062 0.056 0.028 -0.001 0.004 0.049
C40 0.018 0.034 0.056 -0.005 -0.002 0.008
C21 0.034 0.058 0.058 -0.027 0.015 0.004
Cd2 0.0404 0.0453 0.0281 0.003 0.0045 0.0268
O5 0.053 0.076 0.018 0.002 0.012 0.006
O6 0.052 0.077 0.022 0 0.011 0.016
O7 0.065 0.065 0.026 0.001 -0.001 0.035
O8 0.082 0.052 0.039 0.026 0.023 0.055
N3 0.018 0.021 0.043 0.001 0.007 0.004
N4 0.027 0.034 0.024 0 0.001 0.014
C11 0.047 0.035 0.043 0.007 0.009 0.029
C12 0.057 0.033 0.036 0.003 0.005 0.019
C13 0.036 0.033 0.035 0.013 0.005 0.009
C14 0.022 0.02 0.053 0.003 0.015 0.012
C24 0.036 0.069 0.036 -0.004 0.011 0.023
C25 0.051 0.057 0.042 0.003 0.016 0.016
C26 0.039 0.069 0.049 0.003 0.014 0.017
C27 0.033 0.069 0.038 0.005 0.013 0.022
C28 0.092 0.082 0.039 -0.015 0.019 0.028
C29 0.082 0.085 0.063 -0.02 0.046 0.029
C30 0.042 0.051 0.026 0.003 0.014 0.023
N9 0.036 0.068 0.034 -0.009 0.005 0.023
C3 0.055 0.098 0.032 0.007 0.003 0.042
loop_
_geom_bond_atom_site_label_1
_geom_bond_atom_site_label_2
_geom_bond_site_symmetry_1
_geom_bond_site_symmetry_2
C16 C15 1_555 1_555
H12 C16 1_555 1_555
C17 C16 1_555 1_555
C18 C17 1_555 1_555
H13 C18 1_555 1_555
H14 C19 1_555 1_555
C20 O3 1_555 1_555
O4 C20 1_555 1_555
C17 C20 1_555 1_555
C18 C19 1_555 1_555
N6 C22 1_555 1_555
C23 N10 1_555 1_555
H17 C23 1_555 1_555
N6 C23 1_555 1_555
N2 C2 1_555 1_555
C1 H1 1_555 1_555
C2 C1 1_555 1_555
H2 C2 1_555 1_555
C4 N2 1_555 1_555
C5 C4 1_555 1_555
C6 C5 1_555 1_555
C7 C6 1_555 1_555
C8 C7 1_555 1_555
H6 C8 1_555 1_555
C9 C4 1_555 1_555
H7 C9 1_555 1_555
C8 C9 1_555 1_555
Cd1 O1 1_555 1_555
O1 C10 1_555 1_555
O2 Cd1 1_555 1_555
C10 O2 1_555 1_555
N11 Cd1 1_555 1_555
N11 C31 1_555 1_555
N8 C32 1_555 1_555
C31 H22 1_555 1_555
C32 C31 1_555 1_555
H23 C32 1_555 1_555
C33 N11 1_555 1_555
H24 C33 1_555 1_555
C34 N8 1_555 1_555
C35 C34 1_555 1_555
H25 C35 1_555 1_555
C36 C35 1_555 1_555
H26 C36 1_555 1_555
C37 C36 1_555 1_555
C38 C37 1_555 1_555
H27 C38 1_555 1_555
C39 C34 1_555 1_555
H28 C39 1_555 1_555
N8 C33 1_555 1_555
C37 C40 1_555 1_555
C38 C39 1_555 1_555
C21 H15 1_555 1_555
Cd2 O5 1_555 1_555
O5 C30 1_555 1_555
O6 Cd2 1_555 1_555
O7 Cd2 1_555 1_555
O8 Cd2 1_555 1_555
N3 Cd2 1_555 1_555
N4 C12 1_555 1_555
C11 N3 1_555 1_555
H8 C11 1_555 1_555
C12 C11 1_555 1_555
H9 C12 1_555 1_555
C13 N3 1_555 1_555
H10 C13 1_555 1_555
C14 N4 1_555 1_555
C25 C24 1_555 1_555
C26 C25 1_555 1_555
H19 C26 1_555 1_555
C27 C26 1_555 1_555
C28 C27 1_555 1_555
H20 C28 1_555 1_555
C29 C24 1_555 1_555
C30 O6 1_555 1_555
N9 Cd2 1_555 1_555
N4 C13 1_555 1_555
C27 C30 1_555 1_555
C28 C29 1_555 1_555
C3 N9 1_555 1_555
H3 C3 1_555 1_555

#END
