
###############################################################################
#
# This file contains modified crystal structure data generated from the
# MOF subset of the Cambridge Structural Database (CSD) v543 
# hosted by the Cambridge Crystallographic Data Centre (CCDC).
#
# This work is licensed under the Creative Commons
# Attribution-NonCommercial-ShareAlike 4.0 International License.
# To view a copy of this license, visit
# http://creativecommons.org/licenses/by-nc-sa/4.0/
# or send a letter to
# Creative Commons, PO Box 1866, Mountain View, CA 94042, USA.
#
# CIF created using the CSD Python API on 29 September 2022
# The structure has been converted into the P1 space group
# The structure has a 3D framework
# The original CSD entry NUYWOU is in the tetragonal crystal system
# The original CSD entry NUYWOU is in a Sohncke space group
# The framework has been calculated to contain at least 10.0% void space
# The void calculation uses a probe of radius 1.32A, grid spacing 0.4
#
###############################################################################

data_NUYWOU
_chemical_formula_moiety         '(C101 H77 Cd5 N21 O16)n'
_symmetry_cell_setting           triclinic
_symmetry_space_group_name_H-M   'P 1'
_symmetry_Int_Tables_number      1
_space_group_name_Hall           'P 1'
loop_
_symmetry_equiv_pos_site_id
_symmetry_equiv_pos_as_xyz
1 x,y,z
_cell_length_a                   14.865(5)
_cell_length_b                   14.865(5)
_cell_length_c                   13.139(4)
_cell_angle_alpha                90
_cell_angle_beta                 90
_cell_angle_gamma                90
_cell_volume                     2903.3
loop_
_atom_site_label
_atom_site_type_symbol
_atom_site_fract_x
_atom_site_fract_y
_atom_site_fract_z
O1 O 0.1406(5) 0.7180(5) 0.1013(5)
O2 O 0.2554(5) 0.6352(5) 0.1525(5)
C7 C 0.1775(6) 0.5911(6) 0.0016(8)
H6 H 0.2793 0.5062 0.0337
C10 C 0.1926(7) 0.6518(7) 0.0919(7)
Cd2 Cd 0.23053(5) 0.76947(5) 0.2500
N4 N 0.1558(6) 0.6801(5) 0.3628(6)
N6 N 0.0766(5) 0.6428(5) 0.4973(7)
C14 C 0.1570(7) 0.5864(7) 0.3739(7)
H11 H 0.1870 0.5465 0.3313
C15 C 0.1077(7) 0.5632(7) 0.4561(8)
H12 H 0.0969 0.5054 0.4801
C16 C 0.1073(7) 0.7113(6) 0.4388(7)
H13 H 0.0958 0.7718 0.4506
C17 C 0.0213(6) 0.6541(6) 0.5859(7)
C22 C 0.0384(7) 0.7237(8) 0.6522(8)
H17 H 0.0862 0.7628 0.6411
Cd1 Cd 0.73053(5) 0.73053(5) 1.0000
N3 N 0.6198(6) 0.6198(6) 1.0000
C13 C 0.4901(14) 0.4901(14) 1.0000
H10 H 0.4459 0.4459 1.0000
O3 O 0.7820(5) 0.6406(5) 0.8513(5)
O5 O 0.8648(5) 0.7554(5) 0.9025(5)
N5 N 0.6558(6) 0.8199(5) 0.8872(6)
C18 C 0.9499(7) 0.5960(7) 0.5998(8)
H14 H 0.9396 0.5496 0.5538
C19 C 0.8930(7) 0.6077(7) 0.6840(7)
H15 H 0.8449 0.5688 0.6944
C20 C 0.9089(6) 0.6775(6) 0.7516(8)
C21 C 0.9820(7) 0.7340(7) 0.7368(8)
H16 H 0.9938 0.7793 0.7837
C23 C 0.8482(7) 0.6926(7) 0.8419(7)
C24 C 0.6420(15) 0.5364(14) 0.975(2)
H18 H 0.7013 0.5245 0.9566
C25 C 0.5775(13) 0.4623(15) 0.974(2)
H19 H 0.5927 0.4032 0.9590
N1 N 0.3199(5) 0.8442(6) 0.1372(6)
N2 N 0.3572(5) 0.9234(5) 0.0027(7)
N3_2 N 0.1198(6) 0.8802(6) 0.2500
C1 C 0.4136(7) 0.8430(7) 0.1261(7)
H1 H 0.4535 0.8130 0.1687
C2 C 0.4368(7) 0.8923(7) 0.0439(8)
H2 H 0.4946 0.9031 0.0199
C3 C 0.2887(6) 0.8927(7) 0.0612(7)
H3 H 0.2282 0.9042 0.0494
C11 C 0.0364(14) 0.8580(15) 0.225(2)
H8 H 0.0245 0.7987 0.2066
O3_2 O 0.2820(5) 0.8594(5) 0.3987(5)
O5_2 O 0.3648(5) 0.7446(5) 0.3475(5)
N6_2 N 0.5766(5) 0.8572(5) 0.7527(7)
C14_2 C 0.6570(7) 0.9136(7) 0.8761(7)
H11_2 H 0.6870 0.9535 0.9187
C15_2 C 0.6077(7) 0.9368(7) 0.7939(8)
H12_2 H 0.5969 0.9946 0.7699
C16_2 C 0.6073(7) 0.7887(6) 0.8112(7)
H13_2 H 0.5958 0.7282 0.7994
C17_2 C 0.5213(6) 0.8459(6) 0.6641(7)
C18_2 C 0.4499(7) 0.9040(7) 0.6502(8)
H14_2 H 0.4396 0.9504 0.6962
C19_2 C 0.3930(7) 0.8923(7) 0.5660(7)
H15_2 H 0.3449 0.9312 0.5556
C20_2 C 0.4089(6) 0.8225(6) 0.4984(8)
C21_2 C 0.4820(7) 0.7660(7) 0.5132(8)
H16_2 H 0.4938 0.7207 0.4663
C22_2 C 0.5384(7) 0.7763(8) 0.5978(8)
H17_2 H 0.5862 0.7372 0.6089
C23_2 C 0.3482(7) 0.8074(7) 0.4081(7)
C24_2 C 0.1420(15) 0.9636(14) 0.275(2)
H18_2 H 0.2013 0.9755 0.2934
C12 C 0.9623(15) 0.9225(13) 0.224(2)
H9 H 0.9032 0.9073 0.2090
Cd1_2 Cd 0.26947(5) 0.26947(5) 0.5000
N1_2 N 0.1801(5) 0.3442(6) 0.6128(6)
N2_2 N 0.1428(5) 0.4234(5) 0.7473(7)
N3_3 N 0.3802(6) 0.3802(6) 0.5000
C1_2 C 0.0864(7) 0.3430(7) 0.6239(7)
H1_2 H 0.0465 0.3130 0.5813
C2_2 C 0.0632(7) 0.3923(7) 0.7061(8)
H2_2 H 0.0054 0.4031 0.7301
C3_2 C 0.2113(6) 0.3927(7) 0.6888(7)
H3_2 H 0.2718 0.4042 0.7006
C4 C 0.1541(6) 0.4787(6) 0.8359(7)
C5 C 0.0960(7) 0.5501(7) 0.8498(8)
H4 H 0.0496 0.5604 0.8038
C6 C 0.1077(7) 0.6070(7) 0.9340(7)
H5 H 0.0688 0.6551 0.9444
C8 C 0.2340(7) 0.5180(7) 0.9868(8)
C9 C 0.2237(8) 0.4616(7) 0.9022(8)
H7 H 0.2628 0.4138 0.8911
C11_2 C 0.4636(14) 0.3580(15) 0.525(2)
H8_2 H 0.4755 0.2987 0.5434
C12_2 C 0.5377(15) 0.4225(13) 0.526(2)
H9_2 H 0.5968 0.4073 0.5410
C13_2 C 0.5099(14) 0.5099(14) 0.5000
H10_2 H 0.5541 0.5541 0.5000
O3_3 O 0.2180(5) 0.3594(5) 0.3513(5)
O4 O 0.3594(5) 0.2180(5) 0.6487(5)
O5_3 O 0.1352(5) 0.2446(5) 0.4025(5)
O6 O 0.2446(5) 0.1352(5) 0.5975(5)
N5_2 N 0.3442(6) 0.1801(5) 0.3872(6)
C18_3 C 0.0501(7) 0.4040(7) 0.0998(8)
H14_3 H 0.0604 0.4504 0.0538
C19_3 C 0.1070(7) 0.3923(7) 0.1840(7)
H15_3 H 0.1551 0.4312 0.1944
C20_3 C 0.0911(6) 0.3225(6) 0.2516(8)
C21_3 C 0.0180(7) 0.2660(7) 0.2368(8)
H16_3 H 0.0062 0.2207 0.2837
C23_3 C 0.1518(7) 0.3074(7) 0.3419(7)
C24_3 C 0.3580(15) 0.4636(14) 0.475(2)
H18_3 H 0.2987 0.4755 0.4566
C25_2 C 0.4225(13) 0.5377(15) 0.474(2)
H19_2 H 0.4073 0.5968 0.4590
N6_3 N 0.4234(5) 0.1428(5) 0.2527(7)
C14_3 C 0.3430(7) 0.0864(7) 0.3761(7)
H11_3 H 0.3130 0.0465 0.4187
C15_3 C 0.3923(7) 0.0632(7) 0.2939(8)
H12_3 H 0.4031 0.0054 0.2699
C16_3 C 0.3927(7) 0.2113(6) 0.3112(7)
H13_3 H 0.4042 0.2718 0.2994
C17_3 C 0.4787(6) 0.1541(6) 0.1641(7)
C18_4 C 0.5501(7) 0.0960(7) 0.1502(8)
H14_4 H 0.5604 0.0496 0.1962
C19_4 C 0.6070(7) 0.1077(7) 0.0660(7)
H15_4 H 0.6551 0.0688 0.0556
C21_4 C 0.5180(7) 0.2340(7) 0.0132(8)
C22_3 C 0.4616(7) 0.2237(8) 0.0978(8)
H17_3 H 0.4138 0.2628 0.1089
C5_2 C 0.4040(7) 0.0501(7) 0.9002(8)
H4_2 H 0.4504 0.0604 0.9462
C6_2 C 0.3923(7) 0.1070(7) 0.8160(7)
H5_2 H 0.4312 0.1551 0.8056
C7_2 C 0.3225(6) 0.0911(6) 0.7484(8)
C8_2 C 0.2660(7) 0.0180(7) 0.7632(8)
H6_2 H 0.2207 0.0062 0.7163
C10_2 C 0.3074(7) 0.1518(7) 0.6581(7)
C17_4 C 0.9787(6) 0.3459(6) 0.0859(7)
C22_4 C 0.9616(7) 0.2763(8) 0.1522(8)
H17_4 H 0.9138 0.2372 0.1411
Cd3 Cd 0.76947(5) 0.23053(5) 0.7500
N4_2 N 0.8442(6) 0.3199(5) 0.8628(6)
N6_4 N 0.9234(5) 0.3572(5) 0.9973(7)
C14_4 C 0.8430(7) 0.4136(7) 0.8739(7)
H11_4 H 0.8130 0.4535 0.8313
C15_4 C 0.8923(7) 0.4368(7) 0.9561(8)
H12_4 H 0.9031 0.4946 0.9801
C16_4 C 0.8927(7) 0.2887(6) 0.9388(7)
H13_4 H 0.9042 0.2282 0.9506
Cd1_3 Cd 0.73053(5) 0.73053(5) 0.0000
O1_2 O 0.8594(5) 0.2820(5) 0.6013(5)
O2_2 O 0.7446(5) 0.3648(5) 0.6525(5)
N1_3 N 0.8199(5) 0.6558(6) 0.1128(6)
N2_3 N 0.8572(5) 0.5766(5) 0.2473(7)
N3_4 N 0.6198(6) 0.6198(6) 0.0000
C1_3 C 0.9136(7) 0.6570(7) 0.1239(7)
H1_3 H 0.9535 0.6870 0.0813
C2_3 C 0.9368(7) 0.6077(7) 0.2061(8)
H2_3 H 0.9946 0.5969 0.2301
C3_3 C 0.7887(6) 0.6073(7) 0.1888(7)
H3_3 H 0.7282 0.5958 0.2006
C4_2 C 0.8459(6) 0.5213(6) 0.3359(7)
C5_3 C 0.9040(7) 0.4499(7) 0.3498(8)
H4_3 H 0.9504 0.4396 0.3038
C6_3 C 0.8923(7) 0.3930(7) 0.4340(7)
H5_3 H 0.9312 0.3449 0.4444
C7_3 C 0.8225(6) 0.4089(6) 0.5016(8)
C8_3 C 0.7660(7) 0.4820(7) 0.4868(8)
H6_3 H 0.7207 0.4938 0.5337
C9_2 C 0.7763(8) 0.5384(7) 0.4022(8)
H7_2 H 0.7372 0.5862 0.3911
C10_3 C 0.8074(7) 0.3482(7) 0.5919(7)
C11_3 C 0.5364(14) 0.6420(15) 0.025(2)
H8_3 H 0.5245 0.7013 0.0434
C12_3 C 0.4623(15) 0.5775(13) 0.026(2)
H9_3 H 0.4032 0.5927 0.0410
C13_3 C 0.4901(14) 0.4901(14) 0.0000
H10_3 H 0.4459 0.4459 0.0000
O4_2 O 0.6406(5) 0.7820(5) 0.1487(5)
O6_2 O 0.7554(5) 0.8648(5) 0.0975(5)
N1_4 N 0.6801(5) 0.1558(6) 0.6372(6)
N2_4 N 0.6428(5) 0.0766(5) 0.5027(7)
N3_5 N 0.8802(6) 0.1198(6) 0.7500
C1_4 C 0.5864(7) 0.1570(7) 0.6261(7)
H1_4 H 0.5465 0.1870 0.6687
C2_4 C 0.5632(7) 0.1077(7) 0.5439(8)
H2_4 H 0.5054 0.0969 0.5199
C3_4 C 0.7113(6) 0.1073(7) 0.5612(7)
H3_4 H 0.7718 0.0958 0.5494
C4_3 C 0.6541(6) 0.0213(6) 0.4141(7)
C9_3 C 0.7237(8) 0.0384(7) 0.3478(8)
H7_3 H 0.7628 0.0862 0.3589
C11_4 C 0.9636(14) 0.1420(15) 0.725(2)
H8_4 H 0.9755 0.2013 0.7066
O3_4 O 0.7180(5) 0.1406(5) 0.8987(5)
O5_4 O 0.6352(5) 0.2554(5) 0.8475(5)
C20_4 C 0.5911(6) 0.1775(6) 0.9984(8)
H16_4 H 0.5062 0.2793 0.9663
C23_4 C 0.6518(7) 0.1926(7) 0.9081(7)
C24_4 C 0.8580(15) 0.0364(14) 0.775(2)
H18_4 H 0.7987 0.0245 0.7934
C5_4 C 0.5960(7) 0.9499(7) 0.4002(8)
H4_4 H 0.5496 0.9396 0.4462
C6_4 C 0.6077(7) 0.8930(7) 0.3160(7)
H5_4 H 0.5688 0.8449 0.3056
C7_4 C 0.6775(6) 0.9089(6) 0.2484(8)
C8_4 C 0.7340(7) 0.9820(7) 0.2632(8)
H6_4 H 0.7793 0.9938 0.2163
C10_4 C 0.6926(7) 0.8482(7) 0.1581(7)
C25_3 C 0.9225(13) 0.9623(15) 0.776(2)
H19_3 H 0.9073 0.9032 0.7910
C12_4 C 0.0377(15) 0.0775(13) 0.724(2)
H9_4 H 0.0968 0.0927 0.7090
C13_4 C 0.0099(14) 0.9901(14) 0.7500
H10_4 H 0.0541 0.9459 0.7500
C25_4 C 0.0775(13) 0.0377(15) 0.276(2)
H19_4 H 0.0927 0.0968 0.2910
C4_4 C 0.3459(6) 0.9787(6) 0.9141(7)
C9_4 C 0.2763(8) 0.9616(7) 0.8478(8)
H7_4 H 0.2372 0.9138 0.8589
C13_5 C 0.9901(14) 0.0099(14) 0.2500
H10_5 H 0.9459 0.0541 0.2500
loop_
_geom_bond_atom_site_label_1
_geom_bond_atom_site_label_2
_geom_bond_site_symmetry_1
_geom_bond_site_symmetry_2
O1 C10 1_555 1_555
O2 C10 1_555 1_555
C10 C7 1_555 1_555
Cd2 O1 1_555 1_555
O2 Cd2 1_555 1_555
Cd2 N4 1_555 1_555
N4 C14 1_555 1_555
N6 C15 1_555 1_555
C14 H11 1_555 1_555
C15 C14 1_555 1_555
H12 C15 1_555 1_555
C16 N4 1_555 1_555
H13 C16 1_555 1_555
C17 N6 1_555 1_555
C22 C17 1_555 1_555
H17 C22 1_555 1_555
N6 C16 1_555 1_555
N3 Cd1 1_555 1_555
H10 C13 1_555 1_555
O3 Cd1 1_555 1_555
O5 Cd1 1_555 1_555
N5 Cd1 1_555 1_555
H14 C18 1_555 1_555
C19 C18 1_555 1_555
H15 C19 1_555 1_555
C20 C19 1_555 1_555
C21 C20 1_555 1_555
H16 C21 1_555 1_555
C23 O3 1_555 1_555
C24 N3 1_555 1_555
H18 C24 1_555 1_555
C25 C13 1_555 1_555
H19 C25 1_555 1_555
O5 C23 1_555 1_555
C20 C23 1_555 1_555
C24 C25 1_555 1_555
Cd2 N1 1_555 1_555
N1 C1 1_555 1_555
N2 C2 1_555 1_555
N3_2 Cd2 1_555 1_555
C1 H1 1_555 1_555
C2 C1 1_555 1_555
H2 C2 1_555 1_555
C3 N1 1_555 1_555
H3 C3 1_555 1_555
C11 N3_2 1_555 1_555
H8 C11 1_555 1_555
O3_2 Cd2 1_555 1_555
O5_2 Cd2 1_555 1_555
N5 C14_2 1_555 1_555
N6_2 C15_2 1_555 1_555
C14_2 H11_2 1_555 1_555
C15_2 C14_2 1_555 1_555
H12_2 C15_2 1_555 1_555
C16_2 N5 1_555 1_555
H13_2 C16_2 1_555 1_555
C17_2 N6_2 1_555 1_555
C18_2 C17_2 1_555 1_555
H14_2 C18_2 1_555 1_555
C19_2 C18_2 1_555 1_555
H15_2 C19_2 1_555 1_555
C20_2 C19_2 1_555 1_555
C21_2 C20_2 1_555 1_555
H16_2 C21_2 1_555 1_555
C22_2 C17_2 1_555 1_555
H17_2 C22_2 1_555 1_555
C23_2 O3_2 1_555 1_555
C24_2 N3_2 1_555 1_555
H18_2 C24_2 1_555 1_555
N2 C3 1_555 1_555
O5_2 C23_2 1_555 1_555
N6_2 C16_2 1_555 1_555
C20_2 C23_2 1_555 1_555
C21_2 C22_2 1_555 1_555
H9 C12 1_555 1_555
Cd1_2 N1_2 1_555 1_555
N1_2 C1_2 1_555 1_555
N2_2 C2_2 1_555 1_555
N3_3 Cd1_2 1_555 1_555
C1_2 H1_2 1_555 1_555
C2_2 C1_2 1_555 1_555
H2_2 C2_2 1_555 1_555
C3_2 N1_2 1_555 1_555
H3_2 C3_2 1_555 1_555
C4 N2_2 1_555 1_555
C5 C4 1_555 1_555
H4 C5 1_555 1_555
C6 C5 1_555 1_555
H5 C6 1_555 1_555
C9 C4 1_555 1_555
H7 C9 1_555 1_555
C11_2 N3_3 1_555 1_555
H8_2 C11_2 1_555 1_555
C12_2 C11_2 1_555 1_555
H9_2 C12_2 1_555 1_555
C13_2 C12_2 1_555 1_555
H10_2 C13_2 1_555 1_555
O3_3 Cd1_2 1_555 1_555
O4 Cd1_2 1_555 1_555
O5_3 Cd1_2 1_555 1_555
O6 Cd1_2 1_555 1_555
N5_2 Cd1_2 1_555 1_555
H14_3 C18_3 1_555 1_555
C19_3 C18_3 1_555 1_555
H15_3 C19_3 1_555 1_555
C20_3 C19_3 1_555 1_555
C21_3 C20_3 1_555 1_555
H16_3 C21_3 1_555 1_555
C23_3 O3_3 1_555 1_555
C24_3 N3_3 1_555 1_555
H18_3 C24_3 1_555 1_555
C25_2 C13_2 1_555 1_555
H19_2 C25_2 1_555 1_555
N2_2 C3_2 1_555 1_555
C8 C9 1_555 1_555
O5_3 C23_3 1_555 1_555
C20_3 C23_3 1_555 1_555
C24_3 C25_2 1_555 1_555
N5_2 C14_3 1_555 1_555
N6_3 C15_3 1_555 1_555
C14_3 H11_3 1_555 1_555
C15_3 C14_3 1_555 1_555
H12_3 C15_3 1_555 1_555
C16_3 N5_2 1_555 1_555
H13_3 C16_3 1_555 1_555
C17_3 N6_3 1_555 1_555
C18_4 C17_3 1_555 1_555
H14_4 C18_4 1_555 1_555
C19_4 C18_4 1_555 1_555
H15_4 C19_4 1_555 1_555
C22_3 C17_3 1_555 1_555
H17_3 C22_3 1_555 1_555
N6_3 C16_3 1_555 1_555
C21_4 C22_3 1_555 1_555
O4 C10_2 1_555 1_555
O6 C10_2 1_555 1_555
H4_2 C5_2 1_555 1_555
C6_2 C5_2 1_555 1_555
H5_2 C6_2 1_555 1_555
C7_2 C6_2 1_555 1_555
C8_2 C7_2 1_555 1_555
H6_2 C8_2 1_555 1_555
C10_2 C7_2 1_555 1_555
C22_4 C17_4 1_555 1_555
H17_4 C22_4 1_555 1_555
Cd3 N4_2 1_555 1_555
N4_2 C14_4 1_555 1_555
N6_4 C15_4 1_555 1_555
C14_4 H11_4 1_555 1_555
C15_4 C14_4 1_555 1_555
H12_4 C15_4 1_555 1_555
C16_4 N4_2 1_555 1_555
H13_4 C16_4 1_555 1_555
N6_4 C16_4 1_555 1_555
Cd1_3 N1_3 1_555 1_555
O1_2 C10_3 1_555 1_555
O2_2 C10_3 1_555 1_555
N1_3 C1_3 1_555 1_555
N2_3 C2_3 1_555 1_555
N3_4 Cd1_3 1_555 1_555
C1_3 H1_3 1_555 1_555
C2_3 C1_3 1_555 1_555
H2_3 C2_3 1_555 1_555
C3_3 N1_3 1_555 1_555
H3_3 C3_3 1_555 1_555
C4_2 N2_3 1_555 1_555
C5_3 C4_2 1_555 1_555
H4_3 C5_3 1_555 1_555
C6_3 C5_3 1_555 1_555
H5_3 C6_3 1_555 1_555
C7_3 C6_3 1_555 1_555
C8_3 C7_3 1_555 1_555
H6_3 C8_3 1_555 1_555
C9_2 C4_2 1_555 1_555
H7_2 C9_2 1_555 1_555
C10_3 C7_3 1_555 1_555
C11_3 N3_4 1_555 1_555
H8_3 C11_3 1_555 1_555
C12_3 C11_3 1_555 1_555
H9_3 C12_3 1_555 1_555
C13_3 C12_3 1_555 1_555
H10_3 C13_3 1_555 1_555
Cd3 O1_2 1_555 1_555
O4_2 Cd1_3 1_555 1_555
O6_2 Cd1_3 1_555 1_555
O2_2 Cd3 1_555 1_555
N2_3 C3_3 1_555 1_555
C8_3 C9_2 1_555 1_555
Cd3 N1_4 1_555 1_555
N1_4 C1_4 1_555 1_555
N2_4 C2_4 1_555 1_555
N3_5 Cd3 1_555 1_555
C1_4 H1_4 1_555 1_555
C2_4 C1_4 1_555 1_555
H2_4 C2_4 1_555 1_555
C3_4 N1_4 1_555 1_555
H3_4 C3_4 1_555 1_555
C4_3 N2_4 1_555 1_555
C9_3 C4_3 1_555 1_555
H7_3 C9_3 1_555 1_555
C11_4 N3_5 1_555 1_555
H8_4 C11_4 1_555 1_555
O3_4 Cd3 1_555 1_555
O5_4 Cd3 1_555 1_555
C23_4 O3_4 1_555 1_555
C24_4 N3_5 1_555 1_555
H18_4 C24_4 1_555 1_555
N2_4 C3_4 1_555 1_555
O5_4 C23_4 1_555 1_555
C20_4 C23_4 1_555 1_555
O4_2 C10_4 1_555 1_555
O6_2 C10_4 1_555 1_555
H4_4 C5_4 1_555 1_555
C6_4 C5_4 1_555 1_555
H5_4 C6_4 1_555 1_555
C7_4 C6_4 1_555 1_555
C8_4 C7_4 1_555 1_555
H6_4 C8_4 1_555 1_555
C10_4 C7_4 1_555 1_555
H19_3 C25_3 1_555 1_555
H9_4 C12_4 1_555 1_555
H10_4 C13_4 1_555 1_555
H19_4 C25_4 1_555 1_555
C9_4 C4_4 1_555 1_555
H7_4 C9_4 1_555 1_555
H10_5 C13_5 1_555 1_555

#END
