
###############################################################################
#
# This file contains modified crystal structure data generated from the
# MOF subset of the Cambridge Structural Database (CSD) v543 
# hosted by the Cambridge Crystallographic Data Centre (CCDC).
#
# This work is licensed under the Creative Commons
# Attribution-NonCommercial-ShareAlike 4.0 International License.
# To view a copy of this license, visit
# http://creativecommons.org/licenses/by-nc-sa/4.0/
# or send a letter to
# Creative Commons, PO Box 1866, Mountain View, CA 94042, USA.
#
# CIF created using the CSD Python API on 29 September 2022
# The structure has been converted into the P1 space group
# The structure has a 3D framework
# The original CSD entry NUYXEL is in the monoclinic crystal system
# The framework has been calculated to contain at least 10.0% void space
# The void calculation uses a probe of radius 1.32A, grid spacing 0.4
#
###############################################################################

data_NUYXEL
_chemical_formula_moiety         '(C240 H176 Cd10 N48 O52)n'
_symmetry_cell_setting           triclinic
_symmetry_space_group_name_H-M   'P 1'
_symmetry_Int_Tables_number      1
_space_group_name_Hall           'P 1'
loop_
_symmetry_equiv_pos_site_id
_symmetry_equiv_pos_as_xyz
1 x,y,z
_cell_length_a                   11.063(4)
_cell_length_b                   18.938(5)
_cell_length_c                   29.918(2)
_cell_angle_alpha                90
_cell_angle_beta                 99.625(3)
_cell_angle_gamma                90
_cell_volume                     6179.92
loop_
_atom_site_label
_atom_site_type_symbol
_atom_site_fract_x
_atom_site_fract_y
_atom_site_fract_z
O11 O 0.0753(8) 0.6195(4) 0.5448(3)
O12 O 0.1855(8) 0.5905(4) 0.6079(3)
C56 C 0.1001(9) 0.7764(5) 0.6688(4)
H40 H 0.1448 0.7905 0.6965
C57 C 0.1343(10) 0.7170(5) 0.6477(4)
H41 H 0.2010 0.6905 0.6614
C58 C 0.0693(10) 0.6965(5) 0.6058(4)
C60 C 0.1112(11) 0.6310(5) 0.5852(4)
Cd7 Cd 0.23700(6) 0.52667(3) 0.54634(2)
Cd2 Cd 0.27156(7) 0.01864(3) 0.27228(2)
Cd3 Cd 0.76300(6) 0.02667(3) 0.95366(2)
O5 O 0.4248(6) 0.0586(3) 0.6174(2)
O6 O 0.5198(6) 0.0466(3) 0.5580(2)
O7 O 0.1053(6) 0.0323(3) 0.3147(2)
N3 N 0.6450(8) 0.3767(4) 0.4648(3)
N4 N 0.5493(7) 0.2958(4) 0.4991(3)
H1 H 0.4648 0.0004 0.9319
C11 C 0.5947(9) 0.3626(5) 0.5004(3)
H8 H 0.5905 0.3945 0.5238
C12 C 0.6308(9) 0.3163(5) 0.4383(3)
H9 H 0.6577 0.3109 0.4107
C13 C 0.5720(9) 0.2664(5) 0.4588(3)
H10 H 0.5508 0.2212 0.4480
C14 C 0.4856(9) 0.2634(5) 0.5312(3)
C15 C 0.5099(9) 0.1942(5) 0.5431(3)
H11 H 0.5707 0.1698 0.5314
C16 C 0.4438(9) 0.1608(5) 0.5723(3)
C17 C 0.3572(9) 0.1985(5) 0.5912(3)
H12 H 0.3158 0.1771 0.6122
C18 C 0.3331(9) 0.2677(5) 0.5788(3)
H13 H 0.2733 0.2924 0.5908
C19 C 0.3971(9) 0.3010(5) 0.5485(3)
H14 H 0.3805 0.3477 0.5401
C20 C 0.4640(9) 0.0844(5) 0.5832(3)
Cd8 Cd 0.76300(6) 0.47333(3) 0.45366(2)
O14 O 0.4982(8) 0.0705(3) 0.3161(2)
O17 O 0.1933(8) 0.1026(3) 0.2085(3)
O18 O 0.2710(7) 0.1385(3) 0.2774(2)
O19 O 0.9247(8) 0.1195(4) 0.9552(3)
O20 O 0.8145(8) 0.0905(4) 0.8921(3)
N13 N 0.6450(8) 0.1233(4) 0.9648(3)
Cd1 Cd 0.50278(7) 0.94736(3) 0.61111(2)
O1 O 0.5018(8) 0.9295(3) 0.6839(2)
O2 O 0.4494(7) 0.8242(4) 0.6542(2)
O8 O 0.2760(6) 0.9788(3) 0.3465(2)
O9 O 0.8067(8) 0.6026(3) 0.2915(3)
O10 O 0.7290(7) 0.6385(3) 0.2226(2)
N1 N 0.6125(8) 0.9719(4) 0.9026(3)
N2 N 0.4990(8) 0.9048(4) 0.8517(2)
N5 N 0.1322(8) 0.9385(4) 0.2366(3)
N7 N 0.4176(8) 0.9510(4) 0.2488(3)
N8 N 0.5806(8) 0.8842(4) 0.2522(3)
N9 N 0.1842(7) 0.9139(4) 0.5039(2)
N10 N 0.3330(7) 0.9109(4) 0.5627(3)
N11 N 0.6526(7) 0.8895(4) 0.5867(3)
N12 N 0.8239(7) 0.8300(4) 0.5891(2)
C1 C 0.4930(10) 0.9744(5) 0.9094(3)
C2 C 0.4215(10) 0.9332(5) 0.8782(3)
H2 H 0.3374 0.9259 0.8754
C3 C 0.6129(9) 0.9310(5) 0.8677(3)
H3 H 0.6824 0.9208 0.8552
C4 C 0.4642(9) 0.8594(5) 0.8128(3)
C5 C 0.4792(9) 0.8833(5) 0.7706(3)
H4 H 0.5113 0.9281 0.7674
C6 C 0.4465(9) 0.8407(5) 0.7331(3)
C7 C 0.3965(9) 0.7749(5) 0.7387(3)
H5 H 0.3734 0.7462 0.7134
C8 C 0.3800(9) 0.7508(5) 0.7811(3)
H6 H 0.3452 0.7067 0.7841
C9 C 0.4160(10) 0.7929(5) 0.8190(3)
H7 H 0.4080 0.7771 0.8478
C10 C 0.4662(9) 0.8657(5) 0.6866(3)
C28 C 0.0599(10) 0.9437(5) 0.1974(3)
H19 H 0.0704 0.9766 0.1752
C30 C 0.0856(10) 0.8837(5) 0.2587(3)
H21 H 0.1184 0.8673 0.2875
C31 C 0.4192(10) 0.9238(5) 0.2058(3)
H22 H 0.3616 0.9328 0.1800
C32 C 0.5200(10) 0.8816(5) 0.2078(3)
H23 H 0.5434 0.8562 0.1841
C33 C 0.5147(9) 0.9254(4) 0.2758(3)
H24 H 0.5345 0.9347 0.3067
C34 C 0.6808(9) 0.8406(5) 0.2724(3)
C35 C 0.6887(9) 0.7720(5) 0.2567(3)
H25 H 0.6351 0.7565 0.2312
C36 C 0.7772(9) 0.7269(5) 0.2792(3)
C37 C 0.8596(10) 0.7509(5) 0.3157(3)
H26 H 0.9187 0.7205 0.3309
C38 C 0.8544(10) 0.8198(5) 0.3295(3)
H27 H 0.9116 0.8361 0.3536
C39 C 0.7653(9) 0.8653(5) 0.3081(3)
H28 H 0.7625 0.9120 0.3176
C40 C 0.7732(9) 0.6514(5) 0.2636(3)
C41 C 0.1660(9) 0.9982(5) 0.3462(3)
C42 C 0.1051(9) 0.9791(5) 0.3865(3)
C46 C 0.1137(9) 0.9360(5) 0.4618(3)
C47 C 0.1735(9) 0.9535(5) 0.4259(3)
H32 H 0.2579 0.9480 0.4284
C48 C 0.2961(9) 0.9386(5) 0.5225(3)
H33 H 0.3410 0.9711 0.5086
C49 C 0.1486(10) 0.8675(5) 0.5353(3)
H34 H 0.0753 0.8426 0.5326
C50 C 0.2418(10) 0.8661(5) 0.5701(3)
H35 H 0.2440 0.8384 0.5959
C51 C 0.6762(9) 0.8814(5) 0.5430(3)
H36 H 0.6275 0.8987 0.5170
C52 C 0.7814(10) 0.8442(5) 0.5441(3)
H37 H 0.8174 0.8310 0.5194
C53 C 0.7441(9) 0.8578(4) 0.6132(3)
H38 H 0.7521 0.8552 0.6446
C54 C 0.9338(9) 0.7928(5) 0.6081(3)
C55 C 0.9986(9) 0.8157(5) 0.6489(3)
H39 H 0.9752 0.8562 0.6628
C59 C 0.9690(10) 0.7344(5) 0.5859(3)
H42 H 0.9254 0.7209 0.5579
O13 O 0.9127(10) 0.9470(5) 0.9437(4)
H43 H 0.980(8) 0.953(7) 0.961(4)
H44 H 0.875(7) 0.914(3) 0.954(3)
Cd4 Cd 0.72844(7) 0.98136(3) 0.72772(2)
Cd5 Cd 0.72844(7) 0.51864(3) 0.22772(2)
O3 O 0.3181(7) 0.4547(3) 0.4937(2)
O4 O 0.1531(7) 0.5127(4) 0.4635(2)
N6 N 0.0318(8) 0.3957(4) 0.3073(3)
C21 C 0.2326(10) 0.4662(5) 0.4615(3)
C22 C 0.2262(9) 0.4206(5) 0.4201(3)
C23 C 0.1363(9) 0.4309(5) 0.3824(3)
H15 H 0.0807 0.4677 0.3822
C24 C 0.1289(9) 0.3867(5) 0.3452(3)
C25 C 0.2110(9) 0.3330(5) 0.3445(3)
H16 H 0.2051 0.3033 0.3195
C26 C 0.3039(9) 0.3232(5) 0.3818(3)
H17 H 0.3612 0.2874 0.3814
C27 C 0.3108(9) 0.3664(5) 0.4191(3)
H18 H 0.3725 0.3593 0.4439
C29 C 0.0151(10) 0.3573(5) 0.2678(3)
H20 H 0.0637 0.3202 0.2608
C43 C 0.0230(9) 0.4858(5) 0.1178(3)
H29 H 0.0684 0.5038 0.1443
C44 C 0.0808(10) 0.4656(5) 0.0824(3)
H30 H 0.1656 0.4686 0.0854
C45 C 0.0130(9) 0.4411(5) 0.0426(3)
H31 H 0.0521 0.4279 0.0186
O7_2 O 0.8947(6) 0.5323(3) 0.1853(2)
O8_2 O 0.7240(6) 0.4788(3) 0.1535(2)
N3_2 N 0.3550(8) 0.8767(4) 0.0352(3)
N4_2 N 0.4507(7) 0.7958(4) 0.0009(3)
N5_2 N 0.8678(8) 0.4385(4) 0.2634(3)
N7_2 N 0.5824(8) 0.4510(4) 0.2512(3)
N8_2 N 0.4194(8) 0.3842(4) 0.2478(3)
C12_2 C 0.3692(9) 0.8163(5) 0.0617(3)
H9_2 H 0.3423 0.8109 0.0893
C13_2 C 0.4280(9) 0.7664(5) 0.0412(3)
H10_2 H 0.4492 0.7212 0.0520
C28_2 C 0.9401(10) 0.4437(5) 0.3026(3)
H19_2 H 0.9296 0.4766 0.3248
C30_2 C 0.9144(10) 0.3837(5) 0.2413(3)
H21_2 H 0.8816 0.3673 0.2125
C31_2 C 0.5808(10) 0.4238(5) 0.2942(3)
H22_2 H 0.6384 0.4328 0.3200
C32_2 C 0.4800(10) 0.3816(5) 0.2922(3)
H23_2 H 0.4566 0.3562 0.3159
C33_2 C 0.4853(9) 0.4254(4) 0.2242(3)
H24_2 H 0.4655 0.4347 0.1933
C34_2 C 0.3192(9) 0.3406(5) 0.2276(3)
C35_2 C 0.3113(9) 0.2720(5) 0.2433(3)
H25_2 H 0.3649 0.2565 0.2688
C36_2 C 0.2228(9) 0.2269(5) 0.2208(3)
C37_2 C 0.1404(10) 0.2509(5) 0.1843(3)
H26_2 H 0.0813 0.2205 0.1691
C38_2 C 0.1456(10) 0.3198(5) 0.1705(3)
H27_2 H 0.0884 0.3361 0.1464
C39_2 C 0.2347(9) 0.3653(5) 0.1919(3)
H28_2 H 0.2375 0.4120 0.1824
C40_2 C 0.2268(9) 0.1514(5) 0.2364(3)
C41_2 C 0.8340(9) 0.4982(5) 0.1538(3)
C42_2 C 0.8949(9) 0.4791(5) 0.1135(3)
C46_2 C 0.8863(9) 0.4360(5) 0.0382(3)
C47_2 C 0.8265(9) 0.4535(5) 0.0741(3)
H32_2 H 0.7421 0.4480 0.0716
Cd8_2 Cd 0.23700(6) 0.97333(3) 0.04634(2)
O14_2 O 0.5018(8) 0.5705(3) 0.1839(2)
Cd1_2 Cd 0.49722(7) 0.44736(3) 0.88889(2)
O1_2 O 0.4982(8) 0.4295(3) 0.8161(2)
O2_2 O 0.5506(7) 0.3242(4) 0.8458(2)
O5_2 O 0.5752(6) 0.5586(3) 0.8826(2)
O6_2 O 0.4802(6) 0.5466(3) 0.9420(2)
N1_2 N 0.3875(8) 0.4719(4) 0.5974(3)
N2_2 N 0.5010(8) 0.4048(4) 0.6483(2)
N9_2 N 0.8158(7) 0.4139(4) 0.9961(2)
N10_2 N 0.6670(7) 0.4109(4) 0.9373(3)
N11_2 N 0.3474(7) 0.3895(4) 0.9133(3)
N12_2 N 0.1761(7) 0.3300(4) 0.9109(2)
C1_2 C 0.5070(10) 0.4744(5) 0.5906(3)
H1_2 H 0.5352 0.5004 0.5681
C2_2 C 0.5785(10) 0.4332(5) 0.6218(3)
H2_2 H 0.6626 0.4259 0.6246
C3_2 C 0.3871(9) 0.4310(5) 0.6323(3)
H3_2 H 0.3176 0.4208 0.6448
C4_2 C 0.5358(9) 0.3594(5) 0.6872(3)
C5_2 C 0.5208(9) 0.3833(5) 0.7294(3)
H4_2 H 0.4887 0.4281 0.7326
C6_2 C 0.5535(9) 0.3407(5) 0.7669(3)
C7_2 C 0.6035(9) 0.2749(5) 0.7613(3)
H5_2 H 0.6266 0.2462 0.7866
C8_2 C 0.6200(9) 0.2508(5) 0.7189(3)
H6_2 H 0.6548 0.2067 0.7159
C9_2 C 0.5840(10) 0.2929(5) 0.6810(3)
H7_2 H 0.5920 0.2771 0.6522
C10_2 C 0.5338(9) 0.3657(5) 0.8134(3)
C11_2 C 0.4053(9) 0.8626(5) 0.9996(3)
H8_2 H 0.4095 0.8945 0.9762
C14_2 C 0.5144(9) 0.7634(5) 0.9688(3)
C15_2 C 0.4901(9) 0.6942(5) 0.9569(3)
H11_2 H 0.4293 0.6698 0.9686
C16_2 C 0.5562(9) 0.6608(5) 0.9277(3)
C17_2 C 0.6428(9) 0.6985(5) 0.9088(3)
H12_2 H 0.6842 0.6771 0.8878
C18_2 C 0.6669(9) 0.7677(5) 0.9212(3)
H13_2 H 0.7267 0.7924 0.9092
C19_2 C 0.6029(9) 0.8010(5) 0.9515(3)
H14_2 H 0.6195 0.8477 0.9599
C20_2 C 0.5360(9) 0.5844(5) 0.9168(3)
C48_2 C 0.7039(9) 0.4386(5) 0.9775(3)
H33_2 H 0.6590 0.4711 0.9914
C49_2 C 0.8514(10) 0.3675(5) 0.9647(3)
H34_2 H 0.9247 0.3426 0.9674
C50_2 C 0.7582(10) 0.3661(5) 0.9299(3)
H35_2 H 0.7560 0.3384 0.9041
C51_2 C 0.3238(9) 0.3814(5) 0.9570(3)
H36_2 H 0.3725 0.3987 0.9830
C52_2 C 0.2186(10) 0.3442(5) 0.9559(3)
H37_2 H 0.1826 0.3310 0.9806
C53_2 C 0.2559(9) 0.3578(4) 0.8868(3)
H38_2 H 0.2479 0.3552 0.8554
C54_2 C 0.0662(9) 0.2928(5) 0.8919(3)
C55_2 C 0.0014(9) 0.3157(5) 0.8511(3)
H39_2 H 0.0248 0.3562 0.8372
C59_2 C 0.0310(10) 0.2344(5) 0.9141(3)
H42_2 H 0.0746 0.2209 0.9421
O13_2 O 0.0873(10) 0.4470(5) 0.5563(4)
H43_2 H 0.020(8) 0.453(7) 0.539(4)
H44_2 H 0.125(7) 0.414(3) 0.546(3)
Cd4_2 Cd 0.27156(7) 0.48136(3) 0.77228(2)
N13_2 N 0.3550(8) 0.6233(4) 0.5352(3)
C56_2 C 0.8999(9) 0.2764(5) 0.8312(4)
H40_2 H 0.8552 0.2905 0.8035
C57_2 C 0.8657(10) 0.2170(5) 0.8523(4)
H41_2 H 0.7990 0.1905 0.8386
C58_2 C 0.9307(10) 0.1965(5) 0.8942(4)
C60_2 C 0.8888(11) 0.1310(5) 0.9148(4)
Cd1_3 Cd 0.49722(7) 0.05264(3) 0.38889(2)
O2_3 O 0.5506(7) 0.1758(4) 0.3458(2)
O8_3 O 0.7240(6) 0.0212(3) 0.6535(2)
O9_2 O 0.1933(8) 0.3974(3) 0.7085(3)
O10_2 O 0.2710(7) 0.3615(3) 0.7774(2)
N1_3 N 0.3875(8) 0.0281(4) 0.0974(3)
N2_3 N 0.5010(8) 0.0952(4) 0.1483(2)
N5_3 N 0.8678(8) 0.0615(4) 0.7634(3)
N7_3 N 0.5824(8) 0.0490(4) 0.7512(3)
N8_3 N 0.4194(8) 0.1158(4) 0.7478(3)
N9_3 N 0.8158(7) 0.0861(4) 0.4961(2)
N10_3 N 0.6670(7) 0.0891(4) 0.4373(3)
N11_3 N 0.3474(7) 0.1105(4) 0.4133(3)
N12_3 N 0.1761(7) 0.1700(4) 0.4109(2)
C1_3 C 0.5070(10) 0.0256(5) 0.0906(3)
C2_3 C 0.5785(10) 0.0668(5) 0.1218(3)
H2_3 H 0.6626 0.0741 0.1246
C3_3 C 0.3871(9) 0.0690(5) 0.1323(3)
H3_3 H 0.3176 0.0792 0.1448
C4_3 C 0.5358(9) 0.1406(5) 0.1872(3)
C5_3 C 0.5208(9) 0.1167(5) 0.2294(3)
H4_3 H 0.4887 0.0719 0.2326
C6_3 C 0.5535(9) 0.1593(5) 0.2669(3)
C7_3 C 0.6035(9) 0.2251(5) 0.2613(3)
H5_3 H 0.6266 0.2538 0.2866
C8_3 C 0.6200(9) 0.2492(5) 0.2189(3)
H6_3 H 0.6548 0.2933 0.2159
C9_3 C 0.5840(10) 0.2071(5) 0.1810(3)
H7_3 H 0.5920 0.2229 0.1522
C10_3 C 0.5338(9) 0.1343(5) 0.3134(3)
C28_3 C 0.9401(10) 0.0563(5) 0.8026(3)
H19_3 H 0.9296 0.0234 0.8248
C30_3 C 0.9144(10) 0.1163(5) 0.7413(3)
H21_3 H 0.8816 0.1327 0.7125
C31_3 C 0.5808(10) 0.0762(5) 0.7942(3)
H22_3 H 0.6384 0.0672 0.8200
C32_3 C 0.4800(10) 0.1184(5) 0.7922(3)
H23_3 H 0.4566 0.1438 0.8159
C33_3 C 0.4853(9) 0.0746(4) 0.7242(3)
H24_3 H 0.4655 0.0653 0.6933
C34_3 C 0.3192(9) 0.1594(5) 0.7276(3)
C35_3 C 0.3113(9) 0.2280(5) 0.7433(3)
H25_3 H 0.3649 0.2435 0.7688
C36_3 C 0.2228(9) 0.2731(5) 0.7208(3)
C37_3 C 0.1404(10) 0.2491(5) 0.6843(3)
H26_3 H 0.0813 0.2795 0.6691
C38_3 C 0.1456(10) 0.1802(5) 0.6705(3)
H27_3 H 0.0884 0.1639 0.6464
C39_3 C 0.2347(9) 0.1347(5) 0.6919(3)
H28_3 H 0.2375 0.0880 0.6824
C40_3 C 0.2268(9) 0.3486(5) 0.7364(3)
C41_3 C 0.8340(9) 0.0018(5) 0.6538(3)
C42_3 C 0.8949(9) 0.0209(5) 0.6135(3)
C46_3 C 0.8863(9) 0.0640(5) 0.5382(3)
C47_3 C 0.8265(9) 0.0465(5) 0.5741(3)
H32_3 H 0.7421 0.0520 0.5716
C48_3 C 0.7039(9) 0.0614(5) 0.4775(3)
H33_3 H 0.6590 0.0289 0.4914
C49_3 C 0.8514(10) 0.1325(5) 0.4647(3)
H34_3 H 0.9247 0.1574 0.4674
C50_3 C 0.7582(10) 0.1339(5) 0.4299(3)
H35_3 H 0.7560 0.1616 0.4041
C51_3 C 0.3238(9) 0.1186(5) 0.4570(3)
H36_3 H 0.3725 0.1013 0.4830
C52_3 C 0.2186(10) 0.1558(5) 0.4559(3)
H37_3 H 0.1826 0.1690 0.4806
C53_3 C 0.2559(9) 0.1422(4) 0.3868(3)
H38_3 H 0.2479 0.1448 0.3554
C54_3 C 0.0662(9) 0.2072(5) 0.3919(3)
C55_3 C 0.0014(9) 0.1843(5) 0.3511(3)
H39_3 H 0.0248 0.1438 0.3372
C59_3 C 0.0310(10) 0.2656(5) 0.4141(3)
H42_3 H 0.0746 0.2791 0.4421
O13_3 O 0.0873(10) 0.0530(5) 0.0563(4)
H43_3 H 0.020(8) 0.047(7) 0.039(4)
H44_3 H 0.125(7) 0.086(3) 0.046(3)
O5_3 O 0.5752(6) 0.9414(3) 0.3826(2)
O6_3 O 0.4802(6) 0.9534(3) 0.4420(2)
O7_3 O 0.8947(6) 0.9677(3) 0.6853(2)
N4_3 N 0.4507(7) 0.7042(4) 0.5009(3)
H1_3 H 0.5352 0.9996 0.0681
C11_3 C 0.4053(9) 0.6374(5) 0.4996(3)
H8_3 H 0.4095 0.6055 0.4762
C12_3 C 0.3692(9) 0.6837(5) 0.5617(3)
H9_3 H 0.3423 0.6891 0.5893
C13_3 C 0.4280(9) 0.7336(5) 0.5412(3)
H10_3 H 0.4492 0.7788 0.5520
C14_3 C 0.5144(9) 0.7366(5) 0.4688(3)
C15_3 C 0.4901(9) 0.8058(5) 0.4569(3)
H11_3 H 0.4293 0.8302 0.4686
C16_3 C 0.5562(9) 0.8392(5) 0.4277(3)
C17_3 C 0.6428(9) 0.8015(5) 0.4088(3)
H12_3 H 0.6842 0.8229 0.3878
C18_3 C 0.6669(9) 0.7323(5) 0.4212(3)
H13_3 H 0.7267 0.7076 0.4092
C19_3 C 0.6029(9) 0.6990(5) 0.4515(3)
H14_3 H 0.6195 0.6523 0.4599
C20_3 C 0.5360(9) 0.9156(5) 0.4168(3)
O17_2 O 0.8067(8) 0.8974(3) 0.7915(3)
O18_2 O 0.7290(7) 0.8615(3) 0.7226(2)
O19_2 O 0.0753(8) 0.8805(4) 0.0448(3)
O20_2 O 0.1855(8) 0.9095(4) 0.1079(3)
O11_2 O 0.9247(8) 0.3805(4) 0.4552(3)
O12_2 O 0.8145(8) 0.4095(4) 0.3921(3)
C56_3 C 0.8999(9) 0.2236(5) 0.3312(4)
H40_3 H 0.8552 0.2095 0.3035
C57_3 C 0.8657(10) 0.2830(5) 0.3523(4)
H41_3 H 0.7990 0.3095 0.3386
C58_3 C 0.9307(10) 0.3035(5) 0.3942(4)
C60_3 C 0.8888(11) 0.3690(5) 0.4148(4)
C56_4 C 0.1001(9) 0.7236(5) 0.1688(4)
H40_4 H 0.1448 0.7095 0.1965
C57_4 C 0.1343(10) 0.7830(5) 0.1477(4)
H41_4 H 0.2010 0.8095 0.1614
C58_4 C 0.0693(10) 0.8035(5) 0.1058(4)
C60_4 C 0.1112(11) 0.8690(5) 0.0852(4)
Cd1_4 Cd 0.50278(7) 0.55264(3) 0.11111(2)
O2_4 O 0.4494(7) 0.6758(4) 0.1542(2)
O5_4 O 0.4248(6) 0.4414(3) 0.1174(2)
O6_4 O 0.5198(6) 0.4534(3) 0.0580(2)
N1_4 N 0.6125(8) 0.5281(4) 0.4026(3)
N2_4 N 0.4990(8) 0.5952(4) 0.3517(2)
N9_4 N 0.1842(7) 0.5861(4) 0.0039(2)
N10_4 N 0.3330(7) 0.5891(4) 0.0627(3)
N11_4 N 0.6526(7) 0.6105(4) 0.0867(3)
N12_4 N 0.8239(7) 0.6700(4) 0.0891(2)
C1_4 C 0.4930(10) 0.5256(5) 0.4094(3)
H1_4 H 0.4648 0.4996 0.4319
C2_4 C 0.4215(10) 0.5668(5) 0.3782(3)
H2_4 H 0.3374 0.5741 0.3754
C3_4 C 0.6129(9) 0.5690(5) 0.3677(3)
H3_4 H 0.6824 0.5792 0.3552
C4_4 C 0.4642(9) 0.6406(5) 0.3128(3)
C5_4 C 0.4792(9) 0.6167(5) 0.2706(3)
H4_4 H 0.5113 0.5719 0.2674
C6_4 C 0.4465(9) 0.6593(5) 0.2331(3)
C7_4 C 0.3965(9) 0.7251(5) 0.2387(3)
H5_4 H 0.3734 0.7538 0.2134
C8_4 C 0.3800(9) 0.7492(5) 0.2811(3)
H6_4 H 0.3452 0.7933 0.2841
C9_4 C 0.4160(10) 0.7071(5) 0.3190(3)
H7_4 H 0.4080 0.7229 0.3478
C10_4 C 0.4662(9) 0.6343(5) 0.1866(3)
C11_4 C 0.5947(9) 0.1374(5) 0.0004(3)
H8_4 H 0.5905 0.1055 0.0238
C14_4 C 0.4856(9) 0.2366(5) 0.0312(3)
C15_4 C 0.5099(9) 0.3058(5) 0.0431(3)
H11_4 H 0.5707 0.3302 0.0314
C16_4 C 0.4438(9) 0.3392(5) 0.0723(3)
C17_4 C 0.3572(9) 0.3015(5) 0.0912(3)
H12_4 H 0.3158 0.3229 0.1122
C18_4 C 0.3331(9) 0.2323(5) 0.0788(3)
H13_4 H 0.2733 0.2076 0.0908
C19_4 C 0.3971(9) 0.1990(5) 0.0485(3)
H14_4 H 0.3805 0.1523 0.0401
C20_4 C 0.4640(9) 0.4156(5) 0.0832(3)
C48_4 C 0.2961(9) 0.5614(5) 0.0225(3)
H33_4 H 0.3410 0.5289 0.0086
C49_4 C 0.1486(10) 0.6325(5) 0.0353(3)
H34_4 H 0.0753 0.6574 0.0326
C50_4 C 0.2418(10) 0.6339(5) 0.0701(3)
H35_4 H 0.2440 0.6616 0.0959
C51_4 C 0.6762(9) 0.6186(5) 0.0430(3)
H36_4 H 0.6275 0.6013 0.0170
C52_4 C 0.7814(10) 0.6558(5) 0.0441(3)
H37_4 H 0.8174 0.6690 0.0194
C53_4 C 0.7441(9) 0.6422(4) 0.1132(3)
H38_4 H 0.7521 0.6448 0.1446
C54_4 C 0.9338(9) 0.7072(5) 0.1081(3)
C55_4 C 0.9986(9) 0.6843(5) 0.1489(3)
H39_4 H 0.9752 0.6438 0.1628
C59_4 C 0.9690(10) 0.7656(5) 0.0859(3)
H42_4 H 0.9254 0.7791 0.0579
O13_4 O 0.9127(10) 0.5530(5) 0.4437(4)
H43_4 H 0.980(8) 0.547(7) 0.461(4)
H44_4 H 0.875(7) 0.586(3) 0.454(3)
O15 O 0.6819(7) 0.5453(3) 0.5063(2)
O16 O 0.8469(7) 0.4873(4) 0.5365(2)
O7_4 O 0.1053(6) 0.4677(3) 0.8147(2)
O8_4 O 0.2760(6) 0.5212(3) 0.8465(2)
N4_4 N 0.5493(7) 0.2042(4) 0.9991(3)
N5_4 N 0.1322(8) 0.5615(4) 0.7366(3)
N7_4 N 0.4176(8) 0.5490(4) 0.7488(3)
N8_4 N 0.5806(8) 0.6158(4) 0.7522(3)
C12_4 C 0.6308(9) 0.1837(5) 0.9383(3)
H9_4 H 0.6577 0.1891 0.9107
C13_4 C 0.5720(9) 0.2336(5) 0.9588(3)
H10_4 H 0.5508 0.2788 0.9480
C28_4 C 0.0599(10) 0.5563(5) 0.6974(3)
H19_4 H 0.0704 0.5234 0.6752
C30_4 C 0.0856(10) 0.6163(5) 0.7587(3)
H21_4 H 0.1184 0.6327 0.7875
C31_4 C 0.4192(10) 0.5762(5) 0.7058(3)
H22_4 H 0.3616 0.5672 0.6800
C32_4 C 0.5200(10) 0.6184(5) 0.7078(3)
H23_4 H 0.5434 0.6438 0.6841
C33_4 C 0.5147(9) 0.5746(4) 0.7758(3)
H24_4 H 0.5345 0.5653 0.8067
C34_4 C 0.6808(9) 0.6594(5) 0.7724(3)
C35_4 C 0.6887(9) 0.7280(5) 0.7567(3)
H25_4 H 0.6351 0.7435 0.7312
C36_4 C 0.7772(9) 0.7731(5) 0.7792(3)
C37_4 C 0.8596(10) 0.7491(5) 0.8157(3)
H26_4 H 0.9187 0.7795 0.8309
C38_4 C 0.8544(10) 0.6802(5) 0.8295(3)
H27_4 H 0.9116 0.6639 0.8536
C39_4 C 0.7653(9) 0.6347(5) 0.8081(3)
H28_4 H 0.7625 0.5880 0.8176
C40_4 C 0.7732(9) 0.8486(5) 0.7636(3)
C41_4 C 0.1660(9) 0.5018(5) 0.8462(3)
C42_4 C 0.1051(9) 0.5209(5) 0.8865(3)
C46_4 C 0.1137(9) 0.5640(5) 0.9618(3)
C47_4 C 0.1735(9) 0.5465(5) 0.9259(3)
H32_4 H 0.2579 0.5520 0.9284
N6_2 N 0.9682(8) 0.6043(4) 0.6927(3)
C21_2 C 0.7674(10) 0.5338(5) 0.5385(3)
C22_2 C 0.7738(9) 0.5794(5) 0.5799(3)
C23_2 C 0.8637(9) 0.5691(5) 0.6176(3)
H15_2 H 0.9193 0.5323 0.6178
C24_2 C 0.8711(9) 0.6133(5) 0.6548(3)
C25_2 C 0.7890(9) 0.6670(5) 0.6555(3)
H16_2 H 0.7949 0.6967 0.6805
C26_2 C 0.6961(9) 0.6768(5) 0.6182(3)
H17_2 H 0.6388 0.7126 0.6186
C27_2 C 0.6892(9) 0.6336(5) 0.5809(3)
H18_2 H 0.6275 0.6407 0.5561
C29_2 C 0.9849(10) 0.6427(5) 0.7322(3)
H20_2 H 0.9363 0.6798 0.7392
C43_2 C 0.9770(9) 0.5142(5) 0.8822(3)
H29_2 H 0.9316 0.4962 0.8557
C44_2 C 0.9192(10) 0.5344(5) 0.9176(3)
H30_2 H 0.8344 0.5314 0.9146
C45_2 C 0.9870(9) 0.5589(5) 0.9574(3)
H31_2 H 0.9479 0.5721 0.9814
O16_2 O 0.8469(7) 0.0127(4) 0.0365(2)
H29_3 H 0.9316 0.0038 0.3557
O15_2 O 0.6819(7) 0.9547(3) 0.0063(2)
N6_3 N 0.9682(8) 0.8957(4) 0.1927(3)
C21_3 C 0.7674(10) 0.9662(5) 0.0385(3)
C22_3 C 0.7738(9) 0.9206(5) 0.0799(3)
C23_3 C 0.8637(9) 0.9309(5) 0.1176(3)
H15_3 H 0.9193 0.9677 0.1178
C24_3 C 0.8711(9) 0.8867(5) 0.1548(3)
C25_3 C 0.7890(9) 0.8330(5) 0.1555(3)
H16_3 H 0.7949 0.8033 0.1805
C26_3 C 0.6961(9) 0.8232(5) 0.1182(3)
H17_3 H 0.6388 0.7874 0.1186
C27_3 C 0.6892(9) 0.8664(5) 0.0809(3)
H18_3 H 0.6275 0.8593 0.0561
C29_3 C 0.9849(10) 0.8573(5) 0.2322(3)
H20_3 H 0.9363 0.8202 0.2392
C43_3 C 0.9770(9) 0.9858(5) 0.3822(3)
C44_3 C 0.9192(10) 0.9656(5) 0.4176(3)
H30_3 H 0.8344 0.9686 0.4146
C45_3 C 0.9870(9) 0.9411(5) 0.4574(3)
H31_3 H 0.9479 0.9279 0.4814
O3_2 O 0.3181(7) 0.0453(3) 0.9937(2)
N6_4 N 0.0318(8) 0.1043(4) 0.8073(3)
C21_4 C 0.2326(10) 0.0338(5) 0.9615(3)
C22_4 C 0.2262(9) 0.0794(5) 0.9201(3)
C23_4 C 0.1363(9) 0.0691(5) 0.8824(3)
H15_4 H 0.0807 0.0323 0.8822
C24_4 C 0.1289(9) 0.1133(5) 0.8452(3)
C25_4 C 0.2110(9) 0.1670(5) 0.8445(3)
H16_4 H 0.2051 0.1967 0.8195
C26_4 C 0.3039(9) 0.1768(5) 0.8818(3)
H17_4 H 0.3612 0.2126 0.8814
C27_4 C 0.3108(9) 0.1336(5) 0.9191(3)
H18_4 H 0.3725 0.1407 0.9439
C29_4 C 0.0151(10) 0.1427(5) 0.7678(3)
H20_4 H 0.0637 0.1798 0.7608
C43_4 C 0.0230(9) 0.0142(5) 0.6178(3)
C44_4 C 0.0808(10) 0.0344(5) 0.5824(3)
H30_4 H 0.1656 0.0314 0.5854
C45_4 C 0.0130(9) 0.0589(5) 0.5426(3)
H31_4 H 0.0521 0.0721 0.5186
O4_2 O 0.1531(7) 0.9873(4) 0.9635(2)
H29_4 H 0.0684 0.9962 0.6443
loop_
_geom_bond_atom_site_label_1
_geom_bond_atom_site_label_2
_geom_bond_site_symmetry_1
_geom_bond_site_symmetry_2
O11 C60 1_555 1_555
O12 C60 1_555 1_555
H40 C56 1_555 1_555
C57 C56 1_555 1_555
H41 C57 1_555 1_555
C58 C57 1_555 1_555
C60 C58 1_555 1_555
Cd7 O11 1_555 1_555
O12 Cd7 1_555 1_555
Cd2 O7 1_555 1_555
N3 C11 1_555 1_555
N4 C11 1_555 1_555
C11 H8 1_555 1_555
C12 N3 1_555 1_555
H9 C12 1_555 1_555
C13 N4 1_555 1_555
H10 C13 1_555 1_555
C14 N4 1_555 1_555
C15 C14 1_555 1_555
H11 C15 1_555 1_555
C16 C15 1_555 1_555
C17 C16 1_555 1_555
H12 C17 1_555 1_555
C18 C17 1_555 1_555
H13 C18 1_555 1_555
C19 C14 1_555 1_555
H14 C19 1_555 1_555
C20 O5 1_555 1_555
Cd8 N3 1_555 1_555
O14 Cd2 1_555 1_555
O17 Cd2 1_555 1_555
O18 Cd2 1_555 1_555
O19 Cd3 1_555 1_555
O20 Cd3 1_555 1_555
N13 Cd3 1_555 1_555
O6 C20 1_555 1_555
C12 C13 1_555 1_555
C16 C20 1_555 1_555
C18 C19 1_555 1_555
Cd1 O1 1_555 1_555
O1 C10 1_555 1_555
O2 Cd1 1_555 1_555
O9 C40 1_555 1_555
O10 C40 1_555 1_555
N1 C1 1_555 1_555
N2 C2 1_555 1_555
N8 C32 1_555 1_555
N9 C46 1_555 1_555
N10 Cd1 1_555 1_555
N11 Cd1 1_555 1_555
N12 C52 1_555 1_555
C2 C1 1_555 1_555
H2 C2 1_555 1_555
C3 N1 1_555 1_555
H3 C3 1_555 1_555
C4 N2 1_555 1_555
C5 C4 1_555 1_555
H4 C5 1_555 1_555
C6 C5 1_555 1_555
C7 C6 1_555 1_555
H5 C7 1_555 1_555
C8 C7 1_555 1_555
H6 C8 1_555 1_555
C9 C4 1_555 1_555
H7 C9 1_555 1_555
C10 O2 1_555 1_555
C28 N5 1_555 1_555
H19 C28 1_555 1_555
C30 N5 1_555 1_555
H21 C30 1_555 1_555
C31 N7 1_555 1_555
H22 C31 1_555 1_555
C32 C31 1_555 1_555
H23 C32 1_555 1_555
C33 N7 1_555 1_555
H24 C33 1_555 1_555
C34 N8 1_555 1_555
C35 C34 1_555 1_555
H25 C35 1_555 1_555
C36 C35 1_555 1_555
C37 C36 1_555 1_555
H26 C37 1_555 1_555
C38 C37 1_555 1_555
H27 C38 1_555 1_555
C39 C34 1_555 1_555
H28 C39 1_555 1_555
C40 C36 1_555 1_555
C41 O8 1_555 1_555
C42 C41 1_555 1_555
C47 C42 1_555 1_555
H32 C47 1_555 1_555
C48 N9 1_555 1_555
H33 C48 1_555 1_555
C49 N9 1_555 1_555
H34 C49 1_555 1_555
C50 N10 1_555 1_555
H35 C50 1_555 1_555
C51 N11 1_555 1_555
H36 C51 1_555 1_555
C52 C51 1_555 1_555
H37 C52 1_555 1_555
C53 N11 1_555 1_555
H38 C53 1_555 1_555
C54 N12 1_555 1_555
C55 C54 1_555 1_555
H39 C55 1_555 1_555
C59 C54 1_555 1_555
H42 C59 1_555 1_555
H43 O13 1_555 1_555
H44 O13 1_555 1_555
Cd4 O1 1_555 1_555
Cd5 O9 1_555 1_555
O10 Cd5 1_555 1_555
N2 C3 1_555 1_555
N8 C33 1_555 1_555
N10 C48 1_555 1_555
N12 C53 1_555 1_555
C6 C10 1_555 1_555
C8 C9 1_555 1_555
C38 C39 1_555 1_555
C46 C47 1_555 1_555
C49 C50 1_555 1_555
O3 C21 1_555 1_555
O4 C21 1_555 1_555
N6 C24 1_555 1_555
C21 C22 1_555 1_555
C22 C23 1_555 1_555
C23 H15 1_555 1_555
C24 C23 1_555 1_555
C25 C24 1_555 1_555
H16 C25 1_555 1_555
C26 C25 1_555 1_555
H17 C26 1_555 1_555
C27 C22 1_555 1_555
H18 C27 1_555 1_555
C29 N6 1_555 1_555
H20 C29 1_555 1_555
H29 C43 1_555 1_555
C44 C43 1_555 1_555
H30 C44 1_555 1_555
C45 C44 1_555 1_555
H31 C45 1_555 1_555
Cd7 O3 1_555 1_555
O4 Cd7 1_555 1_555
C26 C27 1_555 1_555
Cd5 O7_2 1_555 1_555
O7_2 C41_2 1_555 1_555
O8_2 Cd5 1_555 1_555
O17 C40_2 1_555 1_555
O18 C40_2 1_555 1_555
N5_2 Cd5 1_555 1_555
N7_2 Cd5 1_555 1_555
N8_2 C32_2 1_555 1_555
C12_2 N3_2 1_555 1_555
H9_2 C12_2 1_555 1_555
C13_2 N4_2 1_555 1_555
H10_2 C13_2 1_555 1_555
C28_2 N5_2 1_555 1_555
H19_2 C28_2 1_555 1_555
C30_2 N5_2 1_555 1_555
H21_2 C30_2 1_555 1_555
C31_2 N7_2 1_555 1_555
H22_2 C31_2 1_555 1_555
C32_2 C31_2 1_555 1_555
H23_2 C32_2 1_555 1_555
C33_2 N7_2 1_555 1_555
H24_2 C33_2 1_555 1_555
C34_2 N8_2 1_555 1_555
C35_2 C34_2 1_555 1_555
H25_2 C35_2 1_555 1_555
C36_2 C35_2 1_555 1_555
C37_2 C36_2 1_555 1_555
H26_2 C37_2 1_555 1_555
C38_2 C37_2 1_555 1_555
H27_2 C38_2 1_555 1_555
C39_2 C34_2 1_555 1_555
H28_2 C39_2 1_555 1_555
C40_2 C36_2 1_555 1_555
C41_2 O8_2 1_555 1_555
C42_2 C41_2 1_555 1_555
C47_2 C42_2 1_555 1_555
H32_2 C47_2 1_555 1_555
Cd8_2 N3_2 1_555 1_555
O14_2 Cd5 1_555 1_555
N8_2 C33_2 1_555 1_555
C12_2 C13_2 1_555 1_555
C38_2 C39_2 1_555 1_555
C46_2 C47_2 1_555 1_555
Cd1_2 O1_2 1_555 1_555
Cd7 N1_2 1_555 1_555
O1_2 C10_2 1_555 1_555
O2_2 Cd1_2 1_555 1_555
O5_2 Cd1_2 1_555 1_555
O6_2 Cd1_2 1_555 1_555
N1_2 C1_2 1_555 1_555
N2_2 C2_2 1_555 1_555
N10_2 Cd1_2 1_555 1_555
N11_2 Cd1_2 1_555 1_555
N12_2 C52_2 1_555 1_555
C1_2 H1_2 1_555 1_555
C2_2 C1_2 1_555 1_555
H2_2 C2_2 1_555 1_555
C3_2 N1_2 1_555 1_555
H3_2 C3_2 1_555 1_555
C4_2 N2_2 1_555 1_555
C5_2 C4_2 1_555 1_555
H4_2 C5_2 1_555 1_555
C6_2 C5_2 1_555 1_555
C7_2 C6_2 1_555 1_555
H5_2 C7_2 1_555 1_555
C8_2 C7_2 1_555 1_555
H6_2 C8_2 1_555 1_555
C9_2 C4_2 1_555 1_555
H7_2 C9_2 1_555 1_555
C10_2 O2_2 1_555 1_555
C11_2 H8_2 1_555 1_555
C15_2 C14_2 1_555 1_555
H11_2 C15_2 1_555 1_555
C16_2 C15_2 1_555 1_555
C17_2 C16_2 1_555 1_555
H12_2 C17_2 1_555 1_555
C18_2 C17_2 1_555 1_555
H13_2 C18_2 1_555 1_555
C19_2 C14_2 1_555 1_555
H14_2 C19_2 1_555 1_555
C20_2 O5_2 1_555 1_555
C48_2 N9_2 1_555 1_555
H33_2 C48_2 1_555 1_555
C49_2 N9_2 1_555 1_555
H34_2 C49_2 1_555 1_555
C50_2 N10_2 1_555 1_555
H35_2 C50_2 1_555 1_555
C51_2 N11_2 1_555 1_555
H36_2 C51_2 1_555 1_555
C52_2 C51_2 1_555 1_555
H37_2 C52_2 1_555 1_555
C53_2 N11_2 1_555 1_555
H38_2 C53_2 1_555 1_555
C54_2 N12_2 1_555 1_555
C55_2 C54_2 1_555 1_555
H39_2 C55_2 1_555 1_555
C59_2 C54_2 1_555 1_555
H42_2 C59_2 1_555 1_555
O13_2 Cd7 1_555 1_555
H43_2 O13_2 1_555 1_555
H44_2 O13_2 1_555 1_555
Cd4_2 O1_2 1_555 1_555
N13_2 Cd7 1_555 1_555
O6_2 C20_2 1_555 1_555
N2_2 C3_2 1_555 1_555
N10_2 C48_2 1_555 1_555
N12_2 C53_2 1_555 1_555
C6_2 C10_2 1_555 1_555
C8_2 C9_2 1_555 1_555
C16_2 C20_2 1_555 1_555
C18_2 C19_2 1_555 1_555
C49_2 C50_2 1_555 1_555
O19 C60_2 1_555 1_555
O20 C60_2 1_555 1_555
H40_2 C56_2 1_555 1_555
C57_2 C56_2 1_555 1_555
H41_2 C57_2 1_555 1_555
C58_2 C57_2 1_555 1_555
C60_2 C58_2 1_555 1_555
Cd1_3 O14 1_555 1_555
O14 C10_3 1_555 1_555
O2_3 Cd1_3 1_555 1_555
O9_2 C40_3 1_555 1_555
O10_2 C40_3 1_555 1_555
N1_3 C1_3 1_555 1_555
N2_3 C2_3 1_555 1_555
N8_3 C32_3 1_555 1_555
N9_3 C46_3 1_555 1_555
N10_3 Cd1_3 1_555 1_555
N11_3 Cd1_3 1_555 1_555
N12_3 C52_3 1_555 1_555
C2_3 C1_3 1_555 1_555
H2_3 C2_3 1_555 1_555
C3_3 N1_3 1_555 1_555
H3_3 C3_3 1_555 1_555
C4_3 N2_3 1_555 1_555
C5_3 C4_3 1_555 1_555
H4_3 C5_3 1_555 1_555
C6_3 C5_3 1_555 1_555
C7_3 C6_3 1_555 1_555
H5_3 C7_3 1_555 1_555
C8_3 C7_3 1_555 1_555
H6_3 C8_3 1_555 1_555
C9_3 C4_3 1_555 1_555
H7_3 C9_3 1_555 1_555
C10_3 O2_3 1_555 1_555
C28_3 N5_3 1_555 1_555
H19_3 C28_3 1_555 1_555
C30_3 N5_3 1_555 1_555
H21_3 C30_3 1_555 1_555
C31_3 N7_3 1_555 1_555
H22_3 C31_3 1_555 1_555
C32_3 C31_3 1_555 1_555
H23_3 C32_3 1_555 1_555
C33_3 N7_3 1_555 1_555
H24_3 C33_3 1_555 1_555
C34_3 N8_3 1_555 1_555
C35_3 C34_3 1_555 1_555
H25_3 C35_3 1_555 1_555
C36_3 C35_3 1_555 1_555
C37_3 C36_3 1_555 1_555
H26_3 C37_3 1_555 1_555
C38_3 C37_3 1_555 1_555
H27_3 C38_3 1_555 1_555
C39_3 C34_3 1_555 1_555
H28_3 C39_3 1_555 1_555
C40_3 C36_3 1_555 1_555
C41_3 O8_3 1_555 1_555
C42_3 C41_3 1_555 1_555
C47_3 C42_3 1_555 1_555
H32_3 C47_3 1_555 1_555
C48_3 N9_3 1_555 1_555
H33_3 C48_3 1_555 1_555
C49_3 N9_3 1_555 1_555
H34_3 C49_3 1_555 1_555
C50_3 N10_3 1_555 1_555
H35_3 C50_3 1_555 1_555
C51_3 N11_3 1_555 1_555
H36_3 C51_3 1_555 1_555
C52_3 C51_3 1_555 1_555
H37_3 C52_3 1_555 1_555
C53_3 N11_3 1_555 1_555
H38_3 C53_3 1_555 1_555
C54_3 N12_3 1_555 1_555
C55_3 C54_3 1_555 1_555
H39_3 C55_3 1_555 1_555
C59_3 C54_3 1_555 1_555
H42_3 C59_3 1_555 1_555
H43_3 O13_3 1_555 1_555
H44_3 O13_3 1_555 1_555
Cd4_2 O9_2 1_555 1_555
O10_2 Cd4_2 1_555 1_555
N2_3 C3_3 1_555 1_555
N8_3 C33_3 1_555 1_555
N10_3 C48_3 1_555 1_555
N12_3 C53_3 1_555 1_555
C6_3 C10_3 1_555 1_555
C8_3 C9_3 1_555 1_555
C38_3 C39_3 1_555 1_555
C46_3 C47_3 1_555 1_555
C49_3 C50_3 1_555 1_555
Cd4 O7_3 1_555 1_555
N13_2 C11_3 1_555 1_555
N4_3 C11_3 1_555 1_555
C11_3 H8_3 1_555 1_555
C12_3 N13_2 1_555 1_555
H9_3 C12_3 1_555 1_555
C13_3 N4_3 1_555 1_555
H10_3 C13_3 1_555 1_555
C14_3 N4_3 1_555 1_555
C15_3 C14_3 1_555 1_555
H11_3 C15_3 1_555 1_555
C16_3 C15_3 1_555 1_555
C17_3 C16_3 1_555 1_555
H12_3 C17_3 1_555 1_555
C18_3 C17_3 1_555 1_555
H13_3 C18_3 1_555 1_555
C19_3 C14_3 1_555 1_555
H14_3 C19_3 1_555 1_555
C20_3 O5_3 1_555 1_555
O17_2 Cd4 1_555 1_555
O18_2 Cd4 1_555 1_555
O19_2 Cd8_2 1_555 1_555
O20_2 Cd8_2 1_555 1_555
O6_3 C20_3 1_555 1_555
C12_3 C13_3 1_555 1_555
C16_3 C20_3 1_555 1_555
C18_3 C19_3 1_555 1_555
O11_2 C60_3 1_555 1_555
O12_2 C60_3 1_555 1_555
H40_3 C56_3 1_555 1_555
C57_3 C56_3 1_555 1_555
H41_3 C57_3 1_555 1_555
C58_3 C57_3 1_555 1_555
C60_3 C58_3 1_555 1_555
Cd8 O11_2 1_555 1_555
O12_2 Cd8 1_555 1_555
O19_2 C60_4 1_555 1_555
O20_2 C60_4 1_555 1_555
H40_4 C56_4 1_555 1_555
C57_4 C56_4 1_555 1_555
H41_4 C57_4 1_555 1_555
C58_4 C57_4 1_555 1_555
C60_4 C58_4 1_555 1_555
Cd1_4 O14_2 1_555 1_555
Cd8 N1_4 1_555 1_555
O14_2 C10_4 1_555 1_555
O2_4 Cd1_4 1_555 1_555
O5_4 Cd1_4 1_555 1_555
O6_4 Cd1_4 1_555 1_555
N1_4 C1_4 1_555 1_555
N2_4 C2_4 1_555 1_555
N10_4 Cd1_4 1_555 1_555
N11_4 Cd1_4 1_555 1_555
N12_4 C52_4 1_555 1_555
C1_4 H1_4 1_555 1_555
C2_4 C1_4 1_555 1_555
H2_4 C2_4 1_555 1_555
C3_4 N1_4 1_555 1_555
H3_4 C3_4 1_555 1_555
C4_4 N2_4 1_555 1_555
C5_4 C4_4 1_555 1_555
H4_4 C5_4 1_555 1_555
C6_4 C5_4 1_555 1_555
C7_4 C6_4 1_555 1_555
H5_4 C7_4 1_555 1_555
C8_4 C7_4 1_555 1_555
H6_4 C8_4 1_555 1_555
C9_4 C4_4 1_555 1_555
H7_4 C9_4 1_555 1_555
C10_4 O2_4 1_555 1_555
C11_4 H8_4 1_555 1_555
C15_4 C14_4 1_555 1_555
H11_4 C15_4 1_555 1_555
C16_4 C15_4 1_555 1_555
C17_4 C16_4 1_555 1_555
H12_4 C17_4 1_555 1_555
C18_4 C17_4 1_555 1_555
H13_4 C18_4 1_555 1_555
C19_4 C14_4 1_555 1_555
H14_4 C19_4 1_555 1_555
C20_4 O5_4 1_555 1_555
C48_4 N9_4 1_555 1_555
H33_4 C48_4 1_555 1_555
C49_4 N9_4 1_555 1_555
H34_4 C49_4 1_555 1_555
C50_4 N10_4 1_555 1_555
H35_4 C50_4 1_555 1_555
C51_4 N11_4 1_555 1_555
H36_4 C51_4 1_555 1_555
C52_4 C51_4 1_555 1_555
H37_4 C52_4 1_555 1_555
C53_4 N11_4 1_555 1_555
H38_4 C53_4 1_555 1_555
C54_4 N12_4 1_555 1_555
C55_4 C54_4 1_555 1_555
H39_4 C55_4 1_555 1_555
C59_4 C54_4 1_555 1_555
H42_4 C59_4 1_555 1_555
O13_4 Cd8 1_555 1_555
H43_4 O13_4 1_555 1_555
H44_4 O13_4 1_555 1_555
O15 Cd8 1_555 1_555
O16 Cd8 1_555 1_555
O6_4 C20_4 1_555 1_555
N2_4 C3_4 1_555 1_555
N10_4 C48_4 1_555 1_555
N12_4 C53_4 1_555 1_555
C6_4 C10_4 1_555 1_555
C8_4 C9_4 1_555 1_555
C16_4 C20_4 1_555 1_555
C18_4 C19_4 1_555 1_555
C49_4 C50_4 1_555 1_555
Cd4_2 O7_4 1_555 1_555
O7_4 C41_4 1_555 1_555
O8_4 Cd4_2 1_555 1_555
O17_2 C40_4 1_555 1_555
O18_2 C40_4 1_555 1_555
N5_4 Cd4_2 1_555 1_555
N7_4 Cd4_2 1_555 1_555
N8_4 C32_4 1_555 1_555
C12_4 N13 1_555 1_555
H9_4 C12_4 1_555 1_555
C13_4 N4_4 1_555 1_555
H10_4 C13_4 1_555 1_555
C28_4 N5_4 1_555 1_555
H19_4 C28_4 1_555 1_555
C30_4 N5_4 1_555 1_555
H21_4 C30_4 1_555 1_555
C31_4 N7_4 1_555 1_555
H22_4 C31_4 1_555 1_555
C32_4 C31_4 1_555 1_555
H23_4 C32_4 1_555 1_555
C33_4 N7_4 1_555 1_555
H24_4 C33_4 1_555 1_555
C34_4 N8_4 1_555 1_555
C35_4 C34_4 1_555 1_555
H25_4 C35_4 1_555 1_555
C36_4 C35_4 1_555 1_555
C37_4 C36_4 1_555 1_555
H26_4 C37_4 1_555 1_555
C38_4 C37_4 1_555 1_555
H27_4 C38_4 1_555 1_555
C39_4 C34_4 1_555 1_555
H28_4 C39_4 1_555 1_555
C40_4 C36_4 1_555 1_555
C41_4 O8_4 1_555 1_555
C42_4 C41_4 1_555 1_555
C47_4 C42_4 1_555 1_555
H32_4 C47_4 1_555 1_555
N8_4 C33_4 1_555 1_555
C12_4 C13_4 1_555 1_555
C38_4 C39_4 1_555 1_555
C46_4 C47_4 1_555 1_555
O15 C21_2 1_555 1_555
O16 C21_2 1_555 1_555
N6_2 C24_2 1_555 1_555
C21_2 C22_2 1_555 1_555
C22_2 C23_2 1_555 1_555
C23_2 H15_2 1_555 1_555
C24_2 C23_2 1_555 1_555
C25_2 C24_2 1_555 1_555
H16_2 C25_2 1_555 1_555
C26_2 C25_2 1_555 1_555
H17_2 C26_2 1_555 1_555
C27_2 C22_2 1_555 1_555
H18_2 C27_2 1_555 1_555
C29_2 N6_2 1_555 1_555
H20_2 C29_2 1_555 1_555
H29_2 C43_2 1_555 1_555
C44_2 C43_2 1_555 1_555
H30_2 C44_2 1_555 1_555
C45_2 C44_2 1_555 1_555
H31_2 C45_2 1_555 1_555
C26_2 C27_2 1_555 1_555
O15_2 C21_3 1_555 1_555
N6_3 C24_3 1_555 1_555
C21_3 C22_3 1_555 1_555
C22_3 C23_3 1_555 1_555
C23_3 H15_3 1_555 1_555
C24_3 C23_3 1_555 1_555
C25_3 C24_3 1_555 1_555
H16_3 C25_3 1_555 1_555
C26_3 C25_3 1_555 1_555
H17_3 C26_3 1_555 1_555
C27_3 C22_3 1_555 1_555
H18_3 C27_3 1_555 1_555
C29_3 N6_3 1_555 1_555
H20_3 C29_3 1_555 1_555
C44_3 C43_3 1_555 1_555
H30_3 C44_3 1_555 1_555
C45_3 C44_3 1_555 1_555
H31_3 C45_3 1_555 1_555
C26_3 C27_3 1_555 1_555
O3_2 C21_4 1_555 1_555
N6_4 C24_4 1_555 1_555
C21_4 C22_4 1_555 1_555
C22_4 C23_4 1_555 1_555
C23_4 H15_4 1_555 1_555
C24_4 C23_4 1_555 1_555
C25_4 C24_4 1_555 1_555
H16_4 C25_4 1_555 1_555
C26_4 C25_4 1_555 1_555
H17_4 C26_4 1_555 1_555
C27_4 C22_4 1_555 1_555
H18_4 C27_4 1_555 1_555
C29_4 N6_4 1_555 1_555
H20_4 C29_4 1_555 1_555
C44_4 C43_4 1_555 1_555
H30_4 C44_4 1_555 1_555
C45_4 C44_4 1_555 1_555
H31_4 C45_4 1_555 1_555
C26_4 C27_4 1_555 1_555

#END
