
###############################################################################
#
# This file contains modified crystal structure data generated from the
# MOF subset of the Cambridge Structural Database (CSD) v543 
# hosted by the Cambridge Crystallographic Data Centre (CCDC).
#
# This work is licensed under the Creative Commons
# Attribution-NonCommercial-ShareAlike 4.0 International License.
# To view a copy of this license, visit
# http://creativecommons.org/licenses/by-nc-sa/4.0/
# or send a letter to
# Creative Commons, PO Box 1866, Mountain View, CA 94042, USA.
#
# CIF created using the CSD Python API on 29 September 2022
# The structure has been converted into the P1 space group
# The structure has a 3D framework
# The original CSD entry NUZSAD is in the triclinic crystal system
# The framework has been calculated to contain at least 10.0% void space
# The void calculation uses a probe of radius 1.32A, grid spacing 0.4
#
###############################################################################

data_NUZSAD
_chemical_formula_moiety         '(C20 H16 Eu2 N2 O14)n'
_symmetry_cell_setting           triclinic
_symmetry_space_group_name_H-M   'P 1'
_symmetry_Int_Tables_number      1
_space_group_name_Hall           'P 1'
loop_
_symmetry_equiv_pos_site_id
_symmetry_equiv_pos_as_xyz
1 x,y,z
_cell_length_a                   7.970(2)
_cell_length_b                   9.419(3)
_cell_length_c                   10.391(3)
_cell_angle_alpha                95.79(2)
_cell_angle_beta                 112.084(14)
_cell_angle_gamma                110.002(15)
_cell_volume                     655.204
loop_
_atom_site_label
_atom_site_type_symbol
_atom_site_fract_x
_atom_site_fract_y
_atom_site_fract_z
Eu3 Eu 0.28165(3) 0.05090(2) 0.011014(19)
O2 O 0.4972(4) 0.0433(3) 0.2420(3)
O3 O 0.7569(4) 0.0071(4) 0.2307(3)
O4 O 0.3916(4) 0.3134(3) 0.1690(3)
C3 C 0.7249(6) 0.0108(5) 0.4462(4)
C4 C 0.7730(6) 0.1358(5) 0.5579(4)
H3 H 0.7562 0.2274 0.5372
C5 C 0.8443(6) 0.1251(5) 0.6971(4)
H4 H 0.8829 0.2113 0.7739
C6 C 0.6530(6) 0.0217(5) 0.2924(4)
C7 C 0.3241(6) 0.3635(5) 0.0604(4)
C8 C 0.3277(6) 0.5267(5) 0.0838(4)
H5 H 0.4673 0.6055 0.1306
H6 H 0.2665 0.5378 0.1492
O8 O 0.0727(4) 0.0172(3) 0.1376(3)
O12 O 0.6012(4) 0.1675(3) 0.0232(3)
O11 O 0.8954(4) 0.2379(3) 0.0276(3)
N1 N 0.1405(5) 0.0070(4) 0.2750(3)
C1 C 0.1917(6) 0.1318(5) 0.3794(4)
H1 H 0.1842 0.2252 0.3565
C2 C 0.2554(6) 0.1227(5) 0.5205(4)
H2 H 0.2857 0.2082 0.5946
O5 O 0.7436(4) 0.7189(3) 0.0658(3)
C9 C 0.7841(6) 0.4415(5) 0.0576(4)
H7 H 0.7329 0.4640 0.1269
H8 H 0.9269 0.5124 0.0990
C10 C 0.7610(6) 0.2750(5) 0.0358(4)
O5_2 O 0.2564(4) 0.2811(3) 0.9342(3)
O6 O 0.1046(4) 0.7621(3) 0.9724(3)
O7 O 0.3988(4) 0.8325(3) 0.9768(3)
C9_2 C 0.2159(6) 0.5585(5) 0.9424(4)
H7_2 H 0.2671 0.5360 0.8731
H8_2 H 0.0731 0.4876 0.9010
C10_2 C 0.2390(6) 0.7250(5) 0.9642(4)
Eu6 Eu 0.71835(3) 0.94910(2) 0.988986(19)
O1 O 0.9273(4) 0.9828(3) 0.8624(3)
N1_2 N 0.8595(5) 0.9930(4) 0.7250(3)
C1_2 C 0.8083(6) 0.8682(5) 0.6206(4)
H1_2 H 0.8158 0.7748 0.6435
C2_2 C 0.7446(6) 0.8773(5) 0.4795(4)
H2_2 H 0.7143 0.7918 0.4054
O10 O 0.2431(4) 0.9929(4) 0.7693(3)
O2_2 O 0.5028(4) 0.9567(3) 0.7580(3)
O4_2 O 0.6084(4) 0.6866(3) 0.8310(3)
C3_2 C 0.2751(6) 0.9892(5) 0.5538(4)
C4_2 C 0.2270(6) 0.8642(5) 0.4421(4)
H3_2 H 0.2438 0.7726 0.4628
C5_2 C 0.1557(6) 0.8749(5) 0.3029(4)
H4_2 H 0.1171 0.7887 0.2261
C6_2 C 0.3470(6) 0.9783(5) 0.7076(4)
C7_2 C 0.6759(6) 0.6365(5) 0.9396(4)
C8_2 C 0.6723(6) 0.4733(5) 0.9162(4)
H5_2 H 0.5327 0.3945 0.8694
H6_2 H 0.7335 0.4622 0.8508
loop_
_geom_bond_atom_site_label_1
_geom_bond_atom_site_label_2
_geom_bond_site_symmetry_1
_geom_bond_site_symmetry_2
Eu3 O2 1_555 1_555
O2 C6 1_555 1_555
O3 C6 1_555 1_555
O4 Eu3 1_555 1_555
C4 C3 1_555 1_555
H3 C4 1_555 1_555
H4 C5 1_555 1_555
C6 C3 1_555 1_555
C7 O4 1_555 1_555
C8 C7 1_555 1_555
H5 C8 1_555 1_555
H6 C8 1_555 1_555
O8 Eu3 1_555 1_555
O12 Eu3 1_555 1_555
C4 C5 1_555 1_555
O8 N1 1_555 1_555
N1 C1 1_555 1_555
C1 H1 1_555 1_555
C2 C1 1_555 1_555
H2 C2 1_555 1_555
O11 C10 1_555 1_555
O12 C10 1_555 1_555
H7 C9 1_555 1_555
H8 C9 1_555 1_555
C10 C9 1_555 1_555
O6 C10_2 1_555 1_555
O7 C10_2 1_555 1_555
H7_2 C9_2 1_555 1_555
H8_2 C9_2 1_555 1_555
C10_2 C9_2 1_555 1_555
Eu6 O7 1_555 1_555
O1 N1_2 1_555 1_555
N1_2 C1_2 1_555 1_555
C1_2 H1_2 1_555 1_555
C2_2 C1_2 1_555 1_555
H2_2 C2_2 1_555 1_555
Eu6 O1 1_555 1_555
Eu6 O2_2 1_555 1_555
O2_2 C6_2 1_555 1_555
O10 C6_2 1_555 1_555
O4_2 Eu6 1_555 1_555
C4_2 C3_2 1_555 1_555
H3_2 C4_2 1_555 1_555
H4_2 C5_2 1_555 1_555
C6_2 C3_2 1_555 1_555
C7_2 O4_2 1_555 1_555
C8_2 C7_2 1_555 1_555
H5_2 C8_2 1_555 1_555
H6_2 C8_2 1_555 1_555
C4_2 C5_2 1_555 1_555

#END
