
###############################################################################
#
# This file contains modified crystal structure data generated from the
# MOF subset of the Cambridge Structural Database (CSD) v543 
# hosted by the Cambridge Crystallographic Data Centre (CCDC).
#
# This work is licensed under the Creative Commons
# Attribution-NonCommercial-ShareAlike 4.0 International License.
# To view a copy of this license, visit
# http://creativecommons.org/licenses/by-nc-sa/4.0/
# or send a letter to
# Creative Commons, PO Box 1866, Mountain View, CA 94042, USA.
#
# CIF created using the CSD Python API on 29 September 2022
# The structure has been converted into the P1 space group
# The structure has a 3D framework
# The original CSD entry OBAFEF is in the monoclinic crystal system
# The framework has been calculated to contain at least 10.0% void space
# The void calculation uses a probe of radius 1.32A, grid spacing 0.4
#
###############################################################################

data_OBAFEF
_chemical_formula_moiety         '(C84 H76 Cu16 I16 N16 O22 Tb4)n'
_symmetry_cell_setting           triclinic
_symmetry_space_group_name_H-M   'P 1'
_symmetry_Int_Tables_number      1
_space_group_name_Hall           'P 1'
loop_
_symmetry_equiv_pos_site_id
_symmetry_equiv_pos_as_xyz
1 x,y,z
_cell_length_a                   15.005(4)
_cell_length_b                   8.341(2)
_cell_length_c                   29.272(8)
_cell_angle_alpha                90
_cell_angle_beta                 101.167(4)
_cell_angle_gamma                90
_cell_volume                     3594.22
loop_
_atom_site_label
_atom_site_type_symbol
_atom_site_fract_x
_atom_site_fract_y
_atom_site_fract_z
Cu1 Cu 0.63880(4) 0.17930(7) 0.220281(19)
Cu4 Cu 0.48204(4) 0.05050(7) 0.182213(19)
I2 I 0.60034(2) 0.17308(4) 0.126769(10)
I4 I 0.50540(2) 0.17230(4) 0.268703(10)
O2 O 0.3724(2) 0.0329(4) 0.43399(10)
O5 O 0.3379(2) 0.1056(4) 0.52805(11)
H3 H 0.2275 0.0101 0.3730
H10 H 0.1922 0.0209 0.5564
Tb3 Tb 0.441308(13) 0.22505(2) 0.485420(7)
I5 I 0.738874(19) 0.44298(3) 0.244360(9)
N5 N 0.36099(15) 0.1551(3) 0.15100(9)
Tb1 Tb 0.558692(13) 0.77495(2) 0.514580(7)
Cu2 Cu 0.57850(4) 0.88864(7) 0.251733(18)
Cu3 Cu 0.63676(4) 0.89350(7) 0.173950(19)
I1 I 0.761126(19) 0.94298(3) 0.255640(9)
I3 I 0.477613(19) 0.73974(4) 0.174026(10)
O1 O 0.4453(2) 0.7984(4) 0.44708(10)
O3 O 0.5736(2) 0.5513(4) 0.46964(10)
O4 O 0.4681(2) 0.3942(4) 0.42673(10)
O6 O 0.4360(2) 0.9040(4) 0.53662(10)
O7 O 0.7069(2) 0.6715(4) 0.54398(11)
N1 N 0.8492(3) 0.6364(6) 0.52680(15)
N2 N 0.13901(15) 0.6551(3) 0.34900(9)
C1 C 0.20992(18) 0.5640(2) 0.37362(10)
H1 H 0.2055 0.4504 0.3738
C2 C 0.28738(15) 0.6391(3) 0.39802(9)
H2 H 0.3359 0.5769 0.4149
C3 C 0.29393(15) 0.8054(3) 0.39781(9)
C4 C 0.22301(19) 0.8965(2) 0.37319(11)
C5 C 0.14555(16) 0.8214(3) 0.34878(10)
H4 H 0.0971 0.8836 0.3320
C6 C 0.3782(3) 0.8847(6) 0.42887(14)
N3 N 0.56758(18) 0.7415(3) 0.30562(7)
C7 C 0.63230(15) 0.7547(3) 0.34641(8)
H5 H 0.6850 0.8183 0.3470
C8 C 0.61988(16) 0.6749(4) 0.38639(7)
H6 H 0.6641 0.6840 0.4143
C9 C 0.54273(19) 0.5819(3) 0.38559(7)
C10 C 0.47801(16) 0.5686(4) 0.34479(9)
H7 H 0.4253 0.5050 0.3442
C11 C 0.49043(16) 0.6484(4) 0.30481(7)
H8 H 0.4462 0.6394 0.2769
C12 C 0.5271(3) 0.5041(5) 0.43100(14)
N4 N 0.20979(16) 0.7412(3) 0.63570(8)
C13 C 0.16975(14) 0.8615(3) 0.60575(10)
H9 H 0.1083 0.8909 0.6050
C14 C 0.21958(18) 0.9387(3) 0.57689(9)
C15 C 0.30945(17) 0.8956(3) 0.57798(9)
C16 C 0.34950(14) 0.7753(3) 0.60792(9)
H11 H 0.4109 0.7458 0.6087
C17 C 0.29966(17) 0.6981(3) 0.63678(9)
H12 H 0.3270 0.6158 0.6572
C18 C 0.3651(3) 0.9729(6) 0.54494(14)
C19 C 0.7854(3) 0.7198(6) 0.54294(16)
H13 H 0.8012 0.8245 0.5546
C20 C 0.8278(5) 0.4795(8) 0.5060(2)
H14 H 0.7633 0.4560 0.5047
H15 H 0.8649 0.3980 0.5249
H16 H 0.8406 0.4787 0.4744
C21 C 0.9427(4) 0.6973(9) 0.5296(2)
H17 H 0.9472 0.8061 0.5424
H18 H 0.9572 0.6990 0.4984
H19 H 0.9856 0.6271 0.5498
Cu5 Cu 0.86120(4) 0.67930(7) 0.279719(19)
Cu6 Cu 0.13676(4) 0.60650(7) 0.673950(19)
Cu7 Cu 0.01796(4) 0.55050(7) 0.317787(19)
O8 O 0.6276(2) 0.9671(4) 0.56601(10)
O9 O 0.5319(2) 0.6058(4) 0.57327(10)
O10 O 0.6621(2) 0.8944(4) 0.47195(11)
N6 N 0.70979(16) 0.7588(3) 0.13570(8)
I3_2 I 0.022387(19) 0.23974(4) 0.325974(10)
O1_2 O 0.0547(2) 0.2984(4) 0.05292(10)
O2_2 O 0.1276(2) 0.5329(4) 0.06601(10)
C1_2 C 0.29008(18) 0.0640(2) 0.12638(10)
C2_2 C 0.21262(15) 0.1391(3) 0.10198(9)
H2_2 H 0.1641 0.0769 0.0851
C3_2 C 0.20607(15) 0.3054(3) 0.10219(9)
C4_2 C 0.27699(19) 0.3965(2) 0.12681(11)
H3_2 H 0.2725 0.5101 0.1270
C5_2 C 0.35445(16) 0.3214(3) 0.15122(10)
H4_2 H 0.4029 0.3836 0.1680
C6_2 C 0.1218(3) 0.3847(6) 0.07113(14)
C10_2 C 0.02199(16) 0.0686(4) 0.15521(9)
H7_2 H 0.0747 0.0050 0.1558
C11_2 C 0.00957(16) 0.1484(4) 0.19519(7)
H8_2 H 0.0538 0.1394 0.2231
Tb3_2 Tb 0.058692(13) 0.72505(2) 0.014580(7)
O5_2 O 0.1621(2) 0.6056(4) 0.97195(11)
O6_2 O 0.0640(2) 0.4040(4) 0.96338(10)
N4_2 N 0.29021(16) 0.2412(3) 0.86430(8)
C13_2 C 0.33025(14) 0.3615(3) 0.89425(10)
H9_2 H 0.3917 0.3909 0.8950
C14_2 C 0.28042(18) 0.4387(3) 0.92311(9)
H10_2 H 0.3078 0.5209 0.9436
C15_2 C 0.19055(17) 0.3956(3) 0.92202(9)
C16_2 C 0.15050(14) 0.2753(3) 0.89208(9)
H11_2 H 0.0891 0.2458 0.8913
C17_2 C 0.20034(17) 0.1981(3) 0.86322(9)
H12_2 H 0.1730 0.1158 0.8428
C18_2 C 0.1349(3) 0.4729(6) 0.95506(14)
Cu6_2 Cu 0.36324(4) 0.10650(7) 0.826050(19)
O4_2 O 0.0319(2) 0.8942(4) 0.07327(10)
H1_2 H 0.2945 0.9504 0.1262
Cu2_2 Cu 0.92150(4) 0.38864(7) 0.248267(18)
Cu3_2 Cu 0.86324(4) 0.39350(7) 0.326050(19)
I2_2 I 0.89966(2) 0.67308(4) 0.373231(10)
I4_2 I 0.99460(2) 0.67230(4) 0.231297(10)
O3_2 O 0.9264(2) 0.0513(4) 0.03036(10)
N3_2 N 0.93242(18) 0.2415(3) 0.19438(7)
C7_2 C 0.86770(15) 0.2547(3) 0.15359(8)
H5_2 H 0.8150 0.3183 0.1530
C8_2 C 0.88012(16) 0.1749(4) 0.11361(7)
H6_2 H 0.8359 0.1840 0.0857
C9_2 C 0.95727(19) 0.0819(3) 0.11441(7)
C12_2 C 0.9729(3) 0.0041(5) 0.06900(14)
H18_2 H 0.5428 0.1990 0.0016
O10_2 O 0.8379(2) 0.3944(4) 0.02805(11)
N6_2 N 0.79021(16) 0.2588(3) 0.36430(8)
Tb1_2 Tb 0.941308(13) 0.27495(2) 0.985420(7)
O7_2 O 0.7931(2) 0.1715(4) 0.95602(11)
N1_2 N 0.6508(3) 0.1364(6) 0.97320(15)
C19_2 C 0.7146(3) 0.2198(6) 0.95706(16)
H13_2 H 0.6988 0.3245 0.9454
C21_2 C 0.5573(4) 0.1973(9) 0.9704(2)
H17_2 H 0.5528 0.3061 0.9576
H19_2 H 0.5144 0.1271 0.9502
O8_2 O 0.8724(2) 0.4671(4) 0.93399(10)
O9_2 O 0.9681(2) 0.1058(4) 0.92673(10)
Cu2_3 Cu 0.42150(4) 0.11136(7) 0.748267(18)
I1_2 I 0.238874(19) 0.05702(3) 0.744360(9)
I3_3 I 0.522387(19) 0.26026(4) 0.825974(10)
O1_3 O 0.5547(2) 0.2016(4) 0.55292(10)
O3_3 O 0.4264(2) 0.4487(4) 0.53036(10)
O6_3 O 0.5640(2) 0.0960(4) 0.46338(10)
O7_3 O 0.2931(2) 0.3285(4) 0.45602(11)
N1_3 N 0.1508(3) 0.3636(6) 0.47320(15)
N2_2 N 0.86099(15) 0.3449(3) 0.65100(9)
C1_3 C 0.79008(18) 0.4360(2) 0.62638(10)
H1_3 H 0.7945 0.5496 0.6262
C2_3 C 0.71262(15) 0.3609(3) 0.60198(9)
H2_3 H 0.6641 0.4231 0.5851
C3_3 C 0.70607(15) 0.1946(3) 0.60219(9)
C4_3 C 0.77699(19) 0.1035(2) 0.62681(11)
C5_3 C 0.85445(16) 0.1786(3) 0.65122(10)
H4_3 H 0.9029 0.1164 0.6680
C6_3 C 0.6218(3) 0.1153(6) 0.57113(14)
N3_3 N 0.43242(18) 0.2585(3) 0.69438(7)
C7_3 C 0.36770(15) 0.2453(3) 0.65359(8)
H5_3 H 0.3150 0.1817 0.6530
C8_3 C 0.38012(16) 0.3251(4) 0.61361(7)
H6_3 H 0.3359 0.3160 0.5857
C9_3 C 0.45727(19) 0.4181(3) 0.61441(7)
C10_3 C 0.52199(16) 0.4314(4) 0.65521(9)
H7_3 H 0.5747 0.4950 0.6558
C11_3 C 0.50957(16) 0.3516(4) 0.69519(7)
H8_3 H 0.5538 0.3606 0.7231
C12_3 C 0.4729(3) 0.4959(5) 0.56900(14)
C13_3 C 0.83025(14) 0.1385(3) 0.39425(10)
H9_3 H 0.8917 0.1091 0.3950
C14_3 C 0.78042(18) 0.0613(3) 0.42311(9)
C15_3 C 0.69055(17) 0.1044(3) 0.42202(9)
C16_3 C 0.65050(14) 0.2247(3) 0.39208(9)
H11_3 H 0.5891 0.2542 0.3913
C17_3 C 0.70034(17) 0.3019(3) 0.36322(9)
H12_3 H 0.6730 0.3842 0.3428
C18_3 C 0.6349(3) 0.0271(6) 0.45506(14)
C19_3 C 0.2146(3) 0.2802(6) 0.45706(16)
H13_3 H 0.1988 0.1755 0.4454
C20_2 C 0.1722(5) 0.5205(8) 0.4940(2)
H14_2 H 0.2367 0.5440 0.4953
H15_2 H 0.1351 0.6020 0.4751
H16_2 H 0.1594 0.5213 0.5256
C21_3 C 0.0573(4) 0.3027(9) 0.4704(2)
H17_3 H 0.0528 0.1939 0.4576
H18_3 H 0.0428 0.3010 0.5016
H19_3 H 0.0144 0.3729 0.4502
Cu5_2 Cu 0.13880(4) 0.32070(7) 0.720281(19)
Cu7_2 Cu 0.98204(4) 0.44950(7) 0.682213(19)
Cu1_2 Cu 0.36120(4) 0.82070(7) 0.779719(19)
Cu4_2 Cu 0.51796(4) 0.94950(7) 0.817787(19)
I2_3 I 0.39966(2) 0.82692(4) 0.873231(10)
I4_3 I 0.49460(2) 0.82770(4) 0.731297(10)
H3_3 H 0.7725 0.9899 0.6270
H10_3 H 0.8078 0.9791 0.4436
I5_2 I 0.261126(19) 0.55702(3) 0.755640(9)
N5_2 N 0.63901(15) 0.8449(3) 0.84900(9)
O7_4 O 0.2069(2) 0.8285(4) 0.04398(11)
N1_4 N 0.3492(3) 0.8636(6) 0.02680(15)
C19_4 C 0.2854(3) 0.7802(6) 0.04294(16)
H13_4 H 0.3012 0.6755 0.0546
C21_4 C 0.4427(4) 0.8027(9) 0.0296(2)
H17_4 H 0.4472 0.6939 0.0424
H19_4 H 0.4856 0.8729 0.0498
Cu2_4 Cu 0.07850(4) 0.61136(7) 0.751733(18)
I2_4 I 0.10034(2) 0.32692(4) 0.626769(10)
I4_4 I 0.00540(2) 0.32770(4) 0.768703(10)
O3_4 O 0.0736(2) 0.9487(4) 0.96964(10)
N3_4 N 0.06758(18) 0.7585(3) 0.80562(7)
C7_4 C 0.13230(15) 0.7453(3) 0.84641(8)
H5_4 H 0.1850 0.6817 0.8470
C8_4 C 0.11988(16) 0.8251(4) 0.88639(7)
H6_4 H 0.1641 0.8160 0.9143
C9_4 C 0.04273(19) 0.9181(3) 0.88559(7)
C12_4 C 0.0271(3) 0.9959(5) 0.93100(14)
H18_4 H 0.4572 0.8010 0.9984
H1_4 H 0.7055 0.0496 0.8738
O6_4 O 0.9360(2) 0.5960(4) 0.03662(10)
C13_4 C 0.66975(14) 0.6385(3) 0.10575(10)
H9_4 H 0.6083 0.6091 0.1050
C14_4 C 0.71958(18) 0.5613(3) 0.07689(9)
H10_4 H 0.6922 0.4791 0.0564
C15_4 C 0.80945(17) 0.6044(3) 0.07798(9)
C16_4 C 0.84950(14) 0.7247(3) 0.10792(9)
H11_4 H 0.9109 0.7542 0.1087
C17_4 C 0.79966(17) 0.8019(3) 0.13678(9)
H12_4 H 0.8270 0.8842 0.1572
C18_4 C 0.8651(3) 0.5271(6) 0.04494(14)
I3_4 I 0.977613(19) 0.76026(4) 0.674026(10)
O1_4 O 0.9453(2) 0.7016(4) 0.94708(10)
C1_4 C 0.70992(18) 0.9360(2) 0.87362(10)
C2_4 C 0.78738(15) 0.8609(3) 0.89802(9)
H2_4 H 0.8359 0.9231 0.9149
C3_4 C 0.79393(15) 0.6946(3) 0.89781(9)
C4_4 C 0.72301(19) 0.6035(2) 0.87319(11)
H3_4 H 0.7275 0.4899 0.8730
C5_4 C 0.64555(16) 0.6786(3) 0.84878(10)
H4_4 H 0.5971 0.6164 0.8320
C6_4 C 0.8782(3) 0.6153(6) 0.92887(14)
C10_4 C 0.97801(16) 0.9314(4) 0.84479(9)
H7_4 H 0.9253 0.9950 0.8442
C11_4 C 0.99043(16) 0.8516(4) 0.80481(7)
H8_4 H 0.9462 0.8606 0.7769
H16_3 H 0.6594 0.9787 0.0256
C20_3 C 0.6722(5) 0.9795(8) 0.9940(2)
H14_3 H 0.7367 0.9560 0.9953
H15_3 H 0.6351 0.8980 0.9751
C20_4 C 0.3278(5) 0.0205(8) 0.0060(2)
H14_4 H 0.2633 0.0440 0.0047
H15_4 H 0.3649 0.1020 0.0249
H16_4 H 0.3406 0.0213 0.9744
loop_
_geom_bond_atom_site_label_1
_geom_bond_atom_site_label_2
_geom_bond_site_symmetry_1
_geom_bond_site_symmetry_2
Cu4 I2 1_555 1_555
I2 Cu1 1_555 1_555
I4 Cu1 1_555 1_555
Tb3 O2 1_555 1_555
I5 Cu1 1_555 1_555
N5 Cu4 1_555 1_555
Cu4 I4 1_555 1_555
O5 Tb3 1_555 1_555
Tb1 O1 1_555 1_555
Cu2 I1 1_555 1_555
Cu3 I1 1_555 1_555
I1 Cu5 1_555 1_555
I3 Cu2 1_555 1_555
O1 C6 1_555 1_555
O3 Tb1 1_555 1_555
O4 C12 1_555 1_555
O6 Tb1 1_555 1_555
O7 Tb1 1_555 1_555
N1 C19 1_555 1_555
N2 C1 1_555 1_555
C1 H1 1_555 1_555
C2 C1 1_555 1_555
H2 C2 1_555 1_555
C3 C2 1_555 1_555
C4 C3 1_555 1_555
C5 N2 1_555 1_555
H4 C5 1_555 1_555
C6 C3 1_555 1_555
N3 Cu2 1_555 1_555
C7 N3 1_555 1_555
H5 C7 1_555 1_555
C8 C7 1_555 1_555
H6 C8 1_555 1_555
C9 C8 1_555 1_555
C10 C9 1_555 1_555
H7 C10 1_555 1_555
C11 N3 1_555 1_555
H8 C11 1_555 1_555
C12 O3 1_555 1_555
N4 C13 1_555 1_555
C13 H9 1_555 1_555
C14 C13 1_555 1_555
C15 C14 1_555 1_555
C16 C15 1_555 1_555
H11 C16 1_555 1_555
C17 N4 1_555 1_555
H12 C17 1_555 1_555
C18 O6 1_555 1_555
C19 O7 1_555 1_555
H13 C19 1_555 1_555
C20 N1 1_555 1_555
H14 C20 1_555 1_555
H15 C20 1_555 1_555
H16 C20 1_555 1_555
C21 N1 1_555 1_555
H17 C21 1_555 1_555
H18 C21 1_555 1_555
H19 C21 1_555 1_555
Tb3 O4 1_555 1_555
Cu6 N4 1_555 1_555
Cu7 N2 1_555 1_555
O8 Tb1 1_555 1_555
O9 Tb1 1_555 1_555
O10 Tb1 1_555 1_555
N6 Cu3 1_555 1_555
Cu3 I3 1_555 1_555
C4 C5 1_555 1_555
C9 C12 1_555 1_555
C10 C11 1_555 1_555
C15 C18 1_555 1_555
C16 C17 1_555 1_555
O1_2 C6_2 1_555 1_555
O2_2 C6_2 1_555 1_555
N5 C1_2 1_555 1_555
C2_2 C1_2 1_555 1_555
H2_2 C2_2 1_555 1_555
C3_2 C2_2 1_555 1_555
C4_2 C3_2 1_555 1_555
H3_2 C4_2 1_555 1_555
C5_2 N5 1_555 1_555
H4_2 C5_2 1_555 1_555
C6_2 C3_2 1_555 1_555
H7_2 C10_2 1_555 1_555
H8_2 C11_2 1_555 1_555
Tb3_2 O2_2 1_555 1_555
Cu7 I3_2 1_555 1_555
C4_2 C5_2 1_555 1_555
C10_2 C11_2 1_555 1_555
O5_2 C18_2 1_555 1_555
N4_2 C13_2 1_555 1_555
C13_2 H9_2 1_555 1_555
C14_2 C13_2 1_555 1_555
H10_2 C14_2 1_555 1_555
C15_2 C14_2 1_555 1_555
C16_2 C15_2 1_555 1_555
H11_2 C16_2 1_555 1_555
C17_2 N4_2 1_555 1_555
H12_2 C17_2 1_555 1_555
C18_2 O6_2 1_555 1_555
Cu6_2 N4_2 1_555 1_555
C15_2 C18_2 1_555 1_555
C16_2 C17_2 1_555 1_555
Tb3_2 O4_2 1_555 1_555
Cu5 I5 1_555 1_555
Cu2_2 I5 1_555 1_555
Cu3_2 I5 1_555 1_555
I2_2 Cu5 1_555 1_555
I4_2 Cu5 1_555 1_555
N3_2 Cu2_2 1_555 1_555
C7_2 N3_2 1_555 1_555
H5_2 C7_2 1_555 1_555
C8_2 C7_2 1_555 1_555
H6_2 C8_2 1_555 1_555
C9_2 C8_2 1_555 1_555
C12_2 O3_2 1_555 1_555
N6_2 Cu3_2 1_555 1_555
Cu2_2 I4_2 1_555 1_555
Cu3_2 I2_2 1_555 1_555
C9_2 C12_2 1_555 1_555
O7_2 Tb1_2 1_555 1_555
N1_2 C19_2 1_555 1_555
C19_2 O7_2 1_555 1_555
H13_2 C19_2 1_555 1_555
C21_2 N1_2 1_555 1_555
H17_2 C21_2 1_555 1_555
H19_2 C21_2 1_555 1_555
O8_2 Tb1_2 1_555 1_555
O9_2 Tb1_2 1_555 1_555
Tb3 O1_3 1_555 1_555
Cu2_3 I1_2 1_555 1_555
Cu6_2 I1_2 1_555 1_555
I1_2 Cu5_2 1_555 1_555
I3_3 Cu2_3 1_555 1_555
O1_3 C6_3 1_555 1_555
O3_3 Tb3 1_555 1_555
O9 C12_3 1_555 1_555
O6_3 Tb3 1_555 1_555
O7_3 Tb3 1_555 1_555
N1_3 C19_3 1_555 1_555
N2_2 C1_3 1_555 1_555
C1_3 H1_3 1_555 1_555
C2_3 C1_3 1_555 1_555
H2_3 C2_3 1_555 1_555
C3_3 C2_3 1_555 1_555
C4_3 C3_3 1_555 1_555
C5_3 N2_2 1_555 1_555
H4_3 C5_3 1_555 1_555
C6_3 C3_3 1_555 1_555
N3_3 Cu2_3 1_555 1_555
C7_3 N3_3 1_555 1_555
H5_3 C7_3 1_555 1_555
C8_3 C7_3 1_555 1_555
H6_3 C8_3 1_555 1_555
C9_3 C8_3 1_555 1_555
C10_3 C9_3 1_555 1_555
H7_3 C10_3 1_555 1_555
C11_3 N3_3 1_555 1_555
H8_3 C11_3 1_555 1_555
C12_3 O3_3 1_555 1_555
N6_2 C13_3 1_555 1_555
C13_3 H9_3 1_555 1_555
C14_3 C13_3 1_555 1_555
C15_3 C14_3 1_555 1_555
C16_3 C15_3 1_555 1_555
H11_3 C16_3 1_555 1_555
C17_3 N6_2 1_555 1_555
H12_3 C17_3 1_555 1_555
C18_3 O6_3 1_555 1_555
C19_3 O7_3 1_555 1_555
H13_3 C19_3 1_555 1_555
C20_2 N1_3 1_555 1_555
H14_2 C20_2 1_555 1_555
H15_2 C20_2 1_555 1_555
H16_2 C20_2 1_555 1_555
C21_3 N1_3 1_555 1_555
H17_3 C21_3 1_555 1_555
H18_3 C21_3 1_555 1_555
H19_3 C21_3 1_555 1_555
Cu7_2 N2_2 1_555 1_555
Cu6_2 I3_3 1_555 1_555
C4_3 C5_3 1_555 1_555
C9_3 C12_3 1_555 1_555
C10_3 C11_3 1_555 1_555
C15_3 C18_3 1_555 1_555
C16_3 C17_3 1_555 1_555
Cu4_2 I2_3 1_555 1_555
I2_3 Cu1_2 1_555 1_555
I4_3 Cu1_2 1_555 1_555
I5_2 Cu1_2 1_555 1_555
N5_2 Cu4_2 1_555 1_555
Cu4_2 I4_3 1_555 1_555
O7_4 Tb3_2 1_555 1_555
N1_4 C19_4 1_555 1_555
C19_4 O7_4 1_555 1_555
H13_4 C19_4 1_555 1_555
C21_4 N1_4 1_555 1_555
H17_4 C21_4 1_555 1_555
H19_4 C21_4 1_555 1_555
Cu5_2 I5_2 1_555 1_555
Cu2_4 I5_2 1_555 1_555
Cu6 I5_2 1_555 1_555
I2_4 Cu5_2 1_555 1_555
I4_4 Cu5_2 1_555 1_555
N3_4 Cu2_4 1_555 1_555
C7_4 N3_4 1_555 1_555
H5_4 C7_4 1_555 1_555
C8_4 C7_4 1_555 1_555
H6_4 C8_4 1_555 1_555
C9_4 C8_4 1_555 1_555
C12_4 O3_4 1_555 1_555
Cu2_4 I4_4 1_555 1_555
Cu6 I2_4 1_555 1_555
C9_4 C12_4 1_555 1_555
O10_2 C18_4 1_555 1_555
N6 C13_4 1_555 1_555
C13_4 H9_4 1_555 1_555
C14_4 C13_4 1_555 1_555
H10_4 C14_4 1_555 1_555
C15_4 C14_4 1_555 1_555
C16_4 C15_4 1_555 1_555
H11_4 C16_4 1_555 1_555
C17_4 N6 1_555 1_555
H12_4 C17_4 1_555 1_555
C18_4 O6_4 1_555 1_555
C15_4 C18_4 1_555 1_555
C16_4 C17_4 1_555 1_555
O1_4 C6_4 1_555 1_555
O8_2 C6_4 1_555 1_555
N5_2 C1_4 1_555 1_555
C2_4 C1_4 1_555 1_555
H2_4 C2_4 1_555 1_555
C3_4 C2_4 1_555 1_555
C4_4 C3_4 1_555 1_555
H3_4 C4_4 1_555 1_555
C5_4 N5_2 1_555 1_555
H4_4 C5_4 1_555 1_555
C6_4 C3_4 1_555 1_555
H7_4 C10_4 1_555 1_555
H8_4 C11_4 1_555 1_555
Cu7_2 I3_4 1_555 1_555
C4_4 C5_4 1_555 1_555
C10_4 C11_4 1_555 1_555
H14_3 C20_3 1_555 1_555
H15_3 C20_3 1_555 1_555
H14_4 C20_4 1_555 1_555
H15_4 C20_4 1_555 1_555

#END
