
###############################################################################
#
# This file contains modified crystal structure data generated from the
# MOF subset of the Cambridge Structural Database (CSD) v543 
# hosted by the Cambridge Crystallographic Data Centre (CCDC).
#
# This work is licensed under the Creative Commons
# Attribution-NonCommercial-ShareAlike 4.0 International License.
# To view a copy of this license, visit
# http://creativecommons.org/licenses/by-nc-sa/4.0/
# or send a letter to
# Creative Commons, PO Box 1866, Mountain View, CA 94042, USA.
#
# CIF created using the CSD Python API on 29 September 2022
# The structure has been converted into the P1 space group
# The structure has a 3D framework
# The original CSD entry OBAHAD is in the rhombohedral crystal system
# The framework has been calculated to contain at least 10.0% void space
# The void calculation uses a probe of radius 1.32A, grid spacing 0.4
#
###############################################################################

data_OBAHAD
_chemical_formula_moiety         '(C396 H234 N54 O72 Zn18)n'
_symmetry_cell_setting           triclinic
_symmetry_space_group_name_H-M   'P 1'
_symmetry_Int_Tables_number      1
_space_group_name_Hall           'P 1'
loop_
_symmetry_equiv_pos_site_id
_symmetry_equiv_pos_as_xyz
1 x,y,z
_cell_length_a                   30.298(3)
_cell_length_b                   30.298(3)
_cell_length_c                   17.8810(17)
_cell_angle_alpha                90
_cell_angle_beta                 90
_cell_angle_gamma                120
_cell_volume                     14215.1
loop_
_atom_site_label
_atom_site_type_symbol
_atom_site_fract_x
_atom_site_fract_y
_atom_site_fract_z
Zn1 Zn 0.63078(2) 0.85373(2) 0.52431(2)
N1 N 0.63828(7) 0.89330(7) 0.42583(9)
N2 N 0.60325(7) 0.79373(6) 0.44808(9)
N3 N 0.58592(7) 0.77179(6) 0.33002(10)
O1 O 0.47817(6) 0.49902(6) 0.24339(8)
O2 O 0.45258(6) 0.53149(6) 0.15242(8)
O3 O 0.58528(6) 0.62855(6) 0.74608(8)
O4 O 0.50214(7) 0.58957(7) 0.72938(9)
C1 C 0.65195(9) 0.94253(8) 0.41969(13)
H1 H 0.6622 0.9631 0.4634
C2 C 0.65181(11) 0.96456(9) 0.35229(15)
H2 H 0.6613 0.9995 0.3497
C3 C 0.63755(12) 0.93467(9) 0.28839(14)
H3 H 0.6374 0.9490 0.2412
C4 C 0.62359(10) 0.88386(9) 0.29375(12)
H4 H 0.6141 0.8628 0.2506
C5 C 0.62384(8) 0.86436(8) 0.36373(11)
C6 C 0.60574(8) 0.81048(8) 0.37882(11)
C7 C 0.58010(8) 0.74152(8) 0.44372(11)
C8 C 0.56919(8) 0.72710(8) 0.36946(11)
C9 C 0.54463(8) 0.67757(8) 0.33086(11)
C10 C 0.51879(9) 0.67186(8) 0.26379(12)
H5 H 0.5174 0.7000 0.2432
C11 C 0.49523(9) 0.62549(8) 0.22695(11)
H6 H 0.4777 0.6221 0.1814
C12 C 0.49689(8) 0.58386(8) 0.25577(11)
C13 C 0.52278(8) 0.58932(8) 0.32298(11)
H7 H 0.5239 0.5610 0.3436
C14 C 0.54678(8) 0.63584(8) 0.35972(11)
H8 H 0.5648 0.6394 0.4048
C15 C 0.47339(8) 0.53437(8) 0.21341(11)
C16 C 0.56999(8) 0.71097(8) 0.51228(11)
C17 C 0.60766(8) 0.72784(8) 0.56711(11)
H9 H 0.6390 0.7586 0.5600
C18 C 0.59946(9) 0.69971(8) 0.63220(11)
H10 H 0.6252 0.7114 0.6694
C19 C 0.55412(9) 0.65487(8) 0.64315(11)
C20 C 0.51576(9) 0.63893(9) 0.58956(12)
H11 H 0.4839 0.6089 0.5978
C21 C 0.52381(9) 0.66648(8) 0.52452(12)
H12 H 0.4977 0.6550 0.4879
C22 C 0.54706(9) 0.62278(8) 0.71110(11)
H13 H 0.5893(12) 0.7761(12) 0.2859(19)
Zn2 Zn 0.47960(2) 0.44372(3) 0.19098(2)
Zn3 Zn 0.52040(2) 0.55628(3) 0.80902(2)
O5 O 0.68752(8) 0.85516(6) 0.57672(8)
O6 O 0.62340(8) 0.91861(6) 0.58725(8)
O7 O 0.57924(10) 0.83547(7) 0.60395(9)
Zn2_2 Zn 0.55628(3) 0.03589(4) 0.19098(2)
Zn1_2 Zn 0.14627(2) 0.77705(3) 0.52431(2)
N1_2 N 0.10670(7) 0.74498(10) 0.42583(9)
N2_2 N 0.20627(6) 0.80952(9) 0.44808(9)
N3_2 N 0.22821(6) 0.81413(9) 0.33002(10)
O1_2 O 0.50098(6) 0.97915(8) 0.24339(8)
O2_2 O 0.46851(6) 0.92109(8) 0.15242(8)
O3_2 O 0.37145(6) 0.95673(8) 0.74608(8)
O4_2 O 0.41043(7) 0.91257(10) 0.72938(9)
C1_2 C 0.05747(8) 0.70942(12) 0.41969(13)
H1_2 H 0.0369 0.6991 0.4634
C2_2 C 0.03544(9) 0.68725(14) 0.35229(15)
H2_2 H 0.0005 0.6618 0.3497
C3_2 C 0.06533(9) 0.70288(15) 0.28839(14)
H3_2 H 0.0510 0.6884 0.2412
C4_2 C 0.11614(9) 0.73973(13) 0.29375(12)
H4_2 H 0.1372 0.7513 0.2506
C5_2 C 0.13564(8) 0.75948(11) 0.36373(11)
C6_2 C 0.18952(8) 0.79526(11) 0.37882(11)
C7_2 C 0.25848(8) 0.83858(11) 0.44372(11)
C8_2 C 0.27290(8) 0.84209(11) 0.36946(11)
C9_2 C 0.32243(8) 0.86706(11) 0.33086(11)
C10_2 C 0.32814(8) 0.84693(12) 0.26379(12)
H5_2 H 0.3000 0.8174 0.2432
C11_2 C 0.37451(8) 0.86974(12) 0.22695(11)
H6_2 H 0.3779 0.8556 0.1814
C12_2 C 0.41614(8) 0.91303(11) 0.25577(11)
C13_2 C 0.41068(8) 0.93346(11) 0.32298(11)
H7_2 H 0.4390 0.9629 0.3436
C14_2 C 0.36416(8) 0.91094(11) 0.35972(11)
H8_2 H 0.3606 0.9254 0.4048
C15_2 C 0.46563(8) 0.93902(11) 0.21341(11)
C16_2 C 0.28903(8) 0.85902(11) 0.51228(11)
C17_2 C 0.27216(8) 0.87982(11) 0.56711(11)
H9_2 H 0.2414 0.8804 0.5600
C18_2 C 0.30029(8) 0.89975(12) 0.63220(11)
H10_2 H 0.2886 0.9138 0.6694
C19_2 C 0.34513(8) 0.89925(12) 0.64315(11)
C20_2 C 0.36107(9) 0.87683(13) 0.58956(12)
H11_2 H 0.3911 0.8750 0.5978
C21_2 C 0.33352(8) 0.85733(12) 0.52452(12)
H12_2 H 0.3450 0.8427 0.4879
C22_2 C 0.37722(8) 0.92428(12) 0.71110(11)
H13_2 H 0.2239(12) 0.8132(17) 0.2859(19)
Zn3_2 Zn 0.44372(3) 0.96411(4) 0.80902(2)
O5_2 O 0.14484(6) 0.83235(10) 0.57672(8)
O6_2 O 0.08139(6) 0.70478(10) 0.58725(8)
O7_2 O 0.16453(7) 0.74376(12) 0.60395(9)
Zn1_3 Zn 0.22295(3) 0.36922(2) 0.52431(2)
N1_3 N 0.25502(10) 0.36172(7) 0.42583(9)
N2_3 N 0.19048(9) 0.39675(7) 0.44808(9)
N3_3 N 0.18587(9) 0.41408(7) 0.33002(10)
O1_3 O 0.02085(8) 0.52183(6) 0.24339(8)
O2_3 O 0.07891(8) 0.54742(6) 0.15242(8)
O3_3 O 0.04327(8) 0.41472(6) 0.74608(8)
O4_3 O 0.08743(10) 0.49786(7) 0.72938(9)
C1_3 C 0.29058(12) 0.34805(9) 0.41969(13)
H1_3 H 0.3009 0.3378 0.4634
C2_3 C 0.31275(14) 0.34819(11) 0.35229(15)
H2_3 H 0.3382 0.3387 0.3497
C3_3 C 0.29712(15) 0.36245(12) 0.28839(14)
H3_3 H 0.3116 0.3626 0.2412
C4_3 C 0.26027(13) 0.37641(10) 0.29375(12)
H4_3 H 0.2487 0.3859 0.2506
C5_3 C 0.24052(11) 0.37616(8) 0.36373(11)
C6_3 C 0.20474(11) 0.39426(8) 0.37882(11)
C7_3 C 0.16142(11) 0.41990(8) 0.44372(11)
C8_3 C 0.15791(11) 0.43081(8) 0.36946(11)
C9_3 C 0.13294(11) 0.45537(8) 0.33086(11)
C10_3 C 0.15307(12) 0.48121(9) 0.26379(12)
H5_3 H 0.1826 0.4826 0.2432
C11_3 C 0.13026(12) 0.50477(9) 0.22695(11)
H6_3 H 0.1444 0.5223 0.1814
C12_3 C 0.08697(11) 0.50311(8) 0.25577(11)
C13_3 C 0.06654(11) 0.47722(8) 0.32298(11)
H7_3 H 0.0371 0.4761 0.3436
C14_3 C 0.08906(11) 0.45322(8) 0.35972(11)
H8_3 H 0.0746 0.4352 0.4048
C15_3 C 0.06098(11) 0.52661(8) 0.21341(11)
C16_3 C 0.14098(11) 0.43001(8) 0.51228(11)
C17_3 C 0.12018(11) 0.39234(8) 0.56711(11)
H9_3 H 0.1196 0.3610 0.5600
C18_3 C 0.10025(12) 0.40054(9) 0.63220(11)
H10_3 H 0.0862 0.3748 0.6694
C19_3 C 0.10075(12) 0.44588(9) 0.64315(11)
C20_3 C 0.12317(13) 0.48424(9) 0.58956(12)
H11_3 H 0.1250 0.5161 0.5978
C21_3 C 0.14267(12) 0.47619(9) 0.52452(12)
H12_3 H 0.1573 0.5023 0.4879
C22_3 C 0.07572(12) 0.45294(9) 0.71110(11)
H13_3 H 0.1868(17) 0.4107(12) 0.2859(19)
Zn3_3 Zn 0.03589(4) 0.47960(2) 0.80902(2)
O5_3 O 0.16765(10) 0.31248(8) 0.57672(8)
O6_3 O 0.29522(10) 0.37660(8) 0.58725(8)
O7_3 O 0.25624(12) 0.42076(10) 0.60395(9)
Zn2_3 Zn 0.96411(4) 0.52040(2) 0.19098(2)
O2_4 O 0.11925(6) 0.86482(6) 0.48575(8)
C11_4 C 0.16190(9) 0.95882(8) 0.56028(11)
H6_4 H 0.1444 0.9554 0.5147
C12_4 C 0.16356(8) 0.91719(8) 0.58910(11)
C13_4 C 0.18945(8) 0.92265(8) 0.65631(11)
H7_4 H 0.1906 0.8943 0.6769
C14_4 C 0.21345(8) 0.96917(8) 0.69305(11)
H8_4 H 0.2315 0.9727 0.7381
C15_4 C 0.14006(8) 0.86770(8) 0.54674(11)
C19_4 C 0.22079(9) 0.98820(8) 0.97648(11)
C20_4 C 0.18243(9) 0.97226(9) 0.92289(12)
H11_4 H 0.1506 0.9422 0.9311
C21_4 C 0.19048(9) 0.99981(8) 0.85785(12)
H12_4 H 0.1644 0.9883 0.8212
O3_4 O 0.03812(6) 0.29006(8) 0.07941(8)
O4_4 O 0.07710(7) 0.24590(10) 0.06271(9)
C22_4 C 0.04389(8) 0.25761(12) 0.04443(11)
Zn3_4 Zn 0.11038(3) 0.29745(4) 0.14236(2)
O2_5 O 0.13518(6) 0.25442(8) 0.48575(8)
C11_5 C 0.04118(8) 0.20307(12) 0.56028(11)
H6_5 H 0.0446 0.1889 0.5147
C12_5 C 0.08281(8) 0.24636(11) 0.58910(11)
C13_5 C 0.07735(8) 0.26679(11) 0.65631(11)
H7_5 H 0.1057 0.2962 0.6769
C14_5 C 0.03083(8) 0.24427(11) 0.69305(11)
H8_5 H 0.0273 0.2587 0.7381
C15_5 C 0.13230(8) 0.27235(11) 0.54674(11)
C19_5 C 0.01180(8) 0.23258(12) 0.97648(11)
C20_5 C 0.02774(9) 0.21016(13) 0.92289(12)
H11_5 H 0.0578 0.2083 0.9311
C21_5 C 0.00019(8) 0.19066(12) 0.85785(12)
H12_5 H 0.0117 0.1760 0.8212
Zn1_4 Zn 0.88962(3) 0.70255(2) 0.85764(2)
N1_4 N 0.92169(10) 0.69505(7) 0.75916(9)
N2_4 N 0.85715(9) 0.73008(7) 0.78141(9)
N3_4 N 0.85254(9) 0.74741(7) 0.66335(10)
O2_6 O 0.74558(8) 0.88075(6) 0.48575(8)
C1_4 C 0.95725(12) 0.68138(9) 0.75302(13)
H1_4 H 0.9676 0.6711 0.7967
C2_4 C 0.97942(14) 0.68152(11) 0.68562(15)
C3_4 C 0.96379(15) 0.69578(12) 0.62172(14)
H3_4 H 0.9783 0.6959 0.5745
C4_4 C 0.92694(13) 0.70974(10) 0.62708(12)
H4_4 H 0.9154 0.7192 0.5839
C5_4 C 0.90719(11) 0.70949(8) 0.69706(11)
C6_4 C 0.87141(11) 0.72759(8) 0.71215(11)
C7_4 C 0.82809(11) 0.75323(8) 0.77705(11)
C8_4 C 0.82458(11) 0.76414(8) 0.70279(11)
C9_4 C 0.79961(11) 0.78870(8) 0.66419(11)
C10_4 C 0.81974(12) 0.81454(9) 0.59712(12)
H5_4 H 0.8493 0.8159 0.5765
C11_6 C 0.79693(12) 0.83810(9) 0.56028(11)
H6_6 H 0.8111 0.8556 0.5147
C12_6 C 0.75364(11) 0.83644(8) 0.58910(11)
C13_6 C 0.73321(11) 0.81055(8) 0.65631(11)
H7_6 H 0.7038 0.8094 0.6769
C14_6 C 0.75573(11) 0.78655(8) 0.69305(11)
H8_6 H 0.7413 0.7685 0.7381
C15_6 C 0.72765(11) 0.85994(8) 0.54674(11)
C16_4 C 0.80765(11) 0.76334(8) 0.84561(11)
C17_4 C 0.78685(11) 0.72567(8) 0.90044(11)
H9_4 H 0.7863 0.6943 0.8933
C18_4 C 0.76692(12) 0.73387(9) 0.96553(11)
C19_6 C 0.76742(12) 0.77921(9) 0.97648(11)
C20_6 C 0.78984(13) 0.81757(9) 0.92289(12)
H11_6 H 0.7917 0.8494 0.9311
C21_6 C 0.80934(12) 0.80952(9) 0.85785(12)
H12_6 H 0.8240 0.8356 0.8212
H13_4 H 0.8535(17) 0.7440(12) 0.6192(19)
O5_4 O 0.83431(10) 0.64582(8) 0.91006(8)
O6_4 O 0.96188(10) 0.70994(8) 0.92059(8)
O7_4 O 0.92290(12) 0.75410(10) 0.93729(9)
N1_5 N 0.97161(7) 0.55997(7) 0.09250(9)
N2_5 N 0.93658(7) 0.46040(6) 0.11475(9)
O3_5 O 0.91861(6) 0.29522(6) 0.41275(8)
O4_5 O 0.83547(7) 0.25624(7) 0.39605(9)
C1_5 C 0.98528(9) 0.60920(8) 0.08636(13)
H1_5 H 0.9955 0.6298 0.1301
C2_5 C 0.98514(11) 0.63123(9) 0.01896(15)
H2_4 H 0.9946 0.6662 0.0164
C5_5 C 0.95717(8) 0.53103(8) 0.03040(11)
C6_5 C 0.93907(8) 0.47715(8) 0.04549(11)
C7_5 C 0.91343(8) 0.40819(8) 0.11039(11)
C8_5 C 0.90252(8) 0.39377(8) 0.03613(11)
H7_7 H 0.8572 0.2277 0.0103
C14_7 C 0.88011(8) 0.30251(8) 0.02639(11)
H8_7 H 0.8981 0.3061 0.0715
C16_5 C 0.90332(8) 0.37764(8) 0.17895(11)
C17_5 C 0.94099(8) 0.39451(8) 0.23378(11)
H9_5 H 0.9723 0.4253 0.2267
C18_5 C 0.93279(9) 0.36638(8) 0.29887(11)
H10_4 H 0.9585 0.3781 0.3361
C19_7 C 0.88745(9) 0.32154(8) 0.30982(11)
C20_7 C 0.84909(9) 0.30560(9) 0.25623(12)
H11_7 H 0.8172 0.2756 0.2645
C21_7 C 0.85714(9) 0.33315(8) 0.19119(12)
H12_7 H 0.8310 0.3217 0.1546
C22_5 C 0.88039(9) 0.28945(8) 0.37777(11)
Zn3_5 Zn 0.85373(2) 0.22295(3) 0.47569(2)
O6_5 O 0.95673(8) 0.58528(6) 0.25392(8)
O7_5 O 0.91257(10) 0.50214(7) 0.27062(9)
N1_6 N 0.44003(7) 0.41165(10) 0.09250(9)
N2_6 N 0.53960(6) 0.47619(9) 0.11475(9)
O3_6 O 0.70478(6) 0.62340(8) 0.41275(8)
O4_6 O 0.74376(7) 0.57924(10) 0.39605(9)
C1_6 C 0.39080(8) 0.37609(12) 0.08636(13)
H1_6 H 0.3702 0.3658 0.1301
C2_6 C 0.36877(9) 0.35392(14) 0.01896(15)
H2_5 H 0.3338 0.3285 0.0164
C5_6 C 0.46897(8) 0.42615(11) 0.03040(11)
C6_6 C 0.52285(8) 0.46193(11) 0.04549(11)
C7_6 C 0.59181(8) 0.50525(11) 0.11039(11)
C8_6 C 0.60623(8) 0.50876(11) 0.03613(11)
H7_8 H 0.7723 0.6296 0.0103
C14_8 C 0.69749(8) 0.57761(11) 0.02639(11)
H8_8 H 0.6939 0.5921 0.0715
C16_6 C 0.62236(8) 0.52569(11) 0.17895(11)
C17_6 C 0.60549(8) 0.54649(11) 0.23378(11)
H9_6 H 0.5747 0.5471 0.2267
C18_6 C 0.63362(8) 0.56642(12) 0.29887(11)
H10_5 H 0.6219 0.5805 0.3361
C19_8 C 0.67846(8) 0.56592(12) 0.30982(11)
C20_8 C 0.69440(9) 0.54350(13) 0.25623(12)
H11_8 H 0.7244 0.5417 0.2645
C21_8 C 0.66685(8) 0.52400(12) 0.19119(12)
H12_8 H 0.6783 0.5094 0.1546
C22_6 C 0.71055(8) 0.59095(12) 0.37777(11)
Zn3_6 Zn 0.77705(3) 0.63078(4) 0.47569(2)
O6_6 O 0.41472(6) 0.37145(10) 0.25392(8)
O7_6 O 0.49786(7) 0.41043(12) 0.27062(9)
N3_5 N 0.56154(6) 0.48080(9) 0.99669(10)
O2_7 O 0.80184(6) 0.58776(8) 0.81909(8)
C3_5 C 0.39866(9) 0.36955(15) 0.95506(14)
H3_5 H 0.3843 0.3551 0.9079
C4_5 C 0.44947(9) 0.40640(13) 0.96042(12)
H4_5 H 0.4705 0.4180 0.9173
C9_5 C 0.65576(8) 0.53373(11) 0.99753(11)
C10_5 C 0.66147(8) 0.51360(12) 0.93046(12)
H5_5 H 0.6333 0.4841 0.9099
C11_7 C 0.70784(8) 0.53641(12) 0.89362(11)
H6_7 H 0.7112 0.5223 0.8481
C12_7 C 0.74947(8) 0.57970(11) 0.92244(11)
C13_7 C 0.74401(8) 0.60013(11) 0.98965(11)
C15_7 C 0.79896(8) 0.60569(11) 0.88008(11)
H13_5 H 0.5572(12) 0.4799(17) 0.9526(19)
N1_7 N 0.58835(10) 0.02839(7) 0.09250(9)
N2_7 N 0.52381(9) 0.06342(7) 0.11475(9)
O3_7 O 0.37660(8) 0.08139(6) 0.41275(8)
O4_7 O 0.42076(10) 0.16453(7) 0.39605(9)
C1_7 C 0.62391(12) 0.01472(9) 0.08636(13)
H1_7 H 0.6342 0.0045 0.1301
C2_7 C 0.64608(14) 0.01486(11) 0.01896(15)
H2_6 H 0.6715 0.0054 0.0164
C5_7 C 0.57385(11) 0.04283(8) 0.03040(11)
C6_7 C 0.53807(11) 0.06093(8) 0.04549(11)
C7_7 C 0.49475(11) 0.08657(8) 0.11039(11)
C8_7 C 0.49124(11) 0.09748(8) 0.03613(11)
H7_9 H 0.3704 0.1428 0.0103
C14_9 C 0.42239(11) 0.11989(8) 0.02639(11)
H8_9 H 0.4079 0.1019 0.0715
C16_7 C 0.47431(11) 0.09668(8) 0.17895(11)
C17_7 C 0.45351(11) 0.05901(8) 0.23378(11)
H9_7 H 0.4529 0.0277 0.2267
C18_7 C 0.43358(12) 0.06721(9) 0.29887(11)
H10_6 H 0.4195 0.0415 0.3361
C19_9 C 0.43408(12) 0.11255(9) 0.30982(11)
C20_9 C 0.45650(13) 0.15091(9) 0.25623(12)
H11_9 H 0.4583 0.1828 0.2645
C21_9 C 0.47600(12) 0.14286(9) 0.19119(12)
H12_9 H 0.4906 0.1690 0.1546
C22_7 C 0.40905(12) 0.11961(9) 0.37777(11)
Zn3_7 Zn 0.36922(4) 0.14627(2) 0.47569(2)
O6_7 O 0.62855(10) 0.04327(8) 0.25392(8)
O7_7 O 0.58957(12) 0.08743(10) 0.27062(9)
N1_8 N 0.36172(7) 0.10670(7) 0.57417(9)
N2_8 N 0.39675(7) 0.20627(6) 0.55192(9)
N3_6 N 0.41408(7) 0.22821(6) 0.66998(10)
O1_4 O 0.52183(6) 0.50098(6) 0.75661(8)
O2_8 O 0.54742(6) 0.46851(6) 0.84758(8)
C1_8 C 0.34805(9) 0.05747(8) 0.58031(13)
H1_8 H 0.3378 0.0369 0.5366
C2_8 C 0.34819(11) 0.03544(9) 0.64771(15)
H2_7 H 0.3387 0.0005 0.6503
C3_6 C 0.36245(12) 0.06533(9) 0.71161(14)
H3_6 H 0.3626 0.0510 0.7588
C4_6 C 0.37641(10) 0.11614(9) 0.70625(12)
H4_6 H 0.3859 0.1372 0.7494
C5_8 C 0.37616(8) 0.13564(8) 0.63627(11)
C6_8 C 0.39426(8) 0.18952(8) 0.62118(11)
C7_8 C 0.41990(8) 0.25848(8) 0.55628(11)
C8_8 C 0.43081(8) 0.27290(8) 0.63054(11)
C9_6 C 0.45537(8) 0.32243(8) 0.66914(11)
C10_6 C 0.48121(9) 0.32814(8) 0.73621(12)
H5_6 H 0.4826 0.3000 0.7568
C11_8 C 0.50477(9) 0.37451(8) 0.77305(11)
H6_8 H 0.5223 0.3779 0.8186
C12_8 C 0.50311(8) 0.41614(8) 0.74423(11)
C13_8 C 0.47722(8) 0.41068(8) 0.67702(11)
H7_10 H 0.4761 0.4390 0.6564
C14_10 C 0.45322(8) 0.36416(8) 0.64028(11)
H8_10 H 0.4352 0.3606 0.5952
C15_8 C 0.52661(8) 0.46563(8) 0.78659(11)
C16_8 C 0.43001(8) 0.28903(8) 0.48772(11)
C17_8 C 0.39234(8) 0.27216(8) 0.43289(11)
H9_8 H 0.3610 0.2414 0.4400
C18_8 C 0.40054(9) 0.30029(8) 0.36780(11)
H10_7 H 0.3748 0.2886 0.3306
C19_10 C 0.44588(9) 0.34513(8) 0.35685(11)
C20_10 C 0.48424(9) 0.36107(9) 0.41044(12)
H11_10 H 0.5161 0.3911 0.4022
C21_10 C 0.47619(9) 0.33352(8) 0.47548(12)
H12_10 H 0.5023 0.3450 0.5121
C22_8 C 0.45294(9) 0.37722(8) 0.28890(11)
H13_6 H 0.4107(12) 0.2239(12) 0.7141(19)
O5_5 O 0.31248(8) 0.14484(6) 0.42328(8)
N1_9 N 0.89330(7) 0.25502(10) 0.57417(9)
N2_9 N 0.79373(6) 0.19048(9) 0.55192(9)
N3_7 N 0.77179(6) 0.18587(9) 0.66998(10)
O1_5 O 0.49902(6) 0.02085(8) 0.75661(8)
O2_9 O 0.53149(6) 0.07891(8) 0.84758(8)
C1_9 C 0.94253(8) 0.29058(12) 0.58031(13)
H1_9 H 0.9631 0.3009 0.5366
C2_9 C 0.96456(9) 0.31275(14) 0.64771(15)
H2_8 H 0.9995 0.3382 0.6503
C3_7 C 0.93467(9) 0.29712(15) 0.71161(14)
H3_7 H 0.9490 0.3116 0.7588
C4_7 C 0.88386(9) 0.26027(13) 0.70625(12)
H4_7 H 0.8628 0.2487 0.7494
C5_9 C 0.86436(8) 0.24052(11) 0.63627(11)
C6_9 C 0.81048(8) 0.20474(11) 0.62118(11)
C7_9 C 0.74152(8) 0.16142(11) 0.55628(11)
C8_9 C 0.72710(8) 0.15791(11) 0.63054(11)
C9_7 C 0.67757(8) 0.13294(11) 0.66914(11)
C10_7 C 0.67186(8) 0.15307(12) 0.73621(12)
H5_7 H 0.7000 0.1826 0.7568
C11_9 C 0.62549(8) 0.13026(12) 0.77305(11)
H6_9 H 0.6221 0.1444 0.8186
C12_9 C 0.58386(8) 0.08697(11) 0.74423(11)
C13_9 C 0.58932(8) 0.06654(11) 0.67702(11)
H7_11 H 0.5610 0.0371 0.6564
C14_11 C 0.63584(8) 0.08906(11) 0.64028(11)
H8_11 H 0.6394 0.0746 0.5952
C15_9 C 0.53437(8) 0.06098(11) 0.78659(11)
C16_9 C 0.71097(8) 0.14098(11) 0.48772(11)
C17_9 C 0.72784(8) 0.12018(11) 0.43289(11)
H9_9 H 0.7586 0.1196 0.4400
C18_9 C 0.69971(8) 0.10025(12) 0.36780(11)
H10_8 H 0.7114 0.0862 0.3306
C19_11 C 0.65487(8) 0.10075(12) 0.35685(11)
C20_11 C 0.63893(9) 0.12317(13) 0.41044(12)
H11_11 H 0.6089 0.1250 0.4022
C21_11 C 0.66648(8) 0.14267(12) 0.47548(12)
H12_11 H 0.6550 0.1573 0.5121
C22_9 C 0.62278(8) 0.07572(12) 0.28890(11)
H13_7 H 0.7761(12) 0.1868(17) 0.7141(19)
O5_6 O 0.85516(6) 0.16765(10) 0.42328(8)
N1_10 N 0.74498(10) 0.63828(7) 0.57417(9)
N2_10 N 0.80952(9) 0.60325(7) 0.55192(9)
N3_8 N 0.81413(9) 0.58592(7) 0.66998(10)
O1_6 O 0.97915(8) 0.47817(6) 0.75661(8)
O2_10 O 0.92109(8) 0.45258(6) 0.84758(8)
C1_10 C 0.70942(12) 0.65195(9) 0.58031(13)
H1_10 H 0.6991 0.6622 0.5366
C2_10 C 0.68725(14) 0.65181(11) 0.64771(15)
H2_9 H 0.6618 0.6613 0.6503
C3_8 C 0.70288(15) 0.63755(12) 0.71161(14)
H3_8 H 0.6884 0.6374 0.7588
C4_8 C 0.73973(13) 0.62359(10) 0.70625(12)
H4_8 H 0.7513 0.6141 0.7494
C5_10 C 0.75948(11) 0.62384(8) 0.63627(11)
C6_10 C 0.79526(11) 0.60574(8) 0.62118(11)
C7_10 C 0.83858(11) 0.58010(8) 0.55628(11)
C8_10 C 0.84209(11) 0.56919(8) 0.63054(11)
C9_8 C 0.86706(11) 0.54463(8) 0.66914(11)
C10_8 C 0.84693(12) 0.51879(9) 0.73621(12)
H5_8 H 0.8174 0.5174 0.7568
C11_10 C 0.86974(12) 0.49523(9) 0.77305(11)
H6_10 H 0.8556 0.4777 0.8186
C12_10 C 0.91303(11) 0.49689(8) 0.74423(11)
C13_10 C 0.93346(11) 0.52278(8) 0.67702(11)
H7_12 H 0.9629 0.5239 0.6564
C14_12 C 0.91094(11) 0.54678(8) 0.64028(11)
H8_12 H 0.9254 0.5648 0.5952
C15_10 C 0.93902(11) 0.47339(8) 0.78659(11)
C16_10 C 0.85902(11) 0.56999(8) 0.48772(11)
C17_10 C 0.87982(11) 0.60766(8) 0.43289(11)
H9_10 H 0.8804 0.6390 0.4400
C18_10 C 0.89975(12) 0.59946(9) 0.36780(11)
H10_9 H 0.9138 0.6252 0.3306
C19_12 C 0.89925(12) 0.55412(9) 0.35685(11)
C20_12 C 0.87683(13) 0.51576(9) 0.41044(12)
H11_12 H 0.8750 0.4839 0.4022
C21_12 C 0.85733(12) 0.52381(9) 0.47548(12)
H12_12 H 0.8427 0.4977 0.5121
C22_10 C 0.92428(12) 0.54706(9) 0.28890(11)
H13_8 H 0.8132(17) 0.5893(12) 0.7141(19)
O5_7 O 0.83235(10) 0.68752(8) 0.42328(8)
O2_11 O 0.88075(6) 0.13518(6) 0.51425(8)
C11_11 C 0.83810(9) 0.04118(8) 0.43972(11)
H6_11 H 0.8556 0.0446 0.4853
C12_11 C 0.83644(8) 0.08281(8) 0.41090(11)
C13_11 C 0.81055(8) 0.07735(8) 0.34369(11)
H7_13 H 0.8094 0.1057 0.3231
C14_13 C 0.78655(8) 0.03083(8) 0.30695(11)
H8_13 H 0.7685 0.0273 0.2619
C15_11 C 0.85994(8) 0.13230(8) 0.45326(11)
C19_13 C 0.77921(9) 0.01180(8) 0.02352(11)
C20_13 C 0.81757(9) 0.02774(9) 0.07711(12)
H11_13 H 0.8494 0.0578 0.0689
C21_13 C 0.80952(9) 0.00019(8) 0.14215(12)
H12_13 H 0.8356 0.0117 0.1788
O2_12 O 0.86482(6) 0.74558(8) 0.51425(8)
C11_12 C 0.95882(8) 0.79693(12) 0.43972(11)
H6_12 H 0.9554 0.8111 0.4853
C12_12 C 0.91719(8) 0.75364(11) 0.41090(11)
C13_12 C 0.92265(8) 0.73321(11) 0.34369(11)
H7_14 H 0.8943 0.7038 0.3231
C14_14 C 0.96917(8) 0.75573(11) 0.30695(11)
H8_14 H 0.9727 0.7413 0.2619
C15_12 C 0.86770(8) 0.72765(11) 0.45326(11)
C19_14 C 0.98820(8) 0.76742(12) 0.02352(11)
C20_14 C 0.97226(9) 0.78984(13) 0.07711(12)
H11_14 H 0.9422 0.7917 0.0689
C21_14 C 0.99981(8) 0.80934(12) 0.14215(12)
H12_14 H 0.9883 0.8240 0.1788
C22_11 C 0.95611(8) 0.74239(12) 0.95557(11)
N1_11 N 0.07831(10) 0.30495(7) 0.24084(9)
N2_11 N 0.14285(9) 0.26992(7) 0.21859(9)
N3_9 N 0.14746(9) 0.25259(7) 0.33665(10)
O2_13 O 0.25442(8) 0.11925(6) 0.51425(8)
C1_11 C 0.04275(12) 0.31862(9) 0.24698(13)
H1_11 H 0.0324 0.3289 0.2033
C2_11 C 0.02058(14) 0.31848(11) 0.31438(15)
C3_9 C 0.03621(15) 0.30422(12) 0.37828(14)
H3_9 H 0.0217 0.3041 0.4255
C4_9 C 0.07306(13) 0.29026(10) 0.37292(12)
H4_9 H 0.0846 0.2808 0.4161
C5_11 C 0.09281(11) 0.29051(8) 0.30294(11)
C6_11 C 0.12859(11) 0.27241(8) 0.28785(11)
C7_11 C 0.17191(11) 0.24677(8) 0.22295(11)
C8_11 C 0.17542(11) 0.23586(8) 0.29721(11)
C9_9 C 0.20039(11) 0.21130(8) 0.33581(11)
C10_9 C 0.18026(12) 0.18546(9) 0.40288(12)
H5_9 H 0.1507 0.1841 0.4235
C11_13 C 0.20307(12) 0.16190(9) 0.43972(11)
H6_13 H 0.1889 0.1444 0.4853
C12_13 C 0.24636(11) 0.16356(8) 0.41090(11)
C13_13 C 0.26679(11) 0.18945(8) 0.34369(11)
H7_15 H 0.2962 0.1906 0.3231
C14_15 C 0.24427(11) 0.21345(8) 0.30695(11)
H8_15 H 0.2587 0.2315 0.2619
C15_13 C 0.27235(11) 0.14006(8) 0.45326(11)
C16_11 C 0.19235(11) 0.23666(8) 0.15439(11)
C17_11 C 0.21315(11) 0.27433(8) 0.09956(11)
H9_11 H 0.2137 0.3057 0.1067
C18_11 C 0.23308(12) 0.26613(9) 0.03447(11)
C19_15 C 0.23258(12) 0.22079(9) 0.02352(11)
C20_15 C 0.21016(13) 0.18243(9) 0.07711(12)
H11_15 H 0.2083 0.1506 0.0689
C21_15 C 0.19066(12) 0.19048(9) 0.14215(12)
H12_15 H 0.1760 0.1644 0.1788
H13_9 H 0.1465(17) 0.2560(12) 0.3808(19)
O5_8 O 0.16569(10) 0.35418(8) 0.08994(8)
N1_12 N 0.02839(7) 0.44003(7) 0.90750(9)
N2_12 N 0.06342(7) 0.53960(6) 0.88525(9)
C1_12 C 0.01472(9) 0.39080(8) 0.91364(13)
H1_12 H 0.0045 0.3702 0.8699
C2_12 C 0.01486(11) 0.36877(9) 0.98104(15)
H2_10 H 0.0054 0.3338 0.9836
C5_12 C 0.04283(8) 0.46897(8) 0.96960(11)
C6_12 C 0.06093(8) 0.52285(8) 0.95451(11)
C7_12 C 0.08657(8) 0.59181(8) 0.88961(11)
C8_12 C 0.09748(8) 0.60623(8) 0.96387(11)
H7_16 H 0.1428 0.7723 0.9897
C14_16 C 0.11989(8) 0.69749(8) 0.97361(11)
H8_16 H 0.1019 0.6939 0.9285
C16_12 C 0.09668(8) 0.62236(8) 0.82105(11)
C17_12 C 0.05901(8) 0.60549(8) 0.76622(11)
H9_12 H 0.0277 0.5747 0.7733
C18_12 C 0.06721(9) 0.63362(8) 0.70113(11)
H10_10 H 0.0415 0.6219 0.6639
C19_16 C 0.11255(9) 0.67846(8) 0.69018(11)
C20_16 C 0.15091(9) 0.69440(9) 0.74377(12)
H11_16 H 0.1828 0.7244 0.7355
C21_16 C 0.14286(9) 0.66685(8) 0.80881(12)
H12_16 H 0.1690 0.6783 0.8454
C22_12 C 0.11961(9) 0.71055(8) 0.62223(11)
N3_10 N 0.43846(6) 0.51920(9) 0.00331(10)
O2_14 O 0.19816(6) 0.41224(8) 0.18091(8)
C3_10 C 0.60134(9) 0.63045(15) 0.04494(14)
H3_10 H 0.6157 0.6449 0.0921
C4_10 C 0.55053(9) 0.59360(13) 0.03958(12)
H4_10 H 0.5295 0.5820 0.0827
C9_10 C 0.34424(8) 0.46627(11) 0.00247(11)
C10_10 C 0.33853(8) 0.48640(12) 0.06954(12)
H5_10 H 0.3667 0.5159 0.0901
C11_14 C 0.29216(8) 0.46359(12) 0.10638(11)
H6_14 H 0.2888 0.4777 0.1519
C12_14 C 0.25053(8) 0.42030(11) 0.07756(11)
C13_14 C 0.25599(8) 0.39987(11) 0.01035(11)
C15_14 C 0.20104(8) 0.39431(11) 0.11992(11)
H13_10 H 0.4428(12) 0.5201(17) 0.0474(19)
N1_13 N 0.55997(7) 0.58835(10) 0.90750(9)
N2_13 N 0.46040(6) 0.52381(9) 0.88525(9)
C1_13 C 0.60920(8) 0.62391(12) 0.91364(13)
H1_13 H 0.6298 0.6342 0.8699
C2_13 C 0.63123(9) 0.64608(14) 0.98104(15)
H2_11 H 0.6662 0.6715 0.9836
C5_13 C 0.53103(8) 0.57385(11) 0.96960(11)
C6_13 C 0.47715(8) 0.53807(11) 0.95451(11)
C7_13 C 0.40819(8) 0.49475(11) 0.88961(11)
C8_13 C 0.39377(8) 0.49124(11) 0.96387(11)
H7_17 H 0.2277 0.3704 0.9897
C14_17 C 0.30251(8) 0.42239(11) 0.97361(11)
H8_17 H 0.3061 0.4079 0.9285
C16_13 C 0.37764(8) 0.47431(11) 0.82105(11)
C17_13 C 0.39451(8) 0.45351(11) 0.76622(11)
H9_13 H 0.4253 0.4529 0.7733
C18_13 C 0.36638(8) 0.43358(12) 0.70113(11)
H10_11 H 0.3781 0.4195 0.6639
C19_17 C 0.32154(8) 0.43408(12) 0.69018(11)
C20_17 C 0.30560(9) 0.45650(13) 0.74377(12)
H11_17 H 0.2756 0.4583 0.7355
C21_17 C 0.33315(8) 0.47600(12) 0.80881(12)
H12_17 H 0.3217 0.4906 0.8454
C22_13 C 0.28945(8) 0.40905(12) 0.62223(11)
N1_14 N 0.41165(10) 0.97161(7) 0.90750(9)
N2_14 N 0.47619(9) 0.93658(7) 0.88525(9)
C1_14 C 0.37609(12) 0.98528(9) 0.91364(13)
H1_14 H 0.3658 0.9955 0.8699
C2_14 C 0.35392(14) 0.98514(11) 0.98104(15)
H2_12 H 0.3285 0.9946 0.9836
C5_14 C 0.42615(11) 0.95717(8) 0.96960(11)
C6_14 C 0.46193(11) 0.93907(8) 0.95451(11)
C7_14 C 0.50525(11) 0.91343(8) 0.88961(11)
C8_14 C 0.50876(11) 0.90252(8) 0.96387(11)
H7_18 H 0.6296 0.8572 0.9897
C14_18 C 0.57761(11) 0.88011(8) 0.97361(11)
H8_18 H 0.5921 0.8981 0.9285
C16_14 C 0.52569(11) 0.90332(8) 0.82105(11)
C17_14 C 0.54649(11) 0.94099(8) 0.76622(11)
H9_14 H 0.5471 0.9723 0.7733
C18_14 C 0.56642(12) 0.93279(9) 0.70113(11)
H10_12 H 0.5805 0.9585 0.6639
C19_18 C 0.56592(12) 0.88745(9) 0.69018(11)
C20_18 C 0.54350(13) 0.84909(9) 0.74377(12)
H11_18 H 0.5417 0.8172 0.7355
C21_18 C 0.52400(12) 0.85714(9) 0.80881(12)
H12_18 H 0.5094 0.8310 0.8454
C22_14 C 0.59095(12) 0.88039(9) 0.62223(11)
H10_13 H 0.2919 0.0447 0.0027
Zn1_5 Zn 0.29745(2) 0.18706(2) 0.85764(2)
N1_15 N 0.30495(7) 0.22663(7) 0.75916(9)
N2_15 N 0.26992(7) 0.12706(6) 0.78141(9)
N3_11 N 0.25259(7) 0.10512(6) 0.66335(10)
C1_15 C 0.31862(9) 0.27586(8) 0.75302(13)
H1_15 H 0.3289 0.2964 0.7967
C2_15 C 0.31848(11) 0.29789(9) 0.68562(15)
H2_13 H 0.3280 0.3328 0.6830
C3_11 C 0.30422(12) 0.26800(9) 0.62172(14)
H3_11 H 0.3041 0.2823 0.5745
C4_11 C 0.29026(10) 0.21719(9) 0.62708(12)
H4_11 H 0.2808 0.1961 0.5839
C5_15 C 0.29051(8) 0.19769(8) 0.69706(11)
C6_15 C 0.27241(8) 0.14381(8) 0.71215(11)
C7_15 C 0.24677(8) 0.07485(8) 0.77705(11)
C8_15 C 0.23586(8) 0.06043(8) 0.70279(11)
C9_11 C 0.21130(8) 0.01090(8) 0.66419(11)
C10_11 C 0.18546(9) 0.00519(8) 0.59712(12)
H5_11 H 0.1841 0.0333 0.5765
C16_15 C 0.23666(8) 0.04430(8) 0.84561(11)
C17_15 C 0.27433(8) 0.06117(8) 0.90044(11)
H9_15 H 0.3057 0.0919 0.8933
C18_15 C 0.26613(9) 0.03304(8) 0.96553(11)
H13_11 H 0.2560(12) 0.1094(12) 0.6192(19)
O5_9 O 0.35418(8) 0.18850(6) 0.91006(8)
O6_8 O 0.29006(8) 0.25195(6) 0.92059(8)
O7_8 O 0.24590(10) 0.16881(7) 0.93729(9)
N3_12 N 0.51920(9) 0.08075(7) 0.99669(10)
O2_15 O 0.41224(8) 0.21409(6) 0.81909(8)
C3_12 C 0.63045(15) 0.02912(12) 0.95506(14)
H3_12 H 0.6449 0.0293 0.9079
C4_12 C 0.59360(13) 0.04308(10) 0.96042(12)
H4_12 H 0.5820 0.0526 0.9173
C9_12 C 0.46627(11) 0.12204(8) 0.99753(11)
C10_12 C 0.48640(12) 0.14788(9) 0.93046(12)
H5_12 H 0.5159 0.1493 0.9099
C11_15 C 0.46359(12) 0.17144(9) 0.89362(11)
H6_15 H 0.4777 0.1890 0.8481
C12_15 C 0.42030(11) 0.16978(8) 0.92244(11)
C13_15 C 0.39987(11) 0.14389(8) 0.98965(11)
C15_15 C 0.39431(11) 0.19328(8) 0.88008(11)
H13_12 H 0.5201(17) 0.0774(12) 0.9526(19)
H10_14 H 0.2471 0.2919 0.9973
C22_15 C 0.25761(12) 0.21373(9) 0.95557(11)
O3_8 O 0.25195(6) 0.96188(6) 0.07941(8)
O4_8 O 0.16881(7) 0.92290(7) 0.06271(9)
C22_16 C 0.21373(9) 0.95611(8) 0.04443(11)
Zn3_8 Zn 0.18706(2) 0.88962(3) 0.14236(2)
N1_16 N 0.22663(7) 0.92169(10) 0.24084(9)
N2_16 N 0.12706(6) 0.85715(9) 0.21859(9)
N3_13 N 0.10512(6) 0.85254(9) 0.33665(10)
C1_16 C 0.27586(8) 0.95725(12) 0.24698(13)
H1_16 H 0.2964 0.9676 0.2033
C2_16 C 0.29789(9) 0.97942(14) 0.31438(15)
C3_13 C 0.26800(9) 0.96379(15) 0.37828(14)
H3_13 H 0.2823 0.9783 0.4255
C4_13 C 0.21719(9) 0.92694(13) 0.37292(12)
H4_13 H 0.1961 0.9154 0.4161
C5_16 C 0.19769(8) 0.90719(11) 0.30294(11)
C6_16 C 0.14381(8) 0.87141(11) 0.28785(11)
C7_16 C 0.07485(8) 0.82809(11) 0.22295(11)
C8_16 C 0.06043(8) 0.82458(11) 0.29721(11)
C9_13 C 0.01090(8) 0.79961(11) 0.33581(11)
C10_13 C 0.00519(8) 0.81974(12) 0.40288(12)
H5_13 H 0.0333 0.8493 0.4235
C16_16 C 0.04430(8) 0.80765(11) 0.15439(11)
C17_16 C 0.06117(8) 0.78685(11) 0.09956(11)
H9_16 H 0.0919 0.7863 0.1067
C18_16 C 0.03304(8) 0.76692(12) 0.03447(11)
H13_13 H 0.1094(12) 0.8535(17) 0.3808(19)
O5_10 O 0.18850(6) 0.83431(10) 0.08994(8)
N3_14 N 0.08075(7) 0.56154(6) 0.00331(10)
O2_16 O 0.21409(6) 0.80184(6) 0.18091(8)
C3_14 C 0.02912(12) 0.39866(9) 0.04494(14)
H3_14 H 0.0293 0.3843 0.0921
C4_14 C 0.04308(10) 0.44947(9) 0.03958(12)
H4_14 H 0.0526 0.4705 0.0827
C9_14 C 0.12204(8) 0.65576(8) 0.00247(11)
C10_14 C 0.14788(9) 0.66147(8) 0.06954(12)
H5_14 H 0.1493 0.6333 0.0901
C11_16 C 0.17144(9) 0.70784(8) 0.10638(11)
H6_16 H 0.1890 0.7112 0.1519
C12_16 C 0.16978(8) 0.74947(8) 0.07756(11)
C13_16 C 0.14389(8) 0.74401(8) 0.01035(11)
C15_16 C 0.19328(8) 0.79896(8) 0.11992(11)
H13_14 H 0.0774(12) 0.5572(12) 0.0474(19)
H10_15 H 0.9553 0.2471 0.0027
Zn1_6 Zn 0.81294(2) 0.11038(3) 0.85764(2)
N1_17 N 0.77337(7) 0.07831(10) 0.75916(9)
N2_17 N 0.87294(6) 0.14285(9) 0.78141(9)
N3_15 N 0.89488(6) 0.14746(9) 0.66335(10)
C1_17 C 0.72414(8) 0.04275(12) 0.75302(13)
H1_17 H 0.7036 0.0324 0.7967
C2_17 C 0.70211(9) 0.02058(14) 0.68562(15)
C3_15 C 0.73200(9) 0.03621(15) 0.62172(14)
H3_15 H 0.7177 0.0217 0.5745
C4_15 C 0.78281(9) 0.07306(13) 0.62708(12)
H4_15 H 0.8039 0.0846 0.5839
C5_17 C 0.80231(8) 0.09281(11) 0.69706(11)
C6_17 C 0.85619(8) 0.12859(11) 0.71215(11)
C7_17 C 0.92515(8) 0.17191(11) 0.77705(11)
C8_17 C 0.93957(8) 0.17542(11) 0.70279(11)
C9_15 C 0.98910(8) 0.20039(11) 0.66419(11)
C10_15 C 0.99481(8) 0.18026(12) 0.59712(12)
H5_15 H 0.9667 0.1507 0.5765
C16_17 C 0.95570(8) 0.19235(11) 0.84561(11)
C17_17 C 0.93883(8) 0.21315(11) 0.90044(11)
H9_17 H 0.9081 0.2137 0.8933
C18_17 C 0.96696(8) 0.23308(12) 0.96553(11)
H13_15 H 0.8906(12) 0.1465(17) 0.6192(19)
O5_11 O 0.81150(6) 0.16569(10) 0.91006(8)
O6_9 O 0.74805(6) 0.03812(10) 0.92059(8)
O7_9 O 0.83119(7) 0.07710(12) 0.93729(9)
N3_16 N 0.91925(7) 0.43846(6) 0.99669(10)
O2_17 O 0.78591(6) 0.19816(6) 0.81909(8)
C3_16 C 0.97088(12) 0.60134(9) 0.95506(14)
H3_16 H 0.9707 0.6157 0.9079
C4_16 C 0.95692(10) 0.55053(9) 0.96042(12)
H4_16 H 0.9474 0.5295 0.9173
C9_16 C 0.87796(8) 0.34424(8) 0.99753(11)
C10_16 C 0.85212(9) 0.33853(8) 0.93046(12)
H5_16 H 0.8507 0.3667 0.9099
C11_17 C 0.82856(9) 0.29216(8) 0.89362(11)
H6_17 H 0.8110 0.2888 0.8481
C12_17 C 0.83022(8) 0.25053(8) 0.92244(11)
C13_17 C 0.85611(8) 0.25599(8) 0.98965(11)
C15_17 C 0.80672(8) 0.20104(8) 0.88008(11)
H13_16 H 0.9226(12) 0.4428(12) 0.9526(19)
C22_17 C 0.78627(9) 0.04389(8) 0.95557(11)
H2_14 H 0.6672 0.9951 0.6830
H2_15 H 0.0049 0.6720 0.6830
O3_9 O 0.70994(8) 0.74805(6) 0.07941(8)
O4_9 O 0.75410(10) 0.83119(7) 0.06271(9)
H10_16 H 0.7529 0.7081 0.0027
C22_18 C 0.74239(12) 0.78627(9) 0.04443(11)
Zn3_9 Zn 0.70255(4) 0.81294(2) 0.14236(2)
N1_18 N 0.69505(7) 0.77337(7) 0.24084(9)
N2_18 N 0.73008(7) 0.87294(6) 0.21859(9)
N3_17 N 0.74741(7) 0.89488(6) 0.33665(10)
C1_18 C 0.68138(9) 0.72414(8) 0.24698(13)
H1_18 H 0.6711 0.7036 0.2033
C2_18 C 0.68152(11) 0.70211(9) 0.31438(15)
H2_16 H 0.6720 0.6672 0.3170
C3_17 C 0.69578(12) 0.73200(9) 0.37828(14)
H3_17 H 0.6959 0.7177 0.4255
C4_17 C 0.70974(10) 0.78281(9) 0.37292(12)
H4_17 H 0.7192 0.8039 0.4161
C5_18 C 0.70949(8) 0.80231(8) 0.30294(11)
C6_18 C 0.72759(8) 0.85619(8) 0.28785(11)
C7_18 C 0.75323(8) 0.92515(8) 0.22295(11)
C8_18 C 0.76414(8) 0.93957(8) 0.29721(11)
C9_17 C 0.78870(8) 0.98910(8) 0.33581(11)
C10_17 C 0.81454(9) 0.99481(8) 0.40288(12)
H5_17 H 0.8159 0.9667 0.4235
C16_18 C 0.76334(8) 0.95570(8) 0.15439(11)
C17_18 C 0.72567(8) 0.93883(8) 0.09956(11)
H9_18 H 0.6943 0.9081 0.1067
C18_18 C 0.73387(9) 0.96696(8) 0.03447(11)
H13_17 H 0.7440(12) 0.8906(12) 0.3808(19)
O5_12 O 0.64582(8) 0.81150(6) 0.08994(8)
N3_18 N 0.48080(9) 0.91925(7) 0.00331(10)
O2_18 O 0.58776(8) 0.78591(6) 0.18091(8)
C3_18 C 0.36955(15) 0.97088(12) 0.04494(14)
H3_18 H 0.3551 0.9707 0.0921
C4_18 C 0.40640(13) 0.95692(10) 0.03958(12)
H4_18 H 0.4180 0.9474 0.0827
C9_18 C 0.53373(11) 0.87796(8) 0.00247(11)
C10_18 C 0.51360(12) 0.85212(9) 0.06954(12)
H5_18 H 0.4841 0.8507 0.0901
C11_18 C 0.53641(12) 0.82856(9) 0.10638(11)
H6_18 H 0.5223 0.8110 0.1519
C12_18 C 0.57970(11) 0.83022(8) 0.07756(11)
C13_18 C 0.60013(11) 0.85611(8) 0.01035(11)
C15_18 C 0.60569(11) 0.80672(8) 0.11992(11)
H13_18 H 0.4799(17) 0.9226(12) 0.0474(19)
H10_17 H 0.7081 0.9553 0.9973
H2_17 H 0.3328 0.0049 0.3170
H10_18 H 0.0447 0.7529 0.9973
H2_18 H 0.9951 0.3280 0.3170
loop_
_geom_bond_atom_site_label_1
_geom_bond_atom_site_label_2
_geom_bond_site_symmetry_1
_geom_bond_site_symmetry_2
Zn1 N1 1_555 1_555
N1 C1 1_555 1_555
N2 Zn1 1_555 1_555
N3 C6 1_555 1_555
O1 C15 1_555 1_555
O2 C15 1_555 1_555
O3 C22 1_555 1_555
O4 C22 1_555 1_555
C1 H1 1_555 1_555
C2 C1 1_555 1_555
H2 C2 1_555 1_555
C3 C2 1_555 1_555
H3 C3 1_555 1_555
C4 C3 1_555 1_555
H4 C4 1_555 1_555
C5 N1 1_555 1_555
C6 N2 1_555 1_555
C7 N2 1_555 1_555
C8 N3 1_555 1_555
C9 C8 1_555 1_555
C10 C9 1_555 1_555
H5 C10 1_555 1_555
C11 C10 1_555 1_555
H6 C11 1_555 1_555
C12 C11 1_555 1_555
C13 C12 1_555 1_555
H7 C13 1_555 1_555
C14 C9 1_555 1_555
H8 C14 1_555 1_555
C15 C12 1_555 1_555
C16 C7 1_555 1_555
C17 C16 1_555 1_555
H9 C17 1_555 1_555
C18 C17 1_555 1_555
H10 C18 1_555 1_555
C19 C18 1_555 1_555
C20 C19 1_555 1_555
H11 C20 1_555 1_555
C21 C16 1_555 1_555
H12 C21 1_555 1_555
C22 C19 1_555 1_555
H13 N3 1_555 1_555
Zn2 O1 1_555 1_555
Zn3 O3 1_555 1_555
O5 Zn1 1_555 1_555
O6 Zn1 1_555 1_555
O7 Zn1 1_555 1_555
O4 Zn3 1_555 1_555
C4 C5 1_555 1_555
C5 C6 1_555 1_555
C7 C8 1_555 1_555
C13 C14 1_555 1_555
C20 C21 1_555 1_555
Zn1_2 N1_2 1_555 1_555
N1_2 C1_2 1_555 1_555
N2_2 Zn1_2 1_555 1_555
N3_2 C6_2 1_555 1_555
O1_2 C15_2 1_555 1_555
O2_2 C15_2 1_555 1_555
O3_2 C22_2 1_555 1_555
O4_2 C22_2 1_555 1_555
C1_2 H1_2 1_555 1_555
C2_2 C1_2 1_555 1_555
H2_2 C2_2 1_555 1_555
C3_2 C2_2 1_555 1_555
H3_2 C3_2 1_555 1_555
C4_2 C3_2 1_555 1_555
H4_2 C4_2 1_555 1_555
C5_2 N1_2 1_555 1_555
C6_2 N2_2 1_555 1_555
C7_2 N2_2 1_555 1_555
C8_2 N3_2 1_555 1_555
C9_2 C8_2 1_555 1_555
C10_2 C9_2 1_555 1_555
H5_2 C10_2 1_555 1_555
C11_2 C10_2 1_555 1_555
H6_2 C11_2 1_555 1_555
C12_2 C11_2 1_555 1_555
C13_2 C12_2 1_555 1_555
H7_2 C13_2 1_555 1_555
C14_2 C9_2 1_555 1_555
H8_2 C14_2 1_555 1_555
C15_2 C12_2 1_555 1_555
C16_2 C7_2 1_555 1_555
C17_2 C16_2 1_555 1_555
H9_2 C17_2 1_555 1_555
C18_2 C17_2 1_555 1_555
H10_2 C18_2 1_555 1_555
C19_2 C18_2 1_555 1_555
C20_2 C19_2 1_555 1_555
H11_2 C20_2 1_555 1_555
C21_2 C16_2 1_555 1_555
H12_2 C21_2 1_555 1_555
C22_2 C19_2 1_555 1_555
H13_2 N3_2 1_555 1_555
Zn3_2 O3_2 1_555 1_555
O5_2 Zn1_2 1_555 1_555
O6_2 Zn1_2 1_555 1_555
O7_2 Zn1_2 1_555 1_555
O4_2 Zn3_2 1_555 1_555
C4_2 C5_2 1_555 1_555
C5_2 C6_2 1_555 1_555
C7_2 C8_2 1_555 1_555
C13_2 C14_2 1_555 1_555
C20_2 C21_2 1_555 1_555
Zn1_3 N1_3 1_555 1_555
N1_3 C1_3 1_555 1_555
N2_3 Zn1_3 1_555 1_555
N3_3 C6_3 1_555 1_555
O1_3 C15_3 1_555 1_555
O2_3 C15_3 1_555 1_555
O3_3 C22_3 1_555 1_555
O4_3 C22_3 1_555 1_555
C1_3 H1_3 1_555 1_555
C2_3 C1_3 1_555 1_555
H2_3 C2_3 1_555 1_555
C3_3 C2_3 1_555 1_555
H3_3 C3_3 1_555 1_555
C4_3 C3_3 1_555 1_555
H4_3 C4_3 1_555 1_555
C5_3 N1_3 1_555 1_555
C6_3 N2_3 1_555 1_555
C7_3 N2_3 1_555 1_555
C8_3 N3_3 1_555 1_555
C9_3 C8_3 1_555 1_555
C10_3 C9_3 1_555 1_555
H5_3 C10_3 1_555 1_555
C11_3 C10_3 1_555 1_555
H6_3 C11_3 1_555 1_555
C12_3 C11_3 1_555 1_555
C13_3 C12_3 1_555 1_555
H7_3 C13_3 1_555 1_555
C14_3 C9_3 1_555 1_555
H8_3 C14_3 1_555 1_555
C15_3 C12_3 1_555 1_555
C16_3 C7_3 1_555 1_555
C17_3 C16_3 1_555 1_555
H9_3 C17_3 1_555 1_555
C18_3 C17_3 1_555 1_555
H10_3 C18_3 1_555 1_555
C19_3 C18_3 1_555 1_555
C20_3 C19_3 1_555 1_555
H11_3 C20_3 1_555 1_555
C21_3 C16_3 1_555 1_555
H12_3 C21_3 1_555 1_555
C22_3 C19_3 1_555 1_555
H13_3 N3_3 1_555 1_555
Zn3_3 O3_3 1_555 1_555
O5_3 Zn1_3 1_555 1_555
O6_3 Zn1_3 1_555 1_555
O7_3 Zn1_3 1_555 1_555
O4_3 Zn3_3 1_555 1_555
C4_3 C5_3 1_555 1_555
C5_3 C6_3 1_555 1_555
C7_3 C8_3 1_555 1_555
C13_3 C14_3 1_555 1_555
C20_3 C21_3 1_555 1_555
O5_2 C15_4 1_555 1_555
O2_4 C15_4 1_555 1_555
H6_4 C11_4 1_555 1_555
C12_4 C11_4 1_555 1_555
C13_4 C12_4 1_555 1_555
H7_4 C13_4 1_555 1_555
H8_4 C14_4 1_555 1_555
C15_4 C12_4 1_555 1_555
C20_4 C19_4 1_555 1_555
H11_4 C20_4 1_555 1_555
H12_4 C21_4 1_555 1_555
C13_4 C14_4 1_555 1_555
C20_4 C21_4 1_555 1_555
O3_4 C22_4 1_555 1_555
O4_4 C22_4 1_555 1_555
Zn3_4 O3_4 1_555 1_555
O4_4 Zn3_4 1_555 1_555
O5_3 C15_5 1_555 1_555
O2_5 C15_5 1_555 1_555
H6_5 C11_5 1_555 1_555
C12_5 C11_5 1_555 1_555
C13_5 C12_5 1_555 1_555
H7_5 C13_5 1_555 1_555
H8_5 C14_5 1_555 1_555
C15_5 C12_5 1_555 1_555
C20_5 C19_5 1_555 1_555
H11_5 C20_5 1_555 1_555
H12_5 C21_5 1_555 1_555
C13_5 C14_5 1_555 1_555
C20_5 C21_5 1_555 1_555
Zn1_4 N1_4 1_555 1_555
N1_4 C1_4 1_555 1_555
N2_4 Zn1_4 1_555 1_555
N3_4 C6_4 1_555 1_555
O5 C15_6 1_555 1_555
O2_6 C15_6 1_555 1_555
C1_4 H1_4 1_555 1_555
C2_4 C1_4 1_555 1_555
C3_4 C2_4 1_555 1_555
H3_4 C3_4 1_555 1_555
C4_4 C3_4 1_555 1_555
H4_4 C4_4 1_555 1_555
C5_4 N1_4 1_555 1_555
C6_4 N2_4 1_555 1_555
C7_4 N2_4 1_555 1_555
C8_4 N3_4 1_555 1_555
C9_4 C8_4 1_555 1_555
C10_4 C9_4 1_555 1_555
H5_4 C10_4 1_555 1_555
C11_6 C10_4 1_555 1_555
H6_6 C11_6 1_555 1_555
C12_6 C11_6 1_555 1_555
C13_6 C12_6 1_555 1_555
H7_6 C13_6 1_555 1_555
C14_6 C9_4 1_555 1_555
H8_6 C14_6 1_555 1_555
C15_6 C12_6 1_555 1_555
C16_4 C7_4 1_555 1_555
C17_4 C16_4 1_555 1_555
H9_4 C17_4 1_555 1_555
C18_4 C17_4 1_555 1_555
C19_6 C18_4 1_555 1_555
C20_6 C19_6 1_555 1_555
H11_6 C20_6 1_555 1_555
C21_6 C16_4 1_555 1_555
H12_6 C21_6 1_555 1_555
H13_4 N3_4 1_555 1_555
O5_4 Zn1_4 1_555 1_555
O6_4 Zn1_4 1_555 1_555
O7_4 Zn1_4 1_555 1_555
C4_4 C5_4 1_555 1_555
C5_4 C6_4 1_555 1_555
C7_4 C8_4 1_555 1_555
C13_6 C14_6 1_555 1_555
C20_6 C21_6 1_555 1_555
Zn2_3 N1_5 1_555 1_555
N1_5 C1_5 1_555 1_555
N2_5 Zn2_3 1_555 1_555
O3_5 C22_5 1_555 1_555
O4_5 C22_5 1_555 1_555
C1_5 H1_5 1_555 1_555
C2_5 C1_5 1_555 1_555
H2_4 C2_5 1_555 1_555
C5_5 N1_5 1_555 1_555
C6_5 N2_5 1_555 1_555
C7_5 N2_5 1_555 1_555
H8_7 C14_7 1_555 1_555
C16_5 C7_5 1_555 1_555
C17_5 C16_5 1_555 1_555
H9_5 C17_5 1_555 1_555
C18_5 C17_5 1_555 1_555
H10_4 C18_5 1_555 1_555
C19_7 C18_5 1_555 1_555
C20_7 C19_7 1_555 1_555
H11_7 C20_7 1_555 1_555
C21_7 C16_5 1_555 1_555
H12_7 C21_7 1_555 1_555
C22_5 C19_7 1_555 1_555
Zn3_5 O3_5 1_555 1_555
O6_5 Zn2_3 1_555 1_555
O7_5 Zn2_3 1_555 1_555
O4_5 Zn3_5 1_555 1_555
C5_5 C6_5 1_555 1_555
C7_5 C8_5 1_555 1_555
C20_7 C21_7 1_555 1_555
Zn2 N1_6 1_555 1_555
N1_6 C1_6 1_555 1_555
N2_6 Zn2 1_555 1_555
O3_6 C22_6 1_555 1_555
O4_6 C22_6 1_555 1_555
C1_6 H1_6 1_555 1_555
C2_6 C1_6 1_555 1_555
H2_5 C2_6 1_555 1_555
C5_6 N1_6 1_555 1_555
C6_6 N2_6 1_555 1_555
C7_6 N2_6 1_555 1_555
H8_8 C14_8 1_555 1_555
C16_6 C7_6 1_555 1_555
C17_6 C16_6 1_555 1_555
H9_6 C17_6 1_555 1_555
C18_6 C17_6 1_555 1_555
H10_5 C18_6 1_555 1_555
C19_8 C18_6 1_555 1_555
C20_8 C19_8 1_555 1_555
H11_8 C20_8 1_555 1_555
C21_8 C16_6 1_555 1_555
H12_8 C21_8 1_555 1_555
C22_6 C19_8 1_555 1_555
Zn3_6 O3_6 1_555 1_555
O6_6 Zn2 1_555 1_555
O7_6 Zn2 1_555 1_555
O4_6 Zn3_6 1_555 1_555
C5_6 C6_6 1_555 1_555
C7_6 C8_6 1_555 1_555
C20_8 C21_8 1_555 1_555
O5_4 C15_7 1_555 1_555
O2_7 C15_7 1_555 1_555
H3_5 C3_5 1_555 1_555
C4_5 C3_5 1_555 1_555
H4_5 C4_5 1_555 1_555
C10_5 C9_5 1_555 1_555
H5_5 C10_5 1_555 1_555
C11_7 C10_5 1_555 1_555
H6_7 C11_7 1_555 1_555
C12_7 C11_7 1_555 1_555
C13_7 C12_7 1_555 1_555
C15_7 C12_7 1_555 1_555
H13_5 N3_5 1_555 1_555
Zn2_2 N1_7 1_555 1_555
N1_7 C1_7 1_555 1_555
N2_7 Zn2_2 1_555 1_555
O3_7 C22_7 1_555 1_555
O4_7 C22_7 1_555 1_555
C1_7 H1_7 1_555 1_555
C2_7 C1_7 1_555 1_555
H2_6 C2_7 1_555 1_555
C5_7 N1_7 1_555 1_555
C6_7 N2_7 1_555 1_555
C7_7 N2_7 1_555 1_555
H8_9 C14_9 1_555 1_555
C16_7 C7_7 1_555 1_555
C17_7 C16_7 1_555 1_555
H9_7 C17_7 1_555 1_555
C18_7 C17_7 1_555 1_555
H10_6 C18_7 1_555 1_555
C19_9 C18_7 1_555 1_555
C20_9 C19_9 1_555 1_555
H11_9 C20_9 1_555 1_555
C21_9 C16_7 1_555 1_555
H12_9 C21_9 1_555 1_555
C22_7 C19_9 1_555 1_555
Zn3_7 O3_7 1_555 1_555
O6_7 Zn2_2 1_555 1_555
O7_7 Zn2_2 1_555 1_555
O4_7 Zn3_7 1_555 1_555
C5_7 C6_7 1_555 1_555
C7_7 C8_7 1_555 1_555
C20_9 C21_9 1_555 1_555
Zn3_7 N1_8 1_555 1_555
N1_8 C1_8 1_555 1_555
N2_8 Zn3_7 1_555 1_555
N3_6 C6_8 1_555 1_555
O1_4 C15_8 1_555 1_555
O2_8 C15_8 1_555 1_555
O6_6 C22_8 1_555 1_555
O7_6 C22_8 1_555 1_555
C1_8 H1_8 1_555 1_555
C2_8 C1_8 1_555 1_555
H2_7 C2_8 1_555 1_555
C3_6 C2_8 1_555 1_555
H3_6 C3_6 1_555 1_555
C4_6 C3_6 1_555 1_555
H4_6 C4_6 1_555 1_555
C5_8 N1_8 1_555 1_555
C6_8 N2_8 1_555 1_555
C7_8 N2_8 1_555 1_555
C8_8 N3_6 1_555 1_555
C9_6 C8_8 1_555 1_555
C10_6 C9_6 1_555 1_555
H5_6 C10_6 1_555 1_555
C11_8 C10_6 1_555 1_555
H6_8 C11_8 1_555 1_555
C12_8 C11_8 1_555 1_555
C13_8 C12_8 1_555 1_555
H7_10 C13_8 1_555 1_555
C14_10 C9_6 1_555 1_555
H8_10 C14_10 1_555 1_555
C15_8 C12_8 1_555 1_555
C16_8 C7_8 1_555 1_555
C17_8 C16_8 1_555 1_555
H9_8 C17_8 1_555 1_555
C18_8 C17_8 1_555 1_555
H10_7 C18_8 1_555 1_555
C19_10 C18_8 1_555 1_555
C20_10 C19_10 1_555 1_555
H11_10 C20_10 1_555 1_555
C21_10 C16_8 1_555 1_555
H12_10 C21_10 1_555 1_555
C22_8 C19_10 1_555 1_555
H13_6 N3_6 1_555 1_555
Zn3 O1_4 1_555 1_555
O5_5 Zn3_7 1_555 1_555
C4_6 C5_8 1_555 1_555
C5_8 C6_8 1_555 1_555
C7_8 C8_8 1_555 1_555
C13_8 C14_10 1_555 1_555
C20_10 C21_10 1_555 1_555
Zn3_5 N1_9 1_555 1_555
N1_9 C1_9 1_555 1_555
N2_9 Zn3_5 1_555 1_555
N3_7 C6_9 1_555 1_555
O1_5 C15_9 1_555 1_555
O2_9 C15_9 1_555 1_555
O6_7 C22_9 1_555 1_555
O7_7 C22_9 1_555 1_555
C1_9 H1_9 1_555 1_555
C2_9 C1_9 1_555 1_555
H2_8 C2_9 1_555 1_555
C3_7 C2_9 1_555 1_555
H3_7 C3_7 1_555 1_555
C4_7 C3_7 1_555 1_555
H4_7 C4_7 1_555 1_555
C5_9 N1_9 1_555 1_555
C6_9 N2_9 1_555 1_555
C7_9 N2_9 1_555 1_555
C8_9 N3_7 1_555 1_555
C9_7 C8_9 1_555 1_555
C10_7 C9_7 1_555 1_555
H5_7 C10_7 1_555 1_555
C11_9 C10_7 1_555 1_555
H6_9 C11_9 1_555 1_555
C12_9 C11_9 1_555 1_555
C13_9 C12_9 1_555 1_555
H7_11 C13_9 1_555 1_555
C14_11 C9_7 1_555 1_555
H8_11 C14_11 1_555 1_555
C15_9 C12_9 1_555 1_555
C16_9 C7_9 1_555 1_555
C17_9 C16_9 1_555 1_555
H9_9 C17_9 1_555 1_555
C18_9 C17_9 1_555 1_555
H10_8 C18_9 1_555 1_555
C19_11 C18_9 1_555 1_555
C20_11 C19_11 1_555 1_555
H11_11 C20_11 1_555 1_555
C21_11 C16_9 1_555 1_555
H12_11 C21_11 1_555 1_555
C22_9 C19_11 1_555 1_555
H13_7 N3_7 1_555 1_555
O5_6 Zn3_5 1_555 1_555
C4_7 C5_9 1_555 1_555
C5_9 C6_9 1_555 1_555
C7_9 C8_9 1_555 1_555
C13_9 C14_11 1_555 1_555
C20_11 C21_11 1_555 1_555
Zn3_6 N1_10 1_555 1_555
N1_10 C1_10 1_555 1_555
N2_10 Zn3_6 1_555 1_555
N3_8 C6_10 1_555 1_555
O1_6 C15_10 1_555 1_555
O2_10 C15_10 1_555 1_555
O6_5 C22_10 1_555 1_555
O7_5 C22_10 1_555 1_555
C1_10 H1_10 1_555 1_555
C2_10 C1_10 1_555 1_555
H2_9 C2_10 1_555 1_555
C3_8 C2_10 1_555 1_555
H3_8 C3_8 1_555 1_555
C4_8 C3_8 1_555 1_555
H4_8 C4_8 1_555 1_555
C5_10 N1_10 1_555 1_555
C6_10 N2_10 1_555 1_555
C7_10 N2_10 1_555 1_555
C8_10 N3_8 1_555 1_555
C9_8 C8_10 1_555 1_555
C10_8 C9_8 1_555 1_555
H5_8 C10_8 1_555 1_555
C11_10 C10_8 1_555 1_555
H6_10 C11_10 1_555 1_555
C12_10 C11_10 1_555 1_555
C13_10 C12_10 1_555 1_555
H7_12 C13_10 1_555 1_555
C14_12 C9_8 1_555 1_555
H8_12 C14_12 1_555 1_555
C15_10 C12_10 1_555 1_555
C16_10 C7_10 1_555 1_555
C17_10 C16_10 1_555 1_555
H9_10 C17_10 1_555 1_555
C18_10 C17_10 1_555 1_555
H10_9 C18_10 1_555 1_555
C19_12 C18_10 1_555 1_555
C20_12 C19_12 1_555 1_555
H11_12 C20_12 1_555 1_555
C21_12 C16_10 1_555 1_555
H12_12 C21_12 1_555 1_555
C22_10 C19_12 1_555 1_555
H13_8 N3_8 1_555 1_555
O5_7 Zn3_6 1_555 1_555
C4_8 C5_10 1_555 1_555
C5_10 C6_10 1_555 1_555
C7_10 C8_10 1_555 1_555
C13_10 C14_12 1_555 1_555
C20_12 C21_12 1_555 1_555
O5_6 C15_11 1_555 1_555
O2_11 C15_11 1_555 1_555
H6_11 C11_11 1_555 1_555
C12_11 C11_11 1_555 1_555
C13_11 C12_11 1_555 1_555
H7_13 C13_11 1_555 1_555
H8_13 C14_13 1_555 1_555
C15_11 C12_11 1_555 1_555
C20_13 C19_13 1_555 1_555
H11_13 C20_13 1_555 1_555
H12_13 C21_13 1_555 1_555
C13_11 C14_13 1_555 1_555
C20_13 C21_13 1_555 1_555
O5_7 C15_12 1_555 1_555
O2_12 C15_12 1_555 1_555
H6_12 C11_12 1_555 1_555
C12_12 C11_12 1_555 1_555
C13_12 C12_12 1_555 1_555
H7_14 C13_12 1_555 1_555
H8_14 C14_14 1_555 1_555
C15_12 C12_12 1_555 1_555
C20_14 C19_14 1_555 1_555
H11_14 C20_14 1_555 1_555
H12_14 C21_14 1_555 1_555
C13_12 C14_14 1_555 1_555
C20_14 C21_14 1_555 1_555
O6_4 C22_11 1_555 1_555
O7_4 C22_11 1_555 1_555
Zn3_4 N1_11 1_555 1_555
N1_11 C1_11 1_555 1_555
N2_11 Zn3_4 1_555 1_555
N3_9 C6_11 1_555 1_555
O5_5 C15_13 1_555 1_555
O2_13 C15_13 1_555 1_555
C1_11 H1_11 1_555 1_555
C2_11 C1_11 1_555 1_555
C3_9 C2_11 1_555 1_555
H3_9 C3_9 1_555 1_555
C4_9 C3_9 1_555 1_555
H4_9 C4_9 1_555 1_555
C5_11 N1_11 1_555 1_555
C6_11 N2_11 1_555 1_555
C7_11 N2_11 1_555 1_555
C8_11 N3_9 1_555 1_555
C9_9 C8_11 1_555 1_555
C10_9 C9_9 1_555 1_555
H5_9 C10_9 1_555 1_555
C11_13 C10_9 1_555 1_555
H6_13 C11_13 1_555 1_555
C12_13 C11_13 1_555 1_555
C13_13 C12_13 1_555 1_555
H7_15 C13_13 1_555 1_555
C14_15 C9_9 1_555 1_555
H8_15 C14_15 1_555 1_555
C15_13 C12_13 1_555 1_555
C16_11 C7_11 1_555 1_555
C17_11 C16_11 1_555 1_555
H9_11 C17_11 1_555 1_555
C18_11 C17_11 1_555 1_555
C19_15 C18_11 1_555 1_555
C20_15 C19_15 1_555 1_555
H11_15 C20_15 1_555 1_555
C21_15 C16_11 1_555 1_555
H12_15 C21_15 1_555 1_555
H13_9 N3_9 1_555 1_555
O5_8 Zn3_4 1_555 1_555
C4_9 C5_11 1_555 1_555
C5_11 C6_11 1_555 1_555
C7_11 C8_11 1_555 1_555
C13_13 C14_15 1_555 1_555
C20_15 C21_15 1_555 1_555
Zn3_3 N1_12 1_555 1_555
N1_12 C1_12 1_555 1_555
N2_12 Zn3_3 1_555 1_555
O6_2 C22_12 1_555 1_555
O7_2 C22_12 1_555 1_555
C1_12 H1_12 1_555 1_555
C2_12 C1_12 1_555 1_555
H2_10 C2_12 1_555 1_555
C5_12 N1_12 1_555 1_555
C6_12 N2_12 1_555 1_555
C7_12 N2_12 1_555 1_555
H8_16 C14_16 1_555 1_555
C16_12 C7_12 1_555 1_555
C17_12 C16_12 1_555 1_555
H9_12 C17_12 1_555 1_555
C18_12 C17_12 1_555 1_555
H10_10 C18_12 1_555 1_555
C19_16 C18_12 1_555 1_555
C20_16 C19_16 1_555 1_555
H11_16 C20_16 1_555 1_555
C21_16 C16_12 1_555 1_555
H12_16 C21_16 1_555 1_555
C22_12 C19_16 1_555 1_555
C5_12 C6_12 1_555 1_555
C7_12 C8_12 1_555 1_555
C20_16 C21_16 1_555 1_555
O5_8 C15_14 1_555 1_555
O2_14 C15_14 1_555 1_555
H3_10 C3_10 1_555 1_555
C4_10 C3_10 1_555 1_555
H4_10 C4_10 1_555 1_555
C10_10 C9_10 1_555 1_555
H5_10 C10_10 1_555 1_555
C11_14 C10_10 1_555 1_555
H6_14 C11_14 1_555 1_555
C12_14 C11_14 1_555 1_555
C13_14 C12_14 1_555 1_555
C15_14 C12_14 1_555 1_555
H13_10 N3_10 1_555 1_555
Zn3 N1_13 1_555 1_555
N1_13 C1_13 1_555 1_555
N2_13 Zn3 1_555 1_555
O6_3 C22_13 1_555 1_555
O7_3 C22_13 1_555 1_555
C1_13 H1_13 1_555 1_555
C2_13 C1_13 1_555 1_555
H2_11 C2_13 1_555 1_555
C5_13 N1_13 1_555 1_555
C6_13 N2_13 1_555 1_555
C7_13 N2_13 1_555 1_555
H8_17 C14_17 1_555 1_555
C16_13 C7_13 1_555 1_555
C17_13 C16_13 1_555 1_555
H9_13 C17_13 1_555 1_555
C18_13 C17_13 1_555 1_555
H10_11 C18_13 1_555 1_555
C19_17 C18_13 1_555 1_555
C20_17 C19_17 1_555 1_555
H11_17 C20_17 1_555 1_555
C21_17 C16_13 1_555 1_555
H12_17 C21_17 1_555 1_555
C22_13 C19_17 1_555 1_555
C5_13 C6_13 1_555 1_555
C7_13 C8_13 1_555 1_555
C20_17 C21_17 1_555 1_555
Zn3_2 N1_14 1_555 1_555
N1_14 C1_14 1_555 1_555
N2_14 Zn3_2 1_555 1_555
O6 C22_14 1_555 1_555
O7 C22_14 1_555 1_555
C1_14 H1_14 1_555 1_555
C2_14 C1_14 1_555 1_555
H2_12 C2_14 1_555 1_555
C5_14 N1_14 1_555 1_555
C6_14 N2_14 1_555 1_555
C7_14 N2_14 1_555 1_555
H8_18 C14_18 1_555 1_555
C16_14 C7_14 1_555 1_555
C17_14 C16_14 1_555 1_555
H9_14 C17_14 1_555 1_555
C18_14 C17_14 1_555 1_555
H10_12 C18_14 1_555 1_555
C19_18 C18_14 1_555 1_555
C20_18 C19_18 1_555 1_555
H11_18 C20_18 1_555 1_555
C21_18 C16_14 1_555 1_555
H12_18 C21_18 1_555 1_555
C22_14 C19_18 1_555 1_555
C5_14 C6_14 1_555 1_555
C7_14 C8_14 1_555 1_555
C20_18 C21_18 1_555 1_555
Zn1_5 N1_15 1_555 1_555
N1_15 C1_15 1_555 1_555
N2_15 Zn1_5 1_555 1_555
N3_11 C6_15 1_555 1_555
C1_15 H1_15 1_555 1_555
C2_15 C1_15 1_555 1_555
H2_13 C2_15 1_555 1_555
C3_11 C2_15 1_555 1_555
H3_11 C3_11 1_555 1_555
C4_11 C3_11 1_555 1_555
H4_11 C4_11 1_555 1_555
C5_15 N1_15 1_555 1_555
C6_15 N2_15 1_555 1_555
C7_15 N2_15 1_555 1_555
C8_15 N3_11 1_555 1_555
C9_11 C8_15 1_555 1_555
C10_11 C9_11 1_555 1_555
H5_11 C10_11 1_555 1_555
C16_15 C7_15 1_555 1_555
C17_15 C16_15 1_555 1_555
H9_15 C17_15 1_555 1_555
C18_15 C17_15 1_555 1_555
H13_11 N3_11 1_555 1_555
O5_9 Zn1_5 1_555 1_555
O6_8 Zn1_5 1_555 1_555
O7_8 Zn1_5 1_555 1_555
C4_11 C5_15 1_555 1_555
C5_15 C6_15 1_555 1_555
C7_15 C8_15 1_555 1_555
O5_9 C15_15 1_555 1_555
O2_15 C15_15 1_555 1_555
H3_12 C3_12 1_555 1_555
C4_12 C3_12 1_555 1_555
H4_12 C4_12 1_555 1_555
C10_12 C9_12 1_555 1_555
H5_12 C10_12 1_555 1_555
C11_15 C10_12 1_555 1_555
H6_15 C11_15 1_555 1_555
C12_15 C11_15 1_555 1_555
C13_15 C12_15 1_555 1_555
C15_15 C12_15 1_555 1_555
H13_12 N3_12 1_555 1_555
O6_8 C22_15 1_555 1_555
O7_8 C22_15 1_555 1_555
O3_8 C22_16 1_555 1_555
O4_8 C22_16 1_555 1_555
Zn3_8 O3_8 1_555 1_555
O4_8 Zn3_8 1_555 1_555
Zn3_8 N1_16 1_555 1_555
N1_16 C1_16 1_555 1_555
N2_16 Zn3_8 1_555 1_555
N3_13 C6_16 1_555 1_555
C1_16 H1_16 1_555 1_555
C2_16 C1_16 1_555 1_555
C3_13 C2_16 1_555 1_555
H3_13 C3_13 1_555 1_555
C4_13 C3_13 1_555 1_555
H4_13 C4_13 1_555 1_555
C5_16 N1_16 1_555 1_555
C6_16 N2_16 1_555 1_555
C7_16 N2_16 1_555 1_555
C8_16 N3_13 1_555 1_555
C9_13 C8_16 1_555 1_555
C10_13 C9_13 1_555 1_555
H5_13 C10_13 1_555 1_555
C16_16 C7_16 1_555 1_555
C17_16 C16_16 1_555 1_555
H9_16 C17_16 1_555 1_555
C18_16 C17_16 1_555 1_555
H13_13 N3_13 1_555 1_555
O5_10 Zn3_8 1_555 1_555
C4_13 C5_16 1_555 1_555
C5_16 C6_16 1_555 1_555
C7_16 C8_16 1_555 1_555
O5_10 C15_16 1_555 1_555
O2_16 C15_16 1_555 1_555
H3_14 C3_14 1_555 1_555
C4_14 C3_14 1_555 1_555
H4_14 C4_14 1_555 1_555
C10_14 C9_14 1_555 1_555
H5_14 C10_14 1_555 1_555
C11_16 C10_14 1_555 1_555
H6_16 C11_16 1_555 1_555
C12_16 C11_16 1_555 1_555
C13_16 C12_16 1_555 1_555
C15_16 C12_16 1_555 1_555
H13_14 N3_14 1_555 1_555
Zn1_6 N1_17 1_555 1_555
N1_17 C1_17 1_555 1_555
N2_17 Zn1_6 1_555 1_555
N3_15 C6_17 1_555 1_555
C1_17 H1_17 1_555 1_555
C2_17 C1_17 1_555 1_555
C3_15 C2_17 1_555 1_555
H3_15 C3_15 1_555 1_555
C4_15 C3_15 1_555 1_555
H4_15 C4_15 1_555 1_555
C5_17 N1_17 1_555 1_555
C6_17 N2_17 1_555 1_555
C7_17 N2_17 1_555 1_555
C8_17 N3_15 1_555 1_555
C9_15 C8_17 1_555 1_555
C10_15 C9_15 1_555 1_555
H5_15 C10_15 1_555 1_555
C16_17 C7_17 1_555 1_555
C17_17 C16_17 1_555 1_555
H9_17 C17_17 1_555 1_555
C18_17 C17_17 1_555 1_555
H13_15 N3_15 1_555 1_555
O5_11 Zn1_6 1_555 1_555
O6_9 Zn1_6 1_555 1_555
O7_9 Zn1_6 1_555 1_555
C4_15 C5_17 1_555 1_555
C5_17 C6_17 1_555 1_555
C7_17 C8_17 1_555 1_555
O5_11 C15_17 1_555 1_555
O2_17 C15_17 1_555 1_555
H3_16 C3_16 1_555 1_555
C4_16 C3_16 1_555 1_555
H4_16 C4_16 1_555 1_555
C10_16 C9_16 1_555 1_555
H5_16 C10_16 1_555 1_555
C11_17 C10_16 1_555 1_555
H6_17 C11_17 1_555 1_555
C12_17 C11_17 1_555 1_555
C13_17 C12_17 1_555 1_555
C15_17 C12_17 1_555 1_555
H13_16 N3_16 1_555 1_555
O6_9 C22_17 1_555 1_555
O7_9 C22_17 1_555 1_555
O3_9 C22_18 1_555 1_555
O4_9 C22_18 1_555 1_555
Zn3_9 O3_9 1_555 1_555
O4_9 Zn3_9 1_555 1_555
Zn3_9 N1_18 1_555 1_555
N1_18 C1_18 1_555 1_555
N2_18 Zn3_9 1_555 1_555
N3_17 C6_18 1_555 1_555
C1_18 H1_18 1_555 1_555
C2_18 C1_18 1_555 1_555
H2_16 C2_18 1_555 1_555
C3_17 C2_18 1_555 1_555
H3_17 C3_17 1_555 1_555
C4_17 C3_17 1_555 1_555
H4_17 C4_17 1_555 1_555
C5_18 N1_18 1_555 1_555
C6_18 N2_18 1_555 1_555
C7_18 N2_18 1_555 1_555
C8_18 N3_17 1_555 1_555
C9_17 C8_18 1_555 1_555
C10_17 C9_17 1_555 1_555
H5_17 C10_17 1_555 1_555
C16_18 C7_18 1_555 1_555
C17_18 C16_18 1_555 1_555
H9_18 C17_18 1_555 1_555
C18_18 C17_18 1_555 1_555
H13_17 N3_17 1_555 1_555
O5_12 Zn3_9 1_555 1_555
C4_17 C5_18 1_555 1_555
C5_18 C6_18 1_555 1_555
C7_18 C8_18 1_555 1_555
O5_12 C15_18 1_555 1_555
O2_18 C15_18 1_555 1_555
H3_18 C3_18 1_555 1_555
C4_18 C3_18 1_555 1_555
H4_18 C4_18 1_555 1_555
C10_18 C9_18 1_555 1_555
H5_18 C10_18 1_555 1_555
C11_18 C10_18 1_555 1_555
H6_18 C11_18 1_555 1_555
C12_18 C11_18 1_555 1_555
C13_18 C12_18 1_555 1_555
C15_18 C12_18 1_555 1_555
H13_18 N3_18 1_555 1_555

#END
