
###############################################################################
#
# This file contains modified crystal structure data generated from the
# MOF subset of the Cambridge Structural Database (CSD) v543 
# hosted by the Cambridge Crystallographic Data Centre (CCDC).
#
# This work is licensed under the Creative Commons
# Attribution-NonCommercial-ShareAlike 4.0 International License.
# To view a copy of this license, visit
# http://creativecommons.org/licenses/by-nc-sa/4.0/
# or send a letter to
# Creative Commons, PO Box 1866, Mountain View, CA 94042, USA.
#
# CIF created using the CSD Python API on 29 September 2022
# The structure has been converted into the P1 space group
# The structure has a 3D framework
# The original CSD entry OBAHEH is in the rhombohedral crystal system
# The framework has been calculated to contain at least 10.0% void space
# The void calculation uses a probe of radius 1.32A, grid spacing 0.4
#
###############################################################################

data_OBAHEH
_chemical_formula_moiety         '(C396 H234 N54 O72 Zn18)n'
_symmetry_cell_setting           triclinic
_symmetry_space_group_name_H-M   'P 1'
_symmetry_Int_Tables_number      1
_space_group_name_Hall           'P 1'
loop_
_symmetry_equiv_pos_site_id
_symmetry_equiv_pos_as_xyz
1 x,y,z
_cell_length_a                   29.822(6)
_cell_length_b                   29.822(6)
_cell_length_c                   17.824(4)
_cell_angle_alpha                90
_cell_angle_beta                 90
_cell_angle_gamma                120
_cell_volume                     13728.1
loop_
_atom_site_label
_atom_site_type_symbol
_atom_site_fract_x
_atom_site_fract_y
_atom_site_fract_z
H2 H 0.6795 0.0057 0.3388
Zn1 Zn 0.62919(2) 0.85556(2) 0.52081(2)
N1 N 0.64086(10) 0.89582(9) 0.42016(12)
N2 N 0.59909(9) 0.79449(9) 0.44586(11)
N3 N 0.58002(9) 0.77060(9) 0.32865(13)
O1 O 0.47733(10) 0.49490(8) 0.24590(11)
O2 O 0.44797(10) 0.52420(9) 0.15480(11)
O3 O 0.57942(11) 0.62987(10) 0.74936(13)
O4 O 0.49565(11) 0.59092(12) 0.73242(14)
C1 C 0.66070(15) 0.94682(12) 0.41185(19)
H1 H 0.6716 0.9682 0.4552
C2 C 0.66582(19) 0.96935(14) 0.3430(2)
C3 C 0.6510(2) 0.93886(15) 0.2811(2)
H3 H 0.6554 0.9540 0.2328
C4 C 0.62940(15) 0.88566(13) 0.28787(17)
H4 H 0.6181 0.8638 0.2451
C5 C 0.62497(11) 0.86584(11) 0.35879(15)
C6 C 0.60219(11) 0.81066(10) 0.37563(13)
C7 C 0.57374(12) 0.74153(11) 0.44326(14)
C8 C 0.56117(12) 0.72554(11) 0.36910(14)
C9 C 0.53598(12) 0.67495(11) 0.33222(14)
C10 C 0.50964(13) 0.66764(12) 0.26440(16)
H5 H 0.5070 0.6954 0.2432
C11 C 0.48759(13) 0.62077(13) 0.22815(16)
H6 H 0.4697 0.6165 0.1822
C12 C 0.49103(11) 0.57941(11) 0.25778(14)
C13 C 0.51731(11) 0.58648(11) 0.32592(15)
H7 H 0.5201 0.5587 0.3470
C14 C 0.53914(12) 0.63349(11) 0.36249(15)
H8 H 0.5565 0.6377 0.4088
C15 C 0.47024(11) 0.52920(12) 0.21583(14)
C16 C 0.56373(13) 0.71152(11) 0.51299(14)
C17 C 0.60236(13) 0.72888(12) 0.56755(16)
H9 H 0.6343 0.7599 0.5597
C18 C 0.59425(14) 0.70101(13) 0.63304(17)
H10 H 0.6208 0.7130 0.6698
C19 C 0.54882(15) 0.65676(14) 0.64532(16)
C20 C 0.50881(16) 0.63965(14) 0.59231(19)
H11 H 0.4765 0.6093 0.6016
C21 C 0.51646(15) 0.66725(14) 0.52607(17)
H12 H 0.4895 0.6558 0.4900
C22 C 0.54138(17) 0.62436(14) 0.71380(18)
H13 H 0.5797(13) 0.7723(13) 0.285(2)
Zn2 Zn 0.47777(2) 0.44030(3) 0.18748(2)
Zn3 Zn 0.52223(2) 0.55970(3) 0.81252(2)
O5 O 0.68424(13) 0.85600(10) 0.57923(11)
O6 O 0.61622(15) 0.91275(11) 0.58397(13)
O7 O 0.57140(16) 0.82898(11) 0.60091(14)
Zn2_2 Zn 0.55970(3) 0.03748(4) 0.18748(2)
Zn1_2 Zn 0.14444(2) 0.77363(3) 0.52081(2)
N1_2 N 0.10418(9) 0.74504(13) 0.42016(12)
N2_2 N 0.20551(9) 0.80460(13) 0.44586(11)
N3_2 N 0.22940(9) 0.80942(13) 0.32865(13)
O1_2 O 0.50510(8) 0.98243(13) 0.24590(11)
O2_2 O 0.47580(9) 0.92377(13) 0.15480(11)
O3_2 O 0.37013(10) 0.94955(15) 0.74936(13)
O4_2 O 0.40908(12) 0.90473(16) 0.73242(14)
C1_2 C 0.05318(12) 0.71388(19) 0.41185(19)
H1_2 H 0.0318 0.7034 0.4552
C2_2 C 0.03065(14) 0.69647(24) 0.3430(2)
C3_2 C 0.06114(15) 0.71214(25) 0.2811(2)
H3_2 H 0.0460 0.7014 0.2328
C4_2 C 0.11434(13) 0.74374(20) 0.28787(17)
H4_2 H 0.1362 0.7543 0.2451
C5_2 C 0.13416(11) 0.75913(16) 0.35879(15)
C6_2 C 0.18934(10) 0.79153(15) 0.37563(13)
C7_2 C 0.25847(11) 0.83221(16) 0.44326(14)
C8_2 C 0.27446(11) 0.83563(16) 0.36910(14)
C9_2 C 0.32505(11) 0.86103(16) 0.33222(14)
C10_2 C 0.33236(12) 0.84200(18) 0.26440(16)
H5_2 H 0.3046 0.8116 0.2432
C11_2 C 0.37923(13) 0.86682(18) 0.22815(16)
H6_2 H 0.3835 0.8532 0.1822
C12_2 C 0.42059(11) 0.91162(16) 0.25778(14)
C13_2 C 0.41352(11) 0.93083(16) 0.32592(15)
H7_2 H 0.4413 0.9614 0.3470
C14_2 C 0.36651(11) 0.90565(16) 0.36249(15)
H8_2 H 0.3623 0.9188 0.4088
C15_2 C 0.47080(12) 0.94104(16) 0.21583(14)
C16_2 C 0.28848(11) 0.85221(17) 0.51299(14)
C17_2 C 0.27112(12) 0.87348(18) 0.56755(16)
H9_2 H 0.2401 0.8744 0.5597
C18_2 C 0.29899(13) 0.89324(19) 0.63304(17)
H10_2 H 0.2870 0.9078 0.6698
C19_2 C 0.34324(14) 0.89206(21) 0.64532(16)
C20_2 C 0.36035(14) 0.86916(21) 0.59231(19)
H11_2 H 0.3907 0.8672 0.6016
C21_2 C 0.33275(14) 0.84921(21) 0.52607(17)
H12_2 H 0.3442 0.8337 0.4900
C22_2 C 0.37564(14) 0.91702(22) 0.71380(18)
H13_2 H 0.2277(13) 0.8074(18) 0.285(2)
Zn3_2 Zn 0.44030(3) 0.96252(4) 0.81252(2)
O5_2 O 0.14400(10) 0.82823(16) 0.57923(11)
O6_2 O 0.08725(11) 0.70346(19) 0.58397(13)
O7_2 O 0.17102(11) 0.74241(19) 0.60091(14)
Zn1_3 Zn 0.22637(3) 0.37081(2) 0.52081(2)
N1_3 N 0.25496(13) 0.35914(10) 0.42016(12)
N2_3 N 0.19540(13) 0.40091(9) 0.44586(11)
N3_3 N 0.19058(13) 0.41998(9) 0.32865(13)
O1_3 O 0.01757(13) 0.52267(10) 0.24590(11)
O2_3 O 0.07623(13) 0.55203(10) 0.15480(11)
O3_3 O 0.05045(15) 0.42058(11) 0.74936(13)
O4_3 O 0.09527(16) 0.50435(11) 0.73242(14)
C1_3 C 0.28612(19) 0.33930(15) 0.41185(19)
H1_3 H 0.2966 0.3284 0.4552
C2_3 C 0.30353(24) 0.33418(19) 0.3430(2)
H2_2 H 0.3262 0.3205 0.3388
C3_3 C 0.28786(25) 0.3490(2) 0.2811(2)
H3_3 H 0.2986 0.3446 0.2328
C4_3 C 0.25626(20) 0.37060(15) 0.28787(17)
H4_3 H 0.2457 0.3819 0.2451
C5_3 C 0.24087(16) 0.37503(11) 0.35879(15)
C6_3 C 0.20847(15) 0.39781(11) 0.37563(13)
C7_3 C 0.16779(16) 0.42626(12) 0.44326(14)
C8_3 C 0.16437(16) 0.43883(12) 0.36910(14)
C9_3 C 0.13897(16) 0.46402(12) 0.33222(14)
C10_3 C 0.15800(18) 0.49036(13) 0.26440(16)
H5_3 H 0.1884 0.4930 0.2432
C11_3 C 0.13318(18) 0.51241(13) 0.22815(16)
H6_3 H 0.1468 0.5303 0.1822
C12_3 C 0.08838(16) 0.50897(11) 0.25778(14)
C13_3 C 0.06917(16) 0.48269(11) 0.32592(15)
H7_3 H 0.0386 0.4799 0.3470
C14_3 C 0.09435(16) 0.46086(12) 0.36249(15)
H8_3 H 0.0812 0.4435 0.4088
C15_3 C 0.05896(16) 0.52976(11) 0.21583(14)
C16_3 C 0.14779(17) 0.43627(13) 0.51299(14)
C17_3 C 0.12652(18) 0.39764(13) 0.56755(16)
H9_3 H 0.1256 0.3657 0.5597
C18_3 C 0.10676(19) 0.40575(14) 0.63304(17)
H10_3 H 0.0922 0.3792 0.6698
C19_3 C 0.10794(21) 0.45118(15) 0.64532(16)
C20_3 C 0.13084(21) 0.49119(16) 0.59231(19)
H11_3 H 0.1328 0.5235 0.6016
C21_3 C 0.15079(21) 0.48354(15) 0.52607(17)
H12_3 H 0.1663 0.5105 0.4900
C22_3 C 0.08298(22) 0.45862(17) 0.71380(18)
H13_3 H 0.1926(18) 0.4203(13) 0.285(2)
Zn3_3 Zn 0.03748(4) 0.47777(2) 0.81252(2)
O5_3 O 0.17177(16) 0.31576(13) 0.57923(11)
O6_3 O 0.29654(19) 0.38378(15) 0.58397(13)
O7_3 O 0.25759(19) 0.42860(16) 0.60091(14)
Zn2_3 Zn 0.96252(4) 0.52223(2) 0.18748(2)
O2_4 O 0.11464(10) 0.85753(9) 0.48813(11)
C11_4 C 0.15426(13) 0.95410(13) 0.56148(16)
H6_4 H 0.1364 0.9498 0.5155
C12_4 C 0.15770(11) 0.91274(11) 0.59111(14)
C13_4 C 0.18398(11) 0.91981(11) 0.65925(15)
H7_4 H 0.1868 0.8920 0.6803
C14_4 C 0.20581(12) 0.96682(11) 0.69582(15)
H8_4 H 0.2232 0.9710 0.7421
C15_4 C 0.13691(11) 0.86253(12) 0.54916(14)
C19_4 C 0.21549(15) 0.99009(14) 0.97865(16)
C20_4 C 0.17548(16) 0.97298(14) 0.92564(19)
H11_4 H 0.1432 0.9426 0.9349
H12_4 H 0.1562 0.9891 0.8233
O3_4 O 0.03680(10) 0.28288(15) 0.08269(13)
O4_4 O 0.07575(12) 0.23806(16) 0.06575(14)
C22_4 C 0.04231(14) 0.25035(22) 0.04713(18)
Zn3_4 Zn 0.10696(3) 0.29586(4) 0.14586(2)
O2_5 O 0.14247(9) 0.25710(13) 0.48813(11)
C11_5 C 0.04590(13) 0.20015(18) 0.56148(16)
H6_5 H 0.0502 0.1865 0.5155
C12_5 C 0.08726(11) 0.24495(16) 0.59111(14)
C13_5 C 0.08019(11) 0.26416(16) 0.65925(15)
H7_5 H 0.1080 0.2947 0.6803
C14_5 C 0.03318(11) 0.23898(16) 0.69582(15)
H8_5 H 0.0290 0.2521 0.7421
C15_5 C 0.13747(12) 0.27437(16) 0.54916(14)
C19_5 C 0.00991(14) 0.22539(21) 0.97865(16)
C20_5 C 0.02702(14) 0.20249(21) 0.92564(19)
H11_5 H 0.0574 0.2005 0.9349
H12_5 H 0.0109 0.1670 0.8233
Zn1_4 Zn 0.89304(3) 0.70414(2) 0.85414(2)
N1_4 N 0.92163(13) 0.69247(10) 0.75349(12)
N2_4 N 0.86207(13) 0.73424(9) 0.77919(11)
N3_4 N 0.85725(13) 0.75331(9) 0.66198(13)
O2_6 O 0.74290(13) 0.88536(10) 0.48813(11)
C1_4 C 0.95279(19) 0.67263(15) 0.74518(19)
H1_4 H 0.9633 0.6617 0.7885
C2_4 C 0.97020(24) 0.66751(19) 0.6763(2)
H2_3 H 0.9929 0.6538 0.6721
C3_4 C 0.95453(25) 0.6823(2) 0.6144(2)
H3_4 H 0.9653 0.6779 0.5661
C4_4 C 0.92293(20) 0.70393(15) 0.62120(17)
H4_4 H 0.9124 0.7152 0.5784
C5_4 C 0.90754(16) 0.70836(11) 0.69212(15)
C6_4 C 0.87514(15) 0.73114(11) 0.70896(13)
C7_4 C 0.83446(16) 0.75959(12) 0.77659(14)
C8_4 C 0.83104(16) 0.77216(12) 0.70243(14)
C9_4 C 0.80564(16) 0.79735(12) 0.66555(14)
C10_4 C 0.82467(18) 0.82369(13) 0.59773(16)
H5_4 H 0.8551 0.8263 0.5765
C11_6 C 0.79985(18) 0.84574(13) 0.56148(16)
H6_6 H 0.8135 0.8636 0.5155
C12_6 C 0.75505(16) 0.84230(11) 0.59111(14)
C13_6 C 0.73584(16) 0.81602(11) 0.65925(15)
H7_6 H 0.7053 0.8132 0.6803
C14_6 C 0.76102(16) 0.79419(12) 0.69582(15)
H8_6 H 0.7479 0.7768 0.7421
C15_6 C 0.72563(16) 0.86309(11) 0.54916(14)
C16_4 C 0.81446(17) 0.76960(13) 0.84632(14)
C17_4 C 0.79319(18) 0.73097(13) 0.90088(16)
H9_4 H 0.7923 0.6990 0.8930
C18_4 C 0.77343(19) 0.73908(14) 0.96637(17)
C19_6 C 0.77461(21) 0.78451(15) 0.97865(16)
C20_6 C 0.79751(21) 0.82452(16) 0.92564(19)
H11_6 H 0.7995 0.8568 0.9349
C21_4 C 0.81746(21) 0.81687(15) 0.85940(17)
H12_6 H 0.8330 0.8438 0.8233
H13_4 H 0.8593(18) 0.7536(13) 0.618(2)
O5_4 O 0.83843(16) 0.64910(13) 0.91257(11)
O6_4 O 0.96320(19) 0.71712(15) 0.91731(13)
O7_4 O 0.92425(19) 0.76194(16) 0.93425(14)
H1_5 H 0.0049 0.6349 0.1219
H2_4 H 0.0128 0.6724 0.0055
N1_5 N 0.97419(10) 0.56249(9) 0.08683(12)
N2_5 N 0.93242(9) 0.46116(9) 0.11253(11)
O3_5 O 0.91275(11) 0.29654(10) 0.41603(13)
O4_5 O 0.82898(11) 0.25759(12) 0.39909(14)
C1_5 C 0.99403(15) 0.61349(12) 0.07852(19)
C2_5 C 0.99915(19) 0.63602(14) 0.0097(2)
C5_5 C 0.95830(11) 0.53251(11) 0.02546(15)
C6_5 C 0.93552(11) 0.47733(10) 0.04230(13)
C7_5 C 0.90707(12) 0.40820(11) 0.10993(14)
C8_5 C 0.89450(12) 0.39221(11) 0.03577(14)
H7_7 H 0.8534 0.2254 0.0137
C14_7 C 0.87247(12) 0.30016(11) 0.02916(15)
H8_7 H 0.8898 0.3044 0.0755
C16_5 C 0.89706(13) 0.37819(11) 0.17966(14)
C17_5 C 0.93569(13) 0.39555(12) 0.23422(16)
H9_5 H 0.9676 0.4266 0.2264
C18_5 C 0.92758(14) 0.36768(13) 0.29971(17)
H10_4 H 0.9541 0.3797 0.3365
C19_7 C 0.88215(15) 0.32343(14) 0.31199(16)
C20_7 C 0.84214(16) 0.30632(14) 0.25898(19)
H11_7 H 0.8098 0.2760 0.2683
C21_5 C 0.84979(15) 0.33392(14) 0.19274(17)
H12_7 H 0.8228 0.3225 0.1567
C22_5 C 0.87471(17) 0.29103(14) 0.38047(18)
Zn3_5 Zn 0.85556(2) 0.22637(3) 0.47919(2)
O6_5 O 0.94955(15) 0.57942(11) 0.25064(13)
O7_5 O 0.90473(16) 0.49565(11) 0.26758(14)
N1_6 N 0.43751(9) 0.41171(13) 0.08683(12)
N2_6 N 0.53884(9) 0.47127(13) 0.11253(11)
O3_6 O 0.70346(10) 0.61622(15) 0.41603(13)
O4_6 O 0.74241(12) 0.57140(16) 0.39909(14)
C1_6 C 0.38651(12) 0.38055(19) 0.07852(19)
H1_6 H 0.3651 0.3701 0.1219
C2_6 C 0.36398(14) 0.36314(24) 0.0097(2)
H2_5 H 0.3276 0.3405 0.0055
C5_6 C 0.46749(11) 0.42580(16) 0.02546(15)
C6_6 C 0.52267(10) 0.45820(15) 0.04230(13)
C7_6 C 0.59180(11) 0.49888(16) 0.10993(14)
C8_6 C 0.60779(11) 0.50230(16) 0.03577(14)
H7_8 H 0.7746 0.6281 0.0137
C14_8 C 0.69984(11) 0.57232(16) 0.02916(15)
H8_8 H 0.6956 0.5855 0.0755
C16_6 C 0.62181(11) 0.51888(17) 0.17966(14)
C17_6 C 0.60445(12) 0.54015(18) 0.23422(16)
H9_6 H 0.5734 0.5411 0.2264
C18_6 C 0.63232(13) 0.55991(19) 0.29971(17)
H10_5 H 0.6203 0.5745 0.3365
C19_8 C 0.67657(14) 0.55873(21) 0.31199(16)
C20_8 C 0.69368(14) 0.53583(21) 0.25898(19)
H11_8 H 0.7240 0.5339 0.2683
C21_6 C 0.66608(14) 0.51588(21) 0.19274(17)
H12_8 H 0.6775 0.5004 0.1567
C22_6 C 0.70897(14) 0.58369(22) 0.38047(18)
Zn3_6 Zn 0.77363(3) 0.62919(4) 0.47919(2)
O6_6 O 0.42058(11) 0.37013(19) 0.25064(13)
O7_6 O 0.50435(11) 0.40908(19) 0.26758(14)
N3_5 N 0.56273(9) 0.47609(13) 0.99532(13)
O2_7 O 0.80913(9) 0.59044(13) 0.82147(11)
C3_5 C 0.39447(15) 0.37881(25) 0.9478(2)
H3_5 H 0.3793 0.3681 0.8995
C4_5 C 0.44767(13) 0.41041(20) 0.95454(17)
H4_5 H 0.4695 0.4210 0.9118
C9_5 C 0.65838(11) 0.52770(16) 0.99889(14)
C10_5 C 0.66569(12) 0.50867(18) 0.93107(16)
H5_5 H 0.6379 0.4783 0.9099
C11_7 C 0.71256(13) 0.53349(18) 0.89482(16)
H6_7 H 0.7168 0.5199 0.8489
C12_7 C 0.75392(11) 0.57829(16) 0.92445(14)
C13_7 C 0.74685(11) 0.59750(16) 0.99259(15)
C15_7 C 0.80413(12) 0.60771(16) 0.88250(14)
H13_5 H 0.5610(13) 0.4741(18) 0.952(2)
N1_7 N 0.58829(13) 0.02581(10) 0.08683(12)
N2_7 N 0.52873(13) 0.06758(9) 0.11253(11)
O3_7 O 0.38378(15) 0.08725(11) 0.41603(13)
O4_7 O 0.42860(16) 0.17102(11) 0.39909(14)
C1_7 C 0.61945(19) 0.00597(15) 0.07852(19)
C2_7 C 0.63686(24) 0.00085(19) 0.0097(2)
C5_7 C 0.57420(16) 0.04170(11) 0.02546(15)
C6_7 C 0.54180(15) 0.06448(11) 0.04230(13)
C7_7 C 0.50112(16) 0.09293(12) 0.10993(14)
C8_7 C 0.49770(16) 0.10550(12) 0.03577(14)
H7_9 H 0.3719 0.1466 0.0137
C14_9 C 0.42768(16) 0.12753(12) 0.02916(15)
H8_9 H 0.4145 0.1102 0.0755
C16_7 C 0.48112(17) 0.10294(13) 0.17966(14)
C17_7 C 0.45985(18) 0.06431(13) 0.23422(16)
H9_7 H 0.4589 0.0324 0.2264
C18_7 C 0.44009(19) 0.07242(14) 0.29971(17)
H10_6 H 0.4255 0.0459 0.3365
C19_9 C 0.44127(21) 0.11785(15) 0.31199(16)
C20_9 C 0.46417(21) 0.15786(16) 0.25898(19)
H11_9 H 0.4661 0.1902 0.2683
C21_7 C 0.48412(21) 0.15021(15) 0.19274(17)
H12_9 H 0.4996 0.1772 0.1567
C22_7 C 0.41631(22) 0.12529(17) 0.38047(18)
Zn3_7 Zn 0.37081(4) 0.14444(2) 0.47919(2)
O6_7 O 0.62987(19) 0.05045(15) 0.25064(13)
O7_7 O 0.59092(19) 0.09527(16) 0.26758(14)
H1_7 H 0.6299 0.9951 0.1219
H2_6 H 0.6595 0.9872 0.0055
N1_8 N 0.35914(10) 0.10418(9) 0.57984(12)
N2_8 N 0.40091(9) 0.20551(9) 0.55414(11)
N3_6 N 0.41998(9) 0.22940(9) 0.67135(13)
O1_4 O 0.52267(10) 0.50510(8) 0.75410(11)
O2_8 O 0.55203(10) 0.47580(9) 0.84520(11)
C1_8 C 0.33930(15) 0.05318(12) 0.58815(19)
H1_8 H 0.3284 0.0318 0.5448
C2_8 C 0.33418(19) 0.03065(14) 0.6570(2)
C3_6 C 0.3490(2) 0.06114(15) 0.7189(2)
H3_6 H 0.3446 0.0460 0.7672
C4_6 C 0.37060(15) 0.11434(13) 0.71213(17)
H4_6 H 0.3819 0.1362 0.7549
C5_8 C 0.37503(11) 0.13416(11) 0.64121(15)
C6_8 C 0.39781(11) 0.18934(10) 0.62437(13)
C7_8 C 0.42626(12) 0.25847(11) 0.55674(14)
C8_8 C 0.43883(12) 0.27446(11) 0.63090(14)
C9_6 C 0.46402(12) 0.32505(11) 0.66778(14)
C10_6 C 0.49036(13) 0.33236(12) 0.73560(16)
H5_6 H 0.4930 0.3046 0.7568
C11_8 C 0.51241(13) 0.37923(13) 0.77185(16)
H6_8 H 0.5303 0.3835 0.8178
C12_8 C 0.50897(11) 0.42059(11) 0.74222(14)
C13_8 C 0.48269(11) 0.41352(11) 0.67408(15)
H7_10 H 0.4799 0.4413 0.6530
C14_10 C 0.46086(12) 0.36651(11) 0.63751(15)
H8_10 H 0.4435 0.3623 0.5912
C15_8 C 0.52976(11) 0.47080(12) 0.78417(14)
C16_8 C 0.43627(13) 0.28848(11) 0.48701(14)
C17_8 C 0.39764(13) 0.27112(12) 0.43245(16)
H9_8 H 0.3657 0.2401 0.4403
C18_8 C 0.40575(14) 0.29899(13) 0.36696(17)
H10_7 H 0.3792 0.2870 0.3302
C19_10 C 0.45118(15) 0.34324(14) 0.35468(16)
C20_10 C 0.49119(16) 0.36035(14) 0.40769(19)
H11_10 H 0.5235 0.3907 0.3984
C21_8 C 0.48354(15) 0.33275(14) 0.47393(17)
H12_10 H 0.5105 0.3442 0.5100
C22_8 C 0.45862(17) 0.37564(14) 0.28620(18)
H13_6 H 0.4203(13) 0.2277(13) 0.715(2)
O5_5 O 0.31576(13) 0.14400(10) 0.42077(11)
N1_9 N 0.89582(9) 0.25496(13) 0.57984(12)
N2_9 N 0.79449(9) 0.19540(13) 0.55414(11)
N3_7 N 0.77060(9) 0.19058(13) 0.67135(13)
O1_5 O 0.49490(8) 0.01757(13) 0.75410(11)
O2_9 O 0.52420(9) 0.07623(13) 0.84520(11)
C1_9 C 0.94682(12) 0.28612(19) 0.58815(19)
H1_9 H 0.9682 0.2966 0.5448
C2_9 C 0.96935(14) 0.30353(24) 0.6570(2)
C3_7 C 0.93886(15) 0.28786(25) 0.7189(2)
H3_7 H 0.9540 0.2986 0.7672
C4_7 C 0.88566(13) 0.25626(20) 0.71213(17)
H4_7 H 0.8638 0.2457 0.7549
C5_9 C 0.86584(11) 0.24087(16) 0.64121(15)
C6_9 C 0.81066(10) 0.20847(15) 0.62437(13)
C7_9 C 0.74153(11) 0.16779(16) 0.55674(14)
C8_9 C 0.72554(11) 0.16437(16) 0.63090(14)
C9_7 C 0.67495(11) 0.13897(16) 0.66778(14)
C10_7 C 0.66764(12) 0.15800(18) 0.73560(16)
H5_7 H 0.6954 0.1884 0.7568
C11_9 C 0.62077(13) 0.13318(18) 0.77185(16)
H6_9 H 0.6165 0.1468 0.8178
C12_9 C 0.57941(11) 0.08838(16) 0.74222(14)
C13_9 C 0.58648(11) 0.06917(16) 0.67408(15)
H7_11 H 0.5587 0.0386 0.6530
C14_11 C 0.63349(11) 0.09435(16) 0.63751(15)
H8_11 H 0.6377 0.0812 0.5912
C15_9 C 0.52920(12) 0.05896(16) 0.78417(14)
C16_9 C 0.71152(11) 0.14779(17) 0.48701(14)
C17_9 C 0.72888(12) 0.12652(18) 0.43245(16)
H9_9 H 0.7599 0.1256 0.4403
C18_9 C 0.70101(13) 0.10676(19) 0.36696(17)
H10_8 H 0.7130 0.0922 0.3302
C19_11 C 0.65676(14) 0.10794(21) 0.35468(16)
C20_11 C 0.63965(14) 0.13084(21) 0.40769(19)
H11_11 H 0.6093 0.1328 0.3984
C21_9 C 0.66725(14) 0.15079(21) 0.47393(17)
H12_11 H 0.6558 0.1663 0.5100
C22_9 C 0.62436(14) 0.08298(22) 0.28620(18)
H13_7 H 0.7723(13) 0.1926(18) 0.715(2)
O5_6 O 0.85600(10) 0.17177(16) 0.42077(11)
N1_10 N 0.74504(13) 0.64086(10) 0.57984(12)
N2_10 N 0.80460(13) 0.59909(9) 0.55414(11)
N3_8 N 0.80942(13) 0.58002(9) 0.67135(13)
O1_6 O 0.98243(13) 0.47733(10) 0.75410(11)
O2_10 O 0.92377(13) 0.44797(10) 0.84520(11)
C1_10 C 0.71388(19) 0.66070(15) 0.58815(19)
H1_10 H 0.7034 0.6716 0.5448
C2_10 C 0.69647(24) 0.66582(19) 0.6570(2)
H2_7 H 0.6738 0.6795 0.6612
C3_8 C 0.71214(25) 0.6510(2) 0.7189(2)
H3_8 H 0.7014 0.6554 0.7672
C4_8 C 0.74374(20) 0.62940(15) 0.71213(17)
H4_8 H 0.7543 0.6181 0.7549
C5_10 C 0.75913(16) 0.62497(11) 0.64121(15)
C6_10 C 0.79153(15) 0.60219(11) 0.62437(13)
C7_10 C 0.83221(16) 0.57374(12) 0.55674(14)
C8_10 C 0.83563(16) 0.56117(12) 0.63090(14)
C9_8 C 0.86103(16) 0.53598(12) 0.66778(14)
C10_8 C 0.84200(18) 0.50964(13) 0.73560(16)
H5_8 H 0.8116 0.5070 0.7568
C11_10 C 0.86682(18) 0.48759(13) 0.77185(16)
H6_10 H 0.8532 0.4697 0.8178
C12_10 C 0.91162(16) 0.49103(11) 0.74222(14)
C13_10 C 0.93083(16) 0.51731(11) 0.67408(15)
H7_12 H 0.9614 0.5201 0.6530
C14_12 C 0.90565(16) 0.53914(12) 0.63751(15)
H8_12 H 0.9188 0.5565 0.5912
C15_10 C 0.94104(16) 0.47024(11) 0.78417(14)
C16_10 C 0.85221(17) 0.56373(13) 0.48701(14)
C17_10 C 0.87348(18) 0.60236(13) 0.43245(16)
H9_10 H 0.8744 0.6343 0.4403
C18_10 C 0.89324(19) 0.59425(14) 0.36696(17)
H10_9 H 0.9078 0.6208 0.3302
C19_12 C 0.89206(21) 0.54882(15) 0.35468(16)
C20_12 C 0.86916(21) 0.50881(16) 0.40769(19)
H11_12 H 0.8672 0.4765 0.3984
C21_10 C 0.84921(21) 0.51646(15) 0.47393(17)
H12_12 H 0.8337 0.4895 0.5100
C22_10 C 0.91702(22) 0.54138(17) 0.28620(18)
H13_8 H 0.8074(18) 0.5797(13) 0.715(2)
O5_7 O 0.82823(16) 0.68424(13) 0.42077(11)
O2_11 O 0.88536(10) 0.14247(9) 0.51187(11)
C11_11 C 0.84574(13) 0.04590(13) 0.43852(16)
H6_11 H 0.8636 0.0502 0.4845
C12_11 C 0.84230(11) 0.08726(11) 0.40889(14)
C13_11 C 0.81602(11) 0.08019(11) 0.34075(15)
H7_13 H 0.8132 0.1080 0.3197
C14_13 C 0.79419(12) 0.03318(11) 0.30418(15)
H8_13 H 0.7768 0.0290 0.2579
C15_11 C 0.86309(11) 0.13747(12) 0.45084(14)
C19_13 C 0.78451(15) 0.00991(14) 0.02135(16)
C20_13 C 0.82452(16) 0.02702(14) 0.07436(19)
H11_13 H 0.8568 0.0574 0.0651
H12_13 H 0.8438 0.0109 0.1767
O2_12 O 0.85753(9) 0.74290(13) 0.51187(11)
C11_12 C 0.95410(13) 0.79985(18) 0.43852(16)
H6_12 H 0.9498 0.8135 0.4845
C12_12 C 0.91274(11) 0.75505(16) 0.40889(14)
C13_12 C 0.91981(11) 0.73584(16) 0.34075(15)
H7_14 H 0.8920 0.7053 0.3197
C14_14 C 0.96682(11) 0.76102(16) 0.30418(15)
H8_14 H 0.9710 0.7479 0.2579
C15_12 C 0.86253(12) 0.72563(16) 0.45084(14)
C19_14 C 0.99009(14) 0.77461(21) 0.02135(16)
C20_14 C 0.97298(14) 0.79751(21) 0.07436(19)
H11_14 H 0.9426 0.7995 0.0651
H12_14 H 0.9891 0.8330 0.1767
C22_11 C 0.95769(14) 0.74965(22) 0.95287(18)
N1_11 N 0.07837(13) 0.30753(10) 0.24651(12)
N2_11 N 0.13793(13) 0.26576(9) 0.22081(11)
N3_9 N 0.14275(13) 0.24669(9) 0.33802(13)
O2_13 O 0.25710(13) 0.11464(10) 0.51187(11)
C1_11 C 0.04721(19) 0.32737(15) 0.25482(19)
H1_11 H 0.0367 0.3383 0.2115
C2_11 C 0.02980(24) 0.33249(19) 0.3237(2)
H2_8 H 0.0071 0.3462 0.3279
C3_9 C 0.04547(25) 0.3177(2) 0.3856(2)
H3_9 H 0.0347 0.3221 0.4339
C4_9 C 0.07707(20) 0.29607(15) 0.37880(17)
H4_9 H 0.0876 0.2848 0.4216
C5_11 C 0.09246(16) 0.29164(11) 0.30788(15)
C6_11 C 0.12486(15) 0.26886(11) 0.29104(13)
C7_11 C 0.16554(16) 0.24041(12) 0.22341(14)
C8_11 C 0.16896(16) 0.22784(12) 0.29757(14)
C9_9 C 0.19436(16) 0.20265(12) 0.33445(14)
C10_9 C 0.17533(18) 0.17631(13) 0.40227(16)
H5_9 H 0.1449 0.1737 0.4235
C11_13 C 0.20015(18) 0.15426(13) 0.43852(16)
H6_13 H 0.1865 0.1364 0.4845
C12_13 C 0.24495(16) 0.15770(11) 0.40889(14)
C13_13 C 0.26416(16) 0.18398(11) 0.34075(15)
H7_15 H 0.2947 0.1868 0.3197
C14_15 C 0.23898(16) 0.20581(12) 0.30418(15)
H8_15 H 0.2521 0.2232 0.2579
C15_13 C 0.27437(16) 0.13691(11) 0.45084(14)
C16_11 C 0.18554(17) 0.23040(13) 0.15368(14)
C17_11 C 0.20681(18) 0.26903(13) 0.09912(16)
H9_11 H 0.2077 0.3010 0.1070
C18_11 C 0.22657(19) 0.26092(14) 0.03363(17)
C19_15 C 0.22539(21) 0.21549(15) 0.02135(16)
C20_15 C 0.20249(21) 0.17548(16) 0.07436(19)
H11_15 H 0.2005 0.1432 0.0651
C21_11 C 0.18254(21) 0.18313(15) 0.14060(17)
H12_15 H 0.1670 0.1562 0.1767
H13_9 H 0.1407(18) 0.2464(13) 0.382(2)
O5_8 O 0.16157(16) 0.35090(13) 0.08743(11)
N1_12 N 0.02581(10) 0.43751(9) 0.91317(12)
N2_12 N 0.06758(9) 0.53884(9) 0.88747(11)
C1_12 C 0.00597(15) 0.38651(12) 0.92148(19)
C2_12 C 0.00085(19) 0.36398(14) 0.9903(2)
C5_12 C 0.04170(11) 0.46749(11) 0.97454(15)
C6_12 C 0.06448(11) 0.52267(10) 0.95770(13)
C7_12 C 0.09293(12) 0.59180(11) 0.89007(14)
C8_12 C 0.10550(12) 0.60779(11) 0.96423(14)
H7_16 H 0.1466 0.7746 0.9863
C14_16 C 0.12753(12) 0.69984(11) 0.97084(15)
H8_16 H 0.1102 0.6956 0.9245
C16_12 C 0.10294(13) 0.62181(11) 0.82034(14)
C17_12 C 0.06431(13) 0.60445(12) 0.76578(16)
H9_12 H 0.0324 0.5734 0.7736
C18_12 C 0.07242(14) 0.63232(13) 0.70029(17)
H10_10 H 0.0459 0.6203 0.6635
C19_16 C 0.11785(15) 0.67657(14) 0.68801(16)
C20_16 C 0.15786(16) 0.69368(14) 0.74102(19)
H11_16 H 0.1902 0.7240 0.7317
C21_12 C 0.15021(15) 0.66608(14) 0.80726(17)
H12_16 H 0.1772 0.6775 0.8433
C22_12 C 0.12529(17) 0.70897(14) 0.61953(18)
H1_12 H 0.9951 0.3651 0.8781
H2_9 H 0.9872 0.3276 0.9945
N3_10 N 0.43727(9) 0.52391(13) 0.00468(13)
O2_14 O 0.19087(9) 0.40956(13) 0.17853(11)
C3_10 C 0.60553(15) 0.62119(25) 0.0522(2)
H3_10 H 0.6207 0.6319 0.1005
C4_10 C 0.55233(13) 0.58959(20) 0.04546(17)
H4_10 H 0.5305 0.5790 0.0882
C9_10 C 0.34162(11) 0.47230(16) 0.00111(14)
C10_10 C 0.33431(12) 0.49133(18) 0.06893(16)
H5_10 H 0.3621 0.5217 0.0901
C11_14 C 0.28744(13) 0.46651(18) 0.10518(16)
H6_14 H 0.2832 0.4801 0.1511
C12_14 C 0.24608(11) 0.42171(16) 0.07555(14)
C13_14 C 0.25315(11) 0.40250(16) 0.00741(15)
C15_14 C 0.19587(12) 0.39229(16) 0.11750(14)
H13_10 H 0.4390(13) 0.5259(18) 0.048(2)
N1_13 N 0.56249(9) 0.58829(13) 0.91317(12)
N2_13 N 0.46116(9) 0.52873(13) 0.88747(11)
C1_13 C 0.61349(12) 0.61945(19) 0.92148(19)
H1_13 H 0.6349 0.6299 0.8781
C2_13 C 0.63602(14) 0.63686(24) 0.9903(2)
H2_10 H 0.6724 0.6595 0.9945
C5_13 C 0.53251(11) 0.57420(16) 0.97454(15)
C6_13 C 0.47733(10) 0.54180(15) 0.95770(13)
C7_13 C 0.40820(11) 0.50112(16) 0.89007(14)
C8_13 C 0.39221(11) 0.49770(16) 0.96423(14)
H7_17 H 0.2254 0.3719 0.9863
C14_17 C 0.30016(11) 0.42768(16) 0.97084(15)
H8_17 H 0.3044 0.4145 0.9245
C16_13 C 0.37819(11) 0.48112(17) 0.82034(14)
C17_13 C 0.39555(12) 0.45985(18) 0.76578(16)
H9_13 H 0.4266 0.4589 0.7736
C18_13 C 0.36768(13) 0.44009(19) 0.70029(17)
H10_11 H 0.3797 0.4255 0.6635
C19_17 C 0.32343(14) 0.44127(21) 0.68801(16)
C20_17 C 0.30632(14) 0.46417(21) 0.74102(19)
H11_17 H 0.2760 0.4661 0.7317
C21_13 C 0.33392(14) 0.48412(21) 0.80726(17)
H12_17 H 0.3225 0.4996 0.8433
C22_13 C 0.29103(14) 0.41631(22) 0.61953(18)
H1_14 H 0.3701 0.0049 0.8781
H2_11 H 0.3405 0.0128 0.9945
N1_14 N 0.41171(13) 0.97419(10) 0.91317(12)
N2_14 N 0.47127(13) 0.93242(9) 0.88747(11)
C1_14 C 0.38055(19) 0.99403(15) 0.92148(19)
C2_14 C 0.36314(24) 0.99915(19) 0.9903(2)
C5_14 C 0.42580(16) 0.95830(11) 0.97454(15)
C6_14 C 0.45820(15) 0.93552(11) 0.95770(13)
C7_14 C 0.49888(16) 0.90707(12) 0.89007(14)
C8_14 C 0.50230(16) 0.89450(12) 0.96423(14)
H7_18 H 0.6281 0.8534 0.9863
C14_18 C 0.57232(16) 0.87247(12) 0.97084(15)
H8_18 H 0.5855 0.8898 0.9245
C16_14 C 0.51888(17) 0.89706(13) 0.82034(14)
C17_14 C 0.54015(18) 0.93569(13) 0.76578(16)
H9_14 H 0.5411 0.9676 0.7736
C18_14 C 0.55991(19) 0.92758(14) 0.70029(17)
H10_12 H 0.5745 0.9541 0.6635
C19_18 C 0.55873(21) 0.88215(15) 0.68801(16)
C20_18 C 0.53583(21) 0.84214(16) 0.74102(19)
H11_18 H 0.5339 0.8098 0.7317
C21_14 C 0.51588(21) 0.84979(15) 0.80726(17)
H12_18 H 0.5004 0.8228 0.8433
C22_14 C 0.58369(22) 0.87471(17) 0.61953(18)
H2_12 H 0.9943 0.6738 0.3388
H10_13 H 0.2875 0.0463 0.0031
Zn1_5 Zn 0.29586(2) 0.18889(2) 0.85414(2)
N1_15 N 0.30753(10) 0.22915(9) 0.75349(12)
N2_15 N 0.26576(9) 0.12782(9) 0.77919(11)
N3_11 N 0.24669(9) 0.10393(9) 0.66198(13)
C1_15 C 0.32737(15) 0.28015(12) 0.74518(19)
H1_15 H 0.3383 0.3015 0.7885
C2_15 C 0.33249(19) 0.30268(14) 0.6763(2)
H2_13 H 0.3462 0.3390 0.6721
C3_11 C 0.3177(2) 0.27219(15) 0.6144(2)
H3_11 H 0.3221 0.2873 0.5661
C4_11 C 0.29607(15) 0.21899(13) 0.62120(17)
H4_11 H 0.2848 0.1971 0.5784
C5_15 C 0.29164(11) 0.19917(11) 0.69212(15)
C6_15 C 0.26886(11) 0.14399(10) 0.70896(13)
C7_15 C 0.24041(12) 0.07486(11) 0.77659(14)
C8_15 C 0.22784(12) 0.05887(11) 0.70243(14)
C9_11 C 0.20265(12) 0.00828(11) 0.66555(14)
C10_11 C 0.17631(13) 0.00097(12) 0.59773(16)
H5_11 H 0.1737 0.0287 0.5765
C16_15 C 0.23040(13) 0.04485(11) 0.84632(14)
C17_15 C 0.26903(13) 0.06221(12) 0.90088(16)
H9_15 H 0.3010 0.0932 0.8930
C18_15 C 0.26092(14) 0.03434(13) 0.96637(17)
C21_15 C 0.18313(15) 0.00058(14) 0.85940(17)
H13_11 H 0.2464(13) 0.1056(13) 0.618(2)
O5_9 O 0.35090(13) 0.18934(10) 0.91257(11)
O6_8 O 0.28288(15) 0.24609(11) 0.91731(13)
O7_8 O 0.23806(16) 0.16232(11) 0.93425(14)
N3_12 N 0.52391(13) 0.08665(9) 0.99532(13)
O2_15 O 0.40956(13) 0.21870(10) 0.82147(11)
C3_12 C 0.62119(25) 0.0157(2) 0.9478(2)
H3_12 H 0.6319 0.0113 0.8995
C4_12 C 0.58959(20) 0.03727(15) 0.95454(17)
H4_12 H 0.5790 0.0486 0.9118
C9_12 C 0.47230(16) 0.13069(12) 0.99889(14)
C10_12 C 0.49133(18) 0.15703(13) 0.93107(16)
H5_12 H 0.5217 0.1597 0.9099
C11_15 C 0.46651(18) 0.17908(13) 0.89482(16)
H6_15 H 0.4801 0.1970 0.8489
C12_15 C 0.42171(16) 0.17564(11) 0.92445(14)
C13_15 C 0.40250(16) 0.14936(11) 0.99259(15)
C15_15 C 0.39229(16) 0.19643(11) 0.88250(14)
H13_12 H 0.5259(18) 0.0870(13) 0.952(2)
H10_14 H 0.2411 0.2875 0.9969
C22_15 C 0.25035(22) 0.20805(17) 0.95287(18)
O3_8 O 0.24609(11) 0.96320(10) 0.08269(13)
O4_8 O 0.16232(11) 0.92425(12) 0.06575(14)
C22_16 C 0.20805(17) 0.95769(14) 0.04713(18)
Zn3_8 Zn 0.18889(2) 0.89304(3) 0.14586(2)
N1_16 N 0.22915(9) 0.92163(13) 0.24651(12)
N2_16 N 0.12782(9) 0.86207(13) 0.22081(11)
N3_13 N 0.10393(9) 0.85725(13) 0.33802(13)
C1_16 C 0.28015(12) 0.95279(19) 0.25482(19)
H1_16 H 0.3015 0.9633 0.2115
C2_16 C 0.30268(14) 0.97020(24) 0.3237(2)
H2_14 H 0.3390 0.9929 0.3279
C3_13 C 0.27219(15) 0.95453(25) 0.3856(2)
H3_13 H 0.2873 0.9653 0.4339
C4_13 C 0.21899(13) 0.92293(20) 0.37880(17)
H4_13 H 0.1971 0.9124 0.4216
C5_16 C 0.19917(11) 0.90754(16) 0.30788(15)
C6_16 C 0.14399(10) 0.87514(15) 0.29104(13)
C7_16 C 0.07486(11) 0.83446(16) 0.22341(14)
C8_16 C 0.05887(11) 0.83104(16) 0.29757(14)
C9_13 C 0.00828(11) 0.80564(16) 0.33445(14)
C10_13 C 0.00097(12) 0.82467(18) 0.40227(16)
H5_13 H 0.0287 0.8551 0.4235
C16_16 C 0.04485(11) 0.81446(17) 0.15368(14)
C17_16 C 0.06221(12) 0.79319(18) 0.09912(16)
H9_16 H 0.0932 0.7923 0.1070
C18_16 C 0.03434(13) 0.77343(19) 0.03363(17)
C21_16 C 0.00058(14) 0.81746(21) 0.14060(17)
H13_13 H 0.1056(13) 0.8593(18) 0.382(2)
O5_10 O 0.18934(10) 0.83843(16) 0.08743(11)
N3_14 N 0.08665(9) 0.56273(9) 0.00468(13)
O2_16 O 0.21870(10) 0.80913(9) 0.17853(11)
C3_14 C 0.0157(2) 0.39447(15) 0.0522(2)
H3_14 H 0.0113 0.3793 0.1005
C4_14 C 0.03727(15) 0.44767(13) 0.04546(17)
H4_14 H 0.0486 0.4695 0.0882
C9_14 C 0.13069(12) 0.65838(11) 0.00111(14)
C10_14 C 0.15703(13) 0.66569(12) 0.06893(16)
H5_14 H 0.1597 0.6379 0.0901
C11_16 C 0.17908(13) 0.71256(13) 0.10518(16)
H6_16 H 0.1970 0.7168 0.1511
C12_16 C 0.17564(11) 0.75392(11) 0.07555(14)
C13_16 C 0.14936(11) 0.74685(11) 0.00741(15)
C15_16 C 0.19643(11) 0.80413(12) 0.11750(14)
H13_14 H 0.0870(13) 0.5610(13) 0.048(2)
H10_15 H 0.9537 0.2411 0.0031
Zn1_6 Zn 0.81111(2) 0.10696(3) 0.85414(2)
N1_17 N 0.77085(9) 0.07837(13) 0.75349(12)
N2_17 N 0.87218(9) 0.13793(13) 0.77919(11)
N3_15 N 0.89607(9) 0.14275(13) 0.66198(13)
C1_17 C 0.71985(12) 0.04721(19) 0.74518(19)
H1_17 H 0.6985 0.0367 0.7885
C2_17 C 0.69732(14) 0.02980(24) 0.6763(2)
H2_15 H 0.6610 0.0071 0.6721
C3_15 C 0.72781(15) 0.04547(25) 0.6144(2)
H3_15 H 0.7127 0.0347 0.5661
C4_15 C 0.78101(13) 0.07707(20) 0.62120(17)
H4_15 H 0.8029 0.0876 0.5784
C5_17 C 0.80083(11) 0.09246(16) 0.69212(15)
C6_17 C 0.85601(10) 0.12486(15) 0.70896(13)
C7_17 C 0.92514(11) 0.16554(16) 0.77659(14)
C8_17 C 0.94113(11) 0.16896(16) 0.70243(14)
C9_15 C 0.99172(11) 0.19436(16) 0.66555(14)
C10_15 C 0.99903(12) 0.17533(18) 0.59773(16)
H5_15 H 0.9713 0.1449 0.5765
C16_17 C 0.95515(11) 0.18554(17) 0.84632(14)
C17_17 C 0.93779(12) 0.20681(18) 0.90088(16)
H9_17 H 0.9068 0.2077 0.8930
C18_17 C 0.96566(13) 0.22657(19) 0.96637(17)
C21_17 C 0.99942(14) 0.18254(21) 0.85940(17)
H13_15 H 0.8944(13) 0.1407(18) 0.618(2)
O5_11 O 0.81066(10) 0.16157(16) 0.91257(11)
O6_9 O 0.75391(11) 0.03680(19) 0.91731(13)
O7_9 O 0.83768(11) 0.07575(19) 0.93425(14)
N3_16 N 0.91335(9) 0.43727(9) 0.99532(13)
O2_17 O 0.78130(10) 0.19087(9) 0.82147(11)
C3_16 C 0.9843(2) 0.60553(15) 0.9478(2)
H3_16 H 0.9887 0.6207 0.8995
C4_16 C 0.96273(15) 0.55233(13) 0.95454(17)
H4_16 H 0.9514 0.5305 0.9118
C9_16 C 0.86931(12) 0.34162(11) 0.99889(14)
C10_16 C 0.84297(13) 0.33431(12) 0.93107(16)
H5_16 H 0.8403 0.3621 0.9099
C11_17 C 0.82092(13) 0.28744(13) 0.89482(16)
H6_17 H 0.8030 0.2832 0.8489
C12_17 C 0.82436(11) 0.24608(11) 0.92445(14)
C13_17 C 0.85064(11) 0.25315(11) 0.99259(15)
C15_17 C 0.80357(11) 0.19587(12) 0.88250(14)
H13_16 H 0.9130(13) 0.4390(13) 0.952(2)
C22_17 C 0.79195(17) 0.04231(14) 0.95287(18)
O3_9 O 0.71712(15) 0.75391(11) 0.08269(13)
O4_9 O 0.76194(16) 0.83768(11) 0.06575(14)
H10_16 H 0.7589 0.7125 0.0031
C22_18 C 0.74965(22) 0.79195(17) 0.04713(18)
Zn3_9 Zn 0.70414(4) 0.81111(2) 0.14586(2)
N1_18 N 0.69247(10) 0.77085(9) 0.24651(12)
N2_18 N 0.73424(9) 0.87218(9) 0.22081(11)
N3_17 N 0.75331(9) 0.89607(9) 0.33802(13)
C1_18 C 0.67263(15) 0.71985(12) 0.25482(19)
H1_18 H 0.6617 0.6985 0.2115
C2_18 C 0.66751(19) 0.69732(14) 0.3237(2)
H2_16 H 0.6538 0.6610 0.3279
C3_17 C 0.6823(2) 0.72781(15) 0.3856(2)
H3_17 H 0.6779 0.7127 0.4339
C4_17 C 0.70393(15) 0.78101(13) 0.37880(17)
H4_17 H 0.7152 0.8029 0.4216
C5_18 C 0.70836(11) 0.80083(11) 0.30788(15)
C6_18 C 0.73114(11) 0.85601(10) 0.29104(13)
C7_18 C 0.75959(12) 0.92514(11) 0.22341(14)
C8_18 C 0.77216(12) 0.94113(11) 0.29757(14)
C9_17 C 0.79735(12) 0.99172(11) 0.33445(14)
C10_17 C 0.82369(13) 0.99903(12) 0.40227(16)
H5_17 H 0.8263 0.9713 0.4235
C16_18 C 0.76960(13) 0.95515(11) 0.15368(14)
C17_18 C 0.73097(13) 0.93779(12) 0.09912(16)
H9_18 H 0.6990 0.9068 0.1070
C18_18 C 0.73908(14) 0.96566(13) 0.03363(17)
C21_18 C 0.81687(15) 0.99942(14) 0.14060(17)
H13_17 H 0.7536(13) 0.8944(13) 0.382(2)
O5_12 O 0.64910(13) 0.81066(10) 0.08743(11)
N3_18 N 0.47609(13) 0.91335(9) 0.00468(13)
O2_18 O 0.59044(13) 0.78130(10) 0.17853(11)
C3_18 C 0.37881(25) 0.9843(2) 0.0522(2)
H3_18 H 0.3681 0.9887 0.1005
C4_18 C 0.41041(20) 0.96273(15) 0.04546(17)
H4_18 H 0.4210 0.9514 0.0882
C9_18 C 0.52770(16) 0.86931(12) 0.00111(14)
C10_18 C 0.50867(18) 0.84297(13) 0.06893(16)
H5_18 H 0.4783 0.8403 0.0901
C11_18 C 0.53349(18) 0.82092(13) 0.10518(16)
H6_18 H 0.5199 0.8030 0.1511
C12_18 C 0.57829(16) 0.82436(11) 0.07555(14)
C13_18 C 0.59750(16) 0.85064(11) 0.00741(15)
C15_18 C 0.60771(16) 0.80357(11) 0.11750(14)
H13_18 H 0.4741(18) 0.9130(13) 0.048(2)
H2_17 H 0.3205 0.9943 0.6612
H2_18 H 0.0057 0.3262 0.6612
H10_17 H 0.7125 0.9537 0.9969
H10_18 H 0.0463 0.7589 0.9969
loop_
_geom_bond_atom_site_label_1
_geom_bond_atom_site_label_2
_geom_bond_site_symmetry_1
_geom_bond_site_symmetry_2
Zn1 N1 1_555 1_555
N1 C1 1_555 1_555
N2 Zn1 1_555 1_555
N3 C6 1_555 1_555
O1 C15 1_555 1_555
O2 C15 1_555 1_555
O3 C22 1_555 1_555
O4 C22 1_555 1_555
C1 H1 1_555 1_555
C2 C1 1_555 1_555
C3 C2 1_555 1_555
H3 C3 1_555 1_555
C4 C3 1_555 1_555
H4 C4 1_555 1_555
C5 N1 1_555 1_555
C6 N2 1_555 1_555
C7 N2 1_555 1_555
C8 N3 1_555 1_555
C9 C8 1_555 1_555
C10 C9 1_555 1_555
H5 C10 1_555 1_555
C11 C10 1_555 1_555
H6 C11 1_555 1_555
C12 C11 1_555 1_555
C13 C12 1_555 1_555
H7 C13 1_555 1_555
C14 C9 1_555 1_555
H8 C14 1_555 1_555
C15 C12 1_555 1_555
C16 C7 1_555 1_555
C17 C16 1_555 1_555
H9 C17 1_555 1_555
C18 C17 1_555 1_555
H10 C18 1_555 1_555
C19 C18 1_555 1_555
C20 C19 1_555 1_555
H11 C20 1_555 1_555
C21 C16 1_555 1_555
H12 C21 1_555 1_555
C22 C19 1_555 1_555
H13 N3 1_555 1_555
Zn2 O1 1_555 1_555
Zn3 O3 1_555 1_555
O5 Zn1 1_555 1_555
O6 Zn1 1_555 1_555
O7 Zn1 1_555 1_555
O4 Zn3 1_555 1_555
C4 C5 1_555 1_555
C5 C6 1_555 1_555
C7 C8 1_555 1_555
C13 C14 1_555 1_555
C20 C21 1_555 1_555
Zn1_2 N1_2 1_555 1_555
N1_2 C1_2 1_555 1_555
N2_2 Zn1_2 1_555 1_555
N3_2 C6_2 1_555 1_555
O1_2 C15_2 1_555 1_555
O2_2 C15_2 1_555 1_555
O3_2 C22_2 1_555 1_555
O4_2 C22_2 1_555 1_555
C1_2 H1_2 1_555 1_555
C2_2 C1_2 1_555 1_555
C3_2 C2_2 1_555 1_555
H3_2 C3_2 1_555 1_555
C4_2 C3_2 1_555 1_555
H4_2 C4_2 1_555 1_555
C5_2 N1_2 1_555 1_555
C6_2 N2_2 1_555 1_555
C7_2 N2_2 1_555 1_555
C8_2 N3_2 1_555 1_555
C9_2 C8_2 1_555 1_555
C10_2 C9_2 1_555 1_555
H5_2 C10_2 1_555 1_555
C11_2 C10_2 1_555 1_555
H6_2 C11_2 1_555 1_555
C12_2 C11_2 1_555 1_555
C13_2 C12_2 1_555 1_555
H7_2 C13_2 1_555 1_555
C14_2 C9_2 1_555 1_555
H8_2 C14_2 1_555 1_555
C15_2 C12_2 1_555 1_555
C16_2 C7_2 1_555 1_555
C17_2 C16_2 1_555 1_555
H9_2 C17_2 1_555 1_555
C18_2 C17_2 1_555 1_555
H10_2 C18_2 1_555 1_555
C19_2 C18_2 1_555 1_555
C20_2 C19_2 1_555 1_555
H11_2 C20_2 1_555 1_555
C21_2 C16_2 1_555 1_555
H12_2 C21_2 1_555 1_555
C22_2 C19_2 1_555 1_555
H13_2 N3_2 1_555 1_555
Zn3_2 O3_2 1_555 1_555
O5_2 Zn1_2 1_555 1_555
O6_2 Zn1_2 1_555 1_555
O7_2 Zn1_2 1_555 1_555
O4_2 Zn3_2 1_555 1_555
C4_2 C5_2 1_555 1_555
C5_2 C6_2 1_555 1_555
C7_2 C8_2 1_555 1_555
C13_2 C14_2 1_555 1_555
C20_2 C21_2 1_555 1_555
Zn1_3 N1_3 1_555 1_555
N1_3 C1_3 1_555 1_555
N2_3 Zn1_3 1_555 1_555
N3_3 C6_3 1_555 1_555
O1_3 C15_3 1_555 1_555
O2_3 C15_3 1_555 1_555
O3_3 C22_3 1_555 1_555
O4_3 C22_3 1_555 1_555
C1_3 H1_3 1_555 1_555
C2_3 C1_3 1_555 1_555
H2_2 C2_3 1_555 1_555
C3_3 C2_3 1_555 1_555
H3_3 C3_3 1_555 1_555
C4_3 C3_3 1_555 1_555
H4_3 C4_3 1_555 1_555
C5_3 N1_3 1_555 1_555
C6_3 N2_3 1_555 1_555
C7_3 N2_3 1_555 1_555
C8_3 N3_3 1_555 1_555
C9_3 C8_3 1_555 1_555
C10_3 C9_3 1_555 1_555
H5_3 C10_3 1_555 1_555
C11_3 C10_3 1_555 1_555
H6_3 C11_3 1_555 1_555
C12_3 C11_3 1_555 1_555
C13_3 C12_3 1_555 1_555
H7_3 C13_3 1_555 1_555
C14_3 C9_3 1_555 1_555
H8_3 C14_3 1_555 1_555
C15_3 C12_3 1_555 1_555
C16_3 C7_3 1_555 1_555
C17_3 C16_3 1_555 1_555
H9_3 C17_3 1_555 1_555
C18_3 C17_3 1_555 1_555
H10_3 C18_3 1_555 1_555
C19_3 C18_3 1_555 1_555
C20_3 C19_3 1_555 1_555
H11_3 C20_3 1_555 1_555
C21_3 C16_3 1_555 1_555
H12_3 C21_3 1_555 1_555
C22_3 C19_3 1_555 1_555
H13_3 N3_3 1_555 1_555
Zn3_3 O3_3 1_555 1_555
O5_3 Zn1_3 1_555 1_555
O6_3 Zn1_3 1_555 1_555
O7_3 Zn1_3 1_555 1_555
O4_3 Zn3_3 1_555 1_555
C4_3 C5_3 1_555 1_555
C5_3 C6_3 1_555 1_555
C7_3 C8_3 1_555 1_555
C13_3 C14_3 1_555 1_555
C20_3 C21_3 1_555 1_555
O5_2 C15_4 1_555 1_555
O2_4 C15_4 1_555 1_555
H6_4 C11_4 1_555 1_555
C12_4 C11_4 1_555 1_555
C13_4 C12_4 1_555 1_555
H7_4 C13_4 1_555 1_555
H8_4 C14_4 1_555 1_555
C15_4 C12_4 1_555 1_555
C20_4 C19_4 1_555 1_555
H11_4 C20_4 1_555 1_555
C13_4 C14_4 1_555 1_555
O3_4 C22_4 1_555 1_555
O4_4 C22_4 1_555 1_555
Zn3_4 O3_4 1_555 1_555
O4_4 Zn3_4 1_555 1_555
O5_3 C15_5 1_555 1_555
O2_5 C15_5 1_555 1_555
H6_5 C11_5 1_555 1_555
C12_5 C11_5 1_555 1_555
C13_5 C12_5 1_555 1_555
H7_5 C13_5 1_555 1_555
H8_5 C14_5 1_555 1_555
C15_5 C12_5 1_555 1_555
C20_5 C19_5 1_555 1_555
H11_5 C20_5 1_555 1_555
C13_5 C14_5 1_555 1_555
Zn1_4 N1_4 1_555 1_555
N1_4 C1_4 1_555 1_555
N2_4 Zn1_4 1_555 1_555
N3_4 C6_4 1_555 1_555
O5 C15_6 1_555 1_555
O2_6 C15_6 1_555 1_555
C1_4 H1_4 1_555 1_555
C2_4 C1_4 1_555 1_555
H2_3 C2_4 1_555 1_555
C3_4 C2_4 1_555 1_555
H3_4 C3_4 1_555 1_555
C4_4 C3_4 1_555 1_555
H4_4 C4_4 1_555 1_555
C5_4 N1_4 1_555 1_555
C6_4 N2_4 1_555 1_555
C7_4 N2_4 1_555 1_555
C8_4 N3_4 1_555 1_555
C9_4 C8_4 1_555 1_555
C10_4 C9_4 1_555 1_555
H5_4 C10_4 1_555 1_555
C11_6 C10_4 1_555 1_555
H6_6 C11_6 1_555 1_555
C12_6 C11_6 1_555 1_555
C13_6 C12_6 1_555 1_555
H7_6 C13_6 1_555 1_555
C14_6 C9_4 1_555 1_555
H8_6 C14_6 1_555 1_555
C15_6 C12_6 1_555 1_555
C16_4 C7_4 1_555 1_555
C17_4 C16_4 1_555 1_555
H9_4 C17_4 1_555 1_555
C18_4 C17_4 1_555 1_555
C19_6 C18_4 1_555 1_555
C20_6 C19_6 1_555 1_555
H11_6 C20_6 1_555 1_555
C21_4 C16_4 1_555 1_555
H12_6 C21_4 1_555 1_555
H13_4 N3_4 1_555 1_555
O5_4 Zn1_4 1_555 1_555
O6_4 Zn1_4 1_555 1_555
O7_4 Zn1_4 1_555 1_555
C4_4 C5_4 1_555 1_555
C5_4 C6_4 1_555 1_555
C7_4 C8_4 1_555 1_555
C13_6 C14_6 1_555 1_555
C20_6 C21_4 1_555 1_555
Zn2_3 N1_5 1_555 1_555
N1_5 C1_5 1_555 1_555
N2_5 Zn2_3 1_555 1_555
O3_5 C22_5 1_555 1_555
O4_5 C22_5 1_555 1_555
C2_5 C1_5 1_555 1_555
C5_5 N1_5 1_555 1_555
C6_5 N2_5 1_555 1_555
C7_5 N2_5 1_555 1_555
H8_7 C14_7 1_555 1_555
C16_5 C7_5 1_555 1_555
C17_5 C16_5 1_555 1_555
H9_5 C17_5 1_555 1_555
C18_5 C17_5 1_555 1_555
H10_4 C18_5 1_555 1_555
C19_7 C18_5 1_555 1_555
C20_7 C19_7 1_555 1_555
H11_7 C20_7 1_555 1_555
C21_5 C16_5 1_555 1_555
H12_7 C21_5 1_555 1_555
C22_5 C19_7 1_555 1_555
Zn3_5 O3_5 1_555 1_555
O6_5 Zn2_3 1_555 1_555
O7_5 Zn2_3 1_555 1_555
O4_5 Zn3_5 1_555 1_555
C5_5 C6_5 1_555 1_555
C7_5 C8_5 1_555 1_555
C20_7 C21_5 1_555 1_555
Zn2 N1_6 1_555 1_555
N1_6 C1_6 1_555 1_555
N2_6 Zn2 1_555 1_555
O3_6 C22_6 1_555 1_555
O4_6 C22_6 1_555 1_555
C1_6 H1_6 1_555 1_555
C2_6 C1_6 1_555 1_555
H2_5 C2_6 1_555 1_555
C5_6 N1_6 1_555 1_555
C6_6 N2_6 1_555 1_555
C7_6 N2_6 1_555 1_555
H8_8 C14_8 1_555 1_555
C16_6 C7_6 1_555 1_555
C17_6 C16_6 1_555 1_555
H9_6 C17_6 1_555 1_555
C18_6 C17_6 1_555 1_555
H10_5 C18_6 1_555 1_555
C19_8 C18_6 1_555 1_555
C20_8 C19_8 1_555 1_555
H11_8 C20_8 1_555 1_555
C21_6 C16_6 1_555 1_555
H12_8 C21_6 1_555 1_555
C22_6 C19_8 1_555 1_555
Zn3_6 O3_6 1_555 1_555
O6_6 Zn2 1_555 1_555
O7_6 Zn2 1_555 1_555
O4_6 Zn3_6 1_555 1_555
C5_6 C6_6 1_555 1_555
C7_6 C8_6 1_555 1_555
C20_8 C21_6 1_555 1_555
O5_4 C15_7 1_555 1_555
O2_7 C15_7 1_555 1_555
H3_5 C3_5 1_555 1_555
C4_5 C3_5 1_555 1_555
H4_5 C4_5 1_555 1_555
C10_5 C9_5 1_555 1_555
H5_5 C10_5 1_555 1_555
C11_7 C10_5 1_555 1_555
H6_7 C11_7 1_555 1_555
C12_7 C11_7 1_555 1_555
C13_7 C12_7 1_555 1_555
C15_7 C12_7 1_555 1_555
H13_5 N3_5 1_555 1_555
Zn2_2 N1_7 1_555 1_555
N1_7 C1_7 1_555 1_555
N2_7 Zn2_2 1_555 1_555
O3_7 C22_7 1_555 1_555
O4_7 C22_7 1_555 1_555
C2_7 C1_7 1_555 1_555
C5_7 N1_7 1_555 1_555
C6_7 N2_7 1_555 1_555
C7_7 N2_7 1_555 1_555
H8_9 C14_9 1_555 1_555
C16_7 C7_7 1_555 1_555
C17_7 C16_7 1_555 1_555
H9_7 C17_7 1_555 1_555
C18_7 C17_7 1_555 1_555
H10_6 C18_7 1_555 1_555
C19_9 C18_7 1_555 1_555
C20_9 C19_9 1_555 1_555
H11_9 C20_9 1_555 1_555
C21_7 C16_7 1_555 1_555
H12_9 C21_7 1_555 1_555
C22_7 C19_9 1_555 1_555
Zn3_7 O3_7 1_555 1_555
O6_7 Zn2_2 1_555 1_555
O7_7 Zn2_2 1_555 1_555
O4_7 Zn3_7 1_555 1_555
C5_7 C6_7 1_555 1_555
C7_7 C8_7 1_555 1_555
C20_9 C21_7 1_555 1_555
Zn3_7 N1_8 1_555 1_555
N1_8 C1_8 1_555 1_555
N2_8 Zn3_7 1_555 1_555
N3_6 C6_8 1_555 1_555
O1_4 C15_8 1_555 1_555
O2_8 C15_8 1_555 1_555
O6_6 C22_8 1_555 1_555
O7_6 C22_8 1_555 1_555
C1_8 H1_8 1_555 1_555
C2_8 C1_8 1_555 1_555
C3_6 C2_8 1_555 1_555
H3_6 C3_6 1_555 1_555
C4_6 C3_6 1_555 1_555
H4_6 C4_6 1_555 1_555
C5_8 N1_8 1_555 1_555
C6_8 N2_8 1_555 1_555
C7_8 N2_8 1_555 1_555
C8_8 N3_6 1_555 1_555
C9_6 C8_8 1_555 1_555
C10_6 C9_6 1_555 1_555
H5_6 C10_6 1_555 1_555
C11_8 C10_6 1_555 1_555
H6_8 C11_8 1_555 1_555
C12_8 C11_8 1_555 1_555
C13_8 C12_8 1_555 1_555
H7_10 C13_8 1_555 1_555
C14_10 C9_6 1_555 1_555
H8_10 C14_10 1_555 1_555
C15_8 C12_8 1_555 1_555
C16_8 C7_8 1_555 1_555
C17_8 C16_8 1_555 1_555
H9_8 C17_8 1_555 1_555
C18_8 C17_8 1_555 1_555
H10_7 C18_8 1_555 1_555
C19_10 C18_8 1_555 1_555
C20_10 C19_10 1_555 1_555
H11_10 C20_10 1_555 1_555
C21_8 C16_8 1_555 1_555
H12_10 C21_8 1_555 1_555
C22_8 C19_10 1_555 1_555
H13_6 N3_6 1_555 1_555
Zn3 O1_4 1_555 1_555
O5_5 Zn3_7 1_555 1_555
C4_6 C5_8 1_555 1_555
C5_8 C6_8 1_555 1_555
C7_8 C8_8 1_555 1_555
C13_8 C14_10 1_555 1_555
C20_10 C21_8 1_555 1_555
Zn3_5 N1_9 1_555 1_555
N1_9 C1_9 1_555 1_555
N2_9 Zn3_5 1_555 1_555
N3_7 C6_9 1_555 1_555
O1_5 C15_9 1_555 1_555
O2_9 C15_9 1_555 1_555
O6_7 C22_9 1_555 1_555
O7_7 C22_9 1_555 1_555
C1_9 H1_9 1_555 1_555
C2_9 C1_9 1_555 1_555
C3_7 C2_9 1_555 1_555
H3_7 C3_7 1_555 1_555
C4_7 C3_7 1_555 1_555
H4_7 C4_7 1_555 1_555
C5_9 N1_9 1_555 1_555
C6_9 N2_9 1_555 1_555
C7_9 N2_9 1_555 1_555
C8_9 N3_7 1_555 1_555
C9_7 C8_9 1_555 1_555
C10_7 C9_7 1_555 1_555
H5_7 C10_7 1_555 1_555
C11_9 C10_7 1_555 1_555
H6_9 C11_9 1_555 1_555
C12_9 C11_9 1_555 1_555
C13_9 C12_9 1_555 1_555
H7_11 C13_9 1_555 1_555
C14_11 C9_7 1_555 1_555
H8_11 C14_11 1_555 1_555
C15_9 C12_9 1_555 1_555
C16_9 C7_9 1_555 1_555
C17_9 C16_9 1_555 1_555
H9_9 C17_9 1_555 1_555
C18_9 C17_9 1_555 1_555
H10_8 C18_9 1_555 1_555
C19_11 C18_9 1_555 1_555
C20_11 C19_11 1_555 1_555
H11_11 C20_11 1_555 1_555
C21_9 C16_9 1_555 1_555
H12_11 C21_9 1_555 1_555
C22_9 C19_11 1_555 1_555
H13_7 N3_7 1_555 1_555
O5_6 Zn3_5 1_555 1_555
C4_7 C5_9 1_555 1_555
C5_9 C6_9 1_555 1_555
C7_9 C8_9 1_555 1_555
C13_9 C14_11 1_555 1_555
C20_11 C21_9 1_555 1_555
Zn3_6 N1_10 1_555 1_555
N1_10 C1_10 1_555 1_555
N2_10 Zn3_6 1_555 1_555
N3_8 C6_10 1_555 1_555
O1_6 C15_10 1_555 1_555
O2_10 C15_10 1_555 1_555
O6_5 C22_10 1_555 1_555
O7_5 C22_10 1_555 1_555
C1_10 H1_10 1_555 1_555
C2_10 C1_10 1_555 1_555
H2_7 C2_10 1_555 1_555
C3_8 C2_10 1_555 1_555
H3_8 C3_8 1_555 1_555
C4_8 C3_8 1_555 1_555
H4_8 C4_8 1_555 1_555
C5_10 N1_10 1_555 1_555
C6_10 N2_10 1_555 1_555
C7_10 N2_10 1_555 1_555
C8_10 N3_8 1_555 1_555
C9_8 C8_10 1_555 1_555
C10_8 C9_8 1_555 1_555
H5_8 C10_8 1_555 1_555
C11_10 C10_8 1_555 1_555
H6_10 C11_10 1_555 1_555
C12_10 C11_10 1_555 1_555
C13_10 C12_10 1_555 1_555
H7_12 C13_10 1_555 1_555
C14_12 C9_8 1_555 1_555
H8_12 C14_12 1_555 1_555
C15_10 C12_10 1_555 1_555
C16_10 C7_10 1_555 1_555
C17_10 C16_10 1_555 1_555
H9_10 C17_10 1_555 1_555
C18_10 C17_10 1_555 1_555
H10_9 C18_10 1_555 1_555
C19_12 C18_10 1_555 1_555
C20_12 C19_12 1_555 1_555
H11_12 C20_12 1_555 1_555
C21_10 C16_10 1_555 1_555
H12_12 C21_10 1_555 1_555
C22_10 C19_12 1_555 1_555
H13_8 N3_8 1_555 1_555
O5_7 Zn3_6 1_555 1_555
C4_8 C5_10 1_555 1_555
C5_10 C6_10 1_555 1_555
C7_10 C8_10 1_555 1_555
C13_10 C14_12 1_555 1_555
C20_12 C21_10 1_555 1_555
O5_6 C15_11 1_555 1_555
O2_11 C15_11 1_555 1_555
H6_11 C11_11 1_555 1_555
C12_11 C11_11 1_555 1_555
C13_11 C12_11 1_555 1_555
H7_13 C13_11 1_555 1_555
H8_13 C14_13 1_555 1_555
C15_11 C12_11 1_555 1_555
C20_13 C19_13 1_555 1_555
H11_13 C20_13 1_555 1_555
C13_11 C14_13 1_555 1_555
O5_7 C15_12 1_555 1_555
O2_12 C15_12 1_555 1_555
H6_12 C11_12 1_555 1_555
C12_12 C11_12 1_555 1_555
C13_12 C12_12 1_555 1_555
H7_14 C13_12 1_555 1_555
H8_14 C14_14 1_555 1_555
C15_12 C12_12 1_555 1_555
C20_14 C19_14 1_555 1_555
H11_14 C20_14 1_555 1_555
C13_12 C14_14 1_555 1_555
O6_4 C22_11 1_555 1_555
O7_4 C22_11 1_555 1_555
Zn3_4 N1_11 1_555 1_555
N1_11 C1_11 1_555 1_555
N2_11 Zn3_4 1_555 1_555
N3_9 C6_11 1_555 1_555
O5_5 C15_13 1_555 1_555
O2_13 C15_13 1_555 1_555
C1_11 H1_11 1_555 1_555
C2_11 C1_11 1_555 1_555
H2_8 C2_11 1_555 1_555
C3_9 C2_11 1_555 1_555
H3_9 C3_9 1_555 1_555
C4_9 C3_9 1_555 1_555
H4_9 C4_9 1_555 1_555
C5_11 N1_11 1_555 1_555
C6_11 N2_11 1_555 1_555
C7_11 N2_11 1_555 1_555
C8_11 N3_9 1_555 1_555
C9_9 C8_11 1_555 1_555
C10_9 C9_9 1_555 1_555
H5_9 C10_9 1_555 1_555
C11_13 C10_9 1_555 1_555
H6_13 C11_13 1_555 1_555
C12_13 C11_13 1_555 1_555
C13_13 C12_13 1_555 1_555
H7_15 C13_13 1_555 1_555
C14_15 C9_9 1_555 1_555
H8_15 C14_15 1_555 1_555
C15_13 C12_13 1_555 1_555
C16_11 C7_11 1_555 1_555
C17_11 C16_11 1_555 1_555
H9_11 C17_11 1_555 1_555
C18_11 C17_11 1_555 1_555
C19_15 C18_11 1_555 1_555
C20_15 C19_15 1_555 1_555
H11_15 C20_15 1_555 1_555
C21_11 C16_11 1_555 1_555
H12_15 C21_11 1_555 1_555
H13_9 N3_9 1_555 1_555
O5_8 Zn3_4 1_555 1_555
C4_9 C5_11 1_555 1_555
C5_11 C6_11 1_555 1_555
C7_11 C8_11 1_555 1_555
C13_13 C14_15 1_555 1_555
C20_15 C21_11 1_555 1_555
Zn3_3 N1_12 1_555 1_555
N1_12 C1_12 1_555 1_555
N2_12 Zn3_3 1_555 1_555
O6_2 C22_12 1_555 1_555
O7_2 C22_12 1_555 1_555
C2_12 C1_12 1_555 1_555
C5_12 N1_12 1_555 1_555
C6_12 N2_12 1_555 1_555
C7_12 N2_12 1_555 1_555
H8_16 C14_16 1_555 1_555
C16_12 C7_12 1_555 1_555
C17_12 C16_12 1_555 1_555
H9_12 C17_12 1_555 1_555
C18_12 C17_12 1_555 1_555
H10_10 C18_12 1_555 1_555
C19_16 C18_12 1_555 1_555
C20_16 C19_16 1_555 1_555
H11_16 C20_16 1_555 1_555
C21_12 C16_12 1_555 1_555
H12_16 C21_12 1_555 1_555
C22_12 C19_16 1_555 1_555
C5_12 C6_12 1_555 1_555
C7_12 C8_12 1_555 1_555
C20_16 C21_12 1_555 1_555
O5_8 C15_14 1_555 1_555
O2_14 C15_14 1_555 1_555
H3_10 C3_10 1_555 1_555
C4_10 C3_10 1_555 1_555
H4_10 C4_10 1_555 1_555
C10_10 C9_10 1_555 1_555
H5_10 C10_10 1_555 1_555
C11_14 C10_10 1_555 1_555
H6_14 C11_14 1_555 1_555
C12_14 C11_14 1_555 1_555
C13_14 C12_14 1_555 1_555
C15_14 C12_14 1_555 1_555
H13_10 N3_10 1_555 1_555
Zn3 N1_13 1_555 1_555
N1_13 C1_13 1_555 1_555
N2_13 Zn3 1_555 1_555
O6_3 C22_13 1_555 1_555
O7_3 C22_13 1_555 1_555
C1_13 H1_13 1_555 1_555
C2_13 C1_13 1_555 1_555
H2_10 C2_13 1_555 1_555
C5_13 N1_13 1_555 1_555
C6_13 N2_13 1_555 1_555
C7_13 N2_13 1_555 1_555
H8_17 C14_17 1_555 1_555
C16_13 C7_13 1_555 1_555
C17_13 C16_13 1_555 1_555
H9_13 C17_13 1_555 1_555
C18_13 C17_13 1_555 1_555
H10_11 C18_13 1_555 1_555
C19_17 C18_13 1_555 1_555
C20_17 C19_17 1_555 1_555
H11_17 C20_17 1_555 1_555
C21_13 C16_13 1_555 1_555
H12_17 C21_13 1_555 1_555
C22_13 C19_17 1_555 1_555
C5_13 C6_13 1_555 1_555
C7_13 C8_13 1_555 1_555
C20_17 C21_13 1_555 1_555
Zn3_2 N1_14 1_555 1_555
N1_14 C1_14 1_555 1_555
N2_14 Zn3_2 1_555 1_555
O6 C22_14 1_555 1_555
O7 C22_14 1_555 1_555
C2_14 C1_14 1_555 1_555
C5_14 N1_14 1_555 1_555
C6_14 N2_14 1_555 1_555
C7_14 N2_14 1_555 1_555
H8_18 C14_18 1_555 1_555
C16_14 C7_14 1_555 1_555
C17_14 C16_14 1_555 1_555
H9_14 C17_14 1_555 1_555
C18_14 C17_14 1_555 1_555
H10_12 C18_14 1_555 1_555
C19_18 C18_14 1_555 1_555
C20_18 C19_18 1_555 1_555
H11_18 C20_18 1_555 1_555
C21_14 C16_14 1_555 1_555
H12_18 C21_14 1_555 1_555
C22_14 C19_18 1_555 1_555
C5_14 C6_14 1_555 1_555
C7_14 C8_14 1_555 1_555
C20_18 C21_14 1_555 1_555
Zn1_5 N1_15 1_555 1_555
N1_15 C1_15 1_555 1_555
N2_15 Zn1_5 1_555 1_555
N3_11 C6_15 1_555 1_555
C1_15 H1_15 1_555 1_555
C2_15 C1_15 1_555 1_555
H2_13 C2_15 1_555 1_555
C3_11 C2_15 1_555 1_555
H3_11 C3_11 1_555 1_555
C4_11 C3_11 1_555 1_555
H4_11 C4_11 1_555 1_555
C5_15 N1_15 1_555 1_555
C6_15 N2_15 1_555 1_555
C7_15 N2_15 1_555 1_555
C8_15 N3_11 1_555 1_555
C9_11 C8_15 1_555 1_555
C10_11 C9_11 1_555 1_555
H5_11 C10_11 1_555 1_555
C16_15 C7_15 1_555 1_555
C17_15 C16_15 1_555 1_555
H9_15 C17_15 1_555 1_555
C18_15 C17_15 1_555 1_555
C21_15 C16_15 1_555 1_555
H13_11 N3_11 1_555 1_555
O5_9 Zn1_5 1_555 1_555
O6_8 Zn1_5 1_555 1_555
O7_8 Zn1_5 1_555 1_555
C4_11 C5_15 1_555 1_555
C5_15 C6_15 1_555 1_555
C7_15 C8_15 1_555 1_555
O5_9 C15_15 1_555 1_555
O2_15 C15_15 1_555 1_555
H3_12 C3_12 1_555 1_555
C4_12 C3_12 1_555 1_555
H4_12 C4_12 1_555 1_555
C10_12 C9_12 1_555 1_555
H5_12 C10_12 1_555 1_555
C11_15 C10_12 1_555 1_555
H6_15 C11_15 1_555 1_555
C12_15 C11_15 1_555 1_555
C13_15 C12_15 1_555 1_555
C15_15 C12_15 1_555 1_555
H13_12 N3_12 1_555 1_555
O6_8 C22_15 1_555 1_555
O7_8 C22_15 1_555 1_555
O3_8 C22_16 1_555 1_555
O4_8 C22_16 1_555 1_555
Zn3_8 O3_8 1_555 1_555
O4_8 Zn3_8 1_555 1_555
Zn3_8 N1_16 1_555 1_555
N1_16 C1_16 1_555 1_555
N2_16 Zn3_8 1_555 1_555
N3_13 C6_16 1_555 1_555
C1_16 H1_16 1_555 1_555
C2_16 C1_16 1_555 1_555
H2_14 C2_16 1_555 1_555
C3_13 C2_16 1_555 1_555
H3_13 C3_13 1_555 1_555
C4_13 C3_13 1_555 1_555
H4_13 C4_13 1_555 1_555
C5_16 N1_16 1_555 1_555
C6_16 N2_16 1_555 1_555
C7_16 N2_16 1_555 1_555
C8_16 N3_13 1_555 1_555
C9_13 C8_16 1_555 1_555
C10_13 C9_13 1_555 1_555
H5_13 C10_13 1_555 1_555
C16_16 C7_16 1_555 1_555
C17_16 C16_16 1_555 1_555
H9_16 C17_16 1_555 1_555
C18_16 C17_16 1_555 1_555
C21_16 C16_16 1_555 1_555
H13_13 N3_13 1_555 1_555
O5_10 Zn3_8 1_555 1_555
C4_13 C5_16 1_555 1_555
C5_16 C6_16 1_555 1_555
C7_16 C8_16 1_555 1_555
O5_10 C15_16 1_555 1_555
O2_16 C15_16 1_555 1_555
H3_14 C3_14 1_555 1_555
C4_14 C3_14 1_555 1_555
H4_14 C4_14 1_555 1_555
C10_14 C9_14 1_555 1_555
H5_14 C10_14 1_555 1_555
C11_16 C10_14 1_555 1_555
H6_16 C11_16 1_555 1_555
C12_16 C11_16 1_555 1_555
C13_16 C12_16 1_555 1_555
C15_16 C12_16 1_555 1_555
H13_14 N3_14 1_555 1_555
Zn1_6 N1_17 1_555 1_555
N1_17 C1_17 1_555 1_555
N2_17 Zn1_6 1_555 1_555
N3_15 C6_17 1_555 1_555
C1_17 H1_17 1_555 1_555
C2_17 C1_17 1_555 1_555
H2_15 C2_17 1_555 1_555
C3_15 C2_17 1_555 1_555
H3_15 C3_15 1_555 1_555
C4_15 C3_15 1_555 1_555
H4_15 C4_15 1_555 1_555
C5_17 N1_17 1_555 1_555
C6_17 N2_17 1_555 1_555
C7_17 N2_17 1_555 1_555
C8_17 N3_15 1_555 1_555
C9_15 C8_17 1_555 1_555
C10_15 C9_15 1_555 1_555
H5_15 C10_15 1_555 1_555
C16_17 C7_17 1_555 1_555
C17_17 C16_17 1_555 1_555
H9_17 C17_17 1_555 1_555
C18_17 C17_17 1_555 1_555
C21_17 C16_17 1_555 1_555
H13_15 N3_15 1_555 1_555
O5_11 Zn1_6 1_555 1_555
O6_9 Zn1_6 1_555 1_555
O7_9 Zn1_6 1_555 1_555
C4_15 C5_17 1_555 1_555
C5_17 C6_17 1_555 1_555
C7_17 C8_17 1_555 1_555
O5_11 C15_17 1_555 1_555
O2_17 C15_17 1_555 1_555
H3_16 C3_16 1_555 1_555
C4_16 C3_16 1_555 1_555
H4_16 C4_16 1_555 1_555
C10_16 C9_16 1_555 1_555
H5_16 C10_16 1_555 1_555
C11_17 C10_16 1_555 1_555
H6_17 C11_17 1_555 1_555
C12_17 C11_17 1_555 1_555
C13_17 C12_17 1_555 1_555
C15_17 C12_17 1_555 1_555
H13_16 N3_16 1_555 1_555
O6_9 C22_17 1_555 1_555
O7_9 C22_17 1_555 1_555
O3_9 C22_18 1_555 1_555
O4_9 C22_18 1_555 1_555
Zn3_9 O3_9 1_555 1_555
O4_9 Zn3_9 1_555 1_555
Zn3_9 N1_18 1_555 1_555
N1_18 C1_18 1_555 1_555
N2_18 Zn3_9 1_555 1_555
N3_17 C6_18 1_555 1_555
C1_18 H1_18 1_555 1_555
C2_18 C1_18 1_555 1_555
H2_16 C2_18 1_555 1_555
C3_17 C2_18 1_555 1_555
H3_17 C3_17 1_555 1_555
C4_17 C3_17 1_555 1_555
H4_17 C4_17 1_555 1_555
C5_18 N1_18 1_555 1_555
C6_18 N2_18 1_555 1_555
C7_18 N2_18 1_555 1_555
C8_18 N3_17 1_555 1_555
C9_17 C8_18 1_555 1_555
C10_17 C9_17 1_555 1_555
H5_17 C10_17 1_555 1_555
C16_18 C7_18 1_555 1_555
C17_18 C16_18 1_555 1_555
H9_18 C17_18 1_555 1_555
C18_18 C17_18 1_555 1_555
C21_18 C16_18 1_555 1_555
H13_17 N3_17 1_555 1_555
O5_12 Zn3_9 1_555 1_555
C4_17 C5_18 1_555 1_555
C5_18 C6_18 1_555 1_555
C7_18 C8_18 1_555 1_555
O5_12 C15_18 1_555 1_555
O2_18 C15_18 1_555 1_555
H3_18 C3_18 1_555 1_555
C4_18 C3_18 1_555 1_555
H4_18 C4_18 1_555 1_555
C10_18 C9_18 1_555 1_555
H5_18 C10_18 1_555 1_555
C11_18 C10_18 1_555 1_555
H6_18 C11_18 1_555 1_555
C12_18 C11_18 1_555 1_555
C13_18 C12_18 1_555 1_555
C15_18 C12_18 1_555 1_555
H13_18 N3_18 1_555 1_555

#END
