
###############################################################################
#
# This file contains modified crystal structure data generated from the
# MOF subset of the Cambridge Structural Database (CSD) v543 
# hosted by the Cambridge Crystallographic Data Centre (CCDC).
#
# This work is licensed under the Creative Commons
# Attribution-NonCommercial-ShareAlike 4.0 International License.
# To view a copy of this license, visit
# http://creativecommons.org/licenses/by-nc-sa/4.0/
# or send a letter to
# Creative Commons, PO Box 1866, Mountain View, CA 94042, USA.
#
# CIF created using the CSD Python API on 29 September 2022
# The structure has been converted into the P1 space group
# The structure has a 3D framework
# The original CSD entry OBAHIL is in the rhombohedral crystal system
# The framework has been calculated to contain at least 10.0% void space
# The void calculation uses a probe of radius 1.32A, grid spacing 0.4
#
###############################################################################

data_OBAHIL
_chemical_formula_moiety         '(C396 H234 N54 O72 Zn18)n'
_symmetry_cell_setting           triclinic
_symmetry_space_group_name_H-M   'P 1'
_symmetry_Int_Tables_number      1
_space_group_name_Hall           'P 1'
loop_
_symmetry_equiv_pos_site_id
_symmetry_equiv_pos_as_xyz
1 x,y,z
_cell_length_a                   29.608(5)
_cell_length_b                   29.608(5)
_cell_length_c                   18.158(3)
_cell_angle_alpha                90
_cell_angle_beta                 90
_cell_angle_gamma                120
_cell_volume                     13785.3
loop_
_atom_site_label
_atom_site_type_symbol
_atom_site_fract_x
_atom_site_fract_y
_atom_site_fract_z
H2 H 0.6691 0.0057 0.3475
Zn1 Zn 0.62572(2) 0.85443(2) 0.52170(2)
N1 N 0.63578(16) 0.89499(13) 0.42459(17)
N2 N 0.59880(16) 0.79368(13) 0.44659(16)
N3 N 0.58255(15) 0.77135(13) 0.33025(16)
O1 O 0.47532(12) 0.49313(11) 0.24123(14)
O2 O 0.45216(13) 0.52788(12) 0.14993(14)
O3 O 0.58095(12) 0.63218(11) 0.74761(14)
O4 O 0.49635(13) 0.59070(14) 0.72999(16)
C1 C 0.6522(2) 0.94585(18) 0.4177(2)
H1 H 0.6609 0.9666 0.4609
C2 C 0.6572(2) 0.96944(19) 0.3504(3)
C3 C 0.6446(2) 0.93965(19) 0.2878(2)
H3 H 0.6477 0.9552 0.2409
C4 C 0.6273(2) 0.88676(18) 0.2933(2)
H4 H 0.6186 0.8654 0.2507
C5 C 0.62316(18) 0.86609(16) 0.3629(2)
C6 C 0.60265(19) 0.81091(16) 0.37852(19)
C7 C 0.57537(18) 0.74056(15) 0.44260(19)
C8 C 0.56454(17) 0.72549(16) 0.36948(19)
C9 C 0.54021(17) 0.67518(16) 0.33110(19)
C10 C 0.51611(18) 0.66986(18) 0.2625(2)
H5 H 0.5153 0.6988 0.2416
C11 C 0.49384(17) 0.62339(17) 0.2253(2)
H6 H 0.4781 0.6208 0.1787
C12 C 0.49382(15) 0.57999(15) 0.25438(19)
C13 C 0.51711(17) 0.58478(15) 0.3233(2)
H7 H 0.5167 0.5553 0.3448
C14 C 0.54060(18) 0.63165(16) 0.3603(2)
H8 H 0.5573 0.6345 0.4061
C15 C 0.47143(15) 0.53028(16) 0.21151(19)
C16 C 0.56469(19) 0.70977(16) 0.51073(19)
C17 C 0.60254(18) 0.72890(16) 0.5656(2)
H9 H 0.6342 0.7608 0.5584
C18 C 0.59420(18) 0.70152(16) 0.6308(2)
H10 H 0.6202 0.7149 0.6680
C19 C 0.54873(18) 0.65530(17) 0.6422(2)
C20 C 0.5098(2) 0.6363(2) 0.5885(2)
H11 H 0.4778 0.6049 0.5969
C21 C 0.5178(2) 0.66323(19) 0.5228(2)
H12 H 0.4914 0.6501 0.4861
C22 C 0.54192(18) 0.62470(17) 0.7112(2)
H13 H 0.5853(18) 0.7753(18) 0.277(3)
Zn2 Zn 0.47890(2) 0.43796(3) 0.18837(2)
Zn3 Zn 0.52110(2) 0.56204(3) 0.81163(2)
O5 O 0.68448(16) 0.85801(12) 0.57456(14)
O6 O 0.61544(16) 0.91428(12) 0.58572(14)
O7 O 0.57232(19) 0.82968(13) 0.60334(16)
Zn2_2 Zn 0.56204(3) 0.04095(4) 0.18837(2)
Zn1_2 Zn 0.14557(2) 0.77129(3) 0.52170(2)
N1_2 N 0.10501(13) 0.74079(21) 0.42459(17)
N2_2 N 0.20632(13) 0.80512(21) 0.44659(16)
N3_2 N 0.22865(13) 0.81120(20) 0.33025(16)
O1_2 O 0.50687(11) 0.98219(16) 0.24123(14)
O2_2 O 0.47212(12) 0.92428(18) 0.14993(14)
O3_2 O 0.36782(11) 0.94877(16) 0.74761(14)
O4_2 O 0.40930(14) 0.90565(19) 0.72999(16)
C1_2 C 0.05415(18) 0.70635(27) 0.4177(2)
H1_2 H 0.0334 0.6943 0.4609
C2_2 C 0.03056(19) 0.68776(28) 0.3504(3)
C3_2 C 0.06035(19) 0.70495(28) 0.2878(2)
H3_2 H 0.0448 0.6925 0.2409
C4_2 C 0.11324(18) 0.74054(27) 0.2933(2)
H4_2 H 0.1346 0.7532 0.2507
C5_2 C 0.13391(16) 0.75707(24) 0.3629(2)
C6_2 C 0.18909(16) 0.79174(25) 0.37852(19)
C7_2 C 0.25944(15) 0.83481(23) 0.44260(19)
C8_2 C 0.27451(16) 0.83905(23) 0.36948(19)
C9_2 C 0.32482(16) 0.86503(23) 0.33110(19)
C10_2 C 0.33014(18) 0.84625(25) 0.2625(2)
H5_2 H 0.3012 0.8165 0.2416
C11_2 C 0.37661(17) 0.87045(24) 0.2253(2)
H6_2 H 0.3792 0.8573 0.1787
C12_2 C 0.42001(15) 0.91383(21) 0.25438(19)
C13_2 C 0.41522(15) 0.93233(23) 0.3233(2)
H7_2 H 0.4447 0.9614 0.3448
C14_2 C 0.36835(16) 0.90895(24) 0.3603(2)
H8_2 H 0.3655 0.9228 0.4061
C15_2 C 0.46972(16) 0.94115(22) 0.21151(19)
C16_2 C 0.29023(16) 0.85492(25) 0.51073(19)
C17_2 C 0.27110(16) 0.87364(24) 0.5656(2)
H9_2 H 0.2392 0.8734 0.5584
C18_2 C 0.29848(16) 0.89268(24) 0.6308(2)
H10_2 H 0.2851 0.9053 0.6680
C19_2 C 0.34470(17) 0.89343(25) 0.6422(2)
C20_2 C 0.3637(2) 0.8735(3) 0.5885(2)
H11_2 H 0.3951 0.8729 0.5969
C21_2 C 0.33677(19) 0.85457(28) 0.5228(2)
H12_2 H 0.3499 0.8413 0.4861
C22_2 C 0.37530(17) 0.91722(25) 0.7112(2)
H13_2 H 0.2247(18) 0.8100(25) 0.277(3)
Zn3_2 Zn 0.43796(3) 0.95905(4) 0.81163(2)
O5_2 O 0.14199(12) 0.82646(20) 0.57456(14)
O6_2 O 0.08572(12) 0.70115(20) 0.58572(14)
O7_2 O 0.17032(13) 0.74263(23) 0.60334(16)
Zn1_3 Zn 0.22871(3) 0.37428(2) 0.52170(2)
N1_3 N 0.25921(21) 0.36422(16) 0.42459(17)
N2_3 N 0.19488(21) 0.40120(16) 0.44659(16)
N3_3 N 0.18880(20) 0.41745(15) 0.33025(16)
O1_3 O 0.01781(16) 0.52468(12) 0.24123(14)
O2_3 O 0.07572(18) 0.54784(13) 0.14993(14)
O3_3 O 0.05123(16) 0.41905(12) 0.74761(14)
O4_3 O 0.09435(19) 0.50365(13) 0.72999(16)
C1_3 C 0.29365(27) 0.3478(2) 0.4177(2)
H1_3 H 0.3057 0.3391 0.4609
C2_3 C 0.31224(28) 0.3428(2) 0.3504(3)
H2_2 H 0.3366 0.3309 0.3475
C3_3 C 0.29505(28) 0.3554(2) 0.2878(2)
H3_3 H 0.3075 0.3523 0.2409
C4_3 C 0.25946(27) 0.3727(2) 0.2933(2)
H4_3 H 0.2468 0.3814 0.2507
C5_3 C 0.24293(24) 0.37684(18) 0.3629(2)
C6_3 C 0.20826(25) 0.39735(19) 0.37852(19)
C7_3 C 0.16519(23) 0.42463(18) 0.44260(19)
C8_3 C 0.16095(23) 0.43546(17) 0.36948(19)
C9_3 C 0.13497(23) 0.45979(17) 0.33110(19)
C10_3 C 0.15375(25) 0.48389(18) 0.2625(2)
H5_3 H 0.1835 0.4847 0.2416
C11_3 C 0.12955(24) 0.50616(17) 0.2253(2)
H6_3 H 0.1427 0.5219 0.1787
C12_3 C 0.08617(21) 0.50618(15) 0.25438(19)
C13_3 C 0.06767(23) 0.48289(17) 0.3233(2)
H7_3 H 0.0386 0.4833 0.3448
C14_3 C 0.09105(24) 0.45940(18) 0.3603(2)
H8_3 H 0.0772 0.4427 0.4061
C15_3 C 0.05885(22) 0.52857(15) 0.21151(19)
C16_3 C 0.14508(25) 0.43531(19) 0.51073(19)
C17_3 C 0.12636(24) 0.39746(18) 0.5656(2)
H9_3 H 0.1266 0.3658 0.5584
C18_3 C 0.10732(24) 0.40580(18) 0.6308(2)
H10_3 H 0.0947 0.3798 0.6680
C19_3 C 0.10657(25) 0.45127(18) 0.6422(2)
C20_3 C 0.1265(3) 0.4902(2) 0.5885(2)
H11_3 H 0.1271 0.5222 0.5969
C21_3 C 0.14543(28) 0.4822(2) 0.5228(2)
H12_3 H 0.1587 0.5086 0.4861
C22_3 C 0.08278(25) 0.45808(18) 0.7112(2)
H13_3 H 0.1900(25) 0.4147(18) 0.277(3)
Zn3_3 Zn 0.04095(4) 0.47890(2) 0.81163(2)
O5_3 O 0.17354(20) 0.31552(16) 0.57456(14)
O6_3 O 0.29885(20) 0.38456(16) 0.58572(14)
O7_3 O 0.25737(23) 0.42768(19) 0.60334(16)
Zn2_3 Zn 0.95905(4) 0.52110(2) 0.18837(2)
O2_4 O 0.11883(13) 0.86121(12) 0.48326(14)
C11_4 C 0.16051(17) 0.95672(17) 0.5586(2)
H6_4 H 0.1448 0.9541 0.5120
C12_4 C 0.16049(15) 0.91332(15) 0.58771(19)
C13_4 C 0.18378(17) 0.91811(15) 0.6566(2)
H7_4 H 0.1834 0.8886 0.6781
C14_4 C 0.20727(18) 0.96498(16) 0.6936(2)
H8_4 H 0.2240 0.9678 0.7394
C15_4 C 0.13810(15) 0.86361(16) 0.54484(19)
C19_4 C 0.21540(18) 0.98863(17) 0.9755(2)
C20_4 C 0.1765(2) 0.9696(2) 0.9218(2)
H11_4 H 0.1445 0.9382 0.9302
C21_4 C 0.1845(2) 0.99656(19) 0.8561(2)
H12_4 H 0.1581 0.9834 0.8194
O3_4 O 0.03449(11) 0.28210(16) 0.08094(14)
O4_4 O 0.07597(14) 0.23898(19) 0.06332(16)
C22_4 C 0.04197(17) 0.25055(25) 0.0445(2)
Zn3_4 Zn 0.10462(3) 0.29239(4) 0.14497(2)
O2_5 O 0.13879(12) 0.25761(18) 0.48326(14)
C11_5 C 0.04328(17) 0.20378(24) 0.5586(2)
H6_5 H 0.0459 0.1906 0.5120
C12_5 C 0.08668(15) 0.24716(21) 0.58771(19)
C13_5 C 0.08189(15) 0.26566(23) 0.6566(2)
H7_5 H 0.1114 0.2947 0.6781
C14_5 C 0.03502(16) 0.24228(24) 0.6936(2)
H8_5 H 0.0322 0.2561 0.7394
C15_5 C 0.13639(16) 0.27448(22) 0.54484(19)
C19_5 C 0.01137(17) 0.22676(25) 0.9755(2)
C20_5 C 0.0304(2) 0.2068(3) 0.9218(2)
H11_5 H 0.0618 0.2062 0.9302
C21_5 C 0.00344(19) 0.18790(28) 0.8561(2)
H12_5 H 0.0166 0.1746 0.8194
Zn1_4 Zn 0.89538(3) 0.70761(2) 0.85503(2)
N1_4 N 0.92588(21) 0.69755(16) 0.75792(17)
N2_4 N 0.86155(21) 0.73453(16) 0.77992(16)
N3_4 N 0.85547(20) 0.75078(15) 0.66358(16)
O2_6 O 0.74239(18) 0.88117(13) 0.48326(14)
C1_4 C 0.96032(27) 0.6811(2) 0.7510(2)
H1_4 H 0.9724 0.6724 0.7942
C2_4 C 0.97891(28) 0.6761(2) 0.6837(3)
C3_4 C 0.96172(28) 0.6887(2) 0.6211(2)
H3_4 H 0.9742 0.6856 0.5742
C4_4 C 0.92613(27) 0.7060(2) 0.6266(2)
H4_4 H 0.9135 0.7147 0.5840
C5_4 C 0.90960(24) 0.71017(18) 0.6962(2)
C6_4 C 0.87493(25) 0.73068(19) 0.71185(19)
C7_4 C 0.83186(23) 0.75796(18) 0.77593(19)
C8_4 C 0.82762(23) 0.76879(17) 0.70281(19)
C9_4 C 0.80164(23) 0.79312(17) 0.66443(19)
C10_4 C 0.82042(25) 0.81722(18) 0.5958(2)
H5_4 H 0.8502 0.8180 0.5749
C11_6 C 0.79622(24) 0.83949(17) 0.5586(2)
H6_6 H 0.8094 0.8552 0.5120
C12_6 C 0.75284(21) 0.83951(15) 0.58771(19)
C13_6 C 0.73434(23) 0.81622(17) 0.6566(2)
H7_6 H 0.7053 0.8166 0.6781
C14_6 C 0.75772(24) 0.79273(18) 0.6936(2)
H8_6 H 0.7439 0.7760 0.7394
C15_6 C 0.72552(22) 0.86190(15) 0.54484(19)
C16_4 C 0.81175(25) 0.76864(19) 0.84406(19)
C17_4 C 0.79303(24) 0.73079(18) 0.8989(2)
H9_4 H 0.7933 0.6991 0.8917
C18_4 C 0.77399(24) 0.73913(18) 0.9641(2)
C19_6 C 0.77324(25) 0.78460(18) 0.9755(2)
C20_6 C 0.7932(3) 0.8235(2) 0.9218(2)
H11_6 H 0.7938 0.8555 0.9302
C21_6 C 0.81210(28) 0.8155(2) 0.8561(2)
H12_6 H 0.8254 0.8419 0.8194
H13_4 H 0.8567(25) 0.7480(18) 0.610(3)
O5_4 O 0.84020(20) 0.64886(16) 0.90790(14)
O6_4 O 0.96551(20) 0.71790(16) 0.91906(14)
O7_4 O 0.92403(23) 0.76102(19) 0.93668(16)
H2_3 H 0.0024 0.6724 0.0142
N1_5 N 0.96911(16) 0.56166(13) 0.09126(17)
N2_5 N 0.93213(16) 0.46035(13) 0.11326(16)
O3_5 O 0.91428(12) 0.29885(11) 0.41428(14)
O4_5 O 0.82968(13) 0.25737(14) 0.39666(16)
C1_5 C 0.9855(2) 0.61252(18) 0.0844(2)
H1_5 H 0.9942 0.6333 0.1276
C2_5 C 0.9905(2) 0.63611(19) 0.0171(3)
C5_5 C 0.95649(18) 0.53276(16) 0.0296(2)
C6_5 C 0.93598(19) 0.47758(16) 0.04519(19)
C7_5 C 0.90870(18) 0.40723(15) 0.10927(19)
C8_5 C 0.89787(17) 0.39216(16) 0.03615(19)
H7_7 H 0.8500 0.2220 0.0115
C14_7 C 0.87393(18) 0.29832(16) 0.0270(2)
H8_7 H 0.8906 0.3012 0.0728
C16_5 C 0.89802(19) 0.37644(16) 0.17740(19)
C17_5 C 0.93587(18) 0.39557(16) 0.2323(2)
H9_5 H 0.9675 0.4275 0.2251
C18_5 C 0.92753(18) 0.36819(16) 0.2975(2)
H10_4 H 0.9535 0.3816 0.3347
C19_7 C 0.88206(18) 0.32197(17) 0.3089(2)
C20_7 C 0.8431(2) 0.3030(2) 0.2552(2)
H11_7 H 0.8111 0.2716 0.2636
C21_7 C 0.8511(2) 0.32990(19) 0.1895(2)
H12_7 H 0.8247 0.3168 0.1528
C22_5 C 0.87525(18) 0.29137(17) 0.3779(2)
Zn3_5 Zn 0.85443(2) 0.22871(3) 0.47830(2)
O6_5 O 0.94877(16) 0.58095(12) 0.25239(14)
O7_5 O 0.90565(19) 0.49635(13) 0.27001(16)
N1_6 N 0.43834(13) 0.40746(21) 0.09126(17)
N2_6 N 0.53965(13) 0.47179(21) 0.11326(16)
O3_6 O 0.70115(11) 0.61544(16) 0.41428(14)
O4_6 O 0.74263(14) 0.57232(19) 0.39666(16)
C1_6 C 0.38748(18) 0.37302(27) 0.0844(2)
H1_6 H 0.3667 0.3610 0.1276
C2_6 C 0.36389(19) 0.35443(28) 0.0171(3)
H2_4 H 0.3276 0.3301 0.0142
C5_6 C 0.46724(16) 0.42374(24) 0.0296(2)
C6_6 C 0.52242(16) 0.45841(25) 0.04519(19)
C7_6 C 0.59277(15) 0.50148(23) 0.10927(19)
C8_6 C 0.60784(16) 0.50572(23) 0.03615(19)
H7_8 H 0.7780 0.6281 0.0115
C14_8 C 0.70168(16) 0.57562(24) 0.0270(2)
H8_8 H 0.6988 0.5895 0.0728
C16_6 C 0.62356(16) 0.52159(25) 0.17740(19)
C17_6 C 0.60443(16) 0.54031(24) 0.2323(2)
H9_6 H 0.5725 0.5401 0.2251
C18_6 C 0.63181(16) 0.55935(24) 0.2975(2)
H10_5 H 0.6184 0.5720 0.3347
C19_8 C 0.67803(17) 0.56010(25) 0.3089(2)
C20_8 C 0.6970(2) 0.5402(3) 0.2552(2)
H11_8 H 0.7284 0.5396 0.2636
C21_8 C 0.67010(19) 0.52124(28) 0.1895(2)
H12_8 H 0.6832 0.5080 0.1528
C22_6 C 0.70863(17) 0.58389(25) 0.3779(2)
Zn3_6 Zn 0.77129(3) 0.62572(4) 0.47830(2)
O6_6 O 0.41905(12) 0.36782(20) 0.25239(14)
O7_6 O 0.50365(13) 0.40930(23) 0.27001(16)
N3_5 N 0.56198(13) 0.47787(20) 0.99692(16)
O2_7 O 0.80545(12) 0.59095(18) 0.81660(14)
C3_5 C 0.39368(19) 0.37162(28) 0.9545(2)
H3_5 H 0.3781 0.3592 0.9076
C4_5 C 0.44657(18) 0.40721(27) 0.9600(2)
H4_5 H 0.4679 0.4199 0.9174
C9_5 C 0.65815(16) 0.53170(23) 0.99777(19)
C10_5 C 0.66347(18) 0.51292(25) 0.9292(2)
H5_5 H 0.6345 0.4832 0.9083
C11_7 C 0.70994(17) 0.53712(24) 0.8920(2)
H6_7 H 0.7125 0.5240 0.8454
C12_7 C 0.75334(15) 0.58050(21) 0.92105(19)
C13_7 C 0.74855(15) 0.59900(23) 0.9900(2)
C15_7 C 0.80305(16) 0.60782(22) 0.87818(19)
H13_5 H 0.5580(18) 0.4767(25) 0.944(3)
N1_7 N 0.59254(21) 0.03089(16) 0.09126(17)
N2_7 N 0.52821(21) 0.06787(16) 0.11326(16)
O3_7 O 0.38456(16) 0.08572(12) 0.41428(14)
O4_7 O 0.42768(19) 0.17032(13) 0.39666(16)
C1_7 C 0.62698(27) 0.0145(2) 0.0844(2)
H1_7 H 0.6390 0.0058 0.1276
C2_7 C 0.64557(28) 0.0095(2) 0.0171(3)
C5_7 C 0.57626(24) 0.04351(18) 0.0296(2)
C6_7 C 0.54159(25) 0.06402(19) 0.04519(19)
C7_7 C 0.49852(23) 0.09130(18) 0.10927(19)
C8_7 C 0.49428(23) 0.10213(17) 0.03615(19)
H7_9 H 0.3719 0.1500 0.0115
C14_9 C 0.42438(24) 0.12607(18) 0.0270(2)
H8_9 H 0.4105 0.1094 0.0728
C16_7 C 0.47841(25) 0.10198(19) 0.17740(19)
C17_7 C 0.45969(24) 0.06413(18) 0.2323(2)
H9_7 H 0.4599 0.0325 0.2251
C18_7 C 0.44065(24) 0.07247(18) 0.2975(2)
H10_6 H 0.4280 0.0465 0.3347
C19_9 C 0.43990(25) 0.11794(18) 0.3089(2)
C20_9 C 0.4598(3) 0.1569(2) 0.2552(2)
H11_9 H 0.4604 0.1889 0.2636
C21_9 C 0.47876(28) 0.1489(2) 0.1895(2)
H12_9 H 0.4920 0.1753 0.1528
C22_7 C 0.41611(25) 0.12475(18) 0.3779(2)
Zn3_7 Zn 0.37428(4) 0.14557(2) 0.47830(2)
O6_7 O 0.63218(20) 0.05123(16) 0.25239(14)
O7_7 O 0.59070(23) 0.09435(19) 0.27001(16)
H2_5 H 0.6699 0.9976 0.0142
N1_8 N 0.36422(16) 0.10501(13) 0.57541(17)
N2_8 N 0.40120(16) 0.20632(13) 0.55341(16)
N3_6 N 0.41745(15) 0.22865(13) 0.66975(16)
O1_4 O 0.52468(12) 0.50687(11) 0.75877(14)
O2_8 O 0.54784(13) 0.47212(12) 0.85007(14)
C1_8 C 0.3478(2) 0.05415(18) 0.5823(2)
H1_8 H 0.3391 0.0334 0.5391
C2_8 C 0.3428(2) 0.03056(19) 0.6496(3)
C3_6 C 0.3554(2) 0.06035(19) 0.7122(2)
H3_6 H 0.3523 0.0448 0.7591
C4_6 C 0.3727(2) 0.11324(18) 0.7067(2)
H4_6 H 0.3814 0.1346 0.7493
C5_8 C 0.37684(18) 0.13391(16) 0.6371(2)
C6_8 C 0.39735(19) 0.18909(16) 0.62148(19)
C7_8 C 0.42463(18) 0.25944(15) 0.55740(19)
C8_8 C 0.43546(17) 0.27451(16) 0.63052(19)
C9_6 C 0.45979(17) 0.32482(16) 0.66890(19)
C10_6 C 0.48389(18) 0.33014(18) 0.7375(2)
H5_6 H 0.4847 0.3012 0.7584
C11_8 C 0.50616(17) 0.37661(17) 0.7747(2)
H6_8 H 0.5219 0.3792 0.8213
C12_8 C 0.50618(15) 0.42001(15) 0.74562(19)
C13_8 C 0.48289(17) 0.41522(15) 0.6767(2)
H7_10 H 0.4833 0.4447 0.6552
C14_10 C 0.45940(18) 0.36835(16) 0.6397(2)
H8_10 H 0.4427 0.3655 0.5939
C15_8 C 0.52857(15) 0.46972(16) 0.78849(19)
C16_8 C 0.43531(19) 0.29023(16) 0.48927(19)
C17_8 C 0.39746(18) 0.27110(16) 0.4344(2)
H9_8 H 0.3658 0.2392 0.4416
C18_8 C 0.40580(18) 0.29848(16) 0.3692(2)
H10_7 H 0.3798 0.2851 0.3320
C19_10 C 0.45127(18) 0.34470(17) 0.3578(2)
C20_10 C 0.4902(2) 0.3637(2) 0.4115(2)
H11_10 H 0.5222 0.3951 0.4031
C21_10 C 0.4822(2) 0.33677(19) 0.4772(2)
H12_10 H 0.5086 0.3499 0.5139
C22_8 C 0.45808(18) 0.37530(17) 0.2888(2)
H13_6 H 0.4147(18) 0.2247(18) 0.723(3)
O5_5 O 0.31552(16) 0.14199(12) 0.42544(14)
N1_9 N 0.89499(13) 0.25921(21) 0.57541(17)
N2_9 N 0.79368(13) 0.19488(21) 0.55341(16)
N3_7 N 0.77135(13) 0.18880(20) 0.66975(16)
O1_5 O 0.49313(11) 0.01781(16) 0.75877(14)
O2_9 O 0.52788(12) 0.07572(18) 0.85007(14)
C1_9 C 0.94585(18) 0.29365(27) 0.5823(2)
H1_9 H 0.9666 0.3057 0.5391
C2_9 C 0.96944(19) 0.31224(28) 0.6496(3)
C3_7 C 0.93965(19) 0.29505(28) 0.7122(2)
H3_7 H 0.9552 0.3075 0.7591
C4_7 C 0.88676(18) 0.25946(27) 0.7067(2)
H4_7 H 0.8654 0.2468 0.7493
C5_9 C 0.86609(16) 0.24293(24) 0.6371(2)
C6_9 C 0.81091(16) 0.20826(25) 0.62148(19)
C7_9 C 0.74056(15) 0.16519(23) 0.55740(19)
C8_9 C 0.72549(16) 0.16095(23) 0.63052(19)
C9_7 C 0.67518(16) 0.13497(23) 0.66890(19)
C10_7 C 0.66986(18) 0.15375(25) 0.7375(2)
H5_7 H 0.6988 0.1835 0.7584
C11_9 C 0.62339(17) 0.12955(24) 0.7747(2)
H6_9 H 0.6208 0.1427 0.8213
C12_9 C 0.57999(15) 0.08617(21) 0.74562(19)
C13_9 C 0.58478(15) 0.06767(23) 0.6767(2)
H7_11 H 0.5553 0.0386 0.6552
C14_11 C 0.63165(16) 0.09105(24) 0.6397(2)
H8_11 H 0.6345 0.0772 0.5939
C15_9 C 0.53028(16) 0.05885(22) 0.78849(19)
C16_9 C 0.70977(16) 0.14508(25) 0.48927(19)
C17_9 C 0.72890(16) 0.12636(24) 0.4344(2)
H9_9 H 0.7608 0.1266 0.4416
C18_9 C 0.70152(16) 0.10732(24) 0.3692(2)
H10_8 H 0.7149 0.0947 0.3320
C19_11 C 0.65530(17) 0.10657(25) 0.3578(2)
C20_11 C 0.6363(2) 0.1265(3) 0.4115(2)
H11_11 H 0.6049 0.1271 0.4031
C21_11 C 0.66323(19) 0.14543(28) 0.4772(2)
H12_11 H 0.6501 0.1587 0.5139
C22_9 C 0.62470(17) 0.08278(25) 0.2888(2)
H13_7 H 0.7753(18) 0.1900(25) 0.723(3)
O5_6 O 0.85801(12) 0.17354(20) 0.42544(14)
N1_10 N 0.74079(21) 0.63578(16) 0.57541(17)
N2_10 N 0.80512(21) 0.59880(16) 0.55341(16)
N3_8 N 0.81120(20) 0.58255(15) 0.66975(16)
O1_6 O 0.98219(16) 0.47532(12) 0.75877(14)
O2_10 O 0.92428(18) 0.45216(13) 0.85007(14)
C1_10 C 0.70635(27) 0.6522(2) 0.5823(2)
H1_10 H 0.6943 0.6609 0.5391
C2_10 C 0.68776(28) 0.6572(2) 0.6496(3)
H2_6 H 0.6634 0.6691 0.6525
C3_8 C 0.70495(28) 0.6446(2) 0.7122(2)
H3_8 H 0.6925 0.6477 0.7591
C4_8 C 0.74054(27) 0.6273(2) 0.7067(2)
H4_8 H 0.7532 0.6186 0.7493
C5_10 C 0.75707(24) 0.62316(18) 0.6371(2)
C6_10 C 0.79174(25) 0.60265(19) 0.62148(19)
C7_10 C 0.83481(23) 0.57537(18) 0.55740(19)
C8_10 C 0.83905(23) 0.56454(17) 0.63052(19)
C9_8 C 0.86503(23) 0.54021(17) 0.66890(19)
C10_8 C 0.84625(25) 0.51611(18) 0.7375(2)
H5_8 H 0.8165 0.5153 0.7584
C11_10 C 0.87045(24) 0.49384(17) 0.7747(2)
H6_10 H 0.8573 0.4781 0.8213
C12_10 C 0.91383(21) 0.49382(15) 0.74562(19)
C13_10 C 0.93233(23) 0.51711(17) 0.6767(2)
H7_12 H 0.9614 0.5167 0.6552
C14_12 C 0.90895(24) 0.54060(18) 0.6397(2)
H8_12 H 0.9228 0.5573 0.5939
C15_10 C 0.94115(22) 0.47143(15) 0.78849(19)
C16_10 C 0.85492(25) 0.56469(19) 0.48927(19)
C17_10 C 0.87364(24) 0.60254(18) 0.4344(2)
H9_10 H 0.8734 0.6342 0.4416
C18_10 C 0.89268(24) 0.59420(18) 0.3692(2)
H10_9 H 0.9053 0.6202 0.3320
C19_12 C 0.89343(25) 0.54873(18) 0.3578(2)
C20_12 C 0.8735(3) 0.5098(2) 0.4115(2)
H11_12 H 0.8729 0.4778 0.4031
C21_12 C 0.85457(28) 0.5178(2) 0.4772(2)
H12_12 H 0.8413 0.4914 0.5139
C22_10 C 0.91722(25) 0.54192(18) 0.2888(2)
H13_8 H 0.8100(25) 0.5853(18) 0.723(3)
O5_7 O 0.82646(20) 0.68448(16) 0.42544(14)
O2_11 O 0.88117(13) 0.13879(12) 0.51674(14)
C11_11 C 0.83949(17) 0.04328(17) 0.4414(2)
H6_11 H 0.8552 0.0459 0.4880
C12_11 C 0.83951(15) 0.08668(15) 0.41229(19)
C13_11 C 0.81622(17) 0.08189(15) 0.3434(2)
H7_13 H 0.8166 0.1114 0.3219
C14_13 C 0.79273(18) 0.03502(16) 0.3064(2)
H8_13 H 0.7760 0.0322 0.2606
C15_11 C 0.86190(15) 0.13639(16) 0.45516(19)
C19_13 C 0.78460(18) 0.01137(17) 0.0245(2)
C20_13 C 0.8235(2) 0.0304(2) 0.0782(2)
H11_13 H 0.8555 0.0618 0.0698
C21_13 C 0.8155(2) 0.00344(19) 0.1439(2)
H12_13 H 0.8419 0.0166 0.1806
O2_12 O 0.86121(12) 0.74239(18) 0.51674(14)
C11_12 C 0.95672(17) 0.79622(24) 0.4414(2)
H6_12 H 0.9541 0.8094 0.4880
C12_12 C 0.91332(15) 0.75284(21) 0.41229(19)
C13_12 C 0.91811(15) 0.73434(23) 0.3434(2)
H7_14 H 0.8886 0.7053 0.3219
C14_14 C 0.96498(16) 0.75772(24) 0.3064(2)
H8_14 H 0.9678 0.7439 0.2606
C15_12 C 0.86361(16) 0.72552(22) 0.45516(19)
C19_14 C 0.98863(17) 0.77324(25) 0.0245(2)
C20_14 C 0.9696(2) 0.7932(3) 0.0782(2)
H11_14 H 0.9382 0.7938 0.0698
C21_14 C 0.99656(19) 0.81210(28) 0.1439(2)
H12_14 H 0.9834 0.8254 0.1806
C22_11 C 0.95803(17) 0.74945(25) 0.9555(2)
N1_11 N 0.07412(21) 0.30245(16) 0.24208(17)
N2_11 N 0.13845(21) 0.26547(16) 0.22008(16)
N3_9 N 0.14453(20) 0.24922(15) 0.33642(16)
O2_13 O 0.25761(18) 0.11883(13) 0.51674(14)
C1_11 C 0.03968(27) 0.3189(2) 0.2490(2)
H1_11 H 0.0276 0.3276 0.2058
C2_11 C 0.02109(28) 0.3239(2) 0.3163(3)
C3_9 C 0.03828(28) 0.3113(2) 0.3789(2)
H3_9 H 0.0258 0.3144 0.4258
C4_9 C 0.07387(27) 0.2940(2) 0.3734(2)
H4_9 H 0.0865 0.2853 0.4160
C5_11 C 0.09040(24) 0.28983(18) 0.3038(2)
C6_11 C 0.12507(25) 0.26932(19) 0.28815(19)
C7_11 C 0.16814(23) 0.24204(18) 0.22407(19)
C8_11 C 0.17238(23) 0.23121(17) 0.29719(19)
C9_9 C 0.19836(23) 0.20688(17) 0.33557(19)
C10_9 C 0.17958(25) 0.18278(18) 0.4042(2)
H5_9 H 0.1498 0.1820 0.4251
C11_13 C 0.20378(24) 0.16051(17) 0.4414(2)
H6_13 H 0.1906 0.1448 0.4880
C12_13 C 0.24716(21) 0.16049(15) 0.41229(19)
C13_13 C 0.26566(23) 0.18378(17) 0.3434(2)
H7_15 H 0.2947 0.1834 0.3219
C14_15 C 0.24228(24) 0.20727(18) 0.3064(2)
H8_15 H 0.2561 0.2240 0.2606
C15_13 C 0.27448(22) 0.13810(15) 0.45516(19)
C16_11 C 0.18825(25) 0.23136(19) 0.15594(19)
C17_11 C 0.20697(24) 0.26921(18) 0.1011(2)
H9_11 H 0.2067 0.3009 0.1083
C18_11 C 0.22601(24) 0.26087(18) 0.0359(2)
C19_15 C 0.22676(25) 0.21540(18) 0.0245(2)
C20_15 C 0.2068(3) 0.1765(2) 0.0782(2)
H11_15 H 0.2062 0.1445 0.0698
C21_15 C 0.18790(28) 0.1845(2) 0.1439(2)
H12_15 H 0.1746 0.1581 0.1806
H13_9 H 0.1433(25) 0.2520(18) 0.390(3)
O5_8 O 0.15980(20) 0.35114(16) 0.09210(14)
N1_12 N 0.03089(16) 0.43834(13) 0.90874(17)
N2_12 N 0.06787(16) 0.53965(13) 0.88674(16)
C1_12 C 0.0145(2) 0.38748(18) 0.9156(2)
H1_12 H 0.0058 0.3667 0.8724
C2_12 C 0.0095(2) 0.36389(19) 0.9829(3)
C5_12 C 0.04351(18) 0.46724(16) 0.9704(2)
C6_12 C 0.06402(19) 0.52242(16) 0.95481(19)
C7_12 C 0.09130(18) 0.59277(15) 0.89073(19)
C8_12 C 0.10213(17) 0.60784(16) 0.96385(19)
H7_16 H 0.1500 0.7780 0.9885
C14_16 C 0.12607(18) 0.70168(16) 0.9730(2)
H8_16 H 0.1094 0.6988 0.9272
C16_12 C 0.10198(19) 0.62356(16) 0.82260(19)
C17_12 C 0.06413(18) 0.60443(16) 0.7677(2)
H9_12 H 0.0325 0.5725 0.7749
C18_12 C 0.07247(18) 0.63181(16) 0.7025(2)
H10_10 H 0.0465 0.6184 0.6653
C19_16 C 0.11794(18) 0.67803(17) 0.6911(2)
C20_16 C 0.1569(2) 0.6970(2) 0.7448(2)
H11_16 H 0.1889 0.7284 0.7364
C21_16 C 0.1489(2) 0.67010(19) 0.8105(2)
H12_16 H 0.1753 0.6832 0.8472
C22_12 C 0.12475(18) 0.70863(17) 0.6221(2)
H2_7 H 0.9976 0.3276 0.9858
N3_10 N 0.43802(13) 0.52213(20) 0.00308(16)
O2_14 O 0.19455(12) 0.40905(18) 0.18340(14)
C3_10 C 0.60632(19) 0.62838(28) 0.0455(2)
H3_10 H 0.6219 0.6408 0.0924
C4_10 C 0.55343(18) 0.59279(27) 0.0400(2)
H4_10 H 0.5321 0.5801 0.0826
C9_10 C 0.34185(16) 0.46830(23) 0.00223(19)
C10_10 C 0.33653(18) 0.48708(25) 0.0708(2)
H5_10 H 0.3655 0.5168 0.0917
C11_14 C 0.29006(17) 0.46288(24) 0.1080(2)
H6_14 H 0.2875 0.4760 0.1546
C12_14 C 0.24666(15) 0.41950(21) 0.07895(19)
C13_14 C 0.25145(15) 0.40100(23) 0.0100(2)
C15_14 C 0.19695(16) 0.39218(22) 0.12182(19)
H13_10 H 0.4420(18) 0.5233(25) 0.056(3)
N1_13 N 0.56166(13) 0.59254(21) 0.90874(17)
N2_13 N 0.46035(13) 0.52821(21) 0.88674(16)
C1_13 C 0.61252(18) 0.62698(27) 0.9156(2)
H1_13 H 0.6333 0.6390 0.8724
C2_13 C 0.63611(19) 0.64557(28) 0.9829(3)
H2_8 H 0.6724 0.6699 0.9858
C5_13 C 0.53276(16) 0.57626(24) 0.9704(2)
C6_13 C 0.47758(16) 0.54159(25) 0.95481(19)
C7_13 C 0.40723(15) 0.49852(23) 0.89073(19)
C8_13 C 0.39216(16) 0.49428(23) 0.96385(19)
H7_17 H 0.2220 0.3719 0.9885
C14_17 C 0.29832(16) 0.42438(24) 0.9730(2)
H8_17 H 0.3012 0.4105 0.9272
C16_13 C 0.37644(16) 0.47841(25) 0.82260(19)
C17_13 C 0.39557(16) 0.45969(24) 0.7677(2)
H9_13 H 0.4275 0.4599 0.7749
C18_13 C 0.36819(16) 0.44065(24) 0.7025(2)
H10_11 H 0.3816 0.4280 0.6653
C19_17 C 0.32197(17) 0.43990(25) 0.6911(2)
C20_17 C 0.3030(2) 0.4598(3) 0.7448(2)
H11_17 H 0.2716 0.4604 0.7364
C21_17 C 0.32990(19) 0.47876(28) 0.8105(2)
H12_17 H 0.3168 0.4920 0.8472
C22_13 C 0.29137(17) 0.41611(25) 0.6221(2)
H2_9 H 0.3301 0.0024 0.9858
N1_14 N 0.40746(21) 0.96911(16) 0.90874(17)
N2_14 N 0.47179(21) 0.93213(16) 0.88674(16)
C1_14 C 0.37302(27) 0.9855(2) 0.9156(2)
H1_14 H 0.3610 0.9942 0.8724
C2_14 C 0.35443(28) 0.9905(2) 0.9829(3)
C5_14 C 0.42374(24) 0.95649(18) 0.9704(2)
C6_14 C 0.45841(25) 0.93598(19) 0.95481(19)
C7_14 C 0.50148(23) 0.90870(18) 0.89073(19)
C8_14 C 0.50572(23) 0.89787(17) 0.96385(19)
H7_18 H 0.6281 0.8500 0.9885
C14_18 C 0.57562(24) 0.87393(18) 0.9730(2)
H8_18 H 0.5895 0.8906 0.9272
C16_14 C 0.52159(25) 0.89802(19) 0.82260(19)
C17_14 C 0.54031(24) 0.93587(18) 0.7677(2)
H9_14 H 0.5401 0.9675 0.7749
C18_14 C 0.55935(24) 0.92753(18) 0.7025(2)
H10_12 H 0.5720 0.9535 0.6653
C19_18 C 0.56010(25) 0.88206(18) 0.6911(2)
C20_18 C 0.5402(3) 0.8431(2) 0.7448(2)
H11_18 H 0.5396 0.8111 0.7364
C21_18 C 0.52124(28) 0.8511(2) 0.8105(2)
H12_18 H 0.5080 0.8247 0.8472
C22_14 C 0.58389(25) 0.87525(18) 0.6221(2)
H2_10 H 0.9943 0.6634 0.3475
H10_13 H 0.2869 0.0482 0.0013
Zn1_5 Zn 0.29239(2) 0.18776(2) 0.85503(2)
N1_15 N 0.30245(16) 0.22832(13) 0.75792(17)
N2_15 N 0.26547(16) 0.12701(13) 0.77992(16)
N3_11 N 0.24922(15) 0.10468(13) 0.66358(16)
C1_15 C 0.3189(2) 0.27918(18) 0.7510(2)
H1_15 H 0.3276 0.2999 0.7942
C2_15 C 0.3239(2) 0.30277(19) 0.6837(3)
H2_11 H 0.3358 0.3390 0.6808
C3_11 C 0.3113(2) 0.27298(19) 0.6211(2)
H3_11 H 0.3144 0.2885 0.5742
C4_11 C 0.2940(2) 0.22009(18) 0.6266(2)
H4_11 H 0.2853 0.1987 0.5840
C5_15 C 0.28983(18) 0.19942(16) 0.6962(2)
C6_15 C 0.26932(19) 0.14424(16) 0.71185(19)
C7_15 C 0.24204(18) 0.07389(15) 0.77593(19)
C8_15 C 0.23121(17) 0.05882(16) 0.70281(19)
C9_11 C 0.20688(17) 0.00851(16) 0.66443(19)
C10_11 C 0.18278(18) 0.00319(18) 0.5958(2)
H5_11 H 0.1820 0.0321 0.5749
C16_15 C 0.23136(19) 0.04310(16) 0.84406(19)
C17_15 C 0.26921(18) 0.06223(16) 0.8989(2)
H9_15 H 0.3009 0.0941 0.8917
C18_15 C 0.26087(18) 0.03485(16) 0.9641(2)
H13_11 H 0.2520(18) 0.1086(18) 0.610(3)
O5_9 O 0.35114(16) 0.19135(12) 0.90790(14)
O6_8 O 0.28210(16) 0.24762(12) 0.91906(14)
O7_8 O 0.23898(19) 0.16302(13) 0.93668(16)
N3_12 N 0.52213(20) 0.08412(15) 0.99692(16)
O2_15 O 0.40905(18) 0.21451(13) 0.81660(14)
C3_12 C 0.62838(28) 0.0221(2) 0.9545(2)
H3_12 H 0.6408 0.0190 0.9076
C4_12 C 0.59279(27) 0.0394(2) 0.9600(2)
H4_12 H 0.5801 0.0481 0.9174
C9_12 C 0.46830(23) 0.12646(17) 0.99777(19)
C10_12 C 0.48708(25) 0.15056(18) 0.9292(2)
H5_12 H 0.5168 0.1514 0.9083
C11_15 C 0.46288(24) 0.17283(17) 0.8920(2)
H6_15 H 0.4760 0.1886 0.8454
C12_15 C 0.41950(21) 0.17285(15) 0.92105(19)
C13_15 C 0.40100(23) 0.14956(17) 0.9900(2)
C15_15 C 0.39218(22) 0.19524(15) 0.87818(19)
H13_12 H 0.5233(25) 0.0814(18) 0.944(3)
H10_14 H 0.2386 0.2869 0.9987
C22_15 C 0.25055(25) 0.20859(18) 0.9555(2)
O3_8 O 0.24762(12) 0.96551(11) 0.08094(14)
O4_8 O 0.16302(13) 0.92403(14) 0.06332(16)
C22_16 C 0.20859(18) 0.95803(17) 0.0445(2)
Zn3_8 Zn 0.18776(2) 0.89538(3) 0.14497(2)
N1_16 N 0.22832(13) 0.92588(21) 0.24208(17)
N2_16 N 0.12701(13) 0.86155(21) 0.22008(16)
N3_13 N 0.10468(13) 0.85547(20) 0.33642(16)
C1_16 C 0.27918(18) 0.96032(27) 0.2490(2)
H1_16 H 0.2999 0.9724 0.2058
C2_16 C 0.30277(19) 0.97891(28) 0.3163(3)
C3_13 C 0.27298(19) 0.96172(28) 0.3789(2)
H3_13 H 0.2885 0.9742 0.4258
C4_13 C 0.22009(18) 0.92613(27) 0.3734(2)
H4_13 H 0.1987 0.9135 0.4160
C5_16 C 0.19942(16) 0.90960(24) 0.3038(2)
C6_16 C 0.14424(16) 0.87493(25) 0.28815(19)
C7_16 C 0.07389(15) 0.83186(23) 0.22407(19)
C8_16 C 0.05882(16) 0.82762(23) 0.29719(19)
C9_13 C 0.00851(16) 0.80164(23) 0.33557(19)
C10_13 C 0.00319(18) 0.82042(25) 0.4042(2)
H5_13 H 0.0321 0.8502 0.4251
C16_16 C 0.04310(16) 0.81175(25) 0.15594(19)
C17_16 C 0.06223(16) 0.79303(24) 0.1011(2)
H9_16 H 0.0941 0.7933 0.1083
C18_16 C 0.03485(16) 0.77399(24) 0.0359(2)
H13_13 H 0.1086(18) 0.8567(25) 0.390(3)
O5_10 O 0.19135(12) 0.84020(20) 0.09210(14)
N3_14 N 0.08412(15) 0.56198(13) 0.00308(16)
O2_16 O 0.21451(13) 0.80545(12) 0.18340(14)
C3_14 C 0.0221(2) 0.39368(19) 0.0455(2)
H3_14 H 0.0190 0.3781 0.0924
C4_14 C 0.0394(2) 0.44657(18) 0.0400(2)
H4_14 H 0.0481 0.4679 0.0826
C9_14 C 0.12646(17) 0.65815(16) 0.00223(19)
C10_14 C 0.15056(18) 0.66347(18) 0.0708(2)
H5_14 H 0.1514 0.6345 0.0917
C11_16 C 0.17283(17) 0.70994(17) 0.1080(2)
H6_16 H 0.1886 0.7125 0.1546
C12_16 C 0.17285(15) 0.75334(15) 0.07895(19)
C13_16 C 0.14956(17) 0.74855(15) 0.0100(2)
C15_16 C 0.19524(15) 0.80305(16) 0.12182(19)
H13_14 H 0.0814(18) 0.5580(18) 0.056(3)
H10_15 H 0.9518 0.2386 0.0013
Zn1_6 Zn 0.81224(2) 0.10462(3) 0.85503(2)
N1_17 N 0.77168(13) 0.07412(21) 0.75792(17)
N2_17 N 0.87299(13) 0.13845(21) 0.77992(16)
N3_15 N 0.89532(13) 0.14453(20) 0.66358(16)
C1_17 C 0.72082(18) 0.03968(27) 0.7510(2)
H1_17 H 0.7001 0.0276 0.7942
C2_17 C 0.69723(19) 0.02109(28) 0.6837(3)
C3_15 C 0.72702(19) 0.03828(28) 0.6211(2)
H3_15 H 0.7115 0.0258 0.5742
C4_15 C 0.77991(18) 0.07387(27) 0.6266(2)
H4_15 H 0.8013 0.0865 0.5840
C5_17 C 0.80058(16) 0.09040(24) 0.6962(2)
C6_17 C 0.85576(16) 0.12507(25) 0.71185(19)
C7_17 C 0.92611(15) 0.16814(23) 0.77593(19)
C8_17 C 0.94118(16) 0.17238(23) 0.70281(19)
C9_15 C 0.99149(16) 0.19836(23) 0.66443(19)
C10_15 C 0.99681(18) 0.17958(25) 0.5958(2)
H5_15 H 0.9679 0.1498 0.5749
C16_17 C 0.95690(16) 0.18825(25) 0.84406(19)
C17_17 C 0.93777(16) 0.20697(24) 0.8989(2)
H9_17 H 0.9059 0.2067 0.8917
C18_17 C 0.96515(16) 0.22601(24) 0.9641(2)
H13_15 H 0.8914(18) 0.1433(25) 0.610(3)
O5_11 O 0.80865(12) 0.15980(20) 0.90790(14)
O6_9 O 0.75238(12) 0.03449(20) 0.91906(14)
O7_9 O 0.83698(13) 0.07597(23) 0.93668(16)
N3_16 N 0.91588(15) 0.43802(13) 0.99692(16)
O2_17 O 0.78549(13) 0.19455(12) 0.81660(14)
C3_16 C 0.9779(2) 0.60632(19) 0.9545(2)
H3_16 H 0.9810 0.6219 0.9076
C4_16 C 0.9606(2) 0.55343(18) 0.9600(2)
H4_16 H 0.9519 0.5321 0.9174
C9_16 C 0.87354(17) 0.34185(16) 0.99777(19)
C10_16 C 0.84944(18) 0.33653(18) 0.9292(2)
H5_16 H 0.8486 0.3655 0.9083
C11_17 C 0.82717(17) 0.29006(17) 0.8920(2)
H6_17 H 0.8114 0.2875 0.8454
C12_17 C 0.82715(15) 0.24666(15) 0.92105(19)
C13_17 C 0.85044(17) 0.25145(15) 0.9900(2)
C15_17 C 0.80476(15) 0.19695(16) 0.87818(19)
H13_16 H 0.9186(18) 0.4420(18) 0.944(3)
C22_17 C 0.79141(18) 0.04197(17) 0.9555(2)
H2_12 H 0.6610 0.9967 0.6808
H2_13 H 0.0033 0.6642 0.6808
O3_9 O 0.71790(16) 0.75238(12) 0.08094(14)
O4_9 O 0.76102(19) 0.83698(13) 0.06332(16)
H10_16 H 0.7614 0.7131 0.0013
C22_18 C 0.74945(25) 0.79141(18) 0.0445(2)
Zn3_9 Zn 0.70761(4) 0.81224(2) 0.14497(2)
N1_18 N 0.69755(16) 0.77168(13) 0.24208(17)
N2_18 N 0.73453(16) 0.87299(13) 0.22008(16)
N3_17 N 0.75078(15) 0.89532(13) 0.33642(16)
C1_18 C 0.6811(2) 0.72082(18) 0.2490(2)
H1_18 H 0.6724 0.7001 0.2058
C2_18 C 0.6761(2) 0.69723(19) 0.3163(3)
H2_14 H 0.6642 0.6610 0.3192
C3_17 C 0.6887(2) 0.72702(19) 0.3789(2)
H3_17 H 0.6856 0.7115 0.4258
C4_17 C 0.7060(2) 0.77991(18) 0.3734(2)
H4_17 H 0.7147 0.8013 0.4160
C5_18 C 0.71017(18) 0.80058(16) 0.3038(2)
C6_18 C 0.73068(19) 0.85576(16) 0.28815(19)
C7_18 C 0.75796(18) 0.92611(15) 0.22407(19)
C8_18 C 0.76879(17) 0.94118(16) 0.29719(19)
C9_17 C 0.79312(17) 0.99149(16) 0.33557(19)
C10_17 C 0.81722(18) 0.99681(18) 0.4042(2)
H5_17 H 0.8180 0.9679 0.4251
C16_18 C 0.76864(19) 0.95690(16) 0.15594(19)
C17_18 C 0.73079(18) 0.93777(16) 0.1011(2)
H9_18 H 0.6991 0.9059 0.1083
C18_18 C 0.73913(18) 0.96515(16) 0.0359(2)
H13_17 H 0.7480(18) 0.8914(18) 0.390(3)
O5_12 O 0.64886(16) 0.80865(12) 0.09210(14)
N3_18 N 0.47787(20) 0.91588(15) 0.00308(16)
O2_18 O 0.59095(18) 0.78549(13) 0.18340(14)
C3_18 C 0.37162(28) 0.9779(2) 0.0455(2)
H3_18 H 0.3592 0.9810 0.0924
C4_18 C 0.40721(27) 0.9606(2) 0.0400(2)
H4_18 H 0.4199 0.9519 0.0826
C9_18 C 0.53170(23) 0.87354(17) 0.00223(19)
C10_18 C 0.51292(25) 0.84944(18) 0.0708(2)
H5_18 H 0.4832 0.8486 0.0917
C11_18 C 0.53712(24) 0.82717(17) 0.1080(2)
H6_18 H 0.5240 0.8114 0.1546
C12_18 C 0.58050(21) 0.82715(15) 0.07895(19)
C13_18 C 0.59900(23) 0.85044(17) 0.0100(2)
C15_18 C 0.60782(22) 0.80476(15) 0.12182(19)
H13_18 H 0.4767(25) 0.9186(18) 0.056(3)
H2_15 H 0.3309 0.9943 0.6525
H2_16 H 0.0057 0.3366 0.6525
H10_17 H 0.7131 0.9518 0.9987
H2_17 H 0.3390 0.0033 0.3192
H10_18 H 0.0482 0.7614 0.9987
H2_18 H 0.9967 0.3358 0.3192
loop_
_geom_bond_atom_site_label_1
_geom_bond_atom_site_label_2
_geom_bond_site_symmetry_1
_geom_bond_site_symmetry_2
Zn1 N1 1_555 1_555
N1 C1 1_555 1_555
N2 Zn1 1_555 1_555
N3 C6 1_555 1_555
O1 C15 1_555 1_555
O2 C15 1_555 1_555
O3 C22 1_555 1_555
O4 C22 1_555 1_555
C1 H1 1_555 1_555
C2 C1 1_555 1_555
C3 C2 1_555 1_555
H3 C3 1_555 1_555
C4 C3 1_555 1_555
H4 C4 1_555 1_555
C5 N1 1_555 1_555
C6 N2 1_555 1_555
C7 N2 1_555 1_555
C8 N3 1_555 1_555
C9 C8 1_555 1_555
C10 C9 1_555 1_555
H5 C10 1_555 1_555
C11 C10 1_555 1_555
H6 C11 1_555 1_555
C12 C11 1_555 1_555
C13 C12 1_555 1_555
H7 C13 1_555 1_555
C14 C9 1_555 1_555
H8 C14 1_555 1_555
C15 C12 1_555 1_555
C16 C7 1_555 1_555
C17 C16 1_555 1_555
H9 C17 1_555 1_555
C18 C17 1_555 1_555
H10 C18 1_555 1_555
C19 C18 1_555 1_555
C20 C19 1_555 1_555
H11 C20 1_555 1_555
C21 C16 1_555 1_555
H12 C21 1_555 1_555
C22 C19 1_555 1_555
H13 N3 1_555 1_555
Zn2 O1 1_555 1_555
Zn3 O3 1_555 1_555
O5 Zn1 1_555 1_555
O6 Zn1 1_555 1_555
O7 Zn1 1_555 1_555
O4 Zn3 1_555 1_555
C4 C5 1_555 1_555
C5 C6 1_555 1_555
C7 C8 1_555 1_555
C13 C14 1_555 1_555
C20 C21 1_555 1_555
Zn1_2 N1_2 1_555 1_555
N1_2 C1_2 1_555 1_555
N2_2 Zn1_2 1_555 1_555
N3_2 C6_2 1_555 1_555
O1_2 C15_2 1_555 1_555
O2_2 C15_2 1_555 1_555
O3_2 C22_2 1_555 1_555
O4_2 C22_2 1_555 1_555
C1_2 H1_2 1_555 1_555
C2_2 C1_2 1_555 1_555
C3_2 C2_2 1_555 1_555
H3_2 C3_2 1_555 1_555
C4_2 C3_2 1_555 1_555
H4_2 C4_2 1_555 1_555
C5_2 N1_2 1_555 1_555
C6_2 N2_2 1_555 1_555
C7_2 N2_2 1_555 1_555
C8_2 N3_2 1_555 1_555
C9_2 C8_2 1_555 1_555
C10_2 C9_2 1_555 1_555
H5_2 C10_2 1_555 1_555
C11_2 C10_2 1_555 1_555
H6_2 C11_2 1_555 1_555
C12_2 C11_2 1_555 1_555
C13_2 C12_2 1_555 1_555
H7_2 C13_2 1_555 1_555
C14_2 C9_2 1_555 1_555
H8_2 C14_2 1_555 1_555
C15_2 C12_2 1_555 1_555
C16_2 C7_2 1_555 1_555
C17_2 C16_2 1_555 1_555
H9_2 C17_2 1_555 1_555
C18_2 C17_2 1_555 1_555
H10_2 C18_2 1_555 1_555
C19_2 C18_2 1_555 1_555
C20_2 C19_2 1_555 1_555
H11_2 C20_2 1_555 1_555
C21_2 C16_2 1_555 1_555
H12_2 C21_2 1_555 1_555
C22_2 C19_2 1_555 1_555
H13_2 N3_2 1_555 1_555
Zn3_2 O3_2 1_555 1_555
O5_2 Zn1_2 1_555 1_555
O6_2 Zn1_2 1_555 1_555
O7_2 Zn1_2 1_555 1_555
O4_2 Zn3_2 1_555 1_555
C4_2 C5_2 1_555 1_555
C5_2 C6_2 1_555 1_555
C7_2 C8_2 1_555 1_555
C13_2 C14_2 1_555 1_555
C20_2 C21_2 1_555 1_555
Zn1_3 N1_3 1_555 1_555
N1_3 C1_3 1_555 1_555
N2_3 Zn1_3 1_555 1_555
N3_3 C6_3 1_555 1_555
O1_3 C15_3 1_555 1_555
O2_3 C15_3 1_555 1_555
O3_3 C22_3 1_555 1_555
O4_3 C22_3 1_555 1_555
C1_3 H1_3 1_555 1_555
C2_3 C1_3 1_555 1_555
H2_2 C2_3 1_555 1_555
C3_3 C2_3 1_555 1_555
H3_3 C3_3 1_555 1_555
C4_3 C3_3 1_555 1_555
H4_3 C4_3 1_555 1_555
C5_3 N1_3 1_555 1_555
C6_3 N2_3 1_555 1_555
C7_3 N2_3 1_555 1_555
C8_3 N3_3 1_555 1_555
C9_3 C8_3 1_555 1_555
C10_3 C9_3 1_555 1_555
H5_3 C10_3 1_555 1_555
C11_3 C10_3 1_555 1_555
H6_3 C11_3 1_555 1_555
C12_3 C11_3 1_555 1_555
C13_3 C12_3 1_555 1_555
H7_3 C13_3 1_555 1_555
C14_3 C9_3 1_555 1_555
H8_3 C14_3 1_555 1_555
C15_3 C12_3 1_555 1_555
C16_3 C7_3 1_555 1_555
C17_3 C16_3 1_555 1_555
H9_3 C17_3 1_555 1_555
C18_3 C17_3 1_555 1_555
H10_3 C18_3 1_555 1_555
C19_3 C18_3 1_555 1_555
C20_3 C19_3 1_555 1_555
H11_3 C20_3 1_555 1_555
C21_3 C16_3 1_555 1_555
H12_3 C21_3 1_555 1_555
C22_3 C19_3 1_555 1_555
H13_3 N3_3 1_555 1_555
Zn3_3 O3_3 1_555 1_555
O5_3 Zn1_3 1_555 1_555
O6_3 Zn1_3 1_555 1_555
O7_3 Zn1_3 1_555 1_555
O4_3 Zn3_3 1_555 1_555
C4_3 C5_3 1_555 1_555
C5_3 C6_3 1_555 1_555
C7_3 C8_3 1_555 1_555
C13_3 C14_3 1_555 1_555
C20_3 C21_3 1_555 1_555
O5_2 C15_4 1_555 1_555
O2_4 C15_4 1_555 1_555
H6_4 C11_4 1_555 1_555
C12_4 C11_4 1_555 1_555
C13_4 C12_4 1_555 1_555
H7_4 C13_4 1_555 1_555
H8_4 C14_4 1_555 1_555
C15_4 C12_4 1_555 1_555
C20_4 C19_4 1_555 1_555
H11_4 C20_4 1_555 1_555
H12_4 C21_4 1_555 1_555
C13_4 C14_4 1_555 1_555
C20_4 C21_4 1_555 1_555
O3_4 C22_4 1_555 1_555
O4_4 C22_4 1_555 1_555
Zn3_4 O3_4 1_555 1_555
O4_4 Zn3_4 1_555 1_555
O5_3 C15_5 1_555 1_555
O2_5 C15_5 1_555 1_555
H6_5 C11_5 1_555 1_555
C12_5 C11_5 1_555 1_555
C13_5 C12_5 1_555 1_555
H7_5 C13_5 1_555 1_555
H8_5 C14_5 1_555 1_555
C15_5 C12_5 1_555 1_555
C20_5 C19_5 1_555 1_555
H11_5 C20_5 1_555 1_555
H12_5 C21_5 1_555 1_555
C13_5 C14_5 1_555 1_555
C20_5 C21_5 1_555 1_555
Zn1_4 N1_4 1_555 1_555
N1_4 C1_4 1_555 1_555
N2_4 Zn1_4 1_555 1_555
N3_4 C6_4 1_555 1_555
O5 C15_6 1_555 1_555
O2_6 C15_6 1_555 1_555
C1_4 H1_4 1_555 1_555
C2_4 C1_4 1_555 1_555
C3_4 C2_4 1_555 1_555
H3_4 C3_4 1_555 1_555
C4_4 C3_4 1_555 1_555
H4_4 C4_4 1_555 1_555
C5_4 N1_4 1_555 1_555
C6_4 N2_4 1_555 1_555
C7_4 N2_4 1_555 1_555
C8_4 N3_4 1_555 1_555
C9_4 C8_4 1_555 1_555
C10_4 C9_4 1_555 1_555
H5_4 C10_4 1_555 1_555
C11_6 C10_4 1_555 1_555
H6_6 C11_6 1_555 1_555
C12_6 C11_6 1_555 1_555
C13_6 C12_6 1_555 1_555
H7_6 C13_6 1_555 1_555
C14_6 C9_4 1_555 1_555
H8_6 C14_6 1_555 1_555
C15_6 C12_6 1_555 1_555
C16_4 C7_4 1_555 1_555
C17_4 C16_4 1_555 1_555
H9_4 C17_4 1_555 1_555
C18_4 C17_4 1_555 1_555
C19_6 C18_4 1_555 1_555
C20_6 C19_6 1_555 1_555
H11_6 C20_6 1_555 1_555
C21_6 C16_4 1_555 1_555
H12_6 C21_6 1_555 1_555
H13_4 N3_4 1_555 1_555
O5_4 Zn1_4 1_555 1_555
O6_4 Zn1_4 1_555 1_555
O7_4 Zn1_4 1_555 1_555
C4_4 C5_4 1_555 1_555
C5_4 C6_4 1_555 1_555
C7_4 C8_4 1_555 1_555
C13_6 C14_6 1_555 1_555
C20_6 C21_6 1_555 1_555
Zn2_3 N1_5 1_555 1_555
N1_5 C1_5 1_555 1_555
N2_5 Zn2_3 1_555 1_555
O3_5 C22_5 1_555 1_555
O4_5 C22_5 1_555 1_555
C1_5 H1_5 1_555 1_555
C2_5 C1_5 1_555 1_555
C5_5 N1_5 1_555 1_555
C6_5 N2_5 1_555 1_555
C7_5 N2_5 1_555 1_555
H8_7 C14_7 1_555 1_555
C16_5 C7_5 1_555 1_555
C17_5 C16_5 1_555 1_555
H9_5 C17_5 1_555 1_555
C18_5 C17_5 1_555 1_555
H10_4 C18_5 1_555 1_555
C19_7 C18_5 1_555 1_555
C20_7 C19_7 1_555 1_555
H11_7 C20_7 1_555 1_555
C21_7 C16_5 1_555 1_555
H12_7 C21_7 1_555 1_555
C22_5 C19_7 1_555 1_555
Zn3_5 O3_5 1_555 1_555
O6_5 Zn2_3 1_555 1_555
O7_5 Zn2_3 1_555 1_555
O4_5 Zn3_5 1_555 1_555
C5_5 C6_5 1_555 1_555
C7_5 C8_5 1_555 1_555
C20_7 C21_7 1_555 1_555
Zn2 N1_6 1_555 1_555
N1_6 C1_6 1_555 1_555
N2_6 Zn2 1_555 1_555
O3_6 C22_6 1_555 1_555
O4_6 C22_6 1_555 1_555
C1_6 H1_6 1_555 1_555
C2_6 C1_6 1_555 1_555
H2_4 C2_6 1_555 1_555
C5_6 N1_6 1_555 1_555
C6_6 N2_6 1_555 1_555
C7_6 N2_6 1_555 1_555
H8_8 C14_8 1_555 1_555
C16_6 C7_6 1_555 1_555
C17_6 C16_6 1_555 1_555
H9_6 C17_6 1_555 1_555
C18_6 C17_6 1_555 1_555
H10_5 C18_6 1_555 1_555
C19_8 C18_6 1_555 1_555
C20_8 C19_8 1_555 1_555
H11_8 C20_8 1_555 1_555
C21_8 C16_6 1_555 1_555
H12_8 C21_8 1_555 1_555
C22_6 C19_8 1_555 1_555
Zn3_6 O3_6 1_555 1_555
O6_6 Zn2 1_555 1_555
O7_6 Zn2 1_555 1_555
O4_6 Zn3_6 1_555 1_555
C5_6 C6_6 1_555 1_555
C7_6 C8_6 1_555 1_555
C20_8 C21_8 1_555 1_555
O5_4 C15_7 1_555 1_555
O2_7 C15_7 1_555 1_555
H3_5 C3_5 1_555 1_555
C4_5 C3_5 1_555 1_555
H4_5 C4_5 1_555 1_555
C10_5 C9_5 1_555 1_555
H5_5 C10_5 1_555 1_555
C11_7 C10_5 1_555 1_555
H6_7 C11_7 1_555 1_555
C12_7 C11_7 1_555 1_555
C13_7 C12_7 1_555 1_555
C15_7 C12_7 1_555 1_555
H13_5 N3_5 1_555 1_555
Zn2_2 N1_7 1_555 1_555
N1_7 C1_7 1_555 1_555
N2_7 Zn2_2 1_555 1_555
O3_7 C22_7 1_555 1_555
O4_7 C22_7 1_555 1_555
C1_7 H1_7 1_555 1_555
C2_7 C1_7 1_555 1_555
C5_7 N1_7 1_555 1_555
C6_7 N2_7 1_555 1_555
C7_7 N2_7 1_555 1_555
H8_9 C14_9 1_555 1_555
C16_7 C7_7 1_555 1_555
C17_7 C16_7 1_555 1_555
H9_7 C17_7 1_555 1_555
C18_7 C17_7 1_555 1_555
H10_6 C18_7 1_555 1_555
C19_9 C18_7 1_555 1_555
C20_9 C19_9 1_555 1_555
H11_9 C20_9 1_555 1_555
C21_9 C16_7 1_555 1_555
H12_9 C21_9 1_555 1_555
C22_7 C19_9 1_555 1_555
Zn3_7 O3_7 1_555 1_555
O6_7 Zn2_2 1_555 1_555
O7_7 Zn2_2 1_555 1_555
O4_7 Zn3_7 1_555 1_555
C5_7 C6_7 1_555 1_555
C7_7 C8_7 1_555 1_555
C20_9 C21_9 1_555 1_555
Zn3_7 N1_8 1_555 1_555
N1_8 C1_8 1_555 1_555
N2_8 Zn3_7 1_555 1_555
N3_6 C6_8 1_555 1_555
O1_4 C15_8 1_555 1_555
O2_8 C15_8 1_555 1_555
O6_6 C22_8 1_555 1_555
O7_6 C22_8 1_555 1_555
C1_8 H1_8 1_555 1_555
C2_8 C1_8 1_555 1_555
C3_6 C2_8 1_555 1_555
H3_6 C3_6 1_555 1_555
C4_6 C3_6 1_555 1_555
H4_6 C4_6 1_555 1_555
C5_8 N1_8 1_555 1_555
C6_8 N2_8 1_555 1_555
C7_8 N2_8 1_555 1_555
C8_8 N3_6 1_555 1_555
C9_6 C8_8 1_555 1_555
C10_6 C9_6 1_555 1_555
H5_6 C10_6 1_555 1_555
C11_8 C10_6 1_555 1_555
H6_8 C11_8 1_555 1_555
C12_8 C11_8 1_555 1_555
C13_8 C12_8 1_555 1_555
H7_10 C13_8 1_555 1_555
C14_10 C9_6 1_555 1_555
H8_10 C14_10 1_555 1_555
C15_8 C12_8 1_555 1_555
C16_8 C7_8 1_555 1_555
C17_8 C16_8 1_555 1_555
H9_8 C17_8 1_555 1_555
C18_8 C17_8 1_555 1_555
H10_7 C18_8 1_555 1_555
C19_10 C18_8 1_555 1_555
C20_10 C19_10 1_555 1_555
H11_10 C20_10 1_555 1_555
C21_10 C16_8 1_555 1_555
H12_10 C21_10 1_555 1_555
C22_8 C19_10 1_555 1_555
H13_6 N3_6 1_555 1_555
Zn3 O1_4 1_555 1_555
O5_5 Zn3_7 1_555 1_555
C4_6 C5_8 1_555 1_555
C5_8 C6_8 1_555 1_555
C7_8 C8_8 1_555 1_555
C13_8 C14_10 1_555 1_555
C20_10 C21_10 1_555 1_555
Zn3_5 N1_9 1_555 1_555
N1_9 C1_9 1_555 1_555
N2_9 Zn3_5 1_555 1_555
N3_7 C6_9 1_555 1_555
O1_5 C15_9 1_555 1_555
O2_9 C15_9 1_555 1_555
O6_7 C22_9 1_555 1_555
O7_7 C22_9 1_555 1_555
C1_9 H1_9 1_555 1_555
C2_9 C1_9 1_555 1_555
C3_7 C2_9 1_555 1_555
H3_7 C3_7 1_555 1_555
C4_7 C3_7 1_555 1_555
H4_7 C4_7 1_555 1_555
C5_9 N1_9 1_555 1_555
C6_9 N2_9 1_555 1_555
C7_9 N2_9 1_555 1_555
C8_9 N3_7 1_555 1_555
C9_7 C8_9 1_555 1_555
C10_7 C9_7 1_555 1_555
H5_7 C10_7 1_555 1_555
C11_9 C10_7 1_555 1_555
H6_9 C11_9 1_555 1_555
C12_9 C11_9 1_555 1_555
C13_9 C12_9 1_555 1_555
H7_11 C13_9 1_555 1_555
C14_11 C9_7 1_555 1_555
H8_11 C14_11 1_555 1_555
C15_9 C12_9 1_555 1_555
C16_9 C7_9 1_555 1_555
C17_9 C16_9 1_555 1_555
H9_9 C17_9 1_555 1_555
C18_9 C17_9 1_555 1_555
H10_8 C18_9 1_555 1_555
C19_11 C18_9 1_555 1_555
C20_11 C19_11 1_555 1_555
H11_11 C20_11 1_555 1_555
C21_11 C16_9 1_555 1_555
H12_11 C21_11 1_555 1_555
C22_9 C19_11 1_555 1_555
H13_7 N3_7 1_555 1_555
O5_6 Zn3_5 1_555 1_555
C4_7 C5_9 1_555 1_555
C5_9 C6_9 1_555 1_555
C7_9 C8_9 1_555 1_555
C13_9 C14_11 1_555 1_555
C20_11 C21_11 1_555 1_555
Zn3_6 N1_10 1_555 1_555
N1_10 C1_10 1_555 1_555
N2_10 Zn3_6 1_555 1_555
N3_8 C6_10 1_555 1_555
O1_6 C15_10 1_555 1_555
O2_10 C15_10 1_555 1_555
O6_5 C22_10 1_555 1_555
O7_5 C22_10 1_555 1_555
C1_10 H1_10 1_555 1_555
C2_10 C1_10 1_555 1_555
H2_6 C2_10 1_555 1_555
C3_8 C2_10 1_555 1_555
H3_8 C3_8 1_555 1_555
C4_8 C3_8 1_555 1_555
H4_8 C4_8 1_555 1_555
C5_10 N1_10 1_555 1_555
C6_10 N2_10 1_555 1_555
C7_10 N2_10 1_555 1_555
C8_10 N3_8 1_555 1_555
C9_8 C8_10 1_555 1_555
C10_8 C9_8 1_555 1_555
H5_8 C10_8 1_555 1_555
C11_10 C10_8 1_555 1_555
H6_10 C11_10 1_555 1_555
C12_10 C11_10 1_555 1_555
C13_10 C12_10 1_555 1_555
H7_12 C13_10 1_555 1_555
C14_12 C9_8 1_555 1_555
H8_12 C14_12 1_555 1_555
C15_10 C12_10 1_555 1_555
C16_10 C7_10 1_555 1_555
C17_10 C16_10 1_555 1_555
H9_10 C17_10 1_555 1_555
C18_10 C17_10 1_555 1_555
H10_9 C18_10 1_555 1_555
C19_12 C18_10 1_555 1_555
C20_12 C19_12 1_555 1_555
H11_12 C20_12 1_555 1_555
C21_12 C16_10 1_555 1_555
H12_12 C21_12 1_555 1_555
C22_10 C19_12 1_555 1_555
H13_8 N3_8 1_555 1_555
O5_7 Zn3_6 1_555 1_555
C4_8 C5_10 1_555 1_555
C5_10 C6_10 1_555 1_555
C7_10 C8_10 1_555 1_555
C13_10 C14_12 1_555 1_555
C20_12 C21_12 1_555 1_555
O5_6 C15_11 1_555 1_555
O2_11 C15_11 1_555 1_555
H6_11 C11_11 1_555 1_555
C12_11 C11_11 1_555 1_555
C13_11 C12_11 1_555 1_555
H7_13 C13_11 1_555 1_555
H8_13 C14_13 1_555 1_555
C15_11 C12_11 1_555 1_555
C20_13 C19_13 1_555 1_555
H11_13 C20_13 1_555 1_555
H12_13 C21_13 1_555 1_555
C13_11 C14_13 1_555 1_555
C20_13 C21_13 1_555 1_555
O5_7 C15_12 1_555 1_555
O2_12 C15_12 1_555 1_555
H6_12 C11_12 1_555 1_555
C12_12 C11_12 1_555 1_555
C13_12 C12_12 1_555 1_555
H7_14 C13_12 1_555 1_555
H8_14 C14_14 1_555 1_555
C15_12 C12_12 1_555 1_555
C20_14 C19_14 1_555 1_555
H11_14 C20_14 1_555 1_555
H12_14 C21_14 1_555 1_555
C13_12 C14_14 1_555 1_555
C20_14 C21_14 1_555 1_555
O6_4 C22_11 1_555 1_555
O7_4 C22_11 1_555 1_555
Zn3_4 N1_11 1_555 1_555
N1_11 C1_11 1_555 1_555
N2_11 Zn3_4 1_555 1_555
N3_9 C6_11 1_555 1_555
O5_5 C15_13 1_555 1_555
O2_13 C15_13 1_555 1_555
C1_11 H1_11 1_555 1_555
C2_11 C1_11 1_555 1_555
C3_9 C2_11 1_555 1_555
H3_9 C3_9 1_555 1_555
C4_9 C3_9 1_555 1_555
H4_9 C4_9 1_555 1_555
C5_11 N1_11 1_555 1_555
C6_11 N2_11 1_555 1_555
C7_11 N2_11 1_555 1_555
C8_11 N3_9 1_555 1_555
C9_9 C8_11 1_555 1_555
C10_9 C9_9 1_555 1_555
H5_9 C10_9 1_555 1_555
C11_13 C10_9 1_555 1_555
H6_13 C11_13 1_555 1_555
C12_13 C11_13 1_555 1_555
C13_13 C12_13 1_555 1_555
H7_15 C13_13 1_555 1_555
C14_15 C9_9 1_555 1_555
H8_15 C14_15 1_555 1_555
C15_13 C12_13 1_555 1_555
C16_11 C7_11 1_555 1_555
C17_11 C16_11 1_555 1_555
H9_11 C17_11 1_555 1_555
C18_11 C17_11 1_555 1_555
C19_15 C18_11 1_555 1_555
C20_15 C19_15 1_555 1_555
H11_15 C20_15 1_555 1_555
C21_15 C16_11 1_555 1_555
H12_15 C21_15 1_555 1_555
H13_9 N3_9 1_555 1_555
O5_8 Zn3_4 1_555 1_555
C4_9 C5_11 1_555 1_555
C5_11 C6_11 1_555 1_555
C7_11 C8_11 1_555 1_555
C13_13 C14_15 1_555 1_555
C20_15 C21_15 1_555 1_555
Zn3_3 N1_12 1_555 1_555
N1_12 C1_12 1_555 1_555
N2_12 Zn3_3 1_555 1_555
O6_2 C22_12 1_555 1_555
O7_2 C22_12 1_555 1_555
C1_12 H1_12 1_555 1_555
C2_12 C1_12 1_555 1_555
C5_12 N1_12 1_555 1_555
C6_12 N2_12 1_555 1_555
C7_12 N2_12 1_555 1_555
H8_16 C14_16 1_555 1_555
C16_12 C7_12 1_555 1_555
C17_12 C16_12 1_555 1_555
H9_12 C17_12 1_555 1_555
C18_12 C17_12 1_555 1_555
H10_10 C18_12 1_555 1_555
C19_16 C18_12 1_555 1_555
C20_16 C19_16 1_555 1_555
H11_16 C20_16 1_555 1_555
C21_16 C16_12 1_555 1_555
H12_16 C21_16 1_555 1_555
C22_12 C19_16 1_555 1_555
C5_12 C6_12 1_555 1_555
C7_12 C8_12 1_555 1_555
C20_16 C21_16 1_555 1_555
O5_8 C15_14 1_555 1_555
O2_14 C15_14 1_555 1_555
H3_10 C3_10 1_555 1_555
C4_10 C3_10 1_555 1_555
H4_10 C4_10 1_555 1_555
C10_10 C9_10 1_555 1_555
H5_10 C10_10 1_555 1_555
C11_14 C10_10 1_555 1_555
H6_14 C11_14 1_555 1_555
C12_14 C11_14 1_555 1_555
C13_14 C12_14 1_555 1_555
C15_14 C12_14 1_555 1_555
H13_10 N3_10 1_555 1_555
Zn3 N1_13 1_555 1_555
N1_13 C1_13 1_555 1_555
N2_13 Zn3 1_555 1_555
O6_3 C22_13 1_555 1_555
O7_3 C22_13 1_555 1_555
C1_13 H1_13 1_555 1_555
C2_13 C1_13 1_555 1_555
H2_8 C2_13 1_555 1_555
C5_13 N1_13 1_555 1_555
C6_13 N2_13 1_555 1_555
C7_13 N2_13 1_555 1_555
H8_17 C14_17 1_555 1_555
C16_13 C7_13 1_555 1_555
C17_13 C16_13 1_555 1_555
H9_13 C17_13 1_555 1_555
C18_13 C17_13 1_555 1_555
H10_11 C18_13 1_555 1_555
C19_17 C18_13 1_555 1_555
C20_17 C19_17 1_555 1_555
H11_17 C20_17 1_555 1_555
C21_17 C16_13 1_555 1_555
H12_17 C21_17 1_555 1_555
C22_13 C19_17 1_555 1_555
C5_13 C6_13 1_555 1_555
C7_13 C8_13 1_555 1_555
C20_17 C21_17 1_555 1_555
Zn3_2 N1_14 1_555 1_555
N1_14 C1_14 1_555 1_555
N2_14 Zn3_2 1_555 1_555
O6 C22_14 1_555 1_555
O7 C22_14 1_555 1_555
C1_14 H1_14 1_555 1_555
C2_14 C1_14 1_555 1_555
C5_14 N1_14 1_555 1_555
C6_14 N2_14 1_555 1_555
C7_14 N2_14 1_555 1_555
H8_18 C14_18 1_555 1_555
C16_14 C7_14 1_555 1_555
C17_14 C16_14 1_555 1_555
H9_14 C17_14 1_555 1_555
C18_14 C17_14 1_555 1_555
H10_12 C18_14 1_555 1_555
C19_18 C18_14 1_555 1_555
C20_18 C19_18 1_555 1_555
H11_18 C20_18 1_555 1_555
C21_18 C16_14 1_555 1_555
H12_18 C21_18 1_555 1_555
C22_14 C19_18 1_555 1_555
C5_14 C6_14 1_555 1_555
C7_14 C8_14 1_555 1_555
C20_18 C21_18 1_555 1_555
Zn1_5 N1_15 1_555 1_555
N1_15 C1_15 1_555 1_555
N2_15 Zn1_5 1_555 1_555
N3_11 C6_15 1_555 1_555
C1_15 H1_15 1_555 1_555
C2_15 C1_15 1_555 1_555
H2_11 C2_15 1_555 1_555
C3_11 C2_15 1_555 1_555
H3_11 C3_11 1_555 1_555
C4_11 C3_11 1_555 1_555
H4_11 C4_11 1_555 1_555
C5_15 N1_15 1_555 1_555
C6_15 N2_15 1_555 1_555
C7_15 N2_15 1_555 1_555
C8_15 N3_11 1_555 1_555
C9_11 C8_15 1_555 1_555
C10_11 C9_11 1_555 1_555
H5_11 C10_11 1_555 1_555
C16_15 C7_15 1_555 1_555
C17_15 C16_15 1_555 1_555
H9_15 C17_15 1_555 1_555
C18_15 C17_15 1_555 1_555
H13_11 N3_11 1_555 1_555
O5_9 Zn1_5 1_555 1_555
O6_8 Zn1_5 1_555 1_555
O7_8 Zn1_5 1_555 1_555
C4_11 C5_15 1_555 1_555
C5_15 C6_15 1_555 1_555
C7_15 C8_15 1_555 1_555
O5_9 C15_15 1_555 1_555
O2_15 C15_15 1_555 1_555
H3_12 C3_12 1_555 1_555
C4_12 C3_12 1_555 1_555
H4_12 C4_12 1_555 1_555
C10_12 C9_12 1_555 1_555
H5_12 C10_12 1_555 1_555
C11_15 C10_12 1_555 1_555
H6_15 C11_15 1_555 1_555
C12_15 C11_15 1_555 1_555
C13_15 C12_15 1_555 1_555
C15_15 C12_15 1_555 1_555
H13_12 N3_12 1_555 1_555
O6_8 C22_15 1_555 1_555
O7_8 C22_15 1_555 1_555
O3_8 C22_16 1_555 1_555
O4_8 C22_16 1_555 1_555
Zn3_8 O3_8 1_555 1_555
O4_8 Zn3_8 1_555 1_555
Zn3_8 N1_16 1_555 1_555
N1_16 C1_16 1_555 1_555
N2_16 Zn3_8 1_555 1_555
N3_13 C6_16 1_555 1_555
C1_16 H1_16 1_555 1_555
C2_16 C1_16 1_555 1_555
C3_13 C2_16 1_555 1_555
H3_13 C3_13 1_555 1_555
C4_13 C3_13 1_555 1_555
H4_13 C4_13 1_555 1_555
C5_16 N1_16 1_555 1_555
C6_16 N2_16 1_555 1_555
C7_16 N2_16 1_555 1_555
C8_16 N3_13 1_555 1_555
C9_13 C8_16 1_555 1_555
C10_13 C9_13 1_555 1_555
H5_13 C10_13 1_555 1_555
C16_16 C7_16 1_555 1_555
C17_16 C16_16 1_555 1_555
H9_16 C17_16 1_555 1_555
C18_16 C17_16 1_555 1_555
H13_13 N3_13 1_555 1_555
O5_10 Zn3_8 1_555 1_555
C4_13 C5_16 1_555 1_555
C5_16 C6_16 1_555 1_555
C7_16 C8_16 1_555 1_555
O5_10 C15_16 1_555 1_555
O2_16 C15_16 1_555 1_555
H3_14 C3_14 1_555 1_555
C4_14 C3_14 1_555 1_555
H4_14 C4_14 1_555 1_555
C10_14 C9_14 1_555 1_555
H5_14 C10_14 1_555 1_555
C11_16 C10_14 1_555 1_555
H6_16 C11_16 1_555 1_555
C12_16 C11_16 1_555 1_555
C13_16 C12_16 1_555 1_555
C15_16 C12_16 1_555 1_555
H13_14 N3_14 1_555 1_555
Zn1_6 N1_17 1_555 1_555
N1_17 C1_17 1_555 1_555
N2_17 Zn1_6 1_555 1_555
N3_15 C6_17 1_555 1_555
C1_17 H1_17 1_555 1_555
C2_17 C1_17 1_555 1_555
C3_15 C2_17 1_555 1_555
H3_15 C3_15 1_555 1_555
C4_15 C3_15 1_555 1_555
H4_15 C4_15 1_555 1_555
C5_17 N1_17 1_555 1_555
C6_17 N2_17 1_555 1_555
C7_17 N2_17 1_555 1_555
C8_17 N3_15 1_555 1_555
C9_15 C8_17 1_555 1_555
C10_15 C9_15 1_555 1_555
H5_15 C10_15 1_555 1_555
C16_17 C7_17 1_555 1_555
C17_17 C16_17 1_555 1_555
H9_17 C17_17 1_555 1_555
C18_17 C17_17 1_555 1_555
H13_15 N3_15 1_555 1_555
O5_11 Zn1_6 1_555 1_555
O6_9 Zn1_6 1_555 1_555
O7_9 Zn1_6 1_555 1_555
C4_15 C5_17 1_555 1_555
C5_17 C6_17 1_555 1_555
C7_17 C8_17 1_555 1_555
O5_11 C15_17 1_555 1_555
O2_17 C15_17 1_555 1_555
H3_16 C3_16 1_555 1_555
C4_16 C3_16 1_555 1_555
H4_16 C4_16 1_555 1_555
C10_16 C9_16 1_555 1_555
H5_16 C10_16 1_555 1_555
C11_17 C10_16 1_555 1_555
H6_17 C11_17 1_555 1_555
C12_17 C11_17 1_555 1_555
C13_17 C12_17 1_555 1_555
C15_17 C12_17 1_555 1_555
H13_16 N3_16 1_555 1_555
O6_9 C22_17 1_555 1_555
O7_9 C22_17 1_555 1_555
O3_9 C22_18 1_555 1_555
O4_9 C22_18 1_555 1_555
Zn3_9 O3_9 1_555 1_555
O4_9 Zn3_9 1_555 1_555
Zn3_9 N1_18 1_555 1_555
N1_18 C1_18 1_555 1_555
N2_18 Zn3_9 1_555 1_555
N3_17 C6_18 1_555 1_555
C1_18 H1_18 1_555 1_555
C2_18 C1_18 1_555 1_555
H2_14 C2_18 1_555 1_555
C3_17 C2_18 1_555 1_555
H3_17 C3_17 1_555 1_555
C4_17 C3_17 1_555 1_555
H4_17 C4_17 1_555 1_555
C5_18 N1_18 1_555 1_555
C6_18 N2_18 1_555 1_555
C7_18 N2_18 1_555 1_555
C8_18 N3_17 1_555 1_555
C9_17 C8_18 1_555 1_555
C10_17 C9_17 1_555 1_555
H5_17 C10_17 1_555 1_555
C16_18 C7_18 1_555 1_555
C17_18 C16_18 1_555 1_555
H9_18 C17_18 1_555 1_555
C18_18 C17_18 1_555 1_555
H13_17 N3_17 1_555 1_555
O5_12 Zn3_9 1_555 1_555
C4_17 C5_18 1_555 1_555
C5_18 C6_18 1_555 1_555
C7_18 C8_18 1_555 1_555
O5_12 C15_18 1_555 1_555
O2_18 C15_18 1_555 1_555
H3_18 C3_18 1_555 1_555
C4_18 C3_18 1_555 1_555
H4_18 C4_18 1_555 1_555
C10_18 C9_18 1_555 1_555
H5_18 C10_18 1_555 1_555
C11_18 C10_18 1_555 1_555
H6_18 C11_18 1_555 1_555
C12_18 C11_18 1_555 1_555
C13_18 C12_18 1_555 1_555
C15_18 C12_18 1_555 1_555
H13_18 N3_18 1_555 1_555

#END
