
###############################################################################
#
# This file contains modified crystal structure data generated from the
# MOF subset of the Cambridge Structural Database (CSD) v543 
# hosted by the Cambridge Crystallographic Data Centre (CCDC).
#
# This work is licensed under the Creative Commons
# Attribution-NonCommercial-ShareAlike 4.0 International License.
# To view a copy of this license, visit
# http://creativecommons.org/licenses/by-nc-sa/4.0/
# or send a letter to
# Creative Commons, PO Box 1866, Mountain View, CA 94042, USA.
#
# CIF created using the CSD Python API on 29 September 2022
# The structure has been converted into the P1 space group
# The structure has a 3D framework
# The original CSD entry OBAHOR is in the rhombohedral crystal system
# The framework has been calculated to contain at least 10.0% void space
# The void calculation uses a probe of radius 1.32A, grid spacing 0.4
#
###############################################################################

data_OBAHOR
_chemical_formula_moiety         '(C396 H234 N54 O72 Zn18)n'
_symmetry_cell_setting           triclinic
_symmetry_space_group_name_H-M   'P 1'
_symmetry_Int_Tables_number      1
_space_group_name_Hall           'P 1'
loop_
_symmetry_equiv_pos_site_id
_symmetry_equiv_pos_as_xyz
1 x,y,z
_cell_length_a                   29.670(6)
_cell_length_b                   29.670(6)
_cell_length_c                   17.915(3)
_cell_angle_alpha                90
_cell_angle_beta                 90
_cell_angle_gamma                120
_cell_volume                     13657.9
loop_
_atom_site_label
_atom_site_type_symbol
_atom_site_fract_x
_atom_site_fract_y
_atom_site_fract_z
H3 H 0.6869 0.0067 0.3342
Zn1 Zn 0.62915(2) 0.85669(2) 0.51957(2)
N1 N 0.64362(10) 0.89648(9) 0.41833(12)
N2 N 0.59849(10) 0.79467(9) 0.44617(12)
N3 N 0.57802(10) 0.76940(9) 0.33003(12)
H1 H 0.5755 0.7709 0.2813
O1 O 0.47318(8) 0.49280(8) 0.24401(10)
O2 O 0.44638(9) 0.52518(8) 0.15374(11)
O3 O 0.58190(11) 0.63725(9) 0.75656(11)
O4 O 0.49801(11) 0.59166(10) 0.73467(12)
C1 C 0.66602(14) 0.94786(12) 0.40815(18)
H2 H 0.6791 0.9700 0.4505
C2 C 0.67098(16) 0.97005(13) 0.33928(19)
C3 C 0.65259(16) 0.93827(13) 0.27796(18)
H4 H 0.6560 0.9528 0.2296
C4 C 0.62896(14) 0.88482(12) 0.28673(16)
H5 H 0.6157 0.8622 0.2449
C5 C 0.62515(12) 0.86529(11) 0.35790(15)
C6 C 0.60096(12) 0.81020(11) 0.37592(14)
C7 C 0.57202(12) 0.74112(11) 0.44512(14)
C8 C 0.55879(12) 0.72434(11) 0.37169(14)
C9 C 0.53303(12) 0.67347(11) 0.33517(14)
C10 C 0.51004(13) 0.66796(12) 0.26518(16)
H6 H 0.5096 0.6968 0.2430
C11 C 0.48801(12) 0.62089(12) 0.22794(15)
H7 H 0.4726 0.6178 0.1803
C12 C 0.48796(10) 0.57800(11) 0.25899(14)
C13 C 0.51022(12) 0.58292(11) 0.32926(15)
H8 H 0.5101 0.5538 0.3515
C14 C 0.53237(12) 0.62997(11) 0.36660(14)
H9 H 0.5474 0.6328 0.4144
C15 C 0.46696(11) 0.52834(11) 0.21524(14)
C16 C 0.56267(13) 0.71221(11) 0.51562(14)
C17 C 0.60259(13) 0.73089(11) 0.56849(15)
H10 H 0.6347 0.7617 0.5585
C18 C 0.59572(14) 0.70481(12) 0.63535(15)
H11 H 0.6232 0.7175 0.6708
C19 C 0.54885(14) 0.66031(12) 0.65053(15)
C20 C 0.50810(14) 0.64260(13) 0.59946(16)
H12 H 0.4754 0.6129 0.6106
C21 C 0.51545(13) 0.66866(12) 0.53191(16)
H13 H 0.4878 0.6564 0.4968
C22 C 0.54303(16) 0.62851(13) 0.71889(16)
Zn2 Zn 0.47664(2) 0.43913(3) 0.18624(2)
Zn3 Zn 0.52336(2) 0.56087(3) 0.81376(2)
O5 O 0.68629(11) 0.86015(8) 0.57734(10)
O6 O 0.61132(14) 0.91523(11) 0.57677(11)
O7 O 0.57302(15) 0.83134(11) 0.59866(12)
Zn2_2 Zn 0.56087(3) 0.03752(4) 0.18624(2)
Zn1_2 Zn 0.14331(2) 0.77246(3) 0.51957(2)
N1_2 N 0.10352(9) 0.74714(13) 0.41833(12)
N2_2 N 0.20533(9) 0.80382(13) 0.44617(12)
N3_2 N 0.23060(9) 0.80862(13) 0.33003(12)
H1_2 H 0.2291 0.8046 0.2813
O1_2 O 0.50720(8) 0.98038(11) 0.24401(10)
O2_2 O 0.47482(8) 0.92120(12) 0.15374(11)
O3_2 O 0.36275(9) 0.94465(14) 0.75656(11)
O4_2 O 0.40834(10) 0.90635(15) 0.73467(12)
C1_2 C 0.05214(12) 0.71816(18) 0.40815(18)
H2_2 H 0.0300 0.7091 0.4505
C2_2 C 0.02995(13) 0.70093(21) 0.33928(19)
C3_2 C 0.06173(13) 0.71432(21) 0.27796(18)
H4_2 H 0.0472 0.7032 0.2296
C4_2 C 0.11518(12) 0.74414(18) 0.28673(16)
H5_2 H 0.1378 0.7535 0.2449
C5_2 C 0.13471(11) 0.75986(16) 0.35790(15)
C6_2 C 0.18980(11) 0.79076(16) 0.37592(14)
C7_2 C 0.25888(11) 0.83090(16) 0.44512(14)
C8_2 C 0.27566(11) 0.83445(16) 0.37169(14)
C9_2 C 0.32653(11) 0.85956(16) 0.33517(14)
C10_2 C 0.33204(12) 0.84208(18) 0.26518(16)
H6_2 H 0.3032 0.8128 0.2430
C11_2 C 0.37911(12) 0.86712(17) 0.22794(15)
H7_2 H 0.3822 0.8548 0.1803
C12_2 C 0.42200(11) 0.90996(15) 0.25899(14)
C13_2 C 0.41708(11) 0.92730(16) 0.32926(15)
H8_2 H 0.4462 0.9563 0.3515
C14_2 C 0.37003(11) 0.90240(16) 0.36660(14)
H9_2 H 0.3672 0.9146 0.4144
C15_2 C 0.47166(11) 0.93862(16) 0.21524(14)
C16_2 C 0.28779(11) 0.85046(17) 0.51562(14)
C17_2 C 0.26911(11) 0.87170(17) 0.56849(15)
H10_2 H 0.2383 0.8730 0.5585
C18_2 C 0.29519(12) 0.89091(18) 0.63535(15)
H11_2 H 0.2825 0.9057 0.6708
C19_2 C 0.33969(12) 0.88854(18) 0.65053(15)
C20_2 C 0.35740(13) 0.86550(19) 0.59946(16)
H12_2 H 0.3871 0.8625 0.6106
C21_2 C 0.33134(12) 0.84679(18) 0.53191(16)
H13_2 H 0.3436 0.8314 0.4968
C22_2 C 0.37149(13) 0.91452(21) 0.71889(16)
Zn3_2 Zn 0.43913(3) 0.96248(4) 0.81376(2)
O5_2 O 0.13985(8) 0.82613(14) 0.57734(10)
O6_2 O 0.08477(11) 0.69608(18) 0.57677(11)
O7_2 O 0.16866(11) 0.74167(19) 0.59866(12)
Zn1_3 Zn 0.22754(3) 0.37085(2) 0.51957(2)
N1_3 N 0.25286(13) 0.35638(10) 0.41833(12)
N2_3 N 0.19618(13) 0.40151(10) 0.44617(12)
N3_3 N 0.19138(13) 0.42198(10) 0.33003(12)
H1_3 H 0.1954 0.4245 0.2813
O1_3 O 0.01962(11) 0.52682(8) 0.24401(10)
O2_3 O 0.07880(12) 0.55362(9) 0.15374(11)
O3_3 O 0.05535(14) 0.41810(11) 0.75656(11)
O4_3 O 0.09365(15) 0.50199(11) 0.73467(12)
C1_3 C 0.28184(18) 0.33398(14) 0.40815(18)
H2_3 H 0.2909 0.3209 0.4505
C2_3 C 0.29907(21) 0.32902(16) 0.33928(19)
H3_2 H 0.3198 0.3131 0.3342
C3_3 C 0.28568(21) 0.34741(16) 0.27796(18)
H4_3 H 0.2968 0.3440 0.2296
C4_3 C 0.25586(18) 0.37104(14) 0.28673(16)
H5_3 H 0.2465 0.3843 0.2449
C5_3 C 0.24014(16) 0.37485(12) 0.35790(15)
C6_3 C 0.20924(16) 0.39904(12) 0.37592(14)
C7_3 C 0.16910(16) 0.42798(12) 0.44512(14)
C8_3 C 0.16555(16) 0.44121(12) 0.37169(14)
C9_3 C 0.14044(16) 0.46697(12) 0.33517(14)
C10_3 C 0.15792(18) 0.48996(13) 0.26518(16)
H6_3 H 0.1872 0.4904 0.2430
C11_3 C 0.13288(17) 0.51199(12) 0.22794(15)
H7_3 H 0.1452 0.5274 0.1803
C12_3 C 0.09004(15) 0.51204(10) 0.25899(14)
C13_3 C 0.07270(16) 0.48978(12) 0.32926(15)
H8_3 H 0.0437 0.4899 0.3515
C14_3 C 0.09760(16) 0.46763(12) 0.36660(14)
H9_3 H 0.0854 0.4526 0.4144
C15_3 C 0.06138(16) 0.53304(11) 0.21524(14)
C16_3 C 0.14954(17) 0.43733(13) 0.51562(14)
C17_3 C 0.12830(17) 0.39741(13) 0.56849(15)
H10_3 H 0.1270 0.3653 0.5585
C18_3 C 0.10909(18) 0.40428(14) 0.63535(15)
H11_3 H 0.0943 0.3768 0.6708
C19_3 C 0.11146(18) 0.45115(14) 0.65053(15)
C20_3 C 0.13450(19) 0.49190(14) 0.59946(16)
H12_3 H 0.1375 0.5246 0.6106
C21_3 C 0.15321(18) 0.48455(13) 0.53191(16)
H13_3 H 0.1686 0.5122 0.4968
C22_3 C 0.08548(21) 0.45697(16) 0.71889(16)
Zn3_3 Zn 0.03752(4) 0.47664(2) 0.81376(2)
O5_3 O 0.17387(14) 0.31371(11) 0.57734(10)
O6_3 O 0.30392(18) 0.38868(14) 0.57677(11)
O7_3 O 0.25833(19) 0.42698(15) 0.59866(12)
Zn2_3 Zn 0.96248(4) 0.52336(2) 0.18624(2)
O2_4 O 0.11305(9) 0.85851(8) 0.48707(11)
C11_4 C 0.15468(12) 0.95422(12) 0.56127(15)
H7_4 H 0.1393 0.9511 0.5136
C12_4 C 0.15463(10) 0.91133(11) 0.59232(14)
C13_4 C 0.17689(12) 0.91625(11) 0.66259(15)
H8_4 H 0.1768 0.8871 0.6848
C14_4 C 0.19904(12) 0.96330(11) 0.69993(14)
H9_4 H 0.2141 0.9661 0.7477
C15_4 C 0.13363(11) 0.86167(11) 0.54857(14)
C19_4 C 0.21552(14) 0.99364(12) 0.98386(15)
C20_4 C 0.17477(14) 0.97593(13) 0.93279(16)
H12_4 H 0.1421 0.9462 0.9439
H13_4 H 0.1545 0.9897 0.8301
O3_4 O 0.02942(9) 0.27798(14) 0.08989(11)
O4_4 O 0.07501(10) 0.23968(15) 0.06800(12)
C22_4 C 0.03816(13) 0.24785(21) 0.05222(16)
Zn3_4 Zn 0.10579(3) 0.29582(4) 0.14710(2)
O2_5 O 0.14149(8) 0.25453(12) 0.48707(11)
C11_5 C 0.04578(12) 0.20045(17) 0.56127(15)
H7_5 H 0.0489 0.1881 0.5136
C12_5 C 0.08867(11) 0.24329(15) 0.59232(14)
C13_5 C 0.08375(11) 0.26063(16) 0.66259(15)
H8_5 H 0.1129 0.2896 0.6848
C14_5 C 0.03670(11) 0.23573(16) 0.69993(14)
H9_5 H 0.0339 0.2479 0.7477
C15_5 C 0.13833(11) 0.27195(16) 0.54857(14)
C19_5 C 0.00636(12) 0.22187(18) 0.98386(15)
C20_5 C 0.02407(13) 0.19883(19) 0.93279(16)
H12_5 H 0.0538 0.1958 0.9439
H13_5 H 0.0103 0.1647 0.8301
Zn1_4 Zn 0.89421(3) 0.70418(2) 0.85290(2)
N1_4 N 0.91953(13) 0.68971(10) 0.75166(12)
N2_4 N 0.86285(13) 0.73484(10) 0.77950(12)
N3_4 N 0.85805(13) 0.75531(10) 0.66336(12)
H1_4 H 0.8621 0.7578 0.6146
O2_6 O 0.74547(12) 0.88695(9) 0.48707(11)
C1_4 C 0.94851(18) 0.66731(14) 0.74148(18)
H2_4 H 0.9576 0.6542 0.7838
C2_4 C 0.96574(21) 0.66235(16) 0.67261(19)
H3_3 H 0.9865 0.6464 0.6675
C3_4 C 0.95235(21) 0.68074(16) 0.61129(18)
H4_4 H 0.9635 0.6773 0.5629
C4_4 C 0.92253(18) 0.70437(14) 0.62006(16)
H5_4 H 0.9132 0.7176 0.5782
C5_4 C 0.90681(16) 0.70818(12) 0.69123(15)
C6_4 C 0.87591(16) 0.73237(12) 0.70925(14)
C7_4 C 0.83577(16) 0.76131(12) 0.77845(14)
C8_4 C 0.83222(16) 0.77454(12) 0.70502(14)
C9_4 C 0.80711(16) 0.80030(12) 0.66850(14)
C10_4 C 0.82459(18) 0.82329(13) 0.59851(16)
H6_4 H 0.8539 0.8237 0.5763
C11_6 C 0.79955(17) 0.84532(12) 0.56127(15)
H7_6 H 0.8119 0.8607 0.5136
C12_6 C 0.75671(15) 0.84537(10) 0.59232(14)
C13_6 C 0.73937(16) 0.82311(12) 0.66259(15)
H8_6 H 0.7104 0.8232 0.6848
C14_6 C 0.76427(16) 0.80096(12) 0.69993(14)
H9_6 H 0.7521 0.7859 0.7477
C15_6 C 0.72805(16) 0.86637(11) 0.54857(14)
C16_4 C 0.81621(17) 0.77066(13) 0.84895(14)
C17_4 C 0.79497(17) 0.73074(13) 0.90182(15)
H10_4 H 0.7937 0.6986 0.8918
C18_4 C 0.77576(18) 0.73761(14) 0.96868(15)
C19_6 C 0.77813(18) 0.78448(14) 0.98386(15)
C20_6 C 0.80117(19) 0.82523(14) 0.93279(16)
H12_6 H 0.8042 0.8579 0.9439
C21_4 C 0.81988(18) 0.81788(13) 0.86524(16)
H13_6 H 0.8353 0.8455 0.8301
O5_4 O 0.84053(14) 0.64705(11) 0.91068(10)
O6_4 O 0.97058(18) 0.72202(14) 0.91011(11)
O7_4 O 0.92499(19) 0.76032(15) 0.93200(12)
H2_5 H 0.0124 0.6367 0.1172
C2_5 C 0.00431(16) 0.63672(13) 0.00595(19)
H3_4 H 0.0202 0.6734 0.0009
N1_5 N 0.97695(10) 0.56315(9) 0.08500(12)
N2_5 N 0.93182(10) 0.46134(9) 0.11284(12)
O3_5 O 0.91523(11) 0.30392(9) 0.42323(11)
O4_5 O 0.83134(11) 0.25833(10) 0.40134(12)
C1_5 C 0.99935(14) 0.61453(12) 0.07482(18)
C5_5 C 0.95848(12) 0.53196(11) 0.02457(15)
C6_5 C 0.93429(12) 0.47687(11) 0.04259(14)
C7_5 C 0.90535(12) 0.40779(11) 0.11179(14)
C8_5 C 0.89212(12) 0.39101(11) 0.03836(14)
C9_5 C 0.86636(12) 0.34014(11) 0.00184(14)
H8_7 H 0.8434 0.2205 0.0182
C14_7 C 0.86570(12) 0.29664(11) 0.03327(14)
H9_7 H 0.8807 0.2995 0.0811
C16_5 C 0.89600(13) 0.37888(11) 0.18229(14)
C17_5 C 0.93592(13) 0.39756(11) 0.23516(15)
H10_5 H 0.9680 0.4284 0.2252
C18_5 C 0.92905(14) 0.37148(12) 0.30202(15)
H11_4 H 0.9565 0.3842 0.3375
C19_7 C 0.88218(14) 0.32698(12) 0.31720(15)
C20_7 C 0.84143(14) 0.30927(13) 0.26613(16)
H12_7 H 0.8087 0.2796 0.2773
C21_5 C 0.84878(13) 0.33533(12) 0.19858(16)
H13_7 H 0.8211 0.3231 0.1635
C22_5 C 0.87636(16) 0.29518(13) 0.38556(16)
Zn3_5 Zn 0.85669(2) 0.22754(3) 0.48043(2)
O6_5 O 0.94465(14) 0.58190(11) 0.24344(11)
O7_5 O 0.90635(15) 0.49801(11) 0.26533(12)
N1_6 N 0.43685(9) 0.41381(13) 0.08500(12)
N2_6 N 0.53866(9) 0.47049(13) 0.11284(12)
O3_6 O 0.69608(9) 0.61132(14) 0.42323(11)
O4_6 O 0.74167(10) 0.57302(15) 0.40134(12)
C1_6 C 0.38547(12) 0.38483(18) 0.07482(18)
H2_6 H 0.3633 0.3758 0.1172
C2_6 C 0.36328(13) 0.36760(21) 0.00595(19)
H3_5 H 0.3266 0.3469 0.0009
C5_6 C 0.46804(11) 0.42653(16) 0.02457(15)
C6_6 C 0.52313(11) 0.45743(16) 0.04259(14)
C7_6 C 0.59221(11) 0.49757(16) 0.11179(14)
C8_6 C 0.60899(11) 0.50112(16) 0.03836(14)
C9_6 C 0.65986(11) 0.52623(16) 0.00184(14)
H8_8 H 0.7795 0.6230 0.0182
C14_8 C 0.70336(11) 0.56907(16) 0.03327(14)
H9_8 H 0.7005 0.5813 0.0811
C16_6 C 0.62112(11) 0.51713(17) 0.18229(14)
C17_6 C 0.60244(11) 0.53837(17) 0.23516(15)
H10_6 H 0.5716 0.5397 0.2252
C18_6 C 0.62852(12) 0.55758(18) 0.30202(15)
H11_5 H 0.6158 0.5724 0.3375
C19_8 C 0.67302(12) 0.55521(18) 0.31720(15)
C20_8 C 0.69073(13) 0.53217(19) 0.26613(16)
H12_8 H 0.7204 0.5292 0.2773
C21_6 C 0.66467(12) 0.51346(18) 0.19858(16)
H13_8 H 0.6769 0.4981 0.1635
C22_6 C 0.70482(13) 0.58119(21) 0.38556(16)
Zn3_6 Zn 0.77246(3) 0.62915(4) 0.48043(2)
O6_6 O 0.41810(11) 0.36275(18) 0.24344(11)
O7_6 O 0.50199(11) 0.40834(19) 0.26533(12)
N3_5 N 0.56393(9) 0.47529(13) 0.99670(12)
H1_5 H 0.5624 0.4713 0.9480
O2_7 O 0.80815(8) 0.58787(12) 0.82041(11)
C3_5 C 0.39506(13) 0.38099(21) 0.94463(18)
H4_5 H 0.3805 0.3699 0.8963
C4_5 C 0.44851(12) 0.41081(18) 0.95340(16)
H5_5 H 0.4711 0.4202 0.9116
C10_5 C 0.66537(12) 0.50875(18) 0.93185(16)
H6_5 H 0.6365 0.4795 0.9097
C11_7 C 0.71244(12) 0.53379(17) 0.89461(15)
H7_7 H 0.7155 0.5215 0.8470
C12_7 C 0.75533(11) 0.57663(15) 0.92566(14)
C13_7 C 0.75041(11) 0.59397(16) 0.99593(15)
C15_7 C 0.80499(11) 0.60529(16) 0.88191(14)
N1_7 N 0.58619(13) 0.02305(10) 0.08500(12)
N2_7 N 0.52951(13) 0.06818(10) 0.11284(12)
O3_7 O 0.38868(14) 0.08477(11) 0.42323(11)
O4_7 O 0.42698(15) 0.16866(11) 0.40134(12)
C1_7 C 0.61517(18) 0.00065(14) 0.07482(18)
C5_7 C 0.57347(16) 0.04152(12) 0.02457(15)
C6_7 C 0.54257(16) 0.06571(12) 0.04259(14)
C7_7 C 0.50243(16) 0.09465(12) 0.11179(14)
C8_7 C 0.49888(16) 0.10788(12) 0.03836(14)
C9_7 C 0.47377(16) 0.13364(12) 0.00184(14)
H8_9 H 0.3770 0.1566 0.0182
C14_9 C 0.43093(16) 0.13430(12) 0.03327(14)
H9_9 H 0.4187 0.1193 0.0811
C16_7 C 0.48287(17) 0.10400(13) 0.18229(14)
C17_7 C 0.46163(17) 0.06408(13) 0.23516(15)
H10_7 H 0.4603 0.0320 0.2252
C18_7 C 0.44242(18) 0.07095(14) 0.30202(15)
H11_6 H 0.4276 0.0435 0.3375
C19_9 C 0.44479(18) 0.11782(14) 0.31720(15)
C20_9 C 0.46783(19) 0.15857(14) 0.26613(16)
H12_9 H 0.4708 0.1913 0.2773
C21_7 C 0.48654(18) 0.15122(13) 0.19858(16)
H13_9 H 0.5019 0.1789 0.1635
C22_7 C 0.41881(21) 0.12364(16) 0.38556(16)
Zn3_7 Zn 0.37085(4) 0.14331(2) 0.48043(2)
O6_7 O 0.63725(18) 0.05535(14) 0.24344(11)
O7_7 O 0.59166(19) 0.09365(15) 0.26533(12)
H2_7 H 0.6242 0.9876 0.1172
C2_7 C 0.63240(21) 0.99569(16) 0.00595(19)
H3_6 H 0.6531 0.9798 0.0009
N1_8 N 0.35638(10) 0.10352(9) 0.58167(12)
N2_8 N 0.40151(10) 0.20533(9) 0.55383(12)
N3_6 N 0.42198(10) 0.23060(9) 0.66997(12)
H1_6 H 0.4245 0.2291 0.7187
O1_4 O 0.52682(8) 0.50720(8) 0.75599(10)
O2_8 O 0.55362(9) 0.47482(8) 0.84626(11)
C1_8 C 0.33398(14) 0.05214(12) 0.59185(18)
H2_8 H 0.3209 0.0300 0.5495
C2_8 C 0.32902(16) 0.02995(13) 0.66072(19)
C3_6 C 0.34741(16) 0.06173(13) 0.72204(18)
H4_6 H 0.3440 0.0472 0.7704
C4_6 C 0.37104(14) 0.11518(12) 0.71327(16)
H5_6 H 0.3843 0.1378 0.7551
C5_8 C 0.37485(12) 0.13471(11) 0.64210(15)
C6_8 C 0.39904(12) 0.18980(11) 0.62408(14)
C7_8 C 0.42798(12) 0.25888(11) 0.55488(14)
C8_8 C 0.44121(12) 0.27566(11) 0.62831(14)
C9_8 C 0.46697(12) 0.32653(11) 0.66483(14)
C10_6 C 0.48996(13) 0.33204(12) 0.73482(16)
H6_6 H 0.4904 0.3032 0.7570
C11_8 C 0.51199(12) 0.37911(12) 0.77206(15)
H7_8 H 0.5274 0.3822 0.8197
C12_8 C 0.51204(10) 0.42200(11) 0.74101(14)
C13_8 C 0.48978(12) 0.41708(11) 0.67074(15)
H8_10 H 0.4899 0.4462 0.6485
C14_10 C 0.46763(12) 0.37003(11) 0.63340(14)
H9_10 H 0.4526 0.3672 0.5856
C15_8 C 0.53304(11) 0.47166(11) 0.78476(14)
C16_8 C 0.43733(13) 0.28779(11) 0.48438(14)
C17_8 C 0.39741(13) 0.26911(11) 0.43151(15)
H10_8 H 0.3653 0.2383 0.4415
C18_8 C 0.40428(14) 0.29519(12) 0.36465(15)
H11_7 H 0.3768 0.2825 0.3292
C19_10 C 0.45115(14) 0.33969(12) 0.34947(15)
C20_10 C 0.49190(14) 0.35740(13) 0.40054(16)
H12_10 H 0.5246 0.3871 0.3894
C21_8 C 0.48455(13) 0.33134(12) 0.46809(16)
H13_10 H 0.5122 0.3436 0.5032
C22_8 C 0.45697(16) 0.37149(13) 0.28111(16)
O5_5 O 0.31371(11) 0.13985(8) 0.42266(10)
N1_9 N 0.89648(9) 0.25286(13) 0.58167(12)
N2_9 N 0.79467(9) 0.19618(13) 0.55383(12)
N3_7 N 0.76940(9) 0.19138(13) 0.66997(12)
H1_7 H 0.7709 0.1954 0.7187
O1_5 O 0.49280(8) 0.01962(11) 0.75599(10)
O2_9 O 0.52518(8) 0.07880(12) 0.84626(11)
C1_9 C 0.94786(12) 0.28184(18) 0.59185(18)
H2_9 H 0.9700 0.2909 0.5495
C2_9 C 0.97005(13) 0.29907(21) 0.66072(19)
C3_7 C 0.93827(13) 0.28568(21) 0.72204(18)
H4_7 H 0.9528 0.2968 0.7704
C4_7 C 0.88482(12) 0.25586(18) 0.71327(16)
H5_7 H 0.8622 0.2465 0.7551
C5_9 C 0.86529(11) 0.24014(16) 0.64210(15)
C6_9 C 0.81020(11) 0.20924(16) 0.62408(14)
C7_9 C 0.74112(11) 0.16910(16) 0.55488(14)
C8_9 C 0.72434(11) 0.16555(16) 0.62831(14)
C9_9 C 0.67347(11) 0.14044(16) 0.66483(14)
C10_7 C 0.66796(12) 0.15792(18) 0.73482(16)
H6_7 H 0.6968 0.1872 0.7570
C11_9 C 0.62089(12) 0.13288(17) 0.77206(15)
H7_9 H 0.6178 0.1452 0.8197
C12_9 C 0.57800(11) 0.09004(15) 0.74101(14)
C13_9 C 0.58292(11) 0.07270(16) 0.67074(15)
H8_11 H 0.5538 0.0437 0.6485
C14_11 C 0.62997(11) 0.09760(16) 0.63340(14)
H9_11 H 0.6328 0.0854 0.5856
C15_9 C 0.52834(11) 0.06138(16) 0.78476(14)
C16_9 C 0.71221(11) 0.14954(17) 0.48438(14)
C17_9 C 0.73089(11) 0.12830(17) 0.43151(15)
H10_9 H 0.7617 0.1270 0.4415
C18_9 C 0.70481(12) 0.10909(18) 0.36465(15)
H11_8 H 0.7175 0.0943 0.3292
C19_11 C 0.66031(12) 0.11146(18) 0.34947(15)
C20_11 C 0.64260(13) 0.13450(19) 0.40054(16)
H12_11 H 0.6129 0.1375 0.3894
C21_9 C 0.66866(12) 0.15321(18) 0.46809(16)
H13_11 H 0.6564 0.1686 0.5032
C22_9 C 0.62851(13) 0.08548(21) 0.28111(16)
O5_6 O 0.86015(8) 0.17387(14) 0.42266(10)
N1_10 N 0.74714(13) 0.64362(10) 0.58167(12)
N2_10 N 0.80382(13) 0.59849(10) 0.55383(12)
N3_8 N 0.80862(13) 0.57802(10) 0.66997(12)
H1_8 H 0.8046 0.5755 0.7187
O1_6 O 0.98038(11) 0.47318(8) 0.75599(10)
O2_10 O 0.92120(12) 0.44638(9) 0.84626(11)
C1_10 C 0.71816(18) 0.66602(14) 0.59185(18)
H2_10 H 0.7091 0.6791 0.5495
C2_10 C 0.70093(21) 0.67098(16) 0.66072(19)
H3_7 H 0.6802 0.6869 0.6658
C3_8 C 0.71432(21) 0.65259(16) 0.72204(18)
H4_8 H 0.7032 0.6560 0.7704
C4_8 C 0.74414(18) 0.62896(14) 0.71327(16)
H5_8 H 0.7535 0.6157 0.7551
C5_10 C 0.75986(16) 0.62515(12) 0.64210(15)
C6_10 C 0.79076(16) 0.60096(12) 0.62408(14)
C7_10 C 0.83090(16) 0.57202(12) 0.55488(14)
C8_10 C 0.83445(16) 0.55879(12) 0.62831(14)
C9_10 C 0.85956(16) 0.53303(12) 0.66483(14)
C10_8 C 0.84208(18) 0.51004(13) 0.73482(16)
H6_8 H 0.8128 0.5096 0.7570
C11_10 C 0.86712(17) 0.48801(12) 0.77206(15)
H7_10 H 0.8548 0.4726 0.8197
C12_10 C 0.90996(15) 0.48796(10) 0.74101(14)
C13_10 C 0.92730(16) 0.51022(12) 0.67074(15)
H8_12 H 0.9563 0.5101 0.6485
C14_12 C 0.90240(16) 0.53237(12) 0.63340(14)
H9_12 H 0.9146 0.5474 0.5856
C15_10 C 0.93862(16) 0.46696(11) 0.78476(14)
C16_10 C 0.85046(17) 0.56267(13) 0.48438(14)
C17_10 C 0.87170(17) 0.60259(13) 0.43151(15)
H10_10 H 0.8730 0.6347 0.4415
C18_10 C 0.89091(18) 0.59572(14) 0.36465(15)
H11_9 H 0.9057 0.6232 0.3292
C19_12 C 0.88854(18) 0.54885(14) 0.34947(15)
C20_12 C 0.86550(19) 0.50810(14) 0.40054(16)
H12_12 H 0.8625 0.4754 0.3894
C21_10 C 0.84679(18) 0.51545(13) 0.46809(16)
H13_12 H 0.8314 0.4878 0.5032
C22_10 C 0.91452(21) 0.54303(16) 0.28111(16)
O5_7 O 0.82613(14) 0.68629(11) 0.42266(10)
O2_11 O 0.88695(9) 0.14149(8) 0.51293(11)
C11_11 C 0.84532(12) 0.04578(12) 0.43873(15)
H7_11 H 0.8607 0.0489 0.4864
C12_11 C 0.84537(10) 0.08867(11) 0.40768(14)
C13_11 C 0.82311(12) 0.08375(11) 0.33741(15)
H8_13 H 0.8232 0.1129 0.3152
C14_13 C 0.80096(12) 0.03670(11) 0.30007(14)
H9_13 H 0.7859 0.0339 0.2523
C15_11 C 0.86637(11) 0.13833(11) 0.45143(14)
C19_13 C 0.78448(14) 0.00636(12) 0.01614(15)
C20_13 C 0.82523(14) 0.02407(13) 0.06721(16)
H12_13 H 0.8579 0.0538 0.0561
H13_13 H 0.8455 0.0103 0.1699
O2_12 O 0.85851(8) 0.74547(12) 0.51293(11)
C11_12 C 0.95422(12) 0.79955(17) 0.43873(15)
H7_12 H 0.9511 0.8119 0.4864
C12_12 C 0.91133(11) 0.75671(15) 0.40768(14)
C13_12 C 0.91625(11) 0.73937(16) 0.33741(15)
H8_14 H 0.8871 0.7104 0.3152
C14_14 C 0.96330(11) 0.76427(16) 0.30007(14)
H9_14 H 0.9661 0.7521 0.2523
C15_12 C 0.86167(11) 0.72805(16) 0.45143(14)
C19_14 C 0.99364(12) 0.77813(18) 0.01614(15)
C20_14 C 0.97593(13) 0.80117(19) 0.06721(16)
H12_14 H 0.9462 0.8042 0.0561
H13_14 H 0.9897 0.8353 0.1699
C22_11 C 0.96184(13) 0.75215(21) 0.94778(16)
N1_11 N 0.08047(13) 0.31029(10) 0.24834(12)
N2_11 N 0.13715(13) 0.26516(10) 0.22050(12)
N3_9 N 0.14195(13) 0.24469(10) 0.33664(12)
H1_9 H 0.1379 0.2422 0.3854
O2_13 O 0.25453(12) 0.11305(9) 0.51293(11)
C1_11 C 0.05149(18) 0.33269(14) 0.25852(18)
H2_11 H 0.0424 0.3458 0.2162
C2_11 C 0.03426(21) 0.33765(16) 0.32739(19)
H3_8 H 0.0135 0.3536 0.3325
C3_9 C 0.04765(21) 0.31926(16) 0.38871(18)
H4_9 H 0.0365 0.3227 0.4371
C4_9 C 0.07747(18) 0.29563(14) 0.37994(16)
H5_9 H 0.0868 0.2824 0.4218
C5_11 C 0.09319(16) 0.29182(12) 0.30877(15)
C6_11 C 0.12409(16) 0.26763(12) 0.29075(14)
C7_11 C 0.16423(16) 0.23869(12) 0.22155(14)
C8_11 C 0.16778(16) 0.22546(12) 0.29498(14)
C9_11 C 0.19289(16) 0.19970(12) 0.33150(14)
C10_9 C 0.17541(18) 0.17671(13) 0.40149(16)
H6_9 H 0.1461 0.1763 0.4237
C11_13 C 0.20045(17) 0.15468(12) 0.43873(15)
H7_13 H 0.1881 0.1393 0.4864
C12_13 C 0.24329(15) 0.15463(10) 0.40768(14)
C13_13 C 0.26063(16) 0.17689(12) 0.33741(15)
H8_15 H 0.2896 0.1768 0.3152
C14_15 C 0.23573(16) 0.19904(12) 0.30007(14)
H9_15 H 0.2479 0.2141 0.2523
C15_13 C 0.27195(16) 0.13363(11) 0.45143(14)
C16_11 C 0.18379(17) 0.22934(13) 0.15105(14)
C17_11 C 0.20503(17) 0.26926(13) 0.09818(15)
H10_11 H 0.2063 0.3014 0.1082
C18_11 C 0.22424(18) 0.26239(14) 0.03132(15)
C19_15 C 0.22187(18) 0.21552(14) 0.01614(15)
C20_15 C 0.19883(19) 0.17477(14) 0.06721(16)
H12_15 H 0.1958 0.1421 0.0561
C21_11 C 0.18012(18) 0.18212(13) 0.13476(16)
H13_15 H 0.1647 0.1545 0.1699
O5_8 O 0.15947(14) 0.35295(11) 0.08932(10)
N1_12 N 0.02305(10) 0.43685(9) 0.91500(12)
N2_12 N 0.06818(10) 0.53866(9) 0.88716(12)
C1_12 C 0.00065(14) 0.38547(12) 0.92518(18)
C5_12 C 0.04152(12) 0.46804(11) 0.97543(15)
C6_12 C 0.06571(12) 0.52313(11) 0.95741(14)
C7_12 C 0.09465(12) 0.59221(11) 0.88821(14)
C8_12 C 0.10788(12) 0.60899(11) 0.96164(14)
C9_12 C 0.13364(12) 0.65986(11) 0.99816(14)
H8_16 H 0.1566 0.7795 0.9818
C14_16 C 0.13430(12) 0.70336(11) 0.96673(14)
H9_16 H 0.1193 0.7005 0.9189
C16_12 C 0.10400(13) 0.62112(11) 0.81771(14)
C17_12 C 0.06408(13) 0.60244(11) 0.76484(15)
H10_12 H 0.0320 0.5716 0.7748
C18_12 C 0.07095(14) 0.62852(12) 0.69798(15)
H11_10 H 0.0435 0.6158 0.6625
C19_16 C 0.11782(14) 0.67302(12) 0.68280(15)
C20_16 C 0.15857(14) 0.69073(13) 0.73387(16)
H12_16 H 0.1913 0.7204 0.7227
C21_12 C 0.15122(13) 0.66467(12) 0.80142(16)
H13_16 H 0.1789 0.6769 0.8365
C22_12 C 0.12364(16) 0.70482(13) 0.61444(16)
H2_12 H 0.9876 0.3633 0.8828
C2_12 C 0.99569(16) 0.36328(13) 0.99405(19)
H3_9 H 0.9798 0.3266 0.9991
N3_10 N 0.43607(9) 0.52471(13) 0.00330(12)
H1_10 H 0.4376 0.5287 0.0520
O2_14 O 0.19185(8) 0.41213(12) 0.17959(11)
C3_10 C 0.60494(13) 0.61901(21) 0.05537(18)
H4_10 H 0.6195 0.6301 0.1037
C4_10 C 0.55149(12) 0.58919(18) 0.04660(16)
H5_10 H 0.5289 0.5798 0.0884
C10_10 C 0.33463(12) 0.49125(18) 0.06815(16)
H6_10 H 0.3635 0.5205 0.0903
C11_14 C 0.28756(12) 0.46621(17) 0.10539(15)
H7_14 H 0.2845 0.4785 0.1530
C12_14 C 0.24467(11) 0.42337(15) 0.07434(14)
C13_14 C 0.24959(11) 0.40603(16) 0.00407(15)
C15_14 C 0.19501(11) 0.39471(16) 0.11809(14)
N1_13 N 0.56315(9) 0.58619(13) 0.91500(12)
N2_13 N 0.46134(9) 0.52951(13) 0.88716(12)
C1_13 C 0.61453(12) 0.61517(18) 0.92518(18)
H2_13 H 0.6367 0.6242 0.8828
C2_13 C 0.63672(13) 0.63240(21) 0.99405(19)
H3_10 H 0.6734 0.6531 0.9991
C5_13 C 0.53196(11) 0.57347(16) 0.97543(15)
C6_13 C 0.47687(11) 0.54257(16) 0.95741(14)
C7_13 C 0.40779(11) 0.50243(16) 0.88821(14)
C8_13 C 0.39101(11) 0.49888(16) 0.96164(14)
C9_13 C 0.34014(11) 0.47377(16) 0.99816(14)
H8_17 H 0.2205 0.3770 0.9818
C14_17 C 0.29664(11) 0.43093(16) 0.96673(14)
H9_17 H 0.2995 0.4187 0.9189
C16_13 C 0.37888(11) 0.48287(17) 0.81771(14)
C17_13 C 0.39756(11) 0.46163(17) 0.76484(15)
H10_13 H 0.4284 0.4603 0.7748
C18_13 C 0.37148(12) 0.44242(18) 0.69798(15)
H11_11 H 0.3842 0.4276 0.6625
C19_17 C 0.32698(12) 0.44479(18) 0.68280(15)
C20_17 C 0.30927(13) 0.46783(19) 0.73387(16)
H12_17 H 0.2796 0.4708 0.7227
C21_13 C 0.33533(12) 0.48654(18) 0.80142(16)
H13_17 H 0.3231 0.5019 0.8365
C22_13 C 0.29518(13) 0.41881(21) 0.61444(16)
H2_14 H 0.3758 0.0124 0.8828
C2_14 C 0.36760(21) 0.00431(16) 0.99405(19)
H3_11 H 0.3469 0.0202 0.9991
N1_14 N 0.41381(13) 0.97695(10) 0.91500(12)
N2_14 N 0.47049(13) 0.93182(10) 0.88716(12)
C1_14 C 0.38483(18) 0.99935(14) 0.92518(18)
C5_14 C 0.42653(16) 0.95848(12) 0.97543(15)
C6_14 C 0.45743(16) 0.93429(12) 0.95741(14)
C7_14 C 0.49757(16) 0.90535(12) 0.88821(14)
C8_14 C 0.50112(16) 0.89212(12) 0.96164(14)
C9_14 C 0.52623(16) 0.86636(12) 0.99816(14)
H8_18 H 0.6230 0.8434 0.9818
C14_18 C 0.56907(16) 0.86570(12) 0.96673(14)
H9_18 H 0.5813 0.8807 0.9189
C16_14 C 0.51713(17) 0.89600(13) 0.81771(14)
C17_14 C 0.53837(17) 0.93592(13) 0.76484(15)
H10_14 H 0.5397 0.9680 0.7748
C18_14 C 0.55758(18) 0.92905(14) 0.69798(15)
H11_12 H 0.5724 0.9565 0.6625
C19_18 C 0.55521(18) 0.88218(14) 0.68280(15)
C20_18 C 0.53217(19) 0.84143(14) 0.73387(16)
H12_18 H 0.5292 0.8087 0.7227
C21_14 C 0.51346(18) 0.84878(13) 0.80142(16)
H13_18 H 0.4981 0.8211 0.8365
C22_14 C 0.58119(21) 0.87636(16) 0.61444(16)
H3_12 H 0.9933 0.6802 0.3342
H11_13 H 0.2899 0.0508 0.0041
Zn1_5 Zn 0.29582(2) 0.19002(2) 0.85290(2)
N1_15 N 0.31029(10) 0.22981(9) 0.75166(12)
N2_15 N 0.26516(10) 0.12800(9) 0.77950(12)
N3_11 N 0.24469(10) 0.10273(9) 0.66336(12)
H1_11 H 0.2422 0.1042 0.6146
C1_15 C 0.33269(14) 0.28119(12) 0.74148(18)
H2_15 H 0.3458 0.3033 0.7838
C2_15 C 0.33765(16) 0.30338(13) 0.67261(19)
H3_13 H 0.3536 0.3400 0.6675
C3_11 C 0.31926(16) 0.27160(13) 0.61129(18)
H4_11 H 0.3227 0.2861 0.5629
C4_11 C 0.29563(14) 0.21815(12) 0.62006(16)
H5_11 H 0.2824 0.1955 0.5782
C5_15 C 0.29182(12) 0.19862(11) 0.69123(15)
C6_15 C 0.26763(12) 0.14353(11) 0.70925(14)
C7_15 C 0.23869(12) 0.07445(11) 0.77845(14)
C8_15 C 0.22546(12) 0.05767(11) 0.70502(14)
C9_15 C 0.19970(12) 0.00680(11) 0.66850(14)
C10_11 C 0.17671(13) 0.00129(12) 0.59851(16)
H6_11 H 0.1763 0.0301 0.5763
C16_15 C 0.22934(13) 0.04554(11) 0.84895(14)
C17_15 C 0.26926(13) 0.06422(11) 0.90182(15)
H10_15 H 0.3014 0.0950 0.8918
C18_15 C 0.26239(14) 0.03814(12) 0.96868(15)
C21_15 C 0.18212(13) 0.00199(12) 0.86524(16)
O5_9 O 0.35295(11) 0.19349(8) 0.91068(10)
O6_8 O 0.27798(14) 0.24857(11) 0.91011(11)
O7_8 O 0.23968(15) 0.16468(11) 0.93200(12)
N3_12 N 0.52471(13) 0.08865(10) 0.99670(12)
H1_12 H 0.5287 0.0912 0.9480
O2_15 O 0.41213(12) 0.22029(9) 0.82041(11)
C3_12 C 0.61901(21) 0.01408(16) 0.94463(18)
H4_12 H 0.6301 0.0107 0.8963
C4_12 C 0.58919(18) 0.03771(14) 0.95340(16)
H5_12 H 0.5798 0.0510 0.9116
C10_12 C 0.49125(18) 0.15663(13) 0.93185(16)
H6_12 H 0.5205 0.1571 0.9097
C11_15 C 0.46621(17) 0.17866(12) 0.89461(15)
H7_15 H 0.4785 0.1941 0.8470
C12_15 C 0.42337(15) 0.17871(10) 0.92566(14)
C13_15 C 0.40603(16) 0.15645(12) 0.99593(15)
C15_15 C 0.39471(16) 0.19971(11) 0.88191(14)
H11_14 H 0.2390 0.2899 0.9959
C22_15 C 0.24785(21) 0.20970(16) 0.94778(16)
O3_8 O 0.24857(11) 0.97058(9) 0.08989(11)
O4_8 O 0.16468(11) 0.92499(10) 0.06800(12)
C22_16 C 0.20970(16) 0.96184(13) 0.05222(16)
Zn3_8 Zn 0.19002(2) 0.89421(3) 0.14710(2)
N1_16 N 0.22981(9) 0.91953(13) 0.24834(12)
N2_16 N 0.12800(9) 0.86285(13) 0.22050(12)
N3_13 N 0.10273(9) 0.85805(13) 0.33664(12)
H1_13 H 0.1042 0.8621 0.3854
C1_16 C 0.28119(12) 0.94851(18) 0.25852(18)
H2_16 H 0.3033 0.9576 0.2162
C2_16 C 0.30338(13) 0.96574(21) 0.32739(19)
H3_14 H 0.3400 0.9865 0.3325
C3_13 C 0.27160(13) 0.95235(21) 0.38871(18)
H4_13 H 0.2861 0.9635 0.4371
C4_13 C 0.21815(12) 0.92253(18) 0.37994(16)
H5_13 H 0.1955 0.9132 0.4218
C5_16 C 0.19862(11) 0.90681(16) 0.30877(15)
C6_16 C 0.14353(11) 0.87591(16) 0.29075(14)
C7_16 C 0.07445(11) 0.83577(16) 0.22155(14)
C8_16 C 0.05767(11) 0.83222(16) 0.29498(14)
C9_16 C 0.00680(11) 0.80711(16) 0.33150(14)
C10_13 C 0.00129(12) 0.82459(18) 0.40149(16)
H6_13 H 0.0301 0.8539 0.4237
C16_16 C 0.04554(11) 0.81621(17) 0.15105(14)
C17_16 C 0.06422(11) 0.79497(17) 0.09818(15)
H10_16 H 0.0950 0.7937 0.1082
C18_16 C 0.03814(12) 0.77576(18) 0.03132(15)
C21_16 C 0.00199(12) 0.81988(18) 0.13476(16)
O5_10 O 0.19349(8) 0.84053(14) 0.08932(10)
N3_14 N 0.08865(10) 0.56393(9) 0.00330(12)
H1_14 H 0.0912 0.5624 0.0520
O2_16 O 0.22029(9) 0.80815(8) 0.17959(11)
C3_14 C 0.01408(16) 0.39506(13) 0.05537(18)
H4_14 H 0.0107 0.3805 0.1037
C4_14 C 0.03771(14) 0.44851(12) 0.04660(16)
H5_14 H 0.0510 0.4711 0.0884
C10_14 C 0.15663(13) 0.66537(12) 0.06815(16)
H6_14 H 0.1571 0.6365 0.0903
C11_16 C 0.17866(12) 0.71244(12) 0.10539(15)
H7_16 H 0.1941 0.7155 0.1530
C12_16 C 0.17871(10) 0.75533(11) 0.07434(14)
C13_16 C 0.15645(12) 0.75041(11) 0.00407(15)
C15_16 C 0.19971(11) 0.80499(11) 0.11809(14)
H11_15 H 0.9492 0.2390 0.0041
Zn1_6 Zn 0.80998(2) 0.10579(3) 0.85290(2)
N1_17 N 0.77019(9) 0.08047(13) 0.75166(12)
N2_17 N 0.87200(9) 0.13715(13) 0.77950(12)
N3_15 N 0.89727(9) 0.14195(13) 0.66336(12)
H1_15 H 0.8958 0.1379 0.6146
C1_17 C 0.71881(12) 0.05149(18) 0.74148(18)
H2_17 H 0.6967 0.0424 0.7838
C2_17 C 0.69662(13) 0.03426(21) 0.67261(19)
H3_15 H 0.6600 0.0135 0.6675
C3_15 C 0.72840(13) 0.04765(21) 0.61129(18)
H4_15 H 0.7139 0.0365 0.5629
C4_15 C 0.78185(12) 0.07747(18) 0.62006(16)
H5_15 H 0.8045 0.0868 0.5782
C5_17 C 0.80138(11) 0.09319(16) 0.69123(15)
C6_17 C 0.85647(11) 0.12409(16) 0.70925(14)
C7_17 C 0.92555(11) 0.16423(16) 0.77845(14)
C8_17 C 0.94233(11) 0.16778(16) 0.70502(14)
C9_17 C 0.99320(11) 0.19289(16) 0.66850(14)
C10_15 C 0.99871(12) 0.17541(18) 0.59851(16)
H6_15 H 0.9699 0.1461 0.5763
C16_17 C 0.95446(11) 0.18379(17) 0.84895(14)
C17_17 C 0.93578(11) 0.20503(17) 0.90182(15)
H10_17 H 0.9050 0.2063 0.8918
C18_17 C 0.96186(12) 0.22424(18) 0.96868(15)
C21_17 C 0.99801(12) 0.18012(18) 0.86524(16)
O5_11 O 0.80651(8) 0.15947(14) 0.91068(10)
O6_9 O 0.75143(11) 0.02942(18) 0.91011(11)
O7_9 O 0.83532(11) 0.07501(19) 0.93200(12)
N3_16 N 0.91135(10) 0.43607(9) 0.99670(12)
H1_16 H 0.9088 0.4376 0.9480
O2_17 O 0.77971(9) 0.19185(8) 0.82041(11)
C3_16 C 0.98592(16) 0.60494(13) 0.94463(18)
H4_16 H 0.9893 0.6195 0.8963
C4_16 C 0.96229(14) 0.55149(12) 0.95340(16)
H5_16 H 0.9490 0.5289 0.9116
C10_16 C 0.84337(13) 0.33463(12) 0.93185(16)
H6_16 H 0.8429 0.3635 0.9097
C11_17 C 0.82134(12) 0.28756(12) 0.89461(15)
H7_17 H 0.8059 0.2845 0.8470
C12_17 C 0.82129(10) 0.24467(11) 0.92566(14)
C13_17 C 0.84355(12) 0.24959(11) 0.99593(15)
C15_17 C 0.80029(11) 0.19501(11) 0.88191(14)
C22_17 C 0.79030(16) 0.03816(13) 0.94778(16)
O3_9 O 0.72202(14) 0.75143(11) 0.08989(11)
O4_9 O 0.76032(15) 0.83532(11) 0.06800(12)
H11_16 H 0.7610 0.7101 0.0041
C22_18 C 0.75215(21) 0.79030(16) 0.05222(16)
Zn3_9 Zn 0.70418(4) 0.80998(2) 0.14710(2)
N1_18 N 0.68971(10) 0.77019(9) 0.24834(12)
N2_18 N 0.73484(10) 0.87200(9) 0.22050(12)
N3_17 N 0.75531(10) 0.89727(9) 0.33664(12)
H1_17 H 0.7578 0.8958 0.3854
C1_18 C 0.66731(14) 0.71881(12) 0.25852(18)
H2_18 H 0.6542 0.6967 0.2162
C2_18 C 0.66235(16) 0.69662(13) 0.32739(19)
H3_16 H 0.6464 0.6600 0.3325
C3_17 C 0.68074(16) 0.72840(13) 0.38871(18)
H4_17 H 0.6773 0.7139 0.4371
C4_17 C 0.70437(14) 0.78185(12) 0.37994(16)
H5_17 H 0.7176 0.8045 0.4218
C5_18 C 0.70818(12) 0.80138(11) 0.30877(15)
C6_18 C 0.73237(12) 0.85647(11) 0.29075(14)
C7_18 C 0.76131(12) 0.92555(11) 0.22155(14)
C8_18 C 0.77454(12) 0.94233(11) 0.29498(14)
C9_18 C 0.80030(12) 0.99320(11) 0.33150(14)
C10_17 C 0.82329(13) 0.99871(12) 0.40149(16)
H6_17 H 0.8237 0.9699 0.4237
C16_18 C 0.77066(13) 0.95446(11) 0.15105(14)
C17_18 C 0.73074(13) 0.93578(11) 0.09818(15)
H10_18 H 0.6986 0.9050 0.1082
C18_18 C 0.73761(14) 0.96186(12) 0.03132(15)
C21_18 C 0.81788(13) 0.99801(12) 0.13476(16)
O5_12 O 0.64705(11) 0.80651(8) 0.08932(10)
N3_18 N 0.47529(13) 0.91135(10) 0.00330(12)
H1_18 H 0.4713 0.9088 0.0520
O2_18 O 0.58787(12) 0.77971(9) 0.17959(11)
C3_18 C 0.38099(21) 0.98592(16) 0.05537(18)
H4_18 H 0.3699 0.9893 0.1037
C4_18 C 0.41081(18) 0.96229(14) 0.04660(16)
H5_18 H 0.4202 0.9490 0.0884
C10_18 C 0.50875(18) 0.84337(13) 0.06815(16)
H6_18 H 0.4795 0.8429 0.0903
C11_18 C 0.53379(17) 0.82134(12) 0.10539(15)
H7_18 H 0.5215 0.8059 0.1530
C12_18 C 0.57663(15) 0.82129(10) 0.07434(14)
C13_18 C 0.59397(16) 0.84355(12) 0.00407(15)
C15_18 C 0.60529(16) 0.80029(11) 0.11809(14)
H3_17 H 0.3131 0.9933 0.6658
H3_18 H 0.0067 0.3198 0.6658
H11_17 H 0.7101 0.9492 0.9959
H11_18 H 0.0508 0.7610 0.9959
loop_
_geom_bond_atom_site_label_1
_geom_bond_atom_site_label_2
_geom_bond_site_symmetry_1
_geom_bond_site_symmetry_2
Zn1 N1 1_555 1_555
N1 C1 1_555 1_555
N2 Zn1 1_555 1_555
N3 H1 1_555 1_555
O1 C15 1_555 1_555
O2 C15 1_555 1_555
O3 C22 1_555 1_555
O4 C22 1_555 1_555
C1 H2 1_555 1_555
C2 C1 1_555 1_555
C3 C2 1_555 1_555
H4 C3 1_555 1_555
C4 C3 1_555 1_555
H5 C4 1_555 1_555
C5 N1 1_555 1_555
C6 N2 1_555 1_555
C7 N2 1_555 1_555
C8 N3 1_555 1_555
C9 C8 1_555 1_555
C10 C9 1_555 1_555
H6 C10 1_555 1_555
C11 C10 1_555 1_555
H7 C11 1_555 1_555
C12 C11 1_555 1_555
C13 C12 1_555 1_555
H8 C13 1_555 1_555
C14 C9 1_555 1_555
H9 C14 1_555 1_555
C15 C12 1_555 1_555
C16 C7 1_555 1_555
C17 C16 1_555 1_555
H10 C17 1_555 1_555
C18 C17 1_555 1_555
H11 C18 1_555 1_555
C19 C18 1_555 1_555
C20 C19 1_555 1_555
H12 C20 1_555 1_555
C21 C16 1_555 1_555
H13 C21 1_555 1_555
C22 C19 1_555 1_555
Zn2 O1 1_555 1_555
Zn3 O3 1_555 1_555
O5 Zn1 1_555 1_555
O6 Zn1 1_555 1_555
O7 Zn1 1_555 1_555
N3 C6 1_555 1_555
O4 Zn3 1_555 1_555
C4 C5 1_555 1_555
C5 C6 1_555 1_555
C7 C8 1_555 1_555
C13 C14 1_555 1_555
C20 C21 1_555 1_555
Zn1_2 N1_2 1_555 1_555
N1_2 C1_2 1_555 1_555
N2_2 Zn1_2 1_555 1_555
N3_2 H1_2 1_555 1_555
O1_2 C15_2 1_555 1_555
O2_2 C15_2 1_555 1_555
O3_2 C22_2 1_555 1_555
O4_2 C22_2 1_555 1_555
C1_2 H2_2 1_555 1_555
C2_2 C1_2 1_555 1_555
C3_2 C2_2 1_555 1_555
H4_2 C3_2 1_555 1_555
C4_2 C3_2 1_555 1_555
H5_2 C4_2 1_555 1_555
C5_2 N1_2 1_555 1_555
C6_2 N2_2 1_555 1_555
C7_2 N2_2 1_555 1_555
C8_2 N3_2 1_555 1_555
C9_2 C8_2 1_555 1_555
C10_2 C9_2 1_555 1_555
H6_2 C10_2 1_555 1_555
C11_2 C10_2 1_555 1_555
H7_2 C11_2 1_555 1_555
C12_2 C11_2 1_555 1_555
C13_2 C12_2 1_555 1_555
H8_2 C13_2 1_555 1_555
C14_2 C9_2 1_555 1_555
H9_2 C14_2 1_555 1_555
C15_2 C12_2 1_555 1_555
C16_2 C7_2 1_555 1_555
C17_2 C16_2 1_555 1_555
H10_2 C17_2 1_555 1_555
C18_2 C17_2 1_555 1_555
H11_2 C18_2 1_555 1_555
C19_2 C18_2 1_555 1_555
C20_2 C19_2 1_555 1_555
H12_2 C20_2 1_555 1_555
C21_2 C16_2 1_555 1_555
H13_2 C21_2 1_555 1_555
C22_2 C19_2 1_555 1_555
Zn3_2 O3_2 1_555 1_555
O5_2 Zn1_2 1_555 1_555
O6_2 Zn1_2 1_555 1_555
O7_2 Zn1_2 1_555 1_555
N3_2 C6_2 1_555 1_555
O4_2 Zn3_2 1_555 1_555
C4_2 C5_2 1_555 1_555
C5_2 C6_2 1_555 1_555
C7_2 C8_2 1_555 1_555
C13_2 C14_2 1_555 1_555
C20_2 C21_2 1_555 1_555
Zn1_3 N1_3 1_555 1_555
N1_3 C1_3 1_555 1_555
N2_3 Zn1_3 1_555 1_555
N3_3 H1_3 1_555 1_555
O1_3 C15_3 1_555 1_555
O2_3 C15_3 1_555 1_555
O3_3 C22_3 1_555 1_555
O4_3 C22_3 1_555 1_555
C1_3 H2_3 1_555 1_555
C2_3 C1_3 1_555 1_555
H3_2 C2_3 1_555 1_555
C3_3 C2_3 1_555 1_555
H4_3 C3_3 1_555 1_555
C4_3 C3_3 1_555 1_555
H5_3 C4_3 1_555 1_555
C5_3 N1_3 1_555 1_555
C6_3 N2_3 1_555 1_555
C7_3 N2_3 1_555 1_555
C8_3 N3_3 1_555 1_555
C9_3 C8_3 1_555 1_555
C10_3 C9_3 1_555 1_555
H6_3 C10_3 1_555 1_555
C11_3 C10_3 1_555 1_555
H7_3 C11_3 1_555 1_555
C12_3 C11_3 1_555 1_555
C13_3 C12_3 1_555 1_555
H8_3 C13_3 1_555 1_555
C14_3 C9_3 1_555 1_555
H9_3 C14_3 1_555 1_555
C15_3 C12_3 1_555 1_555
C16_3 C7_3 1_555 1_555
C17_3 C16_3 1_555 1_555
H10_3 C17_3 1_555 1_555
C18_3 C17_3 1_555 1_555
H11_3 C18_3 1_555 1_555
C19_3 C18_3 1_555 1_555
C20_3 C19_3 1_555 1_555
H12_3 C20_3 1_555 1_555
C21_3 C16_3 1_555 1_555
H13_3 C21_3 1_555 1_555
C22_3 C19_3 1_555 1_555
Zn3_3 O3_3 1_555 1_555
O5_3 Zn1_3 1_555 1_555
O6_3 Zn1_3 1_555 1_555
O7_3 Zn1_3 1_555 1_555
N3_3 C6_3 1_555 1_555
O4_3 Zn3_3 1_555 1_555
C4_3 C5_3 1_555 1_555
C5_3 C6_3 1_555 1_555
C7_3 C8_3 1_555 1_555
C13_3 C14_3 1_555 1_555
C20_3 C21_3 1_555 1_555
O5_2 C15_4 1_555 1_555
O2_4 C15_4 1_555 1_555
H7_4 C11_4 1_555 1_555
C12_4 C11_4 1_555 1_555
C13_4 C12_4 1_555 1_555
H8_4 C13_4 1_555 1_555
H9_4 C14_4 1_555 1_555
C15_4 C12_4 1_555 1_555
C20_4 C19_4 1_555 1_555
H12_4 C20_4 1_555 1_555
C13_4 C14_4 1_555 1_555
O3_4 C22_4 1_555 1_555
O4_4 C22_4 1_555 1_555
Zn3_4 O3_4 1_555 1_555
O4_4 Zn3_4 1_555 1_555
O5_3 C15_5 1_555 1_555
O2_5 C15_5 1_555 1_555
H7_5 C11_5 1_555 1_555
C12_5 C11_5 1_555 1_555
C13_5 C12_5 1_555 1_555
H8_5 C13_5 1_555 1_555
H9_5 C14_5 1_555 1_555
C15_5 C12_5 1_555 1_555
C20_5 C19_5 1_555 1_555
H12_5 C20_5 1_555 1_555
C13_5 C14_5 1_555 1_555
Zn1_4 N1_4 1_555 1_555
N1_4 C1_4 1_555 1_555
N2_4 Zn1_4 1_555 1_555
N3_4 H1_4 1_555 1_555
O5 C15_6 1_555 1_555
O2_6 C15_6 1_555 1_555
C1_4 H2_4 1_555 1_555
C2_4 C1_4 1_555 1_555
H3_3 C2_4 1_555 1_555
C3_4 C2_4 1_555 1_555
H4_4 C3_4 1_555 1_555
C4_4 C3_4 1_555 1_555
H5_4 C4_4 1_555 1_555
C5_4 N1_4 1_555 1_555
C6_4 N2_4 1_555 1_555
C7_4 N2_4 1_555 1_555
C8_4 N3_4 1_555 1_555
C9_4 C8_4 1_555 1_555
C10_4 C9_4 1_555 1_555
H6_4 C10_4 1_555 1_555
C11_6 C10_4 1_555 1_555
H7_6 C11_6 1_555 1_555
C12_6 C11_6 1_555 1_555
C13_6 C12_6 1_555 1_555
H8_6 C13_6 1_555 1_555
C14_6 C9_4 1_555 1_555
H9_6 C14_6 1_555 1_555
C15_6 C12_6 1_555 1_555
C16_4 C7_4 1_555 1_555
C17_4 C16_4 1_555 1_555
H10_4 C17_4 1_555 1_555
C18_4 C17_4 1_555 1_555
C19_6 C18_4 1_555 1_555
C20_6 C19_6 1_555 1_555
H12_6 C20_6 1_555 1_555
C21_4 C16_4 1_555 1_555
H13_6 C21_4 1_555 1_555
O5_4 Zn1_4 1_555 1_555
O6_4 Zn1_4 1_555 1_555
O7_4 Zn1_4 1_555 1_555
N3_4 C6_4 1_555 1_555
C4_4 C5_4 1_555 1_555
C5_4 C6_4 1_555 1_555
C7_4 C8_4 1_555 1_555
C13_6 C14_6 1_555 1_555
C20_6 C21_4 1_555 1_555
H3_4 C2_5 1_555 1_555
Zn2_3 N1_5 1_555 1_555
N1_5 C1_5 1_555 1_555
N2_5 Zn2_3 1_555 1_555
O3_5 C22_5 1_555 1_555
O4_5 C22_5 1_555 1_555
C5_5 N1_5 1_555 1_555
C6_5 N2_5 1_555 1_555
C7_5 N2_5 1_555 1_555
C9_5 C8_5 1_555 1_555
C14_7 C9_5 1_555 1_555
H9_7 C14_7 1_555 1_555
C16_5 C7_5 1_555 1_555
C17_5 C16_5 1_555 1_555
H10_5 C17_5 1_555 1_555
C18_5 C17_5 1_555 1_555
H11_4 C18_5 1_555 1_555
C19_7 C18_5 1_555 1_555
C20_7 C19_7 1_555 1_555
H12_7 C20_7 1_555 1_555
C21_5 C16_5 1_555 1_555
H13_7 C21_5 1_555 1_555
C22_5 C19_7 1_555 1_555
Zn3_5 O3_5 1_555 1_555
O6_5 Zn2_3 1_555 1_555
O7_5 Zn2_3 1_555 1_555
O4_5 Zn3_5 1_555 1_555
C5_5 C6_5 1_555 1_555
C7_5 C8_5 1_555 1_555
C20_7 C21_5 1_555 1_555
Zn2 N1_6 1_555 1_555
N1_6 C1_6 1_555 1_555
N2_6 Zn2 1_555 1_555
O3_6 C22_6 1_555 1_555
O4_6 C22_6 1_555 1_555
C1_6 H2_6 1_555 1_555
C2_6 C1_6 1_555 1_555
H3_5 C2_6 1_555 1_555
C5_6 N1_6 1_555 1_555
C6_6 N2_6 1_555 1_555
C7_6 N2_6 1_555 1_555
C9_6 C8_6 1_555 1_555
C14_8 C9_6 1_555 1_555
H9_8 C14_8 1_555 1_555
C16_6 C7_6 1_555 1_555
C17_6 C16_6 1_555 1_555
H10_6 C17_6 1_555 1_555
C18_6 C17_6 1_555 1_555
H11_5 C18_6 1_555 1_555
C19_8 C18_6 1_555 1_555
C20_8 C19_8 1_555 1_555
H12_8 C20_8 1_555 1_555
C21_6 C16_6 1_555 1_555
H13_8 C21_6 1_555 1_555
C22_6 C19_8 1_555 1_555
Zn3_6 O3_6 1_555 1_555
O6_6 Zn2 1_555 1_555
O7_6 Zn2 1_555 1_555
O4_6 Zn3_6 1_555 1_555
C5_6 C6_6 1_555 1_555
C7_6 C8_6 1_555 1_555
C20_8 C21_6 1_555 1_555
N3_5 H1_5 1_555 1_555
O5_4 C15_7 1_555 1_555
O2_7 C15_7 1_555 1_555
H4_5 C3_5 1_555 1_555
C4_5 C3_5 1_555 1_555
H5_5 C4_5 1_555 1_555
H6_5 C10_5 1_555 1_555
C11_7 C10_5 1_555 1_555
H7_7 C11_7 1_555 1_555
C12_7 C11_7 1_555 1_555
C13_7 C12_7 1_555 1_555
C15_7 C12_7 1_555 1_555
Zn2_2 N1_7 1_555 1_555
N1_7 C1_7 1_555 1_555
N2_7 Zn2_2 1_555 1_555
O3_7 C22_7 1_555 1_555
O4_7 C22_7 1_555 1_555
C5_7 N1_7 1_555 1_555
C6_7 N2_7 1_555 1_555
C7_7 N2_7 1_555 1_555
C9_7 C8_7 1_555 1_555
C14_9 C9_7 1_555 1_555
H9_9 C14_9 1_555 1_555
C16_7 C7_7 1_555 1_555
C17_7 C16_7 1_555 1_555
H10_7 C17_7 1_555 1_555
C18_7 C17_7 1_555 1_555
H11_6 C18_7 1_555 1_555
C19_9 C18_7 1_555 1_555
C20_9 C19_9 1_555 1_555
H12_9 C20_9 1_555 1_555
C21_7 C16_7 1_555 1_555
H13_9 C21_7 1_555 1_555
C22_7 C19_9 1_555 1_555
Zn3_7 O3_7 1_555 1_555
O6_7 Zn2_2 1_555 1_555
O7_7 Zn2_2 1_555 1_555
O4_7 Zn3_7 1_555 1_555
C5_7 C6_7 1_555 1_555
C7_7 C8_7 1_555 1_555
C20_9 C21_7 1_555 1_555
H3_6 C2_7 1_555 1_555
Zn3_7 N1_8 1_555 1_555
N1_8 C1_8 1_555 1_555
N2_8 Zn3_7 1_555 1_555
N3_6 H1_6 1_555 1_555
O1_4 C15_8 1_555 1_555
O2_8 C15_8 1_555 1_555
O6_6 C22_8 1_555 1_555
O7_6 C22_8 1_555 1_555
C1_8 H2_8 1_555 1_555
C2_8 C1_8 1_555 1_555
C3_6 C2_8 1_555 1_555
H4_6 C3_6 1_555 1_555
C4_6 C3_6 1_555 1_555
H5_6 C4_6 1_555 1_555
C5_8 N1_8 1_555 1_555
C6_8 N2_8 1_555 1_555
C7_8 N2_8 1_555 1_555
C8_8 N3_6 1_555 1_555
C9_8 C8_8 1_555 1_555
C10_6 C9_8 1_555 1_555
H6_6 C10_6 1_555 1_555
C11_8 C10_6 1_555 1_555
H7_8 C11_8 1_555 1_555
C12_8 C11_8 1_555 1_555
C13_8 C12_8 1_555 1_555
H8_10 C13_8 1_555 1_555
C14_10 C9_8 1_555 1_555
H9_10 C14_10 1_555 1_555
C15_8 C12_8 1_555 1_555
C16_8 C7_8 1_555 1_555
C17_8 C16_8 1_555 1_555
H10_8 C17_8 1_555 1_555
C18_8 C17_8 1_555 1_555
H11_7 C18_8 1_555 1_555
C19_10 C18_8 1_555 1_555
C20_10 C19_10 1_555 1_555
H12_10 C20_10 1_555 1_555
C21_8 C16_8 1_555 1_555
H13_10 C21_8 1_555 1_555
C22_8 C19_10 1_555 1_555
Zn3 O1_4 1_555 1_555
O5_5 Zn3_7 1_555 1_555
N3_6 C6_8 1_555 1_555
C4_6 C5_8 1_555 1_555
C5_8 C6_8 1_555 1_555
C7_8 C8_8 1_555 1_555
C13_8 C14_10 1_555 1_555
C20_10 C21_8 1_555 1_555
Zn3_5 N1_9 1_555 1_555
N1_9 C1_9 1_555 1_555
N2_9 Zn3_5 1_555 1_555
N3_7 H1_7 1_555 1_555
O1_5 C15_9 1_555 1_555
O2_9 C15_9 1_555 1_555
O6_7 C22_9 1_555 1_555
O7_7 C22_9 1_555 1_555
C1_9 H2_9 1_555 1_555
C2_9 C1_9 1_555 1_555
C3_7 C2_9 1_555 1_555
H4_7 C3_7 1_555 1_555
C4_7 C3_7 1_555 1_555
H5_7 C4_7 1_555 1_555
C5_9 N1_9 1_555 1_555
C6_9 N2_9 1_555 1_555
C7_9 N2_9 1_555 1_555
C8_9 N3_7 1_555 1_555
C9_9 C8_9 1_555 1_555
C10_7 C9_9 1_555 1_555
H6_7 C10_7 1_555 1_555
C11_9 C10_7 1_555 1_555
H7_9 C11_9 1_555 1_555
C12_9 C11_9 1_555 1_555
C13_9 C12_9 1_555 1_555
H8_11 C13_9 1_555 1_555
C14_11 C9_9 1_555 1_555
H9_11 C14_11 1_555 1_555
C15_9 C12_9 1_555 1_555
C16_9 C7_9 1_555 1_555
C17_9 C16_9 1_555 1_555
H10_9 C17_9 1_555 1_555
C18_9 C17_9 1_555 1_555
H11_8 C18_9 1_555 1_555
C19_11 C18_9 1_555 1_555
C20_11 C19_11 1_555 1_555
H12_11 C20_11 1_555 1_555
C21_9 C16_9 1_555 1_555
H13_11 C21_9 1_555 1_555
C22_9 C19_11 1_555 1_555
O5_6 Zn3_5 1_555 1_555
N3_7 C6_9 1_555 1_555
C4_7 C5_9 1_555 1_555
C5_9 C6_9 1_555 1_555
C7_9 C8_9 1_555 1_555
C13_9 C14_11 1_555 1_555
C20_11 C21_9 1_555 1_555
Zn3_6 N1_10 1_555 1_555
N1_10 C1_10 1_555 1_555
N2_10 Zn3_6 1_555 1_555
N3_8 H1_8 1_555 1_555
O1_6 C15_10 1_555 1_555
O2_10 C15_10 1_555 1_555
O6_5 C22_10 1_555 1_555
O7_5 C22_10 1_555 1_555
C1_10 H2_10 1_555 1_555
C2_10 C1_10 1_555 1_555
H3_7 C2_10 1_555 1_555
C3_8 C2_10 1_555 1_555
H4_8 C3_8 1_555 1_555
C4_8 C3_8 1_555 1_555
H5_8 C4_8 1_555 1_555
C5_10 N1_10 1_555 1_555
C6_10 N2_10 1_555 1_555
C7_10 N2_10 1_555 1_555
C8_10 N3_8 1_555 1_555
C9_10 C8_10 1_555 1_555
C10_8 C9_10 1_555 1_555
H6_8 C10_8 1_555 1_555
C11_10 C10_8 1_555 1_555
H7_10 C11_10 1_555 1_555
C12_10 C11_10 1_555 1_555
C13_10 C12_10 1_555 1_555
H8_12 C13_10 1_555 1_555
C14_12 C9_10 1_555 1_555
H9_12 C14_12 1_555 1_555
C15_10 C12_10 1_555 1_555
C16_10 C7_10 1_555 1_555
C17_10 C16_10 1_555 1_555
H10_10 C17_10 1_555 1_555
C18_10 C17_10 1_555 1_555
H11_9 C18_10 1_555 1_555
C19_12 C18_10 1_555 1_555
C20_12 C19_12 1_555 1_555
H12_12 C20_12 1_555 1_555
C21_10 C16_10 1_555 1_555
H13_12 C21_10 1_555 1_555
C22_10 C19_12 1_555 1_555
O5_7 Zn3_6 1_555 1_555
N3_8 C6_10 1_555 1_555
C4_8 C5_10 1_555 1_555
C5_10 C6_10 1_555 1_555
C7_10 C8_10 1_555 1_555
C13_10 C14_12 1_555 1_555
C20_12 C21_10 1_555 1_555
O5_6 C15_11 1_555 1_555
O2_11 C15_11 1_555 1_555
H7_11 C11_11 1_555 1_555
C12_11 C11_11 1_555 1_555
C13_11 C12_11 1_555 1_555
H8_13 C13_11 1_555 1_555
H9_13 C14_13 1_555 1_555
C15_11 C12_11 1_555 1_555
C20_13 C19_13 1_555 1_555
H12_13 C20_13 1_555 1_555
C13_11 C14_13 1_555 1_555
O5_7 C15_12 1_555 1_555
O2_12 C15_12 1_555 1_555
H7_12 C11_12 1_555 1_555
C12_12 C11_12 1_555 1_555
C13_12 C12_12 1_555 1_555
H8_14 C13_12 1_555 1_555
H9_14 C14_14 1_555 1_555
C15_12 C12_12 1_555 1_555
C20_14 C19_14 1_555 1_555
H12_14 C20_14 1_555 1_555
C13_12 C14_14 1_555 1_555
O6_4 C22_11 1_555 1_555
O7_4 C22_11 1_555 1_555
Zn3_4 N1_11 1_555 1_555
N1_11 C1_11 1_555 1_555
N2_11 Zn3_4 1_555 1_555
N3_9 H1_9 1_555 1_555
O5_5 C15_13 1_555 1_555
O2_13 C15_13 1_555 1_555
C1_11 H2_11 1_555 1_555
C2_11 C1_11 1_555 1_555
H3_8 C2_11 1_555 1_555
C3_9 C2_11 1_555 1_555
H4_9 C3_9 1_555 1_555
C4_9 C3_9 1_555 1_555
H5_9 C4_9 1_555 1_555
C5_11 N1_11 1_555 1_555
C6_11 N2_11 1_555 1_555
C7_11 N2_11 1_555 1_555
C8_11 N3_9 1_555 1_555
C9_11 C8_11 1_555 1_555
C10_9 C9_11 1_555 1_555
H6_9 C10_9 1_555 1_555
C11_13 C10_9 1_555 1_555
H7_13 C11_13 1_555 1_555
C12_13 C11_13 1_555 1_555
C13_13 C12_13 1_555 1_555
H8_15 C13_13 1_555 1_555
C14_15 C9_11 1_555 1_555
H9_15 C14_15 1_555 1_555
C15_13 C12_13 1_555 1_555
C16_11 C7_11 1_555 1_555
C17_11 C16_11 1_555 1_555
H10_11 C17_11 1_555 1_555
C18_11 C17_11 1_555 1_555
C19_15 C18_11 1_555 1_555
C20_15 C19_15 1_555 1_555
H12_15 C20_15 1_555 1_555
C21_11 C16_11 1_555 1_555
H13_15 C21_11 1_555 1_555
O5_8 Zn3_4 1_555 1_555
N3_9 C6_11 1_555 1_555
C4_9 C5_11 1_555 1_555
C5_11 C6_11 1_555 1_555
C7_11 C8_11 1_555 1_555
C13_13 C14_15 1_555 1_555
C20_15 C21_11 1_555 1_555
Zn3_3 N1_12 1_555 1_555
N1_12 C1_12 1_555 1_555
N2_12 Zn3_3 1_555 1_555
O6_2 C22_12 1_555 1_555
O7_2 C22_12 1_555 1_555
C5_12 N1_12 1_555 1_555
C6_12 N2_12 1_555 1_555
C7_12 N2_12 1_555 1_555
C9_12 C8_12 1_555 1_555
C14_16 C9_12 1_555 1_555
H9_16 C14_16 1_555 1_555
C16_12 C7_12 1_555 1_555
C17_12 C16_12 1_555 1_555
H10_12 C17_12 1_555 1_555
C18_12 C17_12 1_555 1_555
H11_10 C18_12 1_555 1_555
C19_16 C18_12 1_555 1_555
C20_16 C19_16 1_555 1_555
H12_16 C20_16 1_555 1_555
C21_12 C16_12 1_555 1_555
H13_16 C21_12 1_555 1_555
C22_12 C19_16 1_555 1_555
C5_12 C6_12 1_555 1_555
C7_12 C8_12 1_555 1_555
C20_16 C21_12 1_555 1_555
H3_9 C2_12 1_555 1_555
N3_10 H1_10 1_555 1_555
O5_8 C15_14 1_555 1_555
O2_14 C15_14 1_555 1_555
H4_10 C3_10 1_555 1_555
C4_10 C3_10 1_555 1_555
H5_10 C4_10 1_555 1_555
H6_10 C10_10 1_555 1_555
C11_14 C10_10 1_555 1_555
H7_14 C11_14 1_555 1_555
C12_14 C11_14 1_555 1_555
C13_14 C12_14 1_555 1_555
C15_14 C12_14 1_555 1_555
Zn3 N1_13 1_555 1_555
N1_13 C1_13 1_555 1_555
N2_13 Zn3 1_555 1_555
O6_3 C22_13 1_555 1_555
O7_3 C22_13 1_555 1_555
C1_13 H2_13 1_555 1_555
C2_13 C1_13 1_555 1_555
H3_10 C2_13 1_555 1_555
C5_13 N1_13 1_555 1_555
C6_13 N2_13 1_555 1_555
C7_13 N2_13 1_555 1_555
C9_13 C8_13 1_555 1_555
C14_17 C9_13 1_555 1_555
H9_17 C14_17 1_555 1_555
C16_13 C7_13 1_555 1_555
C17_13 C16_13 1_555 1_555
H10_13 C17_13 1_555 1_555
C18_13 C17_13 1_555 1_555
H11_11 C18_13 1_555 1_555
C19_17 C18_13 1_555 1_555
C20_17 C19_17 1_555 1_555
H12_17 C20_17 1_555 1_555
C21_13 C16_13 1_555 1_555
H13_17 C21_13 1_555 1_555
C22_13 C19_17 1_555 1_555
C5_13 C6_13 1_555 1_555
C7_13 C8_13 1_555 1_555
C20_17 C21_13 1_555 1_555
H3_11 C2_14 1_555 1_555
Zn3_2 N1_14 1_555 1_555
N1_14 C1_14 1_555 1_555
N2_14 Zn3_2 1_555 1_555
O6 C22_14 1_555 1_555
O7 C22_14 1_555 1_555
C5_14 N1_14 1_555 1_555
C6_14 N2_14 1_555 1_555
C7_14 N2_14 1_555 1_555
C9_14 C8_14 1_555 1_555
C14_18 C9_14 1_555 1_555
H9_18 C14_18 1_555 1_555
C16_14 C7_14 1_555 1_555
C17_14 C16_14 1_555 1_555
H10_14 C17_14 1_555 1_555
C18_14 C17_14 1_555 1_555
H11_12 C18_14 1_555 1_555
C19_18 C18_14 1_555 1_555
C20_18 C19_18 1_555 1_555
H12_18 C20_18 1_555 1_555
C21_14 C16_14 1_555 1_555
H13_18 C21_14 1_555 1_555
C22_14 C19_18 1_555 1_555
C5_14 C6_14 1_555 1_555
C7_14 C8_14 1_555 1_555
C20_18 C21_14 1_555 1_555
Zn1_5 N1_15 1_555 1_555
N1_15 C1_15 1_555 1_555
N2_15 Zn1_5 1_555 1_555
N3_11 H1_11 1_555 1_555
C1_15 H2_15 1_555 1_555
C2_15 C1_15 1_555 1_555
H3_13 C2_15 1_555 1_555
C3_11 C2_15 1_555 1_555
H4_11 C3_11 1_555 1_555
C4_11 C3_11 1_555 1_555
H5_11 C4_11 1_555 1_555
C5_15 N1_15 1_555 1_555
C6_15 N2_15 1_555 1_555
C7_15 N2_15 1_555 1_555
C8_15 N3_11 1_555 1_555
C9_15 C8_15 1_555 1_555
C10_11 C9_15 1_555 1_555
H6_11 C10_11 1_555 1_555
C16_15 C7_15 1_555 1_555
C17_15 C16_15 1_555 1_555
H10_15 C17_15 1_555 1_555
C18_15 C17_15 1_555 1_555
C21_15 C16_15 1_555 1_555
O5_9 Zn1_5 1_555 1_555
O6_8 Zn1_5 1_555 1_555
O7_8 Zn1_5 1_555 1_555
N3_11 C6_15 1_555 1_555
C4_11 C5_15 1_555 1_555
C5_15 C6_15 1_555 1_555
C7_15 C8_15 1_555 1_555
N3_12 H1_12 1_555 1_555
O5_9 C15_15 1_555 1_555
O2_15 C15_15 1_555 1_555
H4_12 C3_12 1_555 1_555
C4_12 C3_12 1_555 1_555
H5_12 C4_12 1_555 1_555
H6_12 C10_12 1_555 1_555
C11_15 C10_12 1_555 1_555
H7_15 C11_15 1_555 1_555
C12_15 C11_15 1_555 1_555
C13_15 C12_15 1_555 1_555
C15_15 C12_15 1_555 1_555
O6_8 C22_15 1_555 1_555
O7_8 C22_15 1_555 1_555
O3_8 C22_16 1_555 1_555
O4_8 C22_16 1_555 1_555
Zn3_8 O3_8 1_555 1_555
O4_8 Zn3_8 1_555 1_555
Zn3_8 N1_16 1_555 1_555
N1_16 C1_16 1_555 1_555
N2_16 Zn3_8 1_555 1_555
N3_13 H1_13 1_555 1_555
C1_16 H2_16 1_555 1_555
C2_16 C1_16 1_555 1_555
H3_14 C2_16 1_555 1_555
C3_13 C2_16 1_555 1_555
H4_13 C3_13 1_555 1_555
C4_13 C3_13 1_555 1_555
H5_13 C4_13 1_555 1_555
C5_16 N1_16 1_555 1_555
C6_16 N2_16 1_555 1_555
C7_16 N2_16 1_555 1_555
C8_16 N3_13 1_555 1_555
C9_16 C8_16 1_555 1_555
C10_13 C9_16 1_555 1_555
H6_13 C10_13 1_555 1_555
C16_16 C7_16 1_555 1_555
C17_16 C16_16 1_555 1_555
H10_16 C17_16 1_555 1_555
C18_16 C17_16 1_555 1_555
C21_16 C16_16 1_555 1_555
O5_10 Zn3_8 1_555 1_555
N3_13 C6_16 1_555 1_555
C4_13 C5_16 1_555 1_555
C5_16 C6_16 1_555 1_555
C7_16 C8_16 1_555 1_555
N3_14 H1_14 1_555 1_555
O5_10 C15_16 1_555 1_555
O2_16 C15_16 1_555 1_555
H4_14 C3_14 1_555 1_555
C4_14 C3_14 1_555 1_555
H5_14 C4_14 1_555 1_555
H6_14 C10_14 1_555 1_555
C11_16 C10_14 1_555 1_555
H7_16 C11_16 1_555 1_555
C12_16 C11_16 1_555 1_555
C13_16 C12_16 1_555 1_555
C15_16 C12_16 1_555 1_555
Zn1_6 N1_17 1_555 1_555
N1_17 C1_17 1_555 1_555
N2_17 Zn1_6 1_555 1_555
N3_15 H1_15 1_555 1_555
C1_17 H2_17 1_555 1_555
C2_17 C1_17 1_555 1_555
H3_15 C2_17 1_555 1_555
C3_15 C2_17 1_555 1_555
H4_15 C3_15 1_555 1_555
C4_15 C3_15 1_555 1_555
H5_15 C4_15 1_555 1_555
C5_17 N1_17 1_555 1_555
C6_17 N2_17 1_555 1_555
C7_17 N2_17 1_555 1_555
C8_17 N3_15 1_555 1_555
C9_17 C8_17 1_555 1_555
C10_15 C9_17 1_555 1_555
H6_15 C10_15 1_555 1_555
C16_17 C7_17 1_555 1_555
C17_17 C16_17 1_555 1_555
H10_17 C17_17 1_555 1_555
C18_17 C17_17 1_555 1_555
C21_17 C16_17 1_555 1_555
O5_11 Zn1_6 1_555 1_555
O6_9 Zn1_6 1_555 1_555
O7_9 Zn1_6 1_555 1_555
N3_15 C6_17 1_555 1_555
C4_15 C5_17 1_555 1_555
C5_17 C6_17 1_555 1_555
C7_17 C8_17 1_555 1_555
N3_16 H1_16 1_555 1_555
O5_11 C15_17 1_555 1_555
O2_17 C15_17 1_555 1_555
H4_16 C3_16 1_555 1_555
C4_16 C3_16 1_555 1_555
H5_16 C4_16 1_555 1_555
H6_16 C10_16 1_555 1_555
C11_17 C10_16 1_555 1_555
H7_17 C11_17 1_555 1_555
C12_17 C11_17 1_555 1_555
C13_17 C12_17 1_555 1_555
C15_17 C12_17 1_555 1_555
O6_9 C22_17 1_555 1_555
O7_9 C22_17 1_555 1_555
O3_9 C22_18 1_555 1_555
O4_9 C22_18 1_555 1_555
Zn3_9 O3_9 1_555 1_555
O4_9 Zn3_9 1_555 1_555
Zn3_9 N1_18 1_555 1_555
N1_18 C1_18 1_555 1_555
N2_18 Zn3_9 1_555 1_555
N3_17 H1_17 1_555 1_555
C1_18 H2_18 1_555 1_555
C2_18 C1_18 1_555 1_555
H3_16 C2_18 1_555 1_555
C3_17 C2_18 1_555 1_555
H4_17 C3_17 1_555 1_555
C4_17 C3_17 1_555 1_555
H5_17 C4_17 1_555 1_555
C5_18 N1_18 1_555 1_555
C6_18 N2_18 1_555 1_555
C7_18 N2_18 1_555 1_555
C8_18 N3_17 1_555 1_555
C9_18 C8_18 1_555 1_555
C10_17 C9_18 1_555 1_555
H6_17 C10_17 1_555 1_555
C16_18 C7_18 1_555 1_555
C17_18 C16_18 1_555 1_555
H10_18 C17_18 1_555 1_555
C18_18 C17_18 1_555 1_555
C21_18 C16_18 1_555 1_555
O5_12 Zn3_9 1_555 1_555
N3_17 C6_18 1_555 1_555
C4_17 C5_18 1_555 1_555
C5_18 C6_18 1_555 1_555
C7_18 C8_18 1_555 1_555
N3_18 H1_18 1_555 1_555
O5_12 C15_18 1_555 1_555
O2_18 C15_18 1_555 1_555
H4_18 C3_18 1_555 1_555
C4_18 C3_18 1_555 1_555
H5_18 C4_18 1_555 1_555
H6_18 C10_18 1_555 1_555
C11_18 C10_18 1_555 1_555
H7_18 C11_18 1_555 1_555
C12_18 C11_18 1_555 1_555
C13_18 C12_18 1_555 1_555
C15_18 C12_18 1_555 1_555

#END
