
###############################################################################
#
# This file contains modified crystal structure data generated from the
# MOF subset of the Cambridge Structural Database (CSD) v543 
# hosted by the Cambridge Crystallographic Data Centre (CCDC).
#
# This work is licensed under the Creative Commons
# Attribution-NonCommercial-ShareAlike 4.0 International License.
# To view a copy of this license, visit
# http://creativecommons.org/licenses/by-nc-sa/4.0/
# or send a letter to
# Creative Commons, PO Box 1866, Mountain View, CA 94042, USA.
#
# CIF created using the CSD Python API on 29 September 2022
# The structure has been converted into the P1 space group
# The structure has a 3D framework
# The original CSD entry OBEDAA is in the monoclinic crystal system
# The framework has been calculated to contain at least 10.0% void space
# The void calculation uses a probe of radius 1.32A, grid spacing 0.4
# The framework is charged, counterions have been retained in the structure
#
###############################################################################

data_OBEDAA
_chemical_formula_moiety         '(C184 H96 Ag4 B8 F32 N32 4-)n'
_symmetry_cell_setting           triclinic
_symmetry_space_group_name_H-M   'P 1'
_symmetry_Int_Tables_number      1
_space_group_name_Hall           'P 1'
loop_
_symmetry_equiv_pos_site_id
_symmetry_equiv_pos_as_xyz
1 x,y,z
_cell_length_a                   18.0187(4)
_cell_length_b                   14.9717(3)
_cell_length_c                   23.5469(5)
_cell_angle_alpha                90
_cell_angle_beta                 105.5641(8)
_cell_angle_gamma                90
_cell_volume                     6119.33
loop_
_atom_site_label
_atom_site_type_symbol
_atom_site_fract_x
_atom_site_fract_y
_atom_site_fract_z
C24 C 0.1940(3) 0.5136(3) 0.3764(2)
C25 C 0.1510(3) 0.6039(3) 0.3644(2)
C26 C 0.1438(3) 0.6483(3) 0.3115(2)
C27 C 0.1023(3) 0.7279(4) 0.2999(3)
C28 C 0.0665(3) 0.7607(3) 0.3414(2)
C29 C 0.0732(3) 0.7161(3) 0.3941(2)
C30 C 0.1163(3) 0.6382(3) 0.4053(2)
C31 C 0.0203(3) 0.8397(3) 0.3273(2)
C32 C 0.2557(3) 0.5138(3) 0.3450(2)
C33 C 0.1406(3) 0.4340(3) 0.3527(2)
C34 C 0.0607(3) 0.4426(3) 0.3435(2)
C35 C 0.0153(3) 0.3665(3) 0.3304(2)
C36 C 0.0478(3) 0.2840(4) 0.3259(2)
C37 C 0.1268(3) 0.2760(4) 0.3324(2)
C38 C 0.1721(3) 0.3522(3) 0.3457(2)
C40 C 0.2334(3) 0.5027(3) 0.4428(2)
C41 C 0.2107(3) 0.4382(4) 0.4765(2)
C42 C 0.2446(3) 0.4325(4) 0.5371(3)
C43 C 0.3026(3) 0.4927(4) 0.5629(2)
C44 C 0.3257(3) 0.5580(4) 0.5295(3)
C45 C 0.2921(3) 0.5620(4) 0.4698(2)
C46 C 0.3355(3) 0.4880(4) 0.6258(2)
H13 H 0.1666(3) 0.6249(3) 0.2837(2)
H14 H 0.0984(3) 0.7588(4) 0.2649(3)
H15 H 0.0492(3) 0.7382(3) 0.4216(2)
H16 H 0.1218(3) 0.6086(3) 0.4409(2)
H17 H 0.0386(3) 0.4981(3) 0.3462(2)
H19 H 0.1485(3) 0.2210(4) 0.3279(2)
H20 H 0.2248(3) 0.3480(3) 0.3500(2)
H21 H 0.1722(3) 0.3980(4) 0.4586(2)
H22 H 0.2288(3) 0.3894(4) 0.5597(3)
H23 H 0.3638(3) 0.5988(4) 0.5474(3)
H24 H 0.3086(3) 0.6046(4) 0.4471(2)
N7 N 0.3612(2) 0.4853(3) 0.6756(2)
N8 N 0.3015(2) 0.5137(3) 0.3201(2)
Ag6 Ag 0.39889(2) 0.48864(3) 0.77392(2)
Ag7 Ag 0.39889(2) 0.51136(3) 0.27392(2)
N14 N 0.4822(3) 0.5980(3) 0.8144(2)
N15 N 0.4610(3) 0.3559(3) 0.8064(2)
N16 N 0.3015(2) 0.4863(3) 0.8201(2)
Ag2 Ag 0.89889(2) 0.01136(3) 0.27392(2)
C39 C 0.9991(3) 0.2054(4) 0.3152(2)
H18 H 0.9623(3) 0.3711(3) 0.3245(2)
N5 N 0.9822(3) 0.9020(3) 0.3144(2)
N6 N 0.9610(3) 0.1441(3) 0.3064(2)
N9 N 0.8612(2) 0.0147(3) 0.1756(2)
N10 N 0.8015(2) 0.0137(3) 0.3201(2)
C24_2 C 0.6940(3) 0.0136(3) 0.3764(2)
C25_2 C 0.6510(3) 0.1039(3) 0.3644(2)
C26_2 C 0.6438(3) 0.1483(3) 0.3115(2)
C27_2 C 0.6023(3) 0.2279(4) 0.2999(3)
C28_2 C 0.5665(3) 0.2607(3) 0.3414(2)
C29_2 C 0.5732(3) 0.2161(3) 0.3941(2)
C30_2 C 0.6163(3) 0.1382(3) 0.4053(2)
C31_2 C 0.5203(3) 0.3397(3) 0.3273(2)
C32_2 C 0.7557(3) 0.0138(3) 0.3450(2)
C40_2 C 0.7334(3) 0.0027(3) 0.4428(2)
C44_2 C 0.8257(3) 0.0580(4) 0.5295(3)
C45_2 C 0.7921(3) 0.0620(4) 0.4698(2)
H13_2 H 0.6666(3) 0.1249(3) 0.2837(2)
H14_2 H 0.5984(3) 0.2588(4) 0.2649(3)
H15_2 H 0.5492(3) 0.2382(3) 0.4216(2)
H16_2 H 0.6218(3) 0.1086(3) 0.4409(2)
H23_2 H 0.8638(3) 0.0988(4) 0.5474(3)
H24_2 H 0.8086(3) 0.1046(4) 0.4471(2)
N5_2 N 0.4822(3) 0.4020(3) 0.3144(2)
N14_2 N 0.9822(3) 0.0980(3) 0.8144(2)
C33_2 C 0.6406(3) 0.9340(3) 0.3527(2)
C34_2 C 0.5607(3) 0.9426(3) 0.3435(2)
C35_2 C 0.5153(3) 0.8665(3) 0.3304(2)
C36_2 C 0.5478(3) 0.7840(4) 0.3259(2)
C37_2 C 0.6268(3) 0.7760(4) 0.3324(2)
C38_2 C 0.6721(3) 0.8522(3) 0.3457(2)
C39_2 C 0.4991(3) 0.7054(4) 0.3152(2)
C41_2 C 0.7107(3) 0.9382(4) 0.4765(2)
C42_2 C 0.7446(3) 0.9325(4) 0.5371(3)
C43_2 C 0.8026(3) 0.9927(4) 0.5629(2)
C46_2 C 0.8355(3) 0.9880(4) 0.6258(2)
H17_2 H 0.5386(3) 0.9981(3) 0.3462(2)
H18_2 H 0.4623(3) 0.8711(3) 0.3245(2)
H19_2 H 0.6485(3) 0.7210(4) 0.3279(2)
H20_2 H 0.7248(3) 0.8480(3) 0.3500(2)
H21_2 H 0.6722(3) 0.8980(4) 0.4586(2)
H22_2 H 0.7288(3) 0.8894(4) 0.5597(3)
N6_2 N 0.4610(3) 0.6441(3) 0.3064(2)
N7_2 N 0.8612(2) 0.9853(3) 0.6756(2)
N9_2 N 0.3612(2) 0.5147(3) 0.1756(2)
Ag6_2 Ag 0.89889(2) 0.98864(3) 0.77392(2)
N15_2 N 0.9610(3) 0.8559(3) 0.8064(2)
N16_2 N 0.8015(2) 0.9863(3) 0.8201(2)
C19 C 0.2446(3) 0.5675(4) 0.0371(3)
C20 C 0.3026(3) 0.5073(4) 0.0629(2)
C21 C 0.3257(3) 0.4420(4) 0.0295(3)
C23 C 0.3355(3) 0.5120(4) 0.1258(2)
H10 H 0.2288(3) 0.6106(4) 0.0597(3)
H11 H 0.3638(3) 0.4012(4) 0.0474(3)
C1 C 0.1940(3) 0.4864(3) 0.8764(2)
C2 C 0.1510(3) 0.3961(3) 0.8644(2)
C3 C 0.1438(3) 0.3517(3) 0.8115(2)
C4 C 0.1023(3) 0.2721(4) 0.7999(3)
C5 C 0.0665(3) 0.2393(3) 0.8414(2)
C6 C 0.0732(3) 0.2839(3) 0.8941(2)
C7 C 0.1163(3) 0.3618(3) 0.9053(2)
C8 C 0.0203(3) 0.1603(3) 0.8273(2)
C9 C 0.2557(3) 0.4862(3) 0.8450(2)
C10 C 0.1406(3) 0.5660(3) 0.8527(2)
C11 C 0.0607(3) 0.5574(3) 0.8435(2)
C12 C 0.0153(3) 0.6335(3) 0.8304(2)
C13 C 0.0478(3) 0.7160(4) 0.8259(2)
C14 C 0.1268(3) 0.7240(4) 0.8324(2)
C15 C 0.1721(3) 0.6478(3) 0.8457(2)
C17 C 0.2334(3) 0.4973(3) 0.9428(2)
C18 C 0.2107(3) 0.5618(4) 0.9765(2)
C22 C 0.2921(3) 0.4380(4) 0.9698(2)
H1 H 0.1666(3) 0.3751(3) 0.7837(2)
H2 H 0.0984(3) 0.2412(4) 0.7649(3)
H3 H 0.0492(3) 0.2618(3) 0.9216(2)
H4 H 0.1218(3) 0.3914(3) 0.9409(2)
H5 H 0.0386(3) 0.5019(3) 0.8462(2)
H7 H 0.1485(3) 0.7790(4) 0.8279(2)
H8 H 0.2248(3) 0.6520(3) 0.8500(2)
H9 H 0.1722(3) 0.6020(4) 0.9586(2)
H12 H 0.3086(3) 0.3954(4) 0.9471(2)
C16 C 0.9991(3) 0.7946(4) 0.8152(2)
H6 H 0.9623(3) 0.6289(3) 0.8245(2)
C19_2 C 0.7446(3) 0.0675(4) 0.0371(3)
C20_2 C 0.8026(3) 0.0073(4) 0.0629(2)
C23_2 C 0.8355(3) 0.0120(4) 0.1258(2)
H10_2 H 0.7288(3) 0.1106(4) 0.0597(3)
C10_2 C 0.6406(3) 0.0660(3) 0.8527(2)
C11_2 C 0.5607(3) 0.0574(3) 0.8435(2)
C12_2 C 0.5153(3) 0.1335(3) 0.8304(2)
C13_2 C 0.5478(3) 0.2160(4) 0.8259(2)
C14_2 C 0.6268(3) 0.2240(4) 0.8324(2)
C15_2 C 0.6721(3) 0.1478(3) 0.8457(2)
C16_2 C 0.4991(3) 0.2946(4) 0.8152(2)
C18_2 C 0.7107(3) 0.0618(4) 0.9765(2)
H5_2 H 0.5386(3) 0.0019(3) 0.8462(2)
H6_2 H 0.4623(3) 0.1289(3) 0.8245(2)
H7_2 H 0.6485(3) 0.2790(4) 0.8279(2)
H8_2 H 0.7248(3) 0.1520(3) 0.8500(2)
H9_2 H 0.6722(3) 0.1020(4) 0.9586(2)
C21_2 C 0.8257(3) 0.9420(4) 0.0295(3)
H11_2 H 0.8638(3) 0.9012(4) 0.0474(3)
C1_2 C 0.6940(3) 0.9864(3) 0.8764(2)
C2_2 C 0.6510(3) 0.8961(3) 0.8644(2)
C3_2 C 0.6438(3) 0.8517(3) 0.8115(2)
C4_2 C 0.6023(3) 0.7721(4) 0.7999(3)
C5_2 C 0.5665(3) 0.7393(3) 0.8414(2)
C6_2 C 0.5732(3) 0.7839(3) 0.8941(2)
C7_2 C 0.6163(3) 0.8618(3) 0.9053(2)
C8_2 C 0.5203(3) 0.6603(3) 0.8273(2)
C9_2 C 0.7557(3) 0.9862(3) 0.8450(2)
C17_2 C 0.7334(3) 0.9973(3) 0.9428(2)
C22_2 C 0.7921(3) 0.9380(4) 0.9698(2)
H1_2 H 0.6666(3) 0.8751(3) 0.7837(2)
H2_2 H 0.5984(3) 0.7412(4) 0.7649(3)
H3_2 H 0.5492(3) 0.7618(3) 0.9216(2)
H4_2 H 0.6218(3) 0.8914(3) 0.9409(2)
H12_2 H 0.8086(3) 0.8954(4) 0.9471(2)
Ag2_2 Ag 0.10111(2) 0.01136(3) 0.22608(2)
C39_3 C 0.0009(3) 0.2054(4) 0.1848(2)
H18_3 H 0.0377(3) 0.3711(3) 0.1755(2)
N5_3 N 0.0178(3) 0.9020(3) 0.1856(2)
N6_3 N 0.0390(3) 0.1441(3) 0.1936(2)
N9_3 N 0.1388(2) 0.0147(3) 0.3244(2)
N10_2 N 0.1985(2) 0.0137(3) 0.1799(2)
C24_3 C 0.8060(3) 0.5136(3) 0.1236(2)
C25_3 C 0.8490(3) 0.6039(3) 0.1356(2)
C26_3 C 0.8562(3) 0.6483(3) 0.1885(2)
C27_3 C 0.8977(3) 0.7279(4) 0.2001(3)
C28_3 C 0.9335(3) 0.7607(3) 0.1586(2)
C29_3 C 0.9268(3) 0.7161(3) 0.1059(2)
C30_3 C 0.8837(3) 0.6382(3) 0.0947(2)
C31_3 C 0.9797(3) 0.8397(3) 0.1727(2)
C32_3 C 0.7443(3) 0.5138(3) 0.1550(2)
C33_3 C 0.8594(3) 0.4340(3) 0.1473(2)
C34_3 C 0.9393(3) 0.4426(3) 0.1565(2)
C35_3 C 0.9847(3) 0.3665(3) 0.1696(2)
C36_3 C 0.9522(3) 0.2840(4) 0.1741(2)
C37_3 C 0.8732(3) 0.2760(4) 0.1676(2)
C38_3 C 0.8279(3) 0.3522(3) 0.1543(2)
C40_3 C 0.7666(3) 0.5027(3) 0.0572(2)
C41_3 C 0.7893(3) 0.4382(4) 0.0235(2)
C45_3 C 0.7079(3) 0.5620(4) 0.0302(2)
H13_3 H 0.8334(3) 0.6249(3) 0.2163(2)
H14_3 H 0.9016(3) 0.7588(4) 0.2351(3)
H15_3 H 0.9508(3) 0.7382(3) 0.0784(2)
H16_3 H 0.8782(3) 0.6086(3) 0.0591(2)
H17_3 H 0.9614(3) 0.4981(3) 0.1538(2)
H19_3 H 0.8515(3) 0.2210(4) 0.1721(2)
H20_3 H 0.7752(3) 0.3480(3) 0.1500(2)
H21_3 H 0.8278(3) 0.3980(4) 0.0414(2)
H24_3 H 0.6914(3) 0.6046(4) 0.0529(2)
N8_2 N 0.6985(2) 0.5137(3) 0.1799(2)
Ag7_2 Ag 0.60111(2) 0.51136(3) 0.22608(2)
C42_3 C 0.7554(3) 0.4325(4) 0.9629(3)
C43_3 C 0.6974(3) 0.4927(4) 0.9371(2)
C44_3 C 0.6743(3) 0.5580(4) 0.9705(3)
C46_3 C 0.6645(3) 0.4880(4) 0.8742(2)
H22_3 H 0.7712(3) 0.3894(4) 0.9403(3)
H23_3 H 0.6362(3) 0.5988(4) 0.9526(3)
N7_3 N 0.6388(2) 0.4853(3) 0.8244(2)
Ag6_3 Ag 0.60111(2) 0.48864(3) 0.72608(2)
N14_3 N 0.5178(3) 0.5980(3) 0.6856(2)
N15_3 N 0.5390(3) 0.3559(3) 0.6936(2)
N16_3 N 0.6985(2) 0.4863(3) 0.6799(2)
C24_4 C 0.3060(3) 0.0136(3) 0.1236(2)
C25_4 C 0.3490(3) 0.1039(3) 0.1356(2)
C26_4 C 0.3562(3) 0.1483(3) 0.1885(2)
C27_4 C 0.3977(3) 0.2279(4) 0.2001(3)
C28_4 C 0.4335(3) 0.2607(3) 0.1586(2)
C29_4 C 0.4268(3) 0.2161(3) 0.1059(2)
C30_4 C 0.3837(3) 0.1382(3) 0.0947(2)
C31_4 C 0.4797(3) 0.3397(3) 0.1727(2)
C32_4 C 0.2443(3) 0.0138(3) 0.1550(2)
C40_4 C 0.2666(3) 0.0027(3) 0.0572(2)
C45_4 C 0.2079(3) 0.0620(4) 0.0302(2)
H13_4 H 0.3334(3) 0.1249(3) 0.2163(2)
H14_4 H 0.4016(3) 0.2588(4) 0.2351(3)
H15_4 H 0.4508(3) 0.2382(3) 0.0784(2)
H16_4 H 0.3782(3) 0.1086(3) 0.0591(2)
H24_4 H 0.1914(3) 0.1046(4) 0.0529(2)
N5_4 N 0.5178(3) 0.4020(3) 0.1856(2)
C44_4 C 0.1743(3) 0.0580(4) 0.9705(3)
H23_4 H 0.1362(3) 0.0988(4) 0.9526(3)
N14_4 N 0.0178(3) 0.0980(3) 0.6856(2)
C33_4 C 0.3594(3) 0.9340(3) 0.1473(2)
C34_4 C 0.4393(3) 0.9426(3) 0.1565(2)
C35_4 C 0.4847(3) 0.8665(3) 0.1696(2)
C36_4 C 0.4522(3) 0.7840(4) 0.1741(2)
C37_4 C 0.3732(3) 0.7760(4) 0.1676(2)
C38_4 C 0.3279(3) 0.8522(3) 0.1543(2)
C39_4 C 0.5009(3) 0.7054(4) 0.1848(2)
C41_4 C 0.2893(3) 0.9382(4) 0.0235(2)
H17_4 H 0.4614(3) 0.9981(3) 0.1538(2)
H18_4 H 0.5377(3) 0.8711(3) 0.1755(2)
H19_4 H 0.3515(3) 0.7210(4) 0.1721(2)
H20_4 H 0.2752(3) 0.8480(3) 0.1500(2)
H21_4 H 0.3278(3) 0.8980(4) 0.0414(2)
N6_4 N 0.5390(3) 0.6441(3) 0.1936(2)
N9_4 N 0.6388(2) 0.5147(3) 0.3244(2)
C42_4 C 0.2554(3) 0.9325(4) 0.9629(3)
C43_4 C 0.1974(3) 0.9927(4) 0.9371(2)
C46_4 C 0.1645(3) 0.9880(4) 0.8742(2)
H22_4 H 0.2712(3) 0.8894(4) 0.9403(3)
N7_4 N 0.1388(2) 0.9853(3) 0.8244(2)
Ag6_4 Ag 0.10111(2) 0.98864(3) 0.72608(2)
N15_4 N 0.0390(3) 0.8559(3) 0.6936(2)
N16_4 N 0.1985(2) 0.9863(3) 0.6799(2)
C16_3 C 0.0009(3) 0.7946(4) 0.6848(2)
H6_3 H 0.0377(3) 0.6289(3) 0.6755(2)
C1_3 C 0.8060(3) 0.4864(3) 0.6236(2)
C2_3 C 0.8490(3) 0.3961(3) 0.6356(2)
C3_3 C 0.8562(3) 0.3517(3) 0.6885(2)
C4_3 C 0.8977(3) 0.2721(4) 0.7001(3)
C5_3 C 0.9335(3) 0.2393(3) 0.6586(2)
C6_3 C 0.9268(3) 0.2839(3) 0.6059(2)
C7_3 C 0.8837(3) 0.3618(3) 0.5947(2)
C8_3 C 0.9797(3) 0.1603(3) 0.6727(2)
C9_3 C 0.7443(3) 0.4862(3) 0.6550(2)
C10_3 C 0.8594(3) 0.5660(3) 0.6473(2)
C11_3 C 0.9393(3) 0.5574(3) 0.6565(2)
C12_3 C 0.9847(3) 0.6335(3) 0.6696(2)
C13_3 C 0.9522(3) 0.7160(4) 0.6741(2)
C14_3 C 0.8732(3) 0.7240(4) 0.6676(2)
C15_3 C 0.8279(3) 0.6478(3) 0.6543(2)
C17_3 C 0.7666(3) 0.4973(3) 0.5572(2)
C18_3 C 0.7893(3) 0.5618(4) 0.5235(2)
C19_3 C 0.7554(3) 0.5675(4) 0.4629(3)
C20_3 C 0.6974(3) 0.5073(4) 0.4371(2)
C21_3 C 0.6743(3) 0.4420(4) 0.4705(3)
C22_3 C 0.7079(3) 0.4380(4) 0.5302(2)
C23_3 C 0.6645(3) 0.5120(4) 0.3742(2)
H1_3 H 0.8334(3) 0.3751(3) 0.7163(2)
H2_3 H 0.9016(3) 0.2412(4) 0.7351(3)
H3_3 H 0.9508(3) 0.2618(3) 0.5784(2)
H4_3 H 0.8782(3) 0.3914(3) 0.5591(2)
H5_3 H 0.9614(3) 0.5019(3) 0.6538(2)
H7_3 H 0.8515(3) 0.7790(4) 0.6721(2)
H8_3 H 0.7752(3) 0.6520(3) 0.6500(2)
H9_3 H 0.8278(3) 0.6020(4) 0.5414(2)
H10_3 H 0.7712(3) 0.6106(4) 0.4403(3)
H11_3 H 0.6362(3) 0.4012(4) 0.4526(3)
H12_3 H 0.6914(3) 0.3954(4) 0.5529(2)
C10_4 C 0.3594(3) 0.0660(3) 0.6473(2)
C11_4 C 0.4393(3) 0.0574(3) 0.6565(2)
C12_4 C 0.4847(3) 0.1335(3) 0.6696(2)
C13_4 C 0.4522(3) 0.2160(4) 0.6741(2)
C14_4 C 0.3732(3) 0.2240(4) 0.6676(2)
C15_4 C 0.3279(3) 0.1478(3) 0.6543(2)
C16_4 C 0.5009(3) 0.2946(4) 0.6848(2)
C18_4 C 0.2893(3) 0.0618(4) 0.5235(2)
C19_4 C 0.2554(3) 0.0675(4) 0.4629(3)
C20_4 C 0.1974(3) 0.0073(4) 0.4371(2)
C23_4 C 0.1645(3) 0.0120(4) 0.3742(2)
H5_4 H 0.4614(3) 0.0019(3) 0.6538(2)
H6_4 H 0.5377(3) 0.1289(3) 0.6755(2)
H7_4 H 0.3515(3) 0.2790(4) 0.6721(2)
H8_4 H 0.2752(3) 0.1520(3) 0.6500(2)
H9_4 H 0.3278(3) 0.1020(4) 0.5414(2)
H10_4 H 0.2712(3) 0.1106(4) 0.4403(3)
C1_4 C 0.3060(3) 0.9864(3) 0.6236(2)
C2_4 C 0.3490(3) 0.8961(3) 0.6356(2)
C3_4 C 0.3562(3) 0.8517(3) 0.6885(2)
C4_4 C 0.3977(3) 0.7721(4) 0.7001(3)
C5_4 C 0.4335(3) 0.7393(3) 0.6586(2)
C6_4 C 0.4268(3) 0.7839(3) 0.6059(2)
C7_4 C 0.3837(3) 0.8618(3) 0.5947(2)
C8_4 C 0.4797(3) 0.6603(3) 0.6727(2)
C9_4 C 0.2443(3) 0.9862(3) 0.6550(2)
C17_4 C 0.2666(3) 0.9973(3) 0.5572(2)
C21_4 C 0.1743(3) 0.9420(4) 0.4705(3)
C22_4 C 0.2079(3) 0.9380(4) 0.5302(2)
H1_4 H 0.3334(3) 0.8751(3) 0.7163(2)
H2_4 H 0.4016(3) 0.7412(4) 0.7351(3)
H3_4 H 0.4508(3) 0.7618(3) 0.5784(2)
H4_4 H 0.3782(3) 0.8914(3) 0.5591(2)
H11_4 H 0.1362(3) 0.9012(4) 0.4526(3)
H12_4 H 0.1914(3) 0.8954(4) 0.5529(2)
B1 B 0.8526(6) 0.7059(6) 0.3547(5)
F1 F 0.9007(2) 0.6584(3) 0.3317(2)
F2 F 0.7830(2) 0.6653(3) 0.3463(2)
F3 F 0.8853(4) 0.7047(5) 0.4159(3)
F4 F 0.8461(3) 0.7899(3) 0.3321(3)
B1_2 B 0.1474(6) 0.7059(6) 0.1453(5)
F1_2 F 0.0993(2) 0.6584(3) 0.1683(2)
F2_2 F 0.2170(2) 0.6653(3) 0.1537(2)
F3_2 F 0.1147(4) 0.7047(5) 0.0841(3)
F4_2 F 0.1539(3) 0.7899(3) 0.1679(3)
B1_3 B 0.3526(6) 0.2059(6) 0.3547(5)
F1_3 F 0.4007(2) 0.1584(3) 0.3317(2)
F2_3 F 0.2830(2) 0.1653(3) 0.3463(2)
F3_3 F 0.3853(4) 0.2047(5) 0.4159(3)
F4_3 F 0.3461(3) 0.2899(3) 0.3321(3)
B1_4 B 0.6474(6) 0.2059(6) 0.1453(5)
F1_4 F 0.5993(2) 0.1584(3) 0.1683(2)
F2_4 F 0.7170(2) 0.1653(3) 0.1537(2)
F3_4 F 0.6147(4) 0.2047(5) 0.0841(3)
F4_4 F 0.6539(3) 0.2899(3) 0.1679(3)
B1_5 B 0.1474(6) 0.2941(6) 0.6453(5)
F1_5 F 0.0993(2) 0.3416(3) 0.6683(2)
F2_5 F 0.2170(2) 0.3347(3) 0.6537(2)
F3_5 F 0.1147(4) 0.2953(5) 0.5841(3)
F4_5 F 0.1539(3) 0.2101(3) 0.6679(3)
B1_6 B 0.8526(6) 0.2941(6) 0.8547(5)
F1_6 F 0.9007(2) 0.3416(3) 0.8317(2)
F2_6 F 0.7830(2) 0.3347(3) 0.8463(2)
F3_6 F 0.8853(4) 0.2953(5) 0.9159(3)
F4_6 F 0.8461(3) 0.2101(3) 0.8321(3)
B1_7 B 0.6474(6) 0.7941(6) 0.6453(5)
F1_7 F 0.5993(2) 0.8416(3) 0.6683(2)
F2_7 F 0.7170(2) 0.8347(3) 0.6537(2)
F3_7 F 0.6147(4) 0.7953(5) 0.5841(3)
F4_7 F 0.6539(3) 0.7101(3) 0.6679(3)
B1_8 B 0.3526(6) 0.7941(6) 0.8547(5)
F1_8 F 0.4007(2) 0.8416(3) 0.8317(2)
F2_8 F 0.2830(2) 0.8347(3) 0.8463(2)
F3_8 F 0.3853(4) 0.7953(5) 0.9159(3)
F4_8 F 0.3461(3) 0.7101(3) 0.8321(3)
loop_
_geom_bond_atom_site_label_1
_geom_bond_atom_site_label_2
_geom_bond_site_symmetry_1
_geom_bond_site_symmetry_2
C24 C25 1_555 1_555
C25 C26 1_555 1_555
C26 C27 1_555 1_555
C27 C28 1_555 1_555
C28 C29 1_555 1_555
C29 C30 1_555 1_555
C30 C25 1_555 1_555
C31 C28 1_555 1_555
C32 C24 1_555 1_555
C33 C24 1_555 1_555
C34 C33 1_555 1_555
C35 C34 1_555 1_555
C36 C35 1_555 1_555
C37 C36 1_555 1_555
C38 C33 1_555 1_555
C40 C24 1_555 1_555
C41 C40 1_555 1_555
C42 C41 1_555 1_555
C43 C42 1_555 1_555
C44 C43 1_555 1_555
C45 C40 1_555 1_555
C46 C43 1_555 1_555
H13 C26 1_555 1_555
H14 C27 1_555 1_555
H15 C29 1_555 1_555
H16 C30 1_555 1_555
H17 C34 1_555 1_555
H19 C37 1_555 1_555
H20 C38 1_555 1_555
H21 C41 1_555 1_555
H22 C42 1_555 1_555
H23 C44 1_555 1_555
H24 C45 1_555 1_555
N7 C46 1_555 1_555
N8 C32 1_555 1_555
Ag6 N7 1_555 1_555
Ag7 N8 1_555 1_555
N14 Ag6 1_555 1_555
N15 Ag6 1_555 1_555
N16 Ag6 1_555 1_555
C37 C38 1_555 1_555
C44 C45 1_555 1_555
N6 Ag2 1_555 1_555
N9 Ag2 1_555 1_555
N10 Ag2 1_555 1_555
C39 N6 1_555 1_555
C24_2 C25_2 1_555 1_555
C25_2 C26_2 1_555 1_555
C26_2 C27_2 1_555 1_555
C27_2 C28_2 1_555 1_555
C28_2 C29_2 1_555 1_555
C29_2 C30_2 1_555 1_555
C30_2 C25_2 1_555 1_555
C31_2 C28_2 1_555 1_555
C32_2 C24_2 1_555 1_555
C40_2 C24_2 1_555 1_555
C45_2 C40_2 1_555 1_555
H13_2 C26_2 1_555 1_555
H14_2 C27_2 1_555 1_555
H15_2 C29_2 1_555 1_555
H16_2 C30_2 1_555 1_555
H23_2 C44_2 1_555 1_555
H24_2 C45_2 1_555 1_555
N5_2 C31_2 1_555 1_555
N10 C32_2 1_555 1_555
Ag7 N5_2 1_555 1_555
C44_2 C45_2 1_555 1_555
C34_2 C33_2 1_555 1_555
C35_2 C34_2 1_555 1_555
C36_2 C35_2 1_555 1_555
C37_2 C36_2 1_555 1_555
C38_2 C33_2 1_555 1_555
C39_2 C36_2 1_555 1_555
C42_2 C41_2 1_555 1_555
C43_2 C42_2 1_555 1_555
C46_2 C43_2 1_555 1_555
H17_2 C34_2 1_555 1_555
H18_2 C35_2 1_555 1_555
H19_2 C37_2 1_555 1_555
H20_2 C38_2 1_555 1_555
H21_2 C41_2 1_555 1_555
H22_2 C42_2 1_555 1_555
N6_2 Ag7 1_555 1_555
N7_2 C46_2 1_555 1_555
N9_2 Ag7 1_555 1_555
Ag6_2 N7_2 1_555 1_555
N15_2 Ag6_2 1_555 1_555
N16_2 Ag6_2 1_555 1_555
C37_2 C38_2 1_555 1_555
C39_2 N6_2 1_555 1_555
C20 C19 1_555 1_555
C21 C20 1_555 1_555
C23 C20 1_555 1_555
H10 C19 1_555 1_555
H11 C21 1_555 1_555
N9_2 C23 1_555 1_555
C1 C2 1_555 1_555
C2 C3 1_555 1_555
C3 C4 1_555 1_555
C4 C5 1_555 1_555
C5 C6 1_555 1_555
C6 C7 1_555 1_555
C7 C2 1_555 1_555
C8 C5 1_555 1_555
C9 C1 1_555 1_555
C10 C1 1_555 1_555
C11 C10 1_555 1_555
C12 C11 1_555 1_555
C13 C12 1_555 1_555
C14 C13 1_555 1_555
C15 C10 1_555 1_555
C17 C1 1_555 1_555
C18 C17 1_555 1_555
C22 C17 1_555 1_555
H1 C3 1_555 1_555
H2 C4 1_555 1_555
H3 C6 1_555 1_555
H4 C7 1_555 1_555
H5 C11 1_555 1_555
H7 C14 1_555 1_555
H8 C15 1_555 1_555
H9 C18 1_555 1_555
H12 C22 1_555 1_555
N16 C9 1_555 1_555
C14 C15 1_555 1_555
N15_2 C16 1_555 1_555
C20_2 C19_2 1_555 1_555
C23_2 C20_2 1_555 1_555
H10_2 C19_2 1_555 1_555
N9 C23_2 1_555 1_555
C11_2 C10_2 1_555 1_555
C12_2 C11_2 1_555 1_555
C13_2 C12_2 1_555 1_555
C14_2 C13_2 1_555 1_555
C15_2 C10_2 1_555 1_555
C16_2 C13_2 1_555 1_555
H5_2 C11_2 1_555 1_555
H6_2 C12_2 1_555 1_555
H7_2 C14_2 1_555 1_555
H8_2 C15_2 1_555 1_555
H9_2 C18_2 1_555 1_555
N15 C16_2 1_555 1_555
C14_2 C15_2 1_555 1_555
H11_2 C21_2 1_555 1_555
C1_2 C2_2 1_555 1_555
C2_2 C3_2 1_555 1_555
C3_2 C4_2 1_555 1_555
C4_2 C5_2 1_555 1_555
C5_2 C6_2 1_555 1_555
C6_2 C7_2 1_555 1_555
C7_2 C2_2 1_555 1_555
C8_2 C5_2 1_555 1_555
C9_2 C1_2 1_555 1_555
C17_2 C1_2 1_555 1_555
C22_2 C17_2 1_555 1_555
H1_2 C3_2 1_555 1_555
H2_2 C4_2 1_555 1_555
H3_2 C6_2 1_555 1_555
H4_2 C7_2 1_555 1_555
H12_2 C22_2 1_555 1_555
N14 C8_2 1_555 1_555
N16_2 C9_2 1_555 1_555
N6_3 Ag2_2 1_555 1_555
N9_3 Ag2_2 1_555 1_555
N10_2 Ag2_2 1_555 1_555
C39_3 N6_3 1_555 1_555
C24_3 C25_3 1_555 1_555
C25_3 C26_3 1_555 1_555
C26_3 C27_3 1_555 1_555
C27_3 C28_3 1_555 1_555
C28_3 C29_3 1_555 1_555
C29_3 C30_3 1_555 1_555
C30_3 C25_3 1_555 1_555
C31_3 C28_3 1_555 1_555
C32_3 C24_3 1_555 1_555
C33_3 C24_3 1_555 1_555
C34_3 C33_3 1_555 1_555
C35_3 C34_3 1_555 1_555
C36_3 C35_3 1_555 1_555
C37_3 C36_3 1_555 1_555
C38_3 C33_3 1_555 1_555
C40_3 C24_3 1_555 1_555
C41_3 C40_3 1_555 1_555
C45_3 C40_3 1_555 1_555
H13_3 C26_3 1_555 1_555
H14_3 C27_3 1_555 1_555
H15_3 C29_3 1_555 1_555
H16_3 C30_3 1_555 1_555
H17_3 C34_3 1_555 1_555
H19_3 C37_3 1_555 1_555
H20_3 C38_3 1_555 1_555
H21_3 C41_3 1_555 1_555
H24_3 C45_3 1_555 1_555
N8_2 C32_3 1_555 1_555
Ag7_2 N8_2 1_555 1_555
C37_3 C38_3 1_555 1_555
C43_3 C42_3 1_555 1_555
C44_3 C43_3 1_555 1_555
C46_3 C43_3 1_555 1_555
H22_3 C42_3 1_555 1_555
H23_3 C44_3 1_555 1_555
N7_3 C46_3 1_555 1_555
Ag6_3 N7_3 1_555 1_555
N14_3 Ag6_3 1_555 1_555
N15_3 Ag6_3 1_555 1_555
N16_3 Ag6_3 1_555 1_555
C24_4 C25_4 1_555 1_555
C25_4 C26_4 1_555 1_555
C26_4 C27_4 1_555 1_555
C27_4 C28_4 1_555 1_555
C28_4 C29_4 1_555 1_555
C29_4 C30_4 1_555 1_555
C30_4 C25_4 1_555 1_555
C31_4 C28_4 1_555 1_555
C32_4 C24_4 1_555 1_555
C40_4 C24_4 1_555 1_555
C45_4 C40_4 1_555 1_555
H13_4 C26_4 1_555 1_555
H14_4 C27_4 1_555 1_555
H15_4 C29_4 1_555 1_555
H16_4 C30_4 1_555 1_555
H24_4 C45_4 1_555 1_555
N5_4 C31_4 1_555 1_555
N10_2 C32_4 1_555 1_555
Ag7_2 N5_4 1_555 1_555
H23_4 C44_4 1_555 1_555
C34_4 C33_4 1_555 1_555
C35_4 C34_4 1_555 1_555
C36_4 C35_4 1_555 1_555
C37_4 C36_4 1_555 1_555
C38_4 C33_4 1_555 1_555
C39_4 C36_4 1_555 1_555
H17_4 C34_4 1_555 1_555
H18_4 C35_4 1_555 1_555
H19_4 C37_4 1_555 1_555
H20_4 C38_4 1_555 1_555
H21_4 C41_4 1_555 1_555
N6_4 Ag7_2 1_555 1_555
N9_4 Ag7_2 1_555 1_555
C37_4 C38_4 1_555 1_555
C39_4 N6_4 1_555 1_555
C43_4 C42_4 1_555 1_555
C46_4 C43_4 1_555 1_555
H22_4 C42_4 1_555 1_555
N7_4 C46_4 1_555 1_555
Ag6_4 N7_4 1_555 1_555
N15_4 Ag6_4 1_555 1_555
N16_4 Ag6_4 1_555 1_555
N15_4 C16_3 1_555 1_555
C1_3 C2_3 1_555 1_555
C2_3 C3_3 1_555 1_555
C3_3 C4_3 1_555 1_555
C4_3 C5_3 1_555 1_555
C5_3 C6_3 1_555 1_555
C6_3 C7_3 1_555 1_555
C7_3 C2_3 1_555 1_555
C8_3 C5_3 1_555 1_555
C9_3 C1_3 1_555 1_555
C10_3 C1_3 1_555 1_555
C11_3 C10_3 1_555 1_555
C12_3 C11_3 1_555 1_555
C13_3 C12_3 1_555 1_555
C14_3 C13_3 1_555 1_555
C15_3 C10_3 1_555 1_555
C17_3 C1_3 1_555 1_555
C18_3 C17_3 1_555 1_555
C19_3 C18_3 1_555 1_555
C20_3 C19_3 1_555 1_555
C21_3 C20_3 1_555 1_555
C22_3 C17_3 1_555 1_555
C23_3 C20_3 1_555 1_555
H1_3 C3_3 1_555 1_555
H2_3 C4_3 1_555 1_555
H3_3 C6_3 1_555 1_555
H4_3 C7_3 1_555 1_555
H5_3 C11_3 1_555 1_555
H7_3 C14_3 1_555 1_555
H8_3 C15_3 1_555 1_555
H9_3 C18_3 1_555 1_555
H10_3 C19_3 1_555 1_555
H11_3 C21_3 1_555 1_555
H12_3 C22_3 1_555 1_555
N9_4 C23_3 1_555 1_555
N16_3 C9_3 1_555 1_555
C14_3 C15_3 1_555 1_555
C21_3 C22_3 1_555 1_555
C11_4 C10_4 1_555 1_555
C12_4 C11_4 1_555 1_555
C13_4 C12_4 1_555 1_555
C14_4 C13_4 1_555 1_555
C15_4 C10_4 1_555 1_555
C16_4 C13_4 1_555 1_555
C19_4 C18_4 1_555 1_555
C20_4 C19_4 1_555 1_555
C23_4 C20_4 1_555 1_555
H5_4 C11_4 1_555 1_555
H6_4 C12_4 1_555 1_555
H7_4 C14_4 1_555 1_555
H8_4 C15_4 1_555 1_555
H9_4 C18_4 1_555 1_555
H10_4 C19_4 1_555 1_555
N15_3 C16_4 1_555 1_555
N9_3 C23_4 1_555 1_555
C14_4 C15_4 1_555 1_555
C1_4 C2_4 1_555 1_555
C2_4 C3_4 1_555 1_555
C3_4 C4_4 1_555 1_555
C4_4 C5_4 1_555 1_555
C5_4 C6_4 1_555 1_555
C6_4 C7_4 1_555 1_555
C7_4 C2_4 1_555 1_555
C8_4 C5_4 1_555 1_555
C9_4 C1_4 1_555 1_555
C17_4 C1_4 1_555 1_555
C22_4 C17_4 1_555 1_555
H1_4 C3_4 1_555 1_555
H2_4 C4_4 1_555 1_555
H3_4 C6_4 1_555 1_555
H4_4 C7_4 1_555 1_555
H11_4 C21_4 1_555 1_555
H12_4 C22_4 1_555 1_555
N14_3 C8_4 1_555 1_555
N16_4 C9_4 1_555 1_555
C21_4 C22_4 1_555 1_555
B1 F1 1_555 1_555
F2 B1 1_555 1_555
F3 B1 1_555 1_555
F4 B1 1_555 1_555
B1_2 F1_2 1_555 1_555
F2_2 B1_2 1_555 1_555
F3_2 B1_2 1_555 1_555
F4_2 B1_2 1_555 1_555
B1_3 F1_3 1_555 1_555
F2_3 B1_3 1_555 1_555
F3_3 B1_3 1_555 1_555
F4_3 B1_3 1_555 1_555
B1_4 F1_4 1_555 1_555
F2_4 B1_4 1_555 1_555
F3_4 B1_4 1_555 1_555
F4_4 B1_4 1_555 1_555
B1_5 F1_5 1_555 1_555
F2_5 B1_5 1_555 1_555
F3_5 B1_5 1_555 1_555
F4_5 B1_5 1_555 1_555
B1_6 F1_6 1_555 1_555
F2_6 B1_6 1_555 1_555
F3_6 B1_6 1_555 1_555
F4_6 B1_6 1_555 1_555
B1_7 F1_7 1_555 1_555
F2_7 B1_7 1_555 1_555
F3_7 B1_7 1_555 1_555
F4_7 B1_7 1_555 1_555
B1_8 F1_8 1_555 1_555
F2_8 B1_8 1_555 1_555
F3_8 B1_8 1_555 1_555
F4_8 B1_8 1_555 1_555

#END
