
###############################################################################
#
# This file contains modified crystal structure data generated from the
# MOF subset of the Cambridge Structural Database (CSD) v543 
# hosted by the Cambridge Crystallographic Data Centre (CCDC).
#
# This work is licensed under the Creative Commons
# Attribution-NonCommercial-ShareAlike 4.0 International License.
# To view a copy of this license, visit
# http://creativecommons.org/licenses/by-nc-sa/4.0/
# or send a letter to
# Creative Commons, PO Box 1866, Mountain View, CA 94042, USA.
#
# CIF created using the CSD Python API on 29 September 2022
# The structure has been converted into the P1 space group
# The structure has a 3D framework
# The original CSD entry OBIBEJ is in the triclinic crystal system
# The framework has been calculated to contain at least 10.0% void space
# The void calculation uses a probe of radius 1.32A, grid spacing 0.4
# The framework is charged, counterions have been retained in the structure
# H atom positions have been added when not included in the experimental data
#
###############################################################################

data_OBIBEJ
_chemical_formula_moiety         '(C144 H160 Ca8 Cl2 N4 O48)n'
_symmetry_cell_setting           triclinic
_symmetry_space_group_name_H-M   'P 1'
_symmetry_Int_Tables_number      1
_space_group_name_Hall           'P 1'
loop_
_symmetry_equiv_pos_site_id
_symmetry_equiv_pos_as_xyz
1 x,y,z
_cell_length_a                   15.547(6)
_cell_length_b                   20.203(10)
_cell_length_c                   20.451(12)
_cell_angle_alpha                118.19(3)
_cell_angle_beta                 95.92(7)
_cell_angle_gamma                103.52(5)
_cell_volume                     5331.05
loop_
_atom_site_label
_atom_site_type_symbol
_atom_site_fract_x
_atom_site_fract_y
_atom_site_fract_z
Ca4 Ca 0.52844(17) 0.14350(16) 0.84886(15)
O17 O 0.2430(4) 0.0572(3) 0.7844(3)
O18 O 0.3782(4) 0.0511(3) 0.8228(4)
O25 O 0.5103(9) 0.0923(8) 0.7132(9)
O26 O 0.6527(7) 0.2526(7) 0.8749(8)
C66 C 0.2992(6) 0.0199(4) 0.7766(5)
H75 H 0.6848 0.3045 0.8999
H78 H 0.5016 0.0963 0.6698
H79 H 0.4617 0.0544 0.7017
Ca7 Ca 0.14348(10) 0.12290(8) 0.75551(9)
Ca11 Ca 0.32898(11) 0.17463(9) 0.91040(9)
O27 O 0.6049(5) 0.1704(5) 0.9836(4)
O29 O 0.4796(4) 0.2030(4) 0.9723(3)
O33 O 0.4297(4) 0.2177(3) 0.8427(4)
H80 H 0.644971 0.243053 0.82203
O3 O 0.0191(5) 0.0104(3) 0.7146(4)
O10 O 0.0963(3) 0.3648(3) 0.5104(3)
O12 O 0.0896(4) 0.1875(3) 0.7017(4)
O13 O 0.1035(3) 0.3567(3) 0.2261(3)
O16 O 0.1863(3) 0.6996(3) 0.5306(3)
O19 O 0.3491(4) 0.3073(3) 0.0041(4)
O24 O 0.1832(5) 0.0641(4) 0.6368(4)
N1 N 0.4135(10) 0.4425(6) 0.0746(8)
N2 N 0.3355(9) 0.0496(8) 0.0447(9)
C34 C 0.0760(4) 0.4455(4) 0.4574(4)
C35 C 0.0488(4) 0.4098(4) 0.3786(4)
C36 C 0.0811(4) 0.4520(4) 0.3410(4)
C37 C 0.1462(5) 0.5305(4) 0.3859(5)
C38 C 0.1766(5) 0.5645(4) 0.4648(5)
C39 C 0.1422(4) 0.5223(4) 0.5016(4)
H30 H 0.0085 0.2877 0.3368
C41 C 0.1760(6) 0.5743(4) 0.3432(5)
H31 H 0.2198 0.6271 0.3797
H32 H 0.1224 0.5798 0.3190
H33 H 0.2047 0.5440 0.3038
C42 C 0.1762(5) 0.5617(4) 0.5882(4)
H34 H 0.2218 0.6138 0.6086
H35 H 0.2040 0.5284 0.5998
H36 H 0.1248 0.5681 0.6119
C43 C 0.0341(5) 0.4056(4) 0.4992(5)
H37 H 0.0283 0.4456 0.5492
C44 C 0.0762(5) 0.3319(4) 0.5565(5)
C45 C 0.0060(5) 0.3373(5) 0.5917(5)
C47 C 0.0470(4) 0.2599(4) 0.6445(4)
C48 C 0.1188(5) 0.2531(5) 0.6056(5)
H41 H 0.1569 0.2241 0.6100
C49 C 0.1337(5) 0.2885(5) 0.5614(5)
H42 H 0.1811 0.2835 0.5354
C50 C 0.0335(5) 0.2210(5) 0.6935(5)
C51 C 0.0519(6) 0.4109(5) 0.2549(4)
H44 H 0.0655 0.4500 0.2380
C52 C 0.1000(5) 0.3203(4) 0.1481(4)
C53 C 0.1541(5) 0.2699(4) 0.1238(5)
H45 H 0.1877 0.2626 0.1599
C54 C 0.1587(5) 0.2314(4) 0.0491(5)
H46 H 0.1960 0.1983 0.0340
C56 C 0.0543(5) 0.2910(4) 0.0164(5)
C57 C 0.0487(6) 0.3303(5) 0.0951(5)
H48 H 0.0105 0.3626 0.1107
C59 C 0.2433(5) 0.6475(4) 0.5106(5)
H49 H 0.2815 0.6558 0.5574
H50 H 0.2837 0.6578 0.4798
C60 C 0.2199(5) 0.7768(4) 0.5917(5)
C61 C 0.1604(5) 0.8210(4) 0.6023(5)
H51 H 0.1024 0.7973 0.5669
C62 C 0.1828(6) 0.8982(4) 0.6625(5)
H52 H 0.1400 0.9262 0.6707
C63 C 0.2722(6) 0.9340(5) 0.7116(5)
C64 C 0.3354(6) 0.8935(4) 0.6998(5)
H53 H 0.3956 0.9193 0.7322
C65 C 0.3095(6) 0.8132(5) 0.6391(5)
H54 H 0.3518 0.7847 0.6306
C67 C 0.3323(12) 0.4545(8) 0.1051(11)
H55 H 0.3434 0.5113 0.1391
H56 H 0.3211 0.4273 0.1339
H57 H 0.2789 0.4328 0.0625
C68 C 0.4896(14) 0.5127(10) 0.0880(14)
H58 H 0.5031 0.5558 0.1413
H59 H 0.4709 0.5306 0.0535
H60 H 0.5442 0.4973 0.0780
C69 C 0.4163(8) 0.3698(7) 0.0252(8)
H61 H 0.4689 0.3647 0.0058
H64 H 0.4494 0.0237 0.0701
C72 C 0.3085(17) 0.0977(14) 0.1158(11)
H66 H 0.3142 0.0766 0.1498
H67 H 0.2451 0.0954 0.1025
H68 H 0.3485 0.1529 0.1419
H73 H 0.1749 0.0223 0.5928
H74 H 0.2195 0.1026 0.6343
O31 O 0.2887(3) 0.2244(3) 0.8154(3)
O34 O 0.0601(4) 0.2019(3) 0.8611(3)
O35 O 0.1720(3) 0.1642(3) 0.8942(3)
O20 O 0.2944(4) 0.1094(3) 0.9801(4)
C55 C 0.1058(5) 0.2411(4) 0.9913(5)
H47 H 0.0216 0.2999 0.9810
C58 C 0.1119(5) 0.2012(4) 0.9101(5)
C70 C 0.3318(8) 0.0663(7) 0.9943(8)
H62 H 0.3642 0.0416 0.9577
O1 O 0.7033(3) 0.6947(3) 0.6346(3)
O4 O 0.5843(3) 0.3352(3) 0.3337(3)
O7 O 0.4815(3) 0.3856(3) 0.6406(4)
C1 C 0.6654(4) 0.5494(4) 0.5715(4)
C2 C 0.6279(5) 0.5063(5) 0.4922(4)
C3 C 0.5687(4) 0.4269(4) 0.4580(4)
C4 C 0.5502(4) 0.3909(4) 0.5007(4)
C5 C 0.5883(4) 0.4353(4) 0.5817(4)
C6 C 0.6399(4) 0.5150(4) 0.6165(4)
C7 C 0.6680(5) 0.5664(5) 0.7048(5)
H1 H 0.7046 0.6205 0.7206
H2 H 0.7041 0.5437 0.7256
H3 H 0.6131 0.5677 0.7244
C8 C 0.6529(5) 0.5459(5) 0.4456(5)
H4 H 0.6220 0.5085 0.3914
H5 H 0.7192 0.5614 0.4518
H6 H 0.6335 0.5930 0.4639
C9 C 0.4945(5) 0.3019(5) 0.4614(5)
H7 H 0.4869 0.2875 0.5005
H8 H 0.5270 0.2700 0.4271
H9 H 0.4344 0.2917 0.4318
C10 C 0.7413(4) 0.6283(4) 0.6083(5)
H10 H 0.7836 0.6352 0.6524
H11 H 0.7765 0.6287 0.5707
C11 C 0.7631(5) 0.7660(4) 0.6512(5)
C12 C 0.7323(6) 0.8301(5) 0.6843(6)
H12 H 0.6738 0.8229 0.6949
C13 C 0.7858(6) 0.9063(5) 0.7029(6)
H13 H 0.7613 0.9489 0.7217
C14 C 0.8778(5) 0.9195(4) 0.6934(5)
C15 C 0.9078(5) 0.8535(5) 0.6623(5)
H14 H 0.9675 0.8603 0.6542
C16 C 0.8531(5) 0.7778(4) 0.6424(5)
H15 H 0.8766 0.7347 0.6232
C18 C 0.5269(5) 0.3805(5) 0.3717(5)
H16 H 0.4646 0.3444 0.3597
H17 H 0.5224 0.4176 0.3538
C19 C 0.5665(5) 0.3000(5) 0.2549(5)
C20 C 0.6268(7) 0.2609(6) 0.2195(7)
H18 H 0.6727 0.2559 0.2497
C21 C 0.6216(6) 0.2298(6) 0.1432(6)
H19 H 0.6648 0.2051 0.1218
C22 C 0.5544(5) 0.2337(5) 0.0960(5)
C23 C 0.4901(6) 0.2704(5) 0.1319(5)
H20 H 0.4418 0.2730 0.1018
C24 C 0.4976(4) 0.3024(5) 0.2109(5)
H21 H 0.4540 0.3257 0.2334
C25 C 0.5420(6) 0.1983(5) 0.0119(6)
C26 C 0.5750(5) 0.3964(5) 0.6303(5)
H22 H 0.5852 0.3444 0.6044
H23 H 0.6197 0.4304 0.6808
C27 C 0.4597(5) 0.3475(4) 0.6808(4)
C28 C 0.5191(5) 0.3205(5) 0.7100(6)
H24 H 0.5782 0.3246 0.7006
C29 C 0.4896(5) 0.2866(4) 0.7545(5)
H25 H 0.5307 0.2718 0.7784
C30 C 0.4009(5) 0.2754(4) 0.7626(5)
C31 C 0.3406(5) 0.2976(5) 0.7297(5)
H26 H 0.2800 0.2902 0.7359
C32 C 0.3706(5) 0.3315(5) 0.6865(5)
H27 H 0.3282 0.3437 0.6606
C33 C 0.3713(5) 0.2354(4) 0.8098(4)
C71 C 0.383(2) 0.9999(17) 0.0595(16)
H63 H 0.3684 0.9973 0.1039
H65 H 0.3632 0.9463 0.0144
Ca2 Ca 0.90988(11) 0.18249(10) 0.80093(11)
O2 O 0.8985(5) 0.0534(4) 0.7272(5)
O11 O 0.9677(4) 0.2269(4) 0.7240(4)
O21 O 0.9054(8) 0.3122(5) 0.8869(5)
O22 O 0.8477(5) 0.1411(5) 0.8858(5)
O23 O 0.7601(5) 0.1606(6) 0.7379(6)
C17 C 0.9350(7) 0.0012(5) 0.7160(6)
C40 C 0.9819(5) 0.3236(4) 0.3289(5)
H28 H 0.9711 0.3078 0.2747
H29 H 0.9238 0.3208 0.3438
H38 H 0.9727 0.3670 0.4684
H39 H 0.9660 0.3643 0.5859
C46 C 0.9938(5) 0.3021(5) 0.6369(4)
H40 H 0.9467 0.3081 0.6632
H43 H 0.9855 0.3816 0.2361
H69 H 0.8040 0.1373 0.9073
H70 H 0.8519 0.1847 0.8835
H71 H 0.9117 0.3557 0.9293
H72 H 0.8933 0.3224 0.8512
H76 H 0.7141 0.1370 0.7507
H77 H 0.7522 0.1238 0.6898
O5 O 0.3951(5) 0.8296(5) 0.0164(4)
O6 O 0.5204(4) 0.7970(4) 0.0277(3)
Ca9 Ca 0.67102(11) 0.82537(9) 0.08960(9)
Ca12 Ca 0.47156(17) 0.85650(16) 0.15114(15)
O1_2 O 0.2967(3) 0.3053(3) 0.3654(3)
O4_2 O 0.4157(3) 0.6648(3) 0.6663(3)
O7_2 O 0.5185(3) 0.6144(3) 0.3594(4)
O8 O 0.7113(3) 0.7756(3) 0.1846(3)
O9 O 0.5703(4) 0.7823(3) 0.1573(4)
C1_2 C 0.3346(4) 0.4506(4) 0.4285(4)
C2_2 C 0.3721(5) 0.4937(5) 0.5078(4)
C3_2 C 0.4313(4) 0.5731(4) 0.5420(4)
C4_2 C 0.4498(4) 0.6091(4) 0.4993(4)
C5_2 C 0.4117(4) 0.5647(4) 0.4183(4)
C6_2 C 0.3601(4) 0.4850(4) 0.3835(4)
C7_2 C 0.3320(5) 0.4336(5) 0.2952(5)
H1_2 H 0.2954 0.3795 0.2794
H2_2 H 0.2959 0.4563 0.2744
H3_2 H 0.3869 0.4323 0.2756
C8_2 C 0.3471(5) 0.4541(5) 0.5544(5)
H4_2 H 0.3780 0.4915 0.6086
H5_2 H 0.2808 0.4386 0.5482
H6_2 H 0.3665 0.4070 0.5361
C9_2 C 0.5055(5) 0.6981(5) 0.5386(5)
H7_2 H 0.5131 0.7125 0.4995
H8_2 H 0.4730 0.7300 0.5729
H9_2 H 0.5656 0.7083 0.5682
C10_2 C 0.2587(4) 0.3717(4) 0.3917(5)
H10_2 H 0.2164 0.3648 0.3476
H11_2 H 0.2235 0.3713 0.4293
C11_2 C 0.2369(5) 0.2340(4) 0.3488(5)
C12_2 C 0.2677(6) 0.1699(5) 0.3157(6)
H12_2 H 0.3262 0.1771 0.3051
C13_2 C 0.2142(6) 0.0937(5) 0.2971(6)
H13_2 H 0.2387 0.0511 0.2783
C14_2 C 0.1222(5) 0.0805(4) 0.3066(5)
C15_2 C 0.0922(5) 0.1465(5) 0.3377(5)
H14_2 H 0.0325 0.1397 0.3458
C16_2 C 0.1469(5) 0.2222(4) 0.3576(5)
H15_2 H 0.1234 0.2653 0.3768
C18_2 C 0.4731(5) 0.6195(5) 0.6283(5)
H16_2 H 0.5354 0.6556 0.6403
H17_2 H 0.4776 0.5824 0.6462
C19_2 C 0.4335(5) 0.7000(5) 0.7451(5)
C20_2 C 0.3732(7) 0.7391(6) 0.7805(7)
H18_2 H 0.3273 0.7441 0.7503
C21_2 C 0.3784(6) 0.7702(6) 0.8568(6)
H19_2 H 0.3352 0.7949 0.8782
C22_2 C 0.4456(5) 0.7663(5) 0.9040(5)
C23_2 C 0.5099(6) 0.7296(5) 0.8681(5)
H20_2 H 0.5582 0.7270 0.8982
C24_2 C 0.5024(4) 0.6976(5) 0.7891(5)
H21_2 H 0.5460 0.6743 0.7666
C25_2 C 0.4580(6) 0.8017(5) 0.9881(6)
C26_2 C 0.4250(5) 0.6036(5) 0.3697(5)
H22_2 H 0.4148 0.6556 0.3956
H23_2 H 0.3803 0.5696 0.3192
C27_2 C 0.5403(5) 0.6525(4) 0.3192(4)
C28_2 C 0.4809(5) 0.6795(5) 0.2900(6)
H24_2 H 0.4218 0.6754 0.2994
C29_2 C 0.5104(5) 0.7134(4) 0.2455(5)
H25_2 H 0.4693 0.7282 0.2216
C30_2 C 0.5991(5) 0.7246(4) 0.2374(5)
C31_2 C 0.6594(5) 0.7024(5) 0.2703(5)
H26_2 H 0.7200 0.7098 0.2641
C32_2 C 0.6294(5) 0.6685(5) 0.3135(5)
H27_2 H 0.6718 0.6563 0.3394
C33_2 C 0.6287(5) 0.7646(4) 0.1902(4)
Ca5 Ca 0.85652(10) 0.87710(8) 0.24449(9)
O14 O 0.9399(4) 0.7981(3) 0.1389(3)
O15 O 0.8280(3) 0.8358(3) 0.1058(3)
O20_2 O 0.7056(4) 0.8906(3) 0.0199(4)
C55_2 C 0.8942(5) 0.7589(4) 0.0087(5)
H47_2 H 0.9784 0.7001 0.0190
C58_2 C 0.8881(5) 0.7988(4) 0.0899(5)
C70_2 C 0.6682(8) 0.9337(7) 0.0057(8)
H62_2 H 0.6358 0.9584 0.0423
O36 O 0.7570(4) 0.9428(3) 0.2156(3)
O38 O 0.6218(4) 0.9489(3) 0.1772(4)
O3_2 O 0.9809(5) 0.9896(3) 0.2854(4)
O10_2 O 0.9037(3) 0.6352(3) 0.4896(3)
O12_2 O 0.9104(4) 0.8125(3) 0.2983(4)
O13_2 O 0.8965(3) 0.6433(3) 0.7739(3)
O16_2 O 0.8137(3) 0.3004(3) 0.4694(3)
O19_2 O 0.6509(4) 0.6927(3) 0.9959(4)
O24_2 O 0.8168(5) 0.9359(4) 0.3632(4)
N1_2 N 0.5865(10) 0.5575(6) 0.9254(8)
N2_2 N 0.6645(9) 0.9504(8) 0.9553(9)
C34_2 C 0.9240(4) 0.5545(4) 0.5426(4)
C35_2 C 0.9512(4) 0.5902(4) 0.6214(4)
C36_2 C 0.9189(4) 0.5480(4) 0.6590(4)
C37_2 C 0.8538(5) 0.4695(4) 0.6141(5)
C38_2 C 0.8234(5) 0.4355(4) 0.5352(5)
C39_2 C 0.8578(4) 0.4777(4) 0.4984(4)
H30_2 H 0.9915 0.7123 0.6632
C41_2 C 0.8240(6) 0.4257(4) 0.6568(5)
H31_2 H 0.7802 0.3729 0.6203
H32_2 H 0.8776 0.4202 0.6810
H33_2 H 0.7953 0.4560 0.6962
C42_2 C 0.8238(5) 0.4383(4) 0.4118(4)
H34_2 H 0.7782 0.3862 0.3914
H35_2 H 0.7960 0.4716 0.4002
H36_2 H 0.8752 0.4319 0.3881
C43_2 C 0.9659(5) 0.5944(4) 0.5008(5)
H37_2 H 0.9717 0.5544 0.4508
C44_2 C 0.9238(5) 0.6681(4) 0.4435(5)
C45_2 C 0.9940(5) 0.6627(5) 0.4083(5)
C47_2 C 0.9530(4) 0.7401(4) 0.3555(4)
C48_2 C 0.8812(5) 0.7469(5) 0.3944(5)
H41_2 H 0.8431 0.7759 0.3900
C49_2 C 0.8663(5) 0.7115(5) 0.4386(5)
H42_2 H 0.8189 0.7165 0.4646
C50_2 C 0.9665(5) 0.7790(5) 0.3065(5)
C51_2 C 0.9481(6) 0.5891(5) 0.7451(4)
H44_2 H 0.9345 0.5500 0.7620
C52_2 C 0.9000(5) 0.6797(4) 0.8519(4)
C53_2 C 0.8459(5) 0.7301(4) 0.8762(5)
H45_2 H 0.8123 0.7374 0.8401
C54_2 C 0.8413(5) 0.7686(4) 0.9509(5)
H46_2 H 0.8040 0.8017 0.9660
C56_2 C 0.9457(5) 0.7090(4) 0.9836(5)
C57_2 C 0.9513(6) 0.6697(5) 0.9049(5)
H48_2 H 0.9895 0.6374 0.8893
C59_2 C 0.7567(5) 0.3525(4) 0.4894(5)
H49_2 H 0.7185 0.3442 0.4426
H50_2 H 0.7163 0.3422 0.5202
C60_2 C 0.7801(5) 0.2232(4) 0.4083(5)
C61_2 C 0.8396(5) 0.1790(4) 0.3977(5)
H51_2 H 0.8976 0.2027 0.4331
C62_2 C 0.8172(6) 0.1018(4) 0.3375(5)
H52_2 H 0.8600 0.0738 0.3293
C63_2 C 0.7278(6) 0.0660(5) 0.2884(5)
C64_2 C 0.6646(6) 0.1065(4) 0.3002(5)
H53_2 H 0.6044 0.0807 0.2678
C65_2 C 0.6905(6) 0.1868(5) 0.3609(5)
H54_2 H 0.6482 0.2153 0.3694
C67_2 C 0.6677(12) 0.5455(8) 0.8949(11)
H55_2 H 0.6566 0.4887 0.8609
H56_2 H 0.6789 0.5727 0.8661
H57_2 H 0.7211 0.5672 0.9375
C68_2 C 0.5104(14) 0.4873(10) 0.9120(14)
H58_2 H 0.4969 0.4442 0.8587
H59_2 H 0.5291 0.4694 0.9465
H60_2 H 0.4558 0.5027 0.9220
C69_2 C 0.5837(8) 0.6302(7) 0.9748(8)
H61_2 H 0.5311 0.6353 0.9942
H64_2 H 0.5506 0.9763 0.9299
C72_2 C 0.6915(17) 0.9023(14) 0.8842(11)
H66_2 H 0.6858 0.9234 0.8502
H67_2 H 0.7549 0.9046 0.8975
H68_2 H 0.6515 0.8471 0.8581
H73_2 H 0.8251 0.9777 0.4072
H74_2 H 0.7805 0.8974 0.3657
O25_2 O 0.4897(9) 0.9077(8) 0.2868(9)
O26_2 O 0.3473(7) 0.7474(7) 0.1251(8)
C66_2 C 0.7008(6) 0.9801(4) 0.2234(5)
H75_2 H 0.3152 0.6955 0.1001
H78_2 H 0.4984 0.9037 0.3302
H79_2 H 0.5383 0.9456 0.2983
H80_2 H 0.355029 0.756947 0.17797
Ca8 Ca 0.09012(11) 0.81751(10) 0.19907(11)
O2_2 O 0.1015(5) 0.9466(4) 0.2728(5)
O11_2 O 0.0323(4) 0.7731(4) 0.2760(4)
O21_2 O 0.0946(8) 0.6878(5) 0.1131(5)
O22_2 O 0.1523(5) 0.8589(5) 0.1142(5)
O23_2 O 0.2399(5) 0.8394(6) 0.2621(6)
C17_2 C 0.0650(7) 0.9988(5) 0.2840(6)
C40_2 C 0.0181(5) 0.6764(4) 0.6711(5)
H28_2 H 0.0289 0.6922 0.7253
H29_2 H 0.0762 0.6792 0.6562
H38_2 H 0.0273 0.6330 0.5316
H39_2 H 0.0340 0.6357 0.4141
C46_2 C 0.0062(5) 0.6979(5) 0.3631(4)
H40_2 H 0.0533 0.6919 0.3368
H43_2 H 0.0145 0.6184 0.7639
H69_2 H 0.1960 0.8627 0.0927
H70_2 H 0.1481 0.8153 0.1165
H71_2 H 0.0883 0.6443 0.0707
H72_2 H 0.1067 0.6776 0.1488
H76_2 H 0.2859 0.8630 0.2493
H77_2 H 0.2478 0.8762 0.3102
C71_2 C 0.617(2) 0.0001(17) 0.9405(16)
H63_2 H 0.6316 0.0027 0.8961
H65_2 H 0.6368 0.0537 0.9856
Cl1 Cl 0.0319(16) 0.9519(13) 0.8792(8)
Cl1_2 Cl 0.9681(16) 0.0481(13) 0.1208(8)
loop_
_geom_bond_atom_site_label_1
_geom_bond_atom_site_label_2
_geom_bond_site_symmetry_1
_geom_bond_site_symmetry_2
Ca4 O18 1_555 1_555
O17 C66 1_555 1_555
O18 C66 1_555 1_555
O25 Ca4 1_555 1_555
O26 Ca4 1_555 1_555
H75 O26 1_555 1_555
H78 O25 1_555 1_555
H79 O25 1_555 1_555
Ca7 O17 1_555 1_555
Ca11 O17 1_555 1_555
O27 Ca4 1_555 1_555
O29 Ca4 1_555 1_555
O33 Ca4 1_555 1_555
O18 Ca11 1_555 1_555
Ca11 O29 1_555 1_555
Ca11 O33 1_555 1_555
O26 H80 1_555 1_555
Ca7 O3 1_555 1_555
O10 C43 1_555 1_555
O12 Ca7 1_555 1_555
O13 C51 1_555 1_555
O16 C59 1_555 1_555
O24 Ca7 1_555 1_555
N1 C67 1_555 1_555
C34 C35 1_555 1_555
C35 C36 1_555 1_555
C36 C37 1_555 1_555
C37 C38 1_555 1_555
C38 C39 1_555 1_555
C39 C34 1_555 1_555
C41 C37 1_555 1_555
H31 C41 1_555 1_555
H32 C41 1_555 1_555
H33 C41 1_555 1_555
C42 C39 1_555 1_555
H34 C42 1_555 1_555
H35 C42 1_555 1_555
H36 C42 1_555 1_555
C43 C34 1_555 1_555
H37 C43 1_555 1_555
C44 O10 1_555 1_555
C45 C44 1_555 1_555
C48 C47 1_555 1_555
H41 C48 1_555 1_555
C49 C44 1_555 1_555
H42 C49 1_555 1_555
C51 C36 1_555 1_555
H44 C51 1_555 1_555
C52 O13 1_555 1_555
C53 C52 1_555 1_555
H45 C53 1_555 1_555
C54 C53 1_555 1_555
H46 C54 1_555 1_555
C57 C52 1_555 1_555
H48 C57 1_555 1_555
C59 C38 1_555 1_555
H49 C59 1_555 1_555
H50 C59 1_555 1_555
C60 O16 1_555 1_555
C61 C60 1_555 1_555
H51 C61 1_555 1_555
C62 C61 1_555 1_555
H52 C62 1_555 1_555
C63 C62 1_555 1_555
C64 C63 1_555 1_555
H53 C64 1_555 1_555
C65 C60 1_555 1_555
H54 C65 1_555 1_555
C67 H55 1_555 1_555
H56 C67 1_555 1_555
H57 C67 1_555 1_555
C68 N1 1_555 1_555
H58 C68 1_555 1_555
H59 C68 1_555 1_555
H60 C68 1_555 1_555
C69 O19 1_555 1_555
H61 C69 1_555 1_555
C72 N2 1_555 1_555
H66 C72 1_555 1_555
H67 C72 1_555 1_555
H68 C72 1_555 1_555
H73 O24 1_555 1_555
H74 O24 1_555 1_555
O31 Ca7 1_555 1_555
O34 Ca7 1_555 1_555
O35 Ca7 1_555 1_555
O12 C50 1_555 1_555
N1 C69 1_555 1_555
C47 C50 1_555 1_555
C48 C49 1_555 1_555
C56 C57 1_555 1_555
C64 C65 1_555 1_555
Ca11 O35 1_555 1_555
O34 C58 1_555 1_555
O35 C58 1_555 1_555
O20 Ca11 1_555 1_555
C58 C55 1_555 1_555
C70 O20 1_555 1_555
H62 C70 1_555 1_555
O31 Ca11 1_555 1_555
O1 C10 1_555 1_555
O4 C18 1_555 1_555
O7 C26 1_555 1_555
O31 C33 1_555 1_555
O33 C33 1_555 1_555
C1 C2 1_555 1_555
C2 C3 1_555 1_555
C3 C4 1_555 1_555
C4 C5 1_555 1_555
C5 C6 1_555 1_555
C6 C1 1_555 1_555
C7 C6 1_555 1_555
H1 C7 1_555 1_555
H2 C7 1_555 1_555
H3 C7 1_555 1_555
C8 C2 1_555 1_555
H4 C8 1_555 1_555
H5 C8 1_555 1_555
H6 C8 1_555 1_555
C9 C4 1_555 1_555
H7 C9 1_555 1_555
H8 C9 1_555 1_555
H9 C9 1_555 1_555
C10 C1 1_555 1_555
H10 C10 1_555 1_555
H11 C10 1_555 1_555
C11 O1 1_555 1_555
C12 C11 1_555 1_555
H12 C12 1_555 1_555
C13 C12 1_555 1_555
H13 C13 1_555 1_555
C14 C13 1_555 1_555
C15 C14 1_555 1_555
H14 C15 1_555 1_555
C16 C11 1_555 1_555
H15 C16 1_555 1_555
C18 C3 1_555 1_555
H16 C18 1_555 1_555
H17 C18 1_555 1_555
C19 O4 1_555 1_555
C20 C19 1_555 1_555
H18 C20 1_555 1_555
C21 C20 1_555 1_555
H19 C21 1_555 1_555
C22 C21 1_555 1_555
C23 C22 1_555 1_555
H20 C23 1_555 1_555
C24 C19 1_555 1_555
H21 C24 1_555 1_555
C25 C22 1_555 1_555
C26 C5 1_555 1_555
H22 C26 1_555 1_555
H23 C26 1_555 1_555
C27 O7 1_555 1_555
C28 C27 1_555 1_555
H24 C28 1_555 1_555
C29 C28 1_555 1_555
H25 C29 1_555 1_555
C30 C29 1_555 1_555
C31 C30 1_555 1_555
H26 C31 1_555 1_555
C32 C27 1_555 1_555
H27 C32 1_555 1_555
C33 C30 1_555 1_555
C15 C16 1_555 1_555
C23 C24 1_555 1_555
C31 C32 1_555 1_555
H63 C71 1_555 1_555
H65 C71 1_555 1_555
Ca2 O2 1_555 1_555
O2 C17 1_555 1_555
O11 Ca2 1_555 1_555
O21 Ca2 1_555 1_555
O22 Ca2 1_555 1_555
O23 Ca2 1_555 1_555
H28 C40 1_555 1_555
H29 C40 1_555 1_555
H40 C46 1_555 1_555
H69 O22 1_555 1_555
H70 O22 1_555 1_555
H71 O21 1_555 1_555
H72 O21 1_555 1_555
H76 O23 1_555 1_555
H77 O23 1_555 1_555
Ca9 O6 1_555 1_555
Ca12 O5 1_555 1_555
O6 Ca12 1_555 1_555
O1_2 C10_2 1_555 1_555
O4_2 C18_2 1_555 1_555
O7_2 C26_2 1_555 1_555
O8 C33_2 1_555 1_555
O9 C33_2 1_555 1_555
C1_2 C2_2 1_555 1_555
C2_2 C3_2 1_555 1_555
C3_2 C4_2 1_555 1_555
C4_2 C5_2 1_555 1_555
C5_2 C6_2 1_555 1_555
C6_2 C1_2 1_555 1_555
C7_2 C6_2 1_555 1_555
H1_2 C7_2 1_555 1_555
H2_2 C7_2 1_555 1_555
H3_2 C7_2 1_555 1_555
C8_2 C2_2 1_555 1_555
H4_2 C8_2 1_555 1_555
H5_2 C8_2 1_555 1_555
H6_2 C8_2 1_555 1_555
C9_2 C4_2 1_555 1_555
H7_2 C9_2 1_555 1_555
H8_2 C9_2 1_555 1_555
H9_2 C9_2 1_555 1_555
C10_2 C1_2 1_555 1_555
H10_2 C10_2 1_555 1_555
H11_2 C10_2 1_555 1_555
C11_2 O1_2 1_555 1_555
C12_2 C11_2 1_555 1_555
H12_2 C12_2 1_555 1_555
C13_2 C12_2 1_555 1_555
H13_2 C13_2 1_555 1_555
C14_2 C13_2 1_555 1_555
C15_2 C14_2 1_555 1_555
H14_2 C15_2 1_555 1_555
C16_2 C11_2 1_555 1_555
H15_2 C16_2 1_555 1_555
C18_2 C3_2 1_555 1_555
H16_2 C18_2 1_555 1_555
H17_2 C18_2 1_555 1_555
C19_2 O4_2 1_555 1_555
C20_2 C19_2 1_555 1_555
H18_2 C20_2 1_555 1_555
C21_2 C20_2 1_555 1_555
H19_2 C21_2 1_555 1_555
C22_2 C21_2 1_555 1_555
C23_2 C22_2 1_555 1_555
H20_2 C23_2 1_555 1_555
C24_2 C19_2 1_555 1_555
H21_2 C24_2 1_555 1_555
C25_2 C22_2 1_555 1_555
C26_2 C5_2 1_555 1_555
H22_2 C26_2 1_555 1_555
H23_2 C26_2 1_555 1_555
C27_2 O7_2 1_555 1_555
C28_2 C27_2 1_555 1_555
H24_2 C28_2 1_555 1_555
C29_2 C28_2 1_555 1_555
H25_2 C29_2 1_555 1_555
C30_2 C29_2 1_555 1_555
C31_2 C30_2 1_555 1_555
H26_2 C31_2 1_555 1_555
C32_2 C27_2 1_555 1_555
H27_2 C32_2 1_555 1_555
C33_2 C30_2 1_555 1_555
Ca5 O8 1_555 1_555
Ca9 O8 1_555 1_555
Ca12 O9 1_555 1_555
O9 Ca9 1_555 1_555
C15_2 C16_2 1_555 1_555
C23_2 C24_2 1_555 1_555
C31_2 C32_2 1_555 1_555
Ca9 O15 1_555 1_555
O14 C58_2 1_555 1_555
O15 C58_2 1_555 1_555
O20_2 Ca9 1_555 1_555
C58_2 C55_2 1_555 1_555
C70_2 O20_2 1_555 1_555
H62_2 C70_2 1_555 1_555
Ca5 O14 1_555 1_555
O36 Ca9 1_555 1_555
O38 Ca9 1_555 1_555
O15 Ca5 1_555 1_555
Ca5 O36 1_555 1_555
Ca5 O3_2 1_555 1_555
O10_2 C43_2 1_555 1_555
O12_2 Ca5 1_555 1_555
O13_2 C51_2 1_555 1_555
O16_2 C59_2 1_555 1_555
O24_2 Ca5 1_555 1_555
N1_2 C67_2 1_555 1_555
C34_2 C35_2 1_555 1_555
C35_2 C36_2 1_555 1_555
C36_2 C37_2 1_555 1_555
C37_2 C38_2 1_555 1_555
C38_2 C39_2 1_555 1_555
C39_2 C34_2 1_555 1_555
C41_2 C37_2 1_555 1_555
H31_2 C41_2 1_555 1_555
H32_2 C41_2 1_555 1_555
H33_2 C41_2 1_555 1_555
C42_2 C39_2 1_555 1_555
H34_2 C42_2 1_555 1_555
H35_2 C42_2 1_555 1_555
H36_2 C42_2 1_555 1_555
C43_2 C34_2 1_555 1_555
H37_2 C43_2 1_555 1_555
C44_2 O10_2 1_555 1_555
C45_2 C44_2 1_555 1_555
C48_2 C47_2 1_555 1_555
H41_2 C48_2 1_555 1_555
C49_2 C44_2 1_555 1_555
H42_2 C49_2 1_555 1_555
C51_2 C36_2 1_555 1_555
H44_2 C51_2 1_555 1_555
C52_2 O13_2 1_555 1_555
C53_2 C52_2 1_555 1_555
H45_2 C53_2 1_555 1_555
C54_2 C53_2 1_555 1_555
H46_2 C54_2 1_555 1_555
C57_2 C52_2 1_555 1_555
H48_2 C57_2 1_555 1_555
C59_2 C38_2 1_555 1_555
H49_2 C59_2 1_555 1_555
H50_2 C59_2 1_555 1_555
C60_2 O16_2 1_555 1_555
C61_2 C60_2 1_555 1_555
H51_2 C61_2 1_555 1_555
C62_2 C61_2 1_555 1_555
H52_2 C62_2 1_555 1_555
C63_2 C62_2 1_555 1_555
C64_2 C63_2 1_555 1_555
H53_2 C64_2 1_555 1_555
C65_2 C60_2 1_555 1_555
H54_2 C65_2 1_555 1_555
C67_2 H55_2 1_555 1_555
H56_2 C67_2 1_555 1_555
H57_2 C67_2 1_555 1_555
C68_2 N1_2 1_555 1_555
H58_2 C68_2 1_555 1_555
H59_2 C68_2 1_555 1_555
H60_2 C68_2 1_555 1_555
C69_2 O19_2 1_555 1_555
H61_2 C69_2 1_555 1_555
C72_2 N2_2 1_555 1_555
H66_2 C72_2 1_555 1_555
H67_2 C72_2 1_555 1_555
H68_2 C72_2 1_555 1_555
H73_2 O24_2 1_555 1_555
H74_2 O24_2 1_555 1_555
O12_2 C50_2 1_555 1_555
N1_2 C69_2 1_555 1_555
C47_2 C50_2 1_555 1_555
C48_2 C49_2 1_555 1_555
C56_2 C57_2 1_555 1_555
C64_2 C65_2 1_555 1_555
Ca12 O38 1_555 1_555
O36 C66_2 1_555 1_555
O38 C66_2 1_555 1_555
O25_2 Ca12 1_555 1_555
O26_2 Ca12 1_555 1_555
H75_2 O26_2 1_555 1_555
H78_2 O25_2 1_555 1_555
H79_2 O25_2 1_555 1_555
O26_2 H80_2 1_555 1_555
Ca8 O2_2 1_555 1_555
O2_2 C17_2 1_555 1_555
O11_2 Ca8 1_555 1_555
O21_2 Ca8 1_555 1_555
O22_2 Ca8 1_555 1_555
O23_2 Ca8 1_555 1_555
H28_2 C40_2 1_555 1_555
H29_2 C40_2 1_555 1_555
H40_2 C46_2 1_555 1_555
H69_2 O22_2 1_555 1_555
H70_2 O22_2 1_555 1_555
H71_2 O21_2 1_555 1_555
H72_2 O21_2 1_555 1_555
H76_2 O23_2 1_555 1_555
H77_2 O23_2 1_555 1_555
H63_2 C71_2 1_555 1_555
H65_2 C71_2 1_555 1_555

#END
