
###############################################################################
#
# This file contains modified crystal structure data generated from the
# MOF subset of the Cambridge Structural Database (CSD) v543 
# hosted by the Cambridge Crystallographic Data Centre (CCDC).
#
# This work is licensed under the Creative Commons
# Attribution-NonCommercial-ShareAlike 4.0 International License.
# To view a copy of this license, visit
# http://creativecommons.org/licenses/by-nc-sa/4.0/
# or send a letter to
# Creative Commons, PO Box 1866, Mountain View, CA 94042, USA.
#
# CIF created using the CSD Python API on 29 September 2022
# The structure has been converted into the P1 space group
# The structure has a 3D framework
# The original CSD entry OBIBAF is in the monoclinic crystal system
# The framework has been calculated to contain at least 10.0% void space
# The void calculation uses a probe of radius 1.32A, grid spacing 0.4
#
###############################################################################

data_OBIBAF
_chemical_formula_moiety         '(C312 H336 Mg16 N8 O106)n'
_symmetry_cell_setting           triclinic
_symmetry_space_group_name_H-M   'P 1'
_symmetry_Int_Tables_number      1
_space_group_name_Hall           'P 1'
loop_
_symmetry_equiv_pos_site_id
_symmetry_equiv_pos_as_xyz
1 x,y,z
_cell_length_a                   16.746(6)
_cell_length_b                   34.094(13)
_cell_length_c                   19.114(8)
_cell_angle_alpha                90
_cell_angle_beta                 104.321(6)
_cell_angle_gamma                90
_cell_volume                     10573.8
loop_
_atom_site_label
_atom_site_type_symbol
_atom_site_fract_x
_atom_site_fract_y
_atom_site_fract_z
Mg4 Mg 0.20476(8) 0.34618(4) 0.03863(8)
O14 O 0.1470(2) 0.29703(12) 0.0368(3)
C61 C 0.0673(4) 0.1818(2) 0.0359(8)
H51 H 0.1042 0.1612 0.0555
C62 C 0.0954(5) 0.2195(2) 0.0373(8)
H52 H 0.1526 0.2248 0.0546
C63 C 0.0409(4) 0.25024(18) 0.0136(5)
C66 C 0.0712(3) 0.29138(17) 0.0154(4)
O34 O 0.24223(19) 0.38571(12) 0.11923(19)
O36 O 0.11155(17) 0.38153(9) 0.07511(15)
O37 O 0.31260(18) 0.32777(9) 0.03045(17)
O7 O 0.46154(19) 0.11985(9) 0.04791(18)
O9 O 0.69040(18) 0.26994(9) 0.07617(18)
O15 O 0.0189(2) 0.31718(10) 0.99564(18)
C1 C 0.3505(2) 0.00665(12) 0.0582(2)
C5 C 0.3750(2) 0.06678(12) 0.0003(2)
C6 C 0.3541(2) 0.04757(13) 0.0574(2)
C9 C 0.3353(3) 0.07064(15) 0.1189(2)
H7 H 0.3219 0.0525 0.1542
H8 H 0.3836 0.0863 0.1423
H9 H 0.2884 0.0881 0.1002
H10 H 0.2874 0.0016 0.1385
C26 C 0.3821(3) 0.11056(14) 0.0010(3)
H23 H 0.3375 0.1225 0.0195
C27 C 0.4939(3) 0.15655(13) 0.0426(3)
C30 C 0.5729(3) 0.22824(14) 0.0403(3)
C31 C 0.6070(3) 0.19983(16) 0.0912(3)
H26 H 0.6576 0.2049 0.1255
C32 C 0.5679(4) 0.16426(16) 0.0922(3)
H27 H 0.5919 0.1450 0.1270
C33 C 0.6189(3) 0.26552(13) 0.0365(2)
C69 C 0.1601(3) 0.02090(17) 0.5097(3)
H58 H 0.1879 0.0336 0.4762
H59 H 0.1167 0.0382 0.5182
H60 H 0.2002 0.0157 0.5555
Mg8 Mg 0.70597(8) 0.32238(4) 0.01772(7)
O32 O 0.17725(18) 0.37251(10) 0.94328(16)
O8 O 0.58687(16) 0.29197(8) 0.99159(16)
C3 C 0.3986(2) 0.00440(12) 0.94878(19)
C4 C 0.3964(2) 0.04497(14) 0.9449(2)
C8 C 0.4144(3) 0.06660(16) 0.8797(3)
H4 H 0.4101 0.0950 0.8863
H5 H 0.4702 0.0601 0.8759
H6 H 0.3743 0.0585 0.8355
H22 H 0.3783 0.1206 0.9517
C28 C 0.4586(3) 0.18510(13) 0.9931(2)
H24 H 0.4069 0.1804 0.9601
C29 C 0.4985(3) 0.22028(13) 0.9919(2)
H25 H 0.4745 0.2395 0.9570
Mg6 Mg 0.48930(8) 0.33232(4) 0.96828(7)
Mg9 Mg 0.00449(8) 0.87504(4) 0.49347(7)
Mg1 Mg 0.51070(8) 0.83232(4) 0.53172(7)
Mg2 Mg 0.29403(8) 0.82238(4) 0.48228(7)
O1 O 0.39749(17) 0.97587(10) 0.17212(15)
O2 O 0.45717(19) 0.86622(9) 0.44583(17)
O3 O 0.32171(18) 0.85838(9) 0.40636(16)
O19 O 0.5802(2) 0.79930(10) 0.62002(19)
O20 O 0.0408(2) 0.93247(10) 0.47927(17)
O21 O 0.60953(17) 0.87274(9) 0.55353(16)
O22 O 0.68740(18) 0.82777(9) 0.46955(17)
O23 O 0.56709(17) 0.80005(9) 0.46649(17)
O24 O 0.25251(19) 0.78293(10) 0.55073(19)
O25 O 0.11934(17) 0.86774(10) 0.56491(15)
O26 O 0.05011(17) 0.86140(10) 0.40476(16)
O27 O 0.17636(17) 0.84088(10) 0.45246(16)
N1 N 0.1231(2) 0.98360(12) 0.4782(2)
C2 C 0.3747(2) 0.98463(13) 0.0043(2)
C7 C 0.3752(3) 0.94052(13) 0.0061(2)
H1 H 0.3569 0.9314 0.0482
H3 H 0.4312 0.9310 0.0092
C10 C 0.3244(2) 0.98499(14) 0.1180(2)
H11 H 0.2946 0.9606 0.0990
C11 C 0.3905(3) 0.95137(14) 0.2269(2)
C12 C 0.4625(3) 0.94002(15) 0.2742(2)
H12 H 0.5134 0.9499 0.2680
C13 C 0.4629(3) 0.91473(15) 0.3304(3)
H13 H 0.5137 0.9069 0.3617
C14 C 0.3891(3) 0.90061(14) 0.3414(2)
C15 C 0.3162(3) 0.91259(15) 0.2943(3)
H14 H 0.2653 0.9032 0.3011
C16 C 0.3156(3) 0.93770(16) 0.2379(3)
H15 H 0.2649 0.9457 0.2067
C17 C 0.3890(3) 0.87289(13) 0.4021(2)
H41 H 0.0016 0.9183 0.7012
C67 C 0.0821(4) 0.96836(18) 0.5887(3)
H55 H 0.1172 0.9911 0.6058
H56 H 0.0258 0.9738 0.5923
H57 H 0.1036 0.9455 0.6184
C68 C 0.0816(3) 0.96021(15) 0.5119(3)
C70 C 0.1262(4) 0.97592(19) 0.4041(3)
H61 H 0.1595 0.9961 0.3883
H62 H 0.1510 0.9501 0.4013
H63 H 0.0702 0.9763 0.3728
C71 C 0.6339(3) 0.80102(14) 0.4506(2)
C72 C 0.6561(4) 0.7666(2) 0.4095(4)
H64 H 0.7104 0.7710 0.4002
H65 H 0.6575 0.7426 0.4380
H66 H 0.6148 0.7638 0.3634
C73 C 0.1172(3) 0.84707(14) 0.3992(2)
C74 C 0.1271(3) 0.8392(2) 0.3252(3)
H67 H 0.0757 0.8454 0.2896
H68 H 0.1718 0.8554 0.3162
H69 H 0.1404 0.8114 0.3210
C75 C 0.6317(8) 0.8337(3) 0.7305(4)
H70 H 0.6843 0.8389 0.7655
H71 H 0.6070 0.8586 0.7104
H72 H 0.5943 0.8203 0.7547
N2 N 0.7302(7) 0.7954(3) 0.6751(6)
C76 C 0.7381(8) 0.7660(4) 0.6177(7)
H73 H 0.7961 0.7588 0.6244
H74 H 0.7058 0.7425 0.6219
H75 H 0.7174 0.7777 0.5698
C77 C 0.6466(5) 0.8081(3) 0.6703(5)
C78 C 0.8053(11) 0.8085(5) 0.7322(9)
H76 H 0.8545 0.7958 0.7238
H77 H 0.8111 0.8371 0.7297
H78 H 0.7988 0.8012 0.7801
H79 H 0.6240 0.8943 0.5384
H80 H 0.6519 0.8634 0.5837
H81 H 0.2437 0.7641 0.5779
H82 H 0.2045 0.7913 0.5281
H83 H 0.1431 0.8584 0.6063
H84 H 0.1557 0.8684 0.5403
Mg13 Mg 0.79524(8) 0.84618(4) 0.46137(8)
O28 O 0.32177(18) 0.85958(9) 0.56548(16)
O29 O 0.45896(18) 0.86150(10) 0.60329(17)
O30 O 0.41313(16) 0.79197(8) 0.50841(16)
O31 O 0.30960(18) 0.76994(9) 0.42383(18)
O4 O 0.35688(16) 0.96617(10) 0.84183(15)
H2 H 0.3379 0.9304 0.9619
C18 C 0.4288(3) 0.98111(15) 0.8939(2)
H16 H 0.4618 0.9980 0.8695
H17 H 0.4639 0.9591 0.9176
C19 C 0.3692(2) 0.94323(13) 0.7875(2)
C20 C 0.4458(3) 0.93536(15) 0.7744(2)
H18 H 0.4943 0.9465 0.8043
C21 C 0.4508(3) 0.91095(14) 0.7170(2)
H19 H 0.5034 0.9051 0.7092
C22 C 0.3821(3) 0.89517(13) 0.6718(2)
C23 C 0.3062(3) 0.90397(14) 0.6849(3)
H20 H 0.2576 0.8936 0.6537
C24 C 0.2993(3) 0.92726(16) 0.7419(2)
H21 H 0.2466 0.9324 0.7501
C25 C 0.3884(3) 0.87017(12) 0.6090(2)
O13 O 0.9636(3) 0.13467(13) 0.0028(4)
C36 C 0.8482(2) 0.02443(13) 0.0451(2)
C37 C 0.8545(3) 0.06509(13) 0.0402(2)
C41 C 0.8417(3) 0.09084(17) 0.1018(3)
H31 H 0.8276 0.0743 0.1390
H32 H 0.8925 0.1053 0.1228
H33 H 0.7968 0.1094 0.0832
C51 C 0.8156(2) 0.00611(15) 0.1039(2)
H43 H 0.7804 0.0251 0.1217
H50 H 0.8438 0.1377 0.0023
C60 C 0.9844(4) 0.1736(2) 0.0056(6)
Mg10 Mg 0.99551(8) 0.37504(4) 0.00653(7)
O16 O 0.88527(17) 0.99485(10) 0.16216(15)
O17 O 0.75777(19) 0.88571(12) 0.38077(19)
O18 O 0.88845(17) 0.88153(9) 0.42489(15)
C40 C 0.8722(3) 0.95519(14) 0.0049(3)
H28 H 0.8534 0.9489 0.0483
H30 H 0.9279 0.9449 0.0100
H44 H 0.7820 0.9828 0.0851
C52 C 0.8683(3) 0.97152(14) 0.2151(2)
C53 C 0.7896(3) 0.96635(17) 0.2248(3)
H45 H 0.7440 0.9794 0.1942
C54 C 0.7781(3) 0.94241(16) 0.2787(3)
H46 H 0.7242 0.9392 0.2855
C55 C 0.8438(3) 0.92266(14) 0.3238(2)
C56 C 0.9225(3) 0.93010(15) 0.3149(2)
H47 H 0.9690 0.9185 0.3472
C57 C 0.9340(3) 0.95373(15) 0.2608(2)
H48 H 0.9880 0.9579 0.2548
C58 C 0.8292(2) 0.89626(14) 0.3796(2)
O10 O 0.85385(18) 0.97720(12) 0.83368(16)
O11 O 0.95634(17) 0.88950(10) 0.57793(16)
O12 O 0.82275(18) 0.87251(10) 0.55672(16)
C35 C 0.8729(2) 0.99918(14) 0.9954(2)
H29 H 0.8347 0.9433 0.9626
C43 C 0.9263(3) 0.99060(18) 0.8863(2)
H38 H 0.9571 0.9680 0.9124
C44 C 0.8669(3) 0.95452(17) 0.7780(2)
C45 C 0.7959(3) 0.94167(17) 0.7283(2)
H39 H 0.7430 0.9481 0.7348
C46 C 0.8029(3) 0.91995(16) 0.6704(2)
H40 H 0.7544 0.9103 0.6380
C47 C 0.8792(3) 0.91157(15) 0.6576(2)
C48 C 0.9487(3) 0.92453(15) 0.7081(2)
C49 C 0.9435(3) 0.94597(17) 0.7674(2)
H42 H 0.9920 0.9548 0.8008
C50 C 0.8867(3) 0.88957(13) 0.5928(2)
O33 O 0.9811(2) 0.81718(10) 0.50436(18)
O10_2 O 0.14615(18) 0.47720(12) 0.66632(16)
O11_2 O 0.04366(17) 0.38950(10) 0.92207(16)
O13_2 O 0.0364(3) 0.63467(13) 0.4972(4)
O16_2 O 0.11473(17) 0.49485(10) 0.33784(15)
C34 C 0.1028(2) 0.51669(16) 0.5626(2)
C35_2 C 0.1271(2) 0.49918(14) 0.5046(2)
C36_2 C 0.1518(2) 0.52443(13) 0.4549(2)
C37_2 C 0.1455(3) 0.56509(13) 0.4598(2)
C38 C 0.1249(3) 0.58052(15) 0.5201(2)
C39 C 0.1038(3) 0.55752(16) 0.5723(2)
C40_2 C 0.1278(3) 0.45519(14) 0.4951(3)
H28_2 H 0.1466 0.4489 0.4517
H29_2 H 0.1653 0.4433 0.5374
H30_2 H 0.0721 0.4449 0.4900
C41_2 C 0.1583(3) 0.59084(17) 0.3982(3)
H31_2 H 0.1724 0.5743 0.3610
H32_2 H 0.1075 0.6053 0.3772
H33_2 H 0.2032 0.6094 0.4168
C42 C 0.0843(3) 0.5753(2) 0.6377(3)
H34 H 0.0708 0.5544 0.6681
H35 H 0.1322 0.5900 0.6650
H36 H 0.0371 0.5930 0.6227
C43_2 C 0.0737(3) 0.49060(18) 0.6137(2)
H37 H 0.0369 0.5052 0.6378
H38_2 H 0.0429 0.4680 0.5876
C44_2 C 0.1331(3) 0.45452(17) 0.7220(2)
C45_2 C 0.2041(3) 0.44167(17) 0.7717(2)
H39_2 H 0.2570 0.4481 0.7652
C46_2 C 0.1971(3) 0.41995(16) 0.8296(2)
H40_2 H 0.2456 0.4103 0.8620
C47_2 C 0.1208(3) 0.41157(15) 0.8424(2)
C48_2 C 0.0513(3) 0.42453(15) 0.7919(2)
C49_2 C 0.0565(3) 0.44597(17) 0.7326(2)
H42_2 H 0.0080 0.4548 0.6992
C50_2 C 0.1133(3) 0.38957(13) 0.9072(2)
C51_2 C 0.1844(2) 0.50611(15) 0.3961(2)
H43_2 H 0.2196 0.5251 0.3783
H44_2 H 0.2180 0.4828 0.4149
C52_2 C 0.1317(3) 0.47152(14) 0.2849(2)
C53_2 C 0.2104(3) 0.46635(17) 0.2752(3)
H45_2 H 0.2560 0.4794 0.3058
C54_2 C 0.2219(3) 0.44241(16) 0.2213(3)
H46_2 H 0.2758 0.4392 0.2145
C55_2 C 0.1562(3) 0.42266(14) 0.1762(2)
C56_2 C 0.0775(3) 0.43010(15) 0.1851(2)
H47_2 H 0.0310 0.4185 0.1528
C57_2 C 0.0660(3) 0.45373(15) 0.2392(2)
H48_2 H 0.0120 0.4579 0.2452
C58_2 C 0.1708(2) 0.39626(14) 0.1204(2)
C59 C 0.1212(3) 0.62502(16) 0.5260(3)
H49 H 0.1400 0.6335 0.5770
H50_2 H 0.1562 0.6377 0.4977
C60_2 C 0.0156(4) 0.6736(2) 0.4944(6)
C64 C 0.0416(3) 0.74245(17) 0.5114(4)
H53 H 0.0791 0.7635 0.5266
C65 C 0.0716(4) 0.70373(18) 0.5149(4)
H54 H 0.1290 0.6985 0.5309
O1_2 O 0.60251(17) 0.47587(10) 0.32788(15)
O2_2 O 0.54283(19) 0.36622(9) 0.05417(17)
O3_2 O 0.67829(18) 0.35838(9) 0.09364(16)
O4_2 O 0.64312(16) 0.46617(10) 0.65817(15)
O5 O 0.67823(18) 0.35958(9) 0.93452(16)
O6 O 0.54104(18) 0.36150(10) 0.89671(17)
O7_2 O 0.53846(19) 0.61985(9) 0.45209(18)
O20_2 O 0.9592(2) 0.43247(10) 0.02073(17)
O23_2 O 0.43291(17) 0.30005(9) 0.03351(17)
O26_2 O 0.94989(17) 0.36140(10) 0.09524(16)
O27_2 O 0.82364(17) 0.34088(10) 0.04754(16)
N1_2 N 0.8769(2) 0.48360(12) 0.0218(2)
C1_2 C 0.6495(2) 0.50665(12) 0.4418(2)
C2_2 C 0.6253(2) 0.48463(13) 0.4957(2)
C3_2 C 0.6014(2) 0.50440(12) 0.55122(19)
C4_2 C 0.6036(2) 0.54497(14) 0.5551(2)
C5_2 C 0.6250(2) 0.56678(12) 0.4997(2)
C6_2 C 0.6459(2) 0.54757(13) 0.4426(2)
C7_2 C 0.6248(3) 0.44052(13) 0.4939(2)
H1_2 H 0.6431 0.4314 0.4518
H2_2 H 0.6621 0.4304 0.5381
H3_2 H 0.5688 0.4310 0.4908
C8_2 C 0.5856(3) 0.56660(16) 0.6203(3)
H4_2 H 0.5899 0.5950 0.6137
H5_2 H 0.5298 0.5601 0.6241
H6_2 H 0.6257 0.5585 0.6645
C9_2 C 0.6647(3) 0.57064(15) 0.3811(2)
H7_2 H 0.6781 0.5525 0.3458
H8_2 H 0.6164 0.5863 0.3577
H9_2 H 0.7116 0.5881 0.3998
C10_2 C 0.6756(2) 0.48499(14) 0.3820(2)
H10_2 H 0.7126 0.5016 0.3615
H11_2 H 0.7054 0.4606 0.4010
C11_2 C 0.6095(3) 0.45137(14) 0.2731(2)
C12_2 C 0.5375(3) 0.44002(15) 0.2258(2)
H12_2 H 0.4866 0.4499 0.2320
C13_2 C 0.5371(3) 0.41473(15) 0.1696(3)
H13_2 H 0.4863 0.4069 0.1383
C14_2 C 0.6109(3) 0.40061(14) 0.1586(2)
C15_2 C 0.6838(3) 0.41259(15) 0.2057(3)
H14_2 H 0.7347 0.4032 0.1989
C16_2 C 0.6844(3) 0.43770(16) 0.2621(3)
H15_2 H 0.7351 0.4457 0.2933
C17_2 C 0.6110(3) 0.37289(13) 0.0979(2)
C18_2 C 0.5712(3) 0.48111(15) 0.6061(2)
H16_2 H 0.5382 0.4980 0.6305
H17_2 H 0.5361 0.4591 0.5824
C19_2 C 0.6308(2) 0.44323(13) 0.7125(2)
C20_2 C 0.5542(3) 0.43536(15) 0.7256(2)
H18_2 H 0.5057 0.4465 0.6957
C21_2 C 0.5492(3) 0.41095(14) 0.7830(2)
H19_2 H 0.4966 0.4051 0.7908
C22_2 C 0.6179(3) 0.39517(13) 0.8282(2)
C23_2 C 0.6938(3) 0.40397(14) 0.8151(3)
H20_2 H 0.7424 0.3936 0.8463
C24_2 C 0.7007(3) 0.42726(16) 0.7581(2)
H21_2 H 0.7534 0.4324 0.7499
C25_2 C 0.6116(3) 0.37017(12) 0.8910(2)
C26_2 C 0.6179(3) 0.61056(14) 0.4990(3)
H22_2 H 0.6217 0.6206 0.5483
H23_2 H 0.6625 0.6225 0.4805
C27_2 C 0.5061(3) 0.65655(13) 0.4574(3)
C28_2 C 0.5414(3) 0.68510(13) 0.5069(2)
H24_2 H 0.5931 0.6804 0.5399
C29_2 C 0.5015(3) 0.72028(13) 0.5081(2)
H25_2 H 0.5255 0.7395 0.5430
C30_2 C 0.4271(3) 0.72824(14) 0.4597(3)
C31_2 C 0.3930(3) 0.69983(16) 0.4088(3)
H26_2 H 0.3424 0.7049 0.3745
C32_2 C 0.4321(4) 0.66426(16) 0.4078(3)
H27_2 H 0.4081 0.6450 0.3730
C33_2 C 0.3811(3) 0.76552(13) 0.4635(2)
H58_2 H 0.8121 0.5336 0.0238
C70_2 C 0.8738(4) 0.47592(19) 0.0959(3)
H61_2 H 0.8405 0.4961 0.1117
H62_2 H 0.8490 0.4501 0.0987
H63_2 H 0.9298 0.4763 0.1272
C71_2 C 0.3661(3) 0.30102(14) 0.0494(2)
C72_2 C 0.3439(4) 0.2666(2) 0.0905(4)
H64_2 H 0.2896 0.2710 0.0998
H65_2 H 0.3425 0.2426 0.0620
H66_2 H 0.3852 0.2638 0.1366
C73_2 C 0.8828(3) 0.34707(14) 0.1008(2)
C74_2 C 0.8729(3) 0.3392(2) 0.1748(3)
H67_2 H 0.9243 0.3454 0.2104
H68_2 H 0.8282 0.3554 0.1838
H69_2 H 0.8596 0.3114 0.1790
O14_2 O 0.8530(2) 0.79703(12) 0.4632(3)
O19_2 O 0.4198(2) 0.29930(10) 0.87998(19)
O21_2 O 0.39047(17) 0.37274(9) 0.94647(16)
O24_2 O 0.74749(19) 0.28293(10) 0.94927(19)
O25_2 O 0.88066(17) 0.36774(10) 0.93509(15)
H41_2 H 0.9984 0.4183 0.7988
C61_2 C 0.9327(4) 0.6818(2) 0.4641(8)
H51_2 H 0.8958 0.6612 0.4445
C62_2 C 0.9046(5) 0.7195(2) 0.4627(8)
H52_2 H 0.8474 0.7248 0.4454
C63_2 C 0.9591(4) 0.75024(18) 0.4864(5)
C66_2 C 0.9288(3) 0.79138(17) 0.4846(4)
C67_2 C 0.9179(4) 0.46836(18) 0.9113(3)
H55_2 H 0.8828 0.4911 0.8942
H56_2 H 0.9742 0.4738 0.9077
H57_2 H 0.8964 0.4455 0.8816
C68_2 C 0.9184(3) 0.46021(15) 0.9881(3)
C69_2 C 0.8399(3) 0.52090(17) 0.9903(3)
H59_2 H 0.8833 0.5382 0.9818
H60_2 H 0.7998 0.5157 0.9445
C75_2 C 0.3683(8) 0.3337(3) 0.7695(4)
H70_2 H 0.3157 0.3389 0.7345
H71_2 H 0.3930 0.3586 0.7896
H72_2 H 0.4057 0.3203 0.7453
N2_2 N 0.2698(7) 0.2954(3) 0.8249(6)
C76_2 C 0.2619(8) 0.2660(4) 0.8823(7)
H73_2 H 0.2039 0.2588 0.8756
H74_2 H 0.2942 0.2425 0.8781
H75_2 H 0.2826 0.2777 0.9302
C77_2 C 0.3534(5) 0.3081(3) 0.8297(5)
C78_2 C 0.1947(11) 0.3085(5) 0.7678(9)
H76_2 H 0.1455 0.2958 0.7762
H77_2 H 0.1889 0.3371 0.7703
H78_2 H 0.2012 0.3012 0.7199
H79_2 H 0.3760 0.3943 0.9616
H80_2 H 0.3481 0.3634 0.9163
H81_2 H 0.7563 0.2641 0.9221
H82_2 H 0.7955 0.2913 0.9719
H83_2 H 0.8569 0.3584 0.8937
H84_2 H 0.8443 0.3684 0.9597
C34_2 C 0.8972(2) 0.01669(16) 0.9374(2)
C38_2 C 0.8751(3) 0.08052(15) 0.9799(2)
C39_2 C 0.8962(3) 0.05752(16) 0.9277(2)
C42_2 C 0.9157(3) 0.0753(2) 0.8623(3)
H34_2 H 0.9292 0.0544 0.8319
H35_2 H 0.8678 0.0900 0.8350
H36_2 H 0.9629 0.0930 0.8773
H37_2 H 0.9631 0.0052 0.8622
C59_2 C 0.8788(3) 0.12502(16) 0.9740(3)
H49_2 H 0.8600 0.1335 0.9230
C64_2 C 0.9584(3) 0.24245(17) 0.9886(4)
H53_2 H 0.9209 0.2635 0.9734
C65_2 C 0.9284(4) 0.20373(18) 0.9851(4)
H54_2 H 0.8710 0.1985 0.9691
O10_3 O 0.14615(18) 0.02280(12) 0.16632(16)
O11_3 O 0.04366(17) 0.11050(10) 0.42207(16)
O12_2 O 0.17725(18) 0.12749(10) 0.44328(16)
C35_3 C 0.1271(2) 0.00082(14) 0.0046(2)
H29_3 H 0.1653 0.0567 0.0374
C43_3 C 0.0737(3) 0.00940(18) 0.1137(2)
H38_3 H 0.0429 0.0320 0.0876
C44_3 C 0.1331(3) 0.04548(17) 0.2220(2)
C45_3 C 0.2041(3) 0.05833(17) 0.2717(2)
H39_3 H 0.2570 0.0519 0.2652
C46_3 C 0.1971(3) 0.08005(16) 0.3296(2)
H40_3 H 0.2456 0.0897 0.3620
C47_3 C 0.1208(3) 0.08843(15) 0.3424(2)
C48_3 C 0.0513(3) 0.07547(15) 0.2919(2)
C49_3 C 0.0565(3) 0.05403(17) 0.2326(2)
H42_3 H 0.0080 0.0452 0.1992
C50_3 C 0.1133(3) 0.11043(13) 0.4072(2)
Mg11 Mg 0.20476(8) 0.15382(4) 0.53863(8)
O33_2 O 0.0189(2) 0.18282(10) 0.49564(18)
O35 O 0.11155(17) 0.11847(9) 0.57511(15)
O16_3 O 0.11473(17) 0.00515(10) 0.83784(15)
O17_2 O 0.24223(19) 0.11429(12) 0.61923(19)
C40_3 C 0.1278(3) 0.04481(14) 0.9951(3)
H28_3 H 0.1466 0.0511 0.9517
H30_3 H 0.0721 0.0551 0.9900
H44_3 H 0.2180 0.0172 0.9149
C52_3 C 0.1317(3) 0.02848(14) 0.7849(2)
C53_3 C 0.2104(3) 0.03365(17) 0.7752(3)
H45_3 H 0.2560 0.0206 0.8058
C54_3 C 0.2219(3) 0.05759(16) 0.7213(3)
H46_3 H 0.2758 0.0608 0.7145
C55_3 C 0.1562(3) 0.07734(14) 0.6762(2)
C56_3 C 0.0775(3) 0.06990(15) 0.6851(2)
H47_3 H 0.0310 0.0815 0.6528
C57_3 C 0.0660(3) 0.04627(15) 0.7392(2)
H48_3 H 0.0120 0.0421 0.7452
C58_3 C 0.1708(2) 0.10374(14) 0.6204(2)
O13_3 O 0.0364(3) 0.86533(13) 0.9972(4)
C36_3 C 0.1518(2) 0.97557(13) 0.9549(2)
C37_3 C 0.1455(3) 0.93491(13) 0.9598(2)
C41_3 C 0.1583(3) 0.90916(17) 0.8982(3)
H31_3 H 0.1724 0.9257 0.8610
H32_3 H 0.1075 0.8947 0.8772
H33_3 H 0.2032 0.8906 0.9168
C51_3 C 0.1844(2) 0.99389(15) 0.8961(2)
H43_3 H 0.2196 0.9749 0.8783
H50_3 H 0.1562 0.8623 0.9977
C60_3 C 0.0156(4) 0.8264(2) 0.9944(6)
Mg10_2 Mg 0.00449(8) 0.62496(4) 0.99347(7)
O4_3 O 0.64312(16) 0.03383(10) 0.15817(15)
O5_2 O 0.67823(18) 0.14042(9) 0.43452(16)
O6_2 O 0.54104(18) 0.13850(10) 0.39671(17)
H2_3 H 0.6621 0.0696 0.0381
C18_3 C 0.5712(3) 0.01889(15) 0.1061(2)
H16_3 H 0.5382 0.0020 0.1305
H17_3 H 0.5361 0.0409 0.0824
C19_3 C 0.6308(2) 0.05677(13) 0.2125(2)
C20_3 C 0.5542(3) 0.06464(15) 0.2256(2)
H18_3 H 0.5057 0.0535 0.1957
C21_3 C 0.5492(3) 0.08905(14) 0.2830(2)
H19_3 H 0.4966 0.0949 0.2908
C22_3 C 0.6179(3) 0.10483(13) 0.3282(2)
C23_3 C 0.6938(3) 0.09603(14) 0.3151(3)
H20_3 H 0.7424 0.1064 0.3463
C24_3 C 0.7007(3) 0.07274(16) 0.2581(2)
H21_3 H 0.7534 0.0676 0.2499
C25_3 C 0.6116(3) 0.12983(12) 0.3910(2)
Mg5 Mg 0.48930(8) 0.16768(4) 0.46828(7)
Mg7 Mg 0.70597(8) 0.17762(4) 0.51772(7)
Mg3 Mg 0.99551(8) 0.12496(4) 0.50653(7)
O1_3 O 0.60251(17) 0.02413(10) 0.82788(15)
O2_3 O 0.54283(19) 0.13378(9) 0.55417(17)
O3_3 O 0.67829(18) 0.14162(9) 0.59364(16)
O19_3 O 0.4198(2) 0.20070(10) 0.37998(19)
O20_3 O 0.9592(2) 0.06753(10) 0.52073(17)
O21_3 O 0.39047(17) 0.12726(9) 0.44647(16)
O22_2 O 0.31260(18) 0.17223(9) 0.53045(17)
O23_3 O 0.43291(17) 0.19995(9) 0.53351(17)
O24_3 O 0.74749(19) 0.21707(10) 0.44927(19)
O25_3 O 0.88066(17) 0.13226(10) 0.43509(15)
O26_3 O 0.94989(17) 0.13860(10) 0.59524(16)
O27_3 O 0.82364(17) 0.15912(10) 0.54754(16)
N1_3 N 0.8769(2) 0.01640(12) 0.5218(2)
C2_3 C 0.6253(2) 0.01537(13) 0.9957(2)
C7_3 C 0.6248(3) 0.05948(13) 0.9939(2)
H1_3 H 0.6431 0.0686 0.9518
H3_3 H 0.5688 0.0690 0.9908
C10_3 C 0.6756(2) 0.01501(14) 0.8820(2)
H11_3 H 0.7054 0.0394 0.9010
C11_3 C 0.6095(3) 0.04863(14) 0.7731(2)
C12_3 C 0.5375(3) 0.05998(15) 0.7258(2)
H12_3 H 0.4866 0.0501 0.7320
C13_3 C 0.5371(3) 0.08527(15) 0.6696(3)
H13_3 H 0.4863 0.0931 0.6383
C14_3 C 0.6109(3) 0.09939(14) 0.6586(2)
C15_3 C 0.6838(3) 0.08741(15) 0.7057(3)
H14_3 H 0.7347 0.0968 0.6989
C16_3 C 0.6844(3) 0.06230(16) 0.7621(3)
H15_3 H 0.7351 0.0543 0.7933
C17_3 C 0.6110(3) 0.12711(13) 0.5979(2)
H41_3 H 0.9984 0.0817 0.2988
C67_3 C 0.9179(4) 0.03164(18) 0.4113(3)
H55_3 H 0.8828 0.0089 0.3942
H56_3 H 0.9742 0.0262 0.4077
H57_3 H 0.8964 0.0545 0.3816
C68_3 C 0.9184(3) 0.03979(15) 0.4881(3)
C70_3 C 0.8738(4) 0.02408(19) 0.5959(3)
H61_3 H 0.8405 0.0039 0.6117
H62_3 H 0.8490 0.0499 0.5987
H63_3 H 0.9298 0.0237 0.6272
C71_3 C 0.3661(3) 0.19898(14) 0.5494(2)
C72_3 C 0.3439(4) 0.2334(2) 0.5905(4)
H64_3 H 0.2896 0.2290 0.5998
H65_3 H 0.3425 0.2574 0.5620
H66_3 H 0.3852 0.2362 0.6366
C73_3 C 0.8828(3) 0.15293(14) 0.6008(2)
C74_3 C 0.8729(3) 0.1608(2) 0.6748(3)
H67_3 H 0.9243 0.1546 0.7104
H68_3 H 0.8282 0.1446 0.6838
H69_3 H 0.8596 0.1886 0.6790
C75_3 C 0.3683(8) 0.1663(3) 0.2695(4)
H70_3 H 0.3157 0.1611 0.2345
H71_3 H 0.3930 0.1414 0.2896
H72_3 H 0.4057 0.1797 0.2453
N2_3 N 0.2698(7) 0.2046(3) 0.3249(6)
C76_3 C 0.2619(8) 0.2340(4) 0.3823(7)
H73_3 H 0.2039 0.2412 0.3756
H74_3 H 0.2942 0.2575 0.3781
H75_3 H 0.2826 0.2223 0.4302
C77_3 C 0.3534(5) 0.1919(3) 0.3297(5)
C78_3 C 0.1947(11) 0.1915(5) 0.2678(9)
H76_3 H 0.1455 0.2042 0.2762
H77_3 H 0.1889 0.1629 0.2703
H78_3 H 0.2012 0.1988 0.2199
H79_3 H 0.3760 0.1057 0.4616
H80_3 H 0.3481 0.1366 0.4163
H81_3 H 0.7563 0.2359 0.4221
H82_3 H 0.7955 0.2087 0.4719
H83_3 H 0.8569 0.1416 0.3937
H84_3 H 0.8443 0.1316 0.4597
O30_2 O 0.58687(16) 0.20803(8) 0.49159(16)
O31_2 O 0.69040(18) 0.23006(9) 0.57617(18)
O8_2 O 0.41313(16) 0.70803(8) 0.00841(16)
C3_3 C 0.6014(2) 0.99560(12) 0.05122(19)
C4_3 C 0.6036(2) 0.95503(14) 0.0551(2)
C8_3 C 0.5856(3) 0.93340(16) 0.1203(3)
H4_3 H 0.5899 0.9050 0.1137
H5_3 H 0.5298 0.9399 0.1241
H6_3 H 0.6257 0.9415 0.1645
H22_3 H 0.6217 0.8794 0.0483
C28_3 C 0.5414(3) 0.81490(13) 0.0069(2)
H24_3 H 0.5931 0.8196 0.0399
C29_3 C 0.5015(3) 0.77972(13) 0.0081(2)
H25_3 H 0.5255 0.7605 0.0430
Mg6_2 Mg 0.51070(8) 0.66768(4) 0.03172(7)
O7_3 O 0.53846(19) 0.88015(9) 0.95209(18)
O9_2 O 0.30960(18) 0.73006(9) 0.92383(18)
O15_2 O 0.9811(2) 0.68282(10) 0.00436(18)
C1_3 C 0.6495(2) 0.99335(12) 0.9418(2)
C5_3 C 0.6250(2) 0.93322(12) 0.9997(2)
C6_3 C 0.6459(2) 0.95243(13) 0.9426(2)
C9_3 C 0.6647(3) 0.92936(15) 0.8811(2)
H7_3 H 0.6781 0.9475 0.8458
H8_3 H 0.6164 0.9137 0.8577
H9_3 H 0.7116 0.9119 0.8998
H10_3 H 0.7126 0.9984 0.8615
C26_3 C 0.6179(3) 0.88944(14) 0.9990(3)
H23_3 H 0.6625 0.8775 0.9805
C27_3 C 0.5061(3) 0.84345(13) 0.9574(3)
C30_3 C 0.4271(3) 0.77176(14) 0.9597(3)
C31_3 C 0.3930(3) 0.80017(16) 0.9088(3)
H26_3 H 0.3424 0.7951 0.8745
C32_3 C 0.4321(4) 0.83574(16) 0.9078(3)
H27_3 H 0.4081 0.8550 0.8730
C33_3 C 0.3811(3) 0.73448(13) 0.9635(2)
C69_3 C 0.8399(3) 0.97910(17) 0.4903(3)
H58_3 H 0.8121 0.9664 0.5238
H59_3 H 0.8833 0.9618 0.4818
H60_3 H 0.7998 0.9843 0.4445
Mg8_2 Mg 0.29403(8) 0.67762(4) 0.98228(7)
O32_2 O 0.82275(18) 0.62749(10) 0.05672(16)
Mg4_2 Mg 0.79524(8) 0.65382(4) 0.96137(8)
O14_3 O 0.8530(2) 0.70297(12) 0.9632(3)
C61_3 C 0.9327(4) 0.8182(2) 0.9641(8)
H51_3 H 0.8958 0.8388 0.9445
C62_3 C 0.9046(5) 0.7805(2) 0.9627(8)
H52_3 H 0.8474 0.7752 0.9454
C63_3 C 0.9591(4) 0.74976(18) 0.9864(5)
C66_3 C 0.9288(3) 0.70862(17) 0.9846(4)
O34_2 O 0.75777(19) 0.61429(12) 0.88077(19)
O36_2 O 0.88845(17) 0.61847(9) 0.92489(15)
O37_2 O 0.68740(18) 0.67223(9) 0.96955(17)
O14_4 O 0.1470(2) 0.20297(12) 0.5368(3)
O19_4 O 0.5802(2) 0.70070(10) 0.12002(19)
O21_4 O 0.60953(17) 0.62726(9) 0.05353(16)
O24_4 O 0.25251(19) 0.71707(10) 0.05073(19)
O25_4 O 0.11934(17) 0.63226(10) 0.06491(15)
H41_4 H 0.0016 0.5817 0.2012
C61_4 C 0.0673(4) 0.3182(2) 0.5359(8)
H51_4 H 0.1042 0.3388 0.5555
C62_4 C 0.0954(5) 0.2805(2) 0.5373(8)
H52_4 H 0.1526 0.2752 0.5546
C63_4 C 0.0409(4) 0.24976(18) 0.5136(5)
C66_4 C 0.0712(3) 0.20862(17) 0.5154(4)
C67_4 C 0.0821(4) 0.53164(18) 0.0887(3)
H55_4 H 0.1172 0.5089 0.1058
H56_4 H 0.0258 0.5262 0.0923
H57_4 H 0.1036 0.5545 0.1184
C68_4 C 0.0816(3) 0.53979(15) 0.0119(3)
C69_4 C 0.1601(3) 0.47910(17) 0.0097(3)
H59_4 H 0.1167 0.4618 0.0182
H60_4 H 0.2002 0.4843 0.0555
C75_4 C 0.6317(8) 0.6663(3) 0.2305(4)
H70_4 H 0.6843 0.6611 0.2655
H71_4 H 0.6070 0.6414 0.2104
H72_4 H 0.5943 0.6797 0.2547
N2_4 N 0.7302(7) 0.7046(3) 0.1751(6)
C76_4 C 0.7381(8) 0.7340(4) 0.1177(7)
H73_4 H 0.7961 0.7412 0.1244
H74_4 H 0.7058 0.7575 0.1219
H75_4 H 0.7174 0.7223 0.0698
C77_4 C 0.6466(5) 0.6919(3) 0.1703(5)
C78_4 C 0.8053(11) 0.6915(5) 0.2322(9)
H76_4 H 0.8545 0.7042 0.2238
H77_4 H 0.8111 0.6629 0.2297
H78_4 H 0.7988 0.6988 0.2801
H79_4 H 0.6240 0.6057 0.0384
H80_4 H 0.6519 0.6366 0.0837
H81_4 H 0.2437 0.7359 0.0779
H82_4 H 0.2045 0.7087 0.0281
H83_4 H 0.1431 0.6416 0.1063
H84_4 H 0.1557 0.6316 0.0403
O28_2 O 0.32177(18) 0.64042(9) 0.06548(16)
O29_2 O 0.45896(18) 0.63850(10) 0.10329(17)
O1_4 O 0.39749(17) 0.52413(10) 0.67212(15)
O2_4 O 0.45717(19) 0.63378(9) 0.94583(17)
O3_4 O 0.32171(18) 0.64162(9) 0.90636(16)
O4_4 O 0.35688(16) 0.53383(10) 0.34183(15)
O7_4 O 0.46154(19) 0.38015(9) 0.54791(18)
O20_4 O 0.0408(2) 0.56753(10) 0.97927(17)
O23_4 O 0.56709(17) 0.69995(9) 0.96649(17)
O26_4 O 0.05011(17) 0.63860(10) 0.90476(16)
O27_4 O 0.17636(17) 0.65912(10) 0.95246(16)
N1_4 N 0.1231(2) 0.51640(12) 0.9782(2)
C1_4 C 0.3505(2) 0.49335(12) 0.5582(2)
C2_4 C 0.3747(2) 0.51537(13) 0.5043(2)
C3_4 C 0.3986(2) 0.49560(12) 0.44878(19)
C4_4 C 0.3964(2) 0.45503(14) 0.4449(2)
C5_4 C 0.3750(2) 0.43322(12) 0.5003(2)
C6_4 C 0.3541(2) 0.45243(13) 0.5574(2)
C7_4 C 0.3752(3) 0.55948(13) 0.5061(2)
H1_4 H 0.3569 0.5686 0.5482
H2_4 H 0.3379 0.5696 0.4619
H3_4 H 0.4312 0.5690 0.5092
C8_4 C 0.4144(3) 0.43340(16) 0.3797(3)
H4_4 H 0.4101 0.4050 0.3863
H5_4 H 0.4702 0.4399 0.3759
H6_4 H 0.3743 0.4415 0.3355
C9_4 C 0.3353(3) 0.42936(15) 0.6189(2)
H7_4 H 0.3219 0.4475 0.6542
H8_4 H 0.3836 0.4137 0.6423
H9_4 H 0.2884 0.4119 0.6002
C10_4 C 0.3244(2) 0.51501(14) 0.6180(2)
H10_4 H 0.2874 0.4984 0.6385
H11_4 H 0.2946 0.5394 0.5990
C11_4 C 0.3905(3) 0.54863(14) 0.7269(2)
C12_4 C 0.4625(3) 0.55998(15) 0.7742(2)
H12_4 H 0.5134 0.5501 0.7680
C13_4 C 0.4629(3) 0.58527(15) 0.8304(3)
H13_4 H 0.5137 0.5931 0.8617
C14_4 C 0.3891(3) 0.59939(14) 0.8414(2)
C15_4 C 0.3162(3) 0.58741(15) 0.7943(3)
H14_4 H 0.2653 0.5968 0.8011
C16_4 C 0.3156(3) 0.56230(16) 0.7379(3)
H15_4 H 0.2649 0.5543 0.7067
C17_4 C 0.3890(3) 0.62711(13) 0.9021(2)
C18_4 C 0.4288(3) 0.51889(15) 0.3939(2)
H16_4 H 0.4618 0.5020 0.3695
H17_4 H 0.4639 0.5409 0.4176
C19_4 C 0.3692(2) 0.55677(13) 0.2875(2)
C20_4 C 0.4458(3) 0.56464(15) 0.2744(2)
H18_4 H 0.4943 0.5535 0.3043
C21_4 C 0.4508(3) 0.58905(14) 0.2170(2)
H19_4 H 0.5034 0.5949 0.2092
C22_4 C 0.3821(3) 0.60483(13) 0.1718(2)
C23_4 C 0.3062(3) 0.59603(14) 0.1849(3)
H20_4 H 0.2576 0.6064 0.1537
C24_4 C 0.2993(3) 0.57274(16) 0.2419(2)
H21_4 H 0.2466 0.5676 0.2501
C25_4 C 0.3884(3) 0.62983(12) 0.1090(2)
C26_4 C 0.3821(3) 0.38944(14) 0.5010(3)
H22_4 H 0.3783 0.3794 0.4517
H23_4 H 0.3375 0.3775 0.5195
C27_4 C 0.4939(3) 0.34345(13) 0.5426(3)
C28_4 C 0.4586(3) 0.31490(13) 0.4931(2)
H24_4 H 0.4069 0.3196 0.4601
C29_4 C 0.4985(3) 0.27972(13) 0.4919(2)
H25_4 H 0.4745 0.2605 0.4570
C30_4 C 0.5729(3) 0.27176(14) 0.5403(3)
C31_4 C 0.6070(3) 0.30017(16) 0.5912(3)
H26_4 H 0.6576 0.2951 0.6255
C32_4 C 0.5679(4) 0.33574(16) 0.5922(3)
H27_4 H 0.5919 0.3550 0.6270
C33_4 C 0.6189(3) 0.23448(13) 0.5365(2)
H58_4 H 0.1879 0.4664 0.9762
C70_4 C 0.1262(4) 0.52408(19) 0.9041(3)
H61_4 H 0.1595 0.5039 0.8883
H62_4 H 0.1510 0.5499 0.9013
H63_4 H 0.0702 0.5237 0.8728
C71_4 C 0.6339(3) 0.69898(14) 0.9506(2)
C72_4 C 0.6561(4) 0.7334(2) 0.9095(4)
H64_4 H 0.7104 0.7290 0.9002
H65_4 H 0.6575 0.7574 0.9380
H66_4 H 0.6148 0.7362 0.8634
C73_4 C 0.1172(3) 0.65293(14) 0.8992(2)
C74_4 C 0.1271(3) 0.6608(2) 0.8252(3)
H67_4 H 0.0757 0.6546 0.7896
H68_4 H 0.1718 0.6446 0.8162
H69_4 H 0.1404 0.6886 0.8210
O10_4 O 0.85385(18) 0.52280(12) 0.33368(16)
O11_4 O 0.95634(17) 0.61050(10) 0.07793(16)
O13_4 O 0.9636(3) 0.36533(13) 0.5028(4)
O16_4 O 0.88527(17) 0.50515(10) 0.66216(15)
C34_3 C 0.8972(2) 0.48331(16) 0.4374(2)
C35_4 C 0.8729(2) 0.50082(14) 0.4954(2)
C36_4 C 0.8482(2) 0.47557(13) 0.5451(2)
C37_4 C 0.8545(3) 0.43491(13) 0.5402(2)
C38_3 C 0.8751(3) 0.41948(15) 0.4799(2)
C39_3 C 0.8962(3) 0.44248(16) 0.4277(2)
C40_4 C 0.8722(3) 0.54481(14) 0.5049(3)
H28_4 H 0.8534 0.5511 0.5483
H29_4 H 0.8347 0.5567 0.4626
H30_4 H 0.9279 0.5551 0.5100
C41_4 C 0.8417(3) 0.40916(17) 0.6018(3)
H31_4 H 0.8276 0.4257 0.6390
H32_4 H 0.8925 0.3947 0.6228
H33_4 H 0.7968 0.3906 0.5832
C42_3 C 0.9157(3) 0.4247(2) 0.3623(3)
H34_3 H 0.9292 0.4456 0.3319
H35_3 H 0.8678 0.4100 0.3350
H36_3 H 0.9629 0.4070 0.3773
C43_4 C 0.9263(3) 0.50940(18) 0.3863(2)
H37_3 H 0.9631 0.4948 0.3622
H38_4 H 0.9571 0.5320 0.4124
C44_4 C 0.8669(3) 0.54548(17) 0.2780(2)
C45_4 C 0.7959(3) 0.55833(17) 0.2283(2)
H39_4 H 0.7430 0.5519 0.2348
C46_4 C 0.8029(3) 0.58005(16) 0.1704(2)
H40_4 H 0.7544 0.5897 0.1380
C47_4 C 0.8792(3) 0.58843(15) 0.1576(2)
C48_4 C 0.9487(3) 0.57547(15) 0.2081(2)
C49_4 C 0.9435(3) 0.55403(17) 0.2674(2)
H42_4 H 0.9920 0.5452 0.3008
C50_4 C 0.8867(3) 0.61043(13) 0.0928(2)
C51_4 C 0.8156(2) 0.49389(15) 0.6039(2)
H43_4 H 0.7804 0.4749 0.6217
H44_4 H 0.7820 0.5172 0.5851
C52_4 C 0.8683(3) 0.52848(14) 0.7151(2)
C53_4 C 0.7896(3) 0.53365(17) 0.7248(3)
H45_4 H 0.7440 0.5206 0.6942
C54_4 C 0.7781(3) 0.55759(16) 0.7787(3)
H46_4 H 0.7242 0.5608 0.7855
C55_4 C 0.8438(3) 0.57734(14) 0.8238(2)
C56_4 C 0.9225(3) 0.56990(15) 0.8149(2)
H47_4 H 0.9690 0.5815 0.8472
C57_4 C 0.9340(3) 0.54627(15) 0.7608(2)
H48_4 H 0.9880 0.5421 0.7548
C58_4 C 0.8292(2) 0.60374(14) 0.8796(2)
C59_3 C 0.8788(3) 0.37498(16) 0.4740(3)
H49_3 H 0.8600 0.3665 0.4230
H50_4 H 0.8438 0.3623 0.5023
C60_4 C 0.9844(4) 0.3264(2) 0.5056(6)
C64_3 C 0.9584(3) 0.25755(17) 0.4886(4)
H53_3 H 0.9209 0.2365 0.4734
C65_3 C 0.9284(4) 0.29627(18) 0.4851(4)
H54_3 H 0.8710 0.3015 0.4691
C34_4 C 0.1028(2) 0.98331(16) 0.0626(2)
C38_4 C 0.1249(3) 0.91948(15) 0.0201(2)
C39_4 C 0.1038(3) 0.94248(16) 0.0723(2)
C42_4 C 0.0843(3) 0.9247(2) 0.1377(3)
H34_4 H 0.0708 0.9456 0.1681
H35_4 H 0.1322 0.9100 0.1650
H36_4 H 0.0371 0.9070 0.1227
H37_4 H 0.0369 0.9948 0.1378
C59_4 C 0.1212(3) 0.87498(16) 0.0260(3)
H49_4 H 0.1400 0.8665 0.0770
C64_4 C 0.0416(3) 0.75755(17) 0.0114(4)
H53_4 H 0.0791 0.7365 0.0266
C65_4 C 0.0716(4) 0.79627(18) 0.0149(4)
H54_4 H 0.1290 0.8015 0.0309
loop_
_geom_bond_atom_site_label_1
_geom_bond_atom_site_label_2
_geom_bond_site_symmetry_1
_geom_bond_site_symmetry_2
Mg4 O14 1_555 1_555
O14 C66 1_555 1_555
H51 C61 1_555 1_555
C62 C61 1_555 1_555
H52 C62 1_555 1_555
C63 C62 1_555 1_555
C66 C63 1_555 1_555
O34 Mg4 1_555 1_555
O36 Mg4 1_555 1_555
O37 Mg4 1_555 1_555
O7 C26 1_555 1_555
O9 C33 1_555 1_555
C5 C6 1_555 1_555
C6 C1 1_555 1_555
C9 C6 1_555 1_555
H7 C9 1_555 1_555
H8 C9 1_555 1_555
H9 C9 1_555 1_555
C26 C5 1_555 1_555
H23 C26 1_555 1_555
C27 O7 1_555 1_555
C31 C30 1_555 1_555
H26 C31 1_555 1_555
C32 C27 1_555 1_555
H27 C32 1_555 1_555
C33 C30 1_555 1_555
H58 C69 1_555 1_555
H59 C69 1_555 1_555
H60 C69 1_555 1_555
O9 Mg8 1_555 1_555
C31 C32 1_555 1_555
C3 C4 1_555 1_555
C8 C4 1_555 1_555
H4 C8 1_555 1_555
H5 C8 1_555 1_555
H6 C8 1_555 1_555
H24 C28 1_555 1_555
C29 C28 1_555 1_555
H25 C29 1_555 1_555
Mg6 O8 1_555 1_555
Mg1 O2 1_555 1_555
Mg2 O3 1_555 1_555
O1 C10 1_555 1_555
O2 C17 1_555 1_555
O3 C17 1_555 1_555
O19 Mg1 1_555 1_555
O20 Mg9 1_555 1_555
O21 Mg1 1_555 1_555
O22 C71 1_555 1_555
O23 Mg1 1_555 1_555
O24 Mg2 1_555 1_555
O25 Mg9 1_555 1_555
O26 Mg9 1_555 1_555
O27 Mg2 1_555 1_555
N1 C68 1_555 1_555
C7 C2 1_555 1_555
H1 C7 1_555 1_555
H3 C7 1_555 1_555
H11 C10 1_555 1_555
C11 O1 1_555 1_555
C12 C11 1_555 1_555
H12 C12 1_555 1_555
C13 C12 1_555 1_555
H13 C13 1_555 1_555
C14 C13 1_555 1_555
C15 C14 1_555 1_555
H14 C15 1_555 1_555
C16 C11 1_555 1_555
H15 C16 1_555 1_555
C17 C14 1_555 1_555
C67 H55 1_555 1_555
H56 C67 1_555 1_555
H57 C67 1_555 1_555
C68 O20 1_555 1_555
C70 N1 1_555 1_555
H61 C70 1_555 1_555
H62 C70 1_555 1_555
H63 C70 1_555 1_555
C71 O23 1_555 1_555
C72 C71 1_555 1_555
H64 C72 1_555 1_555
H65 C72 1_555 1_555
H66 C72 1_555 1_555
C73 O26 1_555 1_555
C74 C73 1_555 1_555
H67 C74 1_555 1_555
H68 C74 1_555 1_555
H69 C74 1_555 1_555
C75 H70 1_555 1_555
H71 C75 1_555 1_555
H72 C75 1_555 1_555
N2 C76 1_555 1_555
C76 H73 1_555 1_555
H74 C76 1_555 1_555
H75 C76 1_555 1_555
C77 O19 1_555 1_555
C78 N2 1_555 1_555
H76 C78 1_555 1_555
H77 C78 1_555 1_555
H78 C78 1_555 1_555
H79 O21 1_555 1_555
H80 O21 1_555 1_555
H81 O24 1_555 1_555
H82 O24 1_555 1_555
H83 O25 1_555 1_555
H84 O25 1_555 1_555
Mg13 O22 1_555 1_555
O28 Mg2 1_555 1_555
O29 Mg1 1_555 1_555
O30 Mg1 1_555 1_555
O31 Mg2 1_555 1_555
Mg2 O30 1_555 1_555
O27 C73 1_555 1_555
C15 C16 1_555 1_555
C67 C68 1_555 1_555
C75 C77 1_555 1_555
N2 C77 1_555 1_555
O4 C18 1_555 1_555
O28 C25 1_555 1_555
O29 C25 1_555 1_555
H16 C18 1_555 1_555
H17 C18 1_555 1_555
C19 O4 1_555 1_555
C20 C19 1_555 1_555
H18 C20 1_555 1_555
C21 C20 1_555 1_555
H19 C21 1_555 1_555
C22 C21 1_555 1_555
C23 C22 1_555 1_555
H20 C23 1_555 1_555
C24 C19 1_555 1_555
H21 C24 1_555 1_555
C25 C22 1_555 1_555
C23 C24 1_555 1_555
C36 C37 1_555 1_555
C41 C37 1_555 1_555
H31 C41 1_555 1_555
H32 C41 1_555 1_555
H33 C41 1_555 1_555
C51 C36 1_555 1_555
H43 C51 1_555 1_555
C60 O13 1_555 1_555
O17 C58 1_555 1_555
O18 C58 1_555 1_555
H28 C40 1_555 1_555
H30 C40 1_555 1_555
C52 O16 1_555 1_555
C53 C52 1_555 1_555
H45 C53 1_555 1_555
C54 C53 1_555 1_555
H46 C54 1_555 1_555
C55 C54 1_555 1_555
C56 C55 1_555 1_555
H47 C56 1_555 1_555
C57 C52 1_555 1_555
H48 C57 1_555 1_555
C58 C55 1_555 1_555
Mg13 O17 1_555 1_555
O18 Mg13 1_555 1_555
C56 C57 1_555 1_555
O10 C43 1_555 1_555
O11 C50 1_555 1_555
O12 C50 1_555 1_555
H38 C43 1_555 1_555
C44 O10 1_555 1_555
C45 C44 1_555 1_555
H39 C45 1_555 1_555
C46 C45 1_555 1_555
H40 C46 1_555 1_555
C47 C46 1_555 1_555
C48 C47 1_555 1_555
C49 C44 1_555 1_555
H42 C49 1_555 1_555
C50 C47 1_555 1_555
Mg13 O12 1_555 1_555
C48 C49 1_555 1_555
O10_2 C43_2 1_555 1_555
O11_2 C50_2 1_555 1_555
O32 C50_2 1_555 1_555
O13_2 C59 1_555 1_555
O16_2 C51_2 1_555 1_555
O34 C58_2 1_555 1_555
O36 C58_2 1_555 1_555
C34 C35_2 1_555 1_555
C35_2 C36_2 1_555 1_555
C36_2 C37_2 1_555 1_555
C37_2 C38 1_555 1_555
C38 C39 1_555 1_555
C39 C34 1_555 1_555
C40_2 C35_2 1_555 1_555
H28_2 C40_2 1_555 1_555
H29_2 C40_2 1_555 1_555
H30_2 C40_2 1_555 1_555
C41_2 C37_2 1_555 1_555
H31_2 C41_2 1_555 1_555
H32_2 C41_2 1_555 1_555
H33_2 C41_2 1_555 1_555
C42 C39 1_555 1_555
H34 C42 1_555 1_555
H35 C42 1_555 1_555
H36 C42 1_555 1_555
C43_2 C34 1_555 1_555
H37 C43_2 1_555 1_555
H38_2 C43_2 1_555 1_555
C44_2 O10_2 1_555 1_555
C45_2 C44_2 1_555 1_555
H39_2 C45_2 1_555 1_555
C46_2 C45_2 1_555 1_555
H40_2 C46_2 1_555 1_555
C47_2 C46_2 1_555 1_555
C48_2 C47_2 1_555 1_555
C49_2 C44_2 1_555 1_555
H42_2 C49_2 1_555 1_555
C50_2 C47_2 1_555 1_555
C51_2 C36_2 1_555 1_555
H43_2 C51_2 1_555 1_555
H44_2 C51_2 1_555 1_555
C52_2 O16_2 1_555 1_555
C53_2 C52_2 1_555 1_555
H45_2 C53_2 1_555 1_555
C54_2 C53_2 1_555 1_555
H46_2 C54_2 1_555 1_555
C55_2 C54_2 1_555 1_555
C56_2 C55_2 1_555 1_555
H47_2 C56_2 1_555 1_555
C57_2 C52_2 1_555 1_555
H48_2 C57_2 1_555 1_555
C58_2 C55_2 1_555 1_555
C59 C38 1_555 1_555
H49 C59 1_555 1_555
H50_2 C59 1_555 1_555
C60_2 O13_2 1_555 1_555
H53 C64 1_555 1_555
C65 C60_2 1_555 1_555
H54 C65 1_555 1_555
C48_2 C49_2 1_555 1_555
C56_2 C57_2 1_555 1_555
C64 C65 1_555 1_555
Mg8 O3_2 1_555 1_555
O1_2 C10_2 1_555 1_555
O2_2 C17_2 1_555 1_555
O3_2 C17_2 1_555 1_555
O4_2 C18_2 1_555 1_555
O5 C25_2 1_555 1_555
O6 C25_2 1_555 1_555
O7_2 C26_2 1_555 1_555
O30 C33_2 1_555 1_555
O31 C33_2 1_555 1_555
O20_2 Mg10 1_555 1_555
O37 C71_2 1_555 1_555
O26_2 Mg10 1_555 1_555
O27_2 Mg8 1_555 1_555
C1_2 C2_2 1_555 1_555
C2_2 C3_2 1_555 1_555
C3_2 C4_2 1_555 1_555
C4_2 C5_2 1_555 1_555
C5_2 C6_2 1_555 1_555
C6_2 C1_2 1_555 1_555
C7_2 C2_2 1_555 1_555
H1_2 C7_2 1_555 1_555
H2_2 C7_2 1_555 1_555
H3_2 C7_2 1_555 1_555
C8_2 C4_2 1_555 1_555
H4_2 C8_2 1_555 1_555
H5_2 C8_2 1_555 1_555
H6_2 C8_2 1_555 1_555
C9_2 C6_2 1_555 1_555
H7_2 C9_2 1_555 1_555
H8_2 C9_2 1_555 1_555
H9_2 C9_2 1_555 1_555
C10_2 C1_2 1_555 1_555
H10_2 C10_2 1_555 1_555
H11_2 C10_2 1_555 1_555
C11_2 O1_2 1_555 1_555
C12_2 C11_2 1_555 1_555
H12_2 C12_2 1_555 1_555
C13_2 C12_2 1_555 1_555
H13_2 C13_2 1_555 1_555
C14_2 C13_2 1_555 1_555
C15_2 C14_2 1_555 1_555
H14_2 C15_2 1_555 1_555
C16_2 C11_2 1_555 1_555
H15_2 C16_2 1_555 1_555
C17_2 C14_2 1_555 1_555
C18_2 C3_2 1_555 1_555
H16_2 C18_2 1_555 1_555
H17_2 C18_2 1_555 1_555
C19_2 O4_2 1_555 1_555
C20_2 C19_2 1_555 1_555
H18_2 C20_2 1_555 1_555
C21_2 C20_2 1_555 1_555
H19_2 C21_2 1_555 1_555
C22_2 C21_2 1_555 1_555
C23_2 C22_2 1_555 1_555
H20_2 C23_2 1_555 1_555
C24_2 C19_2 1_555 1_555
H21_2 C24_2 1_555 1_555
C25_2 C22_2 1_555 1_555
C26_2 C5_2 1_555 1_555
H22_2 C26_2 1_555 1_555
H23_2 C26_2 1_555 1_555
C27_2 O7_2 1_555 1_555
C28_2 C27_2 1_555 1_555
H24_2 C28_2 1_555 1_555
C29_2 C28_2 1_555 1_555
H25_2 C29_2 1_555 1_555
C30_2 C29_2 1_555 1_555
C31_2 C30_2 1_555 1_555
H26_2 C31_2 1_555 1_555
C32_2 C27_2 1_555 1_555
H27_2 C32_2 1_555 1_555
C33_2 C30_2 1_555 1_555
C70_2 N1_2 1_555 1_555
H61_2 C70_2 1_555 1_555
H62_2 C70_2 1_555 1_555
H63_2 C70_2 1_555 1_555
C71_2 O23_2 1_555 1_555
C72_2 C71_2 1_555 1_555
H64_2 C72_2 1_555 1_555
H65_2 C72_2 1_555 1_555
H66_2 C72_2 1_555 1_555
C73_2 O26_2 1_555 1_555
C74_2 C73_2 1_555 1_555
H67_2 C74_2 1_555 1_555
H68_2 C74_2 1_555 1_555
H69_2 C74_2 1_555 1_555
Mg6 O6 1_555 1_555
O27_2 C73_2 1_555 1_555
C15_2 C16_2 1_555 1_555
C23_2 C24_2 1_555 1_555
C31_2 C32_2 1_555 1_555
Mg13 O14_2 1_555 1_555
O14_2 C66_2 1_555 1_555
O33 C66_2 1_555 1_555
O19_2 Mg6 1_555 1_555
O21_2 Mg6 1_555 1_555
H51_2 C61_2 1_555 1_555
C62_2 C61_2 1_555 1_555
H52_2 C62_2 1_555 1_555
C63_2 C62_2 1_555 1_555
C66_2 C63_2 1_555 1_555
C67_2 H55_2 1_555 1_555
H56_2 C67_2 1_555 1_555
H57_2 C67_2 1_555 1_555
H59_2 C69_2 1_555 1_555
H60_2 C69_2 1_555 1_555
C75_2 H70_2 1_555 1_555
H71_2 C75_2 1_555 1_555
H72_2 C75_2 1_555 1_555
N2_2 C76_2 1_555 1_555
C76_2 H73_2 1_555 1_555
H74_2 C76_2 1_555 1_555
H75_2 C76_2 1_555 1_555
C77_2 O19_2 1_555 1_555
C78_2 N2_2 1_555 1_555
H76_2 C78_2 1_555 1_555
H77_2 C78_2 1_555 1_555
H78_2 C78_2 1_555 1_555
H79_2 O21_2 1_555 1_555
H80_2 O21_2 1_555 1_555
H81_2 O24_2 1_555 1_555
H82_2 O24_2 1_555 1_555
H83_2 O25_2 1_555 1_555
H84_2 O25_2 1_555 1_555
C67_2 C68_2 1_555 1_555
C75_2 C77_2 1_555 1_555
N2_2 C77_2 1_555 1_555
C38_2 C39_2 1_555 1_555
C39_2 C34_2 1_555 1_555
C42_2 C39_2 1_555 1_555
H34_2 C42_2 1_555 1_555
H35_2 C42_2 1_555 1_555
H36_2 C42_2 1_555 1_555
C59_2 C38_2 1_555 1_555
H49_2 C59_2 1_555 1_555
H53_2 C64_2 1_555 1_555
H54_2 C65_2 1_555 1_555
C64_2 C65_2 1_555 1_555
O10_3 C43_3 1_555 1_555
O11_3 C50_3 1_555 1_555
O12_2 C50_3 1_555 1_555
H38_3 C43_3 1_555 1_555
C44_3 O10_3 1_555 1_555
C45_3 C44_3 1_555 1_555
H39_3 C45_3 1_555 1_555
C46_3 C45_3 1_555 1_555
H40_3 C46_3 1_555 1_555
C47_3 C46_3 1_555 1_555
C48_3 C47_3 1_555 1_555
C49_3 C44_3 1_555 1_555
H42_3 C49_3 1_555 1_555
C50_3 C47_3 1_555 1_555
Mg11 O12_2 1_555 1_555
C48_3 C49_3 1_555 1_555
Mg11 O35 1_555 1_555
O17_2 C58_3 1_555 1_555
O35 C58_3 1_555 1_555
H28_3 C40_3 1_555 1_555
H30_3 C40_3 1_555 1_555
C52_3 O16_3 1_555 1_555
C53_3 C52_3 1_555 1_555
H45_3 C53_3 1_555 1_555
C54_3 C53_3 1_555 1_555
H46_3 C54_3 1_555 1_555
C55_3 C54_3 1_555 1_555
C56_3 C55_3 1_555 1_555
H47_3 C56_3 1_555 1_555
C57_3 C52_3 1_555 1_555
H48_3 C57_3 1_555 1_555
C58_3 C55_3 1_555 1_555
Mg11 O17_2 1_555 1_555
C56_3 C57_3 1_555 1_555
C36_3 C37_3 1_555 1_555
C41_3 C37_3 1_555 1_555
H31_3 C41_3 1_555 1_555
H32_3 C41_3 1_555 1_555
H33_3 C41_3 1_555 1_555
C51_3 C36_3 1_555 1_555
H43_3 C51_3 1_555 1_555
C60_3 O13_3 1_555 1_555
O4_3 C18_3 1_555 1_555
O5_2 C25_3 1_555 1_555
O6_2 C25_3 1_555 1_555
H16_3 C18_3 1_555 1_555
H17_3 C18_3 1_555 1_555
C19_3 O4_3 1_555 1_555
C20_3 C19_3 1_555 1_555
H18_3 C20_3 1_555 1_555
C21_3 C20_3 1_555 1_555
H19_3 C21_3 1_555 1_555
C22_3 C21_3 1_555 1_555
C23_3 C22_3 1_555 1_555
H20_3 C23_3 1_555 1_555
C24_3 C19_3 1_555 1_555
H21_3 C24_3 1_555 1_555
C25_3 C22_3 1_555 1_555
Mg5 O6_2 1_555 1_555
Mg7 O5_2 1_555 1_555
C23_3 C24_3 1_555 1_555
Mg5 O2_3 1_555 1_555
Mg7 O3_3 1_555 1_555
O1_3 C10_3 1_555 1_555
O2_3 C17_3 1_555 1_555
O3_3 C17_3 1_555 1_555
O19_3 Mg5 1_555 1_555
O20_3 Mg3 1_555 1_555
O21_3 Mg5 1_555 1_555
O22_2 C71_3 1_555 1_555
O23_3 Mg5 1_555 1_555
O24_3 Mg7 1_555 1_555
O25_3 Mg3 1_555 1_555
O26_3 Mg3 1_555 1_555
O27_3 Mg7 1_555 1_555
N1_3 C68_3 1_555 1_555
C7_3 C2_3 1_555 1_555
H1_3 C7_3 1_555 1_555
H3_3 C7_3 1_555 1_555
H11_3 C10_3 1_555 1_555
C11_3 O1_3 1_555 1_555
C12_3 C11_3 1_555 1_555
H12_3 C12_3 1_555 1_555
C13_3 C12_3 1_555 1_555
H13_3 C13_3 1_555 1_555
C14_3 C13_3 1_555 1_555
C15_3 C14_3 1_555 1_555
H14_3 C15_3 1_555 1_555
C16_3 C11_3 1_555 1_555
H15_3 C16_3 1_555 1_555
C17_3 C14_3 1_555 1_555
C67_3 H55_3 1_555 1_555
H56_3 C67_3 1_555 1_555
H57_3 C67_3 1_555 1_555
C68_3 O20_3 1_555 1_555
C70_3 N1_3 1_555 1_555
H61_3 C70_3 1_555 1_555
H62_3 C70_3 1_555 1_555
H63_3 C70_3 1_555 1_555
C71_3 O23_3 1_555 1_555
C72_3 C71_3 1_555 1_555
H64_3 C72_3 1_555 1_555
H65_3 C72_3 1_555 1_555
H66_3 C72_3 1_555 1_555
C73_3 O26_3 1_555 1_555
C74_3 C73_3 1_555 1_555
H67_3 C74_3 1_555 1_555
H68_3 C74_3 1_555 1_555
H69_3 C74_3 1_555 1_555
C75_3 H70_3 1_555 1_555
H71_3 C75_3 1_555 1_555
H72_3 C75_3 1_555 1_555
N2_3 C76_3 1_555 1_555
C76_3 H73_3 1_555 1_555
H74_3 C76_3 1_555 1_555
H75_3 C76_3 1_555 1_555
C77_3 O19_3 1_555 1_555
C78_3 N2_3 1_555 1_555
H76_3 C78_3 1_555 1_555
H77_3 C78_3 1_555 1_555
H78_3 C78_3 1_555 1_555
H79_3 O21_3 1_555 1_555
H80_3 O21_3 1_555 1_555
H81_3 O24_3 1_555 1_555
H82_3 O24_3 1_555 1_555
H83_3 O25_3 1_555 1_555
H84_3 O25_3 1_555 1_555
Mg11 O22_2 1_555 1_555
O30_2 Mg5 1_555 1_555
O31_2 Mg7 1_555 1_555
Mg7 O30_2 1_555 1_555
O27_3 C73_3 1_555 1_555
C15_3 C16_3 1_555 1_555
C67_3 C68_3 1_555 1_555
C75_3 C77_3 1_555 1_555
N2_3 C77_3 1_555 1_555
C3_3 C4_3 1_555 1_555
C8_3 C4_3 1_555 1_555
H4_3 C8_3 1_555 1_555
H5_3 C8_3 1_555 1_555
H6_3 C8_3 1_555 1_555
H24_3 C28_3 1_555 1_555
C29_3 C28_3 1_555 1_555
H25_3 C29_3 1_555 1_555
Mg6_2 O8_2 1_555 1_555
O7_3 C26_3 1_555 1_555
O9_2 C33_3 1_555 1_555
C5_3 C6_3 1_555 1_555
C6_3 C1_3 1_555 1_555
C9_3 C6_3 1_555 1_555
H7_3 C9_3 1_555 1_555
H8_3 C9_3 1_555 1_555
H9_3 C9_3 1_555 1_555
C26_3 C5_3 1_555 1_555
H23_3 C26_3 1_555 1_555
C27_3 O7_3 1_555 1_555
C31_3 C30_3 1_555 1_555
H26_3 C31_3 1_555 1_555
C32_3 C27_3 1_555 1_555
H27_3 C32_3 1_555 1_555
C33_3 C30_3 1_555 1_555
H58_3 C69_3 1_555 1_555
H59_3 C69_3 1_555 1_555
H60_3 C69_3 1_555 1_555
O9_2 Mg8_2 1_555 1_555
C31_3 C32_3 1_555 1_555
Mg4_2 O14_3 1_555 1_555
O14_3 C66_3 1_555 1_555
H51_3 C61_3 1_555 1_555
C62_3 C61_3 1_555 1_555
H52_3 C62_3 1_555 1_555
C63_3 C62_3 1_555 1_555
C66_3 C63_3 1_555 1_555
O34_2 Mg4_2 1_555 1_555
O36_2 Mg4_2 1_555 1_555
O37_2 Mg4_2 1_555 1_555
Mg11 O14_4 1_555 1_555
O14_4 C66_4 1_555 1_555
O33_2 C66_4 1_555 1_555
O19_4 Mg6_2 1_555 1_555
O21_4 Mg6_2 1_555 1_555
H51_4 C61_4 1_555 1_555
C62_4 C61_4 1_555 1_555
H52_4 C62_4 1_555 1_555
C63_4 C62_4 1_555 1_555
C66_4 C63_4 1_555 1_555
C67_4 H55_4 1_555 1_555
H56_4 C67_4 1_555 1_555
H57_4 C67_4 1_555 1_555
H59_4 C69_4 1_555 1_555
H60_4 C69_4 1_555 1_555
C75_4 H70_4 1_555 1_555
H71_4 C75_4 1_555 1_555
H72_4 C75_4 1_555 1_555
N2_4 C76_4 1_555 1_555
C76_4 H73_4 1_555 1_555
H74_4 C76_4 1_555 1_555
H75_4 C76_4 1_555 1_555
C77_4 O19_4 1_555 1_555
C78_4 N2_4 1_555 1_555
H76_4 C78_4 1_555 1_555
H77_4 C78_4 1_555 1_555
H78_4 C78_4 1_555 1_555
H79_4 O21_4 1_555 1_555
H80_4 O21_4 1_555 1_555
H81_4 O24_4 1_555 1_555
H82_4 O24_4 1_555 1_555
H83_4 O25_4 1_555 1_555
H84_4 O25_4 1_555 1_555
O29_2 Mg6_2 1_555 1_555
C67_4 C68_4 1_555 1_555
C75_4 C77_4 1_555 1_555
N2_4 C77_4 1_555 1_555
Mg8_2 O3_4 1_555 1_555
O1_4 C10_4 1_555 1_555
O2_4 C17_4 1_555 1_555
O3_4 C17_4 1_555 1_555
O4_4 C18_4 1_555 1_555
O28_2 C25_4 1_555 1_555
O29_2 C25_4 1_555 1_555
O7_4 C26_4 1_555 1_555
O30_2 C33_4 1_555 1_555
O31_2 C33_4 1_555 1_555
O20_4 Mg10_2 1_555 1_555
O37_2 C71_4 1_555 1_555
O26_4 Mg10_2 1_555 1_555
O27_4 Mg8_2 1_555 1_555
C1_4 C2_4 1_555 1_555
C2_4 C3_4 1_555 1_555
C3_4 C4_4 1_555 1_555
C4_4 C5_4 1_555 1_555
C5_4 C6_4 1_555 1_555
C6_4 C1_4 1_555 1_555
C7_4 C2_4 1_555 1_555
H1_4 C7_4 1_555 1_555
H2_4 C7_4 1_555 1_555
H3_4 C7_4 1_555 1_555
C8_4 C4_4 1_555 1_555
H4_4 C8_4 1_555 1_555
H5_4 C8_4 1_555 1_555
H6_4 C8_4 1_555 1_555
C9_4 C6_4 1_555 1_555
H7_4 C9_4 1_555 1_555
H8_4 C9_4 1_555 1_555
H9_4 C9_4 1_555 1_555
C10_4 C1_4 1_555 1_555
H10_4 C10_4 1_555 1_555
H11_4 C10_4 1_555 1_555
C11_4 O1_4 1_555 1_555
C12_4 C11_4 1_555 1_555
H12_4 C12_4 1_555 1_555
C13_4 C12_4 1_555 1_555
H13_4 C13_4 1_555 1_555
C14_4 C13_4 1_555 1_555
C15_4 C14_4 1_555 1_555
H14_4 C15_4 1_555 1_555
C16_4 C11_4 1_555 1_555
H15_4 C16_4 1_555 1_555
C17_4 C14_4 1_555 1_555
C18_4 C3_4 1_555 1_555
H16_4 C18_4 1_555 1_555
H17_4 C18_4 1_555 1_555
C19_4 O4_4 1_555 1_555
C20_4 C19_4 1_555 1_555
H18_4 C20_4 1_555 1_555
C21_4 C20_4 1_555 1_555
H19_4 C21_4 1_555 1_555
C22_4 C21_4 1_555 1_555
C23_4 C22_4 1_555 1_555
H20_4 C23_4 1_555 1_555
C24_4 C19_4 1_555 1_555
H21_4 C24_4 1_555 1_555
C25_4 C22_4 1_555 1_555
C26_4 C5_4 1_555 1_555
H22_4 C26_4 1_555 1_555
H23_4 C26_4 1_555 1_555
C27_4 O7_4 1_555 1_555
C28_4 C27_4 1_555 1_555
H24_4 C28_4 1_555 1_555
C29_4 C28_4 1_555 1_555
H25_4 C29_4 1_555 1_555
C30_4 C29_4 1_555 1_555
C31_4 C30_4 1_555 1_555
H26_4 C31_4 1_555 1_555
C32_4 C27_4 1_555 1_555
H27_4 C32_4 1_555 1_555
C33_4 C30_4 1_555 1_555
C70_4 N1_4 1_555 1_555
H61_4 C70_4 1_555 1_555
H62_4 C70_4 1_555 1_555
H63_4 C70_4 1_555 1_555
C71_4 O23_4 1_555 1_555
C72_4 C71_4 1_555 1_555
H64_4 C72_4 1_555 1_555
H65_4 C72_4 1_555 1_555
H66_4 C72_4 1_555 1_555
C73_4 O26_4 1_555 1_555
C74_4 C73_4 1_555 1_555
H67_4 C74_4 1_555 1_555
H68_4 C74_4 1_555 1_555
H69_4 C74_4 1_555 1_555
O27_4 C73_4 1_555 1_555
C15_4 C16_4 1_555 1_555
C23_4 C24_4 1_555 1_555
C31_4 C32_4 1_555 1_555
O10_4 C43_4 1_555 1_555
O11_4 C50_4 1_555 1_555
O32_2 C50_4 1_555 1_555
O13_4 C59_3 1_555 1_555
O16_4 C51_4 1_555 1_555
O34_2 C58_4 1_555 1_555
O36_2 C58_4 1_555 1_555
C34_3 C35_4 1_555 1_555
C35_4 C36_4 1_555 1_555
C36_4 C37_4 1_555 1_555
C37_4 C38_3 1_555 1_555
C38_3 C39_3 1_555 1_555
C39_3 C34_3 1_555 1_555
C40_4 C35_4 1_555 1_555
H28_4 C40_4 1_555 1_555
H29_4 C40_4 1_555 1_555
H30_4 C40_4 1_555 1_555
C41_4 C37_4 1_555 1_555
H31_4 C41_4 1_555 1_555
H32_4 C41_4 1_555 1_555
H33_4 C41_4 1_555 1_555
C42_3 C39_3 1_555 1_555
H34_3 C42_3 1_555 1_555
H35_3 C42_3 1_555 1_555
H36_3 C42_3 1_555 1_555
C43_4 C34_3 1_555 1_555
H37_3 C43_4 1_555 1_555
H38_4 C43_4 1_555 1_555
C44_4 O10_4 1_555 1_555
C45_4 C44_4 1_555 1_555
H39_4 C45_4 1_555 1_555
C46_4 C45_4 1_555 1_555
H40_4 C46_4 1_555 1_555
C47_4 C46_4 1_555 1_555
C48_4 C47_4 1_555 1_555
C49_4 C44_4 1_555 1_555
H42_4 C49_4 1_555 1_555
C50_4 C47_4 1_555 1_555
C51_4 C36_4 1_555 1_555
H43_4 C51_4 1_555 1_555
H44_4 C51_4 1_555 1_555
C52_4 O16_4 1_555 1_555
C53_4 C52_4 1_555 1_555
H45_4 C53_4 1_555 1_555
C54_4 C53_4 1_555 1_555
H46_4 C54_4 1_555 1_555
C55_4 C54_4 1_555 1_555
C56_4 C55_4 1_555 1_555
H47_4 C56_4 1_555 1_555
C57_4 C52_4 1_555 1_555
H48_4 C57_4 1_555 1_555
C58_4 C55_4 1_555 1_555
C59_3 C38_3 1_555 1_555
H49_3 C59_3 1_555 1_555
H50_4 C59_3 1_555 1_555
C60_4 O13_4 1_555 1_555
H53_3 C64_3 1_555 1_555
C65_3 C60_4 1_555 1_555
H54_3 C65_3 1_555 1_555
C48_4 C49_4 1_555 1_555
C56_4 C57_4 1_555 1_555
C64_3 C65_3 1_555 1_555
C38_4 C39_4 1_555 1_555
C39_4 C34_4 1_555 1_555
C42_4 C39_4 1_555 1_555
H34_4 C42_4 1_555 1_555
H35_4 C42_4 1_555 1_555
H36_4 C42_4 1_555 1_555
C59_4 C38_4 1_555 1_555
H49_4 C59_4 1_555 1_555
H53_4 C64_4 1_555 1_555
H54_4 C65_4 1_555 1_555
C64_4 C65_4 1_555 1_555

#END
