
###############################################################################
#
# This file contains modified crystal structure data generated from the
# MOF subset of the Cambridge Structural Database (CSD) v543 
# hosted by the Cambridge Crystallographic Data Centre (CCDC).
#
# This work is licensed under the Creative Commons
# Attribution-NonCommercial-ShareAlike 4.0 International License.
# To view a copy of this license, visit
# http://creativecommons.org/licenses/by-nc-sa/4.0/
# or send a letter to
# Creative Commons, PO Box 1866, Mountain View, CA 94042, USA.
#
# CIF created using the CSD Python API on 29 September 2022
# The structure has been converted into the P1 space group
# The structure has a 3D framework
# The original CSD entry OBIYAC is in the tetragonal crystal system
# The framework has been calculated to contain at least 10.0% void space
# The void calculation uses a probe of radius 1.32A, grid spacing 0.4
# The framework is charged, counterions have been retained in the structure
#
###############################################################################

data_OBIYAC
_chemical_formula_moiety         '(C224 H104 N8 O54 Tb6 3-)n'
_symmetry_cell_setting           triclinic
_symmetry_space_group_name_H-M   'P 1'
_symmetry_Int_Tables_number      1
_space_group_name_Hall           'P 1'
loop_
_symmetry_equiv_pos_site_id
_symmetry_equiv_pos_as_xyz
1 x,y,z
_cell_length_a                   13.799(2)
_cell_length_b                   13.799(2)
_cell_length_c                   31.702(12)
_cell_angle_alpha                90
_cell_angle_beta                 90
_cell_angle_gamma                90
_cell_volume                     6036.45
loop_
_atom_site_label
_atom_site_type_symbol
_atom_site_fract_x
_atom_site_fract_y
_atom_site_fract_z
Tb2 Tb -0.0000 0.5000 0.817706(8)
Tb4 Tb -0.0000 0.5000 0.682294(8)
Tb5 Tb -0.0000 -0.0000 0.567706(8)
Tb5_2 Tb -0.0000 1.0000 0.567706(8)
Tb1 Tb 0.5000 -0.0000 0.182294(8)
C4 C 0.5953(5) 0.1053(5) 0.0626(2)
O2 O 0.5591(4) 0.3850(3) 0.02395(13)
C6 C 0.5879(4) 0.2236(4) 0.00752(17)
O3 O 0.5399(5) 0.1349(4) 0.13258(16)
C7 C 0.5832(6) 0.0731(7) 0.1092(2)
C8 C 0.6203(5) 0.0359(5) 0.03399(17)
C9 C 0.5804(5) 0.1989(5) 0.04967(18)
H5 H 0.5650 0.2463 0.0694
Tb3 Tb 0.5000 0.5000 0.067706(8)
O9 O 0.3927(3) 0.0003(6) 0.12074(14)
O10 O 0.5591(4) 0.1150(3) 0.22605(13)
O14 O 0.3493(3) 0.0699(4) 0.20565(13)
C1 C 0.6975(4) 0.0033(7) 0.92174(16)
H1 H 0.7067 0.0678 0.9143
C3 C 0.6093(6) 0.1510(5) 0.9775(2)
H3 H 0.6115 0.1666 0.9490
O4 O 0.5699(4) 0.3493(3) 0.95565(13)
C11 C 0.6273(5) 0.0557(4) 0.99047(18)
C14 C 0.5716(5) 0.3284(5) 0.99463(19)
C15 C 0.8025(4) 0.0033(7) 0.82826(16)
H8 H 0.7933 0.0678 0.8357
C17 C 0.8907(6) 0.1510(5) 0.7725(2)
H10 H 0.8885 0.1666 0.8010
C18 C 0.9047(5) 0.1053(5) 0.6874(2)
O6 O 0.9409(4) 0.3850(3) 0.72605(13)
C20 C 0.9121(4) 0.2236(4) 0.74248(17)
O7 O 0.9601(5) 0.1349(4) 0.61742(16)
C21 C 0.9168(6) 0.0731(7) 0.6408(2)
O8 O 0.9301(4) 0.3493(3) 0.79435(13)
C22 C 0.8797(5) 0.0359(5) 0.71601(17)
C23 C 0.9196(5) 0.1989(5) 0.70033(18)
H12 H 0.9350 0.2463 0.6806
C25 C 0.8727(5) 0.0557(4) 0.75953(18)
C28 C 0.9284(5) 0.3284(5) 0.75537(19)
Tb2_2 Tb 1.0000 0.5000 0.817706(8)
Tb4_2 Tb 1.0000 0.5000 0.682294(8)
Tb5_3 Tb 1.0000 -0.0000 0.567706(8)
Tb6 Tb 0.5000 0.5000 0.932294(8)
Tb1_2 Tb 0.5000 1.0000 0.182294(8)
O1 O 0.6073(3) 0.9997(6) 0.12074(14)
H4 H 0.6332 0.9735 0.0435
O11 O 0.4409(4) 0.8850(3) 0.22605(13)
O12 O 0.4601(5) 0.8651(4) 0.13258(16)
O13 O 0.6507(3) 0.9301(4) 0.20565(13)
C2 C 0.6345(6) 0.8816(6) 0.9690(3)
H2 H 0.6023 0.8652 0.9937
C5 C 0.6520(5) 0.9804(5) 0.96007(17)
N1 N 0.7500 0.7750(6) 0.8750
H6 H 0.7500 0.7127 0.8750
C10 C 0.7283(5) 0.9311(5) 0.89523(19)
C12 C 0.6631(6) 0.8105(5) 0.9426(2)
H7 H 0.6493 0.7461 0.9488
C13 C 0.7120(5) 0.8336(5) 0.9071(2)
O5 O 0.8927(3) 0.9997(6) 0.62926(14)
C16 C 0.8655(6) 0.8816(6) 0.7810(3)
H9 H 0.8977 0.8652 0.7563
C19 C 0.8480(5) 0.9804(5) 0.78993(17)
H11 H 0.8668 0.9735 0.7065
C24 C 0.7717(5) 0.9311(5) 0.85477(19)
C26 C 0.8369(6) 0.8105(5) 0.8074(2)
H13 H 0.8507 0.7461 0.8012
C27 C 0.7880(5) 0.8336(5) 0.8429(2)
Tb5_4 Tb 1.0000 1.0000 0.567706(8)
C1_2 C 0.0033(7) 0.3025(4) 0.07826(16)
H1_2 H 0.0678 0.2933 0.0857
C3_2 C 0.1510(5) 0.3907(6) 0.0225(2)
H3_2 H 0.1666 0.3885 0.0510
O4_2 O 0.3493(3) 0.4301(4) 0.04435(13)
C11_2 C 0.0557(4) 0.3727(5) 0.00953(18)
C14_2 C 0.3284(5) 0.4284(5) 0.00537(19)
C15_2 C 0.0033(7) 0.1975(4) 0.17174(16)
H8_2 H 0.0678 0.2067 0.1643
C17_2 C 0.1510(5) 0.1093(6) 0.2275(2)
H10_2 H 0.1666 0.1115 0.1990
C18_2 C 0.1053(5) 0.0953(5) 0.3126(2)
O6_2 O 0.3850(3) 0.0591(4) 0.27395(13)
C20_2 C 0.2236(4) 0.0879(4) 0.25752(17)
O7_2 O 0.1349(4) 0.0399(5) 0.38258(16)
C21_2 C 0.0731(7) 0.0832(6) 0.3592(2)
C22_2 C 0.0359(5) 0.1203(5) 0.28399(17)
C23_2 C 0.1989(5) 0.0804(5) 0.29967(18)
H12_2 H 0.2463 0.0650 0.3194
C25_2 C 0.0557(4) 0.1273(5) 0.24047(18)
C28_2 C 0.3284(5) 0.0716(5) 0.24463(19)
Tb4_3 Tb 0.5000 0.0000 0.317706(8)
Tb5_5 Tb -0.0000 0.0000 0.432294(8)
C4_2 C 0.1053(5) 0.4047(5) 0.9374(2)
O2_2 O 0.3850(3) 0.4409(4) 0.97605(13)
C6_2 C 0.2236(4) 0.4121(4) 0.99248(17)
O3_2 O 0.1349(4) 0.4601(5) 0.86742(16)
C7_2 C 0.0731(7) 0.4168(6) 0.8908(2)
C8_2 C 0.0359(5) 0.3797(5) 0.96601(17)
C9_2 C 0.1989(5) 0.4196(5) 0.95033(18)
H5_2 H 0.2463 0.4350 0.9306
O9_2 O 0.0003(6) 0.6073(3) 0.87926(14)
O10_2 O 0.1150(3) 0.4409(4) 0.77395(13)
O14_2 O 0.0699(4) 0.6507(3) 0.79435(13)
Tb4_4 Tb 0.5000 1.0000 0.317706(8)
Tb5_6 Tb -0.0000 1.0000 0.432294(8)
C2_2 C 0.8816(6) 0.3655(6) 0.0310(3)
H2_2 H 0.8652 0.3977 0.0063
C5_2 C 0.9804(5) 0.3480(5) 0.03993(17)
N1_2 N 0.7750(6) 0.2500 0.1250
H6_2 H 0.7127 0.2500 0.1250
C10_2 C 0.9311(5) 0.2717(5) 0.10477(19)
C12_2 C 0.8105(5) 0.3369(6) 0.0574(2)
H7_2 H 0.7461 0.3507 0.0512
C13_2 C 0.8336(5) 0.2880(5) 0.0929(2)
O5_2 O 0.9997(6) 0.1073(3) 0.37074(14)
C16_2 C 0.8816(6) 0.1345(6) 0.2190(3)
H9_2 H 0.8652 0.1023 0.2437
C19_2 C 0.9804(5) 0.1520(5) 0.21007(17)
H11_2 H 0.9735 0.1332 0.2935
C24_2 C 0.9311(5) 0.2283(5) 0.14523(19)
C26_2 C 0.8105(5) 0.1631(6) 0.1926(2)
H13_2 H 0.7461 0.1493 0.1988
C27_2 C 0.8336(5) 0.2120(5) 0.1571(2)
Tb5_7 Tb 1.0000 0.0000 0.432294(8)
O1_2 O 0.9997(6) 0.3927(3) 0.87926(14)
H4_2 H 0.9735 0.3668 0.9565
O11_2 O 0.8850(3) 0.5591(4) 0.77395(13)
O12_2 O 0.8651(4) 0.5399(5) 0.86742(16)
Tb5_8 Tb 1.0000 1.0000 0.432294(8)
H4_3 H 0.3668 0.0265 0.0435
C2_3 C 0.3655(6) 0.1184(6) 0.9690(3)
H2_3 H 0.3977 0.1348 0.9937
C5_3 C 0.3480(5) 0.0196(5) 0.96007(17)
N1_3 N 0.2500 0.2250(6) 0.8750
H6_3 H 0.2500 0.2873 0.8750
C10_3 C 0.2717(5) 0.0689(5) 0.89523(19)
C12_3 C 0.3369(6) 0.1895(5) 0.9426(2)
H7_3 H 0.3507 0.2539 0.9488
C13_3 C 0.2880(5) 0.1664(5) 0.9071(2)
O5_3 O 0.1073(3) 0.0003(6) 0.62926(14)
C16_3 C 0.1345(6) 0.1184(6) 0.7810(3)
H9_3 H 0.1023 0.1348 0.7563
C19_3 C 0.1520(5) 0.0196(5) 0.78993(17)
H11_3 H 0.1332 0.0265 0.7065
C24_3 C 0.2283(5) 0.0689(5) 0.85477(19)
C26_3 C 0.1631(6) 0.1895(5) 0.8074(2)
H13_3 H 0.1493 0.2539 0.8012
C27_3 C 0.2120(5) 0.1664(5) 0.8429(2)
C4_3 C 0.4047(5) 0.8947(5) 0.0626(2)
O2_3 O 0.4409(4) 0.6150(3) 0.02395(13)
C6_3 C 0.4121(4) 0.7764(4) 0.00752(17)
C7_3 C 0.4168(6) 0.9269(7) 0.1092(2)
C8_3 C 0.3797(5) 0.9641(5) 0.03399(17)
C9_3 C 0.4196(5) 0.8011(5) 0.04967(18)
H5_3 H 0.4350 0.7537 0.0694
C1_3 C 0.3025(4) 0.9967(7) 0.92174(16)
H1_3 H 0.2933 0.9322 0.9143
C3_3 C 0.3907(6) 0.8490(5) 0.9775(2)
H3_3 H 0.3885 0.8334 0.9490
O4_3 O 0.4301(4) 0.6507(3) 0.95565(13)
C11_3 C 0.3727(5) 0.9443(4) 0.99047(18)
C14_3 C 0.4284(5) 0.6716(5) 0.99463(19)
C15_3 C 0.1975(4) 0.9967(7) 0.82826(16)
H8_3 H 0.2067 0.9322 0.8357
C17_3 C 0.1093(6) 0.8490(5) 0.7725(2)
H10_3 H 0.1115 0.8334 0.8010
C18_3 C 0.0953(5) 0.8947(5) 0.6874(2)
O6_3 O 0.0591(4) 0.6150(3) 0.72605(13)
C20_3 C 0.0879(4) 0.7764(4) 0.74248(17)
O7_3 O 0.0399(5) 0.8651(4) 0.61742(16)
C21_3 C 0.0832(6) 0.9269(7) 0.6408(2)
C22_3 C 0.1203(5) 0.9641(5) 0.71601(17)
C23_3 C 0.0804(5) 0.8011(5) 0.70033(18)
H12_3 H 0.0650 0.7537 0.6806
C25_3 C 0.1273(5) 0.9443(4) 0.75953(18)
C28_3 C 0.0716(5) 0.6716(5) 0.75537(19)
C2_4 C 0.1184(6) 0.6345(6) 0.0310(3)
H2_4 H 0.1348 0.6023 0.0063
C5_4 C 0.0196(5) 0.6520(5) 0.03993(17)
N1_4 N 0.2250(6) 0.7500 0.1250
H6_4 H 0.2873 0.7500 0.1250
C10_4 C 0.0689(5) 0.7283(5) 0.10477(19)
C12_4 C 0.1895(5) 0.6631(6) 0.0574(2)
H7_4 H 0.2539 0.6493 0.0512
C13_4 C 0.1664(5) 0.7120(5) 0.0929(2)
O5_4 O 0.0003(6) 0.8927(3) 0.37074(14)
C16_4 C 0.1184(6) 0.8655(6) 0.2190(3)
H9_4 H 0.1348 0.8977 0.2437
C19_4 C 0.0196(5) 0.8480(5) 0.21007(17)
H11_4 H 0.0265 0.8668 0.2935
C24_4 C 0.0689(5) 0.7717(5) 0.14523(19)
C26_4 C 0.1895(5) 0.8369(6) 0.1926(2)
H13_4 H 0.2539 0.8507 0.1988
C27_4 C 0.1664(5) 0.7880(5) 0.1571(2)
H4_4 H 0.0265 0.6332 0.9565
C1_4 C 0.9967(7) 0.6975(4) 0.07826(16)
H1_4 H 0.9322 0.7067 0.0857
C3_4 C 0.8490(5) 0.6093(6) 0.0225(2)
H3_4 H 0.8334 0.6115 0.0510
O4_4 O 0.6507(3) 0.5699(4) 0.04435(13)
C11_4 C 0.9443(4) 0.6273(5) 0.00953(18)
C14_4 C 0.6716(5) 0.5716(5) 0.00537(19)
C15_4 C 0.9967(7) 0.8025(4) 0.17174(16)
H8_4 H 0.9322 0.7933 0.1643
C17_4 C 0.8490(5) 0.8907(6) 0.2275(2)
H10_4 H 0.8334 0.8885 0.1990
C18_4 C 0.8947(5) 0.9047(5) 0.3126(2)
O6_4 O 0.6150(3) 0.9409(4) 0.27395(13)
C20_4 C 0.7764(4) 0.9121(4) 0.25752(17)
O7_4 O 0.8651(4) 0.9601(5) 0.38258(16)
C21_4 C 0.9269(7) 0.9168(6) 0.3592(2)
C22_4 C 0.9641(5) 0.8797(5) 0.28399(17)
C23_4 C 0.8011(5) 0.9196(5) 0.29967(18)
H12_4 H 0.7537 0.9350 0.3194
C25_4 C 0.9443(4) 0.8727(5) 0.24047(18)
C28_4 C 0.6716(5) 0.9284(5) 0.24463(19)
C4_4 C 0.8947(5) 0.5953(5) 0.9374(2)
O2_4 O 0.6150(3) 0.5591(4) 0.97605(13)
C6_4 C 0.7764(4) 0.5879(4) 0.99248(17)
C7_4 C 0.9269(7) 0.5832(6) 0.8908(2)
C8_4 C 0.9641(5) 0.6203(5) 0.96601(17)
C9_4 C 0.8011(5) 0.5804(5) 0.95033(18)
H5_4 H 0.7537 0.5650 0.9306
O1_3 O 0.6073(3) 0.5003(6) 0.12926(14)
C1_5 C 0.6975(4) 0.4967(7) 0.32826(16)
H1_5 H 0.7067 0.4322 0.3357
C2_5 C 0.6345(6) 0.6184(6) 0.2810(3)
H2_5 H 0.6023 0.6348 0.2563
C3_5 C 0.6093(6) 0.3490(5) 0.2725(2)
H3_5 H 0.6115 0.3334 0.3010
C4_5 C 0.5953(5) 0.3947(5) 0.1874(2)
C5_5 C 0.6520(5) 0.5196(5) 0.28993(17)
C6_5 C 0.5879(4) 0.2764(4) 0.24248(17)
O3_3 O 0.5399(5) 0.3651(4) 0.11742(16)
C7_5 C 0.5832(6) 0.4269(7) 0.1408(2)
O4_5 O 0.5699(4) 0.1507(3) 0.29435(13)
C8_5 C 0.6203(5) 0.4641(5) 0.21601(17)
H4_5 H 0.6332 0.5265 0.2065
C9_5 C 0.5804(5) 0.3011(5) 0.20033(18)
H5_5 H 0.5650 0.2537 0.1806
N1_5 N 0.7500 0.7250(6) 0.3750
H6_5 H 0.7500 0.7873 0.3750
C10_5 C 0.7283(5) 0.5689(5) 0.35477(19)
C11_5 C 0.6273(5) 0.4443(4) 0.25953(18)
C12_5 C 0.6631(6) 0.6895(5) 0.3074(2)
H7_5 H 0.6493 0.7539 0.3012
C13_5 C 0.7120(5) 0.6664(5) 0.3429(2)
C14_5 C 0.5716(5) 0.1716(5) 0.25537(19)
O5_5 O 0.8927(3) 0.5003(6) 0.62074(14)
C15_5 C 0.8025(4) 0.4967(7) 0.42174(16)
H8_5 H 0.7933 0.4322 0.4143
C16_5 C 0.8655(6) 0.6184(6) 0.4690(3)
H9_5 H 0.8977 0.6348 0.4937
C17_5 C 0.8907(6) 0.3490(5) 0.4775(2)
H10_5 H 0.8885 0.3334 0.4490
C18_5 C 0.9047(5) 0.3947(5) 0.5626(2)
C19_5 C 0.8480(5) 0.5196(5) 0.46007(17)
O6_5 O 0.9409(4) 0.1150(3) 0.52395(13)
C20_5 C 0.9121(4) 0.2764(4) 0.50752(17)
O7_5 O 0.9601(5) 0.3651(4) 0.63258(16)
C21_5 C 0.9168(6) 0.4269(7) 0.6092(2)
O8_2 O 0.9301(4) 0.1507(3) 0.45565(13)
C22_5 C 0.8797(5) 0.4641(5) 0.53399(17)
H11_5 H 0.8668 0.5265 0.5435
C23_5 C 0.9196(5) 0.3011(5) 0.54967(18)
H12_5 H 0.9350 0.2537 0.5694
C24_5 C 0.7717(5) 0.5689(5) 0.39523(19)
C25_5 C 0.8727(5) 0.4443(4) 0.49047(18)
C26_5 C 0.8369(6) 0.6895(5) 0.4426(2)
H13_5 H 0.8507 0.7539 0.4488
C27_5 C 0.7880(5) 0.6664(5) 0.4071(2)
C28_5 C 0.9284(5) 0.1716(5) 0.49463(19)
O9_3 O 0.3927(3) 0.4997(6) 0.12926(14)
O12_3 O 0.4601(5) 0.6349(4) 0.11742(16)
C1_6 C 0.3025(4) 0.5033(7) 0.32826(16)
H1_6 H 0.2933 0.5678 0.3357
C2_6 C 0.3655(6) 0.3816(6) 0.2810(3)
H2_6 H 0.3977 0.3652 0.2563
C3_6 C 0.3907(6) 0.6510(5) 0.2725(2)
H3_6 H 0.3885 0.6666 0.3010
C4_6 C 0.4047(5) 0.6053(5) 0.1874(2)
C5_6 C 0.3480(5) 0.4804(5) 0.28993(17)
C6_6 C 0.4121(4) 0.7236(4) 0.24248(17)
C7_6 C 0.4168(6) 0.5731(7) 0.1408(2)
O4_6 O 0.4301(4) 0.8493(3) 0.29435(13)
C8_6 C 0.3797(5) 0.5359(5) 0.21601(17)
H4_6 H 0.3668 0.4735 0.2065
C9_6 C 0.4196(5) 0.6989(5) 0.20033(18)
H5_6 H 0.4350 0.7463 0.1806
N1_6 N 0.2500 0.2750(6) 0.3750
H6_6 H 0.2500 0.2127 0.3750
C10_6 C 0.2717(5) 0.4311(5) 0.35477(19)
C11_6 C 0.3727(5) 0.5557(4) 0.25953(18)
C12_6 C 0.3369(6) 0.3105(5) 0.3074(2)
H7_6 H 0.3507 0.2461 0.3012
C13_6 C 0.2880(5) 0.3336(5) 0.3429(2)
C14_6 C 0.4284(5) 0.8284(5) 0.25537(19)
O5_6 O 0.1073(3) 0.4997(6) 0.62074(14)
C15_6 C 0.1975(4) 0.5033(7) 0.42174(16)
H8_6 H 0.2067 0.5678 0.4143
C16_6 C 0.1345(6) 0.3816(6) 0.4690(3)
H9_6 H 0.1023 0.3652 0.4937
C17_6 C 0.1093(6) 0.6510(5) 0.4775(2)
H10_6 H 0.1115 0.6666 0.4490
C18_6 C 0.0953(5) 0.6053(5) 0.5626(2)
C19_6 C 0.1520(5) 0.4804(5) 0.46007(17)
O6_6 O 0.0591(4) 0.8850(3) 0.52395(13)
C20_6 C 0.0879(4) 0.7236(4) 0.50752(17)
O7_6 O 0.0399(5) 0.6349(4) 0.63258(16)
C21_6 C 0.0832(6) 0.5731(7) 0.6092(2)
O8_3 O 0.0699(4) 0.8493(3) 0.45565(13)
C22_6 C 0.1203(5) 0.5359(5) 0.53399(17)
H11_6 H 0.1332 0.4735 0.5435
C23_6 C 0.0804(5) 0.6989(5) 0.54967(18)
H12_6 H 0.0650 0.7463 0.5694
C24_6 C 0.2283(5) 0.4311(5) 0.39523(19)
C25_6 C 0.1273(5) 0.5557(4) 0.49047(18)
C26_6 C 0.1631(6) 0.3105(5) 0.4426(2)
H13_6 H 0.1493 0.2461 0.4488
C27_6 C 0.2120(5) 0.3336(5) 0.4071(2)
C28_6 C 0.0716(5) 0.8284(5) 0.49463(19)
O11_3 O 0.1150(3) 0.0591(4) 0.47605(13)
O10_3 O 0.8850(3) 0.9409(4) 0.47605(13)
O13_2 O 0.1507(3) 0.4301(4) 0.70565(13)
O14_3 O 0.8493(3) 0.5699(4) 0.70565(13)
O9_4 O 0.5003(6) 0.1073(3) 0.37926(14)
O12_4 O 0.3651(4) 0.0399(5) 0.36742(16)
O1_4 O 0.4997(6) 0.8927(3) 0.37926(14)
C1_7 C 0.5033(7) 0.8025(4) 0.57826(16)
H1_7 H 0.5678 0.7933 0.5857
C2_7 C 0.3816(6) 0.8655(6) 0.5310(3)
H2_7 H 0.3652 0.8977 0.5063
C3_7 C 0.6510(5) 0.8907(6) 0.5225(2)
H3_7 H 0.6666 0.8885 0.5510
C4_7 C 0.6053(5) 0.9047(5) 0.4374(2)
C5_7 C 0.4804(5) 0.8480(5) 0.53993(17)
C6_7 C 0.7236(4) 0.9121(4) 0.49248(17)
O3_4 O 0.6349(4) 0.9601(5) 0.36742(16)
C7_7 C 0.5731(7) 0.9168(6) 0.3908(2)
O4_7 O 0.8493(3) 0.9301(4) 0.54435(13)
C8_7 C 0.5359(5) 0.8797(5) 0.46601(17)
H4_7 H 0.4735 0.8668 0.4565
C9_7 C 0.6989(5) 0.9196(5) 0.45033(18)
H5_7 H 0.7463 0.9350 0.4306
N1_7 N 0.2750(6) 0.7500 0.6250
H6_7 H 0.2127 0.7500 0.6250
C10_7 C 0.4311(5) 0.7717(5) 0.60477(19)
C11_7 C 0.5557(4) 0.8727(5) 0.50953(18)
C12_7 C 0.3105(5) 0.8369(6) 0.5574(2)
H7_7 H 0.2461 0.8507 0.5512
C13_7 C 0.3336(5) 0.7880(5) 0.5929(2)
C14_7 C 0.8284(5) 0.9284(5) 0.50537(19)
O5_7 O 0.4997(6) 0.6073(3) 0.87074(14)
C15_7 C 0.5033(7) 0.6975(4) 0.67174(16)
H8_7 H 0.5678 0.7067 0.6643
C16_7 C 0.3816(6) 0.6345(6) 0.7190(3)
H9_7 H 0.3652 0.6023 0.7437
C17_7 C 0.6510(5) 0.6093(6) 0.7275(2)
H10_7 H 0.6666 0.6115 0.6990
C18_7 C 0.6053(5) 0.5953(5) 0.8126(2)
C19_7 C 0.4804(5) 0.6520(5) 0.71007(17)
C20_7 C 0.7236(4) 0.5879(4) 0.75752(17)
O7_7 O 0.6349(4) 0.5399(5) 0.88258(16)
C21_7 C 0.5731(7) 0.5832(6) 0.8592(2)
C22_7 C 0.5359(5) 0.6203(5) 0.78399(17)
H11_7 H 0.4735 0.6332 0.7935
C23_7 C 0.6989(5) 0.5804(5) 0.79967(18)
H12_7 H 0.7463 0.5650 0.8194
C24_7 C 0.4311(5) 0.7283(5) 0.64523(19)
C25_7 C 0.5557(4) 0.6273(5) 0.74047(18)
C26_7 C 0.3105(5) 0.6631(6) 0.6926(2)
H13_7 H 0.2461 0.6493 0.6988
C27_7 C 0.3336(5) 0.7120(5) 0.6571(2)
C28_7 C 0.8284(5) 0.5716(5) 0.74463(19)
C1_8 C 0.4967(7) 0.1975(4) 0.57826(16)
H1_8 H 0.4322 0.2067 0.5857
C2_8 C 0.6184(6) 0.1345(6) 0.5310(3)
H2_8 H 0.6348 0.1023 0.5063
C3_8 C 0.3490(5) 0.1093(6) 0.5225(2)
H3_8 H 0.3334 0.1115 0.5510
C4_8 C 0.3947(5) 0.0953(5) 0.4374(2)
C5_8 C 0.5196(5) 0.1520(5) 0.53993(17)
C6_8 C 0.2764(4) 0.0879(4) 0.49248(17)
C7_8 C 0.4269(7) 0.0832(6) 0.3908(2)
O4_8 O 0.1507(3) 0.0699(4) 0.54435(13)
C8_8 C 0.4641(5) 0.1203(5) 0.46601(17)
H4_8 H 0.5265 0.1332 0.4565
C9_8 C 0.3011(5) 0.0804(5) 0.45033(18)
H5_8 H 0.2537 0.0650 0.4306
N1_8 N 0.7250(6) 0.2500 0.6250
H6_8 H 0.7873 0.2500 0.6250
C10_8 C 0.5689(5) 0.2283(5) 0.60477(19)
C11_8 C 0.4443(4) 0.1273(5) 0.50953(18)
C12_8 C 0.6895(5) 0.1631(6) 0.5574(2)
H7_8 H 0.7539 0.1493 0.5512
C13_8 C 0.6664(5) 0.2120(5) 0.5929(2)
C14_8 C 0.1716(5) 0.0716(5) 0.50537(19)
O5_8 O 0.5003(6) 0.3927(3) 0.87074(14)
C15_8 C 0.4967(7) 0.3025(4) 0.67174(16)
H8_8 H 0.4322 0.2933 0.6643
C16_8 C 0.6184(6) 0.3655(6) 0.7190(3)
H9_8 H 0.6348 0.3977 0.7437
C17_8 C 0.3490(5) 0.3907(6) 0.7275(2)
H10_8 H 0.3334 0.3885 0.6990
C18_8 C 0.3947(5) 0.4047(5) 0.8126(2)
C19_8 C 0.5196(5) 0.3480(5) 0.71007(17)
C20_8 C 0.2764(4) 0.4121(4) 0.75752(17)
O7_8 O 0.3651(4) 0.4601(5) 0.88258(16)
C21_8 C 0.4269(7) 0.4168(6) 0.8592(2)
C22_8 C 0.4641(5) 0.3797(5) 0.78399(17)
H11_8 H 0.5265 0.3668 0.7935
C23_8 C 0.3011(5) 0.4196(5) 0.79967(18)
H12_8 H 0.2537 0.4350 0.8194
C24_8 C 0.5689(5) 0.2717(5) 0.64523(19)
C25_8 C 0.4443(4) 0.3727(5) 0.74047(18)
C26_8 C 0.6895(5) 0.3369(6) 0.6926(2)
H13_8 H 0.7539 0.3507 0.6988
C27_8 C 0.6664(5) 0.2880(5) 0.6571(2)
C28_8 C 0.1716(5) 0.4284(5) 0.74463(19)
loop_
_geom_bond_atom_site_label_1
_geom_bond_atom_site_label_2
_geom_bond_site_symmetry_1
_geom_bond_site_symmetry_2
C4 C7 1_555 1_555
O3 Tb1 1_555 1_555
C7 O3 1_555 1_555
C8 C4 1_555 1_555
C9 C4 1_555 1_555
H5 C9 1_555 1_555
Tb3 O2 1_555 1_555
O9 Tb1 1_555 1_555
O10 Tb1 1_555 1_555
O14 Tb1 1_555 1_555
C6 C9 1_555 1_555
C1 H1 1_555 1_555
C3 H3 1_555 1_555
O4 C14 1_555 1_555
C11 C3 1_555 1_555
C15 H8 1_555 1_555
C17 H10 1_555 1_555
C18 C21 1_555 1_555
O6 C28 1_555 1_555
C20 C17 1_555 1_555
O7 C21 1_555 1_555
O8 C28 1_555 1_555
C22 C18 1_555 1_555
C23 C18 1_555 1_555
H12 C23 1_555 1_555
C25 C17 1_555 1_555
C28 C20 1_555 1_555
Tb2_2 O8 1_555 1_555
Tb4_2 O6 1_555 1_555
Tb6 O4 1_555 1_555
C20 C23 1_555 1_555
O7 Tb5_3 1_555 1_555
C22 C25 1_555 1_555
Tb1_2 O1 1_555 1_555
O11 Tb1_2 1_555 1_555
O12 Tb1_2 1_555 1_555
O13 Tb1_2 1_555 1_555
C2 H2 1_555 1_555
N1 H6 1_555 1_555
C12 C2 1_555 1_555
H7 C12 1_555 1_555
C13 N1 1_555 1_555
C16 H9 1_555 1_555
C24 C10 1_555 1_555
C26 C16 1_555 1_555
H13 C26 1_555 1_555
C27 N1 1_555 1_555
Tb5_4 O5 1_555 1_555
C2 C5 1_555 1_555
C10 C13 1_555 1_555
C12 C13 1_555 1_555
C16 C19 1_555 1_555
C24 C27 1_555 1_555
C26 C27 1_555 1_555
C1_2 H1_2 1_555 1_555
C3_2 H3_2 1_555 1_555
O4_2 C14_2 1_555 1_555
C11_2 C3_2 1_555 1_555
C15_2 H8_2 1_555 1_555
C17_2 H10_2 1_555 1_555
C18_2 C21_2 1_555 1_555
O6_2 C28_2 1_555 1_555
C20_2 C17_2 1_555 1_555
O7_2 C21_2 1_555 1_555
O14 C28_2 1_555 1_555
C22_2 C18_2 1_555 1_555
C23_2 C18_2 1_555 1_555
H12_2 C23_2 1_555 1_555
C25_2 C17_2 1_555 1_555
C28_2 C20_2 1_555 1_555
Tb4_3 O6_2 1_555 1_555
Tb3 O4_2 1_555 1_555
C20_2 C23_2 1_555 1_555
O7_2 Tb5_5 1_555 1_555
C22_2 C25_2 1_555 1_555
C4_2 C7_2 1_555 1_555
O3_2 Tb2 1_555 1_555
C7_2 O3_2 1_555 1_555
C8_2 C4_2 1_555 1_555
C9_2 C4_2 1_555 1_555
H5_2 C9_2 1_555 1_555
Tb6 O2_2 1_555 1_555
O9_2 Tb2 1_555 1_555
O10_2 Tb2 1_555 1_555
O14_2 Tb2 1_555 1_555
C6_2 C9_2 1_555 1_555
C2_2 H2_2 1_555 1_555
N1_2 H6_2 1_555 1_555
C12_2 C2_2 1_555 1_555
H7_2 C12_2 1_555 1_555
C13_2 N1_2 1_555 1_555
C16_2 H9_2 1_555 1_555
C24_2 C10_2 1_555 1_555
C26_2 C16_2 1_555 1_555
H13_2 C26_2 1_555 1_555
C27_2 N1_2 1_555 1_555
Tb5_7 O5_2 1_555 1_555
C2_2 C5_2 1_555 1_555
C10_2 C13_2 1_555 1_555
C12_2 C13_2 1_555 1_555
C16_2 C19_2 1_555 1_555
C24_2 C27_2 1_555 1_555
C26_2 C27_2 1_555 1_555
Tb2_2 O1_2 1_555 1_555
O11_2 Tb2_2 1_555 1_555
O12_2 Tb2_2 1_555 1_555
C2_3 H2_3 1_555 1_555
N1_3 H6_3 1_555 1_555
C12_3 C2_3 1_555 1_555
H7_3 C12_3 1_555 1_555
C13_3 N1_3 1_555 1_555
C16_3 H9_3 1_555 1_555
C24_3 C10_3 1_555 1_555
C26_3 C16_3 1_555 1_555
H13_3 C26_3 1_555 1_555
C27_3 N1_3 1_555 1_555
Tb5 O5_3 1_555 1_555
C2_3 C5_3 1_555 1_555
C10_3 C13_3 1_555 1_555
C12_3 C13_3 1_555 1_555
C16_3 C19_3 1_555 1_555
C24_3 C27_3 1_555 1_555
C26_3 C27_3 1_555 1_555
C4_3 C7_3 1_555 1_555
C7_3 O12 1_555 1_555
C8_3 C4_3 1_555 1_555
C9_3 C4_3 1_555 1_555
H5_3 C9_3 1_555 1_555
Tb3 O2_3 1_555 1_555
C6_3 C9_3 1_555 1_555
C1_3 H1_3 1_555 1_555
C3_3 H3_3 1_555 1_555
O4_3 C14_3 1_555 1_555
C11_3 C3_3 1_555 1_555
C15_3 H8_3 1_555 1_555
C17_3 H10_3 1_555 1_555
C18_3 C21_3 1_555 1_555
O6_3 C28_3 1_555 1_555
C20_3 C17_3 1_555 1_555
O7_3 C21_3 1_555 1_555
O14_2 C28_3 1_555 1_555
C22_3 C18_3 1_555 1_555
C23_3 C18_3 1_555 1_555
H12_3 C23_3 1_555 1_555
C25_3 C17_3 1_555 1_555
C28_3 C20_3 1_555 1_555
Tb4 O6_3 1_555 1_555
Tb6 O4_3 1_555 1_555
C20_3 C23_3 1_555 1_555
O7_3 Tb5_2 1_555 1_555
C22_3 C25_3 1_555 1_555
C2_4 H2_4 1_555 1_555
N1_4 H6_4 1_555 1_555
C12_4 C2_4 1_555 1_555
H7_4 C12_4 1_555 1_555
C13_4 N1_4 1_555 1_555
C16_4 H9_4 1_555 1_555
C24_4 C10_4 1_555 1_555
C26_4 C16_4 1_555 1_555
H13_4 C26_4 1_555 1_555
C27_4 N1_4 1_555 1_555
Tb5_6 O5_4 1_555 1_555
C2_4 C5_4 1_555 1_555
C10_4 C13_4 1_555 1_555
C12_4 C13_4 1_555 1_555
C16_4 C19_4 1_555 1_555
C24_4 C27_4 1_555 1_555
C26_4 C27_4 1_555 1_555
C1_4 H1_4 1_555 1_555
C3_4 H3_4 1_555 1_555
O4_4 C14_4 1_555 1_555
C11_4 C3_4 1_555 1_555
C15_4 H8_4 1_555 1_555
C17_4 H10_4 1_555 1_555
C18_4 C21_4 1_555 1_555
O6_4 C28_4 1_555 1_555
C20_4 C17_4 1_555 1_555
O7_4 C21_4 1_555 1_555
O13 C28_4 1_555 1_555
C22_4 C18_4 1_555 1_555
C23_4 C18_4 1_555 1_555
H12_4 C23_4 1_555 1_555
C25_4 C17_4 1_555 1_555
C28_4 C20_4 1_555 1_555
Tb4_4 O6_4 1_555 1_555
Tb3 O4_4 1_555 1_555
C20_4 C23_4 1_555 1_555
O7_4 Tb5_8 1_555 1_555
C22_4 C25_4 1_555 1_555
C4_4 C7_4 1_555 1_555
C7_4 O12_2 1_555 1_555
C8_4 C4_4 1_555 1_555
C9_4 C4_4 1_555 1_555
H5_4 C9_4 1_555 1_555
Tb6 O2_4 1_555 1_555
C6_4 C9_4 1_555 1_555
Tb3 O1_3 1_555 1_555
O1_3 C7_5 1_555 1_555
C1_5 H1_5 1_555 1_555
C2_5 H2_5 1_555 1_555
C3_5 H3_5 1_555 1_555
C4_5 C7_5 1_555 1_555
C5_5 C1_5 1_555 1_555
O10 C14_5 1_555 1_555
C6_5 C3_5 1_555 1_555
O3_3 Tb3 1_555 1_555
C7_5 O3_3 1_555 1_555
O4_5 C14_5 1_555 1_555
C8_5 C4_5 1_555 1_555
H4_5 C8_5 1_555 1_555
C9_5 C4_5 1_555 1_555
H5_5 C9_5 1_555 1_555
N1_5 H6_5 1_555 1_555
C10_5 C1_5 1_555 1_555
C11_5 C3_5 1_555 1_555
C12_5 C2_5 1_555 1_555
H7_5 C12_5 1_555 1_555
C13_5 N1_5 1_555 1_555
C14_5 C6_5 1_555 1_555
O5_5 C21_5 1_555 1_555
C15_5 H8_5 1_555 1_555
C16_5 H9_5 1_555 1_555
C17_5 H10_5 1_555 1_555
C18_5 C21_5 1_555 1_555
C19_5 C15_5 1_555 1_555
O6_5 C28_5 1_555 1_555
C20_5 C17_5 1_555 1_555
O7_5 C21_5 1_555 1_555
O8_2 C28_5 1_555 1_555
C22_5 C18_5 1_555 1_555
H11_5 C22_5 1_555 1_555
C23_5 C18_5 1_555 1_555
H12_5 C23_5 1_555 1_555
C24_5 C10_5 1_555 1_555
C25_5 C17_5 1_555 1_555
C26_5 C16_5 1_555 1_555
H13_5 C26_5 1_555 1_555
C27_5 N1_5 1_555 1_555
C28_5 C20_5 1_555 1_555
Tb5_7 O8_2 1_555 1_555
Tb5_3 O6_5 1_555 1_555
Tb4_2 O5_5 1_555 1_555
Tb4_3 O4_5 1_555 1_555
O9_3 Tb3 1_555 1_555
O12_3 Tb3 1_555 1_555
C2_5 C5_5 1_555 1_555
C5_5 C11_5 1_555 1_555
C6_5 C9_5 1_555 1_555
C8_5 C11_5 1_555 1_555
C10_5 C13_5 1_555 1_555
C12_5 C13_5 1_555 1_555
C15_5 C24_5 1_555 1_555
C16_5 C19_5 1_555 1_555
C19_5 C25_5 1_555 1_555
C20_5 C23_5 1_555 1_555
O7_5 Tb4_2 1_555 1_555
C22_5 C25_5 1_555 1_555
C24_5 C27_5 1_555 1_555
C26_5 C27_5 1_555 1_555
O9_3 C7_6 1_555 1_555
C1_6 H1_6 1_555 1_555
C2_6 H2_6 1_555 1_555
C3_6 H3_6 1_555 1_555
C4_6 C7_6 1_555 1_555
C5_6 C1_6 1_555 1_555
O11 C14_6 1_555 1_555
C6_6 C3_6 1_555 1_555
C7_6 O12_3 1_555 1_555
O4_6 C14_6 1_555 1_555
C8_6 C4_6 1_555 1_555
H4_6 C8_6 1_555 1_555
C9_6 C4_6 1_555 1_555
H5_6 C9_6 1_555 1_555
N1_6 H6_6 1_555 1_555
C10_6 C1_6 1_555 1_555
C11_6 C3_6 1_555 1_555
C12_6 C2_6 1_555 1_555
H7_6 C12_6 1_555 1_555
C13_6 N1_6 1_555 1_555
C14_6 C6_6 1_555 1_555
O5_6 C21_6 1_555 1_555
C15_6 H8_6 1_555 1_555
C16_6 H9_6 1_555 1_555
C17_6 H10_6 1_555 1_555
C18_6 C21_6 1_555 1_555
C19_6 C15_6 1_555 1_555
O6_6 C28_6 1_555 1_555
C20_6 C17_6 1_555 1_555
O7_6 C21_6 1_555 1_555
O8_3 C28_6 1_555 1_555
C22_6 C18_6 1_555 1_555
H11_6 C22_6 1_555 1_555
C23_6 C18_6 1_555 1_555
H12_6 C23_6 1_555 1_555
C24_6 C10_6 1_555 1_555
C25_6 C17_6 1_555 1_555
C26_6 C16_6 1_555 1_555
H13_6 C26_6 1_555 1_555
C27_6 N1_6 1_555 1_555
C28_6 C20_6 1_555 1_555
Tb5_6 O8_3 1_555 1_555
Tb5_2 O6_6 1_555 1_555
Tb4 O5_6 1_555 1_555
Tb4_4 O4_6 1_555 1_555
C2_6 C5_6 1_555 1_555
C5_6 C11_6 1_555 1_555
C6_6 C9_6 1_555 1_555
C8_6 C11_6 1_555 1_555
C10_6 C13_6 1_555 1_555
C12_6 C13_6 1_555 1_555
C15_6 C24_6 1_555 1_555
C16_6 C19_6 1_555 1_555
C19_6 C25_6 1_555 1_555
C20_6 C23_6 1_555 1_555
O7_6 Tb4 1_555 1_555
C22_6 C25_6 1_555 1_555
C24_6 C27_6 1_555 1_555
C26_6 C27_6 1_555 1_555
O11_3 Tb5_5 1_555 1_555
O10_3 Tb5_8 1_555 1_555
O13_2 Tb4 1_555 1_555
O14_3 Tb4_2 1_555 1_555
O9_4 Tb4_3 1_555 1_555
O12_4 Tb4_3 1_555 1_555
Tb4_4 O1_4 1_555 1_555
O1_4 C7_7 1_555 1_555
C1_7 H1_7 1_555 1_555
C2_7 H2_7 1_555 1_555
C3_7 H3_7 1_555 1_555
C4_7 C7_7 1_555 1_555
C5_7 C1_7 1_555 1_555
O10_3 C14_7 1_555 1_555
C6_7 C3_7 1_555 1_555
O3_4 Tb4_4 1_555 1_555
C7_7 O3_4 1_555 1_555
O4_7 C14_7 1_555 1_555
C8_7 C4_7 1_555 1_555
H4_7 C8_7 1_555 1_555
C9_7 C4_7 1_555 1_555
H5_7 C9_7 1_555 1_555
N1_7 H6_7 1_555 1_555
C10_7 C1_7 1_555 1_555
C11_7 C3_7 1_555 1_555
C12_7 C2_7 1_555 1_555
H7_7 C12_7 1_555 1_555
C13_7 N1_7 1_555 1_555
C14_7 C6_7 1_555 1_555
O5_7 C21_7 1_555 1_555
C15_7 H8_7 1_555 1_555
C16_7 H9_7 1_555 1_555
C17_7 H10_7 1_555 1_555
C18_7 C21_7 1_555 1_555
C19_7 C15_7 1_555 1_555
O11_2 C28_7 1_555 1_555
C20_7 C17_7 1_555 1_555
O7_7 C21_7 1_555 1_555
O14_3 C28_7 1_555 1_555
C22_7 C18_7 1_555 1_555
H11_7 C22_7 1_555 1_555
C23_7 C18_7 1_555 1_555
H12_7 C23_7 1_555 1_555
C24_7 C10_7 1_555 1_555
C25_7 C17_7 1_555 1_555
C26_7 C16_7 1_555 1_555
H13_7 C26_7 1_555 1_555
C27_7 N1_7 1_555 1_555
C28_7 C20_7 1_555 1_555
Tb6 O5_7 1_555 1_555
Tb5_4 O4_7 1_555 1_555
C2_7 C5_7 1_555 1_555
C5_7 C11_7 1_555 1_555
C6_7 C9_7 1_555 1_555
C8_7 C11_7 1_555 1_555
C10_7 C13_7 1_555 1_555
C12_7 C13_7 1_555 1_555
C15_7 C24_7 1_555 1_555
C16_7 C19_7 1_555 1_555
C19_7 C25_7 1_555 1_555
C20_7 C23_7 1_555 1_555
O7_7 Tb6 1_555 1_555
C22_7 C25_7 1_555 1_555
C24_7 C27_7 1_555 1_555
C26_7 C27_7 1_555 1_555
O9_4 C7_8 1_555 1_555
C1_8 H1_8 1_555 1_555
C2_8 H2_8 1_555 1_555
C3_8 H3_8 1_555 1_555
C4_8 C7_8 1_555 1_555
C5_8 C1_8 1_555 1_555
O11_3 C14_8 1_555 1_555
C6_8 C3_8 1_555 1_555
C7_8 O12_4 1_555 1_555
O4_8 C14_8 1_555 1_555
C8_8 C4_8 1_555 1_555
H4_8 C8_8 1_555 1_555
C9_8 C4_8 1_555 1_555
H5_8 C9_8 1_555 1_555
N1_8 H6_8 1_555 1_555
C10_8 C1_8 1_555 1_555
C11_8 C3_8 1_555 1_555
C12_8 C2_8 1_555 1_555
H7_8 C12_8 1_555 1_555
C13_8 N1_8 1_555 1_555
C14_8 C6_8 1_555 1_555
O5_8 C21_8 1_555 1_555
C15_8 H8_8 1_555 1_555
C16_8 H9_8 1_555 1_555
C17_8 H10_8 1_555 1_555
C18_8 C21_8 1_555 1_555
C19_8 C15_8 1_555 1_555
O10_2 C28_8 1_555 1_555
C20_8 C17_8 1_555 1_555
O7_8 C21_8 1_555 1_555
O13_2 C28_8 1_555 1_555
C22_8 C18_8 1_555 1_555
H11_8 C22_8 1_555 1_555
C23_8 C18_8 1_555 1_555
H12_8 C23_8 1_555 1_555
C24_8 C10_8 1_555 1_555
C25_8 C17_8 1_555 1_555
C26_8 C16_8 1_555 1_555
H13_8 C26_8 1_555 1_555
C27_8 N1_8 1_555 1_555
C28_8 C20_8 1_555 1_555
Tb6 O5_8 1_555 1_555
Tb5 O4_8 1_555 1_555
C2_8 C5_8 1_555 1_555
C5_8 C11_8 1_555 1_555
C6_8 C9_8 1_555 1_555
C8_8 C11_8 1_555 1_555
C10_8 C13_8 1_555 1_555
C12_8 C13_8 1_555 1_555
C15_8 C24_8 1_555 1_555
C16_8 C19_8 1_555 1_555
C19_8 C25_8 1_555 1_555
C20_8 C23_8 1_555 1_555
O7_8 Tb6 1_555 1_555
C22_8 C25_8 1_555 1_555
C24_8 C27_8 1_555 1_555
C26_8 C27_8 1_555 1_555

#END
