
###############################################################################
#
# This file contains modified crystal structure data generated from the
# MOF subset of the Cambridge Structural Database (CSD) v543 
# hosted by the Cambridge Crystallographic Data Centre (CCDC).
#
# This work is licensed under the Creative Commons
# Attribution-NonCommercial-ShareAlike 4.0 International License.
# To view a copy of this license, visit
# http://creativecommons.org/licenses/by-nc-sa/4.0/
# or send a letter to
# Creative Commons, PO Box 1866, Mountain View, CA 94042, USA.
#
# CIF created using the CSD Python API on 29 September 2022
# The structure has been converted into the P1 space group
# The structure has a 3D framework
# The original CSD entry OBOGIY is in the monoclinic crystal system
# The framework has been calculated to contain at least 10.0% void space
# The void calculation uses a probe of radius 1.32A, grid spacing 0.4
#
###############################################################################

data_OBOGIY
_chemical_formula_moiety         '(C184 H120 Cd20 O120)n'
_symmetry_cell_setting           triclinic
_symmetry_space_group_name_H-M   'P 1'
_symmetry_Int_Tables_number      1
_space_group_name_Hall           'P 1'
loop_
_symmetry_equiv_pos_site_id
_symmetry_equiv_pos_as_xyz
1 x,y,z
_cell_length_a                   25.188(2)
_cell_length_b                   17.3063(14)
_cell_length_c                   17.972(3)
_cell_angle_alpha                90
_cell_angle_beta                 126.290(4)
_cell_angle_gamma                90
_cell_volume                     6314.61
loop_
_atom_site_label
_atom_site_type_symbol
_atom_site_fract_x
_atom_site_fract_y
_atom_site_fract_z
Cd6 Cd 0.84294(3) 0.07294(3) 0.02892(4)
Cd13 Cd 0.7500 0.2500 0.0000
Cd1 Cd 0.15706(3) 0.07294(3) 0.47108(4)
Cd3 Cd 0.36733(3) 0.45378(4) 0.33685(4)
O1 O 0.2705(3) 0.1322(4) 0.4725(5)
O2 O 0.2331(3) 0.0134(4) 0.4608(4)
O8 O 0.5120(3) 0.0875(3) 0.6094(5)
O9 O 0.4106(3) 0.3278(4) 0.4002(4)
O10 O 0.4225(3) 0.4155(3) 0.4987(4)
O11 O 0.5954(3) 0.3771(4) 0.8320(4)
O12 O 0.6426(3) 0.2607(4) 0.8817(4)
O14 O 0.4685(5) 0.4742(6) 0.3660(9)
H3 H 0.4627 0.4890 0.3166
H4 H 0.4900 0.4321 0.3830
O15 O 0.3265(4) 0.4061(5) 0.1976(5)
H5 H 0.2965 0.3734 0.1826
H6 H 0.3569 0.3829 0.1991
C1 C 0.3404(4) 0.0290(5) 0.4984(5)
C5 C 0.4533(4) 0.0466(5) 0.5652(5)
C6 C 0.3957(4) 0.0758(5) 0.5444(5)
H9 H 0.3936 0.1261 0.5608
C7 C 0.2762(4) 0.0613(5) 0.4755(6)
C16 C 0.5111(4) 0.1675(5) 0.6203(6)
C17 C 0.4737(4) 0.2162(5) 0.5459(5)
H13 H 0.4479 0.1962 0.4862
C18 C 0.4746(4) 0.2944(5) 0.5601(5)
C19 C 0.5158(3) 0.3226(5) 0.6515(5)
H14 H 0.5155 0.3751 0.6624
C20 C 0.5557(3) 0.2745(5) 0.7235(5)
C21 C 0.5528(3) 0.1965(5) 0.7096(5)
H15 H 0.5785 0.1632 0.7593
C22 C 0.4335(4) 0.3493(5) 0.4816(5)
C23 C 0.6029(4) 0.3068(6) 0.8215(6)
O18 O 0.5892(3) 0.1521(3) 0.5143(4)
O19 O 0.7778(3) 0.0751(3) 0.8493(4)
O20 O 0.7855(3) 0.1760(4) 0.9273(4)
O21 O 0.6929(4) 0.4303(4) 0.7516(5)
O22 O 0.6199(4) 0.4257(4) 0.6029(5)
O28 O 0.8768(4) 0.0523(4) 0.5417(6)
H16 H 0.8500 0.0828 0.5409
H17 H 0.9145 0.0582 0.5927
C25 C 0.6586(4) 0.0486(5) 0.5226(5)
H22 H 0.6957 0.0799 0.5502
C26 C 0.5973(4) 0.0769(5) 0.4993(6)
C27 C 0.5413(4) 0.0293(5) 0.4558(5)
H23 H 0.5016 0.0480 0.4412
C31 C 0.6351(4) 0.1871(5) 0.6005(5)
C32 C 0.6785(3) 0.1470(5) 0.6810(5)
H25 H 0.6818 0.0936 0.6801
C33 C 0.7172(4) 0.1871(5) 0.7635(5)
C34 C 0.7125(4) 0.2688(5) 0.7646(5)
H26 H 0.7384 0.2959 0.8199
C35 C 0.6686(4) 0.3082(5) 0.6817(6)
C36 C 0.6296(4) 0.2660(5) 0.5996(5)
H27 H 0.5997 0.2916 0.5443
C37 C 0.7627(4) 0.1435(5) 0.8512(5)
C38 C 0.6608(4) 0.3927(5) 0.6808(6)
Cd10 Cd 0.34294(3) 0.42706(3) 0.52892(4)
Cd11 Cd 0.65706(3) 0.42706(3) 0.97108(4)
Cd13_2 Cd 0.7500 0.2500 1.0000
Cd14 Cd 0.2500 0.2500 0.5000
Cd17 Cd 0.63267(3) 0.54622(4) 0.66315(4)
Cd18 Cd 0.86733(3) 0.04622(4) 0.83685(4)
O34 O 0.2778(3) 0.4249(3) 0.3493(4)
O35 O 0.2222(3) 0.0751(3) 0.6507(4)
O38 O 0.2145(3) 0.1760(4) 0.5727(4)
O40 O 0.3071(4) 0.5697(4) 0.2484(5)
O42 O 0.3801(4) 0.5743(4) 0.3971(5)
O45 O 0.0775(3) 0.0845(3) 0.5013(4)
O47 O 0.0954(3) 0.1229(4) 0.3320(4)
Cd2 Cd 0.2500 0.7500 0.0000
O3 O 0.4108(3) 0.8479(3) 0.4857(4)
O4 O 0.2222(3) 0.9249(3) 0.1507(4)
O5 O 0.2145(3) 0.8240(4) 0.0727(4)
O13 O 0.1232(4) 0.9477(4) 0.4583(6)
H1 H 0.1500 0.9172 0.4591
H2 H 0.0855 0.9418 0.4073
C2 C 0.3414(4) 0.9514(5) 0.4774(5)
H7 H 0.3043 0.9201 0.4498
C3 C 0.4027(4) 0.9231(5) 0.5007(6)
C4 C 0.4587(4) 0.9707(5) 0.5442(5)
H8 H 0.4984 0.9520 0.5588
C8 C 0.3649(4) 0.8129(5) 0.3995(5)
C9 C 0.3215(3) 0.8530(5) 0.3190(5)
H10 H 0.3182 0.9064 0.3199
C10 C 0.2828(4) 0.8129(5) 0.2365(5)
C11 C 0.2875(4) 0.7312(5) 0.2354(5)
H11 H 0.2616 0.7041 0.1801
C12 C 0.3314(4) 0.6918(5) 0.3183(6)
C13 C 0.3704(4) 0.7340(5) 0.4004(5)
H12 H 0.4003 0.7084 0.4557
C14 C 0.2373(4) 0.8565(5) 0.1488(5)
C15 C 0.3392(4) 0.6073(5) 0.3192(6)
Cd4 Cd 0.84294(3) 0.92706(3) 0.52892(4)
O16 O 0.7295(3) 0.8678(4) 0.5275(5)
O17 O 0.7669(3) 0.9866(4) 0.5392(4)
O23 O 0.4880(3) 0.9125(3) 0.3906(5)
O24 O 0.5894(3) 0.6722(4) 0.5998(4)
O25 O 0.5775(3) 0.5845(3) 0.5013(4)
O26 O 0.4046(3) 0.6229(4) 0.1680(4)
O27 O 0.3574(3) 0.7393(4) 0.1183(4)
O29 O 0.5315(5) 0.5258(6) 0.6340(9)
H18 H 0.5373 0.5110 0.6834
H19 H 0.5100 0.5679 0.6170
O30 O 0.6735(4) 0.5939(5) 0.8024(5)
H20 H 0.7035 0.6266 0.8174
H21 H 0.6431 0.6171 0.8009
C24 C 0.6596(4) 0.9710(5) 0.5016(5)
C28 C 0.5467(4) 0.9534(5) 0.4348(5)
C29 C 0.6043(4) 0.9242(5) 0.4556(5)
H24 H 0.6064 0.8739 0.4392
C30 C 0.7238(4) 0.9387(5) 0.5245(6)
C39 C 0.4889(4) 0.8325(5) 0.3797(6)
C40 C 0.5263(4) 0.7838(5) 0.4541(5)
H28 H 0.5521 0.8038 0.5138
C41 C 0.5254(4) 0.7056(5) 0.4399(5)
C42 C 0.4842(3) 0.6774(5) 0.3485(5)
H29 H 0.4845 0.6249 0.3376
C43 C 0.4443(3) 0.7255(5) 0.2765(5)
C44 C 0.4472(3) 0.8035(5) 0.2904(5)
H30 H 0.4215 0.8368 0.2407
C45 C 0.5665(4) 0.6507(5) 0.5184(5)
C46 C 0.3971(4) 0.6932(6) 0.1785(6)
Cd7 Cd 0.65706(3) 0.57294(3) 0.47108(4)
Cd8 Cd 0.34294(3) 0.57294(3) 0.02892(4)
Cd12 Cd 0.7500 0.7500 0.5000
Cd16 Cd 0.13267(3) 0.95378(4) 0.16315(4)
O31 O 0.2295(3) 0.6322(4) 0.0275(5)
O33 O 0.7778(3) 0.9249(3) 0.3493(4)
O36 O 0.7222(3) 0.5751(3) 0.6507(4)
O37 O 0.7855(3) 0.8240(4) 0.4273(4)
O44 O 0.9225(3) 0.9155(3) 0.4987(4)
O46 O 0.9046(3) 0.8771(4) 0.6680(4)
Cd2_2 Cd 0.2500 0.7500 1.0000
Cd9 Cd 0.15706(3) 0.92706(3) 0.97108(4)
O32 O 0.2705(3) 0.8678(4) 0.9725(5)
O39 O 0.2855(3) 0.6760(4) 0.9273(4)
O48 O 0.1426(3) 0.7607(4) 0.8817(4)
Cd3_2 Cd 0.63267(3) 0.45378(4) 0.16315(4)
O1_2 O 0.7295(3) 0.1322(4) 0.0275(5)
O2_2 O 0.7669(3) 0.0134(4) 0.0392(4)
O9_2 O 0.5894(3) 0.3278(4) 0.0998(4)
O10_2 O 0.5775(3) 0.4155(3) 0.0013(4)
O14_2 O 0.5315(5) 0.4742(6) 0.1340(9)
H3_2 H 0.5373 0.4890 0.1834
H4_2 H 0.5100 0.4321 0.1170
O15_2 O 0.6735(4) 0.4061(5) 0.3024(5)
H5_2 H 0.7035 0.3734 0.3174
H6_2 H 0.6431 0.3829 0.3009
C1_2 C 0.6596(4) 0.0290(5) 0.0016(5)
C7_2 C 0.7238(4) 0.0613(5) 0.0245(6)
H13_2 H 0.5521 0.1962 0.0138
C22_2 C 0.5665(4) 0.3493(5) 0.0184(5)
C26_2 C 0.4027(4) 0.0769(5) 0.0007(6)
C27_2 C 0.4587(4) 0.0293(5) 0.0442(5)
H23_2 H 0.4984 0.0480 0.0588
O34_2 O 0.7222(3) 0.4249(3) 0.1507(4)
O40_2 O 0.6929(4) 0.5697(4) 0.2516(5)
O42_2 O 0.6199(4) 0.5743(4) 0.1029(5)
O47_2 O 0.9046(3) 0.1229(4) 0.1680(4)
O8_2 O 0.4880(3) 0.0875(3) 0.8906(5)
O11_2 O 0.4046(3) 0.3771(4) 0.6680(4)
O12_2 O 0.3574(3) 0.2607(4) 0.6183(4)
C5_2 C 0.5467(4) 0.0466(5) 0.9348(5)
C6_2 C 0.6043(4) 0.0758(5) 0.9556(5)
H9_2 H 0.6064 0.1261 0.9392
C16_2 C 0.4889(4) 0.1675(5) 0.8797(6)
C17_2 C 0.5263(4) 0.2162(5) 0.9541(5)
C18_2 C 0.5254(4) 0.2944(5) 0.9399(5)
C19_2 C 0.4842(3) 0.3226(5) 0.8485(5)
H14_2 H 0.4845 0.3751 0.8376
C20_2 C 0.4443(3) 0.2745(5) 0.7765(5)
C21_2 C 0.4472(3) 0.1965(5) 0.7904(5)
H15_2 H 0.4215 0.1632 0.7407
C23_2 C 0.3971(4) 0.3068(6) 0.6785(6)
O18_2 O 0.4108(3) 0.1521(3) 0.9857(4)
O21_2 O 0.3071(4) 0.4303(4) 0.7484(5)
O22_2 O 0.3801(4) 0.4257(4) 0.8971(5)
O28_2 O 0.1232(4) 0.0523(4) 0.9583(6)
H16_2 H 0.1500 0.0828 0.9591
H17_2 H 0.0855 0.0582 0.9073
C25_2 C 0.3414(4) 0.0486(5) 0.9774(5)
H22_2 H 0.3043 0.0799 0.9498
C31_2 C 0.3649(4) 0.1871(5) 0.8995(5)
C32_2 C 0.3215(3) 0.1470(5) 0.8190(5)
H25_2 H 0.3182 0.0936 0.8199
C33_2 C 0.2828(4) 0.1871(5) 0.7365(5)
C34_2 C 0.2875(4) 0.2688(5) 0.7354(5)
H26_2 H 0.2616 0.2959 0.6801
C35_2 C 0.3314(4) 0.3082(5) 0.8183(6)
C36_2 C 0.3704(4) 0.2660(5) 0.9004(5)
H27_2 H 0.4003 0.2916 0.9557
C37_2 C 0.2373(4) 0.1435(5) 0.6488(5)
C38_2 C 0.3392(4) 0.3927(5) 0.8192(6)
Cd17_2 Cd 0.36733(3) 0.54622(4) 0.83685(4)
Cd18_2 Cd 0.13267(3) 0.04622(4) 0.66315(4)
O45_2 O 0.9225(3) 0.0845(3) 0.9987(4)
O3_2 O 0.5892(3) 0.8479(3) 0.0143(4)
O13_2 O 0.8768(4) 0.9477(4) 0.0417(6)
H1_2 H 0.8500 0.9172 0.0409
H2_2 H 0.9145 0.9418 0.0927
C2_2 C 0.6586(4) 0.9514(5) 0.0226(5)
H7_2 H 0.6957 0.9201 0.0502
C8_2 C 0.6351(4) 0.8129(5) 0.1005(5)
C9_2 C 0.6785(3) 0.8530(5) 0.1810(5)
H10_2 H 0.6818 0.9064 0.1801
C10_2 C 0.7172(4) 0.8129(5) 0.2635(5)
C11_2 C 0.7125(4) 0.7312(5) 0.2646(5)
H11_2 H 0.7384 0.7041 0.3199
C12_2 C 0.6686(4) 0.6918(5) 0.1817(6)
C13_2 C 0.6296(4) 0.7340(5) 0.0996(5)
H12_2 H 0.5997 0.7084 0.0443
C14_2 C 0.7627(4) 0.8565(5) 0.3512(5)
C15_2 C 0.6608(4) 0.6073(5) 0.1808(6)
O23_2 O 0.5120(3) 0.9125(3) 0.1094(5)
O26_2 O 0.5954(3) 0.6229(4) 0.3320(4)
O27_2 O 0.6426(3) 0.7393(4) 0.3817(4)
C28_2 C 0.4533(4) 0.9534(5) 0.0652(5)
C29_2 C 0.3957(4) 0.9242(5) 0.0444(5)
H24_2 H 0.3936 0.8739 0.0608
C39_2 C 0.5111(4) 0.8325(5) 0.1203(6)
C40_2 C 0.4737(4) 0.7838(5) 0.0459(5)
C41_2 C 0.4746(4) 0.7056(5) 0.0601(5)
C42_2 C 0.5158(3) 0.6774(5) 0.1515(5)
H29_2 H 0.5155 0.6249 0.1624
C43_2 C 0.5557(3) 0.7255(5) 0.2235(5)
C44_2 C 0.5528(3) 0.8035(5) 0.2096(5)
H30_2 H 0.5785 0.8368 0.2593
C46_2 C 0.6029(4) 0.6932(6) 0.3215(6)
Cd16_2 Cd 0.86733(3) 0.95378(4) 0.33685(4)
O31_2 O 0.7705(3) 0.6322(4) 0.4725(5)
O39_2 O 0.7145(3) 0.6760(4) 0.5727(4)
O44_2 O 0.0775(3) 0.9155(3) 0.0013(4)
O48_2 O 0.8574(3) 0.7607(4) 0.6183(4)
C3_2 C 0.5973(4) 0.9231(5) 0.9993(6)
C4_2 C 0.5413(4) 0.9707(5) 0.9558(5)
H8_2 H 0.5016 0.9520 0.9412
O17_2 O 0.2331(3) 0.9866(4) 0.9608(4)
O24_2 O 0.4106(3) 0.6722(4) 0.9002(4)
O25_2 O 0.4225(3) 0.5845(3) 0.9987(4)
O29_2 O 0.4685(5) 0.5258(6) 0.8660(9)
H18_2 H 0.4627 0.5110 0.8166
H19_2 H 0.4900 0.5679 0.8830
O30_2 O 0.3265(4) 0.5939(5) 0.6976(5)
H20_2 H 0.2965 0.6266 0.6826
H21_2 H 0.3569 0.6171 0.6991
C24_2 C 0.3404(4) 0.9710(5) 0.9984(5)
C30_2 C 0.2762(4) 0.9387(5) 0.9755(6)
H28_2 H 0.4479 0.8038 0.9862
C45_2 C 0.4335(4) 0.6507(5) 0.9816(5)
O36_2 O 0.2778(3) 0.5751(3) 0.8493(4)
O46_2 O 0.0954(3) 0.8771(4) 0.8320(4)
O8_3 O 0.0120(3) 0.5875(3) 0.6094(5)
C16_3 C 0.0111(4) 0.6675(5) 0.6203(6)
C19_3 C 0.0158(3) 0.8226(5) 0.6515(5)
H14_3 H 0.0155 0.8751 0.6624
C20_3 C 0.0557(3) 0.7745(5) 0.7235(5)
C21_3 C 0.0528(3) 0.6965(5) 0.7096(5)
H15_3 H 0.0785 0.6632 0.7593
C23_3 C 0.1029(4) 0.8068(6) 0.8215(6)
O16_2 O 0.2295(3) 0.3678(4) 0.5275(5)
O17_3 O 0.2669(3) 0.4866(4) 0.5392(4)
O18_3 O 0.0892(3) 0.6521(3) 0.5143(4)
O21_3 O 0.1929(4) 0.9303(4) 0.7516(5)
O22_3 O 0.1199(4) 0.9257(4) 0.6029(5)
O24_3 O 0.0894(3) 0.1722(4) 0.5998(4)
O28_3 O 0.3768(4) 0.5523(4) 0.5417(6)
H16_3 H 0.3500 0.5828 0.5409
H17_3 H 0.4145 0.5582 0.5927
O29_3 O 0.0315(5) 0.0258(6) 0.6340(9)
H18_3 H 0.0373 0.0110 0.6834
H19_3 H 0.0100 0.0679 0.6170
O30_3 O 0.1735(4) 0.0939(5) 0.8024(5)
H20_3 H 0.2035 0.1266 0.8174
H21_3 H 0.1431 0.1171 0.8009
C24_3 C 0.1596(4) 0.4710(5) 0.5016(5)
C25_3 C 0.1586(4) 0.5486(5) 0.5226(5)
H22_3 H 0.1957 0.5799 0.5502
C26_3 C 0.0973(4) 0.5769(5) 0.4993(6)
C27_3 C 0.0413(4) 0.5293(5) 0.4558(5)
H23_3 H 0.0016 0.5480 0.4412
C28_3 C 0.0467(4) 0.4534(5) 0.4348(5)
C29_3 C 0.1043(4) 0.4242(5) 0.4556(5)
H24_3 H 0.1064 0.3739 0.4392
C30_3 C 0.2238(4) 0.4387(5) 0.5245(6)
C31_3 C 0.1351(4) 0.6871(5) 0.6005(5)
C32_3 C 0.1785(3) 0.6470(5) 0.6810(5)
H25_3 H 0.1818 0.5936 0.6801
C33_3 C 0.2172(4) 0.6871(5) 0.7635(5)
C34_3 C 0.2125(4) 0.7688(5) 0.7646(5)
H26_3 H 0.2384 0.7959 0.8199
C35_3 C 0.1686(4) 0.8082(5) 0.6817(6)
C36_3 C 0.1296(4) 0.7660(5) 0.5996(5)
H27_3 H 0.0997 0.7916 0.5443
C37_3 C 0.2627(4) 0.6435(5) 0.8512(5)
C38_3 C 0.1608(4) 0.8927(5) 0.6808(6)
C40_3 C 0.0263(4) 0.2838(5) 0.4541(5)
H28_3 H 0.0521 0.3038 0.5138
C41_3 C 0.0254(4) 0.2056(5) 0.4399(5)
C45_3 C 0.0665(4) 0.1507(5) 0.5184(5)
O37_2 O 0.2855(3) 0.3240(4) 0.4273(4)
O40_3 O 0.8071(4) 0.0697(4) 0.2484(5)
O42_3 O 0.8801(4) 0.0743(4) 0.3971(5)
O2_3 O 0.7331(3) 0.5134(4) 0.4608(4)
O3_3 O 0.9108(3) 0.3479(3) 0.4857(4)
O5_2 O 0.7145(3) 0.3240(4) 0.0727(4)
O9_3 O 0.9106(3) 0.8278(4) 0.4002(4)
O13_3 O 0.6232(4) 0.4477(4) 0.4583(6)
H1_3 H 0.6500 0.4172 0.4591
H2_3 H 0.5855 0.4418 0.4073
O14_3 O 0.9685(5) 0.9742(6) 0.3660(9)
H3_3 H 0.9627 0.9890 0.3166
H4_3 H 0.9900 0.9321 0.3830
O15_3 O 0.8265(4) 0.9061(5) 0.1976(5)
H5_3 H 0.7965 0.8734 0.1826
H6_3 H 0.8569 0.8829 0.1991
C1_3 C 0.8404(4) 0.5290(5) 0.4984(5)
C2_3 C 0.8414(4) 0.4514(5) 0.4774(5)
H7_3 H 0.8043 0.4201 0.4498
C3_3 C 0.9027(4) 0.4231(5) 0.5007(6)
C4_3 C 0.9587(4) 0.4707(5) 0.5442(5)
H8_3 H 0.9984 0.4520 0.5588
C5_3 C 0.9533(4) 0.5466(5) 0.5652(5)
C6_3 C 0.8957(4) 0.5758(5) 0.5444(5)
H9_3 H 0.8936 0.6261 0.5608
C7_3 C 0.7762(4) 0.5613(5) 0.4755(6)
C8_3 C 0.8649(4) 0.3129(5) 0.3995(5)
C9_3 C 0.8215(3) 0.3530(5) 0.3190(5)
H10_3 H 0.8182 0.4064 0.3199
C10_3 C 0.7828(4) 0.3129(5) 0.2365(5)
C11_3 C 0.7875(4) 0.2312(5) 0.2354(5)
H11_3 H 0.7616 0.2041 0.1801
C12_3 C 0.8314(4) 0.1918(5) 0.3183(6)
C13_3 C 0.8704(4) 0.2340(5) 0.4004(5)
H12_3 H 0.9003 0.2084 0.4557
C14_3 C 0.7373(4) 0.3565(5) 0.1488(5)
C15_3 C 0.8392(4) 0.1073(5) 0.3192(6)
C17_3 C 0.9737(4) 0.7162(5) 0.5459(5)
H13_3 H 0.9479 0.6962 0.4862
C18_3 C 0.9746(4) 0.7944(5) 0.5601(5)
C22_3 C 0.9335(4) 0.8493(5) 0.4816(5)
O23_3 O 0.9880(3) 0.4125(3) 0.3906(5)
O27_3 O 0.8574(3) 0.2393(4) 0.1183(4)
C39_3 C 0.9889(4) 0.3325(5) 0.3797(6)
C42_3 C 0.9842(3) 0.1774(5) 0.3485(5)
H29_3 H 0.9845 0.1249 0.3376
C43_3 C 0.9443(3) 0.2255(5) 0.2765(5)
C44_3 C 0.9472(3) 0.3035(5) 0.2904(5)
H30_3 H 0.9215 0.3368 0.2407
C46_3 C 0.8971(4) 0.1932(6) 0.1785(6)
O32_2 O 0.7705(3) 0.3678(4) 0.9725(5)
O40_4 O 0.1929(4) 0.0697(4) 0.2516(5)
O42_4 O 0.1199(4) 0.0743(4) 0.1029(5)
O2_4 O 0.2669(3) 0.5134(4) 0.0392(4)
O3_4 O 0.0892(3) 0.3479(3) 0.0143(4)
O9_4 O 0.0894(3) 0.8278(4) 0.0998(4)
O13_4 O 0.3768(4) 0.4477(4) 0.0417(6)
H1_4 H 0.3500 0.4172 0.0409
H2_4 H 0.4145 0.4418 0.0927
O14_4 O 0.0315(5) 0.9742(6) 0.1340(9)
H3_4 H 0.0373 0.9890 0.1834
H4_4 H 0.0100 0.9321 0.1170
O15_4 O 0.1735(4) 0.9061(5) 0.3024(5)
H5_4 H 0.2035 0.8734 0.3174
H6_4 H 0.1431 0.8829 0.3009
C1_4 C 0.1596(4) 0.5290(5) 0.0016(5)
C2_4 C 0.1586(4) 0.4514(5) 0.0226(5)
H7_4 H 0.1957 0.4201 0.0502
C7_4 C 0.2238(4) 0.5613(5) 0.0245(6)
C8_4 C 0.1351(4) 0.3129(5) 0.1005(5)
C9_4 C 0.1785(3) 0.3530(5) 0.1810(5)
H10_4 H 0.1818 0.4064 0.1801
C10_4 C 0.2172(4) 0.3129(5) 0.2635(5)
C11_4 C 0.2125(4) 0.2312(5) 0.2646(5)
H11_4 H 0.2384 0.2041 0.3199
C12_4 C 0.1686(4) 0.1918(5) 0.1817(6)
C13_4 C 0.1296(4) 0.2340(5) 0.0996(5)
H12_4 H 0.0997 0.2084 0.0443
C14_4 C 0.2627(4) 0.3565(5) 0.3512(5)
C15_4 C 0.1608(4) 0.1073(5) 0.1808(6)
H13_4 H 0.0521 0.6962 0.0138
C22_4 C 0.0665(4) 0.8493(5) 0.0184(5)
O23_4 O 0.0120(3) 0.4125(3) 0.1094(5)
O27_4 O 0.1426(3) 0.2393(4) 0.3817(4)
C39_4 C 0.0111(4) 0.3325(5) 0.1203(6)
C42_4 C 0.0158(3) 0.1774(5) 0.1515(5)
H29_4 H 0.0155 0.1249 0.1624
C43_4 C 0.0557(3) 0.2255(5) 0.2235(5)
C44_4 C 0.0528(3) 0.3035(5) 0.2096(5)
H30_4 H 0.0785 0.3368 0.2593
C46_4 C 0.1029(4) 0.1932(6) 0.3215(6)
C3_4 C 0.0973(4) 0.4231(5) 0.9993(6)
C4_4 C 0.0413(4) 0.4707(5) 0.9558(5)
H8_4 H 0.0016 0.4520 0.9412
C5_4 C 0.0467(4) 0.5466(5) 0.9348(5)
C6_4 C 0.1043(4) 0.5758(5) 0.9556(5)
H9_4 H 0.1064 0.6261 0.9392
C17_4 C 0.0263(4) 0.7162(5) 0.9541(5)
C18_4 C 0.0254(4) 0.7944(5) 0.9399(5)
C26_4 C 0.9027(4) 0.5769(5) 0.0007(6)
C27_4 C 0.9587(4) 0.5293(5) 0.0442(5)
H23_4 H 0.9984 0.5480 0.0588
C28_4 C 0.9533(4) 0.4534(5) 0.0652(5)
C29_4 C 0.8957(4) 0.4242(5) 0.0444(5)
H24_4 H 0.8936 0.3739 0.0608
C40_4 C 0.9737(4) 0.2838(5) 0.0459(5)
C41_4 C 0.9746(4) 0.2056(5) 0.0601(5)
O8_4 O 0.9880(3) 0.5875(3) 0.8906(5)
C16_4 C 0.9889(4) 0.6675(5) 0.8797(6)
C19_4 C 0.9842(3) 0.8226(5) 0.8485(5)
H14_4 H 0.9845 0.8751 0.8376
C20_4 C 0.9443(3) 0.7745(5) 0.7765(5)
C21_4 C 0.9472(3) 0.6965(5) 0.7904(5)
H15_4 H 0.9215 0.6632 0.7407
C23_4 C 0.8971(4) 0.8068(6) 0.6785(6)
O17_4 O 0.7331(3) 0.4866(4) 0.9608(4)
O18_4 O 0.9108(3) 0.6521(3) 0.9857(4)
O21_4 O 0.8071(4) 0.9303(4) 0.7484(5)
O22_4 O 0.8801(4) 0.9257(4) 0.8971(5)
O24_4 O 0.9106(3) 0.1722(4) 0.9002(4)
O28_4 O 0.6232(4) 0.5523(4) 0.9583(6)
H16_4 H 0.6500 0.5828 0.9591
H17_4 H 0.5855 0.5582 0.9073
O29_4 O 0.9685(5) 0.0258(6) 0.8660(9)
H18_4 H 0.9627 0.0110 0.8166
H19_4 H 0.9900 0.0679 0.8830
O30_4 O 0.8265(4) 0.0939(5) 0.6976(5)
H20_4 H 0.7965 0.1266 0.6826
H21_4 H 0.8569 0.1171 0.6991
C24_4 C 0.8404(4) 0.4710(5) 0.9984(5)
C25_4 C 0.8414(4) 0.5486(5) 0.9774(5)
H22_4 H 0.8043 0.5799 0.9498
C30_4 C 0.7762(4) 0.4387(5) 0.9755(6)
C31_4 C 0.8649(4) 0.6871(5) 0.8995(5)
C32_4 C 0.8215(3) 0.6470(5) 0.8190(5)
H25_4 H 0.8182 0.5936 0.8199
C33_4 C 0.7828(4) 0.6871(5) 0.7365(5)
C34_4 C 0.7875(4) 0.7688(5) 0.7354(5)
H26_4 H 0.7616 0.7959 0.6801
C35_4 C 0.8314(4) 0.8082(5) 0.8183(6)
C36_4 C 0.8704(4) 0.7660(5) 0.9004(5)
H27_4 H 0.9003 0.7916 0.9557
C37_4 C 0.7373(4) 0.6435(5) 0.6488(5)
C38_4 C 0.8392(4) 0.8927(5) 0.8192(6)
H28_4 H 0.9479 0.3038 0.9862
C45_4 C 0.9335(4) 0.1507(5) 0.9816(5)
loop_
_geom_bond_atom_site_label_1
_geom_bond_atom_site_label_2
_geom_bond_site_symmetry_1
_geom_bond_site_symmetry_2
Cd1 O2 1_555 1_555
Cd3 O9 1_555 1_555
O1 C7 1_555 1_555
O2 C7 1_555 1_555
O8 C5 1_555 1_555
O9 C22 1_555 1_555
O10 Cd3 1_555 1_555
O11 C23 1_555 1_555
O12 C23 1_555 1_555
O14 Cd3 1_555 1_555
H3 O14 1_555 1_555
H4 O14 1_555 1_555
O15 Cd3 1_555 1_555
H5 O15 1_555 1_555
H6 O15 1_555 1_555
C6 C1 1_555 1_555
H9 C6 1_555 1_555
C7 C1 1_555 1_555
C16 O8 1_555 1_555
C17 C16 1_555 1_555
H13 C17 1_555 1_555
C18 C17 1_555 1_555
C19 C18 1_555 1_555
H14 C19 1_555 1_555
C20 C19 1_555 1_555
C21 C16 1_555 1_555
H15 C21 1_555 1_555
C22 O10 1_555 1_555
C23 C20 1_555 1_555
O18 C26 1_555 1_555
O19 C37 1_555 1_555
O20 C37 1_555 1_555
O21 C38 1_555 1_555
O22 C38 1_555 1_555
H16 O28 1_555 1_555
H17 O28 1_555 1_555
C25 H22 1_555 1_555
C26 C25 1_555 1_555
C27 C26 1_555 1_555
H23 C27 1_555 1_555
C31 O18 1_555 1_555
C32 C31 1_555 1_555
H25 C32 1_555 1_555
C33 C32 1_555 1_555
C34 C33 1_555 1_555
H26 C34 1_555 1_555
C35 C34 1_555 1_555
C36 C31 1_555 1_555
H27 C36 1_555 1_555
C37 C33 1_555 1_555
C38 C35 1_555 1_555
Cd10 O10 1_555 1_555
Cd11 O11 1_555 1_555
Cd13_2 O12 1_555 1_555
Cd14 O1 1_555 1_555
Cd17 O21 1_555 1_555
Cd18 O19 1_555 1_555
O34 Cd3 1_555 1_555
O35 Cd1 1_555 1_555
O38 Cd1 1_555 1_555
O40 Cd3 1_555 1_555
O42 Cd3 1_555 1_555
O45 Cd1 1_555 1_555
O47 Cd1 1_555 1_555
C5 C6 1_555 1_555
C18 C22 1_555 1_555
C20 C21 1_555 1_555
O20 Cd13_2 1_555 1_555
O22 Cd17 1_555 1_555
C35 C36 1_555 1_555
Cd10 O34 1_555 1_555
Cd14 O38 1_555 1_555
Cd2 O5 1_555 1_555
O3 C3 1_555 1_555
O4 C14 1_555 1_555
O5 C14 1_555 1_555
O40 C15 1_555 1_555
O42 C15 1_555 1_555
H1 O13 1_555 1_555
H2 O13 1_555 1_555
C2 H7 1_555 1_555
C3 C2 1_555 1_555
C4 C3 1_555 1_555
H8 C4 1_555 1_555
C8 O3 1_555 1_555
C9 C8 1_555 1_555
H10 C9 1_555 1_555
C10 C9 1_555 1_555
C11 C10 1_555 1_555
H11 C11 1_555 1_555
C12 C11 1_555 1_555
C13 C8 1_555 1_555
H12 C13 1_555 1_555
C14 C10 1_555 1_555
C15 C12 1_555 1_555
Cd4 O17 1_555 1_555
Cd17 O24 1_555 1_555
O16 C30 1_555 1_555
O17 C30 1_555 1_555
O23 C28 1_555 1_555
O24 C45 1_555 1_555
O25 Cd17 1_555 1_555
O26 C46 1_555 1_555
O27 Cd2 1_555 1_555
O29 Cd17 1_555 1_555
H18 O29 1_555 1_555
H19 O29 1_555 1_555
O30 Cd17 1_555 1_555
H20 O30 1_555 1_555
H21 O30 1_555 1_555
C29 C24 1_555 1_555
H24 C29 1_555 1_555
C30 C24 1_555 1_555
C39 O23 1_555 1_555
C40 C39 1_555 1_555
H28 C40 1_555 1_555
C41 C40 1_555 1_555
C42 C41 1_555 1_555
H29 C42 1_555 1_555
C43 C42 1_555 1_555
C44 C39 1_555 1_555
H30 C44 1_555 1_555
C45 O25 1_555 1_555
C46 O27 1_555 1_555
Cd7 O25 1_555 1_555
Cd8 O26 1_555 1_555
Cd12 O16 1_555 1_555
Cd16 O4 1_555 1_555
O31 Cd2 1_555 1_555
O33 Cd4 1_555 1_555
O36 Cd17 1_555 1_555
O37 Cd4 1_555 1_555
O44 Cd4 1_555 1_555
O46 Cd4 1_555 1_555
C12 C13 1_555 1_555
C28 C29 1_555 1_555
C41 C45 1_555 1_555
C43 C44 1_555 1_555
C43 C46 1_555 1_555
Cd7 O36 1_555 1_555
Cd12 O37 1_555 1_555
O32 Cd2_2 1_555 1_555
O39 Cd2_2 1_555 1_555
O48 Cd2_2 1_555 1_555
Cd6 O2_2 1_555 1_555
Cd3_2 O9_2 1_555 1_555
O1_2 C7_2 1_555 1_555
O2_2 C7_2 1_555 1_555
O9_2 C22_2 1_555 1_555
O10_2 Cd3_2 1_555 1_555
O14_2 Cd3_2 1_555 1_555
H3_2 O14_2 1_555 1_555
H4_2 O14_2 1_555 1_555
O15_2 Cd3_2 1_555 1_555
H5_2 O15_2 1_555 1_555
H6_2 O15_2 1_555 1_555
C7_2 C1_2 1_555 1_555
C22_2 O10_2 1_555 1_555
C27_2 C26_2 1_555 1_555
H23_2 C27_2 1_555 1_555
Cd13 O1_2 1_555 1_555
O34_2 Cd3_2 1_555 1_555
O40_2 Cd3_2 1_555 1_555
O42_2 Cd3_2 1_555 1_555
O47_2 Cd6 1_555 1_555
O8_2 C5_2 1_555 1_555
O11_2 C23_2 1_555 1_555
O12_2 C23_2 1_555 1_555
H9_2 C6_2 1_555 1_555
C16_2 O8_2 1_555 1_555
C17_2 C16_2 1_555 1_555
C18_2 C17_2 1_555 1_555
C19_2 C18_2 1_555 1_555
H14_2 C19_2 1_555 1_555
C20_2 C19_2 1_555 1_555
C21_2 C16_2 1_555 1_555
H15_2 C21_2 1_555 1_555
C23_2 C20_2 1_555 1_555
O35 C37_2 1_555 1_555
O38 C37_2 1_555 1_555
O21_2 C38_2 1_555 1_555
O22_2 C38_2 1_555 1_555
H16_2 O28_2 1_555 1_555
H17_2 O28_2 1_555 1_555
C25_2 H22_2 1_555 1_555
C31_2 O18_2 1_555 1_555
C32_2 C31_2 1_555 1_555
H25_2 C32_2 1_555 1_555
C33_2 C32_2 1_555 1_555
C34_2 C33_2 1_555 1_555
H26_2 C34_2 1_555 1_555
C35_2 C34_2 1_555 1_555
C36_2 C31_2 1_555 1_555
H27_2 C36_2 1_555 1_555
C37_2 C33_2 1_555 1_555
C38_2 C35_2 1_555 1_555
Cd10 O11_2 1_555 1_555
Cd14 O12_2 1_555 1_555
Cd17_2 O21_2 1_555 1_555
Cd18_2 O35 1_555 1_555
C5_2 C6_2 1_555 1_555
C20_2 C21_2 1_555 1_555
O22_2 Cd17_2 1_555 1_555
C35_2 C36_2 1_555 1_555
O33 C14_2 1_555 1_555
O37 C14_2 1_555 1_555
O40_2 C15_2 1_555 1_555
O42_2 C15_2 1_555 1_555
H1_2 O13_2 1_555 1_555
H2_2 O13_2 1_555 1_555
C2_2 H7_2 1_555 1_555
C8_2 O3_2 1_555 1_555
C9_2 C8_2 1_555 1_555
H10_2 C9_2 1_555 1_555
C10_2 C9_2 1_555 1_555
C11_2 C10_2 1_555 1_555
H11_2 C11_2 1_555 1_555
C12_2 C11_2 1_555 1_555
C13_2 C8_2 1_555 1_555
H12_2 C13_2 1_555 1_555
C14_2 C10_2 1_555 1_555
C15_2 C12_2 1_555 1_555
O23_2 C28_2 1_555 1_555
O26_2 C46_2 1_555 1_555
O27_2 Cd12 1_555 1_555
H24_2 C29_2 1_555 1_555
C39_2 O23_2 1_555 1_555
C40_2 C39_2 1_555 1_555
C41_2 C40_2 1_555 1_555
C42_2 C41_2 1_555 1_555
H29_2 C42_2 1_555 1_555
C43_2 C42_2 1_555 1_555
C44_2 C39_2 1_555 1_555
H30_2 C44_2 1_555 1_555
C46_2 O27_2 1_555 1_555
Cd7 O26_2 1_555 1_555
Cd16_2 O33 1_555 1_555
O31_2 Cd12 1_555 1_555
O39_2 Cd12 1_555 1_555
O48_2 Cd12 1_555 1_555
C12_2 C13_2 1_555 1_555
C28_2 C29_2 1_555 1_555
C43_2 C44_2 1_555 1_555
C43_2 C46_2 1_555 1_555
Cd7 O39_2 1_555 1_555
C4_2 C3_2 1_555 1_555
H8_2 C4_2 1_555 1_555
Cd9 O17_2 1_555 1_555
Cd17_2 O24_2 1_555 1_555
O32 C30_2 1_555 1_555
O17_2 C30_2 1_555 1_555
O24_2 C45_2 1_555 1_555
O25_2 Cd17_2 1_555 1_555
O29_2 Cd17_2 1_555 1_555
H18_2 O29_2 1_555 1_555
H19_2 O29_2 1_555 1_555
O30_2 Cd17_2 1_555 1_555
H20_2 O30_2 1_555 1_555
H21_2 O30_2 1_555 1_555
C30_2 C24_2 1_555 1_555
C45_2 O25_2 1_555 1_555
O36_2 Cd17_2 1_555 1_555
O46_2 Cd9 1_555 1_555
O46_2 C23_3 1_555 1_555
O48 C23_3 1_555 1_555
C16_3 O8_3 1_555 1_555
H14_3 C19_3 1_555 1_555
C20_3 C19_3 1_555 1_555
C21_3 C16_3 1_555 1_555
H15_3 C21_3 1_555 1_555
C23_3 C20_3 1_555 1_555
Cd10 O17_3 1_555 1_555
Cd18_2 O24_3 1_555 1_555
O16_2 C30_3 1_555 1_555
O17_3 C30_3 1_555 1_555
O18_3 C26_3 1_555 1_555
O36_2 C37_3 1_555 1_555
O39 C37_3 1_555 1_555
O21_3 C38_3 1_555 1_555
O22_3 C38_3 1_555 1_555
O24_3 C45_3 1_555 1_555
O45 Cd18_2 1_555 1_555
O28_3 Cd10 1_555 1_555
H16_3 O28_3 1_555 1_555
H17_3 O28_3 1_555 1_555
O29_3 Cd18_2 1_555 1_555
H18_3 O29_3 1_555 1_555
H19_3 O29_3 1_555 1_555
O30_3 Cd18_2 1_555 1_555
H20_3 O30_3 1_555 1_555
H21_3 O30_3 1_555 1_555
C24_3 C25_3 1_555 1_555
C25_3 H22_3 1_555 1_555
C26_3 C25_3 1_555 1_555
C27_3 C26_3 1_555 1_555
H23_3 C27_3 1_555 1_555
C28_3 C27_3 1_555 1_555
C29_3 C24_3 1_555 1_555
H24_3 C29_3 1_555 1_555
C30_3 C24_3 1_555 1_555
C31_3 O18_3 1_555 1_555
C32_3 C31_3 1_555 1_555
H25_3 C32_3 1_555 1_555
C33_3 C32_3 1_555 1_555
C34_3 C33_3 1_555 1_555
H26_3 C34_3 1_555 1_555
C35_3 C34_3 1_555 1_555
C36_3 C31_3 1_555 1_555
H27_3 C36_3 1_555 1_555
C37_3 C33_3 1_555 1_555
C38_3 C35_3 1_555 1_555
H28_3 C40_3 1_555 1_555
C41_3 C40_3 1_555 1_555
C45_3 O45 1_555 1_555
Cd14 O16_2 1_555 1_555
O37_2 Cd10 1_555 1_555
C20_3 C21_3 1_555 1_555
C28_3 C29_3 1_555 1_555
C35_3 C36_3 1_555 1_555
C41_3 C45_3 1_555 1_555
Cd14 O37_2 1_555 1_555
Cd7 O2_3 1_555 1_555
Cd13 O5_2 1_555 1_555
Cd16_2 O9_3 1_555 1_555
O31_2 C7_3 1_555 1_555
O2_3 C7_3 1_555 1_555
O3_3 C3_3 1_555 1_555
O34_2 C14_3 1_555 1_555
O5_2 C14_3 1_555 1_555
O40_3 C15_3 1_555 1_555
O42_3 C15_3 1_555 1_555
O9_3 C22_3 1_555 1_555
O44 Cd16_2 1_555 1_555
O13_3 Cd7 1_555 1_555
H1_3 O13_3 1_555 1_555
H2_3 O13_3 1_555 1_555
O14_3 Cd16_2 1_555 1_555
H3_3 O14_3 1_555 1_555
H4_3 O14_3 1_555 1_555
O15_3 Cd16_2 1_555 1_555
H5_3 O15_3 1_555 1_555
H6_3 O15_3 1_555 1_555
C1_3 C2_3 1_555 1_555
C2_3 H7_3 1_555 1_555
C3_3 C2_3 1_555 1_555
C4_3 C3_3 1_555 1_555
H8_3 C4_3 1_555 1_555
C5_3 C4_3 1_555 1_555
C6_3 C1_3 1_555 1_555
H9_3 C6_3 1_555 1_555
C7_3 C1_3 1_555 1_555
C8_3 O3_3 1_555 1_555
C9_3 C8_3 1_555 1_555
H10_3 C9_3 1_555 1_555
C10_3 C9_3 1_555 1_555
C11_3 C10_3 1_555 1_555
H11_3 C11_3 1_555 1_555
C12_3 C11_3 1_555 1_555
C13_3 C8_3 1_555 1_555
H12_3 C13_3 1_555 1_555
C14_3 C10_3 1_555 1_555
C15_3 C12_3 1_555 1_555
H13_3 C17_3 1_555 1_555
C18_3 C17_3 1_555 1_555
C22_3 O44 1_555 1_555
O47_2 C46_3 1_555 1_555
O27_3 Cd13 1_555 1_555
C39_3 O23_3 1_555 1_555
H29_3 C42_3 1_555 1_555
C43_3 C42_3 1_555 1_555
C44_3 C39_3 1_555 1_555
H30_3 C44_3 1_555 1_555
C46_3 O27_3 1_555 1_555
C5_3 C6_3 1_555 1_555
C12_3 C13_3 1_555 1_555
C18_3 C22_3 1_555 1_555
C43_3 C44_3 1_555 1_555
C43_3 C46_3 1_555 1_555
O32_2 Cd13_2 1_555 1_555
Cd8 O2_4 1_555 1_555
Cd16 O9_4 1_555 1_555
O31 C7_4 1_555 1_555
O2_4 C7_4 1_555 1_555
O34 C14_4 1_555 1_555
O37_2 C14_4 1_555 1_555
O40_4 C15_4 1_555 1_555
O42_4 C15_4 1_555 1_555
O9_4 C22_4 1_555 1_555
O44_2 Cd16 1_555 1_555
O13_4 Cd8 1_555 1_555
H1_4 O13_4 1_555 1_555
H2_4 O13_4 1_555 1_555
O14_4 Cd16 1_555 1_555
H3_4 O14_4 1_555 1_555
H4_4 O14_4 1_555 1_555
O15_4 Cd16 1_555 1_555
H5_4 O15_4 1_555 1_555
H6_4 O15_4 1_555 1_555
C1_4 C2_4 1_555 1_555
C2_4 H7_4 1_555 1_555
C7_4 C1_4 1_555 1_555
C8_4 O3_4 1_555 1_555
C9_4 C8_4 1_555 1_555
H10_4 C9_4 1_555 1_555
C10_4 C9_4 1_555 1_555
C11_4 C10_4 1_555 1_555
H11_4 C11_4 1_555 1_555
C12_4 C11_4 1_555 1_555
C13_4 C8_4 1_555 1_555
H12_4 C13_4 1_555 1_555
C14_4 C10_4 1_555 1_555
C15_4 C12_4 1_555 1_555
C22_4 O44_2 1_555 1_555
O47 C46_4 1_555 1_555
O27_4 Cd14 1_555 1_555
C39_4 O23_4 1_555 1_555
H29_4 C42_4 1_555 1_555
C43_4 C42_4 1_555 1_555
C44_4 C39_4 1_555 1_555
H30_4 C44_4 1_555 1_555
C46_4 O27_4 1_555 1_555
C12_4 C13_4 1_555 1_555
C43_4 C44_4 1_555 1_555
C43_4 C46_4 1_555 1_555
C4_4 C3_4 1_555 1_555
H8_4 C4_4 1_555 1_555
C5_4 C4_4 1_555 1_555
H9_4 C6_4 1_555 1_555
C18_4 C17_4 1_555 1_555
C5_4 C6_4 1_555 1_555
C27_4 C26_4 1_555 1_555
H23_4 C27_4 1_555 1_555
C28_4 C27_4 1_555 1_555
H24_4 C29_4 1_555 1_555
C41_4 C40_4 1_555 1_555
C28_4 C29_4 1_555 1_555
O46 C23_4 1_555 1_555
O48_2 C23_4 1_555 1_555
C16_4 O8_4 1_555 1_555
H14_4 C19_4 1_555 1_555
C20_4 C19_4 1_555 1_555
C21_4 C16_4 1_555 1_555
H15_4 C21_4 1_555 1_555
C23_4 C20_4 1_555 1_555
Cd11 O17_4 1_555 1_555
Cd18 O24_4 1_555 1_555
O32_2 C30_4 1_555 1_555
O17_4 C30_4 1_555 1_555
O36 C37_4 1_555 1_555
O39_2 C37_4 1_555 1_555
O21_4 C38_4 1_555 1_555
O22_4 C38_4 1_555 1_555
O24_4 C45_4 1_555 1_555
O45_2 Cd18 1_555 1_555
O28_4 Cd11 1_555 1_555
H16_4 O28_4 1_555 1_555
H17_4 O28_4 1_555 1_555
O29_4 Cd18 1_555 1_555
H18_4 O29_4 1_555 1_555
H19_4 O29_4 1_555 1_555
O30_4 Cd18 1_555 1_555
H20_4 O30_4 1_555 1_555
H21_4 O30_4 1_555 1_555
C24_4 C25_4 1_555 1_555
C25_4 H22_4 1_555 1_555
C30_4 C24_4 1_555 1_555
C31_4 O18_4 1_555 1_555
C32_4 C31_4 1_555 1_555
H25_4 C32_4 1_555 1_555
C33_4 C32_4 1_555 1_555
C34_4 C33_4 1_555 1_555
H26_4 C34_4 1_555 1_555
C35_4 C34_4 1_555 1_555
C36_4 C31_4 1_555 1_555
H27_4 C36_4 1_555 1_555
C37_4 C33_4 1_555 1_555
C38_4 C35_4 1_555 1_555
C45_4 O45_2 1_555 1_555
C20_4 C21_4 1_555 1_555
C35_4 C36_4 1_555 1_555

#END
