
###############################################################################
#
# This file contains modified crystal structure data generated from the
# MOF subset of the Cambridge Structural Database (CSD) v543 
# hosted by the Cambridge Crystallographic Data Centre (CCDC).
#
# This work is licensed under the Creative Commons
# Attribution-NonCommercial-ShareAlike 4.0 International License.
# To view a copy of this license, visit
# http://creativecommons.org/licenses/by-nc-sa/4.0/
# or send a letter to
# Creative Commons, PO Box 1866, Mountain View, CA 94042, USA.
#
# CIF created using the CSD Python API on 29 September 2022
# The structure has been converted into the P1 space group
# The structure has a 3D framework
# The original CSD entry OBOGUK is in the orthorhombic crystal system
# The framework has been calculated to contain at least 10.0% void space
# The void calculation uses a probe of radius 1.32A, grid spacing 0.4
#
###############################################################################

data_OBOGUK
_chemical_formula_moiety         '(C49 H34 O34 Zn7)n'
_symmetry_cell_setting           triclinic
_symmetry_space_group_name_H-M   'P 1'
_symmetry_Int_Tables_number      1
_space_group_name_Hall           'P 1'
loop_
_symmetry_equiv_pos_site_id
_symmetry_equiv_pos_as_xyz
1 x,y,z
_cell_length_a                   16.4071(8)
_cell_length_b                   11.8075(5)
_cell_length_c                   15.2832(7)
_cell_angle_alpha                90
_cell_angle_beta                 90
_cell_angle_gamma                90
_cell_volume                     2960.77
loop_
_atom_site_label
_atom_site_type_symbol
_atom_site_fract_x
_atom_site_fract_y
_atom_site_fract_z
Zn1 Zn 0.09964(3) 0.59755(4) 0.17098(3)
Zn2 Zn -0.0000 0.35077(6) 0.11828(5)
O1 O 0.0858(4) 0.3435(4) 0.2080(4)
O2 O 0.1484(2) 0.4964(3) 0.2565(2)
O3 O 0.3096(4) 0.4802(4) 0.5267(4)
O4 O 0.3251(2) 0.3215(3) 0.5937(2)
O5 O 0.1454(3) 0.0474(3) 0.4387(3)
O7 O 0.0000 0.5363(3) 0.1140(3)
H1 H 0.0000 0.5602 0.0525
O8 O 0.0936(4) 0.3460(5) 0.0270(4)
H3 H 0.1230 0.2879 0.0362
O9 O 0.0000 0.1700(5) 0.1149(6)
H4 H 0.0420 0.1472 0.0875
C1 C 0.1603(3) 0.3307(5) 0.3368(3)
C2 C 0.2131(3) 0.3811(4) 0.4003(4)
H5 H 0.2277 0.4567 0.3940
C3 C 0.2426(3) 0.3212(4) 0.4700(4)
C4 C 0.2163(3) 0.2085(4) 0.4814(3)
H6 H 0.2342 0.1678 0.5298
C5 C 0.1657(3) 0.1587(4) 0.4234(3)
C6 C 0.1389(3) 0.2170(4) 0.3495(3)
H7 H 0.1066 0.1802 0.3083
C7 C 0.1294(4) 0.3963(5) 0.2637(4)
C8 C 0.2981(4) 0.3770(5) 0.5333(4)
C9 C 0.0710(3) 0.0069(4) 0.4106(3)
C10 C -0.0000 0.0527(6) 0.4365(4)
H8 H -0.0000 0.1163 0.4725
Zn5 Zn 0.40036(3) 0.40245(4) 0.67098(3)
O17 O 0.1749(2) 0.6785(3) 0.0937(2)
O19 O 0.0659(2) 0.7225(3) 0.2503(2)
C11 C 0.0731(3) 0.9117(4) 0.3559(3)
H9 H 0.1225 0.8813 0.3374
C12 C -0.0000 0.8643(6) 0.3303(4)
C13 C 0.0000 0.7584(6) 0.2723(4)
Zn2_2 Zn 1.0000 0.35077(6) 0.11828(5)
O7_2 O 1.0000 0.5363(3) 0.1140(3)
H1_2 H 1.0000 0.5602 0.0525
O9_2 O 1.0000 0.1700(5) 0.1149(6)
C10_2 C 1.0000 0.0527(6) 0.4365(4)
H8_2 H 1.0000 0.1163 0.4725
O10 O 0.9142(4) 0.3435(4) 0.2080(4)
O11 O 0.8516(2) 0.4964(3) 0.2565(2)
O12 O 0.6904(4) 0.4802(4) 0.5267(4)
O13 O 0.6749(2) 0.3215(3) 0.5937(2)
O14 O 0.8546(3) 0.0474(3) 0.4387(3)
C14 C 0.8397(3) 0.3307(5) 0.3368(3)
C15 C 0.7869(3) 0.3811(4) 0.4003(4)
H10 H 0.7723 0.4567 0.3940
C16 C 0.7574(3) 0.3212(4) 0.4700(4)
C17 C 0.7837(3) 0.2085(4) 0.4814(3)
H11 H 0.7658 0.1678 0.5298
C18 C 0.8343(3) 0.1587(4) 0.4234(3)
C19 C 0.8611(3) 0.2170(4) 0.3495(3)
H12 H 0.8934 0.1802 0.3083
C20 C 0.8706(4) 0.3963(5) 0.2637(4)
C21 C 0.7019(4) 0.3770(5) 0.5333(4)
C22 C 0.9290(3) 0.0069(4) 0.4106(3)
H14 H 0.9580 0.1472 0.0875
Zn3 Zn 0.90036(3) 0.59755(4) 0.17098(3)
O16 O 0.9064(4) 0.3460(5) 0.0270(4)
H16 H 0.8770 0.2879 0.0362
Zn6 Zn 0.59964(3) 0.40245(4) 0.67098(3)
O18 O 0.8251(2) 0.6785(3) 0.0937(2)
O20 O 0.9341(2) 0.7225(3) 0.2503(2)
C12_2 C 1.0000 0.8643(6) 0.3303(4)
C13_2 C 1.0000 0.7584(6) 0.2723(4)
C23 C 0.9269(3) 0.9117(4) 0.3559(3)
H13 H 0.8775 0.8813 0.3374
O6 O 0.4341(2) 0.2775(3) 0.7503(2)
C11_2 C 0.4269(3) 0.0883(4) 0.8559(3)
H9_2 H 0.3775 0.1187 0.8374
C12_3 C 0.5000 0.1357(6) 0.8303(4)
C13_3 C 0.5000 0.2416(6) 0.7723(4)
O15 O 0.5659(2) 0.2775(3) 0.7503(2)
C23_2 C 0.5731(3) 0.0883(4) 0.8559(3)
H13_2 H 0.6225 0.1187 0.8374
O3_2 O 0.1904(4) 0.5198(4) 0.0267(4)
H6_2 H 0.2658 0.8322 0.0298
C8_2 C 0.2019(4) 0.6230(5) 0.0333(4)
O12_2 O 0.8096(4) 0.5198(4) 0.0267(4)
H11_2 H 0.7342 0.8322 0.0298
C21_2 C 0.7981(4) 0.6230(5) 0.0333(4)
Zn2_3 Zn 0.5000 0.64923(6) 0.61828(5)
O1_2 O 0.4142(4) 0.6565(4) 0.7080(4)
O2_2 O 0.3516(2) 0.5036(3) 0.7565(2)
O5_2 O 0.3546(3) 0.9526(3) 0.9387(3)
O7_3 O 0.5000 0.4637(3) 0.6140(3)
H1_3 H 0.5000 0.4398 0.5525
O8_2 O 0.4064(4) 0.6540(5) 0.5270(4)
H2 H 0.4264 0.6591 0.4759
H3_2 H 0.3770 0.7121 0.5362
O9_3 O 0.5000 0.8300(5) 0.6149(6)
H4_2 H 0.4580 0.8528 0.5875
C1_2 C 0.3397(3) 0.6693(5) 0.8368(3)
C2_2 C 0.2869(3) 0.6189(4) 0.9003(4)
H5_2 H 0.2723 0.5433 0.8940
C3_2 C 0.2574(3) 0.6788(4) 0.9700(4)
C4_2 C 0.2837(3) 0.7915(4) 0.9814(3)
C5_2 C 0.3343(3) 0.8413(4) 0.9234(3)
C6_2 C 0.3611(3) 0.7830(4) 0.8495(3)
H7_2 H 0.3934 0.8198 0.8083
C7_2 C 0.3706(4) 0.6037(5) 0.7637(4)
C9_2 C 0.4290(3) 0.9931(4) 0.9106(3)
C10_3 C 0.5000 0.9473(6) 0.9365(4)
H8_3 H 0.5000 0.8837 0.9725
O10_2 O 0.5858(4) 0.6565(4) 0.7080(4)
O11_2 O 0.6484(2) 0.5036(3) 0.7565(2)
O14_2 O 0.6454(3) 0.9526(3) 0.9387(3)
C14_2 C 0.6603(3) 0.6693(5) 0.8368(3)
C15_2 C 0.7131(3) 0.6189(4) 0.9003(4)
H10_2 H 0.7277 0.5433 0.8940
C16_2 C 0.7426(3) 0.6788(4) 0.9700(4)
C17_2 C 0.7163(3) 0.7915(4) 0.9814(3)
C18_2 C 0.6657(3) 0.8413(4) 0.9234(3)
C19_2 C 0.6389(3) 0.7830(4) 0.8495(3)
H12_2 H 0.6066 0.8198 0.8083
C20_2 C 0.6294(4) 0.6037(5) 0.7637(4)
C22_2 C 0.5710(3) 0.9931(4) 0.9106(3)
H14_2 H 0.5420 0.8528 0.5875
O16_2 O 0.5936(4) 0.6540(5) 0.5270(4)
H15 H 0.5736 0.6591 0.4759
H16_2 H 0.6230 0.7121 0.5362
H2_2 H 0.0736 0.3409 0.9759
H15_2 H 0.9264 0.3409 0.9759
loop_
_geom_bond_atom_site_label_1
_geom_bond_atom_site_label_2
_geom_bond_site_symmetry_1
_geom_bond_site_symmetry_2
Zn1 O2 1_555 1_555
Zn2 O1 1_555 1_555
O1 C7 1_555 1_555
O2 C7 1_555 1_555
O3 C8 1_555 1_555
O4 C8 1_555 1_555
O5 C5 1_555 1_555
O7 Zn1 1_555 1_555
H1 O7 1_555 1_555
O8 Zn2 1_555 1_555
H3 O8 1_555 1_555
O9 Zn2 1_555 1_555
H4 O9 1_555 1_555
C1 C2 1_555 1_555
C2 H5 1_555 1_555
C3 C2 1_555 1_555
C4 C3 1_555 1_555
H6 C4 1_555 1_555
C5 C4 1_555 1_555
C6 C1 1_555 1_555
H7 C6 1_555 1_555
C7 C1 1_555 1_555
C8 C3 1_555 1_555
C9 O5 1_555 1_555
C10 C9 1_555 1_555
H8 C10 1_555 1_555
Zn5 O4 1_555 1_555
O17 Zn1 1_555 1_555
O19 Zn1 1_555 1_555
Zn2 O7 1_555 1_555
C5 C6 1_555 1_555
O19 C13 1_555 1_555
H9 C11 1_555 1_555
C12 C11 1_555 1_555
C13 C12 1_555 1_555
H1_2 O7_2 1_555 1_555
O9_2 Zn2_2 1_555 1_555
H8_2 C10_2 1_555 1_555
O10 Zn2_2 1_555 1_555
O11 C20 1_555 1_555
O12 C21 1_555 1_555
O13 C21 1_555 1_555
O14 C18 1_555 1_555
C14 C15 1_555 1_555
C15 H10 1_555 1_555
C16 C15 1_555 1_555
C17 C16 1_555 1_555
H11 C17 1_555 1_555
C18 C17 1_555 1_555
C19 C14 1_555 1_555
H12 C19 1_555 1_555
C20 O10 1_555 1_555
C21 C16 1_555 1_555
C22 C10_2 1_555 1_555
H14 O9_2 1_555 1_555
Zn3 O7_2 1_555 1_555
O16 Zn2_2 1_555 1_555
H16 O16 1_555 1_555
Zn6 O13 1_555 1_555
O18 Zn3 1_555 1_555
O20 Zn3 1_555 1_555
Zn2_2 O7_2 1_555 1_555
O11 Zn3 1_555 1_555
O14 C22 1_555 1_555
C14 C20 1_555 1_555
C18 C19 1_555 1_555
C13_2 C12_2 1_555 1_555
O20 C13_2 1_555 1_555
C23 C12_2 1_555 1_555
H13 C23 1_555 1_555
O6 C13_3 1_555 1_555
H9_2 C11_2 1_555 1_555
C12_3 C11_2 1_555 1_555
C13_3 C12_3 1_555 1_555
O15 C13_3 1_555 1_555
C23_2 C12_3 1_555 1_555
H13_2 C23_2 1_555 1_555
Zn5 O6 1_555 1_555
Zn6 O15 1_555 1_555
O3_2 C8_2 1_555 1_555
O17 C8_2 1_555 1_555
O12_2 C21_2 1_555 1_555
O18 C21_2 1_555 1_555
Zn5 O2_2 1_555 1_555
Zn2_3 O1_2 1_555 1_555
O1_2 C7_2 1_555 1_555
O2_2 C7_2 1_555 1_555
O5_2 C5_2 1_555 1_555
O7_3 Zn5 1_555 1_555
H1_3 O7_3 1_555 1_555
O8_2 Zn2_3 1_555 1_555
H2 O8_2 1_555 1_555
H3_2 O8_2 1_555 1_555
O9_3 Zn2_3 1_555 1_555
H4_2 O9_3 1_555 1_555
C1_2 C2_2 1_555 1_555
C2_2 H5_2 1_555 1_555
C3_2 C2_2 1_555 1_555
C4_2 C3_2 1_555 1_555
C5_2 C4_2 1_555 1_555
C6_2 C1_2 1_555 1_555
H7_2 C6_2 1_555 1_555
C7_2 C1_2 1_555 1_555
C9_2 O5_2 1_555 1_555
C10_3 C9_2 1_555 1_555
H8_3 C10_3 1_555 1_555
O10_2 Zn2_3 1_555 1_555
O11_2 C20_2 1_555 1_555
O14_2 C18_2 1_555 1_555
C14_2 C15_2 1_555 1_555
C15_2 H10_2 1_555 1_555
C16_2 C15_2 1_555 1_555
C17_2 C16_2 1_555 1_555
C18_2 C17_2 1_555 1_555
C19_2 C14_2 1_555 1_555
H12_2 C19_2 1_555 1_555
C20_2 O10_2 1_555 1_555
C22_2 C10_3 1_555 1_555
H14_2 O9_3 1_555 1_555
Zn6 O7_3 1_555 1_555
O16_2 Zn2_3 1_555 1_555
H15 O16_2 1_555 1_555
H16_2 O16_2 1_555 1_555
Zn2_3 O7_3 1_555 1_555
C5_2 C6_2 1_555 1_555
O11_2 Zn6 1_555 1_555
O14_2 C22_2 1_555 1_555
C14_2 C20_2 1_555 1_555
C18_2 C19_2 1_555 1_555

#END
