
###############################################################################
#
# This file contains modified crystal structure data generated from the
# MOF subset of the Cambridge Structural Database (CSD) v543 
# hosted by the Cambridge Crystallographic Data Centre (CCDC).
#
# This work is licensed under the Creative Commons
# Attribution-NonCommercial-ShareAlike 4.0 International License.
# To view a copy of this license, visit
# http://creativecommons.org/licenses/by-nc-sa/4.0/
# or send a letter to
# Creative Commons, PO Box 1866, Mountain View, CA 94042, USA.
#
# CIF created using the CSD Python API on 29 September 2022
# The structure has been converted into the P1 space group
# The structure has a 3D framework
# The original CSD entry OBOKOJ is in the rhombohedral crystal system
# The framework has been calculated to contain at least 10.0% void space
# The void calculation uses a probe of radius 1.32A, grid spacing 0.4
# The framework is charged, counterions have been retained in the structure
#
###############################################################################

data_OBOKOJ
_chemical_formula_moiety         '(C630 H668 Cu90 N198 O182 6+)n'
_symmetry_cell_setting           triclinic
_symmetry_space_group_name_H-M   'P 1'
_symmetry_Int_Tables_number      1
_space_group_name_Hall           'P 1'
loop_
_symmetry_equiv_pos_site_id
_symmetry_equiv_pos_as_xyz
1 x,y,z
_cell_length_a                   43.3455(13)
_cell_length_b                   43.3455(13)
_cell_length_c                   12.7232(4)
_cell_angle_alpha                90
_cell_angle_beta                 90
_cell_angle_gamma                120
_cell_volume                     20702.1
loop_
_atom_site_label
_atom_site_type_symbol
_atom_site_fract_x
_atom_site_fract_y
_atom_site_fract_z
C35 C 0.54466(18) 0.00862(26) 0.0845(5)
H33 H 0.5501 0.0186 0.0158
C36 C 0.51593(17) 0.00207(24) 0.1454(5)
H34 H 0.4978 0.0071 0.1257
C53 C 0.42220(14) 0.01394(20) 0.1554(4)
H48 H 0.4454 0.0321 0.1752
C54 C 0.40055(15) 0.02291(21) 0.0977(5)
H49 H 0.3508 0.0018 0.0349
C57 C 0.41384(19) 0.06054(28) 0.0624(6)
H51 H 0.4395 0.0749 0.0759
H52 H 0.4014 0.0706 0.1013
Cu20 Cu 0.489136(16) 0.053545(23) 0.41982(5)
O37 O 0.54092(10) 0.00615(14) 0.7018(3)
Cu1 Cu 0.408444(16) 0.437809(16) 0.36156(5)
Cu2 Cu 0.487208(16) 0.512689(16) 0.36086(5)
Cu3 Cu 0.435591(16) 0.489136(16) 0.58018(5)
Cu4 Cu 0.35241(2) 0.635643(19) 0.79552(5)
O1 O 0.43934(9) 0.48540(9) 0.4245(3)
H1 H 0.4277 0.4989 0.3983
O2 O 0.3333 0.6667 0.7666(4)
H2 H 0.3333 0.6667 0.6880
O4 O 0.64442(10) 0.70453(10) 0.0398(3)
O5 O 0.58709(11) 0.68693(11) 0.0590(4)
O6 O 0.53477(10) 0.54092(10) 0.2982(3)
O7 O 0.51035(11) 0.57258(11) 0.2439(4)
O8 O 0.42702(11) 0.50076(10) 0.7229(3)
O9 O 0.40241(13) 0.52792(13) 0.6375(3)
O11 O 0.3706(2) 0.60429(17) 0.8376(4)
N1 N 0.43737(12) 0.45265(12) 0.2365(4)
N2 N 0.47008(12) 0.48272(12) 0.2375(4)
C1 C 0.43356(17) 0.43600(17) 0.1446(5)
H4 H 0.4132 0.4143 0.1240
C2 C 0.46396(19) 0.45534(18) 0.0845(5)
H5 H 0.4685 0.4499 0.0158
C3 C 0.48614(17) 0.48407(17) 0.1454(5)
H6 H 0.5093 0.5022 0.1257
N3 N 0.50323(12) 0.54136(11) 0.4881(4)
N4 N 0.48221(12) 0.53235(12) 0.5762(4)
C4 C 0.53238(15) 0.57337(14) 0.5067(5)
H7 H 0.5514 0.5859 0.4586
C5 C 0.53048(16) 0.58518(15) 0.6057(5)
H8 H 0.5473 0.6068 0.6385
C6 C 0.49888(16) 0.55880(15) 0.6464(5)
H9 H 0.4901 0.5592 0.7145
N5 N 0.39062(12) 0.44496(12) 0.5752(4)
N6 N 0.38337(12) 0.42150(12) 0.4949(4)
C7 C 0.36540(15) 0.42875(16) 0.6484(5)
H10 H 0.3642 0.4393 0.7127
C8 C 0.34128(16) 0.39440(17) 0.6167(5)
H11 H 0.3208 0.3771 0.6533
C9 C 0.35367(15) 0.39102(15) 0.5205(5)
H12 H 0.3428 0.3702 0.4781
N7 N 0.40456(13) 0.70938(17) 0.7885(4)
N8 N 0.39958(14) 0.67584(19) 0.7858(4)
C10 C 0.43970(19) 0.7325(3) 0.7830(6)
H13 H 0.4503 0.7577 0.7842
C11 C 0.4579(2) 0.7147(4) 0.7754(6)
H14 H 0.4829 0.7246 0.7696
C12 C 0.4319(2) 0.6786(4) 0.7779(6)
H15 H 0.4363 0.6593 0.7746
C16 C 0.61275(15) 0.68131(14) 0.0650(4)
C17 C 0.60641(14) 0.64552(13) 0.0993(4)
C18 C 0.57558(14) 0.62339(13) 0.1550(4)
H19 H 0.5594 0.6313 0.1727
C19 C 0.56850(14) 0.58957(14) 0.1846(4)
C20 C 0.59174(14) 0.57780(14) 0.1554(4)
H20 H 0.5867 0.5546 0.1752
C21 C 0.62236(15) 0.59945(15) 0.0977(5)
C22 C 0.62973(15) 0.63374(14) 0.0718(4)
H21 H 0.6510 0.6492 0.0349
C23 C 0.53535(14) 0.56633(14) 0.2461(5)
C24 C 0.6467(2) 0.58616(19) 0.0624(6)
H23 H 0.6354 0.5605 0.0759
H24 H 0.6692 0.5986 0.1013
C25 C 0.38122(19) 0.59919(18) 0.9213(5)
C26 C 0.39443(19) 0.57312(18) 0.9202(5)
C27 C 0.39733(16) 0.55919(16) 0.8251(4)
H25 H 0.3913 0.5663 0.7613
C28 C 0.40912(16) 0.53474(15) 0.8238(4)
C29 C 0.41758(17) 0.52405(16) 0.9175(5)
H26 H 0.4256 0.5073 0.9156
C32 C 0.41287(16) 0.52015(15) 0.7198(5)
Cu6 Cu 0.562191(16) 0.970635(23) 0.36156(5)
Cu7 Cu 0.487311(16) 0.974519(23) 0.36086(5)
Cu8 Cu 0.510864(16) 0.946455(23) 0.58018(5)
Cu9 Cu 0.364357(19) 0.716767(28) 0.79552(5)
O12 O 0.51460(9) 0.95394(13) 0.4245(3)
H31 H 0.5011 0.9288 0.3983
O13 O 0.29547(10) 0.93989(14) 0.0398(3)
O14 O 0.31307(11) 0.90016(16) 0.0590(4)
O15 O 0.45908(10) 0.99385(14) 0.2982(3)
O16 O 0.42742(11) 0.93777(16) 0.2439(4)
O17 O 0.49924(10) 0.92626(15) 0.7229(3)
O18 O 0.47208(13) 0.87449(18) 0.6375(3)
O20 O 0.39571(17) 0.76631(26) 0.8376(4)
N11 N 0.54735(12) 0.98472(17) 0.2365(4)
N12 N 0.51728(12) 0.98736(17) 0.2375(4)
C34 C 0.56400(17) 0.99756(24) 0.1446(5)
H32 H 0.5857 0.9989 0.1240
N13 N 0.45864(11) 0.96187(16) 0.4881(4)
N14 N 0.46765(12) 0.94986(17) 0.5762(4)
C37 C 0.42663(14) 0.95901(21) 0.5067(5)
H35 H 0.4141 0.9655 0.4586
C38 C 0.41482(15) 0.94530(22) 0.6057(5)
H36 H 0.3932 0.9405 0.6385
C39 C 0.44120(15) 0.94008(22) 0.6464(5)
H37 H 0.4408 0.9309 0.7145
N15 N 0.55504(12) 0.94566(17) 0.5752(4)
N16 N 0.57850(12) 0.96187(17) 0.4949(4)
C40 C 0.57125(16) 0.93665(22) 0.6484(5)
H38 H 0.5607 0.9249 0.7127
C41 C 0.60560(17) 0.94688(23) 0.6167(5)
H39 H 0.6229 0.9437 0.6533
C42 C 0.60898(15) 0.96265(21) 0.5205(5)
H40 H 0.6298 0.9726 0.4781
N17 N 0.29062(17) 0.69518(21) 0.7885(4)
N18 N 0.32416(19) 0.72374(24) 0.7858(4)
C43 C 0.2675(3) 0.70720(36) 0.7830(6)
H41 H 0.2423 0.6926 0.7842
C44 C 0.2853(4) 0.7432(4) 0.7754(6)
H42 H 0.2754 0.7583 0.7696
C45 C 0.3214(4) 0.7533(4) 0.7779(6)
H43 H 0.3407 0.7770 0.7746
C49 C 0.31869(14) 0.93144(21) 0.0650(4)
C50 C 0.35448(13) 0.96089(19) 0.0993(4)
C51 C 0.37661(13) 0.95219(19) 0.1550(4)
H47 H 0.3687 0.9281 0.1727
C52 C 0.41043(14) 0.97893(20) 0.1846(4)
C55 C 0.36626(14) 0.99599(21) 0.0718(4)
C56 C 0.43367(14) 0.96902(20) 0.2461(5)
C58 C 0.40081(18) 0.78203(26) 0.9213(5)
C59 C 0.42688(18) 0.82131(26) 0.9202(5)
C60 C 0.44081(16) 0.83814(23) 0.8251(4)
H53 H 0.4337 0.8250 0.7613
C61 C 0.46526(15) 0.87438(22) 0.8238(4)
C62 C 0.47595(16) 0.89353(23) 0.9175(5)
H54 H 0.4927 0.9183 0.9156
C65 C 0.47985(15) 0.89272(22) 0.7198(5)
Cu11 Cu 0.029365(23) 0.591556(16) 0.36156(5)
Cu12 Cu 0.025481(23) 0.512792(16) 0.36086(5)
Cu13 Cu 0.053545(23) 0.564409(16) 0.58018(5)
Cu14 Cu 0.283233(28) 0.64759(2) 0.79552(5)
O21 O 0.04606(13) 0.56066(9) 0.4245(3)
H59 H 0.0712 0.5723 0.3983
O22 O 0.06011(14) 0.35558(10) 0.0398(3)
O23 O 0.09984(16) 0.41291(11) 0.0590(4)
O24 O 0.00615(14) 0.46523(10) 0.2982(3)
O25 O 0.06223(16) 0.48965(11) 0.2439(4)
O26 O 0.07374(15) 0.57298(11) 0.7229(3)
O27 O 0.12551(18) 0.59759(13) 0.6375(3)
O29 O 0.23369(26) 0.6294(2) 0.8376(4)
N21 N 0.01528(17) 0.56263(12) 0.2365(4)
N22 N 0.01264(17) 0.52992(12) 0.2375(4)
C67 C 0.00244(24) 0.56644(17) 0.1446(5)
H60 H 0.0011 0.5868 0.1240
N23 N 0.03813(16) 0.49677(12) 0.4881(4)
N24 N 0.05014(17) 0.51779(12) 0.5762(4)
C70 C 0.04099(21) 0.46762(15) 0.5067(5)
H63 H 0.0345 0.4486 0.4586
C71 C 0.05470(22) 0.46952(16) 0.6057(5)
H64 H 0.0595 0.4527 0.6385
C72 C 0.05992(22) 0.50112(16) 0.6464(5)
H65 H 0.0691 0.5099 0.7145
N25 N 0.05434(17) 0.60938(12) 0.5752(4)
N26 N 0.03813(17) 0.61663(12) 0.4949(4)
C73 C 0.06335(22) 0.63460(15) 0.6484(5)
H66 H 0.0751 0.6358 0.7127
C74 C 0.05312(23) 0.65872(16) 0.6167(5)
H67 H 0.0563 0.6792 0.6533
C75 C 0.03735(21) 0.64633(15) 0.5205(5)
H68 H 0.0274 0.6572 0.4781
N27 N 0.30482(21) 0.59544(13) 0.7885(4)
N28 N 0.27626(24) 0.60042(14) 0.7858(4)
C76 C 0.29280(36) 0.56030(19) 0.7830(6)
H69 H 0.3074 0.5497 0.7842
C77 C 0.2568(4) 0.5421(2) 0.7754(6)
H70 H 0.2417 0.5171 0.7696
C78 C 0.2467(4) 0.5681(2) 0.7779(6)
H71 H 0.2230 0.5637 0.7746
C82 C 0.06856(21) 0.38725(15) 0.0650(4)
C83 C 0.03911(19) 0.39359(14) 0.0993(4)
C84 C 0.04781(19) 0.42442(14) 0.1550(4)
H75 H 0.0719 0.4406 0.1727
C85 C 0.02107(20) 0.43150(14) 0.1846(4)
C88 C 0.00401(21) 0.37027(15) 0.0718(4)
C89 C 0.03098(20) 0.46465(14) 0.2461(5)
C91 C 0.21797(26) 0.61878(19) 0.9213(5)
C92 C 0.17869(26) 0.60557(19) 0.9202(5)
C93 C 0.16186(23) 0.60267(16) 0.8251(4)
H81 H 0.1750 0.6087 0.7613
C94 C 0.12562(22) 0.59088(16) 0.8238(4)
C95 C 0.10647(23) 0.58242(17) 0.9175(5)
H82 H 0.0817 0.5744 0.9156
C98 C 0.10728(22) 0.58713(16) 0.7198(5)
Cu19 Cu 0.564409(16) 0.510864(16) 0.41982(5)
O30 O 0.02225(10) 0.62880(10) 0.2935(3)
O31 O 0.37120(10) 0.39344(14) 0.2935(3)
O32 O 0.60656(14) 0.97775(10) 0.2935(3)
O33 O 0.07958(11) 0.64640(11) 0.2743(4)
O34 O 0.35360(11) 0.43317(16) 0.2743(4)
O35 O 0.56683(16) 0.92042(11) 0.2743(4)
O36 O 0.46523(10) 0.45908(10) 0.7018(3)
C68 C 0.99138(26) 0.53604(19) 0.0845(5)
H61 H 0.9814 0.5315 0.0158
C69 C 0.99793(24) 0.51386(17) 0.1454(5)
H62 H 0.9929 0.4907 0.1257
C86 C 0.98606(20) 0.40826(14) 0.1554(4)
H76 H 0.9679 0.4133 0.1752
C87 C 0.97709(21) 0.37764(15) 0.0977(5)
H77 H 0.9982 0.3490 0.0349
C90 C 0.93946(28) 0.3533(2) 0.0624(6)
H79 H 0.9251 0.3646 0.0759
H80 H 0.9294 0.3308 0.1013
Cu21 Cu 0.946455(23) 0.435591(16) 0.41982(5)
O38 O 0.99385(14) 0.53477(10) 0.7018(3)
N7_2 N 0.07123(13) 0.04271(17) 0.1218(4)
N8_2 N 0.06625(14) 0.00917(19) 0.1191(4)
C10_2 C 0.10637(19) 0.0658(3) 0.1163(6)
H13_2 H 0.1170 0.0910 0.1175
C11_2 C 0.1246(2) 0.0480(4) 0.1087(6)
H14_2 H 0.1496 0.0579 0.1029
C12_2 C 0.0986(2) 0.0119(4) 0.1112(6)
Cu9_2 Cu 0.031024(19) 0.050100(28) 0.12885(5)
Cu10 Cu 0.02606(2) 0.05086(3) 0.37496(5)
O17_2 O 0.16591(10) 0.25959(15) 0.0562(3)
O19 O 0.05110(18) 0.10182(26) 0.3379(4)
O20_2 O 0.06238(17) 0.09964(26) 0.1709(4)
H37_2 H 0.1075 0.2642 0.0478
H38_2 H 0.2274 0.2582 0.0460
H43_2 H 0.0074 0.1103 0.1079
N19 N 0.06938(14) 0.05070(23) 0.3852(4)
N20 N 0.06961(14) 0.02017(23) 0.3793(4)
C46 C 0.1035(2) 0.0774(4) 0.3924(6)
H44 H 0.1108 0.1020 0.3982
C47 C 0.1256(2) 0.0643(4) 0.3904(6)
H45 H 0.1509 0.0774 0.3939
C48 C 0.1043(2) 0.0281(4) 0.3821(6)
H46 H 0.1123 0.0113 0.3789
C58_2 C 0.06748(18) 0.11536(26) 0.2546(5)
C59_2 C 0.09355(18) 0.15464(26) 0.2535(5)
C60_2 C 0.10748(16) 0.17147(23) 0.1584(4)
H53_2 H 0.1004 0.1583 0.0946
C61_2 C 0.13193(15) 0.20771(22) 0.1571(4)
C62_2 C 0.14262(16) 0.22686(23) 0.2508(5)
H54_2 H 0.1594 0.2516 0.2489
C63 C 0.12920(19) 0.21026(28) 0.3474(5)
C64 C 0.10430(19) 0.17396(28) 0.3473(5)
H55 H 0.0945 0.1622 0.4120
C65_2 C 0.14652(15) 0.22605(22) 0.0531(5)
C66 C 0.1417(3) 0.2313(4) 0.4493(6)
H56 H 0.1672 0.2401 0.4589
H57 H 0.1284 0.2157 0.5085
H58 H 0.1374 0.2514 0.4464
O37_2 O 0.20759(10) 0.33948(14) 0.0351(3)
Cu4_2 Cu 0.01908(2) 0.968976(19) 0.12885(5)
Cu5 Cu 0.02481(2) 0.97394(2) 0.37496(5)
O8_2 O 0.09369(11) 0.83409(10) 0.0562(3)
O10 O 0.05073(19) 0.94890(18) 0.3379(4)
O11_2 O 0.0373(2) 0.93762(17) 0.1709(4)
H9_2 H 0.1568 0.8925 0.0478
H10_2 H 0.0309 0.7726 0.0460
H15_2 H 0.1030 0.9926 0.1079
C25_2 C 0.04789(19) 0.93252(18) 0.2546(5)
C26_2 C 0.06110(19) 0.90645(18) 0.2535(5)
C27_2 C 0.06400(16) 0.89252(16) 0.1584(4)
H25_2 H 0.0580 0.8996 0.0946
C28_2 C 0.07579(16) 0.86807(15) 0.1571(4)
C29_2 C 0.08425(17) 0.85738(16) 0.2508(5)
H26_2 H 0.0923 0.8406 0.2489
C30 C 0.0811(2) 0.87080(19) 0.3474(5)
C31 C 0.0697(2) 0.89570(19) 0.3473(5)
H27 H 0.0678 0.9055 0.4120
C32_2 C 0.07954(16) 0.85348(15) 0.0531(5)
C33 C 0.0897(3) 0.8583(3) 0.4493(6)
H28 H 0.0730 0.8328 0.4589
H29 H 0.0874 0.8716 0.5085
H30 H 0.1141 0.8626 0.4464
O36_2 O 0.13190(10) 0.79241(10) 0.0351(3)
N9 N 0.98133(18) 0.93062(14) 0.3852(4)
N10 N 0.95057(18) 0.93039(14) 0.3793(4)
C13 C 0.9740(3) 0.8965(2) 0.3924(6)
H16 H 0.9913 0.8892 0.3982
C14 C 0.9388(3) 0.8744(2) 0.3904(6)
H17 H 0.9266 0.8491 0.3939
C15 C 0.9239(3) 0.8957(2) 0.3821(6)
H18 H 0.8991 0.8877 0.3789
Cu14_2 Cu 0.949900(28) 0.98092(2) 0.12885(5)
Cu15 Cu 0.94914(3) 0.97519(2) 0.37496(5)
O26_2 O 0.74041(15) 0.90631(11) 0.0562(3)
O28 O 0.89818(26) 0.94927(19) 0.3379(4)
O29_2 O 0.90036(26) 0.9627(2) 0.1709(4)
H65_2 H 0.7358 0.8432 0.0478
H66_2 H 0.7418 0.9691 0.0460
N27_2 N 0.97149(21) 0.92877(13) 0.1218(4)
N28_2 N 0.94293(24) 0.93375(14) 0.1191(4)
C76_2 C 0.95947(36) 0.89363(19) 0.1163(6)
H69_2 H 0.9741 0.8830 0.1175
C77_2 C 0.9235(4) 0.8754(2) 0.1087(6)
H70_2 H 0.9084 0.8504 0.1029
C78_2 C 0.9134(4) 0.9014(2) 0.1112(6)
H71_2 H 0.8897 0.8970 0.1079
C91_2 C 0.88464(26) 0.95211(19) 0.2546(5)
C92_2 C 0.84536(26) 0.93890(19) 0.2535(5)
C93_2 C 0.82853(23) 0.93600(16) 0.1584(4)
H81_2 H 0.8417 0.9420 0.0946
C94_2 C 0.79229(22) 0.92421(16) 0.1571(4)
C95_2 C 0.77314(23) 0.91575(17) 0.2508(5)
H82_2 H 0.7484 0.9077 0.2489
C96 C 0.78974(28) 0.9189(2) 0.3474(5)
C97 C 0.82604(28) 0.9303(2) 0.3473(5)
H83 H 0.8378 0.9322 0.4120
C98_2 C 0.77395(22) 0.92046(16) 0.0531(5)
C99 C 0.7687(4) 0.9103(3) 0.4493(6)
H84 H 0.7599 0.9270 0.4589
H85 H 0.7843 0.9126 0.5085
H86 H 0.7486 0.8859 0.4464
O38_2 O 0.66052(14) 0.86810(10) 0.0351(3)
O2_2 O 1.0000 0.9999 0.0999(4)
H2_2 H 1.0000 0.9999 0.0213
O3 O 1.0000 0.9999 0.4005(5)
H3 H 1.0000 0.9999 0.4791
O2_3 O 0.0001 0.0000 0.0999(4)
H2_3 H 0.0001 0.0000 0.0213
O3_2 O 0.0001 0.0000 0.4005(5)
H3_2 H 0.0001 0.0000 0.4791
O4_2 O 0.97775(10) 0.37120(10) 0.7065(3)
O5_2 O 0.92042(11) 0.35360(11) 0.7257(4)
O6_2 O 0.86810(10) 0.20759(10) 0.9649(3)
O7_2 O 0.84368(11) 0.23925(11) 0.9106(4)
N1_2 N 0.77070(12) 0.11932(12) 0.9032(4)
N2_2 N 0.80341(12) 0.14939(12) 0.9042(4)
C1_2 C 0.76689(17) 0.10267(17) 0.8113(5)
H4_2 H 0.7465 0.0810 0.7907
C2_2 C 0.79729(19) 0.12201(18) 0.7512(5)
H5_2 H 0.8018 0.1166 0.6825
C3_2 C 0.81947(17) 0.15074(17) 0.8121(5)
H6_2 H 0.8426 0.1689 0.7924
C16_2 C 0.94608(15) 0.34798(14) 0.7317(4)
C17_2 C 0.93974(14) 0.31219(13) 0.7660(4)
C18_2 C 0.90891(14) 0.29006(13) 0.8217(4)
H19_2 H 0.8927 0.2980 0.8394
C19_2 C 0.90183(14) 0.25624(14) 0.8513(4)
C20_2 C 0.92507(14) 0.24447(14) 0.8221(4)
H20_2 H 0.9200 0.2213 0.8419
C21_2 C 0.95569(15) 0.26612(15) 0.7644(5)
C22_2 C 0.96306(15) 0.30041(14) 0.7385(4)
H21_2 H 0.9843 0.3159 0.7016
C23_2 C 0.86868(14) 0.23300(14) 0.9128(5)
C24_2 C 0.9800(2) 0.25283(19) 0.7291(6)
H22 H 0.9848 0.2573 0.6537
H23_2 H 0.9687 0.2272 0.7426
O13_2 O 0.62880(10) 0.60656(14) 0.7065(3)
O14_2 O 0.64640(11) 0.56683(16) 0.7257(4)
O15_2 O 0.79241(10) 0.66052(14) 0.9649(3)
O16_2 O 0.76075(11) 0.60444(16) 0.9106(4)
N11_2 N 0.88068(12) 0.65139(17) 0.9032(4)
N12_2 N 0.85061(12) 0.65403(17) 0.9042(4)
C34_2 C 0.89733(17) 0.66423(24) 0.8113(5)
H32_2 H 0.9190 0.6656 0.7907
C35_2 C 0.87799(18) 0.67529(26) 0.7512(5)
H33_2 H 0.8834 0.6853 0.6825
C36_2 C 0.84926(17) 0.66874(24) 0.8121(5)
H34_2 H 0.8311 0.6738 0.7924
C49_2 C 0.65202(14) 0.59811(21) 0.7317(4)
C50_2 C 0.68781(13) 0.62756(19) 0.7660(4)
C51_2 C 0.70994(13) 0.61886(19) 0.8217(4)
H47_2 H 0.7020 0.5948 0.8394
C52_2 C 0.74376(14) 0.64560(20) 0.8513(4)
C53_2 C 0.75553(14) 0.68061(20) 0.8221(4)
H48_2 H 0.7787 0.6988 0.8419
C54_2 C 0.73388(15) 0.68958(21) 0.7644(5)
C55_2 C 0.69959(14) 0.66266(21) 0.7385(4)
H49_2 H 0.6841 0.6685 0.7016
C56_2 C 0.76700(14) 0.63569(20) 0.9128(5)
C57_2 C 0.74717(19) 0.72721(28) 0.7291(6)
H50 H 0.7427 0.7276 0.6537
H51_2 H 0.7728 0.7416 0.7426
H52_2 H 0.7347 0.7373 0.7680
O22_2 O 0.39344(14) 0.02225(10) 0.7065(3)
O23_2 O 0.43317(16) 0.07958(11) 0.7257(4)
O24_2 O 0.33948(14) 0.13190(10) 0.9649(3)
O25_2 O 0.39556(16) 0.15632(11) 0.9106(4)
N21_2 N 0.34861(17) 0.22930(12) 0.9032(4)
N22_2 N 0.34597(17) 0.19659(12) 0.9042(4)
C67_2 C 0.33577(24) 0.23311(17) 0.8113(5)
H60_2 H 0.3344 0.2535 0.7907
C68_2 C 0.32471(26) 0.20271(19) 0.7512(5)
H61_2 H 0.3147 0.1982 0.6825
C69_2 C 0.33126(24) 0.18053(17) 0.8121(5)
H62_2 H 0.3262 0.1574 0.7924
C82_2 C 0.40189(21) 0.05392(15) 0.7317(4)
C83_2 C 0.37244(19) 0.06026(14) 0.7660(4)
C84_2 C 0.38114(19) 0.09109(14) 0.8217(4)
H75_2 H 0.4052 0.1073 0.8394
C85_2 C 0.35440(20) 0.09817(14) 0.8513(4)
C86_2 C 0.31939(20) 0.07493(14) 0.8221(4)
H76_2 H 0.3012 0.0800 0.8419
C87_2 C 0.31042(21) 0.04431(15) 0.7644(5)
C88_2 C 0.33734(21) 0.03694(15) 0.7385(4)
H77_2 H 0.3315 0.0157 0.7016
C89_2 C 0.36431(20) 0.13132(14) 0.9128(5)
C90_2 C 0.27279(28) 0.0200(2) 0.7291(6)
H78 H 0.2724 0.0152 0.6537
H79_2 H 0.2584 0.0313 0.7426
Cu16 Cu 0.591556(16) 0.562191(16) 0.63844(5)
Cu17 Cu 0.437809(16) 0.029365(23) 0.63844(5)
Cu18 Cu 0.970635(23) 0.408444(16) 0.63844(5)
O30_2 O 0.35558(10) 0.29547(10) 0.9602(3)
O31_2 O 0.70453(10) 0.06011(14) 0.9602(3)
O32_2 O 0.93989(14) 0.64442(10) 0.9602(3)
O33_2 O 0.41291(11) 0.31307(11) 0.9410(4)
O34_2 O 0.68693(11) 0.09984(16) 0.9410(4)
O35_2 O 0.90016(16) 0.58709(11) 0.9410(4)
C68_3 C 0.00862(26) 0.46396(19) 0.9155(5)
H61_3 H 0.0186 0.4685 0.9842
C69_3 C 0.00207(24) 0.48614(17) 0.8546(5)
H62_3 H 0.0071 0.5093 0.8743
C86_3 C 0.01394(20) 0.59174(14) 0.8446(4)
H76_3 H 0.0321 0.5867 0.8248
C87_3 C 0.02291(21) 0.62236(15) 0.9023(5)
H77_3 H 0.0018 0.6510 0.9651
C90_3 C 0.06054(28) 0.6467(2) 0.9376(6)
H79_3 H 0.0749 0.6354 0.9241
H80_2 H 0.0706 0.6692 0.8987
Cu2_2 Cu 0.512792(16) 0.487311(16) 0.63914(5)
Cu4_3 Cu 0.64759(2) 0.364357(19) 0.20448(5)
O1_2 O 0.56066(9) 0.51460(9) 0.5755(3)
H1_2 H 0.5723 0.5011 0.6017
O2_4 O 0.6667 0.3333 0.2334(4)
H2_4 H 0.6667 0.3333 0.3120
O7_3 O 0.48965(11) 0.42742(11) 0.7561(4)
O8_3 O 0.57298(11) 0.49924(10) 0.2771(3)
O9_2 O 0.59759(13) 0.47208(13) 0.3625(3)
O11_3 O 0.6294(2) 0.39571(17) 0.1624(4)
N1_3 N 0.56263(12) 0.54735(12) 0.7635(4)
N2_3 N 0.52992(12) 0.51728(12) 0.7625(4)
C1_3 C 0.56644(17) 0.56400(17) 0.8554(5)
H4_3 H 0.5868 0.5857 0.8760
C2_3 C 0.53604(19) 0.54466(18) 0.9155(5)
H5_3 H 0.5315 0.5501 0.9842
C3_3 C 0.51386(17) 0.51593(17) 0.8546(5)
H6_3 H 0.4907 0.4978 0.8743
N3_2 N 0.49677(12) 0.45864(11) 0.5119(4)
N4_2 N 0.51779(12) 0.46765(12) 0.4238(4)
C4_2 C 0.46762(15) 0.42663(14) 0.4933(5)
H7_2 H 0.4486 0.4141 0.5414
C5_2 C 0.46952(16) 0.41482(15) 0.3943(5)
H8_2 H 0.4527 0.3932 0.3615
C6_2 C 0.50112(16) 0.44120(15) 0.3536(5)
H9_3 H 0.5099 0.4408 0.2855
N5_2 N 0.60938(12) 0.55504(12) 0.4248(4)
N6_2 N 0.61663(12) 0.57850(12) 0.5051(4)
C7_2 C 0.63460(15) 0.57125(16) 0.3516(5)
H10_3 H 0.6358 0.5607 0.2873
C8_2 C 0.65872(16) 0.60560(17) 0.3833(5)
H11_2 H 0.6792 0.6229 0.3467
C9_2 C 0.64633(15) 0.60898(15) 0.4795(5)
H12_2 H 0.6572 0.6298 0.5219
N7_3 N 0.59544(13) 0.29062(17) 0.2115(4)
N8_3 N 0.60042(14) 0.32416(19) 0.2142(4)
C10_3 C 0.56030(19) 0.2675(3) 0.2170(6)
H13_3 H 0.5497 0.2423 0.2158
C11_3 C 0.5421(2) 0.2853(4) 0.2246(6)
H14_3 H 0.5171 0.2754 0.2304
C12_3 C 0.5681(2) 0.3214(4) 0.2221(6)
H15_3 H 0.5637 0.3407 0.2254
C16_3 C 0.38725(15) 0.31869(14) 0.9350(4)
C17_3 C 0.39359(14) 0.35448(13) 0.9007(4)
C18_3 C 0.42442(14) 0.37661(13) 0.8450(4)
H19_3 H 0.4406 0.3687 0.8273
C19_3 C 0.43150(14) 0.41043(14) 0.8154(4)
C20_3 C 0.40826(14) 0.42220(14) 0.8446(4)
H20_3 H 0.4133 0.4454 0.8248
C21_3 C 0.37764(15) 0.40055(15) 0.9023(5)
C22_3 C 0.37027(15) 0.36626(14) 0.9282(4)
H21_3 H 0.3490 0.3508 0.9651
C23_3 C 0.46465(14) 0.43367(14) 0.7539(5)
C24_3 C 0.3533(2) 0.41384(19) 0.9376(6)
H23_3 H 0.3646 0.4395 0.9241
H24_2 H 0.3308 0.4014 0.8987
C25_3 C 0.61878(19) 0.40081(18) 0.0787(5)
C26_3 C 0.60557(19) 0.42688(18) 0.0798(5)
C27_3 C 0.60267(16) 0.44081(16) 0.1749(4)
H25_3 H 0.6087 0.4337 0.2387
C28_3 C 0.59088(16) 0.46526(15) 0.1762(4)
C29_3 C 0.58242(17) 0.47595(16) 0.0825(5)
H26_3 H 0.5744 0.4927 0.0844
C32_3 C 0.58713(16) 0.47985(15) 0.2802(5)
Cu7_2 Cu 0.512689(16) 0.025481(23) 0.63914(5)
Cu9_3 Cu 0.635643(19) 0.283233(28) 0.20448(5)
O12_2 O 0.48540(9) 0.04606(13) 0.5755(3)
H31_2 H 0.4989 0.0712 0.6017
O16_3 O 0.57258(11) 0.06223(16) 0.7561(4)
O17_3 O 0.50076(10) 0.07374(15) 0.2771(3)
O18_2 O 0.52792(13) 0.12551(18) 0.3625(3)
O20_3 O 0.60429(17) 0.23369(26) 0.1624(4)
N11_3 N 0.45265(12) 0.01528(17) 0.7635(4)
N12_3 N 0.48272(12) 0.01264(17) 0.7625(4)
C34_3 C 0.43600(17) 0.00244(24) 0.8554(5)
H32_3 H 0.4143 0.0011 0.8760
N13_2 N 0.54136(11) 0.03813(16) 0.5119(4)
N14_2 N 0.53235(12) 0.05014(17) 0.4238(4)
C37_2 C 0.57337(14) 0.04099(21) 0.4933(5)
H35_2 H 0.5859 0.0345 0.5414
C38_2 C 0.58518(15) 0.05470(22) 0.3943(5)
H36_2 H 0.6068 0.0595 0.3615
C39_2 C 0.55880(15) 0.05992(22) 0.3536(5)
H37_3 H 0.5592 0.0691 0.2855
N15_2 N 0.44496(12) 0.05434(17) 0.4248(4)
N16_2 N 0.42150(12) 0.03813(17) 0.5051(4)
C40_2 C 0.42875(16) 0.06335(22) 0.3516(5)
H38_3 H 0.4393 0.0751 0.2873
C41_2 C 0.39440(17) 0.05312(23) 0.3833(5)
H39_2 H 0.3771 0.0563 0.3467
C42_2 C 0.39102(15) 0.03735(21) 0.4795(5)
H40_2 H 0.3702 0.0274 0.5219
N17_2 N 0.70938(17) 0.30482(21) 0.2115(4)
N18_2 N 0.67584(19) 0.27626(24) 0.2142(4)
C43_2 C 0.7325(3) 0.29280(36) 0.2170(6)
H41_2 H 0.7577 0.3074 0.2158
C44_2 C 0.7147(4) 0.2568(4) 0.2246(6)
H42_2 H 0.7246 0.2417 0.2304
C45_2 C 0.6786(4) 0.2467(4) 0.2221(6)
H43_3 H 0.6593 0.2230 0.2254
C49_3 C 0.68131(14) 0.06856(21) 0.9350(4)
C50_3 C 0.64552(13) 0.03911(19) 0.9007(4)
C51_3 C 0.62339(13) 0.04781(19) 0.8450(4)
H47_3 H 0.6313 0.0719 0.8273
C52_3 C 0.58957(14) 0.02107(20) 0.8154(4)
C55_3 C 0.63374(14) 0.00401(21) 0.9282(4)
C56_3 C 0.56633(14) 0.03098(20) 0.7539(5)
C58_3 C 0.59919(18) 0.21797(26) 0.0787(5)
C59_3 C 0.57312(18) 0.17869(26) 0.0798(5)
C60_3 C 0.55919(16) 0.16186(23) 0.1749(4)
H53_3 H 0.5663 0.1750 0.2387
C61_3 C 0.53474(15) 0.12562(22) 0.1762(4)
C62_3 C 0.52405(16) 0.10647(23) 0.0825(5)
H54_3 H 0.5073 0.0817 0.0844
C65_3 C 0.52015(15) 0.10728(22) 0.2802(5)
Cu12_2 Cu 0.974519(23) 0.487208(16) 0.63914(5)
Cu14_3 Cu 0.716767(28) 0.35241(2) 0.20448(5)
O21_2 O 0.95394(13) 0.43934(9) 0.5755(3)
H59_2 H 0.9288 0.4277 0.6017
O25_3 O 0.93777(16) 0.51035(11) 0.7561(4)
O26_3 O 0.92626(15) 0.42702(11) 0.2771(3)
O27_2 O 0.87449(18) 0.40241(13) 0.3625(3)
O29_3 O 0.76631(26) 0.3706(2) 0.1624(4)
N21_3 N 0.98472(17) 0.43737(12) 0.7635(4)
N22_3 N 0.98736(17) 0.47008(12) 0.7625(4)
C67_3 C 0.99756(24) 0.43356(17) 0.8554(5)
H60_3 H 0.9989 0.4132 0.8760
N23_2 N 0.96187(16) 0.50323(12) 0.5119(4)
N24_2 N 0.94986(17) 0.48221(12) 0.4238(4)
C70_2 C 0.95901(21) 0.53238(15) 0.4933(5)
H63_2 H 0.9655 0.5514 0.5414
C71_2 C 0.94530(22) 0.53048(16) 0.3943(5)
H64_2 H 0.9405 0.5473 0.3615
C72_2 C 0.94008(22) 0.49888(16) 0.3536(5)
H65_3 H 0.9309 0.4901 0.2855
N25_2 N 0.94566(17) 0.39062(12) 0.4248(4)
N26_2 N 0.96187(17) 0.38337(12) 0.5051(4)
C73_2 C 0.93665(22) 0.36540(15) 0.3516(5)
H66_3 H 0.9249 0.3642 0.2873
C74_2 C 0.94688(23) 0.34128(16) 0.3833(5)
H67_2 H 0.9437 0.3208 0.3467
C75_2 C 0.96265(21) 0.35367(15) 0.4795(5)
H68_2 H 0.9726 0.3428 0.5219
N27_3 N 0.69518(21) 0.40456(13) 0.2115(4)
N28_3 N 0.72374(24) 0.39958(14) 0.2142(4)
C76_3 C 0.70720(36) 0.43970(19) 0.2170(6)
H69_3 H 0.6926 0.4503 0.2158
C77_3 C 0.7432(4) 0.4579(2) 0.2246(6)
H70_3 H 0.7583 0.4829 0.2304
C78_3 C 0.7533(4) 0.4319(2) 0.2221(6)
H71_3 H 0.7770 0.4363 0.2254
C82_3 C 0.93144(21) 0.61275(15) 0.9350(4)
C83_3 C 0.96089(19) 0.60641(14) 0.9007(4)
C84_3 C 0.95219(19) 0.57558(14) 0.8450(4)
H75_3 H 0.9281 0.5594 0.8273
C85_3 C 0.97893(20) 0.56850(14) 0.8154(4)
C88_3 C 0.99599(21) 0.62973(15) 0.9282(4)
C89_3 C 0.96902(20) 0.53535(14) 0.7539(5)
C91_3 C 0.78203(26) 0.38122(19) 0.0787(5)
C92_3 C 0.82131(26) 0.39443(19) 0.0798(5)
C93_3 C 0.83814(23) 0.39733(16) 0.1749(4)
H81_3 H 0.8250 0.3913 0.2387
C94_3 C 0.87438(22) 0.40912(16) 0.1762(4)
C95_3 C 0.89353(23) 0.41758(17) 0.0825(5)
H82_3 H 0.9183 0.4256 0.0844
C98_3 C 0.89272(22) 0.41287(16) 0.2802(5)
C35_3 C 0.45534(18) 0.99138(26) 0.9155(5)
H33_3 H 0.4499 0.9814 0.9842
C36_3 C 0.48407(17) 0.99793(24) 0.8546(5)
H34_3 H 0.5022 0.9929 0.8743
C53_3 C 0.57780(14) 0.98606(20) 0.8446(4)
H48_3 H 0.5546 0.9679 0.8248
C54_3 C 0.59945(15) 0.97709(21) 0.9023(5)
H49_3 H 0.6492 0.9982 0.9651
C57_3 C 0.58616(19) 0.93946(28) 0.9376(6)
H51_3 H 0.5605 0.9251 0.9241
H52_3 H 0.5986 0.9294 0.8987
N9_2 N 0.01867(18) 0.06938(14) 0.6148(4)
N10_2 N 0.04943(18) 0.06961(14) 0.6207(4)
C13_2 C 0.0260(3) 0.1035(2) 0.6076(6)
H16_2 H 0.0087 0.1108 0.6018
C14_2 C 0.0612(3) 0.1256(2) 0.6096(6)
H17_2 H 0.0734 0.1509 0.6061
C15_2 C 0.0761(3) 0.1043(2) 0.6179(6)
H18_2 H 0.1009 0.1123 0.6211
Cu14_4 Cu 0.050100(28) 0.01908(2) 0.87115(5)
Cu15_2 Cu 0.05086(3) 0.02481(2) 0.62504(5)
O26_4 O 0.25959(15) 0.09369(11) 0.9438(3)
O28_2 O 0.10182(26) 0.05073(19) 0.6621(4)
O29_4 O 0.09964(26) 0.0373(2) 0.8291(4)
H65_4 H 0.2642 0.1568 0.9522
H66_4 H 0.2582 0.0309 0.9540
N27_4 N 0.02851(21) 0.07123(13) 0.8782(4)
N28_4 N 0.05707(24) 0.06625(14) 0.8809(4)
C76_4 C 0.04053(36) 0.10637(19) 0.8837(6)
H69_4 H 0.0259 0.1170 0.8825
C77_4 C 0.0765(4) 0.1246(2) 0.8913(6)
H70_4 H 0.0916 0.1496 0.8971
C78_4 C 0.0866(4) 0.0986(2) 0.8888(6)
H71_4 H 0.1103 0.1030 0.8921
C91_4 C 0.11536(26) 0.04789(19) 0.7454(5)
C92_4 C 0.15464(26) 0.06110(19) 0.7465(5)
C93_4 C 0.17147(23) 0.06400(16) 0.8416(4)
H81_4 H 0.1583 0.0580 0.9054
C94_4 C 0.20771(22) 0.07579(16) 0.8429(4)
C95_4 C 0.22686(23) 0.08425(17) 0.7492(5)
H82_4 H 0.2516 0.0923 0.7511
C96_2 C 0.21026(28) 0.0811(2) 0.6526(5)
C97_2 C 0.17396(28) 0.0697(2) 0.6527(5)
H83_2 H 0.1622 0.0678 0.5880
C98_4 C 0.22605(22) 0.07954(16) 0.9469(5)
C99_2 C 0.2313(4) 0.0897(3) 0.5507(6)
H84_2 H 0.2401 0.0730 0.5411
H85_2 H 0.2157 0.0874 0.4915
H86_2 H 0.2514 0.1141 0.5536
Cu4_4 Cu 0.98092(2) 0.031024(19) 0.87115(5)
Cu5_2 Cu 0.97519(2) 0.02606(2) 0.62504(5)
O8_4 O 0.90631(11) 0.16591(10) 0.9438(3)
O10_2 O 0.94927(19) 0.05110(18) 0.6621(4)
O11_4 O 0.9627(2) 0.06238(17) 0.8291(4)
H9_4 H 0.8432 0.1075 0.9522
H10_4 H 0.9691 0.2274 0.9540
H15_4 H 0.8970 0.0074 0.8921
C25_4 C 0.95211(19) 0.06748(18) 0.7454(5)
C26_4 C 0.93890(19) 0.09355(18) 0.7465(5)
C27_4 C 0.93600(16) 0.10748(16) 0.8416(4)
H25_4 H 0.9420 0.1004 0.9054
C28_4 C 0.92421(16) 0.13193(15) 0.8429(4)
C29_4 C 0.91575(17) 0.14262(16) 0.7492(5)
H26_4 H 0.9077 0.1594 0.7511
C30_2 C 0.9189(2) 0.12920(19) 0.6526(5)
C31_2 C 0.9303(2) 0.10430(19) 0.6527(5)
H27_2 H 0.9322 0.0945 0.5880
C32_4 C 0.92046(16) 0.14652(15) 0.9469(5)
C33_2 C 0.9103(3) 0.1417(3) 0.5507(6)
H28_2 H 0.9270 0.1672 0.5411
H29_2 H 0.9126 0.1284 0.4915
H30_2 H 0.8859 0.1374 0.5536
N7_4 N 0.92877(13) 0.95729(17) 0.8782(4)
N8_4 N 0.93375(14) 0.99083(19) 0.8809(4)
C10_4 C 0.89363(19) 0.9342(3) 0.8837(6)
H13_4 H 0.8830 0.9090 0.8825
C11_4 C 0.8754(2) 0.9520(4) 0.8913(6)
H14_4 H 0.8504 0.9421 0.8971
C12_4 C 0.9014(2) 0.9881(4) 0.8888(6)
Cu9_4 Cu 0.968976(19) 0.949900(28) 0.87115(5)
Cu10_2 Cu 0.97394(2) 0.94914(3) 0.62504(5)
O17_4 O 0.83409(10) 0.74041(15) 0.9438(3)
O19_2 O 0.94890(18) 0.89818(26) 0.6621(4)
O20_4 O 0.93762(17) 0.90036(26) 0.8291(4)
H37_4 H 0.8925 0.7358 0.9522
H38_4 H 0.7726 0.7418 0.9540
H43_4 H 0.9926 0.8897 0.8921
N19_2 N 0.93062(14) 0.94930(23) 0.6148(4)
N20_2 N 0.93039(14) 0.97983(23) 0.6207(4)
C46_2 C 0.8965(2) 0.9226(4) 0.6076(6)
H44_2 H 0.8892 0.8980 0.6018
C47_2 C 0.8744(2) 0.9357(4) 0.6096(6)
H45_2 H 0.8491 0.9226 0.6061
C48_2 C 0.8957(2) 0.9719(4) 0.6179(6)
H46_2 H 0.8877 0.9887 0.6211
C58_4 C 0.93252(18) 0.88464(26) 0.7454(5)
C59_4 C 0.90645(18) 0.84536(26) 0.7465(5)
C60_4 C 0.89252(16) 0.82853(23) 0.8416(4)
H53_4 H 0.8996 0.8417 0.9054
C61_4 C 0.86807(15) 0.79229(22) 0.8429(4)
C62_4 C 0.85738(16) 0.77314(23) 0.7492(5)
H54_4 H 0.8406 0.7484 0.7511
C63_2 C 0.87080(19) 0.78974(28) 0.6526(5)
C64_2 C 0.89570(19) 0.82604(28) 0.6527(5)
H55_2 H 0.9055 0.8378 0.5880
C65_4 C 0.85348(15) 0.77395(22) 0.9469(5)
C66_2 C 0.8583(3) 0.7687(4) 0.5507(6)
H56_2 H 0.8328 0.7599 0.5411
H57_2 H 0.8716 0.7843 0.4915
H58_2 H 0.8626 0.7486 0.5536
O2_5 O 0.0000 0.0001 0.9001(4)
H2_5 H 0.0000 0.0001 0.9787
O3_3 O 0.0000 0.0001 0.5995(5)
H3_3 H 0.0000 0.0001 0.5209
O2_6 O 0.9999 1.0000 0.9001(4)
H2_6 H 0.9999 1.0000 0.9787
O3_4 O 0.9999 1.0000 0.5995(5)
H3_4 H 0.9999 1.0000 0.5209
O7_4 O 0.15632(11) 0.76075(11) 0.0894(4)
N1_4 N 0.22930(12) 0.88068(12) 0.0968(4)
N2_4 N 0.19659(12) 0.85061(12) 0.0958(4)
C1_4 C 0.23311(17) 0.89733(17) 0.1887(5)
H4_4 H 0.2535 0.9190 0.2093
C2_4 C 0.20271(19) 0.87799(18) 0.2488(5)
H5_4 H 0.1982 0.8834 0.3175
C3_4 C 0.18053(17) 0.84926(17) 0.1879(5)
H6_4 H 0.1574 0.8311 0.2076
C16_4 C 0.05392(15) 0.65202(14) 0.2683(4)
C17_4 C 0.06026(14) 0.68781(13) 0.2340(4)
C18_4 C 0.09109(14) 0.70994(13) 0.1783(4)
H19_4 H 0.1073 0.7020 0.1606
C19_4 C 0.09817(14) 0.74376(14) 0.1487(4)
C20_4 C 0.07493(14) 0.75553(14) 0.1779(4)
H20_4 H 0.0800 0.7787 0.1581
C21_4 C 0.04431(15) 0.73388(15) 0.2356(5)
C22_4 C 0.03694(15) 0.69959(14) 0.2615(4)
H21_4 H 0.0157 0.6841 0.2984
C23_4 C 0.13132(14) 0.76700(14) 0.0872(5)
C24_4 C 0.0200(2) 0.74717(19) 0.2709(6)
H22_2 H 0.0152 0.7427 0.3463
H23_4 H 0.0313 0.7728 0.2574
O16_4 O 0.23925(11) 0.39556(16) 0.0894(4)
N11_4 N 0.11932(12) 0.34861(17) 0.0968(4)
N12_4 N 0.14939(12) 0.34597(17) 0.0958(4)
C34_4 C 0.10267(17) 0.33577(24) 0.1887(5)
H32_4 H 0.0810 0.3344 0.2093
C35_4 C 0.12201(18) 0.32471(26) 0.2488(5)
H33_4 H 0.1166 0.3147 0.3175
C36_4 C 0.15074(17) 0.33126(24) 0.1879(5)
H34_4 H 0.1689 0.3262 0.2076
C49_4 C 0.34798(14) 0.40189(21) 0.2683(4)
C50_4 C 0.31219(13) 0.37244(19) 0.2340(4)
C51_4 C 0.29006(13) 0.38114(19) 0.1783(4)
H47_4 H 0.2980 0.4052 0.1606
C52_4 C 0.25624(14) 0.35440(20) 0.1487(4)
C53_4 C 0.24447(14) 0.31939(20) 0.1779(4)
H48_4 H 0.2213 0.3012 0.1581
C54_4 C 0.26612(15) 0.31042(21) 0.2356(5)
C55_4 C 0.30041(14) 0.33734(21) 0.2615(4)
H49_4 H 0.3159 0.3315 0.2984
C56_4 C 0.23300(14) 0.36431(20) 0.0872(5)
C57_4 C 0.25283(19) 0.27279(28) 0.2709(6)
H50_2 H 0.2573 0.2724 0.3463
H51_4 H 0.2272 0.2584 0.2574
H52_4 H 0.2653 0.2627 0.2320
O25_4 O 0.60444(16) 0.84368(11) 0.0894(4)
N21_4 N 0.65139(17) 0.77070(12) 0.0968(4)
N22_4 N 0.65403(17) 0.80341(12) 0.0958(4)
C67_4 C 0.66423(24) 0.76689(17) 0.1887(5)
H60_4 H 0.6656 0.7465 0.2093
C68_4 C 0.67529(26) 0.79729(19) 0.2488(5)
H61_4 H 0.6853 0.8018 0.3175
C69_4 C 0.66874(24) 0.81947(17) 0.1879(5)
H62_4 H 0.6738 0.8426 0.2076
C82_4 C 0.59811(21) 0.94608(15) 0.2683(4)
C83_4 C 0.62756(19) 0.93974(14) 0.2340(4)
C84_4 C 0.61886(19) 0.90891(14) 0.1783(4)
H75_4 H 0.5948 0.8927 0.1606
C85_4 C 0.64560(20) 0.90183(14) 0.1487(4)
C86_4 C 0.68061(20) 0.92507(14) 0.1779(4)
H76_4 H 0.6988 0.9200 0.1581
C87_4 C 0.68958(21) 0.95569(15) 0.2356(5)
C88_4 C 0.66266(21) 0.96306(15) 0.2615(4)
H77_4 H 0.6685 0.9843 0.2984
C89_4 C 0.63569(20) 0.86868(14) 0.0872(5)
C90_4 C 0.72721(28) 0.9800(2) 0.2709(6)
H78_2 H 0.7276 0.9848 0.3463
H79_4 H 0.7416 0.9687 0.2574
H50_3 H 0.4094 0.0609 0.9870
Cu5_3 Cu 0.35814(2) 0.64061(2) 0.04163(5)
O3_5 O 0.3333 0.6667 0.0672(5)
H3_5 H 0.3333 0.6667 0.1458
O10_3 O 0.38406(19) 0.61557(18) 0.0046(4)
N9_3 N 0.31466(18) 0.59729(14) 0.0519(4)
N10_3 N 0.28390(18) 0.59706(14) 0.0460(4)
C13_3 C 0.3073(3) 0.5632(2) 0.0591(6)
H16_3 H 0.3246 0.5559 0.0649
C14_3 C 0.2721(3) 0.5411(2) 0.0571(6)
H17_3 H 0.2599 0.5158 0.0606
C15_3 C 0.2572(3) 0.5624(2) 0.0488(6)
H18_3 H 0.2324 0.5544 0.0456
C30_3 C 0.4144(2) 0.53747(19) 0.0141(5)
C31_3 C 0.4030(2) 0.56237(19) 0.0140(5)
H27_3 H 0.4011 0.5722 0.0787
C33_3 C 0.4230(3) 0.5250(3) 0.1160(6)
H28_3 H 0.4063 0.4995 0.1256
H29_3 H 0.4207 0.5383 0.1752
H30_3 H 0.4474 0.5293 0.1131
Cu10_3 Cu 0.35939(2) 0.71753(3) 0.04163(5)
O19_3 O 0.38443(18) 0.76849(26) 0.0046(4)
N19_3 N 0.40271(14) 0.71737(23) 0.0519(4)
N20_3 N 0.40294(14) 0.68684(23) 0.0460(4)
C46_3 C 0.4368(2) 0.7441(4) 0.0591(6)
H44_3 H 0.4441 0.7687 0.0649
C47_3 C 0.4589(2) 0.7310(4) 0.0571(6)
H45_3 H 0.4842 0.7441 0.0606
C48_3 C 0.4376(2) 0.6948(4) 0.0488(6)
H46_3 H 0.4456 0.6780 0.0456
C63_3 C 0.46253(19) 0.87693(28) 0.0141(5)
C64_3 C 0.43763(19) 0.84063(28) 0.0140(5)
H55_3 H 0.4278 0.8289 0.0787
C66_3 C 0.4750(3) 0.8980(4) 0.1160(6)
H56_3 H 0.5005 0.9068 0.1256
H57_3 H 0.4617 0.8824 0.1752
H58_3 H 0.4707 0.9181 0.1131
Cu15_3 Cu 0.28247(3) 0.64186(2) 0.04163(5)
O28_3 O 0.23151(26) 0.61594(19) 0.0046(4)
N29 N 0.28263(23) 0.68534(18) 0.0519(4)
N30 N 0.31316(23) 0.71610(18) 0.0460(4)
C79 C 0.2559(4) 0.6927(3) 0.0591(6)
H72 H 0.2313 0.6754 0.0649
C80 C 0.2690(4) 0.7279(3) 0.0571(6)
H73 H 0.2559 0.7401 0.0606
C81 C 0.3052(4) 0.7428(3) 0.0488(6)
H74 H 0.3220 0.7676 0.0456
C96_3 C 0.12307(28) 0.5856(2) 0.0141(5)
C97_3 C 0.15937(28) 0.5970(2) 0.0140(5)
H83_3 H 0.1711 0.5989 0.0787
C99_3 C 0.1020(4) 0.5770(3) 0.1160(6)
H84_3 H 0.0932 0.5937 0.1256
H85_3 H 0.1176 0.5793 0.1752
H86_3 H 0.0819 0.5526 0.1131
H22_3 H 0.6515 0.5906 0.9870
Cu16_2 Cu 0.258223(16) 0.895524(16) 0.97177(5)
Cu17_2 Cu 0.104476(16) 0.362698(23) 0.97177(5)
Cu18_2 Cu 0.637302(23) 0.741777(16) 0.97177(5)
O4_3 O 0.31109(10) 0.03786(10) 0.3731(3)
O5_3 O 0.25376(11) 0.02026(11) 0.3923(4)
C16_5 C 0.27942(15) 0.01464(14) 0.3983(4)
Cu6_2 Cu 0.228858(16) 0.303968(23) 0.69489(5)
Cu7_3 Cu 0.153978(16) 0.307852(23) 0.69419(5)
Cu8_2 Cu 0.177531(16) 0.279788(23) 0.91351(5)
O12_3 O 0.18127(9) 0.28727(13) 0.7578(3)
H31_3 H 0.1678 0.2621 0.7316
O15_3 O 0.12575(10) 0.32718(14) 0.6315(3)
O16_5 O 0.09409(11) 0.27110(16) 0.5772(4)
O18_3 O 0.13875(13) 0.20782(18) 0.9708(3)
N11_5 N 0.21402(12) 0.31805(17) 0.5698(4)
N12_5 N 0.18395(12) 0.32069(17) 0.5708(4)
C34_5 C 0.23067(17) 0.33089(24) 0.4779(5)
H32_5 H 0.2524 0.3322 0.4573
C35_5 C 0.21133(18) 0.34195(26) 0.4178(5)
H33_5 H 0.2168 0.3519 0.3491
C36_5 C 0.18260(17) 0.33540(24) 0.4787(5)
H34_5 H 0.1645 0.3404 0.4590
N13_3 N 0.12531(11) 0.29520(16) 0.8214(4)
N14_3 N 0.13432(12) 0.28319(17) 0.9095(4)
C37_3 C 0.09330(14) 0.29234(21) 0.8400(5)
H35_3 H 0.0808 0.2988 0.7919
C38_3 C 0.08149(15) 0.27863(22) 0.9390(5)
H36_3 H 0.0599 0.2738 0.9718
C39_3 C 0.10787(15) 0.27341(22) 0.9797(5)
N15_3 N 0.22171(12) 0.27899(17) 0.9085(4)
N16_3 N 0.24517(12) 0.29520(17) 0.8282(4)
C40_3 C 0.23792(16) 0.26998(22) 0.9817(5)
C41_3 C 0.27227(17) 0.28021(23) 0.9500(5)
H39_3 H 0.2896 0.2770 0.9866
C42_3 C 0.27565(15) 0.29598(21) 0.8538(5)
H40_3 H 0.2965 0.3059 0.8114
C50_5 C 0.02115(13) 0.29422(19) 0.4326(4)
C51_5 C 0.04328(13) 0.28552(19) 0.4883(4)
H47_5 H 0.0354 0.2614 0.5060
C52_5 C 0.07710(14) 0.31226(20) 0.5179(4)
C53_5 C 0.08887(14) 0.34727(20) 0.4887(4)
H48_5 H 0.1121 0.3654 0.5085
C54_5 C 0.06722(15) 0.35624(21) 0.4310(5)
C55_5 C 0.03293(14) 0.32932(21) 0.4051(4)
H49_5 H 0.0175 0.3351 0.3682
C56_5 C 0.10034(14) 0.30235(20) 0.5794(5)
C57_5 C 0.08051(19) 0.39387(28) 0.3957(6)
H50_4 H 0.0761 0.3942 0.3203
H51_5 H 0.1062 0.4082 0.4092
H52_5 H 0.0681 0.4039 0.4346
Cu18_3 Cu 0.303968(23) 0.075111(16) 0.30511(5)
Cu20_2 Cu 0.155803(16) 0.386878(23) 0.75315(5)
O32_3 O 0.27322(14) 0.31109(10) 0.6269(3)
O35_3 O 0.23349(16) 0.25376(11) 0.6077(4)
Cu1_2 Cu 0.075111(16) 0.771142(16) 0.69489(5)
Cu2_3 Cu 0.153875(16) 0.846022(16) 0.69419(5)
Cu3_2 Cu 0.102258(16) 0.822469(16) 0.91351(5)
O1_3 O 0.10601(9) 0.81873(9) 0.7578(3)
H1_3 H 0.0944 0.8322 0.7316
O6_3 O 0.20144(10) 0.87425(10) 0.6315(3)
O7_5 O 0.17702(11) 0.90591(11) 0.5772(4)
O9_3 O 0.06908(13) 0.86125(13) 0.9708(3)
N1_5 N 0.10404(12) 0.78598(12) 0.5698(4)
N2_5 N 0.13675(12) 0.81605(12) 0.5708(4)
C1_5 C 0.10023(17) 0.76933(17) 0.4779(5)
H4_5 H 0.0799 0.7476 0.4573
C2_5 C 0.13063(19) 0.78867(18) 0.4178(5)
H5_5 H 0.1352 0.7832 0.3491
C3_5 C 0.15281(17) 0.81740(17) 0.4787(5)
H6_5 H 0.1760 0.8355 0.4590
N3_3 N 0.16990(12) 0.87469(11) 0.8214(4)
N4_3 N 0.14888(12) 0.86568(12) 0.9095(4)
C4_3 C 0.19905(15) 0.90670(14) 0.8400(5)
H7_3 H 0.2181 0.9192 0.7919
C5_3 C 0.19715(16) 0.91851(15) 0.9390(5)
H8_3 H 0.2140 0.9401 0.9718
C6_3 C 0.16555(16) 0.89213(15) 0.9797(5)
N5_3 N 0.05729(12) 0.77829(12) 0.9085(4)
N6_3 N 0.05004(12) 0.75483(12) 0.8282(4)
C7_3 C 0.03207(15) 0.76208(16) 0.9817(5)
C8_3 C 0.00795(16) 0.72773(17) 0.9500(5)
C9_3 C 0.02034(15) 0.72435(15) 0.8538(5)
H12_3 H 0.0095 0.7035 0.8114
C17_5 C 0.27308(14) 0.97885(13) 0.4326(4)
C18_5 C 0.24225(14) 0.95672(13) 0.4883(4)
H19_5 H 0.2261 0.9646 0.5060
C19_5 C 0.23517(14) 0.92290(14) 0.5179(4)
C20_5 C 0.25841(14) 0.91113(14) 0.4887(4)
H20_5 H 0.2534 0.8879 0.5085
C21_5 C 0.28903(15) 0.93278(15) 0.4310(5)
C22_5 C 0.29640(15) 0.96707(14) 0.4051(4)
H21_5 H 0.3177 0.9825 0.3682
C23_5 C 0.20202(14) 0.89966(14) 0.5794(5)
C24_5 C 0.3134(2) 0.91949(19) 0.3957(6)
H22_4 H 0.3182 0.9239 0.3203
H23_5 H 0.3021 0.8938 0.4092
H24_3 H 0.3359 0.9319 0.4346
Cu19_2 Cu 0.231076(16) 0.844197(16) 0.75315(5)
O31_3 O 0.03786(10) 0.72678(14) 0.6269(3)
O34_3 O 0.02026(11) 0.76651(16) 0.6077(4)
O13_3 O 0.96214(10) 0.27322(14) 0.3731(3)
O14_3 O 0.97974(11) 0.23349(16) 0.3923(4)
C49_5 C 0.98536(14) 0.26477(21) 0.3983(4)
H67_3 H 0.7230 0.0125 0.9866
Cu16_3 Cu 0.924889(16) 0.228858(16) 0.30511(5)
H11_3 H 0.9875 0.7104 0.9866
Cu11_2 Cu 0.696032(23) 0.924889(16) 0.69489(5)
Cu12_3 Cu 0.692148(23) 0.846125(16) 0.69419(5)
Cu13_2 Cu 0.720212(23) 0.897742(16) 0.91351(5)
O21_3 O 0.71273(13) 0.89399(9) 0.7578(3)
H59_3 H 0.7379 0.9056 0.7316
O22_3 O 0.72678(14) 0.68891(10) 0.3731(3)
O23_3 O 0.76651(16) 0.74624(11) 0.3923(4)
O24_3 O 0.67282(14) 0.79856(10) 0.6315(3)
O25_5 O 0.72890(16) 0.82298(11) 0.5772(4)
O27_3 O 0.79218(18) 0.93092(13) 0.9708(3)
N21_5 N 0.68195(17) 0.89596(12) 0.5698(4)
N22_5 N 0.67931(17) 0.86325(12) 0.5708(4)
C67_5 C 0.66911(24) 0.89977(17) 0.4779(5)
H60_5 H 0.6678 0.9201 0.4573
C68_5 C 0.65805(26) 0.86937(19) 0.4178(5)
H61_5 H 0.6481 0.8648 0.3491
C69_5 C 0.66460(24) 0.84719(17) 0.4787(5)
H62_5 H 0.6596 0.8240 0.4590
N23_3 N 0.70480(16) 0.83010(12) 0.8214(4)
N24_3 N 0.71681(17) 0.85112(12) 0.9095(4)
C70_3 C 0.70766(21) 0.80095(15) 0.8400(5)
H63_3 H 0.7012 0.7819 0.7919
C71_3 C 0.72137(22) 0.80285(16) 0.9390(5)
H64_3 H 0.7262 0.7860 0.9718
C72_3 C 0.72659(22) 0.83445(16) 0.9797(5)
N25_3 N 0.72101(17) 0.94271(12) 0.9085(4)
N26_3 N 0.70480(17) 0.94996(12) 0.8282(4)
C73_3 C 0.73002(22) 0.96793(15) 0.9817(5)
C74_3 C 0.71979(23) 0.99205(16) 0.9500(5)
C75_3 C 0.70402(21) 0.97966(15) 0.8538(5)
H68_3 H 0.6941 0.9905 0.8114
C82_5 C 0.73523(21) 0.72058(15) 0.3983(4)
C83_5 C 0.70578(19) 0.72692(14) 0.4326(4)
C84_5 C 0.71448(19) 0.75775(14) 0.4883(4)
H75_5 H 0.7386 0.7739 0.5060
C85_5 C 0.68774(20) 0.76483(14) 0.5179(4)
C86_5 C 0.65273(20) 0.74159(14) 0.4887(4)
H76_5 H 0.6346 0.7466 0.5085
C87_5 C 0.64376(21) 0.71097(15) 0.4310(5)
C88_5 C 0.67068(21) 0.70360(15) 0.4051(4)
H77_5 H 0.6649 0.6823 0.3682
C89_5 C 0.69765(20) 0.79798(14) 0.5794(5)
C90_5 C 0.60613(28) 0.6866(2) 0.3957(6)
H78_3 H 0.6058 0.6818 0.3203
H79_5 H 0.5918 0.6979 0.4092
H80_3 H 0.5961 0.6641 0.4346
Cu17_3 Cu 0.771142(16) 0.696032(23) 0.30511(5)
Cu21_2 Cu 0.613122(23) 0.768924(16) 0.75315(5)
O30_3 O 0.68891(10) 0.96214(10) 0.6269(3)
O33_3 O 0.74624(11) 0.97974(11) 0.6077(4)
Cu1_3 Cu 0.741777(16) 0.104476(16) 0.02823(5)
Cu2_4 Cu 0.820541(16) 0.179356(16) 0.02753(5)
Cu3_3 Cu 0.768924(16) 0.155803(16) 0.24685(5)
Cu4_5 Cu 0.68574(2) 0.302310(19) 0.46219(5)
Cu5_4 Cu 0.69147(2) 0.30728(2) 0.70830(5)
O1_4 O 0.77267(9) 0.15207(9) 0.0912(3)
H1_4 H 0.7610 0.1656 0.0650
O2_7 O 0.6666 0.3334 0.4333(4)
H2_7 H 0.6666 0.3334 0.3547
O3_6 O 0.6666 0.3334 0.7339(5)
H3_6 H 0.6666 0.3334 0.8125
O8_5 O 0.76035(11) 0.16743(10) 0.3896(3)
O9_4 O 0.73574(13) 0.19459(13) 0.3042(3)
O10_4 O 0.71739(19) 0.28224(18) 0.6713(4)
O11_5 O 0.7039(2) 0.27096(17) 0.5043(4)
N3_4 N 0.83656(12) 0.20803(11) 0.1548(4)
N4_4 N 0.81554(12) 0.19902(12) 0.2429(4)
C4_4 C 0.86571(15) 0.24004(14) 0.1734(5)
H7_4 H 0.8847 0.2526 0.1253
C5_4 C 0.86381(16) 0.25185(15) 0.2724(5)
H8_4 H 0.8806 0.2735 0.3052
C6_4 C 0.83221(16) 0.22547(15) 0.3131(5)
H9_5 H 0.8234 0.2259 0.3812
N5_4 N 0.72395(12) 0.11163(12) 0.2419(4)
N6_4 N 0.71670(12) 0.08817(12) 0.1616(4)
C7_4 C 0.69873(15) 0.09542(16) 0.3151(5)
H10_5 H 0.6975 0.1060 0.3794
C8_4 C 0.67461(16) 0.06107(17) 0.2834(5)
H11_4 H 0.6541 0.0438 0.3200
C9_4 C 0.68700(15) 0.05769(15) 0.1872(5)
H12_4 H 0.6761 0.0369 0.1448
N7_5 N 0.73789(13) 0.37605(17) 0.4552(4)
N8_5 N 0.73291(14) 0.34251(19) 0.4525(4)
C10_5 C 0.77303(19) 0.3992(3) 0.4497(6)
H13_5 H 0.7836 0.4244 0.4509
C11_5 C 0.7912(2) 0.3814(4) 0.4421(6)
H14_5 H 0.8162 0.3913 0.4363
C12_5 C 0.7652(2) 0.3453(4) 0.4446(6)
H15_5 H 0.7696 0.3260 0.4413
N9_4 N 0.64799(18) 0.26396(14) 0.7186(4)
N10_4 N 0.61723(18) 0.26373(14) 0.7127(4)
C13_4 C 0.6406(3) 0.2299(2) 0.7258(6)
H16_4 H 0.6579 0.2226 0.7316
C14_4 C 0.6054(3) 0.2078(2) 0.7238(6)
H17_4 H 0.5932 0.1825 0.7273
C15_4 C 0.5905(3) 0.2291(2) 0.7155(6)
H18_4 H 0.5657 0.2211 0.7123
C25_5 C 0.71455(19) 0.26586(18) 0.5880(5)
C26_5 C 0.72776(19) 0.23979(18) 0.5869(5)
C27_5 C 0.73066(16) 0.22586(16) 0.4918(4)
H25_5 H 0.7246 0.2330 0.4280
C28_5 C 0.74245(16) 0.20141(15) 0.4905(4)
C29_5 C 0.75091(17) 0.19072(16) 0.5842(5)
H26_5 H 0.7589 0.1740 0.5823
C30_4 C 0.7477(2) 0.20414(19) 0.6808(5)
C31_4 C 0.7363(2) 0.22904(19) 0.6807(5)
H27_4 H 0.7344 0.2389 0.7454
C32_5 C 0.74620(16) 0.18682(15) 0.3865(5)
C33_4 C 0.7563(3) 0.1917(3) 0.7827(6)
H28_4 H 0.7396 0.1662 0.7923
H29_4 H 0.7540 0.2050 0.8419
H30_4 H 0.7807 0.1960 0.7798
Cu6_3 Cu 0.895524(16) 0.637302(23) 0.02823(5)
Cu7_4 Cu 0.820644(16) 0.641186(23) 0.02753(5)
Cu8_3 Cu 0.844197(16) 0.613122(23) 0.24685(5)
Cu9_5 Cu 0.697690(19) 0.383434(28) 0.46219(5)
Cu10_4 Cu 0.69272(2) 0.38420(3) 0.70830(5)
O12_4 O 0.84793(9) 0.62061(13) 0.0912(3)
H31_4 H 0.8344 0.5955 0.0650
O17_5 O 0.83257(10) 0.59293(15) 0.3896(3)
O18_4 O 0.80541(13) 0.54116(18) 0.3042(3)
O19_4 O 0.71776(18) 0.43516(26) 0.6713(4)
O20_5 O 0.72904(17) 0.43298(26) 0.5043(4)
N13_4 N 0.79197(11) 0.62854(16) 0.1548(4)
N14_4 N 0.80098(12) 0.61653(17) 0.2429(4)
C37_4 C 0.75996(14) 0.62568(21) 0.1734(5)
H35_4 H 0.7474 0.6322 0.1253
C38_4 C 0.74815(15) 0.61197(22) 0.2724(5)
H36_4 H 0.7265 0.6072 0.3052
C39_4 C 0.77453(15) 0.60675(22) 0.3131(5)
H37_5 H 0.7741 0.5976 0.3812
N15_4 N 0.88837(12) 0.61233(17) 0.2419(4)
N16_4 N 0.91183(12) 0.62854(17) 0.1616(4)
C40_4 C 0.90458(16) 0.60332(22) 0.3151(5)
H38_5 H 0.8940 0.5916 0.3794
C41_4 C 0.93893(17) 0.61355(23) 0.2834(5)
H39_4 H 0.9562 0.6104 0.3200
C42_4 C 0.94231(15) 0.62932(21) 0.1872(5)
H40_4 H 0.9631 0.6393 0.1448
N17_3 N 0.62395(17) 0.36185(21) 0.4552(4)
N18_3 N 0.65749(19) 0.39041(24) 0.4525(4)
C43_3 C 0.6008(3) 0.37387(36) 0.4497(6)
H41_3 H 0.5756 0.3593 0.4509
C44_3 C 0.6186(4) 0.4099(4) 0.4421(6)
H42_3 H 0.6087 0.4250 0.4363
C45_3 C 0.6547(4) 0.4200(4) 0.4446(6)
H43_5 H 0.6740 0.4437 0.4413
N19_4 N 0.73604(14) 0.38404(23) 0.7186(4)
N20_4 N 0.73627(14) 0.35351(23) 0.7127(4)
C46_4 C 0.7701(2) 0.4108(4) 0.7258(6)
H44_4 H 0.7774 0.4354 0.7316
C47_4 C 0.7922(2) 0.3977(4) 0.7238(6)
H45_4 H 0.8175 0.4108 0.7273
C48_4 C 0.7709(2) 0.3615(4) 0.7155(6)
H46_4 H 0.7789 0.3447 0.7123
C58_5 C 0.73414(18) 0.44870(26) 0.5880(5)
C59_5 C 0.76021(18) 0.48798(26) 0.5869(5)
C60_5 C 0.77414(16) 0.50481(23) 0.4918(4)
H53_5 H 0.7670 0.4917 0.4280
C61_5 C 0.79859(15) 0.54105(22) 0.4905(4)
C62_5 C 0.80928(16) 0.56020(23) 0.5842(5)
H54_5 H 0.8260 0.5850 0.5823
C63_4 C 0.79586(19) 0.54360(28) 0.6808(5)
C64_4 C 0.77096(19) 0.50730(28) 0.6807(5)
H55_4 H 0.7611 0.4956 0.7454
C65_5 C 0.81318(15) 0.55939(22) 0.3865(5)
C66_4 C 0.8083(3) 0.5647(4) 0.7827(6)
H56_4 H 0.8338 0.5735 0.7923
H57_4 H 0.7950 0.5491 0.8419
H58_4 H 0.8040 0.5848 0.7798
Cu11_3 Cu 0.362698(23) 0.258223(16) 0.02823(5)
Cu12_4 Cu 0.358814(23) 0.179459(16) 0.02753(5)
Cu13_3 Cu 0.386878(23) 0.231076(16) 0.24685(5)
Cu14_5 Cu 0.616566(28) 0.31426(2) 0.46219(5)
Cu15_4 Cu 0.61580(3) 0.30853(2) 0.70830(5)
O21_4 O 0.37939(13) 0.22733(9) 0.0912(3)
H59_4 H 0.4045 0.2390 0.0650
O26_5 O 0.40707(15) 0.23965(11) 0.3896(3)
O27_4 O 0.45884(18) 0.26426(13) 0.3042(3)
O28_4 O 0.56484(26) 0.28261(19) 0.6713(4)
O29_5 O 0.56702(26) 0.2961(2) 0.5043(4)
N23_4 N 0.37146(16) 0.16344(12) 0.1548(4)
N24_4 N 0.38347(17) 0.18446(12) 0.2429(4)
C70_4 C 0.37432(21) 0.13429(15) 0.1734(5)
H63_4 H 0.3678 0.1153 0.1253
C71_4 C 0.38803(22) 0.13619(16) 0.2724(5)
H64_4 H 0.3928 0.1194 0.3052
C72_4 C 0.39325(22) 0.16779(16) 0.3131(5)
H65_5 H 0.4024 0.1766 0.3812
N25_4 N 0.38767(17) 0.27605(12) 0.2419(4)
N26_4 N 0.37146(17) 0.28330(12) 0.1616(4)
C73_4 C 0.39668(22) 0.30127(15) 0.3151(5)
H66_5 H 0.4084 0.3025 0.3794
C74_4 C 0.38645(23) 0.32539(16) 0.2834(5)
H67_4 H 0.3896 0.3459 0.3200
C75_4 C 0.37068(21) 0.31300(15) 0.1872(5)
H68_4 H 0.3607 0.3239 0.1448
N27_5 N 0.63815(21) 0.26211(13) 0.4552(4)
N28_5 N 0.60959(24) 0.26709(14) 0.4525(4)
C76_5 C 0.62613(36) 0.22697(19) 0.4497(6)
H69_5 H 0.6407 0.2164 0.4509
C77_5 C 0.5901(4) 0.2088(2) 0.4421(6)
H70_5 H 0.5750 0.1838 0.4363
C78_5 C 0.5800(4) 0.2348(2) 0.4446(6)
H71_5 H 0.5563 0.2304 0.4413
N29_2 N 0.61596(23) 0.35201(18) 0.7186(4)
N30_2 N 0.64649(23) 0.38277(18) 0.7127(4)
C79_2 C 0.5892(4) 0.3594(3) 0.7258(6)
H72_2 H 0.5646 0.3421 0.7316
C80_2 C 0.6023(4) 0.3946(3) 0.7238(6)
H73_2 H 0.5892 0.4068 0.7273
C81_2 C 0.6385(4) 0.4095(3) 0.7155(6)
H74_2 H 0.6553 0.4343 0.7123
C91_5 C 0.55130(26) 0.28545(19) 0.5880(5)
C92_5 C 0.51202(26) 0.27224(19) 0.5869(5)
C93_5 C 0.49519(23) 0.26934(16) 0.4918(4)
H81_5 H 0.5083 0.2754 0.4280
C94_5 C 0.45895(22) 0.25755(16) 0.4905(4)
C95_5 C 0.43980(23) 0.24909(17) 0.5842(5)
H82_5 H 0.4150 0.2411 0.5823
C96_4 C 0.45640(28) 0.2523(2) 0.6808(5)
C97_4 C 0.49270(28) 0.2637(2) 0.6807(5)
H83_4 H 0.5044 0.2656 0.7454
C98_5 C 0.44061(22) 0.25380(16) 0.3865(5)
C99_4 C 0.4353(4) 0.2437(3) 0.7827(6)
H84_4 H 0.4265 0.2604 0.7923
H85_4 H 0.4509 0.2460 0.8419
H86_4 H 0.4152 0.2193 0.7798
Cu19_3 Cu 0.897742(16) 0.177531(16) 0.08649(5)
Cu20_3 Cu 0.822469(16) 0.720212(23) 0.08649(5)
Cu21_3 Cu 0.279788(23) 0.102258(16) 0.08649(5)
O36_3 O 0.79856(10) 0.12575(10) 0.3685(3)
O37_3 O 0.87425(10) 0.67282(14) 0.3685(3)
O38_3 O 0.32718(14) 0.20144(10) 0.3685(3)
H22_5 H 0.3485 0.4094 0.0130
H11_5 H 0.0125 0.2896 0.0134
Cu12_5 Cu 0.307852(23) 0.153875(16) 0.30581(5)
O21_5 O 0.28727(13) 0.10601(9) 0.2422(3)
H59_5 H 0.2621 0.0944 0.2684
O25_6 O 0.27110(16) 0.17702(11) 0.4228(4)
O27_5 O 0.20782(18) 0.06908(13) 0.0292(3)
N21_6 N 0.31805(17) 0.10404(12) 0.4302(4)
N22_6 N 0.32069(17) 0.13675(12) 0.4292(4)
C67_6 C 0.33089(24) 0.10023(17) 0.5221(5)
H60_6 H 0.3322 0.0799 0.5427
C68_6 C 0.34195(26) 0.13063(19) 0.5822(5)
H61_6 H 0.3519 0.1352 0.6509
C69_6 C 0.33540(24) 0.15281(17) 0.5213(5)
H62_6 H 0.3404 0.1760 0.5410
N23_5 N 0.29520(16) 0.16990(12) 0.1786(4)
N24_5 N 0.28319(17) 0.14888(12) 0.0905(4)
C70_5 C 0.29234(21) 0.19905(15) 0.1600(5)
H63_5 H 0.2988 0.2181 0.2081
C71_5 C 0.27863(22) 0.19715(16) 0.0610(5)
H64_5 H 0.2738 0.2140 0.0282
C72_5 C 0.27341(22) 0.16555(16) 0.0203(5)
N25_5 N 0.27899(17) 0.05729(12) 0.0915(4)
N26_5 N 0.29520(17) 0.05004(12) 0.1718(4)
C73_5 C 0.26998(22) 0.03207(15) 0.0183(5)
C74_5 C 0.28021(23) 0.00795(16) 0.0500(5)
C75_5 C 0.29598(21) 0.02034(15) 0.1462(5)
H68_5 H 0.3059 0.0095 0.1886
C82_6 C 0.26477(21) 0.27942(15) 0.6017(4)
C83_6 C 0.29422(19) 0.27308(14) 0.5674(4)
C84_6 C 0.28552(19) 0.24225(14) 0.5117(4)
H75_6 H 0.2614 0.2261 0.4940
C85_6 C 0.31226(20) 0.23517(14) 0.4821(4)
C86_6 C 0.34727(20) 0.25841(14) 0.5113(4)
H76_6 H 0.3654 0.2534 0.4915
C87_6 C 0.35624(21) 0.28903(15) 0.5690(5)
C88_6 C 0.32932(21) 0.29640(15) 0.5949(4)
H77_6 H 0.3351 0.3177 0.6318
C89_6 C 0.30235(20) 0.20202(14) 0.4206(5)
C90_6 C 0.39387(28) 0.3134(2) 0.6043(6)
H78_4 H 0.3942 0.3182 0.6797
H79_6 H 0.4082 0.3021 0.5908
H80_4 H 0.4039 0.3359 0.5654
C49_6 C 0.01464(14) 0.73523(21) 0.6017(4)
H67_5 H 0.2770 0.9875 0.0134
Cu2_5 Cu 0.846125(16) 0.153978(16) 0.30581(5)
O1_5 O 0.89399(9) 0.18127(9) 0.2422(3)
H1_5 H 0.9056 0.1678 0.2684
O7_6 O 0.82298(11) 0.09409(11) 0.4228(4)
O9_5 O 0.93092(13) 0.13875(13) 0.0292(3)
N1_6 N 0.89596(12) 0.21402(12) 0.4302(4)
N2_6 N 0.86325(12) 0.18395(12) 0.4292(4)
C1_6 C 0.89977(17) 0.23067(17) 0.5221(5)
H4_6 H 0.9201 0.2524 0.5427
C2_6 C 0.86937(19) 0.21133(18) 0.5822(5)
H5_6 H 0.8648 0.2168 0.6509
C3_6 C 0.84719(17) 0.18260(17) 0.5213(5)
H6_6 H 0.8240 0.1645 0.5410
N3_5 N 0.83010(12) 0.12531(11) 0.1786(4)
N4_5 N 0.85112(12) 0.13432(12) 0.0905(4)
C4_5 C 0.80095(15) 0.09330(14) 0.1600(5)
H7_5 H 0.7819 0.0808 0.2081
C5_5 C 0.80285(16) 0.08149(15) 0.0610(5)
H8_5 H 0.7860 0.0599 0.0282
C6_5 C 0.83445(16) 0.10787(15) 0.0203(5)
N5_5 N 0.94271(12) 0.22171(12) 0.0915(4)
N6_5 N 0.94996(12) 0.24517(12) 0.1718(4)
C7_5 C 0.96793(15) 0.23792(16) 0.0183(5)
C8_5 C 0.99205(16) 0.27227(17) 0.0500(5)
C9_5 C 0.97966(15) 0.27565(15) 0.1462(5)
H12_5 H 0.9905 0.2965 0.1886
C17_6 C 0.72692(14) 0.02115(13) 0.5674(4)
C18_6 C 0.75775(14) 0.04328(13) 0.5117(4)
H19_6 H 0.7739 0.0354 0.4940
C19_6 C 0.76483(14) 0.07710(14) 0.4821(4)
C20_6 C 0.74159(14) 0.08887(14) 0.5113(4)
H20_6 H 0.7466 0.1121 0.4915
C21_6 C 0.71097(15) 0.06722(15) 0.5690(5)
C22_6 C 0.70360(15) 0.03293(14) 0.5949(4)
H21_6 H 0.6823 0.0175 0.6318
C23_6 C 0.79798(14) 0.10034(14) 0.4206(5)
C24_6 C 0.6866(2) 0.08051(19) 0.6043(6)
H22_6 H 0.6818 0.0761 0.6797
H23_6 H 0.6979 0.1062 0.5908
H24_4 H 0.6641 0.0681 0.5654
C16_6 C 0.72058(15) 0.98536(14) 0.6017(4)
Cu7_5 Cu 0.846022(16) 0.692148(23) 0.30581(5)
O12_5 O 0.81873(9) 0.71273(13) 0.2422(3)
H31_5 H 0.8322 0.7379 0.2684
O16_6 O 0.90591(11) 0.72890(16) 0.4228(4)
O18_5 O 0.86125(13) 0.79218(18) 0.0292(3)
N11_6 N 0.78598(12) 0.68195(17) 0.4302(4)
N12_6 N 0.81605(12) 0.67931(17) 0.4292(4)
C34_6 C 0.76933(17) 0.66911(24) 0.5221(5)
H32_6 H 0.7476 0.6678 0.5427
C35_6 C 0.78867(18) 0.65805(26) 0.5822(5)
H33_6 H 0.7832 0.6481 0.6509
C36_6 C 0.81740(17) 0.66460(24) 0.5213(5)
H34_6 H 0.8355 0.6596 0.5410
N13_5 N 0.87469(11) 0.70480(16) 0.1786(4)
N14_5 N 0.86568(12) 0.71681(17) 0.0905(4)
C37_5 C 0.90670(14) 0.70766(21) 0.1600(5)
H35_5 H 0.9192 0.7012 0.2081
C38_5 C 0.91851(15) 0.72137(22) 0.0610(5)
H36_5 H 0.9401 0.7262 0.0282
C39_5 C 0.89213(15) 0.72659(22) 0.0203(5)
N15_5 N 0.77829(12) 0.72101(17) 0.0915(4)
N16_5 N 0.75483(12) 0.70480(17) 0.1718(4)
C40_5 C 0.76208(16) 0.73002(22) 0.0183(5)
C41_5 C 0.72773(17) 0.71979(23) 0.0500(5)
H39_5 H 0.7104 0.7230 0.0134
C42_5 C 0.72435(15) 0.70402(21) 0.1462(5)
H40_5 H 0.7035 0.6941 0.1886
C50_6 C 0.97885(13) 0.70578(19) 0.5674(4)
C51_6 C 0.95672(13) 0.71448(19) 0.5117(4)
H47_6 H 0.9646 0.7386 0.4940
C52_6 C 0.92290(14) 0.68774(20) 0.4821(4)
C53_6 C 0.91113(14) 0.65273(20) 0.5113(4)
H48_6 H 0.8879 0.6346 0.4915
C54_6 C 0.93278(15) 0.64376(21) 0.5690(5)
C55_6 C 0.96707(14) 0.67068(21) 0.5949(4)
H49_6 H 0.9825 0.6649 0.6318
C56_6 C 0.89966(14) 0.69765(20) 0.4206(5)
C57_6 C 0.91949(19) 0.60613(28) 0.6043(6)
H50_5 H 0.9239 0.6058 0.6797
H51_6 H 0.8938 0.5918 0.5908
H52_6 H 0.9319 0.5961 0.5654
Cu2_6 Cu 0.179459(16) 0.820644(16) 0.97247(5)
Cu4_6 Cu 0.31426(2) 0.697690(19) 0.53781(5)
Cu5_5 Cu 0.30853(2) 0.69272(2) 0.29170(5)
O1_6 O 0.22733(9) 0.84793(9) 0.9088(3)
H1_6 H 0.2390 0.8344 0.9350
O2_8 O 0.3334 0.6666 0.5667(4)
H2_8 H 0.3334 0.6666 0.6453
O3_7 O 0.3334 0.6666 0.2661(5)
H3_7 H 0.3334 0.6666 0.1875
O8_6 O 0.23965(11) 0.83257(10) 0.6104(3)
O9_6 O 0.26426(13) 0.80541(13) 0.6958(3)
O10_5 O 0.28261(19) 0.71776(18) 0.3287(4)
O11_6 O 0.2961(2) 0.72904(17) 0.4957(4)
N3_6 N 0.16344(12) 0.79197(11) 0.8452(4)
N4_6 N 0.18446(12) 0.80098(12) 0.7571(4)
C4_6 C 0.13429(15) 0.75996(14) 0.8266(5)
H7_6 H 0.1153 0.7474 0.8747
C5_6 C 0.13619(16) 0.74815(15) 0.7276(5)
H8_6 H 0.1194 0.7265 0.6948
C6_6 C 0.16779(16) 0.77453(15) 0.6869(5)
H9_6 H 0.1766 0.7741 0.6188
N5_6 N 0.27605(12) 0.88837(12) 0.7581(4)
N6_6 N 0.28330(12) 0.91183(12) 0.8384(4)
C7_6 C 0.30127(15) 0.90458(16) 0.6849(5)
H10_6 H 0.3025 0.8940 0.6206
C8_6 C 0.32539(16) 0.93893(17) 0.7166(5)
H11_6 H 0.3459 0.9562 0.6800
C9_6 C 0.31300(15) 0.94231(15) 0.8128(5)
H12_6 H 0.3239 0.9631 0.8552
N7_6 N 0.26211(13) 0.62395(17) 0.5448(4)
N8_6 N 0.26709(14) 0.65749(19) 0.5475(4)
C10_6 C 0.22697(19) 0.6008(3) 0.5503(6)
H13_6 H 0.2164 0.5756 0.5491
C11_6 C 0.2088(2) 0.6186(4) 0.5579(6)
H14_6 H 0.1838 0.6087 0.5637
C12_6 C 0.2348(2) 0.6547(4) 0.5554(6)
H15_6 H 0.2304 0.6740 0.5587
N9_5 N 0.35201(18) 0.73604(14) 0.2814(4)
N10_5 N 0.38277(18) 0.73627(14) 0.2873(4)
C13_5 C 0.3594(3) 0.7701(2) 0.2742(6)
H16_5 H 0.3421 0.7774 0.2684
C14_5 C 0.3946(3) 0.7922(2) 0.2762(6)
H17_5 H 0.4068 0.8175 0.2727
C15_5 C 0.4095(3) 0.7709(2) 0.2845(6)
H18_5 H 0.4343 0.7789 0.2877
C25_6 C 0.28545(19) 0.73414(18) 0.4120(5)
C26_6 C 0.27224(19) 0.76021(18) 0.4131(5)
C27_6 C 0.26934(16) 0.77414(16) 0.5082(4)
H25_6 H 0.2754 0.7670 0.5720
C28_6 C 0.25755(16) 0.79859(15) 0.5095(4)
C29_6 C 0.24909(17) 0.80928(16) 0.4158(5)
H26_6 H 0.2411 0.8260 0.4177
C30_5 C 0.2523(2) 0.79586(19) 0.3192(5)
C31_5 C 0.2637(2) 0.77096(19) 0.3193(5)
H27_5 H 0.2656 0.7611 0.2546
C32_6 C 0.25380(16) 0.81318(15) 0.6135(5)
C33_5 C 0.2437(3) 0.8083(3) 0.2173(6)
H28_5 H 0.2604 0.8338 0.2077
H29_5 H 0.2460 0.7950 0.1581
H30_5 H 0.2193 0.8040 0.2202
Cu7_6 Cu 0.179356(16) 0.358814(23) 0.97247(5)
Cu9_6 Cu 0.302310(19) 0.616566(28) 0.53781(5)
Cu10_5 Cu 0.30728(2) 0.61580(3) 0.29170(5)
O12_6 O 0.15207(9) 0.37939(13) 0.9088(3)
H31_6 H 0.1656 0.4045 0.9350
O17_6 O 0.16743(10) 0.40707(15) 0.6104(3)
O18_6 O 0.19459(13) 0.45884(18) 0.6958(3)
O19_5 O 0.28224(18) 0.56484(26) 0.3287(4)
O20_6 O 0.27096(17) 0.56702(26) 0.4957(4)
N13_6 N 0.20803(11) 0.37146(16) 0.8452(4)
N14_6 N 0.19902(12) 0.38347(17) 0.7571(4)
C37_6 C 0.24004(14) 0.37432(21) 0.8266(5)
H35_6 H 0.2526 0.3678 0.8747
C38_6 C 0.25185(15) 0.38803(22) 0.7276(5)
H36_6 H 0.2735 0.3928 0.6948
C39_6 C 0.22547(15) 0.39325(22) 0.6869(5)
H37_6 H 0.2259 0.4024 0.6188
N15_6 N 0.11163(12) 0.38767(17) 0.7581(4)
N16_6 N 0.08817(12) 0.37146(17) 0.8384(4)
C40_6 C 0.09542(16) 0.39668(22) 0.6849(5)
H38_6 H 0.1060 0.4084 0.6206
C41_6 C 0.06107(17) 0.38645(23) 0.7166(5)
H39_6 H 0.0438 0.3896 0.6800
C42_6 C 0.05769(15) 0.37068(21) 0.8128(5)
H40_6 H 0.0369 0.3607 0.8552
N17_4 N 0.37605(17) 0.63815(21) 0.5448(4)
N18_4 N 0.34251(19) 0.60959(24) 0.5475(4)
C43_4 C 0.3992(3) 0.62613(36) 0.5503(6)
H41_4 H 0.4244 0.6407 0.5491
C44_4 C 0.3814(4) 0.5901(4) 0.5579(6)
H42_4 H 0.3913 0.5750 0.5637
C45_4 C 0.3453(4) 0.5800(4) 0.5554(6)
H43_6 H 0.3260 0.5563 0.5587
N19_5 N 0.26396(14) 0.61596(23) 0.2814(4)
N20_5 N 0.26373(14) 0.64649(23) 0.2873(4)
C46_5 C 0.2299(2) 0.5892(4) 0.2742(6)
H44_5 H 0.2226 0.5646 0.2684
C47_5 C 0.2078(2) 0.6023(4) 0.2762(6)
H45_5 H 0.1825 0.5892 0.2727
C48_5 C 0.2291(2) 0.6385(4) 0.2845(6)
H46_5 H 0.2211 0.6553 0.2877
C58_6 C 0.26586(18) 0.55130(26) 0.4120(5)
C59_6 C 0.23979(18) 0.51202(26) 0.4131(5)
C60_6 C 0.22586(16) 0.49519(23) 0.5082(4)
H53_6 H 0.2330 0.5083 0.5720
C61_6 C 0.20141(15) 0.45895(22) 0.5095(4)
C62_6 C 0.19072(16) 0.43980(23) 0.4158(5)
H54_6 H 0.1740 0.4150 0.4177
C63_5 C 0.20414(19) 0.45640(28) 0.3192(5)
C64_5 C 0.22904(19) 0.49270(28) 0.3193(5)
H55_5 H 0.2389 0.5044 0.2546
C65_6 C 0.18682(15) 0.44061(22) 0.6135(5)
C66_5 C 0.1917(3) 0.4353(4) 0.2173(6)
H56_5 H 0.1662 0.4265 0.2077
H57_5 H 0.2050 0.4509 0.1581
H58_5 H 0.1960 0.4152 0.2202
Cu12_6 Cu 0.641186(23) 0.820541(16) 0.97247(5)
Cu14_6 Cu 0.383434(28) 0.68574(2) 0.53781(5)
Cu15_5 Cu 0.38420(3) 0.69147(2) 0.29170(5)
O21_6 O 0.62061(13) 0.77267(9) 0.9088(3)
H59_6 H 0.5955 0.7610 0.9350
O26_6 O 0.59293(15) 0.76035(11) 0.6104(3)
O27_6 O 0.54116(18) 0.73574(13) 0.6958(3)
O28_5 O 0.43516(26) 0.71739(19) 0.3287(4)
O29_6 O 0.43298(26) 0.7039(2) 0.4957(4)
N23_6 N 0.62854(16) 0.83656(12) 0.8452(4)
N24_6 N 0.61653(17) 0.81554(12) 0.7571(4)
C70_6 C 0.62568(21) 0.86571(15) 0.8266(5)
H63_6 H 0.6322 0.8847 0.8747
C71_6 C 0.61197(22) 0.86381(16) 0.7276(5)
H64_6 H 0.6072 0.8806 0.6948
C72_6 C 0.60675(22) 0.83221(16) 0.6869(5)
H65_6 H 0.5976 0.8234 0.6188
N25_6 N 0.61233(17) 0.72395(12) 0.7581(4)
N26_6 N 0.62854(17) 0.71670(12) 0.8384(4)
C73_6 C 0.60332(22) 0.69873(15) 0.6849(5)
H66_6 H 0.5916 0.6975 0.6206
C74_6 C 0.61355(23) 0.67461(16) 0.7166(5)
H67_6 H 0.6104 0.6541 0.6800
C75_6 C 0.62932(21) 0.68700(15) 0.8128(5)
H68_6 H 0.6393 0.6761 0.8552
N27_6 N 0.36185(21) 0.73789(13) 0.5448(4)
N28_6 N 0.39041(24) 0.73291(14) 0.5475(4)
C76_6 C 0.37387(36) 0.77303(19) 0.5503(6)
H69_6 H 0.3593 0.7836 0.5491
C77_6 C 0.4099(4) 0.7912(2) 0.5579(6)
H70_6 H 0.4250 0.8162 0.5637
C78_6 C 0.4200(4) 0.7652(2) 0.5554(6)
H71_6 H 0.4437 0.7696 0.5587
N29_3 N 0.38404(23) 0.64799(18) 0.2814(4)
N30_3 N 0.35351(23) 0.61723(18) 0.2873(4)
C79_3 C 0.4108(4) 0.6406(3) 0.2742(6)
H72_3 H 0.4354 0.6579 0.2684
C80_3 C 0.3977(4) 0.6054(3) 0.2762(6)
H73_3 H 0.4108 0.5932 0.2727
C81_3 C 0.3615(4) 0.5905(3) 0.2845(6)
H74_3 H 0.3447 0.5657 0.2877
C91_6 C 0.44870(26) 0.71455(19) 0.4120(5)
C92_6 C 0.48798(26) 0.72776(19) 0.4131(5)
C93_6 C 0.50481(23) 0.73066(16) 0.5082(4)
H81_6 H 0.4917 0.7246 0.5720
C94_6 C 0.54105(22) 0.74245(16) 0.5095(4)
C95_6 C 0.56020(23) 0.75091(17) 0.4158(5)
H82_6 H 0.5850 0.7589 0.4177
C96_5 C 0.54360(28) 0.7477(2) 0.3192(5)
C97_5 C 0.50730(28) 0.7363(2) 0.3193(5)
H83_5 H 0.4956 0.7344 0.2546
C98_6 C 0.55939(22) 0.74620(16) 0.6135(5)
C99_5 C 0.5647(4) 0.7563(3) 0.2173(6)
H84_5 H 0.5735 0.7396 0.2077
H85_5 H 0.5491 0.7540 0.1581
H86_5 H 0.5848 0.7807 0.2202
H78_5 H 0.9391 0.3485 0.9870
O2_9 O 1.0000 0.0000 0.0999(4)
H2_9 H 1.0000 0.0000 0.0213
O3_8 O 1.0000 0.0000 0.4005(5)
H3_8 H 1.0000 0.0000 0.4791
N17_5 N 0.95729(17) 0.02851(21) 0.1218(4)
N18_5 N 0.99083(19) 0.05707(24) 0.1191(4)
C43_5 C 0.9342(3) 0.04053(36) 0.1163(6)
H41_5 H 0.9090 0.0259 0.1175
C44_5 C 0.9520(4) 0.0765(4) 0.1087(6)
H42_5 H 0.9421 0.0916 0.1029
C45_5 C 0.9881(4) 0.0866(4) 0.1112(6)
N29_4 N 0.94930(23) 0.01867(18) 0.3852(4)
N30_4 N 0.97983(23) 0.04943(18) 0.3793(4)
C79_4 C 0.9226(4) 0.0260(3) 0.3924(6)
H72_4 H 0.8980 0.0087 0.3982
C80_4 C 0.9357(4) 0.0612(3) 0.3904(6)
H73_4 H 0.9226 0.0734 0.3939
C81_4 C 0.9719(4) 0.0761(3) 0.3821(6)
H74_4 H 0.9887 0.1009 0.3789
H24_5 H 0.0025 0.2653 0.7680
H80_5 H 0.2627 0.9975 0.7680
H78_6 H 0.0609 0.6515 0.0130
Cu5_6 Cu 0.64186(2) 0.35939(2) 0.95837(5)
O3_9 O 0.6667 0.3333 0.9328(5)
H3_9 H 0.6667 0.3333 0.8542
O10_6 O 0.61594(19) 0.38443(18) 0.9954(4)
N9_6 N 0.68534(18) 0.40271(14) 0.9481(4)
N10_6 N 0.71610(18) 0.40294(14) 0.9540(4)
C13_6 C 0.6927(3) 0.4368(2) 0.9409(6)
H16_6 H 0.6754 0.4441 0.9351
C14_6 C 0.7279(3) 0.4589(2) 0.9429(6)
H17_6 H 0.7401 0.4842 0.9394
C15_6 C 0.7428(3) 0.4376(2) 0.9512(6)
H18_6 H 0.7676 0.4456 0.9544
C30_6 C 0.5856(2) 0.46253(19) 0.9859(5)
C31_6 C 0.5970(2) 0.43763(19) 0.9860(5)
H27_6 H 0.5989 0.4278 0.9213
C33_6 C 0.5770(3) 0.4750(3) 0.8840(6)
H28_6 H 0.5937 0.5005 0.8744
H29_6 H 0.5793 0.4617 0.8248
H30_6 H 0.5526 0.4707 0.8869
Cu10_6 Cu 0.64061(2) 0.28247(3) 0.95837(5)
O19_6 O 0.61557(18) 0.23151(26) 0.9954(4)
N19_6 N 0.59729(14) 0.28263(23) 0.9481(4)
N20_6 N 0.59706(14) 0.31316(23) 0.9540(4)
C46_6 C 0.5632(2) 0.2559(4) 0.9409(6)
H44_6 H 0.5559 0.2313 0.9351
C47_6 C 0.5411(2) 0.2690(4) 0.9429(6)
H45_6 H 0.5158 0.2559 0.9394
C48_6 C 0.5624(2) 0.3052(4) 0.9512(6)
H46_6 H 0.5544 0.3220 0.9544
C63_6 C 0.53747(19) 0.12307(28) 0.9859(5)
C64_6 C 0.56237(19) 0.15937(28) 0.9860(5)
H55_6 H 0.5722 0.1711 0.9213
C66_6 C 0.5250(3) 0.1020(4) 0.8840(6)
H56_6 H 0.4995 0.0932 0.8744
H57_6 H 0.5383 0.1176 0.8248
H58_6 H 0.5293 0.0819 0.8869
Cu15_6 Cu 0.71753(3) 0.35814(2) 0.95837(5)
O28_6 O 0.76849(26) 0.38406(19) 0.9954(4)
N29_5 N 0.71737(23) 0.31466(18) 0.9481(4)
N30_5 N 0.68684(23) 0.28390(18) 0.9540(4)
C79_5 C 0.7441(4) 0.3073(3) 0.9409(6)
H72_5 H 0.7687 0.3246 0.9351
C80_5 C 0.7310(4) 0.2721(3) 0.9429(6)
H73_5 H 0.7441 0.2599 0.9394
C81_5 C 0.6948(4) 0.2572(3) 0.9512(6)
H74_5 H 0.6780 0.2324 0.9544
C96_6 C 0.87693(28) 0.4144(2) 0.9859(5)
C97_6 C 0.84063(28) 0.4030(2) 0.9860(5)
H83_6 H 0.8289 0.4011 0.9213
C99_6 C 0.8980(4) 0.4230(3) 0.8840(6)
H84_6 H 0.9068 0.4063 0.8744
H85_6 H 0.8824 0.4207 0.8248
H86_6 H 0.9181 0.4474 0.8869
H50_6 H 0.5906 0.9391 0.0130
O2_10 O 0.0000 1.0000 0.9001(4)
H2_10 H 0.0000 1.0000 0.9787
O3_10 O 0.0000 1.0000 0.5995(5)
H3_10 H 0.0000 1.0000 0.5209
N17_6 N 0.04271(17) 0.97149(21) 0.8782(4)
N18_6 N 0.00917(19) 0.94293(24) 0.8809(4)
C43_6 C 0.0658(3) 0.95947(36) 0.8837(6)
H41_6 H 0.0910 0.9741 0.8825
C44_6 C 0.0480(4) 0.9235(4) 0.8913(6)
H42_6 H 0.0579 0.9084 0.8971
C45_6 C 0.0119(4) 0.9134(4) 0.8888(6)
N29_6 N 0.05070(23) 0.98133(18) 0.6148(4)
N30_6 N 0.02017(23) 0.95057(18) 0.6207(4)
C79_6 C 0.0774(4) 0.9740(3) 0.6076(6)
H72_6 H 0.1020 0.9913 0.6018
C80_6 C 0.0643(4) 0.9388(3) 0.6096(6)
H73_6 H 0.0774 0.9266 0.6061
C81_6 C 0.0281(4) 0.9239(3) 0.6179(6)
H74_6 H 0.0113 0.8991 0.6211
H80_6 H 0.7373 0.0025 0.2320
H24_6 H 0.9975 0.7347 0.2320
H91 H 0.5133 0.6035 0.0139
C101 C 0.4980(3) 0.6544(4) 0.0326(15)
H93 H 0.5092 0.6791 0.0573
H94 H 0.4928 0.6384 0.0929
N31 N 0.52230(18) 0.65046(19) 0.9607(7)
H87 H 0.5220 0.6601 0.8966
H88 H 0.5451 0.6631 0.9869
C100 C 0.5131(4) 0.6140(3) 0.9458(12)
H89 H 0.5305 0.6130 0.8987
H90 H 0.4893 0.6007 0.9148
H92 H 0.4758 0.6482 0.9957
H91_2 H 0.3965 0.9098 0.0139
C101_2 C 0.3456(4) 0.8436(5) 0.0326(15)
H93_2 H 0.3209 0.8301 0.0573
H94_2 H 0.3616 0.8544 0.0929
N31_2 N 0.34954(19) 0.87184(26) 0.9607(7)
H87_2 H 0.3399 0.8619 0.8966
H88_2 H 0.3369 0.8820 0.9869
C100_2 C 0.3860(3) 0.8991(5) 0.9458(12)
H89_2 H 0.3870 0.9175 0.8987
H90_2 H 0.3993 0.8886 0.9148
H92_2 H 0.3518 0.8276 0.9957
H91_3 H 0.0902 0.4867 0.0139
C101_3 C 0.1564(5) 0.5020(3) 0.0326(15)
H93_3 H 0.1699 0.4908 0.0573
H94_3 H 0.1456 0.5072 0.0929
N31_3 N 0.12816(26) 0.47770(18) 0.9607(7)
H87_3 H 0.1381 0.4780 0.8966
H88_3 H 0.1180 0.4549 0.9869
C100_3 C 0.1009(5) 0.4869(4) 0.9458(12)
H89_3 H 0.0825 0.4695 0.8987
H90_3 H 0.1114 0.5107 0.9148
H92_3 H 0.1724 0.5242 0.9957
H93_4 H 0.1759 0.0124 0.3906
N31_4 N 0.18897(18) 0.98379(19) 0.2940(7)
H87_4 H 0.1887 0.9934 0.2299
H88_4 H 0.2118 0.9964 0.3202
C100_4 C 0.1798(4) 0.9473(3) 0.2791(12)
H89_4 H 0.1972 0.9463 0.2320
H90_4 H 0.1560 0.9340 0.2481
H91_4 H 0.1800 0.9368 0.3472
C101_4 C 0.1647(3) 0.9877(4) 0.3659(15)
H92_4 H 0.1425 0.9815 0.3290
H94_4 H 0.1595 0.9717 0.4262
N31_5 N 0.01621(19) 0.20517(26) 0.2940(7)
H87_5 H 0.0066 0.1952 0.2299
H88_5 H 0.0036 0.2153 0.3202
C100_5 C 0.0527(3) 0.2324(5) 0.2791(12)
H89_5 H 0.0537 0.2508 0.2320
H90_5 H 0.0660 0.2219 0.2481
H91_5 H 0.0632 0.2431 0.3472
C101_5 C 0.0123(4) 0.1769(5) 0.3659(15)
H92_5 H 0.0185 0.1609 0.3290
H94_5 H 0.0283 0.1877 0.4262
H93_5 H 0.9876 0.1634 0.3906
N31_6 N 0.79483(26) 0.81103(18) 0.2940(7)
H87_6 H 0.8048 0.8113 0.2299
H88_6 H 0.7847 0.7882 0.3202
C100_6 C 0.7676(5) 0.8202(4) 0.2791(12)
H89_6 H 0.7492 0.8028 0.2320
H90_6 H 0.7781 0.8440 0.2481
H91_6 H 0.7569 0.8200 0.3472
C101_6 C 0.8231(5) 0.8353(3) 0.3659(15)
H92_6 H 0.8391 0.8575 0.3290
H93_6 H 0.8366 0.8241 0.3906
H94_6 H 0.8123 0.8405 0.4262
N31_7 N 0.85563(18) 0.31713(19) 0.6274(7)
H87_7 H 0.8553 0.3268 0.5633
H88_7 H 0.8784 0.3298 0.6536
C100_7 C 0.8464(4) 0.2807(3) 0.6125(12)
H89_7 H 0.8638 0.2797 0.5654
H90_7 H 0.8226 0.2674 0.5815
H91_7 H 0.8466 0.2702 0.6806
C101_7 C 0.8313(3) 0.3211(4) 0.6993(15)
H92_7 H 0.8091 0.3149 0.6624
H93_7 H 0.8425 0.3458 0.7240
H94_7 H 0.8261 0.3051 0.7596
N31_8 N 0.68287(19) 0.53851(26) 0.6274(7)
H87_8 H 0.6732 0.5286 0.5633
H88_8 H 0.6702 0.5487 0.6536
C100_8 C 0.7193(3) 0.5658(5) 0.6125(12)
H89_8 H 0.7203 0.5842 0.5654
H90_8 H 0.7326 0.5553 0.5815
H91_8 H 0.7298 0.5765 0.6806
C101_8 C 0.6789(4) 0.5103(5) 0.6993(15)
H92_8 H 0.6851 0.4943 0.6624
H93_8 H 0.6542 0.4968 0.7240
H94_8 H 0.6949 0.5211 0.7596
N31_9 N 0.46149(26) 0.14437(18) 0.6274(7)
H87_9 H 0.4714 0.1447 0.5633
H88_9 H 0.4513 0.1216 0.6536
C100_9 C 0.4342(5) 0.1536(4) 0.6125(12)
H89_9 H 0.4158 0.1362 0.5654
H90_9 H 0.4447 0.1774 0.5815
H91_9 H 0.4235 0.1534 0.6806
C101_9 C 0.4897(5) 0.1687(3) 0.6993(15)
H92_9 H 0.5057 0.1909 0.6624
H93_9 H 0.5032 0.1575 0.7240
H94_9 H 0.4789 0.1739 0.7596
N31_10 N 0.47770(18) 0.34954(19) 0.0393(7)
H87_10 H 0.4780 0.3399 0.1034
H88_10 H 0.4549 0.3369 0.0131
C100_10 C 0.4869(4) 0.3860(3) 0.0542(12)
H89_10 H 0.4695 0.3870 0.1013
H90_10 H 0.5107 0.3993 0.0852
H92_10 H 0.5242 0.3518 0.0043
H91_10 H 0.4867 0.3965 0.9861
C101_10 C 0.5020(3) 0.3456(4) 0.9674(15)
H93_10 H 0.4908 0.3209 0.9427
H94_10 H 0.5072 0.3616 0.9071
N31_11 N 0.65046(19) 0.12816(26) 0.0393(7)
H87_11 H 0.6601 0.1381 0.1034
H88_11 H 0.6631 0.1180 0.0131
C100_11 C 0.6140(3) 0.1009(5) 0.0542(12)
H89_11 H 0.6130 0.0825 0.1013
H90_11 H 0.6007 0.1114 0.0852
H92_11 H 0.6482 0.1724 0.0043
H91_11 H 0.6035 0.0902 0.9861
C101_11 C 0.6544(4) 0.1564(5) 0.9674(15)
H93_11 H 0.6791 0.1699 0.9427
H94_11 H 0.6384 0.1456 0.9071
N31_12 N 0.87184(26) 0.52230(18) 0.0393(7)
H87_12 H 0.8619 0.5220 0.1034
H88_12 H 0.8820 0.5451 0.0131
C100_12 C 0.8991(5) 0.5131(4) 0.0542(12)
H89_12 H 0.9175 0.5305 0.1013
H90_12 H 0.8886 0.4893 0.0852
H92_12 H 0.8276 0.4758 0.0043
H91_12 H 0.9098 0.5133 0.9861
C101_12 C 0.8436(5) 0.4980(3) 0.9674(15)
H93_12 H 0.8301 0.5092 0.9427
H94_12 H 0.8544 0.4928 0.9071
N31_13 N 0.81103(18) 0.01621(19) 0.7060(7)
H87_13 H 0.8113 0.0066 0.7701
H88_13 H 0.7882 0.0036 0.6798
C100_13 C 0.8202(4) 0.0527(3) 0.7209(12)
H89_13 H 0.8028 0.0537 0.7680
H90_13 H 0.8440 0.0660 0.7519
H91_13 H 0.8200 0.0632 0.6528
C101_13 C 0.8353(3) 0.0123(4) 0.6341(15)
H92_13 H 0.8575 0.0185 0.6710
H94_13 H 0.8405 0.0283 0.5738
H93_13 H 0.8241 0.9876 0.6094
H93_14 H 0.0124 0.8366 0.6094
N31_14 N 0.98379(19) 0.79483(26) 0.7060(7)
H87_14 H 0.9934 0.8048 0.7701
H88_14 H 0.9964 0.7847 0.6798
C100_14 C 0.9473(3) 0.7676(5) 0.7209(12)
H89_14 H 0.9463 0.7492 0.7680
H90_14 H 0.9340 0.7781 0.7519
H91_14 H 0.9368 0.7569 0.6528
C101_14 C 0.9877(4) 0.8231(5) 0.6341(15)
H92_14 H 0.9815 0.8391 0.6710
H94_14 H 0.9717 0.8123 0.5738
N31_15 N 0.20517(26) 0.18897(18) 0.7060(7)
H87_15 H 0.1952 0.1887 0.7701
H88_15 H 0.2153 0.2118 0.6798
C100_15 C 0.2324(5) 0.1798(4) 0.7209(12)
H89_15 H 0.2508 0.1972 0.7680
H90_15 H 0.2219 0.1560 0.7519
H91_15 H 0.2431 0.1800 0.6528
C101_15 C 0.1769(5) 0.1647(3) 0.6341(15)
H92_15 H 0.1609 0.1425 0.6710
H93_15 H 0.1634 0.1759 0.6094
H94_15 H 0.1877 0.1595 0.5738
N31_16 N 0.14437(18) 0.68287(19) 0.3726(7)
H87_16 H 0.1447 0.6732 0.4367
H88_16 H 0.1216 0.6702 0.3464
C100_16 C 0.1536(4) 0.7193(3) 0.3875(12)
H89_16 H 0.1362 0.7203 0.4346
H90_16 H 0.1774 0.7326 0.4185
H91_16 H 0.1534 0.7298 0.3194
C101_16 C 0.1687(3) 0.6789(4) 0.3007(15)
H92_16 H 0.1909 0.6851 0.3376
H93_16 H 0.1575 0.6542 0.2760
H94_16 H 0.1739 0.6949 0.2404
N31_17 N 0.31713(19) 0.46149(26) 0.3726(7)
H87_17 H 0.3268 0.4714 0.4367
H88_17 H 0.3298 0.4513 0.3464
C100_17 C 0.2807(3) 0.4342(5) 0.3875(12)
H89_17 H 0.2797 0.4158 0.4346
H90_17 H 0.2674 0.4447 0.4185
H91_17 H 0.2702 0.4235 0.3194
C101_17 C 0.3211(4) 0.4897(5) 0.3007(15)
H92_17 H 0.3149 0.5057 0.3376
H93_17 H 0.3458 0.5032 0.2760
H94_17 H 0.3051 0.4789 0.2404
N31_18 N 0.53851(26) 0.85563(18) 0.3726(7)
H87_18 H 0.5286 0.8553 0.4367
H88_18 H 0.5487 0.8784 0.3464
C100_18 C 0.5658(5) 0.8464(4) 0.3875(12)
H89_18 H 0.5842 0.8638 0.4346
H90_18 H 0.5553 0.8226 0.4185
H91_18 H 0.5765 0.8466 0.3194
C101_18 C 0.5103(5) 0.8313(3) 0.3007(15)
H92_18 H 0.4943 0.8091 0.3376
H93_18 H 0.4968 0.8425 0.2760
H94_18 H 0.5211 0.8261 0.2404
loop_
_geom_bond_atom_site_label_1
_geom_bond_atom_site_label_2
_geom_bond_site_symmetry_1
_geom_bond_site_symmetry_2
H33 C35 1_555 1_555
H34 C36 1_555 1_555
H48 C53 1_555 1_555
C54 C53 1_555 1_555
C57 C54 1_555 1_555
H51 C57 1_555 1_555
H52 C57 1_555 1_555
C35 C36 1_555 1_555
Cu1 O1 1_555 1_555
Cu2 O1 1_555 1_555
Cu3 O1 1_555 1_555
Cu4 O2 1_555 1_555
O1 H1 1_555 1_555
O2 H2 1_555 1_555
O4 C16 1_555 1_555
O5 C16 1_555 1_555
O6 Cu2 1_555 1_555
O7 Cu2 1_555 1_555
O8 Cu3 1_555 1_555
O9 C32 1_555 1_555
O11 Cu4 1_555 1_555
N1 Cu1 1_555 1_555
N2 Cu2 1_555 1_555
C1 N1 1_555 1_555
H4 C1 1_555 1_555
C2 C1 1_555 1_555
H5 C2 1_555 1_555
C3 N2 1_555 1_555
H6 C3 1_555 1_555
N3 Cu2 1_555 1_555
N4 Cu3 1_555 1_555
C4 N3 1_555 1_555
H7 C4 1_555 1_555
C5 C4 1_555 1_555
H8 C5 1_555 1_555
C6 N4 1_555 1_555
H9 C6 1_555 1_555
N5 Cu3 1_555 1_555
N6 Cu1 1_555 1_555
C7 N5 1_555 1_555
H10 C7 1_555 1_555
C8 C7 1_555 1_555
H11 C8 1_555 1_555
C9 N6 1_555 1_555
H12 C9 1_555 1_555
N7 N8 1_555 1_555
N8 Cu4 1_555 1_555
C10 N7 1_555 1_555
H13 C10 1_555 1_555
C11 C10 1_555 1_555
H14 C11 1_555 1_555
C12 N8 1_555 1_555
H15 C12 1_555 1_555
C16 C17 1_555 1_555
C17 C18 1_555 1_555
C18 H19 1_555 1_555
C19 C18 1_555 1_555
C20 C19 1_555 1_555
H20 C20 1_555 1_555
C21 C20 1_555 1_555
C22 C17 1_555 1_555
H21 C22 1_555 1_555
C23 O6 1_555 1_555
C24 C21 1_555 1_555
H23 C24 1_555 1_555
H24 C24 1_555 1_555
C26 C25 1_555 1_555
C27 C26 1_555 1_555
H25 C27 1_555 1_555
C28 C27 1_555 1_555
C29 C28 1_555 1_555
H26 C29 1_555 1_555
C32 O8 1_555 1_555
Cu6 O12 1_555 1_555
Cu7 O12 1_555 1_555
Cu8 O12 1_555 1_555
Cu9 O2 1_555 1_555
O12 H31 1_555 1_555
O13 C49 1_555 1_555
O14 C49 1_555 1_555
O15 Cu7 1_555 1_555
O16 Cu7 1_555 1_555
O17 Cu8 1_555 1_555
O18 C65 1_555 1_555
O20 Cu9 1_555 1_555
N11 Cu6 1_555 1_555
N12 Cu7 1_555 1_555
C34 N11 1_555 1_555
H32 C34 1_555 1_555
N13 Cu7 1_555 1_555
N14 Cu8 1_555 1_555
C37 N13 1_555 1_555
H35 C37 1_555 1_555
C38 C37 1_555 1_555
H36 C38 1_555 1_555
C39 N14 1_555 1_555
H37 C39 1_555 1_555
N15 Cu8 1_555 1_555
N16 Cu6 1_555 1_555
C40 N15 1_555 1_555
H38 C40 1_555 1_555
C41 C40 1_555 1_555
H39 C41 1_555 1_555
C42 N16 1_555 1_555
H40 C42 1_555 1_555
N17 N18 1_555 1_555
N18 Cu9 1_555 1_555
C43 N17 1_555 1_555
H41 C43 1_555 1_555
C44 C43 1_555 1_555
H42 C44 1_555 1_555
C45 N18 1_555 1_555
H43 C45 1_555 1_555
C49 C50 1_555 1_555
C50 C51 1_555 1_555
C51 H47 1_555 1_555
C52 C51 1_555 1_555
C55 C50 1_555 1_555
C56 O15 1_555 1_555
C59 C58 1_555 1_555
C60 C59 1_555 1_555
H53 C60 1_555 1_555
C61 C60 1_555 1_555
C62 C61 1_555 1_555
H54 C62 1_555 1_555
C65 O17 1_555 1_555
Cu11 O21 1_555 1_555
Cu12 O21 1_555 1_555
Cu13 O21 1_555 1_555
Cu14 O2 1_555 1_555
O21 H59 1_555 1_555
O22 C82 1_555 1_555
O23 C82 1_555 1_555
O24 Cu12 1_555 1_555
O25 Cu12 1_555 1_555
O26 Cu13 1_555 1_555
O27 C98 1_555 1_555
O29 Cu14 1_555 1_555
N21 Cu11 1_555 1_555
N22 Cu12 1_555 1_555
C67 N21 1_555 1_555
H60 C67 1_555 1_555
N23 Cu12 1_555 1_555
N24 Cu13 1_555 1_555
C70 N23 1_555 1_555
H63 C70 1_555 1_555
C71 C70 1_555 1_555
H64 C71 1_555 1_555
C72 N24 1_555 1_555
H65 C72 1_555 1_555
N25 Cu13 1_555 1_555
N26 Cu11 1_555 1_555
C73 N25 1_555 1_555
H66 C73 1_555 1_555
C74 C73 1_555 1_555
H67 C74 1_555 1_555
C75 N26 1_555 1_555
H68 C75 1_555 1_555
N27 Cu4 1_555 1_555
N28 Cu14 1_555 1_555
C76 N27 1_555 1_555
H69 C76 1_555 1_555
C77 C76 1_555 1_555
H70 C77 1_555 1_555
C78 N28 1_555 1_555
H71 C78 1_555 1_555
C82 C83 1_555 1_555
C83 C84 1_555 1_555
C84 H75 1_555 1_555
C85 C84 1_555 1_555
C88 C83 1_555 1_555
C89 O24 1_555 1_555
C92 C91 1_555 1_555
C93 C92 1_555 1_555
H81 C93 1_555 1_555
C94 C93 1_555 1_555
C95 C94 1_555 1_555
H82 C95 1_555 1_555
C98 O26 1_555 1_555
Cu19 O6 1_555 1_555
O30 Cu11 1_555 1_555
O31 Cu1 1_555 1_555
O32 Cu6 1_555 1_555
O33 Cu11 1_555 1_555
O34 Cu1 1_555 1_555
O35 Cu6 1_555 1_555
O36 Cu3 1_555 1_555
O7 C23 1_555 1_555
O11 C25 1_555 1_555
N1 N2 1_555 1_555
C2 C3 1_555 1_555
N3 N4 1_555 1_555
C5 C6 1_555 1_555
N5 N6 1_555 1_555
C8 C9 1_555 1_555
N7 Cu9 1_555 1_555
C11 C12 1_555 1_555
C19 C23 1_555 1_555
C21 C22 1_555 1_555
C28 C32 1_555 1_555
O16 C56 1_555 1_555
O20 C58 1_555 1_555
N11 N12 1_555 1_555
N13 N14 1_555 1_555
C38 C39 1_555 1_555
N15 N16 1_555 1_555
C41 C42 1_555 1_555
N17 Cu14 1_555 1_555
C44 C45 1_555 1_555
C52 C56 1_555 1_555
C61 C65 1_555 1_555
O25 C89 1_555 1_555
O29 C91 1_555 1_555
N21 N22 1_555 1_555
N23 N24 1_555 1_555
C71 C72 1_555 1_555
N25 N26 1_555 1_555
C74 C75 1_555 1_555
N27 N28 1_555 1_555
C77 C78 1_555 1_555
C85 C89 1_555 1_555
C94 C98 1_555 1_555
H61 C68 1_555 1_555
H62 C69 1_555 1_555
H76 C86 1_555 1_555
C87 C86 1_555 1_555
C90 C87 1_555 1_555
H79 C90 1_555 1_555
H80 C90 1_555 1_555
C68 C69 1_555 1_555
N7_2 N8_2 1_555 1_555
C10_2 N7_2 1_555 1_555
H13_2 C10_2 1_555 1_555
C11_2 C10_2 1_555 1_555
H14_2 C11_2 1_555 1_555
C12_2 N8_2 1_555 1_555
O19 Cu10 1_555 1_555
O20_2 Cu9_2 1_555 1_555
N19 Cu10 1_555 1_555
C46 N19 1_555 1_555
H44 C46 1_555 1_555
C47 C46 1_555 1_555
H45 C47 1_555 1_555
C48 N20 1_555 1_555
H46 C48 1_555 1_555
C58_2 O19 1_555 1_555
C59_2 C58_2 1_555 1_555
C60_2 C59_2 1_555 1_555
H53_2 C60_2 1_555 1_555
C61_2 C60_2 1_555 1_555
C62_2 C61_2 1_555 1_555
H54_2 C62_2 1_555 1_555
C63 C62_2 1_555 1_555
C64 C59_2 1_555 1_555
H55 C64 1_555 1_555
C65_2 O17_2 1_555 1_555
C66 C63 1_555 1_555
H56 C66 1_555 1_555
H57 C66 1_555 1_555
H58 C66 1_555 1_555
N7_2 Cu9_2 1_555 1_555
C11_2 C12_2 1_555 1_555
O20_2 C58_2 1_555 1_555
N19 N20 1_555 1_555
C47 C48 1_555 1_555
C61_2 C65_2 1_555 1_555
C63 C64 1_555 1_555
O10 Cu5 1_555 1_555
O11_2 Cu4_2 1_555 1_555
C25_2 O10 1_555 1_555
C26_2 C25_2 1_555 1_555
C27_2 C26_2 1_555 1_555
H25_2 C27_2 1_555 1_555
C28_2 C27_2 1_555 1_555
C29_2 C28_2 1_555 1_555
H26_2 C29_2 1_555 1_555
C30 C29_2 1_555 1_555
C31 C26_2 1_555 1_555
H27 C31 1_555 1_555
C32_2 O8_2 1_555 1_555
C33 C30 1_555 1_555
H28 C33 1_555 1_555
H29 C33 1_555 1_555
H30 C33 1_555 1_555
O11_2 C25_2 1_555 1_555
C28_2 C32_2 1_555 1_555
C30 C31 1_555 1_555
N10 N9 1_555 1_555
C13 N9 1_555 1_555
H16 C13 1_555 1_555
C14 C13 1_555 1_555
H17 C14 1_555 1_555
C15 N10 1_555 1_555
H18 C15 1_555 1_555
O28 Cu15 1_555 1_555
O29_2 Cu14_2 1_555 1_555
N28_2 Cu14_2 1_555 1_555
C76_2 N27_2 1_555 1_555
H69_2 C76_2 1_555 1_555
C77_2 C76_2 1_555 1_555
H70_2 C77_2 1_555 1_555
C78_2 N28_2 1_555 1_555
H71_2 C78_2 1_555 1_555
C91_2 O28 1_555 1_555
C92_2 C91_2 1_555 1_555
C93_2 C92_2 1_555 1_555
H81_2 C93_2 1_555 1_555
C94_2 C93_2 1_555 1_555
C95_2 C94_2 1_555 1_555
H82_2 C95_2 1_555 1_555
C96 C95_2 1_555 1_555
C97 C92_2 1_555 1_555
H83 C97 1_555 1_555
C98_2 O26_2 1_555 1_555
C99 C96 1_555 1_555
H84 C99 1_555 1_555
H85 C99 1_555 1_555
H86 C99 1_555 1_555
N10 Cu15 1_555 1_555
C14 C15 1_555 1_555
O29_2 C91_2 1_555 1_555
N27_2 N28_2 1_555 1_555
C77_2 C78_2 1_555 1_555
C94_2 C98_2 1_555 1_555
C96 C97 1_555 1_555
O2_2 H2_2 1_555 1_555
O3 H3 1_555 1_555
Cu14_2 O2_2 1_555 1_555
Cu15 O3 1_555 1_555
O2_3 H2_3 1_555 1_555
O3_2 H3_2 1_555 1_555
Cu9_2 O2_3 1_555 1_555
Cu10 O3_2 1_555 1_555
O4_2 C16_2 1_555 1_555
O5_2 C16_2 1_555 1_555
C1_2 N1_2 1_555 1_555
H4_2 C1_2 1_555 1_555
C2_2 C1_2 1_555 1_555
H5_2 C2_2 1_555 1_555
C3_2 N2_2 1_555 1_555
H6_2 C3_2 1_555 1_555
C16_2 C17_2 1_555 1_555
C17_2 C18_2 1_555 1_555
C18_2 H19_2 1_555 1_555
C19_2 C18_2 1_555 1_555
C20_2 C19_2 1_555 1_555
H20_2 C20_2 1_555 1_555
C21_2 C20_2 1_555 1_555
C22_2 C17_2 1_555 1_555
H21_2 C22_2 1_555 1_555
C23_2 O6_2 1_555 1_555
C24_2 C21_2 1_555 1_555
H22 C24_2 1_555 1_555
H23_2 C24_2 1_555 1_555
O13_2 C49_2 1_555 1_555
O14_2 C49_2 1_555 1_555
C34_2 N11_2 1_555 1_555
H32_2 C34_2 1_555 1_555
C35_2 C34_2 1_555 1_555
H33_2 C35_2 1_555 1_555
C36_2 N12_2 1_555 1_555
H34_2 C36_2 1_555 1_555
C49_2 C50_2 1_555 1_555
C50_2 C51_2 1_555 1_555
C51_2 H47_2 1_555 1_555
C52_2 C51_2 1_555 1_555
C53_2 C52_2 1_555 1_555
H48_2 C53_2 1_555 1_555
C54_2 C53_2 1_555 1_555
C55_2 C50_2 1_555 1_555
H49_2 C55_2 1_555 1_555
C56_2 O15_2 1_555 1_555
C57_2 C54_2 1_555 1_555
H50 C57_2 1_555 1_555
H51_2 C57_2 1_555 1_555
H52_2 C57_2 1_555 1_555
O22_2 C82_2 1_555 1_555
O23_2 C82_2 1_555 1_555
C67_2 N21_2 1_555 1_555
H60_2 C67_2 1_555 1_555
C68_2 C67_2 1_555 1_555
H61_2 C68_2 1_555 1_555
C69_2 N22_2 1_555 1_555
H62_2 C69_2 1_555 1_555
C82_2 C83_2 1_555 1_555
C83_2 C84_2 1_555 1_555
C84_2 H75_2 1_555 1_555
C85_2 C84_2 1_555 1_555
C86_2 C85_2 1_555 1_555
H76_2 C86_2 1_555 1_555
C87_2 C86_2 1_555 1_555
C88_2 C83_2 1_555 1_555
H77_2 C88_2 1_555 1_555
C89_2 O24_2 1_555 1_555
C90_2 C87_2 1_555 1_555
H78 C90_2 1_555 1_555
H79_2 C90_2 1_555 1_555
Cu16 O13_2 1_555 1_555
Cu17 O22_2 1_555 1_555
Cu18 O4_2 1_555 1_555
O5_2 Cu18 1_555 1_555
O7_2 C23_2 1_555 1_555
N1_2 N2_2 1_555 1_555
C2_2 C3_2 1_555 1_555
C19_2 C23_2 1_555 1_555
C21_2 C22_2 1_555 1_555
O14_2 Cu16 1_555 1_555
O16_2 C56_2 1_555 1_555
N11_2 N12_2 1_555 1_555
C35_2 C36_2 1_555 1_555
C52_2 C56_2 1_555 1_555
C54_2 C55_2 1_555 1_555
O23_2 Cu17 1_555 1_555
O25_2 C89_2 1_555 1_555
N21_2 N22_2 1_555 1_555
C68_2 C69_2 1_555 1_555
C85_2 C89_2 1_555 1_555
C87_2 C88_2 1_555 1_555
H61_3 C68_3 1_555 1_555
H62_3 C69_3 1_555 1_555
H76_3 C86_3 1_555 1_555
C87_3 C86_3 1_555 1_555
C90_3 C87_3 1_555 1_555
H79_3 C90_3 1_555 1_555
H80_2 C90_3 1_555 1_555
C68_3 C69_3 1_555 1_555
Cu16 O1_2 1_555 1_555
Cu2_2 O1_2 1_555 1_555
Cu19 O1_2 1_555 1_555
Cu4_3 O2_4 1_555 1_555
O1_2 H1_2 1_555 1_555
O2_4 H2_4 1_555 1_555
O30_2 C16_3 1_555 1_555
O33_2 C16_3 1_555 1_555
O36 Cu2_2 1_555 1_555
O7_3 Cu2_2 1_555 1_555
O8_3 Cu19 1_555 1_555
O9_2 C32_3 1_555 1_555
O11_3 Cu4_3 1_555 1_555
N1_3 Cu16 1_555 1_555
N2_3 Cu2_2 1_555 1_555
C1_3 N1_3 1_555 1_555
H4_3 C1_3 1_555 1_555
C2_3 C1_3 1_555 1_555
H5_3 C2_3 1_555 1_555
C3_3 N2_3 1_555 1_555
H6_3 C3_3 1_555 1_555
N3_2 Cu2_2 1_555 1_555
N4_2 Cu19 1_555 1_555
C4_2 N3_2 1_555 1_555
H7_2 C4_2 1_555 1_555
C5_2 C4_2 1_555 1_555
H8_2 C5_2 1_555 1_555
C6_2 N4_2 1_555 1_555
H9_3 C6_2 1_555 1_555
N5_2 Cu19 1_555 1_555
N6_2 Cu16 1_555 1_555
C7_2 N5_2 1_555 1_555
H10_3 C7_2 1_555 1_555
C8_2 C7_2 1_555 1_555
H11_2 C8_2 1_555 1_555
C9_2 N6_2 1_555 1_555
H12_2 C9_2 1_555 1_555
N7_3 N8_3 1_555 1_555
N8_3 Cu4_3 1_555 1_555
C10_3 N7_3 1_555 1_555
H13_3 C10_3 1_555 1_555
C11_3 C10_3 1_555 1_555
H14_3 C11_3 1_555 1_555
C12_3 N8_3 1_555 1_555
H15_3 C12_3 1_555 1_555
C16_3 C17_3 1_555 1_555
C17_3 C18_3 1_555 1_555
C18_3 H19_3 1_555 1_555
C19_3 C18_3 1_555 1_555
C20_3 C19_3 1_555 1_555
H20_3 C20_3 1_555 1_555
C21_3 C20_3 1_555 1_555
C22_3 C17_3 1_555 1_555
H21_3 C22_3 1_555 1_555
C23_3 O36 1_555 1_555
C24_3 C21_3 1_555 1_555
H23_3 C24_3 1_555 1_555
H24_2 C24_3 1_555 1_555
C26_3 C25_3 1_555 1_555
C27_3 C26_3 1_555 1_555
H25_3 C27_3 1_555 1_555
C28_3 C27_3 1_555 1_555
C29_3 C28_3 1_555 1_555
H26_3 C29_3 1_555 1_555
C32_3 O8_3 1_555 1_555
Cu17 O12_2 1_555 1_555
Cu7_2 O12_2 1_555 1_555
Cu20 O12_2 1_555 1_555
Cu9_3 O2_4 1_555 1_555
O12_2 H31_2 1_555 1_555
O31_2 C49_3 1_555 1_555
O34_2 C49_3 1_555 1_555
O37 Cu7_2 1_555 1_555
O16_3 Cu7_2 1_555 1_555
O17_3 Cu20 1_555 1_555
O18_2 C65_3 1_555 1_555
O20_3 Cu9_3 1_555 1_555
N11_3 Cu17 1_555 1_555
N12_3 Cu7_2 1_555 1_555
C34_3 N11_3 1_555 1_555
H32_3 C34_3 1_555 1_555
N13_2 Cu7_2 1_555 1_555
N14_2 Cu20 1_555 1_555
C37_2 N13_2 1_555 1_555
H35_2 C37_2 1_555 1_555
C38_2 C37_2 1_555 1_555
H36_2 C38_2 1_555 1_555
C39_2 N14_2 1_555 1_555
H37_3 C39_2 1_555 1_555
N15_2 Cu20 1_555 1_555
N16_2 Cu17 1_555 1_555
C40_2 N15_2 1_555 1_555
H38_3 C40_2 1_555 1_555
C41_2 C40_2 1_555 1_555
H39_2 C41_2 1_555 1_555
C42_2 N16_2 1_555 1_555
H40_2 C42_2 1_555 1_555
N17_2 N18_2 1_555 1_555
N18_2 Cu9_3 1_555 1_555
C43_2 N17_2 1_555 1_555
H41_2 C43_2 1_555 1_555
C44_2 C43_2 1_555 1_555
H42_2 C44_2 1_555 1_555
C45_2 N18_2 1_555 1_555
H43_3 C45_2 1_555 1_555
C49_3 C50_3 1_555 1_555
C50_3 C51_3 1_555 1_555
C51_3 H47_3 1_555 1_555
C52_3 C51_3 1_555 1_555
C55_3 C50_3 1_555 1_555
C56_3 O37 1_555 1_555
C59_3 C58_3 1_555 1_555
C60_3 C59_3 1_555 1_555
H53_3 C60_3 1_555 1_555
C61_3 C60_3 1_555 1_555
C62_3 C61_3 1_555 1_555
H54_3 C62_3 1_555 1_555
C65_3 O17_3 1_555 1_555
Cu18 O21_2 1_555 1_555
Cu12_2 O21_2 1_555 1_555
Cu21 O21_2 1_555 1_555
Cu14_3 O2_4 1_555 1_555
O21_2 H59_2 1_555 1_555
O32_2 C82_3 1_555 1_555
O35_2 C82_3 1_555 1_555
O38 Cu12_2 1_555 1_555
O25_3 Cu12_2 1_555 1_555
O26_3 Cu21 1_555 1_555
O27_2 C98_3 1_555 1_555
O29_3 Cu14_3 1_555 1_555
N21_3 Cu18 1_555 1_555
N22_3 Cu12_2 1_555 1_555
C67_3 N21_3 1_555 1_555
H60_3 C67_3 1_555 1_555
N23_2 Cu12_2 1_555 1_555
N24_2 Cu21 1_555 1_555
C70_2 N23_2 1_555 1_555
H63_2 C70_2 1_555 1_555
C71_2 C70_2 1_555 1_555
H64_2 C71_2 1_555 1_555
C72_2 N24_2 1_555 1_555
H65_3 C72_2 1_555 1_555
N25_2 Cu21 1_555 1_555
N26_2 Cu18 1_555 1_555
C73_2 N25_2 1_555 1_555
H66_3 C73_2 1_555 1_555
C74_2 C73_2 1_555 1_555
H67_2 C74_2 1_555 1_555
C75_2 N26_2 1_555 1_555
H68_2 C75_2 1_555 1_555
N27_3 Cu4_3 1_555 1_555
N28_3 Cu14_3 1_555 1_555
C76_3 N27_3 1_555 1_555
H69_3 C76_3 1_555 1_555
C77_3 C76_3 1_555 1_555
H70_3 C77_3 1_555 1_555
C78_3 N28_3 1_555 1_555
H71_3 C78_3 1_555 1_555
C82_3 C83_3 1_555 1_555
C83_3 C84_3 1_555 1_555
C84_3 H75_3 1_555 1_555
C85_3 C84_3 1_555 1_555
C88_3 C83_3 1_555 1_555
C89_3 O38 1_555 1_555
C92_3 C91_3 1_555 1_555
C93_3 C92_3 1_555 1_555
H81_3 C93_3 1_555 1_555
C94_3 C93_3 1_555 1_555
C95_3 C94_3 1_555 1_555
H82_3 C95_3 1_555 1_555
C98_3 O26_3 1_555 1_555
O7_3 C23_3 1_555 1_555
O11_3 C25_3 1_555 1_555
N1_3 N2_3 1_555 1_555
C2_3 C3_3 1_555 1_555
N3_2 N4_2 1_555 1_555
C5_2 C6_2 1_555 1_555
N5_2 N6_2 1_555 1_555
C8_2 C9_2 1_555 1_555
N7_3 Cu9_3 1_555 1_555
C11_3 C12_3 1_555 1_555
C19_3 C23_3 1_555 1_555
C21_3 C22_3 1_555 1_555
C28_3 C32_3 1_555 1_555
O16_3 C56_3 1_555 1_555
O20_3 C58_3 1_555 1_555
N11_3 N12_3 1_555 1_555
N13_2 N14_2 1_555 1_555
C38_2 C39_2 1_555 1_555
N15_2 N16_2 1_555 1_555
C41_2 C42_2 1_555 1_555
N17_2 Cu14_3 1_555 1_555
C44_2 C45_2 1_555 1_555
C52_3 C56_3 1_555 1_555
C61_3 C65_3 1_555 1_555
O25_3 C89_3 1_555 1_555
O29_3 C91_3 1_555 1_555
N21_3 N22_3 1_555 1_555
N23_2 N24_2 1_555 1_555
C71_2 C72_2 1_555 1_555
N25_2 N26_2 1_555 1_555
C74_2 C75_2 1_555 1_555
N27_3 N28_3 1_555 1_555
C77_3 C78_3 1_555 1_555
C85_3 C89_3 1_555 1_555
C94_3 C98_3 1_555 1_555
H33_3 C35_3 1_555 1_555
H34_3 C36_3 1_555 1_555
H48_3 C53_3 1_555 1_555
C54_3 C53_3 1_555 1_555
C57_3 C54_3 1_555 1_555
H51_3 C57_3 1_555 1_555
H52_3 C57_3 1_555 1_555
C35_3 C36_3 1_555 1_555
N10_2 N9_2 1_555 1_555
C13_2 N9_2 1_555 1_555
H16_2 C13_2 1_555 1_555
C14_2 C13_2 1_555 1_555
H17_2 C14_2 1_555 1_555
C15_2 N10_2 1_555 1_555
H18_2 C15_2 1_555 1_555
O28_2 Cu15_2 1_555 1_555
O29_4 Cu14_4 1_555 1_555
N28_4 Cu14_4 1_555 1_555
C76_4 N27_4 1_555 1_555
H69_4 C76_4 1_555 1_555
C77_4 C76_4 1_555 1_555
H70_4 C77_4 1_555 1_555
C78_4 N28_4 1_555 1_555
H71_4 C78_4 1_555 1_555
C91_4 O28_2 1_555 1_555
C92_4 C91_4 1_555 1_555
C93_4 C92_4 1_555 1_555
H81_4 C93_4 1_555 1_555
C94_4 C93_4 1_555 1_555
C95_4 C94_4 1_555 1_555
H82_4 C95_4 1_555 1_555
C96_2 C95_4 1_555 1_555
C97_2 C92_4 1_555 1_555
H83_2 C97_2 1_555 1_555
C98_4 O26_4 1_555 1_555
C99_2 C96_2 1_555 1_555
H84_2 C99_2 1_555 1_555
H85_2 C99_2 1_555 1_555
H86_2 C99_2 1_555 1_555
N10_2 Cu15_2 1_555 1_555
C14_2 C15_2 1_555 1_555
O29_4 C91_4 1_555 1_555
N27_4 N28_4 1_555 1_555
C77_4 C78_4 1_555 1_555
C94_4 C98_4 1_555 1_555
C96_2 C97_2 1_555 1_555
O10_2 Cu5_2 1_555 1_555
O11_4 Cu4_4 1_555 1_555
C25_4 O10_2 1_555 1_555
C26_4 C25_4 1_555 1_555
C27_4 C26_4 1_555 1_555
H25_4 C27_4 1_555 1_555
C28_4 C27_4 1_555 1_555
C29_4 C28_4 1_555 1_555
H26_4 C29_4 1_555 1_555
C30_2 C29_4 1_555 1_555
C31_2 C26_4 1_555 1_555
H27_2 C31_2 1_555 1_555
C32_4 O8_4 1_555 1_555
C33_2 C30_2 1_555 1_555
H28_2 C33_2 1_555 1_555
H29_2 C33_2 1_555 1_555
H30_2 C33_2 1_555 1_555
O11_4 C25_4 1_555 1_555
C28_4 C32_4 1_555 1_555
C30_2 C31_2 1_555 1_555
N7_4 N8_4 1_555 1_555
C10_4 N7_4 1_555 1_555
H13_4 C10_4 1_555 1_555
C11_4 C10_4 1_555 1_555
H14_4 C11_4 1_555 1_555
C12_4 N8_4 1_555 1_555
O19_2 Cu10_2 1_555 1_555
O20_4 Cu9_4 1_555 1_555
N19_2 Cu10_2 1_555 1_555
C46_2 N19_2 1_555 1_555
H44_2 C46_2 1_555 1_555
C47_2 C46_2 1_555 1_555
H45_2 C47_2 1_555 1_555
C48_2 N20_2 1_555 1_555
H46_2 C48_2 1_555 1_555
C58_4 O19_2 1_555 1_555
C59_4 C58_4 1_555 1_555
C60_4 C59_4 1_555 1_555
H53_4 C60_4 1_555 1_555
C61_4 C60_4 1_555 1_555
C62_4 C61_4 1_555 1_555
H54_4 C62_4 1_555 1_555
C63_2 C62_4 1_555 1_555
C64_2 C59_4 1_555 1_555
H55_2 C64_2 1_555 1_555
C65_4 O17_4 1_555 1_555
C66_2 C63_2 1_555 1_555
H56_2 C66_2 1_555 1_555
H57_2 C66_2 1_555 1_555
H58_2 C66_2 1_555 1_555
N7_4 Cu9_4 1_555 1_555
C11_4 C12_4 1_555 1_555
O20_4 C58_4 1_555 1_555
N19_2 N20_2 1_555 1_555
C47_2 C48_2 1_555 1_555
C61_4 C65_4 1_555 1_555
C63_2 C64_2 1_555 1_555
O2_5 H2_5 1_555 1_555
O3_3 H3_3 1_555 1_555
Cu14_4 O2_5 1_555 1_555
Cu15_2 O3_3 1_555 1_555
O2_6 H2_6 1_555 1_555
O3_4 H3_4 1_555 1_555
Cu9_4 O2_6 1_555 1_555
Cu10_2 O3_4 1_555 1_555
O30 C16_4 1_555 1_555
O33 C16_4 1_555 1_555
C1_4 N1_4 1_555 1_555
H4_4 C1_4 1_555 1_555
C2_4 C1_4 1_555 1_555
H5_4 C2_4 1_555 1_555
C3_4 N2_4 1_555 1_555
H6_4 C3_4 1_555 1_555
C16_4 C17_4 1_555 1_555
C17_4 C18_4 1_555 1_555
C18_4 H19_4 1_555 1_555
C19_4 C18_4 1_555 1_555
C20_4 C19_4 1_555 1_555
H20_4 C20_4 1_555 1_555
C21_4 C20_4 1_555 1_555
C22_4 C17_4 1_555 1_555
H21_4 C22_4 1_555 1_555
C23_4 O36_2 1_555 1_555
C24_4 C21_4 1_555 1_555
H22_2 C24_4 1_555 1_555
H23_4 C24_4 1_555 1_555
O31 C49_4 1_555 1_555
O34 C49_4 1_555 1_555
C34_4 N11_4 1_555 1_555
H32_4 C34_4 1_555 1_555
C35_4 C34_4 1_555 1_555
H33_4 C35_4 1_555 1_555
C36_4 N12_4 1_555 1_555
H34_4 C36_4 1_555 1_555
C49_4 C50_4 1_555 1_555
C50_4 C51_4 1_555 1_555
C51_4 H47_4 1_555 1_555
C52_4 C51_4 1_555 1_555
C53_4 C52_4 1_555 1_555
H48_4 C53_4 1_555 1_555
C54_4 C53_4 1_555 1_555
C55_4 C50_4 1_555 1_555
H49_4 C55_4 1_555 1_555
C56_4 O37_2 1_555 1_555
C57_4 C54_4 1_555 1_555
H50_2 C57_4 1_555 1_555
H51_4 C57_4 1_555 1_555
H52_4 C57_4 1_555 1_555
O32 C82_4 1_555 1_555
O35 C82_4 1_555 1_555
C67_4 N21_4 1_555 1_555
H60_4 C67_4 1_555 1_555
C68_4 C67_4 1_555 1_555
H61_4 C68_4 1_555 1_555
C69_4 N22_4 1_555 1_555
H62_4 C69_4 1_555 1_555
C82_4 C83_4 1_555 1_555
C83_4 C84_4 1_555 1_555
C84_4 H75_4 1_555 1_555
C85_4 C84_4 1_555 1_555
C86_4 C85_4 1_555 1_555
H76_4 C86_4 1_555 1_555
C87_4 C86_4 1_555 1_555
C88_4 C83_4 1_555 1_555
H77_4 C88_4 1_555 1_555
C89_4 O38_2 1_555 1_555
C90_4 C87_4 1_555 1_555
H78_2 C90_4 1_555 1_555
H79_4 C90_4 1_555 1_555
O7_4 C23_4 1_555 1_555
N1_4 N2_4 1_555 1_555
C2_4 C3_4 1_555 1_555
C19_4 C23_4 1_555 1_555
C21_4 C22_4 1_555 1_555
O16_4 C56_4 1_555 1_555
N11_4 N12_4 1_555 1_555
C35_4 C36_4 1_555 1_555
C52_4 C56_4 1_555 1_555
C54_4 C55_4 1_555 1_555
O25_4 C89_4 1_555 1_555
N21_4 N22_4 1_555 1_555
C68_4 C69_4 1_555 1_555
C85_4 C89_4 1_555 1_555
C87_4 C88_4 1_555 1_555
Cu5_3 O3_5 1_555 1_555
O3_5 H3_5 1_555 1_555
O10_3 Cu5_3 1_555 1_555
N9_3 Cu5_3 1_555 1_555
N10_3 N9_3 1_555 1_555
C13_3 N9_3 1_555 1_555
H16_3 C13_3 1_555 1_555
C14_3 C13_3 1_555 1_555
H17_3 C14_3 1_555 1_555
C15_3 N10_3 1_555 1_555
H18_3 C15_3 1_555 1_555
H27_3 C31_3 1_555 1_555
C33_3 C30_3 1_555 1_555
H28_3 C33_3 1_555 1_555
H29_3 C33_3 1_555 1_555
H30_3 C33_3 1_555 1_555
Cu10_3 O3_5 1_555 1_555
O19_3 Cu10_3 1_555 1_555
N19_3 Cu10_3 1_555 1_555
N20_3 Cu5_3 1_555 1_555
C46_3 N19_3 1_555 1_555
H44_3 C46_3 1_555 1_555
C47_3 C46_3 1_555 1_555
H45_3 C47_3 1_555 1_555
C48_3 N20_3 1_555 1_555
H46_3 C48_3 1_555 1_555
H55_3 C64_3 1_555 1_555
C66_3 C63_3 1_555 1_555
H56_3 C66_3 1_555 1_555
H57_3 C66_3 1_555 1_555
H58_3 C66_3 1_555 1_555
Cu15_3 O3_5 1_555 1_555
O28_3 Cu15_3 1_555 1_555
N29 Cu15_3 1_555 1_555
N30 Cu10_3 1_555 1_555
C79 N29 1_555 1_555
H72 C79 1_555 1_555
C80 C79 1_555 1_555
H73 C80 1_555 1_555
C81 N30 1_555 1_555
H74 C81 1_555 1_555
H83_3 C97_3 1_555 1_555
C99_3 C96_3 1_555 1_555
H84_3 C99_3 1_555 1_555
H85_3 C99_3 1_555 1_555
H86_3 C99_3 1_555 1_555
N10_3 Cu15_3 1_555 1_555
C14_3 C15_3 1_555 1_555
C30_3 C31_3 1_555 1_555
N19_3 N20_3 1_555 1_555
C47_3 C48_3 1_555 1_555
C63_3 C64_3 1_555 1_555
N29 N30 1_555 1_555
C80 C81 1_555 1_555
C96_3 C97_3 1_555 1_555
O4_3 C16_5 1_555 1_555
O5_3 C16_5 1_555 1_555
Cu6_2 O12_3 1_555 1_555
Cu7_3 O12_3 1_555 1_555
Cu8_2 O12_3 1_555 1_555
O12_3 H31_3 1_555 1_555
O15_3 Cu7_3 1_555 1_555
O16_5 Cu7_3 1_555 1_555
N11_5 Cu6_2 1_555 1_555
N12_5 Cu7_3 1_555 1_555
C34_5 N11_5 1_555 1_555
H32_5 C34_5 1_555 1_555
C35_5 C34_5 1_555 1_555
H33_5 C35_5 1_555 1_555
C36_5 N12_5 1_555 1_555
H34_5 C36_5 1_555 1_555
N13_3 Cu7_3 1_555 1_555
N14_3 Cu8_2 1_555 1_555
C37_3 N13_3 1_555 1_555
H35_3 C37_3 1_555 1_555
C38_3 C37_3 1_555 1_555
H36_3 C38_3 1_555 1_555
C39_3 N14_3 1_555 1_555
N15_3 Cu8_2 1_555 1_555
N16_3 Cu6_2 1_555 1_555
C40_3 N15_3 1_555 1_555
C41_3 C40_3 1_555 1_555
H39_3 C41_3 1_555 1_555
C42_3 N16_3 1_555 1_555
H40_3 C42_3 1_555 1_555
C50_5 C51_5 1_555 1_555
C51_5 H47_5 1_555 1_555
C52_5 C51_5 1_555 1_555
C53_5 C52_5 1_555 1_555
H48_5 C53_5 1_555 1_555
C54_5 C53_5 1_555 1_555
C55_5 C50_5 1_555 1_555
H49_5 C55_5 1_555 1_555
C56_5 O15_3 1_555 1_555
C57_5 C54_5 1_555 1_555
H50_4 C57_5 1_555 1_555
H51_5 C57_5 1_555 1_555
H52_5 C57_5 1_555 1_555
Cu18_3 O4_3 1_555 1_555
Cu20_2 O15_3 1_555 1_555
O32_3 Cu6_2 1_555 1_555
O35_3 Cu6_2 1_555 1_555
O5_3 Cu18_3 1_555 1_555
O16_5 C56_5 1_555 1_555
N11_5 N12_5 1_555 1_555
C35_5 C36_5 1_555 1_555
N13_3 N14_3 1_555 1_555
C38_3 C39_3 1_555 1_555
N15_3 N16_3 1_555 1_555
C41_3 C42_3 1_555 1_555
C52_5 C56_5 1_555 1_555
C54_5 C55_5 1_555 1_555
Cu1_2 O1_3 1_555 1_555
Cu2_3 O1_3 1_555 1_555
Cu3_2 O1_3 1_555 1_555
O1_3 H1_3 1_555 1_555
O6_3 Cu2_3 1_555 1_555
O7_5 Cu2_3 1_555 1_555
N1_5 Cu1_2 1_555 1_555
N2_5 Cu2_3 1_555 1_555
C1_5 N1_5 1_555 1_555
H4_5 C1_5 1_555 1_555
C2_5 C1_5 1_555 1_555
H5_5 C2_5 1_555 1_555
C3_5 N2_5 1_555 1_555
H6_5 C3_5 1_555 1_555
N3_3 Cu2_3 1_555 1_555
N4_3 Cu3_2 1_555 1_555
C4_3 N3_3 1_555 1_555
H7_3 C4_3 1_555 1_555
C5_3 C4_3 1_555 1_555
H8_3 C5_3 1_555 1_555
C6_3 N4_3 1_555 1_555
N5_3 Cu3_2 1_555 1_555
N6_3 Cu1_2 1_555 1_555
C7_3 N5_3 1_555 1_555
C8_3 C7_3 1_555 1_555
C9_3 N6_3 1_555 1_555
H12_3 C9_3 1_555 1_555
C17_5 C18_5 1_555 1_555
C18_5 H19_5 1_555 1_555
C19_5 C18_5 1_555 1_555
C20_5 C19_5 1_555 1_555
H20_5 C20_5 1_555 1_555
C21_5 C20_5 1_555 1_555
C22_5 C17_5 1_555 1_555
H21_5 C22_5 1_555 1_555
C23_5 O6_3 1_555 1_555
C24_5 C21_5 1_555 1_555
H22_4 C24_5 1_555 1_555
H23_5 C24_5 1_555 1_555
H24_3 C24_5 1_555 1_555
Cu19_2 O6_3 1_555 1_555
O31_3 Cu1_2 1_555 1_555
O34_3 Cu1_2 1_555 1_555
O7_5 C23_5 1_555 1_555
N1_5 N2_5 1_555 1_555
C2_5 C3_5 1_555 1_555
N3_3 N4_3 1_555 1_555
C5_3 C6_3 1_555 1_555
N5_3 N6_3 1_555 1_555
C8_3 C9_3 1_555 1_555
C19_5 C23_5 1_555 1_555
C21_5 C22_5 1_555 1_555
O13_3 C49_5 1_555 1_555
O14_3 C49_5 1_555 1_555
Cu16_3 O13_3 1_555 1_555
O14_3 Cu16_3 1_555 1_555
Cu11_2 O21_3 1_555 1_555
Cu12_3 O21_3 1_555 1_555
Cu13_2 O21_3 1_555 1_555
O21_3 H59_3 1_555 1_555
O22_3 C82_5 1_555 1_555
O23_3 C82_5 1_555 1_555
O24_3 Cu12_3 1_555 1_555
O25_5 Cu12_3 1_555 1_555
N21_5 Cu11_2 1_555 1_555
N22_5 Cu12_3 1_555 1_555
C67_5 N21_5 1_555 1_555
H60_5 C67_5 1_555 1_555
C68_5 C67_5 1_555 1_555
H61_5 C68_5 1_555 1_555
C69_5 N22_5 1_555 1_555
H62_5 C69_5 1_555 1_555
N23_3 Cu12_3 1_555 1_555
N24_3 Cu13_2 1_555 1_555
C70_3 N23_3 1_555 1_555
H63_3 C70_3 1_555 1_555
C71_3 C70_3 1_555 1_555
H64_3 C71_3 1_555 1_555
C72_3 N24_3 1_555 1_555
N25_3 Cu13_2 1_555 1_555
N26_3 Cu11_2 1_555 1_555
C73_3 N25_3 1_555 1_555
C74_3 C73_3 1_555 1_555
C75_3 N26_3 1_555 1_555
H68_3 C75_3 1_555 1_555
C82_5 C83_5 1_555 1_555
C83_5 C84_5 1_555 1_555
C84_5 H75_5 1_555 1_555
C85_5 C84_5 1_555 1_555
C86_5 C85_5 1_555 1_555
H76_5 C86_5 1_555 1_555
C87_5 C86_5 1_555 1_555
C88_5 C83_5 1_555 1_555
H77_5 C88_5 1_555 1_555
C89_5 O24_3 1_555 1_555
C90_5 C87_5 1_555 1_555
H78_3 C90_5 1_555 1_555
H79_5 C90_5 1_555 1_555
H80_3 C90_5 1_555 1_555
Cu17_3 O22_3 1_555 1_555
Cu21_2 O24_3 1_555 1_555
O30_3 Cu11_2 1_555 1_555
O33_3 Cu11_2 1_555 1_555
O23_3 Cu17_3 1_555 1_555
O25_5 C89_5 1_555 1_555
N21_5 N22_5 1_555 1_555
C68_5 C69_5 1_555 1_555
N23_3 N24_3 1_555 1_555
C71_3 C72_3 1_555 1_555
N25_3 N26_3 1_555 1_555
C74_3 C75_3 1_555 1_555
C85_5 C89_5 1_555 1_555
C87_5 C88_5 1_555 1_555
Cu1_3 O1_4 1_555 1_555
Cu2_4 O1_4 1_555 1_555
Cu3_3 O1_4 1_555 1_555
Cu4_5 O2_7 1_555 1_555
Cu5_4 O3_6 1_555 1_555
O1_4 H1_4 1_555 1_555
O2_7 H2_7 1_555 1_555
O3_6 H3_6 1_555 1_555
O8_5 Cu3_3 1_555 1_555
O9_4 C32_5 1_555 1_555
O10_4 Cu5_4 1_555 1_555
O11_5 Cu4_5 1_555 1_555
N3_4 Cu2_4 1_555 1_555
N4_4 Cu3_3 1_555 1_555
C4_4 N3_4 1_555 1_555
H7_4 C4_4 1_555 1_555
C5_4 C4_4 1_555 1_555
H8_4 C5_4 1_555 1_555
C6_4 N4_4 1_555 1_555
H9_5 C6_4 1_555 1_555
N5_4 Cu3_3 1_555 1_555
N6_4 Cu1_3 1_555 1_555
C7_4 N5_4 1_555 1_555
H10_5 C7_4 1_555 1_555
C8_4 C7_4 1_555 1_555
H11_4 C8_4 1_555 1_555
C9_4 N6_4 1_555 1_555
H12_4 C9_4 1_555 1_555
N7_5 N8_5 1_555 1_555
N8_5 Cu4_5 1_555 1_555
C10_5 N7_5 1_555 1_555
H13_5 C10_5 1_555 1_555
C11_5 C10_5 1_555 1_555
H14_5 C11_5 1_555 1_555
C12_5 N8_5 1_555 1_555
H15_5 C12_5 1_555 1_555
N9_4 Cu5_4 1_555 1_555
N10_4 N9_4 1_555 1_555
C13_4 N9_4 1_555 1_555
H16_4 C13_4 1_555 1_555
C14_4 C13_4 1_555 1_555
H17_4 C14_4 1_555 1_555
C15_4 N10_4 1_555 1_555
H18_4 C15_4 1_555 1_555
C25_5 O10_4 1_555 1_555
C26_5 C25_5 1_555 1_555
C27_5 C26_5 1_555 1_555
H25_5 C27_5 1_555 1_555
C28_5 C27_5 1_555 1_555
C29_5 C28_5 1_555 1_555
H26_5 C29_5 1_555 1_555
C30_4 C29_5 1_555 1_555
C31_4 C26_5 1_555 1_555
H27_4 C31_4 1_555 1_555
C32_5 O8_5 1_555 1_555
C33_4 C30_4 1_555 1_555
H28_4 C33_4 1_555 1_555
H29_4 C33_4 1_555 1_555
H30_4 C33_4 1_555 1_555
Cu6_3 O12_4 1_555 1_555
Cu7_4 O12_4 1_555 1_555
Cu8_3 O12_4 1_555 1_555
Cu9_5 O2_7 1_555 1_555
Cu10_4 O3_6 1_555 1_555
O12_4 H31_4 1_555 1_555
O17_5 Cu8_3 1_555 1_555
O18_4 C65_5 1_555 1_555
O19_4 Cu10_4 1_555 1_555
O20_5 Cu9_5 1_555 1_555
N13_4 Cu7_4 1_555 1_555
N14_4 Cu8_3 1_555 1_555
C37_4 N13_4 1_555 1_555
H35_4 C37_4 1_555 1_555
C38_4 C37_4 1_555 1_555
H36_4 C38_4 1_555 1_555
C39_4 N14_4 1_555 1_555
H37_5 C39_4 1_555 1_555
N15_4 Cu8_3 1_555 1_555
N16_4 Cu6_3 1_555 1_555
C40_4 N15_4 1_555 1_555
H38_5 C40_4 1_555 1_555
C41_4 C40_4 1_555 1_555
H39_4 C41_4 1_555 1_555
C42_4 N16_4 1_555 1_555
H40_4 C42_4 1_555 1_555
N17_3 N18_3 1_555 1_555
N18_3 Cu9_5 1_555 1_555
C43_3 N17_3 1_555 1_555
H41_3 C43_3 1_555 1_555
C44_3 C43_3 1_555 1_555
H42_3 C44_3 1_555 1_555
C45_3 N18_3 1_555 1_555
H43_5 C45_3 1_555 1_555
N19_4 Cu10_4 1_555 1_555
N20_4 Cu5_4 1_555 1_555
C46_4 N19_4 1_555 1_555
H44_4 C46_4 1_555 1_555
C47_4 C46_4 1_555 1_555
H45_4 C47_4 1_555 1_555
C48_4 N20_4 1_555 1_555
H46_4 C48_4 1_555 1_555
C58_5 O19_4 1_555 1_555
C59_5 C58_5 1_555 1_555
C60_5 C59_5 1_555 1_555
H53_5 C60_5 1_555 1_555
C61_5 C60_5 1_555 1_555
C62_5 C61_5 1_555 1_555
H54_5 C62_5 1_555 1_555
C63_4 C62_5 1_555 1_555
C64_4 C59_5 1_555 1_555
H55_4 C64_4 1_555 1_555
C65_5 O17_5 1_555 1_555
C66_4 C63_4 1_555 1_555
H56_4 C66_4 1_555 1_555
H57_4 C66_4 1_555 1_555
H58_4 C66_4 1_555 1_555
Cu11_3 O21_4 1_555 1_555
Cu12_4 O21_4 1_555 1_555
Cu13_3 O21_4 1_555 1_555
Cu14_5 O2_7 1_555 1_555
Cu15_4 O3_6 1_555 1_555
O21_4 H59_4 1_555 1_555
O26_5 Cu13_3 1_555 1_555
O27_4 C98_5 1_555 1_555
O28_4 Cu15_4 1_555 1_555
O29_5 Cu14_5 1_555 1_555
N23_4 Cu12_4 1_555 1_555
N24_4 Cu13_3 1_555 1_555
C70_4 N23_4 1_555 1_555
H63_4 C70_4 1_555 1_555
C71_4 C70_4 1_555 1_555
H64_4 C71_4 1_555 1_555
C72_4 N24_4 1_555 1_555
H65_5 C72_4 1_555 1_555
N25_4 Cu13_3 1_555 1_555
N26_4 Cu11_3 1_555 1_555
C73_4 N25_4 1_555 1_555
H66_5 C73_4 1_555 1_555
C74_4 C73_4 1_555 1_555
H67_4 C74_4 1_555 1_555
C75_4 N26_4 1_555 1_555
H68_4 C75_4 1_555 1_555
N27_5 Cu4_5 1_555 1_555
N28_5 Cu14_5 1_555 1_555
C76_5 N27_5 1_555 1_555
H69_5 C76_5 1_555 1_555
C77_5 C76_5 1_555 1_555
H70_5 C77_5 1_555 1_555
C78_5 N28_5 1_555 1_555
H71_5 C78_5 1_555 1_555
N29_2 Cu15_4 1_555 1_555
N30_2 Cu10_4 1_555 1_555
C79_2 N29_2 1_555 1_555
H72_2 C79_2 1_555 1_555
C80_2 C79_2 1_555 1_555
H73_2 C80_2 1_555 1_555
C81_2 N30_2 1_555 1_555
H74_2 C81_2 1_555 1_555
C91_5 O28_4 1_555 1_555
C92_5 C91_5 1_555 1_555
C93_5 C92_5 1_555 1_555
H81_5 C93_5 1_555 1_555
C94_5 C93_5 1_555 1_555
C95_5 C94_5 1_555 1_555
H82_5 C95_5 1_555 1_555
C96_4 C95_5 1_555 1_555
C97_4 C92_5 1_555 1_555
H83_4 C97_4 1_555 1_555
C98_5 O26_5 1_555 1_555
C99_4 C96_4 1_555 1_555
H84_4 C99_4 1_555 1_555
H85_4 C99_4 1_555 1_555
H86_4 C99_4 1_555 1_555
O36_3 Cu3_3 1_555 1_555
O37_3 Cu8_3 1_555 1_555
O38_3 Cu13_3 1_555 1_555
O11_5 C25_5 1_555 1_555
N3_4 N4_4 1_555 1_555
C5_4 C6_4 1_555 1_555
N5_4 N6_4 1_555 1_555
C8_4 C9_4 1_555 1_555
N7_5 Cu9_5 1_555 1_555
C11_5 C12_5 1_555 1_555
N10_4 Cu15_4 1_555 1_555
C14_4 C15_4 1_555 1_555
C28_5 C32_5 1_555 1_555
C30_4 C31_4 1_555 1_555
O20_5 C58_5 1_555 1_555
N13_4 N14_4 1_555 1_555
C38_4 C39_4 1_555 1_555
N15_4 N16_4 1_555 1_555
C41_4 C42_4 1_555 1_555
N17_3 Cu14_5 1_555 1_555
C44_3 C45_3 1_555 1_555
N19_4 N20_4 1_555 1_555
C47_4 C48_4 1_555 1_555
C61_5 C65_5 1_555 1_555
C63_4 C64_4 1_555 1_555
O29_5 C91_5 1_555 1_555
N23_4 N24_4 1_555 1_555
C71_4 C72_4 1_555 1_555
N25_4 N26_4 1_555 1_555
C74_4 C75_4 1_555 1_555
N27_5 N28_5 1_555 1_555
C77_5 C78_5 1_555 1_555
N29_2 N30_2 1_555 1_555
C80_2 C81_2 1_555 1_555
C94_5 C98_5 1_555 1_555
C96_4 C97_4 1_555 1_555
Cu18_3 O21_5 1_555 1_555
Cu12_5 O21_5 1_555 1_555
Cu21_3 O21_5 1_555 1_555
O21_5 H59_5 1_555 1_555
O32_3 C82_6 1_555 1_555
O35_3 C82_6 1_555 1_555
O38_3 Cu12_5 1_555 1_555
O25_6 Cu12_5 1_555 1_555
N21_6 Cu18_3 1_555 1_555
N22_6 Cu12_5 1_555 1_555
C67_6 N21_6 1_555 1_555
H60_6 C67_6 1_555 1_555
C68_6 C67_6 1_555 1_555
H61_6 C68_6 1_555 1_555
C69_6 N22_6 1_555 1_555
H62_6 C69_6 1_555 1_555
N23_5 Cu12_5 1_555 1_555
N24_5 Cu21_3 1_555 1_555
C70_5 N23_5 1_555 1_555
H63_5 C70_5 1_555 1_555
C71_5 C70_5 1_555 1_555
H64_5 C71_5 1_555 1_555
C72_5 N24_5 1_555 1_555
N25_5 Cu21_3 1_555 1_555
N26_5 Cu18_3 1_555 1_555
C73_5 N25_5 1_555 1_555
C74_5 C73_5 1_555 1_555
C75_5 N26_5 1_555 1_555
H68_5 C75_5 1_555 1_555
C82_6 C83_6 1_555 1_555
C83_6 C84_6 1_555 1_555
C84_6 H75_6 1_555 1_555
C85_6 C84_6 1_555 1_555
C86_6 C85_6 1_555 1_555
H76_6 C86_6 1_555 1_555
C87_6 C86_6 1_555 1_555
C88_6 C83_6 1_555 1_555
H77_6 C88_6 1_555 1_555
C89_6 O38_3 1_555 1_555
C90_6 C87_6 1_555 1_555
H78_4 C90_6 1_555 1_555
H79_6 C90_6 1_555 1_555
H80_4 C90_6 1_555 1_555
O25_6 C89_6 1_555 1_555
N21_6 N22_6 1_555 1_555
C68_6 C69_6 1_555 1_555
N23_5 N24_5 1_555 1_555
C71_5 C72_5 1_555 1_555
N25_5 N26_5 1_555 1_555
C74_5 C75_5 1_555 1_555
C85_6 C89_6 1_555 1_555
C87_6 C88_6 1_555 1_555
O31_3 C49_6 1_555 1_555
O34_3 C49_6 1_555 1_555
Cu16_3 O1_5 1_555 1_555
Cu2_5 O1_5 1_555 1_555
Cu19_3 O1_5 1_555 1_555
O1_5 H1_5 1_555 1_555
O36_3 Cu2_5 1_555 1_555
O7_6 Cu2_5 1_555 1_555
N1_6 Cu16_3 1_555 1_555
N2_6 Cu2_5 1_555 1_555
C1_6 N1_6 1_555 1_555
H4_6 C1_6 1_555 1_555
C2_6 C1_6 1_555 1_555
H5_6 C2_6 1_555 1_555
C3_6 N2_6 1_555 1_555
H6_6 C3_6 1_555 1_555
N3_5 Cu2_5 1_555 1_555
N4_5 Cu19_3 1_555 1_555
C4_5 N3_5 1_555 1_555
H7_5 C4_5 1_555 1_555
C5_5 C4_5 1_555 1_555
H8_5 C5_5 1_555 1_555
C6_5 N4_5 1_555 1_555
N5_5 Cu19_3 1_555 1_555
N6_5 Cu16_3 1_555 1_555
C7_5 N5_5 1_555 1_555
C8_5 C7_5 1_555 1_555
C9_5 N6_5 1_555 1_555
H12_5 C9_5 1_555 1_555
C17_6 C18_6 1_555 1_555
C18_6 H19_6 1_555 1_555
C19_6 C18_6 1_555 1_555
C20_6 C19_6 1_555 1_555
H20_6 C20_6 1_555 1_555
C21_6 C20_6 1_555 1_555
C22_6 C17_6 1_555 1_555
H21_6 C22_6 1_555 1_555
C23_6 O36_3 1_555 1_555
C24_6 C21_6 1_555 1_555
H22_6 C24_6 1_555 1_555
H23_6 C24_6 1_555 1_555
H24_4 C24_6 1_555 1_555
O7_6 C23_6 1_555 1_555
N1_6 N2_6 1_555 1_555
C2_6 C3_6 1_555 1_555
N3_5 N4_5 1_555 1_555
C5_5 C6_5 1_555 1_555
N5_5 N6_5 1_555 1_555
C8_5 C9_5 1_555 1_555
C19_6 C23_6 1_555 1_555
C21_6 C22_6 1_555 1_555
O30_3 C16_6 1_555 1_555
O33_3 C16_6 1_555 1_555
Cu17_3 O12_5 1_555 1_555
Cu7_5 O12_5 1_555 1_555
Cu20_3 O12_5 1_555 1_555
O12_5 H31_5 1_555 1_555
O37_3 Cu7_5 1_555 1_555
O16_6 Cu7_5 1_555 1_555
N11_6 Cu17_3 1_555 1_555
N12_6 Cu7_5 1_555 1_555
C34_6 N11_6 1_555 1_555
H32_6 C34_6 1_555 1_555
C35_6 C34_6 1_555 1_555
H33_6 C35_6 1_555 1_555
C36_6 N12_6 1_555 1_555
H34_6 C36_6 1_555 1_555
N13_5 Cu7_5 1_555 1_555
N14_5 Cu20_3 1_555 1_555
C37_5 N13_5 1_555 1_555
H35_5 C37_5 1_555 1_555
C38_5 C37_5 1_555 1_555
H36_5 C38_5 1_555 1_555
C39_5 N14_5 1_555 1_555
N15_5 Cu20_3 1_555 1_555
N16_5 Cu17_3 1_555 1_555
C40_5 N15_5 1_555 1_555
C41_5 C40_5 1_555 1_555
H39_5 C41_5 1_555 1_555
C42_5 N16_5 1_555 1_555
H40_5 C42_5 1_555 1_555
C50_6 C51_6 1_555 1_555
C51_6 H47_6 1_555 1_555
C52_6 C51_6 1_555 1_555
C53_6 C52_6 1_555 1_555
H48_6 C53_6 1_555 1_555
C54_6 C53_6 1_555 1_555
C55_6 C50_6 1_555 1_555
H49_6 C55_6 1_555 1_555
C56_6 O37_3 1_555 1_555
C57_6 C54_6 1_555 1_555
H50_5 C57_6 1_555 1_555
H51_6 C57_6 1_555 1_555
H52_6 C57_6 1_555 1_555
O16_6 C56_6 1_555 1_555
N11_6 N12_6 1_555 1_555
C35_6 C36_6 1_555 1_555
N13_5 N14_5 1_555 1_555
C38_5 C39_5 1_555 1_555
N15_5 N16_5 1_555 1_555
C41_5 C42_5 1_555 1_555
C52_6 C56_6 1_555 1_555
C54_6 C55_6 1_555 1_555
Cu16_2 O1_6 1_555 1_555
Cu2_6 O1_6 1_555 1_555
Cu19_2 O1_6 1_555 1_555
Cu4_6 O2_8 1_555 1_555
Cu5_5 O3_7 1_555 1_555
O1_6 H1_6 1_555 1_555
O2_8 H2_8 1_555 1_555
O3_7 H3_7 1_555 1_555
O8_6 Cu19_2 1_555 1_555
O9_6 C32_6 1_555 1_555
O10_5 Cu5_5 1_555 1_555
O11_6 Cu4_6 1_555 1_555
N3_6 Cu2_6 1_555 1_555
N4_6 Cu19_2 1_555 1_555
C4_6 N3_6 1_555 1_555
H7_6 C4_6 1_555 1_555
C5_6 C4_6 1_555 1_555
H8_6 C5_6 1_555 1_555
C6_6 N4_6 1_555 1_555
H9_6 C6_6 1_555 1_555
N5_6 Cu19_2 1_555 1_555
N6_6 Cu16_2 1_555 1_555
C7_6 N5_6 1_555 1_555
H10_6 C7_6 1_555 1_555
C8_6 C7_6 1_555 1_555
H11_6 C8_6 1_555 1_555
C9_6 N6_6 1_555 1_555
H12_6 C9_6 1_555 1_555
N7_6 N8_6 1_555 1_555
N8_6 Cu4_6 1_555 1_555
C10_6 N7_6 1_555 1_555
H13_6 C10_6 1_555 1_555
C11_6 C10_6 1_555 1_555
H14_6 C11_6 1_555 1_555
C12_6 N8_6 1_555 1_555
H15_6 C12_6 1_555 1_555
N9_5 Cu5_5 1_555 1_555
N10_5 N9_5 1_555 1_555
C13_5 N9_5 1_555 1_555
H16_5 C13_5 1_555 1_555
C14_5 C13_5 1_555 1_555
H17_5 C14_5 1_555 1_555
C15_5 N10_5 1_555 1_555
H18_5 C15_5 1_555 1_555
C25_6 O10_5 1_555 1_555
C26_6 C25_6 1_555 1_555
C27_6 C26_6 1_555 1_555
H25_6 C27_6 1_555 1_555
C28_6 C27_6 1_555 1_555
C29_6 C28_6 1_555 1_555
H26_6 C29_6 1_555 1_555
C30_5 C29_6 1_555 1_555
C31_5 C26_6 1_555 1_555
H27_5 C31_5 1_555 1_555
C32_6 O8_6 1_555 1_555
C33_5 C30_5 1_555 1_555
H28_5 C33_5 1_555 1_555
H29_5 C33_5 1_555 1_555
H30_5 C33_5 1_555 1_555
Cu17_2 O12_6 1_555 1_555
Cu7_6 O12_6 1_555 1_555
Cu20_2 O12_6 1_555 1_555
Cu9_6 O2_8 1_555 1_555
Cu10_5 O3_7 1_555 1_555
O12_6 H31_6 1_555 1_555
O17_6 Cu20_2 1_555 1_555
O18_6 C65_6 1_555 1_555
O19_5 Cu10_5 1_555 1_555
O20_6 Cu9_6 1_555 1_555
N13_6 Cu7_6 1_555 1_555
N14_6 Cu20_2 1_555 1_555
C37_6 N13_6 1_555 1_555
H35_6 C37_6 1_555 1_555
C38_6 C37_6 1_555 1_555
H36_6 C38_6 1_555 1_555
C39_6 N14_6 1_555 1_555
H37_6 C39_6 1_555 1_555
N15_6 Cu20_2 1_555 1_555
N16_6 Cu17_2 1_555 1_555
C40_6 N15_6 1_555 1_555
H38_6 C40_6 1_555 1_555
C41_6 C40_6 1_555 1_555
H39_6 C41_6 1_555 1_555
C42_6 N16_6 1_555 1_555
H40_6 C42_6 1_555 1_555
N17_4 N18_4 1_555 1_555
N18_4 Cu9_6 1_555 1_555
C43_4 N17_4 1_555 1_555
H41_4 C43_4 1_555 1_555
C44_4 C43_4 1_555 1_555
H42_4 C44_4 1_555 1_555
C45_4 N18_4 1_555 1_555
H43_6 C45_4 1_555 1_555
N19_5 Cu10_5 1_555 1_555
N20_5 Cu5_5 1_555 1_555
C46_5 N19_5 1_555 1_555
H44_5 C46_5 1_555 1_555
C47_5 C46_5 1_555 1_555
H45_5 C47_5 1_555 1_555
C48_5 N20_5 1_555 1_555
H46_5 C48_5 1_555 1_555
C58_6 O19_5 1_555 1_555
C59_6 C58_6 1_555 1_555
C60_6 C59_6 1_555 1_555
H53_6 C60_6 1_555 1_555
C61_6 C60_6 1_555 1_555
C62_6 C61_6 1_555 1_555
H54_6 C62_6 1_555 1_555
C63_5 C62_6 1_555 1_555
C64_5 C59_6 1_555 1_555
H55_5 C64_5 1_555 1_555
C65_6 O17_6 1_555 1_555
C66_5 C63_5 1_555 1_555
H56_5 C66_5 1_555 1_555
H57_5 C66_5 1_555 1_555
H58_5 C66_5 1_555 1_555
Cu18_2 O21_6 1_555 1_555
Cu12_6 O21_6 1_555 1_555
Cu21_2 O21_6 1_555 1_555
Cu14_6 O2_8 1_555 1_555
Cu15_5 O3_7 1_555 1_555
O21_6 H59_6 1_555 1_555
O26_6 Cu21_2 1_555 1_555
O27_6 C98_6 1_555 1_555
O28_5 Cu15_5 1_555 1_555
O29_6 Cu14_6 1_555 1_555
N23_6 Cu12_6 1_555 1_555
N24_6 Cu21_2 1_555 1_555
C70_6 N23_6 1_555 1_555
H63_6 C70_6 1_555 1_555
C71_6 C70_6 1_555 1_555
H64_6 C71_6 1_555 1_555
C72_6 N24_6 1_555 1_555
H65_6 C72_6 1_555 1_555
N25_6 Cu21_2 1_555 1_555
N26_6 Cu18_2 1_555 1_555
C73_6 N25_6 1_555 1_555
H66_6 C73_6 1_555 1_555
C74_6 C73_6 1_555 1_555
H67_6 C74_6 1_555 1_555
C75_6 N26_6 1_555 1_555
H68_6 C75_6 1_555 1_555
N27_6 Cu4_6 1_555 1_555
N28_6 Cu14_6 1_555 1_555
C76_6 N27_6 1_555 1_555
H69_6 C76_6 1_555 1_555
C77_6 C76_6 1_555 1_555
H70_6 C77_6 1_555 1_555
C78_6 N28_6 1_555 1_555
H71_6 C78_6 1_555 1_555
N29_3 Cu15_5 1_555 1_555
N30_3 Cu10_5 1_555 1_555
C79_3 N29_3 1_555 1_555
H72_3 C79_3 1_555 1_555
C80_3 C79_3 1_555 1_555
H73_3 C80_3 1_555 1_555
C81_3 N30_3 1_555 1_555
H74_3 C81_3 1_555 1_555
C91_6 O28_5 1_555 1_555
C92_6 C91_6 1_555 1_555
C93_6 C92_6 1_555 1_555
H81_6 C93_6 1_555 1_555
C94_6 C93_6 1_555 1_555
C95_6 C94_6 1_555 1_555
H82_6 C95_6 1_555 1_555
C96_5 C95_6 1_555 1_555
C97_5 C92_6 1_555 1_555
H83_5 C97_5 1_555 1_555
C98_6 O26_6 1_555 1_555
C99_5 C96_5 1_555 1_555
H84_5 C99_5 1_555 1_555
H85_5 C99_5 1_555 1_555
H86_5 C99_5 1_555 1_555
O11_6 C25_6 1_555 1_555
N3_6 N4_6 1_555 1_555
C5_6 C6_6 1_555 1_555
N5_6 N6_6 1_555 1_555
C8_6 C9_6 1_555 1_555
N7_6 Cu9_6 1_555 1_555
C11_6 C12_6 1_555 1_555
N10_5 Cu15_5 1_555 1_555
C14_5 C15_5 1_555 1_555
C28_6 C32_6 1_555 1_555
C30_5 C31_5 1_555 1_555
O20_6 C58_6 1_555 1_555
N13_6 N14_6 1_555 1_555
C38_6 C39_6 1_555 1_555
N15_6 N16_6 1_555 1_555
C41_6 C42_6 1_555 1_555
N17_4 Cu14_6 1_555 1_555
C44_4 C45_4 1_555 1_555
N19_5 N20_5 1_555 1_555
C47_5 C48_5 1_555 1_555
C61_6 C65_6 1_555 1_555
C63_5 C64_5 1_555 1_555
O29_6 C91_6 1_555 1_555
N23_6 N24_6 1_555 1_555
C71_6 C72_6 1_555 1_555
N25_6 N26_6 1_555 1_555
C74_6 C75_6 1_555 1_555
N27_6 N28_6 1_555 1_555
C77_6 C78_6 1_555 1_555
N29_3 N30_3 1_555 1_555
C80_3 C81_3 1_555 1_555
C94_6 C98_6 1_555 1_555
C96_5 C97_5 1_555 1_555
O2_9 H2_9 1_555 1_555
O3_8 H3_8 1_555 1_555
N17_5 N18_5 1_555 1_555
C43_5 N17_5 1_555 1_555
H41_5 C43_5 1_555 1_555
C44_5 C43_5 1_555 1_555
H42_5 C44_5 1_555 1_555
C45_5 N18_5 1_555 1_555
C79_4 N29_4 1_555 1_555
H72_4 C79_4 1_555 1_555
C80_4 C79_4 1_555 1_555
H73_4 C80_4 1_555 1_555
C81_4 N30_4 1_555 1_555
H74_4 C81_4 1_555 1_555
C44_5 C45_5 1_555 1_555
N29_4 N30_4 1_555 1_555
C80_4 C81_4 1_555 1_555
Cu5_6 O3_9 1_555 1_555
O3_9 H3_9 1_555 1_555
O10_6 Cu5_6 1_555 1_555
N9_6 Cu5_6 1_555 1_555
N10_6 N9_6 1_555 1_555
C13_6 N9_6 1_555 1_555
H16_6 C13_6 1_555 1_555
C14_6 C13_6 1_555 1_555
H17_6 C14_6 1_555 1_555
C15_6 N10_6 1_555 1_555
H18_6 C15_6 1_555 1_555
H27_6 C31_6 1_555 1_555
C33_6 C30_6 1_555 1_555
H28_6 C33_6 1_555 1_555
H29_6 C33_6 1_555 1_555
H30_6 C33_6 1_555 1_555
Cu10_6 O3_9 1_555 1_555
O19_6 Cu10_6 1_555 1_555
N19_6 Cu10_6 1_555 1_555
N20_6 Cu5_6 1_555 1_555
C46_6 N19_6 1_555 1_555
H44_6 C46_6 1_555 1_555
C47_6 C46_6 1_555 1_555
H45_6 C47_6 1_555 1_555
C48_6 N20_6 1_555 1_555
H46_6 C48_6 1_555 1_555
H55_6 C64_6 1_555 1_555
C66_6 C63_6 1_555 1_555
H56_6 C66_6 1_555 1_555
H57_6 C66_6 1_555 1_555
H58_6 C66_6 1_555 1_555
Cu15_6 O3_9 1_555 1_555
O28_6 Cu15_6 1_555 1_555
N29_5 Cu15_6 1_555 1_555
N30_5 Cu10_6 1_555 1_555
C79_5 N29_5 1_555 1_555
H72_5 C79_5 1_555 1_555
C80_5 C79_5 1_555 1_555
H73_5 C80_5 1_555 1_555
C81_5 N30_5 1_555 1_555
H74_5 C81_5 1_555 1_555
H83_6 C97_6 1_555 1_555
C99_6 C96_6 1_555 1_555
H84_6 C99_6 1_555 1_555
H85_6 C99_6 1_555 1_555
H86_6 C99_6 1_555 1_555
N10_6 Cu15_6 1_555 1_555
C14_6 C15_6 1_555 1_555
C30_6 C31_6 1_555 1_555
N19_6 N20_6 1_555 1_555
C47_6 C48_6 1_555 1_555
C63_6 C64_6 1_555 1_555
N29_5 N30_5 1_555 1_555
C80_5 C81_5 1_555 1_555
C96_6 C97_6 1_555 1_555
O2_10 H2_10 1_555 1_555
O3_10 H3_10 1_555 1_555
N17_6 N18_6 1_555 1_555
C43_6 N17_6 1_555 1_555
H41_6 C43_6 1_555 1_555
C44_6 C43_6 1_555 1_555
H42_6 C44_6 1_555 1_555
C45_6 N18_6 1_555 1_555
C79_6 N29_6 1_555 1_555
H72_6 C79_6 1_555 1_555
C80_6 C79_6 1_555 1_555
H73_6 C80_6 1_555 1_555
C81_6 N30_6 1_555 1_555
H74_6 C81_6 1_555 1_555
C44_6 C45_6 1_555 1_555
N29_6 N30_6 1_555 1_555
C80_6 C81_6 1_555 1_555
H93 C101 1_555 1_555
H94 C101 1_555 1_555
N31 H87 1_555 1_555
H88 N31 1_555 1_555
C100 N31 1_555 1_555
H89 C100 1_555 1_555
H90 C100 1_555 1_555
H93_2 C101_2 1_555 1_555
H94_2 C101_2 1_555 1_555
N31_2 H87_2 1_555 1_555
H88_2 N31_2 1_555 1_555
C100_2 N31_2 1_555 1_555
H89_2 C100_2 1_555 1_555
H90_2 C100_2 1_555 1_555
H93_3 C101_3 1_555 1_555
H94_3 C101_3 1_555 1_555
N31_3 H87_3 1_555 1_555
H88_3 N31_3 1_555 1_555
C100_3 N31_3 1_555 1_555
H89_3 C100_3 1_555 1_555
H90_3 C100_3 1_555 1_555
N31_4 H87_4 1_555 1_555
H88_4 N31_4 1_555 1_555
C100_4 N31_4 1_555 1_555
H89_4 C100_4 1_555 1_555
H90_4 C100_4 1_555 1_555
H91_4 C100_4 1_555 1_555
C101_4 N31_4 1_555 1_555
H92_4 C101_4 1_555 1_555
H94_4 C101_4 1_555 1_555
N31_5 H87_5 1_555 1_555
H88_5 N31_5 1_555 1_555
C100_5 N31_5 1_555 1_555
H89_5 C100_5 1_555 1_555
H90_5 C100_5 1_555 1_555
H91_5 C100_5 1_555 1_555
C101_5 N31_5 1_555 1_555
H92_5 C101_5 1_555 1_555
H94_5 C101_5 1_555 1_555
N31_6 H87_6 1_555 1_555
H88_6 N31_6 1_555 1_555
C100_6 N31_6 1_555 1_555
H89_6 C100_6 1_555 1_555
H90_6 C100_6 1_555 1_555
H91_6 C100_6 1_555 1_555
C101_6 N31_6 1_555 1_555
H92_6 C101_6 1_555 1_555
H93_6 C101_6 1_555 1_555
H94_6 C101_6 1_555 1_555
N31_7 H87_7 1_555 1_555
H88_7 N31_7 1_555 1_555
C100_7 N31_7 1_555 1_555
H89_7 C100_7 1_555 1_555
H90_7 C100_7 1_555 1_555
H91_7 C100_7 1_555 1_555
C101_7 N31_7 1_555 1_555
H92_7 C101_7 1_555 1_555
H93_7 C101_7 1_555 1_555
H94_7 C101_7 1_555 1_555
N31_8 H87_8 1_555 1_555
H88_8 N31_8 1_555 1_555
C100_8 N31_8 1_555 1_555
H89_8 C100_8 1_555 1_555
H90_8 C100_8 1_555 1_555
H91_8 C100_8 1_555 1_555
C101_8 N31_8 1_555 1_555
H92_8 C101_8 1_555 1_555
H93_8 C101_8 1_555 1_555
H94_8 C101_8 1_555 1_555
N31_9 H87_9 1_555 1_555
H88_9 N31_9 1_555 1_555
C100_9 N31_9 1_555 1_555
H89_9 C100_9 1_555 1_555
H90_9 C100_9 1_555 1_555
H91_9 C100_9 1_555 1_555
C101_9 N31_9 1_555 1_555
H92_9 C101_9 1_555 1_555
H93_9 C101_9 1_555 1_555
H94_9 C101_9 1_555 1_555
N31_10 H87_10 1_555 1_555
H88_10 N31_10 1_555 1_555
C100_10 N31_10 1_555 1_555
H89_10 C100_10 1_555 1_555
H90_10 C100_10 1_555 1_555
H93_10 C101_10 1_555 1_555
H94_10 C101_10 1_555 1_555
N31_11 H87_11 1_555 1_555
H88_11 N31_11 1_555 1_555
C100_11 N31_11 1_555 1_555
H89_11 C100_11 1_555 1_555
H90_11 C100_11 1_555 1_555
H93_11 C101_11 1_555 1_555
H94_11 C101_11 1_555 1_555
N31_12 H87_12 1_555 1_555
H88_12 N31_12 1_555 1_555
C100_12 N31_12 1_555 1_555
H89_12 C100_12 1_555 1_555
H90_12 C100_12 1_555 1_555
H93_12 C101_12 1_555 1_555
H94_12 C101_12 1_555 1_555
N31_13 H87_13 1_555 1_555
H88_13 N31_13 1_555 1_555
C100_13 N31_13 1_555 1_555
H89_13 C100_13 1_555 1_555
H90_13 C100_13 1_555 1_555
H91_13 C100_13 1_555 1_555
C101_13 N31_13 1_555 1_555
H92_13 C101_13 1_555 1_555
H94_13 C101_13 1_555 1_555
N31_14 H87_14 1_555 1_555
H88_14 N31_14 1_555 1_555
C100_14 N31_14 1_555 1_555
H89_14 C100_14 1_555 1_555
H90_14 C100_14 1_555 1_555
H91_14 C100_14 1_555 1_555
C101_14 N31_14 1_555 1_555
H92_14 C101_14 1_555 1_555
H94_14 C101_14 1_555 1_555
N31_15 H87_15 1_555 1_555
H88_15 N31_15 1_555 1_555
C100_15 N31_15 1_555 1_555
H89_15 C100_15 1_555 1_555
H90_15 C100_15 1_555 1_555
H91_15 C100_15 1_555 1_555
C101_15 N31_15 1_555 1_555
H92_15 C101_15 1_555 1_555
H93_15 C101_15 1_555 1_555
H94_15 C101_15 1_555 1_555
N31_16 H87_16 1_555 1_555
H88_16 N31_16 1_555 1_555
C100_16 N31_16 1_555 1_555
H89_16 C100_16 1_555 1_555
H90_16 C100_16 1_555 1_555
H91_16 C100_16 1_555 1_555
C101_16 N31_16 1_555 1_555
H92_16 C101_16 1_555 1_555
H93_16 C101_16 1_555 1_555
H94_16 C101_16 1_555 1_555
N31_17 H87_17 1_555 1_555
H88_17 N31_17 1_555 1_555
C100_17 N31_17 1_555 1_555
H89_17 C100_17 1_555 1_555
H90_17 C100_17 1_555 1_555
H91_17 C100_17 1_555 1_555
C101_17 N31_17 1_555 1_555
H92_17 C101_17 1_555 1_555
H93_17 C101_17 1_555 1_555
H94_17 C101_17 1_555 1_555
N31_18 H87_18 1_555 1_555
H88_18 N31_18 1_555 1_555
C100_18 N31_18 1_555 1_555
H89_18 C100_18 1_555 1_555
H90_18 C100_18 1_555 1_555
H91_18 C100_18 1_555 1_555
C101_18 N31_18 1_555 1_555
H92_18 C101_18 1_555 1_555
H93_18 C101_18 1_555 1_555
H94_18 C101_18 1_555 1_555

#END
