
###############################################################################
#
# This file contains modified crystal structure data generated from the
# MOF subset of the Cambridge Structural Database (CSD) v543 
# hosted by the Cambridge Crystallographic Data Centre (CCDC).
#
# This work is licensed under the Creative Commons
# Attribution-NonCommercial-ShareAlike 4.0 International License.
# To view a copy of this license, visit
# http://creativecommons.org/licenses/by-nc-sa/4.0/
# or send a letter to
# Creative Commons, PO Box 1866, Mountain View, CA 94042, USA.
#
# CIF created using the CSD Python API on 29 September 2022
# The structure has been converted into the P1 space group
# The structure has a 3D framework
# The original CSD entry OBONUO is in the tetragonal crystal system
# The framework has been calculated to contain at least 10.0% void space
# The void calculation uses a probe of radius 1.32A, grid spacing 0.4
# The framework is charged, counterions have been retained in the structure
#
###############################################################################

data_OBONUO
_chemical_formula_moiety         '(C352 H320 B34 Cl6 Cu16 F96 N64 4-)n'
_symmetry_cell_setting           triclinic
_symmetry_space_group_name_H-M   'P 1'
_symmetry_Int_Tables_number      1
_space_group_name_Hall           'P 1'
loop_
_symmetry_equiv_pos_site_id
_symmetry_equiv_pos_as_xyz
1 x,y,z
_cell_length_a                   21.479(2)
_cell_length_b                   21.479(2)
_cell_length_c                   29.303(3)
_cell_angle_alpha                90
_cell_angle_beta                 90
_cell_angle_gamma                90
_cell_volume                     13518.9
loop_
_atom_site_label
_atom_site_type_symbol
_atom_site_fract_x
_atom_site_fract_y
_atom_site_fract_z
C1 C 0.1860(9) 0.0237(8) 0.8013(7)
H1 H 0.1476 0.0435 0.7991
C5 C 0.2919(8) 0.0268(7) 0.8056(6)
C6 C 0.3483(8) 0.0704(8) 0.8053(6)
C7 C 0.4087(10) 0.0535(13) 0.8147(11)
H5 H 0.4183 0.0118 0.8196
C8 C 0.4553(11) 0.0979(16) 0.8168(9)
H6 H 0.4940 0.0885 0.8294
N1 N 0.1538(5) 0.1599(5) 0.7793(5)
C9 C 0.1165(7) 0.1681(8) 0.8128(9)
H7 H 0.1331 0.1702 0.8421
C10 C 0.0523(10) 0.1740(10) 0.8078(10)
H8 H 0.0282 0.1801 0.8338
C11 C 0.0233(7) 0.1713(13) 0.7666(10)
C12 C 0.0657(10) 0.1643(13) 0.7291(10)
H9 H 0.0508 0.1655 0.6994
C13 C 0.1303(7) 0.1555(10) 0.7371(8)
H10 H 0.1566 0.1466 0.7127
C21 C 0.4434(9) 0.1544(15) 0.8004(8)
H19 H 0.4746 0.1838 0.7959
C22 C 0.3839(6) 0.1663(9) 0.7909(6)
H20 H 0.3748 0.2073 0.7832
N3 N 0.2389(5) 0.0558(4) 0.7960(4)
N4 N 0.3373(4) 0.1283(6) 0.7910(4)
Cl1 Cl 0.2500 0.16475(18) 0.8750
Cu1 Cu 0.24658(7) 0.14836(7) 0.78773(5)
N5 N 0.3401(5) 0.6538(5) 0.7207(5)
C23 C 0.3319(8) 0.6165(7) 0.6872(9)
H21 H 0.3298 0.6331 0.6579
C24 C 0.3260(10) 0.5523(10) 0.6922(10)
H22 H 0.3199 0.5282 0.6662
C25 C 0.3287(13) 0.5233(7) 0.7334(10)
C26 C 0.3357(13) 0.5657(10) 0.7709(10)
H23 H 0.3345 0.5508 0.8006
C27 C 0.3445(10) 0.6303(7) 0.7629(8)
H24 H 0.3534 0.6566 0.7873
C28 C 0.3292(7) 0.4522(8) 0.7387(8)
H25 H 0.3429 0.4406 0.7690
H26 H 0.3569 0.4335 0.7164
N6 N 0.2586(5) 0.2397(5) 0.7703(5)
C29 C 0.2669(7) 0.2563(6) 0.7274(6)
H27 H 0.2702 0.2251 0.7054
C30 C 0.2710(7) 0.3166(7) 0.7134(7)
H28 H 0.2793 0.3263 0.6831
C31 C 0.2625(7) 0.3629(13) 0.7452(7)
C32 C 0.2598(9) 0.3453(19) 0.7888(7)
H29 H 0.2599 0.3751 0.8119
C33 C 0.2570(8) 0.2815(16) 0.7999(7)
H30 H 0.2538 0.2701 0.8304
C34 C 0.2624(8) 0.4309(8) 0.7307(8)
H31 H 0.2335 0.4549 0.7490
H32 H 0.2510 0.4350 0.6988
Cu2 Cu 0.35164(7) 0.74658(7) 0.71227(5)
C35 C 0.4763(8) 0.6860(9) 0.6987(7)
H33 H 0.4565 0.6476 0.7009
C36 C 0.5421(11) 0.6897(17) 0.6894(9)
H34 H 0.5657 0.6534 0.6891
C37 C 0.5682(10) 0.7410(17) 0.6816(9)
H35 H 0.6103 0.7420 0.6743
C38 C 0.5333(9) 0.7986(13) 0.6837(8)
H36 H 0.5513 0.8372 0.6782
C39 C 0.4732(7) 0.7919(8) 0.6944(6)
C40 C 0.4296(8) 0.8483(8) 0.6947(6)
C41 C 0.4465(13) 0.9087(10) 0.6853(11)
H37 H 0.4882 0.9183 0.6804
C42 C 0.4021(16) 0.9553(11) 0.6832(9)
H38 H 0.4115 0.9940 0.6706
C43 C 0.3456(15) 0.9434(9) 0.6996(8)
H39 H 0.3162 0.9746 0.7041
C44 C 0.3337(9) 0.8839(6) 0.7091(6)
H40 H 0.2927 0.8748 0.7168
N7 N 0.4442(4) 0.7389(5) 0.7040(4)
N8 N 0.3717(6) 0.8373(4) 0.7090(4)
Cu4 Cu 0.25342(7) 0.14836(7) 0.96227(5)
N9 N 0.2603(5) 0.7586(5) 0.7297(5)
Cl2 Cl 0.33525(18) 0.7500 0.6250
C14 C 0.9522(8) 0.1708(7) 0.7613(8)
H11 H 0.9406 0.1571 0.7310
H12 H 0.9335 0.1431 0.7836
N2 N 0.7397(5) 0.2414(5) 0.7297(5)
C15 C 0.7563(6) 0.2331(7) 0.7726(6)
H13 H 0.7251 0.2298 0.7946
C16 C 0.8166(7) 0.2290(7) 0.7866(7)
H14 H 0.8263 0.2207 0.8169
C17 C 0.8629(13) 0.2375(7) 0.7548(7)
C18 C 0.8453(19) 0.2402(9) 0.7112(7)
H15 H 0.8751 0.2401 0.6881
C19 C 0.7815(16) 0.2430(8) 0.7001(7)
H16 H 0.7701 0.2462 0.6696
C20 C 0.9309(8) 0.2376(8) 0.7693(8)
H17 H 0.9549 0.2665 0.7510
H18 H 0.9350 0.2490 0.8012
Cu3 Cu 0.64836(7) 0.25342(7) 0.71227(5)
C14_2 C 0.0478(8) 0.8292(7) 0.7613(8)
H11_2 H 0.0594 0.8429 0.7310
H12_2 H 0.0665 0.8569 0.7836
C15_2 C 0.2437(6) 0.7669(7) 0.7726(6)
H13_2 H 0.2749 0.7702 0.7946
C16_2 C 0.1834(7) 0.7710(7) 0.7866(7)
H14_2 H 0.1737 0.7793 0.8169
C17_2 C 0.1371(13) 0.7625(7) 0.7548(7)
C18_2 C 0.1547(19) 0.7598(9) 0.7112(7)
H15_2 H 0.1249 0.7599 0.6881
C19_2 C 0.2185(16) 0.7570(8) 0.7001(7)
H16_2 H 0.2299 0.7538 0.6696
C20_2 C 0.0691(8) 0.7624(8) 0.7693(8)
H17_2 H 0.0451 0.7335 0.7510
H18_2 H 0.0650 0.7510 0.8012
C1_2 C 0.8140(9) 0.9763(8) 0.8013(7)
H1_2 H 0.8524 0.9565 0.7991
C5_2 C 0.7081(8) 0.9732(7) 0.8056(6)
C6_2 C 0.6517(8) 0.9296(8) 0.8053(6)
C7_2 C 0.5913(10) 0.9465(13) 0.8147(11)
H5_2 H 0.5817 0.9882 0.8196
C8_2 C 0.5447(11) 0.9021(16) 0.8168(9)
H6_2 H 0.5060 0.9115 0.8294
N1_2 N 0.8462(5) 0.8401(5) 0.7793(5)
C9_2 C 0.8835(7) 0.8319(8) 0.8128(9)
H7_2 H 0.8669 0.8298 0.8421
C10_2 C 0.9477(10) 0.8260(10) 0.8078(10)
H8_2 H 0.9718 0.8199 0.8338
C11_2 C 0.9767(7) 0.8287(13) 0.7666(10)
C12_2 C 0.9343(10) 0.8357(13) 0.7291(10)
H9_2 H 0.9492 0.8345 0.6994
C13_2 C 0.8697(7) 0.8445(10) 0.7371(8)
H10_2 H 0.8434 0.8534 0.7127
C21_2 C 0.5566(9) 0.8456(15) 0.8004(8)
H19_2 H 0.5254 0.8162 0.7959
C22_2 C 0.6161(6) 0.8337(9) 0.7909(6)
H20_2 H 0.6252 0.7927 0.7832
N3_2 N 0.7611(5) 0.9442(4) 0.7960(4)
N4_2 N 0.6627(4) 0.8717(6) 0.7910(4)
Cl1_2 Cl 0.7500 0.83525(18) 0.8750
Cu1_2 Cu 0.75342(7) 0.85164(7) 0.78773(5)
N5_2 N 0.6599(5) 0.3462(5) 0.7207(5)
C23_2 C 0.6681(8) 0.3835(7) 0.6872(9)
H21_2 H 0.6702 0.3669 0.6579
C24_2 C 0.6740(10) 0.4477(10) 0.6922(10)
H22_2 H 0.6801 0.4718 0.6662
C25_2 C 0.6713(13) 0.4767(7) 0.7334(10)
C26_2 C 0.6643(13) 0.4343(10) 0.7709(10)
H23_2 H 0.6655 0.4492 0.8006
C27_2 C 0.6555(10) 0.3697(7) 0.7629(8)
H24_2 H 0.6466 0.3434 0.7873
C28_2 C 0.6708(7) 0.5478(8) 0.7387(8)
H25_2 H 0.6571 0.5594 0.7690
H26_2 H 0.6431 0.5665 0.7164
N6_2 N 0.7414(5) 0.7603(5) 0.7703(5)
C29_2 C 0.7331(7) 0.7437(6) 0.7274(6)
H27_2 H 0.7298 0.7749 0.7054
C30_2 C 0.7290(7) 0.6834(7) 0.7134(7)
H28_2 H 0.7207 0.6737 0.6831
C31_2 C 0.7375(7) 0.6371(13) 0.7452(7)
C32_2 C 0.7402(9) 0.6547(19) 0.7888(7)
H29_2 H 0.7401 0.6249 0.8119
C33_2 C 0.7430(8) 0.7185(16) 0.7999(7)
H30_2 H 0.7462 0.7299 0.8304
C34_2 C 0.7376(8) 0.5691(8) 0.7307(8)
H31_2 H 0.7665 0.5451 0.7490
H32_2 H 0.7490 0.5650 0.6988
C35_2 C 0.5237(8) 0.3140(9) 0.6987(7)
H33_2 H 0.5435 0.3524 0.7009
C36_2 C 0.4579(11) 0.3103(17) 0.6894(9)
H34_2 H 0.4343 0.3466 0.6891
C37_2 C 0.4318(10) 0.2590(17) 0.6816(9)
H35_2 H 0.3897 0.2580 0.6743
C38_2 C 0.4667(9) 0.2014(13) 0.6837(8)
H36_2 H 0.4487 0.1628 0.6782
C39_2 C 0.5268(7) 0.2081(8) 0.6944(6)
C40_2 C 0.5704(8) 0.1517(8) 0.6947(6)
C41_2 C 0.5535(13) 0.0913(10) 0.6853(11)
H37_2 H 0.5118 0.0817 0.6804
C42_2 C 0.5979(16) 0.0447(11) 0.6832(9)
H38_2 H 0.5885 0.0060 0.6706
C43_2 C 0.6544(15) 0.0566(9) 0.6996(8)
H39_2 H 0.6838 0.0254 0.7041
C44_2 C 0.6663(9) 0.1161(6) 0.7091(6)
H40_2 H 0.7073 0.1252 0.7168
N7_2 N 0.5558(4) 0.2611(5) 0.7040(4)
N8_2 N 0.6283(6) 0.1627(4) 0.7090(4)
Cu4_2 Cu 0.74658(7) 0.85164(7) 0.96227(5)
Cl2_2 Cl 0.66475(18) 0.2500 0.6250
N5_3 N 0.3401(5) 0.8462(5) 0.5293(5)
C23_3 C 0.3319(8) 0.8835(7) 0.5628(9)
H21_3 H 0.3298 0.8669 0.5921
C24_3 C 0.3260(10) 0.9477(10) 0.5578(10)
H22_3 H 0.3199 0.9718 0.5838
C25_3 C 0.3287(13) 0.9767(7) 0.5166(10)
C26_3 C 0.3357(13) 0.9343(10) 0.4791(10)
H23_3 H 0.3345 0.9492 0.4494
C27_3 C 0.3445(10) 0.8697(7) 0.4871(8)
H24_3 H 0.3534 0.8434 0.4627
Cu2_2 Cu 0.35164(7) 0.75342(7) 0.53773(5)
C35_3 C 0.4763(8) 0.8140(9) 0.5513(7)
H33_3 H 0.4565 0.8524 0.5491
C36_3 C 0.5421(11) 0.8103(17) 0.5606(9)
H34_3 H 0.5657 0.8466 0.5609
C37_3 C 0.5682(10) 0.7590(17) 0.5684(9)
H35_3 H 0.6103 0.7580 0.5757
C38_3 C 0.5333(9) 0.7014(13) 0.5663(8)
H36_3 H 0.5513 0.6628 0.5718
C39_3 C 0.4732(7) 0.7081(8) 0.5556(6)
C40_3 C 0.4296(8) 0.6517(8) 0.5553(6)
C41_3 C 0.4465(13) 0.5913(10) 0.5647(11)
H37_3 H 0.4882 0.5817 0.5696
C42_3 C 0.4021(16) 0.5447(11) 0.5668(9)
H38_3 H 0.4115 0.5060 0.5794
C43_3 C 0.3456(15) 0.5566(9) 0.5504(8)
H39_3 H 0.3162 0.5254 0.5459
C44_3 C 0.3337(9) 0.6161(6) 0.5409(6)
H40_3 H 0.2927 0.6252 0.5332
N7_3 N 0.4442(4) 0.7611(5) 0.5460(4)
N8_3 N 0.3717(6) 0.6627(4) 0.5410(4)
N9_2 N 0.2603(5) 0.7414(5) 0.5203(5)
C14_3 C 0.9522(8) 0.3292(7) 0.4887(8)
H11_3 H 0.9406 0.3429 0.5190
H12_3 H 0.9335 0.3569 0.4664
N2_2 N 0.7397(5) 0.2586(5) 0.5203(5)
C15_3 C 0.7563(6) 0.2669(7) 0.4774(6)
H13_3 H 0.7251 0.2702 0.4554
C16_3 C 0.8166(7) 0.2710(7) 0.4634(7)
H14_3 H 0.8263 0.2793 0.4331
C17_3 C 0.8629(13) 0.2625(7) 0.4952(7)
C18_3 C 0.8453(19) 0.2598(9) 0.5388(7)
H15_3 H 0.8751 0.2599 0.5619
C19_3 C 0.7815(16) 0.2570(8) 0.5499(7)
H16_3 H 0.7701 0.2538 0.5804
C20_3 C 0.9309(8) 0.2624(8) 0.4807(8)
H17_3 H 0.9549 0.2335 0.4990
H18_3 H 0.9350 0.2510 0.4488
Cu3_2 Cu 0.64836(7) 0.24658(7) 0.53773(5)
C14_4 C 0.0478(8) 0.6708(7) 0.4887(8)
H11_4 H 0.0594 0.6571 0.5190
H12_4 H 0.0665 0.6431 0.4664
C15_4 C 0.2437(6) 0.7331(7) 0.4774(6)
H13_4 H 0.2749 0.7298 0.4554
C16_4 C 0.1834(7) 0.7290(7) 0.4634(7)
H14_4 H 0.1737 0.7207 0.4331
C17_4 C 0.1371(13) 0.7375(7) 0.4952(7)
C18_4 C 0.1547(19) 0.7402(9) 0.5388(7)
H15_4 H 0.1249 0.7401 0.5619
C19_4 C 0.2185(16) 0.7430(8) 0.5499(7)
H16_4 H 0.2299 0.7462 0.5804
C20_4 C 0.0691(8) 0.7376(8) 0.4807(8)
H17_4 H 0.0451 0.7665 0.4990
H18_4 H 0.0650 0.7490 0.4488
N5_4 N 0.6599(5) 0.1538(5) 0.5293(5)
C23_4 C 0.6681(8) 0.1165(7) 0.5628(9)
H21_4 H 0.6702 0.1331 0.5921
C24_4 C 0.6740(10) 0.0523(10) 0.5578(10)
H22_4 H 0.6801 0.0282 0.5838
C25_4 C 0.6713(13) 0.0233(7) 0.5166(10)
C26_4 C 0.6643(13) 0.0657(10) 0.4791(10)
H23_4 H 0.6655 0.0508 0.4494
C27_4 C 0.6555(10) 0.1303(7) 0.4871(8)
H24_4 H 0.6466 0.1566 0.4627
C35_4 C 0.5237(8) 0.1860(9) 0.5513(7)
H33_4 H 0.5435 0.1476 0.5491
C36_4 C 0.4579(11) 0.1897(17) 0.5606(9)
H34_4 H 0.4343 0.1534 0.5609
C37_4 C 0.4318(10) 0.2410(17) 0.5684(9)
H35_4 H 0.3897 0.2420 0.5757
C38_4 C 0.4667(9) 0.2986(13) 0.5663(8)
H36_4 H 0.4487 0.3372 0.5718
C39_4 C 0.5268(7) 0.2919(8) 0.5556(6)
C40_4 C 0.5704(8) 0.3483(8) 0.5553(6)
C41_4 C 0.5535(13) 0.4087(10) 0.5647(11)
H37_4 H 0.5118 0.4183 0.5696
C42_4 C 0.5979(16) 0.4553(11) 0.5668(9)
H38_4 H 0.5885 0.4940 0.5794
C43_4 C 0.6544(15) 0.4434(9) 0.5504(8)
H39_4 H 0.6838 0.4746 0.5459
C44_4 C 0.6663(9) 0.3839(6) 0.5409(6)
H40_4 H 0.7073 0.3748 0.5332
N7_4 N 0.5558(4) 0.2389(5) 0.5460(4)
N8_4 N 0.6283(6) 0.3373(4) 0.5410(4)
C12_3 C 0.1643(13) 0.5657(10) 0.9791(10)
H9_3 H 0.1655 0.5508 0.9494
C13_3 C 0.1555(10) 0.6303(7) 0.9871(8)
H10_3 H 0.1466 0.6566 0.9627
H11_5 H 0.1571 0.4406 0.9810
N2_3 N 0.2414(5) 0.2397(5) 0.9797(5)
C18_5 C 0.2402(9) 0.3453(19) 0.9612(7)
H15_5 H 0.2401 0.3751 0.9381
C19_5 C 0.2430(8) 0.2815(16) 0.9501(7)
H16_5 H 0.2462 0.2701 0.9196
N5_5 N 0.6538(5) 0.8401(5) 0.9707(5)
C23_5 C 0.6165(7) 0.8319(8) 0.9372(9)
H21_5 H 0.6331 0.8298 0.9079
C24_5 C 0.5523(10) 0.8260(10) 0.9422(10)
H22_5 H 0.5282 0.8199 0.9162
C25_5 C 0.5233(7) 0.8287(13) 0.9834(10)
C28_3 C 0.4522(8) 0.8292(7) 0.9887(8)
H26_3 H 0.4335 0.8569 0.9664
C29_3 C 0.2563(6) 0.7669(7) 0.9774(6)
H27_3 H 0.2251 0.7702 0.9554
C30_3 C 0.3166(7) 0.7710(7) 0.9634(7)
H28_3 H 0.3263 0.7793 0.9331
C31_3 C 0.3629(13) 0.7625(7) 0.9952(7)
C34_3 C 0.4309(8) 0.7624(8) 0.9807(8)
H31_3 H 0.4549 0.7335 0.9990
H32_3 H 0.4350 0.7510 0.9488
C35_5 C 0.6860(9) 0.9763(8) 0.9487(7)
H33_5 H 0.6476 0.9565 0.9509
C39_5 C 0.7919(8) 0.9732(7) 0.9444(6)
C40_5 C 0.8483(8) 0.9296(8) 0.9447(6)
C41_5 C 0.9087(10) 0.9465(13) 0.9353(11)
H37_5 H 0.9183 0.9882 0.9304
C42_5 C 0.9553(11) 0.9021(16) 0.9332(9)
H38_5 H 0.9940 0.9115 0.9206
C43_5 C 0.9434(9) 0.8456(15) 0.9496(8)
H39_5 H 0.9746 0.8162 0.9541
C44_5 C 0.8839(6) 0.8337(9) 0.9591(6)
H40_5 H 0.8748 0.7927 0.9668
N7_5 N 0.7389(5) 0.9442(4) 0.9540(4)
N8_5 N 0.8373(4) 0.8717(6) 0.9590(4)
N9_3 N 0.7586(5) 0.7603(5) 0.9797(5)
C12_4 C 0.8357(13) 0.4343(10) 0.9791(10)
H9_4 H 0.8345 0.4492 0.9494
C13_4 C 0.8445(10) 0.3697(7) 0.9871(8)
H10_4 H 0.8534 0.3434 0.9627
H11_6 H 0.8429 0.5594 0.9810
C18_6 C 0.7598(9) 0.6547(19) 0.9612(7)
H15_6 H 0.7599 0.6249 0.9381
C19_6 C 0.7570(8) 0.7185(16) 0.9501(7)
H16_6 H 0.7538 0.7299 0.9196
N5_6 N 0.3462(5) 0.1599(5) 0.9707(5)
C23_6 C 0.3835(7) 0.1681(8) 0.9372(9)
H21_6 H 0.3669 0.1702 0.9079
C24_6 C 0.4477(10) 0.1740(10) 0.9422(10)
H22_6 H 0.4718 0.1801 0.9162
C25_6 C 0.4767(7) 0.1713(13) 0.9834(10)
C28_4 C 0.5478(8) 0.1708(7) 0.9887(8)
H26_4 H 0.5665 0.1431 0.9664
C29_4 C 0.7437(6) 0.2331(7) 0.9774(6)
H27_4 H 0.7749 0.2298 0.9554
C30_4 C 0.6834(7) 0.2290(7) 0.9634(7)
H28_4 H 0.6737 0.2207 0.9331
C31_4 C 0.6371(13) 0.2375(7) 0.9952(7)
C34_4 C 0.5691(8) 0.2376(8) 0.9807(8)
H31_4 H 0.5451 0.2665 0.9990
H32_4 H 0.5650 0.2490 0.9488
C35_6 C 0.3140(9) 0.0237(8) 0.9487(7)
H33_6 H 0.3524 0.0435 0.9509
C39_6 C 0.2081(8) 0.0268(7) 0.9444(6)
C40_6 C 0.1517(8) 0.0704(8) 0.9447(6)
C41_6 C 0.0913(10) 0.0535(13) 0.9353(11)
H37_6 H 0.0817 0.0118 0.9304
C42_6 C 0.0447(11) 0.0979(16) 0.9332(9)
H38_6 H 0.0060 0.0885 0.9206
C43_6 C 0.0566(9) 0.1544(15) 0.9496(8)
H39_6 H 0.0254 0.1838 0.9541
C44_6 C 0.1161(6) 0.1663(9) 0.9591(6)
H40_6 H 0.1252 0.2073 0.9668
N7_6 N 0.2611(5) 0.0558(4) 0.9540(4)
N8_6 N 0.1627(4) 0.1283(6) 0.9590(4)
C2 C 0.1897(17) 0.9579(11) 0.8106(9)
H2 H 0.1534 0.9343 0.8109
C3 C 0.2410(17) 0.9318(10) 0.8184(9)
H3 H 0.2420 0.8897 0.8257
C4 C 0.2986(13) 0.9667(9) 0.8163(8)
H4 H 0.3372 0.9487 0.8218
C2_2 C 0.8103(17) 0.0421(11) 0.8106(9)
H2_2 H 0.8466 0.0657 0.8109
C3_2 C 0.7590(17) 0.0682(10) 0.8184(9)
H3_2 H 0.7580 0.1103 0.8257
C4_2 C 0.7014(13) 0.0333(9) 0.8163(8)
H4_2 H 0.6628 0.0513 0.8218
C1_3 C 0.1860(9) 0.4763(8) 0.4487(7)
H1_3 H 0.1476 0.4565 0.4509
C2_3 C 0.1897(17) 0.5421(11) 0.4394(9)
H2_3 H 0.1534 0.5657 0.4391
C3_3 C 0.2410(17) 0.5682(10) 0.4316(9)
H3_3 H 0.2420 0.6103 0.4243
C4_3 C 0.2986(13) 0.5333(9) 0.4337(8)
H4_3 H 0.3372 0.5513 0.4282
C5_3 C 0.2919(8) 0.4732(7) 0.4444(6)
C6_3 C 0.3483(8) 0.4296(8) 0.4447(6)
C7_3 C 0.4087(10) 0.4465(13) 0.4353(11)
H5_3 H 0.4183 0.4882 0.4304
C8_3 C 0.4553(11) 0.4021(16) 0.4332(9)
H6_3 H 0.4940 0.4115 0.4206
N1_3 N 0.1538(5) 0.3401(5) 0.4707(5)
C9_3 C 0.1165(7) 0.3319(8) 0.4372(9)
H7_3 H 0.1331 0.3298 0.4079
C10_3 C 0.0523(10) 0.3260(10) 0.4422(10)
H8_3 H 0.0282 0.3199 0.4162
C11_3 C 0.0233(7) 0.3287(13) 0.4834(10)
C12_5 C 0.0657(10) 0.3357(13) 0.5209(10)
H9_5 H 0.0508 0.3345 0.5506
C13_5 C 0.1303(7) 0.3445(10) 0.5129(8)
H10_5 H 0.1566 0.3534 0.5373
C21_3 C 0.4434(9) 0.3456(15) 0.4496(8)
H19_3 H 0.4746 0.3162 0.4541
C22_3 C 0.3839(6) 0.3337(9) 0.4591(6)
H20_3 H 0.3748 0.2927 0.4668
N3_3 N 0.2389(5) 0.4442(4) 0.4540(4)
N4_3 N 0.3373(4) 0.3717(6) 0.4590(4)
Cl1_3 Cl 0.2500 0.33525(18) 0.3750
Cu1_3 Cu 0.24658(7) 0.35164(7) 0.46227(5)
C28_5 C 0.3292(7) 0.0478(8) 0.5113(8)
H25_3 H 0.3429 0.0594 0.4810
H26_5 H 0.3569 0.0665 0.5336
N6_3 N 0.2586(5) 0.2603(5) 0.4797(5)
C29_5 C 0.2669(7) 0.2437(6) 0.5226(6)
H27_5 H 0.2702 0.2749 0.5446
C30_5 C 0.2710(7) 0.1834(7) 0.5366(7)
H28_5 H 0.2793 0.1737 0.5669
C31_5 C 0.2625(7) 0.1371(13) 0.5048(7)
C32_3 C 0.2598(9) 0.1547(19) 0.4612(7)
H29_3 H 0.2599 0.1249 0.4381
C33_3 C 0.2570(8) 0.2185(16) 0.4501(7)
H30_3 H 0.2538 0.2299 0.4196
C34_5 C 0.2624(8) 0.0691(8) 0.5193(8)
H31_5 H 0.2335 0.0451 0.5010
H32_5 H 0.2510 0.0650 0.5512
Cu4_3 Cu 0.25342(7) 0.35164(7) 0.28773(5)
C1_4 C 0.8140(9) 0.5237(8) 0.4487(7)
H1_4 H 0.8524 0.5435 0.4509
C2_4 C 0.8103(17) 0.4579(11) 0.4394(9)
H2_4 H 0.8466 0.4343 0.4391
C3_4 C 0.7590(17) 0.4318(10) 0.4316(9)
H3_4 H 0.7580 0.3897 0.4243
C4_4 C 0.7014(13) 0.4667(9) 0.4337(8)
H4_4 H 0.6628 0.4487 0.4282
C5_4 C 0.7081(8) 0.5268(7) 0.4444(6)
C6_4 C 0.6517(8) 0.5704(8) 0.4447(6)
C7_4 C 0.5913(10) 0.5535(13) 0.4353(11)
H5_4 H 0.5817 0.5118 0.4304
C8_4 C 0.5447(11) 0.5979(16) 0.4332(9)
H6_4 H 0.5060 0.5885 0.4206
N1_4 N 0.8462(5) 0.6599(5) 0.4707(5)
C9_4 C 0.8835(7) 0.6681(8) 0.4372(9)
H7_4 H 0.8669 0.6702 0.4079
C10_4 C 0.9477(10) 0.6740(10) 0.4422(10)
H8_4 H 0.9718 0.6801 0.4162
C11_4 C 0.9767(7) 0.6713(13) 0.4834(10)
C12_6 C 0.9343(10) 0.6643(13) 0.5209(10)
H9_6 H 0.9492 0.6655 0.5506
C13_6 C 0.8697(7) 0.6555(10) 0.5129(8)
H10_6 H 0.8434 0.6466 0.5373
C21_4 C 0.5566(9) 0.6544(15) 0.4496(8)
H19_4 H 0.5254 0.6838 0.4541
C22_4 C 0.6161(6) 0.6663(9) 0.4591(6)
H20_4 H 0.6252 0.7073 0.4668
N3_4 N 0.7611(5) 0.5558(4) 0.4540(4)
N4_4 N 0.6627(4) 0.6283(6) 0.4590(4)
Cl1_4 Cl 0.7500 0.66475(18) 0.3750
Cu1_4 Cu 0.75342(7) 0.64836(7) 0.46227(5)
C28_6 C 0.6708(7) 0.9522(8) 0.5113(8)
H25_4 H 0.6571 0.9406 0.4810
H26_6 H 0.6431 0.9335 0.5336
N6_4 N 0.7414(5) 0.7397(5) 0.4797(5)
C29_6 C 0.7331(7) 0.7563(6) 0.5226(6)
H27_6 H 0.7298 0.7251 0.5446
C30_6 C 0.7290(7) 0.8166(7) 0.5366(7)
H28_6 H 0.7207 0.8263 0.5669
C31_6 C 0.7375(7) 0.8629(13) 0.5048(7)
C32_4 C 0.7402(9) 0.8453(19) 0.4612(7)
H29_4 H 0.7401 0.8751 0.4381
C33_4 C 0.7430(8) 0.7815(16) 0.4501(7)
H30_4 H 0.7462 0.7701 0.4196
C34_6 C 0.7376(8) 0.9309(8) 0.5193(8)
H31_6 H 0.7665 0.9549 0.5010
H32_6 H 0.7490 0.9350 0.5512
Cu4_4 Cu 0.74658(7) 0.64836(7) 0.28773(5)
C1_5 C 0.0237(8) 0.6860(9) 0.0513(7)
H1_5 H 0.0435 0.6476 0.0491
C5_5 C 0.0268(7) 0.7919(8) 0.0556(6)
C6_5 C 0.0704(8) 0.8483(8) 0.0553(6)
C7_5 C 0.0535(13) 0.9087(10) 0.0647(11)
H5_5 H 0.0118 0.9183 0.0696
C8_5 C 0.0979(16) 0.9553(11) 0.0668(9)
H6_5 H 0.0885 0.9940 0.0794
N1_5 N 0.1599(5) 0.6538(5) 0.0293(5)
C9_5 C 0.1681(8) 0.6165(7) 0.0628(9)
H7_5 H 0.1702 0.6331 0.0921
C10_5 C 0.1740(10) 0.5523(10) 0.0578(10)
H8_5 H 0.1801 0.5282 0.0838
C11_5 C 0.1713(13) 0.5233(7) 0.0166(10)
C14_5 C 0.1708(7) 0.4522(8) 0.0113(8)
H12_5 H 0.1431 0.4335 0.0336
C15_5 C 0.2331(7) 0.2563(6) 0.0226(6)
H13_5 H 0.2298 0.2251 0.0446
C16_5 C 0.2290(7) 0.3166(7) 0.0366(7)
H14_5 H 0.2207 0.3263 0.0669
C17_5 C 0.2375(7) 0.3629(13) 0.0048(7)
C20_5 C 0.2376(8) 0.4309(8) 0.0193(8)
H17_5 H 0.2665 0.4549 0.0010
H18_5 H 0.2490 0.4350 0.0512
C21_5 C 0.1544(15) 0.9434(9) 0.0504(8)
H19_5 H 0.1838 0.9746 0.0459
C22_5 C 0.1663(9) 0.8839(6) 0.0409(6)
H20_5 H 0.2073 0.8748 0.0332
N3_5 N 0.0558(4) 0.7389(5) 0.0460(4)
N4_5 N 0.1283(6) 0.8373(4) 0.0410(4)
Cl1_5 Cl 0.16475(18) 0.7500 0.1250
Cu1_5 Cu 0.14836(7) 0.74658(7) 0.03773(5)
C26_5 C 0.5657(10) 0.8357(13) 0.0209(10)
H23_5 H 0.5508 0.8345 0.0506
C27_5 C 0.6303(7) 0.8445(10) 0.0129(8)
H24_5 H 0.6566 0.8534 0.0373
H25_5 H 0.4406 0.8429 0.0190
N6_5 N 0.2397(5) 0.7586(5) 0.0203(5)
C32_5 C 0.3453(19) 0.7598(9) 0.0388(7)
H29_5 H 0.3751 0.7599 0.0619
C33_5 C 0.2815(16) 0.7570(8) 0.0499(7)
H30_5 H 0.2701 0.7538 0.0804
Cu4_5 Cu 0.14836(7) 0.75342(7) 0.21227(5)
C1_6 C 0.9763(8) 0.3140(9) 0.0513(7)
H1_6 H 0.9565 0.3524 0.0491
C5_6 C 0.9732(7) 0.2081(8) 0.0556(6)
C6_6 C 0.9296(8) 0.1517(8) 0.0553(6)
C7_6 C 0.9465(13) 0.0913(10) 0.0647(11)
H5_6 H 0.9882 0.0817 0.0696
C8_6 C 0.9021(16) 0.0447(11) 0.0668(9)
H6_6 H 0.9115 0.0060 0.0794
N1_6 N 0.8401(5) 0.3462(5) 0.0293(5)
C9_6 C 0.8319(8) 0.3835(7) 0.0628(9)
H7_6 H 0.8298 0.3669 0.0921
C10_6 C 0.8260(10) 0.4477(10) 0.0578(10)
H8_6 H 0.8199 0.4718 0.0838
C11_6 C 0.8287(13) 0.4767(7) 0.0166(10)
C14_6 C 0.8292(7) 0.5478(8) 0.0113(8)
H12_6 H 0.8569 0.5665 0.0336
C15_6 C 0.7669(7) 0.7437(6) 0.0226(6)
H13_6 H 0.7702 0.7749 0.0446
C16_6 C 0.7710(7) 0.6834(7) 0.0366(7)
H14_6 H 0.7793 0.6737 0.0669
C17_6 C 0.7625(7) 0.6371(13) 0.0048(7)
C20_6 C 0.7624(8) 0.5691(8) 0.0193(8)
H17_6 H 0.7335 0.5451 0.0010
H18_6 H 0.7510 0.5650 0.0512
C21_6 C 0.8456(15) 0.0566(9) 0.0504(8)
H19_6 H 0.8162 0.0254 0.0459
C22_6 C 0.8337(9) 0.1161(6) 0.0409(6)
H20_6 H 0.7927 0.1252 0.0332
N3_6 N 0.9442(4) 0.2611(5) 0.0460(4)
N4_6 N 0.8717(6) 0.1627(4) 0.0410(4)
Cl1_6 Cl 0.83525(18) 0.2500 0.1250
Cu1_6 Cu 0.85164(7) 0.25342(7) 0.03773(5)
C26_6 C 0.4343(10) 0.1643(13) 0.0209(10)
H23_6 H 0.4492 0.1655 0.0506
C27_6 C 0.3697(7) 0.1555(10) 0.0129(8)
H24_6 H 0.3434 0.1466 0.0373
H25_6 H 0.5594 0.1571 0.0190
N6_6 N 0.7603(5) 0.2414(5) 0.0203(5)
C32_6 C 0.6547(19) 0.2402(9) 0.0388(7)
H29_6 H 0.6249 0.2401 0.0619
C33_6 C 0.7185(16) 0.2430(8) 0.0499(7)
H30_6 H 0.7299 0.2462 0.0804
Cu4_6 Cu 0.85164(7) 0.24658(7) 0.21227(5)
C1_7 C 0.9763(8) 0.1860(9) 0.1987(7)
H1_7 H 0.9565 0.1476 0.2009
C5_7 C 0.9732(7) 0.2919(8) 0.1944(6)
C6_7 C 0.9296(8) 0.3483(8) 0.1947(6)
C7_7 C 0.9465(13) 0.4087(10) 0.1853(11)
H5_7 H 0.9882 0.4183 0.1804
C8_7 C 0.9021(16) 0.4553(11) 0.1832(9)
H6_7 H 0.9115 0.4940 0.1706
N1_7 N 0.8401(5) 0.1538(5) 0.2207(5)
C9_7 C 0.8319(8) 0.1165(7) 0.1872(9)
H7_7 H 0.8298 0.1331 0.1579
C10_7 C 0.8260(10) 0.0523(10) 0.1922(10)
H8_7 H 0.8199 0.0282 0.1662
C11_7 C 0.8287(13) 0.0233(7) 0.2334(10)
C12_7 C 0.8357(13) 0.0657(10) 0.2709(10)
H9_7 H 0.8345 0.0508 0.3006
C13_7 C 0.8445(10) 0.1303(7) 0.2629(8)
H10_7 H 0.8534 0.1566 0.2873
C21_7 C 0.8456(15) 0.4434(9) 0.1996(8)
H19_7 H 0.8162 0.4746 0.2041
C22_7 C 0.8337(9) 0.3839(6) 0.2091(6)
H20_7 H 0.7927 0.3748 0.2168
N3_7 N 0.9442(4) 0.2389(5) 0.2040(4)
N4_7 N 0.8717(6) 0.3373(4) 0.2090(4)
N5_7 N 0.3462(5) 0.3401(5) 0.2793(5)
C23_7 C 0.3835(7) 0.3319(8) 0.3128(9)
H21_7 H 0.3669 0.3298 0.3421
C24_7 C 0.4477(10) 0.3260(10) 0.3078(10)
H22_7 H 0.4718 0.3199 0.3338
C25_7 C 0.4767(7) 0.3287(13) 0.2666(10)
C26_7 C 0.4343(10) 0.3357(13) 0.2291(10)
H23_7 H 0.4492 0.3345 0.1994
C27_7 C 0.3697(7) 0.3445(10) 0.2371(8)
H24_7 H 0.3434 0.3534 0.2127
C28_7 C 0.5478(8) 0.3292(7) 0.2613(8)
H25_7 H 0.5594 0.3429 0.2310
H26_7 H 0.5665 0.3569 0.2836
N6_7 N 0.7603(5) 0.2586(5) 0.2297(5)
C29_7 C 0.7437(6) 0.2669(7) 0.2726(6)
H27_7 H 0.7749 0.2702 0.2946
C30_7 C 0.6834(7) 0.2710(7) 0.2866(7)
H28_7 H 0.6737 0.2793 0.3169
C31_7 C 0.6371(13) 0.2625(7) 0.2548(7)
C32_7 C 0.6547(19) 0.2598(9) 0.2112(7)
H29_7 H 0.6249 0.2599 0.1881
C33_7 C 0.7185(16) 0.2570(8) 0.2001(7)
H30_7 H 0.7299 0.2538 0.1696
C34_7 C 0.5691(8) 0.2624(8) 0.2693(8)
H31_7 H 0.5451 0.2335 0.2510
H32_7 H 0.5650 0.2510 0.3012
C35_7 C 0.3140(9) 0.4763(8) 0.3013(7)
H33_7 H 0.3524 0.4565 0.2991
C36_5 C 0.3103(17) 0.5421(11) 0.3106(9)
H34_5 H 0.3466 0.5657 0.3109
C37_5 C 0.2590(17) 0.5682(10) 0.3184(9)
H35_5 H 0.2580 0.6103 0.3257
C38_5 C 0.2014(13) 0.5333(9) 0.3163(8)
H36_5 H 0.1628 0.5513 0.3218
C39_7 C 0.2081(8) 0.4732(7) 0.3056(6)
C40_7 C 0.1517(8) 0.4296(8) 0.3053(6)
C41_7 C 0.0913(10) 0.4465(13) 0.3147(11)
H37_7 H 0.0817 0.4882 0.3196
C42_7 C 0.0447(11) 0.4021(16) 0.3168(9)
H38_7 H 0.0060 0.4115 0.3294
C43_7 C 0.0566(9) 0.3456(15) 0.3004(8)
H39_7 H 0.0254 0.3162 0.2959
C44_7 C 0.1161(6) 0.3337(9) 0.2909(6)
H40_7 H 0.1252 0.2927 0.2832
N7_7 N 0.2611(5) 0.4442(4) 0.2960(4)
N8_7 N 0.1627(4) 0.3717(6) 0.2910(4)
N9_4 N 0.2414(5) 0.2603(5) 0.2703(5)
C14_7 C 0.8292(7) 0.9522(8) 0.2387(8)
H11_7 H 0.8429 0.9406 0.2690
H12_7 H 0.8569 0.9335 0.2164
N2_4 N 0.7586(5) 0.7397(5) 0.2703(5)
C15_7 C 0.7669(7) 0.7563(6) 0.2274(6)
H13_7 H 0.7702 0.7251 0.2054
C16_7 C 0.7710(7) 0.8166(7) 0.2134(7)
H14_7 H 0.7793 0.8263 0.1831
C17_7 C 0.7625(7) 0.8629(13) 0.2452(7)
C18_7 C 0.7598(9) 0.8453(19) 0.2888(7)
H15_7 H 0.7599 0.8751 0.3119
C19_7 C 0.7570(8) 0.7815(16) 0.2999(7)
H16_7 H 0.7538 0.7701 0.3304
C20_7 C 0.7624(8) 0.9309(8) 0.2307(8)
H17_7 H 0.7335 0.9549 0.2490
H18_7 H 0.7510 0.9350 0.1988
C14_8 C 0.1708(7) 0.0478(8) 0.2387(8)
H11_8 H 0.1571 0.0594 0.2690
H12_8 H 0.1431 0.0665 0.2164
C15_8 C 0.2331(7) 0.2437(6) 0.2274(6)
H13_8 H 0.2298 0.2749 0.2054
C16_8 C 0.2290(7) 0.1834(7) 0.2134(7)
H14_8 H 0.2207 0.1737 0.1831
C17_8 C 0.2375(7) 0.1371(13) 0.2452(7)
C18_8 C 0.2402(9) 0.1547(19) 0.2888(7)
H15_8 H 0.2401 0.1249 0.3119
C19_8 C 0.2430(8) 0.2185(16) 0.2999(7)
H16_8 H 0.2462 0.2299 0.3304
C20_8 C 0.2376(8) 0.0691(8) 0.2307(8)
H17_8 H 0.2665 0.0451 0.2490
H18_8 H 0.2490 0.0650 0.1988
C1_8 C 0.0237(8) 0.8140(9) 0.1987(7)
H1_8 H 0.0435 0.8524 0.2009
C5_8 C 0.0268(7) 0.7081(8) 0.1944(6)
C6_8 C 0.0704(8) 0.6517(8) 0.1947(6)
C7_8 C 0.0535(13) 0.5913(10) 0.1853(11)
H5_8 H 0.0118 0.5817 0.1804
C8_8 C 0.0979(16) 0.5447(11) 0.1832(9)
H6_8 H 0.0885 0.5060 0.1706
N1_8 N 0.1599(5) 0.8462(5) 0.2207(5)
C9_8 C 0.1681(8) 0.8835(7) 0.1872(9)
H7_8 H 0.1702 0.8669 0.1579
C10_8 C 0.1740(10) 0.9477(10) 0.1922(10)
H8_8 H 0.1801 0.9718 0.1662
C11_8 C 0.1713(13) 0.9767(7) 0.2334(10)
C12_8 C 0.1643(13) 0.9343(10) 0.2709(10)
H9_8 H 0.1655 0.9492 0.3006
C13_8 C 0.1555(10) 0.8697(7) 0.2629(8)
H10_8 H 0.1466 0.8434 0.2873
C21_8 C 0.1544(15) 0.5566(9) 0.1996(8)
H19_8 H 0.1838 0.5254 0.2041
C22_8 C 0.1663(9) 0.6161(6) 0.2091(6)
H20_8 H 0.2073 0.6252 0.2168
N3_8 N 0.0558(4) 0.7611(5) 0.2040(4)
N4_8 N 0.1283(6) 0.6627(4) 0.2090(4)
N5_8 N 0.6538(5) 0.6599(5) 0.2793(5)
C23_8 C 0.6165(7) 0.6681(8) 0.3128(9)
H21_8 H 0.6331 0.6702 0.3421
C24_8 C 0.5523(10) 0.6740(10) 0.3078(10)
H22_8 H 0.5282 0.6801 0.3338
C25_8 C 0.5233(7) 0.6713(13) 0.2666(10)
C26_8 C 0.5657(10) 0.6643(13) 0.2291(10)
H23_8 H 0.5508 0.6655 0.1994
C27_8 C 0.6303(7) 0.6555(10) 0.2371(8)
H24_8 H 0.6566 0.6466 0.2127
C28_8 C 0.4522(8) 0.6708(7) 0.2613(8)
H25_8 H 0.4406 0.6571 0.2310
H26_8 H 0.4335 0.6431 0.2836
N6_8 N 0.2397(5) 0.7414(5) 0.2297(5)
C29_8 C 0.2563(6) 0.7331(7) 0.2726(6)
H27_8 H 0.2251 0.7298 0.2946
C30_8 C 0.3166(7) 0.7290(7) 0.2866(7)
H28_8 H 0.3263 0.7207 0.3169
C31_8 C 0.3629(13) 0.7375(7) 0.2548(7)
C32_8 C 0.3453(19) 0.7402(9) 0.2112(7)
H29_8 H 0.3751 0.7401 0.1881
C33_8 C 0.2815(16) 0.7430(8) 0.2001(7)
H30_8 H 0.2701 0.7462 0.1696
C34_8 C 0.4309(8) 0.7376(8) 0.2693(8)
H31_8 H 0.4549 0.7665 0.2510
H32_8 H 0.4350 0.7490 0.3012
C35_8 C 0.6860(9) 0.5237(8) 0.3013(7)
H33_8 H 0.6476 0.5435 0.2991
C36_6 C 0.6897(17) 0.4579(11) 0.3106(9)
H34_6 H 0.6534 0.4343 0.3109
C37_6 C 0.7410(17) 0.4318(10) 0.3184(9)
H35_6 H 0.7420 0.3897 0.3257
C38_6 C 0.7986(13) 0.4667(9) 0.3163(8)
H36_6 H 0.8372 0.4487 0.3218
C39_8 C 0.7919(8) 0.5268(7) 0.3056(6)
C40_8 C 0.8483(8) 0.5704(8) 0.3053(6)
C41_8 C 0.9087(10) 0.5535(13) 0.3147(11)
H37_8 H 0.9183 0.5118 0.3196
C42_8 C 0.9553(11) 0.5979(16) 0.3168(9)
H38_8 H 0.9940 0.5885 0.3294
C43_8 C 0.9434(9) 0.6544(15) 0.3004(8)
H39_8 H 0.9746 0.6838 0.2959
C44_8 C 0.8839(6) 0.6663(9) 0.2909(6)
H40_8 H 0.8748 0.7073 0.2832
N7_8 N 0.7389(5) 0.5558(4) 0.2960(4)
N8_8 N 0.8373(4) 0.6283(6) 0.2910(4)
C36_7 C 0.6897(17) 0.0421(11) 0.9394(9)
H34_7 H 0.6534 0.0657 0.9391
C37_7 C 0.7410(17) 0.0682(10) 0.9316(9)
H35_7 H 0.7420 0.1103 0.9243
C38_7 C 0.7986(13) 0.0333(9) 0.9337(8)
H36_7 H 0.8372 0.0513 0.9282
C2_5 C 0.9579(11) 0.6897(17) 0.0606(9)
H2_5 H 0.9343 0.6534 0.0609
C3_5 C 0.9318(10) 0.7410(17) 0.0684(9)
H3_5 H 0.8897 0.7420 0.0757
C4_5 C 0.9667(9) 0.7986(13) 0.0663(8)
H4_5 H 0.9487 0.8372 0.0718
C2_6 C 0.0421(11) 0.3103(17) 0.0606(9)
H2_6 H 0.0657 0.3466 0.0609
C3_6 C 0.0682(10) 0.2590(17) 0.0684(9)
H3_6 H 0.1103 0.2580 0.0757
C4_6 C 0.0333(9) 0.2014(13) 0.0663(8)
H4_6 H 0.0513 0.1628 0.0718
C36_8 C 0.3103(17) 0.9579(11) 0.9394(9)
H34_8 H 0.3466 0.9343 0.9391
C37_8 C 0.2590(17) 0.9318(10) 0.9316(9)
H35_8 H 0.2580 0.8897 0.9243
C38_8 C 0.2014(13) 0.9667(9) 0.9337(8)
H36_8 H 0.1628 0.9487 0.9282
C2_7 C 0.0421(11) 0.1897(17) 0.1894(9)
H2_7 H 0.0657 0.1534 0.1891
C3_7 C 0.0682(10) 0.2410(17) 0.1816(9)
H3_7 H 0.1103 0.2420 0.1743
C4_7 C 0.0333(9) 0.2986(13) 0.1837(8)
H4_7 H 0.0513 0.3372 0.1782
C2_8 C 0.9579(11) 0.8103(17) 0.1894(9)
H2_8 H 0.9343 0.8466 0.1891
C3_8 C 0.9318(10) 0.7590(17) 0.1816(9)
H3_8 H 0.8897 0.7580 0.1743
C4_8 C 0.9667(9) 0.7014(13) 0.1837(8)
H4_8 H 0.9487 0.6628 0.1782
B1 B 0.3059(7) 0.1082(6) 0.6644(5)
F1 F 0.2619(5) 0.1093(5) 0.6975(4)
F2 F 0.3611(6) 0.0952(6) 0.6856(5)
F3 F 0.3113(7) 0.1643(5) 0.6442(4)
F4 F 0.2916(6) 0.0649(5) 0.6330(4)
B1_2 B 0.6941(7) 0.8918(6) 0.6644(5)
F1_2 F 0.7381(5) 0.8907(5) 0.6975(4)
F2_2 F 0.6389(6) 0.9048(6) 0.6856(5)
F3_2 F 0.6887(7) 0.8357(5) 0.6442(4)
F4_2 F 0.7084(6) 0.9351(5) 0.6330(4)
B1_3 B 0.3059(7) 0.3918(6) 0.5856(5)
F1_3 F 0.2619(5) 0.3907(5) 0.5525(4)
F2_3 F 0.3611(6) 0.4048(6) 0.5644(5)
F3_3 F 0.3113(7) 0.3357(5) 0.6058(4)
F4_3 F 0.2916(6) 0.4351(5) 0.6170(4)
B1_4 B 0.6941(7) 0.6082(6) 0.5856(5)
F1_4 F 0.7381(5) 0.6093(5) 0.5525(4)
F2_4 F 0.6389(6) 0.5952(6) 0.5644(5)
F3_4 F 0.6887(7) 0.6643(5) 0.6058(4)
F4_4 F 0.7084(6) 0.5649(5) 0.6170(4)
B1_5 B 0.1082(6) 0.8059(7) 0.9144(5)
F1_5 F 0.1093(5) 0.7619(5) 0.9475(4)
F2_5 F 0.0952(6) 0.8611(6) 0.9356(5)
F3_5 F 0.1643(5) 0.8113(7) 0.8942(4)
F4_5 F 0.0649(5) 0.7916(6) 0.8830(4)
B1_6 B 0.8918(6) 0.1941(7) 0.9144(5)
F1_6 F 0.8907(5) 0.2381(5) 0.9475(4)
F2_6 F 0.9048(6) 0.1389(6) 0.9356(5)
F3_6 F 0.8357(5) 0.1887(7) 0.8942(4)
F4_6 F 0.9351(5) 0.2084(6) 0.8830(4)
B1_7 B 0.8918(6) 0.3059(7) 0.3356(5)
F1_7 F 0.8907(5) 0.2619(5) 0.3025(4)
F2_7 F 0.9048(6) 0.3611(6) 0.3144(5)
F3_7 F 0.8357(5) 0.3113(7) 0.3558(4)
F4_7 F 0.9351(5) 0.2916(6) 0.3670(4)
B1_8 B 0.1082(6) 0.6941(7) 0.3356(5)
F1_8 F 0.1093(5) 0.7381(5) 0.3025(4)
F2_8 F 0.0952(6) 0.6389(6) 0.3144(5)
F3_8 F 0.1643(5) 0.6887(7) 0.3558(4)
F4_8 F 0.0649(5) 0.7084(6) 0.3670(4)
B1_9 B 0.8059(7) 0.6082(6) 0.1644(5)
F1_9 F 0.7619(5) 0.6093(5) 0.1975(4)
F2_9 F 0.8611(6) 0.5952(6) 0.1856(5)
F3_9 F 0.8113(7) 0.6643(5) 0.1442(4)
F4_9 F 0.7916(6) 0.5649(5) 0.1330(4)
B1_10 B 0.1941(7) 0.3918(6) 0.1644(5)
F1_10 F 0.2381(5) 0.3907(5) 0.1975(4)
F2_10 F 0.1389(6) 0.4048(6) 0.1856(5)
F3_10 F 0.1887(7) 0.3357(5) 0.1442(4)
F4_10 F 0.2084(6) 0.4351(5) 0.1330(4)
B1_11 B 0.8059(7) 0.8918(6) 0.0856(5)
F1_11 F 0.7619(5) 0.8907(5) 0.0525(4)
F2_11 F 0.8611(6) 0.9048(6) 0.0644(5)
F3_11 F 0.8113(7) 0.8357(5) 0.1058(4)
F4_11 F 0.7916(6) 0.9351(5) 0.1170(4)
B1_12 B 0.1941(7) 0.1082(6) 0.0856(5)
F1_12 F 0.2381(5) 0.1093(5) 0.0525(4)
F2_12 F 0.1389(6) 0.0952(6) 0.0644(5)
F3_12 F 0.1887(7) 0.1643(5) 0.1058(4)
F4_12 F 0.2084(6) 0.0649(5) 0.1170(4)
B1_13 B 0.6082(6) 0.3059(7) 0.4144(5)
F1_13 F 0.6093(5) 0.2619(5) 0.4475(4)
F2_13 F 0.5952(6) 0.3611(6) 0.4356(5)
F3_13 F 0.6643(5) 0.3113(7) 0.3942(4)
F4_13 F 0.5649(5) 0.2916(6) 0.3830(4)
B1_14 B 0.3918(6) 0.6941(7) 0.4144(5)
F1_14 F 0.3907(5) 0.7381(5) 0.4475(4)
F2_14 F 0.4048(6) 0.6389(6) 0.4356(5)
F3_14 F 0.3357(5) 0.6887(7) 0.3942(4)
F4_14 F 0.4351(5) 0.7084(6) 0.3830(4)
B1_15 B 0.3918(6) 0.8059(7) 0.8356(5)
F1_15 F 0.3907(5) 0.7619(5) 0.8025(4)
F2_15 F 0.4048(6) 0.8611(6) 0.8144(5)
F3_15 F 0.3357(5) 0.8113(7) 0.8558(4)
F4_15 F 0.4351(5) 0.7916(6) 0.8670(4)
B1_16 B 0.6082(6) 0.1941(7) 0.8356(5)
F1_16 F 0.6093(5) 0.2381(5) 0.8025(4)
F2_16 F 0.5952(6) 0.1389(6) 0.8144(5)
F3_16 F 0.6643(5) 0.1887(7) 0.8558(4)
F4_16 F 0.5649(5) 0.2084(6) 0.8670(4)
B2 B 0.5000 0.0000 0.5673(9)
F7 F 0.4590(6) 0.0309(8) 0.5941(7)
F8 F 0.5307(8) 0.0409(6) 0.5408(7)
B2_2 B 0.5000 1.0000 0.5673(9)
F5 F 0.5410(6) 0.9691(8) 0.5941(7)
F6 F 0.4693(8) 0.9591(6) 0.5408(7)
B2_3 B 0.5000 0.5000 0.6827(9)
F5_2 F 0.5410(6) 0.5309(8) 0.6559(7)
F6_2 F 0.4693(8) 0.5409(6) 0.7092(7)
F7_2 F 0.4590(6) 0.4691(8) 0.6559(7)
F8_2 F 0.5307(8) 0.4591(6) 0.7092(7)
B2_4 B 0.0000 0.0000 0.8173(9)
F8_3 F 0.0409(6) 0.0307(8) 0.7908(7)
B2_5 B 0.0000 1.0000 0.8173(9)
F7_3 F 0.0309(8) 0.9590(6) 0.8441(7)
B2_6 B 1.0000 0.0000 0.8173(9)
F5_3 F 0.9691(8) 0.0410(6) 0.8441(7)
B2_7 B 1.0000 1.0000 0.8173(9)
F6_3 F 0.9591(6) 0.9693(8) 0.7908(7)
B2_8 B -0.0000 0.5000 0.4327(9)
F5_4 F 0.0309(8) 0.5410(6) 0.4059(7)
F6_4 F 0.0409(6) 0.4693(8) 0.4592(7)
B2_9 B 1.0000 0.5000 0.4327(9)
F7_4 F 0.9691(8) 0.4590(6) 0.4059(7)
F8_4 F 0.9591(6) 0.5307(8) 0.4592(7)
B2_10 B 0.0000 0.5000 0.0673(9)
F5_5 F 0.0410(6) 0.4691(8) 0.0941(7)
F8_5 F 0.0307(8) 0.5409(6) 0.0408(7)
B2_11 B 1.0000 0.5000 0.0673(9)
F6_5 F 0.9693(8) 0.4591(6) 0.0408(7)
F7_5 F 0.9590(6) 0.5309(8) 0.0941(7)
B2_12 B 0.0000 -0.0000 0.1827(9)
F5_6 F 0.0410(6) 0.0309(8) 0.1559(7)
B2_13 B 0.0000 1.0000 0.1827(9)
F8_6 F 0.0307(8) 0.9591(6) 0.2092(7)
B2_14 B 1.0000 -0.0000 0.1827(9)
F6_6 F 0.9693(8) 0.0409(6) 0.2092(7)
B2_15 B 1.0000 1.0000 0.1827(9)
F7_6 F 0.9590(6) 0.9691(8) 0.1559(7)
B2_16 B 0.5000 0.5000 0.3173(9)
F5_7 F 0.4691(8) 0.5410(6) 0.3441(7)
F6_7 F 0.4591(6) 0.4693(8) 0.2908(7)
F7_7 F 0.5309(8) 0.4590(6) 0.3441(7)
F8_7 F 0.5409(6) 0.5307(8) 0.2908(7)
B2_17 B 0.5000 0.0000 0.9327(9)
F5_8 F 0.5309(8) 0.0410(6) 0.9059(7)
F8_8 F 0.4591(6) 0.0307(8) 0.9592(7)
B2_18 B 0.5000 1.0000 0.9327(9)
F6_8 F 0.5409(6) 0.9693(8) 0.9592(7)
F7_8 F 0.4691(8) 0.9590(6) 0.9059(7)
loop_
_geom_bond_atom_site_label_1
_geom_bond_atom_site_label_2
_geom_bond_site_symmetry_1
_geom_bond_site_symmetry_2
C1 H1 1_555 1_555
C6 C5 1_555 1_555
C7 C6 1_555 1_555
H5 C7 1_555 1_555
C8 C7 1_555 1_555
H6 C8 1_555 1_555
N1 C9 1_555 1_555
C9 H7 1_555 1_555
C10 C9 1_555 1_555
H8 C10 1_555 1_555
C11 C10 1_555 1_555
C12 C11 1_555 1_555
H9 C12 1_555 1_555
C13 N1 1_555 1_555
H10 C13 1_555 1_555
C21 C8 1_555 1_555
H19 C21 1_555 1_555
C22 C21 1_555 1_555
H20 C22 1_555 1_555
N3 C1 1_555 1_555
N4 C6 1_555 1_555
Cl1 Cu1 1_555 1_555
Cu1 N1 1_555 1_555
N5 C23 1_555 1_555
C23 H21 1_555 1_555
C24 C23 1_555 1_555
H22 C24 1_555 1_555
C25 C24 1_555 1_555
C26 C25 1_555 1_555
H23 C26 1_555 1_555
C27 N5 1_555 1_555
H24 C27 1_555 1_555
C28 C25 1_555 1_555
H25 C28 1_555 1_555
H26 C28 1_555 1_555
N6 Cu1 1_555 1_555
C29 N6 1_555 1_555
H27 C29 1_555 1_555
C30 C29 1_555 1_555
H28 C30 1_555 1_555
C31 C30 1_555 1_555
C32 C31 1_555 1_555
H29 C32 1_555 1_555
C33 N6 1_555 1_555
H30 C33 1_555 1_555
C34 C28 1_555 1_555
H31 C34 1_555 1_555
H32 C34 1_555 1_555
Cu2 N5 1_555 1_555
C35 H33 1_555 1_555
C36 C35 1_555 1_555
H34 C36 1_555 1_555
C37 C36 1_555 1_555
H35 C37 1_555 1_555
C38 C37 1_555 1_555
H36 C38 1_555 1_555
C39 C38 1_555 1_555
C40 C39 1_555 1_555
C41 C40 1_555 1_555
H37 C41 1_555 1_555
C42 C41 1_555 1_555
H38 C42 1_555 1_555
C43 C42 1_555 1_555
H39 C43 1_555 1_555
C44 C43 1_555 1_555
H40 C44 1_555 1_555
N7 Cu2 1_555 1_555
N8 Cu2 1_555 1_555
Cu4 Cl1 1_555 1_555
N9 Cu2 1_555 1_555
Cl2 Cu2 1_555 1_555
C5 N3 1_555 1_555
C12 C13 1_555 1_555
C22 N4 1_555 1_555
N3 Cu1 1_555 1_555
N4 Cu1 1_555 1_555
C26 C27 1_555 1_555
C31 C34 1_555 1_555
C32 C33 1_555 1_555
C35 N7 1_555 1_555
C39 N7 1_555 1_555
C40 N8 1_555 1_555
C44 N8 1_555 1_555
H11 C14 1_555 1_555
H12 C14 1_555 1_555
N2 C15 1_555 1_555
C15 H13 1_555 1_555
C16 C15 1_555 1_555
H14 C16 1_555 1_555
C17 C16 1_555 1_555
C18 C17 1_555 1_555
H15 C18 1_555 1_555
C19 N2 1_555 1_555
H16 C19 1_555 1_555
C20 C14 1_555 1_555
H17 C20 1_555 1_555
H18 C20 1_555 1_555
Cu3 N2 1_555 1_555
C17 C20 1_555 1_555
C18 C19 1_555 1_555
H11_2 C14_2 1_555 1_555
H12_2 C14_2 1_555 1_555
N9 C15_2 1_555 1_555
C15_2 H13_2 1_555 1_555
C16_2 C15_2 1_555 1_555
H14_2 C16_2 1_555 1_555
C17_2 C16_2 1_555 1_555
C18_2 C17_2 1_555 1_555
H15_2 C18_2 1_555 1_555
C19_2 N9 1_555 1_555
H16_2 C19_2 1_555 1_555
C20_2 C14_2 1_555 1_555
H17_2 C20_2 1_555 1_555
H18_2 C20_2 1_555 1_555
C17_2 C20_2 1_555 1_555
C18_2 C19_2 1_555 1_555
C1_2 H1_2 1_555 1_555
C6_2 C5_2 1_555 1_555
C7_2 C6_2 1_555 1_555
H5_2 C7_2 1_555 1_555
C8_2 C7_2 1_555 1_555
H6_2 C8_2 1_555 1_555
N1_2 C9_2 1_555 1_555
C9_2 H7_2 1_555 1_555
C10_2 C9_2 1_555 1_555
H8_2 C10_2 1_555 1_555
C11_2 C10_2 1_555 1_555
C12_2 C11_2 1_555 1_555
H9_2 C12_2 1_555 1_555
C13_2 N1_2 1_555 1_555
H10_2 C13_2 1_555 1_555
C21_2 C8_2 1_555 1_555
H19_2 C21_2 1_555 1_555
C22_2 C21_2 1_555 1_555
H20_2 C22_2 1_555 1_555
N3_2 C1_2 1_555 1_555
N4_2 C6_2 1_555 1_555
Cl1_2 Cu1_2 1_555 1_555
Cu1_2 N1_2 1_555 1_555
N5_2 C23_2 1_555 1_555
C23_2 H21_2 1_555 1_555
C24_2 C23_2 1_555 1_555
H22_2 C24_2 1_555 1_555
C25_2 C24_2 1_555 1_555
C26_2 C25_2 1_555 1_555
H23_2 C26_2 1_555 1_555
C27_2 N5_2 1_555 1_555
H24_2 C27_2 1_555 1_555
C28_2 C25_2 1_555 1_555
H25_2 C28_2 1_555 1_555
H26_2 C28_2 1_555 1_555
N6_2 Cu1_2 1_555 1_555
C29_2 N6_2 1_555 1_555
H27_2 C29_2 1_555 1_555
C30_2 C29_2 1_555 1_555
H28_2 C30_2 1_555 1_555
C31_2 C30_2 1_555 1_555
C32_2 C31_2 1_555 1_555
H29_2 C32_2 1_555 1_555
C33_2 N6_2 1_555 1_555
H30_2 C33_2 1_555 1_555
C34_2 C28_2 1_555 1_555
H31_2 C34_2 1_555 1_555
H32_2 C34_2 1_555 1_555
Cu3 N5_2 1_555 1_555
C35_2 H33_2 1_555 1_555
C36_2 C35_2 1_555 1_555
H34_2 C36_2 1_555 1_555
C37_2 C36_2 1_555 1_555
H35_2 C37_2 1_555 1_555
C38_2 C37_2 1_555 1_555
H36_2 C38_2 1_555 1_555
C39_2 C38_2 1_555 1_555
C40_2 C39_2 1_555 1_555
C41_2 C40_2 1_555 1_555
H37_2 C41_2 1_555 1_555
C42_2 C41_2 1_555 1_555
H38_2 C42_2 1_555 1_555
C43_2 C42_2 1_555 1_555
H39_2 C43_2 1_555 1_555
C44_2 C43_2 1_555 1_555
H40_2 C44_2 1_555 1_555
N7_2 Cu3 1_555 1_555
N8_2 Cu3 1_555 1_555
Cu4_2 Cl1_2 1_555 1_555
Cl2_2 Cu3 1_555 1_555
C5_2 N3_2 1_555 1_555
C12_2 C13_2 1_555 1_555
C22_2 N4_2 1_555 1_555
N3_2 Cu1_2 1_555 1_555
N4_2 Cu1_2 1_555 1_555
C26_2 C27_2 1_555 1_555
C31_2 C34_2 1_555 1_555
C32_2 C33_2 1_555 1_555
C35_2 N7_2 1_555 1_555
C39_2 N7_2 1_555 1_555
C40_2 N8_2 1_555 1_555
C44_2 N8_2 1_555 1_555
N5_3 C23_3 1_555 1_555
C23_3 H21_3 1_555 1_555
C24_3 C23_3 1_555 1_555
H22_3 C24_3 1_555 1_555
C25_3 C24_3 1_555 1_555
C26_3 C25_3 1_555 1_555
H23_3 C26_3 1_555 1_555
C27_3 N5_3 1_555 1_555
H24_3 C27_3 1_555 1_555
Cu2_2 N5_3 1_555 1_555
C35_3 H33_3 1_555 1_555
C36_3 C35_3 1_555 1_555
H34_3 C36_3 1_555 1_555
C37_3 C36_3 1_555 1_555
H35_3 C37_3 1_555 1_555
C38_3 C37_3 1_555 1_555
H36_3 C38_3 1_555 1_555
C39_3 C38_3 1_555 1_555
C40_3 C39_3 1_555 1_555
C41_3 C40_3 1_555 1_555
H37_3 C41_3 1_555 1_555
C42_3 C41_3 1_555 1_555
H38_3 C42_3 1_555 1_555
C43_3 C42_3 1_555 1_555
H39_3 C43_3 1_555 1_555
C44_3 C43_3 1_555 1_555
H40_3 C44_3 1_555 1_555
N7_3 Cu2_2 1_555 1_555
N8_3 Cu2_2 1_555 1_555
N9_2 Cu2_2 1_555 1_555
Cl2 Cu2_2 1_555 1_555
C26_3 C27_3 1_555 1_555
C35_3 N7_3 1_555 1_555
C39_3 N7_3 1_555 1_555
C40_3 N8_3 1_555 1_555
C44_3 N8_3 1_555 1_555
H11_3 C14_3 1_555 1_555
H12_3 C14_3 1_555 1_555
N2_2 C15_3 1_555 1_555
C15_3 H13_3 1_555 1_555
C16_3 C15_3 1_555 1_555
H14_3 C16_3 1_555 1_555
C17_3 C16_3 1_555 1_555
C18_3 C17_3 1_555 1_555
H15_3 C18_3 1_555 1_555
C19_3 N2_2 1_555 1_555
H16_3 C19_3 1_555 1_555
C20_3 C14_3 1_555 1_555
H17_3 C20_3 1_555 1_555
H18_3 C20_3 1_555 1_555
Cu3_2 N2_2 1_555 1_555
C17_3 C20_3 1_555 1_555
C18_3 C19_3 1_555 1_555
H11_4 C14_4 1_555 1_555
H12_4 C14_4 1_555 1_555
N9_2 C15_4 1_555 1_555
C15_4 H13_4 1_555 1_555
C16_4 C15_4 1_555 1_555
H14_4 C16_4 1_555 1_555
C17_4 C16_4 1_555 1_555
C18_4 C17_4 1_555 1_555
H15_4 C18_4 1_555 1_555
C19_4 N9_2 1_555 1_555
H16_4 C19_4 1_555 1_555
C20_4 C14_4 1_555 1_555
H17_4 C20_4 1_555 1_555
H18_4 C20_4 1_555 1_555
C17_4 C20_4 1_555 1_555
C18_4 C19_4 1_555 1_555
N5_4 C23_4 1_555 1_555
C23_4 H21_4 1_555 1_555
C24_4 C23_4 1_555 1_555
H22_4 C24_4 1_555 1_555
C25_4 C24_4 1_555 1_555
C26_4 C25_4 1_555 1_555
H23_4 C26_4 1_555 1_555
C27_4 N5_4 1_555 1_555
H24_4 C27_4 1_555 1_555
Cu3_2 N5_4 1_555 1_555
C35_4 H33_4 1_555 1_555
C36_4 C35_4 1_555 1_555
H34_4 C36_4 1_555 1_555
C37_4 C36_4 1_555 1_555
H35_4 C37_4 1_555 1_555
C38_4 C37_4 1_555 1_555
H36_4 C38_4 1_555 1_555
C39_4 C38_4 1_555 1_555
C40_4 C39_4 1_555 1_555
C41_4 C40_4 1_555 1_555
H37_4 C41_4 1_555 1_555
C42_4 C41_4 1_555 1_555
H38_4 C42_4 1_555 1_555
C43_4 C42_4 1_555 1_555
H39_4 C43_4 1_555 1_555
C44_4 C43_4 1_555 1_555
H40_4 C44_4 1_555 1_555
N7_4 Cu3_2 1_555 1_555
N8_4 Cu3_2 1_555 1_555
Cl2_2 Cu3_2 1_555 1_555
C26_4 C27_4 1_555 1_555
C35_4 N7_4 1_555 1_555
C39_4 N7_4 1_555 1_555
C40_4 N8_4 1_555 1_555
C44_4 N8_4 1_555 1_555
H9_3 C12_3 1_555 1_555
H10_3 C13_3 1_555 1_555
H15_5 C18_5 1_555 1_555
C19_5 N2_3 1_555 1_555
H16_5 C19_5 1_555 1_555
N5_5 C23_5 1_555 1_555
C23_5 H21_5 1_555 1_555
C24_5 C23_5 1_555 1_555
H22_5 C24_5 1_555 1_555
C25_5 C24_5 1_555 1_555
C28_3 C25_5 1_555 1_555
H26_3 C28_3 1_555 1_555
H27_3 C29_3 1_555 1_555
C30_3 C29_3 1_555 1_555
H28_3 C30_3 1_555 1_555
C31_3 C30_3 1_555 1_555
C34_3 C28_3 1_555 1_555
H31_3 C34_3 1_555 1_555
H32_3 C34_3 1_555 1_555
Cu4_2 N5_5 1_555 1_555
C35_5 H33_5 1_555 1_555
C40_5 C39_5 1_555 1_555
C41_5 C40_5 1_555 1_555
H37_5 C41_5 1_555 1_555
C42_5 C41_5 1_555 1_555
H38_5 C42_5 1_555 1_555
C43_5 C42_5 1_555 1_555
H39_5 C43_5 1_555 1_555
C44_5 C43_5 1_555 1_555
H40_5 C44_5 1_555 1_555
N7_5 Cu4_2 1_555 1_555
N8_5 Cu4_2 1_555 1_555
Cu4 N2_3 1_555 1_555
N9_3 Cu4_2 1_555 1_555
C12_3 C13_3 1_555 1_555
C18_5 C19_5 1_555 1_555
C31_3 C34_3 1_555 1_555
C35_5 N7_5 1_555 1_555
C39_5 N7_5 1_555 1_555
C40_5 N8_5 1_555 1_555
C44_5 N8_5 1_555 1_555
H9_4 C12_4 1_555 1_555
H10_4 C13_4 1_555 1_555
H15_6 C18_6 1_555 1_555
C19_6 N9_3 1_555 1_555
H16_6 C19_6 1_555 1_555
N5_6 C23_6 1_555 1_555
C23_6 H21_6 1_555 1_555
C24_6 C23_6 1_555 1_555
H22_6 C24_6 1_555 1_555
C25_6 C24_6 1_555 1_555
C28_4 C25_6 1_555 1_555
H26_4 C28_4 1_555 1_555
H27_4 C29_4 1_555 1_555
C30_4 C29_4 1_555 1_555
H28_4 C30_4 1_555 1_555
C31_4 C30_4 1_555 1_555
C34_4 C28_4 1_555 1_555
H31_4 C34_4 1_555 1_555
H32_4 C34_4 1_555 1_555
Cu4 N5_6 1_555 1_555
C35_6 H33_6 1_555 1_555
C40_6 C39_6 1_555 1_555
C41_6 C40_6 1_555 1_555
H37_6 C41_6 1_555 1_555
C42_6 C41_6 1_555 1_555
H38_6 C42_6 1_555 1_555
C43_6 C42_6 1_555 1_555
H39_6 C43_6 1_555 1_555
C44_6 C43_6 1_555 1_555
H40_6 C44_6 1_555 1_555
N7_6 Cu4 1_555 1_555
N8_6 Cu4 1_555 1_555
C12_4 C13_4 1_555 1_555
C18_6 C19_6 1_555 1_555
C31_4 C34_4 1_555 1_555
C35_6 N7_6 1_555 1_555
C39_6 N7_6 1_555 1_555
C40_6 N8_6 1_555 1_555
C44_6 N8_6 1_555 1_555
H2 C2 1_555 1_555
C3 C2 1_555 1_555
H3 C3 1_555 1_555
C4 C3 1_555 1_555
H4 C4 1_555 1_555
H2_2 C2_2 1_555 1_555
C3_2 C2_2 1_555 1_555
H3_2 C3_2 1_555 1_555
C4_2 C3_2 1_555 1_555
H4_2 C4_2 1_555 1_555
C1_3 H1_3 1_555 1_555
C2_3 C1_3 1_555 1_555
H2_3 C2_3 1_555 1_555
C3_3 C2_3 1_555 1_555
H3_3 C3_3 1_555 1_555
C4_3 C3_3 1_555 1_555
H4_3 C4_3 1_555 1_555
C5_3 C4_3 1_555 1_555
C6_3 C5_3 1_555 1_555
C7_3 C6_3 1_555 1_555
H5_3 C7_3 1_555 1_555
C8_3 C7_3 1_555 1_555
H6_3 C8_3 1_555 1_555
N1_3 C9_3 1_555 1_555
C9_3 H7_3 1_555 1_555
C10_3 C9_3 1_555 1_555
H8_3 C10_3 1_555 1_555
C11_3 C10_3 1_555 1_555
C12_5 C11_3 1_555 1_555
H9_5 C12_5 1_555 1_555
C13_5 N1_3 1_555 1_555
H10_5 C13_5 1_555 1_555
C21_3 C8_3 1_555 1_555
H19_3 C21_3 1_555 1_555
C22_3 C21_3 1_555 1_555
H20_3 C22_3 1_555 1_555
N3_3 C1_3 1_555 1_555
N4_3 C6_3 1_555 1_555
Cl1_3 Cu1_3 1_555 1_555
Cu1_3 N1_3 1_555 1_555
H25_3 C28_5 1_555 1_555
H26_5 C28_5 1_555 1_555
N6_3 Cu1_3 1_555 1_555
C29_5 N6_3 1_555 1_555
H27_5 C29_5 1_555 1_555
C30_5 C29_5 1_555 1_555
H28_5 C30_5 1_555 1_555
C31_5 C30_5 1_555 1_555
C32_3 C31_5 1_555 1_555
H29_3 C32_3 1_555 1_555
C33_3 N6_3 1_555 1_555
H30_3 C33_3 1_555 1_555
C34_5 C28_5 1_555 1_555
H31_5 C34_5 1_555 1_555
H32_5 C34_5 1_555 1_555
Cu4_3 Cl1_3 1_555 1_555
C5_3 N3_3 1_555 1_555
C12_5 C13_5 1_555 1_555
C22_3 N4_3 1_555 1_555
N3_3 Cu1_3 1_555 1_555
N4_3 Cu1_3 1_555 1_555
C31_5 C34_5 1_555 1_555
C32_3 C33_3 1_555 1_555
C1_4 H1_4 1_555 1_555
C2_4 C1_4 1_555 1_555
H2_4 C2_4 1_555 1_555
C3_4 C2_4 1_555 1_555
H3_4 C3_4 1_555 1_555
C4_4 C3_4 1_555 1_555
H4_4 C4_4 1_555 1_555
C5_4 C4_4 1_555 1_555
C6_4 C5_4 1_555 1_555
C7_4 C6_4 1_555 1_555
H5_4 C7_4 1_555 1_555
C8_4 C7_4 1_555 1_555
H6_4 C8_4 1_555 1_555
N1_4 C9_4 1_555 1_555
C9_4 H7_4 1_555 1_555
C10_4 C9_4 1_555 1_555
H8_4 C10_4 1_555 1_555
C11_4 C10_4 1_555 1_555
C12_6 C11_4 1_555 1_555
H9_6 C12_6 1_555 1_555
C13_6 N1_4 1_555 1_555
H10_6 C13_6 1_555 1_555
C21_4 C8_4 1_555 1_555
H19_4 C21_4 1_555 1_555
C22_4 C21_4 1_555 1_555
H20_4 C22_4 1_555 1_555
N3_4 C1_4 1_555 1_555
N4_4 C6_4 1_555 1_555
Cl1_4 Cu1_4 1_555 1_555
Cu1_4 N1_4 1_555 1_555
H25_4 C28_6 1_555 1_555
H26_6 C28_6 1_555 1_555
N6_4 Cu1_4 1_555 1_555
C29_6 N6_4 1_555 1_555
H27_6 C29_6 1_555 1_555
C30_6 C29_6 1_555 1_555
H28_6 C30_6 1_555 1_555
C31_6 C30_6 1_555 1_555
C32_4 C31_6 1_555 1_555
H29_4 C32_4 1_555 1_555
C33_4 N6_4 1_555 1_555
H30_4 C33_4 1_555 1_555
C34_6 C28_6 1_555 1_555
H31_6 C34_6 1_555 1_555
H32_6 C34_6 1_555 1_555
Cu4_4 Cl1_4 1_555 1_555
C5_4 N3_4 1_555 1_555
C12_6 C13_6 1_555 1_555
C22_4 N4_4 1_555 1_555
N3_4 Cu1_4 1_555 1_555
N4_4 Cu1_4 1_555 1_555
C31_6 C34_6 1_555 1_555
C32_4 C33_4 1_555 1_555
C1_5 H1_5 1_555 1_555
C6_5 C5_5 1_555 1_555
C7_5 C6_5 1_555 1_555
H5_5 C7_5 1_555 1_555
C8_5 C7_5 1_555 1_555
H6_5 C8_5 1_555 1_555
N1_5 C9_5 1_555 1_555
C9_5 H7_5 1_555 1_555
C10_5 C9_5 1_555 1_555
H8_5 C10_5 1_555 1_555
C11_5 C10_5 1_555 1_555
C14_5 C11_5 1_555 1_555
H12_5 C14_5 1_555 1_555
C15_5 H13_5 1_555 1_555
C16_5 C15_5 1_555 1_555
H14_5 C16_5 1_555 1_555
C17_5 C16_5 1_555 1_555
C20_5 C14_5 1_555 1_555
H17_5 C20_5 1_555 1_555
H18_5 C20_5 1_555 1_555
C21_5 C8_5 1_555 1_555
H19_5 C21_5 1_555 1_555
C22_5 C21_5 1_555 1_555
H20_5 C22_5 1_555 1_555
N3_5 C1_5 1_555 1_555
N4_5 C6_5 1_555 1_555
Cl1_5 Cu1_5 1_555 1_555
Cu1_5 N1_5 1_555 1_555
H23_5 C26_5 1_555 1_555
H24_5 C27_5 1_555 1_555
N6_5 Cu1_5 1_555 1_555
H29_5 C32_5 1_555 1_555
C33_5 N6_5 1_555 1_555
H30_5 C33_5 1_555 1_555
Cu4_5 Cl1_5 1_555 1_555
C5_5 N3_5 1_555 1_555
C17_5 C20_5 1_555 1_555
C22_5 N4_5 1_555 1_555
N3_5 Cu1_5 1_555 1_555
N4_5 Cu1_5 1_555 1_555
C26_5 C27_5 1_555 1_555
C32_5 C33_5 1_555 1_555
C1_6 H1_6 1_555 1_555
C6_6 C5_6 1_555 1_555
C7_6 C6_6 1_555 1_555
H5_6 C7_6 1_555 1_555
C8_6 C7_6 1_555 1_555
H6_6 C8_6 1_555 1_555
N1_6 C9_6 1_555 1_555
C9_6 H7_6 1_555 1_555
C10_6 C9_6 1_555 1_555
H8_6 C10_6 1_555 1_555
C11_6 C10_6 1_555 1_555
C14_6 C11_6 1_555 1_555
H12_6 C14_6 1_555 1_555
C15_6 H13_6 1_555 1_555
C16_6 C15_6 1_555 1_555
H14_6 C16_6 1_555 1_555
C17_6 C16_6 1_555 1_555
C20_6 C14_6 1_555 1_555
H17_6 C20_6 1_555 1_555
H18_6 C20_6 1_555 1_555
C21_6 C8_6 1_555 1_555
H19_6 C21_6 1_555 1_555
C22_6 C21_6 1_555 1_555
H20_6 C22_6 1_555 1_555
N3_6 C1_6 1_555 1_555
N4_6 C6_6 1_555 1_555
Cl1_6 Cu1_6 1_555 1_555
Cu1_6 N1_6 1_555 1_555
H23_6 C26_6 1_555 1_555
H24_6 C27_6 1_555 1_555
N6_6 Cu1_6 1_555 1_555
H29_6 C32_6 1_555 1_555
C33_6 N6_6 1_555 1_555
H30_6 C33_6 1_555 1_555
Cu4_6 Cl1_6 1_555 1_555
C5_6 N3_6 1_555 1_555
C17_6 C20_6 1_555 1_555
C22_6 N4_6 1_555 1_555
N3_6 Cu1_6 1_555 1_555
N4_6 Cu1_6 1_555 1_555
C26_6 C27_6 1_555 1_555
C32_6 C33_6 1_555 1_555
C1_7 H1_7 1_555 1_555
C6_7 C5_7 1_555 1_555
C7_7 C6_7 1_555 1_555
H5_7 C7_7 1_555 1_555
C8_7 C7_7 1_555 1_555
H6_7 C8_7 1_555 1_555
N1_7 C9_7 1_555 1_555
C9_7 H7_7 1_555 1_555
C10_7 C9_7 1_555 1_555
H8_7 C10_7 1_555 1_555
C11_7 C10_7 1_555 1_555
C12_7 C11_7 1_555 1_555
H9_7 C12_7 1_555 1_555
C13_7 N1_7 1_555 1_555
H10_7 C13_7 1_555 1_555
C21_7 C8_7 1_555 1_555
H19_7 C21_7 1_555 1_555
C22_7 C21_7 1_555 1_555
H20_7 C22_7 1_555 1_555
N3_7 C1_7 1_555 1_555
N4_7 C6_7 1_555 1_555
Cu4_6 N1_7 1_555 1_555
N5_7 C23_7 1_555 1_555
C23_7 H21_7 1_555 1_555
C24_7 C23_7 1_555 1_555
H22_7 C24_7 1_555 1_555
C25_7 C24_7 1_555 1_555
C26_7 C25_7 1_555 1_555
H23_7 C26_7 1_555 1_555
C27_7 N5_7 1_555 1_555
H24_7 C27_7 1_555 1_555
C28_7 C25_7 1_555 1_555
H25_7 C28_7 1_555 1_555
H26_7 C28_7 1_555 1_555
N6_7 Cu4_6 1_555 1_555
C29_7 N6_7 1_555 1_555
H27_7 C29_7 1_555 1_555
C30_7 C29_7 1_555 1_555
H28_7 C30_7 1_555 1_555
C31_7 C30_7 1_555 1_555
C32_7 C31_7 1_555 1_555
H29_7 C32_7 1_555 1_555
C33_7 N6_7 1_555 1_555
H30_7 C33_7 1_555 1_555
C34_7 C28_7 1_555 1_555
H31_7 C34_7 1_555 1_555
H32_7 C34_7 1_555 1_555
Cu4_3 N5_7 1_555 1_555
C35_7 H33_7 1_555 1_555
C36_5 C35_7 1_555 1_555
H34_5 C36_5 1_555 1_555
C37_5 C36_5 1_555 1_555
H35_5 C37_5 1_555 1_555
C38_5 C37_5 1_555 1_555
H36_5 C38_5 1_555 1_555
C39_7 C38_5 1_555 1_555
C40_7 C39_7 1_555 1_555
C41_7 C40_7 1_555 1_555
H37_7 C41_7 1_555 1_555
C42_7 C41_7 1_555 1_555
H38_7 C42_7 1_555 1_555
C43_7 C42_7 1_555 1_555
H39_7 C43_7 1_555 1_555
C44_7 C43_7 1_555 1_555
H40_7 C44_7 1_555 1_555
N7_7 Cu4_3 1_555 1_555
N8_7 Cu4_3 1_555 1_555
N9_4 Cu4_3 1_555 1_555
C5_7 N3_7 1_555 1_555
C12_7 C13_7 1_555 1_555
C22_7 N4_7 1_555 1_555
N3_7 Cu4_6 1_555 1_555
N4_7 Cu4_6 1_555 1_555
C26_7 C27_7 1_555 1_555
C31_7 C34_7 1_555 1_555
C32_7 C33_7 1_555 1_555
C35_7 N7_7 1_555 1_555
C39_7 N7_7 1_555 1_555
C40_7 N8_7 1_555 1_555
C44_7 N8_7 1_555 1_555
H11_7 C14_7 1_555 1_555
H12_7 C14_7 1_555 1_555
N2_4 C15_7 1_555 1_555
C15_7 H13_7 1_555 1_555
C16_7 C15_7 1_555 1_555
H14_7 C16_7 1_555 1_555
C17_7 C16_7 1_555 1_555
C18_7 C17_7 1_555 1_555
H15_7 C18_7 1_555 1_555
C19_7 N2_4 1_555 1_555
H16_7 C19_7 1_555 1_555
C20_7 C14_7 1_555 1_555
H17_7 C20_7 1_555 1_555
H18_7 C20_7 1_555 1_555
Cu4_4 N2_4 1_555 1_555
C17_7 C20_7 1_555 1_555
C18_7 C19_7 1_555 1_555
H11_8 C14_8 1_555 1_555
H12_8 C14_8 1_555 1_555
N9_4 C15_8 1_555 1_555
C15_8 H13_8 1_555 1_555
C16_8 C15_8 1_555 1_555
H14_8 C16_8 1_555 1_555
C17_8 C16_8 1_555 1_555
C18_8 C17_8 1_555 1_555
H15_8 C18_8 1_555 1_555
C19_8 N9_4 1_555 1_555
H16_8 C19_8 1_555 1_555
C20_8 C14_8 1_555 1_555
H17_8 C20_8 1_555 1_555
H18_8 C20_8 1_555 1_555
C17_8 C20_8 1_555 1_555
C18_8 C19_8 1_555 1_555
C1_8 H1_8 1_555 1_555
C6_8 C5_8 1_555 1_555
C7_8 C6_8 1_555 1_555
H5_8 C7_8 1_555 1_555
C8_8 C7_8 1_555 1_555
H6_8 C8_8 1_555 1_555
N1_8 C9_8 1_555 1_555
C9_8 H7_8 1_555 1_555
C10_8 C9_8 1_555 1_555
H8_8 C10_8 1_555 1_555
C11_8 C10_8 1_555 1_555
C12_8 C11_8 1_555 1_555
H9_8 C12_8 1_555 1_555
C13_8 N1_8 1_555 1_555
H10_8 C13_8 1_555 1_555
C21_8 C8_8 1_555 1_555
H19_8 C21_8 1_555 1_555
C22_8 C21_8 1_555 1_555
H20_8 C22_8 1_555 1_555
N3_8 C1_8 1_555 1_555
N4_8 C6_8 1_555 1_555
Cu4_5 N1_8 1_555 1_555
N5_8 C23_8 1_555 1_555
C23_8 H21_8 1_555 1_555
C24_8 C23_8 1_555 1_555
H22_8 C24_8 1_555 1_555
C25_8 C24_8 1_555 1_555
C26_8 C25_8 1_555 1_555
H23_8 C26_8 1_555 1_555
C27_8 N5_8 1_555 1_555
H24_8 C27_8 1_555 1_555
C28_8 C25_8 1_555 1_555
H25_8 C28_8 1_555 1_555
H26_8 C28_8 1_555 1_555
N6_8 Cu4_5 1_555 1_555
C29_8 N6_8 1_555 1_555
H27_8 C29_8 1_555 1_555
C30_8 C29_8 1_555 1_555
H28_8 C30_8 1_555 1_555
C31_8 C30_8 1_555 1_555
C32_8 C31_8 1_555 1_555
H29_8 C32_8 1_555 1_555
C33_8 N6_8 1_555 1_555
H30_8 C33_8 1_555 1_555
C34_8 C28_8 1_555 1_555
H31_8 C34_8 1_555 1_555
H32_8 C34_8 1_555 1_555
Cu4_4 N5_8 1_555 1_555
C35_8 H33_8 1_555 1_555
C36_6 C35_8 1_555 1_555
H34_6 C36_6 1_555 1_555
C37_6 C36_6 1_555 1_555
H35_6 C37_6 1_555 1_555
C38_6 C37_6 1_555 1_555
H36_6 C38_6 1_555 1_555
C39_8 C38_6 1_555 1_555
C40_8 C39_8 1_555 1_555
C41_8 C40_8 1_555 1_555
H37_8 C41_8 1_555 1_555
C42_8 C41_8 1_555 1_555
H38_8 C42_8 1_555 1_555
C43_8 C42_8 1_555 1_555
H39_8 C43_8 1_555 1_555
C44_8 C43_8 1_555 1_555
H40_8 C44_8 1_555 1_555
N7_8 Cu4_4 1_555 1_555
N8_8 Cu4_4 1_555 1_555
C5_8 N3_8 1_555 1_555
C12_8 C13_8 1_555 1_555
C22_8 N4_8 1_555 1_555
N3_8 Cu4_5 1_555 1_555
N4_8 Cu4_5 1_555 1_555
C26_8 C27_8 1_555 1_555
C31_8 C34_8 1_555 1_555
C32_8 C33_8 1_555 1_555
C35_8 N7_8 1_555 1_555
C39_8 N7_8 1_555 1_555
C40_8 N8_8 1_555 1_555
C44_8 N8_8 1_555 1_555
H34_7 C36_7 1_555 1_555
C37_7 C36_7 1_555 1_555
H35_7 C37_7 1_555 1_555
C38_7 C37_7 1_555 1_555
H36_7 C38_7 1_555 1_555
H2_5 C2_5 1_555 1_555
C3_5 C2_5 1_555 1_555
H3_5 C3_5 1_555 1_555
C4_5 C3_5 1_555 1_555
H4_5 C4_5 1_555 1_555
H2_6 C2_6 1_555 1_555
C3_6 C2_6 1_555 1_555
H3_6 C3_6 1_555 1_555
C4_6 C3_6 1_555 1_555
H4_6 C4_6 1_555 1_555
H34_8 C36_8 1_555 1_555
C37_8 C36_8 1_555 1_555
H35_8 C37_8 1_555 1_555
C38_8 C37_8 1_555 1_555
H36_8 C38_8 1_555 1_555
H2_7 C2_7 1_555 1_555
C3_7 C2_7 1_555 1_555
H3_7 C3_7 1_555 1_555
C4_7 C3_7 1_555 1_555
H4_7 C4_7 1_555 1_555
H2_8 C2_8 1_555 1_555
C3_8 C2_8 1_555 1_555
H3_8 C3_8 1_555 1_555
C4_8 C3_8 1_555 1_555
H4_8 C4_8 1_555 1_555
B1 F1 1_555 1_555
F2 B1 1_555 1_555
F3 B1 1_555 1_555
F4 B1 1_555 1_555
B1_2 F1_2 1_555 1_555
F2_2 B1_2 1_555 1_555
F3_2 B1_2 1_555 1_555
F4_2 B1_2 1_555 1_555
B1_3 F1_3 1_555 1_555
F2_3 B1_3 1_555 1_555
F3_3 B1_3 1_555 1_555
F4_3 B1_3 1_555 1_555
B1_4 F1_4 1_555 1_555
F2_4 B1_4 1_555 1_555
F3_4 B1_4 1_555 1_555
F4_4 B1_4 1_555 1_555
B1_5 F1_5 1_555 1_555
F2_5 B1_5 1_555 1_555
F3_5 B1_5 1_555 1_555
F4_5 B1_5 1_555 1_555
B1_6 F1_6 1_555 1_555
F2_6 B1_6 1_555 1_555
F3_6 B1_6 1_555 1_555
F4_6 B1_6 1_555 1_555
B1_7 F1_7 1_555 1_555
F2_7 B1_7 1_555 1_555
F3_7 B1_7 1_555 1_555
F4_7 B1_7 1_555 1_555
B1_8 F1_8 1_555 1_555
F2_8 B1_8 1_555 1_555
F3_8 B1_8 1_555 1_555
F4_8 B1_8 1_555 1_555
B1_9 F1_9 1_555 1_555
F2_9 B1_9 1_555 1_555
F3_9 B1_9 1_555 1_555
F4_9 B1_9 1_555 1_555
B1_10 F1_10 1_555 1_555
F2_10 B1_10 1_555 1_555
F3_10 B1_10 1_555 1_555
F4_10 B1_10 1_555 1_555
B1_11 F1_11 1_555 1_555
F2_11 B1_11 1_555 1_555
F3_11 B1_11 1_555 1_555
F4_11 B1_11 1_555 1_555
B1_12 F1_12 1_555 1_555
F2_12 B1_12 1_555 1_555
F3_12 B1_12 1_555 1_555
F4_12 B1_12 1_555 1_555
B1_13 F1_13 1_555 1_555
F2_13 B1_13 1_555 1_555
F3_13 B1_13 1_555 1_555
F4_13 B1_13 1_555 1_555
B1_14 F1_14 1_555 1_555
F2_14 B1_14 1_555 1_555
F3_14 B1_14 1_555 1_555
F4_14 B1_14 1_555 1_555
B1_15 F1_15 1_555 1_555
F2_15 B1_15 1_555 1_555
F3_15 B1_15 1_555 1_555
F4_15 B1_15 1_555 1_555
B1_16 F1_16 1_555 1_555
F2_16 B1_16 1_555 1_555
F3_16 B1_16 1_555 1_555
F4_16 B1_16 1_555 1_555
F7 B2 1_555 1_555
F8 B2 1_555 1_555
B2_2 F5 1_555 1_555
F6 B2_2 1_555 1_555
B2_3 F5_2 1_555 1_555
F6_2 B2_3 1_555 1_555
F7_2 B2_3 1_555 1_555
F8_2 B2_3 1_555 1_555
F8_3 B2_4 1_555 1_555
F7_3 B2_5 1_555 1_555
B2_6 F5_3 1_555 1_555
F6_3 B2_7 1_555 1_555
B2_8 F5_4 1_555 1_555
F6_4 B2_8 1_555 1_555
F7_4 B2_9 1_555 1_555
F8_4 B2_9 1_555 1_555
B2_10 F5_5 1_555 1_555
F8_5 B2_10 1_555 1_555
F6_5 B2_11 1_555 1_555
F7_5 B2_11 1_555 1_555
B2_12 F5_6 1_555 1_555
F8_6 B2_13 1_555 1_555
F6_6 B2_14 1_555 1_555
F7_6 B2_15 1_555 1_555
B2_16 F5_7 1_555 1_555
F6_7 B2_16 1_555 1_555
F7_7 B2_16 1_555 1_555
F8_7 B2_16 1_555 1_555
B2_17 F5_8 1_555 1_555
F8_8 B2_17 1_555 1_555
F6_8 B2_18 1_555 1_555
F7_8 B2_18 1_555 1_555

#END
