
###############################################################################
#
# This file contains modified crystal structure data generated from the
# MOF subset of the Cambridge Structural Database (CSD) v543 
# hosted by the Cambridge Crystallographic Data Centre (CCDC).
#
# This work is licensed under the Creative Commons
# Attribution-NonCommercial-ShareAlike 4.0 International License.
# To view a copy of this license, visit
# http://creativecommons.org/licenses/by-nc-sa/4.0/
# or send a letter to
# Creative Commons, PO Box 1866, Mountain View, CA 94042, USA.
#
# CIF created using the CSD Python API on 29 September 2022
# The structure has been converted into the P1 space group
# The structure has a 3D framework
# The original CSD entry OBOYEN is in the orthorhombic crystal system
# The framework has been calculated to contain at least 10.0% void space
# The void calculation uses a probe of radius 1.32A, grid spacing 0.4
#
###############################################################################

data_OBOYEN
_chemical_formula_moiety         '(C256 H96 N32 O192 Zn16)n'
_symmetry_cell_setting           triclinic
_symmetry_space_group_name_H-M   'P 1'
_symmetry_Int_Tables_number      1
_space_group_name_Hall           'P 1'
loop_
_symmetry_equiv_pos_site_id
_symmetry_equiv_pos_as_xyz
1 x,y,z
_cell_length_a                   21.701(4)
_cell_length_b                   26.352(5)
_cell_length_c                   28.303(6)
_cell_angle_alpha                90
_cell_angle_beta                 90
_cell_angle_gamma                90
_cell_volume                     16185.5
loop_
_atom_site_label
_atom_site_type_symbol
_atom_site_fract_x
_atom_site_fract_y
_atom_site_fract_z
C9 C 0.04141(18) 0.41176(17) 0.22241(15)
C10 C 0.06017(19) 0.44264(19) 0.25875(17)
C11 C 0.0203(2) 0.4693(2) 0.28648(18)
H4 H 0.034810 0.490064 0.310636
C15 C 0.0866(2) 0.38459(18) 0.19086(17)
N2 N 0.12508(17) 0.4480(2) 0.2715(2)
O7 O 0.06507(12) 0.35487(13) 0.16032(10)
O8 O 0.14158(18) 0.3924(2) 0.19674(19)
O11 O 0.15167(19) 0.4859(2) 0.2621(3)
O12 O 0.1485(2) 0.4127(3) 0.2945(2)
Zn2 Zn 0.125000 0.31271(2) 0.125000
C1 C 0.70859(18) 0.41176(17) 0.52759(15)
C2 C 0.68983(19) 0.44264(19) 0.49125(17)
C3 C 0.7297(2) 0.4693(2) 0.46352(18)
H1 H 0.715190 0.490064 0.439364
C4 C 0.7934(2) 0.4649(2) 0.47222(17)
C5 C 0.8134(2) 0.4334(2) 0.5079(2)
H2 H 0.855455 0.430199 0.513645
C6 C 0.7722(2) 0.4067(2) 0.53510(18)
H3 H 0.786553 0.385079 0.558641
C7 C 0.6634(2) 0.38459(18) 0.55914(17)
C8 C 0.8389(2) 0.4951(2) 0.4427(2)
N1 N 0.62492(17) 0.4480(2) 0.4785(2)
O1 O 0.68493(12) 0.35487(13) 0.58968(10)
O2 O 0.60842(18) 0.3924(2) 0.55326(19)
O3 O 0.81507(13) 0.52740(12) 0.41409(11)
O4 O 0.89447(19) 0.4891(3) 0.4481(2)
O5 O 0.59833(19) 0.4859(2) 0.4879(3)
O6 O 0.6015(2) 0.4127(3) 0.4555(2)
Zn1 Zn 0.875000 0.56271(2) 0.375000
C12 C 0.9566(2) 0.4649(2) 0.27778(17)
C13 C 0.9366(2) 0.4334(2) 0.2421(2)
H5 H 0.894545 0.430199 0.236355
C14 C 0.9778(2) 0.4067(2) 0.21490(18)
H6 H 0.963447 0.385079 0.191359
C16 C 0.9111(2) 0.4951(2) 0.3073(2)
O9 O 0.93493(13) 0.52740(12) 0.33591(11)
O10 O 0.85553(19) 0.4891(3) 0.3019(2)
O13 O 0.93493(12) 0.60487(13) 0.41032(10)
O14 O 0.81507(12) 0.60487(13) 0.33968(10)
Zn3 Zn 0.625000 0.31271(2) 0.625000
C9_2 C 0.04141(18) 0.91176(17) 0.72241(15)
C10_2 C 0.06017(19) 0.94264(19) 0.75875(17)
C11_2 C 0.0203(2) 0.9693(2) 0.78648(18)
H4_2 H 0.034810 0.990064 0.810636
C15_2 C 0.0866(2) 0.88459(18) 0.69086(17)
N2_2 N 0.12508(17) 0.9480(2) 0.7715(2)
O7_2 O 0.06507(12) 0.85487(13) 0.66032(10)
O8_2 O 0.14158(18) 0.8924(2) 0.69674(19)
O11_2 O 0.15167(19) 0.9859(2) 0.7621(3)
O12_2 O 0.1485(2) 0.9127(3) 0.7945(2)
Zn2_2 Zn 0.125000 0.81271(2) 0.625000
O3_2 O 0.81507(13) 0.02740(12) 0.91409(11)
Zn1_2 Zn 0.875000 0.06271(2) 0.875000
O9_2 O 0.93493(13) 0.02740(12) 0.83591(11)
O13_2 O 0.93493(12) 0.10487(13) 0.91032(10)
O14_2 O 0.81507(12) 0.10487(13) 0.83968(10)
C1_2 C 0.70859(18) 0.91176(17) 0.02759(15)
C5_2 C 0.8134(2) 0.9334(2) 0.0079(2)
H2_2 H 0.855455 0.930199 0.013645
C6_2 C 0.7722(2) 0.9067(2) 0.03510(18)
H3_2 H 0.786553 0.885079 0.058641
C7_2 C 0.6634(2) 0.88459(18) 0.05914(17)
O1_2 O 0.68493(12) 0.85487(13) 0.08968(10)
O2_2 O 0.60842(18) 0.8924(2) 0.05326(19)
Zn3_2 Zn 0.625000 0.81271(2) 0.125000
C1_3 C 0.20859(18) 0.41176(17) 0.02759(15)
C5_3 C 0.3134(2) 0.4334(2) 0.0079(2)
H2_3 H 0.355455 0.430199 0.013645
C6_3 C 0.2722(2) 0.4067(2) 0.03510(18)
H3_3 H 0.286553 0.385079 0.058641
C7_3 C 0.1634(2) 0.38459(18) 0.05914(17)
O1_3 O 0.18493(12) 0.35487(13) 0.08968(10)
O2_3 O 0.10842(18) 0.3924(2) 0.05326(19)
C2_2 C 0.18983(19) 0.44264(19) 0.99125(17)
C3_2 C 0.2297(2) 0.4693(2) 0.96352(18)
H1_2 H 0.215190 0.490064 0.939364
C4_2 C 0.2934(2) 0.4649(2) 0.97222(17)
C8_2 C 0.3389(2) 0.4951(2) 0.9427(2)
N1_2 N 0.12492(17) 0.4480(2) 0.9785(2)
O3_3 O 0.31507(13) 0.52740(12) 0.91409(11)
O4_2 O 0.39447(19) 0.4891(3) 0.9481(2)
O5_2 O 0.09833(19) 0.4859(2) 0.9879(3)
O6_2 O 0.1015(2) 0.4127(3) 0.9555(2)
Zn1_3 Zn 0.375000 0.56271(2) 0.875000
C9_3 C 0.54141(18) 0.41176(17) 0.72241(15)
C10_3 C 0.56017(19) 0.44264(19) 0.75875(17)
C11_3 C 0.5203(2) 0.4693(2) 0.78648(18)
H4_3 H 0.534810 0.490064 0.810636
C12_2 C 0.4566(2) 0.4649(2) 0.77778(17)
C13_2 C 0.4366(2) 0.4334(2) 0.7421(2)
H5_2 H 0.394545 0.430199 0.736355
C14_2 C 0.4778(2) 0.4067(2) 0.71490(18)
H6_2 H 0.463447 0.385079 0.691359
C15_3 C 0.5866(2) 0.38459(18) 0.69086(17)
C16_2 C 0.4111(2) 0.4951(2) 0.8073(2)
N2_3 N 0.62508(17) 0.4480(2) 0.7715(2)
O7_3 O 0.56507(12) 0.35487(13) 0.66032(10)
O8_3 O 0.64158(18) 0.3924(2) 0.69674(19)
O9_3 O 0.43493(13) 0.52740(12) 0.83591(11)
O10_2 O 0.35553(19) 0.4891(3) 0.8019(2)
O11_3 O 0.65167(19) 0.4859(2) 0.7621(3)
O12_3 O 0.6485(2) 0.4127(3) 0.7945(2)
O13_3 O 0.43493(12) 0.60487(13) 0.91032(10)
O14_3 O 0.31507(12) 0.60487(13) 0.83968(10)
O3_4 O 0.31507(13) 0.02740(12) 0.41409(11)
Zn1_4 Zn 0.375000 0.06271(2) 0.375000
O9_4 O 0.43493(13) 0.02740(12) 0.33591(11)
O13_4 O 0.43493(12) 0.10487(13) 0.41032(10)
O14_4 O 0.31507(12) 0.10487(13) 0.33968(10)
C1_4 C 0.20859(18) 0.91176(17) 0.52759(15)
C2_3 C 0.18983(19) 0.94264(19) 0.49125(17)
C3_3 C 0.2297(2) 0.9693(2) 0.46352(18)
H1_3 H 0.215190 0.990064 0.439364
C4_3 C 0.2934(2) 0.9649(2) 0.47222(17)
C5_4 C 0.3134(2) 0.9334(2) 0.5079(2)
H2_4 H 0.355455 0.930199 0.513645
C6_4 C 0.2722(2) 0.9067(2) 0.53510(18)
H3_4 H 0.286553 0.885079 0.558641
C7_4 C 0.1634(2) 0.88459(18) 0.55914(17)
C8_3 C 0.3389(2) 0.9951(2) 0.4427(2)
N1_3 N 0.12492(17) 0.9480(2) 0.4785(2)
O1_4 O 0.18493(12) 0.85487(13) 0.58968(10)
O2_4 O 0.10842(18) 0.8924(2) 0.55326(19)
O4_3 O 0.39447(19) 0.9891(3) 0.4481(2)
O5_3 O 0.09833(19) 0.9859(2) 0.4879(3)
O6_3 O 0.1015(2) 0.9127(3) 0.4555(2)
C9_4 C 0.54141(18) 0.91176(17) 0.22241(15)
C10_4 C 0.56017(19) 0.94264(19) 0.25875(17)
C11_4 C 0.5203(2) 0.9693(2) 0.28648(18)
H4_4 H 0.534810 0.990064 0.310636
C12_3 C 0.4566(2) 0.9649(2) 0.27778(17)
C13_3 C 0.4366(2) 0.9334(2) 0.2421(2)
H5_3 H 0.394545 0.930199 0.236355
C14_3 C 0.4778(2) 0.9067(2) 0.21490(18)
H6_3 H 0.463447 0.885079 0.191359
C15_4 C 0.5866(2) 0.88459(18) 0.19086(17)
C16_3 C 0.4111(2) 0.9951(2) 0.3073(2)
N2_4 N 0.62508(17) 0.9480(2) 0.2715(2)
O7_4 O 0.56507(12) 0.85487(13) 0.16032(10)
O8_4 O 0.64158(18) 0.8924(2) 0.19674(19)
O10_3 O 0.35553(19) 0.9891(3) 0.3019(2)
O11_4 O 0.65167(19) 0.9859(2) 0.2621(3)
O12_4 O 0.6485(2) 0.9127(3) 0.2945(2)
C4_4 C 0.0434(2) 0.7149(2) 0.52778(17)
C5_5 C 0.0634(2) 0.6834(2) 0.4921(2)
H2_5 H 0.105455 0.680199 0.486355
C6_5 C 0.0222(2) 0.6567(2) 0.46490(18)
H3_5 H 0.036553 0.635079 0.441359
C8_4 C 0.0889(2) 0.7451(2) 0.5573(2)
O3_5 O 0.06507(13) 0.77740(12) 0.58591(11)
O4_4 O 0.14447(19) 0.7391(3) 0.5519(2)
C9_5 C 0.29141(18) 0.66176(17) 0.77759(15)
C10_5 C 0.31017(19) 0.69264(19) 0.74125(17)
C11_5 C 0.2703(2) 0.7193(2) 0.71352(18)
H4_5 H 0.284810 0.740064 0.689364
C12_4 C 0.2066(2) 0.7149(2) 0.72222(17)
C13_4 C 0.1866(2) 0.6834(2) 0.7579(2)
H5_4 H 0.144545 0.680199 0.763645
C14_4 C 0.2278(2) 0.6567(2) 0.78510(18)
H6_4 H 0.213447 0.635079 0.808641
C15_5 C 0.3366(2) 0.63459(18) 0.80914(17)
C16_4 C 0.1611(2) 0.7451(2) 0.6927(2)
N2_5 N 0.37508(17) 0.6980(2) 0.7285(2)
O8_5 O 0.39158(18) 0.6424(2) 0.80326(19)
O9_5 O 0.18493(13) 0.77740(12) 0.66409(11)
O10_4 O 0.10553(19) 0.7391(3) 0.6981(2)
O11_5 O 0.40167(19) 0.7359(2) 0.7379(3)
O12_5 O 0.3985(2) 0.6627(3) 0.7055(2)
C1_5 C 0.95859(18) 0.66176(17) 0.47241(15)
C2_4 C 0.93983(19) 0.69264(19) 0.50875(17)
C3_4 C 0.9797(2) 0.7193(2) 0.53648(18)
H1_4 H 0.965190 0.740064 0.560636
C7_5 C 0.9134(2) 0.63459(18) 0.44086(17)
N1_4 N 0.87492(17) 0.6980(2) 0.5215(2)
O2_5 O 0.85842(18) 0.6424(2) 0.44674(19)
O5_4 O 0.84833(19) 0.7359(2) 0.5121(3)
O6_4 O 0.8515(2) 0.6627(3) 0.5445(2)
C4_5 C 0.0434(2) 0.2149(2) 0.02778(17)
C8_5 C 0.0889(2) 0.2451(2) 0.0573(2)
O3_6 O 0.06507(13) 0.27740(12) 0.08591(11)
O4_5 O 0.14447(19) 0.2391(3) 0.0519(2)
C9_6 C 0.29141(18) 0.16176(17) 0.27759(15)
C10_6 C 0.31017(19) 0.19264(19) 0.24125(17)
C11_6 C 0.2703(2) 0.2193(2) 0.21352(18)
H4_6 H 0.284810 0.240064 0.189364
C12_5 C 0.2066(2) 0.2149(2) 0.22222(17)
C13_5 C 0.1866(2) 0.1834(2) 0.2579(2)
H5_5 H 0.144545 0.180199 0.263645
C14_5 C 0.2278(2) 0.1567(2) 0.28510(18)
H6_5 H 0.213447 0.135079 0.308641
C15_6 C 0.3366(2) 0.13459(18) 0.30914(17)
C16_5 C 0.1611(2) 0.2451(2) 0.1927(2)
N2_6 N 0.37508(17) 0.1980(2) 0.2285(2)
O8_6 O 0.39158(18) 0.1424(2) 0.30326(19)
O9_6 O 0.18493(13) 0.27740(12) 0.16409(11)
O10_5 O 0.10553(19) 0.2391(3) 0.1981(2)
O11_6 O 0.40167(19) 0.2359(2) 0.2379(3)
O12_6 O 0.3985(2) 0.1627(3) 0.2055(2)
C1_6 C 0.95859(18) 0.16176(17) 0.97241(15)
C7_6 C 0.9134(2) 0.13459(18) 0.94086(17)
O2_6 O 0.85842(18) 0.1424(2) 0.94674(19)
C2_5 C 0.43983(19) 0.69264(19) 0.00875(17)
C3_5 C 0.4797(2) 0.7193(2) 0.03648(18)
H1_5 H 0.465190 0.740064 0.060636
C4_6 C 0.5434(2) 0.7149(2) 0.02778(17)
C8_6 C 0.5889(2) 0.7451(2) 0.0573(2)
N1_5 N 0.37492(17) 0.6980(2) 0.0215(2)
O3_7 O 0.56507(13) 0.77740(12) 0.08591(11)
O4_6 O 0.64447(19) 0.7391(3) 0.0519(2)
O5_5 O 0.34833(19) 0.7359(2) 0.0121(3)
O6_5 O 0.3515(2) 0.6627(3) 0.0445(2)
C9_7 C 0.79141(18) 0.66176(17) 0.27759(15)
C10_7 C 0.81017(19) 0.69264(19) 0.24125(17)
C11_7 C 0.7703(2) 0.7193(2) 0.21352(18)
H4_7 H 0.784810 0.740064 0.189364
C12_6 C 0.7066(2) 0.7149(2) 0.22222(17)
C13_6 C 0.6866(2) 0.6834(2) 0.2579(2)
H5_6 H 0.644545 0.680199 0.263645
C14_6 C 0.7278(2) 0.6567(2) 0.28510(18)
H6_6 H 0.713447 0.635079 0.308641
C15_7 C 0.8366(2) 0.63459(18) 0.30914(17)
C16_6 C 0.6611(2) 0.7451(2) 0.1927(2)
N2_7 N 0.87508(17) 0.6980(2) 0.2285(2)
O8_7 O 0.89158(18) 0.6424(2) 0.30326(19)
O9_7 O 0.68493(13) 0.77740(12) 0.16409(11)
O10_6 O 0.60553(19) 0.7391(3) 0.1981(2)
O11_7 O 0.90167(19) 0.7359(2) 0.2379(3)
O12_7 O 0.8985(2) 0.6627(3) 0.2055(2)
C1_7 C 0.45859(18) 0.66176(17) 0.97241(15)
C5_6 C 0.5634(2) 0.6834(2) 0.9921(2)
H2_6 H 0.605455 0.680199 0.986355
C6_6 C 0.5222(2) 0.6567(2) 0.96490(18)
H3_6 H 0.536553 0.635079 0.941359
C7_7 C 0.4134(2) 0.63459(18) 0.94086(17)
O2_7 O 0.35842(18) 0.6424(2) 0.94674(19)
C1_8 C 0.45859(18) 0.16176(17) 0.47241(15)
C2_6 C 0.43983(19) 0.19264(19) 0.50875(17)
C3_6 C 0.4797(2) 0.2193(2) 0.53648(18)
H1_6 H 0.465190 0.240064 0.560636
C4_7 C 0.5434(2) 0.2149(2) 0.52778(17)
C5_7 C 0.5634(2) 0.1834(2) 0.4921(2)
H2_7 H 0.605455 0.180199 0.486355
C6_7 C 0.5222(2) 0.1567(2) 0.46490(18)
H3_7 H 0.536553 0.135079 0.441359
C7_8 C 0.4134(2) 0.13459(18) 0.44086(17)
C8_7 C 0.5889(2) 0.2451(2) 0.5573(2)
N1_6 N 0.37492(17) 0.1980(2) 0.5215(2)
O2_8 O 0.35842(18) 0.1424(2) 0.44674(19)
O3_8 O 0.56507(13) 0.27740(12) 0.58591(11)
O4_7 O 0.64447(19) 0.2391(3) 0.5519(2)
O5_6 O 0.34833(19) 0.2359(2) 0.5121(3)
O6_6 O 0.3515(2) 0.1627(3) 0.5445(2)
C9_8 C 0.79141(18) 0.16176(17) 0.77759(15)
C10_8 C 0.81017(19) 0.19264(19) 0.74125(17)
C11_8 C 0.7703(2) 0.2193(2) 0.71352(18)
H4_8 H 0.784810 0.240064 0.689364
C12_7 C 0.7066(2) 0.2149(2) 0.72222(17)
C13_7 C 0.6866(2) 0.1834(2) 0.7579(2)
H5_7 H 0.644545 0.180199 0.763645
C14_7 C 0.7278(2) 0.1567(2) 0.78510(18)
H6_7 H 0.713447 0.135079 0.808641
C15_8 C 0.8366(2) 0.13459(18) 0.80914(17)
C16_7 C 0.6611(2) 0.2451(2) 0.6927(2)
N2_8 N 0.87508(17) 0.1980(2) 0.7285(2)
O8_8 O 0.89158(18) 0.1424(2) 0.80326(19)
O9_8 O 0.68493(13) 0.27740(12) 0.66409(11)
O10_7 O 0.60553(19) 0.2391(3) 0.6981(2)
O11_8 O 0.90167(19) 0.2359(2) 0.7379(3)
O12_8 O 0.8985(2) 0.1627(3) 0.7055(2)
C1_9 C 0.04141(18) 0.33824(17) 0.52759(15)
C2_7 C 0.06017(19) 0.30736(19) 0.49125(17)
C3_7 C 0.0203(2) 0.2807(2) 0.46352(18)
H1_7 H 0.034810 0.259936 0.439364
C7_9 C 0.0866(2) 0.36541(18) 0.55914(17)
N1_7 N 0.12508(17) 0.3020(2) 0.4785(2)
O1_5 O 0.06507(12) 0.39513(13) 0.58968(10)
O2_9 O 0.14158(18) 0.3576(2) 0.55326(19)
O5_7 O 0.15167(19) 0.2641(2) 0.4879(3)
O6_7 O 0.1485(2) 0.3373(3) 0.4555(2)
Zn3_3 Zn 0.125000 0.43729(2) 0.625000
C4_8 C 0.9566(2) 0.2851(2) 0.47222(17)
C5_8 C 0.9366(2) 0.3166(2) 0.5079(2)
H2_8 H 0.894545 0.319801 0.513645
C6_8 C 0.9778(2) 0.3433(2) 0.53510(18)
H3_8 H 0.963447 0.364921 0.558641
C8_8 C 0.9111(2) 0.2549(2) 0.4427(2)
O3_9 O 0.93493(13) 0.22260(12) 0.41409(11)
O4_8 O 0.85553(19) 0.2609(3) 0.4481(2)
Zn1_5 Zn 0.875000 0.18729(2) 0.375000
C9_9 C 0.70859(18) 0.33824(17) 0.22241(15)
C10_9 C 0.68983(19) 0.30736(19) 0.25875(17)
C11_9 C 0.7297(2) 0.2807(2) 0.28648(18)
H4_9 H 0.715190 0.259936 0.310636
C12_8 C 0.7934(2) 0.2851(2) 0.27778(17)
C13_8 C 0.8134(2) 0.3166(2) 0.2421(2)
H5_8 H 0.855455 0.319801 0.236355
C14_8 C 0.7722(2) 0.3433(2) 0.21490(18)
H6_8 H 0.786553 0.364921 0.191359
C15_9 C 0.6634(2) 0.36541(18) 0.19086(17)
C16_8 C 0.8389(2) 0.2549(2) 0.3073(2)
N2_9 N 0.62492(17) 0.3020(2) 0.2715(2)
O7_5 O 0.68493(12) 0.39513(13) 0.16032(10)
O8_9 O 0.60842(18) 0.3576(2) 0.19674(19)
O9_9 O 0.81507(13) 0.22260(12) 0.33591(11)
O10_8 O 0.89447(19) 0.2609(3) 0.3019(2)
O11_9 O 0.59833(19) 0.2641(2) 0.2621(3)
O12_9 O 0.6015(2) 0.3373(3) 0.2945(2)
O13_5 O 0.81507(12) 0.14513(13) 0.41032(10)
O14_5 O 0.93493(12) 0.14513(13) 0.33968(10)
Zn2_3 Zn 0.625000 0.43729(2) 0.125000
C1_10 C 0.04141(18) 0.83824(17) 0.02759(15)
C7_10 C 0.0866(2) 0.86541(18) 0.05914(17)
O1_6 O 0.06507(12) 0.89513(13) 0.08968(10)
O2_10 O 0.14158(18) 0.8576(2) 0.05326(19)
Zn3_4 Zn 0.125000 0.93729(2) 0.125000
C4_9 C 0.9566(2) 0.7851(2) 0.97222(17)
C8_9 C 0.9111(2) 0.7549(2) 0.9427(2)
O3_10 O 0.93493(13) 0.72260(12) 0.91409(11)
O4_9 O 0.85553(19) 0.7609(3) 0.9481(2)
Zn1_6 Zn 0.875000 0.68729(2) 0.875000
C9_10 C 0.70859(18) 0.83824(17) 0.72241(15)
C10_10 C 0.68983(19) 0.80736(19) 0.75875(17)
C11_10 C 0.7297(2) 0.7807(2) 0.78648(18)
H4_10 H 0.715190 0.759936 0.810636
C12_9 C 0.7934(2) 0.7851(2) 0.77778(17)
C13_9 C 0.8134(2) 0.8166(2) 0.7421(2)
H5_9 H 0.855455 0.819801 0.736355
C14_9 C 0.7722(2) 0.8433(2) 0.71490(18)
H6_9 H 0.786553 0.864921 0.691359
C15_10 C 0.6634(2) 0.86541(18) 0.69086(17)
C16_9 C 0.8389(2) 0.7549(2) 0.8073(2)
N2_10 N 0.62492(17) 0.8020(2) 0.7715(2)
O7_6 O 0.68493(12) 0.89513(13) 0.66032(10)
O8_10 O 0.60842(18) 0.8576(2) 0.69674(19)
O9_10 O 0.81507(13) 0.72260(12) 0.83591(11)
O10_9 O 0.89447(19) 0.7609(3) 0.8019(2)
O11_10 O 0.59833(19) 0.7641(2) 0.7621(3)
O12_10 O 0.6015(2) 0.8373(3) 0.7945(2)
O13_6 O 0.81507(12) 0.64513(13) 0.91032(10)
O14_6 O 0.93493(12) 0.64513(13) 0.83968(10)
Zn2_4 Zn 0.625000 0.93729(2) 0.625000
C1_11 C 0.54141(18) 0.33824(17) 0.02759(15)
C5_9 C 0.4366(2) 0.3166(2) 0.0079(2)
H2_9 H 0.394545 0.319801 0.013645
C6_9 C 0.4778(2) 0.3433(2) 0.03510(18)
H3_9 H 0.463447 0.364921 0.058641
C7_11 C 0.5866(2) 0.36541(18) 0.05914(17)
O1_7 O 0.56507(12) 0.39513(13) 0.08968(10)
O2_11 O 0.64158(18) 0.3576(2) 0.05326(19)
C2_8 C 0.56017(19) 0.30736(19) 0.99125(17)
C3_8 C 0.5203(2) 0.2807(2) 0.96352(18)
H1_8 H 0.534810 0.259936 0.939364
C4_10 C 0.4566(2) 0.2851(2) 0.97222(17)
C8_10 C 0.4111(2) 0.2549(2) 0.9427(2)
N1_8 N 0.62508(17) 0.3020(2) 0.9785(2)
O3_11 O 0.43493(13) 0.22260(12) 0.91409(11)
O4_10 O 0.35553(19) 0.2609(3) 0.9481(2)
O5_8 O 0.65167(19) 0.2641(2) 0.9879(3)
O6_8 O 0.6485(2) 0.3373(3) 0.9555(2)
Zn1_7 Zn 0.375000 0.18729(2) 0.875000
C9_11 C 0.20859(18) 0.33824(17) 0.72241(15)
C10_11 C 0.18983(19) 0.30736(19) 0.75875(17)
C11_11 C 0.2297(2) 0.2807(2) 0.78648(18)
H4_11 H 0.215190 0.259936 0.810636
C12_10 C 0.2934(2) 0.2851(2) 0.77778(17)
C13_10 C 0.3134(2) 0.3166(2) 0.7421(2)
H5_10 H 0.355455 0.319801 0.736355
C14_10 C 0.2722(2) 0.3433(2) 0.71490(18)
H6_10 H 0.286553 0.364921 0.691359
C15_11 C 0.1634(2) 0.36541(18) 0.69086(17)
C16_10 C 0.3389(2) 0.2549(2) 0.8073(2)
N2_11 N 0.12492(17) 0.3020(2) 0.7715(2)
O7_7 O 0.18493(12) 0.39513(13) 0.66032(10)
O8_11 O 0.10842(18) 0.3576(2) 0.69674(19)
O9_11 O 0.31507(13) 0.22260(12) 0.83591(11)
O10_10 O 0.39447(19) 0.2609(3) 0.8019(2)
O11_11 O 0.09833(19) 0.2641(2) 0.7621(3)
O12_11 O 0.1015(2) 0.3373(3) 0.7945(2)
O13_7 O 0.31507(12) 0.14513(13) 0.91032(10)
O14_7 O 0.43493(12) 0.14513(13) 0.83968(10)
C1_12 C 0.54141(18) 0.83824(17) 0.52759(15)
C2_9 C 0.56017(19) 0.80736(19) 0.49125(17)
C3_9 C 0.5203(2) 0.7807(2) 0.46352(18)
H1_9 H 0.534810 0.759936 0.439364
C4_11 C 0.4566(2) 0.7851(2) 0.47222(17)
C5_10 C 0.4366(2) 0.8166(2) 0.5079(2)
H2_10 H 0.394545 0.819801 0.513645
C6_10 C 0.4778(2) 0.8433(2) 0.53510(18)
H3_10 H 0.463447 0.864921 0.558641
C7_12 C 0.5866(2) 0.86541(18) 0.55914(17)
C8_11 C 0.4111(2) 0.7549(2) 0.4427(2)
N1_9 N 0.62508(17) 0.8020(2) 0.4785(2)
O1_8 O 0.56507(12) 0.89513(13) 0.58968(10)
O2_12 O 0.64158(18) 0.8576(2) 0.55326(19)
O3_12 O 0.43493(13) 0.72260(12) 0.41409(11)
O4_11 O 0.35553(19) 0.7609(3) 0.4481(2)
O5_9 O 0.65167(19) 0.7641(2) 0.4879(3)
O6_9 O 0.6485(2) 0.8373(3) 0.4555(2)
Zn1_8 Zn 0.375000 0.68729(2) 0.375000
C9_12 C 0.20859(18) 0.83824(17) 0.22241(15)
C10_12 C 0.18983(19) 0.80736(19) 0.25875(17)
C11_12 C 0.2297(2) 0.7807(2) 0.28648(18)
H4_12 H 0.215190 0.759936 0.310636
C12_11 C 0.2934(2) 0.7851(2) 0.27778(17)
C13_11 C 0.3134(2) 0.8166(2) 0.2421(2)
H5_11 H 0.355455 0.819801 0.236355
C14_11 C 0.2722(2) 0.8433(2) 0.21490(18)
H6_11 H 0.286553 0.864921 0.191359
C15_12 C 0.1634(2) 0.86541(18) 0.19086(17)
C16_11 C 0.3389(2) 0.7549(2) 0.3073(2)
N2_12 N 0.12492(17) 0.8020(2) 0.2715(2)
O7_8 O 0.18493(12) 0.89513(13) 0.16032(10)
O8_12 O 0.10842(18) 0.8576(2) 0.19674(19)
O9_12 O 0.31507(13) 0.72260(12) 0.33591(11)
O10_11 O 0.39447(19) 0.7609(3) 0.3019(2)
O11_12 O 0.09833(19) 0.7641(2) 0.2621(3)
O12_12 O 0.1015(2) 0.8373(3) 0.2945(2)
O13_8 O 0.31507(12) 0.64513(13) 0.41032(10)
O14_8 O 0.43493(12) 0.64513(13) 0.33968(10)
C1_13 C 0.29141(18) 0.58824(17) 0.47241(15)
C2_10 C 0.31017(19) 0.55736(19) 0.50875(17)
C3_10 C 0.2703(2) 0.5307(2) 0.53648(18)
H1_10 H 0.284810 0.509936 0.560636
C4_12 C 0.2066(2) 0.5351(2) 0.52778(17)
C5_11 C 0.1866(2) 0.5666(2) 0.4921(2)
H2_11 H 0.144545 0.569801 0.486355
C6_11 C 0.2278(2) 0.5933(2) 0.46490(18)
H3_11 H 0.213447 0.614921 0.441359
C7_13 C 0.3366(2) 0.61541(18) 0.44086(17)
C8_12 C 0.1611(2) 0.5049(2) 0.5573(2)
N1_10 N 0.37508(17) 0.5520(2) 0.5215(2)
O2_13 O 0.39158(18) 0.6076(2) 0.44674(19)
O3_13 O 0.18493(13) 0.47260(12) 0.58591(11)
O4_12 O 0.10553(19) 0.5109(3) 0.5519(2)
O5_10 O 0.40167(19) 0.5141(2) 0.5121(3)
O6_10 O 0.3985(2) 0.5873(3) 0.5445(2)
C12_12 C 0.0434(2) 0.5351(2) 0.72222(17)
C13_12 C 0.0634(2) 0.5666(2) 0.7579(2)
H5_12 H 0.105455 0.569801 0.763645
C14_12 C 0.0222(2) 0.5933(2) 0.78510(18)
H6_12 H 0.036553 0.614921 0.808641
C16_12 C 0.0889(2) 0.5049(2) 0.6927(2)
O9_13 O 0.06507(13) 0.47260(12) 0.66409(11)
O10_12 O 0.14447(19) 0.5109(3) 0.6981(2)
C9_13 C 0.95859(18) 0.58824(17) 0.77759(15)
C10_13 C 0.93983(19) 0.55736(19) 0.74125(17)
C11_13 C 0.9797(2) 0.5307(2) 0.71352(18)
H4_13 H 0.965190 0.509936 0.689364
C15_13 C 0.9134(2) 0.61541(18) 0.80914(17)
N2_13 N 0.87492(17) 0.5520(2) 0.7285(2)
O8_13 O 0.85842(18) 0.6076(2) 0.80326(19)
O11_13 O 0.84833(19) 0.5141(2) 0.7379(3)
O12_13 O 0.8515(2) 0.5873(3) 0.7055(2)
C1_14 C 0.29141(18) 0.08824(17) 0.97241(15)
C5_12 C 0.1866(2) 0.0666(2) 0.9921(2)
H2_12 H 0.144545 0.069801 0.986355
C6_12 C 0.2278(2) 0.0933(2) 0.96490(18)
H3_12 H 0.213447 0.114921 0.941359
C7_14 C 0.3366(2) 0.11541(18) 0.94086(17)
O2_14 O 0.39158(18) 0.1076(2) 0.94674(19)
O3_14 O 0.18493(13) 0.97260(12) 0.08591(11)
O9_14 O 0.06507(13) 0.97260(12) 0.16409(11)
C9_14 C 0.95859(18) 0.08824(17) 0.27759(15)
C10_14 C 0.93983(19) 0.05736(19) 0.24125(17)
C11_14 C 0.9797(2) 0.0307(2) 0.21352(18)
H4_14 H 0.965190 0.009936 0.189364
C15_14 C 0.9134(2) 0.11541(18) 0.30914(17)
N2_14 N 0.87492(17) 0.0520(2) 0.2285(2)
O8_14 O 0.85842(18) 0.1076(2) 0.30326(19)
O11_14 O 0.84833(19) 0.0141(2) 0.2379(3)
O12_14 O 0.8515(2) 0.0873(3) 0.2055(2)
C2_11 C 0.81017(19) 0.55736(19) 0.00875(17)
C3_11 C 0.7703(2) 0.5307(2) 0.03648(18)
H1_11 H 0.784810 0.509936 0.060636
C4_13 C 0.7066(2) 0.5351(2) 0.02778(17)
C8_13 C 0.6611(2) 0.5049(2) 0.0573(2)
N1_11 N 0.87508(17) 0.5520(2) 0.0215(2)
O3_15 O 0.68493(13) 0.47260(12) 0.08591(11)
O4_13 O 0.60553(19) 0.5109(3) 0.0519(2)
O5_11 O 0.90167(19) 0.5141(2) 0.0121(3)
O6_11 O 0.8985(2) 0.5873(3) 0.0445(2)
C9_15 C 0.45859(18) 0.58824(17) 0.27759(15)
C10_15 C 0.43983(19) 0.55736(19) 0.24125(17)
C11_15 C 0.4797(2) 0.5307(2) 0.21352(18)
H4_15 H 0.465190 0.509936 0.189364
C12_13 C 0.5434(2) 0.5351(2) 0.22222(17)
C13_13 C 0.5634(2) 0.5666(2) 0.2579(2)
H5_13 H 0.605455 0.569801 0.263645
C14_13 C 0.5222(2) 0.5933(2) 0.28510(18)
H6_13 H 0.536553 0.614921 0.308641
C15_15 C 0.4134(2) 0.61541(18) 0.30914(17)
C16_13 C 0.5889(2) 0.5049(2) 0.1927(2)
N2_15 N 0.37492(17) 0.5520(2) 0.2285(2)
O8_15 O 0.35842(18) 0.6076(2) 0.30326(19)
O9_15 O 0.56507(13) 0.47260(12) 0.16409(11)
O10_13 O 0.64447(19) 0.5109(3) 0.1981(2)
O11_15 O 0.34833(19) 0.5141(2) 0.2379(3)
O12_15 O 0.3515(2) 0.5873(3) 0.2055(2)
C1_15 C 0.79141(18) 0.58824(17) 0.97241(15)
C5_13 C 0.6866(2) 0.5666(2) 0.9921(2)
H2_13 H 0.644545 0.569801 0.986355
C6_13 C 0.7278(2) 0.5933(2) 0.96490(18)
H3_13 H 0.713447 0.614921 0.941359
C7_15 C 0.8366(2) 0.61541(18) 0.94086(17)
O2_15 O 0.89158(18) 0.6076(2) 0.94674(19)
C1_16 C 0.79141(18) 0.08824(17) 0.47241(15)
C2_12 C 0.81017(19) 0.05736(19) 0.50875(17)
C3_12 C 0.7703(2) 0.0307(2) 0.53648(18)
H1_12 H 0.784810 0.009936 0.560636
C4_14 C 0.7066(2) 0.0351(2) 0.52778(17)
C5_14 C 0.6866(2) 0.0666(2) 0.4921(2)
H2_14 H 0.644545 0.069801 0.486355
C6_14 C 0.7278(2) 0.0933(2) 0.46490(18)
H3_14 H 0.713447 0.114921 0.441359
C7_16 C 0.8366(2) 0.11541(18) 0.44086(17)
C8_14 C 0.6611(2) 0.0049(2) 0.5573(2)
N1_12 N 0.87508(17) 0.0520(2) 0.5215(2)
O2_16 O 0.89158(18) 0.1076(2) 0.44674(19)
O4_14 O 0.60553(19) 0.0109(3) 0.5519(2)
O5_12 O 0.90167(19) 0.0141(2) 0.5121(3)
O6_12 O 0.8985(2) 0.0873(3) 0.5445(2)
C9_16 C 0.45859(18) 0.08824(17) 0.77759(15)
C10_16 C 0.43983(19) 0.05736(19) 0.74125(17)
C11_16 C 0.4797(2) 0.0307(2) 0.71352(18)
H4_16 H 0.465190 0.009936 0.689364
C12_14 C 0.5434(2) 0.0351(2) 0.72222(17)
C13_14 C 0.5634(2) 0.0666(2) 0.7579(2)
H5_14 H 0.605455 0.069801 0.763645
C14_14 C 0.5222(2) 0.0933(2) 0.78510(18)
H6_14 H 0.536553 0.114921 0.808641
C15_16 C 0.4134(2) 0.11541(18) 0.80914(17)
C16_14 C 0.5889(2) 0.0049(2) 0.6927(2)
N2_16 N 0.37492(17) 0.0520(2) 0.7285(2)
O8_16 O 0.35842(18) 0.1076(2) 0.80326(19)
O10_14 O 0.64447(19) 0.0109(3) 0.6981(2)
O11_16 O 0.34833(19) 0.0141(2) 0.7379(3)
O12_16 O 0.3515(2) 0.0873(3) 0.7055(2)
O3_16 O 0.68493(13) 0.97260(12) 0.58591(11)
O9_16 O 0.56507(13) 0.97260(12) 0.66409(11)
C2_13 C 0.68983(19) 0.94264(19) 0.99125(17)
C3_13 C 0.7297(2) 0.9693(2) 0.96352(18)
H1_13 H 0.715190 0.990064 0.939364
C4_15 C 0.7934(2) 0.9649(2) 0.97222(17)
C8_15 C 0.8389(2) 0.9951(2) 0.9427(2)
N1_13 N 0.62492(17) 0.9480(2) 0.9785(2)
O4_15 O 0.89447(19) 0.9891(3) 0.9481(2)
O5_13 O 0.59833(19) 0.9859(2) 0.9879(3)
O6_13 O 0.6015(2) 0.9127(3) 0.9555(2)
C12_15 C 0.9566(2) 0.9649(2) 0.77778(17)
C13_15 C 0.9366(2) 0.9334(2) 0.7421(2)
H5_15 H 0.894545 0.930199 0.736355
C14_15 C 0.9778(2) 0.9067(2) 0.71490(18)
H6_15 H 0.963447 0.885079 0.691359
C16_15 C 0.9111(2) 0.9951(2) 0.8073(2)
O10_15 O 0.85553(19) 0.9891(3) 0.8019(2)
C2_14 C 0.06017(19) 0.80736(19) 0.99125(17)
C3_14 C 0.0203(2) 0.7807(2) 0.96352(18)
H1_14 H 0.034810 0.759936 0.939364
N1_14 N 0.12508(17) 0.8020(2) 0.9785(2)
O5_14 O 0.15167(19) 0.7641(2) 0.9879(3)
O6_14 O 0.1485(2) 0.8373(3) 0.9555(2)
C5_15 C 0.9366(2) 0.8166(2) 0.0079(2)
H2_15 H 0.894545 0.819801 0.013645
C6_15 C 0.9778(2) 0.8433(2) 0.03510(18)
H3_15 H 0.963447 0.864921 0.058641
C2_15 C 0.31017(19) 0.05736(19) 0.00875(17)
C3_15 C 0.2703(2) 0.0307(2) 0.03648(18)
H1_15 H 0.284810 0.009936 0.060636
C4_16 C 0.2066(2) 0.0351(2) 0.02778(17)
C8_16 C 0.1611(2) 0.0049(2) 0.0573(2)
N1_15 N 0.37508(17) 0.0520(2) 0.0215(2)
O4_16 O 0.10553(19) 0.0109(3) 0.0519(2)
O5_15 O 0.40167(19) 0.0141(2) 0.0121(3)
O6_15 O 0.3985(2) 0.0873(3) 0.0445(2)
C12_16 C 0.0434(2) 0.0351(2) 0.22222(17)
C13_16 C 0.0634(2) 0.0666(2) 0.2579(2)
H5_16 H 0.105455 0.069801 0.263645
C14_16 C 0.0222(2) 0.0933(2) 0.28510(18)
H6_16 H 0.036553 0.114921 0.308641
C16_16 C 0.0889(2) 0.0049(2) 0.1927(2)
O10_16 O 0.14447(19) 0.0109(3) 0.1981(2)
C5_16 C 0.0634(2) 0.1834(2) 0.9921(2)
H2_16 H 0.105455 0.180199 0.986355
C6_16 C 0.0222(2) 0.1567(2) 0.96490(18)
H3_16 H 0.036553 0.135079 0.941359
C2_16 C 0.93983(19) 0.19264(19) 0.00875(17)
C3_16 C 0.9797(2) 0.2193(2) 0.03648(18)
H1_16 H 0.965190 0.240064 0.060636
N1_16 N 0.87492(17) 0.1980(2) 0.0215(2)
O5_16 O 0.84833(19) 0.2359(2) 0.0121(3)
O6_16 O 0.8515(2) 0.1627(3) 0.0445(2)
loop_
_geom_bond_atom_site_label_1
_geom_bond_atom_site_label_2
_geom_bond_site_symmetry_1
_geom_bond_site_symmetry_2
C9 C10 1_555 1_555
C10 C11 1_555 1_555
C11 H4 1_555 1_555
C15 C9 1_555 1_555
N2 C10 1_555 1_555
O7 C15 1_555 1_555
O8 C15 1_555 1_555
O11 N2 1_555 1_555
O12 N2 1_555 1_555
Zn2 O7 1_555 1_555
C1 C2 1_555 1_555
C2 C3 1_555 1_555
C3 H1 1_555 1_555
C4 C3 1_555 1_555
C5 C4 1_555 1_555
H2 C5 1_555 1_555
C6 C1 1_555 1_555
H3 C6 1_555 1_555
C7 C1 1_555 1_555
C8 C4 1_555 1_555
N1 C2 1_555 1_555
O1 C7 1_555 1_555
O2 C7 1_555 1_555
O3 C8 1_555 1_555
O4 C8 1_555 1_555
O5 N1 1_555 1_555
O6 N1 1_555 1_555
Zn1 O3 1_555 1_555
C13 C12 1_555 1_555
H5 C13 1_555 1_555
H6 C14 1_555 1_555
C16 C12 1_555 1_555
O9 Zn1 1_555 1_555
O10 C16 1_555 1_555
O13 Zn1 1_555 1_555
O14 Zn1 1_555 1_555
Zn3 O1 1_555 1_555
C5 C6 1_555 1_555
C13 C14 1_555 1_555
C16 O9 1_555 1_555
C9_2 C10_2 1_555 1_555
C10_2 C11_2 1_555 1_555
C11_2 H4_2 1_555 1_555
C15_2 C9_2 1_555 1_555
N2_2 C10_2 1_555 1_555
O7_2 C15_2 1_555 1_555
O8_2 C15_2 1_555 1_555
O11_2 N2_2 1_555 1_555
O12_2 N2_2 1_555 1_555
Zn2_2 O7_2 1_555 1_555
Zn1_2 O3_2 1_555 1_555
O9_2 Zn1_2 1_555 1_555
O13_2 Zn1_2 1_555 1_555
O14_2 Zn1_2 1_555 1_555
H2_2 C5_2 1_555 1_555
C6_2 C1_2 1_555 1_555
H3_2 C6_2 1_555 1_555
C7_2 C1_2 1_555 1_555
O1_2 C7_2 1_555 1_555
O2_2 C7_2 1_555 1_555
Zn3_2 O1_2 1_555 1_555
C5_2 C6_2 1_555 1_555
H2_3 C5_3 1_555 1_555
C6_3 C1_3 1_555 1_555
H3_3 C6_3 1_555 1_555
C7_3 C1_3 1_555 1_555
O1_3 C7_3 1_555 1_555
O2_3 C7_3 1_555 1_555
Zn2 O1_3 1_555 1_555
C5_3 C6_3 1_555 1_555
C2_2 C3_2 1_555 1_555
C3_2 H1_2 1_555 1_555
C4_2 C3_2 1_555 1_555
C8_2 C4_2 1_555 1_555
N1_2 C2_2 1_555 1_555
O3_3 C8_2 1_555 1_555
O4_2 C8_2 1_555 1_555
O5_2 N1_2 1_555 1_555
O6_2 N1_2 1_555 1_555
Zn1_3 O3_3 1_555 1_555
C9_3 C10_3 1_555 1_555
C10_3 C11_3 1_555 1_555
C11_3 H4_3 1_555 1_555
C12_2 C11_3 1_555 1_555
C13_2 C12_2 1_555 1_555
H5_2 C13_2 1_555 1_555
C14_2 C9_3 1_555 1_555
H6_2 C14_2 1_555 1_555
C15_3 C9_3 1_555 1_555
C16_2 C12_2 1_555 1_555
N2_3 C10_3 1_555 1_555
O7_3 C15_3 1_555 1_555
O8_3 C15_3 1_555 1_555
O9_3 Zn1_3 1_555 1_555
O10_2 C16_2 1_555 1_555
O11_3 N2_3 1_555 1_555
O12_3 N2_3 1_555 1_555
O13_3 Zn1_3 1_555 1_555
O14_3 Zn1_3 1_555 1_555
Zn3 O7_3 1_555 1_555
C13_2 C14_2 1_555 1_555
C16_2 O9_3 1_555 1_555
Zn1_4 O3_4 1_555 1_555
O9_4 Zn1_4 1_555 1_555
O13_4 Zn1_4 1_555 1_555
O14_4 Zn1_4 1_555 1_555
C1_4 C2_3 1_555 1_555
C2_3 C3_3 1_555 1_555
C3_3 H1_3 1_555 1_555
C4_3 C3_3 1_555 1_555
C5_4 C4_3 1_555 1_555
H2_4 C5_4 1_555 1_555
C6_4 C1_4 1_555 1_555
H3_4 C6_4 1_555 1_555
C7_4 C1_4 1_555 1_555
C8_3 C4_3 1_555 1_555
N1_3 C2_3 1_555 1_555
O1_4 C7_4 1_555 1_555
O2_4 C7_4 1_555 1_555
O4_3 C8_3 1_555 1_555
O5_3 N1_3 1_555 1_555
O6_3 N1_3 1_555 1_555
C9_4 C10_4 1_555 1_555
C10_4 C11_4 1_555 1_555
C11_4 H4_4 1_555 1_555
C12_3 C11_4 1_555 1_555
C13_3 C12_3 1_555 1_555
H5_3 C13_3 1_555 1_555
C14_3 C9_4 1_555 1_555
H6_3 C14_3 1_555 1_555
C15_4 C9_4 1_555 1_555
C16_3 C12_3 1_555 1_555
N2_4 C10_4 1_555 1_555
O7_4 C15_4 1_555 1_555
O8_4 C15_4 1_555 1_555
O10_3 C16_3 1_555 1_555
O11_4 N2_4 1_555 1_555
O12_4 N2_4 1_555 1_555
Zn3_2 O7_4 1_555 1_555
Zn2_2 O1_4 1_555 1_555
C5_4 C6_4 1_555 1_555
C13_3 C14_3 1_555 1_555
C5_5 C4_4 1_555 1_555
H2_5 C5_5 1_555 1_555
H3_5 C6_5 1_555 1_555
C8_4 C4_4 1_555 1_555
O3_5 C8_4 1_555 1_555
O4_4 C8_4 1_555 1_555
Zn2_2 O3_5 1_555 1_555
C9_5 C10_5 1_555 1_555
C10_5 C11_5 1_555 1_555
C11_5 H4_5 1_555 1_555
C12_4 C11_5 1_555 1_555
C13_4 C12_4 1_555 1_555
H5_4 C13_4 1_555 1_555
C14_4 C9_5 1_555 1_555
H6_4 C14_4 1_555 1_555
C15_5 C9_5 1_555 1_555
C16_4 C12_4 1_555 1_555
N2_5 C10_5 1_555 1_555
O14_3 C15_5 1_555 1_555
O8_5 C15_5 1_555 1_555
O9_5 Zn2_2 1_555 1_555
O10_4 C16_4 1_555 1_555
O11_5 N2_5 1_555 1_555
O12_5 N2_5 1_555 1_555
C5_5 C6_5 1_555 1_555
C13_4 C14_4 1_555 1_555
C16_4 O9_5 1_555 1_555
C1_5 C2_4 1_555 1_555
C2_4 C3_4 1_555 1_555
C3_4 H1_4 1_555 1_555
C7_5 C1_5 1_555 1_555
N1_4 C2_4 1_555 1_555
O13 C7_5 1_555 1_555
O2_5 C7_5 1_555 1_555
O5_4 N1_4 1_555 1_555
O6_4 N1_4 1_555 1_555
C8_5 C4_5 1_555 1_555
O3_6 C8_5 1_555 1_555
O4_5 C8_5 1_555 1_555
Zn2 O3_6 1_555 1_555
C9_6 C10_6 1_555 1_555
C10_6 C11_6 1_555 1_555
C11_6 H4_6 1_555 1_555
C12_5 C11_6 1_555 1_555
C13_5 C12_5 1_555 1_555
H5_5 C13_5 1_555 1_555
C14_5 C9_6 1_555 1_555
H6_5 C14_5 1_555 1_555
C15_6 C9_6 1_555 1_555
C16_5 C12_5 1_555 1_555
N2_6 C10_6 1_555 1_555
O14_4 C15_6 1_555 1_555
O8_6 C15_6 1_555 1_555
O9_6 Zn2 1_555 1_555
O10_5 C16_5 1_555 1_555
O11_6 N2_6 1_555 1_555
O12_6 N2_6 1_555 1_555
C13_5 C14_5 1_555 1_555
C16_5 O9_6 1_555 1_555
C7_6 C1_6 1_555 1_555
O13_2 C7_6 1_555 1_555
O2_6 C7_6 1_555 1_555
C2_5 C3_5 1_555 1_555
C3_5 H1_5 1_555 1_555
C4_6 C3_5 1_555 1_555
C8_6 C4_6 1_555 1_555
N1_5 C2_5 1_555 1_555
O3_7 C8_6 1_555 1_555
O4_6 C8_6 1_555 1_555
O5_5 N1_5 1_555 1_555
O6_5 N1_5 1_555 1_555
Zn3_2 O3_7 1_555 1_555
C9_7 C10_7 1_555 1_555
C10_7 C11_7 1_555 1_555
C11_7 H4_7 1_555 1_555
C12_6 C11_7 1_555 1_555
C13_6 C12_6 1_555 1_555
H5_6 C13_6 1_555 1_555
C14_6 C9_7 1_555 1_555
H6_6 C14_6 1_555 1_555
C15_7 C9_7 1_555 1_555
C16_6 C12_6 1_555 1_555
N2_7 C10_7 1_555 1_555
O14 C15_7 1_555 1_555
O8_7 C15_7 1_555 1_555
O9_7 Zn3_2 1_555 1_555
O10_6 C16_6 1_555 1_555
O11_7 N2_7 1_555 1_555
O12_7 N2_7 1_555 1_555
C13_6 C14_6 1_555 1_555
C16_6 O9_7 1_555 1_555
H2_6 C5_6 1_555 1_555
C6_6 C1_7 1_555 1_555
H3_6 C6_6 1_555 1_555
C7_7 C1_7 1_555 1_555
O13_3 C7_7 1_555 1_555
O2_7 C7_7 1_555 1_555
C5_6 C6_6 1_555 1_555
C1_8 C2_6 1_555 1_555
C2_6 C3_6 1_555 1_555
C3_6 H1_6 1_555 1_555
C4_7 C3_6 1_555 1_555
C5_7 C4_7 1_555 1_555
H2_7 C5_7 1_555 1_555
C6_7 C1_8 1_555 1_555
H3_7 C6_7 1_555 1_555
C7_8 C1_8 1_555 1_555
C8_7 C4_7 1_555 1_555
N1_6 C2_6 1_555 1_555
O13_4 C7_8 1_555 1_555
O2_8 C7_8 1_555 1_555
O3_8 C8_7 1_555 1_555
O4_7 C8_7 1_555 1_555
O5_6 N1_6 1_555 1_555
O6_6 N1_6 1_555 1_555
Zn3 O3_8 1_555 1_555
C9_8 C10_8 1_555 1_555
C10_8 C11_8 1_555 1_555
C11_8 H4_8 1_555 1_555
C12_7 C11_8 1_555 1_555
C13_7 C12_7 1_555 1_555
H5_7 C13_7 1_555 1_555
C14_7 C9_8 1_555 1_555
H6_7 C14_7 1_555 1_555
C15_8 C9_8 1_555 1_555
C16_7 C12_7 1_555 1_555
N2_8 C10_8 1_555 1_555
O14_2 C15_8 1_555 1_555
O8_8 C15_8 1_555 1_555
O9_8 Zn3 1_555 1_555
O10_7 C16_7 1_555 1_555
O11_8 N2_8 1_555 1_555
O12_8 N2_8 1_555 1_555
C5_7 C6_7 1_555 1_555
C13_7 C14_7 1_555 1_555
C16_7 O9_8 1_555 1_555
C1_9 C2_7 1_555 1_555
C2_7 C3_7 1_555 1_555
C3_7 H1_7 1_555 1_555
C7_9 C1_9 1_555 1_555
N1_7 C2_7 1_555 1_555
O1_5 C7_9 1_555 1_555
O2_9 C7_9 1_555 1_555
O5_7 N1_7 1_555 1_555
O6_7 N1_7 1_555 1_555
Zn3_3 O1_5 1_555 1_555
C5_8 C4_8 1_555 1_555
H2_8 C5_8 1_555 1_555
H3_8 C6_8 1_555 1_555
C8_8 C4_8 1_555 1_555
O3_9 C8_8 1_555 1_555
O4_8 C8_8 1_555 1_555
Zn1_5 O3_9 1_555 1_555
C9_9 C10_9 1_555 1_555
C10_9 C11_9 1_555 1_555
C11_9 H4_9 1_555 1_555
C12_8 C11_9 1_555 1_555
C13_8 C12_8 1_555 1_555
H5_8 C13_8 1_555 1_555
C14_8 C9_9 1_555 1_555
H6_8 C14_8 1_555 1_555
C15_9 C9_9 1_555 1_555
C16_8 C12_8 1_555 1_555
N2_9 C10_9 1_555 1_555
O7_5 C15_9 1_555 1_555
O8_9 C15_9 1_555 1_555
O9_9 Zn1_5 1_555 1_555
O10_8 C16_8 1_555 1_555
O11_9 N2_9 1_555 1_555
O12_9 N2_9 1_555 1_555
O13_5 Zn1_5 1_555 1_555
O14_5 Zn1_5 1_555 1_555
Zn2_3 O7_5 1_555 1_555
C5_8 C6_8 1_555 1_555
C13_8 C14_8 1_555 1_555
C16_8 O9_9 1_555 1_555
C7_10 C1_10 1_555 1_555
O1_6 C7_10 1_555 1_555
O2_10 C7_10 1_555 1_555
Zn3_4 O1_6 1_555 1_555
C8_9 C4_9 1_555 1_555
O3_10 C8_9 1_555 1_555
O4_9 C8_9 1_555 1_555
Zn1_6 O3_10 1_555 1_555
C9_10 C10_10 1_555 1_555
C10_10 C11_10 1_555 1_555
C11_10 H4_10 1_555 1_555
C12_9 C11_10 1_555 1_555
C13_9 C12_9 1_555 1_555
H5_9 C13_9 1_555 1_555
C14_9 C9_10 1_555 1_555
H6_9 C14_9 1_555 1_555
C15_10 C9_10 1_555 1_555
C16_9 C12_9 1_555 1_555
N2_10 C10_10 1_555 1_555
O7_6 C15_10 1_555 1_555
O8_10 C15_10 1_555 1_555
O9_10 Zn1_6 1_555 1_555
O10_9 C16_9 1_555 1_555
O11_10 N2_10 1_555 1_555
O12_10 N2_10 1_555 1_555
O13_6 Zn1_6 1_555 1_555
O14_6 Zn1_6 1_555 1_555
Zn2_4 O7_6 1_555 1_555
C13_9 C14_9 1_555 1_555
C16_9 O9_10 1_555 1_555
H2_9 C5_9 1_555 1_555
C6_9 C1_11 1_555 1_555
H3_9 C6_9 1_555 1_555
C7_11 C1_11 1_555 1_555
O1_7 C7_11 1_555 1_555
O2_11 C7_11 1_555 1_555
Zn2_3 O1_7 1_555 1_555
C5_9 C6_9 1_555 1_555
C2_8 C3_8 1_555 1_555
C3_8 H1_8 1_555 1_555
C4_10 C3_8 1_555 1_555
C8_10 C4_10 1_555 1_555
N1_8 C2_8 1_555 1_555
O3_11 C8_10 1_555 1_555
O4_10 C8_10 1_555 1_555
O5_8 N1_8 1_555 1_555
O6_8 N1_8 1_555 1_555
Zn1_7 O3_11 1_555 1_555
C9_11 C10_11 1_555 1_555
C10_11 C11_11 1_555 1_555
C11_11 H4_11 1_555 1_555
C12_10 C11_11 1_555 1_555
C13_10 C12_10 1_555 1_555
H5_10 C13_10 1_555 1_555
C14_10 C9_11 1_555 1_555
H6_10 C14_10 1_555 1_555
C15_11 C9_11 1_555 1_555
C16_10 C12_10 1_555 1_555
N2_11 C10_11 1_555 1_555
O7_7 C15_11 1_555 1_555
O8_11 C15_11 1_555 1_555
O9_11 Zn1_7 1_555 1_555
O10_10 C16_10 1_555 1_555
O11_11 N2_11 1_555 1_555
O12_11 N2_11 1_555 1_555
O13_7 Zn1_7 1_555 1_555
O14_7 Zn1_7 1_555 1_555
Zn3_3 O7_7 1_555 1_555
C13_10 C14_10 1_555 1_555
C16_10 O9_11 1_555 1_555
C1_12 C2_9 1_555 1_555
C2_9 C3_9 1_555 1_555
C3_9 H1_9 1_555 1_555
C4_11 C3_9 1_555 1_555
C5_10 C4_11 1_555 1_555
H2_10 C5_10 1_555 1_555
C6_10 C1_12 1_555 1_555
H3_10 C6_10 1_555 1_555
C7_12 C1_12 1_555 1_555
C8_11 C4_11 1_555 1_555
N1_9 C2_9 1_555 1_555
O1_8 C7_12 1_555 1_555
O2_12 C7_12 1_555 1_555
O3_12 C8_11 1_555 1_555
O4_11 C8_11 1_555 1_555
O5_9 N1_9 1_555 1_555
O6_9 N1_9 1_555 1_555
Zn1_8 O3_12 1_555 1_555
C9_12 C10_12 1_555 1_555
C10_12 C11_12 1_555 1_555
C11_12 H4_12 1_555 1_555
C12_11 C11_12 1_555 1_555
C13_11 C12_11 1_555 1_555
H5_11 C13_11 1_555 1_555
C14_11 C9_12 1_555 1_555
H6_11 C14_11 1_555 1_555
C15_12 C9_12 1_555 1_555
C16_11 C12_11 1_555 1_555
N2_12 C10_12 1_555 1_555
O7_8 C15_12 1_555 1_555
O8_12 C15_12 1_555 1_555
O9_12 Zn1_8 1_555 1_555
O10_11 C16_11 1_555 1_555
O11_12 N2_12 1_555 1_555
O12_12 N2_12 1_555 1_555
O13_8 Zn1_8 1_555 1_555
O14_8 Zn1_8 1_555 1_555
Zn3_4 O7_8 1_555 1_555
Zn2_4 O1_8 1_555 1_555
C5_10 C6_10 1_555 1_555
C13_11 C14_11 1_555 1_555
C16_11 O9_12 1_555 1_555
C1_13 C2_10 1_555 1_555
C2_10 C3_10 1_555 1_555
C3_10 H1_10 1_555 1_555
C4_12 C3_10 1_555 1_555
C5_11 C4_12 1_555 1_555
H2_11 C5_11 1_555 1_555
C6_11 C1_13 1_555 1_555
H3_11 C6_11 1_555 1_555
C7_13 C1_13 1_555 1_555
C8_12 C4_12 1_555 1_555
N1_10 C2_10 1_555 1_555
O13_8 C7_13 1_555 1_555
O2_13 C7_13 1_555 1_555
O3_13 C8_12 1_555 1_555
O4_12 C8_12 1_555 1_555
O5_10 N1_10 1_555 1_555
O6_10 N1_10 1_555 1_555
Zn3_3 O3_13 1_555 1_555
C13_12 C12_12 1_555 1_555
H5_12 C13_12 1_555 1_555
H6_12 C14_12 1_555 1_555
C16_12 C12_12 1_555 1_555
O9_13 Zn3_3 1_555 1_555
O10_12 C16_12 1_555 1_555
C5_11 C6_11 1_555 1_555
C13_12 C14_12 1_555 1_555
C16_12 O9_13 1_555 1_555
C9_13 C10_13 1_555 1_555
C10_13 C11_13 1_555 1_555
C11_13 H4_13 1_555 1_555
C15_13 C9_13 1_555 1_555
N2_13 C10_13 1_555 1_555
O14_6 C15_13 1_555 1_555
O8_13 C15_13 1_555 1_555
O11_13 N2_13 1_555 1_555
O12_13 N2_13 1_555 1_555
H2_12 C5_12 1_555 1_555
C6_12 C1_14 1_555 1_555
H3_12 C6_12 1_555 1_555
C7_14 C1_14 1_555 1_555
O13_7 C7_14 1_555 1_555
O2_14 C7_14 1_555 1_555
C5_12 C6_12 1_555 1_555
Zn3_4 O3_14 1_555 1_555
O9_14 Zn3_4 1_555 1_555
C9_14 C10_14 1_555 1_555
C10_14 C11_14 1_555 1_555
C11_14 H4_14 1_555 1_555
C15_14 C9_14 1_555 1_555
N2_14 C10_14 1_555 1_555
O14_5 C15_14 1_555 1_555
O8_14 C15_14 1_555 1_555
O11_14 N2_14 1_555 1_555
O12_14 N2_14 1_555 1_555
C2_11 C3_11 1_555 1_555
C3_11 H1_11 1_555 1_555
C4_13 C3_11 1_555 1_555
C8_13 C4_13 1_555 1_555
N1_11 C2_11 1_555 1_555
O3_15 C8_13 1_555 1_555
O4_13 C8_13 1_555 1_555
O5_11 N1_11 1_555 1_555
O6_11 N1_11 1_555 1_555
Zn2_3 O3_15 1_555 1_555
C9_15 C10_15 1_555 1_555
C10_15 C11_15 1_555 1_555
C11_15 H4_15 1_555 1_555
C12_13 C11_15 1_555 1_555
C13_13 C12_13 1_555 1_555
H5_13 C13_13 1_555 1_555
C14_13 C9_15 1_555 1_555
H6_13 C14_13 1_555 1_555
C15_15 C9_15 1_555 1_555
C16_13 C12_13 1_555 1_555
N2_15 C10_15 1_555 1_555
O14_8 C15_15 1_555 1_555
O8_15 C15_15 1_555 1_555
O9_15 Zn2_3 1_555 1_555
O10_13 C16_13 1_555 1_555
O11_15 N2_15 1_555 1_555
O12_15 N2_15 1_555 1_555
C13_13 C14_13 1_555 1_555
C16_13 O9_15 1_555 1_555
H2_13 C5_13 1_555 1_555
C6_13 C1_15 1_555 1_555
H3_13 C6_13 1_555 1_555
C7_15 C1_15 1_555 1_555
O13_6 C7_15 1_555 1_555
O2_15 C7_15 1_555 1_555
C5_13 C6_13 1_555 1_555
C1_16 C2_12 1_555 1_555
C2_12 C3_12 1_555 1_555
C3_12 H1_12 1_555 1_555
C4_14 C3_12 1_555 1_555
C5_14 C4_14 1_555 1_555
H2_14 C5_14 1_555 1_555
C6_14 C1_16 1_555 1_555
H3_14 C6_14 1_555 1_555
C7_16 C1_16 1_555 1_555
C8_14 C4_14 1_555 1_555
N1_12 C2_12 1_555 1_555
O13_5 C7_16 1_555 1_555
O2_16 C7_16 1_555 1_555
O4_14 C8_14 1_555 1_555
O5_12 N1_12 1_555 1_555
O6_12 N1_12 1_555 1_555
C9_16 C10_16 1_555 1_555
C10_16 C11_16 1_555 1_555
C11_16 H4_16 1_555 1_555
C12_14 C11_16 1_555 1_555
C13_14 C12_14 1_555 1_555
H5_14 C13_14 1_555 1_555
C14_14 C9_16 1_555 1_555
H6_14 C14_14 1_555 1_555
C15_16 C9_16 1_555 1_555
C16_14 C12_14 1_555 1_555
N2_16 C10_16 1_555 1_555
O14_7 C15_16 1_555 1_555
O8_16 C15_16 1_555 1_555
O10_14 C16_14 1_555 1_555
O11_16 N2_16 1_555 1_555
O12_16 N2_16 1_555 1_555
C5_14 C6_14 1_555 1_555
C13_14 C14_14 1_555 1_555
Zn2_4 O3_16 1_555 1_555
O9_16 Zn2_4 1_555 1_555
C2_13 C3_13 1_555 1_555
C3_13 H1_13 1_555 1_555
C4_15 C3_13 1_555 1_555
C8_15 C4_15 1_555 1_555
N1_13 C2_13 1_555 1_555
O4_15 C8_15 1_555 1_555
O5_13 N1_13 1_555 1_555
O6_13 N1_13 1_555 1_555
C13_15 C12_15 1_555 1_555
H5_15 C13_15 1_555 1_555
H6_15 C14_15 1_555 1_555
C16_15 C12_15 1_555 1_555
O10_15 C16_15 1_555 1_555
C13_15 C14_15 1_555 1_555
C2_14 C3_14 1_555 1_555
C3_14 H1_14 1_555 1_555
N1_14 C2_14 1_555 1_555
O5_14 N1_14 1_555 1_555
O6_14 N1_14 1_555 1_555
H2_15 C5_15 1_555 1_555
H3_15 C6_15 1_555 1_555
C5_15 C6_15 1_555 1_555
C2_15 C3_15 1_555 1_555
C3_15 H1_15 1_555 1_555
C4_16 C3_15 1_555 1_555
C8_16 C4_16 1_555 1_555
N1_15 C2_15 1_555 1_555
O4_16 C8_16 1_555 1_555
O5_15 N1_15 1_555 1_555
O6_15 N1_15 1_555 1_555
C13_16 C12_16 1_555 1_555
H5_16 C13_16 1_555 1_555
H6_16 C14_16 1_555 1_555
C16_16 C12_16 1_555 1_555
O10_16 C16_16 1_555 1_555
C13_16 C14_16 1_555 1_555
H2_16 C5_16 1_555 1_555
H3_16 C6_16 1_555 1_555
C5_16 C6_16 1_555 1_555
C2_16 C3_16 1_555 1_555
C3_16 H1_16 1_555 1_555
N1_16 C2_16 1_555 1_555
O5_16 N1_16 1_555 1_555
O6_16 N1_16 1_555 1_555

#END
