
###############################################################################
#
# This file contains modified crystal structure data generated from the
# MOF subset of the Cambridge Structural Database (CSD) v543 
# hosted by the Cambridge Crystallographic Data Centre (CCDC).
#
# This work is licensed under the Creative Commons
# Attribution-NonCommercial-ShareAlike 4.0 International License.
# To view a copy of this license, visit
# http://creativecommons.org/licenses/by-nc-sa/4.0/
# or send a letter to
# Creative Commons, PO Box 1866, Mountain View, CA 94042, USA.
#
# CIF created using the CSD Python API on 29 September 2022
# The structure has been converted into the P1 space group
# The structure has a 3D framework
# The original CSD entry OBUDIC is in the monoclinic crystal system
# The framework has been calculated to contain at least 10.0% void space
# The void calculation uses a probe of radius 1.32A, grid spacing 0.4
# The framework is charged, counterions have been retained in the structure
#
###############################################################################

data_OBUDIC
_chemical_formula_moiety         '(C224 H200 Co12 N32 O80 S8)n'
_symmetry_cell_setting           triclinic
_symmetry_space_group_name_H-M   'P 1'
_symmetry_Int_Tables_number      1
_space_group_name_Hall           'P 1'
loop_
_symmetry_equiv_pos_site_id
_symmetry_equiv_pos_as_xyz
1 x,y,z
_cell_length_a                   11.3242(6)
_cell_length_b                   19.6644(11)
_cell_length_c                   31.621(2)
_cell_angle_alpha                90
_cell_angle_beta                 91.091(2)
_cell_angle_gamma                90
_cell_volume                     7040.2
loop_
_atom_site_label
_atom_site_type_symbol
_atom_site_fract_x
_atom_site_fract_y
_atom_site_fract_z
Co7 Co 0.15983(7) 0.56025(3) 0.62858(3)
N12 N 0.1803(5) 0.7788(3) 0.01671(19)
Co1 Co 0.17454(6) 0.77853(4) 0.94811(2)
Co2 Co 0.17004(6) 0.77757(4) 0.30957(2)
S1 S 0.33831(16) 0.87533(8) 0.52154(5)
S2 S 0.32269(16) 0.87693(8) 0.73472(5)
O1 O 0.1683(4) 0.7792(2) 0.88165(14)
O2 O 0.4514(5) 0.8725(3) 0.50020(19)
O3 O 0.0068(4) 0.7253(2) 0.30864(14)
H1 H 0.003575 0.698018 0.330431
H2 H 0.003124 0.698150 0.286720
O4 O 0.1629(4) 0.4790(2) 0.67290(15)
H3 H 0.135470 0.492956 0.697060
H4 H 0.113142 0.447419 0.664672
O5 O 0.1334(5) 0.5720(2) 0.73484(15)
O6 O 0.4422(5) 0.8710(3) 0.75100(19)
O7 O 0.1693(4) 0.7786(2) 0.37426(15)
O8 O 0.3180(6) 0.8722(3) 0.68980(19)
O9 O 0.0121(4) 0.7260(2) 0.94663(14)
H5 H 0.002456 0.706195 0.922129
H6 H 0.015009 0.692573 0.964691
O10 O 0.1661(4) 0.6357(2) 0.58033(14)
O11 O 0.0282(4) 0.7055(3) 0.39142(15)
O12 O 0.3388(4) 0.8282(2) 0.94515(15)
H7 H 0.346404 0.869688 0.954425
H8 H 0.404667 0.820047 0.932360
O13 O 0.3533(6) 0.8662(3) 0.56686(17)
O14 O 0.1548(4) 0.4813(2) 0.58230(15)
H9 H 0.133716 0.498288 0.557849
H10 H 0.098803 0.452705 0.588221
O15 O 0.2623(7) 0.9360(3) 0.7511(2)
O16 O 0.1690(4) 0.6333(2) 0.67660(14)
O17 O 0.2717(6) 0.9349(3) 0.5091(2)
O18 O 0.3365(4) 0.8266(2) 0.31115(14)
H11 H 0.361065 0.832089 0.337531
H12 H 0.329218 0.868394 0.301487
O19 O 0.0295(4) 0.7041(3) 0.86432(15)
O20 O 0.1348(5) 0.5742(2) 0.52190(15)
N1 N 0.2654(4) 0.68271(16) 0.94738(13)
C1 C 0.2427(4) 0.6336(2) 0.97776(13)
H13 H 0.184675 0.641598 0.998474
C2 C 0.3050(5) 0.57266(19) 0.97784(14)
H14 H 0.289576 0.539074 0.998607
C3 C 0.3900(4) 0.56091(16) 0.94754(14)
C4 C 0.4126(4) 0.61005(19) 0.91715(13)
H15 H 0.470671 0.602017 0.896440
C5 C 0.3503(4) 0.67095(17) 0.91707(12)
H16 H 0.365771 0.704542 0.896306
N2 N 0.2585(3) 0.68159(15) 0.31082(12)
C6 C 0.3491(4) 0.67014(17) 0.34027(12)
H17 H 0.368469 0.703967 0.360687
C7 C 0.4112(3) 0.60919(19) 0.33983(13)
H18 H 0.473062 0.601360 0.359952
C8 C 0.3828(4) 0.55968(16) 0.30995(15)
C9 C 0.2923(4) 0.57113(17) 0.28050(13)
H19 H 0.272866 0.537302 0.260081
C10 C 0.2301(3) 0.63208(19) 0.28094(12)
H20 H 0.168272 0.639909 0.260815
N3 N 0.3483(2) 0.5562(2) 0.62893(13)
C11 C 0.4099(3) 0.5481(3) 0.66705(10)
H21 H 0.368326 0.546221 0.692831
C12 C 0.5323(3) 0.5429(3) 0.66744(11)
H22 H 0.574425 0.537432 0.693493
C13 C 0.5932(2) 0.5457(3) 0.62972(14)
C14 C 0.5316(3) 0.5538(3) 0.59160(11)
H23 H 0.573184 0.555674 0.565814
C15 C 0.4092(3) 0.5590(3) 0.59120(10)
H24 H 0.367085 0.564464 0.565151
C16 C 0.7260(2) 0.5443(3) 0.63003(14)
C17 C 0.7890(3) 0.5629(3) 0.66637(12)
H25 H 0.748537 0.571479 0.691866
C18 C 0.9112(3) 0.5689(3) 0.66540(11)
H26 H 0.954285 0.581613 0.690233
N4 N 0.9704(2) 0.5564(2) 0.62809(13)
C19 C 0.9074(3) 0.5378(3) 0.59175(11)
H27 H 0.947812 0.529193 0.566251
C20 C 0.7851(3) 0.5318(3) 0.59272(12)
H28 H 0.742062 0.519060 0.567883
C21 C 0.1135(6) 0.7429(3) 0.40022(19)
C22 C 0.4566(3) 0.49486(15) 0.94800(15)
C23 C 0.4009(3) 0.43563(19) 0.96097(16)
H29 H 0.321383 0.437167 0.969998
C24 C 0.4615(3) 0.37417(15) 0.96072(15)
H30 H 0.423401 0.333694 0.969579
N5 N 0.5778(3) 0.37193(14) 0.94750(14)
C25 C 0.6335(3) 0.43115(18) 0.93453(15)
H31 H 0.712961 0.429616 0.925501
C26 C 0.5729(3) 0.49261(15) 0.93478(16)
H32 H 0.610945 0.533090 0.925919
C27 C 0.2170(4) 0.80179(16) 0.46126(11)
H33 H 0.230498 0.839555 0.443257
C28 C 0.2569(4) 0.80333(16) 0.50309(11)
C29 C 0.2371(4) 0.74807(19) 0.52944(9)
H34 H 0.264460 0.749127 0.558024
C30 C 0.1774(4) 0.69128(16) 0.51396(11)
C31 C 0.1374(4) 0.68974(16) 0.47213(11)
H35 H 0.096609 0.650918 0.461556
C32 C 0.1572(4) 0.74499(19) 0.44579(9)
C33 C 0.1366(3) 0.68845(16) 0.78479(11)
H36 H 0.098954 0.649002 0.795462
C34 C 0.1743(3) 0.68983(15) 0.74322(10)
C35 C 0.2293(4) 0.74755(18) 0.72760(9)
H37 H 0.255099 0.748497 0.699190
C36 C 0.2466(4) 0.80388(15) 0.75354(11)
C37 C 0.2089(4) 0.80249(15) 0.79510(10)
H38 H 0.220706 0.840990 0.812835
C38 C 0.1539(4) 0.74478(19) 0.81073(9)
C39 C 0.4497(3) 0.49369(14) 0.30904(15)
C40 C 0.3915(3) 0.43380(19) 0.29814(16)
H39 H 0.309833 0.434741 0.290667
C41 C 0.4527(3) 0.37253(14) 0.29817(15)
H40 H 0.412878 0.331595 0.290716
N6 N 0.5721(3) 0.37115(14) 0.30910(14)
C42 C 0.6304(3) 0.43103(18) 0.32000(15)
H41 H 0.712003 0.430091 0.327476
C43 C 0.5692(3) 0.49231(14) 0.31998(16)
H42 H 0.608960 0.533237 0.327428
C44 C 0.1569(6) 0.6268(3) 0.7160(2)
C45 C 0.1561(5) 0.6286(3) 0.5411(2)
C46 C 0.1833(7) 0.7740(3) 0.1054(2)
C47 C 0.2848(8) 0.7880(5) 0.0830(3)
H43 H 0.357497 0.795827 0.097646
C48 C 0.2799(9) 0.7907(6) 0.0393(3)
H44 H 0.349848 0.801438 0.024564
C49 C 0.0828(6) 0.7656(4) 0.0381(2)
H45 H 0.011078 0.758361 0.022646
C50 C 0.0814(7) 0.7618(5) 0.0820(2)
H46 H 0.010164 0.750902 0.095851
C51 C 0.0713(3) 0.7786(3) 0.21739(12)
N8 N 0.1761(4) 0.7770(2) 0.24096(9)
C52 C 0.2837(3) 0.7735(3) 0.22063(13)
H48 H 0.355358 0.772399 0.236747
C53 C 0.2865(3) 0.7714(3) 0.17672(13)
H49 H 0.359994 0.768977 0.162827
C54 C 0.1817(4) 0.7730(3) 0.15314(9)
C55 C 0.0741(3) 0.7766(3) 0.17347(12)
H50 H 0.002439 0.777621 0.157359
C56 C 0.1152(5) 0.7428(3) 0.85611(18)
Co5 Co 0.67454(6) 0.27853(4) 0.94811(2)
Co6 Co 0.67004(6) 0.27757(4) 0.30957(2)
N10 N 0.0778(3) 0.87193(14) 0.94750(14)
N11 N 0.0721(3) 0.87115(14) 0.30910(14)
H47 H 0.997803 0.781042 0.231281
C12_2 C 0.0323(3) 0.0429(3) 0.66744(11)
H22_2 H 0.074425 0.037432 0.693493
C13_2 C 0.0932(2) 0.0457(3) 0.62972(14)
C14_2 C 0.0316(3) 0.0538(3) 0.59160(11)
H23_2 H 0.073184 0.055674 0.565814
C16_2 C 0.2260(2) 0.0443(3) 0.63003(14)
C17_2 C 0.2890(3) 0.0629(3) 0.66637(12)
H25_2 H 0.248537 0.071479 0.691866
C18_2 C 0.4112(3) 0.0689(3) 0.66540(11)
H26_2 H 0.454285 0.081613 0.690233
N4_2 N 0.4704(2) 0.0564(2) 0.62809(13)
C19_2 C 0.4074(3) 0.0378(3) 0.59175(11)
H27_2 H 0.447812 0.029193 0.566251
C20_2 C 0.2851(3) 0.0318(3) 0.59272(12)
H28_2 H 0.242062 0.019060 0.567883
H32_2 H 0.110945 0.033090 0.925919
H42_2 H 0.108960 0.033237 0.327428
Co7_2 Co 0.65983(7) 0.06025(3) 0.62858(3)
C25_2 C 0.1335(3) 0.93115(18) 0.93453(15)
H31_2 H 0.212961 0.929616 0.925501
C26_2 C 0.0729(3) 0.99261(15) 0.93478(16)
C42_2 C 0.1304(3) 0.93103(18) 0.32000(15)
H41_2 H 0.212003 0.930091 0.327476
C43_2 C 0.0692(3) 0.99231(14) 0.31998(16)
N12_2 N 0.6803(5) 0.2788(3) 0.01671(19)
S1_2 S 0.83831(16) 0.37533(8) 0.52154(5)
S2_2 S 0.82269(16) 0.37693(8) 0.73472(5)
O1_2 O 0.6683(4) 0.2792(2) 0.88165(14)
O2_2 O 0.9514(5) 0.3725(3) 0.50020(19)
O3_2 O 0.5068(4) 0.2253(2) 0.30864(14)
H1_2 H 0.503575 0.198018 0.330431
H2_2 H 0.503124 0.198150 0.286720
O5_2 O 0.6334(5) 0.0720(2) 0.73484(15)
O6_2 O 0.9422(5) 0.3710(3) 0.75100(19)
O7_2 O 0.6693(4) 0.2786(2) 0.37426(15)
O8_2 O 0.8180(6) 0.3722(3) 0.68980(19)
O9_2 O 0.5121(4) 0.2260(2) 0.94663(14)
H5_2 H 0.502456 0.206195 0.922129
H6_2 H 0.515009 0.192573 0.964691
O10_2 O 0.6661(4) 0.1357(2) 0.58033(14)
O11_2 O 0.5282(4) 0.2055(3) 0.39142(15)
O12_2 O 0.8388(4) 0.3282(2) 0.94515(15)
H7_2 H 0.846404 0.369688 0.954425
H8_2 H 0.904667 0.320047 0.932360
O13_2 O 0.8533(6) 0.3662(3) 0.56686(17)
O15_2 O 0.7623(7) 0.4360(3) 0.7511(2)
O16_2 O 0.6690(4) 0.1333(2) 0.67660(14)
O17_2 O 0.7717(6) 0.4349(3) 0.5091(2)
O18_2 O 0.8365(4) 0.3266(2) 0.31115(14)
H11_2 H 0.861065 0.332089 0.337531
H12_2 H 0.829218 0.368394 0.301487
O19_2 O 0.5295(4) 0.2041(3) 0.86432(15)
O20_2 O 0.6348(5) 0.0742(2) 0.52190(15)
N1_2 N 0.7654(4) 0.18271(16) 0.94738(13)
C1_2 C 0.7427(4) 0.1336(2) 0.97776(13)
H13_2 H 0.684675 0.141598 0.998474
C2_2 C 0.8050(5) 0.07266(19) 0.97784(14)
H14_2 H 0.789576 0.039074 0.998607
C3_2 C 0.8900(4) 0.06091(16) 0.94754(14)
C4_2 C 0.9126(4) 0.11005(19) 0.91715(13)
H15_2 H 0.970671 0.102017 0.896440
C5_2 C 0.8503(4) 0.17095(17) 0.91707(12)
H16_2 H 0.865771 0.204542 0.896306
N2_2 N 0.7585(3) 0.18159(15) 0.31082(12)
C6_2 C 0.8491(4) 0.17014(17) 0.34027(12)
H17_2 H 0.868469 0.203967 0.360687
C7_2 C 0.9112(3) 0.10919(19) 0.33983(13)
H18_2 H 0.973062 0.101360 0.359952
C8_2 C 0.8828(4) 0.05968(16) 0.30995(15)
C9_2 C 0.7923(4) 0.07113(17) 0.28050(13)
H19_2 H 0.772866 0.037302 0.260081
C10_2 C 0.7301(3) 0.13208(19) 0.28094(12)
H20_2 H 0.668272 0.139909 0.260815
N3_2 N 0.8483(2) 0.0562(2) 0.62893(13)
C11_2 C 0.9099(3) 0.0481(3) 0.66705(10)
H21_2 H 0.868326 0.046221 0.692831
C15_2 C 0.9092(3) 0.0590(3) 0.59120(10)
H24_2 H 0.867085 0.064464 0.565151
C21_2 C 0.6135(6) 0.2429(3) 0.40022(19)
C27_2 C 0.7170(4) 0.30179(16) 0.46126(11)
H33_2 H 0.730498 0.339555 0.443257
C28_2 C 0.7569(4) 0.30333(16) 0.50309(11)
C29_2 C 0.7371(4) 0.24807(19) 0.52944(9)
H34_2 H 0.764460 0.249127 0.558024
C30_2 C 0.6774(4) 0.19128(16) 0.51396(11)
C31_2 C 0.6374(4) 0.18974(16) 0.47213(11)
H35_2 H 0.596609 0.150918 0.461556
C32_2 C 0.6572(4) 0.24499(19) 0.44579(9)
C33_2 C 0.6366(3) 0.18845(16) 0.78479(11)
H36_2 H 0.598954 0.149002 0.795462
C34_2 C 0.6743(3) 0.18983(15) 0.74322(10)
C35_2 C 0.7293(4) 0.24755(18) 0.72760(9)
H37_2 H 0.755099 0.248497 0.699190
C36_2 C 0.7466(4) 0.30388(15) 0.75354(11)
C37_2 C 0.7089(4) 0.30249(15) 0.79510(10)
H38_2 H 0.720706 0.340990 0.812835
C38_2 C 0.6539(4) 0.24478(19) 0.81073(9)
C44_2 C 0.6569(6) 0.1268(3) 0.7160(2)
C45_2 C 0.6561(5) 0.1286(3) 0.5411(2)
C46_2 C 0.6833(7) 0.2740(3) 0.1054(2)
C47_2 C 0.7848(8) 0.2880(5) 0.0830(3)
H43_2 H 0.857497 0.295827 0.097646
C48_2 C 0.7799(9) 0.2907(6) 0.0393(3)
H44_2 H 0.849848 0.301438 0.024564
C49_2 C 0.5828(6) 0.2656(4) 0.0381(2)
H45_2 H 0.511078 0.258361 0.022646
C50_2 C 0.5814(7) 0.2618(5) 0.0820(2)
H46_2 H 0.510164 0.250902 0.095851
C51_2 C 0.5713(3) 0.2786(3) 0.21739(12)
H47_2 H 0.497803 0.281042 0.231281
N8_2 N 0.6761(4) 0.2770(2) 0.24096(9)
C52_2 C 0.7837(3) 0.2735(3) 0.22063(13)
H48_2 H 0.855358 0.272399 0.236747
C53_2 C 0.7865(3) 0.2714(3) 0.17672(13)
H49_2 H 0.859994 0.268977 0.162827
C54_2 C 0.6817(4) 0.2730(3) 0.15314(9)
C55_2 C 0.5741(3) 0.2766(3) 0.17347(12)
H50_2 H 0.502439 0.277621 0.157359
C56_2 C 0.6152(5) 0.2428(3) 0.85611(18)
Co7_3 Co 0.15983(7) 0.43975(3) 0.12858(3)
Co1_2 Co 0.17454(6) 0.22147(4) 0.44811(2)
S1_3 S 0.33831(16) 0.12467(8) 0.02154(5)
S2_3 S 0.32269(16) 0.12307(8) 0.23472(5)
O1_3 O 0.1683(4) 0.2208(2) 0.38165(14)
O2_3 O 0.4514(5) 0.1275(3) 0.00020(19)
O4_2 O 0.1629(4) 0.5210(2) 0.17290(15)
H3_2 H 0.135470 0.507044 0.197060
H4_2 H 0.113142 0.552581 0.164672
O5_3 O 0.1334(5) 0.4280(2) 0.23484(15)
O6_3 O 0.4422(5) 0.1290(3) 0.25100(19)
O8_3 O 0.3180(6) 0.1278(3) 0.18980(19)
O9_3 O 0.0121(4) 0.2740(2) 0.44663(14)
H5_3 H 0.002456 0.293805 0.422129
H6_3 H 0.015009 0.307427 0.464691
O10_3 O 0.1661(4) 0.3643(2) 0.08033(14)
O12_3 O 0.3388(4) 0.1718(2) 0.44515(15)
H7_3 H 0.346404 0.130312 0.454425
H8_3 H 0.404667 0.179953 0.432360
O13_3 O 0.3533(6) 0.1338(3) 0.06686(17)
O14_2 O 0.1548(4) 0.5187(2) 0.08230(15)
H9_2 H 0.133716 0.501712 0.057849
H10_2 H 0.098803 0.547295 0.088221
O15_3 O 0.2623(7) 0.0640(3) 0.2511(2)
O16_3 O 0.1690(4) 0.3667(2) 0.17660(14)
O17_3 O 0.2717(6) 0.0651(3) 0.0091(2)
O19_3 O 0.0295(4) 0.2959(3) 0.36432(15)
O20_3 O 0.1348(5) 0.4258(2) 0.02190(15)
N1_3 N 0.2654(4) 0.31729(16) 0.44738(13)
C1_3 C 0.2427(4) 0.3664(2) 0.47776(13)
H13_3 H 0.184675 0.358402 0.498474
C2_3 C 0.3050(5) 0.42734(19) 0.47784(14)
H14_3 H 0.289576 0.460926 0.498607
C3_3 C 0.3900(4) 0.43909(16) 0.44754(14)
C4_3 C 0.4126(4) 0.38995(19) 0.41715(13)
H15_3 H 0.470671 0.397983 0.396440
C5_3 C 0.3503(4) 0.32905(17) 0.41707(12)
H16_3 H 0.365771 0.295458 0.396306
N3_3 N 0.3483(2) 0.4438(2) 0.12893(13)
C11_3 C 0.4099(3) 0.4519(3) 0.16705(10)
H21_3 H 0.368326 0.453779 0.192831
C12_3 C 0.5323(3) 0.4571(3) 0.16744(11)
H22_3 H 0.574425 0.462568 0.193493
C13_3 C 0.5932(2) 0.4543(3) 0.12972(14)
C14_3 C 0.5316(3) 0.4462(3) 0.09160(11)
H23_3 H 0.573184 0.444326 0.065814
C15_3 C 0.4092(3) 0.4410(3) 0.09120(10)
H24_3 H 0.367085 0.435536 0.065151
C16_3 C 0.7260(2) 0.4557(3) 0.13003(14)
C17_3 C 0.7890(3) 0.4371(3) 0.16637(12)
H25_3 H 0.748537 0.428521 0.191866
C18_3 C 0.9112(3) 0.4311(3) 0.16540(11)
H26_3 H 0.954285 0.418387 0.190233
N4_3 N 0.9704(2) 0.4436(2) 0.12809(13)
C19_3 C 0.9074(3) 0.4622(3) 0.09175(11)
H27_3 H 0.947812 0.470807 0.066251
C20_3 C 0.7851(3) 0.4682(3) 0.09272(12)
H28_3 H 0.742062 0.480940 0.067883
C22_2 C 0.4566(3) 0.50514(15) 0.44800(15)
C23_2 C 0.4009(3) 0.56437(19) 0.46097(16)
H29_2 H 0.321383 0.562833 0.469998
C24_2 C 0.4615(3) 0.62583(15) 0.46072(15)
H30_2 H 0.423401 0.666306 0.469579
N5_2 N 0.5778(3) 0.62807(14) 0.44750(14)
C25_3 C 0.6335(3) 0.56885(18) 0.43453(15)
H31_3 H 0.712961 0.570384 0.425501
C26_3 C 0.5729(3) 0.50739(15) 0.43478(16)
H32_3 H 0.610945 0.466910 0.425919
C28_3 C 0.2569(4) 0.19667(16) 0.00309(11)
C29_3 C 0.2371(4) 0.25193(19) 0.02944(9)
H34_3 H 0.264460 0.250873 0.058024
C30_3 C 0.1774(4) 0.30872(16) 0.01396(11)
C33_3 C 0.1366(3) 0.31155(16) 0.28479(11)
H36_3 H 0.098954 0.350998 0.295462
C34_3 C 0.1743(3) 0.31017(15) 0.24322(10)
C35_3 C 0.2293(4) 0.25245(18) 0.22760(9)
H37_3 H 0.255099 0.251503 0.199190
C36_3 C 0.2466(4) 0.19612(15) 0.25354(11)
C37_3 C 0.2089(4) 0.19751(15) 0.29510(10)
H38_3 H 0.220706 0.159010 0.312835
C38_3 C 0.1539(4) 0.25522(19) 0.31073(9)
C44_3 C 0.1569(6) 0.3732(3) 0.2160(2)
C45_3 C 0.1561(5) 0.3714(3) 0.0411(2)
C56_3 C 0.1152(5) 0.2572(3) 0.35611(18)
Co5_2 Co 0.67454(6) 0.72147(4) 0.44811(2)
N10_2 N 0.0778(3) 0.12807(14) 0.44750(14)
N12_3 N 0.1803(5) 0.2212(3) 0.51671(19)
Co2_2 Co 0.17004(6) 0.22243(4) 0.80957(2)
O3_3 O 0.0068(4) 0.2747(2) 0.80864(14)
H1_3 H 0.003575 0.301982 0.830431
H2_3 H 0.003124 0.301850 0.786720
O7_3 O 0.1693(4) 0.2214(2) 0.87426(15)
O11_3 O 0.0282(4) 0.2945(3) 0.89142(15)
O18_3 O 0.3365(4) 0.1734(2) 0.81115(14)
H11_3 H 0.361065 0.167911 0.837531
H12_3 H 0.329218 0.131606 0.801487
N2_3 N 0.2585(3) 0.31841(15) 0.81082(12)
C6_3 C 0.3491(4) 0.32986(17) 0.84027(12)
H17_3 H 0.368469 0.296033 0.860687
C7_3 C 0.4112(3) 0.39081(19) 0.83983(13)
H18_3 H 0.473062 0.398640 0.859952
C8_3 C 0.3828(4) 0.44032(16) 0.80995(15)
C9_3 C 0.2923(4) 0.42887(17) 0.78050(13)
H19_3 H 0.272866 0.462698 0.760081
C10_3 C 0.2301(3) 0.36792(19) 0.78094(12)
H20_3 H 0.168272 0.360091 0.760815
C21_3 C 0.1135(6) 0.2571(3) 0.90022(19)
C27_3 C 0.2170(4) 0.19821(16) 0.96126(11)
H33_3 H 0.230498 0.160445 0.943257
C31_3 C 0.1374(4) 0.31026(16) 0.97213(11)
H35_3 H 0.096609 0.349082 0.961556
C32_3 C 0.1572(4) 0.25501(19) 0.94579(9)
C39_2 C 0.4497(3) 0.50631(14) 0.80904(15)
C40_2 C 0.3915(3) 0.56620(19) 0.79814(16)
H39_2 H 0.309833 0.565259 0.790667
C41_2 C 0.4527(3) 0.62747(14) 0.79817(15)
H40_2 H 0.412878 0.668405 0.790716
N6_2 N 0.5721(3) 0.62885(14) 0.80910(14)
C42_3 C 0.6304(3) 0.56897(18) 0.82000(15)
H41_3 H 0.712003 0.569909 0.827476
C43_3 C 0.5692(3) 0.50769(14) 0.81998(16)
H42_3 H 0.608960 0.466763 0.827428
C46_3 C 0.1833(7) 0.2260(3) 0.6054(2)
C47_3 C 0.2848(8) 0.2120(5) 0.5830(3)
H43_3 H 0.357497 0.204173 0.597646
C48_3 C 0.2799(9) 0.2093(6) 0.5393(3)
H44_3 H 0.349848 0.198562 0.524564
C49_3 C 0.0828(6) 0.2344(4) 0.5381(2)
H45_3 H 0.011078 0.241639 0.522646
C50_3 C 0.0814(7) 0.2382(5) 0.5820(2)
H46_3 H 0.010164 0.249098 0.595851
C51_3 C 0.0713(3) 0.2214(3) 0.71739(12)
N8_3 N 0.1761(4) 0.2230(2) 0.74096(9)
C52_3 C 0.2837(3) 0.2265(3) 0.72063(13)
H48_3 H 0.355358 0.227601 0.736747
C53_3 C 0.2865(3) 0.2286(3) 0.67672(13)
H49_3 H 0.359994 0.231023 0.662827
C54_3 C 0.1817(4) 0.2270(3) 0.65314(9)
C55_3 C 0.0741(3) 0.2234(3) 0.67347(12)
H50_3 H 0.002439 0.222379 0.657359
Co6_2 Co 0.67004(6) 0.72243(4) 0.80957(2)
N11_2 N 0.0721(3) 0.12885(14) 0.80910(14)
C25_4 C 0.1335(3) 0.06885(18) 0.43453(15)
H31_4 H 0.212961 0.070384 0.425501
C26_4 C 0.0729(3) 0.00739(15) 0.43478(16)
C42_4 C 0.1304(3) 0.06897(18) 0.82000(15)
H41_4 H 0.212003 0.069909 0.827476
C43_4 C 0.0692(3) 0.00769(14) 0.81998(16)
C12_4 C 0.0323(3) 0.9571(3) 0.16744(11)
H22_4 H 0.074425 0.962568 0.193493
C13_4 C 0.0932(2) 0.9543(3) 0.12972(14)
C14_4 C 0.0316(3) 0.9462(3) 0.09160(11)
H23_4 H 0.073184 0.944326 0.065814
C16_4 C 0.2260(2) 0.9557(3) 0.13003(14)
C17_4 C 0.2890(3) 0.9371(3) 0.16637(12)
H25_4 H 0.248537 0.928521 0.191866
C18_4 C 0.4112(3) 0.9311(3) 0.16540(11)
H26_4 H 0.454285 0.918387 0.190233
N4_4 N 0.4704(2) 0.9436(2) 0.12809(13)
C19_4 C 0.4074(3) 0.9622(3) 0.09175(11)
H27_4 H 0.447812 0.970807 0.066251
C20_4 C 0.2851(3) 0.9682(3) 0.09272(12)
H28_4 H 0.242062 0.980940 0.067883
H32_4 H 0.110945 0.966910 0.425919
Co7_4 Co 0.65983(7) 0.93975(3) 0.12858(3)
S1_4 S 0.83831(16) 0.62467(8) 0.02154(5)
S2_4 S 0.82269(16) 0.62307(8) 0.23472(5)
O1_4 O 0.6683(4) 0.7208(2) 0.38165(14)
O2_4 O 0.9514(5) 0.6275(3) 0.00020(19)
O5_4 O 0.6334(5) 0.9280(2) 0.23484(15)
O6_4 O 0.9422(5) 0.6290(3) 0.25100(19)
O8_4 O 0.8180(6) 0.6278(3) 0.18980(19)
O9_4 O 0.5121(4) 0.7740(2) 0.44663(14)
H5_4 H 0.502456 0.793805 0.422129
H6_4 H 0.515009 0.807427 0.464691
O10_4 O 0.6661(4) 0.8643(2) 0.08033(14)
O12_4 O 0.8388(4) 0.6718(2) 0.44515(15)
H7_4 H 0.846404 0.630312 0.454425
H8_4 H 0.904667 0.679953 0.432360
O13_4 O 0.8533(6) 0.6338(3) 0.06686(17)
O15_4 O 0.7623(7) 0.5640(3) 0.2511(2)
O16_4 O 0.6690(4) 0.8667(2) 0.17660(14)
O17_4 O 0.7717(6) 0.5651(3) 0.0091(2)
O19_4 O 0.5295(4) 0.7959(3) 0.36432(15)
O20_4 O 0.6348(5) 0.9258(2) 0.02190(15)
N1_4 N 0.7654(4) 0.81729(16) 0.44738(13)
C1_4 C 0.7427(4) 0.8664(2) 0.47776(13)
H13_4 H 0.684675 0.858402 0.498474
C2_4 C 0.8050(5) 0.92734(19) 0.47784(14)
H14_4 H 0.789576 0.960926 0.498607
C3_4 C 0.8900(4) 0.93909(16) 0.44754(14)
C4_4 C 0.9126(4) 0.88995(19) 0.41715(13)
H15_4 H 0.970671 0.897983 0.396440
C5_4 C 0.8503(4) 0.82905(17) 0.41707(12)
H16_4 H 0.865771 0.795458 0.396306
N3_4 N 0.8483(2) 0.9438(2) 0.12893(13)
C11_4 C 0.9099(3) 0.9519(3) 0.16705(10)
H21_4 H 0.868326 0.953779 0.192831
C15_4 C 0.9092(3) 0.9410(3) 0.09120(10)
H24_4 H 0.867085 0.935536 0.065151
C28_4 C 0.7569(4) 0.69667(16) 0.00309(11)
C29_4 C 0.7371(4) 0.75193(19) 0.02944(9)
H34_4 H 0.764460 0.750873 0.058024
C30_4 C 0.6774(4) 0.80872(16) 0.01396(11)
C33_4 C 0.6366(3) 0.81155(16) 0.28479(11)
H36_4 H 0.598954 0.850998 0.295462
C34_4 C 0.6743(3) 0.81017(15) 0.24322(10)
C35_4 C 0.7293(4) 0.75245(18) 0.22760(9)
H37_4 H 0.755099 0.751503 0.199190
C36_4 C 0.7466(4) 0.69612(15) 0.25354(11)
C37_4 C 0.7089(4) 0.69751(15) 0.29510(10)
H38_4 H 0.720706 0.659010 0.312835
C38_4 C 0.6539(4) 0.75522(19) 0.31073(9)
C44_4 C 0.6569(6) 0.8732(3) 0.2160(2)
C45_4 C 0.6561(5) 0.8714(3) 0.0411(2)
C56_4 C 0.6152(5) 0.7572(3) 0.35611(18)
N12_4 N 0.6803(5) 0.7212(3) 0.51671(19)
O3_4 O 0.5068(4) 0.7747(2) 0.80864(14)
H1_4 H 0.503575 0.801982 0.830431
H2_4 H 0.503124 0.801850 0.786720
O7_4 O 0.6693(4) 0.7214(2) 0.87426(15)
O11_4 O 0.5282(4) 0.7945(3) 0.89142(15)
O18_4 O 0.8365(4) 0.6734(2) 0.81115(14)
H11_4 H 0.861065 0.667911 0.837531
H12_4 H 0.829218 0.631606 0.801487
N2_4 N 0.7585(3) 0.81841(15) 0.81082(12)
C6_4 C 0.8491(4) 0.82986(17) 0.84027(12)
H17_4 H 0.868469 0.796033 0.860687
C7_4 C 0.9112(3) 0.89081(19) 0.83983(13)
H18_4 H 0.973062 0.898640 0.859952
C8_4 C 0.8828(4) 0.94032(16) 0.80995(15)
C9_4 C 0.7923(4) 0.92887(17) 0.78050(13)
H19_4 H 0.772866 0.962698 0.760081
C10_4 C 0.7301(3) 0.86792(19) 0.78094(12)
H20_4 H 0.668272 0.860091 0.760815
C21_4 C 0.6135(6) 0.7571(3) 0.90022(19)
C27_4 C 0.7170(4) 0.69821(16) 0.96126(11)
H33_4 H 0.730498 0.660445 0.943257
C31_4 C 0.6374(4) 0.81026(16) 0.97213(11)
H35_4 H 0.596609 0.849082 0.961556
C32_4 C 0.6572(4) 0.75501(19) 0.94579(9)
C46_4 C 0.6833(7) 0.7260(3) 0.6054(2)
C47_4 C 0.7848(8) 0.7120(5) 0.5830(3)
H43_4 H 0.857497 0.704173 0.597646
C48_4 C 0.7799(9) 0.7093(6) 0.5393(3)
H44_4 H 0.849848 0.698562 0.524564
C49_4 C 0.5828(6) 0.7344(4) 0.5381(2)
H45_4 H 0.511078 0.741639 0.522646
C50_4 C 0.5814(7) 0.7382(5) 0.5820(2)
H46_4 H 0.510164 0.749098 0.595851
C51_4 C 0.5713(3) 0.7214(3) 0.71739(12)
H47_3 H 0.497803 0.718958 0.731281
N8_4 N 0.6761(4) 0.7230(2) 0.74096(9)
C52_4 C 0.7837(3) 0.7265(3) 0.72063(13)
H48_4 H 0.855358 0.727601 0.736747
C53_4 C 0.7865(3) 0.7286(3) 0.67672(13)
H49_4 H 0.859994 0.731023 0.662827
C54_4 C 0.6817(4) 0.7270(3) 0.65314(9)
C55_4 C 0.5741(3) 0.7234(3) 0.67347(12)
H50_4 H 0.502439 0.722379 0.657359
H47_4 H 0.997803 0.218958 0.731281
O4_3 O 0.6629(4) 0.9790(2) 0.67290(15)
H3_3 H 0.635470 0.992956 0.697060
H4_3 H 0.613142 0.947419 0.664672
O14_3 O 0.6548(4) 0.9813(2) 0.58230(15)
H9_3 H 0.633716 0.998288 0.557849
H10_3 H 0.598803 0.952705 0.588221
C22_3 C 0.9566(3) 0.99486(15) 0.94800(15)
C23_3 C 0.9009(3) 0.93563(19) 0.96097(16)
H29_3 H 0.821383 0.937167 0.969998
C24_3 C 0.9615(3) 0.87417(15) 0.96072(15)
H30_3 H 0.923401 0.833694 0.969579
C39_3 C 0.9497(3) 0.99369(14) 0.30904(15)
C40_3 C 0.8915(3) 0.93380(19) 0.29814(16)
H39_3 H 0.809833 0.934741 0.290667
C41_3 C 0.9527(3) 0.87253(14) 0.29817(15)
H40_3 H 0.912878 0.831595 0.290716
H42_4 H 0.108960 0.966763 0.827428
O4_4 O 0.6629(4) 0.0210(2) 0.17290(15)
H3_4 H 0.635470 0.007044 0.197060
H4_4 H 0.613142 0.052581 0.164672
O14_4 O 0.6548(4) 0.0187(2) 0.08230(15)
H9_4 H 0.633716 0.001712 0.057849
H10_4 H 0.598803 0.047295 0.088221
C22_4 C 0.9566(3) 0.00514(15) 0.44800(15)
C23_4 C 0.9009(3) 0.06437(19) 0.46097(16)
H29_4 H 0.821383 0.062833 0.469998
C24_4 C 0.9615(3) 0.12583(15) 0.46072(15)
H30_4 H 0.923401 0.166306 0.469579
C39_4 C 0.9497(3) 0.00631(14) 0.80904(15)
C40_4 C 0.8915(3) 0.06620(19) 0.79814(16)
H39_4 H 0.809833 0.065259 0.790667
C41_4 C 0.9527(3) 0.12747(14) 0.79817(15)
H40_4 H 0.912878 0.168405 0.790716
loop_
_geom_bond_atom_site_label_1
_geom_bond_atom_site_label_2
_geom_bond_site_symmetry_1
_geom_bond_site_symmetry_2
Co1 O1 1_555 1_555
Co2 O3 1_555 1_555
Co7 O4 1_555 1_555
S1 O2 1_555 1_555
S2 O6 1_555 1_555
O1 C56 1_555 1_555
O3 H1 1_555 1_555
H2 O3 1_555 1_555
O4 H3 1_555 1_555
H4 O4 1_555 1_555
O5 C44 1_555 1_555
O7 Co2 1_555 1_555
O8 S2 1_555 1_555
O9 Co1 1_555 1_555
H5 O9 1_555 1_555
H6 O9 1_555 1_555
O10 Co7 1_555 1_555
O11 C21 1_555 1_555
O12 Co1 1_555 1_555
H7 O12 1_555 1_555
H8 O12 1_555 1_555
O13 S1 1_555 1_555
O14 Co7 1_555 1_555
H9 O14 1_555 1_555
H10 O14 1_555 1_555
O15 S2 1_555 1_555
O16 Co7 1_555 1_555
O17 S1 1_555 1_555
O18 Co2 1_555 1_555
H11 O18 1_555 1_555
H12 O18 1_555 1_555
O19 C56 1_555 1_555
O20 C45 1_555 1_555
N1 Co1 1_555 1_555
C1 N1 1_555 1_555
H13 C1 1_555 1_555
C2 C1 1_555 1_555
H14 C2 1_555 1_555
C3 C2 1_555 1_555
C4 C3 1_555 1_555
H15 C4 1_555 1_555
C5 N1 1_555 1_555
H16 C5 1_555 1_555
N2 Co2 1_555 1_555
C6 N2 1_555 1_555
H17 C6 1_555 1_555
C7 C6 1_555 1_555
H18 C7 1_555 1_555
C8 C7 1_555 1_555
C9 C8 1_555 1_555
H19 C9 1_555 1_555
C10 N2 1_555 1_555
H20 C10 1_555 1_555
N3 Co7 1_555 1_555
C11 N3 1_555 1_555
H21 C11 1_555 1_555
C12 C11 1_555 1_555
H22 C12 1_555 1_555
C13 C12 1_555 1_555
C14 C13 1_555 1_555
H23 C14 1_555 1_555
C15 N3 1_555 1_555
H24 C15 1_555 1_555
C16 C13 1_555 1_555
C17 C16 1_555 1_555
H25 C17 1_555 1_555
C18 C17 1_555 1_555
H26 C18 1_555 1_555
N4 C18 1_555 1_555
C19 N4 1_555 1_555
H27 C19 1_555 1_555
C20 C16 1_555 1_555
H28 C20 1_555 1_555
C21 O7 1_555 1_555
C22 C3 1_555 1_555
C23 C22 1_555 1_555
H29 C23 1_555 1_555
C24 C23 1_555 1_555
H30 C24 1_555 1_555
N5 C24 1_555 1_555
C25 N5 1_555 1_555
H31 C25 1_555 1_555
C26 C22 1_555 1_555
H32 C26 1_555 1_555
C27 H33 1_555 1_555
C28 S1 1_555 1_555
C29 C28 1_555 1_555
H34 C29 1_555 1_555
C30 C29 1_555 1_555
C31 C30 1_555 1_555
H35 C31 1_555 1_555
C32 C21 1_555 1_555
C33 H36 1_555 1_555
C34 C33 1_555 1_555
C35 C34 1_555 1_555
H37 C35 1_555 1_555
C36 S2 1_555 1_555
C37 C36 1_555 1_555
H38 C37 1_555 1_555
C38 C33 1_555 1_555
C39 C8 1_555 1_555
C40 C39 1_555 1_555
H39 C40 1_555 1_555
C41 C40 1_555 1_555
H40 C41 1_555 1_555
N6 C41 1_555 1_555
C42 N6 1_555 1_555
H41 C42 1_555 1_555
C43 C39 1_555 1_555
H42 C43 1_555 1_555
C44 O16 1_555 1_555
C45 O10 1_555 1_555
C46 C47 1_555 1_555
C47 H43 1_555 1_555
C48 C47 1_555 1_555
H44 C48 1_555 1_555
N12 C48 1_555 1_555
C49 N12 1_555 1_555
H45 C49 1_555 1_555
C50 C46 1_555 1_555
H46 C50 1_555 1_555
N8 Co2 1_555 1_555
C52 N8 1_555 1_555
H48 C52 1_555 1_555
C53 C52 1_555 1_555
H49 C53 1_555 1_555
C54 C46 1_555 1_555
C55 C51 1_555 1_555
H50 C55 1_555 1_555
C56 C38 1_555 1_555
Co5 N5 1_555 1_555
Co6 N6 1_555 1_555
N10 Co1 1_555 1_555
N11 Co2 1_555 1_555
C4 C5 1_555 1_555
C9 C10 1_555 1_555
C14 C15 1_555 1_555
C19 C20 1_555 1_555
C25 C26 1_555 1_555
C27 C28 1_555 1_555
C27 C32 1_555 1_555
C30 C45 1_555 1_555
C31 C32 1_555 1_555
C34 C44 1_555 1_555
C35 C36 1_555 1_555
C37 C38 1_555 1_555
C42 C43 1_555 1_555
C49 C50 1_555 1_555
C51 N8 1_555 1_555
C53 C54 1_555 1_555
C54 C55 1_555 1_555
H22_2 C12_2 1_555 1_555
C13_2 C12_2 1_555 1_555
C14_2 C13_2 1_555 1_555
H23_2 C14_2 1_555 1_555
C16_2 C13_2 1_555 1_555
C17_2 C16_2 1_555 1_555
H25_2 C17_2 1_555 1_555
C18_2 C17_2 1_555 1_555
H26_2 C18_2 1_555 1_555
N4_2 C18_2 1_555 1_555
C19_2 N4_2 1_555 1_555
H27_2 C19_2 1_555 1_555
C20_2 C16_2 1_555 1_555
H28_2 C20_2 1_555 1_555
Co7_2 N4_2 1_555 1_555
C19_2 C20_2 1_555 1_555
C25_2 N10 1_555 1_555
H31_2 C25_2 1_555 1_555
C42_2 N11 1_555 1_555
H41_2 C42_2 1_555 1_555
C25_2 C26_2 1_555 1_555
C42_2 C43_2 1_555 1_555
Co5 O1_2 1_555 1_555
Co6 O3_2 1_555 1_555
S1_2 O2_2 1_555 1_555
S2_2 O6_2 1_555 1_555
O1_2 C56_2 1_555 1_555
O3_2 H1_2 1_555 1_555
H2_2 O3_2 1_555 1_555
O5_2 C44_2 1_555 1_555
O7_2 Co6 1_555 1_555
O8_2 S2_2 1_555 1_555
O9_2 Co5 1_555 1_555
H5_2 O9_2 1_555 1_555
H6_2 O9_2 1_555 1_555
O10_2 Co7_2 1_555 1_555
O11_2 C21_2 1_555 1_555
O12_2 Co5 1_555 1_555
H7_2 O12_2 1_555 1_555
H8_2 O12_2 1_555 1_555
O13_2 S1_2 1_555 1_555
O15_2 S2_2 1_555 1_555
O16_2 Co7_2 1_555 1_555
O17_2 S1_2 1_555 1_555
O18_2 Co6 1_555 1_555
H11_2 O18_2 1_555 1_555
H12_2 O18_2 1_555 1_555
O19_2 C56_2 1_555 1_555
O20_2 C45_2 1_555 1_555
N1_2 Co5 1_555 1_555
C1_2 N1_2 1_555 1_555
H13_2 C1_2 1_555 1_555
C2_2 C1_2 1_555 1_555
H14_2 C2_2 1_555 1_555
C3_2 C2_2 1_555 1_555
C4_2 C3_2 1_555 1_555
H15_2 C4_2 1_555 1_555
C5_2 N1_2 1_555 1_555
H16_2 C5_2 1_555 1_555
N2_2 Co6 1_555 1_555
C6_2 N2_2 1_555 1_555
H17_2 C6_2 1_555 1_555
C7_2 C6_2 1_555 1_555
H18_2 C7_2 1_555 1_555
C8_2 C7_2 1_555 1_555
C9_2 C8_2 1_555 1_555
H19_2 C9_2 1_555 1_555
C10_2 N2_2 1_555 1_555
H20_2 C10_2 1_555 1_555
N3_2 Co7_2 1_555 1_555
C11_2 N3_2 1_555 1_555
H21_2 C11_2 1_555 1_555
C15_2 N3_2 1_555 1_555
H24_2 C15_2 1_555 1_555
C21_2 O7_2 1_555 1_555
C27_2 H33_2 1_555 1_555
C28_2 S1_2 1_555 1_555
C29_2 C28_2 1_555 1_555
H34_2 C29_2 1_555 1_555
C30_2 C29_2 1_555 1_555
C31_2 C30_2 1_555 1_555
H35_2 C31_2 1_555 1_555
C32_2 C21_2 1_555 1_555
C33_2 H36_2 1_555 1_555
C34_2 C33_2 1_555 1_555
C35_2 C34_2 1_555 1_555
H37_2 C35_2 1_555 1_555
C36_2 S2_2 1_555 1_555
C37_2 C36_2 1_555 1_555
H38_2 C37_2 1_555 1_555
C38_2 C33_2 1_555 1_555
C44_2 O16_2 1_555 1_555
C45_2 O10_2 1_555 1_555
C46_2 C47_2 1_555 1_555
C47_2 H43_2 1_555 1_555
C48_2 C47_2 1_555 1_555
H44_2 C48_2 1_555 1_555
N12_2 C48_2 1_555 1_555
C49_2 N12_2 1_555 1_555
H45_2 C49_2 1_555 1_555
C50_2 C46_2 1_555 1_555
H46_2 C50_2 1_555 1_555
C51_2 H47_2 1_555 1_555
N8_2 Co6 1_555 1_555
C52_2 N8_2 1_555 1_555
H48_2 C52_2 1_555 1_555
C53_2 C52_2 1_555 1_555
H49_2 C53_2 1_555 1_555
C54_2 C46_2 1_555 1_555
C55_2 C51_2 1_555 1_555
H50_2 C55_2 1_555 1_555
C56_2 C38_2 1_555 1_555
C4_2 C5_2 1_555 1_555
C9_2 C10_2 1_555 1_555
C27_2 C28_2 1_555 1_555
C27_2 C32_2 1_555 1_555
C30_2 C45_2 1_555 1_555
C31_2 C32_2 1_555 1_555
C34_2 C44_2 1_555 1_555
C35_2 C36_2 1_555 1_555
C37_2 C38_2 1_555 1_555
C49_2 C50_2 1_555 1_555
C51_2 N8_2 1_555 1_555
C53_2 C54_2 1_555 1_555
C54_2 C55_2 1_555 1_555
Co1_2 O1_3 1_555 1_555
Co7_3 O4_2 1_555 1_555
S1_3 O2_3 1_555 1_555
S2_3 O6_3 1_555 1_555
O1_3 C56_3 1_555 1_555
O4_2 H3_2 1_555 1_555
H4_2 O4_2 1_555 1_555
O5_3 C44_3 1_555 1_555
O8_3 S2_3 1_555 1_555
O9_3 Co1_2 1_555 1_555
H5_3 O9_3 1_555 1_555
H6_3 O9_3 1_555 1_555
O10_3 Co7_3 1_555 1_555
O12_3 Co1_2 1_555 1_555
H7_3 O12_3 1_555 1_555
H8_3 O12_3 1_555 1_555
O13_3 S1_3 1_555 1_555
O14_2 Co7_3 1_555 1_555
H9_2 O14_2 1_555 1_555
H10_2 O14_2 1_555 1_555
O15_3 S2_3 1_555 1_555
O16_3 Co7_3 1_555 1_555
O17_3 S1_3 1_555 1_555
O19_3 C56_3 1_555 1_555
O20_3 C45_3 1_555 1_555
N1_3 Co1_2 1_555 1_555
C1_3 N1_3 1_555 1_555
H13_3 C1_3 1_555 1_555
C2_3 C1_3 1_555 1_555
H14_3 C2_3 1_555 1_555
C3_3 C2_3 1_555 1_555
C4_3 C3_3 1_555 1_555
H15_3 C4_3 1_555 1_555
C5_3 N1_3 1_555 1_555
H16_3 C5_3 1_555 1_555
N3_3 Co7_3 1_555 1_555
C11_3 N3_3 1_555 1_555
H21_3 C11_3 1_555 1_555
C12_3 C11_3 1_555 1_555
H22_3 C12_3 1_555 1_555
C13_3 C12_3 1_555 1_555
C14_3 C13_3 1_555 1_555
H23_3 C14_3 1_555 1_555
C15_3 N3_3 1_555 1_555
H24_3 C15_3 1_555 1_555
C16_3 C13_3 1_555 1_555
C17_3 C16_3 1_555 1_555
H25_3 C17_3 1_555 1_555
C18_3 C17_3 1_555 1_555
H26_3 C18_3 1_555 1_555
N4_3 C18_3 1_555 1_555
C19_3 N4_3 1_555 1_555
H27_3 C19_3 1_555 1_555
C20_3 C16_3 1_555 1_555
H28_3 C20_3 1_555 1_555
C22_2 C3_3 1_555 1_555
C23_2 C22_2 1_555 1_555
H29_2 C23_2 1_555 1_555
C24_2 C23_2 1_555 1_555
H30_2 C24_2 1_555 1_555
N5_2 C24_2 1_555 1_555
C25_3 N5_2 1_555 1_555
H31_3 C25_3 1_555 1_555
C26_3 C22_2 1_555 1_555
H32_3 C26_3 1_555 1_555
C28_3 S1_3 1_555 1_555
C29_3 C28_3 1_555 1_555
H34_3 C29_3 1_555 1_555
C30_3 C29_3 1_555 1_555
C33_3 H36_3 1_555 1_555
C34_3 C33_3 1_555 1_555
C35_3 C34_3 1_555 1_555
H37_3 C35_3 1_555 1_555
C36_3 S2_3 1_555 1_555
C37_3 C36_3 1_555 1_555
H38_3 C37_3 1_555 1_555
C38_3 C33_3 1_555 1_555
C44_3 O16_3 1_555 1_555
C45_3 O10_3 1_555 1_555
C56_3 C38_3 1_555 1_555
Co5_2 N5_2 1_555 1_555
N10_2 Co1_2 1_555 1_555
N12_3 Co1_2 1_555 1_555
C4_3 C5_3 1_555 1_555
C14_3 C15_3 1_555 1_555
C19_3 C20_3 1_555 1_555
C25_3 C26_3 1_555 1_555
C30_3 C45_3 1_555 1_555
C34_3 C44_3 1_555 1_555
C35_3 C36_3 1_555 1_555
C37_3 C38_3 1_555 1_555
Co2_2 O3_3 1_555 1_555
O3_3 H1_3 1_555 1_555
H2_3 O3_3 1_555 1_555
O7_3 Co2_2 1_555 1_555
O11_3 C21_3 1_555 1_555
O18_3 Co2_2 1_555 1_555
H11_3 O18_3 1_555 1_555
H12_3 O18_3 1_555 1_555
N2_3 Co2_2 1_555 1_555
C6_3 N2_3 1_555 1_555
H17_3 C6_3 1_555 1_555
C7_3 C6_3 1_555 1_555
H18_3 C7_3 1_555 1_555
C8_3 C7_3 1_555 1_555
C9_3 C8_3 1_555 1_555
H19_3 C9_3 1_555 1_555
C10_3 N2_3 1_555 1_555
H20_3 C10_3 1_555 1_555
C21_3 O7_3 1_555 1_555
C27_3 H33_3 1_555 1_555
H35_3 C31_3 1_555 1_555
C32_3 C21_3 1_555 1_555
C39_2 C8_3 1_555 1_555
C40_2 C39_2 1_555 1_555
H39_2 C40_2 1_555 1_555
C41_2 C40_2 1_555 1_555
H40_2 C41_2 1_555 1_555
N6_2 C41_2 1_555 1_555
C42_3 N6_2 1_555 1_555
H41_3 C42_3 1_555 1_555
C43_3 C39_2 1_555 1_555
H42_3 C43_3 1_555 1_555
C46_3 C47_3 1_555 1_555
C47_3 H43_3 1_555 1_555
C48_3 C47_3 1_555 1_555
H44_3 C48_3 1_555 1_555
N12_3 C48_3 1_555 1_555
C49_3 N12_3 1_555 1_555
H45_3 C49_3 1_555 1_555
C50_3 C46_3 1_555 1_555
H46_3 C50_3 1_555 1_555
N8_3 Co2_2 1_555 1_555
C52_3 N8_3 1_555 1_555
H48_3 C52_3 1_555 1_555
C53_3 C52_3 1_555 1_555
H49_3 C53_3 1_555 1_555
C54_3 C46_3 1_555 1_555
C55_3 C51_3 1_555 1_555
H50_3 C55_3 1_555 1_555
Co6_2 N6_2 1_555 1_555
N11_2 Co2_2 1_555 1_555
C9_3 C10_3 1_555 1_555
C27_3 C32_3 1_555 1_555
C31_3 C32_3 1_555 1_555
C42_3 C43_3 1_555 1_555
C49_3 C50_3 1_555 1_555
C51_3 N8_3 1_555 1_555
C53_3 C54_3 1_555 1_555
C54_3 C55_3 1_555 1_555
C25_4 N10_2 1_555 1_555
H31_4 C25_4 1_555 1_555
C25_4 C26_4 1_555 1_555
C42_4 N11_2 1_555 1_555
H41_4 C42_4 1_555 1_555
C42_4 C43_4 1_555 1_555
H22_4 C12_4 1_555 1_555
C13_4 C12_4 1_555 1_555
C14_4 C13_4 1_555 1_555
H23_4 C14_4 1_555 1_555
C16_4 C13_4 1_555 1_555
C17_4 C16_4 1_555 1_555
H25_4 C17_4 1_555 1_555
C18_4 C17_4 1_555 1_555
H26_4 C18_4 1_555 1_555
N4_4 C18_4 1_555 1_555
C19_4 N4_4 1_555 1_555
H27_4 C19_4 1_555 1_555
C20_4 C16_4 1_555 1_555
H28_4 C20_4 1_555 1_555
Co7_4 N4_4 1_555 1_555
C19_4 C20_4 1_555 1_555
Co5_2 O1_4 1_555 1_555
S1_4 O2_4 1_555 1_555
S2_4 O6_4 1_555 1_555
O1_4 C56_4 1_555 1_555
O5_4 C44_4 1_555 1_555
O8_4 S2_4 1_555 1_555
O9_4 Co5_2 1_555 1_555
H5_4 O9_4 1_555 1_555
H6_4 O9_4 1_555 1_555
O10_4 Co7_4 1_555 1_555
O12_4 Co5_2 1_555 1_555
H7_4 O12_4 1_555 1_555
H8_4 O12_4 1_555 1_555
O13_4 S1_4 1_555 1_555
O15_4 S2_4 1_555 1_555
O16_4 Co7_4 1_555 1_555
O17_4 S1_4 1_555 1_555
O19_4 C56_4 1_555 1_555
O20_4 C45_4 1_555 1_555
N1_4 Co5_2 1_555 1_555
C1_4 N1_4 1_555 1_555
H13_4 C1_4 1_555 1_555
C2_4 C1_4 1_555 1_555
H14_4 C2_4 1_555 1_555
C3_4 C2_4 1_555 1_555
C4_4 C3_4 1_555 1_555
H15_4 C4_4 1_555 1_555
C5_4 N1_4 1_555 1_555
H16_4 C5_4 1_555 1_555
N3_4 Co7_4 1_555 1_555
C11_4 N3_4 1_555 1_555
H21_4 C11_4 1_555 1_555
C15_4 N3_4 1_555 1_555
H24_4 C15_4 1_555 1_555
C28_4 S1_4 1_555 1_555
C29_4 C28_4 1_555 1_555
H34_4 C29_4 1_555 1_555
C30_4 C29_4 1_555 1_555
C33_4 H36_4 1_555 1_555
C34_4 C33_4 1_555 1_555
C35_4 C34_4 1_555 1_555
H37_4 C35_4 1_555 1_555
C36_4 S2_4 1_555 1_555
C37_4 C36_4 1_555 1_555
H38_4 C37_4 1_555 1_555
C38_4 C33_4 1_555 1_555
C44_4 O16_4 1_555 1_555
C45_4 O10_4 1_555 1_555
C56_4 C38_4 1_555 1_555
N12_4 Co5_2 1_555 1_555
C4_4 C5_4 1_555 1_555
C30_4 C45_4 1_555 1_555
C34_4 C44_4 1_555 1_555
C35_4 C36_4 1_555 1_555
C37_4 C38_4 1_555 1_555
Co6_2 O3_4 1_555 1_555
O3_4 H1_4 1_555 1_555
H2_4 O3_4 1_555 1_555
O7_4 Co6_2 1_555 1_555
O11_4 C21_4 1_555 1_555
O18_4 Co6_2 1_555 1_555
H11_4 O18_4 1_555 1_555
H12_4 O18_4 1_555 1_555
N2_4 Co6_2 1_555 1_555
C6_4 N2_4 1_555 1_555
H17_4 C6_4 1_555 1_555
C7_4 C6_4 1_555 1_555
H18_4 C7_4 1_555 1_555
C8_4 C7_4 1_555 1_555
C9_4 C8_4 1_555 1_555
H19_4 C9_4 1_555 1_555
C10_4 N2_4 1_555 1_555
H20_4 C10_4 1_555 1_555
C21_4 O7_4 1_555 1_555
C27_4 H33_4 1_555 1_555
H35_4 C31_4 1_555 1_555
C32_4 C21_4 1_555 1_555
C46_4 C47_4 1_555 1_555
C47_4 H43_4 1_555 1_555
C48_4 C47_4 1_555 1_555
H44_4 C48_4 1_555 1_555
N12_4 C48_4 1_555 1_555
C49_4 N12_4 1_555 1_555
H45_4 C49_4 1_555 1_555
C50_4 C46_4 1_555 1_555
H46_4 C50_4 1_555 1_555
C51_4 H47_3 1_555 1_555
N8_4 Co6_2 1_555 1_555
C52_4 N8_4 1_555 1_555
H48_4 C52_4 1_555 1_555
C53_4 C52_4 1_555 1_555
H49_4 C53_4 1_555 1_555
C54_4 C46_4 1_555 1_555
C55_4 C51_4 1_555 1_555
H50_4 C55_4 1_555 1_555
C9_4 C10_4 1_555 1_555
C27_4 C32_4 1_555 1_555
C31_4 C32_4 1_555 1_555
C49_4 C50_4 1_555 1_555
C51_4 N8_4 1_555 1_555
C53_4 C54_4 1_555 1_555
C54_4 C55_4 1_555 1_555
O4_3 H3_3 1_555 1_555
H4_3 O4_3 1_555 1_555
H9_3 O14_3 1_555 1_555
H10_3 O14_3 1_555 1_555
C23_3 C22_3 1_555 1_555
H29_3 C23_3 1_555 1_555
C24_3 C23_3 1_555 1_555
H30_3 C24_3 1_555 1_555
C40_3 C39_3 1_555 1_555
H39_3 C40_3 1_555 1_555
C41_3 C40_3 1_555 1_555
H40_3 C41_3 1_555 1_555
O4_4 H3_4 1_555 1_555
H4_4 O4_4 1_555 1_555
H9_4 O14_4 1_555 1_555
H10_4 O14_4 1_555 1_555
C23_4 C22_4 1_555 1_555
H29_4 C23_4 1_555 1_555
C24_4 C23_4 1_555 1_555
H30_4 C24_4 1_555 1_555
C40_4 C39_4 1_555 1_555
H39_4 C40_4 1_555 1_555
C41_4 C40_4 1_555 1_555
H40_4 C41_4 1_555 1_555

#END
