
###############################################################################
#
# This file contains modified crystal structure data generated from the
# MOF subset of the Cambridge Structural Database (CSD) v543 
# hosted by the Cambridge Crystallographic Data Centre (CCDC).
#
# This work is licensed under the Creative Commons
# Attribution-NonCommercial-ShareAlike 4.0 International License.
# To view a copy of this license, visit
# http://creativecommons.org/licenses/by-nc-sa/4.0/
# or send a letter to
# Creative Commons, PO Box 1866, Mountain View, CA 94042, USA.
#
# CIF created using the CSD Python API on 29 September 2022
# The structure has been converted into the P1 space group
# The structure has a 3D framework
# The original CSD entry OBUDOI is in the orthorhombic crystal system
# The framework has been calculated to contain at least 10.0% void space
# The void calculation uses a probe of radius 1.32A, grid spacing 0.4
# The framework is charged, counterions have been retained in the structure
# H atom positions have been added when not included in the experimental data
#
###############################################################################

data_OBUDOI
_chemical_formula_moiety         '(C336 H248 Cu24 N48 O104 S12)n'
_symmetry_cell_setting           triclinic
_symmetry_space_group_name_H-M   'P 1'
_symmetry_Int_Tables_number      1
_space_group_name_Hall           'P 1'
loop_
_symmetry_equiv_pos_site_id
_symmetry_equiv_pos_as_xyz
1 x,y,z
_cell_length_a                   41.494(3)
_cell_length_b                   12.6314(10)
_cell_length_c                   18.1517(12)
_cell_angle_alpha                90
_cell_angle_beta                 90
_cell_angle_gamma                90
_cell_volume                     9513.8
loop_
_atom_site_label
_atom_site_type_symbol
_atom_site_fract_x
_atom_site_fract_y
_atom_site_fract_z
C11 C 0.3795(2) 0.0022(5) 0.1259(4)
H9 H 0.381368 0.076976 0.129231
C31 C 0.1352(2) 0.0167(5) 0.1353(4)
H25 H 0.139483 0.090199 0.140231
H41 H 0.048850 0.052459 0.137348
Cu14 Cu 0.28649(3) 0.10758(13) 0.47491(9)
Cu7 Cu 0.38323(3) 0.04623(12) 0.96712(8)
Cu9 Cu 0.13104(3) 0.06590(14) 0.97733(9)
Cu12 Cu 0.04523(3) 0.05659(13) 0.96764(9)
Cu1 Cu 0.04038(4) 0.45115(14) 0.41705(10)
Cu2 Cu 0.11677(3) 0.54623(12) 0.46712(8)
Cu3 Cu 0.36896(3) 0.56590(14) 0.47733(9)
Cu4 Cu 0.45477(3) 0.55659(13) 0.46764(9)
Cu5 Cu 0.78649(3) 0.39242(13) 0.47491(9)
Cu6 Cu 0.70508(4) 0.35942(16) 0.45859(9)
S2 S 0.59563(11) 0.6454(4) 0.6738(2)
S3 S 0.24102(10) 0.9115(3) 0.5866(2)
O1 O 0.3257(2) 0.6198(8) 0.5021(5)
O2 O 0.2484(3) 0.9850(9) 0.5311(7)
O3 O 0.2663(4) 0.9116(12) 0.6398(9)
O4 O 0.5002(2) 0.5905(8) 0.4843(6)
O5 O 0.0327(3) 0.3071(11) 0.3425(7)
O7 O 0.1794(2) 0.5063(9) 0.4335(6)
O8 O 0.4116(2) 0.5159(8) 0.4516(5)
O9 O 0.5997(4) 0.7539(11) 0.6574(9)
O11 O 0.5668(4) 0.6268(15) 0.7190(8)
O12 O 0.1540(2) 0.6266(8) 0.5052(5)
O13 O 0.0802(2) 0.6574(8) 0.5246(6)
O14 O 0.6628(2) 0.4175(9) 0.4883(6)
O16 O 0.5141(3) 0.4545(10) 0.4135(8)
O17 O 0.0872(2) 0.4481(8) 0.4184(6)
O18 O 0.6343(3) 0.3845(11) 0.3883(7)
O20 O 0.3001(3) 0.5075(10) 0.4311(8)
O21 O 0.7493(2) 0.3177(8) 0.4389(5)
O22 O 0.6229(4) 0.6001(13) 0.7067(8)
O24 O 0.2109(4) 0.9283(11) 0.6272(9)
N1 N 0.0440(2) 0.1318(6) 0.8676(3)
C1 C 0.0386(2) 0.0701(5) 0.8054(4)
C2 C 0.0383(2) 0.1167(6) 0.7360(4)
H2 H 0.034665 0.074578 0.693482
C3 C 0.0435(2) 0.2250(7) 0.7289(3)
C4 C 0.0489(2) 0.2866(5) 0.7911(4)
H3 H 0.052368 0.360617 0.786205
C5 C 0.0491(2) 0.2400(6) 0.8605(4)
H4 H 0.052809 0.282153 0.902980
N2 N 0.0404(2) 0.5570(6) 0.3321(4)
C6 C 0.0491(2) 0.5297(6) 0.2606(5)
H5 H 0.055037 0.458791 0.249496
C7 C 0.0492(2) 0.6060(7) 0.2055(4)
H6 H 0.055188 0.587365 0.156689
C8 C 0.0406(2) 0.7097(6) 0.2218(4)
C9 C 0.0318(2) 0.7371(5) 0.2933(5)
H7 H 0.025923 0.807932 0.304412
C10 C 0.0317(2) 0.6607(7) 0.3484(4)
H8 H 0.025772 0.679359 0.397220
N3 N 0.3793(2) 0.9532(6) 0.0573(3)
C12 C 0.3768(2) 0.9417(6) 0.1896(3)
H10 H 0.376912 0.975195 0.236462
C13 C 0.3740(2) 0.8323(6) 0.1847(3)
C14 C 0.3739(2) 0.7833(4) 0.1161(4)
H11 H 0.371958 0.708517 0.112813
C15 C 0.3765(2) 0.8438(6) 0.0524(3)
H12 H 0.376414 0.810295 0.005581
N4 N 0.3668(2) 0.6474(6) 0.3821(3)
C16 C 0.3738(2) 0.5968(5) 0.3160(4)
H13 H 0.377005 0.522309 0.315057
C17 C 0.3760(2) 0.6550(6) 0.2512(3)
H14 H 0.380761 0.620381 0.206028
C18 C 0.3713(2) 0.7639(6) 0.2525(3)
C19 C 0.3644(2) 0.8146(5) 0.3186(4)
H15 H 0.361145 0.889076 0.319534
C20 C 0.3621(2) 0.7564(6) 0.3834(3)
H16 H 0.357389 0.791005 0.428564
N5 N 0.70392(19) 0.2739(6) 0.5504(3)
C21 C 0.7004(2) 0.3237(5) 0.6182(4)
H17 H 0.697363 0.398190 0.620483
C22 C 0.7013(2) 0.2645(6) 0.6827(3)
H18 H 0.698926 0.298535 0.729095
C23 C 0.7058(2) 0.1556(6) 0.6794(4)
C24 C 0.7093(2) 0.1058(5) 0.6116(5)
H19 H 0.712328 0.031309 0.609356
C25 C 0.7084(2) 0.1650(6) 0.5471(4)
H20 H 0.710765 0.130964 0.500743
N6 N 0.1184(2) 0.6437(6) 0.3789(3)
C26 C 0.1283(2) 0.6015(5) 0.3118(4)
H21 H 0.132713 0.527929 0.307752
C27 C 0.1317(2) 0.6670(6) 0.2508(3)
H22 H 0.138435 0.638144 0.204966
C28 C 0.1252(2) 0.7746(6) 0.2568(4)
C29 C 0.1154(2) 0.8168(5) 0.3238(4)
H23 H 0.110958 0.890320 0.327911
C30 C 0.1120(2) 0.7513(6) 0.3849(3)
H24 H 0.105235 0.780107 0.430699
N7 N 0.1308(2) 0.9728(6) 0.0658(3)
C32 C 0.1332(2) 0.9530(7) 0.1976(3)
H26 H 0.136226 0.982991 0.245100
C33 C 0.1269(2) 0.8454(6) 0.1904(4)
C34 C 0.1225(2) 0.8015(5) 0.1209(4)
H27 H 0.118230 0.728008 0.115952
C35 C 0.1245(2) 0.8652(6) 0.0586(3)
H28 H 0.121486 0.835214 0.011082
N8 N 0.7051(2) 0.4581(6) 0.3721(4)
C36 C 0.7136(2) 0.4181(5) 0.3034(4)
H29 H 0.718702 0.345215 0.298088
C37 C 0.7146(2) 0.4848(7) 0.2426(4)
H30 H 0.720413 0.457533 0.195647
C38 C 0.7071(2) 0.5915(7) 0.2504(4)
C39 C 0.6987(2) 0.6315(5) 0.3190(5)
H31 H 0.693559 0.704415 0.324380
C40 C 0.6976(2) 0.5648(7) 0.3799(4)
H32 H 0.691847 0.592098 0.426823
C43 C 0.7073(2) 0.0926(6) 0.7513(4)
C44 C 0.7175(2) 0.1403(5) 0.8162(5)
H35 H 0.723366 0.212990 0.816407
C45 C 0.7191(2) 0.0817(6) 0.8809(4)
H36 H 0.726077 0.114266 0.925313
N10 N 0.0391(2) 0.3714(7) 0.5134(4)
C46 C 0.0333(2) 0.4318(5) 0.5760(5)
H37 H 0.028230 0.504844 0.571514
C47 C 0.0348(2) 0.3851(7) 0.6453(4)
H38 H 0.030783 0.426360 0.688140
C48 C 0.0421(2) 0.2782(7) 0.6520(4)
C49 C 0.0480(2) 0.2179(5) 0.5893(5)
H39 H 0.052984 0.144800 0.593848
C50 C 0.0464(2) 0.2645(6) 0.5200(4)
H40 H 0.050431 0.223283 0.477221
N11 N 0.0423(2) 0.9500(6) 0.0519(4)
C51 C 0.0460(2) 0.9799(5) 0.1251(5)
C52 C 0.0457(2) 0.9037(7) 0.1803(3)
H42 H 0.048270 0.924145 0.230321
C53 C 0.0416(2) 0.7976(6) 0.1623(4)
C54 C 0.0378(2) 0.7677(5) 0.0891(5)
H43 H 0.034962 0.695191 0.076874
C55 C 0.0381(2) 0.8439(7) 0.0339(4)
C56 C 0.7069(2) 0.6248(5) 0.1129(5)
H45 H 0.705166 0.550462 0.106096
C57 C 0.7078(2) 0.6918(6) 0.0522(3)
H46 H 0.706743 0.663163 0.003847
N12 N 0.7103(2) 0.8005(6) 0.0622(4)
C58 C 0.7119(2) 0.8424(5) 0.1329(4)
H47 H 0.713628 0.916744 0.139750
C59 C 0.7110(2) 0.7754(7) 0.1937(3)
H48 H 0.712051 0.804044 0.241999
C60 C 0.7085(2) 0.6667(6) 0.1837(4)
C61 C 0.5203(3) 0.5214(11) 0.4605(8)
C62 C 0.57942(19) 0.4793(8) 0.4557(4)
H49 H 0.575944 0.444907 0.409804
C63 C 0.55391(15) 0.5286(8) 0.4916(5)
C64 C 0.55899(17) 0.5789(8) 0.5587(5)
H50 H 0.541552 0.612560 0.583193
C65 C 0.5896(2) 0.5800(8) 0.5899(4)
C66 C 0.61509(16) 0.5307(8) 0.5540(5)
H51 H 0.635992 0.531439 0.575298
C67 C 0.61001(16) 0.4804(8) 0.4869(5)
C68 C 0.3013(3) 0.5843(12) 0.4762(9)
C69 C 0.1800(3) 0.5846(11) 0.4751(9)
C70 C 0.26956(15) 0.6372(7) 0.4930(5)
C71 C 0.26977(15) 0.7339(7) 0.5294(6)
H52 H 0.289671 0.766836 0.541493
C72 C 0.2409(2) 0.7825(6) 0.5483(6)
C73 C 0.21175(15) 0.7344(7) 0.5306(6)
H53 H 0.192000 0.767603 0.543508
C74 C 0.21154(15) 0.6376(7) 0.4942(5)
C75 C 0.24044(19) 0.5890(6) 0.4753(5)
H54 H 0.240294 0.522895 0.450394
C84 C 0.6378(4) 0.4224(13) 0.4530(9)
O27 O 0.7484(3) 0.5150(9) 0.5311(7)
O28 O 0.8269(2) 0.4647(8) 0.5061(5)
O29 O 0.3867(2) 0.7100(8) 0.5540(6)
O30 O 0.8485(2) 0.3312(8) 0.4426(6)
O31 O 0.4446(2) 0.7090(8) 0.5360(6)
N13 N 0.4560(2) 0.6318(6) 0.3676(3)
N14 N 0.1207(2) 0.4532(6) 0.5573(3)
N15 N 0.3692(2) 0.4728(6) 0.5658(3)
N16 N 0.7895(2) 0.4753(6) 0.3807(4)
N17 N 0.4577(2) 0.4500(6) 0.5519(4)
N18 N 0.7897(2) 0.3005(6) 0.5622(4)
H58 H 0.62771 0.637448 0.753565
H59 H 0.0815284 0.729086 0.502352
H60 H 0.0580702 0.628952 0.518145
H61 H 0.0423302 0.243514 0.365956
H62 H 0.00925237 0.295532 0.33509
H44 H 0.035541 0.823504 0.983900
Cu16 Cu 0.71351(3) 0.89242(13) 0.97491(9)
H1 H 0.035106 0.996112 0.810255
N9 N 0.7105(2) 0.9753(6) 0.8807(4)
C41 C 0.7003(2) 0.9276(5) 0.8157(4)
H33 H 0.694419 0.854897 0.815573
C42 C 0.6987(2) 0.9862(6) 0.7511(4)
H34 H 0.691709 0.953622 0.706668
S1 S 0.91735(8) 0.7425(3) 0.57034(19)
O10 O 0.8867(2) 0.7900(8) 0.5540(6)
O19 O 0.9955(2) 0.4838(8) 0.4331(5)
O23 O 0.9706(3) 0.3337(10) 0.4047(7)
O25 O 0.9226(3) 0.7245(11) 0.6474(6)
O26 O 0.9446(2) 0.7910(8) 0.5360(6)
C76 C 0.8508(3) 0.4164(11) 0.4799(8)
C77 C 0.94032(15) 0.4722(6) 0.4651(5)
C78 C 0.94245(14) 0.5686(6) 0.5018(5)
H55 H 0.962629 0.603671 0.505668
C79 C 0.91505(18) 0.6136(5) 0.5328(5)
C80 C 0.88552(15) 0.5623(6) 0.5271(5)
H56 H 0.866799 0.593059 0.548243
C81 C 0.88340(14) 0.4659(6) 0.4904(5)
C82 C 0.91080(18) 0.4209(5) 0.4595(5)
H57 H 0.909342 0.355017 0.434408
C83 C 0.9712(3) 0.4242(12) 0.4331(8)
Cu8 Cu 0.86896(3) 0.93410(14) 0.47733(9)
Cu10 Cu 0.95477(3) 0.94341(13) 0.46764(9)
S1_2 S 0.08265(8) 0.2575(3) 0.07034(19)
O6 O 0.1731(2) 0.5353(8) 0.0061(5)
O10_2 O 0.1133(2) 0.2100(8) 0.0540(6)
O25_2 O 0.0774(3) 0.2755(11) 0.1474(6)
O26_2 O 0.0554(2) 0.2090(8) 0.0360(6)
C78_2 C 0.05755(14) 0.4314(6) 0.0018(5)
H55_2 H 0.037371 0.396329 0.005668
C79_2 C 0.08495(18) 0.3864(5) 0.0328(5)
C80_2 C 0.11448(15) 0.4377(6) 0.0271(5)
H56_2 H 0.133201 0.406941 0.048243
O15 O 0.1515(2) 0.6688(8) 0.9426(6)
O19_2 O 0.0045(2) 0.5162(8) 0.9331(5)
O23_2 O 0.0294(3) 0.6663(10) 0.9047(7)
C76_2 C 0.1492(3) 0.5836(11) 0.9799(8)
C77_2 C 0.05968(15) 0.5278(6) 0.9651(5)
C81_2 C 0.11660(14) 0.5341(6) 0.9904(5)
C82_2 C 0.08920(18) 0.5791(5) 0.9595(5)
H57_2 H 0.090658 0.644983 0.934408
C83_2 C 0.0288(3) 0.5758(12) 0.9331(8)
Cu13 Cu 0.21351(3) 0.60758(13) 0.97491(9)
H1_2 H 0.964894 0.003888 0.310255
N9_2 N 0.2895(2) 0.0247(6) 0.3807(4)
C41_2 C 0.2997(2) 0.0724(5) 0.3157(4)
H33_2 H 0.305581 0.145103 0.315573
C42_2 C 0.3013(2) 0.0138(6) 0.2511(4)
H34_2 H 0.308291 0.046378 0.206668
S2_2 S 0.40437(11) 0.3546(4) 0.1738(2)
S3_2 S 0.75898(10) 0.0885(3) 0.0866(2)
O1_2 O 0.6743(2) 0.3802(8) 0.0021(5)
O2_2 O 0.7516(3) 0.0150(9) 0.0311(7)
O3_2 O 0.7337(4) 0.0884(12) 0.1398(9)
O9_2 O 0.4003(4) 0.2461(11) 0.1574(9)
O11_2 O 0.4332(4) 0.3732(15) 0.2190(8)
O12_2 O 0.8460(2) 0.3734(8) 0.0052(5)
O13_2 O 0.9198(2) 0.3426(8) 0.0246(6)
O22_2 O 0.3771(4) 0.3999(13) 0.2067(8)
O24_2 O 0.7891(4) 0.0717(11) 0.1272(9)
N1_2 N 0.9560(2) 0.8682(6) 0.3676(3)
C1_2 C 0.9614(2) 0.9299(5) 0.3054(4)
C2_2 C 0.9617(2) 0.8833(6) 0.2360(4)
H2_2 H 0.965335 0.925422 0.193482
C3_2 C 0.9565(2) 0.7750(7) 0.2289(3)
C4_2 C 0.9511(2) 0.7134(5) 0.2911(4)
H3_2 H 0.947632 0.639383 0.286205
C5_2 C 0.9509(2) 0.7600(6) 0.3605(4)
H4_2 H 0.947191 0.717847 0.402980
N5_2 N 0.29608(19) 0.7261(6) 0.0504(3)
C21_2 C 0.2996(2) 0.6763(5) 0.1182(4)
H17_2 H 0.302637 0.601810 0.120483
C22_2 C 0.2987(2) 0.7355(6) 0.1827(3)
H18_2 H 0.301074 0.701465 0.229095
C23_2 C 0.2942(2) 0.8444(6) 0.1794(4)
C24_2 C 0.2907(2) 0.8942(5) 0.1116(5)
H19_2 H 0.287672 0.968691 0.109356
C25_2 C 0.2916(2) 0.8350(6) 0.0471(4)
H20_2 H 0.289235 0.869036 0.000743
C43_2 C 0.2927(2) 0.9074(6) 0.2513(4)
C44_2 C 0.2825(2) 0.8597(5) 0.3162(5)
H35_2 H 0.276634 0.787010 0.316407
C45_2 C 0.2809(2) 0.9183(6) 0.3809(4)
H36_2 H 0.273923 0.885734 0.425313
N10_2 N 0.9609(2) 0.6286(7) 0.0134(4)
C46_2 C 0.9667(2) 0.5682(5) 0.0760(5)
H37_2 H 0.971770 0.495156 0.071514
C47_2 C 0.9652(2) 0.6149(7) 0.1453(4)
H38_2 H 0.969217 0.573640 0.188140
C48_2 C 0.9579(2) 0.7218(7) 0.1520(4)
C49_2 C 0.9520(2) 0.7821(5) 0.0893(5)
H39_2 H 0.947016 0.855200 0.093848
C50_2 C 0.9536(2) 0.7355(6) 0.0200(4)
C64_2 C 0.44101(17) 0.4211(8) 0.0587(5)
H50_2 H 0.458448 0.387440 0.083193
C65_2 C 0.4104(2) 0.4200(8) 0.0899(4)
C66_2 C 0.38491(16) 0.4693(8) 0.0540(5)
H51_2 H 0.364008 0.468561 0.075298
C71_2 C 0.73023(15) 0.2661(7) 0.0294(6)
H52_2 H 0.710329 0.233164 0.041493
C72_2 C 0.7591(2) 0.2175(6) 0.0483(6)
C73_2 C 0.78825(15) 0.2656(7) 0.0306(6)
H53_2 H 0.808000 0.232397 0.043508
O27_2 O 0.2516(3) 0.4850(9) 0.0311(7)
O29_2 O 0.6133(2) 0.2900(8) 0.0540(6)
O31_2 O 0.5554(2) 0.2910(8) 0.0360(6)
N14_2 N 0.8793(2) 0.5468(6) 0.0573(3)
N15_2 N 0.6308(2) 0.5272(6) 0.0658(3)
N17_2 N 0.5423(2) 0.5500(6) 0.0519(4)
N18_2 N 0.2103(2) 0.6995(6) 0.0622(4)
H58_2 H 0.37229 0.362552 0.253565
H59_2 H 0.918472 0.270914 0.00235213
H60_2 H 0.94193 0.371048 0.018145
Cu1_2 Cu 0.95962(4) 0.54885(14) 0.91705(10)
Cu2_2 Cu 0.88323(3) 0.45377(12) 0.96712(8)
Cu3_2 Cu 0.63104(3) 0.43410(14) 0.97733(9)
Cu4_2 Cu 0.54523(3) 0.44341(13) 0.96764(9)
Cu6_2 Cu 0.29492(4) 0.64058(16) 0.95859(9)
O4_2 O 0.4998(2) 0.4095(8) 0.9843(6)
O5_2 O 0.9673(3) 0.6929(11) 0.8425(7)
O7_2 O 0.8206(2) 0.4937(9) 0.9335(6)
O8_2 O 0.5884(2) 0.4841(8) 0.9516(5)
O14_2 O 0.3372(2) 0.5825(9) 0.9883(6)
O16_2 O 0.4859(3) 0.5455(10) 0.9135(8)
O17_2 O 0.9128(2) 0.5519(8) 0.9184(6)
O18_2 O 0.3657(3) 0.6155(11) 0.8883(7)
O20_2 O 0.6999(3) 0.4925(10) 0.9311(8)
O21_2 O 0.2507(2) 0.6823(8) 0.9389(5)
N2_2 N 0.9596(2) 0.4430(6) 0.8321(4)
C6_2 C 0.9509(2) 0.4703(6) 0.7606(5)
H5_2 H 0.944963 0.541209 0.749496
C7_2 C 0.9508(2) 0.3940(7) 0.7055(4)
H6_2 H 0.944812 0.412635 0.656689
C8_2 C 0.9594(2) 0.2903(6) 0.7218(4)
C9_2 C 0.9682(2) 0.2629(5) 0.7933(5)
H7_2 H 0.974077 0.192068 0.804412
C10_2 C 0.9683(2) 0.3393(7) 0.8484(4)
H8_2 H 0.974228 0.320641 0.897220
N3_2 N 0.6207(2) 0.0468(6) 0.5573(3)
C12_2 C 0.6232(2) 0.0583(6) 0.6896(3)
H10_2 H 0.623088 0.024805 0.736462
C13_2 C 0.6260(2) 0.1677(6) 0.6847(3)
C14_2 C 0.6261(2) 0.2167(4) 0.6161(4)
H11_2 H 0.628042 0.291483 0.612813
C15_2 C 0.6235(2) 0.1562(6) 0.5524(3)
H12_2 H 0.623586 0.189705 0.505581
N4_2 N 0.6332(2) 0.3526(6) 0.8821(3)
C16_2 C 0.6262(2) 0.4032(5) 0.8160(4)
H13_2 H 0.622995 0.477691 0.815057
C17_2 C 0.6240(2) 0.3450(6) 0.7512(3)
H14_2 H 0.619239 0.379619 0.706028
C18_2 C 0.6287(2) 0.2361(6) 0.7525(3)
C19_2 C 0.6356(2) 0.1854(5) 0.8186(4)
H15_2 H 0.638855 0.110924 0.819534
C20_2 C 0.6379(2) 0.2436(6) 0.8834(3)
H16_2 H 0.642611 0.208995 0.928564
N6_2 N 0.8816(2) 0.3563(6) 0.8789(3)
C26_2 C 0.8717(2) 0.3985(5) 0.8118(4)
H21_2 H 0.867287 0.472071 0.807752
C27_2 C 0.8683(2) 0.3330(6) 0.7508(3)
H22_2 H 0.861565 0.361856 0.704966
C28_2 C 0.8748(2) 0.2254(6) 0.7568(4)
C29_2 C 0.8846(2) 0.1832(5) 0.8238(4)
H23_2 H 0.889042 0.109680 0.827911
C30_2 C 0.8880(2) 0.2487(6) 0.8849(3)
H24_2 H 0.894765 0.219893 0.930699
N7_2 N 0.8692(2) 0.0272(6) 0.5658(3)
C32_2 C 0.8668(2) 0.0470(7) 0.6976(3)
H26_2 H 0.863774 0.017009 0.745100
C33_2 C 0.8731(2) 0.1546(6) 0.6904(4)
C34_2 C 0.8775(2) 0.1985(5) 0.6209(4)
H27_2 H 0.881770 0.271992 0.615952
C35_2 C 0.8755(2) 0.1348(6) 0.5586(3)
H28_2 H 0.878514 0.164786 0.511082
N8_2 N 0.2949(2) 0.5419(6) 0.8721(4)
C36_2 C 0.2864(2) 0.5819(5) 0.8034(4)
H29_2 H 0.281298 0.654785 0.798088
C37_2 C 0.2854(2) 0.5152(7) 0.7426(4)
H30_2 H 0.279587 0.542467 0.695647
C38_2 C 0.2929(2) 0.4085(7) 0.7504(4)
C39_2 C 0.3013(2) 0.3685(5) 0.8190(5)
H31_2 H 0.306441 0.295585 0.824380
C40_2 C 0.3024(2) 0.4352(7) 0.8799(4)
H32_2 H 0.308153 0.407902 0.926823
H40_2 H 0.949569 0.776717 0.977221
N11_2 N 0.9577(2) 0.0500(6) 0.5519(4)
C51_2 C 0.9540(2) 0.0201(5) 0.6251(5)
C52_2 C 0.9543(2) 0.0963(7) 0.6803(3)
H42_2 H 0.951730 0.075855 0.730321
C53_2 C 0.9584(2) 0.2024(6) 0.6623(4)
C54_2 C 0.9622(2) 0.2323(5) 0.5891(5)
H43_2 H 0.965038 0.304809 0.576874
C55_2 C 0.9619(2) 0.1561(7) 0.5339(4)
H44_2 H 0.964459 0.176496 0.483900
C56_2 C 0.2931(2) 0.3752(5) 0.6129(5)
H45_2 H 0.294834 0.449538 0.606096
C57_2 C 0.2922(2) 0.3082(6) 0.5522(3)
H46_2 H 0.293257 0.336837 0.503847
N12_2 N 0.2897(2) 0.1995(6) 0.5622(4)
C58_2 C 0.2881(2) 0.1576(5) 0.6329(4)
H47_2 H 0.286372 0.083256 0.639750
C59_2 C 0.2890(2) 0.2246(7) 0.6937(3)
H48_2 H 0.287949 0.195956 0.741999
C60_2 C 0.2915(2) 0.3333(6) 0.6837(4)
C61_2 C 0.4797(3) 0.4786(11) 0.9605(8)
C62_2 C 0.42058(19) 0.5207(8) 0.9557(4)
H49_2 H 0.424056 0.555093 0.909804
C63_2 C 0.44609(15) 0.4714(8) 0.9916(5)
C67_2 C 0.38999(16) 0.5196(8) 0.9869(5)
C68_2 C 0.6987(3) 0.4157(12) 0.9762(9)
C69_2 C 0.8200(3) 0.4154(11) 0.9751(9)
C70_2 C 0.73044(15) 0.3628(7) 0.9930(5)
C74_2 C 0.78846(15) 0.3624(7) 0.9942(5)
C75_2 C 0.75956(19) 0.4110(6) 0.9753(5)
H54_2 H 0.759706 0.477105 0.950394
C84_2 C 0.3622(4) 0.5776(13) 0.9530(9)
N13_2 N 0.5440(2) 0.3682(6) 0.8676(3)
N16_2 N 0.2105(2) 0.5247(6) 0.8807(4)
H61_2 H 0.95767 0.756486 0.865956
H62_2 H 0.990748 0.704468 0.83509
C11_2 C 0.6205(2) 0.9978(5) 0.6259(4)
H9_2 H 0.618632 0.923024 0.629231
C31_2 C 0.8648(2) 0.9833(5) 0.6353(4)
H25_2 H 0.860517 0.909801 0.640231
H41_2 H 0.951150 0.947541 0.637348
Cu7_2 Cu 0.61677(3) 0.95377(12) 0.46712(8)
Cu6_3 Cu 0.20508(4) 0.14058(16) 0.45859(9)
O14_3 O 0.1628(2) 0.0825(9) 0.4883(6)
O16_3 O 0.0141(3) 0.0455(10) 0.4135(8)
O18_3 O 0.1343(3) 0.1155(11) 0.3883(7)
O21_3 O 0.2493(2) 0.1823(8) 0.4389(5)
N5_3 N 0.20392(19) 0.2261(6) 0.5504(3)
C21_3 C 0.2004(2) 0.1763(5) 0.6182(4)
H17_3 H 0.197363 0.101810 0.620483
C22_3 C 0.2013(2) 0.2355(6) 0.6827(3)
H18_3 H 0.198926 0.201465 0.729095
C23_3 C 0.2058(2) 0.3444(6) 0.6794(4)
C24_3 C 0.2093(2) 0.3942(5) 0.6116(5)
H19_3 H 0.212328 0.468691 0.609356
C25_3 C 0.2084(2) 0.3350(6) 0.5471(4)
H20_3 H 0.210765 0.369036 0.500743
N8_3 N 0.2051(2) 0.0419(6) 0.3721(4)
C36_3 C 0.2136(2) 0.0819(5) 0.3034(4)
H29_3 H 0.218702 0.154785 0.298088
C37_3 C 0.2146(2) 0.0152(7) 0.2426(4)
H30_3 H 0.220413 0.042467 0.195647
C41_3 C 0.2003(2) 0.5724(5) 0.8157(4)
H33_3 H 0.194419 0.645103 0.815573
C42_3 C 0.1987(2) 0.5138(6) 0.7511(4)
H34_3 H 0.191709 0.546378 0.706668
C43_3 C 0.2073(2) 0.4074(6) 0.7513(4)
C44_3 C 0.2175(2) 0.3597(5) 0.8162(5)
H35_3 H 0.223366 0.287010 0.816407
C45_3 C 0.2191(2) 0.4183(6) 0.8809(4)
H36_3 H 0.226077 0.385734 0.925313
C62_3 C 0.07942(19) 0.0207(8) 0.4557(4)
H49_3 H 0.075944 0.055093 0.409804
C67_3 C 0.11001(16) 0.0196(8) 0.4869(5)
C84_3 C 0.1378(4) 0.0776(13) 0.4530(9)
O28_2 O 0.3269(2) 0.0353(8) 0.5061(5)
O30_2 O 0.3485(2) 0.1688(8) 0.4426(6)
S2_3 S 0.09563(11) 0.8546(4) 0.6738(2)
O4_3 O 0.0002(2) 0.9095(8) 0.4843(6)
O9_3 O 0.0997(4) 0.7461(11) 0.6574(9)
O11_3 O 0.0668(4) 0.8732(15) 0.7190(8)
O22_3 O 0.1229(4) 0.8999(13) 0.7067(8)
C38_3 C 0.2071(2) 0.9085(7) 0.2504(4)
C39_3 C 0.1987(2) 0.8685(5) 0.3190(5)
H31_3 H 0.193559 0.795585 0.324380
C40_3 C 0.1976(2) 0.9352(7) 0.3799(4)
H32_3 H 0.191847 0.907902 0.426823
C56_3 C 0.2069(2) 0.8752(5) 0.1129(5)
H45_3 H 0.205166 0.949538 0.106096
C57_3 C 0.2078(2) 0.8082(6) 0.0522(3)
H46_3 H 0.206743 0.836837 0.003847
C58_3 C 0.2119(2) 0.6576(5) 0.1329(4)
H47_3 H 0.213628 0.583256 0.139750
C59_3 C 0.2110(2) 0.7246(7) 0.1937(3)
H48_3 H 0.212051 0.695956 0.241999
C60_3 C 0.2085(2) 0.8333(6) 0.1837(4)
C61_3 C 0.0203(3) 0.9786(11) 0.4605(8)
C63_3 C 0.05391(15) 0.9714(8) 0.4916(5)
C64_3 C 0.05899(17) 0.9211(8) 0.5587(5)
H50_3 H 0.041552 0.887440 0.583193
C65_3 C 0.0896(2) 0.9200(8) 0.5899(4)
C66_3 C 0.11509(16) 0.9693(8) 0.5540(5)
H51_3 H 0.135992 0.968561 0.575298
H58_3 H 0.12771 0.862552 0.753565
Cu1_3 Cu 0.54038(4) 0.04885(14) 0.41705(10)
O5_3 O 0.5327(3) 0.1929(11) 0.3425(7)
O17_3 O 0.5872(2) 0.0519(8) 0.4184(6)
O19_3 O 0.4955(2) 0.0162(8) 0.4331(5)
O23_3 O 0.4706(3) 0.1663(10) 0.4047(7)
C1_3 C 0.5386(2) 0.4299(5) 0.8054(4)
H1_3 H 0.535106 0.503888 0.810255
C2_3 C 0.5383(2) 0.3833(6) 0.7360(4)
H2_3 H 0.534665 0.425422 0.693482
C3_3 C 0.5435(2) 0.2750(7) 0.7289(3)
C4_3 C 0.5489(2) 0.2134(5) 0.7911(4)
H3_3 H 0.552368 0.139383 0.786205
C5_3 C 0.5491(2) 0.2600(6) 0.8605(4)
H4_3 H 0.552809 0.217847 0.902980
H5_3 H 0.555037 0.041209 0.249496
N10_3 N 0.5391(2) 0.1286(7) 0.5134(4)
C46_3 C 0.5333(2) 0.0682(5) 0.5760(5)
C47_3 C 0.5348(2) 0.1149(7) 0.6453(4)
H38_3 H 0.530783 0.073640 0.688140
C48_3 C 0.5421(2) 0.2218(7) 0.6520(4)
C49_3 C 0.5480(2) 0.2821(5) 0.5893(5)
H39_3 H 0.552984 0.355200 0.593848
C50_3 C 0.5464(2) 0.2355(6) 0.5200(4)
H40_3 H 0.550431 0.276717 0.477221
C76_3 C 0.3508(3) 0.0836(11) 0.4799(8)
C77_3 C 0.44032(15) 0.0278(6) 0.4651(5)
C81_3 C 0.38340(14) 0.0341(6) 0.4904(5)
C82_3 C 0.41080(18) 0.0791(5) 0.4595(5)
H57_3 H 0.409342 0.144983 0.434408
C83_3 C 0.4712(3) 0.0758(12) 0.4331(8)
H61_3 H 0.54233 0.256486 0.365956
H62_3 H 0.509252 0.204468 0.33509
S1_3 S 0.41735(8) 0.7575(3) 0.57034(19)
S3_3 S 0.74102(10) 0.5885(3) 0.5866(2)
O1_3 O 0.8257(2) 0.8802(8) 0.5021(5)
O3_3 O 0.7663(4) 0.5884(12) 0.6398(9)
O7_3 O 0.6794(2) 0.9937(9) 0.4335(6)
O8_3 O 0.9116(2) 0.9841(8) 0.4516(5)
O12_3 O 0.6540(2) 0.8734(8) 0.5052(5)
O13_3 O 0.5802(2) 0.8426(8) 0.5246(6)
O20_3 O 0.8001(3) 0.9925(10) 0.4311(8)
O24_3 O 0.7109(4) 0.5717(11) 0.6272(9)
O25_3 O 0.4226(3) 0.7755(11) 0.6474(6)
N2_3 N 0.5404(2) 0.9430(6) 0.3321(4)
C6_3 C 0.5491(2) 0.9703(6) 0.2606(5)
C7_3 C 0.5492(2) 0.8940(7) 0.2055(4)
H6_3 H 0.555188 0.912635 0.156689
C8_3 C 0.5406(2) 0.7903(6) 0.2218(4)
C9_3 C 0.5318(2) 0.7629(5) 0.2933(5)
H7_3 H 0.525923 0.692068 0.304412
C10_3 C 0.5317(2) 0.8393(7) 0.3484(4)
H8_3 H 0.525772 0.820641 0.397220
C11_3 C 0.8795(2) 0.4978(5) 0.1259(4)
H9_3 H 0.881368 0.423024 0.129231
C12_3 C 0.8768(2) 0.5583(6) 0.1896(3)
H10_3 H 0.876912 0.524805 0.236462
C13_3 C 0.8740(2) 0.6677(6) 0.1847(3)
C14_3 C 0.8739(2) 0.7167(4) 0.1161(4)
H11_3 H 0.871958 0.791483 0.112813
C15_3 C 0.8765(2) 0.6562(6) 0.0524(3)
H12_3 H 0.876414 0.689705 0.005581
N4_3 N 0.8668(2) 0.8526(6) 0.3821(3)
C16_3 C 0.8738(2) 0.9032(5) 0.3160(4)
H13_3 H 0.877005 0.977691 0.315057
C17_3 C 0.8760(2) 0.8450(6) 0.2512(3)
H14_3 H 0.880761 0.879619 0.206028
C18_3 C 0.8713(2) 0.7361(6) 0.2525(3)
C19_3 C 0.8644(2) 0.6854(5) 0.3186(4)
H15_3 H 0.861145 0.610924 0.319534
C20_3 C 0.8621(2) 0.7436(6) 0.3834(3)
H16_3 H 0.857389 0.708995 0.428564
N6_3 N 0.6184(2) 0.8563(6) 0.3789(3)
C26_3 C 0.6283(2) 0.8985(5) 0.3118(4)
H21_3 H 0.632713 0.972071 0.307752
C27_3 C 0.6317(2) 0.8330(6) 0.2508(3)
H22_3 H 0.638435 0.861856 0.204966
C28_3 C 0.6252(2) 0.7254(6) 0.2568(4)
C29_3 C 0.6154(2) 0.6832(5) 0.3238(4)
H23_3 H 0.610958 0.609680 0.327911
C30_3 C 0.6120(2) 0.7487(6) 0.3849(3)
H24_3 H 0.605235 0.719893 0.430699
C31_3 C 0.6352(2) 0.4833(5) 0.1353(4)
H25_3 H 0.639483 0.409801 0.140231
C32_3 C 0.6332(2) 0.5470(7) 0.1976(3)
H26_3 H 0.636226 0.517009 0.245100
C33_3 C 0.6269(2) 0.6546(6) 0.1904(4)
C34_3 C 0.6225(2) 0.6985(5) 0.1209(4)
H27_3 H 0.618230 0.771992 0.115952
C35_3 C 0.6245(2) 0.6348(6) 0.0586(3)
H28_3 H 0.621486 0.664786 0.011082
H37_3 H 0.528230 0.995156 0.571514
C51_3 C 0.5460(2) 0.5201(5) 0.1251(5)
H41_3 H 0.548850 0.447541 0.137348
C52_3 C 0.5457(2) 0.5963(7) 0.1803(3)
H42_3 H 0.548270 0.575855 0.230321
C53_3 C 0.5416(2) 0.7024(6) 0.1623(4)
C54_3 C 0.5378(2) 0.7323(5) 0.0891(5)
H43_3 H 0.534962 0.804809 0.076874
C55_3 C 0.5381(2) 0.6561(7) 0.0339(4)
C68_3 C 0.8013(3) 0.9157(12) 0.4762(9)
C69_3 C 0.6800(3) 0.9154(11) 0.4751(9)
C70_3 C 0.76956(15) 0.8628(7) 0.4930(5)
C71_3 C 0.76977(15) 0.7661(7) 0.5294(6)
H52_3 H 0.789671 0.733164 0.541493
C72_3 C 0.7409(2) 0.7175(6) 0.5483(6)
C73_3 C 0.71175(15) 0.7656(7) 0.5306(6)
H53_3 H 0.692000 0.732397 0.543508
C74_3 C 0.71154(15) 0.8624(7) 0.4942(5)
C75_3 C 0.74044(19) 0.9110(6) 0.4753(5)
H54_3 H 0.740294 0.977105 0.450394
C78_3 C 0.44245(14) 0.9314(6) 0.5018(5)
H55_3 H 0.462629 0.896329 0.505668
C79_3 C 0.41505(18) 0.8864(5) 0.5328(5)
C80_3 C 0.38552(15) 0.9377(6) 0.5271(5)
H56_3 H 0.366799 0.906941 0.548243
H59_3 H 0.581528 0.770914 0.502352
H60_3 H 0.55807 0.871048 0.518145
H44_3 H 0.535541 0.676496 0.983900
S1_4 S 0.58265(8) 0.2425(3) 0.07034(19)
S3_4 S 0.25898(10) 0.4115(3) 0.0866(2)
O1_4 O 0.1743(2) 0.1198(8) 0.0021(5)
O3_4 O 0.2337(4) 0.4116(12) 0.1398(9)
O12_4 O 0.3460(2) 0.1266(8) 0.0052(5)
O13_4 O 0.4198(2) 0.1574(8) 0.0246(6)
O24_4 O 0.2891(4) 0.4283(11) 0.1272(9)
O25_4 O 0.5774(3) 0.2245(11) 0.1474(6)
H37_4 H 0.471770 0.004844 0.071514
C71_4 C 0.23023(15) 0.2339(7) 0.0294(6)
H52_4 H 0.210329 0.266836 0.041493
C72_4 C 0.2591(2) 0.2825(6) 0.0483(6)
C73_4 C 0.28825(15) 0.2344(7) 0.0306(6)
H53_4 H 0.308000 0.267603 0.043508
C78_4 C 0.55755(14) 0.0686(6) 0.0018(5)
H55_4 H 0.537371 0.103671 0.005668
C79_4 C 0.58495(18) 0.1136(5) 0.0328(5)
C80_4 C 0.61448(15) 0.0623(6) 0.0271(5)
H56_4 H 0.633201 0.093059 0.048243
H59_4 H 0.418472 0.229086 0.00235213
H60_4 H 0.44193 0.128952 0.018145
O7_4 O 0.3206(2) 0.0063(9) 0.9335(6)
O8_4 O 0.0884(2) 0.0159(8) 0.9516(5)
O20_4 O 0.1999(3) 0.0075(10) 0.9311(8)
N2_4 N 0.4596(2) 0.0570(6) 0.8321(4)
C6_4 C 0.4509(2) 0.0297(6) 0.7606(5)
C7_4 C 0.4508(2) 0.1060(7) 0.7055(4)
H6_4 H 0.444812 0.087365 0.656689
C8_4 C 0.4594(2) 0.2097(6) 0.7218(4)
C9_4 C 0.4682(2) 0.2371(5) 0.7933(5)
H7_4 H 0.474077 0.307932 0.804412
C10_4 C 0.4683(2) 0.1607(7) 0.8484(4)
H8_4 H 0.474228 0.179359 0.897220
C11_4 C 0.1205(2) 0.5022(5) 0.6259(4)
H9_4 H 0.118632 0.576976 0.629231
C12_4 C 0.1232(2) 0.4417(6) 0.6896(3)
H10_4 H 0.123088 0.475195 0.736462
C13_4 C 0.1260(2) 0.3323(6) 0.6847(3)
C14_4 C 0.1261(2) 0.2833(4) 0.6161(4)
H11_4 H 0.128042 0.208517 0.612813
C15_4 C 0.1235(2) 0.3438(6) 0.5524(3)
H12_4 H 0.123586 0.310295 0.505581
N4_4 N 0.1332(2) 0.1474(6) 0.8821(3)
C16_4 C 0.1262(2) 0.0968(5) 0.8160(4)
H13_4 H 0.122995 0.022309 0.815057
C17_4 C 0.1240(2) 0.1550(6) 0.7512(3)
H14_4 H 0.119239 0.120381 0.706028
C18_4 C 0.1287(2) 0.2639(6) 0.7525(3)
C19_4 C 0.1356(2) 0.3146(5) 0.8186(4)
H15_4 H 0.138855 0.389076 0.819534
C20_4 C 0.1379(2) 0.2564(6) 0.8834(3)
H16_4 H 0.142611 0.291005 0.928564
N6_4 N 0.3816(2) 0.1437(6) 0.8789(3)
C26_4 C 0.3717(2) 0.1015(5) 0.8118(4)
H21_4 H 0.367287 0.027929 0.807752
C27_4 C 0.3683(2) 0.1670(6) 0.7508(3)
H22_4 H 0.361565 0.138144 0.704966
C28_4 C 0.3748(2) 0.2746(6) 0.7568(4)
C29_4 C 0.3846(2) 0.3168(5) 0.8238(4)
H23_4 H 0.389042 0.390320 0.827911
C30_4 C 0.3880(2) 0.2513(6) 0.8849(3)
H24_4 H 0.394765 0.280107 0.930699
C31_4 C 0.3648(2) 0.5167(5) 0.6353(4)
H25_4 H 0.360517 0.590199 0.640231
C32_4 C 0.3668(2) 0.4530(7) 0.6976(3)
H26_4 H 0.363774 0.482991 0.745100
C33_4 C 0.3731(2) 0.3454(6) 0.6904(4)
C34_4 C 0.3775(2) 0.3015(5) 0.6209(4)
H27_4 H 0.381770 0.228008 0.615952
C35_4 C 0.3755(2) 0.3652(6) 0.5586(3)
H28_4 H 0.378514 0.335214 0.511082
C51_4 C 0.4540(2) 0.4799(5) 0.6251(5)
H41_4 H 0.451150 0.552459 0.637348
C52_4 C 0.4543(2) 0.4037(7) 0.6803(3)
H42_4 H 0.451730 0.424145 0.730321
C53_4 C 0.4584(2) 0.2976(6) 0.6623(4)
C54_4 C 0.4622(2) 0.2677(5) 0.5891(5)
H43_4 H 0.465038 0.195191 0.576874
C55_4 C 0.4619(2) 0.3439(7) 0.5339(4)
H44_4 H 0.464459 0.323504 0.483900
C68_4 C 0.1987(3) 0.0843(12) 0.9762(9)
C69_4 C 0.3200(3) 0.0846(11) 0.9751(9)
C70_4 C 0.23044(15) 0.1372(7) 0.9930(5)
C74_4 C 0.28846(15) 0.1376(7) 0.9942(5)
C75_4 C 0.25956(19) 0.0890(6) 0.9753(5)
H54_4 H 0.259706 0.022895 0.950394
O6_2 O 0.6731(2) 0.9647(8) 0.0061(5)
C1_4 C 0.4614(2) 0.5701(5) 0.3054(4)
H1_4 H 0.464894 0.496112 0.310255
C2_4 C 0.4617(2) 0.6167(6) 0.2360(4)
H2_4 H 0.465335 0.574578 0.193482
C3_4 C 0.4565(2) 0.7250(7) 0.2289(3)
C4_4 C 0.4511(2) 0.7866(5) 0.2911(4)
H3_4 H 0.447632 0.860617 0.286205
C5_4 C 0.4509(2) 0.7400(6) 0.3605(4)
H4_4 H 0.447191 0.782153 0.402980
N10_4 N 0.4609(2) 0.8714(7) 0.0134(4)
C46_4 C 0.4667(2) 0.9318(5) 0.0760(5)
C47_4 C 0.4652(2) 0.8851(7) 0.1453(4)
H38_4 H 0.469217 0.926360 0.188140
C48_4 C 0.4579(2) 0.7782(7) 0.1520(4)
C49_4 C 0.4520(2) 0.7179(5) 0.0893(5)
H39_4 H 0.447016 0.644800 0.093848
C50_4 C 0.4536(2) 0.7645(6) 0.0200(4)
Cu1_4 Cu 0.45962(4) 0.95115(14) 0.91705(10)
O5_4 O 0.4673(3) 0.8071(11) 0.8425(7)
O15_2 O 0.6515(2) 0.8312(8) 0.9426(6)
O17_4 O 0.4128(2) 0.9481(8) 0.9184(6)
O19_4 O 0.5045(2) 0.9838(8) 0.9331(5)
O23_4 O 0.5294(3) 0.8337(10) 0.9047(7)
H5_4 H 0.444963 0.958791 0.749496
H40_4 H 0.449569 0.723283 0.977221
C76_4 C 0.6492(3) 0.9164(11) 0.9799(8)
C77_4 C 0.55968(15) 0.9722(6) 0.9651(5)
C81_4 C 0.61660(14) 0.9659(6) 0.9904(5)
C82_4 C 0.58920(18) 0.9209(5) 0.9595(5)
H57_4 H 0.590658 0.855017 0.934408
C83_4 C 0.5288(3) 0.9242(12) 0.9331(8)
H61_4 H 0.45767 0.743514 0.865956
H62_4 H 0.490748 0.795532 0.83509
S2_4 S 0.90437(11) 0.1454(4) 0.1738(2)
O9_4 O 0.9003(4) 0.2539(11) 0.1574(9)
O11_4 O 0.9332(4) 0.1268(15) 0.2190(8)
O22_4 O 0.8771(4) 0.1001(13) 0.2067(8)
C64_4 C 0.94101(17) 0.0789(8) 0.0587(5)
H50_4 H 0.958448 0.112560 0.083193
C65_4 C 0.9104(2) 0.0800(8) 0.0899(4)
C66_4 C 0.88491(16) 0.0307(8) 0.0540(5)
H51_4 H 0.864008 0.031439 0.075298
H58_4 H 0.87229 0.137448 0.253565
O4_4 O 0.9998(2) 0.0905(8) 0.9843(6)
C38_4 C 0.7929(2) 0.0915(7) 0.7504(4)
C39_4 C 0.8013(2) 0.1315(5) 0.8190(5)
H31_4 H 0.806441 0.204415 0.824380
C40_4 C 0.8024(2) 0.0648(7) 0.8799(4)
H32_4 H 0.808153 0.092098 0.926823
C56_4 C 0.7931(2) 0.1248(5) 0.6129(5)
H45_4 H 0.794834 0.050462 0.606096
C57_4 C 0.7922(2) 0.1918(6) 0.5522(3)
H46_4 H 0.793257 0.163163 0.503847
C58_4 C 0.7881(2) 0.3424(5) 0.6329(4)
H47_4 H 0.786372 0.416744 0.639750
C59_4 C 0.7890(2) 0.2754(7) 0.6937(3)
H48_4 H 0.787949 0.304044 0.741999
C60_4 C 0.7915(2) 0.1667(6) 0.6837(4)
C61_4 C 0.9797(3) 0.0214(11) 0.9605(8)
C63_4 C 0.94609(15) 0.0286(8) 0.9916(5)
N5_4 N 0.79608(19) 0.7739(6) 0.0504(3)
C21_4 C 0.7996(2) 0.8237(5) 0.1182(4)
H17_4 H 0.802637 0.898190 0.120483
C22_4 C 0.7987(2) 0.7645(6) 0.1827(3)
H18_4 H 0.801074 0.798535 0.229095
C23_4 C 0.7942(2) 0.6556(6) 0.1794(4)
C24_4 C 0.7907(2) 0.6058(5) 0.1116(5)
H19_4 H 0.787672 0.531309 0.109356
C25_4 C 0.7916(2) 0.6650(6) 0.0471(4)
H20_4 H 0.789235 0.630964 0.000743
C41_4 C 0.7997(2) 0.4276(5) 0.3157(4)
H33_4 H 0.805581 0.354897 0.315573
C42_4 C 0.8013(2) 0.4862(6) 0.2511(4)
H34_4 H 0.808291 0.453622 0.206668
C43_4 C 0.7927(2) 0.5926(6) 0.2513(4)
C44_4 C 0.7825(2) 0.6403(5) 0.3162(5)
H35_4 H 0.776634 0.712990 0.316407
C45_4 C 0.7809(2) 0.5817(6) 0.3809(4)
H36_4 H 0.773923 0.614266 0.425313
Cu6_4 Cu 0.79492(4) 0.85942(16) 0.95859(9)
O14_4 O 0.8372(2) 0.9175(9) 0.9883(6)
O16_4 O 0.9859(3) 0.9545(10) 0.9135(8)
O18_4 O 0.8657(3) 0.8845(11) 0.8883(7)
O21_4 O 0.7507(2) 0.8177(8) 0.9389(5)
N8_4 N 0.7949(2) 0.9581(6) 0.8721(4)
C36_4 C 0.7864(2) 0.9181(5) 0.8034(4)
H29_4 H 0.781298 0.845215 0.798088
C37_4 C 0.7854(2) 0.9848(7) 0.7426(4)
H30_4 H 0.779587 0.957533 0.695647
C62_4 C 0.92058(19) 0.9793(8) 0.9557(4)
H49_4 H 0.924056 0.944907 0.909804
C67_4 C 0.88999(16) 0.9804(8) 0.9869(5)
C84_4 C 0.8622(4) 0.9224(13) 0.9530(9)
loop_
_geom_bond_atom_site_label_1
_geom_bond_atom_site_label_2
_geom_bond_site_symmetry_1
_geom_bond_site_symmetry_2
C11 H9 1_555 1_555
C31 H25 1_555 1_555
Cu1 O5 1_555 1_555
Cu2 O7 1_555 1_555
Cu3 O1 1_555 1_555
Cu4 O4 1_555 1_555
Cu5 O21 1_555 1_555
Cu6 O14 1_555 1_555
S2 O9 1_555 1_555
S3 O2 1_555 1_555
O1 C68 1_555 1_555
O3 S3 1_555 1_555
O4 C61 1_555 1_555
O7 C69 1_555 1_555
O8 Cu3 1_555 1_555
O11 S2 1_555 1_555
O12 Cu2 1_555 1_555
O13 Cu2 1_555 1_555
O14 C84 1_555 1_555
O16 C61 1_555 1_555
O17 Cu1 1_555 1_555
O18 C84 1_555 1_555
O20 C68 1_555 1_555
O21 Cu6 1_555 1_555
O22 S2 1_555 1_555
O24 S3 1_555 1_555
N1 C1 1_555 1_555
C2 C1 1_555 1_555
H2 C2 1_555 1_555
C3 C2 1_555 1_555
C4 C3 1_555 1_555
H3 C4 1_555 1_555
C5 N1 1_555 1_555
H4 C5 1_555 1_555
N2 Cu1 1_555 1_555
C6 N2 1_555 1_555
H5 C6 1_555 1_555
C7 C6 1_555 1_555
H6 C7 1_555 1_555
C8 C7 1_555 1_555
C9 C8 1_555 1_555
H7 C9 1_555 1_555
C10 N2 1_555 1_555
H8 C10 1_555 1_555
H10 C12 1_555 1_555
C13 C12 1_555 1_555
C14 C13 1_555 1_555
H11 C14 1_555 1_555
C15 N3 1_555 1_555
H12 C15 1_555 1_555
N4 Cu3 1_555 1_555
C16 N4 1_555 1_555
H13 C16 1_555 1_555
C17 C16 1_555 1_555
H14 C17 1_555 1_555
C18 C13 1_555 1_555
C19 C18 1_555 1_555
H15 C19 1_555 1_555
C20 N4 1_555 1_555
H16 C20 1_555 1_555
N5 Cu6 1_555 1_555
C21 N5 1_555 1_555
H17 C21 1_555 1_555
C22 C21 1_555 1_555
H18 C22 1_555 1_555
C23 C22 1_555 1_555
C24 C23 1_555 1_555
H19 C24 1_555 1_555
C25 N5 1_555 1_555
H20 C25 1_555 1_555
N6 Cu2 1_555 1_555
C26 N6 1_555 1_555
H21 C26 1_555 1_555
C27 C26 1_555 1_555
H22 C27 1_555 1_555
C28 C27 1_555 1_555
C29 C28 1_555 1_555
H23 C29 1_555 1_555
C30 N6 1_555 1_555
H24 C30 1_555 1_555
H26 C32 1_555 1_555
C33 C28 1_555 1_555
C34 C33 1_555 1_555
H27 C34 1_555 1_555
C35 N7 1_555 1_555
H28 C35 1_555 1_555
N8 Cu6 1_555 1_555
C36 N8 1_555 1_555
H29 C36 1_555 1_555
C37 C36 1_555 1_555
H30 C37 1_555 1_555
C38 C37 1_555 1_555
C39 C38 1_555 1_555
H31 C39 1_555 1_555
C40 N8 1_555 1_555
H32 C40 1_555 1_555
C43 C23 1_555 1_555
C44 C43 1_555 1_555
H35 C44 1_555 1_555
H36 C45 1_555 1_555
N10 Cu1 1_555 1_555
C46 N10 1_555 1_555
H37 C46 1_555 1_555
C47 C46 1_555 1_555
H38 C47 1_555 1_555
C48 C3 1_555 1_555
C49 C48 1_555 1_555
H39 C49 1_555 1_555
C50 N10 1_555 1_555
H40 C50 1_555 1_555
N11 C51 1_555 1_555
C52 C51 1_555 1_555
H42 C52 1_555 1_555
C53 C8 1_555 1_555
C54 C53 1_555 1_555
H43 C54 1_555 1_555
C55 N11 1_555 1_555
C56 H45 1_555 1_555
C57 C56 1_555 1_555
H46 C57 1_555 1_555
N12 C57 1_555 1_555
C58 N12 1_555 1_555
H47 C58 1_555 1_555
C59 C58 1_555 1_555
H48 C59 1_555 1_555
C60 C38 1_555 1_555
C61 C63 1_555 1_555
C62 H49 1_555 1_555
C63 C62 1_555 1_555
C64 C63 1_555 1_555
H50 C64 1_555 1_555
C65 S2 1_555 1_555
C66 C65 1_555 1_555
H51 C66 1_555 1_555
C67 C62 1_555 1_555
C68 C70 1_555 1_555
C69 O12 1_555 1_555
C70 C71 1_555 1_555
C71 H52 1_555 1_555
C72 S3 1_555 1_555
C73 C72 1_555 1_555
H53 C73 1_555 1_555
C74 C69 1_555 1_555
C75 C70 1_555 1_555
H54 C75 1_555 1_555
C84 C67 1_555 1_555
Cu12 N1 1_555 1_555
O27 Cu5 1_555 1_555
O28 Cu5 1_555 1_555
O29 Cu3 1_555 1_555
O30 Cu5 1_555 1_555
O31 Cu4 1_555 1_555
N13 Cu4 1_555 1_555
N14 Cu2 1_555 1_555
N15 Cu3 1_555 1_555
N16 Cu5 1_555 1_555
N17 Cu4 1_555 1_555
N18 Cu5 1_555 1_555
Cu2 O17 1_555 1_555
Cu4 O8 1_555 1_555
C4 C5 1_555 1_555
C9 C10 1_555 1_555
C14 C15 1_555 1_555
C17 C18 1_555 1_555
C19 C20 1_555 1_555
C24 C25 1_555 1_555
C29 C30 1_555 1_555
C32 C33 1_555 1_555
C34 C35 1_555 1_555
C39 C40 1_555 1_555
C44 C45 1_555 1_555
C47 C48 1_555 1_555
C49 C50 1_555 1_555
C52 C53 1_555 1_555
C54 C55 1_555 1_555
C56 C60 1_555 1_555
C59 C60 1_555 1_555
C64 C65 1_555 1_555
C66 C67 1_555 1_555
C71 C72 1_555 1_555
C73 C74 1_555 1_555
C74 C75 1_555 1_555
O22 H58 1_555 1_555
O13 H59 1_555 1_555
O13 H60 1_555 1_555
O5 H61 1_555 1_555
O5 H62 1_555 1_555
N9 C41 1_555 1_555
C41 H33 1_555 1_555
C42 C41 1_555 1_555
H34 C42 1_555 1_555
Cu16 N9 1_555 1_555
S1 O10 1_555 1_555
O28 C76 1_555 1_555
O10 Cu8 1_555 1_555
O30 C76 1_555 1_555
O23 C83 1_555 1_555
O25 S1 1_555 1_555
O26 S1 1_555 1_555
C76 C81 1_555 1_555
C77 C78 1_555 1_555
C78 H55 1_555 1_555
C79 S1 1_555 1_555
C80 C79 1_555 1_555
H56 C80 1_555 1_555
C81 C80 1_555 1_555
C82 C77 1_555 1_555
H57 C82 1_555 1_555
C83 O19 1_555 1_555
Cu10 O26 1_555 1_555
C77 C83 1_555 1_555
C78 C79 1_555 1_555
C81 C82 1_555 1_555
S1_2 O10_2 1_555 1_555
O25_2 S1_2 1_555 1_555
O26_2 S1_2 1_555 1_555
C78_2 H55_2 1_555 1_555
C79_2 S1_2 1_555 1_555
C80_2 C79_2 1_555 1_555
H56_2 C80_2 1_555 1_555
C78_2 C79_2 1_555 1_555
O15 C76_2 1_555 1_555
O23_2 C83_2 1_555 1_555
C76_2 C81_2 1_555 1_555
C82_2 C77_2 1_555 1_555
H57_2 C82_2 1_555 1_555
C83_2 O19_2 1_555 1_555
O15 Cu13 1_555 1_555
C77_2 C83_2 1_555 1_555
C81_2 C82_2 1_555 1_555
N9_2 C41_2 1_555 1_555
C41_2 H33_2 1_555 1_555
C42_2 C41_2 1_555 1_555
H34_2 C42_2 1_555 1_555
Cu14 N9_2 1_555 1_555
S2_2 O9_2 1_555 1_555
S3_2 O2_2 1_555 1_555
O3_2 S3_2 1_555 1_555
O11_2 S2_2 1_555 1_555
O22_2 S2_2 1_555 1_555
O24_2 S3_2 1_555 1_555
N1_2 C1_2 1_555 1_555
C2_2 C1_2 1_555 1_555
H2_2 C2_2 1_555 1_555
C3_2 C2_2 1_555 1_555
C4_2 C3_2 1_555 1_555
H3_2 C4_2 1_555 1_555
C5_2 N1_2 1_555 1_555
H4_2 C5_2 1_555 1_555
C21_2 N5_2 1_555 1_555
H17_2 C21_2 1_555 1_555
C22_2 C21_2 1_555 1_555
H18_2 C22_2 1_555 1_555
C23_2 C22_2 1_555 1_555
C24_2 C23_2 1_555 1_555
H19_2 C24_2 1_555 1_555
C25_2 N5_2 1_555 1_555
H20_2 C25_2 1_555 1_555
C43_2 C23_2 1_555 1_555
C44_2 C43_2 1_555 1_555
H35_2 C44_2 1_555 1_555
H36_2 C45_2 1_555 1_555
C46_2 N10_2 1_555 1_555
H37_2 C46_2 1_555 1_555
C47_2 C46_2 1_555 1_555
H38_2 C47_2 1_555 1_555
C48_2 C3_2 1_555 1_555
C49_2 C48_2 1_555 1_555
H39_2 C49_2 1_555 1_555
C50_2 N10_2 1_555 1_555
H50_2 C64_2 1_555 1_555
C65_2 S2_2 1_555 1_555
C66_2 C65_2 1_555 1_555
H51_2 C66_2 1_555 1_555
C71_2 H52_2 1_555 1_555
C72_2 S3_2 1_555 1_555
C73_2 C72_2 1_555 1_555
H53_2 C73_2 1_555 1_555
Cu10 N1_2 1_555 1_555
C4_2 C5_2 1_555 1_555
C24_2 C25_2 1_555 1_555
C44_2 C45_2 1_555 1_555
C47_2 C48_2 1_555 1_555
C49_2 C50_2 1_555 1_555
C64_2 C65_2 1_555 1_555
C71_2 C72_2 1_555 1_555
O22_2 H58_2 1_555 1_555
O13_2 H59_2 1_555 1_555
O13_2 H60_2 1_555 1_555
Cu1_2 O5_2 1_555 1_555
Cu2_2 O7_2 1_555 1_555
Cu4_2 O4_2 1_555 1_555
Cu13 O21_2 1_555 1_555
Cu6_2 O14_2 1_555 1_555
O4_2 C61_2 1_555 1_555
O7_2 C69_2 1_555 1_555
O8_2 Cu3_2 1_555 1_555
O14_2 C84_2 1_555 1_555
O16_2 C61_2 1_555 1_555
O17_2 Cu1_2 1_555 1_555
O18_2 C84_2 1_555 1_555
O20_2 C68_2 1_555 1_555
O21_2 Cu6_2 1_555 1_555
N2_2 Cu1_2 1_555 1_555
C6_2 N2_2 1_555 1_555
H5_2 C6_2 1_555 1_555
C7_2 C6_2 1_555 1_555
H6_2 C7_2 1_555 1_555
C8_2 C7_2 1_555 1_555
C9_2 C8_2 1_555 1_555
H7_2 C9_2 1_555 1_555
C10_2 N2_2 1_555 1_555
H8_2 C10_2 1_555 1_555
H10_2 C12_2 1_555 1_555
C13_2 C12_2 1_555 1_555
C14_2 C13_2 1_555 1_555
H11_2 C14_2 1_555 1_555
C15_2 N3_2 1_555 1_555
H12_2 C15_2 1_555 1_555
N4_2 Cu3_2 1_555 1_555
C16_2 N4_2 1_555 1_555
H13_2 C16_2 1_555 1_555
C17_2 C16_2 1_555 1_555
H14_2 C17_2 1_555 1_555
C18_2 C13_2 1_555 1_555
C19_2 C18_2 1_555 1_555
H15_2 C19_2 1_555 1_555
C20_2 N4_2 1_555 1_555
H16_2 C20_2 1_555 1_555
N6_2 Cu2_2 1_555 1_555
C26_2 N6_2 1_555 1_555
H21_2 C26_2 1_555 1_555
C27_2 C26_2 1_555 1_555
H22_2 C27_2 1_555 1_555
C28_2 C27_2 1_555 1_555
C29_2 C28_2 1_555 1_555
H23_2 C29_2 1_555 1_555
C30_2 N6_2 1_555 1_555
H24_2 C30_2 1_555 1_555
H26_2 C32_2 1_555 1_555
C33_2 C28_2 1_555 1_555
C34_2 C33_2 1_555 1_555
H27_2 C34_2 1_555 1_555
C35_2 N7_2 1_555 1_555
H28_2 C35_2 1_555 1_555
N8_2 Cu6_2 1_555 1_555
C36_2 N8_2 1_555 1_555
H29_2 C36_2 1_555 1_555
C37_2 C36_2 1_555 1_555
H30_2 C37_2 1_555 1_555
C38_2 C37_2 1_555 1_555
C39_2 C38_2 1_555 1_555
H31_2 C39_2 1_555 1_555
C40_2 N8_2 1_555 1_555
H32_2 C40_2 1_555 1_555
N11_2 C51_2 1_555 1_555
C52_2 C51_2 1_555 1_555
H42_2 C52_2 1_555 1_555
C53_2 C8_2 1_555 1_555
C54_2 C53_2 1_555 1_555
H43_2 C54_2 1_555 1_555
C55_2 N11_2 1_555 1_555
H44_2 C55_2 1_555 1_555
C56_2 H45_2 1_555 1_555
C57_2 C56_2 1_555 1_555
H46_2 C57_2 1_555 1_555
N12_2 C57_2 1_555 1_555
C58_2 N12_2 1_555 1_555
H47_2 C58_2 1_555 1_555
C59_2 C58_2 1_555 1_555
H48_2 C59_2 1_555 1_555
C60_2 C38_2 1_555 1_555
C61_2 C63_2 1_555 1_555
C62_2 H49_2 1_555 1_555
C63_2 C62_2 1_555 1_555
C67_2 C62_2 1_555 1_555
C68_2 C70_2 1_555 1_555
C74_2 C69_2 1_555 1_555
C75_2 C70_2 1_555 1_555
H54_2 C75_2 1_555 1_555
C84_2 C67_2 1_555 1_555
Cu14 N12_2 1_555 1_555
N13_2 Cu4_2 1_555 1_555
N16_2 Cu13 1_555 1_555
Cu2_2 O17_2 1_555 1_555
Cu4_2 O8_2 1_555 1_555
C9_2 C10_2 1_555 1_555
C14_2 C15_2 1_555 1_555
C17_2 C18_2 1_555 1_555
C19_2 C20_2 1_555 1_555
C29_2 C30_2 1_555 1_555
C32_2 C33_2 1_555 1_555
C34_2 C35_2 1_555 1_555
C39_2 C40_2 1_555 1_555
C52_2 C53_2 1_555 1_555
C54_2 C55_2 1_555 1_555
C56_2 C60_2 1_555 1_555
C59_2 C60_2 1_555 1_555
C74_2 C75_2 1_555 1_555
O5_2 H61_2 1_555 1_555
O5_2 H62_2 1_555 1_555
C11_2 H9_2 1_555 1_555
C31_2 H25_2 1_555 1_555
Cu14 O21_3 1_555 1_555
Cu6_3 O14_3 1_555 1_555
O14_3 C84_3 1_555 1_555
O18_3 C84_3 1_555 1_555
O21_3 Cu6_3 1_555 1_555
N5_3 Cu6_3 1_555 1_555
C21_3 N5_3 1_555 1_555
H17_3 C21_3 1_555 1_555
C22_3 C21_3 1_555 1_555
H18_3 C22_3 1_555 1_555
C23_3 C22_3 1_555 1_555
C24_3 C23_3 1_555 1_555
H19_3 C24_3 1_555 1_555
C25_3 N5_3 1_555 1_555
H20_3 C25_3 1_555 1_555
N8_3 Cu6_3 1_555 1_555
C36_3 N8_3 1_555 1_555
H29_3 C36_3 1_555 1_555
C37_3 C36_3 1_555 1_555
H30_3 C37_3 1_555 1_555
N16_2 C41_3 1_555 1_555
C41_3 H33_3 1_555 1_555
C42_3 C41_3 1_555 1_555
H34_3 C42_3 1_555 1_555
C43_3 C23_3 1_555 1_555
C44_3 C43_3 1_555 1_555
H35_3 C44_3 1_555 1_555
C45_3 N16_2 1_555 1_555
H36_3 C45_3 1_555 1_555
C62_3 H49_3 1_555 1_555
C67_3 C62_3 1_555 1_555
C84_3 C67_3 1_555 1_555
O28_2 Cu14 1_555 1_555
O30_2 Cu14 1_555 1_555
C24_3 C25_3 1_555 1_555
C42_3 C43_3 1_555 1_555
C44_3 C45_3 1_555 1_555
S2_3 O9_3 1_555 1_555
O4_3 C61_3 1_555 1_555
O11_3 S2_3 1_555 1_555
O22_3 S2_3 1_555 1_555
C39_3 C38_3 1_555 1_555
H31_3 C39_3 1_555 1_555
H32_3 C40_3 1_555 1_555
C56_3 H45_3 1_555 1_555
C57_3 C56_3 1_555 1_555
H46_3 C57_3 1_555 1_555
N18_2 C57_3 1_555 1_555
C58_3 N18_2 1_555 1_555
H47_3 C58_3 1_555 1_555
C59_3 C58_3 1_555 1_555
H48_3 C59_3 1_555 1_555
C60_3 C38_3 1_555 1_555
C61_3 C63_3 1_555 1_555
C64_3 C63_3 1_555 1_555
H50_3 C64_3 1_555 1_555
C65_3 S2_3 1_555 1_555
C66_3 C65_3 1_555 1_555
H51_3 C66_3 1_555 1_555
C39_3 C40_3 1_555 1_555
C56_3 C60_3 1_555 1_555
C59_3 C60_3 1_555 1_555
C64_3 C65_3 1_555 1_555
O22_3 H58_3 1_555 1_555
Cu1_3 O5_3 1_555 1_555
O28_2 C76_3 1_555 1_555
O30_2 C76_3 1_555 1_555
O17_3 Cu1_3 1_555 1_555
O19_3 Cu1_3 1_555 1_555
O23_3 C83_3 1_555 1_555
N13_2 C1_3 1_555 1_555
C1_3 H1_3 1_555 1_555
C2_3 C1_3 1_555 1_555
H2_3 C2_3 1_555 1_555
C3_3 C2_3 1_555 1_555
C4_3 C3_3 1_555 1_555
H3_3 C4_3 1_555 1_555
C5_3 N13_2 1_555 1_555
H4_3 C5_3 1_555 1_555
N10_3 Cu1_3 1_555 1_555
C46_3 N10_3 1_555 1_555
C47_3 C46_3 1_555 1_555
H38_3 C47_3 1_555 1_555
C48_3 C3_3 1_555 1_555
C49_3 C48_3 1_555 1_555
H39_3 C49_3 1_555 1_555
C50_3 N10_3 1_555 1_555
H40_3 C50_3 1_555 1_555
C76_3 C81_3 1_555 1_555
C82_3 C77_3 1_555 1_555
H57_3 C82_3 1_555 1_555
C83_3 O19_3 1_555 1_555
C4_3 C5_3 1_555 1_555
C47_3 C48_3 1_555 1_555
C49_3 C50_3 1_555 1_555
C77_3 C83_3 1_555 1_555
C81_3 C82_3 1_555 1_555
O5_3 H61_3 1_555 1_555
O5_3 H62_3 1_555 1_555
Cu7_2 O7_3 1_555 1_555
Cu8 O1_3 1_555 1_555
S1_3 O29 1_555 1_555
S3_3 O27 1_555 1_555
O1_3 C68_3 1_555 1_555
O3_3 S3_3 1_555 1_555
O7_3 C69_3 1_555 1_555
O8_3 Cu8 1_555 1_555
O12_3 Cu7_2 1_555 1_555
O13_3 Cu7_2 1_555 1_555
O20_3 C68_3 1_555 1_555
O24_3 S3_3 1_555 1_555
O25_3 S1_3 1_555 1_555
O31 S1_3 1_555 1_555
C6_3 N2_3 1_555 1_555
C7_3 C6_3 1_555 1_555
H6_3 C7_3 1_555 1_555
C8_3 C7_3 1_555 1_555
C9_3 C8_3 1_555 1_555
H7_3 C9_3 1_555 1_555
C10_3 N2_3 1_555 1_555
H8_3 C10_3 1_555 1_555
N14_2 C11_3 1_555 1_555
C11_3 H9_3 1_555 1_555
C12_3 C11_3 1_555 1_555
H10_3 C12_3 1_555 1_555
C13_3 C12_3 1_555 1_555
C14_3 C13_3 1_555 1_555
H11_3 C14_3 1_555 1_555
C15_3 N14_2 1_555 1_555
H12_3 C15_3 1_555 1_555
N4_3 Cu8 1_555 1_555
C16_3 N4_3 1_555 1_555
H13_3 C16_3 1_555 1_555
C17_3 C16_3 1_555 1_555
H14_3 C17_3 1_555 1_555
C18_3 C13_3 1_555 1_555
C19_3 C18_3 1_555 1_555
H15_3 C19_3 1_555 1_555
C20_3 N4_3 1_555 1_555
H16_3 C20_3 1_555 1_555
N6_3 Cu7_2 1_555 1_555
C26_3 N6_3 1_555 1_555
H21_3 C26_3 1_555 1_555
C27_3 C26_3 1_555 1_555
H22_3 C27_3 1_555 1_555
C28_3 C27_3 1_555 1_555
C29_3 C28_3 1_555 1_555
H23_3 C29_3 1_555 1_555
C30_3 N6_3 1_555 1_555
H24_3 C30_3 1_555 1_555
N15_2 C31_3 1_555 1_555
C31_3 H25_3 1_555 1_555
C32_3 C31_3 1_555 1_555
H26_3 C32_3 1_555 1_555
C33_3 C28_3 1_555 1_555
C34_3 C33_3 1_555 1_555
H27_3 C34_3 1_555 1_555
C35_3 N15_2 1_555 1_555
H28_3 C35_3 1_555 1_555
N17_2 C51_3 1_555 1_555
C51_3 H41_3 1_555 1_555
C52_3 C51_3 1_555 1_555
H42_3 C52_3 1_555 1_555
C53_3 C8_3 1_555 1_555
C54_3 C53_3 1_555 1_555
H43_3 C54_3 1_555 1_555
C55_3 N17_2 1_555 1_555
C68_3 C70_3 1_555 1_555
C69_3 O12_3 1_555 1_555
C70_3 C71_3 1_555 1_555
C71_3 H52_3 1_555 1_555
C72_3 S3_3 1_555 1_555
C73_3 C72_3 1_555 1_555
H53_3 C73_3 1_555 1_555
C74_3 C69_3 1_555 1_555
C75_3 C70_3 1_555 1_555
H54_3 C75_3 1_555 1_555
C78_3 H55_3 1_555 1_555
C79_3 S1_3 1_555 1_555
C80_3 C79_3 1_555 1_555
H56_3 C80_3 1_555 1_555
Cu10 O8_3 1_555 1_555
C9_3 C10_3 1_555 1_555
C14_3 C15_3 1_555 1_555
C17_3 C18_3 1_555 1_555
C19_3 C20_3 1_555 1_555
C29_3 C30_3 1_555 1_555
C32_3 C33_3 1_555 1_555
C34_3 C35_3 1_555 1_555
C52_3 C53_3 1_555 1_555
C54_3 C55_3 1_555 1_555
C71_3 C72_3 1_555 1_555
C73_3 C74_3 1_555 1_555
C74_3 C75_3 1_555 1_555
C78_3 C79_3 1_555 1_555
O13_3 H59_3 1_555 1_555
O13_3 H60_3 1_555 1_555
S1_4 O29_2 1_555 1_555
S3_4 O27_2 1_555 1_555
O3_4 S3_4 1_555 1_555
O24_4 S3_4 1_555 1_555
O25_4 S1_4 1_555 1_555
O31_2 S1_4 1_555 1_555
C71_4 H52_4 1_555 1_555
C72_4 S3_4 1_555 1_555
C73_4 C72_4 1_555 1_555
H53_4 C73_4 1_555 1_555
C78_4 H55_4 1_555 1_555
C79_4 S1_4 1_555 1_555
C80_4 C79_4 1_555 1_555
H56_4 C80_4 1_555 1_555
C71_4 C72_4 1_555 1_555
C78_4 C79_4 1_555 1_555
O13_4 H59_4 1_555 1_555
O13_4 H60_4 1_555 1_555
Cu7 O7_4 1_555 1_555
O7_4 C69_4 1_555 1_555
O8_4 Cu9 1_555 1_555
O20_4 C68_4 1_555 1_555
C6_4 N2_4 1_555 1_555
C7_4 C6_4 1_555 1_555
H6_4 C7_4 1_555 1_555
C8_4 C7_4 1_555 1_555
C9_4 C8_4 1_555 1_555
H7_4 C9_4 1_555 1_555
C10_4 N2_4 1_555 1_555
H8_4 C10_4 1_555 1_555
N14 C11_4 1_555 1_555
C11_4 H9_4 1_555 1_555
C12_4 C11_4 1_555 1_555
H10_4 C12_4 1_555 1_555
C13_4 C12_4 1_555 1_555
C14_4 C13_4 1_555 1_555
H11_4 C14_4 1_555 1_555
C15_4 N14 1_555 1_555
H12_4 C15_4 1_555 1_555
N4_4 Cu9 1_555 1_555
C16_4 N4_4 1_555 1_555
H13_4 C16_4 1_555 1_555
C17_4 C16_4 1_555 1_555
H14_4 C17_4 1_555 1_555
C18_4 C13_4 1_555 1_555
C19_4 C18_4 1_555 1_555
H15_4 C19_4 1_555 1_555
C20_4 N4_4 1_555 1_555
H16_4 C20_4 1_555 1_555
N6_4 Cu7 1_555 1_555
C26_4 N6_4 1_555 1_555
H21_4 C26_4 1_555 1_555
C27_4 C26_4 1_555 1_555
H22_4 C27_4 1_555 1_555
C28_4 C27_4 1_555 1_555
C29_4 C28_4 1_555 1_555
H23_4 C29_4 1_555 1_555
C30_4 N6_4 1_555 1_555
H24_4 C30_4 1_555 1_555
N15 C31_4 1_555 1_555
C31_4 H25_4 1_555 1_555
C32_4 C31_4 1_555 1_555
H26_4 C32_4 1_555 1_555
C33_4 C28_4 1_555 1_555
C34_4 C33_4 1_555 1_555
H27_4 C34_4 1_555 1_555
C35_4 N15 1_555 1_555
H28_4 C35_4 1_555 1_555
N17 C51_4 1_555 1_555
C51_4 H41_4 1_555 1_555
C52_4 C51_4 1_555 1_555
H42_4 C52_4 1_555 1_555
C53_4 C8_4 1_555 1_555
C54_4 C53_4 1_555 1_555
H43_4 C54_4 1_555 1_555
C55_4 N17 1_555 1_555
H44_4 C55_4 1_555 1_555
C68_4 C70_4 1_555 1_555
C74_4 C69_4 1_555 1_555
C75_4 C70_4 1_555 1_555
H54_4 C75_4 1_555 1_555
Cu12 O8_4 1_555 1_555
C9_4 C10_4 1_555 1_555
C14_4 C15_4 1_555 1_555
C17_4 C18_4 1_555 1_555
C19_4 C20_4 1_555 1_555
C29_4 C30_4 1_555 1_555
C32_4 C33_4 1_555 1_555
C34_4 C35_4 1_555 1_555
C52_4 C53_4 1_555 1_555
C54_4 C55_4 1_555 1_555
C74_4 C75_4 1_555 1_555
N13 C1_4 1_555 1_555
C1_4 H1_4 1_555 1_555
C2_4 C1_4 1_555 1_555
H2_4 C2_4 1_555 1_555
C3_4 C2_4 1_555 1_555
C4_4 C3_4 1_555 1_555
H3_4 C4_4 1_555 1_555
C5_4 N13 1_555 1_555
H4_4 C5_4 1_555 1_555
C46_4 N10_4 1_555 1_555
C47_4 C46_4 1_555 1_555
H38_4 C47_4 1_555 1_555
C48_4 C3_4 1_555 1_555
C49_4 C48_4 1_555 1_555
H39_4 C49_4 1_555 1_555
C50_4 N10_4 1_555 1_555
C4_4 C5_4 1_555 1_555
C47_4 C48_4 1_555 1_555
C49_4 C50_4 1_555 1_555
Cu1_4 O5_4 1_555 1_555
O15_2 C76_4 1_555 1_555
O17_4 Cu1_4 1_555 1_555
O19_4 Cu1_4 1_555 1_555
O23_4 C83_4 1_555 1_555
C76_4 C81_4 1_555 1_555
C82_4 C77_4 1_555 1_555
H57_4 C82_4 1_555 1_555
C83_4 O19_4 1_555 1_555
O15_2 Cu16 1_555 1_555
C77_4 C83_4 1_555 1_555
C81_4 C82_4 1_555 1_555
O5_4 H61_4 1_555 1_555
O5_4 H62_4 1_555 1_555
S2_4 O9_4 1_555 1_555
O11_4 S2_4 1_555 1_555
O22_4 S2_4 1_555 1_555
H50_4 C64_4 1_555 1_555
C65_4 S2_4 1_555 1_555
C66_4 C65_4 1_555 1_555
H51_4 C66_4 1_555 1_555
C64_4 C65_4 1_555 1_555
O22_4 H58_4 1_555 1_555
O4_4 C61_4 1_555 1_555
C39_4 C38_4 1_555 1_555
H31_4 C39_4 1_555 1_555
H32_4 C40_4 1_555 1_555
C56_4 H45_4 1_555 1_555
C57_4 C56_4 1_555 1_555
H46_4 C57_4 1_555 1_555
N18 C57_4 1_555 1_555
C58_4 N18 1_555 1_555
H47_4 C58_4 1_555 1_555
C59_4 C58_4 1_555 1_555
H48_4 C59_4 1_555 1_555
C60_4 C38_4 1_555 1_555
C61_4 C63_4 1_555 1_555
C39_4 C40_4 1_555 1_555
C56_4 C60_4 1_555 1_555
C59_4 C60_4 1_555 1_555
C21_4 N5_4 1_555 1_555
H17_4 C21_4 1_555 1_555
C22_4 C21_4 1_555 1_555
H18_4 C22_4 1_555 1_555
C23_4 C22_4 1_555 1_555
C24_4 C23_4 1_555 1_555
H19_4 C24_4 1_555 1_555
C25_4 N5_4 1_555 1_555
H20_4 C25_4 1_555 1_555
N16 C41_4 1_555 1_555
C41_4 H33_4 1_555 1_555
C42_4 C41_4 1_555 1_555
H34_4 C42_4 1_555 1_555
C43_4 C23_4 1_555 1_555
C44_4 C43_4 1_555 1_555
H35_4 C44_4 1_555 1_555
C45_4 N16 1_555 1_555
H36_4 C45_4 1_555 1_555
C24_4 C25_4 1_555 1_555
C42_4 C43_4 1_555 1_555
C44_4 C45_4 1_555 1_555
Cu16 O21_4 1_555 1_555
Cu6_4 O14_4 1_555 1_555
O14_4 C84_4 1_555 1_555
O18_4 C84_4 1_555 1_555
O21_4 Cu6_4 1_555 1_555
N8_4 Cu6_4 1_555 1_555
C36_4 N8_4 1_555 1_555
H29_4 C36_4 1_555 1_555
C37_4 C36_4 1_555 1_555
H30_4 C37_4 1_555 1_555
C62_4 H49_4 1_555 1_555
C67_4 C62_4 1_555 1_555
C84_4 C67_4 1_555 1_555

#END
