
###############################################################################
#
# This file contains modified crystal structure data generated from the
# MOF subset of the Cambridge Structural Database (CSD) v543 
# hosted by the Cambridge Crystallographic Data Centre (CCDC).
#
# This work is licensed under the Creative Commons
# Attribution-NonCommercial-ShareAlike 4.0 International License.
# To view a copy of this license, visit
# http://creativecommons.org/licenses/by-nc-sa/4.0/
# or send a letter to
# Creative Commons, PO Box 1866, Mountain View, CA 94042, USA.
#
# CIF created using the CSD Python API on 29 September 2022
# The structure has been converted into the P1 space group
# The structure has a 3D framework
# The original CSD entry OBUFEX is in the monoclinic crystal system
# The framework has been calculated to contain at least 10.0% void space
# The void calculation uses a probe of radius 1.32A, grid spacing 0.4
# H atom positions have been added when not included in the experimental data
#
###############################################################################

data_OBUFEX
_chemical_formula_moiety         '(C64 H48 N8 O24 Zn4)n'
_symmetry_cell_setting           triclinic
_symmetry_space_group_name_H-M   'P 1'
_symmetry_Int_Tables_number      1
_space_group_name_Hall           'P 1'
loop_
_symmetry_equiv_pos_site_id
_symmetry_equiv_pos_as_xyz
1 x,y,z
_cell_length_a                   11.442(2)
_cell_length_b                   15.807(3)
_cell_length_c                   13.373(3)
_cell_angle_alpha                90
_cell_angle_beta                 101.36(3)
_cell_angle_gamma                90
_cell_volume                     2371.31
loop_
_atom_site_label
_atom_site_type_symbol
_atom_site_fract_x
_atom_site_fract_y
_atom_site_fract_z
C21 C 0.00529(16) 0.42000(15) 0.11223(16)
C22 C 0.13497(16) 0.41934(14) 0.11106(15)
C23 C 0.18313(18) 0.37113(15) 0.04422(17)
C24 C 0.30362(18) 0.37283(15) 0.04464(17)
C25 C 0.33459(18) 0.46589(17) 0.17663(17)
H18 H 0.3860 0.4986 0.2237
C26 C 0.21562(19) 0.46714(17) 0.17948(18)
H19 H 0.1886 0.5003 0.2277
N3 N 0.38010(13) 0.42072(12) 0.11064(12)
Zn2 Zn 0.571112(19) 0.421160(16) 0.108367(18)
N5 N 0.76052(13) 0.42026(12) 0.11193(13)
O14 O 0.58348(18) 0.38190(13) 0.28831(18)
O15 O 0.57745(15) 0.29479(13) 0.16130(16)
O16 O 0.58283(11) 0.54266(9) 0.15173(12)
H16 H 0.1336 0.3367 0.9978
H17 H 0.3332 0.3398 0.9977
O17 O 0.54923(12) 0.38545(10) 0.96269(11)
C1 C 0.5752(2) 0.30978(18) 0.2538(2)
C2 C 0.2626(2) 0.18131(17) 0.2316(2)
C3 C 0.3863(2) 0.1699(2) 0.20623(19)
H1 H 0.3902 0.1155 0.1735
H2 H 0.3996 0.2136 0.1588
C4 C 0.5624(2) 0.23694(16) 0.32011(19)
H3 H 0.6159 0.2340 0.3821
C5 C 0.48135(19) 0.17453(15) 0.30011(18)
C6 C 0.48254(17) 0.10559(13) 0.37721(17)
O1 O 0.17526(19) 0.15627(17) 0.16124(19)
O2 O 0.24837(17) 0.21074(16) 0.30915(18)
O5 O 0.41717(11) 0.04266(9) 0.34827(12)
O6 O 0.54923(12) 0.11455(10) 0.46269(11)
C17 C 0.9306(2) 0.35635(18) 0.0678(2)
H12 H 0.9610 0.3112 0.0364
C18 C 0.8104(2) 0.35964(17) 0.0700(2)
H13 H 0.7622 0.3156 0.0395
C19 C 0.83276(18) 0.48001(16) 0.1592(2)
H14 H 0.8002 0.5220 0.1940
C20 C 0.95295(19) 0.48315(17) 0.1596(2)
H15 H 0.9988 0.5277 0.1916
C27 C 0.4248(2) 0.80978(18) 0.2462(2)
C28 C 0.7374(2) 0.68131(17) 0.2684(2)
C29 C 0.6137(2) 0.6699(2) 0.29377(19)
H20 H 0.6098 0.6155 0.3265
H21 H 0.6004 0.7136 0.3412
C30 C 0.4376(2) 0.73694(16) 0.17989(19)
H22 H 0.3841 0.7340 0.1179
C31 C 0.51865(19) 0.67453(15) 0.19989(18)
C32 C 0.51746(17) 0.60559(13) 0.12279(17)
O7 O 0.82474(19) 0.65627(17) 0.33876(19)
O8 O 0.75163(17) 0.71074(16) 0.19085(18)
O9 O 0.41652(18) 0.88190(13) 0.21169(18)
O10 O 0.42255(15) 0.79479(13) 0.33870(16)
O12 O 0.45077(12) 0.61455(10) 0.03731(11)
Zn5 Zn 0.571112(19) 0.078840(16) 0.608367(18)
Zn6 Zn 0.428888(19) 0.921160(16) 0.391633(18)
H23 H 0.281123 0.269091 0.316006
H24 H 0.718877 0.769091 0.183994
Zn7 Zn 0.428888(19) 0.578840(16) 0.891633(18)
C21_2 C 0.00529(16) 0.08000(15) 0.61223(16)
C22_2 C 0.13497(16) 0.08066(14) 0.61106(15)
C23_2 C 0.18313(18) 0.12887(15) 0.54422(17)
H16_2 H 0.1336 0.1633 0.4978
C24_2 C 0.30362(18) 0.12717(15) 0.54464(17)
H17_2 H 0.3332 0.1602 0.4977
C25_2 C 0.33459(18) 0.03411(17) 0.67663(17)
H18_2 H 0.3860 0.0014 0.7237
C26_2 C 0.21562(19) 0.03286(17) 0.67948(18)
N3_2 N 0.38010(13) 0.07928(12) 0.61064(12)
N5_2 N 0.76052(13) 0.07974(12) 0.61193(13)
O14_2 O 0.58348(18) 0.11810(13) 0.78831(18)
O15_2 O 0.57745(15) 0.20521(13) 0.66130(16)
H19_2 H 0.1886 0.9997 0.7277
O16_2 O 0.58283(11) 0.95734(9) 0.65173(12)
C1_2 C 0.5752(2) 0.19022(18) 0.7538(2)
C2_2 C 0.2626(2) 0.31869(17) 0.7316(2)
C3_2 C 0.3863(2) 0.3301(2) 0.70623(19)
H1_2 H 0.3902 0.3845 0.6735
H2_2 H 0.3996 0.2864 0.6588
C4_2 C 0.5624(2) 0.26306(16) 0.82011(19)
H3_2 H 0.6159 0.2660 0.8821
C5_2 C 0.48135(19) 0.32547(15) 0.80011(18)
C6_2 C 0.48254(17) 0.39441(13) 0.87721(17)
O1_2 O 0.17526(19) 0.34373(17) 0.66124(19)
O2_2 O 0.24837(17) 0.28926(16) 0.80915(18)
O5_2 O 0.41717(11) 0.45734(9) 0.84827(12)
C17_2 C 0.9306(2) 0.14365(18) 0.5678(2)
H12_2 H 0.9610 0.1888 0.5364
C18_2 C 0.8104(2) 0.14036(17) 0.5700(2)
H13_2 H 0.7622 0.1844 0.5395
C19_2 C 0.83276(18) 0.01999(16) 0.6592(2)
C20_2 C 0.95295(19) 0.01685(17) 0.6596(2)
H23_2 H 0.281123 0.230909 0.816006
H14_2 H 0.8002 0.9780 0.6940
H15_2 H 0.9988 0.9723 0.6916
C27_2 C 0.4248(2) 0.69022(18) 0.7462(2)
C28_2 C 0.7374(2) 0.81869(17) 0.7684(2)
C29_2 C 0.6137(2) 0.8301(2) 0.79377(19)
H20_2 H 0.6098 0.8845 0.8265
H21_2 H 0.6004 0.7864 0.8412
C30_2 C 0.4376(2) 0.76306(16) 0.67989(19)
H22_2 H 0.3841 0.7660 0.6179
C31_2 C 0.51865(19) 0.82547(15) 0.69989(18)
C32_2 C 0.51746(17) 0.89441(13) 0.62279(17)
O7_2 O 0.82474(19) 0.84373(17) 0.83876(19)
O8_2 O 0.75163(17) 0.78926(16) 0.69085(18)
O9_2 O 0.41652(18) 0.61810(13) 0.71169(18)
O10_2 O 0.42255(15) 0.70521(13) 0.83870(16)
O12_2 O 0.45077(12) 0.88545(10) 0.53731(11)
H24_2 H 0.718877 0.730909 0.683994
C7 C 0.0694(2) 0.64365(18) 0.9322(2)
H4 H 0.0390 0.6888 0.9636
C8 C 0.1896(2) 0.64036(17) 0.9300(2)
H5 H 0.2378 0.6844 0.9605
C9 C 0.16724(18) 0.51999(16) 0.8408(2)
H6 H 0.1998 0.4780 0.8060
C10 C 0.04705(19) 0.51685(17) 0.8404(2)
H7 H 0.0012 0.4723 0.8084
N2 N 0.23948(13) 0.57974(12) 0.88807(13)
H8 H 0.8664 0.6633 0.0022
H9 H 0.6668 0.6602 0.0023
C11 C 0.99471(16) 0.58000(15) 0.88777(16)
C12 C 0.86503(16) 0.58066(14) 0.88894(15)
C13 C 0.81687(18) 0.62887(15) 0.95578(17)
C14 C 0.69638(18) 0.62717(15) 0.95536(17)
C15 C 0.66541(18) 0.53411(17) 0.82337(17)
H10 H 0.6140 0.5014 0.7763
C16 C 0.78438(19) 0.53286(17) 0.82052(18)
H11 H 0.8114 0.4997 0.7723
N1 N 0.61990(13) 0.57928(12) 0.88936(12)
H6_2 H 0.1998 0.0220 0.3060
H7_2 H 0.0012 0.0277 0.3084
C7_2 C 0.0694(2) 0.85635(18) 0.4322(2)
H4_2 H 0.0390 0.8112 0.4636
C8_2 C 0.1896(2) 0.85964(17) 0.4300(2)
H5_2 H 0.2378 0.8156 0.4605
C9_2 C 0.16724(18) 0.98001(16) 0.3408(2)
C10_2 C 0.04705(19) 0.98315(17) 0.3404(2)
N2_2 N 0.23948(13) 0.92026(12) 0.38807(13)
H11_2 H 0.8114 0.0003 0.2723
C11_2 C 0.99471(16) 0.92000(15) 0.38777(16)
C12_2 C 0.86503(16) 0.91934(14) 0.38894(15)
C13_2 C 0.81687(18) 0.87113(15) 0.45578(17)
H8_2 H 0.8664 0.8367 0.5022
C14_2 C 0.69638(18) 0.87283(15) 0.45536(17)
H9_2 H 0.6668 0.8398 0.5023
C15_2 C 0.66541(18) 0.96589(17) 0.32337(17)
H10_2 H 0.6140 0.9986 0.2763
C16_2 C 0.78438(19) 0.96714(17) 0.32052(18)
N1_2 N 0.61990(13) 0.92072(12) 0.38936(12)
loop_
_geom_bond_atom_site_label_1
_geom_bond_atom_site_label_2
_geom_bond_site_symmetry_1
_geom_bond_site_symmetry_2
C22 C21 1_555 1_555
C23 C22 1_555 1_555
C24 C23 1_555 1_555
C25 H18 1_555 1_555
C26 C22 1_555 1_555
H19 C26 1_555 1_555
N3 C24 1_555 1_555
Zn2 N3 1_555 1_555
N5 Zn2 1_555 1_555
O14 Zn2 1_555 1_555
O15 Zn2 1_555 1_555
O16 Zn2 1_555 1_555
C25 N3 1_555 1_555
C25 C26 1_555 1_555
C1 C4 1_555 1_555
C2 C3 1_555 1_555
C3 H1 1_555 1_555
H2 C3 1_555 1_555
C4 H3 1_555 1_555
C5 C3 1_555 1_555
C6 C5 1_555 1_555
O1 C2 1_555 1_555
O2 C2 1_555 1_555
O5 C6 1_555 1_555
O6 C6 1_555 1_555
C17 H12 1_555 1_555
C18 C17 1_555 1_555
H13 C18 1_555 1_555
C19 H14 1_555 1_555
C20 C19 1_555 1_555
H15 C20 1_555 1_555
C27 C30 1_555 1_555
C28 C29 1_555 1_555
C29 H20 1_555 1_555
H21 C29 1_555 1_555
C30 H22 1_555 1_555
C31 C29 1_555 1_555
C32 C31 1_555 1_555
O7 C28 1_555 1_555
O8 C28 1_555 1_555
O9 C27 1_555 1_555
O10 C27 1_555 1_555
O12 C32 1_555 1_555
Zn5 O6 1_555 1_555
Zn6 O9 1_555 1_555
C1 O14 1_555 1_555
C1 O15 1_555 1_555
C4 C5 1_555 1_555
C18 N5 1_555 1_555
C19 N5 1_555 1_555
C30 C31 1_555 1_555
C32 O16 1_555 1_555
O10 Zn6 1_555 1_555
O2 H23 1_555 1_555
O8 H24 1_555 1_555
C22_2 C21_2 1_555 1_555
C23_2 C22_2 1_555 1_555
H16_2 C23_2 1_555 1_555
C24_2 C23_2 1_555 1_555
H17_2 C24_2 1_555 1_555
C25_2 H18_2 1_555 1_555
C26_2 C22_2 1_555 1_555
N3_2 C24_2 1_555 1_555
Zn5 N3_2 1_555 1_555
N5_2 Zn5 1_555 1_555
O14_2 Zn5 1_555 1_555
O15_2 Zn5 1_555 1_555
C25_2 N3_2 1_555 1_555
C25_2 C26_2 1_555 1_555
C1_2 C4_2 1_555 1_555
C2_2 C3_2 1_555 1_555
C3_2 H1_2 1_555 1_555
H2_2 C3_2 1_555 1_555
C4_2 H3_2 1_555 1_555
C5_2 C3_2 1_555 1_555
C6_2 C5_2 1_555 1_555
O1_2 C2_2 1_555 1_555
O2_2 C2_2 1_555 1_555
O5_2 C6_2 1_555 1_555
O17 C6_2 1_555 1_555
C17_2 H12_2 1_555 1_555
C18_2 C17_2 1_555 1_555
H13_2 C18_2 1_555 1_555
C20_2 C19_2 1_555 1_555
Zn7 O5_2 1_555 1_555
C1_2 O14_2 1_555 1_555
C1_2 O15_2 1_555 1_555
C4_2 C5_2 1_555 1_555
C18_2 N5_2 1_555 1_555
C19_2 N5_2 1_555 1_555
O2_2 H23_2 1_555 1_555
C27_2 C30_2 1_555 1_555
C28_2 C29_2 1_555 1_555
C29_2 H20_2 1_555 1_555
H21_2 C29_2 1_555 1_555
C30_2 H22_2 1_555 1_555
C31_2 C29_2 1_555 1_555
C32_2 C31_2 1_555 1_555
O7_2 C28_2 1_555 1_555
O8_2 C28_2 1_555 1_555
O9_2 C27_2 1_555 1_555
O10_2 C27_2 1_555 1_555
O12_2 C32_2 1_555 1_555
Zn7 O9_2 1_555 1_555
Zn6 O12_2 1_555 1_555
C30_2 C31_2 1_555 1_555
C32_2 O16_2 1_555 1_555
O10_2 Zn7 1_555 1_555
O8_2 H24_2 1_555 1_555
C7 H4 1_555 1_555
C8 C7 1_555 1_555
H5 C8 1_555 1_555
C9 H6 1_555 1_555
C10 C9 1_555 1_555
H7 C10 1_555 1_555
N2 C8 1_555 1_555
Zn7 N2 1_555 1_555
C9 N2 1_555 1_555
Zn7 N1 1_555 1_555
C12 C11 1_555 1_555
C13 C12 1_555 1_555
C14 C13 1_555 1_555
C15 H10 1_555 1_555
C16 C12 1_555 1_555
H11 C16 1_555 1_555
N1 C14 1_555 1_555
C15 N1 1_555 1_555
C15 C16 1_555 1_555
C7_2 H4_2 1_555 1_555
C8_2 C7_2 1_555 1_555
H5_2 C8_2 1_555 1_555
C10_2 C9_2 1_555 1_555
N2_2 C8_2 1_555 1_555
Zn6 N2_2 1_555 1_555
C9_2 N2_2 1_555 1_555
Zn6 N1_2 1_555 1_555
C12_2 C11_2 1_555 1_555
C13_2 C12_2 1_555 1_555
H8_2 C13_2 1_555 1_555
C14_2 C13_2 1_555 1_555
H9_2 C14_2 1_555 1_555
C15_2 H10_2 1_555 1_555
C16_2 C12_2 1_555 1_555
N1_2 C14_2 1_555 1_555
C15_2 N1_2 1_555 1_555
C15_2 C16_2 1_555 1_555

#END
