
###############################################################################
#
# This file contains modified crystal structure data generated from the
# MOF subset of the Cambridge Structural Database (CSD) v543 
# hosted by the Cambridge Crystallographic Data Centre (CCDC).
#
# This work is licensed under the Creative Commons
# Attribution-NonCommercial-ShareAlike 4.0 International License.
# To view a copy of this license, visit
# http://creativecommons.org/licenses/by-nc-sa/4.0/
# or send a letter to
# Creative Commons, PO Box 1866, Mountain View, CA 94042, USA.
#
# CIF created using the CSD Python API on 29 September 2022
# The structure has been converted into the P1 space group
# The structure has a 3D framework
# The original CSD entry OCIBIO is in the monoclinic crystal system
# The framework has been calculated to contain at least 10.0% void space
# The void calculation uses a probe of radius 1.32A, grid spacing 0.4
#
###############################################################################

data_OCIBIO
_chemical_formula_moiety         '(C184 H160 N32 O32 Zn8)n'
_symmetry_cell_setting           triclinic
_symmetry_space_group_name_H-M   'P 1'
_symmetry_Int_Tables_number      1
_space_group_name_Hall           'P 1'
loop_
_symmetry_equiv_pos_site_id
_symmetry_equiv_pos_as_xyz
1 x,y,z
_cell_length_a                   22.6131(5)
_cell_length_b                   17.2426(5)
_cell_length_c                   13.6189(3)
_cell_angle_alpha                90
_cell_angle_beta                 94.122(2)
_cell_angle_gamma                90
_cell_volume                     5296.39
loop_
_atom_site_label
_atom_site_type_symbol
_atom_site_fract_x
_atom_site_fract_y
_atom_site_fract_z
Zn1 Zn 0.202803(16) 0.32113(2) 0.32872(3)
C1 C 0.2324(2) 0.1560(3) 0.3817(3)
H1 H 0.2115 0.1588 0.4381
C2 C 0.2594(2) 0.0930(3) 0.3505(3)
H2 H 0.2609 0.0448 0.3811
C3 C 0.27158(17) 0.1860(2) 0.2528(3)
H3 H 0.2843 0.2146 0.2005
C4 C 0.3211(2) 0.0593(3) 0.2117(3)
H4 H 0.3112 0.0060 0.2262
H5 H 0.3625 0.0674 0.2332
C5 C 0.3117(2) 0.0740(3) 0.0885(4)
H6 H 0.3216 0.0277 0.0526
H7 H 0.2711 0.0887 0.0690
C6 C 0.3503(3) 0.1335(4) 0.0722(5)
H8 H 0.3890 0.1242 0.1053
H9 H 0.3352 0.1828 0.0939
C10 C 0.12029(16) 0.3593(2) 0.4526(3)
C11 C 0.08470(14) 0.3562(2) 0.5410(3)
C12 C 0.08505(15) 0.2922(2) 0.6021(3)
H13 H 0.1081 0.2493 0.5886
C13 C 0.05139(15) 0.2913(2) 0.6831(3)
H14 H 0.0513 0.2472 0.7225
C14 C 0.01779(14) 0.3554(2) 0.7065(2)
C15 C 0.01868(16) 0.4201(2) 0.6454(3)
C16 C 0.05156(15) 0.4198(2) 0.5643(3)
H16 H 0.0515 0.4635 0.5243
C17 C 0.31290(14) 0.3915(2) 0.3276(3)
C18 C 0.36748(13) 0.42685(19) 0.3767(2)
C19 C 0.41948(15) 0.4310(3) 0.3305(3)
H17 H 0.4202 0.4140 0.2658
C20 C 0.47042(15) 0.4599(3) 0.3783(3)
H18 H 0.5048 0.4621 0.3448
C21 C 0.47214(13) 0.48553(19) 0.4739(2)
C22 C 0.41950(15) 0.4822(2) 0.5195(3)
H19 H 0.4187 0.4992 0.5842
C23 C 0.36845(15) 0.4544(2) 0.4713(3)
H20 H 0.3336 0.4543 0.5036
N1 N 0.23971(11) 0.21478(17) 0.3195(2)
N2 N 0.28418(12) 0.11156(17) 0.2671(2)
O1 O 0.15062(10) 0.29934(16) 0.43424(19)
O2 O 0.11810(14) 0.41718(17) 0.4009(2)
O3 O 0.26712(9) 0.39124(15) 0.37690(17)
O4 O 0.31356(10) 0.36225(17) 0.24417(18)
H23 H 0.0032 0.4639 0.8405
C31 C 0.68710(14) 0.6085(2) 0.6724(3)
C32 C 0.63252(13) 0.57315(19) 0.6233(2)
C33 C 0.58052(15) 0.5690(3) 0.6695(3)
H25 H 0.5798 0.5860 0.7342
C34 C 0.52958(15) 0.5401(3) 0.6217(3)
H26 H 0.4952 0.5379 0.6552
C35 C 0.52786(13) 0.51447(19) 0.5261(2)
C36 C 0.58050(15) 0.5178(2) 0.4805(3)
H27 H 0.5813 0.5008 0.4158
C37 C 0.63155(15) 0.5456(2) 0.5287(3)
H28 H 0.6664 0.5457 0.4964
O7 O 0.73288(9) 0.60876(15) 0.62310(17)
O8 O 0.68644(10) 0.63775(17) 0.75583(18)
Zn3 Zn 0.797197(16) 0.67887(2) 0.67128(3)
N9 N 0.16429(12) 0.35173(17) 0.1984(2)
C7 C 0.81213(19) 0.6460(3) 0.8858(3)
H10 H 0.7721 0.6539 0.8938
C8 C 0.9048(2) 0.6222(3) 0.9192(4)
H11 H 0.9410 0.6102 0.9527
C9 C 0.89506(18) 0.6338(2) 0.8232(3)
H12 H 0.9238 0.6324 0.7777
N3 N 0.8526(2) 0.6310(3) 0.9590(3)
N4 N 0.83571(12) 0.64827(17) 0.8016(2)
C1_2 C 0.7676(2) 0.8440(3) 0.6183(3)
H1_2 H 0.7885 0.8412 0.5619
C2_2 C 0.7406(2) 0.9070(3) 0.6495(3)
H2_2 H 0.7391 0.9552 0.6189
C3_2 C 0.72842(17) 0.8140(2) 0.7472(3)
H3_2 H 0.7157 0.7854 0.7995
C4_2 C 0.6789(2) 0.9407(3) 0.7883(3)
H4_2 H 0.6888 0.9940 0.7738
H5_2 H 0.6375 0.9326 0.7668
C5_2 C 0.6883(2) 0.9260(3) 0.9115(4)
H6_2 H 0.6784 0.9723 0.9474
H7_2 H 0.7289 0.9113 0.9310
C6_2 C 0.6497(3) 0.8665(4) 0.9278(5)
H8_2 H 0.6110 0.8758 0.8947
H9_2 H 0.6648 0.8172 0.9061
C10_2 C 0.87971(16) 0.6407(2) 0.5474(3)
C11_2 C 0.91530(14) 0.6438(2) 0.4590(3)
C12_2 C 0.91495(15) 0.7078(2) 0.3979(3)
H13_2 H 0.8919 0.7507 0.4114
C13_2 C 0.94861(15) 0.7087(2) 0.3169(3)
H14_2 H 0.9487 0.7528 0.2775
C14_2 C 0.98221(14) 0.6446(2) 0.2935(2)
C15_2 C 0.98132(16) 0.5799(2) 0.3546(3)
C16_2 C 0.94844(15) 0.5802(2) 0.4357(3)
H16_2 H 0.9485 0.5365 0.4757
N1_2 N 0.76029(11) 0.78522(17) 0.6805(2)
N2_2 N 0.71582(12) 0.88844(17) 0.7329(2)
O1_2 O 0.84938(10) 0.70066(16) 0.56576(19)
O2_2 O 0.88190(14) 0.58282(17) 0.5991(2)
H23_2 H 0.9968 0.5361 0.1595
C7_2 C 0.18787(19) 0.3540(3) 0.1142(3)
H10_2 H 0.2279 0.3461 0.1062
C8_2 C 0.0952(2) 0.3778(3) 0.0808(4)
H11_2 H 0.0590 0.3898 0.0473
C9_2 C 0.10494(18) 0.3662(2) 0.1768(3)
H12_2 H 0.0762 0.3676 0.2223
N3_2 N 0.1474(2) 0.3690(3) 0.0410(3)
C7_3 C 0.31213(19) 0.1460(3) 0.8858(3)
H10_3 H 0.2721 0.1539 0.8938
C8_3 C 0.4048(2) 0.1222(3) 0.9192(4)
H11_3 H 0.4410 0.1102 0.9527
C9_3 C 0.39506(18) 0.1338(2) 0.8232(3)
H12_3 H 0.4238 0.1324 0.7777
N3_3 N 0.3526(2) 0.1310(3) 0.9590(3)
N4_2 N 0.33571(12) 0.14827(17) 0.8016(2)
Zn4 Zn 0.297197(16) 0.17887(2) 0.67128(3)
C31_2 C 0.18710(14) 0.1085(2) 0.6724(3)
C32_2 C 0.13252(13) 0.07315(19) 0.6233(2)
C33_2 C 0.08052(15) 0.0690(3) 0.6695(3)
H25_2 H 0.0798 0.0860 0.7342
C34_2 C 0.02958(15) 0.0401(3) 0.6217(3)
C35_2 C 0.02786(13) 0.01447(19) 0.5261(2)
C36_2 C 0.08050(15) 0.0178(2) 0.4805(3)
H27_2 H 0.0813 0.0008 0.4158
C37_2 C 0.13155(15) 0.0456(2) 0.5287(3)
H28_2 H 0.1664 0.0457 0.4964
O7_2 O 0.23288(9) 0.10876(15) 0.62310(17)
O8_2 O 0.18644(10) 0.13775(17) 0.75583(18)
C36_3 C 0.91950(15) 0.0178(2) 0.0195(3)
H27_3 H 0.9187 0.0008 0.0842
H28_3 H 0.8336 0.0457 0.0036
C1_3 C 0.2676(2) 0.3440(3) 0.6183(3)
H1_3 H 0.2885 0.3412 0.5619
C2_3 C 0.2406(2) 0.4070(3) 0.6495(3)
H2_3 H 0.2391 0.4552 0.6189
C3_3 C 0.22842(17) 0.3140(2) 0.7472(3)
H3_3 H 0.2157 0.2854 0.7995
C4_3 C 0.1789(2) 0.4407(3) 0.7883(3)
H4_3 H 0.1888 0.4940 0.7738
H5_3 H 0.1375 0.4326 0.7668
C5_3 C 0.1883(2) 0.4260(3) 0.9115(4)
H6_3 H 0.1784 0.4723 0.9474
H7_3 H 0.2289 0.4113 0.9310
C6_3 C 0.1497(3) 0.3665(4) 0.9278(5)
H8_3 H 0.1110 0.3758 0.8947
H9_3 H 0.1648 0.3172 0.9061
C10_3 C 0.37971(16) 0.1407(2) 0.5474(3)
C11_3 C 0.41530(14) 0.1438(2) 0.4590(3)
C12_3 C 0.41495(15) 0.2078(2) 0.3979(3)
H13_3 H 0.3919 0.2507 0.4114
C13_3 C 0.44861(15) 0.2087(2) 0.3169(3)
H14_3 H 0.4487 0.2528 0.2775
C14_3 C 0.48221(14) 0.1446(2) 0.2935(2)
C15_3 C 0.48132(16) 0.0799(2) 0.3546(3)
H15 H 0.5032 0.0361 0.3405
C16_3 C 0.44844(15) 0.0802(2) 0.4357(3)
H16_3 H 0.4485 0.0365 0.4757
N1_3 N 0.26029(11) 0.28522(17) 0.6805(2)
N2_3 N 0.21582(12) 0.38844(17) 0.7329(2)
O1_3 O 0.34938(10) 0.20066(16) 0.56576(19)
O2_3 O 0.38190(14) 0.08282(17) 0.5991(2)
C25 C 0.58470(14) 0.1438(2) 0.0410(3)
C26 C 0.58505(15) 0.2078(2) 0.1021(3)
H21 H 0.6081 0.2507 0.0886
C27 C 0.55139(15) 0.2087(2) 0.1831(3)
H22 H 0.5513 0.2528 0.2225
C28 C 0.51779(14) 0.1446(2) 0.2065(2)
C29 C 0.51868(16) 0.0799(2) 0.1454(3)
H23_3 H 0.4968 0.0361 0.1595
C30 C 0.55156(15) 0.0802(2) 0.0643(3)
H24 H 0.5515 0.0365 0.0243
C24 C 0.87971(16) 0.3593(2) 0.0474(3)
O5 O 0.84938(10) 0.29934(16) 0.06576(19)
O6 O 0.88190(14) 0.41718(17) 0.0991(2)
Zn2 Zn 0.797197(16) 0.32113(2) 0.17128(3)
C38 C 0.7676(2) 0.1560(3) 0.1183(3)
H29 H 0.7885 0.1588 0.0619
C39 C 0.7406(2) 0.0930(3) 0.1495(3)
H30 H 0.7391 0.0448 0.1189
C40 C 0.72842(17) 0.1860(2) 0.2472(3)
H31 H 0.7157 0.2146 0.2995
C41 C 0.6789(2) 0.0593(3) 0.2883(3)
H32 H 0.6888 0.0060 0.2738
H33 H 0.6375 0.0674 0.2668
C42 C 0.6883(2) 0.0740(3) 0.4115(4)
H34 H 0.6784 0.0277 0.4474
H35 H 0.7289 0.0887 0.4310
C43 C 0.6497(3) 0.1335(4) 0.4278(5)
H36 H 0.6110 0.1242 0.3947
H37 H 0.6648 0.1828 0.4061
C44 C 0.68787(19) 0.1460(3) 0.6142(3)
H38 H 0.7279 0.1539 0.6062
C45 C 0.5952(2) 0.1222(3) 0.5808(4)
H39 H 0.5590 0.1102 0.5473
C46 C 0.60494(18) 0.1338(2) 0.6768(3)
H40 H 0.5762 0.1324 0.7223
N5 N 0.76029(11) 0.21478(17) 0.1805(2)
N6 N 0.71582(12) 0.11156(17) 0.2329(2)
N7 N 0.6474(2) 0.1310(3) 0.5410(3)
N8 N 0.66429(12) 0.14827(17) 0.6984(2)
Zn5 Zn 0.702803(16) 0.17887(2) 0.82872(3)
N10 N 0.83571(12) 0.35173(17) 0.3016(2)
O9 O 0.73288(9) 0.39124(15) 0.12310(17)
C17_2 C 0.68710(14) 0.3915(2) 0.1724(3)
C18_2 C 0.63252(13) 0.42685(19) 0.1233(2)
C19_2 C 0.58052(15) 0.4310(3) 0.1695(3)
H17_2 H 0.5798 0.4140 0.2342
C20_2 C 0.52958(15) 0.4599(3) 0.1217(3)
H18_2 H 0.4952 0.4621 0.1552
C21_2 C 0.52786(13) 0.48553(19) 0.0261(2)
C23_2 C 0.63155(15) 0.4544(2) 0.0287(3)
O4_2 O 0.68644(10) 0.36225(17) 0.25583(18)
C36_4 C 0.41950(15) 0.5178(2) 0.0195(3)
H27_4 H 0.4187 0.5008 0.0842
H28_4 H 0.3336 0.5457 0.0036
C31_3 C 0.81290(14) 0.1085(2) 0.8276(3)
C32_3 C 0.86748(13) 0.07315(19) 0.8767(2)
C33_3 C 0.91948(15) 0.0690(3) 0.8305(3)
H25_3 H 0.9202 0.0860 0.7658
C34_3 C 0.97042(15) 0.0401(3) 0.8783(3)
C35_3 C 0.97214(13) 0.01447(19) 0.9739(2)
C37_3 C 0.86845(15) 0.0456(2) 0.9713(3)
O7_3 O 0.76712(9) 0.10876(15) 0.87690(17)
O8_3 O 0.81356(10) 0.13775(17) 0.74417(18)
H15_2 H 0.0032 0.5361 0.3405
C25_2 C 0.08470(14) 0.6438(2) 0.0410(3)
C26_2 C 0.08505(15) 0.7078(2) 0.1021(3)
H21_2 H 0.1081 0.7507 0.0886
C27_2 C 0.05139(15) 0.7087(2) 0.1831(3)
H22_2 H 0.0513 0.7528 0.2225
C28_2 C 0.01779(14) 0.6446(2) 0.2065(2)
C29_2 C 0.01868(16) 0.5799(2) 0.1454(3)
C30_2 C 0.05156(15) 0.5802(2) 0.0643(3)
H24_2 H 0.0515 0.5365 0.0243
C24_2 C 0.62029(16) 0.1407(2) 0.9526(3)
O5_2 O 0.65062(10) 0.20066(16) 0.93424(19)
O6_2 O 0.61810(14) 0.08282(17) 0.9009(2)
C38_2 C 0.7324(2) 0.3440(3) 0.8817(3)
H29_2 H 0.7115 0.3412 0.9381
C39_2 C 0.7594(2) 0.4070(3) 0.8505(3)
H30_2 H 0.7609 0.4552 0.8811
C40_2 C 0.77158(17) 0.3140(2) 0.7528(3)
H31_2 H 0.7843 0.2854 0.7005
C41_2 C 0.8211(2) 0.4407(3) 0.7117(3)
H32_2 H 0.8112 0.4940 0.7262
H33_2 H 0.8625 0.4326 0.7332
C42_2 C 0.8117(2) 0.4260(3) 0.5885(4)
H34_2 H 0.8216 0.4723 0.5526
H35_2 H 0.7711 0.4113 0.5690
C43_2 C 0.8503(3) 0.3665(4) 0.5722(5)
H36_2 H 0.8890 0.3758 0.6053
H37_2 H 0.8352 0.3172 0.5939
C44_2 C 0.81213(19) 0.3540(3) 0.3858(3)
H38_2 H 0.7721 0.3461 0.3938
C45_2 C 0.9048(2) 0.3778(3) 0.4192(4)
H39_2 H 0.9410 0.3898 0.4527
C46_2 C 0.89506(18) 0.3662(2) 0.3232(3)
H40_2 H 0.9238 0.3676 0.2777
N5_2 N 0.73971(11) 0.28522(17) 0.8195(2)
N6_2 N 0.78418(12) 0.38844(17) 0.7671(2)
N7_2 N 0.8526(2) 0.3690(3) 0.4590(3)
H15_3 H 0.9968 0.4639 0.6595
C25_3 C 0.91530(14) 0.3562(2) 0.9590(3)
C26_3 C 0.91495(15) 0.2922(2) 0.8979(3)
H21_3 H 0.8919 0.2493 0.9114
C27_3 C 0.94861(15) 0.2913(2) 0.8169(3)
H22_3 H 0.9487 0.2472 0.7775
C28_3 C 0.98221(14) 0.3554(2) 0.7935(2)
C29_3 C 0.98132(16) 0.4201(2) 0.8546(3)
C30_3 C 0.94844(15) 0.4198(2) 0.9357(3)
H24_3 H 0.9485 0.4635 0.9757
C22_2 C 0.58050(15) 0.4822(2) 0.9805(3)
H19_2 H 0.5813 0.4992 0.9158
H20_2 H 0.6664 0.4543 0.9964
C31_4 C 0.31290(14) 0.6085(2) 0.8276(3)
C32_4 C 0.36748(13) 0.57315(19) 0.8767(2)
C33_4 C 0.41948(15) 0.5690(3) 0.8305(3)
H25_4 H 0.4202 0.5860 0.7658
C34_4 C 0.47042(15) 0.5401(3) 0.8783(3)
H26_2 H 0.5048 0.5379 0.8448
C35_4 C 0.47214(13) 0.51447(19) 0.9739(2)
C37_4 C 0.36845(15) 0.5456(2) 0.9713(3)
O7_4 O 0.26712(9) 0.60876(15) 0.87690(17)
O8_4 O 0.31356(10) 0.63775(17) 0.74417(18)
Zn3_2 Zn 0.202803(16) 0.67887(2) 0.82872(3)
C24_3 C 0.37971(16) 0.8593(2) 0.0474(3)
O5_3 O 0.34938(10) 0.79934(16) 0.06576(19)
O6_3 O 0.38190(14) 0.91718(17) 0.0991(2)
Zn2_2 Zn 0.297197(16) 0.82113(2) 0.17128(3)
C38_3 C 0.2676(2) 0.6560(3) 0.1183(3)
H29_3 H 0.2885 0.6588 0.0619
C39_3 C 0.2406(2) 0.5930(3) 0.1495(3)
H30_3 H 0.2391 0.5448 0.1189
C40_3 C 0.22842(17) 0.6860(2) 0.2472(3)
H31_3 H 0.2157 0.7146 0.2995
C41_3 C 0.1789(2) 0.5593(3) 0.2883(3)
H32_3 H 0.1888 0.5060 0.2738
H33_3 H 0.1375 0.5674 0.2668
C42_3 C 0.1883(2) 0.5740(3) 0.4115(4)
H34_3 H 0.1784 0.5277 0.4474
H35_3 H 0.2289 0.5887 0.4310
C43_3 C 0.1497(3) 0.6335(4) 0.4278(5)
H36_3 H 0.1110 0.6242 0.3947
H37_3 H 0.1648 0.6828 0.4061
C44_3 C 0.18787(19) 0.6460(3) 0.6142(3)
H38_3 H 0.2279 0.6539 0.6062
C45_3 C 0.0952(2) 0.6222(3) 0.5808(4)
H39_3 H 0.0590 0.6102 0.5473
C46_3 C 0.10494(18) 0.6338(2) 0.6768(3)
H40_3 H 0.0762 0.6324 0.7223
N5_3 N 0.26029(11) 0.71478(17) 0.1805(2)
N6_3 N 0.21582(12) 0.61156(17) 0.2329(2)
N7_3 N 0.1474(2) 0.6310(3) 0.5410(3)
N8_2 N 0.16429(12) 0.64827(17) 0.6984(2)
N10_2 N 0.33571(12) 0.85173(17) 0.3016(2)
O9_2 O 0.23288(9) 0.89124(15) 0.12310(17)
C17_3 C 0.18710(14) 0.8915(2) 0.1724(3)
C18_3 C 0.13252(13) 0.92685(19) 0.1233(2)
C19_3 C 0.08052(15) 0.9310(3) 0.1695(3)
H17_3 H 0.0798 0.9140 0.2342
C20_3 C 0.02958(15) 0.9599(3) 0.1217(3)
C21_3 C 0.02786(13) 0.98553(19) 0.0261(2)
C23_3 C 0.13155(15) 0.9544(2) 0.0287(3)
O4_3 O 0.18644(10) 0.86225(17) 0.25583(18)
C24_4 C 0.12029(16) 0.6407(2) 0.9526(3)
O5_4 O 0.15062(10) 0.70066(16) 0.93424(19)
O6_4 O 0.11810(14) 0.58282(17) 0.9009(2)
C38_4 C 0.2324(2) 0.8440(3) 0.8817(3)
H29_4 H 0.2115 0.8412 0.9381
C39_4 C 0.2594(2) 0.9070(3) 0.8505(3)
H30_4 H 0.2609 0.9552 0.8811
C40_4 C 0.27158(17) 0.8140(2) 0.7528(3)
H31_4 H 0.2843 0.7854 0.7005
C41_4 C 0.3211(2) 0.9407(3) 0.7117(3)
H32_4 H 0.3112 0.9940 0.7262
H33_4 H 0.3625 0.9326 0.7332
C42_4 C 0.3117(2) 0.9260(3) 0.5885(4)
H34_4 H 0.3216 0.9723 0.5526
H35_4 H 0.2711 0.9113 0.5690
C43_4 C 0.3503(3) 0.8665(4) 0.5722(5)
H36_4 H 0.3890 0.8758 0.6053
H37_4 H 0.3352 0.8172 0.5939
C44_4 C 0.31213(19) 0.8540(3) 0.3858(3)
H38_4 H 0.2721 0.8461 0.3938
C45_4 C 0.4048(2) 0.8778(3) 0.4192(4)
H39_4 H 0.4410 0.8898 0.4527
C46_4 C 0.39506(18) 0.8662(2) 0.3232(3)
H40_4 H 0.4238 0.8676 0.2777
N5_4 N 0.23971(11) 0.78522(17) 0.8195(2)
N6_4 N 0.28418(12) 0.88844(17) 0.7671(2)
N7_4 N 0.3526(2) 0.8690(3) 0.4590(3)
H18_3 H 0.0048 0.9621 0.3448
H26_3 H 0.9952 0.0379 0.6552
Zn1_2 Zn 0.702803(16) 0.82113(2) 0.32872(3)
C1_4 C 0.7324(2) 0.6560(3) 0.3817(3)
H1_4 H 0.7115 0.6588 0.4381
C2_4 C 0.7594(2) 0.5930(3) 0.3505(3)
H2_4 H 0.7609 0.5448 0.3811
C3_4 C 0.77158(17) 0.6860(2) 0.2528(3)
H3_4 H 0.7843 0.7146 0.2005
C4_4 C 0.8211(2) 0.5593(3) 0.2117(3)
H4_4 H 0.8112 0.5060 0.2262
H5_4 H 0.8625 0.5674 0.2332
C5_4 C 0.8117(2) 0.5740(3) 0.0885(4)
H6_4 H 0.8216 0.5277 0.0526
H7_4 H 0.7711 0.5887 0.0690
C6_4 C 0.8503(3) 0.6335(4) 0.0722(5)
H8_4 H 0.8890 0.6242 0.1053
H9_4 H 0.8352 0.6828 0.0939
C10_4 C 0.62029(16) 0.8593(2) 0.4526(3)
C11_4 C 0.58470(14) 0.8562(2) 0.5410(3)
C12_4 C 0.58505(15) 0.7922(2) 0.6021(3)
H13_4 H 0.6081 0.7493 0.5886
C13_4 C 0.55139(15) 0.7913(2) 0.6831(3)
H14_4 H 0.5513 0.7472 0.7225
C14_4 C 0.51779(14) 0.8554(2) 0.7065(2)
C15_4 C 0.51868(16) 0.9201(2) 0.6454(3)
H15_4 H 0.4968 0.9639 0.6595
C16_4 C 0.55156(15) 0.9198(2) 0.5643(3)
H16_4 H 0.5515 0.9635 0.5243
C17_4 C 0.81290(14) 0.8915(2) 0.3276(3)
C18_4 C 0.86748(13) 0.92685(19) 0.3767(2)
C19_4 C 0.91948(15) 0.9310(3) 0.3305(3)
H17_4 H 0.9202 0.9140 0.2658
C20_4 C 0.97042(15) 0.9599(3) 0.3783(3)
C21_4 C 0.97214(13) 0.98553(19) 0.4739(2)
C22_3 C 0.91950(15) 0.9822(2) 0.5195(3)
H19_3 H 0.9187 0.9992 0.5842
C23_4 C 0.86845(15) 0.9544(2) 0.4713(3)
H20_3 H 0.8336 0.9543 0.5036
N1_4 N 0.73971(11) 0.71478(17) 0.3195(2)
N2_4 N 0.78418(12) 0.61156(17) 0.2671(2)
O1_4 O 0.65062(10) 0.79934(16) 0.43424(19)
O2_4 O 0.61810(14) 0.91718(17) 0.4009(2)
O3_2 O 0.76712(9) 0.89124(15) 0.37690(17)
O4_4 O 0.81356(10) 0.86225(17) 0.24417(18)
C25_4 C 0.41530(14) 0.8562(2) 0.9590(3)
C26_4 C 0.41495(15) 0.7922(2) 0.8979(3)
H21_4 H 0.3919 0.7493 0.9114
C27_4 C 0.44861(15) 0.7913(2) 0.8169(3)
H22_4 H 0.4487 0.7472 0.7775
C28_4 C 0.48221(14) 0.8554(2) 0.7935(2)
C29_4 C 0.48132(16) 0.9201(2) 0.8546(3)
H23_4 H 0.5032 0.9639 0.8405
C30_4 C 0.44844(15) 0.9198(2) 0.9357(3)
H24_4 H 0.4485 0.9635 0.9757
N9_2 N 0.66429(12) 0.85173(17) 0.1984(2)
C22_4 C 0.08050(15) 0.9822(2) 0.9805(3)
H19_4 H 0.0813 0.9992 0.9158
H20_4 H 0.1664 0.9543 0.9964
C7_4 C 0.68787(19) 0.8540(3) 0.1142(3)
H10_4 H 0.7279 0.8461 0.1062
C8_4 C 0.5952(2) 0.8778(3) 0.0808(4)
H11_4 H 0.5590 0.8898 0.0473
C9_4 C 0.60494(18) 0.8662(2) 0.1768(3)
H12_4 H 0.5762 0.8676 0.2223
N3_4 N 0.6474(2) 0.8690(3) 0.0410(3)
H26_4 H 0.0048 0.0379 0.8448
H18_4 H 0.9952 0.9621 0.1552
loop_
_geom_bond_atom_site_label_1
_geom_bond_atom_site_label_2
_geom_bond_site_symmetry_1
_geom_bond_site_symmetry_2
Zn1 N1 1_555 1_555
C1 H1 1_555 1_555
C2 C1 1_555 1_555
H2 C2 1_555 1_555
C3 H3 1_555 1_555
C4 H4 1_555 1_555
H5 C4 1_555 1_555
C5 C4 1_555 1_555
H6 C5 1_555 1_555
H7 C5 1_555 1_555
C6 C5 1_555 1_555
H8 C6 1_555 1_555
H9 C6 1_555 1_555
C10 C11 1_555 1_555
C11 C12 1_555 1_555
C12 H13 1_555 1_555
C13 C12 1_555 1_555
H14 C13 1_555 1_555
C14 C13 1_555 1_555
C15 C14 1_555 1_555
C16 C11 1_555 1_555
H16 C16 1_555 1_555
C17 C18 1_555 1_555
C18 C19 1_555 1_555
C19 H17 1_555 1_555
C20 C19 1_555 1_555
H18 C20 1_555 1_555
C21 C20 1_555 1_555
C22 C21 1_555 1_555
H19 C22 1_555 1_555
C23 C18 1_555 1_555
H20 C23 1_555 1_555
N1 C1 1_555 1_555
N2 C2 1_555 1_555
O1 Zn1 1_555 1_555
O2 C10 1_555 1_555
O3 Zn1 1_555 1_555
O4 C17 1_555 1_555
C31 C32 1_555 1_555
C32 C33 1_555 1_555
C33 H25 1_555 1_555
C34 C33 1_555 1_555
H26 C34 1_555 1_555
C35 C21 1_555 1_555
C36 C35 1_555 1_555
H27 C36 1_555 1_555
C37 C32 1_555 1_555
H28 C37 1_555 1_555
O7 C31 1_555 1_555
O8 C31 1_555 1_555
Zn3 O7 1_555 1_555
N9 Zn1 1_555 1_555
C3 N1 1_555 1_555
C3 N2 1_555 1_555
C4 N2 1_555 1_555
C10 O1 1_555 1_555
C15 C16 1_555 1_555
C17 O3 1_555 1_555
C22 C23 1_555 1_555
C34 C35 1_555 1_555
C36 C37 1_555 1_555
C7 H10 1_555 1_555
C8 H11 1_555 1_555
C9 C8 1_555 1_555
H12 C9 1_555 1_555
N4 C7 1_555 1_555
Zn3 N4 1_555 1_555
C7 N3 1_555 1_555
C8 N3 1_555 1_555
C9 N4 1_555 1_555
Zn3 N1_2 1_555 1_555
C1_2 H1_2 1_555 1_555
C2_2 C1_2 1_555 1_555
H2_2 C2_2 1_555 1_555
C3_2 H3_2 1_555 1_555
C4_2 H4_2 1_555 1_555
H5_2 C4_2 1_555 1_555
C5_2 C4_2 1_555 1_555
H6_2 C5_2 1_555 1_555
H7_2 C5_2 1_555 1_555
C6_2 C5_2 1_555 1_555
H8_2 C6_2 1_555 1_555
H9_2 C6_2 1_555 1_555
C10_2 C11_2 1_555 1_555
C11_2 C12_2 1_555 1_555
C12_2 H13_2 1_555 1_555
C13_2 C12_2 1_555 1_555
H14_2 C13_2 1_555 1_555
C14_2 C13_2 1_555 1_555
C15_2 C14_2 1_555 1_555
C16_2 C11_2 1_555 1_555
H16_2 C16_2 1_555 1_555
N1_2 C1_2 1_555 1_555
N2_2 C2_2 1_555 1_555
O1_2 Zn3 1_555 1_555
O2_2 C10_2 1_555 1_555
C3_2 N1_2 1_555 1_555
C3_2 N2_2 1_555 1_555
C4_2 N2_2 1_555 1_555
C10_2 O1_2 1_555 1_555
C15_2 C16_2 1_555 1_555
C7_2 H10_2 1_555 1_555
C8_2 H11_2 1_555 1_555
C9_2 C8_2 1_555 1_555
H12_2 C9_2 1_555 1_555
N9 C7_2 1_555 1_555
C7_2 N3_2 1_555 1_555
C8_2 N3_2 1_555 1_555
C9_2 N9 1_555 1_555
C7_3 H10_3 1_555 1_555
C8_3 H11_3 1_555 1_555
C9_3 C8_3 1_555 1_555
H12_3 C9_3 1_555 1_555
N4_2 C7_3 1_555 1_555
Zn4 N4_2 1_555 1_555
C7_3 N3_3 1_555 1_555
C8_3 N3_3 1_555 1_555
C9_3 N4_2 1_555 1_555
C31_2 C32_2 1_555 1_555
C32_2 C33_2 1_555 1_555
C33_2 H25_2 1_555 1_555
C34_2 C33_2 1_555 1_555
C36_2 C35_2 1_555 1_555
H27_2 C36_2 1_555 1_555
C37_2 C32_2 1_555 1_555
H28_2 C37_2 1_555 1_555
O7_2 C31_2 1_555 1_555
O8_2 C31_2 1_555 1_555
Zn4 O7_2 1_555 1_555
C34_2 C35_2 1_555 1_555
C36_2 C37_2 1_555 1_555
H27_3 C36_3 1_555 1_555
Zn4 N1_3 1_555 1_555
C1_3 H1_3 1_555 1_555
C2_3 C1_3 1_555 1_555
H2_3 C2_3 1_555 1_555
C3_3 H3_3 1_555 1_555
C4_3 H4_3 1_555 1_555
H5_3 C4_3 1_555 1_555
C5_3 C4_3 1_555 1_555
H6_3 C5_3 1_555 1_555
H7_3 C5_3 1_555 1_555
C6_3 C5_3 1_555 1_555
H8_3 C6_3 1_555 1_555
H9_3 C6_3 1_555 1_555
C10_3 C11_3 1_555 1_555
C11_3 C12_3 1_555 1_555
C12_3 H13_3 1_555 1_555
C13_3 C12_3 1_555 1_555
H14_3 C13_3 1_555 1_555
C14_3 C13_3 1_555 1_555
C15_3 C14_3 1_555 1_555
H15 C15_3 1_555 1_555
C16_3 C11_3 1_555 1_555
H16_3 C16_3 1_555 1_555
N1_3 C1_3 1_555 1_555
N2_3 C2_3 1_555 1_555
O1_3 Zn4 1_555 1_555
O2_3 C10_3 1_555 1_555
C25 C26 1_555 1_555
C26 H21 1_555 1_555
C27 C26 1_555 1_555
H22 C27 1_555 1_555
C28 C14_3 1_555 1_555
C29 C28 1_555 1_555
H23_3 C29 1_555 1_555
C30 C25 1_555 1_555
H24 C30 1_555 1_555
C3_3 N1_3 1_555 1_555
C3_3 N2_3 1_555 1_555
C4_3 N2_3 1_555 1_555
C10_3 O1_3 1_555 1_555
C15_3 C16_3 1_555 1_555
C27 C28 1_555 1_555
C29 C30 1_555 1_555
O5 C24 1_555 1_555
O6 C24 1_555 1_555
Zn2 O5 1_555 1_555
C38 H29 1_555 1_555
C39 C38 1_555 1_555
H30 C39 1_555 1_555
C40 H31 1_555 1_555
C41 H32 1_555 1_555
H33 C41 1_555 1_555
C42 C41 1_555 1_555
H34 C42 1_555 1_555
H35 C42 1_555 1_555
C43 C42 1_555 1_555
H36 C43 1_555 1_555
H37 C43 1_555 1_555
C44 H38 1_555 1_555
C45 H39 1_555 1_555
C46 C45 1_555 1_555
H40 C46 1_555 1_555
N5 Zn2 1_555 1_555
N6 C39 1_555 1_555
N7 C43 1_555 1_555
N8 C44 1_555 1_555
Zn5 N8 1_555 1_555
N10 Zn2 1_555 1_555
O9 Zn2 1_555 1_555
C38 N5 1_555 1_555
C40 N5 1_555 1_555
C40 N6 1_555 1_555
C41 N6 1_555 1_555
C44 N7 1_555 1_555
C45 N7 1_555 1_555
C46 N8 1_555 1_555
C17_2 C18_2 1_555 1_555
C18_2 C19_2 1_555 1_555
C19_2 H17_2 1_555 1_555
C20_2 C19_2 1_555 1_555
H18_2 C20_2 1_555 1_555
C21_2 C20_2 1_555 1_555
C23_2 C18_2 1_555 1_555
O4_2 C17_2 1_555 1_555
H27_4 C36_4 1_555 1_555
C17_2 O9 1_555 1_555
C31_3 C32_3 1_555 1_555
C32_3 C33_3 1_555 1_555
C33_3 H25_3 1_555 1_555
C34_3 C33_3 1_555 1_555
C37_3 C32_3 1_555 1_555
O7_3 C31_3 1_555 1_555
O8_3 C31_3 1_555 1_555
Zn5 O7_3 1_555 1_555
C34_3 C35_3 1_555 1_555
C25_2 C26_2 1_555 1_555
C26_2 H21_2 1_555 1_555
C27_2 C26_2 1_555 1_555
H22_2 C27_2 1_555 1_555
C29_2 C28_2 1_555 1_555
C30_2 C25_2 1_555 1_555
H24_2 C30_2 1_555 1_555
C27_2 C28_2 1_555 1_555
C29_2 C30_2 1_555 1_555
O5_2 C24_2 1_555 1_555
O6_2 C24_2 1_555 1_555
Zn5 O5_2 1_555 1_555
C38_2 H29_2 1_555 1_555
C39_2 C38_2 1_555 1_555
H30_2 C39_2 1_555 1_555
C40_2 H31_2 1_555 1_555
C41_2 H32_2 1_555 1_555
H33_2 C41_2 1_555 1_555
C42_2 C41_2 1_555 1_555
H34_2 C42_2 1_555 1_555
H35_2 C42_2 1_555 1_555
C43_2 C42_2 1_555 1_555
H36_2 C43_2 1_555 1_555
H37_2 C43_2 1_555 1_555
C44_2 H38_2 1_555 1_555
C45_2 H39_2 1_555 1_555
C46_2 C45_2 1_555 1_555
H40_2 C46_2 1_555 1_555
N5_2 Zn5 1_555 1_555
N6_2 C39_2 1_555 1_555
N7_2 C43_2 1_555 1_555
N10 C44_2 1_555 1_555
C38_2 N5_2 1_555 1_555
C40_2 N5_2 1_555 1_555
C40_2 N6_2 1_555 1_555
C41_2 N6_2 1_555 1_555
C44_2 N7_2 1_555 1_555
C45_2 N7_2 1_555 1_555
C46_2 N10 1_555 1_555
C25_3 C26_3 1_555 1_555
C26_3 H21_3 1_555 1_555
C27_3 C26_3 1_555 1_555
H22_3 C27_3 1_555 1_555
C29_3 C28_3 1_555 1_555
C30_3 C25_3 1_555 1_555
H24_3 C30_3 1_555 1_555
C27_3 C28_3 1_555 1_555
C29_3 C30_3 1_555 1_555
H19_2 C22_2 1_555 1_555
C31_4 C32_4 1_555 1_555
C32_4 C33_4 1_555 1_555
C33_4 H25_4 1_555 1_555
C34_4 C33_4 1_555 1_555
H26_2 C34_4 1_555 1_555
C37_4 C32_4 1_555 1_555
O7_4 C31_4 1_555 1_555
O8_4 C31_4 1_555 1_555
Zn3_2 O7_4 1_555 1_555
C34_4 C35_4 1_555 1_555
O5_3 C24_3 1_555 1_555
O6_3 C24_3 1_555 1_555
Zn2_2 O5_3 1_555 1_555
C38_3 H29_3 1_555 1_555
C39_3 C38_3 1_555 1_555
H30_3 C39_3 1_555 1_555
C40_3 H31_3 1_555 1_555
C41_3 H32_3 1_555 1_555
H33_3 C41_3 1_555 1_555
C42_3 C41_3 1_555 1_555
H34_3 C42_3 1_555 1_555
H35_3 C42_3 1_555 1_555
C43_3 C42_3 1_555 1_555
H36_3 C43_3 1_555 1_555
H37_3 C43_3 1_555 1_555
C44_3 H38_3 1_555 1_555
C45_3 H39_3 1_555 1_555
C46_3 C45_3 1_555 1_555
H40_3 C46_3 1_555 1_555
N5_3 Zn2_2 1_555 1_555
N6_3 C39_3 1_555 1_555
N7_3 C43_3 1_555 1_555
N8_2 C44_3 1_555 1_555
Zn3_2 N8_2 1_555 1_555
N10_2 Zn2_2 1_555 1_555
O9_2 Zn2_2 1_555 1_555
C38_3 N5_3 1_555 1_555
C40_3 N5_3 1_555 1_555
C40_3 N6_3 1_555 1_555
C41_3 N6_3 1_555 1_555
C44_3 N7_3 1_555 1_555
C45_3 N7_3 1_555 1_555
C46_3 N8_2 1_555 1_555
C17_3 C18_3 1_555 1_555
C18_3 C19_3 1_555 1_555
C19_3 H17_3 1_555 1_555
C20_3 C19_3 1_555 1_555
C21_3 C20_3 1_555 1_555
C23_3 C18_3 1_555 1_555
O4_3 C17_3 1_555 1_555
C17_3 O9_2 1_555 1_555
O5_4 C24_4 1_555 1_555
O6_4 C24_4 1_555 1_555
Zn3_2 O5_4 1_555 1_555
C38_4 H29_4 1_555 1_555
C39_4 C38_4 1_555 1_555
H30_4 C39_4 1_555 1_555
C40_4 H31_4 1_555 1_555
C41_4 H32_4 1_555 1_555
H33_4 C41_4 1_555 1_555
C42_4 C41_4 1_555 1_555
H34_4 C42_4 1_555 1_555
H35_4 C42_4 1_555 1_555
C43_4 C42_4 1_555 1_555
H36_4 C43_4 1_555 1_555
H37_4 C43_4 1_555 1_555
C44_4 H38_4 1_555 1_555
C45_4 H39_4 1_555 1_555
C46_4 C45_4 1_555 1_555
H40_4 C46_4 1_555 1_555
N5_4 Zn3_2 1_555 1_555
N6_4 C39_4 1_555 1_555
N7_4 C43_4 1_555 1_555
N10_2 C44_4 1_555 1_555
C38_4 N5_4 1_555 1_555
C40_4 N5_4 1_555 1_555
C40_4 N6_4 1_555 1_555
C41_4 N6_4 1_555 1_555
C44_4 N7_4 1_555 1_555
C45_4 N7_4 1_555 1_555
C46_4 N10_2 1_555 1_555
Zn1_2 N1_4 1_555 1_555
C1_4 H1_4 1_555 1_555
C2_4 C1_4 1_555 1_555
H2_4 C2_4 1_555 1_555
C3_4 H3_4 1_555 1_555
C4_4 H4_4 1_555 1_555
H5_4 C4_4 1_555 1_555
C5_4 C4_4 1_555 1_555
H6_4 C5_4 1_555 1_555
H7_4 C5_4 1_555 1_555
C6_4 C5_4 1_555 1_555
H8_4 C6_4 1_555 1_555
H9_4 C6_4 1_555 1_555
C10_4 C11_4 1_555 1_555
C11_4 C12_4 1_555 1_555
C12_4 H13_4 1_555 1_555
C13_4 C12_4 1_555 1_555
H14_4 C13_4 1_555 1_555
C14_4 C13_4 1_555 1_555
C15_4 C14_4 1_555 1_555
H15_4 C15_4 1_555 1_555
C16_4 C11_4 1_555 1_555
H16_4 C16_4 1_555 1_555
C17_4 C18_4 1_555 1_555
C18_4 C19_4 1_555 1_555
C19_4 H17_4 1_555 1_555
C20_4 C19_4 1_555 1_555
C21_4 C20_4 1_555 1_555
C22_3 C21_4 1_555 1_555
H19_3 C22_3 1_555 1_555
C23_4 C18_4 1_555 1_555
H20_3 C23_4 1_555 1_555
N1_4 C1_4 1_555 1_555
N2_4 C2_4 1_555 1_555
O1_4 Zn1_2 1_555 1_555
O2_4 C10_4 1_555 1_555
O3_2 Zn1_2 1_555 1_555
O4_4 C17_4 1_555 1_555
C25_4 C26_4 1_555 1_555
C26_4 H21_4 1_555 1_555
C27_4 C26_4 1_555 1_555
H22_4 C27_4 1_555 1_555
C28_4 C14_4 1_555 1_555
C29_4 C28_4 1_555 1_555
H23_4 C29_4 1_555 1_555
C30_4 C25_4 1_555 1_555
H24_4 C30_4 1_555 1_555
N9_2 Zn1_2 1_555 1_555
C3_4 N1_4 1_555 1_555
C3_4 N2_4 1_555 1_555
C4_4 N2_4 1_555 1_555
C10_4 O1_4 1_555 1_555
C15_4 C16_4 1_555 1_555
C17_4 O3_2 1_555 1_555
C22_3 C23_4 1_555 1_555
C27_4 C28_4 1_555 1_555
C29_4 C30_4 1_555 1_555
H19_4 C22_4 1_555 1_555
C7_4 H10_4 1_555 1_555
C8_4 H11_4 1_555 1_555
C9_4 C8_4 1_555 1_555
H12_4 C9_4 1_555 1_555
N9_2 C7_4 1_555 1_555
C7_4 N3_4 1_555 1_555
C8_4 N3_4 1_555 1_555
C9_4 N9_2 1_555 1_555

#END
