
###############################################################################
#
# This file contains modified crystal structure data generated from the
# MOF subset of the Cambridge Structural Database (CSD) v543 
# hosted by the Cambridge Crystallographic Data Centre (CCDC).
#
# This work is licensed under the Creative Commons
# Attribution-NonCommercial-ShareAlike 4.0 International License.
# To view a copy of this license, visit
# http://creativecommons.org/licenses/by-nc-sa/4.0/
# or send a letter to
# Creative Commons, PO Box 1866, Mountain View, CA 94042, USA.
#
# CIF created using the CSD Python API on 29 September 2022
# The structure has been converted into the P1 space group
# The structure has a 3D framework
# The original CSD entry OCIHIS is in the monoclinic crystal system
# The framework has been calculated to contain at least 10.0% void space
# The void calculation uses a probe of radius 1.32A, grid spacing 0.4
# The framework is charged, counterions have been retained in the structure
# H atom positions have been added when not included in the experimental data
#
###############################################################################

data_OCIHIS
_chemical_formula_moiety         '(C40 H88 N8 Na8 O40 P16 Zr2)n'
_symmetry_cell_setting           triclinic
_symmetry_space_group_name_H-M   'P 1'
_symmetry_Int_Tables_number      1
_space_group_name_Hall           'P 1'
loop_
_symmetry_equiv_pos_site_id
_symmetry_equiv_pos_as_xyz
1 x,y,z
_cell_length_a                   18.923(1)
_cell_length_b                   16.5046(7)
_cell_length_c                   7.8437(3)
_cell_angle_alpha                90
_cell_angle_beta                 91.868(3)
_cell_angle_gamma                90
_cell_volume                     2448.42
loop_
_atom_site_label
_atom_site_type_symbol
_atom_site_fract_x
_atom_site_fract_y
_atom_site_fract_z
_atom_site_U_iso_or_equiv
_atom_site_thermal_displace_type
O2 O 0.0660(5) 0.0237(5) 0.353(2) 0.0450 Uiso
Zr2 Zr 0.0000 0.1086(2) 0.2500 0.0200 Uiso
O7 O 0.4371(5) 0.6986(5) 0.137(1) 0.0450 Uiso
O12 O 0.4163(8) 0.8528(6) 0.120(1) 0.0450 Uiso
P3 P 0.4328(4) 0.7764(4) 0.0114(8) 0.0480 Uiso
Zr6 Zr 0.5000 0.6086(2) 0.2500 0.0200 Uiso
C1 C 0.1190(8) 0.8753(7) 0.236(2) 0.0450 Uiso
O5 O 0.1717(5) 0.9680(7) 0.504(2) 0.0450 Uiso
P2 P 0.1045(4) 0.9460(4) 0.4063(9) 0.0340 Uiso
N1 N 0.1245(6) 0.7898(8) 0.298(2) 0.0450 Uiso
C2 C 0.2534(8) 0.804(1) 0.350(2) 0.0450 Uiso
C3 C 0.1365(7) 0.7367(9) 0.154(2) 0.0450 Uiso
C4 C 0.1823(7) 0.789(1) 0.432(2) 0.0450 Uiso
C5 C 0.1872(7) 0.705(1) 0.510(2) 0.0450 Uiso
O6 O 0.0570(6) 0.8973(8) 0.538(1) 0.0450 Uiso
O9 O 0.4340(5) 0.4763(5) 0.647(2) 0.0450 Uiso
C6 C 0.3810(8) 0.6247(7) 0.764(2) 0.0450 Uiso
O13 O 0.5016(5) 0.7916(9) 0.937(2) 0.0450 Uiso
O14 O 0.3283(5) 0.5320(7) 0.496(2) 0.0450 Uiso
P4 P 0.3955(4) 0.5540(4) 0.5937(9) 0.0340 Uiso
N2 N 0.3755(6) 0.7102(8) 0.702(2) 0.0450 Uiso
C7 C 0.2466(8) 0.696(1) 0.650(2) 0.0450 Uiso
C8 C 0.3635(7) 0.7633(9) 0.846(2) 0.0450 Uiso
C9 C 0.3177(7) 0.711(1) 0.568(2) 0.0450 Uiso
C10 C 0.3128(7) 0.795(1) 0.490(2) 0.0450 Uiso
O15 O 0.4430(6) 0.6027(8) 0.462(1) 0.0450 Uiso
Zr3 Zr 0.0000 0.8914(2) 0.7500 0.0200 Uiso
Zr4 Zr 0.5000 0.3914(2) 0.7500 0.0200 Uiso
H1 H 0.182848 0.759781 0.091102 . .
H2 H 0.148024 0.676819 0.206168 . .
H3 H 0.172692 0.834288 0.529521 . .
H4 H 0.167931 0.891327 0.1749 . .
H5 H 0.0750076 0.879545 0.143411 . .
H6 H 0.159998 0.999754 0.606842 . .
H7 H 0.254455 0.864881 0.296617 . .
H8 H 0.261153 0.759858 0.249125 . .
H9 H 0.197162 0.661748 0.408725 . .
H10 H 0.13683 0.691058 0.566573 . .
H11 H 0.424992 0.620455 0.856589 . .
H12 H 0.332069 0.608673 0.8251 . .
H13 H 0.351976 0.823181 0.793832 . .
H14 H 0.317152 0.740219 0.908898 . .
H15 H 0.297754 0.499043 0.569712 . .
H16 H 0.327308 0.665712 0.470479 . .
H17 H 0.245545 0.635119 0.703383 . .
H18 H 0.238847 0.740142 0.750875 . .
H19 H 0.302838 0.838252 0.591275 . .
H20 H 0.36317 0.808942 0.433427 . .
O1 O 0.0629(5) 0.8014(5) 0.863(1) 0.0450 Uiso
O3 O 0.0837(8) 0.6472(6) 0.880(1) 0.0450 Uiso
P1 P 0.0672(4) 0.7236(4) 0.9886(8) 0.0480 Uiso
O10 O 0.0660(5) 0.9763(5) 0.853(2) 0.0450 Uiso
Zr2_2 Zr 1.0000 0.1086(2) 0.2500 0.0200 Uiso
O4 O 0.9984(5) 0.7084(9) 0.063(2) 0.0450 Uiso
Zr3_2 Zr 1.0000 0.8914(2) 0.7500 0.0200 Uiso
O8 O 0.9371(5) 0.8014(5) 0.637(1) 0.0450 Uiso
O11 O 0.9340(5) 0.9763(5) 0.647(2) 0.0450 Uiso
O17 O 0.9430(6) 0.8973(8) 0.962(1) 0.0450 Uiso
O13_2 O 0.0016(5) 0.2916(9) 0.937(2) 0.0450 Uiso
O7_2 O 0.9371(5) 0.1986(5) 0.137(1) 0.0450 Uiso
O12_2 O 0.9163(8) 0.3528(6) 0.120(1) 0.0450 Uiso
P3_2 P 0.9328(4) 0.2764(4) 0.0114(8) 0.0480 Uiso
O2_2 O 0.5660(5) 0.5237(5) 0.353(2) 0.0450 Uiso
C1_2 C 0.6190(8) 0.3753(7) 0.236(2) 0.0450 Uiso
O4_2 O 0.4984(5) 0.2084(9) 0.063(2) 0.0450 Uiso
O5_2 O 0.6717(5) 0.4680(7) 0.504(2) 0.0450 Uiso
P2_2 P 0.6045(4) 0.4460(4) 0.4063(9) 0.0340 Uiso
N1_2 N 0.6245(6) 0.2898(8) 0.298(2) 0.0450 Uiso
C2_2 C 0.7534(8) 0.304(1) 0.350(2) 0.0450 Uiso
C3_2 C 0.6365(7) 0.2367(9) 0.154(2) 0.0450 Uiso
C4_2 C 0.6823(7) 0.289(1) 0.432(2) 0.0450 Uiso
C5_2 C 0.6872(7) 0.205(1) 0.510(2) 0.0450 Uiso
O6_2 O 0.5570(6) 0.3973(8) 0.538(1) 0.0450 Uiso
C6_2 C 0.8810(8) 0.1247(7) 0.764(2) 0.0450 Uiso
O14_2 O 0.8283(5) 0.0320(7) 0.496(2) 0.0450 Uiso
P4_2 P 0.8955(4) 0.0540(4) 0.5937(9) 0.0340 Uiso
N2_2 N 0.8755(6) 0.2102(8) 0.702(2) 0.0450 Uiso
C7_2 C 0.7466(8) 0.196(1) 0.650(2) 0.0450 Uiso
C8_2 C 0.8635(7) 0.2633(9) 0.846(2) 0.0450 Uiso
C9_2 C 0.8177(7) 0.211(1) 0.568(2) 0.0450 Uiso
C10_2 C 0.8128(7) 0.295(1) 0.490(2) 0.0450 Uiso
O15_2 O 0.9430(6) 0.1027(8) 0.462(1) 0.0450 Uiso
H1_2 H 0.682848 0.259781 0.091102 . .
H2_2 H 0.648024 0.176819 0.206168 . .
H3_2 H 0.672692 0.334288 0.529521 . .
H4_2 H 0.667931 0.391327 0.1749 . .
H5_2 H 0.575008 0.379545 0.143411 . .
H6_2 H 0.659998 0.499754 0.606842 . .
H7_2 H 0.754455 0.364881 0.296617 . .
H8_2 H 0.761153 0.259858 0.249125 . .
H9_2 H 0.697162 0.161748 0.408725 . .
H10_2 H 0.63683 0.191058 0.566573 . .
H11_2 H 0.924992 0.120455 0.856589 . .
H12_2 H 0.832069 0.108673 0.8251 . .
H13_2 H 0.851976 0.323181 0.793832 . .
H14_2 H 0.817152 0.240219 0.908898 . .
H16_2 H 0.827308 0.165712 0.470479 . .
H17_2 H 0.745545 0.135119 0.703383 . .
H18_2 H 0.738847 0.240142 0.750875 . .
H19_2 H 0.802838 0.338252 0.591275 . .
H20_2 H 0.86317 0.308942 0.433427 . .
O1_2 O 0.5629(5) 0.3014(5) 0.863(1) 0.0450 Uiso
O3_2 O 0.5837(8) 0.1472(6) 0.880(1) 0.0450 Uiso
P1_2 P 0.5672(4) 0.2236(4) 0.9886(8) 0.0480 Uiso
O8_2 O 0.4371(5) 0.3014(5) 0.637(1) 0.0450 Uiso
O10_2 O 0.5660(5) 0.4763(5) 0.853(2) 0.0450 Uiso
O17_2 O 0.4430(6) 0.3973(8) 0.962(1) 0.0450 Uiso
H15_2 H 0.797754 0.999043 0.569712 . .
O4_3 O 0.0016(5) 0.7084(9) 0.437(2) 0.0450 Uiso
O2_3 O 0.9340(5) 0.0237(5) 0.147(2) 0.0450 Uiso
O3_3 O 0.9163(8) 0.6472(6) 0.620(1) 0.0450 Uiso
C1_3 C 0.8810(8) 0.8753(7) 0.264(2) 0.0450 Uiso
P1_3 P 0.9328(4) 0.7236(4) 0.5114(8) 0.0480 Uiso
P2_3 P 0.8955(4) 0.9460(4) 0.0937(9) 0.0340 Uiso
N1_3 N 0.8755(6) 0.7898(8) 0.202(2) 0.0450 Uiso
C2_3 C 0.7466(8) 0.804(1) 0.150(2) 0.0450 Uiso
C3_3 C 0.8635(7) 0.7367(9) 0.346(2) 0.0450 Uiso
C4_3 C 0.8177(7) 0.789(1) 0.068(2) 0.0450 Uiso
O14_3 O 0.6717(5) 0.5320(7) 0.004(2) 0.0450 Uiso
C10_3 C 0.6872(7) 0.795(1) 0.010(2) 0.0450 Uiso
O15_3 O 0.5570(6) 0.6027(8) 0.038(1) 0.0450 Uiso
H1_3 H 0.817152 0.759781 0.408898 . .
H2_3 H 0.851976 0.676819 0.293832 . .
H4_3 H 0.832069 0.891327 0.3251 . .
H5_3 H 0.924992 0.879545 0.356589 . .
H7_3 H 0.745545 0.864881 0.203383 . .
H8_3 H 0.738847 0.759858 0.250875 . .
H9_3 H 0.802838 0.661748 0.0912753 . .
H16_3 H 0.672692 0.665712 0.0295211 . .
H20_3 H 0.63683 0.808942 0.0665732 . .
O5_3 O 0.8283(5) 0.9680(7) 0.996(2) 0.0450 Uiso
C5_3 C 0.8128(7) 0.705(1) 0.990(2) 0.0450 Uiso
O7_3 O 0.5629(5) 0.6986(5) 0.363(1) 0.0450 Uiso
O12_3 O 0.5837(8) 0.8528(6) 0.380(1) 0.0450 Uiso
C6_3 C 0.6190(8) 0.6247(7) 0.736(2) 0.0450 Uiso
P3_3 P 0.5672(4) 0.7764(4) 0.4886(8) 0.0480 Uiso
O13_3 O 0.4984(5) 0.7916(9) 0.563(2) 0.0450 Uiso
P4_3 P 0.6045(4) 0.5540(4) 0.9063(9) 0.0340 Uiso
N2_3 N 0.6245(6) 0.7102(8) 0.798(2) 0.0450 Uiso
C7_3 C 0.7534(8) 0.696(1) 0.850(2) 0.0450 Uiso
C8_3 C 0.6365(7) 0.7633(9) 0.654(2) 0.0450 Uiso
C9_3 C 0.6823(7) 0.711(1) 0.932(2) 0.0450 Uiso
H3_3 H 0.827308 0.834288 0.970479 . .
H6_3 H 0.840002 0.999754 0.893158 . .
H10_3 H 0.86317 0.691058 0.933427 . .
H11_3 H 0.575008 0.620455 0.643411 . .
H12_3 H 0.667931 0.608673 0.6749 . .
H13_3 H 0.648024 0.823181 0.706168 . .
H14_3 H 0.682848 0.740219 0.591102 . .
H15_3 H 0.702246 0.499043 0.930288 . .
H17_3 H 0.754455 0.635119 0.796617 . .
H18_3 H 0.761153 0.740142 0.749125 . .
H19_3 H 0.697162 0.838252 0.908725 . .
O2_4 O 0.4340(5) 0.5237(5) 0.147(2) 0.0450 Uiso
O3_4 O 0.4163(8) 0.1472(6) 0.620(1) 0.0450 Uiso
C1_4 C 0.3810(8) 0.3753(7) 0.264(2) 0.0450 Uiso
P1_4 P 0.4328(4) 0.2236(4) 0.5114(8) 0.0480 Uiso
O4_4 O 0.5016(5) 0.2084(9) 0.437(2) 0.0450 Uiso
P2_4 P 0.3955(4) 0.4460(4) 0.0937(9) 0.0340 Uiso
N1_4 N 0.3755(6) 0.2898(8) 0.202(2) 0.0450 Uiso
C2_4 C 0.2466(8) 0.304(1) 0.150(2) 0.0450 Uiso
C3_4 C 0.3635(7) 0.2367(9) 0.346(2) 0.0450 Uiso
C4_4 C 0.3177(7) 0.289(1) 0.068(2) 0.0450 Uiso
O14_4 O 0.1717(5) 0.0320(7) 0.004(2) 0.0450 Uiso
C10_4 C 0.1872(7) 0.295(1) 0.010(2) 0.0450 Uiso
O15_4 O 0.0570(6) 0.1027(8) 0.038(1) 0.0450 Uiso
H1_4 H 0.317152 0.259781 0.408898 . .
H2_4 H 0.351976 0.176819 0.293832 . .
H4_4 H 0.332069 0.391327 0.3251 . .
H5_4 H 0.424992 0.379545 0.356589 . .
H7_4 H 0.245545 0.364881 0.203383 . .
H8_4 H 0.238847 0.259858 0.250875 . .
H9_4 H 0.302838 0.161748 0.0912753 . .
H16_4 H 0.172692 0.165712 0.0295211 . .
H20_4 H 0.13683 0.308942 0.0665732 . .
O5_4 O 0.3283(5) 0.4680(7) 0.996(2) 0.0450 Uiso
C5_4 C 0.3128(7) 0.205(1) 0.990(2) 0.0450 Uiso
O7_4 O 0.0629(5) 0.1986(5) 0.363(1) 0.0450 Uiso
O12_4 O 0.0837(8) 0.3528(6) 0.380(1) 0.0450 Uiso
C6_4 C 0.1190(8) 0.1247(7) 0.736(2) 0.0450 Uiso
P3_4 P 0.0672(4) 0.2764(4) 0.4886(8) 0.0480 Uiso
P4_4 P 0.1045(4) 0.0540(4) 0.9063(9) 0.0340 Uiso
N2_4 N 0.1245(6) 0.2102(8) 0.798(2) 0.0450 Uiso
C7_4 C 0.2534(8) 0.196(1) 0.850(2) 0.0450 Uiso
C8_4 C 0.1365(7) 0.2633(9) 0.654(2) 0.0450 Uiso
C9_4 C 0.1823(7) 0.211(1) 0.932(2) 0.0450 Uiso
H3_4 H 0.327308 0.334288 0.970479 . .
H6_4 H 0.340002 0.499754 0.893158 . .
H10_4 H 0.36317 0.191058 0.933427 . .
H11_4 H 0.0750076 0.120455 0.643411 . .
H12_4 H 0.167931 0.108673 0.6749 . .
H13_4 H 0.148024 0.323181 0.706168 . .
H14_4 H 0.182848 0.240219 0.591102 . .
H17_4 H 0.254455 0.135119 0.796617 . .
H18_4 H 0.261153 0.240142 0.749125 . .
H19_4 H 0.197162 0.338252 0.908725 . .
H15_4 H 0.202246 0.999043 0.930288 . .
O13_4 O 0.9984(5) 0.2916(9) 0.563(2) 0.0450 Uiso
H6_5 H 0.840002 0.000246124 0.393158 . .
H15_5 H 0.702246 0.500957 0.430288 . .
H15_6 H 0.202246 0.000956842 0.430288 . .
H6_6 H 0.340002 0.500246 0.393158 . .
H6_7 H 0.159998 0.000246124 0.106842 . .
H15_7 H 0.297754 0.500957 0.0697117 . .
H15_8 H 0.797754 0.000956842 0.0697117 . .
H6_8 H 0.659998 0.500246 0.106842 . .
Na1 Na 0.2639(5) 0.9556(5) 0.780(1) 0.0450 Uiso
Na1_2 Na 0.7639(5) 0.4556(5) 0.780(1) 0.0450 Uiso
Na1_3 Na 0.7361(5) 0.9556(5) 0.720(1) 0.0450 Uiso
Na1_4 Na 0.2361(5) 0.4556(5) 0.720(1) 0.0450 Uiso
Na1_5 Na 0.7361(5) 0.0444(5) 0.220(1) 0.0450 Uiso
Na1_6 Na 0.2361(5) 0.5444(5) 0.220(1) 0.0450 Uiso
Na1_7 Na 0.2639(5) 0.0444(5) 0.280(1) 0.0450 Uiso
Na1_8 Na 0.7639(5) 0.5444(5) 0.280(1) 0.0450 Uiso
loop_
_geom_bond_atom_site_label_1
_geom_bond_atom_site_label_2
_geom_bond_site_symmetry_1
_geom_bond_site_symmetry_2
Zr2 O2 1_555 1_555
O7 P3 1_555 1_555
O12 P3 1_555 1_555
Zr6 O7 1_555 1_555
C1 P2 1_555 1_555
O5 P2 1_555 1_555
P2 O6 1_555 1_555
N1 C1 1_555 1_555
C2 C4 1_555 1_555
C4 N1 1_555 1_555
C5 C4 1_555 1_555
O6 Zr3 1_555 1_555
O9 P4 1_555 1_555
C6 P4 1_555 1_555
O14 P4 1_555 1_555
P4 O15 1_555 1_555
N2 C6 1_555 1_555
C7 C5 1_555 1_555
C9 N2 1_555 1_555
C10 C2 1_555 1_555
O15 Zr6 1_555 1_555
Zr4 O9 1_555 1_555
N1 C3 1_555 1_555
N2 C8 1_555 1_555
C7 C9 1_555 1_555
C9 C10 1_555 1_555
C3 H1 1_555 1_555
C3 H2 1_555 1_555
C4 H3 1_555 1_555
C1 H4 1_555 1_555
C1 H5 1_555 1_555
O5 H6 1_555 1_555
C2 H7 1_555 1_555
C2 H8 1_555 1_555
C5 H9 1_555 1_555
C5 H10 1_555 1_555
C6 H11 1_555 1_555
C6 H12 1_555 1_555
C8 H13 1_555 1_555
C8 H14 1_555 1_555
O14 H15 1_555 1_555
C9 H16 1_555 1_555
C7 H17 1_555 1_555
C7 H18 1_555 1_555
C10 H19 1_555 1_555
C10 H20 1_555 1_555
O1 P1 1_555 1_555
O3 P1 1_555 1_555
Zr3 O1 1_555 1_555
O10 Zr3 1_555 1_555
O8 Zr3_2 1_555 1_555
O11 Zr3_2 1_555 1_555
O17 Zr3_2 1_555 1_555
O7_2 P3_2 1_555 1_555
O12_2 P3_2 1_555 1_555
Zr2_2 O7_2 1_555 1_555
O2_2 P2_2 1_555 1_555
C1_2 P2_2 1_555 1_555
O5_2 P2_2 1_555 1_555
P2_2 O6_2 1_555 1_555
N1_2 C1_2 1_555 1_555
C2_2 C4_2 1_555 1_555
C4_2 N1_2 1_555 1_555
C5_2 C4_2 1_555 1_555
O6_2 Zr4 1_555 1_555
C6_2 P4_2 1_555 1_555
O14_2 P4_2 1_555 1_555
P4_2 O15_2 1_555 1_555
N2_2 C6_2 1_555 1_555
C7_2 C5_2 1_555 1_555
C9_2 N2_2 1_555 1_555
C10_2 C2_2 1_555 1_555
O15_2 Zr2_2 1_555 1_555
Zr6 O2_2 1_555 1_555
N1_2 C3_2 1_555 1_555
N2_2 C8_2 1_555 1_555
C7_2 C9_2 1_555 1_555
C9_2 C10_2 1_555 1_555
C3_2 H1_2 1_555 1_555
C3_2 H2_2 1_555 1_555
C4_2 H3_2 1_555 1_555
C1_2 H4_2 1_555 1_555
C1_2 H5_2 1_555 1_555
O5_2 H6_2 1_555 1_555
C2_2 H7_2 1_555 1_555
C2_2 H8_2 1_555 1_555
C5_2 H9_2 1_555 1_555
C5_2 H10_2 1_555 1_555
C6_2 H11_2 1_555 1_555
C6_2 H12_2 1_555 1_555
C8_2 H13_2 1_555 1_555
C8_2 H14_2 1_555 1_555
C9_2 H16_2 1_555 1_555
C7_2 H17_2 1_555 1_555
C7_2 H18_2 1_555 1_555
C10_2 H19_2 1_555 1_555
C10_2 H20_2 1_555 1_555
O1_2 P1_2 1_555 1_555
O3_2 P1_2 1_555 1_555
Zr4 O1_2 1_555 1_555
O8_2 Zr4 1_555 1_555
O10_2 Zr4 1_555 1_555
O17_2 Zr4 1_555 1_555
Zr2_2 O2_3 1_555 1_555
O8 P1_3 1_555 1_555
O3_3 P1_3 1_555 1_555
C1_3 P2_3 1_555 1_555
N1_3 C1_3 1_555 1_555
C2_3 C4_3 1_555 1_555
C3_3 P1_3 1_555 1_555
C4_3 N1_3 1_555 1_555
C10_3 C2_3 1_555 1_555
O15_3 Zr6 1_555 1_555
N1_3 C3_3 1_555 1_555
C3_3 H1_3 1_555 1_555
C3_3 H2_3 1_555 1_555
C1_3 H4_3 1_555 1_555
C1_3 H5_3 1_555 1_555
C2_3 H7_3 1_555 1_555
C2_3 H8_3 1_555 1_555
C10_3 H20_3 1_555 1_555
O7_3 P3_3 1_555 1_555
O10_2 P4_3 1_555 1_555
O12_3 P3_3 1_555 1_555
C6_3 P4_3 1_555 1_555
P3_3 O13_3 1_555 1_555
N2_3 C6_3 1_555 1_555
C7_3 C5_3 1_555 1_555
C8_3 P3_3 1_555 1_555
C9_3 N2_3 1_555 1_555
Zr6 O7_3 1_555 1_555
N2_3 C8_3 1_555 1_555
C7_3 C9_3 1_555 1_555
O5_3 H6_3 1_555 1_555
C5_3 H10_3 1_555 1_555
C6_3 H11_3 1_555 1_555
C6_3 H12_3 1_555 1_555
C8_3 H13_3 1_555 1_555
C8_3 H14_3 1_555 1_555
C7_3 H17_3 1_555 1_555
C7_3 H18_3 1_555 1_555
O8_2 P1_4 1_555 1_555
O2_4 P2_4 1_555 1_555
O3_4 P1_4 1_555 1_555
C1_4 P2_4 1_555 1_555
P1_4 O4_4 1_555 1_555
N1_4 C1_4 1_555 1_555
C2_4 C4_4 1_555 1_555
C3_4 P1_4 1_555 1_555
C4_4 N1_4 1_555 1_555
C10_4 C2_4 1_555 1_555
O15_4 Zr2 1_555 1_555
Zr6 O2_4 1_555 1_555
N1_4 C3_4 1_555 1_555
C3_4 H1_4 1_555 1_555
C3_4 H2_4 1_555 1_555
C1_4 H4_4 1_555 1_555
C1_4 H5_4 1_555 1_555
C2_4 H7_4 1_555 1_555
C2_4 H8_4 1_555 1_555
C10_4 H20_4 1_555 1_555
O7_4 P3_4 1_555 1_555
O12_4 P3_4 1_555 1_555
C6_4 P4_4 1_555 1_555
N2_4 C6_4 1_555 1_555
C7_4 C5_4 1_555 1_555
C8_4 P3_4 1_555 1_555
C9_4 N2_4 1_555 1_555
Zr2 O7_4 1_555 1_555
N2_4 C8_4 1_555 1_555
C7_4 C9_4 1_555 1_555
O5_4 H6_4 1_555 1_555
C5_4 H10_4 1_555 1_555
C6_4 H11_4 1_555 1_555
C6_4 H12_4 1_555 1_555
C8_4 H13_4 1_555 1_555
C8_4 H14_4 1_555 1_555
C7_4 H17_4 1_555 1_555
C7_4 H18_4 1_555 1_555
O14_2 H6_5 1_555 1_555
O5_2 H15_5 1_555 1_555
O14 H6_6 1_555 1_555
O14_4 H6_7 1_555 1_555
O14_3 H6_8 1_555 1_555

#END
