
###############################################################################
#
# This file contains modified crystal structure data generated from the
# MOF subset of the Cambridge Structural Database (CSD) v543 
# hosted by the Cambridge Crystallographic Data Centre (CCDC).
#
# This work is licensed under the Creative Commons
# Attribution-NonCommercial-ShareAlike 4.0 International License.
# To view a copy of this license, visit
# http://creativecommons.org/licenses/by-nc-sa/4.0/
# or send a letter to
# Creative Commons, PO Box 1866, Mountain View, CA 94042, USA.
#
# CIF created using the CSD Python API on 29 September 2022
# The structure has been converted into the P1 space group
# The structure has a 3D framework
# The original CSD entry OCINIA is in the monoclinic crystal system
# The framework has been calculated to contain at least 10.0% void space
# The void calculation uses a probe of radius 1.32A, grid spacing 0.4
#
###############################################################################

data_OCINIA
_chemical_formula_moiety         '(C112 H96 N32 O60 Zn22)n'
_symmetry_cell_setting           triclinic
_symmetry_space_group_name_H-M   'P 1'
_symmetry_Int_Tables_number      1
_space_group_name_Hall           'P 1'
loop_
_symmetry_equiv_pos_site_id
_symmetry_equiv_pos_as_xyz
1 x,y,z
_cell_length_a                   16.9751(12)
_cell_length_b                   10.9659(8)
_cell_length_c                   22.442(2)
_cell_angle_alpha                90
_cell_angle_beta                 109.7140(10)
_cell_angle_gamma                90
_cell_volume                     3932.66
loop_
_atom_site_label
_atom_site_type_symbol
_atom_site_fract_x
_atom_site_fract_y
_atom_site_fract_z
Zn1 Zn -0.0000 0.13695(6) 0.2500
Zn2 Zn 0.19942(3) 0.03070(4) 0.28337(2)
Zn3 Zn 0.07200(3) 0.07541(4) 0.13554(2)
O1 O 0.2061(2) 0.0469(3) 0.37157(14)
O2 O 0.3356(2) 0.1099(4) 0.38801(16)
O4 O 0.1783(2) 0.0360(3) 0.64348(15)
O5 O 0.44023(19) 0.2560(3) 0.68064(13)
O6 O 0.47907(19) 0.3056(3) 0.59860(15)
O7 O 0.07781(17) 0.0256(2) 0.22959(13)
C1 C 0.2865(3) 0.0993(3) 0.47556(18)
C2 C 0.2272(3) 0.0481(3) 0.49899(19)
H1 H 0.1811 0.0069 0.4719
C3 C 0.2376(2) 0.0590(3) 0.56267(19)
C4 C 0.3052(2) 0.1242(4) 0.60272(19)
H2 H 0.3111 0.1325 0.6453
C5 C 0.3634(2) 0.1767(3) 0.58013(18)
C6 C 0.3533(2) 0.1639(3) 0.51620(19)
H3 H 0.3921 0.1993 0.5005
C7 C 0.2763(3) 0.0860(4) 0.4071(2)
C8 C 0.1742(3) 0.0067(4) 0.5884(2)
C9 C 0.4330(2) 0.2534(4) 0.62332(19)
C10 C 0.2656(3) 0.2795(4) 0.26102(19)
H4 H 0.3092 0.2830 0.2996
C11 C 0.1790(3) 0.3249(4) 0.1719(2)
H5 H 0.1502 0.3673 0.1350
N1 N 0.1591(2) 0.2151(3) 0.18397(15)
N2 N 0.2161(2) 0.1848(3) 0.24158(16)
N3 N 0.2457(2) 0.3707(3) 0.21846(16)
Zn7 Zn 0.5000 0.36305(6) 0.7500
Zn9 Zn 0.30058(3) 0.53070(4) 0.21663(2)
Zn13 Zn 0.57200(3) 0.42459(4) 0.63554(2)
O18 O 0.1182(2) 0.0626(3) 0.05530(15)
O21 O 0.05977(19) 0.2440(3) 0.31936(13)
O23 O 0.02093(19) 0.1944(3) 0.40140(15)
O3 O 0.1182(2) 0.9374(3) 0.55530(15)
H6 H 0.0203 0.8455 0.0519
O16 O 0.0136(2) 0.9319(3) 0.39042(17)
C26 C 0.0174(3) 0.8466(5) 0.4262(3)
C27 C 0.1367(4) 0.7564(6) 0.4070(3)
H19 H 0.1699 0.6838 0.4192
H20 H 0.1115 0.7588 0.3618
H21 H 0.1717 0.8267 0.4212
C28 C 0.0730(6) 0.6610(8) 0.4814(5)
H22 H 0.1157 0.6026 0.4825
H23 H 0.0850 0.6965 0.5226
H24 H 0.0196 0.6209 0.4692
N8 N 0.0712(3) 0.7561(4) 0.4359(2)
Zn11 Zn 0.07200(3) 0.92459(4) 0.63554(2)
O20 O 0.1783(2) 0.9640(3) 0.14348(15)
N10 N 0.2543(2) 0.8707(3) 0.28154(16)
Zn1_2 Zn 1.0000 0.13695(6) 0.2500
Zn4 Zn 0.80058(3) 0.03070(4) 0.21663(2)
Zn5 Zn 0.92800(3) 0.07541(4) 0.36446(2)
O9 O 0.7939(2) 0.0469(3) 0.12843(14)
O10 O 0.6644(2) 0.1099(4) 0.11199(16)
O15 O 0.92219(17) 0.0256(2) 0.27041(13)
C15 C 0.7135(3) 0.0993(3) 0.02444(18)
C16 C 0.7728(3) 0.0481(3) 0.00101(19)
H13 H 0.8189 0.0069 0.0281
C21 C 0.7237(3) 0.0860(4) 0.0929(2)
C24 C 0.7344(3) 0.2795(4) 0.23898(19)
H16 H 0.6908 0.2830 0.2004
C25 C 0.8210(3) 0.3249(4) 0.3281(2)
H17 H 0.8498 0.3673 0.3650
N5 N 0.8409(2) 0.2151(3) 0.31603(15)
N6 N 0.7839(2) 0.1848(3) 0.25842(16)
N7 N 0.7543(2) 0.3707(3) 0.28154(16)
Zn8 Zn 0.69942(3) 0.53070(4) 0.28337(2)
O17 O 0.8818(2) 0.0626(3) 0.44470(15)
O22 O 0.94023(19) 0.2440(3) 0.18064(13)
O24 O 0.97907(19) 0.1944(3) 0.09860(15)
O12 O 0.8217(2) 0.0360(3) 0.85652(15)
O13 O 0.55977(19) 0.2560(3) 0.81936(13)
O14 O 0.52093(19) 0.3056(3) 0.90140(15)
C17 C 0.7624(2) 0.0590(3) 0.93733(19)
C18 C 0.6948(2) 0.1242(4) 0.89728(19)
H14 H 0.6889 0.1325 0.8547
C19 C 0.6366(2) 0.1767(3) 0.91987(18)
C20 C 0.6467(2) 0.1639(3) 0.98380(19)
H15 H 0.6079 0.1993 0.9995
C22 C 0.8258(3) 0.0067(4) 0.9116(2)
C23 C 0.5670(2) 0.2534(4) 0.87668(19)
Zn12 Zn 0.42800(3) 0.42459(4) 0.86446(2)
O8 O 0.9864(2) 0.9319(3) 0.10958(17)
C12 C 0.9826(3) 0.8466(5) 0.0738(3)
C13 C 0.8633(4) 0.7564(6) 0.0930(3)
H7 H 0.8301 0.6838 0.0808
H8 H 0.8885 0.7588 0.1382
H9 H 0.8283 0.8267 0.0788
C14 C 0.9270(6) 0.6610(8) 0.0186(5)
H10 H 0.8843 0.6026 0.0175
H12 H 0.9804 0.6209 0.0308
N4 N 0.9288(3) 0.7561(4) 0.0641(2)
H18 H 0.9797 0.8455 0.4481
O19 O 0.8217(2) 0.9640(3) 0.35652(15)
N9 N 0.7457(2) 0.8707(3) 0.21846(16)
H11 H 0.9150 0.6965 0.9774
O11 O 0.8818(2) 0.9374(3) 0.94470(15)
Zn10 Zn 0.92800(3) 0.92459(4) 0.86446(2)
Zn7_2 Zn -0.0000 0.86305(6) 0.7500
Zn1_3 Zn 0.5000 0.63695(6) 0.2500
Zn3_2 Zn 0.57200(3) 0.57541(4) 0.13554(2)
O1_2 O 0.7061(2) 0.5469(3) 0.37157(14)
O2_2 O 0.8356(2) 0.6099(4) 0.38801(16)
O3_2 O 0.6182(2) 0.4374(3) 0.55530(15)
O4_2 O 0.6783(2) 0.5360(3) 0.64348(15)
O5_2 O 0.94023(19) 0.7560(3) 0.68064(13)
O6_2 O 0.97907(19) 0.8056(3) 0.59860(15)
O7_2 O 0.57781(17) 0.5256(2) 0.22959(13)
O8_2 O 0.4864(2) 0.4319(3) 0.10958(17)
C1_2 C 0.7865(3) 0.5993(3) 0.47556(18)
C2_2 C 0.7272(3) 0.5481(3) 0.49899(19)
H1_2 H 0.6811 0.5069 0.4719
C3_2 C 0.7376(2) 0.5590(3) 0.56267(19)
C4_2 C 0.8052(2) 0.6242(4) 0.60272(19)
H2_2 H 0.8111 0.6325 0.6453
C5_2 C 0.8634(2) 0.6767(3) 0.58013(18)
C6_2 C 0.8533(2) 0.6639(3) 0.51620(19)
H3_2 H 0.8921 0.6993 0.5005
C7_2 C 0.7763(3) 0.5860(4) 0.4071(2)
C8_2 C 0.6742(3) 0.5067(4) 0.5884(2)
C9_2 C 0.9330(2) 0.7534(4) 0.62332(19)
C10_2 C 0.7656(3) 0.7795(4) 0.26102(19)
H4_2 H 0.8092 0.7830 0.2996
C11_2 C 0.6790(3) 0.8249(4) 0.1719(2)
H5_2 H 0.6502 0.8673 0.1350
C12_2 C 0.4826(3) 0.3466(5) 0.0738(3)
H6_2 H 0.5203 0.3455 0.0519
C13_2 C 0.3633(4) 0.2564(6) 0.0930(3)
H7_2 H 0.3301 0.1838 0.0808
H8_2 H 0.3885 0.2588 0.1382
H9_2 H 0.3283 0.3267 0.0788
C14_2 C 0.4270(6) 0.1610(8) 0.0186(5)
H10_2 H 0.3843 0.1026 0.0175
H12_2 H 0.4804 0.1209 0.0308
N1_2 N 0.6591(2) 0.7151(3) 0.18397(15)
N2_2 N 0.7161(2) 0.6848(3) 0.24158(16)
N4_2 N 0.4288(3) 0.2561(4) 0.0641(2)
Zn5_2 Zn 0.42800(3) 0.57541(4) 0.36446(2)
O9_2 O 0.2939(2) 0.5469(3) 0.12843(14)
O10_2 O 0.1644(2) 0.6099(4) 0.11199(16)
O15_2 O 0.42219(17) 0.5256(2) 0.27041(13)
O16_2 O 0.5136(2) 0.4319(3) 0.39042(17)
C15_2 C 0.2135(3) 0.5993(3) 0.02444(18)
C16_2 C 0.2728(3) 0.5481(3) 0.00101(19)
H13_2 H 0.3189 0.5069 0.0281
C21_2 C 0.2237(3) 0.5860(4) 0.0929(2)
C24_2 C 0.2344(3) 0.7795(4) 0.23898(19)
H16_2 H 0.1908 0.7830 0.2004
C25_2 C 0.3210(3) 0.8249(4) 0.3281(2)
H17_2 H 0.3498 0.8673 0.3650
C26_2 C 0.5174(3) 0.3466(5) 0.4262(3)
H18_2 H 0.4797 0.3455 0.4481
C27_2 C 0.6367(4) 0.2564(6) 0.4070(3)
H19_2 H 0.6699 0.1838 0.4192
H20_2 H 0.6115 0.2588 0.3618
H21_2 H 0.6717 0.3267 0.4212
C28_2 C 0.5730(6) 0.1610(8) 0.4814(5)
H22_2 H 0.6157 0.1026 0.4825
H23_2 H 0.5850 0.1965 0.5226
H24_2 H 0.5196 0.1209 0.4692
N5_2 N 0.3409(2) 0.7151(3) 0.31603(15)
N6_2 N 0.2839(2) 0.6848(3) 0.25842(16)
N8_2 N 0.5712(3) 0.2561(4) 0.4359(2)
Zn7_3 Zn 1.0000 0.86305(6) 0.7500
O17_2 O 0.3818(2) 0.5626(3) 0.44470(15)
O18_2 O 0.6182(2) 0.5626(3) 0.05530(15)
O19_2 O 0.3217(2) 0.4640(3) 0.35652(15)
O20_2 O 0.6783(2) 0.4640(3) 0.14348(15)
O21_2 O 0.55977(19) 0.7440(3) 0.31936(13)
O22_2 O 0.44023(19) 0.7440(3) 0.18064(13)
O23_2 O 0.52093(19) 0.6944(3) 0.40140(15)
O24_2 O 0.47907(19) 0.6944(3) 0.09860(15)
H11_2 H 0.4150 0.1965 0.9774
O11_2 O 0.3818(2) 0.4374(3) 0.94470(15)
O12_2 O 0.3217(2) 0.5360(3) 0.85652(15)
O13_2 O 0.05977(19) 0.7560(3) 0.81936(13)
O14_2 O 0.02093(19) 0.8056(3) 0.90140(15)
C17_2 C 0.2624(2) 0.5590(3) 0.93733(19)
C18_2 C 0.1948(2) 0.6242(4) 0.89728(19)
H14_2 H 0.1889 0.6325 0.8547
C19_2 C 0.1366(2) 0.6767(3) 0.91987(18)
C20_2 C 0.1467(2) 0.6639(3) 0.98380(19)
H15_2 H 0.1079 0.6993 0.9995
C22_2 C 0.3258(3) 0.5067(4) 0.9116(2)
C23_2 C 0.0670(2) 0.7534(4) 0.87668(19)
H11_3 H 0.0850 0.3035 0.0226
O8_3 O 0.0136(2) 0.0681(3) 0.89042(17)
C12_3 C 0.0174(3) 0.1534(5) 0.9262(3)
C13_3 C 0.1367(4) 0.2436(6) 0.9070(3)
H7_3 H 0.1699 0.3162 0.9192
H8_3 H 0.1115 0.2412 0.8618
H9_3 H 0.1717 0.1733 0.9212
C14_3 C 0.0730(6) 0.3390(8) 0.9814(5)
H10_3 H 0.1157 0.3974 0.9825
H12_3 H 0.0196 0.3791 0.9692
N4_3 N 0.0712(3) 0.2439(4) 0.9359(2)
H18_3 H 0.0203 0.1545 0.5519
N9_2 N 0.2543(2) 0.1293(3) 0.78154(16)
C17_3 C 0.2376(2) 0.9410(3) 0.06267(19)
C18_3 C 0.3052(2) 0.8758(4) 0.10272(19)
H14_3 H 0.3111 0.8675 0.1453
C19_3 C 0.3634(2) 0.8233(3) 0.08013(18)
C20_3 C 0.3533(2) 0.8361(3) 0.01620(19)
H15_3 H 0.3921 0.8007 0.0005
C22_3 C 0.1742(3) 0.9933(4) 0.0884(2)
C23_3 C 0.4330(2) 0.7466(4) 0.12332(19)
Zn4_2 Zn 0.19942(3) 0.96930(4) 0.78337(2)
O9_3 O 0.2061(2) 0.9531(3) 0.87157(14)
O10_3 O 0.3356(2) 0.8901(4) 0.88801(16)
O15_3 O 0.07781(17) 0.9744(2) 0.72959(13)
C15_3 C 0.2865(3) 0.9007(3) 0.97556(18)
C16_3 C 0.2272(3) 0.9519(3) 0.99899(19)
H13_3 H 0.1811 0.9931 0.9719
C21_3 C 0.2763(3) 0.9140(4) 0.9071(2)
C24_3 C 0.2656(3) 0.7205(4) 0.76102(19)
H16_3 H 0.3092 0.7170 0.7996
C25_3 C 0.1790(3) 0.6751(4) 0.6719(2)
H17_3 H 0.1502 0.6327 0.6350
N5_3 N 0.1591(2) 0.7849(3) 0.68397(15)
N6_3 N 0.2161(2) 0.8152(3) 0.74158(16)
N7_2 N 0.2457(2) 0.6293(3) 0.71846(16)
Zn8_2 Zn 0.30058(3) 0.46930(4) 0.71663(2)
H6_3 H 0.9797 0.1545 0.9481
O16_3 O 0.9864(2) 0.0681(3) 0.60958(17)
C26_3 C 0.9826(3) 0.1534(5) 0.5738(3)
C27_3 C 0.8633(4) 0.2436(6) 0.5930(3)
H19_3 H 0.8301 0.3162 0.5808
H20_3 H 0.8885 0.2412 0.6382
H21_3 H 0.8283 0.1733 0.5788
C28_3 C 0.9270(6) 0.3390(8) 0.5186(5)
H22_3 H 0.8843 0.3974 0.5175
H23_3 H 0.9150 0.3035 0.4774
H24_3 H 0.9804 0.3791 0.5308
N8_3 N 0.9288(3) 0.2439(4) 0.5641(2)
N10_2 N 0.7457(2) 0.1293(3) 0.71846(16)
Zn2_2 Zn 0.80058(3) 0.96930(4) 0.71663(2)
O1_3 O 0.7939(2) 0.9531(3) 0.62843(14)
O2_3 O 0.6644(2) 0.8901(4) 0.61199(16)
O7_3 O 0.92219(17) 0.9744(2) 0.77041(13)
C1_3 C 0.7135(3) 0.9007(3) 0.52444(18)
C2_3 C 0.7728(3) 0.9519(3) 0.50101(19)
H1_3 H 0.8189 0.9931 0.5281
C3_3 C 0.7624(2) 0.9410(3) 0.43733(19)
C4_3 C 0.6948(2) 0.8758(4) 0.39728(19)
H2_3 H 0.6889 0.8675 0.3547
C5_3 C 0.6366(2) 0.8233(3) 0.41987(18)
C6_3 C 0.6467(2) 0.8361(3) 0.48380(19)
H3_3 H 0.6079 0.8007 0.4995
C7_3 C 0.7237(3) 0.9140(4) 0.5929(2)
C8_3 C 0.8258(3) 0.9933(4) 0.4116(2)
C9_3 C 0.5670(2) 0.7466(4) 0.37668(19)
C10_3 C 0.7344(3) 0.7205(4) 0.73898(19)
H4_3 H 0.6908 0.7170 0.7004
C11_3 C 0.8210(3) 0.6751(4) 0.8281(2)
H5_3 H 0.8498 0.6327 0.8650
N1_3 N 0.8409(2) 0.7849(3) 0.81603(15)
N2_3 N 0.7839(2) 0.8152(3) 0.75842(16)
N3_2 N 0.7543(2) 0.6293(3) 0.78154(16)
Zn9_2 Zn 0.69942(3) 0.46930(4) 0.78337(2)
H11_4 H 0.5850 0.8035 0.0226
C17_4 C 0.7376(2) 0.4410(3) 0.06267(19)
C18_4 C 0.8052(2) 0.3758(4) 0.10272(19)
H14_4 H 0.8111 0.3675 0.1453
C19_4 C 0.8634(2) 0.3233(3) 0.08013(18)
C20_4 C 0.8533(2) 0.3361(3) 0.01620(19)
H15_4 H 0.8921 0.3007 0.0005
C22_4 C 0.6742(3) 0.4933(4) 0.0884(2)
C23_4 C 0.9330(2) 0.2466(4) 0.12332(19)
O1_4 O 0.2939(2) 0.4531(3) 0.62843(14)
O2_4 O 0.1644(2) 0.3901(4) 0.61199(16)
O7_4 O 0.42219(17) 0.4744(2) 0.77041(13)
O8_4 O 0.5136(2) 0.5681(3) 0.89042(17)
C1_4 C 0.2135(3) 0.4007(3) 0.52444(18)
C2_4 C 0.2728(3) 0.4519(3) 0.50101(19)
H1_4 H 0.3189 0.4931 0.5281
C3_4 C 0.2624(2) 0.4410(3) 0.43733(19)
C4_4 C 0.1948(2) 0.3758(4) 0.39728(19)
H2_4 H 0.1889 0.3675 0.3547
C5_4 C 0.1366(2) 0.3233(3) 0.41987(18)
C6_4 C 0.1467(2) 0.3361(3) 0.48380(19)
H3_4 H 0.1079 0.3007 0.4995
C7_4 C 0.2237(3) 0.4140(4) 0.5929(2)
C8_4 C 0.3258(3) 0.4933(4) 0.4116(2)
C9_4 C 0.0670(2) 0.2466(4) 0.37668(19)
C10_4 C 0.2344(3) 0.2205(4) 0.73898(19)
H4_4 H 0.1908 0.2170 0.7004
C11_4 C 0.3210(3) 0.1751(4) 0.8281(2)
H5_4 H 0.3498 0.1327 0.8650
C12_4 C 0.5174(3) 0.6534(5) 0.9262(3)
H6_4 H 0.4797 0.6545 0.9481
C13_4 C 0.6367(4) 0.7436(6) 0.9070(3)
H7_4 H 0.6699 0.8162 0.9192
H8_4 H 0.6115 0.7412 0.8618
H9_4 H 0.6717 0.6733 0.9212
C14_4 C 0.5730(6) 0.8390(8) 0.9814(5)
H10_4 H 0.6157 0.8974 0.9825
H12_4 H 0.5196 0.8791 0.9692
N1_4 N 0.3409(2) 0.2849(3) 0.81603(15)
N2_4 N 0.2839(2) 0.3152(3) 0.75842(16)
N4_4 N 0.5712(3) 0.7439(4) 0.9359(2)
O9_4 O 0.7061(2) 0.4531(3) 0.87157(14)
O10_4 O 0.8356(2) 0.3901(4) 0.88801(16)
O15_4 O 0.57781(17) 0.4744(2) 0.72959(13)
O16_4 O 0.4864(2) 0.5681(3) 0.60958(17)
C15_4 C 0.7865(3) 0.4007(3) 0.97556(18)
C16_4 C 0.7272(3) 0.4519(3) 0.99899(19)
H13_4 H 0.6811 0.4931 0.9719
C21_4 C 0.7763(3) 0.4140(4) 0.9071(2)
C24_4 C 0.7656(3) 0.2205(4) 0.76102(19)
H16_4 H 0.8092 0.2170 0.7996
C25_4 C 0.6790(3) 0.1751(4) 0.6719(2)
H17_4 H 0.6502 0.1327 0.6350
C26_4 C 0.4826(3) 0.6534(5) 0.5738(3)
H18_4 H 0.5203 0.6545 0.5519
C27_4 C 0.3633(4) 0.7436(6) 0.5930(3)
H19_4 H 0.3301 0.8162 0.5808
H20_4 H 0.3885 0.7412 0.6382
H21_4 H 0.3283 0.6733 0.5788
C28_4 C 0.4270(6) 0.8390(8) 0.5186(5)
H22_4 H 0.3843 0.8974 0.5175
H23_4 H 0.4150 0.8035 0.4774
H24_4 H 0.4804 0.8791 0.5308
N5_4 N 0.6591(2) 0.2849(3) 0.68397(15)
N6_4 N 0.7161(2) 0.3152(3) 0.74158(16)
N8_4 N 0.4288(3) 0.7439(4) 0.5641(2)
loop_
_geom_bond_atom_site_label_1
_geom_bond_atom_site_label_2
_geom_bond_site_symmetry_1
_geom_bond_site_symmetry_2
Zn1 O7 1_555 1_555
Zn2 O1 1_555 1_555
Zn3 O7 1_555 1_555
O1 C7 1_555 1_555
O2 C7 1_555 1_555
O4 C8 1_555 1_555
O5 C9 1_555 1_555
O6 C9 1_555 1_555
O7 Zn2 1_555 1_555
C1 C2 1_555 1_555
C2 H1 1_555 1_555
C3 C2 1_555 1_555
C4 C3 1_555 1_555
H2 C4 1_555 1_555
C5 C4 1_555 1_555
C6 C1 1_555 1_555
H3 C6 1_555 1_555
C7 C1 1_555 1_555
C8 C3 1_555 1_555
C9 C5 1_555 1_555
C10 H4 1_555 1_555
C11 H5 1_555 1_555
N1 Zn3 1_555 1_555
N2 Zn2 1_555 1_555
N3 C10 1_555 1_555
Zn7 O5 1_555 1_555
Zn9 N3 1_555 1_555
Zn13 O6 1_555 1_555
O18 Zn3 1_555 1_555
O21 Zn1 1_555 1_555
C5 C6 1_555 1_555
C10 N2 1_555 1_555
C11 N1 1_555 1_555
C11 N3 1_555 1_555
N1 N2 1_555 1_555
C26 O16 1_555 1_555
C27 H19 1_555 1_555
H20 C27 1_555 1_555
H21 C27 1_555 1_555
C28 H22 1_555 1_555
H23 C28 1_555 1_555
H24 C28 1_555 1_555
N8 C26 1_555 1_555
Zn11 O3 1_555 1_555
C27 N8 1_555 1_555
C28 N8 1_555 1_555
Zn4 O9 1_555 1_555
Zn5 O15 1_555 1_555
O9 C21 1_555 1_555
O10 C21 1_555 1_555
O15 Zn1_2 1_555 1_555
C15 C16 1_555 1_555
C16 H13 1_555 1_555
C21 C15 1_555 1_555
C24 H16 1_555 1_555
C25 H17 1_555 1_555
N5 Zn5 1_555 1_555
N6 Zn4 1_555 1_555
N7 C24 1_555 1_555
Zn8 N7 1_555 1_555
O17 Zn5 1_555 1_555
O22 Zn1_2 1_555 1_555
Zn4 O15 1_555 1_555
C24 N6 1_555 1_555
C25 N5 1_555 1_555
C25 N7 1_555 1_555
N5 N6 1_555 1_555
O12 C22 1_555 1_555
O13 C23 1_555 1_555
O14 C23 1_555 1_555
C18 C17 1_555 1_555
H14 C18 1_555 1_555
C19 C18 1_555 1_555
H15 C20 1_555 1_555
C22 C17 1_555 1_555
C23 C19 1_555 1_555
Zn7 O13 1_555 1_555
Zn12 O14 1_555 1_555
C19 C20 1_555 1_555
C12 O8 1_555 1_555
C13 H7 1_555 1_555
H8 C13 1_555 1_555
H9 C13 1_555 1_555
C14 H10 1_555 1_555
H12 C14 1_555 1_555
N4 C12 1_555 1_555
C13 N4 1_555 1_555
C14 N4 1_555 1_555
Zn10 O11 1_555 1_555
Zn1_3 O7_2 1_555 1_555
Zn8 O1_2 1_555 1_555
Zn3_2 O7_2 1_555 1_555
O1_2 C7_2 1_555 1_555
O2_2 C7_2 1_555 1_555
O3_2 C8_2 1_555 1_555
O4_2 C8_2 1_555 1_555
O5_2 C9_2 1_555 1_555
O6_2 C9_2 1_555 1_555
O7_2 Zn8 1_555 1_555
O8_2 Zn3_2 1_555 1_555
C1_2 C2_2 1_555 1_555
C2_2 H1_2 1_555 1_555
C3_2 C2_2 1_555 1_555
C4_2 C3_2 1_555 1_555
H2_2 C4_2 1_555 1_555
C5_2 C4_2 1_555 1_555
C6_2 C1_2 1_555 1_555
H3_2 C6_2 1_555 1_555
C7_2 C1_2 1_555 1_555
C8_2 C3_2 1_555 1_555
C9_2 C5_2 1_555 1_555
C10_2 H4_2 1_555 1_555
C11_2 H5_2 1_555 1_555
C12_2 O8_2 1_555 1_555
H6_2 C12_2 1_555 1_555
C13_2 H7_2 1_555 1_555
H8_2 C13_2 1_555 1_555
H9_2 C13_2 1_555 1_555
C14_2 H10_2 1_555 1_555
H12_2 C14_2 1_555 1_555
N1_2 Zn3_2 1_555 1_555
N2_2 Zn8 1_555 1_555
N9 C10_2 1_555 1_555
N4_2 C12_2 1_555 1_555
Zn9 O9_2 1_555 1_555
Zn5_2 O15_2 1_555 1_555
O9_2 C21_2 1_555 1_555
O10_2 C21_2 1_555 1_555
O15_2 Zn1_3 1_555 1_555
O16_2 Zn5_2 1_555 1_555
C15_2 C16_2 1_555 1_555
C16_2 H13_2 1_555 1_555
C21_2 C15_2 1_555 1_555
C24_2 H16_2 1_555 1_555
C25_2 H17_2 1_555 1_555
C26_2 O16_2 1_555 1_555
H18_2 C26_2 1_555 1_555
C27_2 H19_2 1_555 1_555
H20_2 C27_2 1_555 1_555
H21_2 C27_2 1_555 1_555
C28_2 H22_2 1_555 1_555
H23_2 C28_2 1_555 1_555
H24_2 C28_2 1_555 1_555
N5_2 Zn5_2 1_555 1_555
N6_2 Zn9 1_555 1_555
N10 C24_2 1_555 1_555
N8_2 C26_2 1_555 1_555
Zn7_3 O5_2 1_555 1_555
Zn13 O3_2 1_555 1_555
O17_2 Zn5_2 1_555 1_555
O18_2 Zn3_2 1_555 1_555
O19_2 Zn5_2 1_555 1_555
O20_2 Zn3_2 1_555 1_555
O21_2 Zn1_3 1_555 1_555
O22_2 Zn1_3 1_555 1_555
O23_2 Zn5_2 1_555 1_555
O24_2 Zn3_2 1_555 1_555
O4_2 Zn13 1_555 1_555
C5_2 C6_2 1_555 1_555
C10_2 N2_2 1_555 1_555
C11_2 N1_2 1_555 1_555
C11_2 N9 1_555 1_555
C13_2 N4_2 1_555 1_555
C14_2 N4_2 1_555 1_555
N1_2 N2_2 1_555 1_555
Zn9 O15_2 1_555 1_555
C24_2 N6_2 1_555 1_555
C25_2 N5_2 1_555 1_555
C25_2 N10 1_555 1_555
C27_2 N8_2 1_555 1_555
C28_2 N8_2 1_555 1_555
N5_2 N6_2 1_555 1_555
O11_2 C22_2 1_555 1_555
O12_2 C22_2 1_555 1_555
O13_2 C23_2 1_555 1_555
O14_2 C23_2 1_555 1_555
C18_2 C17_2 1_555 1_555
H14_2 C18_2 1_555 1_555
C19_2 C18_2 1_555 1_555
H15_2 C20_2 1_555 1_555
C22_2 C17_2 1_555 1_555
C23_2 C19_2 1_555 1_555
Zn7_2 O13_2 1_555 1_555
Zn12 O11_2 1_555 1_555
O12_2 Zn12 1_555 1_555
C19_2 C20_2 1_555 1_555
C12_3 O8_3 1_555 1_555
C13_3 H7_3 1_555 1_555
H8_3 C13_3 1_555 1_555
H9_3 C13_3 1_555 1_555
C14_3 H10_3 1_555 1_555
H12_3 C14_3 1_555 1_555
N4_3 C12_3 1_555 1_555
C13_3 N4_3 1_555 1_555
C14_3 N4_3 1_555 1_555
O20 C22_3 1_555 1_555
O22_2 C23_3 1_555 1_555
O24_2 C23_3 1_555 1_555
C18_3 C17_3 1_555 1_555
H14_3 C18_3 1_555 1_555
C19_3 C18_3 1_555 1_555
H15_3 C20_3 1_555 1_555
C22_3 C17_3 1_555 1_555
C23_3 C19_3 1_555 1_555
C19_3 C20_3 1_555 1_555
Zn4_2 O9_3 1_555 1_555
Zn11 O15_3 1_555 1_555
O9_3 C21_3 1_555 1_555
O10_3 C21_3 1_555 1_555
O15_3 Zn7_2 1_555 1_555
C15_3 C16_3 1_555 1_555
C16_3 H13_3 1_555 1_555
C21_3 C15_3 1_555 1_555
C24_3 H16_3 1_555 1_555
C25_3 H17_3 1_555 1_555
N5_3 Zn11 1_555 1_555
N6_3 Zn4_2 1_555 1_555
N7_2 C24_3 1_555 1_555
Zn8_2 N7_2 1_555 1_555
Zn4_2 O15_3 1_555 1_555
C24_3 N6_3 1_555 1_555
C25_3 N5_3 1_555 1_555
C25_3 N7_2 1_555 1_555
N5_3 N6_3 1_555 1_555
C26_3 O16_3 1_555 1_555
C27_3 H19_3 1_555 1_555
H20_3 C27_3 1_555 1_555
H21_3 C27_3 1_555 1_555
C28_3 H22_3 1_555 1_555
H23_3 C28_3 1_555 1_555
H24_3 C28_3 1_555 1_555
N8_3 C26_3 1_555 1_555
C27_3 N8_3 1_555 1_555
C28_3 N8_3 1_555 1_555
Zn7_3 O7_3 1_555 1_555
Zn2_2 O1_3 1_555 1_555
Zn10 O7_3 1_555 1_555
O1_3 C7_3 1_555 1_555
O2_3 C7_3 1_555 1_555
O19 C8_3 1_555 1_555
O21_2 C9_3 1_555 1_555
O23_2 C9_3 1_555 1_555
O7_3 Zn2_2 1_555 1_555
C1_3 C2_3 1_555 1_555
C2_3 H1_3 1_555 1_555
C3_3 C2_3 1_555 1_555
C4_3 C3_3 1_555 1_555
H2_3 C4_3 1_555 1_555
C5_3 C4_3 1_555 1_555
C6_3 C1_3 1_555 1_555
H3_3 C6_3 1_555 1_555
C7_3 C1_3 1_555 1_555
C8_3 C3_3 1_555 1_555
C9_3 C5_3 1_555 1_555
C10_3 H4_3 1_555 1_555
C11_3 H5_3 1_555 1_555
N1_3 Zn10 1_555 1_555
N2_3 Zn2_2 1_555 1_555
N3_2 C10_3 1_555 1_555
Zn9_2 N3_2 1_555 1_555
C5_3 C6_3 1_555 1_555
C10_3 N2_3 1_555 1_555
C11_3 N1_3 1_555 1_555
C11_3 N3_2 1_555 1_555
N1_3 N2_3 1_555 1_555
O18_2 C22_4 1_555 1_555
O20_2 C22_4 1_555 1_555
O22 C23_4 1_555 1_555
O24 C23_4 1_555 1_555
C18_4 C17_4 1_555 1_555
H14_4 C18_4 1_555 1_555
C19_4 C18_4 1_555 1_555
H15_4 C20_4 1_555 1_555
C22_4 C17_4 1_555 1_555
C23_4 C19_4 1_555 1_555
C19_4 C20_4 1_555 1_555
Zn7 O7_4 1_555 1_555
Zn8_2 O1_4 1_555 1_555
Zn12 O7_4 1_555 1_555
O1_4 C7_4 1_555 1_555
O2_4 C7_4 1_555 1_555
O17_2 C8_4 1_555 1_555
O19_2 C8_4 1_555 1_555
O21 C9_4 1_555 1_555
O23 C9_4 1_555 1_555
O7_4 Zn8_2 1_555 1_555
O8_4 Zn12 1_555 1_555
C1_4 C2_4 1_555 1_555
C2_4 H1_4 1_555 1_555
C3_4 C2_4 1_555 1_555
C4_4 C3_4 1_555 1_555
H2_4 C4_4 1_555 1_555
C5_4 C4_4 1_555 1_555
C6_4 C1_4 1_555 1_555
H3_4 C6_4 1_555 1_555
C7_4 C1_4 1_555 1_555
C8_4 C3_4 1_555 1_555
C9_4 C5_4 1_555 1_555
C10_4 H4_4 1_555 1_555
C11_4 H5_4 1_555 1_555
C12_4 O8_4 1_555 1_555
H6_4 C12_4 1_555 1_555
C13_4 H7_4 1_555 1_555
H8_4 C13_4 1_555 1_555
H9_4 C13_4 1_555 1_555
C14_4 H10_4 1_555 1_555
H12_4 C14_4 1_555 1_555
N1_4 Zn12 1_555 1_555
N2_4 Zn8_2 1_555 1_555
N9_2 C10_4 1_555 1_555
N4_4 C12_4 1_555 1_555
Zn9_2 O9_4 1_555 1_555
Zn13 O15_4 1_555 1_555
O9_4 C21_4 1_555 1_555
O10_4 C21_4 1_555 1_555
O15_4 Zn7 1_555 1_555
O16_4 Zn13 1_555 1_555
C15_4 C16_4 1_555 1_555
C16_4 H13_4 1_555 1_555
C21_4 C15_4 1_555 1_555
C24_4 H16_4 1_555 1_555
C25_4 H17_4 1_555 1_555
C26_4 O16_4 1_555 1_555
H18_4 C26_4 1_555 1_555
C27_4 H19_4 1_555 1_555
H20_4 C27_4 1_555 1_555
H21_4 C27_4 1_555 1_555
C28_4 H22_4 1_555 1_555
H23_4 C28_4 1_555 1_555
H24_4 C28_4 1_555 1_555
N5_4 Zn13 1_555 1_555
N6_4 Zn9_2 1_555 1_555
N10_2 C24_4 1_555 1_555
N8_4 C26_4 1_555 1_555
C5_4 C6_4 1_555 1_555
C10_4 N2_4 1_555 1_555
C11_4 N1_4 1_555 1_555
C11_4 N9_2 1_555 1_555
C13_4 N4_4 1_555 1_555
C14_4 N4_4 1_555 1_555
N1_4 N2_4 1_555 1_555
Zn9_2 O15_4 1_555 1_555
C24_4 N6_4 1_555 1_555
C25_4 N5_4 1_555 1_555
C25_4 N10_2 1_555 1_555
C27_4 N8_4 1_555 1_555
C28_4 N8_4 1_555 1_555
N5_4 N6_4 1_555 1_555

#END
