
###############################################################################
#
# This file contains modified crystal structure data generated from the
# MOF subset of the Cambridge Structural Database (CSD) v543 
# hosted by the Cambridge Crystallographic Data Centre (CCDC).
#
# This work is licensed under the Creative Commons
# Attribution-NonCommercial-ShareAlike 4.0 International License.
# To view a copy of this license, visit
# http://creativecommons.org/licenses/by-nc-sa/4.0/
# or send a letter to
# Creative Commons, PO Box 1866, Mountain View, CA 94042, USA.
#
# CIF created using the CSD Python API on 29 September 2022
# The structure has been converted into the P1 space group
# The structure has a 3D framework
# The original CSD entry OCIVIH is in the hexagonal crystal system
# The framework has been calculated to contain at least 10.0% void space
# The void calculation uses a probe of radius 1.32A, grid spacing 0.4
#
###############################################################################

data_OCIVIH
_chemical_formula_moiety         '(C84 H60 Co10 N12 O60 Pr2)n'
_symmetry_cell_setting           triclinic
_symmetry_space_group_name_H-M   'P 1'
_symmetry_Int_Tables_number      1
_space_group_name_Hall           'P 1'
loop_
_symmetry_equiv_pos_site_id
_symmetry_equiv_pos_as_xyz
1 x,y,z
_cell_length_a                   15.493(2)
_cell_length_b                   15.493(2)
_cell_length_c                   15.199(3)
_cell_angle_alpha                90
_cell_angle_beta                 90
_cell_angle_gamma                120
_cell_volume                     3159.49
loop_
_atom_site_label
_atom_site_type_symbol
_atom_site_fract_x
_atom_site_fract_y
_atom_site_fract_z
O26 O 0.0589(8) 0.4439(5) 0.1569(4)
Co3 Co -0.0000 0.5000 0.2528(3)
O35 O 0.0558(5) 0.4466(6) 0.3452(4)
O40 O 0.1320(4) 0.6440(3) 0.2559(6)
H25 H 0.166(6) 0.631(4) 0.312(4)
H30 H 0.159(7) 0.647(5) 0.228(4)
Co5 Co -0.0000 0.5000 0.7528(3)
Co9 Co 0.5000 0.0000 0.7528(3)
Pr1 Pr 0.6667 0.3333 0.00251(19)
C4 C 0.3216(9) 0.2163(9) 0.0596(8)
H3 H 0.2881 0.2352 0.0989
C5 C 0.4865(6) 0.3538(7) 0.1142(6)
O2 O 0.5786(5) 0.3850(7) 0.1109(4)
O3 O 0.4439(5) 0.3850(6) 0.1569(4)
Co1 Co 0.5000 0.5000 0.2528(3)
N1 N 0.4746(2) 0.2384(7) 0.0024(8)
O5 O 0.6440(3) 0.5120(3) 0.2559(6)
C7 C 0.4249(7) 0.2629(7) 0.0541(6)
H4 H 0.631(4) 0.465(4) 0.312(4)
H5 H 0.647(5) 0.488(5) 0.228(4)
Pr2 Pr 0.3333 0.6667 0.00251(19)
Pr3 Pr 0.6667 0.3334 0.50251(19)
Pr4 Pr 0.3333 0.6666 0.50251(19)
O9 O 0.5835(5) 0.3860(7) 0.3930(4)
O10 O 0.4165(5) 0.6140(7) 0.3930(4)
C11 C 0.4238(8) 0.2669(11) 0.4475(6)
C12 C 0.5762(8) 0.7331(11) 0.4475(6)
C16 C 0.3214(8) 0.2142(11) 0.4484(7)
C17 C 0.6786(8) 0.7858(11) 0.4484(7)
H9 H 0.2875 0.2358 0.4123
H10 H 0.7125 0.7642 0.4123
C21 C 0.2706(4) 0.1374(11) 0.4958(11)
C22 C 0.7294(4) 0.8626(11) 0.4958(11)
H14 H 0.2016 0.1015 0.4905
H15 H 0.7984 0.8985 0.4905
C23 C 0.7837(9) 0.1053(13) 0.0596(8)
C24 C 0.8947(13) 0.6784(9) 0.0596(8)
C25 C 0.6784(9) 0.7837(9) 0.0596(8)
C26 C 0.3216(9) 0.1053(13) 0.5596(8)
C27 C 0.6784(9) 0.8947(13) 0.5596(8)
H16 H 0.7648 0.0529 0.0989
H17 H 0.9471 0.7119 0.0989
H18 H 0.7119 0.7648 0.0989
H19 H 0.2881 0.0529 0.5989
H20 H 0.7119 0.9471 0.5989
C28 C 0.6462(7) 0.1327(9) 0.1142(6)
C29 C 0.8673(9) 0.5135(6) 0.1142(6)
C30 C 0.5135(6) 0.6462(7) 0.1142(6)
C31 C 0.4865(6) 0.1327(9) 0.6142(6)
C32 C 0.5135(6) 0.8673(9) 0.6142(6)
O13 O 0.6150(7) 0.1936(9) 0.1109(4)
O14 O 0.8064(9) 0.4214(5) 0.1109(4)
O15 O 0.4214(5) 0.6150(7) 0.1109(4)
O16 O 0.5786(5) 0.1936(9) 0.6109(4)
O17 O 0.4214(5) 0.8064(9) 0.6109(4)
O18 O 0.3850(7) 0.8064(9) 0.1109(4)
O19 O 0.1936(9) 0.5786(5) 0.1109(4)
O20 O 0.6150(6) 0.0589(8) 0.1569(4)
O21 O 0.9411(8) 0.5561(5) 0.1569(4)
O22 O 0.5561(5) 0.6150(6) 0.1569(4)
O23 O 0.4439(5) 0.0589(8) 0.6569(4)
O24 O 0.5561(5) 0.9411(8) 0.6569(4)
Co2 Co 0.5000 0.0000 0.2528(3)
Co3_2 Co 1.0000 0.5000 0.2528(3)
Co9_2 Co 0.5000 1.0000 0.7528(3)
O30 O 0.4466(6) 0.3908(8) 0.3452(4)
O31 O 0.5534(6) 0.6092(8) 0.3452(4)
O32 O 0.6092(8) 0.0558(5) 0.3452(4)
O34 O 0.9442(5) 0.5534(6) 0.3452(4)
N2 N 0.7616(7) 0.2362(7) 0.0024(8)
N3 N 0.7638(7) 0.5254(2) 0.0024(8)
N4 N 0.5254(2) 0.7616(7) 0.0024(8)
N5 N 0.4746(2) 0.2362(7) 0.5024(8)
N6 N 0.5254(2) 0.7638(7) 0.5024(8)
N7 N 0.2384(7) 0.7638(7) 0.0024(8)
N8 N 0.2362(7) 0.4746(2) 0.0024(8)
O36 O 0.3560(3) 0.4880(3) 0.2559(6)
O37 O 0.4880(3) 0.1320(4) 0.2559(6)
O39 O 0.8680(4) 0.3560(3) 0.2559(6)
C36 C 0.4900(8) 0.3538(11) 0.3922(6)
C37 C 0.5100(8) 0.6462(11) 0.3922(6)
C38 C 0.7371(7) 0.1620(10) 0.0541(6)
C39 C 0.8380(10) 0.5751(7) 0.0541(6)
C40 C 0.5751(7) 0.7371(7) 0.0541(6)
C41 C 0.4249(7) 0.1620(10) 0.5541(6)
C42 C 0.5751(7) 0.8380(10) 0.5541(6)
H21 H 0.369(4) 0.535(4) 0.312(4)
H22 H 0.535(4) 0.166(6) 0.312(4)
H24 H 0.834(6) 0.369(4) 0.312(4)
H26 H 0.353(5) 0.512(5) 0.228(4)
H27 H 0.512(5) 0.159(7) 0.228(4)
H29 H 0.841(7) 0.353(5) 0.228(4)
O1 O 0.5835(5) 0.1975(5) 0.8930(4)
C1 C 0.4238(8) 0.1569(7) 0.9475(6)
C2 C 0.3214(8) 0.1072(8) 0.9484(7)
H1 H 0.2875 0.0517 0.9123
C3 C 0.2706(4) 0.1332(10) 0.9958(11)
H2 H 0.2016 0.1001 0.9905
O4 O 0.4466(6) 0.0558(5) 0.8452(4)
C6 C 0.4900(8) 0.1362(7) 0.8922(6)
O6 O 0.8025(5) 0.3860(7) 0.8930(4)
O7 O 0.6140(7) 0.4165(5) 0.8930(4)
O8 O 0.4165(5) 0.8025(5) 0.8930(4)
O11 O 0.1975(5) 0.6140(7) 0.8930(4)
O12 O 0.3860(7) 0.5835(5) 0.8930(4)
C8 C 0.8431(7) 0.2669(11) 0.9475(6)
C9 C 0.7331(11) 0.5762(8) 0.9475(6)
C10 C 0.5762(8) 0.8431(7) 0.9475(6)
C13 C 0.8928(8) 0.2142(11) 0.9484(7)
C14 C 0.7858(11) 0.6786(8) 0.9484(7)
C15 C 0.6786(8) 0.8928(8) 0.9484(7)
H6 H 0.9483 0.2358 0.9123
H7 H 0.7642 0.7125 0.9123
H8 H 0.7125 0.9483 0.9123
C18 C 0.8668(10) 0.1374(11) 0.9958(11)
C19 C 0.8626(11) 0.7294(4) 0.9958(11)
C20 C 0.7294(4) 0.8668(10) 0.9958(11)
H11 H 0.8999 0.1015 0.9905
H12 H 0.8985 0.7984 0.9905
H13 H 0.7984 0.8999 0.9905
Co5_2 Co 1.0000 0.5000 0.7528(3)
Co6 Co 0.5000 0.5000 0.7528(3)
O27 O 0.9442(5) 0.3908(8) 0.8452(4)
O28 O 0.6092(8) 0.5534(6) 0.8452(4)
O29 O 0.5534(6) 0.9442(5) 0.8452(4)
C33 C 0.8638(7) 0.3538(11) 0.8922(6)
C34 C 0.6462(11) 0.5100(8) 0.8922(6)
C35 C 0.5100(8) 0.8638(7) 0.8922(6)
O25 O 0.3850(6) 0.9411(8) 0.1569(4)
Co2_2 Co 0.5000 1.0000 0.2528(3)
O33 O 0.3908(8) 0.9442(5) 0.3452(4)
O38 O 0.5120(3) 0.8680(4) 0.2559(6)
H23 H 0.465(4) 0.834(6) 0.312(4)
H28 H 0.488(5) 0.841(7) 0.228(4)
O9_2 O 0.6140(7) 0.1975(9) 0.3930(4)
C11_2 C 0.7331(11) 0.1569(14) 0.4475(6)
C16_2 C 0.7858(11) 0.1072(14) 0.4484(7)
H9_2 H 0.7642 0.0517 0.4123
C21_2 C 0.8626(11) 0.1332(12) 0.4958(11)
H14_2 H 0.8985 0.1001 0.4905
C26_2 C 0.8947(13) 0.2163(16) 0.5596(8)
H19_2 H 0.9471 0.2352 0.5989
C31_2 C 0.8673(9) 0.3538(11) 0.6142(6)
O16_2 O 0.8064(9) 0.3850(10) 0.6109(4)
O23_2 O 0.9411(8) 0.3850(9) 0.6569(4)
N5_2 N 0.7638(7) 0.2384(7) 0.5024(8)
C36_2 C 0.6462(11) 0.1362(14) 0.3922(6)
C41_2 C 0.8380(10) 0.2629(12) 0.5541(6)
O10_2 O 0.3860(7) 0.8025(9) 0.3930(4)
C12_2 C 0.2669(11) 0.8431(14) 0.4475(6)
C17_2 C 0.2142(11) 0.8928(14) 0.4484(7)
H10_2 H 0.2358 0.9483 0.4123
C22_2 C 0.1374(11) 0.8668(12) 0.4958(11)
H15_2 H 0.1015 0.8999 0.4905
C25_2 C 0.2163(9) 0.8947(13) 0.0596(8)
C27_2 C 0.1053(13) 0.7837(16) 0.5596(8)
H18_2 H 0.2352 0.9471 0.0989
H20_2 H 0.0529 0.7648 0.5989
C30_2 C 0.3538(7) 0.8673(9) 0.1142(6)
C32_2 C 0.1327(9) 0.6462(11) 0.6142(6)
O17_2 O 0.1936(9) 0.6150(10) 0.6109(4)
O24_2 O 0.0589(8) 0.6150(9) 0.6569(4)
N6_2 N 0.2362(7) 0.7616(7) 0.5024(8)
C37_2 C 0.3538(11) 0.8638(14) 0.3922(6)
C40_2 C 0.2629(7) 0.8380(10) 0.0541(6)
C42_2 C 0.1620(10) 0.7371(12) 0.5541(6)
C10_2 C 0.1569(7) 0.7331(11) 0.9475(6)
C15_2 C 0.1072(8) 0.7858(11) 0.9484(7)
H8_2 H 0.0517 0.7642 0.9123
C20_2 C 0.1332(10) 0.8626(11) 0.9958(11)
H13_2 H 0.1001 0.8985 0.9905
O29_2 O 0.0558(5) 0.6092(8) 0.8452(4)
C35_2 C 0.1362(7) 0.6462(11) 0.8922(6)
O10_3 O 0.1975(9) 0.5835(5) 0.3930(4)
C12_3 C 0.1569(14) 0.4238(8) 0.4475(6)
C17_3 C 0.1072(14) 0.3214(8) 0.4484(7)
H10_3 H 0.0517 0.2875 0.4123
C22_3 C 0.1332(12) 0.2706(4) 0.4958(11)
H15_3 H 0.1001 0.2016 0.4905
C25_3 C 0.1053(13) 0.3216(9) 0.0596(8)
C27_3 C 0.2163(16) 0.3216(9) 0.5596(8)
H18_3 H 0.0529 0.2881 0.0989
H20_3 H 0.2352 0.2881 0.5989
C30_3 C 0.1327(9) 0.4865(6) 0.1142(6)
C32_3 C 0.3538(11) 0.4865(6) 0.6142(6)
O17_3 O 0.3850(10) 0.5786(5) 0.6109(4)
O24_3 O 0.3850(9) 0.4439(5) 0.6569(4)
N6_3 N 0.2384(7) 0.4746(2) 0.5024(8)
C37_3 C 0.1362(14) 0.4900(8) 0.3922(6)
C40_3 C 0.1620(10) 0.4249(7) 0.0541(6)
C42_3 C 0.2629(12) 0.4249(7) 0.5541(6)
C10_3 C 0.2669(11) 0.4238(8) 0.9475(6)
C15_3 C 0.2142(11) 0.3214(8) 0.9484(7)
H8_3 H 0.2358 0.2875 0.9123
C20_3 C 0.1374(11) 0.2706(4) 0.9958(11)
H13_3 H 0.1015 0.2016 0.9905
O29_3 O 0.3908(8) 0.4466(6) 0.8452(4)
C35_3 C 0.3538(11) 0.4900(8) 0.8922(6)
O9_3 O 0.8025(9) 0.4165(5) 0.3930(4)
C11_3 C 0.8431(14) 0.5762(8) 0.4475(6)
C16_3 C 0.8928(14) 0.6786(8) 0.4484(7)
H9_3 H 0.9483 0.7125 0.4123
C21_3 C 0.8668(12) 0.7294(4) 0.4958(11)
H14_3 H 0.8999 0.7984 0.4905
C26_3 C 0.7837(16) 0.6784(9) 0.5596(8)
H19_3 H 0.7648 0.7119 0.5989
C31_3 C 0.6462(11) 0.5135(6) 0.6142(6)
O16_3 O 0.6150(10) 0.4214(5) 0.6109(4)
O23_3 O 0.6150(9) 0.5561(5) 0.6569(4)
N5_3 N 0.7616(7) 0.5254(2) 0.5024(8)
C36_3 C 0.8638(14) 0.5100(8) 0.3922(6)
C41_3 C 0.7371(12) 0.5751(7) 0.5541(6)
O38_2 O 0.1320(4) 0.4880(3) 0.7559(6)
H23_2 H 0.166(6) 0.535(4) 0.812(4)
H28_2 H 0.159(7) 0.512(5) 0.728(4)
O5_2 O 0.4880(3) 0.3560(3) 0.7559(6)
H4_2 H 0.535(4) 0.369(4) 0.812(4)
H5_2 H 0.512(5) 0.353(5) 0.728(4)
O36_2 O 0.5120(3) 0.6440(3) 0.7559(6)
O37_2 O 0.8680(4) 0.5120(3) 0.7559(6)
O39_2 O 0.6440(3) 0.1320(4) 0.7559(6)
H21_2 H 0.465(4) 0.631(4) 0.812(4)
H22_2 H 0.834(6) 0.465(4) 0.812(4)
H24_2 H 0.631(4) 0.166(6) 0.812(4)
H26_2 H 0.488(5) 0.647(5) 0.728(4)
H27_2 H 0.841(7) 0.488(5) 0.728(4)
H29_2 H 0.647(5) 0.159(7) 0.728(4)
O40_2 O 0.3560(3) 0.8680(4) 0.7559(6)
H25_2 H 0.369(4) 0.834(6) 0.812(4)
H30_2 H 0.353(5) 0.841(7) 0.728(4)
loop_
_geom_bond_atom_site_label_1
_geom_bond_atom_site_label_2
_geom_bond_site_symmetry_1
_geom_bond_site_symmetry_2
O26 Co3 1_555 1_555
O35 Co3 1_555 1_555
O40 Co3 1_555 1_555
H25 O40 1_555 1_555
H30 O40 1_555 1_555
H3 C4 1_555 1_555
C5 O2 1_555 1_555
O2 Pr1 1_555 1_555
O3 C5 1_555 1_555
Co1 O3 1_555 1_555
N1 Pr1 1_555 1_555
O5 Co1 1_555 1_555
C7 C4 1_555 1_555
H4 O5 1_555 1_555
H5 O5 1_555 1_555
Pr3 O9 1_555 1_555
Pr4 O10 1_555 1_555
O9 C36 1_555 1_555
O10 C37 1_555 1_555
C11 C16 1_555 1_555
C12 C17 1_555 1_555
C16 H9 1_555 1_555
C17 H10 1_555 1_555
C21 C16 1_555 1_555
C22 C17 1_555 1_555
H14 C21 1_555 1_555
H15 C22 1_555 1_555
C26 C21 1_555 1_555
C27 C22 1_555 1_555
H16 C23 1_555 1_555
H17 C24 1_555 1_555
H18 C25 1_555 1_555
H19 C26 1_555 1_555
H20 C27 1_555 1_555
C28 O13 1_555 1_555
C29 O14 1_555 1_555
C30 O15 1_555 1_555
C31 O16 1_555 1_555
C32 O17 1_555 1_555
O13 Pr1 1_555 1_555
O14 Pr1 1_555 1_555
O15 Pr2 1_555 1_555
O16 Pr3 1_555 1_555
O17 Pr4 1_555 1_555
O18 Pr2 1_555 1_555
O19 Pr2 1_555 1_555
O20 C28 1_555 1_555
O21 C29 1_555 1_555
O22 Co1 1_555 1_555
O23 C31 1_555 1_555
O24 C32 1_555 1_555
Co2 O20 1_555 1_555
Co3_2 O21 1_555 1_555
Co9 O23 1_555 1_555
Co9_2 O24 1_555 1_555
O30 Co1 1_555 1_555
O31 Co1 1_555 1_555
O32 Co2 1_555 1_555
O34 Co3_2 1_555 1_555
N2 Pr1 1_555 1_555
N3 Pr1 1_555 1_555
N4 Pr2 1_555 1_555
N5 Pr3 1_555 1_555
N6 Pr4 1_555 1_555
N7 Pr2 1_555 1_555
N8 Pr2 1_555 1_555
O36 Co1 1_555 1_555
O37 Co2 1_555 1_555
O39 Co3_2 1_555 1_555
C36 C11 1_555 1_555
C37 C12 1_555 1_555
C38 C23 1_555 1_555
C39 C24 1_555 1_555
C40 C25 1_555 1_555
C41 C26 1_555 1_555
C42 C27 1_555 1_555
H21 O36 1_555 1_555
H22 O37 1_555 1_555
H24 O39 1_555 1_555
H26 O36 1_555 1_555
H27 O37 1_555 1_555
H29 O39 1_555 1_555
C5 C7 1_555 1_555
N1 C7 1_555 1_555
C11 N5 1_555 1_555
C12 N6 1_555 1_555
C28 C38 1_555 1_555
C29 C39 1_555 1_555
C30 O22 1_555 1_555
C30 C40 1_555 1_555
C31 C41 1_555 1_555
C32 C42 1_555 1_555
O30 C36 1_555 1_555
O31 C37 1_555 1_555
N2 C38 1_555 1_555
N3 C39 1_555 1_555
N4 C40 1_555 1_555
N5 C41 1_555 1_555
N6 C42 1_555 1_555
O1 C6 1_555 1_555
C1 C2 1_555 1_555
C2 H1 1_555 1_555
C3 C2 1_555 1_555
H2 C3 1_555 1_555
O4 C6 1_555 1_555
C6 C1 1_555 1_555
O8 C35 1_555 1_555
C8 C13 1_555 1_555
C9 C14 1_555 1_555
C10 C15 1_555 1_555
C13 H6 1_555 1_555
C14 H7 1_555 1_555
C15 H8 1_555 1_555
C18 C13 1_555 1_555
C19 C14 1_555 1_555
C20 C15 1_555 1_555
H11 C18 1_555 1_555
H12 C19 1_555 1_555
H13 C20 1_555 1_555
Co9 O4 1_555 1_555
Co5_2 O27 1_555 1_555
Co6 O28 1_555 1_555
Co9_2 O29 1_555 1_555
O27 C33 1_555 1_555
O28 C34 1_555 1_555
O29 C35 1_555 1_555
C33 O6 1_555 1_555
C34 O7 1_555 1_555
C35 C10 1_555 1_555
C8 C33 1_555 1_555
C9 C34 1_555 1_555
O25 Co2_2 1_555 1_555
O33 Co2_2 1_555 1_555
O38 Co2_2 1_555 1_555
H23 O38 1_555 1_555
H28 O38 1_555 1_555
Pr3 O9_2 1_555 1_555
O9_2 C36_2 1_555 1_555
C11_2 C16_2 1_555 1_555
C16_2 H9_2 1_555 1_555
C21_2 C16_2 1_555 1_555
H14_2 C21_2 1_555 1_555
C26_2 C21_2 1_555 1_555
H19_2 C26_2 1_555 1_555
C31_2 O16_2 1_555 1_555
O16_2 Pr3 1_555 1_555
O23_2 C31_2 1_555 1_555
Co5_2 O23_2 1_555 1_555
N5_2 Pr3 1_555 1_555
C36_2 C11_2 1_555 1_555
C41_2 C26_2 1_555 1_555
C11_2 N5_2 1_555 1_555
C31_2 C41_2 1_555 1_555
O32 C36_2 1_555 1_555
N5_2 C41_2 1_555 1_555
Pr4 O10_2 1_555 1_555
O10_2 C37_2 1_555 1_555
C12_2 C17_2 1_555 1_555
C17_2 H10_2 1_555 1_555
C22_2 C17_2 1_555 1_555
H15_2 C22_2 1_555 1_555
C27_2 C22_2 1_555 1_555
H18_2 C25_2 1_555 1_555
H20_2 C27_2 1_555 1_555
C30_2 O18 1_555 1_555
C32_2 O17_2 1_555 1_555
O17_2 Pr4 1_555 1_555
O24_2 C32_2 1_555 1_555
Co5 O24_2 1_555 1_555
N6_2 Pr4 1_555 1_555
C37_2 C12_2 1_555 1_555
C40_2 C25_2 1_555 1_555
C42_2 C27_2 1_555 1_555
C12_2 N6_2 1_555 1_555
C30_2 O25 1_555 1_555
C30_2 C40_2 1_555 1_555
C32_2 C42_2 1_555 1_555
O33 C37_2 1_555 1_555
N7 C40_2 1_555 1_555
N6_2 C42_2 1_555 1_555
O11 C35_2 1_555 1_555
C10_2 C15_2 1_555 1_555
C15_2 H8_2 1_555 1_555
C20_2 C15_2 1_555 1_555
H13_2 C20_2 1_555 1_555
Co5 O29_2 1_555 1_555
O29_2 C35_2 1_555 1_555
C35_2 C10_2 1_555 1_555
Pr4 O10_3 1_555 1_555
O10_3 C37_3 1_555 1_555
C12_3 C17_3 1_555 1_555
C17_3 H10_3 1_555 1_555
C22_3 C17_3 1_555 1_555
H15_3 C22_3 1_555 1_555
C27_3 C22_3 1_555 1_555
H18_3 C25_3 1_555 1_555
H20_3 C27_3 1_555 1_555
C30_3 O19 1_555 1_555
C32_3 O17_3 1_555 1_555
O17_3 Pr4 1_555 1_555
O24_3 C32_3 1_555 1_555
Co6 O24_3 1_555 1_555
N6_3 Pr4 1_555 1_555
C37_3 C12_3 1_555 1_555
C40_3 C25_3 1_555 1_555
C42_3 C27_3 1_555 1_555
C12_3 N6_3 1_555 1_555
C30_3 O26 1_555 1_555
C30_3 C40_3 1_555 1_555
C32_3 C42_3 1_555 1_555
O35 C37_3 1_555 1_555
N8 C40_3 1_555 1_555
N6_3 C42_3 1_555 1_555
O12 C35_3 1_555 1_555
C10_3 C15_3 1_555 1_555
C15_3 H8_3 1_555 1_555
C20_3 C15_3 1_555 1_555
H13_3 C20_3 1_555 1_555
Co6 O29_3 1_555 1_555
O29_3 C35_3 1_555 1_555
C35_3 C10_3 1_555 1_555
Pr3 O9_3 1_555 1_555
O9_3 C36_3 1_555 1_555
C11_3 C16_3 1_555 1_555
C16_3 H9_3 1_555 1_555
C21_3 C16_3 1_555 1_555
H14_3 C21_3 1_555 1_555
C26_3 C21_3 1_555 1_555
H19_3 C26_3 1_555 1_555
C31_3 O16_3 1_555 1_555
O16_3 Pr3 1_555 1_555
O23_3 C31_3 1_555 1_555
Co6 O23_3 1_555 1_555
N5_3 Pr3 1_555 1_555
C36_3 C11_3 1_555 1_555
C41_3 C26_3 1_555 1_555
C11_3 N5_3 1_555 1_555
C31_3 C41_3 1_555 1_555
O34 C36_3 1_555 1_555
N5_3 C41_3 1_555 1_555
O38_2 Co5 1_555 1_555
H23_2 O38_2 1_555 1_555
H28_2 O38_2 1_555 1_555
O5_2 Co6 1_555 1_555
H4_2 O5_2 1_555 1_555
H5_2 O5_2 1_555 1_555
O36_2 Co6 1_555 1_555
O37_2 Co5_2 1_555 1_555
O39_2 Co9 1_555 1_555
H21_2 O36_2 1_555 1_555
H22_2 O37_2 1_555 1_555
H24_2 O39_2 1_555 1_555
H26_2 O36_2 1_555 1_555
H27_2 O37_2 1_555 1_555
H29_2 O39_2 1_555 1_555
O40_2 Co9_2 1_555 1_555
H25_2 O40_2 1_555 1_555
H30_2 O40_2 1_555 1_555

#END
